
#######################################################################
#
#                 Cambridge Crystallographic Data Centre
#                                CCDC 
#
#######################################################################
#
# If this CIF has been generated from an entry in the Cambridge 
# Structural Database, then it will include bibliographic, chemical, 
# crystal, experimental, refinement or atomic coordinate data resulting 
# from the CCDC's data processing and validation procedures.
#
#######################################################################

data_TAZWOI
_symmetry_cell_setting           monoclinic
_symmetry_space_group_name_H-M   'P 21/c'
_symmetry_Int_Tables_number      14
_space_group_name_Hall           '-P 2ybc'
loop_
_symmetry_equiv_pos_site_id
_symmetry_equiv_pos_as_xyz
1 x,y,z
2 -x,1/2+y,1/2-z
3 -x,-y,-z
4 x,1/2-y,1/2+z
_cell_length_a                   10.1122(8)
_cell_length_b                   11.7268(6)
_cell_length_c                   18.1481(17)
_cell_angle_alpha                90
_cell_angle_beta                 107.034(7)
_cell_angle_gamma                90
_cell_volume                     2057.66
loop_
_atom_site_label
_atom_site_type_symbol
_atom_site_fract_x
_atom_site_fract_y
_atom_site_fract_z
Cu1 Cu 0.59723(6) 0.58167(5) 0.40117(3)
Cu2 Cu 0.73111(6) 0.36100(4) 0.52304(3)
Cu3 Cu 0.88340(6) 0.62270(4) 0.54750(3)
O1 O 0.7583(3) 0.5120(2) 0.47695(19)
O2 O 0.4386(3) 0.6504(2) 0.32366(18)
O3 O 0.5409(4) 0.5710(3) 0.2442(2)
O4 O -0.0076(3) 0.7673(2) 0.12329(18)
O5 O 0.1561(3) 0.8064(3) 0.06839(19)
N1 N 0.4899(4) 0.4453(3) 0.4044(2)
N2 N 0.5409(4) 0.3588(3) 0.4552(2)
N3 N 0.8982(4) 0.3908(3) 0.6060(2)
N4 N 0.9568(4) 0.4969(3) 0.6170(2)
N5 N 0.8191(4) 0.7376(3) 0.4679(2)
N6 N 0.7038(4) 0.7208(3) 0.4080(2)
N7 N 0.7163(4) 0.2005(3) 0.5579(2)
N8 N 0.6658(4) 0.1689(3) 0.6159(2)
H1 H 0.6351 0.2157 0.6435
C1 C 0.3662(5) 0.4147(4) 0.3616(3)
H2 H 0.3094 0.4588 0.3224
C2 C 0.3322(5) 0.3083(4) 0.3826(3)
H3 H 0.2512 0.2673 0.3617
C3 C 0.4460(5) 0.2768(4) 0.4419(3)
H4 H 0.4552 0.2083 0.4686
C4 C 0.9742(5) 0.3224(4) 0.6610(3)
H5 H 0.9574 0.2451 0.6658
C5 C 1.0800(6) 0.3825(5) 0.7091(3)
H6 H 1.1475 0.3558 0.7523
C6 C 1.0650(6) 0.4906(5) 0.6799(3)
H7 H 1.1225 0.5515 0.7011
C7 C 0.8747(5) 0.8370(4) 0.4573(3)
H8 H 0.9555 0.8678 0.4899
C8 C 0.7951(6) 0.8867(4) 0.3911(3)
H9 H 0.8095 0.9565 0.3704
C9 C 0.6891(5) 0.8108(4) 0.3619(3)
H10 H 0.6176 0.8209 0.3165
C10 C 0.7499(5) 0.1041(4) 0.5308(3)
H11 H 0.7871 0.0992 0.4897
C11 C 0.7231(6) 0.0120(4) 0.5708(4)
H12 H 0.7384 -0.0645 0.5625
C12 C 0.6695(6) 0.0566(4) 0.6250(3)
H13 H 0.6408 0.0160 0.6616
C13 C 0.4505(5) 0.6303(4) 0.2558(3)
C14 C 0.3473(5) 0.6879(4) 0.1906(3)
H14 H 0.3783 0.7161 0.1507
C15 C 0.2165(5) 0.7019(4) 0.1852(3)
H15 H 0.1847 0.6727 0.2245
C16 C 0.1148(5) 0.7616(4) 0.1202(3)
H16 H 0.8006(16) 0.4942(11) 0.4544(9)
Cu2A Cu 0.26889(6) 0.86100(4) -0.02304(3)
Cu3C Cu -0.11660(6) 0.87730(4) 0.04750(3)
O4C O 0.9924(3) 0.7327(2) 0.62329(18)
O5A O 0.8439(3) 0.3064(3) 0.43161(19)
O5C O 1.1561(3) 0.6936(3) 0.56839(19)
loop_
_geom_bond_atom_site_label_1
_geom_bond_atom_site_label_2
_geom_bond_site_symmetry_1
_geom_bond_site_symmetry_2
Cu1 O1 1_555 1_555
Cu2 O1 1_555 1_555
Cu3 O1 1_555 1_555
O1 H16 1_555 1_555
O2 Cu1 1_555 1_555
O3 Cu1 1_555 1_555
O4 C16 1_555 1_555
O5 C16 1_555 1_555
N1 Cu1 1_555 1_555
N2 Cu2 1_555 1_555
N3 Cu2 1_555 1_555
N4 Cu3 1_555 1_555
N5 Cu3 1_555 1_555
N6 Cu1 1_555 1_555
N7 Cu2 1_555 1_555
N8 N7 1_555 1_555
H1 N8 1_555 1_555
C1 N1 1_555 1_555
H2 C1 1_555 1_555
C2 C1 1_555 1_555
H3 C2 1_555 1_555
C3 N2 1_555 1_555
H4 C3 1_555 1_555
C4 N3 1_555 1_555
H5 C4 1_555 1_555
C5 C4 1_555 1_555
H6 C5 1_555 1_555
C6 N4 1_555 1_555
H7 C6 1_555 1_555
C7 N5 1_555 1_555
H8 C7 1_555 1_555
C8 C7 1_555 1_555
H9 C8 1_555 1_555
C9 N6 1_555 1_555
H10 C9 1_555 1_555
C10 N7 1_555 1_555
H11 C10 1_555 1_555
C11 C10 1_555 1_555
H12 C11 1_555 1_555
C12 N8 1_555 1_555
H13 C12 1_555 1_555
C13 O2 1_555 1_555
C14 C13 1_555 1_555
H14 C14 1_555 1_555
C15 C14 1_555 1_555
H15 C15 1_555 1_555
C16 C15 1_555 1_555
Cu2A O5 1_555 1_555
Cu3C O4 1_555 1_555
O4C Cu3 1_555 1_555
O5A Cu2 1_555 1_555
O5C Cu3 1_555 1_555
O3 C13 1_555 1_555
O5 Cu3C 1_555 1_555
N1 N2 1_555 1_555
N3 N4 1_555 1_555
N5 N6 1_555 1_555
C2 C3 1_555 1_555
C5 C6 1_555 1_555
C8 C9 1_555 1_555
C11 C12 1_555 1_555

#END
