
#######################################################################
#
#                 Cambridge Crystallographic Data Centre
#                                CCDC 
#
#######################################################################
#
# If this CIF has been generated from an entry in the Cambridge 
# Structural Database, then it will include bibliographic, chemical, 
# crystal, experimental, refinement or atomic coordinate data resulting 
# from the CCDC's data processing and validation procedures.
#
#######################################################################

data_TAZWUO
_symmetry_cell_setting           monoclinic
_symmetry_space_group_name_H-M   'P 21/c'
_symmetry_Int_Tables_number      14
_space_group_name_Hall           '-P 2ybc'
loop_
_symmetry_equiv_pos_site_id
_symmetry_equiv_pos_as_xyz
1 x,y,z
2 -x,1/2+y,1/2-z
3 -x,-y,-z
4 x,1/2-y,1/2+z
_cell_length_a                   10.1315(19)
_cell_length_b                   11.856(3)
_cell_length_c                   19.097(4)
_cell_angle_alpha                90
_cell_angle_beta                 109.464(14)
_cell_angle_gamma                90
_cell_volume                     2162.82
loop_
_atom_site_label
_atom_site_type_symbol
_atom_site_fract_x
_atom_site_fract_y
_atom_site_fract_z
Cu1 Cu 0.58964(14) 0.57115(13) 0.40259(9)
Cu2 Cu 0.88676(14) 0.61944(13) 0.54290(9)
Cu3 Cu 0.74057(14) 0.35962(13) 0.52415(9)
O1 O 0.7606(7) 0.5059(6) 0.4773(5)
O2 O 0.4267(7) 0.6331(8) 0.3229(4)
O3 O 0.5268(9) 0.5494(8) 0.2495(6)
O4 O -0.0056(8) 0.7680(7) 0.1140(5)
O5 O 0.1719(8) 0.7946(8) 0.0679(5)
N1 N 0.6861(10) 0.7129(8) 0.4087(5)
N2 N 0.8056(9) 0.7319(8) 0.4695(5)
N3 N 0.9734(9) 0.4960(8) 0.6094(5)
N4 N 0.9234(9) 0.3906(8) 0.5990(5)
N5 N 0.5416(8) 0.3528(9) 0.4594(5)
N6 N 0.4884(9) 0.4350(9) 0.4081(5)
N7 N 0.7279(9) 0.2079(8) 0.5658(5)
N8 N 0.6854(10) 0.1840(9) 0.6235(6)
H1 H 0.6624 0.2347 0.6495
C1 C 0.6588(13) 0.8066(12) 0.3689(7)
H2 H 0.5841 0.8164 0.3250
C2 C 0.7565(13) 0.8868(12) 0.4017(8)
H3 H 0.7600 0.9606 0.3859
C3 C 0.8457(13) 0.8370(12) 0.4614(8)
H4 H 0.9259 0.8711 0.4934
C4 C 1.0972(13) 0.4896(13) 0.6662(7)
H5 H 1.1562 0.5503 0.6856
C5 C 1.1221(12) 0.3814(12) 0.6907(7)
H6 H 1.2003 0.3542 0.7281
C6 C 1.0093(11) 0.3213(11) 0.6492(7)
H7 H 0.9941 0.2449 0.6547
C7 C 0.4515(12) 0.2697(11) 0.4482(7)
H8 H 0.4646 0.2028 0.4751
C8 C 0.3313(12) 0.2993(12) 0.3881(8)
H9 H 0.2509 0.2564 0.3669
C9 C 0.3589(12) 0.4039(11) 0.3681(8)
H10 H 0.2963 0.4478 0.3316
C10 C 0.7545(12) 0.1094(11) 0.5432(7)
H11 H 0.7873 0.0989 0.5036
C11 C 0.7292(15) 0.0250(12) 0.5835(8)
H12 H 0.7414 -0.0517 0.5774
C12 C 0.6809(13) 0.0748(13) 0.6365(8)
H13 H 0.6521 0.0395 0.6725
C13 C 0.4406(11) 0.6119(11) 0.2591(7)
C14 C 0.3436(12) 0.6768(10) 0.1928(7)
H14 H 0.3823 0.7171 0.1626
C15 C 0.2062(12) 0.6774(11) 0.1769(7)
C16 C 0.1237(13) 0.7554(11) 0.1121(7)
C17 C 0.1215(14) 0.6038(15) 0.2131(9)
H15 H 0.0295 0.6351 0.2026
H16 H 0.1681 0.6017 0.2659
H17 H 0.1141 0.5286 0.1935
H18 H 0.8006(16) 0.4887(12) 0.4534(8)
Cu2C Cu -0.11324(14) 0.88056(13) 0.04290(9)
Cu3A Cu 0.25943(14) 0.85962(13) -0.02415(9)
O4C O 0.9944(8) 0.7320(7) 0.6140(5)
O5C O 1.1719(8) 0.7054(8) 0.5679(5)
O5A O 0.8281(8) 0.2946(8) 0.4321(5)
loop_
_geom_bond_atom_site_label_1
_geom_bond_atom_site_label_2
_geom_bond_site_symmetry_1
_geom_bond_site_symmetry_2
Cu1 O1 1_555 1_555
Cu2 O1 1_555 1_555
Cu3 O1 1_555 1_555
O1 H18 1_555 1_555
O2 Cu1 1_555 1_555
O3 Cu1 1_555 1_555
O4 C16 1_555 1_555
O5 C16 1_555 1_555
N1 Cu1 1_555 1_555
N2 Cu2 1_555 1_555
N3 Cu2 1_555 1_555
N4 Cu3 1_555 1_555
N5 Cu3 1_555 1_555
N6 Cu1 1_555 1_555
N7 Cu3 1_555 1_555
N8 N7 1_555 1_555
H1 N8 1_555 1_555
C1 N1 1_555 1_555
H2 C1 1_555 1_555
C2 C1 1_555 1_555
H3 C2 1_555 1_555
C3 N2 1_555 1_555
H4 C3 1_555 1_555
C4 N3 1_555 1_555
H5 C4 1_555 1_555
C5 C4 1_555 1_555
H6 C5 1_555 1_555
C6 N4 1_555 1_555
H7 C6 1_555 1_555
C7 N5 1_555 1_555
H8 C7 1_555 1_555
C8 C7 1_555 1_555
H9 C8 1_555 1_555
C9 N6 1_555 1_555
H10 C9 1_555 1_555
C10 N7 1_555 1_555
H11 C10 1_555 1_555
C11 C10 1_555 1_555
H12 C11 1_555 1_555
C12 N8 1_555 1_555
H13 C12 1_555 1_555
C13 O2 1_555 1_555
C14 C13 1_555 1_555
H14 C14 1_555 1_555
C15 C14 1_555 1_555
C16 C15 1_555 1_555
C17 C15 1_555 1_555
H15 C17 1_555 1_555
H16 C17 1_555 1_555
H17 C17 1_555 1_555
Cu2C O4 1_555 1_555
Cu3A O5 1_555 1_555
O4C Cu2 1_555 1_555
O5C Cu2 1_555 1_555
O5A Cu3 1_555 1_555
O3 C13 1_555 1_555
O5 Cu2C 1_555 1_555
N1 N2 1_555 1_555
N3 N4 1_555 1_555
N5 N6 1_555 1_555
C2 C3 1_555 1_555
C5 C6 1_555 1_555
C8 C9 1_555 1_555
C11 C12 1_555 1_555

#END
