
#######################################################################
#
#                 Cambridge Crystallographic Data Centre
#                                CCDC 
#
#######################################################################
#
# If this CIF has been generated from an entry in the Cambridge 
# Structural Database, then it will include bibliographic, chemical, 
# crystal, experimental, refinement or atomic coordinate data resulting 
# from the CCDC's data processing and validation procedures.
#
#######################################################################

data_TAZYAW
_symmetry_cell_setting           triclinic
_symmetry_space_group_name_H-M   'P -1'
_symmetry_Int_Tables_number      2
_space_group_name_Hall           '-P 1'
loop_
_symmetry_equiv_pos_site_id
_symmetry_equiv_pos_as_xyz
1 x,y,z
2 -x,-y,-z
_cell_length_a                   9.3761(11)
_cell_length_b                   10.5814(13)
_cell_length_c                   11.2972(14)
_cell_angle_alpha                85.472(2)
_cell_angle_beta                 88.058(2)
_cell_angle_gamma                76.203(2)
_cell_volume                     1084.95
loop_
_atom_site_label
_atom_site_type_symbol
_atom_site_fract_x
_atom_site_fract_y
_atom_site_fract_z
Co1 Co 1.12111(4) 0.67267(3) 0.26504(3)
S1 S 1.31355(8) 0.44688(8) -0.08856(7)
S2 S 1.51516(8) 0.88875(7) 0.17788(7)
S3 S 0.84967(10) 0.91468(9) 0.57843(8)
N1 N 1.0195(7) 0.7433(4) 0.4229(4)
C1 C 0.9501(3) 0.8128(3) 0.4876(2)
O3 O 0.9777(2) 0.53964(18) 0.26340(18)
H3 H 1.0305 0.4653 0.2483
H4 H 0.9099 0.5565 0.2124
N2 N 0.9655(2) 0.8295(2) 0.1684(2)
N3 N 0.6807(2) 1.2222(2) 0.2690(2)
H7 H 0.6639 1.1513 0.3112
H8 H 0.6118 1.2466 0.2128
N4 N 0.2708(2) 1.5159(2) 0.3668(2)
N5 N 1.2073(3) 0.5973(2) 0.1037(2)
N6 N 1.2739(2) 0.7895(2) 0.2581(2)
C2 C 0.8532(3) 1.0593(3) 0.1534(2)
C3 C 0.9355(3) 0.9482(3) 0.2121(2)
H9 H 0.9724 0.9553 0.2860
C4 C 0.9107(3) 0.8214(3) 0.0621(2)
H10 H 0.9294 0.7402 0.0308
C5 C 0.8277(3) 0.9282(3) -0.0034(3)
H11 H 0.7917 0.9185 -0.0770
C6 C 0.7990(3) 1.0495(3) 0.0423(3)
H12 H 0.7446 1.1228 -0.0005
C7 C 0.8292(3) 1.1871(3) 0.2103(3)
H13 H 0.9043 1.1808 0.2688
H14 H 0.8383 1.2556 0.1502
C8 C 0.6671(3) 1.3306(3) 0.3500(3)
H15 H 0.6968 1.4037 0.3076
H16 H 0.7317 1.3007 0.4170
C9 C 0.5110(3) 1.3742(2) 0.3944(2)
C10 C 0.4106(3) 1.4723(2) 0.3314(2)
H17 H 0.4421 1.5097 0.2611
C11 C 0.2273(3) 1.4604(3) 0.4680(3)
H18 H 0.1304 1.4896 0.4935
C12 C 0.3191(3) 1.3618(3) 0.5368(3)
H19 H 0.2846 1.3256 0.6064
C13 C 0.4633(3) 1.3186(3) 0.4994(2)
H20 H 0.5277 1.2530 0.5440
C14 C 1.2499(3) 0.5363(3) 0.0236(3)
C15 C 1.3725(3) 0.8319(3) 0.2259(2)
Co1_2 Co 0.12111(4) 1.67267(3) 0.26504(3)
N4_2 N 1.2708(2) 0.5159(2) 0.3668(2)
O1 O 0.5914(3) 0.0310(3) 0.3942(2)
O2 O 0.8564(3) 0.6946(2) 0.7936(2)
H1 H 0.8517 0.7526 0.7364
H2 H 0.7681 0.7007 0.8170
O4 O 0.4492(2) 0.2247(2) 0.1164(2)
H5 H 0.4527 0.1452 0.1063
H6 H 0.4318 0.2645 0.0482
C16? C 0.9593(19) 0.7566(17) 0.5202(10)
N7? N 1.024(4) 0.726(3) 0.4347(18)
O5? O 0.6651(17) 0.0083(14) 0.4592(14)
S4? S 0.8682(5) 0.7864(5) 0.6465(4)
loop_
_geom_bond_atom_site_label_1
_geom_bond_atom_site_label_2
_geom_bond_site_symmetry_1
_geom_bond_site_symmetry_2
Co1 N1 1_555 1_555
S1 C14 1_555 1_555
S2 C15 1_555 1_555
S3 C1 1_555 1_555
N1 C1 1_555 1_555
O2 H1 1_555 1_555
H2 O2 1_555 1_555
O3 Co1 1_555 1_555
H3 O3 1_555 1_555
H4 O3 1_555 1_555
O4 H5 1_555 1_555
H6 O4 1_555 1_555
N2 Co1 1_555 1_555
N3 H7 1_555 1_555
H8 N3 1_555 1_555
N4 C10 1_555 1_555
N5 Co1 1_555 1_555
N6 Co1 1_555 1_555
C2 C3 1_555 1_555
C3 N2 1_555 1_555
H9 C3 1_555 1_555
C4 N2 1_555 1_555
H10 C4 1_555 1_555
C5 C4 1_555 1_555
H11 C5 1_555 1_555
C6 C2 1_555 1_555
H12 C6 1_555 1_555
C7 N3 1_555 1_555
H13 C7 1_555 1_555
H14 C7 1_555 1_555
C8 N3 1_555 1_555
H15 C8 1_555 1_555
H16 C8 1_555 1_555
C9 C8 1_555 1_555
C10 C9 1_555 1_555
H17 C10 1_555 1_555
C11 N4 1_555 1_555
H18 C11 1_555 1_555
C12 C11 1_555 1_555
H19 C12 1_555 1_555
C13 C9 1_555 1_555
H20 C13 1_555 1_555
C14 N5 1_555 1_555
C15 N6 1_555 1_555
Co1_2 N4 1_555 1_555
N4_2 Co1 1_555 1_555
C2 C7 1_555 1_555
C5 C6 1_555 1_555
C12 C13 1_555 1_555

#END
