
#######################################################################
#
#                 Cambridge Crystallographic Data Centre
#                                CCDC 
#
#######################################################################
#
# If this CIF has been generated from an entry in the Cambridge 
# Structural Database, then it will include bibliographic, chemical, 
# crystal, experimental, refinement or atomic coordinate data resulting 
# from the CCDC's data processing and validation procedures.
#
#######################################################################

data_TCYPIN01
_symmetry_cell_setting           orthorhombic
_symmetry_space_group_name_H-M   'P b c a'
_symmetry_Int_Tables_number      61
_space_group_name_Hall           '-P 2ac 2ab'
loop_
_symmetry_equiv_pos_site_id
_symmetry_equiv_pos_as_xyz
1 x,y,z
2 1/2-x,-y,1/2+z
3 1/2+x,1/2-y,-z
4 -x,1/2+y,1/2-z
5 -x,-y,-z
6 1/2+x,y,1/2-z
7 1/2-x,1/2+y,z
8 x,1/2-y,1/2+z
_cell_length_a                   9.8029(3)
_cell_length_b                   9.5808(3)
_cell_length_c                   24.6957(7)
_cell_angle_alpha                90
_cell_angle_beta                 90
_cell_angle_gamma                90
_cell_volume                     2319.41
loop_
_atom_site_label
_atom_site_type_symbol
_atom_site_fract_x
_atom_site_fract_y
_atom_site_fract_z
In1 In 0.8979(1) 0.2403(1) 0.3795(1)
C1 C 1.0030(4) 0.1709(4) 0.4549(2)
C2 C 1.0285(4) 0.3044(4) 0.4808(2)
C3 C 1.1581(4) 0.3459(4) 0.4685(2)
C4 C 1.2212(4) 0.2396(5) 0.4369(2)
C5 C 1.1321(4) 0.1330(4) 0.4292(2)
C6 C 0.7596(4) 0.0533(4) 0.3467(2)
C7 C 0.7085(4) 0.0115(4) 0.3980(2)
C8 C 0.7836(4) -0.1052(4) 0.4158(2)
C9 C 0.8821(4) -0.1353(4) 0.3741(2)
C10 C 0.8669(4) -0.0430(4) 0.3327(2)
C11 C 0.9838(4) 0.3369(4) 0.3048(2)
C12 C 1.0624(4) 0.2235(4) 0.2790(2)
C13 C 1.1971(4) 0.2498(4) 0.2849(2)
C14 C 1.2137(4) 0.3817(4) 0.3118(2)
C15 C 1.0879(4) 0.4345(4) 0.3233(2)
H1 H 0.9460(40) 0.1140(40) 0.4638(17)
H2 H 0.9660(40) 0.3550(40) 0.5021(16)
H3 H 1.1800(40) 0.4260(40) 0.4776(16)
H4 H 1.3010(50) 0.2480(40) 0.4276(17)
H5 H 1.1460(40) 0.0580(50) 0.4117(18)
H6 H 0.7170(40) 0.1100(40) 0.3236(15)
H7 H 0.6480(40) 0.0390(40) 0.4170(16)
H8 H 0.7790(40) -0.1380(40) 0.4514(15)
H9 H 0.9460(50) -0.1990(50) 0.3789(14)
H10 H 0.9100(40) -0.0450(40) 0.2997(17)
H11 H 0.9090(40) 0.3630(40) 0.2903(16)
H12 H 1.0300(40) 0.1450(40) 0.2628(16)
H13 H 1.2710(40) 0.1890(40) 0.2695(15)
H14 H 1.2930(40) 0.4220(40) 0.3230(16)
H15 H 1.0640(40) 0.5180(40) 0.3410(16)
C8F C 0.7164(4) 0.3948(4) 0.4158(2)
In1F In 0.6021(1) -0.2597(1) 0.3795(1)
H8F H 0.7210(40) 0.3620(40) 0.4514(15)
loop_
_geom_bond_atom_site_label_1
_geom_bond_atom_site_label_2
_geom_bond_site_symmetry_1
_geom_bond_site_symmetry_2
In1 C1 1_555 1_555
C1 C2 1_555 1_555
C2 C3 1_555 1_555
C3 C4 1_555 1_555
C4 C5 1_555 1_555
C5 C1 1_555 1_555
C6 In1 1_555 1_555
C7 C6 1_555 1_555
C8 C7 1_555 1_555
C9 C8 1_555 1_555
C10 C6 1_555 1_555
C11 In1 1_555 1_555
C12 C11 1_555 1_555
C13 C12 1_555 1_555
C14 C13 1_555 1_555
C15 C11 1_555 1_555
H1 C1 1_555 1_555
H2 C2 1_555 1_555
H3 C3 1_555 1_555
H4 C4 1_555 1_555
H5 C5 1_555 1_555
H6 C6 1_555 1_555
H7 C7 1_555 1_555
H8 C8 1_555 1_555
H9 C9 1_555 1_555
H10 C10 1_555 1_555
H11 C11 1_555 1_555
H12 C12 1_555 1_555
H13 C13 1_555 1_555
H14 C14 1_555 1_555
H15 C15 1_555 1_555
C8F In1 1_555 1_555
In1F C8 1_555 1_555
H8F C8F 1_555 1_555
C9 C10 1_555 1_555
C14 C15 1_555 1_555

#END
