
#######################################################################
#
#                 Cambridge Crystallographic Data Centre
#                                CCDC 
#
#######################################################################
#
# If this CIF has been generated from an entry in the Cambridge 
# Structural Database, then it will include bibliographic, chemical, 
# crystal, experimental, refinement or atomic coordinate data resulting 
# from the CCDC's data processing and validation procedures.
#
#######################################################################

data_TEBBOT
_symmetry_cell_setting           monoclinic
_symmetry_space_group_name_H-M   'C 2/c'
_symmetry_Int_Tables_number      15
_space_group_name_Hall           '-C 2yn'
loop_
_symmetry_equiv_pos_site_id
_symmetry_equiv_pos_as_xyz
1 x,y,z
2 -x,y,1/2-z
3 1/2+x,1/2+y,z
4 1/2-x,1/2+y,1/2-z
5 -x,-y,-z
6 x,-y,1/2+z
7 1/2-x,1/2-y,-z
8 1/2+x,1/2-y,1/2+z
_cell_length_a                   25.1475(18)
_cell_length_b                   13.1621(9)
_cell_length_c                   14.2739(10)
_cell_angle_alpha                90
_cell_angle_beta                 118.415(1)
_cell_angle_gamma                90
_cell_volume                     4155.38
loop_
_atom_site_label
_atom_site_type_symbol
_atom_site_fract_x
_atom_site_fract_y
_atom_site_fract_z
Ni1 Ni 0.170208(19) 0.28953(3) 0.72051(3)
O1 O 0.16499(12) 0.22868(18) 0.99512(17)
O2 O 0.26285(12) 0.2486(2) 0.7923(2)
O3 O 0.16246(11) 0.21197(17) 0.83789(17)
O4 O 0.17892(10) 0.61454(17) 1.11436(17)
N1 N 0.18509(12) 0.40727(19) 0.82903(19)
O5 O 0.26740(12) 0.6613(2) 1.1259(2)
C1 C 0.20838(15) 0.5745(2) 0.9040(2)
H1 H 0.2169 0.6421 0.8974
C2 C 0.20698(14) 0.5409(2) 0.9949(2)
C3 C 0.18356(14) 0.3749(2) 0.9172(2)
N2 N -0.01134(15) 0.3381(3) 0.4933(3)
N3 N 0.07680(13) 0.3128(2) 0.6351(2)
C4 C -0.02891(19) 0.3747(3) 0.3129(3)
C5 C 0.19337(15) 0.4395(2) 1.0004(2)
H2 H 0.1909 0.4153 1.0594
C6 C 0.16957(14) 0.2629(2) 0.9178(2)
C7 C 0.21954(15) 0.6124(2) 1.0866(2)
C8 C 0.19677(15) 0.5053(2) 0.8231(2)
H3 H 0.1971 0.5284 0.7619
C9 C 0.03237(18) 0.2658(3) 0.6489(3)
H4 H 0.0388 0.2290 0.7090
C10 C -0.02203(19) 0.2808(4) 0.5628(4)
H5 H -0.0592 0.2570 0.5527
C11 C -0.0566(2) 0.3726(4) 0.3857(3)
H6 H -0.0708 0.4400 0.3903
H7 H -0.0910 0.3269 0.3573
C12 C 0.04858(17) 0.3550(3) 0.5406(3)
H8 H 0.0678 0.3921 0.5098
C13 C -0.0144(3) 0.2855(3) 0.2805(4)
H9 H -0.0243 0.2239 0.3003
C14 C -0.0145(3) 0.4633(3) 0.2808(4)
H10 H -0.0244 0.5248 0.3006
N4 N 0.15955(12) 0.1604(2) 0.6315(2)
N5 N 0.14399(12) 0.0534(2) 0.5032(2)
C15 C 0.15766(16) -0.0033(3) 0.5918(3)
H11 H 0.1598 -0.0738 0.5969
C16 C 0.16745(16) 0.0630(3) 0.6704(3)
H12 H 0.1779 0.0454 0.7402
C17 C 0.14544(16) 0.1512(3) 0.5308(3)
H13 H 0.1374 0.2057 0.4844
C18 C 0.12936(16) 0.0155(3) 0.3972(3)
H14 H 0.1461 -0.0522 0.4041
H15 H 0.1483 0.0590 0.3668
C19 C 0.06226(16) 0.0116(2) 0.3224(3)
C20 C 0.04151(18) 0.0107(3) 0.2142(3)
H16 H 0.0692 0.0103 0.1884
C21 C 0.01979(18) 0.0103(3) 0.3572(3)
H17 H 0.0325 0.0091 0.4300
H18 H 0.2760(19) 0.276(3) 0.756(4)
H19 H 0.2856(19) 0.260(3) 0.852(3)
Ni1E Ni 0.170208(19) 0.71047(3) 0.22051(3)
Ni1E_2 Ni 0.170208(19) 0.71047(3) 1.22051(3)
Ni1A Ni -0.170208(19) 0.28953(3) -0.22051(3)
O1E O 0.16499(12) 0.77132(18) 0.49512(17)
O2E O 0.26285(12) 0.7514(2) 0.2923(2)
O3E O 0.16246(11) 0.78803(17) 0.33789(17)
O4E O 0.17892(10) 0.38546(17) 0.61436(17)
O4_2 O 0.17892(10) 0.61454(17) 0.11436(17)
N1E N 0.18509(12) 0.59273(19) 0.32903(19)
O5E O 0.26740(12) 0.3387(2) 0.6259(2)
C1E C 0.20838(15) 0.4255(2) 0.4040(2)
H1E H 0.2169 0.3579 0.3974
C2E C 0.20698(14) 0.4591(2) 0.4949(2)
C3E C 0.18356(14) 0.6251(2) 0.4172(2)
N2A N 0.01134(15) 0.3381(3) 0.0067(3)
N3A N -0.07680(13) 0.3128(2) -0.1351(2)
N3E N 0.07680(13) 0.6872(2) 0.1351(2)
C4A C 0.02891(19) 0.3747(3) 0.1871(3)
C5E C 0.19337(15) 0.5605(2) 0.5004(2)
H2E H 0.1909 0.5847 0.5594
C6E C 0.16957(14) 0.7371(2) 0.4178(2)
C7E C 0.21954(15) 0.3876(2) 0.5866(2)
C8E C 0.19677(15) 0.4947(2) 0.3231(2)
H3E H 0.1971 0.4716 0.2619
C9A C -0.03237(18) 0.2658(3) -0.1489(3)
H4A H -0.0388 0.2290 -0.2090
C10A C 0.02203(19) 0.2808(4) -0.0628(4)
H5A H 0.0592 0.2570 -0.0527
C11A C 0.0566(2) 0.3726(4) 0.1143(3)
H6A H 0.0708 0.4400 0.1097
H7A H 0.0910 0.3269 0.1427
C12A C -0.04858(17) 0.3550(3) -0.0406(3)
H8A H -0.0678 0.3921 -0.0098
C13A C 0.0144(3) 0.2855(3) 0.2195(4)
H9A H 0.0243 0.2239 0.1997
C14A C 0.0145(3) 0.4633(3) 0.2192(4)
H10A H 0.0244 0.5248 0.1994
N4A N -0.15955(12) 0.1604(2) -0.1315(2)
N4E N 0.15955(12) 0.8396(2) 0.1315(2)
N5A N -0.14399(12) 0.0534(2) -0.0032(2)
C15A C -0.15766(16) -0.0033(3) -0.0918(3)
H11A H -0.1598 -0.0738 -0.0969
C16A C -0.16745(16) 0.0630(3) -0.1704(3)
H12A H -0.1779 0.0454 -0.2402
C17A C -0.14544(16) 0.1512(3) -0.0308(3)
H13A H -0.1374 0.2057 0.0156
C18A C -0.12936(16) 0.0155(3) 0.1028(3)
H14A H -0.1461 -0.0522 0.0959
H15A H -0.1483 0.0590 0.1332
C19A C -0.06226(16) 0.0116(2) 0.1776(3)
C20A C -0.04151(18) 0.0107(3) 0.2858(3)
H16A H -0.0692 0.0103 0.3116
C21A C -0.01979(18) 0.0103(3) 0.1428(3)
H17A H -0.0325 0.0091 0.0700
H18E H 0.2760(19) 0.724(3) 0.256(4)
H19E H 0.2856(19) 0.740(3) 0.352(3)
loop_
_geom_bond_atom_site_label_1
_geom_bond_atom_site_label_2
_geom_bond_site_symmetry_1
_geom_bond_site_symmetry_2
Ni1 O2 1_555 1_555
O1 C6 1_555 1_555
O2 H18 1_555 1_555
O3 Ni1 1_555 1_555
O4 C7 1_555 1_555
N1 Ni1 1_555 1_555
O5 C7 1_555 1_555
C1 H1 1_555 1_555
C2 C1 1_555 1_555
C3 N1 1_555 1_555
N2 C10 1_555 1_555
N3 Ni1 1_555 1_555
C4 C11 1_555 1_555
C5 C2 1_555 1_555
H2 C5 1_555 1_555
C6 O3 1_555 1_555
C7 C2 1_555 1_555
C8 N1 1_555 1_555
H3 C8 1_555 1_555
C9 N3 1_555 1_555
H4 C9 1_555 1_555
C10 C9 1_555 1_555
H5 C10 1_555 1_555
C11 N2 1_555 1_555
H6 C11 1_555 1_555
H7 C11 1_555 1_555
C12 N2 1_555 1_555
H8 C12 1_555 1_555
C13 C4 1_555 1_555
H9 C13 1_555 1_555
C14 C4 1_555 1_555
H10 C14 1_555 1_555
N4 Ni1 1_555 1_555
N5 C15 1_555 1_555
C15 H11 1_555 1_555
C16 N4 1_555 1_555
H12 C16 1_555 1_555
C17 N4 1_555 1_555
H13 C17 1_555 1_555
C18 N5 1_555 1_555
H14 C18 1_555 1_555
H15 C18 1_555 1_555
C19 C18 1_555 1_555
C20 C19 1_555 1_555
H16 C20 1_555 1_555
C21 C19 1_555 1_555
H17 C21 1_555 1_555
H19 O2 1_555 1_555
Ni1E O2E 1_555 1_555
Ni1E_2 O4 1_555 1_555
Ni1A N3A 1_555 1_555
O1E C6E 1_555 1_555
O2E H18E 1_555 1_555
O3E Ni1E 1_555 1_555
O4E Ni1 1_555 1_555
O4_2 Ni1E 1_555 1_555
N1E Ni1E 1_555 1_555
O5E C7E 1_555 1_555
C1E H1E 1_555 1_555
C2E C1E 1_555 1_555
C3E N1E 1_555 1_555
N2A C10A 1_555 1_555
N3A C9A 1_555 1_555
N3E Ni1E 1_555 1_555
C4A C11A 1_555 1_555
C5E C2E 1_555 1_555
H2E C5E 1_555 1_555
C6E O3E 1_555 1_555
C7E O4E 1_555 1_555
C8E N1E 1_555 1_555
H3E C8E 1_555 1_555
C9A H4A 1_555 1_555
C10A C9A 1_555 1_555
H5A C10A 1_555 1_555
C11A N2A 1_555 1_555
H6A C11A 1_555 1_555
H7A C11A 1_555 1_555
C12A N2A 1_555 1_555
H8A C12A 1_555 1_555
C13A C13 1_555 1_555
H9A C13A 1_555 1_555
C14A C14 1_555 1_555
H10A C14A 1_555 1_555
N4A Ni1A 1_555 1_555
N4E Ni1E 1_555 1_555
N5A C15A 1_555 1_555
C15A H11A 1_555 1_555
C16A N4A 1_555 1_555
H12A C16A 1_555 1_555
C17A N4A 1_555 1_555
H13A C17A 1_555 1_555
C18A N5A 1_555 1_555
H14A C18A 1_555 1_555
H15A C18A 1_555 1_555
C19A C18A 1_555 1_555
C20A C21 1_555 1_555
H16A C20A 1_555 1_555
C21A C20 1_555 1_555
H17A C21A 1_555 1_555
H19E O2E 1_555 1_555
C1 C8 1_555 1_555
C3 C5 1_555 1_555
C3 C6 1_555 1_555
N3 C12 1_555 1_555
N5 C17 1_555 1_555
C15 C16 1_555 1_555
C1E C8E 1_555 1_555
C2E C7E 1_555 1_555
C3E C5E 1_555 1_555
C3E C6E 1_555 1_555
N3A C12A 1_555 1_555
C4A C13A 1_555 1_555
C4A C14A 1_555 1_555
N5A C17A 1_555 1_555
C15A C16A 1_555 1_555
C19A C20A 1_555 1_555
C19A C21A 1_555 1_555

#END
