
#######################################################################
#
#                 Cambridge Crystallographic Data Centre
#                                CCDC 
#
#######################################################################
#
# If this CIF has been generated from an entry in the Cambridge 
# Structural Database, then it will include bibliographic, chemical, 
# crystal, experimental, refinement or atomic coordinate data resulting 
# from the CCDC's data processing and validation procedures.
#
#######################################################################

data_TEBBAF
_symmetry_cell_setting           monoclinic
_symmetry_space_group_name_H-M   'P 21/n'
_symmetry_Int_Tables_number      14
_space_group_name_Hall           '-P 2yn'
loop_
_symmetry_equiv_pos_site_id
_symmetry_equiv_pos_as_xyz
1 x,y,z
2 1/2-x,1/2+y,1/2-z
3 -x,-y,-z
4 1/2+x,1/2-y,1/2+z
_cell_length_a                   11.413(8)
_cell_length_b                   13.814(10)
_cell_length_c                   20.585(15)
_cell_angle_alpha                90
_cell_angle_beta                 96.394(10)
_cell_angle_gamma                90
_cell_volume                     3225.23
loop_
_atom_site_label
_atom_site_type_symbol
_atom_site_fract_x
_atom_site_fract_y
_atom_site_fract_z
Cu1 Cu 0.90345(9) 0.60362(8) 0.69527(5)
S1 S 0.3796(2) 0.3563(2) 0.60375(14)
S2 S 1.4205(2) 0.7339(2) 0.61661(14)
S3 S 0.6329(3) 0.9502(2) 0.52385(17)
O4 O 0.8768(7) 0.4895(5) 0.6042(3)
H7 H 0.8053 0.4821 0.5938
H8 H 0.9242 0.4541 0.5858
O5 O 0.9071(6) 0.7119(5) 0.7878(3)
H9 H 0.8451 0.7072 0.8041
H10 H 0.9588 0.7406 0.8121
O6 O 0.6982(6) 0.6282(5) 0.7962(3)
O7 O 0.7424(5) 0.5594(4) 0.7046(3)
O8 O 0.5004(7) 0.6006(6) 0.8332(4)
H11 H 0.4431 0.6033 0.8538
O9 O 0.2681(10) 0.3711(11) 0.5789(7)
O10 O 0.4150(15) 0.2683(9) 0.6167(6)
O11 O 0.4440(14) 0.3910(12) 0.5537(6)
N1 N 0.8323(6) 0.7130(6) 0.6398(3)
N2 N 0.8701(15) 1.2162(10) 0.5285(7)
N3 N 1.0668(6) 0.6418(5) 0.6757(4)
N4 N 1.5375(6) 0.9919(5) 0.7454(3)
C1 C 0.6732(8) 0.5754(7) 0.7461(5)
C2 C 0.5551(8) 0.5297(6) 0.7367(4)
C3 C 0.4747(8) 0.5473(7) 0.7807(5)
C4 C 0.3620(9) 0.5035(8) 0.7697(6)
H12 H 0.3074 0.5119 0.7995
C5 C 0.3342(10) 0.4491(7) 0.7152(6)
H13 H 0.2589 0.4229 0.7073
C6 C 0.4154(8) 0.4313(7) 0.6706(5)
C7 C 0.5260(8) 0.4720(6) 0.6824(4)
H14 H 0.5816 0.4605 0.6535
C8 C 0.7437(8) 0.6972(7) 0.5930(4)
H15 H 0.7191 0.6337 0.5849
C9 C 0.6874(8) 0.7684(8) 0.5564(4)
H16 H 0.6273 0.7528 0.5238
C10 C 0.7186(8) 0.8626(8) 0.5673(4)
C11 C 0.8128(9) 0.8817(7) 0.6154(5)
H17 H 0.8400 0.9444 0.6235
C12 C 0.8631(8) 0.8055(7) 0.6497(4)
H18 H 0.9235 0.8188 0.6826
C13 C 0.9008(13) 1.1335(13) 0.5027(8)
H19 H 0.9728 1.1315 0.4856
C14 C 0.8327(13) 1.0487(9) 0.4992(7)
H20 H 0.8561 0.9923 0.4797
C15 C 0.7256(13) 1.0555(10) 0.5277(6)
C16 C 0.6913(14) 1.1361(12) 0.5529(6)
H21 H 0.6205 1.1403 0.5712
C17 C 0.7680(18) 1.2172(12) 0.5512(8)
H22 H 0.7432 1.2756 0.5675
C18 C 1.1075(9) 0.6140(7) 0.6204(5)
H23 H 1.0615 0.5723 0.5928
C19 C 1.2100(9) 0.6427(7) 0.6028(4)
H24 H 1.2314 0.6232 0.5625
C20 C 1.2859(8) 0.7007(7) 0.6424(4)
C21 C 1.2464(8) 0.7295(7) 0.7005(4)
H25 H 1.2927 0.7691 0.7295
C22 C 1.1376(8) 0.6986(7) 0.7149(5)
H26 H 1.1121 0.7184 0.7542
C23 C 1.5498(10) 0.8253(7) 0.7177(5)
H27 H 1.5854 0.7656 0.7267
C24 C 1.5843(10) 0.9050(7) 0.7552(5)
H28 H 1.6439 0.8971 0.7894
C25 C 1.4520(8) 1.0004(7) 0.6960(4)
H29 H 1.4168 1.0606 0.6879
C26 C 1.4137(9) 0.9241(8) 0.6565(4)
H30 H 1.3542 0.9331 0.6223
C27 C 1.4632(8) 0.8352(7) 0.6676(4)
Cu1A Cu 1.59655(9) 1.10362(8) 0.80473(5)
N4A N 0.9625(6) 0.4919(5) 0.7546(3)
O1 O 0.0266(10) 0.3742(8) 0.5463(9)
H1 H 0.0033 0.3422 0.5132
H2 H 0.1008 0.3726 0.5567
O2 O 0.2958(12) 0.6266(8) 0.8985(7)
H3 H 0.2249 0.6319 0.9060
H4 H 0.3223 0.6832 0.8923
O3 O 0.6638(7) 0.4523(6) 0.5302(4)
H5 H 0.6111 0.4135 0.5372
H6 H 0.6330 0.4977 0.5063
loop_
_geom_bond_atom_site_label_1
_geom_bond_atom_site_label_2
_geom_bond_site_symmetry_1
_geom_bond_site_symmetry_2
Cu1 O4 1_555 1_555
S1 O9 1_555 1_555
S2 C20 1_555 1_555
S3 C10 1_555 1_555
O1 H1 1_555 1_555
H2 O1 1_555 1_555
O2 H3 1_555 1_555
H4 O2 1_555 1_555
O3 H5 1_555 1_555
H6 O3 1_555 1_555
O4 H7 1_555 1_555
H8 O4 1_555 1_555
O5 Cu1 1_555 1_555
H9 O5 1_555 1_555
H10 O5 1_555 1_555
O6 C1 1_555 1_555
O7 Cu1 1_555 1_555
O8 H11 1_555 1_555
O10 S1 1_555 1_555
O11 S1 1_555 1_555
N1 Cu1 1_555 1_555
N2 C13 1_555 1_555
N3 Cu1 1_555 1_555
N4 C24 1_555 1_555
C1 O7 1_555 1_555
C2 C1 1_555 1_555
C3 O8 1_555 1_555
C4 C3 1_555 1_555
H12 C4 1_555 1_555
C5 C4 1_555 1_555
H13 C5 1_555 1_555
C6 S1 1_555 1_555
C7 C2 1_555 1_555
H14 C7 1_555 1_555
C8 N1 1_555 1_555
H15 C8 1_555 1_555
C9 C8 1_555 1_555
H16 C9 1_555 1_555
C10 C9 1_555 1_555
C11 C10 1_555 1_555
H17 C11 1_555 1_555
C12 N1 1_555 1_555
H18 C12 1_555 1_555
C13 H19 1_555 1_555
C14 C13 1_555 1_555
H20 C14 1_555 1_555
C15 S3 1_555 1_555
C16 C15 1_555 1_555
H21 C16 1_555 1_555
C17 N2 1_555 1_555
H22 C17 1_555 1_555
C18 N3 1_555 1_555
H23 C18 1_555 1_555
C19 C18 1_555 1_555
H24 C19 1_555 1_555
C20 C19 1_555 1_555
C21 C20 1_555 1_555
H25 C21 1_555 1_555
C22 N3 1_555 1_555
H26 C22 1_555 1_555
C23 H27 1_555 1_555
C24 C23 1_555 1_555
H28 C24 1_555 1_555
C25 N4 1_555 1_555
H29 C25 1_555 1_555
C26 C25 1_555 1_555
H30 C26 1_555 1_555
C27 S2 1_555 1_555
Cu1A N4 1_555 1_555
N4A Cu1 1_555 1_555
C2 C3 1_555 1_555
C5 C6 1_555 1_555
C6 C7 1_555 1_555
C11 C12 1_555 1_555
C14 C15 1_555 1_555
C16 C17 1_555 1_555
C21 C22 1_555 1_555
C23 C27 1_555 1_555
C26 C27 1_555 1_555

#END
