
#######################################################################
#
#                 Cambridge Crystallographic Data Centre
#                                CCDC 
#
#######################################################################
#
# If this CIF has been generated from an entry in the Cambridge 
# Structural Database, then it will include bibliographic, chemical, 
# crystal, experimental, refinement or atomic coordinate data resulting 
# from the CCDC's data processing and validation procedures.
#
#######################################################################

data_TEBBEJ
_symmetry_cell_setting           monoclinic
_symmetry_space_group_name_H-M   'P 21/n'
_symmetry_Int_Tables_number      14
_space_group_name_Hall           '-P 2yn'
loop_
_symmetry_equiv_pos_site_id
_symmetry_equiv_pos_as_xyz
1 x,y,z
2 1/2-x,1/2+y,1/2-z
3 -x,-y,-z
4 1/2+x,1/2-y,1/2+z
_cell_length_a                   11.5108(18)
_cell_length_b                   13.535(2)
_cell_length_c                   20.261(3)
_cell_angle_alpha                90
_cell_angle_beta                 92.731(2)
_cell_angle_gamma                90
_cell_volume                     3153.05
loop_
_atom_site_label
_atom_site_type_symbol
_atom_site_fract_x
_atom_site_fract_y
_atom_site_fract_z
Mn1 Mn 0.89371(7) 0.59551(6) 0.20076(4)
S1 S 0.36959(16) 0.35727(16) 0.11583(10)
S2 S 0.6402(2) 0.93313(19) 0.00977(15)
S3 S 1.42098(17) 0.71431(17) 0.11668(11)
O3 O 0.8931(5) 0.7094(4) 0.2925(3)
H5 H 0.8284 0.6828 0.2973
H6 H 0.9349 0.7032 0.3270
O4 O 0.8703(5) 0.4737(4) 0.1055(3)
H7 H 0.8124 0.4615 0.0807
H8 H 0.9230 0.4330 0.1003
O5 O 0.6914(4) 0.6167(4) 0.3115(3)
O6 O 0.7355(4) 0.5483(4) 0.2153(3)
O7 O 0.4864(5) 0.5968(5) 0.3534(3)
H9 H 0.5533 0.6176 0.3533
O8 O 0.3893(13) 0.4182(7) 0.0618(4)
O9 O 0.4457(8) 0.2788(8) 0.1164(5)
O10 O 0.2529(7) 0.3330(10) 0.1184(5)
N1 N 0.8226(5) 0.7040(4) 0.1415(3)
N2 N 0.8782(11) 1.2025(9) 0.0104(7)
N3 N 1.0567(5) 0.6353(4) 0.1773(3)
N4 N 1.5446(5) 0.9801(4) 0.2412(3)
C1 C 0.6656(6) 0.5657(5) 0.2605(4)
C2 C 0.5483(5) 0.5223(5) 0.2525(3)
C3 C 0.4629(6) 0.5423(6) 0.2979(4)
C4 C 0.3503(6) 0.5069(7) 0.2869(4)
H10 H 0.2943 0.5204 0.3173
C5 C 0.3214(7) 0.4524(6) 0.2316(4)
H11 H 0.2454 0.4302 0.2244
C6 C 0.4047(6) 0.4296(5) 0.1857(4)
C7 C 0.5176(5) 0.4652(5) 0.1969(3)
H12 H 0.5735 0.4507 0.1667
C8 C 0.7393(6) 0.6819(6) 0.0954(4)
H13 H 0.7156 0.6163 0.0916
C9 C 0.6879(6) 0.7485(6) 0.0544(4)
H14 H 0.6327 0.7285 0.0221
C10 C 0.7184(6) 0.8483(5) 0.0606(4)
C11 C 0.8033(7) 0.8732(6) 0.1086(4)
H15 H 0.8259 0.9387 0.1144
C12 C 0.8546(6) 0.7993(5) 0.1481(4)
H16 H 0.9123 0.8162 0.1798
C13 C 0.9035(11) 1.1185(12) -0.0174(7)
H17 H 0.9736 1.1150 -0.0382
C14 C 0.8371(10) 1.0372(9) -0.0184(5)
H18 H 0.8622 0.9801 -0.0390
C15 C 0.7326(8) 1.0380(7) 0.0108(4)
C16 C 0.6963(10) 1.1222(8) 0.0399(5)
H19 H 0.6249 1.1258 0.0595
C17 C 0.7733(14) 1.2053(9) 0.0389(6)
H20 H 0.7508 1.2638 0.0587
C18 C 1.0990(6) 0.6068(5) 0.1204(4)
H21 H 1.0520 0.5688 0.0917
C19 C 1.2098(6) 0.6312(6) 0.1017(4)
H22 H 1.2363 0.6083 0.0618
C20 C 1.2800(6) 0.6892(5) 0.1421(3)
C21 C 1.2363(6) 0.7190(6) 0.2014(4)
H23 H 1.2810 0.7583 0.2304
C22 C 1.1268(6) 0.6903(6) 0.2170(4)
H24 H 1.0997 0.7102 0.2575
C23 C 1.4690(6) 0.9903(6) 0.1901(4)
H25 H 1.4425 1.0535 0.1793
C24 C 1.4282(7) 0.9126(6) 0.1524(4)
H26 H 1.3754 0.9237 0.1170
C25 C 1.4655(6) 0.8177(5) 0.1671(4)
C26 C 1.5451(8) 0.8069(6) 0.2173(5)
H27 H 1.5761 0.7448 0.2271
C27 C 1.5816(8) 0.8893(6) 0.2548(5)
H28 H 1.6338 0.8798 0.2907
Mn1A Mn 1.60629(7) 1.09551(6) 0.29924(4)
N4A N 0.9554(5) 0.4801(4) 0.2588(3)
O1 O 0.0365(7) 0.3670(6) 0.0419(6)
H1 H 0.0283 0.3137 0.0214
H2 H 0.0492 0.3560 0.0822
O2 O 0.6516(5) 0.4486(5) 0.0384(3)
H3 H 0.6388 0.4902 0.0075
H4 H 0.5920 0.4186 0.0249
loop_
_geom_bond_atom_site_label_1
_geom_bond_atom_site_label_2
_geom_bond_site_symmetry_1
_geom_bond_site_symmetry_2
Mn1 O3 1_555 1_555
S1 O8 1_555 1_555
S2 C10 1_555 1_555
S3 C20 1_555 1_555
O1 H1 1_555 1_555
H2 O1 1_555 1_555
O2 H3 1_555 1_555
H4 O2 1_555 1_555
O3 H5 1_555 1_555
H6 O3 1_555 1_555
O4 Mn1 1_555 1_555
H7 O4 1_555 1_555
H8 O4 1_555 1_555
O5 C1 1_555 1_555
O6 Mn1 1_555 1_555
O7 H9 1_555 1_555
O9 S1 1_555 1_555
O10 S1 1_555 1_555
N1 Mn1 1_555 1_555
N2 C13 1_555 1_555
N3 Mn1 1_555 1_555
N4 C23 1_555 1_555
C1 O6 1_555 1_555
C2 C1 1_555 1_555
C3 O7 1_555 1_555
C4 C3 1_555 1_555
H10 C4 1_555 1_555
C5 C4 1_555 1_555
H11 C5 1_555 1_555
C6 S1 1_555 1_555
C7 C2 1_555 1_555
H12 C7 1_555 1_555
C8 N1 1_555 1_555
H13 C8 1_555 1_555
C9 C8 1_555 1_555
H14 C9 1_555 1_555
C10 C9 1_555 1_555
C11 C10 1_555 1_555
H15 C11 1_555 1_555
C12 N1 1_555 1_555
H16 C12 1_555 1_555
C13 H17 1_555 1_555
C14 C13 1_555 1_555
H18 C14 1_555 1_555
C15 S2 1_555 1_555
C16 C15 1_555 1_555
H19 C16 1_555 1_555
C17 N2 1_555 1_555
H20 C17 1_555 1_555
C18 N3 1_555 1_555
H21 C18 1_555 1_555
C19 C18 1_555 1_555
H22 C19 1_555 1_555
C20 C19 1_555 1_555
C21 C20 1_555 1_555
H23 C21 1_555 1_555
C22 N3 1_555 1_555
H24 C22 1_555 1_555
C23 H25 1_555 1_555
C24 C23 1_555 1_555
H26 C24 1_555 1_555
C25 S3 1_555 1_555
C26 C25 1_555 1_555
H27 C26 1_555 1_555
C27 N4 1_555 1_555
H28 C27 1_555 1_555
Mn1A N4 1_555 1_555
N4A Mn1 1_555 1_555
C2 C3 1_555 1_555
C5 C6 1_555 1_555
C6 C7 1_555 1_555
C11 C12 1_555 1_555
C14 C15 1_555 1_555
C16 C17 1_555 1_555
C21 C22 1_555 1_555
C24 C25 1_555 1_555
C26 C27 1_555 1_555

#END
