
#######################################################################
#
#                 Cambridge Crystallographic Data Centre
#                                CCDC 
#
#######################################################################
#
# If this CIF has been generated from an entry in the Cambridge 
# Structural Database, then it will include bibliographic, chemical, 
# crystal, experimental, refinement or atomic coordinate data resulting 
# from the CCDC's data processing and validation procedures.
#
#######################################################################

data_TEBCOU
_symmetry_cell_setting           triclinic
_symmetry_space_group_name_H-M   'P -1'
_symmetry_Int_Tables_number      2
_space_group_name_Hall           '-P 1'
loop_
_symmetry_equiv_pos_site_id
_symmetry_equiv_pos_as_xyz
1 x,y,z
2 -x,-y,-z
_cell_length_a                   12.9891(15)
_cell_length_b                   15.3211(19)
_cell_length_c                   21.154(3)
_cell_angle_alpha                108.476(3)
_cell_angle_beta                 90.148(2)
_cell_angle_gamma                105.429(3)
_cell_volume                     3831.49
loop_
_atom_site_label
_atom_site_type_symbol
_atom_site_fract_x
_atom_site_fract_y
_atom_site_fract_z
Cd1 Cd 0.22523(4) -0.03209(4) 0.19981(2)
Cl1 Cl 0.2429(2) -0.4025(2) 0.26521(14)
Cl2 Cl 0.2978(3) 0.4604(2) 0.44730(17)
O2 O 0.3189(4) 0.1155(4) 0.1752(2)
O4 O 0.1847(4) -0.1456(4) 0.0910(2)
O6 O 0.0486(4) -0.1127(4) 0.1450(2)
N1 N 0.1540(5) 0.0664(5) 0.2801(3)
O9 O 0.4060(4) 0.0208(4) 0.1951(3)
N3 N 0.0616(5) 0.1129(5) 0.3649(3)
C3 C 0.2897(8) -0.3591(7) 0.1537(6)
H2 H 0.3603 -0.3545 0.1660
N5 N 0.2474(5) -0.1167(5) 0.2661(3)
N6 N 0.3301(5) -0.1563(5) 0.3396(3)
O11 O 0.3753(5) 0.2968(5) 0.1230(3)
C4 C 0.5078(6) 0.1615(7) 0.1737(3)
C6 C -0.0334(11) -0.3764(8) -0.0567(5)
H3 H -0.0154 -0.4301 -0.0839
O12 O 0.1973(6) -0.3545(6) -0.0314(3)
C8 C 0.5682(6) -0.0482(6) 0.4611(4)
C13 C -0.0182(6) 0.1086(6) 0.4113(3)
H5 H -0.0884 0.0803 0.3864
H6 H -0.0149 0.1735 0.4390
C14 C 0.1964(6) 0.1613(6) 0.3122(4)
H7 H 0.2548 0.2005 0.2997
C16 C 0.0882(6) 0.0341(6) 0.4692(3)
H9 H 0.1481 0.0561 0.4486
C17 C 0.0100(6) -0.2332(6) 0.0388(3)
C18 C 0.2224(6) -0.1817(6) 0.3470(4)
H10 H 0.1902 -0.2095 0.3778
C22 C -0.0065(5) 0.0517(5) 0.4564(3)
C24 C 0.4525(7) 0.3416(7) 0.2958(5)
H13 H 0.5137 0.3205 0.2902
C25 C 0.0363(8) -0.3132(7) -0.0013(4)
C27 C 0.4029(6) 0.0945(7) 0.1820(3)
C28 C 0.6076(8) 0.3019(7) 0.1502(4)
H14 H 0.6103 0.3597 0.1438
C31 C 0.4591(6) -0.0776(6) 0.4417(3)
C32 C -0.0959(6) 0.0163(6) 0.4875(4)
H16 H -0.1611 0.0267 0.4791
C33 C 0.1721(6) -0.1589(6) 0.3012(4)
H17 H 0.0983 -0.1699 0.2944
C36 C 0.1608(7) -0.3470(6) 0.0774(4)
C38 C 0.3938(6) -0.0284(7) 0.4809(4)
H20 H 0.3207 -0.0480 0.4673
C40 C 0.0729(6) 0.0407(6) 0.3132(4)
H21 H 0.0280 -0.0215 0.3017
C41 C 0.0868(7) -0.1587(6) 0.0953(4)
C42 C -0.1275(11) -0.3608(10) -0.0716(5)
H22 H -0.1729 -0.4032 -0.1091
C43 C -0.0867(7) -0.2192(7) 0.0231(4)
H23 H -0.1057 -0.1658 0.0499
C46 C 0.2718(10) 0.4063(9) 0.3134(8)
H25 H 0.2120 0.4295 0.3194
C51 C 0.3892(7) 0.3315(7) 0.2405(5)
C52 C 0.4181(7) 0.2894(7) 0.1718(5)
C53 C 0.2095(9) -0.3773(6) 0.1946(4)
C55 C 0.4165(6) -0.1624(6) 0.3798(3)
H32 H 0.4751 -0.1708 0.3523
H33 H 0.3914 -0.2191 0.3929
C56 C 0.5114(6) 0.2466(7) 0.1636(4)
C58 C 0.3402(6) -0.1171(5) 0.2904(3)
H35 H 0.4056 -0.0931 0.2754
C59 C 0.0825(7) -0.3608(6) 0.1209(4)
H36 H 0.0132 -0.3602 0.1102
C60 C 0.1068(7) -0.3756(6) 0.1799(4)
H37 H 0.0547 -0.3841 0.2091
C61 C 0.6007(7) 0.1326(7) 0.1698(4)
H38 H 0.5994 0.0747 0.1757
C63 C 0.6986(7) 0.2711(9) 0.1464(4)
H41 H 0.7623 0.3071 0.1365
C70 C 0.6944(7) 0.1886(8) 0.1573(4)
H48 H 0.7564 0.1690 0.1563
C72 C -0.1552(8) -0.2830(9) -0.0315(5)
H49 H -0.2203 -0.2730 -0.0411
C73 C 0.1423(6) 0.1899(6) 0.3642(4)
H50 H 0.1569 0.2517 0.3946
C74 C 0.4264(9) 0.3829(8) 0.3604(5)
H51 H 0.4702 0.3906 0.3978
C76 C 0.1371(9) -0.3367(7) 0.0128(5)
C78 C 0.3357(12) 0.4115(8) 0.3671(6)
C79 C 0.2998(8) 0.3647(8) 0.2492(6)
H54 H 0.2575 0.3594 0.2119
C82 C 0.2623(9) -0.3482(7) 0.0950(5)
H56 H 0.3145 -0.3412 0.0656
Cd1A Cd -0.22523(4) 0.03209(4) 0.80019(2)
Cd1A_2 Cd 0.77477(4) 0.03209(4) 0.80019(2)
Cl1A Cl -0.2429(2) 0.4025(2) 0.73479(14)
Cl2A Cl -0.2978(3) -0.4604(2) 0.55270(17)
O2A O -0.3189(4) -0.1155(4) 0.8248(2)
O4A O -0.1847(4) 0.1456(4) 0.9090(2)
O6A O -0.0486(4) 0.1127(4) 0.8550(2)
N1A N -0.1540(5) -0.0664(5) 0.7199(3)
O9A O -0.4060(4) -0.0208(4) 0.8049(3)
N3A N -0.0616(5) -0.1129(5) 0.6351(3)
C3A C -0.2897(8) 0.3591(7) 0.8463(6)
H2A H -0.3603 0.3545 0.8340
N5A N 0.7526(5) 0.1167(5) 0.7339(3)
N5A_2 N -0.2474(5) 0.1167(5) 0.7339(3)
N6A N 0.6699(5) 0.1563(5) 0.6604(3)
O11A O -0.3753(5) -0.2968(5) 0.8770(3)
C4A C -0.5078(6) -0.1615(7) 0.8263(3)
C6A C 0.0334(11) 0.3764(8) 1.0567(5)
H3A H 0.0154 0.4301 1.0839
O12A O -0.1973(6) 0.3545(6) 1.0314(3)
C8A C 0.4318(6) 0.0482(6) 0.5389(4)
C13A C 0.0182(6) -0.1086(6) 0.5887(3)
H5A H 0.0884 -0.0803 0.6136
H6A H 0.0149 -0.1735 0.5610
C14A C -0.1964(6) -0.1613(6) 0.6878(4)
H7A H -0.2548 -0.2005 0.7003
C16A C -0.0882(6) -0.0341(6) 0.5308(3)
H9A H -0.1481 -0.0561 0.5514
C17A C -0.0100(6) 0.2332(6) 0.9612(3)
C18A C 0.7776(6) 0.1817(6) 0.6530(4)
H10A H 0.8098 0.2095 0.6222
C22A C 0.0065(5) -0.0517(5) 0.5436(3)
C24A C -0.4525(7) -0.3416(7) 0.7042(5)
H13A H -0.5137 -0.3205 0.7098
C25A C -0.0363(8) 0.3132(7) 1.0013(4)
C27A C -0.4029(6) -0.0945(7) 0.8180(3)
C28A C -0.6076(8) -0.3019(7) 0.8498(4)
H14A H -0.6103 -0.3597 0.8562
C31A C 0.5409(6) 0.0776(6) 0.5583(3)
C32A C 0.0959(6) -0.0163(6) 0.5125(4)
H16A H 0.1611 -0.0267 0.5209
C33A C 0.8279(6) 0.1589(6) 0.6988(4)
H17A H 0.9017 0.1699 0.7056
C36A C -0.1608(7) 0.3470(6) 0.9226(4)
C38A C 0.6062(6) 0.0284(7) 0.5191(4)
H20A H 0.6793 0.0480 0.5327
C40A C -0.0729(6) -0.0407(6) 0.6868(4)
H21A H -0.0280 0.0215 0.6983
C41A C -0.0868(7) 0.1587(6) 0.9047(4)
C42A C 0.1275(11) 0.3608(10) 1.0716(5)
H22A H 0.1729 0.4032 1.1091
C43A C 0.0867(7) 0.2192(7) 0.9769(4)
H23A H 0.1057 0.1658 0.9501
C46A C -0.2718(10) -0.4063(9) 0.6866(8)
H25A H -0.2120 -0.4295 0.6806
C51A C -0.3892(7) -0.3315(7) 0.7595(5)
C52A C -0.4181(7) -0.2894(7) 0.8282(5)
C53A C -0.2095(9) 0.3773(6) 0.8054(4)
C55A C 0.5835(6) 0.1624(6) 0.6202(3)
H32A H 0.5249 0.1708 0.6477
H33A H 0.6086 0.2191 0.6071
C56A C -0.5114(6) -0.2466(7) 0.8364(4)
C58A C 0.6598(6) 0.1171(5) 0.7096(3)
H35A H 0.5944 0.0931 0.7246
C59A C -0.0825(7) 0.3608(6) 0.8791(4)
H36A H -0.0132 0.3602 0.8898
C60A C -0.1068(7) 0.3756(6) 0.8201(4)
H37A H -0.0547 0.3841 0.7909
C61A C -0.6007(7) -0.1326(7) 0.8302(4)
H38A H -0.5994 -0.0747 0.8243
C63A C -0.6986(7) -0.2711(9) 0.8536(4)
H41A H -0.7623 -0.3071 0.8635
C70A C -0.6944(7) -0.1886(8) 0.8427(4)
H48A H -0.7564 -0.1690 0.8437
C72A C 0.1552(8) 0.2830(9) 1.0315(5)
H49A H 0.2203 0.2730 1.0411
C73A C -0.1423(6) -0.1899(6) 0.6358(4)
H50A H -0.1569 -0.2517 0.6054
C74A C -0.4264(9) -0.3829(8) 0.6396(5)
H51A H -0.4702 -0.3906 0.6022
C76A C -0.1371(9) 0.3367(7) 0.9872(5)
C78A C -0.3357(12) -0.4115(8) 0.6329(6)
C79A C -0.2998(8) -0.3647(8) 0.7508(6)
H54A H -0.2575 -0.3594 0.7881
C82A C -0.2623(9) 0.3482(7) 0.9050(5)
H56A H -0.3145 0.3412 0.9344
Cd2 Cd 0.71819(4) -0.05153(4) 0.27367(2)
Cl3 Cl 0.9882(3) 0.4741(3) 0.2973(2)
O1 O 0.5360(5) -0.3800(5) 0.3451(3)
C1 C 0.7462(6) 0.2642(6) 0.4709(4)
C2 C 0.4010(6) -0.0328(8) 0.0165(4)
H1 H 0.3320 -0.0561 0.0272
O3 O 0.7320(4) 0.0985(4) 0.3758(2)
O5 O 0.5844(4) 0.0147(4) 0.3095(2)
O7 O 0.6717(5) -0.1797(4) 0.3213(2)
N2 N 0.9723(5) 0.1163(5) 0.1835(3)
O8 O 0.8389(4) -0.1177(4) 0.3111(3)
N4 N 0.5261(5) -0.1788(5) 0.0811(3)
O10 O 0.7933(5) 0.2633(5) 0.5198(3)
C5 C 1.0239(6) 0.0585(6) 0.0670(3)
N7 N 0.6320(5) -0.1412(5) 0.1715(3)
C7 C 0.4750(7) -0.0821(7) 0.0177(3)
C9 C 0.6201(7) -0.3668(6) 0.3200(4)
C10 C 1.1023(6) 0.0188(6) 0.0328(3)
N8 N 0.8467(5) 0.0528(5) 0.2379(3)
C11 C 0.5671(7) 0.2819(6) 0.4988(4)
H4 H 0.6018 0.3348 0.5354
C12 C 0.5749(6) 0.1490(6) 0.4025(3)
C15 C 0.9080(6) 0.0357(6) 0.1881(4)
H8 H 0.9062 -0.0253 0.1598
C19 C 0.4653(6) 0.1284(6) 0.3897(4)
H11 H 0.4296 0.0773 0.3523
C20 C 0.9345(7) -0.2748(7) 0.4189(4)
H12 H 1.0050 -0.2591 0.4369
C21 C 0.8054(6) 0.3175(6) 0.4266(4)
C23 C 0.6226(7) -0.4014(6) 0.2454(4)
C26 C 0.7668(7) -0.1754(6) 0.3288(3)
C29 C 0.5488(6) -0.1267(6) 0.1454(4)
H15 H 0.5107 -0.0852 0.1689
C30 C 0.6271(6) 0.2287(6) 0.4569(4)
C34 C 0.7518(7) 0.3296(6) 0.3745(4)
H18 H 0.6776 0.3054 0.3668
C35 C 0.8777(6) 0.1495(6) 0.2666(4)
H19 H 0.8499 0.1833 0.3040
C37 C 0.6347(6) 0.0829(6) 0.3599(4)
C39 C 0.8003(6) -0.2412(6) 0.3595(3)
C44 C 0.7266(6) -0.3256(6) 0.3600(4)
C45 C 0.9144(8) 0.3581(7) 0.4397(5)
H24 H 0.9506 0.3530 0.4758
C47 C 1.0555(6) 0.1264(6) 0.1374(4)
H26 H 1.1190 0.1164 0.1548
H27 H 1.0744 0.1915 0.1364
C48 C 0.9236(6) 0.0394(6) 0.0334(3)
H28 H 0.8726 0.0665 0.0562
C49 C 0.9040(6) -0.2176(6) 0.3883(3)
H29 H 0.9538 -0.1622 0.3870
C50 C 0.8602(8) -0.3552(7) 0.4226(4)
H30 H 0.8795 -0.3925 0.4451
C54 C 0.9540(6) 0.1896(6) 0.2337(4)
H31 H 0.9875 0.2547 0.2434
C57 C 0.4082(7) 0.1826(7) 0.4318(5)
H34 H 0.3344 0.1679 0.4225
C62 C 0.4441(7) -0.1732(7) 0.0352(4)
H39 H 0.3772 -0.1774 0.0559
H40 H 0.4320 -0.2277 -0.0056
C64 C 0.7148(8) -0.4033(7) 0.2165(4)
H42 H 0.7791 -0.3835 0.2433
C65 C 0.7568(7) -0.3809(6) 0.3931(4)
H43 H 0.7071 -0.4358 0.3955
C66 C 0.6625(7) -0.2073(7) 0.1203(4)
H44 H 0.7196 -0.2320 0.1238
C67 C 0.4251(7) 0.0491(7) 0.0000(4)
H45 H 0.3740 0.0819 0.0008
C68 C 0.5269(8) -0.4370(7) 0.2053(5)
H46 H 0.4626 -0.4391 0.2248
C69 C 0.4593(8) 0.2579(7) 0.4871(5)
H47 H 0.4199 0.2924 0.5165
C71 C 0.9166(11) 0.4155(8) 0.3477(6)
C75 C 0.8077(8) 0.3773(7) 0.3340(5)
H52 H 0.7720 0.3833 0.2981
C77 C 0.5978(7) -0.2311(7) 0.0643(4)
H53 H 0.6012 -0.2745 0.0226
C80 C 0.7154(9) -0.4343(7) 0.1470(5)
H55 H 0.7796 -0.4329 0.1274
C81 C 0.6206(11) -0.4666(9) 0.1084(5)
C83 C 0.5259(10) -0.4695(9) 0.1363(5)
H57 H 0.4614 -0.4931 0.1094
C84 C 0.9698(9) 0.4058(8) 0.4001(7)
H58 H 1.0438 0.4317 0.4087
Cl4 Cl 0.6265(4) -0.5040(3) 0.02279(14)
Cd2A Cd 0.28181(4) 0.05153(4) -0.27367(2)
Cd2A_2 Cd 1.28181(4) 0.05153(4) -0.27367(2)
Cl3A Cl 0.0118(3) -0.4741(3) -0.2973(2)
O1A O 0.4640(5) 0.3800(5) -0.3451(3)
C1A C 0.2538(6) -0.2642(6) -0.4709(4)
C2A C 0.5990(6) 0.0328(8) -0.0165(4)
H1A H 0.6680 0.0561 -0.0272
O3A O 0.2680(4) -0.0985(4) -0.3758(2)
O5A O 0.4156(4) -0.0147(4) -0.3095(2)
O7A O 0.3283(5) 0.1797(4) -0.3213(2)
N2A N 1.0277(5) -0.1163(5) -0.1835(3)
O8A O 0.1611(4) 0.1177(4) -0.3111(3)
N4A N 0.4739(5) 0.1788(5) -0.0811(3)
O10A O 0.2067(5) -0.2633(5) -0.5198(3)
C5A C 0.9761(6) -0.0585(6) -0.0670(3)
N7A N 0.3680(5) 0.1412(5) -0.1715(3)
C7A C 0.5250(7) 0.0821(7) -0.0177(3)
C9A C 0.3799(7) 0.3668(6) -0.3200(4)
C10A C 0.8977(6) -0.0188(6) -0.0328(3)
N8A N 1.1533(5) -0.0528(5) -0.2379(3)
N8A_2 N 0.1533(5) -0.0528(5) -0.2379(3)
C11A C 0.4329(7) -0.2819(6) -0.4988(4)
H4A H 0.3982 -0.3348 -0.5354
C12A C 0.4251(6) -0.1490(6) -0.4025(3)
C15A C 1.0920(6) -0.0357(6) -0.1881(4)
H8A H 1.0938 0.0253 -0.1598
C19A C 0.5347(6) -0.1284(6) -0.3897(4)
H11A H 0.5704 -0.0773 -0.3523
C20A C 0.0655(7) 0.2748(7) -0.4189(4)
H12A H -0.0050 0.2591 -0.4369
C21A C 0.1946(6) -0.3175(6) -0.4266(4)
C23A C 0.3774(7) 0.4014(6) -0.2454(4)
C26A C 0.2332(7) 0.1754(6) -0.3288(3)
C29A C 0.4512(6) 0.1267(6) -0.1454(4)
H15A H 0.4893 0.0852 -0.1689
C30A C 0.3729(6) -0.2287(6) -0.4569(4)
C34A C 0.2482(7) -0.3296(6) -0.3745(4)
H18A H 0.3224 -0.3054 -0.3668
C35A C 1.1223(6) -0.1495(6) -0.2666(4)
H19A H 1.1501 -0.1833 -0.3040
C37A C 0.3653(6) -0.0829(6) -0.3599(4)
C39A C 0.1997(6) 0.2412(6) -0.3595(3)
C44A C 0.2734(6) 0.3256(6) -0.3600(4)
C45A C 0.0856(8) -0.3581(7) -0.4397(5)
H24A H 0.0494 -0.3530 -0.4758
C47A C 0.9445(6) -0.1264(6) -0.1374(4)
H26A H 0.8810 -0.1164 -0.1548
H27A H 0.9256 -0.1915 -0.1364
C48A C 1.0764(6) -0.0394(6) -0.0334(3)
H28A H 1.1274 -0.0665 -0.0562
C49A C 0.0960(6) 0.2176(6) -0.3883(3)
H29A H 0.0462 0.1622 -0.3870
C50A C 0.1398(8) 0.3552(7) -0.4226(4)
H30A H 0.1205 0.3925 -0.4451
C54A C 1.0460(6) -0.1896(6) -0.2337(4)
H31A H 1.0125 -0.2547 -0.2434
C57A C 0.5918(7) -0.1826(7) -0.4318(5)
H34A H 0.6656 -0.1679 -0.4225
C62A C 0.5559(7) 0.1732(7) -0.0352(4)
H39A H 0.6228 0.1774 -0.0559
H40A H 0.5680 0.2277 0.0056
C64A C 0.2852(8) 0.4033(7) -0.2165(4)
H42A H 0.2209 0.3835 -0.2433
C65A C 0.2432(7) 0.3809(6) -0.3931(4)
H43A H 0.2929 0.4358 -0.3955
C66A C 0.3375(7) 0.2073(7) -0.1203(4)
H44A H 0.2804 0.2320 -0.1238
C67A C 0.5749(7) -0.0491(7) 0.0000(4)
H45A H 0.6260 -0.0819 -0.0008
C68A C 0.4731(8) 0.4370(7) -0.2053(5)
H46A H 0.5374 0.4391 -0.2248
C69A C 0.5407(8) -0.2579(7) -0.4871(5)
H47A H 0.5801 -0.2924 -0.5165
C71A C 0.0834(11) -0.4155(8) -0.3477(6)
C75A C 0.1923(8) -0.3773(7) -0.3340(5)
H52A H 0.2280 -0.3833 -0.2981
C77A C 0.4022(7) 0.2311(7) -0.0643(4)
H53A H 0.3988 0.2745 -0.0226
C80A C 0.2846(9) 0.4343(7) -0.1470(5)
H55A H 0.2204 0.4329 -0.1274
C81A C 0.3794(11) 0.4666(9) -0.1084(5)
C83A C 0.4741(10) 0.4695(9) -0.1363(5)
H57A H 0.5386 0.4931 -0.1094
C84A C 0.0302(9) -0.4058(8) -0.4001(7)
H58A H -0.0438 -0.4317 -0.4087
Cl4A Cl 0.3735(4) 0.5040(3) -0.02279(14)
O13 O -0.0823(10) -0.2335(10) 0.1987(6)
H59 H -0.1427 -0.2741 0.1829
H60 H -0.1021 -0.1866 0.2239
loop_
_geom_bond_atom_site_label_1
_geom_bond_atom_site_label_2
_geom_bond_site_symmetry_1
_geom_bond_site_symmetry_2
Cd1 O2 1_555 1_555
Cd2 O3 1_555 1_555
Cl1 C53 1_555 1_555
Cl2 C78 1_555 1_555
Cl3 C71 1_555 1_555
O1 C9 1_555 1_555
C1 O10 1_555 1_555
C2 H1 1_555 1_555
O2 C27 1_555 1_555
O3 C37 1_555 1_555
O4 Cd1 1_555 1_555
O5 Cd2 1_555 1_555
O6 Cd1 1_555 1_555
O7 Cd2 1_555 1_555
N1 Cd1 1_555 1_555
N2 C15 1_555 1_555
O8 Cd2 1_555 1_555
O9 Cd1 1_555 1_555
N3 C13 1_555 1_555
C3 H2 1_555 1_555
N4 C29 1_555 1_555
N5 Cd1 1_555 1_555
N6 C18 1_555 1_555
O11 C52 1_555 1_555
C4 C27 1_555 1_555
C5 C10 1_555 1_555
C6 H3 1_555 1_555
N7 Cd2 1_555 1_555
C7 C2 1_555 1_555
O12 C76 1_555 1_555
C8 C31 1_555 1_555
C9 C23 1_555 1_555
C10 C48A 1_555 1_555
N8 Cd2 1_555 1_555
C11 H4 1_555 1_555
C12 C19 1_555 1_555
C13 H5 1_555 1_555
H6 C13 1_555 1_555
C14 N1 1_555 1_555
H7 C14 1_555 1_555
C15 N8 1_555 1_555
H8 C15 1_555 1_555
C16 H9 1_555 1_555
C17 C25 1_555 1_555
C18 H10 1_555 1_555
C19 H11 1_555 1_555
C20 H12 1_555 1_555
C21 C1 1_555 1_555
C22 C13 1_555 1_555
C23 C64 1_555 1_555
C24 H13 1_555 1_555
C25 C6 1_555 1_555
C26 O7 1_555 1_555
C27 O9 1_555 1_555
C28 H14 1_555 1_555
C29 N7 1_555 1_555
H15 C29 1_555 1_555
C30 C1 1_555 1_555
C31 C38 1_555 1_555
C32 C22 1_555 1_555
H16 C32 1_555 1_555
C33 N5 1_555 1_555
H17 C33 1_555 1_555
C34 C21 1_555 1_555
H18 C34 1_555 1_555
C35 N8 1_555 1_555
H19 C35 1_555 1_555
C36 C59 1_555 1_555
C37 O5 1_555 1_555
C38 H20 1_555 1_555
C39 C26 1_555 1_555
C40 N1 1_555 1_555
H21 C40 1_555 1_555
C41 O4 1_555 1_555
C42 C6 1_555 1_555
H22 C42 1_555 1_555
C43 C17 1_555 1_555
H23 C43 1_555 1_555
C44 C9 1_555 1_555
C45 C21 1_555 1_555
H24 C45 1_555 1_555
C46 H25 1_555 1_555
C47 N2 1_555 1_555
H26 C47 1_555 1_555
H27 C47 1_555 1_555
C48 C5 1_555 1_555
H28 C48 1_555 1_555
C49 C20 1_555 1_555
H29 C49 1_555 1_555
C50 C20 1_555 1_555
H30 C50 1_555 1_555
C51 C24 1_555 1_555
C52 C51 1_555 1_555
C53 C3 1_555 1_555
C54 N2 1_555 1_555
H31 C54 1_555 1_555
C55 N6 1_555 1_555
H32 C55 1_555 1_555
H33 C55 1_555 1_555
C56 C4 1_555 1_555
C57 C19 1_555 1_555
H34 C57 1_555 1_555
C58 N5 1_555 1_555
H35 C58 1_555 1_555
C59 H36 1_555 1_555
C60 C53 1_555 1_555
H37 C60 1_555 1_555
C61 C4 1_555 1_555
H38 C61 1_555 1_555
C62 N4 1_555 1_555
H39 C62 1_555 1_555
H40 C62 1_555 1_555
C63 C28 1_555 1_555
H41 C63 1_555 1_555
C64 H42 1_555 1_555
C65 C44 1_555 1_555
H43 C65 1_555 1_555
C66 N7 1_555 1_555
H44 C66 1_555 1_555
C67 C2 1_555 1_555
H45 C67 1_555 1_555
C68 C23 1_555 1_555
H46 C68 1_555 1_555
C69 C11 1_555 1_555
H47 C69 1_555 1_555
C70 C61 1_555 1_555
H48 C70 1_555 1_555
C71 C75 1_555 1_555
C72 C42 1_555 1_555
H49 C72 1_555 1_555
C73 N3 1_555 1_555
H50 C73 1_555 1_555
C74 C24 1_555 1_555
H51 C74 1_555 1_555
C75 C34 1_555 1_555
H52 C75 1_555 1_555
C76 C25 1_555 1_555
C77 N4 1_555 1_555
H53 C77 1_555 1_555
C78 C46 1_555 1_555
C79 C46 1_555 1_555
H54 C79 1_555 1_555
C80 C64 1_555 1_555
H55 C80 1_555 1_555
C81 C80 1_555 1_555
C82 C3 1_555 1_555
H56 C82 1_555 1_555
C83 C68 1_555 1_555
H57 C83 1_555 1_555
C84 C45 1_555 1_555
H58 C84 1_555 1_555
Cl4 C81 1_555 1_555
O13 H59 1_555 1_555
H60 O13 1_555 1_555
Cd1A O2A 1_555 1_555
Cd1A_2 N5A 1_555 1_555
Cd2A O3A 1_555 1_555
Cd2A_2 N8A 1_555 1_555
Cl1A C53A 1_555 1_555
Cl2A C78A 1_555 1_555
Cl3A C71A 1_555 1_555
O1A C9A 1_555 1_555
C1A O10A 1_555 1_555
C2A H1A 1_555 1_555
O2A C27A 1_555 1_555
O3A C37A 1_555 1_555
O4A Cd1A 1_555 1_555
O5A Cd2A 1_555 1_555
O6A Cd1A 1_555 1_555
O7A Cd2A 1_555 1_555
N1A Cd1A 1_555 1_555
N2A C15A 1_555 1_555
O8A Cd2A 1_555 1_555
O9A Cd1A 1_555 1_555
N3A C13A 1_555 1_555
C3A H2A 1_555 1_555
N4A C29A 1_555 1_555
N5A C33A 1_555 1_555
N5A_2 Cd1A 1_555 1_555
N6A C18A 1_555 1_555
O11A C52A 1_555 1_555
C4A C27A 1_555 1_555
C5A C10A 1_555 1_555
C6A H3A 1_555 1_555
N7A Cd2A 1_555 1_555
C7A C67 1_555 1_555
O12A C76A 1_555 1_555
C8A C38 1_555 1_555
C9A C23A 1_555 1_555
C10A C48 1_555 1_555
N8A C15A 1_555 1_555
N8A_2 Cd2A 1_555 1_555
C11A H4A 1_555 1_555
C12A C19A 1_555 1_555
C13A H5A 1_555 1_555
H6A C13A 1_555 1_555
C14A N1A 1_555 1_555
H7A C14A 1_555 1_555
C15A H8A 1_555 1_555
C16A C32 1_555 1_555
H9A C16A 1_555 1_555
C17A C25A 1_555 1_555
C18A H10A 1_555 1_555
C19A H11A 1_555 1_555
C20A H12A 1_555 1_555
C21A C1A 1_555 1_555
C22A C13A 1_555 1_555
C23A C64A 1_555 1_555
C24A H13A 1_555 1_555
C25A C6A 1_555 1_555
C26A O7A 1_555 1_555
C27A O9A 1_555 1_555
C28A H14A 1_555 1_555
C29A N7A 1_555 1_555
H15A C29A 1_555 1_555
C30A C1A 1_555 1_555
C31A C8A 1_555 1_555
C32A C16 1_555 1_555
H16A C32A 1_555 1_555
C33A C18A 1_555 1_555
H17A C33A 1_555 1_555
C34A C21A 1_555 1_555
H18A C34A 1_555 1_555
C35A N8A 1_555 1_555
H19A C35A 1_555 1_555
C36A C59A 1_555 1_555
C37A O5A 1_555 1_555
C38A C8 1_555 1_555
H20A C38A 1_555 1_555
C39A C26A 1_555 1_555
C40A N1A 1_555 1_555
H21A C40A 1_555 1_555
C41A O4A 1_555 1_555
C42A C6A 1_555 1_555
H22A C42A 1_555 1_555
C43A C17A 1_555 1_555
H23A C43A 1_555 1_555
C44A C9A 1_555 1_555
C45A C21A 1_555 1_555
H24A C45A 1_555 1_555
C46A H25A 1_555 1_555
C47A N2A 1_555 1_555
H26A C47A 1_555 1_555
H27A C47A 1_555 1_555
C48A C5A 1_555 1_555
H28A C48A 1_555 1_555
C49A C20A 1_555 1_555
H29A C49A 1_555 1_555
C50A C20A 1_555 1_555
H30A C50A 1_555 1_555
C51A C24A 1_555 1_555
C52A C51A 1_555 1_555
C53A C3A 1_555 1_555
C54A N2A 1_555 1_555
H31A C54A 1_555 1_555
C55A N6A 1_555 1_555
H32A C55A 1_555 1_555
H33A C55A 1_555 1_555
C56A C4A 1_555 1_555
C57A C19A 1_555 1_555
H34A C57A 1_555 1_555
C58A N5A 1_555 1_555
H35A C58A 1_555 1_555
C59A H36A 1_555 1_555
C60A C53A 1_555 1_555
H37A C60A 1_555 1_555
C61A C4A 1_555 1_555
H38A C61A 1_555 1_555
C62A N4A 1_555 1_555
H39A C62A 1_555 1_555
H40A C62A 1_555 1_555
C63A C28A 1_555 1_555
H41A C63A 1_555 1_555
C64A H42A 1_555 1_555
C65A C44A 1_555 1_555
H43A C65A 1_555 1_555
C66A N7A 1_555 1_555
H44A C66A 1_555 1_555
C67A C7 1_555 1_555
H45A C67A 1_555 1_555
C68A C23A 1_555 1_555
H46A C68A 1_555 1_555
C69A C11A 1_555 1_555
H47A C69A 1_555 1_555
C70A C61A 1_555 1_555
H48A C70A 1_555 1_555
C71A C75A 1_555 1_555
C72A C42A 1_555 1_555
H49A C72A 1_555 1_555
C73A N3A 1_555 1_555
H50A C73A 1_555 1_555
C74A C24A 1_555 1_555
H51A C74A 1_555 1_555
C75A C34A 1_555 1_555
H52A C75A 1_555 1_555
C76A C25A 1_555 1_555
C77A N4A 1_555 1_555
H53A C77A 1_555 1_555
C78A C46A 1_555 1_555
C79A C46A 1_555 1_555
H54A C79A 1_555 1_555
C80A C64A 1_555 1_555
H55A C80A 1_555 1_555
C81A C80A 1_555 1_555
C82A C3A 1_555 1_555
H56A C82A 1_555 1_555
C83A C68A 1_555 1_555
H57A C83A 1_555 1_555
C84A C45A 1_555 1_555
H58A C84A 1_555 1_555
Cl4A C81A 1_555 1_555
O6 C41 1_555 1_555
O8 C26 1_555 1_555
N3 C40 1_555 1_555
N6 C58 1_555 1_555
C5 C47 1_555 1_555
C7 C62 1_555 1_555
C11 C30 1_555 1_555
C12 C30 1_555 1_555
C12 C37 1_555 1_555
C14 C73 1_555 1_555
C16 C22 1_555 1_555
C17 C41 1_555 1_555
C18 C33 1_555 1_555
C28 C56 1_555 1_555
C31 C55 1_555 1_555
C35 C54 1_555 1_555
C36 C76 1_555 1_555
C36 C82 1_555 1_555
C39 C44 1_555 1_555
C39 C49 1_555 1_555
C43 C72 1_555 1_555
C50 C65 1_555 1_555
C51 C79 1_555 1_555
C52 C56 1_555 1_555
C57 C69 1_555 1_555
C59 C60 1_555 1_555
C63 C70 1_555 1_555
C66 C77 1_555 1_555
C71 C84 1_555 1_555
C74 C78 1_555 1_555
C81 C83 1_555 1_555
C2A C7A 1_555 1_555
C2A C67A 1_555 1_555
O6A C41A 1_555 1_555
O8A C26A 1_555 1_555
N3A C40A 1_555 1_555
N6A C58A 1_555 1_555
C5A C47A 1_555 1_555
C7A C62A 1_555 1_555
C11A C30A 1_555 1_555
C12A C30A 1_555 1_555
C12A C37A 1_555 1_555
C14A C73A 1_555 1_555
C16A C22A 1_555 1_555
C17A C41A 1_555 1_555
C22A C32A 1_555 1_555
C28A C56A 1_555 1_555
C31A C38A 1_555 1_555
C31A C55A 1_555 1_555
C35A C54A 1_555 1_555
C36A C76A 1_555 1_555
C36A C82A 1_555 1_555
C39A C44A 1_555 1_555
C39A C49A 1_555 1_555
C43A C72A 1_555 1_555
C50A C65A 1_555 1_555
C51A C79A 1_555 1_555
C52A C56A 1_555 1_555
C57A C69A 1_555 1_555
C59A C60A 1_555 1_555
C63A C70A 1_555 1_555
C66A C77A 1_555 1_555
C71A C84A 1_555 1_555
C74A C78A 1_555 1_555
C81A C83A 1_555 1_555

#END
