
#######################################################################
#
#                 Cambridge Crystallographic Data Centre
#                                CCDC 
#
#######################################################################
#
# If this CIF has been generated from an entry in the Cambridge 
# Structural Database, then it will include bibliographic, chemical, 
# crystal, experimental, refinement or atomic coordinate data resulting 
# from the CCDC's data processing and validation procedures.
#
#######################################################################

data_TEBFUD
_symmetry_cell_setting           monoclinic
_symmetry_space_group_name_H-M   'P 21/n'
_symmetry_Int_Tables_number      14
_space_group_name_Hall           '-P 2yn'
loop_
_symmetry_equiv_pos_site_id
_symmetry_equiv_pos_as_xyz
1 x,y,z
2 1/2-x,1/2+y,1/2-z
3 -x,-y,-z
4 1/2+x,1/2-y,1/2+z
_cell_length_a                   10.7063(1)
_cell_length_b                   7.1491(1)
_cell_length_c                   17.1197(3)
_cell_angle_alpha                90
_cell_angle_beta                 97.097(1)
_cell_angle_gamma                90
_cell_volume                     1300.31
loop_
_atom_site_label
_atom_site_type_symbol
_atom_site_fract_x
_atom_site_fract_y
_atom_site_fract_z
Dy1 Dy 0.823678(10) 0.979836(16) 0.253328(6)
C1 C 0.9150(2) 0.6738(3) 0.35091(13)
C2 C 0.9573(2) 0.5749(4) 0.42636(14)
C3 C 1.0059(2) 0.6905(4) 0.48796(14)
C4 C 0.9039(2) 0.2477(4) 0.37418(14)
C5 C 0.9514(2) 0.3820(3) 0.43804(14)
C6 C 0.6091(2) 1.1476(4) 0.36520(13)
C7 C 0.5474(2) 1.0724(4) 0.43305(14)
C8 C 0.4468(2) 1.1605(4) 0.46301(14)
C9 C 0.3784(2) 1.3208(4) 0.42089(16)
C10 C 0.5986(2) 0.9108(4) 0.47028(15)
O1 O 0.65526(19) 1.0296(3) 0.32336(12)
O2 O 0.79651(15) 0.6923(2) 0.32908(9)
O3 O 0.85497(15) 0.3100(2) 0.30730(9)
O4 O 0.99355(16) 0.7545(3) 0.31491(10)
O5 O 0.91517(19) 0.0773(3) 0.38589(10)
O6 O 0.61338(17) 1.3216(3) 0.35601(10)
O7 O 0.34747(19) 1.3198(3) 0.34990(11)
O8 O 1.0071(2) 1.1158(3) 0.21785(14)
O9 O 0.3514(3) 1.4550(3) 0.46723(14)
H1 H 1.0050 0.8208 0.4781
H2 H 1.0426 1.0510 0.1866
H3 H 1.0371 1.2257 0.2250
H6 H 0.3075 1.5384 0.4366
H7 H 0.6628 0.8401 0.4483
Dy1B Dy 0.176322(10) 1.020164(16) 0.746672(6)
Dy1A Dy 0.676322(10) 0.479836(16) 0.246672(6)
Dy1_2 Dy 0.823678(10) -0.020164(16) 0.253328(6)
Dy1A_2 Dy 0.676322(10) 1.479836(16) 0.246672(6)
Dy1B_2 Dy 1.176322(10) 0.020164(16) 0.746672(6)
Dy1C Dy 1.323678(10) 0.520164(16) 0.753328(6)
Dy1B_3 Dy 1.176322(10) 1.020164(16) 0.746672(6)
Dy1C_2 Dy 0.323678(10) 0.520164(16) 0.753328(6)
C1B C 1.0850(2) 0.3262(3) 0.64909(13)
C2B C 1.0427(2) 0.4251(4) 0.57364(14)
C3B C 0.9941(2) 0.3095(4) 0.51204(14)
C4B C 1.0961(2) 0.7523(4) 0.62582(14)
C5B C 1.0486(2) 0.6180(3) 0.56196(14)
C6B C 0.3909(2) 0.8524(4) 0.63480(13)
C7B C 0.4526(2) 0.9276(4) 0.56695(14)
C8B C 0.5532(2) 0.8395(4) 0.53699(14)
C9B C 0.6216(2) 0.6792(4) 0.57911(16)
C10B C 0.4014(2) 1.0892(4) 0.52972(15)
O1B O 0.34474(19) 0.9704(3) 0.67664(12)
O2B O 1.20349(15) 0.3077(2) 0.67092(9)
O2A O 0.70349(15) 1.1923(2) 0.17092(9)
O2B_2 O 0.20349(15) 1.3077(2) 0.67092(9)
O2C O 0.29651(15) 0.8077(2) 0.82908(9)
O3B O 1.14503(15) 0.6900(2) 0.69270(9)
O3_2 O 0.85497(15) 1.3100(2) 0.30730(9)
O3A O 0.64503(15) 0.8100(2) 0.19270(9)
O3B_2 O 0.14503(15) 0.6900(2) 0.69270(9)
O3C O 0.35497(15) 1.1900(2) 0.80730(9)
O4B O 1.00645(16) 0.2455(3) 0.68509(10)
O4B_2 O 0.00645(16) 1.2455(3) 0.68509(10)
O5B O 1.08483(19) 0.9227(3) 0.61411(10)
O5_2 O 0.91517(19) 1.0773(3) 0.38589(10)
O5B_2 O 0.08483(19) 0.9227(3) 0.61411(10)
O6B O 0.38662(17) 0.6784(3) 0.64399(10)
O6A O 0.88662(17) 0.8216(3) 0.14399(10)
O6C O 0.11338(17) 1.1784(3) 0.85601(10)
O7B O 0.65253(19) 0.6802(3) 0.65010(11)
O8B O -0.0071(2) 0.8842(3) 0.78215(14)
O9B O 0.6486(3) 0.5450(3) 0.53277(14)
H1B H 0.9950 0.1792 0.5219
H2B H -0.0426 0.9490 0.8134
H3B H -0.0371 0.7743 0.7750
H6B H 0.6925 0.4616 0.5634
H7B H 0.3372 1.1599 0.5517
O10 O 1.1480(2) 1.4379(4) 0.23370(17)
H8 H 1.2136 1.4239 0.2795
H9 H 1.1279 1.5658 0.2271
O11 O 1.2520(2) 1.2421(4) 0.11272(16)
H4 H 1.3363 1.2369 0.1298
H5 H 1.2211 1.3324 0.1420
loop_
_geom_bond_atom_site_label_1
_geom_bond_atom_site_label_2
_geom_bond_site_symmetry_1
_geom_bond_site_symmetry_2
Dy1 O1 1_555 1_555
C1 C2 1_555 1_555
C2 C3 1_555 1_555
C3 H1 1_555 1_555
C4 C5 1_555 1_555
C5 C2 1_555 1_555
C6 C7 1_555 1_555
C7 C8 1_555 1_555
C8 C9 1_555 1_555
C9 O7 1_555 1_555
C10 C7 1_555 1_555
O1 C6 1_555 1_555
O2 Dy1 1_555 1_555
O3 C4 1_555 1_555
O4 Dy1 1_555 1_555
O5 C4 1_555 1_555
O6 C6 1_555 1_555
O8 Dy1 1_555 1_555
O9 C9 1_555 1_555
O10 H8 1_555 1_555
O11 H4 1_555 1_555
H2 O8 1_555 1_555
H3 O8 1_555 1_555
H5 O11 1_555 1_555
H6 O9 1_555 1_555
H7 C10 1_555 1_555
H9 O10 1_555 1_555
Dy1B O1B 1_555 1_555
Dy1A O2 1_555 1_555
Dy1_2 O3 1_555 1_555
Dy1A_2 O6 1_555 1_555
Dy1B_2 O2B 1_555 1_555
Dy1C O2B 1_555 1_555
Dy1B_3 O3B 1_555 1_555
Dy1C_2 O2C 1_555 1_555
C1B C2B 1_555 1_555
C2B C3B 1_555 1_555
C3B C5 1_555 1_555
C4B C5B 1_555 1_555
C5B C3 1_555 1_555
C6B C7B 1_555 1_555
C7B C8B 1_555 1_555
C8B C10 1_555 1_555
C9B C8B 1_555 1_555
C10B C8 1_555 1_555
O1B C6B 1_555 1_555
O2B C1B 1_555 1_555
O2A Dy1 1_555 1_555
O2B_2 Dy1B 1_555 1_555
O2C Dy1B 1_555 1_555
O3B Dy1C 1_555 1_555
O3_2 Dy1 1_555 1_555
O3A Dy1 1_555 1_555
O3B_2 Dy1B 1_555 1_555
O3C Dy1B 1_555 1_555
O4B Dy1B_2 1_555 1_555
O4B_2 Dy1B 1_555 1_555
O5B Dy1B_3 1_555 1_555
O5_2 Dy1 1_555 1_555
O5B_2 Dy1B 1_555 1_555
O6B Dy1C_2 1_555 1_555
O6A Dy1 1_555 1_555
O6C Dy1B 1_555 1_555
O7B C9B 1_555 1_555
O8B Dy1B 1_555 1_555
O9B C9B 1_555 1_555
H1B C3B 1_555 1_555
H2B O8B 1_555 1_555
H3B O8B 1_555 1_555
H6B O9B 1_555 1_555
H7B C10B 1_555 1_555
C1 O2 1_555 1_555
C1 O4 1_555 1_555
O3 Dy1A 1_555 1_555
O5 Dy1_2 1_555 1_555
Dy1A O3A 1_555 1_555
Dy1A_2 O2A 1_555 1_555
Dy1A_2 O3_2 1_555 1_555
Dy1C_2 O3B_2 1_555 1_555
C1B O4B 1_555 1_555
C2B C5B 1_555 1_555
C4B O3B 1_555 1_555
C4B O5B 1_555 1_555
C6B O6B 1_555 1_555
C7B C10B 1_555 1_555

#END
