
#######################################################################
#
#                 Cambridge Crystallographic Data Centre
#                                CCDC 
#
#######################################################################
#
# If this CIF has been generated from an entry in the Cambridge 
# Structural Database, then it will include bibliographic, chemical, 
# crystal, experimental, refinement or atomic coordinate data resulting 
# from the CCDC's data processing and validation procedures.
#
#######################################################################

data_TEBFIR
_symmetry_cell_setting           triclinic
_symmetry_space_group_name_H-M   'P -1'
_symmetry_Int_Tables_number      2
_space_group_name_Hall           '-P 1'
loop_
_symmetry_equiv_pos_site_id
_symmetry_equiv_pos_as_xyz
1 x,y,z
2 -x,-y,-z
_cell_length_a                   9.2840(10)
_cell_length_b                   11.4402(12)
_cell_length_c                   15.6623(16)
_cell_angle_alpha                107.868(2)
_cell_angle_beta                 101.4140(10)
_cell_angle_gamma                95.9480(10)
_cell_volume                     1527.69
loop_
_atom_site_label
_atom_site_type_symbol
_atom_site_fract_x
_atom_site_fract_y
_atom_site_fract_z
Ag1 Ag 0.95531(5) 1.11336(3) 0.87134(3)
Ag2 Ag 0.69752(4) 0.34613(3) 0.43945(3)
N1 N 0.9603(5) 1.3046(3) 0.8732(3)
N2 N 0.9561(5) 1.9294(3) 0.8874(3)
N3 N 0.7850(4) 0.5573(3) 0.5089(2)
N4 N 0.6064(4) 0.4151(3) 0.5696(2)
O1 O 0.8655(4) 1.0144(3) 0.6902(2)
O2 O 1.0963(4) 0.9757(3) 0.6940(2)
O3 O 0.3875(5) 0.6713(4) 0.8186(3)
O4 O 0.4765(4) 0.5323(3) 0.8765(2)
O5 O 0.6787(5) 0.1930(3) 0.3157(3)
H1 H 0.7442 0.1468 0.3073
H2 H 0.6673 0.2273 0.2743
C1 C 0.8339(6) 1.3473(4) 0.8549(3)
H13 H 0.7443 1.2919 0.8380
C2 C 0.8278(5) 1.4693(4) 0.8596(3)
H14 H 0.7362 1.4945 0.8469
C3 C 0.9598(5) 1.5537(4) 0.8834(3)
C4 C 1.0920(5) 1.5093(4) 0.9011(3)
H15 H 1.1834 1.5619 0.9162
C5 C 1.0869(6) 1.3865(4) 0.8961(3)
H16 H 1.1767 1.3590 0.9095
C6 C 0.8433(5) 1.8651(4) 0.9037(3)
H17 H 0.7618 1.9029 0.9148
C7 C 0.8413(5) 1.7450(4) 0.9051(3)
H18 H 0.7609 1.7046 0.9186
C8 C 0.9583(5) 1.6852(4) 0.8866(3)
C9 C 1.0780(5) 1.7526(4) 0.8715(3)
H19 H 1.1612 1.7171 0.8606
C10 C 1.0718(6) 1.8730(4) 0.8729(4)
H20 H 1.1531 1.9174 0.8632
C11 C 0.9574(7) 0.9456(5) 0.6685(3)
C12 C 0.7437(5) 0.6145(4) 0.5851(3)
C13 C 0.7969(5) 0.7408(4) 0.6357(3)
H21 H 0.7655 0.7776 0.6890
C14 C 0.8944(5) 0.8110(4) 0.6079(3)
C15 C 0.9396(5) 0.7532(4) 0.5256(3)
C16 C 0.8811(5) 0.6250(4) 0.4778(3)
C17 C 0.9207(5) 0.5641(4) 0.3951(3)
H22 H 0.8833 0.4798 0.3635
C18 C 1.0143(6) 0.6290(5) 0.3615(3)
H23 H 1.0408 0.5882 0.3071
C19 C 1.0703(6) 0.7553(5) 0.4077(4)
H24 H 1.1331 0.7981 0.3835
C20 C 1.0347(5) 0.8166(5) 0.4873(3)
H25 H 1.0729 0.9011 0.5172
C21 C 0.4453(5) 0.5779(5) 0.8134(3)
C22 C 0.6386(4) 0.5360(4) 0.6169(3)
C23 C 0.5803(5) 0.5906(4) 0.6931(3)
H26 H 0.6007 0.6766 0.7222
C24 C 0.4925(5) 0.5159(4) 0.7247(3)
C25 C 0.4581(5) 0.3855(4) 0.6760(3)
C26 C 0.5142(5) 0.3392(4) 0.5971(3)
C27 C 0.4775(6) 0.2109(4) 0.5440(4)
H27 H 0.5155 0.1802 0.4925
C28 C 0.3860(6) 0.1323(5) 0.5685(4)
H28 H 0.3612 0.0481 0.5331
C29 C 0.3288(6) 0.1771(5) 0.6466(4)
H29 H 0.2670 0.1220 0.6625
C30 C 0.3622(5) 0.2990(5) 0.6990(3)
H30 H 0.3229 0.3272 0.7503
Ag1_2 Ag 0.95531(5) 2.11336(3) 0.87134(3)
N2_2 N 0.9561(5) 0.9294(3) 0.8874(3)
O6 O 0.2627(5) 0.1306(4) 0.8697(3)
H3 H 0.3350 0.1881 0.8778
H4 H 0.2269 0.0941 0.8120
O7 O 0.5084(4) 0.3322(3) 0.9426(2)
H5 H 0.4983 0.3871 0.9167
H6 H 0.5142 0.3665 0.9999
O8 O 0.6472(6) 0.1158(5) 0.9118(4)
H7 H 0.6040 0.1790 0.9221
H8 H 0.6461 0.0868 0.8548
O9 O 0.5952(5) 0.9834(5) 0.7249(4)
H9 H 0.6710 0.9697 0.7030
H10 H 0.5295 0.9174 0.7027
O10 O 0.5011(13) 0.0754(8) 0.0380(8)
H11 H 0.5271 0.1446 0.0823
H12 H 0.5424 0.0811 -0.0048
loop_
_geom_bond_atom_site_label_1
_geom_bond_atom_site_label_2
_geom_bond_site_symmetry_1
_geom_bond_site_symmetry_2
Ag1 N1 1_555 1_555
Ag2 N3 1_555 1_555
N1 C1 1_555 1_555
N2 C6 1_555 1_555
N3 C12 1_555 1_555
N4 Ag2 1_555 1_555
O1 Ag1 1_555 1_555
O2 C11 1_555 1_555
O3 C21 1_555 1_555
O4 C21 1_555 1_555
O5 Ag2 1_555 1_555
H1 O5 1_555 1_555
H2 O5 1_555 1_555
O6 H3 1_555 1_555
H4 O6 1_555 1_555
O7 H5 1_555 1_555
H6 O7 1_555 1_555
O8 H7 1_555 1_555
H8 O8 1_555 1_555
O9 H9 1_555 1_555
H10 O9 1_555 1_555
O10 H11 1_555 1_555
H12 O10 1_555 1_555
C1 H13 1_555 1_555
C2 C1 1_555 1_555
H14 C2 1_555 1_555
C3 C2 1_555 1_555
C4 C3 1_555 1_555
H15 C4 1_555 1_555
C5 N1 1_555 1_555
H16 C5 1_555 1_555
C6 H17 1_555 1_555
C7 C6 1_555 1_555
H18 C7 1_555 1_555
C8 C3 1_555 1_555
C9 C8 1_555 1_555
H19 C9 1_555 1_555
C10 N2 1_555 1_555
H20 C10 1_555 1_555
C11 O1 1_555 1_555
C12 C13 1_555 1_555
C13 H21 1_555 1_555
C14 C11 1_555 1_555
C15 C14 1_555 1_555
C16 N3 1_555 1_555
C17 C16 1_555 1_555
H22 C17 1_555 1_555
C18 C17 1_555 1_555
H23 C18 1_555 1_555
C19 C18 1_555 1_555
H24 C19 1_555 1_555
C20 C15 1_555 1_555
H25 C20 1_555 1_555
C21 C24 1_555 1_555
C22 N4 1_555 1_555
C23 C22 1_555 1_555
H26 C23 1_555 1_555
C24 C23 1_555 1_555
C25 C24 1_555 1_555
C26 N4 1_555 1_555
C27 C26 1_555 1_555
H27 C27 1_555 1_555
C28 C27 1_555 1_555
H28 C28 1_555 1_555
C29 C28 1_555 1_555
H29 C29 1_555 1_555
C30 C25 1_555 1_555
H30 C30 1_555 1_555
Ag1_2 N2 1_555 1_555
N2_2 Ag1 1_555 1_555
C4 C5 1_555 1_555
C7 C8 1_555 1_555
C9 C10 1_555 1_555
C12 C22 1_555 1_555
C13 C14 1_555 1_555
C15 C16 1_555 1_555
C19 C20 1_555 1_555
C25 C26 1_555 1_555
C29 C30 1_555 1_555

#END
