
#######################################################################
#
#                 Cambridge Crystallographic Data Centre
#                                CCDC 
#
#######################################################################
#
# If this CIF has been generated from an entry in the Cambridge 
# Structural Database, then it will include bibliographic, chemical, 
# crystal, experimental, refinement or atomic coordinate data resulting 
# from the CCDC's data processing and validation procedures.
#
#######################################################################

data_TEBFEN
_symmetry_cell_setting           monoclinic
_symmetry_space_group_name_H-M   'P 2/c'
_symmetry_Int_Tables_number      13
_space_group_name_Hall           '-P 2yc'
loop_
_symmetry_equiv_pos_site_id
_symmetry_equiv_pos_as_xyz
1 x,y,z
2 -x,y,1/2-z
3 -x,-y,-z
4 x,-y,1/2+z
_cell_length_a                   17.3931(16)
_cell_length_b                   11.382(1)
_cell_length_c                   29.441(3)
_cell_angle_alpha                90
_cell_angle_beta                 113.199(1)
_cell_angle_gamma                90
_cell_volume                     5357.11
loop_
_atom_site_label
_atom_site_type_symbol
_atom_site_fract_x
_atom_site_fract_y
_atom_site_fract_z
Ag1 Ag 0.84090(4) 0.58644(6) 0.20489(2)
Ag2 Ag 0.51131(4) 0.68110(5) 0.06529(2)
Ag3 Ag 0.33829(4) 0.65085(6) 0.20294(2)
Ag4 Ag 0.98737(4) 0.57383(5) 0.43640(2)
N1 N 0.4355(3) 0.5486(5) 0.1856(2)
N2 N 0.5808(4) 0.7658(5) 0.2263(2)
N3 N 0.9235(4) 0.4703(5) 0.2760(2)
N4 N 1.0648(3) 0.6921(5) 0.3137(2)
N5 N 0.5103(4) 0.4924(5) 0.0581(2)
N6 N 0.5141(4) -0.1290(5) 0.0628(2)
N7 N 0.9839(4) 0.7639(5) 0.4371(2)
N8 N 0.9840(4) 1.3846(5) 0.4410(2)
O1 O 0.7150(3) 0.5227(5) 0.2006(2)
O2 O 0.6412(3) 0.6666(5) 0.15178(19)
O3 O 0.3783(3) 0.6884(5) 0.0858(2)
O4 O 0.3072(3) 0.8045(6) 0.1152(3)
O5 O 1.1199(3) 0.5648(5) 0.4157(2)
O6 O 1.1974(4) 0.4467(6) 0.3924(3)
O7 O 0.8607(3) 0.5752(4) 0.34870(18)
O8 O 0.7858(3) 0.7166(5) 0.29839(19)
C1 C 0.6487(5) 0.5784(7) 0.1779(3)
C2 C 0.5056(4) 0.5966(6) 0.1843(3)
C3 C 0.5708(4) 0.5270(7) 0.1822(3)
C4 C 0.5616(5) 0.4056(7) 0.1822(3)
H27 H 0.6045 0.3567 0.1823
C5 C 0.4890(5) 0.3583(7) 0.1821(3)
H28 H 0.4814 0.2773 0.1809
C6 C 0.4276(5) 0.4318(7) 0.1836(3)
H29 H 0.3784 0.3989 0.1832
C7 C 0.3729(5) 0.7598(7) 0.1153(3)
C8 C 0.5129(4) 0.7267(6) 0.1883(3)
C9 C 0.4529(4) 0.8042(7) 0.1565(3)
C10 C 0.4693(5) 0.9237(7) 0.1648(3)
H30 H 0.4309 0.9778 0.1446
C11 C 0.5396(5) 0.9631(8) 0.2015(3)
H31 H 0.5514 1.0430 0.2057
C12 C 0.5932(5) 0.8820(7) 0.2323(3)
H32 H 0.6404 0.9089 0.2585
C13 C 1.1297(5) 0.4879(7) 0.3885(3)
C14 C 0.9909(4) 0.5140(6) 0.3136(3)
C15 C 1.0532(4) 0.4419(6) 0.3463(3)
C16 C 1.0417(5) 0.3208(7) 0.3404(3)
H33 H 1.0818 0.2699 0.3614
C17 C 0.9714(6) 0.2767(7) 0.3036(3)
H34 H 0.9623 0.1961 0.3001
C18 C 0.9147(5) 0.3531(7) 0.2722(3)
H35 H 0.8678 0.3224 0.2469
C19 C 0.8538(4) 0.6612(7) 0.3219(3)
C20 C 0.9957(4) 0.6440(6) 0.3161(2)
C21 C 0.9301(4) 0.7135(6) 0.3170(2)
C22 C 0.9391(5) 0.8344(6) 0.3166(3)
H36 H 0.8964 0.8832 0.3168
C23 C 1.0110(5) 0.8824(7) 0.3158(3)
H37 H 1.0178 0.9634 0.3161
C24 C 1.0723(5) 0.8095(7) 0.3145(3)
H38 H 1.1211 0.8423 0.3142
C25 C 0.5797(5) 0.4313(7) 0.0651(3)
H39 H 0.6283 0.4721 0.0692
C26 C 0.5819(5) 0.3112(7) 0.0666(3)
H40 H 0.6315 0.2718 0.0717
C27 C 0.5101(5) 0.2479(6) 0.0604(3)
C28 C 0.4374(5) 0.3112(7) 0.0523(3)
H41 H 0.3874 0.2727 0.0470
C29 C 0.4410(5) 0.4326(7) 0.0522(3)
H42 H 0.3928 0.4746 0.0480
C30 C 0.5819(5) -0.0665(6) 0.0888(3)
H43 H 0.6308 -0.1069 0.1072
C31 C 0.5838(5) 0.0557(6) 0.0899(3)
H44 H 0.6328 0.0953 0.1089
C32 C 0.5108(4) 0.1187(6) 0.0620(3)
C33 C 0.4408(5) 0.0520(7) 0.0365(3)
H45 H 0.3903 0.0893 0.0184
C34 C 0.4445(5) -0.0695(7) 0.0373(3)
H46 H 0.3962 -0.1115 0.0192
C35 C 0.9148(5) 0.8251(7) 0.4285(3)
H47 H 0.8658 0.7841 0.4234
C36 C 0.9111(5) 0.9450(6) 0.4266(3)
H48 H 0.8605 0.9831 0.4198
C37 C 0.9838(4) 1.0105(6) 0.4350(3)
C38 C 1.0551(5) 0.9449(6) 0.4440(3)
H49 H 1.1053 0.9828 0.4495
C39 C 1.0528(5) 0.8251(7) 0.4450(3)
H50 H 1.1024 0.7842 0.4516
C40 C 0.9143(5) 1.3250(7) 0.4175(3)
H51 H 0.8648 1.3669 0.4025
C41 C 0.9111(5) 1.2044(6) 0.4141(3)
H52 H 0.8603 1.1665 0.3975
C42 C 0.9844(5) 1.1394(6) 0.4357(3)
C43 C 1.0575(5) 1.2021(6) 0.4594(3)
H53 H 1.1083 1.1629 0.4740
C44 C 1.0548(5) 1.3227(7) 0.4613(3)
H54 H 1.1047 1.3632 0.4776
Ag1A Ag 1.15910(4) 0.58644(6) 0.29511(2)
Ag2_2 Ag 0.51131(4) -0.31890(5) 0.06529(2)
Ag3A Ag 0.66171(4) 0.65085(6) 0.29706(2)
Ag4_2 Ag 0.98737(4) 1.57383(5) 0.43640(2)
N2A N 0.4192(4) 0.7658(5) 0.2737(2)
N4A N 0.9352(3) 0.6921(5) 0.1863(2)
N6_2 N 0.5141(4) 0.8710(5) 0.0628(2)
N8_2 N 0.9840(4) 0.3846(5) 0.4410(2)
O8A O 0.2142(3) 0.7166(5) 0.20161(19)
O9 O 0.7385(3) 0.4098(5) 0.2905(2)
H1 H 0.7269 0.4370 0.2617
H2 H 0.7753 0.4539 0.3110
O10 O 0.7624(3) 0.8328(5) 0.2104(2)
H3 H 0.7258 0.7888 0.1897
H4 H 0.7742 0.8045 0.2391
O11 O 0.7834(4) 0.5666(6) 0.4196(2)
H5 H 0.8089 0.5603 0.4003
H6 H 0.7557 0.6304 0.4128
O12 O 0.7192(5) 0.6923(7) 0.0838(3)
H7 H 0.6934 0.6935 0.1031
H8 H 0.7448 0.6271 0.0877
O13 O 0.2674(4) 0.2954(7) 0.4843(3)
H9 H 0.3017 0.3194 0.5123
H10 H 0.2561 0.3519 0.4638
O14 O 0.2202(5) 0.6111(6) 0.5171(3)
H11 H 0.1897 0.5942 0.4873
H12 H 0.2175 0.5547 0.5354
O15 O 0.2452(5) 0.9049(8) 0.4446(3)
H13 H 0.2561 0.8411 0.4334
H14 H 0.2469 0.8919 0.4734
O16 O 0.2848(5) 0.0531(8) 0.1306(3)
H15 H 0.2929 -0.0206 0.1315
H16 H 0.2897 0.0762 0.1591
O17 O 0.7646(5) 0.2436(9) 0.1607(3)
H17 H 0.7737 0.3103 0.1509
H18 H 0.7694 0.1918 0.1412
O18 O 0.2112(6) 0.1222(9) 0.4104(4)
H19 H 0.2293 0.1722 0.4337
H20 H 0.2232 0.0538 0.4228
O19 O 0.2548(5) 0.1586(8) 0.0417(3)
H21 H 0.2630 0.1373 0.0710
H22 H 0.2445 0.2319 0.0390
O20 O 0.7041(8) 0.1660(8) 0.2849(4)
H23 H 0.7134 0.2395 0.2871
H24 H 0.7307 0.1354 0.2691
O21 O 0.7932(8) 0.0730(8) 0.2330(4)
H25 H 0.7827 0.1181 0.2082
H26 H 0.7819 0.0028 0.2226
loop_
_geom_bond_atom_site_label_1
_geom_bond_atom_site_label_2
_geom_bond_site_symmetry_1
_geom_bond_site_symmetry_2
Ag1 N3 1_555 1_555
Ag2 N5 1_555 1_555
Ag3 N1 1_555 1_555
Ag4 N7 1_555 1_555
N1 C2 1_555 1_555
N2 C8 1_555 1_555
N3 C14 1_555 1_555
N4 C20 1_555 1_555
N5 C25 1_555 1_555
N6 C30 1_555 1_555
N7 C35 1_555 1_555
N8 C40 1_555 1_555
O1 Ag1 1_555 1_555
O2 Ag2 1_555 1_555
O3 Ag2 1_555 1_555
O4 C7 1_555 1_555
O5 Ag4 1_555 1_555
O6 C13 1_555 1_555
O7 Ag4 1_555 1_555
O8 C19 1_555 1_555
O9 H1 1_555 1_555
H2 O9 1_555 1_555
O10 H3 1_555 1_555
H4 O10 1_555 1_555
O11 H5 1_555 1_555
H6 O11 1_555 1_555
O12 H7 1_555 1_555
H8 O12 1_555 1_555
O13 H9 1_555 1_555
H10 O13 1_555 1_555
O14 H11 1_555 1_555
H12 O14 1_555 1_555
O15 H13 1_555 1_555
H14 O15 1_555 1_555
O16 H15 1_555 1_555
H16 O16 1_555 1_555
O17 H17 1_555 1_555
H18 O17 1_555 1_555
O18 H19 1_555 1_555
H20 O18 1_555 1_555
O19 H21 1_555 1_555
H22 O19 1_555 1_555
O20 H23 1_555 1_555
H24 O20 1_555 1_555
O21 H25 1_555 1_555
H26 O21 1_555 1_555
C1 O1 1_555 1_555
C2 C3 1_555 1_555
C3 C1 1_555 1_555
C4 C3 1_555 1_555
H27 C4 1_555 1_555
C5 C4 1_555 1_555
H28 C5 1_555 1_555
C6 N1 1_555 1_555
H29 C6 1_555 1_555
C7 O3 1_555 1_555
C8 C2 1_555 1_555
C9 C7 1_555 1_555
C10 C9 1_555 1_555
H30 C10 1_555 1_555
C11 C10 1_555 1_555
H31 C11 1_555 1_555
C12 N2 1_555 1_555
H32 C12 1_555 1_555
C13 O5 1_555 1_555
C14 C15 1_555 1_555
C15 C13 1_555 1_555
C16 C15 1_555 1_555
H33 C16 1_555 1_555
C17 C16 1_555 1_555
H34 C17 1_555 1_555
C18 N3 1_555 1_555
H35 C18 1_555 1_555
C19 O7 1_555 1_555
C20 C14 1_555 1_555
C21 C19 1_555 1_555
C22 C21 1_555 1_555
H36 C22 1_555 1_555
C23 C22 1_555 1_555
H37 C23 1_555 1_555
C24 N4 1_555 1_555
H38 C24 1_555 1_555
C25 H39 1_555 1_555
C26 C25 1_555 1_555
H40 C26 1_555 1_555
C27 C26 1_555 1_555
C28 C27 1_555 1_555
H41 C28 1_555 1_555
C29 N5 1_555 1_555
H42 C29 1_555 1_555
C30 H43 1_555 1_555
C31 C30 1_555 1_555
H44 C31 1_555 1_555
C32 C27 1_555 1_555
C33 C32 1_555 1_555
H45 C33 1_555 1_555
C34 N6 1_555 1_555
H46 C34 1_555 1_555
C35 H47 1_555 1_555
C36 C35 1_555 1_555
H48 C36 1_555 1_555
C37 C36 1_555 1_555
C38 C37 1_555 1_555
H49 C38 1_555 1_555
C39 N7 1_555 1_555
H50 C39 1_555 1_555
C40 H51 1_555 1_555
C41 C40 1_555 1_555
H52 C41 1_555 1_555
C42 C37 1_555 1_555
C43 C42 1_555 1_555
H53 C43 1_555 1_555
C44 N8 1_555 1_555
H54 C44 1_555 1_555
Ag1A N4 1_555 1_555
Ag2_2 N6 1_555 1_555
Ag3A N2 1_555 1_555
Ag4_2 N8 1_555 1_555
N2A Ag3 1_555 1_555
N4A Ag1 1_555 1_555
N6_2 Ag2 1_555 1_555
N8_2 Ag4 1_555 1_555
O8A Ag3 1_555 1_555
O2 C1 1_555 1_555
O8 Ag3A 1_555 1_555
C5 C6 1_555 1_555
C8 C9 1_555 1_555
C11 C12 1_555 1_555
C17 C18 1_555 1_555
C20 C21 1_555 1_555
C23 C24 1_555 1_555
C28 C29 1_555 1_555
C31 C32 1_555 1_555
C33 C34 1_555 1_555
C38 C39 1_555 1_555
C41 C42 1_555 1_555
C43 C44 1_555 1_555

#END
