
#######################################################################
#
#                 Cambridge Crystallographic Data Centre
#                                CCDC 
#
#######################################################################
#
# If this CIF has been generated from an entry in the Cambridge 
# Structural Database, then it will include bibliographic, chemical, 
# crystal, experimental, refinement or atomic coordinate data resulting 
# from the CCDC's data processing and validation procedures.
#
#######################################################################

data_TEBHOZ
_symmetry_cell_setting           monoclinic
_symmetry_space_group_name_H-M   'P 21/c'
_symmetry_Int_Tables_number      14
_space_group_name_Hall           '-P 2ybc'
loop_
_symmetry_equiv_pos_site_id
_symmetry_equiv_pos_as_xyz
1 x,y,z
2 -x,1/2+y,1/2-z
3 -x,-y,-z
4 x,1/2-y,1/2+z
_cell_length_a                   13.508(3)
_cell_length_b                   14.386(3)
_cell_length_c                   10.127(2)
_cell_angle_alpha                90
_cell_angle_beta                 96.27(3)
_cell_angle_gamma                90
_cell_volume                     1956.17
loop_
_atom_site_label
_atom_site_type_symbol
_atom_site_fract_x
_atom_site_fract_y
_atom_site_fract_z
Cd1 Cd 0.34298(2) 0.42962(2) -0.00741(3)
N1 N 0.2069(3) 0.4276(3) 0.1176(4)
N2 N 0.2023(3) 0.3876(3) -0.1480(4)
N3 N 0.3903(3) 0.2773(3) 0.0413(4)
N4 N 0.3555(4) 0.2056(3) -0.0390(5)
N5 N 0.4057(4) 0.1315(3) -0.0095(4)
N6 N 0.4774(3) 0.1540(3) 0.0906(4)
N7 N 0.5225(4) 0.2901(4) 0.2137(5)
H1 H 0.503(5) 0.347(5) 0.237(6)
H2 H 0.572(5) 0.267(5) 0.263(6)
O1 O 0.4345(3) 0.0844(3) 0.3219(4)
O2 O 0.5553(3) -0.0220(2) 0.3296(3)
O3 O 0.3135(4) 0.5851(3) -0.0704(5)
H3 H 0.3570 0.6024 -0.1198
H4 H 0.3170 0.6194 -0.0016
C1 C 0.2095(5) 0.4477(4) 0.2449(6)
H5 H 0.2702 0.4638 0.2916
C2 C 0.1253(6) 0.4459(5) 0.3121(8)
H6 H 0.1294 0.4614 0.4017
C3 C 0.0370(6) 0.4210(5) 0.2451(9)
H7 H -0.0199 0.4190 0.2892
C4 C 0.0305(4) 0.3983(4) 0.1098(8)
C5 C -0.0596(5) 0.3722(5) 0.0328(10)
H8 H -0.1182 0.3691 0.0731
C6 C -0.0619(5) 0.3520(5) -0.0954(11)
H9 H -0.1221 0.3358 -0.1432
C7 C 0.0260(4) 0.3548(4) -0.1612(7)
C8 C 0.0271(6) 0.3341(5) -0.2958(9)
H10 H -0.0315 0.3175 -0.3471
C9 C 0.1127(7) 0.3382(5) -0.3507(7)
H11 H 0.1136 0.3229 -0.4397
C10 C 0.2006(5) 0.3653(4) -0.2753(6)
H12 H 0.2594 0.3678 -0.3153
C11 C 0.1193(4) 0.4041(3) 0.0483(6)
C12 C 0.1167(4) 0.3813(4) -0.0914(6)
C13 C 0.4652(4) 0.2438(3) 0.1213(5)
C14 C 0.5437(4) 0.0855(4) 0.1555(5)
H13 H 0.6087 0.1135 0.1780
H14 H 0.5513 0.0349 0.0941
C15 C 0.5070(4) 0.0464(3) 0.2813(5)
Cd1A Cd 0.65702(2) -0.07038(2) 0.50741(3)
Cd1C Cd 0.34298(2) 0.07038(2) 0.49259(3)
O1C O 0.4345(3) 0.4156(3) -0.1781(4)
O2A O 0.4447(3) 0.4780(2) 0.1704(3)
O4 O 0.6675(4) 0.4086(4) 0.3932(6)
O5 O 0.7007(4) 0.2491(4) 0.4032(6)
O6 O 0.7674(5) 0.3441(6) 0.5682(6)
O7 O 0.8217(6) 0.3502(6) 0.3666(11)
Cl1 Cl 0.74056(11) 0.33971(11) 0.43179(15)
loop_
_geom_bond_atom_site_label_1
_geom_bond_atom_site_label_2
_geom_bond_site_symmetry_1
_geom_bond_site_symmetry_2
Cd1 N1 1_555 1_555
N1 C1 1_555 1_555
N2 Cd1 1_555 1_555
N3 Cd1 1_555 1_555
N4 N3 1_555 1_555
N5 N4 1_555 1_555
N6 N5 1_555 1_555
N7 H1 1_555 1_555
H2 N7 1_555 1_555
O1 C15 1_555 1_555
O2 C15 1_555 1_555
O3 Cd1 1_555 1_555
H3 O3 1_555 1_555
H4 O3 1_555 1_555
O4 Cl1 1_555 1_555
O5 Cl1 1_555 1_555
O6 Cl1 1_555 1_555
O7 Cl1 1_555 1_555
C1 H5 1_555 1_555
C2 C1 1_555 1_555
H6 C2 1_555 1_555
C3 C2 1_555 1_555
H7 C3 1_555 1_555
C4 C3 1_555 1_555
C5 C4 1_555 1_555
H8 C5 1_555 1_555
C6 C5 1_555 1_555
H9 C6 1_555 1_555
C7 C6 1_555 1_555
C8 C7 1_555 1_555
H10 C8 1_555 1_555
C9 C8 1_555 1_555
H11 C9 1_555 1_555
C10 N2 1_555 1_555
H12 C10 1_555 1_555
C11 N1 1_555 1_555
C12 N2 1_555 1_555
C13 N3 1_555 1_555
C14 N6 1_555 1_555
H13 C14 1_555 1_555
H14 C14 1_555 1_555
C15 C14 1_555 1_555
Cd1A O2 1_555 1_555
Cd1C O1 1_555 1_555
O1C Cd1 1_555 1_555
O2A Cd1 1_555 1_555
N6 C13 1_555 1_555
N7 C13 1_555 1_555
C4 C11 1_555 1_555
C7 C12 1_555 1_555
C9 C10 1_555 1_555
C11 C12 1_555 1_555

#END
