
#######################################################################
#
#                 Cambridge Crystallographic Data Centre
#                                CCDC 
#
#######################################################################
#
# If this CIF has been generated from an entry in the Cambridge 
# Structural Database, then it will include bibliographic, chemical, 
# crystal, experimental, refinement or atomic coordinate data resulting 
# from the CCDC's data processing and validation procedures.
#
#######################################################################

data_TEBHUF
_symmetry_cell_setting           triclinic
_symmetry_space_group_name_H-M   'P -1'
_symmetry_Int_Tables_number      2
_space_group_name_Hall           '-P 1'
loop_
_symmetry_equiv_pos_site_id
_symmetry_equiv_pos_as_xyz
1 x,y,z
2 -x,-y,-z
_cell_length_a                   8.4890(17)
_cell_length_b                   12.471(3)
_cell_length_c                   14.604(3)
_cell_angle_alpha                67.04(3)
_cell_angle_beta                 74.08(3)
_cell_angle_gamma                85.80(3)
_cell_volume                     1367.99
loop_
_atom_site_label
_atom_site_type_symbol
_atom_site_fract_x
_atom_site_fract_y
_atom_site_fract_z
C1 C -0.0559(6) 0.1527(5) 0.6602(4)
H1 H -0.1135 0.1053 0.6437
C2 C -0.1382(5) 0.1932(5) 0.7361(4)
H2 H -0.2485 0.1730 0.7692
C3 C -0.0572(2) 0.26233(16) 0.76160(15)
H3 H -0.1107 0.2897 0.8125
C4 C 0.1158(2) 0.29315(16) 0.70774(15)
C5 C 0.1883(2) 0.24838(16) 0.63320(15)
C6 C 0.3535(2) 0.27250(16) 0.58138(15)
C7 C 0.5841(2) 0.24630(16) 0.46058(15)
H4 H 0.6306 0.2136 0.4124
C8 C 0.6855(5) 0.3148(4) 0.4781(4)
H5 H 0.7958 0.3269 0.4420
C9 C 0.6224(3) 0.36438(18) 0.54830(17)
H6 H 0.6883 0.4109 0.5605
C10 C 0.4492(3) 0.34245(18) 0.60367(17)
C11 C 0.3767(3) 0.38722(18) 0.67821(17)
C12 C 0.2115(3) 0.36310(18) 0.73002(17)
C13 C 0.3031(5) 0.4666(4) 0.7935(3)
C14 C 0.3217(5) 0.5308(4) 0.8568(3)
C15 C 0.2134(6) 0.5062(4) 0.9532(3)
H7 H 0.1297 0.4499 0.9772
C16 C 0.2280(6) 0.5643(4) 1.0145(4)
H8 H 0.1555 0.5481 1.0793
C17 C 0.3533(6) 0.6466(5) 0.9761(4)
C18 C 0.4588(6) 0.6754(4) 0.8804(4)
H9 H 0.5401 0.7334 0.8561
C19 C 0.4433(5) 0.6170(4) 0.8197(4)
H10 H 0.5144 0.6356 0.7541
C20 C 0.0832(5) 0.2062(4) 0.3425(3)
C21 C 0.0213(6) 0.2822(4) 0.2516(3)
H11 H 0.0995 0.3467 0.2078
H12 H -0.0815 0.3143 0.2763
C22 C -0.0057(6) 0.2167(4) 0.1867(4)
H13 H -0.0708 0.1457 0.2322
H14 H -0.0672 0.2647 0.1393
C23 C 0.1537(6) 0.1857(4) 0.1257(4)
H15 H 0.2116 0.1328 0.1733
H16 H 0.2224 0.2558 0.0839
C24 C 0.1255(6) 0.1286(5) 0.0558(4)
H17 H 0.0734 0.0521 0.0985
H18 H 0.0507 0.1749 0.0174
C25 C 0.2820(6) 0.1156(5) -0.0202(4)
H19 H 0.3288 0.1924 -0.0674
H20 H 0.3609 0.0753 0.0175
C26 C 0.2529(6) 0.0489(5) -0.0818(4)
H21 H 0.1635 0.0835 -0.1118
H22 H 0.2185 -0.0306 -0.0349
C27 C 0.4003(5) 0.0461(4) -0.1677(4)
H23 H 0.4891 0.0087 -0.1382
H24 H 0.4370 0.1253 -0.2144
C28 C 0.3604(5) -0.0194(4) -0.2283(3)
H25 H 0.3221 -0.0979 -0.1804
H26 H 0.2704 0.0183 -0.2564
C29 C 0.4983(5) -0.0277(4) -0.3157(3)
N1 N 0.1010(4) 0.1787(3) 0.6104(3)
N2 N 0.4252(4) 0.2251(3) 0.5085(3)
N3 N 0.4319(4) 0.4523(3) 0.7198(3)
H27 H 0.5305 0.4796 0.7027
N4 N 0.1659(4) 0.4144(3) 0.8031(3)
O1 O 0.2084(4) 0.2409(3) 0.3558(2)
O2 O 0.0113(4) 0.1111(3) 0.4026(3)
O4 O 0.6413(4) -0.0004(3) -0.3263(3)
O6 O 0.4603(4) -0.0673(3) -0.3752(2)
F1 F 0.3674(4) 0.7039(3) 1.0362(3)
Pb1 Pb 0.258127(18) 0.062066(14) 0.491460(12)
C1A C 0.0559(6) -0.1527(5) 0.3398(4)
H1A H 0.1135 -0.1053 0.3563
C2A C 0.1382(5) -0.1932(5) 0.2639(4)
H2A H 0.2485 -0.1730 0.2308
C3A C 0.0572(2) -0.26233(16) 0.23840(15)
H3A H 0.1107 -0.2897 0.1875
C4A C -0.1158(2) -0.29315(16) 0.29226(15)
C5A C -0.1883(2) -0.24838(16) 0.36680(15)
C6A C -0.3535(2) -0.27250(16) 0.41862(15)
C7A C -0.5841(2) -0.24630(16) 0.53942(15)
H4A H -0.6306 -0.2136 0.5876
C8A C -0.6855(5) -0.3148(4) 0.5219(4)
H5A H -0.7958 -0.3269 0.5580
C9A C -0.6224(3) -0.36438(18) 0.45170(17)
H6A H -0.6883 -0.4109 0.4395
C10A C -0.4492(3) -0.34245(18) 0.39633(17)
C11A C -0.3767(3) -0.38722(18) 0.32179(17)
C12A C -0.2115(3) -0.36310(18) 0.26998(17)
C13A C -0.3031(5) -0.4666(4) 0.2065(3)
C14A C -0.3217(5) -0.5308(4) 0.1432(3)
C15A C -0.2134(6) -0.5062(4) 0.0468(3)
H7A H -0.1297 -0.4499 0.0228
C16A C -0.2280(6) -0.5643(4) -0.0145(4)
H8A H -0.1555 -0.5481 -0.0793
C17A C -0.3533(6) -0.6466(5) 0.0239(4)
C18A C -0.4588(6) -0.6754(4) 0.1196(4)
H9A H -0.5401 -0.7334 0.1439
C19A C -0.4433(5) -0.6170(4) 0.1803(4)
H10A H -0.5144 -0.6356 0.2459
C20A C -0.0832(5) -0.2062(4) 0.6575(3)
C21A C -0.0213(6) -0.2822(4) 0.7484(3)
H11A H -0.0995 -0.3467 0.7922
H12A H 0.0815 -0.3143 0.7237
C22A C 0.0057(6) -0.2167(4) 0.8133(4)
H13A H 0.0708 -0.1457 0.7678
H14A H 0.0672 -0.2647 0.8607
C23A C -0.1537(6) -0.1857(4) 0.8743(4)
H15A H -0.2116 -0.1328 0.8267
H16A H -0.2224 -0.2558 0.9161
C24A C -0.1255(6) -0.1286(5) 0.9442(4)
H17A H -0.0734 -0.0521 0.9015
H18A H -0.0507 -0.1749 0.9826
C25A C -0.2820(6) -0.1156(5) 1.0202(4)
H19A H -0.3288 -0.1924 1.0674
H20A H -0.3609 -0.0753 0.9825
C26A C -0.2529(6) -0.0489(5) 1.0818(4)
H21A H -0.1635 -0.0835 1.1118
H22A H -0.2185 0.0306 1.0349
C27A C -0.4003(5) -0.0461(4) 1.1677(4)
H23A H -0.4891 -0.0087 1.1382
H24A H -0.4370 -0.1253 1.2144
C28A C -0.3604(5) 0.0194(4) 1.2283(3)
H25A H -0.3221 0.0979 1.1804
H26A H -0.2704 -0.0183 1.2564
C29A C -0.4983(5) 0.0277(4) 1.3157(3)
N1A N -0.1010(4) -0.1787(3) 0.3896(3)
N2A N -0.4252(4) -0.2251(3) 0.4915(3)
N3A N -0.4319(4) -0.4523(3) 0.2802(3)
H27A H -0.5305 -0.4796 0.2973
N4A N -0.1659(4) -0.4144(3) 0.1969(3)
O1A O -0.2084(4) -0.2409(3) 0.6442(2)
O2A O -0.0113(4) -0.1111(3) 0.5974(3)
O4A O -0.6413(4) 0.0004(3) 1.3263(3)
O4A_2 O 0.3587(4) 0.0004(3) 0.3263(3)
O4_2 O -0.3587(4) -0.0004(3) 0.6737(3)
O6A O -0.4603(4) 0.0673(3) 1.3752(2)
O6_2 O 0.4603(4) -0.0673(3) 0.6248(2)
O6A_2 O 0.5397(4) 0.0673(3) 0.3752(2)
O6A_3 O -0.4603(4) 0.0673(3) 0.3752(2)
O6_3 O -0.5397(4) -0.0673(3) 0.6248(2)
F1A F -0.3674(4) -0.7039(3) -0.0362(3)
Pb1A Pb -0.258127(18) -0.062066(14) 0.508540(12)
Pb1A_2 Pb 0.741873(18) -0.062066(14) -0.491460(12)
Pb1_2 Pb 0.258127(18) 0.062066(14) -0.508540(12)
Pb1_3 Pb -0.741873(18) 0.062066(14) 1.491460(12)
Pb1A_3 Pb -0.258127(18) -0.062066(14) 1.508540(12)
O3 O 0.2323(5) 0.4655(4) 0.3396(5)
H28 H 0.223(10) 0.406(7) 0.340(7)
H29 H 0.148(10) 0.497(7) 0.349(7)
O5 O 0.0000 0.5000 0.5000
loop_
_geom_bond_atom_site_label_1
_geom_bond_atom_site_label_2
_geom_bond_site_symmetry_1
_geom_bond_site_symmetry_2
C1 H1 1_555 1_555
C2 C1 1_555 1_555
H2 C2 1_555 1_555
C3 C2 1_555 1_555
H3 C3 1_555 1_555
C4 C3 1_555 1_555
C5 C4 1_555 1_555
C6 C5 1_555 1_555
C7 H4 1_555 1_555
C8 C7 1_555 1_555
H5 C8 1_555 1_555
C9 C8 1_555 1_555
H6 C9 1_555 1_555
C10 C6 1_555 1_555
C11 C10 1_555 1_555
C12 C4 1_555 1_555
C13 C14 1_555 1_555
C14 C15 1_555 1_555
C15 H7 1_555 1_555
C16 C15 1_555 1_555
H8 C16 1_555 1_555
C17 C16 1_555 1_555
C18 C17 1_555 1_555
H9 C18 1_555 1_555
C19 C14 1_555 1_555
H10 C19 1_555 1_555
C20 C21 1_555 1_555
C21 H11 1_555 1_555
H12 C21 1_555 1_555
C22 C21 1_555 1_555
H13 C22 1_555 1_555
H14 C22 1_555 1_555
C23 C22 1_555 1_555
H15 C23 1_555 1_555
H16 C23 1_555 1_555
C24 C23 1_555 1_555
H17 C24 1_555 1_555
H18 C24 1_555 1_555
C25 C24 1_555 1_555
H19 C25 1_555 1_555
H20 C25 1_555 1_555
C26 C25 1_555 1_555
H21 C26 1_555 1_555
H22 C26 1_555 1_555
C27 C26 1_555 1_555
H23 C27 1_555 1_555
H24 C27 1_555 1_555
C28 C27 1_555 1_555
H25 C28 1_555 1_555
H26 C28 1_555 1_555
C29 C28 1_555 1_555
N1 C1 1_555 1_555
N2 C6 1_555 1_555
N3 C11 1_555 1_555
H27 N3 1_555 1_555
N4 C12 1_555 1_555
O1 C20 1_555 1_555
O2 C20 1_555 1_555
O3 H28 1_555 1_555
H29 O3 1_555 1_555
O4 C29 1_555 1_555
O6 C29 1_555 1_555
F1 C17 1_555 1_555
Pb1 N1 1_555 1_555
C1A H1A 1_555 1_555
C2A C1A 1_555 1_555
H2A C2A 1_555 1_555
C3A C2A 1_555 1_555
H3A C3A 1_555 1_555
C4A C3A 1_555 1_555
C5A C4A 1_555 1_555
C6A C5A 1_555 1_555
C7A H4A 1_555 1_555
C8A C7A 1_555 1_555
H5A C8A 1_555 1_555
C9A C8A 1_555 1_555
H6A C9A 1_555 1_555
C10A C6A 1_555 1_555
C11A C10A 1_555 1_555
C12A C4A 1_555 1_555
C13A C14A 1_555 1_555
C14A C15A 1_555 1_555
C15A H7A 1_555 1_555
C16A C15A 1_555 1_555
H8A C16A 1_555 1_555
C17A C16A 1_555 1_555
C18A C17A 1_555 1_555
H9A C18A 1_555 1_555
C19A C14A 1_555 1_555
H10A C19A 1_555 1_555
C20A C21A 1_555 1_555
C21A H11A 1_555 1_555
H12A C21A 1_555 1_555
C22A C21A 1_555 1_555
H13A C22A 1_555 1_555
H14A C22A 1_555 1_555
C23A C22A 1_555 1_555
H15A C23A 1_555 1_555
H16A C23A 1_555 1_555
C24A C23A 1_555 1_555
H17A C24A 1_555 1_555
H18A C24A 1_555 1_555
C25A C24A 1_555 1_555
H19A C25A 1_555 1_555
H20A C25A 1_555 1_555
C26A C25A 1_555 1_555
H21A C26A 1_555 1_555
H22A C26A 1_555 1_555
C27A C26A 1_555 1_555
H23A C27A 1_555 1_555
H24A C27A 1_555 1_555
C28A C27A 1_555 1_555
H25A C28A 1_555 1_555
H26A C28A 1_555 1_555
C29A C28A 1_555 1_555
N1A C1A 1_555 1_555
N2A C6A 1_555 1_555
N3A C11A 1_555 1_555
H27A N3A 1_555 1_555
N4A C12A 1_555 1_555
O1A C20A 1_555 1_555
O2A Pb1 1_555 1_555
O4A C29A 1_555 1_555
O4A_2 Pb1 1_555 1_555
O4_2 Pb1A 1_555 1_555
O6A C29A 1_555 1_555
O6_2 Pb1 1_555 1_555
O6A_2 Pb1 1_555 1_555
O6A_3 Pb1A 1_555 1_555
O6_3 Pb1A 1_555 1_555
F1A C17A 1_555 1_555
Pb1A O2 1_555 1_555
Pb1A_2 O4 1_555 1_555
Pb1_2 O6 1_555 1_555
Pb1_3 O4A 1_555 1_555
Pb1A_3 O6A 1_555 1_555
C5 N1 1_555 1_555
C7 N2 1_555 1_555
C9 C10 1_555 1_555
C11 C12 1_555 1_555
C13 N3 1_555 1_555
C13 N4 1_555 1_555
C18 C19 1_555 1_555
N2 Pb1 1_555 1_555
O1 Pb1 1_555 1_555
O2 Pb1 1_555 1_555
O6 Pb1A_2 1_555 1_555
C5A N1A 1_555 1_555
C7A N2A 1_555 1_555
C9A C10A 1_555 1_555
C11A C12A 1_555 1_555
C13A N3A 1_555 1_555
C13A N4A 1_555 1_555
C18A C19A 1_555 1_555
C20A O2A 1_555 1_555
N1A Pb1A 1_555 1_555
N2A Pb1A 1_555 1_555
O1A Pb1A 1_555 1_555
O2A Pb1A 1_555 1_555
O6A Pb1_3 1_555 1_555

#END
