
#######################################################################
#
#                 Cambridge Crystallographic Data Centre
#                                CCDC 
#
#######################################################################
#
# If this CIF has been generated from an entry in the Cambridge 
# Structural Database, then it will include bibliographic, chemical, 
# crystal, experimental, refinement or atomic coordinate data resulting 
# from the CCDC's data processing and validation procedures.
#
#######################################################################

data_TEBHEP
_symmetry_cell_setting           monoclinic
_symmetry_space_group_name_H-M   'P 21/c'
_symmetry_Int_Tables_number      14
_space_group_name_Hall           '-P 2ybc'
loop_
_symmetry_equiv_pos_site_id
_symmetry_equiv_pos_as_xyz
1 x,y,z
2 -x,1/2+y,1/2-z
3 -x,-y,-z
4 x,1/2-y,1/2+z
_cell_length_a                   15.839(3)
_cell_length_b                   10.355(2)
_cell_length_c                   13.789(3)
_cell_angle_alpha                90
_cell_angle_beta                 109.74(3)
_cell_angle_gamma                90
_cell_volume                     2128.67
loop_
_atom_site_label
_atom_site_type_symbol
_atom_site_fract_x
_atom_site_fract_y
_atom_site_fract_z
Cd1 Cd 0.25692(5) 0.43538(8) 0.27762(6)
O1 O 0.2236(5) 0.2766(8) 0.3795(6)
O2 O 0.1827(6) 0.2162(10) 0.2187(6)
O3 O 0.1769(5) 0.5597(9) 0.3403(6)
O4 O 0.0514(5) 0.5173(11) 0.2104(7)
N1 N 0.2391(5) 0.0469(10) 0.6098(6)
N2 N 0.3124(6) 0.0145(10) 0.5860(6)
N3 N 0.2937(5) 0.0105(11) 0.4879(7)
N4 N 0.2035(5) 0.0383(9) 0.4454(6)
N5 N 0.0888(5) 0.0970(10) 0.5103(7)
H3 H 0.0731 0.1095 0.5634
H4 H 0.0501 0.1058 0.4494
N6 N 0.0926(6) 0.6489(13) 0.4647(7)
N7 N 0.1119(9) 0.7678(14) 0.5038(10)
N8 N 0.1539(10) 0.7541(15) 0.6022(11)
N9 N 0.1668(7) 0.6271(14) 0.6251(8)
N10 N 0.1237(7) 0.4338(12) 0.5285(8)
H5 H 0.1485 0.3852 0.5810
H6 H 0.0965 0.3999 0.4692
N11 N 0.3607(5) 0.6071(10) 0.3275(6)
N12 N 0.4041(5) 0.3502(9) 0.3283(6)
C1 C 0.1928(7) 0.1939(14) 0.3115(8)
C2 C 0.1666(7) 0.0625(10) 0.3370(7)
H7 H 0.1017 0.0564 0.3148
H8 H 0.1880 -0.0024 0.3001
C3 C 0.1721(6) 0.0643(10) 0.5219(7)
C4 C 0.0947(8) 0.5647(13) 0.2981(9)
C5 C 0.0400(8) 0.6288(19) 0.3571(9)
H9 H 0.0177 0.7113 0.3254
H10 H -0.0113 0.5749 0.3524
C6 C 0.1274(7) 0.5598(18) 0.5389(8)
C7 C 0.3406(7) 0.7290(13) 0.3290(8)
H11 H 0.2805 0.7522 0.3095
C8 C 0.4048(7) 0.8254(11) 0.3583(8)
H12 H 0.3872 0.9114 0.3553
C9 C 0.4918(8) 0.7951(13) 0.3909(8)
H13 H 0.5352 0.8594 0.4124
C10 C 0.6093(7) 0.6229(14) 0.4267(8)
H14 H 0.6554 0.6830 0.4497
C11 C 0.6290(7) 0.4978(14) 0.4257(8)
H15 H 0.6888 0.4727 0.4468
C12 C 0.5819(8) 0.2746(15) 0.3907(9)
H16 H 0.6414 0.2477 0.4104
C13 C 0.5142(9) 0.1877(13) 0.3589(8)
H17 H 0.5276 0.1004 0.3576
C14 C 0.4238(8) 0.2272(12) 0.3276(8)
H18 H 0.3782 0.1661 0.3064
C15 C 0.5169(7) 0.6663(12) 0.3923(7)
C16 C 0.5616(7) 0.4025(13) 0.3934(7)
C17 C 0.4709(6) 0.4385(11) 0.3598(7)
C18 C 0.4492(6) 0.5730(11) 0.3602(7)
Cd1C Cd 0.25692(5) 0.06462(8) 0.77762(6)
N1C N 0.2391(5) 0.4531(10) 0.1098(6)
O5 O 0.0077(5) 0.3132(11) 0.3193(7)
H1 H 0.0447 0.3031 0.3799
H2 H 0.0455 0.3363 0.2910
loop_
_geom_bond_atom_site_label_1
_geom_bond_atom_site_label_2
_geom_bond_site_symmetry_1
_geom_bond_site_symmetry_2
Cd1 O1 1_555 1_555
O1 C1 1_555 1_555
O2 Cd1 1_555 1_555
O3 Cd1 1_555 1_555
O4 C4 1_555 1_555
O5 H1 1_555 1_555
H2 O5 1_555 1_555
N1 N2 1_555 1_555
N2 N3 1_555 1_555
N3 N4 1_555 1_555
N4 C2 1_555 1_555
N5 H3 1_555 1_555
H4 N5 1_555 1_555
N6 N7 1_555 1_555
N7 N8 1_555 1_555
N8 N9 1_555 1_555
N9 C6 1_555 1_555
N10 H5 1_555 1_555
H6 N10 1_555 1_555
N11 Cd1 1_555 1_555
N12 Cd1 1_555 1_555
C1 O2 1_555 1_555
C2 C1 1_555 1_555
H7 C2 1_555 1_555
H8 C2 1_555 1_555
C3 N1 1_555 1_555
C4 O3 1_555 1_555
C5 N6 1_555 1_555
H9 C5 1_555 1_555
H10 C5 1_555 1_555
C6 N6 1_555 1_555
C7 N11 1_555 1_555
H11 C7 1_555 1_555
C8 C7 1_555 1_555
H12 C8 1_555 1_555
C9 C8 1_555 1_555
H13 C9 1_555 1_555
C10 H14 1_555 1_555
C11 C10 1_555 1_555
H15 C11 1_555 1_555
C12 H16 1_555 1_555
C13 C12 1_555 1_555
H17 C13 1_555 1_555
C14 N12 1_555 1_555
H18 C14 1_555 1_555
C15 C9 1_555 1_555
C16 C11 1_555 1_555
C17 N12 1_555 1_555
C18 N11 1_555 1_555
Cd1C N1 1_555 1_555
N1C Cd1 1_555 1_555
N4 C3 1_555 1_555
N5 C3 1_555 1_555
N10 C6 1_555 1_555
C4 C5 1_555 1_555
C10 C15 1_555 1_555
C12 C16 1_555 1_555
C13 C14 1_555 1_555
C15 C18 1_555 1_555
C16 C17 1_555 1_555
C17 C18 1_555 1_555

#END
