
#######################################################################
#
#                 Cambridge Crystallographic Data Centre
#                                CCDC 
#
#######################################################################
#
# If this CIF has been generated from an entry in the Cambridge 
# Structural Database, then it will include bibliographic, chemical, 
# crystal, experimental, refinement or atomic coordinate data resulting 
# from the CCDC's data processing and validation procedures.
#
#######################################################################

data_TEBHIT
_symmetry_cell_setting           monoclinic
_symmetry_space_group_name_H-M   'P 21/c'
_symmetry_Int_Tables_number      14
_space_group_name_Hall           '-P 2ybc'
loop_
_symmetry_equiv_pos_site_id
_symmetry_equiv_pos_as_xyz
1 x,y,z
2 -x,1/2+y,1/2-z
3 -x,-y,-z
4 x,1/2-y,1/2+z
_cell_length_a                   12.504(3)
_cell_length_b                   14.188(3)
_cell_length_c                   10.531(2)
_cell_angle_alpha                90
_cell_angle_beta                 92.70(3)
_cell_angle_gamma                90
_cell_volume                     1866.2
loop_
_atom_site_label
_atom_site_type_symbol
_atom_site_fract_x
_atom_site_fract_y
_atom_site_fract_z
Cd1 Cd 0.171659(18) 0.067800(16) 0.99651(2)
N1 N 0.3270(2) 0.1098(2) 1.1143(3)
N2 N 0.3147(3) 0.0707(2) 0.8625(3)
N3 N 0.1255(2) 0.2233(2) 0.9518(3)
N4 N 0.1597(3) 0.2962(2) 1.0279(3)
N5 N 0.1094(3) 0.3723(2) 0.9975(3)
N6 N 0.0391(2) 0.3498(2) 0.8999(3)
N7 N -0.0070(3) 0.2112(3) 0.7847(4)
H1 H 0.007(4) 0.154(3) 0.768(4)
H2 H -0.046(4) 0.241(3) 0.727(4)
O1 O -0.0625(2) 0.51646(18) 0.6678(2)
O2 O 0.0726(2) 0.4143(2) 0.6660(3)
O3 O 0.2089(3) -0.0880(2) 1.0594(3)
H3 H 0.1606 -0.1242 1.0278
H4 H 0.2099 -0.0915 1.1401
C1 C 0.3276(4) 0.1298(3) 1.2385(4)
H5 H 0.2645 0.1239 1.2813
C2 C 0.4200(4) 0.1590(3) 1.3050(5)
H6 H 0.4191 0.1730 1.3912
C3 C 0.5123(4) 0.1667(3) 1.2415(5)
H7 H 0.5752 0.1857 1.2846
C4 C 0.5122(3) 0.1466(3) 1.1152(5)
H8 H 0.5749 0.1518 1.0716
C5 C 0.4177(3) 0.1181(2) 1.0517(4)
C6 C 0.4118(3) 0.0959(3) 0.9138(4)
C7 C 0.4988(3) 0.1006(3) 0.8378(5)
H9 H 0.5658 0.1171 0.8730
C8 C 0.4862(4) 0.0806(3) 0.7087(5)
H10 H 0.5444 0.0838 0.6571
C9 C 0.3883(4) 0.0564(3) 0.6591(5)
H11 H 0.3782 0.0426 0.5730
C10 C 0.3042(4) 0.0525(3) 0.7378(4)
H12 H 0.2369 0.0364 0.7031
C11 C 0.0504(3) 0.2585(2) 0.8731(3)
C12 C -0.0359(3) 0.4176(3) 0.8429(4)
H13 H -0.0405 0.4714 0.8993
H14 H -0.1063 0.3889 0.8347
C13 C -0.0051(3) 0.4522(2) 0.7128(3)
Cd1A Cd -0.171659(18) 0.567800(16) 0.50349(2)
Cd1C Cd 0.171659(18) 0.432200(16) 0.49651(2)
O1A O 0.0625(2) 0.01646(18) 0.8322(2)
O2C O 0.0726(2) 0.0857(2) 1.1660(3)
O4 O 0.7245(4) 0.1998(6) 0.7032(4)
O5 O 0.8474(3) 0.2381(3) 0.5577(4)
O6 O 0.8242(6) 0.0890(3) 0.6227(7)
O7 O 0.6896(4) 0.1649(5) 0.4957(4)
Cl1 Cl 0.76851(8) 0.17265(8) 0.59231(9)
loop_
_geom_bond_atom_site_label_1
_geom_bond_atom_site_label_2
_geom_bond_site_symmetry_1
_geom_bond_site_symmetry_2
Cd1 N1 1_555 1_555
N1 C1 1_555 1_555
N2 Cd1 1_555 1_555
N3 Cd1 1_555 1_555
N4 N3 1_555 1_555
N5 N4 1_555 1_555
N6 N5 1_555 1_555
N7 H1 1_555 1_555
H2 N7 1_555 1_555
O1 C13 1_555 1_555
O2 C13 1_555 1_555
O3 Cd1 1_555 1_555
H3 O3 1_555 1_555
H4 O3 1_555 1_555
O4 Cl1 1_555 1_555
O5 Cl1 1_555 1_555
O6 Cl1 1_555 1_555
O7 Cl1 1_555 1_555
C1 H5 1_555 1_555
C2 C1 1_555 1_555
H6 C2 1_555 1_555
C3 C2 1_555 1_555
H7 C3 1_555 1_555
C4 C3 1_555 1_555
H8 C4 1_555 1_555
C5 N1 1_555 1_555
C6 N2 1_555 1_555
C7 C6 1_555 1_555
H9 C7 1_555 1_555
C8 C7 1_555 1_555
H10 C8 1_555 1_555
C9 C8 1_555 1_555
H11 C9 1_555 1_555
C10 N2 1_555 1_555
H12 C10 1_555 1_555
C11 N3 1_555 1_555
C12 N6 1_555 1_555
H13 C12 1_555 1_555
H14 C12 1_555 1_555
C13 C12 1_555 1_555
Cd1A O1 1_555 1_555
Cd1C O2 1_555 1_555
O1A Cd1 1_555 1_555
O2C Cd1 1_555 1_555
N6 C11 1_555 1_555
N7 C11 1_555 1_555
C4 C5 1_555 1_555
C5 C6 1_555 1_555
C9 C10 1_555 1_555

#END
