
#######################################################################
#
#                 Cambridge Crystallographic Data Centre
#                                CCDC 
#
#######################################################################
#
# If this CIF has been generated from an entry in the Cambridge 
# Structural Database, then it will include bibliographic, chemical, 
# crystal, experimental, refinement or atomic coordinate data resulting 
# from the CCDC's data processing and validation procedures.
#
#######################################################################

data_TEBNAQ
_symmetry_cell_setting           orthorhombic
_symmetry_space_group_name_H-M   'P c c n'
_symmetry_Int_Tables_number      56
_space_group_name_Hall           '-P 2ab 2ac'
loop_
_symmetry_equiv_pos_site_id
_symmetry_equiv_pos_as_xyz
1 x,y,z
2 1/2-x,1/2-y,z
3 1/2+x,-y,1/2-z
4 -x,1/2+y,1/2-z
5 -x,-y,-z
6 1/2+x,1/2+y,-z
7 1/2-x,y,1/2+z
8 x,1/2-y,1/2+z
_cell_length_a                   22.613(3)
_cell_length_b                   10.602(1)
_cell_length_c                   14.152(2)
_cell_angle_alpha                90
_cell_angle_beta                 90
_cell_angle_gamma                90
_cell_volume                     3392.84
loop_
_atom_site_label
_atom_site_type_symbol
_atom_site_fract_x
_atom_site_fract_y
_atom_site_fract_z
Li1 Li 0.6173(2) 0.3826(4) 0.2624(3)
S1 S 0.6671(1) 0.1814(1) 0.2030(1)
S2 S 0.5846(1) 0.1831(1) 0.3674(1)
C1 C 0.5707(1) -0.0934(2) 0.3233(2)
C2 C 0.4684(1) -0.1805(3) 0.3909(2)
N1 N 0.6616(1) 0.4823(2) 0.3782(2)
N2 N 0.6522(1) 0.5361(2) 0.1762(2)
C3 C 0.6260(1) 0.1090(2) 0.2863(2)
C4 C 0.6275(1) -0.0352(2) 0.2887(2)
N3 N 0.5720(1) -0.1517(2) 0.4069(2)
C5 C 0.5205(1) -0.1951(2) 0.4398(2)
N4 N 0.5333(1) 0.3732(2) 0.1949(2)
C6 C 0.5182(1) -0.0836(2) 0.2710(2)
C7 C 0.5166(1) -0.0252(3) 0.1746(2)
C8 C 0.6839(1) 0.6006(3) 0.3370(2)
C9 C 0.7012(1) 0.5840(3) 0.2343(2)
C10 C 0.6304(1) 0.5089(3) 0.4664(2)
C11 C 0.7109(1) 0.3955(3) 0.3983(2)
C12 C 0.6071(1) 0.6335(3) 0.1621(2)
C13 C 0.6753(2) 0.4976(3) 0.0835(2)
H1 H 0.4325(1) -0.2093(3) 0.4186(2)
H2 H 0.6359(1) -0.0669(2) 0.2243(2)
H3 H 0.6603(1) -0.0627(2) 0.3303(2)
H4 H 0.5198(1) -0.2374(2) 0.4990(2)
H5 H 0.4807(4) -0.0525(13) 0.1415(5)
H6 H 0.5515(4) -0.0517(13) 0.1387(5)
H7 H 0.5164(8) 0.0669(3) 0.1806(2)
H8 H 0.7187(1) 0.6296(3) 0.3734(2)
H9 H 0.6529(1) 0.6664(3) 0.3418(2)
H10 H 0.7145(1) 0.6661(3) 0.2087(2)
H11 H 0.7348(1) 0.5245(3) 0.2303(2)
H12 H 0.6580(2) 0.5461(16) 0.5120(5)
H13 H 0.6143(7) 0.4303(4) 0.4921(7)
H14 H 0.5980(5) 0.5682(14) 0.4542(3)
H15 H 0.7385(4) 0.4359(7) 0.4422(10)
H16 H 0.7315(5) 0.3751(13) 0.3393(3)
H17 H 0.6954(2) 0.3180(7) 0.4267(11)
H18 H 0.6252(2) 0.7081(7) 0.1331(12)
H19 H 0.5898(6) 0.6567(12) 0.2232(3)
H20 H 0.5760(4) 0.6010(6) 0.1205(10)
H21 H 0.6935(7) 0.5704(5) 0.0522(6)
H22 H 0.6428(2) 0.4654(16) 0.0445(5)
H23 H 0.7050(6) 0.4313(13) 0.0921(2)
N4C N 0.4667(1) -0.1268(2) 0.3051(2)
Li1C Li 0.3827(2) -0.1174(4) 0.2376(3)
loop_
_geom_bond_atom_site_label_1
_geom_bond_atom_site_label_2
_geom_bond_site_symmetry_1
_geom_bond_site_symmetry_2
Li1 S1 1_555 1_555
S1 C3 1_555 1_555
S2 Li1 1_555 1_555
C1 C4 1_555 1_555
C2 C5 1_555 1_555
N1 Li1 1_555 1_555
N2 Li1 1_555 1_555
C3 S2 1_555 1_555
C4 C3 1_555 1_555
N3 C1 1_555 1_555
C5 N3 1_555 1_555
N4 Li1 1_555 1_555
C6 C1 1_555 1_555
C7 C6 1_555 1_555
C8 N1 1_555 1_555
C9 N2 1_555 1_555
C10 N1 1_555 1_555
C11 N1 1_555 1_555
C12 N2 1_555 1_555
C13 N2 1_555 1_555
H1 C2 1_555 1_555
H2 C4 1_555 1_555
H3 C4 1_555 1_555
H4 C5 1_555 1_555
H5 C7 1_555 1_555
H6 C7 1_555 1_555
H7 C7 1_555 1_555
H8 C8 1_555 1_555
H9 C8 1_555 1_555
H10 C9 1_555 1_555
H11 C9 1_555 1_555
H12 C10 1_555 1_555
H13 C10 1_555 1_555
H14 C10 1_555 1_555
H15 C11 1_555 1_555
H16 C11 1_555 1_555
H17 C11 1_555 1_555
H18 C12 1_555 1_555
H19 C12 1_555 1_555
H20 C12 1_555 1_555
H21 C13 1_555 1_555
H22 C13 1_555 1_555
H23 C13 1_555 1_555
N4C C2 1_555 1_555
Li1C N4C 1_555 1_555
C6 N4C 1_555 1_555
C8 C9 1_555 1_555

#END
