
#######################################################################
#
#                 Cambridge Crystallographic Data Centre
#                                CCDC 
#
#######################################################################
#
# If this CIF has been generated from an entry in the Cambridge 
# Structural Database, then it will include bibliographic, chemical, 
# crystal, experimental, refinement or atomic coordinate data resulting 
# from the CCDC's data processing and validation procedures.
#
#######################################################################

data_TEBQUO
_symmetry_cell_setting           monoclinic
_symmetry_space_group_name_H-M   'P 21/c'
_symmetry_Int_Tables_number      14
_space_group_name_Hall           '-P 2ybc'
loop_
_symmetry_equiv_pos_site_id
_symmetry_equiv_pos_as_xyz
1 x,y,z
2 -x,1/2+y,1/2-z
3 -x,-y,-z
4 x,1/2-y,1/2+z
_cell_length_a                   14.6335(7)
_cell_length_b                   12.8771(6)
_cell_length_c                   20.7096(9)
_cell_angle_alpha                90
_cell_angle_beta                 100.7900(10)
_cell_angle_gamma                90
_cell_volume                     3833.46
loop_
_atom_site_label
_atom_site_type_symbol
_atom_site_fract_x
_atom_site_fract_y
_atom_site_fract_z
Ag1 Ag 0.292943(15) 0.143599(18) 0.159089(11)
Ag2 Ag 0.214710(16) -0.431150(18) 0.183070(10)
N1 N 0.15105(14) 0.14971(16) 0.19626(10)
N2 N 0.04071(16) -0.29581(18) 0.01587(11)
N3 N 0.40896(15) 0.54169(17) 0.36490(10)
N4 N 0.19424(15) 0.03690(17) -0.04240(11)
N5 N 0.14982(16) -0.37326(17) 0.08858(11)
N6 N 0.30739(16) 0.59258(18) 0.27723(11)
C1 C 0.12012(17) 0.24182(19) 0.21284(12)
C2 C 0.04085(19) 0.2499(2) 0.24091(14)
H1 H 0.0207 0.3144 0.2529
C3 C 0.06741(18) -0.3825(2) -0.01520(13)
C4 C 0.1725(2) 0.3396(2) 0.20014(13)
C5 C 0.02375(18) 0.0668(2) 0.23196(12)
H2 H -0.0085 0.0062 0.2374
C6 C 0.30241(18) 0.6609(2) 0.32820(13)
C7 C 0.10346(17) 0.06346(19) 0.20505(12)
C8 C 0.51268(19) 0.3909(2) 0.37135(14)
H3 H 0.4703 0.3373 0.3594
C9 C 0.3710(2) 0.5241(2) 0.30141(13)
H4 H 0.3882 0.4691 0.2772
N7 N 0.27786(16) 0.10335(19) 0.04956(11)
C10 C 0.21822(19) 0.0311(2) 0.02381(13)
H5 H 0.1949 -0.0190 0.0487
C11 C 0.1376(2) -0.0398(2) 0.18194(13)
O1 O 0.14000(16) 0.42255(15) 0.21701(11)
C12 C 0.36574(18) 0.6289(2) 0.38392(13)
C13 C 0.29452(19) 0.1615(2) -0.00361(14)
C14 C 0.13549(18) -0.4309(2) 0.03076(13)
O2 O 0.21648(15) -0.04320(17) 0.16955(13)
C15 C -0.0070(2) 0.1613(2) 0.25062(14)
H6 H -0.0597 0.1650 0.2696
O3 O 0.24181(17) 0.33174(17) 0.17434(14)
C16 C 0.24237(18) 0.1206(2) -0.06165(13)
C17 C 0.3513(2) 0.2470(2) -0.00641(17)
H7 H 0.3873 0.2746 0.0315
C18 C 0.4826(2) 0.4815(2) 0.40660(14)
H8 H 0.4600 0.4571 0.4451
H9 H 0.5357 0.5262 0.4215
C19 C 0.2428(2) 0.1638(2) -0.12313(15)
H10 H 0.2071 0.1365 -0.1613
C20 C 0.59494(19) 0.3821(2) 0.35618(14)
H11 H 0.6371 0.4352 0.3701
C21 C 0.1766(2) -0.5224(2) 0.01641(16)
H12 H 0.2218 -0.5552 0.0472
C22 C 0.0920(2) -0.2942(2) 0.07698(14)
H13 H 0.0872 -0.2428 0.1077
C23 C 0.2475(2) 0.7485(2) 0.33067(16)
H14 H 0.2062 0.7714 0.2937
C24 C 0.0800(3) -0.5147(3) -0.09111(16)
H15 H 0.0622 -0.5447 -0.1324
C25 C 0.3526(2) 0.2895(3) -0.06712(18)
H16 H 0.3903 0.3468 -0.0701
C26 C 0.1478(2) -0.5628(3) -0.04542(18)
H17 H 0.1746 -0.6240 -0.0568
C27 C 0.0378(2) -0.4237(3) -0.07744(14)
H18 H -0.0079 -0.3917 -0.1083
C28 C 0.3183(3) 0.7656(3) 0.44482(18)
H19 H 0.3215 0.8016 0.4841
C29 C 0.2990(2) 0.2491(3) -0.12425(17)
H20 H 0.3013 0.2806 -0.1643
C30 C 0.2565(2) 0.7998(3) 0.38939(19)
H21 H 0.2206 0.8586 0.3924
N8 N 0.55526(15) 0.21921(17) 0.29535(11)
N9 N 0.42595(16) 0.15398(19) 0.23481(11)
C31 C 0.53474(19) 0.1313(2) 0.32737(13)
C32 C 0.45333(19) 0.0911(2) 0.28929(14)
C33 C 0.4883(2) 0.2285(2) 0.24105(14)
H22 H 0.4866 0.2825 0.2110
C34 C 0.62821(19) 0.2953(2) 0.31881(16)
H23 H 0.6511 0.3236 0.2815
H24 H 0.6797 0.2605 0.3469
O4 O 0.08092(19) -0.11154(19) 0.17492(16)
C35 C 0.0083(2) -0.1308(2) -0.04486(14)
H25 H -0.0338 -0.0793 -0.0621
C36 C -0.0298(2) -0.2197(2) -0.01180(17)
H26 H -0.0590 -0.1930 0.0231
H27 H -0.0774 -0.2542 -0.0434
C37 C 0.0940(2) -0.1177(2) -0.05211(14)
H28 H 0.1376 -0.1677 -0.0347
C38 C 0.1265(2) -0.0269(2) -0.08674(14)
H29 H 0.1548 -0.0517 -0.1226
H30 H 0.0734 0.0157 -0.1053
C39 C 0.3743(2) 0.6809(3) 0.44349(15)
H31 H 0.4160 0.6593 0.4806
C40 C 0.5793(2) 0.0833(2) 0.38484(15)
H32 H 0.6342 0.1096 0.4094
C41 C 0.4125(2) 0.0022(2) 0.30941(16)
H33 H 0.3578 -0.0248 0.2851
C42 C 0.5386(3) -0.0043(3) 0.40354(18)
H34 H 0.5662 -0.0385 0.4418
C43 C 0.4563(3) -0.0437(3) 0.36653(19)
H35 H 0.4303 -0.1032 0.3811
Ag2_2 Ag 0.214710(16) 0.568850(18) 0.183070(10)
N6_2 N 0.30739(16) -0.40742(18) 0.27723(11)
O1_2 O 0.14000(16) -0.57745(15) 0.21701(11)
loop_
_geom_bond_atom_site_label_1
_geom_bond_atom_site_label_2
_geom_bond_site_symmetry_1
_geom_bond_site_symmetry_2
Ag1 N1 1_555 1_555
Ag2 N5 1_555 1_555
N1 C1 1_555 1_555
N2 C3 1_555 1_555
N3 C9 1_555 1_555
N4 C10 1_555 1_555
N5 C14 1_555 1_555
N6 C6 1_555 1_555
C1 C2 1_555 1_555
C2 H1 1_555 1_555
C3 C14 1_555 1_555
C4 C1 1_555 1_555
C5 H2 1_555 1_555
C6 C12 1_555 1_555
C7 N1 1_555 1_555
C8 H3 1_555 1_555
C9 N6 1_555 1_555
H4 C9 1_555 1_555
N7 Ag1 1_555 1_555
C10 N7 1_555 1_555
H5 C10 1_555 1_555
C11 C7 1_555 1_555
O1 C4 1_555 1_555
C12 N3 1_555 1_555
C13 N7 1_555 1_555
C14 C21 1_555 1_555
O2 C11 1_555 1_555
C15 C2 1_555 1_555
H6 C15 1_555 1_555
O3 Ag1 1_555 1_555
C16 N4 1_555 1_555
C17 C13 1_555 1_555
H7 C17 1_555 1_555
C18 N3 1_555 1_555
H8 C18 1_555 1_555
H9 C18 1_555 1_555
C19 C16 1_555 1_555
H10 C19 1_555 1_555
C20 C8 1_555 1_555
H11 C20 1_555 1_555
C21 H12 1_555 1_555
C22 N2 1_555 1_555
H13 C22 1_555 1_555
C23 C6 1_555 1_555
H14 C23 1_555 1_555
C24 H15 1_555 1_555
C25 C17 1_555 1_555
H16 C25 1_555 1_555
C26 C21 1_555 1_555
H17 C26 1_555 1_555
C27 C3 1_555 1_555
H18 C27 1_555 1_555
C28 H19 1_555 1_555
C29 C19 1_555 1_555
H20 C29 1_555 1_555
C30 C23 1_555 1_555
H21 C30 1_555 1_555
N8 C31 1_555 1_555
N9 Ag1 1_555 1_555
C31 C32 1_555 1_555
C32 N9 1_555 1_555
C33 N8 1_555 1_555
H22 C33 1_555 1_555
C34 C20 1_555 1_555
H23 C34 1_555 1_555
H24 C34 1_555 1_555
O4 C11 1_555 1_555
C35 H25 1_555 1_555
C36 N2 1_555 1_555
H26 C36 1_555 1_555
H27 C36 1_555 1_555
C37 C35 1_555 1_555
H28 C37 1_555 1_555
C38 N4 1_555 1_555
H29 C38 1_555 1_555
H30 C38 1_555 1_555
C39 C12 1_555 1_555
H31 C39 1_555 1_555
C40 C31 1_555 1_555
H32 C40 1_555 1_555
C41 C32 1_555 1_555
H33 C41 1_555 1_555
C42 C40 1_555 1_555
H34 C42 1_555 1_555
C43 C41 1_555 1_555
H35 C43 1_555 1_555
Ag2_2 N6 1_555 1_555
N6_2 Ag2 1_555 1_555
O1_2 Ag2 1_555 1_555
N5 C22 1_555 1_555
C4 O3 1_555 1_555
C5 C7 1_555 1_555
C5 C15 1_555 1_555
C8 C18 1_555 1_555
O1 Ag2_2 1_555 1_555
C13 C16 1_555 1_555
C24 C26 1_555 1_555
C24 C27 1_555 1_555
C25 C29 1_555 1_555
C28 C30 1_555 1_555
C28 C39 1_555 1_555
N8 C34 1_555 1_555
N9 C33 1_555 1_555
C35 C36 1_555 1_555
C37 C38 1_555 1_555
C42 C43 1_555 1_555

#END
