
#######################################################################
#
#                 Cambridge Crystallographic Data Centre
#                                CCDC 
#
#######################################################################
#
# If this CIF has been generated from an entry in the Cambridge 
# Structural Database, then it will include bibliographic, chemical, 
# crystal, experimental, refinement or atomic coordinate data resulting 
# from the CCDC's data processing and validation procedures.
#
#######################################################################

data_TEBQIC
_symmetry_cell_setting           triclinic
_symmetry_space_group_name_H-M   'P -1'
_symmetry_Int_Tables_number      2
_space_group_name_Hall           '-P 1'
loop_
_symmetry_equiv_pos_site_id
_symmetry_equiv_pos_as_xyz
1 x,y,z
2 -x,-y,-z
_cell_length_a                   10.338(2)
_cell_length_b                   11.823(2)
_cell_length_c                   12.208(2)
_cell_angle_alpha                63.76(3)
_cell_angle_beta                 78.51(3)
_cell_angle_gamma                74.86(3)
_cell_volume                     1285.86
loop_
_atom_site_label
_atom_site_type_symbol
_atom_site_fract_x
_atom_site_fract_y
_atom_site_fract_z
O1 O 0.1291(6) 0.9648(5) 0.1121(5)
O2 O 0.6023(6) 1.1868(5) 0.0566(5)
C1 C 0.6709(6) 0.5951(6) 0.2184(5)
H1 H 0.6021 0.6480 0.2455
C2 C 0.8190(7) 0.3802(6) -0.1735(5)
H2 H 0.8797 0.3167 -0.1928
O3 O 0.1062(6) 1.1671(5) 0.0598(5)
Pb1 Pb 0.764958(16) 0.502477(14) 0.510566(13)
S1 S 0.44501(12) 0.71612(11) 0.46435(11)
S2 S 0.94515(12) 0.72638(11) 0.45099(11)
N1 N 0.7763(5) 0.5310(4) 0.2843(4)
O4 O 0.5914(3) 0.7044(3) 0.4430(4)
O5 O 0.9354(4) 0.6559(3) 0.3814(3)
O6 O 0.4016(4) 0.6397(3) 0.4170(3)
N2 N 0.7222(5) 0.4528(5) -0.2466(4)
C3 C 0.8691(6) 0.4444(5) 0.1370(4)
H3 H 0.9402 0.3920 0.1112
C4 C 0.6436(6) 0.5608(5) -0.1139(4)
H4 H 0.5802 0.6240 -0.0962
C5 C 0.7587(5) 0.5072(5) 0.0703(4)
C6 C 0.8738(6) 0.4595(6) 0.2417(5)
H5 H 0.9496 0.4170 0.2845
C7 C 0.6369(6) 0.5396(6) -0.2145(5)
H6 H 0.5671 0.5903 -0.2634
C8 C 0.6598(6) 0.5861(6) 0.1117(5)
H7 H 0.5854 0.6336 0.0679
O7 O 0.8658(4) 0.6859(3) 0.5685(3)
O8 O 0.3937(4) 0.6922(3) 0.5895(3)
O9 O 1.0852(3) 0.7205(3) 0.4614(4)
C9 C 0.9714(5) 0.9580(5) 0.4971(5)
H8 H 0.9813 0.8757 0.5600
C10 C 0.3789(4) 0.8798(4) 0.3720(4)
C11 C 0.4902(5) 0.9571(5) 0.4846(5)
H9 H 0.5353 0.8729 0.5248
C12 C 0.8347(6) 0.3937(6) -0.0708(5)
H10 H 0.9046 0.3403 -0.0229
C13 C 0.2979(5) 0.9046(5) 0.2827(4)
H11 H 0.2823 0.8376 0.2699
C14 C 0.8919(5) 0.9871(4) 0.3957(4)
C15 C 0.4032(5) 0.9810(4) 0.3921(4)
C16 C 0.8745(4) 0.8894(4) 0.3662(4)
C17 C 0.7463(5) 0.4865(5) -0.0393(4)
C18 C 0.7975(5) 0.9182(5) 0.2726(4)
H12 H 0.7872 0.8540 0.2526
C19 C 0.8282(5) 1.1131(5) 0.3284(5)
H13 H 0.8389 1.1791 0.3458
C20 C 0.7496(5) 1.1422(5) 0.2367(5)
H14 H 0.7062 1.2263 0.1937
N3 N 0.6508(5) 1.0741(6) 0.1144(4)
C21 C 0.7369(5) 1.0445(5) 0.2103(5)
N4 N 0.1522(5) 1.0555(6) 0.1215(5)
C22 C 0.2413(5) 1.0299(5) 0.2134(5)
C23 C 0.2610(6) 1.1314(5) 0.2306(5)
H15 H 0.2199 1.2153 0.1839
C24 C 0.3424(6) 1.1065(5) 0.3180(5)
H16 H 0.3578 1.1751 0.3285
O10 O 0.6312(6) 0.9855(6) 0.0994(5)
O1A O 0.8709(6) 1.0352(5) 0.8879(5)
O2A O 1.3977(6) 0.8132(5) 0.9434(5)
C1_2 C 0.6709(6) 0.5951(6) 1.2184(5)
H1_2 H 0.6021 0.6480 1.2455
C2_2 C 0.8190(7) 0.3802(6) 0.8265(5)
H2_2 H 0.8797 0.3167 0.8072
O3A O 0.8938(6) 0.8329(5) 0.9402(5)
Pb1_2 Pb 0.764958(16) 0.502477(14) 1.510566(13)
Pb1A Pb 0.235042(16) 0.497523(14) 0.489434(13)
Pb1_3 Pb 0.764958(16) 0.502477(14) -0.489434(13)
Pb1A_2 Pb 1.235042(16) 0.497523(14) 0.489434(13)
Pb1A_3 Pb 0.235042(16) 1.497523(14) 0.489434(13)
Pb1_4 Pb 0.764958(16) 1.502477(14) 0.510566(13)
Pb1A_4 Pb 1.235042(16) 1.497523(14) 0.489434(13)
S1A S 0.55499(12) 1.28388(11) 0.53565(11)
S2A S 1.05485(12) 1.27362(11) 0.54901(11)
N1_2 N 0.7763(5) 0.5310(4) 1.2843(4)
O4A O 0.4086(3) 1.2956(3) 0.5570(4)
O4_2 O 0.5914(3) 0.7044(3) 1.4430(4)
O5A O 1.0646(4) 1.3441(3) 0.6186(3)
O5_2 O 0.9354(4) 0.6559(3) 1.3814(3)
O6A O 0.5984(4) 1.3603(3) 0.5830(3)
O6A_2 O 0.5984(4) 0.3603(3) 0.5830(3)
O6A_3 O 0.5984(4) 0.3603(3) 1.5830(3)
N2_2 N 0.7222(5) 0.4528(5) 0.7534(4)
N2_3 N 0.7222(5) 0.4528(5) 1.7534(4)
C3_2 C 0.8691(6) 0.4444(5) 1.1370(4)
H3_2 H 0.9402 0.3920 1.1112
C4_2 C 0.6436(6) 0.5608(5) 0.8861(4)
H4_2 H 0.5802 0.6240 0.9038
C5_2 C 0.7587(5) 0.5072(5) 1.0703(4)
C6_2 C 0.8738(6) 0.4595(6) 1.2417(5)
H5_2 H 0.9496 0.4170 1.2845
C7_2 C 0.6369(6) 0.5396(6) 0.7855(5)
H6_2 H 0.5671 0.5903 0.7366
C8_2 C 0.6598(6) 0.5861(6) 1.1117(5)
H7_2 H 0.5854 0.6336 1.0679
O7A O 1.1342(4) 1.3141(3) 0.4315(3)
O8A O 0.6063(4) 1.3078(3) 0.4105(3)
O9A O 0.9148(3) 1.2795(3) 0.5386(4)
O9A_2 O 0.9148(3) 0.2795(3) 0.5386(4)
O9A_3 O 0.9148(3) 0.2795(3) 1.5386(4)
C9A C 1.0286(5) 1.0420(5) 0.5029(5)
H8A H 1.0187 1.1243 0.4400
C10A C 0.6211(4) 1.1202(4) 0.6280(4)
C11A C 0.5098(5) 1.0429(5) 0.5154(5)
H9A H 0.4647 1.1271 0.4752
C12_2 C 0.8347(6) 0.3937(6) 0.9292(5)
H10_2 H 0.9046 0.3403 0.9771
C13A C 0.7021(5) 1.0954(5) 0.7173(4)
H11A H 0.7177 1.1624 0.7301
C14A C 1.1081(5) 1.0129(4) 0.6043(4)
C15A C 0.5968(5) 1.0190(4) 0.6079(4)
C16A C 1.1255(4) 1.1106(4) 0.6338(4)
C17_2 C 0.7463(5) 0.4865(5) 0.9607(4)
C18A C 1.2025(5) 1.0818(5) 0.7274(4)
H12A H 1.2128 1.1460 0.7474
C19A C 1.1718(5) 0.8869(5) 0.6716(5)
H13A H 1.1611 0.8209 0.6542
C20A C 1.2504(5) 0.8578(5) 0.7633(5)
H14A H 1.2938 0.7737 0.8063
N3A N 1.3492(5) 0.9259(6) 0.8856(4)
C21A C 1.2631(5) 0.9555(5) 0.7897(5)
N4A N 0.8478(5) 0.9445(6) 0.8785(5)
C22A C 0.7587(5) 0.9701(5) 0.7866(5)
C23A C 0.7390(6) 0.8686(5) 0.7694(5)
H15A H 0.7801 0.7847 0.8161
C24A C 0.6576(6) 0.8935(5) 0.6820(5)
H16A H 0.6422 0.8249 0.6715
O10A O 1.3688(6) 1.0145(6) 0.9006(5)
loop_
_geom_bond_atom_site_label_1
_geom_bond_atom_site_label_2
_geom_bond_site_symmetry_1
_geom_bond_site_symmetry_2
O1 N4 1_555 1_555
O2 N3 1_555 1_555
C1 H1 1_555 1_555
C2 H2 1_555 1_555
O3 N4 1_555 1_555
Pb1 N1 1_555 1_555
S1 O4 1_555 1_555
S2 O5 1_555 1_555
N1 C1 1_555 1_555
O4 Pb1 1_555 1_555
O5 Pb1 1_555 1_555
O6 S1 1_555 1_555
N2 C2 1_555 1_555
C3 H3 1_555 1_555
C4 H4 1_555 1_555
C5 C3 1_555 1_555
C6 N1 1_555 1_555
H5 C6 1_555 1_555
C7 N2 1_555 1_555
H6 C7 1_555 1_555
C8 C1 1_555 1_555
H7 C8 1_555 1_555
O7 S2 1_555 1_555
O8 S1 1_555 1_555
O9 S2 1_555 1_555
C9 H8 1_555 1_555
C10 S1 1_555 1_555
C11 H9 1_555 1_555
C12 C2 1_555 1_555
H10 C12 1_555 1_555
C13 C10 1_555 1_555
H11 C13 1_555 1_555
C14 C9 1_555 1_555
C15 C10 1_555 1_555
C16 S2 1_555 1_555
C17 C4 1_555 1_555
C18 C16 1_555 1_555
H12 C18 1_555 1_555
C19 C14 1_555 1_555
H13 C19 1_555 1_555
C20 C19 1_555 1_555
H14 C20 1_555 1_555
N3 C21 1_555 1_555
C21 C18 1_555 1_555
N4 C22 1_555 1_555
C22 C13 1_555 1_555
C23 C22 1_555 1_555
H15 C23 1_555 1_555
C24 C15 1_555 1_555
H16 C24 1_555 1_555
O10 N3 1_555 1_555
O1A N4A 1_555 1_555
O2A N3A 1_555 1_555
C1_2 H1_2 1_555 1_555
C2_2 H2_2 1_555 1_555
O3A N4A 1_555 1_555
Pb1_2 N1_2 1_555 1_555
Pb1A O6 1_555 1_555
Pb1_3 N2 1_555 1_555
Pb1A_2 O9 1_555 1_555
Pb1A_3 O4A 1_555 1_555
Pb1_4 O6A 1_555 1_555
Pb1A_4 O5A 1_555 1_555
S1A O4A 1_555 1_555
S2A O5A 1_555 1_555
N1_2 C1_2 1_555 1_555
O4_2 Pb1_2 1_555 1_555
O5_2 Pb1_2 1_555 1_555
O6A S1A 1_555 1_555
O6A_2 Pb1 1_555 1_555
O6A_3 Pb1_2 1_555 1_555
N2_2 Pb1 1_555 1_555
N2_3 Pb1_2 1_555 1_555
C3_2 H3_2 1_555 1_555
C4_2 H4_2 1_555 1_555
C5_2 C3_2 1_555 1_555
C6_2 N1_2 1_555 1_555
H5_2 C6_2 1_555 1_555
C7_2 N2_2 1_555 1_555
H6_2 C7_2 1_555 1_555
C8_2 C1_2 1_555 1_555
H7_2 C8_2 1_555 1_555
O7A S2A 1_555 1_555
O8A S1A 1_555 1_555
O9A Pb1_4 1_555 1_555
O9A_2 Pb1 1_555 1_555
O9A_3 Pb1_2 1_555 1_555
C9A C9 1_555 1_555
H8A C9A 1_555 1_555
C10A S1A 1_555 1_555
C11A C11 1_555 1_555
H9A C11A 1_555 1_555
C12_2 C2_2 1_555 1_555
H10_2 C12_2 1_555 1_555
C13A C10A 1_555 1_555
H11A C13A 1_555 1_555
C14A C9A 1_555 1_555
C15A C10A 1_555 1_555
C16A S2A 1_555 1_555
C17_2 C4_2 1_555 1_555
C18A C16A 1_555 1_555
H12A C18A 1_555 1_555
C19A C14A 1_555 1_555
H13A C19A 1_555 1_555
C20A C19A 1_555 1_555
H14A C20A 1_555 1_555
N3A C21A 1_555 1_555
C21A C18A 1_555 1_555
N4A C22A 1_555 1_555
C22A C13A 1_555 1_555
C23A C22A 1_555 1_555
H15A C23A 1_555 1_555
C24A C15A 1_555 1_555
H16A C24A 1_555 1_555
O10A N3A 1_555 1_555
C3 C6 1_555 1_555
C4 C7 1_555 1_555
C5 C8 1_555 1_555
C5 C17 1_555 1_555
C11 C15 1_555 1_555
C12 C17 1_555 1_555
C14 C16 1_555 1_555
C20 C21 1_555 1_555
C23 C24 1_555 1_555
C2_2 N2_2 1_555 1_555
S2A O9A 1_555 1_555
C3_2 C6_2 1_555 1_555
C4_2 C7_2 1_555 1_555
C5_2 C8_2 1_555 1_555
C5_2 C17_2 1_555 1_555
C11A C15A 1_555 1_555
C12_2 C17_2 1_555 1_555
C14A C16A 1_555 1_555
C20A C21A 1_555 1_555
C23A C24A 1_555 1_555

#END
