
#######################################################################
#
#                 Cambridge Crystallographic Data Centre
#                                CCDC 
#
#######################################################################
#
# If this CIF has been generated from an entry in the Cambridge 
# Structural Database, then it will include bibliographic, chemical, 
# crystal, experimental, refinement or atomic coordinate data resulting 
# from the CCDC's data processing and validation procedures.
#
#######################################################################

data_TEBRAV
_symmetry_cell_setting           monoclinic
_symmetry_space_group_name_H-M   'P 21/c'
_symmetry_Int_Tables_number      14
_space_group_name_Hall           '-P 2ybc'
loop_
_symmetry_equiv_pos_site_id
_symmetry_equiv_pos_as_xyz
1 x,y,z
2 -x,1/2+y,1/2-z
3 -x,-y,-z
4 x,1/2-y,1/2+z
_cell_length_a                   9.2587(12)
_cell_length_b                   19.5443(14)
_cell_length_c                   18.774(3)
_cell_angle_alpha                90
_cell_angle_beta                 110.704(12)
_cell_angle_gamma                90
_cell_volume                     3177.85
loop_
_atom_site_label
_atom_site_type_symbol
_atom_site_fract_x
_atom_site_fract_y
_atom_site_fract_z
C1 C 1.1033(4) 0.4130(2) 0.2227(2)
H1 H 1.1247 0.4378 0.1853
Co1 Co 1.16612(4) 0.71941(2) 0.10524(2)
O1 O 1.0837(2) 0.72106(12) -0.01739(12)
N1 N 1.0738(3) 0.62130(13) 0.11317(15)
N2 N 1.0133(3) 0.26113(13) 0.36930(15)
O2 O 1.3311(2) 0.70195(11) 0.21632(12)
N3 N 1.3488(3) 0.68845(13) 0.08272(15)
O3 O 1.1718(3) 0.71696(16) -0.11340(14)
N4 N 1.2445(3) 0.92533(14) 0.05225(17)
N5 N 1.2382(3) 0.82341(14) 0.10295(15)
N6 N 1.1383(3) 0.31002(14) 0.30160(16)
C2 C 1.3109(3) 0.93433(17) 0.1303(2)
N7 N 0.9836(3) 0.54822(14) 0.17801(16)
C3 C 1.3431(4) 0.68901(17) 0.0110(2)
C4 C 1.4274(4) 0.9179(2) 0.2835(2)
H2 H 1.4667 0.9135 0.3362
C5 C 1.1464(3) 0.29195(16) 0.41895(18)
C6 C 1.4327(4) 0.9814(2) 0.2511(3)
H3 H 1.4783 1.0181 0.2825
C7 C 0.9567(3) 0.58191(15) 0.06141(18)
C8 C 1.4618(4) 0.68127(18) 0.2174(2)
C9 C 1.3657(4) 0.86117(19) 0.2395(2)
H4 H 1.3633 0.8188 0.2616
C10 C 1.3072(3) 0.86979(17) 0.1611(2)
C11 C 1.1875(4) 0.70992(18) -0.0456(2)
C12 C 1.4779(4) 0.67493(16) 0.1403(2)
C13 C 1.0147(4) 0.27392(17) 0.30101(19)
H5 H 0.9377 0.2594 0.2566
C14 C 1.0822(4) 0.59895(17) 0.1802(2)
H6 H 1.1509 0.6168 0.2254
C15 C 1.0251(4) 0.44416(19) 0.2584(2)
H7 H 1.0063 0.4196 0.2967
C16 C 0.8992(3) 0.53600(16) 0.10106(18)
C17 C 0.8951(3) 0.58290(17) -0.01702(18)
H8 H 0.9321 0.6127 -0.0452
C18 C 0.7213(4) 0.49315(19) -0.0112(2)
H9 H 0.6407 0.4638 -0.0372
C19 C 1.2239(4) 0.32272(17) 0.3767(2)
C20 C 0.9619(4) 0.51569(19) 0.2443(2)
H10 H 0.8525 0.5145 0.2362
H11 H 1.0125 0.5433 0.2892
C21 C 1.0478(4) 1.01046(19) -0.0164(2)
H12 H 1.0183 1.0482 -0.0485
C22 C 1.6117(4) 0.65911(18) 0.1267(3)
H13 H 1.7027 0.6488 0.1666
C23 C 1.1624(4) 0.34088(19) 0.2358(2)
H14 H 1.1099 0.3137 0.1908
H15 H 1.2719 0.3407 0.2439
C24 C 1.3719(4) 0.9911(2) 0.1736(3)
H16 H 1.3720 1.0338 0.1517
C25 C 1.6058(5) 0.6591(2) 0.0524(3)
H17 H 1.6940 0.6480 0.0420
C26 C 1.2040(4) 0.29481(18) 0.49784(19)
H18 H 1.1521 0.2747 0.5268
C27 C 0.7816(4) 0.49076(18) 0.0663(2)
H19 H 0.7453 0.4603 0.0942
O4 O 1.5726(3) 0.66693(16) 0.27493(15)
C28 C 1.4728(4) 0.67512(18) -0.0064(2)
H20 H 1.4700 0.6766 -0.0564
C29 C 1.2032(4) 0.85955(18) 0.0404(2)
H21 H 1.1541 0.8412 -0.0079
C30 C 1.2009(4) 0.97843(19) -0.0066(2)
H22 H 1.1967 0.9585 -0.0546
H23 H 1.2797 1.0137 0.0068
C31 C 1.3621(4) 0.35728(19) 0.4100(2)
H24 H 1.4132 0.3781 0.3811
C32 C 0.7772(4) 0.53818(19) -0.0519(2)
H25 H 0.7334 0.5382 -0.1048
C33 C 1.3425(4) 0.3291(2) 0.5315(2)
H26 H 1.3849 0.3320 0.5843
C34 C 1.4194(4) 0.3591(2) 0.4881(2)
H27 H 1.5128 0.3811 0.5128
C1A C 0.8967(4) 0.9130(2) 0.2773(2)
H1A H 0.8753 0.9378 0.3147
Co1A Co 0.83388(4) 1.21941(2) 0.39476(2)
Co1A_2 Co 0.83388(4) 0.21941(2) 0.39476(2)
Co1B Co 0.83388(4) 1.28059(2) -0.10524(2)
O1A O 0.9163(2) 1.22106(12) 0.51739(12)
N1A N 0.9262(3) 1.12130(13) 0.38683(15)
N2A N 0.9867(3) 0.76113(13) 0.13070(15)
N2_2 N 1.0133(3) 1.26113(13) 0.36930(15)
O2A O 0.6689(2) 1.20195(11) 0.28368(12)
N3A N 0.6512(3) 1.18845(13) 0.41728(15)
O3A O 0.8282(3) 1.21696(16) 0.61340(14)
N4B N 0.7555(3) 1.07467(14) -0.05225(17)
N5B N 0.7618(3) 1.17659(14) -0.10295(15)
N5A N 0.7618(3) 1.32341(14) 0.39705(15)
N6A N 0.8617(3) 0.81002(14) 0.19840(16)
C2B C 0.6891(3) 1.06567(17) -0.1303(2)
N7A N 1.0164(3) 1.04822(14) 0.32199(16)
C3A C 0.6569(4) 1.18901(17) 0.4890(2)
C4B C 0.5726(4) 1.0821(2) -0.2835(2)
H2B H 0.5333 1.0865 -0.3362
C5A C 0.8536(3) 0.79195(16) 0.08105(18)
C6B C 0.5673(4) 1.0186(2) -0.2511(3)
H3B H 0.5217 0.9819 -0.2825
C7A C 1.0433(3) 1.08191(15) 0.43859(18)
C8A C 0.5382(4) 1.18127(18) 0.2826(2)
C9B C 0.6343(4) 1.13883(19) -0.2395(2)
H4B H 0.6367 1.1812 -0.2616
C10B C 0.6928(3) 1.13021(17) -0.1611(2)
C11A C 0.8125(4) 1.20992(18) 0.5456(2)
C12A C 0.5221(4) 1.17493(16) 0.3597(2)
C13A C 0.9853(4) 0.77392(17) 0.19899(19)
H5A H 1.0623 0.7594 0.2434
C14A C 0.9178(4) 1.09895(17) 0.3198(2)
H6A H 0.8491 1.1168 0.2746
C15A C 0.9749(4) 0.94416(19) 0.2416(2)
H7A H 0.9937 0.9196 0.2033
C16A C 1.1008(3) 1.03600(16) 0.39894(18)
C17A C 1.1049(3) 1.08290(17) 0.51702(18)
H8A H 1.0679 1.1127 0.5452
C18A C 1.2787(4) 0.99315(19) 0.5112(2)
H9A H 1.3593 0.9638 0.5372
C19A C 0.7761(4) 0.82272(17) 0.1233(2)
C20A C 1.0381(4) 1.01569(19) 0.2557(2)
H10A H 1.1475 1.0145 0.2638
H11A H 0.9875 1.0433 0.2108
C21B C 0.9522(4) 0.98954(19) 0.0164(2)
H12B H 0.9817 0.9518 0.0485
C22A C 0.3883(4) 1.15911(18) 0.3733(3)
H13A H 0.2973 1.1488 0.3334
C23A C 0.8376(4) 0.84088(19) 0.2642(2)
H14A H 0.8901 0.8137 0.3092
H15A H 0.7281 0.8407 0.2561
C24B C 0.6281(4) 1.0089(2) -0.1736(3)
H16B H 0.6280 0.9662 -0.1517
C25A C 0.3942(5) 1.1591(2) 0.4476(3)
H17A H 0.3060 1.1480 0.4580
C26A C 0.7960(4) 0.79481(18) 0.00216(19)
H18A H 0.8479 0.7747 -0.0268
C27A C 1.2184(4) 0.99076(18) 0.4337(2)
H19A H 1.2547 0.9603 0.4058
O4A O 0.4274(3) 1.16693(16) 0.22507(15)
C28A C 0.5272(4) 1.17512(18) 0.5064(2)
H20A H 0.5300 1.1766 0.5564
C29B C 0.7968(4) 1.14045(18) -0.0404(2)
H21B H 0.8459 1.1588 0.0079
C30B C 0.7991(4) 1.02157(19) 0.0066(2)
H22B H 0.8033 1.0415 0.0546
H23B H 0.7203 0.9863 -0.0068
C31A C 0.6379(4) 0.85728(19) 0.0900(2)
H24A H 0.5868 0.8781 0.1189
C32A C 1.2228(4) 1.03818(19) 0.5519(2)
H25A H 1.2666 1.0382 0.6048
C33A C 0.6575(4) 0.8291(2) -0.0315(2)
H26A H 0.6151 0.8320 -0.0843
C34A C 0.5806(4) 0.8591(2) 0.0119(2)
H27A H 0.4872 0.8811 -0.0128
O5 O 0.0903(4) 0.1589(2) 0.1659(2)
H28 H 0.1873 0.1590 0.1897
H29 H 0.0462 0.1966 0.1486
loop_
_geom_bond_atom_site_label_1
_geom_bond_atom_site_label_2
_geom_bond_site_symmetry_1
_geom_bond_site_symmetry_2
C1 H1 1_555 1_555
Co1 O1 1_555 1_555
O1 C11 1_555 1_555
N1 Co1 1_555 1_555
N2 C5 1_555 1_555
O2 Co1 1_555 1_555
N3 Co1 1_555 1_555
O3 C11 1_555 1_555
N4 C2 1_555 1_555
N5 Co1 1_555 1_555
N6 C13 1_555 1_555
C2 C10 1_555 1_555
N7 C14 1_555 1_555
C3 N3 1_555 1_555
C4 H2 1_555 1_555
C5 C19 1_555 1_555
C6 C4 1_555 1_555
H3 C6 1_555 1_555
C7 N1 1_555 1_555
C8 O2 1_555 1_555
C9 C4 1_555 1_555
H4 C9 1_555 1_555
C10 N5 1_555 1_555
C11 C3 1_555 1_555
C12 N3 1_555 1_555
C13 N2 1_555 1_555
H5 C13 1_555 1_555
C14 N1 1_555 1_555
H6 C14 1_555 1_555
C15 C1 1_555 1_555
H7 C15 1_555 1_555
C16 N7 1_555 1_555
C17 C7 1_555 1_555
H8 C17 1_555 1_555
C18 H9 1_555 1_555
C19 N6 1_555 1_555
C20 N7 1_555 1_555
H10 C20 1_555 1_555
H11 C20 1_555 1_555
C21 H12 1_555 1_555
C22 C12 1_555 1_555
H13 C22 1_555 1_555
C23 C1 1_555 1_555
H14 C23 1_555 1_555
H15 C23 1_555 1_555
C24 C2 1_555 1_555
H16 C24 1_555 1_555
C25 C22 1_555 1_555
H17 C25 1_555 1_555
C26 C5 1_555 1_555
H18 C26 1_555 1_555
C27 C16 1_555 1_555
H19 C27 1_555 1_555
O4 C8 1_555 1_555
C28 C3 1_555 1_555
H20 C28 1_555 1_555
C29 N4 1_555 1_555
H21 C29 1_555 1_555
C30 N4 1_555 1_555
H22 C30 1_555 1_555
H23 C30 1_555 1_555
C31 C19 1_555 1_555
H24 C31 1_555 1_555
C32 C17 1_555 1_555
H25 C32 1_555 1_555
C33 C26 1_555 1_555
H26 C33 1_555 1_555
C34 C31 1_555 1_555
H27 C34 1_555 1_555
O5 H28 1_555 1_555
H29 O5 1_555 1_555
C1A H1A 1_555 1_555
Co1A O1A 1_555 1_555
Co1A_2 N2 1_555 1_555
Co1B N5B 1_555 1_555
O1A C11A 1_555 1_555
N1A Co1A 1_555 1_555
N2A Co1 1_555 1_555
N2_2 Co1A 1_555 1_555
O2A Co1A 1_555 1_555
N3A Co1A 1_555 1_555
O3A C11A 1_555 1_555
N4B C2B 1_555 1_555
N5B C10B 1_555 1_555
N5A Co1A 1_555 1_555
N6A C13A 1_555 1_555
C2B C10B 1_555 1_555
N7A C14A 1_555 1_555
C3A N3A 1_555 1_555
C4B H2B 1_555 1_555
C5A N2A 1_555 1_555
C6B C4B 1_555 1_555
H3B C6B 1_555 1_555
C7A N1A 1_555 1_555
C8A O2A 1_555 1_555
C9B C4B 1_555 1_555
H4B C9B 1_555 1_555
C10B C9B 1_555 1_555
C11A C3A 1_555 1_555
C12A N3A 1_555 1_555
C13A N2A 1_555 1_555
H5A C13A 1_555 1_555
C14A N1A 1_555 1_555
H6A C14A 1_555 1_555
C15A C1A 1_555 1_555
H7A C15A 1_555 1_555
C16A N7A 1_555 1_555
C17A C7A 1_555 1_555
H8A C17A 1_555 1_555
C18A H9A 1_555 1_555
C19A N6A 1_555 1_555
C20A N7A 1_555 1_555
H10A C20A 1_555 1_555
H11A C20A 1_555 1_555
C21B C21 1_555 1_555
H12B C21B 1_555 1_555
C22A C12A 1_555 1_555
H13A C22A 1_555 1_555
C23A C1A 1_555 1_555
H14A C23A 1_555 1_555
H15A C23A 1_555 1_555
C24B C2B 1_555 1_555
H16B C24B 1_555 1_555
C25A C22A 1_555 1_555
H17A C25A 1_555 1_555
C26A C5A 1_555 1_555
H18A C26A 1_555 1_555
C27A C16A 1_555 1_555
H19A C27A 1_555 1_555
O4A C8A 1_555 1_555
C28A C3A 1_555 1_555
H20A C28A 1_555 1_555
C29B N4B 1_555 1_555
H21B C29B 1_555 1_555
C30B N4B 1_555 1_555
H22B C30B 1_555 1_555
H23B C30B 1_555 1_555
C31A C19A 1_555 1_555
H24A C31A 1_555 1_555
C32A C17A 1_555 1_555
H25A C32A 1_555 1_555
C33A C26A 1_555 1_555
H26A C33A 1_555 1_555
C34A C31A 1_555 1_555
H27A C34A 1_555 1_555
N5 C29 1_555 1_555
N6 C23 1_555 1_555
C6 C24 1_555 1_555
C7 C16 1_555 1_555
C8 C12 1_555 1_555
C9 C10 1_555 1_555
C15 C20 1_555 1_555
C18 C27 1_555 1_555
C18 C32 1_555 1_555
C21 C30 1_555 1_555
C25 C28 1_555 1_555
C33 C34 1_555 1_555
N5B C29B 1_555 1_555
N6A C23A 1_555 1_555
C5A C19A 1_555 1_555
C6B C24B 1_555 1_555
C7A C16A 1_555 1_555
C8A C12A 1_555 1_555
C15A C20A 1_555 1_555
C18A C27A 1_555 1_555
C18A C32A 1_555 1_555
C21B C30B 1_555 1_555
C25A C28A 1_555 1_555
C33A C34A 1_555 1_555

#END
