
#######################################################################
#
#                 Cambridge Crystallographic Data Centre
#                                CCDC 
#
#######################################################################
#
# If this CIF has been generated from an entry in the Cambridge 
# Structural Database, then it will include bibliographic, chemical, 
# crystal, experimental, refinement or atomic coordinate data resulting 
# from the CCDC's data processing and validation procedures.
#
#######################################################################

data_TEBSAW
_symmetry_cell_setting           monoclinic
_symmetry_space_group_name_H-M   'P 21/n'
_symmetry_Int_Tables_number      14
_space_group_name_Hall           '-P 2yn'
loop_
_symmetry_equiv_pos_site_id
_symmetry_equiv_pos_as_xyz
1 x,y,z
2 1/2-x,1/2+y,1/2-z
3 -x,-y,-z
4 1/2+x,1/2-y,1/2+z
_cell_length_a                   13.9806(5)
_cell_length_b                   10.7868(4)
_cell_length_c                   17.9066(7)
_cell_angle_alpha                90
_cell_angle_beta                 111.6050(10)
_cell_angle_gamma                90
_cell_volume                     2510.7
loop_
_atom_site_label
_atom_site_type_symbol
_atom_site_fract_x
_atom_site_fract_y
_atom_site_fract_z
Zn1 Zn 0.730576(14) 0.278111(16) 0.823694(10)
Zn2 Zn 0.240751(14) 0.233049(16) 0.669473(10)
N1 N 0.40285(11) 0.27129(12) 0.70635(8)
N2 N 0.42532(11) 0.39408(12) 0.70614(8)
N3 N 0.52462(11) 0.40875(12) 0.73707(8)
N4 N 0.57015(11) 0.29621(12) 0.75834(8)
C1 C 0.49327(12) 0.21344(14) 0.73823(9)
C2 C 0.50764(13) 0.07642(15) 0.74692(10)
H1 H 0.4403 0.0358 0.7296
H2 H 0.5469 0.0560 0.8033
H3 H 0.5452 0.0475 0.7136
N5 N 0.76096(10) 0.45201(12) 0.79759(8)
N6 N 0.79788(11) 0.53612(12) 0.85811(8)
N7 N 0.79717(11) 0.64526(12) 0.82713(8)
N8 N 0.75932(10) 0.63464(12) 0.74576(8)
C3 C 0.73728(12) 0.51541(14) 0.72896(9)
C4 C 0.69495(14) 0.46209(15) 0.64658(10)
H4 H 0.6328 0.5076 0.6143
H5 H 0.6778 0.3746 0.6496
H6 H 0.7464 0.4689 0.6216
N9 N 0.24890(10) 0.05019(12) 0.69698(8)
N10 N 0.21551(11) -0.03620(12) 0.63782(8)
N11 N 0.22453(12) -0.14553(13) 0.67065(8)
N12 N 0.26397(10) -0.13265(12) 0.75172(8)
C5 C 0.27799(12) -0.01163(14) 0.76619(9)
C6 C 0.31977(16) 0.04512(16) 0.84720(10)
H7 H 0.2644 0.0545 0.8680
H8 H 0.3488 0.1267 0.8438
H9 H 0.3737 -0.0083 0.8833
N13 N 0.71732(10) 0.24404(12) 0.93029(8)
N14 N 0.64150(11) 0.16576(13) 0.93158(8)
N15 N 0.64137(11) 0.16143(13) 1.00387(8)
N16 N 0.71730(10) 0.23703(12) 1.05183(8)
C7 C 0.76321(12) 0.28619(14) 1.00511(9)
C8 C 0.85102(13) 0.37467(16) 1.03276(9)
H10 H 0.9156 0.3285 1.0561
H11 H 0.8430 0.4302 1.0734
H12 H 0.8522 0.4236 0.9870
S1 S 0.00072(3) 0.16828(4) 0.55929(2)
O1 O 0.07339(9) 0.22167(11) 0.63832(7)
C9 C -0.06865(16) 0.04728(19) 0.58459(12)
H13 H -0.0217 -0.0212 0.6097
H14 H -0.1234 0.0175 0.5358
H15 H -0.0990 0.0790 0.6222
C10 C -0.09997(16) 0.2791(2) 0.52336(12)
H16 H -0.1313 0.2913 0.5636
H17 H -0.1522 0.2492 0.4732
H18 H -0.0719 0.3580 0.5135
S2 S 0.99195(3) 0.30267(4) 0.87935(3)
O2 O 0.90242(9) 0.24404(10) 0.89441(7)
C11 C 0.99334(19) 0.23759(19) 0.78833(14)
H19 H 0.9926 0.1469 0.7917
H20 H 1.0557 0.2643 0.7800
H21 H 0.9326 0.2657 0.7433
C12 C 1.10320(18) 0.2283(3) 0.94781(19)
H22 H 1.1097 0.2474 1.0030
H23 H 1.1643 0.2580 0.9388
H24 H 1.0969 0.1384 0.9393
Zn1A Zn 0.769424(14) 0.778111(16) 0.676306(10)
Zn2A Zn 0.259249(14) -0.266951(16) 0.830527(10)
Zn2C Zn 0.740751(14) 0.266951(16) 1.169473(10)
N8A N 0.74068(10) 0.13464(12) 0.75424(8)
N12A N 0.23603(10) 0.36735(12) 0.74828(8)
N16C N 0.21730(10) 0.26297(12) 0.55183(8)
loop_
_geom_bond_atom_site_label_1
_geom_bond_atom_site_label_2
_geom_bond_site_symmetry_1
_geom_bond_site_symmetry_2
Zn1 N4 1_555 1_555
Zn2 N1 1_555 1_555
N1 N2 1_555 1_555
N2 N3 1_555 1_555
N3 N4 1_555 1_555
N4 C1 1_555 1_555
C1 N1 1_555 1_555
C2 C1 1_555 1_555
H1 C2 1_555 1_555
H2 C2 1_555 1_555
H3 C2 1_555 1_555
N5 Zn1 1_555 1_555
N6 N5 1_555 1_555
N7 N6 1_555 1_555
N8 N7 1_555 1_555
C3 N5 1_555 1_555
C4 C3 1_555 1_555
H4 C4 1_555 1_555
H5 C4 1_555 1_555
H6 C4 1_555 1_555
N9 Zn2 1_555 1_555
N10 N9 1_555 1_555
N11 N10 1_555 1_555
N12 N11 1_555 1_555
C5 N9 1_555 1_555
C6 C5 1_555 1_555
H7 C6 1_555 1_555
H8 C6 1_555 1_555
H9 C6 1_555 1_555
N13 Zn1 1_555 1_555
N14 N13 1_555 1_555
N15 N14 1_555 1_555
N16 N15 1_555 1_555
C7 N13 1_555 1_555
C8 C7 1_555 1_555
H10 C8 1_555 1_555
H11 C8 1_555 1_555
H12 C8 1_555 1_555
S1 O1 1_555 1_555
O1 Zn2 1_555 1_555
C9 S1 1_555 1_555
H13 C9 1_555 1_555
H14 C9 1_555 1_555
H15 C9 1_555 1_555
C10 S1 1_555 1_555
H16 C10 1_555 1_555
H17 C10 1_555 1_555
H18 C10 1_555 1_555
S2 O2 1_555 1_555
O2 Zn1 1_555 1_555
C11 S2 1_555 1_555
H19 C11 1_555 1_555
H20 C11 1_555 1_555
H21 C11 1_555 1_555
C12 S2 1_555 1_555
H22 C12 1_555 1_555
H23 C12 1_555 1_555
H24 C12 1_555 1_555
Zn1A N8 1_555 1_555
Zn2A N12 1_555 1_555
Zn2C N16 1_555 1_555
N8A Zn1 1_555 1_555
N12A Zn2 1_555 1_555
N16C Zn2 1_555 1_555
N8 C3 1_555 1_555
N12 C5 1_555 1_555
N16 C7 1_555 1_555

#END
