
#######################################################################
#
#                 Cambridge Crystallographic Data Centre
#                                CCDC 
#
#######################################################################
#
# If this CIF has been generated from an entry in the Cambridge 
# Structural Database, then it will include bibliographic, chemical, 
# crystal, experimental, refinement or atomic coordinate data resulting 
# from the CCDC's data processing and validation procedures.
#
#######################################################################

data_TEBTAW
_symmetry_cell_setting           monoclinic
_symmetry_space_group_name_H-M   'P 21/n'
_symmetry_Int_Tables_number      14
_space_group_name_Hall           '-P 2yn'
loop_
_symmetry_equiv_pos_site_id
_symmetry_equiv_pos_as_xyz
1 x,y,z
2 1/2-x,1/2+y,1/2-z
3 -x,-y,-z
4 1/2+x,1/2-y,1/2+z
_cell_length_a                   5.624(4)
_cell_length_b                   17.691(11)
_cell_length_c                   11.076(7)
_cell_angle_alpha                90
_cell_angle_beta                 103.621(8)
_cell_angle_gamma                90
_cell_volume                     1071
loop_
_atom_site_label
_atom_site_type_symbol
_atom_site_fract_x
_atom_site_fract_y
_atom_site_fract_z
Cu1 Cu 0.27766(9) 0.47242(3) 0.33138(4)
N1 N 0.5386(6) 0.41268(19) 0.2976(3)
N2 N 0.0261(6) 0.53600(18) 0.3693(3)
N3 N 0.1262(7) 0.5841(2) 0.1426(3)
C1 C 0.2003(8) 0.6567(2) 0.1597(4)
H1 H 0.3586 0.6678 0.2037
C2 C 0.0435(8) 0.7134(3) 0.1125(4)
H2 H 0.0968 0.7632 0.1241
C3 C -0.1955(8) 0.6986(2) 0.0471(4)
C4 C -0.3640(9) 0.7596(3) -0.0129(4)
H3 H -0.5047 0.7376 -0.0679
H4 H -0.2812 0.7919 -0.0593
H5 H -0.4150 0.7886 0.0497
C5 C -0.2661(8) 0.6240(2) 0.0368(4)
H6 H -0.4259 0.6117 -0.0035
C6 C -0.1051(8) 0.5674(2) 0.0849(4)
H7 H -0.1565 0.5173 0.0776
C7 C -0.1273(7) 0.5594(2) 0.4114(3)
C8 C 0.7000(7) 0.3913(2) 0.2585(3)
O1 O 0.2897(5) 0.52918(16) 0.1802(2)
S1 S -0.34673(19) 0.59228(6) 0.47218(9)
S2 S 0.9271(2) 0.36167(7) 0.20373(10)
Cu1B Cu -0.27766(9) 0.52758(3) 0.66862(4)
Cu1_2 Cu 1.27766(9) 0.47242(3) 0.33138(4)
S1B S 0.34673(19) 0.40772(6) 0.52782(9)
S2_2 S -0.0729(2) 0.36167(7) 0.20373(10)
loop_
_geom_bond_atom_site_label_1
_geom_bond_atom_site_label_2
_geom_bond_site_symmetry_1
_geom_bond_site_symmetry_2
Cu1 N1 1_555 1_555
N1 C8 1_555 1_555
N2 Cu1 1_555 1_555
N3 C1 1_555 1_555
C1 H1 1_555 1_555
C2 C1 1_555 1_555
H2 C2 1_555 1_555
C3 C2 1_555 1_555
C4 C3 1_555 1_555
H3 C4 1_555 1_555
H4 C4 1_555 1_555
H5 C4 1_555 1_555
C5 C3 1_555 1_555
H6 C5 1_555 1_555
C6 N3 1_555 1_555
H7 C6 1_555 1_555
C7 N2 1_555 1_555
C8 S2 1_555 1_555
O1 Cu1 1_555 1_555
S1 C7 1_555 1_555
S2 Cu1_2 1_555 1_555
Cu1B S1 1_555 1_555
S1B Cu1 1_555 1_555
S2_2 Cu1 1_555 1_555
N3 O1 1_555 1_555
C5 C6 1_555 1_555

#END
