
#######################################################################
#
#                 Cambridge Crystallographic Data Centre
#                                CCDC 
#
#######################################################################
#
# If this CIF has been generated from an entry in the Cambridge 
# Structural Database, then it will include bibliographic, chemical, 
# crystal, experimental, refinement or atomic coordinate data resulting 
# from the CCDC's data processing and validation procedures.
#
#######################################################################

data_TEBXEF
_symmetry_cell_setting           monoclinic
_symmetry_space_group_name_H-M   'C 2/c'
_symmetry_Int_Tables_number      15
_space_group_name_Hall           '-C 2yn'
loop_
_symmetry_equiv_pos_site_id
_symmetry_equiv_pos_as_xyz
1 x,y,z
2 -x,y,1/2-z
3 1/2+x,1/2+y,z
4 1/2-x,1/2+y,1/2-z
5 -x,-y,-z
6 x,-y,1/2+z
7 1/2-x,1/2-y,-z
8 1/2+x,1/2-y,1/2+z
_cell_length_a                   16.422(3)
_cell_length_b                   17.463(3)
_cell_length_c                   14.756(3)
_cell_angle_alpha                90
_cell_angle_beta                 121.44(3)
_cell_angle_gamma                90
_cell_volume                     3610.42
loop_
_atom_site_label
_atom_site_type_symbol
_atom_site_fract_x
_atom_site_fract_y
_atom_site_fract_z
C1 C 0.5930(3) 0.1827(2) 0.7182(3)
H1 H 0.6332 0.1917 0.7905
C2 C 0.6065(3) 0.1176(2) 0.6754(3)
H2 H 0.6543 0.0829 0.7184
C3 C 0.5485(2) 0.10425(18) 0.5681(3)
H3 H 0.5567 0.0607 0.5375
C4 C 0.4778(2) 0.15670(17) 0.5065(3)
C5 C 0.4671(2) 0.22025(17) 0.5556(2)
H4 H 0.4184 0.2547 0.5145
C6 C 0.4078(2) 0.13692(18) 0.3939(3)
C7 C 0.2770(3) 0.1751(2) 0.2165(3)
H5 H 0.2361 0.1341 0.2034
C8 C 0.2669(3) 0.2390(2) 0.1421(3)
H6 H 0.2299 0.2406 0.0683
C9 C 0.4022(2) 0.26479(17) 0.3106(2)
C10 C 0.3254(2) 0.37175(19) 0.1789(3)
C11 C 0.3604(2) 0.43682(18) 0.2547(2)
C12 C 0.3535(2) 0.43984(19) 0.3449(3)
H7 H 0.3302 0.3983 0.3640
C13 C 0.3819(2) 0.50575(19) 0.4051(3)
H8 H 0.3762 0.5098 0.4644
C14 C 0.4189(2) 0.56586(19) 0.3765(3)
H9 H 0.4406 0.6091 0.4196
C15 C 0.3938(2) 0.50112(18) 0.2287(3)
H10 H 0.3948 0.5004 0.1663
Cd1 Cd 0.5000 0.335718(16) 0.7500
N1 N 0.52371(19) 0.23432(15) 0.6595(2)
N2 N 0.36799(19) 0.19389(15) 0.3151(2)
N3 N 0.3305(2) 0.29782(15) 0.2165(2)
N4 N 0.42478(19) 0.56431(15) 0.2894(2)
N5 N 0.2985(2) 0.35024(17) 0.5499(2)
O1 O 0.3781(2) 0.07232(14) 0.3690(2)
O2 O 0.2852(2) 0.38206(15) 0.0841(2)
O3 O 0.37849(19) 0.37383(16) 0.5679(2)
O4 O 0.2974(3) 0.3109(2) 0.6180(3)
O5 O 0.2272(2) 0.3676(3) 0.4660(3)
S1 S 0.50875(6) 0.30173(5) 0.39033(6)
C1A C 0.4070(3) 0.1827(2) 0.7818(3)
H1A H 0.3668 0.1917 0.7095
C2A C 0.3935(3) 0.1176(2) 0.8246(3)
H2A H 0.3457 0.0829 0.7816
C3A C 0.4515(2) 0.10425(18) 0.9319(3)
H3A H 0.4433 0.0607 0.9625
C4A C 0.5222(2) 0.15670(17) 0.9935(3)
C5A C 0.5329(2) 0.22025(17) 0.9444(2)
H4A H 0.5816 0.2547 0.9855
C6A C 0.5922(2) 0.13692(18) 1.1061(3)
C7A C 0.7230(3) 0.1751(2) 1.2835(3)
H5A H 0.7639 0.1341 1.2966
C8A C 0.7331(3) 0.2390(2) 1.3579(3)
H6A H 0.7701 0.2406 1.4317
C9A C 0.5978(2) 0.26479(17) 1.1894(2)
C10A C 0.6746(2) 0.37175(19) 1.3211(3)
C11A C 0.6396(2) 0.43682(18) 1.2453(2)
C12A C 0.6465(2) 0.43984(19) 1.1551(3)
H7A H 0.6698 0.3983 1.1360
C13A C 0.6181(2) 0.50575(19) 1.0949(3)
H8A H 0.6238 0.5098 1.0356
C14A C 0.5811(2) 0.56586(19) 1.1235(3)
H9A H 0.5594 0.6091 1.0804
C15A C 0.6062(2) 0.50112(18) 1.2713(3)
H10A H 0.6052 0.5004 1.3337
Cd1D Cd 0.5000 0.664282(16) 0.2500
Cd1D_2 Cd 0.5000 0.664282(16) 1.2500
N1A N 0.47629(19) 0.23432(15) 0.8405(2)
N2A N 0.63201(19) 0.19389(15) 1.1849(2)
N3A N 0.6695(2) 0.29782(15) 1.2835(2)
N4A N 0.57522(19) 0.56431(15) 1.2106(2)
N4D N 0.57522(19) 0.43569(15) 0.7106(2)
N4E N 0.42478(19) 0.43569(15) 0.7894(2)
N5A N 0.7015(2) 0.35024(17) 0.9501(2)
O1A O 0.6219(2) 0.07232(14) 1.1310(2)
O2A O 0.7148(2) 0.38206(15) 1.4159(2)
O3A O 0.62151(19) 0.37383(16) 0.9321(2)
O4A O 0.7026(3) 0.3109(2) 0.8820(3)
O5A O 0.7728(2) 0.3676(3) 1.0340(3)
S1A S 0.49125(6) 0.30173(5) 1.10967(6)
C16 C 0.3876(6) 0.0255(5) 0.1229(6)
H11 H 0.4372 -0.0072 0.1289
H12 H 0.3319 0.0205 0.0532
H13 H 0.3723 0.0110 0.1751
O6 O 0.4187(5) 0.1010(3) 0.1396(5)
H14 H 0.4537 0.1088 0.2035
loop_
_geom_bond_atom_site_label_1
_geom_bond_atom_site_label_2
_geom_bond_site_symmetry_1
_geom_bond_site_symmetry_2
C1 H1 1_555 1_555
C2 C1 1_555 1_555
H2 C2 1_555 1_555
C3 C2 1_555 1_555
H3 C3 1_555 1_555
C4 C3 1_555 1_555
C5 C4 1_555 1_555
H4 C5 1_555 1_555
C6 C4 1_555 1_555
C7 H5 1_555 1_555
C8 C7 1_555 1_555
H6 C8 1_555 1_555
C9 N2 1_555 1_555
C10 C11 1_555 1_555
C11 C12 1_555 1_555
C12 H7 1_555 1_555
C13 C12 1_555 1_555
H8 C13 1_555 1_555
C14 C13 1_555 1_555
H9 C14 1_555 1_555
C15 C11 1_555 1_555
H10 C15 1_555 1_555
C16 H11 1_555 1_555
H12 C16 1_555 1_555
H13 C16 1_555 1_555
Cd1 N1 1_555 1_555
N1 C1 1_555 1_555
N2 C6 1_555 1_555
N3 C8 1_555 1_555
N4 C14 1_555 1_555
N5 O3 1_555 1_555
O1 C6 1_555 1_555
O2 C10 1_555 1_555
O3 Cd1 1_555 1_555
O4 N5 1_555 1_555
O5 N5 1_555 1_555
O6 C16 1_555 1_555
H14 O6 1_555 1_555
S1 C9 1_555 1_555
C1A H1A 1_555 1_555
C2A C1A 1_555 1_555
H2A C2A 1_555 1_555
C3A C2A 1_555 1_555
H3A C3A 1_555 1_555
C4A C3A 1_555 1_555
C5A C4A 1_555 1_555
H4A C5A 1_555 1_555
C6A C4A 1_555 1_555
C7A H5A 1_555 1_555
C8A C7A 1_555 1_555
H6A C8A 1_555 1_555
C9A N2A 1_555 1_555
C10A C11A 1_555 1_555
C11A C12A 1_555 1_555
C12A H7A 1_555 1_555
C13A C12A 1_555 1_555
H8A C13A 1_555 1_555
C14A C13A 1_555 1_555
H9A C14A 1_555 1_555
C15A C11A 1_555 1_555
H10A C15A 1_555 1_555
Cd1D N4 1_555 1_555
Cd1D_2 N4A 1_555 1_555
N1A Cd1 1_555 1_555
N2A C6A 1_555 1_555
N3A C8A 1_555 1_555
N4A C14A 1_555 1_555
N4D Cd1 1_555 1_555
N4E Cd1 1_555 1_555
N5A O3A 1_555 1_555
O1A C6A 1_555 1_555
O2A C10A 1_555 1_555
O3A Cd1 1_555 1_555
O4A N5A 1_555 1_555
O5A N5A 1_555 1_555
S1A C9A 1_555 1_555
C5 N1 1_555 1_555
C7 N2 1_555 1_555
C9 N3 1_555 1_555
C10 N3 1_555 1_555
C15 N4 1_555 1_555
C1A N1A 1_555 1_555
C5A N1A 1_555 1_555
C7A N2A 1_555 1_555
C9A N3A 1_555 1_555
C10A N3A 1_555 1_555
C15A N4A 1_555 1_555

#END
