
#######################################################################
#
#                 Cambridge Crystallographic Data Centre
#                                CCDC 
#
#######################################################################
#
# If this CIF has been generated from an entry in the Cambridge 
# Structural Database, then it will include bibliographic, chemical, 
# crystal, experimental, refinement or atomic coordinate data resulting 
# from the CCDC's data processing and validation procedures.
#
#######################################################################

data_TEBXOP
_symmetry_cell_setting           monoclinic
_symmetry_space_group_name_H-M   'P 21/c'
_symmetry_Int_Tables_number      14
_space_group_name_Hall           '-P 2ybc'
loop_
_symmetry_equiv_pos_site_id
_symmetry_equiv_pos_as_xyz
1 x,y,z
2 -x,1/2+y,1/2-z
3 -x,-y,-z
4 x,1/2-y,1/2+z
_cell_length_a                   12.041(2)
_cell_length_b                   13.517(3)
_cell_length_c                   9.7299(19)
_cell_angle_alpha                90
_cell_angle_beta                 93.08(3)
_cell_angle_gamma                90
_cell_volume                     1581.33
loop_
_atom_site_label
_atom_site_type_symbol
_atom_site_fract_x
_atom_site_fract_y
_atom_site_fract_z
C1 C 0.9376(3) 0.5879(3) 0.3106(3)
H1 H 1.0090 0.5668 0.3374
C2 C 0.8639(3) 0.6053(3) 0.4113(3)
H2 H 0.8857 0.5979 0.5039
C3 C 0.7564(3) 0.6341(2) 0.3714(3)
C4 C 0.7305(3) 0.6529(2) 0.2340(3)
H3 H 0.6608 0.6773 0.2053
C5 C 0.8096(3) 0.6348(3) 0.1403(4)
H4 H 0.7915 0.6475 0.0478
C6 C 0.6690(3) 0.6503(2) 0.4726(3)
C7 C 0.5864(3) 0.6008(2) 0.6885(3)
H5 H 0.5197 0.6384 0.6639
H6 H 0.6334 0.6391 0.7528
C8 C 0.5582(3) 0.5015(2) 0.7486(3)
H7 H 0.5786 0.4990 0.8464
H8 H 0.4794 0.4873 0.7345
C9 C 0.6659(2) 0.4738(2) 0.5544(3)
C10 C 0.6221(3) 0.3319(2) 0.7058(3)
C11 C 0.7071(3) 0.2617(2) 0.6556(3)
C12 C 0.6747(3) 0.1790(2) 0.5817(3)
H9 H 0.6000 0.1673 0.5583
C13 C 0.7552(3) 0.1137(2) 0.5428(4)
H10 H 0.7326 0.0591 0.4903
C14 C 0.8933(3) 0.2021(2) 0.6536(4)
H11 H 0.9679 0.2095 0.6817
C15 C 0.8188(3) 0.2727(2) 0.6945(4)
H12 H 0.8432 0.3266 0.7473
Cd1 Cd 1.0000 0.5000 0.0000
Cl1 Cl 1.13900(7) 0.44039(7) 0.18670(8)
N1 N 0.9114(2) 0.6000(2) 0.1754(3)
N2 N 0.6463(2) 0.57439(18) 0.5651(3)
N3 N 0.6253(2) 0.43161(18) 0.6716(3)
N4 N 0.8641(2) 0.12406(19) 0.5760(3)
O1 O 0.6210(2) 0.72797(17) 0.4796(2)
O2 O 0.5541(2) 0.30434(17) 0.7845(3)
S1 S 0.71539(8) 0.41366(6) 0.42539(9)
C1B C 1.0624(3) 0.4121(3) -0.3106(3)
H1B H 0.9910 0.4332 -0.3374
C2B C 1.1361(3) 0.3947(3) -0.4113(3)
H2B H 1.1143 0.4021 -0.5039
C3B C 1.2436(3) 0.3659(2) -0.3714(3)
C4B C 1.2695(3) 0.3471(2) -0.2340(3)
H3B H 1.3392 0.3227 -0.2053
C5B C 1.1904(3) 0.3652(3) -0.1403(4)
H4B H 1.2085 0.3525 -0.0478
C6B C 1.3310(3) 0.3497(2) -0.4726(3)
C7B C 1.4136(3) 0.3992(2) -0.6885(3)
H5B H 1.4803 0.3616 -0.6639
H6B H 1.3666 0.3609 -0.7528
C8B C 1.4418(3) 0.4985(2) -0.7486(3)
H7B H 1.4214 0.5010 -0.8464
H8B H 1.5206 0.5127 -0.7345
C9B C 1.3341(2) 0.5262(2) -0.5544(3)
C10B C 1.3779(3) 0.6681(2) -0.7058(3)
C11B C 1.2929(3) 0.7383(2) -0.6556(3)
C12B C 1.3253(3) 0.8210(2) -0.5817(3)
H9B H 1.4000 0.8327 -0.5583
C13B C 1.2448(3) 0.8863(2) -0.5428(4)
H10B H 1.2674 0.9409 -0.4903
C14B C 1.1067(3) 0.7979(2) -0.6536(4)
H11B H 1.0321 0.7905 -0.6817
C15B C 1.1812(3) 0.7273(2) -0.6945(4)
H12B H 1.1568 0.6734 -0.7473
Cd1A Cd 1.0000 0.0000 0.5000
Cd1A_2 Cd 1.0000 1.0000 -0.5000
Cl1B Cl 0.86100(7) 0.55961(7) -0.18670(8)
N1B N 1.0886(2) 0.4000(2) -0.1754(3)
N2B N 1.3537(2) 0.42561(18) -0.5651(3)
N3B N 1.3747(2) 0.56839(18) -0.6716(3)
N4B N 1.1359(2) 0.87594(19) -0.5760(3)
N4A N 1.1359(2) 0.62406(19) -0.0760(3)
N4C N 0.8641(2) 0.37594(19) 0.0760(3)
O1B O 1.3790(2) 0.27203(17) -0.4796(2)
O2B O 1.4459(2) 0.69566(17) -0.7845(3)
S1B S 1.28461(8) 0.58634(6) -0.42539(9)
loop_
_geom_bond_atom_site_label_1
_geom_bond_atom_site_label_2
_geom_bond_site_symmetry_1
_geom_bond_site_symmetry_2
C1 H1 1_555 1_555
C2 C1 1_555 1_555
H2 C2 1_555 1_555
C3 C2 1_555 1_555
C4 C3 1_555 1_555
H3 C4 1_555 1_555
C5 C4 1_555 1_555
H4 C5 1_555 1_555
C6 C3 1_555 1_555
C7 H5 1_555 1_555
H6 C7 1_555 1_555
C8 C7 1_555 1_555
H7 C8 1_555 1_555
H8 C8 1_555 1_555
C9 N2 1_555 1_555
C10 C11 1_555 1_555
C11 C12 1_555 1_555
C12 H9 1_555 1_555
C13 C12 1_555 1_555
H10 C13 1_555 1_555
C14 H11 1_555 1_555
C15 C11 1_555 1_555
H12 C15 1_555 1_555
Cd1 Cl1 1_555 1_555
N1 C1 1_555 1_555
N2 C6 1_555 1_555
N3 C8 1_555 1_555
N4 C13 1_555 1_555
O1 C6 1_555 1_555
O2 C10 1_555 1_555
S1 C9 1_555 1_555
C1B H1B 1_555 1_555
C2B C1B 1_555 1_555
H2B C2B 1_555 1_555
C3B C2B 1_555 1_555
C4B C3B 1_555 1_555
H3B C4B 1_555 1_555
C5B C4B 1_555 1_555
H4B C5B 1_555 1_555
C6B C3B 1_555 1_555
C7B H5B 1_555 1_555
H6B C7B 1_555 1_555
C8B C7B 1_555 1_555
H7B C8B 1_555 1_555
H8B C8B 1_555 1_555
C9B N2B 1_555 1_555
C10B C11B 1_555 1_555
C11B C12B 1_555 1_555
C12B H9B 1_555 1_555
C13B C12B 1_555 1_555
H10B C13B 1_555 1_555
C14B H11B 1_555 1_555
C15B C11B 1_555 1_555
H12B C15B 1_555 1_555
Cd1A N4 1_555 1_555
Cd1A_2 N4B 1_555 1_555
Cl1B Cd1 1_555 1_555
N1B Cd1 1_555 1_555
N2B C6B 1_555 1_555
N3B C8B 1_555 1_555
N4B C13B 1_555 1_555
N4A Cd1 1_555 1_555
N4C Cd1 1_555 1_555
O1B C6B 1_555 1_555
O2B C10B 1_555 1_555
S1B C9B 1_555 1_555
C5 N1 1_555 1_555
C7 N2 1_555 1_555
C9 N3 1_555 1_555
C10 N3 1_555 1_555
C14 C15 1_555 1_555
C14 N4 1_555 1_555
Cd1 N1 1_555 1_555
C1B N1B 1_555 1_555
C5B N1B 1_555 1_555
C7B N2B 1_555 1_555
C9B N3B 1_555 1_555
C10B N3B 1_555 1_555
C14B C15B 1_555 1_555
C14B N4B 1_555 1_555

#END
