
#######################################################################
#
#                 Cambridge Crystallographic Data Centre
#                                CCDC 
#
#######################################################################
#
# If this CIF has been generated from an entry in the Cambridge 
# Structural Database, then it will include bibliographic, chemical, 
# crystal, experimental, refinement or atomic coordinate data resulting 
# from the CCDC's data processing and validation procedures.
#
#######################################################################

data_TEBYEG
_symmetry_cell_setting           triclinic
_symmetry_space_group_name_H-M   'P -1'
_symmetry_Int_Tables_number      2
_space_group_name_Hall           '-P 1'
loop_
_symmetry_equiv_pos_site_id
_symmetry_equiv_pos_as_xyz
1 x,y,z
2 -x,-y,-z
_cell_length_a                   6.3868(15)
_cell_length_b                   10.617(2)
_cell_length_c                   11.481(3)
_cell_angle_alpha                102.618(4)
_cell_angle_beta                 92.528(4)
_cell_angle_gamma                105.538(3)
_cell_volume                     727.57
loop_
_atom_site_label
_atom_site_type_symbol
_atom_site_fract_x
_atom_site_fract_y
_atom_site_fract_z
Co1 Co 1.5000 1.0000 0.5000
Co2 Co 2.11330(9) 2.08526(6) 1.41379(5)
N1 N 2.0554(6) 1.9571(4) 1.2338(3)
O1 O 1.5343(5) 1.1758(3) 0.6307(3)
O2 O 1.2558(5) 1.2416(3) 0.5637(3)
O3 O 1.6477(5) 1.7414(3) 0.9971(3)
O4 O 2.6160(5) 2.0861(3) 1.2038(3)
O5 O 2.4291(5) 2.1070(3) 1.3634(2)
O6 O 1.1677(4) 0.9383(3) 0.4965(3)
O7 O 2.0088(5) 2.2195(3) 1.3278(3)
C1 C 1.4251(7) 1.2591(4) 0.6335(4)
C2 C 1.4962(7) 1.3880(4) 0.7284(4)
C3 C 1.3831(9) 1.4841(5) 0.7321(5)
H1 H 1.2652 1.4676 0.6748
C4 C 1.4430(9) 1.6030(5) 0.8191(5)
H2 H 1.3696 1.6678 0.8193
C5 C 1.6130(7) 1.6244(5) 0.9056(4)
C6 C 1.7262(8) 1.5312(5) 0.9061(4)
H3 H 1.8399 1.5468 0.9657
C7 C 1.6677(8) 1.4134(5) 0.8160(4)
H4 H 1.7452 1.3504 0.8145
C8 C 1.8547(7) 1.8109(4) 1.0519(4)
C9 C 1.8667(7) 1.8781(4) 1.1711(4)
H5 H 1.7393 1.8680 1.2087
C10 C 2.0422(8) 1.8245(5) 0.9945(4)
H6 H 2.0371 1.7810 0.9143
C11 C 2.2376(8) 1.9046(5) 1.0596(4)
H7 H 2.3674 1.9147 1.0243
C12 C 2.2377(7) 1.9696(4) 1.1778(4)
C13 C 2.4462(7) 2.0601(4) 1.2521(4)
C14 C 2.0106(14) 2.3496(7) 1.3882(7)
H8 H 1.8984 2.3443 1.4413
H9 H 1.9842 2.3988 1.3308
H10 H 2.1504 2.3950 1.4338
Co1_2 Co 2.5000 2.0000 1.5000
Co1_3 Co 0.5000 0.0000 -0.5000
Co2A Co 0.88670(9) -0.08526(6) -0.41379(5)
Co2_2 Co 1.11330(9) 1.08526(6) 0.41379(5)
Co2A_2 Co 0.88670(9) 0.91474(6) 0.58621(5)
Co2A_3 Co 1.88670(9) 0.91474(6) 0.58621(5)
Co2_3 Co 2.11330(9) 1.08526(6) 0.41379(5)
N1A N 0.9446(6) 0.0429(4) -0.2338(3)
O1A O 1.4657(5) 0.8242(3) 0.3693(3)
O2A O 1.7442(5) 0.7584(3) 0.4363(3)
O2_2 O 2.2558(5) 2.2416(3) 1.5637(3)
O2A_2 O 0.7442(5) -0.2416(3) -0.5637(3)
O3A O 1.3523(5) 0.2586(3) 0.0029(3)
O4A O 0.3840(5) -0.0861(3) -0.2038(3)
O5A O 0.5709(5) -0.1070(3) -0.3634(2)
O5_2 O 1.4291(5) 1.1070(3) 0.3634(2)
O5A_2 O 1.5709(5) 0.8930(3) 0.6366(2)
O6A O 1.8323(4) 1.0617(3) 0.5035(3)
O6_2 O 2.1677(4) 1.9383(3) 1.4965(3)
O6A_2 O 1.8323(4) 2.0617(3) 1.5035(3)
O6A_3 O 0.8323(4) 0.0617(3) -0.4965(3)
O6_3 O 1.1677(4) -0.0617(3) -0.5035(3)
O7A O 0.9912(5) -0.2195(3) -0.3278(3)
C1A C 1.5749(7) 0.7409(4) 0.3665(4)
C2A C 1.5038(7) 0.6120(4) 0.2716(4)
C3A C 1.6169(9) 0.5159(5) 0.2679(5)
H1A H 1.7348 0.5324 0.3252
C4A C 1.5570(9) 0.3970(5) 0.1809(5)
H2A H 1.6304 0.3322 0.1807
C5A C 1.3870(7) 0.3756(5) 0.0944(4)
C6A C 1.2738(8) 0.4688(5) 0.0939(4)
H3A H 1.1601 0.4532 0.0343
C7A C 1.3323(8) 0.5866(5) 0.1840(4)
H4A H 1.2548 0.6496 0.1855
C8A C 1.1453(7) 0.1891(4) -0.0519(4)
C9A C 1.1333(7) 0.1219(4) -0.1711(4)
H5A H 1.2607 0.1320 -0.2087
C10A C 0.9578(8) 0.1755(5) 0.0055(4)
H6A H 0.9629 0.2190 0.0857
C11A C 0.7624(8) 0.0954(5) -0.0596(4)
H7A H 0.6326 0.0853 -0.0243
C12A C 0.7623(7) 0.0304(4) -0.1778(4)
C13A C 0.5538(7) -0.0601(4) -0.2521(4)
C14A C 0.9894(14) -0.3496(7) -0.3882(7)
H8A H 1.1016 -0.3443 -0.4413
H9A H 1.0158 -0.3988 -0.3308
H10A H 0.8496 -0.3950 -0.4338
loop_
_geom_bond_atom_site_label_1
_geom_bond_atom_site_label_2
_geom_bond_site_symmetry_1
_geom_bond_site_symmetry_2
Co1 O1 1_555 1_555
Co2 N1 1_555 1_555
N1 C9 1_555 1_555
O1 C1 1_555 1_555
O2 C1 1_555 1_555
O3 C5 1_555 1_555
O4 C13 1_555 1_555
O5 Co2 1_555 1_555
O6 Co1 1_555 1_555
O7 Co2 1_555 1_555
C1 C2 1_555 1_555
C2 C3 1_555 1_555
C3 H1 1_555 1_555
C4 C3 1_555 1_555
H2 C4 1_555 1_555
C5 C4 1_555 1_555
C6 C5 1_555 1_555
H3 C6 1_555 1_555
C7 C2 1_555 1_555
H4 C7 1_555 1_555
C8 O3 1_555 1_555
C9 C8 1_555 1_555
H5 C9 1_555 1_555
C10 C8 1_555 1_555
H6 C10 1_555 1_555
C11 C10 1_555 1_555
H7 C11 1_555 1_555
C12 N1 1_555 1_555
C13 O5 1_555 1_555
C14 O7 1_555 1_555
H8 C14 1_555 1_555
H9 C14 1_555 1_555
H10 C14 1_555 1_555
Co1_2 O5 1_555 1_555
Co1_3 O5A 1_555 1_555
Co2A N1A 1_555 1_555
Co2_2 O2 1_555 1_555
Co2A_2 O6 1_555 1_555
Co2A_3 O2A 1_555 1_555
Co2_3 O6A 1_555 1_555
N1A C9A 1_555 1_555
O1A Co1 1_555 1_555
O2A C1A 1_555 1_555
O2_2 Co2 1_555 1_555
O2A_2 Co2A 1_555 1_555
O3A C5A 1_555 1_555
O4A C13A 1_555 1_555
O5A Co2A 1_555 1_555
O5_2 Co1 1_555 1_555
O5A_2 Co1 1_555 1_555
O6A Co1 1_555 1_555
O6_2 Co2 1_555 1_555
O6A_2 Co2 1_555 1_555
O6A_3 Co2A 1_555 1_555
O6_3 Co2A 1_555 1_555
O7A Co2A 1_555 1_555
C1A O1A 1_555 1_555
C2A C1A 1_555 1_555
C3A C2A 1_555 1_555
H1A C3A 1_555 1_555
C4A C3A 1_555 1_555
H2A C4A 1_555 1_555
C5A C4A 1_555 1_555
C6A C5A 1_555 1_555
H3A C6A 1_555 1_555
C7A C2A 1_555 1_555
H4A C7A 1_555 1_555
C8A O3A 1_555 1_555
C9A C8A 1_555 1_555
H5A C9A 1_555 1_555
C10A C8A 1_555 1_555
H6A C10A 1_555 1_555
C11A C10A 1_555 1_555
H7A C11A 1_555 1_555
C12A N1A 1_555 1_555
C13A O5A 1_555 1_555
C14A O7A 1_555 1_555
H8A C14A 1_555 1_555
H9A C14A 1_555 1_555
H10A C14A 1_555 1_555
O6 Co2_2 1_555 1_555
C6 C7 1_555 1_555
C11 C12 1_555 1_555
C12 C13 1_555 1_555
Co2A_3 O6A 1_555 1_555
C6A C7A 1_555 1_555
C11A C12A 1_555 1_555
C12A C13A 1_555 1_555

#END
