
#######################################################################
#
#                 Cambridge Crystallographic Data Centre
#                                CCDC 
#
#######################################################################
#
# If this CIF has been generated from an entry in the Cambridge 
# Structural Database, then it will include bibliographic, chemical, 
# crystal, experimental, refinement or atomic coordinate data resulting 
# from the CCDC's data processing and validation procedures.
#
#######################################################################

data_TEBYOQ
_symmetry_cell_setting           monoclinic
_symmetry_space_group_name_H-M   'C 2/c'
_symmetry_Int_Tables_number      15
_space_group_name_Hall           '-C 2yn'
loop_
_symmetry_equiv_pos_site_id
_symmetry_equiv_pos_as_xyz
1 x,y,z
2 -x,y,1/2-z
3 1/2+x,1/2+y,z
4 1/2-x,1/2+y,1/2-z
5 -x,-y,-z
6 x,-y,1/2+z
7 1/2-x,1/2-y,-z
8 1/2+x,1/2-y,1/2+z
_cell_length_a                   21.995(4)
_cell_length_b                   6.7219(13)
_cell_length_c                   13.249(3)
_cell_angle_alpha                90
_cell_angle_beta                 106.96(3)
_cell_angle_gamma                90
_cell_volume                     1873.65
loop_
_atom_site_label
_atom_site_type_symbol
_atom_site_fract_x
_atom_site_fract_y
_atom_site_fract_z
Sm1 Sm 0.146094(10) 0.07866(3) 0.115004(14)
C1 C 0.0888(2) 0.4745(6) 0.2579(3)
H1 H 0.0689 0.5523 0.1996
C2 C 0.13503(19) 0.2316(6) 0.3556(3)
C3 C 0.1292(2) 0.3810(6) 0.4236(3)
C4 C 0.1652(2) 0.0305(6) 0.3733(3)
C5 C 0.15387(19) 0.4118(6) 0.5400(3)
C6 C -0.0003(2) -0.0744(7) 0.0432(3)
N1 N 0.11041(17) 0.2937(5) 0.2523(3)
N2 N 0.09916(18) 0.5328(5) 0.3584(3)
H2 H 0.0887 0.6461 0.3786
O1 O 0.15753(17) 0.5863(5) 0.5724(2)
O2 O 0.17072(17) 0.2646(5) 0.5988(2)
O3 O 0.18031(17) -0.0485(5) 0.4616(2)
O4 O 0.17326(16) -0.0499(4) 0.2922(2)
O5 O 0.25921(17) 0.1118(5) 0.1898(3)
O6 O -0.05347(17) -0.1564(6) 0.0342(3)
O7 O 0.05004(17) -0.1057(6) 0.1144(3)
H3 H 0.279(3) 0.204(6) 0.177(5)
H4 H 0.270(3) 0.135(11) 0.2509(16)
Sm1D Sm -0.146094(10) -0.07866(3) -0.115004(14)
Sm1A Sm -0.146094(10) -0.92134(3) -0.615004(14)
Sm1A_2 Sm -0.146094(10) 0.07866(3) -0.615004(14)
Sm1E Sm 0.146094(10) -0.07866(3) 0.615004(14)
Sm1E_2 Sm 0.146094(10) 0.92134(3) 0.615004(14)
C1D C -0.0888(2) -0.4745(6) -0.2579(3)
H1D H -0.0689 -0.5523 -0.1996
C2D C -0.13503(19) -0.2316(6) -0.3556(3)
C3D C -0.1292(2) -0.3810(6) -0.4236(3)
C4D C -0.1652(2) -0.0305(6) -0.3733(3)
C5D C -0.15387(19) -0.4118(6) -0.5400(3)
C6D C 0.0003(2) 0.0744(7) -0.0432(3)
N1D N -0.11041(17) -0.2937(5) -0.2523(3)
N2D N -0.09916(18) -0.5328(5) -0.3584(3)
H2D H -0.0887 -0.6461 -0.3786
O1D O -0.15753(17) -0.5863(5) -0.5724(2)
O1A O -0.15753(17) -0.4137(5) -0.0724(2)
O1E O 0.15753(17) 0.4137(5) 0.0724(2)
O2D O -0.17072(17) -0.2646(5) -0.5988(2)
O2A O -0.17072(17) 0.2646(5) -0.0988(2)
O2E O 0.17072(17) -0.2646(5) 0.0988(2)
O3D O -0.18031(17) 0.0485(5) -0.4616(2)
O3A O -0.18031(17) -0.0485(5) 0.0384(2)
O3E O 0.18031(17) 0.0485(5) -0.0384(2)
O4D O -0.17326(16) 0.0499(4) -0.2922(2)
O5D O -0.25921(17) -0.1118(5) -0.1898(3)
O6D O 0.05347(17) 0.1564(6) -0.0342(3)
O7D O -0.05004(17) 0.1057(6) -0.1144(3)
H3D H -0.279(3) -0.204(6) -0.177(5)
H4D H -0.270(3) -0.135(11) -0.2509(16)
loop_
_geom_bond_atom_site_label_1
_geom_bond_atom_site_label_2
_geom_bond_site_symmetry_1
_geom_bond_site_symmetry_2
Sm1 N1 1_555 1_555
C1 H1 1_555 1_555
C2 C3 1_555 1_555
C3 C5 1_555 1_555
C4 C2 1_555 1_555
C5 O1 1_555 1_555
C6 O6 1_555 1_555
N1 C1 1_555 1_555
N2 C1 1_555 1_555
H2 N2 1_555 1_555
O1 Sm1E_2 1_555 1_555
O2 C5 1_555 1_555
O3 C4 1_555 1_555
O4 Sm1 1_555 1_555
O5 Sm1 1_555 1_555
O6 Sm1D 1_555 1_555
O7 Sm1 1_555 1_555
H3 O5 1_555 1_555
H4 O5 1_555 1_555
Sm1D N1D 1_555 1_555
Sm1A O1D 1_555 1_555
Sm1A_2 O2D 1_555 1_555
Sm1E O2 1_555 1_555
C1D H1D 1_555 1_555
C2D C3D 1_555 1_555
C3D C5D 1_555 1_555
C4D C2D 1_555 1_555
C5D O1D 1_555 1_555
C6D C6 1_555 1_555
N1D C1D 1_555 1_555
N2D C1D 1_555 1_555
H2D N2D 1_555 1_555
O1A Sm1D 1_555 1_555
O1E Sm1 1_555 1_555
O2D C5D 1_555 1_555
O2A Sm1D 1_555 1_555
O2E Sm1 1_555 1_555
O3D Sm1A_2 1_555 1_555
O3A Sm1D 1_555 1_555
O3E Sm1 1_555 1_555
O4D Sm1D 1_555 1_555
O5D Sm1D 1_555 1_555
O6D Sm1 1_555 1_555
O7D Sm1D 1_555 1_555
H3D O5D 1_555 1_555
H4D O5D 1_555 1_555
C2 N1 1_555 1_555
C3 N2 1_555 1_555
C4 O4 1_555 1_555
C6 O7 1_555 1_555
O3 Sm1E 1_555 1_555
C2D N1D 1_555 1_555
C3D N2D 1_555 1_555
C4D O3D 1_555 1_555
C4D O4D 1_555 1_555
C6D O6D 1_555 1_555
C6D O7D 1_555 1_555

#END
