
#######################################################################
#
#                 Cambridge Crystallographic Data Centre
#                                CCDC 
#
#######################################################################
#
# If this CIF has been generated from an entry in the Cambridge 
# Structural Database, then it will include bibliographic, chemical, 
# crystal, experimental, refinement or atomic coordinate data resulting 
# from the CCDC's data processing and validation procedures.
#
#######################################################################

data_TEBYUU01
_symmetry_cell_setting           monoclinic
_symmetry_space_group_name_H-M   'P 21/n'
_symmetry_Int_Tables_number      14
_space_group_name_Hall           '-P 2yn'
loop_
_symmetry_equiv_pos_site_id
_symmetry_equiv_pos_as_xyz
1 x,y,z
2 1/2-x,1/2+y,1/2-z
3 -x,-y,-z
4 1/2+x,1/2-y,1/2+z
_cell_length_a                   6.6163(14)
_cell_length_b                   14.174(2)
_cell_length_c                   8.5821(14)
_cell_angle_alpha                90
_cell_angle_beta                 97.62(2)
_cell_angle_gamma                90
_cell_volume                     797.717
loop_
_atom_site_label
_atom_site_type_symbol
_atom_site_fract_x
_atom_site_fract_y
_atom_site_fract_z
Cu1 Cu 1.5000 0.5000 0.5000
O2 O 1.3250(4) 0.3896(2) 0.4639(3)
O3 O 1.0328(5) 0.3434(2) 0.3268(4)
O4 O 1.6283(5) 0.4561(2) 0.2613(3)
O5 O 1.7605(5) 0.4369(2) 0.0392(3)
N1 N 1.2677(4) 0.5645(2) 0.3701(3)
N2 N 0.9130(5) 0.6248(2) 0.1912(4)
C1 C 1.1611(6) 0.4031(2) 0.3733(4)
C2 C 1.1192(5) 0.5042(3) 0.3206(4)
C3 C 1.2424(6) 0.6551(3) 0.3306(4)
C4 C 1.0630(7) 0.6841(3) 0.2407(5)
C5 C 0.9406(6) 0.5337(2) 0.2319(4)
C6 C 1.7601(6) 0.4699(2) 0.1805(4)
H3 H 1.634(12) 0.3884(54) 0.0210(83)
H4 H 1.3444(6) 0.6987(3) 0.3631(4)
H5 H 1.0475(7) 0.7476(3) 0.2141(5)
O2B O 1.6750(4) 0.6104(2) 0.5361(3)
N1B N 1.7323(4) 0.4355(2) 0.6299(3)
C5_2 C 1.9406(6) 0.5337(2) 0.2319(4)
N2_2 N 1.9130(5) 0.6248(2) 0.1912(4)
C4_2 C 2.0630(7) 0.6841(3) 0.2407(5)
C3_2 C 2.2424(6) 0.6551(3) 0.3306(4)
N1_2 N 2.2677(4) 0.5645(2) 0.3701(3)
Cu1_2 Cu 2.5000 0.5000 0.5000
C2_2 C 2.1192(5) 0.5042(3) 0.3206(4)
C1_2 C 2.1611(6) 0.4031(2) 0.3733(4)
O2_2 O 2.3250(4) 0.3896(2) 0.4639(3)
O3_2 O 2.0328(5) 0.3434(2) 0.3268(4)
H4_2 H 2.3444(6) 0.6987(3) 0.3631(4)
H5_2 H 2.0475(7) 0.7476(3) 0.2141(5)
O4B O 1.3717(5) 0.5439(2) 0.7387(3)
Cu1B Cu 0.5000 0.5000 0.5000
C6_2 C 0.7601(6) 0.4699(2) 0.1805(4)
O4_2 O 0.6283(5) 0.4561(2) 0.2613(3)
O5_2 O 0.7605(5) 0.4369(2) 0.0392(3)
H3_2 H 0.634(12) 0.3884(54) 0.0210(83)
O1 O 0.4754(6) 0.3217(3) -0.0334(4)
H1 H 0.3610(95) 0.3349(41) -0.0754(67)
H2 H 0.4988(80) 0.2811(33) -0.0704(55)
loop_
_geom_bond_atom_site_label_1
_geom_bond_atom_site_label_2
_geom_bond_site_symmetry_1
_geom_bond_site_symmetry_2
Cu1 O2 1_555 1_555
O1 H1 1_555 1_555
O2 C1 1_555 1_555
O3 C1 1_555 1_555
O4 Cu1 1_555 1_555
O5 C6 1_555 1_555
N1 Cu1 1_555 1_555
N2 C4 1_555 1_555
C1 C2 1_555 1_555
C2 N1 1_555 1_555
C3 N1 1_555 1_555
C4 C3 1_555 1_555
C5 N2 1_555 1_555
C6 O4 1_555 1_555
H2 O1 1_555 1_555
H3 O5 1_555 1_555
H4 C3 1_555 1_555
H5 C4 1_555 1_555
O2B Cu1 1_555 1_555
N1B Cu1 1_555 1_555
C5_2 C6 1_555 1_555
N2_2 C5_2 1_555 1_555
C4_2 N2_2 1_555 1_555
C3_2 C4_2 1_555 1_555
N1_2 C3_2 1_555 1_555
Cu1_2 N1_2 1_555 1_555
C2_2 C5_2 1_555 1_555
C1_2 C2_2 1_555 1_555
O2_2 Cu1_2 1_555 1_555
O3_2 C1_2 1_555 1_555
H4_2 C3_2 1_555 1_555
H5_2 C4_2 1_555 1_555
O4B Cu1 1_555 1_555
Cu1B O4_2 1_555 1_555
C6_2 C5 1_555 1_555
O4_2 C6_2 1_555 1_555
O5_2 C6_2 1_555 1_555
H3_2 O5_2 1_555 1_555
C2 C5 1_555 1_555
N1_2 C2_2 1_555 1_555
C1_2 O2_2 1_555 1_555

#END
