
#######################################################################
#
#                 Cambridge Crystallographic Data Centre
#                                CCDC 
#
#######################################################################
#
# If this CIF has been generated from an entry in the Cambridge 
# Structural Database, then it will include bibliographic, chemical, 
# crystal, experimental, refinement or atomic coordinate data resulting 
# from the CCDC's data processing and validation procedures.
#
#######################################################################

data_TEBYUU
_symmetry_cell_setting           monoclinic
_symmetry_space_group_name_H-M   'P 21/n'
_symmetry_Int_Tables_number      14
_space_group_name_Hall           '-P 2yn'
loop_
_symmetry_equiv_pos_site_id
_symmetry_equiv_pos_as_xyz
1 x,y,z
2 1/2-x,1/2+y,1/2-z
3 -x,-y,-z
4 1/2+x,1/2-y,1/2+z
_cell_length_a                   6.598(1)
_cell_length_b                   14.198(2)
_cell_length_c                   8.586(2)
_cell_angle_alpha                90
_cell_angle_beta                 97.65(2)
_cell_angle_gamma                90
_cell_volume                     797.164
loop_
_atom_site_label
_atom_site_type_symbol
_atom_site_fract_x
_atom_site_fract_y
_atom_site_fract_z
Cu1 Cu 0.5000 0.5000 0.5000
O1 O 0.3257(2) 0.61064(10) 0.4632(2)
O2 O 0.0332(3) 0.65714(11) 0.3251(2)
O3 O 0.7607(3) 0.56273(12) 0.0387(2)
O4 O 0.6282(2) 0.54346(13) 0.2606(2)
N1 N 0.2678(2) 0.43498(12) 0.3705(2)
N2 N -0.0879(3) 0.37517(12) 0.1931(2)
C1 C 0.1181(3) 0.4967(2) 0.3213(2)
C2 C -0.0598(3) 0.46575(14) 0.2324(2)
C3 C 0.0627(4) 0.3156(2) 0.2422(3)
C4 C 0.2420(3) 0.3448(2) 0.3317(3)
C5 C 0.1609(3) 0.59702(14) 0.3722(2)
C6 C 0.7605(3) 0.53027(15) 0.1803(2)
H1 H 0.646(6) 0.612(3) 0.024(5)
H2 H 0.029(3) 0.251(2) 0.213(2)
H3 H 0.347(3) 0.305(2) 0.362(2)
O1B O 0.6743(2) 0.38936(10) 0.5368(2)
N1B N 0.7322(2) 0.56502(12) 0.6295(2)
C2_2 C 0.9402(3) 0.46575(14) 0.2324(2)
N2_2 N 0.9121(3) 0.37517(12) 0.1931(2)
C3_2 C 1.0627(4) 0.3156(2) 0.2422(3)
C4_2 C 1.2420(3) 0.3448(2) 0.3317(3)
N1_2 N 1.2678(2) 0.43498(12) 0.3705(2)
Cu1_2 Cu 1.5000 0.5000 0.5000
C1_2 C 1.1181(3) 0.4967(2) 0.3213(2)
C5_2 C 1.1609(3) 0.59702(14) 0.3722(2)
O1_2 O 1.3257(2) 0.61064(10) 0.4632(2)
O2_2 O 1.0332(3) 0.65714(11) 0.3251(2)
H3_2 H 1.347(3) 0.305(2) 0.362(2)
H2_2 H 1.029(3) 0.251(2) 0.213(2)
O4B O 0.3718(2) 0.45654(13) 0.7394(2)
Cu1B Cu -0.5000 0.5000 0.5000
C6_2 C -0.2395(3) 0.53027(15) 0.1803(2)
O3_2 O -0.2393(3) 0.56273(12) 0.0387(2)
H1_2 H -0.354(6) 0.612(3) 0.024(5)
O4_2 O -0.3718(2) 0.54346(13) 0.2606(2)
O5 O -0.5243(3) 0.67833(14) -0.0342(2)
H4 H -0.504(4) 0.716(2) -0.073(3)
H5 H -0.646(5) 0.659(2) -0.092(4)
loop_
_geom_bond_atom_site_label_1
_geom_bond_atom_site_label_2
_geom_bond_site_symmetry_1
_geom_bond_site_symmetry_2
Cu1 O1 1_555 1_555
O1 C5 1_555 1_555
O2 C5 1_555 1_555
O3 C6 1_555 1_555
O4 Cu1 1_555 1_555
N1 Cu1 1_555 1_555
N2 C2 1_555 1_555
C1 N1 1_555 1_555
C2 C1 1_555 1_555
C3 N2 1_555 1_555
C4 N1 1_555 1_555
C5 C1 1_555 1_555
C6 O4 1_555 1_555
H1 O3 1_555 1_555
H2 C3 1_555 1_555
H3 C4 1_555 1_555
O5 H4 1_555 1_555
H5 O5 1_555 1_555
O1B Cu1 1_555 1_555
N1B Cu1 1_555 1_555
C2_2 C6 1_555 1_555
N2_2 C2_2 1_555 1_555
C3_2 N2_2 1_555 1_555
C4_2 C3_2 1_555 1_555
N1_2 C4_2 1_555 1_555
Cu1_2 N1_2 1_555 1_555
C1_2 C2_2 1_555 1_555
C5_2 C1_2 1_555 1_555
O1_2 Cu1_2 1_555 1_555
O2_2 C5_2 1_555 1_555
H3_2 C4_2 1_555 1_555
H2_2 C3_2 1_555 1_555
O4B Cu1 1_555 1_555
Cu1B O4_2 1_555 1_555
C6_2 C2 1_555 1_555
O3_2 C6_2 1_555 1_555
H1_2 O3_2 1_555 1_555
O4_2 C6_2 1_555 1_555
C3 C4 1_555 1_555
N1_2 C1_2 1_555 1_555
C5_2 O1_2 1_555 1_555

#END
