
#######################################################################
#
#                 Cambridge Crystallographic Data Centre
#                                CCDC 
#
#######################################################################
#
# If this CIF has been generated from an entry in the Cambridge 
# Structural Database, then it will include bibliographic, chemical, 
# crystal, experimental, refinement or atomic coordinate data resulting 
# from the CCDC's data processing and validation procedures.
#
#######################################################################

data_TEBZUW
_symmetry_cell_setting           monoclinic
_symmetry_space_group_name_H-M   'P 21/n'
_symmetry_Int_Tables_number      14
_space_group_name_Hall           '-P 2yn'
loop_
_symmetry_equiv_pos_site_id
_symmetry_equiv_pos_as_xyz
1 x,y,z
2 1/2-x,1/2+y,1/2-z
3 -x,-y,-z
4 1/2+x,1/2-y,1/2+z
_cell_length_a                   10.530(2)
_cell_length_b                   16.060(3)
_cell_length_c                   13.260(3)
_cell_angle_alpha                90
_cell_angle_beta                 102.79(3)
_cell_angle_gamma                90
_cell_volume                     2186.78
loop_
_atom_site_label
_atom_site_type_symbol
_atom_site_fract_x
_atom_site_fract_y
_atom_site_fract_z
Mn1 Mn 0.45395(8) 0.04960(5) 0.89172(6)
Mn2 Mn 0.75858(8) -0.00475(6) 0.97847(7)
O1 O 0.5991(4) 0.0518(2) 1.0428(3)
O2 O 0.3267(4) 0.1015(2) 0.9468(3)
O3 O 0.5932(4) 0.0024(2) 0.8448(3)
N1 N 0.7972(5) 0.1327(3) 0.9947(4)
N2 N 0.4816(4) 0.1702(3) 0.8469(3)
N3 N 0.3558(4) 0.0162(3) 0.7312(3)
N4 N 0.8773(5) -0.0458(3) 0.8791(4)
N5 N 0.9824(6) -0.0182(3) 0.8781(4)
N6 N 1.0848(5) 0.0080(3) 0.8761(4)
C1 C 0.4016(6) -0.0439(4) 0.5788(5)
H1 H 0.4594 -0.0715 0.5465
C2 C 0.4387(6) -0.0215(4) 0.6825(5)
C3 C 0.3926(6) 0.2238(4) 0.8697(4)
C4 C 0.2773(7) -0.0244(4) 0.5247(5)
H2 H 0.2510 -0.0381 0.4550
C5 C 0.2335(6) 0.0349(4) 0.6782(5)
H3 H 0.1764 0.0613 0.7123
C6 C 0.5744(6) -0.0385(4) 0.7481(5)
H4 H 0.5858 -0.0980 0.7591
H5 H 0.6392 -0.0194 0.7115
C7 C 0.7573(6) 0.2598(4) 1.0776(5)
H6 H 0.7077 0.2895 1.1152
C8 C 0.8941(6) 0.1712(4) 0.9604(5)
H7 H 0.9395 0.1414 0.9196
C9 C 0.1923(6) 0.0155(4) 0.5746(5)
H8 H 0.1086 0.0290 0.5389
C10 C 0.5742(5) 0.1991(4) 0.8006(4)
H9 H 0.6342 0.1618 0.7845
C11 C 0.3968(6) 0.3075(4) 0.8468(5)
H10 H 0.3351 0.3439 0.8623
C12 C 0.2912(6) 0.1856(4) 0.9197(5)
H11 H 0.2855 0.2169 0.9811
H12 H 0.2067 0.1871 0.8721
C13 C 0.8594(6) 0.2970(4) 1.0447(5)
H13 H 0.8822 0.3517 1.0633
C14 C 0.9277(6) 0.2529(4) 0.9840(5)
H14 H 0.9948 0.2779 0.9598
C15 C 0.5837(6) 0.2808(4) 0.7766(5)
H15 H 0.6490 0.2990 0.7448
C16 C 0.4939(6) 0.3366(4) 0.8005(5)
H16 H 0.4990 0.3929 0.7856
C17 C 0.7312(5) 0.1764(4) 1.0526(4)
C18 C 0.6274(6) 0.1312(4) 1.0931(4)
H17 H 0.6566 0.1230 1.1671
H18 H 0.5488 0.1647 1.0811
Mn1B Mn 0.54605(8) -0.04960(5) 1.10828(6)
Mn2B Mn 0.24142(8) 0.00475(6) 1.02153(7)
Mn2B_2 Mn 1.24142(8) 0.00475(6) 1.02153(7)
O1B O 0.4009(4) -0.0518(2) 0.9572(3)
O2B O 0.6733(4) -0.1015(2) 1.0532(3)
N6B N 0.9152(5) -0.0080(3) 1.1239(4)
Cl1 Cl 0.90658(15) 0.18110(12) 0.67768(12)
O4 O 0.9491(4) 0.1592(3) 0.5863(3)
O5 O 0.8458(5) 0.1132(4) 0.7153(4)
O6 O 1.0187(8) 0.2071(7) 0.7510(6)
O7 O 0.8208(8) 0.2530(5) 0.6570(6)
O8? O 0.772(4) 0.195(3) 0.625(3)
O9? O 0.964(8) 0.226(4) 0.758(5)
loop_
_geom_bond_atom_site_label_1
_geom_bond_atom_site_label_2
_geom_bond_site_symmetry_1
_geom_bond_site_symmetry_2
Mn1 O1 1_555 1_555
Mn2 O1 1_555 1_555
O1 C18 1_555 1_555
O2 Mn1 1_555 1_555
O3 Mn1 1_555 1_555
N1 Mn2 1_555 1_555
N2 Mn1 1_555 1_555
N3 Mn1 1_555 1_555
N4 Mn2 1_555 1_555
N5 N4 1_555 1_555
N6 N5 1_555 1_555
C1 H1 1_555 1_555
C2 N3 1_555 1_555
C3 N2 1_555 1_555
C4 C1 1_555 1_555
H2 C4 1_555 1_555
C5 N3 1_555 1_555
H3 C5 1_555 1_555
C6 O3 1_555 1_555
H4 C6 1_555 1_555
H5 C6 1_555 1_555
C7 H6 1_555 1_555
C8 N1 1_555 1_555
H7 C8 1_555 1_555
C9 C4 1_555 1_555
H8 C9 1_555 1_555
C10 N2 1_555 1_555
H9 C10 1_555 1_555
C11 C3 1_555 1_555
H10 C11 1_555 1_555
C12 O2 1_555 1_555
H11 C12 1_555 1_555
H12 C12 1_555 1_555
C13 C7 1_555 1_555
H13 C13 1_555 1_555
C14 C8 1_555 1_555
H14 C14 1_555 1_555
C15 C10 1_555 1_555
H15 C15 1_555 1_555
C16 C11 1_555 1_555
H16 C16 1_555 1_555
C17 N1 1_555 1_555
C18 C17 1_555 1_555
H17 C18 1_555 1_555
H18 C18 1_555 1_555
Cl1 O4 1_555 1_555
O5 Cl1 1_555 1_555
O6 Cl1 1_555 1_555
O7 Cl1 1_555 1_555
Mn1B O1 1_555 1_555
Mn2B O2 1_555 1_555
Mn2B_2 N6 1_555 1_555
O1B Mn1 1_555 1_555
O2B Mn2 1_555 1_555
N6B Mn2 1_555 1_555
Mn2 O3 1_555 1_555
C1 C2 1_555 1_555
C2 C6 1_555 1_555
C3 C12 1_555 1_555
C5 C9 1_555 1_555
C7 C17 1_555 1_555
C13 C14 1_555 1_555
C15 C16 1_555 1_555
Mn1B O1B 1_555 1_555
Mn1B O2B 1_555 1_555
Mn2B O1B 1_555 1_555

#END
