
#######################################################################
#
#                 Cambridge Crystallographic Data Centre
#                                CCDC 
#
#######################################################################
#
# If this CIF has been generated from an entry in the Cambridge 
# Structural Database, then it will include bibliographic, chemical, 
# crystal, experimental, refinement or atomic coordinate data resulting 
# from the CCDC's data processing and validation procedures.
#
#######################################################################

data_TEBZAB01
_symmetry_cell_setting           monoclinic
_symmetry_space_group_name_H-M   'C 2/c'
_symmetry_Int_Tables_number      15
_space_group_name_Hall           '-C 2yn'
loop_
_symmetry_equiv_pos_site_id
_symmetry_equiv_pos_as_xyz
1 x,y,z
2 -x,y,1/2-z
3 1/2+x,1/2+y,z
4 1/2-x,1/2+y,1/2-z
5 -x,-y,-z
6 x,-y,1/2+z
7 1/2-x,1/2-y,-z
8 1/2+x,1/2-y,1/2+z
_cell_length_a                   12.5445(4)
_cell_length_b                   7.3874(3)
_cell_length_c                   11.8763(6)
_cell_angle_alpha                90
_cell_angle_beta                 111.118(1)
_cell_angle_gamma                90
_cell_volume                     1026.68
loop_
_atom_site_label
_atom_site_type_symbol
_atom_site_fract_x
_atom_site_fract_y
_atom_site_fract_z
Co1 Co 0.25000 0.25000 1.00000
O1 O 0.01710(9) -0.15324(14) 0.87713(9)
O2 O 0.17886(8) -0.00512(13) 0.97568(9)
O3 O 0.31942(9) 0.18767(16) 0.86819(9)
H1 H 0.3828 0.2381 0.877
H2 H 0.2755 0.2174 0.7975
N1 N 0.09054(11) 0.29684(18) 0.85822(11)
C1 C 0.08141(12) -0.0226(2) 0.89094(12)
C2 C 0.04226(12) 0.1401(2) 0.80738(13)
C3 C 0.04797(13) 0.4521(2) 0.80244(13)
H3 H 0.0838 0.5634 0.8349
O1A O -0.01710(9) -0.15324(14) 0.62287(9)
O2A O -0.17886(8) -0.00512(13) 0.52432(9)
N1A N -0.09054(11) 0.29684(18) 0.64178(11)
C1A C -0.08141(12) -0.0226(2) 0.60906(12)
C2A C -0.04226(12) 0.1401(2) 0.69262(13)
C3A C -0.04797(13) 0.4521(2) 0.69756(13)
H3A H -0.0838 0.5634 0.6651
O3F O 0.18058(9) 0.31233(16) 1.13181(9)
H1F H 0.1172 0.2619 1.123
H2F H 0.2245 0.2826 1.2025
Co1A Co -0.25000 0.25000 0.50000
O2F O 0.32114(8) 0.50512(13) 1.02432(9)
N1F N 0.40946(11) 0.20316(18) 1.14178(11)
O4 O 0.31784(11) 0.22553(16) 0.35309(11)
H4 H 0.3208 0.2954 0.411
H5 H 0.3124 0.1177 0.3754
loop_
_geom_bond_atom_site_label_1
_geom_bond_atom_site_label_2
_geom_bond_site_symmetry_1
_geom_bond_site_symmetry_2
Co1 O2 1_555 1_555
O1 C1 1_555 1_555
O2 C1 1_555 1_555
O3 Co1 1_555 1_555
H1 O3 1_555 1_555
H2 O3 1_555 1_555
N1 Co1 1_555 1_555
C1 C2 1_555 1_555
C2 N1 1_555 1_555
C3 N1 1_555 1_555
H3 C3 1_555 1_555
O4 H4 1_555 1_555
H5 O4 1_555 1_555
O1A C1A 1_555 1_555
O2A C1A 1_555 1_555
N1A C2A 1_555 1_555
C1A C2A 1_555 1_555
C2A C2 1_555 1_555
C3A C3 1_555 1_555
H3A C3A 1_555 1_555
O3F Co1 1_555 1_555
H1F O3F 1_555 1_555
H2F O3F 1_555 1_555
Co1A O2A 1_555 1_555
O2F Co1 1_555 1_555
N1F Co1 1_555 1_555
N1A C3A 1_555 1_555
N1A Co1A 1_555 1_555

#END
