
#######################################################################
#
#                 Cambridge Crystallographic Data Centre
#                                CCDC 
#
#######################################################################
#
# If this CIF has been generated from an entry in the Cambridge 
# Structural Database, then it will include bibliographic, chemical, 
# crystal, experimental, refinement or atomic coordinate data resulting 
# from the CCDC's data processing and validation procedures.
#
#######################################################################

data_TEBZIJ
_symmetry_cell_setting           monoclinic
_symmetry_space_group_name_H-M   'C 2/c'
_symmetry_Int_Tables_number      15
_space_group_name_Hall           '-C 2yn'
loop_
_symmetry_equiv_pos_site_id
_symmetry_equiv_pos_as_xyz
1 x,y,z
2 -x,y,1/2-z
3 1/2+x,1/2+y,z
4 1/2-x,1/2+y,1/2-z
5 -x,-y,-z
6 x,-y,1/2+z
7 1/2-x,1/2-y,-z
8 1/2+x,1/2-y,1/2+z
_cell_length_a                   12.784(2)
_cell_length_b                   7.527(2)
_cell_length_c                   12.323(2)
_cell_angle_alpha                90
_cell_angle_beta                 116.150(7)
_cell_angle_gamma                90
_cell_volume                     1064.41
loop_
_atom_site_label
_atom_site_type_symbol
_atom_site_fract_x
_atom_site_fract_y
_atom_site_fract_z
Cu1 Cu 0.2500 0.2500 0.5000
O1 O 0.30347(12) 0.0055(2) 0.51917(12)
O2 O 0.45958(13) -0.1597(2) 0.62139(15)
O3 O 0.6684(2) 0.3180(3) 1.1437(2)
N1 N 0.40315(13) 0.2883(2) 0.64320(13)
C1 C 0.4533(2) 0.1332(2) 0.6928(2)
C2 C 0.4481(2) 0.4412(3) 0.6969(2)
C3 C 0.4029(2) -0.0239(3) 0.6072(2)
H1 H 0.713(3) 0.287(5) 1.206(3)
H2 H 0.610(3) 0.273(4) 1.136(3)
H3 H 0.590(2) 0.542(3) 0.843(2)
C2A C 0.5519(2) 0.4412(3) 0.8031(2)
N1A N 0.59685(13) 0.2883(2) 0.85680(13)
Cu1G Cu 0.7500 0.2500 1.0000
O1A O 0.69653(12) 0.0055(2) 0.98083(12)
C3A C 0.5971(2) -0.0239(3) 0.8928(2)
O2A O 0.54042(13) -0.1597(2) 0.87861(15)
C1A C 0.5467(2) 0.1332(2) 0.8072(2)
O1G O 0.80347(12) 0.4945(2) 1.01917(12)
N1G N 0.90315(13) 0.2117(2) 1.14320(13)
O3F O 0.8316(2) 0.1820(3) 0.8563(2)
H1F H 0.787(3) 0.213(5) 0.794(3)
H2F H 0.890(3) 0.227(4) 0.864(3)
H3A H 0.410(2) 0.542(3) 0.657(2)
O4 O 0.3376(2) 0.2972(3) 0.8605(2)
H4 H 0.340(3) 0.250(4) 0.908(3)
H5 H 0.332(4) 0.388(5) 0.873(4)
loop_
_geom_bond_atom_site_label_1
_geom_bond_atom_site_label_2
_geom_bond_site_symmetry_1
_geom_bond_site_symmetry_2
Cu1 O1 1_555 1_555
O1 C3 1_555 1_555
O2 C3 1_555 1_555
O3 H1 1_555 1_555
N1 Cu1 1_555 1_555
C1 N1 1_555 1_555
C2 N1 1_555 1_555
C3 C1 1_555 1_555
H2 O3 1_555 1_555
H3 C2A 1_555 1_555
O4 H4 1_555 1_555
H5 O4 1_555 1_555
C2A C2 1_555 1_555
N1A C2A 1_555 1_555
Cu1G O3 1_555 1_555
O1A Cu1G 1_555 1_555
C3A O1A 1_555 1_555
O2A C3A 1_555 1_555
C1A C1 1_555 1_555
O1G Cu1G 1_555 1_555
N1G Cu1G 1_555 1_555
O3F Cu1G 1_555 1_555
H1F O3F 1_555 1_555
H2F O3F 1_555 1_555
H3A C2 1_555 1_555
N1A Cu1G 1_555 1_555
N1A C1A 1_555 1_555
C3A C1A 1_555 1_555

#END
