
#######################################################################
#
#                 Cambridge Crystallographic Data Centre
#                                CCDC 
#
#######################################################################
#
# If this CIF has been generated from an entry in the Cambridge 
# Structural Database, then it will include bibliographic, chemical, 
# crystal, experimental, refinement or atomic coordinate data resulting 
# from the CCDC's data processing and validation procedures.
#
#######################################################################

data_TEBZUX
_symmetry_cell_setting           triclinic
_symmetry_space_group_name_H-M   'P -1'
_symmetry_Int_Tables_number      2
_space_group_name_Hall           '-P 1'
loop_
_symmetry_equiv_pos_site_id
_symmetry_equiv_pos_as_xyz
1 x,y,z
2 -x,-y,-z
_cell_length_a                   6.9075(14)
_cell_length_b                   8.9797(18)
_cell_length_c                   16.179(3)
_cell_angle_alpha                84.54(3)
_cell_angle_beta                 84.73(3)
_cell_angle_gamma                71.43(3)
_cell_volume                     944.958
loop_
_atom_site_label
_atom_site_type_symbol
_atom_site_fract_x
_atom_site_fract_y
_atom_site_fract_z
O1 O 0.8935(5) 0.4088(4) 0.0980(2)
H1 H 1.0168 0.4039 0.1032
H2 H 0.8275 0.5045 0.0855
C1 C 0.7541(5) 1.0959(5) 0.1337(2)
C2 C 0.8604(6) 1.0837(5) 0.2140(2)
H3 H 0.9278 0.9735 0.2298
H4 H 0.9650 1.1354 0.2038
C3 C 0.5919(5) 1.0796(5) 0.3160(2)
C4 C 0.4594(6) 1.1479(5) 0.3836(2)
C5 C 0.3274(6) 1.0723(5) 0.4252(2)
H5 H 0.2465 1.1140 0.4719
C6 C 0.3180(6) 0.9358(5) 0.3968(3)
C7 C 0.4462(5) 0.8653(5) 0.3294(2)
C8 C 0.5840(5) 0.9389(5) 0.2919(2)
H6 H 0.6745 0.8913 0.2489
C9 C 0.5610(5) 0.6590(5) 0.2372(2)
H7 H 0.5577 0.5522 0.2352
H8 H 0.7006 0.6532 0.2455
C10 C 0.5012(5) 0.7483(5) 0.1546(2)
Cu1 Cu 1.22333(6) 0.90714(6) 0.04049(3)
N1 N 0.4519(5) 1.2970(5) 0.4140(2)
N2 N 0.1745(5) 0.8621(5) 0.4410(2)
O2 O 0.8750(3) 1.0344(3) 0.07230(15)
O3 O 0.5688(4) 1.1602(4) 0.13061(17)
O4 O 0.7231(4) 1.1527(4) 0.28109(16)
O5 O 0.6304(4) 0.7186(4) 0.09522(18)
O6 O 0.3215(4) 0.8421(4) 0.15138(17)
O7 O 0.4313(4) 0.7280(4) 0.30708(16)
O8 O 0.5133(7) 1.3883(5) 0.3686(3)
O9 O 0.3850(6) 1.3218(5) 0.4855(2)
O10 O 0.1614(5) 0.8602(5) 0.5173(2)
O11 O 0.0723(6) 0.8103(6) 0.4014(3)
O12 O 1.2834(4) 1.1057(4) 0.04159(17)
H9 H 1.2856 1.1575 -0.0051
H10 H 1.3732 1.1165 0.0711
O13 O 1.1808(5) 0.7060(4) 0.0352(2)
H11 H 1.1340 0.6735 -0.0039
H12 H 1.2099 0.6336 0.0742
Cu1A Cu 0.77667(6) 1.09286(6) -0.04049(3)
Cu1_2 Cu 0.22333(6) 0.90714(6) 0.04049(3)
O2A O 1.1250(3) 0.9656(3) -0.07230(15)
O6_2 O 1.3215(4) 0.8421(4) 0.15138(17)
O14 O 0.2649(5) 0.4518(4) 0.1445(2)
H13 H 0.2219 0.4832 0.1928
H14 H 0.3779 0.3779 0.1472
O15 O 0.0764(6) 0.5946(7) 0.2798(3)
H15 H 0.1945 0.5332 0.2907
H16 H 0.0651 0.6863 0.2933
O16 O 0.9198(9) 0.4535(8) 0.4103(4)
H17 H 0.8680 0.3799 0.4083
H18 H 0.9823 0.4664 0.3638
loop_
_geom_bond_atom_site_label_1
_geom_bond_atom_site_label_2
_geom_bond_site_symmetry_1
_geom_bond_site_symmetry_2
O1 H1 1_555 1_555
H2 O1 1_555 1_555
C1 C2 1_555 1_555
C2 H3 1_555 1_555
H4 C2 1_555 1_555
C3 C4 1_555 1_555
C4 C5 1_555 1_555
C5 H5 1_555 1_555
C6 C5 1_555 1_555
C7 C6 1_555 1_555
C8 C3 1_555 1_555
H6 C8 1_555 1_555
C9 H7 1_555 1_555
H8 C9 1_555 1_555
C10 C9 1_555 1_555
Cu1 O2 1_555 1_555
N1 C4 1_555 1_555
N2 C6 1_555 1_555
O2 C1 1_555 1_555
O3 C1 1_555 1_555
O4 C2 1_555 1_555
O5 C10 1_555 1_555
O6 C10 1_555 1_555
O7 C7 1_555 1_555
O8 N1 1_555 1_555
O9 N1 1_555 1_555
O10 N2 1_555 1_555
O11 N2 1_555 1_555
O12 Cu1 1_555 1_555
H9 O12 1_555 1_555
H10 O12 1_555 1_555
O13 Cu1 1_555 1_555
H11 O13 1_555 1_555
H12 O13 1_555 1_555
O14 H13 1_555 1_555
H14 O14 1_555 1_555
O15 H15 1_555 1_555
H16 O15 1_555 1_555
O16 H17 1_555 1_555
H18 O16 1_555 1_555
Cu1A O2 1_555 1_555
Cu1_2 O6 1_555 1_555
O2A Cu1 1_555 1_555
O6_2 Cu1 1_555 1_555
C3 O4 1_555 1_555
C7 C8 1_555 1_555
C9 O7 1_555 1_555
Cu1A O2A 1_555 1_555

#END
