
#######################################################################
#
#                 Cambridge Crystallographic Data Centre
#                                CCDC 
#
#######################################################################
#
# If this CIF has been generated from an entry in the Cambridge 
# Structural Database, then it will include bibliographic, chemical, 
# crystal, experimental, refinement or atomic coordinate data resulting 
# from the CCDC's data processing and validation procedures.
#
#######################################################################

data_TEBZEF
_symmetry_cell_setting           monoclinic
_symmetry_space_group_name_H-M   'C 2/c'
_symmetry_Int_Tables_number      15
_space_group_name_Hall           '-C 2yn'
loop_
_symmetry_equiv_pos_site_id
_symmetry_equiv_pos_as_xyz
1 x,y,z
2 -x,y,1/2-z
3 1/2+x,1/2+y,z
4 1/2-x,1/2+y,1/2-z
5 -x,-y,-z
6 x,-y,1/2+z
7 1/2-x,1/2-y,-z
8 1/2+x,1/2-y,1/2+z
_cell_length_a                   12.4772(7)
_cell_length_b                   7.452(1)
_cell_length_c                   11.9166(5)
_cell_angle_alpha                90
_cell_angle_beta                 112.303(2)
_cell_angle_gamma                90
_cell_volume                     1025.12
loop_
_atom_site_label
_atom_site_type_symbol
_atom_site_fract_x
_atom_site_fract_y
_atom_site_fract_z
Ni1 Ni 0.2500 0.2500 0.5000
O1 O 0.31682(9) -0.00200(15) 0.52202(9)
O2 O 0.47931(10) -0.1517(2) 0.62231(11)
O3 O 0.67853(11) 0.3112(2) 1.12830(12)
N1 N 0.40731(10) 0.2948(2) 0.64177(10)
C1 C 0.45642(11) 0.1388(2) 0.69207(12)
C2 C 0.45047(13) 0.4490(2) 0.69654(14)
C3 C 0.41534(12) -0.0219(2) 0.60790(12)
H1 H 0.721(2) 0.278(3) 1.194(2)
H2 H 0.618(2) 0.262(3) 1.113(2)
H3 H 0.5868(14) 0.558(2) 0.8402(15)
C2A C 0.54953(13) 0.4490(2) 0.80346(14)
N1A N 0.59269(10) 0.2948(2) 0.85823(10)
Ni1G Ni 0.7500 0.2500 1.0000
O1A O 0.68318(9) -0.00200(15) 0.97798(9)
C3A C 0.58466(12) -0.0219(2) 0.89210(12)
O2A O 0.52069(10) -0.1517(2) 0.87769(11)
C1A C 0.54358(11) 0.1388(2) 0.80793(12)
O1G O 0.81682(9) 0.50200(15) 1.02202(9)
N1G N 0.90731(10) 0.2052(2) 1.14177(10)
O3F O 0.82147(11) 0.1888(2) 0.87170(12)
H1F H 0.779(2) 0.222(3) 0.806(2)
H2F H 0.882(2) 0.238(3) 0.887(2)
H3A H 0.4132(14) 0.558(2) 0.6598(15)
O4 O 0.3181(2) 0.2772(2) 0.85330(13)
H4 H 0.331(2) 0.200(4) 0.910(2)
H5 H 0.314(3) 0.371(4) 0.872(2)
loop_
_geom_bond_atom_site_label_1
_geom_bond_atom_site_label_2
_geom_bond_site_symmetry_1
_geom_bond_site_symmetry_2
Ni1 O1 1_555 1_555
O1 C3 1_555 1_555
O2 C3 1_555 1_555
O3 H1 1_555 1_555
N1 Ni1 1_555 1_555
C1 N1 1_555 1_555
C2 N1 1_555 1_555
C3 C1 1_555 1_555
H2 O3 1_555 1_555
H3 C2A 1_555 1_555
O4 H4 1_555 1_555
H5 O4 1_555 1_555
C2A C2 1_555 1_555
N1A C2A 1_555 1_555
Ni1G O3 1_555 1_555
O1A Ni1G 1_555 1_555
C3A O1A 1_555 1_555
O2A C3A 1_555 1_555
C1A C1 1_555 1_555
O1G Ni1G 1_555 1_555
N1G Ni1G 1_555 1_555
O3F Ni1G 1_555 1_555
H1F O3F 1_555 1_555
H2F O3F 1_555 1_555
H3A C2 1_555 1_555
N1A Ni1G 1_555 1_555
N1A C1A 1_555 1_555
C3A C1A 1_555 1_555

#END
