
#######################################################################
#
#                 Cambridge Crystallographic Data Centre
#                                CCDC 
#
#######################################################################
#
# If this CIF has been generated from an entry in the Cambridge 
# Structural Database, then it will include bibliographic, chemical, 
# crystal, experimental, refinement or atomic coordinate data resulting 
# from the CCDC's data processing and validation procedures.
#
#######################################################################

data_TECHOZ
_symmetry_cell_setting           monoclinic
_symmetry_space_group_name_H-M   'P 21/n'
_symmetry_Int_Tables_number      14
_space_group_name_Hall           '-P 2yn'
loop_
_symmetry_equiv_pos_site_id
_symmetry_equiv_pos_as_xyz
1 x,y,z
2 1/2-x,1/2+y,1/2-z
3 -x,-y,-z
4 1/2+x,1/2-y,1/2+z
_cell_length_a                   14.5715(7)
_cell_length_b                   7.7080(4)
_cell_length_c                   18.3799(9)
_cell_angle_alpha                90
_cell_angle_beta                 112.2910(10)
_cell_angle_gamma                90
_cell_volume                     1910.11
loop_
_atom_site_label
_atom_site_type_symbol
_atom_site_fract_x
_atom_site_fract_y
_atom_site_fract_z
Mn1 Mn 0.41030(2) 0.07664(4) 0.180666(17)
S1 S 0.30120(4) 0.47994(6) 0.15095(3)
N1 N 0.33819(15) 0.0645(2) 0.04814(11)
N2 N 0.51164(15) 0.2089(3) 0.13284(12)
O1 O 0.27435(12) 0.59915(18) 0.20148(9)
O2 O 0.36205(11) 0.5620(2) 0.11410(9)
O3 O 0.34506(11) 0.32375(19) 0.19532(8)
O4 O -0.05500(13) 0.2031(2) -0.09929(10)
H1 H -0.059(2) 0.243(3) -0.1431(9)
O5 O 0.10219(13) 0.5968(3) -0.15603(10)
O6 O -0.00875(13) 0.3856(2) -0.19774(9)
O7 O 0.49600(12) -0.1698(2) 0.18960(9)
O8 O 0.28643(13) -0.0513(2) 0.19016(11)
C1 C 0.19062(14) 0.4105(3) 0.07523(11)
C2 C 0.13146(15) 0.2885(3) 0.09252(12)
H2 H 0.1479 0.2502 0.1439
C3 C 0.04870(16) 0.2252(3) 0.03331(13)
H3 H 0.0082 0.1457 0.0450
C4 C 0.02456(15) 0.2787(3) -0.04429(13)
C5 C 0.08189(15) 0.4058(3) -0.06170(12)
C6 C 0.16463(15) 0.4716(3) -0.00042(12)
H4 H 0.2027 0.5578 -0.0108
C7 C 0.05818(16) 0.4710(3) -0.14369(13)
C8 C 0.2502(2) -0.0116(4) 0.00901(16)
H5 H 0.2157 -0.0591 0.0377
C9 C 0.2091(3) -0.0223(5) -0.07170(18)
H6 H 0.1480 -0.0755 -0.0972
C10 C 0.2601(3) 0.0472(5) -0.11353(18)
H7 H 0.2341 0.0407 -0.1681
C11 C 0.3495(3) 0.1263(4) -0.07507(17)
H8 H 0.3844 0.1746 -0.1032
C12 C 0.3880(2) 0.1338(3) 0.00714(14)
C13 C 0.4838(2) 0.2159(3) 0.05397(15)
C14 C 0.5966(2) 0.2809(4) 0.1783(2)
H9 H 0.6158 0.2744 0.2326
C15 C 0.6582(3) 0.3658(5) 0.1476(3)
H10 H 0.7174 0.4158 0.1807
C16 C 0.6298(3) 0.3741(5) 0.0682(3)
H11 H 0.6692 0.4318 0.0463
C17 C 0.5438(3) 0.2982(4) 0.0207(2)
H12 H 0.5250 0.3010 -0.0336
H13 H 0.5319(15) -0.173(3) 0.2386(7)
H14 H 0.2801(19) -0.1600(12) 0.1914(15)
H15 H 0.4601(16) -0.260(2) 0.1769(12)
H16 H 0.2607(19) -0.003(3) 0.2193(14)
Mn1C Mn -0.08970(2) 0.42336(4) -0.319334(17)
O6C O 0.49125(13) 0.1144(2) 0.30226(9)
loop_
_geom_bond_atom_site_label_1
_geom_bond_atom_site_label_2
_geom_bond_site_symmetry_1
_geom_bond_site_symmetry_2
Mn1 N1 1_555 1_555
S1 O1 1_555 1_555
N1 C8 1_555 1_555
N2 Mn1 1_555 1_555
O2 S1 1_555 1_555
O3 Mn1 1_555 1_555
O4 H1 1_555 1_555
O5 C7 1_555 1_555
O6 C7 1_555 1_555
O7 Mn1 1_555 1_555
O8 Mn1 1_555 1_555
C1 S1 1_555 1_555
C2 C1 1_555 1_555
H2 C2 1_555 1_555
C3 C2 1_555 1_555
H3 C3 1_555 1_555
C4 O4 1_555 1_555
C5 C4 1_555 1_555
C6 C1 1_555 1_555
H4 C6 1_555 1_555
C7 C5 1_555 1_555
C8 H5 1_555 1_555
C9 C8 1_555 1_555
H6 C9 1_555 1_555
C10 C9 1_555 1_555
H7 C10 1_555 1_555
C11 C10 1_555 1_555
H8 C11 1_555 1_555
C12 N1 1_555 1_555
C13 N2 1_555 1_555
C14 N2 1_555 1_555
H9 C14 1_555 1_555
C15 C14 1_555 1_555
H10 C15 1_555 1_555
C16 C15 1_555 1_555
H11 C16 1_555 1_555
C17 C13 1_555 1_555
H12 C17 1_555 1_555
H13 O7 1_555 1_555
H14 O8 1_555 1_555
H15 O7 1_555 1_555
H16 O8 1_555 1_555
Mn1C O6 1_555 1_555
O6C Mn1 1_555 1_555
S1 O3 1_555 1_555
C3 C4 1_555 1_555
C5 C6 1_555 1_555
C11 C12 1_555 1_555
C12 C13 1_555 1_555
C16 C17 1_555 1_555

#END
