
#######################################################################
#
#                 Cambridge Crystallographic Data Centre
#                                CCDC 
#
#######################################################################
#
# If this CIF has been generated from an entry in the Cambridge 
# Structural Database, then it will include bibliographic, chemical, 
# crystal, experimental, refinement or atomic coordinate data resulting 
# from the CCDC's data processing and validation procedures.
#
#######################################################################

data_TECQEY
_symmetry_cell_setting           monoclinic
_symmetry_space_group_name_H-M   'I 2/a'
_symmetry_Int_Tables_number      15
_space_group_name_Hall           '-I 2ya'
loop_
_symmetry_equiv_pos_site_id
_symmetry_equiv_pos_as_xyz
1 x,y,z
2 1/2+x,1/2+y,1/2+z
3 1/2-x,y,-z
4 -x,1/2+y,1/2-z
5 -x,-y,-z
6 1/2-x,1/2-y,1/2-z
7 1/2+x,-y,z
8 x,1/2-y,1/2+z
_cell_length_a                   7.510(2)
_cell_length_b                   15.531(4)
_cell_length_c                   6.6809(18)
_cell_angle_alpha                90
_cell_angle_beta                 98.057(5)
_cell_angle_gamma                90
_cell_volume                     771.554
loop_
_atom_site_label
_atom_site_type_symbol
_atom_site_fract_x
_atom_site_fract_y
_atom_site_fract_z
Cd1 Cd 0.2500 0.2500 0.2500
Cl1 Cl 0.48865(7) 0.18976(4) 0.03332(7)
O1 O 0.2500 0.35508(12) 0.0000
C1 C 0.2500 0.43789(17) 0.0000
C2 C 0.2052(3) 0.48602(13) 0.1662(3)
H1 H 0.1759 0.4576 0.2796
C3 C 0.2050(3) 0.57304(15) 0.1606(4)
H2 H 0.1731 0.6039 0.2695
N1 N 0.2500 0.61554(17) 0.0000
H3 H 0.2500 0.6709 0.0000
Cd1G Cd 0.2500 0.2500 -0.2500
Cl1B Cl 0.01135(7) 0.18976(4) -0.03332(7)
Cl1G Cl 0.48865(7) 0.31024(4) 0.53332(7)
Cl1E Cl 0.01135(7) 0.31024(4) 0.46668(7)
O1G O 0.2500 0.14492(12) 0.5000
C2B C 0.2948(3) 0.48602(13) -0.1662(3)
H1B H 0.3241 0.4576 -0.2796
C3B C 0.2950(3) 0.57304(15) -0.1606(4)
H2B H 0.3269 0.6039 -0.2695
loop_
_geom_bond_atom_site_label_1
_geom_bond_atom_site_label_2
_geom_bond_site_symmetry_1
_geom_bond_site_symmetry_2
Cd1 Cl1 1_555 1_555
Cl1 Cd1G 1_555 1_555
O1 Cd1 1_555 1_555
C1 O1 1_555 1_555
C2 C1 1_555 1_555
H1 C2 1_555 1_555
C3 C2 1_555 1_555
H2 C3 1_555 1_555
N1 C3 1_555 1_555
H3 N1 1_555 1_555
Cd1G O1 1_555 1_555
Cl1B Cd1 1_555 1_555
Cl1G Cd1 1_555 1_555
Cl1E Cd1 1_555 1_555
O1G Cd1 1_555 1_555
C2B C1 1_555 1_555
H1B C2B 1_555 1_555
C3B N1 1_555 1_555
H2B C3B 1_555 1_555
Cd1G Cl1B 1_555 1_555
C2B C3B 1_555 1_555

#END
