
#######################################################################
#
#                 Cambridge Crystallographic Data Centre
#                                CCDC 
#
#######################################################################
#
# If this CIF has been generated from an entry in the Cambridge 
# Structural Database, then it will include bibliographic, chemical, 
# crystal, experimental, refinement or atomic coordinate data resulting 
# from the CCDC's data processing and validation procedures.
#
#######################################################################

data_TECROJ
_symmetry_cell_setting           monoclinic
_symmetry_space_group_name_H-M   'C 2/c'
_symmetry_Int_Tables_number      15
_space_group_name_Hall           '-C 2yn'
loop_
_symmetry_equiv_pos_site_id
_symmetry_equiv_pos_as_xyz
1 x,y,z
2 1/2+x,1/2+y,z
3 -x,y,1/2-z
4 1/2-x,1/2+y,1/2-z
5 -x,-y,-z
6 1/2-x,1/2-y,-z
7 x,-y,1/2+z
8 1/2+x,1/2-y,1/2+z
_cell_length_a                   26.902(5)
_cell_length_b                   14.492(3)
_cell_length_c                   6.0570(10)
_cell_angle_alpha                90
_cell_angle_beta                 101.28(3)
_cell_angle_gamma                90
_cell_volume                     2315.79
loop_
_atom_site_label
_atom_site_type_symbol
_atom_site_fract_x
_atom_site_fract_y
_atom_site_fract_z
Ca1 Ca 0.5000 0.41616(4) 0.7500
O1 O 0.45050(10) 0.46610(10) 0.3784(2)
O2 O 0.41250(10) 0.36310(10) 0.5554(2)
O3 O 0.32710(10) 0.37320(10) 0.2628(3)
O4 O 0.10720(10) 0.2925(2) 0.0612(4)
O5 O 0.16440(10) 0.24170(10) 0.3481(3)
O6 O 0.51810(10) 0.29930(10) 0.4979(3)
C1 C 0.41310(10) 0.41570(10) 0.3928(3)
C2 C 0.36780(10) 0.42120(10) 0.1997(3)
C3 C 0.28040(10) 0.37640(10) 0.1233(3)
C4 C 0.27060(10) 0.41670(10) -0.0881(3)
C5 C 0.22150(10) 0.4165(2) -0.2138(4)
C6 C 0.18270(10) 0.3758(2) -0.1316(4)
C7 C 0.19290(10) 0.33440(10) 0.0798(3)
C8 C 0.24160(10) 0.33460(10) 0.2080(3)
C9 C 0.15060(10) 0.2884(2) 0.1627(4)
H1 H 0.1384 0.2176 0.3855
H2 H 0.5006 0.2514 0.5111
H3 H 0.5494 0.2859 0.5297
H4 H 0.3585 0.4851 0.1673
H5 H 0.3760 0.3936 0.0655
H6 H 0.2968 0.4438 -0.1455
H7 H 0.2148 0.4441 -0.3551
H8 H 0.1499 0.3759 -0.2165
H9 H 0.2482 0.3070 0.3493
Ca1F Ca 0.5000 0.58384(4) 0.2500
Ca1F_2 Ca 0.5000 0.58384(4) 1.2500
O1F O 0.45050(10) 0.53390(10) 0.8784(2)
O1D O 0.54950(10) 0.53390(10) 0.6216(2)
O1B O 0.54950(10) 0.46610(10) 1.1216(2)
O2F O 0.41250(10) 0.63690(10) 1.0554(2)
O2B O 0.58750(10) 0.36310(10) 0.9446(2)
O3F O 0.32710(10) 0.62680(10) 0.7628(3)
O4F O 0.10720(10) 0.7075(2) 0.5612(4)
O5F O 0.16440(10) 0.75830(10) 0.8481(3)
O6B O 0.48190(10) 0.29930(10) 1.0021(3)
C1F C 0.41310(10) 0.58430(10) 0.8928(3)
C2F C 0.36780(10) 0.57880(10) 0.6997(3)
C3F C 0.28040(10) 0.62360(10) 0.6233(3)
C4F C 0.27060(10) 0.58330(10) 0.4119(3)
C5F C 0.22150(10) 0.5835(2) 0.2862(4)
C6F C 0.18270(10) 0.6242(2) 0.3684(4)
C7F C 0.19290(10) 0.66560(10) 0.5798(3)
C8F C 0.24160(10) 0.66540(10) 0.7080(3)
C9F C 0.15060(10) 0.7116(2) 0.6627(4)
H1F H 0.1384 0.7824 0.8855
H2B H 0.4994 0.2514 0.9889
H3B H 0.4506 0.2859 0.9703
H4F H 0.3585 0.5149 0.6673
H5F H 0.3760 0.6064 0.5655
H6F H 0.2968 0.5562 0.3545
H7F H 0.2148 0.5559 0.1449
H8F H 0.1499 0.6241 0.2835
H9F H 0.2482 0.6930 0.8493
O7 O 0.4521(3) 0.1376(6) 0.472(2)
O8? O 0.4512(6) -0.0230(10) 0.608(4)
loop_
_geom_bond_atom_site_label_1
_geom_bond_atom_site_label_2
_geom_bond_site_symmetry_1
_geom_bond_site_symmetry_2
Ca1 O1 1_555 1_555
O1 C1 1_555 1_555
O2 Ca1 1_555 1_555
O3 C2 1_555 1_555
O4 C9 1_555 1_555
O5 C9 1_555 1_555
O6 Ca1 1_555 1_555
C1 O2 1_555 1_555
C2 C1 1_555 1_555
C3 O3 1_555 1_555
C4 C3 1_555 1_555
C5 C4 1_555 1_555
C6 C5 1_555 1_555
C7 C6 1_555 1_555
C8 C3 1_555 1_555
C9 C7 1_555 1_555
H1 O5 1_555 1_555
H2 O6 1_555 1_555
H3 O6 1_555 1_555
H4 C2 1_555 1_555
H5 C2 1_555 1_555
H6 C4 1_555 1_555
H7 C5 1_555 1_555
H8 C6 1_555 1_555
H9 C8 1_555 1_555
Ca1F O1 1_555 1_555
Ca1F_2 O1F 1_555 1_555
O1F Ca1 1_555 1_555
O1D Ca1 1_555 1_555
O1B Ca1 1_555 1_555
O2F Ca1F_2 1_555 1_555
O2B Ca1 1_555 1_555
O3F C2F 1_555 1_555
O4F C9F 1_555 1_555
O5F C9F 1_555 1_555
O6B Ca1 1_555 1_555
C1F O1F 1_555 1_555
C2F C1F 1_555 1_555
C3F O3F 1_555 1_555
C4F C3F 1_555 1_555
C5F C4F 1_555 1_555
C6F C5F 1_555 1_555
C7F C6F 1_555 1_555
C8F C3F 1_555 1_555
C9F C7F 1_555 1_555
H1F O5F 1_555 1_555
H2B O6B 1_555 1_555
H3B O6B 1_555 1_555
H4F C2F 1_555 1_555
H5F C2F 1_555 1_555
H6F C4F 1_555 1_555
H7F C5F 1_555 1_555
H8F C6F 1_555 1_555
H9F C8F 1_555 1_555
C7 C8 1_555 1_555
Ca1F O1D 1_555 1_555
Ca1F_2 O1B 1_555 1_555
O2F C1F 1_555 1_555
C7F C8F 1_555 1_555

#END
