
#######################################################################
#
#                 Cambridge Crystallographic Data Centre
#                                CCDC 
#
#######################################################################
#
# If this CIF has been generated from an entry in the Cambridge 
# Structural Database, then it will include bibliographic, chemical, 
# crystal, experimental, refinement or atomic coordinate data resulting 
# from the CCDC's data processing and validation procedures.
#
#######################################################################

data_TECREZ
_symmetry_cell_setting           triclinic
_symmetry_space_group_name_H-M   'P -1'
_symmetry_Int_Tables_number      2
_space_group_name_Hall           '-P 1'
loop_
_symmetry_equiv_pos_site_id
_symmetry_equiv_pos_as_xyz
1 x,y,z
2 -x,-y,-z
_cell_length_a                   9.615(4)
_cell_length_b                   9.804(4)
_cell_length_c                   11.729(4)
_cell_angle_alpha                82.58(2)
_cell_angle_beta                 80.87(2)
_cell_angle_gamma                69.097(14)
_cell_volume                     1016.63
loop_
_atom_site_label
_atom_site_type_symbol
_atom_site_fract_x
_atom_site_fract_y
_atom_site_fract_z
Zn1 Zn 0.28403(5) 0.39548(4) 0.66022(3)
Zn2 Zn 0.35078(5) 0.64970(5) 0.75451(3)
O1 O 0.5071(3) 0.3385(3) 0.6503(2)
O2 O 0.5581(3) 0.5169(3) 0.7182(2)
O3 O 0.7860(3) 0.4106(3) 0.43503(19)
O4 O 0.7255(3) 0.2294(3) 0.38183(19)
O5 O 0.2621(3) 0.4998(3) 0.82363(19)
O6 O 0.0626(3) 0.6969(3) 0.8629(2)
O7 O 0.2530(3) 0.2062(3) 0.7716(2)
O8 O 0.0602(3) 0.3910(3) 0.7258(2)
O9 O 0.0270(3) 0.2037(3) 0.8337(2)
N1 N 0.2890(3) 0.2883(3) 0.5148(2)
N2 N 0.3659(3) -0.2384(3) -0.1196(2)
N3 N 0.1108(4) 0.2644(4) 0.7786(3)
C1 C 0.1649(4) 0.3185(4) 0.4644(3)
H1 H 0.0743 0.3852 0.4992
C2 C 0.1595(4) 0.2595(4) 0.3653(3)
H2 H 0.0682 0.2865 0.3326
C3 C 0.2915(4) 0.1587(4) 0.3137(3)
C4 C 0.4213(4) 0.1268(4) 0.3657(3)
H3 H 0.5134 0.0594 0.3338
C5 C 0.4156(4) 0.1936(4) 0.4640(3)
H4 H 0.5057 0.1715 0.4974
C6 C 0.4812(4) -0.2922(4) -0.0555(3)
H5 H 0.5596 -0.3806 -0.0752
C7 C 0.4898(4) -0.2248(4) 0.0367(3)
H6 H 0.5731 -0.2666 0.0796
C8 C 0.3769(4) -0.0950(4) 0.0680(3)
C9 C 0.2581(4) -0.0390(4) 0.0009(3)
H7 H 0.1793 0.0500 0.0184
C10 C 0.2552(4) -0.1126(4) -0.0905(3)
H8 H 0.1727 -0.0739 -0.1344
C11 C 0.3885(4) -0.0247(4) 0.1671(3)
H9 H 0.4787 -0.0651 0.2020
C12 C 0.2820(4) 0.0919(4) 0.2124(3)
H10 H 0.1933 0.1345 0.1758
C13 C 0.5958(4) 0.3931(4) 0.6789(3)
C14 C 0.7707(4) 0.2875(4) 0.4528(3)
C15 C 0.8084(4) 0.2022(4) 0.5674(3)
H11 H 0.7570 0.1292 0.5841
H12 H 0.9178 0.1487 0.5624
C16 C 0.7604(4) 0.3038(4) 0.6660(3)
H13 H 0.8186 0.3711 0.6520
H14 H 0.7854 0.2441 0.7396
C17 C 0.1320(4) 0.5673(4) 0.8835(3)
C18 C 0.0843(4) 0.4747(4) 0.9842(3)
H15 H 0.1317 0.4782 1.0523
H16 H 0.1206 0.3716 0.9643
Zn1A Zn 0.71597(5) 0.60452(4) 0.33978(3)
Zn1A_2 Zn -0.28403(5) 0.60452(4) 1.33978(3)
Zn1_2 Zn 0.28403(5) 1.39548(4) 1.66022(3)
Zn2A Zn 0.64922(5) 0.35030(5) 0.24549(3)
Zn2_2 Zn 0.35078(5) -0.35030(5) -0.24549(3)
Zn2A_2 Zn -0.35078(5) 0.35030(5) 1.24549(3)
O1A O 0.4929(3) 0.6615(3) 0.3497(2)
O2A O 0.4419(3) 0.4831(3) 0.2818(2)
O3A O 0.2140(3) 0.5894(3) 0.56497(19)
O4A O 0.2745(3) 0.7706(3) 0.61817(19)
O5A O -0.2621(3) 0.5002(3) 1.17637(19)
O5A_2 O 0.7379(3) 0.5002(3) 0.17637(19)
O6A O -0.0626(3) 0.3031(3) 1.1371(2)
O7A O 0.7470(3) 0.7938(3) 0.2284(2)
O8A O 0.9398(3) 0.6090(3) 0.2742(2)
O9A O 0.9730(3) 0.7963(3) 0.1663(2)
N1_2 N 0.2890(3) 1.2883(3) 1.5148(2)
N1A N 0.7110(3) 0.7117(3) 0.4852(2)
N2_2 N 0.3659(3) 0.7616(3) 0.8804(2)
N2A N 0.6341(3) 0.2384(3) 0.1196(2)
N3A N 0.8892(4) 0.7356(4) 0.2214(3)
C1_2 C 0.1649(4) 1.3185(4) 1.4644(3)
H1_2 H 0.0743 1.3852 1.4992
C2_2 C 0.1595(4) 1.2595(4) 1.3653(3)
H2_2 H 0.0682 1.2865 1.3326
C3_2 C 0.2915(4) 1.1587(4) 1.3137(3)
C4_2 C 0.4213(4) 1.1268(4) 1.3657(3)
H3_2 H 0.5134 1.0594 1.3338
C5_2 C 0.4156(4) 1.1936(4) 1.4640(3)
H4_2 H 0.5057 1.1715 1.4974
C6_2 C 0.4812(4) 0.7078(4) 0.9445(3)
H5_2 H 0.5596 0.6194 0.9248
C7_2 C 0.4898(4) 0.7752(4) 1.0367(3)
H6_2 H 0.5731 0.7334 1.0796
C8_2 C 0.3769(4) 0.9050(4) 1.0680(3)
C9_2 C 0.2581(4) 0.9610(4) 1.0009(3)
H7_2 H 0.1793 1.0500 1.0184
C10_2 C 0.2552(4) 0.8874(4) 0.9095(3)
H8_2 H 0.1727 0.9261 0.8656
C11_2 C 0.3885(4) 0.9753(4) 1.1671(3)
H9_2 H 0.4787 0.9349 1.2020
C12_2 C 0.2820(4) 1.0919(4) 1.2124(3)
H10_2 H 0.1933 1.1345 1.1758
C13A C 0.4042(4) 0.6069(4) 0.3211(3)
C14A C 0.2293(4) 0.7125(4) 0.5472(3)
C15A C 0.1916(4) 0.7978(4) 0.4326(3)
H11A H 0.2430 0.8708 0.4159
H12A H 0.0822 0.8513 0.4376
C16A C 0.2396(4) 0.6962(4) 0.3340(3)
H13A H 0.1814 0.6289 0.3480
H14A H 0.2146 0.7559 0.2604
C17A C -0.1320(4) 0.4327(4) 1.1165(3)
C18A C -0.0843(4) 0.5253(4) 1.0158(3)
H15A H -0.1317 0.5218 0.9477
H16A H -0.1206 0.6284 1.0357
loop_
_geom_bond_atom_site_label_1
_geom_bond_atom_site_label_2
_geom_bond_site_symmetry_1
_geom_bond_site_symmetry_2
Zn1 O1 1_555 1_555
Zn2 O2 1_555 1_555
O1 C13 1_555 1_555
O2 C13 1_555 1_555
O3 C14 1_555 1_555
O4 C14 1_555 1_555
O5 Zn1 1_555 1_555
O6 C17 1_555 1_555
O7 Zn1 1_555 1_555
O8 Zn1 1_555 1_555
O9 N3 1_555 1_555
N1 Zn1 1_555 1_555
N2 C6 1_555 1_555
N3 O7 1_555 1_555
C1 N1 1_555 1_555
H1 C1 1_555 1_555
C2 C1 1_555 1_555
H2 C2 1_555 1_555
C3 C2 1_555 1_555
C4 C3 1_555 1_555
H3 C4 1_555 1_555
C5 N1 1_555 1_555
H4 C5 1_555 1_555
C6 H5 1_555 1_555
C7 C6 1_555 1_555
H6 C7 1_555 1_555
C8 C7 1_555 1_555
C9 C8 1_555 1_555
H7 C9 1_555 1_555
C10 N2 1_555 1_555
H8 C10 1_555 1_555
C11 C8 1_555 1_555
H9 C11 1_555 1_555
C12 C3 1_555 1_555
H10 C12 1_555 1_555
C13 C16 1_555 1_555
C14 C15 1_555 1_555
C15 H11 1_555 1_555
H12 C15 1_555 1_555
C16 C15 1_555 1_555
H13 C16 1_555 1_555
H14 C16 1_555 1_555
C17 O5 1_555 1_555
C18 C17 1_555 1_555
H15 C18 1_555 1_555
H16 C18 1_555 1_555
Zn1A O3 1_555 1_555
Zn1A_2 O5A 1_555 1_555
Zn1_2 N1_2 1_555 1_555
Zn2A O4 1_555 1_555
Zn2_2 N2 1_555 1_555
Zn2A_2 O5A 1_555 1_555
O1A Zn1A 1_555 1_555
O2A Zn2A 1_555 1_555
O3A Zn1 1_555 1_555
O4A Zn2 1_555 1_555
O5A C17A 1_555 1_555
O5A_2 Zn1A 1_555 1_555
O6A C17A 1_555 1_555
O7A Zn1A 1_555 1_555
O8A Zn1A 1_555 1_555
O9A N3A 1_555 1_555
N1_2 C1_2 1_555 1_555
N1A Zn1A 1_555 1_555
N2_2 Zn2 1_555 1_555
N2A Zn2A 1_555 1_555
N3A O7A 1_555 1_555
C1_2 H1_2 1_555 1_555
C2_2 C1_2 1_555 1_555
H2_2 C2_2 1_555 1_555
C3_2 C2_2 1_555 1_555
C4_2 C3_2 1_555 1_555
H3_2 C4_2 1_555 1_555
C5_2 N1_2 1_555 1_555
H4_2 C5_2 1_555 1_555
C6_2 N2_2 1_555 1_555
H5_2 C6_2 1_555 1_555
C7_2 C6_2 1_555 1_555
H6_2 C7_2 1_555 1_555
C8_2 C7_2 1_555 1_555
C9_2 C8_2 1_555 1_555
H7_2 C9_2 1_555 1_555
C10_2 N2_2 1_555 1_555
H8_2 C10_2 1_555 1_555
C11_2 C8_2 1_555 1_555
H9_2 C11_2 1_555 1_555
C12_2 C3_2 1_555 1_555
H10_2 C12_2 1_555 1_555
C13A O1A 1_555 1_555
C14A O3A 1_555 1_555
C15A C14A 1_555 1_555
H11A C15A 1_555 1_555
H12A C15A 1_555 1_555
C16A C13A 1_555 1_555
H13A C16A 1_555 1_555
H14A C16A 1_555 1_555
C17A C18A 1_555 1_555
C18A C18 1_555 1_555
H15A C18A 1_555 1_555
H16A C18A 1_555 1_555
Zn2 O5 1_555 1_555
O8 N3 1_555 1_555
C4 C5 1_555 1_555
C9 C10 1_555 1_555
C11 C12 1_555 1_555
Zn2A O5A_2 1_555 1_555
O2A C13A 1_555 1_555
O4A C14A 1_555 1_555
O8A N3A 1_555 1_555
C4_2 C5_2 1_555 1_555
C9_2 C10_2 1_555 1_555
C11_2 C12_2 1_555 1_555
C15A C16A 1_555 1_555

#END
