
#######################################################################
#
#                 Cambridge Crystallographic Data Centre
#                                CCDC 
#
#######################################################################
#
# If this CIF has been generated from an entry in the Cambridge 
# Structural Database, then it will include bibliographic, chemical, 
# crystal, experimental, refinement or atomic coordinate data resulting 
# from the CCDC's data processing and validation procedures.
#
#######################################################################

data_TECTOL
_symmetry_cell_setting           monoclinic
_symmetry_space_group_name_H-M   'C 2/c'
_symmetry_Int_Tables_number      15
_space_group_name_Hall           '-C 2yn'
loop_
_symmetry_equiv_pos_site_id
_symmetry_equiv_pos_as_xyz
1 x,y,z
2 1/2+x,1/2+y,z
3 -x,y,1/2-z
4 1/2-x,1/2+y,1/2-z
5 -x,-y,-z
6 1/2-x,1/2-y,-z
7 x,-y,1/2+z
8 1/2+x,1/2-y,1/2+z
_cell_length_a                   17.227(5)
_cell_length_b                   9.618(3)
_cell_length_c                   7.362(2)
_cell_angle_alpha                90
_cell_angle_beta                 108.728(4)
_cell_angle_gamma                90
_cell_volume                     1155.22
loop_
_atom_site_label
_atom_site_type_symbol
_atom_site_fract_x
_atom_site_fract_y
_atom_site_fract_z
Cd1 Cd 0.0000 0.41407(4) 0.7500
Br1 Br 0.09851(2) 0.59319(4) 0.99637(5)
N1 N 0.07254(18) 0.2152(3) 0.8909(4)
C1 C 0.0411(2) 0.0904(4) 0.8227(5)
C2 C 0.0853(3) -0.0298(4) 0.8877(6)
H1 H 0.0629 -0.1156 0.8408
C3 C 0.1472(3) 0.2196(4) 1.0224(6)
H2 H 0.1682 0.3059 1.0712
C4 C 0.1946(3) 0.1037(5) 1.0895(7)
H3 H 0.2468 0.1109 1.1784
C5 C 0.1614(3) -0.0235(5) 1.0195(7)
H4 H 0.1910 -0.1046 1.0623
Cd1F Cd 0.0000 0.58593(4) 1.2500
Cd1F_2 Cd 0.0000 0.58593(4) 0.2500
Br1F Br 0.09851(2) 0.40681(4) 0.49637(5)
Br1D Br -0.09851(2) 0.40681(4) 1.00363(5)
Br1B Br -0.09851(2) 0.59319(4) 0.50363(5)
N1B N -0.07254(18) 0.2152(3) 0.6091(4)
C1B C -0.0411(2) 0.0904(4) 0.6773(5)
C2B C -0.0853(3) -0.0298(4) 0.6123(6)
H1B H -0.0629 -0.1156 0.6592
C3B C -0.1472(3) 0.2196(4) 0.4776(6)
H2B H -0.1682 0.3059 0.4288
C4B C -0.1946(3) 0.1037(5) 0.4105(7)
H3B H -0.2468 0.1109 0.3216
C5B C -0.1614(3) -0.0235(5) 0.4805(7)
H4B H -0.1910 -0.1046 0.4377
loop_
_geom_bond_atom_site_label_1
_geom_bond_atom_site_label_2
_geom_bond_site_symmetry_1
_geom_bond_site_symmetry_2
Cd1 Br1 1_555 1_555
Br1 Cd1F 1_555 1_555
N1 Cd1 1_555 1_555
C1 N1 1_555 1_555
C2 C1 1_555 1_555
H1 C2 1_555 1_555
C3 N1 1_555 1_555
H2 C3 1_555 1_555
C4 C3 1_555 1_555
H3 C4 1_555 1_555
C5 C2 1_555 1_555
H4 C5 1_555 1_555
Cd1F Br1D 1_555 1_555
Cd1F_2 Br1F 1_555 1_555
Br1F Cd1 1_555 1_555
Br1D Cd1 1_555 1_555
Br1B Cd1 1_555 1_555
N1B Cd1 1_555 1_555
C1B C1 1_555 1_555
C2B C1B 1_555 1_555
H1B C2B 1_555 1_555
C3B N1B 1_555 1_555
H2B C3B 1_555 1_555
C4B C3B 1_555 1_555
H3B C4B 1_555 1_555
C5B C2B 1_555 1_555
H4B C5B 1_555 1_555
C4 C5 1_555 1_555
Cd1F_2 Br1B 1_555 1_555
N1B C1B 1_555 1_555
C4B C5B 1_555 1_555

#END
