
#######################################################################
#
#                 Cambridge Crystallographic Data Centre
#                                CCDC 
#
#######################################################################
#
# If this CIF has been generated from an entry in the Cambridge 
# Structural Database, then it will include bibliographic, chemical, 
# crystal, experimental, refinement or atomic coordinate data resulting 
# from the CCDC's data processing and validation procedures.
#
#######################################################################

data_TECWII
_symmetry_cell_setting           monoclinic
_symmetry_space_group_name_H-M   'P 21/c'
_symmetry_Int_Tables_number      14
_space_group_name_Hall           '-P 2ybc'
loop_
_symmetry_equiv_pos_site_id
_symmetry_equiv_pos_as_xyz
1 x,y,z
2 -x,1/2+y,1/2-z
3 -x,-y,-z
4 x,1/2-y,1/2+z
_cell_length_a                   14.6787(3)
_cell_length_b                   9.8460(2)
_cell_length_c                   15.7897(4)
_cell_angle_alpha                90
_cell_angle_beta                 99.383(2)
_cell_angle_gamma                90
_cell_volume                     2251.5
loop_
_atom_site_label
_atom_site_type_symbol
_atom_site_fract_x
_atom_site_fract_y
_atom_site_fract_z
Ag1 Ag 0.60769(3) 0.10189(4) 1.05289(2)
S1 S 0.65131(9) 0.27618(11) 0.95523(7)
S2 S 0.64403(8) 0.53497(11) 0.68506(7)
S3 S 0.60205(8) -0.19721(11) 0.91400(8)
O1 O 0.6730(3) -0.1476(4) 0.8693(2)
O2 O 0.5365(3) -0.2890(4) 0.8676(2)
O3 O 0.5557(2) -0.0841(3) 0.9493(2)
C1 C 0.7706(4) 0.2466(5) 0.9562(3)
C2 C 0.8321(6) 0.3535(7) 0.9667(5)
H1 H 0.8113 0.4422 0.9745
C3 C 0.9244(7) 0.3289(12) 0.9657(7)
H2 H 0.9659 0.4023 0.9730
C4 C 0.9565(5) 0.2065(10) 0.9550(6)
H3 H 1.0198 0.1935 0.9546
C5 C 0.8985(4) 0.1000(7) 0.9445(4)
H4 H 0.9212 0.0124 0.9366
C6 C 0.8047(4) 0.1196(5) 0.9453(3)
H5 H 0.7643 0.0448 0.9383
C7 C 0.6017(3) 0.2142(4) 0.8482(3)
H6 H 0.6175 0.1181 0.8436
H7 H 0.5343 0.2212 0.8409
C8 C 0.6361(3) 0.2934(4) 0.7765(3)
H8 H 0.7038 0.2945 0.7873
H9 H 0.6163 0.2464 0.7219
C9 C 0.6010(3) 0.4382(4) 0.7689(3)
H10 H 0.6194 0.4843 0.8240
H11 H 0.5334 0.4369 0.7567
C10 C 0.7647(3) 0.5381(5) 0.7234(3)
C11 C 0.7983(4) 0.6297(5) 0.7885(4)
H12 H 0.7573 0.6859 0.8124
C12 C 0.8915(5) 0.6371(7) 0.8175(5)
H13 H 0.9138 0.6964 0.8628
C13 C 0.9517(5) 0.5608(9) 0.7821(6)
H14 H 1.0155 0.5699 0.8011
C14 C 0.9195(5) 0.4692(9) 0.7179(5)
H15 H 0.9614 0.4140 0.6945
C15 C 0.8255(4) 0.4582(6) 0.6878(4)
H16 H 0.8037 0.3967 0.6436
C16 C 0.6592(3) -0.2885(4) 1.0043(3)
C17 C 0.7507(3) -0.2684(5) 1.0350(3)
H17 H 0.7851 -0.2065 1.0076
C18 C 0.7929(3) -0.3396(5) 1.1068(3)
H18 H 0.8561 -0.3268 1.1271
C19 C 0.7429(4) -0.4289(5) 1.1487(3)
C20 C 0.6500(3) -0.4463(5) 1.1184(3)
H19 H 0.6148 -0.5052 1.1471
C21 C 0.6089(3) -0.3775(4) 1.0466(3)
H20 H 0.5458 -0.3911 1.0258
C22 C 0.7884(4) -0.5030(6) 1.2270(4)
H21 H 0.7449 -0.5134 1.2667
H22 H 0.8416 -0.4518 1.2544
H23 H 0.8082 -0.5919 1.2107
Ag1C Ag 0.60769(3) 0.39811(4) 0.55289(2)
Ag1B Ag 0.39231(3) -0.10189(4) 0.94711(2)
S2C S 0.64403(8) -0.03497(11) 1.18506(7)
O3B O 0.4443(2) 0.0841(3) 1.0507(2)
loop_
_geom_bond_atom_site_label_1
_geom_bond_atom_site_label_2
_geom_bond_site_symmetry_1
_geom_bond_site_symmetry_2
Ag1 S1 1_555 1_555
S1 C1 1_555 1_555
S2 C9 1_555 1_555
S3 O1 1_555 1_555
O2 S3 1_555 1_555
O3 Ag1 1_555 1_555
C1 C2 1_555 1_555
C2 H1 1_555 1_555
C3 C2 1_555 1_555
H2 C3 1_555 1_555
C4 C3 1_555 1_555
H3 C4 1_555 1_555
C5 C4 1_555 1_555
H4 C5 1_555 1_555
C6 C1 1_555 1_555
H5 C6 1_555 1_555
C7 S1 1_555 1_555
H6 C7 1_555 1_555
H7 C7 1_555 1_555
C8 C7 1_555 1_555
H8 C8 1_555 1_555
H9 C8 1_555 1_555
C9 C8 1_555 1_555
H10 C9 1_555 1_555
H11 C9 1_555 1_555
C10 S2 1_555 1_555
C11 C10 1_555 1_555
H12 C11 1_555 1_555
C12 C11 1_555 1_555
H13 C12 1_555 1_555
C13 C12 1_555 1_555
H14 C13 1_555 1_555
C14 C13 1_555 1_555
H15 C14 1_555 1_555
C15 C10 1_555 1_555
H16 C15 1_555 1_555
C16 S3 1_555 1_555
C17 C16 1_555 1_555
H17 C17 1_555 1_555
C18 C17 1_555 1_555
H18 C18 1_555 1_555
C19 C18 1_555 1_555
C20 C19 1_555 1_555
H19 C20 1_555 1_555
C21 C16 1_555 1_555
H20 C21 1_555 1_555
C22 C19 1_555 1_555
H21 C22 1_555 1_555
H22 C22 1_555 1_555
H23 C22 1_555 1_555
Ag1C S2 1_555 1_555
Ag1B O3 1_555 1_555
S2C Ag1 1_555 1_555
O3B Ag1 1_555 1_555
S3 O3 1_555 1_555
C5 C6 1_555 1_555
C14 C15 1_555 1_555
C20 C21 1_555 1_555
Ag1B O3B 1_555 1_555

#END
