
#######################################################################
#
#                 Cambridge Crystallographic Data Centre
#                                CCDC 
#
#######################################################################
#
# If this CIF has been generated from an entry in the Cambridge 
# Structural Database, then it will include bibliographic, chemical, 
# crystal, experimental, refinement or atomic coordinate data resulting 
# from the CCDC's data processing and validation procedures.
#
#######################################################################

data_TEDBEL
_symmetry_cell_setting           monoclinic
_symmetry_space_group_name_H-M   'P 21/c'
_symmetry_Int_Tables_number      14
_space_group_name_Hall           '-P 2ybc'
loop_
_symmetry_equiv_pos_site_id
_symmetry_equiv_pos_as_xyz
1 x,y,z
2 -x,1/2+y,1/2-z
3 -x,-y,-z
4 x,1/2-y,1/2+z
_cell_length_a                   6.310(1)
_cell_length_b                   14.165(2)
_cell_length_c                   31.730(3)
_cell_angle_alpha                90
_cell_angle_beta                 91.861(2)
_cell_angle_gamma                90
_cell_volume                     2834.57
loop_
_atom_site_label
_atom_site_type_symbol
_atom_site_fract_x
_atom_site_fract_y
_atom_site_fract_z
Er1 Er 0.75159(4) 0.61400(2) 0.592031(8)
O1 O 0.3945(7) 0.5880(3) 0.60434(13)
O2 O 0.0637(7) 0.5802(4) 0.62671(13)
O3 O 0.6987(6) 0.6321(3) 0.66592(13)
O4 O 0.5978(7) 0.6440(4) 0.73079(13)
O5 O 0.9522(8) 0.7357(4) 0.57328(17)
O6 O 1.0586(9) 0.8427(4) 0.52743(17)
O7 O 0.5685(8) 0.7628(4) 0.60483(17)
O8 O 0.4169(8) 0.8995(4) 0.59707(15)
O9 O 0.7096(7) 0.4575(4) 0.59894(14)
O10 O 0.8730(9) 0.3200(4) 0.58844(16)
O11 O 1.2370(8) 0.3450(5) 0.64771(17)
O12 O 1.1309(8) 0.3419(4) 0.71290(15)
O13 O 0.5856(8) 0.6319(4) 0.52757(14)
H1 H 0.6346 0.5963 0.5087
H2 H 0.4517 0.6264 0.5285
O14 O 0.9617(7) 0.5506(3) 0.53969(13)
H3 H 1.0358 0.5937 0.5287
H4 H 1.0444 0.5086 0.5500
C1 C 0.2605(10) 0.5898(4) 0.63247(18)
C2 C 0.5481(10) 0.6275(5) 0.6890(2)
C3 C 0.3322(9) 0.6025(5) 0.67782(19)
C4 C 0.1884(10) 0.5960(5) 0.7088(2)
H9 H 0.0487 0.5811 0.7013
C5 C 0.2437(10) 0.6111(6) 0.75196(19)
C6 C 0.4515(10) 0.6374(5) 0.7618(2)
C7 C 0.5185(12) 0.6592(6) 0.8027(2)
H10 H 0.6584 0.6764 0.8088
C8 C 0.3737(13) 0.6548(7) 0.8339(2)
H11 H 0.4147 0.6717 0.8613
C9 C 0.1657(13) 0.6253(7) 0.8253(2)
H12 H 0.0704 0.6213 0.8470
C10 C 0.1016(12) 0.6021(7) 0.7846(2)
H13 H -0.0357 0.5806 0.7789
C11 C 0.9332(11) 0.8137(5) 0.5537(2)
C12 C 0.5810(11) 0.8406(5) 0.5890(2)
C13 C 0.7475(11) 0.8748(5) 0.5630(2)
C14 C 0.7323(12) 0.9640(5) 0.5471(2)
H14 H 0.8383 0.9861 0.5300
C15 C 0.5588(12) 1.0246(5) 0.5560(2)
C16 C 0.4030(12) 0.9894(5) 0.5813(2)
C17 C 0.2276(13) 1.0422(6) 0.5912(3)
H15 H 0.1241 1.0171 0.6082
C18 C 0.2087(13) 1.1326(6) 0.5757(2)
H16 H 0.0910 1.1687 0.5822
C19 C 0.3635(15) 1.1708(6) 0.5505(3)
H17 H 0.3498 1.2321 0.5403
C20 C 0.5400(14) 1.1161(6) 0.5407(2)
H18 H 0.6447 1.1411 0.5240
C21 C 0.8171(10) 0.3860(6) 0.6110(2)
C22 C 1.0892(12) 0.3544(6) 0.6701(2)
C23 C 0.8736(10) 0.3808(5) 0.6574(2)
C24 C 0.7281(11) 0.3960(5) 0.6864(2)
H19 H 0.5948 0.4180 0.6778
C25 C 0.7719(11) 0.3794(6) 0.7298(2)
C26 C 0.9752(12) 0.3534(6) 0.7427(2)
C27 C 1.0321(16) 0.3331(7) 0.7844(2)
H20 H 1.1693 0.3141 0.7919
C28 C 0.8804(17) 0.3419(7) 0.8141(3)
H21 H 0.9140 0.3267 0.8420
C29 C 0.6778(16) 0.3732(8) 0.8032(3)
H22 H 0.5779 0.3814 0.8238
C30 C 0.6261(14) 0.3919(7) 0.7617(2)
H23 H 0.4905 0.4134 0.7545
Er1_2 Er -0.24841(4) 0.61400(2) 0.592031(8)
O2_2 O 1.0637(7) 0.5802(4) 0.62671(13)
O15 O 1.2795(9) 0.4100(4) 0.55564(16)
H5 H 1.391(14) 0.433(6) 0.571(3)
H6 H 1.199(13) 0.368(6) 0.575(3)
O16 O 1.2045(8) 0.6750(4) 0.49694(17)
H7 H 1.173(15) 0.724(7) 0.505(3)
H8 H 1.182(13) 0.673(6) 0.468(3)
loop_
_geom_bond_atom_site_label_1
_geom_bond_atom_site_label_2
_geom_bond_site_symmetry_1
_geom_bond_site_symmetry_2
Er1 O1 1_555 1_555
O1 C1 1_555 1_555
O2 C1 1_555 1_555
O3 Er1 1_555 1_555
O4 C2 1_555 1_555
O5 Er1 1_555 1_555
O6 C11 1_555 1_555
O7 Er1 1_555 1_555
O8 C12 1_555 1_555
O9 Er1 1_555 1_555
O10 C21 1_555 1_555
O11 C22 1_555 1_555
O12 C22 1_555 1_555
O13 Er1 1_555 1_555
H1 O13 1_555 1_555
H2 O13 1_555 1_555
O14 Er1 1_555 1_555
H3 O14 1_555 1_555
H4 O14 1_555 1_555
O15 H5 1_555 1_555
H6 O15 1_555 1_555
O16 H7 1_555 1_555
H8 O16 1_555 1_555
C1 C3 1_555 1_555
C2 O3 1_555 1_555
C3 C2 1_555 1_555
C4 C3 1_555 1_555
H9 C4 1_555 1_555
C5 C4 1_555 1_555
C6 O4 1_555 1_555
C7 C6 1_555 1_555
H10 C7 1_555 1_555
C8 C7 1_555 1_555
H11 C8 1_555 1_555
C9 C8 1_555 1_555
H12 C9 1_555 1_555
C10 C5 1_555 1_555
H13 C10 1_555 1_555
C11 O5 1_555 1_555
C12 O7 1_555 1_555
C13 C11 1_555 1_555
C14 C13 1_555 1_555
H14 C14 1_555 1_555
C15 C14 1_555 1_555
C16 O8 1_555 1_555
C17 C16 1_555 1_555
H15 C17 1_555 1_555
C18 C17 1_555 1_555
H16 C18 1_555 1_555
C19 C18 1_555 1_555
H17 C19 1_555 1_555
C20 C15 1_555 1_555
H18 C20 1_555 1_555
C21 O9 1_555 1_555
C22 C23 1_555 1_555
C23 C21 1_555 1_555
C24 C23 1_555 1_555
H19 C24 1_555 1_555
C25 C24 1_555 1_555
C26 O12 1_555 1_555
C27 C26 1_555 1_555
H20 C27 1_555 1_555
C28 C27 1_555 1_555
H21 C28 1_555 1_555
C29 C28 1_555 1_555
H22 C29 1_555 1_555
C30 C25 1_555 1_555
H23 C30 1_555 1_555
Er1_2 O2 1_555 1_555
O2_2 Er1 1_555 1_555
C5 C6 1_555 1_555
C9 C10 1_555 1_555
C12 C13 1_555 1_555
C15 C16 1_555 1_555
C19 C20 1_555 1_555
C25 C26 1_555 1_555
C29 C30 1_555 1_555

#END
