
#######################################################################
#
#                 Cambridge Crystallographic Data Centre
#                                CCDC 
#
#######################################################################
#
# If this CIF has been generated from an entry in the Cambridge 
# Structural Database, then it will include bibliographic, chemical, 
# crystal, experimental, refinement or atomic coordinate data resulting 
# from the CCDC's data processing and validation procedures.
#
#######################################################################

data_TEDDOW
_symmetry_cell_setting           triclinic
_symmetry_space_group_name_H-M   'P -1'
_symmetry_Int_Tables_number      2
_space_group_name_Hall           '-P 1'
loop_
_symmetry_equiv_pos_site_id
_symmetry_equiv_pos_as_xyz
1 x,y,z
2 -x,-y,-z
_cell_length_a                   9.8205(19)
_cell_length_b                   11.524(2)
_cell_length_c                   11.984(2)
_cell_angle_alpha                62.093(3)
_cell_angle_beta                 75.584(3)
_cell_angle_gamma                78.034(3)
_cell_volume                     1154.24
loop_
_atom_site_label
_atom_site_type_symbol
_atom_site_fract_x
_atom_site_fract_y
_atom_site_fract_z
Cu1 Cu 0.61245(12) 0.82416(11) 0.18739(11)
Cu2 Cu 0.85316(12) 1.33018(11) 0.68430(10)
Mo1 Mo 0.75851(8) 1.01210(7) -0.13968(7)
Mo2 Mo 0.75277(8) 0.64729(7) 0.46918(7)
O1 O 0.8610(7) 1.1415(7) 0.8181(7)
O2 O 0.7555(7) 0.8978(7) 0.0237(6)
O3 O 0.8300(8) 0.9268(8) -0.2306(7)
O4 O 0.4146(7) 0.9239(7) 0.1653(7)
O5 O 0.6467(8) 0.6751(6) 0.3540(6)
O6 O 0.6998(8) 0.7648(7) 0.5268(7)
O7 O 1.0703(7) 1.3429(8) 0.6027(7)
O8 O 0.7323(7) 1.4912(6) 0.6045(6)
N1 N 0.6557(8) 0.9577(7) 0.2358(7)
N2 N 0.8203(9) 1.2751(8) 0.5574(8)
N3 N 0.5666(9) 0.7013(8) 0.1290(8)
N4 N 0.8866(9) 1.3910(8) 0.8076(8)
C1 C 0.5521(10) 1.0133(9) 0.3003(9)
H1 H 0.4582 1.0016 0.3100
C2 C 0.5848(10) 1.0864(9) 0.3511(8)
H2 H 0.5125 1.1247 0.3940
C3 C 0.7232(10) 1.1045(9) 0.3397(9)
C4 C 0.8270(11) 1.0498(11) 0.2705(10)
H3 H 0.9213 1.0618 0.2580
C5 C 0.7892(11) 0.9781(10) 0.2206(10)
H4 H 0.8597 0.9422 0.1742
C6 C 0.7598(10) 1.1715(9) 0.4085(9)
C7 C 0.6552(10) 1.2392(10) 0.4631(9)
H5 H 0.5623 1.2508 0.4516
C8 C 0.6911(10) 1.2894(10) 0.5352(9)
H6 H 0.6200 1.3361 0.5703
C9 C 0.9238(10) 1.2097(10) 0.5011(9)
H7 H 1.0159 1.1994 0.5142
C10 C 0.8980(10) 1.1588(10) 0.4268(9)
H8 H 0.9715 1.1164 0.3890
C11 C 0.5957(16) 0.5713(10) 0.1836(12)
H9 H 0.6344 0.5327 0.2580
C12 C 0.5723(18) 0.4898(12) 0.1369(12)
H10 H 0.5963 0.3993 0.1797
C13 C 0.5136(12) 0.5399(10) 0.0276(9)
C14 C 0.4786(14) 0.6762(11) -0.0251(11)
H11 H 0.4348 0.7172 -0.0967
C15 C 0.5064(13) 0.7502(10) 0.0249(10)
H12 H 0.4823 0.8410 -0.0155
C16 C 0.8466(12) 1.5152(11) 0.7993(11)
H13 H 0.7866 1.5726 0.7424
C17 C 0.8905(13) 1.5578(11) 0.8702(10)
H14 H 0.8618 1.6439 0.8596
C18 C 0.9775(11) 1.4763(10) 0.9586(9)
C19 C 1.0103(14) 1.3506(11) 0.9729(12)
H15 H 1.0621 1.2899 1.0357
C20 C 0.9671(14) 1.3110(11) 0.8945(12)
H16 H 0.9958 1.2254 0.9033
Cu1A Cu 0.38755(12) 0.17584(11) -0.18739(11)
Cu1A_2 Cu 0.38755(12) 1.17584(11) -0.18739(11)
Cu2_2 Cu 0.85316(12) 1.33018(11) -0.31570(10)
Cu2A Cu 1.14684(12) 1.66982(11) 1.31570(10)
Cu2A_2 Cu 1.14684(12) 0.66982(11) 0.31570(10)
Cu2_3 Cu 0.85316(12) 0.33018(11) 0.68430(10)
Cu2A_3 Cu 0.14684(12) -0.33018(11) -0.68430(10)
Mo1A Mo 0.24149(8) 0.98790(7) 0.13968(7)
Mo1_2 Mo 0.75851(8) 1.01210(7) 0.86032(7)
Mo1A_2 Mo 0.24149(8) -0.01210(7) 0.13968(7)
Mo2A Mo 0.24723(8) 0.35271(7) -0.46918(7)
Mo2A_2 Mo 1.24723(8) 1.35271(7) 0.53082(7)
Mo2_2 Mo 0.75277(8) 1.64729(7) 0.46918(7)
O1_2 O 0.8610(7) 1.1415(7) -0.1819(7)
O1A O 0.1390(7) 0.8585(7) 0.1819(7)
O2A O 0.2445(7) 0.1022(7) -0.0237(6)
O2A_2 O 0.2445(7) 1.1022(7) -0.0237(6)
O3A O 0.1700(8) 1.0732(8) 0.2306(7)
O4A O 0.5854(7) 1.0761(7) -0.1653(7)
O4A_2 O 0.5854(7) 0.0761(7) -0.1653(7)
O5A O 0.3533(8) 0.3249(6) -0.3540(6)
O6A O 0.3002(8) 0.2352(7) -0.5268(7)
O7A O 0.9297(7) 0.6571(8) 0.3973(7)
O7_2 O 1.0703(7) 1.3429(8) -0.3973(7)
O7_3 O 0.0703(7) 0.3429(8) -0.3973(7)
O8_2 O 0.7323(7) 0.4912(6) 0.6045(6)
O8_3 O 0.7323(7) 1.4912(6) -0.3955(6)
O8A O 0.2677(7) 0.5088(6) -0.6045(6)
N1A N 0.3443(8) 0.0423(7) -0.2358(7)
N2A N 0.1797(9) -0.2751(8) -0.5574(8)
N2_2 N 0.8203(9) 1.2751(8) -0.4426(8)
N3A N 0.4334(9) 0.2987(8) -0.1290(8)
N4A N 1.1134(9) 1.6090(8) 1.1924(8)
N4_2 N 0.8866(9) 1.3910(8) -0.1924(8)
C1A C 0.4479(10) -0.0133(9) -0.3003(9)
H1A H 0.5418 -0.0016 -0.3100
C2A C 0.4152(10) -0.0864(9) -0.3511(8)
H2A H 0.4875 -0.1247 -0.3940
C3A C 0.2768(10) -0.1045(9) -0.3397(9)
C4A C 0.1730(11) -0.0498(11) -0.2705(10)
H3A H 0.0787 -0.0618 -0.2580
C5A C 0.2108(11) 0.0219(10) -0.2206(10)
H4A H 0.1403 0.0578 -0.1742
C6A C 0.2402(10) -0.1715(9) -0.4085(9)
C7A C 0.3448(10) -0.2392(10) -0.4631(9)
H5A H 0.4377 -0.2508 -0.4516
C8A C 0.3089(10) -0.2894(10) -0.5352(9)
H6A H 0.3800 -0.3361 -0.5703
C9A C 0.0762(10) -0.2097(10) -0.5011(9)
H7A H -0.0159 -0.1994 -0.5142
C10A C 0.1020(10) -0.1588(10) -0.4268(9)
H8A H 0.0285 -0.1164 -0.3890
C11A C 0.4043(16) 0.4287(10) -0.1836(12)
H9A H 0.3656 0.4673 -0.2580
C12A C 0.4277(18) 0.5102(12) -0.1369(12)
H10A H 0.4037 0.6007 -0.1797
C13A C 0.4864(12) 0.4601(10) -0.0276(9)
C14A C 0.5214(14) 0.3238(11) 0.0251(11)
H11A H 0.5652 0.2828 0.0967
C15A C 0.4936(13) 0.2498(10) -0.0249(10)
H12A H 0.5177 0.1590 0.0155
C16A C 1.1534(12) 1.4848(11) 1.2007(11)
H13A H 1.2134 1.4274 1.2576
C17A C 1.1095(13) 1.4422(11) 1.1298(10)
H14A H 1.1382 1.3561 1.1404
C18A C 1.0225(11) 1.5237(10) 1.0414(9)
C19A C 0.9897(14) 1.6494(11) 1.0271(12)
H15A H 0.9379 1.7101 0.9643
C20A C 1.0329(14) 1.6890(11) 1.1055(12)
H16A H 1.0042 1.7746 1.0967
loop_
_geom_bond_atom_site_label_1
_geom_bond_atom_site_label_2
_geom_bond_site_symmetry_1
_geom_bond_site_symmetry_2
Cu1 O2 1_555 1_555
Cu2 O1 1_555 1_555
Mo1 O2 1_555 1_555
Mo2 O5 1_555 1_555
O1 Mo1_2 1_555 1_555
O3 Mo1 1_555 1_555
O4 Cu1 1_555 1_555
O5 Cu1 1_555 1_555
O6 Mo2 1_555 1_555
O7 Cu2 1_555 1_555
O8 Cu2 1_555 1_555
N1 Cu1 1_555 1_555
N2 Cu2 1_555 1_555
N3 Cu1 1_555 1_555
N4 Cu2 1_555 1_555
C1 N1 1_555 1_555
H1 C1 1_555 1_555
C2 C1 1_555 1_555
H2 C2 1_555 1_555
C3 C2 1_555 1_555
C4 C3 1_555 1_555
H3 C4 1_555 1_555
C5 N1 1_555 1_555
H4 C5 1_555 1_555
C6 C3 1_555 1_555
C7 C6 1_555 1_555
H5 C7 1_555 1_555
C8 N2 1_555 1_555
H6 C8 1_555 1_555
C9 N2 1_555 1_555
H7 C9 1_555 1_555
C10 C6 1_555 1_555
H8 C10 1_555 1_555
C11 N3 1_555 1_555
H9 C11 1_555 1_555
C12 C11 1_555 1_555
H10 C12 1_555 1_555
C13 C12 1_555 1_555
C14 C13 1_555 1_555
H11 C14 1_555 1_555
C15 N3 1_555 1_555
H12 C15 1_555 1_555
C16 N4 1_555 1_555
H13 C16 1_555 1_555
C17 C16 1_555 1_555
H14 C17 1_555 1_555
C18 C17 1_555 1_555
C19 C18 1_555 1_555
H15 C19 1_555 1_555
C20 N4 1_555 1_555
H16 C20 1_555 1_555
Cu1A O2A 1_555 1_555
Cu1A_2 O2A_2 1_555 1_555
Cu2_2 O1_2 1_555 1_555
Cu2A N4A 1_555 1_555
Cu2A_2 O7A 1_555 1_555
Cu2_3 O8_2 1_555 1_555
Cu2A_3 N2A 1_555 1_555
Mo1A O4 1_555 1_555
Mo1A_2 O2A 1_555 1_555
Mo2A O5A 1_555 1_555
Mo2A_2 O7 1_555 1_555
Mo2_2 O8 1_555 1_555
O1_2 Mo1 1_555 1_555
O1A Mo1A 1_555 1_555
O2A_2 Mo1A 1_555 1_555
O3A Mo1A 1_555 1_555
O4A Mo1 1_555 1_555
O4A_2 Cu1A 1_555 1_555
O5A Cu1A 1_555 1_555
O6A Mo2A 1_555 1_555
O7A Mo2 1_555 1_555
O7_2 Cu2_2 1_555 1_555
O7_3 Mo2A 1_555 1_555
O8_2 Mo2 1_555 1_555
O8_3 Cu2_2 1_555 1_555
O8A Mo2A 1_555 1_555
N1A Cu1A 1_555 1_555
N2A C8A 1_555 1_555
N2_2 Cu2_2 1_555 1_555
N3A Cu1A 1_555 1_555
N4A C16A 1_555 1_555
N4_2 Cu2_2 1_555 1_555
C1A N1A 1_555 1_555
H1A C1A 1_555 1_555
C2A C1A 1_555 1_555
H2A C2A 1_555 1_555
C3A C2A 1_555 1_555
C4A C3A 1_555 1_555
H3A C4A 1_555 1_555
C5A N1A 1_555 1_555
H4A C5A 1_555 1_555
C6A C3A 1_555 1_555
C7A C6A 1_555 1_555
H5A C7A 1_555 1_555
C8A C7A 1_555 1_555
H6A C8A 1_555 1_555
C9A N2A 1_555 1_555
H7A C9A 1_555 1_555
C10A C6A 1_555 1_555
H8A C10A 1_555 1_555
C11A N3A 1_555 1_555
H9A C11A 1_555 1_555
C12A C11A 1_555 1_555
H10A C12A 1_555 1_555
C13A C13 1_555 1_555
C14A C13A 1_555 1_555
H11A C14A 1_555 1_555
C15A N3A 1_555 1_555
H12A C15A 1_555 1_555
C16A H13A 1_555 1_555
C17A C16A 1_555 1_555
H14A C17A 1_555 1_555
C18A C18 1_555 1_555
C19A C18A 1_555 1_555
H15A C19A 1_555 1_555
C20A N4A 1_555 1_555
H16A C20A 1_555 1_555
C4 C5 1_555 1_555
C7 C8 1_555 1_555
C9 C10 1_555 1_555
C14 C15 1_555 1_555
C19 C20 1_555 1_555
Cu1A_2 O4A 1_555 1_555
C4A C5A 1_555 1_555
C9A C10A 1_555 1_555
C12A C13A 1_555 1_555
C14A C15A 1_555 1_555
C17A C18A 1_555 1_555
C19A C20A 1_555 1_555

#END
