
#######################################################################
#
#                 Cambridge Crystallographic Data Centre
#                                CCDC 
#
#######################################################################
#
# If this CIF has been generated from an entry in the Cambridge 
# Structural Database, then it will include bibliographic, chemical, 
# crystal, experimental, refinement or atomic coordinate data resulting 
# from the CCDC's data processing and validation procedures.
#
#######################################################################

data_TEDDOW01
_symmetry_cell_setting           triclinic
_symmetry_space_group_name_H-M   'P -1'
_symmetry_Int_Tables_number      2
_space_group_name_Hall           '-P 1'
loop_
_symmetry_equiv_pos_site_id
_symmetry_equiv_pos_as_xyz
1 x,y,z
2 -x,-y,-z
_cell_length_a                   9.812(2)
_cell_length_b                   11.507(2)
_cell_length_c                   11.987(2)
_cell_angle_alpha                62.07(3)
_cell_angle_beta                 75.54(3)
_cell_angle_gamma                78.01(3)
_cell_volume                     1151.35
loop_
_atom_site_label
_atom_site_type_symbol
_atom_site_fract_x
_atom_site_fract_y
_atom_site_fract_z
Mo1 Mo 0.25852(5) 0.01214(5) -0.13973(4)
Mo2 Mo 0.74719(5) 0.35259(5) -0.46904(4)
Cu1 Cu 0.11270(9) -0.17582(7) 0.18727(7)
Cu2 Cu 0.35352(8) 0.33032(7) -0.31608(7)
O1 O 0.8005(6) 0.2353(5) -0.5271(5)
O2 O 0.5706(5) 0.3418(6) -0.3983(5)
O3 O 0.2304(5) 0.4915(5) -0.3965(4)
O4 O 0.1471(5) -0.3250(5) 0.3544(4)
O5 O 0.2581(5) -0.1002(5) 0.0231(4)
O6 O 0.0841(5) 0.0756(5) -0.1644(5)
O7 O 0.3614(6) 0.1422(5) -0.1819(4)
O8 O 0.3326(6) -0.0734(5) -0.2305(5)
N1 N 0.0676(6) -0.3001(5) 0.1295(5)
N2 N 0.3865(6) 0.3902(6) -0.1913(5)
N3 N 0.1554(6) -0.0438(5) 0.2350(5)
N4 N 0.3217(6) 0.2730(6) 0.5572(5)
C1 C 0.0082(9) -0.2495(7) 0.0248(6)
H1 H -0.0133 -0.1583 -0.0164
C2 C -0.0230(10) -0.3252(7) -0.0257(6)
H2 H -0.0689 -0.2849 -0.0960
C3 C 0.0130(8) -0.4581(6) 0.0269(6)
C4 C 0.0737(13) -0.5102(8) 0.1371(8)
H3 H 0.0984 -0.6009 0.1791
C5 C 0.0970(11) -0.4292(8) 0.1834(7)
H4 H 0.1361 -0.4679 0.2576
C6 C 0.0536(7) 0.0128(6) 0.2985(5)
H5 H -0.0403 0.0012 0.3076
C7 C 0.0835(7) 0.0876(6) 0.3506(5)
H6 H 0.0100 0.1266 0.3923
C8 C 0.2238(7) 0.1049(6) 0.3410(5)
C9 C 0.3276(7) 0.0503(8) 0.2696(7)
H7 H 0.4221 0.0630 0.2560
C10 C 0.2896(7) -0.0226(7) 0.2192(7)
H8 H 0.3602 -0.0582 0.1725
C11 C 0.1919(7) 0.2880(7) 0.5373(6)
H9 H 0.1205 0.3319 0.5754
C12 C 0.3978(7) 0.1582(7) 0.4254(6)
H10 H 0.4715 0.1158 0.3875
C13 C 0.4237(8) 0.2100(7) 0.5016(6)
H11 H 0.5159 0.2004 0.5143
C14 C 0.3471(9) 0.5146(8) -0.2019(7)
H12 H 0.2895 0.5719 -0.2611
C15 C 0.3884(10) 0.5596(8) -0.1293(7)
H13 H 0.3581 0.6455 -0.1394
C16 C 0.4758(8) 0.4772(7) -0.0403(6)
C17 C 0.5111(10) 0.3528(7) -0.0275(8)
H14 H 0.5656 0.2933 0.0336
C18 C 0.4678(10) 0.3112(8) -0.1039(8)
H15 H 0.4965 0.2250 -0.0938
C19 C 0.1577(7) 0.2411(6) 0.4623(6)
H16 H 0.0652 0.2564 0.4483
C20 C 0.2608(6) 0.1710(6) 0.4073(5)
Mo1A Mo -0.25852(5) -0.01214(5) 0.13973(4)
Mo2A Mo 0.25281(5) 0.64741(5) -0.53096(4)
Mo2A_2 Mo 0.25281(5) -0.35259(5) 0.46904(4)
Mo2_2 Mo -0.25281(5) 0.35259(5) -0.46904(4)
Cu1A Cu -0.11270(9) 0.17582(7) -0.18727(7)
Cu1A_2 Cu -0.11270(9) -0.82418(7) -0.18727(7)
Cu1_2 Cu 0.11270(9) -0.17582(7) -0.81273(7)
Cu2A Cu 0.64648(8) 0.66968(7) 0.31608(7)
Cu2_2 Cu 0.35352(8) 0.33032(7) 0.68392(7)
Cu2A_2 Cu 0.64648(8) 0.66968(7) -0.68392(7)
Cu2A_3 Cu -0.35352(8) -0.33032(7) 0.31608(7)
O1A O 0.1995(6) 0.7647(5) -0.4729(5)
O2A O 0.4294(5) 0.6582(6) -0.6017(5)
O2A_2 O 0.4294(5) 0.6582(6) 0.3983(5)
O3A O 0.7696(5) 0.5085(5) -0.6035(4)
O3A_2 O 0.7696(5) 0.5085(5) 0.3965(4)
O4A O -0.1471(5) 0.3250(5) -0.3544(4)
O4A_2 O 0.8529(5) 0.3250(5) -0.3544(4)
O4_2 O 0.1471(5) 0.6750(5) -0.6456(4)
O5A O -0.2581(5) 0.1002(5) -0.0231(4)
O6A O -0.0841(5) -0.0756(5) 0.1644(5)
O7A O -0.3614(6) -0.1422(5) 0.1819(4)
O7A_2 O 0.6386(6) 0.8578(5) 0.1819(4)
O8A O -0.3326(6) 0.0734(5) 0.2305(5)
N1A N -0.0676(6) -0.6999(5) -0.1295(5)
N1A_2 N -0.0676(6) 0.3001(5) -0.1295(5)
N2A N 0.6135(6) 0.6098(6) 0.1913(5)
N3_2 N 0.1554(6) -0.0438(5) -0.7650(5)
N3A N -0.1554(6) 0.0438(5) -0.2350(5)
N4_2 N 0.3217(6) 0.2730(6) -0.4428(5)
N4A N 0.6783(6) 0.7270(6) 0.4428(5)
C1A C -0.0082(9) -0.7505(7) -0.0248(6)
H1A H 0.0133 -0.8417 0.0164
C2A C 0.0230(10) -0.6748(7) 0.0257(6)
H2A H 0.0689 -0.7151 0.0960
C3A C -0.0130(8) -0.5419(6) -0.0269(6)
C4A C -0.0737(13) -0.4898(8) -0.1371(8)
H3A H -0.0984 -0.3991 -0.1791
C5A C -0.0970(11) -0.5708(8) -0.1834(7)
H4A H -0.1361 -0.5321 -0.2576
C6_2 C 0.0536(7) 0.0128(6) -0.7015(5)
H5_2 H -0.0403 0.0012 -0.6924
C7_2 C 0.0835(7) 0.0876(6) -0.6494(5)
H6_2 H 0.0100 0.1266 -0.6077
C8_2 C 0.2238(7) 0.1049(6) -0.6590(5)
C9_2 C 0.3276(7) 0.0503(8) -0.7304(7)
H7_2 H 0.4221 0.0630 -0.7440
C10_2 C 0.2896(7) -0.0226(7) -0.7808(7)
H8_2 H 0.3602 -0.0582 -0.8275
C11_2 C 0.1919(7) 0.2880(7) -0.4627(6)
H9_2 H 0.1205 0.3319 -0.4246
C12_2 C 0.3978(7) 0.1582(7) -0.5746(6)
H10_2 H 0.4715 0.1158 -0.6125
C13_2 C 0.4237(8) 0.2100(7) -0.4984(6)
H11_2 H 0.5159 0.2004 -0.4857
C14A C 0.6529(9) 0.4854(8) 0.2019(7)
H12A H 0.7105 0.4281 0.2611
C15A C 0.6116(10) 0.4404(8) 0.1293(7)
H13A H 0.6419 0.3545 0.1394
C16A C 0.5242(8) 0.5228(7) 0.0403(6)
C17A C 0.4889(10) 0.6472(7) 0.0275(8)
H14A H 0.4344 0.7067 -0.0336
C18A C 0.5322(10) 0.6888(8) 0.1039(8)
H15A H 0.5035 0.7750 0.0938
C19_2 C 0.1577(7) 0.2411(6) -0.5377(6)
H16_2 H 0.0652 0.2564 -0.5517
C20_2 C 0.2608(6) 0.1710(6) -0.5927(5)
loop_
_geom_bond_atom_site_label_1
_geom_bond_atom_site_label_2
_geom_bond_site_symmetry_1
_geom_bond_site_symmetry_2
Mo1 O5 1_555 1_555
Mo2 O1 1_555 1_555
Cu1 O4 1_555 1_555
Cu2 O2 1_555 1_555
O2 Mo2 1_555 1_555
O3 Cu2 1_555 1_555
O4 Mo2A_2 1_555 1_555
O5 Cu1 1_555 1_555
O6 Mo1 1_555 1_555
O7 Mo1 1_555 1_555
O8 Mo1 1_555 1_555
N1 Cu1 1_555 1_555
N2 Cu2 1_555 1_555
N3 Cu1 1_555 1_555
N4 C11 1_555 1_555
C1 N1 1_555 1_555
H1 C1 1_555 1_555
C2 C1 1_555 1_555
H2 C2 1_555 1_555
C3 C2 1_555 1_555
C4 C3 1_555 1_555
H3 C4 1_555 1_555
C5 N1 1_555 1_555
H4 C5 1_555 1_555
C6 N3 1_555 1_555
H5 C6 1_555 1_555
C7 C6 1_555 1_555
H6 C7 1_555 1_555
C8 C7 1_555 1_555
C9 C8 1_555 1_555
H7 C9 1_555 1_555
C10 N3 1_555 1_555
H8 C10 1_555 1_555
C11 H9 1_555 1_555
C12 H10 1_555 1_555
C13 N4 1_555 1_555
H11 C13 1_555 1_555
C14 N2 1_555 1_555
H12 C14 1_555 1_555
C15 C14 1_555 1_555
H13 C15 1_555 1_555
C16 C15 1_555 1_555
C17 C16 1_555 1_555
H14 C17 1_555 1_555
C18 N2 1_555 1_555
H15 C18 1_555 1_555
C19 C11 1_555 1_555
H16 C19 1_555 1_555
C20 C8 1_555 1_555
Mo1A O5A 1_555 1_555
Mo2A O3 1_555 1_555
Mo2_2 O4A 1_555 1_555
Cu1A O6 1_555 1_555
Cu1A_2 N1A 1_555 1_555
Cu1_2 N3_2 1_555 1_555
Cu2A O2A_2 1_555 1_555
Cu2_2 N4 1_555 1_555
Cu2A_2 O2A 1_555 1_555
Cu2A_3 O7A 1_555 1_555
O1A Mo2A 1_555 1_555
O2A Mo2A 1_555 1_555
O3A Mo2 1_555 1_555
O3A_2 Cu2A 1_555 1_555
O4A Cu1A 1_555 1_555
O4A_2 Mo2 1_555 1_555
O4_2 Mo2A 1_555 1_555
O5A Cu1A 1_555 1_555
O6A Cu1 1_555 1_555
O7A Mo1A 1_555 1_555
O7A_2 Cu2A 1_555 1_555
O8A Mo1A 1_555 1_555
N1A C1A 1_555 1_555
N1A_2 Cu1A 1_555 1_555
N2A Cu2A 1_555 1_555
N3_2 C6_2 1_555 1_555
N3A Cu1A 1_555 1_555
N4_2 Cu2 1_555 1_555
N4A Cu2A 1_555 1_555
C1A H1A 1_555 1_555
C2A C1A 1_555 1_555
H2A C2A 1_555 1_555
C3A C3 1_555 1_555
C4A C3A 1_555 1_555
H3A C4A 1_555 1_555
C5A N1A 1_555 1_555
H4A C5A 1_555 1_555
C6_2 H5_2 1_555 1_555
C7_2 C6_2 1_555 1_555
H6_2 C7_2 1_555 1_555
C8_2 C7_2 1_555 1_555
C9_2 C8_2 1_555 1_555
H7_2 C9_2 1_555 1_555
C10_2 N3_2 1_555 1_555
H8_2 C10_2 1_555 1_555
C11_2 N4_2 1_555 1_555
H9_2 C11_2 1_555 1_555
C12_2 H10_2 1_555 1_555
C13_2 N4_2 1_555 1_555
H11_2 C13_2 1_555 1_555
C14A N2A 1_555 1_555
H12A C14A 1_555 1_555
C15A C14A 1_555 1_555
H13A C15A 1_555 1_555
C16A C16 1_555 1_555
C17A C16A 1_555 1_555
H14A C17A 1_555 1_555
C18A N2A 1_555 1_555
H15A C18A 1_555 1_555
C19_2 C11_2 1_555 1_555
H16_2 C19_2 1_555 1_555
C20_2 C8_2 1_555 1_555
Cu2 O7 1_555 1_555
C4 C5 1_555 1_555
C9 C10 1_555 1_555
C12 C13 1_555 1_555
C12 C20 1_555 1_555
C17 C18 1_555 1_555
C19 C20 1_555 1_555
Mo1A O6A 1_555 1_555
Cu2A_2 O3A 1_555 1_555
C2A C3A 1_555 1_555
C4A C5A 1_555 1_555
C9_2 C10_2 1_555 1_555
C12_2 C13_2 1_555 1_555
C12_2 C20_2 1_555 1_555
C15A C16A 1_555 1_555
C17A C18A 1_555 1_555
C19_2 C20_2 1_555 1_555

#END
