
#######################################################################
#
#                 Cambridge Crystallographic Data Centre
#                                CCDC 
#
#######################################################################
#
# If this CIF has been generated from an entry in the Cambridge 
# Structural Database, then it will include bibliographic, chemical, 
# crystal, experimental, refinement or atomic coordinate data resulting 
# from the CCDC's data processing and validation procedures.
#
#######################################################################

data_TEDFEO
_symmetry_cell_setting           orthorhombic
_symmetry_space_group_name_H-M   'P 21 21 21'
_symmetry_Int_Tables_number      19
_space_group_name_Hall           'P 2ac 2ab'
loop_
_symmetry_equiv_pos_site_id
_symmetry_equiv_pos_as_xyz
1 x,y,z
2 1/2-x,-y,1/2+z
3 -x,1/2+y,1/2-z
4 1/2+x,1/2-y,-z
_cell_length_a                   9.3026(5)
_cell_length_b                   10.0412(6)
_cell_length_c                   22.3890(13)
_cell_angle_alpha                90
_cell_angle_beta                 90
_cell_angle_gamma                90
_cell_volume                     2091.34
loop_
_atom_site_label
_atom_site_type_symbol
_atom_site_fract_x
_atom_site_fract_y
_atom_site_fract_z
Co1 Co -0.22334(3) 0.36548(3) 0.132224(11)
S1 S 0.20710(7) 0.01763(6) 0.09699(2)
O1 O -0.03426(14) 0.29845(15) 0.10299(6)
O2 O 0.08688(14) 0.37135(14) 0.18229(5)
O3 O 0.52002(14) 0.42213(15) 0.12920(6)
O4 O 0.65857(14) 0.34332(16) 0.05869(5)
O5 O 0.1849(2) 0.03854(17) 0.15965(7)
O6 O 0.1100(2) -0.06625(18) 0.06447(8)
N1 N -0.26902(19) 0.24408(17) 0.20185(7)
N2 N -0.17689(18) 0.55444(17) 0.15493(7)
N3 N -0.2438(2) 0.08487(19) 0.26720(8)
H1 H -0.2070 0.0185 0.2860
N4 N -0.1370(3) 0.7214(2) 0.21433(9)
H2 H -0.1434 0.7728 0.2450
N5 N 0.21148(19) 0.16068(16) 0.06627(7)
H3 H 0.2079 0.1657 0.0280
C1 C 0.07986(19) 0.31908(18) 0.13156(9)
C2 C 0.2214(2) 0.28299(19) 0.10080(8)
H4 H 0.2957 0.2718 0.1314
C3 C 0.2645(2) 0.3981(2) 0.06012(9)
H5 H 0.1943 0.4061 0.0283
H6 H 0.2624 0.4802 0.0830
C4 C 0.4134(2) 0.3814(3) 0.03264(8)
H7 H 0.4161 0.2978 0.0110
H8 H 0.4287 0.4524 0.0039
C5 C 0.53507(19) 0.3830(2) 0.07716(8)
C6 C 0.3808(3) -0.0513(2) 0.08741(10)
C7 C 0.3986(4) -0.1657(3) 0.05562(16)
H9 H 0.3197 -0.2092 0.0393
C8 C 0.5371(5) -0.2167(4) 0.04790(19)
H10 H 0.5495 -0.2961 0.0272
C9 C 0.6536(5) -0.1528(4) 0.07004(17)
H11 H 0.7451 -0.1877 0.0643
C10 C 0.6360(4) -0.0385(4) 0.1003(2)
H12 H 0.7157 0.0071 0.1148
C11 C 0.4999(4) 0.0111(4) 0.10986(18)
H13 H 0.4887 0.0887 0.1321
C12 C -0.1868(2) 0.1462(2) 0.22051(10)
H14 H -0.0996 0.1229 0.2031
C13 C -0.3704(3) 0.1452(3) 0.28009(11)
H15 H -0.4337 0.1232 0.3107
C14 C -0.3861(3) 0.2433(3) 0.23962(10)
H16 H -0.4638 0.3014 0.2375
C15 C -0.0775(2) 0.6385(2) 0.12921(11)
H17 H -0.0340 0.6258 0.0922
C16 C -0.0534(3) 0.7418(3) 0.16621(13)
H18 H 0.0086 0.8130 0.1598
C17 C -0.2075(3) 0.6090(2) 0.20636(9)
H19 H -0.2712 0.5728 0.2340
Co1_2 Co 0.77666(3) 0.36548(3) 0.132224(11)
O4_2 O -0.34143(14) 0.34332(16) 0.05869(5)
loop_
_geom_bond_atom_site_label_1
_geom_bond_atom_site_label_2
_geom_bond_site_symmetry_1
_geom_bond_site_symmetry_2
Co1 O1 1_555 1_555
S1 O5 1_555 1_555
O1 C1 1_555 1_555
O2 C1 1_555 1_555
O3 C5 1_555 1_555
O4 C5 1_555 1_555
O6 S1 1_555 1_555
N1 Co1 1_555 1_555
N2 Co1 1_555 1_555
N3 H1 1_555 1_555
N4 H2 1_555 1_555
N5 S1 1_555 1_555
H3 N5 1_555 1_555
C1 C2 1_555 1_555
C2 N5 1_555 1_555
H4 C2 1_555 1_555
C3 C2 1_555 1_555
H5 C3 1_555 1_555
H6 C3 1_555 1_555
C4 C3 1_555 1_555
H7 C4 1_555 1_555
H8 C4 1_555 1_555
C5 C4 1_555 1_555
C6 S1 1_555 1_555
C7 C6 1_555 1_555
H9 C7 1_555 1_555
C8 C7 1_555 1_555
H10 C8 1_555 1_555
C9 C8 1_555 1_555
H11 C9 1_555 1_555
C10 C9 1_555 1_555
H12 C10 1_555 1_555
C11 C6 1_555 1_555
H13 C11 1_555 1_555
C12 N1 1_555 1_555
H14 C12 1_555 1_555
C13 N3 1_555 1_555
H15 C13 1_555 1_555
C14 N1 1_555 1_555
H16 C14 1_555 1_555
C15 N2 1_555 1_555
H17 C15 1_555 1_555
C16 N4 1_555 1_555
H18 C16 1_555 1_555
C17 N2 1_555 1_555
H19 C17 1_555 1_555
Co1_2 O4 1_555 1_555
O4_2 Co1 1_555 1_555
N3 C12 1_555 1_555
N4 C17 1_555 1_555
C10 C11 1_555 1_555
C13 C14 1_555 1_555
C15 C16 1_555 1_555

#END
