
#######################################################################
#
#                 Cambridge Crystallographic Data Centre
#                                CCDC 
#
#######################################################################
#
# If this CIF has been generated from an entry in the Cambridge 
# Structural Database, then it will include bibliographic, chemical, 
# crystal, experimental, refinement or atomic coordinate data resulting 
# from the CCDC's data processing and validation procedures.
#
#######################################################################

data_TEDFAK
_symmetry_cell_setting           orthorhombic
_symmetry_space_group_name_H-M   'P 21 21 21'
_symmetry_Int_Tables_number      19
_space_group_name_Hall           'P 2ac 2ab'
loop_
_symmetry_equiv_pos_site_id
_symmetry_equiv_pos_as_xyz
1 x,y,z
2 1/2-x,-y,1/2+z
3 -x,1/2+y,1/2-z
4 1/2+x,1/2-y,-z
_cell_length_a                   9.3782(7)
_cell_length_b                   10.0285(8)
_cell_length_c                   22.2192(18)
_cell_angle_alpha                90
_cell_angle_beta                 90
_cell_angle_gamma                90
_cell_volume                     2089.7
loop_
_atom_site_label
_atom_site_type_symbol
_atom_site_fract_x
_atom_site_fract_y
_atom_site_fract_z
Zn1 Zn 0.72126(2) 0.63161(2) 0.132899(10)
S1 S 0.29623(7) 0.98337(6) 0.09635(3)
O1 O 0.3199(2) 0.96107(18) 0.15932(8)
O2 O 0.3911(2) 1.06862(19) 0.06373(9)
O3 O 0.53619(16) 0.70016(17) 0.10115(7)
O4 O 0.41521(15) 0.62676(15) 0.18078(6)
O5 O -0.00774(16) 0.57509(17) 0.13066(7)
O6 O -0.15428(15) 0.65055(16) 0.06140(6)
N1 N 0.67675(19) 0.44339(17) 0.15498(8)
N2 N 0.7652(2) 0.75367(18) 0.20242(8)
N3 N 0.6390(3) 0.2752(2) 0.21521(10)
H1 H 0.6458 0.2239 0.2461
N4 N 0.7409(3) 0.9122(2) 0.26821(9)
H2 H 0.7047 0.9785 0.2874
N5 N 0.2932(2) 0.84049(17) 0.06486(8)
H3 H 0.2984 0.8360 0.0263
C1 C 0.1231(4) 1.0512(2) 0.08798(11)
C2 C 0.0059(4) 0.9861(4) 0.1110(2)
H4 H 0.0181 0.9072 0.1324
C3 C -0.1289(5) 1.0366(5) 0.1027(2)
H5 H -0.2072 0.9917 0.1185
C4 C -0.1488(5) 1.1515(5) 0.07158(19)
H6 H -0.2403 1.1846 0.0656
C5 C -0.0356(6) 1.2172(4) 0.0495(2)
H7 H -0.0493 1.2975 0.0294
C6 C 0.1048(5) 1.1663(3) 0.05635(17)
H8 H 0.1824 1.2105 0.0396
C7 C 0.2820(2) 0.7175(2) 0.09930(8)
C8 C 0.2381(2) 0.6033(2) 0.05759(10)
H9 H 0.3053 0.5980 0.0245
H10 H 0.2430 0.5199 0.0797
C9 C 0.0879(2) 0.6204(3) 0.03233(9)
H11 H 0.0826 0.7056 0.0118
H12 H 0.0711 0.5512 0.0027
C10 C -0.0295(2) 0.6146(2) 0.07887(9)
C11 C 0.4224(2) 0.6801(2) 0.12985(10)
C12 C 0.5800(3) 0.3585(3) 0.12887(12)
H13 H 0.5374 0.3705 0.0915
C13 C 0.5567(3) 0.2543(3) 0.16656(15)
H14 H 0.4958 0.1825 0.1600
C14 C 0.7079(3) 0.3893(2) 0.20694(10)
H15 H 0.7706 0.4263 0.2347
C15 C 0.8823(3) 0.7541(3) 0.24015(11)
H16 H 0.9593 0.6959 0.2377
C16 C 0.8675(3) 0.8513(3) 0.28063(12)
H17 H 0.9310 0.8732 0.3113
C17 C 0.6837(3) 0.8507(2) 0.22122(11)
H18 H 0.5969 0.8738 0.2039
Zn1_2 Zn -0.27874(2) 0.63161(2) 0.132899(10)
O6_2 O 0.84572(15) 0.65055(16) 0.06140(6)
loop_
_geom_bond_atom_site_label_1
_geom_bond_atom_site_label_2
_geom_bond_site_symmetry_1
_geom_bond_site_symmetry_2
Zn1 O3 1_555 1_555
S1 O1 1_555 1_555
O2 S1 1_555 1_555
O3 C11 1_555 1_555
O4 C11 1_555 1_555
O5 C10 1_555 1_555
O6 C10 1_555 1_555
N1 Zn1 1_555 1_555
N2 Zn1 1_555 1_555
N3 H1 1_555 1_555
N4 H2 1_555 1_555
N5 S1 1_555 1_555
H3 N5 1_555 1_555
C1 S1 1_555 1_555
C2 C1 1_555 1_555
H4 C2 1_555 1_555
C3 C2 1_555 1_555
H5 C3 1_555 1_555
C4 C3 1_555 1_555
H6 C4 1_555 1_555
C5 C4 1_555 1_555
H7 C5 1_555 1_555
C6 C1 1_555 1_555
H8 C6 1_555 1_555
C7 N5 1_555 1_555
C8 C7 1_555 1_555
H9 C8 1_555 1_555
H10 C8 1_555 1_555
C9 C8 1_555 1_555
H11 C9 1_555 1_555
H12 C9 1_555 1_555
C10 C9 1_555 1_555
C11 C7 1_555 1_555
C12 N1 1_555 1_555
H13 C12 1_555 1_555
C13 N3 1_555 1_555
H14 C13 1_555 1_555
C14 N1 1_555 1_555
H15 C14 1_555 1_555
C15 N2 1_555 1_555
H16 C15 1_555 1_555
C16 N4 1_555 1_555
H17 C16 1_555 1_555
C17 N2 1_555 1_555
H18 C17 1_555 1_555
Zn1_2 O6 1_555 1_555
O6_2 Zn1 1_555 1_555
N3 C14 1_555 1_555
N4 C17 1_555 1_555
C5 C6 1_555 1_555
C12 C13 1_555 1_555
C15 C16 1_555 1_555

#END
