
#######################################################################
#
#                 Cambridge Crystallographic Data Centre
#                                CCDC 
#
#######################################################################
#
# If this CIF has been generated from an entry in the Cambridge 
# Structural Database, then it will include bibliographic, chemical, 
# crystal, experimental, refinement or atomic coordinate data resulting 
# from the CCDC's data processing and validation procedures.
#
#######################################################################

data_TEDGEP
_symmetry_cell_setting           monoclinic
_symmetry_space_group_name_H-M   'P 21/c'
_symmetry_Int_Tables_number      14
_space_group_name_Hall           '-P 2ybc'
loop_
_symmetry_equiv_pos_site_id
_symmetry_equiv_pos_as_xyz
1 x,y,z
2 -x,1/2+y,1/2-z
3 -x,-y,-z
4 x,1/2-y,1/2+z
_cell_length_a                   12.5640(6)
_cell_length_b                   4.9805(2)
_cell_length_c                   21.0407(5)
_cell_angle_alpha                90
_cell_angle_beta                 115.301(2)
_cell_angle_gamma                90
_cell_volume                     1190.33
loop_
_atom_site_label
_atom_site_type_symbol
_atom_site_fract_x
_atom_site_fract_y
_atom_site_fract_z
Ag1 Ag 0.08280(4) 0.27661(11) 0.02108(2)
S1 S -0.19606(13) 0.2217(3) -0.46033(7)
O1 O -0.0188(4) 0.1550(9) -0.08953(19)
O2 O -0.1517(4) 0.4888(8) -0.12202(19)
N1 N -0.2680(4) 0.5117(10) -0.5726(2)
N2 N -0.4032(4) 0.1717(11) -0.5738(3)
C1 C -0.4765(6) 0.2498(13) -0.6388(3)
H1 H -0.5491 0.1650 -0.6611
C2 C -0.4487(5) 0.4487(14) -0.6738(3)
H2 H -0.4996 0.4952 -0.7197
C3 C -0.3420(5) 0.5787(13) -0.6385(3)
H3 H -0.3212 0.7157 -0.6611
C4 C -0.3024(5) 0.3046(11) -0.5444(3)
C5 C -0.2723(6) -0.0165(13) -0.4279(3)
H4 H -0.2511 -0.1992 -0.4336
H5 H -0.3569 0.0032 -0.4537
C6 C -0.2343(5) 0.0456(11) -0.3511(3)
C7 C -0.2855(5) 0.2569(12) -0.3313(3)
H6 H -0.3472 0.3521 -0.3655
C8 C -0.2458(5) 0.3278(12) -0.2612(3)
H7 H -0.2815 0.4693 -0.2488
C9 C -0.1438(5) -0.0961(12) -0.2990(3)
H8 H -0.1093 -0.2399 -0.3114
C10 C -0.1036(5) -0.0267(12) -0.2284(3)
H9 H -0.0436 -0.1250 -0.1941
C11 C -0.1537(4) 0.1904(11) -0.2094(3)
C12 C -0.1045(5) 0.2832(11) -0.1337(3)
Ag1B Ag -0.08280(4) -0.27661(11) -0.02108(2)
Ag1B_2 Ag -0.08280(4) 0.72339(11) -0.02108(2)
Ag1A Ag -0.08280(4) 0.77661(11) -0.52108(2)
O2B O 0.1517(4) 0.5112(8) 0.12202(19)
N1A N 0.2680(4) 0.0117(10) 0.0726(2)
loop_
_geom_bond_atom_site_label_1
_geom_bond_atom_site_label_2
_geom_bond_site_symmetry_1
_geom_bond_site_symmetry_2
Ag1 O1 1_555 1_555
S1 C4 1_555 1_555
O1 C12 1_555 1_555
O2 C12 1_555 1_555
N1 C3 1_555 1_555
N2 C1 1_555 1_555
C1 H1 1_555 1_555
C2 C1 1_555 1_555
H2 C2 1_555 1_555
C3 C2 1_555 1_555
H3 C3 1_555 1_555
C4 N1 1_555 1_555
C5 S1 1_555 1_555
H4 C5 1_555 1_555
H5 C5 1_555 1_555
C6 C5 1_555 1_555
C7 C6 1_555 1_555
H6 C7 1_555 1_555
C8 C7 1_555 1_555
H7 C8 1_555 1_555
C9 C6 1_555 1_555
H8 C9 1_555 1_555
C10 C9 1_555 1_555
H9 C10 1_555 1_555
C11 C8 1_555 1_555
C12 C11 1_555 1_555
Ag1B Ag1 1_555 1_555
Ag1B_2 Ag1 1_555 1_555
Ag1A N1 1_555 1_555
O2B Ag1 1_555 1_555
N1A Ag1 1_555 1_555
O2 Ag1B_2 1_555 1_555
N2 C4 1_555 1_555
C10 C11 1_555 1_555

#END
