
#######################################################################
#
#                 Cambridge Crystallographic Data Centre
#                                CCDC 
#
#######################################################################
#
# If this CIF has been generated from an entry in the Cambridge 
# Structural Database, then it will include bibliographic, chemical, 
# crystal, experimental, refinement or atomic coordinate data resulting 
# from the CCDC's data processing and validation procedures.
#
#######################################################################

data_TEDGUG
_symmetry_cell_setting           rhombohedral
_symmetry_space_group_name_H-M   'R -3'
_symmetry_Int_Tables_number      148
_space_group_name_Hall           '-R 3'
loop_
_symmetry_equiv_pos_site_id
_symmetry_equiv_pos_as_xyz
1 x,y,z
2 -y,x-y,z
3 -x+y,-x,z
4 2/3+x,1/3+y,1/3+z
5 2/3-y,1/3+x-y,1/3+z
6 2/3-x+y,1/3-x,1/3+z
7 1/3+x,2/3+y,2/3+z
8 1/3-y,2/3+x-y,2/3+z
9 1/3-x+y,2/3-x,2/3+z
10 -x,-y,-z
11 y,-x+y,-z
12 x-y,x,-z
13 1/3-x,2/3-y,2/3-z
14 1/3+y,2/3-x+y,2/3-z
15 1/3+x-y,2/3+x,2/3-z
16 2/3-x,1/3-y,1/3-z
17 2/3+y,1/3-x+y,1/3-z
18 2/3+x-y,1/3+x,1/3-z
_cell_length_a                   29.667(4)
_cell_length_b                   29.667(4)
_cell_length_c                   22.161(6)
_cell_angle_alpha                90
_cell_angle_beta                 90
_cell_angle_gamma                120
_cell_volume                     16891.5
loop_
_atom_site_label
_atom_site_type_symbol
_atom_site_fract_x
_atom_site_fract_y
_atom_site_fract_z
Zn2 Zn 0.6667 0.3333 0.8333
O1 O 0.7026(6) 0.2985(6) 0.7800(7)
N13 N 0.7385(9) 0.2701(8) 0.7238(8)
C10 C 0.714(3) 0.2620(17) 0.770(2)
C11 C 0.672(3) 0.212(3) 0.744(3)
H4 H 0.6406 0.2000 0.7679
H5 H 0.6822 0.1860 0.7455
H6 H 0.6648 0.2169 0.7033
C12 C 0.7585(12) 0.2375(11) 0.6969(11)
H7 H 0.7900 0.2593 0.6751
H8 H 0.7330 0.2125 0.6699
H9 H 0.7655 0.2197 0.7285
C13 C 0.783(4) 0.323(2) 0.707(4)
H10 H 0.8043 0.3190 0.6768
H11 H 0.8039 0.3395 0.7419
H12 H 0.7698 0.3441 0.6908
O1A O 0.7015(6) 0.4041(8) 0.7800(7)
O1B O 0.5959(8) 0.2974(6) 0.7800(7)
O1L O 0.6307(6) 0.3682(6) 0.8867(7)
O1M O 0.6318(6) 0.2626(8) 0.8867(7)
O1N O 0.7374(8) 0.3693(6) 0.8867(7)
N13A N 0.7299(8) 0.4684(12) 0.7238(8)
N13B N 0.5316(12) 0.2615(9) 0.7238(8)
N13L N 0.5948(9) 0.3966(8) 0.9429(8)
N13M N 0.6034(8) 0.1983(12) 0.9429(8)
N13N N 0.8017(12) 0.4052(9) 0.9429(8)
C10A C 0.7380(17) 0.4520(34) 0.770(2)
C10B C 0.5480(34) 0.286(3) 0.770(2)
C10L C 0.619(3) 0.4047(17) 0.897(2)
C10M C 0.5953(17) 0.2147(34) 0.897(2)
C10N C 0.7853(34) 0.381(3) 0.897(2)
C11A C 0.788(3) 0.460(4) 0.744(3)
C11B C 0.540(4) 0.328(3) 0.744(3)
C11L C 0.661(3) 0.455(3) 0.923(3)
C11M C 0.545(3) 0.207(4) 0.923(3)
C11N C 0.793(4) 0.339(3) 0.923(3)
H4A H 0.8000 0.4406 0.7679
H4B H 0.5594 0.3594 0.7679
H4L H 0.6927 0.4667 0.8988
H4M H 0.5333 0.2261 0.8988
H4N H 0.7739 0.3073 0.8988
H5A H 0.8140 0.4962 0.7455
H5B H 0.5038 0.3178 0.7455
H5L H 0.6511 0.4807 0.9212
H5M H 0.5193 0.1705 0.9212
H5N H 0.8295 0.3489 0.9212
H6A H 0.7831 0.4479 0.7033
H6B H 0.5521 0.3352 0.7033
H6L H 0.6685 0.4498 0.9634
H6M H 0.5502 0.2188 0.9634
H6N H 0.7812 0.3315 0.9634
C12A C 0.7625(11) 0.5210(16) 0.6969(11)
C12B C 0.4790(16) 0.2415(12) 0.6969(11)
C12L C 0.5748(12) 0.4292(11) 0.9698(11)
C12M C 0.5708(11) 0.1457(16) 0.9698(11)
C12N C 0.8543(16) 0.4252(12) 0.9698(11)
H7A H 0.7407 0.5307 0.6751
H7B H 0.4693 0.2100 0.6751
H7L H 0.5433 0.4074 0.9916
H7M H 0.5926 0.1360 0.9916
H7N H 0.8640 0.4567 0.9916
H8A H 0.7875 0.5205 0.6699
H8B H 0.4795 0.2670 0.6699
H8L H 0.6003 0.4542 0.9968
H8M H 0.5458 0.1462 0.9968
H8N H 0.8538 0.3997 0.9968
H9A H 0.7803 0.5458 0.7285
H9B H 0.4542 0.2345 0.7285
H9L H 0.5678 0.4470 0.9382
H9M H 0.5530 0.1209 0.9382
H9N H 0.8791 0.4322 0.9382
C13A C 0.677(2) 0.460(4) 0.707(4)
C13B C 0.540(4) 0.217(4) 0.707(4)
C13L C 0.550(4) 0.344(2) 0.960(4)
C13M C 0.656(2) 0.207(4) 0.960(4)
C13N C 0.793(4) 0.450(4) 0.960(4)
H10A H 0.6810 0.4853 0.6768
H10B H 0.5147 0.1957 0.6768
H10L H 0.5290 0.3477 0.9899
H10M H 0.6523 0.1814 0.9899
H10N H 0.8186 0.4710 0.9899
H11A H 0.6605 0.4644 0.7419
H11B H 0.5356 0.1961 0.7419
H11L H 0.5294 0.3272 0.9248
H11M H 0.6728 0.2023 0.9248
H11N H 0.7977 0.4706 0.9248
H12A H 0.6559 0.4257 0.6908
H12B H 0.5743 0.2302 0.6908
H12L H 0.5635 0.3226 0.9759
H12M H 0.6774 0.2410 0.9759
H12N H 0.7590 0.4365 0.9759
Zn1 Zn 0.43538(4) 0.00002(4) 0.00000(5)
N1 N 0.3635(3) 0.2193(3) -0.2109(3)
C1 C 0.3890(5) 0.1948(4) -0.1153(4)
C2 C 0.4151(4) 0.1670(4) -0.0266(4)
C3 C 0.4149(4) 0.2481(4) -0.0265(4)
N2 N 0.4316(3) 0.0627(3) 0.0191(4)
N3 N 0.4155(3) 0.0848(3) -0.0225(4)
N4 N 0.3642(3) 0.1444(3) -0.2111(3)
C4 C 0.3981(5) 0.1584(4) -0.0859(4)
H1 H 0.3928 0.1286 -0.1061
N5 N 0.3487(3) 0.1518(3) -0.2644(3)
C5 C 0.3980(4) 0.2394(4) -0.0855(5)
H2 H 0.3926 0.2638 -0.1055
N6 N 0.3485(3) 0.1969(3) -0.2646(3)
C6 C 0.3722(4) 0.1862(4) -0.1796(5)
C7 C 0.4241(4) 0.2118(4) 0.0032(4)
H3 H 0.4363 0.2178 0.0427
N7 N 0.4444(5) 0.1335(4) 0.0585(4)
C8 C 0.4251(5) 0.1280(4) 0.0038(5)
N8 N 0.4489(5) 0.0920(4) 0.0674(4)
N9 N 0.4156(3) 0.3308(3) -0.0225(3)
C9 C 0.4247(4) 0.2971(4) 0.0033(4)
N10 N 0.4448(4) 0.3112(4) 0.0585(4)
N11 N 0.4311(3) 0.3691(3) 0.0187(4)
N12 N 0.4486(4) 0.3570(4) 0.0675(5)
Zn1J Zn 0.00002(4) -0.43536(6) 0.00000(5)
Zn1K Zn 0.43536(6) 0.43538(4) 0.00000(5)
Zn1A Zn -0.00002(4) 0.43536(6) 0.00000(5)
Zn1B Zn -0.43536(6) -0.43538(4) 0.00000(5)
Zn1I Zn -0.43538(4) -0.00002(4) 0.00000(5)
Zn1C Zn 0.10205(4) 0.33335(4) 0.33333(5)
Zn1D Zn -0.33335(4) -0.23131(6) 0.33333(5)
Zn1E Zn 0.23131(6) -0.10205(4) 0.33333(5)
Zn1F Zn -0.23129(4) -0.33331(4) -0.33333(5)
Zn1G Zn 0.33331(4) 0.10203(6) -0.33333(5)
Zn1H Zn -0.10203(6) 0.23129(4) -0.33333(5)
Zn1O Zn 0.23129(4) 0.33331(4) 0.33333(5)
Zn1P Zn -0.33331(4) -0.10203(6) 0.33333(5)
Zn1Q Zn 0.10203(6) -0.23129(4) 0.33333(5)
Zn1L Zn -0.10205(4) -0.33335(4) -0.33333(5)
Zn1M Zn 0.33335(4) 0.23131(6) -0.33333(5)
Zn1N Zn -0.23131(6) 0.10205(4) -0.33333(5)
N1J N 0.2193(3) -0.1442(4) 0.2109(3)
N1K N 0.1442(4) 0.3635(3) 0.2109(3)
N1A N -0.2193(3) 0.1442(4) -0.2109(3)
N1B N -0.1442(4) -0.3635(3) -0.2109(3)
N1I N -0.3635(3) -0.2193(3) 0.2109(3)
C1J C 0.1948(4) -0.1942(6) 0.1153(4)
C1K C 0.1942(6) 0.3890(5) 0.1153(4)
C1A C -0.1948(4) 0.1942(6) -0.1153(4)
C1B C -0.1942(6) -0.3890(5) -0.1153(4)
C1I C -0.3890(5) -0.1948(4) 0.1153(4)
C2J C 0.1670(4) -0.2481(6) 0.0266(4)
C2K C 0.2481(6) 0.4151(4) 0.0266(4)
C2A C -0.1670(4) 0.2481(6) -0.0266(4)
C2B C -0.2481(6) -0.4151(4) -0.0266(4)
C2I C -0.4151(4) -0.1670(4) 0.0266(4)
C3J C 0.2481(4) -0.1668(6) 0.0265(4)
C3K C 0.1668(6) 0.4149(4) 0.0265(4)
C3A C -0.2481(4) 0.1668(6) -0.0265(4)
C3B C -0.1668(6) -0.4149(4) -0.0265(4)
C3I C -0.4149(4) -0.2481(4) 0.0265(4)
N2J N 0.0627(3) -0.3689(4) -0.0191(4)
N2K N 0.3689(4) 0.4316(3) -0.0191(4)
N2A N -0.0627(3) 0.3689(4) 0.0191(4)
N2B N -0.3689(4) -0.4316(3) 0.0191(4)
N2I N -0.4316(3) -0.0627(3) -0.0191(4)
N3J N 0.0848(3) -0.3307(4) 0.0225(4)
N3K N 0.3307(4) 0.4155(3) 0.0225(4)
N3A N -0.0848(3) 0.3307(4) -0.0225(4)
N3B N -0.3307(4) -0.4155(3) -0.0225(4)
N3I N -0.4155(3) -0.0848(3) 0.0225(4)
N4J N 0.1444(3) -0.2198(4) 0.2111(3)
N4K N 0.2198(4) 0.3642(3) 0.2111(3)
N4A N -0.1444(3) 0.2198(4) -0.2111(3)
N4B N -0.2198(4) -0.3642(3) -0.2111(3)
N4I N -0.3642(3) -0.1444(3) 0.2111(3)
C4J C 0.1584(4) -0.2397(6) 0.0859(4)
C4K C 0.2397(6) 0.3981(5) 0.0859(4)
C4A C -0.1584(4) 0.2397(6) -0.0859(4)
C4B C -0.2397(6) -0.3981(5) -0.0859(4)
C4I C -0.3981(5) -0.1584(4) 0.0859(4)
H1J H 0.1286 -0.2642 0.1061
H1K H 0.2642 0.3928 0.1061
H1A H -0.1286 0.2642 -0.1061
H1B H -0.2642 -0.3928 -0.1061
H1I H -0.3928 -0.1286 0.1061
N5J N 0.1518(3) -0.1969(4) 0.2644(3)
N5K N 0.1969(4) 0.3487(3) 0.2644(3)
N5A N -0.1518(3) 0.1969(4) -0.2644(3)
N5B N -0.1969(4) -0.3487(3) -0.2644(3)
N5I N -0.3487(3) -0.1518(3) 0.2644(3)
N5C N 0.0154(3) 0.4851(3) 0.0689(3)
N5D N -0.4851(3) -0.4698(4) 0.0689(3)
N5E N 0.4698(4) -0.0154(3) 0.0689(3)
N5L N -0.0154(3) -0.4851(3) -0.0689(3)
N5M N 0.4851(3) 0.4698(4) -0.0689(3)
N5N N -0.4698(4) 0.0154(3) -0.0689(3)
C5J C 0.2394(4) -0.1586(6) 0.0855(5)
C5K C 0.1586(6) 0.3980(4) 0.0855(5)
C5A C -0.2394(4) 0.1586(6) -0.0855(5)
C5B C -0.1586(6) -0.3980(4) -0.0855(5)
C5I C -0.3980(4) -0.2394(4) 0.0855(5)
H2J H 0.2638 -0.1288 0.1055
H2K H 0.1288 0.3926 0.1055
H2A H -0.2638 0.1288 -0.1055
H2B H -0.1288 -0.3926 -0.1055
H2I H -0.3926 -0.2638 0.1055
N6J N 0.1969(3) -0.1516(4) 0.2646(3)
N6K N 0.1516(4) 0.3485(3) 0.2646(3)
N6A N -0.1969(3) 0.1516(4) -0.2646(3)
N6B N -0.1516(4) -0.3485(3) -0.2646(3)
N6I N -0.3485(3) -0.1969(3) 0.2646(3)
N6C N 0.0152(3) -0.4698(3) 0.0687(3)
N6D N 0.4698(3) 0.4849(4) 0.0687(3)
N6E N -0.4849(4) -0.0152(3) 0.0687(3)
N6L N -0.0152(3) 0.4698(3) -0.0687(3)
N6M N -0.4698(3) -0.4849(4) -0.0687(3)
N6N N 0.4849(4) 0.0152(3) -0.0687(3)
C6J C 0.1862(4) -0.1860(6) 0.1796(5)
C6K C 0.1860(6) 0.3722(4) 0.1796(5)
C6A C -0.1862(4) 0.1860(6) -0.1796(5)
C6B C -0.1860(6) -0.3722(4) -0.1796(5)
C6I C -0.3722(4) -0.1862(4) 0.1796(5)
C7J C 0.2118(4) -0.2123(6) -0.0032(4)
C7K C 0.2123(6) 0.4241(4) -0.0032(4)
C7A C -0.2118(4) 0.2123(6) 0.0032(4)
C7B C -0.2123(6) -0.4241(4) 0.0032(4)
C7I C -0.4241(4) -0.2118(4) -0.0032(4)
H3J H 0.2178 -0.2185 -0.0427
H3K H 0.2185 0.4363 -0.0427
H3A H -0.2178 0.2185 0.0427
H3B H -0.2185 -0.4363 0.0427
H3I H -0.4363 -0.2178 -0.0427
N7J N 0.1335(4) -0.3109(6) -0.0585(4)
N7K N 0.3109(6) 0.4444(5) -0.0585(4)
N7A N -0.1335(4) 0.3109(6) 0.0585(4)
N7B N -0.3109(6) -0.4444(5) 0.0585(4)
N7I N -0.4444(5) -0.1335(4) -0.0585(4)
C8J C 0.1280(4) -0.2971(6) -0.0038(5)
C8K C 0.2971(6) 0.4251(5) -0.0038(5)
C8A C -0.1280(4) 0.2971(6) 0.0038(5)
C8B C -0.2971(6) -0.4251(5) 0.0038(5)
C8I C -0.4251(5) -0.1280(4) -0.0038(5)
N8J N 0.0920(4) -0.3569(6) -0.0674(4)
N8K N 0.3569(6) 0.4489(5) -0.0674(4)
N8A N -0.0920(4) 0.3569(6) 0.0674(4)
N8B N -0.3569(6) -0.4489(5) 0.0674(4)
N8I N -0.4489(5) -0.0920(4) -0.0674(4)
N9J N 0.3308(3) -0.0848(4) 0.0225(3)
N9K N 0.0848(4) 0.4156(3) 0.0225(3)
N9A N -0.3308(3) 0.0848(4) -0.0225(3)
N9B N -0.0848(4) -0.4156(3) -0.0225(3)
N9I N -0.4156(3) -0.3308(3) 0.0225(3)
C9J C 0.2971(4) -0.1276(6) -0.0033(4)
C9K C 0.1276(6) 0.4247(4) -0.0033(4)
C9A C -0.2971(4) 0.1276(6) 0.0033(4)
C9B C -0.1276(6) -0.4247(4) 0.0033(4)
C9I C -0.4247(4) -0.2971(4) -0.0033(4)
N10J N 0.3112(4) -0.1336(6) -0.0585(4)
N10K N 0.1336(6) 0.4448(4) -0.0585(4)
N10A N -0.3112(4) 0.1336(6) 0.0585(4)
N10B N -0.1336(6) -0.4448(4) 0.0585(4)
N10I N -0.4448(4) -0.3112(4) -0.0585(4)
N11J N 0.3691(3) -0.0620(4) -0.0187(4)
N11K N 0.0620(4) 0.4311(3) -0.0187(4)
N11A N -0.3691(3) 0.0620(4) 0.0187(4)
N11B N -0.0620(4) -0.4311(3) 0.0187(4)
N11I N -0.4311(3) -0.3691(3) -0.0187(4)
N12J N 0.3570(4) -0.0916(6) -0.0675(5)
N12K N 0.0916(6) 0.4486(4) -0.0675(5)
N12A N -0.3570(4) 0.0916(6) 0.0675(5)
N12B N -0.0916(6) -0.4486(4) 0.0675(5)
N12I N -0.4486(4) -0.3570(4) -0.0675(5)
loop_
_geom_bond_atom_site_label_1
_geom_bond_atom_site_label_2
_geom_bond_site_symmetry_1
_geom_bond_site_symmetry_2
Zn1 N2 1_555 1_555
Zn2 O1 1_555 1_555
N1 N6 1_555 1_555
C1 C4 1_555 1_555
C2 C4 1_555 1_555
C3 C5 1_555 1_555
N2 N3 1_555 1_555
N3 C8 1_555 1_555
N4 N5 1_555 1_555
C4 H1 1_555 1_555
N5 N6 1_555 1_555
C5 C1 1_555 1_555
H2 C5 1_555 1_555
N6 Zn1M 1_555 1_555
C6 N1 1_555 1_555
C7 C2 1_555 1_555
H3 C7 1_555 1_555
N7 C8 1_555 1_555
C8 C2 1_555 1_555
N8 N2 1_555 1_555
N9 C9 1_555 1_555
C9 C3 1_555 1_555
N10 C9 1_555 1_555
N11 N9 1_555 1_555
N12 N10 1_555 1_555
O1 C10 1_555 1_555
N13 C10 1_555 1_555
C10 C11 1_555 1_555
C11 H4 1_555 1_555
H5 C11 1_555 1_555
H6 C11 1_555 1_555
C12 N13 1_555 1_555
H7 C12 1_555 1_555
H8 C12 1_555 1_555
H9 C12 1_555 1_555
C13 N13 1_555 1_555
H10 C13 1_555 1_555
H11 C13 1_555 1_555
H12 C13 1_555 1_555
Zn1J N2J 1_555 1_555
Zn1K N11 1_555 1_555
Zn1A N2A 1_555 1_555
Zn1B N2B 1_555 1_555
Zn1I N2I 1_555 1_555
Zn1C N6K 1_555 1_555
Zn1D N6I 1_555 1_555
Zn1E N6J 1_555 1_555
Zn1F N5B 1_555 1_555
Zn1G N5 1_555 1_555
Zn1H N5A 1_555 1_555
Zn1O N5K 1_555 1_555
Zn1P N5I 1_555 1_555
Zn1Q N5J 1_555 1_555
Zn1L N6B 1_555 1_555
Zn1N N6A 1_555 1_555
N1J N6J 1_555 1_555
N1K N6K 1_555 1_555
N1A N6A 1_555 1_555
N1B N6B 1_555 1_555
N1I N6I 1_555 1_555
C1J C4J 1_555 1_555
C1K C4K 1_555 1_555
C1A C4A 1_555 1_555
C1B C4B 1_555 1_555
C1I C4I 1_555 1_555
C2J C4J 1_555 1_555
C2K C4K 1_555 1_555
C2A C4A 1_555 1_555
C2B C4B 1_555 1_555
C2I C4I 1_555 1_555
C3J C5J 1_555 1_555
C3K C5K 1_555 1_555
C3A C5A 1_555 1_555
C3B C5B 1_555 1_555
C3I C5I 1_555 1_555
N2J N3J 1_555 1_555
N2K Zn1K 1_555 1_555
N2A N3A 1_555 1_555
N2B N3B 1_555 1_555
N2I N3I 1_555 1_555
N3J C8J 1_555 1_555
N3K N2K 1_555 1_555
N3A C8A 1_555 1_555
N3B C8B 1_555 1_555
N3I C8I 1_555 1_555
N4J N5J 1_555 1_555
N4K N5K 1_555 1_555
N4A N5A 1_555 1_555
N4B N5B 1_555 1_555
N4I N5I 1_555 1_555
C4J H1J 1_555 1_555
C4K H1K 1_555 1_555
C4A H1A 1_555 1_555
C4B H1B 1_555 1_555
C4I H1I 1_555 1_555
N5J N6J 1_555 1_555
N5K N6K 1_555 1_555
N5A N6A 1_555 1_555
N5B N6B 1_555 1_555
N5I N6I 1_555 1_555
N5C Zn1A 1_555 1_555
N5D Zn1B 1_555 1_555
N5E Zn1 1_555 1_555
N5L Zn1J 1_555 1_555
N5M Zn1K 1_555 1_555
N5N Zn1I 1_555 1_555
C5J C1J 1_555 1_555
C5K C1K 1_555 1_555
C5A C1A 1_555 1_555
C5B C1B 1_555 1_555
C5I C1I 1_555 1_555
H2J C5J 1_555 1_555
H2K C5K 1_555 1_555
H2A C5A 1_555 1_555
H2B C5B 1_555 1_555
H2I C5I 1_555 1_555
N6C Zn1J 1_555 1_555
N6D Zn1K 1_555 1_555
N6E Zn1I 1_555 1_555
N6L Zn1A 1_555 1_555
N6M Zn1B 1_555 1_555
N6N Zn1 1_555 1_555
C6J N1J 1_555 1_555
C6K N1K 1_555 1_555
C6A N1A 1_555 1_555
C6B N1B 1_555 1_555
C6I N1I 1_555 1_555
C7J C2J 1_555 1_555
C7K C2K 1_555 1_555
C7A C2A 1_555 1_555
C7B C2B 1_555 1_555
C7I C2I 1_555 1_555
H3J C7J 1_555 1_555
H3K C7K 1_555 1_555
H3A C7A 1_555 1_555
H3B C7B 1_555 1_555
H3I C7I 1_555 1_555
N7J C8J 1_555 1_555
N7K C8K 1_555 1_555
N7A C8A 1_555 1_555
N7B C8B 1_555 1_555
N7I C8I 1_555 1_555
C8J C2J 1_555 1_555
C8K C2K 1_555 1_555
C8A C2A 1_555 1_555
C8B C2B 1_555 1_555
C8I C2I 1_555 1_555
N8J N2J 1_555 1_555
N8K N2K 1_555 1_555
N8A N2A 1_555 1_555
N8B N2B 1_555 1_555
N8I N2I 1_555 1_555
N9J C9J 1_555 1_555
N9K C9K 1_555 1_555
N9A C9A 1_555 1_555
N9B C9B 1_555 1_555
N9I C9I 1_555 1_555
C9J C3J 1_555 1_555
C9K C3K 1_555 1_555
C9A C3A 1_555 1_555
C9B C3B 1_555 1_555
C9I C3I 1_555 1_555
N10J C9J 1_555 1_555
N10K C9K 1_555 1_555
N10A C9A 1_555 1_555
N10B C9B 1_555 1_555
N10I C9I 1_555 1_555
N11J Zn1 1_555 1_555
N11K Zn1A 1_555 1_555
N11A Zn1I 1_555 1_555
N11B Zn1J 1_555 1_555
N11I Zn1B 1_555 1_555
N12J N10J 1_555 1_555
N12K N10K 1_555 1_555
N12A N10A 1_555 1_555
N12B N10B 1_555 1_555
N12I N10I 1_555 1_555
O1A Zn2 1_555 1_555
O1B Zn2 1_555 1_555
O1L Zn2 1_555 1_555
O1M Zn2 1_555 1_555
O1N Zn2 1_555 1_555
N13A C10A 1_555 1_555
N13B C10B 1_555 1_555
N13L C10L 1_555 1_555
N13M C10M 1_555 1_555
N13N C10N 1_555 1_555
C10A O1A 1_555 1_555
C10B O1B 1_555 1_555
C10L O1L 1_555 1_555
C10M O1M 1_555 1_555
C10N O1N 1_555 1_555
C11A C10A 1_555 1_555
C11B C10B 1_555 1_555
C11L C10L 1_555 1_555
C11M C10M 1_555 1_555
C11N C10N 1_555 1_555
H4A C11A 1_555 1_555
H4B C11B 1_555 1_555
H4L C11L 1_555 1_555
H4M C11M 1_555 1_555
H4N C11N 1_555 1_555
H5A C11A 1_555 1_555
H5B C11B 1_555 1_555
H5L C11L 1_555 1_555
H5M C11M 1_555 1_555
H5N C11N 1_555 1_555
H6A C11A 1_555 1_555
H6B C11B 1_555 1_555
H6L C11L 1_555 1_555
H6M C11M 1_555 1_555
H6N C11N 1_555 1_555
C12A N13A 1_555 1_555
C12B N13B 1_555 1_555
C12L N13L 1_555 1_555
C12M N13M 1_555 1_555
C12N N13N 1_555 1_555
H7A C12A 1_555 1_555
H7B C12B 1_555 1_555
H7L C12L 1_555 1_555
H7M C12M 1_555 1_555
H7N C12N 1_555 1_555
H8A C12A 1_555 1_555
H8B C12B 1_555 1_555
H8L C12L 1_555 1_555
H8M C12M 1_555 1_555
H8N C12N 1_555 1_555
H9A C12A 1_555 1_555
H9B C12B 1_555 1_555
H9L C12L 1_555 1_555
H9M C12M 1_555 1_555
H9N C12N 1_555 1_555
C13A N13A 1_555 1_555
C13B N13B 1_555 1_555
C13L N13L 1_555 1_555
C13M N13M 1_555 1_555
C13N N13N 1_555 1_555
H10A C13A 1_555 1_555
H10B C13B 1_555 1_555
H10L C13L 1_555 1_555
H10M C13M 1_555 1_555
H10N C13N 1_555 1_555
H11A C13A 1_555 1_555
H11B C13B 1_555 1_555
H11L C13L 1_555 1_555
H11M C13M 1_555 1_555
H11N C13N 1_555 1_555
H12A C13A 1_555 1_555
H12B C13B 1_555 1_555
H12L C13L 1_555 1_555
H12M C13M 1_555 1_555
H12N C13N 1_555 1_555
C1 C6 1_555 1_555
C3 C7 1_555 1_555
N4 C6 1_555 1_555
N7 N8 1_555 1_555
N11 N12 1_555 1_555
C1J C6J 1_555 1_555
C1K C6K 1_555 1_555
C1A C6A 1_555 1_555
C1B C6B 1_555 1_555
C1I C6I 1_555 1_555
C3J C7J 1_555 1_555
C3K C7K 1_555 1_555
C3A C7A 1_555 1_555
C3B C7B 1_555 1_555
C3I C7I 1_555 1_555
N3K C8K 1_555 1_555
N4J C6J 1_555 1_555
N4K C6K 1_555 1_555
N4A C6A 1_555 1_555
N4B C6B 1_555 1_555
N4I C6I 1_555 1_555
N7J N8J 1_555 1_555
N7K N8K 1_555 1_555
N7A N8A 1_555 1_555
N7B N8B 1_555 1_555
N7I N8I 1_555 1_555
N9J N11J 1_555 1_555
N9K N11K 1_555 1_555
N9A N11A 1_555 1_555
N9B N11B 1_555 1_555
N9I N11I 1_555 1_555
N11J N12J 1_555 1_555
N11K N12K 1_555 1_555
N11A N12A 1_555 1_555
N11B N12B 1_555 1_555
N11I N12I 1_555 1_555

#END
