
#######################################################################
#
#                 Cambridge Crystallographic Data Centre
#                                CCDC 
#
#######################################################################
#
# If this CIF has been generated from an entry in the Cambridge 
# Structural Database, then it will include bibliographic, chemical, 
# crystal, experimental, refinement or atomic coordinate data resulting 
# from the CCDC's data processing and validation procedures.
#
#######################################################################

data_TEDGIT
_symmetry_cell_setting           monoclinic
_symmetry_space_group_name_H-M   'C 2/c'
_symmetry_Int_Tables_number      15
_space_group_name_Hall           '-C 2yn'
loop_
_symmetry_equiv_pos_site_id
_symmetry_equiv_pos_as_xyz
1 x,y,z
2 1/2+x,1/2+y,z
3 -x,y,1/2-z
4 1/2-x,1/2+y,1/2-z
5 -x,-y,-z
6 1/2-x,1/2-y,-z
7 x,-y,1/2+z
8 1/2+x,1/2-y,1/2+z
_cell_length_a                   16.6795(11)
_cell_length_b                   6.1977(4)
_cell_length_c                   23.5700(15)
_cell_angle_alpha                90
_cell_angle_beta                 93.853(2)
_cell_angle_gamma                90
_cell_volume                     2431.03
loop_
_atom_site_label
_atom_site_type_symbol
_atom_site_fract_x
_atom_site_fract_y
_atom_site_fract_z
Cd1 Cd 0.0000 0.52853(12) -0.2500
S1 S 0.09906(12) 0.7696(4) 0.13685(8)
O1 O 0.0384(3) 0.8185(9) -0.1823(2)
O2 O 0.0775(3) 0.4850(9) -0.1648(2)
O3 O 0.0000 0.1633(12) -0.2500
N1 N 0.1252(3) 0.4280(10) 0.1998(2)
N2 N 0.2331(4) 0.5309(12) 0.1442(3)
C1 C 0.0688(4) 0.6785(12) -0.1481(3)
C2 C 0.0935(4) 0.7375(11) -0.0884(3)
C3 C 0.1273(5) 0.5828(13) -0.0516(3)
H1 H 0.1357 0.4392 -0.0648
C4 C 0.1486(5) 0.6367(14) 0.0043(3)
H2 H 0.1713 0.5285 0.0296
C5 C 0.0808(4) 0.9430(12) -0.0686(3)
H3 H 0.0579 1.0504 -0.0941
C6 C 0.1024(5) 0.9933(12) -0.0120(3)
H4 H 0.0933 1.1363 0.0017
C7 C 0.1363(4) 0.8423(12) 0.0250(3)
C8 C 0.1595(5) 0.8997(14) 0.0860(3)
H5 H 0.2148 0.8637 0.0947
H6 H 0.1541 1.0529 0.0900
C9 C 0.1599(4) 0.5544(12) 0.1620(3)
C10 C 0.2739(5) 0.3588(14) 0.1641(3)
H7 H 0.3273 0.3387 0.1524
C11 C 0.2424(5) 0.2128(14) 0.2000(3)
H8 H 0.2729 0.0886 0.2119
C12 C 0.1671(4) 0.2527(12) 0.2178(3)
H9 H 0.1439 0.1535 0.2433
Cd1D Cd 0.0000 0.47147(12) 0.2500
Cd1D_2 Cd 0.0000 0.47147(12) -0.7500
S1B S -0.09906(12) 0.7696(4) -0.63685(8)
O1B O -0.0384(3) 0.8185(9) -0.3177(2)
O2B O -0.0775(3) 0.4850(9) -0.3352(2)
N1B N -0.1252(3) 0.4280(10) -0.6998(2)
N1F N 0.1252(3) 0.5720(10) -0.3002(2)
N1D N -0.1252(3) 0.5720(10) -0.1998(2)
N2B N -0.2331(4) 0.5309(12) -0.6442(3)
C1B C -0.0688(4) 0.6785(12) -0.3519(3)
C2B C -0.0935(4) 0.7375(11) -0.4116(3)
C3B C -0.1273(5) 0.5828(13) -0.4484(3)
H1B H -0.1357 0.4392 -0.4352
C4B C -0.1486(5) 0.6367(14) -0.5043(3)
H2B H -0.1713 0.5285 -0.5296
C5B C -0.0808(4) 0.9430(12) -0.4314(3)
H3B H -0.0579 1.0504 -0.4059
C6B C -0.1024(5) 0.9933(12) -0.4880(3)
H4B H -0.0933 1.1363 -0.5017
C7B C -0.1363(4) 0.8423(12) -0.5250(3)
C8B C -0.1595(5) 0.8997(14) -0.5860(3)
H5B H -0.2148 0.8637 -0.5947
H6B H -0.1541 1.0529 -0.5900
C9B C -0.1599(4) 0.5544(12) -0.6620(3)
C10B C -0.2739(5) 0.3588(14) -0.6641(3)
H7B H -0.3273 0.3387 -0.6524
C11B C -0.2424(5) 0.2128(14) -0.7000(3)
H8B H -0.2729 0.0886 -0.7119
C12B C -0.1671(4) 0.2527(12) -0.7178(3)
H9B H -0.1439 0.1535 -0.7433
loop_
_geom_bond_atom_site_label_1
_geom_bond_atom_site_label_2
_geom_bond_site_symmetry_1
_geom_bond_site_symmetry_2
Cd1 O1 1_555 1_555
S1 C8 1_555 1_555
O1 C1 1_555 1_555
O2 Cd1 1_555 1_555
O3 Cd1 1_555 1_555
N1 C9 1_555 1_555
N2 C9 1_555 1_555
C1 O2 1_555 1_555
C2 C1 1_555 1_555
C3 C2 1_555 1_555
H1 C3 1_555 1_555
C4 C3 1_555 1_555
H2 C4 1_555 1_555
C5 C2 1_555 1_555
H3 C5 1_555 1_555
C6 C5 1_555 1_555
H4 C6 1_555 1_555
C7 C4 1_555 1_555
C8 C7 1_555 1_555
H5 C8 1_555 1_555
H6 C8 1_555 1_555
C9 S1 1_555 1_555
C10 N2 1_555 1_555
H7 C10 1_555 1_555
C11 C10 1_555 1_555
H8 C11 1_555 1_555
C12 N1 1_555 1_555
H9 C12 1_555 1_555
Cd1D N1 1_555 1_555
Cd1D_2 N1B 1_555 1_555
S1B C8B 1_555 1_555
O1B Cd1 1_555 1_555
O2B Cd1 1_555 1_555
N1B C9B 1_555 1_555
N1F Cd1 1_555 1_555
N1D Cd1 1_555 1_555
N2B C9B 1_555 1_555
C1B O1B 1_555 1_555
C2B C1B 1_555 1_555
C3B C2B 1_555 1_555
H1B C3B 1_555 1_555
C4B C3B 1_555 1_555
H2B C4B 1_555 1_555
C5B C2B 1_555 1_555
H3B C5B 1_555 1_555
C6B C5B 1_555 1_555
H4B C6B 1_555 1_555
C7B C4B 1_555 1_555
C8B C7B 1_555 1_555
H5B C8B 1_555 1_555
H6B C8B 1_555 1_555
C9B S1B 1_555 1_555
C10B N2B 1_555 1_555
H7B C10B 1_555 1_555
C11B C10B 1_555 1_555
H8B C11B 1_555 1_555
C12B N1B 1_555 1_555
H9B C12B 1_555 1_555
C6 C7 1_555 1_555
C11 C12 1_555 1_555
O2B C1B 1_555 1_555
C6B C7B 1_555 1_555
C11B C12B 1_555 1_555

#END
