
#######################################################################
#
#                 Cambridge Crystallographic Data Centre
#                                CCDC 
#
#######################################################################
#
# If this CIF has been generated from an entry in the Cambridge 
# Structural Database, then it will include bibliographic, chemical, 
# crystal, experimental, refinement or atomic coordinate data resulting 
# from the CCDC's data processing and validation procedures.
#
#######################################################################

data_TEDHAN
_symmetry_cell_setting           rhombohedral
_symmetry_space_group_name_H-M   'R -3 c'
_symmetry_Int_Tables_number      167
_space_group_name_Hall           '-R 3 2"c'
loop_
_symmetry_equiv_pos_site_id
_symmetry_equiv_pos_as_xyz
1 x,y,z
2 -y,x-y,z
3 -x+y,-x,z
4 y,x,1/2-z
5 x-y,-y,1/2-z
6 -x,-x+y,1/2-z
7 2/3+x,1/3+y,1/3+z
8 2/3-y,1/3+x-y,1/3+z
9 2/3-x+y,1/3-x,1/3+z
10 2/3+y,1/3+x,5/6-z
11 2/3+x-y,1/3-y,5/6-z
12 2/3-x,1/3-x+y,5/6-z
13 1/3+x,2/3+y,2/3+z
14 1/3-y,2/3+x-y,2/3+z
15 1/3-x+y,2/3-x,2/3+z
16 1/3+y,2/3+x,1/6-z
17 1/3+x-y,2/3-y,1/6-z
18 1/3-x,2/3-x+y,1/6-z
19 -x,-y,-z
20 y,-x+y,-z
21 x-y,x,-z
22 -y,-x,1/2+z
23 -x+y,y,1/2+z
24 x,x-y,1/2+z
25 1/3-x,2/3-y,2/3-z
26 1/3+y,2/3-x+y,2/3-z
27 1/3+x-y,2/3+x,2/3-z
28 1/3-y,2/3-x,1/6+z
29 1/3-x+y,2/3+y,1/6+z
30 1/3+x,2/3+x-y,1/6+z
31 2/3-x,1/3-y,1/3-z
32 2/3+y,1/3-x+y,1/3-z
33 2/3+x-y,1/3+x,1/3-z
34 2/3-y,1/3-x,5/6+z
35 2/3-x+y,1/3+y,5/6+z
36 2/3+x,1/3+x-y,5/6+z
_cell_length_a                   28.993(3)
_cell_length_b                   28.993(3)
_cell_length_c                   21.958(3)
_cell_angle_alpha                90
_cell_angle_beta                 90
_cell_angle_gamma                120
_cell_volume                     15984.9
loop_
_atom_site_label
_atom_site_type_symbol
_atom_site_fract_x
_atom_site_fract_y
_atom_site_fract_z
Zn1 Zn 0.55952(3) 0.55143(3) 0.95263(3)
C1 C 0.7652(2) 0.6590(2) 1.0288(3)
C2 C 0.6211(3) 0.6667 0.9167
C3 C 0.6724(3) 0.6667 0.9167
C4 C 0.6941(3) 0.6604(3) 0.9705(3)
H1 H 0.6756 0.6548 1.0068
C5 C 0.7421(2) 0.6622(2) 0.9709(3)
C6 C 0.7677(3) 0.6667 0.9167
H2 H 0.7998 0.6667 0.9167
N1 N 0.81958(15) 0.65612(14) 1.09123(15)
N2 N 0.78208(15) 0.65976(15) 1.12246(14)
N3 N 0.74852(18) 0.66192(17) 1.08258(17)
N4 N 0.80920(19) 0.65604(18) 1.03206(18)
N5 N 0.57651(19) 0.6259(2) 0.9306(2)
N6 N 0.5397(2) 0.6430(2) 0.9252(3)
Cl1 Cl 0.61489(11) 0.52721(11) 0.91727(13)
Zn1J Zn 0.67476(4) 0.78190(3) 0.88070(3)
Zn1M Zn 0.78190(3) 0.67476(4) 0.61930(3)
Zn1Q Zn 0.77381(3) 0.65858(4) 1.21404(3)
Zn1Y Zn 0.88476(3) 0.65858(4) 0.71404(3)
Zn1CA Zn 0.89285(3) 0.67476(4) 1.11930(3)
C1J C 0.7729(3) 0.6743(2) 0.8045(3)
C4J C 0.7004(4) 0.6729(3) 0.8628(3)
H1J H 0.6875 0.6785 0.8265
C5J C 0.7466(3) 0.6711(2) 0.8624(3)
N1J N 0.83013(21) 0.67721(14) 0.74210(15)
N1S N 0.65612(14) 0.83654(21) 0.90877(15)
N1IA N 0.48625(15) 0.49679(21) 0.92456(15)
N2J N 0.78899(21) 0.67357(15) 0.71087(14)
N2M N 0.67357(15) 0.78899(21) 0.78913(14)
N2Q N 0.55125(15) 0.54435(21) 1.04421(14)
N3J N 0.75327(25) 0.67141(17) 0.75075(17)
N4J N 0.81983(26) 0.67729(18) 0.80127(18)
N5J N 0.61728(28) 0.7074(2) 0.9027(2)
N6J N 0.5634(3) 0.6903(2) 0.9081(3)
Cl1J Cl 0.75435(16) 0.80612(11) 0.91606(13)
loop_
_geom_bond_atom_site_label_1
_geom_bond_atom_site_label_2
_geom_bond_site_symmetry_1
_geom_bond_site_symmetry_2
Zn1 N5 1_555 1_555
C1 C5 1_555 1_555
C2 C3 1_555 1_555
C3 C4 1_555 1_555
C4 H1 1_555 1_555
C5 C4 1_555 1_555
C6 C5 1_555 1_555
H2 C6 1_555 1_555
N1 N2 1_555 1_555
N2 N3 1_555 1_555
N3 C1 1_555 1_555
N4 C1 1_555 1_555
N5 C2 1_555 1_555
N6 N5 1_555 1_555
Cl1 Zn1 1_555 1_555
Zn1J N1S 1_555 1_555
Zn1M N2J 1_555 1_555
Zn1Q N2 1_555 1_555
Zn1Y N1J 1_555 1_555
Zn1CA N1 1_555 1_555
C1J C5J 1_555 1_555
C4J C3 1_555 1_555
H1J C4J 1_555 1_555
C5J C6 1_555 1_555
N1J N2J 1_555 1_555
N1IA Zn1 1_555 1_555
N2J N3J 1_555 1_555
N2M Zn1J 1_555 1_555
N2Q Zn1 1_555 1_555
N3J C1J 1_555 1_555
N4J C1J 1_555 1_555
N5J C2 1_555 1_555
N6J N6 1_555 1_555
Cl1J Zn1J 1_555 1_555
N1 N4 1_555 1_555
Zn1J N5J 1_555 1_555
C4J C5J 1_555 1_555
N1J N4J 1_555 1_555
N5J N6J 1_555 1_555

#END
