
#######################################################################
#
#                 Cambridge Crystallographic Data Centre
#                                CCDC 
#
#######################################################################
#
# If this CIF has been generated from an entry in the Cambridge 
# Structural Database, then it will include bibliographic, chemical, 
# crystal, experimental, refinement or atomic coordinate data resulting 
# from the CCDC's data processing and validation procedures.
#
#######################################################################

data_TEDJAO
_symmetry_cell_setting           monoclinic
_symmetry_space_group_name_H-M   'P 21/n'
_symmetry_Int_Tables_number      14
_space_group_name_Hall           '-P 2yn'
loop_
_symmetry_equiv_pos_site_id
_symmetry_equiv_pos_as_xyz
1 x,y,z
2 1/2-x,1/2+y,1/2-z
3 -x,-y,-z
4 1/2+x,1/2-y,1/2+z
_cell_length_a                   8.7753(12)
_cell_length_b                   9.714(2)
_cell_length_c                   21.060(8)
_cell_angle_alpha                90
_cell_angle_beta                 97.64(2)
_cell_angle_gamma                90
_cell_volume                     1779.29
loop_
_atom_site_label
_atom_site_type_symbol
_atom_site_fract_x
_atom_site_fract_y
_atom_site_fract_z
C1 C 0.6640(5) -0.0431(5) 0.27526(19)
H1 H 0.6308 -0.1232 0.2535
C2 C 0.8127(5) -0.0386(5) 0.3066(2)
H2 H 0.8774 -0.1143 0.3062
C3 C 0.8629(5) 0.0792(5) 0.33803(19)
H3 H 0.9631 0.0859 0.3587
C4 C 0.7627(5) 0.1870(5) 0.33849(18)
H4 H 0.7933 0.2677 0.3603
C5 C 0.6158(5) 0.1747(4) 0.30625(18)
H5 H 0.5488 0.2488 0.3066
C6 C 0.0712(5) -0.0253(5) 0.10493(19)
H6 H 0.1500 -0.0712 0.0883
C7 C -0.0736(5) -0.0320(5) 0.0718(2)
H7 H -0.0925 -0.0816 0.0338
C8 C -0.1913(5) 0.0368(5) 0.0961(2)
H8 H -0.2910 0.0355 0.0745
C9 C -0.1576(5) 0.1065(5) 0.1524(2)
H9 H -0.2347 0.1523 0.1702
C10 C -0.0087(5) 0.1085(5) 0.1826(2)
H10 H 0.0129 0.1575 0.2207
C11 C 0.3817(4) 0.2058(4) 0.09938(18)
C12 C 0.2863(4) 0.3588(4) 0.18880(16)
C13 C 0.3097(4) 0.3355(4) 0.12013(16)
C14 C 0.2682(4) 0.4370(4) 0.07587(16)
C15 C 0.2567(6) 0.5977(5) -0.0270(2)
H11 H 0.3509 0.6506 -0.0183
H12 H 0.2197 0.6045 -0.0723
C16 C 0.1384(5) 0.6539(4) 0.01131(17)
H13 H 0.0367 0.6232 -0.0069
H14 H 0.1401 0.7537 0.0105
N1 N 0.5661(4) 0.0615(4) 0.27485(14)
N2 N 0.1058(3) 0.0433(3) 0.15979(14)
O1 O 0.2995(3) 0.2614(3) 0.22942(11)
O2 O 0.4442(3) 0.1229(3) 0.14031(12)
O3 O 0.2518(3) 0.4787(3) 0.20401(11)
O4 O 0.3771(4) 0.1842(3) 0.04123(13)
O6 O 0.3875(4) -0.1496(3) 0.18559(16)
S1 S 0.29359(14) 0.41975(11) -0.00525(4)
S2 S 0.18232(12) 0.59277(10) 0.09275(5)
Zn1 Zn 0.34181(5) 0.05333(5) 0.215927(19)
H15 H 0.398(5) -0.167(4) 0.148(2)
H18 H 0.338(6) -0.200(5) 0.197(2)
O3A O 0.2482(3) -0.0213(3) 0.29599(11)
Zn1A Zn 0.15819(5) 0.55333(5) 0.284073(19)
O5 O -0.5657(5) -0.1249(4) 0.05824(18)
H16 H -0.524(6) -0.145(6) 0.031(2)
H17 H -0.564(6) -0.051(5) 0.069(3)
loop_
_geom_bond_atom_site_label_1
_geom_bond_atom_site_label_2
_geom_bond_site_symmetry_1
_geom_bond_site_symmetry_2
C1 H1 1_555 1_555
C2 C1 1_555 1_555
H2 C2 1_555 1_555
C3 C2 1_555 1_555
H3 C3 1_555 1_555
C4 C3 1_555 1_555
H4 C4 1_555 1_555
C5 C4 1_555 1_555
H5 C5 1_555 1_555
C6 H6 1_555 1_555
C7 C6 1_555 1_555
H7 C7 1_555 1_555
C8 C7 1_555 1_555
H8 C8 1_555 1_555
C9 C8 1_555 1_555
H9 C9 1_555 1_555
C10 C9 1_555 1_555
H10 C10 1_555 1_555
C11 C13 1_555 1_555
C12 C13 1_555 1_555
C13 C14 1_555 1_555
C14 S1 1_555 1_555
C15 H11 1_555 1_555
H12 C15 1_555 1_555
C16 C15 1_555 1_555
H13 C16 1_555 1_555
H14 C16 1_555 1_555
N1 C1 1_555 1_555
N2 C6 1_555 1_555
O1 C12 1_555 1_555
O2 C11 1_555 1_555
O3 C12 1_555 1_555
O4 C11 1_555 1_555
O5 H16 1_555 1_555
O6 Zn1 1_555 1_555
S1 C15 1_555 1_555
S2 C14 1_555 1_555
Zn1 N1 1_555 1_555
H15 O6 1_555 1_555
H17 O5 1_555 1_555
H18 O6 1_555 1_555
O3A Zn1 1_555 1_555
Zn1A O3 1_555 1_555
C5 N1 1_555 1_555
C10 N2 1_555 1_555
C16 S2 1_555 1_555
N2 Zn1 1_555 1_555
O1 Zn1 1_555 1_555
O2 Zn1 1_555 1_555

#END
