
#######################################################################
#
#                 Cambridge Crystallographic Data Centre
#                                CCDC 
#
#######################################################################
#
# If this CIF has been generated from an entry in the Cambridge 
# Structural Database, then it will include bibliographic, chemical, 
# crystal, experimental, refinement or atomic coordinate data resulting 
# from the CCDC's data processing and validation procedures.
#
#######################################################################

data_TEDLOE
_symmetry_cell_setting           monoclinic
_symmetry_space_group_name_H-M   'P 21/n'
_symmetry_Int_Tables_number      14
_space_group_name_Hall           '-P 2yn'
loop_
_symmetry_equiv_pos_site_id
_symmetry_equiv_pos_as_xyz
1 x,y,z
2 1/2-x,1/2+y,1/2-z
3 -x,-y,-z
4 1/2+x,1/2-y,1/2+z
_cell_length_a                   7.6645(15)
_cell_length_b                   15.508(3)
_cell_length_c                   11.242(2)
_cell_angle_alpha                90
_cell_angle_beta                 103.68(3)
_cell_angle_gamma                90
_cell_volume                     1298.33
loop_
_atom_site_label
_atom_site_type_symbol
_atom_site_fract_x
_atom_site_fract_y
_atom_site_fract_z
Zn1 Zn 0.17547(3) 0.988144(14) 0.58979(2)
C1 C -0.3370(3) 0.66289(13) 0.76312(19)
C2 C -0.4632(3) 0.70814(14) 0.6753(2)
H1 H -0.5847 0.6954 0.6631
C3 C -0.4074(3) 0.77210(14) 0.6063(2)
H2 H -0.4919 0.8024 0.5484
C4 C -0.2256(3) 0.79112(13) 0.62325(19)
C5 C -0.1002(3) 0.74330(15) 0.7072(2)
H3 H 0.0217 0.7540 0.7163
C6 C -0.1550(3) 0.67988(14) 0.7772(2)
H4 H -0.0701 0.6487 0.8336
C7 C -0.3962(3) 0.59760(13) 0.84441(19)
C8 C -0.1638(3) 0.86762(13) 0.56166(19)
N1 N 0.5419(3) 0.88606(17) 0.8934(2)
H5 H 0.5710 0.8589 0.9619
C9 C 0.5545(3) 0.96013(15) 0.7306(2)
H6 H 0.6006 0.9907 0.6738
C10 C 0.8458(3) 0.92840(18) 0.8808(2)
H7 H 0.9031 0.9425 0.8150
H8 H 0.8886 0.8721 0.9125
C11 C 0.8979(3) 0.99468(16) 0.9814(2)
H9 H 0.8544 0.9767 1.0518
H10 H 0.8426 1.0496 0.9532
N2 N 0.3822(2) 0.94519(12) 0.72237(16)
N3 N 0.6515(2) 0.92488(13) 0.83231(17)
C12 C 0.3806(3) 0.89911(18) 0.8242(2)
H11 H 0.2762 0.8788 0.8431
O1 O -0.0052(2) 0.89177(11) 0.60320(16)
O2 O -0.2754(2) 0.90416(10) 0.47649(15)
O3 O -0.5533(2) 0.56885(11) 0.81107(15)
O4 O -0.2821(2) 0.57579(11) 0.93935(14)
Zn1B Zn 1.82453(3) 1.011856(14) 1.41021(2)
Zn1B_2 Zn -0.17547(3) 1.011856(14) 0.41021(2)
Zn1A Zn -0.67547(3) 0.488144(14) 0.91021(2)
Zn1C Zn -0.32453(3) 0.511856(14) 1.08979(2)
Zn1C_2 Zn 0.67547(3) 1.511856(14) 0.08979(2)
Zn1A_2 Zn 0.32453(3) 1.488144(14) -0.08979(2)
C1B C 0.3370(3) 1.33711(13) 0.23688(19)
C2B C 0.4632(3) 1.29186(14) 0.3247(2)
H1B H 0.5847 1.3046 0.3369
C3B C 0.4074(3) 1.22790(14) 0.3937(2)
H2B H 0.4919 1.1976 0.4516
C4B C 0.2256(3) 1.20888(13) 0.37675(19)
C5B C 0.1002(3) 1.25670(15) 0.2928(2)
H3B H -0.0217 1.2460 0.2837
C6B C 0.1550(3) 1.32012(14) 0.2228(2)
H4B H 0.0701 1.3513 0.1664
C7B C 0.3962(3) 1.40240(13) 0.15559(19)
C8B C 0.1638(3) 1.13238(13) 0.43834(19)
N1B N 1.4581(3) 1.11394(17) 1.1066(2)
H5B H 1.4290 1.1411 1.0381
C9B C 1.4455(3) 1.03987(15) 1.2694(2)
H6B H 1.3994 1.0093 1.3262
C10B C 1.1542(3) 1.07160(18) 1.1192(2)
H7B H 1.0969 1.0575 1.1850
H8B H 1.1114 1.1279 1.0875
C11B C 1.1021(3) 1.00532(16) 1.0186(2)
H9B H 1.1456 1.0233 0.9482
H10B H 1.1574 0.9504 1.0468
N2B N 1.6178(2) 1.05481(12) 1.27763(16)
N3B N 1.3485(2) 1.07512(13) 1.16769(17)
C12B C 1.6194(3) 1.10089(18) 1.1758(2)
H11B H 1.7238 1.1212 1.1569
O1B O 0.0052(2) 1.10823(11) 0.39680(16)
O1B_2 O 2.0052(2) 1.10823(11) 1.39680(16)
O2B O 0.2754(2) 1.09584(10) 0.52351(15)
O2_2 O 1.7246(2) 0.90416(10) 1.47649(15)
O3B O 0.5533(2) 1.43115(11) 0.18893(15)
O3A O 0.0533(2) 1.06885(11) 0.68893(15)
O3C O 1.9467(2) 0.93115(11) 1.31107(15)
O4B O 0.2821(2) 1.42421(11) 0.06065(14)
O4C O 0.2179(2) 0.92421(11) 0.43935(14)
O4A O 1.7821(2) 1.07579(11) 1.56065(14)
loop_
_geom_bond_atom_site_label_1
_geom_bond_atom_site_label_2
_geom_bond_site_symmetry_1
_geom_bond_site_symmetry_2
Zn1 N2 1_555 1_555
C1 C2 1_555 1_555
C2 H1 1_555 1_555
C3 C2 1_555 1_555
H2 C3 1_555 1_555
C4 C3 1_555 1_555
C5 C4 1_555 1_555
H3 C5 1_555 1_555
C6 C1 1_555 1_555
H4 C6 1_555 1_555
C7 C1 1_555 1_555
C8 C4 1_555 1_555
N1 H5 1_555 1_555
C9 H6 1_555 1_555
C10 H7 1_555 1_555
H8 C10 1_555 1_555
C11 C10 1_555 1_555
H9 C11 1_555 1_555
H10 C11 1_555 1_555
N2 C9 1_555 1_555
N3 N1 1_555 1_555
C12 N1 1_555 1_555
H11 C12 1_555 1_555
O1 Zn1 1_555 1_555
O2 C8 1_555 1_555
O3 C7 1_555 1_555
O4 C7 1_555 1_555
Zn1B N2B 1_555 1_555
Zn1B_2 O2 1_555 1_555
Zn1A O3 1_555 1_555
Zn1C O4 1_555 1_555
Zn1C_2 O3B 1_555 1_555
Zn1A_2 O4B 1_555 1_555
C1B C2B 1_555 1_555
C2B H1B 1_555 1_555
C3B C2B 1_555 1_555
H2B C3B 1_555 1_555
C4B C3B 1_555 1_555
C5B C4B 1_555 1_555
H3B C5B 1_555 1_555
C6B C1B 1_555 1_555
H4B C6B 1_555 1_555
C7B C1B 1_555 1_555
C8B C4B 1_555 1_555
N1B H5B 1_555 1_555
C9B H6B 1_555 1_555
C10B H7B 1_555 1_555
H8B C10B 1_555 1_555
C11B C11 1_555 1_555
H9B C11B 1_555 1_555
H10B C11B 1_555 1_555
N2B C9B 1_555 1_555
N3B N1B 1_555 1_555
C12B N1B 1_555 1_555
H11B C12B 1_555 1_555
O1B Zn1B_2 1_555 1_555
O1B_2 Zn1B 1_555 1_555
O2B Zn1 1_555 1_555
O2_2 Zn1B 1_555 1_555
O3B C7B 1_555 1_555
O3A Zn1 1_555 1_555
O3C Zn1B 1_555 1_555
O4B C7B 1_555 1_555
O4C Zn1 1_555 1_555
O4A Zn1B 1_555 1_555
C5 C6 1_555 1_555
C8 O1 1_555 1_555
C9 N3 1_555 1_555
C10 N3 1_555 1_555
N2 C12 1_555 1_555
C5B C6B 1_555 1_555
C8B O1B 1_555 1_555
C8B O2B 1_555 1_555
C9B N3B 1_555 1_555
C10B C11B 1_555 1_555
C10B N3B 1_555 1_555
N2B C12B 1_555 1_555

#END
