
#######################################################################
#
#                 Cambridge Crystallographic Data Centre
#                                CCDC 
#
#######################################################################
#
# If this CIF has been generated from an entry in the Cambridge 
# Structural Database, then it will include bibliographic, chemical, 
# crystal, experimental, refinement or atomic coordinate data resulting 
# from the CCDC's data processing and validation procedures.
#
#######################################################################

data_TEDLIY
_symmetry_cell_setting           triclinic
_symmetry_space_group_name_H-M   'P -1'
_symmetry_Int_Tables_number      2
_space_group_name_Hall           '-P 1'
loop_
_symmetry_equiv_pos_site_id
_symmetry_equiv_pos_as_xyz
1 x,y,z
2 -x,-y,-z
_cell_length_a                   9.6551(19)
_cell_length_b                   11.322(2)
_cell_length_c                   18.200(4)
_cell_angle_alpha                98.90(3)
_cell_angle_beta                 91.04(3)
_cell_angle_gamma                111.01(3)
_cell_volume                     1829.05
loop_
_atom_site_label
_atom_site_type_symbol
_atom_site_fract_x
_atom_site_fract_y
_atom_site_fract_z
Zn1 Zn 1.02628(7) 1.09194(6) 0.30683(3)
Zn2 Zn 0.44692(7) -0.09770(6) 0.19019(3)
C1 C 0.8649(7) 0.9645(6) 0.0299(4)
H1 H 0.7729 0.9400 0.0499
C2 C 0.9928(8) 1.0271(6) 0.0759(3)
C3 C 0.8727(7) 0.9380(6) -0.0460(4)
H2 H 0.7858 0.8959 -0.0771
C4 C 0.9768(9) 1.0501(7) 0.1610(4)
C5 C 1.0312(6) 1.4879(6) 0.4257(3)
H3 H 1.0521 1.4803 0.3759
C6 C 0.9861(6) 1.3807(5) 0.4599(3)
C7 C 1.0453(6) 1.6076(6) 0.4660(3)
H4 H 1.0759 1.6797 0.4431
C8 C 0.9752(5) 1.2522(5) 0.4170(3)
C9 C 0.4656(6) -0.4951(6) 0.0735(3)
H5 H 0.4425 -0.4920 0.1230
C10 C 0.5002(6) -0.3864(5) 0.0416(3)
C11 C 0.4650(6) -0.6098(6) 0.0323(3)
H6 H 0.4416 -0.6830 0.0540
C12 C 0.4978(6) -0.2633(6) 0.0857(3)
C13 C 0.6030(6) 0.0114(6) 0.4470(3)
H7 H 0.6726 0.0192 0.4117
C14 C 0.4519(6) -0.0493(6) 0.4249(3)
C15 C 0.6494(6) 0.0597(6) 0.5212(3)
H8 H 0.7506 0.1001 0.5354
C16 C 0.3997(7) -0.1032(6) 0.3442(3)
C17 C -0.0708(7) -0.4854(6) -0.0026(4)
H9 H -0.1292 -0.5353 -0.0484
H10 H -0.1287 -0.5141 0.0386
C18 C -0.0477(7) -0.3467(6) -0.0013(4)
H11 H 0.0012 -0.3191 -0.0451
H12 H -0.1435 -0.3371 -0.0031
C19 C 0.1030(6) -0.1917(7) 0.1792(3)
H13 H 0.0983 -0.1704 0.2303
C20 C 0.1883(6) -0.2031(5) 0.0743(3)
H14 H 0.2511 -0.1946 0.0357
C21 C 0.5891(7) 0.1293(6) 0.1088(3)
H15 H 0.5323 0.0865 0.0643
C22 C 0.6722(6) 0.1709(5) 0.2216(3)
H16 H 0.6879 0.1666 0.2715
C23 C 0.8619(7) 0.3914(6) 0.2216(4)
H17 H 0.9237 0.3774 0.2594
H18 H 0.9247 0.4248 0.1829
C24 C 0.8031(9) 0.4858(8) 0.2547(8)
H19 H 0.8170 0.4864 0.3077
H20 H 0.8771 0.5658 0.2460
C25 C 0.6855(10) 0.5052(9) 0.2493(8)
H21 H 0.6114 0.4240 0.2563
H22 H 0.6735 0.5074 0.1966
C26 C 0.6243(6) 0.5972(6) 0.2832(4)
H23 H 0.5652 0.5634 0.3230
H24 H 0.5585 0.6083 0.2463
C27 C 0.7944(6) 0.8215(6) 0.2801(3)
H25 H 0.7642 0.8259 0.2321
C28 C 0.9042(7) 0.8635(6) 0.3873(3)
H26 H 0.9692 0.9069 0.4293
C29 C 1.3663(7) 1.1849(7) 0.3203(4)
H27 H 1.3678 1.1637 0.2689
C30 C 1.2886(6) 1.1996(6) 0.4265(3)
H28 H 1.2287 1.1922 0.4663
C31 C 1.5308(7) 1.3383(6) 0.4987(4)
H29 H 1.6218 1.3205 0.4993
H30 H 1.4816 1.3144 0.5431
C32 C 1.5689(7) 1.4804(6) 0.5002(4)
H31 H 1.6230 1.5046 0.4571
H32 H 1.6342 1.5278 0.5445
N1 N 0.0430(5) -0.2651(5) 0.0660(3)
N2 N -0.0138(6) -0.2595(6) 0.1339(3)
H33 H -0.1048 -0.2927 0.1443
N3 N 0.2323(5) -0.1545(4) 0.1456(3)
N4 N 0.5719(5) 0.0800(4) 0.1731(2)
N5 N 0.6938(6) 0.2429(5) 0.1162(3)
H34 H 0.7227 0.2907 0.0829
N6 N 0.7465(5) 0.2681(4) 0.1892(2)
N7 N 0.9020(5) 0.9154(4) 0.3247(2)
N8 N 0.8075(6) 0.7483(5) 0.3828(3)
H35 H 0.7915 0.6995 0.4160
N9 N 0.7370(5) 0.7219(4) 0.3136(2)
N10 N 1.2392(5) 1.1499(5) 0.3559(3)
N11 N 1.4859(6) 1.2506(6) 0.3644(3)
H36 H 1.5764 1.2804 0.3529
N12 N 1.4339(5) 1.2609(5) 0.4327(3)
O1 O 0.8471(7) 1.0143(6) 0.1828(3)
O2 O 1.0845(7) 1.0976(5) 0.2021(3)
O4 O 0.9740(4) 1.1652(4) 0.4516(2)
O6 O 0.9740(5) 1.2405(4) 0.3465(2)
O7 O 0.4846(5) -0.2577(4) 0.1553(2)
O8 O 0.5030(4) -0.1725(4) 0.0529(2)
O9 O 0.4906(5) -0.0659(4) 0.2972(2)
O10 O 0.2664(6) -0.1772(6) 0.3284(3)
Zn1A Zn 1.97372(7) 1.90806(6) 0.69317(3)
Zn1A_2 Zn 0.97372(7) 0.90806(6) -0.30683(3)
Zn1A_3 Zn 0.97372(7) 1.90806(6) 0.69317(3)
Zn2A Zn -0.44692(7) -0.90230(6) -0.19019(3)
Zn2A_2 Zn 0.55308(7) -0.90230(6) -0.19019(3)
Zn2A_3 Zn 0.55308(7) 0.09770(6) 0.80981(3)
Zn2A_4 Zn 2.55308(7) 3.09770(6) 0.80981(3)
C1A C 1.1351(7) 1.0355(6) -0.0299(4)
H1A H 1.2271 1.0600 -0.0499
C2A C 1.0072(8) 0.9729(6) -0.0759(3)
C3A C 1.1273(7) 1.0620(6) 0.0460(4)
H2A H 1.2142 1.1041 0.0771
C4A C 1.0232(9) 0.9499(7) -0.1610(4)
C5A C 0.9688(6) 1.5121(6) 0.5743(3)
H3A H 0.9479 1.5197 0.6241
C6A C 1.0139(6) 1.6193(5) 0.5401(3)
C7A C 0.9547(6) 1.3924(6) 0.5340(3)
H4A H 0.9241 1.3203 0.5569
C8A C 1.0248(5) 1.7478(5) 0.5830(3)
C9A C 0.5344(6) -0.5049(6) -0.0735(3)
H5A H 0.5575 -0.5080 -0.1230
C10A C 0.4998(6) -0.6136(5) -0.0416(3)
C11A C 0.5350(6) -0.3902(6) -0.0323(3)
H6A H 0.5584 -0.3170 -0.0540
C12A C 0.5022(6) -0.7367(6) -0.0857(3)
C13A C 0.3970(6) -0.0114(6) 0.5530(3)
H7A H 0.3274 -0.0192 0.5883
C14A C 0.5481(6) 0.0493(6) 0.5751(3)
C15A C 0.3506(6) -0.0597(6) 0.4788(3)
H8A H 0.2494 -0.1001 0.4646
C16A C 0.6003(7) 0.1032(6) 0.6558(3)
C17A C 0.0708(7) -0.5146(6) 0.0026(4)
H9A H 0.1292 -0.4647 0.0484
H10A H 0.1287 -0.4859 -0.0386
C18A C 0.0477(7) -0.6533(6) 0.0013(4)
H11A H -0.0012 -0.6809 0.0451
H12A H 0.1435 -0.6629 0.0031
C19A C -0.1030(6) -0.8083(7) -0.1792(3)
H13A H -0.0983 -0.8296 -0.2303
C20A C -0.1883(6) -0.7969(5) -0.0743(3)
H14A H -0.2511 -0.8054 -0.0357
C21A C 2.4109(7) 2.8707(6) 0.8912(3)
H15A H 2.4677 2.9135 0.9357
C22A C 2.3278(6) 2.8291(5) 0.7784(3)
H16A H 2.3121 2.8334 0.7285
C23A C 2.1381(7) 2.6086(6) 0.7784(4)
H17A H 2.0763 2.6226 0.7406
H18A H 2.0753 2.5752 0.8171
C24A C 2.1969(9) 2.5142(8) 0.7453(8)
H19A H 2.1830 2.5136 0.6923
H20A H 2.1229 2.4342 0.7540
C25A C 2.3145(10) 2.4948(9) 0.7507(8)
H21A H 2.3886 2.5760 0.7437
H22A H 2.3265 2.4926 0.8034
C26A C 2.3757(6) 2.4028(6) 0.7168(4)
H23A H 2.4348 2.4366 0.6770
H24A H 2.4415 2.3917 0.7537
C27A C 2.2056(6) 2.1785(6) 0.7199(3)
H25A H 2.2358 2.1741 0.7679
C28A C 2.0958(7) 2.1365(6) 0.6127(3)
H26A H 2.0308 2.0931 0.5707
C29A C 1.6337(7) 1.8151(7) 0.6797(4)
H27A H 1.6322 1.8363 0.7311
C30A C 1.7114(6) 1.8004(6) 0.5735(3)
H28A H 1.7713 1.8078 0.5337
C31A C 1.4692(7) 1.6617(6) 0.5013(4)
H29A H 1.3782 1.6795 0.5007
H30A H 1.5184 1.6856 0.4569
C32A C 1.4311(7) 1.5196(6) 0.4998(4)
H31A H 1.3770 1.4954 0.5429
H32A H 1.3658 1.4722 0.4555
N1A N -0.0430(5) -0.7349(5) -0.0660(3)
N2A N 0.0138(6) -0.7405(6) -0.1339(3)
H33A H 0.1048 -0.7073 -0.1443
N3A N -0.2323(5) -0.8455(4) -0.1456(3)
N4A N 2.4281(5) 2.9200(4) 0.8269(2)
N4A_2 N -0.5719(5) -1.0800(4) -0.1731(2)
N5A N 2.3062(6) 2.7571(5) 0.8838(3)
H34A H 2.2773 2.7093 0.9171
N6A N 2.2535(5) 2.7319(4) 0.8108(2)
N7A N 2.0980(5) 2.0846(4) 0.6753(2)
N8A N 2.1925(6) 2.2517(5) 0.6172(3)
H35A H 2.2085 2.3005 0.5840
N9A N 2.2630(5) 2.2781(4) 0.6864(2)
N10A N 1.7608(5) 1.8501(5) 0.6441(3)
N11A N 1.5141(6) 1.7494(6) 0.6356(3)
H36A H 1.4236 1.7196 0.6471
N12A N 1.5661(5) 1.7391(5) 0.5673(3)
O1A O 1.1529(7) 0.9857(6) -0.1828(3)
O2A O 0.9155(7) 0.9024(5) -0.2021(3)
O2A_2 O 1.9155(7) 1.9024(5) 0.7979(3)
O4A O 1.0260(4) 1.8348(4) 0.5484(2)
O6A O 1.0260(5) 1.7595(4) 0.6535(2)
O6A_2 O 2.0260(5) 1.7595(4) 0.6535(2)
O7A O 0.5154(5) -0.7423(4) -0.1553(2)
O7A_2 O -0.4846(5) -0.7423(4) -0.1553(2)
O8A O 0.4970(4) -0.8275(4) -0.0529(2)
O9A O 0.5094(5) 0.0659(4) 0.7028(2)
O9A_2 O -0.4906(5) -0.9341(4) -0.2972(2)
O10A O 0.7336(6) 0.1772(6) 0.6716(3)
O3 O 0.2252(7) 0.5910(6) 0.2332(5)
O5 O 0.2848(11) 0.3687(12) 0.2229(10)
loop_
_geom_bond_atom_site_label_1
_geom_bond_atom_site_label_2
_geom_bond_site_symmetry_1
_geom_bond_site_symmetry_2
Zn1 N7 1_555 1_555
Zn2 N3 1_555 1_555
C1 H1 1_555 1_555
C2 C1 1_555 1_555
C3 C1 1_555 1_555
H2 C3 1_555 1_555
C4 C2 1_555 1_555
C5 H3 1_555 1_555
C6 C5 1_555 1_555
C7 C5 1_555 1_555
H4 C7 1_555 1_555
C8 C6 1_555 1_555
C9 H5 1_555 1_555
C10 C9 1_555 1_555
C11 C9 1_555 1_555
H6 C11 1_555 1_555
C12 C10 1_555 1_555
C13 H7 1_555 1_555
C14 C13 1_555 1_555
C15 C13 1_555 1_555
H8 C15 1_555 1_555
C16 C14 1_555 1_555
C17 H9 1_555 1_555
H10 C17 1_555 1_555
C18 C17 1_555 1_555
H11 C18 1_555 1_555
H12 C18 1_555 1_555
C19 H13 1_555 1_555
C20 H14 1_555 1_555
C21 H15 1_555 1_555
C22 H16 1_555 1_555
C23 H17 1_555 1_555
H18 C23 1_555 1_555
C24 C23 1_555 1_555
H19 C24 1_555 1_555
H20 C24 1_555 1_555
C25 C24 1_555 1_555
H21 C25 1_555 1_555
H22 C25 1_555 1_555
C26 C25 1_555 1_555
H23 C26 1_555 1_555
H24 C26 1_555 1_555
C27 H25 1_555 1_555
C28 H26 1_555 1_555
C29 H27 1_555 1_555
C30 H28 1_555 1_555
C31 H29 1_555 1_555
H30 C31 1_555 1_555
C32 C31 1_555 1_555
H31 C32 1_555 1_555
H32 C32 1_555 1_555
N1 C18 1_555 1_555
N2 C19 1_555 1_555
H33 N2 1_555 1_555
N3 C19 1_555 1_555
N4 Zn2 1_555 1_555
N5 C21 1_555 1_555
H34 N5 1_555 1_555
N6 C22 1_555 1_555
N7 C27 1_555 1_555
N8 C28 1_555 1_555
H35 N8 1_555 1_555
N9 C26 1_555 1_555
N10 Zn1 1_555 1_555
N11 C29 1_555 1_555
H36 N11 1_555 1_555
N12 C30 1_555 1_555
O1 C4 1_555 1_555
O2 Zn1 1_555 1_555
O4 C8 1_555 1_555
O6 Zn1 1_555 1_555
O7 Zn2 1_555 1_555
O8 C12 1_555 1_555
O9 Zn2 1_555 1_555
O10 C16 1_555 1_555
Zn1A N7A 1_555 1_555
Zn1A_2 O2A 1_555 1_555
Zn1A_3 O6A 1_555 1_555
Zn2A N3A 1_555 1_555
Zn2A_2 O7A 1_555 1_555
Zn2A_3 O9A 1_555 1_555
Zn2A_4 N4A 1_555 1_555
C1A H1A 1_555 1_555
C2A C3 1_555 1_555
C3A C2 1_555 1_555
H2A C3A 1_555 1_555
C4A C2A 1_555 1_555
C5A H3A 1_555 1_555
C6A C7 1_555 1_555
C7A C6 1_555 1_555
H4A C7A 1_555 1_555
C8A C6A 1_555 1_555
C9A H5A 1_555 1_555
C10A C11 1_555 1_555
C11A C10 1_555 1_555
H6A C11A 1_555 1_555
C12A C10A 1_555 1_555
C13A H7A 1_555 1_555
C14A C15 1_555 1_555
C15A C14 1_555 1_555
H8A C15A 1_555 1_555
C16A C14A 1_555 1_555
C17A C17 1_555 1_555
H9A C17A 1_555 1_555
H10A C17A 1_555 1_555
C18A C17A 1_555 1_555
H11A C18A 1_555 1_555
H12A C18A 1_555 1_555
C19A H13A 1_555 1_555
C20A H14A 1_555 1_555
C21A H15A 1_555 1_555
C22A H16A 1_555 1_555
C23A H17A 1_555 1_555
H18A C23A 1_555 1_555
C24A C23A 1_555 1_555
H19A C24A 1_555 1_555
H20A C24A 1_555 1_555
C25A C24A 1_555 1_555
H21A C25A 1_555 1_555
H22A C25A 1_555 1_555
C26A C25A 1_555 1_555
H23A C26A 1_555 1_555
H24A C26A 1_555 1_555
C27A H25A 1_555 1_555
C28A H26A 1_555 1_555
C29A H27A 1_555 1_555
C30A H28A 1_555 1_555
C31A H29A 1_555 1_555
H30A C31A 1_555 1_555
C32A C32 1_555 1_555
H31A C32A 1_555 1_555
H32A C32A 1_555 1_555
N1A C18A 1_555 1_555
N2A C19A 1_555 1_555
H33A N2A 1_555 1_555
N3A C19A 1_555 1_555
N4A C21A 1_555 1_555
N4A_2 Zn2A 1_555 1_555
N5A C21A 1_555 1_555
H34A N5A 1_555 1_555
N6A C22A 1_555 1_555
N7A C27A 1_555 1_555
N8A C28A 1_555 1_555
H35A N8A 1_555 1_555
N9A C26A 1_555 1_555
N10A Zn1A 1_555 1_555
N11A C29A 1_555 1_555
H36A N11A 1_555 1_555
N12A C30A 1_555 1_555
O1A C4A 1_555 1_555
O2A C4A 1_555 1_555
O2A_2 Zn1A 1_555 1_555
O4A C8A 1_555 1_555
O6A C8A 1_555 1_555
O6A_2 Zn1A 1_555 1_555
O7A C12A 1_555 1_555
O7A_2 Zn2A 1_555 1_555
O8A C12A 1_555 1_555
O9A C16A 1_555 1_555
O9A_2 Zn2A 1_555 1_555
O10A C16A 1_555 1_555
C4 O2 1_555 1_555
C8 O6 1_555 1_555
C12 O7 1_555 1_555
C16 O9 1_555 1_555
C20 N1 1_555 1_555
C20 N3 1_555 1_555
C21 N4 1_555 1_555
C22 N4 1_555 1_555
C23 N6 1_555 1_555
C27 N9 1_555 1_555
C28 N7 1_555 1_555
C29 N10 1_555 1_555
C30 N10 1_555 1_555
C31 N12 1_555 1_555
N1 N2 1_555 1_555
N5 N6 1_555 1_555
N8 N9 1_555 1_555
N11 N12 1_555 1_555
C1A C2A 1_555 1_555
C1A C3A 1_555 1_555
C5A C6A 1_555 1_555
C5A C7A 1_555 1_555
C9A C10A 1_555 1_555
C9A C11A 1_555 1_555
C13A C14A 1_555 1_555
C13A C15A 1_555 1_555
C20A N1A 1_555 1_555
C20A N3A 1_555 1_555
C22A N4A 1_555 1_555
C23A N6A 1_555 1_555
C27A N9A 1_555 1_555
C28A N7A 1_555 1_555
C29A N10A 1_555 1_555
C30A N10A 1_555 1_555
C31A C32A 1_555 1_555
C31A N12A 1_555 1_555
N1A N2A 1_555 1_555
N5A N6A 1_555 1_555
N8A N9A 1_555 1_555
N11A N12A 1_555 1_555

#END
