
#######################################################################
#
#                 Cambridge Crystallographic Data Centre
#                                CCDC 
#
#######################################################################
#
# If this CIF has been generated from an entry in the Cambridge 
# Structural Database, then it will include bibliographic, chemical, 
# crystal, experimental, refinement or atomic coordinate data resulting 
# from the CCDC's data processing and validation procedures.
#
#######################################################################

data_TEDQID
_symmetry_cell_setting           monoclinic
_symmetry_space_group_name_H-M   'P n'
_symmetry_Int_Tables_number      7
_space_group_name_Hall           'P -2yac'
loop_
_symmetry_equiv_pos_site_id
_symmetry_equiv_pos_as_xyz
1 x,y,z
2 1/2+x,-y,1/2+z
_cell_length_a                   12.854(2)
_cell_length_b                   7.9780(10)
_cell_length_c                   17.002(2)
_cell_angle_alpha                90
_cell_angle_beta                 101.547(2)
_cell_angle_gamma                90
_cell_volume                     1708.25
loop_
_atom_site_label
_atom_site_type_symbol
_atom_site_fract_x
_atom_site_fract_y
_atom_site_fract_z
Ag1 Ag 0.50000(11) 0.99148(13) 0.50000(7)
Ag2 Ag 0.50539(11) 1.36711(11) 0.48536(7)
C1 C 0.7107(11) 1.134(2) 0.4766(9)
O1 O 0.6581(9) 1.0019(13) 0.4705(8)
O2 O 0.6896(8) 1.2689(14) 0.5034(7)
C2 C 0.8185(14) 1.126(3) 0.4515(12)
F1 F 0.8351(13) 1.280(2) 0.4165(12)
F2 F 0.8247(9) 1.0216(17) 0.3953(8)
F3 F 0.8961(8) 1.113(2) 0.5118(8)
C3 C 0.5146(10) 1.3552(18) 0.6730(8)
O3 O 0.5110(9) 1.2738(13) 0.6108(6)
O4 O 0.5376(12) 1.5048(15) 0.6880(8)
C4 C 0.4824(11) 1.254(2) 0.7408(8)
F4 F 0.5339(12) 1.106(2) 0.7536(9)
F5 F 0.497(2) 1.326(2) 0.8096(8)
F6 F 0.3817(9) 1.2049(19) 0.7212(7)
P1 P 0.3118(2) 0.9853(3) 0.48567(18)
P2 P 0.4168(2) 0.4120(3) 0.35100(17)
C5 C 0.2607(9) 0.8425(13) 0.4034(7)
C6 C 0.3395(9) 0.6980(13) 0.4058(7)
C7 C 0.3059(8) 0.5576(13) 0.3445(7)
C8 C 0.2687(9) 0.8915(12) 0.5718(7)
C9 C 0.3415(10) 0.8108(15) 0.6308(7)
C10 C 0.3090(13) 0.7387(18) 0.6965(8)
C11 C 0.2045(13) 0.7487(17) 0.7033(8)
C12 C 0.1307(12) 0.8264(16) 0.6455(9)
C13 C 0.1604(10) 0.9029(15) 0.5789(9)
C14 C 0.2288(9) 1.1721(13) 0.4670(7)
C15 C 0.2528(9) 1.3040(13) 0.5224(6)
C16 C 0.1863(10) 1.4442(13) 0.5161(7)
C17 C 0.0986(10) 1.4555(15) 0.4549(8)
C18 C 0.0771(10) 1.3280(15) 0.3978(8)
C19 C 0.1406(9) 1.1862(14) 0.4057(7)
C20 C 0.5016(10) 0.5190(14) 0.2928(8)
C21 C 0.5929(10) 0.6009(16) 0.3324(8)
C22 C 0.6548(12) 0.6914(18) 0.2887(9)
C23 C 0.6277(11) 0.6979(16) 0.2062(9)
C24 C 0.5370(11) 0.6161(15) 0.1653(8)
C25 C 0.4742(10) 0.5272(15) 0.2089(8)
C26 C 0.3664(9) 0.2308(13) 0.2887(7)
C27 C 0.4360(10) 0.0956(15) 0.2913(8)
C28 C 0.4026(12) -0.0433(15) 0.2422(8)
C29 C 0.3024(12) -0.0495(14) 0.1956(8)
C30 C 0.2321(12) 0.0835(17) 0.1949(8)
C31 C 0.2657(11) 0.2241(15) 0.2418(9)
O5 O 0.5669(8) 0.6749(13) 0.5526(6)
H1 H 0.19331 0.80002 0.40890
H2 H 0.25298 0.90004 0.35337
H3 H 0.40517 0.74286 0.39727
H4 H 0.35102 0.64912 0.45823
H5 H 0.28810 0.60442 0.29196
H6 H 0.24549 0.50102 0.35604
H7 H 0.41441 0.80669 0.62640
H8 H 0.35955 0.68226 0.73634
H9 H 0.18328 0.69962 0.74813
H10 H 0.05823 0.82966 0.65042
H11 H 0.11027 0.96059 0.53945
H12 H 0.31332 1.29707 0.56505
H13 H 0.20170 1.53255 0.55408
H14 H 0.05296 1.55037 0.45122
H15 H 0.01951 1.33967 0.35351
H16 H 0.12260 1.09557 0.36887
H17 H 0.61385 0.59388 0.38941
H18 H 0.71530 0.75037 0.31562
H19 H 0.67161 0.75775 0.17710
H20 H 0.51766 0.62207 0.10907
H21 H 0.41268 0.47031 0.18130
H22 H 0.50409 0.09790 0.32501
H23 H 0.45003 -0.13421 0.24094
H24 H 0.28107 -0.14714 0.16367
H25 H 0.16282 0.07899 0.16276
H26 H 0.21866 0.31639 0.24169
H27 H 0.64268 0.68127 0.55589
H28 H 0.55393 0.67221 0.60559
Ag2_2 Ag 0.50539(11) 0.36711(11) 0.48536(7)
P2_2 P 0.4168(2) 1.4120(3) 0.35100(17)
O5_2 O 0.5669(8) 1.6749(13) 0.5526(6)
H27_2 H 0.64268 1.68127 0.55589
H28_2 H 0.55393 1.67221 0.60559
O6 O 0.7708(10) 0.5803(16) 0.5513(8)
C32 C 0.8452(18) 0.658(3) 0.5140(17)
loop_
_geom_bond_atom_site_label_1
_geom_bond_atom_site_label_2
_geom_bond_site_symmetry_1
_geom_bond_site_symmetry_2
Ag1 O1 1_555 1_555
Ag2 O2 1_555 1_555
C1 O1 1_555 1_555
O2 C1 1_555 1_555
C2 C1 1_555 1_555
F1 C2 1_555 1_555
F2 C2 1_555 1_555
F3 C2 1_555 1_555
C3 O3 1_555 1_555
O3 Ag2 1_555 1_555
O4 C3 1_555 1_555
C4 C3 1_555 1_555
F4 C4 1_555 1_555
F5 C4 1_555 1_555
F6 C4 1_555 1_555
P1 Ag1 1_555 1_555
P2 C7 1_555 1_555
C5 P1 1_555 1_555
C6 C5 1_555 1_555
C7 C6 1_555 1_555
C8 P1 1_555 1_555
C9 C8 1_555 1_555
C10 C9 1_555 1_555
C11 C10 1_555 1_555
C12 C11 1_555 1_555
C13 C8 1_555 1_555
C14 P1 1_555 1_555
C15 C14 1_555 1_555
C16 C15 1_555 1_555
C17 C16 1_555 1_555
C18 C17 1_555 1_555
C19 C14 1_555 1_555
C20 P2 1_555 1_555
C21 C20 1_555 1_555
C22 C21 1_555 1_555
C23 C22 1_555 1_555
C24 C23 1_555 1_555
C25 C20 1_555 1_555
C26 P2 1_555 1_555
C27 C26 1_555 1_555
C28 C27 1_555 1_555
C29 C28 1_555 1_555
C30 C29 1_555 1_555
C31 C26 1_555 1_555
O5 Ag1 1_555 1_555
H1 C5 1_555 1_555
H2 C5 1_555 1_555
H3 C6 1_555 1_555
H4 C6 1_555 1_555
H5 C7 1_555 1_555
H6 C7 1_555 1_555
H7 C9 1_555 1_555
H8 C10 1_555 1_555
H9 C11 1_555 1_555
H10 C12 1_555 1_555
H11 C13 1_555 1_555
H12 C15 1_555 1_555
H13 C16 1_555 1_555
H14 C17 1_555 1_555
H15 C18 1_555 1_555
H16 C19 1_555 1_555
H17 C21 1_555 1_555
H18 C22 1_555 1_555
H19 C23 1_555 1_555
H20 C24 1_555 1_555
H21 C25 1_555 1_555
H22 C27 1_555 1_555
H23 C28 1_555 1_555
H24 C29 1_555 1_555
H25 C30 1_555 1_555
H26 C31 1_555 1_555
H27 O5 1_555 1_555
H28 O5 1_555 1_555
O6 C32 1_555 1_555
Ag2_2 P2 1_555 1_555
P2_2 Ag2 1_555 1_555
O5_2 Ag2 1_555 1_555
H27_2 O5_2 1_555 1_555
H28_2 O5_2 1_555 1_555
C12 C13 1_555 1_555
C18 C19 1_555 1_555
C24 C25 1_555 1_555
C30 C31 1_555 1_555
O5 Ag2_2 1_555 1_555

#END
