
#######################################################################
#
#                 Cambridge Crystallographic Data Centre
#                                CCDC 
#
#######################################################################
#
# If this CIF has been generated from an entry in the Cambridge 
# Structural Database, then it will include bibliographic, chemical, 
# crystal, experimental, refinement or atomic coordinate data resulting 
# from the CCDC's data processing and validation procedures.
#
#######################################################################

data_TEDRUR
_symmetry_cell_setting           monoclinic
_symmetry_space_group_name_H-M   'P 21/n'
_symmetry_Int_Tables_number      14
_space_group_name_Hall           '-P 2yn'
loop_
_symmetry_equiv_pos_site_id
_symmetry_equiv_pos_as_xyz
1 x,y,z
2 1/2-x,1/2+y,1/2-z
3 -x,-y,-z
4 1/2+x,1/2-y,1/2+z
_cell_length_a                   10.054(2)
_cell_length_b                   13.027(3)
_cell_length_c                   21.072(4)
_cell_angle_alpha                90
_cell_angle_beta                 97.36(3)
_cell_angle_gamma                90
_cell_volume                     2737.13
loop_
_atom_site_label
_atom_site_type_symbol
_atom_site_fract_x
_atom_site_fract_y
_atom_site_fract_z
Sr1 Sr 0.24060(3) 0.125825(19) 0.251416(13)
Sr2 Sr 0.30224(2) 0.25411(2) -0.069913(11)
Sr3 Sr 0.17843(2) 0.25049(2) 0.575476(11)
C1 C 0.0386(3) 0.1343(2) 0.00068(12)
C2 C 0.2154(3) 0.1546(2) 0.07656(13)
C3 C 0.0131(3) 0.1136(2) 0.10413(13)
C4 C 0.2678(3) 0.1577(2) 0.42322(13)
C5 C 0.4438(3) 0.1359(2) 0.50004(12)
C6 C 0.4704(3) 0.1152(2) 0.39665(13)
C7 C -0.0182(3) 0.1349(2) -0.07068(13)
C8 C 0.3641(3) 0.1772(2) 0.09616(13)
C9 C -0.0724(3) 0.0935(2) 0.15807(13)
C10 C 0.1219(3) 0.1842(2) 0.40209(13)
C11 C 0.5009(3) 0.1362(2) 0.57107(13)
C12 C 0.5564(3) 0.0920(2) 0.34367(13)
N1 N 0.1675(2) 0.15845(18) 0.01468(11)
N2 N 0.1429(2) 0.13176(18) 0.12304(11)
N3 N -0.0446(2) 0.11262(18) 0.04344(11)
N4 N 0.3418(2) 0.13526(18) 0.37726(11)
N5 N 0.3144(2) 0.15996(18) 0.48579(10)
N6 N 0.5275(2) 0.11490(18) 0.45736(11)
O1 O -0.13679(19) 0.10516(16) -0.08381(9)
O2 O 0.05928(19) 0.16730(16) -0.10810(9)
O3 O 0.42772(18) 0.20613(16) 0.05177(9)
O4 O 0.4064(2) 0.16319(18) 0.15316(10)
O5 O -0.00736(19) 0.06602(16) 0.20970(9)
O6 O -0.19579(18) 0.10721(16) 0.14518(9)
O7 O 0.08743(19) 0.18473(17) 0.34331(9)
O8 O 0.05195(18) 0.20334(16) 0.44592(9)
O9 O 0.42454(19) 0.17114(16) 0.60846(9)
O10 O 0.61768(19) 0.10355(16) 0.58428(9)
O11 O 0.67917(18) 0.10893(16) 0.35693(9)
O12 O 0.49405(18) 0.05953(16) 0.29264(9)
O13 O 0.1019(2) 0.29272(18) 0.22452(10)
O14 O 0.1864(2) -0.04057(17) 0.31357(10)
O15 O 0.1656(2) 0.20531(18) 0.69407(10)
O16 O 0.3448(2) 0.21959(18) -0.18839(10)
O17 O 0.1628(2) 0.41105(17) 0.49904(10)
O18 O 0.0767(2) 0.06948(17) 0.57257(10)
O19 O 0.4091(2) 0.07261(17) -0.07201(10)
O20 O 0.3227(2) 0.41674(17) 0.00320(10)
O22 O 0.3130(2) -0.04465(17) 0.18905(10)
O24 O 0.4194(2) 0.28777(18) 0.26613(10)
H1 H 0.051(3) 0.313(3) 0.1936(12)
H2 H 0.121(3) 0.343(2) 0.2464(15)
H3 H 0.251(3) -0.065(3) 0.3373(14)
H4 H 0.169(3) -0.087(2) 0.2872(14)
H5 H 0.216(3) 0.228(3) 0.7243(12)
H6 H 0.166(4) 0.1431(15) 0.6989(18)
H7 H 0.412(3) 0.250(3) -0.1902(17)
H8 H 0.355(4) 0.1588(15) -0.1935(18)
H9 H 0.227(3) 0.410(3) 0.4795(15)
H10 H 0.100(3) 0.411(3) 0.4708(13)
H11 H 0.112(3) 0.029(2) 0.5499(15)
H12 H 0.078(4) 0.040(3) 0.6061(12)
H13 H 0.378(4) 0.028(2) -0.0512(16)
H14 H 0.409(4) 0.052(3) -0.1085(10)
H15 H 0.260(3) 0.419(3) 0.0235(15)
H16 H 0.390(2) 0.420(3) 0.0295(13)
H19 H 0.374(3) -0.023(3) 0.1716(16)
H20 H 0.257(3) -0.063(3) 0.1602(13)
H23 H 0.477(3) 0.276(3) 0.2447(15)
H24 H 0.457(3) 0.308(3) 0.3004(11)
Sr2C Sr -0.19776(2) 0.24589(2) 0.430087(11)
Sr2C_2 Sr 0.80224(2) 0.24589(2) 0.430087(11)
Sr3C Sr 0.67843(2) 0.24951(2) 0.075476(11)
Sr3C_2 Sr -0.32157(2) 0.24951(2) 0.075476(11)
O3C O -0.07228(18) 0.29387(16) 0.55177(9)
O6C O 0.30421(18) 0.39279(16) 0.64518(9)
O8C O 0.55195(18) 0.29666(16) -0.05408(9)
O11C O 0.17917(18) 0.39107(16) -0.14307(9)
O21 O 0.1205(2) 0.51144(18) 0.69664(11)
H17 H 0.177(3) 0.472(2) 0.6871(17)
H18 H 0.091(4) 0.485(3) 0.7271(13)
O23 O 0.1311(2) 0.00104(17) 0.69168(11)
H21 H 0.187(3) -0.042(2) 0.6834(17)
H22 H 0.095(3) -0.029(3) 0.7194(14)
loop_
_geom_bond_atom_site_label_1
_geom_bond_atom_site_label_2
_geom_bond_site_symmetry_1
_geom_bond_site_symmetry_2
Sr1 N2 1_555 1_555
Sr2 N1 1_555 1_555
Sr3 N5 1_555 1_555
C1 C7 1_555 1_555
C2 C8 1_555 1_555
C3 C9 1_555 1_555
C4 C10 1_555 1_555
C5 C11 1_555 1_555
C6 C12 1_555 1_555
C7 O1 1_555 1_555
C8 O3 1_555 1_555
C9 O5 1_555 1_555
C10 O7 1_555 1_555
C11 O9 1_555 1_555
C12 O11 1_555 1_555
N1 C1 1_555 1_555
N2 C2 1_555 1_555
N3 C1 1_555 1_555
N4 Sr1 1_555 1_555
N5 C4 1_555 1_555
N6 C5 1_555 1_555
O2 Sr2 1_555 1_555
O3 Sr2 1_555 1_555
O4 Sr1 1_555 1_555
O5 Sr1 1_555 1_555
O6 C9 1_555 1_555
O7 Sr1 1_555 1_555
O8 Sr3 1_555 1_555
O9 Sr3 1_555 1_555
O10 C11 1_555 1_555
O11 Sr2C_2 1_555 1_555
O12 Sr1 1_555 1_555
O13 Sr1 1_555 1_555
O14 Sr1 1_555 1_555
O15 Sr3 1_555 1_555
O16 Sr2 1_555 1_555
O17 Sr3 1_555 1_555
O18 Sr3 1_555 1_555
O19 Sr2 1_555 1_555
O20 Sr2 1_555 1_555
O21 H17 1_555 1_555
O22 Sr1 1_555 1_555
O23 H21 1_555 1_555
O24 Sr1 1_555 1_555
H1 O13 1_555 1_555
H2 O13 1_555 1_555
H3 O14 1_555 1_555
H4 O14 1_555 1_555
H5 O15 1_555 1_555
H6 O15 1_555 1_555
H7 O16 1_555 1_555
H8 O16 1_555 1_555
H9 O17 1_555 1_555
H10 O17 1_555 1_555
H11 O18 1_555 1_555
H12 O18 1_555 1_555
H13 O19 1_555 1_555
H14 O19 1_555 1_555
H15 O20 1_555 1_555
H16 O20 1_555 1_555
H18 O21 1_555 1_555
H19 O22 1_555 1_555
H20 O22 1_555 1_555
H22 O23 1_555 1_555
H23 O24 1_555 1_555
H24 O24 1_555 1_555
Sr2C O8 1_555 1_555
Sr3C O3 1_555 1_555
Sr3C_2 O6 1_555 1_555
O3C Sr3 1_555 1_555
O6C Sr3 1_555 1_555
O8C Sr2 1_555 1_555
O11C Sr2 1_555 1_555
C2 N1 1_555 1_555
C3 N2 1_555 1_555
C3 N3 1_555 1_555
C4 N4 1_555 1_555
C5 N5 1_555 1_555
C6 N4 1_555 1_555
C6 N6 1_555 1_555
C7 O2 1_555 1_555
C8 O4 1_555 1_555
C10 O8 1_555 1_555
C12 O12 1_555 1_555
Sr2C O3C 1_555 1_555
Sr3C O8C 1_555 1_555

#END
