
#######################################################################
#
#                 Cambridge Crystallographic Data Centre
#                                CCDC 
#
#######################################################################
#
# If this CIF has been generated from an entry in the Cambridge 
# Structural Database, then it will include bibliographic, chemical, 
# crystal, experimental, refinement or atomic coordinate data resulting 
# from the CCDC's data processing and validation procedures.
#
#######################################################################

data_TEDRAW
_symmetry_cell_setting           monoclinic
_symmetry_space_group_name_H-M   'P 21/n'
_symmetry_Int_Tables_number      14
_space_group_name_Hall           '-P 2yn'
loop_
_symmetry_equiv_pos_site_id
_symmetry_equiv_pos_as_xyz
1 x,y,z
2 1/2-x,1/2+y,1/2-z
3 -x,-y,-z
4 1/2+x,1/2-y,1/2+z
_cell_length_a                   8.042(2)
_cell_length_b                   19.245(4)
_cell_length_c                   22.136(4)
_cell_angle_alpha                90
_cell_angle_beta                 91.660(5)
_cell_angle_gamma                90
_cell_volume                     3424.51
loop_
_atom_site_label
_atom_site_type_symbol
_atom_site_fract_x
_atom_site_fract_y
_atom_site_fract_z
Ag1 Ag 0.37826(6) 0.69327(3) 0.31553(3)
Ag2 Ag 0.02485(6) 0.69064(2) 0.28865(2)
C1 C 0.092(3) 0.5845(9) 0.3827(9)
O1 O 0.245(3) 0.5982(12) 0.3795(12)
O2 O -0.0264(14) 0.6099(7) 0.3520(7)
C2 C 0.0514(18) 0.5286(7) 0.4298(6)
C3 C 0.3300(10) 0.6256(3) 0.1944(3)
O3 O 0.1792(7) 0.6379(3) 0.2016(2)
O4 O 0.4431(8) 0.6428(3) 0.2305(3)
C4 C 0.3774(12) 0.5883(4) 0.1372(4)
P1 P 0.42655(18) 0.78475(7) 0.38441(7)
P2 P 0.98101(17) 0.80579(7) 0.25248(6)
C5 C 0.5693(7) 0.8509(3) 0.3564(2)
C6 C 0.7048(7) 0.8122(3) 0.3222(3)
C7 C 0.8453(7) 0.8586(3) 0.2999(2)
C8 C 0.2459(7) 0.8280(3) 0.4135(2)
C9 C 0.1114(7) 0.7864(3) 0.4295(2)
C10 C -0.0268(7) 0.8151(3) 0.4552(3)
C11 C -0.0368(7) 0.8861(3) 0.4644(3)
C12 C 0.0936(8) 0.9276(3) 0.4479(3)
C13 C 0.2353(8) 0.8998(3) 0.4230(3)
C14 C 0.5334(7) 0.7519(3) 0.4520(2)
C15 C 0.6082(8) 0.6868(3) 0.4498(3)
C16 C 0.6941(9) 0.6613(4) 0.5005(4)
C17 C 0.7066(9) 0.6976(4) 0.5531(3)
C18 C 0.6286(8) 0.7634(4) 0.5563(3)
C19 C 0.5453(7) 0.7893(3) 0.5062(3)
C20 C 1.1641(7) 0.8578(3) 0.2395(2)
C21 C 1.1729(7) 0.9295(3) 0.2512(3)
C22 C 1.3145(8) 0.9662(3) 0.2367(3)
C23 C 1.4455(7) 0.9346(3) 0.2102(3)
C24 C 1.4386(7) 0.8636(3) 0.1983(3)
C25 C 1.2996(7) 0.8257(3) 0.2135(2)
C26 C 0.8719(6) 0.8061(3) 0.1790(3)
C27 C 0.7921(8) 0.7459(3) 0.1581(3)
C28 C 0.7040(9) 0.7474(4) 0.1033(3)
C29 C 0.6993(9) 0.8069(4) 0.0681(3)
C30 C 0.7814(8) 0.8659(4) 0.0882(3)
C31 C 0.8672(7) 0.8660(3) 0.1430(3)
H1 H 0.11368 0.48745 0.42185
H2 H 0.08212 0.54505 0.46920
H3 H -0.06322 0.51839 0.42780
H4 H 0.37533 0.62023 0.10443
H5 H 0.30075 0.55180 0.12892
H6 H 0.48631 0.56962 0.14238
H7 H 0.51127 0.88224 0.33020
H8 H 0.61751 0.87636 0.38961
H9 H 0.65516 0.78600 0.28981
H10 H 0.76139 0.78012 0.34922
H11 H 0.90314 0.87021 0.33702
H12 H 0.81695 0.90107 0.27943
H13 H 0.11586 0.73742 0.42244
H14 H -0.11589 0.78537 0.46662
H15 H -0.13373 0.90696 0.48191
H16 H 0.08857 0.97637 0.45495
H17 H 0.32597 0.93004 0.41215
H18 H 0.59692 0.65947 0.41355
H19 H 0.74549 0.61576 0.49823
H20 H 0.76864 0.67930 0.58755
H21 H 0.63214 0.78929 0.59299
H22 H 0.49339 0.83410 0.50865
H23 H 1.08128 0.95366 0.26860
H24 H 1.31907 1.01521 0.24580
H25 H 1.54265 0.96161 0.19979
H26 H 1.53014 0.84108 0.17924
H27 H 1.29569 0.77668 0.20575
H28 H 0.79729 0.70327 0.18207
H29 H 0.64979 0.70636 0.08873
H30 H 0.63777 0.80832 0.03076
H31 H 0.77974 0.90677 0.06366
H32 H 0.92525 0.90722 0.15576
Ag2_2 Ag 1.02485(6) 0.69064(2) 0.28865(2)
P2_2 P -0.01899(17) 0.80579(7) 0.25248(6)
O5 O -0.2318(15) 0.6005(6) 0.2518(7)
C32 C -0.315(2) 0.5490(11) 0.2328(11)
H33 H -0.28231 0.50761 0.25551
H34 H -0.29840 0.53973 0.19131
H35 H -0.43182 0.55549 0.23865
O6 O 0.7208(15) 0.5395(4) 0.3544(5)
O7 O -0.0662(11) 0.5555(4) 0.1479(5)
O8 O 0.6266(13) 1.0010(8) 0.4563(6)
O9 O 0.4974(12) 0.5148(4) 0.4368(5)
C33? C 0.198(6) 0.5818(19) 0.3791(18)
O10? O 0.3379(18) 0.5898(5) 0.3533(7)
O11? O 0.069(2) 0.6103(8) 0.3619(7)
C34? C 0.200(4) 0.5209(10) 0.4245(9)
H36? H 0.13932 0.48299 0.40760
H37? H 0.31216 0.50637 0.43305
H38? H 0.15141 0.53553 0.46070
loop_
_geom_bond_atom_site_label_1
_geom_bond_atom_site_label_2
_geom_bond_site_symmetry_1
_geom_bond_site_symmetry_2
Ag1 O1 1_555 1_555
Ag2 O2 1_555 1_555
C1 O1 1_555 1_555
O2 C1 1_555 1_555
C2 C1 1_555 1_555
C3 O3 1_555 1_555
O3 Ag2 1_555 1_555
O4 Ag1 1_555 1_555
C4 C3 1_555 1_555
P1 Ag1 1_555 1_555
P2 C7 1_555 1_555
C5 P1 1_555 1_555
C6 C5 1_555 1_555
C7 C6 1_555 1_555
C8 P1 1_555 1_555
C9 C8 1_555 1_555
C10 C9 1_555 1_555
C11 C10 1_555 1_555
C12 C11 1_555 1_555
C13 C8 1_555 1_555
C14 P1 1_555 1_555
C15 C14 1_555 1_555
C16 C15 1_555 1_555
C17 C16 1_555 1_555
C18 C17 1_555 1_555
C19 C14 1_555 1_555
C20 P2 1_555 1_555
C21 C20 1_555 1_555
C22 C21 1_555 1_555
C23 C22 1_555 1_555
C24 C23 1_555 1_555
C25 C20 1_555 1_555
C26 P2 1_555 1_555
C27 C26 1_555 1_555
C28 C27 1_555 1_555
C29 C28 1_555 1_555
C30 C29 1_555 1_555
C31 C26 1_555 1_555
H1 C2 1_555 1_555
H2 C2 1_555 1_555
H3 C2 1_555 1_555
H4 C4 1_555 1_555
H5 C4 1_555 1_555
H6 C4 1_555 1_555
H7 C5 1_555 1_555
H8 C5 1_555 1_555
H9 C6 1_555 1_555
H10 C6 1_555 1_555
H11 C7 1_555 1_555
H12 C7 1_555 1_555
H13 C9 1_555 1_555
H14 C10 1_555 1_555
H15 C11 1_555 1_555
H16 C12 1_555 1_555
H17 C13 1_555 1_555
H18 C15 1_555 1_555
H19 C16 1_555 1_555
H20 C17 1_555 1_555
H21 C18 1_555 1_555
H22 C19 1_555 1_555
H23 C21 1_555 1_555
H24 C22 1_555 1_555
H25 C23 1_555 1_555
H26 C24 1_555 1_555
H27 C25 1_555 1_555
H28 C27 1_555 1_555
H29 C28 1_555 1_555
H30 C29 1_555 1_555
H31 C30 1_555 1_555
H32 C31 1_555 1_555
O5 C32 1_555 1_555
C32 H33 1_555 1_555
H34 C32 1_555 1_555
H35 C32 1_555 1_555
Ag2_2 P2 1_555 1_555
P2_2 Ag2 1_555 1_555
C3 O4 1_555 1_555
C12 C13 1_555 1_555
C18 C19 1_555 1_555
C24 C25 1_555 1_555
C30 C31 1_555 1_555

#END
