
#######################################################################
#
#                 Cambridge Crystallographic Data Centre
#                                CCDC 
#
#######################################################################
#
# If this CIF has been generated from an entry in the Cambridge 
# Structural Database, then it will include bibliographic, chemical, 
# crystal, experimental, refinement or atomic coordinate data resulting 
# from the CCDC's data processing and validation procedures.
#
#######################################################################

data_TEDSOM
_symmetry_cell_setting           monoclinic
_symmetry_space_group_name_H-M   'P 21/c'
_symmetry_Int_Tables_number      14
_space_group_name_Hall           '-P 2ybc'
loop_
_symmetry_equiv_pos_site_id
_symmetry_equiv_pos_as_xyz
1 x,y,z
2 -x,1/2+y,1/2-z
3 -x,-y,-z
4 x,1/2-y,1/2+z
_cell_length_a                   10.1813(8)
_cell_length_b                   10.2655(7)
_cell_length_c                   22.4243(16)
_cell_angle_alpha                90
_cell_angle_beta                 91.2890(10)
_cell_angle_gamma                90
_cell_volume                     2343.11
loop_
_atom_site_label
_atom_site_type_symbol
_atom_site_fract_x
_atom_site_fract_y
_atom_site_fract_z
Zn1 Zn 0.10283(4) 0.24180(3) 0.123201(16)
N1 N 0.2098(3) 0.0765(3) 0.13181(12)
N2 N 0.3508(3) -0.0845(3) 0.12388(13)
N3 N 0.9544(3) -0.3448(3) 0.05457(12)
N4 N 0.9070(3) -0.3086(3) -0.03962(13)
O1 O 0.1616(2) 0.3805(2) 0.17687(10)
O2 O 0.3580(2) 0.3834(3) 0.13632(11)
O3 O 0.0504(2) 0.6723(3) 0.33682(12)
O4 O 0.1943(3) 0.8141(3) 0.37429(14)
C1 C 0.1905(3) -0.0119(3) 0.17739(16)
H1 H 0.1275 -0.0045 0.2066
C2 C 0.2764(4) -0.1096(4) 0.17296(17)
H2 H 0.2844 -0.1810 0.1983
C3 C 0.3087(3) 0.0298(3) 0.10063(14)
C4 C 0.3641(4) 0.0924(4) 0.04719(19)
H3 H 0.3165 0.1709 0.0382
H4 H 0.3568 0.0338 0.0139
H5 H 0.4549 0.1128 0.0548
C5 C 0.4585(4) -0.1681(4) 0.10377(18)
H6 H 0.4696 -0.1552 0.0613
H7 H 0.4350 -0.2585 0.1100
C6 C 0.5850(4) -0.1410(4) 0.13543(18)
H8 H 0.5700 -0.1405 0.1780
H9 H 0.6143 -0.0546 0.1244
C7 C 0.6927(4) -0.2360(4) 0.12305(19)
H10 H 0.6589 -0.3234 0.1286
H11 H 0.7158 -0.2277 0.0815
C8 C 0.8144(5) -0.2210(5) 0.1605(2)
H12 H 0.8567 -0.1413 0.1478
H13 H 0.7869 -0.2067 0.2011
C9 C 0.9160(4) -0.3222(6) 0.16291(17)
H14 H 0.9676 -0.3076 0.1992
H15 H 0.8712 -0.4048 0.1678
C10 C 1.0087(4) -0.3393(5) 0.11475(17)
H16 H 1.0713 -0.2682 0.1168
H17 H 1.0572 -0.4192 0.1222
C11 C 0.8629(4) -0.4399(4) 0.03624(18)
H18 H 0.8301 -0.5063 0.0599
C12 C 0.8318(4) -0.4190(3) -0.01988(16)
H19 H 0.7719 -0.4668 -0.0429
C13 C 0.9746(4) -0.2719(4) 0.00690(19)
C14 C 1.0697(5) -0.1657(5) 0.0053(2)
H20 H 1.1540 -0.1966 0.0191
H21 H 1.0414 -0.0961 0.0306
H22 H 1.0763 -0.1344 -0.0349
C15 C 0.2794(3) 0.4210(3) 0.17379(14)
C16 C 0.3207(3) 0.5209(3) 0.21958(13)
C17 C 0.4515(3) 0.5584(3) 0.22537(16)
H23 H 0.5139 0.5228 0.2005
C18 C 0.4886(3) 0.6495(4) 0.26861(16)
H24 H 0.5762 0.6744 0.2725
C19 C 0.3969(3) 0.7032(3) 0.30568(16)
H25 H 0.4225 0.7644 0.3342
C20 C 0.2650(3) 0.6653(3) 0.30017(14)
C21 C 0.2287(3) 0.5747(3) 0.25746(14)
H26 H 0.1412 0.5491 0.2539
C22 C 0.1637(4) 0.7238(3) 0.34053(16)
Zn1B Zn 0.89717(4) -0.24180(3) -0.123201(16)
Zn1A Zn -0.10283(4) 0.74180(3) 0.376799(16)
N4B N 0.0930(3) 0.3086(3) 0.03962(13)
O3A O -0.0504(2) 0.1723(3) 0.16318(12)
O5 O 0.4830(10) 0.9818(14) 0.4514(5)
C23 C 0.3514(10) 0.7681(11) 0.4736(4)
C24 C 0.4254(9) 0.8695(13) 0.4462(5)
loop_
_geom_bond_atom_site_label_1
_geom_bond_atom_site_label_2
_geom_bond_site_symmetry_1
_geom_bond_site_symmetry_2
Zn1 N1 1_555 1_555
N1 C1 1_555 1_555
N2 C2 1_555 1_555
N3 C10 1_555 1_555
N4 C12 1_555 1_555
O1 Zn1 1_555 1_555
O2 C15 1_555 1_555
O3 C22 1_555 1_555
O4 C22 1_555 1_555
C1 H1 1_555 1_555
C2 C1 1_555 1_555
H2 C2 1_555 1_555
C3 N1 1_555 1_555
C4 C3 1_555 1_555
H3 C4 1_555 1_555
H4 C4 1_555 1_555
H5 C4 1_555 1_555
C5 N2 1_555 1_555
H6 C5 1_555 1_555
H7 C5 1_555 1_555
C6 C5 1_555 1_555
H8 C6 1_555 1_555
H9 C6 1_555 1_555
C7 C6 1_555 1_555
H10 C7 1_555 1_555
H11 C7 1_555 1_555
C8 C7 1_555 1_555
H12 C8 1_555 1_555
H13 C8 1_555 1_555
C9 C8 1_555 1_555
H14 C9 1_555 1_555
H15 C9 1_555 1_555
C10 C9 1_555 1_555
H16 C10 1_555 1_555
H17 C10 1_555 1_555
C11 N3 1_555 1_555
H18 C11 1_555 1_555
C12 C11 1_555 1_555
H19 C12 1_555 1_555
C13 N3 1_555 1_555
C14 C13 1_555 1_555
H20 C14 1_555 1_555
H21 C14 1_555 1_555
H22 C14 1_555 1_555
C15 O1 1_555 1_555
C16 C15 1_555 1_555
C17 C16 1_555 1_555
H23 C17 1_555 1_555
C18 C17 1_555 1_555
H24 C18 1_555 1_555
C19 C18 1_555 1_555
H25 C19 1_555 1_555
C20 C19 1_555 1_555
C21 C16 1_555 1_555
H26 C21 1_555 1_555
C22 C20 1_555 1_555
O5 C24 1_555 1_555
C23 C24 1_555 1_555
Zn1B N4 1_555 1_555
Zn1A O3 1_555 1_555
N4B Zn1 1_555 1_555
O3A Zn1 1_555 1_555
N2 C3 1_555 1_555
N4 C13 1_555 1_555
C20 C21 1_555 1_555

#END
