
#######################################################################
#
#                 Cambridge Crystallographic Data Centre
#                                CCDC 
#
#######################################################################
#
# If this CIF has been generated from an entry in the Cambridge 
# Structural Database, then it will include bibliographic, chemical, 
# crystal, experimental, refinement or atomic coordinate data resulting 
# from the CCDC's data processing and validation procedures.
#
#######################################################################

data_TEDSAY
_symmetry_cell_setting           monoclinic
_symmetry_space_group_name_H-M   'P 21/n'
_symmetry_Int_Tables_number      14
_space_group_name_Hall           '-P 2yn'
loop_
_symmetry_equiv_pos_site_id
_symmetry_equiv_pos_as_xyz
1 x,y,z
2 1/2-x,1/2+y,1/2-z
3 -x,-y,-z
4 1/2+x,1/2-y,1/2+z
_cell_length_a                   10.209(2)
_cell_length_b                   13.373(3)
_cell_length_c                   21.395(4)
_cell_angle_alpha                90
_cell_angle_beta                 95.71(3)
_cell_angle_gamma                90
_cell_volume                     2906.46
loop_
_atom_site_label
_atom_site_type_symbol
_atom_site_fract_x
_atom_site_fract_y
_atom_site_fract_z
Ba1 Ba 0.239531(15) 0.117166(12) 0.251957(8)
Ba2 Ba 0.302518(15) 0.261845(12) -0.071920(8)
Ba3 Ba 0.173107(15) 0.257805(12) 0.577945(8)
C1 C 0.0299(3) 0.13239(19) 0.00169(13)
C2 C 0.2043(3) 0.1487(2) 0.07437(13)
C3 C 0.0064(3) 0.10597(19) 0.10373(13)
C4 C 0.2754(3) 0.1536(2) 0.42754(13)
C5 C 0.4503(2) 0.13571(19) 0.50056(13)
C6 C 0.4723(3) 0.1064(2) 0.39816(13)
C7 C -0.0272(3) 0.1373(2) -0.06768(13)
C8 C 0.3500(3) 0.1722(2) 0.09186(14)
C9 C -0.0766(3) 0.0823(2) 0.15790(14)
C10 C 0.1316(3) 0.1811(2) 0.40929(14)
C11 C 0.5085(3) 0.1405(2) 0.56939(14)
C12 C 0.5544(3) 0.0798(2) 0.34473(13)
N1 N 0.1566(2) 0.15509(17) 0.01417(11)
N2 N 0.1336(2) 0.12313(16) 0.12083(11)
N3 N -0.0514(2) 0.10906(17) 0.04488(11)
N4 N 0.3459(2) 0.12584(16) 0.38125(11)
N5 N 0.3234(2) 0.15903(16) 0.48797(11)
N6 N 0.5304(2) 0.11130(17) 0.45661(11)
O1 O -0.14252(19) 0.10650(16) -0.07977(10)
O2 O 0.04695(19) 0.17255(15) -0.10502(10)
O3 O 0.41022(19) 0.20482(16) 0.04759(10)
O4 O 0.3952(2) 0.15643(19) 0.14653(11)
O5 O -0.01273(19) 0.05485(16) 0.20755(10)
O6 O -0.19813(18) 0.09385(16) 0.14710(10)
O7 O 0.09268(19) 0.17739(17) 0.35268(10)
O8 O 0.06725(19) 0.20510(16) 0.45417(10)
O9 O 0.43439(19) 0.17643(15) 0.60691(9)
O10 O 0.62283(19) 0.10930(16) 0.58133(10)
O11 O 0.67514(18) 0.09610(16) 0.35433(10)
O12 O 0.49211(18) 0.04587(15) 0.29633(10)
O13 O 0.0886(2) 0.28963(17) 0.22566(11)
O14 O 0.1848(2) -0.05800(16) 0.31638(11)
O15 O 0.1574(2) 0.20995(18) 0.70300(11)
O16 O 0.3528(2) 0.22001(18) -0.19466(11)
O17 O 0.1575(2) 0.42449(16) 0.49736(11)
O18 O 0.0694(2) 0.06654(16) 0.57539(11)
O19 O 0.4156(2) 0.07224(16) -0.07489(11)
O20 O 0.3265(2) 0.43037(16) 0.00583(11)
O22 O 0.3158(2) -0.05805(16) 0.18502(10)
O24 O 0.4223(2) 0.28175(16) 0.26907(11)
H1 H 0.044(3) 0.305(3) 0.1935(12)
H2 H 0.115(3) 0.335(2) 0.2491(15)
H3 H 0.241(3) -0.078(3) 0.3434(14)
H4 H 0.177(4) -0.108(2) 0.2930(15)
H5 H 0.212(3) 0.227(3) 0.7308(14)
H6 H 0.157(4) 0.1481(14) 0.7030(18)
H7 H 0.421(2) 0.247(3) -0.1989(19)
H8 H 0.363(4) 0.1604(15) -0.1986(18)
H9 H 0.223(3) 0.421(3) 0.4791(16)
H10 H 0.098(3) 0.419(3) 0.4689(13)
H11 H 0.108(3) 0.029(2) 0.5546(16)
H12 H 0.071(4) 0.044(3) 0.6102(11)
H13 H 0.379(3) 0.032(2) -0.0540(16)
H14 H 0.416(4) 0.054(3) -0.1114(10)
H15 H 0.264(3) 0.427(3) 0.0261(16)
H16 H 0.394(3) 0.424(3) 0.0302(15)
H19 H 0.372(3) -0.030(3) 0.1685(17)
H20 H 0.262(3) -0.077(3) 0.1551(13)
H23 H 0.487(3) 0.273(3) 0.2511(17)
H24 H 0.456(3) 0.305(3) 0.3027(12)
Ba2C Ba -0.197482(15) 0.238155(12) 0.428080(8)
Ba2C_2 Ba 0.802518(15) 0.238155(12) 0.428080(8)
Ba3C Ba -0.326893(15) 0.242195(12) 0.077945(8)
Ba3C_2 Ba 0.673107(15) 0.242195(12) 0.077945(8)
O3C O -0.08978(19) 0.29518(16) 0.54759(10)
O6C O 0.30187(18) 0.40615(16) 0.64710(10)
O8C O 0.56725(19) 0.29490(16) -0.04583(10)
O11C O 0.17514(18) 0.40390(16) -0.14567(10)
O21 O 0.1161(2) 0.51704(17) 0.69864(11)
H17 H 0.177(3) 0.479(2) 0.6908(18)
H18 H 0.082(3) 0.490(2) 0.7273(14)
O23 O 0.1348(2) 0.00950(17) 0.69430(11)
H21 H 0.198(3) -0.026(2) 0.6909(18)
H22 H 0.104(3) -0.021(2) 0.7231(14)
loop_
_geom_bond_atom_site_label_1
_geom_bond_atom_site_label_2
_geom_bond_site_symmetry_1
_geom_bond_site_symmetry_2
Ba1 N2 1_555 1_555
Ba2 N1 1_555 1_555
Ba3 N5 1_555 1_555
C1 C7 1_555 1_555
C2 C8 1_555 1_555
C3 C9 1_555 1_555
C4 C10 1_555 1_555
C5 C11 1_555 1_555
C6 C12 1_555 1_555
C7 O1 1_555 1_555
C8 O3 1_555 1_555
C9 O5 1_555 1_555
C10 O7 1_555 1_555
C11 O9 1_555 1_555
C12 O11 1_555 1_555
N1 C1 1_555 1_555
N2 C2 1_555 1_555
N3 C1 1_555 1_555
N4 Ba1 1_555 1_555
N5 C4 1_555 1_555
N6 C5 1_555 1_555
O2 Ba2 1_555 1_555
O3 Ba2 1_555 1_555
O4 Ba1 1_555 1_555
O5 Ba1 1_555 1_555
O6 C9 1_555 1_555
O7 Ba1 1_555 1_555
O8 Ba3 1_555 1_555
O9 Ba3 1_555 1_555
O10 C11 1_555 1_555
O11 Ba2C_2 1_555 1_555
O12 Ba1 1_555 1_555
O13 Ba1 1_555 1_555
O14 Ba1 1_555 1_555
O15 Ba3 1_555 1_555
O16 Ba2 1_555 1_555
O17 Ba3 1_555 1_555
O18 Ba3 1_555 1_555
O19 Ba2 1_555 1_555
O20 Ba2 1_555 1_555
O21 H17 1_555 1_555
O22 Ba1 1_555 1_555
O23 H21 1_555 1_555
O24 Ba1 1_555 1_555
H1 O13 1_555 1_555
H2 O13 1_555 1_555
H3 O14 1_555 1_555
H4 O14 1_555 1_555
H5 O15 1_555 1_555
H6 O15 1_555 1_555
H7 O16 1_555 1_555
H8 O16 1_555 1_555
H9 O17 1_555 1_555
H10 O17 1_555 1_555
H11 O18 1_555 1_555
H12 O18 1_555 1_555
H13 O19 1_555 1_555
H14 O19 1_555 1_555
H15 O20 1_555 1_555
H16 O20 1_555 1_555
H18 O21 1_555 1_555
H19 O22 1_555 1_555
H20 O22 1_555 1_555
H22 O23 1_555 1_555
H23 O24 1_555 1_555
H24 O24 1_555 1_555
Ba2C O8 1_555 1_555
Ba3C O6 1_555 1_555
Ba3C_2 O3 1_555 1_555
O3C Ba3 1_555 1_555
O6C Ba3 1_555 1_555
O8C Ba2 1_555 1_555
O11C Ba2 1_555 1_555
C2 N1 1_555 1_555
C3 N2 1_555 1_555
C3 N3 1_555 1_555
C4 N4 1_555 1_555
C5 N5 1_555 1_555
C6 N4 1_555 1_555
C6 N6 1_555 1_555
C7 O2 1_555 1_555
C8 O4 1_555 1_555
C10 O8 1_555 1_555
C12 O12 1_555 1_555
Ba2C O3C 1_555 1_555
Ba3C_2 O8C 1_555 1_555

#END
