
#######################################################################
#
#                 Cambridge Crystallographic Data Centre
#                                CCDC 
#
#######################################################################
#
# If this CIF has been generated from an entry in the Cambridge 
# Structural Database, then it will include bibliographic, chemical, 
# crystal, experimental, refinement or atomic coordinate data resulting 
# from the CCDC's data processing and validation procedures.
#
#######################################################################

data_TEDXAC
_symmetry_cell_setting           orthorhombic
_symmetry_space_group_name_H-M   'P b c a'
_symmetry_Int_Tables_number      61
_space_group_name_Hall           '-P 2ac 2ab'
loop_
_symmetry_equiv_pos_site_id
_symmetry_equiv_pos_as_xyz
1 x,y,z
2 1/2-x,-y,1/2+z
3 -x,1/2+y,1/2-z
4 1/2+x,1/2-y,-z
5 -x,-y,-z
6 1/2+x,y,1/2-z
7 x,1/2-y,1/2+z
8 1/2-x,1/2+y,z
_cell_length_a                   12.123(4)
_cell_length_b                   18.819(6)
_cell_length_c                   26.004(8)
_cell_angle_alpha                90
_cell_angle_beta                 90
_cell_angle_gamma                90
_cell_volume                     5932.62
loop_
_atom_site_label
_atom_site_type_symbol
_atom_site_fract_x
_atom_site_fract_y
_atom_site_fract_z
Sn1 Sn 0.66962(4) 0.02222(3) 0.26762(2)
N1 N 0.7505(6) 0.1322(4) 0.2988(3)
N2 N 0.8141(9) 0.2644(5) 0.3361(5)
N3 N 0.7411(6) -0.1028(4) 0.2309(3)
N4 N 0.8511(7) -0.2200(5) 0.1883(5)
O1 O 0.5391(5) 0.1000(3) 0.2836(3)
O2 O 0.4869(7) 0.2096(4) 0.3035(4)
O3 O 1.0190(5) -0.0496(3) 0.2498(3)
O4 O 0.8616(5) 0.0046(3) 0.2707(3)
C1 C 0.5562(8) 0.1625(6) 0.2988(5)
C2 C 0.6755(8) 0.1820(5) 0.3081(4)
C3 C 0.7064(10) 0.2480(6) 0.3273(5)
H1 H 0.6523 0.2817 0.3342
C4 C 0.8849(10) 0.2136(6) 0.3256(5)
H2 H 0.9593 0.2228 0.3313
C5 C 0.8565(8) 0.1482(6) 0.3069(5)
H3 H 0.9111 0.1149 0.2998
C6 C 0.9154(7) -0.0446(5) 0.2522(4)
C7 C 0.8522(7) -0.1060(5) 0.2300(4)
C8 C 0.9032(8) -0.1648(5) 0.2081(5)
H4 H 0.9798 -0.1653 0.2073
C9 C 0.7393(9) -0.2155(6) 0.1905(5)
H5 H 0.6973 -0.2528 0.1776
C10 C 0.6856(8) -0.1567(6) 0.2114(5)
H6 H 0.6089 -0.1554 0.2116
C11 C 0.6735(10) 0.0492(9) 0.1915(4)
H7 H 0.6404 0.0093 0.1735
H8 H 0.6221 0.0884 0.1879
C12 C 0.7691(13) 0.0690(13) 0.1610(6)
H9 H 0.8109 0.0258 0.1552
H10 H 0.8145 0.0991 0.1827
C13 C 0.7601(15) 0.1054(10) 0.1104(5)
H11 H 0.8321 0.1038 0.0942
H12 H 0.7434 0.1550 0.1169
C14 C 0.678(2) 0.0783(13) 0.0726(7)
H13 H 0.6045 0.0841 0.0871
H14 H 0.6902 0.0279 0.0676
C15 C 0.6814(19) 0.1154(12) 0.0201(6)
H15 H 0.6639 0.1653 0.0248
H16 H 0.7560 0.1125 0.0067
C16 C 0.604(2) 0.0849(13) -0.0191(7)
H17 H 0.6272 0.0367 -0.0268
H18 H 0.5309 0.0822 -0.0040
C17 C 0.596(2) 0.1253(13) -0.0683(7)
H19 H 0.5759 0.1739 -0.0602
H20 H 0.6690 0.1266 -0.0837
C18 C 0.517(2) 0.0983(12) -0.1077(8)
H21 H 0.5209 0.1279 -0.1377
H22 H 0.4439 0.0992 -0.0939
H23 H 0.5367 0.0504 -0.1168
C19 C 0.6687(7) -0.0250(6) 0.3417(4)
H24 H 0.6846 -0.0752 0.3378
H25 H 0.7286 -0.0044 0.3615
C20 C 0.5636(11) -0.0177(8) 0.3728(5)
H26 H 0.5008 -0.0280 0.3509
H27 H 0.5566 0.0308 0.3848
C21 C 0.5624(15) -0.0687(11) 0.4195(6)
H28 H 0.5899 -0.1148 0.4086
H29 H 0.6123 -0.0505 0.4455
C22 C 0.4516(19) -0.0780(14) 0.4426(10)
H30 H 0.4007 -0.0919 0.4156
H31 H 0.4272 -0.0325 0.4558
C23 C 0.444(2) -0.1321(16) 0.4856(10)
H32 H 0.4587 -0.1094 0.5184
H33 H 0.4984 -0.1693 0.4804
C24 C 0.326(3) -0.165(2) 0.4855(13)
H34 H 0.2872 -0.1489 0.4549
H35 H 0.3313 -0.2159 0.4842
C25 C 0.260(3) -0.143(3) 0.5320(17)
H36 H 0.2480 -0.0925 0.5312
H37 H 0.3031 -0.1540 0.5626
C26 C 0.149(4) -0.181(4) 0.536(2)
H38 H 0.1014 -0.1553 0.5584
H39 H 0.1599 -0.2284 0.5488
H40 H 0.1163 -0.1838 0.5022
Sn1E Sn 1.16962(4) 0.02222(3) 0.23238(2)
O3E O 0.5190(5) -0.0496(3) 0.2502(3)
loop_
_geom_bond_atom_site_label_1
_geom_bond_atom_site_label_2
_geom_bond_site_symmetry_1
_geom_bond_site_symmetry_2
Sn1 N1 1_555 1_555
N1 C2 1_555 1_555
N2 C3 1_555 1_555
N3 Sn1 1_555 1_555
N4 C8 1_555 1_555
O1 Sn1 1_555 1_555
O2 C1 1_555 1_555
O3 C6 1_555 1_555
O4 Sn1 1_555 1_555
C1 O1 1_555 1_555
C2 C1 1_555 1_555
C3 C2 1_555 1_555
H1 C3 1_555 1_555
C4 N2 1_555 1_555
H2 C4 1_555 1_555
C5 N1 1_555 1_555
H3 C5 1_555 1_555
C6 O4 1_555 1_555
C7 N3 1_555 1_555
C8 C7 1_555 1_555
H4 C8 1_555 1_555
C9 N4 1_555 1_555
H5 C9 1_555 1_555
C10 N3 1_555 1_555
H6 C10 1_555 1_555
C11 Sn1 1_555 1_555
H7 C11 1_555 1_555
H8 C11 1_555 1_555
C12 C11 1_555 1_555
H9 C12 1_555 1_555
H10 C12 1_555 1_555
C13 C12 1_555 1_555
H11 C13 1_555 1_555
H12 C13 1_555 1_555
C14 C13 1_555 1_555
H13 C14 1_555 1_555
H14 C14 1_555 1_555
C15 C14 1_555 1_555
H15 C15 1_555 1_555
H16 C15 1_555 1_555
C16 C15 1_555 1_555
H17 C16 1_555 1_555
H18 C16 1_555 1_555
C17 C16 1_555 1_555
H19 C17 1_555 1_555
H20 C17 1_555 1_555
C18 C17 1_555 1_555
H21 C18 1_555 1_555
H22 C18 1_555 1_555
H23 C18 1_555 1_555
C19 Sn1 1_555 1_555
H24 C19 1_555 1_555
H25 C19 1_555 1_555
C20 C19 1_555 1_555
H26 C20 1_555 1_555
H27 C20 1_555 1_555
C21 C20 1_555 1_555
H28 C21 1_555 1_555
H29 C21 1_555 1_555
C22 C21 1_555 1_555
H30 C22 1_555 1_555
H31 C22 1_555 1_555
C23 C22 1_555 1_555
H32 C23 1_555 1_555
H33 C23 1_555 1_555
C24 C23 1_555 1_555
H34 C24 1_555 1_555
H35 C24 1_555 1_555
C25 C24 1_555 1_555
H36 C25 1_555 1_555
H37 C25 1_555 1_555
C26 C25 1_555 1_555
H38 C26 1_555 1_555
H39 C26 1_555 1_555
H40 C26 1_555 1_555
Sn1E O3 1_555 1_555
O3E Sn1 1_555 1_555
C4 C5 1_555 1_555
C6 C7 1_555 1_555
C9 C10 1_555 1_555

#END
