
#######################################################################
#
#                 Cambridge Crystallographic Data Centre
#                                CCDC 
#
#######################################################################
#
# If this CIF has been generated from an entry in the Cambridge 
# Structural Database, then it will include bibliographic, chemical, 
# crystal, experimental, refinement or atomic coordinate data resulting 
# from the CCDC's data processing and validation procedures.
#
#######################################################################

data_TEDXOR
_symmetry_cell_setting           orthorhombic
_symmetry_space_group_name_H-M   'P n n a'
_symmetry_Int_Tables_number      52
_space_group_name_Hall           '-P 2a 2bc'
loop_
_symmetry_equiv_pos_site_id
_symmetry_equiv_pos_as_xyz
1 x,y,z
2 1/2-x,-y,z
3 1/2-x,1/2+y,1/2-z
4 x,1/2-y,1/2-z
5 -x,-y,-z
6 1/2+x,y,-z
7 1/2+x,1/2-y,1/2+z
8 -x,1/2+y,1/2+z
_cell_length_a                   16.2244(9)
_cell_length_b                   20.9869(11)
_cell_length_c                   12.8491(7)
_cell_angle_alpha                90
_cell_angle_beta                 90
_cell_angle_gamma                90
_cell_volume                     4375.12
loop_
_atom_site_label
_atom_site_type_symbol
_atom_site_fract_x
_atom_site_fract_y
_atom_site_fract_z
O9 O 0.4903(5) 0.2968(9) 0.1554(7)
H22 H 0.4988 0.3197 0.1019
H23 H 0.5308 0.2831 0.1909
Co1 Co 0.23291(5) 0.2500 0.2500
Co2 Co -0.33077(3) 0.19686(3) 0.02582(4)
C1 C -0.2284(3) 0.2826(2) 0.1186(3)
C2 C -0.1471(3) 0.30881(19) 0.1516(3)
C3 C -0.0746(3) 0.28231(19) 0.1129(3)
H1 H -0.0769 0.2486 0.0636
C4 C 0.0005(3) 0.30527(19) 0.1466(3)
C5 C 0.0028(3) 0.3546(2) 0.2189(3)
H2 H 0.0547 0.3699 0.2423
C6 C -0.0685(3) 0.3822(2) 0.2577(3)
C7 C -0.1434(3) 0.3577(2) 0.2237(3)
H3 H -0.1931 0.3750 0.2506
C8 C 0.0780(3) 0.2768(2) 0.1070(3)
C9 C -0.0653(3) 0.4366(3) 0.3367(4)
C10 C -0.0547(10) 0.4075(5) 0.4407(6)
H4 H -0.0524 0.4411 0.4935
H5 H -0.0034 0.3829 0.4422
H6 H -0.1013 0.3792 0.4553
C11 C -0.1417(5) 0.4749(4) 0.3406(7)
H7 H -0.1501 0.4961 0.2734
H8 H -0.1370 0.5071 0.3956
H9 H -0.1887 0.4470 0.3553
C12 C 0.0057(6) 0.4788(4) 0.3180(10)
H10 H -0.0001 0.4992 0.2497
H11 H 0.0567 0.4537 0.3195
H12 H 0.0078 0.5116 0.3722
C13 C 0.2202(3) 0.11644(19) 0.1214(4)
C14 C 0.2380(3) 0.05592(18) 0.1791(3)
C15 C 0.2383(4) 0.0559(2) 0.2866(4)
H13 H 0.2303 0.0948 0.3229
C16 C 0.2500 0.0000 0.3427(5)
C17 C 0.2500 0.0000 0.4639(7)
C18 C 0.2283(14) 0.0545(5) 0.5091(6)
H14 H 0.2305 0.0496 0.5849
H15 H 0.1722 0.0659 0.4880
H16 H 0.2664 0.0883 0.4877
C19 C 0.2500 0.0000 0.1253(4)
H17 H 0.2500 0.0000 0.0513
O1 O -0.2935(2) 0.30049(17) 0.1587(3)
O2 O -0.22636(19) 0.24084(15) 0.0462(2)
O3 O 0.07199(19) 0.24025(15) 0.0279(2)
O4 O 0.1443(2) 0.28889(16) 0.1511(3)
O5 O 0.1943(2) 0.11226(16) 0.0302(3)
O6 O 0.2314(3) 0.16818(15) 0.1642(3)
O7 O 0.3221(2) 0.2827(2) 0.1477(3)
H18 H 0.3724 0.2834 0.1662
H19 H 0.3084 0.2954 0.0873
O8 O -0.3695(3) 0.1659(2) 0.1676(3)
H20 H -0.3697 0.1263 0.1814
H21 H -0.3856 0.1926 0.2130
Co1A Co 0.26709(5) -0.2500 0.2500
Co2C Co -0.33077(3) 0.30314(3) 0.47418(4)
Co2E Co 0.16923(3) 0.19686(3) -0.02582(4)
Co2D Co 0.33077(3) -0.19686(3) -0.02582(4)
Co2F Co 0.16923(3) 0.30314(3) 0.52582(4)
C1C C -0.2284(3) 0.2174(2) 0.3814(3)
C2C C -0.1471(3) 0.19119(19) 0.3484(3)
C3C C -0.0746(3) 0.21769(19) 0.3871(3)
H1C H -0.0769 0.2514 0.4364
C4C C 0.0005(3) 0.19473(19) 0.3534(3)
C5C C 0.0028(3) 0.1454(2) 0.2811(3)
H2C H 0.0547 0.1301 0.2577
C6C C -0.0685(3) 0.1178(2) 0.2423(3)
C7C C -0.1434(3) 0.1423(2) 0.2763(3)
H3C H -0.1931 0.1250 0.2494
C8C C 0.0780(3) 0.2232(2) 0.3930(3)
C9C C -0.0653(3) 0.0634(3) 0.1633(4)
C10C C -0.0547(10) 0.0925(5) 0.0593(6)
H4C H -0.0524 0.0589 0.0065
H5C H -0.0034 0.1171 0.0578
H6C H -0.1013 0.1208 0.0447
C11C C -0.1417(5) 0.0251(4) 0.1594(7)
H7C H -0.1501 0.0039 0.2266
H8C H -0.1370 -0.0071 0.1044
H9C H -0.1887 0.0530 0.1447
C12C C 0.0057(6) 0.0212(4) 0.1820(10)
H10C H -0.0001 0.0008 0.2503
H11C H 0.0567 0.0463 0.1805
H12C H 0.0078 -0.0116 0.1278
C13A C 0.2798(3) -0.11644(19) 0.1214(4)
C14A C 0.2620(3) -0.05592(18) 0.1791(3)
C15A C 0.2617(4) -0.0559(2) 0.2866(4)
H13A H 0.2697 -0.0948 0.3229
C18A C 0.2717(14) -0.0545(5) 0.5091(6)
H14A H 0.2695 -0.0496 0.5849
H15A H 0.3278 -0.0659 0.4880
H16A H 0.2336 -0.0883 0.4877
O1C O -0.2935(2) 0.19951(17) 0.3413(3)
O2C O -0.22636(19) 0.25916(15) 0.4538(2)
O3C O 0.07199(19) 0.25975(15) 0.4721(2)
O3E O -0.42801(19) 0.24025(15) -0.0279(2)
O3F O -0.42801(19) 0.25975(15) 0.5279(2)
O4C O 0.1443(2) 0.21111(16) 0.3489(3)
O5A O 0.3057(2) -0.11226(16) 0.0302(3)
O5E O -0.3057(2) 0.11226(16) -0.0302(3)
O5F O -0.3057(2) 0.38774(16) 0.5302(3)
O6A O 0.2686(3) -0.16818(15) 0.1642(3)
O6C O 0.2314(3) 0.33182(15) 0.3358(3)
O7C O 0.3221(2) 0.2173(2) 0.3523(3)
H18C H 0.3724 0.2166 0.3338
H19C H 0.3084 0.2046 0.4127
O8C O -0.3695(3) 0.3341(2) 0.3324(3)
H20C H -0.3697 0.3737 0.3186
H21C H -0.3856 0.3074 0.2870
loop_
_geom_bond_atom_site_label_1
_geom_bond_atom_site_label_2
_geom_bond_site_symmetry_1
_geom_bond_site_symmetry_2
Co1 O4 1_555 1_555
Co2 O2 1_555 1_555
C1 C2 1_555 1_555
C2 C3 1_555 1_555
C3 H1 1_555 1_555
C4 C3 1_555 1_555
C5 C4 1_555 1_555
H2 C5 1_555 1_555
C6 C5 1_555 1_555
C7 C2 1_555 1_555
H3 C7 1_555 1_555
C8 C4 1_555 1_555
C9 C6 1_555 1_555
C10 C9 1_555 1_555
H4 C10 1_555 1_555
H5 C10 1_555 1_555
H6 C10 1_555 1_555
C11 C9 1_555 1_555
H7 C11 1_555 1_555
H8 C11 1_555 1_555
H9 C11 1_555 1_555
C12 C9 1_555 1_555
H10 C12 1_555 1_555
H11 C12 1_555 1_555
H12 C12 1_555 1_555
C13 C14 1_555 1_555
C14 C15 1_555 1_555
C15 H13 1_555 1_555
C16 C15 1_555 1_555
C17 C16 1_555 1_555
C18 C17 1_555 1_555
H14 C18 1_555 1_555
H15 C18 1_555 1_555
H16 C18 1_555 1_555
C19 C14 1_555 1_555
H17 C19 1_555 1_555
O1 C1 1_555 1_555
O2 C1 1_555 1_555
O3 C8 1_555 1_555
O4 C8 1_555 1_555
O5 C13 1_555 1_555
O6 Co1 1_555 1_555
O7 Co1 1_555 1_555
H18 O7 1_555 1_555
H19 O7 1_555 1_555
O8 Co2 1_555 1_555
H20 O8 1_555 1_555
H21 O8 1_555 1_555
O9 H22 1_555 1_555
H23 O9 1_555 1_555
Co1A O6A 1_555 1_555
Co2C O2C 1_555 1_555
Co2E O3 1_555 1_555
Co2D O5A 1_555 1_555
Co2F O3C 1_555 1_555
C1C C2C 1_555 1_555
C2C C3C 1_555 1_555
C3C H1C 1_555 1_555
C4C C3C 1_555 1_555
C5C C4C 1_555 1_555
H2C C5C 1_555 1_555
C6C C5C 1_555 1_555
C7C C2C 1_555 1_555
H3C C7C 1_555 1_555
C8C C4C 1_555 1_555
C9C C6C 1_555 1_555
C10C C9C 1_555 1_555
H4C C10C 1_555 1_555
H5C C10C 1_555 1_555
H6C C10C 1_555 1_555
C11C C9C 1_555 1_555
H7C C11C 1_555 1_555
H8C C11C 1_555 1_555
H9C C11C 1_555 1_555
C12C C9C 1_555 1_555
H10C C12C 1_555 1_555
H11C C12C 1_555 1_555
H12C C12C 1_555 1_555
C13A C14A 1_555 1_555
C14A C19 1_555 1_555
C15A C16 1_555 1_555
H13A C15A 1_555 1_555
C18A C17 1_555 1_555
H14A C18A 1_555 1_555
H15A C18A 1_555 1_555
H16A C18A 1_555 1_555
O1C C1C 1_555 1_555
O2C C1C 1_555 1_555
O3C C8C 1_555 1_555
O3E Co2 1_555 1_555
O3F Co2C 1_555 1_555
O4C Co1 1_555 1_555
O5A C13A 1_555 1_555
O5E Co2 1_555 1_555
O5F Co2C 1_555 1_555
O6A C13A 1_555 1_555
O6C Co1 1_555 1_555
O7C Co1 1_555 1_555
H18C O7C 1_555 1_555
H19C O7C 1_555 1_555
O8C Co2C 1_555 1_555
H20C O8C 1_555 1_555
H21C O8C 1_555 1_555
C6 C7 1_555 1_555
C13 O6 1_555 1_555
O5 Co2E 1_555 1_555
C6C C7C 1_555 1_555
C8C O4C 1_555 1_555
C14A C15A 1_555 1_555

#END
