
#######################################################################
#
#                 Cambridge Crystallographic Data Centre
#                                CCDC 
#
#######################################################################
#
# If this CIF has been generated from an entry in the Cambridge 
# Structural Database, then it will include bibliographic, chemical, 
# crystal, experimental, refinement or atomic coordinate data resulting 
# from the CCDC's data processing and validation procedures.
#
#######################################################################

data_TEDZAE
_symmetry_cell_setting           triclinic
_symmetry_space_group_name_H-M   'P -1'
_symmetry_Int_Tables_number      2
_space_group_name_Hall           '-P 1'
loop_
_symmetry_equiv_pos_site_id
_symmetry_equiv_pos_as_xyz
1 x,y,z
2 -x,-y,-z
_cell_length_a                   6.6345(13)
_cell_length_b                   8.7107(17)
_cell_length_c                   11.632(2)
_cell_angle_alpha                68.96(3)
_cell_angle_beta                 87.57(3)
_cell_angle_gamma                68.24(3)
_cell_volume                     579.505
loop_
_atom_site_label
_atom_site_type_symbol
_atom_site_fract_x
_atom_site_fract_y
_atom_site_fract_z
Na1 Na 0.27013(10) 0.69155(8) 0.94656(5)
N1 N -0.46128(18) 1.18958(15) 0.59281(10)
N2 N -0.7341(2) 1.46934(16) 0.51397(12)
N3 N -0.6381(2) 1.32853(16) 0.73116(11)
N4 N -0.3760(2) 1.04630(16) 0.81039(11)
N5 N -0.1934(2) 0.90922(16) 0.67252(11)
N6 N -0.2722(2) 1.04544(16) 0.46070(11)
N7 N -0.5568(2) 1.33888(16) 0.37751(11)
O1 O -0.90817(19) 1.60017(15) 0.64387(12)
O2 O -0.10727(18) 0.77089(15) 0.87846(10)
O3 O -0.3654(2) 1.19641(17) 0.25535(10)
C1 C -0.5848(2) 1.33363(18) 0.49009(13)
C2 C -0.4921(2) 1.18810(18) 0.71467(13)
C3 C -0.3064(2) 1.04784(17) 0.57075(13)
C4 C -0.7652(2) 1.46962(19) 0.63289(14)
C5 C -0.2231(2) 0.90481(19) 0.79262(14)
C6 C -0.3966(2) 1.1945(2) 0.36048(13)
H1 H -0.822(3) 1.565(3) 0.462(2)
H2 H -0.099(3) 0.819(3) 0.6612(18)
O4 O 0.3706(2) 0.39359(17) 0.95701(11)
H3 H 0.362(4) 0.367(3) 0.8986(17)
H4 H 0.298(4) 0.343(3) 1.000(2)
O6 O 0.1576(3) 0.5959(2) 1.14761(13)
H7 H 0.238(5) 0.526(4) 1.209(2)
H8 H 0.070(5) 0.552(4) 1.153(3)
O7 O 0.1959(3) 0.9963(2) 0.92695(18)
H9 H 0.180(9) 0.979(8) 0.997(2)
H10 H 0.303(5) 1.017(7) 0.915(5)
Na1A Na -0.27013(10) 1.30845(8) 0.05344(5)
Na1A_2 Na 0.72987(10) 0.30845(8) 1.05344(5)
O3A O 0.3654(2) 0.80359(17) 0.74465(10)
O4A O 0.6294(2) 0.60641(17) 1.04299(11)
H3A H 0.638(4) 0.633(3) 1.1014(17)
H4A H 0.702(4) 0.657(3) 1.000(2)
O5 O 1.0048(2) 0.79557(17) 0.33969(14)
H5 H 0.920(4) 0.867(3) 0.366(2)
H6 H 0.990(6) 0.825(4) 0.2682(16)
loop_
_geom_bond_atom_site_label_1
_geom_bond_atom_site_label_2
_geom_bond_site_symmetry_1
_geom_bond_site_symmetry_2
Na1 O2 1_555 1_555
N1 C1 1_555 1_555
N2 C1 1_555 1_555
N3 C2 1_555 1_555
N4 C2 1_555 1_555
N5 C3 1_555 1_555
N6 C3 1_555 1_555
N7 C1 1_555 1_555
O1 C4 1_555 1_555
O2 C5 1_555 1_555
O3 C6 1_555 1_555
C2 N1 1_555 1_555
C3 N1 1_555 1_555
C4 N2 1_555 1_555
C5 N4 1_555 1_555
C6 N6 1_555 1_555
H1 N2 1_555 1_555
H2 N5 1_555 1_555
O4 Na1 1_555 1_555
H3 O4 1_555 1_555
H4 O4 1_555 1_555
O5 H5 1_555 1_555
H6 O5 1_555 1_555
O6 Na1 1_555 1_555
H7 O6 1_555 1_555
H8 O6 1_555 1_555
O7 Na1 1_555 1_555
H9 O7 1_555 1_555
H10 O7 1_555 1_555
Na1A O3 1_555 1_555
Na1A_2 O4 1_555 1_555
O3A Na1 1_555 1_555
O4A Na1 1_555 1_555
H3A O4A 1_555 1_555
H4A O4A 1_555 1_555
N3 C4 1_555 1_555
N5 C5 1_555 1_555
N7 C6 1_555 1_555
Na1A_2 O4A 1_555 1_555

#END
