
#######################################################################
#
#                 Cambridge Crystallographic Data Centre
#                                CCDC 
#
#######################################################################
#
# If this CIF has been generated from an entry in the Cambridge 
# Structural Database, then it will include bibliographic, chemical, 
# crystal, experimental, refinement or atomic coordinate data resulting 
# from the CCDC's data processing and validation procedures.
#
#######################################################################

data_TEDZUZ
_symmetry_cell_setting           monoclinic
_symmetry_space_group_name_H-M   'P 21/c'
_symmetry_Int_Tables_number      14
_space_group_name_Hall           '-P 2ybc'
loop_
_symmetry_equiv_pos_site_id
_symmetry_equiv_pos_as_xyz
1 x,y,z
2 -x,1/2+y,1/2-z
3 -x,-y,-z
4 x,1/2-y,1/2+z
_cell_length_a                   10.5836(3)
_cell_length_b                   6.5659(2)
_cell_length_c                   14.1082(3)
_cell_angle_alpha                90
_cell_angle_beta                 110.496(1)
_cell_angle_gamma                90
_cell_volume                     918.329
loop_
_atom_site_label
_atom_site_type_symbol
_atom_site_fract_x
_atom_site_fract_y
_atom_site_fract_z
Pb1 Pb 0.522130(13) 0.82450(2) 0.873371(10)
O1 O 0.7419(3) 0.9530(6) 0.8546(2)
O2 O 0.7917(3) 0.6281(7) 0.8991(3)
O3 O 1.3688(3) 0.9623(6) 0.9651(2)
O4 O 0.2735(4) 0.8159(5) 0.7450(3)
H1 H 0.2934 0.7075 0.7263
H2 H 0.2796 0.8684 0.6917
N1 N 1.2378(3) 0.9182(7) 0.9352(3)
N2 N 0.4788(5) 1.1706(6) 0.8036(3)
N3 N 0.4368(4) 1.2906(7) 0.8491(3)
N4 N 0.3957(5) 1.4095(8) 0.8926(4)
C1 C 1.1476(4) 1.0674(8) 0.8908(3)
H3 H 1.1776 1.1959 0.8761
C2 C 1.0107(4) 1.0294(8) 0.8673(3)
H4 H 0.9466 1.1329 0.8368
C3 C 0.9674(5) 0.8409(7) 0.8881(4)
C4 C 1.0639(5) 0.6897(7) 0.9275(4)
H5 H 1.0363 0.5565 0.9381
C5 C 1.1988(4) 0.7316(8) 0.9513(3)
H6 H 1.2641 0.6282 0.9791
C6 C 0.8217(4) 0.8040(8) 0.8785(3)
Pb1_2 Pb 1.522130(13) 0.82450(2) 0.873371(10)
Pb1B Pb 1.477870(13) 1.17550(2) 1.126629(10)
Pb1A Pb 0.477870(13) 1.32450(2) 0.626629(10)
O3_2 O 0.3688(3) 0.9623(6) 0.9651(2)
O3B O 0.6312(3) 1.0377(6) 1.0349(2)
N2A N 0.5212(5) 0.6706(6) 0.6964(3)
loop_
_geom_bond_atom_site_label_1
_geom_bond_atom_site_label_2
_geom_bond_site_symmetry_1
_geom_bond_site_symmetry_2
Pb1 O1 1_555 1_555
O1 C6 1_555 1_555
O2 C6 1_555 1_555
O3 N1 1_555 1_555
O4 Pb1 1_555 1_555
H1 O4 1_555 1_555
H2 O4 1_555 1_555
N1 C1 1_555 1_555
N2 Pb1 1_555 1_555
N3 N2 1_555 1_555
N4 N3 1_555 1_555
C1 H3 1_555 1_555
C2 C1 1_555 1_555
H4 C2 1_555 1_555
C3 C2 1_555 1_555
C4 C3 1_555 1_555
H5 C4 1_555 1_555
C5 N1 1_555 1_555
H6 C5 1_555 1_555
C6 C3 1_555 1_555
Pb1_2 O3 1_555 1_555
Pb1B O3 1_555 1_555
Pb1A N2 1_555 1_555
O3_2 Pb1 1_555 1_555
O3B Pb1 1_555 1_555
N2A Pb1 1_555 1_555
C4 C5 1_555 1_555

#END
