
#######################################################################
#
#                 Cambridge Crystallographic Data Centre
#                                CCDC 
#
#######################################################################
#
# If this CIF has been generated from an entry in the Cambridge 
# Structural Database, then it will include bibliographic, chemical, 
# crystal, experimental, refinement or atomic coordinate data resulting 
# from the CCDC's data processing and validation procedures.
#
#######################################################################

data_TEDZOT
_symmetry_cell_setting           monoclinic
_symmetry_space_group_name_H-M   'P 21/c'
_symmetry_Int_Tables_number      14
_space_group_name_Hall           '-P 2ybc'
loop_
_symmetry_equiv_pos_site_id
_symmetry_equiv_pos_as_xyz
1 x,y,z
2 -x,1/2+y,1/2-z
3 -x,-y,-z
4 x,1/2-y,1/2+z
_cell_length_a                   9.3875(1)
_cell_length_b                   13.5315(2)
_cell_length_c                   7.2197(1)
_cell_angle_alpha                90
_cell_angle_beta                 107.815(1)
_cell_angle_gamma                90
_cell_volume                     873.121
loop_
_atom_site_label
_atom_site_type_symbol
_atom_site_fract_x
_atom_site_fract_y
_atom_site_fract_z
Pb1 Pb 0.057344(19) 0.155405(12) 0.56282(2)
S1 S -0.18269(18) 0.15562(9) 1.0961(2)
O1 O 0.3077(4) 0.0918(3) 0.7291(5)
O2 O 0.1637(4) -0.0126(3) 0.5162(5)
O3 O 0.7963(4) -0.2127(3) 0.6801(5)
N1 N 0.6735(5) -0.1646(3) 0.6822(6)
N2 N -0.0005(5) 0.1075(3) 0.8647(7)
C1 C 0.2886(6) 0.0114(4) 0.6360(7)
C2 C 0.4216(6) -0.0546(3) 0.6619(7)
C3 C 0.5597(6) -0.0293(4) 0.7901(7)
H1 H 0.5682 0.0266 0.8724
C4 C 0.6844(6) -0.0846(4) 0.7990(7)
H2 H 0.7786 -0.0668 0.8873
C5 C 0.5388(6) -0.1947(4) 0.5637(7)
H3 H 0.5314 -0.2540 0.4911
C6 C 0.4118(6) -0.1391(4) 0.5482(8)
H4 H 0.3183 -0.1585 0.4602
C7 C -0.0793(6) 0.1265(4) 0.9585(7)
Pb1A Pb 0.942656(19) -0.344595(12) 0.93718(2)
Pb1B Pb 0.942656(19) -0.155405(12) 0.43718(2)
O3A O 0.2037(4) 0.2873(3) 0.8199(5)
O3B O 0.2037(4) 0.2127(3) 0.3199(5)
loop_
_geom_bond_atom_site_label_1
_geom_bond_atom_site_label_2
_geom_bond_site_symmetry_1
_geom_bond_site_symmetry_2
Pb1 O1 1_555 1_555
S1 C7 1_555 1_555
O1 C1 1_555 1_555
O2 Pb1 1_555 1_555
O3 N1 1_555 1_555
N1 C4 1_555 1_555
N2 Pb1 1_555 1_555
C1 O2 1_555 1_555
C2 C1 1_555 1_555
C3 C2 1_555 1_555
H1 C3 1_555 1_555
C4 C3 1_555 1_555
H2 C4 1_555 1_555
C5 N1 1_555 1_555
H3 C5 1_555 1_555
C6 C2 1_555 1_555
H4 C6 1_555 1_555
C7 N2 1_555 1_555
Pb1A O3 1_555 1_555
Pb1B O3 1_555 1_555
O3A Pb1 1_555 1_555
O3B Pb1 1_555 1_555
C5 C6 1_555 1_555

#END
