
#######################################################################
#
#                 Cambridge Crystallographic Data Centre
#                                CCDC 
#
#######################################################################
#
# If this CIF has been generated from an entry in the Cambridge 
# Structural Database, then it will include bibliographic, chemical, 
# crystal, experimental, refinement or atomic coordinate data resulting 
# from the CCDC's data processing and validation procedures.
#
#######################################################################

data_TEDZIN
_symmetry_cell_setting           monoclinic
_symmetry_space_group_name_H-M   'P 21/c'
_symmetry_Int_Tables_number      14
_space_group_name_Hall           '-P 2ybc'
loop_
_symmetry_equiv_pos_site_id
_symmetry_equiv_pos_as_xyz
1 x,y,z
2 -x,1/2+y,1/2-z
3 -x,-y,-z
4 x,1/2-y,1/2+z
_cell_length_a                   8.1253(3)
_cell_length_b                   13.3952(5)
_cell_length_c                   9.5149(4)
_cell_angle_alpha                90
_cell_angle_beta                 104.493(2)
_cell_angle_gamma                90
_cell_volume                     1002.65
loop_
_atom_site_label
_atom_site_type_symbol
_atom_site_fract_x
_atom_site_fract_y
_atom_site_fract_z
Tl1 Tl 1.19578(4) -0.04059(2) 0.42340(3)
Tl2 Tl 1.08407(4) 0.27911(2) 0.48692(3)
N1 N 1.4661(9) 0.0524(5) 0.7492(7)
N2 N 1.3237(9) 0.0785(5) 0.6478(8)
N3 N 1.2548(10) 0.1568(5) 0.6933(7)
N4 N 1.3516(9) 0.1863(5) 0.8235(8)
C1 C 1.8702(10) 0.1127(6) 1.2563(8)
C2 C 1.8738(11) 0.0481(6) 1.1387(9)
H1 H 1.9633 0.0033 1.1476
C3 C 1.7471(11) 0.0506(6) 1.0117(9)
H2 H 1.7497 0.0050 0.9385
C4 C 1.6142(10) 0.1203(6) 0.9902(8)
C5 C 1.6134(11) 0.1885(6) 1.1031(9)
H3 H 1.5286 0.2367 1.0910
C6 C 1.7381(11) 0.1838(6) 1.2309(9)
H4 H 1.7350 0.2295 1.3038
C7 C 1.4765(10) 0.1196(6) 0.8558(8)
O1 O 1.9823(7) 0.1049(4) 1.3848(6)
O2 O 1.3166(9) 0.1066(5) 0.2713(7)
H5 H 1.409(9) 0.076(8) 0.266(13)
H6 H 1.361(15) 0.161(5) 0.305(12)
Tl1_2 Tl 2.19578(4) -0.04059(2) 1.42340(3)
Tl1B Tl 1.80422(4) 0.04059(2) 1.57660(3)
Tl2_2 Tl 2.08407(4) 0.27911(2) 1.48692(3)
O1_2 O 0.9823(7) 0.1049(4) 0.3848(6)
O1B O 1.0177(7) -0.1049(4) 0.6152(6)
loop_
_geom_bond_atom_site_label_1
_geom_bond_atom_site_label_2
_geom_bond_site_symmetry_1
_geom_bond_site_symmetry_2
Tl1 N2 1_555 1_555
Tl2 N3 1_555 1_555
N1 N2 1_555 1_555
N2 N3 1_555 1_555
N3 N4 1_555 1_555
N4 C7 1_555 1_555
C1 C2 1_555 1_555
C2 H1 1_555 1_555
C3 C2 1_555 1_555
H2 C3 1_555 1_555
C4 C3 1_555 1_555
C5 C4 1_555 1_555
H3 C5 1_555 1_555
C6 C1 1_555 1_555
H4 C6 1_555 1_555
C7 N1 1_555 1_555
O1 C1 1_555 1_555
O2 Tl1 1_555 1_555
H5 O2 1_555 1_555
H6 O2 1_555 1_555
Tl1_2 O1 1_555 1_555
Tl1B O1 1_555 1_555
Tl2_2 O1 1_555 1_555
O1_2 Tl1 1_555 1_555
O1B Tl1 1_555 1_555
Tl2 O1_2 1_555 1_555
C4 C7 1_555 1_555
C5 C6 1_555 1_555

#END
