
#######################################################################
#
#                 Cambridge Crystallographic Data Centre
#                                CCDC 
#
#######################################################################
#
# If this CIF has been generated from an entry in the Cambridge 
# Structural Database, then it will include bibliographic, chemical, 
# crystal, experimental, refinement or atomic coordinate data resulting 
# from the CCDC's data processing and validation procedures.
#
#######################################################################

data_TEFBEN
_symmetry_cell_setting           monoclinic
_symmetry_space_group_name_H-M   'P 21/c'
_symmetry_Int_Tables_number      14
_space_group_name_Hall           '-P 2ybc'
loop_
_symmetry_equiv_pos_site_id
_symmetry_equiv_pos_as_xyz
1 x,y,z
2 -x,1/2+y,1/2-z
3 -x,-y,-z
4 x,1/2-y,1/2+z
_cell_length_a                   8.0855(6)
_cell_length_b                   8.8093(6)
_cell_length_c                   23.2620(16)
_cell_angle_alpha                90
_cell_angle_beta                 91.1590(10)
_cell_angle_gamma                90
_cell_volume                     1656.56
loop_
_atom_site_label
_atom_site_type_symbol
_atom_site_fract_x
_atom_site_fract_y
_atom_site_fract_z
Cd1 Cd 0.451531(18) 1.086511(17) 0.168044(6)
N1 N 0.3393(2) 0.8664(2) 0.12676(8)
N2 N 0.3924(2) 1.1317(2) 0.07141(8)
O1 O 0.7452(2) 1.0461(2) 0.14514(7)
O2 O 0.6423(2) 0.9526(2) 0.22401(7)
O3 O 0.7169(2) 0.6162(2) 0.24781(8)
O4 O 0.8076(2) 0.7306(2) 0.32557(8)
O5 O 0.5531(3) 1.3143(2) 0.19666(9)
H1 H 0.605(4) 1.369(3) 0.1750(13)
H2 H 0.481(3) 1.364(3) 0.2115(15)
C1 C 0.7605(3) 0.9695(2) 0.19027(9)
C2 C 0.9227(3) 0.8966(3) 0.20318(12)
H3 H 1.0148 0.9343 0.1846
C3 C 0.9455(3) 0.7821(3) 0.23921(11)
H4 H 1.0530 0.7461 0.2442
C4 C 0.8129(3) 0.7052(3) 0.27274(11)
C5 C 0.3251(3) 0.7339(3) 0.15456(11)
H5 H 0.3718 0.7254 0.1913
C6 C 0.2448(4) 0.6103(3) 0.13150(13)
H6 H 0.2376 0.5197 0.1518
C7 C 0.1756(4) 0.6247(3) 0.07739(13)
H7 H 0.1182 0.5437 0.0609
C8 C 0.1909(3) 0.7589(3) 0.04755(11)
H8 H 0.1454 0.7688 0.0107
C9 C 0.2753(3) 0.8792(2) 0.07327(9)
C10 C 0.3025(3) 1.0267(3) 0.04307(9)
C11 C 0.2406(4) 1.0548(3) -0.01180(10)
H9 H 0.1784 0.9814 -0.0311
C12 C 0.2718(4) 1.1921(3) -0.03749(11)
H10 H 0.2305 1.2123 -0.0743
C13 C 0.3637(4) 1.2986(3) -0.00880(11)
H11 H 0.3865 1.3920 -0.0255
C14 C 0.4219(3) 1.2639(3) 0.04571(11)
H12 H 0.4846 1.3362 0.0655
Cd1A Cd 0.548469(18) 0.586511(17) 0.331956(6)
O3A O 0.2831(2) 1.1162(2) 0.25219(8)
O4A O 0.1924(2) 1.2306(2) 0.17443(8)
O6 O 0.9355(3) 0.2780(3) 0.09691(9)
H13 H 1.020(3) 0.276(4) 0.1173(14)
H14 H 0.884(4) 0.203(3) 0.1066(15)
O7 O 0.7275(3) 0.5153(3) 0.13202(9)
H15 H 0.804(4) 0.457(4) 0.1253(17)
H16 H 0.746(5) 0.549(4) 0.1645(8)
loop_
_geom_bond_atom_site_label_1
_geom_bond_atom_site_label_2
_geom_bond_site_symmetry_1
_geom_bond_site_symmetry_2
Cd1 N1 1_555 1_555
N1 C5 1_555 1_555
N2 Cd1 1_555 1_555
O1 Cd1 1_555 1_555
O2 Cd1 1_555 1_555
O3 C4 1_555 1_555
O4 C4 1_555 1_555
O5 Cd1 1_555 1_555
H1 O5 1_555 1_555
H2 O5 1_555 1_555
C1 O1 1_555 1_555
C2 C1 1_555 1_555
H3 C2 1_555 1_555
C3 C2 1_555 1_555
H4 C3 1_555 1_555
C4 C3 1_555 1_555
C5 H5 1_555 1_555
C6 C5 1_555 1_555
H6 C6 1_555 1_555
C7 C6 1_555 1_555
H7 C7 1_555 1_555
C8 C7 1_555 1_555
H8 C8 1_555 1_555
C9 N1 1_555 1_555
C10 N2 1_555 1_555
C11 C10 1_555 1_555
H9 C11 1_555 1_555
C12 C11 1_555 1_555
H10 C12 1_555 1_555
C13 C12 1_555 1_555
H11 C13 1_555 1_555
C14 N2 1_555 1_555
H12 C14 1_555 1_555
O6 H13 1_555 1_555
H14 O6 1_555 1_555
O7 H15 1_555 1_555
H16 O7 1_555 1_555
Cd1A O3 1_555 1_555
O3A Cd1 1_555 1_555
O4A Cd1 1_555 1_555
O2 C1 1_555 1_555
O4 Cd1A 1_555 1_555
C8 C9 1_555 1_555
C9 C10 1_555 1_555
C13 C14 1_555 1_555

#END
