
#######################################################################
#
#                 Cambridge Crystallographic Data Centre
#                                CCDC 
#
#######################################################################
#
# If this CIF has been generated from an entry in the Cambridge 
# Structural Database, then it will include bibliographic, chemical, 
# crystal, experimental, refinement or atomic coordinate data resulting 
# from the CCDC's data processing and validation procedures.
#
#######################################################################

data_TEFBOX
_symmetry_cell_setting           monoclinic
_symmetry_space_group_name_H-M   'P 21/c'
_symmetry_Int_Tables_number      14
_space_group_name_Hall           '-P 2ybc'
loop_
_symmetry_equiv_pos_site_id
_symmetry_equiv_pos_as_xyz
1 x,y,z
2 -x,1/2+y,1/2-z
3 -x,-y,-z
4 x,1/2-y,1/2+z
_cell_length_a                   11.1519(7)
_cell_length_b                   10.3844(7)
_cell_length_c                   12.8994(8)
_cell_angle_alpha                90
_cell_angle_beta                 117.0600(10)
_cell_angle_gamma                90
_cell_volume                     1330.3
loop_
_atom_site_label
_atom_site_type_symbol
_atom_site_fract_x
_atom_site_fract_y
_atom_site_fract_z
Cd1 Cd 0.646844(14) 0.899530(13) 0.016662(12)
N1 N 0.87188(17) 0.83046(17) 0.08465(14)
N2 N 0.78367(17) 1.08064(16) 0.04842(14)
O1 O 0.57886(19) 0.68988(16) 0.00831(14)
O2 O 0.59861(17) 0.74908(14) -0.14199(13)
O3 O 0.52936(15) 0.53218(14) -0.38871(11)
O4 O 0.73349(16) 0.56742(16) -0.25330(14)
C1 C 0.9143(2) 0.7095(2) 0.09914(19)
H1 H 0.8508 0.6438 0.0775
C2 C 1.0503(3) 0.6765(3) 0.1455(2)
H2 H 1.0765 0.5906 0.1540
C3 C 1.1437(3) 0.7717(3) 0.1779(2)
H3 H 1.2347 0.7509 0.2097
C4 C 1.1038(2) 0.9012(2) 0.16364(18)
C5 C 1.1963(2) 1.0058(3) 0.1949(2)
H4 H 1.2880 0.9888 0.2268
C6 C 1.1540(2) 1.1282(3) 0.1794(2)
H5 H 1.2167 1.1946 0.2012
C7 C 1.0140(2) 1.1584(2) 0.13005(17)
C8 C 0.9647(3) 1.2849(2) 0.11121(19)
H6 H 1.0241 1.3540 0.1317
C9 C 0.8295(3) 1.3061(2) 0.0628(2)
H7 H 0.7963 1.3898 0.0505
C10 C 0.7415(2) 1.2021(2) 0.03191(18)
H8 H 0.6494 1.2182 -0.0017
C11 C 0.9181(2) 1.0578(2) 0.09710(16)
C12 C 0.9641(2) 0.9257(2) 0.11542(16)
C13 C 0.5784(2) 0.66436(19) -0.08510(17)
C14 C 0.5540(2) 0.52781(19) -0.12192(16)
H9 H 0.5230 0.4750 -0.0810
C15 C 0.5712(2) 0.47351(19) -0.20489(16)
H10 H 0.5518 0.3860 -0.2155
C16 C 0.6174(2) 0.53214(18) -0.28443(16)
Cd1A Cd 0.353156(14) 0.399530(13) -0.516662(12)
Cd1C Cd 0.646844(14) 0.600470(13) -0.483338(12)
O3A O 0.47064(15) 1.03218(14) -0.11129(11)
O3C O 0.52936(15) 0.96782(14) 0.11129(11)
loop_
_geom_bond_atom_site_label_1
_geom_bond_atom_site_label_2
_geom_bond_site_symmetry_1
_geom_bond_site_symmetry_2
Cd1 N1 1_555 1_555
N1 C1 1_555 1_555
N2 Cd1 1_555 1_555
O1 Cd1 1_555 1_555
O2 Cd1 1_555 1_555
O3 C16 1_555 1_555
O4 C16 1_555 1_555
C1 H1 1_555 1_555
C2 C1 1_555 1_555
H2 C2 1_555 1_555
C3 C2 1_555 1_555
H3 C3 1_555 1_555
C4 C3 1_555 1_555
C5 C4 1_555 1_555
H4 C5 1_555 1_555
C6 C5 1_555 1_555
H5 C6 1_555 1_555
C7 C6 1_555 1_555
C8 C7 1_555 1_555
H6 C8 1_555 1_555
C9 C8 1_555 1_555
H7 C9 1_555 1_555
C10 N2 1_555 1_555
H8 C10 1_555 1_555
C11 N2 1_555 1_555
C12 N1 1_555 1_555
C13 O1 1_555 1_555
C14 C13 1_555 1_555
H9 C14 1_555 1_555
C15 C14 1_555 1_555
H10 C15 1_555 1_555
C16 C15 1_555 1_555
Cd1A O3 1_555 1_555
Cd1C O3 1_555 1_555
O3A Cd1 1_555 1_555
O3C Cd1 1_555 1_555
O2 C13 1_555 1_555
C4 C12 1_555 1_555
C7 C11 1_555 1_555
C9 C10 1_555 1_555
C11 C12 1_555 1_555

#END
