
#######################################################################
#
#                 Cambridge Crystallographic Data Centre
#                                CCDC 
#
#######################################################################
#
# If this CIF has been generated from an entry in the Cambridge 
# Structural Database, then it will include bibliographic, chemical, 
# crystal, experimental, refinement or atomic coordinate data resulting 
# from the CCDC's data processing and validation procedures.
#
#######################################################################

data_TEFBIR
_symmetry_cell_setting           triclinic
_symmetry_space_group_name_H-M   'P -1'
_symmetry_Int_Tables_number      2
_space_group_name_Hall           '-P 1'
loop_
_symmetry_equiv_pos_site_id
_symmetry_equiv_pos_as_xyz
1 x,y,z
2 -x,-y,-z
_cell_length_a                   8.1422(6)
_cell_length_b                   8.1613(6)
_cell_length_c                   13.8108(10)
_cell_angle_alpha                80.4280(10)
_cell_angle_beta                 87.7170(10)
_cell_angle_gamma                77.6410(10)
_cell_volume                     883.983
loop_
_atom_site_label
_atom_site_type_symbol
_atom_site_fract_x
_atom_site_fract_y
_atom_site_fract_z
Cd1 Cd 0.66550(2) 0.72811(2) 0.729333(11)
N1 N 0.4404(3) 0.8856(3) 0.81080(15)
N2 N 0.6852(2) 0.6261(2) 0.89916(14)
O1 O 0.4959(2) 0.5630(2) 0.68581(13)
O2 O 0.3857(2) 0.7169(2) 0.54579(13)
O3 O -0.1068(2) 0.5360(2) 0.69151(15)
O4 O 0.0831(2) 0.6984(2) 0.68700(17)
O5 O 0.6117(3) 0.8977(3) 0.58259(14)
H1 H 0.554(4) 0.850(4) 0.555(2)
H2 H 0.694(3) 0.899(5) 0.546(2)
O6 O 0.8373(2) 0.9196(2) 0.75107(15)
H3 H 0.923(3) 0.852(3) 0.739(2)
H4 H 0.824(4) 1.004(3) 0.7088(19)
C1 C 0.4027(3) 0.5909(3) 0.61259(18)
C2 C 0.3144(3) 0.4515(3) 0.59942(19)
H5 H 0.3779 0.3610 0.5724
C3 C 0.0372(3) 0.5697(3) 0.66974(18)
C4 C 0.1564(3) 0.4436(3) 0.6220(2)
H6 H 0.1176 0.3518 0.6067
C5 C 0.3179(3) 1.0078(3) 0.7676(2)
H7 H 0.3194 1.0361 0.6995
C6 C 0.1869(4) 1.0957(4) 0.8197(2)
H8 H 0.1023 1.1790 0.7867
C7 C 0.1849(3) 1.0577(3) 0.9190(2)
H9 H 0.0994 1.1160 0.9548
C8 C 0.3132(3) 0.9291(3) 0.96817(19)
C9 C 0.3176(4) 0.8819(3) 1.0722(2)
H10 H 0.2358 0.9399 1.1103
C10 C 0.4383(4) 0.7546(3) 1.11642(19)
H11 H 0.4388 0.7257 1.1845
C11 C 0.5661(3) 0.6634(3) 1.05919(18)
C12 C 0.6919(3) 0.5272(3) 1.10244(19)
H12 H 0.6957 0.4943 1.1702
C13 C 0.8088(3) 0.4437(3) 1.0435(2)
H13 H 0.8921 0.3525 1.0705
C14 C 0.8006(3) 0.4974(3) 0.9426(2)
H14 H 0.8807 0.4400 0.9033
C15 C 0.5676(3) 0.7084(3) 0.95676(17)
C16 C 0.4374(3) 0.8455(3) 0.90991(17)
Cd1_2 Cd -0.33450(2) 0.72811(2) 0.729333(11)
O3_2 O 0.8932(2) 0.5360(2) 0.69151(15)
O7 O 0.8176(3) 0.2312(3) 0.62115(18)
H15 H 0.751(4) 0.246(5) 0.577(2)
H16 H 0.799(5) 0.319(3) 0.644(3)
O8 O 0.8537(3) 0.9630(3) 0.44477(18)
H17 H 0.948(2) 0.913(4) 0.433(3)
H18 H 0.853(5) 1.0639(17) 0.432(3)
loop_
_geom_bond_atom_site_label_1
_geom_bond_atom_site_label_2
_geom_bond_site_symmetry_1
_geom_bond_site_symmetry_2
Cd1 N1 1_555 1_555
N1 C5 1_555 1_555
N2 Cd1 1_555 1_555
O1 Cd1 1_555 1_555
O2 C1 1_555 1_555
O3 C3 1_555 1_555
O4 C3 1_555 1_555
O5 Cd1 1_555 1_555
H1 O5 1_555 1_555
H2 O5 1_555 1_555
O6 Cd1 1_555 1_555
H3 O6 1_555 1_555
H4 O6 1_555 1_555
C1 O1 1_555 1_555
C2 C1 1_555 1_555
H5 C2 1_555 1_555
C3 C4 1_555 1_555
C4 C2 1_555 1_555
H6 C4 1_555 1_555
C5 H7 1_555 1_555
C6 C5 1_555 1_555
H8 C6 1_555 1_555
C7 C6 1_555 1_555
H9 C7 1_555 1_555
C8 C7 1_555 1_555
C9 C8 1_555 1_555
H10 C9 1_555 1_555
C10 C9 1_555 1_555
H11 C10 1_555 1_555
C11 C10 1_555 1_555
C12 C11 1_555 1_555
H12 C12 1_555 1_555
C13 C12 1_555 1_555
H13 C13 1_555 1_555
C14 N2 1_555 1_555
H14 C14 1_555 1_555
C15 N2 1_555 1_555
C16 N1 1_555 1_555
O7 H15 1_555 1_555
H16 O7 1_555 1_555
O8 H17 1_555 1_555
H18 O8 1_555 1_555
Cd1_2 O3 1_555 1_555
O3_2 Cd1 1_555 1_555
C8 C16 1_555 1_555
C11 C15 1_555 1_555
C13 C14 1_555 1_555
C15 C16 1_555 1_555

#END
