
#######################################################################
#
#                 Cambridge Crystallographic Data Centre
#                                CCDC 
#
#######################################################################
#
# If this CIF has been generated from an entry in the Cambridge 
# Structural Database, then it will include bibliographic, chemical, 
# crystal, experimental, refinement or atomic coordinate data resulting 
# from the CCDC's data processing and validation procedures.
#
#######################################################################

data_TEFBAJ
_symmetry_cell_setting           monoclinic
_symmetry_space_group_name_H-M   'P 21/c'
_symmetry_Int_Tables_number      14
_space_group_name_Hall           '-P 2ybc'
loop_
_symmetry_equiv_pos_site_id
_symmetry_equiv_pos_as_xyz
1 x,y,z
2 -x,1/2+y,1/2-z
3 -x,-y,-z
4 x,1/2-y,1/2+z
_cell_length_a                   8.2433(6)
_cell_length_b                   8.7052(6)
_cell_length_c                   24.5619(18)
_cell_angle_alpha                90
_cell_angle_beta                 94.0380(10)
_cell_angle_gamma                90
_cell_volume                     1758.18
loop_
_atom_site_label
_atom_site_type_symbol
_atom_site_fract_x
_atom_site_fract_y
_atom_site_fract_z
Cd1 Cd 0.033536(18) 0.400323(17) 0.171230(6)
N1 N 0.0895(2) 0.3611(2) 0.07998(7)
N2 N 0.1368(2) 0.6290(2) 0.13811(7)
O1 O 0.2952(2) 0.2736(2) 0.18342(7)
O2 O 0.2023(2) 0.3691(2) 0.25728(8)
O3 O 0.14519(19) 0.0305(2) 0.27531(6)
O4 O 0.2549(2) -0.0510(2) 0.35388(6)
O5 O -0.0545(3) 0.1633(2) 0.19271(9)
H1 H -0.115(4) 0.104(3) 0.1754(14)
H2 H 0.011(4) 0.116(3) 0.2124(14)
C1 C 0.0668(3) 0.2325(3) 0.05175(10)
H3 H 0.0099 0.1528 0.0669
C2 C 0.1245(4) 0.2114(3) 0.00031(11)
H4 H 0.1061 0.1193 -0.0183
C3 C 0.2075(3) 0.3258(3) -0.02237(10)
H5 H 0.2460 0.3131 -0.0568
C4 C 0.2352(3) 0.4640(3) 0.00633(9)
C5 C 0.3234(3) 0.5894(3) -0.01485(10)
H6 H 0.3660 0.5796 -0.0487
C6 C 0.3458(3) 0.7202(3) 0.01308(10)
H7 H 0.4034 0.8000 -0.0017
C7 C 0.2824(3) 0.7397(3) 0.06567(9)
C8 C 0.2987(3) 0.8764(3) 0.09599(12)
H8 H 0.3539 0.9596 0.0823
C9 C 0.2341(4) 0.8872(3) 0.14517(12)
H9 H 0.2438 0.9776 0.1653
C10 C 0.1530(3) 0.7606(3) 0.16499(10)
H10 H 0.1081 0.7690 0.1986
C11 C 0.1980(3) 0.6175(2) 0.08845(8)
C12 C 0.1737(2) 0.4763(3) 0.05781(8)
C13 C 0.3014(3) 0.2900(3) 0.23402(10)
C14 C 0.4381(3) 0.2116(3) 0.26639(10)
H11 H 0.5427 0.2488 0.2630
C15 C 0.4216(3) 0.0933(3) 0.29946(10)
H12 H 0.5154 0.0529 0.3173
C16 C 0.2645(3) 0.0207(2) 0.31012(8)
Cd1A Cd -0.033536(18) -0.099677(17) 0.328770(6)
O3A O -0.14519(19) 0.5305(2) 0.22469(6)
O4A O -0.2549(2) 0.4490(2) 0.14612(6)
O6 O 0.5376(3) 0.1917(3) 0.11702(9)
H13 H 0.469(3) 0.205(5) 0.1390(13)
H14 H 0.605(4) 0.260(3) 0.1234(16)
O7 O 0.7622(3) 0.9517(4) 0.12822(11)
H15 H 0.678(3) 0.995(5) 0.1169(17)
H16 H 0.743(5) 0.907(5) 0.1563(11)
loop_
_geom_bond_atom_site_label_1
_geom_bond_atom_site_label_2
_geom_bond_site_symmetry_1
_geom_bond_site_symmetry_2
Cd1 N1 1_555 1_555
N1 C1 1_555 1_555
N2 Cd1 1_555 1_555
O1 Cd1 1_555 1_555
O2 Cd1 1_555 1_555
O3 C16 1_555 1_555
O4 C16 1_555 1_555
O5 Cd1 1_555 1_555
H1 O5 1_555 1_555
H2 O5 1_555 1_555
C1 H3 1_555 1_555
C2 C1 1_555 1_555
H4 C2 1_555 1_555
C3 C2 1_555 1_555
H5 C3 1_555 1_555
C4 C3 1_555 1_555
C5 C4 1_555 1_555
H6 C5 1_555 1_555
C6 C5 1_555 1_555
H7 C6 1_555 1_555
C7 C6 1_555 1_555
C8 C7 1_555 1_555
H8 C8 1_555 1_555
C9 C8 1_555 1_555
H9 C9 1_555 1_555
C10 N2 1_555 1_555
H10 C10 1_555 1_555
C11 N2 1_555 1_555
C12 N1 1_555 1_555
C13 O1 1_555 1_555
C14 C13 1_555 1_555
H11 C14 1_555 1_555
C15 C14 1_555 1_555
H12 C15 1_555 1_555
C16 C15 1_555 1_555
O6 H13 1_555 1_555
H14 O6 1_555 1_555
O7 H15 1_555 1_555
H16 O7 1_555 1_555
Cd1A O3 1_555 1_555
O3A Cd1 1_555 1_555
O4A Cd1 1_555 1_555
O2 C13 1_555 1_555
O4 Cd1A 1_555 1_555
C4 C12 1_555 1_555
C7 C11 1_555 1_555
C9 C10 1_555 1_555
C11 C12 1_555 1_555

#END
