
#######################################################################
#
#                 Cambridge Crystallographic Data Centre
#                                CCDC 
#
#######################################################################
#
# If this CIF has been generated from an entry in the Cambridge 
# Structural Database, then it will include bibliographic, chemical, 
# crystal, experimental, refinement or atomic coordinate data resulting 
# from the CCDC's data processing and validation procedures.
#
#######################################################################

data_TEFCOY01
_symmetry_cell_setting           monoclinic
_symmetry_space_group_name_H-M   'P 21/c'
_symmetry_Int_Tables_number      14
_space_group_name_Hall           '-P 2ybc'
loop_
_symmetry_equiv_pos_site_id
_symmetry_equiv_pos_as_xyz
1 x,y,z
2 -x,1/2+y,1/2-z
3 -x,-y,-z
4 x,1/2-y,1/2+z
_cell_length_a                   8.604(5)
_cell_length_b                   28.639(5)
_cell_length_c                   7.384(5)
_cell_angle_alpha                90
_cell_angle_beta                 94.949(5)
_cell_angle_gamma                90
_cell_volume                     1812.71
loop_
_atom_site_label
_atom_site_type_symbol
_atom_site_fract_x
_atom_site_fract_y
_atom_site_fract_z
Zn1 Zn 0.92033(3) 0.149190(9) 0.84694(4)
S1 S 1.40582(7) 0.156460(19) 1.10200(8)
C1 C 1.1119(2) 0.07307(7) 0.7222(3)
O1 O 1.07160(19) 0.13215(6) 1.1286(2)
O2 O 1.78537(19) 0.23267(5) 1.1086(2)
N1 N 1.3338(2) -0.03547(7) 0.6269(3)
C2 C 1.3368(3) 0.22368(9) 1.3078(3)
C3 C 1.2370(2) 0.04726(7) 0.6630(3)
O3 O 0.81043(19) 0.17120(6) 0.5909(2)
H1 H 0.7781 0.1990 0.5960
H2 H 0.8750 0.1712 0.5106
O4 O 1.03413(19) 0.18222(6) 1.3527(2)
N2 N 0.8566(2) 0.07761(6) 0.8277(2)
C4 C 1.5449(2) 0.19869(8) 1.1557(3)
C5 C 1.2236(3) -0.00259(7) 0.6659(3)
C6 C 1.4898(3) 0.23235(9) 1.2636(3)
C7 C 0.6990(3) 0.01001(8) 0.8608(3)
O5 O 1.72887(19) 0.16249(5) 0.9856(2)
C8 C 1.6984(3) 0.19794(8) 1.0786(3)
C9 C 1.0911(3) -0.02398(7) 0.7173(3)
C10 C 0.7244(3) 0.05812(8) 0.8692(3)
N3 N 1.1144(2) 0.12054(6) 0.7304(2)
O6 O 1.01010(19) 0.21625(5) 0.8988(3)
H3 H 0.9456 0.2238 0.9749
H4 H 1.0000 0.2366 0.8160
C11 C 1.2746(3) 0.18399(8) 1.2283(3)
C12 C 1.3660(3) 0.11965(8) 0.6152(3)
C13 C 0.9574(2) 0.00084(7) 0.7690(3)
C14 C 1.3654(3) 0.07181(8) 0.6065(3)
C15 C 1.2650(3) -0.07536(8) 0.6556(4)
C16 C 0.9721(2) 0.05006(7) 0.7745(3)
N4 N 1.1190(2) -0.07112(7) 0.7089(3)
C17 C 1.1141(3) 0.16492(8) 1.2388(3)
C18 C 0.8165(3) -0.01884(8) 0.8132(3)
C19 C 1.2385(3) 0.14270(8) 0.6787(3)
H5 H 1.449(3) 0.0564(9) 0.567(4)
H6 H 1.450(3) 0.1367(9) 0.583(3)
H7 H 0.803(3) -0.0514(9) 0.810(3)
H8 H 0.649(3) 0.0772(8) 0.905(3)
H9 H 1.238(3) 0.1757(8) 0.683(3)
H10 H 0.602(3) -0.0023(9) 0.886(4)
H11 H 1.307(3) -0.1045(9) 0.640(3)
H12 H 1.058(3) -0.0931(9) 0.747(4)
H13 H 1.281(3) 0.2422(9) 1.382(3)
H14 H 1.551(3) 0.2575(9) 1.299(4)
Zn1_2 Zn 1.92033(3) 0.149190(9) 0.84694(4)
O5_2 O 0.72887(19) 0.16249(5) 0.9856(2)
loop_
_geom_bond_atom_site_label_1
_geom_bond_atom_site_label_2
_geom_bond_site_symmetry_1
_geom_bond_site_symmetry_2
Zn1 O1 1_555 1_555
S1 C4 1_555 1_555
C1 C3 1_555 1_555
O1 C17 1_555 1_555
O2 C8 1_555 1_555
N1 C5 1_555 1_555
C2 C6 1_555 1_555
C3 C5 1_555 1_555
O3 Zn1 1_555 1_555
H1 O3 1_555 1_555
H2 O3 1_555 1_555
O4 C17 1_555 1_555
N2 Zn1 1_555 1_555
C4 C6 1_555 1_555
C5 C9 1_555 1_555
C6 H14 1_555 1_555
C7 C10 1_555 1_555
O5 C8 1_555 1_555
C8 C4 1_555 1_555
C9 C13 1_555 1_555
C10 N2 1_555 1_555
N3 Zn1 1_555 1_555
O6 Zn1 1_555 1_555
H3 O6 1_555 1_555
H4 O6 1_555 1_555
C11 S1 1_555 1_555
C12 C14 1_555 1_555
C13 C16 1_555 1_555
C14 C3 1_555 1_555
C15 N1 1_555 1_555
C16 C1 1_555 1_555
N4 C9 1_555 1_555
C17 C11 1_555 1_555
C18 C7 1_555 1_555
C19 N3 1_555 1_555
H5 C14 1_555 1_555
H6 C12 1_555 1_555
H7 C18 1_555 1_555
H8 C10 1_555 1_555
H9 C19 1_555 1_555
H10 C7 1_555 1_555
H11 C15 1_555 1_555
H12 N4 1_555 1_555
H13 C2 1_555 1_555
Zn1_2 O5 1_555 1_555
O5_2 Zn1 1_555 1_555
C1 N3 1_555 1_555
C2 C11 1_555 1_555
N2 C16 1_555 1_555
C12 C19 1_555 1_555
C13 C18 1_555 1_555
C15 N4 1_555 1_555

#END
