
#######################################################################
#
#                 Cambridge Crystallographic Data Centre
#                                CCDC 
#
#######################################################################
#
# If this CIF has been generated from an entry in the Cambridge 
# Structural Database, then it will include bibliographic, chemical, 
# crystal, experimental, refinement or atomic coordinate data resulting 
# from the CCDC's data processing and validation procedures.
#
#######################################################################

data_TEFCIS
_symmetry_cell_setting           monoclinic
_symmetry_space_group_name_H-M   'P 21/n'
_symmetry_Int_Tables_number      14
_space_group_name_Hall           '-P 2yn'
loop_
_symmetry_equiv_pos_site_id
_symmetry_equiv_pos_as_xyz
1 x,y,z
2 1/2-x,1/2+y,1/2-z
3 -x,-y,-z
4 1/2+x,1/2-y,1/2+z
_cell_length_a                   11.699(12)
_cell_length_b                   19.400(17)
_cell_length_c                   15.145(15)
_cell_angle_alpha                90
_cell_angle_beta                 104.15(2)
_cell_angle_gamma                90
_cell_volume                     3333.03
loop_
_atom_site_label
_atom_site_type_symbol
_atom_site_fract_x
_atom_site_fract_y
_atom_site_fract_z
Zn1 Zn 0.47458(4) 0.25151(2) 0.27639(3)
O1 O 0.3601(2) 0.32982(14) 0.22468(19)
O2 O 0.7185(3) 0.31573(16) 0.2340(2)
N1 N 0.4501(3) 0.23874(16) 0.4166(2)
O3 O 0.6079(2) 0.32181(14) 0.33434(19)
N2 N 0.3344(3) 0.17400(16) 0.2630(2)
C1 C 0.2035(3) 0.1157(2) 0.3398(3)
N3 N 0.6100(3) 0.17134(16) 0.2851(2)
N4 N 0.4876(3) 0.23523(18) 0.1322(3)
C2 C 0.3216(3) 0.1902(2) 0.5041(3)
C3 C 0.1685(3) 0.1079(2) 0.4240(3)
C4 C 0.3575(3) 0.19816(19) 0.4224(3)
O4 O 0.2207(3) 0.32369(17) 0.3029(2)
C5 C 0.2966(3) 0.16194(18) 0.3389(3)
C6 C 0.7682(3) 0.1052(2) 0.1192(3)
N5 N 0.0820(3) 0.06625(18) 0.4432(3)
H1 H 0.0346 0.0390 0.4069
C7 C 0.5781(3) 0.19342(19) 0.1250(3)
C8 C 0.7400(3) 0.1144(2) 0.2053(3)
C9 C 0.2617(3) 0.3463(2) 0.2392(3)
N6 N 0.1727(3) 0.12421(19) 0.5692(3)
N7 N 0.8581(3) 0.06608(19) 0.0997(3)
C10 C 0.6084(3) 0.1839(2) 0.0407(3)
C11 C 0.7837(3) 0.3881(2) 0.3626(3)
N8 N 0.7581(3) 0.1203(2) -0.0266(3)
H2 H 0.7375 0.1329 -0.0827
C12 C 0.6973(3) 0.3382(2) 0.3051(3)
C13 C 0.6440(3) 0.15836(19) 0.2078(3)
C14 C 0.7060(4) 0.1391(2) 0.0420(3)
C15 C 0.8010(4) 0.0836(2) 0.2868(3)
H3 H 0.8644 0.0544 0.2879
C16 C 0.2249(4) 0.1444(2) 0.5004(3)
C17 C 0.3845(4) 0.2262(2) 0.5816(3)
H4 H 0.3624 0.2230 0.6364
C18 C 0.7659(4) 0.0970(2) 0.3646(3)
H5 H 0.8057 0.0773 0.4195
C19 C 0.1921(4) 0.0926(2) 0.1822(3)
H6 H 0.1598 0.0693 0.1282
C20 C 0.5415(4) 0.2187(2) -0.0361(3)
H7 H 0.5592 0.2139 -0.0924
C21 C 0.4273(4) 0.2672(2) 0.0591(3)
H8 H 0.3663 0.2964 0.0648
C22 C 0.1877(3) 0.3956(2) 0.1716(3)
C23 C 0.6694(4) 0.1407(2) 0.3614(3)
H9 H 0.6458 0.1486 0.4149
C24 C 0.4791(4) 0.2660(2) 0.5751(3)
H10 H 0.5225 0.2896 0.6257
C25 C 0.7807(4) 0.4052(2) 0.4508(3)
H11 H 0.7214 0.3872 0.4751
C26 C 0.1517(4) 0.0804(2) 0.2586(3)
H12 H 0.0909 0.0492 0.2568
C27 C 0.2821(4) 0.1405(2) 0.1867(3)
H13 H 0.3070 0.1497 0.1340
C28 C 0.4501(4) 0.2598(2) -0.0271(3)
H14 H 0.4037 0.2824 -0.0773
C29 C 0.5094(4) 0.2707(2) 0.4916(3)
H15 H 0.5742 0.2974 0.4883
C30 C 0.2300(4) 0.4284(2) 0.1056(3)
H16 H 0.3087 0.4228 0.1049
C31 C 0.8481(4) 0.0779(2) 0.0122(4)
H17 H 0.8986 0.0587 -0.0200
C32 C 0.1579(3) 0.4694(2) 0.0402(3)
H18 H 0.1897 0.4912 -0.0030
C33 C 0.0886(4) 0.0777(2) 0.5297(3)
H19 H 0.0400 0.0559 0.5614
C34 C 0.9540(3) 0.4773(2) 0.4706(3)
C35 C 0.0398(3) 0.4788(2) 0.0372(3)
C36 C 0.8641(4) 0.4485(2) 0.5036(3)
H20 H 0.8598 0.4585 0.5627
C37 C -0.0009(4) 0.4479(3) 0.1063(4)
H21 H -0.0789 0.4547 0.1084
C38 C 0.8706(4) 0.4180(3) 0.3283(3)
H22 H 0.8733 0.4091 0.2685
C39 C 0.9549(4) 0.4615(3) 0.3818(3)
H23 H 1.0132 0.4804 0.3571
C40 C 0.0717(4) 0.4072(3) 0.1726(4)
H24 H 0.0416 0.3874 0.2181
Zn1B Zn -0.47458(4) 0.74849(2) -0.27639(3)
Zn1B_2 Zn 1.52542(4) 0.74849(2) 0.72361(3)
O1B O -0.3601(2) 0.67018(14) -0.22468(19)
O2B O 1.2815(3) 0.68427(16) 0.7660(2)
N1B N -0.4501(3) 0.76126(16) -0.4166(2)
O3B O 1.3921(2) 0.67819(14) 0.66566(19)
O3B_2 O -0.6079(2) 0.67819(14) -0.33434(19)
N2B N -0.3344(3) 0.82600(16) -0.2630(2)
C1B C -0.2035(3) 0.8843(2) -0.3398(3)
N3B N -0.6100(3) 0.82866(16) -0.2851(2)
N4B N -0.4876(3) 0.76477(18) -0.1322(3)
C2B C -0.3216(3) 0.8098(2) -0.5041(3)
C3B C -0.1685(3) 0.8921(2) -0.4240(3)
C4B C -0.3575(3) 0.80184(19) -0.4224(3)
O4B O -0.2207(3) 0.67631(17) -0.3029(2)
C5B C -0.2966(3) 0.83806(18) -0.3389(3)
C6B C -0.7682(3) 0.8948(2) -0.1192(3)
N5B N -0.0820(3) 0.93375(18) -0.4432(3)
H1B H -0.0346 0.9610 -0.4069
C7B C -0.5781(3) 0.80658(19) -0.1250(3)
C8B C -0.7400(3) 0.8856(2) -0.2053(3)
C9B C -0.2617(3) 0.6537(2) -0.2392(3)
N6B N -0.1727(3) 0.87579(19) -0.5692(3)
N7B N -0.8581(3) 0.93392(19) -0.0997(3)
C10B C -0.6084(3) 0.8161(2) -0.0407(3)
C11B C 1.2163(3) 0.6119(2) 0.6374(3)
N8B N -0.7581(3) 0.8797(2) 0.0266(3)
H2B H -0.7375 0.8671 0.0827
C12B C 1.3027(3) 0.6618(2) 0.6949(3)
C13B C -0.6440(3) 0.84164(19) -0.2078(3)
C14B C -0.7060(4) 0.8609(2) -0.0420(3)
C15B C -0.8010(4) 0.9164(2) -0.2868(3)
H3B H -0.8644 0.9456 -0.2879
C16B C -0.2249(4) 0.8556(2) -0.5004(3)
C17B C -0.3845(4) 0.7738(2) -0.5816(3)
H4B H -0.3624 0.7770 -0.6364
C18B C -0.7659(4) 0.9030(2) -0.3646(3)
H5B H -0.8057 0.9227 -0.4195
C19B C -0.1921(4) 0.9074(2) -0.1822(3)
H6B H -0.1598 0.9307 -0.1282
C20B C -0.5415(4) 0.7813(2) 0.0361(3)
H7B H -0.5592 0.7861 0.0924
C21B C -0.4273(4) 0.7328(2) -0.0591(3)
H8B H -0.3663 0.7036 -0.0648
C22B C -0.1877(3) 0.6044(2) -0.1716(3)
C23B C -0.6694(4) 0.8593(2) -0.3614(3)
H9B H -0.6458 0.8514 -0.4149
C24B C -0.4791(4) 0.7340(2) -0.5751(3)
H10B H -0.5225 0.7104 -0.6257
C25B C 1.2193(4) 0.5948(2) 0.5492(3)
H11B H 1.2786 0.6128 0.5249
C26B C -0.1517(4) 0.9196(2) -0.2586(3)
H12B H -0.0909 0.9508 -0.2568
C27B C -0.2821(4) 0.8595(2) -0.1867(3)
H13B H -0.3070 0.8503 -0.1340
C28B C -0.4501(4) 0.7402(2) 0.0271(3)
H14B H -0.4037 0.7176 0.0773
C29B C -0.5094(4) 0.7293(2) -0.4916(3)
H15B H -0.5742 0.7026 -0.4883
C30B C -0.2300(4) 0.5716(2) -0.1056(3)
H16B H -0.3087 0.5772 -0.1049
C31B C -0.8481(4) 0.9221(2) -0.0122(4)
H17B H -0.8986 0.9413 0.0200
C32B C -0.1579(3) 0.5306(2) -0.0402(3)
H18B H -0.1897 0.5088 0.0030
C33B C -0.0886(4) 0.9223(2) -0.5297(3)
H19B H -0.0400 0.9441 -0.5614
C34B C 1.0460(3) 0.5227(2) 0.5294(3)
C35B C -0.0398(3) 0.5212(2) -0.0372(3)
C36B C 1.1359(4) 0.5515(2) 0.4964(3)
H20B H 1.1402 0.5415 0.4373
C37B C 0.0009(4) 0.5521(3) -0.1063(4)
H21B H 0.0789 0.5453 -0.1084
C38B C 1.1294(4) 0.5820(3) 0.6717(3)
H22B H 1.1267 0.5909 0.7315
C39B C 1.0451(4) 0.5385(3) 0.6182(3)
H23B H 0.9868 0.5196 0.6429
C40B C -0.0717(4) 0.5928(3) -0.1726(4)
H24B H -0.0416 0.6126 -0.2181
O5 O 1.0156(3) 0.95242(18) 0.1417(3)
N9? N 0.567(3) 0.2494(10) 0.1692(14)
loop_
_geom_bond_atom_site_label_1
_geom_bond_atom_site_label_2
_geom_bond_site_symmetry_1
_geom_bond_site_symmetry_2
Zn1 O1 1_555 1_555
O1 C9 1_555 1_555
O2 C12 1_555 1_555
N1 Zn1 1_555 1_555
O3 Zn1 1_555 1_555
N2 Zn1 1_555 1_555
C1 C3 1_555 1_555
N3 Zn1 1_555 1_555
N4 Zn1 1_555 1_555
C2 C4 1_555 1_555
C3 N5 1_555 1_555
C4 N1 1_555 1_555
O4 C9 1_555 1_555
C5 N2 1_555 1_555
C6 C8 1_555 1_555
N5 H1 1_555 1_555
C7 N4 1_555 1_555
C8 C13 1_555 1_555
C9 C22 1_555 1_555
N6 C16 1_555 1_555
N7 C6 1_555 1_555
C10 C7 1_555 1_555
C11 C12 1_555 1_555
N8 H2 1_555 1_555
C12 O3 1_555 1_555
C13 N3 1_555 1_555
C14 C6 1_555 1_555
C15 C8 1_555 1_555
H3 C15 1_555 1_555
C16 C2 1_555 1_555
C17 C2 1_555 1_555
H4 C17 1_555 1_555
C18 C15 1_555 1_555
H5 C18 1_555 1_555
C19 H6 1_555 1_555
C20 C10 1_555 1_555
H7 C20 1_555 1_555
C21 N4 1_555 1_555
H8 C21 1_555 1_555
C22 C30 1_555 1_555
C23 N3 1_555 1_555
H9 C23 1_555 1_555
C24 C17 1_555 1_555
H10 C24 1_555 1_555
C25 C11 1_555 1_555
H11 C25 1_555 1_555
C26 C1 1_555 1_555
H12 C26 1_555 1_555
C27 N2 1_555 1_555
H13 C27 1_555 1_555
C28 C20 1_555 1_555
H14 C28 1_555 1_555
C29 N1 1_555 1_555
H15 C29 1_555 1_555
C30 H16 1_555 1_555
C31 N7 1_555 1_555
H17 C31 1_555 1_555
C32 C30 1_555 1_555
H18 C32 1_555 1_555
C33 N5 1_555 1_555
H19 C33 1_555 1_555
C34 C36 1_555 1_555
C35 C32 1_555 1_555
C36 C25 1_555 1_555
H20 C36 1_555 1_555
C37 C35 1_555 1_555
H21 C37 1_555 1_555
C38 C11 1_555 1_555
H22 C38 1_555 1_555
C39 C34 1_555 1_555
H23 C39 1_555 1_555
C40 C22 1_555 1_555
H24 C40 1_555 1_555
Zn1B O1B 1_555 1_555
Zn1B_2 O3B 1_555 1_555
O1B C9B 1_555 1_555
O2B C12B 1_555 1_555
N1B Zn1B 1_555 1_555
O3B C12B 1_555 1_555
O3B_2 Zn1B 1_555 1_555
N2B Zn1B 1_555 1_555
C1B C3B 1_555 1_555
N3B Zn1B 1_555 1_555
N4B Zn1B 1_555 1_555
C2B C4B 1_555 1_555
C3B N5B 1_555 1_555
C4B N1B 1_555 1_555
O4B C9B 1_555 1_555
C5B N2B 1_555 1_555
C6B C8B 1_555 1_555
N5B H1B 1_555 1_555
C7B N4B 1_555 1_555
C8B C13B 1_555 1_555
C9B C22B 1_555 1_555
N6B C16B 1_555 1_555
N7B C6B 1_555 1_555
C10B C7B 1_555 1_555
C11B C12B 1_555 1_555
N8B H2B 1_555 1_555
C13B N3B 1_555 1_555
C14B C6B 1_555 1_555
C15B C8B 1_555 1_555
H3B C15B 1_555 1_555
C16B C2B 1_555 1_555
C17B C2B 1_555 1_555
H4B C17B 1_555 1_555
C18B C15B 1_555 1_555
H5B C18B 1_555 1_555
C19B H6B 1_555 1_555
C20B C10B 1_555 1_555
H7B C20B 1_555 1_555
C21B N4B 1_555 1_555
H8B C21B 1_555 1_555
C22B C30B 1_555 1_555
C23B N3B 1_555 1_555
H9B C23B 1_555 1_555
C24B C17B 1_555 1_555
H10B C24B 1_555 1_555
C25B C11B 1_555 1_555
H11B C25B 1_555 1_555
C26B C1B 1_555 1_555
H12B C26B 1_555 1_555
C27B N2B 1_555 1_555
H13B C27B 1_555 1_555
C28B C20B 1_555 1_555
H14B C28B 1_555 1_555
C29B N1B 1_555 1_555
H15B C29B 1_555 1_555
C30B H16B 1_555 1_555
C31B N7B 1_555 1_555
H17B C31B 1_555 1_555
C32B C30B 1_555 1_555
H18B C32B 1_555 1_555
C33B N5B 1_555 1_555
H19B C33B 1_555 1_555
C34B C34 1_555 1_555
C35B C35 1_555 1_555
C36B C25B 1_555 1_555
H20B C36B 1_555 1_555
C37B C35B 1_555 1_555
H21B C37B 1_555 1_555
C38B C11B 1_555 1_555
H22B C38B 1_555 1_555
C39B C34B 1_555 1_555
H23B C39B 1_555 1_555
C40B C22B 1_555 1_555
H24B C40B 1_555 1_555
C1 C5 1_555 1_555
C3 C16 1_555 1_555
C4 C5 1_555 1_555
C7 C13 1_555 1_555
N6 C33 1_555 1_555
C10 C14 1_555 1_555
N8 C14 1_555 1_555
N8 C31 1_555 1_555
C18 C23 1_555 1_555
C19 C26 1_555 1_555
C19 C27 1_555 1_555
C21 C28 1_555 1_555
C24 C29 1_555 1_555
C37 C40 1_555 1_555
C38 C39 1_555 1_555
C1B C5B 1_555 1_555
C3B C16B 1_555 1_555
C4B C5B 1_555 1_555
C7B C13B 1_555 1_555
N6B C33B 1_555 1_555
C10B C14B 1_555 1_555
N8B C14B 1_555 1_555
N8B C31B 1_555 1_555
C18B C23B 1_555 1_555
C19B C26B 1_555 1_555
C19B C27B 1_555 1_555
C21B C28B 1_555 1_555
C24B C29B 1_555 1_555
C32B C35B 1_555 1_555
C34B C36B 1_555 1_555
C37B C40B 1_555 1_555
C38B C39B 1_555 1_555

#END
