
#######################################################################
#
#                 Cambridge Crystallographic Data Centre
#                                CCDC 
#
#######################################################################
#
# If this CIF has been generated from an entry in the Cambridge 
# Structural Database, then it will include bibliographic, chemical, 
# crystal, experimental, refinement or atomic coordinate data resulting 
# from the CCDC's data processing and validation procedures.
#
#######################################################################

data_TEFMUM
_symmetry_cell_setting           orthorhombic
_symmetry_space_group_name_H-M   'P b c n'
_symmetry_Int_Tables_number      60
_space_group_name_Hall           '-P 2n 2ab'
loop_
_symmetry_equiv_pos_site_id
_symmetry_equiv_pos_as_xyz
1 x,y,z
2 1/2-x,1/2-y,1/2+z
3 1/2+x,1/2-y,-z
4 -x,y,1/2-z
5 -x,-y,-z
6 1/2+x,1/2+y,1/2-z
7 1/2-x,1/2+y,z
8 x,-y,1/2+z
_cell_length_a                   16.710(1)
_cell_length_b                   21.454(2)
_cell_length_c                   16.410(2)
_cell_angle_alpha                90
_cell_angle_beta                 90
_cell_angle_gamma                90
_cell_volume                     5882.92
loop_
_atom_site_label
_atom_site_type_symbol
_atom_site_fract_x
_atom_site_fract_y
_atom_site_fract_z
Rh1 Rh 0.0125(2) 0.4452(1) 0.0033(1)
Rh2 Rh 0.0172(2) 0.0530(1) 0.0098(1)
O1 O -0.038(2) 0.444(1) 0.114(1)
O2 O 0.122(1) 0.467(1) 0.053(1)
O3 O -0.068(2) 0.547(1) 0.108(1)
O4 O 0.093(1) 0.569(1) 0.047(1)
O5 O 0.066(1) 0.031(1) 0.118(1)
O6 O -0.094(1) 0.064(1) 0.064(1)
O7 O 0.038(1) -0.072(1) 0.101(1)
O8 O -0.121(1) -0.036(1) 0.050(1)
N1 N 0.041(2) 0.344(1) 0.017(1)
N2 N 0.053(2) 0.149(2) 0.034(2)
N3 N 0.228(2) 0.353(2) 0.200(2)
N4 N 0.240(2) 0.163(2) 0.213(2)
C1 C 0.074(3) 0.310(2) 0.051(2)
C2 C 0.079(2) 0.194(2) 0.054(2)
C3 C 0.109(2) 0.251(2) 0.081(2)
C4 C 0.170(2) 0.253(2) 0.139(2)
C5 C 0.199(3) 0.316(2) 0.163(2)
C6 C 0.204(3) 0.196(2) 0.180(2)
C7 C -0.064(2) 0.493(2) 0.141(2)
C8 C 0.139(2) 0.523(2) 0.062(2)
C9 C -0.100(2) 0.494(2) 0.228(2)
C10 C 0.225(2) 0.533(2) 0.097(2)
C11 C 0.066(2) -0.027(2) 0.137(2)
C12 C -0.131(2) 0.017(2) 0.074(2)
C13 C 0.105(3) -0.047(2) 0.219(2)
C14 C -0.213(2) 0.031(2) 0.114(2)
Rh1D Rh -0.0125(2) 0.5548(1) -0.0033(1)
O3D O 0.068(2) 0.453(1) -0.108(1)
O4D O -0.093(1) 0.431(1) -0.047(1)
Rh2D Rh -0.0172(2) -0.0530(1) -0.0098(1)
O7D O -0.038(1) 0.072(1) -0.101(1)
O8D O 0.121(1) 0.036(1) -0.050(1)
C15 C 0.671(4) 0.196(3) 0.504(3)
C16 C 0.671(3) 0.267(3) 0.489(3)
C17 C 0.711(3) 0.309(2) 0.522(3)
C18 C 0.780(3) 0.292(3) 0.580(3)
C19 C 0.781(3) 0.236(3) 0.601(3)
C20 C 0.731(4) 0.184(3) 0.557(3)
loop_
_geom_bond_atom_site_label_1
_geom_bond_atom_site_label_2
_geom_bond_site_symmetry_1
_geom_bond_site_symmetry_2
Rh1 O1 1_555 1_555
Rh2 O5 1_555 1_555
O1 C7 1_555 1_555
O2 Rh1 1_555 1_555
O3 C7 1_555 1_555
O4 C8 1_555 1_555
O5 C11 1_555 1_555
O6 Rh2 1_555 1_555
O7 C11 1_555 1_555
O8 C12 1_555 1_555
N1 Rh1 1_555 1_555
N2 Rh2 1_555 1_555
N3 C5 1_555 1_555
N4 C6 1_555 1_555
C1 N1 1_555 1_555
C2 N2 1_555 1_555
C3 C1 1_555 1_555
C4 C3 1_555 1_555
C5 C4 1_555 1_555
C6 C4 1_555 1_555
C7 C9 1_555 1_555
C8 O2 1_555 1_555
C10 C8 1_555 1_555
C11 C13 1_555 1_555
C12 O6 1_555 1_555
C14 C12 1_555 1_555
C15 C16 1_555 1_555
C16 C17 1_555 1_555
C17 C18 1_555 1_555
C18 C19 1_555 1_555
C19 C20 1_555 1_555
C20 C15 1_555 1_555
Rh1D Rh1 1_555 1_555
O3D Rh1 1_555 1_555
O4D Rh1 1_555 1_555
Rh2D Rh2 1_555 1_555
O7D Rh2 1_555 1_555
O8D Rh2 1_555 1_555
O3 Rh1D 1_555 1_555
O4 Rh1D 1_555 1_555
O7 Rh2D 1_555 1_555
O8 Rh2D 1_555 1_555
C2 C3 1_555 1_555

#END
