
#######################################################################
#
#                 Cambridge Crystallographic Data Centre
#                                CCDC 
#
#######################################################################
#
# If this CIF has been generated from an entry in the Cambridge 
# Structural Database, then it will include bibliographic, chemical, 
# crystal, experimental, refinement or atomic coordinate data resulting 
# from the CCDC's data processing and validation procedures.
#
#######################################################################

data_TEFNAT
_symmetry_cell_setting           monoclinic
_symmetry_space_group_name_H-M   'P 21/c'
_symmetry_Int_Tables_number      14
_space_group_name_Hall           '-P 2ybc'
loop_
_symmetry_equiv_pos_site_id
_symmetry_equiv_pos_as_xyz
1 x,y,z
2 -x,1/2+y,1/2-z
3 -x,-y,-z
4 x,1/2-y,1/2+z
_cell_length_a                   11.406(1)
_cell_length_b                   21.615(4)
_cell_length_c                   12.886(1)
_cell_angle_alpha                90
_cell_angle_beta                 95.521(7)
_cell_angle_gamma                90
_cell_volume                     3162.19
loop_
_atom_site_label
_atom_site_type_symbol
_atom_site_fract_x
_atom_site_fract_y
_atom_site_fract_z
Rh1 Rh 0.98083(5) 0.05326(3) 0.01275(5)
Rh2 Rh 0.52564(5) 0.44681(3) 0.00497(5)
O1 O 1.0422(5) 0.0427(3) 0.1643(5)
O2 O 0.8195(5) 0.0276(3) 0.0504(5)
O3 O 1.0786(5) -0.0580(2) 0.1407(5)
O4 O 0.8555(5) -0.0724(3) 0.0276(5)
O5 O 0.6868(5) 0.4721(3) -0.0336(4)
O6 O 0.5772(5) 0.4606(3) 0.1595(5)
O7 O 0.6374(5) 0.5721(3) -0.0444(5)
O8 O 0.5284(5) 0.5608(3) 0.1485(5)
N1 N 0.9320(6) 0.1501(3) 0.0314(5)
N2 N 0.5790(6) 0.3499(3) 0.0106(6)
N3 N 0.9277(8) 0.3506(4) 0.0333(7)
N4 N 0.5760(8) 0.1455(4) 0.0120(7)
C1 C 0.8788(7) 0.1932(3) 0.0300(6)
C2 C 0.6258(8) 0.3043(4) 0.0146(6)
C3 C 0.8104(7) 0.2494(3) 0.0259(6)
C4 C 0.6920(8) 0.2482(3) 0.0173(6)
C5 C 0.8748(7) 0.3062(4) 0.0291(7)
C6 C 0.6270(8) 0.1903(4) 0.0141(7)
C7 C 1.1185(9) -0.0166(5) 0.3099(7)
C8 C 1.0760(6) -0.0106(4) 0.1964(7)
C9 C 0.7928(7) -0.0281(4) 0.0529(7)
C10 C 0.6738(9) -0.0436(5) 0.0893(9)
C11 C 0.7094(7) 0.528(4) -0.0528(6)
C12 C 0.5675(6) 0.5136(4) 0.1975(7)
C13 C 0.8283(8) 0.5426(5) -0.0862(9)
C14 C 0.6079(9) 0.5214(6) 0.3112(7)
Rh1B Rh 1.01917(5) -0.05326(3) -0.01275(5)
O3B O 0.9214(5) 0.0580(2) -0.1407(5)
O4B O 1.1445(5) 0.0724(3) -0.0276(5)
Rh2B Rh 0.47436(5) 0.55319(3) -0.00497(5)
O7B O 0.3626(5) 0.4279(3) 0.0444(5)
O8B O 0.4716(5) 0.4392(3) -0.1485(5)
C15 C 0.7545(9) 0.1889(4) 0.2741(6)
C16 C 0.8480(8) 0.2318(5) 0.2803(7)
C17 C 0.8230(8) 0.2949(4) 0.2786(6)
C18 C 0.709(1) 0.3152(4) 0.2675(8)
C19 C 0.6159(9) 0.2750(5) 0.2623(7)
C20 C 0.6383(9) 0.2104(5) 0.2644(7)
C21 C 0.784(1) 0.1196(5) 0.2736(9)
C22 C 0.486(1) 0.2980(7) 0.251(1)
C23 C 0.161(1) 0.2057(6) 0.799(1)
C24 C 0.157(1) 0.2471(7) 0.712(1)
C25 C 0.189(1) 0.3067(7) 0.733(1)
C26 C 0.232(1) 0.3244(6) 0.832(1)
C27 C 0.242(2) 0.2861(7) 0.913(1)
C28 C 0.202(1) 0.2252(6) 0.897(1)
loop_
_geom_bond_atom_site_label_1
_geom_bond_atom_site_label_2
_geom_bond_site_symmetry_1
_geom_bond_site_symmetry_2
Rh1 O1 1_555 1_555
Rh2 O5 1_555 1_555
O1 C8 1_555 1_555
O2 Rh1 1_555 1_555
O3 C8 1_555 1_555
O4 C9 1_555 1_555
O5 C11 1_555 1_555
O6 Rh2 1_555 1_555
O7 C11 1_555 1_555
O8 C12 1_555 1_555
N1 Rh1 1_555 1_555
N2 Rh2 1_555 1_555
N3 C5 1_555 1_555
N4 C6 1_555 1_555
C1 N1 1_555 1_555
C2 N2 1_555 1_555
C3 C1 1_555 1_555
C4 C2 1_555 1_555
C5 C3 1_555 1_555
C6 C4 1_555 1_555
C7 C8 1_555 1_555
C9 O2 1_555 1_555
C10 C9 1_555 1_555
C11 C13 1_555 1_555
C12 O6 1_555 1_555
C14 C12 1_555 1_555
C15 C16 1_555 1_555
C16 C17 1_555 1_555
C17 C18 1_555 1_555
C18 C19 1_555 1_555
C19 C20 1_555 1_555
C20 C15 1_555 1_555
C21 C15 1_555 1_555
C22 C19 1_555 1_555
C23 C24 1_555 1_555
C24 C25 1_555 1_555
C25 C26 1_555 1_555
C26 C27 1_555 1_555
C27 C28 1_555 1_555
C28 C23 1_555 1_555
Rh1B Rh1 1_555 1_555
O3B Rh1 1_555 1_555
O4B Rh1 1_555 1_555
Rh2B Rh2 1_555 1_555
O7B Rh2 1_555 1_555
O8B Rh2 1_555 1_555
O3 Rh1B 1_555 1_555
O4 Rh1B 1_555 1_555
O7 Rh2B 1_555 1_555
O8 Rh2B 1_555 1_555
C3 C4 1_555 1_555

#END
