
#######################################################################
#
#                 Cambridge Crystallographic Data Centre
#                                CCDC 
#
#######################################################################
#
# If this CIF has been generated from an entry in the Cambridge 
# Structural Database, then it will include bibliographic, chemical, 
# crystal, experimental, refinement or atomic coordinate data resulting 
# from the CCDC's data processing and validation procedures.
#
#######################################################################

data_TEFQOM
_symmetry_cell_setting           monoclinic
_symmetry_space_group_name_H-M   'P 21/c'
_symmetry_Int_Tables_number      14
_space_group_name_Hall           '-P 2ybc'
loop_
_symmetry_equiv_pos_site_id
_symmetry_equiv_pos_as_xyz
1 x,y,z
2 -x,1/2+y,1/2-z
3 -x,-y,-z
4 x,1/2-y,1/2+z
_cell_length_a                   6.2490(16)
_cell_length_b                   17.934(5)
_cell_length_c                   7.1757(19)
_cell_angle_alpha                90
_cell_angle_beta                 93.599(4)
_cell_angle_gamma                90
_cell_volume                     802.592
loop_
_atom_site_label
_atom_site_type_symbol
_atom_site_fract_x
_atom_site_fract_y
_atom_site_fract_z
U1 U 0.0000 0.5000 0.5000
O1 O -0.3246(6) 0.43714(19) 0.3700(5)
O2 O -0.9858(6) 0.13827(17) 0.0028(6)
O3 O -0.6788(5) 0.08368(18) 0.0597(5)
O4 O 0.0783(5) 0.5081(2) 0.2696(4)
C1 C -0.5016(7) 0.3572(3) 0.1354(6)
C2 C -0.6844(7) 0.2176(2) 0.0702(6)
C3 C -0.4731(7) 0.2235(3) 0.1421(6)
H1 H -0.3922 0.1808 0.1673
C4 C -0.7119(8) 0.3513(3) 0.0610(6)
H2 H -0.7918 0.3940 0.0333
C5 C -0.7876(7) 0.1435(3) 0.0426(6)
C6 C -0.3837(7) 0.2930(3) 0.1759(6)
H3 H -0.2433 0.2968 0.2262
C7 C -0.8019(7) 0.2817(3) 0.0282(6)
H4 H -0.9422 0.2779 -0.0223
C8 C -0.4049(9) 0.4327(3) 0.1801(7)
H5 H -0.2890 0.4419 0.0993
H6 H -0.5128 0.4709 0.1558
H7 H -0.420(11) 0.436(4) 0.429(10)
U1A U -1.0000 0.0000 0.0000
U1A_2 U -1.0000 1.0000 0.0000
O1A O -0.6754(6) 0.93714(19) 0.1300(5)
O1B O 0.3246(6) 0.56286(19) 0.6300(5)
O2A O -0.0142(6) 0.63827(17) 0.4972(6)
O2C O 0.0142(6) 0.36173(17) 0.5028(6)
O3A O -0.3212(5) 0.58368(18) 0.4403(5)
O3C O 0.3212(5) 0.41632(18) 0.5597(5)
O4B O -0.0783(5) 0.4919(2) 0.7304(4)
C1A C -0.4984(7) 0.8572(3) 0.3646(6)
C2A C -0.3156(7) 0.7176(2) 0.4298(6)
C3A C -0.5269(7) 0.7235(3) 0.3579(6)
H1A H -0.6078 0.6808 0.3327
C4A C -0.2881(8) 0.8513(3) 0.4390(6)
H2A H -0.2082 0.8940 0.4667
C5A C -0.2124(7) 0.6435(3) 0.4574(6)
C6A C -0.6163(7) 0.7930(3) 0.3241(6)
H3A H -0.7567 0.7968 0.2738
C7A C -0.1981(7) 0.7817(3) 0.4718(6)
H4A H -0.0578 0.7779 0.5223
C8A C -0.5951(9) 0.9327(3) 0.3199(7)
H5A H -0.7110 0.9419 0.4007
H6A H -0.4872 0.9709 0.3442
H7A H -0.580(11) 0.936(4) 0.071(10)
H7B H 0.420(11) 0.564(4) 0.571(10)
loop_
_geom_bond_atom_site_label_1
_geom_bond_atom_site_label_2
_geom_bond_site_symmetry_1
_geom_bond_site_symmetry_2
U1 O1 1_555 1_555
O1 C8 1_555 1_555
O2 C5 1_555 1_555
O3 C5 1_555 1_555
O4 U1 1_555 1_555
C1 C4 1_555 1_555
C2 C3 1_555 1_555
C3 H1 1_555 1_555
C4 H2 1_555 1_555
C5 C2 1_555 1_555
C6 C1 1_555 1_555
H3 C6 1_555 1_555
C7 C2 1_555 1_555
H4 C7 1_555 1_555
C8 C1 1_555 1_555
H5 C8 1_555 1_555
H6 C8 1_555 1_555
H7 O1 1_555 1_555
U1A O2 1_555 1_555
U1A_2 O1A 1_555 1_555
O1A C8A 1_555 1_555
O1B U1 1_555 1_555
O2A U1 1_555 1_555
O2C U1 1_555 1_555
O3A U1 1_555 1_555
O3C U1 1_555 1_555
O4B U1 1_555 1_555
C1A C4A 1_555 1_555
C2A C3A 1_555 1_555
C3A H1A 1_555 1_555
C4A H2A 1_555 1_555
C5A O2A 1_555 1_555
C6A C1A 1_555 1_555
H3A C6A 1_555 1_555
C7A C2A 1_555 1_555
H4A C7A 1_555 1_555
C8A C1A 1_555 1_555
H5A C8A 1_555 1_555
H6A C8A 1_555 1_555
H7A O1A 1_555 1_555
H7B O1B 1_555 1_555
O3 U1A 1_555 1_555
C3 C6 1_555 1_555
C4 C7 1_555 1_555
O3A C5A 1_555 1_555
C2A C5A 1_555 1_555
C3A C6A 1_555 1_555
C4A C7A 1_555 1_555

#END
