
#######################################################################
#
#                 Cambridge Crystallographic Data Centre
#                                CCDC 
#
#######################################################################
#
# If this CIF has been generated from an entry in the Cambridge 
# Structural Database, then it will include bibliographic, chemical, 
# crystal, experimental, refinement or atomic coordinate data resulting 
# from the CCDC's data processing and validation procedures.
#
#######################################################################

data_TEFTUU
_symmetry_cell_setting           triclinic
_symmetry_space_group_name_H-M   'P -1'
_symmetry_Int_Tables_number      2
_space_group_name_Hall           '-P 1'
loop_
_symmetry_equiv_pos_site_id
_symmetry_equiv_pos_as_xyz
1 x,y,z
2 -x,-y,-z
_cell_length_a                   6.961(3)
_cell_length_b                   8.185(4)
_cell_length_c                   10.819(5)
_cell_angle_alpha                80.387(9)
_cell_angle_beta                 84.857(9)
_cell_angle_gamma                89.862(3)
_cell_volume                     605.269
loop_
_atom_site_label
_atom_site_type_symbol
_atom_site_fract_x
_atom_site_fract_y
_atom_site_fract_z
Ag1 Ag 1.00558(6) 0.01883(4) 0.36359(4)
K1 K 0.71448(17) 0.47495(13) 0.07218(10)
S1 S 0.59681(17) -0.83934(14) 0.82450(11)
O1 O 0.3667(6) 0.3030(4) 0.1472(3)
H1 H 0.351(11) 0.197(4) 0.123(7)
H2 H 0.328(10) 0.268(8) 0.2345(19)
O2 O 0.9288(5) 0.7753(5) 0.0711(4)
H3 H 0.816(5) 0.834(6) 0.095(5)
H4 H 1.012(8) 0.828(8) 0.119(6)
O3 O 0.8685(5) 0.1671(4) 0.1708(3)
H5 H 0.953(7) 0.160(7) 0.096(3)
O4 O 0.7828(5) -0.4826(4) 0.3065(3)
O5 O 0.8766(5) -0.2323(4) 0.4028(3)
O6 O 0.8292(5) -0.2404(4) 0.6120(3)
O7 O 0.7599(5) -0.9505(4) 0.8457(3)
O8 O 0.5852(5) -0.7147(4) 0.9052(3)
O9 O 0.4157(5) -0.9305(5) 0.8294(3)
C1 C 0.6435(7) -0.7316(6) 0.6687(4)
C2 C 0.7132(7) -0.5710(6) 0.6512(4)
H6 H 0.7298 -0.5215 0.7210
C3 C 0.7593(7) -0.4816(6) 0.5307(5)
C4 C 0.7371(7) -0.5611(6) 0.4270(5)
C5 C 0.6652(7) -0.7223(6) 0.4450(5)
H7 H 0.6498 -0.7727 0.3755
C6 C 0.6165(6) -0.8083(5) 0.5639(4)
H8 H 0.5666 -0.9155 0.5752
C7 C 0.8253(7) -0.3058(6) 0.5142(4)
H9 H 0.822(7) -0.386(7) 0.312(5)
H10 H 0.774(7) 0.097(7) 0.146(6)
Ag1A Ag 0.99442(6) -0.01883(4) 0.63641(4)
K1A K 0.28552(17) 0.52505(13) -0.07218(10)
K1_2 K 0.71448(17) -0.52505(13) 0.07218(10)
K1_3 K 0.71448(17) -0.52505(13) 1.07218(10)
K1A_2 K 0.28552(17) -0.47495(13) 0.92782(10)
O1A O 0.6333(6) 0.6970(4) -0.1472(3)
H1A H 0.649(11) 0.803(4) -0.123(7)
H2A H 0.672(10) 0.732(8) -0.2345(19)
O4_2 O 0.7828(5) 0.5174(4) 0.3065(3)
O6A O 1.1708(5) 0.2404(4) 0.3880(3)
O8_2 O 0.5852(5) 0.2853(4) -0.0948(3)
O8A O 0.4148(5) 0.7147(4) 0.0948(3)
H9_2 H 0.822(7) 0.614(7) 0.312(5)
loop_
_geom_bond_atom_site_label_1
_geom_bond_atom_site_label_2
_geom_bond_site_symmetry_1
_geom_bond_site_symmetry_2
Ag1 O3 1_555 1_555
K1 O1 1_555 1_555
S1 O7 1_555 1_555
O1 H1 1_555 1_555
H2 O1 1_555 1_555
O2 K1 1_555 1_555
H3 O2 1_555 1_555
H4 O2 1_555 1_555
O3 K1 1_555 1_555
H5 O3 1_555 1_555
O4 C4 1_555 1_555
O5 Ag1 1_555 1_555
O6 C7 1_555 1_555
O8 S1 1_555 1_555
O9 S1 1_555 1_555
C1 S1 1_555 1_555
C2 C1 1_555 1_555
H6 C2 1_555 1_555
C3 C2 1_555 1_555
C4 C3 1_555 1_555
C5 C4 1_555 1_555
H7 C5 1_555 1_555
C6 C1 1_555 1_555
H8 C6 1_555 1_555
C7 O5 1_555 1_555
H9 O4 1_555 1_555
H10 O3 1_555 1_555
Ag1A O6 1_555 1_555
K1A O1 1_555 1_555
K1_2 O4 1_555 1_555
K1_3 O8 1_555 1_555
K1A_2 O8 1_555 1_555
O1A K1 1_555 1_555
H1A O1A 1_555 1_555
H2A O1A 1_555 1_555
O4_2 K1 1_555 1_555
O6A Ag1 1_555 1_555
O8_2 K1 1_555 1_555
O8A K1 1_555 1_555
H9_2 O4_2 1_555 1_555
C3 C7 1_555 1_555
C5 C6 1_555 1_555
K1A O1A 1_555 1_555
K1A O8_2 1_555 1_555
K1A O8A 1_555 1_555

#END
