
#######################################################################
#
#                 Cambridge Crystallographic Data Centre
#                                CCDC 
#
#######################################################################
#
# If this CIF has been generated from an entry in the Cambridge 
# Structural Database, then it will include bibliographic, chemical, 
# crystal, experimental, refinement or atomic coordinate data resulting 
# from the CCDC's data processing and validation procedures.
#
#######################################################################

data_TEFVAC
_symmetry_cell_setting           triclinic
_symmetry_space_group_name_H-M   'P -1'
_symmetry_Int_Tables_number      2
_space_group_name_Hall           '-P 1'
loop_
_symmetry_equiv_pos_site_id
_symmetry_equiv_pos_as_xyz
1 x,y,z
2 -x,-y,-z
_cell_length_a                   7.2246(9)
_cell_length_b                   7.6802(10)
_cell_length_c                   11.1045(8)
_cell_angle_alpha                76.021(4)
_cell_angle_beta                 81.147(3)
_cell_angle_gamma                87.040(2)
_cell_volume                     590.71
loop_
_atom_site_label
_atom_site_type_symbol
_atom_site_fract_x
_atom_site_fract_y
_atom_site_fract_z
Ag1 Ag 0.52573(5) 0.56707(4) 0.86536(3)
Na1 Na 0.75314(19) 0.52345(18) 0.48727(14)
S1 S 0.82209(12) 1.19731(12) 1.32667(9)
O1 O 0.6717(5) 0.6986(4) 0.6473(3)
H1 H 0.768(8) 0.745(7) 0.651(5)
H2 H 0.593(10) 0.765(9) 0.612(6)
O2 O 1.0180(4) 0.7124(4) 0.4167(3)
H3 H 1.064(7) 0.749(6) 0.349(5)
H4 H 1.013(10) 0.797(9) 0.451(7)
O3 O 0.4891(4) 0.6848(4) 0.3964(3)
H5 H 0.460(6) 0.767(6) 0.411(4)
H6 H 0.518(8) 0.722(7) 0.313(6)
O4 O 0.7883(4) 1.0962(3) 0.8192(2)
H7 H 0.7538 0.9950 0.8223
O5 O 0.6764(4) 0.7770(3) 0.9221(2)
O6 O 0.5982(4) 0.6920(3) 1.1310(2)
O7 O 0.6654(4) 1.1009(4) 1.4105(3)
O8 O 0.8118(5) 1.3889(3) 1.3151(3)
O9 O 1.0011(4) 1.1189(4) 1.3580(3)
C1 C 0.8044(5) 1.1673(5) 1.1752(3)
C2 C 0.8558(5) 1.3073(4) 1.0680(3)
H8 H 0.8935 1.4172 1.0764
C3 C 0.8492(5) 1.2785(5) 0.9504(4)
H9 H 0.8843 1.3697 0.8796
C4 C 0.7907(5) 1.1151(4) 0.9362(3)
C5 C 0.7368(5) 0.9757(4) 1.0436(3)
C6 C 0.7472(5) 1.0051(5) 1.1614(3)
H10 H 0.7149 0.9133 1.2324
C7 C 0.6647(5) 0.8023(4) 1.0317(3)
Ag1A Ag 0.47427(5) 0.43293(4) 1.13464(3)
Na1A Na 1.24686(19) 0.47655(18) 0.51273(14)
Na1A_2 Na 0.24686(19) 0.47655(18) 0.51273(14)
Na1_2 Na 0.75314(19) 1.52345(18) 1.48727(14)
O2A O 0.9820(4) 0.2876(4) 0.5833(3)
H3A H 0.936(7) 0.251(6) 0.651(5)
H4A H 0.987(10) 0.203(9) 0.549(7)
O3A O 0.5109(4) 0.3152(4) 0.6036(3)
H5A H 0.540(6) 0.233(6) 0.589(4)
H6A H 0.482(8) 0.278(7) 0.687(6)
O6A O 0.4018(4) 0.3080(3) 0.8690(2)
O8_2 O 0.8118(5) 0.3889(3) 0.3151(3)
loop_
_geom_bond_atom_site_label_1
_geom_bond_atom_site_label_2
_geom_bond_site_symmetry_1
_geom_bond_site_symmetry_2
Ag1 O1 1_555 1_555
Na1 O1 1_555 1_555
S1 O7 1_555 1_555
O1 H1 1_555 1_555
H2 O1 1_555 1_555
O2 Na1 1_555 1_555
H3 O2 1_555 1_555
H4 O2 1_555 1_555
O3 Na1 1_555 1_555
H5 O3 1_555 1_555
H6 O3 1_555 1_555
O4 H7 1_555 1_555
O5 Ag1 1_555 1_555
O6 C7 1_555 1_555
O8 S1 1_555 1_555
O9 S1 1_555 1_555
C1 S1 1_555 1_555
C2 C1 1_555 1_555
H8 C2 1_555 1_555
C3 C2 1_555 1_555
H9 C3 1_555 1_555
C4 O4 1_555 1_555
C5 C4 1_555 1_555
C6 C1 1_555 1_555
H10 C6 1_555 1_555
C7 O5 1_555 1_555
Ag1A O6 1_555 1_555
Na1A O2 1_555 1_555
Na1A_2 O3 1_555 1_555
Na1_2 O8 1_555 1_555
O2A Na1 1_555 1_555
H3A O2A 1_555 1_555
H4A O2A 1_555 1_555
O3A Na1 1_555 1_555
H5A O3A 1_555 1_555
H6A O3A 1_555 1_555
O6A Ag1 1_555 1_555
O8_2 Na1 1_555 1_555
C3 C4 1_555 1_555
C5 C6 1_555 1_555
C5 C7 1_555 1_555
Na1A O2A 1_555 1_555
Na1A_2 O3A 1_555 1_555

#END
