
#######################################################################
#
#                 Cambridge Crystallographic Data Centre
#                                CCDC 
#
#######################################################################
#
# If this CIF has been generated from an entry in the Cambridge 
# Structural Database, then it will include bibliographic, chemical, 
# crystal, experimental, refinement or atomic coordinate data resulting 
# from the CCDC's data processing and validation procedures.
#
#######################################################################

data_TEFWIL
_symmetry_cell_setting           cubic
_symmetry_space_group_name_H-M   'I m -3 m'
_symmetry_Int_Tables_number      229
_space_group_name_Hall           '-I 4 2 3'
loop_
_symmetry_equiv_pos_site_id
_symmetry_equiv_pos_as_xyz
1 x,y,z
2 z,x,y
3 y,z,x
4 y,x,-z
5 y,-x,z
6 -y,x,z
7 x,z,-y
8 -x,z,y
9 x,-z,y
10 z,y,-x
11 z,-y,x
12 -z,y,x
13 1/2+x,1/2+y,1/2+z
14 1/2+z,1/2+x,1/2+y
15 1/2+y,1/2+z,1/2+x
16 1/2+y,1/2+x,1/2-z
17 1/2+y,1/2-x,1/2+z
18 1/2-y,1/2+x,1/2+z
19 1/2+x,1/2+z,1/2-y
20 1/2-x,1/2+z,1/2+y
21 1/2+x,1/2-z,1/2+y
22 1/2+z,1/2+y,1/2-x
23 1/2+z,1/2-y,1/2+x
24 1/2-z,1/2+y,1/2+x
25 -x,-y,z
26 -x,y,-z
27 x,-y,-z
28 z,-x,-y
29 -z,-x,y
30 -z,x,-y
31 -y,z,-x
32 y,-z,-x
33 -y,-z,x
34 -y,-x,-z
35 -x,-z,-y
36 -z,-y,-x
37 1/2-x,1/2-y,1/2+z
38 1/2-x,1/2+y,1/2-z
39 1/2+x,1/2-y,1/2-z
40 1/2+z,1/2-x,1/2-y
41 1/2-z,1/2-x,1/2+y
42 1/2-z,1/2+x,1/2-y
43 1/2-y,1/2+z,1/2-x
44 1/2+y,1/2-z,1/2-x
45 1/2-y,1/2-z,1/2+x
46 1/2-y,1/2-x,1/2-z
47 1/2-x,1/2-z,1/2-y
48 1/2-z,1/2-y,1/2-x
49 -x,-y,-z
50 -z,-x,-y
51 -y,-z,-x
52 -y,-x,z
53 -y,x,-z
54 y,-x,-z
55 -x,-z,y
56 x,-z,-y
57 -x,z,-y
58 -z,-y,x
59 -z,y,-x
60 z,-y,-x
61 1/2-x,1/2-y,1/2-z
62 1/2-z,1/2-x,1/2-y
63 1/2-y,1/2-z,1/2-x
64 1/2-y,1/2-x,1/2+z
65 1/2-y,1/2+x,1/2-z
66 1/2+y,1/2-x,1/2-z
67 1/2-x,1/2-z,1/2+y
68 1/2+x,1/2-z,1/2-y
69 1/2-x,1/2+z,1/2-y
70 1/2-z,1/2-y,1/2+x
71 1/2-z,1/2+y,1/2-x
72 1/2+z,1/2-y,1/2-x
73 x,y,-z
74 x,-y,z
75 -x,y,z
76 -z,x,y
77 z,x,-y
78 z,-x,y
79 y,-z,x
80 -y,z,x
81 y,z,-x
82 y,x,z
83 x,z,y
84 z,y,x
85 1/2+x,1/2+y,1/2-z
86 1/2+x,1/2-y,1/2+z
87 1/2-x,1/2+y,1/2+z
88 1/2-z,1/2+x,1/2+y
89 1/2+z,1/2+x,1/2-y
90 1/2+z,1/2-x,1/2+y
91 1/2+y,1/2-z,1/2+x
92 1/2-y,1/2+z,1/2+x
93 1/2+y,1/2+z,1/2-x
94 1/2+y,1/2+x,1/2+z
95 1/2+x,1/2+z,1/2+y
96 1/2+z,1/2+y,1/2+x
_cell_length_a                   31.0622(7)
_cell_length_b                   31.0622(7)
_cell_length_c                   31.0622(7)
_cell_angle_alpha                90
_cell_angle_beta                 90
_cell_angle_gamma                90
_cell_volume                     29970.7
loop_
_atom_site_label
_atom_site_type_symbol
_atom_site_fract_x
_atom_site_fract_y
_atom_site_fract_z
In1 In 0.10442(2) 0.39558(2) 0.2500
O1 O 0.08179(19) 0.3265(2) 0.2148(2)
O2 O 0.09952(19) 0.2862(2) 0.1573(2)
H1 H 0.1235 0.2842 0.1235
N1 N 0.1540(2) 0.3798(2) 0.2052(2)
C1 C 0.1050(3) 0.3182(3) 0.1861(3)
C2 C 0.1450(3) 0.3461(3) 0.1784(3)
C3 C 0.1888(3) 0.3965(4) 0.1888(3)
H2 H 0.2022 0.4206 0.2022
O3 O 0.0924(2) 0.43085(19) 0.32322(18)
O4 O 0.0400(2) 0.4479(2) 0.36933(18)
H3 H 0.0000 0.4437 0.3736
N2 N 0.0364(2) 0.3946(2) 0.2660(2)
C4 C 0.0552(3) 0.4314(3) 0.3335(3)
C5 C 0.0214(2) 0.4139(2) 0.3031(3)
C6 C 0.0000 0.3843(4) 0.2461(4)
H4 H 0.0000 0.3702 0.2190
In1DC In 0.10442(2) 0.2500 0.39558(2)
In1UB In 0.10442(2) 0.60442(2) 0.2500
In1EC In 0.2500 0.39558(2) 0.10442(2)
In1VB In -0.10442(2) 0.39558(2) 0.2500
O1SA O 0.1735(2) 0.41821(19) 0.2852(2)
O1JB O 0.1735(2) 0.2852(2) 0.41821(19)
O1DC O 0.08179(19) 0.2148(2) 0.3265(2)
O1EC O 0.2148(2) 0.3265(2) 0.08179(19)
O2EC O 0.1573(2) 0.2862(2) 0.09952(19)
O2JB O 0.2138(2) 0.3427(2) 0.40048(19)
O2SA O 0.2138(2) 0.40048(19) 0.3427(2)
H1JB H 0.2158 0.3765 0.3765
N1SA N 0.1202(2) 0.3460(2) 0.2948(2)
N1EC N 0.2052(2) 0.3798(2) 0.1540(2)
N1JB N 0.1202(2) 0.2948(2) 0.3460(2)
N1DC N 0.1540(2) 0.2052(2) 0.3798(2)
C1SA C 0.1818(3) 0.3950(3) 0.3139(3)
C1JB C 0.1818(3) 0.3139(3) 0.3950(3)
C1EC C 0.1861(3) 0.3182(3) 0.1050(3)
C2EC C 0.1784(3) 0.3461(3) 0.1450(3)
C2SA C 0.1539(3) 0.3550(3) 0.3216(3)
C2JB C 0.1539(3) 0.3216(3) 0.3550(3)
C3JB C 0.1035(4) 0.3112(3) 0.3112(3)
H2JB H 0.0794 0.2978 0.2978
O3SA O 0.06915(19) 0.4076(2) 0.17678(18)
O3LB O 0.06915(19) 0.5924(2) 0.17678(18)
O3DC O 0.0924(2) 0.32322(18) 0.43085(19)
O3JB O 0.06915(19) 0.17678(18) 0.4076(2)
O3VB O -0.0924(2) 0.43085(19) 0.32322(18)
O4VB O -0.0400(2) 0.4479(2) 0.36933(18)
O4SA O 0.0521(2) 0.4600(2) 0.13067(18)
O4LB O 0.0521(2) 0.5400(2) 0.13067(18)
H3LB H 0.0563 0.5000 0.1264
N2SA N 0.1054(2) 0.4636(2) 0.2340(2)
N2VB N -0.0364(2) 0.3946(2) 0.2660(2)
N2LB N 0.1054(2) 0.5364(2) 0.2340(2)
N2DC N 0.0364(2) 0.2660(2) 0.3946(2)
N2JB N 0.1054(2) 0.2340(2) 0.4636(2)
C4SA C 0.0686(3) 0.4448(3) 0.1665(3)
C4LB C 0.0686(3) 0.5552(3) 0.1665(3)
C4VB C -0.0552(3) 0.4314(3) 0.3335(3)
C5VB C -0.0214(2) 0.4139(2) 0.3031(3)
C5SA C 0.0861(2) 0.4786(2) 0.1969(3)
C5LB C 0.0861(2) 0.5214(2) 0.1969(3)
C6LB C 0.1157(4) 0.5000 0.2539(4)
H4LB H 0.1298 0.5000 0.2810
O5 O 0.0000 0.5000 0.5000
O6 O 0.1606(6) 0.5000 0.3736(6)
O7 O 0.0000 0.2934(13) 0.0000
O8 O 0.2705(11) 0.3254(15) 0.2705(11)
O9 O 0.0000 0.190(4) 0.190(4)
O10 O 0.205(3) 0.5000 0.418(2)
O11 O 0.0704(14) 0.2060(14) 0.2662(14)
O12 O 0.347(2) 0.347(2) 0.347(2)
O13 O 0.130(2) 0.4326(15) 0.4326(15)
O14 O 0.2123(11) 0.2801(18) 0.2123(11)
O15? O 0.0409(14) 0.2089(9) 0.2089(9)
O16? O 0.2425(9) 0.3202(11) 0.2425(9)
O17? O 0.0000 0.1675(19) 0.2388(17)
O18? O 0.1218(16) 0.5000 0.3970(15)
O19? O 0.1000(19) 0.4485(13) 0.4485(13)
O20? O 0.0000 0.2381(9) 0.2381(9)
O21? O -0.0216(19) 0.534(2) 0.5000
O22? O 0.134(2) 0.458(2) 0.4056(19)
O23? O -0.055(8) 0.5000 0.5000
loop_
_geom_bond_atom_site_label_1
_geom_bond_atom_site_label_2
_geom_bond_site_symmetry_1
_geom_bond_site_symmetry_2
In1 O1 1_555 1_555
O1 C1 1_555 1_555
O2 H1 1_555 1_555
H1 O2EC 1_555 1_555
N1 In1 1_555 1_555
C1 O2 1_555 1_555
C2 N1 1_555 1_555
C3 N1 1_555 1_555
H2 C3 1_555 1_555
O3 In1 1_555 1_555
O4 H3 1_555 1_555
H3 O4VB 1_555 1_555
N2 In1 1_555 1_555
C4 O3 1_555 1_555
C5 N2 1_555 1_555
C6 N2 1_555 1_555
H4 C6 1_555 1_555
In1DC O1JB 1_555 1_555
In1UB O3LB 1_555 1_555
In1EC O1EC 1_555 1_555
In1VB O3VB 1_555 1_555
O1SA In1 1_555 1_555
O1JB C1JB 1_555 1_555
O1DC In1DC 1_555 1_555
O1EC C1EC 1_555 1_555
O2EC C1EC 1_555 1_555
O2JB H1JB 1_555 1_555
O2SA H1JB 1_555 1_555
N1SA In1 1_555 1_555
N1EC C3 1_555 1_555
N1JB In1DC 1_555 1_555
N1DC In1DC 1_555 1_555
C1SA O1SA 1_555 1_555
C1JB O2JB 1_555 1_555
C1EC C2EC 1_555 1_555
C2EC C2 1_555 1_555
C2SA N1SA 1_555 1_555
C2JB N1JB 1_555 1_555
C3JB N1SA 1_555 1_555
H2JB C3JB 1_555 1_555
O3SA In1 1_555 1_555
O3LB C4LB 1_555 1_555
O3DC In1DC 1_555 1_555
O3JB In1DC 1_555 1_555
O3VB C4VB 1_555 1_555
O4VB C4VB 1_555 1_555
O4SA H3LB 1_555 1_555
O4LB H3LB 1_555 1_555
N2SA In1 1_555 1_555
N2VB C6 1_555 1_555
N2LB In1UB 1_555 1_555
N2DC In1DC 1_555 1_555
N2JB In1DC 1_555 1_555
C4SA O3SA 1_555 1_555
C4LB O4LB 1_555 1_555
C4VB C5VB 1_555 1_555
C5VB C5 1_555 1_555
C5SA N2SA 1_555 1_555
C5LB N2LB 1_555 1_555
C6LB N2SA 1_555 1_555
H4LB C6LB 1_555 1_555
C1 C2 1_555 1_555
O4 C4 1_555 1_555
C4 C5 1_555 1_555
In1EC N1EC 1_555 1_555
In1VB N2VB 1_555 1_555
O2SA C1SA 1_555 1_555
N1EC C2EC 1_555 1_555
N1JB C3JB 1_555 1_555
C1SA C2SA 1_555 1_555
C1JB C2JB 1_555 1_555
C2SA C2JB 1_555 1_555
O4SA C4SA 1_555 1_555
N2VB C5VB 1_555 1_555
N2LB C6LB 1_555 1_555
C4SA C5SA 1_555 1_555
C4LB C5LB 1_555 1_555
C5SA C5LB 1_555 1_555

#END
