
#######################################################################
#
#                 Cambridge Crystallographic Data Centre
#                                CCDC 
#
#######################################################################
#
# If this CIF has been generated from an entry in the Cambridge 
# Structural Database, then it will include bibliographic, chemical, 
# crystal, experimental, refinement or atomic coordinate data resulting 
# from the CCDC's data processing and validation procedures.
#
#######################################################################

data_TEGLUM
_symmetry_cell_setting           monoclinic
_symmetry_space_group_name_H-M   'P 21'
_symmetry_Int_Tables_number      4
_space_group_name_Hall           'P 2yb'
loop_
_symmetry_equiv_pos_site_id
_symmetry_equiv_pos_as_xyz
1 x,y,z
2 -x,1/2+y,-z
_cell_length_a                   5.534(2)
_cell_length_b                   12.759(2)
_cell_length_c                   5.740(2)
_cell_angle_alpha                90
_cell_angle_beta                 104.77(2)
_cell_angle_gamma                90
_cell_volume                     391.9
loop_
_atom_site_label
_atom_site_type_symbol
_atom_site_fract_x
_atom_site_fract_y
_atom_site_fract_z
Ca1 Ca -1.0397(1) 0.7911 -0.5438(1)
P1 P -0.6266(2) 0.84263(9) 0.0678(1)
O1 O -0.6010(5) 0.9674(2) 0.0123(5)
O2 O -1.3668(4) 0.7953(3) -0.8847(4)
O3 O -0.7310(5) 0.8462(3) -0.7149(4)
O4 O -0.7973(4) 0.7927(3) -0.1526(4)
O5 O -0.0758(7) 1.1276(2) -0.3573(6)
O6 O -0.1424(5) 0.9665(2) -0.5020(5)
O7 O -1.3310(6) 0.7181(3) -0.3384(7)
N1 N -0.1005(7) 1.0664(3) 0.0859(6)
C1 C -0.1380(7) 1.0344(3) -0.3444(7)
C2 C -0.2171(7) 0.9983(3) -0.1238(7)
C3 C -0.5028(8) 1.0014(4) -0.1823(8)
H1 H -0.55(1) 0.961(5) -0.34(1)
H2 H -0.57(1) 1.080(5) -0.22(1)
H3 H -0.169(7) 0.929(3) -0.089(8)
H4 H -0.13(1) 1.034(5) 0.23(1)
H5 H -0.194(8) 1.123(4) 0.064(8)
H6 H 0.07(1) 1.065(6) 0.15(1)
H7 H -1.334(9) 0.735(4) -0.23(1)
H8 H -1.48(1) 0.736(7) -0.44(2)
O2_2 O -0.3668(4) 0.7953(3) 0.1153(4)
Ca1_2 Ca -0.0397(1) 0.7911 0.4562(1)
Ca1_3 Ca -0.0397(1) 0.7911 -0.5438(1)
Ca1A Ca 0.0397(1) 1.2911 -0.4562(1)
O3_2 O -0.7310(5) 0.8462(3) 0.2851(4)
Ca1_4 Ca -1.0397(1) 0.7911 0.4562(1)
O5A O -0.9242(7) 0.6276(2) -0.6427(6)
O6_2 O -1.1424(5) 0.9665(2) -0.5020(5)
loop_
_geom_bond_atom_site_label_1
_geom_bond_atom_site_label_2
_geom_bond_site_symmetry_1
_geom_bond_site_symmetry_2
Ca1 O2 1_555 1_555
P1 O1 1_555 1_555
O1 C3 1_555 1_555
O3 Ca1 1_555 1_555
O4 Ca1 1_555 1_555
O5 C1 1_555 1_555
O6 C1 1_555 1_555
O7 Ca1 1_555 1_555
N1 C2 1_555 1_555
C1 C2 1_555 1_555
C2 C3 1_555 1_555
C3 H1 1_555 1_555
H2 C3 1_555 1_555
H3 C2 1_555 1_555
H4 N1 1_555 1_555
H5 N1 1_555 1_555
H6 N1 1_555 1_555
H7 O7 1_555 1_555
H8 O7 1_555 1_555
O2_2 P1 1_555 1_555
Ca1_2 O2_2 1_555 1_555
Ca1_3 O6 1_555 1_555
Ca1A O5 1_555 1_555
O3_2 P1 1_555 1_555
Ca1_4 O3_2 1_555 1_555
O5A Ca1 1_555 1_555
O6_2 Ca1 1_555 1_555
P1 O4 1_555 1_555

#END
