
#######################################################################
#
#                 Cambridge Crystallographic Data Centre
#                                CCDC 
#
#######################################################################
#
# If this CIF has been generated from an entry in the Cambridge 
# Structural Database, then it will include bibliographic, chemical, 
# crystal, experimental, refinement or atomic coordinate data resulting 
# from the CCDC's data processing and validation procedures.
#
#######################################################################

data_TEGMAT
_symmetry_cell_setting           monoclinic
_symmetry_space_group_name_H-M   'P 21/c'
_symmetry_Int_Tables_number      14
_space_group_name_Hall           '-P 2ybc'
loop_
_symmetry_equiv_pos_site_id
_symmetry_equiv_pos_as_xyz
1 x,y,z
2 -x,1/2+y,1/2-z
3 -x,-y,-z
4 x,1/2-y,1/2+z
_cell_length_a                   9.003(3)
_cell_length_b                   8.896(5)
_cell_length_c                   24.832(4)
_cell_angle_alpha                90
_cell_angle_beta                 94.29(3)
_cell_angle_gamma                90
_cell_volume                     1983.24
loop_
_atom_site_label
_atom_site_type_symbol
_atom_site_fract_x
_atom_site_fract_y
_atom_site_fract_z
Ca1 Ca 0.70312(8) 0.18035(9) 0.98488(3)
S1 S 0.98269(10) -0.3335(1) 0.92223(4)
S2 S 0.51155(10) -0.0789(1) 0.89660(4)
O1 O 0.8596(3) -0.3268(3) 0.95710(10)
O2 O 0.9993(3) -0.4805(3) 0.8974(1)
O3 O 0.8794(3) 0.2811(3) 1.04969(10)
O4 O 0.5904(3) 0.0981(3) 1.0611(1)
O5 O 0.6510(3) -0.0104(3) 0.9175(1)
O6 O 0.4424(3) -0.0018(3) 0.8501(1)
O7 O 0.8866(5) 0.2262(4) 0.9202(2)
O8 O 0.8387(4) -0.0506(4) 1.0113(1)
O9 O 0.6641(4) 0.4461(4) 0.9770(2)
O10 O 0.4422(3) 0.2335(4) 0.9613(2)
N1 N 1.1497(4) 0.0981(5) 0.8045(2)
N2 N 0.3255(4) -0.6122(4) 0.8660(2)
C1 C 0.8034(4) -0.1965(4) 0.8398(2)
C2 C 0.7856(4) -0.0897(5) 0.7985(2)
C3 C 0.8980(4) 0.0080(4) 0.7850(2)
C4 C 1.0349(4) 0.0001(4) 0.8150(2)
C5 C 1.0543(4) -0.1030(5) 0.8571(2)
C6 C 0.9416(4) -0.2022(4) 0.8692(1)
C7 C 0.6768(4) -0.3025(4) 0.8485(2)
C8 C 0.6803(4) -0.4471(5) 0.8267(2)
C9 C 0.5649(4) -0.5503(5) 0.8294(2)
C10 C 0.4408(4) -0.5095(5) 0.8564(2)
C11 C 0.4331(4) -0.3667(5) 0.8779(2)
C12 C 0.5490(4) -0.2637(4) 0.8736(2)
C13 C 0.8762(5) 0.1154(6) 0.7384(2)
C14 C 0.5769(6) -0.7019(6) 0.8035(3)
H1 H 0.704(4) -0.082(4) 0.779(1)
H2 H 1.136(4) -0.110(4) 0.876(1)
H3 H 0.772(4) -0.477(4) 0.811(1)
H4 H 0.347(4) -0.341(4) 0.895(1)
H5 H 0.788(5) 0.114(5) 0.725(2)
H6 H 0.906(4) 0.217(5) 0.752(2)
H7 H 0.943(4) 0.081(5) 0.706(2)
H8 H 0.664(5) -0.708(5) 0.776(2)
H9 H 0.638(5) -0.761(5) 0.824(2)
H10 H 0.500(5) -0.726(6) 0.784(2)
H11 H 1.140(5) 0.134(5) 0.773(2)
H12 H 1.221(5) 0.067(6) 0.810(2)
H13 H 0.310(5) -0.672(5) 0.842(2)
H14 H 0.230(4) -0.575(5) 0.873(2)
H15 H 0.915(6) 0.310(5) 0.916(2)
H16 H 0.893(6) 0.195(6) 0.896(2)
H17 H 0.897(5) -0.059(5) 1.037(2)
H18 H 0.849(5) -0.113(5) 0.991(2)
H19 H 0.763(5) 0.518(5) 0.972(2)
H20 H 0.615(6) 0.477(7) 0.969(3)
H21 H 0.389(5) 0.282(5) 0.934(2)
H22 H 0.376(5) 0.178(5) 0.967(2)
Ca1B Ca 1.29688(8) -0.18035(9) 1.01512(3)
O3B O 1.1206(3) -0.2811(3) 0.95031(10)
O4B O 0.4096(3) -0.0981(3) 0.9389(1)
Ca1B_2 Ca 0.29688(8) -0.18035(9) 1.01512(3)
loop_
_geom_bond_atom_site_label_1
_geom_bond_atom_site_label_2
_geom_bond_site_symmetry_1
_geom_bond_site_symmetry_2
Ca1 O3 1_555 1_555
S1 O1 1_555 1_555
S2 O5 1_555 1_555
O2 S1 1_555 1_555
O4 Ca1 1_555 1_555
O5 Ca1 1_555 1_555
O6 S2 1_555 1_555
O7 Ca1 1_555 1_555
O8 Ca1 1_555 1_555
O9 Ca1 1_555 1_555
O10 Ca1 1_555 1_555
N1 C4 1_555 1_555
N2 C10 1_555 1_555
C1 C2 1_555 1_555
C2 C3 1_555 1_555
C3 C4 1_555 1_555
C4 C5 1_555 1_555
C5 C6 1_555 1_555
C6 S1 1_555 1_555
C7 C1 1_555 1_555
C8 C7 1_555 1_555
C9 C8 1_555 1_555
C10 C9 1_555 1_555
C11 C10 1_555 1_555
C12 S2 1_555 1_555
C13 C3 1_555 1_555
C14 C9 1_555 1_555
H1 C2 1_555 1_555
H2 C5 1_555 1_555
H3 C8 1_555 1_555
H4 C11 1_555 1_555
H5 C13 1_555 1_555
H6 C13 1_555 1_555
H7 C13 1_555 1_555
H8 C14 1_555 1_555
H9 C14 1_555 1_555
H10 C14 1_555 1_555
H11 N1 1_555 1_555
H12 N1 1_555 1_555
H13 N2 1_555 1_555
H14 N2 1_555 1_555
H15 O7 1_555 1_555
H16 O7 1_555 1_555
H17 O8 1_555 1_555
H18 O8 1_555 1_555
H19 O9 1_555 1_555
H20 O9 1_555 1_555
H21 O10 1_555 1_555
H22 O10 1_555 1_555
Ca1B O3B 1_555 1_555
O3B S1 1_555 1_555
O4B S2 1_555 1_555
Ca1B_2 O4B 1_555 1_555
C1 C6 1_555 1_555
C7 C12 1_555 1_555
C11 C12 1_555 1_555

#END
