
#######################################################################
#
#                 Cambridge Crystallographic Data Centre
#                                CCDC 
#
#######################################################################
#
# If this CIF has been generated from an entry in the Cambridge 
# Structural Database, then it will include bibliographic, chemical, 
# crystal, experimental, refinement or atomic coordinate data resulting 
# from the CCDC's data processing and validation procedures.
#
#######################################################################

data_TEGTUV
_symmetry_cell_setting           triclinic
_symmetry_space_group_name_H-M   'P -1'
_symmetry_Int_Tables_number      2
_space_group_name_Hall           '-P 1'
loop_
_symmetry_equiv_pos_site_id
_symmetry_equiv_pos_as_xyz
1 x,y,z
2 -x,-y,-z
_cell_length_a                   11.4427(2)
_cell_length_b                   11.8772(2)
_cell_length_c                   12.8710(2)
_cell_angle_alpha                64.9070(10)
_cell_angle_beta                 72.0580(10)
_cell_angle_gamma                73.1610(10)
_cell_volume                     1481.23
loop_
_atom_site_label
_atom_site_type_symbol
_atom_site_fract_x
_atom_site_fract_y
_atom_site_fract_z
Au1 Au 0.5000 0.5000 0.0000
Au2 Au 0.5000 0.0000 0.0000
Tl1 Tl 0.44486(3) 0.24180(3) 0.05472(3)
C1 C 0.3258(7) 0.5593(6) 0.0852(6)
C2 C 0.3022(6) 0.5710(5) 0.1941(6)
C3 C 0.1854(7) 0.6042(7) 0.2576(6)
C4 C 0.0826(7) 0.6303(8) 0.2106(7)
C5 C 0.0980(7) 0.6224(8) 0.1021(7)
C6 C 0.2174(6) 0.5863(7) 0.0429(6)
Cl1 Cl 0.4315(2) 0.5423(2) 0.25260(18)
Cl2 Cl 0.1659(3) 0.6081(3) 0.3940(2)
Cl3 Cl -0.0651(2) 0.6682(4) 0.2886(3)
Cl4 Cl -0.0304(2) 0.6590(4) 0.0427(3)
Cl5 Cl 0.2347(2) 0.5710(3) -0.0899(2)
C7 C 0.4305(6) -0.0896(6) 0.1765(6)
C8 C 0.3079(7) -0.0597(6) 0.2319(6)
C9 C 0.2628(8) -0.1162(8) 0.3521(7)
C10 C 0.3434(8) -0.2060(8) 0.4202(7)
C11 C 0.4664(9) -0.2393(8) 0.3701(6)
C12 C 0.5081(7) -0.1806(7) 0.2500(6)
Cl6 Cl 0.2042(2) 0.0524(3) 0.1474(2)
Cl7 Cl 0.1096(3) -0.0720(3) 0.4152(3)
Cl8 Cl 0.2875(4) -0.2806(4) 0.5689(2)
Cl9 Cl 0.5672(4) -0.3533(3) 0.4555(3)
Cl10 Cl 0.6632(2) -0.2271(2) 0.1886(2)
N1 N 0.3352(11) 0.2072(10) 0.2810(8)
N2 N 0.6102(12) 0.1374(10) 0.1897(10)
C13 C 0.2259(17) 0.2410(14) 0.3251(13)
C14 C 0.1309(15) 0.2949(13) 0.2544(15)
H1 H 0.1707 0.3136 0.1731
H2 H 0.0821 0.3712 0.2655
H3 H 0.0774 0.2352 0.2783
C15 C 0.177(2) 0.237(3) 0.4487(16)
H4 H 0.1211 0.1773 0.4903
H5 H 0.1331 0.3190 0.4479
H6 H 0.2456 0.2104 0.4869
C16 C 0.7236(17) 0.0923(13) 0.1664(16)
C17 C 0.7760(13) 0.0802(13) 0.0532(14)
H7 H 0.7672 -0.0001 0.0583
H8 H 0.8629 0.0856 0.0303
H9 H 0.7325 0.1470 -0.0041
C18 C 0.821(2) 0.049(2) 0.238(2)
H10 H 0.8321 0.1204 0.2497
H11 H 0.8992 0.0145 0.1976
H12 H 0.7952 -0.0138 0.3131
C19 C 0.4406(19) 0.138(2) 0.3516(12)
H13 H 0.4149 0.1576 0.4222
H14 H 0.4454 0.0477 0.3764
C20 C 0.5594(19) 0.163(2) 0.2975(17)
H15 H 0.6145 0.1124 0.3516
H16 H 0.5580 0.2514 0.2797
Au2_2 Au 0.5000 1.0000 0.0000
Tl1A Tl 0.55514(3) 0.75820(3) -0.05472(3)
Tl1A_2 Tl 0.55514(3) -0.24180(3) -0.05472(3)
C1A C 0.6742(7) 0.4407(6) -0.0852(6)
C2A C 0.6978(6) 0.4290(5) -0.1941(6)
C3A C 0.8146(7) 0.3958(7) -0.2576(6)
C4A C 0.9174(7) 0.3697(8) -0.2106(7)
C5A C 0.9020(7) 0.3776(8) -0.1021(7)
C6A C 0.7826(6) 0.4137(7) -0.0429(6)
Cl1A Cl 0.5685(2) 0.4577(2) -0.25260(18)
Cl2A Cl 0.8341(3) 0.3919(3) -0.3940(2)
Cl3A Cl 1.0651(2) 0.3318(4) -0.2886(3)
Cl4A Cl 1.0304(2) 0.3410(4) -0.0427(3)
Cl5A Cl 0.7653(2) 0.4290(3) 0.0899(2)
C7A C 0.5695(6) 0.0896(6) -0.1765(6)
C8A C 0.6921(7) 0.0597(6) -0.2319(6)
C9A C 0.7372(8) 0.1162(8) -0.3521(7)
C10A C 0.6566(8) 0.2060(8) -0.4202(7)
C11A C 0.5336(9) 0.2393(8) -0.3701(6)
C12A C 0.4919(7) 0.1806(7) -0.2500(6)
Cl6A Cl 0.7958(2) -0.0524(3) -0.1474(2)
Cl7A Cl 0.8904(3) 0.0720(3) -0.4152(3)
Cl8A Cl 0.7125(4) 0.2806(4) -0.5689(2)
Cl9A Cl 0.4328(4) 0.3533(3) -0.4555(3)
Cl10A Cl 0.3368(2) 0.2271(2) -0.1886(2)
N1A N 0.6648(11) 0.7928(10) -0.2810(8)
N2A N 0.3898(12) 0.8626(10) -0.1897(10)
C13A C 0.7741(17) 0.7590(14) -0.3251(13)
C14A C 0.8691(15) 0.7051(13) -0.2544(15)
H1A H 0.8293 0.6864 -0.1731
H2A H 0.9179 0.6288 -0.2655
H3A H 0.9226 0.7648 -0.2783
C15A C 0.823(2) 0.763(3) -0.4487(16)
H4A H 0.8789 0.8227 -0.4903
H5A H 0.8669 0.6810 -0.4479
H6A H 0.7544 0.7896 -0.4869
C16A C 0.2764(17) 0.9077(13) -0.1664(16)
C17A C 0.2240(13) 0.9198(13) -0.0532(14)
H7A H 0.2328 1.0001 -0.0583
H8A H 0.1371 0.9144 -0.0303
H9A H 0.2675 0.8530 0.0041
C18A C 0.179(2) 0.951(2) -0.238(2)
H10A H 0.1679 0.8796 -0.2497
H11A H 0.1008 0.9855 -0.1976
H12A H 0.2048 1.0138 -0.3131
C19A C 0.5594(19) 0.862(2) -0.3516(12)
H13A H 0.5851 0.8424 -0.4222
H14A H 0.5546 0.9523 -0.3764
C20A C 0.4406(19) 0.837(2) -0.2975(17)
H15A H 0.3855 0.8876 -0.3516
H16A H 0.4420 0.7486 -0.2797
loop_
_geom_bond_atom_site_label_1
_geom_bond_atom_site_label_2
_geom_bond_site_symmetry_1
_geom_bond_site_symmetry_2
Au1 Tl1 1_555 1_555
Au2 Tl1 1_555 1_555
Tl1 N1 1_555 1_555
C1 Au1 1_555 1_555
C2 C1 1_555 1_555
C3 C2 1_555 1_555
C4 C3 1_555 1_555
C5 C4 1_555 1_555
C6 C1 1_555 1_555
Cl1 C2 1_555 1_555
Cl2 C3 1_555 1_555
Cl3 C4 1_555 1_555
Cl4 C5 1_555 1_555
Cl5 C6 1_555 1_555
C7 Au2 1_555 1_555
C8 C7 1_555 1_555
C9 C8 1_555 1_555
C10 C9 1_555 1_555
C11 C10 1_555 1_555
C12 C7 1_555 1_555
Cl6 C8 1_555 1_555
Cl7 C9 1_555 1_555
Cl8 C10 1_555 1_555
Cl9 C11 1_555 1_555
Cl10 C12 1_555 1_555
N1 C13 1_555 1_555
N2 Tl1 1_555 1_555
C13 C14 1_555 1_555
C14 H1 1_555 1_555
H2 C14 1_555 1_555
H3 C14 1_555 1_555
C15 C13 1_555 1_555
H4 C15 1_555 1_555
H5 C15 1_555 1_555
H6 C15 1_555 1_555
C16 N2 1_555 1_555
C17 C16 1_555 1_555
H7 C17 1_555 1_555
H8 C17 1_555 1_555
H9 C17 1_555 1_555
C18 C16 1_555 1_555
H10 C18 1_555 1_555
H11 C18 1_555 1_555
H12 C18 1_555 1_555
C19 N1 1_555 1_555
H13 C19 1_555 1_555
H14 C19 1_555 1_555
C20 N2 1_555 1_555
H15 C20 1_555 1_555
H16 C20 1_555 1_555
Au2_2 Tl1A 1_555 1_555
Tl1A Au1 1_555 1_555
Tl1A_2 Au2 1_555 1_555
C1A Au1 1_555 1_555
C2A C1A 1_555 1_555
C3A C2A 1_555 1_555
C4A C3A 1_555 1_555
C5A C4A 1_555 1_555
C6A C1A 1_555 1_555
Cl1A C2A 1_555 1_555
Cl2A C3A 1_555 1_555
Cl3A C4A 1_555 1_555
Cl4A C5A 1_555 1_555
Cl5A C6A 1_555 1_555
C7A Au2 1_555 1_555
C8A C7A 1_555 1_555
C9A C8A 1_555 1_555
C10A C9A 1_555 1_555
C11A C10A 1_555 1_555
C12A C7A 1_555 1_555
Cl6A C8A 1_555 1_555
Cl7A C9A 1_555 1_555
Cl8A C10A 1_555 1_555
Cl9A C11A 1_555 1_555
Cl10A C12A 1_555 1_555
N1A Tl1A 1_555 1_555
N2A Tl1A 1_555 1_555
C13A N1A 1_555 1_555
C14A C13A 1_555 1_555
H1A C14A 1_555 1_555
H2A C14A 1_555 1_555
H3A C14A 1_555 1_555
C15A C13A 1_555 1_555
H4A C15A 1_555 1_555
H5A C15A 1_555 1_555
H6A C15A 1_555 1_555
C16A N2A 1_555 1_555
C17A C16A 1_555 1_555
H7A C17A 1_555 1_555
H8A C17A 1_555 1_555
H9A C17A 1_555 1_555
C18A C16A 1_555 1_555
H10A C18A 1_555 1_555
H11A C18A 1_555 1_555
H12A C18A 1_555 1_555
C19A N1A 1_555 1_555
H13A C19A 1_555 1_555
H14A C19A 1_555 1_555
C20A N2A 1_555 1_555
H15A C20A 1_555 1_555
H16A C20A 1_555 1_555
C5 C6 1_555 1_555
C11 C12 1_555 1_555
C19 C20 1_555 1_555
C5A C6A 1_555 1_555
C11A C12A 1_555 1_555
C19A C20A 1_555 1_555

#END
