
#######################################################################
#
#                 Cambridge Crystallographic Data Centre
#                                CCDC 
#
#######################################################################
#
# If this CIF has been generated from an entry in the Cambridge 
# Structural Database, then it will include bibliographic, chemical, 
# crystal, experimental, refinement or atomic coordinate data resulting 
# from the CCDC's data processing and validation procedures.
#
#######################################################################

data_TEGTAC
_symmetry_cell_setting           orthorhombic
_symmetry_space_group_name_H-M   'P 21 21 21'
_symmetry_Int_Tables_number      19
_space_group_name_Hall           'P 2ac 2ab'
loop_
_symmetry_equiv_pos_site_id
_symmetry_equiv_pos_as_xyz
1 x,y,z
2 1/2-x,-y,1/2+z
3 -x,1/2+y,1/2-z
4 1/2+x,1/2-y,-z
_cell_length_a                   9.1986(5)
_cell_length_b                   10.3548(8)
_cell_length_c                   24.5200(19)
_cell_angle_alpha                90
_cell_angle_beta                 90
_cell_angle_gamma                90
_cell_volume                     2335.52
loop_
_atom_site_label
_atom_site_type_symbol
_atom_site_fract_x
_atom_site_fract_y
_atom_site_fract_z
U1 U -0.19194(3) -0.09140(3) -0.135900(13)
O1 O -0.2502(6) -0.1503(6) -0.0719(2)
O2 O -0.1319(7) -0.0352(7) -0.1991(2)
O3 O -0.4103(7) -0.1592(6) -0.1780(2)
O4 O -0.4704(6) -0.4819(6) 0.0974(2)
O5 O -0.3965(6) 0.0713(6) -0.1322(3)
O6 O -0.1991(7) 0.1323(5) -0.0929(3)
O7 O -0.3890(8) 0.2495(8) -0.0872(3)
O8 O 0.0072(6) -0.2562(6) -0.1326(3)
O9 O -0.1891(8) -0.3185(6) -0.1715(3)
O10 O -0.0045(10) -0.4548(8) -0.1622(4)
N1 N -0.6056(7) -0.0892(10) -0.2239(3)
N2 N -0.2865(7) -0.5616(6) 0.0474(3)
N3 N -0.3275(9) 0.1568(8) -0.1033(3)
N4 N -0.0610(10) -0.3478(10) -0.1560(4)
C1 C -0.5461(10) -0.1530(9) -0.1839(4)
C2 C -0.6419(9) -0.2303(9) -0.1448(4)
H1 H -0.7040 -0.1710 -0.1248
H2 H -0.7042 -0.2871 -0.1658
C3 C -0.5556(9) -0.3106(9) -0.1042(3)
H3 H -0.4925 -0.2542 -0.0833
H4 H -0.4946 -0.3711 -0.1240
C4 C -0.6542(9) -0.3850(8) -0.0654(3)
H5 H -0.7089 -0.3241 -0.0435
H6 H -0.7231 -0.4354 -0.0865
C5 C -0.5699(10) -0.4745(9) -0.0281(4)
H7 H -0.5228 -0.5404 -0.0500
H8 H -0.6373 -0.5173 -0.0037
C6 C -0.4540(8) -0.4039(10) 0.0059(3)
H9 H -0.3719 -0.3826 -0.0172
H10 H -0.4944 -0.3237 0.0197
C7 C -0.4026(10) -0.4842(8) 0.0528(4)
C8 C -0.5097(11) -0.0130(11) -0.2613(4)
H11 H -0.4418 0.0376 -0.2399
H12 H -0.5688 0.0462 -0.2825
C9 C -0.4243(12) -0.1018(13) -0.3004(4)
H13 H -0.4912 -0.1522 -0.3216
H14 H -0.3628 -0.1582 -0.2796
H15 H -0.3656 -0.0500 -0.3243
C10 C -0.7646(9) -0.0830(12) -0.2336(4)
H16 H -0.7901 0.0034 -0.2455
H17 H -0.8152 -0.0996 -0.1996
C11 C -0.8145(14) -0.1791(10) -0.2760(5)
H18 H -0.7837 -0.2642 -0.2656
H19 H -0.7730 -0.1573 -0.3107
H20 H -0.9186 -0.1770 -0.2785
C12 C -0.1983(10) -0.5707(9) -0.0020(4)
H21 H -0.2582 -0.5507 -0.0334
H22 H -0.1634 -0.6586 -0.0061
C13 C -0.0702(10) -0.4799(10) -0.0007(4)
H23 H -0.0094 -0.5006 0.0300
H24 H -0.1044 -0.3927 0.0027
H25 H -0.0153 -0.4887 -0.0337
C14 C -0.2515(10) -0.6502(9) 0.0928(4)
H26 H -0.2723 -0.6079 0.1272
H27 H -0.1486 -0.6705 0.0919
C15 C -0.3396(11) -0.7758(10) 0.0890(5)
H28 H -0.3200 -0.8174 0.0548
H29 H -0.4415 -0.7562 0.0915
H30 H -0.3126 -0.8321 0.1184
U1C U -0.69194(3) -0.40860(3) 0.135900(13)
O4C O 0.0296(6) -0.0181(6) -0.0974(2)
loop_
_geom_bond_atom_site_label_1
_geom_bond_atom_site_label_2
_geom_bond_site_symmetry_1
_geom_bond_site_symmetry_2
U1 O1 1_555 1_555
O2 U1 1_555 1_555
O3 U1 1_555 1_555
O4 C7 1_555 1_555
O5 U1 1_555 1_555
O6 U1 1_555 1_555
O7 N3 1_555 1_555
O8 U1 1_555 1_555
O9 U1 1_555 1_555
O10 N4 1_555 1_555
N1 C1 1_555 1_555
N2 C7 1_555 1_555
N3 O5 1_555 1_555
N4 O8 1_555 1_555
C1 O3 1_555 1_555
C2 C1 1_555 1_555
H1 C2 1_555 1_555
H2 C2 1_555 1_555
C3 C2 1_555 1_555
H3 C3 1_555 1_555
H4 C3 1_555 1_555
C4 C3 1_555 1_555
H5 C4 1_555 1_555
H6 C4 1_555 1_555
C5 C4 1_555 1_555
H7 C5 1_555 1_555
H8 C5 1_555 1_555
C6 C5 1_555 1_555
H9 C6 1_555 1_555
H10 C6 1_555 1_555
C7 C6 1_555 1_555
C8 N1 1_555 1_555
H11 C8 1_555 1_555
H12 C8 1_555 1_555
C9 C8 1_555 1_555
H13 C9 1_555 1_555
H14 C9 1_555 1_555
H15 C9 1_555 1_555
C10 N1 1_555 1_555
H16 C10 1_555 1_555
H17 C10 1_555 1_555
C11 C10 1_555 1_555
H18 C11 1_555 1_555
H19 C11 1_555 1_555
H20 C11 1_555 1_555
C12 N2 1_555 1_555
H21 C12 1_555 1_555
H22 C12 1_555 1_555
C13 C12 1_555 1_555
H23 C13 1_555 1_555
H24 C13 1_555 1_555
H25 C13 1_555 1_555
C14 N2 1_555 1_555
H26 C14 1_555 1_555
H27 C14 1_555 1_555
C15 C14 1_555 1_555
H28 C15 1_555 1_555
H29 C15 1_555 1_555
H30 C15 1_555 1_555
U1C O4 1_555 1_555
O4C U1 1_555 1_555
O6 N3 1_555 1_555
O9 N4 1_555 1_555

#END
