
#######################################################################
#
#                 Cambridge Crystallographic Data Centre
#                                CCDC 
#
#######################################################################
#
# If this CIF has been generated from an entry in the Cambridge 
# Structural Database, then it will include bibliographic, chemical, 
# crystal, experimental, refinement or atomic coordinate data resulting 
# from the CCDC's data processing and validation procedures.
#
#######################################################################

data_TEHCAM
_symmetry_cell_setting           orthorhombic
_symmetry_space_group_name_H-M   'P b c a'
_symmetry_Int_Tables_number      61
_space_group_name_Hall           '-P 2ac 2ab'
loop_
_symmetry_equiv_pos_site_id
_symmetry_equiv_pos_as_xyz
1 x,y,z
2 1/2+x,1/2-y,-z
3 -x,1/2+y,1/2-z
4 1/2-x,-y,1/2+z
5 -x,-y,-z
6 1/2-x,1/2+y,z
7 x,1/2-y,1/2+z
8 1/2+x,y,1/2-z
_cell_length_a                   7.76250(10)
_cell_length_b                   10.5067(2)
_cell_length_c                   18.3021(4)
_cell_angle_alpha                90
_cell_angle_beta                 90
_cell_angle_gamma                90
_cell_volume                     1492.69
loop_
_atom_site_label
_atom_site_type_symbol
_atom_site_fract_x
_atom_site_fract_y
_atom_site_fract_z
Ba1 Ba 0.04130(3) 0.70498(2) 0.468243(12)
O1 O 0.2086(3) 0.8828(3) 0.54982(14)
O2 O 0.1651(4) 1.0875(3) 0.52312(15)
C1 C 0.1737(5) 0.9954(4) 0.5665(2)
C2 C 0.1463(5) 1.0235(4) 0.6470(2)
N1 N 0.0865(5) 1.1385(3) 0.66586(18)
C3 C 0.1241(5) 1.0799(4) 0.7923(2)
C4 C 0.0775(6) 1.1636(4) 0.7377(2)
C5 C 0.1899(6) 0.9320(4) 0.6978(2)
C6 C 0.1800(6) 0.9600(4) 0.7719(2)
O3 O 0.1582(4) 1.2245(3) 0.89116(15)
C7 C 0.1083(5) 1.1157(4) 0.8718(2)
O4 O 0.0425(4) 1.0349(3) 0.91372(15)
H1 H 0.205(5) 0.898(4) 0.808(2)
H2 H 0.044(6) 1.240(5) 0.751(3)
H3 H 0.222(5) 0.858(4) 0.682(2)
Ba1A Ba 0.54130(3) 0.79502(2) 0.531757(12)
Ba1D Ba -0.04130(3) 1.29502(2) 0.531757(12)
Ba1E Ba 0.45870(3) 1.20498(2) 0.468243(12)
Ba1B Ba -0.04130(3) 1.20498(2) 1.031757(12)
Ba1C Ba 0.45870(3) 1.29502(2) 0.968243(12)
Ba1F Ba 0.04130(3) 0.79502(2) 0.968243(12)
O1A O -0.2914(3) 0.6172(3) 0.45018(14)
O2D O -0.1651(4) 0.9125(3) 0.47688(15)
O2E O 0.3349(4) 0.5875(3) 0.52312(15)
N1D N -0.0865(5) 0.8615(3) 0.33414(18)
O3B O -0.1582(4) 0.7245(3) 0.60884(15)
O3C O 0.3418(4) 0.7755(3) 0.39116(15)
O4F O 0.0425(4) 0.4651(3) 0.41372(15)
O4B O -0.0425(4) 0.5349(3) 0.58628(15)
loop_
_geom_bond_atom_site_label_1
_geom_bond_atom_site_label_2
_geom_bond_site_symmetry_1
_geom_bond_site_symmetry_2
Ba1 O1 1_555 1_555
O1 C1 1_555 1_555
O2 C1 1_555 1_555
C1 C2 1_555 1_555
C2 N1 1_555 1_555
N1 C4 1_555 1_555
C3 C4 1_555 1_555
C4 H2 1_555 1_555
C5 C2 1_555 1_555
C6 C3 1_555 1_555
O3 C7 1_555 1_555
C7 C3 1_555 1_555
O4 C7 1_555 1_555
H1 C6 1_555 1_555
H3 C5 1_555 1_555
Ba1A O1 1_555 1_555
Ba1D O2 1_555 1_555
Ba1E O2 1_555 1_555
Ba1B O3 1_555 1_555
Ba1C O3 1_555 1_555
Ba1F O4 1_555 1_555
O1A Ba1 1_555 1_555
O2D Ba1 1_555 1_555
O2E Ba1 1_555 1_555
N1D Ba1 1_555 1_555
O3B Ba1 1_555 1_555
O3C Ba1 1_555 1_555
O4F Ba1 1_555 1_555
O4B Ba1 1_555 1_555
N1 Ba1D 1_555 1_555
C5 C6 1_555 1_555
O4 Ba1B 1_555 1_555
Ba1A O2E 1_555 1_555
Ba1A O3C 1_555 1_555

#END
