
#######################################################################
#
#                 Cambridge Crystallographic Data Centre
#                                CCDC 
#
#######################################################################
#
# If this CIF has been generated from an entry in the Cambridge 
# Structural Database, then it will include bibliographic, chemical, 
# crystal, experimental, refinement or atomic coordinate data resulting 
# from the CCDC's data processing and validation procedures.
#
#######################################################################

data_TEHKOH
_symmetry_cell_setting           triclinic
_symmetry_space_group_name_H-M   'P -1'
_symmetry_Int_Tables_number      2
_space_group_name_Hall           '-P 1'
loop_
_symmetry_equiv_pos_site_id
_symmetry_equiv_pos_as_xyz
1 x,y,z
2 -x,-y,-z
_cell_length_a                   12.913(3)
_cell_length_b                   21.765(4)
_cell_length_c                   9.3682(19)
_cell_angle_alpha                99.07(3)
_cell_angle_beta                 96.91(3)
_cell_angle_gamma                76.75(3)
_cell_volume                     2521.09
loop_
_atom_site_label
_atom_site_type_symbol
_atom_site_fract_x
_atom_site_fract_y
_atom_site_fract_z
Nd2 Nd 0.01053(3) 0.502191(18) 0.72001(4)
O9 O 0.0230(5) 0.6067(3) 0.6545(6)
O10 O -0.0220(6) 0.6046(3) 0.4170(6)
O11 O -0.1160(5) 0.5129(3) 0.5118(6)
O12 O -0.2093(5) 0.5177(3) 0.3031(5)
O13 O -0.1114(5) 0.4627(3) 0.8330(6)
O14 O -0.0713(5) 0.4392(3) 1.0591(6)
O15 O -0.1443(5) 0.5908(3) 0.8113(6)
O16 O 0.1213(5) 0.4163(3) 0.8724(6)
C10 C -0.0002(7) 0.6326(4) 0.5397(8)
C11 C -0.0027(8) 0.7033(4) 0.5520(10)
H13 H -0.0018 0.7214 0.6536
H14 H 0.0610 0.7090 0.5149
C12 C -0.0998(11) 0.7388(5) 0.4699(11)
H15 H -0.1637 0.7312 0.5027
H16 H -0.1020 0.7842 0.4905
C13 C -0.2063(6) 0.5218(3) 0.4382(8)
C14 C -0.3063(8) 0.5394(4) 0.5134(9)
H17 H -0.3066 0.5544 0.6120
C15 C -0.4065(7) 0.5315(4) 0.4206(10)
H18 H -0.3987 0.4875 0.3761
H19 H -0.4657 0.5414 0.4810
C16 C -0.1262(6) 0.4363(3) 0.9381(8)
C17 C -0.2122(8) 0.3986(4) 0.9139(9)
H20 H -0.1893 0.3607 0.8460
H21 H -0.2758 0.4239 0.8683
C18 C -0.2422(8) 0.3784(5) 1.0475(11)
H22 H -0.2633 0.4157 1.1178
H23 H -0.3027 0.3582 1.0216
N4 N -0.0991(8) 0.7185(4) 0.3091(8)
H33 H -0.1571 0.7405 0.2639
H34 H -0.0989 0.6771 0.2897
H35 H -0.0410 0.7258 0.2786
N5 N -0.4304(6) 0.5736(4) 0.3057(8)
H36 H -0.4903 0.5680 0.2527
H37 H -0.3768 0.5641 0.2490
H38 H -0.4384 0.6141 0.3463
N6 N -0.1512(8) 0.3331(4) 1.1143(10)
H39 H -0.1710 0.3220 1.1926
H40 H -0.0959 0.3518 1.1397
H41 H -0.1323 0.2985 1.0505
O10A O 0.0220(6) 0.3954(3) 0.5830(6)
O11A O 0.1160(5) 0.4871(3) 0.4882(6)
O12A O 0.2093(5) 0.4823(3) 0.6969(5)
O14A O 0.0713(5) 0.5608(3) 0.9409(6)
Nd2A Nd -0.01053(3) 0.497809(18) 0.27999(4)
Nd2A_2 Nd -0.01053(3) 0.497809(18) 1.27999(4)
Cl1 Cl 0.8386(2) 0.15799(12) 0.0455(3)
O17 O 0.9020(14) 0.1668(10) 0.1737(15)
O18 O 0.9056(10) 0.1261(5) -0.0629(12)
O19 O 0.7774(9) 0.2163(4) 0.0043(13)
O20 O 0.7651(11) 0.1198(5) 0.0572(16)
Cl2 Cl 0.9340(2) -0.08462(11) 0.4104(2)
O21 O 0.9892(9) -0.0468(5) 0.3522(9)
O22 O 0.8928(7) -0.1283(4) 0.3001(8)
O23 O 0.8441(7) -0.0435(4) 0.4818(9)
O24 O 0.9988(7) -0.1169(4) 0.5219(9)
Cl3 Cl 0.5918(2) -0.25105(10) 0.3825(3)
O25 O 0.5073(9) -0.2664(5) 0.2843(10)
O26 O 0.5500(9) -0.2033(4) 0.4982(9)
O27 O 0.6487(9) -0.3068(4) 0.4363(13)
O28 O 0.6595(7) -0.2253(4) 0.3090(9)
Cl4 Cl 0.3218(3) 0.66358(14) 0.5324(4)
O29 O 0.2619(14) 0.7088(7) 0.445(2)
O30 O 0.277(2) 0.674(2) 0.637(2)
O31 O 0.4289(12) 0.6613(9) 0.564(2)
O32 O 0.313(2) 0.6122(7) 0.466(4)
Cl5 Cl -0.1798(3) 0.76310(14) 0.9182(3)
O33 O -0.193(4) 0.8143(10) 0.905(5)
O34 O -0.0825(14) 0.7338(19) 0.937(3)
O35 O -0.229(2) 0.7613(17) 1.023(3)
O36 O -0.2236(16) 0.7334(11) 0.7999(19)
Cl6 Cl -0.41123(19) 0.57204(10) 0.9197(2)
O37 O -0.4337(8) 0.5196(4) 0.8200(9)
O38 O -0.3712(7) 0.6120(3) 0.8419(8)
O39 O -0.3285(6) 0.5492(4) 1.0268(8)
O40 O -0.5013(7) 0.6065(5) 0.9909(10)
O41 O 0.0779(11) 0.7531(5) 0.2092(15)
Nd1 Nd 1.50555(3) 0.008383(17) 0.22101(4)
O1 O 1.4927(5) 0.0692(2) -0.0080(6)
O2 O 1.5087(5) 0.1243(2) 0.2076(5)
O3 O 1.3278(5) 0.0260(3) 0.0975(5)
O4 O 1.3148(5) 0.0003(2) -0.1441(5)
O5 O 1.4199(6) -0.0565(3) 0.3273(6)
O6 O 1.3916(5) -0.0415(3) 0.5616(6)
O7 O 1.3708(5) 0.0864(3) 0.3880(6)
O8 O 1.6446(5) -0.0910(3) 0.3009(6)
C1 C 1.5017(6) 0.1207(3) 0.0722(8)
C2 C 1.5027(8) 0.1779(4) 0.0018(9)
H1 H 1.4318 0.1927 -0.0441
H2 H 1.5513 0.1648 -0.0740
C3 C 1.5352(9) 0.2330(4) 0.1024(11)
H3 H 1.6078 0.2194 0.1440
H4 H 1.5339 0.2672 0.0468
C4 C 1.2752(7) 0.0180(3) -0.0237(8)
C5 C 1.1557(7) 0.0311(4) -0.0248(9)
H5 H 1.1296 -0.0020 -0.0913
H6 H 1.1258 0.0712 -0.0617
C6 C 1.1154(9) 0.0341(5) 0.1229(10)
H7 H 1.0386 0.0380 0.1114
H8 H 1.1475 -0.0051 0.1626
C7 C 1.3774(6) -0.0672(3) 0.4330(7)
C8 C 1.3023(8) -0.1127(4) 0.4011(9)
H9 H 1.2367 -0.0918 0.3509
H10 H 1.3345 -0.1494 0.3356
C9 C 1.2743(8) -0.1361(4) 0.5321(10)
H11 H 1.2344 -0.1692 0.4997
H12 H 1.3397 -0.1548 0.5863
N1 N 1.4646(7) 0.2573(3) 0.2206(9)
H24 H 1.4865 0.2897 0.2768
H25 H 1.4666 0.2264 0.2733
H26 H 1.3980 0.2706 0.1831
N2 N 1.1413(7) 0.0880(4) 0.2237(8)
H27 H 1.1169 0.0885 0.3089
H28 H 1.1109 0.1241 0.1883
H29 H 1.2118 0.0841 0.2356
N3 N 1.2114(7) -0.0855(4) 0.6280(8)
H30 H 1.1972 -0.1016 0.7033
H31 H 1.1505 -0.0688 0.5795
H32 H 1.2482 -0.0554 0.6595
O1A O 1.5073(5) -0.0692(2) 0.0080(6)
O4A O 1.6852(5) -0.0003(2) 0.1441(5)
O6A O 1.6084(5) 0.0415(3) 0.4384(6)
Nd1A Nd 1.49445(3) -0.008383(17) -0.22101(4)
Nd1A_2 Nd 1.49445(3) -0.008383(17) 0.77899(4)
loop_
_geom_bond_atom_site_label_1
_geom_bond_atom_site_label_2
_geom_bond_site_symmetry_1
_geom_bond_site_symmetry_2
Nd1 O1 1_555 1_555
Nd2 O9 1_555 1_555
Cl1 O17 1_555 1_555
Cl2 O21 1_555 1_555
Cl3 O25 1_555 1_555
Cl4 O29 1_555 1_555
Cl5 O33 1_555 1_555
Cl6 O37 1_555 1_555
O1 C1 1_555 1_555
O2 Nd1 1_555 1_555
O3 Nd1 1_555 1_555
O4 C4 1_555 1_555
O5 Nd1 1_555 1_555
O6 C7 1_555 1_555
O7 Nd1 1_555 1_555
O8 Nd1 1_555 1_555
O9 C10 1_555 1_555
O10 C10 1_555 1_555
O11 Nd2 1_555 1_555
O12 C13 1_555 1_555
O13 Nd2 1_555 1_555
O14 C16 1_555 1_555
O15 Nd2 1_555 1_555
O16 Nd2 1_555 1_555
O18 Cl1 1_555 1_555
O19 Cl1 1_555 1_555
O20 Cl1 1_555 1_555
O22 Cl2 1_555 1_555
O23 Cl2 1_555 1_555
O24 Cl2 1_555 1_555
O26 Cl3 1_555 1_555
O27 Cl3 1_555 1_555
O28 Cl3 1_555 1_555
O30 Cl4 1_555 1_555
O31 Cl4 1_555 1_555
O32 Cl4 1_555 1_555
O34 Cl5 1_555 1_555
O35 Cl5 1_555 1_555
O36 Cl5 1_555 1_555
O38 Cl6 1_555 1_555
O39 Cl6 1_555 1_555
O40 Cl6 1_555 1_555
C1 O2 1_555 1_555
C2 C1 1_555 1_555
H1 C2 1_555 1_555
H2 C2 1_555 1_555
C3 C2 1_555 1_555
H3 C3 1_555 1_555
H4 C3 1_555 1_555
C4 O3 1_555 1_555
C5 C4 1_555 1_555
H5 C5 1_555 1_555
H6 C5 1_555 1_555
C6 C5 1_555 1_555
H7 C6 1_555 1_555
H8 C6 1_555 1_555
C7 O5 1_555 1_555
C8 C7 1_555 1_555
H9 C8 1_555 1_555
H10 C8 1_555 1_555
C9 C8 1_555 1_555
H11 C9 1_555 1_555
H12 C9 1_555 1_555
C10 C11 1_555 1_555
C11 H13 1_555 1_555
H14 C11 1_555 1_555
C12 C11 1_555 1_555
H15 C12 1_555 1_555
H16 C12 1_555 1_555
C13 O11 1_555 1_555
C14 C13 1_555 1_555
H17 C14 1_555 1_555
C15 C14 1_555 1_555
H18 C15 1_555 1_555
H19 C15 1_555 1_555
C16 O13 1_555 1_555
C17 C16 1_555 1_555
H20 C17 1_555 1_555
H21 C17 1_555 1_555
C18 C17 1_555 1_555
H22 C18 1_555 1_555
H23 C18 1_555 1_555
N1 C3 1_555 1_555
H24 N1 1_555 1_555
H25 N1 1_555 1_555
H26 N1 1_555 1_555
N2 C6 1_555 1_555
H27 N2 1_555 1_555
H28 N2 1_555 1_555
H29 N2 1_555 1_555
N3 C9 1_555 1_555
H30 N3 1_555 1_555
H31 N3 1_555 1_555
H32 N3 1_555 1_555
N4 C12 1_555 1_555
H33 N4 1_555 1_555
H34 N4 1_555 1_555
H35 N4 1_555 1_555
N5 C15 1_555 1_555
H36 N5 1_555 1_555
H37 N5 1_555 1_555
H38 N5 1_555 1_555
N6 C18 1_555 1_555
H39 N6 1_555 1_555
H40 N6 1_555 1_555
H41 N6 1_555 1_555
O1A Nd1 1_555 1_555
O4A Nd1 1_555 1_555
O6A Nd1 1_555 1_555
O10A Nd2 1_555 1_555
O11A Nd2 1_555 1_555
O12A Nd2 1_555 1_555
O14A Nd2 1_555 1_555
Nd1A O1 1_555 1_555
Nd1A_2 O6 1_555 1_555
Nd2A O10 1_555 1_555
Nd2A_2 O14 1_555 1_555
O4 Nd1A 1_555 1_555
O11 Nd2A 1_555 1_555
O12 Nd2A 1_555 1_555
O1A Nd1A 1_555 1_555
O11A Nd2A 1_555 1_555

#END
