
#######################################################################
#
#                 Cambridge Crystallographic Data Centre
#                                CCDC 
#
#######################################################################
#
# If this CIF has been generated from an entry in the Cambridge 
# Structural Database, then it will include bibliographic, chemical, 
# crystal, experimental, refinement or atomic coordinate data resulting 
# from the CCDC's data processing and validation procedures.
#
#######################################################################

data_TEHLUO
_symmetry_cell_setting           triclinic
_symmetry_space_group_name_H-M   'P -1'
_symmetry_Int_Tables_number      2
_space_group_name_Hall           '-P 1'
loop_
_symmetry_equiv_pos_site_id
_symmetry_equiv_pos_as_xyz
1 x,y,z
2 -x,-y,-z
_cell_length_a                   10.719(2)
_cell_length_b                   10.728(2)
_cell_length_c                   18.594(4)
_cell_angle_alpha                84.66(3)
_cell_angle_beta                 84.95(3)
_cell_angle_gamma                79.61(3)
_cell_volume                     2088.45
loop_
_atom_site_label
_atom_site_type_symbol
_atom_site_fract_x
_atom_site_fract_y
_atom_site_fract_z
Ag1 Ag 0.03741(8) 0.13325(9) 0.38659(4)
Ag2 Ag 0.19550(8) 0.08831(8) 0.87171(4)
C1 C 0.3349(11) 0.1613(12) 0.5858(6)
F1 F 0.4185(6) 0.0684(7) 0.5591(3)
F2 F 0.3291(6) 0.1383(6) 0.6576(3)
F3 F 0.3803(7) 0.2690(7) 0.5701(3)
S1 S 0.1793(3) 0.1754(3) 0.55041(13)
O1 O 0.2076(6) 0.2004(7) 0.4730(3)
O2 O 0.1022(7) 0.2817(6) 0.5843(4)
O3 O 0.1442(8) 0.0536(7) 0.5723(3)
C2 C 0.1446(12) 0.0803(13) 1.0974(6)
F4 F 0.2622(8) 0.0152(8) 1.1061(4)
F5 F 0.0842(8) 0.0844(8) 1.1632(4)
F6 F 0.0831(7) 0.0135(7) 1.0597(4)
S2 S 0.1456(3) 0.2384(3) 1.05380(12)
O4 O 0.2136(8) 0.2954(9) 1.1018(4)
O5 O 0.0143(7) 0.2894(8) 1.0474(4)
O6 O 0.2179(6) 0.2105(6) 0.9842(3)
N1 N -0.1043(8) 0.2594(8) 0.4467(4)
N2 N -0.3524(7) 0.6018(7) 0.6001(4)
H1 H -0.2920 0.6368 0.5755
N3 N -0.3227(7) 0.5617(7) 0.7540(4)
H2 H -0.3425 0.5051 0.7885
N4 N 0.0605(8) 0.2448(8) 0.8269(4)
N5 N 0.3025(7) -0.0846(7) -0.0785(4)
N6 N 0.6079(7) -0.3655(7) 0.0895(4)
H3 H 0.6492 -0.3179 0.0583
N7 N 0.5277(7) -0.3316(7) 0.2410(4)
H4 H 0.4687 -0.3618 0.2699
O7 O -0.4462(7) 0.4297(7) 0.6227(3)
O8 O -0.1601(6) 0.6311(6) 0.6853(3)
O9 O 0.4198(7) -0.4360(7) 0.1142(4)
O10 O 0.5763(6) -0.1533(6) 0.1762(4)
C3 C -0.0946(10) 0.3784(10) 0.4505(5)
H5 H -0.0291 0.4112 0.4210
C4 C -0.1749(10) 0.4593(10) 0.4952(5)
H6 H -0.1654 0.5454 0.4963
C5 C -0.2692(9) 0.4099(9) 0.5381(5)
C6 C -0.2806(10) 0.2842(9) 0.5351(5)
H7 H -0.3451 0.2488 0.5639
C7 C -0.1960(10) 0.2120(10) 0.4892(5)
H8 H -0.2024 0.1251 0.4874
C8 C -0.3627(9) 0.4841(9) 0.5905(5)
C9 C -0.4388(9) 0.6725(9) 0.6502(4)
C10 C -0.5402(9) 0.7573(9) 0.6257(5)
H9 H -0.5465 0.7733 0.5749
C11 C -0.6346(10) 0.8211(10) 0.6719(5)
H10 H -0.7049 0.8790 0.6538
C12 C -0.6212(10) 0.7963(9) 0.7457(5)
H11 H -0.6837 0.8378 0.7791
C13 C -0.5182(9) 0.7121(9) 0.7716(5)
H12 H -0.5120 0.6960 0.8223
C14 C -0.4245(9) 0.6512(9) 0.7249(5)
C15 C -0.1983(10) 0.5571(9) 0.7328(5)
C16 C -0.1108(9) 0.4493(9) 0.7685(5)
C17 C -0.1129(9) 0.4161(9) 0.8426(5)
H13 H -0.1743 0.4617 0.8749
C18 C -0.0227(9) 0.3140(10) 0.8689(6)
H14 H -0.0223 0.2944 0.9198
C19 C 0.0612(10) 0.2761(9) 0.7559(6)
H15 H 0.1201 0.2260 0.7244
C20 C -0.0214(9) 0.3801(9) 0.7260(5)
H16 H -0.0144 0.4022 0.6753
C21 C 0.2494(11) -0.1818(12) -0.0502(6)
H17 H 0.1673 -0.1875 -0.0638
C22 C 0.3080(10) -0.2766(10) -0.0012(6)
H18 H 0.2664 -0.3452 0.0173
C23 C 0.4259(9) -0.2700(9) 0.0199(5)
C24 C 0.4848(12) -0.1752(11) -0.0153(6)
H19 H 0.5703 -0.1723 -0.0068
C25 C 0.4210(10) -0.0841(10) -0.0630(6)
H20 H 0.4636 -0.0187 -0.0856
C26 C 0.4862(9) -0.3660(9) 0.0793(5)
C27 C 0.6767(9) -0.4360(9) 0.1469(4)
C28 C 0.7885(10) -0.5195(9) 0.1302(5)
H21 H 0.8179 -0.5291 0.0810
C29 C 0.8581(10) -0.5894(9) 0.1854(5)
H22 H 0.9349 -0.6455 0.1736
C30 C 0.8151(11) -0.5770(10) 0.2570(5)
H23 H 0.8604 -0.6269 0.2944
C31 C 0.7078(9) -0.4932(9) 0.2739(5)
H24 H 0.6790 -0.4847 0.3233
C32 C 0.6391(9) -0.4194(8) 0.2200(5)
C33 C 0.5061(9) -0.2084(9) 0.2206(5)
C34 C 0.3908(9) -0.1342(9) 0.2565(5)
C35 C 0.3915(11) -0.0102(10) 0.2713(6)
H25 H 0.4655 0.0262 0.2579
C36 C 0.2864(11) 0.0615(11) 0.3052(6)
H26 H 0.2894 0.1466 0.3143
C37 C 0.1770(10) -0.1065(10) 0.3112(5)
H27 H 0.1017 -0.1408 0.3246
C38 C 0.2799(10) -0.1815(10) 0.2778(5)
H28 H 0.2747 -0.2663 0.2693
N8 N 0.1796(7) 0.0136(8) 0.3256(4)
Ag2_2 Ag 0.19550(8) 0.08831(8) -0.12829(4)
Ag2A Ag 0.80450(8) -0.08831(8) 0.12829(4)
N5_2 N 0.3025(7) -0.0846(7) 0.9215(4)
O10A O 0.4237(6) 0.1533(6) 0.8238(4)
loop_
_geom_bond_atom_site_label_1
_geom_bond_atom_site_label_2
_geom_bond_site_symmetry_1
_geom_bond_site_symmetry_2
Ag1 O1 1_555 1_555
Ag2 O6 1_555 1_555
C1 F1 1_555 1_555
F2 C1 1_555 1_555
F3 C1 1_555 1_555
S1 C1 1_555 1_555
O1 S1 1_555 1_555
O2 S1 1_555 1_555
O3 S1 1_555 1_555
C2 F4 1_555 1_555
F5 C2 1_555 1_555
F6 C2 1_555 1_555
S2 C2 1_555 1_555
O4 S2 1_555 1_555
O5 S2 1_555 1_555
O6 S2 1_555 1_555
N1 Ag1 1_555 1_555
N2 H1 1_555 1_555
N3 H2 1_555 1_555
N4 Ag2 1_555 1_555
N5 C21 1_555 1_555
N6 H3 1_555 1_555
N7 H4 1_555 1_555
O7 C8 1_555 1_555
O8 C15 1_555 1_555
O9 C26 1_555 1_555
O10 C33 1_555 1_555
C3 N1 1_555 1_555
H5 C3 1_555 1_555
C4 C3 1_555 1_555
H6 C4 1_555 1_555
C5 C4 1_555 1_555
C6 C5 1_555 1_555
H7 C6 1_555 1_555
C7 N1 1_555 1_555
H8 C7 1_555 1_555
C8 N2 1_555 1_555
C9 N2 1_555 1_555
C10 C9 1_555 1_555
H9 C10 1_555 1_555
C11 C10 1_555 1_555
H10 C11 1_555 1_555
C12 C11 1_555 1_555
H11 C12 1_555 1_555
C13 C12 1_555 1_555
H12 C13 1_555 1_555
C14 N3 1_555 1_555
C15 N3 1_555 1_555
C16 C15 1_555 1_555
C17 C16 1_555 1_555
H13 C17 1_555 1_555
C18 N4 1_555 1_555
H14 C18 1_555 1_555
C19 N4 1_555 1_555
H15 C19 1_555 1_555
C20 C16 1_555 1_555
H16 C20 1_555 1_555
C21 H17 1_555 1_555
C22 C21 1_555 1_555
H18 C22 1_555 1_555
C23 C22 1_555 1_555
C24 C23 1_555 1_555
H19 C24 1_555 1_555
C25 N5 1_555 1_555
H20 C25 1_555 1_555
C26 N6 1_555 1_555
C27 N6 1_555 1_555
C28 C27 1_555 1_555
H21 C28 1_555 1_555
C29 C28 1_555 1_555
H22 C29 1_555 1_555
C30 C29 1_555 1_555
H23 C30 1_555 1_555
C31 C30 1_555 1_555
H24 C31 1_555 1_555
C32 N7 1_555 1_555
C33 N7 1_555 1_555
C34 C33 1_555 1_555
C35 C34 1_555 1_555
H25 C35 1_555 1_555
C36 C35 1_555 1_555
H26 C36 1_555 1_555
C37 H27 1_555 1_555
C38 C34 1_555 1_555
H28 C38 1_555 1_555
N8 Ag1 1_555 1_555
Ag2_2 N5 1_555 1_555
Ag2A O10 1_555 1_555
N5_2 Ag2 1_555 1_555
O10A Ag2 1_555 1_555
C5 C8 1_555 1_555
C6 C7 1_555 1_555
C9 C14 1_555 1_555
C13 C14 1_555 1_555
C17 C18 1_555 1_555
C19 C20 1_555 1_555
C23 C26 1_555 1_555
C24 C25 1_555 1_555
C27 C32 1_555 1_555
C31 C32 1_555 1_555
C36 N8 1_555 1_555
C37 C38 1_555 1_555
C37 N8 1_555 1_555

#END
