
#######################################################################
#
#                 Cambridge Crystallographic Data Centre
#                                CCDC 
#
#######################################################################
#
# If this CIF has been generated from an entry in the Cambridge 
# Structural Database, then it will include bibliographic, chemical, 
# crystal, experimental, refinement or atomic coordinate data resulting 
# from the CCDC's data processing and validation procedures.
#
#######################################################################

data_TEHLID
_symmetry_cell_setting           monoclinic
_symmetry_space_group_name_H-M   'P 21/n'
_symmetry_Int_Tables_number      14
_space_group_name_Hall           '-P 2yn'
loop_
_symmetry_equiv_pos_site_id
_symmetry_equiv_pos_as_xyz
1 x,y,z
2 1/2-x,1/2+y,1/2-z
3 -x,-y,-z
4 1/2+x,1/2-y,1/2+z
_cell_length_a                   3.7030(7)
_cell_length_b                   12.227(2)
_cell_length_c                   14.320(3)
_cell_angle_alpha                90
_cell_angle_beta                 90.55(3)
_cell_angle_gamma                90
_cell_volume                     648.331
loop_
_atom_site_label
_atom_site_type_symbol
_atom_site_fract_x
_atom_site_fract_y
_atom_site_fract_z
Ag1 Ag 0.54008(12) 0.43938(3) 1.08371(3)
Cl1 Cl 0.2479(3) 0.28999(9) 0.69940(8)
C1 C 0.1632(12) 0.3302(3) 0.9164(3)
O1 O 0.2952(10) 0.3162(3) 0.9949(2)
C2 C -0.1116(11) 0.1444(4) 0.9268(3)
H1 H -0.1285 0.1552 0.9909
C3 C -0.2291(12) 0.0486(3) 0.8886(3)
H2 H -0.3277 -0.0059 0.9258
C4 C 0.0323(11) 0.2260(3) 0.8715(3)
O2 O 0.1269(10) 0.4162(2) 0.8749(2)
N1 N -0.0534(10) 0.1090(3) 0.7404(2)
C5 C 0.0549(11) 0.2017(3) 0.7785(3)
C6 C -0.1987(12) 0.0347(3) 0.7955(3)
H3 H -0.2838 -0.0299 0.7690
Ag1B Ag 0.45992(12) 0.56062(3) 0.91629(3)
Ag1A Ag 0.95992(12) 0.93938(3) 1.41629(3)
Ag1C Ag 0.04008(12) 0.06062(3) 0.58371(3)
Cl1B Cl 0.7521(3) 0.71001(9) 1.30060(8)
C1B C 0.8368(12) 0.6698(3) 1.0836(3)
O1B O 0.7048(10) 0.6838(3) 1.0051(2)
C2B C 1.1116(11) 0.8556(4) 1.0732(3)
H1B H 1.1285 0.8448 1.0091
C3B C 1.2291(12) 0.9514(3) 1.1114(3)
H2B H 1.3277 1.0059 1.0742
C4B C 0.9677(11) 0.7740(3) 1.1285(3)
O2B O 0.8731(10) 0.5838(2) 1.1251(2)
N1B N 1.0534(10) 0.8910(3) 1.2596(2)
N1A N 0.5534(10) 0.6090(3) 0.7596(2)
N1C N 0.4466(10) 0.3910(3) 1.2404(2)
C5B C 0.9451(11) 0.7983(3) 1.2215(3)
C6B C 1.1987(12) 0.9653(3) 1.2045(3)
H3B H 1.2838 1.0299 1.2310
loop_
_geom_bond_atom_site_label_1
_geom_bond_atom_site_label_2
_geom_bond_site_symmetry_1
_geom_bond_site_symmetry_2
Ag1 O1 1_555 1_555
Cl1 C5 1_555 1_555
C1 O1 1_555 1_555
C2 H1 1_555 1_555
C3 C2 1_555 1_555
H2 C3 1_555 1_555
C4 C1 1_555 1_555
O2 C1 1_555 1_555
N1 C5 1_555 1_555
C5 C4 1_555 1_555
C6 C3 1_555 1_555
H3 C6 1_555 1_555
Ag1B Ag1 1_555 1_555
Ag1A N1B 1_555 1_555
Ag1C N1 1_555 1_555
Cl1B C5B 1_555 1_555
C1B O1B 1_555 1_555
O1B Ag1B 1_555 1_555
C2B H1B 1_555 1_555
C3B C2B 1_555 1_555
H2B C3B 1_555 1_555
C4B C1B 1_555 1_555
O2B Ag1 1_555 1_555
N1B C5B 1_555 1_555
N1A Ag1B 1_555 1_555
N1C Ag1 1_555 1_555
C5B C4B 1_555 1_555
C6B C3B 1_555 1_555
H3B C6B 1_555 1_555
C2 C4 1_555 1_555
O2 Ag1B 1_555 1_555
N1 C6 1_555 1_555
C1B O2B 1_555 1_555
C2B C4B 1_555 1_555
N1B C6B 1_555 1_555

#END
