
#######################################################################
#
#                 Cambridge Crystallographic Data Centre
#                                CCDC 
#
#######################################################################
#
# If this CIF has been generated from an entry in the Cambridge 
# Structural Database, then it will include bibliographic, chemical, 
# crystal, experimental, refinement or atomic coordinate data resulting 
# from the CCDC's data processing and validation procedures.
#
#######################################################################

data_TEHMEZ
_symmetry_cell_setting           monoclinic
_symmetry_space_group_name_H-M   'P 21/c'
_symmetry_Int_Tables_number      14
_space_group_name_Hall           '-P 2ybc'
loop_
_symmetry_equiv_pos_site_id
_symmetry_equiv_pos_as_xyz
1 x,y,z
2 -x,1/2+y,1/2-z
3 -x,-y,-z
4 x,1/2-y,1/2+z
_cell_length_a                   11.470(2)
_cell_length_b                   19.039(4)
_cell_length_c                   9.852(2)
_cell_angle_alpha                90
_cell_angle_beta                 99.69(3)
_cell_angle_gamma                90
_cell_volume                     2120.76
loop_
_atom_site_label
_atom_site_type_symbol
_atom_site_fract_x
_atom_site_fract_y
_atom_site_fract_z
Ag1 Ag 0.83860(4) 0.01593(2) 0.43983(4)
S1 S 1.00312(13) 0.12921(7) 0.29315(13)
O1 O 1.0004(4) 0.08574(19) 0.1719(3)
O2 O 0.8897(3) 0.1451(2) 0.3271(4)
O3 O 1.0914(3) 0.1085(2) 0.4077(3)
C1 C 1.0545(5) 0.2128(3) 0.2374(6)
F1 F 0.9773(3) 0.23998(17) 0.1353(3)
F2 F 1.0718(3) 0.25888(17) 0.3392(4)
F3 F 1.1564(3) 0.20445(17) 0.1911(3)
N1 N 0.8247(4) 0.0820(2) 0.6137(4)
C2 C 0.8800(4) 0.0664(3) 0.7415(5)
H1 H 0.9255 0.0245 0.7550
C3 C 0.8738(5) 0.1083(3) 0.8536(5)
H2 H 0.9153 0.0959 0.9421
C4 C 0.8061(5) 0.1688(3) 0.8353(5)
H3 H 0.8007 0.1987 0.9112
C5 C 0.7462(4) 0.1851(2) 0.7051(5)
C6 C 0.7606(4) 0.1415(2) 0.5972(5)
H4 H 0.7235 0.1542 0.5070
C7 C 0.6725(4) 0.2498(2) 0.6743(5)
O4 O 0.6537(3) 0.27616(17) 0.5581(3)
N2 N 0.6247(3) 0.2754(2) 0.7804(4)
H5 H 0.6368 0.2514 0.8579
C8 C 0.5571(4) 0.3372(2) 0.7771(4)
C9 C 0.5968(4) 0.4009(3) 0.7297(5)
H6 H 0.6665 0.4022 0.6895
C10 C 0.5335(5) 0.4617(3) 0.7420(5)
H7 H 0.5591 0.5048 0.7083
C11 C 0.4331(5) 0.4605(3) 0.8029(5)
H8 H 0.3930 0.5031 0.8149
C12 C 0.3908(4) 0.3979(3) 0.8462(5)
H9 H 0.3208 0.3970 0.8858
C13 C 0.4524(4) 0.3358(2) 0.8311(4)
N3 N 0.4058(3) 0.27057(19) 0.8679(4)
H10 H 0.3983 0.2629 0.9541
C14 C 0.3733(4) 0.2206(2) 0.7735(5)
O5 O 0.3890(3) 0.22603(16) 0.6525(3)
C15 C 0.3129(4) 0.1559(2) 0.8160(5)
C16 C 0.3096(4) 0.1368(3) 0.9511(5)
H11 H 0.3480 0.1645 1.0257
C17 C 0.2488(5) 0.0764(3) 0.9747(5)
H12 H 0.2436 0.0625 1.0661
C18 C 0.1964(5) 0.0369(3) 0.8654(5)
H13 H 0.1561 -0.0048 0.8831
C19 C 0.2556(4) 0.1142(2) 0.7121(5)
H14 H 0.2557 0.1285 0.6198
N4 N 0.1994(4) 0.0546(2) 0.7332(4)
Ag1B Ag 1.16140(4) -0.01593(2) 0.56017(4)
Ag1B_2 Ag 0.16140(4) -0.01593(2) 0.56017(4)
O3B O 0.9086(3) -0.1085(2) 0.5923(3)
N4B N 0.8006(4) -0.0546(2) 0.2668(4)
loop_
_geom_bond_atom_site_label_1
_geom_bond_atom_site_label_2
_geom_bond_site_symmetry_1
_geom_bond_site_symmetry_2
Ag1 O2 1_555 1_555
S1 O1 1_555 1_555
O2 S1 1_555 1_555
O3 S1 1_555 1_555
C1 S1 1_555 1_555
F1 C1 1_555 1_555
F2 C1 1_555 1_555
F3 C1 1_555 1_555
N1 Ag1 1_555 1_555
C2 N1 1_555 1_555
H1 C2 1_555 1_555
C3 C2 1_555 1_555
H2 C3 1_555 1_555
C4 C3 1_555 1_555
H3 C4 1_555 1_555
C5 C4 1_555 1_555
C6 N1 1_555 1_555
H4 C6 1_555 1_555
C7 C5 1_555 1_555
O4 C7 1_555 1_555
N2 C7 1_555 1_555
H5 N2 1_555 1_555
C8 N2 1_555 1_555
C9 C8 1_555 1_555
H6 C9 1_555 1_555
C10 C9 1_555 1_555
H7 C10 1_555 1_555
C11 C10 1_555 1_555
H8 C11 1_555 1_555
C12 C11 1_555 1_555
H9 C12 1_555 1_555
C13 C8 1_555 1_555
N3 C13 1_555 1_555
H10 N3 1_555 1_555
C14 N3 1_555 1_555
O5 C14 1_555 1_555
C15 C14 1_555 1_555
C16 C15 1_555 1_555
H11 C16 1_555 1_555
C17 C16 1_555 1_555
H12 C17 1_555 1_555
C18 C17 1_555 1_555
H13 C18 1_555 1_555
C19 C15 1_555 1_555
H14 C19 1_555 1_555
N4 C18 1_555 1_555
Ag1B O3 1_555 1_555
Ag1B_2 N4 1_555 1_555
O3B Ag1 1_555 1_555
N4B Ag1 1_555 1_555
C5 C6 1_555 1_555
C12 C13 1_555 1_555
C19 N4 1_555 1_555

#END
