
#######################################################################
#
#                 Cambridge Crystallographic Data Centre
#                                CCDC 
#
#######################################################################
#
# If this CIF has been generated from an entry in the Cambridge 
# Structural Database, then it will include bibliographic, chemical, 
# crystal, experimental, refinement or atomic coordinate data resulting 
# from the CCDC's data processing and validation procedures.
#
#######################################################################

data_TEHMUP
_symmetry_cell_setting           monoclinic
_symmetry_space_group_name_H-M   'C 2/c'
_symmetry_Int_Tables_number      15
_space_group_name_Hall           '-C 2yn'
loop_
_symmetry_equiv_pos_site_id
_symmetry_equiv_pos_as_xyz
1 x,y,z
2 1/2+x,1/2+y,z
3 -x,y,1/2-z
4 1/2-x,1/2+y,1/2-z
5 -x,-y,-z
6 1/2-x,1/2-y,-z
7 x,-y,1/2+z
8 1/2+x,1/2-y,1/2+z
_cell_length_a                   15.8946(14)
_cell_length_b                   9.3986(8)
_cell_length_c                   14.0599(11)
_cell_angle_alpha                90
_cell_angle_beta                 91.9440(10)
_cell_angle_gamma                90
_cell_volume                     2099.16
loop_
_atom_site_label
_atom_site_type_symbol
_atom_site_fract_x
_atom_site_fract_y
_atom_site_fract_z
O11 O 0.5809(3) 0.9010(5) 0.3534(5)
H9 H 0.579(5) 0.987(3) 0.371(6)
H10 H 0.627(3) 0.882(8) 0.328(6)
Yb1 Yb 0.358547(9) 0.681875(15) 0.457318(10)
O1 O 0.36020(17) 0.4505(3) 0.4166(2)
O2 O 0.2660(2) 0.3880(3) 0.3044(2)
O3 O 0.26055(15) -0.1220(3) 0.46800(19)
O4 O 0.37921(16) -0.0843(3) 0.3996(2)
C1 C 0.3192(2) 0.3604(4) 0.3683(3)
C2 C 0.3394(3) 0.2097(4) 0.3903(3)
H1 H 0.3960 0.1843 0.3952
C3 C 0.2834(2) 0.1092(4) 0.4035(3)
H2 H 0.2264 0.1312 0.3995
C4 C 0.3102(2) -0.0376(4) 0.4244(3)
O5 O 0.4261(7) 0.5880(12) 0.5960(6)
O6 O 0.4096(6) 0.8161(14) 0.5854(8)
C5 C 0.4368(14) 0.7092(10) 0.6303(10)
C6 C 0.4828(5) 0.7344(8) 0.7232(5)
O9 O 0.2915(2) 0.6761(3) 0.3127(2)
H5 H 0.270(3) 0.597(2) 0.296(3)
H6 H 0.275(3) 0.743(3) 0.277(3)
O10 O 0.48929(19) 0.6784(3) 0.4029(3)
H7 H 0.515(2) 0.755(3) 0.388(4)
H8 H 0.524(2) 0.613(3) 0.417(3)
Yb1_2 Yb 0.358547(9) 1.681875(15) 0.457318(10)
Yb1_3 Yb 0.358547(9) -0.318125(15) 0.457318(10)
Yb1E Yb 0.141453(9) -0.181875(15) 0.542682(10)
Yb1B Yb 0.641453(9) 0.681875(15) 1.042682(10)
Yb1E_2 Yb 0.141453(9) 0.818125(15) 0.542682(10)
O1_2 O 0.36020(17) 1.4505(3) 0.4166(2)
O2_2 O 0.2660(2) 1.3880(3) 0.3044(2)
O3_2 O 0.26055(15) 0.8780(3) 0.46800(19)
O3E O 0.23945(15) 0.6220(3) 0.53200(19)
O3_3 O 0.26055(15) 1.8780(3) 0.46800(19)
O3E_2 O 0.23945(15) 1.6220(3) 0.53200(19)
O4_2 O 0.37921(16) 0.9157(3) 0.3996(2)
O4_3 O 0.37921(16) 1.9157(3) 0.3996(2)
C1_2 C 0.3192(2) 1.3604(4) 0.3683(3)
C2_2 C 0.3394(3) 1.2097(4) 0.3903(3)
H1_2 H 0.3960 1.1843 0.3952
C3_2 C 0.2834(2) 1.1092(4) 0.4035(3)
H2_2 H 0.2264 1.1312 0.3995
C4_2 C 0.3102(2) 0.9624(4) 0.4244(3)
O5B O 0.5739(7) 0.5880(12) 0.9040(6)
O5_2 O 0.4261(7) 1.5880(12) 0.5960(6)
O6B O 0.5904(6) 0.8161(14) 0.9146(8)
O6_2 O 0.4096(6) 1.8161(14) 0.5854(8)
C5B C 0.5632(14) 0.7092(10) 0.8697(10)
C6B C 0.5172(5) 0.7344(8) 0.7768(5)
O9_2 O 0.2915(2) 1.6761(3) 0.3127(2)
H5_2 H 0.270(3) 1.597(2) 0.296(3)
H6_2 H 0.275(3) 1.743(3) 0.277(3)
O10_2 O 0.48929(19) 1.6784(3) 0.4029(3)
H7_2 H 0.515(2) 1.755(3) 0.388(4)
H8_2 H 0.524(2) 1.613(3) 0.417(3)
O7? O 0.5864(6) 0.5458(13) 0.9128(6)
O8? O 0.5812(7) 0.7772(13) 0.8943(8)
H3? H 0.4867 0.8289 0.7489
C7? C 0.5178(5) 0.6303(9) 0.7729(5)
H4? H 0.5130 0.5357 0.7476
C8? C 0.5639(15) 0.6530(10) 0.8662(11)
loop_
_geom_bond_atom_site_label_1
_geom_bond_atom_site_label_2
_geom_bond_site_symmetry_1
_geom_bond_site_symmetry_2
Yb1 O1 1_555 1_555
O1 C1 1_555 1_555
O2 C1 1_555 1_555
O3 C4 1_555 1_555
O4 C4 1_555 1_555
C1 C2 1_555 1_555
C2 H1 1_555 1_555
C3 C2 1_555 1_555
H2 C3 1_555 1_555
C4 C3 1_555 1_555
O5 Yb1 1_555 1_555
O6 Yb1 1_555 1_555
C5 O5 1_555 1_555
C6 C5 1_555 1_555
O9 Yb1 1_555 1_555
H5 O9 1_555 1_555
H6 O9 1_555 1_555
O10 Yb1 1_555 1_555
H7 O10 1_555 1_555
H8 O10 1_555 1_555
O11 H9 1_555 1_555
H10 O11 1_555 1_555
Yb1_2 O1_2 1_555 1_555
Yb1_3 O3 1_555 1_555
Yb1E O3 1_555 1_555
Yb1B O5B 1_555 1_555
Yb1E_2 O3_2 1_555 1_555
O1_2 C1_2 1_555 1_555
O2_2 C1_2 1_555 1_555
O3_2 Yb1 1_555 1_555
O3E Yb1 1_555 1_555
O3_3 Yb1_2 1_555 1_555
O3E_2 Yb1_2 1_555 1_555
O4_2 Yb1 1_555 1_555
O4_3 Yb1_2 1_555 1_555
C1_2 C2_2 1_555 1_555
C2_2 H1_2 1_555 1_555
C3_2 C2_2 1_555 1_555
H2_2 C3_2 1_555 1_555
C4_2 O3_2 1_555 1_555
O5B C5B 1_555 1_555
O5_2 Yb1_2 1_555 1_555
O6B Yb1B 1_555 1_555
O6_2 Yb1_2 1_555 1_555
C5B O6B 1_555 1_555
C6B C6 1_555 1_555
O9_2 Yb1_2 1_555 1_555
H5_2 O9_2 1_555 1_555
H6_2 O9_2 1_555 1_555
O10_2 Yb1_2 1_555 1_555
H7_2 O10_2 1_555 1_555
H8_2 O10_2 1_555 1_555
O4 Yb1_3 1_555 1_555
O6 C5 1_555 1_555
Yb1E_2 O3E 1_555 1_555
O4_2 C4_2 1_555 1_555
C3_2 C4_2 1_555 1_555
C5B C6B 1_555 1_555

#END
