
#######################################################################
#
#                 Cambridge Crystallographic Data Centre
#                                CCDC 
#
#######################################################################
#
# If this CIF has been generated from an entry in the Cambridge 
# Structural Database, then it will include bibliographic, chemical, 
# crystal, experimental, refinement or atomic coordinate data resulting 
# from the CCDC's data processing and validation procedures.
#
#######################################################################

data_TEHMOJ
_symmetry_cell_setting           monoclinic
_symmetry_space_group_name_H-M   'P 21/c'
_symmetry_Int_Tables_number      14
_space_group_name_Hall           '-P 2ybc'
loop_
_symmetry_equiv_pos_site_id
_symmetry_equiv_pos_as_xyz
1 x,y,z
2 -x,1/2+y,1/2-z
3 -x,-y,-z
4 x,1/2-y,1/2+z
_cell_length_a                   8.3950(4)
_cell_length_b                   14.6394(8)
_cell_length_c                   8.7713(5)
_cell_angle_alpha                90
_cell_angle_beta                 103.0970(10)
_cell_angle_gamma                90
_cell_volume                     1049.93
loop_
_atom_site_label
_atom_site_type_symbol
_atom_site_fract_x
_atom_site_fract_y
_atom_site_fract_z
Ce1 Ce 0.132272(16) 0.190641(8) 0.097657(14)
O1 O 0.3151(2) 0.30891(11) 0.2269(2)
O2 O 0.3819(2) 0.33102(13) 0.4843(2)
O3 O 0.8904(2) 0.27583(13) 0.13663(19)
O4 O 0.9295(2) 0.35453(11) 0.35962(19)
C1 C 0.4177(3) 0.32267(15) 0.3529(3)
C2 C 0.5957(3) 0.32884(17) 0.3544(3)
H1 H 0.6663 0.3461 0.4477
C3 C 0.6602(3) 0.31173(16) 0.2340(3)
H2 H 0.5906 0.2974 0.1385
C4 C 0.8397(3) 0.31421(15) 0.2439(3)
O5 O 0.0960(2) 0.18255(10) 0.4043(2)
O6 O -0.0088(2) 0.07470(12) 0.23794(19)
C5 C 0.0353(3) 0.10317(16) 0.3760(3)
C6 C 0.0239(3) 0.04307(16) 0.5096(3)
H3 H 0.0514 0.0669 0.6104
O7 O 0.3622(2) 0.11366(13) 0.3012(2)
O8 O 0.5538(3) 0.05364(16) 0.1930(2)
H4 H 0.5080 0.0848 0.1181
C7 C 0.4753(3) 0.06074(18) 0.3048(3)
C8 C 0.5335(3) -0.00095(18) 0.4392(3)
H5 H 0.620(4) -0.040(2) 0.432(3)
O9 O 0.1826(2) 0.02320(11) 0.0236(2)
H6 H 0.149(4) -0.0188(15) 0.077(2)
H7 H 0.156(4) 0.0076(18) -0.0732(13)
Ce1C Ce 0.132272(16) 0.309359(8) -0.402343(14)
Ce1C_2 Ce 0.132272(16) 0.309359(8) 0.597657(14)
Ce1_2 Ce 1.132272(16) 0.190641(8) 0.097657(14)
Ce1C_3 Ce 1.132272(16) 0.309359(8) 0.597657(14)
Ce1B Ce -0.132272(16) -0.190641(8) 0.902343(14)
Ce1A Ce -0.132272(16) -0.309359(8) 0.402343(14)
Ce1B_2 Ce 0.867728(16) -0.190641(8) 0.902343(14)
Ce1C_4 Ce 1.132272(16) 0.309359(8) -0.402343(14)
O1C O 0.3151(2) 0.19109(11) -0.2731(2)
O2C O 0.3819(2) 0.16898(13) -0.0157(2)
O2_2 O 0.3819(2) 0.33102(13) -0.5157(2)
O3C O 0.8904(2) 0.22417(13) -0.36337(19)
O3_2 O -0.1096(2) 0.27583(13) 0.13663(19)
O3C_2 O -0.1096(2) 0.22417(13) -0.36337(19)
O4C O 0.9295(2) 0.14547(11) -0.14038(19)
O4C_2 O -0.0705(2) 0.14547(11) -0.14038(19)
O4_2 O -0.0705(2) 0.35453(11) -0.64038(19)
C1C C 0.4177(3) 0.17733(15) -0.1471(3)
C2C C 0.5957(3) 0.17116(17) -0.1456(3)
H1C H 0.6663 0.1539 -0.0523
C3C C 0.6602(3) 0.18827(16) -0.2660(3)
H2C H 0.5906 0.2026 -0.3615
C4C C 0.8397(3) 0.18579(15) -0.2561(3)
O5B O -0.0960(2) -0.18255(10) 0.5957(2)
O5C O 0.0960(2) 0.31745(10) -0.0957(2)
O5_2 O 0.0960(2) 0.18255(10) -0.5957(2)
O6B O 0.0088(2) -0.07470(12) 0.76206(19)
O6C O -0.0088(2) 0.42530(12) -0.26206(19)
C5B C -0.0353(3) -0.10317(16) 0.6240(3)
C6B C -0.0239(3) -0.04307(16) 0.4904(3)
H3B H -0.0514 -0.0669 0.3896
O7B O 0.6378(2) -0.11366(13) 0.6988(2)
O7C O 0.3622(2) 0.38634(13) -0.1988(2)
O8B O 0.4462(3) -0.05364(16) 0.8070(2)
H4B H 0.4920 -0.0848 0.8819
C7B C 0.5247(3) -0.06074(18) 0.6952(3)
C8B C 0.4665(3) 0.00095(18) 0.5608(3)
H5B H 0.380(4) 0.040(2) 0.568(3)
O9C O 0.1826(2) 0.47680(11) -0.4764(2)
H6C H 0.149(4) 0.5188(15) -0.423(2)
H7C H 0.156(4) 0.4924(18) -0.5732(13)
loop_
_geom_bond_atom_site_label_1
_geom_bond_atom_site_label_2
_geom_bond_site_symmetry_1
_geom_bond_site_symmetry_2
Ce1 O1 1_555 1_555
O1 C1 1_555 1_555
O2 C1 1_555 1_555
O3 C4 1_555 1_555
O4 C4 1_555 1_555
C1 C2 1_555 1_555
C2 H1 1_555 1_555
C3 C2 1_555 1_555
H2 C3 1_555 1_555
C4 C3 1_555 1_555
O5 Ce1 1_555 1_555
O6 Ce1 1_555 1_555
C5 O5 1_555 1_555
C6 C5 1_555 1_555
H3 C6 1_555 1_555
O7 Ce1 1_555 1_555
O8 H4 1_555 1_555
C7 O7 1_555 1_555
C8 C7 1_555 1_555
H5 C8 1_555 1_555
O9 Ce1 1_555 1_555
H6 O9 1_555 1_555
H7 O9 1_555 1_555
Ce1C O1C 1_555 1_555
Ce1C_2 O2 1_555 1_555
Ce1_2 O3 1_555 1_555
Ce1C_3 O4 1_555 1_555
Ce1B O5B 1_555 1_555
Ce1A O5B 1_555 1_555
Ce1B_2 O7B 1_555 1_555
Ce1C_4 O3C 1_555 1_555
O1C C1C 1_555 1_555
O2C Ce1 1_555 1_555
O2_2 Ce1C 1_555 1_555
O3C C4C 1_555 1_555
O3_2 Ce1 1_555 1_555
O3C_2 Ce1C 1_555 1_555
O4C Ce1_2 1_555 1_555
O4C_2 Ce1 1_555 1_555
O4_2 Ce1C 1_555 1_555
C1C O2C 1_555 1_555
C2C C1C 1_555 1_555
H1C C2C 1_555 1_555
C3C C2C 1_555 1_555
H2C C3C 1_555 1_555
C4C O4C 1_555 1_555
O5B C5B 1_555 1_555
O5C Ce1 1_555 1_555
O5_2 Ce1C 1_555 1_555
O6B Ce1B 1_555 1_555
O6C Ce1C 1_555 1_555
C5B O6B 1_555 1_555
C6B C6 1_555 1_555
H3B C6B 1_555 1_555
O7B C7B 1_555 1_555
O7C Ce1C 1_555 1_555
O8B H4B 1_555 1_555
C7B O8B 1_555 1_555
C8B C8 1_555 1_555
H5B C8B 1_555 1_555
O9C Ce1C 1_555 1_555
H6C O9C 1_555 1_555
H7C O9C 1_555 1_555
O5 Ce1C_2 1_555 1_555
O6 C5 1_555 1_555
O8 C7 1_555 1_555
Ce1C O5C 1_555 1_555
C3C C4C 1_555 1_555
C5B C6B 1_555 1_555
C7B C8B 1_555 1_555

#END
