
#######################################################################
#
#                 Cambridge Crystallographic Data Centre
#                                CCDC 
#
#######################################################################
#
# If this CIF has been generated from an entry in the Cambridge 
# Structural Database, then it will include bibliographic, chemical, 
# crystal, experimental, refinement or atomic coordinate data resulting 
# from the CCDC's data processing and validation procedures.
#
#######################################################################

data_TEHMAV
_symmetry_cell_setting           orthorhombic
_symmetry_space_group_name_H-M   'P c c n'
_symmetry_Int_Tables_number      56
_space_group_name_Hall           '-P 2ab 2ac'
loop_
_symmetry_equiv_pos_site_id
_symmetry_equiv_pos_as_xyz
1 x,y,z
2 1/2-x,1/2-y,z
3 -x,1/2+y,1/2-z
4 1/2+x,-y,1/2-z
5 -x,-y,-z
6 1/2+x,1/2+y,-z
7 x,1/2-y,1/2+z
8 1/2-x,y,1/2+z
_cell_length_a                   19.253(4)
_cell_length_b                   24.785(5)
_cell_length_c                   9.6781(19)
_cell_angle_alpha                90
_cell_angle_beta                 90
_cell_angle_gamma                90
_cell_volume                     4618.25
loop_
_atom_site_label
_atom_site_type_symbol
_atom_site_fract_x
_atom_site_fract_y
_atom_site_fract_z
Ag1 Ag -0.199855(16) 0.523971(14) -0.17268(3)
N1 N -0.32965(19) 0.53368(14) 0.0108(4)
O1 O -0.32869(18) 0.53989(16) -0.1176(3)
O2 O -0.38551(16) 0.53092(16) 0.0749(4)
O3 O -0.27475(17) 0.52875(13) 0.0758(3)
N2 N -0.19542(15) 0.43285(14) -0.1471(3)
C1 C -0.2235(2) 0.40863(18) -0.0351(4)
H1 H -0.2529 0.4291 0.0237
C2 C -0.2112(2) 0.35543(18) -0.0031(4)
H2 H -0.2324 0.3396 0.0757
C3 C -0.1680(2) 0.32523(17) -0.0853(4)
C4 C -0.1393(2) 0.34962(18) -0.2010(4)
H3 H -0.1099 0.3299 -0.2615
C5 C -0.1543(2) 0.40318(18) -0.2262(4)
H4 H -0.1339 0.4197 -0.3050
C6 C -0.1483(2) 0.26921(17) -0.0403(4)
O4 O -0.15225(16) 0.25661(12) 0.0822(3)
N3 N 0.00190(17) 0.23451(12) 0.0134(3)
H5 H 0.0073 0.2404 0.1024
C7 C -0.0918(2) 0.18613(17) -0.1053(4)
C8 C -0.1204(2) 0.13784(19) -0.1500(4)
H6 H -0.1609 0.1382 -0.2062
C9 C -0.0904(2) 0.08905(19) -0.1131(5)
H7 H -0.1104 0.0560 -0.1430
C10 C -0.0310(2) 0.08885(18) -0.0323(5)
H8 H -0.0107 0.0556 -0.0050
C11 C -0.0013(2) 0.13685(16) 0.0087(4)
H9 H 0.0396 0.1364 0.0634
C12 C -0.0306(2) 0.18557(17) -0.0292(4)
N4 N -0.12538(17) 0.23561(14) -0.1381(3)
H10 H -0.1312 0.2443 -0.2255
C13 C 0.0247(2) 0.27221(17) -0.0761(4)
O5 O 0.01699(16) 0.26875(12) -0.2014(3)
C14 C 0.0621(2) 0.31981(16) -0.0144(4)
C15 C 0.0545(2) 0.33635(17) 0.1201(4)
H11 H 0.0232 0.3183 0.1801
C16 C 0.0931(2) 0.37962(18) 0.1674(4)
H12 H 0.0874 0.3906 0.2608
C17 C 0.1432(2) 0.39148(18) -0.0438(4)
H13 H 0.1737 0.4109 -0.1027
C18 C 0.1066(2) 0.34899(18) -0.0983(4)
H14 H 0.1117 0.3397 -0.1930
N5 N 0.13797(17) 0.40686(14) 0.0880(3)
Ag1G Ag -0.300145(16) 0.523971(14) 0.32732(3)
Ag1D Ag 0.199855(16) 0.476029(14) 0.17268(3)
O3G O -0.22525(17) 0.52875(13) -0.4242(3)
N5D N -0.13797(17) 0.59314(14) -0.0880(3)
O6 O -0.0452(3) 0.0286(2) -0.4489(6)
H15 H -0.0870 0.0204 -0.4621
C19 C -0.0094(6) -0.0159(4) -0.3473(12)
H16 H 0.0359 -0.0025 -0.3160
H17 H -0.0030 -0.0498 -0.3976
H18 H -0.0394 -0.0221 -0.2671
C22 C 0.1983(12) 0.3151(11) -0.505(3)
H27 H 0.2409 0.3299 -0.4644
H28 H 0.1728 0.2948 -0.4342
H29 H 0.1692 0.3446 -0.5392
O9 O 0.2168(11) 0.2780(10) -0.623(2)
O7? O 0.0178(3) -0.0570(3) -0.4282(7)
H19? H 0.0248 -0.0650 -0.5114
C20? C 0.0101(7) -0.0044(4) -0.4166(15)
H20? H -0.0389 0.0040 -0.3995
H21? H 0.0251 0.0131 -0.5023
H22? H 0.0383 0.0088 -0.3394
O8? O 0.1729(13) 0.2845(11) -0.401(3)
H23? H 0.1562 0.2881 -0.4810
C21? C 0.240(2) 0.2734(14) -0.410(3)
H24? H 0.2665 0.3010 -0.3611
H25? H 0.2538 0.2729 -0.5078
H26? H 0.2489 0.2380 -0.3691
H30? H 0.2415 0.2525 -0.5932
loop_
_geom_bond_atom_site_label_1
_geom_bond_atom_site_label_2
_geom_bond_site_symmetry_1
_geom_bond_site_symmetry_2
Ag1 O1 1_555 1_555
N1 O1 1_555 1_555
O2 N1 1_555 1_555
O3 N1 1_555 1_555
N2 Ag1 1_555 1_555
C1 N2 1_555 1_555
H1 C1 1_555 1_555
C2 C1 1_555 1_555
H2 C2 1_555 1_555
C3 C2 1_555 1_555
C4 C3 1_555 1_555
H3 C4 1_555 1_555
C5 N2 1_555 1_555
H4 C5 1_555 1_555
C6 C3 1_555 1_555
O4 C6 1_555 1_555
N3 H5 1_555 1_555
C7 C8 1_555 1_555
C8 H6 1_555 1_555
C9 C8 1_555 1_555
H7 C9 1_555 1_555
C10 C9 1_555 1_555
H8 C10 1_555 1_555
C11 C10 1_555 1_555
H9 C11 1_555 1_555
C12 N3 1_555 1_555
N4 C6 1_555 1_555
H10 N4 1_555 1_555
C13 N3 1_555 1_555
O5 C13 1_555 1_555
C14 C13 1_555 1_555
C15 C14 1_555 1_555
H11 C15 1_555 1_555
C16 C15 1_555 1_555
H12 C16 1_555 1_555
C17 H13 1_555 1_555
C18 C14 1_555 1_555
H14 C18 1_555 1_555
N5 C16 1_555 1_555
O6 H15 1_555 1_555
C19 O6 1_555 1_555
H16 C19 1_555 1_555
H17 C19 1_555 1_555
H18 C19 1_555 1_555
C22 H27 1_555 1_555
H28 C22 1_555 1_555
H29 C22 1_555 1_555
O9 C22 1_555 1_555
Ag1G O3 1_555 1_555
Ag1D N5 1_555 1_555
O3G Ag1 1_555 1_555
N5D Ag1 1_555 1_555
C4 C5 1_555 1_555
C7 C12 1_555 1_555
C7 N4 1_555 1_555
C11 C12 1_555 1_555
C17 C18 1_555 1_555
C17 N5 1_555 1_555

#END
