
#######################################################################
#
#                 Cambridge Crystallographic Data Centre
#                                CCDC 
#
#######################################################################
#
# If this CIF has been generated from an entry in the Cambridge 
# Structural Database, then it will include bibliographic, chemical, 
# crystal, experimental, refinement or atomic coordinate data resulting 
# from the CCDC's data processing and validation procedures.
#
#######################################################################

data_TEHMID
_symmetry_cell_setting           monoclinic
_symmetry_space_group_name_H-M   'P 21'
_symmetry_Int_Tables_number      4
_space_group_name_Hall           'P 2yb'
loop_
_symmetry_equiv_pos_site_id
_symmetry_equiv_pos_as_xyz
1 x,y,z
2 -x,1/2+y,-z
_cell_length_a                   8.7166(17)
_cell_length_b                   13.711(3)
_cell_length_c                   9.2663(19)
_cell_angle_alpha                90
_cell_angle_beta                 112.10(3)
_cell_angle_gamma                90
_cell_volume                     1026.08
loop_
_atom_site_label
_atom_site_type_symbol
_atom_site_fract_x
_atom_site_fract_y
_atom_site_fract_z
Ag1 Ag -0.31554(4) 0.84146(2) 0.21162(4)
N1 N -0.3200(7) 0.6875(4) 0.1628(7)
N2 N -0.5997(6) 0.4778(4) 0.3020(6)
H1 H -0.5495 0.5263 0.3639
N3 N -0.6028(6) 0.2685(3) 0.3217(5)
H2 H -0.5702 0.2935 0.2506
N4 N -0.3141(5) -0.0031(4) 0.2354(6)
O1 O -0.6025(6) 0.3877(3) 0.0955(5)
O2 O -0.5630(6) 0.1368(3) 0.4824(5)
C1 C -0.2184(8) 0.6523(5) 0.0995(8)
H3 H -0.1430 0.6956 0.0806
C2 C -0.2175(8) 0.5556(5) 0.0600(7)
H4 H -0.1436 0.5330 0.0138
C3 C -0.3262(7) 0.4919(5) 0.0887(7)
H5 H -0.3286 0.4248 0.0621
C4 C -0.4310(7) 0.5279(4) 0.1570(6)
C5 C -0.4268(7) 0.6270(4) 0.1916(6)
H6 H -0.5004 0.6522 0.2362
C6 C -0.5529(7) 0.4597(4) 0.1815(7)
C7 C -0.7221(7) 0.4265(4) 0.3397(6)
C8 C -0.8409(7) 0.4808(4) 0.3674(6)
H7 H -0.8446 0.5493 0.3505
C9 C -0.9546(7) 0.4385(5) 0.4190(7)
H8 H -1.0358 0.4769 0.4379
C10 C -0.9472(6) 0.3380(7) 0.4425(6)
H9 H -1.0227 0.3080 0.4806
C11 C -0.8333(8) 0.2813(5) 0.4119(7)
H10 H -0.8327 0.2127 0.4260
C12 C -0.7178(6) 0.3246(4) 0.3597(6)
C13 C -0.5360(8) 0.1811(4) 0.3803(7)
C14 C -0.4215(7) 0.1416(4) 0.3090(6)
C15 C -0.4142(7) 0.0407(4) 0.2950(6)
H11 H -0.4834 0.0012 0.3293
C16 C -0.2157(8) 0.0529(5) 0.1881(7)
H12 H -0.1422 0.0223 0.1480
C17 C -0.2176(8) 0.1529(5) 0.1957(8)
H13 H -0.1471 0.1904 0.1601
C18 C -0.3221(8) 0.1987(5) 0.2551(8)
H14 H -0.3261 0.2679 0.2592
Ag1_2 Ag -0.31554(4) -0.15854(2) 0.21162(4)
Ag1A Ag -0.68446(4) 0.34146(2) -0.21162(4)
N4_2 N -0.3141(5) 0.9969(4) 0.2354(6)
O1A O -0.3975(6) 0.8877(3) -0.0955(5)
P1 P -0.20342(19) 0.33049(18) 0.7549(2)
F1 F -0.4066(7) 0.3235(5) 0.6995(8)
F2 F -0.0139(5) 0.3379(6) 0.7784(4)
F3 F -0.2098(17) 0.4449(12) 0.7816(14)
F4 F -0.2550(11) 0.3536(9) 0.5654(11)
F5 F -0.2036(19) 0.2214(11) 0.7122(19)
F6 F -0.1766(12) 0.3199(8) 0.9201(12)
F7? F -0.3739(12) 0.3246(10) 0.7805(13)
F8? F -0.0139(5) 0.3379(6) 0.7784(4)
F9? F -0.2137(14) 0.4512(8) 0.7397(16)
F10? F -0.253(2) 0.3070(13) 0.5899(18)
F11? F -0.1872(12) 0.2151(9) 0.7916(13)
F12? F -0.1167(15) 0.3401(15) 0.9570(13)
loop_
_geom_bond_atom_site_label_1
_geom_bond_atom_site_label_2
_geom_bond_site_symmetry_1
_geom_bond_site_symmetry_2
Ag1 N1 1_555 1_555
P1 F1 1_555 1_555
F2 P1 1_555 1_555
F3 P1 1_555 1_555
F4 P1 1_555 1_555
F5 P1 1_555 1_555
F6 P1 1_555 1_555
N1 C1 1_555 1_555
N2 H1 1_555 1_555
N3 H2 1_555 1_555
N4 C15 1_555 1_555
O1 C6 1_555 1_555
O2 C13 1_555 1_555
C1 H3 1_555 1_555
C2 C1 1_555 1_555
H4 C2 1_555 1_555
C3 C2 1_555 1_555
H5 C3 1_555 1_555
C4 C3 1_555 1_555
C5 N1 1_555 1_555
H6 C5 1_555 1_555
C6 N2 1_555 1_555
C7 N2 1_555 1_555
C8 C7 1_555 1_555
H7 C8 1_555 1_555
C9 C8 1_555 1_555
H8 C9 1_555 1_555
C10 C9 1_555 1_555
H9 C10 1_555 1_555
C11 C10 1_555 1_555
H10 C11 1_555 1_555
C12 N3 1_555 1_555
C13 N3 1_555 1_555
C14 C13 1_555 1_555
C15 C14 1_555 1_555
H11 C15 1_555 1_555
C16 N4 1_555 1_555
H12 C16 1_555 1_555
C17 C16 1_555 1_555
H13 C17 1_555 1_555
C18 C14 1_555 1_555
H14 C18 1_555 1_555
Ag1_2 N4 1_555 1_555
Ag1A O1 1_555 1_555
N4_2 Ag1 1_555 1_555
O1A Ag1 1_555 1_555
C4 C5 1_555 1_555
C4 C6 1_555 1_555
C7 C12 1_555 1_555
C11 C12 1_555 1_555
C17 C18 1_555 1_555

#END
