
#######################################################################
#
#                 Cambridge Crystallographic Data Centre
#                                CCDC 
#
#######################################################################
#
# If this CIF has been generated from an entry in the Cambridge 
# Structural Database, then it will include bibliographic, chemical, 
# crystal, experimental, refinement or atomic coordinate data resulting 
# from the CCDC's data processing and validation procedures.
#
#######################################################################

data_TEHQIG
_symmetry_cell_setting           triclinic
_symmetry_space_group_name_H-M   'P -1'
_symmetry_Int_Tables_number      2
_space_group_name_Hall           '-P 1'
loop_
_symmetry_equiv_pos_site_id
_symmetry_equiv_pos_as_xyz
1 x,y,z
2 -x,-y,-z
_cell_length_a                   7.238(2)
_cell_length_b                   8.881(2)
_cell_length_c                   6.140(1)
_cell_angle_alpha                99.81(2)
_cell_angle_beta                 112.84(2)
_cell_angle_gamma                99.81(2)
_cell_volume                     346.049
loop_
_atom_site_label
_atom_site_type_symbol
_atom_site_fract_x
_atom_site_fract_y
_atom_site_fract_z
Co1 Co 0.0000 0.0000 0.0000
Na1 Na 0.0000 0.5000 0.5000
O1 O -0.0076(2) 0.1272(1) -0.2189(2)
O2 O 0.1741(2) 0.3488(2) -0.2415(3)
O3 O -0.0965(2) 0.2744(2) 0.1629(3)
O4 O -0.2798(3) 0.0656(2) 0.1866(3)
N1 N 0.2578(2) 0.1464(2) 0.2184(3)
N2 N 0.6354(3) 0.3716(2) 0.4624(3)
N3 N -0.1442(3) 0.1279(2) 0.1347(3)
C1 C 0.3133(3) 0.2565(2) 0.1140(3)
C2 C 0.5022(3) 0.3670(2) 0.2374(4)
C3 C 0.5744(3) 0.2656(2) 0.5667(4)
C4 C 0.3851(3) 0.1509(2) 0.4467(3)
C5 C 0.1504(3) 0.2469(2) -0.1361(3)
H1 H 0.5398 0.4443 0.1575
H2 H 0.6654 0.2683 0.7329
H3 H 0.3464 0.0752 0.5282
O1A O 0.0076(2) -0.1272(1) 0.2189(2)
O2A O -0.1741(2) -0.3488(2) 0.2415(3)
N1A N -0.2578(2) -0.1464(2) -0.2184(3)
N2A N -0.6354(3) -0.3716(2) -0.4624(3)
C1A C -0.3133(3) -0.2565(2) -0.1140(3)
C2A C -0.5022(3) -0.3670(2) -0.2374(4)
C3A C -0.5744(3) -0.2656(2) -0.5667(4)
C4A C -0.3851(3) -0.1509(2) -0.4467(3)
C5A C -0.1504(3) -0.2469(2) 0.1361(3)
H1A H -0.5398 -0.4443 -0.1575
H2A H -0.6654 -0.2683 -0.7329
H3A H -0.3464 -0.0752 -0.5282
O3A O 0.0965(2) -0.2744(2) -0.1629(3)
O4A O 0.2798(3) -0.0656(2) -0.1866(3)
N3A N 0.1442(3) -0.1279(2) -0.1347(3)
Na1_2 Na 0.0000 0.5000 -0.5000
Na1_3 Na 1.0000 0.5000 0.5000
Na1_4 Na 0.0000 -0.5000 0.5000
Na1_5 Na -1.0000 -0.5000 -0.5000
Na1_6 Na 0.0000 -0.5000 -0.5000
O2_2 O 0.1741(2) 0.3488(2) 0.7585(3)
O2A_2 O -0.1741(2) 0.6512(2) 0.2415(3)
O3A_2 O 0.0965(2) 0.7256(2) 0.8371(3)
N2_2 N -0.3646(3) 0.3716(2) 0.4624(3)
N2A_2 N 0.3646(3) 0.6284(2) 0.5376(3)
loop_
_geom_bond_atom_site_label_1
_geom_bond_atom_site_label_2
_geom_bond_site_symmetry_1
_geom_bond_site_symmetry_2
Co1 O1 1_555 1_555
Na1 O3 1_555 1_555
O1 C5 1_555 1_555
O2 C5 1_555 1_555
O3 N3 1_555 1_555
O4 N3 1_555 1_555
N1 Co1 1_555 1_555
N2 C2 1_555 1_555
N3 Co1 1_555 1_555
C1 N1 1_555 1_555
C2 C1 1_555 1_555
C3 N2 1_555 1_555
C4 N1 1_555 1_555
C5 C1 1_555 1_555
H1 C2 1_555 1_555
H2 C3 1_555 1_555
H3 C4 1_555 1_555
O1A Co1 1_555 1_555
O2A C5A 1_555 1_555
N1A Co1 1_555 1_555
N2A C2A 1_555 1_555
C1A N1A 1_555 1_555
C2A C1A 1_555 1_555
C3A N2A 1_555 1_555
C4A N1A 1_555 1_555
C5A O1A 1_555 1_555
H1A C2A 1_555 1_555
H2A C3A 1_555 1_555
H3A C4A 1_555 1_555
O3A N3A 1_555 1_555
O4A N3A 1_555 1_555
N3A Co1 1_555 1_555
Na1_2 O2 1_555 1_555
Na1_3 N2 1_555 1_555
Na1_4 O2A 1_555 1_555
Na1_5 N2A 1_555 1_555
Na1_6 O3A 1_555 1_555
O2_2 Na1 1_555 1_555
O2A_2 Na1 1_555 1_555
O3A_2 Na1 1_555 1_555
N2_2 Na1 1_555 1_555
N2A_2 Na1 1_555 1_555
C3 C4 1_555 1_555
C1A C5A 1_555 1_555
C3A C4A 1_555 1_555

#END
