
#######################################################################
#
#                 Cambridge Crystallographic Data Centre
#                                CCDC 
#
#######################################################################
#
# If this CIF has been generated from an entry in the Cambridge 
# Structural Database, then it will include bibliographic, chemical, 
# crystal, experimental, refinement or atomic coordinate data resulting 
# from the CCDC's data processing and validation procedures.
#
#######################################################################

data_TEHQIH
_symmetry_cell_setting           monoclinic
_symmetry_space_group_name_H-M   'P 21/n'
_symmetry_Int_Tables_number      14
_space_group_name_Hall           '-P 2yn'
loop_
_symmetry_equiv_pos_site_id
_symmetry_equiv_pos_as_xyz
1 x,y,z
2 1/2-x,1/2+y,1/2-z
3 -x,-y,-z
4 1/2+x,1/2-y,1/2+z
_cell_length_a                   9.0731(18)
_cell_length_b                   11.6608(13)
_cell_length_c                   16.172(3)
_cell_angle_alpha                90
_cell_angle_beta                 96.752(6)
_cell_angle_gamma                90
_cell_volume                     1699.12
loop_
_atom_site_label
_atom_site_type_symbol
_atom_site_fract_x
_atom_site_fract_y
_atom_site_fract_z
Al1 Al 0.1477(2) -0.01491(17) 0.50942(12)
Al2 Al 0.0314(2) 0.20079(18) 0.38720(12)
N1 N 0.0110(6) 0.1272(4) 0.2749(3)
O1 O 0.0132(5) 0.0820(4) 0.4524(3)
C1 C 0.2516(8) -0.1123(6) 0.4358(5)
H1 H 0.3212 -0.1627 0.4694
H2 H 0.3062 -0.0638 0.4004
H3 H 0.1791 -0.1589 0.4008
C2 C 0.2828(9) 0.0585(6) 0.5993(5)
H4 H 0.2273 0.1146 0.6285
H5 H 0.3635 0.0974 0.5753
H6 H 0.3244 -0.0001 0.6387
C3 C 0.2316(9) 0.2651(6) 0.4041(5)
H7 H 0.2469 0.3039 0.4580
H8 H 0.2439 0.3204 0.3598
H9 H 0.3045 0.2033 0.4028
C4 C -0.1384(8) 0.3034(6) 0.3831(4)
H10 H -0.2303 0.2585 0.3751
H11 H -0.1364 0.3572 0.3367
H12 H -0.1341 0.3463 0.4353
C5 C 0.0010(8) 0.0138(6) 0.2636(4)
H13 H 0.0066 -0.0342 0.3113
C6 C -0.0173(8) -0.0375(6) 0.1852(4)
H14 H -0.0229 -0.1185 0.1799
C7 C -0.0273(8) 0.0316(6) 0.1154(4)
C8 C -0.0167(8) 0.1485(6) 0.1272(4)
H15 H -0.0233 0.1984 0.0806
C9 C 0.0033(9) 0.1930(6) 0.2063(4)
H16 H 0.0120 0.2738 0.2128
C10 C -0.0544(8) -0.0209(6) 0.0290(4)
H17 H -0.0470 -0.1053 0.0338
H18 H -0.1566 -0.0020 0.0043
Al1B Al -0.1477(2) 0.01491(17) 0.49058(12)
Al2B Al -0.0314(2) -0.20079(18) 0.61280(12)
Al2B_2 Al -0.0314(2) -0.20079(18) -0.38720(12)
N1B N -0.0110(6) -0.1272(4) -0.2749(3)
N1B_2 N -0.0110(6) -0.1272(4) 0.7251(3)
O1B O -0.0132(5) -0.0820(4) 0.5476(3)
C1B C -0.2516(8) 0.1123(6) 0.5642(5)
H1B H -0.3212 0.1627 0.5306
H2B H -0.3062 0.0638 0.5996
H3B H -0.1791 0.1589 0.5992
C2B C -0.2828(9) -0.0585(6) 0.4007(5)
H4B H -0.2273 -0.1146 0.3715
H5B H -0.3635 -0.0974 0.4247
H6B H -0.3244 0.0001 0.3613
C3B C -0.2316(9) -0.2651(6) 0.5959(5)
H7B H -0.2469 -0.3039 0.5420
H8B H -0.2439 -0.3204 0.6402
H9B H -0.3045 -0.2033 0.5972
C4B C 0.1384(8) -0.3034(6) 0.6169(4)
H10B H 0.2303 -0.2585 0.6249
H11B H 0.1364 -0.3572 0.6633
H12B H 0.1341 -0.3463 0.5647
C5B C -0.0010(8) -0.0138(6) -0.2636(4)
H13B H -0.0066 0.0342 -0.3113
C6B C 0.0173(8) 0.0375(6) -0.1852(4)
H14B H 0.0229 0.1185 -0.1799
C7B C 0.0273(8) -0.0316(6) -0.1154(4)
C8B C 0.0167(8) -0.1485(6) -0.1272(4)
H15B H 0.0233 -0.1984 -0.0806
C9B C -0.0033(9) -0.1930(6) -0.2063(4)
H16B H -0.0120 -0.2738 -0.2128
C10B C 0.0544(8) 0.0209(6) -0.0290(4)
H17B H 0.0470 0.1053 -0.0338
H18B H 0.1566 0.0020 -0.0043
C11 C -0.4448(9) 0.1480(7) 0.1206(5)
H19 H -0.4497 0.1963 0.0701
H20 H -0.3584 0.0959 0.1225
C12 C -0.5880(10) 0.0825(7) 0.1248(5)
H21 H -0.5837 0.0052 0.1000
H22 H -0.6744 0.1246 0.0966
C13 C -0.5936(11) 0.0760(12) 0.2180(6)
H23 H -0.6969 0.0821 0.2315
H24 H -0.5498 0.0034 0.2411
O2 O -0.5048(10) 0.1752(6) 0.2499(5)
C14 C -0.440(2) 0.2213(14) 0.2001(10)
H25 H -0.3351 0.2334 0.2236
H26 H -0.4847 0.2972 0.1862
C15? C -0.3765(17) 0.1662(15) 0.2024(9)
H27? H -0.3172 0.2377 0.2064
H28? H -0.3117 0.1010 0.2219
loop_
_geom_bond_atom_site_label_1
_geom_bond_atom_site_label_2
_geom_bond_site_symmetry_1
_geom_bond_site_symmetry_2
Al1 O1 1_555 1_555
Al2 N1 1_555 1_555
N1 C5 1_555 1_555
O1 Al2 1_555 1_555
C1 Al1 1_555 1_555
H1 C1 1_555 1_555
H2 C1 1_555 1_555
H3 C1 1_555 1_555
C2 Al1 1_555 1_555
H4 C2 1_555 1_555
H5 C2 1_555 1_555
H6 C2 1_555 1_555
C3 Al2 1_555 1_555
H7 C3 1_555 1_555
H8 C3 1_555 1_555
H9 C3 1_555 1_555
C4 Al2 1_555 1_555
H10 C4 1_555 1_555
H11 C4 1_555 1_555
H12 C4 1_555 1_555
C5 H13 1_555 1_555
C6 C5 1_555 1_555
H14 C6 1_555 1_555
C7 C6 1_555 1_555
C8 C7 1_555 1_555
H15 C8 1_555 1_555
C9 N1 1_555 1_555
H16 C9 1_555 1_555
C10 C7 1_555 1_555
H17 C10 1_555 1_555
H18 C10 1_555 1_555
C11 H19 1_555 1_555
H20 C11 1_555 1_555
C12 C11 1_555 1_555
H21 C12 1_555 1_555
H22 C12 1_555 1_555
C13 C12 1_555 1_555
H23 C13 1_555 1_555
H24 C13 1_555 1_555
O2 C13 1_555 1_555
C14 C11 1_555 1_555
H25 C14 1_555 1_555
H26 C14 1_555 1_555
Al1B O1 1_555 1_555
Al2B N1B_2 1_555 1_555
Al2B_2 N1B 1_555 1_555
N1B C5B 1_555 1_555
O1B Al1 1_555 1_555
C1B Al1B 1_555 1_555
H1B C1B 1_555 1_555
H2B C1B 1_555 1_555
H3B C1B 1_555 1_555
C2B Al1B 1_555 1_555
H4B C2B 1_555 1_555
H5B C2B 1_555 1_555
H6B C2B 1_555 1_555
C3B Al2B 1_555 1_555
H7B C3B 1_555 1_555
H8B C3B 1_555 1_555
H9B C3B 1_555 1_555
C4B Al2B 1_555 1_555
H10B C4B 1_555 1_555
H11B C4B 1_555 1_555
H12B C4B 1_555 1_555
C5B H13B 1_555 1_555
C6B C5B 1_555 1_555
H14B C6B 1_555 1_555
C7B C6B 1_555 1_555
C8B C7B 1_555 1_555
H15B C8B 1_555 1_555
C9B N1B 1_555 1_555
H16B C9B 1_555 1_555
C10B C10 1_555 1_555
H17B C10B 1_555 1_555
H18B C10B 1_555 1_555
C8 C9 1_555 1_555
O2 C14 1_555 1_555
Al1B O1B 1_555 1_555
Al2B O1B 1_555 1_555
C7B C10B 1_555 1_555
C8B C9B 1_555 1_555

#END
