
#######################################################################
#
#                 Cambridge Crystallographic Data Centre
#                                CCDC 
#
#######################################################################
#
# If this CIF has been generated from an entry in the Cambridge 
# Structural Database, then it will include bibliographic, chemical, 
# crystal, experimental, refinement or atomic coordinate data resulting 
# from the CCDC's data processing and validation procedures.
#
#######################################################################

data_TEHRUV
_symmetry_cell_setting           triclinic
_symmetry_space_group_name_H-M   'P -1'
_symmetry_Int_Tables_number      2
_space_group_name_Hall           '-P 1'
loop_
_symmetry_equiv_pos_site_id
_symmetry_equiv_pos_as_xyz
1 x,y,z
2 -x,-y,-z
_cell_length_a                   13.4391(5)
_cell_length_b                   15.4390(5)
_cell_length_c                   16.5396(5)
_cell_angle_alpha                84.3998(8)
_cell_angle_beta                 68.9788(9)
_cell_angle_gamma                88.1873(9)
_cell_volume                     3188.04
loop_
_atom_site_label
_atom_site_type_symbol
_atom_site_fract_x
_atom_site_fract_y
_atom_site_fract_z
Cu1 Cu 0.55416(3) 0.46323(3) 0.41680(2)
Cu2 Cu 0.14710(3) 0.25589(3) 0.41115(2)
Cu3 Cu 0.11050(3) 0.10167(2) 0.06026(2)
S1 S 0.28284(6) 0.44629(5) 0.46367(5)
S2 S 0.05368(6) 0.09566(5) 0.29598(5)
S3 S -0.08490(6) -0.04816(5) 0.14400(5)
O1 O 0.38800(18) 0.41526(15) 0.41141(16)
O2 O 0.19957(19) 0.38663(16) 0.46554(17)
O3 O 0.27425(19) 0.46541(17) 0.55034(15)
O4 O 0.09395(19) 0.13786(16) 0.35352(15)
O5 O 0.10882(19) 0.12700(15) 0.20473(14)
O6 O -0.06129(18) 0.10170(16) 0.32222(16)
O7 O -0.02520(18) 0.03292(15) 0.10497(16)
O8 O -0.1262(2) -0.08400(16) 0.08460(15)
O9 O -0.0258(2) -0.11029(17) 0.17995(17)
O10 O 0.48918(18) 0.57030(14) 0.45910(14)
N1 N 0.6213(3) 0.34713(18) 0.38515(18)
N2 N 0.6210(3) 0.50780(18) 0.29068(18)
N3 N 0.2839(2) 0.25929(18) 0.30375(17)
N4 N 0.0746(2) 0.34533(18) 0.35182(18)
N5 N 0.0111(2) 0.24608(18) 0.51808(17)
N6 N 0.2203(2) 0.17295(18) 0.47381(16)
N7 N 0.2029(2) -0.00272(17) 0.06022(17)
N8 N 0.2404(2) 0.18051(17) 0.00954(17)
N9 N 0.0147(2) 0.20545(16) 0.06043(17)
C1 C 0.5727(3) 0.2857(3) 0.3611(3)
C2 C 0.6174(4) 0.2043(3) 0.3432(3)
C3 C 0.7160(4) 0.1877(3) 0.3493(3)
C4 C 0.7675(4) 0.2512(3) 0.3710(3)
C5 C 0.7173(3) 0.3307(3) 0.3898(3)
C6 C 0.7189(4) 0.5421(3) 0.2615(3)
C7 C 0.7752(4) 0.5627(4) 0.1745(3)
C8 C 0.7312(4) 0.5455(3) 0.1146(3)
C9 C 0.6323(4) 0.5100(3) 0.1437(3)
C10 C 0.5776(4) 0.4933(3) 0.2324(3)
C11 C 0.3343(3) 0.1838(3) 0.2779(3)
C12 C 0.4292(3) 0.1813(3) 0.2081(3)
C13 C 0.4730(3) 0.2590(3) 0.1615(3)
C14 C 0.4213(3) 0.3367(3) 0.1869(3)
C15 C 0.3275(3) 0.3337(3) 0.2587(3)
C16 C 0.0745(3) 0.3385(3) 0.2715(3)
C17 C 0.0333(4) 0.4008(3) 0.2276(3)
C18 C -0.0117(4) 0.4745(3) 0.2674(3)
C19 C -0.0161(3) 0.4816(3) 0.3517(3)
C20 C 0.0279(3) 0.4167(3) 0.3910(3)
C21 C -0.0779(3) 0.2107(3) 0.5144(3)
C22 C -0.1736(3) 0.2066(3) 0.5840(3)
C23 C -0.1786(3) 0.2393(3) 0.6605(3)
C24 C -0.0871(3) 0.2738(3) 0.6650(3)
C25 C 0.0058(3) 0.2756(3) 0.5928(3)
C26 C 0.1878(3) 0.0897(3) 0.4966(2)
C27 C 0.2427(3) 0.0280(3) 0.5294(3)
C28 C 0.3346(3) 0.0520(3) 0.5404(3)
C29 C 0.3674(3) 0.1382(3) 0.5190(3)
C30 C 0.3089(3) 0.1962(3) 0.4862(3)
C31 C 0.2782(3) -0.0021(3) 0.0963(3)
C32 C 0.3426(4) -0.0730(3) 0.0994(3)
C33 C 0.3293(4) -0.1475(3) 0.0651(4)
C34 C 0.2518(4) -0.1485(3) 0.0276(3)
C35 C 0.1904(3) -0.0756(2) 0.0263(3)
C36 C 0.2482(3) 0.2491(3) 0.0510(3)
C37 C 0.3341(4) 0.3055(3) 0.0193(3)
C38 C 0.4152(3) 0.2902(3) -0.0571(4)
C39 C 0.4086(3) 0.2196(3) -0.0991(3)
C40 C 0.3197(3) 0.1659(3) -0.0643(3)
C41 C 0.0267(3) 0.2537(3) -0.0148(2)
C42 C -0.0441(3) 0.3193(3) -0.0208(3)
C43 C -0.1287(3) 0.3359(3) 0.0527(3)
C44 C -0.1401(3) 0.2871(3) 0.1305(3)
C45 C -0.0680(3) 0.2228(3) 0.1321(2)
C46 C 0.2629(4) 0.5460(3) 0.4098(3)
C47 C 0.0859(3) -0.0157(3) 0.3071(3)
C48 C -0.1962(3) -0.0162(3) 0.2298(3)
C49 C 0.5176(3) 0.6548(2) 0.4176(3)
H1 H 0.5053 0.2981 0.3560
H2 H 0.5810 0.1611 0.3272
H3 H 0.7479 0.1322 0.3384
H4 H 0.8366 0.2413 0.3733
H5 H 0.7523 0.3745 0.4063
H6 H 0.7508 0.5526 0.3023
H7 H 0.8438 0.5886 0.1561
H8 H 0.7693 0.5582 0.0541
H9 H 0.6006 0.4966 0.1035
H10 H 0.5071 0.4708 0.2521
H11 H 0.3031 0.1304 0.3090
H12 H 0.4636 0.1275 0.1923
H13 H 0.5377 0.2592 0.1128
H14 H 0.4496 0.3907 0.1556
H15 H 0.2928 0.3869 0.2766
H16 H 0.1046 0.2879 0.2436
H17 H 0.0356 0.3935 0.1705
H18 H -0.0391 0.5194 0.2378
H19 H -0.0488 0.5304 0.3816
H20 H 0.0254 0.4222 0.4484
H21 H -0.0745 0.1878 0.4622
H22 H -0.2350 0.1819 0.5795
H23 H -0.2436 0.2381 0.7090
H24 H -0.0881 0.2960 0.7169
H25 H 0.0685 0.2988 0.5965
H26 H 0.1241 0.0728 0.4897
H27 H 0.2177 -0.0304 0.5442
H28 H 0.3746 0.0104 0.5622
H29 H 0.4297 0.1569 0.5269
H30 H 0.3318 0.2551 0.4717
H31 H 0.2873 0.0491 0.1206
H32 H 0.3954 -0.0703 0.1248
H33 H 0.3722 -0.1973 0.0669
H34 H 0.2412 -0.1990 0.0031
H35 H 0.1376 -0.0767 0.0006
H36 H 0.1925 0.2592 0.1041
H37 H 0.3371 0.3540 0.0496
H38 H 0.4750 0.3282 -0.0804
H39 H 0.4643 0.2076 -0.1514
H40 H 0.3150 0.1173 -0.0939
H41 H 0.0856 0.2425 -0.0655
H42 H -0.0343 0.3521 -0.0748
H43 H -0.1786 0.3801 0.0502
H44 H -0.1974 0.2981 0.1823
H45 H -0.0768 0.1893 0.1855
H46 H 0.1973 0.5732 0.4462
H47 H 0.2568 0.5355 0.3543
H48 H 0.3236 0.5848 0.3990
H49 H 0.1624 -0.0215 0.2958
H50 H 0.0674 -0.0466 0.2655
H51 H 0.0456 -0.0406 0.3664
H52 H -0.1727 0.0105 0.2713
H53 H -0.2407 -0.0672 0.2593
H54 H -0.2378 0.0261 0.2070
H55 H 0.5096 0.6591 0.3608
H56 H 0.5919 0.6666 0.4097
H57 H 0.4711 0.6974 0.4536
Cu1A Cu 0.44584(3) 0.53677(3) 0.58320(2)
Cu3A Cu -0.11050(3) -0.10167(2) -0.06026(2)
O8A O 0.1262(2) 0.08400(16) -0.08460(15)
O10A O 0.51082(18) 0.42970(14) 0.54090(14)
P1 P 0.53415(7) 0.07521(6) 0.68996(6)
F1 F 0.6415(2) 0.02185(17) 0.68022(18)
F2 F 0.42775(18) 0.12918(17) 0.70003(17)
F3 F 0.5838(2) 0.11158(17) 0.58959(15)
F4 F 0.4849(2) 0.03900(16) 0.79068(15)
F5 F 0.4853(3) -0.00668(17) 0.66477(18)
F6 F 0.58346(18) 0.15643(16) 0.71614(16)
P2 P 0.70992(7) 0.41982(6) -0.11664(6)
F7 F 0.8187(2) 0.3681(2) -0.14340(18)
F8 F 0.6001(3) 0.4699(3) -0.0883(3)
F9 F 0.7537(3) 0.47960(18) -0.20607(17)
F10 F 0.6663(3) 0.35971(17) -0.02669(16)
F11 F 0.7575(3) 0.4854(2) -0.07184(19)
F12 F 0.6644(3) 0.3528(2) -0.16143(19)
O11 O 0.9075(3) 0.7139(2) 0.23527(19)
C50 C 0.8075(4) 0.7396(4) 0.2948(4)
loop_
_geom_bond_atom_site_label_1
_geom_bond_atom_site_label_2
_geom_bond_site_symmetry_1
_geom_bond_site_symmetry_2
Cu1 O1 1_555 1_555
Cu2 O2 1_555 1_555
Cu3 O5 1_555 1_555
S1 O1 1_555 1_555
S2 O4 1_555 1_555
S3 O7 1_555 1_555
P1 F1 1_555 1_555
P2 F7 1_555 1_555
F2 P1 1_555 1_555
F3 P1 1_555 1_555
F4 P1 1_555 1_555
F5 P1 1_555 1_555
F6 P1 1_555 1_555
F8 P2 1_555 1_555
F9 P2 1_555 1_555
F10 P2 1_555 1_555
F11 P2 1_555 1_555
F12 P2 1_555 1_555
O2 S1 1_555 1_555
O3 S1 1_555 1_555
O4 Cu2 1_555 1_555
O5 S2 1_555 1_555
O6 S2 1_555 1_555
O7 Cu3 1_555 1_555
O8 S3 1_555 1_555
O9 S3 1_555 1_555
O10 Cu1 1_555 1_555
O11 C50 1_555 1_555
N1 Cu1 1_555 1_555
N2 Cu1 1_555 1_555
N3 Cu2 1_555 1_555
N4 Cu2 1_555 1_555
N5 Cu2 1_555 1_555
N6 Cu2 1_555 1_555
N7 Cu3 1_555 1_555
N8 Cu3 1_555 1_555
N9 Cu3 1_555 1_555
C1 N1 1_555 1_555
C2 C1 1_555 1_555
C3 C2 1_555 1_555
C4 C3 1_555 1_555
C5 N1 1_555 1_555
C6 N2 1_555 1_555
C7 C6 1_555 1_555
C8 C7 1_555 1_555
C9 C8 1_555 1_555
C10 N2 1_555 1_555
C11 N3 1_555 1_555
C12 C11 1_555 1_555
C13 C12 1_555 1_555
C14 C13 1_555 1_555
C15 N3 1_555 1_555
C16 N4 1_555 1_555
C17 C16 1_555 1_555
C18 C17 1_555 1_555
C19 C18 1_555 1_555
C20 N4 1_555 1_555
C21 N5 1_555 1_555
C22 C21 1_555 1_555
C23 C22 1_555 1_555
C24 C23 1_555 1_555
C25 N5 1_555 1_555
C26 N6 1_555 1_555
C27 C26 1_555 1_555
C28 C27 1_555 1_555
C29 C28 1_555 1_555
C30 N6 1_555 1_555
C31 N7 1_555 1_555
C32 C31 1_555 1_555
C33 C32 1_555 1_555
C34 C33 1_555 1_555
C35 N7 1_555 1_555
C36 N8 1_555 1_555
C37 C36 1_555 1_555
C38 C37 1_555 1_555
C39 C38 1_555 1_555
C40 N8 1_555 1_555
C41 N9 1_555 1_555
C42 C41 1_555 1_555
C43 C42 1_555 1_555
C44 C43 1_555 1_555
C45 N9 1_555 1_555
C46 S1 1_555 1_555
C47 S2 1_555 1_555
C48 S3 1_555 1_555
C49 O10 1_555 1_555
H1 C1 1_555 1_555
H2 C2 1_555 1_555
H3 C3 1_555 1_555
H4 C4 1_555 1_555
H5 C5 1_555 1_555
H6 C6 1_555 1_555
H7 C7 1_555 1_555
H8 C8 1_555 1_555
H9 C9 1_555 1_555
H10 C10 1_555 1_555
H11 C11 1_555 1_555
H12 C12 1_555 1_555
H13 C13 1_555 1_555
H14 C14 1_555 1_555
H15 C15 1_555 1_555
H16 C16 1_555 1_555
H17 C17 1_555 1_555
H18 C18 1_555 1_555
H19 C19 1_555 1_555
H20 C20 1_555 1_555
H21 C21 1_555 1_555
H22 C22 1_555 1_555
H23 C23 1_555 1_555
H24 C24 1_555 1_555
H25 C25 1_555 1_555
H26 C26 1_555 1_555
H27 C27 1_555 1_555
H28 C28 1_555 1_555
H29 C29 1_555 1_555
H30 C30 1_555 1_555
H31 C31 1_555 1_555
H32 C32 1_555 1_555
H33 C33 1_555 1_555
H34 C34 1_555 1_555
H35 C35 1_555 1_555
H36 C36 1_555 1_555
H37 C37 1_555 1_555
H38 C38 1_555 1_555
H39 C39 1_555 1_555
H40 C40 1_555 1_555
H41 C41 1_555 1_555
H42 C42 1_555 1_555
H43 C43 1_555 1_555
H44 C44 1_555 1_555
H45 C45 1_555 1_555
H46 C46 1_555 1_555
H47 C46 1_555 1_555
H48 C46 1_555 1_555
H49 C47 1_555 1_555
H50 C47 1_555 1_555
H51 C47 1_555 1_555
H52 C48 1_555 1_555
H53 C48 1_555 1_555
H54 C48 1_555 1_555
H55 C49 1_555 1_555
H56 C49 1_555 1_555
H57 C49 1_555 1_555
Cu1A O10 1_555 1_555
Cu3A O8 1_555 1_555
O8A Cu3 1_555 1_555
O10A Cu1 1_555 1_555
C4 C5 1_555 1_555
C9 C10 1_555 1_555
C14 C15 1_555 1_555
C19 C20 1_555 1_555
C24 C25 1_555 1_555
C29 C30 1_555 1_555
C34 C35 1_555 1_555
C39 C40 1_555 1_555
C44 C45 1_555 1_555
Cu1A O10A 1_555 1_555

#END
