
#######################################################################
#
#                 Cambridge Crystallographic Data Centre
#                                CCDC 
#
#######################################################################
#
# If this CIF has been generated from an entry in the Cambridge 
# Structural Database, then it will include bibliographic, chemical, 
# crystal, experimental, refinement or atomic coordinate data resulting 
# from the CCDC's data processing and validation procedures.
#
#######################################################################

data_TEHTOR
_symmetry_cell_setting           triclinic
_symmetry_space_group_name_H-M   'P -1'
_symmetry_Int_Tables_number      2
_space_group_name_Hall           '-P 1'
loop_
_symmetry_equiv_pos_site_id
_symmetry_equiv_pos_as_xyz
1 x,y,z
2 -x,-y,-z
_cell_length_a                   8.4047(8)
_cell_length_b                   12.8786(12)
_cell_length_c                   13.4250(12)
_cell_angle_alpha                107.244(1)
_cell_angle_beta                 104.351(1)
_cell_angle_gamma                92.832(1)
_cell_volume                     1332.6
loop_
_atom_site_label
_atom_site_type_symbol
_atom_site_fract_x
_atom_site_fract_y
_atom_site_fract_z
Sm1 Sm 0.753121(12) 0.511223(8) 0.509511(8)
Zn1 Zn 0.67549(3) 0.77885(2) 0.33797(2)
Cl1 Cl 0.77053(8) 0.87014(6) 0.24333(5)
O1 O 1.02507(18) 0.60785(12) 0.55462(12)
O2 O 1.28622(18) 0.68191(13) 0.61435(13)
O3 O 0.69845(19) 0.69747(12) 0.52453(13)
O4 O 0.8461(2) 0.81464(13) 0.47865(13)
O5 O 0.7320(2) 0.93519(14) 0.70712(16)
O6 O 0.77132(19) 0.61834(13) 0.70375(13)
O7 O 0.53164(18) 0.51742(13) 0.60835(11)
O8 O 0.22052(18) 0.45717(13) 0.65653(12)
O9 O 0.4043(2) 0.37641(13) 0.74997(13)
O10 O 0.8755(2) 0.41167(14) 0.63196(13)
H1 H 0.8668 0.4258 0.6962
H2 H 0.9783 0.4100 0.6377
O11 O 0.2601(2) 0.54641(15) 0.91794(14)
N1 N 0.5286(2) 1.15065(16) 0.63240(17)
N2 N 0.1419(3) 0.60448(19) 1.16935(17)
C1 C 0.8902(3) 0.90387(18) 0.73432(19)
C2 C 0.9335(3) 0.81802(18) 0.65944(18)
C3 C 1.0894(3) 0.78391(17) 0.68986(18)
C4 C 1.1956(3) 0.83540(19) 0.79274(19)
H3 H 1.2999 0.8140 0.8118
C5 C 1.1468(4) 0.9188(2) 0.8672(2)
H4 H 1.2171 0.9517 0.9366
C6 C 0.9928(3) 0.9530(2) 0.8380(2)
H5 H 0.9592 1.0084 0.8876
C7 C 0.8165(3) 0.77102(18) 0.54583(18)
C8 C 1.1384(3) 0.68709(17) 0.61536(17)
C9 C 0.5704(3) 1.06916(19) 0.6736(2)
H6 H 0.5026 1.0452 0.7098
C10 C 0.7110(3) 1.01992(18) 0.66379(19)
C11 C 0.8132(3) 1.0548(2) 0.6105(2)
H7 H 0.9094 1.0240 0.6042
C12 C 0.7677(3) 1.1372(2) 0.5669(2)
H8 H 0.8332 1.1620 0.5298
C13 C 0.6252(3) 1.1829(2) 0.5783(2)
H9 H 0.5955 1.2375 0.5476
C14 C 0.3838(3) 0.6122(2) 0.90585(18)
C15 C 0.4318(3) 0.56963(18) 0.81048(17)
C16 C 0.5595(3) 0.63016(18) 0.79336(17)
C17 C 0.6339(3) 0.7320(2) 0.86880(19)
H10 H 0.7174 0.7725 0.8564
C18 C 0.5833(3) 0.7724(2) 0.9619(2)
H11 H 0.6322 0.8404 1.0116
C19 C 0.4601(3) 0.7121(2) 0.98165(19)
H12 H 0.4288 0.7386 1.0454
C20 C 0.3463(3) 0.45899(18) 0.73217(17)
C21 C 0.6257(3) 0.58763(17) 0.69733(17)
C22 C 0.2137(3) 0.5643(2) 1.0897(2)
H13 H 0.2874 0.5137 1.0969
C23 C 0.1824(3) 0.5951(2) 0.99802(19)
C24 C 0.0722(4) 0.6682(2) 0.9835(2)
H14 H 0.0471 0.6879 0.9207
C25 C 0.0003(4) 0.7111(3) 1.0666(2)
H15 H -0.0720 0.7629 1.0618
C26 C 0.0363(3) 0.6765(2) 1.1557(2)
H16 H -0.0156 0.7047 1.2097
Sm1A Sm 1.246879(12) 0.488777(8) 0.490489(8)
Sm1A_2 Sm 0.246879(12) 0.488777(8) 0.490489(8)
Zn1A Zn 0.32451(3) 0.22115(2) 0.66203(2)
Zn1A_2 Zn 0.32451(3) 1.22115(2) 0.66203(2)
O1A O 0.97493(18) 0.39215(12) 0.44538(12)
O2A O 0.71378(18) 0.31809(13) 0.38565(13)
O7A O 0.46836(18) 0.48258(13) 0.39165(11)
O8A O 0.77948(18) 0.54283(13) 0.34347(12)
O9A O 0.5957(2) 0.62359(13) 0.25003(13)
N1A N 0.4714(2) 0.84935(16) 0.36760(17)
loop_
_geom_bond_atom_site_label_1
_geom_bond_atom_site_label_2
_geom_bond_site_symmetry_1
_geom_bond_site_symmetry_2
Sm1 O1 1_555 1_555
Zn1 Cl1 1_555 1_555
O1 C8 1_555 1_555
O2 C8 1_555 1_555
O3 Sm1 1_555 1_555
O4 Zn1 1_555 1_555
O5 C1 1_555 1_555
O6 Sm1 1_555 1_555
O7 Sm1 1_555 1_555
O8 C20 1_555 1_555
O9 C20 1_555 1_555
O10 Sm1 1_555 1_555
H1 O10 1_555 1_555
H2 O10 1_555 1_555
O11 C14 1_555 1_555
N1 C9 1_555 1_555
N2 C22 1_555 1_555
C1 C2 1_555 1_555
C2 C3 1_555 1_555
C3 C4 1_555 1_555
C4 H3 1_555 1_555
C5 C4 1_555 1_555
H4 C5 1_555 1_555
C6 C1 1_555 1_555
H5 C6 1_555 1_555
C7 O3 1_555 1_555
C8 C3 1_555 1_555
C9 H6 1_555 1_555
C10 O5 1_555 1_555
C11 C10 1_555 1_555
H7 C11 1_555 1_555
C12 C11 1_555 1_555
H8 C12 1_555 1_555
C13 N1 1_555 1_555
H9 C13 1_555 1_555
C14 C15 1_555 1_555
C15 C16 1_555 1_555
C16 C17 1_555 1_555
C17 H10 1_555 1_555
C18 C17 1_555 1_555
H11 C18 1_555 1_555
C19 C14 1_555 1_555
H12 C19 1_555 1_555
C20 C15 1_555 1_555
C21 O6 1_555 1_555
C22 H13 1_555 1_555
C23 O11 1_555 1_555
C24 C23 1_555 1_555
H14 C24 1_555 1_555
C25 C24 1_555 1_555
H15 C25 1_555 1_555
C26 N2 1_555 1_555
H16 C26 1_555 1_555
Sm1A O1 1_555 1_555
Sm1A_2 O7 1_555 1_555
Zn1A O9 1_555 1_555
Zn1A_2 N1 1_555 1_555
O1A Sm1 1_555 1_555
O2A Sm1 1_555 1_555
O7A Sm1 1_555 1_555
O8A Sm1 1_555 1_555
O9A Zn1 1_555 1_555
N1A Zn1 1_555 1_555
O2 Sm1A 1_555 1_555
O4 C7 1_555 1_555
O7 C21 1_555 1_555
O8 Sm1A_2 1_555 1_555
C2 C7 1_555 1_555
C5 C6 1_555 1_555
C9 C10 1_555 1_555
C12 C13 1_555 1_555
C16 C21 1_555 1_555
C18 C19 1_555 1_555
C22 C23 1_555 1_555
C25 C26 1_555 1_555
Sm1A O1A 1_555 1_555
Sm1A_2 O7A 1_555 1_555

#END
