
#######################################################################
#
#                 Cambridge Crystallographic Data Centre
#                                CCDC 
#
#######################################################################
#
# If this CIF has been generated from an entry in the Cambridge 
# Structural Database, then it will include bibliographic, chemical, 
# crystal, experimental, refinement or atomic coordinate data resulting 
# from the CCDC's data processing and validation procedures.
#
#######################################################################

data_TEHVIL
_symmetry_cell_setting           triclinic
_symmetry_space_group_name_H-M   'P -1'
_symmetry_Int_Tables_number      2
_space_group_name_Hall           '-P 1'
loop_
_symmetry_equiv_pos_site_id
_symmetry_equiv_pos_as_xyz
1 x,y,z
2 -x,-y,-z
_cell_length_a                   6.362(3)
_cell_length_b                   7.512(3)
_cell_length_c                   17.258(8)
_cell_angle_alpha                94.55(4)
_cell_angle_beta                 96.81(5)
_cell_angle_gamma                104.59(4)
_cell_volume                     787.421
loop_
_atom_site_label
_atom_site_type_symbol
_atom_site_fract_x
_atom_site_fract_y
_atom_site_fract_z
Cd1 Cd -0.24386(4) -0.05535(3) 0.05114(1)
Cl1 Cl -0.6490(1) -0.2348(1) 0.01429(4)
Cl2 Cl 0.1549(1) 0.1542(1) 0.08724(4)
O1 O -0.1878(5) -0.6061(4) 0.4202(1)
O2 O -0.5414(4) -0.6287(4) 0.3830(1)
O3 O -0.3219(5) -0.2158(4) 0.4944(2)
O4 O -0.6739(5) -0.2367(4) 0.4592(2)
N1 N -0.1479(4) -0.3260(3) 0.0842(1)
N2 N -0.3015(5) 0.1061(4) 0.1652(2)
C1 C -0.1936(5) -0.3967(4) 0.1563(2)
C2 C -0.4088(5) -0.4503(4) 0.1696(2)
C3 C -0.4543(5) -0.5126(4) 0.2400(2)
C4 C -0.2900(5) -0.5229(4) 0.2971(2)
C5 C -0.0749(6) -0.4716(5) 0.2832(2)
C6 C -0.0267(5) -0.4090(4) 0.2125(2)
C7 C -0.3493(6) -0.5906(4) 0.3716(2)
C8 C -0.3415(5) 0.0336(4) 0.2371(2)
C9 C -0.1718(6) 0.0150(5) 0.2903(2)
C10 C -0.2133(6) -0.0575(5) 0.3593(2)
C11 C -0.4266(5) -0.1110(4) 0.3755(2)
C12 C -0.5945(5) -0.0895(5) 0.3223(2)
C13 C -0.5529(5) -0.0199(5) 0.2529(2)
C14 C -0.4826(6) -0.1926(5) 0.4472(2)
H1 H -0.232(9) -0.642(7) 0.461(3)
H2 H -0.009(6) -0.306(5) 0.080(2)
H3 H -0.217(6) -0.399(5) 0.047(2)
H4 H -0.517(6) -0.444(5) 0.133(2)
H5 H -0.593(6) -0.541(5) 0.250(2)
H6 H 0.031(6) -0.478(5) 0.321(2)
H7 H 0.119(7) -0.378(5) 0.203(2)
H8 H -0.362(9) -0.282(7) 0.535(3)
H9 H -0.182(6) 0.178(5) 0.171(2)
H10 H -0.403(6) 0.153(5) 0.148(2)
H11 H -0.031(6) 0.051(5) 0.277(2)
H12 H -0.100(6) -0.068(5) 0.398(2)
H13 H -0.730(6) -0.120(5) 0.335(2)
H14 H -0.662(6) -0.009(5) 0.219(2)
Cd1A Cd -0.75614(4) 0.05535(3) -0.05114(1)
Cl1A Cl -0.3510(1) 0.2348(1) -0.01429(4)
Cd1A_2 Cd 0.24386(4) 0.05535(3) -0.05114(1)
Cl2A Cl -0.1549(1) -0.1542(1) -0.08724(4)
loop_
_geom_bond_atom_site_label_1
_geom_bond_atom_site_label_2
_geom_bond_site_symmetry_1
_geom_bond_site_symmetry_2
Cd1 Cl1 1_555 1_555
Cl1 Cd1A 1_555 1_555
Cl2 Cd1 1_555 1_555
O1 C7 1_555 1_555
O2 C7 1_555 1_555
O3 C14 1_555 1_555
O4 C14 1_555 1_555
N1 Cd1 1_555 1_555
N2 Cd1 1_555 1_555
C1 N1 1_555 1_555
C2 C1 1_555 1_555
C3 C2 1_555 1_555
C4 C3 1_555 1_555
C5 C4 1_555 1_555
C6 C1 1_555 1_555
C7 C4 1_555 1_555
C8 N2 1_555 1_555
C9 C8 1_555 1_555
C10 C9 1_555 1_555
C11 C10 1_555 1_555
C12 C11 1_555 1_555
C13 C8 1_555 1_555
C14 C11 1_555 1_555
H1 O1 1_555 1_555
H2 N1 1_555 1_555
H3 N1 1_555 1_555
H4 C2 1_555 1_555
H5 C3 1_555 1_555
H6 C5 1_555 1_555
H7 C6 1_555 1_555
H8 O3 1_555 1_555
H9 N2 1_555 1_555
H10 N2 1_555 1_555
H11 C9 1_555 1_555
H12 C10 1_555 1_555
H13 C12 1_555 1_555
H14 C13 1_555 1_555
Cd1A Cl1A 1_555 1_555
Cl1A Cd1 1_555 1_555
Cd1A_2 Cl2 1_555 1_555
Cl2A Cd1 1_555 1_555
C5 C6 1_555 1_555
C12 C13 1_555 1_555
Cd1A_2 Cl2A 1_555 1_555

#END
