
#######################################################################
#
#                 Cambridge Crystallographic Data Centre
#                                CCDC 
#
#######################################################################
#
# If this CIF has been generated from an entry in the Cambridge 
# Structural Database, then it will include bibliographic, chemical, 
# crystal, experimental, refinement or atomic coordinate data resulting 
# from the CCDC's data processing and validation procedures.
#
#######################################################################

data_TEHVOR
_symmetry_cell_setting           monoclinic
_symmetry_space_group_name_H-M   'P 21/c'
_symmetry_Int_Tables_number      14
_space_group_name_Hall           '-P 2ybc'
loop_
_symmetry_equiv_pos_site_id
_symmetry_equiv_pos_as_xyz
1 x,y,z
2 -x,1/2+y,1/2-z
3 -x,-y,-z
4 x,1/2-y,1/2+z
_cell_length_a                   15.890(2)
_cell_length_b                   12.264(2)
_cell_length_c                   9.147(2)
_cell_angle_alpha                90
_cell_angle_beta                 93.90(2)
_cell_angle_gamma                90
_cell_volume                     1778.39
loop_
_atom_site_label
_atom_site_type_symbol
_atom_site_fract_x
_atom_site_fract_y
_atom_site_fract_z
Cs1 Cs 0.41657(2) 0.65236(2) 0.55738(3)
C1 C 0.2246(3) 0.8285(4) 0.3821(5)
C2 C 0.2656(3) 0.9280(4) 0.3563(5)
C3 C 0.2404(3) 0.9980(4) 0.2380(5)
C4 C 0.1602(3) 0.9690(4) 0.1440(5)
H1 H 0.1309(3) 1.0375(4) 0.1139(5)
H2 H 0.1766(3) 0.9322(4) 0.0540(5)
C5 C 0.0984(3) 0.8960(4) 0.2187(5)
C6 C 0.1488(3) 0.7970(4) 0.2806(5)
H3 H 0.1110(3) 0.7502(4) 0.3350(5)
H4 H 0.1684(3) 0.7537(4) 0.1982(5)
O1 O 0.2495(2) 0.7637(3) 0.4822(4)
O2 O 0.2806(2) 1.0812(3) 0.2042(4)
C7 C 0.0288(3) 0.8550(5) 0.1084(7)
H5 H -0.0070(16) 0.8029(25) 0.1566(14)
H6 H 0.0542(3) 0.8191(29) 0.0264(23)
H7 H -0.0056(15) 0.9168(6) 0.0713(32)
C8 C 0.0573(3) 0.9563(5) 0.3415(6)
H8 H 0.0192(18) 0.9068(9) 0.3893(26)
H9 H 0.0252(19) 1.0188(18) 0.3006(9)
H10 H 0.1011(3) 0.9823(27) 0.4140(22)
C9 C 0.3313(3) 0.9217(4) 0.6178(5)
C10 C 0.3424(3) 0.9555(4) 0.4557(5)
C11 C 0.3559(3) 1.0798(4) 0.4734(5)
C12 C 0.2844(3) 1.1415(4) 0.5360(6)
H11 H 0.2324(3) 1.1329(4) 0.4712(6)
H12 H 0.2984(3) 1.2201(4) 0.5420(6)
C13 C 0.2696(3) 1.0972(4) 0.6915(5)
C14 C 0.2567(3) 0.9721(4) 0.6857(5)
H13 H 0.2522(3) 0.9430(4) 0.7858(5)
H14 H 0.2041(3) 0.9543(4) 0.6264(5)
O3 O 0.3876(2) 0.8748(3) 0.6887(4)
O4 O 0.4251(2) 1.1203(3) 0.4600(4)
C15 C 0.1905(3) 1.1507(4) 0.7456(7)
H15 H 0.1418(5) 1.1338(25) 0.6777(23)
H16 H 0.1985(10) 1.2299(5) 0.7504(39)
H17 H 0.1804(14) 1.1228(23) 0.8432(18)
C16 C 0.3448(3) 1.1255(5) 0.7987(6)
H18 H 0.3961(5) 1.0922(24) 0.7647(21)
H19 H 0.3349(10) 1.0974(25) 0.8964(10)
H20 H 0.3519(14) 1.2048(5) 0.8035(29)
O5 O 0.4137(3) 0.9040(3) 0.4022(4)
H21 H 0.4501(36) 0.9174(52) 0.4367(64)
O6 O 0.4477(2) 0.4038(3) 0.6437(4)
H22 H 0.4924 0.3800 0.7270
O3C O 0.3876(2) 0.6252(3) 0.1887(4)
O5C O 0.4137(3) 0.5960(3) 0.9022(4)
O6B O 0.5523(2) 0.5962(3) 0.3563(4)
Cs1C Cs 0.41657(2) 0.84764(2) 1.05738(3)
Cs1C_2 Cs 0.41657(2) 0.84764(2) 0.05738(3)
Cs1B Cs 0.58343(2) 0.34764(2) 0.44262(3)
H21C H 0.4501(36) 0.5826(52) 0.9367(64)
H22B H 0.5076 0.6200 0.2730
loop_
_geom_bond_atom_site_label_1
_geom_bond_atom_site_label_2
_geom_bond_site_symmetry_1
_geom_bond_site_symmetry_2
Cs1 O1 1_555 1_555
C1 C2 1_555 1_555
C2 C3 1_555 1_555
C3 C4 1_555 1_555
C4 H1 1_555 1_555
H2 C4 1_555 1_555
C5 C4 1_555 1_555
C6 C1 1_555 1_555
H3 C6 1_555 1_555
H4 C6 1_555 1_555
O1 C1 1_555 1_555
O2 C3 1_555 1_555
C7 C5 1_555 1_555
H5 C7 1_555 1_555
H6 C7 1_555 1_555
H7 C7 1_555 1_555
C8 C5 1_555 1_555
H8 C8 1_555 1_555
H9 C8 1_555 1_555
H10 C8 1_555 1_555
C9 C10 1_555 1_555
C10 C2 1_555 1_555
C11 C10 1_555 1_555
C12 C11 1_555 1_555
H11 C12 1_555 1_555
H12 C12 1_555 1_555
C13 C12 1_555 1_555
C14 C9 1_555 1_555
H13 C14 1_555 1_555
H14 C14 1_555 1_555
O3 Cs1 1_555 1_555
O4 C11 1_555 1_555
C15 C13 1_555 1_555
H15 C15 1_555 1_555
H16 C15 1_555 1_555
H17 C15 1_555 1_555
C16 C13 1_555 1_555
H18 C16 1_555 1_555
H19 C16 1_555 1_555
H20 C16 1_555 1_555
O5 C10 1_555 1_555
H21 O5 1_555 1_555
O6 Cs1 1_555 1_555
H22 O6 1_555 1_555
O3C Cs1 1_555 1_555
O5C Cs1 1_555 1_555
O6B Cs1 1_555 1_555
Cs1C O3 1_555 1_555
Cs1C_2 O5 1_555 1_555
Cs1B O6 1_555 1_555
H21C O5C 1_555 1_555
H22B O6B 1_555 1_555
C5 C6 1_555 1_555
C9 O3 1_555 1_555
C13 C14 1_555 1_555
O3C Cs1C_2 1_555 1_555
O6B Cs1B 1_555 1_555

#END
