
#######################################################################
#
#                 Cambridge Crystallographic Data Centre
#                                CCDC 
#
#######################################################################
#
# If this CIF has been generated from an entry in the Cambridge 
# Structural Database, then it will include bibliographic, chemical, 
# crystal, experimental, refinement or atomic coordinate data resulting 
# from the CCDC's data processing and validation procedures.
#
#######################################################################

data_TEHVIN
_symmetry_cell_setting           triclinic
_symmetry_space_group_name_H-M   'P -1'
_symmetry_Int_Tables_number      2
_space_group_name_Hall           '-P 1'
loop_
_symmetry_equiv_pos_site_id
_symmetry_equiv_pos_as_xyz
1 x,y,z
2 -x,-y,-z
_cell_length_a                   11.115(2)
_cell_length_b                   12.350(3)
_cell_length_c                   13.364(3)
_cell_angle_alpha                88.96(3)
_cell_angle_beta                 75.01(3)
_cell_angle_gamma                69.28(3)
_cell_volume                     1651.97
loop_
_atom_site_label
_atom_site_type_symbol
_atom_site_fract_x
_atom_site_fract_y
_atom_site_fract_z
N1 N -0.7583(5) 0.3924(4) 0.4392(4)
C1 C -0.7563(8) 0.4546(5) 0.3525(5)
H1 H -0.7130 0.4229 0.2844
C2 C -0.8266(8) 0.5681(6) 0.3812(5)
H2 H -0.8393 0.6285 0.3378
C3 C -0.8338(6) 0.4716(5) 0.5194(5)
H3 H -0.8540 0.4545 0.5884
N2 N -0.8756(5) 0.5766(4) 0.4874(4)
C4 C -0.9561(6) 0.6849(5) 0.5551(5)
H4 H -0.9870 0.6662 0.6257
H5 H -1.0337 0.7275 0.5310
O1 O -0.6634(4) 0.1623(4) 0.5695(3)
C5 C -0.7736(6) 0.1879(5) 0.6407(5)
Zn1 Zn -0.66496(7) 0.22114(6) 0.43602(5)
O2 O -0.7124(4) 0.1795(4) 1.3142(3)
C6 C -0.7104(5) 0.0775(6) 1.3044(4)
N3 N -0.5322(5) 0.8206(4) 0.6229(4)
N4 N -0.7495(5) 0.8954(4) 0.6406(4)
C7 C -0.6288(6) 0.8828(5) 0.5799(4)
H6 H -0.6136 0.9133 0.5157
C8 C -0.7329(7) 0.8388(6) 0.7284(5)
H7 H -0.7993 0.8326 0.7845
O3 O -0.6930(4) 0.0070(4) 1.3730(3)
N5 N -0.7439(5) 0.0424(5) 1.0432(4)
C9 C -0.7393(6) -0.0666(6) 1.1759(5)
C10 C -0.7251(5) 0.0399(5) 1.2046(4)
C11 C -0.7517(6) 0.0802(5) 0.9415(4)
C12 C -0.7293(6) 0.1060(5) 1.1200(4)
C13 C -0.9529(6) 0.8735(5) 0.6206(5)
H8 H -1.0327 0.9129 0.5982
H9 H -0.9809 0.8564 0.6922
O4 O -0.7182(7) -0.1730(5) 1.3260(4)
C14 C -0.8740(6) 0.1329(7) 0.9225(5)
H10 H -0.9520 0.1453 0.9752
C15 C -0.7486(7) -0.0624(6) 1.0745(5)
O5 O -0.7730(8) -0.2442(6) 1.2034(5)
C16 C -0.8728(6) 0.7601(5) 0.5538(5)
H11 H -0.7961 0.7177 0.5791
H12 H -0.8400 0.7768 0.4829
C17 C -0.5990(7) 0.7940(6) 0.7158(5)
H13 H -0.5581 0.7511 0.7636
C18 C -0.6354(6) 0.0599(6) 0.8632(5)
H14 H -0.5527 0.0234 0.8762
C19 C -0.8775(6) 0.9535(5) 0.6163(5)
H15 H -0.8613 0.9807 0.5473
H16 H -0.9311 1.0205 0.6655
C20 C -0.7459(9) -0.1654(7) 1.2354(5)
C21 C -0.7192(8) 0.2215(6) 1.1033(6)
H17 H -0.7260 0.2415 1.0347
H18 H -0.7902 0.2785 1.1537
H19 H -0.6348 0.2196 1.1106
C22 C -0.7644(8) -0.1458(7) 1.0070(5)
H20 H -0.7676 -0.1155 0.9407
H21 H -0.6901 -0.2180 0.9978
H22 H -0.8458 -0.1586 1.0384
O6 O -0.8819(5) 0.2422(6) 0.6244(4)
C23 C -0.7657(6) 0.1490(5) 0.7458(4)
C24 C -0.6433(6) 0.0947(5) 0.7651(5)
H23 H -0.5654 0.0812 0.7120
C25 C -0.8806(6) 0.1674(6) 0.8246(5)
H24 H -0.9635 0.2035 0.8117
Zn1_2 Zn -0.66496(7) 0.22114(6) 1.43602(5)
Zn1A Zn -0.33504(7) 0.77886(6) 0.56398(5)
O2_2 O -0.7124(4) 0.1795(4) 0.3142(3)
N3A N -0.4678(5) 0.1794(4) 0.3771(4)
loop_
_geom_bond_atom_site_label_1
_geom_bond_atom_site_label_2
_geom_bond_site_symmetry_1
_geom_bond_site_symmetry_2
N1 C1 1_555 1_555
C1 H1 1_555 1_555
C2 C1 1_555 1_555
H2 C2 1_555 1_555
C3 N1 1_555 1_555
H3 C3 1_555 1_555
N2 C2 1_555 1_555
C4 N2 1_555 1_555
H4 C4 1_555 1_555
H5 C4 1_555 1_555
O1 C5 1_555 1_555
C5 O6 1_555 1_555
Zn1 N1 1_555 1_555
O2 C6 1_555 1_555
C6 O3 1_555 1_555
N3 C7 1_555 1_555
N4 C7 1_555 1_555
C7 H6 1_555 1_555
C8 N4 1_555 1_555
H7 C8 1_555 1_555
N5 C11 1_555 1_555
C9 C10 1_555 1_555
C10 C6 1_555 1_555
C11 C14 1_555 1_555
C12 N5 1_555 1_555
C13 H8 1_555 1_555
H9 C13 1_555 1_555
O4 C20 1_555 1_555
C14 H10 1_555 1_555
C15 N5 1_555 1_555
O5 C20 1_555 1_555
C16 C4 1_555 1_555
H11 C16 1_555 1_555
H12 C16 1_555 1_555
C17 N3 1_555 1_555
H13 C17 1_555 1_555
C18 C11 1_555 1_555
H14 C18 1_555 1_555
C19 N4 1_555 1_555
H15 C19 1_555 1_555
H16 C19 1_555 1_555
C20 C9 1_555 1_555
C21 C12 1_555 1_555
H17 C21 1_555 1_555
H18 C21 1_555 1_555
H19 C21 1_555 1_555
C22 C15 1_555 1_555
H20 C22 1_555 1_555
H21 C22 1_555 1_555
H22 C22 1_555 1_555
C23 C5 1_555 1_555
C24 C18 1_555 1_555
H23 C24 1_555 1_555
C25 C14 1_555 1_555
H24 C25 1_555 1_555
Zn1_2 O2 1_555 1_555
Zn1A N3 1_555 1_555
O2_2 Zn1 1_555 1_555
N3A Zn1 1_555 1_555
C3 N2 1_555 1_555
O1 Zn1 1_555 1_555
C8 C17 1_555 1_555
C9 C15 1_555 1_555
C10 C12 1_555 1_555
C13 C16 1_555 1_555
C13 C19 1_555 1_555
C23 C24 1_555 1_555
C23 C25 1_555 1_555

#END
