
#######################################################################
#
#                 Cambridge Crystallographic Data Centre
#                                CCDC 
#
#######################################################################
#
# If this CIF has been generated from an entry in the Cambridge 
# Structural Database, then it will include bibliographic, chemical, 
# crystal, experimental, refinement or atomic coordinate data resulting 
# from the CCDC's data processing and validation procedures.
#
#######################################################################

data_TEHWOS
_symmetry_cell_setting           monoclinic
_symmetry_space_group_name_H-M   'P 21/n'
_symmetry_Int_Tables_number      14
_space_group_name_Hall           '-P 2yn'
loop_
_symmetry_equiv_pos_site_id
_symmetry_equiv_pos_as_xyz
1 x,y,z
2 1/2-x,1/2+y,1/2-z
3 -x,-y,-z
4 1/2+x,1/2-y,1/2+z
_cell_length_a                   7.275(1)
_cell_length_b                   9.002(2)
_cell_length_c                   19.503(4)
_cell_angle_alpha                90
_cell_angle_beta                 100.61(1)
_cell_angle_gamma                90
_cell_volume                     1255.41
loop_
_atom_site_label
_atom_site_type_symbol
_atom_site_fract_x
_atom_site_fract_y
_atom_site_fract_z
Na1 Na 0.4697(2) -0.02784(12) 0.74476(6)
P1 P 0.00366(9) -0.25208(7) 0.65806(3)
P2 P 0.39513(9) -0.38353(8) 0.67955(3)
O1 O -0.0865(2) -0.1082(2) 0.63124(10)
O2 O -0.1103(2) -0.3907(2) 0.64245(10)
O3 O 0.0687(3) -0.2482(2) 0.73974(9)
H1 H 0.1012 -0.1730 0.75564
O4 O 0.5324(2) -0.4466(2) 0.63266(9)
H2 H 0.6319 -0.4169 0.63782
O5 O 0.4986(3) -0.2876(2) 0.73715(9)
O6 O 0.2908(2) -0.5148(2) 0.70117(9)
O7 O 0.2957(2) -0.1169(2) 0.62444(9)
H3 H 0.3668 -0.1165 0.60023
C1 C 0.2225(4) -0.2661(3) 0.62197(13)
C2 C 0.1830(4) -0.3256(3) 0.54654(13)
H4 H 0.2981 -0.3289 0.52920
H5 H 0.1363 -0.4253 0.54683
C3 C 0.0425(4) -0.2323(3) 0.49647(14)
H6 H 0.0684 -0.1290 0.50572
H7 H -0.0813 -0.2526 0.50447
C4 C 0.0503(4) -0.2649(3) 0.42122(14)
H8 H 0.1732 -0.2423 0.41276
H9 H 0.0268 -0.3686 0.41204
N1 N -0.0907(3) -0.1748(3) 0.37383(11)
H10 H -0.2048 -0.2015 0.38164
H11 H -0.0783 -0.1961 0.32994
H12 H -0.0680 -0.0779 0.38374
O8 O -0.1887(3) -0.4272(2) 0.81201(10)
H13 H -0.2439 -0.4863 0.83108
H14 H -0.2610 -0.3747 0.78706
Na1A Na 0.0303(2) -0.52784(12) 0.75524(6)
O5A O 0.0014(3) -0.7876(2) 0.76285(9)
O7A O 0.2043(2) -0.6169(2) 0.87556(9)
H3A H 0.1332 -0.6165 0.89977
O9 O 0.4481(3) 0.2423(2) 0.59175(11)
H15 H 0.5194 0.1972 0.62000
H16 H 0.4667 0.3292 0.59455
O10 O 0.4328(3) 0.1189(3) 0.45162(12)
H17 H 0.3275 0.1209 0.43211
H18 H 0.4462 0.1485 0.49039
loop_
_geom_bond_atom_site_label_1
_geom_bond_atom_site_label_2
_geom_bond_site_symmetry_1
_geom_bond_site_symmetry_2
Na1 O5 1_555 1_555
P1 O1 1_555 1_555
P2 O4 1_555 1_555
O2 P1 1_555 1_555
O3 P1 1_555 1_555
H1 O3 1_555 1_555
O4 H2 1_555 1_555
O5 P2 1_555 1_555
O6 P2 1_555 1_555
O7 Na1 1_555 1_555
H3 O7 1_555 1_555
C1 P1 1_555 1_555
C2 C1 1_555 1_555
H4 C2 1_555 1_555
H5 C2 1_555 1_555
C3 C2 1_555 1_555
H6 C3 1_555 1_555
H7 C3 1_555 1_555
C4 C3 1_555 1_555
H8 C4 1_555 1_555
H9 C4 1_555 1_555
N1 C4 1_555 1_555
H10 N1 1_555 1_555
H11 N1 1_555 1_555
H12 N1 1_555 1_555
O8 H13 1_555 1_555
H14 O8 1_555 1_555
O9 H15 1_555 1_555
H16 O9 1_555 1_555
O10 H17 1_555 1_555
H18 O10 1_555 1_555
Na1A O2 1_555 1_555
O5A Na1A 1_555 1_555
O7A Na1A 1_555 1_555
H3A O7A 1_555 1_555
P2 C1 1_555 1_555
O3 Na1A 1_555 1_555
O6 Na1A 1_555 1_555
O7 C1 1_555 1_555
O8 Na1A 1_555 1_555

#END
