
#######################################################################
#
#                 Cambridge Crystallographic Data Centre
#                                CCDC 
#
#######################################################################
#
# If this CIF has been generated from an entry in the Cambridge 
# Structural Database, then it will include bibliographic, chemical, 
# crystal, experimental, refinement or atomic coordinate data resulting 
# from the CCDC's data processing and validation procedures.
#
#######################################################################

data_TEHWOS01
_symmetry_cell_setting           monoclinic
_symmetry_space_group_name_H-M   'P 21/c'
_symmetry_Int_Tables_number      14
_space_group_name_Hall           '-P 2ybc'
loop_
_symmetry_equiv_pos_site_id
_symmetry_equiv_pos_as_xyz
1 x,y,z
2 -x,1/2+y,1/2-z
3 -x,-y,-z
4 x,1/2-y,1/2+z
_cell_length_a                   7.2570(4)
_cell_length_b                   8.9539(6)
_cell_length_c                   19.4681(14)
_cell_angle_alpha                90
_cell_angle_beta                 101.204(6)
_cell_angle_gamma                90
_cell_volume                     1240.9
loop_
_atom_site_label
_atom_site_type_symbol
_atom_site_fract_x
_atom_site_fract_y
_atom_site_fract_z
P1 P 0.21749(7) 0.61101(6) 0.32133(3)
P2 P -0.15315(7) 0.74309(6) 0.34171(3)
Na1 Na -0.22467(10) 0.46788(9) 0.24403(4)
O1 O 0.08944(18) 0.47920(15) 0.29952(7)
O2 O 0.26372(18) 0.70700(15) 0.26335(7)
O3 O 0.40231(18) 0.54639(16) 0.36854(7)
H1 H 0.504(2) 0.581(2) 0.3631(13)
O4 O -0.17031(19) 0.74562(15) 0.25974(7)
H2 H -0.143(3) 0.8239(17) 0.2406(11)
O5 O -0.25204(18) 0.60387(15) 0.35787(7)
O6 O -0.21637(18) 0.88880(15) 0.36822(7)
O7 O 0.17303(18) 0.88020(15) 0.37569(7)
H3 H 0.2807(17) 0.882(3) 0.3997(10)
O8 O -0.50099(19) 0.56974(16) 0.18787(8)
H4 H -0.582(3) 0.506(2) 0.1713(12)
H5 H -0.552(3) 0.623(2) 0.2143(11)
N1 N 0.0349(2) 0.8285(2) 0.62653(9)
H6 H -0.0907(15) 0.808(3) 0.6175(12)
H7 H 0.049(3) 0.9272(12) 0.6182(12)
H8 H 0.089(3) 0.812(3) 0.6720(6)
C1 C 0.1028(3) 0.7295(2) 0.37831(10)
C2 C 0.1391(3) 0.6721(2) 0.45451(10)
H9 H 0.0932 0.5680 0.4547
H10 H 0.2763 0.6708 0.4728
C3 C 0.0448(3) 0.7657(2) 0.50360(10)
H11 H 0.0582 0.8729 0.4932
H12 H -0.0910 0.7420 0.4951
C4 C 0.1300(3) 0.7366(2) 0.57975(10)
H13 H 0.1171 0.6294 0.5904
H14 H 0.2656 0.7611 0.5885
Na1A Na 0.22467(10) 0.96788(9) 0.25597(4)
O2A O -0.26372(18) 0.20700(15) 0.23665(7)
O7A O -0.17303(18) 0.38020(15) 0.12431(7)
O9 O 0.5198(2) 0.8794(2) 0.45049(8)
H15 H 0.555(3) 0.855(3) 0.4924(6)
H16 H 0.611(3) 0.872(3) 0.4306(13)
O10 O 0.6420(2) 0.76404(17) 0.59142(8)
H17 H 0.593(3) 0.812(2) 0.6208(11)
H18 H 0.626(3) 0.6733(12) 0.5988(13)
loop_
_geom_bond_atom_site_label_1
_geom_bond_atom_site_label_2
_geom_bond_site_symmetry_1
_geom_bond_site_symmetry_2
P1 O1 1_555 1_555
P2 O4 1_555 1_555
Na1 O1 1_555 1_555
O2 P1 1_555 1_555
O3 P1 1_555 1_555
H1 O3 1_555 1_555
O4 Na1 1_555 1_555
H2 O4 1_555 1_555
O5 P2 1_555 1_555
O6 P2 1_555 1_555
O7 H3 1_555 1_555
O8 Na1 1_555 1_555
H4 O8 1_555 1_555
H5 O8 1_555 1_555
N1 H6 1_555 1_555
H7 N1 1_555 1_555
H8 N1 1_555 1_555
C1 P1 1_555 1_555
C2 C1 1_555 1_555
H9 C2 1_555 1_555
H10 C2 1_555 1_555
C3 C2 1_555 1_555
H11 C3 1_555 1_555
H12 C3 1_555 1_555
C4 N1 1_555 1_555
H13 C4 1_555 1_555
H14 C4 1_555 1_555
O9 H15 1_555 1_555
H16 O9 1_555 1_555
O10 H17 1_555 1_555
H18 O10 1_555 1_555
Na1A O2 1_555 1_555
O2A Na1 1_555 1_555
O7A Na1 1_555 1_555
P2 C1 1_555 1_555
Na1 O5 1_555 1_555
O7 C1 1_555 1_555
O7 Na1A 1_555 1_555
C3 C4 1_555 1_555

#END
