
#######################################################################
#
#                 Cambridge Crystallographic Data Centre
#                                CCDC 
#
#######################################################################
#
# If this CIF has been generated from an entry in the Cambridge 
# Structural Database, then it will include bibliographic, chemical, 
# crystal, experimental, refinement or atomic coordinate data resulting 
# from the CCDC's data processing and validation procedures.
#
#######################################################################

data_TEHWEK
_symmetry_cell_setting           orthorhombic
_symmetry_space_group_name_H-M   'F d d d'
_symmetry_Int_Tables_number      70
_space_group_name_Hall           '-F 2uv 2vw'
loop_
_symmetry_equiv_pos_site_id
_symmetry_equiv_pos_as_xyz
1 x,y,z
2 3/4-x,3/4-y,z
3 3/4-x,y,3/4-z
4 x,3/4-y,3/4-z
5 x,1/2+y,1/2+z
6 3/4-x,1/4-y,1/2+z
7 3/4-x,1/2+y,1/4-z
8 x,1/4-y,1/4-z
9 1/2+x,y,1/2+z
10 1/4-x,3/4-y,1/2+z
11 1/4-x,y,1/4-z
12 1/2+x,3/4-y,1/4-z
13 1/2+x,1/2+y,z
14 1/4-x,1/4-y,z
15 1/4-x,1/2+y,3/4-z
16 1/2+x,1/4-y,3/4-z
17 -x,-y,-z
18 1/4+x,1/4+y,-z
19 1/4+x,-y,1/4+z
20 -x,1/4+y,1/4+z
21 -x,1/2-y,1/2-z
22 1/4+x,3/4+y,1/2-z
23 1/4+x,1/2-y,3/4+z
24 -x,3/4+y,3/4+z
25 1/2-x,-y,1/2-z
26 3/4+x,1/4+y,1/2-z
27 3/4+x,-y,3/4+z
28 1/2-x,1/4+y,3/4+z
29 1/2-x,1/2-y,-z
30 3/4+x,3/4+y,-z
31 3/4+x,1/2-y,1/4+z
32 1/2-x,3/4+y,1/4+z
_cell_length_a                   15.0412(4)
_cell_length_b                   15.8919(4)
_cell_length_c                   28.2210(7)
_cell_angle_alpha                90
_cell_angle_beta                 90
_cell_angle_gamma                90
_cell_volume                     6745.76
loop_
_atom_site_label
_atom_site_type_symbol
_atom_site_fract_x
_atom_site_fract_y
_atom_site_fract_z
Cd1 Cd 0.00310(3) 0.1250 0.1250
C1 C -0.1820(3) 0.2232(3) 0.03052(17)
C3 C -0.1116(3) 0.1936(3) 0.06385(17)
C4 C -0.2305(3) 0.2957(3) 0.04093(19)
H4 H -0.2175 0.3266 0.0681
C6 C -0.2016(3) 0.1780(3) -0.01064(18)
H8 H -0.1691 0.1299 -0.0179
O1 O -0.0578(2) 0.1366(2) 0.05000(12)
O2 O -0.1085(2) 0.2243(2) 0.10476(13)
Cl1 Cl 0.1250 0.01262(10) 0.1250
Cd1J Cd 0.24690(3) 0.1250 0.1250
Cd1AA Cd -0.50310(3) 0.3750 -0.1250
C1BA C -0.3180(3) 0.2768(3) -0.03052(17)
C3BA C -0.3884(3) 0.3064(3) -0.06385(17)
C4BA C -0.2695(3) 0.2043(3) -0.04093(19)
H4BA H -0.2825 0.1734 -0.0681
C6BA C -0.2984(3) 0.3220(3) 0.01064(18)
H8BA H -0.3309 0.3701 0.0179
O1BA O -0.4422(2) 0.3634(2) -0.05000(12)
O1G O -0.0578(2) 0.1134(2) 0.20000(12)
O2BA O -0.3915(2) 0.2757(2) -0.10476(13)
O2G O -0.1085(2) 0.0257(2) 0.14524(13)
Cl1G Cl 0.1250 0.23738(10) 0.1250
C2 C 0.1313(4) 0.0490(3) 0.2595(2)
H1 H 0.1352 -0.0004 0.2789
H2 H 0.1834 0.0531 0.2399
H3 H 0.0795 0.0456 0.2398
C5 C 0.0447(4) 0.1183(4) 0.3207(2)
H5 H 0.0404 0.1673 0.3405
H6 H 0.0490 0.0690 0.3401
H7 H -0.0072 0.1145 0.3010
N1 N 0.1250 0.1250 0.2904(2)
C2M C 0.1187(4) 0.2010(3) 0.2595(2)
H1M H 0.1148 0.2504 0.2789
H2M H 0.0666 0.1969 0.2399
H3M H 0.1705 0.2044 0.2398
C5M C 0.2053(4) 0.1317(4) 0.3207(2)
H5M H 0.2096 0.0827 0.3405
H6M H 0.2010 0.1810 0.3401
H7M H 0.2572 0.1355 0.3010
loop_
_geom_bond_atom_site_label_1
_geom_bond_atom_site_label_2
_geom_bond_site_symmetry_1
_geom_bond_site_symmetry_2
Cd1 O1 1_555 1_555
C1 C3 1_555 1_555
C2 H1 1_555 1_555
H2 C2 1_555 1_555
H3 C2 1_555 1_555
C3 O1 1_555 1_555
C4 C1 1_555 1_555
H4 C4 1_555 1_555
C5 H5 1_555 1_555
H6 C5 1_555 1_555
H7 C5 1_555 1_555
C6 C1 1_555 1_555
H8 C6 1_555 1_555
O2 Cd1 1_555 1_555
N1 C2 1_555 1_555
Cl1 Cd1 1_555 1_555
Cd1J Cl1 1_555 1_555
Cd1AA O1BA 1_555 1_555
C1BA C3BA 1_555 1_555
C2M N1 1_555 1_555
H1M C2M 1_555 1_555
H2M C2M 1_555 1_555
H3M C2M 1_555 1_555
C3BA O1BA 1_555 1_555
C4BA C6 1_555 1_555
H4BA C4BA 1_555 1_555
C5M N1 1_555 1_555
H5M C5M 1_555 1_555
H6M C5M 1_555 1_555
H7M C5M 1_555 1_555
C6BA C4 1_555 1_555
H8BA C6BA 1_555 1_555
O1G Cd1 1_555 1_555
O2BA Cd1AA 1_555 1_555
O2G Cd1 1_555 1_555
Cl1G Cd1 1_555 1_555
C3 O2 1_555 1_555
C5 N1 1_555 1_555
Cd1J Cl1G 1_555 1_555
C1BA C4BA 1_555 1_555
C1BA C6BA 1_555 1_555
C3BA O2BA 1_555 1_555

#END
