
#######################################################################
#
#                 Cambridge Crystallographic Data Centre
#                                CCDC 
#
#######################################################################
#
# If this CIF has been generated from an entry in the Cambridge 
# Structural Database, then it will include bibliographic, chemical, 
# crystal, experimental, refinement or atomic coordinate data resulting 
# from the CCDC's data processing and validation procedures.
#
#######################################################################

data_TEHXAH
_symmetry_cell_setting           monoclinic
_symmetry_space_group_name_H-M   'P 21/c'
_symmetry_Int_Tables_number      14
_space_group_name_Hall           '-P 2ybc'
loop_
_symmetry_equiv_pos_site_id
_symmetry_equiv_pos_as_xyz
1 x,y,z
2 -x,1/2+y,1/2-z
3 -x,-y,-z
4 x,1/2-y,1/2+z
_cell_length_a                   7.6312(2)
_cell_length_b                   6.1860(2)
_cell_length_c                   23.6758(7)
_cell_angle_alpha                90
_cell_angle_beta                 108.670(1)
_cell_angle_gamma                90
_cell_volume                     1058.84
loop_
_atom_site_label
_atom_site_type_symbol
_atom_site_fract_x
_atom_site_fract_y
_atom_site_fract_z
Co1 Co -0.49095(3) -0.89811(3) -0.247931(9)
O1 O -0.20643(15) -0.82653(18) -0.21898(6)
O2 O -0.22356(15) -0.46607(19) -0.23095(5)
N1 N -0.52339(19) -0.6443(2) -0.19055(6)
N2 N -0.4535(2) -0.6328(2) -0.13786(7)
N3 N -0.3918(4) -0.6218(4) -0.08721(9)
N4 N -0.43596(19) -1.1529(2) -0.18495(6)
N5 N -0.2893(2) -1.1701(2) -0.14605(6)
N6 N -0.1507(2) -1.1905(3) -0.10884(8)
N7 N 0.13314(18) -0.7590(3) -0.12879(6)
C1 C -0.1417(2) -0.6399(3) -0.21293(7)
C2 C 0.0655(2) -0.6155(3) -0.18122(10)
H1 H 0.1315 -0.6481 -0.2090
H2 H 0.0920 -0.4666 -0.1685
C3 C 0.2246(2) -0.9390(3) -0.13230(9)
H3 H 0.2431 -0.9766 -0.1680
C4 C 0.2914(3) -1.0693(4) -0.08311(12)
H4 H 0.3569 -1.1945 -0.0849
C5 C 0.2596(4) -1.0109(6) -0.03098(11)
H5 H 0.3026 -1.0973 0.0028
C6 C 0.1649(4) -0.8264(7) -0.02932(11)
H6 H 0.1434 -0.7856 0.0057
C7 C 0.1021(3) -0.7024(5) -0.07855(10)
H7 H 0.0367 -0.5765 -0.0774
Co1A Co -0.50905(3) -0.39811(3) -0.252069(9)
Co1A_2 Co -0.50905(3) -1.39811(3) -0.252069(9)
O2A O -0.77644(15) -0.96607(19) -0.26905(5)
N1A N -0.47661(19) -1.1443(2) -0.30945(6)
N4A N -0.56404(19) -0.6529(2) -0.31505(6)
loop_
_geom_bond_atom_site_label_1
_geom_bond_atom_site_label_2
_geom_bond_site_symmetry_1
_geom_bond_site_symmetry_2
Co1 O1 1_555 1_555
O1 C1 1_555 1_555
O2 C1 1_555 1_555
N1 Co1 1_555 1_555
N2 N1 1_555 1_555
N3 N2 1_555 1_555
N4 Co1 1_555 1_555
N5 N4 1_555 1_555
N6 N5 1_555 1_555
N7 C2 1_555 1_555
C1 C2 1_555 1_555
C2 H1 1_555 1_555
H2 C2 1_555 1_555
C3 N7 1_555 1_555
H3 C3 1_555 1_555
C4 C3 1_555 1_555
H4 C4 1_555 1_555
C5 C4 1_555 1_555
H5 C5 1_555 1_555
C6 C5 1_555 1_555
H6 C6 1_555 1_555
C7 N7 1_555 1_555
H7 C7 1_555 1_555
Co1A O2 1_555 1_555
Co1A_2 N4 1_555 1_555
O2A Co1 1_555 1_555
N1A Co1 1_555 1_555
N4A Co1 1_555 1_555
N1 Co1A 1_555 1_555
C6 C7 1_555 1_555
Co1A N4A 1_555 1_555
Co1A_2 N1A 1_555 1_555

#END
