
#######################################################################
#
#                 Cambridge Crystallographic Data Centre
#                                CCDC 
#
#######################################################################
#
# If this CIF has been generated from an entry in the Cambridge 
# Structural Database, then it will include bibliographic, chemical, 
# crystal, experimental, refinement or atomic coordinate data resulting 
# from the CCDC's data processing and validation procedures.
#
#######################################################################

data_TEHXIP
_symmetry_cell_setting           monoclinic
_symmetry_space_group_name_H-M   'C 2'
_symmetry_Int_Tables_number      5
_space_group_name_Hall           'C 2y'
loop_
_symmetry_equiv_pos_site_id
_symmetry_equiv_pos_as_xyz
1 x,y,z
2 -x,y,-z
3 1/2+x,1/2+y,z
4 1/2-x,1/2+y,-z
_cell_length_a                   15.024(6)
_cell_length_b                   7.662(3)
_cell_length_c                   12.510(5)
_cell_angle_alpha                90
_cell_angle_beta                 114.140(6)
_cell_angle_gamma                90
_cell_volume                     1314.14
loop_
_atom_site_label
_atom_site_type_symbol
_atom_site_fract_x
_atom_site_fract_y
_atom_site_fract_z
Y1 Y 0.25505(4) -0.42056(13) 0.25688(4)
Cu1 Cu 0.0000 0.0764(2) 0.0000
O1 O 0.1552(4) -0.6371(7) 0.1362(4)
O2 O 0.0746(4) -0.7447(7) -0.0419(5)
O3 O 0.2693(3) -0.4545(6) 0.0735(4)
O4 O 0.0760(4) -0.0936(7) -0.0430(5)
O5 O 0.1317(4) -0.2711(7) 0.1065(4)
C1 C 0.1350(5) -0.6431(9) 0.0303(7)
C2 C 0.1846(5) -0.5204(9) -0.0201(6)
H1 H 0.2038 -0.5832 -0.0756
C3 C 0.1192(5) -0.3690(8) -0.0817(6)
H2 H 0.0553 -0.4136 -0.1321
H3 H 0.1459 -0.3110 -0.1310
C4 C 0.1078(5) -0.2364(10) 0.0018(7)
O6 O 0.3548(3) -0.3538(6) 0.4469(4)
O7 O 0.4311(3) -0.1659(6) 0.5888(4)
O8 O 0.2523(4) -0.1249(6) 0.3016(4)
O9 O 0.2549(4) 0.3086(6) 0.3677(4)
O10 O 0.3641(3) 0.3489(6) 0.3020(4)
C5 C 0.3708(5) -0.2017(8) 0.4895(5)
C6 C 0.3097(5) -0.0560(9) 0.4124(6)
H4 H 0.2669 -0.0088 0.4471
C7 C 0.3735(4) 0.0858(12) 0.4028(5)
H5 H 0.4244 0.1064 0.4801
H6 H 0.4049 0.0444 0.3536
C8 C 0.3265(5) 0.2549(9) 0.3555(6)
O11 O 0.4016(3) -0.2960(6) 0.2517(4)
O12 O 0.1273(3) -0.4026(8) 0.3147(4)
O13 O 0.0978(3) 0.0726(9) 0.2072(3)
Y1_2 Y 0.25505(4) -1.42056(13) 0.25688(4)
Y1_3 Y 0.25505(4) 0.57944(13) 0.25688(4)
Cu1_2 Cu 0.0000 -0.9236(2) 0.0000
Cu1_3 Cu 0.0000 1.0764(2) 0.0000
O1_2 O 0.1552(4) 0.3629(7) 0.1362(4)
O2_2 O 0.0746(4) 0.2553(7) -0.0419(5)
O2A O -0.0746(4) 0.2553(7) 0.0419(5)
O3_2 O 0.2693(3) 0.5455(6) 0.0735(4)
O4A O -0.0760(4) -0.0936(7) 0.0430(5)
O4_2 O 0.0760(4) 0.9064(7) -0.0430(5)
O5_2 O 0.1317(4) 0.7289(7) 0.1065(4)
C1_2 C 0.1350(5) 0.3569(9) 0.0303(7)
C2_2 C 0.1846(5) 0.4796(9) -0.0201(6)
H1_2 H 0.2038 0.4168 -0.0756
C3_2 C 0.1192(5) 0.6310(8) -0.0817(6)
H2_2 H 0.0553 0.5864 -0.1321
H3_2 H 0.1459 0.6890 -0.1310
C4_2 C 0.1078(5) 0.7636(10) 0.0018(7)
O6_2 O 0.3548(3) -1.3538(6) 0.4469(4)
O6_3 O 0.3548(3) 0.6462(6) 0.4469(4)
O7_2 O 0.4311(3) -1.1659(6) 0.5888(4)
O8_2 O 0.2523(4) -1.1249(6) 0.3016(4)
O8_3 O 0.2523(4) 0.8751(6) 0.3016(4)
O9_2 O 0.2549(4) -0.6914(6) 0.3677(4)
O10_2 O 0.3641(3) -0.6511(6) 0.3020(4)
C5_2 C 0.3708(5) -1.2017(8) 0.4895(5)
C6_2 C 0.3097(5) -1.0560(9) 0.4124(6)
H4_2 H 0.2669 -1.0088 0.4471
C7_2 C 0.3735(4) -0.9142(12) 0.4028(5)
H5_2 H 0.4244 -0.8936 0.4801
H6_2 H 0.4049 -0.9556 0.3536
C8_2 C 0.3265(5) -0.7451(9) 0.3555(6)
O11_2 O 0.4016(3) 0.7040(6) 0.2517(4)
O12_2 O 0.1273(3) 0.5974(8) 0.3147(4)
O13A O -0.0978(3) 0.0726(9) -0.2072(3)
O14 O 0.5590(4) -0.6021(7) 0.3745(5)
loop_
_geom_bond_atom_site_label_1
_geom_bond_atom_site_label_2
_geom_bond_site_symmetry_1
_geom_bond_site_symmetry_2
Y1 O1 1_555 1_555
Cu1 O4 1_555 1_555
O1 C1 1_555 1_555
O2 C1 1_555 1_555
O3 Y1 1_555 1_555
O4 C4 1_555 1_555
O5 Y1 1_555 1_555
C1 C2 1_555 1_555
C2 O3 1_555 1_555
H1 C2 1_555 1_555
C3 C2 1_555 1_555
H2 C3 1_555 1_555
H3 C3 1_555 1_555
C4 O5 1_555 1_555
O6 Y1 1_555 1_555
O7 C5 1_555 1_555
O8 Y1 1_555 1_555
O9 C8 1_555 1_555
O10 C8 1_555 1_555
C5 O6 1_555 1_555
C6 O8 1_555 1_555
H4 C6 1_555 1_555
C7 C6 1_555 1_555
H5 C7 1_555 1_555
H6 C7 1_555 1_555
C8 C7 1_555 1_555
O11 Y1 1_555 1_555
O12 Y1 1_555 1_555
O13 Cu1 1_555 1_555
Y1_2 O6_2 1_555 1_555
Y1_3 O9 1_555 1_555
Cu1_2 O2 1_555 1_555
Cu1_3 O4_2 1_555 1_555
O1_2 Y1_3 1_555 1_555
O2_2 Cu1 1_555 1_555
O2A Cu1 1_555 1_555
O3_2 Y1_3 1_555 1_555
O4A Cu1 1_555 1_555
O4_2 C4_2 1_555 1_555
O5_2 Y1_3 1_555 1_555
C1_2 O1_2 1_555 1_555
C2_2 O3_2 1_555 1_555
H1_2 C2_2 1_555 1_555
C3_2 C2_2 1_555 1_555
H2_2 C3_2 1_555 1_555
H3_2 C3_2 1_555 1_555
C4_2 O5_2 1_555 1_555
O6_2 C5_2 1_555 1_555
O6_3 Y1_3 1_555 1_555
O7_2 C5_2 1_555 1_555
O8_2 Y1_2 1_555 1_555
O8_3 Y1_3 1_555 1_555
O9_2 Y1 1_555 1_555
O10_2 Y1 1_555 1_555
C5_2 C6_2 1_555 1_555
C6_2 O8_2 1_555 1_555
H4_2 C6_2 1_555 1_555
C7_2 C6_2 1_555 1_555
H5_2 C7_2 1_555 1_555
H6_2 C7_2 1_555 1_555
C8_2 O9_2 1_555 1_555
O11_2 Y1_3 1_555 1_555
O12_2 Y1_3 1_555 1_555
O13A Cu1 1_555 1_555
C3 C4 1_555 1_555
O10 Y1_3 1_555 1_555
C5 C6 1_555 1_555
O2_2 C1_2 1_555 1_555
C1_2 C2_2 1_555 1_555
C3_2 C4_2 1_555 1_555
O10_2 C8_2 1_555 1_555
C7_2 C8_2 1_555 1_555

#END
