
#######################################################################
#
#                 Cambridge Crystallographic Data Centre
#                                CCDC 
#
#######################################################################
#
# If this CIF has been generated from an entry in the Cambridge 
# Structural Database, then it will include bibliographic, chemical, 
# crystal, experimental, refinement or atomic coordinate data resulting 
# from the CCDC's data processing and validation procedures.
#
#######################################################################

data_TEHXEL
_symmetry_cell_setting           monoclinic
_symmetry_space_group_name_H-M   'C 2'
_symmetry_Int_Tables_number      5
_space_group_name_Hall           'C 2y'
loop_
_symmetry_equiv_pos_site_id
_symmetry_equiv_pos_as_xyz
1 x,y,z
2 -x,y,-z
3 1/2+x,1/2+y,z
4 1/2-x,1/2+y,-z
_cell_length_a                   15.188(4)
_cell_length_b                   7.7706(18)
_cell_length_c                   12.701(3)
_cell_angle_alpha                90
_cell_angle_beta                 113.989(4)
_cell_angle_gamma                90
_cell_volume                     1369.49
loop_
_atom_site_label
_atom_site_type_symbol
_atom_site_fract_x
_atom_site_fract_y
_atom_site_fract_z
Tb1 Tb 0.745427(15) -0.33135(16) 0.243591(19)
Cu1 Cu 1.0000 0.1671(2) 0.5000
O1 O 0.8711(4) -0.1826(7) 0.3969(4)
O2 O 0.9239(4) -0.0006(7) 0.5429(5)
O3 O 0.7321(3) -0.3638(5) 0.4292(4)
O4 O 0.8449(4) -0.5495(7) 0.3659(5)
O5 O 0.9262(4) -0.6539(7) 0.5426(5)
C1 C 0.8929(5) -0.1486(10) 0.4980(7)
C2 C 0.8813(5) -0.2772(8) 0.5813(6)
H1 H 0.8550 -0.2183 0.6294
H2 H 0.9443 -0.3211 0.6312
C3 C 0.8160(5) -0.4282(8) 0.5221(6)
H3 H 0.7969 -0.4878 0.5775
C4 C 0.8659(5) -0.5539(9) 0.4732(7)
O6 O 0.6443(3) -0.2611(6) 0.0517(4)
O7 O 0.5694(3) -0.0744(6) -0.0879(4)
O8 O 0.7478(3) -0.0341(6) 0.1966(4)
O9 O 0.6349(3) 0.4359(6) 0.1972(4)
O10 O 0.7452(3) 0.3968(6) 0.1321(4)
C5 C 0.6295(5) -0.1130(8) 0.0102(6)
C6 C 0.6895(4) 0.0343(8) 0.0857(6)
H4 H 0.7315 0.0810 0.0510
C7 C 0.6256(3) 0.1755(12) 0.0955(5)
H5 H 0.5756 0.1966 0.0194
H6 H 0.5943 0.1344 0.1437
C8 C 0.6736(4) 0.3440(8) 0.1436(5)
O11 O 0.5970(3) -0.2056(6) 0.2489(4)
O12 O 0.8740(3) -0.3130(9) 0.1839(4)
O13 O 1.0977(3) 0.1612(10) 0.7067(4)
Tb1_2 Tb 0.745427(15) 0.66865(16) 0.243591(19)
Tb1_3 Tb 0.745427(15) -1.33135(16) 0.243591(19)
Cu1_2 Cu 1.0000 -0.8329(2) 0.5000
Cu1_3 Cu 1.0000 1.1671(2) 0.5000
O1_2 O 0.8711(4) 0.8174(7) 0.3969(4)
O2_2 O 0.9239(4) 0.9994(7) 0.5429(5)
O2A O 1.0761(4) -0.0006(7) 0.4571(5)
O3_2 O 0.7321(3) 0.6362(5) 0.4292(4)
O4_2 O 0.8449(4) 0.4505(7) 0.3659(5)
O5_2 O 0.9262(4) 0.3461(7) 0.5426(5)
O5A O 1.0738(4) 0.3461(7) 0.4574(5)
C1_2 C 0.8929(5) 0.8514(10) 0.4980(7)
C2_2 C 0.8813(5) 0.7228(8) 0.5813(6)
H1_2 H 0.8550 0.7817 0.6294
H2_2 H 0.9443 0.6789 0.6312
C3_2 C 0.8160(5) 0.5718(8) 0.5221(6)
H3_2 H 0.7969 0.5122 0.5775
C4_2 C 0.8659(5) 0.4461(9) 0.4732(7)
O6_2 O 0.6443(3) -1.2611(6) 0.0517(4)
O6_3 O 0.6443(3) 0.7389(6) 0.0517(4)
O7_2 O 0.5694(3) -1.0744(6) -0.0879(4)
O8_2 O 0.7478(3) -1.0341(6) 0.1966(4)
O8_3 O 0.7478(3) 0.9659(6) 0.1966(4)
O9_2 O 0.6349(3) -0.5641(6) 0.1972(4)
O10_2 O 0.7452(3) -0.6032(6) 0.1321(4)
C5_2 C 0.6295(5) -1.1130(8) 0.0102(6)
C6_2 C 0.6895(4) -0.9657(8) 0.0857(6)
H4_2 H 0.7315 -0.9190 0.0510
C7_2 C 0.6256(3) -0.8245(12) 0.0955(5)
H5_2 H 0.5756 -0.8034 0.0194
H6_2 H 0.5943 -0.8656 0.1437
C8_2 C 0.6736(4) -0.6560(8) 0.1436(5)
O11_2 O 0.5970(3) 0.7944(6) 0.2489(4)
O12_2 O 0.8740(3) 0.6870(9) 0.1839(4)
O13A O 0.9023(3) 0.1612(10) 0.2933(4)
O14 O 1.0591(4) -0.0125(6) 0.8748(5)
loop_
_geom_bond_atom_site_label_1
_geom_bond_atom_site_label_2
_geom_bond_site_symmetry_1
_geom_bond_site_symmetry_2
Tb1 O1 1_555 1_555
Cu1 O2 1_555 1_555
O1 C1 1_555 1_555
O2 C1 1_555 1_555
O3 Tb1 1_555 1_555
O4 Tb1 1_555 1_555
O5 C4 1_555 1_555
C1 C2 1_555 1_555
C2 H1 1_555 1_555
H2 C2 1_555 1_555
C3 O3 1_555 1_555
H3 C3 1_555 1_555
C4 O4 1_555 1_555
O6 Tb1 1_555 1_555
O7 C5 1_555 1_555
O8 Tb1 1_555 1_555
O9 C8 1_555 1_555
O10 C8 1_555 1_555
C5 O6 1_555 1_555
C6 O8 1_555 1_555
H4 C6 1_555 1_555
C7 C6 1_555 1_555
H5 C7 1_555 1_555
H6 C7 1_555 1_555
C8 C7 1_555 1_555
O11 Tb1 1_555 1_555
O12 Tb1 1_555 1_555
O13 Cu1 1_555 1_555
Tb1_2 O9 1_555 1_555
Tb1_3 O6_2 1_555 1_555
Cu1_2 O5 1_555 1_555
Cu1_3 O2_2 1_555 1_555
O1_2 Tb1_2 1_555 1_555
O2_2 C1_2 1_555 1_555
O2A Cu1 1_555 1_555
O3_2 Tb1_2 1_555 1_555
O4_2 Tb1_2 1_555 1_555
O5_2 Cu1 1_555 1_555
O5A Cu1 1_555 1_555
C1_2 O1_2 1_555 1_555
C2_2 C1_2 1_555 1_555
H1_2 C2_2 1_555 1_555
H2_2 C2_2 1_555 1_555
C3_2 O3_2 1_555 1_555
H3_2 C3_2 1_555 1_555
C4_2 O4_2 1_555 1_555
O6_2 C5_2 1_555 1_555
O6_3 Tb1_2 1_555 1_555
O7_2 C5_2 1_555 1_555
O8_2 Tb1_3 1_555 1_555
O8_3 Tb1_2 1_555 1_555
O9_2 Tb1 1_555 1_555
O10_2 Tb1 1_555 1_555
C5_2 C6_2 1_555 1_555
C6_2 O8_2 1_555 1_555
H4_2 C6_2 1_555 1_555
C7_2 C6_2 1_555 1_555
H5_2 C7_2 1_555 1_555
H6_2 C7_2 1_555 1_555
C8_2 O9_2 1_555 1_555
O11_2 Tb1_2 1_555 1_555
O12_2 Tb1_2 1_555 1_555
O13A Cu1 1_555 1_555
C2 C3 1_555 1_555
C3 C4 1_555 1_555
O10 Tb1_2 1_555 1_555
C5 C6 1_555 1_555
O5_2 C4_2 1_555 1_555
C2_2 C3_2 1_555 1_555
C3_2 C4_2 1_555 1_555
O10_2 C8_2 1_555 1_555
C7_2 C8_2 1_555 1_555

#END
