
#######################################################################
#
#                 Cambridge Crystallographic Data Centre
#                                CCDC 
#
#######################################################################
#
# If this CIF has been generated from an entry in the Cambridge 
# Structural Database, then it will include bibliographic, chemical, 
# crystal, experimental, refinement or atomic coordinate data resulting 
# from the CCDC's data processing and validation procedures.
#
#######################################################################

data_TEHYIQ
_symmetry_cell_setting           monoclinic
_symmetry_space_group_name_H-M   'P 21/c'
_symmetry_Int_Tables_number      14
_space_group_name_Hall           '-P 2ybc'
loop_
_symmetry_equiv_pos_site_id
_symmetry_equiv_pos_as_xyz
1 x,y,z
2 -x,1/2+y,1/2-z
3 -x,-y,-z
4 x,1/2-y,1/2+z
_cell_length_a                   9.5811(7)
_cell_length_b                   6.2918(5)
_cell_length_c                   7.0913(6)
_cell_angle_alpha                90
_cell_angle_beta                 94.194(7)
_cell_angle_gamma                90
_cell_volume                     426.336
loop_
_atom_site_label
_atom_site_type_symbol
_atom_site_fract_x
_atom_site_fract_y
_atom_site_fract_z
Cu1 Cu 0.47869(4) 0.19324(7) 0.59169(7)
S1 S 0.61724(8) 0.15794(12) 0.88551(12)
N1 N 0.8631(3) 0.3458(5) 0.8026(4)
H1 H 0.9034 0.2265 0.7831
N2 N 0.7058(3) 0.5726(4) 0.8752(4)
C1 C 0.7324(3) 0.3656(5) 0.8569(4)
N3 N 0.9235(3) 0.5399(5) 0.7824(5)
C2 C 0.8252(4) 0.6692(6) 0.8280(6)
H2 H 0.8360 0.8161 0.8283
Cu1C Cu 0.47869(4) 0.30676(7) 1.09169(7)
Cu1A Cu 0.52131(4) 0.69324(7) 0.90831(7)
S1C S 0.61724(8) 0.34206(12) 0.38551(12)
N2A N 0.2942(3) 0.0726(4) 0.6248(4)
loop_
_geom_bond_atom_site_label_1
_geom_bond_atom_site_label_2
_geom_bond_site_symmetry_1
_geom_bond_site_symmetry_2
Cu1 S1 1_555 1_555
S1 C1 1_555 1_555
N1 H1 1_555 1_555
N2 C1 1_555 1_555
C1 N1 1_555 1_555
N3 N1 1_555 1_555
C2 N2 1_555 1_555
H2 C2 1_555 1_555
Cu1C S1 1_555 1_555
Cu1A N2 1_555 1_555
S1C Cu1 1_555 1_555
N2A Cu1 1_555 1_555
N3 C2 1_555 1_555

#END
