
#######################################################################
#
#                 Cambridge Crystallographic Data Centre
#                                CCDC 
#
#######################################################################
#
# If this CIF has been generated from an entry in the Cambridge 
# Structural Database, then it will include bibliographic, chemical, 
# crystal, experimental, refinement or atomic coordinate data resulting 
# from the CCDC's data processing and validation procedures.
#
#######################################################################

data_TEHYOW
_symmetry_cell_setting           monoclinic
_symmetry_space_group_name_H-M   'P 21/c'
_symmetry_Int_Tables_number      14
_space_group_name_Hall           '-P 2ybc'
loop_
_symmetry_equiv_pos_site_id
_symmetry_equiv_pos_as_xyz
1 x,y,z
2 -x,1/2+y,1/2-z
3 -x,-y,-z
4 x,1/2-y,1/2+z
_cell_length_a                   14.0215(8)
_cell_length_b                   10.1661(5)
_cell_length_c                   19.1828(8)
_cell_angle_alpha                90
_cell_angle_beta                 127.676(3)
_cell_angle_gamma                90
_cell_volume                     2164.22
loop_
_atom_site_label
_atom_site_type_symbol
_atom_site_fract_x
_atom_site_fract_y
_atom_site_fract_z
Co1 Co 1.14572(2) -0.05047(3) 0.235369(18)
F1 F 1.31618(12) -0.01667(13) 0.53365(9)
O1 O 1.12630(13) 0.02685(14) 0.32877(10)
O2 O 1.22156(14) 0.21870(16) 0.38936(10)
O3 O 0.96619(13) 0.27606(14) 0.30732(9)
O4 O 0.87890(14) 0.32057(16) 0.36773(11)
N1 N 0.98511(15) 0.05362(17) 0.13763(11)
N2 N 0.79284(14) 0.09811(16) 0.03532(11)
N3 N 0.43682(14) -0.18018(16) -0.10788(11)
N4 N 0.30063(15) -0.33888(17) -0.16563(12)
N5 N 0.40296(14) 0.26733(16) -0.20864(11)
N6 N 0.26157(15) 0.41823(17) -0.26461(12)
C1 C 0.88009(18) 0.0063(2) 0.07085(14)
H1 H 0.8677 -0.0799 0.0507
C2 C 0.84653(18) 0.2123(2) 0.08334(14)
H2 H 0.8094 0.2930 0.0746
C3 C 0.96354(18) 0.1825(2) 0.14525(14)
H3 H 1.0216 0.2411 0.1873
C4 C 0.66733(17) 0.07774(19) -0.03197(13)
C5 C 0.61554(17) -0.0407(2) -0.03600(13)
H4 H 0.6625 -0.1082 0.0033
C6 C 0.49177(17) -0.05713(19) -0.09999(13)
C7 C 0.4912(2) -0.2892(2) -0.05596(17)
H5 H 0.5707 -0.2961 -0.0056
C8 C 0.4071(2) -0.3840(2) -0.09214(17)
H6 H 0.4197 -0.4689 -0.0700
C9 C 0.32197(18) -0.2167(2) -0.17227(15)
H7 H 0.2642 -0.1605 -0.2167
C10 C 0.42127(17) 0.04472(19) -0.15752(13)
H8 H 0.3383 0.0348 -0.1989
C11 C 0.47629(17) 0.16057(19) -0.15227(13)
C12 C 0.4203(2) 0.3517(3) -0.25532(18)
H9 H 0.4805 0.3472 -0.2621
C13 C 0.3321(2) 0.4431(2) -0.28982(18)
H10 H 0.3212 0.5128 -0.3255
C14 C 0.30651(18) 0.3118(2) -0.21654(14)
H11 H 0.2754 0.2716 -0.1908
C15 C 0.59950(17) 0.17896(19) -0.09079(13)
H12 H 0.6357 0.2569 -0.0890
C16 C 1.16272(17) 0.1213(2) 0.38248(13)
C17 C 1.14000(17) 0.11120(19) 0.45008(13)
C18 C 1.04772(18) 0.17533(19) 0.44542(13)
C19 C 0.95707(18) 0.25964(19) 0.36796(14)
C20 C 1.0442(2) 0.1685(2) 0.51632(15)
H13 H 0.9831 0.2117 0.5130
C21 C 1.1299(2) 0.0987(2) 0.59145(15)
H14 H 1.1261 0.0947 0.6382
C22 C 1.2207(2) 0.0351(2) 0.59690(15)
H15 H 1.2791 -0.0124 0.6470
C23 C 1.2233(2) 0.0434(2) 0.52675(15)
Co1A Co 0.85428(2) 0.44953(3) 0.264631(18)
Co1C Co 0.14572(2) -0.44953(3) -0.264631(18)
Co1C_2 Co 0.14572(2) 0.55047(3) -0.264631(18)
O3A O 1.03381(13) -0.22394(14) 0.19268(9)
O4A O 1.12110(14) -0.17943(16) 0.13227(11)
N4C N 1.30063(15) -0.16112(17) 0.33437(12)
N6C N 1.26157(15) 0.08177(17) 0.23539(12)
O5 O 0.85987(17) 0.9559(2) 0.22683(14)
H16 H 0.852(3) 0.895(3) 0.190(2)
H17 H 0.926(3) 0.992(3) 0.249(2)
loop_
_geom_bond_atom_site_label_1
_geom_bond_atom_site_label_2
_geom_bond_site_symmetry_1
_geom_bond_site_symmetry_2
Co1 O1 1_555 1_555
F1 C23 1_555 1_555
O1 C16 1_555 1_555
O2 C16 1_555 1_555
O3 C19 1_555 1_555
O4 C19 1_555 1_555
N1 Co1 1_555 1_555
N2 C1 1_555 1_555
N3 C6 1_555 1_555
N4 C8 1_555 1_555
N5 C11 1_555 1_555
N6 C13 1_555 1_555
C1 N1 1_555 1_555
H1 C1 1_555 1_555
C2 N2 1_555 1_555
H2 C2 1_555 1_555
C3 N1 1_555 1_555
H3 C3 1_555 1_555
C4 N2 1_555 1_555
C5 C4 1_555 1_555
H4 C5 1_555 1_555
C6 C5 1_555 1_555
C7 N3 1_555 1_555
H5 C7 1_555 1_555
C8 C7 1_555 1_555
H6 C8 1_555 1_555
C9 N3 1_555 1_555
H7 C9 1_555 1_555
C10 C6 1_555 1_555
H8 C10 1_555 1_555
C11 C10 1_555 1_555
C12 N5 1_555 1_555
H9 C12 1_555 1_555
C13 C12 1_555 1_555
H10 C13 1_555 1_555
C14 N5 1_555 1_555
H11 C14 1_555 1_555
C15 C4 1_555 1_555
H12 C15 1_555 1_555
C16 C17 1_555 1_555
C17 C18 1_555 1_555
C18 C19 1_555 1_555
C20 C18 1_555 1_555
H13 C20 1_555 1_555
C21 C20 1_555 1_555
H14 C21 1_555 1_555
C22 C21 1_555 1_555
H15 C22 1_555 1_555
C23 C17 1_555 1_555
O5 H16 1_555 1_555
H17 O5 1_555 1_555
Co1A O3 1_555 1_555
Co1C N4 1_555 1_555
Co1C_2 N6 1_555 1_555
O3A Co1 1_555 1_555
O4A Co1 1_555 1_555
N4C Co1 1_555 1_555
N6C Co1 1_555 1_555
O4 Co1A 1_555 1_555
N4 C9 1_555 1_555
N6 C14 1_555 1_555
C2 C3 1_555 1_555
C11 C15 1_555 1_555
C22 C23 1_555 1_555

#END
