
#######################################################################
#
#                 Cambridge Crystallographic Data Centre
#                                CCDC 
#
#######################################################################
#
# If this CIF has been generated from an entry in the Cambridge 
# Structural Database, then it will include bibliographic, chemical, 
# crystal, experimental, refinement or atomic coordinate data resulting 
# from the CCDC's data processing and validation procedures.
#
#######################################################################

data_TEHZOX
_symmetry_cell_setting           monoclinic
_symmetry_space_group_name_H-M   'P 21/n'
_symmetry_Int_Tables_number      14
_space_group_name_Hall           '-P 2yn'
loop_
_symmetry_equiv_pos_site_id
_symmetry_equiv_pos_as_xyz
1 x,y,z
2 1/2-x,1/2+y,1/2-z
3 -x,-y,-z
4 1/2+x,1/2-y,1/2+z
_cell_length_a                   12.057(5)
_cell_length_b                   16.675(6)
_cell_length_c                   12.493(5)
_cell_angle_alpha                90
_cell_angle_beta                 94.891(5)
_cell_angle_gamma                90
_cell_volume                     2502.58
loop_
_atom_site_label
_atom_site_type_symbol
_atom_site_fract_x
_atom_site_fract_y
_atom_site_fract_z
Zn1 Zn -0.18624(8) 0.16243(5) 0.38226(7)
C1 C -0.1996(8) 0.0048(6) 0.3262(7)
C2 C -0.2424(12) -0.0572(8) 0.2525(13)
H1 H -0.3008 -0.0419 0.2033
C3 C -0.2118(13) -0.1274(8) 0.2465(14)
H2 H -0.1538 -0.1477 0.2925
C4 C -0.276(2) -0.1818(14) 0.1567(18)
C5 C 0.4718(7) -0.2706(5) 1.1884(6)
H3 H 0.5106 -0.2308 1.2280
C6 C 0.4397(6) -0.3698(4) 1.0881(6)
H4 H 0.4467 -0.4138 1.0435
C7 C 0.2302(7) -0.3688(5) 1.0878(7)
H5 H 0.1979 -0.3885 1.1513
H6 H 0.2311 -0.4125 1.0367
C8 C 0.1598(6) -0.3008(4) 1.0388(6)
C9 C 0.0547(7) -0.2888(5) 1.0692(7)
H7 H 0.0269 -0.3225 1.1199
C10 C -0.0114(7) -0.2261(5) 1.0244(7)
H8 H -0.0835 -0.2199 1.0445
C11 C 0.0281(6) -0.1733(4) 0.9510(5)
C12 C 0.1352(6) -0.1854(5) 0.9200(5)
H9 H 0.1633 -0.1514 0.8699
C13 C 0.2007(6) -0.2488(5) 0.9642(6)
H10 H 0.2723 -0.2562 0.9434
C14 C -0.0408(6) -0.1036(4) 0.9092(5)
C15 C -0.1545(7) -0.1030(5) 0.9114(7)
H11 H -0.1907 -0.1480 0.9352
C16 C -0.2165(7) -0.0345(6) 0.8777(7)
H12 H -0.2934 -0.0347 0.8797
C17 C -0.1649(7) 0.0324(5) 0.8420(5)
C18 C -0.0522(7) 0.0308(5) 0.8360(6)
H13 H -0.0170 0.0753 0.8092
C19 C 0.0114(7) -0.0364(4) 0.8695(6)
H14 H 0.0880 -0.0362 0.8654
C20 C -0.1961(7) 0.1540(5) 0.6261(6)
H15 H -0.1335 0.1855 0.6434
C21 C -0.3269(8) 0.0916(5) 0.5429(7)
H16 H -0.3733 0.0705 0.4866
C22 C -0.2315(8) 0.1071(5) 0.8123(6)
H17 H -0.3025 0.1042 0.8432
H18 H -0.1918 0.1536 0.8424
N1 N -0.2408(6) 0.1415(4) 0.5274(5)
N2 N -0.2509(6) 0.1167(4) 0.6955(5)
N3 N -0.3391(7) 0.0755(4) 0.6433(6)
N4 N 0.5232(5) -0.3266(3) 1.1312(5)
N5 N 0.3449(5) -0.3415(3) 1.1172(5)
N6 N 0.3643(6) -0.2771(4) 1.1837(5)
O1 O -0.2450(5) 0.0707(4) 0.2948(5)
O2 O -0.1314(5) -0.0005(3) 0.4055(5)
O3 O -0.2364(8) -0.2494(6) 0.1947(6)
O4 O -0.3370(11) -0.1771(6) 0.0818(12)
Zn1A Zn 0.68624(8) -0.33757(5) 1.11774(7)
Zn1A_2 Zn -0.31376(8) -0.33757(5) 0.11774(7)
N4A N -0.0232(5) 0.1734(3) 0.3688(5)
O3A O -0.2636(8) 0.2506(6) 0.3053(6)
O5 O 0.5180(11) 0.0457(11) 0.272(2)
O6 O 0.5269(11) 0.2409(8) 0.1537(11)
O7 O 0.0176(14) 0.4193(12) 0.484(2)
loop_
_geom_bond_atom_site_label_1
_geom_bond_atom_site_label_2
_geom_bond_site_symmetry_1
_geom_bond_site_symmetry_2
Zn1 N1 1_555 1_555
C1 C2 1_555 1_555
C2 H1 1_555 1_555
C3 C2 1_555 1_555
H2 C3 1_555 1_555
C4 C3 1_555 1_555
C5 H3 1_555 1_555
C6 H4 1_555 1_555
C7 H5 1_555 1_555
H6 C7 1_555 1_555
C8 C7 1_555 1_555
C9 C8 1_555 1_555
H7 C9 1_555 1_555
C10 C9 1_555 1_555
H8 C10 1_555 1_555
C11 C10 1_555 1_555
C12 C11 1_555 1_555
H9 C12 1_555 1_555
C13 C8 1_555 1_555
H10 C13 1_555 1_555
C14 C11 1_555 1_555
C15 C14 1_555 1_555
H11 C15 1_555 1_555
C16 C15 1_555 1_555
H12 C16 1_555 1_555
C17 C16 1_555 1_555
C18 C17 1_555 1_555
H13 C18 1_555 1_555
C19 C14 1_555 1_555
H14 C19 1_555 1_555
C20 H15 1_555 1_555
C21 H16 1_555 1_555
C22 C17 1_555 1_555
H17 C22 1_555 1_555
H18 C22 1_555 1_555
N1 C20 1_555 1_555
N2 C20 1_555 1_555
N3 C21 1_555 1_555
N4 C5 1_555 1_555
N5 C6 1_555 1_555
N6 C5 1_555 1_555
O1 Zn1 1_555 1_555
O2 C1 1_555 1_555
O3 C4 1_555 1_555
O4 C4 1_555 1_555
Zn1A N4 1_555 1_555
Zn1A_2 O3 1_555 1_555
N4A Zn1 1_555 1_555
O3A Zn1 1_555 1_555
C1 O1 1_555 1_555
C6 N4 1_555 1_555
C7 N5 1_555 1_555
C12 C13 1_555 1_555
C18 C19 1_555 1_555
C21 N1 1_555 1_555
C22 N2 1_555 1_555
N2 N3 1_555 1_555
N5 N6 1_555 1_555

#END
