
#######################################################################
#
#                 Cambridge Crystallographic Data Centre
#                                CCDC 
#
#######################################################################
#
# If this CIF has been generated from an entry in the Cambridge 
# Structural Database, then it will include bibliographic, chemical, 
# crystal, experimental, refinement or atomic coordinate data resulting 
# from the CCDC's data processing and validation procedures.
#
#######################################################################

data_TEJBOB
_symmetry_cell_setting           monoclinic
_symmetry_space_group_name_H-M   'C c'
_symmetry_Int_Tables_number      9
_space_group_name_Hall           'C -2yc'
loop_
_symmetry_equiv_pos_site_id
_symmetry_equiv_pos_as_xyz
1 x,y,z
2 x,-y,1/2+z
3 1/2+x,1/2+y,z
4 1/2+x,1/2-y,1/2+z
_cell_length_a                   11.084(5)
_cell_length_b                   24.944(5)
_cell_length_c                   23.284(5)
_cell_angle_alpha                90
_cell_angle_beta                 96.974(5)
_cell_angle_gamma                90
_cell_volume                     6389.91
loop_
_atom_site_label
_atom_site_type_symbol
_atom_site_fract_x
_atom_site_fract_y
_atom_site_fract_z
Ag1 Ag 1.24532(10) 0.87136(4) 0.90730(5)
C1 C 1.2334(12) 0.9085(5) 0.7791(6)
H1 H 1.2677 0.9387 0.7980
C2 C 1.2058(12) 0.9099(5) 0.7184(6)
H2 H 1.2227 0.9404 0.6978
C3 C 1.1529(11) 0.8653(5) 0.6894(6)
C4 C 1.1360(12) 0.8197(5) 0.7218(6)
H3 H 1.1037 0.7886 0.7040
C5 C 1.1681(13) 0.8216(5) 0.7807(6)
H4 H 1.1586 0.7903 0.8015
C6 C 1.1968(12) 1.0541(5) 0.5111(6)
H5 H 1.2227 1.0846 0.5318
C7 C 1.1725(13) 1.0079(5) 0.5410(6)
H6 H 1.1805 1.0079 0.5813
C8 C 1.1368(11) 0.9624(5) 0.5108(6)
C9 C 1.1250(13) 0.9634(5) 0.4518(6)
H7 H 1.1025 0.9326 0.4307
C10 C 1.1472(12) 1.0122(5) 0.4226(7)
H8 H 1.1361 1.0136 0.3823
C11 C 0.8821(13) 0.7402(5) 0.4269(6)
H9 H 0.8590 0.7418 0.3872
C12 C 0.9359(12) 0.7838(5) 0.4551(6)
H10 H 0.9494 0.8146 0.4342
C13 C 0.9700(11) 0.7826(5) 0.5138(6)
C14 C 0.9474(11) 0.7377(5) 0.5431(6)
H11 H 0.9670 0.7360 0.5830
C15 C 0.8935(11) 0.6935(5) 0.5123(6)
H12 H 0.8798 0.6623 0.5326
C16 C 1.0313(11) 0.8291(5) 0.5436(6)
C17 C 1.1190(10) 0.8668(4) 0.6278(6)
C18 C 1.1112(10) 0.9124(5) 0.5421(6)
N1 N 1.2118(9) 0.8647(4) 0.8109(5)
N2 N 1.1840(9) 1.0558(4) 0.4533(5)
N3 N 0.8619(10) 0.6945(4) 0.4562(5)
N4 N 1.0616(9) 0.8238(4) 0.6007(5)
N5 N 1.1485(9) 0.9111(4) 0.5989(5)
N6 N 1.0553(9) 0.8727(4) 0.5128(4)
Ag1A Ag 1.24532(10) 1.12864(4) 0.40730(5)
Ag1C Ag 0.74532(10) 0.62864(4) 0.40730(5)
N2A N 1.1840(9) 0.9442(4) 0.9533(5)
N3C N 1.3619(10) 0.8055(4) 0.9562(5)
Ag2 Ag 0.91618(10) 0.86186(4) 0.88651(5)
C19 C 0.8855(12) 0.9096(5) 0.7603(6)
H13 H 0.9195 0.9390 0.7808
C20 C 0.8560(13) 0.9153(5) 0.7016(6)
H14 H 0.8655 0.9480 0.6835
C21 C 0.8116(10) 0.8707(4) 0.6702(6)
C22 C 0.7993(11) 0.8237(5) 0.7006(6)
H15 H 0.7695 0.7930 0.6810
C23 C 0.8299(12) 0.8221(5) 0.7578(6)
H16 H 0.8236 0.7895 0.7764
C24 C 0.8849(13) 1.0606(5) 0.4927(7)
H17 H 0.9189 1.0899 0.5135
C25 C 0.8580(12) 1.0136(5) 0.5229(6)
H18 H 0.8726 1.0123 0.5630
C26 C 0.8101(10) 0.9700(5) 0.4922(5)
C27 C 0.7887(12) 0.9732(6) 0.4334(6)
H19 H 0.7543 0.9444 0.4119
C28 C 0.8187(13) 1.0197(5) 0.4061(7)
H20 H 0.8081 1.0206 0.3659
C29 C 0.5378(12) 0.7521(5) 0.4051(6)
H21 H 0.5112 0.7547 0.3657
C30 C 0.5955(11) 0.7956(5) 0.4329(6)
H22 H 0.6075 0.8265 0.4120
C31 C 0.6347(10) 0.7937(5) 0.4901(6)
C32 C 0.6144(13) 0.7457(5) 0.5189(6)
H23 H 0.6392 0.7420 0.5583
C33 C 0.5562(11) 0.7038(5) 0.4870(6)
H24 H 0.5436 0.6720 0.5062
C34 C 0.6969(10) 0.8383(4) 0.5229(5)
C35 C 0.7819(11) 0.8744(4) 0.6073(6)
C36 C 0.7810(11) 0.9210(5) 0.5229(6)
N7 N 0.8692(10) 0.8648(4) 0.7903(5)
N8 N 0.8628(10) 1.0638(4) 0.4351(5)
N9 N 0.5189(9) 0.7065(4) 0.4324(5)
N10 N 0.7218(8) 0.8332(4) 0.5792(4)
N11 N 0.8140(9) 0.9193(4) 0.5803(5)
N12 N 0.7251(9) 0.8815(4) 0.4918(5)
Ag2A Ag 0.91618(10) 1.13814(4) 0.38651(5)
Ag2C Ag 0.41618(10) 0.63814(4) 0.38651(5)
N8A N 0.8628(10) 0.9362(4) 0.9351(5)
N9C N 1.0189(9) 0.7935(4) 0.9324(5)
Ag3 Ag 0.61941(10) 0.86325(4) 0.94374(5)
C37 C 0.5358(12) 0.8244(5) 0.8166(7)
H25 H 0.5336 0.7921 0.8365
C38 C 0.5108(12) 0.8233(5) 0.7581(6)
H26 H 0.4931 0.7911 0.7387
C39 C 0.5124(11) 0.8718(5) 0.7273(5)
C40 C 0.5418(13) 0.9174(5) 0.7573(6)
H27 H 0.5439 0.9500 0.7382
C41 C 0.5687(12) 0.9146(5) 0.8174(6)
H28 H 0.5916 0.9458 0.8378
C42 C 0.5945(13) 1.0586(5) 0.5504(6)
H29 H 0.6374 1.0858 0.5710
C43 C 0.5687(12) 1.0121(5) 0.5794(6)
H30 H 0.5900 1.0091 0.6191
C44 C 0.5127(10) 0.9717(4) 0.5491(5)
C45 C 0.4786(12) 0.9758(5) 0.4911(6)
H31 H 0.4414 0.9477 0.4696
C46 C 0.5027(13) 1.0250(5) 0.4658(6)
H32 H 0.4771 1.0298 0.4266
C47 C 0.2406(13) 0.7496(5) 0.4605(6)
H33 H 0.2134 0.7517 0.4212
C48 C 0.3020(11) 0.7945(5) 0.4883(6)
H34 H 0.3200 0.8243 0.4668
C49 C 0.3351(10) 0.7933(4) 0.5490(6)
C50 C 0.3105(12) 0.7465(5) 0.5774(6)
H35 H 0.3324 0.7429 0.6170
C51 C 0.2516(12) 0.7048(5) 0.5449(6)
H36 H 0.2326 0.6743 0.5649
C52 C 0.3972(11) 0.8382(5) 0.5795(6)
C53 C 0.4853(11) 0.8732(5) 0.6639(6)
C54 C 0.4831(10) 0.9192(4) 0.5803(6)
N13 N 0.5628(10) 0.8681(4) 0.8470(4)
N14 N 0.5607(9) 1.0654(4) 0.4952(5)
N15 N 0.2210(9) 0.7050(4) 0.4886(5)
N16 N 0.4253(10) 0.8323(4) 0.6361(5)
N17 N 0.5188(9) 0.9171(4) 0.6367(4)
N18 N 0.4225(8) 0.8814(4) 0.5486(5)
Ag3A Ag 0.61941(10) 1.13675(4) 0.44374(5)
Ag3C Ag 0.11941(10) 0.63675(4) 0.44374(5)
N14A N 0.5607(9) 0.9346(4) 0.9952(5)
N15C N 0.7210(9) 0.7950(4) 0.9886(5)
Mo1 Mo 0.66391(10) 0.66688(4) 0.66807(5)
Mo2 Mo 0.86104(10) 0.56622(4) 0.68490(6)
Mo3 Mo 0.86305(13) 0.57120(5) 0.81929(6)
Mo4 Mo 0.67017(14) 0.67401(5) 0.80334(6)
Mo5 Mo 0.57448(11) 0.54935(4) 0.73701(6)
O1 O 0.5350(9) 0.6735(4) 0.6221(5)
O2 O 0.7695(9) 0.7023(3) 0.6371(5)
O3 O 0.7090(8) 0.5952(3) 0.6505(4)
O4 O 0.9608(9) 0.6047(4) 0.6536(5)
O5 O 0.8642(9) 0.5058(4) 0.6517(5)
O6 O 0.9585(9) 0.5539(4) 0.7564(5)
O7 O 0.7366(8) 0.5335(3) 0.7472(4)
O8 O 0.9681(13) 0.6099(6) 0.8591(6)
O9 O 0.8612(11) 0.5130(4) 0.8582(5)
O10 O 0.7170(11) 0.6050(4) 0.8350(4)
O11 O 0.5624(8) 0.6225(3) 0.7340(5)
O12 O 0.5449(13) 0.6877(4) 0.8353(6)
O13 O 0.7825(12) 0.7128(4) 0.8398(5)
O14 O 0.6472(10) 0.7142(3) 0.7317(5)
O15 O 0.8133(8) 0.6389(3) 0.7456(4)
O16 O 0.5031(12) 0.5248(4) 0.7935(6)
O17 O 0.5027(9) 0.5224(4) 0.6749(5)
O18 O 1.0228(19) 0.6975(8) 0.7573(11)
H37 H 0.9575 0.6793 0.7540
H38 H 1.0527 0.6954 0.7255
O19 O 1.105(3) 0.6921(10) 0.6669(14)
H39 H 1.0469 0.6699 0.6634
H40 H 1.1704 0.6747 0.6640
O20 O 1.300(3) 0.6044(19) 0.6537(15)
H41 H 1.2448 0.6274 0.6577
H42 H 1.3621 0.6213 0.6455
O21 O 1.2072(17) 0.5493(11) 0.7710(19)
H43 H 1.1300 0.5505 0.7667
H44 H 1.2317 0.5638 0.7414
H45 H 1.2477 0.5433 0.8016
loop_
_geom_bond_atom_site_label_1
_geom_bond_atom_site_label_2
_geom_bond_site_symmetry_1
_geom_bond_site_symmetry_2
Ag1 N1 1_555 1_555
Ag2 N7 1_555 1_555
Ag3 N13 1_555 1_555
Mo1 O1 1_555 1_555
Mo2 O3 1_555 1_555
Mo3 O6 1_555 1_555
Mo4 O10 1_555 1_555
Mo5 O7 1_555 1_555
C1 H1 1_555 1_555
C2 C1 1_555 1_555
H2 C2 1_555 1_555
C3 C2 1_555 1_555
C4 C3 1_555 1_555
H3 C4 1_555 1_555
C5 C4 1_555 1_555
H4 C5 1_555 1_555
C6 H5 1_555 1_555
C7 C6 1_555 1_555
H6 C7 1_555 1_555
C8 C7 1_555 1_555
C9 C8 1_555 1_555
H7 C9 1_555 1_555
C10 C9 1_555 1_555
H8 C10 1_555 1_555
C11 H9 1_555 1_555
C12 C11 1_555 1_555
H10 C12 1_555 1_555
C13 C12 1_555 1_555
C14 C13 1_555 1_555
H11 C14 1_555 1_555
C15 C14 1_555 1_555
H12 C15 1_555 1_555
C16 C13 1_555 1_555
C17 C3 1_555 1_555
C18 C8 1_555 1_555
C19 H13 1_555 1_555
C20 C19 1_555 1_555
H14 C20 1_555 1_555
C21 C20 1_555 1_555
C22 C21 1_555 1_555
H15 C22 1_555 1_555
C23 C22 1_555 1_555
H16 C23 1_555 1_555
C24 H17 1_555 1_555
C25 C24 1_555 1_555
H18 C25 1_555 1_555
C26 C25 1_555 1_555
C27 C26 1_555 1_555
H19 C27 1_555 1_555
C28 C27 1_555 1_555
H20 C28 1_555 1_555
C29 H21 1_555 1_555
C30 C29 1_555 1_555
H22 C30 1_555 1_555
C31 C30 1_555 1_555
C32 C31 1_555 1_555
H23 C32 1_555 1_555
C33 C32 1_555 1_555
H24 C33 1_555 1_555
C34 C31 1_555 1_555
C35 C21 1_555 1_555
C36 C26 1_555 1_555
C37 H25 1_555 1_555
C38 C37 1_555 1_555
H26 C38 1_555 1_555
C39 C38 1_555 1_555
C40 C39 1_555 1_555
H27 C40 1_555 1_555
C41 C40 1_555 1_555
H28 C41 1_555 1_555
C42 H29 1_555 1_555
C43 C42 1_555 1_555
H30 C43 1_555 1_555
C44 C43 1_555 1_555
C45 C44 1_555 1_555
H31 C45 1_555 1_555
C46 C45 1_555 1_555
H32 C46 1_555 1_555
C47 H33 1_555 1_555
C48 C47 1_555 1_555
H34 C48 1_555 1_555
C49 C48 1_555 1_555
C50 C49 1_555 1_555
H35 C50 1_555 1_555
C51 C50 1_555 1_555
H36 C51 1_555 1_555
C52 C49 1_555 1_555
C53 C39 1_555 1_555
C54 C44 1_555 1_555
N1 C1 1_555 1_555
N2 C6 1_555 1_555
N3 C11 1_555 1_555
N4 C16 1_555 1_555
N5 C17 1_555 1_555
N6 C16 1_555 1_555
N7 C19 1_555 1_555
N8 C24 1_555 1_555
N9 C29 1_555 1_555
N10 C34 1_555 1_555
N11 C35 1_555 1_555
N12 C34 1_555 1_555
N13 C37 1_555 1_555
N14 C42 1_555 1_555
N15 C47 1_555 1_555
N16 C52 1_555 1_555
N17 C53 1_555 1_555
N18 C52 1_555 1_555
O2 Mo1 1_555 1_555
O3 Mo1 1_555 1_555
O4 Mo2 1_555 1_555
O5 Mo2 1_555 1_555
O6 Mo2 1_555 1_555
O7 Mo2 1_555 1_555
O8 Mo3 1_555 1_555
O9 Mo3 1_555 1_555
O10 Mo3 1_555 1_555
O11 Mo1 1_555 1_555
O12 Mo4 1_555 1_555
O13 Mo4 1_555 1_555
O14 Mo1 1_555 1_555
O15 Mo1 1_555 1_555
O16 Mo5 1_555 1_555
O17 Mo5 1_555 1_555
O18 H37 1_555 1_555
H38 O18 1_555 1_555
O19 H39 1_555 1_555
H40 O19 1_555 1_555
O20 H41 1_555 1_555
H42 O20 1_555 1_555
O21 H43 1_555 1_555
H44 O21 1_555 1_555
H45 O21 1_555 1_555
Ag1A N2 1_555 1_555
Ag1C N3 1_555 1_555
Ag2A N8 1_555 1_555
Ag2C N9 1_555 1_555
Ag3A N14 1_555 1_555
Ag3C N15 1_555 1_555
N2A Ag1 1_555 1_555
N3C Ag1 1_555 1_555
N8A Ag2 1_555 1_555
N9C Ag2 1_555 1_555
N14A Ag3 1_555 1_555
N15C Ag3 1_555 1_555
Mo2 O15 1_555 1_555
Mo3 O7 1_555 1_555
Mo3 O15 1_555 1_555
Mo4 O11 1_555 1_555
Mo4 O14 1_555 1_555
Mo4 O15 1_555 1_555
Mo5 O11 1_555 1_555
C5 N1 1_555 1_555
C10 N2 1_555 1_555
C15 N3 1_555 1_555
C17 N4 1_555 1_555
C18 N5 1_555 1_555
C18 N6 1_555 1_555
C23 N7 1_555 1_555
C28 N8 1_555 1_555
C33 N9 1_555 1_555
C35 N10 1_555 1_555
C36 N11 1_555 1_555
C36 N12 1_555 1_555
C41 N13 1_555 1_555
C46 N14 1_555 1_555
C51 N15 1_555 1_555
C53 N16 1_555 1_555
C54 N17 1_555 1_555
C54 N18 1_555 1_555

#END
