
#######################################################################
#
#                 Cambridge Crystallographic Data Centre
#                                CCDC 
#
#######################################################################
#
# If this CIF has been generated from an entry in the Cambridge 
# Structural Database, then it will include bibliographic, chemical, 
# crystal, experimental, refinement or atomic coordinate data resulting 
# from the CCDC's data processing and validation procedures.
#
#######################################################################

data_TEJBIV
_symmetry_cell_setting           triclinic
_symmetry_space_group_name_H-M   'P -1'
_symmetry_Int_Tables_number      2
_space_group_name_Hall           '-P 1'
loop_
_symmetry_equiv_pos_site_id
_symmetry_equiv_pos_as_xyz
1 x,y,z
2 -x,-y,-z
_cell_length_a                   12.4940(11)
_cell_length_b                   14.4859(14)
_cell_length_c                   15.6021(16)
_cell_angle_alpha                107.883(2)
_cell_angle_beta                 106.802(2)
_cell_angle_gamma                103.384(1)
_cell_volume                     2408.45
loop_
_atom_site_label
_atom_site_type_symbol
_atom_site_fract_x
_atom_site_fract_y
_atom_site_fract_z
Ag1 Ag 0.55989(3) 0.69450(3) 0.31844(2)
P1 P 0.73041(10) 0.81247(9) 0.31161(8)
P2 P 0.50916(10) 0.72447(8) 0.46553(8)
P3 P 0.37882(10) 0.56929(9) 0.17334(8)
C1 C 0.8423(4) 0.8995(3) 0.4338(3)
H1 H 0.8037 0.9399 0.4675
H2 H 0.8632 0.8566 0.4682
C2 C 0.9566(4) 0.9738(3) 0.4462(3)
H3 H 0.9400 1.0263 0.4234
H4 H 0.9931 0.9371 0.4069
C3 C 0.8180(4) 0.7588(3) 0.2491(3)
C4 C 0.8220(4) 0.6628(4) 0.2438(3)
H5 H 0.7755 0.6247 0.2668
C5 C 0.8965(5) 0.6236(4) 0.2036(4)
H6 H 0.8992 0.5588 0.1996
C6 C 0.9661(4) 0.6795(4) 0.1699(4)
H7 H 1.0166 0.6533 0.1443
C7 C 0.9610(4) 0.7718(4) 0.1741(3)
H8 H 1.0074 0.8091 0.1504
C8 C 0.8873(4) 0.8129(4) 0.2134(3)
H9 H 0.8847 0.8773 0.2157
C9 C 0.6809(4) 0.8928(3) 0.2514(3)
C10 C 0.6857(4) 0.9915(4) 0.3041(4)
H10 H 0.7199 1.0199 0.3720
C11 C 0.6391(5) 1.0479(4) 0.2545(5)
H11 H 0.6442 1.1146 0.2897
C12 C 0.5864(5) 1.0060(5) 0.1552(6)
H12 H 0.5546 1.0438 0.1229
C13 C 0.5800(5) 0.9090(5) 0.1030(5)
H13 H 0.5443 0.8808 0.0351
C14 C 0.6261(4) 0.8525(4) 0.1503(4)
H14 H 0.6205 0.7860 0.1139
C15 C 0.4425(4) 0.6082(3) 0.4815(3)
H15 H 0.4240 0.6277 0.5394
H16 H 0.3684 0.5647 0.4256
C16 C 0.5257(4) 0.5477(3) 0.4919(3)
H17 H 0.5425 0.5270 0.4333
H18 H 0.6007 0.5921 0.5466
C17 C 0.6185(4) 0.8108(3) 0.5883(3)
C18 C 0.5846(4) 0.8474(3) 0.6650(3)
H19 H 0.5039 0.8280 0.6542
C19 C 0.6680(5) 0.9119(4) 0.7568(3)
H20 H 0.6437 0.9361 0.8078
C20 C 0.7877(5) 0.9410(4) 0.7737(4)
H21 H 0.8443 0.9859 0.8358
C21 C 0.8229(5) 0.9038(4) 0.6995(4)
H22 H 0.9037 0.9225 0.7108
C22 C 0.7386(4) 0.8385(3) 0.6074(3)
H23 H 0.7634 0.8126 0.5572
C23 C 0.3955(4) 0.7834(3) 0.4453(3)
C24 C 0.4149(4) 0.8624(3) 0.4133(3)
H24 H 0.4872 0.8866 0.4077
C25 C 0.3298(6) 0.9061(4) 0.3896(4)
H25 H 0.3445 0.9592 0.3682
C26 C 0.2242(6) 0.8710(5) 0.3979(4)
H26 H 0.1667 0.9005 0.3822
C27 C 0.2016(5) 0.7939(5) 0.4288(4)
H27 H 0.1285 0.7702 0.4334
C28 C 0.2875(4) 0.7493(4) 0.4539(3)
H28 H 0.2722 0.6971 0.4763
C29 C 0.4001(4) 0.4796(3) 0.0731(3)
H29 H 0.4268 0.4292 0.0936
H30 H 0.3242 0.4424 0.0175
C30 C 0.4908(4) 0.5356(3) 0.0422(3)
H31 H 0.4647 0.5872 0.0235
H32 H 0.5667 0.5717 0.0977
C31 C 0.2731(4) 0.4889(3) 0.2033(3)
C32 C 0.2808(5) 0.3957(4) 0.2063(4)
H33 H 0.3359 0.3707 0.1868
C33 C 0.2073(6) 0.3402(4) 0.2380(4)
H34 H 0.2131 0.2778 0.2396
C34 C 0.1262(5) 0.3758(5) 0.2670(4)
H35 H 0.0753 0.3368 0.2864
C35 C 0.1199(4) 0.4676(5) 0.2675(4)
H36 H 0.0662 0.4926 0.2891
C36 C 0.1929(4) 0.5247(4) 0.2363(3)
H37 H 0.1879 0.5881 0.2374
C37 C 0.2902(4) 0.6328(3) 0.1145(3)
C38 C 0.1811(4) 0.5774(4) 0.0374(3)
H38 H 0.1509 0.5056 0.0154
C39 C 0.1164(5) 0.6260(5) -0.0073(4)
H39 H 0.0427 0.5873 -0.0589
C40 C 0.1598(5) 0.7315(5) 0.0237(4)
H40 H 0.1161 0.7644 -0.0070
C41 C 0.2668(6) 0.7876(4) 0.0993(5)
H41 H 0.2964 0.8593 0.1209
C42 C 0.3321(4) 0.7382(4) 0.1445(4)
H42 H 0.4057 0.7773 0.1960
Ag1A Ag 1.44011(3) 1.30550(3) 0.68156(2)
Ag1A_2 Ag 0.44011(3) 0.30550(3) 0.68156(2)
Ag1A_3 Ag 0.44011(3) 0.30550(3) -0.31844(2)
P1A P 1.26959(10) 1.18753(9) 0.68839(8)
P2A P 0.49084(10) 0.27553(8) 0.53447(8)
P2A_2 P 1.49084(10) 1.27553(8) 0.53447(8)
P3A P 0.62118(10) 0.43071(9) -0.17334(8)
P3A_2 P 1.62118(10) 1.43071(9) 0.82666(8)
C1A C 1.1577(4) 1.1005(3) 0.5662(3)
H1A H 1.1963 1.0601 0.5325
H2A H 1.1368 1.1434 0.5318
C2A C 1.0434(4) 1.0262(3) 0.5538(3)
H3A H 1.0600 0.9737 0.5766
H4A H 1.0069 1.0629 0.5931
C3A C 1.1820(4) 1.2412(3) 0.7509(3)
C4A C 1.1780(4) 1.3372(4) 0.7562(3)
H5A H 1.2245 1.3753 0.7332
C5A C 1.1035(5) 1.3764(4) 0.7964(4)
H6A H 1.1008 1.4412 0.8004
C6A C 1.0339(4) 1.3205(4) 0.8301(4)
H7A H 0.9834 1.3467 0.8557
C7A C 1.0390(4) 1.2282(4) 0.8259(3)
H8A H 0.9926 1.1909 0.8496
C8A C 1.1127(4) 1.1871(4) 0.7866(3)
H9A H 1.1153 1.1227 0.7843
C9A C 1.3191(4) 1.1072(3) 0.7486(3)
C10A C 1.3143(4) 1.0085(4) 0.6959(4)
H10A H 1.2801 0.9801 0.6280
C11A C 1.3609(5) 0.9521(4) 0.7455(5)
H11A H 1.3558 0.8854 0.7103
C12A C 1.4136(5) 0.9940(5) 0.8448(6)
H12A H 1.4454 0.9562 0.8771
C13A C 1.4200(5) 1.0910(5) 0.8970(5)
H13A H 1.4557 1.1192 0.9649
C14A C 1.3739(4) 1.1475(4) 0.8497(4)
H14A H 1.3795 1.2140 0.8861
C15A C 0.5575(4) 0.3918(3) 0.5185(3)
H15A H 0.5760 0.3723 0.4606
H16A H 0.6316 0.4353 0.5744
C16A C 0.4743(4) 0.4523(3) 0.5081(3)
H17A H 0.4575 0.4730 0.5667
H18A H 0.3993 0.4079 0.4534
C17A C 0.3815(4) 0.1892(3) 0.4117(3)
C18A C 0.4154(4) 0.1526(3) 0.3350(3)
H19A H 0.4961 0.1720 0.3458
C19A C 0.3320(5) 0.0881(4) 0.2432(3)
H20A H 0.3563 0.0639 0.1922
C20A C 0.2123(5) 0.0590(4) 0.2263(4)
H21A H 0.1557 0.0141 0.1642
C21A C 0.1771(5) 0.0962(4) 0.3005(4)
H22A H 0.0963 0.0775 0.2892
C22A C 0.2614(4) 0.1615(3) 0.3926(3)
H23A H 0.2366 0.1874 0.4428
C23A C 0.6045(4) 0.2166(3) 0.5547(3)
C24A C 0.5851(4) 0.1376(3) 0.5867(3)
H24A H 0.5128 0.1134 0.5923
C25A C 0.6702(6) 0.0939(4) 0.6104(4)
H25A H 0.6555 0.0408 0.6318
C26A C 0.7758(6) 0.1290(5) 0.6021(4)
H26A H 0.8333 0.0995 0.6178
C27A C 0.7984(5) 0.2061(5) 0.5712(4)
H27A H 0.8715 0.2298 0.5666
C28A C 0.7125(4) 0.2507(4) 0.5461(3)
H28A H 0.7278 0.3029 0.5237
C29A C 0.5999(4) 0.5204(3) -0.0731(3)
H29A H 0.5732 0.5708 -0.0936
H30A H 0.6758 0.5576 -0.0175
C30A C 0.5092(4) 0.4644(3) -0.0422(3)
H31A H 0.5353 0.4128 -0.0235
H32A H 0.4333 0.4283 -0.0977
C31A C 0.7269(4) 0.5111(3) -0.2033(3)
C32A C 0.7192(5) 0.6043(4) -0.2063(4)
H33A H 0.6641 0.6293 -0.1868
C33A C 0.7927(6) 0.6598(4) -0.2380(4)
H34A H 0.7869 0.7222 -0.2396
C34A C 0.8738(5) 0.6242(5) -0.2670(4)
H35A H 0.9247 0.6632 -0.2864
C35A C 0.8801(4) 0.5324(5) -0.2675(4)
H36A H 0.9338 0.5074 -0.2891
C36A C 0.8071(4) 0.4753(4) -0.2363(3)
H37A H 0.8121 0.4119 -0.2374
C37A C 0.7098(4) 0.3672(3) -0.1145(3)
C38A C 0.8189(4) 0.4226(4) -0.0374(3)
H38A H 0.8491 0.4944 -0.0154
C39A C 0.8836(5) 0.3740(5) 0.0073(4)
H39A H 0.9573 0.4127 0.0589
C40A C 0.8402(5) 0.2685(5) -0.0237(4)
H40A H 0.8839 0.2356 0.0070
C41A C 0.7332(6) 0.2124(4) -0.0993(5)
H41A H 0.7036 0.1407 -0.1209
C42A C 0.6679(4) 0.2618(4) -0.1445(4)
H42A H 0.5943 0.2227 -0.1960
F1 F 0.6626(3) 0.3563(3) 0.0935(3)
F2 F 0.8023(3) 0.3914(3) 0.2265(3)
F3 F 0.6932(3) 0.2363(3) 0.1350(3)
O1 O 0.6019(3) 0.4474(3) 0.2602(3)
O2 O 0.4780(3) 0.2687(3) 0.1553(3)
O3 O 0.6377(3) 0.3097(3) 0.3082(3)
S1 S 0.59017(12) 0.33976(13) 0.23015(11)
C48 C 0.6919(6) 0.3299(6) 0.1682(5)
N1 N 0.9284(5) 0.7294(4) 0.5374(4)
C43 C 0.8484(5) 0.6361(5) 0.4801(4)
H43 H 0.7709 0.6315 0.4475
C44 C 0.8712(5) 0.5453(5) 0.4652(4)
H44 H 0.8096 0.4820 0.4257
C45 C 0.9859(5) 0.5484(4) 0.5089(4)
C46 C 1.0703(5) 0.6458(4) 0.5689(4)
H45 H 1.1488 0.6530 0.6017
C47 C 1.0383(5) 0.7324(4) 0.5803(4)
H46 H 1.0974 0.7969 0.6205
N1A N 1.0716(5) 0.2706(4) 0.4626(4)
C43A C 1.1516(5) 0.3639(5) 0.5199(4)
H43A H 1.2291 0.3685 0.5525
C44A C 1.1288(5) 0.4547(5) 0.5348(4)
H44A H 1.1904 0.5180 0.5743
C45A C 1.0141(5) 0.4516(4) 0.4911(4)
C46A C 0.9297(5) 0.3542(4) 0.4311(4)
H45A H 0.8512 0.3470 0.3983
C47A C 0.9617(5) 0.2676(4) 0.4197(4)
H46A H 0.9026 0.2031 0.3795
N2 N 0.1981(15) 1.1434(10) 1.0234(9)
C49 C 0.1426(14) 1.0578(16) 0.9734(10)
C50 C 0.0998(12) 0.9494(10) 0.9263(9)
H47 H 0.0713 0.9292 0.8568
H48 H 0.0356 0.9207 0.9433
H49 H 0.1631 0.9241 0.9467
loop_
_geom_bond_atom_site_label_1
_geom_bond_atom_site_label_2
_geom_bond_site_symmetry_1
_geom_bond_site_symmetry_2
Ag1 P1 1_555 1_555
F1 C48 1_555 1_555
F2 C48 1_555 1_555
F3 C48 1_555 1_555
N1 C43 1_555 1_555
N2 C49 1_555 1_555
O1 S1 1_555 1_555
O2 S1 1_555 1_555
O3 S1 1_555 1_555
P1 C1 1_555 1_555
P2 Ag1 1_555 1_555
P3 Ag1 1_555 1_555
S1 C48 1_555 1_555
C1 H1 1_555 1_555
H2 C1 1_555 1_555
C2 C1 1_555 1_555
H3 C2 1_555 1_555
H4 C2 1_555 1_555
C3 P1 1_555 1_555
C4 C3 1_555 1_555
H5 C4 1_555 1_555
C5 C4 1_555 1_555
H6 C5 1_555 1_555
C6 C5 1_555 1_555
H7 C6 1_555 1_555
C7 C6 1_555 1_555
H8 C7 1_555 1_555
C8 C3 1_555 1_555
H9 C8 1_555 1_555
C9 P1 1_555 1_555
C10 C9 1_555 1_555
H10 C10 1_555 1_555
C11 C10 1_555 1_555
H11 C11 1_555 1_555
C12 C11 1_555 1_555
H12 C12 1_555 1_555
C13 C12 1_555 1_555
H13 C13 1_555 1_555
C14 C9 1_555 1_555
H14 C14 1_555 1_555
C15 P2 1_555 1_555
H15 C15 1_555 1_555
H16 C15 1_555 1_555
C16 C15 1_555 1_555
H17 C16 1_555 1_555
H18 C16 1_555 1_555
C17 P2 1_555 1_555
C18 C17 1_555 1_555
H19 C18 1_555 1_555
C19 C18 1_555 1_555
H20 C19 1_555 1_555
C20 C19 1_555 1_555
H21 C20 1_555 1_555
C21 C20 1_555 1_555
H22 C21 1_555 1_555
C22 C17 1_555 1_555
H23 C22 1_555 1_555
C23 P2 1_555 1_555
C24 C23 1_555 1_555
H24 C24 1_555 1_555
C25 C24 1_555 1_555
H25 C25 1_555 1_555
C26 C25 1_555 1_555
H26 C26 1_555 1_555
C27 C26 1_555 1_555
H27 C27 1_555 1_555
C28 C23 1_555 1_555
H28 C28 1_555 1_555
C29 P3 1_555 1_555
H29 C29 1_555 1_555
H30 C29 1_555 1_555
C30 C29 1_555 1_555
H31 C30 1_555 1_555
H32 C30 1_555 1_555
C31 P3 1_555 1_555
C32 C31 1_555 1_555
H33 C32 1_555 1_555
C33 C32 1_555 1_555
H34 C33 1_555 1_555
C34 C33 1_555 1_555
H35 C34 1_555 1_555
C35 C34 1_555 1_555
H36 C35 1_555 1_555
C36 C31 1_555 1_555
H37 C36 1_555 1_555
C37 P3 1_555 1_555
C38 C37 1_555 1_555
H38 C38 1_555 1_555
C39 C38 1_555 1_555
H39 C39 1_555 1_555
C40 C39 1_555 1_555
H40 C40 1_555 1_555
C41 C40 1_555 1_555
H41 C41 1_555 1_555
C42 C37 1_555 1_555
H42 C42 1_555 1_555
C43 H43 1_555 1_555
C44 C43 1_555 1_555
H44 C44 1_555 1_555
C45 C44 1_555 1_555
C46 C45 1_555 1_555
H45 C46 1_555 1_555
C47 N1 1_555 1_555
H46 C47 1_555 1_555
C49 C50 1_555 1_555
C50 H47 1_555 1_555
H48 C50 1_555 1_555
H49 C50 1_555 1_555
Ag1A P1A 1_555 1_555
Ag1A_2 P2A 1_555 1_555
Ag1A_3 P3A 1_555 1_555
N1A C43A 1_555 1_555
P1A C1A 1_555 1_555
P2A C15A 1_555 1_555
P2A_2 Ag1A 1_555 1_555
P3A C29A 1_555 1_555
P3A_2 Ag1A 1_555 1_555
C1A H1A 1_555 1_555
H2A C1A 1_555 1_555
C2A C2 1_555 1_555
H3A C2A 1_555 1_555
H4A C2A 1_555 1_555
C3A P1A 1_555 1_555
C4A C3A 1_555 1_555
H5A C4A 1_555 1_555
C5A C4A 1_555 1_555
H6A C5A 1_555 1_555
C6A C5A 1_555 1_555
H7A C6A 1_555 1_555
C7A C6A 1_555 1_555
H8A C7A 1_555 1_555
C8A C3A 1_555 1_555
H9A C8A 1_555 1_555
C9A P1A 1_555 1_555
C10A C9A 1_555 1_555
H10A C10A 1_555 1_555
C11A C10A 1_555 1_555
H11A C11A 1_555 1_555
C12A C11A 1_555 1_555
H12A C12A 1_555 1_555
C13A C12A 1_555 1_555
H13A C13A 1_555 1_555
C14A C9A 1_555 1_555
H14A C14A 1_555 1_555
C15A H15A 1_555 1_555
H16A C15A 1_555 1_555
C16A C16 1_555 1_555
H17A C16A 1_555 1_555
H18A C16A 1_555 1_555
C17A P2A 1_555 1_555
C18A C17A 1_555 1_555
H19A C18A 1_555 1_555
C19A C18A 1_555 1_555
H20A C19A 1_555 1_555
C20A C19A 1_555 1_555
H21A C20A 1_555 1_555
C21A C20A 1_555 1_555
H22A C21A 1_555 1_555
C22A C17A 1_555 1_555
H23A C22A 1_555 1_555
C23A P2A 1_555 1_555
C24A C23A 1_555 1_555
H24A C24A 1_555 1_555
C25A C24A 1_555 1_555
H25A C25A 1_555 1_555
C26A C25A 1_555 1_555
H26A C26A 1_555 1_555
C27A C26A 1_555 1_555
H27A C27A 1_555 1_555
C28A C23A 1_555 1_555
H28A C28A 1_555 1_555
C29A H29A 1_555 1_555
H30A C29A 1_555 1_555
C30A C30 1_555 1_555
H31A C30A 1_555 1_555
H32A C30A 1_555 1_555
C31A P3A 1_555 1_555
C32A C31A 1_555 1_555
H33A C32A 1_555 1_555
C33A C32A 1_555 1_555
H34A C33A 1_555 1_555
C34A C33A 1_555 1_555
H35A C34A 1_555 1_555
C35A C34A 1_555 1_555
H36A C35A 1_555 1_555
C36A C31A 1_555 1_555
H37A C36A 1_555 1_555
C37A P3A 1_555 1_555
C38A C37A 1_555 1_555
H38A C38A 1_555 1_555
C39A C38A 1_555 1_555
H39A C39A 1_555 1_555
C40A C39A 1_555 1_555
H40A C40A 1_555 1_555
C41A C40A 1_555 1_555
H41A C41A 1_555 1_555
C42A C37A 1_555 1_555
H42A C42A 1_555 1_555
C43A H43A 1_555 1_555
C44A C43A 1_555 1_555
H44A C44A 1_555 1_555
C45A C45 1_555 1_555
C46A C45A 1_555 1_555
H45A C46A 1_555 1_555
C47A N1A 1_555 1_555
H46A C47A 1_555 1_555
C7 C8 1_555 1_555
C13 C14 1_555 1_555
C21 C22 1_555 1_555
C27 C28 1_555 1_555
C35 C36 1_555 1_555
C41 C42 1_555 1_555
C46 C47 1_555 1_555
C1A C2A 1_555 1_555
C7A C8A 1_555 1_555
C13A C14A 1_555 1_555
C15A C16A 1_555 1_555
C21A C22A 1_555 1_555
C27A C28A 1_555 1_555
C29A C30A 1_555 1_555
C35A C36A 1_555 1_555
C41A C42A 1_555 1_555
C44A C45A 1_555 1_555
C46A C47A 1_555 1_555

#END
