
#######################################################################
#
#                 Cambridge Crystallographic Data Centre
#                                CCDC 
#
#######################################################################
#
# If this CIF has been generated from an entry in the Cambridge 
# Structural Database, then it will include bibliographic, chemical, 
# crystal, experimental, refinement or atomic coordinate data resulting 
# from the CCDC's data processing and validation procedures.
#
#######################################################################

data_TEJBAN
_symmetry_cell_setting           tetragonal
_symmetry_space_group_name_H-M   'I 41/a'
_symmetry_Int_Tables_number      88
_space_group_name_Hall           '-I 4ad'
loop_
_symmetry_equiv_pos_site_id
_symmetry_equiv_pos_as_xyz
1 x,y,z
2 1/2-x,-y,1/2+z
3 3/4-y,1/4+x,1/4+z
4 3/4+y,3/4-x,3/4+z
5 1/2+x,1/2+y,1/2+z
6 -x,1/2-y,z
7 1/4-y,3/4+x,3/4+z
8 1/4+y,1/4-x,1/4+z
9 -x,-y,-z
10 1/2+x,y,1/2-z
11 1/4+y,3/4-x,3/4-z
12 1/4-y,1/4+x,1/4-z
13 1/2-x,1/2-y,1/2-z
14 x,1/2+y,-z
15 3/4+y,1/4-x,1/4-z
16 3/4-y,3/4+x,3/4-z
_cell_length_a                   24.072(5)
_cell_length_b                   24.072(5)
_cell_length_c                   13.610(6)
_cell_angle_alpha                90
_cell_angle_beta                 90
_cell_angle_gamma                90
_cell_volume                     7886.47
loop_
_atom_site_label
_atom_site_type_symbol
_atom_site_fract_x
_atom_site_fract_y
_atom_site_fract_z
Eu1 Eu 0.0000 0.7500 0.02829(4)
C1 C 0.3333(4) 0.7076(4) 0.6365(7)
C2 C 0.3231(5) 0.6886(4) 0.7306(8)
H1 H 0.3520 0.6872 0.7759
C3 C 0.2716(5) 0.6721(4) 0.7576(8)
H2 H 0.2661 0.6573 0.8199
C4 C 0.2279(4) 0.6767(4) 0.6956(9)
C5 C 0.2373(6) 0.6965(5) 0.6005(9)
H3 H 0.2080 0.6990 0.5560
C6 C 0.2901(5) 0.7123(4) 0.5728(8)
H4 H 0.2962 0.7262 0.5100
C7 C 0.3926(4) 0.7257(4) 0.6074(7)
C8 C 0.0229(4) 0.6748(4) 0.1834(7)
C9 C 0.1700(5) 0.6606(4) 0.7277(9)
H5 H 0.1694 0.6557 0.7984
H6 H 0.1443 0.6902 0.7113
C10 C 0.1090(5) 0.6059(5) 0.6193(8)
H7 H 0.0845 0.6344 0.6035
C11 C -0.0056(4) 0.6344(5) 0.3444(8)
H8 H -0.0385 0.6545 0.3389
C12 C 0.0917(5) 0.5752(5) 0.3585(8)
H9 H 0.1251 0.5558 0.3631
C13 C 0.0342(4) 0.6367(4) 0.2698(7)
C14 C 0.0819(4) 0.6073(5) 0.2788(7)
H10 H 0.1084 0.6093 0.2293
C15 C 0.1492(6) 0.5240(6) 0.6275(12)
H11 H 0.1570 0.4865 0.6182
C16 C 0.1765(6) 0.5599(6) 0.6851(16)
H12 H 0.2077 0.5512 0.7224
C17 C 0.0045(5) 0.6017(5) 0.4278(9)
H13 H -0.0209 0.6005 0.4791
C18 C 0.0636(5) 0.5341(5) 0.5215(9)
H14 H 0.0294 0.5312 0.5589
H15 H 0.0736 0.4971 0.4994
C19 C 0.0535(4) 0.5708(5) 0.4321(8)
O1 O 0.0626(3) 0.6915(3) 0.1317(5)
O2 O -0.0268(3) 0.6887(3) 0.1626(5)
O3 O 0.4249(3) 0.7367(3) 0.6783(5)
O4 O 0.4057(3) 0.7273(3) 0.5186(5)
N1 N 0.1065(4) 0.5548(4) 0.5842(7)
N2 N 0.1524(4) 0.6106(4) 0.6814(8)
Eu1C Eu 0.5000 0.7500 0.77829(4)
Eu1I Eu 0.5000 0.7500 0.47171(4)
Eu1B Eu 0.0000 0.2500 -0.72171(4)
Eu1J Eu 0.0000 0.7500 -0.27829(4)
C1B C 0.0424(4) 0.5833(4) -0.1135(7)
C2B C 0.0614(4) 0.5731(5) -0.0194(8)
H1B H 0.0628 0.6020 0.0259
C3B C 0.0779(4) 0.5216(5) 0.0076(8)
H2B H 0.0927 0.5161 0.0699
C4B C 0.0733(4) 0.4779(4) -0.0544(9)
C5B C 0.0535(5) 0.4873(6) -0.1495(9)
H3B H 0.0510 0.4580 -0.1940
C6B C 0.0377(4) 0.5401(5) -0.1772(8)
H4B H 0.0238 0.5462 -0.2400
C7B C 0.0243(4) 0.6426(4) -0.1426(7)
C8B C 0.0752(4) 0.2729(4) -0.5666(7)
C9B C 0.0894(4) 0.4200(5) -0.0223(9)
H5B H 0.0943 0.4194 0.0484
H6B H 0.0598 0.3943 -0.0387
C10B C 0.1441(5) 0.3590(5) -0.1307(8)
H7B H 0.1156 0.3345 -0.1465
C11B C 0.1156(5) 0.2444(4) -0.4056(8)
H8B H 0.0955 0.2115 -0.4111
C12B C 0.1748(5) 0.3417(5) -0.3915(8)
H9B H 0.1942 0.3751 -0.3869
C13B C 0.1133(4) 0.2842(4) -0.4802(7)
C14B C 0.1427(5) 0.3319(4) -0.4712(7)
H10B H 0.1407 0.3584 -0.5207
C15B C 0.2260(6) 0.3992(6) -0.1225(12)
H11B H 0.2635 0.4070 -0.1318
C16B C 0.1901(6) 0.4265(6) -0.0649(16)
H12B H 0.1988 0.4577 -0.0276
C17B C 0.1483(5) 0.2545(5) -0.3222(9)
H13B H 0.1495 0.2291 -0.2709
C18B C 0.2159(5) 0.3136(5) -0.2285(9)
H14B H 0.2188 0.2794 -0.1911
H15B H 0.2529 0.3236 -0.2506
C19B C 0.1792(5) 0.3035(4) -0.3179(8)
O1B O 0.0585(3) 0.3126(3) -0.6183(5)
O1E O -0.0626(3) 0.8085(3) 0.1317(5)
O2B O 0.0613(3) 0.2232(3) -0.5874(5)
O2E O 0.0268(3) 0.8113(3) 0.1626(5)
O3B O 0.0133(3) 0.6749(3) -0.0717(5)
O3G O -0.0133(3) 0.8251(3) -0.0717(5)
O4B O 0.0227(3) 0.6557(3) -0.2314(5)
O4I O -0.0943(3) 0.7273(3) -0.0186(5)
O4L O 0.0943(3) 0.7727(3) -0.0186(5)
N1B N 0.1952(4) 0.3565(4) -0.1658(7)
N2B N 0.1394(4) 0.4024(4) -0.0686(8)
Cl1 Cl 0.3212(5) 0.3225(6) -0.3993(10)
Cl2 Cl 0.2863(5) 0.4526(6) -0.3491(13)
loop_
_geom_bond_atom_site_label_1
_geom_bond_atom_site_label_2
_geom_bond_site_symmetry_1
_geom_bond_site_symmetry_2
Eu1 O1 1_555 1_555
C1 C2 1_555 1_555
C2 H1 1_555 1_555
C3 C2 1_555 1_555
H2 C3 1_555 1_555
C4 C3 1_555 1_555
C5 C4 1_555 1_555
H3 C5 1_555 1_555
C6 C1 1_555 1_555
H4 C6 1_555 1_555
C7 C1 1_555 1_555
C8 C13 1_555 1_555
C9 C4 1_555 1_555
H5 C9 1_555 1_555
H6 C9 1_555 1_555
C10 H7 1_555 1_555
C11 H8 1_555 1_555
C12 H9 1_555 1_555
C13 C11 1_555 1_555
C14 C12 1_555 1_555
H10 C14 1_555 1_555
C15 H11 1_555 1_555
C16 C15 1_555 1_555
H12 C16 1_555 1_555
C17 C11 1_555 1_555
H13 C17 1_555 1_555
C18 H14 1_555 1_555
H15 C18 1_555 1_555
C19 C12 1_555 1_555
O1 C8 1_555 1_555
O2 Eu1 1_555 1_555
O3 C7 1_555 1_555
O4 C7 1_555 1_555
N1 C10 1_555 1_555
N2 C9 1_555 1_555
Eu1C O3 1_555 1_555
Eu1I O4 1_555 1_555
Eu1B O1B 1_555 1_555
Eu1J O4B 1_555 1_555
C1B C2B 1_555 1_555
C2B H1B 1_555 1_555
C3B C2B 1_555 1_555
H2B C3B 1_555 1_555
C4B C3B 1_555 1_555
C5B C4B 1_555 1_555
H3B C5B 1_555 1_555
C6B C1B 1_555 1_555
H4B C6B 1_555 1_555
C7B C1B 1_555 1_555
C8B C13B 1_555 1_555
C9B C4B 1_555 1_555
H5B C9B 1_555 1_555
H6B C9B 1_555 1_555
C10B H7B 1_555 1_555
C11B H8B 1_555 1_555
C12B H9B 1_555 1_555
C13B C11B 1_555 1_555
C14B C12B 1_555 1_555
H10B C14B 1_555 1_555
C15B H11B 1_555 1_555
C16B C15B 1_555 1_555
H12B C16B 1_555 1_555
C17B C11B 1_555 1_555
H13B C17B 1_555 1_555
C18B H14B 1_555 1_555
H15B C18B 1_555 1_555
C19B C12B 1_555 1_555
O1B C8B 1_555 1_555
O1E Eu1 1_555 1_555
O2B Eu1B 1_555 1_555
O2E Eu1 1_555 1_555
O3B Eu1 1_555 1_555
O3G Eu1 1_555 1_555
O4B C7B 1_555 1_555
O4I Eu1 1_555 1_555
O4L Eu1 1_555 1_555
N1B C10B 1_555 1_555
N2B C9B 1_555 1_555
C5 C6 1_555 1_555
C8 O2 1_555 1_555
C10 N2 1_555 1_555
C13 C14 1_555 1_555
C15 N1 1_555 1_555
C16 N2 1_555 1_555
C17 C19 1_555 1_555
C18 C19 1_555 1_555
C18 N1 1_555 1_555
C5B C6B 1_555 1_555
C7B O3B 1_555 1_555
C8B O2B 1_555 1_555
C10B N2B 1_555 1_555
C13B C14B 1_555 1_555
C15B N1B 1_555 1_555
C16B N2B 1_555 1_555
C17B C19B 1_555 1_555
C18B C19B 1_555 1_555
C18B N1B 1_555 1_555

#END
