
#######################################################################
#
#                 Cambridge Crystallographic Data Centre
#                                CCDC 
#
#######################################################################
#
# If this CIF has been generated from an entry in the Cambridge 
# Structural Database, then it will include bibliographic, chemical, 
# crystal, experimental, refinement or atomic coordinate data resulting 
# from the CCDC's data processing and validation procedures.
#
#######################################################################

data_TEJCOC
_symmetry_cell_setting           monoclinic
_symmetry_space_group_name_H-M   'P 21/c'
_symmetry_Int_Tables_number      14
_space_group_name_Hall           '-P 2ybc'
loop_
_symmetry_equiv_pos_site_id
_symmetry_equiv_pos_as_xyz
1 x,y,z
2 -x,1/2+y,1/2-z
3 -x,-y,-z
4 x,1/2-y,1/2+z
_cell_length_a                   10.4622(7)
_cell_length_b                   9.8208(6)
_cell_length_c                   20.5840(13)
_cell_angle_alpha                90
_cell_angle_beta                 92.942(1)
_cell_angle_gamma                90
_cell_volume                     2112.16
loop_
_atom_site_label
_atom_site_type_symbol
_atom_site_fract_x
_atom_site_fract_y
_atom_site_fract_z
Zn1 Zn 0.481975(18) 0.498021(16) 0.125303(9)
C1 C 0.49006(16) 0.11680(16) -0.03976(8)
C2 C 0.52028(16) 0.12986(16) 0.02728(8)
C3 C 0.46980(19) -0.01298(15) -0.06541(9)
H1 H 0.4489 -0.0219 -0.1097
C4 C 0.48341(17) 0.23532(17) -0.08668(8)
C5 C 0.54444(17) 0.26350(16) 0.06218(8)
C6 C 0.84831(17) 0.5633(2) 0.21754(8)
H2 H 0.9268 0.5897 0.2024
C7 C 0.74685(18) 0.5362(2) 0.17425(9)
H3 H 0.7589 0.5446 0.1300
C8 C 0.61665(19) 0.48316(17) 0.25730(9)
H4 H 0.5376 0.4548 0.2710
C9 C 0.7137(2) 0.50784(18) 0.30356(10)
H5 H 0.6998 0.4959 0.3475
C10 C 0.83331(16) 0.55111(19) 0.28400(8)
C11 C 0.93267(16) 0.5882(2) 0.33346(9)
C12 C 1.06333(17) 0.60696(19) 0.32970(8)
C13 C 1.15493(16) 0.57825(18) 0.27976(8)
C14 C 1.25971(17) 0.66327(18) 0.27290(8)
H6 H 1.2710 0.7398 0.2992
C15 C 1.34650(17) 0.63346(18) 0.22702(8)
H7 H 1.4160 0.6914 0.2231
C16 C 1.23584(17) 0.44115(19) 0.19440(9)
H8 H 1.2276 0.3650 0.1677
C17 C 1.14513(19) 0.4637(2) 0.23941(10)
H9 H 1.0776 0.4030 0.2430
C18 C 1.00245(17) 0.6556(2) 0.42800(9)
C19 C 1.00844(17) 0.6862(3) 0.49781(8)
C20 C 0.8993(2) 0.6728(2) 0.53258(10)
H10 H 0.8217 0.6488 0.5115
C21 C 0.9070(2) 0.6954(3) 0.59893(11)
H11 H 0.8329 0.6856 0.6216
C22 C 1.1179(3) 0.7438(3) 0.59812(12)
H12 H 1.1938 0.7694 0.6203
C23 C 1.1209(2) 0.7224(3) 0.53186(11)
H13 H 1.1967 0.7320 0.5106
N1 N 0.63110(16) 0.49819(12) 0.19318(8)
N2 N 1.33569(15) 0.52486(15) 0.18767(8)
N3 N 0.89648(15) 0.61871(19) 0.39498(7)
N4 N 1.10459(16) 0.65361(18) 0.39010(8)
H14 H 1.179(2) 0.680(2) 0.4008(10)
N5 N 1.0148(2) 0.7305(2) 0.63237(9)
O2 O 0.44930(15) 0.21386(13) -0.14393(6)
O3 O 0.51685(14) 0.35133(12) -0.06373(6)
O4 O 0.44701(12) 0.32906(12) 0.07808(6)
O5 O 0.65657(12) 0.29608(13) 0.07715(7)
Zn1_2 Zn -0.518025(18) 0.498021(16) 0.125303(9)
Zn1_3 Zn 1.481975(18) 0.498021(16) 0.125303(9)
Zn1B Zn 0.518025(18) 0.501979(16) -0.125303(9)
Zn1B_2 Zn 0.518025(18) -0.498021(16) -0.125303(9)
Zn1_4 Zn 0.481975(18) -0.501979(16) 0.125303(9)
C1B C 0.50994(16) -0.11680(16) 0.03976(8)
C2B C 0.47972(16) -0.12986(16) -0.02728(8)
C3B C 0.53020(19) 0.01298(15) 0.06541(9)
H1B H 0.5511 0.0219 0.1097
C4B C 0.51659(17) -0.23532(17) 0.08668(8)
C5B C 0.45556(17) -0.26350(16) -0.06218(8)
C6_2 C -0.15169(17) 0.5633(2) 0.21754(8)
H2_2 H -0.0732 0.5897 0.2024
C7_2 C -0.25315(18) 0.5362(2) 0.17425(9)
H3_2 H -0.2411 0.5446 0.1300
C8_2 C -0.38335(19) 0.48316(17) 0.25730(9)
H4_2 H -0.4624 0.4548 0.2710
C9_2 C -0.2863(2) 0.50784(18) 0.30356(10)
H5_2 H -0.3002 0.4959 0.3475
C10_2 C -0.16669(16) 0.55111(19) 0.28400(8)
C11_2 C -0.06733(16) 0.5882(2) 0.33346(9)
C12_2 C 0.06333(17) 0.60696(19) 0.32970(8)
C13_2 C 0.15493(16) 0.57825(18) 0.27976(8)
C14_2 C 0.25971(17) 0.66327(18) 0.27290(8)
H6_2 H 0.2710 0.7398 0.2992
C15_2 C 0.34650(17) 0.63346(18) 0.22702(8)
H7_2 H 0.4160 0.6914 0.2231
C16_2 C 0.23584(17) 0.44115(19) 0.19440(9)
H8_2 H 0.2276 0.3650 0.1677
C17_2 C 0.14513(19) 0.4637(2) 0.23941(10)
H9_2 H 0.0776 0.4030 0.2430
C18_2 C 0.00245(17) 0.6556(2) 0.42800(9)
C19_2 C 0.00844(17) 0.6862(3) 0.49781(8)
C20_2 C -0.1007(2) 0.6728(2) 0.53258(10)
H10_2 H -0.1783 0.6488 0.5115
C21_2 C -0.0930(2) 0.6954(3) 0.59893(11)
H11_2 H -0.1671 0.6856 0.6216
C22_2 C 0.1179(3) 0.7438(3) 0.59812(12)
H12_2 H 0.1938 0.7694 0.6203
C23_2 C 0.1209(2) 0.7224(3) 0.53186(11)
H13_2 H 0.1967 0.7320 0.5106
N1_2 N -0.36890(16) 0.49819(12) 0.19318(8)
N2_2 N 0.33569(15) 0.52486(15) 0.18767(8)
N2_3 N -0.66431(15) 0.52486(15) 0.18767(8)
N3_2 N -0.10352(15) 0.61871(19) 0.39498(7)
N4_2 N 0.10459(16) 0.65361(18) 0.39010(8)
H14_2 H 0.179(2) 0.680(2) 0.4008(10)
N5_2 N 0.0148(2) 0.7305(2) 0.63237(9)
O2B O 0.55070(15) -0.21386(13) 0.14393(6)
O3B O 0.48315(14) -0.35133(12) 0.06373(6)
O3B_2 O 0.48315(14) 0.64867(12) 0.06373(6)
O3B_3 O -0.51685(14) 0.64867(12) 0.06373(6)
O4B O 0.55299(12) -0.32906(12) -0.07808(6)
O4_2 O -0.55299(12) 0.32906(12) 0.07808(6)
O5B O 0.34343(12) -0.29608(13) -0.07715(7)
O1 O 0.2406(4) 0.4692(4) 0.0034(2)
O6 O 1.0032(9) 0.9668(8) 0.4253(4)
loop_
_geom_bond_atom_site_label_1
_geom_bond_atom_site_label_2
_geom_bond_site_symmetry_1
_geom_bond_site_symmetry_2
Zn1 N1 1_555 1_555
C1 C2 1_555 1_555
C2 C5 1_555 1_555
C3 C1 1_555 1_555
H1 C3 1_555 1_555
C4 C1 1_555 1_555
C5 O4 1_555 1_555
C6 H2 1_555 1_555
C7 C6 1_555 1_555
H3 C7 1_555 1_555
C8 H4 1_555 1_555
C9 C8 1_555 1_555
H5 C9 1_555 1_555
C10 C6 1_555 1_555
C11 C10 1_555 1_555
C12 C11 1_555 1_555
C13 C12 1_555 1_555
C14 C13 1_555 1_555
H6 C14 1_555 1_555
C15 C14 1_555 1_555
H7 C15 1_555 1_555
C16 H8 1_555 1_555
C17 C13 1_555 1_555
H9 C17 1_555 1_555
C18 C19 1_555 1_555
C19 C20 1_555 1_555
C20 H10 1_555 1_555
C21 C20 1_555 1_555
H11 C21 1_555 1_555
C22 H12 1_555 1_555
C23 C19 1_555 1_555
H13 C23 1_555 1_555
N1 C7 1_555 1_555
N2 C15 1_555 1_555
N3 C11 1_555 1_555
N4 C12 1_555 1_555
H14 N4 1_555 1_555
N5 C21 1_555 1_555
O2 C4 1_555 1_555
O3 C4 1_555 1_555
O4 Zn1 1_555 1_555
O5 C5 1_555 1_555
Zn1_2 N1_2 1_555 1_555
Zn1_3 N2 1_555 1_555
Zn1B O3 1_555 1_555
Zn1B_2 O4B 1_555 1_555
Zn1_4 O3B 1_555 1_555
C1B C2B 1_555 1_555
C2B C3 1_555 1_555
C3B C2 1_555 1_555
H1B C3B 1_555 1_555
C4B C1B 1_555 1_555
C5B C2B 1_555 1_555
C6_2 H2_2 1_555 1_555
C7_2 C6_2 1_555 1_555
H3_2 C7_2 1_555 1_555
C8_2 H4_2 1_555 1_555
C9_2 C8_2 1_555 1_555
H5_2 C9_2 1_555 1_555
C10_2 C6_2 1_555 1_555
C11_2 C10_2 1_555 1_555
C12_2 C11_2 1_555 1_555
C13_2 C12_2 1_555 1_555
C14_2 C13_2 1_555 1_555
H6_2 C14_2 1_555 1_555
C15_2 C14_2 1_555 1_555
H7_2 C15_2 1_555 1_555
C16_2 H8_2 1_555 1_555
C17_2 C13_2 1_555 1_555
H9_2 C17_2 1_555 1_555
C18_2 C19_2 1_555 1_555
C19_2 C20_2 1_555 1_555
C20_2 H10_2 1_555 1_555
C21_2 C20_2 1_555 1_555
H11_2 C21_2 1_555 1_555
C22_2 H12_2 1_555 1_555
C23_2 C19_2 1_555 1_555
H13_2 C23_2 1_555 1_555
N1_2 C7_2 1_555 1_555
N2_2 Zn1 1_555 1_555
N2_3 Zn1_2 1_555 1_555
N3_2 C11_2 1_555 1_555
N4_2 C12_2 1_555 1_555
H14_2 N4_2 1_555 1_555
N5_2 C21_2 1_555 1_555
O2B C4B 1_555 1_555
O3B C4B 1_555 1_555
O3B_2 Zn1 1_555 1_555
O3B_3 Zn1_2 1_555 1_555
O4B C5B 1_555 1_555
O4_2 Zn1_2 1_555 1_555
O5B C5B 1_555 1_555
C8 N1 1_555 1_555
C9 C10 1_555 1_555
C16 C17 1_555 1_555
C16 N2 1_555 1_555
C18 N3 1_555 1_555
C18 N4 1_555 1_555
C22 C23 1_555 1_555
C22 N5 1_555 1_555
C1B C3B 1_555 1_555
C8_2 N1_2 1_555 1_555
C9_2 C10_2 1_555 1_555
C15_2 N2_2 1_555 1_555
C16_2 C17_2 1_555 1_555
C16_2 N2_2 1_555 1_555
C18_2 N3_2 1_555 1_555
C18_2 N4_2 1_555 1_555
C22_2 C23_2 1_555 1_555
C22_2 N5_2 1_555 1_555

#END
