
#######################################################################
#
#                 Cambridge Crystallographic Data Centre
#                                CCDC 
#
#######################################################################
#
# If this CIF has been generated from an entry in the Cambridge 
# Structural Database, then it will include bibliographic, chemical, 
# crystal, experimental, refinement or atomic coordinate data resulting 
# from the CCDC's data processing and validation procedures.
#
#######################################################################

data_TEJFEV
_symmetry_cell_setting           monoclinic
_symmetry_space_group_name_H-M   'P 21/n'
_symmetry_Int_Tables_number      14
_space_group_name_Hall           '-P 2yn'
loop_
_symmetry_equiv_pos_site_id
_symmetry_equiv_pos_as_xyz
1 x,y,z
2 1/2-x,1/2+y,1/2-z
3 -x,-y,-z
4 1/2+x,1/2-y,1/2+z
_cell_length_a                   9.7145(6)
_cell_length_b                   20.4203(13)
_cell_length_c                   17.3735(12)
_cell_angle_alpha                90
_cell_angle_beta                 95.666(2)
_cell_angle_gamma                90
_cell_volume                     3429.6
loop_
_atom_site_label
_atom_site_type_symbol
_atom_site_fract_x
_atom_site_fract_y
_atom_site_fract_z
Ag1 Ag 1.00145(5) 0.18077(3) 0.32007(3)
P1 P 1.00837(19) 0.07316(10) 0.25526(11)
Au1 Au 0.88527(3) 0.265623(17) 0.055343(17)
C1 C 1.0012(9) 0.2551(4) 0.1551(6)
N1 N 1.0583(8) 0.2494(4) 0.2155(4)
N2 N 1.1823(7) 0.2075(5) 0.4082(4)
P2 P 0.7974(2) 0.22265(10) 0.37921(11)
C2 C 1.2579(9) 0.2191(5) 0.4604(5)
C3 C 0.9163(7) 0.0083(4) 0.3010(4)
C4 C 0.9043(9) 0.0150(5) 0.3793(5)
H1 H 0.9395 0.0521 0.4054
C5 C 0.8398(12) -0.0335(6) 0.4195(6)
H2 H 0.8338 -0.0295 0.4724
C6 C 0.7859(12) -0.0869(6) 0.3803(7)
H3 H 0.7416 -0.1191 0.4065
C7 C 0.7959(10) -0.0935(5) 0.3031(7)
H4 H 0.7589 -0.1303 0.2771
C8 C 0.8608(8) -0.0461(4) 0.2632(5)
H5 H 0.8669 -0.0510 0.2104
C9 C 0.9243(7) 0.0750(4) 0.1568(4)
C10 C 0.7846(9) 0.0906(4) 0.1465(5)
H6 H 0.7348 0.0944 0.1893
C11 C 0.7193(11) 0.1004(5) 0.0741(7)
H7 H 0.6254 0.1104 0.0683
C12 C 0.7896(13) 0.0959(5) 0.0101(6)
H8 H 0.7450 0.1044 -0.0388
C13 C 0.9270(12) 0.0786(5) 0.0186(5)
H9 H 0.9752 0.0734 -0.0247
C14 C 0.9930(9) 0.0689(5) 0.0914(5)
H10 H 1.0864 0.0580 0.0967
C15 C 1.1813(7) 0.0402(4) 0.2469(4)
C16 C 1.2921(8) 0.0833(5) 0.2591(5)
H11 H 1.2772 0.1271 0.2701
C17 C 1.4252(9) 0.0599(6) 0.2545(6)
H12 H 1.4997 0.0887 0.2617
C18 C 1.4483(10) -0.0039(7) 0.2395(5)
H13 H 1.5383 -0.0188 0.2374
C19 C 1.3392(11) -0.0471(6) 0.2275(6)
H14 H 1.3552 -0.0909 0.2168
C20 C 1.2071(9) -0.0249(5) 0.2314(5)
H15 H 1.1335 -0.0540 0.2235
C21 C 0.6454(7) 0.2428(3) 0.3137(4)
C22 C 0.5262(9) 0.2691(4) 0.3383(5)
H16 H 0.5226 0.2789 0.3904
C23 C 0.4111(8) 0.2810(5) 0.2854(6)
H17 H 0.3297 0.2967 0.3027
C24 C 0.4176(10) 0.2695(5) 0.2084(6)
H18 H 0.3416 0.2787 0.1732
C25 C 0.5380(10) 0.2441(5) 0.1824(6)
H19 H 0.5425 0.2360 0.1300
C26 C 0.6496(8) 0.2310(4) 0.2348(4)
H20 H 0.7298 0.2139 0.2175
C27 C 0.8228(7) 0.2987(4) 0.4342(4)
C28 C 0.8810(9) 0.3508(5) 0.4006(5)
H21 H 0.9131 0.3455 0.3523
C29 C 0.8938(11) 0.4117(5) 0.4366(7)
H22 H 0.9284 0.4475 0.4116
C30 C 0.8538(11) 0.4176(6) 0.5104(7)
H23 H 0.8621 0.4578 0.5358
C31 C 0.8033(10) 0.3660(5) 0.5456(6)
H24 H 0.7809 0.3700 0.5962
C32 C 0.7840(9) 0.3069(5) 0.5081(5)
H25 H 0.7446 0.2721 0.5326
C33 C 0.7381(7) 0.1644(4) 0.4490(4)
C34 C 0.6077(8) 0.1360(4) 0.4422(4)
H26 H 0.5440 0.1475 0.4009
C35 C 0.5710(11) 0.0907(5) 0.4962(6)
H27 H 0.4836 0.0717 0.4912
C36 C 0.6659(14) 0.0744(5) 0.5569(5)
H28 H 0.6416 0.0442 0.5933
C37 C 0.7977(12) 0.1020(5) 0.5656(5)
H29 H 0.8601 0.0912 0.6078
C38 C 0.8337(9) 0.1454(4) 0.5103(5)
H30 H 0.9229 0.1624 0.5138
Au1C Au 1.38527(3) 0.234377(17) 0.555343(17)
C2C C 0.7579(9) 0.2809(5) -0.0396(5)
loop_
_geom_bond_atom_site_label_1
_geom_bond_atom_site_label_2
_geom_bond_site_symmetry_1
_geom_bond_site_symmetry_2
Ag1 P1 1_555 1_555
P1 C3 1_555 1_555
Au1 C1 1_555 1_555
C1 N1 1_555 1_555
N1 Ag1 1_555 1_555
N2 Ag1 1_555 1_555
P2 Ag1 1_555 1_555
C2 N2 1_555 1_555
C3 C4 1_555 1_555
C4 H1 1_555 1_555
C5 C4 1_555 1_555
H2 C5 1_555 1_555
C6 C5 1_555 1_555
H3 C6 1_555 1_555
C7 C6 1_555 1_555
H4 C7 1_555 1_555
C8 C3 1_555 1_555
H5 C8 1_555 1_555
C9 P1 1_555 1_555
C10 C9 1_555 1_555
H6 C10 1_555 1_555
C11 C10 1_555 1_555
H7 C11 1_555 1_555
C12 C11 1_555 1_555
H8 C12 1_555 1_555
C13 C12 1_555 1_555
H9 C13 1_555 1_555
C14 C9 1_555 1_555
H10 C14 1_555 1_555
C15 P1 1_555 1_555
C16 C15 1_555 1_555
H11 C16 1_555 1_555
C17 C16 1_555 1_555
H12 C17 1_555 1_555
C18 C17 1_555 1_555
H13 C18 1_555 1_555
C19 C18 1_555 1_555
H14 C19 1_555 1_555
C20 C15 1_555 1_555
H15 C20 1_555 1_555
C21 P2 1_555 1_555
C22 C21 1_555 1_555
H16 C22 1_555 1_555
C23 C22 1_555 1_555
H17 C23 1_555 1_555
C24 C23 1_555 1_555
H18 C24 1_555 1_555
C25 C24 1_555 1_555
H19 C25 1_555 1_555
C26 C21 1_555 1_555
H20 C26 1_555 1_555
C27 P2 1_555 1_555
C28 C27 1_555 1_555
H21 C28 1_555 1_555
C29 C28 1_555 1_555
H22 C29 1_555 1_555
C30 C29 1_555 1_555
H23 C30 1_555 1_555
C31 C30 1_555 1_555
H24 C31 1_555 1_555
C32 C27 1_555 1_555
H25 C32 1_555 1_555
C33 P2 1_555 1_555
C34 C33 1_555 1_555
H26 C34 1_555 1_555
C35 C34 1_555 1_555
H27 C35 1_555 1_555
C36 C35 1_555 1_555
H28 C36 1_555 1_555
C37 C36 1_555 1_555
H29 C37 1_555 1_555
C38 C33 1_555 1_555
H30 C38 1_555 1_555
Au1C C2 1_555 1_555
C2C Au1 1_555 1_555
C7 C8 1_555 1_555
C13 C14 1_555 1_555
C19 C20 1_555 1_555
C25 C26 1_555 1_555
C31 C32 1_555 1_555
C37 C38 1_555 1_555

#END
