
#######################################################################
#
#                 Cambridge Crystallographic Data Centre
#                                CCDC 
#
#######################################################################
#
# If this CIF has been generated from an entry in the Cambridge 
# Structural Database, then it will include bibliographic, chemical, 
# crystal, experimental, refinement or atomic coordinate data resulting 
# from the CCDC's data processing and validation procedures.
#
#######################################################################

data_TEJGOG
_symmetry_cell_setting           orthorhombic
_symmetry_space_group_name_H-M   'C m c a'
_symmetry_Int_Tables_number      64
_space_group_name_Hall           '-C 2ac 2'
loop_
_symmetry_equiv_pos_site_id
_symmetry_equiv_pos_as_xyz
1 x,y,z
2 -x,1/2-y,1/2+z
3 -x,1/2+y,1/2-z
4 x,-y,-z
5 1/2+x,1/2+y,z
6 1/2-x,-y,1/2+z
7 1/2-x,y,1/2-z
8 1/2+x,1/2-y,-z
9 -x,-y,-z
10 x,1/2+y,1/2-z
11 x,1/2-y,1/2+z
12 -x,y,z
13 1/2-x,1/2-y,-z
14 1/2+x,y,1/2-z
15 1/2+x,-y,1/2+z
16 1/2-x,1/2+y,z
_cell_length_a                   23.684(5)
_cell_length_b                   11.956(2)
_cell_length_c                   13.973(3)
_cell_angle_alpha                90
_cell_angle_beta                 90
_cell_angle_gamma                90
_cell_volume                     3956.68
loop_
_atom_site_label
_atom_site_type_symbol
_atom_site_fract_x
_atom_site_fract_y
_atom_site_fract_z
Pb1 Pb 1.0000 0.12776(4) 0.43055(4)
Pb2 Pb 1.0000 0.49692(4) 0.66427(4)
Cl1 Cl 1.0000 0.3584(3) 0.5034(2)
Cl2 Cl 1.0000 0.2184(3) 0.2528(2)
S1 S 0.93008(9) -0.0531(2) 0.36725(17)
N1 N 0.8141(3) 0.1709(7) 0.3996(6)
N2 N 0.8189(2) -0.0136(5) 0.3742(5)
N3 N 0.8709(3) 0.1416(7) 0.3963(6)
N4 N 0.6078(3) 0.0382(7) 0.3667(6)
C1 C 0.8730(4) 0.0329(8) 0.3812(6)
C2 C 0.7857(4) 0.0797(8) 0.3850(6)
C3 C 0.7244(4) 0.0643(8) 0.3785(6)
C4 C 0.6999(4) -0.0398(8) 0.3740(7)
H1 H 0.7225 -0.1034 0.3753
C5 C 0.6888(4) 0.1576(9) 0.3768(7)
H2 H 0.7036 0.2295 0.3794
C6 C 0.6315(4) 0.1412(9) 0.3712(8)
H3 H 0.6080 0.2035 0.3705
C7 C 0.6426(4) -0.0505(9) 0.3677(7)
H4 H 0.6271 -0.1218 0.3639
Pb2C Pb 1.0000 0.50308(4) 0.33573(4)
Pb2A Pb 1.0000 0.00308(4) 0.16427(4)
Pb2G Pb 0.5000 0.00308(4) 0.33573(4)
Pb2G_2 Pb 1.5000 0.00308(4) 0.33573(4)
Cl1C Cl 1.0000 0.6416(3) 0.4966(2)
Cl2A Cl 1.0000 0.2816(3) 0.7528(2)
S1K S 1.06992(9) -0.0531(2) 0.36725(17)
N1K N 1.1859(3) 0.1709(7) 0.3996(6)
N2K N 1.1811(2) -0.0136(5) 0.3742(5)
N3K N 1.1291(3) 0.1416(7) 0.3963(6)
N4K N 1.3922(3) 0.0382(7) 0.3667(6)
N4G N 1.1078(3) 0.4618(7) 0.6333(6)
N4L N 0.8922(3) 0.4618(7) 0.6333(6)
C1K C 1.1270(4) 0.0329(8) 0.3812(6)
C2K C 1.2143(4) 0.0797(8) 0.3850(6)
C3K C 1.2756(4) 0.0643(8) 0.3785(6)
C4K C 1.3001(4) -0.0398(8) 0.3740(7)
H1K H 1.2775 -0.1034 0.3753
C5K C 1.3112(4) 0.1576(9) 0.3768(7)
H2K H 1.2964 0.2295 0.3794
C6K C 1.3685(4) 0.1412(9) 0.3712(8)
H3K H 1.3920 0.2035 0.3705
C7K C 1.3574(4) -0.0505(9) 0.3677(7)
H4K H 1.3729 -0.1218 0.3639
loop_
_geom_bond_atom_site_label_1
_geom_bond_atom_site_label_2
_geom_bond_site_symmetry_1
_geom_bond_site_symmetry_2
Pb1 Cl1 1_555 1_555
Pb2 Cl1 1_555 1_555
Cl1 Pb2C 1_555 1_555
Cl2 Pb1 1_555 1_555
S1 Pb1 1_555 1_555
N1 N3 1_555 1_555
N2 C1 1_555 1_555
N3 C1 1_555 1_555
N4 C6 1_555 1_555
C1 S1 1_555 1_555
C2 N1 1_555 1_555
C3 C2 1_555 1_555
C4 C3 1_555 1_555
H1 C4 1_555 1_555
C5 C3 1_555 1_555
H2 C5 1_555 1_555
C6 C5 1_555 1_555
H3 C6 1_555 1_555
C7 N4 1_555 1_555
H4 C7 1_555 1_555
Pb2C Cl1C 1_555 1_555
Pb2A Cl2 1_555 1_555
Pb2G N4 1_555 1_555
Pb2G_2 N4K 1_555 1_555
Cl1C Pb2 1_555 1_555
Cl2A Pb2 1_555 1_555
S1K Pb1 1_555 1_555
N1K N3K 1_555 1_555
N2K C1K 1_555 1_555
N3K C1K 1_555 1_555
N4K C6K 1_555 1_555
N4G Pb2 1_555 1_555
N4L Pb2 1_555 1_555
C1K S1K 1_555 1_555
C2K N1K 1_555 1_555
C3K C2K 1_555 1_555
C4K C3K 1_555 1_555
H1K C4K 1_555 1_555
C5K C3K 1_555 1_555
H2K C5K 1_555 1_555
C6K C5K 1_555 1_555
H3K C6K 1_555 1_555
C7K N4K 1_555 1_555
H4K C7K 1_555 1_555
N2 C2 1_555 1_555
C4 C7 1_555 1_555
N2K C2K 1_555 1_555
C4K C7K 1_555 1_555

#END
