
#######################################################################
#
#                 Cambridge Crystallographic Data Centre
#                                CCDC 
#
#######################################################################
#
# If this CIF has been generated from an entry in the Cambridge 
# Structural Database, then it will include bibliographic, chemical, 
# crystal, experimental, refinement or atomic coordinate data resulting 
# from the CCDC's data processing and validation procedures.
#
#######################################################################

data_TEJHEX
_symmetry_cell_setting           monoclinic
_symmetry_space_group_name_H-M   'C 2/c'
_symmetry_Int_Tables_number      15
_space_group_name_Hall           '-C 2yn'
loop_
_symmetry_equiv_pos_site_id
_symmetry_equiv_pos_as_xyz
1 x,y,z
2 -x,y,1/2-z
3 1/2+x,1/2+y,z
4 1/2-x,1/2+y,1/2-z
5 -x,-y,-z
6 x,-y,1/2+z
7 1/2-x,1/2-y,-z
8 1/2+x,1/2-y,1/2+z
_cell_length_a                   36.912(7)
_cell_length_b                   8.9186(18)
_cell_length_c                   7.9128(16)
_cell_angle_alpha                90
_cell_angle_beta                 97.81(3)
_cell_angle_gamma                90
_cell_volume                     2580.76
loop_
_atom_site_label
_atom_site_type_symbol
_atom_site_fract_x
_atom_site_fract_y
_atom_site_fract_z
Pb1 Pb 0.0000 0.93492(7) 0.2500
Pb2 Pb -0.121743(13) 0.85694(5) 0.08222(6)
Cl1 Cl -0.16801(10) 0.9631(4) -0.1923(5)
O1 O -0.0420(2) 0.7232(9) 0.1488(9)
O2 O -0.0011(2) 0.7690(10) -0.0207(11)
N1 N -0.0801(3) 0.5257(10) -0.0742(12)
C1 C -0.0294(3) 0.7072(12) 0.0130(14)
N2 N -0.1107(3) 0.5939(11) -0.0400(13)
N3 N -0.1754(3) 0.6601(10) 0.0825(14)
C2 C -0.0501(3) 0.6106(13) -0.1284(15)
H1 H -0.0597 0.6751 -0.2227
H2 H -0.0331 0.5413 -0.1699
C3 C -0.0817(4) 0.3765(13) -0.0556(18)
H3 H -0.0637 0.3081 -0.0744
C4 C -0.1316(3) 0.4829(12) 0.0070(15)
C5 C -0.1680(3) 0.5164(12) 0.0561(16)
C6 C -0.1150(4) 0.3425(12) -0.0035(16)
H4 H -0.1242 0.2487 0.0192
C7 C -0.2073(4) 0.6929(15) 0.1259(19)
H5 H -0.2123 0.7934 0.1445
C8 C -0.2347(4) 0.5886(15) 0.147(2)
H6 H -0.2574 0.6177 0.1745
C9 C -0.1927(4) 0.4040(14) 0.0748(16)
H7 H -0.1868 0.3048 0.0548
C10 C -0.2260(4) 0.4385(15) 0.123(2)
H8 H -0.2426 0.3630 0.1396
Cl2 Cl 0.07087(9) 1.0013(4) 0.1115(5)
Pb2A Pb 0.121743(13) 0.85694(5) 0.41778(6)
Pb2E Pb -0.121743(13) 1.14306(5) -0.41778(6)
Pb2D Pb 0.121743(13) 1.14306(5) -0.08222(6)
Pb2E_2 Pb -0.121743(13) 1.14306(5) 0.58222(6)
Cl1E Cl -0.16801(10) 1.0369(4) 0.3077(5)
Cl1A Cl 0.16801(10) 0.9631(4) 0.6923(5)
Cl1D Cl 0.16801(10) 1.0369(4) 0.1923(5)
O1A O 0.0420(2) 0.7232(9) 0.3512(9)
O2A O 0.0011(2) 0.7690(10) 0.5207(11)
N1A N 0.0801(3) 0.5257(10) 0.5742(12)
C1A C 0.0294(3) 0.7072(12) 0.4870(14)
N2A N 0.1107(3) 0.5939(11) 0.5400(13)
N3A N 0.1754(3) 0.6601(10) 0.4175(14)
C2A C 0.0501(3) 0.6106(13) 0.6284(15)
H1A H 0.0597 0.6751 0.7227
H2A H 0.0331 0.5413 0.6699
C3A C 0.0817(4) 0.3765(13) 0.5556(18)
H3A H 0.0637 0.3081 0.5744
C4A C 0.1316(3) 0.4829(12) 0.4930(15)
C5A C 0.1680(3) 0.5164(12) 0.4439(16)
C6A C 0.1150(4) 0.3425(12) 0.5035(16)
H4A H 0.1242 0.2487 0.4808
C7A C 0.2073(4) 0.6929(15) 0.3741(19)
H5A H 0.2123 0.7934 0.3555
C8A C 0.2347(4) 0.5886(15) 0.353(2)
H6A H 0.2574 0.6177 0.3255
C9A C 0.1927(4) 0.4040(14) 0.4252(16)
H7A H 0.1868 0.3048 0.4452
C10A C 0.2260(4) 0.4385(15) 0.377(2)
H8A H 0.2426 0.3630 0.3604
Cl2A Cl -0.07087(9) 1.0013(4) 0.3885(5)
Cl2D Cl -0.07087(9) 0.9987(4) -0.1115(5)
Cl2E Cl 0.07087(9) 0.9987(4) 0.6115(5)
loop_
_geom_bond_atom_site_label_1
_geom_bond_atom_site_label_2
_geom_bond_site_symmetry_1
_geom_bond_site_symmetry_2
Pb1 O1 1_555 1_555
Pb2 Cl1 1_555 1_555
Cl1 Pb2E 1_555 1_555
O1 C1 1_555 1_555
O2 Pb1 1_555 1_555
N1 N2 1_555 1_555
C1 O2 1_555 1_555
N2 Pb2 1_555 1_555
N3 Pb2 1_555 1_555
C2 N1 1_555 1_555
H1 C2 1_555 1_555
H2 C2 1_555 1_555
C3 N1 1_555 1_555
H3 C3 1_555 1_555
C4 N2 1_555 1_555
C5 N3 1_555 1_555
C6 C3 1_555 1_555
H4 C6 1_555 1_555
C7 N3 1_555 1_555
H5 C7 1_555 1_555
C8 C7 1_555 1_555
H6 C8 1_555 1_555
C9 C5 1_555 1_555
H7 C9 1_555 1_555
C10 C8 1_555 1_555
H8 C10 1_555 1_555
Cl2 Pb1 1_555 1_555
Pb2A Cl1A 1_555 1_555
Pb2D Cl2 1_555 1_555
Pb2E_2 Cl1E 1_555 1_555
Cl1E Pb2 1_555 1_555
Cl1D Pb2A 1_555 1_555
O1A Pb1 1_555 1_555
O2A Pb1 1_555 1_555
N1A N2A 1_555 1_555
C1A O1A 1_555 1_555
N2A Pb2A 1_555 1_555
N3A Pb2A 1_555 1_555
C2A N1A 1_555 1_555
H1A C2A 1_555 1_555
H2A C2A 1_555 1_555
C3A N1A 1_555 1_555
H3A C3A 1_555 1_555
C4A N2A 1_555 1_555
C5A N3A 1_555 1_555
C6A C3A 1_555 1_555
H4A C6A 1_555 1_555
C7A N3A 1_555 1_555
H5A C7A 1_555 1_555
C8A C7A 1_555 1_555
H6A C8A 1_555 1_555
C9A C5A 1_555 1_555
H7A C9A 1_555 1_555
C10A C8A 1_555 1_555
H8A C10A 1_555 1_555
Cl2A Pb1 1_555 1_555
Cl2D Pb2 1_555 1_555
Cl2E Pb2A 1_555 1_555
C1 C2 1_555 1_555
C4 C5 1_555 1_555
C4 C6 1_555 1_555
C9 C10 1_555 1_555
Pb2D Cl1D 1_555 1_555
Pb2E_2 Cl2A 1_555 1_555
O2A C1A 1_555 1_555
C1A C2A 1_555 1_555
C4A C5A 1_555 1_555
C4A C6A 1_555 1_555
C9A C10A 1_555 1_555

#END
