
#######################################################################
#
#                 Cambridge Crystallographic Data Centre
#                                CCDC 
#
#######################################################################
#
# If this CIF has been generated from an entry in the Cambridge 
# Structural Database, then it will include bibliographic, chemical, 
# crystal, experimental, refinement or atomic coordinate data resulting 
# from the CCDC's data processing and validation procedures.
#
#######################################################################

data_TEJKEA
_symmetry_cell_setting           triclinic
_symmetry_space_group_name_H-M   'P -1'
_symmetry_Int_Tables_number      2
_space_group_name_Hall           '-P 1'
loop_
_symmetry_equiv_pos_site_id
_symmetry_equiv_pos_as_xyz
1 x,y,z
2 -x,-y,-z
_cell_length_a                   10.2472(19)
_cell_length_b                   10.521(2)
_cell_length_c                   16.243(4)
_cell_angle_alpha                95.956(3)
_cell_angle_beta                 94.182(4)
_cell_angle_gamma                114.036(2)
_cell_volume                     1577.85
loop_
_atom_site_label
_atom_site_type_symbol
_atom_site_fract_x
_atom_site_fract_y
_atom_site_fract_z
Eu1 Eu 0.37472(5) 0.55403(5) -0.58240(3)
C1 C -0.3825(19) 0.1290(17) -0.0458(10)
H1 H -0.4675 0.1372 -0.0299
H2 H -0.4092 0.0525 -0.0905
H3 H -0.3331 0.1114 0.0012
C2 C -0.2840(17) 0.2648(17) -0.0742(8)
C3 C -0.1584(16) 0.2697(14) -0.0991(9)
H4 H -0.1341 0.1938 -0.0976
C4 C -0.0662(13) 0.3940(14) -0.1271(8)
H5 H 0.0227 0.4027 -0.1419
C5 C -0.1065(10) 0.5005(11) -0.1326(6)
C6 C -0.2301(13) 0.4984(15) -0.1083(7)
H6 H -0.2534 0.5747 -0.1102
C7 C -0.3247(13) 0.3712(15) -0.0792(8)
H7 H -0.4133 0.3627 -0.0640
C8 C -0.0057(12) 0.6313(14) -0.1611(7)
C9 C 0.1024(10) 0.6242(10) -0.2199(6)
C10 C 0.0634(9) 0.5696(10) -0.3046(6)
C11 C 0.1647(9) 0.5545(9) -0.3511(6)
H8 H 0.1392 0.5207 -0.4078
C12 C 0.3031(9) 0.5886(10) -0.3151(6)
C13 C 0.3429(9) 0.6469(10) -0.2317(6)
C14 C 0.2398(10) 0.6570(11) -0.1849(6)
H9 H 0.2644 0.6870 -0.1277
C15 C 0.5022(10) 0.7127(11) -0.1903(7)
C16 C 0.6028(10) 0.8259(11) -0.2294(7)
C17 C 0.7507(11) 0.8655(13) -0.2113(7)
H10 H 0.7858 0.8181 -0.1769
C18 C 0.5558(10) 0.8953(11) -0.2838(7)
H11 H 0.4575 0.8677 -0.2977
C19 C 0.6558(12) 1.0088(13) -0.3190(9)
H12 H 0.6231 1.0554 -0.3553
C20 C 0.7958(12) 1.0473(12) -0.2995(8)
C21 C 0.8437(11) 0.9780(13) -0.2465(8)
H13 H 0.9425 1.0073 -0.2334
C22 C 0.8996(14) 1.1719(14) -0.3318(9)
H14 H 0.9962 1.1865 -0.3128
H15 H 0.8846 1.1561 -0.3917
H16 H 0.8849 1.2536 -0.3119
C23 C -0.0929(9) 0.5242(9) -0.3457(6)
C24 C 0.4076(9) 0.5565(9) -0.3628(6)
C25 C 0.2749(9) 0.2432(9) -0.5042(6)
C26 C 0.1319(9) 0.1143(9) -0.5016(6)
C27 C 0.0126(9) 0.0956(9) -0.5543(6)
H17 H 0.0199 0.1592 -0.5914
C28 C 0.1226(9) 0.0201(9) -0.4469(5)
C29 C 0.2404(9) 0.0228(9) -0.3852(6)
C30 C 0.2517(9) 0.0854(10) -0.2986(6)
C31 C 0.2554(12) 0.0125(13) -0.2328(7)
H18 H 0.2588 -0.0747 -0.2428
C32 C 0.2540(14) 0.0689(17) -0.1531(8)
H19 H 0.2529 0.0171 -0.1099
C33 C 0.2541(15) 0.198(2) -0.1353(8)
C34 C 0.2533(12) 0.2735(12) -0.1979(9)
H20 H 0.2551 0.3625 -0.1852
C35 C 0.2496(10) 0.2206(11) -0.2810(7)
H21 H 0.2460 0.2719 -0.3238
C36 C 0.2516(19) 0.257(2) -0.0446(9)
H22 H 0.2532 0.1916 -0.0081
H23 H 0.3345 0.3450 -0.0281
H24 H 0.1656 0.2722 -0.0413
O1 O 0.5011(7) 0.5312(7) -0.3226(4)
O2 O 0.3968(7) 0.5512(7) -0.4404(4)
O3 O 0.3777(6) 0.2591(6) -0.4526(4)
O4 O 0.2721(6) 0.3165(7) -0.5601(4)
O5 O -0.1278(6) 0.4691(7) -0.4202(4)
O6 O -0.1745(6) 0.5558(7) -0.3027(4)
O7 O 0.0023(8) 0.7479(9) -0.1357(6)
O8 O 0.5316(9) 0.6742(11) -0.1274(5)
O9 O 0.3114(7) -0.0436(8) -0.4040(5)
O10 O 0.4048(7) 0.6928(7) -0.6992(4)
H25 H 0.3502 0.6671 -0.7454
H26 H 0.4880 0.7489 -0.7083
O11 O 0.3839(8) 0.7862(8) -0.5235(5)
H27 H 0.4621 0.8450 -0.4950
H28 H 0.3153 0.7983 -0.5028
Eu1A Eu 0.62528(5) 0.44597(5) -0.41760(3)
Eu1_2 Eu -0.62528(5) -0.44597(5) -0.58240(3)
Eu1A_2 Eu -0.37472(5) -0.55403(5) -0.41760(3)
Eu1A_3 Eu -0.37472(5) 0.44597(5) -0.41760(3)
Eu1_3 Eu -0.62528(5) 0.55403(5) -0.58240(3)
C1A C 0.3825(19) 0.8710(17) -0.9542(10)
H1A H 0.4675 0.8628 -0.9701
H2A H 0.4092 0.9475 -0.9095
H3A H 0.3331 0.8886 -1.0012
C2A C 0.2840(17) 0.7352(17) -0.9258(8)
C3A C 0.1584(16) 0.7303(14) -0.9009(9)
H4A H 0.1341 0.8062 -0.9024
C4A C 0.0662(13) 0.6060(14) -0.8729(8)
H5A H -0.0227 0.5973 -0.8581
C5A C 0.1065(10) 0.4995(11) -0.8674(6)
C6A C 0.2301(13) 0.5016(15) -0.8917(7)
H6A H 0.2534 0.4253 -0.8898
C7A C 0.3247(13) 0.6288(15) -0.9208(8)
H7A H 0.4133 0.6373 -0.9360
C8A C 0.0057(12) 0.3687(14) -0.8389(7)
C9A C -0.1024(10) 0.3758(10) -0.7801(6)
C10A C -0.0634(9) 0.4304(10) -0.6954(6)
C11A C -0.1647(9) 0.4455(9) -0.6489(6)
H8A H -0.1392 0.4793 -0.5922
C12A C -0.3031(9) 0.4114(10) -0.6849(6)
C13A C -0.3429(9) 0.3531(10) -0.7683(6)
C14A C -0.2398(10) 0.3430(11) -0.8151(6)
H9A H -0.2644 0.3130 -0.8723
C15A C -0.5022(10) 0.2873(11) -0.8097(7)
C16A C -0.6028(10) 0.1741(11) -0.7706(7)
C17A C -0.7507(11) 0.1345(13) -0.7887(7)
H10A H -0.7858 0.1819 -0.8231
C18A C -0.5558(10) 0.1047(11) -0.7162(7)
H11A H -0.4575 0.1323 -0.7023
C19A C -0.6558(12) -0.0088(13) -0.6810(9)
H12A H -0.6231 -0.0554 -0.6447
C20A C -0.7958(12) -0.0473(12) -0.7005(8)
C21A C -0.8437(11) 0.0220(13) -0.7535(8)
H13A H -0.9425 -0.0073 -0.7666
C22A C -0.8996(14) -0.1719(14) -0.6682(9)
H14A H -0.9962 -0.1865 -0.6872
H15A H -0.8846 -0.1561 -0.6083
H16A H -0.8849 -0.2536 -0.6881
C23A C 0.0929(9) 0.4758(9) -0.6543(6)
C24A C -0.4076(9) 0.4435(9) -0.6372(6)
C25A C -0.2749(9) -0.2432(9) -0.4958(6)
C26A C -0.1319(9) -0.1143(9) -0.4984(6)
C27A C -0.0126(9) -0.0956(9) -0.4457(6)
H17A H -0.0199 -0.1592 -0.4086
C28A C -0.1226(9) -0.0201(9) -0.5531(5)
C29A C -0.2404(9) -0.0228(9) -0.6148(6)
C30A C -0.2517(9) -0.0854(10) -0.7014(6)
C31A C -0.2554(12) -0.0125(13) -0.7672(7)
H18A H -0.2588 0.0747 -0.7572
C32A C -0.2540(14) -0.0689(17) -0.8469(8)
H19A H -0.2529 -0.0171 -0.8901
C33A C -0.2541(15) -0.198(2) -0.8647(8)
C34A C -0.2533(12) -0.2735(12) -0.8021(9)
H20A H -0.2551 -0.3625 -0.8148
C35A C -0.2496(10) -0.2206(11) -0.7190(7)
H21A H -0.2460 -0.2719 -0.6762
C36A C -0.2516(19) -0.257(2) -0.9554(9)
H22A H -0.2532 -0.1916 -0.9919
H23A H -0.3345 -0.3450 -0.9719
H24A H -0.1656 -0.2722 -0.9587
O1A O 0.4989(7) 0.4688(7) -0.6774(4)
O1_2 O -0.4989(7) 0.5312(7) -0.3226(4)
O1A_2 O -0.5011(7) 0.4688(7) -0.6774(4)
O2A O -0.3968(7) 0.4488(7) -0.5596(4)
O3A O -0.3777(6) -0.2591(6) -0.5474(4)
O3A_2 O 0.6223(6) 0.7409(6) -0.5474(4)
O3_2 O -0.6223(6) 0.2591(6) -0.4526(4)
O4A O -0.2721(6) -0.3165(7) -0.4399(4)
O4A_2 O -0.2721(6) 0.6835(7) -0.4399(4)
O5A O 0.1278(6) 0.5309(7) -0.5798(4)
O6A O 0.1745(6) 0.4442(7) -0.6973(4)
O7A O -0.0023(8) 0.2521(9) -0.8643(6)
O8A O -0.5316(9) 0.3258(11) -0.8726(5)
O9A O -0.3114(7) 0.0436(8) -0.5960(5)
O10A O -0.4048(7) 0.3072(7) -0.3008(4)
H25A H -0.3502 0.3329 -0.2546
H26A H -0.4880 0.2511 -0.2917
O11A O -0.3839(8) 0.2138(8) -0.4765(5)
H27A H -0.4621 0.1550 -0.5050
H28A H -0.3153 0.2017 -0.4972
loop_
_geom_bond_atom_site_label_1
_geom_bond_atom_site_label_2
_geom_bond_site_symmetry_1
_geom_bond_site_symmetry_2
Eu1 O2 1_555 1_555
C1 H1 1_555 1_555
H2 C1 1_555 1_555
H3 C1 1_555 1_555
C2 C1 1_555 1_555
C3 C2 1_555 1_555
H4 C3 1_555 1_555
C4 C3 1_555 1_555
H5 C4 1_555 1_555
C5 C4 1_555 1_555
C6 C5 1_555 1_555
H6 C6 1_555 1_555
C7 C2 1_555 1_555
H7 C7 1_555 1_555
C8 C5 1_555 1_555
C9 C8 1_555 1_555
C10 C9 1_555 1_555
C11 C10 1_555 1_555
H8 C11 1_555 1_555
C12 C11 1_555 1_555
C13 C12 1_555 1_555
C14 C9 1_555 1_555
H9 C14 1_555 1_555
C15 C13 1_555 1_555
C16 C15 1_555 1_555
C17 C16 1_555 1_555
H10 C17 1_555 1_555
C18 C16 1_555 1_555
H11 C18 1_555 1_555
C19 C18 1_555 1_555
H12 C19 1_555 1_555
C20 C19 1_555 1_555
C21 C17 1_555 1_555
H13 C21 1_555 1_555
C22 C20 1_555 1_555
H14 C22 1_555 1_555
H15 C22 1_555 1_555
H16 C22 1_555 1_555
C23 C10 1_555 1_555
C24 C12 1_555 1_555
C25 C26 1_555 1_555
C26 C27 1_555 1_555
C27 H17 1_555 1_555
C28 C26 1_555 1_555
C29 C28 1_555 1_555
C30 C29 1_555 1_555
C31 C30 1_555 1_555
H18 C31 1_555 1_555
C32 C31 1_555 1_555
H19 C32 1_555 1_555
C33 C32 1_555 1_555
C34 C33 1_555 1_555
H20 C34 1_555 1_555
C35 C30 1_555 1_555
H21 C35 1_555 1_555
C36 C33 1_555 1_555
H22 C36 1_555 1_555
H23 C36 1_555 1_555
H24 C36 1_555 1_555
O1 C24 1_555 1_555
O2 C24 1_555 1_555
O3 C25 1_555 1_555
O4 Eu1 1_555 1_555
O5 C23 1_555 1_555
O6 C23 1_555 1_555
O7 C8 1_555 1_555
O8 C15 1_555 1_555
O9 C29 1_555 1_555
O10 Eu1 1_555 1_555
H25 O10 1_555 1_555
H26 O10 1_555 1_555
O11 Eu1 1_555 1_555
H27 O11 1_555 1_555
H28 O11 1_555 1_555
Eu1A O1 1_555 1_555
Eu1_2 O3A 1_555 1_555
Eu1A_2 O4A 1_555 1_555
Eu1A_3 O5 1_555 1_555
Eu1_3 O1A_2 1_555 1_555
C1A H1A 1_555 1_555
H2A C1A 1_555 1_555
H3A C1A 1_555 1_555
C2A C1A 1_555 1_555
C3A C2A 1_555 1_555
H4A C3A 1_555 1_555
C4A C3A 1_555 1_555
H5A C4A 1_555 1_555
C5A C4A 1_555 1_555
C6A C5A 1_555 1_555
H6A C6A 1_555 1_555
C7A C2A 1_555 1_555
H7A C7A 1_555 1_555
C8A C5A 1_555 1_555
C9A C8A 1_555 1_555
C10A C9A 1_555 1_555
C11A C10A 1_555 1_555
H8A C11A 1_555 1_555
C12A C11A 1_555 1_555
C13A C12A 1_555 1_555
C14A C9A 1_555 1_555
H9A C14A 1_555 1_555
C15A C13A 1_555 1_555
C16A C15A 1_555 1_555
C17A C16A 1_555 1_555
H10A C17A 1_555 1_555
C18A C16A 1_555 1_555
H11A C18A 1_555 1_555
C19A C18A 1_555 1_555
H12A C19A 1_555 1_555
C20A C19A 1_555 1_555
C21A C17A 1_555 1_555
H13A C21A 1_555 1_555
C22A C20A 1_555 1_555
H14A C22A 1_555 1_555
H15A C22A 1_555 1_555
H16A C22A 1_555 1_555
C23A C10A 1_555 1_555
C24A C12A 1_555 1_555
C25A C26A 1_555 1_555
C26A C27A 1_555 1_555
C27A C28 1_555 1_555
H17A C27A 1_555 1_555
C28A C27 1_555 1_555
C29A C28A 1_555 1_555
C30A C29A 1_555 1_555
C31A C30A 1_555 1_555
H18A C31A 1_555 1_555
C32A C31A 1_555 1_555
H19A C32A 1_555 1_555
C33A C32A 1_555 1_555
C34A C33A 1_555 1_555
H20A C34A 1_555 1_555
C35A C30A 1_555 1_555
H21A C35A 1_555 1_555
C36A C33A 1_555 1_555
H22A C36A 1_555 1_555
H23A C36A 1_555 1_555
H24A C36A 1_555 1_555
O1A Eu1 1_555 1_555
O1_2 Eu1A_3 1_555 1_555
O1A_2 C24A 1_555 1_555
O2A Eu1A_3 1_555 1_555
O3A C25A 1_555 1_555
O3A_2 Eu1 1_555 1_555
O3_2 Eu1A_3 1_555 1_555
O4A C25A 1_555 1_555
O4A_2 Eu1A_3 1_555 1_555
O5A Eu1 1_555 1_555
O6A Eu1 1_555 1_555
O7A C8A 1_555 1_555
O8A C15A 1_555 1_555
O9A C29A 1_555 1_555
O10A Eu1A_3 1_555 1_555
H25A O10A 1_555 1_555
H26A O10A 1_555 1_555
O11A Eu1A_3 1_555 1_555
H27A O11A 1_555 1_555
H28A O11A 1_555 1_555
C6 C7 1_555 1_555
C13 C14 1_555 1_555
C20 C21 1_555 1_555
C25 O4 1_555 1_555
C34 C35 1_555 1_555
O3 Eu1A 1_555 1_555
O6 Eu1A_3 1_555 1_555
C6A C7A 1_555 1_555
C13A C14A 1_555 1_555
C20A C21A 1_555 1_555
C23A O5A 1_555 1_555
C23A O6A 1_555 1_555
C24A O2A 1_555 1_555
C26A C28A 1_555 1_555
C34A C35A 1_555 1_555

#END
