
#######################################################################
#
#                 Cambridge Crystallographic Data Centre
#                                CCDC 
#
#######################################################################
#
# If this CIF has been generated from an entry in the Cambridge 
# Structural Database, then it will include bibliographic, chemical, 
# crystal, experimental, refinement or atomic coordinate data resulting 
# from the CCDC's data processing and validation procedures.
#
#######################################################################

data_TEJKOK
_symmetry_cell_setting           triclinic
_symmetry_space_group_name_H-M   'P -1'
_symmetry_Int_Tables_number      2
_space_group_name_Hall           '-P 1'
loop_
_symmetry_equiv_pos_site_id
_symmetry_equiv_pos_as_xyz
1 x,y,z
2 -x,-y,-z
_cell_length_a                   10.2510(8)
_cell_length_b                   10.5486(9)
_cell_length_c                   16.209(2)
_cell_angle_alpha                95.879(2)
_cell_angle_beta                 94.001(1)
_cell_angle_gamma                113.937(1)
_cell_volume                     1581.57
loop_
_atom_site_label
_atom_site_type_symbol
_atom_site_fract_x
_atom_site_fract_y
_atom_site_fract_z
Sm1 Sm 0.62452(3) 0.44576(3) 0.58234(2)
C1 C 0.7560(19) 0.749(2) 0.0453(8)
H1 H 0.8411 0.7327 0.0428
H2 H 0.7570 0.8155 0.0085
H3 H 0.6725 0.6628 0.0283
C2 C 0.7516(11) 0.8074(14) 0.1334(6)
C3 C 0.7541(12) 0.9389(14) 0.1543(7)
H4 H 0.7609 0.9953 0.1129
C4 C 0.7468(9) 0.9873(10) 0.2335(6)
H5 H 0.7378 1.0715 0.2441
C5 C 0.7523(7) 0.9156(7) 0.2987(5)
C6 C 0.7507(9) 0.7814(9) 0.2792(6)
H6 H 0.7519 0.7288 0.3217
C7 C 0.7475(10) 0.7284(11) 0.1980(7)
H7 H 0.7424 0.6384 0.1856
C8 C 0.7582(8) 0.9748(8) 0.3847(5)
C9 C 0.8788(6) 0.9809(7) 0.4462(5)
C10 C 1.0161(7) 1.0982(7) 0.4466(5)
H8 H 1.0242 1.1646 0.4115
C11 C 0.8687(7) 0.8881(7) 0.5030(5)
C12 C 0.7297(7) 0.7618(7) 0.5058(5)
C13 C 0.6130(15) 0.1280(13) 0.9542(8)
H9 H 0.5363 0.0746 0.9103
H10 H 0.5738 0.1509 1.0026
H11 H 0.6651 0.0737 0.9679
C14 C 0.7123(13) 0.2598(12) 0.9256(6)
C15 C 0.6735(12) 0.3717(13) 0.9195(7)
H12 H 0.5853 0.3645 0.9350
C16 C 0.7631(10) 0.4922(11) 0.8912(6)
H13 H 0.7369 0.5665 0.8886
C17 C 0.8918(9) 0.5006(9) 0.8669(5)
C18 C 0.9301(11) 0.3904(11) 0.8717(7)
H14 H 1.0159 0.3950 0.8538
C19 C 0.8432(14) 0.2763(14) 0.9022(8)
H15 H 0.8733 0.2052 0.9077
C20 C 0.9934(8) 0.6332(10) 0.8390(5)
C21 C 1.0981(7) 0.6189(7) 0.7805(5)
C22 C 1.0597(7) 0.5657(8) 0.6954(5)
C23 C 1.1631(8) 0.5516(8) 0.6489(4)
H16 H 1.1385 0.5178 0.5921
C24 C 1.3008(7) 0.5864(7) 0.6848(4)
C25 C 1.3442(8) 0.6507(8) 0.7700(5)
C26 C 1.2400(8) 0.6616(9) 0.8171(5)
H17 H 1.2648 0.6976 0.8735
C27 C 0.9119(7) 0.5306(7) 0.6556(5)
C28 C 1.4087(8) 0.5558(7) 0.6384(5)
C29 C 1.4988(8) 0.7136(10) 0.8112(5)
C30 C 1.5984(8) 0.8228(9) 0.7708(5)
C31 C 1.5500(9) 0.8900(9) 0.7143(6)
H18 H 1.4519 0.8597 0.6988
C32 C 1.6491(9) 1.0039(9) 0.6804(7)
H19 H 1.6159 1.0502 0.6441
C33 C 1.7945(10) 1.0464(10) 0.7010(7)
C34 C 1.8415(9) 0.9770(12) 0.7553(8)
H20 H 1.9400 1.0058 0.7689
C35 C 1.7501(9) 0.8689(10) 0.7895(6)
H21 H 1.7861 0.8242 0.8255
C36 C 1.8971(12) 1.1737(12) 0.6668(8)
H22 H 1.9269 1.2550 0.7084
H23 H 1.8495 1.1877 0.6177
H24 H 1.9799 1.1591 0.6528
O1 O 0.6913(7) 1.0448(7) 0.4037(4)
O2 O 0.7280(5) 0.6837(5) 0.5594(3)
O3 O 0.6211(5) 0.7400(5) 0.4526(3)
O4 O 0.8245(5) 0.5555(6) 0.6973(3)
O5 O 0.8720(5) 0.4683(6) 0.5801(3)
O6 O 0.9974(7) 0.7445(7) 0.8648(5)
O7 O 1.5287(7) 0.6736(8) 0.8742(4)
O8 O 1.5050(5) 0.5359(6) 0.6807(3)
O9 O 1.3994(5) 0.5509(5) 0.5606(3)
O10 O 0.6123(7) 0.2089(6) 0.5216(4)
H25 H 0.6257 0.1366 0.5043
H26 H 0.5426 0.2083 0.4896
O11 O 0.5924(6) 0.3038(6) 0.7000(4)
H27 H 0.6009 0.2848 0.7492
H28 H 0.5094 0.2435 0.6787
Sm1A Sm 1.37548(3) 1.55424(3) 0.41766(2)
Sm1A_2 Sm 0.37548(3) 0.55424(3) 0.41766(2)
Sm1A_3 Sm 1.37548(3) 0.55424(3) 0.41766(2)
Sm1_2 Sm 1.62452(3) 0.44576(3) 0.58234(2)
Sm1_3 Sm 1.62452(3) 1.44576(3) 0.58234(2)
C1A C 1.2440(19) 1.251(2) 0.9547(8)
H1A H 1.1589 1.2673 0.9572
H2A H 1.2430 1.1845 0.9915
H3A H 1.3275 1.3372 0.9717
C2A C 1.2484(11) 1.1926(14) 0.8666(6)
C3A C 1.2459(12) 1.0611(14) 0.8457(7)
H4A H 1.2391 1.0047 0.8871
C4A C 1.2532(9) 1.0127(10) 0.7665(6)
H5A H 1.2622 0.9285 0.7559
C5A C 1.2477(7) 1.0844(7) 0.7013(5)
C6A C 1.2493(9) 1.2186(9) 0.7208(6)
H6A H 1.2481 1.2712 0.6783
C7A C 1.2525(10) 1.2716(11) 0.8020(7)
H7A H 1.2576 1.3616 0.8144
C8A C 1.2418(8) 1.0252(8) 0.6153(5)
C9A C 1.1212(6) 1.0191(7) 0.5538(5)
C10A C 0.9839(7) 0.9018(7) 0.5534(5)
H8A H 0.9758 0.8354 0.5885
C11A C 1.1313(7) 1.1119(7) 0.4970(5)
C12A C 1.2703(7) 1.2382(7) 0.4942(5)
C13A C 1.3870(15) 0.8720(13) 0.0458(8)
H9A H 1.4637 0.9254 0.0897
H10A H 1.4262 0.8491 -0.0026
H11A H 1.3349 0.9263 0.0321
C14A C 1.2877(13) 0.7402(12) 0.0744(6)
C15A C 1.3265(12) 0.6283(13) 0.0805(7)
H12A H 1.4147 0.6355 0.0650
C16A C 1.2369(10) 0.5078(11) 0.1088(6)
H13A H 1.2631 0.4335 0.1114
C17A C 1.1082(9) 0.4994(9) 0.1331(5)
C18A C 1.0699(11) 0.6096(11) 0.1283(7)
H14A H 0.9841 0.6050 0.1462
C19A C 1.1568(14) 0.7237(14) 0.0978(8)
H15A H 1.1267 0.7948 0.0923
C20A C 1.0066(8) 0.3668(10) 0.1610(5)
C21A C 0.9019(7) 0.3811(7) 0.2195(5)
C22A C 0.9403(7) 0.4343(8) 0.3046(5)
C23A C 0.8369(8) 0.4484(8) 0.3511(4)
H16A H 0.8615 0.4822 0.4079
C24A C 0.6992(7) 0.4136(7) 0.3152(4)
C25A C 0.6558(8) 0.3493(8) 0.2300(5)
C26A C 0.7600(8) 0.3384(9) 0.1829(5)
H17A H 0.7352 0.3024 0.1265
C27A C 1.0881(7) 0.4694(7) 0.3444(5)
C28A C 0.5913(8) 0.4442(7) 0.3616(5)
C29A C 0.5012(8) 0.2864(10) 0.1888(5)
C30A C 0.4016(8) 0.1772(9) 0.2292(5)
C31A C 0.4500(9) 0.1100(9) 0.2857(6)
H18A H 0.5481 0.1403 0.3012
C32A C 0.3509(9) -0.0039(9) 0.3196(7)
H19A H 0.3841 -0.0502 0.3559
C33A C 0.2055(10) -0.0464(10) 0.2990(7)
C34A C 0.1585(9) 0.0230(12) 0.2447(8)
H20A H 0.0600 -0.0058 0.2311
C35A C 0.2499(9) 0.1311(10) 0.2105(6)
H21A H 0.2139 0.1758 0.1745
C36A C 0.1029(12) -0.1737(12) 0.3332(8)
H22A H 0.0731 -0.2550 0.2916
H23A H 0.1505 -0.1877 0.3823
H24A H 0.0201 -0.1591 0.3472
O1A O 1.3087(7) 0.9552(7) 0.5963(4)
O2A O 1.2720(5) 1.3163(5) 0.4406(3)
O2A_2 O 1.2720(5) 0.3163(5) 0.4406(3)
O3A O 1.3789(5) 1.2600(5) 0.5474(3)
O3A_2 O 0.3789(5) 0.2600(5) 0.5474(3)
O3_2 O 1.6211(5) 0.7400(5) 0.4526(3)
O4A O 1.1755(5) 0.4445(6) 0.3027(3)
O5A O 1.1280(5) 0.5317(6) 0.4199(3)
O6A O 1.0026(7) 0.2555(7) 0.1352(5)
O7A O 0.4713(7) 0.3264(8) 0.1258(4)
O8_2 O 0.5050(5) 0.5359(6) 0.6807(3)
O8A O 0.4950(5) 0.4641(6) 0.3193(3)
O8A_2 O 1.4950(5) 0.4641(6) 0.3193(3)
O9A O 0.6006(5) 0.4491(5) 0.4394(3)
O10A O 1.3877(7) 0.7911(6) 0.4784(4)
H25A H 1.3743 0.8634 0.4957
H26A H 1.4574 0.7917 0.5104
O11A O 1.4076(6) 0.6962(6) 0.3000(4)
H27A H 1.3991 0.7152 0.2508
H28A H 1.4906 0.7565 0.3213
loop_
_geom_bond_atom_site_label_1
_geom_bond_atom_site_label_2
_geom_bond_site_symmetry_1
_geom_bond_site_symmetry_2
Sm1 O2 1_555 1_555
C1 H1 1_555 1_555
H2 C1 1_555 1_555
H3 C1 1_555 1_555
C2 C1 1_555 1_555
C3 C2 1_555 1_555
H4 C3 1_555 1_555
C4 C3 1_555 1_555
H5 C4 1_555 1_555
C5 C4 1_555 1_555
C6 C5 1_555 1_555
H6 C6 1_555 1_555
C7 C2 1_555 1_555
H7 C7 1_555 1_555
C8 C5 1_555 1_555
C9 C8 1_555 1_555
C10 C9 1_555 1_555
H8 C10 1_555 1_555
C11 C9 1_555 1_555
C12 C11 1_555 1_555
C13 H9 1_555 1_555
H10 C13 1_555 1_555
H11 C13 1_555 1_555
C14 C13 1_555 1_555
C15 C14 1_555 1_555
H12 C15 1_555 1_555
C16 C15 1_555 1_555
H13 C16 1_555 1_555
C17 C16 1_555 1_555
C18 C17 1_555 1_555
H14 C18 1_555 1_555
C19 C14 1_555 1_555
H15 C19 1_555 1_555
C20 C17 1_555 1_555
C21 C20 1_555 1_555
C22 C21 1_555 1_555
C23 C22 1_555 1_555
H16 C23 1_555 1_555
C24 C23 1_555 1_555
C25 C24 1_555 1_555
C26 C21 1_555 1_555
H17 C26 1_555 1_555
C27 C22 1_555 1_555
C28 C24 1_555 1_555
C29 C25 1_555 1_555
C30 C29 1_555 1_555
C31 C30 1_555 1_555
H18 C31 1_555 1_555
C32 C31 1_555 1_555
H19 C32 1_555 1_555
C33 C32 1_555 1_555
C34 C33 1_555 1_555
H20 C34 1_555 1_555
C35 C30 1_555 1_555
H21 C35 1_555 1_555
C36 C33 1_555 1_555
H22 C36 1_555 1_555
H23 C36 1_555 1_555
H24 C36 1_555 1_555
O1 C8 1_555 1_555
O2 C12 1_555 1_555
O3 C12 1_555 1_555
O4 Sm1 1_555 1_555
O5 Sm1 1_555 1_555
O6 C20 1_555 1_555
O7 C29 1_555 1_555
O8 C28 1_555 1_555
O9 C28 1_555 1_555
O10 Sm1 1_555 1_555
H25 O10 1_555 1_555
H26 O10 1_555 1_555
O11 Sm1 1_555 1_555
H27 O11 1_555 1_555
H28 O11 1_555 1_555
Sm1A O2A 1_555 1_555
Sm1A_2 O3 1_555 1_555
Sm1A_3 O9 1_555 1_555
Sm1_2 O8 1_555 1_555
Sm1_3 O3A 1_555 1_555
C1A H1A 1_555 1_555
H2A C1A 1_555 1_555
H3A C1A 1_555 1_555
C2A C1A 1_555 1_555
C3A C2A 1_555 1_555
H4A C3A 1_555 1_555
C4A C3A 1_555 1_555
H5A C4A 1_555 1_555
C5A C4A 1_555 1_555
C6A C5A 1_555 1_555
H6A C6A 1_555 1_555
C7A C2A 1_555 1_555
H7A C7A 1_555 1_555
C8A C5A 1_555 1_555
C9A C8A 1_555 1_555
C10A C11 1_555 1_555
H8A C10A 1_555 1_555
C11A C10 1_555 1_555
C12A C11A 1_555 1_555
C13A H9A 1_555 1_555
H10A C13A 1_555 1_555
H11A C13A 1_555 1_555
C14A C13A 1_555 1_555
C15A C14A 1_555 1_555
H12A C15A 1_555 1_555
C16A C15A 1_555 1_555
H13A C16A 1_555 1_555
C17A C16A 1_555 1_555
C18A C17A 1_555 1_555
H14A C18A 1_555 1_555
C19A C14A 1_555 1_555
H15A C19A 1_555 1_555
C20A C17A 1_555 1_555
C21A C20A 1_555 1_555
C22A C21A 1_555 1_555
C23A C22A 1_555 1_555
H16A C23A 1_555 1_555
C24A C23A 1_555 1_555
C25A C24A 1_555 1_555
C26A C21A 1_555 1_555
H17A C26A 1_555 1_555
C27A C22A 1_555 1_555
C28A C24A 1_555 1_555
C29A C25A 1_555 1_555
C30A C29A 1_555 1_555
C31A C30A 1_555 1_555
H18A C31A 1_555 1_555
C32A C31A 1_555 1_555
H19A C32A 1_555 1_555
C33A C32A 1_555 1_555
C34A C33A 1_555 1_555
H20A C34A 1_555 1_555
C35A C30A 1_555 1_555
H21A C35A 1_555 1_555
C36A C33A 1_555 1_555
H22A C36A 1_555 1_555
H23A C36A 1_555 1_555
H24A C36A 1_555 1_555
O1A C8A 1_555 1_555
O2A C12A 1_555 1_555
O2A_2 Sm1A_3 1_555 1_555
O3A C12A 1_555 1_555
O3A_2 Sm1 1_555 1_555
O3_2 Sm1A_3 1_555 1_555
O4A Sm1A_3 1_555 1_555
O5A Sm1A_3 1_555 1_555
O6A C20A 1_555 1_555
O7A C29A 1_555 1_555
O8_2 Sm1 1_555 1_555
O8A Sm1A_2 1_555 1_555
O8A_2 Sm1A_3 1_555 1_555
O9A Sm1 1_555 1_555
O10A Sm1A_3 1_555 1_555
H25A O10A 1_555 1_555
H26A O10A 1_555 1_555
O11A Sm1A_3 1_555 1_555
H27A O11A 1_555 1_555
H28A O11A 1_555 1_555
C6 C7 1_555 1_555
C18 C19 1_555 1_555
C25 C26 1_555 1_555
C27 O4 1_555 1_555
C27 O5 1_555 1_555
C34 C35 1_555 1_555
C6A C7A 1_555 1_555
C9A C10A 1_555 1_555
C9A C11A 1_555 1_555
C18A C19A 1_555 1_555
C25A C26A 1_555 1_555
C27A O4A 1_555 1_555
C27A O5A 1_555 1_555
C28A O8A 1_555 1_555
C28A O9A 1_555 1_555
C34A C35A 1_555 1_555

#END
