
#######################################################################
#
#                 Cambridge Crystallographic Data Centre
#                                CCDC 
#
#######################################################################
#
# If this CIF has been generated from an entry in the Cambridge 
# Structural Database, then it will include bibliographic, chemical, 
# crystal, experimental, refinement or atomic coordinate data resulting 
# from the CCDC's data processing and validation procedures.
#
#######################################################################

data_TEJKAW
_symmetry_cell_setting           triclinic
_symmetry_space_group_name_H-M   'P -1'
_symmetry_Int_Tables_number      2
_space_group_name_Hall           '-P 1'
loop_
_symmetry_equiv_pos_site_id
_symmetry_equiv_pos_as_xyz
1 x,y,z
2 -x,-y,-z
_cell_length_a                   10.3323(6)
_cell_length_b                   10.6644(6)
_cell_length_c                   16.1211(8)
_cell_angle_alpha                95.091(4)
_cell_angle_beta                 93.551(4)
_cell_angle_gamma                113.907(5)
_cell_volume                     1608.16
loop_
_atom_site_label
_atom_site_type_symbol
_atom_site_fract_x
_atom_site_fract_y
_atom_site_fract_z
La1 La 0.62471(3) 0.44349(3) 0.58293(2)
C1 C 1.8877(8) 1.1636(8) 0.6667(6)
H1 H 1.9406 1.1355 0.6279
H2 H 1.8354 1.2067 0.6383
H3 H 1.9523 1.2281 0.7116
C2 C 1.7876(6) 1.0413(7) 0.7010(5)
C3 C 1.8359(6) 0.9743(8) 0.7548(5)
H4 H 1.9336 1.0021 0.7665
C4 C 1.7426(6) 0.8650(8) 0.7929(5)
H5 H 1.7769 0.8217 0.8307
C5 C 1.5971(5) 0.8229(7) 0.7726(4)
C6 C 1.5512(6) 0.8892(7) 0.7176(5)
H6 H 1.4539 0.8604 0.7040
C7 C 1.6448(7) 0.9984(7) 0.6812(5)
H7 H 1.6106 1.0420 0.6436
C8 C 1.4930(6) 0.7100(7) 0.8145(4)
C9 C 1.3406(5) 0.6465(6) 0.7737(4)
C10 C 1.3042(5) 0.5868(5) 0.6902(3)
C11 C 1.1652(5) 0.5472(5) 0.6533(3)
H8 H 1.1414 0.5109 0.5970
C12 C 1.4114(5) 0.5539(5) 0.6449(4)
C13 C 0.2712(5) 0.2341(5) 0.4950(4)
C14 C 0.1318(5) 0.1110(5) 0.4989(3)
C15 C 0.0150(5) 0.0954(5) 0.4448(4)
H9 H 0.0245 0.1592 0.4073
C16 C 0.1176(5) 0.0160(5) 0.5538(3)
C17 C 0.2337(5) 0.0180(6) 0.6168(4)
C18 C 0.2429(5) 0.0835(6) 0.7024(4)
C19 C 0.2379(6) 0.2109(7) 0.7192(4)
H10 H 0.2299 0.2589 0.6751
C20 C 0.2447(7) 0.2674(9) 0.8004(6)
H11 H 0.2490 0.3563 0.8108
C21 C 0.2452(8) 0.1940(12) 0.8660(6)
C22 C 0.2475(9) 0.0673(12) 0.8480(6)
H12 H 0.2486 0.0168 0.8920
C23 C 0.2483(7) 0.0107(8) 0.7682(5)
H13 H 0.2524 -0.0749 0.7586
C24 C 0.2450(11) 0.2545(14) 0.9537(6)
H14 H 0.1494 0.2386 0.9638
H15 H 0.2825 0.2115 0.9928
H16 H 0.3032 0.3522 0.9605
C25 C 0.6068(10) 0.1249(10) 0.9544(6)
H17 H 0.5380 0.1414 0.9858
H18 H 0.6595 0.0888 0.9887
H19 H 0.5587 0.0594 0.9058
C26 C 0.7073(9) 0.2584(9) 0.9274(5)
C27 C 0.6721(8) 0.3688(11) 0.9230(5)
H20 H 0.5845 0.3617 0.9387
C28 C 0.7627(7) 0.4904(8) 0.8960(5)
H21 H 0.7378 0.5649 0.8948
C29 C 0.8920(6) 0.4985(7) 0.8705(4)
C30 C 0.9250(8) 0.3873(9) 0.8735(5)
H22 H 1.0104 0.3919 0.8554
C31 C 0.8356(10) 0.2690(10) 0.9025(6)
H23 H 0.8619 0.1957 0.9053
C32 C 0.9911(6) 0.6267(8) 0.8415(4)
C33 C 1.0965(5) 0.6149(6) 0.7845(4)
C34 C 1.2379(5) 0.6597(6) 0.8204(4)
H24 H 1.2626 0.6986 0.8762
C35 C 1.0616(5) 0.5616(6) 0.7002(3)
C36 C 0.9140(5) 0.5229(6) 0.6582(4)
O1 O 0.8279(3) 0.5503(4) 0.7003(2)
O2 O 0.8810(3) 0.4669(4) 0.5842(3)
O3 O 1.4016(3) 0.5432(4) 0.5660(2)
O4 O 1.5032(3) 0.5334(4) 0.6882(2)
O5 O 0.3747(3) 0.2491(4) 0.5457(2)
O6 O 0.2724(3) 0.3139(4) 0.4417(2)
O7 O 0.3005(4) -0.0504(5) 0.5998(3)
O8 O 0.9976(5) 0.7386(6) 0.8682(3)
O9 O 1.5216(4) 0.6742(6) 0.8798(3)
O10 O 0.6168(5) 0.2096(5) 0.5161(3)
H25 H 0.5850 0.1238 0.5231
H26 H 0.6954 0.2304 0.4951
O11 O 0.5887(4) 0.2939(4) 0.7049(3)
H27 H 0.6468 0.3481 0.7417
H28 H 0.5195 0.2409 0.7254
La1A La 1.37529(3) 0.55651(3) 0.41707(2)
La1_2 La 1.62471(3) 0.44349(3) 0.58293(2)
La1A_2 La 0.37529(3) 0.55651(3) 0.41707(2)
La1_3 La -0.37529(3) -0.55651(3) 0.58293(2)
La1A_3 La -0.62471(3) -0.44349(3) 0.41707(2)
C1A C 0.1123(8) -0.1636(8) 0.3333(6)
H1A H 0.0594 -0.1355 0.3721
H2A H 0.1646 -0.2067 0.3617
H3A H 0.0477 -0.2281 0.2884
C2A C 0.2124(6) -0.0413(7) 0.2990(5)
C3A C 0.1641(6) 0.0257(8) 0.2452(5)
H4A H 0.0664 -0.0021 0.2335
C4A C 0.2574(6) 0.1350(8) 0.2071(5)
H5A H 0.2231 0.1783 0.1693
C5A C 0.4029(5) 0.1771(7) 0.2274(4)
C6A C 0.4488(6) 0.1108(7) 0.2824(5)
H6A H 0.5461 0.1396 0.2960
C7A C 0.3552(7) 0.0016(7) 0.3188(5)
H7A H 0.3894 -0.0420 0.3564
C8A C 0.5070(6) 0.2900(7) 0.1855(4)
C9A C 0.6594(5) 0.3535(6) 0.2263(4)
C10A C 0.6958(5) 0.4132(5) 0.3098(3)
C11A C 0.8348(5) 0.4528(5) 0.3467(3)
H8A H 0.8586 0.4891 0.4030
C12A C 0.5886(5) 0.4461(5) 0.3551(4)
C13A C -0.2712(5) -0.2341(5) 0.5050(4)
C14A C -0.1318(5) -0.1110(5) 0.5011(3)
C15A C -0.0150(5) -0.0954(5) 0.5552(4)
H9A H -0.0245 -0.1592 0.5927
C16A C -0.1176(5) -0.0160(5) 0.4462(3)
C17A C -0.2337(5) -0.0180(6) 0.3832(4)
C18A C -0.2429(5) -0.0835(6) 0.2976(4)
C19A C -0.2379(6) -0.2109(7) 0.2808(4)
H10A H -0.2299 -0.2589 0.3249
C20A C -0.2447(7) -0.2674(9) 0.1996(6)
H11A H -0.2490 -0.3563 0.1892
C21A C -0.2452(8) -0.1940(12) 0.1340(6)
C22A C -0.2475(9) -0.0673(12) 0.1520(6)
H12A H -0.2486 -0.0168 0.1080
C23A C -0.2483(7) -0.0107(8) 0.2318(5)
H13A H -0.2524 0.0749 0.2414
C24A C -0.2450(11) -0.2545(14) 0.0463(6)
H14A H -0.1494 -0.2386 0.0362
H15A H -0.2825 -0.2115 0.0072
H16A H -0.3032 -0.3522 0.0395
C25A C 1.3932(10) 0.8751(10) 0.0456(6)
H17A H 1.4620 0.8586 0.0142
H18A H 1.3405 0.9112 0.0113
H19A H 1.4413 0.9406 0.0942
C26A C 1.2927(9) 0.7416(9) 0.0726(5)
C27A C 1.3279(8) 0.6312(11) 0.0770(5)
H20A H 1.4155 0.6383 0.0613
C28A C 1.2373(7) 0.5096(8) 0.1040(5)
H21A H 1.2622 0.4351 0.1052
C29A C 1.1080(6) 0.5015(7) 0.1295(4)
C30A C 1.0750(8) 0.6127(9) 0.1265(5)
H22A H 0.9896 0.6081 0.1446
C31A C 1.1644(10) 0.7310(10) 0.0975(6)
H23A H 1.1381 0.8043 0.0947
C32A C 1.0089(6) 0.3733(8) 0.1585(4)
C33A C 0.9035(5) 0.3851(6) 0.2155(4)
C34A C 0.7621(5) 0.3403(6) 0.1796(4)
H24A H 0.7374 0.3014 0.1238
C35A C 0.9384(5) 0.4384(6) 0.2998(3)
C36A C 1.0860(5) 0.4771(6) 0.3418(4)
O1A O 1.1721(3) 0.4497(4) 0.2997(2)
O2A O 1.1190(3) 0.5331(4) 0.4158(3)
O3A O 0.5984(3) 0.4568(4) 0.4340(2)
O4A O 0.4968(3) 0.4666(4) 0.3118(2)
O4_2 O 0.5032(3) 0.5334(4) 0.6882(2)
O4A_2 O 1.4968(3) 0.4666(4) 0.3118(2)
O5A O -0.3747(3) -0.2491(4) 0.4543(2)
O5A_2 O 1.6253(3) 0.7509(4) 0.4543(2)
O6A O -0.2724(3) -0.3139(4) 0.5583(2)
O6A_2 O 0.7276(3) 0.6861(4) 0.5583(2)
O6_2 O 1.2724(3) 0.3139(4) 0.4417(2)
O7A O -0.3005(4) 0.0504(5) 0.4002(3)
O8A O 1.0024(5) 0.2614(6) 0.1318(3)
O9A O 0.4784(4) 0.3258(6) 0.1202(3)
O10A O 1.3832(5) 0.7904(5) 0.4839(3)
H25A H 1.4150 0.8762 0.4769
H26A H 1.3046 0.7696 0.5049
O11A O 1.4113(4) 0.7061(4) 0.2951(3)
H27A H 1.3532 0.6519 0.2583
H28A H 1.4805 0.7591 0.2746
loop_
_geom_bond_atom_site_label_1
_geom_bond_atom_site_label_2
_geom_bond_site_symmetry_1
_geom_bond_site_symmetry_2
La1 O1 1_555 1_555
C1 H1 1_555 1_555
H2 C1 1_555 1_555
H3 C1 1_555 1_555
C2 C1 1_555 1_555
C3 C2 1_555 1_555
H4 C3 1_555 1_555
C4 C3 1_555 1_555
H5 C4 1_555 1_555
C5 C4 1_555 1_555
C6 C5 1_555 1_555
H6 C6 1_555 1_555
C7 C2 1_555 1_555
H7 C7 1_555 1_555
C8 C5 1_555 1_555
C9 C8 1_555 1_555
C10 C9 1_555 1_555
C11 C10 1_555 1_555
H8 C11 1_555 1_555
C12 C10 1_555 1_555
C13 C14 1_555 1_555
C14 C15 1_555 1_555
C15 H9 1_555 1_555
C16 C14 1_555 1_555
C17 C16 1_555 1_555
C18 C17 1_555 1_555
C19 C18 1_555 1_555
H10 C19 1_555 1_555
C20 C19 1_555 1_555
H11 C20 1_555 1_555
C21 C20 1_555 1_555
C22 C21 1_555 1_555
H12 C22 1_555 1_555
C23 C18 1_555 1_555
H13 C23 1_555 1_555
C24 C21 1_555 1_555
H14 C24 1_555 1_555
H15 C24 1_555 1_555
H16 C24 1_555 1_555
C25 H17 1_555 1_555
H18 C25 1_555 1_555
H19 C25 1_555 1_555
C26 C25 1_555 1_555
C27 C26 1_555 1_555
H20 C27 1_555 1_555
C28 C27 1_555 1_555
H21 C28 1_555 1_555
C29 C28 1_555 1_555
C30 C29 1_555 1_555
H22 C30 1_555 1_555
C31 C26 1_555 1_555
H23 C31 1_555 1_555
C32 C29 1_555 1_555
C33 C32 1_555 1_555
C34 C9 1_555 1_555
H24 C34 1_555 1_555
C35 C11 1_555 1_555
C36 C35 1_555 1_555
O1 C36 1_555 1_555
O2 La1 1_555 1_555
O3 C12 1_555 1_555
O4 C12 1_555 1_555
O5 La1 1_555 1_555
O6 C13 1_555 1_555
O7 C17 1_555 1_555
O8 C32 1_555 1_555
O9 C8 1_555 1_555
O10 La1 1_555 1_555
H25 O10 1_555 1_555
H26 O10 1_555 1_555
O11 La1 1_555 1_555
H27 O11 1_555 1_555
H28 O11 1_555 1_555
La1A O3 1_555 1_555
La1_2 O4 1_555 1_555
La1A_2 O6 1_555 1_555
La1_3 O6A 1_555 1_555
La1A_3 O5A 1_555 1_555
C1A H1A 1_555 1_555
H2A C1A 1_555 1_555
H3A C1A 1_555 1_555
C2A C1A 1_555 1_555
C3A C2A 1_555 1_555
H4A C3A 1_555 1_555
C4A C3A 1_555 1_555
H5A C4A 1_555 1_555
C5A C4A 1_555 1_555
C6A C5A 1_555 1_555
H6A C6A 1_555 1_555
C7A C2A 1_555 1_555
H7A C7A 1_555 1_555
C8A C5A 1_555 1_555
C9A C8A 1_555 1_555
C10A C9A 1_555 1_555
C11A C10A 1_555 1_555
H8A C11A 1_555 1_555
C12A C10A 1_555 1_555
C13A C14A 1_555 1_555
C14A C15A 1_555 1_555
C15A C16 1_555 1_555
H9A C15A 1_555 1_555
C16A C15 1_555 1_555
C17A C16A 1_555 1_555
C18A C17A 1_555 1_555
C19A C18A 1_555 1_555
H10A C19A 1_555 1_555
C20A C19A 1_555 1_555
H11A C20A 1_555 1_555
C21A C20A 1_555 1_555
C22A C21A 1_555 1_555
H12A C22A 1_555 1_555
C23A C18A 1_555 1_555
H13A C23A 1_555 1_555
C24A C21A 1_555 1_555
H14A C24A 1_555 1_555
H15A C24A 1_555 1_555
H16A C24A 1_555 1_555
C25A H17A 1_555 1_555
H18A C25A 1_555 1_555
H19A C25A 1_555 1_555
C26A C25A 1_555 1_555
C27A C26A 1_555 1_555
H20A C27A 1_555 1_555
C28A C27A 1_555 1_555
H21A C28A 1_555 1_555
C29A C28A 1_555 1_555
C30A C29A 1_555 1_555
H22A C30A 1_555 1_555
C31A C26A 1_555 1_555
H23A C31A 1_555 1_555
C32A C29A 1_555 1_555
C33A C32A 1_555 1_555
C34A C9A 1_555 1_555
H24A C34A 1_555 1_555
C35A C11A 1_555 1_555
C36A C35A 1_555 1_555
O1A La1A 1_555 1_555
O2A La1A 1_555 1_555
O3A La1 1_555 1_555
O4A La1A_2 1_555 1_555
O4_2 La1 1_555 1_555
O4A_2 La1A 1_555 1_555
O5A C13A 1_555 1_555
O5A_2 La1A 1_555 1_555
O6A C13A 1_555 1_555
O6A_2 La1 1_555 1_555
O6_2 La1A 1_555 1_555
O7A C17A 1_555 1_555
O8A C32A 1_555 1_555
O9A C8A 1_555 1_555
O10A La1A 1_555 1_555
H25A O10A 1_555 1_555
H26A O10A 1_555 1_555
O11A La1A 1_555 1_555
H27A O11A 1_555 1_555
H28A O11A 1_555 1_555
C6 C7 1_555 1_555
C13 O5 1_555 1_555
C22 C23 1_555 1_555
C30 C31 1_555 1_555
C33 C34 1_555 1_555
C33 C35 1_555 1_555
C36 O2 1_555 1_555
C6A C7A 1_555 1_555
C12A O3A 1_555 1_555
C12A O4A 1_555 1_555
C14A C16A 1_555 1_555
C22A C23A 1_555 1_555
C30A C31A 1_555 1_555
C33A C34A 1_555 1_555
C33A C35A 1_555 1_555
C36A O1A 1_555 1_555
C36A O2A 1_555 1_555

#END
