
#######################################################################
#
#                 Cambridge Crystallographic Data Centre
#                                CCDC 
#
#######################################################################
#
# If this CIF has been generated from an entry in the Cambridge 
# Structural Database, then it will include bibliographic, chemical, 
# crystal, experimental, refinement or atomic coordinate data resulting 
# from the CCDC's data processing and validation procedures.
#
#######################################################################

data_TEJLUR
_symmetry_cell_setting           triclinic
_symmetry_space_group_name_H-M   'P -1'
_symmetry_Int_Tables_number      2
_space_group_name_Hall           '-P 1'
loop_
_symmetry_equiv_pos_site_id
_symmetry_equiv_pos_as_xyz
1 x,y,z
2 -x,-y,-z
_cell_length_a                   3.635(5)
_cell_length_b                   6.994(3)
_cell_length_c                   6.994(3)
_cell_angle_alpha                63.72(4)
_cell_angle_beta                 88.247(5)
_cell_angle_gamma                88.247(5)
_cell_volume                     159.328
loop_
_atom_site_label
_atom_site_type_symbol
_atom_site_fract_x
_atom_site_fract_y
_atom_site_fract_z
Mn1 Mn 0.0000 0.0000 0.0000
Cl1 Cl -0.5133(4) 0.1478(2) 0.1482(2)
N1 N 0.0006(13) -0.3104(8) 0.3104(8)
C1 C 0.0672(18) -0.3145(10) 0.4993(11)
H1 H 0.1151 -0.1872 0.5049
C2 C -0.0672(18) -0.4989(11) 0.3144(10)
H2 H -0.1160 -0.5041 0.1871
Mn1_2 Mn -1.0000 0.0000 0.0000
Mn1_3 Mn 0.0000 -1.0000 1.0000
Cl1_2 Cl 0.4867(4) 0.1478(2) 0.1482(2)
Cl1A Cl -0.4867(4) -0.1478(2) -0.1482(2)
Cl1A_2 Cl 0.5133(4) -0.1478(2) -0.1482(2)
N1A N -0.0006(13) -0.6896(8) 0.6896(8)
N1A_2 N -0.0006(13) 0.3104(8) -0.3104(8)
C1A C -0.0672(18) -0.6855(10) 0.5007(11)
H1A H -0.1151 -0.8128 0.4951
C2A C 0.0672(18) -0.5011(11) 0.6856(10)
H2A H 0.1160 -0.4959 0.8129
loop_
_geom_bond_atom_site_label_1
_geom_bond_atom_site_label_2
_geom_bond_site_symmetry_1
_geom_bond_site_symmetry_2
Mn1 Cl1 1_555 1_555
Cl1 Mn1_2 1_555 1_555
N1 Mn1 1_555 1_555
C1 N1 1_555 1_555
H1 C1 1_555 1_555
C2 N1 1_555 1_555
H2 C2 1_555 1_555
Mn1_2 Cl1A 1_555 1_555
Mn1_3 N1A 1_555 1_555
Cl1_2 Mn1 1_555 1_555
Cl1A Mn1 1_555 1_555
Cl1A_2 Mn1 1_555 1_555
N1A C1A 1_555 1_555
N1A_2 Mn1 1_555 1_555
C1A C2 1_555 1_555
H1A C1A 1_555 1_555
C2A C1 1_555 1_555
H2A C2A 1_555 1_555
N1A C2A 1_555 1_555

#END
