
#######################################################################
#
#                 Cambridge Crystallographic Data Centre
#                                CCDC 
#
#######################################################################
#
# If this CIF has been generated from an entry in the Cambridge 
# Structural Database, then it will include bibliographic, chemical, 
# crystal, experimental, refinement or atomic coordinate data resulting 
# from the CCDC's data processing and validation procedures.
#
#######################################################################

data_TEJLIF
_symmetry_cell_setting           orthorhombic
_symmetry_space_group_name_H-M   'P c c n'
_symmetry_Int_Tables_number      56
_space_group_name_Hall           '-P 2ab 2ac'
loop_
_symmetry_equiv_pos_site_id
_symmetry_equiv_pos_as_xyz
1 x,y,z
2 1/2-x,1/2-y,z
3 1/2+x,-y,1/2-z
4 -x,1/2+y,1/2-z
5 -x,-y,-z
6 1/2+x,1/2+y,-z
7 1/2-x,y,1/2+z
8 x,1/2-y,1/2+z
_cell_length_a                   25.635(4)
_cell_length_b                   27.369(6)
_cell_length_c                   8.5603(17)
_cell_angle_alpha                90
_cell_angle_beta                 90
_cell_angle_gamma                90
_cell_volume                     6005.94
loop_
_atom_site_label
_atom_site_type_symbol
_atom_site_fract_x
_atom_site_fract_y
_atom_site_fract_z
Ag1 Ag 0.04159(3) 0.03061(4) -0.07265(9)
O1 O -0.0461(3) 0.1098(4) 0.0872(12)
O2 O 0.0376(3) 0.1124(3) 0.0254(9)
N1 N 0.1189(3) 0.0158(4) 0.0355(10)
N2 N 0.4825(3) -0.0213(3) -0.2502(9)
C1 C 0.1379(4) -0.0284(5) 0.0446(10)
H1 H 0.1175 -0.0545 0.0116
C2 C 0.4727(4) 0.0200(4) -0.1783(13)
H2 H 0.4913 0.0477 -0.2073
C3 C 0.4350(4) 0.0241(4) -0.0590(12)
H3 H 0.4284 0.0545 -0.0145
C4 C 0.2186(4) 0.0031(5) 0.1524(12)
C5 C 0.2749(4) -0.0038(5) 0.2050(12)
H4 H 0.2777 -0.0342 0.2626
H5 H 0.2844 0.0226 0.2750
C6 C 0.1881(4) -0.0375(5) 0.1027(11)
H6 H 0.2011 -0.0692 0.1086
C7 C 0.0431(5) 0.1638(4) 0.3356(12)
C8 C 0.4191(4) -0.0600(4) -0.0852(13)
H7 H 0.4011 -0.0882 -0.0573
C9 C 0.1965(4) 0.0470(4) 0.1455(11)
H8 H 0.2147 0.0744 0.1797
C10 C 0.1305(4) 0.1482(4) 0.4385(15)
H9 H 0.1659 0.1437 0.4199
C11 C 0.1465(4) 0.0518(4) 0.0872(11)
H10 H 0.1318 0.0829 0.0852
C12 C 0.3693(3) -0.0124(4) 0.1225(10)
H11 H 0.3786 0.0143 0.1916
H12 H 0.3709 -0.0424 0.1825
C13 C 0.4086(4) -0.0150(5) -0.0088(12)
C14 C 0.4569(4) -0.0613(4) -0.2031(13)
H13 H 0.4644 -0.0910 -0.2505
C15 C 0.0236(4) 0.1579(5) 0.4867(14)
H14 H -0.0122 0.1593 0.5041
C16 C 0.3135(4) -0.0048(5) 0.0654(12)
H15 H 0.3041 -0.0311 -0.0052
H16 H 0.3113 0.0257 0.0084
C17 C 0.1099(5) 0.1456(4) 0.5928(14)
C18 C -0.0032(6) 0.1289(5) 0.0971(13)
C19 C 0.0958(5) 0.1577(4) 0.3154(13)
H17 H 0.1092 0.1599 0.2147
C20 C 0.0574(5) 0.1501(5) 0.6117(13)
H18 H 0.0436 0.1478 0.7119
C21 C 0.1748(6) 0.1824(7) 0.7792(16)
H19 H 0.2018 0.1798 0.6985
C22 C 0.0046(5) 0.1735(4) 0.2017(13)
H20 H -0.0292 0.1811 0.2492
C23 C 0.1463(5) 0.1366(4) 0.7307(14)
H21 H 0.1261 0.1245 0.8184
H22 H 0.1715 0.1117 0.7025
C24 C 0.0208(5) 0.2170(5) 0.1108(15)
H23 H -0.0043 0.2232 0.0300
H24 H 0.0544 0.2111 0.0647
H25 H 0.0228 0.2448 0.1789
C25 C 0.2129(5) 0.1712(5) 0.9196(15)
H26 H 0.2200 0.1368 0.9230
H27 H 0.1968 0.1811 1.0158
H28 H 0.2449 0.1888 0.9053
C26 C 0.1651(7) 0.2321(6) 0.754(2)
H29 H 0.1450 0.2359 0.6597
H30 H 0.1977 0.2491 0.7430
H31 H 0.1460 0.2452 0.8404
Ag1D Ag -0.04159(3) -0.03061(4) 0.07265(9)
Ag1B Ag 0.54159(3) -0.03061(4) -0.42735(9)
N2B N -0.0175(3) 0.0213(3) -0.2498(9)
O3 O -0.1273(4) 0.1451(4) 0.2477(13)
O4 O -0.0941(8) 0.1764(8) -0.164(2)
O5 O -0.1098(9) 0.1992(9) -0.472(3)
O6 O -0.1464(11) 0.2753(12) -0.486(3)
loop_
_geom_bond_atom_site_label_1
_geom_bond_atom_site_label_2
_geom_bond_site_symmetry_1
_geom_bond_site_symmetry_2
Ag1 O2 1_555 1_555
O1 C18 1_555 1_555
O2 C18 1_555 1_555
N1 Ag1 1_555 1_555
N2 C2 1_555 1_555
C1 N1 1_555 1_555
H1 C1 1_555 1_555
C2 H2 1_555 1_555
C3 C2 1_555 1_555
H3 C3 1_555 1_555
C4 C5 1_555 1_555
C5 H4 1_555 1_555
H5 C5 1_555 1_555
C6 C1 1_555 1_555
H6 C6 1_555 1_555
C7 C15 1_555 1_555
C8 H7 1_555 1_555
C9 C4 1_555 1_555
H8 C9 1_555 1_555
C10 H9 1_555 1_555
C11 N1 1_555 1_555
H10 C11 1_555 1_555
C12 H11 1_555 1_555
H12 C12 1_555 1_555
C13 C3 1_555 1_555
C14 N2 1_555 1_555
H13 C14 1_555 1_555
C15 H14 1_555 1_555
C16 C5 1_555 1_555
H15 C16 1_555 1_555
H16 C16 1_555 1_555
C17 C10 1_555 1_555
C18 C22 1_555 1_555
C19 C7 1_555 1_555
H17 C19 1_555 1_555
C20 C15 1_555 1_555
H18 C20 1_555 1_555
C21 H19 1_555 1_555
C22 C7 1_555 1_555
H20 C22 1_555 1_555
C23 C17 1_555 1_555
H21 C23 1_555 1_555
H22 C23 1_555 1_555
C24 C22 1_555 1_555
H23 C24 1_555 1_555
H24 C24 1_555 1_555
H25 C24 1_555 1_555
C25 C21 1_555 1_555
H26 C25 1_555 1_555
H27 C25 1_555 1_555
H28 C25 1_555 1_555
C26 C21 1_555 1_555
H29 C26 1_555 1_555
H30 C26 1_555 1_555
H31 C26 1_555 1_555
Ag1D Ag1 1_555 1_555
Ag1B N2 1_555 1_555
N2B Ag1 1_555 1_555
C4 C6 1_555 1_555
C8 C13 1_555 1_555
C8 C14 1_555 1_555
C9 C11 1_555 1_555
C10 C19 1_555 1_555
C12 C13 1_555 1_555
C12 C16 1_555 1_555
C17 C20 1_555 1_555
C21 C23 1_555 1_555

#END
