
#######################################################################
#
#                 Cambridge Crystallographic Data Centre
#                                CCDC 
#
#######################################################################
#
# If this CIF has been generated from an entry in the Cambridge 
# Structural Database, then it will include bibliographic, chemical, 
# crystal, experimental, refinement or atomic coordinate data resulting 
# from the CCDC's data processing and validation procedures.
#
#######################################################################

data_TEJMEC
_symmetry_cell_setting           orthorhombic
_symmetry_space_group_name_H-M   'P n m a'
_symmetry_Int_Tables_number      62
_space_group_name_Hall           '-P 2ac 2n'
loop_
_symmetry_equiv_pos_site_id
_symmetry_equiv_pos_as_xyz
1 x,y,z
2 1/2-x,-y,1/2+z
3 -x,1/2+y,-z
4 1/2+x,1/2-y,1/2-z
5 -x,-y,-z
6 1/2+x,y,1/2-z
7 x,1/2-y,z
8 1/2-x,1/2+y,1/2+z
_cell_length_a                   10.933(2)
_cell_length_b                   6.5514(13)
_cell_length_c                   18.378(3)
_cell_angle_alpha                90
_cell_angle_beta                 90
_cell_angle_gamma                90
_cell_volume                     1316.35
loop_
_atom_site_label
_atom_site_type_symbol
_atom_site_fract_x
_atom_site_fract_y
_atom_site_fract_z
Fe1 Fe 0.65176(7) 0.2500 0.55981(4)
S1 S 0.61610(13) -0.2500 0.53195(7)
N1 N 0.8285(5) 0.2500 0.6134(3)
N2 N 0.7877(4) 0.2500 0.4715(3)
C1 C 0.9632(6) 0.2500 0.8016(3)
C2 C 0.9550(6) 0.2500 0.7197(3)
C3 C 0.8421(6) 0.2500 0.6859(3)
H1 H 0.7723 0.2500 0.7148
C4 C 1.0583(6) 0.2500 0.6766(4)
H2 H 1.1356 0.2500 0.6978
C5 C 1.0457(6) 0.2500 0.6015(3)
H3 H 1.1146 0.2500 0.5718
C6 C 0.9298(6) 0.2500 0.5710(3)
C7 C 0.9073(5) 0.2500 0.4908(3)
C8 C 1.0010(6) 0.2500 0.4406(3)
H4 H 1.0821 0.2500 0.4558
C9 C 0.9724(6) 0.2500 0.3674(3)
H5 H 1.0341 0.2500 0.3326
C10 C 0.7618(6) 0.2500 0.4005(3)
H6 H 0.6801 0.2500 0.3864
C11 C 0.8509(6) 0.2500 0.3465(3)
C12 C 0.8109(6) 0.2500 0.2685(3)
O1 O 0.8573(5) 0.2500 0.8329(3)
O2 O 1.0602(4) 0.2500 0.8333(2)
O3 O 0.9012(8) 0.2500 0.2233(5)
O4 O 0.7076(6) 0.2500 0.2496(3)
O5 O 0.6473(3) -0.0709(5) 0.5766(2)
O6 O 0.6854(5) -0.2500 0.4644(3)
O7 O 0.4845(4) -0.2500 0.5173(2)
Fe1C Fe 1.15176(7) 0.2500 0.94019(4)
Fe1B Fe 0.34824(7) -0.2500 0.44019(4)
Fe1_2 Fe 0.65176(7) -0.7500 0.55981(4)
O2C O 0.5602(4) 0.2500 0.6667(2)
O5F O 0.6473(3) -0.4291(5) 0.5766(2)
O5F_2 O 0.6473(3) 0.5709(5) 0.5766(2)
O7B O 0.5155(4) 0.2500 0.4827(2)
loop_
_geom_bond_atom_site_label_1
_geom_bond_atom_site_label_2
_geom_bond_site_symmetry_1
_geom_bond_site_symmetry_2
Fe1 N1 1_555 1_555
S1 O5 1_555 1_555
N1 C3 1_555 1_555
N2 Fe1 1_555 1_555
C1 C2 1_555 1_555
C2 C3 1_555 1_555
C3 H1 1_555 1_555
C4 C2 1_555 1_555
H2 C4 1_555 1_555
C5 C4 1_555 1_555
H3 C5 1_555 1_555
C6 N1 1_555 1_555
C7 N2 1_555 1_555
C8 C7 1_555 1_555
H4 C8 1_555 1_555
C9 C8 1_555 1_555
H5 C9 1_555 1_555
C10 N2 1_555 1_555
H6 C10 1_555 1_555
C11 C9 1_555 1_555
C12 C11 1_555 1_555
O1 C1 1_555 1_555
O2 C1 1_555 1_555
O3 C12 1_555 1_555
O4 C12 1_555 1_555
O5 Fe1 1_555 1_555
O6 S1 1_555 1_555
O7 S1 1_555 1_555
Fe1C O2 1_555 1_555
Fe1B O7 1_555 1_555
Fe1_2 O5F 1_555 1_555
O2C Fe1 1_555 1_555
O5F S1 1_555 1_555
O5F_2 Fe1 1_555 1_555
O7B Fe1 1_555 1_555
C5 C6 1_555 1_555
C6 C7 1_555 1_555
C10 C11 1_555 1_555

#END
