
#######################################################################
#
#                 Cambridge Crystallographic Data Centre
#                                CCDC 
#
#######################################################################
#
# If this CIF has been generated from an entry in the Cambridge 
# Structural Database, then it will include bibliographic, chemical, 
# crystal, experimental, refinement or atomic coordinate data resulting 
# from the CCDC's data processing and validation procedures.
#
#######################################################################

data_TEJNED
_symmetry_cell_setting           monoclinic
_symmetry_space_group_name_H-M   'C 2/c'
_symmetry_Int_Tables_number      15
_space_group_name_Hall           '-C 2yn'
loop_
_symmetry_equiv_pos_site_id
_symmetry_equiv_pos_as_xyz
1 x,y,z
2 -x,y,1/2-z
3 1/2+x,1/2+y,z
4 1/2-x,1/2+y,1/2-z
5 -x,-y,-z
6 x,-y,1/2+z
7 1/2-x,1/2-y,-z
8 1/2+x,1/2-y,1/2+z
_cell_length_a                   16.0231(17)
_cell_length_b                   15.1138(16)
_cell_length_c                   9.2701(10)
_cell_angle_alpha                90
_cell_angle_beta                 115.4840(10)
_cell_angle_gamma                90
_cell_volume                     2026.52
loop_
_atom_site_label
_atom_site_type_symbol
_atom_site_fract_x
_atom_site_fract_y
_atom_site_fract_z
C1 C 0.1704(3) 0.3356(3) 0.5631(5)
C2 C 0.1357(3) 0.3267(3) 0.3884(5)
C3 C 0.1280(3) 0.4015(3) 0.2962(5)
H1 H 0.1426 0.4567 0.3449
C4 C 0.0989(4) 0.3945(3) 0.1328(6)
H2 H 0.0934 0.4450 0.0720
C5 C 0.0781(3) 0.3124(3) 0.0599(5)
H3 H 0.0601 0.3075 -0.0495
C6 C 0.0840(3) 0.2367(3) 0.1508(5)
C7 C 0.1123(3) 0.2443(3) 0.3143(5)
H4 H 0.1156 0.1942 0.3747
C8 C 0.0611(3) 0.1488(3) 0.0681(5)
Cu1 Cu 0.2500 0.2500 1.0000
Ho1 Ho 0.0000 -0.030921(17) 0.2500
N1 N 0.1644(3) 0.2745(3) 0.6611(4)
N2 N 0.2083(3) 0.3113(3) 0.8069(4)
N3 N 0.2384(3) 0.3908(3) 0.7960(4)
N4 N 0.2158(3) 0.4077(2) 0.6427(4)
O1 O 0.0452(2) 0.08342(19) 0.1366(3)
O2 O 0.0593(2) 0.1453(2) -0.0686(3)
O3 O -0.1259(2) -0.0948(2) 0.2955(4)
H5 H -0.1374 -0.0684 0.3624
H6 H -0.1317 -0.1483 0.3034
O4 O -0.1536(2) 0.01592(19) 0.0397(3)
H7 H -0.1837 0.0340 0.0859
H8 H -0.1781 -0.0273 -0.0157
C1F C 0.3296(3) 0.1644(3) 1.4369(5)
C2F C 0.3643(3) 0.1733(3) 1.6116(5)
C3F C 0.3720(3) 0.0985(3) 1.7038(5)
H1F H 0.3574 0.0433 1.6551
C4F C 0.4011(4) 0.1055(3) 1.8672(6)
H2F H 0.4066 0.0550 1.9280
C5F C 0.4219(3) 0.1876(3) 1.9401(5)
H3F H 0.4399 0.1925 2.0495
C6F C 0.4160(3) 0.2633(3) 1.8492(5)
C7F C 0.3877(3) 0.2557(3) 1.6857(5)
H4F H 0.3844 0.3058 1.6253
C8F C 0.4389(3) 0.3512(3) 1.9319(5)
Ho1D Ho 0.0000 0.030921(17) -0.2500
Ho1F Ho 0.5000 0.530921(17) 1.7500
Ho1B Ho 0.5000 0.469079(17) 2.2500
N1F N 0.3356(3) 0.2255(3) 1.3389(4)
N2F N 0.2917(3) 0.1887(3) 1.1931(4)
N3F N 0.2616(3) 0.1092(3) 1.2040(4)
N4F N 0.2842(3) 0.0923(2) 1.3573(4)
O1F O 0.4548(2) 0.41658(19) 1.8634(3)
O1A O -0.0452(2) 0.08342(19) 0.3634(3)
O2F O 0.4407(2) 0.3547(2) 2.0686(3)
O2D O -0.0593(2) -0.1453(2) 0.0686(3)
O2E O 0.0593(2) -0.1453(2) 0.4314(3)
O3A O 0.1259(2) -0.0948(2) 0.2045(4)
H5A H 0.1374 -0.0684 0.1376
H6A H 0.1317 -0.1483 0.1966
O4A O 0.1536(2) 0.01592(19) 0.4603(3)
H7A H 0.1837 0.0340 0.4141
H8A H 0.1781 -0.0273 0.5157
loop_
_geom_bond_atom_site_label_1
_geom_bond_atom_site_label_2
_geom_bond_site_symmetry_1
_geom_bond_site_symmetry_2
C1 C2 1_555 1_555
C2 C3 1_555 1_555
C3 H1 1_555 1_555
C4 C3 1_555 1_555
H2 C4 1_555 1_555
C5 C4 1_555 1_555
H3 C5 1_555 1_555
C6 C5 1_555 1_555
C7 C2 1_555 1_555
H4 C7 1_555 1_555
C8 C6 1_555 1_555
Cu1 N2 1_555 1_555
Ho1 O1 1_555 1_555
N1 C1 1_555 1_555
N2 N1 1_555 1_555
N3 N2 1_555 1_555
N4 C1 1_555 1_555
O1 C8 1_555 1_555
O2 C8 1_555 1_555
O3 Ho1 1_555 1_555
H5 O3 1_555 1_555
H6 O3 1_555 1_555
O4 Ho1 1_555 1_555
H7 O4 1_555 1_555
H8 O4 1_555 1_555
C1F C2F 1_555 1_555
C2F C3F 1_555 1_555
C3F H1F 1_555 1_555
C4F C3F 1_555 1_555
H2F C4F 1_555 1_555
C5F C4F 1_555 1_555
H3F C5F 1_555 1_555
C6F C5F 1_555 1_555
C7F C2F 1_555 1_555
H4F C7F 1_555 1_555
C8F C6F 1_555 1_555
Ho1D O2 1_555 1_555
Ho1F O1F 1_555 1_555
Ho1B O2F 1_555 1_555
N1F C1F 1_555 1_555
N2F Cu1 1_555 1_555
N3F N2F 1_555 1_555
N4F C1F 1_555 1_555
O1F C8F 1_555 1_555
O1A Ho1 1_555 1_555
O2F C8F 1_555 1_555
O2D Ho1 1_555 1_555
O2E Ho1 1_555 1_555
O3A Ho1 1_555 1_555
H5A O3A 1_555 1_555
H6A O3A 1_555 1_555
O4A Ho1 1_555 1_555
H7A O4A 1_555 1_555
H8A O4A 1_555 1_555
C6 C7 1_555 1_555
N3 N4 1_555 1_555
C6F C7F 1_555 1_555
N1F N2F 1_555 1_555
N3F N4F 1_555 1_555

#END
