
#######################################################################
#
#                 Cambridge Crystallographic Data Centre
#                                CCDC 
#
#######################################################################
#
# If this CIF has been generated from an entry in the Cambridge 
# Structural Database, then it will include bibliographic, chemical, 
# crystal, experimental, refinement or atomic coordinate data resulting 
# from the CCDC's data processing and validation procedures.
#
#######################################################################

data_TEJNON
_symmetry_cell_setting           monoclinic
_symmetry_space_group_name_H-M   'C 2/c'
_symmetry_Int_Tables_number      15
_space_group_name_Hall           '-C 2yn'
loop_
_symmetry_equiv_pos_site_id
_symmetry_equiv_pos_as_xyz
1 x,y,z
2 -x,y,1/2-z
3 1/2+x,1/2+y,z
4 1/2-x,1/2+y,1/2-z
5 -x,-y,-z
6 x,-y,1/2+z
7 1/2-x,1/2-y,-z
8 1/2+x,1/2-y,1/2+z
_cell_length_a                   16.062(2)
_cell_length_b                   15.231(2)
_cell_length_c                   9.2881(15)
_cell_angle_alpha                90
_cell_angle_beta                 115.258(2)
_cell_angle_gamma                90
_cell_volume                     2055.01
loop_
_atom_site_label
_atom_site_type_symbol
_atom_site_fract_x
_atom_site_fract_y
_atom_site_fract_z
C1 C 0.0629(3) 0.1509(3) 0.0681(6)
C2 C 0.0849(3) 0.2382(3) 0.1513(6)
C3 C 0.0782(4) 0.3133(3) 0.0618(6)
H1 H 0.0605 0.3088 -0.0473
C4 C 0.0981(4) 0.3948(4) 0.1348(6)
H2 H 0.0921 0.4451 0.0744
C5 C 0.1267(4) 0.4014(4) 0.2973(6)
H3 H 0.1403 0.4563 0.3459
C6 C 0.1355(3) 0.3267(3) 0.3889(6)
C7 C 0.1697(3) 0.3357(3) 0.5628(6)
C8 C 0.1130(3) 0.2454(3) 0.3146(6)
H4 H 0.1168 0.1953 0.3745
Cu1 Cu 0.2500 0.2500 1.0000
H5 H -0.183(4) -0.025(3) -0.022(7)
H6 H 0.140(5) -0.069(3) 0.136(7)
H7 H -0.188(4) 0.033(4) 0.083(7)
H8 H 0.137(5) -0.1487(11) 0.199(8)
N1 N 0.1648(3) 0.2745(3) 0.6614(5)
N2 N 0.2076(3) 0.3106(3) 0.8069(5)
N3 N 0.2371(3) 0.3903(3) 0.7957(5)
N4 N 0.2142(3) 0.4074(3) 0.6426(5)
O1 O 0.0465(2) 0.0857(2) 0.1345(4)
O2 O 0.0618(3) 0.1485(2) -0.0681(4)
O3 O -0.1570(2) 0.0146(2) 0.0388(4)
O4 O 0.1263(3) -0.0963(2) 0.1995(5)
Sm1 Sm 0.0000 -0.03108(2) 0.2500
C1F C 0.4371(3) 0.3491(3) 1.9319(6)
C2F C 0.4151(3) 0.2618(3) 1.8487(6)
C3F C 0.4218(4) 0.1867(3) 1.9382(6)
H1F H 0.4395 0.1912 2.0473
C4F C 0.4019(4) 0.1052(4) 1.8652(6)
H2F H 0.4079 0.0549 1.9256
C5F C 0.3733(4) 0.0986(4) 1.7027(6)
H3F H 0.3597 0.0437 1.6541
C6F C 0.3645(3) 0.1733(3) 1.6111(6)
C7F C 0.3303(3) 0.1643(3) 1.4372(6)
C8F C 0.3870(3) 0.2546(3) 1.6854(6)
H4F H 0.3832 0.3047 1.6255
H5A H 0.183(4) -0.025(3) 0.522(7)
H6A H -0.140(5) -0.069(3) 0.364(7)
H7A H 0.188(4) 0.033(4) 0.417(7)
H8A H -0.137(5) -0.1487(11) 0.301(8)
N1F N 0.3352(3) 0.2255(3) 1.3386(5)
N2F N 0.2924(3) 0.1894(3) 1.1931(5)
N3F N 0.2629(3) 0.1097(3) 1.2043(5)
N4F N 0.2858(3) 0.0926(3) 1.3574(5)
O1F O 0.4535(2) 0.4143(2) 1.8655(4)
O1A O -0.0465(2) 0.0857(2) 0.3655(4)
O2F O 0.4382(3) 0.3515(2) 2.0681(4)
O2D O -0.0618(3) -0.1485(2) 0.0681(4)
O2E O 0.0618(3) -0.1485(2) 0.4319(4)
O3A O 0.1570(2) 0.0146(2) 0.4612(4)
O4A O -0.1263(3) -0.0963(2) 0.3005(5)
Sm1D Sm 0.0000 0.03108(2) -0.2500
Sm1F Sm 0.5000 0.53108(2) 1.7500
Sm1B Sm 0.5000 0.46892(2) 2.2500
loop_
_geom_bond_atom_site_label_1
_geom_bond_atom_site_label_2
_geom_bond_site_symmetry_1
_geom_bond_site_symmetry_2
C1 C2 1_555 1_555
C2 C3 1_555 1_555
C3 H1 1_555 1_555
C4 C3 1_555 1_555
H2 C4 1_555 1_555
C5 C4 1_555 1_555
H3 C5 1_555 1_555
C6 C5 1_555 1_555
C7 C6 1_555 1_555
C8 C2 1_555 1_555
H4 C8 1_555 1_555
Cu1 N2 1_555 1_555
H5 O3 1_555 1_555
H6 O4 1_555 1_555
H7 O3 1_555 1_555
H8 O4 1_555 1_555
N1 C7 1_555 1_555
N2 N1 1_555 1_555
N3 N2 1_555 1_555
N4 C7 1_555 1_555
O1 C1 1_555 1_555
O2 C1 1_555 1_555
O3 Sm1 1_555 1_555
O4 Sm1 1_555 1_555
Sm1 O1 1_555 1_555
C1F C2F 1_555 1_555
C2F C3F 1_555 1_555
C3F H1F 1_555 1_555
C4F C3F 1_555 1_555
H2F C4F 1_555 1_555
C5F C4F 1_555 1_555
H3F C5F 1_555 1_555
C6F C5F 1_555 1_555
C7F C6F 1_555 1_555
C8F C2F 1_555 1_555
H4F C8F 1_555 1_555
H5A O3A 1_555 1_555
H6A O4A 1_555 1_555
H7A O3A 1_555 1_555
H8A O4A 1_555 1_555
N1F C7F 1_555 1_555
N2F Cu1 1_555 1_555
N3F N2F 1_555 1_555
N4F C7F 1_555 1_555
O1F C1F 1_555 1_555
O1A Sm1 1_555 1_555
O2F C1F 1_555 1_555
O2D Sm1 1_555 1_555
O2E Sm1 1_555 1_555
O3A Sm1 1_555 1_555
O4A Sm1 1_555 1_555
Sm1D O2 1_555 1_555
Sm1F O1F 1_555 1_555
Sm1B O2F 1_555 1_555
C6 C8 1_555 1_555
N3 N4 1_555 1_555
C6F C8F 1_555 1_555
N1F N2F 1_555 1_555
N3F N4F 1_555 1_555

#END
