
#######################################################################
#
#                 Cambridge Crystallographic Data Centre
#                                CCDC 
#
#######################################################################
#
# If this CIF has been generated from an entry in the Cambridge 
# Structural Database, then it will include bibliographic, chemical, 
# crystal, experimental, refinement or atomic coordinate data resulting 
# from the CCDC's data processing and validation procedures.
#
#######################################################################

data_TEJNUT
_symmetry_cell_setting           monoclinic
_symmetry_space_group_name_H-M   'C 2/c'
_symmetry_Int_Tables_number      15
_space_group_name_Hall           '-C 2yn'
loop_
_symmetry_equiv_pos_site_id
_symmetry_equiv_pos_as_xyz
1 x,y,z
2 -x,y,1/2-z
3 1/2+x,1/2+y,z
4 1/2-x,1/2+y,1/2-z
5 -x,-y,-z
6 x,-y,1/2+z
7 1/2-x,1/2-y,-z
8 1/2+x,1/2-y,1/2+z
_cell_length_a                   16.1054(18)
_cell_length_b                   15.3296(17)
_cell_length_c                   9.3013(11)
_cell_angle_alpha                90
_cell_angle_beta                 115.131(1)
_cell_angle_gamma                90
_cell_volume                     2079.01
loop_
_atom_site_label
_atom_site_type_symbol
_atom_site_fract_x
_atom_site_fract_y
_atom_site_fract_z
C1 C 0.4358(3) 0.3471(3) 0.4332(5)
C2 C 0.4143(3) 0.2608(3) 0.3481(5)
C3 C 0.4217(3) 0.1856(3) 0.4381(6)
C4 C 0.4025(4) 0.1053(3) 0.3646(6)
C5 C 0.3738(4) 0.0987(3) 0.2018(6)
C6 C 0.3652(3) 0.1729(3) 0.1110(5)
C7 C 0.3312(3) 0.1644(3) -0.0629(5)
C8 C 0.3873(3) 0.2542(3) 0.1860(6)
Cu1 Cu 0.2500 0.2500 -0.5000
H1 H 0.381(3) 0.305(3) 0.126(5)
H2 H 0.442(3) 0.192(3) 0.550(5)
H3 H 0.410(3) 0.062(3) 0.422(6)
H4 H 0.364(3) 0.047(3) 0.155(6)
H5 H 0.311(4) 0.533(3) 0.585(7)
H6 H 0.648(4) 0.424(4) 0.642(7)
H7 H 0.320(4) 0.482(4) 0.490(7)
H8 H 0.634(4) 0.354(4) 0.687(7)
N1 N 0.2878(3) 0.0930(2) -0.1424(4)
N2 N 0.2643(3) 0.1102(3) -0.2951(5)
N3 N 0.2929(3) 0.1896(3) -0.3067(5)
N4 N 0.3349(3) 0.2257(2) -0.1611(5)
O1 O 0.4362(2) 0.3490(2) 0.5676(4)
O2 O 0.4518(2) 0.4128(2) 0.3663(4)
O3 O 0.3395(2) 0.5139(2) 0.5376(4)
O4 O 0.6263(3) 0.4026(2) 0.6949(5)
Pr1 Pr 0.5000 0.46893(2) 0.7500
C1F C 0.0642(3) 0.1529(3) -1.4332(5)
C2F C 0.0857(3) 0.2392(3) -1.3481(5)
C3F C 0.0783(3) 0.3144(3) -1.4381(6)
C4F C 0.0975(4) 0.3947(3) -1.3646(6)
C5F C 0.1262(4) 0.4013(3) -1.2018(6)
C6F C 0.1348(3) 0.3271(3) -1.1110(5)
C7F C 0.1688(3) 0.3356(3) -0.9371(5)
C8F C 0.1127(3) 0.2458(3) -1.1860(6)
H1F H 0.119(3) 0.195(3) -1.126(5)
H2F H 0.058(3) 0.308(3) -1.550(5)
H3F H 0.090(3) 0.438(3) -1.422(6)
H4F H 0.136(3) 0.453(3) -1.155(6)
H5A H 0.689(4) 0.533(3) 0.915(7)
H6A H 0.352(4) 0.424(4) 0.858(7)
H7A H 0.680(4) 0.482(4) 1.010(7)
H8A H 0.366(4) 0.354(4) 0.813(7)
N1F N 0.2122(3) 0.4070(2) -0.8576(4)
N2F N 0.2357(3) 0.3898(3) -0.7049(5)
N3F N 0.2071(3) 0.3104(3) -0.6933(5)
N4F N 0.1651(3) 0.2743(2) -0.8389(5)
O1F O 0.0638(2) 0.1510(2) -1.5676(4)
O1A O 0.5638(2) 0.3490(2) 0.9324(4)
O2F O 0.0482(2) 0.0872(2) -1.3663(4)
O2D O 0.5482(2) 0.5872(2) 0.6337(4)
O2E O 0.4518(2) 0.5872(2) 0.8663(4)
O3A O 0.6605(2) 0.5139(2) 0.9624(4)
O4A O 0.3737(3) 0.4026(2) 0.8051(5)
Pr1D Pr 0.5000 0.53107(2) 0.2500
Pr1F Pr 0.0000 0.03107(2) -1.7500
Pr1B Pr 0.0000 -0.03107(2) -1.2500
loop_
_geom_bond_atom_site_label_1
_geom_bond_atom_site_label_2
_geom_bond_site_symmetry_1
_geom_bond_site_symmetry_2
C1 C2 1_555 1_555
C2 C3 1_555 1_555
C3 C4 1_555 1_555
C4 C5 1_555 1_555
C5 C6 1_555 1_555
C6 C7 1_555 1_555
C7 N1 1_555 1_555
C8 C2 1_555 1_555
Cu1 N3 1_555 1_555
H1 C8 1_555 1_555
H2 C3 1_555 1_555
H3 C4 1_555 1_555
H4 C5 1_555 1_555
H5 O3 1_555 1_555
H6 O4 1_555 1_555
H7 O3 1_555 1_555
H8 O4 1_555 1_555
N1 N2 1_555 1_555
N2 N3 1_555 1_555
N3 N4 1_555 1_555
N4 C7 1_555 1_555
O1 C1 1_555 1_555
O2 C1 1_555 1_555
O3 Pr1 1_555 1_555
O4 Pr1 1_555 1_555
Pr1 O1 1_555 1_555
C1F C2F 1_555 1_555
C2F C3F 1_555 1_555
C3F C4F 1_555 1_555
C4F C5F 1_555 1_555
C5F C6F 1_555 1_555
C6F C7F 1_555 1_555
C7F N1F 1_555 1_555
C8F C2F 1_555 1_555
H1F C8F 1_555 1_555
H2F C3F 1_555 1_555
H3F C4F 1_555 1_555
H4F C5F 1_555 1_555
H5A O3A 1_555 1_555
H6A O4A 1_555 1_555
H7A O3A 1_555 1_555
H8A O4A 1_555 1_555
N1F N2F 1_555 1_555
N2F N3F 1_555 1_555
N3F Cu1 1_555 1_555
N4F C7F 1_555 1_555
O1F C1F 1_555 1_555
O1A Pr1 1_555 1_555
O2F C1F 1_555 1_555
O2D Pr1 1_555 1_555
O2E Pr1 1_555 1_555
O3A Pr1 1_555 1_555
O4A Pr1 1_555 1_555
Pr1D O2 1_555 1_555
Pr1F O1F 1_555 1_555
Pr1B O2F 1_555 1_555
C6 C8 1_555 1_555
C6F C8F 1_555 1_555
N3F N4F 1_555 1_555

#END
