
#######################################################################
#
#                 Cambridge Crystallographic Data Centre
#                                CCDC 
#
#######################################################################
#
# If this CIF has been generated from an entry in the Cambridge 
# Structural Database, then it will include bibliographic, chemical, 
# crystal, experimental, refinement or atomic coordinate data resulting 
# from the CCDC's data processing and validation procedures.
#
#######################################################################

data_TEJQOQ
_symmetry_cell_setting           triclinic
_symmetry_space_group_name_H-M   'P -1'
_symmetry_Int_Tables_number      2
_space_group_name_Hall           '-P 1'
loop_
_symmetry_equiv_pos_site_id
_symmetry_equiv_pos_as_xyz
1 x,y,z
2 -x,-y,-z
_cell_length_a                   7.9036(14)
_cell_length_b                   11.744(2)
_cell_length_c                   16.666(3)
_cell_angle_alpha                96.861(3)
_cell_angle_beta                 96.552(3)
_cell_angle_gamma                94.495(4)
_cell_volume                     1519.18
loop_
_atom_site_label
_atom_site_type_symbol
_atom_site_fract_x
_atom_site_fract_y
_atom_site_fract_z
Zn1 Zn 0.06402(6) 0.81427(4) 0.67624(2)
C1 C -0.1878(7) 0.5960(4) 0.6894(3)
H1 H -0.1678 0.6198 0.7452
C2 C -0.2962(7) 0.4984(4) 0.6613(3)
H2 H -0.3500 0.4576 0.6972
C3 C -0.3232(6) 0.4626(4) 0.5791(3)
H3 H -0.3953 0.3967 0.5585
C4 C -0.2422(6) 0.5256(4) 0.5272(3)
H4 H -0.2585 0.5024 0.4713
C5 C -0.1368(5) 0.6233(3) 0.5596(2)
C6 C -0.0485(5) 0.6990(3) 0.5090(2)
C7 C -0.0584(6) 0.6791(4) 0.4251(2)
H5 H -0.1207 0.6132 0.3968
C8 C 0.0238(5) 0.7569(3) 0.3828(2)
C9 C 0.1167(5) 0.8539(4) 0.4283(2)
H6 H 0.1730 0.9087 0.4023
C10 C 0.1242(5) 0.8680(3) 0.5122(2)
C11 C 0.2210(5) 0.9678(3) 0.5658(2)
C12 C 0.3167(6) 1.0541(4) 0.5381(3)
H7 H 0.3223 1.0536 0.4827
C13 C 0.4039(7) 1.1408(4) 0.5929(3)
H8 H 0.4685 1.2003 0.5751
C14 C 0.3948(7) 1.1392(4) 0.6742(3)
H9 H 0.4545 1.1967 0.7125
C15 C 0.2965(7) 1.0515(4) 0.6981(3)
H10 H 0.2889 1.0516 0.7534
C16 C 0.0132(6) 0.7389(4) 0.2924(2)
C17 C -0.0480(9) 0.6371(5) 0.2472(3)
H11 H -0.0827 0.5753 0.2735
C18 C 0.0587(10) 0.8254(5) 0.2505(4)
H12 H 0.0996 0.8970 0.2791
C19 C -0.0601(9) 0.6227(5) 0.1639(3)
H13 H -0.1037 0.5520 0.1347
C20 C 0.0466(9) 0.8112(5) 0.1659(3)
H14 H 0.0779 0.8728 0.1388
C21 C -0.0099(7) 0.7092(4) 0.1238(3)
C22 C -0.1075(8) 0.6157(6) -0.0180(3)
H15 H -0.1694 0.5508 -0.0056
C23 C 0.0078(8) 0.7349(5) -0.0788(3)
H16 H 0.0439 0.7715 -0.1212
C24 C -0.2164(7) 0.8958(4) 0.7340(3)
C25 C -0.3407(6) 0.9150(4) 0.7944(3)
H17 H -0.4564 0.9117 0.7752
C26 C -0.2939(6) 0.9363(4) 0.8732(3)
H18 H -0.1786 0.9323 0.8903
C27 C -0.4011(6) 0.9655(4) 0.9375(3)
C28 C -0.5787(7) 0.9649(4) 0.9220(3)
H19 H -0.6331 0.9410 0.8695
C29 C -0.3257(7) 1.0011(5) 1.0172(3)
H20 H -0.2079 1.0017 1.0294
C30 C 0.2950(6) 0.6578(4) 0.7293(3)
C31 C 0.3738(8) 0.5983(6) 0.7956(3)
H21 H 0.4145 0.5280 0.7797
C32 C 0.3916(9) 0.6312(6) 0.8691(4)
H22 H 0.3639 0.7056 0.8843
C33 C 0.4531(10) 0.5656(8) 0.9382(5)
C34 C 0.4974(10) 0.4512(8) 0.9205(5)
H23 H 0.4934 0.4183 0.8666
C35 C 0.4515(11) 0.6141(9) 1.0147(5)
H24 H 0.4182 0.6880 1.0258
N1 N -0.1102(5) 0.6577(3) 0.6396(2)
N2 N 0.0424(4) 0.7924(3) 0.55113(18)
N3 N 0.2116(5) 0.9663(3) 0.64624(19)
N4 N -0.0250(6) 0.6978(4) 0.0373(2)
N5 N 0.0519(8) 0.7771(5) -0.0024(3)
N6 N -0.0915(8) 0.6368(5) -0.0920(2)
O1 O -0.0636(4) 0.8822(3) 0.76149(17)
O2 O -0.2653(4) 0.8983(3) 0.66097(18)
O3 O 0.2421(4) 0.7566(3) 0.74833(17)
O4 O 0.2799(5) 0.6064(3) 0.6596(2)
Zn1A Zn -1.06402(6) 1.18573(4) 1.32376(2)
Zn1A_2 Zn 0.93598(6) 0.18573(4) 1.32376(2)
C1A C -0.8122(7) 1.4040(4) 1.3106(3)
H1A H -0.8322 1.3802 1.2548
C2A C -0.7038(7) 1.5016(4) 1.3387(3)
H2A H -0.6500 1.5424 1.3028
C3A C -0.6768(6) 1.5374(4) 1.4209(3)
H3A H -0.6047 1.6033 1.4415
C4A C -0.7578(6) 1.4744(4) 1.4728(3)
H4A H -0.7415 1.4976 1.5287
C5A C -0.8632(5) 1.3767(3) 1.4404(2)
C6A C -0.9515(5) 1.3010(3) 1.4910(2)
C7A C -0.9416(6) 1.3209(4) 1.5749(2)
H5A H -0.8793 1.3868 1.6032
C8A C -1.0238(5) 1.2431(3) 1.6172(2)
C9A C -1.1167(5) 1.1461(4) 1.5717(2)
H6A H -1.1730 1.0913 1.5977
C10A C -1.1242(5) 1.1320(3) 1.4878(2)
C11A C -1.2210(5) 1.0322(3) 1.4342(2)
C12A C -1.3167(6) 0.9459(4) 1.4619(3)
H7A H -1.3223 0.9464 1.5173
C13A C -1.4039(7) 0.8592(4) 1.4071(3)
H8A H -1.4685 0.7997 1.4249
C14A C -1.3948(7) 0.8608(4) 1.3258(3)
H9A H -1.4545 0.8033 1.2875
C15A C -1.2965(7) 0.9485(4) 1.3019(3)
H10A H -1.2889 0.9484 1.2466
C16A C -1.0132(6) 1.2611(4) 1.7076(2)
C17A C -0.9520(9) 1.3629(5) 1.7528(3)
H11A H -0.9173 1.4247 1.7265
C18A C -1.0587(10) 1.1746(5) 1.7495(4)
H12A H -1.0996 1.1030 1.7209
C19A C -0.9399(9) 1.3773(5) 1.8361(3)
H13A H -0.8963 1.4480 1.8653
C20A C -1.0466(9) 1.1888(5) 1.8341(3)
H14A H -1.0779 1.1272 1.8612
C21A C -0.9901(7) 1.2908(4) 1.8762(3)
C22A C -0.8925(8) 1.3843(6) 2.0180(3)
H15A H -0.8306 1.4492 2.0056
C23A C -1.0078(8) 1.2651(5) 2.0788(3)
H16A H -1.0439 1.2285 2.1212
C24A C -0.7836(7) 1.1042(4) 1.2660(3)
C25A C -0.6593(6) 1.0850(4) 1.2056(3)
H17A H -0.5436 1.0883 1.2248
C26A C -0.7061(6) 1.0637(4) 1.1268(3)
H18A H -0.8214 1.0677 1.1097
C27A C -0.5989(6) 1.0345(4) 1.0625(3)
C28A C -0.4213(7) 1.0351(4) 1.0780(3)
H19A H -0.3669 1.0590 1.1305
C29A C -0.6743(7) 0.9989(5) 0.9828(3)
H20A H -0.7921 0.9983 0.9706
C30A C 0.7050(6) 0.3422(4) 1.2707(3)
C31A C 0.6262(8) 0.4017(6) 1.2044(3)
H21A H 0.5855 0.4720 1.2203
C32A C 0.6084(9) 0.3688(6) 1.1309(4)
H22A H 0.6361 0.2944 1.1157
C33A C 0.5469(10) 0.4344(8) 1.0618(5)
C34A C 0.5026(10) 0.5488(8) 1.0795(5)
H23A H 0.5066 0.5817 1.1334
C35A C 0.5485(11) 0.3859(9) 0.9853(5)
H24A H 0.5818 0.3120 0.9742
N1A N -0.8898(5) 1.3423(3) 1.3604(2)
N2A N -1.0424(4) 1.2076(3) 1.44887(18)
N3A N -1.2116(5) 1.0337(3) 1.35376(19)
N4A N -0.9750(6) 1.3022(4) 1.9627(2)
N5A N -1.0519(8) 1.2229(5) 2.0024(3)
N6A N -0.9085(8) 1.3632(5) 2.0920(2)
O1A O -0.9364(4) 1.1178(3) 1.23851(17)
O2A O -0.7347(4) 1.1017(3) 1.33903(18)
O3A O 0.7579(4) 0.2434(3) 1.25167(17)
O3A_2 O -1.2421(4) 1.2434(3) 1.25167(17)
O4A O 0.7201(5) 0.3936(3) 1.3404(2)
O5 O 0.4673(5) 0.7515(3) 0.5639(2)
H25 H 0.4147 0.7473 0.6053
H26 H 0.5449 0.8059 0.5641
loop_
_geom_bond_atom_site_label_1
_geom_bond_atom_site_label_2
_geom_bond_site_symmetry_1
_geom_bond_site_symmetry_2
Zn1 N1 1_555 1_555
C1 H1 1_555 1_555
C2 C1 1_555 1_555
H2 C2 1_555 1_555
C3 C2 1_555 1_555
H3 C3 1_555 1_555
C4 C3 1_555 1_555
H4 C4 1_555 1_555
C5 C4 1_555 1_555
C6 C5 1_555 1_555
C7 C6 1_555 1_555
H5 C7 1_555 1_555
C8 C7 1_555 1_555
C9 C8 1_555 1_555
H6 C9 1_555 1_555
C10 C9 1_555 1_555
C11 C10 1_555 1_555
C12 C11 1_555 1_555
H7 C12 1_555 1_555
C13 C12 1_555 1_555
H8 C13 1_555 1_555
C14 C13 1_555 1_555
H9 C14 1_555 1_555
C15 C14 1_555 1_555
H10 C15 1_555 1_555
C16 C8 1_555 1_555
C17 C16 1_555 1_555
H11 C17 1_555 1_555
C18 C16 1_555 1_555
H12 C18 1_555 1_555
C19 C17 1_555 1_555
H13 C19 1_555 1_555
C20 C18 1_555 1_555
H14 C20 1_555 1_555
C21 C19 1_555 1_555
C22 H15 1_555 1_555
C23 H16 1_555 1_555
C24 C25 1_555 1_555
C25 H17 1_555 1_555
C26 C25 1_555 1_555
H18 C26 1_555 1_555
C27 C26 1_555 1_555
C28 C27 1_555 1_555
H19 C28 1_555 1_555
C29 C27 1_555 1_555
H20 C29 1_555 1_555
C30 C31 1_555 1_555
C31 H21 1_555 1_555
C32 C31 1_555 1_555
H22 C32 1_555 1_555
C33 C32 1_555 1_555
C34 C33 1_555 1_555
H23 C34 1_555 1_555
C35 C33 1_555 1_555
H24 C35 1_555 1_555
N1 C1 1_555 1_555
N2 Zn1 1_555 1_555
N3 Zn1 1_555 1_555
N4 C21 1_555 1_555
N5 C23 1_555 1_555
N6 C22 1_555 1_555
O1 Zn1 1_555 1_555
O2 C24 1_555 1_555
O3 Zn1 1_555 1_555
O4 C30 1_555 1_555
O5 H25 1_555 1_555
H26 O5 1_555 1_555
Zn1A N1A 1_555 1_555
Zn1A_2 O3A 1_555 1_555
C1A H1A 1_555 1_555
C2A C1A 1_555 1_555
H2A C2A 1_555 1_555
C3A C2A 1_555 1_555
H3A C3A 1_555 1_555
C4A C3A 1_555 1_555
H4A C4A 1_555 1_555
C5A C4A 1_555 1_555
C6A C5A 1_555 1_555
C7A C6A 1_555 1_555
H5A C7A 1_555 1_555
C8A C7A 1_555 1_555
C9A C8A 1_555 1_555
H6A C9A 1_555 1_555
C10A C9A 1_555 1_555
C11A C10A 1_555 1_555
C12A C11A 1_555 1_555
H7A C12A 1_555 1_555
C13A C12A 1_555 1_555
H8A C13A 1_555 1_555
C14A C13A 1_555 1_555
H9A C14A 1_555 1_555
C15A C14A 1_555 1_555
H10A C15A 1_555 1_555
C16A C8A 1_555 1_555
C17A C16A 1_555 1_555
H11A C17A 1_555 1_555
C18A C16A 1_555 1_555
H12A C18A 1_555 1_555
C19A C17A 1_555 1_555
H13A C19A 1_555 1_555
C20A C18A 1_555 1_555
H14A C20A 1_555 1_555
C21A C19A 1_555 1_555
C22A H15A 1_555 1_555
C23A H16A 1_555 1_555
C24A C25A 1_555 1_555
C25A H17A 1_555 1_555
C26A C25A 1_555 1_555
H18A C26A 1_555 1_555
C27A C26A 1_555 1_555
C28A C29 1_555 1_555
H19A C28A 1_555 1_555
C29A C28 1_555 1_555
H20A C29A 1_555 1_555
C30A C31A 1_555 1_555
C31A H21A 1_555 1_555
C32A C31A 1_555 1_555
H22A C32A 1_555 1_555
C33A C32A 1_555 1_555
C34A C35 1_555 1_555
H23A C34A 1_555 1_555
C35A C34 1_555 1_555
H24A C35A 1_555 1_555
N1A C1A 1_555 1_555
N2A Zn1A 1_555 1_555
N3A Zn1A 1_555 1_555
N4A C21A 1_555 1_555
N5A C23A 1_555 1_555
N6A C22A 1_555 1_555
O1A Zn1A 1_555 1_555
O2A C24A 1_555 1_555
O3A C30A 1_555 1_555
O3A_2 Zn1A 1_555 1_555
O4A C30A 1_555 1_555
C5 N1 1_555 1_555
C6 N2 1_555 1_555
C10 N2 1_555 1_555
C11 N3 1_555 1_555
C15 N3 1_555 1_555
C20 C21 1_555 1_555
C22 N4 1_555 1_555
C23 N6 1_555 1_555
C24 O1 1_555 1_555
C30 O3 1_555 1_555
N4 N5 1_555 1_555
C5A N1A 1_555 1_555
C6A N2A 1_555 1_555
C10A N2A 1_555 1_555
C11A N3A 1_555 1_555
C15A N3A 1_555 1_555
C20A C21A 1_555 1_555
C22A N4A 1_555 1_555
C23A N6A 1_555 1_555
C24A O1A 1_555 1_555
C27A C28A 1_555 1_555
C27A C29A 1_555 1_555
C33A C34A 1_555 1_555
C33A C35A 1_555 1_555
N4A N5A 1_555 1_555

#END
