
#######################################################################
#
#                 Cambridge Crystallographic Data Centre
#                                CCDC 
#
#######################################################################
#
# If this CIF has been generated from an entry in the Cambridge 
# Structural Database, then it will include bibliographic, chemical, 
# crystal, experimental, refinement or atomic coordinate data resulting 
# from the CCDC's data processing and validation procedures.
#
#######################################################################

data_TEJQEG
_symmetry_cell_setting           triclinic
_symmetry_space_group_name_H-M   'P -1'
_symmetry_Int_Tables_number      2
_space_group_name_Hall           '-P 1'
loop_
_symmetry_equiv_pos_site_id
_symmetry_equiv_pos_as_xyz
1 x,y,z
2 -x,-y,-z
_cell_length_a                   8.505(3)
_cell_length_b                   11.136(4)
_cell_length_c                   13.465(4)
_cell_angle_alpha                104.846(12)
_cell_angle_beta                 94.273(11)
_cell_angle_gamma                90.621(13)
_cell_volume                     1228.7
loop_
_atom_site_label
_atom_site_type_symbol
_atom_site_fract_x
_atom_site_fract_y
_atom_site_fract_z
Cu1 Cu 0.98507(3) 0.23055(2) 0.774723(17)
O1 O 1.14325(17) 0.33967(13) 0.86170(11)
O2 O 1.31201(18) 0.19488(13) 0.88293(12)
N1 N 0.8971(2) 0.14039(15) 0.87192(12)
N2 N 0.85794(18) 0.10158(14) 0.67712(12)
N3 N 1.03020(19) 0.27076(15) 0.64013(12)
N4 N 0.28361(19) -0.44993(15) 0.25174(12)
N5 N 0.1677(2) -0.41469(16) 0.19032(13)
N6 N 0.1694(2) -0.62339(17) 0.15892(15)
C1 C 0.9222(3) 0.1710(2) 0.97462(15)
H3 H 0.9944 0.2376 1.0070
C2 C 0.8473(3) 0.1094(2) 1.03537(16)
H4 H 0.8671 0.1337 1.1082
C3 C 0.7428(3) 0.0120(2) 0.98864(16)
H5 H 0.6891 -0.0312 1.0290
C4 C 0.7173(3) -0.0219(2) 0.88183(15)
H6 H 0.6469 -0.0893 0.8481
C5 C 0.7954(2) 0.04370(18) 0.82568(14)
C6 C 0.7766(2) 0.01977(17) 0.71199(14)
C7 C 0.6823(2) -0.07298(17) 0.64459(14)
H7 H 0.6230 -0.1299 0.6700
C8 C 0.6757(2) -0.08179(17) 0.53811(13)
C9 C 0.7637(2) 0.00534(17) 0.50487(14)
H8 H 0.7616 0.0021 0.4336
C10 C 0.8535(2) 0.09613(17) 0.57650(14)
C11 C 0.9494(2) 0.19724(17) 0.55480(14)
C12 C 0.9552(2) 0.21826(19) 0.45859(15)
H9 H 0.8987 0.1651 0.4000
C13 C 1.0457(3) 0.3190(2) 0.44913(17)
H10 H 1.0520 0.3359 0.3838
C14 C 1.1260(3) 0.3938(2) 0.53591(17)
H11 H 1.1879 0.4633 0.5311
C15 C 1.1162(2) 0.36728(19) 0.63007(16)
H12 H 1.1724 0.4193 0.6894
C16 C 0.5753(2) -0.17922(17) 0.46339(13)
C17 C 0.5062(2) -0.27672(18) 0.49381(14)
H13 H 0.5248 -0.2818 0.5631
C18 C 0.4106(2) -0.36656(18) 0.42424(15)
H14 H 0.3635 -0.4324 0.4458
C19 C 0.3846(2) -0.35938(17) 0.32336(14)
C20 C 0.4536(2) -0.26440(18) 0.29063(14)
H15 H 0.4355 -0.2604 0.2211
C21 C 0.5492(2) -0.17555(18) 0.36041(14)
H16 H 0.5979 -0.1110 0.3380
C22 C 0.2819(3) -0.5739(2) 0.23154(17)
H17 H 0.3517 -0.6200 0.2648
C23 C 0.1033(3) -0.5230(2) 0.13741(16)
H18 H 0.0163 -0.5294 0.0876
C24 C 1.3906(2) 0.40643(17) 0.94976(14)
C25 C 1.3732(2) 0.52610(19) 0.93860(15)
H19 H 1.2865 0.5441 0.8966
C26 C 1.5176(2) 0.38060(18) 1.01127(15)
H20 H 1.5298 0.2987 1.0190
C27 C 1.2751(2) 0.30321(18) 0.89448(13)
Cu1A Cu 2.01493(3) 0.76945(2) 1.225277(17)
Cu1A_2 Cu 0.01493(3) -0.23055(2) 0.225277(17)
Cu1_2 Cu 2.98507(3) 1.23055(2) 1.774723(17)
O1A O 1.85675(17) 0.66033(13) 1.13830(11)
O2A O 1.68799(18) 0.80512(13) 1.11707(12)
N1A N 2.1029(2) 0.85961(15) 1.12808(12)
N2A N 2.14206(18) 0.89842(14) 1.32288(12)
N3A N 1.96980(19) 0.72924(15) 1.35987(12)
N4A N 2.71639(19) 1.44993(15) 1.74826(12)
N5A N 0.8323(2) 0.41469(16) 0.80968(13)
N5_2 N 2.1677(2) 0.58531(16) 1.19032(13)
N5A_2 N 2.8323(2) 1.41469(16) 1.80968(13)
N6A N 2.8306(2) 1.62339(17) 1.84108(15)
C1A C 2.0778(3) 0.8290(2) 1.02538(15)
H3A H 2.0056 0.7624 0.9930
C2A C 2.1527(3) 0.8906(2) 0.96463(16)
H4A H 2.1329 0.8663 0.8918
C3A C 2.2572(3) 0.9880(2) 1.01136(16)
H5A H 2.3109 1.0312 0.9710
C4A C 2.2827(3) 1.0219(2) 1.11817(15)
H6A H 2.3531 1.0893 1.1519
C5A C 2.2046(2) 0.95630(18) 1.17432(14)
C6A C 2.2234(2) 0.98023(17) 1.28801(14)
C7A C 2.3177(2) 1.07298(17) 1.35541(14)
H7A H 2.3770 1.1299 1.3300
C8A C 2.3243(2) 1.08179(17) 1.46189(13)
C9A C 2.2363(2) 0.99466(17) 1.49513(14)
H8A H 2.2384 0.9979 1.5664
C10A C 2.1465(2) 0.90387(17) 1.42350(14)
C11A C 2.0506(2) 0.80276(17) 1.44520(14)
C12A C 2.0448(2) 0.78174(19) 1.54141(15)
H9A H 2.1013 0.8349 1.6000
C13A C 1.9543(3) 0.6810(2) 1.55087(17)
H10A H 1.9480 0.6641 1.6162
C14A C 1.8740(3) 0.6062(2) 1.46409(17)
H11A H 1.8121 0.5367 1.4689
C15A C 1.8838(2) 0.63272(19) 1.36993(16)
H12A H 1.8276 0.5807 1.3106
C16A C 2.4247(2) 1.17922(17) 1.53661(13)
C17A C 2.4938(2) 1.27672(18) 1.50619(14)
H13A H 2.4752 1.2818 1.4369
C18A C 2.5894(2) 1.36656(18) 1.57576(15)
H14A H 2.6365 1.4324 1.5542
C19A C 2.6154(2) 1.35938(17) 1.67664(14)
C20A C 2.5464(2) 1.26440(18) 1.70937(14)
H15A H 2.5645 1.2604 1.7789
C21A C 2.4508(2) 1.17555(18) 1.63959(14)
H16A H 2.4021 1.1110 1.6620
C22A C 2.7181(3) 1.5739(2) 1.76846(17)
H17A H 2.6483 1.6200 1.7352
C23A C 2.8967(3) 1.5230(2) 1.86259(16)
H18A H 2.9837 1.5294 1.9124
C24A C 1.6094(2) 0.59357(17) 1.05024(14)
C25A C 1.6268(2) 0.47390(19) 1.06140(15)
H19A H 1.7135 0.4559 1.1034
C26A C 1.4824(2) 0.61940(18) 0.98873(15)
H20A H 1.4702 0.7013 0.9810
C27A C 1.7249(2) 0.69679(18) 1.10552(13)
O3 O 0.61543(19) 0.40995(15) 0.33459(13)
O4 O 0.8060(2) 0.31879(18) 0.25137(14)
O5 O 0.5851(2) 0.21869(16) 0.24836(14)
N7 N 0.6704(2) 0.31650(16) 0.27796(13)
O6 O 0.7824(3) 0.01665(18) 0.26265(13)
H1 H 0.759(4) -0.038(3) 0.220(3)
H2 H 0.710(4) 0.071(3) 0.252(2)
loop_
_geom_bond_atom_site_label_1
_geom_bond_atom_site_label_2
_geom_bond_site_symmetry_1
_geom_bond_site_symmetry_2
Cu1 O1 1_555 1_555
O1 C27 1_555 1_555
O2 C27 1_555 1_555
O3 N7 1_555 1_555
O4 N7 1_555 1_555
O5 N7 1_555 1_555
O6 H1 1_555 1_555
H2 O6 1_555 1_555
N1 Cu1 1_555 1_555
N2 Cu1 1_555 1_555
N3 Cu1 1_555 1_555
N4 N5 1_555 1_555
N5 C23 1_555 1_555
N6 C22 1_555 1_555
C1 N1 1_555 1_555
H3 C1 1_555 1_555
C2 C1 1_555 1_555
H4 C2 1_555 1_555
C3 C2 1_555 1_555
H5 C3 1_555 1_555
C4 C3 1_555 1_555
H6 C4 1_555 1_555
C5 N1 1_555 1_555
C6 N2 1_555 1_555
C7 C6 1_555 1_555
H7 C7 1_555 1_555
C8 C7 1_555 1_555
C9 C8 1_555 1_555
H8 C9 1_555 1_555
C10 N2 1_555 1_555
C11 N3 1_555 1_555
C12 C11 1_555 1_555
H9 C12 1_555 1_555
C13 C12 1_555 1_555
H10 C13 1_555 1_555
C14 C13 1_555 1_555
H11 C14 1_555 1_555
C15 N3 1_555 1_555
H12 C15 1_555 1_555
C16 C8 1_555 1_555
C17 C16 1_555 1_555
H13 C17 1_555 1_555
C18 C17 1_555 1_555
H14 C18 1_555 1_555
C19 N4 1_555 1_555
C20 C19 1_555 1_555
H15 C20 1_555 1_555
C21 C16 1_555 1_555
H16 C21 1_555 1_555
C22 N4 1_555 1_555
H17 C22 1_555 1_555
C23 N6 1_555 1_555
H18 C23 1_555 1_555
C24 C25 1_555 1_555
C25 H19 1_555 1_555
C26 C24 1_555 1_555
H20 C26 1_555 1_555
C27 C24 1_555 1_555
Cu1A O1A 1_555 1_555
Cu1A_2 N5 1_555 1_555
Cu1_2 N5A_2 1_555 1_555
O1A C27A 1_555 1_555
O2A C27A 1_555 1_555
N1A Cu1A 1_555 1_555
N2A Cu1A 1_555 1_555
N3A Cu1A 1_555 1_555
N4A N5A_2 1_555 1_555
N5A Cu1 1_555 1_555
N5_2 Cu1A 1_555 1_555
N5A_2 C23A 1_555 1_555
N6A C22A 1_555 1_555
C1A N1A 1_555 1_555
H3A C1A 1_555 1_555
C2A C1A 1_555 1_555
H4A C2A 1_555 1_555
C3A C2A 1_555 1_555
H5A C3A 1_555 1_555
C4A C3A 1_555 1_555
H6A C4A 1_555 1_555
C5A N1A 1_555 1_555
C6A N2A 1_555 1_555
C7A C6A 1_555 1_555
H7A C7A 1_555 1_555
C8A C7A 1_555 1_555
C9A C8A 1_555 1_555
H8A C9A 1_555 1_555
C10A N2A 1_555 1_555
C11A N3A 1_555 1_555
C12A C11A 1_555 1_555
H9A C12A 1_555 1_555
C13A C12A 1_555 1_555
H10A C13A 1_555 1_555
C14A C13A 1_555 1_555
H11A C14A 1_555 1_555
C15A N3A 1_555 1_555
H12A C15A 1_555 1_555
C16A C8A 1_555 1_555
C17A C16A 1_555 1_555
H13A C17A 1_555 1_555
C18A C17A 1_555 1_555
H14A C18A 1_555 1_555
C19A N4A 1_555 1_555
C20A C19A 1_555 1_555
H15A C20A 1_555 1_555
C21A C16A 1_555 1_555
H16A C21A 1_555 1_555
C22A N4A 1_555 1_555
H17A C22A 1_555 1_555
C23A N6A 1_555 1_555
H18A C23A 1_555 1_555
C24A C25A 1_555 1_555
C25A C26 1_555 1_555
H19A C25A 1_555 1_555
C26A C25 1_555 1_555
H20A C26A 1_555 1_555
C27A C24A 1_555 1_555
C4 C5 1_555 1_555
C5 C6 1_555 1_555
C9 C10 1_555 1_555
C10 C11 1_555 1_555
C14 C15 1_555 1_555
C18 C19 1_555 1_555
C20 C21 1_555 1_555
C4A C5A 1_555 1_555
C5A C6A 1_555 1_555
C9A C10A 1_555 1_555
C10A C11A 1_555 1_555
C14A C15A 1_555 1_555
C18A C19A 1_555 1_555
C20A C21A 1_555 1_555
C24A C26A 1_555 1_555

#END
