
#######################################################################
#
#                 Cambridge Crystallographic Data Centre
#                                CCDC 
#
#######################################################################
#
# If this CIF has been generated from an entry in the Cambridge 
# Structural Database, then it will include bibliographic, chemical, 
# crystal, experimental, refinement or atomic coordinate data resulting 
# from the CCDC's data processing and validation procedures.
#
#######################################################################

data_TEJROR
_symmetry_cell_setting           monoclinic
_symmetry_space_group_name_H-M   'C 2/c'
_symmetry_Int_Tables_number      15
_space_group_name_Hall           '-C 2yn'
loop_
_symmetry_equiv_pos_site_id
_symmetry_equiv_pos_as_xyz
1 x,y,z
2 -x,y,1/2-z
3 1/2+x,1/2+y,z
4 1/2-x,1/2+y,1/2-z
5 -x,-y,-z
6 x,-y,1/2+z
7 1/2-x,1/2-y,-z
8 1/2+x,1/2-y,1/2+z
_cell_length_a                   27.880(4)
_cell_length_b                   14.051(2)
_cell_length_c                   9.0596(13)
_cell_angle_alpha                90
_cell_angle_beta                 98.494(3)
_cell_angle_gamma                90
_cell_volume                     3510.1
loop_
_atom_site_label
_atom_site_type_symbol
_atom_site_fract_x
_atom_site_fract_y
_atom_site_fract_z
O1 O 0.51706(12) 0.1704(2) 0.4948(4)
H1 H 0.4969(15) 0.202(4) 0.442(6)
H2 H 0.5406(14) 0.204(3) 0.504(6)
C1 C 0.74452(19) 0.2854(4) 1.2833(6)
H3 H 0.7523 0.3352 1.3500
C2 C 0.77977(18) 0.2263(4) 1.2469(5)
H4 H 0.8119 0.2354 1.2898
C3 C 0.71761(16) 0.1409(3) 1.0843(5)
C4 C 0.76769(16) 0.1511(3) 1.1440(5)
C5 C 0.73749(16) 0.0055(3) 0.9409(5)
H5 H 0.7282 -0.0431 0.8731
C6 C 0.80166(17) 0.0864(4) 1.1013(6)
H6 H 0.8342 0.0916 1.1416
C7 C 0.69655(18) 0.2695(3) 1.2183(5)
H7 H 0.6729 0.3103 1.2445
C8 C 0.78723(16) 0.0167(4) 1.0022(6)
H8 H 0.8102 -0.0247 0.9733
N1 N 0.68234(13) 0.2008(3) 1.1227(4)
C9 C 0.70348(15) 0.0660(3) 0.9814(5)
C10 C 0.58317(15) -0.0002(3) 0.7783(5)
C11 C 0.63626(16) -0.0213(3) 0.8479(5)
H9 H 0.6557 -0.0343 0.7685
O2 O 0.55979(10) 0.0626(2) 0.8347(3)
Na1 Na 0.59783(6) 0.16834(12) 1.01757(19)
O3 O 0.56721(11) -0.0535(2) 0.6715(3)
C12 C 0.63748(18) -0.1066(3) 0.9500(6)
H10 H 0.6704 -0.1200 0.9922
H11 H 0.6239 -0.1607 0.8940
H12 H 0.6188 -0.0932 1.0286
O4 O 0.55922(15) 0.2838(3) 1.1582(5)
H13 H 0.568(2) 0.301(4) 1.243(4)
H14 H 0.558(3) 0.334(3) 1.112(6)
Na2 Na 0.5000 0.17358(17) 0.7500
O5 O 0.56607(14) 0.2832(3) 0.8248(4)
H15 H 0.577(2) 0.296(4) 0.749(5)
H16 H 0.563(2) 0.335(3) 0.861(6)
Na3 Na 0.5000 0.0000 0.5000
O6 O 0.65480(10) 0.0624(2) 0.9300(3)
O1A O 0.48294(12) 0.1704(2) 1.0052(4)
O1D O 0.48294(12) -0.1704(2) 0.5052(4)
H1A H 0.5031(15) 0.202(4) 1.058(6)
H1D H 0.5031(15) -0.202(4) 0.558(6)
H2A H 0.4594(14) 0.204(3) 0.996(6)
H2D H 0.4594(14) -0.204(3) 0.496(6)
C1A C 0.25548(19) 0.2854(4) 0.2167(6)
H3A H 0.2477 0.3352 0.1500
C2A C 0.22023(18) 0.2263(4) 0.2531(5)
H4A H 0.1881 0.2354 0.2102
C3A C 0.28239(16) 0.1409(3) 0.4157(5)
C4A C 0.23231(16) 0.1511(3) 0.3560(5)
C5A C 0.26251(16) 0.0055(3) 0.5591(5)
H5A H 0.2718 -0.0431 0.6269
C6A C 0.19834(17) 0.0864(4) 0.3987(6)
H6A H 0.1658 0.0916 0.3584
C7A C 0.30345(18) 0.2695(3) 0.2817(5)
H7A H 0.3271 0.3103 0.2555
C8A C 0.21277(16) 0.0167(4) 0.4978(6)
H8A H 0.1898 -0.0247 0.5267
N1A N 0.31766(13) 0.2008(3) 0.3773(4)
C9A C 0.29652(15) 0.0660(3) 0.5186(5)
C10A C 0.41683(15) -0.0002(3) 0.7217(5)
C11A C 0.36374(16) -0.0213(3) 0.6521(5)
H9A H 0.3443 -0.0343 0.7315
O2A O 0.44021(10) 0.0626(2) 0.6653(3)
O2E O 0.55979(10) -0.0626(2) 0.3347(3)
Na1A Na 0.40217(6) 0.16834(12) 0.48243(19)
Na1E Na 0.59783(6) -0.16834(12) 0.51757(19)
Na1D Na 0.40217(6) -0.16834(12) 0.98243(19)
O3A O 0.43279(11) -0.0535(2) 0.8285(3)
O3E O 0.56721(11) 0.0535(2) 1.1715(3)
O3D O 0.43279(11) 0.0535(2) 0.3285(3)
C12A C 0.36252(18) -0.1066(3) 0.5500(6)
H10A H 0.3296 -0.1200 0.5078
H11A H 0.3761 -0.1607 0.6060
H12A H 0.3812 -0.0932 0.4714
O4A O 0.44078(15) 0.2838(3) 0.3418(5)
H13A H 0.432(2) 0.301(4) 0.257(4)
H14A H 0.442(3) 0.334(3) 0.388(6)
O5A O 0.43393(14) 0.2832(3) 0.6752(4)
H15A H 0.423(2) 0.296(4) 0.751(5)
H16A H 0.437(2) 0.335(3) 0.639(6)
Na3A Na 0.5000 0.0000 1.0000
O6A O 0.34520(10) 0.0624(2) 0.5700(3)
Br1 Br 0.40231(2) 0.64440(4) 0.49492(7)
O7 O 0.4606(3) 0.4478(5) 0.5424(10)
O8? O 0.4803(9) 0.4687(15) 0.658(3)
O9? O 0.4515(10) 0.4762(18) 0.307(4)
loop_
_geom_bond_atom_site_label_1
_geom_bond_atom_site_label_2
_geom_bond_site_symmetry_1
_geom_bond_site_symmetry_2
O1 H1 1_555 1_555
H2 O1 1_555 1_555
C1 H3 1_555 1_555
C2 C1 1_555 1_555
H4 C2 1_555 1_555
C3 C4 1_555 1_555
C4 C2 1_555 1_555
C5 H5 1_555 1_555
C6 C4 1_555 1_555
H6 C6 1_555 1_555
C7 C1 1_555 1_555
H7 C7 1_555 1_555
C8 C5 1_555 1_555
H8 C8 1_555 1_555
N1 C3 1_555 1_555
C9 C3 1_555 1_555
C10 C11 1_555 1_555
C11 H9 1_555 1_555
O2 C10 1_555 1_555
Na1 N1 1_555 1_555
O3 C10 1_555 1_555
C12 C11 1_555 1_555
H10 C12 1_555 1_555
H11 C12 1_555 1_555
H12 C12 1_555 1_555
O4 Na1 1_555 1_555
H13 O4 1_555 1_555
H14 O4 1_555 1_555
Na2 O1 1_555 1_555
O5 Na1 1_555 1_555
H15 O5 1_555 1_555
H16 O5 1_555 1_555
Na3 O1 1_555 1_555
O6 C9 1_555 1_555
O1A Na2 1_555 1_555
O1D Na3 1_555 1_555
H1A O1A 1_555 1_555
H1D O1D 1_555 1_555
H2A O1A 1_555 1_555
H2D O1D 1_555 1_555
C1A H3A 1_555 1_555
C2A C1A 1_555 1_555
H4A C2A 1_555 1_555
C3A C4A 1_555 1_555
C4A C2A 1_555 1_555
C5A H5A 1_555 1_555
C6A C4A 1_555 1_555
H6A C6A 1_555 1_555
C7A C1A 1_555 1_555
H7A C7A 1_555 1_555
C8A C5A 1_555 1_555
H8A C8A 1_555 1_555
N1A C3A 1_555 1_555
C9A C3A 1_555 1_555
C10A C11A 1_555 1_555
C11A H9A 1_555 1_555
O2A Na2 1_555 1_555
O2E Na3 1_555 1_555
Na1A N1A 1_555 1_555
Na1E O3 1_555 1_555
Na1D O3A 1_555 1_555
O3A C10A 1_555 1_555
O3E Na1 1_555 1_555
O3D Na3 1_555 1_555
C12A C11A 1_555 1_555
H10A C12A 1_555 1_555
H11A C12A 1_555 1_555
H12A C12A 1_555 1_555
O4A Na1A 1_555 1_555
H13A O4A 1_555 1_555
H14A O4A 1_555 1_555
O5A Na2 1_555 1_555
H15A O5A 1_555 1_555
H16A O5A 1_555 1_555
Na3A O2 1_555 1_555
O6A C9A 1_555 1_555
C5 C9 1_555 1_555
C6 C8 1_555 1_555
C7 N1 1_555 1_555
C11 O6 1_555 1_555
O2 Na1 1_555 1_555
O2 Na2 1_555 1_555
Na1 O6 1_555 1_555
O3 Na3 1_555 1_555
Na2 O5 1_555 1_555
Na3 O2A 1_555 1_555
O1A Na3A 1_555 1_555
C5A C9A 1_555 1_555
C6A C8A 1_555 1_555
C7A N1A 1_555 1_555
C10A O2A 1_555 1_555
C11A O6A 1_555 1_555
O2A Na1A 1_555 1_555
O2E Na1E 1_555 1_555
Na1A O3D 1_555 1_555
Na1A O5A 1_555 1_555
Na1A O6A 1_555 1_555
O3A Na3A 1_555 1_555
O3E Na3A 1_555 1_555

#END
