
#######################################################################
#
#                 Cambridge Crystallographic Data Centre
#                                CCDC 
#
#######################################################################
#
# If this CIF has been generated from an entry in the Cambridge 
# Structural Database, then it will include bibliographic, chemical, 
# crystal, experimental, refinement or atomic coordinate data resulting 
# from the CCDC's data processing and validation procedures.
#
#######################################################################

data_TEJSAE
_symmetry_cell_setting           monoclinic
_symmetry_space_group_name_H-M   'P 21'
_symmetry_Int_Tables_number      4
_space_group_name_Hall           'P 2yb'
loop_
_symmetry_equiv_pos_site_id
_symmetry_equiv_pos_as_xyz
1 x,y,z
2 -x,1/2+y,-z
_cell_length_a                   7.8627(16)
_cell_length_b                   6.0055(12)
_cell_length_c                   10.013(2)
_cell_angle_alpha                90
_cell_angle_beta                 91.14(3)
_cell_angle_gamma                90
_cell_volume                     472.715
loop_
_atom_site_label
_atom_site_type_symbol
_atom_site_fract_x
_atom_site_fract_y
_atom_site_fract_z
Cd1 Cd 0.38607(2) 0.42131(4) 0.452930(16)
S1 S 0.09949(10) 0.30536(13) 0.29886(7)
O1 O 0.2826(3) 0.3014(4) -0.35154(19)
O2 O 0.4808(3) 0.0568(5) -0.2799(2)
O3 O 0.3923(3) 0.0415(4) 0.4143(2)
O4 O 0.2433(3) -0.2526(4) 0.4797(2)
C1 C 0.1830(4) 0.2569(5) 0.1371(3)
C2 C 0.2726(4) 0.0684(6) 0.1011(3)
H1 H 0.2946 -0.0431 0.1635
C3 C 0.3294(4) 0.0470(6) -0.0285(3)
H2 H 0.3886 -0.0803 -0.0528
C4 C 0.2990(4) 0.2133(5) -0.1224(3)
C5 C 0.2107(4) 0.4028(8) -0.0847(3)
H3 H 0.1899 0.5154 -0.1467
C6 C 0.1531(3) 0.4255(13) 0.0452(2)
H4 H 0.0948 0.5532 0.0702
C7 C 0.3590(4) 0.1879(5) -0.2632(3)
C8 C 0.0903(4) 0.0340(5) 0.3753(3)
H5 H 0.0130 0.0427 0.4494
H6 H 0.0405 -0.0682 0.3105
C9 C 0.2549(3) -0.0662(9) 0.4266(2)
Cd1_2 Cd 0.38607(2) -0.57869(4) 0.452930(16)
Cd1_3 Cd 0.38607(2) 0.42131(4) -0.547070(16)
Cd1A Cd 0.61393(2) -0.07869(4) -0.452930(16)
Cd1A_2 Cd 0.61393(2) -0.07869(4) 0.547070(16)
O1_2 O 0.2826(3) 0.3014(4) 0.64846(19)
O2A O 0.5192(3) 0.5568(5) 0.2799(2)
O3A O 0.6077(3) 0.5415(4) 0.5857(2)
O4_2 O 0.2433(3) 0.7474(4) 0.4797(2)
loop_
_geom_bond_atom_site_label_1
_geom_bond_atom_site_label_2
_geom_bond_site_symmetry_1
_geom_bond_site_symmetry_2
Cd1 S1 1_555 1_555
S1 C1 1_555 1_555
O1 C7 1_555 1_555
O2 C7 1_555 1_555
O3 Cd1 1_555 1_555
O4 C9 1_555 1_555
C1 C2 1_555 1_555
C2 H1 1_555 1_555
C3 C2 1_555 1_555
H2 C3 1_555 1_555
C4 C3 1_555 1_555
C5 C4 1_555 1_555
H3 C5 1_555 1_555
C6 C1 1_555 1_555
H4 C6 1_555 1_555
C7 C4 1_555 1_555
C8 S1 1_555 1_555
H5 C8 1_555 1_555
H6 C8 1_555 1_555
C9 O3 1_555 1_555
Cd1_2 O4 1_555 1_555
Cd1_3 O1 1_555 1_555
Cd1A O2 1_555 1_555
Cd1A_2 O3 1_555 1_555
O1_2 Cd1 1_555 1_555
O2A Cd1 1_555 1_555
O3A Cd1 1_555 1_555
O4_2 Cd1 1_555 1_555
C5 C6 1_555 1_555
C8 C9 1_555 1_555

#END
