
#######################################################################
#
#                 Cambridge Crystallographic Data Centre
#                                CCDC 
#
#######################################################################
#
# If this CIF has been generated from an entry in the Cambridge 
# Structural Database, then it will include bibliographic, chemical, 
# crystal, experimental, refinement or atomic coordinate data resulting 
# from the CCDC's data processing and validation procedures.
#
#######################################################################

data_TEJVOV
_symmetry_cell_setting           monoclinic
_symmetry_space_group_name_H-M   'P 21'
_symmetry_Int_Tables_number      4
_space_group_name_Hall           'P 2yb'
loop_
_symmetry_equiv_pos_site_id
_symmetry_equiv_pos_as_xyz
1 x,y,z
2 -x,1/2+y,-z
_cell_length_a                   12.2079(18)
_cell_length_b                   10.3449(16)
_cell_length_c                   20.595(3)
_cell_angle_alpha                90
_cell_angle_beta                 96.006(2)
_cell_angle_gamma                90
_cell_volume                     2586.66
loop_
_atom_site_label
_atom_site_type_symbol
_atom_site_fract_x
_atom_site_fract_y
_atom_site_fract_z
Ag1 Ag 0.28687(5) 0.74163(8) 0.29215(3)
Ag2 Ag -0.23235(5) 0.45795(8) -0.19298(3)
C1 C 0.2997(7) 0.5685(10) 0.1708(4)
H1 H 0.3566 0.6250 0.1639
C2 C 0.2696(7) 0.4778(10) 0.1240(4)
H2 H 0.3080 0.4716 0.0874
C3 C 0.1819(7) 0.3949(10) 0.1306(4)
C4 C 0.1339(6) 0.4073(9) 0.1891(4)
H3 H 0.0766 0.3526 0.1976
C5 C 0.1705(7) 0.4985(10) 0.2333(4)
H4 H 0.1366 0.5046 0.2715
C6 C 0.1448(8) 0.2996(11) 0.0777(5)
H5 H 0.1128 0.3480 0.0400
H6 H 0.2097 0.2562 0.0650
C7 C 0.0640(8) 0.1984(9) 0.0924(4)
H7 H -0.0012 0.2402 0.1057
H8 H 0.0960 0.1464 0.1287
C8 C 0.0296(9) 0.1085(10) 0.0337(4)
H9 H 0.0949 0.0710 0.0181
H10 H -0.0155 0.0386 0.0476
C9 C -0.0349(7) 0.1828(9) -0.0218(4)
C10 C -0.1372(7) 0.2297(11) -0.0159(3)
H11 H -0.1707 0.2126 0.0218
C11 C -0.1914(7) 0.3016(10) -0.0644(4)
H12 H -0.2601 0.3350 -0.0579
C12 C -0.0508(7) 0.2739(9) -0.1269(4)
H13 H -0.0200 0.2864 -0.1659
C13 C 0.0068(7) 0.2048(9) -0.0803(4)
H14 H 0.0753 0.1715 -0.0875
C14 C 0.7722(9) 0.6277(10) 0.6862(5)
H15 H 0.8280 0.5687 0.6807
C15 C 0.7463(10) 0.7190(13) 0.6350(6)
H16 H 0.7889 0.7247 0.6002
C16 C 0.6635(10) 0.7923(12) 0.6380(6)
C17 C 0.6061(7) 0.7889(10) 0.6924(8)
H17 H 0.5458 0.8424 0.6959
C18 C 0.6443(8) 0.6976(10) 0.7446(6)
H18 H 0.6091 0.6957 0.7826
C19 C 0.6292(10) 0.8858(14) 0.5759(5)
H19 H 0.6957 0.9210 0.5608
H20 H 0.5927 0.8341 0.5407
C20 C 0.5557(10) 0.9943(12) 0.5895(5)
H21 H 0.5899 1.0465 0.6252
H22 H 0.4864 0.9613 0.6017
C21 C 0.5364(7) 1.0738(9) 0.5289(4)
H23 H 0.4943 1.1498 0.5383
H24 H 0.6070 1.1030 0.5168
C22 C 0.4769(6) 1.0053(7) 0.4720(3)
C23 C 0.5271(5) 0.9755(9) 0.4168(3)
H25 H 0.5991 1.0020 0.4136
C24 C 0.4713(6) 0.9071(8) 0.3669(3)
H26 H 0.5062 0.8908 0.3297
C25 C 0.3204(6) 0.8910(8) 0.4216(4)
H27 H 0.2488 0.8620 0.4237
C26 C 0.3701(6) 0.9604(10) 0.4728(3)
H28 H 0.3320 0.9777 0.5087
N2 N 0.2521(5) 0.5799(7) 0.2251(3)
N3 N -0.1509(5) 0.3270(7) -0.1215(3)
N5 N 0.7260(6) 0.6195(7) 0.7388(4)
N6 N 0.3699(4) 0.8632(6) 0.3690(3)
Ag2_2 Ag 0.76765(5) 0.45795(8) 0.80702(3)
N5_2 N -0.2740(6) 0.6195(7) -0.2612(4)
C27 C 0.0562(5) 0.7900(7) 0.3274(3)
C28 C -0.0495(5) 0.8368(6) 0.3546(3)
H29 H -0.0911 0.8904 0.3213
C29 C -0.0148(5) 0.9210(6) 0.4139(3)
H30 H 0.0321 0.8708 0.4453
H31 H 0.0282 0.9932 0.4004
C30 C -0.1105(5) 0.9726(9) 0.4465(3)
H32 H -0.1531 0.9009 0.4609
H33 H -0.1580 1.0227 0.4153
C31 C -0.0719(6) 1.0563(8) 0.5042(4)
C32 C -0.2625(6) 0.6137(7) 0.2794(4)
C33 C -0.3669(7) 0.5786(9) 0.2552(5)
H34 H -0.4279 0.6090 0.2741
C34 C -0.3793(9) 0.4967(12) 0.2018(6)
H35 H -0.4500 0.4697 0.1865
C35 C -0.2957(9) 0.4546(11) 0.1711(4)
C36 C -0.1932(8) 0.4892(10) 0.1961(4)
H36 H -0.1328 0.4591 0.1765
C37 C -0.1763(6) 0.5693(9) 0.2507(4)
H37 H -0.1051 0.5921 0.2672
C38 C -0.3122(12) 0.3665(13) 0.1127(6)
H38 H -0.2549 0.3026 0.1154
H39 H -0.3098 0.4163 0.0735
H40 H -0.3825 0.3244 0.1118
N1 N -0.1202(4) 0.7300(6) 0.3714(2)
H48 H -0.0905 0.6694 0.3958
O1 O 0.0996(4) 0.8641(5) 0.2908(2)
O2 O 0.0957(4) 0.6834(6) 0.3470(2)
O3 O -0.1451(5) 1.0707(8) 0.5447(3)
H50 H -0.1144 1.0783 0.5819
O4 O 0.0160(5) 1.1085(7) 0.5118(3)
O5 O -0.2989(4) 0.6607(6) 0.3988(3)
O6 O -0.2882(4) 0.8418(5) 0.3249(3)
S2 S -0.24754(12) 0.71861(17) 0.34786(8)
C39 C 0.5342(6) 0.4380(10) 0.8447(4)
C40 C 0.2005(6) 0.5923(8) 0.7599(3)
C41 C 0.0950(7) 0.6373(10) 0.7396(4)
H41 H 0.0349 0.6084 0.7599
C42 C 0.0807(9) 0.7237(11) 0.6900(5)
H42 H 0.0097 0.7523 0.6767
C43 C 0.1653(12) 0.7712(10) 0.6584(5)
C44 C 0.2655(10) 0.7315(13) 0.6797(5)
H43 H 0.3244 0.7673 0.6607
C45 C 0.2891(7) 0.6390(11) 0.7289(4)
H44 H 0.3606 0.6100 0.7405
C46 C 0.1414(13) 0.8599(13) 0.6008(6)
H45 H 0.2094 0.8925 0.5877
H46 H 0.0968 0.9308 0.6126
H47 H 0.1027 0.8131 0.5652
N4 N 0.3349(5) 0.4171(8) 0.8246(3)
H49 H 0.3477 0.3617 0.7952
O7 O 0.5388(5) 0.3748(7) 0.7940(3)
O8 O 0.6116(4) 0.4953(10) 0.8751(3)
O9 O 0.2058(5) 0.5404(8) 0.8828(3)
O10 O 0.1400(4) 0.3763(7) 0.8015(3)
S1 S 0.21523(14) 0.4751(3) 0.82224(8)
C47 C 0.4242(7) 0.4508(11) 0.8727(4)
H51 H 0.4160 0.5447 0.8763
C48 C 0.4133(13) 0.2620(12) 0.9435(6)
H52 H 0.4785 0.2313 0.9252
H53 H 0.3501 0.2327 0.9148
C49 C 0.4145(14) 0.4058(12) 0.9415(5)
H54 H 0.4763 0.4382 0.9704
H55 H 0.3472 0.4394 0.9563
C50 C 0.4091(13) 0.1947(13) 1.0105(6)
O11 O 0.4406(13) 0.2458(17) 1.0597(6)
O12 O 0.3468(14) 0.0922(14) 1.0061(7)
H56 H 0.3432 0.0624 1.0427
C51? C 0.4242(7) 0.4508(11) 0.8727(4)
C52? C 0.446(3) 0.345(2) 0.9240(13)
C53? C 0.434(2) 0.200(2) 0.9174(10)
C54? C 0.4638(16) 0.1396(15) 0.9849(10)
H57? H 0.3979 0.2202 1.0452
H58? H 0.4144 0.5360 0.8920
H59? H 0.5219 0.3585 0.9421
H60? H 0.4014 0.3689 0.9585
H61? H 0.4819 0.1678 0.8866
H62? H 0.3583 0.1788 0.9013
O13? O 0.391(2) 0.151(3) 1.0261(10)
O14? O 0.5481(18) 0.087(2) 0.9974(12)
loop_
_geom_bond_atom_site_label_1
_geom_bond_atom_site_label_2
_geom_bond_site_symmetry_1
_geom_bond_site_symmetry_2
Ag1 N2 1_555 1_555
Ag2 N3 1_555 1_555
C1 H1 1_555 1_555
C2 C1 1_555 1_555
H2 C2 1_555 1_555
C3 C2 1_555 1_555
C4 C3 1_555 1_555
H3 C4 1_555 1_555
C5 C4 1_555 1_555
H4 C5 1_555 1_555
C6 C3 1_555 1_555
H5 C6 1_555 1_555
H6 C6 1_555 1_555
C7 C6 1_555 1_555
H7 C7 1_555 1_555
H8 C7 1_555 1_555
C8 C7 1_555 1_555
H9 C8 1_555 1_555
H10 C8 1_555 1_555
C9 C8 1_555 1_555
C10 C9 1_555 1_555
H11 C10 1_555 1_555
C11 C10 1_555 1_555
H12 C11 1_555 1_555
C12 H13 1_555 1_555
C13 C9 1_555 1_555
H14 C13 1_555 1_555
C14 H15 1_555 1_555
C15 C14 1_555 1_555
H16 C15 1_555 1_555
C16 C15 1_555 1_555
C17 C16 1_555 1_555
H17 C17 1_555 1_555
C18 C17 1_555 1_555
H18 C18 1_555 1_555
C19 C16 1_555 1_555
H19 C19 1_555 1_555
H20 C19 1_555 1_555
C20 C19 1_555 1_555
H21 C20 1_555 1_555
H22 C20 1_555 1_555
C21 C20 1_555 1_555
H23 C21 1_555 1_555
H24 C21 1_555 1_555
C22 C21 1_555 1_555
C23 C22 1_555 1_555
H25 C23 1_555 1_555
C24 C23 1_555 1_555
H26 C24 1_555 1_555
C25 H27 1_555 1_555
C26 C22 1_555 1_555
H28 C26 1_555 1_555
C27 C28 1_555 1_555
C28 H29 1_555 1_555
C29 C28 1_555 1_555
H30 C29 1_555 1_555
H31 C29 1_555 1_555
C30 C29 1_555 1_555
H32 C30 1_555 1_555
H33 C30 1_555 1_555
C31 C30 1_555 1_555
C32 C33 1_555 1_555
C33 H34 1_555 1_555
C34 C33 1_555 1_555
H35 C34 1_555 1_555
C35 C34 1_555 1_555
C36 C35 1_555 1_555
H36 C36 1_555 1_555
C37 C32 1_555 1_555
H37 C37 1_555 1_555
C38 C35 1_555 1_555
H38 C38 1_555 1_555
H39 C38 1_555 1_555
H40 C38 1_555 1_555
C39 O7 1_555 1_555
C40 C41 1_555 1_555
C41 H41 1_555 1_555
C42 C41 1_555 1_555
H42 C42 1_555 1_555
C43 C42 1_555 1_555
C44 C43 1_555 1_555
H43 C44 1_555 1_555
C45 C40 1_555 1_555
H44 C45 1_555 1_555
C46 C43 1_555 1_555
H45 C46 1_555 1_555
H46 C46 1_555 1_555
H47 C46 1_555 1_555
N1 C28 1_555 1_555
H48 N1 1_555 1_555
N2 C1 1_555 1_555
N3 C11 1_555 1_555
N4 H49 1_555 1_555
N5 C14 1_555 1_555
N6 Ag1 1_555 1_555
O1 C27 1_555 1_555
O2 C27 1_555 1_555
O3 C31 1_555 1_555
H50 O3 1_555 1_555
O4 C31 1_555 1_555
O5 S2 1_555 1_555
O6 S2 1_555 1_555
O8 C39 1_555 1_555
O9 S1 1_555 1_555
O10 S1 1_555 1_555
S1 C40 1_555 1_555
S2 C32 1_555 1_555
C47 C39 1_555 1_555
H51 C47 1_555 1_555
C48 H52 1_555 1_555
H53 C48 1_555 1_555
C49 C47 1_555 1_555
H54 C49 1_555 1_555
H55 C49 1_555 1_555
C50 C48 1_555 1_555
O11 C50 1_555 1_555
O12 C50 1_555 1_555
H56 O12 1_555 1_555
Ag2_2 N5 1_555 1_555
N5_2 Ag2 1_555 1_555
C5 N2 1_555 1_555
C12 C13 1_555 1_555
C12 N3 1_555 1_555
C18 N5 1_555 1_555
C24 N6 1_555 1_555
C25 C26 1_555 1_555
C25 N6 1_555 1_555
C36 C37 1_555 1_555
C44 C45 1_555 1_555
N1 S2 1_555 1_555
N4 S1 1_555 1_555
N4 C47 1_555 1_555
C48 C49 1_555 1_555

#END
