
#######################################################################
#
#                 Cambridge Crystallographic Data Centre
#                                CCDC 
#
#######################################################################
#
# If this CIF has been generated from an entry in the Cambridge 
# Structural Database, then it will include bibliographic, chemical, 
# crystal, experimental, refinement or atomic coordinate data resulting 
# from the CCDC's data processing and validation procedures.
#
#######################################################################

data_TEJVUA
_symmetry_cell_setting           monoclinic
_symmetry_space_group_name_H-M   'P 21/n'
_symmetry_Int_Tables_number      14
_space_group_name_Hall           '-P 2yn'
loop_
_symmetry_equiv_pos_site_id
_symmetry_equiv_pos_as_xyz
1 x,y,z
2 1/2-x,1/2+y,1/2-z
3 -x,-y,-z
4 1/2+x,1/2-y,1/2+z
_cell_length_a                   11.280(10)
_cell_length_b                   14.510(10)
_cell_length_c                   12.22(2)
_cell_angle_alpha                90
_cell_angle_beta                 90.11(5)
_cell_angle_gamma                90
_cell_volume                     2000.08
loop_
_atom_site_label
_atom_site_type_symbol
_atom_site_fract_x
_atom_site_fract_y
_atom_site_fract_z
Ni1 Ni -0.50057(3) 0.38606(3) -0.31890(3)
O1 O -0.46473(16) 0.36896(14) -0.48710(16)
O2 O -0.32263(16) 0.35336(13) -0.36519(16)
O3 O -0.46235(16) 0.52726(14) -0.33106(16)
H1 H -0.4835 0.5517 -0.3960
H2 H -0.3836 0.5353 -0.3217
N1 N -0.6758(2) 0.41401(16) -0.31989(19)
N2 N -0.6929(2) 0.42728(17) -0.1264(2)
H9 H -0.7428 0.4408 -0.0758
N3 N -0.4898(2) 0.39418(17) -0.15513(18)
N4 N -0.0307(2) 0.26363(17) -0.80573(19)
H10 H -0.0496 0.2909 -0.8709
H11 H 0.0395 0.3003 -0.7929
C1 C -0.7318(3) 0.4148(2) -0.4183(2)
H12 H -0.6875 0.4012 -0.4804
C2 C -0.8500(3) 0.4346(2) -0.4315(3)
H13 H -0.8850 0.4335 -0.5005
C3 C -0.9161(3) 0.4565(2) -0.3387(3)
H14 H -0.9961 0.4715 -0.3448
C4 C -0.8611(3) 0.4555(2) -0.2379(3)
H15 H -0.9036 0.4701 -0.1751
C5 C -0.7407(2) 0.43222(19) -0.2306(2)
C6 C -0.5816(2) 0.40511(19) -0.0869(2)
C7 C -0.5701(2) 0.3951(2) 0.0266(2)
H16 H -0.6357 0.4017 0.0719
C8 C -0.4608(3) 0.3753(2) 0.0702(2)
H17 H -0.4514 0.3680 0.1454
C9 C -0.3641(3) 0.3664(2) 0.0001(3)
H18 H -0.2888 0.3541 0.0277
C10 C -0.3821(2) 0.3760(2) -0.1094(2)
H19 H -0.3172 0.3699 -0.1557
C11 C -0.1120(2) 0.29038(19) -0.7221(2)
C12 C -0.2336(2) 0.2895(2) -0.7419(2)
H20 H -0.2619 0.2755 -0.8114
C13 C -0.3127(3) 0.30957(19) -0.6584(2)
H21 H -0.3938 0.3090 -0.6724
C14 C -0.2715(2) 0.33043(19) -0.5540(2)
C15 C -0.1491(2) 0.33063(19) -0.5339(2)
H22 H -0.1206 0.3433 -0.4640
C16 C -0.0706(2) 0.31204(19) -0.6178(2)
H23 H 0.0106 0.3140 -0.6044
C17 C -0.3553(2) 0.35181(19) -0.4643(2)
Ni1C Ni -0.00057(3) 0.11394(3) -0.81890(3)
N4C N -0.5307(2) 0.23637(17) -0.30573(19)
H10C H -0.5496 0.2091 -0.3709
H11C H -0.4605 0.1997 -0.2929
Cl1 Cl 0.29202(6) -0.09895(6) -0.77566(6)
O4 O 0.13425(17) 0.45499(15) -0.95825(16)
H3 H 0.0789 0.4135 -0.9781
H4 H 0.1498 0.4490 -0.8864
O5 O 0.06732(18) 0.64091(14) -0.97130(18)
H5 H 0.0976 0.5833 -0.9657
H6 H 0.0773 0.6685 -0.9048
O6 O 0.12560(19) 0.72295(15) -0.76976(19)
H7 H 0.1700 0.6853 -0.7262
H8 H 0.1631 0.7792 -0.7707
loop_
_geom_bond_atom_site_label_1
_geom_bond_atom_site_label_2
_geom_bond_site_symmetry_1
_geom_bond_site_symmetry_2
Ni1 O1 1_555 1_555
O1 C17 1_555 1_555
O2 Ni1 1_555 1_555
O3 Ni1 1_555 1_555
H1 O3 1_555 1_555
H2 O3 1_555 1_555
O4 H3 1_555 1_555
H4 O4 1_555 1_555
O5 H5 1_555 1_555
H6 O5 1_555 1_555
O6 H7 1_555 1_555
H8 O6 1_555 1_555
N1 Ni1 1_555 1_555
N2 H9 1_555 1_555
N3 Ni1 1_555 1_555
N4 H10 1_555 1_555
H11 N4 1_555 1_555
C1 N1 1_555 1_555
H12 C1 1_555 1_555
C2 C1 1_555 1_555
H13 C2 1_555 1_555
C3 C2 1_555 1_555
H14 C3 1_555 1_555
C4 C3 1_555 1_555
H15 C4 1_555 1_555
C5 N1 1_555 1_555
C6 N2 1_555 1_555
C7 C6 1_555 1_555
H16 C7 1_555 1_555
C8 C7 1_555 1_555
H17 C8 1_555 1_555
C9 C8 1_555 1_555
H18 C9 1_555 1_555
C10 N3 1_555 1_555
H19 C10 1_555 1_555
C11 N4 1_555 1_555
C12 C11 1_555 1_555
H20 C12 1_555 1_555
C13 C12 1_555 1_555
H21 C13 1_555 1_555
C14 C13 1_555 1_555
C15 C14 1_555 1_555
H22 C15 1_555 1_555
C16 C11 1_555 1_555
H23 C16 1_555 1_555
C17 O2 1_555 1_555
Ni1C N4 1_555 1_555
N4C Ni1 1_555 1_555
H10C N4C 1_555 1_555
H11C N4C 1_555 1_555
N2 C5 1_555 1_555
N3 C6 1_555 1_555
C4 C5 1_555 1_555
C9 C10 1_555 1_555
C14 C17 1_555 1_555
C15 C16 1_555 1_555

#END
