
#######################################################################
#
#                 Cambridge Crystallographic Data Centre
#                                CCDC 
#
#######################################################################
#
# If this CIF has been generated from an entry in the Cambridge 
# Structural Database, then it will include bibliographic, chemical, 
# crystal, experimental, refinement or atomic coordinate data resulting 
# from the CCDC's data processing and validation procedures.
#
#######################################################################

data_TEJWUC
_symmetry_cell_setting           triclinic
_symmetry_space_group_name_H-M   'P -1'
_symmetry_Int_Tables_number      2
_space_group_name_Hall           '-P 1'
loop_
_symmetry_equiv_pos_site_id
_symmetry_equiv_pos_as_xyz
1 x,y,z
2 -x,-y,-z
_cell_length_a                   10.6370(10)
_cell_length_b                   12.5138(12)
_cell_length_c                   15.3015(14)
_cell_angle_alpha                93.662(2)
_cell_angle_beta                 92.369(2)
_cell_angle_gamma                104.387(2)
_cell_volume                     1965.42
loop_
_atom_site_label
_atom_site_type_symbol
_atom_site_fract_x
_atom_site_fract_y
_atom_site_fract_z
Cu1 Cu -0.49795(5) 0.89466(4) 0.48743(3)
Cu2 Cu 0.43798(5) 0.49536(5) 0.07283(3)
O1 O -0.4415(3) 0.9122(3) 0.6129(2)
O2 O -0.3224(3) 0.9699(3) 0.4551(2)
O3 O -0.4391(3) 1.0913(3) 0.63444(19)
O4 O -0.3197(3) 1.1488(2) 0.48103(19)
O5 O 0.5610(3) 0.6410(3) 0.1018(2)
O6 O 0.3207(3) 0.5688(3) 0.0121(2)
O7 O 0.4275(3) 0.5789(3) -0.1106(2)
O8 O 0.6700(3) 0.6465(3) -0.0211(2)
N1 N -0.3663(3) 0.6354(3) 0.3645(2)
N2 N -0.3934(4) 0.5798(3) 0.4364(3)
N3 N -0.4511(3) 0.7403(3) 0.4495(2)
N4 N 0.2882(4) 0.5551(4) 0.3171(3)
N5 N 0.2949(5) 0.4533(5) 0.3308(3)
N6 N 0.3563(4) 0.4942(3) 0.1977(2)
C1 C -0.4435(4) 0.6475(4) 0.4853(3)
H1 H -0.4715 0.6317 0.5409
C2 C -0.3999(4) 0.7297(4) 0.3740(3)
H2 H -0.3887 0.7820 0.3325
C3 C -0.3054(5) 0.5906(4) 0.2916(3)
H3 H -0.3132 0.6307 0.2403
H4 H -0.3502 0.5135 0.2772
C4 C -0.1637(5) 0.5997(4) 0.3149(3)
C5 C -0.1279(5) 0.5195(4) 0.3574(3)
H5 H -0.1912 0.4582 0.3716
C6 C 0.0034(6) 0.5273(5) 0.3805(3)
H6 H 0.0267 0.4721 0.4105
C7 C 0.0962(5) 0.6156(6) 0.3588(4)
C8 C 0.0609(6) 0.6963(5) 0.3171(4)
H7 H 0.1241 0.7579 0.3033
C9 C -0.0704(6) 0.6880(5) 0.2943(4)
H8 H -0.0936 0.7436 0.2649
C10 C 0.2378(5) 0.6222(5) 0.3823(4)
H9 H 0.2880 0.6986 0.3843
H10 H 0.2462 0.5956 0.4399
C11 C 0.3375(5) 0.4215(5) 0.2578(4)
H11 H 0.3537 0.3521 0.2485
C12 C 0.3231(5) 0.5765(5) 0.2388(4)
H12 H 0.3244 0.6431 0.2147
C13 C -0.1272(4) 1.1030(4) 0.4359(3)
C14 C -0.0537(4) 1.2080(4) 0.4518(3)
H13 H -0.0926 1.2621 0.4739
C15 C 0.0781(5) 1.2380(5) 0.4361(4)
H14 H 0.1274 1.3104 0.4485
C16 C 0.1332(5) 1.1572(5) 0.4017(3)
H15 H 0.2212 1.1749 0.3911
C17 C 0.0601(5) 1.0517(5) 0.3831(3)
H16 H 0.0979 0.9986 0.3579
C18 C -0.0706(5) 1.0225(4) 0.4015(3)
H17 H -0.1193 0.9497 0.3907
C19 C -0.2671(4) 1.0710(4) 0.4592(3)
C20 C -0.3916(4) 0.9977(4) 0.7558(3)
C21 C -0.3828(6) 0.9032(5) 0.7900(4)
H18 H -0.3963 0.8388 0.7532
C22 C -0.3539(8) 0.8999(7) 0.8787(5)
H19 H -0.3480 0.8340 0.9012
C23 C -0.3344(8) 0.9941(8) 0.9328(4)
H20 H -0.3175 0.9920 0.9927
C24 C -0.3395(7) 1.0901(6) 0.8997(4)
H21 H -0.3239 1.1547 0.9364
C25 C -0.3683(5) 1.0925(5) 0.8102(4)
H22 H -0.3717 1.1589 0.7874
C26 C -0.4264(4) 1.0017(5) 0.6599(3)
C27 C 0.7434(6) 0.7915(5) 0.0897(3)
C28 C 0.7035(6) 0.8592(5) 0.1513(4)
H23 H 0.6198 0.8396 0.1709
C29 C 0.7902(10) 0.9568(6) 0.1837(5)
H24 H 0.7635 1.0041 0.2241
C30 C 0.9134(11) 0.9846(8) 0.1572(6)
H25 H 0.9715 1.0493 0.1809
C31 C 0.9517(8) 0.9181(8) 0.0963(6)
H26 H 1.0359 0.9378 0.0776
C32 C 0.8668(7) 0.8214(5) 0.0619(4)
H27 H 0.8935 0.7763 0.0197
C33 C 0.6513(5) 0.6859(4) 0.0540(4)
C34 C 0.2332(4) 0.6372(4) -0.1102(4)
C35 C 0.2607(5) 0.6944(4) -0.1827(4)
H28 H 0.3436 0.7091 -0.2036
C36 C 0.1621(10) 0.7305(7) -0.2248(6)
H29 H 0.1808 0.7734 -0.2722
C37 C 0.0393(12) 0.7040(9) -0.1976(8)
H30 H -0.0268 0.7241 -0.2290
C38 C 0.0131(9) 0.6489(9) -0.1258(6)
H31 H -0.0706 0.6338 -0.1062
C39 C 0.1096(7) 0.6139(6) -0.0800(5)
H32 H 0.0911 0.5756 -0.0301
C40 C 0.3364(5) 0.5931(4) -0.0654(4)
Cu1A Cu -0.50205(5) 1.10534(4) 0.51257(3)
Cu2A Cu 0.56202(5) 0.50464(5) -0.07283(3)
O3A O -0.5609(3) 0.9087(3) 0.36556(19)
O4A O -0.6803(3) 0.8512(2) 0.51897(19)
O7A O 0.5725(3) 0.4211(3) 0.1106(2)
O8A O 0.3300(3) 0.3535(3) 0.0211(2)
loop_
_geom_bond_atom_site_label_1
_geom_bond_atom_site_label_2
_geom_bond_site_symmetry_1
_geom_bond_site_symmetry_2
Cu1 O1 1_555 1_555
Cu2 O5 1_555 1_555
O1 C26 1_555 1_555
O2 Cu1 1_555 1_555
O3 C26 1_555 1_555
O4 C19 1_555 1_555
O5 C33 1_555 1_555
O6 Cu2 1_555 1_555
O7 C40 1_555 1_555
O8 C33 1_555 1_555
N1 N2 1_555 1_555
N2 C1 1_555 1_555
N3 Cu1 1_555 1_555
N4 N5 1_555 1_555
N5 C11 1_555 1_555
N6 Cu2 1_555 1_555
C1 N3 1_555 1_555
H1 C1 1_555 1_555
C2 N1 1_555 1_555
H2 C2 1_555 1_555
C3 N1 1_555 1_555
H3 C3 1_555 1_555
H4 C3 1_555 1_555
C4 C3 1_555 1_555
C5 C4 1_555 1_555
H5 C5 1_555 1_555
C6 C5 1_555 1_555
H6 C6 1_555 1_555
C7 C6 1_555 1_555
C8 C7 1_555 1_555
H7 C8 1_555 1_555
C9 C4 1_555 1_555
H8 C9 1_555 1_555
C10 N4 1_555 1_555
H9 C10 1_555 1_555
H10 C10 1_555 1_555
C11 N6 1_555 1_555
H11 C11 1_555 1_555
C12 N4 1_555 1_555
H12 C12 1_555 1_555
C13 C14 1_555 1_555
C14 H13 1_555 1_555
C15 C14 1_555 1_555
H14 C15 1_555 1_555
C16 C15 1_555 1_555
H15 C16 1_555 1_555
C17 C16 1_555 1_555
H16 C17 1_555 1_555
C18 C13 1_555 1_555
H17 C18 1_555 1_555
C19 O2 1_555 1_555
C20 C21 1_555 1_555
C21 H18 1_555 1_555
C22 C21 1_555 1_555
H19 C22 1_555 1_555
C23 C22 1_555 1_555
H20 C23 1_555 1_555
C24 C23 1_555 1_555
H21 C24 1_555 1_555
C25 C20 1_555 1_555
H22 C25 1_555 1_555
C26 C20 1_555 1_555
C27 C28 1_555 1_555
C28 H23 1_555 1_555
C29 C28 1_555 1_555
H24 C29 1_555 1_555
C30 C29 1_555 1_555
H25 C30 1_555 1_555
C31 C30 1_555 1_555
H26 C31 1_555 1_555
C32 C27 1_555 1_555
H27 C32 1_555 1_555
C33 C27 1_555 1_555
C34 C35 1_555 1_555
C35 H28 1_555 1_555
C36 C35 1_555 1_555
H29 C36 1_555 1_555
C37 C36 1_555 1_555
H30 C37 1_555 1_555
C38 C37 1_555 1_555
H31 C38 1_555 1_555
C39 C34 1_555 1_555
H32 C39 1_555 1_555
C40 O6 1_555 1_555
Cu1A O3 1_555 1_555
Cu2A O7 1_555 1_555
O3A Cu1 1_555 1_555
O4A Cu1 1_555 1_555
O7A Cu2 1_555 1_555
O8A Cu2 1_555 1_555
O4 Cu1A 1_555 1_555
O8 Cu2A 1_555 1_555
N3 C2 1_555 1_555
N6 C12 1_555 1_555
C7 C10 1_555 1_555
C8 C9 1_555 1_555
C13 C19 1_555 1_555
C17 C18 1_555 1_555
C24 C25 1_555 1_555
C31 C32 1_555 1_555
C34 C40 1_555 1_555
C38 C39 1_555 1_555

#END
