
#######################################################################
#
#                 Cambridge Crystallographic Data Centre
#                                CCDC 
#
#######################################################################
#
# If this CIF has been generated from an entry in the Cambridge 
# Structural Database, then it will include bibliographic, chemical, 
# crystal, experimental, refinement or atomic coordinate data resulting 
# from the CCDC's data processing and validation procedures.
#
#######################################################################

data_TEJWAI
_symmetry_cell_setting           monoclinic
_symmetry_space_group_name_H-M   'P 21/n'
_symmetry_Int_Tables_number      14
_space_group_name_Hall           '-P 2yn'
loop_
_symmetry_equiv_pos_site_id
_symmetry_equiv_pos_as_xyz
1 x,y,z
2 1/2-x,1/2+y,1/2-z
3 -x,-y,-z
4 1/2+x,1/2-y,1/2+z
_cell_length_a                   15.5130(13)
_cell_length_b                   12.7631(12)
_cell_length_c                   20.8529(19)
_cell_angle_alpha                90
_cell_angle_beta                 101.9720(10)
_cell_angle_gamma                90
_cell_volume                     4038.94
loop_
_atom_site_label
_atom_site_type_symbol
_atom_site_fract_x
_atom_site_fract_y
_atom_site_fract_z
Cu1 Cu 0.75780(7) 0.27689(9) 1.50844(5)
Cu2 Cu 0.72742(6) 0.67785(9) 1.48153(5)
Cl1 Cl 0.72486(14) 0.46290(17) 1.44753(11)
N1 N 0.9043(5) 0.2007(6) 1.3779(4)
N2 N 0.8265(5) 0.2142(6) 1.4547(4)
N3 N 0.8965(5) 0.7173(5) 1.3618(4)
N4 N 0.8114(4) 0.7205(5) 1.4335(3)
N5 N 0.6148(4) 0.2633(5) 1.6485(3)
N6 N 0.6951(4) 0.2963(5) 1.5756(3)
N7 N 0.5481(4) -0.2856(5) 1.5953(3)
N8 N 0.6373(4) -0.3262(5) 1.5292(3)
C1 C 0.8526(6) 0.2622(7) 1.4070(4)
H3 H 0.8374 0.3308 1.3944
C2 C 0.8628(7) 0.1177(8) 1.4570(5)
H4 H 0.8558 0.0654 1.4866
C3 C 0.9108(7) 0.1081(8) 1.4099(5)
H5 H 0.9421 0.0494 1.4013
C4 C 0.8387(5) 0.6655(7) 1.3892(4)
H6 H 0.8200 0.5975 1.3778
C5 C 0.8545(7) 0.8144(8) 1.4358(5)
H7 H 0.8485 0.8704 1.4631
C6 C 0.9078(7) 0.8124(8) 1.3914(5)
H8 H 0.9447 0.8659 1.3830
C7 C 0.9470(6) 0.3467(7) 1.3147(5)
C8 C 0.8839(6) 0.3961(7) 1.2696(4)
C9 C 0.8815(5) 0.5031(7) 1.2660(4)
C10 C 0.9440(6) 0.5620(7) 1.3088(4)
C11 C 1.0089(6) 0.5118(8) 1.3559(4)
C12 C 1.0116(6) 0.4042(8) 1.3584(4)
C13 C 0.9461(6) 0.2297(7) 1.3232(5)
H9 H 0.9140 0.1977 1.2831
H10 H 1.0060 0.2033 1.3315
C14 C 0.8114(7) 0.3336(9) 1.2250(5)
H11 H 0.7580 0.3380 1.2413
H12 H 0.8291 0.2616 1.2241
H13 H 0.8014 0.3619 1.1814
C15 C 0.8088(6) 0.5586(9) 1.2166(5)
H14 H 0.8079 0.5320 1.1734
H15 H 0.8202 0.6326 1.2175
H16 H 0.7528 0.5459 1.2279
C16 C 0.9388(6) 0.6802(7) 1.3090(5)
H17 H 0.9977 0.7093 1.3150
H18 H 0.9053 0.7043 1.2670
C17 C 1.0725(6) 0.5763(9) 1.4050(5)
H19 H 1.0412 0.6324 1.4208
H20 H 1.1171 0.6049 1.3844
H21 H 1.0995 0.5327 1.4411
C18 C 1.0798(6) 0.3477(9) 1.4106(5)
H22 H 1.1280 0.3942 1.4270
H23 H 1.1013 0.2871 1.3916
H24 H 1.0529 0.3263 1.4460
C19 C 0.6635(5) 0.2224(6) 1.6092(3)
H25 H 0.6741 0.1511 1.6057
C20 C 0.6653(5) 0.3892(7) 1.5948(4)
H26 H 0.6771 0.4549 1.5794
C21 C 0.6155(5) 0.3706(6) 1.6401(4)
H27 H 0.5874 0.4203 1.6613
C22 C 0.6266(5) -0.2672(6) 1.5792(4)
H28 H 0.6679 -0.2193 1.6006
C23 C 0.5607(5) -0.3828(6) 1.5122(4)
H29 H 0.5484 -0.4306 1.4779
C24 C 0.5063(5) -0.3595(6) 1.5521(4)
H30 H 0.4507 -0.3879 1.5508
C25 C 0.5590(5) 0.0903(6) 1.6777(4)
C26 C 0.6168(5) 0.0202(6) 1.7153(3)
C27 C 0.6044(5) -0.0879(6) 1.7050(3)
C28 C 0.5331(5) -0.1222(6) 1.6566(3)
C29 C 0.4796(5) -0.0505(6) 1.6153(4)
C30 C 0.4927(5) 0.0562(6) 1.6271(4)
C31 C 0.5677(5) 0.2072(6) 1.6925(4)
H31 H 0.5093 0.2372 1.6882
H32 H 0.5989 0.2170 1.7374
C32 C 0.6960(5) 0.0592(7) 1.7661(4)
H33 H 0.6997 0.1341 1.7634
H34 H 0.7489 0.0284 1.7576
H35 H 0.6890 0.0396 1.8092
C33 C 0.6679(5) -0.1647(7) 1.7452(4)
H36 H 0.6520 -0.2347 1.7307
H37 H 0.6654 -0.1580 1.7906
H38 H 0.7267 -0.1500 1.7397
C34 C 0.5137(5) -0.2389(6) 1.6486(4)
H39 H 0.5395 -0.2744 1.6892
H40 H 0.4505 -0.2495 1.6405
C35 C 0.4085(5) -0.0882(7) 1.5587(4)
H41 H 0.3516 -0.0746 1.5682
H42 H 0.4152 -0.1620 1.5526
H43 H 0.4138 -0.0517 1.5195
C36 C 0.4345(5) 0.1346(7) 1.5817(4)
H44 H 0.3870 0.1570 1.6016
H45 H 0.4109 0.1017 1.5404
H46 H 0.4692 0.1943 1.5748
Cu2_2 Cu 0.72742(6) -0.32215(9) 1.48153(5)
N8_2 N 0.6373(4) 0.6738(5) 1.5292(3)
Cu3 Cu 0.13297(8) -0.00053(9) 1.34778(6)
Cl2 Cl 0.23196(19) 0.0517(2) 1.42376(15)
Cl3 Cl 0.0304(2) -0.0527(3) 1.27398(15)
O1 O 0.6067(6) 0.5895(7) 1.3272(5)
H1 H 0.6367 0.5529 1.3580
H2 H 0.5719 0.5490 1.3017
loop_
_geom_bond_atom_site_label_1
_geom_bond_atom_site_label_2
_geom_bond_site_symmetry_1
_geom_bond_site_symmetry_2
Cu1 Cl1 1_555 1_555
Cu2 N4 1_555 1_555
Cu3 Cl2 1_555 1_555
Cl3 Cu3 1_555 1_555
N1 C1 1_555 1_555
N2 Cu1 1_555 1_555
N3 C4 1_555 1_555
N4 C4 1_555 1_555
N5 C19 1_555 1_555
N6 Cu1 1_555 1_555
N7 C22 1_555 1_555
N8 C22 1_555 1_555
O1 H1 1_555 1_555
H2 O1 1_555 1_555
C1 N2 1_555 1_555
H3 C1 1_555 1_555
C2 N2 1_555 1_555
H4 C2 1_555 1_555
C3 N1 1_555 1_555
H5 C3 1_555 1_555
C4 H6 1_555 1_555
C5 N4 1_555 1_555
H7 C5 1_555 1_555
C6 N3 1_555 1_555
H8 C6 1_555 1_555
C7 C8 1_555 1_555
C8 C9 1_555 1_555
C9 C10 1_555 1_555
C10 C11 1_555 1_555
C11 C12 1_555 1_555
C12 C7 1_555 1_555
C13 N1 1_555 1_555
H9 C13 1_555 1_555
H10 C13 1_555 1_555
C14 C8 1_555 1_555
H11 C14 1_555 1_555
H12 C14 1_555 1_555
H13 C14 1_555 1_555
C15 C9 1_555 1_555
H14 C15 1_555 1_555
H15 C15 1_555 1_555
H16 C15 1_555 1_555
C16 N3 1_555 1_555
H17 C16 1_555 1_555
H18 C16 1_555 1_555
C17 C11 1_555 1_555
H19 C17 1_555 1_555
H20 C17 1_555 1_555
H21 C17 1_555 1_555
C18 C12 1_555 1_555
H22 C18 1_555 1_555
H23 C18 1_555 1_555
H24 C18 1_555 1_555
C19 N6 1_555 1_555
H25 C19 1_555 1_555
C20 N6 1_555 1_555
H26 C20 1_555 1_555
C21 N5 1_555 1_555
H27 C21 1_555 1_555
C22 H28 1_555 1_555
C23 N8 1_555 1_555
H29 C23 1_555 1_555
C24 N7 1_555 1_555
H30 C24 1_555 1_555
C25 C26 1_555 1_555
C26 C27 1_555 1_555
C27 C28 1_555 1_555
C28 C29 1_555 1_555
C29 C30 1_555 1_555
C30 C25 1_555 1_555
C31 N5 1_555 1_555
H31 C31 1_555 1_555
H32 C31 1_555 1_555
C32 C26 1_555 1_555
H33 C32 1_555 1_555
H34 C32 1_555 1_555
H35 C32 1_555 1_555
C33 C27 1_555 1_555
H36 C33 1_555 1_555
H37 C33 1_555 1_555
H38 C33 1_555 1_555
C34 N7 1_555 1_555
H39 C34 1_555 1_555
H40 C34 1_555 1_555
C35 C29 1_555 1_555
H41 C35 1_555 1_555
H42 C35 1_555 1_555
H43 C35 1_555 1_555
C36 C30 1_555 1_555
H44 C36 1_555 1_555
H45 C36 1_555 1_555
H46 C36 1_555 1_555
Cu2_2 N8 1_555 1_555
N8_2 Cu2 1_555 1_555
C2 C3 1_555 1_555
C5 C6 1_555 1_555
C7 C13 1_555 1_555
C10 C16 1_555 1_555
C20 C21 1_555 1_555
C23 C24 1_555 1_555
C25 C31 1_555 1_555
C28 C34 1_555 1_555

#END
