
#######################################################################
#
#                 Cambridge Crystallographic Data Centre
#                                CCDC 
#
#######################################################################
#
# If this CIF has been generated from an entry in the Cambridge 
# Structural Database, then it will include bibliographic, chemical, 
# crystal, experimental, refinement or atomic coordinate data resulting 
# from the CCDC's data processing and validation procedures.
#
#######################################################################

data_TEJXIR
_symmetry_cell_setting           orthorhombic
_symmetry_space_group_name_H-M   'P b c a'
_symmetry_Int_Tables_number      61
_space_group_name_Hall           '-P 2ac 2ab'
loop_
_symmetry_equiv_pos_site_id
_symmetry_equiv_pos_as_xyz
1 x,y,z
2 1/2-x,-y,1/2+z
3 1/2+x,1/2-y,-z
4 -x,1/2+y,1/2-z
5 -x,-y,-z
6 1/2+x,y,1/2-z
7 1/2-x,1/2+y,z
8 x,1/2-y,1/2+z
_cell_length_a                   18.5796(10)
_cell_length_b                   8.3191(4)
_cell_length_c                   19.1173(13)
_cell_angle_alpha                90
_cell_angle_beta                 90
_cell_angle_gamma                90
_cell_volume                     2954.88
loop_
_atom_site_label
_atom_site_type_symbol
_atom_site_fract_x
_atom_site_fract_y
_atom_site_fract_z
Cu1 Cu 0.061666(17) 0.56899(4) 0.212929(17)
O1 O 0.03418(10) 0.3484(2) 0.23787(10)
O2 O 0.14915(10) 0.4108(2) 0.15656(11)
N1 N 0.00200(12) 0.5929(3) 0.12632(12)
N2 N 0.10325(11) 0.7773(3) 0.17936(12)
N3 N 0.12610(13) 0.6146(3) 0.29428(12)
O3 O -0.04531(12) 0.5895(2) 0.28244(11)
C1 C 0.06545(13) 0.2298(3) 0.20954(14)
C2 C 0.13125(14) 0.2656(3) 0.16166(14)
C3 C -0.06007(14) 0.5181(4) 0.11270(16)
C4 C 0.02550(15) 0.7085(3) 0.08274(14)
C5 C 0.09692(15) 0.7833(3) 0.10249(14)
C6 C 0.17730(14) 0.7884(3) 0.20675(15)
C7 C 0.17708(14) 0.7248(3) 0.28077(15)
C8 C 0.12116(16) 0.5513(4) 0.35894(15)
O4 O 0.15870(11) 0.1485(2) 0.13132(12)
C9 C -0.10181(16) 0.5556(4) 0.05521(16)
C10 C -0.01374(17) 0.7520(4) 0.02455(15)
C11 C 0.22500(17) 0.7745(4) 0.33189(17)
C12 C 0.16703(18) 0.5963(4) 0.41219(17)
C13 C -0.07824(17) 0.6745(4) 0.01085(16)
C14 C 0.21963(18) 0.7095(4) 0.39809(18)
O3C O 0.04531(12) 0.0895(2) 0.21756(11)
Cu1C Cu -0.061666(17) 0.06899(4) 0.287071(17)
O5 O 0.23696(12) 0.5187(3) 0.04583(11)
loop_
_geom_bond_atom_site_label_1
_geom_bond_atom_site_label_2
_geom_bond_site_symmetry_1
_geom_bond_site_symmetry_2
Cu1 O1 1_555 1_555
O1 C1 1_555 1_555
O2 Cu1 1_555 1_555
N1 Cu1 1_555 1_555
N2 Cu1 1_555 1_555
N3 Cu1 1_555 1_555
O3 Cu1 1_555 1_555
C1 C2 1_555 1_555
C2 O2 1_555 1_555
C3 N1 1_555 1_555
C4 N1 1_555 1_555
C5 N2 1_555 1_555
C6 N2 1_555 1_555
C7 N3 1_555 1_555
C8 N3 1_555 1_555
O4 C2 1_555 1_555
C9 C3 1_555 1_555
C10 C4 1_555 1_555
C11 C7 1_555 1_555
C12 C8 1_555 1_555
C13 C9 1_555 1_555
C14 C11 1_555 1_555
O3C C1 1_555 1_555
Cu1C O3C 1_555 1_555
C4 C5 1_555 1_555
C6 C7 1_555 1_555
C10 C13 1_555 1_555
C12 C14 1_555 1_555

#END
