
#######################################################################
#
#                 Cambridge Crystallographic Data Centre
#                                CCDC 
#
#######################################################################
#
# If this CIF has been generated from an entry in the Cambridge 
# Structural Database, then it will include bibliographic, chemical, 
# crystal, experimental, refinement or atomic coordinate data resulting 
# from the CCDC's data processing and validation procedures.
#
#######################################################################

data_TEJXIQ
_symmetry_cell_setting           triclinic
_symmetry_space_group_name_H-M   'P -1'
_symmetry_Int_Tables_number      2
_space_group_name_Hall           '-P 1'
loop_
_symmetry_equiv_pos_site_id
_symmetry_equiv_pos_as_xyz
1 x,y,z
2 -x,-y,-z
_cell_length_a                   8.7672(6)
_cell_length_b                   9.2598(7)
_cell_length_c                   9.9807(7)
_cell_angle_alpha                104.069(3)
_cell_angle_beta                 107.030(4)
_cell_angle_gamma                100.807(4)
_cell_volume                     721.666
loop_
_atom_site_label
_atom_site_type_symbol
_atom_site_fract_x
_atom_site_fract_y
_atom_site_fract_z
Rb1 Rb -0.08863(7) -1.07514(6) -0.72756(6)
Rb2 Rb 0.62757(7) -0.01386(7) -0.18370(6)
O1 O 0.3889(4) -0.2739(4) -0.4518(4)
O2 O 0.1542(4) -0.7981(4) -0.7496(4)
O3 O 0.0662(4) -0.7605(4) -0.4887(4)
O4 O 0.7303(5) 0.0440(4) -0.4296(4)
O5 O 0.9495(4) 0.1909(5) -0.0384(4)
N1 N 0.0364(7) -0.5736(6) -0.1700(6)
N2 N 0.2980(6) -0.1322(5) -0.1542(5)
N3 N 0.3576(6) -0.7075(6) -0.9612(5)
N4 N 0.5436(6) -0.2248(6) -0.7093(5)
C1 C 0.2172(6) -0.4931(6) -0.4268(5)
C2 C 0.3105(6) -0.4125(6) -0.4992(5)
C3 C 0.3007(5) -0.5257(5) -0.6343(5)
C4 C 0.1999(6) -0.6734(6) -0.6464(5)
C5 C 0.1505(6) -0.6549(6) -0.5151(5)
C6 C 0.1953(6) -0.4251(6) -0.2978(5)
C7 C 0.1067(7) -0.5122(6) -0.2304(6)
C8 C 0.2567(6) -0.2614(7) -0.2204(6)
C9 C 0.3738(6) -0.4933(6) -0.7335(5)
C10 C 0.3629(6) -0.6142(7) -0.8609(6)
C11 C 0.4678(7) -0.3434(7) -0.7160(6)
H1 H 0.69792 -0.05933 -0.53001
H2 H 0.71402 0.14137 -0.46451
H3 H 0.94086 0.30177 -0.07365
H4 H 1.05734 0.21097 0.08025
Rb1A Rb 0.08863(7) -0.92486(6) -0.27244(6)
Rb1_2 Rb 0.91137(7) -0.07514(6) 0.27244(6)
Rb1A_2 Rb 0.08863(7) 0.07514(6) -0.27244(6)
Rb1A_3 Rb 1.08863(7) 0.07514(6) -0.27244(6)
Rb1A_4 Rb 0.08863(7) -0.92486(6) -1.27244(6)
Rb1_3 Rb 0.91137(7) -0.07514(6) -0.72756(6)
Rb2_2 Rb -0.37243(7) -1.01386(7) -1.18370(6)
Rb2A Rb -0.62757(7) -0.98614(7) -0.81630(6)
Rb2A_2 Rb 0.37243(7) -0.98614(7) -0.81630(6)
Rb2A_3 Rb 0.37243(7) 0.01386(7) 0.18370(6)
Rb2A_4 Rb 0.37243(7) 0.01386(7) -0.81630(6)
O2A O 0.8458(4) -0.2019(4) -0.2504(4)
O3A O -0.0662(4) -1.2395(4) -0.5113(4)
O4A O 0.2697(5) -1.0440(4) -0.5704(4)
O5A O 0.0505(4) -1.1909(5) -0.9616(4)
N1A N -0.0364(7) -1.4264(6) -0.8300(6)
N2A N -0.2980(6) -0.8678(5) -0.8458(5)
N2A_2 N 0.7020(6) 0.1322(5) 0.1542(5)
N3A N -0.3576(6) -1.2925(6) -1.0388(5)
N3A_2 N 0.6424(6) -0.2925(6) -0.0388(5)
N4_2 N -0.4564(6) -1.2248(6) -0.7093(5)
N4A N 0.4564(6) 0.2248(6) -0.2907(5)
H1A H 0.30208 -0.94067 -0.46999
H2A H 0.28598 -1.14137 -0.53549
H3A H 0.05914 -1.30177 -0.92635
H4A H -0.05734 -1.21097 -1.08025
loop_
_geom_bond_atom_site_label_1
_geom_bond_atom_site_label_2
_geom_bond_site_symmetry_1
_geom_bond_site_symmetry_2
Rb1 O2 1_555 1_555
Rb2 O1 1_555 1_555
O1 C2 1_555 1_555
O2 C4 1_555 1_555
O3 Rb1 1_555 1_555
O4 Rb2 1_555 1_555
O5 Rb2 1_555 1_555
N1 C7 1_555 1_555
N2 Rb2 1_555 1_555
N3 C10 1_555 1_555
N4 C11 1_555 1_555
C1 C2 1_555 1_555
C2 C3 1_555 1_555
C3 C4 1_555 1_555
C4 C5 1_555 1_555
C5 O3 1_555 1_555
C6 C1 1_555 1_555
C7 C6 1_555 1_555
C8 N2 1_555 1_555
C9 C3 1_555 1_555
C10 C9 1_555 1_555
C11 C9 1_555 1_555
H1 O4 1_555 1_555
H2 O4 1_555 1_555
H3 O5 1_555 1_555
H4 O5 1_555 1_555
Rb1A O3 1_555 1_555
Rb1_2 N2A_2 1_555 1_555
Rb1A_2 N2 1_555 1_555
Rb1A_3 O4 1_555 1_555
Rb1A_4 N3 1_555 1_555
Rb1_3 N4 1_555 1_555
Rb2_2 N2A 1_555 1_555
Rb2A N2A 1_555 1_555
Rb2A_2 O2 1_555 1_555
Rb2A_3 N2 1_555 1_555
Rb2A_4 N4 1_555 1_555
O2A Rb2 1_555 1_555
O3A Rb1 1_555 1_555
O4A Rb1 1_555 1_555
O5A Rb1 1_555 1_555
N1A Rb1 1_555 1_555
N2A Rb1 1_555 1_555
N2A_2 Rb2 1_555 1_555
N3A Rb1 1_555 1_555
N3A_2 Rb2 1_555 1_555
N4_2 Rb1 1_555 1_555
N4A Rb2 1_555 1_555
H1A O4A 1_555 1_555
H2A O4A 1_555 1_555
H3A O5A 1_555 1_555
H4A O5A 1_555 1_555
O5 Rb1A_3 1_555 1_555
N1 Rb1A 1_555 1_555
N3 Rb2A_2 1_555 1_555
C1 C5 1_555 1_555
C6 C8 1_555 1_555
Rb1A O3A 1_555 1_555
Rb1_2 N3A_2 1_555 1_555
Rb1A_2 N4A 1_555 1_555
Rb1A_3 O2A 1_555 1_555
Rb2_2 N3A 1_555 1_555
Rb2A N4_2 1_555 1_555
Rb2A_2 O4A 1_555 1_555
Rb2A_2 O5A 1_555 1_555
Rb2A_3 N2A_2 1_555 1_555

#END
