
#######################################################################
#
#                 Cambridge Crystallographic Data Centre
#                                CCDC 
#
#######################################################################
#
# If this CIF has been generated from an entry in the Cambridge 
# Structural Database, then it will include bibliographic, chemical, 
# crystal, experimental, refinement or atomic coordinate data resulting 
# from the CCDC's data processing and validation procedures.
#
#######################################################################

data_TEJYUC
_symmetry_cell_setting           monoclinic
_symmetry_space_group_name_H-M   'P 21/c'
_symmetry_Int_Tables_number      14
_space_group_name_Hall           '-P 2ybc'
loop_
_symmetry_equiv_pos_site_id
_symmetry_equiv_pos_as_xyz
1 x,y,z
2 -x,1/2+y,1/2-z
3 -x,-y,-z
4 x,1/2-y,1/2+z
_cell_length_a                   10.510(1)
_cell_length_b                   10.438(1)
_cell_length_c                   19.012(2)
_cell_angle_alpha                90
_cell_angle_beta                 103.552(7)
_cell_angle_gamma                90
_cell_volume                     2027.61
loop_
_atom_site_label
_atom_site_type_symbol
_atom_site_fract_x
_atom_site_fract_y
_atom_site_fract_z
Cd1 Cd 0.0000 0.0000 0.0000
Ni1 Ni -0.5 0.0000 0.0000
N1 N 0.0735(4) -0.1606(5) 0.0862(3)
N2 N 0.0478(5) -0.8361(5) 0.0926(3)
N3 N -0.2108(4) -0.0222(5) 0.0163(3)
N4 N -0.4684(6) -0.1150(7) 0.1491(3)
C1 C -0.0091(6) -0.2405(7) 0.1070(4)
C2 C 0.0285(6) -0.3340(6) 0.1589(4)
C3 C 0.1585(6) -0.3500(5) 0.1925(3)
C4 C 0.2433(6) -0.2677(8) 0.1697(4)
C5 C 0.1999(6) -0.1774(7) 0.1197(4)
C6 C 0.2095(8) -0.4431(8) 0.2521(4)
C7 C 0.1207(8) -0.5530(7) 0.2616(4)
C8 C 0.0937(6) -0.6492(6) 0.2016(3)
C9 C -0.0295(7) -0.6862(7) 0.1655(4)
C10 C -0.0484(6) -0.7766(7) 0.1131(4)
C11 C -0.1674(8) -0.200(1) -0.1248(5)
C12 C 0.1930(8) -0.7101(9) 0.1798(5)
C13 C -0.3210(5) -0.0157(6) 0.0105(3)
C14 C -0.4814(5) -0.0716(7) 0.0922(4)
H1 H -0.100(6) -0.234(6) 0.082(3)
H2 H -0.033(6) -0.383(7) 0.171(3)
H3 H 0.322(6) -0.275(6) 0.185(3)
H4 H 0.258(6) -0.124(7) 0.107(3)
H5 H 0.230(6) -0.400(6) 0.295(3)
H6 H 0.280(6) -0.476(6) 0.248(3)
H7 H 0.163(6) -0.599(7) 0.302(4)
H8 H 0.041(6) -0.525(6) 0.268(3)
H9 H -0.102(6) -0.644(7) 0.179(4)
H10 H 0.130(6) -0.201(7) -0.090(4)
H11 H -0.229(6) -0.167(7) -0.115(4)
H12 H 0.265(7) -0.681(8) 0.201(4)
N2_2 N 0.0478(5) 0.1639(5) 0.0926(3)
Cd1_2 Cd 0.0000 -1.0000 0.0000
N1B N -0.0735(4) -0.8394(5) -0.0862(3)
C1B C 0.0091(6) -0.7595(7) -0.1070(4)
C2B C -0.0285(6) -0.6660(6) -0.1589(4)
C3B C -0.1585(6) -0.6500(5) -0.1925(3)
C4B C -0.2433(6) -0.7323(8) -0.1697(4)
C5B C -0.1999(6) -0.8226(7) -0.1197(4)
H4B H -0.258(6) -0.876(7) -0.107(3)
H3B H -0.322(6) -0.725(6) -0.185(3)
C6B C -0.2095(8) -0.5569(8) -0.2521(4)
C7B C -0.1207(8) -0.4470(7) -0.2616(4)
C8B C -0.0937(6) -0.3508(6) -0.2016(3)
C9B C 0.0295(7) -0.3138(7) -0.1655(4)
C10B C 0.0484(6) -0.2234(7) -0.1131(4)
N2B N -0.0478(5) -0.1639(5) -0.0926(3)
N1B_2 N -0.0735(4) 0.1606(5) -0.0862(3)
C13B C -0.6790(5) 0.0157(6) -0.0105(3)
N3B N -0.7892(4) 0.0222(5) -0.0163(3)
Cd1_3 Cd -1.0000 0.0000 0.0000
C14B C -0.5186(5) 0.0716(7) -0.0922(4)
N4B N -0.5316(6) 0.1150(7) -0.1491(3)
N3B_2 N 0.2108(4) 0.0222(5) -0.0163(3)
C12B C -0.1930(8) -0.2899(9) -0.1798(5)
H12B H -0.265(7) -0.319(8) -0.201(4)
H9B H 0.102(6) -0.356(7) -0.179(4)
H7B H -0.163(6) -0.401(7) -0.302(4)
H8B H -0.041(6) -0.475(6) -0.268(3)
H5B H -0.230(6) -0.600(6) -0.295(3)
H6B H -0.280(6) -0.524(6) -0.248(3)
H2B H 0.033(6) -0.617(7) -0.171(3)
H1B H 0.100(6) -0.766(6) -0.082(3)
C11B C 0.1674(8) -0.800(1) 0.1248(5)
H11B H 0.229(6) -0.833(7) 0.115(4)
H10B H -0.130(6) -0.799(7) 0.090(4)
C15 C 0.386(1) -0.494(2) -0.1615(6)
C16 C 0.431(1) -0.371(2) -0.1642(9)
C17 C 0.425(2) -0.300(1) -0.108(1)
C18 C 0.379(1) -0.344(1) -0.051(1)
C19 C 0.335(1) -0.466(1) -0.0501(7)
C20 C 0.3378(9) -0.544(1) -0.1044(6)
C21 C 0.386(2) -0.570(2) -0.218(1)
C22 C 0.284(1) -0.512(2) 0.0142(7)
H13 H 0.462(1) -0.340(2) -0.2027(9)
H14 H 0.453(1) -0.216(1) -0.106(1)
H15 H 0.378(1) -0.290(1) -0.013(1)
H16 H 0.3091(9) -0.629(1) -0.1048(6)
H17 H 0.46(2) -0.55(2) -0.240(9)
H18 H 0.30(1) -0.56(2) -0.253(7)
H19 H 0.40(3) -0.66(3) -0.202(3)
H20 H 0.31(1) -0.599(5) 0.025(6)
H21 H 0.32(1) -0.459(9) 0.055(3)
H22 H 0.19(2) -0.51(2) 0.002(4)
loop_
_geom_bond_atom_site_label_1
_geom_bond_atom_site_label_2
_geom_bond_site_symmetry_1
_geom_bond_site_symmetry_2
Cd1 N1 1_555 1_555
Ni1 C13 1_555 1_555
N1 C1 1_555 1_555
N2 C10 1_555 1_555
N3 Cd1 1_555 1_555
N4 C14 1_555 1_555
C1 C2 1_555 1_555
C2 C3 1_555 1_555
C3 C4 1_555 1_555
C4 C5 1_555 1_555
C5 N1 1_555 1_555
C6 C3 1_555 1_555
C7 C6 1_555 1_555
C8 C7 1_555 1_555
C9 C8 1_555 1_555
C10 C9 1_555 1_555
C11 H11 1_555 1_555
C12 C8 1_555 1_555
C13 N3 1_555 1_555
C14 Ni1 1_555 1_555
C15 C16 1_555 1_555
C16 C17 1_555 1_555
C17 C18 1_555 1_555
C18 C19 1_555 1_555
C19 C20 1_555 1_555
C20 C15 1_555 1_555
C21 C15 1_555 1_555
C22 C19 1_555 1_555
H1 C1 1_555 1_555
H2 C2 1_555 1_555
H3 C4 1_555 1_555
H4 C5 1_555 1_555
H5 C6 1_555 1_555
H6 C6 1_555 1_555
H7 C7 1_555 1_555
H8 C7 1_555 1_555
H9 C9 1_555 1_555
H10 C10B 1_555 1_555
H12 C12 1_555 1_555
H13 C16 1_555 1_555
H14 C17 1_555 1_555
H15 C18 1_555 1_555
H16 C20 1_555 1_555
H17 C21 1_555 1_555
H18 C21 1_555 1_555
H19 C21 1_555 1_555
H20 C22 1_555 1_555
H21 C22 1_555 1_555
H22 C22 1_555 1_555
N2_2 Cd1 1_555 1_555
Cd1_2 N2 1_555 1_555
N1B Cd1_2 1_555 1_555
C1B N1B 1_555 1_555
C2B C1B 1_555 1_555
C3B C2B 1_555 1_555
C4B C3B 1_555 1_555
C5B N1B 1_555 1_555
H4B C5B 1_555 1_555
H3B C4B 1_555 1_555
C6B C3B 1_555 1_555
C7B C6B 1_555 1_555
C8B C7B 1_555 1_555
C9B C8B 1_555 1_555
C10B C9B 1_555 1_555
N2B Cd1 1_555 1_555
N1B_2 Cd1 1_555 1_555
C13B Ni1 1_555 1_555
N3B C13B 1_555 1_555
Cd1_3 N3B 1_555 1_555
C14B Ni1 1_555 1_555
N4B C14B 1_555 1_555
N3B_2 Cd1 1_555 1_555
C12B C11 1_555 1_555
H12B C12B 1_555 1_555
H9B C9B 1_555 1_555
H7B C7B 1_555 1_555
H8B C7B 1_555 1_555
H5B C6B 1_555 1_555
H6B C6B 1_555 1_555
H2B C2B 1_555 1_555
H1B C1B 1_555 1_555
C11B N2 1_555 1_555
H11B C11B 1_555 1_555
H10B C10 1_555 1_555
C11 N2B 1_555 1_555
C12 C11B 1_555 1_555
C4B C5B 1_555 1_555
C8B C12B 1_555 1_555
C10B N2B 1_555 1_555

#END
