
#######################################################################
#
#                 Cambridge Crystallographic Data Centre
#                                CCDC 
#
#######################################################################
#
# If this CIF has been generated from an entry in the Cambridge 
# Structural Database, then it will include bibliographic, chemical, 
# crystal, experimental, refinement or atomic coordinate data resulting 
# from the CCDC's data processing and validation procedures.
#
#######################################################################

data_TEJYAI
_symmetry_cell_setting           monoclinic
_symmetry_space_group_name_H-M   'I 2/a'
_symmetry_Int_Tables_number      15
_space_group_name_Hall           '-I 2ya'
loop_
_symmetry_equiv_pos_site_id
_symmetry_equiv_pos_as_xyz
1 x,y,z
2 1/2-x,y,-z
3 1/2+x,1/2+y,1/2+z
4 -x,1/2+y,1/2-z
5 -x,-y,-z
6 1/2+x,-y,z
7 1/2-x,1/2-y,1/2-z
8 x,1/2-y,1/2+z
_cell_length_a                   13.032(4)
_cell_length_b                   11.948(4)
_cell_length_c                   16.295(5)
_cell_angle_alpha                90
_cell_angle_beta                 103.83(2)
_cell_angle_gamma                90
_cell_volume                     2463.68
loop_
_atom_site_label
_atom_site_type_symbol
_atom_site_fract_x
_atom_site_fract_y
_atom_site_fract_z
Ag1 Ag 0.29399(2) 0.11486(2) 0.13134(2)
S1 S 0.01956(6) 0.17163(6) 0.02077(5)
F1 F 0.1376(2) 0.3460(2) 0.0132(2)
F2 F 0.0249(3) 0.3726(2) 0.0846(2)
F3 F -0.0227(2) 0.3663(2) -0.0513(2)
O1 O 0.0470(2) 0.1324(2) -0.05436(15)
O2 O 0.0903(2) 0.1384(2) 0.0988(2)
O3 O -0.0909(2) 0.1635(2) 0.0194(2)
O4 O 0.2500 0.0065(3) 0.0000
H1 H 0.2935(24) -0.0341(28) -0.0003(22)
N1 N 0.3263(2) 0.2879(2) 0.1786(2)
N2 N 0.3423(2) -0.0531(2) 0.1964(2)
C1 C 0.3327(3) 0.3821(2) 0.1854(2)
C2 C 0.3391(2) 0.5021(2) 0.1890(2)
C3 C 0.4051(2) 0.5559(2) 0.2574(2)
H2 H 0.4463 0.5145 0.3015
C4 C 0.4087(2) 0.6711(2) 0.2591(2)
H3 H 0.4533 0.7082 0.3039
C5 C 0.3451(2) 0.7314(2) 0.1931(2)
C6 C 0.2781(2) 0.6769(3) 0.1254(2)
H4 H 0.2357 0.7181 0.0818
C7 C 0.2749(3) 0.5631(3) 0.1235(2)
H5 H 0.2302 0.5261 0.0787
C8 C 0.1542(2) 0.8518(3) -0.1953(2)
C9 C 0.0399(3) 0.3216(3) 0.0175(3)
Ag1A Ag 0.20601(2) 0.11486(2) -0.13134(2)
O2A O 0.4097(2) 0.1384(2) -0.0988(2)
S1A S 0.48044(6) 0.17163(6) -0.02077(5)
O1A O 0.4530(2) 0.1324(2) 0.05436(15)
O3A O 0.5909(2) 0.1635(2) -0.0194(2)
C9A C 0.4601(3) 0.3216(3) -0.0175(3)
F1A F 0.3624(2) 0.3460(2) -0.0132(2)
F2A F 0.4751(3) 0.3726(2) -0.0846(2)
F3A F 0.5227(2) 0.3663(2) 0.0513(2)
N1A N 0.1737(2) 0.2879(2) -0.1786(2)
C1A C 0.1673(3) 0.3821(2) -0.1854(2)
C2A C 0.1609(2) 0.5021(2) -0.1890(2)
C3A C 0.0949(2) 0.5559(2) -0.2574(2)
H2A H 0.0537 0.5145 -0.3015
C4A C 0.0913(2) 0.6711(2) -0.2591(2)
H3A H 0.0467 0.7082 -0.3039
C5A C 0.1549(2) 0.7314(2) -0.1931(2)
C6A C 0.2219(2) 0.6769(3) -0.1254(2)
H4A H 0.2643 0.7181 -0.0818
C7A C 0.2251(3) 0.5631(3) -0.1235(2)
H5A H 0.2698 0.5261 -0.0787
N2A N 0.1577(2) 0.9469(2) -0.1964(2)
Ag1A_2 Ag 0.20601(2) 1.11486(2) -0.13134(2)
Ag1_2 Ag 0.29399(2) 1.11486(2) 0.13134(2)
N2_2 N 0.3423(2) 0.9469(2) 0.1964(2)
C8A C 0.3458(2) 0.8518(3) 0.1953(2)
N2A_2 N 0.1577(2) -0.0531(2) -0.1964(2)
H1A H 0.2065(24) -0.0341(28) 0.0003(22)
loop_
_geom_bond_atom_site_label_1
_geom_bond_atom_site_label_2
_geom_bond_site_symmetry_1
_geom_bond_site_symmetry_2
Ag1 O2 1_555 1_555
S1 O1 1_555 1_555
F1 C9 1_555 1_555
F2 C9 1_555 1_555
F3 C9 1_555 1_555
O2 S1 1_555 1_555
O3 S1 1_555 1_555
O4 Ag1 1_555 1_555
H1 O4 1_555 1_555
N1 Ag1 1_555 1_555
N2 Ag1 1_555 1_555
C1 N1 1_555 1_555
C2 C1 1_555 1_555
C3 C2 1_555 1_555
H2 C3 1_555 1_555
C4 C3 1_555 1_555
H3 C4 1_555 1_555
C5 C4 1_555 1_555
C6 C5 1_555 1_555
H4 C6 1_555 1_555
C7 C2 1_555 1_555
H5 C7 1_555 1_555
C8 C5A 1_555 1_555
C9 S1 1_555 1_555
Ag1A O4 1_555 1_555
O2A Ag1A 1_555 1_555
S1A O2A 1_555 1_555
O1A S1A 1_555 1_555
O3A S1A 1_555 1_555
C9A S1A 1_555 1_555
F1A C9A 1_555 1_555
F2A C9A 1_555 1_555
F3A C9A 1_555 1_555
N1A Ag1A 1_555 1_555
C1A N1A 1_555 1_555
C2A C1A 1_555 1_555
C3A C2A 1_555 1_555
H2A C3A 1_555 1_555
C4A C3A 1_555 1_555
H3A C4A 1_555 1_555
C5A C4A 1_555 1_555
C6A C5A 1_555 1_555
H4A C6A 1_555 1_555
C7A C2A 1_555 1_555
H5A C7A 1_555 1_555
N2A C8 1_555 1_555
Ag1A_2 N2A 1_555 1_555
Ag1_2 N2_2 1_555 1_555
N2_2 C8A 1_555 1_555
C8A C5 1_555 1_555
N2A_2 Ag1A 1_555 1_555
H1A O4 1_555 1_555
C6 C7 1_555 1_555
C6A C7A 1_555 1_555

#END
