
#######################################################################
#
#                 Cambridge Crystallographic Data Centre
#                                CCDC 
#
#######################################################################
#
# If this CIF has been generated from an entry in the Cambridge 
# Structural Database, then it will include bibliographic, chemical, 
# crystal, experimental, refinement or atomic coordinate data resulting 
# from the CCDC's data processing and validation procedures.
#
#######################################################################

data_TEJZUD
_symmetry_cell_setting           triclinic
_symmetry_space_group_name_H-M   'P -1'
_symmetry_Int_Tables_number      2
_space_group_name_Hall           '-P 1'
loop_
_symmetry_equiv_pos_site_id
_symmetry_equiv_pos_as_xyz
1 x,y,z
2 -x,-y,-z
_cell_length_a                   4.8797(11)
_cell_length_b                   12.1550(10)
_cell_length_c                   14.7338(16)
_cell_angle_alpha                68.364(10)
_cell_angle_beta                 86.482(12)
_cell_angle_gamma                78.770(11)
_cell_volume                     796.726
loop_
_atom_site_label
_atom_site_type_symbol
_atom_site_fract_x
_atom_site_fract_y
_atom_site_fract_z
Pb1 Pb 0.35950(6) 0.37081(2) 0.32420(2)
O1 O -0.0242(9) 0.5389(4) 0.3134(3)
O2 O 0.2808(9) 0.5216(4) 0.4229(3)
O3 O -0.6471(12) 1.0940(5) 0.3274(4)
O4 O -0.3232(12) 1.0801(4) 0.4265(4)
O5 O 0.2351(10) 0.6750(4) 0.5077(3)
O6 O 0.2464(10) 0.3930(4) 0.1594(3)
O7 O -0.0837(10) 0.3143(4) 0.2579(3)
O8 O -0.3967(17) 0.0829(6) -0.0777(5)
O9 O -0.1169(13) 0.1690(5) -0.1737(4)
O10 O 0.2542(9) 0.4056(4) -0.0190(3)
O11 O 0.5198(9) 0.5505(4) 0.2170(3)
N1 N -0.4430(10) 1.0381(5) 0.3791(4)
N2 N -0.2222(13) 0.1432(5) -0.0970(4)
C1 C -0.0838(12) 0.6914(5) 0.3817(4)
C2 C 0.0150(13) 0.7376(5) 0.4452(4)
C3 C -0.1037(14) 0.8509(5) 0.4460(4)
C4 C -0.3260(13) 0.9152(5) 0.3836(4)
C5 C -0.4377(14) 0.8732(6) 0.3210(5)
C6 C -0.3103(14) 0.7603(6) 0.3217(5)
C7 C 0.0674(13) 0.5763(5) 0.3733(4)
C8 C -0.0238(13) 0.2860(5) 0.1061(4)
C9 C 0.0793(13) 0.3239(5) 0.0119(4)
C10 C 0.0125(14) 0.2768(6) -0.0546(4)
C11 C -0.1525(15) 0.1915(6) -0.0242(5)
C12 C -0.2603(15) 0.1489(6) 0.0688(5)
C13 C -0.1935(15) 0.2006(6) 0.1322(5)
C14 C 0.0447(14) 0.3342(6) 0.1795(4)
H1 H -0.028 0.886 0.493
H2 H -0.611 0.924 0.276
H3 H 0.273 0.613 0.495
H4 H -0.389 0.726 0.275
H5 H 0.088 0.305 -0.126
H6 H 0.303 0.420 0.031
H7 H -0.383 0.082 0.090
H8 H -0.276 0.174 0.203
H9 H 0.661 0.552 0.243
H10 H 0.541 0.561 0.155
O5A O 0.7649(10) 0.3250(4) 0.4923(3)
O7_2 O 0.9163(10) 0.3143(4) 0.2579(3)
Pb1A Pb 0.64050(6) 0.62919(2) 0.67580(2)
Pb1_2 Pb -0.64050(6) 0.37081(2) 0.32420(2)
H3A H 0.727 0.387 0.505
loop_
_geom_bond_atom_site_label_1
_geom_bond_atom_site_label_2
_geom_bond_site_symmetry_1
_geom_bond_site_symmetry_2
Pb1 O1 1_555 1_555
O1 C7 1_555 1_555
O2 Pb1 1_555 1_555
O3 N1 1_555 1_555
O4 N1 1_555 1_555
O5 C2 1_555 1_555
O6 Pb1 1_555 1_555
O7 Pb1 1_555 1_555
O8 N2 1_555 1_555
O9 N2 1_555 1_555
O10 C9 1_555 1_555
O11 Pb1 1_555 1_555
N1 C4 1_555 1_555
N2 C11 1_555 1_555
C1 C2 1_555 1_555
C2 C3 1_555 1_555
C3 C4 1_555 1_555
C4 C5 1_555 1_555
C5 C6 1_555 1_555
C6 C1 1_555 1_555
C7 O2 1_555 1_555
C8 C9 1_555 1_555
C9 C10 1_555 1_555
C10 C11 1_555 1_555
C11 C12 1_555 1_555
C12 C13 1_555 1_555
C13 C8 1_555 1_555
C14 O6 1_555 1_555
H1 C3 1_555 1_555
H2 C5 1_555 1_555
H3 O5 1_555 1_555
H4 C6 1_555 1_555
H5 C10 1_555 1_555
H6 O10 1_555 1_555
H7 C12 1_555 1_555
H8 C13 1_555 1_555
H9 O11 1_555 1_555
H10 O11 1_555 1_555
O5A Pb1 1_555 1_555
O7_2 Pb1 1_555 1_555
Pb1A O5 1_555 1_555
Pb1_2 O7 1_555 1_555
H3A O5A 1_555 1_555
O7 C14 1_555 1_555
C1 C7 1_555 1_555
C8 C14 1_555 1_555

#END
