
#######################################################################
#
#                 Cambridge Crystallographic Data Centre
#                                CCDC 
#
#######################################################################
#
# If this CIF has been generated from an entry in the Cambridge 
# Structural Database, then it will include bibliographic, chemical, 
# crystal, experimental, refinement or atomic coordinate data resulting 
# from the CCDC's data processing and validation procedures.
#
#######################################################################

data_TEKDUI
_symmetry_cell_setting           monoclinic
_symmetry_space_group_name_H-M   'P 21'
_symmetry_Int_Tables_number      4
_space_group_name_Hall           'P 2yb'
loop_
_symmetry_equiv_pos_site_id
_symmetry_equiv_pos_as_xyz
1 x,y,z
2 -x,1/2+y,-z
_cell_length_a                   9.003(2)
_cell_length_b                   11.142(3)
_cell_length_c                   7.568(2)
_cell_angle_alpha                90
_cell_angle_beta                 99.51(2)
_cell_angle_gamma                90
_cell_volume                     748.724
loop_
_atom_site_label
_atom_site_type_symbol
_atom_site_fract_x
_atom_site_fract_y
_atom_site_fract_z
Mn1 Mn -0.23860(2) 0.50000(2) -0.23011(3)
Mn2 Mn -0.21388(3) 0.01228(2) -0.35574(2)
C1 C -0.4940(2) 0.35981(2) -0.12692(3)
C2 C -0.4953(2) 0.30372(3) -0.31318(3)
C3 C -0.4930(2) 0.16724(3) -0.30184(3)
C4 C -0.5214(2) 0.11348(4) -0.48930(4)
O1 O -0.3953(2) 0.43893(3) -0.07164(3)
O2 O -0.5906(2) 0.31980(3) -0.04409(4)
O3 O -0.3658(2) 0.34702(3) -0.38432(3)
O4 O -0.3535(3) 0.12489(3) -0.21070(3)
O5 O -0.4141(3) 0.06451(4) -0.54383(3)
O6 O -0.6501(2) 0.12865(4) -0.58242(3)
C5 C 0.0554(3) 0.10850(3) -0.11174(3)
C6 C 0.0517(2) 0.19938(3) -0.26266(3)
C7 C 0.0453(2) 0.32572(3) -0.19770(3)
C8 C 0.0426(3) 0.41576(4) -0.35415(3)
O7 O -0.0314(6) 0.01948(3) -0.13900(4)
O8 O 0.1501(4) 0.12407(3) 0.02485(4)
O9 O -0.0768(4) 0.17638(4) -0.39942(4)
O10 O -0.0793(3) 0.34674(3) -0.10941(4)
O11 O -0.0573(5) 0.49098(4) -0.38197(5)
O12 O 0.1481(7) 0.40440(4) -0.44235(4)
O13 O -0.3113(6) -0.14202(3) -0.25969(5)
H1 H -0.58699(19) 0.32905(30) -0.39283(35)
H2 H -0.57295(19) 0.14085(33) -0.2372(34)
H3 H 0.1433(42) 0.1898(53) -0.31544(32)
H4 H 0.1372(46) 0.3406(54) -0.11137(30)
Mn1A Mn -0.76140(2) 0.00000(2) -0.76989(3)
O6A O -0.3499(2) 0.62865(4) -0.41758(3)
O8A O -0.1501(4) 0.62407(3) -0.02485(4)
O12A O -0.1481(7) -0.09560(4) -0.55765(4)
Mn1A_2 Mn 0.23860(2) 0.00000(2) 0.23011(3)
Mn2A Mn 0.21388(3) 0.51228(2) -0.64426(2)
O14 O -0.6995(6) -0.38260(5) -0.13452(4)
O15 O -0.7046(7) -0.10308(4) -0.28571(4)
O16 O -0.9401(8) -0.24733(5) -0.27429(6)
loop_
_geom_bond_atom_site_label_1
_geom_bond_atom_site_label_2
_geom_bond_site_symmetry_1
_geom_bond_site_symmetry_2
Mn1 O1 1_555 1_555
Mn2 O4 1_555 1_555
C1 C2 1_555 1_555
C2 C3 1_555 1_555
C3 C4 1_555 1_555
C4 O5 1_555 1_555
O1 C1 1_555 1_555
O2 C1 1_555 1_555
O3 Mn1 1_555 1_555
O4 C3 1_555 1_555
O5 Mn2 1_555 1_555
O6 C4 1_555 1_555
C5 C6 1_555 1_555
C6 C7 1_555 1_555
C7 C8 1_555 1_555
C8 O11 1_555 1_555
O7 Mn2 1_555 1_555
O8 C5 1_555 1_555
O9 Mn2 1_555 1_555
O10 Mn1 1_555 1_555
O11 Mn1 1_555 1_555
O12 C8 1_555 1_555
O13 Mn2 1_555 1_555
H1 C2 1_555 1_555
H2 C3 1_555 1_555
H3 C6 1_555 1_555
H4 C7 1_555 1_555
Mn1A O6 1_555 1_555
O6A Mn1 1_555 1_555
O8A Mn1 1_555 1_555
O12A Mn2 1_555 1_555
Mn1A_2 O8 1_555 1_555
Mn2A O12 1_555 1_555
C2 O3 1_555 1_555
C5 O7 1_555 1_555
C6 O9 1_555 1_555
C7 O10 1_555 1_555

#END
