
#######################################################################
#
#                 Cambridge Crystallographic Data Centre
#                                CCDC 
#
#######################################################################
#
# If this CIF has been generated from an entry in the Cambridge 
# Structural Database, then it will include bibliographic, chemical, 
# crystal, experimental, refinement or atomic coordinate data resulting 
# from the CCDC's data processing and validation procedures.
#
#######################################################################

data_TEKDUI01
_symmetry_cell_setting           monoclinic
_symmetry_space_group_name_H-M   'P 21'
_symmetry_Int_Tables_number      4
_space_group_name_Hall           'P 2yb'
loop_
_symmetry_equiv_pos_site_id
_symmetry_equiv_pos_as_xyz
1 x,y,z
2 -x,1/2+y,-z
_cell_length_a                   7.5973(3)
_cell_length_b                   11.1598(5)
_cell_length_c                   8.9573(4)
_cell_angle_alpha                90
_cell_angle_beta                 99.404(2)
_cell_angle_gamma                90
_cell_volume                     749.233
loop_
_atom_site_label
_atom_site_type_symbol
_atom_site_fract_x
_atom_site_fract_y
_atom_site_fract_z
Mn1 Mn -0.14439(8) 0.20028(6) -0.28485(7)
Mn2 Mn -0.26950(8) 0.68956(7) -0.26347(7)
O1 O 0.0816(4) 0.3176(3) 0.1515(4)
O2 O 0.0450(4) 0.2513(3) -0.0853(4)
O3 O -0.2885(4) 0.3118(3) -0.1448(4)
H1 H -0.4009 0.3176 -0.1497
O4 O -0.1141(4) 0.5337(3) -0.1367(4)
H2 H -0.1388 0.4836 -0.2085
O5 O -0.4260(4) 0.6280(3) -0.1045(4)
O6 O -0.4599(5) 0.5054(4) 0.0853(4)
O7 O -0.5269(5) 0.3144(3) -0.6482(4)
O8 O -0.3609(4) 0.2075(4) -0.4689(3)
O9 O -0.1044(5) 0.3653(4) -0.4201(5)
H3 H -0.0582 0.4309 -0.3848
O10 O -0.3916(4) 0.5373(3) -0.4251(4)
H4 H -0.4835 0.5810 -0.4497
O11 O -0.1188(5) 0.6802(4) -0.4432(4)
O12 O -0.0563(5) 0.5908(3) -0.6507(4)
C1 C -0.0100(6) 0.3047(4) 0.0222(5)
C2 C -0.1965(6) 0.3557(4) -0.0054(5)
H5 H -0.2607 0.3296 0.0780
C3 C -0.1891(6) 0.4930(4) -0.0080(5)
H6 H -0.1099 0.5207 0.0859
C4 C -0.3734(6) 0.5458(4) -0.0092(5)
C5 C -0.3878(6) 0.2965(4) -0.5551(5)
C6 C -0.2376(7) 0.3887(5) -0.5500(6)
H7 H -0.1811 0.3770 -0.6423
C7 C -0.3034(6) 0.5170(4) -0.5508(5)
H8 H -0.3897 0.5312 -0.6460
C8 C -0.1450(7) 0.6026(5) -0.5471(5)
O13 O -0.2417(5) 0.0445(3) -0.1881(5)
H9 H -0.1983 -0.0213 -0.2002
H10 H -0.3392 0.0329 -0.1626
Mn1A Mn 0.14439(8) 0.70028(6) -0.71515(7)
Mn2A Mn 0.26950(8) 0.18956(7) 0.26347(7)
Mn2A_2 Mn -0.73050(8) 0.18956(7) -0.73653(7)
O1A O -0.0816(4) 0.8176(3) -0.1515(4)
O7A O -0.4731(5) 0.8144(3) -0.3518(4)
O12A O 0.0563(5) 0.0908(3) -0.3493(4)
O14 O -0.6284(6) 0.2979(6) -0.1963(6)
H11 H -0.6970 0.2769 -0.1395
H12 H -0.6789 0.3501 -0.2517
O15 O -0.2189(6) 0.0968(6) -0.7872(6)
H13 H -0.3156 0.1222 -0.8294
H14 H -0.1440 0.1178 -0.8383
O16 O -0.7730(9) 0.4347(6) -0.4302(7)
H15 H -0.7506 0.4273 -0.5167
H16 H -0.7510 0.5049 -0.4055
loop_
_geom_bond_atom_site_label_1
_geom_bond_atom_site_label_2
_geom_bond_site_symmetry_1
_geom_bond_site_symmetry_2
Mn1 O2 1_555 1_555
Mn2 O4 1_555 1_555
O1 C1 1_555 1_555
O2 C1 1_555 1_555
O3 Mn1 1_555 1_555
H1 O3 1_555 1_555
O4 H2 1_555 1_555
O5 Mn2 1_555 1_555
O6 C4 1_555 1_555
O7 C5 1_555 1_555
O8 Mn1 1_555 1_555
O9 Mn1 1_555 1_555
H3 O9 1_555 1_555
O10 Mn2 1_555 1_555
H4 O10 1_555 1_555
O11 Mn2 1_555 1_555
O12 C8 1_555 1_555
C1 C2 1_555 1_555
C2 O3 1_555 1_555
H5 C2 1_555 1_555
C3 O4 1_555 1_555
H6 C3 1_555 1_555
C4 O5 1_555 1_555
C5 O8 1_555 1_555
C6 O9 1_555 1_555
H7 C6 1_555 1_555
C7 O10 1_555 1_555
H8 C7 1_555 1_555
C8 O11 1_555 1_555
O13 Mn1 1_555 1_555
H9 O13 1_555 1_555
H10 O13 1_555 1_555
O14 H11 1_555 1_555
H12 O14 1_555 1_555
O15 H13 1_555 1_555
H14 O15 1_555 1_555
O16 H15 1_555 1_555
H16 O16 1_555 1_555
Mn1A O12 1_555 1_555
Mn2A O1 1_555 1_555
Mn2A_2 O7 1_555 1_555
O1A Mn2 1_555 1_555
O7A Mn2 1_555 1_555
O12A Mn1 1_555 1_555
C2 C3 1_555 1_555
C3 C4 1_555 1_555
C5 C6 1_555 1_555
C6 C7 1_555 1_555
C7 C8 1_555 1_555

#END
