
#######################################################################
#
#                 Cambridge Crystallographic Data Centre
#                                CCDC 
#
#######################################################################
#
# If this CIF has been generated from an entry in the Cambridge 
# Structural Database, then it will include bibliographic, chemical, 
# crystal, experimental, refinement or atomic coordinate data resulting 
# from the CCDC's data processing and validation procedures.
#
#######################################################################

data_TEKFEU
_symmetry_cell_setting           orthorhombic
_symmetry_space_group_name_H-M   'P n a 21'
_symmetry_Int_Tables_number      33
_space_group_name_Hall           'P 2c -2n'
loop_
_symmetry_equiv_pos_site_id
_symmetry_equiv_pos_as_xyz
1 x,y,z
2 -x,-y,1/2+z
3 1/2-x,1/2+y,1/2+z
4 1/2+x,1/2-y,z
_cell_length_a                   10.6814(15)
_cell_length_b                   20.220(5)
_cell_length_c                   11.467(2)
_cell_angle_alpha                90
_cell_angle_beta                 90
_cell_angle_gamma                90
_cell_volume                     2476.62
loop_
_atom_site_label
_atom_site_type_symbol
_atom_site_fract_x
_atom_site_fract_y
_atom_site_fract_z
O1 O 0.5456(5) 1.0921(3) 0.5219(6)
O2 O 0.4181(5) 0.9961(3) 0.4644(4)
O3 O 0.2830(5) 1.2059(3) -0.0067(7)
O4 O 0.3488(5) 1.2917(3) 0.1330(5)
O5 O 0.1777(5) 0.7184(3) 0.1655(5)
O6 O -0.0175(5) 0.6971(3) 0.2732(5)
C1 C 0.7694(7) 0.9902(4) 0.1639(6)
C2 C 0.7066(7) 0.9391(4) 0.2163(7)
H1 H 0.7096(7) 0.8974(4) 0.1823(7)
C3 C 0.6389(7) 0.9476(4) 0.3184(7)
H2 H 0.5971(7) 0.9122(4) 0.3525(7)
C4 C 0.6349(7) 1.0098(4) 0.3683(6)
C5 C 0.6998(7) 1.0619(4) 0.3196(6)
H3 H 0.6997(7) 1.1033(4) 0.3552(6)
C6 C 0.7644(8) 1.0518(4) 0.2178(6)
H4 H 0.8061(8) 1.0872(4) 0.1836(6)
C7 C 0.6048(9) 0.9765(5) 0.6041(8)
H5 H 0.6081(46) 0.9309(7) 0.5813(20)
H6 H 0.5542(29) 0.9809(21) 0.6729(16)
H7 H 0.6879(20) 0.9921(18) 0.6201(32)
C8 C 0.1797(7) 1.0987(4) 0.3814(6)
C9 C 0.1069(8) 1.0987(5) 0.2826(7)
H8 H 0.0426(8) 1.0680(5) 0.2746(7)
C10 C 0.1293(8) 1.1445(4) 0.1945(7)
H9 H 0.0839(8) 1.1430(4) 0.1254(7)
C11 C 0.2188(7) 1.1916(4) 0.2110(7)
C12 C 0.2897(8) 1.1931(4) 0.3105(8)
H10 H 0.3515(8) 1.2250(4) 0.3198(8)
C13 C 0.2686(8) 1.1470(4) 0.3965(6)
H11 H 0.3147(8) 1.1486(4) 0.4652(6)
C14 C 0.1158(7) 1.2894(4) 0.0647(8)
H12 H 0.1300(13) 1.3210(17) 0.0037(29)
H13 H 0.0896(24) 1.3120(18) 0.1341(14)
H14 H 0.0519(14) 1.2589(6) 0.0410(39)
C15 C 0.1108(7) 0.9298(4) 0.4053(6)
C16 C 0.2090(8) 0.9006(4) 0.3485(7)
H15 H 0.2881(8) 0.9197(4) 0.3530(7)
C17 C 0.1928(7) 0.8440(4) 0.2854(7)
H16 H 0.2598(7) 0.8246(4) 0.2466(7)
C18 C 0.0760(7) 0.8163(4) 0.2803(7)
C19 C -0.0262(7) 0.8440(4) 0.3350(6)
H17 H -0.1047(7) 0.8244(4) 0.3301(6)
C20 C -0.0084(8) 0.9022(4) 0.3978(7)
H18 H -0.0758(8) 0.9226(4) 0.4345(7)
C21 C -0.0290(8) 0.7613(4) 0.0791(7)
H19 H -0.1091(18) 0.7784(21) 0.1020(7)
H20 H -0.0406(38) 0.7228(6) 0.0314(21)
H21 H 0.0156(21) 0.7944(17) 0.0356(22)
Sn1 Sn 0.13937(4) 1.01999(2) 0.50140(4)
Cl1 Cl -0.0684(2) 1.04799(11) 0.5572(2)
S1 S 0.5391(2) 1.02347(12) 0.4911(3)
S2 S 0.2553(2) 1.24591(11) 0.0929(2)
S3 S 0.0568(2) 0.74021(10) 0.2032(2)
Sn1A Sn 0.86063(4) 0.98001(2) 0.00140(4)
C1A C 0.2306(7) 1.0098(4) 0.6639(6)
loop_
_geom_bond_atom_site_label_1
_geom_bond_atom_site_label_2
_geom_bond_site_symmetry_1
_geom_bond_site_symmetry_2
O1 S1 1_555 1_555
O2 Sn1 1_555 1_555
O3 S2 1_555 1_555
O4 S2 1_555 1_555
O5 S3 1_555 1_555
O6 S3 1_555 1_555
C1 C2 1_555 1_555
C2 H1 1_555 1_555
C3 C2 1_555 1_555
H2 C3 1_555 1_555
C4 C3 1_555 1_555
C5 C4 1_555 1_555
H3 C5 1_555 1_555
C6 C1 1_555 1_555
H4 C6 1_555 1_555
C7 H5 1_555 1_555
H6 C7 1_555 1_555
H7 C7 1_555 1_555
C8 C9 1_555 1_555
C9 H8 1_555 1_555
C10 C9 1_555 1_555
H9 C10 1_555 1_555
C11 C10 1_555 1_555
C12 C11 1_555 1_555
H10 C12 1_555 1_555
C13 C8 1_555 1_555
H11 C13 1_555 1_555
C14 H12 1_555 1_555
H13 C14 1_555 1_555
H14 C14 1_555 1_555
C15 C16 1_555 1_555
C16 H15 1_555 1_555
C17 C16 1_555 1_555
H16 C17 1_555 1_555
C18 C17 1_555 1_555
C19 C18 1_555 1_555
H17 C19 1_555 1_555
C20 C15 1_555 1_555
H18 C20 1_555 1_555
C21 H19 1_555 1_555
H20 C21 1_555 1_555
H21 C21 1_555 1_555
Sn1 C8 1_555 1_555
Cl1 Sn1 1_555 1_555
S1 O2 1_555 1_555
S2 C11 1_555 1_555
S3 C18 1_555 1_555
Sn1A C1 1_555 1_555
C1A Sn1 1_555 1_555
C4 S1 1_555 1_555
C5 C6 1_555 1_555
C7 S1 1_555 1_555
C12 C13 1_555 1_555
C14 S2 1_555 1_555
C15 Sn1 1_555 1_555
C19 C20 1_555 1_555
C21 S3 1_555 1_555

#END
