
#######################################################################
#
#                 Cambridge Crystallographic Data Centre
#                                CCDC 
#
#######################################################################
#
# If this CIF has been generated from an entry in the Cambridge 
# Structural Database, then it will include bibliographic, chemical, 
# crystal, experimental, refinement or atomic coordinate data resulting 
# from the CCDC's data processing and validation procedures.
#
#######################################################################

data_TEKLUS
_symmetry_cell_setting           triclinic
_symmetry_space_group_name_H-M   'P -1'
_symmetry_Int_Tables_number      2
_space_group_name_Hall           '-P 1'
loop_
_symmetry_equiv_pos_site_id
_symmetry_equiv_pos_as_xyz
1 x,y,z
2 -x,-y,-z
_cell_length_a                   9.6066(14)
_cell_length_b                   9.9659(14)
_cell_length_c                   10.9194(16)
_cell_angle_alpha                102.764(3)
_cell_angle_beta                 97.557(3)
_cell_angle_gamma                109.644(2)
_cell_volume                     935.824
loop_
_atom_site_label
_atom_site_type_symbol
_atom_site_fract_x
_atom_site_fract_y
_atom_site_fract_z
Ni1 Ni 0.0000 0.5000 0.5000
C1 C 0.2164(10) 0.8164(10) 0.5509(9)
C2 C 0.3659(11) 0.9157(10) 0.5282(10)
C3 C 0.5051(11) 0.9231(10) 0.5903(9)
C4 C 0.3628(11) 0.9937(10) 0.4379(10)
C5 C 0.2729(16) 0.3938(16) 0.5038(16)
H1 H 0.3373 0.4719 0.4751
H2 H 0.2905 0.3044 0.4723
H3 H 0.2951 0.4221 0.5963
C6 C -0.092(2) 0.5459(18) 0.2330(16)
H4 H -0.0954 0.6350 0.2861
H5 H -0.1808 0.4990 0.1638
H6 H -0.0032 0.5702 0.1982
I1 I 0.50490(8) 0.81310(8) 0.73457(7)
I2 I 0.14902(8) 0.97624(8) 0.34014(8)
O1 O 0.1748(8) 0.6811(7) 0.4893(8)
O2 O 0.1501(8) 0.8742(8) 0.6227(7)
O3 O 0.1215(9) 0.3691(9) 0.4569(10)
H10 H 0.0661 0.2809 0.4349
O4 O -0.0880(11) 0.4481(9) 0.3078(8)
H11 H -0.1666 0.3739 0.2835
Ni1_2 Ni 1.0000 1.5000 0.5000
C1A C 0.7836(10) 1.1836(10) 0.4491(9)
C2A C 0.6341(11) 1.0843(10) 0.4718(10)
C3A C 0.4949(11) 1.0769(10) 0.4097(9)
C4A C 0.6372(11) 1.0063(10) 0.5621(10)
C5A C -0.2729(16) 0.6062(16) 0.4962(16)
H1A H -0.3373 0.5281 0.5249
H2A H -0.2905 0.6956 0.5277
H3A H -0.2951 0.5779 0.4037
C6A C 0.092(2) 0.4541(18) 0.7670(16)
H4A H 0.0954 0.3650 0.7139
H5A H 0.1808 0.5010 0.8362
H6A H 0.0032 0.4298 0.8018
I1A I 0.49510(8) 1.18690(8) 0.26543(7)
I2A I 0.85098(8) 1.02376(8) 0.65986(8)
O1A O 0.8252(8) 1.3189(7) 0.5107(8)
O1A_2 O -0.1748(8) 0.3189(7) 0.5107(8)
O2A O 0.8499(8) 1.1258(8) 0.3773(7)
O3A O -0.1215(9) 0.6309(9) 0.5431(10)
H10A H -0.0661 0.7191 0.5651
O4A O 0.0880(11) 0.5519(9) 0.6922(8)
H11A H 0.1666 0.6261 0.7165
C7 C 0.6527(12) 0.8108(12) 0.1528(11)
C8 C 0.5761(12) 0.6462(11) 0.0782(10)
C9 C 0.4478(13) 0.5591(12) 0.1049(10)
C10 C 0.3690(12) 0.4075(11) 0.0273(10)
I3 I 0.36992(9) 0.64306(9) 0.26325(8)
I4 I 0.16246(8) 0.27543(8) 0.05883(8)
O5 O 0.6275(11) 0.9039(9) 0.1083(10)
O6 O 0.7452(9) 0.8388(9) 0.2594(8)
H12 H 0.7672 0.9153 0.3177
C7A C 0.3473(12) 0.1892(12) -0.1528(11)
C8A C 0.4239(12) 0.3538(11) -0.0782(10)
C9A C 0.5522(13) 0.4409(12) -0.1049(10)
C10A C 0.6310(12) 0.5925(11) -0.0273(10)
I3A I 0.63008(9) 0.35694(9) -0.26325(8)
I4A I 0.83754(8) 0.72457(8) -0.05883(8)
O5A O 0.3725(11) 0.0961(9) -0.1083(10)
O6A O 0.2548(9) 0.1612(9) -0.2594(8)
H12A H 0.2328 0.0847 -0.3177
C11 C 0.7558(19) 0.192(2) 0.0049(16)
H7 H 0.7448 0.2858 0.0161
H8 H 0.6575 0.1138 -0.0157
H9 H 0.8065 0.1762 -0.0640
O7 O 0.8416(10) 0.1918(9) 0.1191(9)
H13 H 0.7913 0.1247 0.1458
loop_
_geom_bond_atom_site_label_1
_geom_bond_atom_site_label_2
_geom_bond_site_symmetry_1
_geom_bond_site_symmetry_2
Ni1 O1 1_555 1_555
C1 C2 1_555 1_555
C2 C3 1_555 1_555
C3 I1 1_555 1_555
C4 C2 1_555 1_555
C5 H1 1_555 1_555
H2 C5 1_555 1_555
H3 C5 1_555 1_555
C6 H4 1_555 1_555
H5 C6 1_555 1_555
H6 C6 1_555 1_555
C7 C8 1_555 1_555
C8 C9 1_555 1_555
C9 C10 1_555 1_555
C10 I4 1_555 1_555
C11 H7 1_555 1_555
H8 C11 1_555 1_555
H9 C11 1_555 1_555
I2 C4 1_555 1_555
I3 C9 1_555 1_555
O1 C1 1_555 1_555
O2 C1 1_555 1_555
O3 Ni1 1_555 1_555
H10 O3 1_555 1_555
O4 Ni1 1_555 1_555
H11 O4 1_555 1_555
O5 C7 1_555 1_555
O6 C7 1_555 1_555
H12 O6 1_555 1_555
O7 C11 1_555 1_555
H13 O7 1_555 1_555
Ni1_2 O1A 1_555 1_555
C1A C2A 1_555 1_555
C2A C3A 1_555 1_555
C3A C4 1_555 1_555
C4A C3 1_555 1_555
C5A H1A 1_555 1_555
H2A C5A 1_555 1_555
H3A C5A 1_555 1_555
C6A H4A 1_555 1_555
H5A C6A 1_555 1_555
H6A C6A 1_555 1_555
C7A C8A 1_555 1_555
C8A C10 1_555 1_555
C9A C8A 1_555 1_555
C10A C8 1_555 1_555
I1A C3A 1_555 1_555
I2A C4A 1_555 1_555
I3A C9A 1_555 1_555
I4A C10A 1_555 1_555
O1A C1A 1_555 1_555
O1A_2 Ni1 1_555 1_555
O2A C1A 1_555 1_555
O3A Ni1 1_555 1_555
H10A O3A 1_555 1_555
O4A Ni1 1_555 1_555
H11A O4A 1_555 1_555
O5A C7A 1_555 1_555
O6A C7A 1_555 1_555
H12A O6A 1_555 1_555
C5 O3 1_555 1_555
C6 O4 1_555 1_555
C2A C4A 1_555 1_555
C5A O3A 1_555 1_555
C6A O4A 1_555 1_555
C9A C10A 1_555 1_555

#END
