
#######################################################################
#
#                 Cambridge Crystallographic Data Centre
#                                CCDC 
#
#######################################################################
#
# If this CIF has been generated from an entry in the Cambridge 
# Structural Database, then it will include bibliographic, chemical, 
# crystal, experimental, refinement or atomic coordinate data resulting 
# from the CCDC's data processing and validation procedures.
#
#######################################################################

data_TEKLOM
_symmetry_cell_setting           orthorhombic
_symmetry_space_group_name_H-M   'P b c a'
_symmetry_Int_Tables_number      61
_space_group_name_Hall           '-P 2ac 2ab'
loop_
_symmetry_equiv_pos_site_id
_symmetry_equiv_pos_as_xyz
1 x,y,z
2 1/2-x,-y,1/2+z
3 -x,1/2+y,1/2-z
4 1/2+x,1/2-y,-z
5 -x,-y,-z
6 1/2+x,y,1/2-z
7 x,1/2-y,1/2+z
8 1/2-x,1/2+y,z
_cell_length_a                   17.491(4)
_cell_length_b                   6.8100(14)
_cell_length_c                   18.989(4)
_cell_angle_alpha                90
_cell_angle_beta                 90
_cell_angle_gamma                90
_cell_volume                     2261.85
loop_
_atom_site_label
_atom_site_type_symbol
_atom_site_fract_x
_atom_site_fract_y
_atom_site_fract_z
Cd1 Cd 0.202258(19) 0.61424(5) 0.562760(19)
C1 C 0.0169(3) 0.7394(7) 0.5545(2)
C2 C 0.0223(2) 0.5541(7) 0.5951(2)
C3 C -0.0360(3) 0.1222(7) 0.6835(3)
C4 C -0.0323(3) 0.4399(7) 0.6257(2)
C5 C 0.0802(3) 0.2957(7) 0.6361(3)
H1 H 0.1180 0.2055 0.6480
C6 C -0.1672(3) 0.0077(9) 0.7063(3)
H2 H -0.1395 -0.1079 0.7200
H3 H -0.2024 -0.0247 0.6692
H4 H -0.1950 0.0577 0.7460
Cl1 Cl 0.21189(7) 0.90280(16) 0.65016(6)
Cl2 Cl 0.22947(7) 0.32896(17) 0.47504(6)
N1 N -0.0526(2) 0.8179(6) 0.5485(2)
H5 H -0.0591 0.9237 0.5245
H6 H -0.0911 0.7628 0.5688
N2 N 0.0919(2) 0.4625(6) 0.6029(2)
N3 N 0.0046(2) 0.2753(5) 0.65050(19)
N4 N -0.1097(2) 0.4659(6) 0.6338(2)
N5 N -0.1489(2) 0.3290(7) 0.6604(2)
N6 N -0.1135(2) 0.1569(6) 0.6813(2)
O1 O 0.07499(18) 0.8082(5) 0.52737(19)
O2 O -0.0055(2) -0.0198(5) 0.7089(2)
Cd1G Cd 0.297742(19) 1.11424(5) 0.562760(19)
Cd1G_2 Cd 0.297742(19) 0.11424(5) 0.562760(19)
Cl1G Cl 0.28811(7) 0.40280(16) 0.65016(6)
Cl2G Cl 0.27053(7) 0.82896(17) 0.47504(6)
loop_
_geom_bond_atom_site_label_1
_geom_bond_atom_site_label_2
_geom_bond_site_symmetry_1
_geom_bond_site_symmetry_2
Cd1 Cl1 1_555 1_555
C1 C2 1_555 1_555
C2 C4 1_555 1_555
C3 N3 1_555 1_555
C4 N3 1_555 1_555
C5 H1 1_555 1_555
C6 H2 1_555 1_555
H3 C6 1_555 1_555
H4 C6 1_555 1_555
Cl1 Cd1G 1_555 1_555
Cl2 Cd1 1_555 1_555
N1 C1 1_555 1_555
H5 N1 1_555 1_555
H6 N1 1_555 1_555
N2 Cd1 1_555 1_555
N3 C5 1_555 1_555
N4 C4 1_555 1_555
N5 N4 1_555 1_555
N6 C3 1_555 1_555
O1 Cd1 1_555 1_555
O2 C3 1_555 1_555
Cd1G Cl2G 1_555 1_555
Cd1G_2 Cl2 1_555 1_555
Cl1G Cd1 1_555 1_555
Cl2G Cd1 1_555 1_555
C1 O1 1_555 1_555
C2 N2 1_555 1_555
C5 N2 1_555 1_555
C6 N6 1_555 1_555
N5 N6 1_555 1_555
Cd1G_2 Cl1G 1_555 1_555

#END
