
#######################################################################
#
#                 Cambridge Crystallographic Data Centre
#                                CCDC 
#
#######################################################################
#
# If this CIF has been generated from an entry in the Cambridge 
# Structural Database, then it will include bibliographic, chemical, 
# crystal, experimental, refinement or atomic coordinate data resulting 
# from the CCDC's data processing and validation procedures.
#
#######################################################################

data_TEKMAZ
_symmetry_cell_setting           monoclinic
_symmetry_space_group_name_H-M   'P 21'
_symmetry_Int_Tables_number      4
_space_group_name_Hall           'P 2yb'
loop_
_symmetry_equiv_pos_site_id
_symmetry_equiv_pos_as_xyz
1 x,y,z
2 -x,1/2+y,-z
_cell_length_a                   11.294(3)
_cell_length_b                   12.737(4)
_cell_length_c                   11.694(4)
_cell_angle_alpha                90
_cell_angle_beta                 105.800(6)
_cell_angle_gamma                90
_cell_volume                     1618.64
loop_
_atom_site_label
_atom_site_type_symbol
_atom_site_fract_x
_atom_site_fract_y
_atom_site_fract_z
Ni1 Ni 0.23536(9) 0.99613(9) 0.74131(9)
C1 C 0.0083(7) 0.9762(8) 0.8180(7)
C2 C -0.1297(6) 0.9884(7) 0.7879(6)
C3 C -0.2047(7) 0.9150(7) 0.7141(6)
C4 C -0.3297(7) 0.9261(7) 0.6791(7)
C5 C -0.3865(7) 1.0082(7) 0.7243(7)
C6 C -0.3122(7) 1.0808(7) 0.7995(8)
C7 C -0.1862(7) 1.0705(7) 0.8308(7)
C8 C -0.5256(7) 1.0244(7) 0.6849(7)
C9 C 0.2344(8) 0.8156(9) 0.5914(9)
H1 H 0.3054 0.8029 0.6521
C10 C 0.2827(14) 0.6592(11) 0.4924(17)
H2 H 0.3555 0.6602 0.5580
H3 H 0.3055 0.6642 0.4192
H4 H 0.2389 0.5948 0.4935
C11 C 0.0943(16) 0.7585(13) 0.4069(12)
H5 H 0.0306 0.7865 0.4382
H6 H 0.0691 0.6916 0.3707
H7 H 0.1092 0.8059 0.3484
C12 C 0.2407(8) 1.1814(9) 0.8856(8)
H8 H 0.1760 1.1980 0.8197
C13 C 0.3615(15) 1.2315(14) 1.0799(9)
H9 H 0.4076 1.1703 1.0707
H10 H 0.3249 1.2208 1.1440
H11 H 0.4154 1.2912 1.0970
C14 C 0.2028(13) 1.3448(12) 0.9749(13)
H12 H 0.1163 1.3303 0.9584
H13 H 0.2167 1.3918 0.9157
H14 H 0.2313 1.3768 1.0519
I1 I -0.07536(5) 1.18026(5) 0.94589(5)
I2 I -0.43788(5) 0.82029(5) 0.56110(6)
I3 I -0.11520(5) 0.78586(5) 0.66474(5)
I4 I -0.40055(6) 1.20450(6) 0.86131(9)
N1 N 0.2057(9) 0.7461(8) 0.5019(8)
N2 N 0.2676(10) 1.2499(7) 0.9731(8)
O1 O 0.0580(5) 1.0157(5) 0.7463(5)
O2 O 0.0561(5) 0.9247(7) 0.9092(5)
O3 O -0.5811(5) 0.9776(5) 0.7450(5)
O4 O -0.5649(6) 1.0851(6) 0.6001(6)
O5 O 0.1771(5) 0.8918(6) 0.5997(5)
O6 O 0.2941(6) 1.0970(6) 0.8834(5)
O7 O 0.2087(5) 1.1177(5) 0.6251(5)
H29 H 0.1707 1.1050 0.5561
H30 H 0.2580 1.1663 0.6416
O8 O 0.2642(5) 0.8715(5) 0.8558(6)
H31 H 0.2474 0.8817 0.9188
H32 H 0.3196 0.8313 0.8515
Ni1_2 Ni -0.76464(9) 0.99613(9) 0.74131(9)
O3_2 O 0.4189(5) 0.9776(5) 0.7450(5)
C15 C 0.430(2) 1.0153(18) 0.2913(16)
H15 H 0.4727 1.0224 0.3709
C16 C 0.256(3) 0.9828(15) 0.1489(14)
H16 H 0.2149 0.9162 0.1381
H17 H 0.3247 0.9801 0.1149
H18 H 0.2002 1.0367 0.1103
C17 C 0.265(2) 0.9909(18) 0.3515(13)
H19 H 0.1810 0.9687 0.3365
H20 H 0.2759 1.0568 0.3928
H21 H 0.3181 0.9392 0.3992
N3 N 0.2924(15) 1.0016(10) 0.2513(11)
O9 O 0.4784(18) 1.016(2) 0.2145(13)
C18 C 0.245(2) 0.4228(16) 0.6690(14)
H22 H 0.2036 0.3563 0.6583
H23 H 0.3080 0.4227 0.7433
H24 H 0.2821 0.4343 0.6052
C19 C 0.1919(18) 0.5842(14) 0.7638(11)
H25 H 0.1852 0.6537 0.7309
H26 H 0.2757 0.5709 0.8074
H27 H 0.1399 0.5783 0.8162
C20 C 0.0579(10) 0.5237(10) 0.5787(10)
H28 H 0.0433 0.4765 0.5158
N4 N 0.1543(9) 0.5090(9) 0.6696(9)
O10 O -0.0106(7) 0.5936(6) 0.5732(7)
O11 O 0.4952(8) 0.9299(11) 0.0081(9)
H33 H 0.4957 0.8723 0.0394
H34 H 0.5124 0.9836 0.0479
loop_
_geom_bond_atom_site_label_1
_geom_bond_atom_site_label_2
_geom_bond_site_symmetry_1
_geom_bond_site_symmetry_2
Ni1 O1 1_555 1_555
C1 C2 1_555 1_555
C2 C3 1_555 1_555
C3 C4 1_555 1_555
C4 C5 1_555 1_555
C5 C6 1_555 1_555
C6 C7 1_555 1_555
C7 C2 1_555 1_555
C8 C5 1_555 1_555
C9 H1 1_555 1_555
C10 H2 1_555 1_555
H3 C10 1_555 1_555
H4 C10 1_555 1_555
C11 H5 1_555 1_555
H6 C11 1_555 1_555
H7 C11 1_555 1_555
C12 H8 1_555 1_555
C13 H9 1_555 1_555
H10 C13 1_555 1_555
H11 C13 1_555 1_555
C14 H12 1_555 1_555
H13 C14 1_555 1_555
H14 C14 1_555 1_555
C15 H15 1_555 1_555
C16 H16 1_555 1_555
H17 C16 1_555 1_555
H18 C16 1_555 1_555
C17 H19 1_555 1_555
H20 C17 1_555 1_555
H21 C17 1_555 1_555
C18 H22 1_555 1_555
H23 C18 1_555 1_555
H24 C18 1_555 1_555
C19 H25 1_555 1_555
H26 C19 1_555 1_555
H27 C19 1_555 1_555
C20 H28 1_555 1_555
I1 C7 1_555 1_555
I2 C4 1_555 1_555
I3 C3 1_555 1_555
I4 C6 1_555 1_555
N1 C9 1_555 1_555
N2 C12 1_555 1_555
N3 C15 1_555 1_555
N4 C18 1_555 1_555
O1 C1 1_555 1_555
O2 C1 1_555 1_555
O3 C8 1_555 1_555
O4 C8 1_555 1_555
O5 Ni1 1_555 1_555
O6 Ni1 1_555 1_555
O7 Ni1 1_555 1_555
H29 O7 1_555 1_555
H30 O7 1_555 1_555
O8 Ni1 1_555 1_555
H31 O8 1_555 1_555
H32 O8 1_555 1_555
O9 C15 1_555 1_555
O10 C20 1_555 1_555
O11 H33 1_555 1_555
H34 O11 1_555 1_555
Ni1_2 O3 1_555 1_555
O3_2 Ni1 1_555 1_555
C9 O5 1_555 1_555
C10 N1 1_555 1_555
C11 N1 1_555 1_555
C12 O6 1_555 1_555
C13 N2 1_555 1_555
C14 N2 1_555 1_555
C16 N3 1_555 1_555
C17 N3 1_555 1_555
C19 N4 1_555 1_555
C20 N4 1_555 1_555

#END
