
#######################################################################
#
#                 Cambridge Crystallographic Data Centre
#                                CCDC 
#
#######################################################################
#
# If this CIF has been generated from an entry in the Cambridge 
# Structural Database, then it will include bibliographic, chemical, 
# crystal, experimental, refinement or atomic coordinate data resulting 
# from the CCDC's data processing and validation procedures.
#
#######################################################################

data_TEKQUX
_symmetry_cell_setting           triclinic
_symmetry_space_group_name_H-M   'P -1'
_symmetry_Int_Tables_number      2
_space_group_name_Hall           '-P 1'
loop_
_symmetry_equiv_pos_site_id
_symmetry_equiv_pos_as_xyz
1 x,y,z
2 -x,-y,-z
_cell_length_a                   10.5538(2)
_cell_length_b                   13.6180(3)
_cell_length_c                   13.8223(3)
_cell_angle_alpha                60.9880(10)
_cell_angle_beta                 87.7220(10)
_cell_angle_gamma                79.3440(10)
_cell_volume                     1704.44
loop_
_atom_site_label
_atom_site_type_symbol
_atom_site_fract_x
_atom_site_fract_y
_atom_site_fract_z
C1 C 0.6201(2) 0.22136(19) 1.32789(18)
H1 H 0.5452 0.2001 1.3634
C2 C 0.6086(2) 0.3225(2) 1.2301(2)
H2 H 0.5276 0.3684 1.2020
C3 C 0.7170(2) 0.35628(19) 1.17358(19)
C4 C 0.8341(2) 0.28304(19) 1.22106(19)
H3 H 0.9100 0.3010 1.1858
C5 C 0.8380(2) 0.18349(17) 1.32053(17)
H4 H 0.9177 0.1363 1.3512
C6 C 0.7053(3) 0.4679(3) 1.0657(3)
H5 H 0.6492 0.4651 1.0135
H6 H 0.6633 0.5293 1.0793
C7 C 0.8267(3) 0.4967(2) 1.0132(2)
H7 H 0.8689 0.4364 0.9981
H8 H 0.8835 0.5001 1.0646
C8 C 0.8075(2) 0.60944(19) 0.90639(18)
C9 C 0.7786(3) 0.61644(19) 0.8069(2)
H9 H 0.7698 0.5510 0.8044
C10 C 0.7627(2) 0.72078(18) 0.71050(19)
H10 H 0.7425 0.7235 0.6443
C11 C 0.8027(2) 0.81080(19) 0.80384(18)
H11 H 0.8117 0.8774 0.8040
C12 C 0.8189(3) 0.7095(2) 0.90396(19)
H12 H 0.8374 0.7094 0.9693
C13 C 1.03569(19) -0.33568(16) 1.53904(17)
C14 C 1.1102(2) -0.42507(19) 1.6283(2)
H13 H 1.1910 -0.4185 1.6464
C15 C 1.0634(3) -0.5256(2) 1.6912(2)
H14 H 1.1127 -0.5863 1.7521
C16 C 0.9445(3) -0.5355(2) 1.6635(2)
H15 H 0.9139 -0.6031 1.7051
C17 C 0.8712(3) -0.4453(2) 1.5744(2)
H16 H 0.7905 -0.4519 1.5562
C18 C 0.9163(2) -0.34436(19) 1.5111(2)
H17 H 0.8664 -0.2834 1.4507
C19 C 0.9931(2) -0.11787(18) 1.23176(17)
C20 C 0.9062(3) -0.1293(2) 1.1677(2)
H18 H 0.8186 -0.1215 1.1802
C21 C 0.9516(4) -0.1528(3) 1.0842(3)
H19 H 0.8937 -0.1604 1.0403
C22 C 1.0801(4) -0.1649(3) 1.0652(3)
H20 H 1.1093 -0.1802 1.0086
C23 C 1.1654(3) -0.1545(3) 1.1302(3)
H21 H 1.2531 -0.1642 1.1183
C24 C 1.1230(3) -0.1295(2) 1.2136(2)
H22 H 1.1812 -0.1208 1.2564
C25 C 0.4684(2) 0.28609(18) 1.5947(2)
C26 C 0.5939(2) 0.2999(2) 1.5750(2)
H23 H 0.6445 0.2666 1.5381
C27 C 0.6437(3) 0.3643(2) 1.6109(3)
H24 H 0.7287 0.3745 1.5979
C28 C 0.5694(3) 0.4132(2) 1.6655(3)
H25 H 0.6037 0.4569 1.6888
C29 C 0.4444(3) 0.3978(2) 1.6856(2)
H26 H 0.3942 0.4307 1.7230
C30 C 0.3925(2) 0.3334(2) 1.6504(2)
H27 H 0.3079 0.3223 1.6643
C31 C 0.4533(3) -0.0303(3) 1.8120(2)
C32 C 0.5520(3) -0.0002(3) 1.8480(2)
H28 H 0.5813 0.0665 1.7999
C33 C 0.6074(4) -0.0664(4) 1.9527(3)
H29 H 0.6719 -0.0441 1.9772
C34 C 0.5665(6) -0.1653(4) 2.0205(4)
H30 H 0.6052 -0.2107 2.0916
C35 C 0.4722(6) -0.2011(4) 1.9893(4)
H31 H 0.4483 -0.2707 2.0371
C36 C 0.4093(5) -0.1281(4) 1.8795(3)
H32 H 0.3412 -0.1475 1.8561
N1 N 0.73268(15) 0.15184(13) 1.37466(13)
N2 N 0.77507(15) 0.81723(13) 0.70812(13)
P1 P 1.01509(4) -0.11026(4) 1.41947(4)
P2 P 0.45169(4) 0.09546(4) 1.59319(4)
Mn1 Mn 0.75161(2) -0.01509(2) 1.54290(2)
O1 O 1.11768(12) -0.04086(11) 1.38561(11)
O2 O 0.91356(12) -0.09495(12) 1.48969(12)
O3 O 1.09137(12) -0.24028(11) 1.47736(12)
O4 O 0.93995(13) -0.09345(13) 1.31244(12)
O5 O 0.37537(13) 0.08044(13) 1.51644(13)
O6 O 0.59382(12) 0.05947(11) 1.60537(11)
O7 O 0.41252(15) 0.23089(15) 1.55002(17)
O8 O 0.39101(17) 0.0449(2) 1.70980(15)
N2_2 N 0.77507(15) -0.18277(13) 1.70812(13)
Mn1_2 Mn 0.75161(2) 0.98491(2) 0.54290(2)
Mn1A Mn 1.24839(2) 0.01509(2) 1.45710(2)
Mn1A_2 Mn 0.24839(2) 0.01509(2) 1.45710(2)
O1A O 0.88232(12) 0.04086(11) 1.61439(11)
O5A O 0.62463(13) -0.08044(13) 1.48356(13)
loop_
_geom_bond_atom_site_label_1
_geom_bond_atom_site_label_2
_geom_bond_site_symmetry_1
_geom_bond_site_symmetry_2
C1 H1 1_555 1_555
C2 C1 1_555 1_555
H2 C2 1_555 1_555
C3 C2 1_555 1_555
C4 C3 1_555 1_555
H3 C4 1_555 1_555
C5 C4 1_555 1_555
H4 C5 1_555 1_555
C6 C3 1_555 1_555
H5 C6 1_555 1_555
H6 C6 1_555 1_555
C7 C6 1_555 1_555
H7 C7 1_555 1_555
H8 C7 1_555 1_555
C8 C7 1_555 1_555
C9 C8 1_555 1_555
H9 C9 1_555 1_555
C10 C9 1_555 1_555
H10 C10 1_555 1_555
C11 H11 1_555 1_555
C12 C8 1_555 1_555
H12 C12 1_555 1_555
C13 C14 1_555 1_555
C14 H13 1_555 1_555
C15 C14 1_555 1_555
H14 C15 1_555 1_555
C16 C15 1_555 1_555
H15 C16 1_555 1_555
C17 C16 1_555 1_555
H16 C17 1_555 1_555
C18 C13 1_555 1_555
H17 C18 1_555 1_555
C19 C20 1_555 1_555
C20 H18 1_555 1_555
C21 C20 1_555 1_555
H19 C21 1_555 1_555
C22 C21 1_555 1_555
H20 C22 1_555 1_555
C23 C22 1_555 1_555
H21 C23 1_555 1_555
C24 C19 1_555 1_555
H22 C24 1_555 1_555
C25 C26 1_555 1_555
C26 H23 1_555 1_555
C27 C26 1_555 1_555
H24 C27 1_555 1_555
C28 C27 1_555 1_555
H25 C28 1_555 1_555
C29 C28 1_555 1_555
H26 C29 1_555 1_555
C30 C25 1_555 1_555
H27 C30 1_555 1_555
C31 C32 1_555 1_555
C32 H28 1_555 1_555
C33 C32 1_555 1_555
H29 C33 1_555 1_555
C34 C33 1_555 1_555
H30 C34 1_555 1_555
C35 C34 1_555 1_555
H31 C35 1_555 1_555
C36 C31 1_555 1_555
H32 C36 1_555 1_555
N1 C1 1_555 1_555
N2 C10 1_555 1_555
P1 O1 1_555 1_555
P2 O5 1_555 1_555
Mn1 N1 1_555 1_555
O1 Mn1A 1_555 1_555
O2 P1 1_555 1_555
O3 C13 1_555 1_555
O4 C19 1_555 1_555
O5 Mn1A_2 1_555 1_555
O6 P2 1_555 1_555
O7 C25 1_555 1_555
O8 C31 1_555 1_555
N2_2 Mn1 1_555 1_555
Mn1_2 N2 1_555 1_555
O1A Mn1 1_555 1_555
O5A Mn1 1_555 1_555
C5 N1 1_555 1_555
C11 C12 1_555 1_555
C11 N2 1_555 1_555
C17 C18 1_555 1_555
C23 C24 1_555 1_555
C29 C30 1_555 1_555
C35 C36 1_555 1_555
P1 O3 1_555 1_555
P1 O4 1_555 1_555
P2 O7 1_555 1_555
P2 O8 1_555 1_555
Mn1 O2 1_555 1_555
Mn1 O6 1_555 1_555

#END
