
#######################################################################
#
#                 Cambridge Crystallographic Data Centre
#                                CCDC 
#
#######################################################################
#
# If this CIF has been generated from an entry in the Cambridge 
# Structural Database, then it will include bibliographic, chemical, 
# crystal, experimental, refinement or atomic coordinate data resulting 
# from the CCDC's data processing and validation procedures.
#
#######################################################################

data_TEKROS
_symmetry_cell_setting           triclinic
_symmetry_space_group_name_H-M   'P -1'
_symmetry_Int_Tables_number      2
_space_group_name_Hall           '-P 1'
loop_
_symmetry_equiv_pos_site_id
_symmetry_equiv_pos_as_xyz
1 x,y,z
2 -x,-y,-z
_cell_length_a                   10.233(5)
_cell_length_b                   12.492(5)
_cell_length_c                   13.480(5)
_cell_angle_alpha                76.321(5)
_cell_angle_beta                 87.150(5)
_cell_angle_gamma                87.484(5)
_cell_volume                     1671.29
loop_
_atom_site_label
_atom_site_type_symbol
_atom_site_fract_x
_atom_site_fract_y
_atom_site_fract_z
C1 C 0.2520(13) -0.3063(10) 1.0876(9)
H1 H 0.2443 -0.2825 1.1480
C2 C 0.2500(13) -0.4181(9) 1.0928(8)
H2 H 0.2405 -0.4683 1.1556
C3 C 0.2623(11) -0.4541(8) 1.0037(8)
C4 C 0.2753(14) -0.3767(9) 0.9122(9)
H3 H 0.2839 -0.3977 0.8504
C5 C 0.2753(13) -0.2677(9) 0.9155(9)
H4 H 0.2837 -0.2154 0.8539
C6 C 0.2593(12) -0.5752(9) 1.0059(9)
C7 C 0.1643(14) -0.6400(10) 1.0577(10)
H5 H 0.0973 -0.6100 1.0930
C8 C 0.1665(16) -0.7497(11) 1.0582(12)
H6 H 0.1001 -0.7921 1.0953
C9 C 0.3502(14) -0.7349(10) 0.9594(11)
H7 H 0.4175 -0.7672 0.9264
C10 C 0.3549(13) -0.6238(10) 0.9526(10)
H8 H 0.4205 -0.5822 0.9133
C11 C 0.0505(11) -0.0588(11) 0.6750(9)
C12 C -0.0128(16) -0.1322(19) 0.6365(17)
H9 H -0.1033 -0.1264 0.6316
C13 C 0.055(2) -0.212(2) 0.606(2)
H10 H 0.0100 -0.2675 0.5885
C14 C 0.1904(18) -0.2146(19) 0.5997(15)
H11 H 0.2371 -0.2675 0.5727
C15 C 0.2524(13) -0.1384(13) 0.6340(10)
H12 H 0.3435 -0.1398 0.6315
C16 C 0.1853(12) -0.0593(12) 0.6720(10)
H13 H 0.2294 -0.0070 0.6954
C17 C 0.1030(10) 0.2395(9) 0.7356(9)
C18 C 0.1230(12) 0.2578(12) 0.6331(10)
H14 H 0.1381 0.1988 0.6025
C19 C 0.1207(13) 0.3657(13) 0.5735(11)
H15 H 0.1340 0.3793 0.5029
C20 C 0.0994(15) 0.4485(15) 0.6188(14)
H16 H 0.0979 0.5201 0.5784
C21 C 0.0790(14) 0.4332(13) 0.7244(15)
H17 H 0.0656 0.4926 0.7547
C22 C 0.0798(12) 0.3236(11) 0.7829(11)
H18 H 0.0645 0.3089 0.8533
C23 C 0.5401(11) 0.2265(9) 0.6866(8)
C24 C 0.4645(12) 0.3209(10) 0.6740(9)
H19 H 0.3746 0.3175 0.6872
C25 C 0.5224(14) 0.4215(12) 0.6417(12)
H20 H 0.4717 0.4863 0.6334
C26 C 0.6550(16) 0.4256(12) 0.6216(12)
H21 H 0.6938 0.4935 0.5992
C27 C 0.7315(14) 0.3296(12) 0.6346(10)
H22 H 0.8216 0.3329 0.6223
C28 C 0.6730(11) 0.2281(10) 0.6661(8)
H23 H 0.7227 0.1628 0.6730
C29 C 0.6140(10) -0.1054(9) 0.7103(8)
C30 C 0.6259(12) -0.0699(12) 0.6061(9)
H24 H 0.6417 0.0035 0.5756
C31 C 0.6140(12) -0.1461(14) 0.5470(10)
H25 H 0.6216 -0.1222 0.4763
C32 C 0.5922(14) -0.2508(13) 0.5877(12)
H26 H 0.5857 -0.2998 0.5460
C33 C 0.5792(14) -0.2870(11) 0.6922(11)
H27 H 0.5629 -0.3606 0.7217
C34 C 0.5904(13) -0.2139(10) 0.7525(10)
H28 H 0.5819 -0.2384 0.8232
N1 N 0.2642(9) -0.2325(7) 1.0006(6)
N2 N 0.2573(13) -0.8002(10) 1.0092(8)
O1 O 0.0503(7) -0.0468(6) 0.8940(6)
O2 O -0.0247(7) 0.0204(7) 0.7131(6)
O3 O -0.1237(6) 0.1086(6) 0.8456(5)
O4 O 0.1169(7) 0.1339(6) 0.7945(6)
O5 O 0.3992(7) -0.0395(6) 0.8431(6)
O6 O 0.5676(7) 0.0845(6) 0.8907(5)
O7 O 0.4733(7) 0.1270(6) 0.7169(6)
O8 O 0.6336(6) -0.0352(6) 0.7720(5)
P1 P -0.0015(3) 0.0482(2) 0.8187(2)
P2 P 0.5143(2) 0.0336(2) 0.8137(2)
Pb1 Pb 0.24935(3) -0.02876(3) 0.99608(3)
N2_2 N 0.2573(13) 0.1998(10) 1.0092(8)
O3A O 0.1237(6) -0.1086(6) 1.1544(5)
O6A O 0.4324(7) -0.0845(6) 1.1093(5)
Pb1_2 Pb 0.24935(3) -1.02876(3) 0.99608(3)
Pb1A Pb -0.24935(3) 0.02876(3) 1.00392(3)
Pb1A_2 Pb 0.75065(3) 0.02876(3) 1.00392(3)
loop_
_geom_bond_atom_site_label_1
_geom_bond_atom_site_label_2
_geom_bond_site_symmetry_1
_geom_bond_site_symmetry_2
C1 H1 1_555 1_555
C2 C1 1_555 1_555
H2 C2 1_555 1_555
C3 C2 1_555 1_555
C4 C3 1_555 1_555
H3 C4 1_555 1_555
C5 C4 1_555 1_555
H4 C5 1_555 1_555
C6 C3 1_555 1_555
C7 C6 1_555 1_555
H5 C7 1_555 1_555
C8 C7 1_555 1_555
H6 C8 1_555 1_555
C9 H7 1_555 1_555
C10 C6 1_555 1_555
H8 C10 1_555 1_555
C11 C12 1_555 1_555
C12 H9 1_555 1_555
C13 C12 1_555 1_555
H10 C13 1_555 1_555
C14 C13 1_555 1_555
H11 C14 1_555 1_555
C15 C14 1_555 1_555
H12 C15 1_555 1_555
C16 C11 1_555 1_555
H13 C16 1_555 1_555
C17 C18 1_555 1_555
C18 H14 1_555 1_555
C19 C18 1_555 1_555
H15 C19 1_555 1_555
C20 C19 1_555 1_555
H16 C20 1_555 1_555
C21 C20 1_555 1_555
H17 C21 1_555 1_555
C22 C17 1_555 1_555
H18 C22 1_555 1_555
C23 C24 1_555 1_555
C24 H19 1_555 1_555
C25 C24 1_555 1_555
H20 C25 1_555 1_555
C26 C25 1_555 1_555
H21 C26 1_555 1_555
C27 C26 1_555 1_555
H22 C27 1_555 1_555
C28 C23 1_555 1_555
H23 C28 1_555 1_555
C29 C30 1_555 1_555
C30 H24 1_555 1_555
C31 C30 1_555 1_555
H25 C31 1_555 1_555
C32 C31 1_555 1_555
H26 C32 1_555 1_555
C33 C32 1_555 1_555
H27 C33 1_555 1_555
C34 C29 1_555 1_555
H28 C34 1_555 1_555
N1 C1 1_555 1_555
N2 C8 1_555 1_555
O1 P1 1_555 1_555
O2 C11 1_555 1_555
O3 P1 1_555 1_555
O4 C17 1_555 1_555
O5 P2 1_555 1_555
O6 P2 1_555 1_555
O7 C23 1_555 1_555
O8 C29 1_555 1_555
P1 O2 1_555 1_555
P2 O7 1_555 1_555
Pb1 N1 1_555 1_555
N2_2 Pb1 1_555 1_555
O3A Pb1 1_555 1_555
O6A Pb1 1_555 1_555
Pb1_2 N2 1_555 1_555
Pb1A O3 1_555 1_555
Pb1A_2 O6 1_555 1_555
C5 N1 1_555 1_555
C9 C10 1_555 1_555
C9 N2 1_555 1_555
C15 C16 1_555 1_555
C21 C22 1_555 1_555
C27 C28 1_555 1_555
C33 C34 1_555 1_555
O1 Pb1 1_555 1_555
O4 P1 1_555 1_555
O5 Pb1 1_555 1_555
O8 P2 1_555 1_555

#END
