
#######################################################################
#
#                 Cambridge Crystallographic Data Centre
#                                CCDC 
#
#######################################################################
#
# If this CIF has been generated from an entry in the Cambridge 
# Structural Database, then it will include bibliographic, chemical, 
# crystal, experimental, refinement or atomic coordinate data resulting 
# from the CCDC's data processing and validation procedures.
#
#######################################################################

data_TEKRAE
_symmetry_cell_setting           monoclinic
_symmetry_space_group_name_H-M   'C 2/c'
_symmetry_Int_Tables_number      15
_space_group_name_Hall           '-C 2yn'
loop_
_symmetry_equiv_pos_site_id
_symmetry_equiv_pos_as_xyz
1 x,y,z
2 -x,y,1/2-z
3 1/2+x,1/2+y,z
4 1/2-x,1/2+y,1/2-z
5 -x,-y,-z
6 x,-y,1/2+z
7 1/2-x,1/2-y,-z
8 1/2+x,1/2-y,1/2+z
_cell_length_a                   13.6529(6)
_cell_length_b                   18.4192(6)
_cell_length_c                   19.7519(6)
_cell_angle_alpha                90
_cell_angle_beta                 109.075(2)
_cell_angle_gamma                90
_cell_volume                     4694.38
loop_
_atom_site_label
_atom_site_type_symbol
_atom_site_fract_x
_atom_site_fract_y
_atom_site_fract_z
C1 C 0.33992(11) -0.09459(7) 0.51341(7)
C2 C 0.43589(12) -0.07079(9) 0.55620(9)
H1 H 0.4656 -0.0299 0.5434
C3 C 0.48754(14) -0.10797(11) 0.61813(10)
H2 H 0.5525 -0.0922 0.6469
C4 C 0.44357(16) -0.16814(11) 0.63759(10)
H3 H 0.4785 -0.1931 0.6795
C5 C 0.34755(16) -0.19128(9) 0.59476(10)
H4 H 0.3174 -0.2317 0.6082
C6 C 0.29510(13) -0.15521(8) 0.53183(9)
H5 H 0.2308 -0.1716 0.5025
C7 C 0.21328(11) 0.07633(8) 0.36066(9)
C8 C 0.21416(15) 0.11228(10) 0.29965(11)
H6 H 0.1915 0.0893 0.2553
C9 C 0.2494(2) 0.18326(13) 0.30577(16)
H7 H 0.2511 0.2081 0.2652
C10 C 0.2818(2) 0.21720(12) 0.37096(18)
H8 H 0.3044 0.2651 0.3745
C11 C 0.28094(16) 0.18050(11) 0.43091(14)
H9 H 0.3037 0.2036 0.4752
C12 C 0.24641(13) 0.10922(9) 0.42641(10)
H10 H 0.2458 0.0843 0.4672
C13 C -0.01939(11) 0.16756(7) 0.49659(7)
H11 H -0.0244 0.1600 0.5419
C14 C -0.02062(11) 0.23805(7) 0.47296(8)
H12 H -0.0262 0.2765 0.5020
C15 C -0.01352(10) 0.25140(7) 0.40576(7)
C16 C -0.00712(13) 0.19127(8) 0.36536(8)
H13 H -0.0032 0.1974 0.3196
C17 C -0.00658(12) 0.12259(8) 0.39270(7)
H14 H -0.0026 0.0832 0.3642
C18 C -0.01514(12) 0.32796(8) 0.37825(8)
H15 H 0.0444 0.3352 0.3625
H16 H -0.0097 0.3618 0.4169
C19 C -0.11375(12) 0.34392(8) 0.31623(8)
H17 H -0.1152 0.3137 0.2757
H18 H -0.1733 0.3313 0.3303
C20 C -0.12212(11) 0.42274(7) 0.29351(7)
H19 H -0.1309 0.4522 0.3318
H20 H -0.0577 0.4373 0.2867
C21 C -0.21033(10) 0.43809(7) 0.22565(7)
C22 C -0.30804(11) 0.40972(8) 0.21358(7)
H21 H -0.3205 0.3792 0.2474
C23 C -0.38741(11) 0.42653(8) 0.15154(7)
H22 H -0.4525 0.4068 0.1452
C24 C -0.28154(13) 0.49689(10) 0.11255(9)
H23 H -0.2710 0.5274 0.0780
C25 C -0.19847(12) 0.48312(10) 0.17312(9)
H24 H -0.1344 0.5042 0.1786
N1 N -0.01147(8) 0.10940(6) 0.45820(6)
N2 N -0.37632(9) 0.46927(6) 0.10013(6)
O1 O 0.29402(8) -0.05487(6) 0.45164(6)
O2 O 0.11510(7) -0.02418(5) 0.45430(5)
O4 O 0.13701(9) -0.12139(5) 0.36923(5)
O5 O 0.17553(9) 0.00597(5) 0.34907(5)
P1 P 0.17188(3) -0.052820(18) 0.407590(17)
Co1 Co 0.0000 0.0000 0.5000
C1D C -0.33992(11) 0.09459(7) 0.48659(7)
C2D C -0.43589(12) 0.07079(9) 0.44380(9)
H1D H -0.4656 0.0299 0.4566
C3D C -0.48754(14) 0.10797(11) 0.38187(10)
H2D H -0.5525 0.0922 0.3531
C4D C -0.44357(16) 0.16814(11) 0.36241(10)
H3D H -0.4785 0.1931 0.3205
C5D C -0.34755(16) 0.19128(9) 0.40524(10)
H4D H -0.3174 0.2317 0.3918
C6D C -0.29510(13) 0.15521(8) 0.46817(9)
H5D H -0.2308 0.1716 0.4975
C7D C -0.21328(11) -0.07633(8) 0.63934(9)
C8D C -0.21416(15) -0.11228(10) 0.70035(11)
H6D H -0.1915 -0.0893 0.7447
C9D C -0.2494(2) -0.18326(13) 0.69423(16)
H7D H -0.2511 -0.2081 0.7348
C10D C -0.2818(2) -0.21720(12) 0.62904(18)
H8D H -0.3044 -0.2651 0.6255
C11D C -0.28094(16) -0.18050(11) 0.56909(14)
H9D H -0.3037 -0.2036 0.5248
C12D C -0.24641(13) -0.10922(9) 0.57359(10)
H10D H -0.2458 -0.0843 0.5328
C13D C 0.01939(11) -0.16756(7) 0.50341(7)
H11D H 0.0244 -0.1600 0.4581
C14D C 0.02062(11) -0.23805(7) 0.52704(8)
H12D H 0.0262 -0.2765 0.4980
C15D C 0.01352(10) -0.25140(7) 0.59424(7)
C16D C 0.00712(13) -0.19127(8) 0.63464(8)
H13D H 0.0032 -0.1974 0.6804
C17D C 0.00658(12) -0.12259(8) 0.60730(7)
H14D H 0.0026 -0.0832 0.6358
C18D C 0.01514(12) -0.32796(8) 0.62175(8)
H15D H -0.0444 -0.3352 0.6375
H16D H 0.0097 -0.3618 0.5831
C19D C 0.11375(12) -0.34392(8) 0.68377(8)
H17D H 0.1152 -0.3137 0.7243
H18D H 0.1733 -0.3313 0.6697
C20D C 0.12212(11) -0.42274(7) 0.70649(7)
H19D H 0.1309 -0.4522 0.6682
H20D H 0.0577 -0.4373 0.7133
C21D C 0.21033(10) -0.43809(7) 0.77435(7)
C22D C 0.30804(11) -0.40972(8) 0.78642(7)
H21D H 0.3205 -0.3792 0.7526
C23D C 0.38741(11) -0.42653(8) 0.84846(7)
H22D H 0.4525 -0.4068 0.8548
C24D C 0.28154(13) -0.49689(10) 0.88745(9)
H23D H 0.2710 -0.5274 0.9220
C25D C 0.19847(12) -0.48312(10) 0.82688(9)
H24D H 0.1344 -0.5042 0.8214
N1D N 0.01147(8) -0.10940(6) 0.54180(6)
N2D N 0.37632(9) -0.46927(6) 0.89987(6)
N2C N -0.12368(9) -0.03073(6) 0.39987(6)
N2G N 0.12368(9) 0.03073(6) 0.60013(6)
O1D O -0.29402(8) 0.05487(6) 0.54836(6)
O2D O -0.11510(7) 0.02418(5) 0.54570(5)
O4D O -0.13701(9) 0.12139(5) 0.63077(5)
O5D O -0.17553(9) -0.00597(5) 0.65093(5)
P1D P -0.17188(3) 0.052820(18) 0.592410(17)
Co1C Co -0.5000 0.5000 0.0000
Co1C_2 Co 0.5000 -0.5000 1.0000
O3 O 0.0000 0.19515(11) 0.7500
H25 H -0.043(2) 0.1650(15) 0.7106(14)
H25A H 0.043(2) 0.1650(15) 0.7894(14)
loop_
_geom_bond_atom_site_label_1
_geom_bond_atom_site_label_2
_geom_bond_site_symmetry_1
_geom_bond_site_symmetry_2
C1 C2 1_555 1_555
C2 H1 1_555 1_555
C3 C2 1_555 1_555
H2 C3 1_555 1_555
C4 C3 1_555 1_555
H3 C4 1_555 1_555
C5 C4 1_555 1_555
H4 C5 1_555 1_555
C6 C1 1_555 1_555
H5 C6 1_555 1_555
C7 C8 1_555 1_555
C8 H6 1_555 1_555
C9 C8 1_555 1_555
H7 C9 1_555 1_555
C10 C9 1_555 1_555
H8 C10 1_555 1_555
C11 C10 1_555 1_555
H9 C11 1_555 1_555
C12 C7 1_555 1_555
H10 C12 1_555 1_555
C13 H11 1_555 1_555
C14 C13 1_555 1_555
H12 C14 1_555 1_555
C15 C14 1_555 1_555
C16 C15 1_555 1_555
H13 C16 1_555 1_555
C17 C16 1_555 1_555
H14 C17 1_555 1_555
C18 C15 1_555 1_555
H15 C18 1_555 1_555
H16 C18 1_555 1_555
C19 C18 1_555 1_555
H17 C19 1_555 1_555
H18 C19 1_555 1_555
C20 C19 1_555 1_555
H19 C20 1_555 1_555
H20 C20 1_555 1_555
C21 C20 1_555 1_555
C22 C21 1_555 1_555
H21 C22 1_555 1_555
C23 C22 1_555 1_555
H22 C23 1_555 1_555
C24 H23 1_555 1_555
C25 C21 1_555 1_555
H24 C25 1_555 1_555
N1 C13 1_555 1_555
N2 C23 1_555 1_555
O1 C1 1_555 1_555
O2 P1 1_555 1_555
O3 H25 1_555 1_555
O4 P1 1_555 1_555
O5 C7 1_555 1_555
P1 O1 1_555 1_555
Co1 N1 1_555 1_555
C1D C2D 1_555 1_555
C2D H1D 1_555 1_555
C3D C2D 1_555 1_555
H2D C3D 1_555 1_555
C4D C3D 1_555 1_555
H3D C4D 1_555 1_555
C5D C4D 1_555 1_555
H4D C5D 1_555 1_555
C6D C1D 1_555 1_555
H5D C6D 1_555 1_555
C7D C8D 1_555 1_555
C8D H6D 1_555 1_555
C9D C8D 1_555 1_555
H7D C9D 1_555 1_555
C10D C9D 1_555 1_555
H8D C10D 1_555 1_555
C11D C10D 1_555 1_555
H9D C11D 1_555 1_555
C12D C7D 1_555 1_555
H10D C12D 1_555 1_555
C13D H11D 1_555 1_555
C14D C13D 1_555 1_555
H12D C14D 1_555 1_555
C15D C14D 1_555 1_555
C16D C15D 1_555 1_555
H13D C16D 1_555 1_555
C17D C16D 1_555 1_555
H14D C17D 1_555 1_555
C18D C15D 1_555 1_555
H15D C18D 1_555 1_555
H16D C18D 1_555 1_555
C19D C18D 1_555 1_555
H17D C19D 1_555 1_555
H18D C19D 1_555 1_555
C20D C19D 1_555 1_555
H19D C20D 1_555 1_555
H20D C20D 1_555 1_555
C21D C20D 1_555 1_555
C22D C21D 1_555 1_555
H21D C22D 1_555 1_555
C23D C22D 1_555 1_555
H22D C23D 1_555 1_555
C24D H23D 1_555 1_555
C25D C21D 1_555 1_555
H24D C25D 1_555 1_555
N1D Co1 1_555 1_555
N2D C23D 1_555 1_555
N2C Co1 1_555 1_555
N2G Co1 1_555 1_555
O1D C1D 1_555 1_555
O2D Co1 1_555 1_555
O4D P1D 1_555 1_555
O5D C7D 1_555 1_555
P1D O1D 1_555 1_555
Co1C N2 1_555 1_555
Co1C_2 N2D 1_555 1_555
H25A O3 1_555 1_555
C5 C6 1_555 1_555
C11 C12 1_555 1_555
C17 N1 1_555 1_555
C24 C25 1_555 1_555
C24 N2 1_555 1_555
O2 Co1 1_555 1_555
O5 P1 1_555 1_555
C5D C6D 1_555 1_555
C11D C12D 1_555 1_555
C13D N1D 1_555 1_555
C17D N1D 1_555 1_555
C24D C25D 1_555 1_555
C24D N2D 1_555 1_555
O2D P1D 1_555 1_555
O5D P1D 1_555 1_555

#END
