
#######################################################################
#
#                 Cambridge Crystallographic Data Centre
#                                CCDC 
#
#######################################################################
#
# If this CIF has been generated from an entry in the Cambridge 
# Structural Database, then it will include bibliographic, chemical, 
# crystal, experimental, refinement or atomic coordinate data resulting 
# from the CCDC's data processing and validation procedures.
#
#######################################################################

data_TEKSAF
_symmetry_cell_setting           triclinic
_symmetry_space_group_name_H-M   'P -1'
_symmetry_Int_Tables_number      2
_space_group_name_Hall           '-P 1'
loop_
_symmetry_equiv_pos_site_id
_symmetry_equiv_pos_as_xyz
1 x,y,z
2 -x,-y,-z
_cell_length_a                   11.010(3)
_cell_length_b                   11.104(3)
_cell_length_c                   11.500(3)
_cell_angle_alpha                63.251(12)
_cell_angle_beta                 65.029(12)
_cell_angle_gamma                83.120(13)
_cell_volume                     1133.83
loop_
_atom_site_label
_atom_site_type_symbol
_atom_site_fract_x
_atom_site_fract_y
_atom_site_fract_z
C1 C 0.6438(3) 0.4458(3) 0.7207(3)
H1 H 0.5647 0.4777 0.7661
C2 C 0.7352(3) 0.4062(3) 0.7818(3)
H2 H 0.7180 0.4141 0.8644
C3 C 0.8518(2) 0.3551(2) 0.7200(3)
C4 C 0.8733(3) 0.3509(3) 0.5946(3)
H3 H 0.9514 0.3187 0.5481
C5 C 0.7785(3) 0.3948(3) 0.5383(3)
H4 H 0.7961 0.3923 0.4529
C6 C 0.9476(3) 0.3041(3) 0.7919(3)
H5 H 0.9774 0.3775 0.8002
H6 H 1.0261 0.2759 0.7326
C7 C 0.8816(3) 0.1831(3) 0.9435(3)
H7 H 0.9378 0.1669 0.9944
H8 H 0.7945 0.2047 0.9978
C8 C 0.8652(3) 0.0588(3) 0.9299(3)
H9 H 0.9540 0.0361 0.8807
H10 H 0.8178 0.0808 0.8693
C9 C 0.7911(2) -0.0671(3) 1.0682(3)
C10 C 0.7334(3) -0.0769(3) 1.2052(3)
H11 H 0.7409 -0.0028 1.2198
C11 C 0.6641(3) -0.1978(3) 1.3211(3)
H12 H 0.6269 -0.2019 1.4121
C12 C 0.7069(3) -0.2981(3) 1.1761(3)
H13 H 0.6988 -0.3735 1.1637
C13 C 0.7788(3) -0.1829(3) 1.0568(3)
H14 H 0.8194 -0.1831 0.9678
C14 C 0.8613(2) 0.2321(3) 0.2674(3)
C15 C 0.9338(3) 0.3569(4) 0.1850(4)
H15 H 0.8969 0.4327 0.1373
C16 C 1.0639(3) 0.3676(6) 0.1742(6)
H16 H 1.1136 0.4514 0.1184
C17 C 1.1186(4) 0.2585(6) 0.2431(5)
H17 H 1.2040 0.2675 0.2377
C18 C 1.0455(4) 0.1323(6) 0.3226(4)
H18 H 1.0835 0.0560 0.3677
C19 C 0.9176(3) 0.1202(4) 0.3345(3)
H19 H 0.8690 0.0359 0.3882
C20 C 0.4665(2) 0.1605(2) 0.2813(2)
C21 C 0.4145(3) 0.0281(3) 0.3741(3)
H20 H 0.4016 -0.0086 0.4693
C22 C 0.3821(3) -0.0492(4) 0.3231(5)
H21 H 0.3453 -0.1381 0.3850
C23 C 0.4036(3) 0.0036(5) 0.1831(5)
H22 H 0.3839 -0.0499 0.1490
C24 C 0.4853(3) 0.2174(3) 0.1406(3)
H23 H 0.5179 0.3076 0.0798
C25 C 0.4545(4) 0.1368(5) 0.0918(4)
H24 H 0.4683 0.1727 -0.0036
N1 N 0.6625(2) 0.4408(2) 0.6002(2)
N2 N 0.6479(2) -0.3086(2) 1.3088(2)
O1 O 0.61034(18) 0.37892(19) 0.37544(19)
O2 O 0.73155(17) 0.21099(18) 0.2850(2)
O3 O 0.49335(16) 0.23380(17) 0.33993(17)
O4 O 0.6652(2) 0.42423(19) 0.11972(19)
P1 P 0.62893(6) 0.32840(6) 0.27027(6)
Cd1 Cd 0.5000 0.5000 0.5000
C1_2 C 0.6438(3) 1.4458(3) -0.2793(3)
H1_2 H 0.5647 1.4777 -0.2339
C2_2 C 0.7352(3) 1.4062(3) -0.2182(3)
H2_2 H 0.7180 1.4141 -0.1356
C3_2 C 0.8518(2) 1.3551(2) -0.2800(3)
C4_2 C 0.8733(3) 1.3509(3) -0.4054(3)
H3_2 H 0.9514 1.3187 -0.4519
C5_2 C 0.7785(3) 1.3948(3) -0.4617(3)
H4_2 H 0.7961 1.3923 -0.5471
C6_2 C 0.9476(3) 1.3041(3) -0.2081(3)
H5_2 H 0.9774 1.3775 -0.1998
H6_2 H 1.0261 1.2759 -0.2674
C7_2 C 0.8816(3) 1.1831(3) -0.0565(3)
H7_2 H 0.9378 1.1669 -0.0056
H8_2 H 0.7945 1.2047 -0.0022
C8_2 C 0.8652(3) 1.0588(3) -0.0701(3)
H9_2 H 0.9540 1.0361 -0.1193
H10_2 H 0.8178 1.0808 -0.1307
C9_2 C 0.7911(2) 0.9329(3) 0.0682(3)
C10_2 C 0.7334(3) 0.9231(3) 0.2052(3)
H11_2 H 0.7409 0.9972 0.2198
C11_2 C 0.6641(3) 0.8022(3) 0.3211(3)
H12_2 H 0.6269 0.7981 0.4121
C12_2 C 0.7069(3) 0.7019(3) 0.1761(3)
H13_2 H 0.6988 0.6265 0.1637
C13_2 C 0.7788(3) 0.8171(3) 0.0568(3)
H14_2 H 0.8194 0.8169 -0.0322
C14A C 0.1387(2) 0.7679(3) 0.7326(3)
C15A C 0.0662(3) 0.6431(4) 0.8150(4)
H15A H 0.1031 0.5673 0.8627
C16A C -0.0639(3) 0.6324(6) 0.8258(6)
H16A H -0.1136 0.5486 0.8816
C17A C -0.1186(4) 0.7415(6) 0.7569(5)
H17A H -0.2040 0.7325 0.7623
C18A C -0.0455(4) 0.8677(6) 0.6774(4)
H18A H -0.0835 0.9440 0.6323
C19A C 0.0824(3) 0.8798(4) 0.6655(3)
H19A H 0.1310 0.9641 0.6118
C20A C 0.5335(2) 0.8395(2) 0.7187(2)
C21A C 0.5855(3) 0.9719(3) 0.6259(3)
H20A H 0.5984 1.0086 0.5307
C22A C 0.6179(3) 1.0492(4) 0.6769(5)
H21A H 0.6547 1.1381 0.6150
C23A C 0.5964(3) 0.9964(5) 0.8169(5)
H22A H 0.6161 1.0499 0.8510
C24A C 0.5147(3) 0.7826(3) 0.8594(3)
H23A H 0.4821 0.6924 0.9202
C25A C 0.5455(4) 0.8632(5) 0.9082(4)
H24A H 0.5317 0.8273 1.0036
N1_2 N 0.6625(2) 1.4408(2) -0.3998(2)
N1A N 0.3375(2) 0.5592(2) 0.3998(2)
N2_2 N 0.6479(2) 0.6914(2) 0.3088(2)
N2A N 0.3521(2) 0.3086(2) 0.6912(2)
O1A O 0.38966(18) 0.62108(19) 0.62456(19)
O2A O 0.26845(17) 0.78901(18) 0.7150(2)
O3A O 0.50665(16) 0.76620(17) 0.66007(17)
O4A O 0.3348(2) 0.57577(19) 0.88028(19)
P1A P 0.37107(6) 0.67160(6) 0.72973(6)
Cd1_2 Cd 0.5000 -0.5000 1.5000
Cd1_3 Cd 0.5000 1.5000 -0.5000
loop_
_geom_bond_atom_site_label_1
_geom_bond_atom_site_label_2
_geom_bond_site_symmetry_1
_geom_bond_site_symmetry_2
C1 H1 1_555 1_555
C2 C1 1_555 1_555
H2 C2 1_555 1_555
C3 C2 1_555 1_555
C4 C3 1_555 1_555
H3 C4 1_555 1_555
C5 C4 1_555 1_555
H4 C5 1_555 1_555
C6 C3 1_555 1_555
H5 C6 1_555 1_555
H6 C6 1_555 1_555
C7 C6 1_555 1_555
H7 C7 1_555 1_555
H8 C7 1_555 1_555
C8 C7 1_555 1_555
H9 C8 1_555 1_555
H10 C8 1_555 1_555
C9 C8 1_555 1_555
C10 C9 1_555 1_555
H11 C10 1_555 1_555
C11 C10 1_555 1_555
H12 C11 1_555 1_555
C12 H13 1_555 1_555
C13 C9 1_555 1_555
H14 C13 1_555 1_555
C14 C15 1_555 1_555
C15 H15 1_555 1_555
C16 C15 1_555 1_555
H16 C16 1_555 1_555
C17 C16 1_555 1_555
H17 C17 1_555 1_555
C18 C17 1_555 1_555
H18 C18 1_555 1_555
C19 C14 1_555 1_555
H19 C19 1_555 1_555
C20 C21 1_555 1_555
C21 H20 1_555 1_555
C22 C21 1_555 1_555
H21 C22 1_555 1_555
C23 C22 1_555 1_555
H22 C23 1_555 1_555
C24 C20 1_555 1_555
H23 C24 1_555 1_555
C25 C23 1_555 1_555
H24 C25 1_555 1_555
N1 C1 1_555 1_555
N2 C11 1_555 1_555
O1 P1 1_555 1_555
O2 C14 1_555 1_555
O3 C20 1_555 1_555
O4 P1 1_555 1_555
P1 O2 1_555 1_555
Cd1 N1 1_555 1_555
C1_2 H1_2 1_555 1_555
C2_2 C1_2 1_555 1_555
H2_2 C2_2 1_555 1_555
C3_2 C2_2 1_555 1_555
C4_2 C3_2 1_555 1_555
H3_2 C4_2 1_555 1_555
C5_2 C4_2 1_555 1_555
H4_2 C5_2 1_555 1_555
C6_2 C3_2 1_555 1_555
H5_2 C6_2 1_555 1_555
H6_2 C6_2 1_555 1_555
C7_2 C6_2 1_555 1_555
H7_2 C7_2 1_555 1_555
H8_2 C7_2 1_555 1_555
C8_2 C7_2 1_555 1_555
H9_2 C8_2 1_555 1_555
H10_2 C8_2 1_555 1_555
C9_2 C8_2 1_555 1_555
C10_2 C9_2 1_555 1_555
H11_2 C10_2 1_555 1_555
C11_2 C10_2 1_555 1_555
H12_2 C11_2 1_555 1_555
C12_2 H13_2 1_555 1_555
C13_2 C9_2 1_555 1_555
H14_2 C13_2 1_555 1_555
C14A C15A 1_555 1_555
C15A H15A 1_555 1_555
C16A C15A 1_555 1_555
H16A C16A 1_555 1_555
C17A C16A 1_555 1_555
H17A C17A 1_555 1_555
C18A C17A 1_555 1_555
H18A C18A 1_555 1_555
C19A C14A 1_555 1_555
H19A C19A 1_555 1_555
C20A C21A 1_555 1_555
C21A H20A 1_555 1_555
C22A C21A 1_555 1_555
H21A C22A 1_555 1_555
C23A C22A 1_555 1_555
H22A C23A 1_555 1_555
C24A C20A 1_555 1_555
H23A C24A 1_555 1_555
C25A C23A 1_555 1_555
H24A C25A 1_555 1_555
N1_2 C1_2 1_555 1_555
N1A Cd1 1_555 1_555
N2_2 Cd1 1_555 1_555
N2A Cd1 1_555 1_555
O1A Cd1 1_555 1_555
O2A C14A 1_555 1_555
O3A C20A 1_555 1_555
O4A P1A 1_555 1_555
P1A O1A 1_555 1_555
Cd1_2 N2 1_555 1_555
Cd1_3 N1_2 1_555 1_555
C5 N1 1_555 1_555
C12 C13 1_555 1_555
C12 N2 1_555 1_555
C18 C19 1_555 1_555
C24 C25 1_555 1_555
O1 Cd1 1_555 1_555
O3 P1 1_555 1_555
C5_2 N1_2 1_555 1_555
C11_2 N2_2 1_555 1_555
C12_2 C13_2 1_555 1_555
C12_2 N2_2 1_555 1_555
C18A C19A 1_555 1_555
C24A C25A 1_555 1_555
O2A P1A 1_555 1_555
O3A P1A 1_555 1_555

#END
