
#######################################################################
#
#                 Cambridge Crystallographic Data Centre
#                                CCDC 
#
#######################################################################
#
# If this CIF has been generated from an entry in the Cambridge 
# Structural Database, then it will include bibliographic, chemical, 
# crystal, experimental, refinement or atomic coordinate data resulting 
# from the CCDC's data processing and validation procedures.
#
#######################################################################

data_TEKYOX
_symmetry_cell_setting           monoclinic
_symmetry_space_group_name_H-M   'P 21/c'
_symmetry_Int_Tables_number      14
_space_group_name_Hall           '-P 2ybc'
loop_
_symmetry_equiv_pos_site_id
_symmetry_equiv_pos_as_xyz
1 x,y,z
2 -x,1/2+y,1/2-z
3 -x,-y,-z
4 x,1/2-y,1/2+z
_cell_length_a                   5.428(2)
_cell_length_b                   9.747(3)
_cell_length_c                   16.115(2)
_cell_angle_alpha                90
_cell_angle_beta                 94.336(4)
_cell_angle_gamma                90
_cell_volume                     850.151
loop_
_atom_site_label
_atom_site_type_symbol
_atom_site_fract_x
_atom_site_fract_y
_atom_site_fract_z
Ag1 Ag 1.1920(1) -0.0784(1) 0.46845(4)
O1 O 0.9120(9) -0.0906(8) 0.3648(3)
O2 O 1.599(1) 0.0267(7) 0.4121(3)
O3 O -0.082(1) 0.1523(7) 0.2097(4)
O4 O -0.066(1) 0.0990(9) 0.0788(4)
O5 O 0.557(1) -0.2139(7) -0.0021(4)
O6 O 0.864(1) -0.2670(7) 0.0866(4)
N1 N 0.014(1) 0.0975(9) 0.1526(4)
N2 N 0.665(1) -0.2095(9) 0.0680(4)
C1 C 0.562(1) -0.0565(9) 0.2728(5)
C2 C 0.345(2) 0.0171(9) 0.2548(5)
C3 C 0.235(2) 0.014(1) 0.1730(5)
C4 C 0.338(2) -0.0597(9) 0.1111(5)
C5 C 0.549(2) -0.134(1) 0.1330(5)
C6 C 0.663(2) -0.1302(9) 0.2118(5)
C7 C 0.703(1) -0.0395(9) 0.3582(5)
H1 H 0.273 0.068 0.297
H2 H 0.265 -0.060 0.056
H3 H 0.813 -0.179 0.224
Ag1B Ag 0.8080(1) 0.0784(1) 0.53155(4)
O1B O 1.0880(9) 0.0906(8) 0.6352(3)
C7B C 1.297(1) 0.0395(9) 0.6418(5)
O2B O 1.401(1) -0.0267(7) 0.5879(3)
Ag1B_2 Ag 1.8080(1) 0.0784(1) 0.53155(4)
C1B C 1.438(1) 0.0565(9) 0.7272(5)
C2B C 1.655(2) -0.0171(9) 0.7452(5)
C3B C 1.765(2) -0.014(1) 0.8270(5)
N1B N 1.986(1) -0.0975(9) 0.8474(4)
O3B O 2.082(1) -0.1523(7) 0.7903(4)
O4B O 2.066(1) -0.0990(9) 0.9212(4)
C4B C 1.662(2) 0.0597(9) 0.8889(5)
C5B C 1.451(2) 0.134(1) 0.8670(5)
N2B N 1.335(1) 0.2095(9) 0.9320(4)
O5B O 1.443(1) 0.2139(7) 1.0021(4)
O6B O 1.136(1) 0.2670(7) 0.9134(4)
C6B C 1.337(2) 0.1302(9) 0.7882(5)
H3B H 1.187 0.179 0.776
H2B H 1.735 0.060 0.944
H1B H 1.727 -0.068 0.703
O2B_2 O 0.401(1) -0.0267(7) 0.5879(3)
O2_2 O 0.599(1) 0.0267(7) 0.4121(3)
Ag1_2 Ag 0.1920(1) -0.0784(1) 0.46845(4)
loop_
_geom_bond_atom_site_label_1
_geom_bond_atom_site_label_2
_geom_bond_site_symmetry_1
_geom_bond_site_symmetry_2
Ag1 O1 1_555 1_555
O1 C7 1_555 1_555
O2 Ag1 1_555 1_555
O3 N1 1_555 1_555
O4 N1 1_555 1_555
O5 N2 1_555 1_555
O6 N2 1_555 1_555
N1 C3 1_555 1_555
N2 C5 1_555 1_555
C1 C2 1_555 1_555
C2 C3 1_555 1_555
C3 C4 1_555 1_555
C4 C5 1_555 1_555
C5 C6 1_555 1_555
C6 C1 1_555 1_555
C7 C1 1_555 1_555
H1 C2 1_555 1_555
H2 C4 1_555 1_555
H3 C6 1_555 1_555
Ag1B Ag1 1_555 1_555
O1B Ag1B 1_555 1_555
C7B O1B 1_555 1_555
O2B Ag1 1_555 1_555
Ag1B_2 O2 1_555 1_555
C1B C7B 1_555 1_555
C2B C1B 1_555 1_555
C3B C2B 1_555 1_555
N1B C3B 1_555 1_555
O3B N1B 1_555 1_555
O4B N1B 1_555 1_555
C4B C3B 1_555 1_555
C5B C4B 1_555 1_555
N2B C5B 1_555 1_555
O5B N2B 1_555 1_555
O6B N2B 1_555 1_555
C6B C1B 1_555 1_555
H3B C6B 1_555 1_555
H2B C4B 1_555 1_555
H1B C2B 1_555 1_555
O2B_2 Ag1B 1_555 1_555
O2_2 C7 1_555 1_555
Ag1_2 O2B_2 1_555 1_555
Ag1B O2_2 1_555 1_555
C7B O2B 1_555 1_555
O2B Ag1B_2 1_555 1_555
C5B C6B 1_555 1_555
O2_2 Ag1_2 1_555 1_555

#END
