
#######################################################################
#
#                 Cambridge Crystallographic Data Centre
#                                CCDC 
#
#######################################################################
#
# If this CIF has been generated from an entry in the Cambridge 
# Structural Database, then it will include bibliographic, chemical, 
# crystal, experimental, refinement or atomic coordinate data resulting 
# from the CCDC's data processing and validation procedures.
#
#######################################################################

data_TEKYOX01
_symmetry_cell_setting           monoclinic
_symmetry_space_group_name_H-M   'P 21/c'
_symmetry_Int_Tables_number      14
_space_group_name_Hall           '-P 2ybc'
loop_
_symmetry_equiv_pos_site_id
_symmetry_equiv_pos_as_xyz
1 x,y,z
2 -x,1/2+y,1/2-z
3 -x,-y,-z
4 x,1/2-y,1/2+z
_cell_length_a                   5.2185(2)
_cell_length_b                   27.2427(10)
_cell_length_c                   6.6335(3)
_cell_angle_alpha                90
_cell_angle_beta                 109.0310(13)
_cell_angle_gamma                90
_cell_volume                     891.513
loop_
_atom_site_label
_atom_site_type_symbol
_atom_site_fract_x
_atom_site_fract_y
_atom_site_fract_z
C1 C 0.5254(4) -0.10507(8) 0.3895(3)
C2 C 0.4535(5) -0.15366(8) 0.4027(3)
H1 H 0.2821 -0.1650 0.3234
C3 C 0.6422(5) -0.18488(8) 0.5361(4)
C4 C 0.8991(5) -0.17049(9) 0.6582(4)
H2 H 1.0227 -0.1923 0.7464
C5 C 0.9613(4) -0.12188(8) 0.6414(3)
C6 C 0.7821(4) -0.08873(8) 0.5104(3)
H3 H 0.8323 -0.0562 0.5033
C7 C 0.3286(4) -0.06922(8) 0.2469(3)
N1 N 0.5653(5) -0.23662(8) 0.5501(4)
N2 N 1.2334(4) -0.10411(8) 0.7649(3)
O1 O 0.3241(5) -0.24636(9) 0.4863(4)
O2 O 0.7422(5) -0.26614(8) 0.6288(5)
O3 O 1.2862(4) -0.06093(7) 0.7440(3)
O4 O 1.3954(4) -0.13309(8) 0.8780(3)
O5 O 0.0862(3) -0.08215(7) 0.1747(3)
O6 O 0.4284(4) -0.02922(6) 0.2129(3)
Ag1 Ag 0.22353(4) 0.032505(7) 0.01318(3)
O3B O 0.7138(4) 0.06093(7) 0.2560(3)
O5B O -0.0862(3) 0.08215(7) -0.1747(3)
O6B O 0.5716(4) 0.02922(6) -0.2129(3)
Ag1B Ag -0.22353(4) -0.032505(7) -0.01318(3)
Ag1B_2 Ag 0.77647(4) -0.032505(7) -0.01318(3)
Ag1B_3 Ag 1.77647(4) -0.032505(7) 0.98682(3)
loop_
_geom_bond_atom_site_label_1
_geom_bond_atom_site_label_2
_geom_bond_site_symmetry_1
_geom_bond_site_symmetry_2
C1 C2 1_555 1_555
C2 H1 1_555 1_555
C3 C2 1_555 1_555
C4 C3 1_555 1_555
H2 C4 1_555 1_555
C5 C4 1_555 1_555
C6 C1 1_555 1_555
H3 C6 1_555 1_555
C7 C1 1_555 1_555
N1 C3 1_555 1_555
N2 C5 1_555 1_555
O1 N1 1_555 1_555
O2 N1 1_555 1_555
O3 N2 1_555 1_555
O4 N2 1_555 1_555
O5 C7 1_555 1_555
O6 C7 1_555 1_555
Ag1 O6 1_555 1_555
O3B Ag1 1_555 1_555
O5B Ag1 1_555 1_555
O6B Ag1 1_555 1_555
Ag1B O5 1_555 1_555
Ag1B_2 O6 1_555 1_555
Ag1B_3 O3 1_555 1_555
C5 C6 1_555 1_555
Ag1 Ag1B 1_555 1_555
O6B Ag1B_2 1_555 1_555

#END
