
#######################################################################
#
#                 Cambridge Crystallographic Data Centre
#                                CCDC 
#
#######################################################################
#
# If this CIF has been generated from an entry in the Cambridge 
# Structural Database, then it will include bibliographic, chemical, 
# crystal, experimental, refinement or atomic coordinate data resulting 
# from the CCDC's data processing and validation procedures.
#
#######################################################################

data_TEKZUG
_symmetry_cell_setting           monoclinic
_symmetry_space_group_name_H-M   'P 21/c'
_symmetry_Int_Tables_number      14
_space_group_name_Hall           '-P 2ybc'
loop_
_symmetry_equiv_pos_site_id
_symmetry_equiv_pos_as_xyz
1 x,y,z
2 -x,1/2+y,1/2-z
3 -x,-y,-z
4 x,1/2-y,1/2+z
_cell_length_a                   7.332(3)
_cell_length_b                   36.023(9)
_cell_length_c                   7.8838(13)
_cell_angle_alpha                90
_cell_angle_beta                 105.65(3)
_cell_angle_gamma                90
_cell_volume                     2005.08
loop_
_atom_site_label
_atom_site_type_symbol
_atom_site_fract_x
_atom_site_fract_y
_atom_site_fract_z
Zn1 Zn 0.82808(19) 0.18498(4) 0.6664(2)
C1 C 0.463(2) 0.1577(4) 0.561(2)
C2 C 0.4543(18) 0.1974(4) 0.498(2)
C3 C 0.298(2) 0.2183(5) 0.418(2)
H1 H 0.1780 0.2075 0.3905
C4 C 0.316(2) 0.2554(5) 0.380(3)
H2 H 0.2087 0.2694 0.3293
C5 C 0.4837(19) 0.2712(4) 0.413(2)
H3 H 0.4987 0.2963 0.3941
C6 C 0.6284(17) 0.2490(3) 0.4743(18)
C7 C 0.8220(16) 0.2599(3) 0.501(2)
C8 C 1.128(2) 0.1495(4) 0.977(2)
H4 H 1.1057 0.1694 1.0446
C9 C 1.247(2) 0.1217(4) 1.059(2)
H5 H 1.3113 0.1225 1.1781
C10 C 1.2669(19) 0.0915(4) 0.949(2)
H6 H 1.3462 0.0718 0.9977
C11 C 1.1658(17) 0.0903(3) 0.7610(19)
C12 C 1.1788(18) 0.0593(3) 0.637(2)
C13 C 1.2876(19) 0.0021(4) 0.591(2)
C14 C 1.394(2) -0.0288(4) 0.658(3)
H7 H 1.4543 -0.0308 0.7771
C15 C 1.407(2) -0.0568(4) 0.541(3)
H8 H 1.4782 -0.0776 0.5859
C16 C 1.313(2) -0.0555(4) 0.348(3)
H9 H 1.3278 -0.0755 0.2781
C17 C 1.209(2) -0.0262(4) 0.273(3)
H10 H 1.1498 -0.0249 0.1525
C18 C 1.1952(19) 0.0039(4) 0.397(3)
C19 C 1.0823(17) 0.0601(4) 0.439(2)
C20 C 0.9713(15) 0.0919(4) 0.370(2)
C21 C 0.8683(19) 0.0941(4) 0.178(2)
H11 H 0.8767 0.0749 0.1020
C22 C 0.763(2) 0.1247(4) 0.117(2)
H12 H 0.6954 0.1276 -0.0001
C23 C 0.764(2) 0.1527(3) 0.252(2)
H13 H 0.6952 0.1743 0.2130
C24 C 0.9540(16) 0.1208(3) 0.4838(18)
C25 C 1.0545(16) 0.1199(3) 0.685(2)
N1 N 0.6111(13) 0.2132(3) 0.5190(15)
N2 N 1.0376(15) 0.1493(3) 0.7975(17)
N3 N 0.8546(14) 0.1511(3) 0.4315(16)
N4 N 1.2783(16) 0.0308(3) 0.7090(19)
N5 N 1.0913(16) 0.0329(3) 0.3206(16)
O1 O 0.3294(15) 0.1385(3) 0.5065(18)
O2 O 0.6086(13) 0.1478(2) 0.6681(15)
O3 O 0.9310(11) 0.2364(2) 0.5731(14)
O4 O 0.8481(13) 0.2911(2) 0.4333(14)
Zn1C Zn 0.82808(19) 0.31502(4) 0.1664(2)
O4C O 0.8481(13) 0.2089(2) 0.9333(14)
loop_
_geom_bond_atom_site_label_1
_geom_bond_atom_site_label_2
_geom_bond_site_symmetry_1
_geom_bond_site_symmetry_2
Zn1 N1 1_555 1_555
C1 C2 1_555 1_555
C2 C3 1_555 1_555
C3 H1 1_555 1_555
C4 C3 1_555 1_555
H2 C4 1_555 1_555
C5 C4 1_555 1_555
H3 C5 1_555 1_555
C6 C5 1_555 1_555
C7 C6 1_555 1_555
C8 H4 1_555 1_555
C9 C8 1_555 1_555
H5 C9 1_555 1_555
C10 C9 1_555 1_555
H6 C10 1_555 1_555
C11 C10 1_555 1_555
C12 C11 1_555 1_555
C13 C14 1_555 1_555
C14 H7 1_555 1_555
C15 C14 1_555 1_555
H8 C15 1_555 1_555
C16 C15 1_555 1_555
H9 C16 1_555 1_555
C17 C16 1_555 1_555
H10 C17 1_555 1_555
C18 C13 1_555 1_555
C19 C12 1_555 1_555
C20 C19 1_555 1_555
C21 C20 1_555 1_555
H11 C21 1_555 1_555
C22 C21 1_555 1_555
H12 C22 1_555 1_555
C23 C22 1_555 1_555
H13 C23 1_555 1_555
C24 C20 1_555 1_555
C25 C11 1_555 1_555
N1 C2 1_555 1_555
N2 Zn1 1_555 1_555
N3 Zn1 1_555 1_555
N4 C12 1_555 1_555
N5 C18 1_555 1_555
O1 C1 1_555 1_555
O2 Zn1 1_555 1_555
O3 Zn1 1_555 1_555
O4 C7 1_555 1_555
Zn1C O4 1_555 1_555
O4C Zn1 1_555 1_555
C1 O2 1_555 1_555
C6 N1 1_555 1_555
C7 O3 1_555 1_555
C8 N2 1_555 1_555
C13 N4 1_555 1_555
C17 C18 1_555 1_555
C19 N5 1_555 1_555
C23 N3 1_555 1_555
C24 C25 1_555 1_555
C24 N3 1_555 1_555
C25 N2 1_555 1_555

#END
