
#######################################################################
#
#                 Cambridge Crystallographic Data Centre
#                                CCDC 
#
#######################################################################
#
# If this CIF has been generated from an entry in the Cambridge 
# Structural Database, then it will include bibliographic, chemical, 
# crystal, experimental, refinement or atomic coordinate data resulting 
# from the CCDC's data processing and validation procedures.
#
#######################################################################

data_TELDAP
_symmetry_cell_setting           monoclinic
_symmetry_space_group_name_H-M   'P 21/c'
_symmetry_Int_Tables_number      14
_space_group_name_Hall           '-P 2ybc'
loop_
_symmetry_equiv_pos_site_id
_symmetry_equiv_pos_as_xyz
1 x,y,z
2 -x,1/2+y,1/2-z
3 -x,-y,-z
4 x,1/2-y,1/2+z
_cell_length_a                   4.790(2)
_cell_length_b                   10.506(6)
_cell_length_c                   10.851(6)
_cell_angle_alpha                90
_cell_angle_beta                 103.69(5)
_cell_angle_gamma                90
_cell_volume                     530.549
loop_
_atom_site_label
_atom_site_type_symbol
_atom_site_fract_x
_atom_site_fract_y
_atom_site_fract_z
K1 K 0.78367(6) 0.50511(3) 0.14694(3)
O1 O 0.2601(3) 0.38842(9) 0.10990(10)
O2 O 0.5774(3) 0.30214(9) -0.03924(10)
O3 O -0.0012(3) 0.18665(11) -0.14564(10)
O4 O 0.1595(3) 0.19320(10) 0.17033(10)
C1 C 0.2745(3) 0.26942(12) 0.10701(11)
C2 C 0.4449(3) 0.20646(11) 0.02050(12)
C3 C 0.2472(3) 0.12122(12) -0.07495(13)
H1 H 0.705(6) 0.274(3) -0.070(3)
H2 H 0.058(6) 0.235(3) -0.210(3)
H3 H 0.595(4) 0.1542(17) 0.0739(19)
H4 H 0.184(5) 0.053(3) -0.0334(20)
H5 H 0.346(5) 0.078(3) -0.134(3)
K1B K 0.21633(6) 0.49489(3) -0.14694(3)
K1B_2 K 1.21633(6) 0.49489(3) -0.14694(3)
O1_2 O 1.2601(3) 0.38842(9) 0.10990(10)
O1B O 0.7399(3) 0.61158(9) -0.10990(10)
O2B O 0.4226(3) 0.69786(9) 0.03924(10)
O3B O 1.0012(3) 0.81335(11) 0.14564(10)
O3C O 0.9988(3) 0.31335(11) 0.35436(10)
O4A O 0.8405(3) 0.69320(10) 0.32967(10)
K1_2 K -0.21633(6) 0.50511(3) 0.14694(3)
K1C K -0.21633(6) -0.00511(3) -0.35306(3)
K1A K 0.21633(6) 0.00511(3) 0.35306(3)
H1B H 0.295(6) 0.726(3) 0.070(3)
H2B H 0.942(6) 0.765(3) 0.210(3)
H2C H 1.058(6) 0.265(3) 0.290(3)
loop_
_geom_bond_atom_site_label_1
_geom_bond_atom_site_label_2
_geom_bond_site_symmetry_1
_geom_bond_site_symmetry_2
K1 O1 1_555 1_555
O1 C1 1_555 1_555
O2 K1 1_555 1_555
O3 C3 1_555 1_555
O4 C1 1_555 1_555
C1 C2 1_555 1_555
C2 O2 1_555 1_555
C3 C2 1_555 1_555
H1 O2 1_555 1_555
H2 O3 1_555 1_555
H3 C2 1_555 1_555
H4 C3 1_555 1_555
H5 C3 1_555 1_555
K1B O1 1_555 1_555
K1B_2 O1_2 1_555 1_555
O1_2 K1 1_555 1_555
O1B K1 1_555 1_555
O2B K1 1_555 1_555
O3B K1 1_555 1_555
O3C K1 1_555 1_555
O4A K1 1_555 1_555
K1_2 O1 1_555 1_555
K1C O3 1_555 1_555
K1A O4 1_555 1_555
H1B O2B 1_555 1_555
H2B O3B 1_555 1_555
H2C O3C 1_555 1_555
O2 K1B 1_555 1_555
O3 K1B 1_555 1_555
K1B O1B 1_555 1_555
K1B O2B 1_555 1_555
K1B_2 O1B 1_555 1_555

#END
