
#######################################################################
#
#                 Cambridge Crystallographic Data Centre
#                                CCDC 
#
#######################################################################
#
# If this CIF has been generated from an entry in the Cambridge 
# Structural Database, then it will include bibliographic, chemical, 
# crystal, experimental, refinement or atomic coordinate data resulting 
# from the CCDC's data processing and validation procedures.
#
#######################################################################

data_TELDUL
_symmetry_cell_setting           monoclinic
_symmetry_space_group_name_H-M   'P 21/c'
_symmetry_Int_Tables_number      14
_space_group_name_Hall           '-P 2ybc'
loop_
_symmetry_equiv_pos_site_id
_symmetry_equiv_pos_as_xyz
1 x,y,z
2 -x,1/2+y,1/2-z
3 -x,-y,-z
4 x,1/2-y,1/2+z
_cell_length_a                   16.346(3)
_cell_length_b                   6.6684(13)
_cell_length_c                   12.675(3)
_cell_angle_alpha                90
_cell_angle_beta                 108.774(2)
_cell_angle_gamma                90
_cell_volume                     1308.09
loop_
_atom_site_label
_atom_site_type_symbol
_atom_site_fract_x
_atom_site_fract_y
_atom_site_fract_z
Sr1 Sr 0.02400(3) 0.06811(5) 0.67965(3)
O1 O 0.0895(2) -0.2799(4) 0.7250(3)
O2 O 0.0259(2) -0.5635(4) 0.6483(3)
O3 O 0.0737(2) -0.8643(5) 0.5138(3)
O4 O 0.1005(2) -0.7852(5) 0.3596(2)
O5 O 0.2048(3) 0.0838(5) 0.7456(3)
H1 H 0.2210 0.2036 0.7408
H2 H 0.2110 0.0567 0.8132
N1 N 0.1911(3) -0.2694(5) 0.5914(3)
H3 H 0.1985 -0.1680 0.6354
N2 N 0.2047(3) -0.4691(6) 0.4598(3)
C1 C 0.0819(3) -0.4285(6) 0.6595(4)
C2 C 0.1397(3) -0.4335(6) 0.5909(4)
C3 C 0.1491(3) -0.5578(6) 0.5076(4)
C4 C 0.1050(3) -0.7480(6) 0.4587(3)
C5 C 0.2278(3) -0.2955(7) 0.5108(4)
C6 C 0.2875(3) -0.1509(7) 0.4854(4)
C7 C 0.3213(4) -0.1923(8) 0.4005(4)
H4 H 0.3086 -0.3146 0.3636
C8 C 0.3735(4) -0.0571(8) 0.3689(5)
C9 C 0.3916(4) 0.1290(9) 0.4227(5)
C10 C 0.3589(4) 0.1679(8) 0.5080(5)
H5 H 0.3716 0.2901 0.5451
C11 C 0.3078(4) 0.0316(8) 0.5404(5)
H6 H 0.2871 0.0621 0.5988
C12 C 0.4087(5) -0.1117(11) 0.2760(6)
H7 H 0.3928 -0.2471 0.2526
H8 H 0.4706 -0.1002 0.3022
H9 H 0.3852 -0.0224 0.2142
C13 C 0.4475(5) 0.2824(10) 0.3897(6)
H10 H 0.4205 0.3203 0.3133
H11 H 0.5033 0.2253 0.3986
H12 H 0.4542 0.3987 0.4364
Sr1A Sr -0.02400(3) -0.43189(5) 0.82035(3)
Sr1_2 Sr 0.02400(3) -0.93189(5) 0.67965(3)
Sr1B Sr -0.02400(3) -1.06811(5) 0.32035(3)
Sr1C Sr 0.02400(3) -0.56811(5) 0.17965(3)
O1A O -0.0895(2) 0.2201(4) 0.7750(3)
O2_2 O 0.0259(2) 0.4365(4) 0.6483(3)
O2A O -0.0259(2) -0.0635(4) 0.8517(3)
O3_2 O 0.0737(2) 0.1357(5) 0.5138(3)
O3B O -0.0737(2) -0.1357(5) 0.4862(3)
O4B O -0.1005(2) -0.2148(5) 0.6404(2)
O4C O 0.1005(2) 0.2852(5) 0.8596(2)
loop_
_geom_bond_atom_site_label_1
_geom_bond_atom_site_label_2
_geom_bond_site_symmetry_1
_geom_bond_site_symmetry_2
Sr1 O1 1_555 1_555
O1 C1 1_555 1_555
O2 C1 1_555 1_555
O3 C4 1_555 1_555
O4 C4 1_555 1_555
O5 Sr1 1_555 1_555
H1 O5 1_555 1_555
H2 O5 1_555 1_555
N1 H3 1_555 1_555
N2 C3 1_555 1_555
C1 C2 1_555 1_555
C2 N1 1_555 1_555
C3 C2 1_555 1_555
C4 C3 1_555 1_555
C5 N1 1_555 1_555
C6 C5 1_555 1_555
C7 C6 1_555 1_555
H4 C7 1_555 1_555
C8 C7 1_555 1_555
C9 C8 1_555 1_555
C10 C9 1_555 1_555
H5 C10 1_555 1_555
C11 C6 1_555 1_555
H6 C11 1_555 1_555
C12 C8 1_555 1_555
H7 C12 1_555 1_555
H8 C12 1_555 1_555
H9 C12 1_555 1_555
C13 C9 1_555 1_555
H10 C13 1_555 1_555
H11 C13 1_555 1_555
H12 C13 1_555 1_555
Sr1A O1 1_555 1_555
Sr1_2 O2 1_555 1_555
Sr1B O3 1_555 1_555
Sr1C O4 1_555 1_555
O1A Sr1 1_555 1_555
O2_2 Sr1 1_555 1_555
O2A Sr1 1_555 1_555
O3_2 Sr1 1_555 1_555
O3B Sr1 1_555 1_555
O4B Sr1 1_555 1_555
O4C Sr1 1_555 1_555
O2 Sr1A 1_555 1_555
O3 Sr1_2 1_555 1_555
O4 Sr1B 1_555 1_555
N2 C5 1_555 1_555
C10 C11 1_555 1_555
Sr1A O2A 1_555 1_555
Sr1A O4B 1_555 1_555

#END
