
#######################################################################
#
#                 Cambridge Crystallographic Data Centre
#                                CCDC 
#
#######################################################################
#
# If this CIF has been generated from an entry in the Cambridge 
# Structural Database, then it will include bibliographic, chemical, 
# crystal, experimental, refinement or atomic coordinate data resulting 
# from the CCDC's data processing and validation procedures.
#
#######################################################################

data_TELFOH
_symmetry_cell_setting           monoclinic
_symmetry_space_group_name_H-M   'P 21/c'
_symmetry_Int_Tables_number      14
_space_group_name_Hall           '-P 2ybc'
loop_
_symmetry_equiv_pos_site_id
_symmetry_equiv_pos_as_xyz
1 x,y,z
2 -x,1/2+y,1/2-z
3 -x,-y,-z
4 x,1/2-y,1/2+z
_cell_length_a                   16.4040(10)
_cell_length_b                   6.8778(2)
_cell_length_c                   12.9582(6)
_cell_angle_alpha                90
_cell_angle_beta                 106.484(6)
_cell_angle_gamma                90
_cell_volume                     1401.9
loop_
_atom_site_label
_atom_site_type_symbol
_atom_site_fract_x
_atom_site_fract_y
_atom_site_fract_z
Ca1 Ca 0.06425(3) 1.34126(7) 0.73866(4)
O1 O 0.12996(13) 1.3009(3) 0.59868(15)
O2 O 0.11156(13) 1.2364(3) 0.42598(14)
O3 O 0.05617(12) 1.0010(3) 0.70584(16)
O4 O 0.07720(12) 0.6838(3) 0.72166(16)
O5 O 0.22528(13) 1.4056(3) 0.80586(16)
H1 H 0.2530 1.2996 0.8182
H2 H 0.2313 1.4459 0.8696
O6 O -0.04649(13) 1.3900(3) 0.57700(16)
H3 H -0.0829 1.4804 0.5706
H4 H -0.0223 1.3840 0.5272
N1 N 0.22158(14) 0.9120(3) 0.49818(17)
N2 N 0.20203(14) 0.6977(3) 0.61511(18)
H5 H 0.2058 0.5914 0.6512
C1 C 0.13280(17) 1.1902(4) 0.5233(2)
C2 C 0.16842(17) 0.9903(4) 0.5520(2)
C3 C 0.15509(17) 0.8582(4) 0.6257(2)
C4 C 0.09301(16) 0.8481(4) 0.6898(2)
C5 C 0.24107(17) 0.7350(4) 0.5387(2)
C6 C 0.3219(2) 0.6416(4) 0.4124(2)
H6 H 0.3026 0.7558 0.3750
C7 C 0.29705(18) 0.5985(4) 0.5042(2)
C8 C 0.32631(19) 0.4283(4) 0.5594(2)
H7 H 0.3110 0.3967 0.6212
C9 C 0.3784(2) 0.3059(5) 0.5220(3)
H8 H 0.3971 0.1912 0.5593
C10 C 0.4039(2) 0.3477(5) 0.4306(3)
C11 C 0.3747(2) 0.5185(5) 0.3750(2)
C12 C 0.4599(3) 0.2075(6) 0.3917(3)
H9 H 0.5176 0.2525 0.4142
H10 H 0.4409 0.2000 0.3146
H11 H 0.4566 0.0810 0.4217
C13 C 0.3999(3) 0.5753(7) 0.2757(3)
H12 H 0.3824 0.7067 0.2563
H13 H 0.3727 0.4899 0.2175
H14 H 0.4605 0.5654 0.2901
Ca1C Ca 0.06425(3) 1.15874(7) 0.23866(4)
Ca1A Ca -0.06425(3) 0.84126(7) 0.76134(4)
Ca1_2 Ca 0.06425(3) 0.34126(7) 0.73866(4)
O2C O 0.11156(13) 1.2636(3) 0.92598(14)
O3A O -0.05617(12) 1.5010(3) 0.79416(16)
O4_2 O 0.07720(12) 1.6838(3) 0.72166(16)
O4A O -0.07720(12) 1.1838(3) 0.77834(16)
loop_
_geom_bond_atom_site_label_1
_geom_bond_atom_site_label_2
_geom_bond_site_symmetry_1
_geom_bond_site_symmetry_2
Ca1 O1 1_555 1_555
O1 C1 1_555 1_555
O2 C1 1_555 1_555
O3 Ca1 1_555 1_555
O4 C4 1_555 1_555
O5 Ca1 1_555 1_555
H1 O5 1_555 1_555
H2 O5 1_555 1_555
O6 Ca1 1_555 1_555
H3 O6 1_555 1_555
H4 O6 1_555 1_555
N1 C2 1_555 1_555
N2 H5 1_555 1_555
C1 C2 1_555 1_555
C2 C3 1_555 1_555
C3 N2 1_555 1_555
C4 O3 1_555 1_555
C5 N1 1_555 1_555
C6 H6 1_555 1_555
C7 C5 1_555 1_555
C8 C7 1_555 1_555
H7 C8 1_555 1_555
C9 C8 1_555 1_555
H8 C9 1_555 1_555
C10 C9 1_555 1_555
C11 C6 1_555 1_555
C12 C10 1_555 1_555
H9 C12 1_555 1_555
H10 C12 1_555 1_555
H11 C12 1_555 1_555
C13 C11 1_555 1_555
H12 C13 1_555 1_555
H13 C13 1_555 1_555
H14 C13 1_555 1_555
Ca1C O2 1_555 1_555
Ca1A O3 1_555 1_555
Ca1_2 O4 1_555 1_555
O2C Ca1 1_555 1_555
O3A Ca1 1_555 1_555
O4_2 Ca1 1_555 1_555
O4A Ca1 1_555 1_555
O4 Ca1A 1_555 1_555
N2 C5 1_555 1_555
C3 C4 1_555 1_555
C6 C7 1_555 1_555
C10 C11 1_555 1_555
Ca1A O4A 1_555 1_555

#END
