
#######################################################################
#
#                 Cambridge Crystallographic Data Centre
#                                CCDC 
#
#######################################################################
#
# If this CIF has been generated from an entry in the Cambridge 
# Structural Database, then it will include bibliographic, chemical, 
# crystal, experimental, refinement or atomic coordinate data resulting 
# from the CCDC's data processing and validation procedures.
#
#######################################################################

data_TELFUN
_symmetry_cell_setting           triclinic
_symmetry_space_group_name_H-M   'P -1'
_symmetry_Int_Tables_number      2
_space_group_name_Hall           '-P 1'
loop_
_symmetry_equiv_pos_site_id
_symmetry_equiv_pos_as_xyz
1 x,y,z
2 -x,-y,-z
_cell_length_a                   14.006(2)
_cell_length_b                   16.409(2)
_cell_length_c                   25.594(4)
_cell_angle_alpha                83.888(2)
_cell_angle_beta                 87.028(2)
_cell_angle_gamma                71.811(2)
_cell_volume                     5555.37
loop_
_atom_site_label
_atom_site_type_symbol
_atom_site_fract_x
_atom_site_fract_y
_atom_site_fract_z
Cu4 Cu -0.4999(2) -0.66652(17) -0.16664(10)
N7 N -0.5107(12) -0.5666(10) -0.2123(6)
Cu5 Cu -0.5000 0.0000 -0.5000
N8 N -0.4889(12) -0.7671(10) -0.1203(6)
N9 N -0.4887(11) -0.0996(9) -0.4535(5)
C37 C -0.5366(15) -0.3439(12) -0.3201(7)
H29 H -0.6017 -0.3073 -0.3254
C38 C -0.4018(14) -0.8143(12) -0.0999(7)
H30 H -0.3458 -0.7963 -0.1088
C39 C -0.5985(14) -0.5191(12) -0.2330(7)
H31 H -0.6547 -0.5368 -0.2242
C40 C -0.4334(14) -0.4699(12) -0.2625(7)
H32 H -0.3747 -0.4567 -0.2723
C41 C -0.5651(15) -0.8635(13) -0.0682(7)
H33 H -0.6234 -0.8756 -0.0562
C42 C -0.5704(14) -0.1256(12) -0.4386(7)
H34 H -0.6320 -0.0934 -0.4530
C43 C -0.5708(16) -0.7921(13) -0.1047(7)
H35 H -0.6330 -0.7605 -0.1187
C44 C -0.4301(14) -0.5413(11) -0.2285(7)
H36 H -0.3678 -0.5747 -0.2156
C45 C -0.4736(13) -0.2453(11) -0.3852(7)
C46 C -0.4754(13) -0.9143(11) -0.0509(6)
C47 C -0.5251(14) -0.4180(12) -0.2820(7)
C48 C -0.3897(14) -0.2205(12) -0.4012(7)
H37 H -0.3261 -0.2537 -0.3898
C49 C -0.4649(14) -0.3227(11) -0.3481(6)
H38 H -0.4005 -0.3614 -0.3440
C50 C -0.4016(13) -0.1475(11) -0.4335(6)
H39 H -0.3453 -0.1299 -0.4423
C51 C -0.4584(13) -0.9931(12) -0.0121(7)
C52 C -0.5681(16) -0.1963(13) -0.4038(8)
H40 H -0.6260 -0.2104 -0.3933
C53 C -0.6107(14) -0.4467(12) -0.2660(7)
H41 H -0.6742 -0.4153 -0.2784
C54 C -0.3888(17) -0.8871(14) -0.0670(8)
H42 H -0.3252 -0.9190 -0.0549
Cu4A Cu -0.5001(2) -1.33348(17) 0.16664(10)
N7A N -0.4893(12) -1.4334(10) 0.2123(6)
N8A N -0.5111(12) -1.2329(10) 0.1203(6)
N9A N -0.5113(11) 0.0996(9) -0.5465(5)
C37A C -0.4634(15) 0.3439(12) -0.6799(7)
H29A H -0.3983 0.3073 -0.6746
C38A C -0.5982(14) -1.1857(12) 0.0999(7)
H30A H -0.6542 -1.2037 0.1088
C41A C -0.4349(15) -1.1365(13) 0.0682(7)
H33A H -0.3766 -1.1244 0.0562
C42A C -0.4296(14) 0.1256(12) -0.5614(7)
H34A H -0.3680 0.0934 -0.5470
C43A C -0.4292(16) -1.2079(13) 0.1047(7)
H35A H -0.3670 -1.2395 0.1187
C45A C -0.5264(13) 0.2453(11) -0.6148(7)
C46A C -0.5246(13) -1.0857(11) 0.0509(6)
C47A C -0.4749(14) 0.4180(12) -0.7180(7)
C48A C -0.6103(14) 0.2205(12) -0.5988(7)
H37A H -0.6739 0.2537 -0.6102
C49A C -0.5351(14) 0.3227(11) -0.6519(6)
H38A H -0.5995 0.3614 -0.6560
C50A C -0.5984(13) 0.1475(11) -0.5665(6)
H39A H -0.6547 0.1299 -0.5577
C51A C -0.5416(13) -1.0069(12) 0.0121(7)
C52A C -0.4319(16) 0.1963(13) -0.5962(8)
H40A H -0.3740 0.2104 -0.6067
C54A C -0.6112(17) -1.1129(14) 0.0670(8)
H42A H -0.6748 -1.0810 0.0549
O1 O -0.3128(17) 0.2514(15) -0.2299(9)
O2 O -0.3141(17) 0.9182(15) -0.5606(9)
O3 O -0.6827(17) -0.5849(15) -0.1086(9)
Mo1 Mo -0.18148(11) 0.66950(9) -0.55093(5)
Mo2 Mo 0.23699(11) 0.15437(9) -0.85989(6)
Mo3 Mo 0.18148(11) -0.00296(9) -0.78233(6)
Mo4 Mo -0.23692(11) 0.51229(10) -0.47347(5)
Mo5 Mo 0.05648(11) 0.65758(9) -0.57733(5)
Mo6 Mo 0.23693(11) 0.82107(9) -1.19321(6)
Mo7 Mo -0.05647(11) 0.67581(9) -1.08933(5)
Mo8 Mo 0.05632(11) 0.99095(9) -1.24396(5)
Mo9 Mo -0.18153(11) 0.33622(9) -0.88439(6)
Mo10 Mo -0.00303(13) 0.44493(11) -0.55769(7)
Mo11 Mo 0.00304(13) 0.88829(11) -1.10899(7)
Mo12 Mo 0.00313(13) 0.22161(11) -0.77558(6)
O4 O 0.0689(8) -0.0419(7) -0.7897(4)
O5 O 0.0865(8) 0.9114(7) -1.1590(4)
O6 O -0.0687(8) 0.7084(6) -0.5427(4)
O7 O 0.1620(8) 0.2187(7) -0.9192(4)
O8 O 0.0688(7) 0.6243(6) -1.1243(4)
O9 O 0.1210(8) 0.7231(7) -0.5610(4)
O10 O 0.2327(8) 0.7583(7) -1.1262(4)
O11 O -0.2340(8) 0.5756(7) -0.5412(4)
O12 O 0.2341(8) 0.0906(7) -0.7920(4)
O13 O 0.1629(8) 0.8863(7) -1.2527(4)
O14 O -0.1197(8) 0.6094(7) -1.1052(4)
O15 O 0.0878(8) 0.2448(7) -0.8262(4)
O16 O -0.1626(8) 0.4468(6) -0.4142(4)
O17 O -0.0873(7) 0.4208(7) -0.5067(4)
O18 O 0.1208(9) 1.0570(7) -1.2282(5)
O19 O 0.2095(9) -0.0350(7) -0.7175(4)
O20 O 0.0382(8) 0.1068(7) -0.7581(4)
O21 O 0.0259(9) 1.0235(7) -1.3097(4)
Cu6 Cu 0.11840(18) 0.28969(15) -0.66041(9)
Cu7 Cu -0.11804(18) 0.37677(14) -0.67270(9)
Cu8 Cu 0.11806(18) 0.95647(15) -0.99397(9)
O22 O 0.0256(8) 0.6908(7) -0.6421(4)
O23 O -0.1216(9) 0.9249(7) -1.1328(4)
O24 O -0.1221(8) 0.5910(7) -0.4663(4)
O25 O -0.0385(8) 0.5593(7) -0.5747(4)
O26 O -0.1214(8) 0.2578(7) -0.8006(4)
O27 O 0.0380(8) 0.7739(7) -1.0913(4)
O28 O -0.3258(9) 0.5886(7) -0.4403(4)
O29 O -0.2101(9) 0.7023(7) -0.6165(4)
O30 O -0.0267(9) 0.6419(7) -1.0250(4)
O31 O -0.2093(8) 0.3686(7) -0.9496(4)
O32 O 0.3248(9) 0.7450(8) -1.2261(4)
O33 O 0.3265(8) 0.0786(7) -0.8923(4)
O34 O -0.2659(9) 0.4110(8) -0.8503(5)
O35 O -0.0064(9) 0.3934(7) -0.6079(4)
O36 O -0.2655(9) 0.7444(8) -0.5165(4)
O37 O 0.2995(8) 0.2225(7) -0.8419(4)
O38 O 0.0069(9) 0.2739(8) -0.7259(5)
O39 O 0.2657(8) -0.0775(7) -0.8169(4)
O40 O -0.2998(9) 0.4446(7) -0.4912(4)
O41 O 0.0066(9) 0.9403(7) -1.0590(4)
O42 O 0.2997(8) 0.8895(7) -1.1762(4)
N10 N 0.1173(10) 0.8554(9) -0.9477(5)
N11 N -0.1168(10) 0.4793(9) -0.7201(5)
N12 N 0.1528(11) 0.3784(9) -0.7020(6)
N13 N 0.1184(10) 0.1892(9) -0.6141(5)
N14 N -0.1550(10) 0.2886(8) -0.6306(5)
N15 N -0.1554(10) 0.9560(9) -0.9643(5)
C55 C 0.1650(13) 0.4470(11) -0.6801(7)
H43 H 0.1762 0.4413 -0.6442
C56 C -0.1623(11) 0.2173(10) -0.6529(6)
H44 H -0.1670 0.2205 -0.6892
C57 C -0.1647(12) 0.8872(10) -0.9870(6)
H45 H -0.1742 0.8924 -1.0231
C58 C -0.1432(13) 0.9449(12) -0.9111(7)
H46 H -0.1306 0.9885 -0.8948
C59 C -0.1469(13) 0.2780(12) -0.5777(7)
H47 H -0.1397 0.3238 -0.5614
C60 C 0.1476(12) 0.3863(11) -0.7554(6)
H48 H 0.1458 0.3390 -0.7719
C61 C -0.1605(11) 0.8097(10) -0.9579(6)
H49 H -0.1632 0.7635 -0.9752
C62 C -0.1629(12) 0.1430(11) -0.6239(6)
H50 H -0.1704 0.0981 -0.6410
C63 C 0.1530(12) 0.5342(10) -0.7646(6)
C64 C 0.1255(12) 0.0407(11) -0.5468(7)
C65 C -0.1524(12) 0.1318(11) -0.5692(6)
C66 C -0.1523(12) 0.7993(11) -0.9019(6)
C67 C -0.1482(12) 0.2071(10) -0.5466(7)
H51 H -0.1465 0.2067 -0.5103
C68 C -0.1454(12) 0.7208(11) -0.8698(7)
H52 H -0.1542 0.6767 -0.8871
C69 C 0.1237(12) 0.1872(11) -0.5622(7)
H53 H 0.1250 0.2370 -0.5483
C70 C 0.1248(13) 0.8538(12) -0.8957(7)
H54 H 0.1302 0.9029 -0.8826
C71 C 0.1250(13) 0.7075(11) -0.8791(7)
C72 C 0.1252(12) 0.7849(10) -0.8605(7)
H55 H 0.1256 0.7892 -0.8246
C73 C -0.1162(12) 0.6255(11) -0.7339(6)
H56 H -0.1145 0.6756 -0.7206
C74 C 0.1178(14) 0.7063(13) -0.9333(8)
H57 H 0.1184 0.6561 -0.9473
C75 C 0.1104(13) 0.1175(11) -0.6323(7)
H58 H 0.1002 0.1188 -0.6680
C76 C 0.1095(14) 0.7844(12) -0.9670(7)
H59 H 0.0985 0.7858 -1.0026
C77 C -0.1485(12) 0.8741(11) -0.8812(7)
H60 H -0.1497 0.8746 -0.8449
C78 C 0.1165(13) 0.0390(12) -0.5998(7)
H61 H 0.1144 -0.0104 -0.6139
C79 C -0.1484(11) 0.0556(10) -0.5363(6)
H62 H -0.1617 0.0123 -0.5525
C80 C 0.1481(13) 0.6150(11) -0.7969(7)
C81 C 0.1451(13) 0.4595(11) -0.7852(7)
H63 H 0.1379 0.4613 -0.8213
C82 C 0.1290(12) -0.0381(11) -0.5128(7)
H64 H 0.1153 -0.0811 -0.5291
C83 C -0.1288(12) 0.7028(11) -0.8203(6)
H65 H -0.1176 0.7461 -0.8031
C84 C 0.1287(12) 0.6262(10) -0.8466(6)
C85 C 0.1273(14) 0.1167(12) -0.5282(8)
H66 H 0.1311 0.1194 -0.4923
C86 C 0.1617(12) 0.5237(11) -0.7083(7)
H67 H 0.1651 0.5696 -0.6908
C87 C -0.1296(12) 0.5487(10) -0.8048(7)
H68 H -0.1360 0.5469 -0.8406
C88 C -0.1251(13) 0.6235(11) -0.7876(7)
C89 C -0.1099(12) 0.5498(11) -0.6995(7)
H69 H -0.1012 0.5489 -0.6637
C90 C -0.1252(12) 0.4768(11) -0.7719(7)
H70 H -0.1279 0.4269 -0.7851
Mo1A Mo 0.18148(11) 0.33050(9) -0.44907(5)
Mo2A Mo -0.23699(11) 0.84563(9) -0.14011(6)
Mo2A_2 Mo -0.23699(11) 0.84563(9) -1.14011(6)
Mo2_2 Mo 0.23699(11) 1.15437(9) -0.85989(6)
Mo2_3 Mo 0.23699(11) 0.15437(9) 0.14011(6)
Mo2A_3 Mo -0.23699(11) -0.15437(9) -0.14011(6)
Mo3A Mo -0.18148(11) 1.00296(9) -0.21767(6)
Mo3A_2 Mo -0.18148(11) 1.00296(9) -1.21767(6)
Mo3_2 Mo 0.18148(11) 0.99704(9) -0.78233(6)
Mo3_3 Mo 0.18148(11) -0.00296(9) 0.21767(6)
Mo3A_3 Mo -0.18148(11) 0.00296(9) -0.21767(6)
Mo4A Mo 0.23692(11) 0.48771(10) -0.52653(5)
Mo5A Mo -0.05648(11) 0.34242(9) -0.42267(5)
Mo6A Mo -0.23693(11) 1.17893(9) -0.80679(6)
Mo6A_2 Mo -0.23693(11) 0.17893(9) -0.80679(6)
Mo6_2 Mo 0.23693(11) 0.82107(9) -0.19321(6)
Mo6A_3 Mo -0.23693(11) 0.17893(9) 0.19321(6)
Mo6_3 Mo 0.23693(11) -0.17893(9) -0.19321(6)
Mo7A Mo 0.05647(11) 1.32419(9) -0.91067(5)
Mo7A_2 Mo 0.05647(11) 0.32419(9) -0.91067(5)
Mo7_2 Mo -0.05647(11) 0.67581(9) -0.08933(5)
Mo7A_3 Mo 0.05647(11) 0.32419(9) 0.08933(5)
Mo7_3 Mo -0.05647(11) -0.32419(9) -0.08933(5)
Mo8A Mo -0.05632(11) 1.00905(9) -0.75604(5)
Mo8A_2 Mo -0.05632(11) 0.00905(9) -0.75604(5)
Mo8_2 Mo 0.05632(11) 0.99095(9) -0.24396(5)
Mo8A_3 Mo -0.05632(11) 0.00905(9) 0.24396(5)
Mo8_3 Mo 0.05632(11) -0.00905(9) -0.24396(5)
Mo9A Mo 0.18153(11) 0.66378(9) -0.11561(6)
Mo9A_2 Mo 0.18153(11) 0.66378(9) -1.11561(6)
Mo9_2 Mo -0.18153(11) 1.33622(9) -0.88439(6)
Mo9_3 Mo -0.18153(11) 0.33622(9) 0.11561(6)
Mo9A_3 Mo 0.18153(11) -0.33622(9) -0.11561(6)
Mo10A Mo 0.00303(13) 0.55507(11) -0.44231(7)
Mo11A Mo -0.00304(13) 1.11171(11) -0.89101(7)
Mo11A_2 Mo -0.00304(13) 0.11171(11) 0.10899(7)
Mo11_2 Mo 0.00304(13) -0.11171(11) -0.10899(7)
Mo11A_3 Mo -0.00304(13) 0.11171(11) -0.89101(7)
Mo11_3 Mo 0.00304(13) 0.88829(11) -0.10899(7)
Mo12A Mo -0.00313(13) 0.77839(11) -0.22442(6)
Mo12A_2 Mo -0.00313(13) 0.77839(11) -1.22442(6)
Mo12_2 Mo 0.00313(13) 1.22161(11) -0.77558(6)
Mo12_3 Mo 0.00313(13) 0.22161(11) 0.22442(6)
Mo12A_3 Mo -0.00313(13) -0.22161(11) -0.22442(6)
O4A O -0.0689(8) 1.0419(7) -1.2103(4)
O4A_2 O -0.0689(8) 1.0419(7) -0.2103(4)
O4_2 O 0.0689(8) 0.9581(7) -0.7897(4)
O4_3 O 0.0689(8) -0.0419(7) 0.2103(4)
O4A_3 O -0.0689(8) 0.0419(7) -0.2103(4)
O5A O -0.0865(8) 1.0886(7) -0.8410(4)
O5A_2 O -0.0865(8) 0.0886(7) -0.8410(4)
O5A_3 O -0.0865(8) 0.0886(7) 0.1590(4)
O5_2 O 0.0865(8) -0.0886(7) -0.1590(4)
O5_3 O 0.0865(8) 0.9114(7) -0.1590(4)
O6A O 0.0687(8) 0.2916(6) -0.4573(4)
O7A O -0.1620(8) 0.7813(7) -1.0808(4)
O7A_2 O -0.1620(8) 0.7813(7) -0.0808(4)
O7_2 O 0.1620(8) 1.2187(7) -0.9192(4)
O7_3 O 0.1620(8) 0.2187(7) 0.0808(4)
O7A_3 O -0.1620(8) -0.2187(7) -0.0808(4)
O8A O -0.0688(7) 0.3757(6) -0.8757(4)
O8A_2 O -0.0688(7) 1.3757(6) -0.8757(4)
O8_2 O 0.0688(7) 0.6243(6) -0.1243(4)
O8A_3 O -0.0688(7) 0.3757(6) 0.1243(4)
O8_3 O 0.0688(7) -0.3757(6) -0.1243(4)
O9A O -0.1210(8) 0.2769(7) -0.4390(4)
O10A O -0.2327(8) 0.2417(7) -0.8738(4)
O10A_2 O -0.2327(8) 1.2417(7) -0.8738(4)
O10_2 O 0.2327(8) 0.7583(7) -0.1262(4)
O10A_3 O -0.2327(8) 0.2417(7) 0.1262(4)
O10_3 O 0.2327(8) -0.2417(7) -0.1262(4)
O11A O 0.2340(8) 0.4244(7) -0.4588(4)
O12A O -0.2341(8) 0.9094(7) -0.2080(4)
O12A_2 O -0.2341(8) 0.9094(7) -1.2080(4)
O12_2 O 0.2341(8) 1.0906(7) -0.7920(4)
O12_3 O 0.2341(8) 0.0906(7) 0.2080(4)
O12A_3 O -0.2341(8) -0.0906(7) -0.2080(4)
O13A O -0.1629(8) 1.1137(7) -0.7473(4)
O13A_2 O -0.1629(8) 0.1137(7) -0.7473(4)
O13_2 O 0.1629(8) 0.8863(7) -0.2527(4)
O13A_3 O -0.1629(8) 0.1137(7) 0.2527(4)
O13_3 O 0.1629(8) -0.1137(7) -0.2527(4)
O14A O 0.1197(8) 1.3906(7) -0.8948(4)
O14A_2 O 0.1197(8) 0.3906(7) -0.8948(4)
O14_2 O -0.1197(8) 0.6094(7) -0.1052(4)
O14A_3 O 0.1197(8) 0.3906(7) 0.1052(4)
O14_3 O -0.1197(8) -0.3906(7) -0.1052(4)
O15A O -0.0878(8) 0.7552(7) -0.1738(4)
O15A_2 O -0.0878(8) 0.7552(7) -1.1738(4)
O15_2 O 0.0878(8) 1.2448(7) -0.8262(4)
O15_3 O 0.0878(8) 0.2448(7) 0.1738(4)
O15A_3 O -0.0878(8) -0.2448(7) -0.1738(4)
O16A O 0.1626(8) 0.5532(6) -0.5858(4)
O17A O 0.0873(7) 0.5792(7) -0.4933(4)
O18A O -0.1208(9) 0.9430(7) -0.7718(5)
O18A_2 O -0.1208(9) -0.0570(7) -0.7718(5)
O18_2 O 0.1208(9) 1.0570(7) -0.2282(5)
O18A_3 O -0.1208(9) -0.0570(7) 0.2282(5)
O18_3 O 0.1208(9) 0.0570(7) -0.2282(5)
O19A O -0.2095(9) 1.0350(7) -0.2825(4)
O19A_2 O -0.2095(9) 1.0350(7) -1.2825(4)
O19_2 O 0.2095(9) 0.9650(7) -0.7175(4)
O19_3 O 0.2095(9) -0.0350(7) 0.2825(4)
O19A_3 O -0.2095(9) 0.0350(7) -0.2825(4)
O20A O -0.0382(8) 0.8932(7) -0.2419(4)
O20A_2 O -0.0382(8) 0.8932(7) -1.2419(4)
O20_2 O 0.0382(8) 1.1068(7) -0.7581(4)
O20_3 O 0.0382(8) 0.1068(7) 0.2419(4)
O20A_3 O -0.0382(8) -0.1068(7) -0.2419(4)
O21A O -0.0259(9) 0.9765(7) -0.6903(4)
O21A_2 O -0.0259(9) -0.0235(7) -0.6903(4)
O21_2 O 0.0259(9) 1.0235(7) -0.3097(4)
O21A_3 O -0.0259(9) -0.0235(7) 0.3097(4)
O21_3 O 0.0259(9) 0.0235(7) -0.3097(4)
Cu6A Cu -0.11840(18) 0.71031(15) -0.33959(9)
Cu6A_2 Cu -0.11840(18) 0.71031(15) -1.33959(9)
Cu6_2 Cu 0.11840(18) 1.28969(15) -0.66041(9)
Cu6A_3 Cu -0.11840(18) -0.28969(15) -0.33959(9)
Cu7A Cu 0.11804(18) 0.62323(14) -0.32730(9)
Cu7A_2 Cu 0.11804(18) -0.37677(14) -0.32730(9)
Cu7_2 Cu -0.11804(18) 1.37677(14) -0.67270(9)
Cu8A Cu -0.11806(18) 1.04353(15) -1.00603(9)
Cu8A_2 Cu -0.11806(18) 0.04353(15) -0.00603(9)
Cu8_2 Cu 0.11806(18) -0.04353(15) 0.00603(9)
Cu8A_3 Cu -0.11806(18) 0.04353(15) -1.00603(9)
Cu8_3 Cu 0.11806(18) 0.95647(15) 0.00603(9)
O22A O -0.0256(8) 0.3092(7) -0.3579(4)
O23A O 0.1216(9) 1.0751(7) -0.8672(4)
O23A_2 O 0.1216(9) 0.0751(7) -0.8672(4)
O23_2 O -0.1216(9) 0.9249(7) -0.1328(4)
O23A_3 O 0.1216(9) 0.0751(7) 0.1328(4)
O23_3 O -0.1216(9) -0.0751(7) -0.1328(4)
O24A O 0.1221(8) 0.4090(7) -0.5337(4)
O25A O 0.0385(8) 0.4407(7) -0.4253(4)
O26A O 0.1214(8) 0.7422(7) -0.1994(4)
O26A_2 O 0.1214(8) 0.7422(7) -1.1994(4)
O26_2 O -0.1214(8) 1.2578(7) -0.8006(4)
O26_3 O -0.1214(8) 0.2578(7) 0.1994(4)
O26A_3 O 0.1214(8) -0.2578(7) -0.1994(4)
O27A O -0.0380(8) 1.2261(7) -0.9087(4)
O27A_2 O -0.0380(8) 0.2261(7) -0.9087(4)
O27_2 O 0.0380(8) 0.7739(7) -0.0913(4)
O27A_3 O -0.0380(8) 0.2261(7) 0.0913(4)
O27_3 O 0.0380(8) -0.2261(7) -0.0913(4)
O28A O 0.3258(9) 0.4114(7) -0.5597(4)
O29A O 0.2101(9) 0.2977(7) -0.3835(4)
O30A O 0.0267(9) 1.3581(7) -0.9750(4)
O30A_2 O 0.0267(9) 0.3581(7) -0.9750(4)
O30_2 O -0.0267(9) 0.6419(7) -0.0250(4)
O30A_3 O 0.0267(9) 0.3581(7) 0.0250(4)
O30_3 O -0.0267(9) -0.3581(7) -0.0250(4)
O31A O 0.2093(8) 0.6314(7) -0.0504(4)
O31A_2 O 0.2093(8) 0.6314(7) -1.0504(4)
O31_2 O -0.2093(8) 1.3686(7) -0.9496(4)
O31_3 O -0.2093(8) 0.3686(7) 0.0504(4)
O31A_3 O 0.2093(8) -0.3686(7) -0.0504(4)
O32A O -0.3248(9) 1.2550(8) -0.7739(4)
O32A_2 O -0.3248(9) 0.2550(8) -0.7739(4)
O32_2 O 0.3248(9) 0.7450(8) -0.2261(4)
O32A_3 O -0.3248(9) 0.2550(8) 0.2261(4)
O32_3 O 0.3248(9) -0.2550(8) -0.2261(4)
O33A O -0.3265(8) 0.9214(7) -0.1077(4)
O33A_2 O -0.3265(8) 0.9214(7) -1.1077(4)
O33_2 O 0.3265(8) 1.0786(7) -0.8923(4)
O33_3 O 0.3265(8) 0.0786(7) 0.1077(4)
O33A_3 O -0.3265(8) -0.0786(7) -0.1077(4)
O34A O 0.2659(9) 0.5890(8) -0.1497(5)
O34A_2 O 0.2659(9) 0.5890(8) -1.1497(5)
O34_2 O -0.2659(9) 1.4110(8) -0.8503(5)
O34_3 O -0.2659(9) 0.4110(8) 0.1497(5)
O34A_3 O 0.2659(9) -0.4110(8) -0.1497(5)
O35A O 0.0064(9) 0.6066(7) -0.3921(4)
O35A_2 O 0.0064(9) -0.3934(7) -0.3921(4)
O35_2 O -0.0064(9) 1.3934(7) -0.6079(4)
O36A O 0.2655(9) 0.2556(8) -0.4835(4)
O37A O -0.2995(8) 0.7775(7) -0.1581(4)
O37A_2 O -0.2995(8) 0.7775(7) -1.1581(4)
O37_2 O 0.2995(8) 1.2225(7) -0.8419(4)
O37_3 O 0.2995(8) 0.2225(7) 0.1581(4)
O37A_3 O -0.2995(8) -0.2225(7) -0.1581(4)
O38A O -0.0069(9) 0.7261(8) -0.2741(5)
O38A_2 O -0.0069(9) 0.7261(8) -1.2741(5)
O38_2 O 0.0069(9) 1.2739(8) -0.7259(5)
O38A_3 O -0.0069(9) -0.2739(8) -0.2741(5)
O38_3 O 0.0069(9) 0.2739(8) 0.2741(5)
O39A O -0.2657(8) 1.0775(7) -0.1831(4)
O39A_2 O -0.2657(8) 1.0775(7) -1.1831(4)
O39_2 O 0.2657(8) 0.9225(7) -0.8169(4)
O39_3 O 0.2657(8) -0.0775(7) 0.1831(4)
O39A_3 O -0.2657(8) 0.0775(7) -0.1831(4)
O40A O 0.2998(9) 0.5554(7) -0.5088(4)
O41A O -0.0066(9) 1.0597(7) -0.9410(4)
O41A_2 O -0.0066(9) 0.0597(7) 0.0590(4)
O41_2 O 0.0066(9) -0.0597(7) -0.0590(4)
O41A_3 O -0.0066(9) 0.0597(7) -0.9410(4)
O41_3 O 0.0066(9) 0.9403(7) -0.0590(4)
O42A O -0.2997(8) 1.1105(7) -0.8238(4)
O42A_2 O -0.2997(8) 0.1105(7) -0.8238(4)
O42_2 O 0.2997(8) 0.8895(7) -0.1762(4)
O42A_3 O -0.2997(8) 0.1105(7) 0.1762(4)
O42_3 O 0.2997(8) -0.1105(7) -0.1762(4)
N10A N -0.1173(10) 0.1446(9) -0.0523(5)
N10_2 N 0.1173(10) -0.1446(9) 0.0523(5)
N10A_2 N -0.1173(10) 1.1446(9) -1.0523(5)
N10A_3 N -0.1173(10) 0.1446(9) -1.0523(5)
N10_3 N 0.1173(10) 0.8554(9) 0.0523(5)
N11A N 0.1168(10) 0.5207(9) -0.2799(5)
N11A_2 N 0.1168(10) -0.4793(9) -0.2799(5)
N11_2 N -0.1168(10) 1.4793(9) -0.7201(5)
N12A N -0.1528(11) 0.6216(9) -0.2980(6)
N12A_2 N -0.1528(11) 0.6216(9) -1.2980(6)
N12_2 N 0.1528(11) 1.3784(9) -0.7020(6)
N12A_3 N -0.1528(11) -0.3784(9) -0.2980(6)
N13A N -0.1184(10) 0.8108(9) -0.3859(5)
N13A_2 N -0.1184(10) -0.1892(9) -0.3859(5)
N13_2 N 0.1184(10) 1.1892(9) -0.6141(5)
N13A_3 N -0.1184(10) 0.8108(9) -1.3859(5)
N14A N 0.1550(10) 0.7114(8) -0.3694(5)
N14A_2 N 0.1550(10) -0.2886(8) -0.3694(5)
N14_2 N -0.1550(10) 1.2886(8) -0.6306(5)
N15A N 0.1554(10) 0.0440(9) -0.0357(5)
N15A_2 N 0.1554(10) 1.0440(9) -1.0357(5)
N15_2 N -0.1554(10) -0.0440(9) 0.0357(5)
N15_3 N -0.1554(10) -0.0440(9) -0.9643(5)
N15A_3 N 0.1554(10) 1.0440(9) -0.0357(5)
C55A C -0.1650(13) 0.5530(11) -0.3199(7)
C55A_2 C -0.1650(13) 0.5530(11) -1.3199(7)
H43A H -0.1762 0.5587 -0.3558
C56A C 0.1623(11) 0.7827(10) -0.3471(6)
C56A_2 C 0.1623(11) -0.2173(10) -0.3471(6)
C56_2 C -0.1623(11) 1.2173(10) -0.6529(6)
H44A H 0.1670 0.7795 -0.3108
H44A_2 H 0.1670 -0.2205 -0.3108
H44_2 H -0.1670 1.2205 -0.6892
C57A C 0.1647(12) 0.1128(10) -0.0130(6)
H45A H 0.1742 0.1076 0.0231
C58A C 0.1432(13) 0.0551(12) -0.0889(7)
H46A H 0.1306 0.0115 -0.1052
C59A C 0.1469(13) 0.7220(12) -0.4223(7)
C59A_2 C 0.1469(13) -0.2780(12) -0.4223(7)
C59_2 C -0.1469(13) 1.2780(12) -0.5777(7)
H47A H 0.1397 0.6762 -0.4386
H47A_2 H 0.1397 -0.3238 -0.4386
H47_2 H -0.1397 1.3238 -0.5614
C60A C -0.1476(12) 0.6137(11) -0.2446(6)
C60A_2 C -0.1476(12) 0.6137(11) -1.2446(6)
H48A H -0.1458 0.6610 -0.2281
C61A C 0.1605(11) 0.1903(10) -0.0421(6)
H49A H 0.1632 0.2365 -0.0248
C62A C 0.1629(12) 0.8570(11) -0.3761(6)
C62A_2 C 0.1629(12) -0.1430(11) -0.3761(6)
C62_2 C -0.1629(12) 1.1430(11) -0.6239(6)
H50A H 0.1704 0.9019 -0.3590
H50A_2 H 0.1704 -0.0981 -0.3590
H50_2 H -0.1704 1.0981 -0.6410
C63A C -0.1530(12) 0.4658(10) -0.2354(6)
C64A C -0.1255(12) 0.9593(11) -0.4532(7)
C64A_2 C -0.1255(12) -0.0407(11) -0.4532(7)
C64_2 C 0.1255(12) 1.0407(11) -0.5468(7)
C65A C 0.1524(12) 0.8682(11) -0.4308(6)
C65A_2 C 0.1524(12) -0.1318(11) -0.4308(6)
C65_2 C -0.1524(12) 1.1318(11) -0.5692(6)
C66A C 0.1523(12) 0.2007(11) -0.0981(6)
C67A C 0.1482(12) 0.7929(10) -0.4534(7)
C67A_2 C 0.1482(12) -0.2071(10) -0.4534(7)
C67_2 C -0.1482(12) 1.2071(10) -0.5466(7)
H51A H 0.1465 0.7933 -0.4897
H51A_2 H 0.1465 -0.2067 -0.4897
H51_2 H -0.1465 1.2067 -0.5103
C68A C 0.1454(12) 0.2792(11) -0.1302(7)
H52A H 0.1542 0.3233 -0.1129
C69A C -0.1237(12) 0.8128(11) -0.4378(7)
C69A_2 C -0.1237(12) -0.1872(11) -0.4378(7)
C69_2 C 0.1237(12) 1.1872(11) -0.5622(7)
C69A_3 C -0.1237(12) 0.8128(11) -1.4378(7)
H53A H -0.1250 0.7630 -0.4517
H53A_2 H -0.1250 -0.2370 -0.4517
H53_2 H 0.1250 1.2370 -0.5483
C70A C -0.1248(13) 0.1462(12) -0.1043(7)
C70_2 C 0.1248(13) -0.1462(12) 0.1043(7)
H54A H -0.1302 0.0971 -0.1174
H54_2 H 0.1302 -0.0971 0.1174
C71A C -0.1250(13) 0.2925(11) -0.1209(7)
C71_2 C 0.1250(13) -0.2925(11) 0.1209(7)
C72A C -0.1252(12) 0.2151(10) -0.1395(7)
C72_2 C 0.1252(12) -0.2151(10) 0.1395(7)
H55A H -0.1256 0.2108 -0.1754
H55_2 H 0.1256 -0.2108 0.1754
C73A C 0.1162(12) 0.3745(11) -0.2661(6)
H56A H 0.1145 0.3244 -0.2794
C74A C -0.1178(14) 0.2937(13) -0.0667(8)
C74_2 C 0.1178(14) -0.2937(13) 0.0667(8)
H57A H -0.1184 0.3439 -0.0527
H57_2 H 0.1184 -0.3439 0.0527
C75A C -0.1104(13) 0.8825(11) -0.3677(7)
C75A_2 C -0.1104(13) -0.1175(11) -0.3677(7)
C75_2 C 0.1104(13) 1.1175(11) -0.6323(7)
C75A_3 C -0.1104(13) 0.8825(11) -1.3677(7)
H58A H -0.1002 0.8812 -0.3320
H58A_2 H -0.1002 -0.1188 -0.3320
H58_2 H 0.1002 1.1188 -0.6680
C76A C -0.1095(14) 0.2156(12) -0.0330(7)
C76_2 C 0.1095(14) -0.2156(12) 0.0330(7)
H59A H -0.0985 0.2142 0.0026
H59_2 H 0.0985 -0.2142 -0.0026
C77A C 0.1485(12) 0.1259(11) -0.1188(7)
H60A H 0.1497 0.1254 -0.1551
C78A C -0.1165(13) 0.9610(12) -0.4002(7)
C78A_2 C -0.1165(13) -0.0390(12) -0.4002(7)
C78_2 C 0.1165(13) 1.0390(12) -0.5998(7)
H61A H -0.1144 1.0104 -0.3861
H61A_2 H -0.1144 0.0104 -0.3861
H61_2 H 0.1144 0.9896 -0.6139
C79A C 0.1484(11) -0.0556(10) -0.4637(6)
C79A_2 C 0.1484(11) 0.9444(10) -0.4637(6)
C79_2 C -0.1484(11) 1.0556(10) -0.5363(6)
H62A H 0.1617 0.9877 -0.4475
H62A_2 H 0.1617 -0.0123 -0.4475
H62_2 H -0.1617 1.0123 -0.5525
C80A C -0.1481(13) 0.3850(11) -0.2031(7)
C80_2 C 0.1481(13) -0.3850(11) 0.2031(7)
C81A C -0.1451(13) 0.5405(11) -0.2148(7)
H63A H -0.1379 0.5387 -0.1787
C82A C -0.1290(12) 0.0381(11) -0.4872(7)
C82A_2 C -0.1290(12) 1.0381(11) -0.4872(7)
C82_2 C 0.1290(12) 0.9619(11) -0.5128(7)
H64A H -0.1153 1.0811 -0.4709
H64A_2 H -0.1153 0.0811 -0.4709
H64_2 H 0.1153 0.9189 -0.5291
C83A C 0.1288(12) 0.2972(11) -0.1797(6)
H65A H 0.1176 0.2539 -0.1969
C84A C -0.1287(12) 0.3738(10) -0.1534(6)
C84_2 C 0.1287(12) -0.3738(10) 0.1534(6)
C85A C -0.1273(14) 0.8833(12) -0.4718(8)
C85A_2 C -0.1273(14) -0.1167(12) -0.4718(8)
C85_2 C 0.1273(14) 1.1167(12) -0.5282(8)
H66A H -0.1311 0.8806 -0.5077
H66A_2 H -0.1311 -0.1194 -0.5077
H66_2 H 0.1311 1.1194 -0.4923
C86A C -0.1617(12) 0.4763(11) -0.2917(7)
H67A H -0.1651 0.4304 -0.3092
C87A C 0.1296(12) 0.4513(10) -0.1952(7)
H68A H 0.1360 0.4531 -0.1594
C88A C 0.1251(13) 0.3765(11) -0.2124(7)
C89A C 0.1099(12) 0.4502(11) -0.3005(7)
H69A H 0.1012 0.4511 -0.3363
C90A C 0.1252(12) 0.5232(11) -0.2281(7)
H70A H 0.1279 0.5731 -0.2149
Cu1 Cu -0.4434(2) -0.25790(15) -0.20022(9)
Cu2 Cu -0.4434(2) -0.92459(15) 0.13326(9)
Cu3 Cu -0.4431(2) -1.59134(15) 0.46637(9)
N1 N -0.4358(11) -0.3545(9) -0.1492(6)
N2 N -0.4394(11) -1.6865(9) 0.5176(5)
N3 N -0.4512(11) -0.1705(9) -0.2561(5)
N4 N -0.4518(11) -1.5039(9) 0.4101(5)
N5 N -0.4345(11) -1.0208(9) 0.1848(5)
N6 N -0.4516(12) -0.8376(10) 0.0769(6)
C1 C -0.5119(13) -1.7198(11) 0.5274(6)
H1 H -0.5714 -1.6938 0.5094
C2 C -0.5106(14) -0.3857(11) -0.1398(7)
H2 H -0.5697 -0.3590 -0.1580
C3 C -0.3691(14) -0.8137(11) 0.0618(7)
H3 H -0.3069 -0.8472 0.0749
C4 C -0.3711(13) -0.1466(11) -0.2703(6)
H4 H -0.3097 -0.1789 -0.2558
C5 C -0.4201(13) -0.5003(11) -0.0795(6)
C6 C -0.4652(12) -1.3580(11) 0.3388(6)
C7 C -0.5080(13) -1.1211(10) 0.2284(6)
H5 H -0.5647 -1.1387 0.2353
C8 C -0.4174(13) -1.1662(11) 0.2542(6)
C9 C -0.5075(13) -1.7889(11) 0.5613(6)
H6 H -0.5629 -1.8087 0.5671
C10 C -0.3398(14) -0.4662(12) -0.0883(7)
H7 H -0.2791 -0.4929 -0.0714
C11 C -0.3734(12) -1.4104(10) 0.3615(6)
H8 H -0.3146 -1.3965 0.3531
C12 C -0.3494(13) -1.0595(11) 0.2110(7)
H9 H -0.2956 -1.0374 0.2063
C13 C -0.3419(14) -1.1319(11) 0.2447(7)
H10 H -0.2815 -1.1586 0.2618
C14 C -0.3743(14) -0.7428(11) 0.0285(7)
H11 H -0.3163 -0.7273 0.0208
C15 C -0.3396(12) -1.7964(10) 0.5784(6)
H12 H -0.2791 -1.8211 0.5957
C16 C -0.5074(13) -0.4548(11) -0.1050(7)
H13 H -0.5648 -0.4716 -0.0983
C17 C -0.5468(13) -1.3892(11) 0.3518(6)
H14 H -0.6081 -1.3618 0.3357
C18 C -0.5502(14) -0.7203(11) 0.0186(7)
H15 H -0.6119 -0.6899 0.0038
C19 C -0.3530(14) -1.7245(11) 0.5427(7)
H16 H -0.3000 -1.7017 0.5360
C20 C -0.3516(14) -0.3925(12) -0.1222(7)
H17 H -0.2994 -0.3685 -0.1263
C21 C -0.5356(13) -0.1269(11) -0.2788(7)
H18 H -0.5907 -0.1465 -0.2709
C22 C -0.3739(13) -0.0774(11) -0.3049(7)
H19 H -0.3152 -0.0630 -0.3125
C23 C -0.4633(12) -0.6929(10) 0.0055(6)
C24 C -0.5379(15) -1.4598(12) 0.3881(7)
H20 H -0.5946 -1.4766 0.3972
C25 C -0.5501(13) -0.0533(11) -0.3140(6)
H21 H -0.6133 -0.0223 -0.3270
C26 C -0.5407(14) -0.7931(11) 0.0540(7)
H22 H -0.5966 -0.8116 0.0621
C27 C -0.3704(14) -1.4806(12) 0.3954(7)
H23 H -0.3087 -1.5141 0.4091
C28 C -0.4736(14) -0.6197(11) -0.0315(7)
H24 H -0.5327 -0.5993 -0.0505
C29 C -0.4748(14) -1.9538(12) 0.6359(7)
H25 H -0.5361 -1.9321 0.6191
C30 C -0.4741(12) -1.2861(10) 0.3005(6)
C31 C -0.4040(13) -1.2439(11) 0.2908(6)
C32 C -0.4051(15) -0.5772(12) -0.0416(7)
H26 H -0.3451 -0.5977 -0.0235
C33 C -0.4075(13) -1.9100(11) 0.6239(6)
H27 H -0.3462 -1.9329 0.6407
C34 C -0.4175(13) -1.8308(11) 0.5878(6)
C35 C -0.5119(13) -1.0523(11) 0.1937(6)
H28 H -0.5707 -1.0257 0.1752
C36 C -0.4621(14) -0.0276(12) -0.3294(7)
Cu1_2 Cu -0.4434(2) -2.25790(15) 0.79978(9)
Cu3_2 Cu -0.4431(2) 0.40866(15) -0.53363(9)
N1_2 N -0.4358(11) -2.3545(9) 0.8508(6)
N2_2 N -0.4394(11) 0.3135(9) -0.4824(5)
N3_2 N -0.4512(11) -2.1705(9) 0.7439(5)
C1_2 C -0.5119(13) 0.2802(11) -0.4726(6)
H1_2 H -0.5714 0.3062 -0.4906
C2_2 C -0.5106(14) -2.3857(11) 0.8602(7)
C4_2 C -0.3711(13) -2.1466(11) 0.7297(6)
H4_2 H -0.3097 -2.1789 0.7442
C9_2 C -0.5075(13) 0.2111(11) -0.4387(6)
H6_2 H -0.5629 0.1913 -0.4329
C15_2 C -0.3396(12) 0.2036(10) -0.4216(6)
H12_2 H -0.2791 0.1789 -0.4043
C19_2 C -0.3530(14) 0.2755(11) -0.4573(7)
H16_2 H -0.3000 0.2983 -0.4640
C20_2 C -0.3516(14) -2.3925(12) 0.8778(7)
C21_2 C -0.5356(13) -2.1269(11) 0.7212(7)
H18_2 H -0.5907 -2.1465 0.7291
C22_2 C -0.3739(13) -2.0774(11) 0.6951(7)
H19_2 H -0.3152 -2.0630 0.6875
C25_2 C -0.5501(13) -2.0533(11) 0.6860(6)
H21_2 H -0.6133 -2.0223 0.6730
C29_2 C -0.4748(14) 0.0462(12) -0.3641(7)
H25_2 H -0.5361 0.0679 -0.3809
C33_2 C -0.4075(13) 0.0900(11) -0.3761(6)
H27_2 H -0.3462 0.0671 -0.3593
C34_2 C -0.4175(13) 0.1692(11) -0.4122(6)
C36_2 C -0.4621(14) -2.0276(12) 0.6706(7)
loop_
_geom_bond_atom_site_label_1
_geom_bond_atom_site_label_2
_geom_bond_site_symmetry_1
_geom_bond_site_symmetry_2
Cu1 N1 1_555 1_555
Cu2 N5 1_555 1_555
Cu3 N2 1_555 1_555
N1 C2 1_555 1_555
N2 C1 1_555 1_555
N3 Cu1 1_555 1_555
N4 Cu3 1_555 1_555
N5 C12 1_555 1_555
N6 Cu2 1_555 1_555
C1 H1 1_555 1_555
C2 H2 1_555 1_555
C3 N6 1_555 1_555
H3 C3 1_555 1_555
C4 N3 1_555 1_555
H4 C4 1_555 1_555
C5 C10 1_555 1_555
C6 C11 1_555 1_555
C7 H5 1_555 1_555
C8 C7 1_555 1_555
C9 C1 1_555 1_555
H6 C9 1_555 1_555
C10 H7 1_555 1_555
C11 H8 1_555 1_555
C12 H9 1_555 1_555
C13 C8 1_555 1_555
H10 C13 1_555 1_555
C14 C3 1_555 1_555
H11 C14 1_555 1_555
C15 H12 1_555 1_555
C16 C2 1_555 1_555
H13 C16 1_555 1_555
C17 C6 1_555 1_555
H14 C17 1_555 1_555
C18 H15 1_555 1_555
C19 N2 1_555 1_555
H16 C19 1_555 1_555
C20 N1 1_555 1_555
H17 C20 1_555 1_555
C21 N3 1_555 1_555
H18 C21 1_555 1_555
C22 C4 1_555 1_555
H19 C22 1_555 1_555
C23 C14 1_555 1_555
C24 N4 1_555 1_555
H20 C24 1_555 1_555
C25 C21 1_555 1_555
H21 C25 1_555 1_555
C26 N6 1_555 1_555
H22 C26 1_555 1_555
C27 N4 1_555 1_555
H23 C27 1_555 1_555
C28 C23 1_555 1_555
H24 C28 1_555 1_555
C29 H25 1_555 1_555
C30 C6 1_555 1_555
C31 C8 1_555 1_555
C32 C5 1_555 1_555
H26 C32 1_555 1_555
C33 C29 1_555 1_555
H27 C33 1_555 1_555
C34 C9 1_555 1_555
C35 N5 1_555 1_555
H28 C35 1_555 1_555
C36 C22 1_555 1_555
Cu4 N7 1_555 1_555
N7 C39 1_555 1_555
Cu5 N9 1_555 1_555
N8 Cu4 1_555 1_555
N9 C42 1_555 1_555
C37 H29 1_555 1_555
C38 N8 1_555 1_555
H30 C38 1_555 1_555
C39 H31 1_555 1_555
C40 H32 1_555 1_555
C41 H33 1_555 1_555
C42 H34 1_555 1_555
C43 N8 1_555 1_555
H35 C43 1_555 1_555
C44 N7 1_555 1_555
H36 C44 1_555 1_555
C45 C48 1_555 1_555
C46 C41 1_555 1_555
C47 C37 1_555 1_555
C48 H37 1_555 1_555
C49 C37 1_555 1_555
H38 C49 1_555 1_555
C50 N9 1_555 1_555
H39 C50 1_555 1_555
C51 C46 1_555 1_555
C52 C42 1_555 1_555
H40 C52 1_555 1_555
C53 C39 1_555 1_555
H41 C53 1_555 1_555
C54 C38 1_555 1_555
H42 C54 1_555 1_555
Mo1 O6 1_555 1_555
Mo2 O7 1_555 1_555
Mo3 O4 1_555 1_555
Mo4 O11 1_555 1_555
Mo5 O6 1_555 1_555
Mo6 O5 1_555 1_555
Mo7 O8 1_555 1_555
Mo8 O5 1_555 1_555
Mo9 O26 1_555 1_555
Mo10 O17 1_555 1_555
Mo11 O5 1_555 1_555
Mo12 O15 1_555 1_555
O4 Mo8A_2 1_555 1_555
O7 Mo7A_2 1_555 1_555
O8 Mo9A_2 1_555 1_555
O9 Mo5 1_555 1_555
O10 Mo6 1_555 1_555
O11 Mo1 1_555 1_555
O12 Mo2 1_555 1_555
O13 Mo6 1_555 1_555
O14 Mo7 1_555 1_555
O15 Mo2 1_555 1_555
O16 Mo4 1_555 1_555
O17 Mo4 1_555 1_555
O18 Mo8 1_555 1_555
O19 Mo3 1_555 1_555
O20 Mo3 1_555 1_555
O21 Mo8 1_555 1_555
Cu6 O35 1_555 1_555
Cu7 O35 1_555 1_555
Cu8 O41 1_555 1_555
O22 Mo5 1_555 1_555
O23 Mo11 1_555 1_555
O24 Mo1 1_555 1_555
O25 Mo1 1_555 1_555
O26 Mo12 1_555 1_555
O27 Mo7 1_555 1_555
O28 Mo4 1_555 1_555
O29 Mo1 1_555 1_555
O30 Mo7 1_555 1_555
O31 Mo9 1_555 1_555
O32 Mo6 1_555 1_555
O33 Mo2 1_555 1_555
O34 Mo9 1_555 1_555
O35 Mo10 1_555 1_555
O36 Mo1 1_555 1_555
O37 Mo2 1_555 1_555
O38 Mo12 1_555 1_555
O39 Mo3 1_555 1_555
O40 Mo4 1_555 1_555
O41 Mo11 1_555 1_555
O42 Mo6 1_555 1_555
N10 Cu8 1_555 1_555
N11 Cu7 1_555 1_555
N12 Cu6 1_555 1_555
N13 Cu6 1_555 1_555
N14 Cu7 1_555 1_555
N15 C57 1_555 1_555
C55 N12 1_555 1_555
H43 C55 1_555 1_555
C56 N14 1_555 1_555
H44 C56 1_555 1_555
C57 H45 1_555 1_555
C58 N15 1_555 1_555
H46 C58 1_555 1_555
C59 N14 1_555 1_555
H47 C59 1_555 1_555
C60 N12 1_555 1_555
H48 C60 1_555 1_555
C61 C57 1_555 1_555
H49 C61 1_555 1_555
C62 C56 1_555 1_555
H50 C62 1_555 1_555
C63 C80 1_555 1_555
C64 C78 1_555 1_555
C65 C62 1_555 1_555
C66 C61 1_555 1_555
C67 C59 1_555 1_555
H51 C67 1_555 1_555
C68 C66 1_555 1_555
H52 C68 1_555 1_555
C69 N13 1_555 1_555
H53 C69 1_555 1_555
C70 N10 1_555 1_555
H54 C70 1_555 1_555
C71 C72 1_555 1_555
C72 C70 1_555 1_555
H55 C72 1_555 1_555
C73 H56 1_555 1_555
C74 C71 1_555 1_555
H57 C74 1_555 1_555
C75 N13 1_555 1_555
H58 C75 1_555 1_555
C76 N10 1_555 1_555
H59 C76 1_555 1_555
C77 C58 1_555 1_555
H60 C77 1_555 1_555
C78 C75 1_555 1_555
H61 C78 1_555 1_555
C79 C65 1_555 1_555
H62 C79 1_555 1_555
C80 C84 1_555 1_555
C81 C60 1_555 1_555
H63 C81 1_555 1_555
C82 C64 1_555 1_555
H64 C82 1_555 1_555
C83 C68 1_555 1_555
H65 C83 1_555 1_555
C84 C71 1_555 1_555
C85 C64 1_555 1_555
H66 C85 1_555 1_555
C86 C55 1_555 1_555
H67 C86 1_555 1_555
C87 H68 1_555 1_555
C88 C73 1_555 1_555
C89 N11 1_555 1_555
H69 C89 1_555 1_555
C90 N11 1_555 1_555
H70 C90 1_555 1_555
Cu1_2 N1_2 1_555 1_555
Cu3_2 N2_2 1_555 1_555
N1_2 C2_2 1_555 1_555
N2_2 C1_2 1_555 1_555
N3_2 Cu1_2 1_555 1_555
C1_2 H1_2 1_555 1_555
C4_2 N3_2 1_555 1_555
H4_2 C4_2 1_555 1_555
C9_2 C1_2 1_555 1_555
H6_2 C9_2 1_555 1_555
C15_2 H12_2 1_555 1_555
C19_2 N2_2 1_555 1_555
H16_2 C19_2 1_555 1_555
C20_2 N1_2 1_555 1_555
C21_2 N3_2 1_555 1_555
H18_2 C21_2 1_555 1_555
C22_2 C4_2 1_555 1_555
H19_2 C22_2 1_555 1_555
C25_2 C21_2 1_555 1_555
H21_2 C25_2 1_555 1_555
C29_2 C36 1_555 1_555
H25_2 C29_2 1_555 1_555
C33_2 C29_2 1_555 1_555
H27_2 C33_2 1_555 1_555
C34_2 C9_2 1_555 1_555
C36_2 C29 1_555 1_555
Cu4A N7A 1_555 1_555
N8A Cu4A 1_555 1_555
N9A Cu5 1_555 1_555
C37A H29A 1_555 1_555
C38A N8A 1_555 1_555
H30A C38A 1_555 1_555
C41A H33A 1_555 1_555
C42A N9A 1_555 1_555
H34A C42A 1_555 1_555
C43A N8A 1_555 1_555
H35A C43A 1_555 1_555
C45A C48A 1_555 1_555
C46A C41A 1_555 1_555
C47A C37A 1_555 1_555
C48A H37A 1_555 1_555
C49A C37A 1_555 1_555
H38A C49A 1_555 1_555
C50A N9A 1_555 1_555
H39A C50A 1_555 1_555
C51A C51 1_555 1_555
C52A C42A 1_555 1_555
H40A C52A 1_555 1_555
C54A C38A 1_555 1_555
H42A C54A 1_555 1_555
Mo1A O6A 1_555 1_555
Mo2A O7A_2 1_555 1_555
Mo2A_2 O23 1_555 1_555
Mo2_2 O7_2 1_555 1_555
Mo2_3 O7_3 1_555 1_555
Mo2A_3 O7A_3 1_555 1_555
Mo3A O4A_2 1_555 1_555
Mo3A_2 O23 1_555 1_555
Mo3_2 O4_2 1_555 1_555
Mo3_3 O4_3 1_555 1_555
Mo3A_3 O4A_3 1_555 1_555
Mo4A O11A 1_555 1_555
Mo5A O16 1_555 1_555
Mo6A O5A 1_555 1_555
Mo6A_2 O26 1_555 1_555
Mo6_2 O5_3 1_555 1_555
Mo6A_3 O5A_3 1_555 1_555
Mo6_3 O5_2 1_555 1_555
Mo7A O7_2 1_555 1_555
Mo7A_2 O15 1_555 1_555
Mo7_2 O7A_2 1_555 1_555
Mo7A_3 O7_3 1_555 1_555
Mo7_3 O7A_3 1_555 1_555
Mo8A O4_2 1_555 1_555
Mo8A_2 O20 1_555 1_555
Mo8_2 O4A_2 1_555 1_555
Mo8A_3 O4_3 1_555 1_555
Mo8_3 O4A_3 1_555 1_555
Mo9A O8_2 1_555 1_555
Mo9A_2 O10 1_555 1_555
Mo9_2 O8A_2 1_555 1_555
Mo9_3 O8A_3 1_555 1_555
Mo9A_3 O8_3 1_555 1_555
Mo10A O24 1_555 1_555
Mo11A O5A 1_555 1_555
Mo11A_2 O5A_3 1_555 1_555
Mo11_2 O5_2 1_555 1_555
Mo11A_3 O5A_2 1_555 1_555
Mo11_3 O5_3 1_555 1_555
Mo12A O15A 1_555 1_555
Mo12A_2 O15A_2 1_555 1_555
Mo12_2 O15_2 1_555 1_555
Mo12_3 O15_3 1_555 1_555
Mo12A_3 O15A_3 1_555 1_555
O4A Mo8 1_555 1_555
O5A Mo8A 1_555 1_555
O5A_2 Mo6A_2 1_555 1_555
O5A_3 Mo8A_3 1_555 1_555
O5_2 Mo8_3 1_555 1_555
O5_3 Mo8_2 1_555 1_555
O6A Mo5A 1_555 1_555
O7A Mo7 1_555 1_555
O8A Mo9 1_555 1_555
O8A_2 Mo7A 1_555 1_555
O8_2 Mo7_2 1_555 1_555
O8A_3 Mo7A_3 1_555 1_555
O8_3 Mo7_3 1_555 1_555
O9A Mo5A 1_555 1_555
O10A Mo9 1_555 1_555
O10A_2 Mo6A 1_555 1_555
O10_2 Mo6_2 1_555 1_555
O10A_3 Mo6A_3 1_555 1_555
O10_3 Mo6_3 1_555 1_555
O11A Mo1A 1_555 1_555
O12A Mo2A 1_555 1_555
O12A_2 Mo2A_2 1_555 1_555
O12_2 Mo2_2 1_555 1_555
O12_3 Mo2_3 1_555 1_555
O12A_3 Mo2A_3 1_555 1_555
O13A Mo6A 1_555 1_555
O13A_2 Mo6A_2 1_555 1_555
O13_2 Mo6_2 1_555 1_555
O13A_3 Mo6A_3 1_555 1_555
O13_3 Mo6_3 1_555 1_555
O14A Mo7A 1_555 1_555
O14A_2 Mo7A_2 1_555 1_555
O14_2 Mo7_2 1_555 1_555
O14A_3 Mo7A_3 1_555 1_555
O14_3 Mo7_3 1_555 1_555
O15A Mo2A 1_555 1_555
O15A_2 Mo7 1_555 1_555
O15_2 Mo2_2 1_555 1_555
O15_3 Mo2_3 1_555 1_555
O15A_3 Mo2A_3 1_555 1_555
O16A Mo5 1_555 1_555
O17A Mo5 1_555 1_555
O18A Mo8A 1_555 1_555
O18A_2 Mo8A_2 1_555 1_555
O18_2 Mo8_2 1_555 1_555
O18A_3 Mo8A_3 1_555 1_555
O18_3 Mo8_3 1_555 1_555
O19A Mo3A 1_555 1_555
O19A_2 Mo3A_2 1_555 1_555
O19_2 Mo3_2 1_555 1_555
O19_3 Mo3_3 1_555 1_555
O19A_3 Mo3A_3 1_555 1_555
O20A Mo3A 1_555 1_555
O20A_2 Mo8 1_555 1_555
O20_2 Mo3_2 1_555 1_555
O20_3 Mo3_3 1_555 1_555
O20A_3 Mo3A_3 1_555 1_555
O21A Mo8A 1_555 1_555
O21A_2 Mo8A_2 1_555 1_555
O21_2 Mo8_2 1_555 1_555
O21A_3 Mo8A_3 1_555 1_555
O21_3 Mo8_3 1_555 1_555
Cu6A O35A 1_555 1_555
Cu6A_2 O38A_2 1_555 1_555
Cu6_2 O38_2 1_555 1_555
Cu6A_3 O38A_3 1_555 1_555
Cu7A O35A 1_555 1_555
Cu7A_2 O35A_2 1_555 1_555
Cu7_2 O35_2 1_555 1_555
Cu8A O41 1_555 1_555
Cu8A_2 O41A_2 1_555 1_555
Cu8_2 O41A_2 1_555 1_555
Cu8A_3 O41A_3 1_555 1_555
Cu8_3 O41_3 1_555 1_555
O22A Mo5A 1_555 1_555
O23A Mo2_2 1_555 1_555
O23A_2 Mo2 1_555 1_555
O23_2 Mo2A 1_555 1_555
O23A_3 Mo2_3 1_555 1_555
O23_3 Mo2A_3 1_555 1_555
O24A Mo10 1_555 1_555
O25A Mo1A 1_555 1_555
O26A Mo6_2 1_555 1_555
O26A_2 Mo6 1_555 1_555
O26_2 Mo6A 1_555 1_555
O26_3 Mo6A_3 1_555 1_555
O26A_3 Mo6_3 1_555 1_555
O27A Mo7A 1_555 1_555
O27A_2 Mo9 1_555 1_555
O27_2 Mo7_2 1_555 1_555
O27A_3 Mo7A_3 1_555 1_555
O27_3 Mo7_3 1_555 1_555
O28A Mo4A 1_555 1_555
O29A Mo1A 1_555 1_555
O30A Mo7A 1_555 1_555
O30A_2 Mo7A_2 1_555 1_555
O30_2 Mo7_2 1_555 1_555
O30A_3 Mo7A_3 1_555 1_555
O30_3 Mo7_3 1_555 1_555
O31A Mo9A 1_555 1_555
O31A_2 Mo9A_2 1_555 1_555
O31_2 Mo9_2 1_555 1_555
O31_3 Mo9_3 1_555 1_555
O31A_3 Mo9A_3 1_555 1_555
O32A Mo6A 1_555 1_555
O32A_2 Mo6A_2 1_555 1_555
O32_2 Mo6_2 1_555 1_555
O32A_3 Mo6A_3 1_555 1_555
O32_3 Mo6_3 1_555 1_555
O33A Mo2A 1_555 1_555
O33A_2 Mo2A_2 1_555 1_555
O33_2 Mo2_2 1_555 1_555
O33_3 Mo2_3 1_555 1_555
O33A_3 Mo2A_3 1_555 1_555
O34A Mo9A 1_555 1_555
O34A_2 Mo9A_2 1_555 1_555
O34_2 Mo9_2 1_555 1_555
O34_3 Mo9_3 1_555 1_555
O34A_3 Mo9A_3 1_555 1_555
O35A Mo10A 1_555 1_555
O36A Mo1A 1_555 1_555
O37A Mo2A 1_555 1_555
O37A_2 Mo2A_2 1_555 1_555
O37_2 Mo2_2 1_555 1_555
O37_3 Mo2_3 1_555 1_555
O37A_3 Mo2A_3 1_555 1_555
O38A Mo12A 1_555 1_555
O38A_2 Mo12A_2 1_555 1_555
O38_2 Mo12_2 1_555 1_555
O38A_3 Mo12A_3 1_555 1_555
O38_3 Mo12_3 1_555 1_555
O39A Mo3A 1_555 1_555
O39A_2 Mo3A_2 1_555 1_555
O39_2 Mo3_2 1_555 1_555
O39_3 Mo3_3 1_555 1_555
O39A_3 Mo3A_3 1_555 1_555
O40A Mo4A 1_555 1_555
O41A Cu8 1_555 1_555
O41A_2 Mo11A_2 1_555 1_555
O41_2 Mo11_2 1_555 1_555
O41A_3 Mo11A_3 1_555 1_555
O41_3 Mo11_3 1_555 1_555
O42A Mo6A 1_555 1_555
O42A_2 Mo6A_2 1_555 1_555
O42_2 Mo6_2 1_555 1_555
O42A_3 Mo6A_3 1_555 1_555
O42_3 Mo6_3 1_555 1_555
N10A Cu8A_2 1_555 1_555
N10_2 Cu8_2 1_555 1_555
N10A_2 Cu8A 1_555 1_555
N10A_3 Cu8A_3 1_555 1_555
N10_3 Cu8_3 1_555 1_555
N11A Cu7A 1_555 1_555
N11A_2 Cu7A_2 1_555 1_555
N11_2 Cu7_2 1_555 1_555
N12A Cu6A 1_555 1_555
N12A_2 Cu6A_2 1_555 1_555
N12_2 Cu6_2 1_555 1_555
N12A_3 Cu6A_3 1_555 1_555
N13A Cu6A 1_555 1_555
N13A_2 Cu6A_3 1_555 1_555
N13_2 Cu6_2 1_555 1_555
N13A_3 Cu6A_2 1_555 1_555
N14A Cu7A 1_555 1_555
N14A_2 Cu7A_2 1_555 1_555
N14_2 Cu7_2 1_555 1_555
N15A Cu8_2 1_555 1_555
N15A_2 Cu8 1_555 1_555
N15_2 Cu8A_2 1_555 1_555
N15_3 Cu8A_3 1_555 1_555
N15A_3 Cu8_3 1_555 1_555
C55A N12A 1_555 1_555
C55A_2 N12A_2 1_555 1_555
H43A C55A 1_555 1_555
C56A N14A 1_555 1_555
C56A_2 N14A_2 1_555 1_555
C56_2 N14_2 1_555 1_555
H44A C56A 1_555 1_555
H44A_2 C56A_2 1_555 1_555
H44_2 C56_2 1_555 1_555
C57A N15A 1_555 1_555
H45A C57A 1_555 1_555
C58A N15A 1_555 1_555
H46A C58A 1_555 1_555
C59A N14A 1_555 1_555
C59A_2 N14A_2 1_555 1_555
C59_2 N14_2 1_555 1_555
H47A C59A 1_555 1_555
H47A_2 C59A_2 1_555 1_555
H47_2 C59_2 1_555 1_555
C60A N12A 1_555 1_555
C60A_2 N12A_2 1_555 1_555
H48A C60A 1_555 1_555
C61A C57A 1_555 1_555
H49A C61A 1_555 1_555
C62A C56A 1_555 1_555
C62A_2 C56A_2 1_555 1_555
C62_2 C56_2 1_555 1_555
H50A C62A 1_555 1_555
H50A_2 C62A_2 1_555 1_555
H50_2 C62_2 1_555 1_555
C63A C80A 1_555 1_555
C64A C78A 1_555 1_555
C64A_2 C78A_2 1_555 1_555
C64_2 C78_2 1_555 1_555
C65A C62A 1_555 1_555
C65A_2 C62A_2 1_555 1_555
C65_2 C62_2 1_555 1_555
C66A C61A 1_555 1_555
C67A C59A 1_555 1_555
C67A_2 C59A_2 1_555 1_555
C67_2 C59_2 1_555 1_555
H51A C67A 1_555 1_555
H51A_2 C67A_2 1_555 1_555
H51_2 C67_2 1_555 1_555
C68A C66A 1_555 1_555
H52A C68A 1_555 1_555
C69A N13A 1_555 1_555
C69A_2 N13A_2 1_555 1_555
C69_2 N13_2 1_555 1_555
C69A_3 N13A_3 1_555 1_555
H53A C69A 1_555 1_555
H53A_2 C69A_2 1_555 1_555
H53_2 C69_2 1_555 1_555
C70A N10A 1_555 1_555
C70_2 N10_2 1_555 1_555
H54A C70A 1_555 1_555
H54_2 C70_2 1_555 1_555
C71A C72A 1_555 1_555
C71_2 C72_2 1_555 1_555
C72A C70A 1_555 1_555
C72_2 C70_2 1_555 1_555
H55A C72A 1_555 1_555
H55_2 C72_2 1_555 1_555
C73A H56A 1_555 1_555
C74A C71A 1_555 1_555
C74_2 C71_2 1_555 1_555
H57A C74A 1_555 1_555
H57_2 C74_2 1_555 1_555
C75A N13A 1_555 1_555
C75A_2 N13A_2 1_555 1_555
C75_2 N13_2 1_555 1_555
C75A_3 N13A_3 1_555 1_555
H58A C75A 1_555 1_555
H58A_2 C75A_2 1_555 1_555
H58_2 C75_2 1_555 1_555
C76A N10A 1_555 1_555
C76_2 N10_2 1_555 1_555
H59A C76A 1_555 1_555
H59_2 C76_2 1_555 1_555
C77A C58A 1_555 1_555
H60A C77A 1_555 1_555
C78A C75A 1_555 1_555
C78A_2 C75A_2 1_555 1_555
C78_2 C75_2 1_555 1_555
H61A C78A 1_555 1_555
H61A_2 C78A_2 1_555 1_555
H61_2 C78_2 1_555 1_555
C79A C82 1_555 1_555
C79A_2 C65A 1_555 1_555
C79_2 C65_2 1_555 1_555
H62A C79A_2 1_555 1_555
H62A_2 C79A 1_555 1_555
H62_2 C79_2 1_555 1_555
C80A C84A 1_555 1_555
C80_2 C84_2 1_555 1_555
C81A C60A 1_555 1_555
H63A C81A 1_555 1_555
C82A C79 1_555 1_555
C82A_2 C64A 1_555 1_555
C82_2 C64_2 1_555 1_555
H64A C82A_2 1_555 1_555
H64A_2 C82A 1_555 1_555
H64_2 C82_2 1_555 1_555
C83A C68A 1_555 1_555
H65A C83A 1_555 1_555
C84A C71A 1_555 1_555
C84_2 C71_2 1_555 1_555
C85A C64A 1_555 1_555
C85A_2 C64A_2 1_555 1_555
C85_2 C64_2 1_555 1_555
H66A C85A 1_555 1_555
H66A_2 C85A_2 1_555 1_555
H66_2 C85_2 1_555 1_555
C86A C55A 1_555 1_555
H67A C86A 1_555 1_555
C87A H68A 1_555 1_555
C88A C73A 1_555 1_555
C89A N11A 1_555 1_555
H69A C89A 1_555 1_555
C90A N11A 1_555 1_555
H70A C90A 1_555 1_555
C5 C16 1_555 1_555
C7 C35 1_555 1_555
C10 C20 1_555 1_555
C11 C27 1_555 1_555
C12 C13 1_555 1_555
C15 C19 1_555 1_555
C15 C34 1_555 1_555
C17 C24 1_555 1_555
C18 C23 1_555 1_555
C18 C26 1_555 1_555
C25 C36 1_555 1_555
C28 C32 1_555 1_555
C30 C31 1_555 1_555
C33 C34 1_555 1_555
C40 C44 1_555 1_555
C40 C47 1_555 1_555
C41 C43 1_555 1_555
C45 C49 1_555 1_555
C45 C52 1_555 1_555
C46 C54 1_555 1_555
C47 C53 1_555 1_555
C48 C50 1_555 1_555
Mo3 O12 1_555 1_555
Mo3 O23A_2 1_555 1_555
Mo4 O24 1_555 1_555
Mo5 O25 1_555 1_555
Mo8 O13 1_555 1_555
Mo10 O25 1_555 1_555
Mo11 O27 1_555 1_555
Mo12 O20 1_555 1_555
O17 Mo5A 1_555 1_555
Cu6 O38 1_555 1_555
Cu7 O38 1_555 1_555
O27 Mo9A_2 1_555 1_555
N15 Cu8A 1_555 1_555
C63 C81 1_555 1_555
C63 C86 1_555 1_555
C65 C67 1_555 1_555
C66 C77 1_555 1_555
C69 C85 1_555 1_555
C73 C89 1_555 1_555
C74 C76 1_555 1_555
C83 C88 1_555 1_555
C87 C88 1_555 1_555
C87 C90 1_555 1_555
C15_2 C19_2 1_555 1_555
C15_2 C34_2 1_555 1_555
C22_2 C36_2 1_555 1_555
C25_2 C36_2 1_555 1_555
C33_2 C34_2 1_555 1_555
C41A C43A 1_555 1_555
C45A C49A 1_555 1_555
C45A C52A 1_555 1_555
C46A C51A 1_555 1_555
C46A C54A 1_555 1_555
C48A C50A 1_555 1_555
Mo1A O24A 1_555 1_555
Mo2A_2 O7A 1_555 1_555
Mo2A_2 O15A_2 1_555 1_555
Mo3A O12A 1_555 1_555
Mo3A O23_2 1_555 1_555
Mo3A_2 O4A 1_555 1_555
Mo3A_2 O12A_2 1_555 1_555
Mo3A_2 O20A_2 1_555 1_555
Mo3_2 O12_2 1_555 1_555
Mo3_2 O23A 1_555 1_555
Mo3_3 O12_3 1_555 1_555
Mo3_3 O23A_3 1_555 1_555
Mo3A_3 O12A_3 1_555 1_555
Mo3A_3 O23_3 1_555 1_555
Mo4A O16A 1_555 1_555
Mo4A O17A 1_555 1_555
Mo4A O24A 1_555 1_555
Mo5A O25A 1_555 1_555
Mo6A_2 O10A 1_555 1_555
Mo7A O15_2 1_555 1_555
Mo7A_2 O8A 1_555 1_555
Mo7A_2 O27A_2 1_555 1_555
Mo7_2 O15A 1_555 1_555
Mo7A_3 O15_3 1_555 1_555
Mo7_3 O15A_3 1_555 1_555
Mo8A O13A 1_555 1_555
Mo8A O20_2 1_555 1_555
Mo8A_2 O5A_2 1_555 1_555
Mo8A_2 O13A_2 1_555 1_555
Mo8_2 O13_2 1_555 1_555
Mo8_2 O20A 1_555 1_555
Mo8A_3 O13A_3 1_555 1_555
Mo8A_3 O20_3 1_555 1_555
Mo8_3 O13_3 1_555 1_555
Mo8_3 O20A_3 1_555 1_555
Mo9A O10_2 1_555 1_555
Mo9A O26A 1_555 1_555
Mo9A O27_2 1_555 1_555
Mo9A_2 O26A_2 1_555 1_555
Mo9_2 O10A_2 1_555 1_555
Mo9_2 O26_2 1_555 1_555
Mo9_2 O27A 1_555 1_555
Mo9_3 O10A_3 1_555 1_555
Mo9_3 O26_3 1_555 1_555
Mo9_3 O27A_3 1_555 1_555
Mo9A_3 O10_3 1_555 1_555
Mo9A_3 O26A_3 1_555 1_555
Mo9A_3 O27_3 1_555 1_555
Mo10A O17A 1_555 1_555
Mo10A O25A 1_555 1_555
Mo11A O23A 1_555 1_555
Mo11A O27A 1_555 1_555
Mo11A O41A 1_555 1_555
Mo11A_2 O23A_3 1_555 1_555
Mo11A_2 O27A_3 1_555 1_555
Mo11_2 O23_3 1_555 1_555
Mo11_2 O27_3 1_555 1_555
Mo11A_3 O23A_2 1_555 1_555
Mo11A_3 O27A_2 1_555 1_555
Mo11_3 O23_2 1_555 1_555
Mo11_3 O27_2 1_555 1_555
Mo12A O20A 1_555 1_555
Mo12A O26A 1_555 1_555
Mo12A_2 O20A_2 1_555 1_555
Mo12A_2 O26A_2 1_555 1_555
Mo12_2 O20_2 1_555 1_555
Mo12_2 O26_2 1_555 1_555
Mo12_3 O20_3 1_555 1_555
Mo12_3 O26_3 1_555 1_555
Mo12A_3 O20A_3 1_555 1_555
Mo12A_3 O26A_3 1_555 1_555
Cu6A O38A 1_555 1_555
Cu7A O38A 1_555 1_555
Cu8A O41A 1_555 1_555
Cu8A_2 O41_2 1_555 1_555
Cu8_2 O41_2 1_555 1_555
C63A C81A 1_555 1_555
C63A C86A 1_555 1_555
C64A_2 C82A 1_555 1_555
C65A C67A 1_555 1_555
C65A_2 C67A_2 1_555 1_555
C65A_2 C79A 1_555 1_555
C65_2 C67_2 1_555 1_555
C66A C77A 1_555 1_555
C69A C85A 1_555 1_555
C69A_2 C85A_2 1_555 1_555
C69_2 C85_2 1_555 1_555
C73A C89A 1_555 1_555
C74A C76A 1_555 1_555
C74_2 C76_2 1_555 1_555
C79A_2 C82_2 1_555 1_555
C79_2 C82A_2 1_555 1_555
C83A C88A 1_555 1_555
C87A C88A 1_555 1_555
C87A C90A 1_555 1_555

#END
