
#######################################################################
#
#                 Cambridge Crystallographic Data Centre
#                                CCDC 
#
#######################################################################
#
# If this CIF has been generated from an entry in the Cambridge 
# Structural Database, then it will include bibliographic, chemical, 
# crystal, experimental, refinement or atomic coordinate data resulting 
# from the CCDC's data processing and validation procedures.
#
#######################################################################

data_TELFAT
_symmetry_cell_setting           rhombohedral
_symmetry_space_group_name_H-M   'R -3'
_symmetry_Int_Tables_number      148
_space_group_name_Hall           '-R 3'
loop_
_symmetry_equiv_pos_site_id
_symmetry_equiv_pos_as_xyz
1 x,y,z
2 -y,x-y,z
3 -x+y,-x,z
4 2/3+x,1/3+y,1/3+z
5 2/3-y,1/3+x-y,1/3+z
6 2/3-x+y,1/3-x,1/3+z
7 1/3+x,2/3+y,2/3+z
8 1/3-y,2/3+x-y,2/3+z
9 1/3-x+y,2/3-x,2/3+z
10 -x,-y,-z
11 y,-x+y,-z
12 x-y,x,-z
13 1/3-x,2/3-y,2/3-z
14 1/3+y,2/3-x+y,2/3-z
15 1/3+x-y,2/3+x,2/3-z
16 2/3-x,1/3-y,1/3-z
17 2/3+y,1/3-x+y,1/3-z
18 2/3+x-y,1/3+x,1/3-z
_cell_length_a                   24.4118(16)
_cell_length_b                   24.4118(16)
_cell_length_c                   14.2677(11)
_cell_angle_alpha                90
_cell_angle_beta                 90
_cell_angle_gamma                120
_cell_volume                     7363.5
loop_
_atom_site_label
_atom_site_type_symbol
_atom_site_fract_x
_atom_site_fract_y
_atom_site_fract_z
C1 C 0.54543(14) 0.60237(14) 0.3481(2)
C2 C 0.46364(15) 0.55748(14) 0.1318(2)
C3 C 0.45319(14) 0.57458(15) 0.0379(2)
C4 C 0.45930(15) 0.63331(16) 0.0218(2)
H1 H 0.4726 0.6622 0.0709
C5 C 0.44668(16) 0.65084(17) -0.0630(3)
C6 C 0.42751(16) 0.6083(2) -0.1377(3)
C7 C 0.42199(18) 0.54947(19) -0.1237(3)
H2 H 0.4095 0.5210 -0.1733
C8 C 0.43474(17) 0.53232(17) -0.0372(2)
H3 H 0.4310 0.4928 -0.0293
C9 C 0.4527(2) 0.7153(2) -0.0744(3)
H4 H 0.4119 0.7103 -0.0874
H5 H 0.4809 0.7373 -0.1254
H6 H 0.4692 0.7392 -0.0177
C10 C 0.4114(2) 0.6241(2) -0.2327(3)
H7 H 0.3799 0.6364 -0.2254
H8 H 0.3952 0.5876 -0.2726
H9 H 0.4487 0.6582 -0.2603
N1 N 0.42402(12) 0.50235(11) 0.17462(18)
N2 N 0.51057(11) 0.59744(11) 0.18872(18)
O1 O 0.53904(12) 0.58166(10) 0.42939(17)
O2 O 0.59086(10) 0.65678(9) 0.32713(15)
O3 O 0.35912(10) 0.40944(10) 0.29505(15)
O4 O 0.42316(11) 0.45538(11) 0.41329(16)
O5 O 0.69922(12) 0.75332(13) 0.2172(2)
H10 H 0.7132 0.7418 0.2663
H11 H 0.7314 0.7766 0.1800
O6 O 0.64679(13) 0.62409(11) 0.1755(2)
H12 H 0.6529 0.6183 0.1174
H13 H 0.6766 0.6644 0.1883
C11 C 0.40860(14) 0.45546(14) 0.3297(2)
O7 O 0.45260(13) 0.53607(14) 0.5876(2)
H14 H 0.4167 0.5050 0.6076
H15 H 0.4743 0.5651 0.6272
C12 C 0.44676(14) 0.50825(14) 0.2644(2)
C13 C 0.50038(14) 0.56699(14) 0.2725(2)
Zn1 Zn 0.597830(17) 0.679300(17) 0.18354(3)
Zn2 Zn 0.5000 0.5000 0.5000
C1I C 0.45457(14) 0.39763(14) 0.6519(2)
C2I C 0.53636(15) 0.44252(14) 0.8682(2)
C3I C 0.54681(14) 0.42542(15) 0.9621(2)
C4I C 0.54070(15) 0.36669(16) 0.9782(2)
H1I H 0.5274 0.3378 0.9291
C5I C 0.55332(16) 0.34916(17) 1.0630(3)
C6I C 0.57249(16) 0.3917(2) 1.1377(3)
C7I C 0.57801(18) 0.45053(19) 1.1237(3)
H2I H 0.5905 0.4790 1.1733
C8I C 0.56526(17) 0.46768(17) 1.0372(2)
H3I H 0.5690 0.5072 1.0293
C9I C 0.5473(2) 0.2847(2) 1.0744(3)
H4I H 0.5881 0.2897 1.0874
H5I H 0.5191 0.2627 1.1254
H6I H 0.5308 0.2608 1.0177
C10I C 0.5886(2) 0.3759(2) 1.2327(3)
H7I H 0.6201 0.3636 1.2254
H8I H 0.6048 0.4124 1.2726
H9I H 0.5513 0.3418 1.2603
N1I N 0.57598(12) 0.49765(11) 0.82538(18)
N1Q N 0.58834(16) 0.75735(12) 0.15871(18)
N1H N 0.41166(16) 0.24265(12) 0.84129(18)
N2I N 0.48943(11) 0.40256(11) 0.81128(18)
O1I O 0.46096(12) 0.41834(10) 0.57061(17)
O2I O 0.40914(10) 0.34322(9) 0.67287(15)
O3I O 0.64088(10) 0.59056(10) 0.70495(15)
O3Q O 0.61635(14) 0.69245(10) 0.03828(15)
O3H O 0.38365(14) 0.30755(10) 0.96172(15)
O4I O 0.57684(11) 0.54462(11) 0.58671(16)
O5I O 0.30078(12) 0.24668(13) 0.7828(2)
H10I H 0.2868 0.2582 0.7337
H11I H 0.2686 0.2234 0.8200
O6I O 0.35321(13) 0.37591(11) 0.8245(2)
H12I H 0.3471 0.3817 0.8826
H13I H 0.3234 0.3356 0.8117
C11I C 0.59140(14) 0.54454(14) 0.6703(2)
O7I O 0.54740(13) 0.46393(14) 0.4124(2)
H14I H 0.5833 0.4950 0.3924
H15I H 0.5257 0.4349 0.3728
C12I C 0.55324(14) 0.49175(14) 0.7356(2)
C13I C 0.49962(14) 0.43301(14) 0.7275(2)
Zn1I Zn 0.402170(17) 0.320700(17) 0.81646(3)
Zn1P Zn 0.345967(17) 0.414803(24) 0.14979(3)
Zn1G Zn 0.654033(17) 0.585197(24) 0.85021(3)
O8 O 0.5606(2) 0.6648(2) 0.6905(4)
H16 H 0.5758(19) 0.667(2) 0.6372(15)
H17 H 0.5837(17) 0.6603(19) 0.728(2)
loop_
_geom_bond_atom_site_label_1
_geom_bond_atom_site_label_2
_geom_bond_site_symmetry_1
_geom_bond_site_symmetry_2
C1 O1 1_555 1_555
C2 C3 1_555 1_555
C3 C4 1_555 1_555
C4 H1 1_555 1_555
C5 C4 1_555 1_555
C6 C5 1_555 1_555
C7 C6 1_555 1_555
H2 C7 1_555 1_555
C8 C3 1_555 1_555
H3 C8 1_555 1_555
C9 C5 1_555 1_555
H4 C9 1_555 1_555
H5 C9 1_555 1_555
H6 C9 1_555 1_555
C10 C6 1_555 1_555
H7 C10 1_555 1_555
H8 C10 1_555 1_555
H9 C10 1_555 1_555
N1 C2 1_555 1_555
N2 C2 1_555 1_555
O1 Zn2 1_555 1_555
O2 C1 1_555 1_555
O3 C11 1_555 1_555
O4 C11 1_555 1_555
O5 H10 1_555 1_555
H11 O5 1_555 1_555
O6 H12 1_555 1_555
H13 O6 1_555 1_555
C11 C12 1_555 1_555
O7 H14 1_555 1_555
H15 O7 1_555 1_555
C12 N1 1_555 1_555
C13 C1 1_555 1_555
Zn1 N2 1_555 1_555
Zn2 O4 1_555 1_555
O8 H16 1_555 1_555
H17 O8 1_555 1_555
C1I O1I 1_555 1_555
C2I C3I 1_555 1_555
C3I C4I 1_555 1_555
C4I H1I 1_555 1_555
C5I C4I 1_555 1_555
C6I C5I 1_555 1_555
C7I C6I 1_555 1_555
H2I C7I 1_555 1_555
C8I C3I 1_555 1_555
H3I C8I 1_555 1_555
C9I C5I 1_555 1_555
H4I C9I 1_555 1_555
H5I C9I 1_555 1_555
H6I C9I 1_555 1_555
C10I C6I 1_555 1_555
H7I C10I 1_555 1_555
H8I C10I 1_555 1_555
H9I C10I 1_555 1_555
N1I C2I 1_555 1_555
N1Q Zn1 1_555 1_555
N1H Zn1I 1_555 1_555
N2I C2I 1_555 1_555
O1I Zn2 1_555 1_555
O2I C1I 1_555 1_555
O3I C11I 1_555 1_555
O3Q Zn1 1_555 1_555
O3H Zn1I 1_555 1_555
O4I Zn2 1_555 1_555
O5I H10I 1_555 1_555
H11I O5I 1_555 1_555
O6I H12I 1_555 1_555
H13I O6I 1_555 1_555
C11I O4I 1_555 1_555
O7I Zn2 1_555 1_555
H14I O7I 1_555 1_555
H15I O7I 1_555 1_555
C12I N1I 1_555 1_555
C13I C1I 1_555 1_555
Zn1I N2I 1_555 1_555
Zn1P N1 1_555 1_555
Zn1G N1I 1_555 1_555
C7 C8 1_555 1_555
N2 C13 1_555 1_555
O2 Zn1 1_555 1_555
O3 Zn1P 1_555 1_555
O5 Zn1 1_555 1_555
O6 Zn1 1_555 1_555
O7 Zn2 1_555 1_555
C12 C13 1_555 1_555
C7I C8I 1_555 1_555
N2I C13I 1_555 1_555
O2I Zn1I 1_555 1_555
O3I Zn1G 1_555 1_555
O5I Zn1I 1_555 1_555
O6I Zn1I 1_555 1_555
C11I C12I 1_555 1_555
C12I C13I 1_555 1_555

#END
