
#######################################################################
#
#                 Cambridge Crystallographic Data Centre
#                                CCDC 
#
#######################################################################
#
# If this CIF has been generated from an entry in the Cambridge 
# Structural Database, then it will include bibliographic, chemical, 
# crystal, experimental, refinement or atomic coordinate data resulting 
# from the CCDC's data processing and validation procedures.
#
#######################################################################

data_TELFEX
_symmetry_cell_setting           rhombohedral
_symmetry_space_group_name_H-M   'R -3'
_symmetry_Int_Tables_number      148
_space_group_name_Hall           '-R 3'
loop_
_symmetry_equiv_pos_site_id
_symmetry_equiv_pos_as_xyz
1 x,y,z
2 -y,x-y,z
3 -x+y,-x,z
4 2/3+x,1/3+y,1/3+z
5 2/3-y,1/3+x-y,1/3+z
6 2/3-x+y,1/3-x,1/3+z
7 1/3+x,2/3+y,2/3+z
8 1/3-y,2/3+x-y,2/3+z
9 1/3-x+y,2/3-x,2/3+z
10 -x,-y,-z
11 y,-x+y,-z
12 x-y,x,-z
13 1/3-x,2/3-y,2/3-z
14 1/3+y,2/3-x+y,2/3-z
15 1/3+x-y,2/3+x,2/3-z
16 2/3-x,1/3-y,1/3-z
17 2/3+y,1/3-x+y,1/3-z
18 2/3+x-y,1/3+x,1/3-z
_cell_length_a                   25.043(7)
_cell_length_b                   25.043(7)
_cell_length_c                   14.612(7)
_cell_angle_alpha                90
_cell_angle_beta                 90
_cell_angle_gamma                120
_cell_volume                     7936.21
loop_
_atom_site_label
_atom_site_type_symbol
_atom_site_fract_x
_atom_site_fract_y
_atom_site_fract_z
O1 O 0.0000 0.0000 0.0000
O2 O 0.2367(6) 0.2396(5) 0.4550(10)
Mn1 Mn 0.26818(5) 0.01431(4) 0.02271(6)
Mn2 Mn 0.3333 0.1667 -0.3333
O3 O 0.3073(3) 0.0939(2) -0.2389(3)
O4 O 0.2867(2) 0.0308(2) -0.1237(3)
O5 O 0.2687(2) 0.2544(2) -0.1650(3)
O6 O 0.2795(2) 0.1943(2) -0.2649(3)
O7 O 0.31680(19) -0.0394(2) 0.0068(3)
H1 H 0.3528 -0.0224 0.0300
H2 H 0.3306 -0.0500 -0.0388
O8 O 0.3614(2) 0.0862(2) 0.0748(3)
H3 H 0.3767 0.0740 0.1163
H4 H 0.3710 0.0674 0.0354
O9 O 0.2539(3) 0.1063(3) -0.4222(5)
H5 H 0.2380 0.1260 -0.4464
H6 H 0.2404 0.0719 -0.3950
N1 N 0.2433(2) 0.1757(2) -0.0274(3)
N2 N 0.2552(2) 0.0926(2) -0.0092(3)
C1 C 0.2718(3) 0.2073(3) -0.1837(4)
C2 C 0.2655(3) 0.1653(3) -0.1078(4)
C3 C 0.2719(3) 0.1143(3) -0.0986(4)
C4 C 0.2903(3) 0.0788(3) -0.1575(4)
C5 C 0.2389(3) 0.1308(3) 0.0283(4)
C6 C 0.2101(4) 0.1200(3) 0.1216(4)
C7 C 0.2320(4) 0.0996(3) 0.1934(4)
H7 H 0.2656 0.0938 0.1853
C8 C 0.2017(5) 0.0881(4) 0.2787(5)
H8 H 0.2166 0.0752 0.3271
C9 C 0.1528(5) 0.0947(4) 0.2934(6)
C10 C 0.1299(4) 0.1151(3) 0.2199(6)
C11 C 0.1609(3) 0.1289(3) 0.1359(5)
H9 H 0.1479 0.1445 0.0886
C12 C 0.0730(5) 0.1218(4) 0.2274(7)
H10 H 0.0778 0.1484 0.2779
H11 H 0.0374 0.0820 0.2373
H12 H 0.0679 0.1393 0.1718
C13 C 0.1192(6) 0.0775(4) 0.3844(6)
H13 H 0.1405 0.0651 0.4263
H14 H 0.0779 0.0441 0.3757
H15 H 0.1181 0.1125 0.4089
Mn1O Mn 0.39849(5) 0.31902(4) -0.68938(6)
Mn1K Mn 0.25387(6) 0.26818(5) -0.02271(6)
Mn1E Mn 0.41280(6) 0.06515(5) -0.64396(6)
O3O O 0.3594(3) 0.2394(2) -0.4278(3)
O4O O 0.3800(2) 0.3025(2) -0.5430(3)
O4E O 0.4108(3) 0.0466(2) -0.7904(3)
O5O O 0.3980(2) 0.0789(2) -0.5017(3)
O5J O 0.2544(2) -0.0143(3) 0.1650(3)
O6O O 0.3872(2) 0.1390(2) -0.4018(3)
O7E O 0.31047(28) 0.01653(19) -0.6599(3)
H1E H 0.2915 -0.0195 -0.6367
H2E H 0.2861 0.0027 -0.7055
O8E O 0.3915(3) -0.0281(2) -0.5919(3)
H3E H 0.3640 -0.0434 -0.5504
H4E H 0.3631 -0.0377 -0.6313
O9O O 0.4128(3) 0.2270(3) -0.2445(5)
H5O H 0.4287 0.2073 -0.2203
H6O H 0.4263 0.2614 -0.2717
N1O N 0.4234(2) 0.1576(2) -0.6393(3)
N1J N 0.1757(2) -0.0676(3) 0.0274(3)
N2O N 0.4115(2) 0.2407(2) -0.6575(3)
N2E N 0.5041(3) 0.0781(2) -0.6759(3)
C1O C 0.3949(3) 0.1260(3) -0.4830(4)
C2O C 0.4012(3) 0.1680(3) -0.5589(4)
C3O C 0.3948(3) 0.2190(3) -0.5681(4)
C4O C 0.3764(3) 0.2545(3) -0.5092(4)
C5O C 0.4278(3) 0.2025(3) -0.6950(4)
C6O C 0.4566(4) 0.2133(3) -0.7883(4)
C7O C 0.4347(4) 0.2337(3) -0.8601(4)
H7O H 0.4011 0.2395 -0.8520
C8O C 0.4650(5) 0.2452(4) -0.9454(5)
H8O H 0.4501 0.2581 -0.9938
C9O C 0.5139(5) 0.2386(4) -0.9601(6)
C10O C 0.5368(4) 0.2182(3) -0.8866(6)
C11O C 0.5058(3) 0.2044(3) -0.8026(5)
H9O H 0.5188 0.1888 -0.7553
C12O C 0.5937(5) 0.2115(4) -0.8941(7)
H10O H 0.5889 0.1849 -0.9446
H11O H 0.6293 0.2513 -0.9040
H12O H 0.5988 0.1940 -0.8385
C13O C 0.5475(6) 0.2558(4) -1.0511(6)
H13O H 0.5262 0.2682 -1.0930
H14O H 0.5888 0.2892 -1.0424
H15O H 0.5486 0.2208 -1.0756
loop_
_geom_bond_atom_site_label_1
_geom_bond_atom_site_label_2
_geom_bond_site_symmetry_1
_geom_bond_site_symmetry_2
Mn1 O4 1_555 1_555
Mn2 O3 1_555 1_555
O3 C4 1_555 1_555
O4 C4 1_555 1_555
O5 C1 1_555 1_555
O6 Mn2 1_555 1_555
O7 Mn1 1_555 1_555
H1 O7 1_555 1_555
H2 O7 1_555 1_555
O8 Mn1 1_555 1_555
H3 O8 1_555 1_555
H4 O8 1_555 1_555
O9 Mn2 1_555 1_555
H5 O9 1_555 1_555
H6 O9 1_555 1_555
N1 C2 1_555 1_555
N2 Mn1 1_555 1_555
C1 O6 1_555 1_555
C2 C1 1_555 1_555
C3 N2 1_555 1_555
C4 C3 1_555 1_555
C5 N1 1_555 1_555
C6 C5 1_555 1_555
C7 C6 1_555 1_555
H7 C7 1_555 1_555
C8 C7 1_555 1_555
H8 C8 1_555 1_555
C9 C8 1_555 1_555
C10 C9 1_555 1_555
C11 C6 1_555 1_555
H9 C11 1_555 1_555
C12 C10 1_555 1_555
H10 C12 1_555 1_555
H11 C12 1_555 1_555
H12 C12 1_555 1_555
C13 C9 1_555 1_555
H13 C13 1_555 1_555
H14 C13 1_555 1_555
H15 C13 1_555 1_555
Mn1O O4O 1_555 1_555
Mn1K O5 1_555 1_555
Mn1E O4E 1_555 1_555
O3O Mn2 1_555 1_555
O4O C4O 1_555 1_555
O5O Mn1E 1_555 1_555
O5J Mn1 1_555 1_555
O6O Mn2 1_555 1_555
O7E Mn1E 1_555 1_555
H1E O7E 1_555 1_555
H2E O7E 1_555 1_555
O8E Mn1E 1_555 1_555
H3E O8E 1_555 1_555
H4E O8E 1_555 1_555
O9O Mn2 1_555 1_555
H5O O9O 1_555 1_555
H6O O9O 1_555 1_555
N1O Mn1E 1_555 1_555
N1J Mn1 1_555 1_555
N2O Mn1O 1_555 1_555
N2E Mn1E 1_555 1_555
C1O O5O 1_555 1_555
C2O N1O 1_555 1_555
C3O N2O 1_555 1_555
C4O O3O 1_555 1_555
C5O N1O 1_555 1_555
C6O C5O 1_555 1_555
C7O C6O 1_555 1_555
H7O C7O 1_555 1_555
C8O C7O 1_555 1_555
H8O C8O 1_555 1_555
C9O C8O 1_555 1_555
C10O C9O 1_555 1_555
C11O C6O 1_555 1_555
H9O C11O 1_555 1_555
C12O C10O 1_555 1_555
H10O C12O 1_555 1_555
H11O C12O 1_555 1_555
H12O C12O 1_555 1_555
C13O C9O 1_555 1_555
H13O C13O 1_555 1_555
H14O C13O 1_555 1_555
H15O C13O 1_555 1_555
N1 Mn1K 1_555 1_555
N2 C5 1_555 1_555
C2 C3 1_555 1_555
C10 C11 1_555 1_555
O6O C1O 1_555 1_555
N2O C5O 1_555 1_555
C1O C2O 1_555 1_555
C2O C3O 1_555 1_555
C3O C4O 1_555 1_555
C10O C11O 1_555 1_555

#END
