
#######################################################################
#
#                 Cambridge Crystallographic Data Centre
#                                CCDC 
#
#######################################################################
#
# If this CIF has been generated from an entry in the Cambridge 
# Structural Database, then it will include bibliographic, chemical, 
# crystal, experimental, refinement or atomic coordinate data resulting 
# from the CCDC's data processing and validation procedures.
#
#######################################################################

data_TELGEW
_symmetry_cell_setting           monoclinic
_symmetry_space_group_name_H-M   'P 21/c'
_symmetry_Int_Tables_number      14
_space_group_name_Hall           '-P 2ybc'
loop_
_symmetry_equiv_pos_site_id
_symmetry_equiv_pos_as_xyz
1 x,y,z
2 -x,1/2+y,1/2-z
3 -x,-y,-z
4 x,1/2-y,1/2+z
_cell_length_a                   21.803(2)
_cell_length_b                   12.319(2)
_cell_length_c                   7.898(2)
_cell_angle_alpha                90
_cell_angle_beta                 92.11(2)
_cell_angle_gamma                90
_cell_volume                     2119.89
loop_
_atom_site_label
_atom_site_type_symbol
_atom_site_fract_x
_atom_site_fract_y
_atom_site_fract_z
Pr1 Pr 0.247320(15) 0.19688(2) 0.24139(3)
O1 O 0.2210(2) 0.0354(3) 0.4217(5)
O2 O 0.1799(2) 0.2551(3) -0.0178(4)
C1 C 0.1344(3) 0.2011(5) 0.0318(6)
O3 O 0.1395(2) 0.1390(3) 0.1556(5)
C2 C 0.0722(3) 0.2175(5) -0.0546(7)
C3 C 0.0468(3) 0.3182(5) -0.0777(8)
F1 F 0.0779(2) 0.4055(3) -0.0179(5)
C4 C -0.0103(3) 0.3343(7) -0.1523(9)
H1 H -0.0267(3) 0.4036(7) -0.1644(9)
C5 C -0.0425(3) 0.2445(8) -0.2085(10)
H2 H -0.0809(3) 0.2538(8) -0.2614(10)
C6 C 0.0378(3) 0.1301(5) -0.1113(8)
F2 F 0.0619(2) 0.0299(3) -0.0927(5)
C7 C -0.0193(3) 0.1411(7) -0.1885(9)
H3 H -0.0416(3) 0.0808(7) -0.2261(9)
O4 O 0.2474(2) 0.3995(3) 0.2618(5)
O5 O 0.2578(2) 0.4444(3) 0.5343(4)
C8 C 0.2563(2) 0.4663(4) 0.3818(6)
C9 C 0.2638(3) 0.5840(4) 0.3365(6)
C10 C 0.2178(3) 0.6436(5) 0.2512(7)
F3 F 0.1661(2) 0.5908(4) 0.2015(5)
C11 C 0.2222(4) 0.7515(6) 0.2189(10)
H4 H 0.1906(4) 0.7884(6) 0.1612(10)
C12 C 0.2750(5) 0.8052(6) 0.2742(10)
H5 H 0.2787(5) 0.8793(6) 0.2543(10)
C13 C 0.3214(4) 0.7513(6) 0.3572(10)
H6 H 0.3569(4) 0.7877(6) 0.3935(10)
C14 C 0.3149(3) 0.6415(5) 0.3866(7)
F4 F 0.3601(2) 0.5875(4) 0.4671(5)
O6 O 0.3123(2) 0.2287(3) 0.5214(5)
O7 O 0.3470(2) 0.1136(4) 0.3384(5)
C15 C 0.3537(3) 0.1639(5) 0.4723(7)
C16 C 0.4109(3) 0.1484(5) 0.5767(7)
C17 C 0.4302(3) 0.0478(6) 0.6316(9)
F5 F 0.3934(2) -0.0377(4) 0.5988(6)
C18 C 0.4851(4) 0.0325(8) 0.7167(11)
H7 H 0.4962(4) -0.0364(8) 0.7549(11)
C19 C 0.5237(4) 0.1180(10) 0.7459(11)
H8 H 0.5615(4) 0.1070(10) 0.8015(11)
C20 C 0.5070(4) 0.2196(8) 0.6940(11)
H9 H 0.5335(4) 0.2781(8) 0.7123(11)
C21 C 0.4509(3) 0.2344(6) 0.6148(9)
F6 F 0.4343(2) 0.3331(3) 0.5574(7)
H10 H 0.2053 0.0280 0.5348
H11 H 0.2004 0.0000 0.3571
O2C O 0.1799(2) 0.2449(3) 0.4822(4)
O5C O 0.2578(2) 0.0556(3) 0.0343(4)
O6C O 0.3123(2) 0.2713(3) 0.0214(5)
Pr1C Pr 0.247320(15) 0.30312(2) -0.25861(3)
Pr1C_2 Pr 0.247320(15) 0.30312(2) 0.74139(3)
loop_
_geom_bond_atom_site_label_1
_geom_bond_atom_site_label_2
_geom_bond_site_symmetry_1
_geom_bond_site_symmetry_2
Pr1 O1 1_555 1_555
O1 H10 1_555 1_555
O2 Pr1 1_555 1_555
C1 O2 1_555 1_555
O3 Pr1 1_555 1_555
C2 C1 1_555 1_555
C3 C2 1_555 1_555
F1 C3 1_555 1_555
C4 C3 1_555 1_555
H1 C4 1_555 1_555
C5 C4 1_555 1_555
H2 C5 1_555 1_555
C6 C2 1_555 1_555
F2 C6 1_555 1_555
C7 C5 1_555 1_555
H3 C7 1_555 1_555
O4 Pr1 1_555 1_555
O5 C8 1_555 1_555
C8 O4 1_555 1_555
C9 C8 1_555 1_555
C10 C9 1_555 1_555
F3 C10 1_555 1_555
C11 C10 1_555 1_555
H4 C11 1_555 1_555
C12 C11 1_555 1_555
H5 C12 1_555 1_555
C13 C12 1_555 1_555
H6 C13 1_555 1_555
C14 C9 1_555 1_555
F4 C14 1_555 1_555
O6 Pr1 1_555 1_555
O7 Pr1 1_555 1_555
C15 O6 1_555 1_555
C16 C15 1_555 1_555
C17 C16 1_555 1_555
F5 C17 1_555 1_555
C18 C17 1_555 1_555
H7 C18 1_555 1_555
C19 C18 1_555 1_555
H8 C19 1_555 1_555
C20 C19 1_555 1_555
H9 C20 1_555 1_555
C21 C16 1_555 1_555
F6 C21 1_555 1_555
H11 O1 1_555 1_555
O2C Pr1 1_555 1_555
O5C Pr1 1_555 1_555
O6C Pr1 1_555 1_555
Pr1C O2 1_555 1_555
Pr1C_2 O5 1_555 1_555
C1 O3 1_555 1_555
C6 C7 1_555 1_555
C13 C14 1_555 1_555
O6 Pr1C_2 1_555 1_555
O7 C15 1_555 1_555
C20 C21 1_555 1_555
O2C Pr1C_2 1_555 1_555
O6C Pr1C 1_555 1_555

#END
