
#######################################################################
#
#                 Cambridge Crystallographic Data Centre
#                                CCDC 
#
#######################################################################
#
# If this CIF has been generated from an entry in the Cambridge 
# Structural Database, then it will include bibliographic, chemical, 
# crystal, experimental, refinement or atomic coordinate data resulting 
# from the CCDC's data processing and validation procedures.
#
#######################################################################

data_TELMII01
_symmetry_cell_setting           orthorhombic
_symmetry_space_group_name_H-M   'P 21 21 21'
_symmetry_Int_Tables_number      19
_space_group_name_Hall           'P 2ac 2ab'
loop_
_symmetry_equiv_pos_site_id
_symmetry_equiv_pos_as_xyz
1 x,y,z
2 1/2-x,-y,1/2+z
3 -x,1/2+y,1/2-z
4 1/2+x,1/2-y,-z
_cell_length_a                   6.8979(5)
_cell_length_b                   14.3515(10)
_cell_length_c                   14.5164(10)
_cell_angle_alpha                90
_cell_angle_beta                 90
_cell_angle_gamma                90
_cell_volume                     1437.05
loop_
_atom_site_label
_atom_site_type_symbol
_atom_site_fract_x
_atom_site_fract_y
_atom_site_fract_z
K1 K 0.39665(6) 0.29919(3) 0.56874(3)
C1 C 0.5457(3) 0.06179(13) 0.89450(13)
C2 C 0.5462(3) 0.10606(14) 0.98621(13)
C3 C 0.5414(3) 0.20387(14) 0.99429(12)
C4 C 0.5344(3) 0.26125(13) 0.91518(13)
C5 C 0.5257(3) 0.21839(12) 0.82241(13)
C6 C 0.5546(3) 0.05137(13) 1.06446(15)
H1 H 0.5584 -0.0146 1.0591
C7 C 0.5577(3) 0.09312(14) 1.15175(13)
H2 H 0.5650 0.0549 1.2051
C8 C 0.5504(3) 0.18792(14) 1.16152(13)
H3 H 0.5511 0.2147 1.2214
C9 C 0.5417(3) 0.24626(13) 1.08292(13)
C10 C 0.5356(3) 0.34488(14) 1.08825(14)
H4 H 0.5343 0.3742 1.1469
C11 C 0.5318(3) 0.39846(14) 1.01065(14)
H5 H 0.5290 0.4644 1.0158
C12 C 0.5319(3) 0.35635(13) 0.92271(14)
H6 H 0.5304 0.3940 0.8689
C13 C 0.5320(3) 0.07899(13) 0.72496(13)
H7 H 0.5730 0.0126 0.7323
C14 C 0.3250(3) 0.07695(14) 0.68905(14)
H8 H 0.2444 0.0394 0.7305
H9 H 0.3232 0.0495 0.6272
H10 H 0.2739 0.1406 0.6863
C15 C 0.6830(3) 0.12535(13) 0.66108(13)
C16 C 0.4056(3) 0.15276(13) 0.39003(14)
H11 H 0.4881 0.0980 0.3802
H12 H 0.3160 0.1595 0.3381
H13 H 0.3316 0.1449 0.4471
N1 N 0.5378(2) 0.12111(11) 0.81801(11)
O1 O 0.5518(2) -0.02214(9) 0.88365(10)
O2 O 0.5068(2) 0.26349(9) 0.75221(9)
O3 O 0.63619(19) 0.14316(9) 0.58035(8)
O4 O 0.84832(19) 0.13754(9) 0.69718(9)
O5 O 0.5231(2) 0.23354(10) 0.39675(10)
H14 H 0.473(4) 0.2819(19) 0.3667(19)
K1B K 0.60335(6) -0.20081(3) 0.93126(3)
K1C K 0.89665(6) 0.20081(3) 0.43126(3)
O1B O 0.4482(2) 0.47786(9) 0.61635(10)
O3C O 0.13619(19) 0.35684(9) 0.41965(8)
O5C O 0.0231(2) 0.26646(10) 0.60325(10)
loop_
_geom_bond_atom_site_label_1
_geom_bond_atom_site_label_2
_geom_bond_site_symmetry_1
_geom_bond_site_symmetry_2
K1 O2 1_555 1_555
C1 C2 1_555 1_555
C2 C3 1_555 1_555
C3 C4 1_555 1_555
C4 C5 1_555 1_555
C5 N1 1_555 1_555
C6 C2 1_555 1_555
H1 C6 1_555 1_555
C7 C6 1_555 1_555
H2 C7 1_555 1_555
C8 C7 1_555 1_555
H3 C8 1_555 1_555
C9 C3 1_555 1_555
C10 C9 1_555 1_555
H4 C10 1_555 1_555
C11 C10 1_555 1_555
H5 C11 1_555 1_555
C12 C4 1_555 1_555
H6 C12 1_555 1_555
C13 H7 1_555 1_555
C14 C13 1_555 1_555
H8 C14 1_555 1_555
H9 C14 1_555 1_555
H10 C14 1_555 1_555
C15 C13 1_555 1_555
C16 H11 1_555 1_555
H12 C16 1_555 1_555
H13 C16 1_555 1_555
N1 C1 1_555 1_555
O1 C1 1_555 1_555
O2 C5 1_555 1_555
O3 K1 1_555 1_555
O4 C15 1_555 1_555
O5 K1 1_555 1_555
H14 O5 1_555 1_555
K1B O1 1_555 1_555
K1C O3 1_555 1_555
O1B K1 1_555 1_555
O3C K1 1_555 1_555
O5C K1 1_555 1_555
C8 C9 1_555 1_555
C11 C12 1_555 1_555
C13 N1 1_555 1_555
C15 O3 1_555 1_555
C16 O5 1_555 1_555
O5 K1C 1_555 1_555

#END
