
#######################################################################
#
#                 Cambridge Crystallographic Data Centre
#                                CCDC 
#
#######################################################################
#
# If this CIF has been generated from an entry in the Cambridge 
# Structural Database, then it will include bibliographic, chemical, 
# crystal, experimental, refinement or atomic coordinate data resulting 
# from the CCDC's data processing and validation procedures.
#
#######################################################################

data_TEMPIM
_symmetry_cell_setting           orthorhombic
_symmetry_space_group_name_H-M   'P b c a'
_symmetry_Int_Tables_number      61
_space_group_name_Hall           '-P 2ac 2ab'
loop_
_symmetry_equiv_pos_site_id
_symmetry_equiv_pos_as_xyz
1 x,y,z
2 1/2-x,-y,1/2+z
3 1/2+x,1/2-y,-z
4 -x,1/2+y,1/2-z
5 -x,-y,-z
6 1/2+x,y,1/2-z
7 1/2-x,1/2+y,z
8 x,1/2-y,1/2+z
_cell_length_a                   11.2757(2)
_cell_length_b                   10.1540(2)
_cell_length_c                   31.0566(7)
_cell_angle_alpha                90
_cell_angle_beta                 90
_cell_angle_gamma                90
_cell_volume                     3555.78
loop_
_atom_site_label
_atom_site_type_symbol
_atom_site_fract_x
_atom_site_fract_y
_atom_site_fract_z
Cu1 Cu 0.35371(2) 0.24625(2) 0.112412(8)
O1 O 0.23252(13) 0.13722(15) 0.08323(5)
C1 C 0.28133(19) -0.0319(2) 0.13505(6)
O2 O 0.16830(13) -0.06577(16) 0.07053(5)
O3 O 0.26326(14) -0.15067(16) 0.14554(5)
O4 O 0.34192(12) 0.04691(17) 0.15591(5)
C2 C 0.22243(17) 0.0165(2) 0.09221(7)
C3 C 0.5867(2) 0.2775(3) 0.13317(7)
C4 C 0.5807(2) 0.1739(2) 0.09681(7)
O5 O 0.48797(14) 0.32758(17) 0.14391(5)
O6 O 0.47911(13) 0.15692(17) 0.08012(5)
O7 O 0.68416(16) 0.3028(2) 0.14939(6)
O8 O 0.67143(15) 0.1161(2) 0.08591(7)
Cu1F Cu 0.14629(2) -0.25375(2) 0.112412(8)
O2F O 0.33170(13) 0.43423(16) 0.07053(5)
O3F O 0.23674(14) 0.34933(16) 0.14554(5)
N1 N 0.44107(17) 0.2262(2) -0.04265(6)
C5 C 0.4387(3) 0.2216(3) -0.09063(8)
H1 H 0.4374 0.1316 -0.1
H2 H 0.5082 0.2644 -0.1018
H3 H 0.3691 0.266 -0.101
C6 C 0.3332(2) 0.1589(3) -0.02492(9)
H4 H 0.3322 0.0688 -0.0343
H5 H 0.2633 0.2029 -0.0351
H6 H 0.3352 0.162 0.006
C7 C 0.5496(2) 0.1553(3) -0.02771(8)
H7 H 0.5467 0.0656 -0.0374
H8 H 0.553 0.1573 0.0032
H9 H 0.6187 0.1975 -0.0393
C8 C 0.4432(3) 0.3639(3) -0.02801(10)
H10 H 0.4446 0.3663 0.0029
H11 H 0.3737 0.4086 -0.0383
H12 H 0.5127 0.4068 -0.0391
N2 N 0.47042(17) 0.72333(19) 0.22835(6)
C9 C 0.4221(2) 0.6186(3) 0.19984(9)
H13 H 0.3734 0.56 0.2164
H14 H 0.4864 0.5701 0.1872
H15 H 0.3753 0.6581 0.1775
C10 C 0.5455(2) 0.8140(3) 0.20249(8)
H16 H 0.5764 0.8821 0.2208
H17 H 0.4986 0.8529 0.18
H18 H 0.61 0.7656 0.19
C11 C 0.3699(2) 0.8008(3) 0.24736(9)
H19 H 0.3206 0.7434 0.2642
H20 H 0.3238 0.8393 0.2246
H21 H 0.4011 0.8692 0.2654
C12 C 0.5431(2) 0.6640(3) 0.26370(8)
H22 H 0.4945 0.6057 0.2805
H23 H 0.5736 0.7327 0.2818
H24 H 0.6079 0.6154 0.2515
O9 O 0.74226(19) 0.5442(2) 0.18618(6)
H25 H 0.723(3) 0.469(3) 0.1722(9)
H26 H 0.760(3) 0.604(3) 0.1647(9)
loop_
_geom_bond_atom_site_label_1
_geom_bond_atom_site_label_2
_geom_bond_site_symmetry_1
_geom_bond_site_symmetry_2
Cu1 O1 1_555 1_555
O1 C2 1_555 1_555
C1 O3 1_555 1_555
O2 C2 1_555 1_555
O3 Cu1F 1_555 1_555
O4 Cu1 1_555 1_555
C2 C1 1_555 1_555
C3 C4 1_555 1_555
C4 O6 1_555 1_555
O5 Cu1 1_555 1_555
O6 Cu1 1_555 1_555
O7 C3 1_555 1_555
O8 C4 1_555 1_555
N1 C5 1_555 1_555
C5 H1 1_555 1_555
H2 C5 1_555 1_555
H3 C5 1_555 1_555
C6 N1 1_555 1_555
H4 C6 1_555 1_555
H5 C6 1_555 1_555
H6 C6 1_555 1_555
C7 N1 1_555 1_555
H7 C7 1_555 1_555
H8 C7 1_555 1_555
H9 C7 1_555 1_555
C8 N1 1_555 1_555
H10 C8 1_555 1_555
H11 C8 1_555 1_555
H12 C8 1_555 1_555
N2 C9 1_555 1_555
C9 H13 1_555 1_555
H14 C9 1_555 1_555
H15 C9 1_555 1_555
C10 N2 1_555 1_555
H16 C10 1_555 1_555
H17 C10 1_555 1_555
H18 C10 1_555 1_555
C11 N2 1_555 1_555
H19 C11 1_555 1_555
H20 C11 1_555 1_555
H21 C11 1_555 1_555
C12 N2 1_555 1_555
H22 C12 1_555 1_555
H23 C12 1_555 1_555
H24 C12 1_555 1_555
O9 H25 1_555 1_555
H26 O9 1_555 1_555
Cu1F O2 1_555 1_555
O2F Cu1 1_555 1_555
O3F Cu1 1_555 1_555
C1 O4 1_555 1_555
C3 O5 1_555 1_555

#END
