
#######################################################################
#
#                 Cambridge Crystallographic Data Centre
#                                CCDC 
#
#######################################################################
#
# If this CIF has been generated from an entry in the Cambridge 
# Structural Database, then it will include bibliographic, chemical, 
# crystal, experimental, refinement or atomic coordinate data resulting 
# from the CCDC's data processing and validation procedures.
#
#######################################################################

data_TEMPEI
_symmetry_cell_setting           monoclinic
_symmetry_space_group_name_H-M   'C 2/c'
_symmetry_Int_Tables_number      15
_space_group_name_Hall           '-C 2yn'
loop_
_symmetry_equiv_pos_site_id
_symmetry_equiv_pos_as_xyz
1 x,y,z
2 -x,y,1/2-z
3 1/2+x,1/2+y,z
4 1/2-x,1/2+y,1/2-z
5 -x,-y,-z
6 x,-y,1/2+z
7 1/2-x,1/2-y,-z
8 1/2+x,1/2-y,1/2+z
_cell_length_a                   22.5641(9)
_cell_length_b                   37.1408(15)
_cell_length_c                   30.0021(11)
_cell_angle_alpha                90
_cell_angle_beta                 105.6860(10)
_cell_angle_gamma                90
_cell_volume                     24206.8
loop_
_atom_site_label
_atom_site_type_symbol
_atom_site_fract_x
_atom_site_fract_y
_atom_site_fract_z
C1 C 0.3308(7) 0.0407(4) 0.2925(5)
C2 C 0.3835(6) 0.0647(4) 0.3125(5)
C3 C 0.3780(7) 0.1018(4) 0.3055(6)
H1 H 0.3414 0.1117 0.2857
C4 C 0.4267(8) 0.1243(4) 0.3277(7)
C5 C 0.4801(7) 0.1106(4) 0.3560(6)
C6 C 0.4873(8) 0.0726(5) 0.3617(6)
C7 C 0.4375(7) 0.0504(4) 0.3390(6)
H2 H 0.4415 0.0250 0.3422
C8 C 0.4201(10) 0.1648(5) 0.3199(9)
H3 H 0.3829 0.1698 0.2949
H4 H 0.4561 0.1741 0.3113
H5 H 0.4169 0.1766 0.3484
C9 C 0.5456(10) 0.0578(6) 0.3886(9)
H6 H 0.5552 0.0361 0.3734
H7 H 0.5428 0.0518 0.4198
H8 H 0.5782 0.0757 0.3908
C10 C 0.6718(7) 0.2047(4) 0.4572(5)
C11 C 0.6234(7) 0.1788(4) 0.4314(5)
C12 C 0.5788(8) 0.1672(5) 0.4501(6)
H9 H 0.5803 0.1738 0.4810
C13 C 0.5299(9) 0.1457(5) 0.4248(7)
C14 C 0.5303(8) 0.1343(5) 0.3821(6)
C15 C 0.5772(8) 0.1456(5) 0.3614(6)
C16 C 0.6214(7) 0.1678(5) 0.3876(6)
H10 H 0.6527 0.1761 0.3744
C17 C 0.4840(13) 0.1308(8) 0.4462(10)
H11 H 0.4711 0.1069 0.4332
H12 H 0.5020 0.1287 0.4797
H13 H 0.4482 0.1468 0.4401
C18 C 0.5768(10) 0.1332(7) 0.3141(7)
H14 H 0.6179 0.1363 0.3096
H15 H 0.5653 0.1077 0.3107
H16 H 0.5469 0.1474 0.2910
C19 C 0.1455(7) -0.0393(4) 0.2314(4)
C20 C 0.0915(6) -0.0625(4) 0.2096(4)
C21 C 0.1023(6) -0.0982(4) 0.1981(5)
H17 H 0.1429 -0.1077 0.2065
C22 C 0.0532(6) -0.1195(4) 0.1743(5)
C23 C -0.0051(7) -0.1051(4) 0.1611(5)
C24 C -0.0176(7) -0.0694(4) 0.1736(5)
C25 C 0.0321(6) -0.0494(4) 0.1978(5)
H18 H 0.0252 -0.0256 0.2067
C26 C 0.0663(8) -0.1581(4) 0.1620(7)
H19 H 0.1062 -0.1659 0.1819
H20 H 0.0671 -0.1592 0.1295
H21 H 0.0339 -0.1741 0.1666
C27 C -0.0818(7) -0.0550(5) 0.1609(7)
H22 H -0.0827 -0.0321 0.1768
H23 H -0.1090 -0.0723 0.1702
H24 H -0.0958 -0.0513 0.1274
C28 C -0.1863(7) -0.2009(3) 0.0466(5)
C29 C -0.1418(6) -0.1738(3) 0.0757(5)
C30 C -0.1340(7) -0.1731(4) 0.1232(5)
H25 H -0.1584 -0.1883 0.1365
C31 C -0.0908(7) -0.1503(4) 0.1517(5)
C32 C -0.0567(7) -0.1277(4) 0.1306(5)
C33 C -0.0658(7) -0.1276(4) 0.0834(5)
C34 C -0.1074(6) -0.1514(4) 0.0563(5)
H26 H -0.1121 -0.1523 0.0239
C35 C -0.0825(9) -0.1513(5) 0.2040(6)
H27 H -0.0745 -0.1269 0.2167
H28 H -0.0476 -0.1670 0.2185
H29 H -0.1200 -0.1608 0.2102
C36 C -0.0275(8) -0.1034(5) 0.0607(6)
H30 H -0.0224 -0.0797 0.0757
H31 H -0.0487 -0.1006 0.0277
H32 H 0.0129 -0.1144 0.0640
C37 C 0.2463(7) -0.0088(4) 0.6812(5)
C38 C 0.2477(7) -0.0123(4) 0.6320(5)
C39 C 0.2013(7) -0.0306(4) 0.6002(4)
H33 H 0.1698 -0.0423 0.6104
C40 C 0.2002(8) -0.0322(5) 0.5547(5)
C41 C 0.2466(8) -0.0151(5) 0.5391(5)
C42 C 0.2945(8) 0.0010(5) 0.5705(5)
C43 C 0.2961(8) 0.0021(5) 0.6173(5)
H34 H 0.3302 0.0127 0.6391
C44 C 0.1479(9) -0.0514(6) 0.5206(5)
H35 H 0.1161 -0.0578 0.5359
H36 H 0.1302 -0.0356 0.4943
H37 H 0.1636 -0.0733 0.5096
C45 C 0.3486(9) 0.0171(7) 0.5556(6)
H38 H 0.3488 0.0074 0.5253
H39 H 0.3443 0.0433 0.5537
H40 H 0.3872 0.0108 0.5784
C46 C 0.2350(7) -0.0078(4) 0.3449(4)
C47 C 0.2356(7) -0.0115(4) 0.3951(4)
C48 C 0.2105(7) 0.0161(4) 0.4147(5)
H41 H 0.1908 0.0358 0.3964
C49 C 0.2144(8) 0.0146(5) 0.4628(5)
C50 C 0.2433(8) -0.0147(5) 0.4891(5)
C51 C 0.2678(8) -0.0421(5) 0.4678(5)
C52 C 0.2627(8) -0.0407(5) 0.4206(5)
H42 H 0.2779 -0.0599 0.4060
C53 C 0.1891(10) 0.0452(5) 0.4849(6)
H43 H 0.2170 0.0503 0.5155
H44 H 0.1485 0.0386 0.4884
H45 H 0.1853 0.0667 0.4654
C54 C 0.2970(13) -0.0755(7) 0.4954(7)
H46 H 0.3251 -0.0870 0.4798
H47 H 0.2646 -0.0925 0.4973
H48 H 0.3200 -0.0682 0.5267
C55 C 0.3428(12) -0.0808(7) 0.2566(10)
C56 C 0.4008(11) -0.1374(7) 0.2903(8)
C57 C 0.4292(11) -0.1119(6) 0.2114(8)
C58 C 0.1552(12) 0.0934(7) 0.2699(9)
C59 C 0.1744(11) 0.1637(7) 0.2810(8)
C60 C 0.0928(11) 0.1358(7) 0.2230(9)
C61 C 0.8668(13) 0.2532(7) 0.4198(9)
C62 C 0.9542(11) 0.2928(6) 0.3955(8)
C63 C 0.8779(11) 0.2277(7) 0.3410(8)
N1 N 0.3949(9) -0.1141(5) 0.2541(7)
N2 N 0.1392(9) 0.1365(5) 0.2628(7)
N3 N 0.9049(9) 0.2534(5) 0.3828(7)
O1 O 0.3406(4) 0.0073(3) 0.2957(3)
O2 O 0.2784(4) 0.0549(3) 0.2743(3)
O3 O 0.1981(4) -0.0527(2) 0.2385(3)
O4 O 0.1335(4) -0.0070(2) 0.2411(3)
O5 O 0.2821(4) 0.0135(3) 0.7059(3)
O6 O 0.2063(4) -0.0269(3) 0.6933(3)
O7 O 0.2600(4) -0.0332(2) 0.3279(3)
O8 O 0.2097(5) 0.0195(3) 0.3233(3)
O9 O -0.1761(4) -0.2085(2) 0.0076(3)
O10 O -0.2244(4) -0.2151(3) 0.0640(3)
O11 O 0.7151(4) 0.2124(3) 0.4387(4)
O12 O 0.6661(4) 0.2176(2) 0.4945(3)
O13 O 0.3331(6) -0.0727(3) 0.2754(4)
O14 O 0.1473(6) 0.0750(3) 0.2502(4)
O15 O 0.8291(6) 0.2410(3) 0.4166(4)
Cu1 Cu 0.27527(7) -0.02746(4) 0.26741(5)
Cu2 Cu 0.20144(7) 0.02785(4) 0.25754(5)
Cu3 Cu 0.77892(7) 0.24664(4) 0.46770(5)
O5E O 0.2821(4) -0.0135(3) 0.2059(3)
O6E O 0.2063(4) 0.0269(3) 0.1933(3)
O9E O 0.8239(4) 0.2085(2) 0.5076(3)
O10C O 0.7244(4) 0.2849(3) 0.4360(3)
O12F O 0.8339(4) 0.2824(2) 0.5055(3)
Cu1E Cu 0.27527(7) 0.02746(4) 0.76741(5)
Cu2E Cu 0.20144(7) -0.02785(4) 0.75754(5)
Cu3E Cu -0.22108(7) -0.24664(4) -0.03230(5)
Cu3C Cu -0.27892(7) -0.25336(4) 0.03230(5)
Cu3F Cu 0.72108(7) 0.25336(4) 0.53230(5)
loop_
_geom_bond_atom_site_label_1
_geom_bond_atom_site_label_2
_geom_bond_site_symmetry_1
_geom_bond_site_symmetry_2
C1 C2 1_555 1_555
C2 C3 1_555 1_555
C3 H1 1_555 1_555
C4 C3 1_555 1_555
C5 C4 1_555 1_555
C6 C5 1_555 1_555
C7 C2 1_555 1_555
H2 C7 1_555 1_555
C8 C4 1_555 1_555
H3 C8 1_555 1_555
H4 C8 1_555 1_555
H5 C8 1_555 1_555
C9 C6 1_555 1_555
H6 C9 1_555 1_555
H7 C9 1_555 1_555
H8 C9 1_555 1_555
C10 C11 1_555 1_555
C11 C12 1_555 1_555
C12 H9 1_555 1_555
C13 C12 1_555 1_555
C14 C5 1_555 1_555
C15 C14 1_555 1_555
C16 C11 1_555 1_555
H10 C16 1_555 1_555
C17 C13 1_555 1_555
H11 C17 1_555 1_555
H12 C17 1_555 1_555
H13 C17 1_555 1_555
C18 C15 1_555 1_555
H14 C18 1_555 1_555
H15 C18 1_555 1_555
H16 C18 1_555 1_555
C19 C20 1_555 1_555
C20 C21 1_555 1_555
C21 H17 1_555 1_555
C22 C21 1_555 1_555
C23 C22 1_555 1_555
C24 C23 1_555 1_555
C25 C20 1_555 1_555
H18 C25 1_555 1_555
C26 C22 1_555 1_555
H19 C26 1_555 1_555
H20 C26 1_555 1_555
H21 C26 1_555 1_555
C27 C24 1_555 1_555
H22 C27 1_555 1_555
H23 C27 1_555 1_555
H24 C27 1_555 1_555
C28 C29 1_555 1_555
C29 C30 1_555 1_555
C30 H25 1_555 1_555
C31 C30 1_555 1_555
C32 C23 1_555 1_555
C33 C32 1_555 1_555
C34 C29 1_555 1_555
H26 C34 1_555 1_555
C35 C31 1_555 1_555
H27 C35 1_555 1_555
H28 C35 1_555 1_555
H29 C35 1_555 1_555
C36 C33 1_555 1_555
H30 C36 1_555 1_555
H31 C36 1_555 1_555
H32 C36 1_555 1_555
C37 C38 1_555 1_555
C38 C39 1_555 1_555
C39 H33 1_555 1_555
C40 C39 1_555 1_555
C41 C40 1_555 1_555
C42 C41 1_555 1_555
C43 C38 1_555 1_555
H34 C43 1_555 1_555
C44 C40 1_555 1_555
H35 C44 1_555 1_555
H36 C44 1_555 1_555
H37 C44 1_555 1_555
C45 C42 1_555 1_555
H38 C45 1_555 1_555
H39 C45 1_555 1_555
H40 C45 1_555 1_555
C46 C47 1_555 1_555
C47 C48 1_555 1_555
C48 H41 1_555 1_555
C49 C48 1_555 1_555
C50 C41 1_555 1_555
C51 C50 1_555 1_555
C52 C47 1_555 1_555
H42 C52 1_555 1_555
C53 C49 1_555 1_555
H43 C53 1_555 1_555
H44 C53 1_555 1_555
H45 C53 1_555 1_555
C54 C51 1_555 1_555
H46 C54 1_555 1_555
H47 C54 1_555 1_555
H48 C54 1_555 1_555
C55 N1 1_555 1_555
C56 N1 1_555 1_555
C57 N1 1_555 1_555
C58 N2 1_555 1_555
C59 N2 1_555 1_555
C60 N2 1_555 1_555
C61 N3 1_555 1_555
C62 N3 1_555 1_555
C63 N3 1_555 1_555
O1 C1 1_555 1_555
O2 C1 1_555 1_555
O3 C19 1_555 1_555
O4 C19 1_555 1_555
O5 C37 1_555 1_555
O6 C37 1_555 1_555
O7 C46 1_555 1_555
O8 C46 1_555 1_555
O9 C28 1_555 1_555
O10 C28 1_555 1_555
O11 C10 1_555 1_555
O12 C10 1_555 1_555
O13 C55 1_555 1_555
O14 C58 1_555 1_555
O15 C61 1_555 1_555
Cu1 O1 1_555 1_555
Cu2 O2 1_555 1_555
Cu3 O11 1_555 1_555
O5E Cu1 1_555 1_555
O6E Cu2 1_555 1_555
O9E Cu3 1_555 1_555
O10C Cu3 1_555 1_555
O12F Cu3 1_555 1_555
Cu1E O5 1_555 1_555
Cu2E O6 1_555 1_555
Cu3E O9 1_555 1_555
Cu3C O10 1_555 1_555
Cu3F O12 1_555 1_555
C6 C7 1_555 1_555
C13 C14 1_555 1_555
C15 C16 1_555 1_555
C24 C25 1_555 1_555
C31 C32 1_555 1_555
C33 C34 1_555 1_555
C42 C43 1_555 1_555
C49 C50 1_555 1_555
C51 C52 1_555 1_555
O3 Cu1 1_555 1_555
O4 Cu2 1_555 1_555
O7 Cu1 1_555 1_555
O8 Cu2 1_555 1_555
O13 Cu1 1_555 1_555
O14 Cu2 1_555 1_555
O15 Cu3 1_555 1_555
Cu1 Cu2 1_555 1_555
Cu3 Cu3F 1_555 1_555
Cu1E Cu2E 1_555 1_555
Cu3E Cu3C 1_555 1_555

#END
