
#######################################################################
#
#                 Cambridge Crystallographic Data Centre
#                                CCDC 
#
#######################################################################
#
# If this CIF has been generated from an entry in the Cambridge 
# Structural Database, then it will include bibliographic, chemical, 
# crystal, experimental, refinement or atomic coordinate data resulting 
# from the CCDC's data processing and validation procedures.
#
#######################################################################

data_TEMSUB
_symmetry_cell_setting           monoclinic
_symmetry_space_group_name_H-M   'P 21/c'
_symmetry_Int_Tables_number      14
_space_group_name_Hall           '-P 2ybc'
loop_
_symmetry_equiv_pos_site_id
_symmetry_equiv_pos_as_xyz
1 x,y,z
2 -x,1/2+y,1/2-z
3 -x,-y,-z
4 x,1/2-y,1/2+z
_cell_length_a                   7.8817(11)
_cell_length_b                   14.220(3)
_cell_length_c                   9.2313(13)
_cell_angle_alpha                90
_cell_angle_beta                 108.464(16)
_cell_angle_gamma                90
_cell_volume                     981.364
loop_
_atom_site_label
_atom_site_type_symbol
_atom_site_fract_x
_atom_site_fract_y
_atom_site_fract_z
Cu1 Cu 0.0000 0.0000 0.0000
Cu2 Cu -0.5000 0.5000 0.0000
S1 S -0.02386(16) 0.15377(6) -0.07119(14)
S2 S -0.24464(15) 0.01266(7) 0.07664(13)
C1 C -0.1927(5) 0.1919(2) -0.0035(4)
C2 C -0.2314(6) 0.2906(3) -0.0099(4)
C3 C -0.2861(5) 0.1324(2) 0.0584(4)
C4 C -0.4252(6) 0.1693(2) 0.1116(4)
C5 C -0.2223(6) 0.6078(3) -0.0571(5)
H1 H -0.1901 0.6622 -0.1063
H2 H -0.1401 0.5572 -0.0577
C6 C -0.2110(6) 0.6315(3) 0.1034(5)
H3 H -0.0869 0.6392 0.1653
H4 H -0.2735 0.6899 0.1056
N1 N -0.2628(5) 0.3692(2) -0.0121(4)
N2 N -0.5336(5) 0.1993(2) 0.1557(4)
N3 N -0.2932(5) 0.5542(2) 0.1647(4)
H5 H -0.3310 0.5760 0.2407
H6 H -0.2114 0.5090 0.2032
N4 N -0.4074(4) 0.5789(2) -0.1400(3)
H7 H -0.4098 0.5455 -0.2234
H8 H -0.4769 0.6300 -0.1703
Cu2_2 Cu 0.5000 -0.5000 0.0000
S1B S 0.02386(16) -0.15377(6) 0.07119(14)
S2B S 0.24464(15) -0.01266(7) -0.07664(13)
C1B C 0.1927(5) -0.1919(2) 0.0035(4)
C2B C 0.2314(6) -0.2906(3) 0.0099(4)
C3B C 0.2861(5) -0.1324(2) -0.0584(4)
C4B C 0.4252(6) -0.1693(2) -0.1116(4)
C5B C -0.7777(6) 0.3922(3) 0.0571(5)
H1B H -0.8099 0.3378 0.1063
H2B H -0.8599 0.4428 0.0577
C6B C -0.7890(6) 0.3685(3) -0.1034(5)
H3B H -0.9131 0.3608 -0.1653
H4B H -0.7265 0.3101 -0.1056
N1B N 0.2628(5) -0.3692(2) 0.0121(4)
N1B_2 N -0.7372(5) 0.6308(2) 0.0121(4)
N2B N 0.5336(5) -0.1993(2) -0.1557(4)
N3B N -0.7068(5) 0.4458(2) -0.1647(4)
H5B H -0.6690 0.4240 -0.2407
H6B H -0.7886 0.4910 -0.2032
N4B N -0.5926(4) 0.4211(2) 0.1400(3)
H7B H -0.5902 0.4545 0.2234
H8B H -0.5231 0.3700 0.1703
loop_
_geom_bond_atom_site_label_1
_geom_bond_atom_site_label_2
_geom_bond_site_symmetry_1
_geom_bond_site_symmetry_2
Cu1 S1 1_555 1_555
Cu2 N1 1_555 1_555
S1 C1 1_555 1_555
S2 Cu1 1_555 1_555
C1 C2 1_555 1_555
C2 N1 1_555 1_555
C3 S2 1_555 1_555
C4 C3 1_555 1_555
C5 H1 1_555 1_555
H2 C5 1_555 1_555
C6 C5 1_555 1_555
H3 C6 1_555 1_555
H4 C6 1_555 1_555
N2 C4 1_555 1_555
N3 Cu2 1_555 1_555
H5 N3 1_555 1_555
H6 N3 1_555 1_555
N4 Cu2 1_555 1_555
H7 N4 1_555 1_555
H8 N4 1_555 1_555
Cu2_2 N1B 1_555 1_555
S1B Cu1 1_555 1_555
S2B Cu1 1_555 1_555
C1B S1B 1_555 1_555
C2B C1B 1_555 1_555
C3B S2B 1_555 1_555
C4B C3B 1_555 1_555
C5B H1B 1_555 1_555
H2B C5B 1_555 1_555
C6B C5B 1_555 1_555
H3B C6B 1_555 1_555
H4B C6B 1_555 1_555
N1B C2B 1_555 1_555
N1B_2 Cu2 1_555 1_555
N2B C4B 1_555 1_555
N3B Cu2 1_555 1_555
H5B N3B 1_555 1_555
H6B N3B 1_555 1_555
N4B Cu2 1_555 1_555
H7B N4B 1_555 1_555
H8B N4B 1_555 1_555
C1 C3 1_555 1_555
C5 N4 1_555 1_555
C6 N3 1_555 1_555
C1B C3B 1_555 1_555
C5B N4B 1_555 1_555
C6B N3B 1_555 1_555

#END
