
#######################################################################
#
#                 Cambridge Crystallographic Data Centre
#                                CCDC 
#
#######################################################################
#
# If this CIF has been generated from an entry in the Cambridge 
# Structural Database, then it will include bibliographic, chemical, 
# crystal, experimental, refinement or atomic coordinate data resulting 
# from the CCDC's data processing and validation procedures.
#
#######################################################################

data_TEMTOW
_symmetry_cell_setting           orthorhombic
_symmetry_space_group_name_H-M   'P m n n'
_symmetry_Int_Tables_number      58
_space_group_name_Hall           '-P 2n 2'
loop_
_symmetry_equiv_pos_site_id
_symmetry_equiv_pos_as_xyz
1 x,y,z
2 1/2-x,1/2-y,1/2+z
3 x,-y,-z
4 1/2-x,1/2+y,1/2-z
5 -x,-y,-z
6 1/2+x,1/2+y,1/2-z
7 -x,y,z
8 1/2+x,1/2-y,1/2+z
_cell_length_a                   7.5823(19)
_cell_length_b                   6.863(5)
_cell_length_c                   21.039(14)
_cell_angle_alpha                90
_cell_angle_beta                 90
_cell_angle_gamma                90
_cell_volume                     1094.81
loop_
_atom_site_label
_atom_site_type_symbol
_atom_site_fract_x
_atom_site_fract_y
_atom_site_fract_z
Zn1 Zn 0.5000 0.73928(9) 0.71159(3)
N1 N 0.5000 0.5288(6) 0.6368(2)
O1 O 0.5000 0.9654(6) 0.78086(18)
O2 O 0.7813(3) 0.3701(4) 0.83504(11)
O3 O 0.6872(3) 0.5819(4) 0.76318(11)
C1 C 0.6685(4) 0.4848(5) 0.81362(16)
C2 C 0.5000 0.5167(8) 0.8526(2)
H1 H 0.5000 0.6548 0.8644
C3 C 0.5000 0.4048(10) 0.9142(3)
H2 H 0.6073 0.4306 0.9369
H3 H 0.5000 0.2679 0.9053
C4 C 0.6502(5) 0.4594(6) 0.61259(18)
H4 H 0.7565 0.5039 0.6292
C5 C 0.5000 0.1038(8) 0.4866(3)
H5 H 0.6035 0.1221 0.4602
C6 C 0.6543(5) 0.3247(6) 0.56410(19)
H6 H 0.7622 0.2818 0.5484
C7 C 0.5000 0.2528(8) 0.5386(2)
H7 H 0.592(4) 1.037(6) 0.769(2)
Zn1B Zn 0.5000 -0.73928(9) 0.28841(3)
Zn1A Zn 0.0000 -0.23928(9) 0.21159(3)
Zn1A_2 Zn 1.0000 -0.23928(9) 0.21159(3)
Zn1C Zn 0.0000 0.23928(9) 0.78841(3)
Zn1C_2 Zn 1.0000 0.23928(9) 0.78841(3)
N1B N 0.5000 -0.5288(6) 0.3632(2)
O1B O 0.5000 -0.9654(6) 0.21914(18)
O2F O 0.2187(3) 0.3701(4) 0.83504(11)
O2B O 0.7813(3) -0.3701(4) 0.16496(11)
O2D O 0.2187(3) -0.3701(4) 0.16496(11)
O2A O 0.7187(3) -0.8701(4) 0.33504(11)
O2C O 0.7187(3) 0.8701(4) 0.66496(11)
O2E O 0.2813(3) 0.8701(4) 0.66496(11)
O2G O 0.2813(3) -0.8701(4) 0.33504(11)
O3F O 0.3128(3) 0.5819(4) 0.76318(11)
O3B O 0.6872(3) -0.5819(4) 0.23682(11)
O3D O 0.3128(3) -0.5819(4) 0.23682(11)
C1F C 0.3315(4) 0.4848(5) 0.81362(16)
C1B C 0.6685(4) -0.4848(5) 0.18638(16)
C1D C 0.3315(4) -0.4848(5) 0.18638(16)
C2B C 0.5000 -0.5167(8) 0.1474(2)
H1B H 0.5000 -0.6548 0.1356
C3B C 0.5000 -0.4048(10) 0.0858(3)
H2F H 0.3927 0.4306 0.9369
H2B H 0.6073 -0.4306 0.0631
H2D H 0.3927 -0.4306 0.0631
H3B H 0.5000 -0.2679 0.0947
C4B C 0.6502(5) -0.4594(6) 0.38741(18)
C4D C 0.3498(5) -0.4594(6) 0.38741(18)
C4F C 0.3498(5) 0.4594(6) 0.61259(18)
H4B H 0.7565 -0.5039 0.3708
H4D H 0.2435 -0.5039 0.3708
H4F H 0.2435 0.5039 0.6292
C5B C 0.5000 -0.1038(8) 0.5134(3)
H5B H 0.6035 -0.1221 0.5398
H5D H 0.3965 -0.1221 0.5398
H5F H 0.3965 0.1221 0.4602
C6B C 0.6543(5) -0.3247(6) 0.43590(19)
C6D C 0.3457(5) -0.3247(6) 0.43590(19)
C6F C 0.3457(5) 0.3247(6) 0.56410(19)
H6B H 0.7622 -0.2818 0.4516
H6D H 0.2378 -0.2818 0.4516
H6F H 0.2378 0.2818 0.5484
C7B C 0.5000 -0.2528(8) 0.4614(2)
H7F H 0.408(4) 1.037(6) 0.769(2)
H7B H 0.592(4) -1.037(6) 0.231(2)
H7D H 0.408(4) -1.037(6) 0.231(2)
loop_
_geom_bond_atom_site_label_1
_geom_bond_atom_site_label_2
_geom_bond_site_symmetry_1
_geom_bond_site_symmetry_2
Zn1 N1 1_555 1_555
N1 C4 1_555 1_555
O1 Zn1 1_555 1_555
O2 C1 1_555 1_555
O3 Zn1 1_555 1_555
C1 O3 1_555 1_555
C2 C1 1_555 1_555
H1 C2 1_555 1_555
C3 C2 1_555 1_555
H2 C3 1_555 1_555
H3 C3 1_555 1_555
C4 H4 1_555 1_555
C5 H5 1_555 1_555
C6 C4 1_555 1_555
H6 C6 1_555 1_555
C7 C5 1_555 1_555
H7 O1 1_555 1_555
Zn1B N1B 1_555 1_555
Zn1A O2D 1_555 1_555
Zn1A_2 O2B 1_555 1_555
Zn1C O2F 1_555 1_555
Zn1C_2 O2 1_555 1_555
N1B C4B 1_555 1_555
O1B Zn1B 1_555 1_555
O2F C1F 1_555 1_555
O2B C1B 1_555 1_555
O2D C1D 1_555 1_555
O2A Zn1B 1_555 1_555
O2C Zn1 1_555 1_555
O2E Zn1 1_555 1_555
O2G Zn1B 1_555 1_555
O3F Zn1 1_555 1_555
O3B Zn1B 1_555 1_555
O3D Zn1B 1_555 1_555
C1F C2 1_555 1_555
C1B O3B 1_555 1_555
C1D O3D 1_555 1_555
C2B C1B 1_555 1_555
H1B C2B 1_555 1_555
C3B C2B 1_555 1_555
H2F C3 1_555 1_555
H2B C3B 1_555 1_555
H2D C3B 1_555 1_555
H3B C3B 1_555 1_555
C4B H4B 1_555 1_555
C4D N1B 1_555 1_555
C4F N1 1_555 1_555
H4D C4D 1_555 1_555
H4F C4F 1_555 1_555
C5B C5 1_555 1_555
H5B C5B 1_555 1_555
H5D C5B 1_555 1_555
H5F C5 1_555 1_555
C6B C4B 1_555 1_555
C6D C4D 1_555 1_555
C6F C7 1_555 1_555
H6B C6B 1_555 1_555
H6D C6D 1_555 1_555
H6F C6F 1_555 1_555
C7B C5B 1_555 1_555
H7F O1 1_555 1_555
H7B O1B 1_555 1_555
H7D O1B 1_555 1_555
C6 C7 1_555 1_555
O3F C1F 1_555 1_555
C1D C2B 1_555 1_555
C4F C6F 1_555 1_555
C6B C7B 1_555 1_555
C6D C7B 1_555 1_555

#END
