
#######################################################################
#
#                 Cambridge Crystallographic Data Centre
#                                CCDC 
#
#######################################################################
#
# If this CIF has been generated from an entry in the Cambridge 
# Structural Database, then it will include bibliographic, chemical, 
# crystal, experimental, refinement or atomic coordinate data resulting 
# from the CCDC's data processing and validation procedures.
#
#######################################################################

data_TEMTIQ
_symmetry_cell_setting           monoclinic
_symmetry_space_group_name_H-M   'P 21/n'
_symmetry_Int_Tables_number      14
_space_group_name_Hall           '-P 2yn'
loop_
_symmetry_equiv_pos_site_id
_symmetry_equiv_pos_as_xyz
1 x,y,z
2 1/2-x,1/2+y,1/2-z
3 -x,-y,-z
4 1/2+x,1/2-y,1/2+z
_cell_length_a                   7.0598(3)
_cell_length_b                   20.8448(10)
_cell_length_c                   7.4944(3)
_cell_angle_alpha                90
_cell_angle_beta                 92.482(3)
_cell_angle_gamma                90
_cell_volume                     1101.84
loop_
_atom_site_label
_atom_site_type_symbol
_atom_site_fract_x
_atom_site_fract_y
_atom_site_fract_z
Zn1 Zn 0.26549(14) 0.28823(5) 0.46527(13)
N1 N 0.4747(10) 0.3636(3) 0.4870(9)
O1 O 0.4281(9) 0.2364(3) 0.6521(8)
O2 O 0.0493(8) 0.2166(3) 0.4635(7)
O3 O 0.4208(9) 0.2379(3) 0.2729(7)
C1 C 0.4864(12) 0.1467(4) 0.4597(10)
H1 H 0.3516 0.1352 0.4549
C2 C 0.9186(13) 0.5024(4) 0.5382(12)
H2 H 0.8999 0.5379 0.6103
C3 C 0.5186(12) 0.1869(4) 0.2935(11)
C4 C 0.5216(12) 0.1857(4) 0.6308(10)
C5 C 0.5966(14) 0.0836(4) 0.4605(11)
H3 H 0.5711 0.0599 0.5666
H4 H 0.7299 0.0925 0.4582
H5 H 0.5580 0.0588 0.3573
C6 C 0.7616(12) 0.4551(4) 0.5179(11)
C7 C 0.4977(15) 0.3996(6) 0.6300(13)
H6 H 0.4159 0.3937 0.7226
C8 C 0.6375(15) 0.4461(5) 0.6501(13)
H7 H 0.6467 0.4709 0.7532
C9 C 0.7354(16) 0.4189(6) 0.3681(15)
H8 H 0.8148 0.4243 0.2735
C10 C 0.5908(17) 0.3740(6) 0.3557(16)
H9 H 0.5745 0.3502 0.2512
O4 O 0.6311(8) 0.1681(3) 0.1841(8)
O5 O 0.6387(9) 0.1634(3) 0.7477(8)
Zn1B Zn 1.73451(14) 0.71177(5) 0.53473(13)
Zn1A Zn 1.23451(14) 0.78823(5) 0.03473(13)
Zn1A_2 Zn 1.23451(14) 0.78823(5) 1.03473(13)
Zn1C Zn 0.76549(14) 0.21177(5) -0.03473(13)
Zn1C_2 Zn 0.76549(14) 0.21177(5) 0.96527(13)
N1B N 1.5253(10) 0.6364(3) 0.5130(9)
O1B O 1.5719(9) 0.7636(3) 0.3479(8)
O2B O 1.9507(8) 0.7834(3) 0.5365(7)
O3B O 1.5792(9) 0.7621(3) 0.7271(7)
C1B C 1.5136(12) 0.8533(4) 0.5403(10)
H1B H 1.6484 0.8648 0.5451
C2B C 1.0814(13) 0.4976(4) 0.4618(12)
H2B H 1.1001 0.4621 0.3897
C3B C 1.4814(12) 0.8131(4) 0.7065(11)
C4B C 1.4784(12) 0.8143(4) 0.3692(10)
C5B C 1.4034(14) 0.9164(4) 0.5395(11)
H3B H 1.4289 0.9401 0.4334
H4B H 1.2701 0.9075 0.5418
H5B H 1.4420 0.9412 0.6427
C6B C 1.2384(12) 0.5449(4) 0.4821(11)
C7B C 1.5023(15) 0.6004(6) 0.3700(13)
H6B H 1.5841 0.6063 0.2774
C8B C 1.3625(15) 0.5539(5) 0.3499(13)
H7B H 1.3533 0.5291 0.2468
C9B C 1.2646(16) 0.5811(6) 0.6319(15)
H8B H 1.1852 0.5757 0.7265
C10B C 1.4092(17) 0.6260(6) 0.6443(16)
H9B H 1.4255 0.6498 0.7488
O4B O 1.3689(8) 0.8319(3) 0.8159(8)
O4A O 1.8689(8) 0.6681(3) 0.3159(8)
O4C O 0.1311(8) 0.3319(3) 0.6841(8)
O5B O 1.3613(9) 0.8366(3) 0.2523(8)
O5A O 1.8613(9) 0.6634(3) 0.7523(8)
O5C O 0.1387(9) 0.3366(3) 0.2477(8)
loop_
_geom_bond_atom_site_label_1
_geom_bond_atom_site_label_2
_geom_bond_site_symmetry_1
_geom_bond_site_symmetry_2
Zn1 N1 1_555 1_555
N1 C7 1_555 1_555
O1 Zn1 1_555 1_555
O2 Zn1 1_555 1_555
O3 Zn1 1_555 1_555
C1 H1 1_555 1_555
C2 H2 1_555 1_555
C3 O3 1_555 1_555
C4 O1 1_555 1_555
C5 C1 1_555 1_555
H3 C5 1_555 1_555
H4 C5 1_555 1_555
H5 C5 1_555 1_555
C6 C2 1_555 1_555
C7 H6 1_555 1_555
C8 C6 1_555 1_555
H7 C8 1_555 1_555
C9 C6 1_555 1_555
H8 C9 1_555 1_555
C10 N1 1_555 1_555
H9 C10 1_555 1_555
O4 C3 1_555 1_555
O5 C4 1_555 1_555
Zn1B N1B 1_555 1_555
Zn1A O5B 1_555 1_555
Zn1A_2 O4B 1_555 1_555
Zn1C O4 1_555 1_555
Zn1C_2 O5 1_555 1_555
N1B C7B 1_555 1_555
O1B Zn1B 1_555 1_555
O2B Zn1B 1_555 1_555
O3B Zn1B 1_555 1_555
C1B H1B 1_555 1_555
C2B C2 1_555 1_555
H2B C2B 1_555 1_555
C3B O3B 1_555 1_555
C4B O1B 1_555 1_555
C5B C1B 1_555 1_555
H3B C5B 1_555 1_555
H4B C5B 1_555 1_555
H5B C5B 1_555 1_555
C6B C2B 1_555 1_555
C7B H6B 1_555 1_555
C8B C6B 1_555 1_555
H7B C8B 1_555 1_555
C9B C6B 1_555 1_555
H8B C9B 1_555 1_555
C10B N1B 1_555 1_555
H9B C10B 1_555 1_555
O4B C3B 1_555 1_555
O4A Zn1B 1_555 1_555
O4C Zn1 1_555 1_555
O5B C4B 1_555 1_555
O5A Zn1B 1_555 1_555
O5C Zn1 1_555 1_555
C1 C3 1_555 1_555
C1 C4 1_555 1_555
C7 C8 1_555 1_555
C9 C10 1_555 1_555
C1B C3B 1_555 1_555
C1B C4B 1_555 1_555
C7B C8B 1_555 1_555
C9B C10B 1_555 1_555

#END
