
#######################################################################
#
#                 Cambridge Crystallographic Data Centre
#                                CCDC 
#
#######################################################################
#
# If this CIF has been generated from an entry in the Cambridge 
# Structural Database, then it will include bibliographic, chemical, 
# crystal, experimental, refinement or atomic coordinate data resulting 
# from the CCDC's data processing and validation procedures.
#
#######################################################################

data_TENKAA
_symmetry_cell_setting           monoclinic
_symmetry_space_group_name_H-M   'C 2/c'
_symmetry_Int_Tables_number      15
_space_group_name_Hall           '-C 2yn'
loop_
_symmetry_equiv_pos_site_id
_symmetry_equiv_pos_as_xyz
1 x,y,z
2 -x,y,1/2-z
3 1/2+x,1/2+y,z
4 1/2-x,1/2+y,1/2-z
5 -x,-y,-z
6 x,-y,1/2+z
7 1/2-x,1/2-y,-z
8 1/2+x,1/2-y,1/2+z
_cell_length_a                   17.1467(12)
_cell_length_b                   7.2852(4)
_cell_length_c                   22.7305(14)
_cell_angle_alpha                90
_cell_angle_beta                 113.451(8)
_cell_angle_gamma                90
_cell_volume                     2604.89
loop_
_atom_site_label
_atom_site_type_symbol
_atom_site_fract_x
_atom_site_fract_y
_atom_site_fract_z
Co1 Co 0.0000 0.0000 0.5000
N1 N -0.00293(19) 0.3499(4) 0.55695(13)
O1 O 0.03485(15) 0.2694(3) 0.52201(11)
C1 C -0.0880(2) 0.3575(5) 0.53527(16)
C2 C -0.1429(2) 0.2657(5) 0.47221(16)
O2 O -0.20321(18) 0.3574(4) 0.43558(14)
O3 O -0.12555(15) 0.1036(3) 0.46362(10)
C3 C -0.1248(3) 0.4388(6) 0.57309(19)
H1 H -0.1836 0.4483 0.5580
C4 C -0.0743(3) 0.5058(5) 0.6331(2)
H2 H -0.0987 0.5550 0.6596
C5 C 0.0123(3) 0.4985(5) 0.6531(2)
H3 H 0.0472 0.5447 0.6931
C6 C 0.0472(3) 0.4229(6) 0.61393(18)
H4 H 0.1059 0.4220 0.6268
N2 N 0.00419(18) 0.0325(4) 0.40729(13)
C7 C -0.0692(2) 0.0207(5) 0.35498(17)
H5 H -0.1198 0.0144 0.3608
C8 C -0.0732(2) 0.0176(5) 0.29374(16)
H6 H -0.1256 0.0099 0.2593
C9 C 0.0007(2) 0.0258(4) 0.28279(15)
C10 C 0.0766(2) 0.0375(5) 0.33697(16)
H7 H 0.1281 0.0418 0.3324
C11 C 0.0755(2) 0.0425(5) 0.39689(16)
H8 H 0.1270 0.0536 0.4321
Co1A Co 0.0000 0.0000 0.0000
N1D N 0.00293(19) -0.3499(4) 0.44305(13)
O1D O -0.03485(15) -0.2694(3) 0.47799(11)
C1D C 0.0880(2) -0.3575(5) 0.46473(16)
C2D C 0.1429(2) -0.2657(5) 0.52779(16)
O2D O 0.20321(18) -0.3574(4) 0.56442(14)
O3D O 0.12555(15) -0.1036(3) 0.53638(10)
C3D C 0.1248(3) -0.4388(6) 0.42691(19)
H1D H 0.1836 -0.4483 0.4420
C4D C 0.0743(3) -0.5058(5) 0.3669(2)
H2D H 0.0987 -0.5550 0.3404
C5D C -0.0123(3) -0.4985(5) 0.3469(2)
H3D H -0.0472 -0.5447 0.3069
C6D C -0.0472(3) -0.4229(6) 0.38607(18)
H4D H -0.1059 -0.4220 0.3732
N2A N -0.00419(18) 0.0325(4) 0.09271(13)
N2D N -0.00419(18) -0.0325(4) 0.59271(13)
C7A C 0.0692(2) 0.0207(5) 0.14502(17)
H5A H 0.1198 0.0144 0.1392
C8A C 0.0732(2) 0.0176(5) 0.20626(16)
H6A H 0.1256 0.0099 0.2407
C9A C -0.0007(2) 0.0258(4) 0.21721(15)
C10A C -0.0766(2) 0.0375(5) 0.16303(16)
H7A H -0.1281 0.0418 0.1676
C11A C -0.0755(2) 0.0425(5) 0.10311(16)
H8A H -0.1270 0.0536 0.0679
O4 O 0.22903(19) 0.2574(5) 0.59027(16)
H9 H 0.2110 0.3663 0.5712
H10 H 0.1856 0.1776 0.5747
O5 O 0.7017(2) 0.8868(5) 0.28422(16)
H11 H 0.7229 0.8140 0.3190
H12 H 0.7217 0.8414 0.2558
O6 O 0.7350(2) 0.2624(5) 0.30409(14)
H13 H 0.7177 0.1444 0.2960
H14 H 0.7532 0.2836 0.3463
loop_
_geom_bond_atom_site_label_1
_geom_bond_atom_site_label_2
_geom_bond_site_symmetry_1
_geom_bond_site_symmetry_2
Co1 O1 1_555 1_555
N1 O1 1_555 1_555
C1 N1 1_555 1_555
C2 C1 1_555 1_555
O2 C2 1_555 1_555
O3 Co1 1_555 1_555
C3 C1 1_555 1_555
H1 C3 1_555 1_555
C4 C3 1_555 1_555
H2 C4 1_555 1_555
C5 C4 1_555 1_555
H3 C5 1_555 1_555
C6 N1 1_555 1_555
H4 C6 1_555 1_555
N2 Co1 1_555 1_555
C7 N2 1_555 1_555
H5 C7 1_555 1_555
C8 C7 1_555 1_555
H6 C8 1_555 1_555
C9 C8 1_555 1_555
C10 C9 1_555 1_555
H7 C10 1_555 1_555
C11 N2 1_555 1_555
H8 C11 1_555 1_555
O4 H9 1_555 1_555
H10 O4 1_555 1_555
O5 H11 1_555 1_555
H12 O5 1_555 1_555
O6 H13 1_555 1_555
H14 O6 1_555 1_555
Co1A N2A 1_555 1_555
N1D O1D 1_555 1_555
O1D Co1 1_555 1_555
C1D N1D 1_555 1_555
C2D C1D 1_555 1_555
O2D C2D 1_555 1_555
O3D Co1 1_555 1_555
C3D C1D 1_555 1_555
H1D C3D 1_555 1_555
C4D C3D 1_555 1_555
H2D C4D 1_555 1_555
C5D C4D 1_555 1_555
H3D C5D 1_555 1_555
C6D N1D 1_555 1_555
H4D C6D 1_555 1_555
N2A C7A 1_555 1_555
N2D Co1 1_555 1_555
C7A H5A 1_555 1_555
C8A C7A 1_555 1_555
H6A C8A 1_555 1_555
C9A C9 1_555 1_555
C10A C9A 1_555 1_555
H7A C10A 1_555 1_555
C11A N2A 1_555 1_555
H8A C11A 1_555 1_555
C2 O3 1_555 1_555
C5 C6 1_555 1_555
C10 C11 1_555 1_555
C2D O3D 1_555 1_555
C5D C6D 1_555 1_555
C8A C9A 1_555 1_555
C10A C11A 1_555 1_555

#END
