
#######################################################################
#
#                 Cambridge Crystallographic Data Centre
#                                CCDC 
#
#######################################################################
#
# If this CIF has been generated from an entry in the Cambridge 
# Structural Database, then it will include bibliographic, chemical, 
# crystal, experimental, refinement or atomic coordinate data resulting 
# from the CCDC's data processing and validation procedures.
#
#######################################################################

data_TENLIJ
_symmetry_cell_setting           tetragonal
_symmetry_space_group_name_H-M   'I 41/a'
_symmetry_Int_Tables_number      88
_space_group_name_Hall           '-I 4ad'
loop_
_symmetry_equiv_pos_site_id
_symmetry_equiv_pos_as_xyz
1 x,y,z
2 1/2-x,-y,1/2+z
3 3/4-y,1/4+x,1/4+z
4 3/4+y,3/4-x,3/4+z
5 1/2+x,1/2+y,1/2+z
6 -x,1/2-y,z
7 1/4-y,3/4+x,3/4+z
8 1/4+y,1/4-x,1/4+z
9 -x,-y,-z
10 1/2+x,y,1/2-z
11 1/4+y,3/4-x,3/4-z
12 1/4-y,1/4+x,1/4-z
13 1/2-x,1/2-y,1/2-z
14 x,1/2+y,-z
15 3/4+y,1/4-x,1/4-z
16 3/4-y,3/4+x,3/4-z
_cell_length_a                   18.3697(16)
_cell_length_b                   18.3697(16)
_cell_length_c                   23.507(5)
_cell_angle_alpha                90
_cell_angle_beta                 90
_cell_angle_gamma                90
_cell_volume                     7932.34
loop_
_atom_site_label
_atom_site_type_symbol
_atom_site_fract_x
_atom_site_fract_y
_atom_site_fract_z
C1 C 0.3681(3) 0.7811(3) 0.1794(3)
C2 C 0.3494(3) 0.7186(3) 0.2187(2)
C3 C 0.3493(5) 0.7201(5) 0.2770(3)
H1 H 0.3648 0.7618 0.2959
C4 C 0.3267(7) 0.6613(5) 0.3076(4)
H2 H 0.3227 0.6631 0.3470
C5 C 0.3094(5) 0.5966(5) 0.2763(3)
H3 H 0.2963 0.5542 0.2953
C6 C 0.3125(3) 0.5983(3) 0.2187(3)
C7 C 0.2939(3) 0.5371(3) 0.1799(3)
C8 C 0.2111(4) 0.6395(3) 0.0293(3)
H4 H 0.2213 0.5904 0.0350
C9 C 0.1557(4) 0.6572(3) -0.0087(3)
H5 H 0.1288 0.6212 -0.0269
C10 C 0.1421(3) 0.7294(3) -0.0184(2)
C11 C 0.1820(4) 0.7805(3) 0.0109(3)
H6 H 0.1730 0.8301 0.0067
C12 C 0.2351(4) 0.7556(4) 0.0462(3)
H7 H 0.2639 0.7904 0.0640
C13 C 0.0524(3) 0.7060(3) -0.0880(2)
H8 H 0.0256 0.6721 -0.0643
H9 H 0.0858 0.6785 -0.1117
C14 C 0.0000 0.7500 -0.1250
N1 N 0.2495(3) 0.6867(2) 0.0574(2)
N2 N 0.3317(2) 0.6596(2) 0.1918(2)
O1 O 0.3661(2) 0.7695(2) 0.12787(17)
O2 O 0.3853(3) 0.8409(2) 0.20207(18)
O3 O 0.2995(3) 0.5489(2) 0.1274(2)
O4 O 0.2782(3) 0.4770(3) 0.2028(3)
O5 O 0.0910(2) 0.7557(2) -0.05394(19)
Zn1 Zn 0.33361(4) 0.65507(4) 0.10599(3)
C1E C -0.3681(3) 0.7189(3) 0.1794(3)
C1J C 0.0311(3) 0.3819(3) -0.4294(3)
C1O C -0.0311(3) 1.1181(3) -0.4294(3)
C2E C -0.3494(3) 0.7814(3) 0.2187(2)
C2J C -0.0314(3) 0.4006(3) -0.4687(2)
C2O C 0.0314(3) 1.0994(3) -0.4687(2)
C3E C -0.3493(5) 0.7799(5) 0.2770(3)
C3J C -0.0299(5) 0.4007(5) -0.5270(3)
C3O C 0.0299(5) 1.0993(5) -0.5270(3)
H1E H -0.3648 0.7382 0.2959
H1J H 0.0118 0.3852 -0.5459
H1O H -0.0118 1.1148 -0.5459
C4E C -0.3267(7) 0.8387(5) 0.3076(4)
C4J C -0.0887(5) 0.4233(7) -0.5576(4)
C4O C 0.0887(5) 1.0767(7) -0.5576(4)
H2E H -0.3227 0.8369 0.3470
H2J H -0.0869 0.4273 -0.5970
H2O H 0.0869 1.0727 -0.5970
C5E C -0.3094(5) 0.9034(5) 0.2763(3)
C5J C -0.1534(5) 0.4406(5) -0.5263(3)
C5O C 0.1534(5) 1.0594(5) -0.5263(3)
H3E H -0.2963 0.9458 0.2953
H3J H -0.1958 0.4537 -0.5453
H3O H 0.1958 1.0463 -0.5453
C6E C -0.3125(3) 0.9017(3) 0.2187(3)
C6J C -0.1517(3) 0.4375(3) -0.4687(3)
C6O C 0.1517(3) 1.0625(3) -0.4687(3)
C7E C -0.2939(3) 0.9629(3) 0.1799(3)
C7J C -0.2129(3) 0.4561(3) -0.4299(3)
C7O C 0.2129(3) 1.0439(3) -0.4299(3)
C8E C -0.2111(4) 0.8605(3) 0.0293(3)
C8J C -0.1105(3) 0.5389(4) -0.2793(3)
C8O C 0.1105(3) 0.9611(4) -0.2793(3)
H4E H -0.2213 0.9096 0.0350
H4J H -0.1596 0.5287 -0.2850
H4O H 0.1596 0.9713 -0.2850
C9E C -0.1557(4) 0.8428(3) -0.0087(3)
C9J C -0.0928(3) 0.5943(4) -0.2413(3)
C9O C 0.0928(3) 0.9057(4) -0.2413(3)
H5E H -0.1288 0.8788 -0.0269
H5J H -0.1288 0.6212 -0.2231
H5O H 0.1288 0.8788 -0.2231
C10E C -0.1421(3) 0.7706(3) -0.0184(2)
C10J C -0.0206(3) 0.6079(3) -0.2316(2)
C10O C 0.0206(3) 0.8921(3) -0.2316(2)
C11E C -0.1820(4) 0.7195(3) 0.0109(3)
C11J C 0.0305(3) 0.5680(4) -0.2609(3)
C11O C -0.0305(3) 0.9320(4) -0.2609(3)
H6E H -0.1730 0.6699 0.0067
H6J H 0.0801 0.5770 -0.2567
H6O H -0.0801 0.9230 -0.2567
C12E C -0.2351(4) 0.7444(4) 0.0462(3)
C12J C 0.0056(4) 0.5149(4) -0.2962(3)
C12O C -0.0056(4) 0.9851(4) -0.2962(3)
H7E H -0.2639 0.7096 0.0640
H7J H 0.0404 0.4861 -0.3140
H7O H -0.0404 1.0139 -0.3140
C13E C -0.0524(3) 0.7940(3) -0.0880(2)
C13J C -0.0440(3) 0.6976(3) -0.1620(2)
C13O C 0.0440(3) 0.8024(3) -0.1620(2)
H8E H -0.0256 0.8279 -0.0643
H8J H -0.0779 0.7244 -0.1857
H8O H 0.0779 0.7756 -0.1857
H9E H -0.0858 0.8215 -0.1117
H9J H -0.0715 0.6642 -0.1383
H9O H 0.0715 0.8358 -0.1383
N1E N -0.2495(3) 0.8133(2) 0.0574(2)
N1J N -0.0633(2) 0.5005(3) -0.3074(2)
N1O N 0.0633(2) 0.9995(3) -0.3074(2)
N2E N -0.3317(2) 0.8404(2) 0.1918(2)
N2J N -0.0904(2) 0.4183(2) -0.4418(2)
N2O N 0.0904(2) 1.0817(2) -0.4418(2)
O1E O -0.3661(2) 0.7305(2) 0.12787(17)
O1J O 0.0195(2) 0.3839(2) -0.37787(17)
O1O O -0.0195(2) 1.1161(2) -0.37787(17)
O2E O -0.3853(3) 0.6591(2) 0.20207(18)
O2J O 0.0909(2) 0.3647(3) -0.45207(18)
O2O O -0.0909(2) 1.1353(3) -0.45207(18)
O2A O 0.1147(3) 1.1591(2) -0.29793(18)
O2D O -0.1147(3) 0.3409(2) -0.29793(18)
O2K O 0.4091(2) 0.6353(3) 0.04793(18)
O2N O -0.4091(2) 0.8647(3) 0.04793(18)
O3E O -0.2995(3) 0.9511(2) 0.1274(2)
O3J O -0.2011(2) 0.4505(3) -0.3774(2)
O3O O 0.2011(2) 1.0495(3) -0.3774(2)
O4E O -0.2782(3) 1.0230(3) 0.2028(3)
O4J O -0.2730(3) 0.4718(3) -0.4528(3)
O4O O 0.2730(3) 1.0282(3) -0.4528(3)
O5E O -0.0910(2) 0.7443(2) -0.05394(19)
O5J O 0.0057(2) 0.6590(2) -0.19606(19)
O5O O -0.0057(2) 0.8410(2) -0.19606(19)
Zn1E Zn -0.33361(4) 0.84493(4) 0.10599(3)
Zn1J Zn -0.09493(4) 0.41639(4) -0.35599(3)
Zn1O Zn 0.09493(4) 1.08361(4) -0.35599(3)
Zn1A Zn 0.16639(4) 0.34493(4) -0.39401(3)
Zn1D Zn -0.16639(4) 1.15507(4) -0.39401(3)
Zn1K Zn -0.40507(4) 0.58361(4) 0.14401(3)
Zn1N Zn 0.40507(4) 0.91639(4) 0.14401(3)
O6 O 0.2157(7) 0.3775(7) 0.1285(5)
H10 H 0.2337 0.4199 0.1252
H11 H 0.2361 0.3556 0.1560
O7 O 0.2969(8) 0.3891(8) 0.2982(8)
H12 H 0.3039 0.4286 0.2802
H13 H 0.2933 0.3551 0.2731
O8 O 0.269(5) 0.238(2) 0.1487(18)
H14 H 0.2571 0.2782 0.1326
H15 H 0.2970 0.2472 0.1765
O9 O 0.433(4) 0.239(2) 0.1473(13)
H16 H 0.4633 0.2547 0.1715
H17 H 0.4553 0.2167 0.1209
O10 O 0.344(2) 0.173(3) 0.1019(18)
H18 H 0.3435 0.2188 0.1023
H19 H 0.3100 0.1569 0.0809
loop_
_geom_bond_atom_site_label_1
_geom_bond_atom_site_label_2
_geom_bond_site_symmetry_1
_geom_bond_site_symmetry_2
C1 C2 1_555 1_555
C2 C3 1_555 1_555
C3 H1 1_555 1_555
C4 C3 1_555 1_555
H2 C4 1_555 1_555
C5 C4 1_555 1_555
H3 C5 1_555 1_555
C6 C5 1_555 1_555
C7 C6 1_555 1_555
C8 H4 1_555 1_555
C9 C8 1_555 1_555
H5 C9 1_555 1_555
C10 C9 1_555 1_555
C11 C10 1_555 1_555
H6 C11 1_555 1_555
C12 C11 1_555 1_555
H7 C12 1_555 1_555
C13 H8 1_555 1_555
H9 C13 1_555 1_555
C14 C13 1_555 1_555
N1 C8 1_555 1_555
N2 C2 1_555 1_555
O1 C1 1_555 1_555
O2 C1 1_555 1_555
O3 C7 1_555 1_555
O4 C7 1_555 1_555
O5 C10 1_555 1_555
O6 H10 1_555 1_555
H11 O6 1_555 1_555
O7 H12 1_555 1_555
H13 O7 1_555 1_555
O8 H14 1_555 1_555
H15 O8 1_555 1_555
O9 H16 1_555 1_555
H17 O9 1_555 1_555
O10 H18 1_555 1_555
H19 O10 1_555 1_555
Zn1 N1 1_555 1_555
C1E C2E 1_555 1_555
C1J C2J 1_555 1_555
C1O C2O 1_555 1_555
C2E C3E 1_555 1_555
C2J C3J 1_555 1_555
C2O C3O 1_555 1_555
C3E H1E 1_555 1_555
C3J H1J 1_555 1_555
C3O H1O 1_555 1_555
C4E C3E 1_555 1_555
C4J C3J 1_555 1_555
C4O C3O 1_555 1_555
H2E C4E 1_555 1_555
H2J C4J 1_555 1_555
H2O C4O 1_555 1_555
C5E C4E 1_555 1_555
C5J C4J 1_555 1_555
C5O C4O 1_555 1_555
H3E C5E 1_555 1_555
H3J C5J 1_555 1_555
H3O C5O 1_555 1_555
C6E C5E 1_555 1_555
C6J C5J 1_555 1_555
C6O C5O 1_555 1_555
C7E C6E 1_555 1_555
C7J C6J 1_555 1_555
C7O C6O 1_555 1_555
C8E H4E 1_555 1_555
C8J H4J 1_555 1_555
C8O H4O 1_555 1_555
C9E C8E 1_555 1_555
C9J C8J 1_555 1_555
C9O C8O 1_555 1_555
H5E C9E 1_555 1_555
H5J C9J 1_555 1_555
H5O C9O 1_555 1_555
C10E C9E 1_555 1_555
C10J C9J 1_555 1_555
C10O C9O 1_555 1_555
C11E C10E 1_555 1_555
C11J C10J 1_555 1_555
C11O C10O 1_555 1_555
H6E C11E 1_555 1_555
H6J C11J 1_555 1_555
H6O C11O 1_555 1_555
C12E C11E 1_555 1_555
C12J C11J 1_555 1_555
C12O C11O 1_555 1_555
H7E C12E 1_555 1_555
H7J C12J 1_555 1_555
H7O C12O 1_555 1_555
C13E C14 1_555 1_555
C13J C14 1_555 1_555
C13O C14 1_555 1_555
H8E C13E 1_555 1_555
H8J C13J 1_555 1_555
H8O C13O 1_555 1_555
H9E C13E 1_555 1_555
H9J C13J 1_555 1_555
H9O C13O 1_555 1_555
N1E C8E 1_555 1_555
N1J C8J 1_555 1_555
N1O C8O 1_555 1_555
N2E C2E 1_555 1_555
N2J C2J 1_555 1_555
N2O C2O 1_555 1_555
O1E C1E 1_555 1_555
O1J C1J 1_555 1_555
O1O C1O 1_555 1_555
O2E C1E 1_555 1_555
O2J C1J 1_555 1_555
O2O C1O 1_555 1_555
O2A Zn1O 1_555 1_555
O2D Zn1J 1_555 1_555
O2K Zn1 1_555 1_555
O2N Zn1E 1_555 1_555
O3E C7E 1_555 1_555
O3J C7J 1_555 1_555
O3O C7O 1_555 1_555
O4E C7E 1_555 1_555
O4J C7J 1_555 1_555
O4O C7O 1_555 1_555
O5E C10E 1_555 1_555
O5J C10J 1_555 1_555
O5O C10O 1_555 1_555
Zn1E N1E 1_555 1_555
Zn1J N1J 1_555 1_555
Zn1O N1O 1_555 1_555
Zn1A O2J 1_555 1_555
Zn1D O2O 1_555 1_555
Zn1K O2E 1_555 1_555
Zn1N O2 1_555 1_555
C6 N2 1_555 1_555
C12 N1 1_555 1_555
C13 O5 1_555 1_555
N2 Zn1 1_555 1_555
O1 Zn1 1_555 1_555
O3 Zn1 1_555 1_555
C6E N2E 1_555 1_555
C6J N2J 1_555 1_555
C6O N2O 1_555 1_555
C12E N1E 1_555 1_555
C12J N1J 1_555 1_555
C12O N1O 1_555 1_555
C13E O5E 1_555 1_555
C13J O5J 1_555 1_555
C13O O5O 1_555 1_555
N2E Zn1E 1_555 1_555
N2J Zn1J 1_555 1_555
N2O Zn1O 1_555 1_555
O1E Zn1E 1_555 1_555
O1J Zn1J 1_555 1_555
O1O Zn1O 1_555 1_555
O3E Zn1E 1_555 1_555
O3J Zn1J 1_555 1_555
O3O Zn1O 1_555 1_555

#END
