
#######################################################################
#
#                 Cambridge Crystallographic Data Centre
#                                CCDC 
#
#######################################################################
#
# If this CIF has been generated from an entry in the Cambridge 
# Structural Database, then it will include bibliographic, chemical, 
# crystal, experimental, refinement or atomic coordinate data resulting 
# from the CCDC's data processing and validation procedures.
#
#######################################################################

data_TENLOP
_symmetry_cell_setting           monoclinic
_symmetry_space_group_name_H-M   'P 21/n'
_symmetry_Int_Tables_number      14
_space_group_name_Hall           '-P 2yn'
loop_
_symmetry_equiv_pos_site_id
_symmetry_equiv_pos_as_xyz
1 x,y,z
2 1/2-x,1/2+y,1/2-z
3 -x,-y,-z
4 1/2+x,1/2-y,1/2+z
_cell_length_a                   13.399(4)
_cell_length_b                   15.397(4)
_cell_length_c                   15.835(5)
_cell_angle_alpha                90
_cell_angle_beta                 92.213(7)
_cell_angle_gamma                90
_cell_volume                     3264.39
loop_
_atom_site_label
_atom_site_type_symbol
_atom_site_fract_x
_atom_site_fract_y
_atom_site_fract_z
C1 C 1.4289(3) 0.1986(2) 0.3987(2)
C2 C 1.3879(3) 0.2187(2) 0.4846(2)
C3 C 1.4218(4) 0.1844(3) 0.5612(3)
H1 H 1.4715 0.1422 0.5639
C4 C 1.3791(4) 0.2153(4) 0.6344(3)
H2 H 1.4016 0.1942 0.6868
C5 C 1.2728(3) 0.3050(3) 0.5520(2)
C6 C 1.1778(3) 0.1456(2) 0.3210(3)
H3 H 1.2444 0.1312 0.3138
C7 C 1.1054(3) 0.0836(3) 0.3060(3)
H4 H 1.1230 0.0279 0.2894
C8 C 1.0074(3) 0.1045(2) 0.3156(2)
H5 H 0.9576 0.0632 0.3061
C9 C 0.9836(2) 0.1877(2) 0.3395(2)
C10 C 1.0601(2) 0.2458(2) 0.3548(2)
H6 H 1.0444 0.3016 0.3725
C11 C 0.8627(2) 0.2804(2) 0.3971(2)
H7 H 0.8760 0.3332 0.3661
H8 H 0.9037 0.2806 0.4489
C12 C 0.7531(2) 0.2762(2) 0.41747(19)
C13 C 0.7281(3) 0.1911(2) 0.4592(2)
H9 H 0.6570 0.1880 0.4682
H10 H 0.7461 0.1430 0.4234
C14 C 0.7416(3) 0.1402(2) 0.6004(2)
C15 C 0.7671(3) 0.1652(2) 0.6823(2)
H11 H 0.8114 0.2111 0.6909
C16 C 0.6671(3) 0.0604(2) 0.7366(2)
H12 H 0.6411 0.0331 0.7833
C17 C 0.6391(3) 0.0322(2) 0.6579(3)
H13 H 0.5942 -0.0135 0.6513
C18 C 0.6774(3) 0.0715(2) 0.5880(2)
H14 H 0.6601 0.0521 0.5338
C19 C 0.7376(2) 0.3529(2) 0.4762(2)
H15 H 0.7857 0.3507 0.5235
H16 H 0.7469 0.4070 0.4460
C20 C 0.6086(2) 0.4174(2) 0.55248(19)
C21 C 0.6683(2) 0.4876(2) 0.5733(2)
H17 H 0.7350 0.4866 0.5591
C22 C 0.5396(2) 0.5570(2) 0.6366(2)
H18 H 0.5152 0.6052 0.6647
C23 C 0.4770(2) 0.4879(2) 0.6206(2)
H19 H 0.4118 0.4890 0.6388
C24 C 0.5111(2) 0.4172(2) 0.5778(2)
H20 H 0.4695 0.3700 0.5660
C25 C 0.6850(2) 0.2825(2) 0.3383(2)
H21 H 0.6947 0.2325 0.3023
H22 H 0.6156 0.2837 0.3537
C26 C 1.3061(4) 0.2750(4) 0.6301(3)
H23 H 1.2784 0.2959 0.6791
C27 C 0.6629(3) 0.3734(3) 0.2165(2)
C28 C 0.7035(4) 0.4406(3) 0.1699(3)
H24 H 0.7559 0.4726 0.1944
C29 C 0.5954(7) 0.4162(6) 0.0608(4)
H25 H 0.5719 0.4301 0.0065
C30 C 0.5481(5) 0.3497(5) 0.1024(4)
H26 H 0.4938 0.3209 0.0772
C31 C 0.5846(3) 0.3271(3) 0.1838(3)
H27 H 0.5562 0.2823 0.2140
C32 C 1.1906(3) 0.3701(3) 0.5341(3)
N1 N 1.3154(2) 0.27650(19) 0.48232(18)
N2 N 1.1551(2) 0.22590(18) 0.34556(18)
N3 N 0.7309(2) 0.12610(17) 0.74875(18)
N4 N 0.6334(2) 0.55762(17) 0.61349(16)
N5 N 0.6715(5) 0.4611(4) 0.0931(3)
O1 O 1.4950(2) 0.14363(17) 0.3949(2)
O2 O 1.39038(18) 0.24133(15) 0.33790(15)
O3 O 1.1687(2) 0.38586(17) 0.45903(19)
O4 O 1.1515(4) 0.4021(3) 0.5970(3)
O5 O 0.88548(17) 0.20637(16) 0.34737(16)
O6 O 0.78340(18) 0.18661(16) 0.53873(15)
O7 O 0.63858(17) 0.34845(15) 0.50592(15)
O8 O 0.7089(2) 0.36007(18) 0.29451(16)
Zn1 Zn 1.26907(3) 0.32639(2) 0.36895(2)
N3C N 1.2309(2) 0.37390(17) 0.24875(18)
N4B N 1.3666(2) 0.44238(17) 0.38651(16)
Zn1C Zn 0.76907(3) 0.17361(2) 0.86895(2)
Zn1B Zn 0.73093(3) 0.67361(2) 0.63105(2)
O9 O 0.8982(6) 0.3527(4) 0.6746(5)
H28 H 0.9233 0.3748 0.7198
H29 H 0.8504 0.3844 0.6557
O10 O 0.1184(8) 0.4297(7) 0.7705(5)
H30 H 0.0778 0.3960 0.7441
H31 H 0.1214 0.4163 0.8226
O11 O 0.4757(10) 0.0052(9) 0.1036(7)
H32 H 0.5304 0.0273 0.1220
H33 H 0.4865 -0.0274 0.0616
loop_
_geom_bond_atom_site_label_1
_geom_bond_atom_site_label_2
_geom_bond_site_symmetry_1
_geom_bond_site_symmetry_2
C1 C2 1_555 1_555
C2 C3 1_555 1_555
C3 H1 1_555 1_555
C4 C3 1_555 1_555
H2 C4 1_555 1_555
C5 C26 1_555 1_555
C6 H3 1_555 1_555
C7 C6 1_555 1_555
H4 C7 1_555 1_555
C8 C7 1_555 1_555
H5 C8 1_555 1_555
C9 C8 1_555 1_555
C10 C9 1_555 1_555
H6 C10 1_555 1_555
C11 H7 1_555 1_555
H8 C11 1_555 1_555
C12 C11 1_555 1_555
C13 C12 1_555 1_555
H9 C13 1_555 1_555
H10 C13 1_555 1_555
C14 C15 1_555 1_555
C15 H11 1_555 1_555
C16 H12 1_555 1_555
C17 C16 1_555 1_555
H13 C17 1_555 1_555
C18 C14 1_555 1_555
H14 C18 1_555 1_555
C19 C12 1_555 1_555
H15 C19 1_555 1_555
H16 C19 1_555 1_555
C20 C21 1_555 1_555
C21 H17 1_555 1_555
C22 H18 1_555 1_555
C23 C22 1_555 1_555
H19 C23 1_555 1_555
C24 C20 1_555 1_555
H20 C24 1_555 1_555
C25 C12 1_555 1_555
H21 C25 1_555 1_555
H22 C25 1_555 1_555
C26 C4 1_555 1_555
H23 C26 1_555 1_555
C27 C28 1_555 1_555
C28 H24 1_555 1_555
C29 H25 1_555 1_555
C30 C29 1_555 1_555
H26 C30 1_555 1_555
C31 C27 1_555 1_555
H27 C31 1_555 1_555
C32 C5 1_555 1_555
N1 C2 1_555 1_555
N2 C6 1_555 1_555
N3 C15 1_555 1_555
N4 C21 1_555 1_555
N5 C28 1_555 1_555
O1 C1 1_555 1_555
O2 C1 1_555 1_555
O3 C32 1_555 1_555
O4 C32 1_555 1_555
O5 C9 1_555 1_555
O6 C13 1_555 1_555
O7 C19 1_555 1_555
O8 C25 1_555 1_555
O9 H28 1_555 1_555
H29 O9 1_555 1_555
O10 H30 1_555 1_555
H31 O10 1_555 1_555
O11 H32 1_555 1_555
H33 O11 1_555 1_555
Zn1 N1 1_555 1_555
N3C Zn1 1_555 1_555
N4B Zn1 1_555 1_555
Zn1C N3 1_555 1_555
Zn1B N4 1_555 1_555
C5 N1 1_555 1_555
C10 N2 1_555 1_555
C11 O5 1_555 1_555
C14 O6 1_555 1_555
C16 N3 1_555 1_555
C17 C18 1_555 1_555
C20 O7 1_555 1_555
C22 N4 1_555 1_555
C23 C24 1_555 1_555
C27 O8 1_555 1_555
C29 N5 1_555 1_555
C30 C31 1_555 1_555
N2 Zn1 1_555 1_555
O2 Zn1 1_555 1_555
O3 Zn1 1_555 1_555

#END
