
#######################################################################
#
#                 Cambridge Crystallographic Data Centre
#                                CCDC 
#
#######################################################################
#
# If this CIF has been generated from an entry in the Cambridge 
# Structural Database, then it will include bibliographic, chemical, 
# crystal, experimental, refinement or atomic coordinate data resulting 
# from the CCDC's data processing and validation procedures.
#
#######################################################################

data_TENNIL
_symmetry_cell_setting           monoclinic
_symmetry_space_group_name_H-M   'C 2/c'
_symmetry_Int_Tables_number      15
_space_group_name_Hall           '-C 2yn'
loop_
_symmetry_equiv_pos_site_id
_symmetry_equiv_pos_as_xyz
1 x,y,z
2 -x,y,1/2-z
3 1/2+x,1/2+y,z
4 1/2-x,1/2+y,1/2-z
5 -x,-y,-z
6 x,-y,1/2+z
7 1/2-x,1/2-y,-z
8 1/2+x,1/2-y,1/2+z
_cell_length_a                   18.889(4)
_cell_length_b                   16.806(3)
_cell_length_c                   16.022(3)
_cell_angle_alpha                90
_cell_angle_beta                 109.04(3)
_cell_angle_gamma                90
_cell_volume                     4807.9
loop_
_atom_site_label
_atom_site_type_symbol
_atom_site_fract_x
_atom_site_fract_y
_atom_site_fract_z
Zn1 Zn 0.67198(2) 0.40528(2) 0.27127(3)
N1 N 0.59651(14) 0.48128(15) 0.18758(17)
N2 N 0.21996(14) 0.83150(15) 0.20115(18)
O1 O 0.60041(13) 0.33897(14) 0.30361(15)
O2 O 0.70324(13) 0.28222(14) 0.39299(16)
O3 O 0.26366(16) -0.02107(18) 0.3207(3)
O4 O 0.21227(19) -0.0417(2) 0.4239(3)
C1 C 0.52319(17) 0.46261(19) 0.1578(2)
H6 H 0.5079 0.4141 0.1757
C2 C 0.47004(18) 0.5110(2) 0.1029(2)
H7 H 0.4195 0.4955 0.0838
C3 C 0.49043(19) 0.58284(19) 0.0751(2)
C4 C 0.5659(2) 0.60198(19) 0.1056(2)
H8 H 0.5824 0.6502 0.0885
C5 C 0.61623(19) 0.5513(2) 0.1600(2)
H9 H 0.6671 0.5657 0.1794
C6 C 0.4338(2) 0.6372(2) 0.0117(2)
H10 H 0.3935 0.6043 -0.0268
H11 H 0.4584 0.6641 -0.0257
C7 C 0.3991(2) 0.7001(2) 0.0545(3)
H12 H 0.4393 0.7311 0.0960
H13 H 0.3693 0.7365 0.0087
C8 C 0.3505(2) 0.6663(2) 0.1024(3)
H14 H 0.3824 0.6367 0.1537
H15 H 0.3162 0.6280 0.0635
C9 C 0.3041(2) 0.7261(2) 0.1345(2)
C10 C 0.2530(2) 0.6995(2) 0.1724(2)
H16 H 0.2456 0.6445 0.1765
C11 C 0.21262(19) 0.7520(2) 0.2043(2)
H17 H 0.1780 0.7315 0.2296
C12 C 0.2678(2) 0.8576(2) 0.1621(3)
H18 H 0.2733 0.9128 0.1573
C13 C 0.3099(2) 0.8075(2) 0.1280(3)
H19 H 0.3424 0.8291 0.1003
C14 C 0.6341(2) 0.2914(2) 0.3662(2)
C15 C 0.5851(2) 0.2466(2) 0.4052(2)
H20 H 0.5339 0.2420 0.3726
C16 C 0.61031(19) 0.21279(19) 0.4843(2)
H21 H 0.6616 0.2181 0.5162
C17 C 0.56410(18) 0.16780(18) 0.5257(2)
C18 C 0.58704(19) 0.1579(2) 0.6166(2)
H22 H 0.6321 0.1810 0.6522
C19 C 0.5438(2) 0.1141(2) 0.6551(2)
H23 H 0.5594 0.1082 0.7168
C20 C 0.47806(19) 0.0790(2) 0.6035(2)
H24 H 0.4493 0.0491 0.6303
C21 C 0.45420(18) 0.08737(18) 0.5125(2)
C22 C 0.49763(18) 0.13181(19) 0.4749(2)
H25 H 0.4818 0.1378 0.4132
C23 C 0.3854(2) 0.0507(2) 0.4514(3)
H26 H 0.3804 0.0529 0.3911
C24 C 0.3315(2) 0.0162(2) 0.4706(3)
H27 H 0.3347 0.0120 0.5302
C25 C 0.2650(3) -0.0172(2) 0.4023(4)
Zn1B Zn 0.17198(2) 0.90528(2) 0.27127(3)
Zn1B_2 Zn 0.17198(2) -0.09472(2) 0.27127(3)
N2B N 0.71996(14) 0.33150(15) 0.20115(18)
O3B O 0.76366(16) 0.47893(18) 0.3207(3)
O4B O 0.71227(19) 0.4583(2) 0.4239(3)
O5 O 0.24512(15) 0.12564(17) 0.0875(2)
H1 H 0.2222 0.1122 0.0343
H2 H 0.2569 0.1744 0.0875
O6 O 0.3550(2) 0.0397(2) 0.2063(3)
H3 H 0.3296 0.0824 0.1988
H4 H 0.340(3) 0.0108(17) 0.238(4)
O7 O 0.5000 0.1127(4) 0.2500
H5 H 0.4591 0.0870 0.2372
H5A H 0.5409 0.0870 0.2628
loop_
_geom_bond_atom_site_label_1
_geom_bond_atom_site_label_2
_geom_bond_site_symmetry_1
_geom_bond_site_symmetry_2
Zn1 N1 1_555 1_555
N1 C1 1_555 1_555
N2 C11 1_555 1_555
O1 Zn1 1_555 1_555
O2 C14 1_555 1_555
O3 C25 1_555 1_555
O4 C25 1_555 1_555
O5 H1 1_555 1_555
H2 O5 1_555 1_555
O6 H3 1_555 1_555
H4 O6 1_555 1_555
O7 H5 1_555 1_555
C1 H6 1_555 1_555
C2 C1 1_555 1_555
H7 C2 1_555 1_555
C3 C2 1_555 1_555
C4 C3 1_555 1_555
H8 C4 1_555 1_555
C5 N1 1_555 1_555
H9 C5 1_555 1_555
C6 C3 1_555 1_555
H10 C6 1_555 1_555
H11 C6 1_555 1_555
C7 C6 1_555 1_555
H12 C7 1_555 1_555
H13 C7 1_555 1_555
C8 C7 1_555 1_555
H14 C8 1_555 1_555
H15 C8 1_555 1_555
C9 C8 1_555 1_555
C10 C9 1_555 1_555
H16 C10 1_555 1_555
C11 C10 1_555 1_555
H17 C11 1_555 1_555
C12 N2 1_555 1_555
H18 C12 1_555 1_555
C13 C9 1_555 1_555
H19 C13 1_555 1_555
C14 O1 1_555 1_555
C15 C14 1_555 1_555
H20 C15 1_555 1_555
C16 C15 1_555 1_555
H21 C16 1_555 1_555
C17 C16 1_555 1_555
C18 C17 1_555 1_555
H22 C18 1_555 1_555
C19 C18 1_555 1_555
H23 C19 1_555 1_555
C20 C19 1_555 1_555
H24 C20 1_555 1_555
C21 C20 1_555 1_555
C22 C17 1_555 1_555
H25 C22 1_555 1_555
C23 C21 1_555 1_555
H26 C23 1_555 1_555
C24 C23 1_555 1_555
H27 C24 1_555 1_555
C25 C24 1_555 1_555
Zn1B N2 1_555 1_555
Zn1B_2 O3 1_555 1_555
N2B Zn1 1_555 1_555
O3B Zn1 1_555 1_555
O4B Zn1 1_555 1_555
H5A O7 1_555 1_555
O4 Zn1B_2 1_555 1_555
C4 C5 1_555 1_555
C12 C13 1_555 1_555
C21 C22 1_555 1_555

#END
