
#######################################################################
#
#                 Cambridge Crystallographic Data Centre
#                                CCDC 
#
#######################################################################
#
# If this CIF has been generated from an entry in the Cambridge 
# Structural Database, then it will include bibliographic, chemical, 
# crystal, experimental, refinement or atomic coordinate data resulting 
# from the CCDC's data processing and validation procedures.
#
#######################################################################

data_TENQOS
_symmetry_cell_setting           monoclinic
_symmetry_space_group_name_H-M   'P 21/n'
_symmetry_Int_Tables_number      14
_space_group_name_Hall           '-P 2yn'
loop_
_symmetry_equiv_pos_site_id
_symmetry_equiv_pos_as_xyz
1 x,y,z
2 1/2-x,1/2+y,1/2-z
3 -x,-y,-z
4 1/2+x,1/2-y,1/2+z
_cell_length_a                   13.172(4)
_cell_length_b                   19.849(4)
_cell_length_c                   20.912(5)
_cell_angle_alpha                90
_cell_angle_beta                 102.06(2)
_cell_angle_gamma                90
_cell_volume                     5346.79
loop_
_atom_site_label
_atom_site_type_symbol
_atom_site_fract_x
_atom_site_fract_y
_atom_site_fract_z
Cu1 Cu 0.0683(6) -0.5766(4) 0.6209(4)
Cu2 Cu 0.1191(5) -0.6307(4) 0.7381(4)
Cu3 Cu -0.0006(6) -0.7315(4) 0.6780(4)
Cu4 Cu -0.0966(6) -0.6571(4) 0.5775(4)
Cu5 Cu 0.5747(5) -0.7772(4) 0.8001(4)
O1 O 0.234(3) -0.658(2) 0.707(2)
O2 O -0.028(3) -0.713(2) 0.534(2)
O3 O -0.039(3) -0.520(2) 0.634(2)
O4 O -0.077(3) -0.704(2) 0.738(2)
N1 N 0.465(4) -0.756(3) 0.734(3)
N2 N 0.190(3) -0.620(2) 0.602(2)
N3 N 0.560(4) -0.748(2) 0.893(3)
N4 N 0.067(3) -0.774(2) 0.615(2)
N5 N 0.611(4) -0.871(3) 0.804(2)
N6 N -0.170(3) -0.601(2) 0.619(2)
N7 N 0.695(4) -0.716(3) 0.791(2)
N8 N 0.006(3) -0.603(2) 0.771(2)
C1 C 0.250(5) -0.654(3) 0.647(3)
C2 C 0.337(4) -0.688(3) 0.632(3)
C3 C 0.356(5) -0.692(3) 0.572(3)
C4 C 0.286(5) -0.653(3) 0.528(3)
C5 C 0.206(5) -0.619(3) 0.544(3)
C6 C 0.408(5) -0.728(3) 0.689(3)
C7 C 0.126(5) -0.587(4) 0.488(3)
C8 C 0.042(4) -0.757(3) 0.552(3)
C9 C 0.092(4) -0.791(3) 0.508(3)
C10 C 0.175(4) -0.835(3) 0.538(3)
C11 C 0.194(4) -0.852(3) 0.599(3)
C12 C 0.147(5) -0.817(3) 0.637(3)
C13 C 0.573(4) -0.731(3) 0.943(3)
C14 C 0.178(5) -0.837(4) 0.710(3)
C15 C -0.129(4) -0.542(3) 0.638(3)
C16 C -0.183(4) -0.488(3) 0.669(3)
C17 C -0.291(4) -0.508(3) 0.674(3)
C18 C -0.328(5) -0.575(3) 0.653(3)
C19 C -0.263(5) -0.618(3) 0.628(3)
C20 C 0.644(4) -0.924(3) 0.816(2)
C21 C -0.314(5) -0.682(4) 0.610(3)
C22 C -0.068(4) -0.646(3) 0.768(2)
C23 C -0.151(4) -0.636(3) 0.797(3)
C24 C -0.156(5) -0.578(4) 0.833(3)
C25 C -0.076(6) -0.521(4) 0.832(4)
C26 C 0.006(5) -0.547(3) 0.801(3)
C27 C 0.764(6) -0.682(4) 0.795(3)
C28 C 0.088(6) -0.495(4) 0.800(3)
H1 H 0.2187 -0.8520 0.5108
H2 H 0.2395 -0.8887 0.6145
H3 H 0.4108 -0.7171 0.5607
H4 H 0.2947 -0.6509 0.4846
H5 H -0.3339 -0.4780 0.6917
H6 H -0.3958 -0.5884 0.6551
H7 H -0.2086 -0.5727 0.8578
H8 H -0.0787 -0.4769 0.8491
H9 H 0.1175 -0.5412 0.4979
H10 H 0.1495 -0.5911 0.4485
H11 H 0.0618 -0.6102 0.4845
H12 H 0.1594 -0.8830 0.7146
H13 H 0.2503 -0.8317 0.7251
H14 H 0.1417 -0.8094 0.7349
H15 H -0.3323 -0.7017 0.6466
H16 H -0.3742 -0.6743 0.5766
H17 H -0.2675 -0.7105 0.5931
H18 H 0.1543 -0.5138 0.8185
H19 H 0.0864 -0.4823 0.7561
H20 H 0.0759 -0.4571 0.8246
C13C C 0.073(4) -0.769(3) 0.443(3)
C9C C 0.592(4) -0.709(3) 1.008(3)
C20A C -0.144(4) -0.424(3) 0.684(2)
C16A C 0.683(4) -0.988(3) 0.831(3)
C27_2 C -0.236(6) -0.682(4) 0.795(3)
C23_2 C 0.849(4) -0.636(3) 0.797(3)
Cl1 Cl 0.475(3) 0.130(2) 0.520(2)
loop_
_geom_bond_atom_site_label_1
_geom_bond_atom_site_label_2
_geom_bond_site_symmetry_1
_geom_bond_site_symmetry_2
Cu1 Cu2 1_555 1_555
Cu2 Cu3 1_555 1_555
Cu3 Cu4 1_555 1_555
Cu4 Cu1 1_555 1_555
Cu5 N1 1_555 1_555
O1 Cu2 1_555 1_555
O2 Cu4 1_555 1_555
O3 Cu1 1_555 1_555
O4 Cu3 1_555 1_555
N1 C6 1_555 1_555
N2 Cu1 1_555 1_555
N3 Cu5 1_555 1_555
N4 Cu3 1_555 1_555
N5 Cu5 1_555 1_555
N6 Cu4 1_555 1_555
N7 Cu5 1_555 1_555
N8 Cu2 1_555 1_555
C1 O1 1_555 1_555
C2 C1 1_555 1_555
C3 C2 1_555 1_555
C4 C3 1_555 1_555
C5 N2 1_555 1_555
C6 C2 1_555 1_555
C7 C5 1_555 1_555
C8 O2 1_555 1_555
C9 C8 1_555 1_555
C10 C9 1_555 1_555
C11 C10 1_555 1_555
C12 N4 1_555 1_555
C13 N3 1_555 1_555
C14 C12 1_555 1_555
C15 O3 1_555 1_555
C16 C15 1_555 1_555
C17 C16 1_555 1_555
C18 C17 1_555 1_555
C19 N6 1_555 1_555
C20 N5 1_555 1_555
C21 C19 1_555 1_555
C22 O4 1_555 1_555
C23 C22 1_555 1_555
C24 C23 1_555 1_555
C25 C24 1_555 1_555
C26 N8 1_555 1_555
C27 N7 1_555 1_555
C28 C26 1_555 1_555
H1 C10 1_555 1_555
H2 C11 1_555 1_555
H3 C3 1_555 1_555
H4 C4 1_555 1_555
H5 C17 1_555 1_555
H6 C18 1_555 1_555
H7 C24 1_555 1_555
H8 C25 1_555 1_555
H9 C7 1_555 1_555
H10 C7 1_555 1_555
H11 C7 1_555 1_555
H12 C14 1_555 1_555
H13 C14 1_555 1_555
H14 C14 1_555 1_555
H15 C21 1_555 1_555
H16 C21 1_555 1_555
H17 C21 1_555 1_555
H18 C28 1_555 1_555
H19 C28 1_555 1_555
H20 C28 1_555 1_555
C13C C9 1_555 1_555
C9C C13 1_555 1_555
C20A C16 1_555 1_555
C16A C20 1_555 1_555
C27_2 C23 1_555 1_555
C23_2 C27 1_555 1_555
N2 C1 1_555 1_555
N4 C8 1_555 1_555
N6 C15 1_555 1_555
N8 C22 1_555 1_555
C4 C5 1_555 1_555
C11 C12 1_555 1_555
C18 C19 1_555 1_555
C25 C26 1_555 1_555

#END
