
#######################################################################
#
#                 Cambridge Crystallographic Data Centre
#                                CCDC 
#
#######################################################################
#
# If this CIF has been generated from an entry in the Cambridge 
# Structural Database, then it will include bibliographic, chemical, 
# crystal, experimental, refinement or atomic coordinate data resulting 
# from the CCDC's data processing and validation procedures.
#
#######################################################################

data_TENRAH
_symmetry_cell_setting           monoclinic
_symmetry_space_group_name_H-M   'C 2/c'
_symmetry_Int_Tables_number      15
_space_group_name_Hall           '-C 2yn'
loop_
_symmetry_equiv_pos_site_id
_symmetry_equiv_pos_as_xyz
1 x,y,z
2 -x,y,1/2-z
3 1/2+x,1/2+y,z
4 1/2-x,1/2+y,1/2-z
5 -x,-y,-z
6 x,-y,1/2+z
7 1/2-x,1/2-y,-z
8 1/2+x,1/2-y,1/2+z
_cell_length_a                   32.388(7)
_cell_length_b                   10.055(2)
_cell_length_c                   32.600(7)
_cell_angle_alpha                90
_cell_angle_beta                 106.91(3)
_cell_angle_gamma                90
_cell_volume                     10157.5
loop_
_atom_site_label
_atom_site_type_symbol
_atom_site_fract_x
_atom_site_fract_y
_atom_site_fract_z
Pb1 Pb 0.2500 0.7500 0.0000
Pb2 Pb 0.376697(19) 0.73972(7) 0.063710(19)
Pb3 Pb 0.50669(2) 0.76841(6) 0.12623(2)
Pb4 Pb 0.5000 0.74908(10) 0.2500
I1 I 0.29958(4) 0.53606(13) 0.07322(4)
I2 I 0.33219(4) 0.71276(12) -0.03675(3)
I3 I 0.30390(4) 0.96514(13) 0.06710(4)
I4 I 0.43991(4) 0.97940(12) 0.06924(5)
I5 I 0.45666(4) 0.56247(13) 0.05556(5)
I6 I 0.41749(3) 0.71105(11) 0.16775(3)
I7 I 0.58077(4) 0.80778(13) 0.09029(5)
I8 I 0.54731(4) 0.54229(13) 0.20206(4)
I9 I 0.54166(5) 0.98053(14) 0.20470(4)
Pb2F Pb 0.123303(19) 0.76028(7) -0.063710(19)
Pb3F Pb -0.00669(2) 0.73159(6) -0.12623(2)
Pb3A Pb 0.49331(2) 0.76841(6) 0.37377(2)
Pb4F Pb 0.0000 0.75092(10) -0.2500
I1F I 0.20042(4) 0.96394(13) -0.07322(4)
I2F I 0.16781(4) 0.78724(12) 0.03675(3)
I3F I 0.19610(4) 0.53486(13) -0.06710(4)
I4F I 0.06009(4) 0.52060(12) -0.06924(5)
I5F I 0.04334(4) 0.93753(13) -0.05556(5)
I6F I 0.08251(3) 0.78895(11) -0.16775(3)
I6A I 0.58251(3) 0.71105(11) 0.33225(3)
I7F I -0.08077(4) 0.69222(13) -0.09029(5)
I8A I 0.45269(4) 0.54229(13) 0.29794(4)
I8F I -0.04731(4) 0.95771(13) -0.20206(4)
I9A I 0.45834(5) 0.98053(14) 0.29530(4)
I9F I -0.04166(5) 0.51947(14) -0.20470(4)
La1 La 0.27555(3) 0.69831(7) 0.23725(3)
N1 N 0.1905(5) 0.2664(16) 0.0498(4)
N2 N 0.0956(7) 0.7268(18) 0.3143(9)
N3 N 0.4281(5) 0.2837(17) 0.4004(6)
O1 O 0.2362(5) 0.5352(12) 0.1823(4)
O2 O 0.2241(5) 0.3364(16) 0.2035(5)
O3 O 0.2223(5) 0.6015(12) 0.2679(5)
O4 O 0.1983(5) 0.4139(12) 0.2844(5)
O5 O 0.3160(3) 0.5296(12) 0.2925(4)
O6 O 0.2897(4) 0.3278(12) 0.2902(5)
O7 O 0.3562(5) 0.755(2) 0.2760(10)
O8 O 0.3187(8) 0.600(3) 0.1891(8)
O9 O 0.2755(12) 0.747(3) 0.1546(11)
C1 C 0.2257(7) 0.4180(18) 0.1760(5)
C2 C 0.2125(4) 0.3659(14) 0.1310(5)
C3 C 0.1975(5) 0.4493(16) 0.0972(5)
H1 H 0.1950 0.5400 0.1016
C4 C 0.1860(6) 0.3974(17) 0.0561(5)
H2 H 0.1751 0.4532 0.0327
C5 C 0.2140(6) 0.2340(17) 0.1238(5)
H3 H 0.2218 0.1751 0.1467
C6 C 0.2039(6) 0.186(2) 0.0817(7)
H4 H 0.2069 0.0962 0.0768
C7 C 0.1796(8) 0.215(2) 0.0049(7)
H5 H 0.1881 0.2796 -0.0132
H6 H 0.1951 0.1331 0.0043
C8 C 0.1327(8) 0.191(3) -0.0113(8)
H7 H 0.1257 0.1581 -0.0401
H8 H 0.1175 0.2725 -0.0108
H9 H 0.1245 0.1263 0.0066
C9 C 0.1968(5) 0.5372(17) 0.2811(6)
C10 C 0.1624(6) 0.6040(16) 0.2949(6)
C11 C 0.1573(8) 0.7392(18) 0.2896(8)
H10 H 0.1765 0.7892 0.2796
C12 C 0.1230(9) 0.799(2) 0.2994(11)
H11 H 0.1188 0.8906 0.2958
C13 C 0.1345(6) 0.5347(15) 0.3111(6)
H12 H 0.1381 0.4435 0.3153
C14 C 0.1017(8) 0.597(2) 0.3211(7)
H13 H 0.0834 0.5492 0.3328
C15 C 0.0521(9) 0.795(3) 0.3167(9)
H14 H 0.0458 0.8759 0.3001
H15 H 0.0276 0.7345 0.3079
C16 C 0.0639(10) 0.818(3) 0.3593(10)
H16 H 0.0406 0.8606 0.3669
H17 H 0.0888 0.8751 0.3668
H18 H 0.0708 0.7355 0.3745
C17 C 0.3165(6) 0.4124(16) 0.3036(6)
C18 C 0.3555(5) 0.3689(14) 0.3396(5)
C19 C 0.3670(6) 0.2388(17) 0.3432(7)
H19 H 0.3492 0.1770 0.3253
C20 C 0.4042(8) 0.196(2) 0.3727(8)
H20 H 0.4126 0.1070 0.3734
C21 C 0.3810(5) 0.4533(17) 0.3679(6)
H21 H 0.3745 0.5436 0.3662
C22 C 0.4163(6) 0.4087(19) 0.3991(7)
H22 H 0.4321 0.4677 0.4197
C23 C 0.4705(7) 0.235(3) 0.4329(9)
H23 H 0.4858 0.1776 0.4184
H24 H 0.4887 0.3111 0.4441
C24 C 0.4621(8) 0.166(3) 0.4666(7)
H25 H 0.4889 0.1364 0.4861
H26 H 0.4442 0.0907 0.4556
H27 H 0.4477 0.2237 0.4815
La1C La 0.22445(3) 0.19831(7) 0.26275(3)
O2C O 0.2759(5) 0.8364(16) 0.2965(5)
O4C O 0.3017(5) 0.9139(12) 0.2156(5)
O6C O 0.2103(4) 0.8278(12) 0.2098(5)
O10? O 0.3415(10) 0.597(3) 0.2191(13)
loop_
_geom_bond_atom_site_label_1
_geom_bond_atom_site_label_2
_geom_bond_site_symmetry_1
_geom_bond_site_symmetry_2
Pb1 I1 1_555 1_555
Pb2 I1 1_555 1_555
Pb3 I4 1_555 1_555
Pb4 I6 1_555 1_555
La1 O1 1_555 1_555
I2 Pb1 1_555 1_555
I3 Pb1 1_555 1_555
I4 Pb2 1_555 1_555
I5 Pb2 1_555 1_555
I6 Pb2 1_555 1_555
I7 Pb3 1_555 1_555
I8 Pb3 1_555 1_555
I9 Pb3 1_555 1_555
N1 C4 1_555 1_555
N2 C12 1_555 1_555
N3 C20 1_555 1_555
O1 C1 1_555 1_555
O2 C1 1_555 1_555
O3 La1 1_555 1_555
O4 C9 1_555 1_555
O5 La1 1_555 1_555
O6 C17 1_555 1_555
O7 La1 1_555 1_555
O8 La1 1_555 1_555
O9 La1 1_555 1_555
C1 C2 1_555 1_555
C2 C3 1_555 1_555
C3 H1 1_555 1_555
C4 C3 1_555 1_555
H2 C4 1_555 1_555
C5 C2 1_555 1_555
H3 C5 1_555 1_555
C6 N1 1_555 1_555
H4 C6 1_555 1_555
C7 N1 1_555 1_555
H5 C7 1_555 1_555
H6 C7 1_555 1_555
C8 C7 1_555 1_555
H7 C8 1_555 1_555
H8 C8 1_555 1_555
H9 C8 1_555 1_555
C9 O3 1_555 1_555
C10 C9 1_555 1_555
C11 C10 1_555 1_555
H10 C11 1_555 1_555
C12 C11 1_555 1_555
H11 C12 1_555 1_555
C13 C10 1_555 1_555
H12 C13 1_555 1_555
C14 N2 1_555 1_555
H13 C14 1_555 1_555
C15 N2 1_555 1_555
H14 C15 1_555 1_555
H15 C15 1_555 1_555
C16 C15 1_555 1_555
H16 C16 1_555 1_555
H17 C16 1_555 1_555
H18 C16 1_555 1_555
C17 O5 1_555 1_555
C18 C17 1_555 1_555
C19 C18 1_555 1_555
H19 C19 1_555 1_555
C20 C19 1_555 1_555
H20 C20 1_555 1_555
C21 C18 1_555 1_555
H21 C21 1_555 1_555
C22 N3 1_555 1_555
H22 C22 1_555 1_555
C23 N3 1_555 1_555
H23 C23 1_555 1_555
H24 C23 1_555 1_555
C24 C23 1_555 1_555
H25 C24 1_555 1_555
H26 C24 1_555 1_555
H27 C24 1_555 1_555
Pb2F I1F 1_555 1_555
Pb3F I4F 1_555 1_555
Pb3A I8A 1_555 1_555
Pb4F I6F 1_555 1_555
La1C O2 1_555 1_555
I1F Pb1 1_555 1_555
I2F Pb1 1_555 1_555
I3F Pb1 1_555 1_555
I4F Pb2F 1_555 1_555
I5F Pb2F 1_555 1_555
I6F Pb2F 1_555 1_555
I6A Pb4 1_555 1_555
I7F Pb3F 1_555 1_555
I8A Pb4 1_555 1_555
I8F Pb3F 1_555 1_555
I9A Pb4 1_555 1_555
I9F Pb3F 1_555 1_555
O2C La1 1_555 1_555
O4C La1 1_555 1_555
O6C La1 1_555 1_555
Pb2 I2 1_555 1_555
Pb2 I3 1_555 1_555
Pb3 I5 1_555 1_555
Pb4 I8 1_555 1_555
Pb4 I9 1_555 1_555
O4 La1C 1_555 1_555
O6 La1C 1_555 1_555
C5 C6 1_555 1_555
C13 C14 1_555 1_555
C21 C22 1_555 1_555
Pb2F I2F 1_555 1_555
Pb2F I3F 1_555 1_555
Pb3F I5F 1_555 1_555
Pb3A I9A 1_555 1_555
Pb4F I8F 1_555 1_555
Pb4F I9F 1_555 1_555

#END
