
#######################################################################
#
#                 Cambridge Crystallographic Data Centre
#                                CCDC 
#
#######################################################################
#
# If this CIF has been generated from an entry in the Cambridge 
# Structural Database, then it will include bibliographic, chemical, 
# crystal, experimental, refinement or atomic coordinate data resulting 
# from the CCDC's data processing and validation procedures.
#
#######################################################################

data_TENTUD
_symmetry_cell_setting           monoclinic
_symmetry_space_group_name_H-M   'P 21/c'
_symmetry_Int_Tables_number      14
_space_group_name_Hall           '-P 2ybc'
loop_
_symmetry_equiv_pos_site_id
_symmetry_equiv_pos_as_xyz
1 x,y,z
2 -x,1/2+y,1/2-z
3 -x,-y,-z
4 x,1/2-y,1/2+z
_cell_length_a                   17.508(3)
_cell_length_b                   11.6229(17)
_cell_length_c                   27.983(3)
_cell_angle_alpha                90
_cell_angle_beta                 128.123(6)
_cell_angle_gamma                90
_cell_volume                     4479.68
loop_
_atom_site_label
_atom_site_type_symbol
_atom_site_fract_x
_atom_site_fract_y
_atom_site_fract_z
Mn1 Mn 0.10782(3) 0.32127(3) 0.205158(17)
Mn2 Mn 0.39410(3) 0.38597(3) 0.295404(17)
O1 O -0.03967(14) 0.32714(19) 0.10926(9)
O2 O -0.03176(13) 0.33835(17) 0.18984(8)
O3 O 0.32348(13) 0.38878(15) 0.20084(8)
O4 O 0.18884(13) 0.30660(15) 0.17405(8)
O5 O 0.54070(13) 0.37859(18) 0.39084(9)
O6 O 0.53356(13) 0.40443(17) 0.31107(8)
O7 O 0.17613(13) 0.31237(16) 0.29935(8)
O8 O 0.31167(14) 0.38972(16) 0.32539(9)
N1 N 0.10857(16) 0.12720(18) 0.20391(10)
N2 N 0.11554(14) -0.48299(18) 0.20405(9)
N3 N 0.39504(15) 0.19130(18) 0.29811(10)
N4 N 0.38398(14) -0.41847(18) 0.29520(9)
C1 C 0.38739(17) -0.0503(2) 0.29710(12)
C2 C -0.07957(19) 0.3386(2) 0.13328(12)
C3 C 0.11418(16) -0.2414(2) 0.20377(11)
C4 C 0.11296(18) -0.1140(2) 0.20334(12)
C5 C 0.36052(18) -0.3586(2) 0.32527(11)
H1 H 0.3434 -0.3992 0.3460
C6 C 0.40761(19) -0.3574(2) 0.26554(12)
H2 H 0.4241 -0.3971 0.2442
C7 C 0.19646(18) 0.3614(2) 0.09602(11)
C8 C 0.2510(2) 0.3779(3) 0.07578(12)
C9 C 0.13885(18) -0.3033(2) 0.17291(12)
H3 H 0.1557 -0.2653 0.1514
C10 C 0.36030(18) -0.2404(2) 0.32718(11)
H4 H 0.3436 -0.2028 0.3489
C11 C 0.25991(18) 0.3499(2) 0.33821(11)
C12 C 0.13839(18) -0.4216(2) 0.17428(11)
H5 H 0.1551 -0.4613 0.1531
C13 C 0.58128(19) 0.3930(2) 0.36724(12)
C14 C 0.23969(18) 0.3510(2) 0.16164(11)
C15 C 0.08998(19) -0.3045(2) 0.23509(12)
H6 H 0.0730 -0.2670 0.2567
C16 C 0.6897(2) 0.3967(3) 0.40597(13)
C17 C 0.30170(18) 0.3505(2) 0.40379(11)
C18 C 0.2460(2) 0.3361(2) 0.42343(12)
C19 C 0.09151(19) -0.4225(2) 0.23376(12)
H7 H 0.0748 -0.4630 0.2548
C20 C -0.18738(19) 0.3544(3) 0.09509(12)
C21 C 0.40892(19) -0.2395(2) 0.26474(12)
H8 H 0.4256 -0.2013 0.2431
C22 C 0.1208(2) 0.0650(2) 0.24813(14)
H9 H 0.1277 0.1036 0.2797
C23 C 0.3766(2) 0.0109(2) 0.25113(14)
H10 H 0.3664 -0.0277 0.2185
C24 C 0.2017(2) 0.3934(3) 0.01407(14)
H11 H 0.2372 0.4041 -0.0002
C25 C 0.09534(19) 0.3579(2) 0.05375(12)
H12 H 0.0587 0.3440 0.0669
C26 C 0.1237(2) -0.0532(2) 0.24962(13)
H13 H 0.1330 -0.0924 0.2818
C27 C 0.0984(2) 0.0681(2) 0.15952(13)
H14 H 0.0900 0.1092 0.1280
C28 C 0.4056(2) 0.1319(2) 0.34224(13)
H15 H 0.4155 0.1728 0.3742
C29 C 0.2930(2) 0.3400(3) 0.48545(13)
H16 H 0.2568 0.3305 0.4992
C30 C 0.3599(2) 0.3764(4) 0.11670(15)
H17 H 0.3844 0.4459 0.1402
H18 H 0.3817 0.3710 0.0926
H19 H 0.3833 0.3114 0.1435
C31 C 0.1376(2) 0.3204(3) 0.38178(15)
H20 H 0.1078 0.3807 0.3520
H21 H 0.1142 0.3232 0.4050
H22 H 0.1216 0.2473 0.3618
C32 C 0.38532(17) -0.1775(2) 0.29631(11)
C33 C 0.4029(2) 0.0142(2) 0.34406(13)
H23 H 0.4115 -0.0222 0.3767
C34 C -0.2238(2) 0.4631(3) 0.08978(14)
H24 H -0.1812 0.5244 0.1103
C35 C 0.0995(2) -0.0496(2) 0.15749(13)
H25 H 0.0912 -0.0861 0.1250
C36 C 0.0493(2) 0.3747(3) -0.00681(13)
H26 H -0.0181 0.3732 -0.0344
C37 C 0.3808(2) 0.1284(2) 0.25332(14)
H27 H 0.3733 0.1670 0.2215
C38 C 0.4011(2) 0.3678(3) 0.44621(13)
H28 H 0.4382 0.3778 0.4331
C39 C 0.3910(2) 0.3575(3) 0.52692(14)
H29 H 0.4204 0.3605 0.5682
C40 C 0.4455(2) 0.3704(3) 0.50745(14)
H30 H 0.5123 0.3810 0.5355
C41 C 0.7343(2) 0.5035(3) 0.41553(14)
H31 H 0.6966 0.5691 0.3969
C42 C 0.1025(2) 0.3936(3) -0.02664(13)
H32 H 0.0714 0.4066 -0.0677
C43 C -0.3223(3) 0.4820(4) 0.05466(16)
H33 H -0.3463 0.5555 0.0512
C44 C 0.8342(3) 0.5114(5) 0.45256(17)
H34 H 0.8642 0.5822 0.4598
C45 C -0.3840(3) 0.3912(5) 0.02501(18)
H35 H -0.4507 0.4031 0.0009
C46 C -0.2500(2) 0.2614(3) 0.06553(14)
C47 C 0.8881(3) 0.4141(6) 0.4784(2)
H36 H 0.9554 0.4192 0.5034
C48 C -0.3492(3) 0.2833(5) 0.03030(17)
H37 H -0.3927 0.2227 0.0099
C49 C -0.2122(3) 0.1413(3) 0.07283(19)
H38 H -0.1620 0.1422 0.0685
H39 H -0.2642 0.0924 0.0423
H40 H -0.1864 0.1127 0.1124
C50 C 0.8456(3) 0.3095(5) 0.46835(18)
H41 H 0.8845 0.2444 0.4862
C51 C 0.7449(2) 0.2983(3) 0.43169(15)
C52 C 0.6985(3) 0.1841(4) 0.4196(2)
H42 H 0.6483 0.1891 0.4239
H43 H 0.7463 0.1290 0.4480
H44 H 0.6707 0.1604 0.3790
Mn1_2 Mn 0.10782(3) -0.67873(3) 0.205158(17)
Mn2_2 Mn 0.39410(3) -0.61403(3) 0.295404(17)
N2_2 N 0.11554(14) 0.51701(18) 0.20405(9)
N4_2 N 0.38398(14) 0.58153(18) 0.29520(9)
loop_
_geom_bond_atom_site_label_1
_geom_bond_atom_site_label_2
_geom_bond_site_symmetry_1
_geom_bond_site_symmetry_2
Mn1 O1 1_555 1_555
Mn2 O3 1_555 1_555
O1 C2 1_555 1_555
O2 Mn1 1_555 1_555
O3 C14 1_555 1_555
O4 Mn1 1_555 1_555
O5 Mn2 1_555 1_555
O6 Mn2 1_555 1_555
O7 Mn1 1_555 1_555
O8 Mn2 1_555 1_555
N1 Mn1 1_555 1_555
N2 C12 1_555 1_555
N3 Mn2 1_555 1_555
N4 C5 1_555 1_555
C1 C23 1_555 1_555
C2 O2 1_555 1_555
C3 C4 1_555 1_555
C4 C26 1_555 1_555
C5 H1 1_555 1_555
C6 N4 1_555 1_555
H2 C6 1_555 1_555
C7 C8 1_555 1_555
C8 C24 1_555 1_555
C9 C3 1_555 1_555
H3 C9 1_555 1_555
C10 C5 1_555 1_555
H4 C10 1_555 1_555
C11 O7 1_555 1_555
C12 C9 1_555 1_555
H5 C12 1_555 1_555
C13 O5 1_555 1_555
C14 O4 1_555 1_555
C15 C3 1_555 1_555
H6 C15 1_555 1_555
C16 C13 1_555 1_555
C17 C11 1_555 1_555
C18 C17 1_555 1_555
C19 N2 1_555 1_555
H7 C19 1_555 1_555
C20 C2 1_555 1_555
C21 C6 1_555 1_555
H8 C21 1_555 1_555
C22 N1 1_555 1_555
H9 C22 1_555 1_555
C23 H10 1_555 1_555
C24 H11 1_555 1_555
C25 C7 1_555 1_555
H12 C25 1_555 1_555
C26 C22 1_555 1_555
H13 C26 1_555 1_555
C27 N1 1_555 1_555
H14 C27 1_555 1_555
C28 N3 1_555 1_555
H15 C28 1_555 1_555
C29 C18 1_555 1_555
H16 C29 1_555 1_555
C30 C8 1_555 1_555
H17 C30 1_555 1_555
H18 C30 1_555 1_555
H19 C30 1_555 1_555
C31 C18 1_555 1_555
H20 C31 1_555 1_555
H21 C31 1_555 1_555
H22 C31 1_555 1_555
C32 C1 1_555 1_555
C33 C1 1_555 1_555
H23 C33 1_555 1_555
C34 C20 1_555 1_555
H24 C34 1_555 1_555
C35 C4 1_555 1_555
H25 C35 1_555 1_555
C36 C25 1_555 1_555
H26 C36 1_555 1_555
C37 N3 1_555 1_555
H27 C37 1_555 1_555
C38 C17 1_555 1_555
H28 C38 1_555 1_555
C39 C29 1_555 1_555
H29 C39 1_555 1_555
C40 C38 1_555 1_555
H30 C40 1_555 1_555
C41 C16 1_555 1_555
H31 C41 1_555 1_555
C42 C24 1_555 1_555
H32 C42 1_555 1_555
C43 C34 1_555 1_555
H33 C43 1_555 1_555
C44 C41 1_555 1_555
H34 C44 1_555 1_555
C45 C43 1_555 1_555
H35 C45 1_555 1_555
C46 C20 1_555 1_555
C47 C44 1_555 1_555
H36 C47 1_555 1_555
C48 C45 1_555 1_555
H37 C48 1_555 1_555
C49 C46 1_555 1_555
H38 C49 1_555 1_555
H39 C49 1_555 1_555
H40 C49 1_555 1_555
C50 C47 1_555 1_555
H41 C50 1_555 1_555
C51 C16 1_555 1_555
C52 C51 1_555 1_555
H42 C52 1_555 1_555
H43 C52 1_555 1_555
H44 C52 1_555 1_555
Mn1_2 N2 1_555 1_555
Mn2_2 N4 1_555 1_555
N2_2 Mn1 1_555 1_555
N4_2 Mn2 1_555 1_555
O6 C13 1_555 1_555
O8 C11 1_555 1_555
C7 C14 1_555 1_555
C10 C32 1_555 1_555
C15 C19 1_555 1_555
C21 C32 1_555 1_555
C23 C37 1_555 1_555
C27 C35 1_555 1_555
C28 C33 1_555 1_555
C36 C42 1_555 1_555
C39 C40 1_555 1_555
C46 C48 1_555 1_555
C50 C51 1_555 1_555

#END
