
#######################################################################
#
#                 Cambridge Crystallographic Data Centre
#                                CCDC 
#
#######################################################################
#
# If this CIF has been generated from an entry in the Cambridge 
# Structural Database, then it will include bibliographic, chemical, 
# crystal, experimental, refinement or atomic coordinate data resulting 
# from the CCDC's data processing and validation procedures.
#
#######################################################################

data_TENTUD01
_symmetry_cell_setting           monoclinic
_symmetry_space_group_name_H-M   'P 21/c'
_symmetry_Int_Tables_number      14
_space_group_name_Hall           '-P 2ybc'
loop_
_symmetry_equiv_pos_site_id
_symmetry_equiv_pos_as_xyz
1 x,y,z
2 -x,1/2+y,1/2-z
3 -x,-y,-z
4 x,1/2-y,1/2+z
_cell_length_a                   17.737(3)
_cell_length_b                   11.669(2)
_cell_length_c                   28.449(8)
_cell_angle_alpha                90
_cell_angle_beta                 128.29(2)
_cell_angle_gamma                90
_cell_volume                     4621.54
loop_
_atom_site_label
_atom_site_type_symbol
_atom_site_fract_x
_atom_site_fract_y
_atom_site_fract_z
Mn1 Mn 0.39236(6) 0.67364(6) 0.29457(4)
Mn2 Mn 0.10603(6) 0.61757(6) 0.20475(4)
O1 O 0.5312(3) 0.6596(3) 0.31054(17)
O2 O 0.5391(3) 0.6658(3) 0.38954(17)
C1 C 0.6862(4) 0.6394(5) 0.4039(3)
C2 C 0.7471(6) 0.7331(7) 0.4321(3)
C3 C 0.8463(8) 0.7109(10) 0.4676(4)
H1 H 0.8890 0.7717 0.4873
C4 C 0.8820(8) 0.6033(12) 0.4741(5)
H2 H 0.9479 0.5909 0.4983
C5 C 0.8198(7) 0.5146(9) 0.4446(4)
H3 H 0.8436 0.4417 0.4477
C6 C 0.7219(5) 0.5309(6) 0.4100(3)
H4 H 0.6802 0.4691 0.3910
C7 C 0.5800(4) 0.6562(4) 0.3668(3)
C8 C 0.7101(7) 0.8523(6) 0.4249(4)
H5 H 0.6412 0.8511 0.3992
H6 H 0.7311 0.9000 0.4074
H7 H 0.7344 0.8824 0.4633
O3 O 0.3123(3) 0.6866(3) 0.32556(17)
O4 O 0.1756(3) 0.6149(3) 0.29805(16)
C9 C 0.3024(4) 0.6387(4) 0.4022(2)
C10 C 0.2478(5) 0.6249(5) 0.4217(3)
C11 C 0.2958(6) 0.6108(5) 0.4825(3)
H8 H 0.2600 0.6011 0.4960
C12 C 0.3934(6) 0.6107(6) 0.5234(3)
H9 H 0.4230 0.5997 0.5638
C13 C 0.4481(5) 0.6268(5) 0.5047(3)
H10 H 0.5148 0.6278 0.5322
C14 C 0.4024(4) 0.6413(5) 0.4446(3)
H11 H 0.4390 0.6533 0.4319
C15 C 0.2595(4) 0.6473(4) 0.3373(2)
C16 C 0.1401(5) 0.6260(6) 0.3811(3)
H12 H 0.1159 0.6358 0.3405
H13 H 0.1183 0.6881 0.3921
H14 H 0.1171 0.5548 0.3849
N1 N 0.3847(3) 0.4769(3) 0.29509(19)
N2 N 0.3911(3) -0.1303(3) 0.2957(2)
C17 C 0.3638(4) 0.4161(4) 0.3255(2)
H15 H 0.3484 0.4559 0.3468
C18 C 0.3636(4) 0.2994(4) 0.3271(2)
H16 H 0.3487 0.2618 0.3492
C19 C 0.3858(4) 0.2367(4) 0.2955(2)
C20 C 0.3875(4) 0.1092(3) 0.2957(2)
C21 C 0.3971(5) 0.0455(4) 0.3396(3)
H17 H 0.4031 0.0824 0.3707
C22 C 0.3981(5) -0.0724(4) 0.3383(3)
H18 H 0.4040 -0.1129 0.3685
C23 C 0.3832(5) -0.0698(4) 0.2542(3)
H19 H 0.3788 -0.1084 0.2240
C24 C 0.3808(5) 0.0475(4) 0.2527(3)
H20 H 0.3746 0.0856 0.2218
C25 C 0.4073(4) 0.2993(4) 0.2634(2)
H21 H 0.4226 0.2619 0.2414
C26 C 0.4058(4) 0.4170(4) 0.2647(3)
H22 H 0.4204 0.4573 0.2430
O5 O -0.0331(3) 0.6023(3) 0.18892(17)
O6 O -0.0402(3) 0.6224(3) 0.11056(17)
C27 C -0.1886(5) 0.6040(5) 0.0947(3)
C28 C -0.2441(6) 0.7025(7) 0.0692(3)
C29 C -0.3440(7) 0.6910(11) 0.0323(5)
H23 H -0.3825 0.7556 0.0139
C30 C -0.3857(9) 0.5875(14) 0.0229(5)
H24 H -0.4523 0.5815 -0.0021
C31 C -0.3298(7) 0.4908(10) 0.0502(4)
H25 H -0.3593 0.4204 0.0440
C32 C -0.2319(5) 0.4966(6) 0.0860(3)
H26 H -0.1946 0.4312 0.1043
C33 C -0.0817(4) 0.6109(4) 0.1332(3)
C34 C -0.1998(7) 0.8167(7) 0.0795(4)
H27 H -0.1311 0.8092 0.1058
H28 H -0.2187 0.8665 0.0974
H29 H -0.2209 0.8484 0.0420
O7 O 0.1872(3) 0.6154(3) 0.17478(17)
O8 O 0.3247(3) 0.6806(3) 0.20167(16)
C35 C 0.1991(4) 0.6483(4) 0.0980(2)
C36 C 0.2549(5) 0.6595(5) 0.0787(3)
C37 C 0.2072(6) 0.6546(6) 0.0171(3)
H30 H 0.2430 0.6608 0.0034
C38 C 0.1097(6) 0.6411(6) -0.0238(3)
H31 H 0.0803 0.6387 -0.0645
C39 C 0.0553(5) 0.6310(6) -0.0046(3)
H32 H -0.0110 0.6224 -0.0321
C40 C 0.1006(5) 0.6340(5) 0.0557(3)
H33 H 0.0640 0.6261 0.0687
C41 C 0.2408(4) 0.6493(4) 0.1627(2)
C42 C 0.3620(5) 0.6719(6) 0.1205(3)
H34 H 0.3843 0.6741 0.1611
H35 H 0.3796 0.7417 0.1117
H36 H 0.3905 0.6079 0.1156
N3 N 0.1059(3) 0.8136(3) 0.2024(2)
N4 N 0.1159(3) 1.4212(3) 0.20517(19)
C43 C 0.0973(5) 0.8726(4) 0.1597(3)
H37 H 0.0883 0.8322 0.1283
C44 C 0.1010(5) 0.9896(4) 0.1587(3)
H38 H 0.0964 1.0262 0.1280
C45 C 0.1115(3) 1.0537(4) 0.2034(2)
C46 C 0.1147(4) 1.1809(4) 0.2042(2)
C47 C 0.1359(4) 1.2442(4) 0.1723(2)
H39 H 0.1496 1.2066 0.1496
C48 C 0.1367(4) 1.3609(4) 0.1742(2)
H40 H 0.1523 1.4008 0.1530
C49 C 0.0941(4) 1.3605(4) 0.2356(3)
H41 H 0.0788 1.4002 0.2570
C50 C 0.0932(4) 1.2434(4) 0.2365(2)
H42 H 0.0784 1.2054 0.2585
C51 C 0.1194(5) 0.9926(4) 0.2474(3)
H43 H 0.1273 1.0307 0.2789
C52 C 0.1157(5) 0.8763(4) 0.2449(3)
H44 H 0.1204 0.8376 0.2752
Mn1_2 Mn 0.39236(6) -0.32636(6) 0.29457(4)
Mn2_2 Mn 0.10603(6) 1.61757(6) 0.20475(4)
N2_2 N 0.3911(3) 0.8697(3) 0.2957(2)
N4_2 N 0.1159(3) 0.4212(3) 0.20517(19)
loop_
_geom_bond_atom_site_label_1
_geom_bond_atom_site_label_2
_geom_bond_site_symmetry_1
_geom_bond_site_symmetry_2
Mn1 O1 1_555 1_555
Mn2 O4 1_555 1_555
O1 C7 1_555 1_555
O2 Mn1 1_555 1_555
C1 C2 1_555 1_555
C2 C3 1_555 1_555
C3 H1 1_555 1_555
C4 C3 1_555 1_555
H2 C4 1_555 1_555
C5 C4 1_555 1_555
H3 C5 1_555 1_555
C6 C1 1_555 1_555
H4 C6 1_555 1_555
C7 O2 1_555 1_555
C8 C2 1_555 1_555
H5 C8 1_555 1_555
H6 C8 1_555 1_555
H7 C8 1_555 1_555
O3 Mn1 1_555 1_555
O4 C15 1_555 1_555
C9 C10 1_555 1_555
C10 C11 1_555 1_555
C11 H8 1_555 1_555
C12 C11 1_555 1_555
H9 C12 1_555 1_555
C13 C12 1_555 1_555
H10 C13 1_555 1_555
C14 C9 1_555 1_555
H11 C14 1_555 1_555
C15 O3 1_555 1_555
C16 C10 1_555 1_555
H12 C16 1_555 1_555
H13 C16 1_555 1_555
H14 C16 1_555 1_555
N1 Mn1 1_555 1_555
N2 C22 1_555 1_555
C17 N1 1_555 1_555
H15 C17 1_555 1_555
C18 C17 1_555 1_555
H16 C18 1_555 1_555
C19 C18 1_555 1_555
C20 C19 1_555 1_555
C21 C20 1_555 1_555
H17 C21 1_555 1_555
C22 C21 1_555 1_555
H18 C22 1_555 1_555
C23 N2 1_555 1_555
H19 C23 1_555 1_555
C24 C20 1_555 1_555
H20 C24 1_555 1_555
C25 C19 1_555 1_555
H21 C25 1_555 1_555
C26 N1 1_555 1_555
H22 C26 1_555 1_555
O5 Mn2 1_555 1_555
O6 Mn2 1_555 1_555
C27 C28 1_555 1_555
C28 C29 1_555 1_555
C29 H23 1_555 1_555
C30 C29 1_555 1_555
H24 C30 1_555 1_555
C31 C30 1_555 1_555
H25 C31 1_555 1_555
C32 C27 1_555 1_555
H26 C32 1_555 1_555
C33 O5 1_555 1_555
C34 C28 1_555 1_555
H27 C34 1_555 1_555
H28 C34 1_555 1_555
H29 C34 1_555 1_555
O7 Mn2 1_555 1_555
O8 Mn1 1_555 1_555
C35 C36 1_555 1_555
C36 C37 1_555 1_555
C37 H30 1_555 1_555
C38 C37 1_555 1_555
H31 C38 1_555 1_555
C39 C38 1_555 1_555
H32 C39 1_555 1_555
C40 C35 1_555 1_555
H33 C40 1_555 1_555
C41 O7 1_555 1_555
C42 C36 1_555 1_555
H34 C42 1_555 1_555
H35 C42 1_555 1_555
H36 C42 1_555 1_555
N3 Mn2 1_555 1_555
N4 C48 1_555 1_555
C43 N3 1_555 1_555
H37 C43 1_555 1_555
C44 C43 1_555 1_555
H38 C44 1_555 1_555
C45 C44 1_555 1_555
C46 C45 1_555 1_555
C47 C46 1_555 1_555
H39 C47 1_555 1_555
C48 C47 1_555 1_555
H40 C48 1_555 1_555
C49 N4 1_555 1_555
H41 C49 1_555 1_555
C50 C46 1_555 1_555
H42 C50 1_555 1_555
C51 C45 1_555 1_555
H43 C51 1_555 1_555
C52 N3 1_555 1_555
H44 C52 1_555 1_555
Mn1_2 N2 1_555 1_555
Mn2_2 N4 1_555 1_555
N2_2 Mn1 1_555 1_555
N4_2 Mn2 1_555 1_555
C1 C7 1_555 1_555
C5 C6 1_555 1_555
C9 C15 1_555 1_555
C13 C14 1_555 1_555
C23 C24 1_555 1_555
C25 C26 1_555 1_555
O6 C33 1_555 1_555
C27 C33 1_555 1_555
C31 C32 1_555 1_555
O8 C41 1_555 1_555
C35 C41 1_555 1_555
C39 C40 1_555 1_555
C49 C50 1_555 1_555
C51 C52 1_555 1_555

#END
