
#######################################################################
#
#                 Cambridge Crystallographic Data Centre
#                                CCDC 
#
#######################################################################
#
# If this CIF has been generated from an entry in the Cambridge 
# Structural Database, then it will include bibliographic, chemical, 
# crystal, experimental, refinement or atomic coordinate data resulting 
# from the CCDC's data processing and validation procedures.
#
#######################################################################

data_TENVAL
_symmetry_cell_setting           monoclinic
_symmetry_space_group_name_H-M   'C 2/c'
_symmetry_Int_Tables_number      15
_space_group_name_Hall           '-C 2yn'
loop_
_symmetry_equiv_pos_site_id
_symmetry_equiv_pos_as_xyz
1 x,y,z
2 -x,y,1/2-z
3 1/2+x,1/2+y,z
4 1/2-x,1/2+y,1/2-z
5 -x,-y,-z
6 x,-y,1/2+z
7 1/2-x,1/2-y,-z
8 1/2+x,1/2-y,1/2+z
_cell_length_a                   16.079(4)
_cell_length_b                   11.652(5)
_cell_length_c                   24.887(5)
_cell_angle_alpha                90
_cell_angle_beta                 92.02(3)
_cell_angle_gamma                90
_cell_volume                     4659.74
loop_
_atom_site_label
_atom_site_type_symbol
_atom_site_fract_x
_atom_site_fract_y
_atom_site_fract_z
Mn1 Mn 0.10287(3) 1.42671(4) 0.29940(2)
O1 O 0.13152(15) 1.4353(2) 0.38764(9)
O2 O 0.23680(16) 1.4200(2) 0.33444(10)
O3 O 0.15564(15) 1.4116(2) 0.22123(9)
O4 O 0.02738(15) 1.4372(2) 0.19034(10)
N1 N 0.09676(17) 1.2291(2) 0.29837(11)
N2 N 0.10013(17) 0.6214(2) 0.29417(11)
C1 C 0.1542(2) 1.1706(3) 0.27253(15)
H1 H 0.1955 1.2128 0.2546
C2 C 0.1574(2) 1.0522(3) 0.27018(14)
H2 H 0.1998 1.0149 0.2511
C3 C 0.0979(2) 0.9890(3) 0.29604(13)
C4 C 0.0379(2) 1.0496(3) 0.32316(14)
H3 H -0.0042 1.0098 0.3415
C5 C 0.0399(2) 1.1682(3) 0.32327(15)
H4 H -0.0016 1.2082 0.3421
C6 C 0.1258(2) 0.6824(3) 0.25276(13)
H5 H 0.1445 0.6422 0.2222
C7 C 0.1268(2) 0.8013(3) 0.25155(14)
H6 H 0.1471 0.8408 0.2213
C8 C 0.09794(19) 0.8617(3) 0.29512(13)
C9 C 0.0703(2) 0.7982(3) 0.33811(14)
H7 H 0.0500 0.8358 0.3689
C10 C 0.0724(2) 0.6800(3) 0.33582(14)
H8 H 0.0531 0.6380 0.3656
C11 C 0.2087(2) 1.4260(3) 0.38081(14)
C12 C 0.2671(2) 1.4218(3) 0.42888(15)
C13 C 0.3520(3) 1.4247(5) 0.4225(2)
H9 H 0.3734 1.4285 0.3874
C14 C 0.4056(3) 1.4220(6) 0.4666(2)
H10 H 0.4639 1.4263 0.4623
C15 C 0.3746(4) 1.4130(5) 0.5171(2)
H11 H 0.4125 1.4092 0.5473
C16 C 0.2900(3) 1.4092(4) 0.52555(17)
C17 C 0.2369(3) 1.4146(3) 0.48000(15)
H12 H 0.1785 1.4132 0.4843
C18 C 0.2547(4) 1.3994(5) 0.58078(18)
H13 H 0.2578 1.4742 0.5988
H14 H 0.2869 1.3430 0.6020
H15 H 0.1965 1.3747 0.5774
C19 C 0.1002(2) 1.4054(3) 0.18446(13)
C20 C 0.1232(2) 1.3543(3) 0.13178(13)
C21 C 0.1943(3) 1.2866(4) 0.12889(17)
H16 H 0.2309 1.2783 0.1594
C22 C 0.2111(3) 1.2319(5) 0.0815(2)
H17 H 0.2588 1.1843 0.0796
C23 C 0.1595(4) 1.2456(5) 0.0373(2)
H18 H 0.1711 1.2055 0.0051
C24 C 0.0900(3) 1.3175(4) 0.03820(16)
C25 C 0.0717(2) 1.3692(3) 0.08661(14)
H19 H 0.0233 1.4154 0.0887
C26 C 0.0352(4) 1.3391(6) -0.01165(19)
H20 H -0.0222 1.3523 -0.0011
H21 H 0.0369 1.2722 -0.0354
H22 H 0.0554 1.4068 -0.0306
Mn1A Mn -0.10287(3) 1.42671(4) 0.20060(2)
Mn1_2 Mn 0.10287(3) 0.42671(4) 0.29940(2)
O4A O -0.02738(15) 1.4372(2) 0.30966(10)
N2_2 N 0.10013(17) 1.6214(2) 0.29417(11)
loop_
_geom_bond_atom_site_label_1
_geom_bond_atom_site_label_2
_geom_bond_site_symmetry_1
_geom_bond_site_symmetry_2
Mn1 O1 1_555 1_555
O1 C11 1_555 1_555
O2 Mn1 1_555 1_555
O3 Mn1 1_555 1_555
O4 C19 1_555 1_555
N1 Mn1 1_555 1_555
N2 C6 1_555 1_555
C1 N1 1_555 1_555
H1 C1 1_555 1_555
C2 C1 1_555 1_555
H2 C2 1_555 1_555
C3 C2 1_555 1_555
C4 C3 1_555 1_555
H3 C4 1_555 1_555
C5 N1 1_555 1_555
H4 C5 1_555 1_555
C6 H5 1_555 1_555
C7 C6 1_555 1_555
H6 C7 1_555 1_555
C8 C3 1_555 1_555
C9 C8 1_555 1_555
H7 C9 1_555 1_555
C10 N2 1_555 1_555
H8 C10 1_555 1_555
C11 O2 1_555 1_555
C12 C11 1_555 1_555
C13 C12 1_555 1_555
H9 C13 1_555 1_555
C14 C13 1_555 1_555
H10 C14 1_555 1_555
C15 C14 1_555 1_555
H11 C15 1_555 1_555
C16 C15 1_555 1_555
C17 C12 1_555 1_555
H12 C17 1_555 1_555
C18 C16 1_555 1_555
H13 C18 1_555 1_555
H14 C18 1_555 1_555
H15 C18 1_555 1_555
C19 O3 1_555 1_555
C20 C19 1_555 1_555
C21 C20 1_555 1_555
H16 C21 1_555 1_555
C22 C21 1_555 1_555
H17 C22 1_555 1_555
C23 C22 1_555 1_555
H18 C23 1_555 1_555
C24 C23 1_555 1_555
C25 C20 1_555 1_555
H19 C25 1_555 1_555
C26 C24 1_555 1_555
H20 C26 1_555 1_555
H21 C26 1_555 1_555
H22 C26 1_555 1_555
Mn1A O4 1_555 1_555
Mn1_2 N2 1_555 1_555
O4A Mn1 1_555 1_555
N2_2 Mn1 1_555 1_555
C4 C5 1_555 1_555
C7 C8 1_555 1_555
C9 C10 1_555 1_555
C16 C17 1_555 1_555
C24 C25 1_555 1_555

#END
