
#######################################################################
#
#                 Cambridge Crystallographic Data Centre
#                                CCDC 
#
#######################################################################
#
# If this CIF has been generated from an entry in the Cambridge 
# Structural Database, then it will include bibliographic, chemical, 
# crystal, experimental, refinement or atomic coordinate data resulting 
# from the CCDC's data processing and validation procedures.
#
#######################################################################

data_TENVAL01
_symmetry_cell_setting           monoclinic
_symmetry_space_group_name_H-M   'C 2/c'
_symmetry_Int_Tables_number      15
_space_group_name_Hall           '-C 2yn'
loop_
_symmetry_equiv_pos_site_id
_symmetry_equiv_pos_as_xyz
1 x,y,z
2 -x,y,1/2-z
3 1/2+x,1/2+y,z
4 1/2-x,1/2+y,1/2-z
5 -x,-y,-z
6 x,-y,1/2+z
7 1/2-x,1/2-y,-z
8 1/2+x,1/2-y,1/2+z
_cell_length_a                   16.0801(7)
_cell_length_b                   11.6597(6)
_cell_length_c                   24.9489(11)
_cell_angle_alpha                90
_cell_angle_beta                 91.994(2)
_cell_angle_gamma                90
_cell_volume                     4674.82
loop_
_atom_site_label
_atom_site_type_symbol
_atom_site_fract_x
_atom_site_fract_y
_atom_site_fract_z
Mn1 Mn 0.39720(2) 0.57387(3) 0.200613(13)
O1 O 0.34461(10) 0.58894(12) 0.27869(6)
O2 O 0.47271(11) 0.56365(14) 0.30948(7)
C1 C 0.37688(15) 0.64594(19) 0.36821(9)
C2 C 0.42833(17) 0.6313(2) 0.41335(9)
H1 H 0.4758 0.5862 0.4112
C3 C 0.4102(2) 0.6828(3) 0.46182(11)
C4 C 0.3411(3) 0.7537(3) 0.46281(14)
H2 H 0.3297 0.7924 0.4943
C5 C 0.2891(2) 0.7683(3) 0.41832(14)
H3 H 0.2423 0.8148 0.4202
C6 C 0.30659(18) 0.7139(2) 0.37112(11)
H4 H 0.2712 0.7227 0.3411
C7 C 0.39942(14) 0.59543(17) 0.31568(9)
C8 C 0.4648(3) 0.6618(4) 0.51150(13)
H5 H 0.4434 0.7039 0.5411
H6 H 0.5205 0.6867 0.5051
H7 H 0.4651 0.5814 0.5198
O3 O 0.26321(12) 0.58082(15) 0.16573(7)
O4 O 0.36833(12) 0.56546(15) 0.11253(6)
C9 C 0.23294(17) 0.5781(2) 0.07135(10)
C10 C 0.2632(2) 0.5852(2) 0.02026(11)
H8 H 0.3205 0.5868 0.0161
C11 C 0.2102(2) 0.5902(3) -0.02512(12)
C12 C 0.1257(3) 0.5866(4) -0.01694(17)
H9 H 0.0888 0.5896 -0.0464
C13 C 0.0947(2) 0.5786(4) 0.03344(17)
H10 H 0.0375 0.5755 0.0376
C14 C 0.1482(2) 0.5752(3) 0.07802(14)
H11 H 0.1273 0.5710 0.1122
C15 C 0.29147(17) 0.57441(19) 0.11949(10)
C16 C 0.2454(3) 0.6003(3) -0.08034(12)
H12 H 0.2007 0.6027 -0.1068
H13 H 0.2802 0.5352 -0.0869
H14 H 0.2778 0.6692 -0.0824
N1 N 0.40012(12) 0.37900(15) 0.20583(7)
C17 C 0.42764(17) 0.32038(19) 0.16426(10)
H15 H 0.4464 0.3612 0.1350
C18 C 0.37395(15) 0.31780(18) 0.24705(9)
H16 H 0.3551 0.3570 0.2767
C19 C 0.42971(16) 0.20289(19) 0.16227(9)
H17 H 0.4499 0.1661 0.1323
C20 C 0.37326(15) 0.19962(18) 0.24825(9)
H18 H 0.3539 0.1610 0.2779
C21 C 0.40176(14) 0.13899(18) 0.20477(8)
C22 C 0.40207(14) 0.01152(17) 0.20377(8)
C23 C 0.46169(16) -0.04929(18) 0.17691(10)
H19 H 0.5030 -0.0105 0.1590
C24 C 0.34288(15) -0.05146(18) 0.22964(9)
H20 H 0.3016 -0.0148 0.2484
C25 C 0.45966(16) -0.16691(19) 0.17678(10)
H21 H 0.5002 -0.2057 0.1582
C26 C 0.34580(15) -0.16960(18) 0.22724(10)
H22 H 0.3051 -0.2106 0.2446
N2 N 0.40324(12) -0.22878(15) 0.20167(7)
Mn1_2 Mn 0.39720(2) -0.42613(3) 0.200613(13)
Mn1A Mn 0.60280(2) 0.57387(3) 0.299387(13)
O2A O 0.52729(11) 0.56365(14) 0.19052(7)
N2_2 N 0.40324(12) 0.77122(15) 0.20167(7)
loop_
_geom_bond_atom_site_label_1
_geom_bond_atom_site_label_2
_geom_bond_site_symmetry_1
_geom_bond_site_symmetry_2
Mn1 O1 1_555 1_555
O1 C7 1_555 1_555
O2 C7 1_555 1_555
C1 C2 1_555 1_555
C2 H1 1_555 1_555
C3 C2 1_555 1_555
C4 C3 1_555 1_555
H2 C4 1_555 1_555
C5 C4 1_555 1_555
H3 C5 1_555 1_555
C6 C1 1_555 1_555
H4 C6 1_555 1_555
C7 C1 1_555 1_555
C8 C3 1_555 1_555
H5 C8 1_555 1_555
H6 C8 1_555 1_555
H7 C8 1_555 1_555
O3 Mn1 1_555 1_555
O4 Mn1 1_555 1_555
C9 C10 1_555 1_555
C10 H8 1_555 1_555
C11 C10 1_555 1_555
C12 C11 1_555 1_555
H9 C12 1_555 1_555
C13 C12 1_555 1_555
H10 C13 1_555 1_555
C14 C9 1_555 1_555
H11 C14 1_555 1_555
C15 O3 1_555 1_555
C16 C11 1_555 1_555
H12 C16 1_555 1_555
H13 C16 1_555 1_555
H14 C16 1_555 1_555
N1 Mn1 1_555 1_555
C17 N1 1_555 1_555
H15 C17 1_555 1_555
C18 N1 1_555 1_555
H16 C18 1_555 1_555
C19 C17 1_555 1_555
H17 C19 1_555 1_555
C20 C18 1_555 1_555
H18 C20 1_555 1_555
C21 C19 1_555 1_555
C22 C21 1_555 1_555
C23 C22 1_555 1_555
H19 C23 1_555 1_555
C24 C22 1_555 1_555
H20 C24 1_555 1_555
C25 C23 1_555 1_555
H21 C25 1_555 1_555
C26 C24 1_555 1_555
H22 C26 1_555 1_555
N2 C25 1_555 1_555
Mn1_2 N2 1_555 1_555
Mn1A O2 1_555 1_555
O2A Mn1 1_555 1_555
N2_2 Mn1 1_555 1_555
C5 C6 1_555 1_555
O4 C15 1_555 1_555
C9 C15 1_555 1_555
C13 C14 1_555 1_555
C20 C21 1_555 1_555
C26 N2 1_555 1_555

#END
