
#######################################################################
#
#                 Cambridge Crystallographic Data Centre
#                                CCDC 
#
#######################################################################
#
# If this CIF has been generated from an entry in the Cambridge 
# Structural Database, then it will include bibliographic, chemical, 
# crystal, experimental, refinement or atomic coordinate data resulting 
# from the CCDC's data processing and validation procedures.
#
#######################################################################

data_TENYOC
_symmetry_cell_setting           monoclinic
_symmetry_space_group_name_H-M   'P 21'
_symmetry_Int_Tables_number      4
_space_group_name_Hall           'P 2yb'
loop_
_symmetry_equiv_pos_site_id
_symmetry_equiv_pos_as_xyz
1 x,y,z
2 -x,1/2+y,-z
_cell_length_a                   12.847(3)
_cell_length_b                   7.4420(15)
_cell_length_c                   13.875(3)
_cell_angle_alpha                90
_cell_angle_beta                 106.04(3)
_cell_angle_gamma                90
_cell_volume                     1274.91
loop_
_atom_site_label
_atom_site_type_symbol
_atom_site_fract_x
_atom_site_fract_y
_atom_site_fract_z
S1 S 0.65991(6) 0.61196(10) 0.41707(5)
C1 C 0.2828(2) 0.2601(4) 0.0874(2)
H1 H 0.2868 0.2993 0.0219
H2 H 0.3112 0.1387 0.0977
C2 C 0.1644(3) 0.2567(4) 0.0878(3)
H3 H 0.1236 0.1824 0.0328
H4 H 0.1586 0.2036 0.1499
C3 C 0.1163(2) 0.4445(5) 0.0772(2)
H5 H 0.0433 0.4377 0.0841
H6 H 0.1114 0.4886 0.0103
C4 C 0.1817(2) 0.5808(4) 0.1544(2)
C5 C 0.3042(2) 0.5736(3) 0.15622(19)
H7 H 0.3051 0.6127 0.0890
C6 C 0.3776(2) 0.7080(4) 0.2273(2)
H8 H 0.3435 0.8254 0.2190
H9 H 0.3874 0.6702 0.2962
C7 C 0.4877(2) 0.7207(4) 0.2062(2)
H10 H 0.4774 0.7754 0.1407
H11 H 0.5331 0.8010 0.2552
C8 C 0.5484(2) 0.5446(4) 0.2079(2)
C9 C 0.4683(2) 0.4014(4) 0.1451(2)
H12 H 0.4513 0.4448 0.0758
C10 C 0.3553(2) 0.3831(4) 0.1675(2)
C11 C 0.5275(2) 0.2207(4) 0.1441(2)
H13 H 0.5399 0.1636 0.2091
H14 H 0.4815 0.1419 0.0945
C12 C 0.6362(3) 0.2441(5) 0.1200(3)
H15 H 0.6227 0.2686 0.0489
H16 H 0.6765 0.1325 0.1343
C13 C 0.7061(2) 0.3978(5) 0.1803(2)
C14 C 0.6415(2) 0.5703(5) 0.1586(2)
H17 H 0.6131 0.5889 0.0869
H18 H 0.6860 0.6726 0.1875
C15 C 0.6117(2) 0.4611(4) 0.31191(19)
H19 H 0.5652 0.3705 0.3304
C16 C 0.7075(2) 0.3644(4) 0.2889(2)
C17 C 0.8187(3) 0.4041(7) 0.1644(3)
H20 H 0.8593 0.5007 0.2030
H21 H 0.8125 0.4232 0.0946
H22 H 0.8553 0.2924 0.1855
C18 C 0.3645(2) 0.3014(4) 0.2714(2)
H23 H 0.2938 0.2928 0.2816
H24 H 0.4096 0.3767 0.3223
H25 H 0.3960 0.1837 0.2751
C19 C 0.1364(3) 0.7704(4) 0.1209(3)
H26 H 0.0615 0.7757 0.1200
H27 H 0.1431 0.7947 0.0549
H28 H 0.1766 0.8584 0.1670
C20 C 0.1665(2) 0.5582(4) 0.2592(2)
C21 C 0.9791(4) 0.5072(7) 0.6572(4)
H29 H 0.9178 0.5084 0.6851
H30 H 1.0066 0.6289 0.6589
C22 C 1.0621(4) 0.3918(8) 0.7159(4)
H31 H 1.0854 0.4358 0.7835
H32 H 1.1224 0.3901 0.6877
H33 H 1.0339 0.2723 0.7158
O1 O 0.7303(2) 0.7414(4) 0.38824(19)
O2 O 0.71781(19) 0.4971(4) 0.49814(16)
O3 O 0.56572(18) 0.6926(3) 0.43559(16)
O4 O 0.77381(18) 0.2723(4) 0.34749(16)
O5 O 0.2063(2) 0.6622(3) 0.32633(17)
O6 O 0.1047(2) 0.4250(3) 0.27106(18)
O7 O 0.9453(3) 0.4452(5) 0.5562(3)
H34 H 0.890(4) 0.504(5) 0.539(5)
Na1 Na 0.76362(13) 0.1919(2) 0.50726(10)
O8 O 0.88575(19) -0.0662(3) 0.53024(18)
O9 O 0.5857(3) 0.0821(4) 0.4552(2)
H35 H 0.105(3) 0.420(5) 0.3321(10)
H36 H 0.563(3) -0.015(3) 0.426(3)
H37 H 0.5373(10) 0.110(4) 0.4833(17)
H38 H 0.9590 -0.0733 0.5154
H39 H 0.8415 -0.1499 0.4784
O5A O 0.7937(2) 0.1622(3) 0.67367(17)
Na1A Na 0.23638(13) 0.6919(2) 0.49274(10)
loop_
_geom_bond_atom_site_label_1
_geom_bond_atom_site_label_2
_geom_bond_site_symmetry_1
_geom_bond_site_symmetry_2
S1 C15 1_555 1_555
C1 H1 1_555 1_555
H2 C1 1_555 1_555
C2 C1 1_555 1_555
H3 C2 1_555 1_555
H4 C2 1_555 1_555
C3 C2 1_555 1_555
H5 C3 1_555 1_555
H6 C3 1_555 1_555
C4 C3 1_555 1_555
C5 C4 1_555 1_555
H7 C5 1_555 1_555
C6 C5 1_555 1_555
H8 C6 1_555 1_555
H9 C6 1_555 1_555
C7 C6 1_555 1_555
H10 C7 1_555 1_555
H11 C7 1_555 1_555
C8 C7 1_555 1_555
C9 C8 1_555 1_555
H12 C9 1_555 1_555
C10 C1 1_555 1_555
C11 C9 1_555 1_555
H13 C11 1_555 1_555
H14 C11 1_555 1_555
C12 C11 1_555 1_555
H15 C12 1_555 1_555
H16 C12 1_555 1_555
C13 C12 1_555 1_555
C14 C8 1_555 1_555
H17 C14 1_555 1_555
H18 C14 1_555 1_555
C15 C8 1_555 1_555
H19 C15 1_555 1_555
C16 C13 1_555 1_555
C17 C13 1_555 1_555
H20 C17 1_555 1_555
H21 C17 1_555 1_555
H22 C17 1_555 1_555
C18 C10 1_555 1_555
H23 C18 1_555 1_555
H24 C18 1_555 1_555
H25 C18 1_555 1_555
C19 C4 1_555 1_555
H26 C19 1_555 1_555
H27 C19 1_555 1_555
H28 C19 1_555 1_555
C20 C4 1_555 1_555
C21 H29 1_555 1_555
H30 C21 1_555 1_555
C22 C21 1_555 1_555
H31 C22 1_555 1_555
H32 C22 1_555 1_555
H33 C22 1_555 1_555
O1 S1 1_555 1_555
O2 S1 1_555 1_555
O3 S1 1_555 1_555
O4 C16 1_555 1_555
O5 C20 1_555 1_555
O6 C20 1_555 1_555
O7 C21 1_555 1_555
H34 O7 1_555 1_555
Na1 O2 1_555 1_555
O8 Na1 1_555 1_555
O9 Na1 1_555 1_555
H35 O6 1_555 1_555
H36 O9 1_555 1_555
H37 O9 1_555 1_555
H38 O8 1_555 1_555
H39 O8 1_555 1_555
O5A Na1 1_555 1_555
Na1A O5 1_555 1_555
C5 C10 1_555 1_555
C9 C10 1_555 1_555
C13 C14 1_555 1_555
C15 C16 1_555 1_555
O4 Na1 1_555 1_555
O7 Na1 1_555 1_555

#END
