
#######################################################################
#
#                 Cambridge Crystallographic Data Centre
#                                CCDC 
#
#######################################################################
#
# If this CIF has been generated from an entry in the Cambridge 
# Structural Database, then it will include bibliographic, chemical, 
# crystal, experimental, refinement or atomic coordinate data resulting 
# from the CCDC's data processing and validation procedures.
#
#######################################################################

data_TENZUH
_symmetry_cell_setting           monoclinic
_symmetry_space_group_name_H-M   'C c'
_symmetry_Int_Tables_number      9
_space_group_name_Hall           'C -2yc'
loop_
_symmetry_equiv_pos_site_id
_symmetry_equiv_pos_as_xyz
1 x,y,z
2 x,-y,1/2+z
3 1/2+x,1/2+y,z
4 1/2+x,1/2-y,1/2+z
_cell_length_a                   10.286(3)
_cell_length_b                   13.701(3)
_cell_length_c                   21.974(4)
_cell_angle_alpha                90
_cell_angle_beta                 93.24(2)
_cell_angle_gamma                90
_cell_volume                     3091.81
loop_
_atom_site_label
_atom_site_type_symbol
_atom_site_fract_x
_atom_site_fract_y
_atom_site_fract_z
Cu1 Cu 0.549 0.08029(9) 0.604
S1 S -0.2274(3) 0.1243(2) 0.7761(1)
S2 S -0.4635(3) -0.0913(2) 0.4272(1)
S3 S -0.1013(2) -0.0313(2) 0.6797(1)
S4 S -0.6461(2) 0.1011(2) 0.4010(1)
O1 O -0.1020(7) -0.1214(5) 0.6438(4)
O2 O -0.7477(6) 0.1711(6) 0.4095(3)
O3 O -0.0644(7) -0.0400(5) 0.7442(3)
O4 O -0.6741(7) 0.0169(5) 0.3617(3)
N1 N -0.3785(7) 0.1428(6) 0.6821(4)
N2 N -0.4474(8) -0.0145(6) 0.5328(3)
N3 N -0.2369(7) 0.0182(6) 0.6672(4)
N4 N -0.5966(8) 0.0693(6) 0.4681(3)
N5 N 0.3398(7) 0.1883(6) 0.5807(4)
N6 N -0.1858(9) 0.3077(8) 0.3083(5)
N7 N -0.3476(7) 0.1729(6) 0.5548(4)
N8 N -0.5504(7) -0.0127(6) 0.6519(3)
N9 N -0.6707(9) -0.0678(7) 0.7247(5)
N10 N -0.1984(8) 0.2257(7) 0.4940(4)
C1 C -0.2781(8) 0.0918(7) 0.7024(4)
C2 C -0.5072(8) -0.0010(7) 0.4793(4)
C3 C -0.347(1) 0.2141(8) 0.7769(5)
C4 C -0.353(1) -0.1417(8) 0.4837(6)
C5 C -0.362(1) -0.0913(7) 0.5363(5)
C6 C -0.4143(9) 0.2123(8) 0.7232(5)
C7 C -0.5117(8) 0.1644(7) 0.3691(4)
C8 C 0.0209(8) 0.0430(7) 0.6470(4)
C9 C 0.059(1) 0.0227(7) 0.5892(5)
C10 C -0.489(1) 0.2600(8) 0.3839(5)
C11 C -0.385(1) 0.3094(8) 0.3642(5)
C12 C 0.160(1) 0.0734(8) 0.5662(5)
C13 C 0.2260(9) 0.1473(7) 0.6003(4)
C14 C -0.297(1) 0.2609(8) 0.3278(5)
C15 C -0.322(1) 0.1637(9) 0.3126(5)
C16 C 0.1789(8) 0.1715(7) 0.6572(5)
C17 C 0.079(1) 0.1192(9) 0.6802(5)
C18 C -0.429(1) 0.1143(8) 0.3337(5)
C19 C -0.610(1) 0.0084(9) 0.7017(5)
C20 C -0.258(1) 0.1492(9) 0.5191(6)
C21 C -0.256(1) 0.3057(9) 0.5167(6)
C22 C -0.652(2) -0.142(1) 0.6869(6)
C23 C -0.572(1) -0.1085(9) 0.6419(6)
C24 C -0.348(1) 0.2732(8) 0.5555(6)
H1 H -0.2968 -0.1965 0.4779
H2 H -0.3641 0.2585 0.8090
H3 H -0.3116 -0.1074 0.5731
H4 H -0.4852 0.2572 0.7134
H5 H 0.0149 -0.0282 0.5650
H6 H -0.5517 0.2939 0.4079
H7 H 0.1888 0.0589 0.5254
H8 H -0.3695 0.3774 0.3752
H9 H 0.2161 0.2270 0.6788
H10 H -0.2671 0.1291 0.2860
H11 H 0.0506 0.1347 0.7205
H12 H -0.4468 0.0462 0.3225
H13 H -0.2356 0.0804 0.5093
H14 H -0.6065 0.0739 0.7202
H15 H -0.2359 0.3737 0.5078
H16 H -0.6788 -0.2098 0.6924
H17 H -0.4024 0.3127 0.5800
H18 H -0.5417 -0.1462 0.6079
Cu1_2 Cu -0.451 0.08029(9) 0.604
N5_2 N -0.6602(7) 0.1883(6) 0.5807(4)
O5 O -1.0180(8) 0.1504(7) 0.4156(5)
C25 C -1.049(2) 0.050(1) 0.3996(7)
loop_
_geom_bond_atom_site_label_1
_geom_bond_atom_site_label_2
_geom_bond_site_symmetry_1
_geom_bond_site_symmetry_2
Cu1 N5 1_555 1_555
S1 C1 1_555 1_555
S2 C2 1_555 1_555
S3 O1 1_555 1_555
S4 O2 1_555 1_555
O3 S3 1_555 1_555
O4 S4 1_555 1_555
O5 C25 1_555 1_555
N1 C1 1_555 1_555
N2 C2 1_555 1_555
N3 S3 1_555 1_555
N4 S4 1_555 1_555
N5 C13 1_555 1_555
N6 C14 1_555 1_555
N7 C20 1_555 1_555
N8 C19 1_555 1_555
N9 C19 1_555 1_555
N10 C20 1_555 1_555
C1 N3 1_555 1_555
C2 N4 1_555 1_555
C3 S1 1_555 1_555
C4 S2 1_555 1_555
C5 N2 1_555 1_555
C6 N1 1_555 1_555
C7 S4 1_555 1_555
C8 S3 1_555 1_555
C9 C8 1_555 1_555
C10 C7 1_555 1_555
C11 C10 1_555 1_555
C12 C9 1_555 1_555
C13 C12 1_555 1_555
C14 C11 1_555 1_555
C15 C14 1_555 1_555
C16 C13 1_555 1_555
C17 C8 1_555 1_555
C18 C7 1_555 1_555
C19 H14 1_555 1_555
C20 H13 1_555 1_555
C21 N10 1_555 1_555
C22 N9 1_555 1_555
C23 N8 1_555 1_555
C24 N7 1_555 1_555
H1 C4 1_555 1_555
H2 C3 1_555 1_555
H3 C5 1_555 1_555
H4 C6 1_555 1_555
H5 C9 1_555 1_555
H6 C10 1_555 1_555
H7 C12 1_555 1_555
H8 C11 1_555 1_555
H9 C16 1_555 1_555
H10 C15 1_555 1_555
H11 C17 1_555 1_555
H12 C18 1_555 1_555
H15 C21 1_555 1_555
H16 C22 1_555 1_555
H17 C24 1_555 1_555
H18 C23 1_555 1_555
Cu1_2 N1 1_555 1_555
N5_2 Cu1_2 1_555 1_555
N2 Cu1_2 1_555 1_555
N3 Cu1_2 1_555 1_555
N7 Cu1_2 1_555 1_555
N8 Cu1_2 1_555 1_555
C3 C6 1_555 1_555
C4 C5 1_555 1_555
C15 C18 1_555 1_555
C16 C17 1_555 1_555
C21 C24 1_555 1_555
C22 C23 1_555 1_555

#END
