
#######################################################################
#
#                 Cambridge Crystallographic Data Centre
#                                CCDC 
#
#######################################################################
#
# If this CIF has been generated from an entry in the Cambridge 
# Structural Database, then it will include bibliographic, chemical, 
# crystal, experimental, refinement or atomic coordinate data resulting 
# from the CCDC's data processing and validation procedures.
#
#######################################################################

data_TEPGUS
_symmetry_cell_setting           orthorhombic
_symmetry_space_group_name_H-M   'P n a 21'
_symmetry_Int_Tables_number      33
_space_group_name_Hall           'P 2c -2n'
loop_
_symmetry_equiv_pos_site_id
_symmetry_equiv_pos_as_xyz
1 x,y,z
2 -x,-y,1/2+z
3 1/2+x,1/2-y,z
4 1/2-x,1/2+y,1/2+z
_cell_length_a                   18.2266(6)
_cell_length_b                   10.3496(4)
_cell_length_c                   9.1663(3)
_cell_angle_alpha                90
_cell_angle_beta                 90
_cell_angle_gamma                90
_cell_volume                     1729.11
loop_
_atom_site_label
_atom_site_type_symbol
_atom_site_fract_x
_atom_site_fract_y
_atom_site_fract_z
Zn1 Zn 0.09975(2) 0.52837(5) 0.87822(10)
C1 C 0.0419(3) 0.3450(5) 1.2758(6)
C2 C 0.0892(3) 0.3515(5) 1.1601(6)
C3 C 0.1515(3) 0.2671(5) 1.1593(6)
C4 C 0.1086(3) 0.1956(5) 1.3841(9)
H1 H 0.1160 0.1395 1.4620
C5 C 0.0023(5) 0.4861(8) 1.1231(9)
H2 H -0.0265 0.5506 1.0815
C6 C 0.1712(3) 0.7892(6) 0.9035(6)
C7 C 0.2162(3) 0.8799(5) 0.9711(6)
H3 H 0.2184 0.9638 0.9349
C8 C 0.2574(3) 0.8466(5) 1.0904(6)
C9 C 0.2536(3) 0.7206(6) 1.1420(7)
H4 H 0.2809 0.6947 1.2225
C10 C 0.2085(3) 0.6355(6) 1.0709(6)
H5 H 0.2067 0.5507 1.1040
C11 C 0.3073(3) 0.9423(5) 1.1616(6)
O1 O 0.3186(2) 1.0498(4) 1.1100(4)
O2 O 0.33672(19) 0.9027(4) 1.2834(4)
N1 N -0.0143(2) 0.4295(4) 1.2531(4)
N2 N 0.0629(2) 0.4415(4) 1.0608(4)
N3 N 0.0502(2) 0.2688(4) 1.3943(6)
N4 N 0.1588(3) 0.1895(5) 1.2793(5)
N5 N 0.2006(3) 0.2587(5) 1.0532(6)
H6 H 0.2364 0.2050 1.0603
H7 H 0.1966 0.3069 0.9772
N6 N 0.1668(2) 0.6677(4) 0.9563(5)
N7 N 0.1332(3) 0.8168(6) 0.7856(6)
H8 H 0.1356 0.8928 0.7480
H9 H 0.1058 0.7588 0.7461
Zn1A Zn -0.09975(2) 0.47163(5) 1.37822(10)
Zn1C Zn 0.40025(2) 1.02837(5) 1.37822(10)
O2C O 0.16328(19) 0.4027(4) 0.7834(4)
N1A N 0.0143(2) 0.5705(4) 0.7531(4)
loop_
_geom_bond_atom_site_label_1
_geom_bond_atom_site_label_2
_geom_bond_site_symmetry_1
_geom_bond_site_symmetry_2
Zn1 N2 1_555 1_555
C1 C2 1_555 1_555
C2 C3 1_555 1_555
C3 N4 1_555 1_555
C4 H1 1_555 1_555
C5 H2 1_555 1_555
C6 C7 1_555 1_555
C7 H3 1_555 1_555
C8 C7 1_555 1_555
C9 C8 1_555 1_555
H4 C9 1_555 1_555
C10 C9 1_555 1_555
H5 C10 1_555 1_555
C11 C8 1_555 1_555
O1 C11 1_555 1_555
O2 C11 1_555 1_555
N1 C1 1_555 1_555
N2 C2 1_555 1_555
N3 C1 1_555 1_555
N4 C4 1_555 1_555
N5 C3 1_555 1_555
H6 N5 1_555 1_555
H7 N5 1_555 1_555
N6 Zn1 1_555 1_555
N7 C6 1_555 1_555
H8 N7 1_555 1_555
H9 N7 1_555 1_555
Zn1A N1 1_555 1_555
Zn1C O2 1_555 1_555
O2C Zn1 1_555 1_555
N1A Zn1 1_555 1_555
C4 N3 1_555 1_555
C5 N1 1_555 1_555
C5 N2 1_555 1_555
C6 N6 1_555 1_555
C10 N6 1_555 1_555

#END
