
#######################################################################
#
#                 Cambridge Crystallographic Data Centre
#                                CCDC 
#
#######################################################################
#
# If this CIF has been generated from an entry in the Cambridge 
# Structural Database, then it will include bibliographic, chemical, 
# crystal, experimental, refinement or atomic coordinate data resulting 
# from the CCDC's data processing and validation procedures.
#
#######################################################################

data_TEPHON
_symmetry_cell_setting           triclinic
_symmetry_space_group_name_H-M   'P -1'
_symmetry_Int_Tables_number      2
_space_group_name_Hall           '-P 1'
loop_
_symmetry_equiv_pos_site_id
_symmetry_equiv_pos_as_xyz
1 x,y,z
2 -x,-y,-z
_cell_length_a                   13.0057(7)
_cell_length_b                   13.3497(8)
_cell_length_c                   23.6446(13)
_cell_angle_alpha                91.9170(10)
_cell_angle_beta                 91.0170(10)
_cell_angle_gamma                106.7020(10)
_cell_volume                     3928.23
loop_
_atom_site_label
_atom_site_type_symbol
_atom_site_fract_x
_atom_site_fract_y
_atom_site_fract_z
Si1 Si -0.32237(16) 0.00661(16) 0.25631(8)
Mo1 Mo -0.27436(6) 0.18813(8) 0.14943(4)
Mo2 Mo -0.53473(6) -0.01469(5) 0.16022(3)
Mo3 Mo -0.45491(8) 0.20321(7) 0.26738(3)
Mo4 Mo -0.15547(7) -0.00179(6) 0.14240(4)
Mo5 Mo -0.41525(6) -0.20550(6) 0.15677(4)
Mo6 Mo -0.57248(6) -0.18420(7) 0.26440(3)
Mo7 Mo -0.48187(8) 0.03539(6) 0.37123(4)
Mo8 Mo -0.24863(6) 0.21832(6) 0.35555(3)
Mo9 Mo -0.07220(6) 0.19336(7) 0.23926(3)
Mo10 Mo -0.18977(7) -0.18912(7) 0.25786(3)
Mo11 Mo -0.34970(6) -0.17521(7) 0.36458(3)
Mo12 Mo -0.11534(7) 0.00708(6) 0.35462(4)
Cu1 Cu 0.11140(8) 0.45701(9) 0.23306(4)
Cu2 Cu 0.18482(8) 0.48375(8) 0.38114(4)
Cu3 Cu 0.49983(8) 0.13489(8) -0.02186(5)
Cu4 Cu 0.05585(14) 0.68249(12) 0.16630(6)
S1 S 0.07012(17) 0.27943(16) 0.10445(9)
S2 S 0.36522(18) 0.47947(16) 0.16230(9)
S3 S 0.50052(18) 0.31277(19) 0.09165(9)
S4 S 0.22151(17) 0.13834(17) 0.01439(9)
S5 S -0.04148(16) 0.58199(16) 0.44644(9)
S6 S 0.18420(18) 0.90915(18) 0.36715(9)
S7 S 0.35351(16) 0.73965(17) 0.42857(9)
S8 S -0.03720(17) 0.84237(16) 0.47253(8)
O1 O -0.2365(4) 0.0731(4) 0.2121(2)
O2 O -0.4249(4) -0.0711(4) 0.2209(2)
O3 O -0.3621(4) 0.0877(4) 0.2973(2)
O4 O -0.2647(4) -0.0625(4) 0.2944(2)
O5 O -0.2797(5) 0.2738(5) 0.0994(3)
O6 O -0.6289(4) 0.0069(4) 0.1169(2)
O7 O -0.5195(6) 0.2923(5) 0.2530(3)
O8 O -0.0855(5) -0.0389(5) 0.0901(3)
O9 O -0.4267(5) -0.3025(5) 0.1077(3)
O10 O -0.6857(5) -0.2722(5) 0.2836(2)
O11 O -0.5676(5) 0.0209(5) 0.4245(3)
O12 O -0.1867(5) 0.3177(4) 0.4015(2)
O13 O 0.0484(5) 0.2859(5) 0.2464(2)
O14 O -0.1363(5) -0.2869(5) 0.2406(3)
O15 O -0.3914(5) -0.2578(6) 0.4172(3)
O16 O -0.0059(5) 0.0406(5) 0.3977(3)
O17 O -0.4064(4) 0.0779(4) 0.1336(2)
O18 O -0.5293(4) 0.0903(4) 0.2183(2)
O19 O -0.3469(4) 0.2325(4) 0.2086(2)
O20 O -0.2019(4) 0.1025(5) 0.1060(2)
O21 O -0.5052(4) -0.1297(4) 0.1187(2)
O22 O -0.6316(4) -0.1167(4) 0.2063(2)
O23 O -0.5312(4) 0.1387(4) 0.3296(2)
O24 O -0.3435(4) 0.2847(4) 0.3186(2)
O25 O -0.1363(4) 0.2593(4) 0.1822(2)
O26 O -0.2922(4) -0.0997(4) 0.1298(2)
O27 O -0.5337(4) -0.2674(4) 0.2028(2)
O28 O -0.5627(4) -0.0688(4) 0.3156(2)
O29 O -0.3681(4) 0.1494(4) 0.4016(2)
O30 O -0.1562(4) 0.2432(4) 0.2940(2)
O31 O -0.0407(4) 0.1081(4) 0.1795(2)
O32 O -0.1352(4) -0.0921(4) 0.2011(2)
O33 O -0.3191(4) -0.2321(4) 0.2106(2)
O34 O -0.4673(4) -0.2163(4) 0.3120(2)
O35 O -0.4056(4) -0.0611(4) 0.3867(2)
O36 O -0.1830(4) 0.1125(4) 0.3750(2)
O37 O -0.0614(4) 0.0950(4) 0.2918(2)
O38 O -0.2740(4) -0.2514(4) 0.3208(2)
O39 O -0.2128(4) -0.0922(4) 0.3975(2)
O40 O -0.0853(4) -0.1071(4) 0.3115(2)
O41 O -0.0952(7) 0.7321(6) 0.1068(4)
O42 O 0.2171(6) 0.7381(7) 0.1300(4)
N1 N 0.0507(6) 0.4618(6) 0.1559(3)
N2 N 0.0033(7) 0.5358(6) 0.1404(3)
N3 N -0.0481(7) 0.5106(7) 0.0918(4)
N4 N -0.0330(6) 0.4205(6) 0.0751(3)
N5 N 0.2610(5) 0.4830(5) 0.2611(3)
N6 N 0.2887(5) 0.5002(5) 0.3168(3)
N7 N 0.3925(5) 0.5227(5) 0.3248(3)
N8 N 0.4325(5) 0.5188(5) 0.2733(3)
N9 N 0.5809(5) 0.2851(6) -0.0123(3)
N10 N 0.6584(6) 0.3379(5) -0.0458(3)
N11 N 0.7067(6) 0.4286(6) -0.0211(3)
N12 N 0.6584(6) 0.4335(6) 0.0289(3)
N13 N 0.3690(5) 0.0281(5) -0.0028(3)
N14 N 0.3698(5) -0.0726(5) 0.0016(3)
N15 N 0.2754(5) -0.1307(5) 0.0156(3)
N16 N 0.2142(5) -0.0670(5) 0.0210(3)
N17 N 0.0555(5) 0.5194(5) 0.3522(3)
N18 N 0.0234(5) 0.4955(5) 0.2968(3)
N19 N -0.0738(5) 0.4999(5) 0.2882(3)
N20 N -0.1055(5) 0.5293(5) 0.3380(3)
N21 N 0.1036(7) 0.7860(7) 0.2725(3)
N22 N 0.0900(7) 0.8027(7) 0.2177(4)
N23 N 0.1220(6) 0.9030(6) 0.2072(3)
N24 N 0.1560(7) 0.9516(7) 0.2574(3)
N25 N 0.2846(5) 0.5310(5) 0.4499(3)
N26 N 0.3057(6) 0.4640(6) 0.4872(3)
N27 N 0.3789(6) 0.5161(6) 0.5244(3)
N28 N 0.4054(5) 0.6168(6) 0.5106(3)
N29 N -0.0691(5) 0.6995(5) 0.5566(3)
N30 N -0.1407(5) 0.6713(5) 0.5978(3)
N31 N -0.2123(5) 0.7228(5) 0.5969(3)
N32 N -0.1862(5) 0.7860(5) 0.5529(3)
C1 C 0.2872(7) 0.3025(6) 0.0934(3)
C2 C 0.1966(7) 0.3406(6) 0.0691(3)
H3 H 0.2147 0.4161 0.0744
H4 H 0.1877 0.3233 0.0288
C3 C 0.3095(7) 0.3363(6) 0.1568(3)
H5 H 0.2434 0.3149 0.1774
H6 H 0.3601 0.3035 0.1731
C4 C 0.3874(6) 0.3496(7) 0.0596(3)
H7 H 0.3756 0.3236 0.0205
H8 H 0.4032 0.4252 0.0602
C5 C 0.2565(7) 0.1807(6) 0.0893(3)
H9 H 0.3164 0.1570 0.1023
H10 H 0.1958 0.1512 0.1129
C6 C 0.0280(6) 0.3906(7) 0.1137(3)
C7 C -0.0792(8) 0.3677(8) 0.0213(4)
H11 H -0.1120 0.4119 0.0008
H12 H -0.0235 0.3533 -0.0008
H13 H -0.1324 0.3031 0.0285
C8 C 0.3521(6) 0.4946(6) 0.2349(3)
C9 C 0.5481(6) 0.5395(7) 0.2666(4)
H14 H 0.5836 0.6116 0.2765
H15 H 0.5746 0.4957 0.2910
H16 H 0.5621 0.5245 0.2280
C10 C 0.5820(7) 0.3442(7) 0.0344(4)
C11 C 0.6963(8) 0.5233(8) 0.0696(4)
H17 H 0.7089 0.4987 0.1060
H18 H 0.7619 0.5698 0.0568
H19 H 0.6428 0.5599 0.0725
C12 C 0.2710(6) 0.0309(6) 0.0106(3)
C13 C 0.1021(7) -0.1067(8) 0.0369(5)
H20 H 0.0938 -0.1665 0.0597
H21 H 0.0818 -0.0531 0.0580
H22 H 0.0571 -0.1268 0.0033
C14 C 0.1444(6) 0.7658(6) 0.4520(3)
C15 C 0.0968(6) 0.6506(6) 0.4674(3)
H23 H 0.1420 0.6112 0.4512
H24 H 0.1032 0.6477 0.5082
C16 C 0.1275(7) 0.7755(7) 0.3884(3)
H25 H 0.1610 0.7299 0.3677
H26 H 0.0513 0.7529 0.3790
C17 C 0.2651(6) 0.7975(6) 0.4695(3)
H27 H 0.2927 0.8729 0.4678
H28 H 0.2708 0.7802 0.5087
C18 C 0.0992(6) 0.8406(6) 0.4880(3)
H29 H 0.1035 0.8233 0.5274
H30 H 0.1460 0.9111 0.4844
C19 C -0.0267(6) 0.5420(6) 0.3770(3)
C20 C -0.2130(7) 0.5406(7) 0.3445(4)
H31 H -0.2096 0.5986 0.3703
H32 H -0.2409 0.5529 0.3084
H33 H -0.2591 0.4777 0.3591
C21 C 0.1460(7) 0.8816(9) 0.2957(4)
C22 C 0.1941(9) 1.0607(9) 0.2643(5)
H34 H 0.2712 1.0820 0.2647
H35 H 0.1674 1.0922 0.2336
H36 H 0.1697 1.0826 0.2995
C23 C 0.3465(6) 0.6261(7) 0.4649(3)
C24 C 0.4902(7) 0.6945(7) 0.5427(4)
H37 H 0.5547 0.6732 0.5427
H38 H 0.5032 0.7610 0.5256
H39 H 0.4684 0.7002 0.5810
C25 C -0.0988(6) 0.7722(6) 0.5293(3)
C26 C -0.2454(7) 0.8595(7) 0.5396(4)
H40 H -0.2867 0.8364 0.5051
H41 H -0.2926 0.8632 0.5698
H42 H -0.1959 0.9274 0.5350
Cu2A Cu -0.18482(8) 0.51625(8) 0.61886(4)
Cu3A Cu 0.50017(8) -0.13489(8) 0.02186(5)
Cu3A_2 Cu -0.49983(8) -0.13489(8) 0.02186(5)
O21A O 0.5052(4) 0.1297(4) -0.1187(2)
N14A N 0.6302(5) 0.0726(5) -0.0016(3)
N30A N 0.1407(5) 0.3287(5) 0.4022(3)
O43 O -0.7452(8) -0.4676(7) -0.1985(4)
H1 H -0.7150 -0.4021 -0.1988
H2 H -0.7971 -0.4829 -0.2226
loop_
_geom_bond_atom_site_label_1
_geom_bond_atom_site_label_2
_geom_bond_site_symmetry_1
_geom_bond_site_symmetry_2
Si1 O1 1_555 1_555
Mo1 O1 1_555 1_555
Mo2 O2 1_555 1_555
Mo3 O3 1_555 1_555
Mo4 O1 1_555 1_555
Mo5 O2 1_555 1_555
Mo6 O2 1_555 1_555
Mo7 O3 1_555 1_555
Mo8 O3 1_555 1_555
Mo9 O1 1_555 1_555
Mo10 O4 1_555 1_555
Mo11 O4 1_555 1_555
Mo12 O4 1_555 1_555
Cu1 O13 1_555 1_555
Cu2 N6 1_555 1_555
Cu3 N9 1_555 1_555
Cu4 O41 1_555 1_555
S1 C2 1_555 1_555
S2 C3 1_555 1_555
S3 C4 1_555 1_555
S4 C5 1_555 1_555
S5 C15 1_555 1_555
S6 C16 1_555 1_555
S7 C17 1_555 1_555
S8 C18 1_555 1_555
O2 Si1 1_555 1_555
O3 Si1 1_555 1_555
O4 Si1 1_555 1_555
O5 Mo1 1_555 1_555
O6 Mo2 1_555 1_555
O7 Mo3 1_555 1_555
O8 Mo4 1_555 1_555
O9 Mo5 1_555 1_555
O10 Mo6 1_555 1_555
O11 Mo7 1_555 1_555
O12 Mo8 1_555 1_555
O13 Mo9 1_555 1_555
O14 Mo10 1_555 1_555
O15 Mo11 1_555 1_555
O16 Mo12 1_555 1_555
O17 Mo1 1_555 1_555
O18 Mo2 1_555 1_555
O19 Mo1 1_555 1_555
O20 Mo1 1_555 1_555
O21 Mo2 1_555 1_555
O22 Mo2 1_555 1_555
O23 Mo3 1_555 1_555
O24 Mo3 1_555 1_555
O25 Mo1 1_555 1_555
O26 Mo4 1_555 1_555
O27 Mo5 1_555 1_555
O28 Mo6 1_555 1_555
O29 Mo7 1_555 1_555
O30 Mo8 1_555 1_555
O31 Mo4 1_555 1_555
O32 Mo4 1_555 1_555
O33 Mo5 1_555 1_555
O34 Mo6 1_555 1_555
O35 Mo7 1_555 1_555
O36 Mo8 1_555 1_555
O37 Mo9 1_555 1_555
O38 Mo10 1_555 1_555
O39 Mo11 1_555 1_555
O40 Mo10 1_555 1_555
O42 Cu4 1_555 1_555
O43 H1 1_555 1_555
H2 O43 1_555 1_555
N1 Cu1 1_555 1_555
N2 Cu4 1_555 1_555
N3 N2 1_555 1_555
N4 N3 1_555 1_555
N5 Cu1 1_555 1_555
N6 N5 1_555 1_555
N7 N6 1_555 1_555
N8 N7 1_555 1_555
N9 N10 1_555 1_555
N10 N11 1_555 1_555
N11 N12 1_555 1_555
N12 C10 1_555 1_555
N13 Cu3 1_555 1_555
N14 N13 1_555 1_555
N15 N14 1_555 1_555
N16 N15 1_555 1_555
N17 Cu2 1_555 1_555
N18 Cu1 1_555 1_555
N19 N18 1_555 1_555
N20 N19 1_555 1_555
N21 N22 1_555 1_555
N22 Cu4 1_555 1_555
N23 N22 1_555 1_555
N24 N23 1_555 1_555
N25 Cu2 1_555 1_555
N26 N25 1_555 1_555
N27 N26 1_555 1_555
N28 N27 1_555 1_555
N29 N30 1_555 1_555
N30 N31 1_555 1_555
N31 N32 1_555 1_555
N32 C25 1_555 1_555
C1 C2 1_555 1_555
C2 H3 1_555 1_555
H4 C2 1_555 1_555
C3 C1 1_555 1_555
H5 C3 1_555 1_555
H6 C3 1_555 1_555
C4 C1 1_555 1_555
H7 C4 1_555 1_555
H8 C4 1_555 1_555
C5 C1 1_555 1_555
H9 C5 1_555 1_555
H10 C5 1_555 1_555
C6 S1 1_555 1_555
C7 N4 1_555 1_555
H11 C7 1_555 1_555
H12 C7 1_555 1_555
H13 C7 1_555 1_555
C8 S2 1_555 1_555
C9 N8 1_555 1_555
H14 C9 1_555 1_555
H15 C9 1_555 1_555
H16 C9 1_555 1_555
C10 S3 1_555 1_555
C11 N12 1_555 1_555
H17 C11 1_555 1_555
H18 C11 1_555 1_555
H19 C11 1_555 1_555
C12 S4 1_555 1_555
C13 N16 1_555 1_555
H20 C13 1_555 1_555
H21 C13 1_555 1_555
H22 C13 1_555 1_555
C14 C15 1_555 1_555
C15 H23 1_555 1_555
H24 C15 1_555 1_555
C16 C14 1_555 1_555
H25 C16 1_555 1_555
H26 C16 1_555 1_555
C17 C14 1_555 1_555
H27 C17 1_555 1_555
H28 C17 1_555 1_555
C18 C14 1_555 1_555
H29 C18 1_555 1_555
H30 C18 1_555 1_555
C19 S5 1_555 1_555
C20 N20 1_555 1_555
H31 C20 1_555 1_555
H32 C20 1_555 1_555
H33 C20 1_555 1_555
C21 S6 1_555 1_555
C22 N24 1_555 1_555
H34 C22 1_555 1_555
H35 C22 1_555 1_555
H36 C22 1_555 1_555
C23 S7 1_555 1_555
C24 N28 1_555 1_555
H37 C24 1_555 1_555
H38 C24 1_555 1_555
H39 C24 1_555 1_555
C25 S8 1_555 1_555
C26 N32 1_555 1_555
H40 C26 1_555 1_555
H41 C26 1_555 1_555
H42 C26 1_555 1_555
Cu2A N30 1_555 1_555
Cu3A N14 1_555 1_555
Cu3A_2 O21 1_555 1_555
O21A Cu3 1_555 1_555
N14A Cu3 1_555 1_555
N30A Cu2 1_555 1_555
Mo2 O17 1_555 1_555
Mo3 O18 1_555 1_555
Mo3 O19 1_555 1_555
Mo4 O20 1_555 1_555
Mo5 O21 1_555 1_555
Mo5 O26 1_555 1_555
Mo6 O22 1_555 1_555
Mo6 O27 1_555 1_555
Mo7 O23 1_555 1_555
Mo7 O28 1_555 1_555
Mo8 O24 1_555 1_555
Mo8 O29 1_555 1_555
Mo9 O25 1_555 1_555
Mo9 O30 1_555 1_555
Mo9 O31 1_555 1_555
Mo10 O32 1_555 1_555
Mo10 O33 1_555 1_555
Mo11 O34 1_555 1_555
Mo11 O35 1_555 1_555
Mo11 O38 1_555 1_555
Mo12 O36 1_555 1_555
Mo12 O37 1_555 1_555
Mo12 O39 1_555 1_555
Mo12 O40 1_555 1_555
N1 N2 1_555 1_555
N1 C6 1_555 1_555
N4 C6 1_555 1_555
N5 C8 1_555 1_555
N8 C8 1_555 1_555
N9 C10 1_555 1_555
N13 C12 1_555 1_555
N16 C12 1_555 1_555
N17 N18 1_555 1_555
N17 C19 1_555 1_555
N20 C19 1_555 1_555
N21 C21 1_555 1_555
N24 C21 1_555 1_555
N25 C23 1_555 1_555
N28 C23 1_555 1_555
N29 C25 1_555 1_555

#END
