
#######################################################################
#
#                 Cambridge Crystallographic Data Centre
#                                CCDC 
#
#######################################################################
#
# If this CIF has been generated from an entry in the Cambridge 
# Structural Database, then it will include bibliographic, chemical, 
# crystal, experimental, refinement or atomic coordinate data resulting 
# from the CCDC's data processing and validation procedures.
#
#######################################################################

data_TEPHED
_symmetry_cell_setting           triclinic
_symmetry_space_group_name_H-M   'P -1'
_symmetry_Int_Tables_number      2
_space_group_name_Hall           '-P 1'
loop_
_symmetry_equiv_pos_site_id
_symmetry_equiv_pos_as_xyz
1 x,y,z
2 -x,-y,-z
_cell_length_a                   13.095(3)
_cell_length_b                   13.375(3)
_cell_length_c                   23.823(5)
_cell_angle_alpha                92.183(4)
_cell_angle_beta                 90.456(3)
_cell_angle_gamma                105.986(3)
_cell_volume                     4007.49
loop_
_atom_site_label
_atom_site_type_symbol
_atom_site_fract_x
_atom_site_fract_y
_atom_site_fract_z
Si1 Si 0.81927(17) -0.00494(16) -0.25605(9)
W1 W 0.77535(3) -0.18364(3) -0.148120(16)
W2 W 1.03321(3) 0.01408(3) -0.162200(15)
W3 W 0.94976(3) -0.20428(3) -0.267240(16)
W4 W 0.65064(3) 0.00464(3) -0.142440(16)
W5 W 0.90888(3) 0.20320(3) -0.155380(16)
W6 W 1.06619(3) 0.18591(3) -0.264930(16)
W7 W 0.98228(3) -0.03253(3) -0.370120(16)
W8 W 0.74718(3) -0.21399(3) -0.356420(15)
W9 W 0.57345(3) -0.19308(3) -0.238470(17)
W10 W 0.68817(3) 0.19273(3) -0.255480(17)
W11 W 0.84567(3) 0.17427(3) -0.364460(16)
W12 W 0.61072(3) -0.00583(3) -0.351210(16)
Cu1 Cu 0.38391(11) -0.45576(12) -0.23433(6)
Cu2 Cu 0.31406(11) -0.48008(10) -0.38130(6)
Cu3 Cu -0.00149(13) -0.13648(12) 0.01538(10)
Cu4 Cu 0.4603(3) -0.6794(2) -0.17091(11)
S1 S 0.4194(3) -0.2835(2) -0.10653(15)
S2 S 0.1276(3) -0.4796(2) -0.16351(14)
S3 S -0.0023(3) -0.3131(4) -0.09103(19)
S4 S 0.2735(3) -0.1410(2) -0.01525(12)
S5 S 0.5388(2) -0.5828(2) -0.44675(12)
S6 S 0.3102(2) -0.9054(2) -0.36615(12)
S7 S 0.1482(2) -0.7357(2) -0.42779(12)
S8 S 0.5353(2) -0.8432(2) -0.47321(12)
O1 O 0.7357(5) -0.0714(5) -0.2119(3)
O2 O 0.9207(4) 0.0716(4) -0.2212(2)
O3 O 0.8597(5) -0.0854(5) -0.2968(2)
O4 O 0.7624(5) 0.0642(5) -0.2927(2)
O5 O 0.7800(6) -0.2699(5) -0.0984(3)
O6 O 1.1276(5) -0.0064(6) -0.1185(3)
O7 O 1.0165(6) -0.2932(5) -0.2556(3)
O8 O 0.5808(6) 0.0394(6) -0.0889(3)
O9 O 0.9216(6) 0.3024(5) -0.1054(3)
O10 O 1.1807(5) 0.2739(5) -0.2834(3)
O11 O 1.0670(6) -0.0191(5) -0.4239(3)
O12 O 0.6876(6) -0.3133(5) -0.4029(3)
O13 O 0.4531(5) -0.2847(5) -0.2449(3)
O14 O 0.6342(6) 0.2912(5) -0.2387(3)
O15 O 0.8859(6) 0.2587(5) -0.4164(3)
O16 O 0.5015(5) -0.0372(5) -0.3947(3)
O17 O 0.9049(5) -0.0764(5) -0.1354(3)
O18 O 1.0270(5) -0.0905(5) -0.2189(3)
O19 O 0.8445(5) -0.2302(5) -0.2091(3)
O20 O 0.7024(5) -0.0989(5) -0.1067(3)
O21 O 0.9997(5) 0.1289(5) -0.1209(3)
O22 O 1.1243(5) 0.1154(5) -0.2083(3)
O23 O 1.0276(5) -0.1366(5) -0.3291(3)
O24 O 0.8410(5) -0.2804(5) -0.3188(3)
O25 O 0.6395(5) -0.2553(5) -0.1826(3)
O26 O 0.7882(5) 0.1010(5) -0.1301(3)
O27 O 1.0257(5) 0.2646(5) -0.2037(3)
O28 O 1.0581(5) 0.0710(5) -0.3161(3)
O29 O 0.8655(5) -0.1450(5) -0.4004(3)
O30 O 0.6562(5) -0.2394(5) -0.2932(3)
O31 O 0.5427(5) -0.1052(5) -0.1782(3)
O32 O 0.6331(5) 0.0954(5) -0.1993(3)
O33 O 0.8140(5) 0.2325(5) -0.2088(3)
O34 O 0.9624(5) 0.2164(5) -0.3121(3)
O35 O 0.9029(5) 0.0625(5) -0.3859(3)
O36 O 0.6798(5) -0.1093(5) -0.3731(3)
O37 O 0.5601(5) -0.0925(5) -0.2893(3)
O38 O 0.7710(5) 0.2508(5) -0.3185(3)
O39 O 0.7095(5) 0.0939(5) -0.3945(3)
O40 O 0.5846(5) 0.1093(5) -0.3083(3)
O41 O 0.5897(14) -0.7286(9) -0.1009(7)
O42 O 0.2783(13) -0.7295(18) -0.1311(9)
C1 C 0.2041(10) -0.3045(9) -0.0939(5)
C2 C 0.2952(10) -0.3439(9) -0.0713(5)
H3 H 0.3043 -0.3279 -0.0312
H4 H 0.2777 -0.4189 -0.0772
C3 C 0.1802(13) -0.3384(9) -0.1555(5)
H5 H 0.1289 -0.3056 -0.1703
H6 H 0.2447 -0.3160 -0.1768
C4 C 0.1085(10) -0.3523(11) -0.0578(6)
H7 H 0.0937 -0.4275 -0.0583
H8 H 0.1207 -0.3252 -0.0192
C5 C 0.2365(12) -0.1836(9) -0.0880(5)
H9 H 0.2960 -0.1552 -0.1120
H10 H 0.1776 -0.1579 -0.0997
C6 C 0.4655(9) -0.3925(9) -0.1151(5)
C7 C 0.5717(13) -0.3660(14) -0.0247(6)
H11 H 0.6161 -0.4033 -0.0077
H12 H 0.6129 -0.2961 -0.0310
H13 H 0.5143 -0.3644 -0.0002
C8 C 0.1426(9) -0.4917(8) -0.2356(5)
C9 C -0.0489(9) -0.5390(9) -0.2679(6)
H14 H -0.0839 -0.5543 -0.3040
H15 H -0.0731 -0.5978 -0.2447
H16 H -0.0652 -0.4795 -0.2503
C10 C -0.0482(18) -0.3184(14) -0.0424(5)
C11 C -0.1988(15) -0.5252(15) -0.0750(9)
H17 H -0.1526 -0.5179 -0.1066
H18 H -0.2021 -0.5895 -0.0575
H19 H -0.2687 -0.5253 -0.0875
C12 C 0.2239(9) -0.0333(9) -0.0109(4)
C13 C 0.3930(10) 0.1009(11) -0.0383(8)
H20 H 0.4116 0.1751 -0.0414
H21 H 0.4388 0.0834 -0.0110
H22 H 0.4009 0.0687 -0.0741
C14 C 0.3542(8) -0.7641(7) -0.4516(4)
C15 C 0.4027(8) -0.6503(8) -0.4672(5)
H23 H 0.3972 -0.6481 -0.5078
H24 H 0.3578 -0.6099 -0.4515
C16 C 0.3716(9) -0.7718(9) -0.3881(4)
H25 H 0.4471 -0.7524 -0.3793
H26 H 0.3406 -0.7237 -0.3675
C17 C 0.2359(8) -0.7954(8) -0.4677(4)
H27 H 0.2297 -0.7803 -0.5069
H28 H 0.2093 -0.8702 -0.4650
C18 C 0.3987(8) -0.8404(8) -0.4873(5)
H29 H 0.3527 -0.9100 -0.4827
H30 H 0.3933 -0.8246 -0.5264
C19 C 0.5251(8) -0.5399(7) -0.3779(4)
C20 C 0.7101(9) -0.5390(10) -0.3461(6)
H31 H 0.7474 -0.5249 -0.3106
H32 H 0.7057 -0.6088 -0.3592
H33 H 0.7474 -0.4909 -0.3728
C21 C 0.3493(9) -0.8779(10) -0.2956(5)
C22 C 0.3019(13) -1.0567(13) -0.2667(8)
H34 H 0.2790 -1.0741 -0.3051
H35 H 0.3588 -1.0864 -0.2582
H36 H 0.2435 -1.0838 -0.2424
C23 C 0.1530(8) -0.6238(9) -0.4641(4)
C24 C 0.0132(10) -0.6927(10) -0.5397(6)
H37 H 0.0067 -0.7601 -0.5250
H38 H -0.0530 -0.6756 -0.5357
H39 H 0.0308 -0.6938 -0.5787
C25 C 0.5968(8) -0.7743(7) -0.5296(4)
C26 C 0.7451(11) -0.8614(10) -0.5387(6)
H40 H 0.8045 -0.8529 -0.5632
H41 H 0.7704 -0.8473 -0.5005
H42 H 0.7005 -0.9315 -0.5429
N1 N 0.4459(7) -0.4613(8) -0.1575(4)
N2 N 0.4993(9) -0.5347(9) -0.1434(4)
N3 N 0.5452(10) -0.5081(10) -0.0949(5)
N4 N 0.5291(8) -0.4176(8) -0.0780(4)
N5 N 0.2359(7) -0.4791(6) -0.2616(4)
N6 N 0.2092(7) -0.4952(7) -0.3164(4)
N7 N 0.1054(8) -0.5188(7) -0.3248(4)
N8 N 0.0655(7) -0.5167(6) -0.2747(4)
N9 N -0.0814(9) -0.2863(9) 0.0103(6)
N10 N -0.1561(10) -0.3355(9) 0.0468(6)
N11 N -0.2115(13) -0.4254(10) 0.0201(5)
N12 N -0.1515(12) -0.4253(11) -0.0284(5)
N13 N 0.1286(6) -0.0275(6) 0.0019(3)
N14 N 0.1299(6) 0.0728(6) -0.0019(4)
N15 N 0.2239(7) 0.1295(7) -0.0155(4)
N16 N 0.2836(7) 0.0639(8) -0.0209(4)
N17 N 0.4414(7) -0.5194(6) -0.3528(4)
N18 N 0.4752(7) -0.4928(7) -0.2980(4)
N19 N 0.5721(7) -0.4976(8) -0.2903(4)
N20 N 0.6029(6) -0.5274(6) -0.3394(4)
N21 N 0.3944(9) -0.7841(11) -0.2728(4)
N22 N 0.4046(10) -0.8014(10) -0.2192(5)
N23 N 0.3730(9) -0.9004(9) -0.2078(4)
N24 N 0.3373(9) -0.9482(10) -0.2585(5)
N25 N 0.2158(7) -0.5288(7) -0.4502(4)
N26 N 0.1963(9) -0.4613(8) -0.4873(5)
N27 N 0.1232(9) -0.5134(9) -0.5223(5)
N28 N 0.0970(7) -0.6148(8) -0.5086(4)
N29 N 0.5670(8) -0.7029(7) -0.5572(4)
N30 N 0.6425(7) -0.6744(7) -0.5977(4)
N31 N 0.7107(8) -0.7265(7) -0.5954(4)
N32 N 0.6844(6) -0.7892(6) -0.5532(4)
Cu2A Cu 0.68594(11) -0.51992(10) -0.61870(6)
Cu3A Cu 0.00149(13) 0.13648(12) -0.01538(10)
Cu3A_2 Cu 1.00149(13) 0.13648(12) -0.01538(10)
O21A O 0.0003(5) -0.1289(5) 0.1209(3)
N14A N -0.1299(6) -0.0728(6) 0.0019(4)
N30A N 0.3575(7) -0.3256(7) -0.4023(4)
O43 O 0.2513(12) 0.4705(10) 0.1979(6)
H1 H 0.1992 0.4535 0.1746
H2 H 0.2700 0.5363 0.2030
loop_
_geom_bond_atom_site_label_1
_geom_bond_atom_site_label_2
_geom_bond_site_symmetry_1
_geom_bond_site_symmetry_2
Si1 O1 1_555 1_555
W1 O1 1_555 1_555
W2 O2 1_555 1_555
W3 O3 1_555 1_555
W4 O1 1_555 1_555
W5 O2 1_555 1_555
W6 O2 1_555 1_555
W7 O3 1_555 1_555
W8 O3 1_555 1_555
W9 O1 1_555 1_555
W10 O4 1_555 1_555
W11 O4 1_555 1_555
W12 O4 1_555 1_555
Cu1 O13 1_555 1_555
Cu2 N6 1_555 1_555
Cu3 N9 1_555 1_555
Cu4 O41 1_555 1_555
S1 C2 1_555 1_555
S2 C3 1_555 1_555
S3 C4 1_555 1_555
S4 C5 1_555 1_555
S5 C15 1_555 1_555
S6 C16 1_555 1_555
S7 C17 1_555 1_555
S8 C18 1_555 1_555
O2 Si1 1_555 1_555
O3 Si1 1_555 1_555
O4 Si1 1_555 1_555
O5 W1 1_555 1_555
O6 W2 1_555 1_555
O7 W3 1_555 1_555
O8 W4 1_555 1_555
O9 W5 1_555 1_555
O10 W6 1_555 1_555
O11 W7 1_555 1_555
O12 W8 1_555 1_555
O13 W9 1_555 1_555
O14 W10 1_555 1_555
O15 W11 1_555 1_555
O16 W12 1_555 1_555
O17 W1 1_555 1_555
O18 W2 1_555 1_555
O19 W1 1_555 1_555
O20 W1 1_555 1_555
O21 W2 1_555 1_555
O22 W2 1_555 1_555
O23 W3 1_555 1_555
O24 W3 1_555 1_555
O25 W1 1_555 1_555
O26 W4 1_555 1_555
O27 W5 1_555 1_555
O28 W6 1_555 1_555
O29 W7 1_555 1_555
O30 W8 1_555 1_555
O31 W4 1_555 1_555
O32 W4 1_555 1_555
O33 W5 1_555 1_555
O34 W6 1_555 1_555
O35 W7 1_555 1_555
O36 W8 1_555 1_555
O37 W9 1_555 1_555
O38 W10 1_555 1_555
O39 W11 1_555 1_555
O40 W10 1_555 1_555
O42 Cu4 1_555 1_555
O43 H1 1_555 1_555
H2 O43 1_555 1_555
C1 C2 1_555 1_555
C2 H3 1_555 1_555
H4 C2 1_555 1_555
C3 C1 1_555 1_555
H5 C3 1_555 1_555
H6 C3 1_555 1_555
C4 C1 1_555 1_555
H7 C4 1_555 1_555
H8 C4 1_555 1_555
C5 C1 1_555 1_555
H9 C5 1_555 1_555
H10 C5 1_555 1_555
C6 S1 1_555 1_555
C7 H11 1_555 1_555
H12 C7 1_555 1_555
H13 C7 1_555 1_555
C8 S2 1_555 1_555
C9 H14 1_555 1_555
H15 C9 1_555 1_555
H16 C9 1_555 1_555
C10 S3 1_555 1_555
C11 H17 1_555 1_555
H18 C11 1_555 1_555
H19 C11 1_555 1_555
C12 S4 1_555 1_555
C13 H20 1_555 1_555
H21 C13 1_555 1_555
H22 C13 1_555 1_555
C14 C15 1_555 1_555
C15 H23 1_555 1_555
H24 C15 1_555 1_555
C16 C14 1_555 1_555
H25 C16 1_555 1_555
H26 C16 1_555 1_555
C17 C14 1_555 1_555
H27 C17 1_555 1_555
H28 C17 1_555 1_555
C18 C14 1_555 1_555
H29 C18 1_555 1_555
H30 C18 1_555 1_555
C19 S5 1_555 1_555
C20 H31 1_555 1_555
H32 C20 1_555 1_555
H33 C20 1_555 1_555
C21 S6 1_555 1_555
C22 H34 1_555 1_555
H35 C22 1_555 1_555
H36 C22 1_555 1_555
C23 S7 1_555 1_555
C24 H37 1_555 1_555
H38 C24 1_555 1_555
H39 C24 1_555 1_555
C25 S8 1_555 1_555
C26 H40 1_555 1_555
H41 C26 1_555 1_555
H42 C26 1_555 1_555
N1 Cu1 1_555 1_555
N2 Cu4 1_555 1_555
N3 N2 1_555 1_555
N4 C6 1_555 1_555
N5 Cu1 1_555 1_555
N6 N5 1_555 1_555
N7 N6 1_555 1_555
N8 C8 1_555 1_555
N9 C10 1_555 1_555
N10 N9 1_555 1_555
N11 N10 1_555 1_555
N12 C10 1_555 1_555
N13 Cu3 1_555 1_555
N14 N13 1_555 1_555
N15 N14 1_555 1_555
N16 C12 1_555 1_555
N17 Cu2 1_555 1_555
N18 Cu1 1_555 1_555
N19 N18 1_555 1_555
N20 C19 1_555 1_555
N21 C21 1_555 1_555
N22 Cu4 1_555 1_555
N23 N22 1_555 1_555
N24 C21 1_555 1_555
N25 Cu2 1_555 1_555
N26 N25 1_555 1_555
N27 N26 1_555 1_555
N28 C23 1_555 1_555
N29 C25 1_555 1_555
N30 N29 1_555 1_555
N31 N30 1_555 1_555
N32 C25 1_555 1_555
Cu2A N30 1_555 1_555
Cu3A N14 1_555 1_555
Cu3A_2 O21 1_555 1_555
O21A Cu3 1_555 1_555
N14A Cu3 1_555 1_555
N30A Cu2 1_555 1_555
W2 O17 1_555 1_555
W3 O18 1_555 1_555
W3 O19 1_555 1_555
W4 O20 1_555 1_555
W5 O21 1_555 1_555
W5 O26 1_555 1_555
W6 O22 1_555 1_555
W6 O27 1_555 1_555
W7 O23 1_555 1_555
W7 O28 1_555 1_555
W8 O24 1_555 1_555
W8 O29 1_555 1_555
W9 O25 1_555 1_555
W9 O30 1_555 1_555
W9 O31 1_555 1_555
W10 O32 1_555 1_555
W10 O33 1_555 1_555
W11 O34 1_555 1_555
W11 O35 1_555 1_555
W11 O38 1_555 1_555
W12 O36 1_555 1_555
W12 O37 1_555 1_555
W12 O39 1_555 1_555
W12 O40 1_555 1_555
C6 N1 1_555 1_555
C7 N4 1_555 1_555
C8 N5 1_555 1_555
C9 N8 1_555 1_555
C11 N12 1_555 1_555
C12 N13 1_555 1_555
C13 N16 1_555 1_555
C19 N17 1_555 1_555
C20 N20 1_555 1_555
C22 N24 1_555 1_555
C23 N25 1_555 1_555
C24 N28 1_555 1_555
C26 N32 1_555 1_555
N1 N2 1_555 1_555
N3 N4 1_555 1_555
N7 N8 1_555 1_555
N11 N12 1_555 1_555
N15 N16 1_555 1_555
N17 N18 1_555 1_555
N19 N20 1_555 1_555
N21 N22 1_555 1_555
N23 N24 1_555 1_555
N27 N28 1_555 1_555
N31 N32 1_555 1_555

#END
