
#######################################################################
#
#                 Cambridge Crystallographic Data Centre
#                                CCDC 
#
#######################################################################
#
# If this CIF has been generated from an entry in the Cambridge 
# Structural Database, then it will include bibliographic, chemical, 
# crystal, experimental, refinement or atomic coordinate data resulting 
# from the CCDC's data processing and validation procedures.
#
#######################################################################

data_TEPHAZ
_symmetry_cell_setting           triclinic
_symmetry_space_group_name_H-M   'P -1'
_symmetry_Int_Tables_number      2
_space_group_name_Hall           '-P 1'
loop_
_symmetry_equiv_pos_site_id
_symmetry_equiv_pos_as_xyz
1 x,y,z
2 -x,-y,-z
_cell_length_a                   13.1028(11)
_cell_length_b                   13.5056(11)
_cell_length_c                   23.797(2)
_cell_angle_alpha                92.405(2)
_cell_angle_beta                 91.3950(10)
_cell_angle_gamma                105.9020(10)
_cell_volume                     4043.61
loop_
_atom_site_label
_atom_site_type_symbol
_atom_site_fract_x
_atom_site_fract_y
_atom_site_fract_z
P1 P -0.82361(11) 0.00284(10) 0.25857(6)
W1 W -0.78193(2) 0.179820(19) 0.149900(11)
W2 W -1.040260(19) -0.015180(18) 0.162540(11)
W3 W -0.95434(2) 0.202470(18) 0.268020(11)
W4 W -0.655310(19) -0.010940(19) 0.144990(11)
W5 W -0.913650(19) -0.205740(19) 0.156140(11)
W6 W -1.072630(18) -0.186870(18) 0.266340(11)
W7 W -0.986950(19) 0.030170(19) 0.372650(11)
W8 W -0.747780(19) 0.211910(18) 0.360390(11)
W9 W -0.575510(19) 0.189440(19) 0.242960(11)
W10 W -0.692160(19) -0.196410(19) 0.257630(11)
W11 W -0.850880(19) -0.175560(18) 0.367680(11)
W12 W -0.612190(19) 0.004770(19) 0.355600(11)
Cu1 Cu -0.39741(7) 0.45305(7) 0.23313(4)
Cu2 Cu -0.32660(7) 0.47598(7) 0.38133(4)
Cu3 Cu -0.00006(8) 0.13431(7) -0.01410(5)
S1 S -0.43276(14) 0.28151(13) 0.10271(8)
S2 S -0.14461(17) 0.47856(14) 0.16451(8)
S3 S -0.00428(15) 0.31396(17) 0.09286(9)
S4 S -0.27660(16) 0.14187(15) 0.01494(8)
S5 S -0.54826(13) 0.58268(13) 0.44503(8)
S6 S -0.31976(16) 0.89745(15) 0.36037(9)
S7 S -0.15917(14) 0.72958(15) 0.42421(8)
S8 S -0.54403(15) 0.83900(14) 0.47104(8)
O1 O -0.7448(3) 0.0629(3) 0.21762(17)
O2 O -0.9199(3) -0.0689(3) 0.22555(17)
O3 O -0.8607(3) 0.0778(3) 0.29726(17)
O4 O -0.7691(3) -0.0618(3) 0.29376(18)
O5 O -0.7857(4) 0.2658(4) 0.1007(2)
O6 O -1.1353(4) 0.0049(4) 0.1186(2)
O7 O -1.0201(4) 0.2924(3) 0.2575(2)
O8 O -0.5857(4) -0.0426(4) 0.0917(2)
O9 O -0.9297(4) -0.3045(3) 0.1070(2)
O10 O -1.1850(3) -0.2744(3) 0.2836(2)
O11 O -1.0709(4) 0.0201(4) 0.4265(2)
O12 O -0.6893(4) 0.3107(3) 0.40741(19)
O13 O -0.4546(4) 0.2777(3) 0.2492(2)
O14 O -0.6374(4) -0.2936(4) 0.2433(2)
O15 O -0.8886(4) -0.2586(3) 0.4195(2)
O16 O -0.5039(3) 0.0336(3) 0.4000(2)
O17 O -0.9118(3) 0.0755(3) 0.13649(18)
O18 O -1.0314(3) 0.0904(3) 0.22023(18)
O19 O -0.8508(3) 0.2271(3) 0.21120(19)
O20 O -0.7104(3) 0.0925(3) 0.11149(18)
O21 O -1.0021(3) -0.1273(3) 0.12397(18)
O22 O -1.1243(3) -0.1127(3) 0.21057(18)
O23 O -1.0265(3) 0.1320(3) 0.32981(18)
O24 O -0.8432(3) 0.2726(3) 0.32106(19)
O25 O -0.6475(3) 0.2460(3) 0.18741(18)
O26 O -0.7931(3) -0.1056(3) 0.13152(19)
O27 O -1.0274(3) -0.2608(3) 0.20540(19)
O28 O -1.0626(3) -0.0716(3) 0.31822(19)
O29 O -0.8675(3) 0.1399(3) 0.40143(18)
O30 O -0.6572(3) 0.2353(3) 0.29817(19)
O31 O -0.5507(3) 0.0994(3) 0.18358(19)
O32 O -0.6381(3) -0.0999(3) 0.20172(18)
O33 O -0.8192(3) -0.2346(3) 0.21088(19)
O34 O -0.9676(3) -0.2160(3) 0.31435(19)
O35 O -0.9078(3) -0.0648(3) 0.3887(2)
O36 O -0.6819(3) 0.1069(3) 0.37761(19)
O37 O -0.5626(3) 0.0903(3) 0.29443(18)
O38 O -0.7768(3) -0.2487(3) 0.32045(19)
O39 O -0.7155(3) -0.0930(3) 0.39604(19)
O40 O -0.5924(3) -0.1102(3) 0.31136(18)
N1 N -0.4722(4) 0.4478(4) 0.1596(3)
N2 N -0.5306(6) 0.5149(5) 0.1498(3)
N3 N -0.5747(6) 0.4945(6) 0.0994(3)
N4 N -0.5452(5) 0.4158(5) 0.0762(3)
N5 N -0.2499(4) 0.4781(4) 0.2624(2)
N6 N -0.2230(4) 0.4955(4) 0.3173(2)
N7 N -0.1209(4) 0.5202(5) 0.3263(3)
N8 N -0.0797(4) 0.5185(4) 0.2752(2)
N9 N 0.0753(5) 0.2811(4) -0.0084(3)
N10 N 0.1486(5) 0.3336(5) -0.0432(3)
N11 N 0.1929(5) 0.4253(5) -0.0203(3)
N12 N 0.1482(5) 0.4316(4) 0.0286(3)
N13 N -0.1300(4) 0.0301(4) -0.0018(2)
N14 N 0.1308(4) 0.0693(4) -0.0013(2)
N15 N 0.2240(4) 0.1255(4) -0.0138(3)
N16 N 0.2843(4) 0.0605(4) -0.0202(2)
N17 N -0.4559(4) 0.5121(4) 0.3529(2)
N18 N -0.4898(4) 0.4821(4) 0.2983(2)
N19 N -0.5866(5) 0.4850(5) 0.2893(3)
N20 N -0.6177(4) 0.5182(4) 0.3387(2)
N21 N -0.3912(6) 0.7929(8) 0.2586(3)
N22 N -0.4002(10) 0.8212(15) 0.2053(5)
N23 N -0.3698(9) 0.9209(14) 0.2027(5)
N24 N -0.3401(7) 0.9591(10) 0.2550(4)
N25 N -0.2245(4) 0.5268(4) 0.4494(3)
N26 N -0.2001(5) 0.4640(5) 0.4874(3)
N27 N -0.1269(5) 0.5165(5) 0.5220(3)
N28 N -0.1022(5) 0.6145(5) 0.5069(3)
N29 N -0.5655(5) 0.7034(4) 0.5557(3)
N30 N -0.6345(5) 0.6763(4) 0.5980(3)
N31 N -0.7046(5) 0.7275(5) 0.5976(3)
N32 N -0.6824(4) 0.7896(4) 0.5544(3)
C1 C -0.2164(5) 0.3044(5) 0.0946(3)
C2 C -0.3073(5) 0.3432(5) 0.0697(3)
H7 H -0.3147 0.3274 0.0294
H8 H -0.2908 0.4174 0.0760
C3 C -0.1965(6) 0.3369(5) 0.1574(3)
H9 H -0.1455 0.3051 0.1738
H10 H -0.2621 0.3148 0.1772
C4 C -0.1161(5) 0.3512(6) 0.0618(3)
H11 H -0.1009 0.4257 0.0633
H12 H -0.1275 0.3265 0.0227
C5 C -0.2455(6) 0.1851(5) 0.0892(3)
H13 H -0.3064 0.1561 0.1116
H14 H -0.1864 0.1615 0.1031
C6 C -0.4820(5) 0.3872(5) 0.1137(3)
C7 C -0.5812(7) 0.3732(8) 0.0200(4)
H15 H -0.6261 0.4110 0.0039
H16 H -0.6204 0.3021 0.0217
H17 H -0.5209 0.3784 -0.0030
C8 C -0.1588(5) 0.4924(5) 0.2366(3)
C9 C 0.0355(6) 0.5403(6) 0.2692(4)
H18 H 0.0507 0.5359 0.2301
H19 H 0.0613 0.4908 0.2889
H20 H 0.0698 0.6084 0.2848
C10 C 0.0757(5) 0.3421(5) 0.0357(3)
C11 C 0.1817(8) 0.5240(7) 0.0672(4)
H21 H 0.2354 0.5761 0.0502
H22 H 0.2098 0.5062 0.1018
H23 H 0.1217 0.5497 0.0748
C12 C -0.2275(5) 0.0348(5) 0.0112(3)
C13 C 0.3936(7) 0.0978(7) -0.0378(5)
H24 H 0.4252 0.0416 -0.0402
H25 H 0.3939 0.1266 -0.0740
H26 H 0.4335 0.1498 -0.0109
C14 C -0.3639(5) 0.7624(5) 0.4461(3)
C15 C -0.4114(5) 0.6499(5) 0.4637(3)
H27 H -0.4031 0.6504 0.5044
H28 H -0.3677 0.6088 0.4482
C16 C -0.3828(5) 0.7683(5) 0.3828(3)
H29 H -0.4585 0.7508 0.3740
H30 H -0.3541 0.7188 0.3626
C17 C -0.2438(5) 0.7917(5) 0.4632(3)
H31 H -0.2375 0.7775 0.5025
H32 H -0.2157 0.8655 0.4603
C18 C -0.4057(6) 0.8396(5) 0.4821(3)
H33 H -0.3618 0.9084 0.4757
H34 H -0.3950 0.8272 0.5213
C19 C -0.5377(5) 0.5350(5) 0.3772(3)
C20 C -0.7241(5) 0.5306(6) 0.3447(3)
H35 H -0.7313 0.5549 0.3825
H36 H -0.7758 0.4655 0.3367
H37 H -0.7353 0.5796 0.3188
C21 C -0.3536(6) 0.8788(8) 0.2882(4)
C22 C -0.3016(10) 1.0686(12) 0.2700(6)
H38 H -0.3008 1.1068 0.2368
H39 H -0.2310 1.0837 0.2863
H40 H -0.3476 1.0876 0.2966
C23 C -0.1620(5) 0.6210(5) 0.4629(3)
C24 C -0.0170(6) 0.6940(7) 0.5373(4)
H41 H -0.0102 0.7592 0.5210
H42 H 0.0487 0.6760 0.5344
H43 H -0.0338 0.6987 0.5761
C25 C -0.5976(5) 0.7734(5) 0.5288(3)
C26 C -0.7427(7) 0.8626(6) 0.5422(4)
H44 H -0.7988 0.8557 0.5681
H45 H -0.7725 0.8488 0.5044
H46 H -0.6965 0.9315 0.5458
P1A P 0.82361(11) -0.00284(10) -0.25857(6)
W1A W 0.78193(2) -0.179820(19) -0.149900(11)
W2A W 1.040260(19) 0.015180(18) -0.162540(11)
W3A W 0.95434(2) -0.202470(18) -0.268020(11)
W4A W 0.655310(19) 0.010940(19) -0.144990(11)
W5A W 0.913650(19) 0.205740(19) -0.156140(11)
W6A W 1.072630(18) 0.186870(18) -0.266340(11)
W7A W 0.986950(19) -0.030170(19) -0.372650(11)
W8A W 0.747780(19) -0.211910(18) -0.360390(11)
W9A W 0.575510(19) -0.189440(19) -0.242960(11)
W10A W 0.692160(19) 0.196410(19) -0.257630(11)
W11A W 0.850880(19) 0.175560(18) -0.367680(11)
W12A W 0.612190(19) -0.004770(19) -0.355600(11)
Cu1A Cu 0.39741(7) -0.45305(7) -0.23313(4)
Cu2A Cu -0.67340(7) 0.52402(7) 0.61867(4)
Cu2A_2 Cu 0.32660(7) -0.47598(7) -0.38133(4)
Cu2_2 Cu 0.67340(7) -0.52402(7) -0.61867(4)
Cu3A Cu 0.00006(8) -0.13431(7) 0.01410(5)
S1A S 0.43276(14) -0.28151(13) -0.10271(8)
S2A S 0.14461(17) -0.47856(14) -0.16451(8)
S3A S 0.00428(15) -0.31396(17) -0.09286(9)
S4A S 0.27660(16) -0.14187(15) -0.01494(8)
S5A S 0.54826(13) -0.58268(13) -0.44503(8)
S6A S 0.31976(16) -0.89745(15) -0.36037(9)
S7A S 0.15917(14) -0.72958(15) -0.42421(8)
S8A S 0.54403(15) -0.83900(14) -0.47104(8)
O1A O 0.7448(3) -0.0629(3) -0.21762(17)
O2A O 0.9199(3) 0.0689(3) -0.22555(17)
O3A O 0.8607(3) -0.0778(3) -0.29726(17)
O4A O 0.7691(3) 0.0618(3) -0.29376(18)
O5A O 0.7857(4) -0.2658(4) -0.1007(2)
O6A O 1.1353(4) -0.0049(4) -0.1186(2)
O7A O 1.0201(4) -0.2924(3) -0.2575(2)
O8A O 0.5857(4) 0.0426(4) -0.0917(2)
O9A O 0.9297(4) 0.3045(3) -0.1070(2)
O10A O 1.1850(3) 0.2744(3) -0.2836(2)
O11A O 1.0709(4) -0.0201(4) -0.4265(2)
O12A O 0.6893(4) -0.3107(3) -0.40741(19)
O13A O 0.4546(4) -0.2777(3) -0.2492(2)
O14A O 0.6374(4) 0.2936(4) -0.2433(2)
O15A O 0.8886(4) 0.2586(3) -0.4195(2)
O16A O 0.5039(3) -0.0336(3) -0.4000(2)
O17A O 0.9118(3) -0.0755(3) -0.13649(18)
O18A O 1.0314(3) -0.0904(3) -0.22023(18)
O19A O 0.8508(3) -0.2271(3) -0.21120(19)
O20A O 0.7104(3) -0.0925(3) -0.11149(18)
O21A O 1.0021(3) 0.1273(3) -0.12397(18)
O22A O 1.1243(3) 0.1127(3) -0.21057(18)
O23A O 1.0265(3) -0.1320(3) -0.32981(18)
O24A O 0.8432(3) -0.2726(3) -0.32106(19)
O25A O 0.6475(3) -0.2460(3) -0.18741(18)
O26A O 0.7931(3) 0.1056(3) -0.13152(19)
O27A O 1.0274(3) 0.2608(3) -0.20540(19)
O28A O 1.0626(3) 0.0716(3) -0.31822(19)
O29A O 0.8675(3) -0.1399(3) -0.40143(18)
O30A O 0.6572(3) -0.2353(3) -0.29817(19)
O31A O 0.5507(3) -0.0994(3) -0.18358(19)
O32A O 0.6381(3) 0.0999(3) -0.20172(18)
O33A O 0.8192(3) 0.2346(3) -0.21088(19)
O34A O 0.9676(3) 0.2160(3) -0.31435(19)
O35A O 0.9078(3) 0.0648(3) -0.3887(2)
O36A O 0.6819(3) -0.1069(3) -0.37761(19)
O37A O 0.5626(3) -0.0903(3) -0.29443(18)
O38A O 0.7768(3) 0.2487(3) -0.32045(19)
O39A O 0.7155(3) 0.0930(3) -0.39604(19)
O40A O 0.5924(3) 0.1102(3) -0.31136(18)
N1A N 0.4722(4) -0.4478(4) -0.1596(3)
N2A N 0.5306(6) -0.5149(5) -0.1498(3)
N3A N 0.5747(6) -0.4945(6) -0.0994(3)
N4A N 0.5452(5) -0.4158(5) -0.0762(3)
N5A N 0.2499(4) -0.4781(4) -0.2624(2)
N6A N 0.2230(4) -0.4955(4) -0.3173(2)
N7A N 0.1209(4) -0.5202(5) -0.3263(3)
N8A N 0.0797(4) -0.5185(4) -0.2752(2)
N9A N -0.0753(5) -0.2811(4) 0.0084(3)
N10A N -0.1486(5) -0.3336(5) 0.0432(3)
N11A N -0.1929(5) -0.4253(5) 0.0203(3)
N12A N -0.1482(5) -0.4316(4) -0.0286(3)
N13A N 0.1300(4) -0.0301(4) 0.0018(2)
N14A N -0.1308(4) -0.0693(4) 0.0013(2)
N15A N -0.2240(4) -0.1255(4) 0.0138(3)
N16A N -0.2843(4) -0.0605(4) 0.0202(2)
N17A N 0.4559(4) -0.5121(4) -0.3529(2)
N18A N 0.4898(4) -0.4821(4) -0.2983(2)
N19A N 0.5866(5) -0.4850(5) -0.2893(3)
N20A N 0.6177(4) -0.5182(4) -0.3387(2)
N21A N 0.3912(6) -0.7929(8) -0.2586(3)
N22A N 0.4002(10) -0.8212(15) -0.2053(5)
N23A N 0.3698(9) -0.9209(14) -0.2027(5)
N24A N 0.3401(7) -0.9591(10) -0.2550(4)
N25A N 0.2245(4) -0.5268(4) -0.4494(3)
N26A N 0.2001(5) -0.4640(5) -0.4874(3)
N27A N 0.1269(5) -0.5165(5) -0.5220(3)
N28A N 0.1022(5) -0.6145(5) -0.5069(3)
N29A N 0.5655(5) -0.7034(4) -0.5557(3)
N30A N -0.3655(5) 0.3237(4) 0.4020(3)
N30_2 N 0.3655(5) -0.3237(4) -0.4020(3)
N30A_2 N 0.6345(5) -0.6763(4) -0.5980(3)
N31A N 0.7046(5) -0.7275(5) -0.5976(3)
N32A N 0.6824(4) -0.7896(4) -0.5544(3)
C1A C 0.2164(5) -0.3044(5) -0.0946(3)
C2A C 0.3073(5) -0.3432(5) -0.0697(3)
H7A H 0.3147 -0.3274 -0.0294
H8A H 0.2908 -0.4174 -0.0760
C3A C 0.1965(6) -0.3369(5) -0.1574(3)
H9A H 0.1455 -0.3051 -0.1738
H10A H 0.2621 -0.3148 -0.1772
C4A C 0.1161(5) -0.3512(6) -0.0618(3)
H11A H 0.1009 -0.4257 -0.0633
H12A H 0.1275 -0.3265 -0.0227
C5A C 0.2455(6) -0.1851(5) -0.0892(3)
H13A H 0.3064 -0.1561 -0.1116
H14A H 0.1864 -0.1615 -0.1031
C6A C 0.4820(5) -0.3872(5) -0.1137(3)
C7A C 0.5812(7) -0.3732(8) -0.0200(4)
H15A H 0.6261 -0.4110 -0.0039
H16A H 0.6204 -0.3021 -0.0217
H17A H 0.5209 -0.3784 0.0030
C8A C 0.1588(5) -0.4924(5) -0.2366(3)
C9A C -0.0355(6) -0.5403(6) -0.2692(4)
H18A H -0.0507 -0.5359 -0.2301
H19A H -0.0613 -0.4908 -0.2889
H20A H -0.0698 -0.6084 -0.2848
C10A C -0.0757(5) -0.3421(5) -0.0357(3)
C11A C -0.1817(8) -0.5240(7) -0.0672(4)
H21A H -0.2354 -0.5761 -0.0502
H22A H -0.2098 -0.5062 -0.1018
H23A H -0.1217 -0.5497 -0.0748
C12A C 0.2275(5) -0.0348(5) -0.0112(3)
C13A C -0.3936(7) -0.0978(7) 0.0378(5)
H24A H -0.4252 -0.0416 0.0402
H25A H -0.3939 -0.1266 0.0740
H26A H -0.4335 -0.1498 0.0109
C14A C 0.3639(5) -0.7624(5) -0.4461(3)
C15A C 0.4114(5) -0.6499(5) -0.4637(3)
H27A H 0.4031 -0.6504 -0.5044
H28A H 0.3677 -0.6088 -0.4482
C16A C 0.3828(5) -0.7683(5) -0.3828(3)
H29A H 0.4585 -0.7508 -0.3740
H30A H 0.3541 -0.7188 -0.3626
C17A C 0.2438(5) -0.7917(5) -0.4632(3)
H31A H 0.2375 -0.7775 -0.5025
H32A H 0.2157 -0.8655 -0.4603
C18A C 0.4057(6) -0.8396(5) -0.4821(3)
H33A H 0.3618 -0.9084 -0.4757
H34A H 0.3950 -0.8272 -0.5213
C19A C 0.5377(5) -0.5350(5) -0.3772(3)
C20A C 0.7241(5) -0.5306(6) -0.3447(3)
H35A H 0.7313 -0.5549 -0.3825
H36A H 0.7758 -0.4655 -0.3367
H37A H 0.7353 -0.5796 -0.3188
C21A C 0.3536(6) -0.8788(8) -0.2882(4)
C22A C 0.3016(10) -1.0686(12) -0.2700(6)
H38A H 0.3008 -1.1068 -0.2368
H39A H 0.2310 -1.0837 -0.2863
H40A H 0.3476 -1.0876 -0.2966
C23A C 0.1620(5) -0.6210(5) -0.4629(3)
C24A C 0.0170(6) -0.6940(7) -0.5373(4)
H41A H 0.0102 -0.7592 -0.5210
H42A H -0.0487 -0.6760 -0.5344
H43A H 0.0338 -0.6987 -0.5761
C25A C 0.5976(5) -0.7734(5) -0.5288(3)
C26A C 0.7427(7) -0.8626(6) -0.5422(4)
H44A H 0.7988 -0.8557 -0.5681
H45A H 0.7725 -0.8488 -0.5044
H46A H 0.6965 -0.9315 -0.5458
O41 O -0.5961(8) 0.7201(6) 0.0848(5)
H1 H -0.5858 0.7771 0.0690
H2 H -0.6107 0.7305 0.1188
O42 O -0.3411(10) 0.6828(10) 0.1092(5)
H3 H -0.2783 0.6828 0.1009
H4 H -0.3796 0.6686 0.0791
O43 O -0.7738(7) 0.4745(8) 0.2013(4)
H5 H -0.7272 0.5316 0.2085
H6 H -0.8309 0.4781 0.2164
loop_
_geom_bond_atom_site_label_1
_geom_bond_atom_site_label_2
_geom_bond_site_symmetry_1
_geom_bond_site_symmetry_2
P1 O1 1_555 1_555
W1 O1 1_555 1_555
W2 O2 1_555 1_555
W3 O3 1_555 1_555
W4 O1 1_555 1_555
W5 O2 1_555 1_555
W6 O2 1_555 1_555
W7 O3 1_555 1_555
W8 O3 1_555 1_555
W9 O1 1_555 1_555
W10 O4 1_555 1_555
W11 O4 1_555 1_555
W12 O4 1_555 1_555
Cu1 O13 1_555 1_555
Cu2 N6 1_555 1_555
Cu3 N9 1_555 1_555
S1 C2 1_555 1_555
S2 C3 1_555 1_555
S3 C4 1_555 1_555
S4 C5 1_555 1_555
S5 C15 1_555 1_555
S6 C16 1_555 1_555
S7 C17 1_555 1_555
S8 C18 1_555 1_555
O2 P1 1_555 1_555
O3 P1 1_555 1_555
O4 P1 1_555 1_555
O5 W1 1_555 1_555
O6 W2 1_555 1_555
O7 W3 1_555 1_555
O8 W4 1_555 1_555
O9 W5 1_555 1_555
O10 W6 1_555 1_555
O11 W7 1_555 1_555
O12 W8 1_555 1_555
O13 W9 1_555 1_555
O14 W10 1_555 1_555
O15 W11 1_555 1_555
O16 W12 1_555 1_555
O17 W1 1_555 1_555
O18 W2 1_555 1_555
O19 W1 1_555 1_555
O20 W1 1_555 1_555
O21 W2 1_555 1_555
O22 W2 1_555 1_555
O23 W3 1_555 1_555
O24 W3 1_555 1_555
O25 W1 1_555 1_555
O26 W4 1_555 1_555
O27 W5 1_555 1_555
O28 W6 1_555 1_555
O29 W7 1_555 1_555
O30 W8 1_555 1_555
O31 W4 1_555 1_555
O32 W4 1_555 1_555
O33 W5 1_555 1_555
O34 W6 1_555 1_555
O35 W7 1_555 1_555
O36 W8 1_555 1_555
O37 W9 1_555 1_555
O38 W10 1_555 1_555
O39 W11 1_555 1_555
O40 W10 1_555 1_555
O41 H1 1_555 1_555
H2 O41 1_555 1_555
O42 H3 1_555 1_555
H4 O42 1_555 1_555
O43 H5 1_555 1_555
H6 O43 1_555 1_555
N1 Cu1 1_555 1_555
N2 N1 1_555 1_555
N3 N2 1_555 1_555
N4 N3 1_555 1_555
N5 Cu1 1_555 1_555
N6 N5 1_555 1_555
N7 N6 1_555 1_555
N8 N7 1_555 1_555
N9 N10 1_555 1_555
N10 N11 1_555 1_555
N11 N12 1_555 1_555
N12 C10 1_555 1_555
N13 Cu3 1_555 1_555
N14 Cu3 1_555 1_555
N15 N14 1_555 1_555
N16 N15 1_555 1_555
N17 Cu2 1_555 1_555
N18 Cu1 1_555 1_555
N19 N18 1_555 1_555
N20 N19 1_555 1_555
N21 N22 1_555 1_555
N22 N23 1_555 1_555
N23 N24 1_555 1_555
N24 C21 1_555 1_555
N25 Cu2 1_555 1_555
N26 N25 1_555 1_555
N27 N26 1_555 1_555
N28 N27 1_555 1_555
N29 N30 1_555 1_555
N30 N31 1_555 1_555
N31 N32 1_555 1_555
N32 C25 1_555 1_555
C1 C2 1_555 1_555
C2 H7 1_555 1_555
H8 C2 1_555 1_555
C3 C1 1_555 1_555
H9 C3 1_555 1_555
H10 C3 1_555 1_555
C4 C1 1_555 1_555
H11 C4 1_555 1_555
H12 C4 1_555 1_555
C5 C1 1_555 1_555
H13 C5 1_555 1_555
H14 C5 1_555 1_555
C6 S1 1_555 1_555
C7 N4 1_555 1_555
H15 C7 1_555 1_555
H16 C7 1_555 1_555
H17 C7 1_555 1_555
C8 S2 1_555 1_555
C9 N8 1_555 1_555
H18 C9 1_555 1_555
H19 C9 1_555 1_555
H20 C9 1_555 1_555
C10 S3 1_555 1_555
C11 N12 1_555 1_555
H21 C11 1_555 1_555
H22 C11 1_555 1_555
H23 C11 1_555 1_555
C12 S4 1_555 1_555
C13 N16 1_555 1_555
H24 C13 1_555 1_555
H25 C13 1_555 1_555
H26 C13 1_555 1_555
C14 C15 1_555 1_555
C15 H27 1_555 1_555
H28 C15 1_555 1_555
C16 C14 1_555 1_555
H29 C16 1_555 1_555
H30 C16 1_555 1_555
C17 C14 1_555 1_555
H31 C17 1_555 1_555
H32 C17 1_555 1_555
C18 C14 1_555 1_555
H33 C18 1_555 1_555
H34 C18 1_555 1_555
C19 S5 1_555 1_555
C20 N20 1_555 1_555
H35 C20 1_555 1_555
H36 C20 1_555 1_555
H37 C20 1_555 1_555
C21 S6 1_555 1_555
C22 N24 1_555 1_555
H38 C22 1_555 1_555
H39 C22 1_555 1_555
H40 C22 1_555 1_555
C23 S7 1_555 1_555
C24 N28 1_555 1_555
H41 C24 1_555 1_555
H42 C24 1_555 1_555
H43 C24 1_555 1_555
C25 S8 1_555 1_555
C26 N32 1_555 1_555
H44 C26 1_555 1_555
H45 C26 1_555 1_555
H46 C26 1_555 1_555
P1A O1A 1_555 1_555
W1A O1A 1_555 1_555
W2A O2A 1_555 1_555
W3A O3A 1_555 1_555
W4A O1A 1_555 1_555
W5A O2A 1_555 1_555
W6A O2A 1_555 1_555
W7A O3A 1_555 1_555
W8A O3A 1_555 1_555
W9A O1A 1_555 1_555
W10A O4A 1_555 1_555
W11A O4A 1_555 1_555
W12A O4A 1_555 1_555
Cu1A O13A 1_555 1_555
Cu2A N30 1_555 1_555
Cu2A_2 N6A 1_555 1_555
Cu2_2 N30A_2 1_555 1_555
Cu3A N9A 1_555 1_555
S1A C2A 1_555 1_555
S2A C3A 1_555 1_555
S3A C4A 1_555 1_555
S4A C5A 1_555 1_555
S5A C15A 1_555 1_555
S6A C16A 1_555 1_555
S7A C17A 1_555 1_555
S8A C18A 1_555 1_555
O2A P1A 1_555 1_555
O3A P1A 1_555 1_555
O4A P1A 1_555 1_555
O5A W1A 1_555 1_555
O6A W2A 1_555 1_555
O7A W3A 1_555 1_555
O8A W4A 1_555 1_555
O9A W5A 1_555 1_555
O10A W6A 1_555 1_555
O11A W7A 1_555 1_555
O12A W8A 1_555 1_555
O13A W9A 1_555 1_555
O14A W10A 1_555 1_555
O15A W11A 1_555 1_555
O16A W12A 1_555 1_555
O17A W1A 1_555 1_555
O18A W2A 1_555 1_555
O19A W1A 1_555 1_555
O20A W1A 1_555 1_555
O21A W2A 1_555 1_555
O22A W2A 1_555 1_555
O23A W3A 1_555 1_555
O24A W3A 1_555 1_555
O25A W1A 1_555 1_555
O26A W4A 1_555 1_555
O27A W5A 1_555 1_555
O28A W6A 1_555 1_555
O29A W7A 1_555 1_555
O30A W8A 1_555 1_555
O31A W4A 1_555 1_555
O32A W4A 1_555 1_555
O33A W5A 1_555 1_555
O34A W6A 1_555 1_555
O35A W7A 1_555 1_555
O36A W8A 1_555 1_555
O37A W9A 1_555 1_555
O38A W10A 1_555 1_555
O39A W11A 1_555 1_555
O40A W10A 1_555 1_555
N1A Cu1A 1_555 1_555
N2A N1A 1_555 1_555
N3A N2A 1_555 1_555
N4A N3A 1_555 1_555
N5A Cu1A 1_555 1_555
N6A N5A 1_555 1_555
N7A N6A 1_555 1_555
N8A N7A 1_555 1_555
N9A N10A 1_555 1_555
N10A N11A 1_555 1_555
N11A N12A 1_555 1_555
N12A C10A 1_555 1_555
N13A N14 1_555 1_555
N14A N13 1_555 1_555
N15A N14A 1_555 1_555
N16A C12 1_555 1_555
N17A Cu2A_2 1_555 1_555
N18A Cu1A 1_555 1_555
N19A N18A 1_555 1_555
N20A N19A 1_555 1_555
N21A N22A 1_555 1_555
N22A N23A 1_555 1_555
N23A N24A 1_555 1_555
N24A C21A 1_555 1_555
N25A Cu2A_2 1_555 1_555
N26A N25A 1_555 1_555
N27A N26A 1_555 1_555
N28A N27A 1_555 1_555
N29A N30A_2 1_555 1_555
N30A Cu2 1_555 1_555
N30_2 Cu2A_2 1_555 1_555
N30A_2 N31A 1_555 1_555
N31A N32A 1_555 1_555
N32A C25A 1_555 1_555
C1A C2A 1_555 1_555
C2A H7A 1_555 1_555
H8A C2A 1_555 1_555
C3A C1A 1_555 1_555
H9A C3A 1_555 1_555
H10A C3A 1_555 1_555
C4A C1A 1_555 1_555
H11A C4A 1_555 1_555
H12A C4A 1_555 1_555
C5A C1A 1_555 1_555
H13A C5A 1_555 1_555
H14A C5A 1_555 1_555
C6A S1A 1_555 1_555
C7A N4A 1_555 1_555
H15A C7A 1_555 1_555
H16A C7A 1_555 1_555
H17A C7A 1_555 1_555
C8A S2A 1_555 1_555
C9A N8A 1_555 1_555
H18A C9A 1_555 1_555
H19A C9A 1_555 1_555
H20A C9A 1_555 1_555
C10A S3A 1_555 1_555
C11A N12A 1_555 1_555
H21A C11A 1_555 1_555
H22A C11A 1_555 1_555
H23A C11A 1_555 1_555
C12A N16 1_555 1_555
C13A N16A 1_555 1_555
H24A C13A 1_555 1_555
H25A C13A 1_555 1_555
H26A C13A 1_555 1_555
C14A C15A 1_555 1_555
C15A H27A 1_555 1_555
H28A C15A 1_555 1_555
C16A C14A 1_555 1_555
H29A C16A 1_555 1_555
H30A C16A 1_555 1_555
C17A C14A 1_555 1_555
H31A C17A 1_555 1_555
H32A C17A 1_555 1_555
C18A C14A 1_555 1_555
H33A C18A 1_555 1_555
H34A C18A 1_555 1_555
C19A S5A 1_555 1_555
C20A N20A 1_555 1_555
H35A C20A 1_555 1_555
H36A C20A 1_555 1_555
H37A C20A 1_555 1_555
C21A S6A 1_555 1_555
C22A N24A 1_555 1_555
H38A C22A 1_555 1_555
H39A C22A 1_555 1_555
H40A C22A 1_555 1_555
C23A S7A 1_555 1_555
C24A N28A 1_555 1_555
H41A C24A 1_555 1_555
H42A C24A 1_555 1_555
H43A C24A 1_555 1_555
C25A S8A 1_555 1_555
C26A N32A 1_555 1_555
H44A C26A 1_555 1_555
H45A C26A 1_555 1_555
H46A C26A 1_555 1_555
W2 O17 1_555 1_555
W3 O18 1_555 1_555
W3 O19 1_555 1_555
W4 O20 1_555 1_555
W5 O21 1_555 1_555
W5 O26 1_555 1_555
W6 O22 1_555 1_555
W6 O27 1_555 1_555
W7 O23 1_555 1_555
W7 O28 1_555 1_555
W8 O24 1_555 1_555
W8 O29 1_555 1_555
W9 O25 1_555 1_555
W9 O30 1_555 1_555
W9 O31 1_555 1_555
W10 O32 1_555 1_555
W10 O33 1_555 1_555
W11 O34 1_555 1_555
W11 O35 1_555 1_555
W11 O38 1_555 1_555
W12 O36 1_555 1_555
W12 O37 1_555 1_555
W12 O39 1_555 1_555
W12 O40 1_555 1_555
N1 C6 1_555 1_555
N4 C6 1_555 1_555
N5 C8 1_555 1_555
N8 C8 1_555 1_555
N9 C10 1_555 1_555
N13 C12 1_555 1_555
N17 N18 1_555 1_555
N17 C19 1_555 1_555
N20 C19 1_555 1_555
N21 C21 1_555 1_555
N25 C23 1_555 1_555
N28 C23 1_555 1_555
N29 C25 1_555 1_555
W2A O17A 1_555 1_555
W3A O18A 1_555 1_555
W3A O19A 1_555 1_555
W4A O20A 1_555 1_555
W5A O21A 1_555 1_555
W5A O26A 1_555 1_555
W6A O22A 1_555 1_555
W6A O27A 1_555 1_555
W7A O23A 1_555 1_555
W7A O28A 1_555 1_555
W8A O24A 1_555 1_555
W8A O29A 1_555 1_555
W9A O25A 1_555 1_555
W9A O30A 1_555 1_555
W9A O31A 1_555 1_555
W10A O32A 1_555 1_555
W10A O33A 1_555 1_555
W11A O34A 1_555 1_555
W11A O35A 1_555 1_555
W11A O38A 1_555 1_555
W12A O36A 1_555 1_555
W12A O37A 1_555 1_555
W12A O39A 1_555 1_555
W12A O40A 1_555 1_555
Cu3A N13A 1_555 1_555
Cu3A N14A 1_555 1_555
S4A C12A 1_555 1_555
N1A C6A 1_555 1_555
N4A C6A 1_555 1_555
N5A C8A 1_555 1_555
N8A C8A 1_555 1_555
N9A C10A 1_555 1_555
N13A C12A 1_555 1_555
N15A N16A 1_555 1_555
N17A N18A 1_555 1_555
N17A C19A 1_555 1_555
N20A C19A 1_555 1_555
N21A C21A 1_555 1_555
N25A C23A 1_555 1_555
N28A C23A 1_555 1_555
N29A C25A 1_555 1_555

#END
