
#######################################################################
#
#                 Cambridge Crystallographic Data Centre
#                                CCDC 
#
#######################################################################
#
# If this CIF has been generated from an entry in the Cambridge 
# Structural Database, then it will include bibliographic, chemical, 
# crystal, experimental, refinement or atomic coordinate data resulting 
# from the CCDC's data processing and validation procedures.
#
#######################################################################

data_TEPHIH
_symmetry_cell_setting           triclinic
_symmetry_space_group_name_H-M   'P -1'
_symmetry_Int_Tables_number      2
_space_group_name_Hall           '-P 1'
loop_
_symmetry_equiv_pos_site_id
_symmetry_equiv_pos_as_xyz
1 x,y,z
2 -x,-y,-z
_cell_length_a                   13.063(3)
_cell_length_b                   13.512(4)
_cell_length_c                   23.709(6)
_cell_angle_alpha                92.366(6)
_cell_angle_beta                 91.564(5)
_cell_angle_gamma                105.990(5)
_cell_volume                     4016.21
loop_
_atom_site_label
_atom_site_type_symbol
_atom_site_fract_x
_atom_site_fract_y
_atom_site_fract_z
P1 P -0.82366(6) 0.00328(6) -0.24181(3)
Mo1 Mo -0.78269(3) 0.17888(3) -0.350960(15)
Mo2 Mo -1.04170(2) -0.01609(2) -0.337710(13)
Mo3 Mo -0.95415(3) 0.20308(3) -0.231990(14)
Mo4 Mo -0.65306(3) -0.00807(3) -0.354660(14)
Mo5 Mo -0.91268(3) -0.20378(2) -0.344990(14)
Mo6 Mo -1.07199(2) -0.18839(3) -0.234810(14)
Mo7 Mo -0.98857(3) 0.02965(3) -0.128360(15)
Mo8 Mo -0.74945(2) 0.21113(2) -0.138840(13)
Mo9 Mo -0.57656(3) 0.19164(3) -0.256930(13)
Mo10 Mo -0.69247(3) -0.19596(3) -0.242170(14)
Mo11 Mo -0.84954(2) -0.17459(3) -0.132130(14)
Mo12 Mo -0.61164(2) 0.00495(2) -0.144710(14)
Cu1 Cu -0.39985(4) 0.45237(4) -0.26752(2)
Cu2 Cu -0.32724(4) 0.47575(4) -0.11886(2)
Cu3 Cu -0.00166(4) 0.13393(4) -0.51779(2)
S1 S -0.43685(8) 0.28105(7) -0.39824(4)
S2 S -0.14731(9) 0.47668(8) -0.33654(4)
S3 S -0.00733(8) 0.30946(9) -0.40739(4)
S4 S -0.28039(9) 0.13865(8) -0.48566(4)
S5 S -0.54901(7) 0.58232(8) -0.05462(4)
S6 S -0.32183(9) 0.89586(9) -0.14106(4)
S7 S -0.15889(8) 0.72884(9) -0.07646(4)
S8 S -0.54362(9) 0.83931(8) -0.02917(4)
O1 O -0.74425(17) 0.06462(17) -0.28294(9)
O2 O -0.91945(17) -0.06796(16) -0.27539(9)
O3 O -0.86159(17) 0.07841(17) -0.20287(9)
O4 O -0.76910(17) -0.06121(16) -0.20628(9)
O5 O -0.7861(2) 0.2645(2) -0.39995(12)
O6 O -1.1348(2) 0.0056(2) -0.38149(10)
O7 O -1.0196(2) 0.2919(2) -0.24366(12)
O8 O -0.5842(2) -0.0407(2) -0.40757(11)
O9 O -0.9277(2) -0.3007(2) -0.39369(12)
O10 O -1.1831(2) -0.2748(2) -0.21728(11)
O11 O -1.0725(2) 0.0177(2) -0.07535(12)
O12 O -0.6905(2) 0.3092(2) -0.09233(11)
O13 O -0.4562(2) 0.2786(2) -0.24958(11)
O14 O -0.6387(2) -0.2921(2) -0.25652(12)
O15 O -0.8874(2) -0.2569(2) -0.08078(12)
O16 O -0.5050(2) 0.0334(2) -0.10047(11)
O17 O -0.91198(19) 0.07639(19) -0.36418(10)
O18 O -1.03128(19) 0.09056(18) -0.28102(10)
O19 O -0.8505(2) 0.22773(18) -0.28938(10)
O20 O -0.7074(2) 0.09432(19) -0.38949(10)
O21 O -1.00348(19) -0.12709(18) -0.37807(10)
O22 O -1.12636(18) -0.11397(18) -0.29125(10)
O23 O -1.02883(19) 0.13401(19) -0.16990(11)
O24 O -0.8440(2) 0.27428(18) -0.17875(10)
O25 O -0.64563(19) 0.24835(18) -0.31316(10)
O26 O -0.79217(19) -0.10396(18) -0.36919(10)
O27 O -1.02847(19) -0.26134(18) -0.29647(10)
O28 O -1.06369(19) -0.07217(18) -0.18279(10)
O29 O -0.86938(19) 0.14047(18) -0.09765(10)
O30 O -0.65712(19) 0.23659(18) -0.20080(10)
O31 O -0.54853(19) 0.10087(19) -0.31614(10)
O32 O -0.63769(19) -0.09943(18) -0.29808(10)
O33 O -0.81899(19) -0.23442(18) -0.28970(10)
O34 O -0.96742(18) -0.21656(18) -0.18618(10)
O35 O -0.90883(19) -0.06491(18) -0.11130(10)
O36 O -0.68179(19) 0.10785(18) -0.12165(10)
O37 O -0.56255(19) 0.09074(18) -0.20500(10)
O38 O -0.77635(19) -0.24886(18) -0.17912(10)
O39 O -0.71377(19) -0.09287(19) -0.10311(10)
O40 O -0.59093(19) -0.11055(18) -0.18766(10)
N1 N -0.4748(3) 0.4479(2) -0.34102(14)
N2 N -0.5342(3) 0.5143(3) -0.35084(17)
N3 N -0.5769(3) 0.4967(3) -0.40091(18)
N4 N -0.5469(3) 0.4171(3) -0.42464(14)
N5 N -0.2515(2) 0.4785(2) -0.23834(13)
N6 N -0.2241(2) 0.4958(2) -0.18235(13)
N7 N -0.1208(3) 0.5204(3) -0.17433(14)
N8 N -0.0807(2) 0.5180(2) -0.22563(14)
N9 N 0.0741(2) 0.2808(2) -0.50961(13)
N10 N 0.1467(3) 0.3360(3) -0.54401(14)
N11 N 0.1890(3) 0.4268(3) -0.52066(15)
N12 N 0.1444(3) 0.4312(2) -0.47068(14)
N13 N -0.1318(2) 0.0297(2) -0.50185(12)
N14 N 0.1310(2) 0.0700(2) -0.50192(13)
N15 N 0.2233(2) 0.1266(2) -0.51562(13)
N16 N 0.2851(2) 0.0635(2) -0.52148(13)
N17 N -0.4580(2) 0.5116(2) -0.14736(12)
N18 N -0.4919(3) 0.4828(2) -0.20211(13)
N19 N -0.5886(3) 0.4862(3) -0.21071(13)
N20 N -0.6184(2) 0.5191(2) -0.16156(13)
N21 N -0.3915(4) 0.7875(4) -0.24219(17)
N22 N -0.4016(5) 0.8137(7) -0.2963(2)
N23 N -0.3706(5) 0.9131(7) -0.3003(2)
N24 N -0.3416(3) 0.9549(5) -0.24729(19)
N25 N -0.2252(3) 0.5261(3) -0.05060(13)
N26 N -0.2005(3) 0.4630(3) -0.01243(15)
N27 N -0.1256(3) 0.5165(3) 0.02267(15)
N28 N -0.1013(3) 0.6148(3) 0.00735(14)
N29 N -0.5644(3) 0.7032(2) 0.05593(13)
N30 N -0.6328(3) 0.6771(2) 0.09862(14)
N31 N -0.7033(3) 0.7284(3) 0.09826(15)
N32 N -0.6817(2) 0.7901(2) 0.05491(14)
C1 C -0.2210(3) 0.3011(3) -0.40579(15)
C2 C -0.3109(3) 0.3404(3) -0.43157(16)
H7 H -0.3185 0.3234 -0.4719
H8 H -0.2933 0.4148 -0.4259
C3 C -0.2007(3) 0.3353(3) -0.34276(15)
H9 H -0.1501 0.3033 -0.3259
H10 H -0.2667 0.3141 -0.3230
C4 C -0.1201(3) 0.3467(3) -0.43870(15)
H11 H -0.1043 0.4213 -0.4375
H12 H -0.1319 0.3216 -0.4779
C5 C -0.2505(3) 0.1825(3) -0.41058(15)
H13 H -0.3122 0.1539 -0.3885
H14 H -0.1916 0.1589 -0.3960
C6 C -0.4847(3) 0.3879(3) -0.38726(15)
C7 C -0.5843(4) 0.3744(4) -0.48172(19)
H15 H -0.5264 0.3600 -0.5015
H16 H -0.6106 0.4233 -0.5017
H17 H -0.6405 0.3118 -0.4794
C8 C -0.1607(3) 0.4919(3) -0.26430(16)
C9 C 0.0341(3) 0.5412(3) -0.2320(2)
H18 H 0.0479 0.5129 -0.2679
H19 H 0.0651 0.5113 -0.2023
H20 H 0.0648 0.6145 -0.2301
C10 C 0.0734(3) 0.3409(3) -0.46459(16)
C11 C 0.1758(4) 0.5221(4) -0.4318(2)
H21 H 0.1249 0.5612 -0.4353
H22 H 0.2450 0.5640 -0.4408
H23 H 0.1780 0.5008 -0.3937
C12 C -0.2295(3) 0.0321(3) -0.48868(14)
C13 C 0.3941(3) 0.1009(4) -0.5390(2)
H24 H 0.4119 0.0480 -0.5617
H25 H 0.4008 0.1607 -0.5607
H26 H 0.4415 0.1189 -0.5063
C14 C -0.3643(3) 0.7615(3) -0.05435(15)
C15 C -0.4098(3) 0.6497(3) -0.03631(15)
H27 H -0.4002 0.6504 0.0044
H28 H -0.3663 0.6088 -0.0524
C16 C -0.3842(3) 0.7677(3) -0.11811(15)
H29 H -0.4603 0.7501 -0.1267
H30 H -0.3558 0.7181 -0.1386
C17 C -0.2437(3) 0.7916(3) -0.03723(16)
H31 H -0.2369 0.7778 0.0023
H32 H -0.2156 0.8654 -0.0404
C18 C -0.4051(3) 0.8398(3) -0.01869(16)
H33 H -0.3611 0.9083 -0.0258
H34 H -0.3934 0.8284 0.0208
C19 C -0.5385(3) 0.5353(3) -0.12287(15)
C20 C -0.7256(3) 0.5308(3) -0.15546(18)
H35 H -0.7677 0.4740 -0.1357
H36 H -0.7581 0.5317 -0.1922
H37 H -0.7214 0.5942 -0.1345
C21 C -0.3549(3) 0.8756(4) -0.21333(19)
C22 C -0.3051(5) 1.0630(6) -0.2344(3)
H38 H -0.3458 1.0813 -0.2046
H39 H -0.3138 1.0992 -0.2674
H40 H -0.2311 1.0813 -0.2225
C23 C -0.1632(3) 0.6201(3) -0.03783(16)
C24 C -0.0167(4) 0.6937(4) 0.0376(2)
H41 H -0.0076 0.7582 0.0200
H42 H 0.0485 0.6742 0.0366
H43 H -0.0354 0.7009 0.0761
C25 C -0.5978(3) 0.7740(3) 0.02927(16)
C26 C -0.7427(4) 0.8625(3) 0.0429(2)
H44 H -0.6956 0.9310 0.0434
H45 H -0.7948 0.8592 0.0711
H46 H -0.7781 0.8450 0.0064
P1A P 0.82366(6) -0.00328(6) -0.75819(3)
Mo1A Mo 0.78269(3) -0.17888(3) -0.649040(15)
Mo2A Mo 1.04170(2) 0.01609(2) -0.662290(13)
Mo3A Mo 0.95415(3) -0.20308(3) -0.768010(14)
Mo4A Mo 0.65306(3) 0.00807(3) -0.645340(14)
Mo5A Mo 0.91268(3) 0.20378(2) -0.655010(14)
Mo6A Mo 1.07199(2) 0.18839(3) -0.765190(14)
Mo7A Mo 0.98857(3) -0.02965(3) -0.871640(15)
Mo8A Mo 0.74945(2) -0.21113(2) -0.861160(13)
Mo9A Mo 0.57656(3) -0.19164(3) -0.743070(13)
Mo10A Mo 0.69247(3) 0.19596(3) -0.757830(14)
Mo11A Mo 0.84954(2) 0.17459(3) -0.867870(14)
Mo12A Mo 0.61164(2) -0.00495(2) -0.855290(14)
Cu1A Cu 0.39985(4) -0.45237(4) -0.73248(2)
Cu2A Cu -0.67276(4) 0.52425(4) 0.11886(2)
Cu2A_2 Cu 0.32724(4) -0.47575(4) -0.88114(2)
Cu2_2 Cu 0.67276(4) -0.52425(4) -1.11886(2)
Cu3A Cu 0.00166(4) -0.13393(4) -0.48221(2)
S1A S 0.43685(8) -0.28105(7) -0.60176(4)
S2A S 0.14731(9) -0.47668(8) -0.66346(4)
S3A S 0.00733(8) -0.30946(9) -0.59261(4)
S4A S 0.28039(9) -0.13865(8) -0.51434(4)
S5A S 0.54901(7) -0.58232(8) -0.94538(4)
S6A S 0.32183(9) -0.89586(9) -0.85894(4)
S7A S 0.15889(8) -0.72884(9) -0.92354(4)
S8A S 0.54362(9) -0.83931(8) -0.97083(4)
O1A O 0.74425(17) -0.06462(17) -0.71706(9)
O2A O 0.91945(17) 0.06796(16) -0.72461(9)
O3A O 0.86159(17) -0.07841(17) -0.79713(9)
O4A O 0.76910(17) 0.06121(16) -0.79372(9)
O5A O 0.7861(2) -0.2645(2) -0.60005(12)
O6A O 1.1348(2) -0.0056(2) -0.61851(10)
O7A O 1.0196(2) -0.2919(2) -0.75634(12)
O8A O 0.5842(2) 0.0407(2) -0.59243(11)
O9A O 0.9277(2) 0.3007(2) -0.60631(12)
O10A O 1.1831(2) 0.2748(2) -0.78272(11)
O11A O 1.0725(2) -0.0177(2) -0.92465(12)
O12A O 0.6905(2) -0.3092(2) -0.90767(11)
O13A O 0.4562(2) -0.2786(2) -0.75042(11)
O14A O 0.6387(2) 0.2921(2) -0.74348(12)
O15A O 0.8874(2) 0.2569(2) -0.91922(12)
O16A O 0.5050(2) -0.0334(2) -0.89953(11)
O17A O 0.91198(19) -0.07639(19) -0.63582(10)
O18A O 1.03128(19) -0.09056(18) -0.71898(10)
O19A O 0.8505(2) -0.22773(18) -0.71062(10)
O20A O 0.7074(2) -0.09432(19) -0.61051(10)
O21A O 1.00348(19) 0.12709(18) -0.62193(10)
O22A O 1.12636(18) 0.11397(18) -0.70875(10)
O23A O 1.02883(19) -0.13401(19) -0.83010(11)
O24A O 0.8440(2) -0.27428(18) -0.82125(10)
O25A O 0.64563(19) -0.24835(18) -0.68684(10)
O26A O 0.79217(19) 0.10396(18) -0.63081(10)
O27A O 1.02847(19) 0.26134(18) -0.70353(10)
O28A O 1.06369(19) 0.07217(18) -0.81721(10)
O29A O 0.86938(19) -0.14047(18) -0.90235(10)
O30A O 0.65712(19) -0.23659(18) -0.79920(10)
O31A O 0.54853(19) -0.10087(19) -0.68386(10)
O32A O 0.63769(19) 0.09943(18) -0.70192(10)
O33A O 0.81899(19) 0.23442(18) -0.71030(10)
O34A O 0.96742(18) 0.21656(18) -0.81382(10)
O35A O 0.90883(19) 0.06491(18) -0.88870(10)
O36A O 0.68179(19) -0.10785(18) -0.87835(10)
O37A O 0.56255(19) -0.09074(18) -0.79500(10)
O38A O 0.77635(19) 0.24886(18) -0.82088(10)
O39A O 0.71377(19) 0.09287(19) -0.89689(10)
O40A O 0.59093(19) 0.11055(18) -0.81234(10)
N1A N 0.4748(3) -0.4479(2) -0.65898(14)
N2A N 0.5342(3) -0.5143(3) -0.64916(17)
N3A N 0.5769(3) -0.4967(3) -0.59909(18)
N4A N 0.5469(3) -0.4171(3) -0.57536(14)
N5A N 0.2515(2) -0.4785(2) -0.76166(13)
N6A N 0.2241(2) -0.4958(2) -0.81765(13)
N7A N 0.1208(3) -0.5204(3) -0.82567(14)
N8A N 0.0807(2) -0.5180(2) -0.77437(14)
N9A N -0.0741(2) -0.2808(2) -0.49039(13)
N10A N -0.1467(3) -0.3360(3) -0.45599(14)
N11A N -0.1890(3) -0.4268(3) -0.47934(15)
N12A N -0.1444(3) -0.4312(2) -0.52932(14)
N13A N 0.1318(2) -0.0297(2) -0.49815(12)
N14A N -0.1310(2) -0.0700(2) -0.49808(13)
N15A N -0.2233(2) -0.1266(2) -0.48438(13)
N16A N -0.2851(2) -0.0635(2) -0.47852(13)
N17A N 0.4580(2) -0.5116(2) -0.85264(12)
N18A N 0.4919(3) -0.4828(2) -0.79789(13)
N19A N 0.5886(3) -0.4862(3) -0.78929(13)
N20A N 0.6184(2) -0.5191(2) -0.83844(13)
N21A N 0.3915(4) -0.7875(4) -0.75781(17)
N22A N 0.4016(5) -0.8137(7) -0.7037(2)
N23A N 0.3706(5) -0.9131(7) -0.6997(2)
N24A N 0.3416(3) -0.9549(5) -0.75271(19)
N25A N 0.2252(3) -0.5261(3) -0.94940(13)
N26A N 0.2005(3) -0.4630(3) -0.98757(15)
N27A N 0.1256(3) -0.5165(3) -1.02267(15)
N28A N 0.1013(3) -0.6148(3) -1.00735(14)
N29A N 0.5644(3) -0.7032(2) -1.05593(13)
N30A N -0.3672(3) 0.3229(2) -0.09862(14)
N30_2 N 0.3672(3) -0.3229(2) -0.90138(14)
N30A_2 N 0.6328(3) -0.6771(2) -1.09862(14)
N31A N 0.7033(3) -0.7284(3) -1.09826(15)
N32A N 0.6817(2) -0.7901(2) -1.05491(14)
C1A C 0.2210(3) -0.3011(3) -0.59421(15)
C2A C 0.3109(3) -0.3404(3) -0.56843(16)
H7A H 0.3185 -0.3234 -0.5281
H8A H 0.2933 -0.4148 -0.5741
C3A C 0.2007(3) -0.3353(3) -0.65724(15)
H9A H 0.1501 -0.3033 -0.6741
H10A H 0.2667 -0.3141 -0.6770
C4A C 0.1201(3) -0.3467(3) -0.56130(15)
H11A H 0.1043 -0.4213 -0.5625
H12A H 0.1319 -0.3216 -0.5221
C5A C 0.2505(3) -0.1825(3) -0.58942(15)
H13A H 0.3122 -0.1539 -0.6115
H14A H 0.1916 -0.1589 -0.6040
C6A C 0.4847(3) -0.3879(3) -0.61274(15)
C7A C 0.5843(4) -0.3744(4) -0.51828(19)
H15A H 0.5264 -0.3600 -0.4985
H16A H 0.6106 -0.4233 -0.4983
H17A H 0.6405 -0.3118 -0.5206
C8A C 0.1607(3) -0.4919(3) -0.73570(16)
C9A C -0.0341(3) -0.5412(3) -0.7680(2)
H18A H -0.0479 -0.5129 -0.7321
H19A H -0.0651 -0.5113 -0.7977
H20A H -0.0648 -0.6145 -0.7699
C10A C -0.0734(3) -0.3409(3) -0.53541(16)
C11A C -0.1758(4) -0.5221(4) -0.5682(2)
H21A H -0.1249 -0.5612 -0.5647
H22A H -0.2450 -0.5640 -0.5592
H23A H -0.1780 -0.5008 -0.6063
C12A C 0.2295(3) -0.0321(3) -0.51132(14)
C13A C -0.3941(3) -0.1009(4) -0.4610(2)
H24A H -0.4119 -0.0480 -0.4383
H25A H -0.4008 -0.1607 -0.4393
H26A H -0.4415 -0.1189 -0.4937
C14A C 0.3643(3) -0.7615(3) -0.94565(15)
C15A C 0.4098(3) -0.6497(3) -0.96369(15)
H27A H 0.4002 -0.6504 -1.0044
H28A H 0.3663 -0.6088 -0.9476
C16A C 0.3842(3) -0.7677(3) -0.88189(15)
H29A H 0.4603 -0.7501 -0.8733
H30A H 0.3558 -0.7181 -0.8614
C17A C 0.2437(3) -0.7916(3) -0.96277(16)
H31A H 0.2369 -0.7778 -1.0023
H32A H 0.2156 -0.8654 -0.9596
C18A C 0.4051(3) -0.8398(3) -0.98131(16)
H33A H 0.3611 -0.9083 -0.9742
H34A H 0.3934 -0.8284 -1.0208
C19A C 0.5385(3) -0.5353(3) -0.87713(15)
C20A C 0.7256(3) -0.5308(3) -0.84454(18)
H35A H 0.7677 -0.4740 -0.8643
H36A H 0.7581 -0.5317 -0.8078
H37A H 0.7214 -0.5942 -0.8655
C21A C 0.3549(3) -0.8756(4) -0.78667(19)
C22A C 0.3051(5) -1.0630(6) -0.7656(3)
H38A H 0.3458 -1.0813 -0.7954
H39A H 0.3138 -1.0992 -0.7326
H40A H 0.2311 -1.0813 -0.7775
C23A C 0.1632(3) -0.6201(3) -0.96217(16)
C24A C 0.0167(4) -0.6937(4) -1.0376(2)
H41A H 0.0076 -0.7582 -1.0200
H42A H -0.0485 -0.6742 -1.0366
H43A H 0.0354 -0.7009 -1.0761
C25A C 0.5978(3) -0.7740(3) -1.02927(16)
C26A C 0.7427(4) -0.8625(3) -1.0429(2)
H44A H 0.6956 -0.9310 -1.0434
H45A H 0.7948 -0.8592 -1.0711
H46A H 0.7781 -0.8450 -1.0064
O41 O -0.5981(4) 0.7203(3) -0.4134(3)
H1 H -0.6241 0.7454 -0.4408
H2 H -0.6022 0.7555 -0.3834
O42 O -0.3397(5) 0.6783(5) -0.3905(2)
H3 H -0.3473 0.6228 -0.4104
H4 H -0.2768 0.7158 -0.3949
O43 O -0.7762(4) 0.4688(4) -0.29884(19)
H5 H -0.7181 0.5082 -0.2846
H6 H -0.8177 0.5062 -0.3050
loop_
_geom_bond_atom_site_label_1
_geom_bond_atom_site_label_2
_geom_bond_site_symmetry_1
_geom_bond_site_symmetry_2
P1 O1 1_555 1_555
Mo1 O1 1_555 1_555
Mo2 O2 1_555 1_555
Mo3 O3 1_555 1_555
Mo4 O1 1_555 1_555
Mo5 O2 1_555 1_555
Mo6 O2 1_555 1_555
Mo7 O3 1_555 1_555
Mo8 O3 1_555 1_555
Mo9 O1 1_555 1_555
Mo10 O4 1_555 1_555
Mo11 O4 1_555 1_555
Mo12 O4 1_555 1_555
Cu1 O13 1_555 1_555
Cu2 N6 1_555 1_555
Cu3 N9 1_555 1_555
S1 C2 1_555 1_555
S2 C3 1_555 1_555
S3 C4 1_555 1_555
S4 C5 1_555 1_555
S5 C15 1_555 1_555
S6 C16 1_555 1_555
S7 C17 1_555 1_555
S8 C18 1_555 1_555
O2 P1 1_555 1_555
O3 P1 1_555 1_555
O4 P1 1_555 1_555
O5 Mo1 1_555 1_555
O6 Mo2 1_555 1_555
O7 Mo3 1_555 1_555
O8 Mo4 1_555 1_555
O9 Mo5 1_555 1_555
O10 Mo6 1_555 1_555
O11 Mo7 1_555 1_555
O12 Mo8 1_555 1_555
O13 Mo9 1_555 1_555
O14 Mo10 1_555 1_555
O15 Mo11 1_555 1_555
O16 Mo12 1_555 1_555
O17 Mo1 1_555 1_555
O18 Mo2 1_555 1_555
O19 Mo1 1_555 1_555
O20 Mo1 1_555 1_555
O21 Mo2 1_555 1_555
O22 Mo2 1_555 1_555
O23 Mo3 1_555 1_555
O24 Mo3 1_555 1_555
O25 Mo1 1_555 1_555
O26 Mo4 1_555 1_555
O27 Mo5 1_555 1_555
O28 Mo6 1_555 1_555
O29 Mo7 1_555 1_555
O30 Mo8 1_555 1_555
O31 Mo4 1_555 1_555
O32 Mo4 1_555 1_555
O33 Mo5 1_555 1_555
O34 Mo6 1_555 1_555
O35 Mo7 1_555 1_555
O36 Mo8 1_555 1_555
O37 Mo9 1_555 1_555
O38 Mo10 1_555 1_555
O39 Mo11 1_555 1_555
O40 Mo10 1_555 1_555
O41 H1 1_555 1_555
H2 O41 1_555 1_555
O42 H3 1_555 1_555
H4 O42 1_555 1_555
O43 H5 1_555 1_555
H6 O43 1_555 1_555
N1 Cu1 1_555 1_555
N2 N1 1_555 1_555
N3 N2 1_555 1_555
N4 N3 1_555 1_555
N5 Cu1 1_555 1_555
N6 N5 1_555 1_555
N7 N6 1_555 1_555
N8 N7 1_555 1_555
N9 N10 1_555 1_555
N10 N11 1_555 1_555
N11 N12 1_555 1_555
N12 C10 1_555 1_555
N13 Cu3 1_555 1_555
N14 Cu3 1_555 1_555
N15 N14 1_555 1_555
N16 N15 1_555 1_555
N17 Cu2 1_555 1_555
N18 Cu1 1_555 1_555
N19 N18 1_555 1_555
N20 N19 1_555 1_555
N21 N22 1_555 1_555
N22 N23 1_555 1_555
N23 N24 1_555 1_555
N24 C21 1_555 1_555
N25 Cu2 1_555 1_555
N26 N25 1_555 1_555
N27 N26 1_555 1_555
N28 N27 1_555 1_555
N29 N30 1_555 1_555
N30 N31 1_555 1_555
N31 N32 1_555 1_555
N32 C25 1_555 1_555
C1 C2 1_555 1_555
C2 H7 1_555 1_555
H8 C2 1_555 1_555
C3 C1 1_555 1_555
H9 C3 1_555 1_555
H10 C3 1_555 1_555
C4 C1 1_555 1_555
H11 C4 1_555 1_555
H12 C4 1_555 1_555
C5 C1 1_555 1_555
H13 C5 1_555 1_555
H14 C5 1_555 1_555
C6 S1 1_555 1_555
C7 N4 1_555 1_555
H15 C7 1_555 1_555
H16 C7 1_555 1_555
H17 C7 1_555 1_555
C8 S2 1_555 1_555
C9 N8 1_555 1_555
H18 C9 1_555 1_555
H19 C9 1_555 1_555
H20 C9 1_555 1_555
C10 S3 1_555 1_555
C11 N12 1_555 1_555
H21 C11 1_555 1_555
H22 C11 1_555 1_555
H23 C11 1_555 1_555
C12 S4 1_555 1_555
C13 N16 1_555 1_555
H24 C13 1_555 1_555
H25 C13 1_555 1_555
H26 C13 1_555 1_555
C14 C15 1_555 1_555
C15 H27 1_555 1_555
H28 C15 1_555 1_555
C16 C14 1_555 1_555
H29 C16 1_555 1_555
H30 C16 1_555 1_555
C17 C14 1_555 1_555
H31 C17 1_555 1_555
H32 C17 1_555 1_555
C18 C14 1_555 1_555
H33 C18 1_555 1_555
H34 C18 1_555 1_555
C19 S5 1_555 1_555
C20 N20 1_555 1_555
H35 C20 1_555 1_555
H36 C20 1_555 1_555
H37 C20 1_555 1_555
C21 S6 1_555 1_555
C22 N24 1_555 1_555
H38 C22 1_555 1_555
H39 C22 1_555 1_555
H40 C22 1_555 1_555
C23 S7 1_555 1_555
C24 N28 1_555 1_555
H41 C24 1_555 1_555
H42 C24 1_555 1_555
H43 C24 1_555 1_555
C25 S8 1_555 1_555
C26 N32 1_555 1_555
H44 C26 1_555 1_555
H45 C26 1_555 1_555
H46 C26 1_555 1_555
P1A O1A 1_555 1_555
Mo1A O1A 1_555 1_555
Mo2A O2A 1_555 1_555
Mo3A O3A 1_555 1_555
Mo4A O1A 1_555 1_555
Mo5A O2A 1_555 1_555
Mo6A O2A 1_555 1_555
Mo7A O3A 1_555 1_555
Mo8A O3A 1_555 1_555
Mo9A O1A 1_555 1_555
Mo10A O4A 1_555 1_555
Mo11A O4A 1_555 1_555
Mo12A O4A 1_555 1_555
Cu1A O13A 1_555 1_555
Cu2A N30 1_555 1_555
Cu2A_2 N6A 1_555 1_555
Cu2_2 N30A_2 1_555 1_555
Cu3A N9A 1_555 1_555
S1A C2A 1_555 1_555
S2A C3A 1_555 1_555
S3A C4A 1_555 1_555
S4A C5A 1_555 1_555
S5A C15A 1_555 1_555
S6A C16A 1_555 1_555
S7A C17A 1_555 1_555
S8A C18A 1_555 1_555
O2A P1A 1_555 1_555
O3A P1A 1_555 1_555
O4A P1A 1_555 1_555
O5A Mo1A 1_555 1_555
O6A Mo2A 1_555 1_555
O7A Mo3A 1_555 1_555
O8A Mo4A 1_555 1_555
O9A Mo5A 1_555 1_555
O10A Mo6A 1_555 1_555
O11A Mo7A 1_555 1_555
O12A Mo8A 1_555 1_555
O13A Mo9A 1_555 1_555
O14A Mo10A 1_555 1_555
O15A Mo11A 1_555 1_555
O16A Mo12A 1_555 1_555
O17A Mo1A 1_555 1_555
O18A Mo2A 1_555 1_555
O19A Mo1A 1_555 1_555
O20A Mo1A 1_555 1_555
O21A Mo2A 1_555 1_555
O22A Mo2A 1_555 1_555
O23A Mo3A 1_555 1_555
O24A Mo3A 1_555 1_555
O25A Mo1A 1_555 1_555
O26A Mo4A 1_555 1_555
O27A Mo5A 1_555 1_555
O28A Mo6A 1_555 1_555
O29A Mo7A 1_555 1_555
O30A Mo8A 1_555 1_555
O31A Mo4A 1_555 1_555
O32A Mo4A 1_555 1_555
O33A Mo5A 1_555 1_555
O34A Mo6A 1_555 1_555
O35A Mo7A 1_555 1_555
O36A Mo8A 1_555 1_555
O37A Mo9A 1_555 1_555
O38A Mo10A 1_555 1_555
O39A Mo11A 1_555 1_555
O40A Mo10A 1_555 1_555
N1A Cu1A 1_555 1_555
N2A N1A 1_555 1_555
N3A N2A 1_555 1_555
N4A N3A 1_555 1_555
N5A Cu1A 1_555 1_555
N6A N5A 1_555 1_555
N7A N6A 1_555 1_555
N8A N7A 1_555 1_555
N9A N10A 1_555 1_555
N10A N11A 1_555 1_555
N11A N12A 1_555 1_555
N12A C10A 1_555 1_555
N13A N14 1_555 1_555
N14A N13 1_555 1_555
N15A N14A 1_555 1_555
N16A C12 1_555 1_555
N17A Cu2A_2 1_555 1_555
N18A Cu1A 1_555 1_555
N19A N18A 1_555 1_555
N20A N19A 1_555 1_555
N21A N22A 1_555 1_555
N22A N23A 1_555 1_555
N23A N24A 1_555 1_555
N24A C21A 1_555 1_555
N25A Cu2A_2 1_555 1_555
N26A N25A 1_555 1_555
N27A N26A 1_555 1_555
N28A N27A 1_555 1_555
N29A N30A_2 1_555 1_555
N30A Cu2 1_555 1_555
N30_2 Cu2A_2 1_555 1_555
N30A_2 N31A 1_555 1_555
N31A N32A 1_555 1_555
N32A C25A 1_555 1_555
C1A C2A 1_555 1_555
C2A H7A 1_555 1_555
H8A C2A 1_555 1_555
C3A C1A 1_555 1_555
H9A C3A 1_555 1_555
H10A C3A 1_555 1_555
C4A C1A 1_555 1_555
H11A C4A 1_555 1_555
H12A C4A 1_555 1_555
C5A C1A 1_555 1_555
H13A C5A 1_555 1_555
H14A C5A 1_555 1_555
C6A S1A 1_555 1_555
C7A N4A 1_555 1_555
H15A C7A 1_555 1_555
H16A C7A 1_555 1_555
H17A C7A 1_555 1_555
C8A S2A 1_555 1_555
C9A N8A 1_555 1_555
H18A C9A 1_555 1_555
H19A C9A 1_555 1_555
H20A C9A 1_555 1_555
C10A S3A 1_555 1_555
C11A N12A 1_555 1_555
H21A C11A 1_555 1_555
H22A C11A 1_555 1_555
H23A C11A 1_555 1_555
C12A N16 1_555 1_555
C13A N16A 1_555 1_555
H24A C13A 1_555 1_555
H25A C13A 1_555 1_555
H26A C13A 1_555 1_555
C14A C15A 1_555 1_555
C15A H27A 1_555 1_555
H28A C15A 1_555 1_555
C16A C14A 1_555 1_555
H29A C16A 1_555 1_555
H30A C16A 1_555 1_555
C17A C14A 1_555 1_555
H31A C17A 1_555 1_555
H32A C17A 1_555 1_555
C18A C14A 1_555 1_555
H33A C18A 1_555 1_555
H34A C18A 1_555 1_555
C19A S5A 1_555 1_555
C20A N20A 1_555 1_555
H35A C20A 1_555 1_555
H36A C20A 1_555 1_555
H37A C20A 1_555 1_555
C21A S6A 1_555 1_555
C22A N24A 1_555 1_555
H38A C22A 1_555 1_555
H39A C22A 1_555 1_555
H40A C22A 1_555 1_555
C23A S7A 1_555 1_555
C24A N28A 1_555 1_555
H41A C24A 1_555 1_555
H42A C24A 1_555 1_555
H43A C24A 1_555 1_555
C25A S8A 1_555 1_555
C26A N32A 1_555 1_555
H44A C26A 1_555 1_555
H45A C26A 1_555 1_555
H46A C26A 1_555 1_555
Mo2 O17 1_555 1_555
Mo3 O18 1_555 1_555
Mo3 O19 1_555 1_555
Mo4 O20 1_555 1_555
Mo5 O21 1_555 1_555
Mo5 O26 1_555 1_555
Mo6 O22 1_555 1_555
Mo6 O27 1_555 1_555
Mo7 O23 1_555 1_555
Mo7 O28 1_555 1_555
Mo8 O24 1_555 1_555
Mo8 O29 1_555 1_555
Mo9 O25 1_555 1_555
Mo9 O30 1_555 1_555
Mo9 O31 1_555 1_555
Mo10 O32 1_555 1_555
Mo10 O33 1_555 1_555
Mo11 O34 1_555 1_555
Mo11 O35 1_555 1_555
Mo11 O38 1_555 1_555
Mo12 O36 1_555 1_555
Mo12 O37 1_555 1_555
Mo12 O39 1_555 1_555
Mo12 O40 1_555 1_555
N1 C6 1_555 1_555
N4 C6 1_555 1_555
N5 C8 1_555 1_555
N8 C8 1_555 1_555
N9 C10 1_555 1_555
N13 C12 1_555 1_555
N17 N18 1_555 1_555
N17 C19 1_555 1_555
N20 C19 1_555 1_555
N21 C21 1_555 1_555
N25 C23 1_555 1_555
N28 C23 1_555 1_555
N29 C25 1_555 1_555
Mo2A O17A 1_555 1_555
Mo3A O18A 1_555 1_555
Mo3A O19A 1_555 1_555
Mo4A O20A 1_555 1_555
Mo5A O21A 1_555 1_555
Mo5A O26A 1_555 1_555
Mo6A O22A 1_555 1_555
Mo6A O27A 1_555 1_555
Mo7A O23A 1_555 1_555
Mo7A O28A 1_555 1_555
Mo8A O24A 1_555 1_555
Mo8A O29A 1_555 1_555
Mo9A O25A 1_555 1_555
Mo9A O30A 1_555 1_555
Mo9A O31A 1_555 1_555
Mo10A O32A 1_555 1_555
Mo10A O33A 1_555 1_555
Mo11A O34A 1_555 1_555
Mo11A O35A 1_555 1_555
Mo11A O38A 1_555 1_555
Mo12A O36A 1_555 1_555
Mo12A O37A 1_555 1_555
Mo12A O39A 1_555 1_555
Mo12A O40A 1_555 1_555
Cu3A N13A 1_555 1_555
Cu3A N14A 1_555 1_555
S4A C12A 1_555 1_555
N1A C6A 1_555 1_555
N4A C6A 1_555 1_555
N5A C8A 1_555 1_555
N8A C8A 1_555 1_555
N9A C10A 1_555 1_555
N13A C12A 1_555 1_555
N15A N16A 1_555 1_555
N17A N18A 1_555 1_555
N17A C19A 1_555 1_555
N20A C19A 1_555 1_555
N21A C21A 1_555 1_555
N25A C23A 1_555 1_555
N28A C23A 1_555 1_555
N29A C25A 1_555 1_555

#END
