
#######################################################################
#
#                 Cambridge Crystallographic Data Centre
#                                CCDC 
#
#######################################################################
#
# If this CIF has been generated from an entry in the Cambridge 
# Structural Database, then it will include bibliographic, chemical, 
# crystal, experimental, refinement or atomic coordinate data resulting 
# from the CCDC's data processing and validation procedures.
#
#######################################################################

data_TEPJIJ
_symmetry_cell_setting           monoclinic
_symmetry_space_group_name_H-M   'P 21/a'
_symmetry_Int_Tables_number      14
_space_group_name_Hall           '-P 2yab'
loop_
_symmetry_equiv_pos_site_id
_symmetry_equiv_pos_as_xyz
1 x,y,z
2 1/2-x,1/2+y,-z
3 -x,-y,-z
4 1/2+x,1/2-y,z
_cell_length_a                   9.94740(10)
_cell_length_b                   15.6416(2)
_cell_length_c                   28.7511(4)
_cell_angle_alpha                90
_cell_angle_beta                 95.1170(10)
_cell_angle_gamma                90
_cell_volume                     4455.65
loop_
_atom_site_label
_atom_site_type_symbol
_atom_site_fract_x
_atom_site_fract_y
_atom_site_fract_z
Gd1 Gd 0.994015(17) 0.744248(12) 0.488141(6)
Gd2 Gd 1.055639(17) 0.688887(12) 0.993769(6)
O1 O 1.1520(3) 0.54954(19) 0.97686(11)
O2 O 1.1634(3) 0.82714(19) 1.01169(11)
O3 O 1.2423(3) 0.6599(2) 1.05060(11)
O4 O 1.4685(3) 0.90309(18) 0.05529(10)
O5 O 1.4591(3) 0.76445(18) 0.06493(10)
O6 O 0.8379(3) 0.7896(2) 0.53644(10)
O7 O 0.6296(3) 0.7906(2) 0.55757(10)
O8 O 0.8853(3) 0.8590(2) 0.44173(10)
O9 O 0.8873(3) 0.6165(2) 0.52267(14)
O10 O 0.6115(3) 1.1139(2) 0.05153(10)
O11 O 1.1512(3) 0.7795(2) 0.43696(10)
O12 O 0.9013(3) 0.79073(19) 0.96155(10)
O13 O 1.0959(3) 0.8831(2) 0.51709(12)
O14 O 1.3595(3) 0.8224(2) 0.42734(11)
O15 O 1.1236(3) 0.6138(2) 0.47021(11)
O16 O 0.6866(3) 0.7855(2) 0.93206(10)
C1 C 1.2379(4) 0.8095(3) 0.41233(13)
O17 O 0.7728(3) 1.0158(2) 0.06037(11)
O18 O 1.0131(3) 0.9752(2) 0.43727(11)
O19 O 1.0868(3) 0.8787(3) 0.22198(11)
C2 C 0.7546(4) 0.7952(2) 0.56683(13)
C3 C 1.0679(4) 0.8123(3) 0.34212(15)
H1 H 1.004 0.7892 0.3602
O20 O 0.9913(3) 0.8484(3) 0.74995(11)
C4 C 0.9348(4) 0.8382(3) 0.79164(13)
C5 C 0.8331(4) 0.9530(3) 0.37816(14)
O21 O 0.5705(4) 1.0259(4) 0.26444(13)
C6 C 0.6805(4) 1.0591(3) 0.07600(15)
C7 C 0.6509(4) 1.0472(3) 0.12545(15)
C8 C 0.8109(4) 0.7957(2) 0.92783(13)
C9 C 0.8056(5) 0.8759(3) 0.69152(16)
H2 H 0.7668 0.9146 0.7109
C10 C 0.9780(4) 0.8499(3) 0.87469(13)
H3 H 1.0351 0.8651 0.9008
C11 C 0.7684(4) 0.7919(3) 0.84090(14)
H4 H 0.6833 0.7696 0.8445
C12 C 0.8520(4) 0.8139(2) 0.88017(13)
C13 C 1.0174(4) 0.8628(3) 0.83035(14)
H5 H 1.1003 0.8883 0.8266
C14 C 0.9181(4) 0.9274(3) 0.42175(14)
C15 C 0.9205(4) 0.8313(3) 0.70744(14)
C16 C 1.1973(4) 0.8307(3) 0.36241(13)
C17 C 0.8087(4) 0.8024(3) 0.79614(14)
H6 H 0.7529 0.7859 0.77
C18 C 1.3524(4) 0.8509(3) 0.11910(13)
C19 C 1.2982(6) 0.9297(3) 0.12850(17)
H7 H 1.3194 0.9771 0.111
C20 C 0.5524(5) 1.0954(3) 0.14458(15)
H8 H 0.5011 1.1337 0.1257
C21 C 0.9787(5) 0.7740(4) 0.67869(17)
H9 H 1.0541 0.7427 0.6899
C22 C 0.7249(5) 0.9899(3) 0.15463(16)
H10 H 0.7909 0.9565 0.1426
C23 C 1.2126(6) 0.9393(4) 0.16372(18)
H11 H 1.1758 0.9925 0.1695
C24 C 0.6043(5) 1.0306(4) 0.21902(16)
C25 C 0.5290(5) 1.0876(4) 0.19111(17)
H12 H 0.4629 1.1206 0.2034
C26 C 0.8094(4) 0.8076(3) 0.61623(13)
C27 C 1.2388(7) 0.7909(4) 0.1823(2)
H13 H 1.22 0.7445 0.2009
C28 C 1.1828(5) 0.8702(4) 0.18967(15)
C29 C 0.7348(5) 0.8975(3) 0.35888(17)
H14 H 0.7242 0.8446 0.3729
C30 C 0.7024(5) 0.9817(4) 0.20094(18)
H15 H 0.7532 0.9433 0.2199
C31 C 1.1285(5) 0.8621(3) 0.26844(14)
C32 C 1.2576(5) 0.8814(4) 0.28788(16)
H16 H 1.3208 0.9047 0.2696
C33 C 1.4323(4) 0.8390(3) 0.07844(13)
C34 C 0.7486(4) 0.8625(3) 0.64631(15)
H17 H 0.669 0.8904 0.6359
C35 C 1.3238(6) 0.7814(3) 0.14657(17)
H18 H 1.3614 0.7283 0.1411
C36 C 0.6525(5) 0.9187(4) 0.31952(18)
H19 H 0.5885 0.8803 0.3065
C37 C 0.6669(5) 0.9981(4) 0.29998(17)
C38 C 0.9243(5) 0.7634(3) 0.63312(16)
H20 H 0.9654 0.7261 0.6135
C39 C 1.2909(4) 0.8658(3) 0.33463(15)
H21 H 1.3772 0.8788 0.3478
C40 C 0.7672(7) 1.0541(5) 0.3172(2)
H22 H 0.7791 1.1064 0.3027
C41 C 1.0344(4) 0.8282(4) 0.29529(15)
H23 H 0.9479 0.816 0.2819
C42 C 0.8494(6) 1.0306(4) 0.3565(2)
H24 H 0.9167 1.0677 0.3685
Gd1C Gd 0.494015(17) 0.755752(12) 0.488141(6)
Gd1C_2 Gd 1.494015(17) 0.755752(12) 0.488141(6)
Gd2A Gd 0.444361(17) 1.188887(12) 0.006231(6)
Gd2C Gd 0.555639(17) 0.811113(12) 0.993769(6)
Gd2C_2 Gd 1.555639(17) 0.811113(12) -0.006231(6)
O4C O 0.9685(3) 0.59691(18) 1.05529(10)
O5C O 0.9591(3) 0.73555(18) 1.06493(10)
O7C O 1.1296(3) 0.7094(2) 0.55757(10)
O10A O 0.8885(3) 0.6139(2) 0.94847(10)
O14C O 0.8595(3) 0.6776(2) 0.42734(11)
O16C O 1.1866(3) 0.7145(2) 0.93206(10)
O22 O 0.2030(6) 0.5100(3) 0.54661(18)
O23 O 0.5480(5) 0.5284(4) 0.0470(3)
O24 O 0.9905(7) 0.5147(4) 0.5927(2)
loop_
_geom_bond_atom_site_label_1
_geom_bond_atom_site_label_2
_geom_bond_site_symmetry_1
_geom_bond_site_symmetry_2
Gd1 O6 1_555 1_555
Gd2 O1 1_555 1_555
O2 Gd2 1_555 1_555
O3 Gd2 1_555 1_555
O4 C33 1_555 1_555
O5 C33 1_555 1_555
O6 C2 1_555 1_555
O7 C2 1_555 1_555
O8 Gd1 1_555 1_555
O9 Gd1 1_555 1_555
O10 C6 1_555 1_555
O11 Gd1 1_555 1_555
O12 Gd2 1_555 1_555
O13 Gd1 1_555 1_555
O14 C1 1_555 1_555
O15 Gd1 1_555 1_555
O16 C8 1_555 1_555
C1 O11 1_555 1_555
O17 C6 1_555 1_555
O18 C14 1_555 1_555
O19 C28 1_555 1_555
C2 C26 1_555 1_555
C3 H1 1_555 1_555
O20 C4 1_555 1_555
C4 C13 1_555 1_555
C5 C14 1_555 1_555
O21 C24 1_555 1_555
C6 C7 1_555 1_555
C7 C20 1_555 1_555
C8 O12 1_555 1_555
C9 H2 1_555 1_555
C10 H3 1_555 1_555
C11 H4 1_555 1_555
C12 C8 1_555 1_555
C13 C10 1_555 1_555
H5 C13 1_555 1_555
C14 O8 1_555 1_555
C15 O20 1_555 1_555
C16 C1 1_555 1_555
C17 C4 1_555 1_555
H6 C17 1_555 1_555
C18 C19 1_555 1_555
C19 H7 1_555 1_555
C20 H8 1_555 1_555
C21 C15 1_555 1_555
H9 C21 1_555 1_555
C22 C7 1_555 1_555
H10 C22 1_555 1_555
C23 C19 1_555 1_555
H11 C23 1_555 1_555
C24 C25 1_555 1_555
C25 C20 1_555 1_555
H12 C25 1_555 1_555
C26 C34 1_555 1_555
C27 H13 1_555 1_555
C28 C23 1_555 1_555
C29 C5 1_555 1_555
H14 C29 1_555 1_555
C30 C22 1_555 1_555
H15 C30 1_555 1_555
C31 O19 1_555 1_555
C32 C31 1_555 1_555
H16 C32 1_555 1_555
C33 C18 1_555 1_555
C34 C9 1_555 1_555
H17 C34 1_555 1_555
C35 C18 1_555 1_555
H18 C35 1_555 1_555
C36 C29 1_555 1_555
H19 C36 1_555 1_555
C37 O21 1_555 1_555
C38 C21 1_555 1_555
H20 C38 1_555 1_555
C39 C16 1_555 1_555
H21 C39 1_555 1_555
C40 C37 1_555 1_555
H22 C40 1_555 1_555
C41 C3 1_555 1_555
H23 C41 1_555 1_555
C42 C5 1_555 1_555
H24 C42 1_555 1_555
Gd1C O7 1_555 1_555
Gd1C_2 O14 1_555 1_555
Gd2A O10 1_555 1_555
Gd2C O16 1_555 1_555
Gd2C_2 O4 1_555 1_555
O4C Gd2 1_555 1_555
O5C Gd2 1_555 1_555
O7C Gd1 1_555 1_555
O10A Gd2 1_555 1_555
O14C Gd1 1_555 1_555
O16C Gd2 1_555 1_555
O5 Gd2C_2 1_555 1_555
C3 C16 1_555 1_555
C9 C15 1_555 1_555
C10 C12 1_555 1_555
C11 C12 1_555 1_555
C11 C17 1_555 1_555
C24 C30 1_555 1_555
C26 C38 1_555 1_555
C27 C28 1_555 1_555
C27 C35 1_555 1_555
C31 C41 1_555 1_555
C32 C39 1_555 1_555
C36 C37 1_555 1_555
C40 C42 1_555 1_555

#END
