
#######################################################################
#
#                 Cambridge Crystallographic Data Centre
#                                CCDC 
#
#######################################################################
#
# If this CIF has been generated from an entry in the Cambridge 
# Structural Database, then it will include bibliographic, chemical, 
# crystal, experimental, refinement or atomic coordinate data resulting 
# from the CCDC's data processing and validation procedures.
#
#######################################################################

data_TEPLIL
_symmetry_cell_setting           triclinic
_symmetry_space_group_name_H-M   'P -1'
_symmetry_Int_Tables_number      2
_space_group_name_Hall           '-P 1'
loop_
_symmetry_equiv_pos_site_id
_symmetry_equiv_pos_as_xyz
1 x,y,z
2 -x,-y,-z
_cell_length_a                   15.8697(13)
_cell_length_b                   15.9935(12)
_cell_length_c                   18.2482(14)
_cell_angle_alpha                74.793(3)
_cell_angle_beta                 89.019(3)
_cell_angle_gamma                63.367(2)
_cell_volume                     3968.02
loop_
_atom_site_label
_atom_site_type_symbol
_atom_site_fract_x
_atom_site_fract_y
_atom_site_fract_z
N25 N 0.9900(3) 0.5569(4) 0.6960(3)
O17 O 1.0273(4) 0.6107(4) 0.6819(3)
O18 O 0.9538(3) 0.5469(3) 0.7568(2)
O19 O 0.9892(4) 0.5104(4) 0.6515(3)
N26 N 0.4045(5) 0.0647(4) 0.6648(3)
O20 O 0.4637(4) 0.0052(4) 0.6317(3)
O21 O 0.3251(4) 0.1290(4) 0.6312(3)
O22 O 0.4246(5) 0.0570(5) 0.7305(3)
N27 N 0.5665(4) 0.7198(4) 0.0851(3)
O23 O 0.5273(4) 0.8073(3) 0.0688(3)
O24 O 0.5477(5) 0.6705(4) 0.1420(3)
O25 O 0.6224(5) 0.6769(4) 0.0438(3)
O1 O 0.2579(3) 0.9515(2) 0.2140(2)
O2 O 0.3980(2) 0.6191(3) 0.2531(2)
O3 O 0.4432(2) 0.7754(3) 0.2348(2)
O4 O 0.1205(3) 0.8854(3) 0.2261(2)
Gd1 Gd 0.285541(17) 0.785590(17) 0.236006(13)
C1 C 0.1992(3) 0.6689(3) 0.3895(3)
C2 C 0.1396(3) 0.5872(3) 0.4854(3)
C3 C 0.1231(3) 0.6861(4) 0.5008(3)
C4 C 0.2195(3) 0.5544(4) 0.6058(3)
C5 C 0.1549(3) 0.8247(3) 0.4171(3)
H1 H 0.1517 0.8499 0.3616
H2 H 0.0967 0.8692 0.4334
C6 C 0.1895(4) 0.7158(4) 0.6153(3)
H3 H 0.1269 0.7722 0.6095
H4 H 0.2063 0.6798 0.6697
C7 C 0.3129(3) 0.8160(3) 0.4189(3)
C8 C 0.2406(3) 0.8375(3) 0.5292(3)
C9 C 0.3364(3) 0.8440(3) 0.5346(3)
C10 C 0.3455(4) 0.7096(4) 0.6324(3)
C11 C 0.4546(3) 0.8385(3) 0.4340(3)
H5 H 0.4488 0.8498 0.3784
H6 H 0.4517 0.8971 0.4437
C12 C 0.4810(4) 0.7441(4) 0.6392(3)
H7 H 0.4775 0.8066 0.6401
H8 H 0.4888 0.7054 0.6923
C13 C 0.6032(4) 0.7012(4) 0.4230(3)
C14 C 0.5978(3) 0.7409(3) 0.5392(3)
C15 C 0.6989(3) 0.6580(3) 0.5363(3)
C16 C 0.6298(4) 0.5998(4) 0.6401(3)
C17 C 0.2097(3) 0.5183(4) 0.3722(3)
H9 H 0.2163 0.5498 0.3202
H10 H 0.1545 0.5065 0.3693
C18 C 0.2278(4) 0.4111(4) 0.5746(3)
H11 H 0.1739 0.4019 0.5606
H12 H 0.2442 0.3835 0.6301
C19 C 0.0462(4) 0.5865(4) 0.4712(3)
H13 H 0.0170 0.5819 0.5189
H14 H 0.0578 0.5292 0.4545
C20 C -0.0216(4) 0.6791(4) 0.4101(3)
H15 H 0.0068 0.6818 0.3620
H16 H -0.0809 0.6763 0.4015
C21 C -0.0440(4) 0.7722(4) 0.4323(3)
H17 H -0.1108 0.8025 0.4413
H18 H -0.0351 0.8183 0.3896
C22 C 0.0187(4) 0.7530(4) 0.5041(3)
H19 H 0.0119 0.8152 0.5090
H20 H -0.0028 0.7229 0.5494
C23 C 0.1543(4) 0.9297(4) 0.5377(3)
H21 H 0.1421 0.9850 0.4929
H22 H 0.0978 0.9192 0.5408
C24 C 0.1741(5) 0.9521(4) 0.6101(3)
H23 H 0.1811 0.8988 0.6548
H24 H 0.1199 1.0119 0.6144
C25 C 0.2640(5) 0.9651(4) 0.6096(4)
H25 H 0.2463 1.0326 0.6084
H26 H 0.3054 0.9224 0.6573
C26 C 0.3196(4) 0.9424(4) 0.5426(3)
H27 H 0.2843 0.9936 0.4954
H28 H 0.3808 0.9420 0.5503
C27 C 0.6009(4) 0.8314(4) 0.5475(3)
H29 H 0.5372 0.8788 0.5533
H30 H 0.6207 0.8612 0.5010
C28 C 0.6692(4) 0.8078(4) 0.6161(3)
H31 H 0.6421 0.7911 0.6630
H32 H 0.6761 0.8660 0.6150
C29 C 0.7680(4) 0.7228(4) 0.6182(3)
H33 H 0.8163 0.7444 0.6216
H34 H 0.7799 0.6689 0.6641
C30 C 0.7771(4) 0.6862(4) 0.5475(3)
H35 H 0.8393 0.6293 0.5531
H36 H 0.7734 0.7374 0.5022
C31 C 0.1914(3) 0.6866(3) 0.1235(3)
C32 C 0.1205(3) 0.6238(3) 0.0553(3)
C33 C 0.2110(3) 0.6229(3) 0.0185(3)
C34 C 0.0768(3) 0.7230(3) -0.0718(3)
C35 C 0.3376(3) 0.6641(3) 0.0647(3)
H37 H 0.3628 0.6562 0.1161
H38 H 0.3834 0.6097 0.0471
C36 C 0.2266(4) 0.7139(4) -0.1168(3)
H39 H 0.1900 0.7341 -0.1665
H40 H 0.2852 0.6543 -0.1141
C37 C 0.3118(3) 0.8333(3) 0.0390(3)
C38 C 0.3355(3) 0.7735(3) -0.0675(2)
C39 C 0.3306(3) 0.8784(3) -0.0908(3)
C40 C 0.2045(3) 0.8825(3) -0.1610(3)
C41 C 0.3133(3) 0.9910(3) -0.0066(3)
H41 H 0.3258 0.9792 0.0485
H42 H 0.3665 0.9978 -0.0307
C42 C 0.2232(3) 1.0332(3) -0.2000(3)
H43 H 0.2811 1.0376 -0.2146
H44 H 0.1865 1.0429 -0.2469
C43 C 0.1731(3) 1.1304(3) 0.0116(3)
C44 C 0.2076(3) 1.1448(3) -0.1153(3)
C45 C 0.1197(3) 1.2419(3) -0.1106(3)
C46 C 0.0731(3) 1.1714(3) -0.1893(3)
C47 C 0.0522(3) 0.6750(3) 0.1759(3)
H45 H 0.0469 0.6142 0.1905
H46 H 0.0814 0.6791 0.2209
C48 C -0.0524(3) 0.7031(4) -0.0073(3)
H47 H -0.0529 0.6413 0.0187
H48 H -0.0805 0.7232 -0.0603
C49 C 0.1287(4) 0.5223(3) 0.0862(3)
H49 H 0.1254 0.4967 0.0437
H50 H 0.0758 0.5253 0.1158
C50 C 0.2237(4) 0.4539(4) 0.1378(3)
H51 H 0.2251 0.4782 0.1815
H52 H 0.2283 0.3887 0.1575
C51 C 0.3087(4) 0.4469(4) 0.0948(3)
H53 H 0.3433 0.3809 0.0893
H54 H 0.3516 0.4573 0.1253
C52 C 0.2814(4) 0.5209(4) 0.0155(3)
H55 H 0.3385 0.5222 -0.0046
H56 H 0.2531 0.5006 -0.0193
C53 C 0.4268(3) 0.6962(3) -0.0863(3)
H57 H 0.4809 0.6820 -0.0515
H58 H 0.4220 0.6357 -0.0796
C54 C 0.4424(4) 0.7336(4) -0.1688(3)
H59 H 0.3879 0.7479 -0.2032
H60 H 0.4989 0.6826 -0.1814
C55 C 0.4548(4) 0.8261(4) -0.1818(3)
H61 H 0.4173 0.8731 -0.2299
H62 H 0.5217 0.8092 -0.1870
C56 C 0.4244(3) 0.8744(4) -0.1168(3)
H63 H 0.4742 0.8377 -0.0733
H64 H 0.4174 0.9409 -0.1343
C57 C 0.2913(3) 1.1610(4) -0.1430(3)
H65 H 0.3414 1.1001 -0.1496
H66 H 0.3167 1.1785 -0.1041
C58 C 0.2638(4) 1.2418(4) -0.2188(3)
H67 H 0.3151 1.2601 -0.2277
H68 H 0.2577 1.2159 -0.2604
C59 C 0.1712(4) 1.3330(4) -0.2213(3)
H69 H 0.1812 1.3907 -0.2406
H70 H 0.1227 1.3381 -0.2571
C60 C 0.1356(4) 1.3319(3) -0.1434(3)
H71 H 0.0758 1.3912 -0.1481
H72 H 0.1820 1.3313 -0.1083
N1 N 0.1912(3) 0.5854(3) 0.4182(2)
N2 N 0.1582(3) 0.7294(3) 0.4345(2)
N3 N 0.1985(3) 0.5143(3) 0.5556(2)
N4 N 0.1831(3) 0.6526(3) 0.5725(2)
N5 N 0.2350(3) 0.8251(3) 0.4531(2)
N6 N 0.3738(3) 0.8256(3) 0.4634(2)
N7 N 0.2585(3) 0.7506(3) 0.5909(2)
N8 N 0.3913(3) 0.7632(3) 0.6019(2)
N9 N 0.5462(3) 0.7572(3) 0.4666(2)
N10 N 0.3078(3) 0.3568(3) 0.5379(2)
N11 N 0.5646(3) 0.6935(3) 0.6043(2)
N12 N 0.2937(3) 0.4247(3) 0.4003(2)
N13 N 0.1147(3) 0.6706(3) 0.1160(2)
N14 N 0.2487(3) 0.6585(3) 0.0693(2)
N15 N 0.0449(3) 0.6868(3) -0.0073(2)
N16 N 0.1720(3) 0.6926(3) -0.0569(2)
N17 N 0.3297(3) 0.7541(3) 0.0143(2)
N18 N 0.3093(3) 0.9069(3) -0.0198(2)
N19 N 0.2510(3) 0.7906(3) -0.1119(2)
N20 N 0.2503(3) 0.9347(3) -0.1504(2)
N21 N 0.2270(3) 1.0815(3) -0.0362(2)
N22 N -0.1110(3) 0.7762(3) 0.0295(2)
N23 N 0.1682(3) 1.1117(3) -0.1675(2)
N24 N -0.0418(3) 0.7560(3) 0.1545(2)
O5 O 0.2338(2) 0.6888(3) 0.33102(18)
O6 O 0.3263(2) 0.8045(2) 0.35404(18)
O7 O 0.5796(2) 0.7044(3) 0.35805(19)
O8 O 0.2628(3) 0.5098(3) 0.66930(19)
O9 O 0.3753(3) 0.6390(3) 0.6891(2)
O10 O 0.6223(3) 0.5473(3) 0.6998(2)
O11 O 0.2080(2) 0.7173(3) 0.17351(18)
O12 O 0.3030(2) 0.8354(2) 0.10609(18)
O13 O 0.1774(2) 1.0978(3) 0.0814(2)
O14 O 0.0293(3) 0.7738(3) -0.13412(19)
O15 O 0.1362(3) 0.9133(3) -0.2080(2)
O16 O 0.0240(2) 1.1626(3) -0.2356(2)
O1A O 0.7421(3) 0.0485(2) 0.7860(2)
O2A O 0.6020(2) 0.3809(3) 0.7469(2)
O3A O 0.5568(2) 0.2246(3) 0.7652(2)
O4A O 0.8795(3) 0.1146(3) 0.7739(2)
Gd1A Gd 0.714459(17) 0.214410(17) 0.763994(13)
Gd1A_2 Gd -0.285541(17) 1.214410(17) -0.236006(13)
C1A C 0.8008(3) 0.3311(3) 0.6105(3)
C2A C 0.8604(3) 0.4128(3) 0.5146(3)
C3A C 0.8769(3) 0.3139(4) 0.4992(3)
C4A C 0.7805(3) 0.4456(4) 0.3942(3)
C5A C 0.8451(3) 0.1753(3) 0.5829(3)
H1A H 0.8483 0.1501 0.6384
H2A H 0.9033 0.1308 0.5666
C6A C 0.8105(4) 0.2842(4) 0.3847(3)
H3A H 0.8731 0.2278 0.3905
H4A H 0.7937 0.3202 0.3303
C7A C 0.6871(3) 0.1840(3) 0.5811(3)
C8A C 0.7594(3) 0.1625(3) 0.4708(3)
C9A C 0.6636(3) 0.1560(3) 0.4654(3)
C10A C 0.6545(4) 0.2904(4) 0.3676(3)
C11A C 0.5454(3) 0.1615(3) 0.5660(3)
H5A H 0.5512 0.1502 0.6216
H6A H 0.5483 0.1029 0.5563
C12A C 0.5190(4) 0.2559(4) 0.3608(3)
H7A H 0.5225 0.1934 0.3599
H8A H 0.5112 0.2946 0.3077
C13A C 0.3968(4) 0.2988(4) 0.5770(3)
C14A C 0.4022(3) 0.2591(3) 0.4608(3)
C15A C 0.3011(3) 0.3420(3) 0.4637(3)
C16A C 0.3702(4) 0.4002(4) 0.3599(3)
C17A C 0.7903(3) 0.4817(4) 0.6278(3)
H9A H 0.7837 0.4502 0.6798
H10A H 0.8455 0.4935 0.6307
C18A C 0.7722(4) 0.5889(4) 0.4254(3)
H11A H 0.8261 0.5981 0.4394
H12A H 0.7558 0.6165 0.3699
C19A C 0.9538(4) 0.4135(4) 0.5288(3)
H13A H 0.9830 0.4181 0.4811
H14A H 0.9422 0.4708 0.5455
C20A C 1.0216(4) 0.3209(4) 0.5899(3)
H15A H 0.9932 0.3182 0.6380
H16A H 1.0809 0.3237 0.5985
C21A C 1.0440(4) 0.2278(4) 0.5677(3)
H17A H 1.1108 0.1975 0.5587
H18A H 1.0351 0.1817 0.6104
C22A C 0.9813(4) 0.2470(4) 0.4959(3)
H19A H 0.9881 0.1848 0.4910
H20A H 1.0028 0.2771 0.4506
C23A C 0.8457(4) 0.0703(4) 0.4623(3)
H21A H 0.8579 0.0150 0.5071
H22A H 0.9022 0.0808 0.4592
C24A C 0.8259(5) 0.0479(4) 0.3899(3)
H23A H 0.8189 0.1012 0.3452
H24A H 0.8801 -0.0119 0.3856
C25A C 0.7360(5) 0.0349(4) 0.3904(4)
H25A H 0.7537 -0.0326 0.3916
H26A H 0.6946 0.0776 0.3427
C26A C 0.6804(4) 0.0576(4) 0.4574(3)
H27A H 0.7157 0.0064 0.5046
H28A H 0.6192 0.0580 0.4497
C27A C 0.3991(4) 0.1686(4) 0.4525(3)
H29A H 0.4628 0.1212 0.4467
H30A H 0.3793 0.1388 0.4990
C28A C 0.3308(4) 0.1922(4) 0.3839(3)
H31A H 0.3579 0.2089 0.3370
H32A H 0.3239 0.1340 0.3850
C29A C 0.2320(4) 0.2772(4) 0.3818(3)
H33A H 0.1837 0.2556 0.3784
H34A H 0.2201 0.3311 0.3359
C30A C 0.2229(4) 0.3138(4) 0.4525(3)
H35A H 0.1607 0.3707 0.4469
H36A H 0.2266 0.2626 0.4978
C31A C -0.1914(3) 1.3134(3) -0.1235(3)
C32A C -0.1205(3) 1.3762(3) -0.0553(3)
C33A C -0.2110(3) 1.3771(3) -0.0185(3)
C34A C -0.0768(3) 1.2770(3) 0.0718(3)
C35A C -0.3376(3) 1.3359(3) -0.0647(3)
H37A H -0.3628 1.3438 -0.1161
H38A H -0.3834 1.3903 -0.0471
C36A C -0.2266(4) 1.2861(4) 0.1168(3)
H39A H -0.1900 1.2659 0.1665
H40A H -0.2852 1.3457 0.1141
C37A C -0.3118(3) 1.1667(3) -0.0390(3)
C38A C -0.3355(3) 1.2265(3) 0.0675(2)
C39A C -0.3306(3) 1.1216(3) 0.0908(3)
C40A C -0.2045(3) 1.1175(3) 0.1610(3)
C41A C -0.3133(3) 1.0090(3) 0.0066(3)
H41A H -0.3258 1.0208 -0.0485
H42A H -0.3665 1.0022 0.0307
C42A C -0.2232(3) 0.9668(3) 0.2000(3)
H43A H -0.2811 0.9624 0.2146
H44A H -0.1865 0.9571 0.2469
C43A C -0.1731(3) 0.8696(3) -0.0116(3)
C44A C -0.2076(3) 0.8552(3) 0.1153(3)
C45A C -0.1197(3) 0.7581(3) 0.1106(3)
C46A C -0.0731(3) 0.8286(3) 0.1893(3)
C47A C -0.0522(3) 1.3250(3) -0.1759(3)
H45A H -0.0469 1.3858 -0.1905
H46A H -0.0814 1.3209 -0.2209
C48A C 0.0524(3) 1.2969(4) 0.0073(3)
H47A H 0.0529 1.3587 -0.0187
H48A H 0.0805 1.2768 0.0603
C49A C -0.1287(4) 1.4777(3) -0.0862(3)
H49A H -0.1254 1.5033 -0.0437
H50A H -0.0758 1.4747 -0.1158
C50A C -0.2237(4) 1.5461(4) -0.1378(3)
H51A H -0.2251 1.5218 -0.1815
H52A H -0.2283 1.6113 -0.1575
C51A C -0.3087(4) 1.5531(4) -0.0948(3)
H53A H -0.3433 1.6191 -0.0893
H54A H -0.3516 1.5427 -0.1253
C52A C -0.2814(4) 1.4791(4) -0.0155(3)
H55A H -0.3385 1.4778 0.0046
H56A H -0.2531 1.4994 0.0193
C53A C -0.4268(3) 1.3038(3) 0.0863(3)
H57A H -0.4809 1.3180 0.0515
H58A H -0.4220 1.3643 0.0796
C54A C -0.4424(4) 1.2664(4) 0.1688(3)
H59A H -0.3879 1.2521 0.2032
H60A H -0.4989 1.3174 0.1814
C55A C -0.4548(4) 1.1739(4) 0.1818(3)
H61A H -0.4173 1.1269 0.2299
H62A H -0.5217 1.1908 0.1870
C56A C -0.4244(3) 1.1256(4) 0.1168(3)
H63A H -0.4742 1.1623 0.0733
H64A H -0.4174 1.0591 0.1343
C57A C -0.2913(3) 0.8390(4) 0.1430(3)
H65A H -0.3414 0.8999 0.1496
H66A H -0.3167 0.8215 0.1041
C58A C -0.2638(4) 0.7582(4) 0.2188(3)
H67A H -0.3151 0.7399 0.2277
H68A H -0.2577 0.7841 0.2604
C59A C -0.1712(4) 0.6670(4) 0.2213(3)
H69A H -0.1812 0.6093 0.2406
H70A H -0.1227 0.6619 0.2571
C60A C -0.1356(4) 0.6681(3) 0.1434(3)
H71A H -0.0758 0.6088 0.1481
H72A H -0.1820 0.6687 0.1083
N1A N 0.8088(3) 0.4146(3) 0.5818(2)
N2A N 0.8418(3) 0.2706(3) 0.5655(2)
N3A N 0.8015(3) 0.4857(3) 0.4444(2)
N4A N 0.8169(3) 0.3474(3) 0.4275(2)
N5A N 0.7650(3) 0.1749(3) 0.5469(2)
N6A N 0.6262(3) 0.1744(3) 0.5366(2)
N7A N 0.7415(3) 0.2494(3) 0.4091(2)
N8A N 0.6087(3) 0.2368(3) 0.3981(2)
N9A N 0.4538(3) 0.2428(3) 0.5334(2)
N10A N 0.6922(3) 0.6432(3) 0.4621(2)
N11A N 0.4354(3) 0.3065(3) 0.3957(2)
N12A N 0.7063(3) 0.5753(3) 0.5997(2)
N13A N -0.1147(3) 1.3294(3) -0.1160(2)
N14A N -0.2487(3) 1.3415(3) -0.0693(2)
N15A N -0.0449(3) 1.3132(3) 0.0073(2)
N16A N -0.1720(3) 1.3074(3) 0.0569(2)
N17A N -0.3297(3) 1.2459(3) -0.0143(2)
N18A N -0.3093(3) 1.0931(3) 0.0198(2)
N19A N -0.2510(3) 1.2094(3) 0.1119(2)
N20A N -0.2503(3) 1.0653(3) 0.1504(2)
N21A N -0.2270(3) 0.9185(3) 0.0362(2)
N22A N 0.1110(3) 1.2238(3) -0.0295(2)
N23A N -0.1682(3) 0.8883(3) 0.1675(2)
N24A N 0.0418(3) 1.2440(3) -0.1545(2)
O5A O 0.7662(2) 0.3112(3) 0.66898(18)
O6A O 0.6737(2) 0.1955(2) 0.64596(18)
O7A O 0.4204(2) 0.2956(3) 0.64195(19)
O8A O 0.7372(3) 0.4902(3) 0.33070(19)
O9A O 0.6247(3) 0.3610(3) 0.3109(2)
O10A O 0.3777(3) 0.4527(3) 0.3002(2)
O11A O -0.2080(2) 1.2827(3) -0.17351(18)
O11A_2 O 0.7920(2) 0.2827(3) 0.82649(18)
O12A O -0.3030(2) 1.1646(2) -0.10609(18)
O12A_2 O 0.6970(2) 0.1646(2) 0.89391(18)
O13A O -0.1774(2) 0.9022(3) -0.0814(2)
O14A O -0.0293(3) 1.2262(3) 0.13412(19)
O15A O -0.1362(3) 1.0867(3) 0.2080(2)
O16A O -0.0240(2) 0.8374(3) 0.2356(2)
loop_
_geom_bond_atom_site_label_1
_geom_bond_atom_site_label_2
_geom_bond_site_symmetry_1
_geom_bond_site_symmetry_2
O1 Gd1 1_555 1_555
O2 Gd1 1_555 1_555
O3 Gd1 1_555 1_555
O4 Gd1 1_555 1_555
Gd1 O5 1_555 1_555
C1 N1 1_555 1_555
C2 C3 1_555 1_555
C3 C22 1_555 1_555
C4 N3 1_555 1_555
C5 H1 1_555 1_555
H2 C5 1_555 1_555
C6 H3 1_555 1_555
H4 C6 1_555 1_555
C7 N5 1_555 1_555
C8 C9 1_555 1_555
C9 C26 1_555 1_555
C10 N7 1_555 1_555
C11 H5 1_555 1_555
H6 C11 1_555 1_555
C12 H7 1_555 1_555
H8 C12 1_555 1_555
C13 N9 1_555 1_555
C14 C15 1_555 1_555
C15 C30 1_555 1_555
C16 N11 1_555 1_555
C17 H9 1_555 1_555
H10 C17 1_555 1_555
C18 H11 1_555 1_555
H12 C18 1_555 1_555
C19 C2 1_555 1_555
H13 C19 1_555 1_555
H14 C19 1_555 1_555
C20 C19 1_555 1_555
H15 C20 1_555 1_555
H16 C20 1_555 1_555
C21 C20 1_555 1_555
H17 C21 1_555 1_555
H18 C21 1_555 1_555
C22 C21 1_555 1_555
H19 C22 1_555 1_555
H20 C22 1_555 1_555
C23 C8 1_555 1_555
H21 C23 1_555 1_555
H22 C23 1_555 1_555
C24 C23 1_555 1_555
H23 C24 1_555 1_555
H24 C24 1_555 1_555
C25 C24 1_555 1_555
H25 C25 1_555 1_555
H26 C25 1_555 1_555
C26 C25 1_555 1_555
H27 C26 1_555 1_555
H28 C26 1_555 1_555
C27 C14 1_555 1_555
H29 C27 1_555 1_555
H30 C27 1_555 1_555
C28 C27 1_555 1_555
H31 C28 1_555 1_555
H32 C28 1_555 1_555
C29 C28 1_555 1_555
H33 C29 1_555 1_555
H34 C29 1_555 1_555
C30 C29 1_555 1_555
H35 C30 1_555 1_555
H36 C30 1_555 1_555
C31 N13 1_555 1_555
C32 C33 1_555 1_555
C33 C52 1_555 1_555
C34 N15 1_555 1_555
C35 H37 1_555 1_555
H38 C35 1_555 1_555
C36 H39 1_555 1_555
H40 C36 1_555 1_555
C37 N17 1_555 1_555
C38 C39 1_555 1_555
C39 C56 1_555 1_555
C40 N19 1_555 1_555
C41 H41 1_555 1_555
H42 C41 1_555 1_555
C42 H43 1_555 1_555
H44 C42 1_555 1_555
C43 N21 1_555 1_555
C44 C45 1_555 1_555
C45 C60 1_555 1_555
C46 N23 1_555 1_555
C47 H45 1_555 1_555
H46 C47 1_555 1_555
C48 H47 1_555 1_555
H48 C48 1_555 1_555
C49 C32 1_555 1_555
H49 C49 1_555 1_555
H50 C49 1_555 1_555
C50 C49 1_555 1_555
H51 C50 1_555 1_555
H52 C50 1_555 1_555
C51 C50 1_555 1_555
H53 C51 1_555 1_555
H54 C51 1_555 1_555
C52 C51 1_555 1_555
H55 C52 1_555 1_555
H56 C52 1_555 1_555
C53 C38 1_555 1_555
H57 C53 1_555 1_555
H58 C53 1_555 1_555
C54 C53 1_555 1_555
H59 C54 1_555 1_555
H60 C54 1_555 1_555
C55 C54 1_555 1_555
H61 C55 1_555 1_555
H62 C55 1_555 1_555
C56 C55 1_555 1_555
H63 C56 1_555 1_555
H64 C56 1_555 1_555
C57 C44 1_555 1_555
H65 C57 1_555 1_555
H66 C57 1_555 1_555
C58 C57 1_555 1_555
H67 C58 1_555 1_555
H68 C58 1_555 1_555
C59 C58 1_555 1_555
H69 C59 1_555 1_555
H70 C59 1_555 1_555
C60 C59 1_555 1_555
H71 C60 1_555 1_555
H72 C60 1_555 1_555
N1 C2 1_555 1_555
N2 C1 1_555 1_555
N3 C2 1_555 1_555
N4 C3 1_555 1_555
N5 C5 1_555 1_555
N6 C7 1_555 1_555
N7 C6 1_555 1_555
N8 C9 1_555 1_555
N9 C11 1_555 1_555
N10 C18 1_555 1_555
N11 C12 1_555 1_555
N12 C17 1_555 1_555
N13 C32 1_555 1_555
N14 C31 1_555 1_555
N15 C32 1_555 1_555
N16 C33 1_555 1_555
N17 C35 1_555 1_555
N18 C37 1_555 1_555
N19 C36 1_555 1_555
N20 C39 1_555 1_555
N21 C41 1_555 1_555
N22 C48 1_555 1_555
N23 C42 1_555 1_555
N24 C47 1_555 1_555
O5 C1 1_555 1_555
O6 Gd1 1_555 1_555
O7 C13 1_555 1_555
O8 C4 1_555 1_555
O9 C10 1_555 1_555
O10 C16 1_555 1_555
O11 Gd1 1_555 1_555
O12 Gd1 1_555 1_555
O13 C43 1_555 1_555
O14 C34 1_555 1_555
O15 C40 1_555 1_555
O16 C46 1_555 1_555
N25 O17 1_555 1_555
N26 O20 1_555 1_555
N27 O23 1_555 1_555
O18 N25 1_555 1_555
O19 N25 1_555 1_555
O21 N26 1_555 1_555
O22 N26 1_555 1_555
O24 N27 1_555 1_555
O25 N27 1_555 1_555
O1A Gd1A 1_555 1_555
O2A Gd1A 1_555 1_555
O3A Gd1A 1_555 1_555
O4A Gd1A 1_555 1_555
Gd1A O5A 1_555 1_555
Gd1A_2 O11A 1_555 1_555
C1A N1A 1_555 1_555
C2A C3A 1_555 1_555
C3A C22A 1_555 1_555
C4A N3A 1_555 1_555
C5A H1A 1_555 1_555
H2A C5A 1_555 1_555
C6A H3A 1_555 1_555
H4A C6A 1_555 1_555
C7A N5A 1_555 1_555
C8A C9A 1_555 1_555
C9A C26A 1_555 1_555
C10A N7A 1_555 1_555
C11A H5A 1_555 1_555
H6A C11A 1_555 1_555
C12A H7A 1_555 1_555
H8A C12A 1_555 1_555
C13A N10 1_555 1_555
C14A C15A 1_555 1_555
C15A N10 1_555 1_555
C16A N12 1_555 1_555
C17A H9A 1_555 1_555
H10A C17A 1_555 1_555
C18A H11A 1_555 1_555
H12A C18A 1_555 1_555
C19A C2A 1_555 1_555
H13A C19A 1_555 1_555
H14A C19A 1_555 1_555
C20A C19A 1_555 1_555
H15A C20A 1_555 1_555
H16A C20A 1_555 1_555
C21A C20A 1_555 1_555
H17A C21A 1_555 1_555
H18A C21A 1_555 1_555
C22A C21A 1_555 1_555
H19A C22A 1_555 1_555
H20A C22A 1_555 1_555
C23A C8A 1_555 1_555
H21A C23A 1_555 1_555
H22A C23A 1_555 1_555
C24A C23A 1_555 1_555
H23A C24A 1_555 1_555
H24A C24A 1_555 1_555
C25A C24A 1_555 1_555
H25A C25A 1_555 1_555
H26A C25A 1_555 1_555
C26A C25A 1_555 1_555
H27A C26A 1_555 1_555
H28A C26A 1_555 1_555
C27A C14A 1_555 1_555
H29A C27A 1_555 1_555
H30A C27A 1_555 1_555
C28A C27A 1_555 1_555
H31A C28A 1_555 1_555
H32A C28A 1_555 1_555
C29A C28A 1_555 1_555
H33A C29A 1_555 1_555
H34A C29A 1_555 1_555
C30A C15A 1_555 1_555
H35A C30A 1_555 1_555
H36A C30A 1_555 1_555
C31A N13A 1_555 1_555
C32A C33A 1_555 1_555
C33A C52A 1_555 1_555
C34A N15A 1_555 1_555
C35A H37A 1_555 1_555
H38A C35A 1_555 1_555
C36A H39A 1_555 1_555
H40A C36A 1_555 1_555
C37A N17A 1_555 1_555
C38A C39A 1_555 1_555
C39A C56A 1_555 1_555
C40A N19A 1_555 1_555
C41A H41A 1_555 1_555
H42A C41A 1_555 1_555
C42A H43A 1_555 1_555
H44A C42A 1_555 1_555
C43A N22 1_555 1_555
C44A C45A 1_555 1_555
C45A N22 1_555 1_555
C46A N24 1_555 1_555
C47A H45A 1_555 1_555
H46A C47A 1_555 1_555
C48A H47A 1_555 1_555
H48A C48A 1_555 1_555
C49A C32A 1_555 1_555
H49A C49A 1_555 1_555
H50A C49A 1_555 1_555
C50A C49A 1_555 1_555
H51A C50A 1_555 1_555
H52A C50A 1_555 1_555
C51A C50A 1_555 1_555
H53A C51A 1_555 1_555
H54A C51A 1_555 1_555
C52A C51A 1_555 1_555
H55A C52A 1_555 1_555
H56A C52A 1_555 1_555
C53A C38A 1_555 1_555
H57A C53A 1_555 1_555
H58A C53A 1_555 1_555
C54A C53A 1_555 1_555
H59A C54A 1_555 1_555
H60A C54A 1_555 1_555
C55A C54A 1_555 1_555
H61A C55A 1_555 1_555
H62A C55A 1_555 1_555
C56A C55A 1_555 1_555
H63A C56A 1_555 1_555
H64A C56A 1_555 1_555
C57A C44A 1_555 1_555
H65A C57A 1_555 1_555
H66A C57A 1_555 1_555
C58A C57A 1_555 1_555
H67A C58A 1_555 1_555
H68A C58A 1_555 1_555
C59A C58A 1_555 1_555
H69A C59A 1_555 1_555
H70A C59A 1_555 1_555
C60A C45A 1_555 1_555
H71A C60A 1_555 1_555
H72A C60A 1_555 1_555
N1A C2A 1_555 1_555
N2A C1A 1_555 1_555
N3A C2A 1_555 1_555
N4A C3A 1_555 1_555
N5A C5A 1_555 1_555
N6A C7A 1_555 1_555
N7A C6A 1_555 1_555
N8A C9A 1_555 1_555
N9A C11A 1_555 1_555
N10A C13 1_555 1_555
N11A C12A 1_555 1_555
N12A C15 1_555 1_555
N13A C32A 1_555 1_555
N14A C31A 1_555 1_555
N15A C32A 1_555 1_555
N16A C33A 1_555 1_555
N17A C35A 1_555 1_555
N18A C37A 1_555 1_555
N19A C36A 1_555 1_555
N20A C39A 1_555 1_555
N21A C41A 1_555 1_555
N22A C43 1_555 1_555
N23A C42A 1_555 1_555
N24A C45 1_555 1_555
O5A C1A 1_555 1_555
O6A Gd1A 1_555 1_555
O7A C13A 1_555 1_555
O8A C4A 1_555 1_555
O9A C10A 1_555 1_555
O10A C16A 1_555 1_555
O11A C31A 1_555 1_555
O11A_2 Gd1A 1_555 1_555
O12A Gd1A_2 1_555 1_555
O12A_2 Gd1A 1_555 1_555
O13A C43A 1_555 1_555
O14A C34A 1_555 1_555
O15A C40A 1_555 1_555
O16A C46A 1_555 1_555
C3 N2 1_555 1_555
C4 N4 1_555 1_555
C5 N2 1_555 1_555
C6 N4 1_555 1_555
C7 O6 1_555 1_555
C8 N5 1_555 1_555
C8 N7 1_555 1_555
C9 N6 1_555 1_555
C10 N8 1_555 1_555
C11 N6 1_555 1_555
C12 N8 1_555 1_555
C14 N9 1_555 1_555
C14 N11 1_555 1_555
C15 N10A 1_555 1_555
C16 N12A 1_555 1_555
C17 N1 1_555 1_555
C18 N3 1_555 1_555
C31 O11 1_555 1_555
C33 N14 1_555 1_555
C34 N16 1_555 1_555
C35 N14 1_555 1_555
C36 N16 1_555 1_555
C37 O12 1_555 1_555
C38 N17 1_555 1_555
C38 N19 1_555 1_555
C39 N18 1_555 1_555
C40 N20 1_555 1_555
C41 N18 1_555 1_555
C42 N20 1_555 1_555
C44 N21 1_555 1_555
C44 N23 1_555 1_555
C45 N22A 1_555 1_555
C46 N24A 1_555 1_555
C47 N13 1_555 1_555
C48 N15 1_555 1_555
N12 C15A 1_555 1_555
N24 C45A 1_555 1_555
C3A N2A 1_555 1_555
C4A N4A 1_555 1_555
C5A N2A 1_555 1_555
C6A N4A 1_555 1_555
C7A O6A 1_555 1_555
C8A N5A 1_555 1_555
C8A N7A 1_555 1_555
C9A N6A 1_555 1_555
C10A N8A 1_555 1_555
C11A N6A 1_555 1_555
C12A N8A 1_555 1_555
C13A N9A 1_555 1_555
C14A N9A 1_555 1_555
C14A N11A 1_555 1_555
C16A N11A 1_555 1_555
C17A N1A 1_555 1_555
C17A N12A 1_555 1_555
C18A N3A 1_555 1_555
C18A N10A 1_555 1_555
C29A C30A 1_555 1_555
C33A N14A 1_555 1_555
C34A N16A 1_555 1_555
C35A N14A 1_555 1_555
C36A N16A 1_555 1_555
C37A O12A 1_555 1_555
C38A N17A 1_555 1_555
C38A N19A 1_555 1_555
C39A N18A 1_555 1_555
C40A N20A 1_555 1_555
C41A N18A 1_555 1_555
C42A N20A 1_555 1_555
C43A N21A 1_555 1_555
C44A N21A 1_555 1_555
C44A N23A 1_555 1_555
C46A N23A 1_555 1_555
C47A N13A 1_555 1_555
C47A N24A 1_555 1_555
C48A N15A 1_555 1_555
C48A N22A 1_555 1_555
C59A C60A 1_555 1_555

#END
