
#######################################################################
#
#                 Cambridge Crystallographic Data Centre
#                                CCDC 
#
#######################################################################
#
# If this CIF has been generated from an entry in the Cambridge 
# Structural Database, then it will include bibliographic, chemical, 
# crystal, experimental, refinement or atomic coordinate data resulting 
# from the CCDC's data processing and validation procedures.
#
#######################################################################

data_TEPLOR
_symmetry_cell_setting           triclinic
_symmetry_space_group_name_H-M   'P -1'
_symmetry_Int_Tables_number      2
_space_group_name_Hall           '-P 1'
loop_
_symmetry_equiv_pos_site_id
_symmetry_equiv_pos_as_xyz
1 x,y,z
2 -x,-y,-z
_cell_length_a                   15.9003(8)
_cell_length_b                   15.9406(8)
_cell_length_c                   18.1921(9)
_cell_angle_alpha                74.646(2)
_cell_angle_beta                 89.345(2)
_cell_angle_gamma                63.329(2)
_cell_volume                     3942.31
loop_
_atom_site_label
_atom_site_type_symbol
_atom_site_fract_x
_atom_site_fract_y
_atom_site_fract_z
N25 N -0.5658(4) 1.2811(4) 1.4148(3)
O17 O -0.5467(5) 1.3298(4) 1.3584(3)
O18 O -0.6225(4) 1.3227(4) 1.4562(3)
O19 O -0.5270(3) 1.1935(4) 1.4297(3)
N26 N -0.4063(5) 0.9388(5) 1.8320(3)
O20 O -0.4652(3) 0.9998(3) 1.8664(2)
O21 O -0.4218(4) 0.9450(4) 1.7695(3)
O22 O -0.3253(4) 0.8714(4) 1.8692(3)
N27 N 0.0111(3) 1.4403(3) 0.8042(2)
O23 O -0.0298(3) 1.3905(3) 0.8195(2)
O24 O 0.0472(3) 1.4470(3) 0.7442(2)
O25 O 0.0142(3) 1.4860(3) 0.8475(2)
O1 O -0.2582(2) 1.0502(2) 1.28659(15)
O2 O -0.44014(19) 1.2246(2) 1.26684(16)
O3 O -0.1228(2) 1.1156(2) 1.27500(17)
O4 O -0.3955(2) 1.3797(2) 1.24620(15)
Y1 Y -0.28521(3) 1.21535(3) 1.26424(2)
C1 C -0.3118(3) 1.1832(3) 1.0832(2)
C2 C -0.3351(3) 1.1546(3) 0.9672(2)
C3 C -0.2395(3) 1.1600(3) 0.9726(2)
C4 C -0.3458(3) 1.2891(3) 0.8690(2)
C5 C -0.1548(3) 1.1750(3) 1.0843(2)
H1 H -0.0967 1.1308 1.0679
H2 H -0.1506 1.1495 1.1402
C6 C -0.1901(3) 1.2834(3) 0.8867(2)
H3 H -0.1276 1.2266 0.8933
H4 H -0.2067 1.3192 0.8319
C7 C -0.1999(3) 1.3320(3) 1.1105(2)
C8 C -0.1248(3) 1.3151(3) 1.0004(2)
C9 C -0.1415(3) 1.4135(3) 1.0140(2)
C10 C -0.2208(3) 1.4452(3) 0.8948(2)
C11 C -0.2113(3) 1.4841(3) 1.1270(2)
H5 H -0.2164 1.4526 1.1798
H6 H -0.1565 1.4966 1.1287
C12 C -0.2308(3) 1.5908(3) 0.9238(2)
H7 H -0.1770 1.6007 0.9368
H8 H -0.2483 1.6179 0.8680
C13 C -0.3714(3) 1.6017(3) 1.1392(2)
C14 C -0.3022(3) 1.6597(3) 1.0351(2)
C15 C -0.4040(3) 1.7431(3) 1.0375(2)
C16 C -0.3990(3) 1.7039(3) 0.9212(2)
C17 C -0.5201(3) 1.7477(3) 1.1373(2)
H9 H -0.5241 1.8110 1.1370
H10 H -0.5118 1.7096 1.1911
C18 C -0.5477(3) 1.8406(3) 0.9319(2)
H11 H -0.5509 1.8992 0.9421
H12 H -0.5545 1.8530 0.8760
C19 C -0.3180(3) 1.0539(3) 0.9621(3)
H13 H -0.2819 1.0035 1.0100
H14 H -0.3790 1.0537 0.9553
C20 C -0.2631(4) 1.0301(4) 0.8946(3)
H15 H -0.2437 0.9616 0.8975
H16 H -0.3054 1.0713 0.8466
C21 C -0.1758(4) 1.0458(4) 0.8924(3)
H17 H -0.1849 1.0996 0.8467
H18 H -0.1209 0.9863 0.8882
C22 C -0.1549(3) 1.0705(3) 0.9650(2)
H19 H -0.1410 1.0151 1.0107
H20 H -0.0994 1.0824 0.9606
C23 C -0.0199(3) 1.2486(3) 0.9965(2)
H21 H -0.0122 1.1857 0.9919
H22 H 0.0008 1.2796 0.9510
C24 C 0.0415(3) 1.2309(3) 1.0685(3)
H23 H 0.1083 1.2002 1.0602
H24 H 0.0325 1.1847 1.1115
C25 C 0.0189(3) 1.3244(3) 1.0902(3)
H25 H -0.0093 1.3220 1.1384
H26 H 0.0780 1.3276 1.0988
C26 C -0.0488(3) 1.4163(3) 1.0284(2)
H27 H -0.0196 1.4210 0.9808
H28 H -0.0616 1.4744 1.0447
C27 C -0.2251(3) 1.6879(3) 1.0462(2)
H29 H -0.2284 1.7384 1.0001
H30 H -0.1629 1.6305 1.0532
C28 C -0.2348(3) 1.7267(3) 1.1156(3)
H31 H -0.1870 1.7491 1.1179
H32 H -0.2215 1.6728 1.1623
C29 C -0.3330(3) 1.8112(4) 1.1143(3)
H33 H -0.3264 1.8696 1.1137
H34 H -0.3596 1.7934 1.1612
C30 C -0.4015(3) 1.8354(3) 1.0441(2)
H35 H -0.4653 1.8836 1.0489
H36 H -0.3811 1.8645 0.9975
C31 C -0.1727(3) 0.8688(3) 1.4885(2)
C32 C -0.1196(3) 0.7575(3) 1.6116(2)
C33 C -0.2064(3) 0.8557(3) 1.6161(2)
C34 C -0.0719(3) 0.8284(3) 1.6898(2)
C35 C -0.3111(3) 1.0097(3) 1.5059(2)
H37 H -0.3649 1.0034 1.5288
H38 H -0.3226 1.0213 1.4504
C36 C -0.2205(3) 0.9668(3) 1.7007(2)
H39 H -0.1834 0.9568 1.7477
H40 H -0.2783 0.9626 1.7153
C37 C -0.3101(3) 1.1678(3) 1.4601(2)
C38 C -0.3284(3) 1.1227(3) 1.59064(19)
C39 C -0.3327(3) 1.2267(3) 1.56720(19)
C40 C -0.2026(3) 1.1174(3) 1.6610(2)
C41 C -0.3364(3) 1.3368(3) 1.4348(2)
H41 H -0.3817 1.3909 1.4531
H42 H -0.3629 1.3457 1.3833
C42 C -0.2245(3) 1.2869(3) 1.6154(2)
H43 H -0.2831 1.3470 1.6122
H44 H -0.1880 1.2669 1.6655
C43 C -0.1918(3) 1.3154(3) 1.3751(2)
C44 C -0.2095(3) 1.3786(3) 1.4799(2)
C45 C -0.1196(3) 1.3771(3) 1.4432(2)
C46 C -0.0754(3) 1.2784(3) 1.5707(2)
C47 C -0.0532(3) 0.7017(3) 1.4946(2)
H45 H -0.0821 0.7213 1.4416
H46 H -0.0533 0.6397 1.5217
C48 C 0.0536(3) 0.6729(3) 1.6781(2)
H47 H 0.0832 0.6768 1.7232
H48 H 0.0483 0.6119 1.6931
C49 C -0.1361(3) 0.6690(3) 1.6459(2)
H49 H -0.1832 0.6700 1.6109
H50 H -0.0767 0.6090 1.6507
C50 C -0.1701(3) 0.6673(3) 1.7233(2)
H51 H -0.1212 0.6620 1.7592
H52 H -0.1799 0.6093 1.7428
C51 C -0.2621(3) 0.7588(3) 1.7203(3)
H53 H -0.3134 0.7406 1.7295
H54 H -0.2556 0.7851 1.7617
C52 C -0.2893(3) 0.8386(3) 1.6442(2)
H55 H -0.3143 0.8203 1.6055
H56 H -0.3398 0.8999 1.6500
C53 C -0.4209(3) 1.1264(3) 1.6171(2)
H57 H -0.4711 1.1632 1.5734
H58 H -0.4134 1.0595 1.6349
C54 C -0.4506(3) 1.1737(3) 1.6808(2)
H59 H -0.4125 1.1263 1.7292
H60 H -0.5171 1.1900 1.6861
C55 C -0.4394(3) 1.2679(3) 1.6679(2)
H61 H -0.4965 1.3191 1.6797
H62 H -0.3853 1.2543 1.7027
C56 C -0.4237(3) 1.3045(3) 1.5844(2)
H63 H -0.4775 1.3181 1.5493
H64 H -0.4191 1.3655 1.5768
C57 C -0.2804(3) 1.4813(3) 1.4824(2)
H65 H -0.3371 1.4795 1.5028
H66 H -0.2521 1.5019 1.5172
C58 C -0.3089(3) 1.5551(3) 1.4037(3)
H67 H -0.3439 1.6213 1.4092
H68 H -0.3515 1.5444 1.3731
C59 C -0.2236(3) 1.5487(3) 1.3606(2)
H69 H -0.2250 1.5247 1.3165
H70 H -0.2286 1.6145 1.3409
C60 C -0.1297(3) 1.4810(3) 1.4115(2)
H71 H -0.1264 1.5066 1.4542
H72 H -0.0773 1.4788 1.3818
N1 N -0.3731(2) 1.1737(2) 1.03858(16)
N2 N -0.2346(2) 1.1740(2) 1.04882(16)
N3 N -0.3904(2) 1.2344(2) 0.89974(17)
N4 N -0.2595(2) 1.2487(2) 0.91102(17)
N5 N -0.1596(2) 1.2713(2) 1.06616(17)
N6 N -0.1935(2) 1.4163(2) 1.08192(16)
N7 N -0.1839(2) 1.3468(2) 0.92842(17)
N8 N -0.2004(2) 1.4861(2) 0.94450(17)
N9 N -0.2955(2) 1.5770(2) 1.09874(17)
N10 N -0.4365(2) 1.6964(2) 1.10297(17)
N11 N -0.3101(2) 1.6451(2) 0.96075(17)
N12 N -0.4550(2) 1.7588(2) 0.96391(17)
N13 N -0.1111(2) 0.7757(2) 1.53075(17)
N14 N -0.2262(2) 0.9186(2) 1.53680(17)
N15 N -0.0420(2) 0.7561(2) 1.65576(17)
N16 N -0.1660(2) 0.8879(2) 1.66792(17)
N17 N -0.3078(2) 1.0946(2) 1.51925(16)
N18 N -0.3275(2) 1.2465(2) 1.48477(16)
N19 N -0.2475(2) 1.0654(2) 1.65063(16)
N20 N -0.2489(2) 1.2106(2) 1.61139(17)
N21 N -0.2474(2) 1.3431(2) 1.42930(17)
N22 N -0.1153(2) 1.3311(2) 1.38249(17)
N23 N -0.1702(2) 1.3082(2) 1.55574(17)
N24 N -0.0442(2) 1.3148(2) 1.50628(17)
O5 O -0.32535(18) 1.1970(2) 1.14741(14)
O6 O -0.23484(19) 1.3121(2) 1.16929(14)
O7 O -0.3788(2) 1.5488(2) 1.19902(15)
O8 O -0.3766(2) 1.3597(2) 0.81095(16)
O9 O -0.2651(2) 1.4908(2) 0.82997(14)
O10 O -0.4219(2) 1.7058(2) 0.85620(15)
O11 O -0.1780(2) 0.9013(2) 1.41866(14)
O12 O -0.30071(18) 1.16487(19) 1.39356(13)
O13 O -0.20749(18) 1.2829(2) 1.32561(14)
O14 O -0.02267(18) 0.8386(2) 1.73544(14)
O15 O -0.1345(2) 1.0870(2) 1.70918(16)
O16 O -0.0274(2) 1.2269(2) 1.63269(15)
O1A O -0.7418(2) 1.9498(2) 0.71341(15)
O2A O -0.55986(19) 1.7754(2) 0.73316(16)
O3A O -0.8772(2) 1.8844(2) 0.72500(17)
O4A O -0.6045(2) 1.6203(2) 0.75380(15)
Y1A Y -0.71479(3) 1.78465(3) 0.73576(2)
Y1A_2 Y 0.28521(3) 0.78465(3) 1.73576(2)
C1A C -0.6882(3) 1.8168(3) 0.9168(2)
C2A C -0.6649(3) 1.8454(3) 1.0328(2)
C3A C -0.7605(3) 1.8400(3) 1.0274(2)
C4A C -0.6542(3) 1.7109(3) 1.1310(2)
C5A C -0.8452(3) 1.8250(3) 0.9157(2)
H1A H -0.9033 1.8692 0.9321
H2A H -0.8494 1.8505 0.8598
C6A C -0.8099(3) 1.7166(3) 1.1133(2)
H3A H -0.8724 1.7734 1.1067
H4A H -0.7933 1.6808 1.1681
C7A C -0.8001(3) 1.6680(3) 0.8895(2)
C8A C -0.8752(3) 1.6849(3) 0.9996(2)
C9A C -0.8585(3) 1.5865(3) 0.9860(2)
C10A C -0.7792(3) 1.5548(3) 1.1052(2)
C11A C -0.7887(3) 1.5159(3) 0.8730(2)
H5A H -0.7836 1.5474 0.8202
H6A H -0.8435 1.5034 0.8713
C12A C -0.7692(3) 1.4092(3) 1.0762(2)
H7A H -0.8230 1.3993 1.0632
H8A H -0.7517 1.3821 1.1320
C13A C -0.6286(3) 1.3983(3) 0.8608(2)
C14A C -0.6978(3) 1.3403(3) 0.9649(2)
C15A C -0.5960(3) 1.2569(3) 0.9625(2)
C16A C -0.6010(3) 1.2961(3) 1.0788(2)
C17A C -0.4799(3) 1.2523(3) 0.8627(2)
H9A H -0.4759 1.1890 0.8630
H10A H -0.4882 1.2904 0.8089
C18A C -0.4523(3) 1.1594(3) 1.0681(2)
H11A H -0.4491 1.1008 1.0579
H12A H -0.4455 1.1470 1.1240
C19A C -0.6820(3) 1.9461(3) 1.0379(3)
H13A H -0.7181 1.9965 0.9900
H14A H -0.6210 1.9463 1.0447
C20A C -0.7369(4) 1.9699(4) 1.1054(3)
H15A H -0.7563 2.0384 1.1025
H16A H -0.6946 1.9287 1.1534
C21A C -0.8242(4) 1.9542(4) 1.1076(3)
H17A H -0.8151 1.9004 1.1533
H18A H -0.8791 2.0137 1.1118
C22A C -0.8451(3) 1.9295(3) 1.0350(2)
H19A H -0.8590 1.9849 0.9893
H20A H -0.9006 1.9176 1.0394
C23A C -0.9801(3) 1.7514(3) 1.0035(2)
H21A H -0.9878 1.8143 1.0081
H22A H -1.0008 1.7204 1.0490
C24A C -1.0415(3) 1.7691(3) 0.9315(3)
H23A H -1.1083 1.7998 0.9398
H24A H -1.0325 1.8153 0.8885
C25A C -1.0189(3) 1.6756(3) 0.9098(3)
H25A H -0.9907 1.6780 0.8616
H26A H -1.0780 1.6724 0.9012
C26A C -0.9512(3) 1.5837(3) 0.9716(2)
H27A H -0.9804 1.5790 1.0192
H28A H -0.9384 1.5256 0.9553
C27A C -0.7749(3) 1.3121(3) 0.9538(2)
H29A H -0.7716 1.2616 0.9999
H30A H -0.8371 1.3695 0.9468
C28A C -0.7652(3) 1.2733(3) 0.8844(3)
H31A H -0.8130 1.2509 0.8821
H32A H -0.7785 1.3272 0.8377
C29A C -0.6670(3) 1.1888(4) 0.8857(3)
H33A H -0.6736 1.1304 0.8863
H34A H -0.6404 1.2066 0.8388
C30A C -0.5985(3) 1.1646(3) 0.9559(2)
H35A H -0.5347 1.1164 0.9511
H36A H -0.6189 1.1355 1.0025
C31A C 0.1727(3) 1.1312(3) 1.5115(2)
C32A C 0.1196(3) 1.2425(3) 1.3884(2)
C33A C 0.2064(3) 1.1443(3) 1.3839(2)
C34A C 0.0719(3) 1.1716(3) 1.3102(2)
C35A C 0.3111(3) 0.9903(3) 1.4941(2)
H37A H 0.3649 0.9966 1.4712
H38A H 0.3226 0.9787 1.5496
C36A C 0.2205(3) 1.0332(3) 1.2993(2)
H39A H 0.1834 1.0432 1.2523
H40A H 0.2783 1.0374 1.2847
C37A C 0.3101(3) 0.8322(3) 1.5399(2)
C38A C 0.3284(3) 0.8773(3) 1.40936(19)
C39A C 0.3327(3) 0.7733(3) 1.43280(19)
C40A C 0.2026(3) 0.8826(3) 1.3390(2)
C41A C 0.3364(3) 0.6632(3) 1.5652(2)
H41A H 0.3817 0.6091 1.5469
H42A H 0.3629 0.6543 1.6167
C42A C 0.2245(3) 0.7131(3) 1.3846(2)
H43A H 0.2831 0.6530 1.3878
H44A H 0.1880 0.7331 1.3345
C43A C 0.1918(3) 0.6846(3) 1.6249(2)
C44A C 0.2095(3) 0.6214(3) 1.5201(2)
C45A C 0.1196(3) 0.6229(3) 1.5568(2)
C46A C 0.0754(3) 0.7216(3) 1.4293(2)
C47A C 0.0532(3) 1.2983(3) 1.5054(2)
H45A H 0.0821 1.2787 1.5584
H46A H 0.0533 1.3603 1.4783
C48A C -0.0536(3) 1.3271(3) 1.3219(2)
H47A H -0.0832 1.3232 1.2768
H48A H -0.0483 1.3881 1.3069
C49A C 0.1361(3) 1.3310(3) 1.3541(2)
H49A H 0.1832 1.3300 1.3891
H50A H 0.0767 1.3910 1.3493
C50A C 0.1701(3) 1.3327(3) 1.2767(2)
H51A H 0.1212 1.3380 1.2408
H52A H 0.1799 1.3907 1.2572
C51A C 0.2621(3) 1.2412(3) 1.2797(3)
H53A H 0.3134 1.2594 1.2705
H54A H 0.2556 1.2149 1.2383
C52A C 0.2893(3) 1.1614(3) 1.3558(2)
H55A H 0.3143 1.1797 1.3945
H56A H 0.3398 1.1001 1.3500
C53A C 0.4209(3) 0.8736(3) 1.3829(2)
H57A H 0.4711 0.8368 1.4266
H58A H 0.4134 0.9405 1.3651
C54A C 0.4506(3) 0.8263(3) 1.3192(2)
H59A H 0.4125 0.8737 1.2708
H60A H 0.5171 0.8100 1.3139
C55A C 0.4394(3) 0.7321(3) 1.3321(2)
H61A H 0.4965 0.6809 1.3203
H62A H 0.3853 0.7457 1.2973
C56A C 0.4237(3) 0.6955(3) 1.4156(2)
H63A H 0.4775 0.6819 1.4507
H64A H 0.4191 0.6345 1.4232
C57A C 0.2804(3) 0.5187(3) 1.5176(2)
H65A H 0.3371 0.5205 1.4972
H66A H 0.2521 0.4981 1.4828
C58A C 0.3089(3) 0.4449(3) 1.5963(3)
H67A H 0.3439 0.3787 1.5908
H68A H 0.3515 0.4556 1.6269
C59A C 0.2236(3) 0.4513(3) 1.6394(2)
H69A H 0.2250 0.4753 1.6835
H70A H 0.2286 0.3855 1.6591
C60A C 0.1297(3) 0.5190(3) 1.5885(2)
H71A H 0.1264 0.4934 1.5458
H72A H 0.0773 0.5212 1.6182
N1A N -0.6269(2) 1.8263(2) 0.96142(16)
N2A N -0.7654(2) 1.8260(2) 0.95118(16)
N3A N -0.6096(2) 1.7656(2) 1.10026(17)
N4A N -0.7405(2) 1.7513(2) 1.08898(17)
N5A N -0.8404(2) 1.7287(2) 0.93384(17)
N6A N -0.8065(2) 1.5837(2) 0.91808(16)
N7A N -0.8161(2) 1.6532(2) 1.07158(17)
N8A N -0.7996(2) 1.5139(2) 1.05550(17)
N9A N -0.7045(2) 1.4230(2) 0.90126(17)
N10A N -0.5635(2) 1.3036(2) 0.89703(17)
N11A N -0.6899(2) 1.3549(2) 1.03925(17)
N12A N -0.5450(2) 1.2412(2) 1.03609(17)
N13A N 0.1111(2) 1.2243(2) 1.46925(17)
N14A N 0.2262(2) 1.0814(2) 1.46320(17)
N15A N 0.0420(2) 1.2439(2) 1.34424(17)
N16A N 0.1660(2) 1.1121(2) 1.33208(17)
N17A N 0.3078(2) 0.9054(2) 1.48075(16)
N18A N 0.3275(2) 0.7535(2) 1.51523(16)
N19A N 0.2475(2) 0.9346(2) 1.34937(16)
N20A N 0.2489(2) 0.7894(2) 1.38861(17)
N21A N 0.2474(2) 0.6569(2) 1.57070(17)
N22A N 0.1153(2) 0.6689(2) 1.61751(17)
N23A N 0.1702(2) 0.6918(2) 1.44426(17)
N24A N 0.0442(2) 0.6852(2) 1.49372(17)
O5A O -0.67465(18) 1.8030(2) 0.85259(14)
O6A O -0.76516(19) 1.6879(2) 0.83071(14)
O7A O -0.6212(2) 1.4512(2) 0.80098(15)
O8A O -0.6234(2) 1.6403(2) 1.18905(16)
O9A O -0.7349(2) 1.5092(2) 1.17003(14)
O10A O -0.5781(2) 1.2942(2) 1.14380(15)
O11A O 0.1780(2) 1.0987(2) 1.58134(14)
O12A O 0.30071(18) 0.83513(19) 1.60644(13)
O12A_2 O -0.69929(18) 1.83513(19) 0.60644(13)
O13A O 0.20749(18) 0.7171(2) 1.67439(14)
O13A_2 O -0.79251(18) 1.7171(2) 0.67439(14)
O14A O 0.02267(18) 1.1614(2) 1.26456(14)
O15A O 0.1345(2) 0.9130(2) 1.29082(16)
O16A O 0.0274(2) 0.7731(2) 1.36731(15)
loop_
_geom_bond_atom_site_label_1
_geom_bond_atom_site_label_2
_geom_bond_site_symmetry_1
_geom_bond_site_symmetry_2
O1 Y1 1_555 1_555
O2 Y1 1_555 1_555
O3 Y1 1_555 1_555
O4 Y1 1_555 1_555
Y1 O5 1_555 1_555
C1 N1 1_555 1_555
C2 C3 1_555 1_555
C3 C22 1_555 1_555
C4 N3 1_555 1_555
C5 H1 1_555 1_555
H2 C5 1_555 1_555
C6 H3 1_555 1_555
H4 C6 1_555 1_555
C7 N5 1_555 1_555
C8 C9 1_555 1_555
C9 C26 1_555 1_555
C10 N7 1_555 1_555
C11 H5 1_555 1_555
H6 C11 1_555 1_555
C12 H7 1_555 1_555
H8 C12 1_555 1_555
C13 N9 1_555 1_555
C14 C15 1_555 1_555
C15 C30 1_555 1_555
C16 N11 1_555 1_555
C17 H9 1_555 1_555
H10 C17 1_555 1_555
C18 H11 1_555 1_555
H12 C18 1_555 1_555
C19 C2 1_555 1_555
H13 C19 1_555 1_555
H14 C19 1_555 1_555
C20 C19 1_555 1_555
H15 C20 1_555 1_555
H16 C20 1_555 1_555
C21 C20 1_555 1_555
H17 C21 1_555 1_555
H18 C21 1_555 1_555
C22 C21 1_555 1_555
H19 C22 1_555 1_555
H20 C22 1_555 1_555
C23 C8 1_555 1_555
H21 C23 1_555 1_555
H22 C23 1_555 1_555
C24 C23 1_555 1_555
H23 C24 1_555 1_555
H24 C24 1_555 1_555
C25 C24 1_555 1_555
H25 C25 1_555 1_555
H26 C25 1_555 1_555
C26 C25 1_555 1_555
H27 C26 1_555 1_555
H28 C26 1_555 1_555
C27 C14 1_555 1_555
H29 C27 1_555 1_555
H30 C27 1_555 1_555
C28 C27 1_555 1_555
H31 C28 1_555 1_555
H32 C28 1_555 1_555
C29 C28 1_555 1_555
H33 C29 1_555 1_555
H34 C29 1_555 1_555
C30 C29 1_555 1_555
H35 C30 1_555 1_555
H36 C30 1_555 1_555
C31 N13 1_555 1_555
C32 C33 1_555 1_555
C33 C52 1_555 1_555
C34 N15 1_555 1_555
C35 H37 1_555 1_555
H38 C35 1_555 1_555
C36 H39 1_555 1_555
H40 C36 1_555 1_555
C37 N17 1_555 1_555
C38 C39 1_555 1_555
C39 C56 1_555 1_555
C40 N19 1_555 1_555
C41 H41 1_555 1_555
H42 C41 1_555 1_555
C42 H43 1_555 1_555
H44 C42 1_555 1_555
C43 N21 1_555 1_555
C44 C45 1_555 1_555
C45 C60 1_555 1_555
C46 N23 1_555 1_555
C47 H45 1_555 1_555
H46 C47 1_555 1_555
C48 H47 1_555 1_555
H48 C48 1_555 1_555
C49 C32 1_555 1_555
H49 C49 1_555 1_555
H50 C49 1_555 1_555
C50 C49 1_555 1_555
H51 C50 1_555 1_555
H52 C50 1_555 1_555
C51 C50 1_555 1_555
H53 C51 1_555 1_555
H54 C51 1_555 1_555
C52 C51 1_555 1_555
H55 C52 1_555 1_555
H56 C52 1_555 1_555
C53 C38 1_555 1_555
H57 C53 1_555 1_555
H58 C53 1_555 1_555
C54 C53 1_555 1_555
H59 C54 1_555 1_555
H60 C54 1_555 1_555
C55 C54 1_555 1_555
H61 C55 1_555 1_555
H62 C55 1_555 1_555
C56 C55 1_555 1_555
H63 C56 1_555 1_555
H64 C56 1_555 1_555
C57 C44 1_555 1_555
H65 C57 1_555 1_555
H66 C57 1_555 1_555
C58 C57 1_555 1_555
H67 C58 1_555 1_555
H68 C58 1_555 1_555
C59 C58 1_555 1_555
H69 C59 1_555 1_555
H70 C59 1_555 1_555
C60 C59 1_555 1_555
H71 C60 1_555 1_555
H72 C60 1_555 1_555
N1 C2 1_555 1_555
N2 C1 1_555 1_555
N3 C2 1_555 1_555
N4 C3 1_555 1_555
N5 C5 1_555 1_555
N6 C7 1_555 1_555
N7 C6 1_555 1_555
N8 C9 1_555 1_555
N9 C11 1_555 1_555
N10 C13 1_555 1_555
N11 C12 1_555 1_555
N12 C15 1_555 1_555
N13 C32 1_555 1_555
N14 C31 1_555 1_555
N15 C32 1_555 1_555
N16 C33 1_555 1_555
N17 C35 1_555 1_555
N18 C37 1_555 1_555
N19 C36 1_555 1_555
N20 C39 1_555 1_555
N21 C41 1_555 1_555
N22 C43 1_555 1_555
N23 C42 1_555 1_555
N24 C45 1_555 1_555
O5 C1 1_555 1_555
O6 Y1 1_555 1_555
O7 C13 1_555 1_555
O8 C4 1_555 1_555
O9 C10 1_555 1_555
O10 C16 1_555 1_555
O11 C31 1_555 1_555
O12 Y1 1_555 1_555
O13 Y1 1_555 1_555
O14 C34 1_555 1_555
O15 C40 1_555 1_555
O16 C46 1_555 1_555
N25 O17 1_555 1_555
N26 O20 1_555 1_555
N27 O23 1_555 1_555
O18 N25 1_555 1_555
O19 N25 1_555 1_555
O21 N26 1_555 1_555
O22 N26 1_555 1_555
O24 N27 1_555 1_555
O25 N27 1_555 1_555
O1A Y1A 1_555 1_555
O2A Y1A 1_555 1_555
O3A Y1A 1_555 1_555
O4A Y1A 1_555 1_555
Y1A O5A 1_555 1_555
Y1A_2 O12A 1_555 1_555
C1A N1A 1_555 1_555
C2A C3A 1_555 1_555
C3A C22A 1_555 1_555
C4A N3A 1_555 1_555
C5A H1A 1_555 1_555
H2A C5A 1_555 1_555
C6A H3A 1_555 1_555
H4A C6A 1_555 1_555
C7A N5A 1_555 1_555
C8A C9A 1_555 1_555
C9A C26A 1_555 1_555
C10A N7A 1_555 1_555
C11A H5A 1_555 1_555
H6A C11A 1_555 1_555
C12A H7A 1_555 1_555
H8A C12A 1_555 1_555
C13A N9A 1_555 1_555
C14A C15A 1_555 1_555
C15A C30A 1_555 1_555
C16A N11A 1_555 1_555
C17A N3 1_555 1_555
H9A C17A 1_555 1_555
H10A C17A 1_555 1_555
C18A N1 1_555 1_555
H11A C18A 1_555 1_555
H12A C18A 1_555 1_555
C19A C2A 1_555 1_555
H13A C19A 1_555 1_555
H14A C19A 1_555 1_555
C20A C19A 1_555 1_555
H15A C20A 1_555 1_555
H16A C20A 1_555 1_555
C21A C20A 1_555 1_555
H17A C21A 1_555 1_555
H18A C21A 1_555 1_555
C22A C21A 1_555 1_555
H19A C22A 1_555 1_555
H20A C22A 1_555 1_555
C23A C8A 1_555 1_555
H21A C23A 1_555 1_555
H22A C23A 1_555 1_555
C24A C23A 1_555 1_555
H23A C24A 1_555 1_555
H24A C24A 1_555 1_555
C25A C24A 1_555 1_555
H25A C25A 1_555 1_555
H26A C25A 1_555 1_555
C26A C25A 1_555 1_555
H27A C26A 1_555 1_555
H28A C26A 1_555 1_555
C27A C14A 1_555 1_555
H29A C27A 1_555 1_555
H30A C27A 1_555 1_555
C28A C27A 1_555 1_555
H31A C28A 1_555 1_555
H32A C28A 1_555 1_555
C29A C28A 1_555 1_555
H33A C29A 1_555 1_555
H34A C29A 1_555 1_555
C30A C29A 1_555 1_555
H35A C30A 1_555 1_555
H36A C30A 1_555 1_555
C31A N13A 1_555 1_555
C32A C33A 1_555 1_555
C33A C52A 1_555 1_555
C34A N15A 1_555 1_555
C35A H37A 1_555 1_555
H38A C35A 1_555 1_555
C36A H39A 1_555 1_555
H40A C36A 1_555 1_555
C37A N17A 1_555 1_555
C38A C39A 1_555 1_555
C39A C56A 1_555 1_555
C40A N19A 1_555 1_555
C41A H41A 1_555 1_555
H42A C41A 1_555 1_555
C42A H43A 1_555 1_555
H44A C42A 1_555 1_555
C43A N21A 1_555 1_555
C44A C45A 1_555 1_555
C45A C60A 1_555 1_555
C46A N23A 1_555 1_555
C47A N24 1_555 1_555
H45A C47A 1_555 1_555
H46A C47A 1_555 1_555
C48A N22 1_555 1_555
H47A C48A 1_555 1_555
H48A C48A 1_555 1_555
C49A C32A 1_555 1_555
H49A C49A 1_555 1_555
H50A C49A 1_555 1_555
C50A C49A 1_555 1_555
H51A C50A 1_555 1_555
H52A C50A 1_555 1_555
C51A C50A 1_555 1_555
H53A C51A 1_555 1_555
H54A C51A 1_555 1_555
C52A C51A 1_555 1_555
H55A C52A 1_555 1_555
H56A C52A 1_555 1_555
C53A C38A 1_555 1_555
H57A C53A 1_555 1_555
H58A C53A 1_555 1_555
C54A C53A 1_555 1_555
H59A C54A 1_555 1_555
H60A C54A 1_555 1_555
C55A C54A 1_555 1_555
H61A C55A 1_555 1_555
H62A C55A 1_555 1_555
C56A C55A 1_555 1_555
H63A C56A 1_555 1_555
H64A C56A 1_555 1_555
C57A C44A 1_555 1_555
H65A C57A 1_555 1_555
H66A C57A 1_555 1_555
C58A C57A 1_555 1_555
H67A C58A 1_555 1_555
H68A C58A 1_555 1_555
C59A C58A 1_555 1_555
H69A C59A 1_555 1_555
H70A C59A 1_555 1_555
C60A C59A 1_555 1_555
H71A C60A 1_555 1_555
H72A C60A 1_555 1_555
N1A C18 1_555 1_555
N2A C1A 1_555 1_555
N3A C17 1_555 1_555
N4A C3A 1_555 1_555
N5A C5A 1_555 1_555
N6A C7A 1_555 1_555
N7A C6A 1_555 1_555
N8A C9A 1_555 1_555
N9A C11A 1_555 1_555
N10A C13A 1_555 1_555
N11A C12A 1_555 1_555
N12A C15A 1_555 1_555
N13A C32A 1_555 1_555
N14A C31A 1_555 1_555
N15A C32A 1_555 1_555
N16A C33A 1_555 1_555
N17A C35A 1_555 1_555
N18A C37A 1_555 1_555
N19A C36A 1_555 1_555
N20A C39A 1_555 1_555
N21A C41A 1_555 1_555
N22A C48 1_555 1_555
N23A C42A 1_555 1_555
N24A C47 1_555 1_555
O5A C1A 1_555 1_555
O6A Y1A 1_555 1_555
O7A C13A 1_555 1_555
O8A C4A 1_555 1_555
O9A C10A 1_555 1_555
O10A C16A 1_555 1_555
O11A C31A 1_555 1_555
O12A C37A 1_555 1_555
O12A_2 Y1A 1_555 1_555
O13A Y1A_2 1_555 1_555
O13A_2 Y1A 1_555 1_555
O14A C34A 1_555 1_555
O15A C40A 1_555 1_555
O16A C46A 1_555 1_555
C3 N2 1_555 1_555
C4 N4 1_555 1_555
C5 N2 1_555 1_555
C6 N4 1_555 1_555
C7 O6 1_555 1_555
C8 N5 1_555 1_555
C8 N7 1_555 1_555
C9 N6 1_555 1_555
C10 N8 1_555 1_555
C11 N6 1_555 1_555
C12 N8 1_555 1_555
C14 N9 1_555 1_555
C14 N11 1_555 1_555
C15 N10 1_555 1_555
C16 N12 1_555 1_555
C17 N10 1_555 1_555
C18 N12 1_555 1_555
C33 N14 1_555 1_555
C34 N16 1_555 1_555
C35 N14 1_555 1_555
C36 N16 1_555 1_555
C37 O12 1_555 1_555
C38 N17 1_555 1_555
C38 N19 1_555 1_555
C39 N18 1_555 1_555
C40 N20 1_555 1_555
C41 N18 1_555 1_555
C42 N20 1_555 1_555
C43 O13 1_555 1_555
C44 N21 1_555 1_555
C44 N23 1_555 1_555
C45 N22 1_555 1_555
C46 N24 1_555 1_555
C47 N13 1_555 1_555
C48 N15 1_555 1_555
C2A N1A 1_555 1_555
C2A N3A 1_555 1_555
C3A N2A 1_555 1_555
C4A N4A 1_555 1_555
C5A N2A 1_555 1_555
C6A N4A 1_555 1_555
C7A O6A 1_555 1_555
C8A N5A 1_555 1_555
C8A N7A 1_555 1_555
C9A N6A 1_555 1_555
C10A N8A 1_555 1_555
C11A N6A 1_555 1_555
C12A N8A 1_555 1_555
C14A N9A 1_555 1_555
C14A N11A 1_555 1_555
C15A N10A 1_555 1_555
C16A N12A 1_555 1_555
C17A N10A 1_555 1_555
C18A N12A 1_555 1_555
C33A N14A 1_555 1_555
C34A N16A 1_555 1_555
C35A N14A 1_555 1_555
C36A N16A 1_555 1_555
C38A N17A 1_555 1_555
C38A N19A 1_555 1_555
C39A N18A 1_555 1_555
C40A N20A 1_555 1_555
C41A N18A 1_555 1_555
C42A N20A 1_555 1_555
C43A N22A 1_555 1_555
C43A O13A 1_555 1_555
C44A N21A 1_555 1_555
C44A N23A 1_555 1_555
C45A N22A 1_555 1_555
C45A N24A 1_555 1_555
C46A N24A 1_555 1_555
C47A N13A 1_555 1_555
C48A N15A 1_555 1_555

#END
