
#######################################################################
#
#                 Cambridge Crystallographic Data Centre
#                                CCDC 
#
#######################################################################
#
# If this CIF has been generated from an entry in the Cambridge 
# Structural Database, then it will include bibliographic, chemical, 
# crystal, experimental, refinement or atomic coordinate data resulting 
# from the CCDC's data processing and validation procedures.
#
#######################################################################

data_TEPLUX
_symmetry_cell_setting           triclinic
_symmetry_space_group_name_H-M   'P -1'
_symmetry_Int_Tables_number      2
_space_group_name_Hall           '-P 1'
loop_
_symmetry_equiv_pos_site_id
_symmetry_equiv_pos_as_xyz
1 x,y,z
2 -x,-y,-z
_cell_length_a                   15.8719(8)
_cell_length_b                   15.9679(8)
_cell_length_c                   18.3263(9)
_cell_angle_alpha                74.450(2)
_cell_angle_beta                 88.987(2)
_cell_angle_gamma                63.323(2)
_cell_volume                     3969.77
loop_
_atom_site_label
_atom_site_type_symbol
_atom_site_fract_x
_atom_site_fract_y
_atom_site_fract_z
N25 N 0.0111(3) 0.4401(3) 0.3043(2)
O17 O 0.0484(3) 0.4491(3) 0.2448(2)
O18 O -0.0262(3) 0.3864(4) 0.3180(3)
O19 O 0.0127(3) 0.4851(3) 0.3490(2)
N26 N 0.5984(4) 0.9353(3) 0.3369(3)
O20 O 0.5383(3) 0.9958(3) 0.3684(2)
O21 O 0.6772(3) 0.8721(3) 0.3705(3)
O22 O 0.5759(4) 0.9422(4) 0.2714(3)
N27 N 0.5652(3) 0.7180(3) 0.0849(2)
O23 O 0.5472(5) 0.6710(4) 0.1419(3)
O24 O 0.5272(3) 0.8079(3) 0.0686(2)
O25 O 0.6203(4) 0.6762(4) 0.0432(3)
O1 O 0.60099(19) 0.38115(19) 0.74789(16)
O2 O 0.7426(2) 0.04521(19) 0.78771(15)
O3 O 0.55581(19) 0.2236(2) 0.76543(15)
O4 O 0.8810(2) 0.1118(2) 0.77472(18)
Sm1 Sm 0.714256(13) 0.213179(14) 0.764771(10)
C1 C 0.7998(2) 0.3324(3) 0.61019(19)
C2 C 0.8760(3) 0.3162(3) 0.5006(2)
C3 C 0.8590(3) 0.4151(3) 0.5150(2)
C4 C 0.7798(3) 0.4481(3) 0.3953(2)
C5 C 0.7888(3) 0.4841(3) 0.6275(2)
H1 H 0.7836 0.4519 0.6798
H2 H 0.8437 0.4966 0.6292
C6 C 0.7692(3) 0.5923(3) 0.4260(2)
H3 H 0.7520 0.6201 0.3706
H4 H 0.8229 0.6021 0.4393
C7 C 0.6276(3) 0.6012(3) 0.6399(2)
C8 C 0.6964(3) 0.6602(3) 0.5372(2)
C9 C 0.5946(3) 0.7434(3) 0.5391(2)
C10 C 0.6006(3) 0.7048(3) 0.4236(2)
C11 C 0.4775(3) 0.7451(3) 0.6391(2)
H5 H 0.4728 0.8081 0.6403
H6 H 0.4852 0.7056 0.6921
C12 C 0.4516(3) 0.8415(3) 0.4349(2)
H7 H 0.4456 0.8544 0.3793
H8 H 0.4486 0.8996 0.4456
C13 C 0.3437(3) 0.7090(3) 0.6313(2)
C14 C 0.3334(3) 0.8447(3) 0.5342(2)
C15 C 0.2381(3) 0.8373(3) 0.5286(2)
C16 C 0.3114(2) 0.8175(2) 0.41794(19)
C17 C 0.8119(3) 0.2866(3) 0.3859(2)
H9 H 0.7954 0.3232 0.3315
H10 H 0.8748 0.2304 0.3921
C18 C 0.8454(3) 0.1765(3) 0.5836(2)
H11 H 0.8484 0.1511 0.6390
H12 H 0.9042 0.1323 0.5679
C19 C 0.9805(3) 0.2507(3) 0.4968(2)
H13 H 1.0015 0.2820 0.4518
H14 H 0.9884 0.1880 0.4919
C20 C 1.0418(3) 0.2322(3) 0.5685(3)
H15 H 1.0326 0.1858 0.6111
H16 H 1.1088 0.2016 0.5601
C21 C 1.0193(3) 0.3251(3) 0.5906(2)
H17 H 1.0785 0.3281 0.5993
H18 H 0.9907 0.3223 0.6385
C22 C 0.9515(3) 0.4180(3) 0.5291(2)
H19 H 0.9387 0.4757 0.5455
H20 H 0.9809 0.4230 0.4817
C23 C 0.7735(3) 0.6901(3) 0.5477(2)
H21 H 0.8362 0.6339 0.5527
H22 H 0.7683 0.7424 0.5025
C24 C 0.7648(3) 0.7255(3) 0.6179(3)
H23 H 0.8127 0.7476 0.6210
H24 H 0.7775 0.6707 0.6635
C25 C 0.6654(3) 0.8100(3) 0.6162(3)
H25 H 0.6385 0.7920 0.6629
H26 H 0.6717 0.8685 0.6158
C26 C 0.5972(3) 0.8346(3) 0.5473(2)
H27 H 0.5333 0.8820 0.5528
H28 H 0.6172 0.8648 0.5010
C27 C 0.3153(3) 0.9435(3) 0.5421(2)
H29 H 0.2799 0.9950 0.4949
H30 H 0.3760 0.9437 0.5504
C28 C 0.2583(4) 0.9649(4) 0.6095(3)
H31 H 0.2994 0.9214 0.6573
H32 H 0.2401 1.0325 0.6090
C29 C 0.1691(4) 0.9517(4) 0.6084(3)
H33 H 0.1142 1.0119 0.6115
H34 H 0.1753 0.8985 0.6533
C30 C 0.1516(3) 0.9281(3) 0.5363(2)
H35 H 0.0957 0.9167 0.5389
H36 H 0.1391 0.9838 0.4914
C31 C 0.6874(2) 0.1667(3) 0.96225(19)
C32 C 0.6698(2) 0.1219(2) 1.09172(19)
C33 C 0.6655(2) 0.2262(2) 1.06801(19)
C34 C 0.7960(3) 0.1163(3) 1.1618(2)
C35 C 0.6631(2) 0.3355(3) 0.9360(2)
H37 H 0.6178 0.3899 0.9538
H38 H 0.6370 0.3441 0.8849
C36 C 0.7759(3) 0.2847(3) 1.11570(19)
H39 H 0.7175 0.3447 1.1132
H40 H 0.8131 0.2641 1.1651
C37 C 0.8087(2) 0.3136(2) 0.87659(19)
C38 C 0.7900(2) 0.3761(3) 0.9813(2)
C39 C 0.8802(2) 0.3757(2) 0.9435(2)
C40 C 0.9254(3) 0.2754(3) 1.0705(2)
C41 C 0.9471(2) 0.3250(3) 0.8233(2)
H41 H 0.9176 0.3206 0.7789
H42 H 0.9516 0.3864 0.8080
C42 C 1.0531(2) 0.2975(3) 1.0048(2)
H43 H 1.0819 0.2774 1.0574
H44 H 1.0527 0.3597 0.9782
C43 C 1.0727(2) 0.1719(3) 0.81002(19)
C44 C 1.1201(2) 0.2427(3) 0.8879(2)
C45 C 1.2075(2) 0.1451(3) 0.8830(2)
C46 C 1.1737(3) 0.1312(3) 1.0098(2)
C47 C 0.7771(3) -0.0340(3) 1.2011(2)
H45 H 0.7191 -0.0381 1.2157
H46 H 0.8138 -0.0438 1.2479
C48 C 0.6862(2) 0.0087(2) 1.0090(2)
H47 H 0.6334 0.0017 1.0335
H48 H 0.6730 0.0205 0.9542
C49 C 0.5771(3) 0.1257(3) 1.1187(2)
H49 H 0.5268 0.1624 1.0755
H50 H 0.5845 0.0589 1.1366
C50 C 0.5473(3) 0.1736(3) 1.1825(2)
H51 H 0.5850 0.1262 1.2306
H52 H 0.4804 0.1906 1.1878
C51 C 0.5597(3) 0.2658(3) 1.1693(2)
H53 H 0.5031 0.3170 1.1818
H54 H 0.6143 0.2514 1.2035
C52 C 0.5749(3) 0.3035(3) 1.0869(2)
H55 H 0.5205 0.3182 1.0523
H56 H 0.5800 0.3640 1.0800
C53 C 0.7187(3) 0.4786(3) 0.9839(2)
H57 H 0.6619 0.4766 1.0044
H58 H 0.7469 0.4993 1.0184
C54 C 0.6901(3) 0.5533(3) 0.9049(3)
H59 H 0.6558 0.6194 0.9104
H60 H 0.6468 0.5432 0.8750
C55 C 0.7756(3) 0.5458(3) 0.8616(3)
H61 H 0.7743 0.5206 0.8186
H62 H 0.7707 0.6113 0.8409
C56 C 0.8700(3) 0.4787(3) 0.9125(2)
H63 H 0.9226 0.4768 0.8830
H64 H 0.8726 0.5042 0.9550
C57 C 1.1351(3) 0.3328(3) 0.8540(2)
H65 H 1.0751 0.3921 0.8493
H66 H 1.1817 0.3326 0.8884
C58 C 1.1696(3) 0.3344(3) 0.7763(2)
H67 H 1.1787 0.3928 0.7564
H68 H 1.1210 0.3388 0.7411
C59 C 1.2634(3) 0.2427(3) 0.7791(2)
H69 H 1.2576 0.2165 0.7379
H70 H 1.3143 0.2617 0.7700
C60 C 1.2911(3) 0.1624(3) 0.8548(2)
H71 H 1.3161 0.1805 0.8933
H72 H 1.3417 0.1013 0.8487
N1 N 0.8403(2) 0.2731(2) 0.56569(17)
N2 N 0.8062(2) 0.4175(2) 0.58185(16)
N3 N 0.8166(2) 0.3495(2) 0.42851(17)
N4 N 0.7996(2) 0.4883(2) 0.44553(17)
N5 N 0.7039(2) 0.5773(2) 0.59993(17)
N6 N 0.5617(2) 0.6957(2) 0.60465(17)
N7 N 0.6897(2) 0.6457(2) 0.46289(17)
N8 N 0.5437(2) 0.7594(2) 0.46686(17)
N9 N 0.3886(2) 0.7633(2) 0.60092(17)
N10 N 0.7429(2) 0.2508(2) 0.40969(17)
N11 N 0.3713(2) 0.8279(2) 0.46325(16)
N12 N 0.7656(2) 0.1757(2) 0.54703(16)
N13 N 0.6898(2) 0.0934(2) 1.02117(16)
N14 N 0.6717(2) 0.2448(2) 0.98648(16)
N15 N 0.7505(2) 0.0643(2) 1.15117(16)
N16 N 0.7508(2) 0.2086(2) 1.11172(17)
N17 N 0.7521(2) 0.3412(2) 0.93047(16)
N18 N 0.8851(2) 0.3291(2) 0.88361(16)
N19 N 0.8294(2) 0.3063(2) 1.05589(16)
N20 N 0.9559(2) 0.3131(2) 1.00592(17)
N21 N 1.0421(2) 0.2442(2) 0.84404(16)
N22 N 0.8322(2) -0.1129(2) 1.16880(17)
N23 N 1.1114(2) 0.2244(2) 0.96809(17)
N24 N 0.7727(2) -0.0825(2) 1.03838(16)
O5 O 0.76470(19) 0.31277(19) 0.66891(14)
O6 O 0.6203(2) 0.5485(2) 0.69954(15)
O7 O 0.3742(2) 0.6382(2) 0.68835(15)
O8 O 0.7364(2) 0.4933(2) 0.33152(15)
O9 O 0.5777(2) 0.7070(2) 0.35895(15)
O10 O 0.32510(18) 0.80592(19) 0.35416(13)
O11 O 0.69642(18) 0.16377(19) 0.89558(13)
O12 O 0.79263(18) 0.2811(2) 0.82724(14)
O13 O 1.02373(18) 0.16190(19) 0.76482(15)
O14 O 0.8640(2) 0.0857(2) 1.20862(16)
O15 O 0.9731(2) 0.2251(2) 1.13158(15)
O16 O 1.1794(2) 0.0983(2) 1.07909(15)
O1A O 0.39901(19) 0.61885(19) 0.25211(16)
O2A O 0.2574(2) 0.95479(19) 0.21229(15)
O3A O 0.44419(19) 0.7764(2) 0.23457(15)
O4A O 0.1190(2) 0.8882(2) 0.22528(18)
Sm1A Sm 0.285744(13) 0.786821(14) 0.235229(10)
Sm1A_2 Sm 1.285744(13) -0.213179(14) 1.235229(10)
C1A C 0.2002(2) 0.6676(3) 0.38981(19)
C2A C 0.1240(3) 0.6838(3) 0.4994(2)
C3A C 0.1410(3) 0.5849(3) 0.4850(2)
C4A C 0.2202(3) 0.5519(3) 0.6047(2)
C5A C 0.2112(3) 0.5159(3) 0.3725(2)
H1A H 0.2164 0.5481 0.3202
H2A H 0.1563 0.5034 0.3708
C6A C 0.2308(3) 0.4077(3) 0.5740(2)
H3A H 0.2480 0.3799 0.6294
H4A H 0.1771 0.3979 0.5607
C7A C 0.3724(3) 0.3988(3) 0.3601(2)
C8A C 0.3036(3) 0.3398(3) 0.4628(2)
C9A C 0.4054(3) 0.2566(3) 0.4609(2)
C10A C 0.3994(3) 0.2952(3) 0.5764(2)
C11A C 0.5225(3) 0.2549(3) 0.3609(2)
H5A H 0.5272 0.1919 0.3597
H6A H 0.5148 0.2944 0.3079
C12A C 0.5484(3) 0.1585(3) 0.5651(2)
H7A H 0.5544 0.1456 0.6207
H8A H 0.5514 0.1004 0.5544
C13A C 0.6563(3) 0.2910(3) 0.3687(2)
C14A C 0.6666(3) 0.1553(3) 0.4658(2)
C15A C 0.7619(3) 0.1627(3) 0.4714(2)
C16A C 0.6886(2) 0.1825(2) 0.58206(19)
C17A C 0.1881(3) 0.7134(3) 0.6141(2)
H9A H 0.2046 0.6768 0.6685
H10A H 0.1252 0.7696 0.6079
C18A C 0.1546(3) 0.8235(3) 0.4164(2)
H11A H 0.1516 0.8489 0.3610
H12A H 0.0958 0.8677 0.4321
C19A C 0.0195(3) 0.7493(3) 0.5032(2)
H13A H -0.0015 0.7180 0.5482
H14A H 0.0116 0.8120 0.5081
C20A C -0.0418(3) 0.7678(3) 0.4315(3)
H15A H -0.0326 0.8142 0.3889
H16A H -0.1088 0.7984 0.4399
C21A C -0.0193(3) 0.6749(3) 0.4094(2)
H17A H -0.0785 0.6719 0.4007
H18A H 0.0093 0.6777 0.3615
C22A C 0.0485(3) 0.5820(3) 0.4709(2)
H19A H 0.0613 0.5243 0.4545
H20A H 0.0191 0.5770 0.5183
C23A C 0.2265(3) 0.3099(3) 0.4523(2)
H21A H 0.1638 0.3661 0.4473
H22A H 0.2317 0.2576 0.4975
C24A C 0.2352(3) 0.2745(3) 0.3821(3)
H23A H 0.1873 0.2524 0.3790
H24A H 0.2225 0.3293 0.3365
C25A C 0.3346(3) 0.1900(3) 0.3838(3)
H25A H 0.3615 0.2080 0.3371
H26A H 0.3283 0.1315 0.3842
C26A C 0.4028(3) 0.1654(3) 0.4527(2)
H27A H 0.4667 0.1180 0.4472
H28A H 0.3828 0.1352 0.4990
C27A C 0.6847(3) 0.0565(3) 0.4579(2)
H29A H 0.7201 0.0050 0.5051
H30A H 0.6240 0.0563 0.4496
C28A C 0.7417(4) 0.0351(4) 0.3905(3)
H31A H 0.7006 0.0786 0.3427
H32A H 0.7599 -0.0325 0.3910
C29A C 0.8309(4) 0.0483(4) 0.3916(3)
H33A H 0.8858 -0.0119 0.3885
H34A H 0.8247 0.1015 0.3467
C30A C 0.8484(3) 0.0719(3) 0.4637(2)
H35A H 0.9043 0.0833 0.4611
H36A H 0.8609 0.0162 0.5086
C31A C 1.3126(2) -0.1667(3) 1.03775(19)
C32A C 1.3302(2) -0.1219(2) 0.90828(19)
C33A C 1.3345(2) -0.2262(2) 0.93199(19)
C34A C 1.2040(3) -0.1163(3) 0.8382(2)
C35A C 1.3369(2) -0.3355(3) 1.0640(2)
H37A H 1.3822 -0.3899 1.0462
H38A H 1.3630 -0.3441 1.1151
C36A C 1.2241(3) -0.2847(3) 0.88430(19)
H39A H 1.2825 -0.3447 0.8868
H40A H 1.1869 -0.2641 0.8349
C37A C 1.1913(2) -0.3136(2) 1.12341(19)
C38A C 1.2100(2) -0.3761(3) 1.0187(2)
C39A C 1.1198(2) -0.3757(2) 1.0565(2)
C40A C 1.0746(3) -0.2754(3) 0.9295(2)
C41A C 1.0529(2) -0.3250(3) 1.1767(2)
H41A H 1.0824 -0.3206 1.2211
H42A H 1.0484 -0.3864 1.1920
C42A C 0.9469(2) -0.2975(3) 0.9952(2)
H43A H 0.9181 -0.2774 0.9426
H44A H 0.9473 -0.3597 1.0218
C43A C 0.9273(2) -0.1719(3) 1.18998(19)
C44A C 0.8799(2) -0.2427(3) 1.1121(2)
C45A C 0.7925(2) -0.1451(3) 1.1170(2)
C46A C 0.8263(3) -0.1312(3) 0.9902(2)
C47A C 1.2229(3) 0.0340(3) 0.7989(2)
H45A H 1.2809 0.0381 0.7843
H46A H 1.1862 0.0438 0.7521
C48A C 1.3138(2) -0.0087(2) 0.9910(2)
H47A H 1.3666 -0.0017 0.9665
H48A H 1.3270 -0.0205 1.0458
C49A C 1.4229(3) -0.1257(3) 0.8813(2)
H49A H 1.4732 -0.1624 0.9245
H50A H 1.4155 -0.0589 0.8634
C50A C 1.4527(3) -0.1736(3) 0.8175(2)
H51A H 1.4150 -0.1262 0.7694
H52A H 1.5196 -0.1906 0.8122
C51A C 1.4403(3) -0.2658(3) 0.8307(2)
H53A H 1.4969 -0.3170 0.8182
H54A H 1.3857 -0.2514 0.7965
C52A C 1.4251(3) -0.3035(3) 0.9131(2)
H55A H 1.4795 -0.3182 0.9477
H56A H 1.4200 -0.3640 0.9200
C53A C 1.2813(3) -0.4786(3) 1.0161(2)
H57A H 1.3381 -0.4766 0.9956
H58A H 1.2531 -0.4993 0.9816
C54A C 1.3099(3) -0.5533(3) 1.0951(3)
H59A H 1.3442 -0.6194 1.0896
H60A H 1.3532 -0.5432 1.1250
C55A C 1.2244(3) -0.5458(3) 1.1384(3)
H61A H 1.2257 -0.5206 1.1814
H62A H 1.2293 -0.6113 1.1591
C56A C 1.1300(3) -0.4787(3) 1.0875(2)
H63A H 1.0774 -0.4768 1.1170
H64A H 1.1274 -0.5042 1.0450
C57A C 0.8649(3) -0.3328(3) 1.1460(2)
H65A H 0.9249 -0.3921 1.1507
H66A H 0.8183 -0.3326 1.1116
C58A C 0.8304(3) -0.3344(3) 1.2237(2)
H67A H 0.8213 -0.3928 1.2436
H68A H 0.8790 -0.3388 1.2589
C59A C 0.7366(3) -0.2427(3) 1.2209(2)
H69A H 0.7424 -0.2165 1.2621
H70A H 0.6857 -0.2617 1.2300
C60A C 0.7089(3) -0.1624(3) 1.1452(2)
H71A H 0.6839 -0.1805 1.1067
H72A H 0.6583 -0.1013 1.1513
N1A N 0.1597(2) 0.7269(2) 0.43431(17)
N2A N 0.1938(2) 0.5825(2) 0.41815(16)
N3A N 0.1834(2) 0.6505(2) 0.57149(17)
N4A N 0.2004(2) 0.5117(2) 0.55447(17)
N5A N 0.2961(2) 0.4227(2) 0.40007(17)
N6A N 0.4383(2) 0.3043(2) 0.39535(17)
N7A N 0.3103(2) 0.3543(2) 0.53711(17)
N8A N 0.4563(2) 0.2406(2) 0.53314(17)
N9A N 0.6114(2) 0.2367(2) 0.39908(17)
N10A N 0.2571(2) 0.7492(2) 0.59031(17)
N11A N 0.6287(2) 0.1721(2) 0.53675(16)
N12A N 0.2344(2) 0.8243(2) 0.45297(16)
N13A N 1.3102(2) -0.0934(2) 0.97883(16)
N14A N 1.3283(2) -0.2448(2) 1.01352(16)
N15A N 1.2495(2) -0.0643(2) 0.84883(16)
N16A N 1.2492(2) -0.2086(2) 0.88828(17)
N17A N 1.2479(2) -0.3412(2) 1.06953(16)
N18A N 1.1149(2) -0.3291(2) 1.11639(16)
N19A N 1.1706(2) -0.3063(2) 0.94411(16)
N20A N 1.0441(2) -0.3131(2) 0.99408(17)
N21A N 0.9579(2) -0.2442(2) 1.15596(16)
N22A N 1.1678(2) 0.1129(2) 0.83120(17)
N23A N 0.8886(2) -0.2244(2) 1.03191(17)
N24A N 1.2273(2) 0.0825(2) 0.96162(16)
O5A O 0.23530(19) 0.68723(19) 0.33109(14)
O6A O 0.3797(2) 0.4515(2) 0.30046(15)
O7A O 0.6258(2) 0.3618(2) 0.31165(15)
O8A O 0.2636(2) 0.5067(2) 0.66848(15)
O9A O 0.4223(2) 0.2930(2) 0.64105(15)
O10A O 0.67490(18) 0.19408(19) 0.64584(13)
O11A O 1.30358(18) -0.16377(19) 1.10442(13)
O11A_2 O 0.30358(18) 0.83623(19) 0.10442(13)
O12A O 1.20737(18) -0.2811(2) 1.17276(14)
O12A_2 O 0.20737(18) 0.7189(2) 0.17276(14)
O13A O 0.97627(18) -0.16190(19) 1.23518(15)
O14A O 1.1360(2) -0.0857(2) 0.79138(16)
O15A O 1.0269(2) -0.2251(2) 0.86842(15)
O16A O 0.8206(2) -0.0983(2) 0.92091(15)
loop_
_geom_bond_atom_site_label_1
_geom_bond_atom_site_label_2
_geom_bond_site_symmetry_1
_geom_bond_site_symmetry_2
O1 Sm1 1_555 1_555
O2 Sm1 1_555 1_555
O3 Sm1 1_555 1_555
O4 Sm1 1_555 1_555
Sm1 O5 1_555 1_555
C1 N1 1_555 1_555
C2 C3 1_555 1_555
C3 C22 1_555 1_555
C4 N3 1_555 1_555
C5 H1 1_555 1_555
H2 C5 1_555 1_555
C6 H3 1_555 1_555
H4 C6 1_555 1_555
C7 N5 1_555 1_555
C8 C9 1_555 1_555
C9 C26 1_555 1_555
C10 N7 1_555 1_555
C11 H5 1_555 1_555
H6 C11 1_555 1_555
C12 H7 1_555 1_555
H8 C12 1_555 1_555
C13 N9 1_555 1_555
C14 C15 1_555 1_555
C15 C30 1_555 1_555
C16 N11 1_555 1_555
C17 H9 1_555 1_555
H10 C17 1_555 1_555
C18 H11 1_555 1_555
H12 C18 1_555 1_555
C19 C2 1_555 1_555
H13 C19 1_555 1_555
H14 C19 1_555 1_555
C20 C19 1_555 1_555
H15 C20 1_555 1_555
H16 C20 1_555 1_555
C21 C20 1_555 1_555
H17 C21 1_555 1_555
H18 C21 1_555 1_555
C22 C21 1_555 1_555
H19 C22 1_555 1_555
H20 C22 1_555 1_555
C23 C8 1_555 1_555
H21 C23 1_555 1_555
H22 C23 1_555 1_555
C24 C23 1_555 1_555
H23 C24 1_555 1_555
H24 C24 1_555 1_555
C25 C24 1_555 1_555
H25 C25 1_555 1_555
H26 C25 1_555 1_555
C26 C25 1_555 1_555
H27 C26 1_555 1_555
H28 C26 1_555 1_555
C27 C14 1_555 1_555
H29 C27 1_555 1_555
H30 C27 1_555 1_555
C28 C27 1_555 1_555
H31 C28 1_555 1_555
H32 C28 1_555 1_555
C29 C28 1_555 1_555
H33 C29 1_555 1_555
H34 C29 1_555 1_555
C30 C29 1_555 1_555
H35 C30 1_555 1_555
H36 C30 1_555 1_555
C31 N13 1_555 1_555
C32 C33 1_555 1_555
C33 C52 1_555 1_555
C34 N15 1_555 1_555
C35 H37 1_555 1_555
H38 C35 1_555 1_555
C36 H39 1_555 1_555
H40 C36 1_555 1_555
C37 N17 1_555 1_555
C38 C39 1_555 1_555
C39 C56 1_555 1_555
C40 N19 1_555 1_555
C41 H41 1_555 1_555
H42 C41 1_555 1_555
C42 H43 1_555 1_555
H44 C42 1_555 1_555
C43 N21 1_555 1_555
C44 C45 1_555 1_555
C45 C60 1_555 1_555
C46 N23 1_555 1_555
C47 H45 1_555 1_555
H46 C47 1_555 1_555
C48 H47 1_555 1_555
H48 C48 1_555 1_555
C49 C32 1_555 1_555
H49 C49 1_555 1_555
H50 C49 1_555 1_555
C50 C49 1_555 1_555
H51 C50 1_555 1_555
H52 C50 1_555 1_555
C51 C50 1_555 1_555
H53 C51 1_555 1_555
H54 C51 1_555 1_555
C52 C51 1_555 1_555
H55 C52 1_555 1_555
H56 C52 1_555 1_555
C53 C38 1_555 1_555
H57 C53 1_555 1_555
H58 C53 1_555 1_555
C54 C53 1_555 1_555
H59 C54 1_555 1_555
H60 C54 1_555 1_555
C55 C54 1_555 1_555
H61 C55 1_555 1_555
H62 C55 1_555 1_555
C56 C55 1_555 1_555
H63 C56 1_555 1_555
H64 C56 1_555 1_555
C57 C44 1_555 1_555
H65 C57 1_555 1_555
H66 C57 1_555 1_555
C58 C57 1_555 1_555
H67 C58 1_555 1_555
H68 C58 1_555 1_555
C59 C58 1_555 1_555
H69 C59 1_555 1_555
H70 C59 1_555 1_555
C60 C59 1_555 1_555
H71 C60 1_555 1_555
H72 C60 1_555 1_555
N1 C2 1_555 1_555
N2 C1 1_555 1_555
N3 C2 1_555 1_555
N4 C3 1_555 1_555
N5 C5 1_555 1_555
N6 C7 1_555 1_555
N7 C6 1_555 1_555
N8 C9 1_555 1_555
N9 C11 1_555 1_555
N10 C17 1_555 1_555
N11 C12 1_555 1_555
N12 C18 1_555 1_555
N13 C32 1_555 1_555
N14 C31 1_555 1_555
N15 C32 1_555 1_555
N16 C33 1_555 1_555
N17 C35 1_555 1_555
N18 C37 1_555 1_555
N19 C36 1_555 1_555
N20 C39 1_555 1_555
N21 C41 1_555 1_555
N22 C47 1_555 1_555
N23 C42 1_555 1_555
N24 C48 1_555 1_555
O5 C1 1_555 1_555
O6 C7 1_555 1_555
O7 C13 1_555 1_555
O8 C4 1_555 1_555
O9 C10 1_555 1_555
O10 C16 1_555 1_555
O11 Sm1 1_555 1_555
O12 Sm1 1_555 1_555
O13 C43 1_555 1_555
O14 C34 1_555 1_555
O15 C40 1_555 1_555
O16 C46 1_555 1_555
N25 O17 1_555 1_555
N26 O20 1_555 1_555
N27 O23 1_555 1_555
O18 N25 1_555 1_555
O19 N25 1_555 1_555
O21 N26 1_555 1_555
O22 N26 1_555 1_555
O24 N27 1_555 1_555
O25 N27 1_555 1_555
O1A Sm1A 1_555 1_555
O2A Sm1A 1_555 1_555
O3A Sm1A 1_555 1_555
O4A Sm1A 1_555 1_555
Sm1A O10 1_555 1_555
Sm1A_2 O11A 1_555 1_555
C1A N1A 1_555 1_555
C2A C3A 1_555 1_555
C3A C22A 1_555 1_555
C4A N3A 1_555 1_555
C5A H1A 1_555 1_555
H2A C5A 1_555 1_555
C6A H3A 1_555 1_555
H4A C6A 1_555 1_555
C7A N5A 1_555 1_555
C8A C9A 1_555 1_555
C9A C26A 1_555 1_555
C10A N7A 1_555 1_555
C11A H5A 1_555 1_555
H6A C11A 1_555 1_555
C12A H7A 1_555 1_555
H8A C12A 1_555 1_555
C13A N10 1_555 1_555
C14A C15A 1_555 1_555
C15A N10 1_555 1_555
C16A N12 1_555 1_555
C17A H9A 1_555 1_555
H10A C17A 1_555 1_555
C18A H11A 1_555 1_555
H12A C18A 1_555 1_555
C19A C2A 1_555 1_555
H13A C19A 1_555 1_555
H14A C19A 1_555 1_555
C20A C19A 1_555 1_555
H15A C20A 1_555 1_555
H16A C20A 1_555 1_555
C21A C20A 1_555 1_555
H17A C21A 1_555 1_555
H18A C21A 1_555 1_555
C22A C21A 1_555 1_555
H19A C22A 1_555 1_555
H20A C22A 1_555 1_555
C23A C8A 1_555 1_555
H21A C23A 1_555 1_555
H22A C23A 1_555 1_555
C24A C23A 1_555 1_555
H23A C24A 1_555 1_555
H24A C24A 1_555 1_555
C25A C24A 1_555 1_555
H25A C25A 1_555 1_555
H26A C25A 1_555 1_555
C26A C25A 1_555 1_555
H27A C26A 1_555 1_555
H28A C26A 1_555 1_555
C27A C14A 1_555 1_555
H29A C27A 1_555 1_555
H30A C27A 1_555 1_555
C28A C27A 1_555 1_555
H31A C28A 1_555 1_555
H32A C28A 1_555 1_555
C29A C28A 1_555 1_555
H33A C29A 1_555 1_555
H34A C29A 1_555 1_555
C30A C15A 1_555 1_555
H35A C30A 1_555 1_555
H36A C30A 1_555 1_555
C31A N13A 1_555 1_555
C32A C33A 1_555 1_555
C33A C52A 1_555 1_555
C34A N15A 1_555 1_555
C35A H37A 1_555 1_555
H38A C35A 1_555 1_555
C36A H39A 1_555 1_555
H40A C36A 1_555 1_555
C37A N17A 1_555 1_555
C38A C39A 1_555 1_555
C39A C56A 1_555 1_555
C40A N19A 1_555 1_555
C41A H41A 1_555 1_555
H42A C41A 1_555 1_555
C42A H43A 1_555 1_555
H44A C42A 1_555 1_555
C43A N22 1_555 1_555
C44A C45A 1_555 1_555
C45A N22 1_555 1_555
C46A N24 1_555 1_555
C47A H45A 1_555 1_555
H46A C47A 1_555 1_555
C48A H47A 1_555 1_555
H48A C48A 1_555 1_555
C49A C32A 1_555 1_555
H49A C49A 1_555 1_555
H50A C49A 1_555 1_555
C50A C49A 1_555 1_555
H51A C50A 1_555 1_555
H52A C50A 1_555 1_555
C51A C50A 1_555 1_555
H53A C51A 1_555 1_555
H54A C51A 1_555 1_555
C52A C51A 1_555 1_555
H55A C52A 1_555 1_555
H56A C52A 1_555 1_555
C53A C38A 1_555 1_555
H57A C53A 1_555 1_555
H58A C53A 1_555 1_555
C54A C53A 1_555 1_555
H59A C54A 1_555 1_555
H60A C54A 1_555 1_555
C55A C54A 1_555 1_555
H61A C55A 1_555 1_555
H62A C55A 1_555 1_555
C56A C55A 1_555 1_555
H63A C56A 1_555 1_555
H64A C56A 1_555 1_555
C57A C44A 1_555 1_555
H65A C57A 1_555 1_555
H66A C57A 1_555 1_555
C58A C57A 1_555 1_555
H67A C58A 1_555 1_555
H68A C58A 1_555 1_555
C59A C58A 1_555 1_555
H69A C59A 1_555 1_555
H70A C59A 1_555 1_555
C60A C45A 1_555 1_555
H71A C60A 1_555 1_555
H72A C60A 1_555 1_555
N1A C2A 1_555 1_555
N2A C1A 1_555 1_555
N3A C2A 1_555 1_555
N4A C3A 1_555 1_555
N5A C5A 1_555 1_555
N6A C7A 1_555 1_555
N7A C6A 1_555 1_555
N8A C9A 1_555 1_555
N9A C11A 1_555 1_555
N10A C13 1_555 1_555
N11A C12A 1_555 1_555
N12A C15 1_555 1_555
N13A C32A 1_555 1_555
N14A C31A 1_555 1_555
N15A C32A 1_555 1_555
N16A C33A 1_555 1_555
N17A C35A 1_555 1_555
N18A C37A 1_555 1_555
N19A C36A 1_555 1_555
N20A C39A 1_555 1_555
N21A C41A 1_555 1_555
N22A C43 1_555 1_555
N23A C42A 1_555 1_555
N24A C45 1_555 1_555
O5A Sm1A 1_555 1_555
O6A C7A 1_555 1_555
O7A C13A 1_555 1_555
O8A C4A 1_555 1_555
O9A C10A 1_555 1_555
O10A Sm1 1_555 1_555
O11A C31A 1_555 1_555
O11A_2 Sm1A 1_555 1_555
O12A Sm1A_2 1_555 1_555
O12A_2 Sm1A 1_555 1_555
O13A C43A 1_555 1_555
O14A C34A 1_555 1_555
O15A C40A 1_555 1_555
O16A C46A 1_555 1_555
C3 N2 1_555 1_555
C4 N4 1_555 1_555
C5 N2 1_555 1_555
C6 N4 1_555 1_555
C8 N5 1_555 1_555
C8 N7 1_555 1_555
C9 N6 1_555 1_555
C10 N8 1_555 1_555
C11 N6 1_555 1_555
C12 N8 1_555 1_555
C14 N9 1_555 1_555
C14 N11 1_555 1_555
C15 N10A 1_555 1_555
C16 N12A 1_555 1_555
C17 N3 1_555 1_555
C18 N1 1_555 1_555
C31 O11 1_555 1_555
C33 N14 1_555 1_555
C34 N16 1_555 1_555
C35 N14 1_555 1_555
C36 N16 1_555 1_555
C37 O12 1_555 1_555
C38 N17 1_555 1_555
C38 N19 1_555 1_555
C39 N18 1_555 1_555
C40 N20 1_555 1_555
C41 N18 1_555 1_555
C42 N20 1_555 1_555
C44 N21 1_555 1_555
C44 N23 1_555 1_555
C45 N22A 1_555 1_555
C46 N24A 1_555 1_555
C47 N15 1_555 1_555
C48 N13 1_555 1_555
N12 C15A 1_555 1_555
N24 C45A 1_555 1_555
C1A O5A 1_555 1_555
C3A N2A 1_555 1_555
C4A N4A 1_555 1_555
C5A N2A 1_555 1_555
C6A N4A 1_555 1_555
C8A N5A 1_555 1_555
C8A N7A 1_555 1_555
C9A N6A 1_555 1_555
C10A N8A 1_555 1_555
C11A N6A 1_555 1_555
C12A N8A 1_555 1_555
C13A N9A 1_555 1_555
C14A N9A 1_555 1_555
C14A N11A 1_555 1_555
C16A N11A 1_555 1_555
C16A O10A 1_555 1_555
C17A N3A 1_555 1_555
C17A N10A 1_555 1_555
C18A N1A 1_555 1_555
C18A N12A 1_555 1_555
C29A C30A 1_555 1_555
C33A N14A 1_555 1_555
C34A N16A 1_555 1_555
C35A N14A 1_555 1_555
C36A N16A 1_555 1_555
C37A O12A 1_555 1_555
C38A N17A 1_555 1_555
C38A N19A 1_555 1_555
C39A N18A 1_555 1_555
C40A N20A 1_555 1_555
C41A N18A 1_555 1_555
C42A N20A 1_555 1_555
C43A N21A 1_555 1_555
C44A N21A 1_555 1_555
C44A N23A 1_555 1_555
C46A N23A 1_555 1_555
C47A N15A 1_555 1_555
C47A N22A 1_555 1_555
C48A N13A 1_555 1_555
C48A N24A 1_555 1_555
C59A C60A 1_555 1_555

#END
