
#######################################################################
#
#                 Cambridge Crystallographic Data Centre
#                                CCDC 
#
#######################################################################
#
# If this CIF has been generated from an entry in the Cambridge 
# Structural Database, then it will include bibliographic, chemical, 
# crystal, experimental, refinement or atomic coordinate data resulting 
# from the CCDC's data processing and validation procedures.
#
#######################################################################

data_TEPLEH
_symmetry_cell_setting           triclinic
_symmetry_space_group_name_H-M   'P -1'
_symmetry_Int_Tables_number      2
_space_group_name_Hall           '-P 1'
loop_
_symmetry_equiv_pos_site_id
_symmetry_equiv_pos_as_xyz
1 x,y,z
2 -x,-y,-z
_cell_length_a                   15.9051(13)
_cell_length_b                   15.9844(13)
_cell_length_c                   18.1694(15)
_cell_angle_alpha                74.805(3)
_cell_angle_beta                 89.245(3)
_cell_angle_gamma                63.414(2)
_cell_volume                     3957.3
loop_
_atom_site_label
_atom_site_type_symbol
_atom_site_fract_x
_atom_site_fract_y
_atom_site_fract_z
N25 N 0.4909(3) 0.5554(3) 0.1966(2)
O17 O 0.4542(3) 0.5481(3) 0.2564(2)
O18 O 0.4901(3) 0.5088(3) 0.1518(2)
O19 O 0.5278(3) 0.6097(4) 0.1802(3)
N26 N 0.9337(3) 0.2813(3) 0.4138(3)
O20 O 0.9730(3) 0.1920(3) 0.4299(3)
O21 O 0.9544(5) 0.3296(4) 0.3589(3)
O22 O 0.8748(4) 0.3233(4) 0.4539(3)
N27 N 0.9062(5) 0.0633(4) 0.1672(3)
O23 O 0.9666(3) 0.0030(3) 0.1325(2)
O24 O 0.8265(4) 0.1294(4) 0.1319(3)
O25 O 0.9239(5) 0.0546(4) 0.2322(3)
O1 O 0.2416(2) 0.0524(2) 0.28516(16)
O2 O 0.1057(2) 0.3787(2) 0.24602(17)
O3 O 0.0605(2) 0.2256(2) 0.26606(17)
O4 O 0.3755(2) 0.1181(2) 0.27341(18)
Er1 Er 0.214665(12) 0.215979(12) 0.263465(9)
C1 C 0.1892(3) 0.1680(3) 0.4594(2)
C2 C 0.1702(3) 0.1232(3) 0.5896(2)
C3 C 0.1652(3) 0.2273(3) 0.5666(2)
C4 C 0.2964(3) 0.1185(3) 0.6605(2)
C5 C 0.1630(3) 0.3374(3) 0.4339(2)
H1 H 0.1173 0.3915 0.4517
H2 H 0.1376 0.3456 0.3822
C6 C 0.2736(3) 0.2880(3) 0.6161(2)
H3 H 0.2149 0.3477 0.6129
H4 H 0.3097 0.2684 0.6663
C7 C 0.3086(3) 0.3149(3) 0.3752(2)
C8 C 0.2891(3) 0.3787(3) 0.4804(2)
C9 C 0.3804(3) 0.3768(3) 0.4439(2)
C10 C 0.4237(3) 0.2783(3) 0.5724(2)
C11 C 0.4476(3) 0.3256(3) 0.3231(2)
H5 H 0.4531 0.3863 0.3085
H6 H 0.4184 0.3218 0.2777
C12 C 0.5527(3) 0.2972(3) 0.5079(2)
H7 H 0.5807 0.2770 0.5612
H8 H 0.5534 0.3588 0.4817
C13 C 0.5722(3) 0.1705(3) 0.3107(2)
C14 C 0.6197(3) 0.2421(3) 0.3896(2)
C15 C 0.7067(3) 0.1432(3) 0.3856(2)
C16 C 0.6721(3) 0.1299(3) 0.5131(2)
C17 C 0.1882(3) 0.0104(3) 0.5048(2)
H9 H 0.1763 0.0221 0.4494
H10 H 0.1348 0.0038 0.5282
C18 C 0.2787(3) -0.0318(3) 0.6997(2)
H11 H 0.3159 -0.0414 0.7465
H12 H 0.2211 -0.0361 0.7148
C19 C 0.0785(3) 0.1251(3) 0.6160(2)
H13 H 0.0869 0.0582 0.6337
H14 H 0.0284 0.1612 0.5724
C20 C 0.0478(3) 0.1731(3) 0.6813(3)
H15 H -0.0186 0.1890 0.6866
H16 H 0.0858 0.1263 0.7296
C21 C 0.0586(3) 0.2665(3) 0.6680(2)
H17 H 0.0016 0.3172 0.6803
H18 H 0.1125 0.2533 0.7028
C22 C 0.0741(3) 0.3041(3) 0.5851(2)
H19 H 0.0203 0.3178 0.5499
H20 H 0.0784 0.3648 0.5783
C23 C 0.2187(3) 0.4807(3) 0.4832(3)
H21 H 0.2468 0.5013 0.5183
H22 H 0.1616 0.4795 0.5030
C24 C 0.1919(3) 0.5546(3) 0.4028(3)
H23 H 0.1497 0.5438 0.3718
H24 H 0.1570 0.6208 0.4077
C25 C 0.2782(3) 0.5465(3) 0.3612(3)
H25 H 0.2740 0.6116 0.3414
H26 H 0.2774 0.5221 0.3172
C26 C 0.3719(3) 0.4787(3) 0.4129(2)
H27 H 0.4248 0.4758 0.3836
H28 H 0.3749 0.5043 0.4558
C27 C 0.6370(3) 0.3301(3) 0.3572(2)
H29 H 0.6843 0.3283 0.3924
H30 H 0.5781 0.3901 0.3526
C28 C 0.6718(3) 0.3309(3) 0.2784(3)
H31 H 0.6819 0.3885 0.2586
H32 H 0.6230 0.3357 0.2428
C29 C 0.7641(3) 0.2392(3) 0.2814(3)
H33 H 0.8155 0.2572 0.2723
H34 H 0.7577 0.2128 0.2400
C30 C 0.7908(3) 0.1595(3) 0.3581(2)
H35 H 0.8412 0.0983 0.3524
H36 H 0.8156 0.1779 0.3969
C31 C 0.1861(3) 0.1845(3) 0.0829(2)
C32 C 0.1619(3) 0.1558(3) -0.0329(2)
C33 C 0.2577(3) 0.1613(3) -0.0281(2)
C34 C 0.1530(3) 0.2890(3) -0.1321(2)
C35 C 0.3448(3) 0.1745(3) 0.0835(2)
H37 H 0.3489 0.1493 0.1393
H38 H 0.4025 0.1300 0.0669
C36 C 0.3092(3) 0.2822(3) -0.1150(2)
H39 H 0.2924 0.3180 -0.1698
H40 H 0.3713 0.2253 -0.1090
C37 C 0.3012(3) 0.3305(3) 0.1103(2)
C38 C 0.3762(3) 0.3124(3) -0.0001(2)
C39 C 0.3602(3) 0.4116(3) 0.0136(2)
C40 C 0.2801(3) 0.4437(3) -0.1061(2)
C41 C 0.2915(3) 0.4811(3) 0.1270(2)
H41 H 0.3465 0.4933 0.1287
H42 H 0.2861 0.4498 0.1798
C42 C 0.2725(3) 0.5871(3) -0.0765(2)
H43 H 0.2557 0.6141 -0.1323
H44 H 0.3267 0.5961 -0.0630
C43 C 0.1308(3) 0.5996(3) 0.1394(2)
C44 C 0.2004(3) 0.6569(3) 0.0355(2)
C45 C 0.0987(3) 0.7406(3) 0.0375(2)
C46 C 0.1038(3) 0.7005(3) -0.0792(2)
C47 C 0.0448(3) 0.1625(3) 0.0681(2)
H45 H 0.0511 0.1517 0.1239
H46 H 0.0476 0.1037 0.0588
C48 C 0.0172(3) 0.2551(3) -0.1390(2)
H47 H 0.0091 0.2939 -0.1925
H48 H 0.0207 0.1925 -0.1398
C49 C 0.1775(3) 0.0561(3) -0.0388(3)
H49 H 0.1162 0.0569 -0.0459
H50 H 0.2128 0.0057 0.0090
C50 C 0.2327(4) 0.0313(4) -0.1064(3)
H51 H 0.2521 -0.0372 -0.1030
H52 H 0.1906 0.0716 -0.1545
C51 C 0.3202(4) 0.0472(4) -0.1092(3)
H53 H 0.3103 0.1018 -0.1542
H54 H 0.3745 -0.0113 -0.1152
C52 C 0.3430(3) 0.0692(3) -0.0368(3)
H55 H 0.3993 0.0796 -0.0411
H56 H 0.3561 0.0139 0.0085
C53 C 0.4810(3) 0.2460(3) -0.0046(2)
H57 H 0.5016 0.2771 -0.0501
H58 H 0.4882 0.1837 -0.0099
C54 C 0.5438(3) 0.2268(3) 0.0677(3)
H59 H 0.5344 0.1813 0.1109
H60 H 0.6104 0.1959 0.0590
C55 C 0.5218(3) 0.3205(3) 0.0891(3)
H61 H 0.4942 0.3183 0.1377
H62 H 0.5810 0.3237 0.0969
C56 C 0.4535(3) 0.4126(3) 0.0277(2)
H63 H 0.4418 0.4701 0.0442
H64 H 0.4822 0.4172 -0.0203
C57 C 0.2783(3) 0.6850(3) 0.0466(3)
H65 H 0.2745 0.7360 0.0009
H66 H 0.3402 0.6280 0.0525
C58 C 0.2697(3) 0.7221(3) 0.1172(3)
H67 H 0.3179 0.7439 0.1202
H68 H 0.2820 0.6683 0.1635
C59 C 0.1711(3) 0.8072(4) 0.1151(3)
H69 H 0.1440 0.7902 0.1620
H70 H 0.1781 0.8652 0.1145
C60 C 0.1024(3) 0.8316(3) 0.0448(3)
H71 H 0.0389 0.8798 0.0498
H72 H 0.1230 0.8604 -0.0018
N1 N 0.1917(2) 0.0946(2) 0.51826(17)
N2 N 0.1717(2) 0.2464(2) 0.48454(18)
N3 N 0.2515(2) 0.0660(2) 0.64988(18)
N4 N 0.2497(2) 0.2112(2) 0.61150(18)
N5 N 0.2515(2) 0.3433(2) 0.42937(18)
N6 N 0.3854(2) 0.3299(2) 0.38310(18)
N7 N 0.3283(2) 0.3094(2) 0.55645(18)
N8 N 0.4553(2) 0.3138(2) 0.50741(18)
N9 N 0.5422(2) 0.2435(2) 0.34500(18)
N10 N 0.3332(2) -0.1108(2) 0.66665(18)
N11 N 0.6108(2) 0.2235(2) 0.47091(18)
N12 N 0.2742(2) -0.0812(2) 0.53528(18)
N13 N 0.1246(2) 0.1758(2) 0.03790(18)
N14 N 0.2639(2) 0.1743(2) 0.04786(18)
N15 N 0.1069(2) 0.2362(2) -0.10132(18)
N16 N 0.2398(2) 0.2486(2) -0.09024(19)
N17 N 0.3411(2) 0.2698(2) 0.06538(18)
N18 N 0.3086(2) 0.4138(2) 0.08154(18)
N19 N 0.3166(2) 0.3452(2) -0.07255(18)
N20 N 0.3009(2) 0.4842(2) -0.05611(18)
N21 N 0.2071(2) 0.5742(2) 0.09869(18)
N22 N -0.0659(2) 0.3058(2) -0.10351(19)
N23 N 0.1930(2) 0.6426(2) -0.03961(18)
N24 N -0.0477(2) 0.2445(2) 0.03494(18)
O5 O 0.1995(2) 0.1652(2) 0.39226(15)
O6 O 0.29238(19) 0.2832(2) 0.32496(15)
O7 O 0.52292(19) 0.1616(2) 0.26472(16)
O8 O 0.3650(2) 0.0885(2) 0.70785(17)
O9 O 0.4711(2) 0.2275(2) 0.63447(16)
O10 O 0.6768(2) 0.0979(2) 0.58281(16)
O11 O 0.17307(19) 0.1982(2) 0.14716(15)
O12 O 0.2659(2) 0.3114(2) 0.16937(15)
O13 O 0.1233(2) 0.5475(2) 0.19904(16)
O14 O 0.1222(2) 0.3596(2) -0.18975(17)
O15 O 0.2360(2) 0.4888(2) -0.17059(16)
O16 O 0.0803(2) 0.7029(2) -0.14383(16)
O1A O 0.7584(2) -0.0524(2) 0.71484(16)
O2A O 0.8943(2) -0.3787(2) 0.75398(17)
O3A O 0.9395(2) -0.2256(2) 0.73394(17)
O4A O 0.6245(2) -0.1181(2) 0.72659(18)
Er1A Er 0.785335(12) -0.215979(12) 0.736535(9)
Er1A_2 Er -0.214665(12) 0.784021(12) -0.263465(9)
C1A C 0.8108(3) -0.1680(3) 0.5406(2)
C2A C 0.8298(3) -0.1232(3) 0.4104(2)
C3A C 0.8348(3) -0.2273(3) 0.4334(2)
C4A C 0.7036(3) -0.1185(3) 0.3395(2)
C5A C 0.8370(3) -0.3374(3) 0.5661(2)
H1A H 0.8827 -0.3915 0.5483
H2A H 0.8624 -0.3456 0.6178
C6A C 0.7264(3) -0.2880(3) 0.3839(2)
H3A H 0.7851 -0.3477 0.3871
H4A H 0.6903 -0.2684 0.3337
C7A C 0.6914(3) -0.3149(3) 0.6248(2)
C8A C 0.7109(3) -0.3787(3) 0.5196(2)
C9A C 0.6196(3) -0.3768(3) 0.5561(2)
C10A C 0.5763(3) -0.2783(3) 0.4276(2)
C11A C 0.5524(3) -0.3256(3) 0.6769(2)
H5A H 0.5469 -0.3863 0.6915
H6A H 0.5816 -0.3218 0.7223
C12A C 0.4473(3) -0.2972(3) 0.4921(2)
H7A H 0.4193 -0.2770 0.4388
H8A H 0.4466 -0.3588 0.5183
C13A C 0.4278(3) -0.1705(3) 0.6893(2)
C14A C 0.3803(3) -0.2421(3) 0.6104(2)
C15A C 0.2933(3) -0.1432(3) 0.6144(2)
C16A C 0.3279(3) -0.1299(3) 0.4869(2)
C17A C 0.8118(3) -0.0104(3) 0.4952(2)
H9A H 0.8237 -0.0221 0.5506
H10A H 0.8652 -0.0038 0.4718
C18A C 0.7213(3) 0.0318(3) 0.3003(2)
H11A H 0.6841 0.0414 0.2535
H12A H 0.7789 0.0361 0.2852
C19A C 0.9215(3) -0.1251(3) 0.3840(2)
H13A H 0.9131 -0.0582 0.3663
H14A H 0.9716 -0.1612 0.4276
C20A C 0.9522(3) -0.1731(3) 0.3187(3)
H15A H 1.0186 -0.1890 0.3134
H16A H 0.9142 -0.1263 0.2704
C21A C 0.9414(3) -0.2665(3) 0.3320(2)
H17A H 0.9984 -0.3172 0.3197
H18A H 0.8875 -0.2533 0.2972
C22A C 0.9259(3) -0.3041(3) 0.4149(2)
H19A H 0.9797 -0.3178 0.4501
H20A H 0.9216 -0.3648 0.4217
C23A C 0.7813(3) -0.4807(3) 0.5168(3)
H21A H 0.7532 -0.5013 0.4817
H22A H 0.8384 -0.4795 0.4970
C24A C 0.8081(3) -0.5546(3) 0.5972(3)
H23A H 0.8503 -0.5438 0.6282
H24A H 0.8430 -0.6208 0.5923
C25A C 0.7218(3) -0.5465(3) 0.6388(3)
H25A H 0.7260 -0.6116 0.6586
H26A H 0.7226 -0.5221 0.6828
C26A C 0.6281(3) -0.4787(3) 0.5871(2)
H27A H 0.5752 -0.4758 0.6164
H28A H 0.6251 -0.5043 0.5442
C27A C 0.3630(3) -0.3301(3) 0.6428(2)
H29A H 0.3157 -0.3283 0.6076
H30A H 0.4219 -0.3901 0.6474
C28A C 0.3282(3) -0.3309(3) 0.7216(3)
H31A H 0.3181 -0.3885 0.7414
H32A H 0.3770 -0.3357 0.7572
C29A C 0.2359(3) -0.2392(3) 0.7186(3)
H33A H 0.1845 -0.2572 0.7277
H34A H 0.2423 -0.2128 0.7600
C30A C 0.2092(3) -0.1595(3) 0.6419(2)
H35A H 0.1588 -0.0983 0.6476
H36A H 0.1844 -0.1779 0.6031
C31A C -0.1861(3) 0.8155(3) -0.0829(2)
C32A C -0.1619(3) 0.8442(3) 0.0329(2)
C33A C -0.2577(3) 0.8387(3) 0.0281(2)
C34A C -0.1530(3) 0.7110(3) 0.1321(2)
C35A C -0.3448(3) 0.8255(3) -0.0835(2)
H37A H -0.3489 0.8507 -0.1393
H38A H -0.4025 0.8700 -0.0669
C36A C -0.3092(3) 0.7178(3) 0.1150(2)
H39A H -0.2924 0.6820 0.1698
H40A H -0.3713 0.7747 0.1090
C37A C -0.3012(3) 0.6695(3) -0.1103(2)
C38A C -0.3762(3) 0.6876(3) 0.0001(2)
C39A C -0.3602(3) 0.5884(3) -0.0136(2)
C40A C -0.2801(3) 0.5563(3) 0.1061(2)
C41A C -0.2915(3) 0.5189(3) -0.1270(2)
H41A H -0.3465 0.5067 -0.1287
H42A H -0.2861 0.5502 -0.1798
C42A C -0.2725(3) 0.4129(3) 0.0765(2)
H43A H -0.2557 0.3859 0.1323
H44A H -0.3267 0.4039 0.0630
C43A C -0.1308(3) 0.4004(3) -0.1394(2)
C44A C -0.2004(3) 0.3431(3) -0.0355(2)
C45A C -0.0987(3) 0.2594(3) -0.0375(2)
C46A C -0.1038(3) 0.2995(3) 0.0792(2)
C47A C -0.0448(3) 0.8375(3) -0.0681(2)
H45A H -0.0511 0.8483 -0.1239
H46A H -0.0476 0.8963 -0.0588
C48A C -0.0172(3) 0.7449(3) 0.1390(2)
H47A H -0.0091 0.7061 0.1925
H48A H -0.0207 0.8075 0.1398
C49A C -0.1775(3) 0.9439(3) 0.0388(3)
H49A H -0.1162 0.9431 0.0459
H50A H -0.2128 0.9943 -0.0090
C50A C -0.2327(4) 0.9687(4) 0.1064(3)
H51A H -0.2521 1.0372 0.1030
H52A H -0.1906 0.9284 0.1545
C51A C -0.3202(4) 0.9528(4) 0.1092(3)
H53A H -0.3103 0.8982 0.1542
H54A H -0.3745 1.0113 0.1152
C52A C -0.3430(3) 0.9308(3) 0.0368(3)
H55A H -0.3993 0.9204 0.0411
H56A H -0.3561 0.9861 -0.0085
C53A C -0.4810(3) 0.7540(3) 0.0046(2)
H57A H -0.5016 0.7229 0.0501
H58A H -0.4882 0.8163 0.0099
C54A C -0.5438(3) 0.7732(3) -0.0677(3)
H59A H -0.5344 0.8187 -0.1109
H60A H -0.6104 0.8041 -0.0590
C55A C -0.5218(3) 0.6795(3) -0.0891(3)
H61A H -0.4942 0.6817 -0.1377
H62A H -0.5810 0.6763 -0.0969
C56A C -0.4535(3) 0.5874(3) -0.0277(2)
H63A H -0.4418 0.5299 -0.0442
H64A H -0.4822 0.5828 0.0203
C57A C -0.2783(3) 0.3150(3) -0.0466(3)
H65A H -0.2745 0.2640 -0.0009
H66A H -0.3402 0.3720 -0.0525
C58A C -0.2697(3) 0.2779(3) -0.1172(3)
H67A H -0.3179 0.2561 -0.1202
H68A H -0.2820 0.3317 -0.1635
C59A C -0.1711(3) 0.1928(4) -0.1151(3)
H69A H -0.1440 0.2098 -0.1620
H70A H -0.1781 0.1348 -0.1145
C60A C -0.1024(3) 0.1684(3) -0.0448(3)
H71A H -0.0389 0.1202 -0.0498
H72A H -0.1230 0.1396 0.0018
N1A N 0.8083(2) -0.0946(2) 0.48174(17)
N2A N 0.8283(2) -0.2464(2) 0.51546(18)
N3A N 0.7485(2) -0.0660(2) 0.35012(18)
N4A N 0.7503(2) -0.2112(2) 0.38850(18)
N5A N 0.7485(2) -0.3433(2) 0.57063(18)
N6A N 0.6146(2) -0.3299(2) 0.61690(18)
N7A N 0.6717(2) -0.3094(2) 0.44355(18)
N8A N 0.5447(2) -0.3138(2) 0.49259(18)
N9A N 0.4578(2) -0.2435(2) 0.65500(18)
N10A N 0.6668(2) 0.1108(2) 0.33335(18)
N11A N 0.3892(2) -0.2235(2) 0.52909(18)
N12A N 0.7258(2) 0.0812(2) 0.46472(18)
N13A N -0.1246(2) 0.8242(2) -0.03790(18)
N14A N -0.2639(2) 0.8257(2) -0.04786(18)
N15A N -0.1069(2) 0.7638(2) 0.10132(18)
N16A N -0.2398(2) 0.7514(2) 0.09024(19)
N17A N -0.3411(2) 0.7302(2) -0.06538(18)
N18A N -0.3086(2) 0.5862(2) -0.08154(18)
N19A N -0.3166(2) 0.6548(2) 0.07255(18)
N20A N -0.3009(2) 0.5158(2) 0.05611(18)
N21A N -0.2071(2) 0.4258(2) -0.09869(18)
N22A N 0.0659(2) 0.6942(2) 0.10351(19)
N23A N -0.1930(2) 0.3574(2) 0.03961(18)
N24A N 0.0477(2) 0.7555(2) -0.03494(18)
O5A O 0.8005(2) -0.1652(2) 0.60774(15)
O6A O 0.70762(19) -0.2832(2) 0.67504(15)
O7A O 0.47708(19) -0.1616(2) 0.73528(16)
O8A O 0.6350(2) -0.0885(2) 0.29215(17)
O9A O 0.5289(2) -0.2275(2) 0.36553(16)
O10A O 0.3232(2) -0.0979(2) 0.41719(16)
O11A O -0.17307(19) 0.8018(2) -0.14716(15)
O11A_2 O 0.82693(19) -0.1982(2) 0.85284(15)
O12A O -0.2659(2) 0.6886(2) -0.16937(15)
O12A_2 O 0.7341(2) -0.3114(2) 0.83063(15)
O13A O -0.1233(2) 0.4525(2) -0.19904(16)
O14A O -0.1222(2) 0.6404(2) 0.18975(17)
O15A O -0.2360(2) 0.5112(2) 0.17059(16)
O16A O -0.0803(2) 0.2971(2) 0.14383(16)
loop_
_geom_bond_atom_site_label_1
_geom_bond_atom_site_label_2
_geom_bond_site_symmetry_1
_geom_bond_site_symmetry_2
O1 Er1 1_555 1_555
O2 Er1 1_555 1_555
O3 Er1 1_555 1_555
O4 Er1 1_555 1_555
Er1 O5 1_555 1_555
C1 N1 1_555 1_555
C2 C3 1_555 1_555
C3 C22 1_555 1_555
C4 N3 1_555 1_555
C5 H1 1_555 1_555
H2 C5 1_555 1_555
C6 H3 1_555 1_555
H4 C6 1_555 1_555
C7 N5 1_555 1_555
C8 C9 1_555 1_555
C9 C26 1_555 1_555
C10 N7 1_555 1_555
C11 H5 1_555 1_555
H6 C11 1_555 1_555
C12 H7 1_555 1_555
H8 C12 1_555 1_555
C13 N9 1_555 1_555
C14 C15 1_555 1_555
C15 C30 1_555 1_555
C16 N11 1_555 1_555
C17 H9 1_555 1_555
H10 C17 1_555 1_555
C18 H11 1_555 1_555
H12 C18 1_555 1_555
C19 C2 1_555 1_555
H13 C19 1_555 1_555
H14 C19 1_555 1_555
C20 C19 1_555 1_555
H15 C20 1_555 1_555
H16 C20 1_555 1_555
C21 C20 1_555 1_555
H17 C21 1_555 1_555
H18 C21 1_555 1_555
C22 C21 1_555 1_555
H19 C22 1_555 1_555
H20 C22 1_555 1_555
C23 C8 1_555 1_555
H21 C23 1_555 1_555
H22 C23 1_555 1_555
C24 C23 1_555 1_555
H23 C24 1_555 1_555
H24 C24 1_555 1_555
C25 C24 1_555 1_555
H25 C25 1_555 1_555
H26 C25 1_555 1_555
C26 C25 1_555 1_555
H27 C26 1_555 1_555
H28 C26 1_555 1_555
C27 C14 1_555 1_555
H29 C27 1_555 1_555
H30 C27 1_555 1_555
C28 C27 1_555 1_555
H31 C28 1_555 1_555
H32 C28 1_555 1_555
C29 C28 1_555 1_555
H33 C29 1_555 1_555
H34 C29 1_555 1_555
C30 C29 1_555 1_555
H35 C30 1_555 1_555
H36 C30 1_555 1_555
C31 N13 1_555 1_555
C32 C33 1_555 1_555
C33 C52 1_555 1_555
C34 N15 1_555 1_555
C35 H37 1_555 1_555
H38 C35 1_555 1_555
C36 H39 1_555 1_555
H40 C36 1_555 1_555
C37 N17 1_555 1_555
C38 C39 1_555 1_555
C39 C56 1_555 1_555
C40 N19 1_555 1_555
C41 H41 1_555 1_555
H42 C41 1_555 1_555
C42 H43 1_555 1_555
H44 C42 1_555 1_555
C43 N21 1_555 1_555
C44 C45 1_555 1_555
C45 C60 1_555 1_555
C46 N23 1_555 1_555
C47 H45 1_555 1_555
H46 C47 1_555 1_555
C48 H47 1_555 1_555
H48 C48 1_555 1_555
C49 C32 1_555 1_555
H49 C49 1_555 1_555
H50 C49 1_555 1_555
C50 C49 1_555 1_555
H51 C50 1_555 1_555
H52 C50 1_555 1_555
C51 C50 1_555 1_555
H53 C51 1_555 1_555
H54 C51 1_555 1_555
C52 C51 1_555 1_555
H55 C52 1_555 1_555
H56 C52 1_555 1_555
C53 C38 1_555 1_555
H57 C53 1_555 1_555
H58 C53 1_555 1_555
C54 C53 1_555 1_555
H59 C54 1_555 1_555
H60 C54 1_555 1_555
C55 C54 1_555 1_555
H61 C55 1_555 1_555
H62 C55 1_555 1_555
C56 C55 1_555 1_555
H63 C56 1_555 1_555
H64 C56 1_555 1_555
C57 C44 1_555 1_555
H65 C57 1_555 1_555
H66 C57 1_555 1_555
C58 C57 1_555 1_555
H67 C58 1_555 1_555
H68 C58 1_555 1_555
C59 C58 1_555 1_555
H69 C59 1_555 1_555
H70 C59 1_555 1_555
C60 C59 1_555 1_555
H71 C60 1_555 1_555
H72 C60 1_555 1_555
N1 C2 1_555 1_555
N2 C1 1_555 1_555
N3 C2 1_555 1_555
N4 C3 1_555 1_555
N5 C5 1_555 1_555
N6 C7 1_555 1_555
N7 C6 1_555 1_555
N8 C9 1_555 1_555
N9 C11 1_555 1_555
N10 C18 1_555 1_555
N11 C12 1_555 1_555
N12 C17 1_555 1_555
N13 C32 1_555 1_555
N14 C31 1_555 1_555
N15 C32 1_555 1_555
N16 C33 1_555 1_555
N17 C35 1_555 1_555
N18 C37 1_555 1_555
N19 C36 1_555 1_555
N20 C39 1_555 1_555
N21 C41 1_555 1_555
N22 C48 1_555 1_555
N23 C42 1_555 1_555
N24 C47 1_555 1_555
O5 C1 1_555 1_555
O6 Er1 1_555 1_555
O7 C13 1_555 1_555
O8 C4 1_555 1_555
O9 C10 1_555 1_555
O10 C16 1_555 1_555
O11 Er1 1_555 1_555
O12 Er1 1_555 1_555
O13 C43 1_555 1_555
O14 C34 1_555 1_555
O15 C40 1_555 1_555
O16 C46 1_555 1_555
N25 O17 1_555 1_555
N26 O20 1_555 1_555
N27 O23 1_555 1_555
O18 N25 1_555 1_555
O19 N25 1_555 1_555
O21 N26 1_555 1_555
O22 N26 1_555 1_555
O24 N27 1_555 1_555
O25 N27 1_555 1_555
O1A Er1A 1_555 1_555
O2A Er1A 1_555 1_555
O3A Er1A 1_555 1_555
O4A Er1A 1_555 1_555
Er1A O5A 1_555 1_555
Er1A_2 O11A 1_555 1_555
C1A N1A 1_555 1_555
C2A C3A 1_555 1_555
C3A C22A 1_555 1_555
C4A N3A 1_555 1_555
C5A H1A 1_555 1_555
H2A C5A 1_555 1_555
C6A H3A 1_555 1_555
H4A C6A 1_555 1_555
C7A N5A 1_555 1_555
C8A C9A 1_555 1_555
C9A C26A 1_555 1_555
C10A N7A 1_555 1_555
C11A H5A 1_555 1_555
H6A C11A 1_555 1_555
C12A H7A 1_555 1_555
H8A C12A 1_555 1_555
C13A N10 1_555 1_555
C14A C15A 1_555 1_555
C15A N10 1_555 1_555
C16A N12 1_555 1_555
C17A H9A 1_555 1_555
H10A C17A 1_555 1_555
C18A H11A 1_555 1_555
H12A C18A 1_555 1_555
C19A C2A 1_555 1_555
H13A C19A 1_555 1_555
H14A C19A 1_555 1_555
C20A C19A 1_555 1_555
H15A C20A 1_555 1_555
H16A C20A 1_555 1_555
C21A C20A 1_555 1_555
H17A C21A 1_555 1_555
H18A C21A 1_555 1_555
C22A C21A 1_555 1_555
H19A C22A 1_555 1_555
H20A C22A 1_555 1_555
C23A C8A 1_555 1_555
H21A C23A 1_555 1_555
H22A C23A 1_555 1_555
C24A C23A 1_555 1_555
H23A C24A 1_555 1_555
H24A C24A 1_555 1_555
C25A C24A 1_555 1_555
H25A C25A 1_555 1_555
H26A C25A 1_555 1_555
C26A C25A 1_555 1_555
H27A C26A 1_555 1_555
H28A C26A 1_555 1_555
C27A C14A 1_555 1_555
H29A C27A 1_555 1_555
H30A C27A 1_555 1_555
C28A C27A 1_555 1_555
H31A C28A 1_555 1_555
H32A C28A 1_555 1_555
C29A C28A 1_555 1_555
H33A C29A 1_555 1_555
H34A C29A 1_555 1_555
C30A C15A 1_555 1_555
H35A C30A 1_555 1_555
H36A C30A 1_555 1_555
C31A N13A 1_555 1_555
C32A C33A 1_555 1_555
C33A C52A 1_555 1_555
C34A N15A 1_555 1_555
C35A H37A 1_555 1_555
H38A C35A 1_555 1_555
C36A H39A 1_555 1_555
H40A C36A 1_555 1_555
C37A N17A 1_555 1_555
C38A C39A 1_555 1_555
C39A C56A 1_555 1_555
C40A N19A 1_555 1_555
C41A H41A 1_555 1_555
H42A C41A 1_555 1_555
C42A H43A 1_555 1_555
H44A C42A 1_555 1_555
C43A N22 1_555 1_555
C44A C45A 1_555 1_555
C45A N22 1_555 1_555
C46A N24 1_555 1_555
C47A H45A 1_555 1_555
H46A C47A 1_555 1_555
C48A H47A 1_555 1_555
H48A C48A 1_555 1_555
C49A C32A 1_555 1_555
H49A C49A 1_555 1_555
H50A C49A 1_555 1_555
C50A C49A 1_555 1_555
H51A C50A 1_555 1_555
H52A C50A 1_555 1_555
C51A C50A 1_555 1_555
H53A C51A 1_555 1_555
H54A C51A 1_555 1_555
C52A C51A 1_555 1_555
H55A C52A 1_555 1_555
H56A C52A 1_555 1_555
C53A C38A 1_555 1_555
H57A C53A 1_555 1_555
H58A C53A 1_555 1_555
C54A C53A 1_555 1_555
H59A C54A 1_555 1_555
H60A C54A 1_555 1_555
C55A C54A 1_555 1_555
H61A C55A 1_555 1_555
H62A C55A 1_555 1_555
C56A C55A 1_555 1_555
H63A C56A 1_555 1_555
H64A C56A 1_555 1_555
C57A C44A 1_555 1_555
H65A C57A 1_555 1_555
H66A C57A 1_555 1_555
C58A C57A 1_555 1_555
H67A C58A 1_555 1_555
H68A C58A 1_555 1_555
C59A C58A 1_555 1_555
H69A C59A 1_555 1_555
H70A C59A 1_555 1_555
C60A C45A 1_555 1_555
H71A C60A 1_555 1_555
H72A C60A 1_555 1_555
N1A C2A 1_555 1_555
N2A C1A 1_555 1_555
N3A C2A 1_555 1_555
N4A C3A 1_555 1_555
N5A C5A 1_555 1_555
N6A C7A 1_555 1_555
N7A C6A 1_555 1_555
N8A C9A 1_555 1_555
N9A C11A 1_555 1_555
N10A C13 1_555 1_555
N11A C12A 1_555 1_555
N12A C15 1_555 1_555
N13A C32A 1_555 1_555
N14A C31A 1_555 1_555
N15A C32A 1_555 1_555
N16A C33A 1_555 1_555
N17A C35A 1_555 1_555
N18A C37A 1_555 1_555
N19A C36A 1_555 1_555
N20A C39A 1_555 1_555
N21A C41A 1_555 1_555
N22A C43 1_555 1_555
N23A C42A 1_555 1_555
N24A C45 1_555 1_555
O5A C1A 1_555 1_555
O6A Er1A 1_555 1_555
O7A C13A 1_555 1_555
O8A C4A 1_555 1_555
O9A C10A 1_555 1_555
O10A C16A 1_555 1_555
O11A C31A 1_555 1_555
O11A_2 Er1A 1_555 1_555
O12A Er1A_2 1_555 1_555
O12A_2 Er1A 1_555 1_555
O13A C43A 1_555 1_555
O14A C34A 1_555 1_555
O15A C40A 1_555 1_555
O16A C46A 1_555 1_555
C3 N2 1_555 1_555
C4 N4 1_555 1_555
C5 N2 1_555 1_555
C6 N4 1_555 1_555
C7 O6 1_555 1_555
C8 N5 1_555 1_555
C8 N7 1_555 1_555
C9 N6 1_555 1_555
C10 N8 1_555 1_555
C11 N6 1_555 1_555
C12 N8 1_555 1_555
C14 N9 1_555 1_555
C14 N11 1_555 1_555
C15 N10A 1_555 1_555
C16 N12A 1_555 1_555
C17 N1 1_555 1_555
C18 N3 1_555 1_555
C31 O11 1_555 1_555
C33 N14 1_555 1_555
C34 N16 1_555 1_555
C35 N14 1_555 1_555
C36 N16 1_555 1_555
C37 O12 1_555 1_555
C38 N17 1_555 1_555
C38 N19 1_555 1_555
C39 N18 1_555 1_555
C40 N20 1_555 1_555
C41 N18 1_555 1_555
C42 N20 1_555 1_555
C44 N21 1_555 1_555
C44 N23 1_555 1_555
C45 N22A 1_555 1_555
C46 N24A 1_555 1_555
C47 N13 1_555 1_555
C48 N15 1_555 1_555
N12 C15A 1_555 1_555
N24 C45A 1_555 1_555
C3A N2A 1_555 1_555
C4A N4A 1_555 1_555
C5A N2A 1_555 1_555
C6A N4A 1_555 1_555
C7A O6A 1_555 1_555
C8A N5A 1_555 1_555
C8A N7A 1_555 1_555
C9A N6A 1_555 1_555
C10A N8A 1_555 1_555
C11A N6A 1_555 1_555
C12A N8A 1_555 1_555
C13A N9A 1_555 1_555
C14A N9A 1_555 1_555
C14A N11A 1_555 1_555
C16A N11A 1_555 1_555
C17A N1A 1_555 1_555
C17A N12A 1_555 1_555
C18A N3A 1_555 1_555
C18A N10A 1_555 1_555
C29A C30A 1_555 1_555
C33A N14A 1_555 1_555
C34A N16A 1_555 1_555
C35A N14A 1_555 1_555
C36A N16A 1_555 1_555
C37A O12A 1_555 1_555
C38A N17A 1_555 1_555
C38A N19A 1_555 1_555
C39A N18A 1_555 1_555
C40A N20A 1_555 1_555
C41A N18A 1_555 1_555
C42A N20A 1_555 1_555
C43A N21A 1_555 1_555
C44A N21A 1_555 1_555
C44A N23A 1_555 1_555
C46A N23A 1_555 1_555
C47A N13A 1_555 1_555
C47A N24A 1_555 1_555
C48A N15A 1_555 1_555
C48A N22A 1_555 1_555
C59A C60A 1_555 1_555

#END
