
#######################################################################
#
#                 Cambridge Crystallographic Data Centre
#                                CCDC 
#
#######################################################################
#
# If this CIF has been generated from an entry in the Cambridge 
# Structural Database, then it will include bibliographic, chemical, 
# crystal, experimental, refinement or atomic coordinate data resulting 
# from the CCDC's data processing and validation procedures.
#
#######################################################################

data_TEPMAE
_symmetry_cell_setting           triclinic
_symmetry_space_group_name_H-M   'P -1'
_symmetry_Int_Tables_number      2
_space_group_name_Hall           '-P 1'
loop_
_symmetry_equiv_pos_site_id
_symmetry_equiv_pos_as_xyz
1 x,y,z
2 -x,-y,-z
_cell_length_a                   15.9117(7)
_cell_length_b                   15.9777(6)
_cell_length_c                   18.2073(7)
_cell_angle_alpha                74.7500(10)
_cell_angle_beta                 89.332(2)
_cell_angle_gamma                63.3840(10)
_cell_volume                     3962.27
loop_
_atom_site_label
_atom_site_type_symbol
_atom_site_fract_x
_atom_site_fract_y
_atom_site_fract_z
N25 N 0.5659(4) 0.7182(4) 0.5863(3)
O17 O 0.5271(4) 0.8074(3) 0.5700(3)
O18 O 0.6227(5) 0.6762(4) 0.5452(3)
O19 O 0.5445(5) 0.6712(4) 0.6407(4)
N26 N 0.0096(3) 0.4439(3) 0.8035(2)
O20 O 0.0117(3) 0.4900(3) 0.8478(3)
O21 O -0.0287(4) 0.3907(4) 0.8199(3)
O22 O 0.0456(3) 0.4507(3) 0.7441(2)
N27 N 0.5943(5) 0.9375(4) 0.8335(3)
O23 O 0.5350(4) 0.9969(4) 0.8677(3)
O24 O 0.5768(5) 0.9461(4) 0.7681(3)
O25 O 0.6736(4) 0.8731(4) 0.8682(3)
O1 O 0.2584(2) 0.9497(2) 0.71365(18)
O2 O 0.3955(2) 0.6204(2) 0.75410(18)
O3 O 0.4410(2) 0.7749(2) 0.73405(18)
O4 O 0.1232(2) 0.8833(2) 0.72716(19)
Dy1 Dy 0.285464(14) 0.784683(14) 0.736370(11)
O5 O 0.2644(2) 0.5097(2) 1.16988(18)
C1 C 0.2207(3) 0.5551(3) 1.1058(2)
C2 C 0.7708(3) 0.5889(3) 0.9240(2)
H1 H 0.7534 0.6162 0.8683
H2 H 0.8249 0.5983 0.9371
C3 C 0.2096(3) 0.5179(3) 0.8729(2)
H3 H 0.1546 0.5057 0.8710
H4 H 0.2149 0.5494 0.8203
C4 C 0.3286(3) 0.8768(3) 0.4098(2)
C5 C 0.4249(3) 0.6958(3) 0.4147(2)
H5 H 0.4789 0.6816 0.4498
H6 H 0.4203 0.6351 0.4215
C6 C 0.4402(3) 0.7334(3) 0.3321(3)
H7 H 0.4972 0.6825 0.3200
H8 H 0.3862 0.7467 0.2974
C7 C 0.4510(3) 0.8262(4) 0.3186(3)
H9 H 0.4127 0.8731 0.2704
H10 H 0.5174 0.8102 0.3130
C8 C 0.4209(3) 0.8743(3) 0.3835(3)
H11 H 0.4710 0.8381 0.4270
H12 H 0.4128 0.9413 0.3657
N1 N 0.2001(2) 0.5147(2) 1.05564(19)
N2 N 0.3081(2) 0.9054(2) 0.48101(19)
N3 N 0.2479(2) 0.9337(2) 0.35001(19)
C9 C 0.1998(3) 0.6685(3) 0.8902(2)
C10 C 0.1410(3) 0.5875(3) 0.9863(2)
C11 C 0.1247(3) 0.6864(3) 1.0005(2)
C12 C 0.1559(3) 0.8248(3) 0.9169(2)
H13 H 0.1519 0.8501 0.8611
H14 H 0.0979 0.8692 0.9333
C13 C 0.1919(3) 0.7159(3) 1.1148(2)
H15 H 0.1297 0.7726 1.1090
H16 H 0.2090 0.6797 1.1694
C14 C 0.3136(3) 0.8158(3) 0.9174(2)
C15 C 0.2420(3) 0.8382(3) 1.0285(2)
C16 C 0.3375(3) 0.8438(3) 1.0335(2)
C17 C 0.3471(3) 0.7099(3) 1.1323(2)
C18 C 0.4540(3) 0.8382(3) 0.9331(2)
H17 H 0.4476 0.8499 0.8774
H18 H 0.4512 0.8968 0.9429
C19 C 0.4816(3) 0.7446(3) 1.1390(2)
H19 H 0.4900 0.7055 1.1924
H20 H 0.4777 0.8073 1.1400
C20 C 0.6026(3) 0.7021(3) 0.9211(2)
C21 C 0.5978(3) 0.7413(3) 1.0377(2)
C22 C 0.6992(3) 0.6576(3) 1.0357(2)
C23 C 0.6295(3) 0.5998(3) 1.1393(2)
C24 C 0.0473(3) 0.5862(3) 0.9720(3)
H21 H 0.0591 0.5288 0.9552
H22 H 0.0186 0.5813 1.0198
C25 C -0.0202(3) 0.6783(4) 0.9112(3)
H23 H -0.0794 0.6755 0.9026
H24 H 0.0078 0.6811 0.8629
C26 C -0.0421(3) 0.7706(3) 0.9332(3)
H25 H -0.1086 0.8007 0.9424
H26 H -0.0339 0.8171 0.8902
C27 C 0.0202(3) 0.7525(3) 1.0045(3)
H27 H -0.0002 0.7218 1.0501
H28 H 0.0128 0.8151 1.0090
C28 C 0.1564(3) 0.9296(3) 1.0368(3)
H29 H 0.1003 0.9188 1.0405
H30 H 0.1434 0.9852 0.9918
C29 C 0.1777(4) 0.9518(4) 1.1093(3)
H31 H 0.1232 1.0106 1.1147
H32 H 0.1873 0.8973 1.1543
C30 C 0.2658(4) 0.9677(4) 1.1070(3)
H33 H 0.2464 1.0361 1.1038
H34 H 0.3078 0.9270 1.1551
C31 C 0.3210(3) 0.9435(3) 1.0402(3)
H35 H 0.3822 0.9429 1.0477
H36 H 0.2858 0.9941 0.9924
C32 C 0.6009(3) 0.8319(3) 1.0461(3)
H37 H 0.5374 0.8793 1.0519
H38 H 0.6204 0.8621 0.9995
C33 C 0.6695(4) 0.8078(4) 1.1151(3)
H39 H 0.6429 0.7909 1.1621
H40 H 0.6767 0.8659 1.1140
C34 C 0.7673(4) 0.7229(4) 1.1167(3)
H41 H 0.8157 0.7443 1.1203
H42 H 0.7795 0.6688 1.1628
C35 C 0.7768(3) 0.6863(3) 1.0470(3)
H43 H 0.8390 0.6294 1.0530
H44 H 0.7728 0.7375 1.0014
C36 C -0.0715(3) 0.8294(3) 0.6904(2)
C37 C -0.2065(3) 0.8569(3) 0.6158(2)
C38 C -0.1197(3) 0.7582(3) 0.6115(2)
C39 C -0.1723(3) 0.8695(3) 0.4880(2)
C40 C 0.0526(3) 0.6747(3) 0.6777(2)
H45 H 0.0473 0.6138 0.6924
H46 H 0.0818 0.6787 0.7228
C41 C -0.0522(3) 0.7021(3) 0.4942(2)
H47 H -0.0523 0.6403 0.5209
H48 H -0.0806 0.7218 0.4411
C42 C 0.1913(3) 0.6853(3) 0.6250(2)
C43 C 0.1198(3) 0.6233(3) 0.5569(2)
C44 C 0.2106(3) 0.6214(3) 0.5203(2)
C45 C 0.0759(3) 0.7217(3) 0.4290(2)
C46 C 0.3363(3) 0.6631(3) 0.5657(2)
H49 H 0.3625 0.6546 0.6171
H50 H 0.3815 0.6089 0.5477
C47 C 0.2251(3) 0.7127(3) 0.3849(2)
H51 H 0.1886 0.7326 0.3350
H52 H 0.2837 0.6529 0.3879
C48 C 0.3104(3) 0.8325(3) 0.5399(2)
C49 C 0.3338(3) 0.7730(3) 0.4333(2)
C50 C 0.2028(3) 0.8818(3) 0.3395(2)
C51 C -0.2209(3) 0.9683(3) 0.7003(2)
H53 H -0.1838 0.9586 0.7471
H54 H -0.2787 0.9642 0.7152
C52 C -0.3111(3) 1.0102(3) 0.5060(2)
H55 H -0.3230 1.0219 0.4507
H56 H -0.3645 1.0037 0.5293
C53 C -0.2902(3) 0.8404(3) 0.6436(3)
H57 H -0.3150 0.8218 0.6049
H58 H -0.3407 0.9018 0.6491
C54 C -0.2631(4) 0.7611(3) 0.7201(3)
H59 H -0.3146 0.7433 0.7296
H60 H -0.2562 0.7874 0.7612
C55 C -0.1711(3) 0.6689(3) 0.7230(3)
H61 H -0.1221 0.6634 0.7587
H62 H -0.1814 0.6114 0.7425
C56 C -0.1364(3) 0.6700(3) 0.6444(3)
H63 H -0.0772 0.6101 0.6492
H64 H -0.1835 0.6712 0.6094
C57 C 0.1293(3) 0.5207(3) 0.5888(3)
H65 H 0.0769 0.5235 0.6186
H66 H 0.1258 0.4949 0.5463
C58 C 0.2227(3) 0.4535(3) 0.6395(3)
H67 H 0.2271 0.3882 0.6594
H68 H 0.2240 0.4778 0.6833
C59 C 0.3085(3) 0.4454(3) 0.5975(3)
H69 H 0.3431 0.3792 0.5923
H70 H 0.3512 0.4558 0.6282
C60 C 0.2808(3) 0.5196(3) 0.5176(3)
H71 H 0.3377 0.5210 0.4976
H72 H 0.2526 0.4991 0.4827
N4 N 0.1923(2) 0.5851(2) 0.91851(19)
N5 N 0.1601(2) 0.7289(2) 0.93492(19)
N6 N 0.1843(3) 0.6531(3) 1.0725(2)
N7 N 0.2359(2) 0.8251(2) 0.95252(19)
N8 N 0.3744(2) 0.8249(2) 0.96259(18)
N9 N 0.2608(3) 0.7503(3) 1.0904(2)
N10 N 0.3926(2) 0.7630(2) 1.10158(19)
N11 N 0.5459(2) 0.7567(2) 0.96556(19)
N12 N 0.6915(2) 0.6436(2) 0.9612(2)
N13 N 0.5650(2) 0.6946(2) 1.1038(2)
N14 N 0.7060(2) 0.5753(2) 1.09870(19)
N15 N -0.1665(2) 0.8893(2) 0.66750(19)
N16 N -0.0418(2) 0.7564(2) 0.65569(19)
N17 N -0.2256(2) 0.9189(2) 0.53645(19)
N18 N -0.1109(2) 0.7762(2) 0.5307(2)
N19 N 0.1146(2) 0.6705(2) 0.61755(18)
N20 N 0.2476(2) 0.6576(2) 0.57090(19)
N21 N 0.0449(2) 0.6859(2) 0.49388(19)
N22 N 0.1712(2) 0.6909(3) 0.44444(19)
N23 N 0.3276(2) 0.7538(2) 0.51506(19)
N24 N 0.2495(2) 0.7889(2) 0.38892(19)
O6 O 0.2350(2) 0.6879(2) 0.83142(16)
O7 O 0.3265(2) 0.8027(2) 0.85373(16)
O8 O 0.5793(2) 0.7044(2) 0.85715(17)
O9 O 0.3777(2) 0.6391(2) 1.18925(18)
O10 O 0.6227(2) 0.5476(2) 1.19872(17)
O11 O -0.0227(2) 0.8385(2) 0.73548(17)
O12 O 0.2075(2) 0.7173(2) 0.67470(16)
O13 O 0.3007(2) 0.8352(2) 0.60673(16)
O14 O -0.1775(2) 0.9017(2) 0.41896(17)
O15 O 0.0280(2) 0.7721(2) 0.36718(17)
O16 O 0.1344(2) 0.9115(2) 0.29263(18)
O1A O -0.2584(2) 1.0503(2) 0.28635(18)
O2A O -0.3955(2) 1.3796(2) 0.24590(18)
O3A O -0.4410(2) 1.2251(2) 0.26595(18)
O4A O -0.1232(2) 1.1167(2) 0.27284(19)
Dy1A Dy -0.285464(14) 1.215317(14) 0.263630(11)
Dy1A_2 Dy 0.714536(14) 0.215317(14) 1.263630(11)
O5A O 0.7356(2) 0.4903(2) 0.83012(18)
C1A C 0.7793(3) 0.4449(3) 0.8942(2)
C2A C 0.2292(3) 0.4111(3) 1.0760(2)
H1A H 0.2466 0.3838 1.1317
H2A H 0.1751 0.4017 1.0629
C3A C 0.7904(3) 0.4821(3) 1.1271(2)
H3A H 0.8454 0.4943 1.1290
H4A H 0.7851 0.4506 1.1797
C4A C -0.3286(3) 1.1232(3) 0.5902(2)
C5A C -0.4249(3) 1.3042(3) 0.5853(2)
H5A H -0.4789 1.3184 0.5502
H6A H -0.4203 1.3649 0.5785
C6A C -0.4402(3) 1.2666(3) 0.6679(3)
H7A H -0.4972 1.3175 0.6800
H8A H -0.3862 1.2533 0.7026
C7A C -0.4510(3) 1.1738(4) 0.6814(3)
H9A H -0.4127 1.1269 0.7296
H10A H -0.5174 1.1898 0.6870
C8A C -0.4209(3) 1.1257(3) 0.6165(3)
H11A H -0.4710 1.1619 0.5730
H12A H -0.4128 1.0587 0.6343
N1A N 0.7999(2) 0.4853(2) 0.94436(19)
N2A N -0.3081(2) 1.0946(2) 0.51899(19)
N3A N -0.2479(2) 1.0663(2) 0.64999(19)
C9A C 0.8002(3) 0.3315(3) 1.1098(2)
C10A C 0.8590(3) 0.4125(3) 1.0137(2)
C11A C 0.8753(3) 0.3136(3) 0.9995(2)
C12A C 0.8441(3) 0.1752(3) 1.0831(2)
H13A H 0.8481 0.1499 1.1389
H14A H 0.9021 0.1308 1.0667
C13A C 0.8081(3) 0.2841(3) 0.8852(2)
H15A H 0.8703 0.2274 0.8910
H16A H 0.7910 0.3203 0.8306
C14A C 0.6864(3) 0.1842(3) 1.0826(2)
C15A C 0.7580(3) 0.1618(3) 0.9715(2)
C16A C 0.6625(3) 0.1562(3) 0.9665(2)
C17A C 0.6529(3) 0.2901(3) 0.8677(2)
C18A C 0.5460(3) 0.1618(3) 1.0669(2)
H17A H 0.5524 0.1501 1.1226
H18A H 0.5488 0.1032 1.0571
C19A C 0.5184(3) 0.2554(3) 0.8610(2)
H19A H 0.5100 0.2945 0.8076
H20A H 0.5223 0.1927 0.8600
C20A C 0.3974(3) 0.2979(3) 1.0789(2)
C21A C 0.4022(3) 0.2587(3) 0.9623(2)
C22A C 0.3008(3) 0.3424(3) 0.9643(2)
C23A C 0.3705(3) 0.4002(3) 0.8607(2)
C24A C 0.9527(3) 0.4138(3) 1.0280(3)
H21A H 0.9409 0.4712 1.0448
H22A H 0.9814 0.4187 0.9802
C25A C 1.0202(3) 0.3217(4) 1.0888(3)
H23A H 1.0794 0.3245 1.0974
H24A H 0.9922 0.3189 1.1371
C26A C 1.0421(3) 0.2294(3) 1.0668(3)
H25A H 1.1086 0.1993 1.0576
H26A H 1.0339 0.1829 1.1098
C27A C 0.9798(3) 0.2475(3) 0.9955(3)
H27A H 1.0002 0.2782 0.9499
H28A H 0.9872 0.1849 0.9910
C28A C 0.8436(3) 0.0704(3) 0.9632(3)
H29A H 0.8997 0.0812 0.9595
H30A H 0.8566 0.0148 1.0082
C29A C 0.8223(4) 0.0482(4) 0.8907(3)
H31A H 0.8768 -0.0106 0.8853
H32A H 0.8127 0.1027 0.8457
C30A C 0.7342(4) 0.0323(4) 0.8930(3)
H33A H 0.7536 -0.0361 0.8962
H34A H 0.6922 0.0730 0.8449
C31A C 0.6790(3) 0.0565(3) 0.9598(3)
H35A H 0.6178 0.0571 0.9523
H36A H 0.7142 0.0059 1.0076
C32A C 0.3991(3) 0.1681(3) 0.9539(3)
H37A H 0.4626 0.1207 0.9481
H38A H 0.3796 0.1379 1.0005
C33A C 0.3305(4) 0.1922(4) 0.8849(3)
H39A H 0.3571 0.2091 0.8379
H40A H 0.3233 0.1341 0.8860
C34A C 0.2327(4) 0.2771(4) 0.8833(3)
H41A H 0.1843 0.2557 0.8797
H42A H 0.2205 0.3312 0.8372
C35A C 0.2232(3) 0.3137(3) 0.9530(3)
H43A H 0.1610 0.3706 0.9470
H44A H 0.2272 0.2625 0.9986
C36A C 0.0715(3) 1.1706(3) 0.3096(2)
C37A C 0.2065(3) 1.1431(3) 0.3842(2)
C38A C 0.1197(3) 1.2418(3) 0.3885(2)
C39A C 0.1723(3) 1.1305(3) 0.5120(2)
C40A C -0.0526(3) 1.3253(3) 0.3223(2)
H45A H -0.0473 1.3862 0.3076
H46A H -0.0818 1.3213 0.2772
C41A C 0.0522(3) 1.2979(3) 0.5058(2)
H47A H 0.0523 1.3597 0.4791
H48A H 0.0806 1.2782 0.5589
C42A C -0.1913(3) 1.3147(3) 0.3750(2)
C43A C -0.1198(3) 1.3767(3) 0.4431(2)
C44A C -0.2106(3) 1.3786(3) 0.4797(2)
C45A C -0.0759(3) 1.2783(3) 0.5710(2)
C46A C -0.3363(3) 1.3369(3) 0.4343(2)
H49A H -0.3625 1.3454 0.3829
H50A H -0.3815 1.3911 0.4523
C47A C -0.2251(3) 1.2873(3) 0.6151(2)
H51A H -0.1886 1.2674 0.6650
H52A H -0.2837 1.3471 0.6121
C48A C -0.3104(3) 1.1675(3) 0.4601(2)
C49A C -0.3338(3) 1.2270(3) 0.5667(2)
C50A C -0.2028(3) 1.1182(3) 0.6605(2)
C51A C 0.2209(3) 1.0317(3) 0.2997(2)
H53A H 0.1838 1.0414 0.2529
H54A H 0.2787 1.0358 0.2848
C52A C 0.3111(3) 0.9898(3) 0.4940(2)
H55A H 0.3230 0.9781 0.5493
H56A H 0.3645 0.9963 0.4707
C53A C 0.2902(3) 1.1596(3) 0.3564(3)
H57A H 0.3150 1.1782 0.3951
H58A H 0.3407 1.0982 0.3509
C54A C 0.2631(4) 1.2389(3) 0.2799(3)
H59A H 0.3146 1.2567 0.2704
H60A H 0.2562 1.2126 0.2388
C55A C 0.1711(3) 1.3311(3) 0.2770(3)
H61A H 0.1221 1.3366 0.2413
H62A H 0.1814 1.3886 0.2575
C56A C 0.1364(3) 1.3300(3) 0.3556(3)
H63A H 0.0772 1.3899 0.3508
H64A H 0.1835 1.3288 0.3906
C57A C -0.1293(3) 1.4793(3) 0.4112(3)
H65A H -0.0769 1.4765 0.3814
H66A H -0.1258 1.5051 0.4537
C58A C -0.2227(3) 1.5465(3) 0.3605(3)
H67A H -0.2271 1.6118 0.3406
H68A H -0.2240 1.5222 0.3167
C59A C -0.3085(3) 1.5546(3) 0.4025(3)
H69A H -0.3431 1.6208 0.4077
H70A H -0.3512 1.5442 0.3718
C60A C -0.2808(3) 1.4804(3) 0.4824(3)
H71A H -0.3377 1.4790 0.5024
H72A H -0.2526 1.5009 0.5173
N4A N 0.8077(2) 0.4149(2) 1.08149(19)
N5A N 0.8399(2) 0.2711(2) 1.06508(19)
N6A N 0.8157(3) 0.3469(3) 0.9275(2)
N7A N 0.7641(2) 0.1749(2) 1.04748(19)
N8A N 0.6256(2) 0.1751(2) 1.03741(18)
N9A N 0.7392(3) 0.2497(3) 0.9096(2)
N10A N 0.6074(2) 0.2370(2) 0.89842(19)
N11A N 0.4541(2) 0.2433(2) 1.03444(19)
N12A N 0.3085(2) 0.3564(2) 1.0388(2)
N13A N 0.4350(2) 0.3054(2) 0.8962(2)
N14A N 0.2940(2) 0.4247(2) 0.90130(19)
N15A N 0.1665(2) 1.1107(2) 0.33250(19)
N16A N 0.0418(2) 1.2436(2) 0.34431(19)
N17A N 0.2256(2) 1.0811(2) 0.46355(19)
N18A N 0.1109(2) 1.2238(2) 0.4693(2)
N19A N -0.1146(2) 1.3295(2) 0.38245(18)
N20A N -0.2476(2) 1.3424(2) 0.42910(19)
N21A N -0.0449(2) 1.3141(2) 0.50612(19)
N22A N -0.1712(2) 1.3091(3) 0.55556(19)
N23A N -0.3276(2) 1.2462(2) 0.48494(19)
N24A N -0.2495(2) 1.2111(2) 0.61108(19)
O6A O 0.7650(2) 0.3121(2) 1.16858(16)
O6A_2 O -0.2350(2) 1.3121(2) 0.16858(16)
O7A O 0.6735(2) 0.1973(2) 1.14627(16)
O7A_2 O -0.3265(2) 1.1973(2) 0.14627(16)
O8A O 0.4207(2) 0.2956(2) 1.14285(17)
O9A O 0.6223(2) 0.3609(2) 0.81075(18)
O10A O 0.3773(2) 0.4524(2) 0.80128(17)
O11A O 0.0227(2) 1.1615(2) 0.26452(17)
O12A O -0.2075(2) 1.2827(2) 0.32530(16)
O13A O -0.3007(2) 1.1648(2) 0.39327(16)
O14A O 0.1775(2) 1.0983(2) 0.58104(17)
O15A O -0.0280(2) 1.2279(2) 0.63282(17)
O16A O -0.1344(2) 1.0885(2) 0.70737(18)
loop_
_geom_bond_atom_site_label_1
_geom_bond_atom_site_label_2
_geom_bond_site_symmetry_1
_geom_bond_site_symmetry_2
O1 Dy1 1_555 1_555
O2 Dy1 1_555 1_555
O3 Dy1 1_555 1_555
O4 Dy1 1_555 1_555
Dy1 O6 1_555 1_555
O5 C1 1_555 1_555
C1 N1 1_555 1_555
C2 H1 1_555 1_555
H2 C2 1_555 1_555
C3 H3 1_555 1_555
H4 C3 1_555 1_555
C4 C8 1_555 1_555
C5 H5 1_555 1_555
H6 C5 1_555 1_555
C6 C5 1_555 1_555
H7 C6 1_555 1_555
H8 C6 1_555 1_555
C7 C6 1_555 1_555
H9 C7 1_555 1_555
H10 C7 1_555 1_555
C8 C7 1_555 1_555
H11 C8 1_555 1_555
H12 C8 1_555 1_555
N1 C10 1_555 1_555
N2 C4 1_555 1_555
N3 C4 1_555 1_555
C9 N4 1_555 1_555
C10 C11 1_555 1_555
C11 C27 1_555 1_555
C12 H13 1_555 1_555
H14 C12 1_555 1_555
C13 H15 1_555 1_555
H16 C13 1_555 1_555
C14 N7 1_555 1_555
C15 C16 1_555 1_555
C16 C31 1_555 1_555
C17 N9 1_555 1_555
C18 H17 1_555 1_555
H18 C18 1_555 1_555
C19 H19 1_555 1_555
H20 C19 1_555 1_555
C20 N11 1_555 1_555
C21 C22 1_555 1_555
C22 C35 1_555 1_555
C23 N13 1_555 1_555
C24 C10 1_555 1_555
H21 C24 1_555 1_555
H22 C24 1_555 1_555
C25 C24 1_555 1_555
H23 C25 1_555 1_555
H24 C25 1_555 1_555
C26 C25 1_555 1_555
H25 C26 1_555 1_555
H26 C26 1_555 1_555
C27 C26 1_555 1_555
H27 C27 1_555 1_555
H28 C27 1_555 1_555
C28 C15 1_555 1_555
H29 C28 1_555 1_555
H30 C28 1_555 1_555
C29 C28 1_555 1_555
H31 C29 1_555 1_555
H32 C29 1_555 1_555
C30 C29 1_555 1_555
H33 C30 1_555 1_555
H34 C30 1_555 1_555
C31 C30 1_555 1_555
H35 C31 1_555 1_555
H36 C31 1_555 1_555
C32 C21 1_555 1_555
H37 C32 1_555 1_555
H38 C32 1_555 1_555
C33 C32 1_555 1_555
H39 C33 1_555 1_555
H40 C33 1_555 1_555
C34 C33 1_555 1_555
H41 C34 1_555 1_555
H42 C34 1_555 1_555
C35 C34 1_555 1_555
H43 C35 1_555 1_555
H44 C35 1_555 1_555
C36 N15 1_555 1_555
C37 C38 1_555 1_555
C38 C56 1_555 1_555
C39 N17 1_555 1_555
C40 H45 1_555 1_555
H46 C40 1_555 1_555
C41 H47 1_555 1_555
H48 C41 1_555 1_555
C42 N19 1_555 1_555
C43 C44 1_555 1_555
C44 C60 1_555 1_555
C45 N21 1_555 1_555
C46 H49 1_555 1_555
H50 C46 1_555 1_555
C47 H51 1_555 1_555
H52 C47 1_555 1_555
C48 N2 1_555 1_555
C49 C4 1_555 1_555
C50 N3 1_555 1_555
C51 H53 1_555 1_555
H54 C51 1_555 1_555
C52 H55 1_555 1_555
H56 C52 1_555 1_555
C53 C37 1_555 1_555
H57 C53 1_555 1_555
H58 C53 1_555 1_555
C54 C53 1_555 1_555
H59 C54 1_555 1_555
H60 C54 1_555 1_555
C55 C54 1_555 1_555
H61 C55 1_555 1_555
H62 C55 1_555 1_555
C56 C55 1_555 1_555
H63 C56 1_555 1_555
H64 C56 1_555 1_555
C57 C43 1_555 1_555
H65 C57 1_555 1_555
H66 C57 1_555 1_555
C58 C57 1_555 1_555
H67 C58 1_555 1_555
H68 C58 1_555 1_555
C59 C58 1_555 1_555
H69 C59 1_555 1_555
H70 C59 1_555 1_555
C60 C59 1_555 1_555
H71 C60 1_555 1_555
H72 C60 1_555 1_555
N4 C3 1_555 1_555
N5 C9 1_555 1_555
N6 C1 1_555 1_555
N7 C12 1_555 1_555
N8 C14 1_555 1_555
N9 C13 1_555 1_555
N10 C16 1_555 1_555
N11 C18 1_555 1_555
N12 C2 1_555 1_555
N13 C19 1_555 1_555
N14 C22 1_555 1_555
N15 C37 1_555 1_555
N16 C36 1_555 1_555
N17 C37 1_555 1_555
N18 C38 1_555 1_555
N19 C40 1_555 1_555
N20 C42 1_555 1_555
N21 C41 1_555 1_555
N22 C44 1_555 1_555
N23 C46 1_555 1_555
N24 C47 1_555 1_555
N25 O17 1_555 1_555
N26 O20 1_555 1_555
N27 O23 1_555 1_555
O6 C9 1_555 1_555
O7 Dy1 1_555 1_555
O8 C20 1_555 1_555
O9 C17 1_555 1_555
O10 C23 1_555 1_555
O11 C36 1_555 1_555
O12 Dy1 1_555 1_555
O13 Dy1 1_555 1_555
O14 C39 1_555 1_555
O15 C45 1_555 1_555
O16 C50 1_555 1_555
O18 N25 1_555 1_555
O19 N25 1_555 1_555
O21 N26 1_555 1_555
O22 N26 1_555 1_555
O24 N27 1_555 1_555
O25 N27 1_555 1_555
O1A Dy1A 1_555 1_555
O2A Dy1A 1_555 1_555
O3A Dy1A 1_555 1_555
O4A Dy1A 1_555 1_555
Dy1A O6A_2 1_555 1_555
Dy1A_2 O6A 1_555 1_555
O5A C1A 1_555 1_555
C1A N1A 1_555 1_555
C2A N1 1_555 1_555
H1A C2A 1_555 1_555
H2A C2A 1_555 1_555
C3A N14 1_555 1_555
H3A C3A 1_555 1_555
H4A C3A 1_555 1_555
C4A C8A 1_555 1_555
C5A H5A 1_555 1_555
H6A C5A 1_555 1_555
C6A C5A 1_555 1_555
H7A C6A 1_555 1_555
H8A C6A 1_555 1_555
C7A C6A 1_555 1_555
H9A C7A 1_555 1_555
H10A C7A 1_555 1_555
C8A C7A 1_555 1_555
H11A C8A 1_555 1_555
H12A C8A 1_555 1_555
N1A C2 1_555 1_555
N2A C52 1_555 1_555
N3A C51 1_555 1_555
C9A N4A 1_555 1_555
C10A N1A 1_555 1_555
C11A C10A 1_555 1_555
C12A H13A 1_555 1_555
H14A C12A 1_555 1_555
C13A H15A 1_555 1_555
H16A C13A 1_555 1_555
C14A N7A 1_555 1_555
C15A C16A 1_555 1_555
C16A C31A 1_555 1_555
C17A N9A 1_555 1_555
C18A H17A 1_555 1_555
H18A C18A 1_555 1_555
C19A H19A 1_555 1_555
H20A C19A 1_555 1_555
C20A N11A 1_555 1_555
C21A C22A 1_555 1_555
C22A C35A 1_555 1_555
C23A N13A 1_555 1_555
C24A C10A 1_555 1_555
H21A C24A 1_555 1_555
H22A C24A 1_555 1_555
C25A C24A 1_555 1_555
H23A C25A 1_555 1_555
H24A C25A 1_555 1_555
C26A C25A 1_555 1_555
H25A C26A 1_555 1_555
H26A C26A 1_555 1_555
C27A C11A 1_555 1_555
H27A C27A 1_555 1_555
H28A C27A 1_555 1_555
C28A C15A 1_555 1_555
H29A C28A 1_555 1_555
H30A C28A 1_555 1_555
C29A C28A 1_555 1_555
H31A C29A 1_555 1_555
H32A C29A 1_555 1_555
C30A C29A 1_555 1_555
H33A C30A 1_555 1_555
H34A C30A 1_555 1_555
C31A C30A 1_555 1_555
H35A C31A 1_555 1_555
H36A C31A 1_555 1_555
C32A C21A 1_555 1_555
H37A C32A 1_555 1_555
H38A C32A 1_555 1_555
C33A C32A 1_555 1_555
H39A C33A 1_555 1_555
H40A C33A 1_555 1_555
C34A C33A 1_555 1_555
H41A C34A 1_555 1_555
H42A C34A 1_555 1_555
C35A C34A 1_555 1_555
H43A C35A 1_555 1_555
H44A C35A 1_555 1_555
C36A N15A 1_555 1_555
C37A C38A 1_555 1_555
C38A C56A 1_555 1_555
C39A N17A 1_555 1_555
C40A H45A 1_555 1_555
H46A C40A 1_555 1_555
C41A H47A 1_555 1_555
H48A C41A 1_555 1_555
C42A N19A 1_555 1_555
C43A C44A 1_555 1_555
C44A C60A 1_555 1_555
C45A N21A 1_555 1_555
C46A H49A 1_555 1_555
H50A C46A 1_555 1_555
C47A H51A 1_555 1_555
H52A C47A 1_555 1_555
C48A N2A 1_555 1_555
C49A C4A 1_555 1_555
C50A N3A 1_555 1_555
C51A N3 1_555 1_555
H53A C51A 1_555 1_555
H54A C51A 1_555 1_555
C52A N2 1_555 1_555
H55A C52A 1_555 1_555
H56A C52A 1_555 1_555
C53A C37A 1_555 1_555
H57A C53A 1_555 1_555
H58A C53A 1_555 1_555
C54A C53A 1_555 1_555
H59A C54A 1_555 1_555
H60A C54A 1_555 1_555
C55A C54A 1_555 1_555
H61A C55A 1_555 1_555
H62A C55A 1_555 1_555
C56A C55A 1_555 1_555
H63A C56A 1_555 1_555
H64A C56A 1_555 1_555
C57A C43A 1_555 1_555
H65A C57A 1_555 1_555
H66A C57A 1_555 1_555
C58A C57A 1_555 1_555
H67A C58A 1_555 1_555
H68A C58A 1_555 1_555
C59A C58A 1_555 1_555
H69A C59A 1_555 1_555
H70A C59A 1_555 1_555
C60A C59A 1_555 1_555
H71A C60A 1_555 1_555
H72A C60A 1_555 1_555
N4A C3A 1_555 1_555
N5A C9A 1_555 1_555
N6A C1A 1_555 1_555
N7A C12A 1_555 1_555
N8A C14A 1_555 1_555
N9A C13A 1_555 1_555
N10A C16A 1_555 1_555
N11A C18A 1_555 1_555
N12A C2A 1_555 1_555
N13A C19A 1_555 1_555
N14A C3 1_555 1_555
N15A C37A 1_555 1_555
N16A C36A 1_555 1_555
N17A C37A 1_555 1_555
N18A C38A 1_555 1_555
N19A C40A 1_555 1_555
N20A C42A 1_555 1_555
N21A C41A 1_555 1_555
N22A C44A 1_555 1_555
N23A C46A 1_555 1_555
N24A C47A 1_555 1_555
O6A C9A 1_555 1_555
O7A Dy1A_2 1_555 1_555
O7A_2 Dy1A 1_555 1_555
O8A C20A 1_555 1_555
O9A C17A 1_555 1_555
O10A C23A 1_555 1_555
O11A C36A 1_555 1_555
O12A Dy1A 1_555 1_555
O13A Dy1A 1_555 1_555
O14A C39A 1_555 1_555
O15A C45A 1_555 1_555
O16A C50A 1_555 1_555
C5 C49 1_555 1_555
C10 N4 1_555 1_555
C11 N5 1_555 1_555
C11 N6 1_555 1_555
C12 N5 1_555 1_555
C13 N6 1_555 1_555
C14 O7 1_555 1_555
C15 N7 1_555 1_555
C15 N9 1_555 1_555
C16 N8 1_555 1_555
C17 N10 1_555 1_555
C18 N8 1_555 1_555
C19 N10 1_555 1_555
C20 N12 1_555 1_555
C21 N11 1_555 1_555
C21 N13 1_555 1_555
C22 N12 1_555 1_555
C23 N14 1_555 1_555
C38 N16 1_555 1_555
C39 N18 1_555 1_555
C40 N16 1_555 1_555
C41 N18 1_555 1_555
C42 O12 1_555 1_555
C43 N19 1_555 1_555
C43 N21 1_555 1_555
C44 N20 1_555 1_555
C45 N22 1_555 1_555
C46 N20 1_555 1_555
C47 N22 1_555 1_555
C48 N23 1_555 1_555
C48 O13 1_555 1_555
C49 N23 1_555 1_555
C49 N24 1_555 1_555
C50 N24 1_555 1_555
C51 N15 1_555 1_555
C52 N17 1_555 1_555
C4A N2A 1_555 1_555
C4A N3A 1_555 1_555
C5A C49A 1_555 1_555
C10A N4A 1_555 1_555
C11A N5A 1_555 1_555
C11A N6A 1_555 1_555
C12A N5A 1_555 1_555
C13A N6A 1_555 1_555
C14A O7A 1_555 1_555
C15A N7A 1_555 1_555
C15A N9A 1_555 1_555
C16A N8A 1_555 1_555
C17A N10A 1_555 1_555
C18A N8A 1_555 1_555
C19A N10A 1_555 1_555
C20A N12A 1_555 1_555
C21A N11A 1_555 1_555
C21A N13A 1_555 1_555
C22A N12A 1_555 1_555
C22A N14A 1_555 1_555
C23A N14A 1_555 1_555
C26A C27A 1_555 1_555
C38A N16A 1_555 1_555
C39A N18A 1_555 1_555
C40A N16A 1_555 1_555
C41A N18A 1_555 1_555
C42A O12A 1_555 1_555
C43A N19A 1_555 1_555
C43A N21A 1_555 1_555
C44A N20A 1_555 1_555
C45A N22A 1_555 1_555
C46A N20A 1_555 1_555
C47A N22A 1_555 1_555
C48A N23A 1_555 1_555
C48A O13A 1_555 1_555
C49A N23A 1_555 1_555
C49A N24A 1_555 1_555
C50A N24A 1_555 1_555
C51A N15A 1_555 1_555
C52A N17A 1_555 1_555

#END
