
#######################################################################
#
#                 Cambridge Crystallographic Data Centre
#                                CCDC 
#
#######################################################################
#
# If this CIF has been generated from an entry in the Cambridge 
# Structural Database, then it will include bibliographic, chemical, 
# crystal, experimental, refinement or atomic coordinate data resulting 
# from the CCDC's data processing and validation procedures.
#
#######################################################################

data_TEPMEI
_symmetry_cell_setting           triclinic
_symmetry_space_group_name_H-M   'P -1'
_symmetry_Int_Tables_number      2
_space_group_name_Hall           '-P 1'
loop_
_symmetry_equiv_pos_site_id
_symmetry_equiv_pos_as_xyz
1 x,y,z
2 -x,-y,-z
_cell_length_a                   15.8602(7)
_cell_length_b                   15.9685(6)
_cell_length_c                   18.0548(8)
_cell_angle_alpha                74.9100(10)
_cell_angle_beta                 89.449(2)
_cell_angle_gamma                63.4040(10)
_cell_volume                     3917.39
loop_
_atom_site_label
_atom_site_type_symbol
_atom_site_fract_x
_atom_site_fract_y
_atom_site_fract_z
N25 N 1.0673(2) 0.2185(3) 0.0869(2)
O17 O 1.0454(3) 0.1700(3) 0.1423(2)
O18 O 1.1263(3) 0.1772(3) 0.0474(2)
O19 O 1.0261(2) 0.3085(2) 0.07122(19)
N26 N 1.0924(3) 0.4357(3) 0.3338(2)
O20 O 1.0341(2) 0.4932(2) 0.36816(19)
O21 O 1.0724(3) 0.4453(3) 0.2665(2)
O22 O 1.1716(3) 0.3710(3) 0.3678(2)
N27 N 0.4919(2) 0.0528(2) 0.69642(17)
O23 O 0.4916(2) 0.0059(2) 0.65205(18)
O24 O 0.4552(2) 0.0445(2) 0.75713(16)
O25 O 0.5285(3) 0.1083(3) 0.6812(2)
O1 O 0.75720(17) 0.44501(16) 0.21610(13)
O2 O 0.93693(16) 0.27425(17) 0.23565(13)
O3 O 0.89198(16) 0.12394(16) 0.25526(13)
O4 O 0.62573(16) 0.37932(17) 0.22657(14)
Yb1 Yb 0.785111(9) 0.283816(9) 0.237285(7)
C1 C 0.6926(2) 0.1847(2) 0.12532(17)
C2 C 0.6207(2) 0.1239(2) 0.05536(17)
C3 C 0.7120(2) 0.1216(2) 0.01938(18)
C4 C 0.5789(2) 0.2223(2) -0.07347(18)
C5 C 0.8387(2) 0.1618(2) 0.06682(17)
H1 H 0.8646 0.1527 0.1190
H2 H 0.8841 0.1078 0.0485
C6 C 0.7292(2) 0.2121(2) -0.11607(18)
H3 H 0.6935 0.2317 -0.1668
H4 H 0.7883 0.1524 -0.1125
C7 C 0.8114(2) 0.3315(2) 0.04222(18)
C8 C 0.8368(2) 0.2727(2) -0.06570(17)
C9 C 0.8311(2) 0.3770(2) -0.08824(17)
C10 C 0.7056(2) 0.3813(2) -0.15978(18)
C11 C 0.8116(2) 0.4889(2) -0.00210(18)
H5 H 0.8228 0.4772 0.0538
H6 H 0.8653 0.4956 -0.0249
C12 C 0.7229(2) 0.5316(2) -0.19888(18)
H7 H 0.7808 0.5361 -0.2133
H8 H 0.6861 0.5414 -0.2464
C13 C 0.6711(2) 0.6290(2) 0.01532(18)
C14 C 0.7072(2) 0.6424(2) -0.11238(18)
C15 C 0.6203(2) 0.7405(2) -0.10866(18)
C16 C 0.5726(2) 0.6697(2) -0.18835(17)
C17 C 0.5519(2) 0.7957(2) 0.00960(19)
H9 H 0.5528 0.8572 -0.0168
H10 H 0.5798 0.7757 0.0634
C18 C 0.5524(2) 0.1755(2) 0.17639(18)
H11 H 0.5813 0.1798 0.2221
H12 H 0.5471 0.1147 0.1911
C19 C 0.6280(2) 0.0223(2) 0.0862(2)
H13 H 0.6253 -0.0032 0.0429
H14 H 0.5744 0.0259 0.1150
C20 C 0.7217(3) -0.0463(2) 0.1393(2)
H15 H 0.7225 -0.0219 0.1837
H16 H 0.7256 -0.1114 0.1589
C21 C 0.8083(3) -0.0544(2) 0.0974(2)
H17 H 0.8508 -0.0443 0.1291
H18 H 0.8429 -0.1207 0.0923
C22 C 0.7827(2) 0.0190(2) 0.0171(2)
H19 H 0.8405 0.0198 -0.0018
H20 H 0.7551 -0.0013 -0.0188
C23 C 0.9284(2) 0.1968(2) -0.08449(19)
H21 H 0.9822 0.1829 -0.0488
H22 H 0.9245 0.1358 -0.0783
C24 C 0.9436(2) 0.2353(2) -0.16735(19)
H23 H 0.8894 0.2490 -0.2026
H24 H 1.0008 0.1848 -0.1800
C25 C 0.9545(3) 0.3285(3) -0.1800(2)
H25 H 1.0214 0.3125 -0.1842
H26 H 0.9171 0.3754 -0.2289
C26 C 0.9222(2) 0.3763(2) -0.11449(19)
H27 H 0.9724 0.3409 -0.0705
H28 H 0.9128 0.4437 -0.1321
C27 C 0.7911(2) 0.6588(2) -0.1395(2)
H29 H 0.8418 0.5975 -0.1450
H30 H 0.8157 0.6770 -0.1000
C28 C 0.7652(3) 0.7383(3) -0.2162(2)
H31 H 0.7594 0.7121 -0.2582
H32 H 0.8168 0.7563 -0.2245
C29 C 0.6723(3) 0.8302(3) -0.2196(2)
H33 H 0.6823 0.8879 -0.2389
H34 H 0.6237 0.8353 -0.2560
C30 C 0.6366(2) 0.8290(2) -0.14073(19)
H35 H 0.6834 0.8278 -0.1048
H36 H 0.5771 0.8887 -0.1456
C31 C 0.8684(2) -0.0966(2) 0.35977(18)
C32 C 0.9006(2) -0.2383(2) 0.46134(18)
C33 C 0.7988(2) -0.1547(2) 0.46326(18)
C34 C 0.8954(2) -0.1988(2) 0.57866(18)
C35 C 0.7079(2) 0.0203(2) 0.37212(18)
H37 H 0.6528 0.0079 0.3701
H38 H 0.7132 0.0518 0.3192
C36 C 0.7266(2) -0.0861(2) 0.57595(18)
H39 H 0.6724 -0.0952 0.5620
H40 H 0.7434 -0.1133 0.6321
C37 C 0.6975(2) 0.1711(2) 0.38970(18)
C38 C 0.6386(2) 0.0897(2) 0.48604(18)
C39 C 0.6217(2) 0.1887(2) 0.50043(18)
C40 C 0.7190(2) 0.0569(2) 0.60687(18)
C41 C 0.6538(2) 0.3267(2) 0.41672(17)
H41 H 0.6492 0.3525 0.3606
H42 H 0.5962 0.3710 0.4339
C42 C 0.6892(3) 0.2179(2) 0.61559(18)
H43 H 0.7055 0.1824 0.6708
H44 H 0.6269 0.2750 0.6090
C43 C 0.8132(2) 0.3149(2) 0.41748(17)
C44 C 0.7416(2) 0.3386(2) 0.52926(17)
C45 C 0.8385(2) 0.3429(2) 0.53409(18)
C46 C 0.8464(2) 0.2099(2) 0.63330(18)
C47 C 0.9560(2) 0.3355(2) 0.43298(18)
H45 H 0.9494 0.3471 0.3768
H46 H 0.9539 0.3939 0.4429
C48 C 0.9836(2) 0.2417(2) 0.64041(18)
H47 H 0.9807 0.3038 0.6421
H48 H 0.9917 0.2021 0.6939
C49 C 0.8972(2) -0.3286(2) 0.4533(2)
H49 H 0.8773 -0.3581 0.5003
H50 H 0.9610 -0.3763 0.4478
C50 C 0.8286(3) -0.3048(3) 0.3836(2)
H51 H 0.8216 -0.3630 0.3847
H52 H 0.8557 -0.2882 0.3363
C51 C 0.7305(3) -0.2200(3) 0.3811(2)
H53 H 0.7187 -0.1660 0.3348
H54 H 0.6820 -0.2414 0.3771
C52 C 0.7212(2) -0.1836(2) 0.4525(2)
H55 H 0.6588 -0.1270 0.4469
H56 H 0.7259 -0.2351 0.4984
C53 C 0.5450(2) 0.0880(2) 0.47183(19)
H57 H 0.5161 0.0835 0.5200
H58 H 0.5568 0.0304 0.4551
C54 C 0.4770(2) 0.1806(3) 0.4098(2)
H59 H 0.4178 0.1776 0.4007
H60 H 0.5054 0.1833 0.3614
C55 C 0.4543(2) 0.2739(3) 0.4325(2)
H61 H 0.3876 0.3038 0.4418
H62 H 0.4625 0.3205 0.3894
C56 C 0.5179(2) 0.2542(2) 0.5051(2)
H63 H 0.5108 0.3164 0.5107
H64 H 0.4977 0.2228 0.5509
C57 C 0.6573(2) 0.4302(2) 0.5381(2)
H65 H 0.6006 0.4203 0.5419
H66 H 0.6447 0.4855 0.4926
C58 C 0.6794(3) 0.4524(3) 0.6107(2)
H67 H 0.6881 0.3985 0.6561
H68 H 0.6253 0.5118 0.6158
C59 C 0.7691(3) 0.4663(3) 0.6084(3)
H69 H 0.7509 0.5345 0.6057
H70 H 0.8113 0.4249 0.6567
C60 C 0.8236(3) 0.4419(2) 0.5408(2)
H71 H 0.8854 0.4404 0.5482
H72 H 0.7882 0.4928 0.4929
N1 N 0.61525(18) 0.17057(18) 0.11689(15)
N2 N 0.74989(18) 0.15680(19) 0.07088(14)
N3 N 0.54593(18) 0.18728(19) -0.00863(15)
N4 N 0.67394(19) 0.19041(19) -0.05681(15)
N5 N 0.83051(19) 0.25245(19) 0.01681(14)
N6 N 0.80908(18) 0.40468(18) -0.01595(15)
N7 N 0.75257(19) 0.28843(19) -0.11092(15)
N8 N 0.74998(19) 0.43376(18) -0.14908(14)
N9 N 0.72595(18) 0.57976(18) -0.03305(15)
N10 N 0.61014(18) 0.72202(19) -0.02689(15)
N11 N 0.66760(18) 0.61024(18) -0.16561(15)
N12 N 0.54276(18) 0.74252(18) -0.15383(15)
N13 N 0.93379(19) -0.19160(19) 0.39518(15)
N14 N 0.79190(19) -0.07210(18) 0.40029(15)
N15 N 0.95209(19) -0.25377(19) 0.53454(15)
N16 N 0.80650(19) -0.14086(19) 0.53901(15)
N17 N 0.69014(19) 0.08776(19) 0.41801(14)
N18 N 0.65755(19) 0.23137(19) 0.43436(15)
N19 N 0.69771(19) 0.01751(19) 0.55580(15)
N20 N 0.68213(19) 0.15553(19) 0.57375(15)
N21 N 0.73529(19) 0.32594(19) 0.45256(15)
N22 N 0.87549(18) 0.32319(18) 0.46280(14)
N23 N 0.75946(19) 0.25152(19) 0.59134(15)
N24 N 0.89313(19) 0.26209(19) 0.60211(15)
O5 O 0.70886(16) 0.21654(16) 0.17579(12)
O6 O 0.80040(16) 0.33388(15) 0.10948(12)
O7 O 0.67539(17) 0.59603(17) 0.08522(13)
O8 O 0.53185(17) 0.27299(17) -0.13600(13)
O9 O 0.63617(18) 0.41128(17) -0.20658(14)
O10 O 0.52371(16) 0.66069(16) -0.23466(13)
O11 O 0.87610(17) -0.04435(16) 0.29980(13)
O12 O 0.73308(16) 0.18977(16) 0.33047(12)
O13 O 0.82647(15) 0.30111(16) 0.35320(12)
O14 O 0.91927(17) -0.20116(17) 0.64353(13)
O15 O 0.76261(17) 0.01221(17) 0.67124(13)
O16 O 0.87664(18) 0.13909(17) 0.69097(13)
O1A O 0.24280(17) 0.55499(16) -0.21610(13)
O2A O 0.06307(16) 0.72575(17) -0.23565(13)
O3A O 0.10802(16) 0.87606(16) -0.25526(13)
O4A O 0.37427(16) 0.62068(17) -0.22657(14)
Yb1A Yb 0.214889(9) 0.716184(9) -0.237285(7)
Yb1A_2 Yb 1.214889(9) -0.283816(9) 0.762715(7)
C1A C 0.3074(2) 0.8153(2) -0.12532(17)
C2A C 0.3793(2) 0.8761(2) -0.05536(17)
C3A C 0.2880(2) 0.8784(2) -0.01938(18)
C4A C 0.4211(2) 0.7777(2) 0.07347(18)
C5A C 0.1613(2) 0.8382(2) -0.06682(17)
H1A H 0.1354 0.8473 -0.1190
H2A H 0.1159 0.8922 -0.0485
C6A C 0.2708(2) 0.7879(2) 0.11607(18)
H3A H 0.3065 0.7683 0.1668
H4A H 0.2117 0.8476 0.1125
C7A C 0.1886(2) 0.6685(2) -0.04222(18)
C8A C 0.1632(2) 0.7273(2) 0.06570(17)
C9A C 0.1689(2) 0.6230(2) 0.08824(17)
C10A C 0.2944(2) 0.6187(2) 0.15978(18)
C11A C 0.1884(2) 0.5111(2) 0.00210(18)
H5A H 0.1772 0.5228 -0.0538
H6A H 0.1347 0.5044 0.0249
C12A C 0.2771(2) 0.4684(2) 0.19888(18)
H7A H 0.2192 0.4639 0.2133
H8A H 0.3139 0.4586 0.2464
C13A C 0.3289(2) 0.3710(2) -0.01532(18)
C14A C 0.2928(2) 0.3576(2) 0.11238(18)
C15A C 0.3797(2) 0.2595(2) 0.10866(18)
C16A C 0.4274(2) 0.3303(2) 0.18835(17)
C17A C 0.4481(2) 0.2043(2) -0.00960(19)
H9A H 0.4472 0.1428 0.0168
H10A H 0.4202 0.2243 -0.0634
C18A C 0.4476(2) 0.8245(2) -0.17639(18)
H11A H 0.4187 0.8202 -0.2221
H12A H 0.4529 0.8853 -0.1911
C19A C 0.3720(2) 0.9777(2) -0.0862(2)
H13A H 0.3747 1.0032 -0.0429
H14A H 0.4256 0.9741 -0.1150
C20A C 0.2783(3) 1.0463(2) -0.1393(2)
H15A H 0.2775 1.0219 -0.1837
H16A H 0.2744 1.1114 -0.1589
C21A C 0.1917(3) 1.0544(2) -0.0974(2)
H17A H 0.1492 1.0443 -0.1291
H18A H 0.1571 1.1207 -0.0923
C22A C 0.2173(2) 0.9810(2) -0.0171(2)
H19A H 0.1595 0.9802 0.0018
H20A H 0.2449 1.0013 0.0188
C23A C 0.0716(2) 0.8032(2) 0.08449(19)
H21A H 0.0178 0.8171 0.0488
H22A H 0.0755 0.8642 0.0783
C24A C 0.0564(2) 0.7647(2) 0.16735(19)
H23A H 0.1106 0.7510 0.2026
H24A H -0.0008 0.8152 0.1800
C25A C 0.0455(3) 0.6715(3) 0.1800(2)
H25A H -0.0214 0.6875 0.1842
H26A H 0.0829 0.6246 0.2289
C26A C 0.0778(2) 0.6237(2) 0.11449(19)
H27A H 0.0276 0.6591 0.0705
H28A H 0.0872 0.5563 0.1321
C27A C 0.2089(2) 0.3412(2) 0.1395(2)
H29A H 0.1582 0.4025 0.1450
H30A H 0.1843 0.3230 0.1000
C28A C 0.2348(3) 0.2617(3) 0.2162(2)
H31A H 0.2406 0.2879 0.2582
H32A H 0.1832 0.2437 0.2245
C29A C 0.3277(3) 0.1698(3) 0.2196(2)
H33A H 0.3177 0.1121 0.2389
H34A H 0.3763 0.1647 0.2560
C30A C 0.3634(2) 0.1710(2) 0.14073(19)
H35A H 0.3166 0.1722 0.1048
H36A H 0.4229 0.1113 0.1456
C31A C 1.1316(2) 0.0966(2) 0.64023(18)
C32A C 1.0994(2) 0.2383(2) 0.53866(18)
C33A C 1.2012(2) 0.1547(2) 0.53674(18)
C34A C 1.1046(2) 0.1988(2) 0.42134(18)
C35A C 1.2921(2) -0.0203(2) 0.62788(18)
H37A H 1.3472 -0.0079 0.6299
H38A H 1.2868 -0.0518 0.6808
C36A C 1.2734(2) 0.0861(2) 0.42405(18)
H39A H 1.3276 0.0952 0.4380
H40A H 1.2566 0.1133 0.3679
C37A C 1.3025(2) -0.1711(2) 0.61030(18)
C38A C 1.3614(2) -0.0897(2) 0.51396(18)
C39A C 1.3783(2) -0.1887(2) 0.49957(18)
C40A C 1.2810(2) -0.0569(2) 0.39313(18)
C41A C 1.3462(2) -0.3267(2) 0.58328(17)
H41A H 1.3508 -0.3525 0.6394
H42A H 1.4038 -0.3710 0.5661
C42A C 1.3108(3) -0.2179(2) 0.38441(18)
H43A H 1.2945 -0.1824 0.3292
H44A H 1.3731 -0.2750 0.3910
C43A C 1.1868(2) -0.3149(2) 0.58252(17)
C44A C 1.2584(2) -0.3386(2) 0.47074(17)
C45A C 1.1615(2) -0.3429(2) 0.46591(18)
C46A C 1.1536(2) -0.2099(2) 0.36670(18)
C47A C 1.0440(2) -0.3355(2) 0.56702(18)
H45A H 1.0506 -0.3471 0.6232
H46A H 1.0461 -0.3939 0.5571
C48A C 1.0164(2) -0.2417(2) 0.35959(18)
H47A H 1.0193 -0.3038 0.3579
H48A H 1.0083 -0.2021 0.3061
C49A C 1.1028(2) 0.3286(2) 0.5467(2)
H49A H 1.1227 0.3581 0.4997
H50A H 1.0390 0.3763 0.5522
C50A C 1.1714(3) 0.3048(3) 0.6164(2)
H51A H 1.1784 0.3630 0.6153
H52A H 1.1443 0.2882 0.6637
C51A C 1.2695(3) 0.2200(3) 0.6189(2)
H53A H 1.2813 0.1660 0.6652
H54A H 1.3180 0.2414 0.6229
C52A C 1.2788(2) 0.1836(2) 0.5475(2)
H55A H 1.3412 0.1270 0.5531
H56A H 1.2741 0.2351 0.5016
C53A C 1.4550(2) -0.0880(2) 0.52817(19)
H57A H 1.4839 -0.0835 0.4800
H58A H 1.4432 -0.0304 0.5449
C54A C 1.5230(2) -0.1806(3) 0.5902(2)
H59A H 1.5822 -0.1776 0.5993
H60A H 1.4946 -0.1833 0.6386
C55A C 1.5457(2) -0.2739(3) 0.5675(2)
H61A H 1.6124 -0.3038 0.5582
H62A H 1.5375 -0.3205 0.6106
C56A C 1.4821(2) -0.2542(2) 0.4949(2)
H63A H 1.4892 -0.3164 0.4893
H64A H 1.5023 -0.2228 0.4491
C57A C 1.3427(2) -0.4302(2) 0.4619(2)
H65A H 1.3994 -0.4203 0.4581
H66A H 1.3553 -0.4855 0.5074
C58A C 1.3206(3) -0.4524(3) 0.3893(2)
H67A H 1.3119 -0.3985 0.3439
H68A H 1.3747 -0.5118 0.3842
C59A C 1.2309(3) -0.4663(3) 0.3916(3)
H69A H 1.2491 -0.5345 0.3943
H70A H 1.1887 -0.4249 0.3433
C60A C 1.1764(3) -0.4419(2) 0.4592(2)
H71A H 1.1146 -0.4404 0.4518
H72A H 1.2118 -0.4928 0.5071
N1A N 0.38475(18) 0.82943(18) -0.11689(15)
N2A N 0.25011(18) 0.84320(19) -0.07088(14)
N3A N 0.45407(18) 0.81272(19) 0.00863(15)
N4A N 0.32606(19) 0.80959(19) 0.05681(15)
N5A N 0.16949(19) 0.74755(19) -0.01681(14)
N6A N 0.19092(18) 0.59532(18) 0.01595(15)
N7A N 0.24743(19) 0.71157(19) 0.11092(15)
N8A N 0.25002(19) 0.56624(18) 0.14908(14)
N9A N 0.27405(18) 0.42024(18) 0.03305(15)
N10A N 0.38986(18) 0.27798(19) 0.02689(15)
N11A N 0.33240(18) 0.38976(18) 0.16561(15)
N12A N 0.45724(18) 0.25748(18) 0.15383(15)
N13A N 1.06621(19) 0.19160(19) 0.60482(15)
N14A N 1.20810(19) 0.07210(18) 0.59971(15)
N15A N 1.04791(19) 0.25377(19) 0.46546(15)
N16A N 1.19350(19) 0.14086(19) 0.46099(15)
N17A N 1.30986(19) -0.08776(19) 0.58199(14)
N18A N 1.34245(19) -0.23137(19) 0.56564(15)
N19A N 1.30229(19) -0.01751(19) 0.44420(15)
N20A N 1.31787(19) -0.15553(19) 0.42625(15)
N21A N 1.26471(19) -0.32594(19) 0.54744(15)
N22A N 1.12451(18) -0.32319(18) 0.53720(14)
N23A N 1.24054(19) -0.25152(19) 0.40866(15)
N24A N 1.10687(19) -0.26209(19) 0.39789(15)
O5A O 0.29114(16) 0.78346(16) -0.17579(12)
O6A O 0.19960(16) 0.66612(15) -0.10948(12)
O7A O 0.32461(17) 0.40397(17) -0.08522(13)
O8A O 0.46815(17) 0.72701(17) 0.13600(13)
O9A O 0.36383(18) 0.58872(17) 0.20658(14)
O10A O 0.47629(16) 0.33931(16) 0.23466(13)
O11A O 1.12390(17) 0.04435(16) 0.70020(13)
O12A O 1.26692(16) -0.18977(16) 0.66953(12)
O12A_2 O 0.26692(16) 0.81023(16) -0.33047(12)
O13A O 1.17353(15) -0.30111(16) 0.64680(12)
O13A_2 O 0.17353(15) 0.69889(16) -0.35320(12)
O14A O 1.08073(17) 0.20116(17) 0.35647(13)
O15A O 1.23739(17) -0.01221(17) 0.32876(13)
O16A O 1.12336(18) -0.13909(17) 0.30903(13)
loop_
_geom_bond_atom_site_label_1
_geom_bond_atom_site_label_2
_geom_bond_site_symmetry_1
_geom_bond_site_symmetry_2
O1 Yb1 1_555 1_555
O2 Yb1 1_555 1_555
O3 Yb1 1_555 1_555
O4 Yb1 1_555 1_555
Yb1 O5 1_555 1_555
C1 N1 1_555 1_555
C2 C3 1_555 1_555
C3 C22 1_555 1_555
C4 N3 1_555 1_555
C5 H1 1_555 1_555
H2 C5 1_555 1_555
C6 H3 1_555 1_555
H4 C6 1_555 1_555
C7 N5 1_555 1_555
C8 C9 1_555 1_555
C9 C26 1_555 1_555
C10 N7 1_555 1_555
C11 H5 1_555 1_555
H6 C11 1_555 1_555
C12 H7 1_555 1_555
H8 C12 1_555 1_555
C13 N9 1_555 1_555
C14 C15 1_555 1_555
C15 C30 1_555 1_555
C16 N11 1_555 1_555
C17 H9 1_555 1_555
H10 C17 1_555 1_555
C18 H11 1_555 1_555
H12 C18 1_555 1_555
C19 C2 1_555 1_555
H13 C19 1_555 1_555
H14 C19 1_555 1_555
C20 C19 1_555 1_555
H15 C20 1_555 1_555
H16 C20 1_555 1_555
C21 C20 1_555 1_555
H17 C21 1_555 1_555
H18 C21 1_555 1_555
C22 C21 1_555 1_555
H19 C22 1_555 1_555
H20 C22 1_555 1_555
C23 C8 1_555 1_555
H21 C23 1_555 1_555
H22 C23 1_555 1_555
C24 C23 1_555 1_555
H23 C24 1_555 1_555
H24 C24 1_555 1_555
C25 C24 1_555 1_555
H25 C25 1_555 1_555
H26 C25 1_555 1_555
C26 C25 1_555 1_555
H27 C26 1_555 1_555
H28 C26 1_555 1_555
C27 C14 1_555 1_555
H29 C27 1_555 1_555
H30 C27 1_555 1_555
C28 C27 1_555 1_555
H31 C28 1_555 1_555
H32 C28 1_555 1_555
C29 C28 1_555 1_555
H33 C29 1_555 1_555
H34 C29 1_555 1_555
C30 C29 1_555 1_555
H35 C30 1_555 1_555
H36 C30 1_555 1_555
C31 N13 1_555 1_555
C32 C33 1_555 1_555
C33 C52 1_555 1_555
C34 N15 1_555 1_555
C35 H37 1_555 1_555
H38 C35 1_555 1_555
C36 H39 1_555 1_555
H40 C36 1_555 1_555
C37 N17 1_555 1_555
C38 C39 1_555 1_555
C39 C56 1_555 1_555
C40 N19 1_555 1_555
C41 H41 1_555 1_555
H42 C41 1_555 1_555
C42 H43 1_555 1_555
H44 C42 1_555 1_555
C43 N21 1_555 1_555
C44 C45 1_555 1_555
C45 C60 1_555 1_555
C46 N23 1_555 1_555
C47 H45 1_555 1_555
H46 C47 1_555 1_555
C48 H47 1_555 1_555
H48 C48 1_555 1_555
C49 C32 1_555 1_555
H49 C49 1_555 1_555
H50 C49 1_555 1_555
C50 C49 1_555 1_555
H51 C50 1_555 1_555
H52 C50 1_555 1_555
C51 C50 1_555 1_555
H53 C51 1_555 1_555
H54 C51 1_555 1_555
C52 C51 1_555 1_555
H55 C52 1_555 1_555
H56 C52 1_555 1_555
C53 C38 1_555 1_555
H57 C53 1_555 1_555
H58 C53 1_555 1_555
C54 C53 1_555 1_555
H59 C54 1_555 1_555
H60 C54 1_555 1_555
C55 C54 1_555 1_555
H61 C55 1_555 1_555
H62 C55 1_555 1_555
C56 C55 1_555 1_555
H63 C56 1_555 1_555
H64 C56 1_555 1_555
C57 C44 1_555 1_555
H65 C57 1_555 1_555
H66 C57 1_555 1_555
C58 C57 1_555 1_555
H67 C58 1_555 1_555
H68 C58 1_555 1_555
C59 C58 1_555 1_555
H69 C59 1_555 1_555
H70 C59 1_555 1_555
C60 C59 1_555 1_555
H71 C60 1_555 1_555
H72 C60 1_555 1_555
N1 C2 1_555 1_555
N2 C1 1_555 1_555
N3 C2 1_555 1_555
N4 C3 1_555 1_555
N5 C5 1_555 1_555
N6 C7 1_555 1_555
N7 C6 1_555 1_555
N8 C9 1_555 1_555
N9 C11 1_555 1_555
N10 C13 1_555 1_555
N11 C12 1_555 1_555
N12 C15 1_555 1_555
N13 C32 1_555 1_555
N14 C31 1_555 1_555
N15 C32 1_555 1_555
N16 C33 1_555 1_555
N17 C35 1_555 1_555
N18 C37 1_555 1_555
N19 C36 1_555 1_555
N20 C39 1_555 1_555
N21 C41 1_555 1_555
N22 C43 1_555 1_555
N23 C42 1_555 1_555
N24 C45 1_555 1_555
O5 C1 1_555 1_555
O6 Yb1 1_555 1_555
O7 C13 1_555 1_555
O8 C4 1_555 1_555
O9 C10 1_555 1_555
O10 C16 1_555 1_555
O11 C31 1_555 1_555
O12 Yb1 1_555 1_555
O13 Yb1 1_555 1_555
O14 C34 1_555 1_555
O15 C40 1_555 1_555
O16 C46 1_555 1_555
N25 O17 1_555 1_555
N26 O20 1_555 1_555
N27 O23 1_555 1_555
O18 N25 1_555 1_555
O19 N25 1_555 1_555
O21 N26 1_555 1_555
O22 N26 1_555 1_555
O24 N27 1_555 1_555
O25 N27 1_555 1_555
O1A Yb1A 1_555 1_555
O2A Yb1A 1_555 1_555
O3A Yb1A 1_555 1_555
O4A Yb1A 1_555 1_555
Yb1A O5A 1_555 1_555
Yb1A_2 O12A 1_555 1_555
C1A N1A 1_555 1_555
C2A C3A 1_555 1_555
C3A C22A 1_555 1_555
C4A N3A 1_555 1_555
C5A H1A 1_555 1_555
H2A C5A 1_555 1_555
C6A H3A 1_555 1_555
H4A C6A 1_555 1_555
C7A N5A 1_555 1_555
C8A C9A 1_555 1_555
C9A C26A 1_555 1_555
C10A N7A 1_555 1_555
C11A H5A 1_555 1_555
H6A C11A 1_555 1_555
C12A H7A 1_555 1_555
H8A C12A 1_555 1_555
C13A N9A 1_555 1_555
C14A C15A 1_555 1_555
C15A C30A 1_555 1_555
C16A N11A 1_555 1_555
C17A N3 1_555 1_555
H9A C17A 1_555 1_555
H10A C17A 1_555 1_555
C18A N12 1_555 1_555
H11A C18A 1_555 1_555
H12A C18A 1_555 1_555
C19A C2A 1_555 1_555
H13A C19A 1_555 1_555
H14A C19A 1_555 1_555
C20A C19A 1_555 1_555
H15A C20A 1_555 1_555
H16A C20A 1_555 1_555
C21A C20A 1_555 1_555
H17A C21A 1_555 1_555
H18A C21A 1_555 1_555
C22A C21A 1_555 1_555
H19A C22A 1_555 1_555
H20A C22A 1_555 1_555
C23A C8A 1_555 1_555
H21A C23A 1_555 1_555
H22A C23A 1_555 1_555
C24A C23A 1_555 1_555
H23A C24A 1_555 1_555
H24A C24A 1_555 1_555
C25A C24A 1_555 1_555
H25A C25A 1_555 1_555
H26A C25A 1_555 1_555
C26A C25A 1_555 1_555
H27A C26A 1_555 1_555
H28A C26A 1_555 1_555
C27A C14A 1_555 1_555
H29A C27A 1_555 1_555
H30A C27A 1_555 1_555
C28A C27A 1_555 1_555
H31A C28A 1_555 1_555
H32A C28A 1_555 1_555
C29A C28A 1_555 1_555
H33A C29A 1_555 1_555
H34A C29A 1_555 1_555
C30A C29A 1_555 1_555
H35A C30A 1_555 1_555
H36A C30A 1_555 1_555
C31A N13A 1_555 1_555
C32A C33A 1_555 1_555
C33A C52A 1_555 1_555
C34A N15A 1_555 1_555
C35A H37A 1_555 1_555
H38A C35A 1_555 1_555
C36A H39A 1_555 1_555
H40A C36A 1_555 1_555
C37A N17A 1_555 1_555
C38A C39A 1_555 1_555
C39A C56A 1_555 1_555
C40A N19A 1_555 1_555
C41A H41A 1_555 1_555
H42A C41A 1_555 1_555
C42A H43A 1_555 1_555
H44A C42A 1_555 1_555
C43A N21A 1_555 1_555
C44A C45A 1_555 1_555
C45A C60A 1_555 1_555
C46A N23A 1_555 1_555
C47A N15 1_555 1_555
H45A C47A 1_555 1_555
H46A C47A 1_555 1_555
C48A N13 1_555 1_555
H47A C48A 1_555 1_555
H48A C48A 1_555 1_555
C49A C32A 1_555 1_555
H49A C49A 1_555 1_555
H50A C49A 1_555 1_555
C50A C49A 1_555 1_555
H51A C50A 1_555 1_555
H52A C50A 1_555 1_555
C51A C50A 1_555 1_555
H53A C51A 1_555 1_555
H54A C51A 1_555 1_555
C52A C51A 1_555 1_555
H55A C52A 1_555 1_555
H56A C52A 1_555 1_555
C53A C38A 1_555 1_555
H57A C53A 1_555 1_555
H58A C53A 1_555 1_555
C54A C53A 1_555 1_555
H59A C54A 1_555 1_555
H60A C54A 1_555 1_555
C55A C54A 1_555 1_555
H61A C55A 1_555 1_555
H62A C55A 1_555 1_555
C56A C55A 1_555 1_555
H63A C56A 1_555 1_555
H64A C56A 1_555 1_555
C57A C44A 1_555 1_555
H65A C57A 1_555 1_555
H66A C57A 1_555 1_555
C58A C57A 1_555 1_555
H67A C58A 1_555 1_555
H68A C58A 1_555 1_555
C59A C58A 1_555 1_555
H69A C59A 1_555 1_555
H70A C59A 1_555 1_555
C60A C59A 1_555 1_555
H71A C60A 1_555 1_555
H72A C60A 1_555 1_555
N1A C2A 1_555 1_555
N2A C1A 1_555 1_555
N3A C17 1_555 1_555
N4A C3A 1_555 1_555
N5A C5A 1_555 1_555
N6A C7A 1_555 1_555
N7A C6A 1_555 1_555
N8A C9A 1_555 1_555
N9A C11A 1_555 1_555
N10A C13A 1_555 1_555
N11A C12A 1_555 1_555
N12A C18 1_555 1_555
N13A C48 1_555 1_555
N14A C31A 1_555 1_555
N15A C47 1_555 1_555
N16A C33A 1_555 1_555
N17A C35A 1_555 1_555
N18A C37A 1_555 1_555
N19A C36A 1_555 1_555
N20A C39A 1_555 1_555
N21A C41A 1_555 1_555
N22A C43A 1_555 1_555
N23A C42A 1_555 1_555
N24A C45A 1_555 1_555
O5A C1A 1_555 1_555
O6A Yb1A 1_555 1_555
O7A C13A 1_555 1_555
O8A C4A 1_555 1_555
O9A C10A 1_555 1_555
O10A C16A 1_555 1_555
O11A C31A 1_555 1_555
O12A C37A 1_555 1_555
O12A_2 Yb1A 1_555 1_555
O13A Yb1A_2 1_555 1_555
O13A_2 Yb1A 1_555 1_555
O14A C34A 1_555 1_555
O15A C40A 1_555 1_555
O16A C46A 1_555 1_555
C3 N2 1_555 1_555
C4 N4 1_555 1_555
C5 N2 1_555 1_555
C6 N4 1_555 1_555
C7 O6 1_555 1_555
C8 N5 1_555 1_555
C8 N7 1_555 1_555
C9 N6 1_555 1_555
C10 N8 1_555 1_555
C11 N6 1_555 1_555
C12 N8 1_555 1_555
C14 N9 1_555 1_555
C14 N11 1_555 1_555
C15 N10 1_555 1_555
C16 N12 1_555 1_555
C17 N10 1_555 1_555
C18 N1 1_555 1_555
C33 N14 1_555 1_555
C34 N16 1_555 1_555
C35 N14 1_555 1_555
C36 N16 1_555 1_555
C37 O12 1_555 1_555
C38 N17 1_555 1_555
C38 N19 1_555 1_555
C39 N18 1_555 1_555
C40 N20 1_555 1_555
C41 N18 1_555 1_555
C42 N20 1_555 1_555
C43 O13 1_555 1_555
C44 N21 1_555 1_555
C44 N23 1_555 1_555
C45 N22 1_555 1_555
C46 N24 1_555 1_555
C47 N22 1_555 1_555
C48 N24 1_555 1_555
C2A N3A 1_555 1_555
C3A N2A 1_555 1_555
C4A N4A 1_555 1_555
C5A N2A 1_555 1_555
C6A N4A 1_555 1_555
C7A O6A 1_555 1_555
C8A N5A 1_555 1_555
C8A N7A 1_555 1_555
C9A N6A 1_555 1_555
C10A N8A 1_555 1_555
C11A N6A 1_555 1_555
C12A N8A 1_555 1_555
C14A N9A 1_555 1_555
C14A N11A 1_555 1_555
C15A N10A 1_555 1_555
C15A N12A 1_555 1_555
C16A N12A 1_555 1_555
C17A N10A 1_555 1_555
C18A N1A 1_555 1_555
C32A N13A 1_555 1_555
C32A N15A 1_555 1_555
C33A N14A 1_555 1_555
C34A N16A 1_555 1_555
C35A N14A 1_555 1_555
C36A N16A 1_555 1_555
C38A N17A 1_555 1_555
C38A N19A 1_555 1_555
C39A N18A 1_555 1_555
C40A N20A 1_555 1_555
C41A N18A 1_555 1_555
C42A N20A 1_555 1_555
C43A O13A 1_555 1_555
C44A N21A 1_555 1_555
C44A N23A 1_555 1_555
C45A N22A 1_555 1_555
C46A N24A 1_555 1_555
C47A N22A 1_555 1_555
C48A N24A 1_555 1_555

#END
