
#######################################################################
#
#                 Cambridge Crystallographic Data Centre
#                                CCDC 
#
#######################################################################
#
# If this CIF has been generated from an entry in the Cambridge 
# Structural Database, then it will include bibliographic, chemical, 
# crystal, experimental, refinement or atomic coordinate data resulting 
# from the CCDC's data processing and validation procedures.
#
#######################################################################

data_TEPMOS
_symmetry_cell_setting           triclinic
_symmetry_space_group_name_H-M   'P -1'
_symmetry_Int_Tables_number      2
_space_group_name_Hall           '-P 1'
loop_
_symmetry_equiv_pos_site_id
_symmetry_equiv_pos_as_xyz
1 x,y,z
2 -x,-y,-z
_cell_length_a                   15.8602(6)
_cell_length_b                   15.9876(6)
_cell_length_c                   18.2197(6)
_cell_angle_alpha                74.9540(10)
_cell_angle_beta                 89.0860(10)
_cell_angle_gamma                63.2820(10)
_cell_volume                     3957.89
loop_
_atom_site_label
_atom_site_type_symbol
_atom_site_fract_x
_atom_site_fract_y
_atom_site_fract_z
N25 N 0.0671(2) 0.7195(3) -0.41519(19)
O17 O 0.0481(3) 0.6705(2) -0.3581(2)
O18 O 0.0271(2) 0.8091(2) -0.43111(19)
O19 O 0.1229(3) 0.6786(3) -0.4562(2)
N26 N -0.5088(2) 0.5534(2) 0.19643(18)
O20 O -0.5089(2) 0.5067(2) 0.15181(17)
O21 O -0.4722(2) 0.6089(3) 0.18201(19)
O22 O -0.5464(2) 0.5447(2) 0.25673(16)
N27 N -0.9064(3) 0.9353(3) -0.1648(2)
O23 O -0.8269(2) 0.8702(3) -0.1313(2)
O24 O -0.9265(3) 0.9444(3) -0.2321(2)
O25 O -0.9654(2) 0.9928(2) -0.13146(19)
O1 O -0.24289(17) 0.95246(17) -0.28549(13)
O2 O -0.10270(16) 0.61888(17) -0.24599(14)
O3 O -0.05606(16) 0.77435(18) -0.26413(14)
O4 O -0.38047(17) 0.88514(18) -0.27091(15)
Eu1 Eu -0.214573(11) 0.785640(11) -0.263239(9)
C1 C -0.1324(2) 0.4026(2) -0.14061(19)
C2 C -0.0999(2) 0.2611(2) -0.03941(18)
C3 C -0.2015(2) 0.3449(2) -0.03740(18)
C4 C -0.1051(2) 0.3004(2) 0.07680(18)
C5 C -0.2930(2) 0.5200(2) -0.12680(18)
H1 H -0.3482 0.5081 -0.1286
H2 H -0.2877 0.5517 -0.1792
C6 C -0.2736(2) 0.4131(2) 0.07491(19)
H3 H -0.3277 0.4039 0.0610
H4 H -0.2570 0.3856 0.1305
C7 C -0.3019(2) 0.6703(2) -0.10880(18)
C8 C -0.3619(2) 0.5892(2) -0.01300(19)
C9 C -0.3776(2) 0.6879(2) 0.00185(18)
C10 C -0.2816(2) 0.5567(2) 0.10669(19)
C11 C -0.3446(2) 0.8250(2) -0.08083(19)
H5 H -0.3480 0.8502 -0.1364
H6 H -0.4027 0.8697 -0.0644
C12 C -0.3101(2) 0.7164(3) 0.11662(19)
H7 H -0.3724 0.7733 0.1111
H8 H -0.2931 0.6803 0.1710
C13 C -0.1863(2) 0.8162(2) -0.08026(18)
C14 C -0.2577(2) 0.8372(2) 0.03096(18)
C15 C -0.1618(2) 0.8421(2) 0.03638(18)
C16 C -0.1524(2) 0.7083(2) 0.13371(19)
C17 C 0.0438(2) 0.1632(2) 0.06478(18)
H9 H 0.0458 0.1051 0.0547
H10 H 0.0501 0.1515 0.1204
C18 C 0.0169(2) 0.2582(2) -0.14058(19)
H11 H 0.0206 0.1959 -0.1423
H12 H 0.0088 0.2977 -0.1935
C19 C -0.1030(2) 0.1708(2) -0.0477(2)
H13 H -0.1231 0.1412 -0.0013
H14 H -0.0391 0.1231 -0.0533
C20 C -0.1716(3) 0.1950(3) -0.1172(2)
H15 H -0.1787 0.1371 -0.1166
H16 H -0.1445 0.2120 -0.1641
C21 C -0.2700(3) 0.2799(3) -0.1184(2)
H17 H -0.2821 0.3341 -0.1641
H18 H -0.3186 0.2587 -0.1219
C22 C -0.2786(2) 0.3159(3) -0.0478(2)
H19 H -0.3411 0.3722 -0.0527
H20 H -0.2737 0.2642 -0.0025
C23 C -0.4554(2) 0.5880(2) -0.02714(19)
H21 H -0.4849 0.5841 0.0204
H22 H -0.4436 0.5305 -0.0436
C24 C -0.5226(2) 0.6808(3) -0.0889(2)
H23 H -0.5823 0.6786 -0.0979
H24 H -0.4937 0.6830 -0.1368
C25 C -0.5442(3) 0.7735(3) -0.0658(2)
H25 H -0.5348 0.8195 -0.1082
H26 H -0.6110 0.8044 -0.0568
C26 C -0.4818(2) 0.7536(2) 0.0060(2)
H27 H -0.4890 0.8157 0.0119
H28 H -0.5028 0.7225 0.0510
C27 C -0.3433(2) 0.9291(3) 0.0398(2)
H29 H -0.3554 0.9847 -0.0047
H30 H -0.4000 0.9192 0.0429
C28 C -0.3222(3) 0.9503(3) 0.1128(2)
H31 H -0.3139 0.8960 0.1572
H32 H -0.3766 1.0094 0.1183
C29 C -0.2328(3) 0.9645(3) 0.1118(2)
H33 H -0.1912 0.9227 0.1596
H34 H -0.2513 1.0324 0.1099
C30 C -0.1771(3) 0.9408(3) 0.0442(2)
H35 H -0.2121 0.9920 -0.0030
H36 H -0.1154 0.9393 0.0520
C31 C -0.5737(2) 0.8291(2) -0.31061(18)
C32 C -0.7076(2) 0.8564(2) -0.38587(18)
C33 C -0.6205(2) 0.7592(2) -0.39035(18)
C34 C -0.6722(2) 0.8701(2) -0.51323(19)
C35 C -0.4476(2) 0.6760(2) -0.32435(18)
H37 H -0.4522 0.6149 -0.3093
H38 H -0.4186 0.6808 -0.2795
C36 C -0.5527(2) 0.7041(2) -0.5082(2)
H39 H -0.5809 0.7239 -0.5612
H40 H -0.5532 0.6426 -0.4818
C37 C -0.3082(2) 0.6861(2) -0.37640(17)
C38 C -0.3800(2) 0.6253(2) -0.44590(18)
C39 C -0.2883(2) 0.6230(2) -0.48198(18)
C40 C -0.4220(2) 0.7228(2) -0.57282(19)
C41 C -0.1625(2) 0.6641(2) -0.43540(18)
H41 H -0.1167 0.6097 -0.4533
H42 H -0.1372 0.6556 -0.3838
C42 C -0.2725(2) 0.7143(2) -0.61639(19)
H43 H -0.2136 0.6547 -0.6138
H44 H -0.3088 0.7344 -0.6663
C43 C -0.1875(2) 0.8330(2) -0.46086(18)
C44 C -0.1632(2) 0.7733(2) -0.56754(18)
C45 C -0.1683(2) 0.8780(2) -0.59057(18)
C46 C -0.2949(2) 0.8818(2) -0.65984(18)
C47 C -0.8129(2) 1.0095(2) -0.49457(19)
H45 H -0.8245 1.0208 -0.5498
H46 H -0.8665 1.0028 -0.4712
C48 C -0.7242(2) 0.9683(2) -0.30058(18)
H47 H -0.7822 0.9642 -0.2859
H48 H -0.6875 0.9590 -0.2538
C49 C -0.7919(2) 0.8397(2) -0.3586(2)
H49 H -0.8428 0.9009 -0.3528
H50 H -0.8162 0.8211 -0.3975
C50 C -0.7655(3) 0.7607(3) -0.2829(2)
H51 H -0.8169 0.7424 -0.2742
H52 H -0.7599 0.7873 -0.2415
C51 C -0.6720(3) 0.6688(3) -0.2798(2)
H53 H -0.6235 0.6641 -0.2440
H54 H -0.6817 0.6109 -0.2605
C52 C -0.6367(2) 0.6702(2) -0.3582(2)
H55 H -0.6836 0.6714 -0.3934
H56 H -0.5771 0.6107 -0.3538
C53 C -0.3713(2) 0.5229(2) -0.4144(2)
H57 H -0.4243 0.5261 -0.3850
H58 H -0.3742 0.4969 -0.4569
C54 C -0.2776(3) 0.4553(3) -0.3632(2)
H59 H -0.2732 0.3901 -0.3437
H60 H -0.2768 0.4797 -0.3193
C55 C -0.1914(3) 0.4477(3) -0.4053(2)
H61 H -0.1491 0.4583 -0.3743
H62 H -0.1564 0.3815 -0.4105
C56 C -0.2175(2) 0.5206(2) -0.4843(2)
H63 H -0.2451 0.5000 -0.5194
H64 H -0.1599 0.5215 -0.5037
C57 C -0.0718(2) 0.6970(2) -0.58669(19)
H65 H -0.0178 0.6832 -0.5518
H66 H -0.0760 0.6363 -0.5802
C58 C -0.0567(2) 0.7346(3) -0.66871(19)
H67 H -0.1114 0.7493 -0.7031
H68 H -0.0002 0.6836 -0.6817
C59 C -0.0439(3) 0.8268(3) -0.6813(2)
H69 H -0.0805 0.8737 -0.7297
H70 H 0.0233 0.8096 -0.6854
C60 C -0.0761(2) 0.8752(3) -0.61643(19)
H71 H -0.0264 0.8393 -0.5728
H72 H -0.0843 0.9420 -0.6339
N1 N -0.06651(19) 0.3078(2) -0.10516(15)
N2 N -0.20856(19) 0.42703(19) -0.09935(15)
N3 N -0.04801(19) 0.2452(2) 0.03292(15)
N4 N -0.19376(19) 0.3587(2) 0.03811(15)
N5 N -0.30973(19) 0.58658(19) -0.08059(15)
N6 N -0.34159(18) 0.72999(19) -0.06361(15)
N7 N -0.30297(19) 0.51649(19) 0.05577(15)
N8 N -0.31751(19) 0.6542(2) 0.07403(15)
N9 N -0.26409(18) 0.82491(19) -0.04492(15)
N10 N 0.12478(19) 0.1751(2) 0.03537(15)
N11 N -0.2404(2) 0.7502(2) 0.09191(16)
N12 N 0.10647(19) 0.2389(2) -0.10292(15)
N13 N -0.66856(18) 0.88844(19) -0.33338(15)
N14 N -0.54271(18) 0.75686(19) -0.34574(15)
N15 N -0.72713(18) 0.91907(18) -0.46445(15)
N16 N -0.61052(18) 0.77739(19) -0.47179(15)
N17 N -0.38508(18) 0.67126(19) -0.38410(15)
N18 N -0.25084(18) 0.65870(19) -0.43111(15)
N19 N -0.45427(18) 0.68740(19) -0.50826(15)
N20 N -0.32710(18) 0.6919(2) -0.55729(15)
N21 N -0.16996(18) 0.75422(19) -0.48525(15)
N22 N -0.80999(18) 1.09416(18) -0.48119(15)
N23 N -0.24835(18) 0.78979(19) -0.61155(15)
N24 N -0.75093(18) 1.06539(19) -0.35014(15)
O5 O -0.12443(17) 0.45423(17) -0.20016(14)
O6 O -0.26682(17) 0.68909(17) -0.16745(13)
O7 O -0.17326(15) 0.80398(17) -0.14461(12)
O8 O -0.08118(16) 0.29787(17) 0.14128(13)
O9 O -0.23761(17) 0.51073(17) 0.17046(13)
O10 O -0.12293(18) 0.63773(18) 0.18993(14)
O11 O -0.52501(16) 0.83810(17) -0.26430(13)
O12 O -0.29199(15) 0.71725(17) -0.32592(12)
O13 O -0.19712(16) 0.83564(16) -0.39382(12)
O14 O -0.67632(17) 0.90300(17) -0.58213(13)
O15 O -0.46949(17) 0.77355(17) -0.63485(13)
O16 O -0.36453(17) 0.91271(18) -0.70596(14)
O1A O 0.24289(17) 0.04754(17) 0.28549(13)
O2A O 0.10270(16) 0.38112(17) 0.24599(14)
O3A O 0.05606(16) 0.22565(18) 0.26413(14)
O4A O 0.38047(17) 0.11486(18) 0.27091(15)
Eu1A Eu 0.214573(11) 0.214360(11) 0.263239(9)
Eu1A_2 Eu -0.785427(11) 1.214360(11) -0.736761(9)
C1A C 0.1324(2) 0.5974(2) 0.14061(19)
C2A C 0.0999(2) 0.7389(2) 0.03941(18)
C3A C 0.2015(2) 0.6551(2) 0.03740(18)
C4A C 0.1051(2) 0.6996(2) -0.07680(18)
C5A C 0.2930(2) 0.4800(2) 0.12680(18)
H1A H 0.3482 0.4919 0.1286
H2A H 0.2877 0.4483 0.1792
C6A C 0.2736(2) 0.5869(2) -0.07491(19)
H3A H 0.3277 0.5961 -0.0610
H4A H 0.2570 0.6144 -0.1305
C7A C 0.3019(2) 0.3297(2) 0.10880(18)
C8A C 0.3619(2) 0.4108(2) 0.01300(19)
C9A C 0.3776(2) 0.3121(2) -0.00185(18)
C10A C 0.2816(2) 0.4433(2) -0.10669(19)
C11A C 0.3446(2) 0.1750(2) 0.08083(19)
H5A H 0.3480 0.1498 0.1364
H6A H 0.4027 0.1303 0.0644
C12A C 0.3101(2) 0.2836(3) -0.11662(19)
H7A H 0.3724 0.2267 -0.1111
H8A H 0.2931 0.3197 -0.1710
C13A C 0.1863(2) 0.1838(2) 0.08026(18)
C14A C 0.2577(2) 0.1628(2) -0.03096(18)
C15A C 0.1618(2) 0.1579(2) -0.03638(18)
C16A C 0.1524(2) 0.2917(2) -0.13371(19)
C17A C -0.0438(2) 0.8368(2) -0.06478(18)
H9A H -0.0458 0.8949 -0.0547
H10A H -0.0501 0.8485 -0.1204
C18A C -0.0169(2) 0.7418(2) 0.14058(19)
H11A H -0.0206 0.8041 0.1423
H12A H -0.0088 0.7023 0.1935
C19A C 0.1030(2) 0.8292(2) 0.0477(2)
H13A H 0.1231 0.8588 0.0013
H14A H 0.0391 0.8769 0.0533
C20A C 0.1716(3) 0.8050(3) 0.1172(2)
H15A H 0.1787 0.8629 0.1166
H16A H 0.1445 0.7880 0.1641
C21A C 0.2700(3) 0.7201(3) 0.1184(2)
H17A H 0.2821 0.6659 0.1641
H18A H 0.3186 0.7413 0.1219
C22A C 0.2786(2) 0.6841(3) 0.0478(2)
H19A H 0.3411 0.6278 0.0527
H20A H 0.2737 0.7358 0.0025
C23A C 0.4554(2) 0.4120(2) 0.02714(19)
H21A H 0.4849 0.4159 -0.0204
H22A H 0.4436 0.4695 0.0436
C24A C 0.5226(2) 0.3192(3) 0.0889(2)
H23A H 0.5823 0.3214 0.0979
H24A H 0.4937 0.3170 0.1368
C25A C 0.5442(3) 0.2265(3) 0.0658(2)
H25A H 0.5348 0.1805 0.1082
H26A H 0.6110 0.1956 0.0568
C26A C 0.4818(2) 0.2464(2) -0.0060(2)
H27A H 0.4890 0.1843 -0.0119
H28A H 0.5028 0.2775 -0.0510
C27A C 0.3433(2) 0.0709(3) -0.0398(2)
H29A H 0.3554 0.0153 0.0047
H30A H 0.4000 0.0808 -0.0429
C28A C 0.3222(3) 0.0497(3) -0.1128(2)
H31A H 0.3139 0.1040 -0.1572
H32A H 0.3766 -0.0094 -0.1183
C29A C 0.2328(3) 0.0355(3) -0.1118(2)
H33A H 0.1912 0.0773 -0.1596
H34A H 0.2513 -0.0324 -0.1099
C30A C 0.1771(3) 0.0592(3) -0.0442(2)
H35A H 0.2121 0.0080 0.0030
H36A H 0.1154 0.0607 -0.0520
C31A C -0.4263(2) 1.1709(2) -0.68939(18)
C32A C -0.2924(2) 1.1436(2) -0.61413(18)
C33A C -0.3795(2) 1.2408(2) -0.60965(18)
C34A C -0.3278(2) 1.1299(2) -0.48677(19)
C35A C -0.5524(2) 1.3240(2) -0.67565(18)
H37A H -0.5478 1.3851 -0.6907
H38A H -0.5814 1.3192 -0.7205
C36A C -0.4473(2) 1.2959(2) -0.4918(2)
H39A H -0.4191 1.2761 -0.4388
H40A H -0.4468 1.3574 -0.5182
C37A C -0.6918(2) 1.3139(2) -0.62360(17)
C38A C -0.6200(2) 1.3747(2) -0.55410(18)
C39A C -0.7117(2) 1.3770(2) -0.51802(18)
C40A C -0.5780(2) 1.2772(2) -0.42718(19)
C41A C -0.8375(2) 1.3359(2) -0.56460(18)
H41A H -0.8833 1.3903 -0.5467
H42A H -0.8628 1.3444 -0.6162
C42A C -0.7275(2) 1.2857(2) -0.38361(19)
H43A H -0.7864 1.3453 -0.3862
H44A H -0.6912 1.2656 -0.3337
C43A C -0.8125(2) 1.1670(2) -0.53914(18)
C44A C -0.8368(2) 1.2267(2) -0.43246(18)
C45A C -0.8317(2) 1.1220(2) -0.40943(18)
C46A C -0.7051(2) 1.1182(2) -0.34016(18)
C47A C -0.1871(2) 0.9905(2) -0.50543(19)
H45A H -0.1755 0.9792 -0.4502
H46A H -0.1335 0.9972 -0.5288
C48A C -0.2758(2) 1.0317(2) -0.69942(18)
H47A H -0.2178 1.0358 -0.7141
H48A H -0.3125 1.0410 -0.7462
C49A C -0.2081(2) 1.1603(2) -0.6414(2)
H49A H -0.1572 1.0991 -0.6472
H50A H -0.1838 1.1789 -0.6025
C50A C -0.2345(3) 1.2393(3) -0.7171(2)
H51A H -0.1831 1.2576 -0.7258
H52A H -0.2401 1.2127 -0.7585
C51A C -0.3280(3) 1.3312(3) -0.7202(2)
H53A H -0.3765 1.3359 -0.7560
H54A H -0.3183 1.3891 -0.7395
C52A C -0.3633(2) 1.3298(2) -0.6418(2)
H55A H -0.3164 1.3286 -0.6066
H56A H -0.4229 1.3893 -0.6462
C53A C -0.6287(2) 1.4771(2) -0.5856(2)
H57A H -0.5757 1.4739 -0.6150
H58A H -0.6258 1.5031 -0.5431
C54A C -0.7224(3) 1.5447(3) -0.6368(2)
H59A H -0.7268 1.6099 -0.6563
H60A H -0.7232 1.5203 -0.6807
C55A C -0.8086(3) 1.5523(3) -0.5947(2)
H61A H -0.8509 1.5417 -0.6257
H62A H -0.8436 1.6185 -0.5895
C56A C -0.7825(2) 1.4794(2) -0.5157(2)
H63A H -0.7549 1.5000 -0.4806
H64A H -0.8401 1.4785 -0.4963
C57A C -0.9282(2) 1.3030(2) -0.41331(19)
H65A H -0.9822 1.3168 -0.4482
H66A H -0.9240 1.3637 -0.4198
C58A C -0.9433(2) 1.2654(3) -0.33129(19)
H67A H -0.8886 1.2507 -0.2969
H68A H -0.9998 1.3164 -0.3183
C59A C -0.9561(3) 1.1732(3) -0.3187(2)
H69A H -0.9195 1.1263 -0.2703
H70A H -1.0233 1.1904 -0.3146
C60A C -0.9239(2) 1.1248(3) -0.38357(19)
H71A H -0.9736 1.1607 -0.4272
H72A H -0.9157 1.0580 -0.3661
N1A N 0.06651(19) 0.6922(2) 0.10516(15)
N2A N 0.20856(19) 0.57297(19) 0.09935(15)
N3A N 0.04801(19) 0.7548(2) -0.03292(15)
N4A N 0.19376(19) 0.6413(2) -0.03811(15)
N5A N 0.30973(19) 0.41342(19) 0.08059(15)
N6A N 0.34159(18) 0.27001(19) 0.06361(15)
N7A N 0.30297(19) 0.48351(19) -0.05577(15)
N8A N 0.31751(19) 0.3458(2) -0.07403(15)
N9A N 0.26409(18) 0.17509(19) 0.04492(15)
N10A N -0.12478(19) 0.8249(2) -0.03537(15)
N11A N 0.2404(2) 0.2498(2) -0.09191(16)
N12A N -0.10647(19) 0.7611(2) 0.10292(15)
N13A N -0.33144(18) 1.11156(19) -0.66662(15)
N14A N -0.45729(18) 1.24314(19) -0.65426(15)
N15A N -0.27287(18) 1.08093(18) -0.53555(15)
N16A N -0.38948(18) 1.22261(19) -0.52821(15)
N17A N -0.61492(18) 1.32874(19) -0.61590(15)
N18A N -0.74916(18) 1.34130(19) -0.56889(15)
N19A N -0.54573(18) 1.31260(19) -0.49174(15)
N20A N -0.67290(18) 1.3081(2) -0.44271(15)
N21A N -0.83004(18) 1.24578(19) -0.51475(15)
N22A N -0.19001(18) 0.90584(18) -0.51881(15)
N23A N -0.75165(18) 1.21021(19) -0.38845(15)
N24A N -0.24907(18) 0.93461(19) -0.64986(15)
O5A O 0.12443(17) 0.54577(17) 0.20016(14)
O6A O 0.26682(17) 0.31091(17) 0.16745(13)
O7A O 0.17326(15) 0.19602(17) 0.14461(12)
O8A O 0.08118(16) 0.70213(17) -0.14128(13)
O9A O 0.23761(17) 0.48927(17) -0.17046(13)
O10A O 0.12293(18) 0.36227(18) -0.18993(14)
O11A O -0.47499(16) 1.16190(17) -0.73570(13)
O12A O -0.70801(15) 1.28275(17) -0.67408(12)
O12A_2 O 0.29199(15) 0.28275(17) 0.32592(12)
O13A O -0.80288(16) 1.16436(16) -0.60618(12)
O13A_2 O 0.19712(16) 0.16436(16) 0.39382(12)
O14A O -0.32368(17) 1.09700(17) -0.41787(13)
O15A O -0.53051(17) 1.22645(17) -0.36515(13)
O16A O -0.63547(17) 1.08729(18) -0.29404(14)
loop_
_geom_bond_atom_site_label_1
_geom_bond_atom_site_label_2
_geom_bond_site_symmetry_1
_geom_bond_site_symmetry_2
O1 Eu1 1_555 1_555
O2 Eu1 1_555 1_555
O3 Eu1 1_555 1_555
O4 Eu1 1_555 1_555
Eu1 O6 1_555 1_555
C1 N1 1_555 1_555
C2 C3 1_555 1_555
C3 C22 1_555 1_555
C4 N3 1_555 1_555
C5 H1 1_555 1_555
H2 C5 1_555 1_555
C6 H3 1_555 1_555
H4 C6 1_555 1_555
C7 N5 1_555 1_555
C8 C9 1_555 1_555
C9 C26 1_555 1_555
C10 N7 1_555 1_555
C11 H5 1_555 1_555
H6 C11 1_555 1_555
C12 H7 1_555 1_555
H8 C12 1_555 1_555
C13 N9 1_555 1_555
C14 C15 1_555 1_555
C15 C30 1_555 1_555
C16 N11 1_555 1_555
C17 H9 1_555 1_555
H10 C17 1_555 1_555
C18 H11 1_555 1_555
H12 C18 1_555 1_555
C19 C2 1_555 1_555
H13 C19 1_555 1_555
H14 C19 1_555 1_555
C20 C19 1_555 1_555
H15 C20 1_555 1_555
H16 C20 1_555 1_555
C21 C20 1_555 1_555
H17 C21 1_555 1_555
H18 C21 1_555 1_555
C22 C21 1_555 1_555
H19 C22 1_555 1_555
H20 C22 1_555 1_555
C23 C8 1_555 1_555
H21 C23 1_555 1_555
H22 C23 1_555 1_555
C24 C23 1_555 1_555
H23 C24 1_555 1_555
H24 C24 1_555 1_555
C25 C24 1_555 1_555
H25 C25 1_555 1_555
H26 C25 1_555 1_555
C26 C25 1_555 1_555
H27 C26 1_555 1_555
H28 C26 1_555 1_555
C27 C14 1_555 1_555
H29 C27 1_555 1_555
H30 C27 1_555 1_555
C28 C27 1_555 1_555
H31 C28 1_555 1_555
H32 C28 1_555 1_555
C29 C28 1_555 1_555
H33 C29 1_555 1_555
H34 C29 1_555 1_555
C30 C29 1_555 1_555
H35 C30 1_555 1_555
H36 C30 1_555 1_555
C31 N13 1_555 1_555
C32 C33 1_555 1_555
C33 C52 1_555 1_555
C34 N15 1_555 1_555
C35 H37 1_555 1_555
H38 C35 1_555 1_555
C36 H39 1_555 1_555
H40 C36 1_555 1_555
C37 N17 1_555 1_555
C38 C39 1_555 1_555
C39 C56 1_555 1_555
C40 N19 1_555 1_555
C41 H41 1_555 1_555
H42 C41 1_555 1_555
C42 H43 1_555 1_555
H44 C42 1_555 1_555
C43 N21 1_555 1_555
C44 C45 1_555 1_555
C45 C60 1_555 1_555
C46 N23 1_555 1_555
C47 H45 1_555 1_555
H46 C47 1_555 1_555
C48 H47 1_555 1_555
H48 C48 1_555 1_555
C49 C32 1_555 1_555
H49 C49 1_555 1_555
H50 C49 1_555 1_555
C50 C49 1_555 1_555
H51 C50 1_555 1_555
H52 C50 1_555 1_555
C51 C50 1_555 1_555
H53 C51 1_555 1_555
H54 C51 1_555 1_555
C52 C51 1_555 1_555
H55 C52 1_555 1_555
H56 C52 1_555 1_555
C53 C38 1_555 1_555
H57 C53 1_555 1_555
H58 C53 1_555 1_555
C54 C53 1_555 1_555
H59 C54 1_555 1_555
H60 C54 1_555 1_555
C55 C54 1_555 1_555
H61 C55 1_555 1_555
H62 C55 1_555 1_555
C56 C55 1_555 1_555
H63 C56 1_555 1_555
H64 C56 1_555 1_555
C57 C44 1_555 1_555
H65 C57 1_555 1_555
H66 C57 1_555 1_555
C58 C57 1_555 1_555
H67 C58 1_555 1_555
H68 C58 1_555 1_555
C59 C58 1_555 1_555
H69 C59 1_555 1_555
H70 C59 1_555 1_555
C60 C59 1_555 1_555
H71 C60 1_555 1_555
H72 C60 1_555 1_555
N1 C2 1_555 1_555
N2 C1 1_555 1_555
N3 C2 1_555 1_555
N4 C3 1_555 1_555
N5 C5 1_555 1_555
N6 C7 1_555 1_555
N7 C6 1_555 1_555
N8 C9 1_555 1_555
N9 C11 1_555 1_555
N10 C17 1_555 1_555
N11 C12 1_555 1_555
N12 C18 1_555 1_555
N13 C32 1_555 1_555
N14 C31 1_555 1_555
N15 C32 1_555 1_555
N16 C33 1_555 1_555
N17 C35 1_555 1_555
N18 C37 1_555 1_555
N19 C36 1_555 1_555
N20 C39 1_555 1_555
N21 C41 1_555 1_555
N22 C47 1_555 1_555
N23 C42 1_555 1_555
N24 C48 1_555 1_555
O5 C1 1_555 1_555
O6 C7 1_555 1_555
O7 Eu1 1_555 1_555
O8 C4 1_555 1_555
O9 C10 1_555 1_555
O10 C16 1_555 1_555
O11 C31 1_555 1_555
O12 Eu1 1_555 1_555
O13 Eu1 1_555 1_555
O14 C34 1_555 1_555
O15 C40 1_555 1_555
O16 C46 1_555 1_555
N25 O17 1_555 1_555
N26 O20 1_555 1_555
N27 O23 1_555 1_555
O18 N25 1_555 1_555
O19 N25 1_555 1_555
O21 N26 1_555 1_555
O22 N26 1_555 1_555
O24 N27 1_555 1_555
O25 N27 1_555 1_555
O1A Eu1A 1_555 1_555
O2A Eu1A 1_555 1_555
O3A Eu1A 1_555 1_555
O4A Eu1A 1_555 1_555
Eu1A O6A 1_555 1_555
Eu1A_2 O12A 1_555 1_555
C1A N1A 1_555 1_555
C2A C3A 1_555 1_555
C3A C22A 1_555 1_555
C4A N3A 1_555 1_555
C5A H1A 1_555 1_555
H2A C5A 1_555 1_555
C6A H3A 1_555 1_555
H4A C6A 1_555 1_555
C7A N5A 1_555 1_555
C8A C9A 1_555 1_555
C9A C26A 1_555 1_555
C10A N7A 1_555 1_555
C11A H5A 1_555 1_555
H6A C11A 1_555 1_555
C12A H7A 1_555 1_555
H8A C12A 1_555 1_555
C13A N10 1_555 1_555
C14A C15A 1_555 1_555
C15A N10 1_555 1_555
C16A N12 1_555 1_555
C17A H9A 1_555 1_555
H10A C17A 1_555 1_555
C18A H11A 1_555 1_555
H12A C18A 1_555 1_555
C19A C2A 1_555 1_555
H13A C19A 1_555 1_555
H14A C19A 1_555 1_555
C20A C19A 1_555 1_555
H15A C20A 1_555 1_555
H16A C20A 1_555 1_555
C21A C20A 1_555 1_555
H17A C21A 1_555 1_555
H18A C21A 1_555 1_555
C22A C21A 1_555 1_555
H19A C22A 1_555 1_555
H20A C22A 1_555 1_555
C23A C8A 1_555 1_555
H21A C23A 1_555 1_555
H22A C23A 1_555 1_555
C24A C23A 1_555 1_555
H23A C24A 1_555 1_555
H24A C24A 1_555 1_555
C25A C24A 1_555 1_555
H25A C25A 1_555 1_555
H26A C25A 1_555 1_555
C26A C25A 1_555 1_555
H27A C26A 1_555 1_555
H28A C26A 1_555 1_555
C27A C14A 1_555 1_555
H29A C27A 1_555 1_555
H30A C27A 1_555 1_555
C28A C27A 1_555 1_555
H31A C28A 1_555 1_555
H32A C28A 1_555 1_555
C29A C28A 1_555 1_555
H33A C29A 1_555 1_555
H34A C29A 1_555 1_555
C30A C15A 1_555 1_555
H35A C30A 1_555 1_555
H36A C30A 1_555 1_555
C31A N13A 1_555 1_555
C32A C33A 1_555 1_555
C33A C52A 1_555 1_555
C34A N15A 1_555 1_555
C35A H37A 1_555 1_555
H38A C35A 1_555 1_555
C36A H39A 1_555 1_555
H40A C36A 1_555 1_555
C37A N17A 1_555 1_555
C38A C39A 1_555 1_555
C39A C56A 1_555 1_555
C40A N19A 1_555 1_555
C41A H41A 1_555 1_555
H42A C41A 1_555 1_555
C42A H43A 1_555 1_555
H44A C42A 1_555 1_555
C43A N22 1_555 1_555
C44A C45A 1_555 1_555
C45A N22 1_555 1_555
C46A N24 1_555 1_555
C47A H45A 1_555 1_555
H46A C47A 1_555 1_555
C48A H47A 1_555 1_555
H48A C48A 1_555 1_555
C49A C32A 1_555 1_555
H49A C49A 1_555 1_555
H50A C49A 1_555 1_555
C50A C49A 1_555 1_555
H51A C50A 1_555 1_555
H52A C50A 1_555 1_555
C51A C50A 1_555 1_555
H53A C51A 1_555 1_555
H54A C51A 1_555 1_555
C52A C51A 1_555 1_555
H55A C52A 1_555 1_555
H56A C52A 1_555 1_555
C53A C38A 1_555 1_555
H57A C53A 1_555 1_555
H58A C53A 1_555 1_555
C54A C53A 1_555 1_555
H59A C54A 1_555 1_555
H60A C54A 1_555 1_555
C55A C54A 1_555 1_555
H61A C55A 1_555 1_555
H62A C55A 1_555 1_555
C56A C55A 1_555 1_555
H63A C56A 1_555 1_555
H64A C56A 1_555 1_555
C57A C44A 1_555 1_555
H65A C57A 1_555 1_555
H66A C57A 1_555 1_555
C58A C57A 1_555 1_555
H67A C58A 1_555 1_555
H68A C58A 1_555 1_555
C59A C58A 1_555 1_555
H69A C59A 1_555 1_555
H70A C59A 1_555 1_555
C60A C45A 1_555 1_555
H71A C60A 1_555 1_555
H72A C60A 1_555 1_555
N1A C2A 1_555 1_555
N2A C1A 1_555 1_555
N3A C2A 1_555 1_555
N4A C3A 1_555 1_555
N5A C5A 1_555 1_555
N6A C7A 1_555 1_555
N7A C6A 1_555 1_555
N8A C9A 1_555 1_555
N9A C11A 1_555 1_555
N10A C13 1_555 1_555
N11A C12A 1_555 1_555
N12A C15 1_555 1_555
N13A C32A 1_555 1_555
N14A C31A 1_555 1_555
N15A C32A 1_555 1_555
N16A C33A 1_555 1_555
N17A C35A 1_555 1_555
N18A C37A 1_555 1_555
N19A C36A 1_555 1_555
N20A C39A 1_555 1_555
N21A C41A 1_555 1_555
N22A C43 1_555 1_555
N23A C42A 1_555 1_555
N24A C45 1_555 1_555
O5A C1A 1_555 1_555
O6A C7A 1_555 1_555
O7A Eu1A 1_555 1_555
O8A C4A 1_555 1_555
O9A C10A 1_555 1_555
O10A C16A 1_555 1_555
O11A C31A 1_555 1_555
O12A C37A 1_555 1_555
O12A_2 Eu1A 1_555 1_555
O13A Eu1A_2 1_555 1_555
O13A_2 Eu1A 1_555 1_555
O14A C34A 1_555 1_555
O15A C40A 1_555 1_555
O16A C46A 1_555 1_555
C3 N2 1_555 1_555
C4 N4 1_555 1_555
C5 N2 1_555 1_555
C6 N4 1_555 1_555
C8 N5 1_555 1_555
C8 N7 1_555 1_555
C9 N6 1_555 1_555
C10 N8 1_555 1_555
C11 N6 1_555 1_555
C12 N8 1_555 1_555
C13 O7 1_555 1_555
C14 N9 1_555 1_555
C14 N11 1_555 1_555
C15 N10A 1_555 1_555
C16 N12A 1_555 1_555
C17 N3 1_555 1_555
C18 N1 1_555 1_555
C33 N14 1_555 1_555
C34 N16 1_555 1_555
C35 N14 1_555 1_555
C36 N16 1_555 1_555
C37 O12 1_555 1_555
C38 N17 1_555 1_555
C38 N19 1_555 1_555
C39 N18 1_555 1_555
C40 N20 1_555 1_555
C41 N18 1_555 1_555
C42 N20 1_555 1_555
C43 O13 1_555 1_555
C44 N21 1_555 1_555
C44 N23 1_555 1_555
C45 N22A 1_555 1_555
C46 N24A 1_555 1_555
C47 N15 1_555 1_555
C48 N13 1_555 1_555
N12 C15A 1_555 1_555
N24 C45A 1_555 1_555
C3A N2A 1_555 1_555
C4A N4A 1_555 1_555
C5A N2A 1_555 1_555
C6A N4A 1_555 1_555
C8A N5A 1_555 1_555
C8A N7A 1_555 1_555
C9A N6A 1_555 1_555
C10A N8A 1_555 1_555
C11A N6A 1_555 1_555
C12A N8A 1_555 1_555
C13A N9A 1_555 1_555
C13A O7A 1_555 1_555
C14A N9A 1_555 1_555
C14A N11A 1_555 1_555
C16A N11A 1_555 1_555
C17A N3A 1_555 1_555
C17A N10A 1_555 1_555
C18A N1A 1_555 1_555
C18A N12A 1_555 1_555
C29A C30A 1_555 1_555
C33A N14A 1_555 1_555
C34A N16A 1_555 1_555
C35A N14A 1_555 1_555
C36A N16A 1_555 1_555
C38A N17A 1_555 1_555
C38A N19A 1_555 1_555
C39A N18A 1_555 1_555
C40A N20A 1_555 1_555
C41A N18A 1_555 1_555
C42A N20A 1_555 1_555
C43A N21A 1_555 1_555
C43A O13A 1_555 1_555
C44A N21A 1_555 1_555
C44A N23A 1_555 1_555
C46A N23A 1_555 1_555
C47A N15A 1_555 1_555
C47A N22A 1_555 1_555
C48A N13A 1_555 1_555
C48A N24A 1_555 1_555
C59A C60A 1_555 1_555

#END
