
#######################################################################
#
#                 Cambridge Crystallographic Data Centre
#                                CCDC 
#
#######################################################################
#
# If this CIF has been generated from an entry in the Cambridge 
# Structural Database, then it will include bibliographic, chemical, 
# crystal, experimental, refinement or atomic coordinate data resulting 
# from the CCDC's data processing and validation procedures.
#
#######################################################################

data_TEPMEG
_symmetry_cell_setting           triclinic
_symmetry_space_group_name_H-M   'P -1'
_symmetry_Int_Tables_number      2
_space_group_name_Hall           '-P 1'
loop_
_symmetry_equiv_pos_site_id
_symmetry_equiv_pos_as_xyz
1 x,y,z
2 -x,-y,-z
_cell_length_a                   6.827(1)
_cell_length_b                   10.457(1)
_cell_length_c                   12.893(1)
_cell_angle_alpha                66.60(1)
_cell_angle_beta                 84.36(1)
_cell_angle_gamma                83.63(1)
_cell_volume                     838.03
loop_
_atom_site_label
_atom_site_type_symbol
_atom_site_fract_x
_atom_site_fract_y
_atom_site_fract_z
Ag1 Ag -1.500 0.00000 0.00000
Ag2 Ag -2.0000 0.00000 0.00000
Ag3 Ag -1.5702(1) 0.54257(5) 0.08974(5)
Ag4 Ag -1.8941(1) 0.61466(5) -0.08050(4)
O1 O -1.9709(8) 0.7253(5) 0.0373(4)
O2 O -2.1476(9) 0.5493(5) 0.1527(4)
O3 O -1.9890(7) 0.4495(5) 0.3814(4)
O4 O -2.3140(8) 0.4343(5) 0.4044(5)
O5 O -1.6233(8) 0.2272(5) 0.3739(4)
O6 O -1.9465(7) 0.2134(5) 0.3806(4)
O7 O -1.7071(8) 0.3380(4) 0.1327(4)
O8 O -1.5083(8) 0.2430(5) 0.0290(4)
O9 O -1.6293(8) 0.5492(5) 0.2686(4)
O10 O -1.7375(8) 0.7671(5) -0.2537(4)
N1 N -2.1378(8) 0.8762(5) 0.1635(4)
N2 N -1.6490(8) -0.0124(5) 0.1595(4)
C1 C -2.199(1) 0.9442(6) 0.2319(5)
C2 C -2.263(1) 0.8756(6) 0.3438(5)
C3 C -2.258(1) 0.7316(6) 0.3881(5)
C4 C -2.1894(9) 0.6598(6) 0.3188(4)
C5 C -2.1340(9) 0.7375(5) 0.2054(4)
C6 C -2.170(1) 0.5022(6) 0.3703(5)
C7 C -2.0775(9) 0.6650(6) 0.1243(5)
C8 C -1.686(1) -0.1431(6) 0.2329(5)
C9 C -1.750(1) -0.1730(6) 0.3446(6)
C10 C -1.778(1) -0.0655(6) 0.3816(5)
C11 C -1.7421(9) 0.0690(5) 0.3068(4)
C12 C -1.6757(9) 0.0923(5) 0.1957(4)
C13 C -1.7671(9) 0.1824(6) 0.3546(5)
C14 C -1.6270(9) 0.2361(5) 0.1119(5)
H1 H -2.32(2) 0.92(1) 0.391(9)
H2 H -2.30(2) 0.69(1) 0.460(9)
H3 H -1.66(2) -0.21(1) 0.212(9)
H4 H -1.78(2) -0.26(1) 0.401(9)
H5 H -1.82(2) -0.08(1) 0.452(9)
H6 H -2.20(2) 1.04(1) 0.198(9)
H7 H -1.64(2) 0.75(1) -0.281(9)
H8 H -1.80(2) 0.78(1) -0.307(9)
H9 H -1.98(1) 0.335(7) 0.388(6)
H10 H -1.54(2) 0.52(1) 0.311(9)
H11 H -1.73(2) 0.52(1) 0.307(9)
O5A O -1.3767(8) -0.2272(5) -0.3739(4)
O6A O -1.0535(7) -0.2134(5) -0.3806(4)
O7A O -1.2929(8) -0.3380(4) -0.1327(4)
O8A O -1.4917(8) -0.2430(5) -0.0290(4)
N2A N -1.3510(8) 0.0124(5) -0.1595(4)
C8A C -1.314(1) 0.1431(6) -0.2329(5)
C9A C -1.250(1) 0.1730(6) -0.3446(6)
C10A C -1.222(1) 0.0655(6) -0.3816(5)
C11A C -1.2579(9) -0.0690(5) -0.3068(4)
C12A C -1.3243(9) -0.0923(5) -0.1957(4)
C13A C -1.2329(9) -0.1824(6) -0.3546(5)
C14A C -1.3730(9) -0.2361(5) -0.1119(5)
H3A H -1.34(2) 0.21(1) -0.212(9)
H4A H -1.22(2) 0.26(1) -0.401(9)
H5A H -1.18(2) 0.08(1) -0.452(9)
Ag3A Ag -1.4298(1) -0.54257(5) -0.08974(5)
O9A O -1.3707(8) -0.5492(5) -0.2686(4)
H10A H -1.46(2) -0.52(1) -0.311(9)
H11A H -1.27(2) -0.52(1) -0.307(9)
Ag4A Ag -1.1059(1) -0.61466(5) 0.08050(4)
O1A O -2.0291(8) 0.2747(5) -0.0373(4)
O2A O -1.8524(9) 0.4507(5) -0.1527(4)
O3A O -2.0110(7) 0.5505(5) -0.3814(4)
O4A O -1.6860(8) 0.5657(5) -0.4044(5)
N1A N -1.8622(8) 0.1238(5) -0.1635(4)
C1A C -1.801(1) 0.0558(6) -0.2319(5)
C2A C -1.737(1) 0.1244(6) -0.3438(5)
C3A C -1.742(1) 0.2684(6) -0.3881(5)
C4A C -1.8106(9) 0.3402(6) -0.3188(4)
C5A C -1.8660(9) 0.2625(5) -0.2054(4)
C6A C -1.830(1) 0.4978(6) -0.3703(5)
C7A C -1.9225(9) 0.3350(6) -0.1243(5)
H1A H -1.68(2) 0.08(1) -0.391(9)
H2A H -1.70(2) 0.31(1) -0.460(9)
H6A H -1.80(2) -0.04(1) -0.198(9)
H9A H -2.02(1) 0.665(7) -0.388(6)
O10A O -1.2625(8) -0.7671(5) 0.2537(4)
H7A H -1.36(2) -0.75(1) 0.281(9)
H8A H -1.20(2) -0.78(1) 0.307(9)
Ag3A_2 Ag -1.4298(1) 0.45743(5) -0.08974(5)
O8A_2 O -1.4917(8) 0.7570(5) -0.0290(4)
Ag4A_2 Ag -2.1059(1) 0.38534(5) 0.08050(4)
Ag3_2 Ag -1.5702(1) -0.45743(5) 0.08974(5)
O8_2 O -1.5083(8) -0.7570(5) 0.0290(4)
Ag4_2 Ag -0.8941(1) -0.38534(5) -0.08050(4)
O1A_2 O -1.0291(8) -0.7253(5) -0.0373(4)
O2_2 O -1.1476(9) -0.4507(5) 0.1527(4)
Ag2_2 Ag -2.0000 1.00000 0.00000
O1_2 O -1.9709(8) -0.2747(5) 0.0373(4)
N1_2 N -2.1378(8) -0.1238(5) 0.1635(4)
loop_
_geom_bond_atom_site_label_1
_geom_bond_atom_site_label_2
_geom_bond_site_symmetry_1
_geom_bond_site_symmetry_2
Ag1 O8 1_555 1_555
Ag2 O1A 1_555 1_555
Ag3 Ag4 1_555 1_555
Ag4 O1 1_555 1_555
O1 C7 1_555 1_555
O2 C7 1_555 1_555
O3 C6 1_555 1_555
O4 C6 1_555 1_555
O5 C13 1_555 1_555
O6 C13 1_555 1_555
O7 Ag3 1_555 1_555
O8 C14 1_555 1_555
O9 Ag3 1_555 1_555
O10 Ag4 1_555 1_555
N1 C1 1_555 1_555
N2 Ag1 1_555 1_555
C1 C2 1_555 1_555
C2 C3 1_555 1_555
C3 C4 1_555 1_555
C4 C5 1_555 1_555
C5 N1 1_555 1_555
C6 C4 1_555 1_555
C7 C5 1_555 1_555
C8 N2 1_555 1_555
C9 C8 1_555 1_555
C10 C9 1_555 1_555
C11 C10 1_555 1_555
C12 N2 1_555 1_555
C13 C11 1_555 1_555
C14 O7 1_555 1_555
H1 C2 1_555 1_555
H2 C3 1_555 1_555
H3 C8 1_555 1_555
H4 C9 1_555 1_555
H5 C10 1_555 1_555
H6 C1 1_555 1_555
H7 O10 1_555 1_555
H8 O10 1_555 1_555
H9 O3 1_555 1_555
H10 O9 1_555 1_555
H11 O9 1_555 1_555
O5A C13A 1_555 1_555
O6A C13A 1_555 1_555
O7A C14A 1_555 1_555
O8A Ag1 1_555 1_555
N2A Ag1 1_555 1_555
C8A N2A 1_555 1_555
C9A C8A 1_555 1_555
C10A C9A 1_555 1_555
C11A C10A 1_555 1_555
C12A N2A 1_555 1_555
C13A C11A 1_555 1_555
C14A O8A 1_555 1_555
H3A C8A 1_555 1_555
H4A C9A 1_555 1_555
H5A C10A 1_555 1_555
Ag3A O7A 1_555 1_555
O9A Ag3A 1_555 1_555
H10A O9A 1_555 1_555
H11A O9A 1_555 1_555
Ag4A Ag3A 1_555 1_555
O1A C7A 1_555 1_555
O2A Ag4 1_555 1_555
O3A C6A 1_555 1_555
O4A C6A 1_555 1_555
N1A Ag2 1_555 1_555
C1A N1A 1_555 1_555
C2A C1A 1_555 1_555
C3A C2A 1_555 1_555
C4A C3A 1_555 1_555
C5A N1A 1_555 1_555
C6A C4A 1_555 1_555
C7A O2A 1_555 1_555
H1A C2A 1_555 1_555
H2A C3A 1_555 1_555
H6A C1A 1_555 1_555
H9A O3A 1_555 1_555
O10A Ag4A 1_555 1_555
H7A O10A 1_555 1_555
H8A O10A 1_555 1_555
Ag3A_2 Ag3 1_555 1_555
O8A_2 Ag3 1_555 1_555
Ag4A_2 Ag4 1_555 1_555
Ag3_2 O8A 1_555 1_555
O8_2 Ag3A 1_555 1_555
Ag4_2 Ag4A 1_555 1_555
O1A_2 Ag4A 1_555 1_555
O2_2 Ag4A 1_555 1_555
Ag2_2 O1 1_555 1_555
O1_2 Ag2 1_555 1_555
N1_2 Ag2 1_555 1_555
O2 Ag4A_2 1_555 1_555
O8 Ag3A_2 1_555 1_555
N1 Ag2_2 1_555 1_555
C11 C12 1_555 1_555
C12 C14 1_555 1_555
C11A C12A 1_555 1_555
C12A C14A 1_555 1_555
Ag3A Ag3_2 1_555 1_555
O1A Ag4A_2 1_555 1_555
C4A C5A 1_555 1_555
C5A C7A 1_555 1_555

#END
