
#######################################################################
#
#                 Cambridge Crystallographic Data Centre
#                                CCDC 
#
#######################################################################
#
# If this CIF has been generated from an entry in the Cambridge 
# Structural Database, then it will include bibliographic, chemical, 
# crystal, experimental, refinement or atomic coordinate data resulting 
# from the CCDC's data processing and validation procedures.
#
#######################################################################

data_TEPNEJ
_symmetry_cell_setting           triclinic
_symmetry_space_group_name_H-M   'P -1'
_symmetry_Int_Tables_number      2
_space_group_name_Hall           '-P 1'
loop_
_symmetry_equiv_pos_site_id
_symmetry_equiv_pos_as_xyz
1 x,y,z
2 -x,-y,-z
_cell_length_a                   15.8446(6)
_cell_length_b                   15.9631(7)
_cell_length_c                   18.1699(7)
_cell_angle_alpha                74.8650(10)
_cell_angle_beta                 89.2060(10)
_cell_angle_gamma                63.3360(10)
_cell_volume                     3935.97
loop_
_atom_site_label
_atom_site_type_symbol
_atom_site_fract_x
_atom_site_fract_y
_atom_site_fract_z
N25 N 0.9906(3) 1.0549(3) 0.1961(2)
O17 O 0.9543(3) 1.0459(3) 0.2568(2)
O18 O 0.9903(3) 1.0093(3) 0.1510(2)
O19 O 1.0277(3) 1.1099(3) 0.1815(2)
N26 N 0.5940(3) 0.4356(3) 0.8347(3)
O20 O 0.5351(3) 0.4941(3) 0.8678(2)
O21 O 0.6733(3) 0.3705(3) 0.8685(3)
O22 O 0.5752(4) 0.4444(4) 0.7678(3)
N27 N 1.5670(3) 0.2185(3) 0.5851(3)
O23 O 1.5476(4) 0.1700(3) 0.6419(3)
O24 O 1.5269(3) 0.3090(3) 0.5699(2)
O25 O 1.6240(3) 0.1774(3) 0.5450(3)
O1 O 1.2575(2) 0.4504(2) 0.71470(17)
O2 O 1.3959(2) 0.1198(2) 0.75379(17)
O3 O 1.1214(2) 0.3837(2) 0.72767(19)
O4 O 1.44136(19) 0.2753(2) 0.73536(17)
Tb1 Tb 1.285534(13) 0.284863(14) 0.736676(11)
C1 C 1.1915(3) 0.1862(3) 0.6242(2)
C2 C 1.1198(3) 0.1242(3) 0.5555(2)
C3 C 1.2114(3) 0.1217(3) 0.5191(2)
C4 C 1.0773(3) 0.2226(3) 0.4273(2)
C5 C 1.3372(3) 0.1629(3) 0.5655(2)
H1 H 1.3825 0.1086 0.5473
H2 H 1.3631 0.1540 0.6172
C6 C 1.2275(3) 0.2133(3) 0.3840(2)
H3 H 1.2863 0.1535 0.3867
H4 H 1.1911 0.2336 0.3339
C7 C 1.3119(3) 0.3321(3) 0.5397(2)
C8 C 1.3360(3) 0.2732(3) 0.4338(2)
C9 C 1.3313(3) 0.3770(3) 0.4100(2)
C10 C 1.2049(3) 0.3820(3) 0.3395(2)
C11 C 1.3128(3) 0.4894(3) 0.4949(2)
H5 H 1.3665 0.4960 0.4715
H6 H 1.3248 0.4776 0.5503
C12 C 1.2231(3) 0.5320(3) 0.3007(2)
H7 H 1.2810 0.5362 0.2856
H8 H 1.1858 0.5418 0.2538
C13 C 1.1724(3) 0.6297(3) 0.5135(2)
C14 C 1.2076(3) 0.6430(3) 0.3852(2)
C15 C 1.1205(3) 0.7413(3) 0.3899(2)
C16 C 1.0730(3) 0.6708(3) 0.3110(2)
C17 C 1.0527(3) 0.7962(3) 0.5078(2)
H9 H 1.0533 0.8579 0.4817
H10 H 1.0808 0.7759 0.5611
C18 C 1.0526(3) 0.1755(3) 0.6761(2)
H11 H 1.0819 0.1798 0.7212
H12 H 1.0477 0.1143 0.6911
C19 C 1.1287(3) 0.0219(3) 0.5870(3)
H13 H 1.0756 0.0250 0.6165
H14 H 1.1254 -0.0039 0.5443
C20 C 1.2216(3) -0.0458(3) 0.6379(3)
H15 H 1.2258 -0.1111 0.6571
H16 H 1.2225 -0.0220 0.6823
C21 C 1.3090(3) -0.0537(3) 0.5963(3)
H17 H 1.3510 -0.0427 0.6273
H18 H 1.3443 -0.1200 0.5911
C22 C 1.2814(3) 0.0201(3) 0.5166(2)
H19 H 1.3387 0.0213 0.4965
H20 H 1.2532 -0.0005 0.4817
C23 C 1.4274(3) 0.1959(3) 0.4137(2)
H21 H 1.4820 0.1806 0.4489
H22 H 1.4222 0.1356 0.4196
C24 C 1.4427(3) 0.2341(3) 0.3316(2)
H23 H 1.3883 0.2481 0.2968
H24 H 1.4997 0.1835 0.3189
C25 C 1.4540(3) 0.3267(3) 0.3191(3)
H25 H 1.5209 0.3102 0.3143
H26 H 1.4165 0.3736 0.2706
C26 C 1.4229(3) 0.3752(3) 0.3834(2)
H27 H 1.4731 0.3397 0.4270
H28 H 1.4141 0.4424 0.3654
C27 C 1.2918(3) 0.6603(3) 0.3583(2)
H29 H 1.3155 0.6794 0.3974
H30 H 1.3432 0.5991 0.3530
C28 C 1.2652(3) 0.7392(3) 0.2822(3)
H31 H 1.2593 0.7125 0.2408
H32 H 1.3166 0.7575 0.2731
C29 C 1.1718(3) 0.8311(3) 0.2790(3)
H33 H 1.1814 0.8892 0.2593
H34 H 1.1230 0.8358 0.2434
C30 C 1.1377(3) 0.8294(3) 0.3574(2)
H35 H 1.0786 0.8894 0.3533
H36 H 1.1855 0.8274 0.3925
C31 C 1.1990(3) 0.1693(3) 0.8908(2)
C32 C 1.1387(3) 0.0888(3) 0.9867(2)
C33 C 1.1226(3) 0.1871(3) 1.0011(2)
C34 C 1.2195(3) 0.0555(3) 1.1064(2)
C35 C 1.1543(3) 0.3250(3) 0.9178(2)
H37 H 1.0962 0.3690 0.9348
H38 H 1.1500 0.3508 0.8620
C36 C 1.1901(3) 0.2162(3) 1.1157(2)
H39 H 1.1276 0.2730 1.1099
H40 H 1.2071 0.1800 1.1704
C37 C 1.3133(3) 0.3156(3) 0.9183(2)
C38 C 1.2418(3) 0.3379(3) 1.0294(2)
C39 C 1.3376(3) 0.3425(3) 1.0346(2)
C40 C 1.3465(3) 0.2090(3) 1.1331(2)
C41 C 1.4550(3) 0.3369(3) 0.9342(2)
H41 H 1.4525 0.3957 0.9436
H42 H 1.4484 0.3481 0.8785
C42 C 1.4820(3) 0.2431(3) 1.1400(2)
H43 H 1.4781 0.3057 1.1413
H44 H 1.4901 0.2038 1.1933
C43 C 1.6036(3) 0.2010(3) 0.9221(2)
C44 C 1.5992(3) 0.2398(3) 1.0391(2)
C45 C 1.7011(3) 0.1562(3) 1.0368(2)
C46 C 1.6311(3) 0.0981(3) 1.1402(2)
C47 C 1.2081(3) 0.0191(3) 0.8727(2)
H45 H 1.1530 0.0068 0.8710
H46 H 1.2134 0.0507 0.8201
C48 C 1.2271(3) -0.0873(3) 1.0751(2)
H47 H 1.1727 -0.0964 1.0615
H48 H 1.2439 -0.1148 1.1309
C49 C 1.0453(3) 0.0869(3) 0.9718(2)
H49 H 1.0158 0.0821 1.0194
H50 H 1.0577 0.0294 0.9549
C50 C 0.9773(3) 0.1803(3) 0.9099(3)
H51 H 1.0058 0.1828 0.8616
H52 H 0.9176 0.1781 0.9010
C51 C 0.9561(3) 0.2729(3) 0.9331(3)
H53 H 0.9653 0.3191 0.8904
H54 H 0.8893 0.3037 0.9420
C52 C 1.0186(3) 0.2534(3) 1.0050(2)
H55 H 1.0117 0.3156 1.0103
H56 H 0.9974 0.2226 1.0503
C53 C 1.1565(3) 0.4291(3) 1.0385(3)
H57 H 1.1433 0.4845 0.9932
H58 H 1.1003 0.4182 1.0425
C54 C 1.1770(4) 0.4526(4) 1.1101(3)
H59 H 1.1227 0.5129 1.1140
H60 H 1.1838 0.3997 1.1555
C55 C 1.2661(4) 0.4652(4) 1.1101(3)
H61 H 1.3075 0.4224 1.1581
H62 H 1.2484 0.5328 1.1088
C56 C 1.3223(3) 0.4418(3) 1.0423(3)
H63 H 1.3840 0.4403 1.0504
H64 H 1.2873 0.4932 0.9948
C57 C 1.6024(3) 0.3299(3) 1.0467(3)
H65 H 1.5385 0.3780 1.0519
H66 H 1.6229 0.3591 1.0002
C58 C 1.6705(3) 0.3060(3) 1.1162(3)
H67 H 1.6434 0.2886 1.1631
H68 H 1.6771 0.3642 1.1157
C59 C 1.7692(3) 0.2214(3) 1.1178(3)
H69 H 1.8174 0.2433 1.1209
H70 H 1.7818 0.1673 1.1639
C60 C 1.7777(3) 0.1853(3) 1.0477(3)
H71 H 1.7729 0.2369 1.0021
H72 H 1.8402 0.1288 1.0530
N1 N 1.1148(2) 0.1709(2) 0.61641(19)
N2 N 1.2494(2) 0.1580(2) 0.57011(18)
N3 N 1.0455(2) 0.1869(2) 0.49254(19)
N4 N 1.1726(2) 0.1910(2) 0.44353(19)
N5 N 1.3299(2) 0.2539(2) 0.51515(18)
N6 N 1.3100(2) 0.4058(2) 0.48172(18)
N7 N 1.2519(2) 0.2887(2) 0.38891(19)
N8 N 1.2504(2) 0.4340(2) 0.35013(19)
N9 N 1.2268(2) 0.5810(2) 0.46477(18)
N10 N 1.1109(2) 0.7229(2) 0.47098(19)
N11 N 1.1688(2) 0.6108(2) 0.33334(18)
N12 N 1.0431(2) 0.7429(2) 0.34524(18)
N13 N 1.1910(2) 0.0860(2) 0.91867(18)
N14 N 1.1588(2) 0.2299(2) 0.93511(19)
N15 N 1.1977(2) 0.0156(2) 1.05594(19)
N16 N 1.1828(2) 0.1535(2) 1.07333(19)
N17 N 1.2356(2) 0.3252(2) 0.95382(19)
N18 N 1.3747(2) 0.3248(2) 0.96397(18)
N19 N 1.2591(2) 0.2501(2) 1.09127(19)
N20 N 1.3925(2) 0.2618(2) 1.10218(19)
N21 N 1.5473(2) 0.2554(2) 0.96654(19)
N22 N 1.6931(2) 0.1427(2) 0.96166(19)
N23 N 1.5651(2) 0.1933(2) 1.10468(19)
N24 N 1.7073(2) 0.0736(2) 1.09922(18)
O5 O 1.20787(19) 0.2172(2) 0.67461(15)
O6 O 1.30196(19) 0.3351(2) 0.60668(15)
O7 O 1.1768(2) 0.5977(2) 0.58215(16)
O8 O 1.0299(2) 0.2729(2) 0.36534(16)
O9 O 1.1361(2) 0.4122(2) 0.29329(18)
O10 O 1.02450(19) 0.6614(2) 0.26475(16)
O11 O 1.2343(2) 0.1880(2) 0.83200(16)
O12 O 1.32638(19) 0.3032(2) 0.85469(15)
O13 O 1.5808(2) 0.2031(2) 0.85804(16)
O14 O 1.2621(2) 0.0107(2) 1.17007(17)
O15 O 1.3764(2) 0.1389(2) 1.18972(17)
O16 O 1.6233(2) 0.0463(2) 1.19967(16)
O1A O 0.7425(2) 0.5496(2) 0.28530(17)
O2A O 0.6041(2) 0.8802(2) 0.24621(17)
O3A O 0.8786(2) 0.6163(2) 0.27233(19)
O4A O 0.55864(19) 0.7247(2) 0.26464(17)
Tb1A Tb 0.714466(13) 0.715137(14) 0.263324(11)
Tb1A_2 Tb 1.714466(13) -0.284863(14) 1.263324(11)
C1A C 0.8085(3) 0.8138(3) 0.3758(2)
C2A C 0.8802(3) 0.8758(3) 0.4445(2)
C3A C 0.7886(3) 0.8783(3) 0.4809(2)
C4A C 0.9227(3) 0.7774(3) 0.5727(2)
C5A C 0.6628(3) 0.8371(3) 0.4345(2)
H1A H 0.6175 0.8914 0.4527
H2A H 0.6369 0.8460 0.3828
C6A C 0.7725(3) 0.7867(3) 0.6160(2)
H3A H 0.7137 0.8465 0.6133
H4A H 0.8089 0.7664 0.6661
C7A C 0.6881(3) 0.6679(3) 0.4603(2)
C8A C 0.6640(3) 0.7268(3) 0.5662(2)
C9A C 0.6687(3) 0.6230(3) 0.5900(2)
C10A C 0.7951(3) 0.6180(3) 0.6605(2)
C11A C 0.6872(3) 0.5106(3) 0.5051(2)
H5A H 0.6335 0.5040 0.5285
H6A H 0.6752 0.5224 0.4497
C12A C 0.7769(3) 0.4680(3) 0.6993(2)
H7A H 0.7190 0.4638 0.7144
H8A H 0.8142 0.4582 0.7462
C13A C 0.8276(3) 0.3703(3) 0.4865(2)
C14A C 0.7924(3) 0.3570(3) 0.6148(2)
C15A C 0.8795(3) 0.2587(3) 0.6101(2)
C16A C 0.9270(3) 0.3292(3) 0.6890(2)
C17A C 0.9473(3) 0.2038(3) 0.4922(2)
H9A H 0.9467 0.1421 0.5183
H10A H 0.9192 0.2241 0.4389
C18A C 0.9474(3) 0.8245(3) 0.3239(2)
H11A H 0.9181 0.8202 0.2788
H12A H 0.9523 0.8857 0.3089
C19A C 0.8713(3) 0.9781(3) 0.4130(3)
H13A H 0.9244 0.9750 0.3835
H14A H 0.8746 1.0039 0.4557
C20A C 0.7784(3) 1.0458(3) 0.3621(3)
H15A H 0.7742 1.1111 0.3429
H16A H 0.7775 1.0220 0.3177
C21A C 0.6910(3) 1.0537(3) 0.4037(3)
H17A H 0.6490 1.0427 0.3727
H18A H 0.6557 1.1200 0.4089
C22A C 0.7186(3) 0.9799(3) 0.4834(2)
H19A H 0.6613 0.9787 0.5035
H20A H 0.7468 1.0005 0.5183
C23A C 0.5726(3) 0.8041(3) 0.5863(2)
H21A H 0.5180 0.8194 0.5511
H22A H 0.5778 0.8644 0.5804
C24A C 0.5573(3) 0.7659(3) 0.6684(2)
H23A H 0.6117 0.7519 0.7032
H24A H 0.5003 0.8165 0.6811
C25A C 0.5460(3) 0.6733(3) 0.6809(3)
H25A H 0.4791 0.6898 0.6857
H26A H 0.5835 0.6264 0.7294
C26A C 0.5771(3) 0.6248(3) 0.6166(2)
H27A H 0.5269 0.6603 0.5730
H28A H 0.5859 0.5576 0.6346
C27A C 0.7082(3) 0.3397(3) 0.6417(2)
H29A H 0.6845 0.3206 0.6026
H30A H 0.6568 0.4009 0.6470
C28A C 0.7348(3) 0.2608(3) 0.7178(3)
H31A H 0.7407 0.2875 0.7592
H32A H 0.6834 0.2425 0.7269
C29A C 0.8282(3) 0.1689(3) 0.7210(3)
H33A H 0.8186 0.1108 0.7407
H34A H 0.8770 0.1642 0.7566
C30A C 0.8623(3) 0.1706(3) 0.6426(2)
H35A H 0.9214 0.1106 0.6467
H36A H 0.8145 0.1726 0.6075
C31A C 1.8010(3) -0.1693(3) 1.1092(2)
C32A C 1.8613(3) -0.0888(3) 1.0133(2)
C33A C 1.8774(3) -0.1871(3) 0.9989(2)
C34A C 1.7805(3) -0.0555(3) 0.8936(2)
C35A C 1.8457(3) -0.3250(3) 1.0822(2)
H37A H 1.9038 -0.3690 1.0652
H38A H 1.8500 -0.3508 1.1380
C36A C 1.8099(3) -0.2162(3) 0.8843(2)
H39A H 1.8724 -0.2730 0.8901
H40A H 1.7929 -0.1800 0.8296
C37A C 1.6867(3) -0.3156(3) 1.0817(2)
C38A C 1.7582(3) -0.3379(3) 0.9706(2)
C39A C 1.6624(3) -0.3425(3) 0.9654(2)
C40A C 1.6535(3) -0.2090(3) 0.8669(2)
C41A C 1.5450(3) -0.3369(3) 1.0658(2)
H41A H 1.5475 -0.3957 1.0564
H42A H 1.5516 -0.3481 1.1215
C42A C 1.5180(3) -0.2431(3) 0.8600(2)
H43A H 1.5219 -0.3057 0.8587
H44A H 1.5099 -0.2038 0.8067
C43A C 1.3964(3) -0.2010(3) 1.0779(2)
C44A C 1.4008(3) -0.2398(3) 0.9609(2)
C45A C 1.2989(3) -0.1562(3) 0.9632(2)
C46A C 1.3689(3) -0.0981(3) 0.8598(2)
C47A C 1.7919(3) -0.0191(3) 1.1273(2)
H45A H 1.8470 -0.0068 1.1290
H46A H 1.7866 -0.0507 1.1799
C48A C 1.7729(3) 0.0873(3) 0.9249(2)
H47A H 1.8273 0.0964 0.9385
H48A H 1.7561 0.1148 0.8691
C49A C 1.9547(3) -0.0869(3) 1.0282(2)
H49A H 1.9842 -0.0821 0.9806
H50A H 1.9423 -0.0294 1.0451
C50A C 2.0227(3) -0.1803(3) 1.0901(3)
H51A H 1.9942 -0.1828 1.1384
H52A H 2.0824 -0.1781 1.0990
C51A C 2.0439(3) -0.2729(3) 1.0669(3)
H53A H 2.0347 -0.3191 1.1096
H54A H 2.1107 -0.3037 1.0580
C52A C 1.9814(3) -0.2534(3) 0.9950(2)
H55A H 1.9883 -0.3156 0.9897
H56A H 2.0026 -0.2226 0.9497
C53A C 1.8435(3) -0.4291(3) 0.9615(3)
H57A H 1.8567 -0.4845 1.0068
H58A H 1.8997 -0.4182 0.9575
C54A C 1.8230(4) -0.4526(4) 0.8899(3)
H59A H 1.8773 -0.5129 0.8860
H60A H 1.8162 -0.3997 0.8445
C55A C 1.7339(4) -0.4652(4) 0.8899(3)
H61A H 1.6925 -0.4224 0.8419
H62A H 1.7516 -0.5328 0.8912
C56A C 1.6777(3) -0.4418(3) 0.9577(3)
H63A H 1.6160 -0.4403 0.9496
H64A H 1.7127 -0.4932 1.0052
C57A C 1.3976(3) -0.3299(3) 0.9533(3)
H65A H 1.4615 -0.3780 0.9481
H66A H 1.3771 -0.3591 0.9998
C58A C 1.3295(3) -0.3060(3) 0.8838(3)
H67A H 1.3566 -0.2886 0.8369
H68A H 1.3229 -0.3642 0.8843
C59A C 1.2308(3) -0.2214(3) 0.8822(3)
H69A H 1.1826 -0.2433 0.8791
H70A H 1.2182 -0.1673 0.8361
C60A C 1.2223(3) -0.1853(3) 0.9523(3)
H71A H 1.2271 -0.2369 0.9979
H72A H 1.1598 -0.1288 0.9470
N1A N 0.8852(2) 0.8291(2) 0.38359(19)
N2A N 0.7506(2) 0.8420(2) 0.42989(18)
N3A N 0.9545(2) 0.8131(2) 0.50746(19)
N4A N 0.8274(2) 0.8090(2) 0.55647(19)
N5A N 0.6701(2) 0.7461(2) 0.48485(18)
N6A N 0.6900(2) 0.5942(2) 0.51828(18)
N7A N 0.7481(2) 0.7113(2) 0.61109(19)
N8A N 0.7496(2) 0.5660(2) 0.64987(19)
N9A N 0.7732(2) 0.4190(2) 0.53523(18)
N10A N 0.8891(2) 0.2771(2) 0.52902(19)
N11A N 0.8312(2) 0.3892(2) 0.66666(18)
N12A N 0.9569(2) 0.2571(2) 0.65476(18)
N13A N 1.8090(2) -0.0860(2) 1.08133(18)
N14A N 1.8412(2) -0.2299(2) 1.06489(19)
N15A N 1.8023(2) -0.0156(2) 0.94406(19)
N16A N 1.8172(2) -0.1535(2) 0.92667(19)
N17A N 1.7644(2) -0.3252(2) 1.04618(19)
N18A N 1.6253(2) -0.3248(2) 1.03603(18)
N19A N 1.7409(2) -0.2501(2) 0.90873(19)
N20A N 1.6075(2) -0.2618(2) 0.89782(19)
N21A N 1.4527(2) -0.2554(2) 1.03346(19)
N22A N 1.3069(2) -0.1427(2) 1.03834(19)
N23A N 1.4349(2) -0.1933(2) 0.89532(19)
N24A N 1.2927(2) -0.0736(2) 0.90078(18)
O5A O 0.79213(19) 0.7828(2) 0.32539(15)
O6A O 0.69804(19) 0.6649(2) 0.39332(15)
O7A O 0.8232(2) 0.4023(2) 0.41785(16)
O8A O 0.9701(2) 0.7271(2) 0.63466(16)
O9A O 0.8639(2) 0.5878(2) 0.70671(18)
O10A O 0.97550(19) 0.3386(2) 0.73525(16)
O11A O 1.7657(2) -0.1880(2) 1.16800(16)
O11A_2 O 0.7657(2) 0.8120(2) 0.16800(16)
O12A O 1.67362(19) -0.3032(2) 1.14531(15)
O12A_2 O 0.67362(19) 0.6968(2) 0.14531(15)
O13A O 1.4192(2) -0.2031(2) 1.14196(16)
O14A O 1.7379(2) -0.0107(2) 0.82993(17)
O15A O 1.6236(2) -0.1389(2) 0.81028(17)
O16A O 1.3767(2) -0.0463(2) 0.80033(16)
loop_
_geom_bond_atom_site_label_1
_geom_bond_atom_site_label_2
_geom_bond_site_symmetry_1
_geom_bond_site_symmetry_2
O1 Tb1 1_555 1_555
O2 Tb1 1_555 1_555
O3 Tb1 1_555 1_555
O4 Tb1 1_555 1_555
Tb1 O5 1_555 1_555
C1 N1 1_555 1_555
C2 C3 1_555 1_555
C3 C22 1_555 1_555
C4 N3 1_555 1_555
C5 H1 1_555 1_555
H2 C5 1_555 1_555
C6 H3 1_555 1_555
H4 C6 1_555 1_555
C7 N5 1_555 1_555
C8 C9 1_555 1_555
C9 C26 1_555 1_555
C10 N7 1_555 1_555
C11 H5 1_555 1_555
H6 C11 1_555 1_555
C12 H7 1_555 1_555
H8 C12 1_555 1_555
C13 N9 1_555 1_555
C14 C15 1_555 1_555
C15 C30 1_555 1_555
C16 N11 1_555 1_555
C17 H9 1_555 1_555
H10 C17 1_555 1_555
C18 H11 1_555 1_555
H12 C18 1_555 1_555
C19 C2 1_555 1_555
H13 C19 1_555 1_555
H14 C19 1_555 1_555
C20 C19 1_555 1_555
H15 C20 1_555 1_555
H16 C20 1_555 1_555
C21 C20 1_555 1_555
H17 C21 1_555 1_555
H18 C21 1_555 1_555
C22 C21 1_555 1_555
H19 C22 1_555 1_555
H20 C22 1_555 1_555
C23 C8 1_555 1_555
H21 C23 1_555 1_555
H22 C23 1_555 1_555
C24 C23 1_555 1_555
H23 C24 1_555 1_555
H24 C24 1_555 1_555
C25 C24 1_555 1_555
H25 C25 1_555 1_555
H26 C25 1_555 1_555
C26 C25 1_555 1_555
H27 C26 1_555 1_555
H28 C26 1_555 1_555
C27 C14 1_555 1_555
H29 C27 1_555 1_555
H30 C27 1_555 1_555
C28 C27 1_555 1_555
H31 C28 1_555 1_555
H32 C28 1_555 1_555
C29 C28 1_555 1_555
H33 C29 1_555 1_555
H34 C29 1_555 1_555
C30 C29 1_555 1_555
H35 C30 1_555 1_555
H36 C30 1_555 1_555
C31 N13 1_555 1_555
C32 C33 1_555 1_555
C33 C52 1_555 1_555
C34 N15 1_555 1_555
C35 H37 1_555 1_555
H38 C35 1_555 1_555
C36 H39 1_555 1_555
H40 C36 1_555 1_555
C37 N17 1_555 1_555
C38 C39 1_555 1_555
C39 C56 1_555 1_555
C40 N19 1_555 1_555
C41 H41 1_555 1_555
H42 C41 1_555 1_555
C42 H43 1_555 1_555
H44 C42 1_555 1_555
C43 N21 1_555 1_555
C44 C45 1_555 1_555
C45 C60 1_555 1_555
C46 N23 1_555 1_555
C47 H45 1_555 1_555
H46 C47 1_555 1_555
C48 H47 1_555 1_555
H48 C48 1_555 1_555
C49 C32 1_555 1_555
H49 C49 1_555 1_555
H50 C49 1_555 1_555
C50 C49 1_555 1_555
H51 C50 1_555 1_555
H52 C50 1_555 1_555
C51 C50 1_555 1_555
H53 C51 1_555 1_555
H54 C51 1_555 1_555
C52 C51 1_555 1_555
H55 C52 1_555 1_555
H56 C52 1_555 1_555
C53 C38 1_555 1_555
H57 C53 1_555 1_555
H58 C53 1_555 1_555
C54 C53 1_555 1_555
H59 C54 1_555 1_555
H60 C54 1_555 1_555
C55 C54 1_555 1_555
H61 C55 1_555 1_555
H62 C55 1_555 1_555
C56 C55 1_555 1_555
H63 C56 1_555 1_555
H64 C56 1_555 1_555
C57 C44 1_555 1_555
H65 C57 1_555 1_555
H66 C57 1_555 1_555
C58 C57 1_555 1_555
H67 C58 1_555 1_555
H68 C58 1_555 1_555
C59 C58 1_555 1_555
H69 C59 1_555 1_555
H70 C59 1_555 1_555
C60 C59 1_555 1_555
H71 C60 1_555 1_555
H72 C60 1_555 1_555
N1 C2 1_555 1_555
N2 C1 1_555 1_555
N3 C2 1_555 1_555
N4 C3 1_555 1_555
N5 C5 1_555 1_555
N6 C7 1_555 1_555
N7 C6 1_555 1_555
N8 C9 1_555 1_555
N9 C11 1_555 1_555
N10 C13 1_555 1_555
N11 C12 1_555 1_555
N12 C15 1_555 1_555
N13 C32 1_555 1_555
N14 C31 1_555 1_555
N15 C32 1_555 1_555
N16 C33 1_555 1_555
N17 C35 1_555 1_555
N18 C37 1_555 1_555
N19 C36 1_555 1_555
N20 C39 1_555 1_555
N21 C41 1_555 1_555
N22 C43 1_555 1_555
N23 C42 1_555 1_555
N24 C45 1_555 1_555
O5 C1 1_555 1_555
O6 Tb1 1_555 1_555
O7 C13 1_555 1_555
O8 C4 1_555 1_555
O9 C10 1_555 1_555
O10 C16 1_555 1_555
O11 Tb1 1_555 1_555
O12 Tb1 1_555 1_555
O13 C43 1_555 1_555
O14 C34 1_555 1_555
O15 C40 1_555 1_555
O16 C46 1_555 1_555
N25 O17 1_555 1_555
N26 O20 1_555 1_555
N27 O23 1_555 1_555
O18 N25 1_555 1_555
O19 N25 1_555 1_555
O21 N26 1_555 1_555
O22 N26 1_555 1_555
O24 N27 1_555 1_555
O25 N27 1_555 1_555
O1A Tb1A 1_555 1_555
O2A Tb1A 1_555 1_555
O3A Tb1A 1_555 1_555
O4A Tb1A 1_555 1_555
Tb1A O5A 1_555 1_555
Tb1A_2 O11A 1_555 1_555
C1A N1A 1_555 1_555
C2A C3A 1_555 1_555
C3A C22A 1_555 1_555
C4A N3A 1_555 1_555
C5A H1A 1_555 1_555
H2A C5A 1_555 1_555
C6A H3A 1_555 1_555
H4A C6A 1_555 1_555
C7A N5A 1_555 1_555
C8A C9A 1_555 1_555
C9A C26A 1_555 1_555
C10A N7A 1_555 1_555
C11A H5A 1_555 1_555
H6A C11A 1_555 1_555
C12A H7A 1_555 1_555
H8A C12A 1_555 1_555
C13A N9A 1_555 1_555
C14A C15A 1_555 1_555
C15A C30A 1_555 1_555
C16A N11A 1_555 1_555
C17A N3 1_555 1_555
H9A C17A 1_555 1_555
H10A C17A 1_555 1_555
C18A N12 1_555 1_555
H11A C18A 1_555 1_555
H12A C18A 1_555 1_555
C19A C2A 1_555 1_555
H13A C19A 1_555 1_555
H14A C19A 1_555 1_555
C20A C19A 1_555 1_555
H15A C20A 1_555 1_555
H16A C20A 1_555 1_555
C21A C20A 1_555 1_555
H17A C21A 1_555 1_555
H18A C21A 1_555 1_555
C22A C21A 1_555 1_555
H19A C22A 1_555 1_555
H20A C22A 1_555 1_555
C23A C8A 1_555 1_555
H21A C23A 1_555 1_555
H22A C23A 1_555 1_555
C24A C23A 1_555 1_555
H23A C24A 1_555 1_555
H24A C24A 1_555 1_555
C25A C24A 1_555 1_555
H25A C25A 1_555 1_555
H26A C25A 1_555 1_555
C26A C25A 1_555 1_555
H27A C26A 1_555 1_555
H28A C26A 1_555 1_555
C27A C14A 1_555 1_555
H29A C27A 1_555 1_555
H30A C27A 1_555 1_555
C28A C27A 1_555 1_555
H31A C28A 1_555 1_555
H32A C28A 1_555 1_555
C29A C28A 1_555 1_555
H33A C29A 1_555 1_555
H34A C29A 1_555 1_555
C30A C29A 1_555 1_555
H35A C30A 1_555 1_555
H36A C30A 1_555 1_555
C31A N13A 1_555 1_555
C32A C33A 1_555 1_555
C33A C52A 1_555 1_555
C34A N15A 1_555 1_555
C35A H37A 1_555 1_555
H38A C35A 1_555 1_555
C36A H39A 1_555 1_555
H40A C36A 1_555 1_555
C37A N17A 1_555 1_555
C38A C39A 1_555 1_555
C39A C56A 1_555 1_555
C40A N19A 1_555 1_555
C41A H41A 1_555 1_555
H42A C41A 1_555 1_555
C42A H43A 1_555 1_555
H44A C42A 1_555 1_555
C43A N21A 1_555 1_555
C44A C45A 1_555 1_555
C45A C60A 1_555 1_555
C46A N23A 1_555 1_555
C47A N24 1_555 1_555
H45A C47A 1_555 1_555
H46A C47A 1_555 1_555
C48A N22 1_555 1_555
H47A C48A 1_555 1_555
H48A C48A 1_555 1_555
C49A C32A 1_555 1_555
H49A C49A 1_555 1_555
H50A C49A 1_555 1_555
C50A C49A 1_555 1_555
H51A C50A 1_555 1_555
H52A C50A 1_555 1_555
C51A C50A 1_555 1_555
H53A C51A 1_555 1_555
H54A C51A 1_555 1_555
C52A C51A 1_555 1_555
H55A C52A 1_555 1_555
H56A C52A 1_555 1_555
C53A C38A 1_555 1_555
H57A C53A 1_555 1_555
H58A C53A 1_555 1_555
C54A C53A 1_555 1_555
H59A C54A 1_555 1_555
H60A C54A 1_555 1_555
C55A C54A 1_555 1_555
H61A C55A 1_555 1_555
H62A C55A 1_555 1_555
C56A C55A 1_555 1_555
H63A C56A 1_555 1_555
H64A C56A 1_555 1_555
C57A C44A 1_555 1_555
H65A C57A 1_555 1_555
H66A C57A 1_555 1_555
C58A C57A 1_555 1_555
H67A C58A 1_555 1_555
H68A C58A 1_555 1_555
C59A C58A 1_555 1_555
H69A C59A 1_555 1_555
H70A C59A 1_555 1_555
C60A C59A 1_555 1_555
H71A C60A 1_555 1_555
H72A C60A 1_555 1_555
N1A C2A 1_555 1_555
N2A C1A 1_555 1_555
N3A C17 1_555 1_555
N4A C3A 1_555 1_555
N5A C5A 1_555 1_555
N6A C7A 1_555 1_555
N7A C6A 1_555 1_555
N8A C9A 1_555 1_555
N9A C11A 1_555 1_555
N10A C13A 1_555 1_555
N11A C12A 1_555 1_555
N12A C18 1_555 1_555
N13A C32A 1_555 1_555
N14A C31A 1_555 1_555
N15A C32A 1_555 1_555
N16A C33A 1_555 1_555
N17A C35A 1_555 1_555
N18A C37A 1_555 1_555
N19A C36A 1_555 1_555
N20A C39A 1_555 1_555
N21A C41A 1_555 1_555
N22A C48 1_555 1_555
N23A C42A 1_555 1_555
N24A C47 1_555 1_555
O5A C1A 1_555 1_555
O6A Tb1A 1_555 1_555
O7A C13A 1_555 1_555
O8A C4A 1_555 1_555
O9A C10A 1_555 1_555
O10A C16A 1_555 1_555
O11A C31A 1_555 1_555
O11A_2 Tb1A 1_555 1_555
O12A Tb1A_2 1_555 1_555
O12A_2 Tb1A 1_555 1_555
O13A C43A 1_555 1_555
O14A C34A 1_555 1_555
O15A C40A 1_555 1_555
O16A C46A 1_555 1_555
C3 N2 1_555 1_555
C4 N4 1_555 1_555
C5 N2 1_555 1_555
C6 N4 1_555 1_555
C7 O6 1_555 1_555
C8 N5 1_555 1_555
C8 N7 1_555 1_555
C9 N6 1_555 1_555
C10 N8 1_555 1_555
C11 N6 1_555 1_555
C12 N8 1_555 1_555
C14 N9 1_555 1_555
C14 N11 1_555 1_555
C15 N10 1_555 1_555
C16 N12 1_555 1_555
C17 N10 1_555 1_555
C18 N1 1_555 1_555
C31 O11 1_555 1_555
C33 N14 1_555 1_555
C34 N16 1_555 1_555
C35 N14 1_555 1_555
C36 N16 1_555 1_555
C37 O12 1_555 1_555
C38 N17 1_555 1_555
C38 N19 1_555 1_555
C39 N18 1_555 1_555
C40 N20 1_555 1_555
C41 N18 1_555 1_555
C42 N20 1_555 1_555
C44 N21 1_555 1_555
C44 N23 1_555 1_555
C45 N22 1_555 1_555
C46 N24 1_555 1_555
C47 N13 1_555 1_555
C48 N15 1_555 1_555
C2A N3A 1_555 1_555
C3A N2A 1_555 1_555
C4A N4A 1_555 1_555
C5A N2A 1_555 1_555
C6A N4A 1_555 1_555
C7A O6A 1_555 1_555
C8A N5A 1_555 1_555
C8A N7A 1_555 1_555
C9A N6A 1_555 1_555
C10A N8A 1_555 1_555
C11A N6A 1_555 1_555
C12A N8A 1_555 1_555
C14A N9A 1_555 1_555
C14A N11A 1_555 1_555
C15A N10A 1_555 1_555
C15A N12A 1_555 1_555
C16A N12A 1_555 1_555
C17A N10A 1_555 1_555
C18A N1A 1_555 1_555
C33A N14A 1_555 1_555
C34A N16A 1_555 1_555
C35A N14A 1_555 1_555
C36A N16A 1_555 1_555
C37A O12A 1_555 1_555
C38A N17A 1_555 1_555
C38A N19A 1_555 1_555
C39A N18A 1_555 1_555
C40A N20A 1_555 1_555
C41A N18A 1_555 1_555
C42A N20A 1_555 1_555
C43A N22A 1_555 1_555
C44A N21A 1_555 1_555
C44A N23A 1_555 1_555
C45A N22A 1_555 1_555
C45A N24A 1_555 1_555
C46A N24A 1_555 1_555
C47A N13A 1_555 1_555
C48A N15A 1_555 1_555

#END
