
#######################################################################
#
#                 Cambridge Crystallographic Data Centre
#                                CCDC 
#
#######################################################################
#
# If this CIF has been generated from an entry in the Cambridge 
# Structural Database, then it will include bibliographic, chemical, 
# crystal, experimental, refinement or atomic coordinate data resulting 
# from the CCDC's data processing and validation procedures.
#
#######################################################################

data_TEPNAF
_symmetry_cell_setting           triclinic
_symmetry_space_group_name_H-M   'P -1'
_symmetry_Int_Tables_number      2
_space_group_name_Hall           '-P 1'
loop_
_symmetry_equiv_pos_site_id
_symmetry_equiv_pos_as_xyz
1 x,y,z
2 -x,-y,-z
_cell_length_a                   15.8450(7)
_cell_length_b                   15.9385(7)
_cell_length_c                   18.1401(8)
_cell_angle_alpha                74.731(2)
_cell_angle_beta                 89.311(2)
_cell_angle_gamma                63.456(2)
_cell_volume                     3923.89
loop_
_atom_site_label
_atom_site_type_symbol
_atom_site_fract_x
_atom_site_fract_y
_atom_site_fract_z
N25 N 0.0094(3) 0.4443(3) -0.1967(2)
O17 O 0.0462(3) 0.4516(3) -0.2563(2)
O18 O 0.0106(3) 0.4904(3) -0.1518(2)
O19 O -0.0286(3) 0.3903(3) -0.1810(2)
N26 N 0.5662(3) 0.7193(3) -0.4145(3)
O20 O 0.5265(3) 0.8080(3) -0.4301(2)
O21 O 0.6245(4) 0.6770(3) -0.4547(3)
O22 O 0.5458(4) 0.6704(3) -0.3588(3)
N27 N 0.5933(5) 0.9369(4) -0.1666(3)
O23 O 0.5340(3) 0.9974(3) -0.1325(2)
O24 O 0.6739(4) 0.8713(4) -0.1321(3)
O25 O 0.5748(4) 0.9451(4) -0.2316(3)
O1 O 0.2581(2) 0.9484(2) -0.28531(16)
O2 O 0.3949(2) 0.6206(2) -0.24588(17)
O3 O 0.4400(2) 0.7748(2) -0.26600(17)
O4 O 0.1233(2) 0.8826(2) -0.27385(18)
Ho1 Ho 0.285241(13) 0.784303(13) -0.263644(10)
C1 C 0.1985(3) 0.6696(3) -0.1104(2)
C2 C 0.1394(3) 0.5884(3) -0.0136(2)
C3 C 0.1232(3) 0.6871(3) 0.0004(2)
C4 C 0.2202(3) 0.5558(3) 0.1064(2)
C5 C 0.1543(3) 0.8257(3) -0.0834(2)
H1 H 0.0966 0.8697 -0.0662
H2 H 0.1494 0.8518 -0.1393
C6 C 0.1905(3) 0.7164(3) 0.1150(2)
H3 H 0.2077 0.6801 0.1698
H4 H 0.1280 0.7731 0.1092
C7 C 0.3125(3) 0.8164(3) -0.0831(2)
C8 C 0.2416(3) 0.8388(3) 0.0286(2)
C9 C 0.3376(3) 0.8439(3) 0.0336(2)
C10 C 0.3468(3) 0.7103(3) 0.1324(2)
C11 C 0.4544(3) 0.8378(3) -0.0675(2)
H5 H 0.4477 0.8492 -0.1234
H6 H 0.4515 0.8967 -0.0580
C12 C 0.4822(3) 0.7448(3) 0.1390(2)
H7 H 0.4787 0.8075 0.1397
H8 H 0.4902 0.7059 0.1925
C13 C 0.6037(3) 0.7011(3) -0.0785(2)
C14 C 0.5987(3) 0.7409(3) 0.0375(2)
C15 C 0.7002(3) 0.6577(3) 0.0359(2)
C16 C 0.6306(3) 0.5999(3) 0.1394(2)
C17 C 0.7720(3) 0.5881(3) -0.0757(2)
H9 H 0.7553 0.6155 -0.1317
H10 H 0.8263 0.5972 -0.0620
C18 C 0.7917(3) 0.4812(3) 0.1273(2)
H11 H 0.8469 0.4934 0.1290
H12 H 0.7864 0.4497 0.1802
C19 C 0.0466(3) 0.5859(3) -0.0281(2)
H13 H 0.0173 0.5811 0.0196
H14 H 0.0590 0.5283 -0.0449
C20 C -0.0211(3) 0.6789(3) -0.0901(3)
H15 H -0.0804 0.6759 -0.0993
H16 H 0.0076 0.6816 -0.1383
C21 C -0.0440(3) 0.7726(3) -0.0676(3)
H17 H -0.0357 0.8194 -0.1106
H18 H -0.1107 0.8024 -0.0583
C22 C 0.0192(3) 0.7530(3) 0.0044(3)
H19 H 0.0122 0.8154 0.0096
H20 H -0.0015 0.7220 0.0500
C23 C 0.1562(3) 0.9307(3) 0.0367(3)
H21 H 0.0998 0.9200 0.0406
H22 H 0.1433 0.9860 -0.0088
C24 C 0.1771(4) 0.9540(4) 0.1089(3)
H23 H 0.1227 1.0137 0.1133
H24 H 0.1855 0.9004 0.1544
C25 C 0.2658(4) 0.9684(4) 0.1070(3)
H25 H 0.3077 0.9269 0.1553
H26 H 0.2472 1.0367 0.1044
C26 C 0.3213(3) 0.9442(3) 0.0396(3)
H27 H 0.3828 0.9436 0.0471
H28 H 0.2859 0.9948 -0.0083
C27 C 0.6018(3) 0.8318(3) 0.0451(3)
H29 H 0.5380 0.8797 0.0504
H30 H 0.6220 0.8614 -0.0016
C28 C 0.6702(3) 0.8074(3) 0.1146(3)
H31 H 0.6429 0.7905 0.1616
H32 H 0.6773 0.8656 0.1139
C29 C 0.7683(3) 0.7227(4) 0.1172(3)
H33 H 0.8167 0.7443 0.1209
H34 H 0.7801 0.6686 0.1635
C30 C 0.7778(3) 0.6859(3) 0.0465(3)
H35 H 0.7738 0.7372 0.0007
H36 H 0.8401 0.6289 0.0525
C31 C -0.0723(3) 0.8290(3) -0.3107(2)
C32 C -0.2073(3) 0.8564(3) -0.3856(2)
C33 C -0.1201(3) 0.7581(3) -0.3900(2)
C34 C -0.1722(3) 0.8699(3) -0.5129(2)
C35 C 0.0523(3) 0.6743(3) -0.3235(2)
H37 H 0.0470 0.6133 -0.3088
H38 H 0.0818 0.6781 -0.2781
C36 C -0.0527(3) 0.7033(3) -0.5077(2)
H39 H -0.0534 0.6415 -0.4814
H40 H -0.0810 0.7235 -0.5611
C37 C 0.1916(3) 0.6851(3) -0.3757(2)
C38 C 0.1199(3) 0.6232(3) -0.4444(2)
C39 C 0.2109(3) 0.6216(3) -0.4809(2)
C40 C 0.0764(3) 0.7226(3) -0.5727(2)
C41 C 0.3369(3) 0.6627(3) -0.4346(2)
H41 H 0.3821 0.6087 -0.4530
H42 H 0.3633 0.6535 -0.3828
C42 C 0.2257(3) 0.7135(3) -0.6168(2)
H43 H 0.1887 0.7342 -0.6668
H44 H 0.2844 0.6538 -0.6144
C43 C 0.3110(3) 0.8321(3) -0.4599(2)
C44 C 0.3349(3) 0.7730(3) -0.5671(2)
C45 C 0.3301(3) 0.8769(3) -0.5901(2)
C46 C 0.2037(3) 0.8824(3) -0.6610(2)
C47 C 0.3124(3) 0.9892(3) -0.5049(2)
H45 H 0.3661 0.9958 -0.5282
H46 H 0.3243 0.9773 -0.4493
C48 C -0.2224(3) 0.9676(3) -0.3000(2)
H47 H -0.1854 0.9575 -0.2527
H48 H -0.2805 0.9634 -0.2856
C49 C -0.2909(3) 0.8395(3) -0.3582(2)
H49 H -0.3156 0.8211 -0.3972
H50 H -0.3416 0.9009 -0.3526
C50 C -0.2645(3) 0.7600(3) -0.2818(3)
H51 H -0.3161 0.7419 -0.2728
H52 H -0.2581 0.7862 -0.2402
C51 C -0.1715(3) 0.6678(3) -0.2789(3)
H53 H -0.1225 0.6625 -0.2430
H54 H -0.1815 0.6099 -0.2595
C52 C -0.1373(3) 0.6700(3) -0.3576(2)
H55 H -0.0782 0.6100 -0.3533
H56 H -0.1849 0.6720 -0.3929
C53 C 0.1281(3) 0.5213(3) -0.4134(2)
H57 H 0.1247 0.4959 -0.4564
H58 H 0.0751 0.5243 -0.3840
C54 C 0.2221(3) 0.4528(3) -0.3617(3)
H59 H 0.2262 0.3874 -0.3422
H60 H 0.2232 0.4767 -0.3173
C55 C 0.3088(3) 0.4449(3) -0.4034(3)
H61 H 0.3437 0.3785 -0.4086
H62 H 0.3513 0.4554 -0.3722
C56 C 0.2815(3) 0.5196(3) -0.4839(2)
H63 H 0.3388 0.5211 -0.5037
H64 H 0.2534 0.4992 -0.5192
C57 C 0.4258(3) 0.6964(3) -0.5859(2)
H65 H 0.4799 0.6819 -0.5504
H66 H 0.4210 0.6357 -0.5794
C58 C 0.4419(3) 0.7336(3) -0.6681(2)
H67 H 0.3883 0.7466 -0.7033
H68 H 0.4995 0.6827 -0.6799
C59 C 0.4525(3) 0.8275(3) -0.6815(3)
H69 H 0.5190 0.8118 -0.6872
H70 H 0.4139 0.8745 -0.7298
C60 C 0.4225(3) 0.8754(3) -0.6167(2)
H71 H 0.4138 0.9427 -0.6347
H72 H 0.4730 0.8394 -0.5731
N1 N 0.1915(2) 0.5858(2) -0.08166(18)
N2 N 0.1585(2) 0.7304(2) -0.06584(18)
N3 N 0.1989(2) 0.5152(2) 0.05593(18)
N4 N 0.1835(2) 0.6540(2) 0.07274(18)
N5 N 0.2354(2) 0.8259(2) -0.04811(18)
N6 N 0.3746(2) 0.8246(2) -0.03750(18)
N7 N 0.2598(2) 0.7511(2) 0.09016(19)
N8 N 0.3925(2) 0.7637(2) 0.10126(18)
N9 N 0.5470(2) 0.7564(2) -0.03505(18)
N10 N 0.6926(2) 0.6433(2) -0.03936(19)
N11 N 0.5657(2) 0.6940(2) 0.10391(18)
N12 N 0.7069(2) 0.5747(2) 0.09896(18)
N13 N -0.1676(2) 0.8888(2) -0.33305(18)
N14 N -0.0425(2) 0.7563(2) -0.34532(18)
N15 N -0.2261(2) 0.9186(2) -0.46437(18)
N16 N -0.1112(2) 0.7767(2) -0.47114(18)
N17 N 0.1147(2) 0.6702(2) -0.38376(18)
N18 N 0.2489(2) 0.6571(2) -0.42960(17)
N19 N 0.0446(2) 0.6861(2) -0.50770(18)
N20 N 0.1719(2) 0.6908(2) -0.55671(18)
N21 N 0.3284(2) 0.7539(2) -0.48474(18)
N22 N 0.3091(2) 0.9055(2) -0.51834(17)
N23 N 0.2502(2) 0.7894(2) -0.61180(18)
N24 N 0.2489(2) 0.9344(2) -0.65028(18)
O5 O 0.2339(2) 0.6885(2) -0.16919(15)
O6 O 0.32668(19) 0.8020(2) -0.14665(15)
O7 O 0.5801(2) 0.7030(2) -0.14337(16)
O8 O 0.2638(2) 0.5108(2) 0.17036(16)
O9 O 0.3771(2) 0.6399(2) 0.18969(16)
O10 O 0.6232(2) 0.5476(2) 0.19940(16)
O11 O -0.02315(19) 0.8376(2) -0.26446(16)
O12 O 0.20781(19) 0.7165(2) -0.32521(15)
O13 O 0.30100(19) 0.83459(19) -0.39275(15)
O14 O -0.1773(2) 0.9025(2) -0.58272(16)
O15 O 0.0289(2) 0.7733(2) -0.63457(16)
O16 O 0.1352(2) 0.9127(2) -0.70818(17)
O1A O -0.2581(2) 1.0516(2) -0.71469(16)
O2A O -0.3949(2) 1.3794(2) -0.75412(17)
O3A O -0.4400(2) 1.2252(2) -0.73400(17)
O4A O -0.1233(2) 1.1174(2) -0.72615(18)
Ho1A Ho -0.285241(13) 1.215697(13) -0.736356(10)
Ho1A_2 Ho 0.714759(13) 0.215697(13) 0.263644(10)
C1A C 0.8015(3) 0.3304(3) 0.1104(2)
C2A C 0.8606(3) 0.4116(3) 0.0136(2)
C3A C 0.8768(3) 0.3129(3) -0.0004(2)
C4A C 0.7798(3) 0.4442(3) -0.1064(2)
C5A C 0.8457(3) 0.1743(3) 0.0834(2)
H1A H 0.9034 0.1303 0.0662
H2A H 0.8506 0.1482 0.1393
C6A C 0.8095(3) 0.2836(3) -0.1150(2)
H3A H 0.7923 0.3199 -0.1698
H4A H 0.8720 0.2269 -0.1092
C7A C 0.6875(3) 0.1836(3) 0.0831(2)
C8A C 0.7584(3) 0.1612(3) -0.0286(2)
C9A C 0.6624(3) 0.1561(3) -0.0336(2)
C10A C 0.6532(3) 0.2897(3) -0.1324(2)
C11A C 0.5456(3) 0.1622(3) 0.0675(2)
H5A H 0.5523 0.1508 0.1234
H6A H 0.5485 0.1033 0.0580
C12A C 0.5178(3) 0.2552(3) -0.1390(2)
H7A H 0.5213 0.1925 -0.1397
H8A H 0.5098 0.2941 -0.1925
C13A C 0.3963(3) 0.2989(3) 0.0785(2)
C14A C 0.4013(3) 0.2591(3) -0.0375(2)
C15A C 0.2998(3) 0.3423(3) -0.0359(2)
C16A C 0.3694(3) 0.4001(3) -0.1394(2)
C17A C 0.2280(3) 0.4119(3) 0.0757(2)
H9A H 0.2447 0.3845 0.1317
H10A H 0.1737 0.4028 0.0620
C18A C 0.2083(3) 0.5188(3) -0.1273(2)
H11A H 0.1531 0.5066 -0.1290
H12A H 0.2136 0.5503 -0.1802
C19A C 0.9534(3) 0.4141(3) 0.0281(2)
H13A H 0.9827 0.4189 -0.0196
H14A H 0.9410 0.4717 0.0449
C20A C 1.0211(3) 0.3211(3) 0.0901(3)
H15A H 1.0804 0.3241 0.0993
H16A H 0.9924 0.3184 0.1383
C21A C 1.0440(3) 0.2274(3) 0.0676(3)
H17A H 1.0357 0.1806 0.1106
H18A H 1.1107 0.1976 0.0583
C22A C 0.9808(3) 0.2470(3) -0.0044(3)
H19A H 0.9878 0.1846 -0.0096
H20A H 1.0015 0.2780 -0.0500
C23A C 0.8438(3) 0.0693(3) -0.0367(3)
H21A H 0.9002 0.0800 -0.0406
H22A H 0.8567 0.0140 0.0088
C24A C 0.8229(4) 0.0460(4) -0.1089(3)
H23A H 0.8773 -0.0137 -0.1133
H24A H 0.8145 0.0996 -0.1544
C25A C 0.7342(4) 0.0316(4) -0.1070(3)
H25A H 0.6923 0.0731 -0.1553
H26A H 0.7528 -0.0367 -0.1044
C26A C 0.6787(3) 0.0558(3) -0.0396(3)
H27A H 0.6172 0.0564 -0.0471
H28A H 0.7141 0.0052 0.0083
C27A C 0.3982(3) 0.1682(3) -0.0451(3)
H29A H 0.4620 0.1203 -0.0504
H30A H 0.3780 0.1386 0.0016
C28A C 0.3298(3) 0.1926(3) -0.1146(3)
H31A H 0.3571 0.2095 -0.1616
H32A H 0.3227 0.1344 -0.1139
C29A C 0.2317(3) 0.2773(4) -0.1172(3)
H33A H 0.1833 0.2557 -0.1209
H34A H 0.2199 0.3314 -0.1635
C30A C 0.2222(3) 0.3141(3) -0.0465(3)
H35A H 0.2262 0.2628 -0.0007
H36A H 0.1599 0.3711 -0.0525
C31A C 0.0723(3) 1.1710(3) -0.6893(2)
C32A C 0.2073(3) 1.1436(3) -0.6144(2)
C33A C 0.1201(3) 1.2419(3) -0.6100(2)
C34A C 0.1722(3) 1.1301(3) -0.4871(2)
C35A C -0.0523(3) 1.3257(3) -0.6765(2)
H37A H -0.0470 1.3867 -0.6912
H38A H -0.0818 1.3219 -0.7219
C36A C 0.0527(3) 1.2967(3) -0.4923(2)
H39A H 0.0534 1.3585 -0.5186
H40A H 0.0810 1.2765 -0.4389
C37A C -0.1916(3) 1.3149(3) -0.6243(2)
C38A C -0.1199(3) 1.3768(3) -0.5556(2)
C39A C -0.2109(3) 1.3784(3) -0.5191(2)
C40A C -0.0764(3) 1.2774(3) -0.4273(2)
C41A C -0.3369(3) 1.3373(3) -0.5654(2)
H41A H -0.3821 1.3913 -0.5470
H42A H -0.3633 1.3465 -0.6172
C42A C -0.2257(3) 1.2865(3) -0.3832(2)
H43A H -0.1887 1.2658 -0.3332
H44A H -0.2844 1.3462 -0.3856
C43A C -0.3110(3) 1.1679(3) -0.5401(2)
C44A C -0.3349(3) 1.2270(3) -0.4329(2)
C45A C -0.3301(3) 1.1231(3) -0.4099(2)
C46A C -0.2037(3) 1.1176(3) -0.3390(2)
C47A C -0.3124(3) 1.0108(3) -0.4951(2)
H45A H -0.3661 1.0042 -0.4718
H46A H -0.3243 1.0227 -0.5507
C48A C 0.2224(3) 1.0324(3) -0.7000(2)
H47A H 0.1854 1.0425 -0.7473
H48A H 0.2805 1.0366 -0.7144
C49A C 0.2909(3) 1.1605(3) -0.6418(2)
H49A H 0.3156 1.1789 -0.6028
H50A H 0.3416 1.0991 -0.6474
C50A C 0.2645(3) 1.2400(3) -0.7182(3)
H51A H 0.3161 1.2581 -0.7272
H52A H 0.2581 1.2138 -0.7598
C51A C 0.1715(3) 1.3322(3) -0.7211(3)
H53A H 0.1225 1.3375 -0.7570
H54A H 0.1815 1.3901 -0.7405
C52A C 0.1373(3) 1.3300(3) -0.6424(2)
H55A H 0.0782 1.3900 -0.6467
H56A H 0.1849 1.3280 -0.6071
C53A C -0.1281(3) 1.4787(3) -0.5866(2)
H57A H -0.1247 1.5041 -0.5436
H58A H -0.0751 1.4757 -0.6160
C54A C -0.2221(3) 1.5472(3) -0.6383(3)
H59A H -0.2262 1.6126 -0.6578
H60A H -0.2232 1.5233 -0.6827
C55A C -0.3088(3) 1.5551(3) -0.5966(3)
H61A H -0.3437 1.6215 -0.5914
H62A H -0.3513 1.5446 -0.6278
C56A C -0.2815(3) 1.4804(3) -0.5161(2)
H63A H -0.3388 1.4789 -0.4963
H64A H -0.2534 1.5008 -0.4808
C57A C -0.4258(3) 1.3036(3) -0.4141(2)
H65A H -0.4799 1.3181 -0.4496
H66A H -0.4210 1.3643 -0.4206
C58A C -0.4419(3) 1.2664(3) -0.3319(2)
H67A H -0.3883 1.2534 -0.2967
H68A H -0.4995 1.3173 -0.3201
C59A C -0.4525(3) 1.1725(3) -0.3185(3)
H69A H -0.5190 1.1882 -0.3128
H70A H -0.4139 1.1255 -0.2702
C60A C -0.4225(3) 1.1246(3) -0.3833(2)
H71A H -0.4138 1.0573 -0.3653
H72A H -0.4730 1.1606 -0.4269
N1A N 0.8085(2) 0.4142(2) 0.08166(18)
N2A N 0.8415(2) 0.2696(2) 0.06584(18)
N3A N 0.8011(2) 0.4848(2) -0.05593(18)
N4A N 0.8165(2) 0.3460(2) -0.07274(18)
N5A N 0.7646(2) 0.1741(2) 0.04811(18)
N6A N 0.6254(2) 0.1754(2) 0.03750(18)
N7A N 0.7402(2) 0.2489(2) -0.09016(19)
N8A N 0.6075(2) 0.2363(2) -0.10126(18)
N9A N 0.4530(2) 0.2436(2) 0.03505(18)
N10A N 0.3074(2) 0.3567(2) 0.03936(19)
N11A N 0.4343(2) 0.3060(2) -0.10391(18)
N12A N 0.2931(2) 0.4253(2) -0.09896(18)
N13A N 0.1676(2) 1.1112(2) -0.66695(18)
N14A N 0.0425(2) 1.2437(2) -0.65468(18)
N15A N 0.2261(2) 1.0814(2) -0.53563(18)
N16A N 0.1112(2) 1.2233(2) -0.52886(18)
N17A N -0.1147(2) 1.3298(2) -0.61624(18)
N18A N -0.2489(2) 1.3429(2) -0.57040(17)
N19A N -0.0446(2) 1.3139(2) -0.49230(18)
N20A N -0.1719(2) 1.3092(2) -0.44329(18)
N21A N -0.3284(2) 1.2461(2) -0.51526(18)
N22A N -0.3091(2) 1.0945(2) -0.48166(17)
N23A N -0.2502(2) 1.2106(2) -0.38820(18)
N24A N -0.2489(2) 1.0656(2) -0.34972(18)
O5A O 0.7661(2) 0.3115(2) 0.16919(15)
O5A_2 O -0.2339(2) 1.3115(2) -0.83081(15)
O6A O 0.67332(19) 0.1980(2) 0.14665(15)
O6A_2 O -0.32668(19) 1.1980(2) -0.85335(15)
O7A O 0.4199(2) 0.2970(2) 0.14337(16)
O8A O 0.7362(2) 0.4892(2) -0.17036(16)
O9A O 0.6229(2) 0.3601(2) -0.18969(16)
O10A O 0.3768(2) 0.4524(2) -0.19940(16)
O11A O 0.02315(19) 1.1624(2) -0.73554(16)
O12A O -0.20781(19) 1.2835(2) -0.67479(15)
O13A O -0.30100(19) 1.16541(19) -0.60725(15)
O14A O 0.1773(2) 1.0975(2) -0.41728(16)
O15A O -0.0289(2) 1.2267(2) -0.36543(16)
O16A O -0.1352(2) 1.0873(2) -0.29182(17)
loop_
_geom_bond_atom_site_label_1
_geom_bond_atom_site_label_2
_geom_bond_site_symmetry_1
_geom_bond_site_symmetry_2
O1 Ho1 1_555 1_555
O2 Ho1 1_555 1_555
O3 Ho1 1_555 1_555
O4 Ho1 1_555 1_555
Ho1 O5 1_555 1_555
C1 N1 1_555 1_555
C2 C3 1_555 1_555
C3 C22 1_555 1_555
C4 N3 1_555 1_555
C5 H1 1_555 1_555
H2 C5 1_555 1_555
C6 H3 1_555 1_555
H4 C6 1_555 1_555
C7 N5 1_555 1_555
C8 C9 1_555 1_555
C9 C26 1_555 1_555
C10 N7 1_555 1_555
C11 H5 1_555 1_555
H6 C11 1_555 1_555
C12 H7 1_555 1_555
H8 C12 1_555 1_555
C13 N9 1_555 1_555
C14 C15 1_555 1_555
C15 C30 1_555 1_555
C16 N11 1_555 1_555
C17 H9 1_555 1_555
H10 C17 1_555 1_555
C18 H11 1_555 1_555
H12 C18 1_555 1_555
C19 C2 1_555 1_555
H13 C19 1_555 1_555
H14 C19 1_555 1_555
C20 C19 1_555 1_555
H15 C20 1_555 1_555
H16 C20 1_555 1_555
C21 C20 1_555 1_555
H17 C21 1_555 1_555
H18 C21 1_555 1_555
C22 C21 1_555 1_555
H19 C22 1_555 1_555
H20 C22 1_555 1_555
C23 C8 1_555 1_555
H21 C23 1_555 1_555
H22 C23 1_555 1_555
C24 C23 1_555 1_555
H23 C24 1_555 1_555
H24 C24 1_555 1_555
C25 C24 1_555 1_555
H25 C25 1_555 1_555
H26 C25 1_555 1_555
C26 C25 1_555 1_555
H27 C26 1_555 1_555
H28 C26 1_555 1_555
C27 C14 1_555 1_555
H29 C27 1_555 1_555
H30 C27 1_555 1_555
C28 C27 1_555 1_555
H31 C28 1_555 1_555
H32 C28 1_555 1_555
C29 C28 1_555 1_555
H33 C29 1_555 1_555
H34 C29 1_555 1_555
C30 C29 1_555 1_555
H35 C30 1_555 1_555
H36 C30 1_555 1_555
C31 N13 1_555 1_555
C32 C33 1_555 1_555
C33 C52 1_555 1_555
C34 N15 1_555 1_555
C35 H37 1_555 1_555
H38 C35 1_555 1_555
C36 H39 1_555 1_555
H40 C36 1_555 1_555
C37 N17 1_555 1_555
C38 C39 1_555 1_555
C39 C56 1_555 1_555
C40 N19 1_555 1_555
C41 H41 1_555 1_555
H42 C41 1_555 1_555
C42 H43 1_555 1_555
H44 C42 1_555 1_555
C43 N21 1_555 1_555
C44 C45 1_555 1_555
C45 C60 1_555 1_555
C46 N23 1_555 1_555
C47 H45 1_555 1_555
H46 C47 1_555 1_555
C48 H47 1_555 1_555
H48 C48 1_555 1_555
C49 C32 1_555 1_555
H49 C49 1_555 1_555
H50 C49 1_555 1_555
C50 C49 1_555 1_555
H51 C50 1_555 1_555
H52 C50 1_555 1_555
C51 C50 1_555 1_555
H53 C51 1_555 1_555
H54 C51 1_555 1_555
C52 C51 1_555 1_555
H55 C52 1_555 1_555
H56 C52 1_555 1_555
C53 C38 1_555 1_555
H57 C53 1_555 1_555
H58 C53 1_555 1_555
C54 C53 1_555 1_555
H59 C54 1_555 1_555
H60 C54 1_555 1_555
C55 C54 1_555 1_555
H61 C55 1_555 1_555
H62 C55 1_555 1_555
C56 C55 1_555 1_555
H63 C56 1_555 1_555
H64 C56 1_555 1_555
C57 C44 1_555 1_555
H65 C57 1_555 1_555
H66 C57 1_555 1_555
C58 C57 1_555 1_555
H67 C58 1_555 1_555
H68 C58 1_555 1_555
C59 C58 1_555 1_555
H69 C59 1_555 1_555
H70 C59 1_555 1_555
C60 C59 1_555 1_555
H71 C60 1_555 1_555
H72 C60 1_555 1_555
N1 C2 1_555 1_555
N2 C1 1_555 1_555
N3 C2 1_555 1_555
N4 C3 1_555 1_555
N5 C5 1_555 1_555
N6 C7 1_555 1_555
N7 C6 1_555 1_555
N8 C9 1_555 1_555
N9 C11 1_555 1_555
N10 C13 1_555 1_555
N11 C12 1_555 1_555
N12 C15 1_555 1_555
N13 C32 1_555 1_555
N14 C31 1_555 1_555
N15 C32 1_555 1_555
N16 C33 1_555 1_555
N17 C35 1_555 1_555
N18 C37 1_555 1_555
N19 C36 1_555 1_555
N20 C39 1_555 1_555
N21 C41 1_555 1_555
N22 C43 1_555 1_555
N23 C42 1_555 1_555
N24 C45 1_555 1_555
O5 C1 1_555 1_555
O6 Ho1 1_555 1_555
O7 C13 1_555 1_555
O8 C4 1_555 1_555
O9 C10 1_555 1_555
O10 C16 1_555 1_555
O11 C31 1_555 1_555
O12 Ho1 1_555 1_555
O13 Ho1 1_555 1_555
O14 C34 1_555 1_555
O15 C40 1_555 1_555
O16 C46 1_555 1_555
N25 O17 1_555 1_555
N26 O20 1_555 1_555
N27 O23 1_555 1_555
O18 N25 1_555 1_555
O19 N25 1_555 1_555
O21 N26 1_555 1_555
O22 N26 1_555 1_555
O24 N27 1_555 1_555
O25 N27 1_555 1_555
O1A Ho1A 1_555 1_555
O2A Ho1A 1_555 1_555
O3A Ho1A 1_555 1_555
O4A Ho1A 1_555 1_555
Ho1A O5A_2 1_555 1_555
Ho1A_2 O5A 1_555 1_555
C1A N1A 1_555 1_555
C2A C3A 1_555 1_555
C3A C22A 1_555 1_555
C4A N3A 1_555 1_555
C5A H1A 1_555 1_555
H2A C5A 1_555 1_555
C6A H3A 1_555 1_555
H4A C6A 1_555 1_555
C7A N5A 1_555 1_555
C8A C9A 1_555 1_555
C9A C26A 1_555 1_555
C10A N7A 1_555 1_555
C11A H5A 1_555 1_555
H6A C11A 1_555 1_555
C12A H7A 1_555 1_555
H8A C12A 1_555 1_555
C13A N9A 1_555 1_555
C14A C15A 1_555 1_555
C15A C30A 1_555 1_555
C16A N11A 1_555 1_555
C17A N3 1_555 1_555
H9A C17A 1_555 1_555
H10A C17A 1_555 1_555
C18A N1 1_555 1_555
H11A C18A 1_555 1_555
H12A C18A 1_555 1_555
C19A C2A 1_555 1_555
H13A C19A 1_555 1_555
H14A C19A 1_555 1_555
C20A C19A 1_555 1_555
H15A C20A 1_555 1_555
H16A C20A 1_555 1_555
C21A C20A 1_555 1_555
H17A C21A 1_555 1_555
H18A C21A 1_555 1_555
C22A C21A 1_555 1_555
H19A C22A 1_555 1_555
H20A C22A 1_555 1_555
C23A C8A 1_555 1_555
H21A C23A 1_555 1_555
H22A C23A 1_555 1_555
C24A C23A 1_555 1_555
H23A C24A 1_555 1_555
H24A C24A 1_555 1_555
C25A C24A 1_555 1_555
H25A C25A 1_555 1_555
H26A C25A 1_555 1_555
C26A C25A 1_555 1_555
H27A C26A 1_555 1_555
H28A C26A 1_555 1_555
C27A C14A 1_555 1_555
H29A C27A 1_555 1_555
H30A C27A 1_555 1_555
C28A C27A 1_555 1_555
H31A C28A 1_555 1_555
H32A C28A 1_555 1_555
C29A C28A 1_555 1_555
H33A C29A 1_555 1_555
H34A C29A 1_555 1_555
C30A C29A 1_555 1_555
H35A C30A 1_555 1_555
H36A C30A 1_555 1_555
C31A N13A 1_555 1_555
C32A C33A 1_555 1_555
C33A C52A 1_555 1_555
C34A N15A 1_555 1_555
C35A H37A 1_555 1_555
H38A C35A 1_555 1_555
C36A H39A 1_555 1_555
H40A C36A 1_555 1_555
C37A N17A 1_555 1_555
C38A C39A 1_555 1_555
C39A C56A 1_555 1_555
C40A N19A 1_555 1_555
C41A H41A 1_555 1_555
H42A C41A 1_555 1_555
C42A H43A 1_555 1_555
H44A C42A 1_555 1_555
C43A N21A 1_555 1_555
C44A C45A 1_555 1_555
C45A C60A 1_555 1_555
C46A N23A 1_555 1_555
C47A N15 1_555 1_555
H45A C47A 1_555 1_555
H46A C47A 1_555 1_555
C48A N24 1_555 1_555
H47A C48A 1_555 1_555
H48A C48A 1_555 1_555
C49A C32A 1_555 1_555
H49A C49A 1_555 1_555
H50A C49A 1_555 1_555
C50A C49A 1_555 1_555
H51A C50A 1_555 1_555
H52A C50A 1_555 1_555
C51A C50A 1_555 1_555
H53A C51A 1_555 1_555
H54A C51A 1_555 1_555
C52A C51A 1_555 1_555
H55A C52A 1_555 1_555
H56A C52A 1_555 1_555
C53A C38A 1_555 1_555
H57A C53A 1_555 1_555
H58A C53A 1_555 1_555
C54A C53A 1_555 1_555
H59A C54A 1_555 1_555
H60A C54A 1_555 1_555
C55A C54A 1_555 1_555
H61A C55A 1_555 1_555
H62A C55A 1_555 1_555
C56A C55A 1_555 1_555
H63A C56A 1_555 1_555
H64A C56A 1_555 1_555
C57A C44A 1_555 1_555
H65A C57A 1_555 1_555
H66A C57A 1_555 1_555
C58A C57A 1_555 1_555
H67A C58A 1_555 1_555
H68A C58A 1_555 1_555
C59A C58A 1_555 1_555
H69A C59A 1_555 1_555
H70A C59A 1_555 1_555
C60A C59A 1_555 1_555
H71A C60A 1_555 1_555
H72A C60A 1_555 1_555
N1A C18 1_555 1_555
N2A C1A 1_555 1_555
N3A C17 1_555 1_555
N4A C3A 1_555 1_555
N5A C5A 1_555 1_555
N6A C7A 1_555 1_555
N7A C6A 1_555 1_555
N8A C9A 1_555 1_555
N9A C11A 1_555 1_555
N10A C13A 1_555 1_555
N11A C12A 1_555 1_555
N12A C15A 1_555 1_555
N13A C32A 1_555 1_555
N14A C31A 1_555 1_555
N15A C47 1_555 1_555
N16A C33A 1_555 1_555
N17A C35A 1_555 1_555
N18A C37A 1_555 1_555
N19A C36A 1_555 1_555
N20A C39A 1_555 1_555
N21A C41A 1_555 1_555
N22A C43A 1_555 1_555
N23A C42A 1_555 1_555
N24A C48 1_555 1_555
O5A C1A 1_555 1_555
O6A Ho1A_2 1_555 1_555
O6A_2 Ho1A 1_555 1_555
O7A C13A 1_555 1_555
O8A C4A 1_555 1_555
O9A C10A 1_555 1_555
O10A C16A 1_555 1_555
O11A C31A 1_555 1_555
O12A Ho1A 1_555 1_555
O13A Ho1A 1_555 1_555
O14A C34A 1_555 1_555
O15A C40A 1_555 1_555
O16A C46A 1_555 1_555
C3 N2 1_555 1_555
C4 N4 1_555 1_555
C5 N2 1_555 1_555
C6 N4 1_555 1_555
C7 O6 1_555 1_555
C8 N5 1_555 1_555
C8 N7 1_555 1_555
C9 N6 1_555 1_555
C10 N8 1_555 1_555
C11 N6 1_555 1_555
C12 N8 1_555 1_555
C14 N9 1_555 1_555
C14 N11 1_555 1_555
C15 N10 1_555 1_555
C16 N12 1_555 1_555
C17 N10 1_555 1_555
C18 N12 1_555 1_555
C33 N14 1_555 1_555
C34 N16 1_555 1_555
C35 N14 1_555 1_555
C36 N16 1_555 1_555
C37 O12 1_555 1_555
C38 N17 1_555 1_555
C38 N19 1_555 1_555
C39 N18 1_555 1_555
C40 N20 1_555 1_555
C41 N18 1_555 1_555
C42 N20 1_555 1_555
C43 O13 1_555 1_555
C44 N21 1_555 1_555
C44 N23 1_555 1_555
C45 N22 1_555 1_555
C46 N24 1_555 1_555
C47 N22 1_555 1_555
C48 N13 1_555 1_555
C2A N1A 1_555 1_555
C2A N3A 1_555 1_555
C3A N2A 1_555 1_555
C4A N4A 1_555 1_555
C5A N2A 1_555 1_555
C6A N4A 1_555 1_555
C7A O6A 1_555 1_555
C8A N5A 1_555 1_555
C8A N7A 1_555 1_555
C9A N6A 1_555 1_555
C10A N8A 1_555 1_555
C11A N6A 1_555 1_555
C12A N8A 1_555 1_555
C14A N9A 1_555 1_555
C14A N11A 1_555 1_555
C15A N10A 1_555 1_555
C16A N12A 1_555 1_555
C17A N10A 1_555 1_555
C18A N12A 1_555 1_555
C32A N15A 1_555 1_555
C33A N14A 1_555 1_555
C34A N16A 1_555 1_555
C35A N14A 1_555 1_555
C36A N16A 1_555 1_555
C37A O12A 1_555 1_555
C38A N17A 1_555 1_555
C38A N19A 1_555 1_555
C39A N18A 1_555 1_555
C40A N20A 1_555 1_555
C41A N18A 1_555 1_555
C42A N20A 1_555 1_555
C43A O13A 1_555 1_555
C44A N21A 1_555 1_555
C44A N23A 1_555 1_555
C45A N22A 1_555 1_555
C45A N24A 1_555 1_555
C46A N24A 1_555 1_555
C47A N22A 1_555 1_555
C48A N13A 1_555 1_555

#END
