
#######################################################################
#
#                 Cambridge Crystallographic Data Centre
#                                CCDC 
#
#######################################################################
#
# If this CIF has been generated from an entry in the Cambridge 
# Structural Database, then it will include bibliographic, chemical, 
# crystal, experimental, refinement or atomic coordinate data resulting 
# from the CCDC's data processing and validation procedures.
#
#######################################################################

data_TEPPEL
_symmetry_cell_setting           rhombohedral
_symmetry_space_group_name_H-M   'R -3'
_symmetry_Int_Tables_number      148
_space_group_name_Hall           '-R 3'
loop_
_symmetry_equiv_pos_site_id
_symmetry_equiv_pos_as_xyz
1 x,y,z
2 -y,x-y,z
3 -x+y,-x,z
4 2/3+x,1/3+y,1/3+z
5 2/3-y,1/3+x-y,1/3+z
6 2/3-x+y,1/3-x,1/3+z
7 1/3+x,2/3+y,2/3+z
8 1/3-y,2/3+x-y,2/3+z
9 1/3-x+y,2/3-x,2/3+z
10 -x,-y,-z
11 y,-x+y,-z
12 x-y,x,-z
13 1/3-x,2/3-y,2/3-z
14 1/3+y,2/3-x+y,2/3-z
15 1/3+x-y,2/3+x,2/3-z
16 2/3-x,1/3-y,1/3-z
17 2/3+y,1/3-x+y,1/3-z
18 2/3+x-y,1/3+x,1/3-z
_cell_length_a                   22.891(2)
_cell_length_b                   22.891(2)
_cell_length_c                   13.1165(11)
_cell_angle_alpha                90
_cell_angle_beta                 90
_cell_angle_gamma                120
_cell_volume                     5952.21
loop_
_atom_site_label
_atom_site_type_symbol
_atom_site_fract_x
_atom_site_fract_y
_atom_site_fract_z
Cd1 Cd 0.054643(16) -0.121987(16) 0.13530(3)
Cd2 Cd 0.0000 0.0000 0.0000
P1 P 0.15010(6) 0.04401(6) 0.11891(10)
O1 O 0.07808(17) -0.01186(16) 0.0954(3)
O2 O 0.1495(2) 0.1011(2) 0.1765(4)
O3 O 0.1971(2) 0.0660(2) 0.0291(3)
O4 O 0.0621(2) -0.1129(3) 0.3188(4)
O5 O 0.1224(2) -0.1173(2) 0.4476(3)
N1 N 0.16996(19) -0.05953(19) 0.1900(3)
N2 N 0.4295(2) 0.0696(2) 0.1687(4)
C1 C 0.1810(2) 0.0086(2) 0.2131(4)
H1 H 0.2290 0.0390 0.2217
H2 H 0.1595 0.0066 0.2777
C2 C 0.1147(3) -0.1085(3) 0.3569(4)
C3 C 0.1734(2) -0.0921(3) 0.2853(4)
H3 H 0.2155 -0.0624 0.3200
H4 H 0.1734 -0.1334 0.2687
C4 C 0.2165(2) -0.0597(2) 0.1104(4)
H5 H 0.2062 -0.0456 0.0464
H6 H 0.2070 -0.1057 0.1016
C5 C 0.2910(2) -0.0155(2) 0.1314(4)
C6 C 0.3300(3) -0.0397(3) 0.1749(4)
H7 H 0.3106 -0.0850 0.1921
C7 C 0.3983(3) 0.0042(3) 0.1927(5)
H8 H 0.4234 -0.0129 0.2229
C8 C 0.3234(3) 0.0524(3) 0.1072(5)
H9 H 0.2992 0.0709 0.0781
C9 C 0.3914(3) 0.0927(3) 0.1261(6)
H10 H 0.4120 0.1381 0.1087
Cd1A Cd 0.121987(16) 0.176630(23) 0.13530(3)
Cd1B Cd -0.176630(23) -0.054643(16) 0.13530(3)
Cd1I Cd -0.054643(16) 0.121987(16) -0.13530(3)
Cd1J Cd -0.121987(16) -0.176630(23) -0.13530(3)
Cd1K Cd 0.176630(23) 0.054643(16) -0.13530(3)
Cd1P Cd 0.544680(16) 0.156703(23) 0.19803(3)
Cd1Q Cd -0.156703(23) 0.387976(16) 0.19803(3)
Cd1O Cd -0.387976(16) -0.544680(16) 0.19803(3)
Cd1G Cd -0.544680(16) -0.156703(23) -0.19803(3)
Cd1H Cd 0.156703(23) -0.387976(16) -0.19803(3)
Cd1F Cd 0.387976(16) 0.544680(16) -0.19803(3)
P1A P -0.04401(6) 0.10609(8) 0.11891(10)
P1B P -0.10609(8) -0.15010(6) 0.11891(10)
P1I P -0.15010(6) -0.04401(6) -0.11891(10)
P1J P 0.04401(6) -0.10609(8) -0.11891(10)
P1K P 0.10609(8) 0.15010(6) -0.11891(10)
O1A O 0.01186(16) 0.08994(23) 0.0954(3)
O1B O -0.08994(23) -0.07808(17) 0.0954(3)
O1I O -0.07808(17) 0.01186(16) -0.0954(3)
O1J O -0.01186(16) -0.08994(23) -0.0954(3)
O1K O 0.08994(23) 0.07808(17) -0.0954(3)
O2A O -0.1011(2) 0.0484(3) 0.1765(4)
O2B O -0.0484(3) -0.1495(2) 0.1765(4)
O2I O -0.1495(2) -0.1011(2) -0.1765(4)
O2J O 0.1011(2) -0.0484(3) -0.1765(4)
O2K O 0.0484(3) 0.1495(2) -0.1765(4)
O3A O -0.0660(2) 0.1311(3) 0.0291(3)
O3B O -0.1311(3) -0.1971(2) 0.0291(3)
O3I O -0.1971(2) -0.0660(2) -0.0291(3)
O3J O 0.0660(2) -0.1311(3) -0.0291(3)
O3K O 0.1311(3) 0.1971(2) -0.0291(3)
O4A O 0.1129(3) 0.1750(4) 0.3188(4)
O4B O -0.1750(4) -0.0621(2) 0.3188(4)
O4I O -0.0621(2) 0.1129(3) -0.3188(4)
O4J O -0.1129(3) -0.1750(4) -0.3188(4)
O4K O 0.1750(4) 0.0621(2) -0.3188(4)
O5A O 0.1173(2) 0.2397(3) 0.4476(3)
O5B O -0.2397(3) -0.1224(2) 0.4476(3)
O5I O -0.1224(2) 0.1173(2) -0.4476(3)
O5J O -0.1173(2) -0.2397(3) -0.4476(3)
O5K O 0.2397(3) 0.1224(2) -0.4476(3)
N1A N 0.05953(19) 0.22949(27) 0.1900(3)
N1B N -0.22949(27) -0.16996(19) 0.1900(3)
N1I N -0.16996(19) 0.05953(19) -0.1900(3)
N1J N -0.05953(19) -0.22949(27) -0.1900(3)
N1K N 0.22949(27) 0.16996(19) -0.1900(3)
N2A N -0.0696(2) 0.3599(3) 0.1687(4)
N2B N -0.3599(3) -0.4295(2) 0.1687(4)
N2I N -0.4295(2) -0.0696(2) -0.1687(4)
N2J N 0.0696(2) -0.3599(3) -0.1687(4)
N2K N 0.3599(3) 0.4295(2) -0.1687(4)
N2Q N 0.0266(3) -0.2372(2) 0.1646(4)
N2O N 0.2372(2) 0.2637(2) 0.1646(4)
N2P N -0.2637(2) -0.0266(3) 0.1646(4)
N2H N -0.0266(3) 0.2372(2) -0.1646(4)
N2F N -0.2372(2) -0.2637(2) -0.1646(4)
N2G N 0.2637(2) 0.0266(3) -0.1646(4)
C1A C -0.0086(2) 0.1724(3) 0.2131(4)
C1B C -0.1724(3) -0.1810(2) 0.2131(4)
C1I C -0.1810(2) -0.0086(2) -0.2131(4)
C1J C 0.0086(2) -0.1724(3) -0.2131(4)
C1K C 0.1724(3) 0.1810(2) -0.2131(4)
H1A H -0.0390 0.1900 0.2217
H1B H -0.1900 -0.2290 0.2217
H1I H -0.2290 -0.0390 -0.2217
H1J H 0.0390 -0.1900 -0.2217
H1K H 0.1900 0.2290 -0.2217
H2A H -0.0066 0.1529 0.2777
H2B H -0.1529 -0.1595 0.2777
H2I H -0.1595 -0.0066 -0.2777
H2J H 0.0066 -0.1529 -0.2777
H2K H 0.1529 0.1595 -0.2777
C2A C 0.1085(3) 0.2232(4) 0.3569(4)
C2B C -0.2232(4) -0.1147(3) 0.3569(4)
C2I C -0.1147(3) 0.1085(3) -0.3569(4)
C2J C -0.1085(3) -0.2232(4) -0.3569(4)
C2K C 0.2232(4) 0.1147(3) -0.3569(4)
C3A C 0.0921(3) 0.2655(4) 0.2853(4)
C3B C -0.2655(4) -0.1734(2) 0.2853(4)
C3I C -0.1734(2) 0.0921(3) -0.2853(4)
C3J C -0.0921(3) -0.2655(4) -0.2853(4)
C3K C 0.2655(4) 0.1734(2) -0.2853(4)
H3A H 0.0624 0.2779 0.3200
H3B H -0.2779 -0.2155 0.3200
H3I H -0.2155 0.0624 -0.3200
H3J H -0.0624 -0.2779 -0.3200
H3K H 0.2779 0.2155 -0.3200
H4A H 0.1334 0.3068 0.2687
H4B H -0.3068 -0.1734 0.2687
H4I H -0.1734 0.1334 -0.2687
H4J H -0.1334 -0.3068 -0.2687
H4K H 0.3068 0.1734 -0.2687
C4A C 0.0597(2) 0.2762(3) 0.1104(4)
C4B C -0.2762(3) -0.2165(2) 0.1104(4)
C4I C -0.2165(2) 0.0597(2) -0.1104(4)
C4J C -0.0597(2) -0.2762(3) -0.1104(4)
C4K C 0.2762(3) 0.2165(2) -0.1104(4)
H5A H 0.0456 0.2518 0.0464
H5B H -0.2518 -0.2062 0.0464
H5I H -0.2062 0.0456 -0.0464
H5J H -0.0456 -0.2518 -0.0464
H5K H 0.2518 0.2062 -0.0464
H6A H 0.1057 0.3127 0.1016
H6B H -0.3127 -0.2070 0.1016
H6I H -0.2070 0.1057 -0.1016
H6J H -0.1057 -0.3127 -0.1016
H6K H 0.3127 0.2070 -0.1016
C5A C 0.0155(2) 0.3065(3) 0.1314(4)
C5B C -0.3065(3) -0.2910(2) 0.1314(4)
C5I C -0.2910(2) 0.0155(2) -0.1314(4)
C5J C -0.0155(2) -0.3065(3) -0.1314(4)
C5K C 0.3065(3) 0.2910(2) -0.1314(4)
C6A C 0.0397(3) 0.3697(4) 0.1749(4)
C6B C -0.3697(4) -0.3300(3) 0.1749(4)
C6I C -0.3300(3) 0.0397(3) -0.1749(4)
C6J C -0.0397(3) -0.3697(4) -0.1749(4)
C6K C 0.3697(4) 0.3300(3) -0.1749(4)
H7A H 0.0850 0.3956 0.1921
H7B H -0.3956 -0.3106 0.1921
H7I H -0.3106 0.0850 -0.1921
H7J H -0.0850 -0.3956 -0.1921
H7K H 0.3956 0.3106 -0.1921
C7A C -0.0042(3) 0.3941(4) 0.1927(5)
C7B C -0.3941(4) -0.3983(3) 0.1927(5)
C7I C -0.3983(3) -0.0042(3) -0.1927(5)
C7J C 0.0042(3) -0.3941(4) -0.1927(5)
C7K C 0.3941(4) 0.3983(3) -0.1927(5)
H8A H 0.0129 0.4363 0.2229
H8B H -0.4363 -0.4234 0.2229
H8I H -0.4234 0.0129 -0.2229
H8J H -0.0129 -0.4363 -0.2229
H8K H 0.4363 0.4234 -0.2229
C8A C -0.0524(3) 0.2710(4) 0.1072(5)
C8B C -0.2710(4) -0.3234(3) 0.1072(5)
C8I C -0.3234(3) -0.0524(3) -0.1072(5)
C8J C 0.0524(3) -0.2710(4) -0.1072(5)
C8K C 0.2710(4) 0.3234(3) -0.1072(5)
H9A H -0.0709 0.2283 0.0781
H9B H -0.2283 -0.2992 0.0781
H9I H -0.2992 -0.0709 -0.0781
H9J H 0.0709 -0.2283 -0.0781
H9K H 0.2283 0.2992 -0.0781
C9A C -0.0927(3) 0.2987(4) 0.1261(6)
C9B C -0.2987(4) -0.3914(3) 0.1261(6)
C9I C -0.3914(3) -0.0927(3) -0.1261(6)
C9J C 0.0927(3) -0.2987(4) -0.1261(6)
C9K C 0.2987(4) 0.3914(3) -0.1261(6)
H10A H -0.1381 0.2739 0.1087
H10B H -0.2739 -0.4120 0.1087
H10I H -0.4120 -0.1381 -0.1087
H10J H 0.1381 -0.2739 -0.1087
H10K H 0.2739 0.4120 -0.1087
O6 O 0.36328(12) 0.62981(12) 0.09290(18)
O7 O 0.2709(3) 0.5300(3) 0.0830(5)
O8 O 0.3333 0.6667 -0.0543(6)
O9? O 0.32115(17) 0.58524(18) 0.0097(3)
loop_
_geom_bond_atom_site_label_1
_geom_bond_atom_site_label_2
_geom_bond_site_symmetry_1
_geom_bond_site_symmetry_2
Cd1 O1 1_555 1_555
Cd2 O1 1_555 1_555
P1 O1 1_555 1_555
O2 P1 1_555 1_555
O3 P1 1_555 1_555
O4 Cd1 1_555 1_555
O5 C2 1_555 1_555
N1 Cd1 1_555 1_555
N2 C7 1_555 1_555
C1 P1 1_555 1_555
H1 C1 1_555 1_555
H2 C1 1_555 1_555
C2 O4 1_555 1_555
C3 N1 1_555 1_555
H3 C3 1_555 1_555
H4 C3 1_555 1_555
C4 N1 1_555 1_555
H5 C4 1_555 1_555
H6 C4 1_555 1_555
C5 C4 1_555 1_555
C6 C5 1_555 1_555
H7 C6 1_555 1_555
C7 C6 1_555 1_555
H8 C7 1_555 1_555
C8 C5 1_555 1_555
H9 C8 1_555 1_555
C9 N2 1_555 1_555
H10 C9 1_555 1_555
Cd1A O2 1_555 1_555
Cd1B O1B 1_555 1_555
Cd1I O1I 1_555 1_555
Cd1J O1J 1_555 1_555
Cd1K O3 1_555 1_555
Cd1P N2 1_555 1_555
Cd1Q N2A 1_555 1_555
Cd1O N2B 1_555 1_555
Cd1G N2I 1_555 1_555
Cd1H N2J 1_555 1_555
Cd1F N2K 1_555 1_555
P1A O1A 1_555 1_555
P1B O1B 1_555 1_555
P1I O1I 1_555 1_555
P1J O1J 1_555 1_555
P1K O1K 1_555 1_555
O1A Cd2 1_555 1_555
O1B Cd2 1_555 1_555
O1I Cd2 1_555 1_555
O1J Cd2 1_555 1_555
O1K Cd2 1_555 1_555
O2A Cd1B 1_555 1_555
O2B Cd1 1_555 1_555
O2I Cd1J 1_555 1_555
O2J Cd1K 1_555 1_555
O2K Cd1I 1_555 1_555
O3A Cd1I 1_555 1_555
O3B Cd1J 1_555 1_555
O3I Cd1B 1_555 1_555
O3J Cd1 1_555 1_555
O3K Cd1A 1_555 1_555
O4A Cd1A 1_555 1_555
O4B Cd1B 1_555 1_555
O4I Cd1I 1_555 1_555
O4J Cd1J 1_555 1_555
O4K Cd1K 1_555 1_555
O5A C2A 1_555 1_555
O5B C2B 1_555 1_555
O5I C2I 1_555 1_555
O5J C2J 1_555 1_555
O5K C2K 1_555 1_555
N1A Cd1A 1_555 1_555
N1B Cd1B 1_555 1_555
N1I Cd1I 1_555 1_555
N1J Cd1J 1_555 1_555
N1K Cd1K 1_555 1_555
N2A C7A 1_555 1_555
N2B C7B 1_555 1_555
N2I C7I 1_555 1_555
N2J C7J 1_555 1_555
N2K C7K 1_555 1_555
N2Q Cd1 1_555 1_555
N2O Cd1A 1_555 1_555
N2P Cd1B 1_555 1_555
N2H Cd1I 1_555 1_555
N2F Cd1J 1_555 1_555
N2G Cd1K 1_555 1_555
C1A P1A 1_555 1_555
C1B P1B 1_555 1_555
C1I P1I 1_555 1_555
C1J P1J 1_555 1_555
C1K P1K 1_555 1_555
H1A C1A 1_555 1_555
H1B C1B 1_555 1_555
H1I C1I 1_555 1_555
H1J C1J 1_555 1_555
H1K C1K 1_555 1_555
H2A C1A 1_555 1_555
H2B C1B 1_555 1_555
H2I C1I 1_555 1_555
H2J C1J 1_555 1_555
H2K C1K 1_555 1_555
C2A O4A 1_555 1_555
C2B O4B 1_555 1_555
C2I O4I 1_555 1_555
C2J O4J 1_555 1_555
C2K O4K 1_555 1_555
C3A N1A 1_555 1_555
C3B N1B 1_555 1_555
C3I N1I 1_555 1_555
C3J N1J 1_555 1_555
C3K N1K 1_555 1_555
H3A C3A 1_555 1_555
H3B C3B 1_555 1_555
H3I C3I 1_555 1_555
H3J C3J 1_555 1_555
H3K C3K 1_555 1_555
H4A C3A 1_555 1_555
H4B C3B 1_555 1_555
H4I C3I 1_555 1_555
H4J C3J 1_555 1_555
H4K C3K 1_555 1_555
C4A N1A 1_555 1_555
C4B N1B 1_555 1_555
C4I N1I 1_555 1_555
C4J N1J 1_555 1_555
C4K N1K 1_555 1_555
H5A C4A 1_555 1_555
H5B C4B 1_555 1_555
H5I C4I 1_555 1_555
H5J C4J 1_555 1_555
H5K C4K 1_555 1_555
H6A C4A 1_555 1_555
H6B C4B 1_555 1_555
H6I C4I 1_555 1_555
H6J C4J 1_555 1_555
H6K C4K 1_555 1_555
C5A C4A 1_555 1_555
C5B C4B 1_555 1_555
C5I C4I 1_555 1_555
C5J C4J 1_555 1_555
C5K C4K 1_555 1_555
C6A C5A 1_555 1_555
C6B C5B 1_555 1_555
C6I C5I 1_555 1_555
C6J C5J 1_555 1_555
C6K C5K 1_555 1_555
H7A C6A 1_555 1_555
H7B C6B 1_555 1_555
H7I C6I 1_555 1_555
H7J C6J 1_555 1_555
H7K C6K 1_555 1_555
C7A C6A 1_555 1_555
C7B C6B 1_555 1_555
C7I C6I 1_555 1_555
C7J C6J 1_555 1_555
C7K C6K 1_555 1_555
H8A C7A 1_555 1_555
H8B C7B 1_555 1_555
H8I C7I 1_555 1_555
H8J C7J 1_555 1_555
H8K C7K 1_555 1_555
C8A C5A 1_555 1_555
C8B C5B 1_555 1_555
C8I C5I 1_555 1_555
C8J C5J 1_555 1_555
C8K C5K 1_555 1_555
H9A C8A 1_555 1_555
H9B C8B 1_555 1_555
H9I C8I 1_555 1_555
H9J C8J 1_555 1_555
H9K C8K 1_555 1_555
C9A N2A 1_555 1_555
C9B N2B 1_555 1_555
C9I N2I 1_555 1_555
C9J N2J 1_555 1_555
C9K N2K 1_555 1_555
H10A C9A 1_555 1_555
H10B C9B 1_555 1_555
H10I C9I 1_555 1_555
H10J C9J 1_555 1_555
H10K C9K 1_555 1_555
N1 C1 1_555 1_555
C2 C3 1_555 1_555
C8 C9 1_555 1_555
Cd1A O1A 1_555 1_555
Cd1K O1K 1_555 1_555
P1A O2A 1_555 1_555
P1A O3A 1_555 1_555
P1B O2B 1_555 1_555
P1B O3B 1_555 1_555
P1I O2I 1_555 1_555
P1I O3I 1_555 1_555
P1J O2J 1_555 1_555
P1J O3J 1_555 1_555
P1K O2K 1_555 1_555
P1K O3K 1_555 1_555
N1A C1A 1_555 1_555
N1B C1B 1_555 1_555
N1I C1I 1_555 1_555
N1J C1J 1_555 1_555
N1K C1K 1_555 1_555
C2A C3A 1_555 1_555
C2B C3B 1_555 1_555
C2I C3I 1_555 1_555
C2J C3J 1_555 1_555
C2K C3K 1_555 1_555
C8A C9A 1_555 1_555
C8B C9B 1_555 1_555
C8I C9I 1_555 1_555
C8J C9J 1_555 1_555
C8K C9K 1_555 1_555

#END
