
#######################################################################
#
#                 Cambridge Crystallographic Data Centre
#                                CCDC 
#
#######################################################################
#
# If this CIF has been generated from an entry in the Cambridge 
# Structural Database, then it will include bibliographic, chemical, 
# crystal, experimental, refinement or atomic coordinate data resulting 
# from the CCDC's data processing and validation procedures.
#
#######################################################################

data_TEPPIP
_symmetry_cell_setting           rhombohedral
_symmetry_space_group_name_H-M   'R -3'
_symmetry_Int_Tables_number      148
_space_group_name_Hall           '-R 3'
loop_
_symmetry_equiv_pos_site_id
_symmetry_equiv_pos_as_xyz
1 x,y,z
2 -y,x-y,z
3 -x+y,-x,z
4 2/3+x,1/3+y,1/3+z
5 2/3-y,1/3+x-y,1/3+z
6 2/3-x+y,1/3-x,1/3+z
7 1/3+x,2/3+y,2/3+z
8 1/3-y,2/3+x-y,2/3+z
9 1/3-x+y,2/3-x,2/3+z
10 -x,-y,-z
11 y,-x+y,-z
12 x-y,x,-z
13 1/3-x,2/3-y,2/3-z
14 1/3+y,2/3-x+y,2/3-z
15 1/3+x-y,2/3+x,2/3-z
16 2/3-x,1/3-y,1/3-z
17 2/3+y,1/3-x+y,1/3-z
18 2/3+x-y,1/3+x,1/3-z
_cell_length_a                   22.5060(13)
_cell_length_b                   22.5060(13)
_cell_length_c                   13.2344(13)
_cell_angle_alpha                90
_cell_angle_beta                 90
_cell_angle_gamma                120
_cell_volume                     5805.39
loop_
_atom_site_label
_atom_site_type_symbol
_atom_site_fract_x
_atom_site_fract_y
_atom_site_fract_z
Mn1 Mn 0.21312(4) -0.27963(4) 0.03039(7)
Mn2 Mn 0.3333 -0.3333 0.1667
P1 P 0.37728(7) -0.18330(7) 0.05649(11)
O1 O 0.32030(18) -0.25831(18) 0.0725(3)
O2 O 0.1798(2) -0.3812(3) 0.0064(4)
O3 O 0.1991(2) -0.2729(2) 0.1836(3)
O4 O 0.2255(3) -0.2728(3) -0.1424(4)
O5 O 0.2172(3) -0.2155(3) -0.2738(4)
N1 N 0.2727(2) -0.1643(2) -0.0176(4)
N2 N 0.4032(3) 0.1004(3) 0.0047(4)
C1 C 0.3436(3) -0.1503(3) -0.0389(4)
H1 H 0.3738 -0.1011 -0.0444
H2 H 0.3438 -0.1704 -0.1036
C2 C 0.2276(3) -0.2209(4) -0.1833(5)
C3 C 0.2412(3) -0.1613(3) -0.1133(5)
H3 H 0.2713 -0.1183 -0.1470
H4 H 0.1982 -0.1627 -0.0992
C4 C 0.2704(3) -0.1181(3) 0.0602(5)
H5 H 0.2837 -0.1287 0.1245
H6 H 0.2233 -0.1283 0.0668
C5 C 0.3155(3) -0.0414(3) 0.0407(5)
C6 C 0.2919(3) -0.0021(3) -0.0051(5)
H7 H 0.2462 -0.0220 -0.0250
C7 C 0.3366(3) 0.0678(3) -0.0217(6)
H8 H 0.3194 0.0931 -0.0527
C8 C 0.3842(3) -0.0080(3) 0.0692(6)
H9 H 0.4024 -0.0322 0.1011
C9 C 0.4255(4) 0.0616(3) 0.0500(6)
H10 H 0.4713 0.0827 0.0696
Mn1A Mn 0.27963(4) -0.50725(6) 0.03039(7)
Mn1B Mn 0.50725(6) -0.21312(4) 0.03039(7)
Mn1O Mn 0.45355(4) -0.38704(4) 0.30294(7)
Mn1P Mn 0.38704(4) -0.15942(6) 0.30294(7)
Mn1Q Mn 0.15942(6) -0.45355(4) 0.30294(7)
Mn1K Mn 0.49275(6) 0.21312(4) -0.03039(7)
Mn1I Mn -0.21312(4) -0.72037(4) -0.03039(7)
Mn1J Mn 0.72037(4) -0.49275(6) -0.03039(7)
Mn1E Mn 0.17392(6) -0.87979(4) 0.36372(7)
Mn1C Mn 0.87979(4) 0.05370(4) 0.36372(7)
Mn1D Mn -0.05370(4) -0.17392(6) 0.36372(7)
P1A P 0.18330(7) -0.43942(10) 0.05649(11)
P1Q P 0.22725(10) -0.28939(7) 0.27684(11)
P1B P 0.43942(10) -0.37728(7) 0.05649(11)
P1O P 0.28939(7) -0.48337(7) 0.27684(11)
P1P P 0.48337(7) -0.22725(10) 0.27684(11)
O1A O 0.25831(18) -0.42139(25) 0.0725(3)
O1B O 0.42139(25) -0.32030(18) 0.0725(3)
O1O O 0.34637(18) -0.40836(18) 0.2608(3)
O1P O 0.40836(18) -0.24528(25) 0.2608(3)
O1Q O 0.24528(25) -0.34637(18) 0.2608(3)
O2B O 0.4390(4) -0.1798(2) 0.0064(4)
O2P O 0.2855(3) -0.2277(4) 0.3269(4)
O2A O 0.3812(3) -0.4390(4) 0.0064(4)
O2O O 0.4869(2) -0.2855(3) 0.3269(4)
O2Q O 0.2277(4) -0.4869(2) 0.3269(4)
O3P O 0.3938(2) -0.1387(3) 0.1497(3)
O3Q O 0.1387(3) -0.4676(2) 0.1497(3)
O3A O 0.2729(2) -0.5280(3) 0.1836(3)
O3B O 0.5280(3) -0.1991(2) 0.1836(3)
O3O O 0.4676(2) -0.3938(2) 0.1497(3)
O4A O 0.2728(3) -0.5017(4) -0.1424(4)
O4B O 0.5017(4) -0.2255(3) -0.1424(4)
O4O O 0.4412(3) -0.3939(3) 0.4757(4)
O4P O 0.3939(3) -0.1650(4) 0.4757(4)
O4Q O 0.1650(4) -0.4412(3) 0.4757(4)
O5A O 0.2155(3) -0.5673(4) -0.2738(4)
O5B O 0.5673(4) -0.2172(3) -0.2738(4)
O5O O 0.4495(3) -0.4512(3) 0.6071(4)
O5P O 0.4512(3) -0.0994(4) 0.6071(4)
O5Q O 0.0994(4) -0.4495(3) 0.6071(4)
N1A N 0.1643(2) -0.5630(3) -0.0176(4)
N1B N 0.5630(3) -0.2727(2) -0.0176(4)
N1O N 0.3940(2) -0.5024(2) 0.3509(4)
N1P N 0.5024(2) -0.1037(3) 0.3509(4)
N1Q N 0.1037(3) -0.3940(2) 0.3509(4)
N2J N 0.1004(3) -0.3028(4) -0.0047(4)
N2K N 0.3028(4) -0.5968(3) -0.0047(4)
N2I N 0.5968(3) -0.1004(3) -0.0047(4)
N2D N 0.5663(3) -0.3639(4) 0.3380(4)
N2E N 0.3639(4) -0.0699(3) 0.3380(4)
N2C N 0.0699(3) -0.5663(3) 0.3380(4)
N2A N -0.1004(3) -0.6972(4) 0.0047(4)
N2B N 0.6972(4) -0.4032(3) 0.0047(4)
N2O N 0.2635(3) -0.7671(3) 0.3286(4)
N2P N 0.7671(3) 0.0305(4) 0.3286(4)
N2Q N -0.0305(4) -0.2635(3) 0.3286(4)
C1A C 0.1503(3) -0.5061(4) -0.0389(4)
C1Q C 0.1606(4) -0.3231(3) 0.3722(4)
C1B C 0.5061(4) -0.3436(3) -0.0389(4)
C1O C 0.3231(3) -0.5164(3) 0.3722(4)
C1P C 0.5164(3) -0.1606(4) 0.3722(4)
H1A H 0.1011 -0.5251 -0.0444
H1Q H 0.1416 -0.2929 0.3777
H1B H 0.5251 -0.3738 -0.0444
H1O H 0.2929 -0.5656 0.3777
H1P H 0.5656 -0.1416 0.3777
H2A H 0.1704 -0.4858 -0.1036
H2Q H 0.1809 -0.3229 0.4369
H2B H 0.4858 -0.3438 -0.1036
H2O H 0.3229 -0.4963 0.4369
H2P H 0.4963 -0.1809 0.4369
C2A C 0.2209(4) -0.5515(5) -0.1833(5)
C2B C 0.5515(5) -0.2276(3) -0.1833(5)
C2O C 0.4391(3) -0.4458(4) 0.5166(5)
C2P C 0.4458(4) -0.1152(5) 0.5166(5)
C2Q C 0.1152(5) -0.4391(3) 0.5166(5)
C3A C 0.1613(3) -0.5975(4) -0.1133(5)
C3B C 0.5975(4) -0.2412(3) -0.1133(5)
C3O C 0.4255(3) -0.5054(3) 0.4466(5)
C3P C 0.5054(3) -0.0692(4) 0.4466(5)
C3Q C 0.0692(4) -0.4255(3) 0.4466(5)
H3A H 0.1183 -0.6104 -0.1470
H3B H 0.6104 -0.2713 -0.1470
H3O H 0.3954 -0.5484 0.4803
H3P H 0.5484 -0.0563 0.4803
H3Q H 0.0563 -0.3954 0.4803
H4A H 0.1627 -0.6391 -0.0992
H4B H 0.6391 -0.1982 -0.0992
H4O H 0.4685 -0.5040 0.4325
H4P H 0.5040 -0.0276 0.4325
H4Q H 0.0276 -0.4685 0.4325
C4A C 0.1181(3) -0.6115(4) 0.0602(5)
C4B C 0.6115(4) -0.2704(3) 0.0602(5)
C4O C 0.3963(3) -0.5486(3) 0.2731(5)
C4P C 0.5486(3) -0.0552(4) 0.2731(5)
C4Q C 0.0552(4) -0.3963(3) 0.2731(5)
H5A H 0.1287 -0.5876 0.1245
H5B H 0.5876 -0.2837 0.1245
H5O H 0.3830 -0.5380 0.2088
H5P H 0.5380 -0.0791 0.2088
H5Q H 0.0791 -0.3830 0.2088
H6A H 0.1283 -0.6484 0.0668
H6B H 0.6484 -0.2233 0.0668
H6O H 0.4434 -0.5384 0.2665
H6P H 0.5384 -0.0183 0.2665
H6Q H 0.0183 -0.4434 0.2665
C5A C 0.0414(3) -0.6431(4) 0.0407(5)
C5B C 0.6431(4) -0.3155(3) 0.0407(5)
C5O C 0.3512(3) -0.6253(3) 0.2926(5)
C5P C 0.6253(3) -0.0236(4) 0.2926(5)
C5Q C 0.0236(4) -0.3512(3) 0.2926(5)
C6A C 0.0021(3) -0.7060(4) -0.0051(5)
C6B C 0.7060(4) -0.2919(3) -0.0051(5)
C6O C 0.3748(3) -0.6646(3) 0.3384(5)
C6P C 0.6646(3) 0.0393(4) 0.3384(5)
C6Q C -0.0393(4) -0.3748(3) 0.3384(5)
H7A H 0.0220 -0.7318 -0.0250
H7B H 0.7318 -0.2462 -0.0250
H7O H 0.4205 -0.6447 0.3583
H7P H 0.6447 0.0651 0.3583
H7Q H -0.0651 -0.4205 0.3583
C7A C -0.0678(3) -0.7312(4) -0.0217(6)
C7B C 0.7312(4) -0.3366(3) -0.0217(6)
C7O C 0.3301(3) -0.7345(3) 0.3550(6)
C7P C 0.7345(3) 0.0645(4) 0.3550(6)
C7Q C -0.0645(4) -0.3301(3) 0.3550(6)
H8A H -0.0931 -0.7737 -0.0527
H8B H 0.7737 -0.3194 -0.0527
H8O H 0.3473 -0.7598 0.3860
H8P H 0.7598 0.1070 0.3860
H8Q H -0.1070 -0.3473 0.3860
C8A C 0.0080(3) -0.6078(4) 0.0692(6)
C8B C 0.6078(4) -0.3842(3) 0.0692(6)
C8O C 0.2825(3) -0.6587(3) 0.2641(6)
C8P C 0.6587(3) -0.0589(4) 0.2641(6)
C8Q C 0.0589(4) -0.2825(3) 0.2641(6)
H9A H 0.0322 -0.5654 0.1011
H9B H 0.5654 -0.4024 0.1011
H9O H 0.2643 -0.6345 0.2322
H9P H 0.6345 -0.1013 0.2322
H9Q H 0.1013 -0.2643 0.2322
C9A C -0.0616(3) -0.6361(5) 0.0500(6)
C9B C 0.6361(5) -0.4255(4) 0.0500(6)
C9O C 0.2412(4) -0.7283(3) 0.2833(6)
C9P C 0.7283(3) -0.0306(5) 0.2833(6)
C9Q C 0.0306(5) -0.2412(4) 0.2833(6)
H10A H -0.0827 -0.6114 0.0696
H10B H 0.6114 -0.4713 0.0696
H10O H 0.1954 -0.7494 0.2637
H10P H 0.7494 -0.0553 0.2637
H10Q H 0.0553 -0.1954 0.2637
O6 O 0.3333 -0.3333 -0.3333
O7 O 0.2740(5) -0.2610(5) -0.4144(7)
O8 O 0.3333 -0.3333 -0.5820(12)
O9? O 0.3654(3) -0.2678(3) -0.4148(5)
O10? O 0.3152(11) -0.2653(11) -0.4947(16)
loop_
_geom_bond_atom_site_label_1
_geom_bond_atom_site_label_2
_geom_bond_site_symmetry_1
_geom_bond_site_symmetry_2
Mn1 O1 1_555 1_555
Mn2 O1 1_555 1_555
P1 O1 1_555 1_555
O2 Mn1 1_555 1_555
O3 Mn1 1_555 1_555
O4 Mn1 1_555 1_555
O5 C2 1_555 1_555
N1 Mn1 1_555 1_555
N2 C7 1_555 1_555
C1 P1 1_555 1_555
H1 C1 1_555 1_555
H2 C1 1_555 1_555
C2 O4 1_555 1_555
C3 N1 1_555 1_555
H3 C3 1_555 1_555
H4 C3 1_555 1_555
C4 N1 1_555 1_555
H5 C4 1_555 1_555
H6 C4 1_555 1_555
C5 C4 1_555 1_555
C6 C5 1_555 1_555
H7 C6 1_555 1_555
C7 C6 1_555 1_555
H8 C7 1_555 1_555
C8 C5 1_555 1_555
H9 C8 1_555 1_555
C9 N2 1_555 1_555
H10 C9 1_555 1_555
Mn1A O1A 1_555 1_555
Mn1B O1B 1_555 1_555
Mn1O O1O 1_555 1_555
Mn1P O1P 1_555 1_555
Mn1Q O1Q 1_555 1_555
Mn1K N2 1_555 1_555
Mn1I N2A 1_555 1_555
Mn1J N2B 1_555 1_555
Mn1E N2O 1_555 1_555
Mn1C N2P 1_555 1_555
Mn1D N2Q 1_555 1_555
P1A O2 1_555 1_555
P1Q O3 1_555 1_555
P1B O1B 1_555 1_555
P1O O1O 1_555 1_555
P1P O1P 1_555 1_555
O1A Mn2 1_555 1_555
O1B Mn2 1_555 1_555
O1O Mn2 1_555 1_555
O1P Mn2 1_555 1_555
O1Q Mn2 1_555 1_555
O2B P1 1_555 1_555
O2P Mn1P 1_555 1_555
O2A Mn1A 1_555 1_555
O2O Mn1O 1_555 1_555
O2Q Mn1Q 1_555 1_555
O3P P1 1_555 1_555
O3Q Mn1Q 1_555 1_555
O3A Mn1A 1_555 1_555
O3B Mn1B 1_555 1_555
O3O Mn1O 1_555 1_555
O4A Mn1A 1_555 1_555
O4B Mn1B 1_555 1_555
O4O Mn1O 1_555 1_555
O4P Mn1P 1_555 1_555
O4Q Mn1Q 1_555 1_555
O5A C2A 1_555 1_555
O5B C2B 1_555 1_555
O5O C2O 1_555 1_555
O5P C2P 1_555 1_555
O5Q C2Q 1_555 1_555
N1A Mn1A 1_555 1_555
N1B Mn1B 1_555 1_555
N1O Mn1O 1_555 1_555
N1P Mn1P 1_555 1_555
N1Q Mn1Q 1_555 1_555
N2J Mn1 1_555 1_555
N2K Mn1A 1_555 1_555
N2I Mn1B 1_555 1_555
N2D Mn1O 1_555 1_555
N2E Mn1P 1_555 1_555
N2C Mn1Q 1_555 1_555
N2A C7A 1_555 1_555
N2B C7B 1_555 1_555
N2O C7O 1_555 1_555
N2P C7P 1_555 1_555
N2Q C7Q 1_555 1_555
C1A P1A 1_555 1_555
C1Q P1Q 1_555 1_555
C1B P1B 1_555 1_555
C1O P1O 1_555 1_555
C1P P1P 1_555 1_555
H1A C1A 1_555 1_555
H1Q C1Q 1_555 1_555
H1B C1B 1_555 1_555
H1O C1O 1_555 1_555
H1P C1P 1_555 1_555
H2A C1A 1_555 1_555
H2Q C1Q 1_555 1_555
H2B C1B 1_555 1_555
H2O C1O 1_555 1_555
H2P C1P 1_555 1_555
C2A O4A 1_555 1_555
C2B O4B 1_555 1_555
C2O O4O 1_555 1_555
C2P O4P 1_555 1_555
C2Q O4Q 1_555 1_555
C3A N1A 1_555 1_555
C3B N1B 1_555 1_555
C3O N1O 1_555 1_555
C3P N1P 1_555 1_555
C3Q N1Q 1_555 1_555
H3A C3A 1_555 1_555
H3B C3B 1_555 1_555
H3O C3O 1_555 1_555
H3P C3P 1_555 1_555
H3Q C3Q 1_555 1_555
H4A C3A 1_555 1_555
H4B C3B 1_555 1_555
H4O C3O 1_555 1_555
H4P C3P 1_555 1_555
H4Q C3Q 1_555 1_555
C4A N1A 1_555 1_555
C4B N1B 1_555 1_555
C4O N1O 1_555 1_555
C4P N1P 1_555 1_555
C4Q N1Q 1_555 1_555
H5A C4A 1_555 1_555
H5B C4B 1_555 1_555
H5O C4O 1_555 1_555
H5P C4P 1_555 1_555
H5Q C4Q 1_555 1_555
H6A C4A 1_555 1_555
H6B C4B 1_555 1_555
H6O C4O 1_555 1_555
H6P C4P 1_555 1_555
H6Q C4Q 1_555 1_555
C5A C4A 1_555 1_555
C5B C4B 1_555 1_555
C5O C4O 1_555 1_555
C5P C4P 1_555 1_555
C5Q C4Q 1_555 1_555
C6A C5A 1_555 1_555
C6B C5B 1_555 1_555
C6O C5O 1_555 1_555
C6P C5P 1_555 1_555
C6Q C5Q 1_555 1_555
H7A C6A 1_555 1_555
H7B C6B 1_555 1_555
H7O C6O 1_555 1_555
H7P C6P 1_555 1_555
H7Q C6Q 1_555 1_555
C7A C6A 1_555 1_555
C7B C6B 1_555 1_555
C7O C6O 1_555 1_555
C7P C6P 1_555 1_555
C7Q C6Q 1_555 1_555
H8A C7A 1_555 1_555
H8B C7B 1_555 1_555
H8O C7O 1_555 1_555
H8P C7P 1_555 1_555
H8Q C7Q 1_555 1_555
C8A C5A 1_555 1_555
C8B C5B 1_555 1_555
C8O C5O 1_555 1_555
C8P C5P 1_555 1_555
C8Q C5Q 1_555 1_555
H9A C8A 1_555 1_555
H9B C8B 1_555 1_555
H9O C8O 1_555 1_555
H9P C8P 1_555 1_555
H9Q C8Q 1_555 1_555
C9A N2A 1_555 1_555
C9B N2B 1_555 1_555
C9O N2O 1_555 1_555
C9P N2P 1_555 1_555
C9Q N2Q 1_555 1_555
H10A C9A 1_555 1_555
H10B C9B 1_555 1_555
H10O C9O 1_555 1_555
H10P C9P 1_555 1_555
H10Q C9Q 1_555 1_555
N1 C1 1_555 1_555
C2 C3 1_555 1_555
C8 C9 1_555 1_555
Mn1B O2B 1_555 1_555
Mn1P O3P 1_555 1_555
P1A O1A 1_555 1_555
P1A O3Q 1_555 1_555
P1Q O1Q 1_555 1_555
P1Q O2P 1_555 1_555
P1B O2A 1_555 1_555
P1B O3O 1_555 1_555
P1O O2Q 1_555 1_555
P1O O3A 1_555 1_555
P1P O2O 1_555 1_555
P1P O3B 1_555 1_555
N1A C1A 1_555 1_555
N1B C1B 1_555 1_555
N1O C1O 1_555 1_555
N1P C1P 1_555 1_555
N1Q C1Q 1_555 1_555
C2A C3A 1_555 1_555
C2B C3B 1_555 1_555
C2O C3O 1_555 1_555
C2P C3P 1_555 1_555
C2Q C3Q 1_555 1_555
C8A C9A 1_555 1_555
C8B C9B 1_555 1_555
C8O C9O 1_555 1_555
C8P C9P 1_555 1_555
C8Q C9Q 1_555 1_555

#END
