
#######################################################################
#
#                 Cambridge Crystallographic Data Centre
#                                CCDC 
#
#######################################################################
#
# If this CIF has been generated from an entry in the Cambridge 
# Structural Database, then it will include bibliographic, chemical, 
# crystal, experimental, refinement or atomic coordinate data resulting 
# from the CCDC's data processing and validation procedures.
#
#######################################################################

data_TEPRIR
_symmetry_cell_setting           triclinic
_symmetry_space_group_name_H-M   'P -1'
_symmetry_Int_Tables_number      2
_space_group_name_Hall           '-P 1'
loop_
_symmetry_equiv_pos_site_id
_symmetry_equiv_pos_as_xyz
1 x,y,z
2 -x,-y,-z
_cell_length_a                   10.6283(2)
_cell_length_b                   13.6543(3)
_cell_length_c                   14.4484(5)
_cell_angle_alpha                112.633(2)
_cell_angle_beta                 101.662(2)
_cell_angle_gamma                105.5220(10)
_cell_volume                     1751.53
loop_
_atom_site_label
_atom_site_type_symbol
_atom_site_fract_x
_atom_site_fract_y
_atom_site_fract_z
Bi1 Bi 0.20426(3) -0.25187(2) -0.35431(2)
Bi2 Bi 0.34284(3) 0.12042(2) -0.24174(2)
Bi3 Bi 0.49683(3) -0.16401(2) -0.03035(2)
Bi4 Bi 0.37184(3) 0.47149(2) -0.13168(2)
C1 C -0.1024(7) -0.4172(6) -0.3888(6)
C2 C -0.2412(8) -0.4559(7) -0.3991(7)
H1 H -0.2852 -0.5265 -0.4024
C3 C -0.3121(8) -0.3856(7) -0.4044(7)
H2 H -0.4049 -0.4083 -0.4094
C4 C -0.2472(8) -0.2821(6) -0.4025(6)
H3 H -0.2951 -0.2354 -0.4073
C5 C -0.1086(7) -0.2506(6) -0.3929(6)
C6 C -0.0143(8) -0.4856(6) -0.3867(6)
C7 C -0.0239(8) -0.1381(6) -0.3882(6)
C8 C 0.5728(7) 0.0348(6) -0.3530(6)
C9 C 0.6815(7) 0.0367(6) -0.3914(6)
H4 H 0.7175 -0.0202 -0.4024
C10 C 0.7358(8) 0.1274(6) -0.4134(7)
H5 H 0.8109 0.1331 -0.4375
C11 C 0.6773(8) 0.2077(6) -0.3990(6)
H6 H 0.7080 0.2651 -0.4182
C12 C 0.5722(7) 0.2030(6) -0.3558(6)
C13 C 0.5038(7) -0.0607(6) -0.3287(6)
C14 C 0.5095(8) 0.2907(6) -0.3306(6)
C15 C 0.7577(7) -0.0580(6) -0.1037(6)
C16 C 0.8812(7) -0.0397(6) -0.1260(6)
H7 H 0.9217 0.0245 -0.1341
C17 C 0.9415(7) -0.1187(6) -0.1358(6)
H8 H 1.0241 -0.1081 -0.1503
C18 C 0.8800(7) -0.2140(6) -0.1240(6)
H9 H 0.9207 -0.2674 -0.1292
C19 C 0.7556(7) -0.2277(6) -0.1042(6)
C20 C 0.6914(7) 0.0280(6) -0.0836(6)
C21 C 0.6780(7) -0.3298(6) -0.0924(6)
C22 C 0.0712(7) 0.4924(6) -0.1326(5)
C23 C -0.0645(7) 0.4663(6) -0.1341(6)
H10 H -0.1096 0.5156 -0.1360
C24 C -0.1316(7) 0.3652(6) -0.1326(6)
H11 H -0.2216 0.3475 -0.1307
C25 C -0.0654(7) 0.2907(6) -0.1338(6)
H12 H -0.1098 0.2223 -0.1334
C26 C 0.0695(7) 0.3209(6) -0.1357(6)
C27 C 0.1535(7) 0.5993(6) -0.1339(6)
C28 C 0.1457(7) 0.2412(6) -0.1499(6)
N1 N -0.0389(6) -0.3162(5) -0.3847(5)
N2 N 0.5201(6) 0.1164(5) -0.3332(5)
N3 N 0.6974(5) -0.1512(4) -0.0935(5)
N4 N 0.1353(6) 0.4209(5) -0.1324(5)
O1 O -0.0698(5) -0.5868(4) -0.4049(5)
O2 O 0.4193(5) -0.2798(4) -0.2728(5)
O3 O 0.1151(5) -0.4370(4) -0.3712(4)
O5 O 0.1061(5) -0.1170(4) -0.3700(4)
O6 O 0.1001(7) 0.1213(5) -0.3872(5)
O7 O -0.0839(5) -0.0780(4) -0.4044(5)
O8 O 0.1546(6) 0.3491(5) -0.3495(5)
O9 O 0.5465(6) -0.1402(5) -0.3458(5)
O10 O 0.4008(5) -0.0555(4) -0.2976(4)
O11 O 0.4230(5) 0.2833(4) -0.2809(4)
O12 O 0.5422(7) 0.3651(5) -0.3605(5)
O13 O 0.7366(6) 0.1134(5) -0.0936(6)
O14 O 0.5819(5) 0.0048(4) -0.0555(4)
O15 O 0.5642(5) -0.3317(4) -0.0736(4)
O16 O 0.7237(6) -0.4057(4) -0.1042(5)
O17 O 0.0975(5) 0.6653(4) -0.1425(4)
O18 O 0.2830(5) 0.6162(4) -0.1236(4)
O19 O 0.2737(5) 0.2842(4) -0.1453(4)
O20 O 0.0888(6) 0.1430(4) -0.1676(5)
O21 O 0.2268(5) -0.1753(4) -0.1956(4)
O22 O 0.3259(5) 0.0592(4) -0.1143(4)
O23 O 0.5253(5) 0.2226(4) -0.1062(4)
O24 O 0.4131(5) 0.5482(4) 0.0375(4)
Bi1A Bi -0.20426(3) -0.74813(2) -0.64569(2)
Bi3A Bi 0.50317(3) 0.16401(2) 0.03035(2)
Bi3_2 Bi 0.49683(3) 0.83599(2) -0.03035(2)
Bi4_2 Bi 0.37184(3) -0.52851(2) -0.13168(2)
Bi4A Bi 0.62816(3) 0.52851(2) 0.13168(2)
O1A O 0.0698(5) -0.4132(4) -0.5951(5)
O14A O 0.4181(5) -0.0048(4) 0.0555(4)
O15_2 O 0.5642(5) 0.6683(4) -0.0736(4)
O18_2 O 0.2830(5) -0.3838(4) -0.1236(4)
O22A O 0.6741(5) -0.0592(4) 0.1143(4)
O23A O 0.4747(5) -0.2226(4) 0.1062(4)
O24A O 0.5869(5) 0.4518(4) -0.0375(4)
O4 O 0.4025(6) -0.4955(5) -0.3283(5)
loop_
_geom_bond_atom_site_label_1
_geom_bond_atom_site_label_2
_geom_bond_site_symmetry_1
_geom_bond_site_symmetry_2
Bi1 N1 1_555 1_555
Bi2 N2 1_555 1_555
Bi3 N3 1_555 1_555
Bi4 N4 1_555 1_555
C1 C2 1_555 1_555
C2 H1 1_555 1_555
C3 C2 1_555 1_555
H2 C3 1_555 1_555
C4 C3 1_555 1_555
H3 C4 1_555 1_555
C5 C4 1_555 1_555
C6 C1 1_555 1_555
C7 C5 1_555 1_555
C8 C9 1_555 1_555
C9 H4 1_555 1_555
C10 C9 1_555 1_555
H5 C10 1_555 1_555
C11 C10 1_555 1_555
H6 C11 1_555 1_555
C12 C11 1_555 1_555
C13 C8 1_555 1_555
C14 C12 1_555 1_555
C15 C16 1_555 1_555
C16 H7 1_555 1_555
C17 C16 1_555 1_555
H8 C17 1_555 1_555
C18 C17 1_555 1_555
H9 C18 1_555 1_555
C19 C18 1_555 1_555
C20 C15 1_555 1_555
C21 C19 1_555 1_555
C22 C23 1_555 1_555
C23 H10 1_555 1_555
C24 C23 1_555 1_555
H11 C24 1_555 1_555
C25 C24 1_555 1_555
H12 C25 1_555 1_555
C26 C25 1_555 1_555
C27 C22 1_555 1_555
C28 C26 1_555 1_555
N1 C1 1_555 1_555
N2 C8 1_555 1_555
N3 C15 1_555 1_555
N4 C22 1_555 1_555
O1 C6 1_555 1_555
O2 Bi1 1_555 1_555
O3 Bi1 1_555 1_555
O5 Bi1 1_555 1_555
O6 Bi2 1_555 1_555
O7 C7 1_555 1_555
O8 Bi4 1_555 1_555
O9 C13 1_555 1_555
O10 Bi1 1_555 1_555
O11 Bi2 1_555 1_555
O12 C14 1_555 1_555
O13 C20 1_555 1_555
O14 Bi3 1_555 1_555
O15 Bi3 1_555 1_555
O16 C21 1_555 1_555
O17 C27 1_555 1_555
O18 Bi4 1_555 1_555
O19 Bi2 1_555 1_555
O20 C28 1_555 1_555
O21 Bi1 1_555 1_555
O22 Bi2 1_555 1_555
O23 Bi2 1_555 1_555
O24 Bi4 1_555 1_555
Bi1A O1 1_555 1_555
Bi3A O14 1_555 1_555
Bi3_2 O18 1_555 1_555
Bi4_2 O15 1_555 1_555
Bi4A O24 1_555 1_555
O1A Bi1 1_555 1_555
O14A Bi3 1_555 1_555
O15_2 Bi4 1_555 1_555
O18_2 Bi3 1_555 1_555
O22A Bi3 1_555 1_555
O23A Bi3 1_555 1_555
O24A Bi4 1_555 1_555
Bi2 O5 1_555 1_555
Bi2 O10 1_555 1_555
Bi3 O2 1_555 1_555
Bi4 O11 1_555 1_555
Bi4 O19 1_555 1_555
C5 N1 1_555 1_555
C6 O3 1_555 1_555
C7 O5 1_555 1_555
C12 N2 1_555 1_555
C13 O10 1_555 1_555
C14 O11 1_555 1_555
C19 N3 1_555 1_555
C20 O14 1_555 1_555
C21 O15 1_555 1_555
C26 N4 1_555 1_555
C27 O18 1_555 1_555
C28 O19 1_555 1_555
O22 Bi3A 1_555 1_555
O23 Bi3A 1_555 1_555
Bi3A O14A 1_555 1_555
Bi3_2 O15_2 1_555 1_555
Bi4_2 O18_2 1_555 1_555
Bi4A O24A 1_555 1_555

#END
