
#######################################################################
#
#                 Cambridge Crystallographic Data Centre
#                                CCDC 
#
#######################################################################
#
# If this CIF has been generated from an entry in the Cambridge 
# Structural Database, then it will include bibliographic, chemical, 
# crystal, experimental, refinement or atomic coordinate data resulting 
# from the CCDC's data processing and validation procedures.
#
#######################################################################

data_TEQHII
_symmetry_cell_setting           monoclinic
_symmetry_space_group_name_H-M   'P 21/c'
_symmetry_Int_Tables_number      14
_space_group_name_Hall           '-P 2ybc'
loop_
_symmetry_equiv_pos_site_id
_symmetry_equiv_pos_as_xyz
1 x,y,z
2 -x,1/2+y,1/2-z
3 -x,-y,-z
4 x,1/2-y,1/2+z
_cell_length_a                   7.6085(11)
_cell_length_b                   41.541(6)
_cell_length_c                   13.1293(18)
_cell_angle_alpha                90
_cell_angle_beta                 100.939(2)
_cell_angle_gamma                90
_cell_volume                     4074.31
loop_
_atom_site_label
_atom_site_type_symbol
_atom_site_fract_x
_atom_site_fract_y
_atom_site_fract_z
Mn1 Mn 0.04038(12) 0.11914(2) -0.11331(7)
Mn2 Mn 0.06757(12) 0.07997(2) -0.32556(7)
Mn3 Mn -0.16024(13) 0.14687(2) -0.33962(7)
N1 N -0.1370(7) 0.12507(12) -0.4669(4)
N2 N -0.0465(7) 0.09684(12) -0.4625(4)
N3 N -0.1623(7) 0.17247(13) -0.2123(4)
N4 N -0.0801(7) 0.16044(12) -0.1201(4)
N5 N 0.1565(7) 0.07594(12) -0.1042(4)
N6 N 0.1744(7) 0.06107(11) -0.1929(4)
Cl1 Cl -0.4766(3) 0.21105(5) -0.85428(13)
Cl2 Cl 0.0478(3) 0.22523(4) 0.32424(13)
Cl3 Cl 0.5494(3) -0.07138(4) -0.26477(14)
O1 O -0.0209(5) 0.11478(9) -0.2590(3)
O2 O -0.2991(8) 0.17739(12) -0.4177(4)
O3 O 0.0996(6) 0.12319(11) 0.0280(3)
O4 O 0.1496(6) 0.04568(11) -0.3913(3)
O5 O -0.6792(6) 0.11071(12) -0.3133(3)
O6 O 0.3009(7) 0.13940(14) -0.1332(5)
H1 H 0.2826 0.1449 -0.1967
O7 O -0.1936(7) 0.05426(11) -0.3112(4)
H2 H -0.2348 0.0646 -0.2650
O8 O -0.2372(6) 0.09551(11) -0.1156(4)
H3 H -0.3104 0.1043 -0.1646
O9 O 0.1083(7) 0.16972(12) -0.3474(4)
H4 H 0.1789 0.1537 -0.3425
C1 C -0.3327(10) 0.18324(16) -0.5180(5)
C2 C -0.4248(10) 0.21180(17) -0.5503(5)
H5 H -0.4572 0.2257 -0.4995
C3 C -0.4694(9) 0.22021(15) -0.6520(5)
H6 H -0.5322 0.2396 -0.6722
C4 C -0.4215(9) 0.19997(16) -0.7252(5)
C5 C -0.3325(9) 0.17211(16) -0.6971(5)
H7 H -0.3002 0.1585 -0.7486
C6 C -0.2887(8) 0.16354(14) -0.5939(5)
C7 C -0.1886(8) 0.13345(15) -0.5663(5)
C8 C -0.1337(9) 0.11027(15) -0.6272(5)
H8 H -0.1531 0.1097 -0.7008
C9 C -0.0458(9) 0.08828(15) -0.5601(5)
H9 H 0.0088 0.0693 -0.5800
C10 C 0.0839(8) 0.14740(15) 0.0921(5)
C11 C 0.1604(10) 0.14348(17) 0.1965(5)
H10 H 0.2201 0.1239 0.2187
C12 C 0.1517(10) 0.16697(17) 0.2670(5)
H11 H 0.2064 0.1640 0.3376
C13 C 0.0639(9) 0.19497(16) 0.2360(5)
C14 C -0.0145(8) 0.19967(15) 0.1347(5)
H12 H -0.0767 0.2192 0.1145
C15 C -0.0041(8) 0.17614(15) 0.0609(5)
C16 C -0.0873(8) 0.18229(14) -0.0464(5)
C17 C -0.1758(9) 0.20877(15) -0.0926(5)
H13 H -0.2012 0.2281 -0.0594
C18 C -0.2199(9) 0.20194(16) -0.1951(5)
H14 H -0.2823 0.2160 -0.2468
C19 C 0.2402(9) 0.01938(15) -0.3569(5)
C20 C 0.2760(10) -0.00198(16) -0.4308(5)
H15 H 0.2347 0.0028 -0.5021
C21 C 0.3684(10) -0.02950(17) -0.4044(5)
H16 H 0.3940 -0.0437 -0.4564
C22 C 0.4248(9) -0.03659(15) -0.3008(5)
C23 C 0.3882(8) -0.01640(14) -0.2273(5)
H17 H 0.4267 -0.0219 -0.1563
C24 C 0.2961(8) 0.01202(14) -0.2526(5)
C25 C 0.2609(8) 0.03324(14) -0.1705(5)
C26 C 0.2964(9) 0.03010(15) -0.0638(5)
H18 H 0.3543 0.0126 -0.0248
C27 C 0.2318(8) 0.05722(15) -0.0261(5)
H19 H 0.2393 0.0620 0.0454
C28 C 0.4083(10) 0.16452(17) -0.0831(7)
H20 H 0.5306 0.1621 -0.0976
H21 H 0.4165 0.1622 -0.0073
C29 C 0.3438(10) 0.19729(17) -0.1136(6)
H22 H 0.4253 0.2131 -0.0746
H23 H 0.2236 0.2002 -0.0983
H24 H 0.3396 0.2003 -0.1881
C30 C -0.5473(9) 0.11209(15) -0.3556(5)
C31 C -0.5742(11) 0.1053(2) -0.4685(6)
H25 H -0.4596 0.1072 -0.4918
H26 H -0.6597 0.1207 -0.5064
H27 H -0.6210 0.0834 -0.4820
C32 C -0.2122(10) 0.02146(16) -0.2876(6)
H28 H -0.1198 0.0090 -0.3145
H29 H -0.3306 0.0139 -0.3246
C33 C -0.1962(12) 0.0143(2) -0.1763(6)
H30 H -0.2104 -0.0089 -0.1669
H31 H -0.2895 0.0259 -0.1490
H32 H -0.0782 0.0211 -0.1389
C34 C -0.3182(11) 0.0964(2) -0.0262(6)
H33 H -0.4467 0.0908 -0.0459
H34 H -0.3086 0.1183 0.0037
C35 C -0.2269(13) 0.0731(2) 0.0518(7)
H35 H -0.2822 0.0737 0.1134
H36 H -0.0999 0.0787 0.0714
H37 H -0.2381 0.0513 0.0222
C36 C 0.1724(16) 0.1903(2) -0.4196(7)
H38 H 0.3045 0.1891 -0.4094
H39 H 0.1215 0.1836 -0.4916
C37 C 0.1182(19) 0.2216(3) -0.4015(8)
H40 H 0.1595 0.2364 -0.4499
H41 H 0.1698 0.2279 -0.3301
H42 H -0.0127 0.2224 -0.4116
O10 O -0.3967(6) 0.11857(17) -0.3052(4)
Mn2_2 Mn -0.93243(12) 0.07997(2) -0.32556(7)
O5_2 O 0.3208(6) 0.11071(12) -0.3133(3)
loop_
_geom_bond_atom_site_label_1
_geom_bond_atom_site_label_2
_geom_bond_site_symmetry_1
_geom_bond_site_symmetry_2
Mn1 N4 1_555 1_555
Mn2 N2 1_555 1_555
Mn3 N1 1_555 1_555
N1 N2 1_555 1_555
N2 C9 1_555 1_555
N3 Mn3 1_555 1_555
N4 N3 1_555 1_555
N5 Mn1 1_555 1_555
N6 Mn2 1_555 1_555
Cl1 C4 1_555 1_555
Cl2 C13 1_555 1_555
Cl3 C22 1_555 1_555
O1 Mn1 1_555 1_555
O2 Mn3 1_555 1_555
O3 Mn1 1_555 1_555
O4 Mn2 1_555 1_555
O5 C30 1_555 1_555
O6 Mn1 1_555 1_555
H1 O6 1_555 1_555
O7 Mn2 1_555 1_555
H2 O7 1_555 1_555
O8 Mn1 1_555 1_555
H3 O8 1_555 1_555
O9 Mn3 1_555 1_555
H4 O9 1_555 1_555
C1 O2 1_555 1_555
C2 C1 1_555 1_555
H5 C2 1_555 1_555
C3 C2 1_555 1_555
H6 C3 1_555 1_555
C4 C3 1_555 1_555
C5 C4 1_555 1_555
H7 C5 1_555 1_555
C6 C1 1_555 1_555
C7 N1 1_555 1_555
C8 C7 1_555 1_555
H8 C8 1_555 1_555
C9 C8 1_555 1_555
H9 C9 1_555 1_555
C10 O3 1_555 1_555
C11 C10 1_555 1_555
H10 C11 1_555 1_555
C12 C11 1_555 1_555
H11 C12 1_555 1_555
C13 C12 1_555 1_555
C14 C13 1_555 1_555
H12 C14 1_555 1_555
C15 C10 1_555 1_555
C16 N4 1_555 1_555
C17 C16 1_555 1_555
H13 C17 1_555 1_555
C18 N3 1_555 1_555
H14 C18 1_555 1_555
C19 O4 1_555 1_555
C20 C19 1_555 1_555
H15 C20 1_555 1_555
C21 C20 1_555 1_555
H16 C21 1_555 1_555
C22 C21 1_555 1_555
C23 C22 1_555 1_555
H17 C23 1_555 1_555
C24 C19 1_555 1_555
C25 N6 1_555 1_555
C26 C25 1_555 1_555
H18 C26 1_555 1_555
C27 N5 1_555 1_555
H19 C27 1_555 1_555
C28 O6 1_555 1_555
H20 C28 1_555 1_555
H21 C28 1_555 1_555
C29 C28 1_555 1_555
H22 C29 1_555 1_555
H23 C29 1_555 1_555
H24 C29 1_555 1_555
C30 C31 1_555 1_555
C31 H25 1_555 1_555
H26 C31 1_555 1_555
H27 C31 1_555 1_555
C32 O7 1_555 1_555
H28 C32 1_555 1_555
H29 C32 1_555 1_555
C33 C32 1_555 1_555
H30 C33 1_555 1_555
H31 C33 1_555 1_555
H32 C33 1_555 1_555
C34 O8 1_555 1_555
H33 C34 1_555 1_555
H34 C34 1_555 1_555
C35 C34 1_555 1_555
H35 C35 1_555 1_555
H36 C35 1_555 1_555
H37 C35 1_555 1_555
C36 O9 1_555 1_555
H38 C36 1_555 1_555
H39 C36 1_555 1_555
C37 C36 1_555 1_555
H40 C37 1_555 1_555
H41 C37 1_555 1_555
H42 C37 1_555 1_555
O10 Mn3 1_555 1_555
Mn2_2 O5 1_555 1_555
O5_2 Mn2 1_555 1_555
Mn2 O1 1_555 1_555
Mn3 O1 1_555 1_555
N5 N6 1_555 1_555
C5 C6 1_555 1_555
C6 C7 1_555 1_555
C14 C15 1_555 1_555
C15 C16 1_555 1_555
C17 C18 1_555 1_555
C23 C24 1_555 1_555
C24 C25 1_555 1_555
C26 C27 1_555 1_555
C30 O10 1_555 1_555

#END
