
#######################################################################
#
#                 Cambridge Crystallographic Data Centre
#                                CCDC 
#
#######################################################################
#
# If this CIF has been generated from an entry in the Cambridge 
# Structural Database, then it will include bibliographic, chemical, 
# crystal, experimental, refinement or atomic coordinate data resulting 
# from the CCDC's data processing and validation procedures.
#
#######################################################################

data_TEQHEE
_symmetry_cell_setting           monoclinic
_symmetry_space_group_name_H-M   'P 21/c'
_symmetry_Int_Tables_number      14
_space_group_name_Hall           '-P 2ybc'
loop_
_symmetry_equiv_pos_site_id
_symmetry_equiv_pos_as_xyz
1 x,y,z
2 -x,1/2+y,1/2-z
3 -x,-y,-z
4 x,1/2-y,1/2+z
_cell_length_a                   15.381(2)
_cell_length_b                   16.819(3)
_cell_length_c                   14.024(2)
_cell_angle_alpha                90
_cell_angle_beta                 100.337(3)
_cell_angle_gamma                90
_cell_volume                     3569.03
loop_
_atom_site_label
_atom_site_type_symbol
_atom_site_fract_x
_atom_site_fract_y
_atom_site_fract_z
Mn1 Mn 0.29093(4) 0.33692(4) 0.54448(5)
Mn2 Mn 0.37365(4) 0.15725(4) 0.56261(5)
Mn3 Mn 0.16933(4) 0.18554(4) 0.45232(5)
Cl1 Cl 0.11418(13) 0.72484(8) 0.39133(17)
Cl2 Cl 0.83304(9) 0.12396(10) 0.79145(12)
Cl3 Cl -0.10030(9) -0.16639(8) 0.33799(12)
O1 O 0.27722(17) 0.22727(16) 0.5213(2)
O2 O 0.3102(2) 0.44471(18) 0.5474(3)
O3 O 0.4676(2) 0.09028(18) 0.6006(3)
O4 O 0.05929(19) 0.14665(17) 0.4043(2)
O5 O 0.2662(2) 0.3202(2) 0.6851(2)
O6 O 0.2236(2) 0.3091(2) 0.8228(2)
O7 O 0.4007(2) 0.1705(2) 0.4080(3)
H1 H 0.3653 0.2072 0.3842
O8 O 0.3392(3) 0.1659(2) 0.7156(2)
H2 H 0.2893 0.1891 0.7031
N1 N 0.1193(2) 0.2940(2) 0.4442(3)
N2 N 0.1753(2) 0.3554(2) 0.4685(2)
N3 N 0.4198(2) 0.3221(2) 0.5827(3)
N4 N 0.4502(2) 0.2474(2) 0.5992(3)
N5 N 0.2951(2) 0.0652(2) 0.5253(3)
N6 N 0.2101(2) 0.0782(2) 0.4833(3)
C1 C 0.2618(3) 0.5062(3) 0.5102(3)
C2 C 0.3017(3) 0.5806(3) 0.5214(4)
H3 H 0.3607 0.5851 0.5535
C3 C 0.2564(4) 0.6474(3) 0.4863(4)
H4 H 0.2837 0.6975 0.4947
C4 C 0.1711(4) 0.6406(3) 0.4388(4)
C5 C 0.1304(3) 0.5690(3) 0.4259(4)
H5 H 0.0719 0.5655 0.3923
C6 C 0.1754(3) 0.5004(3) 0.4627(3)
C7 C 0.1317(3) 0.4237(3) 0.4457(3)
C8 C 0.0453(3) 0.4051(3) 0.4049(4)
H6 H -0.0008 0.4406 0.3814
C9 C 0.0416(3) 0.3237(3) 0.4062(4)
H7 H -0.0092 0.2934 0.3833
C10 C 0.5489(3) 0.1032(3) 0.6468(3)
C11 C 0.5995(3) 0.0364(3) 0.6783(4)
H8 H 0.5739 -0.0144 0.6678
C12 C 0.6857(3) 0.0429(3) 0.7242(4)
H9 H 0.7184 -0.0027 0.7469
C13 C 0.7236(3) 0.1167(3) 0.7366(4)
C14 C 0.6762(3) 0.1834(3) 0.7081(3)
H10 H 0.7031 0.2335 0.7187
C15 C 0.5877(3) 0.1779(3) 0.6632(3)
C16 C 0.5373(3) 0.2504(3) 0.6359(3)
C17 C 0.5628(3) 0.3291(3) 0.6427(4)
H11 H 0.6197 0.3494 0.6655
C18 C 0.4876(3) 0.3712(3) 0.6090(4)
H12 H 0.4843 0.4270 0.6050
C19 C 0.0282(3) 0.0735(3) 0.3891(3)
C20 C -0.0600(3) 0.0657(3) 0.3419(4)
H13 H -0.0929 0.1116 0.3210
C21 C -0.0984(3) -0.0068(3) 0.3260(4)
H14 H -0.1579 -0.0113 0.2957
C22 C -0.0496(3) -0.0732(3) 0.3545(4)
C23 C 0.0357(3) -0.0688(3) 0.3990(3)
H15 H 0.0671 -0.1156 0.4187
C24 C 0.0775(3) 0.0048(3) 0.4161(3)
C25 C 0.1690(3) 0.0089(3) 0.4627(3)
C26 C 0.2293(3) -0.0509(3) 0.4925(4)
H16 H 0.2196 -0.1061 0.4875
C27 C 0.3061(3) -0.0129(3) 0.5309(4)
H17 H 0.3593 -0.0385 0.5575
C28 C 0.2103(3) 0.3328(2) 0.7376(3)
C29 C 0.1274(4) 0.3766(3) 0.6981(4)
H18 H 0.0914 0.3814 0.7480
H19 H 0.0948 0.3477 0.6432
H20 H 0.1420 0.4292 0.6774
C30 C 0.4705(5) 0.1808(7) 0.3656(6)
H21 H 0.4929 0.1270 0.3587
H22 H 0.4456 0.1984 0.2997
C31 C 0.5428(7) 0.2250(10) 0.3910(7)
H23 H 0.5805 0.2194 0.3428
H24 H 0.5746 0.2075 0.4535
H25 H 0.5261 0.2803 0.3952
C32 C 0.3271(4) 0.1184(4) 0.7955(4)
H26 H 0.3377 0.1507 0.8546
H27 H 0.2659 0.0995 0.7857
C33 C 0.3852(7) 0.0520(5) 0.8075(6)
H28 H 0.3751 0.0207 0.8626
H29 H 0.4459 0.0705 0.8186
H30 H 0.3743 0.0194 0.7495
Mn3C Mn 0.16933(4) 0.31446(4) 0.95232(5)
O6C O 0.2236(2) 0.1909(2) 0.3228(2)
loop_
_geom_bond_atom_site_label_1
_geom_bond_atom_site_label_2
_geom_bond_site_symmetry_1
_geom_bond_site_symmetry_2
Mn1 O1 1_555 1_555
Mn2 O1 1_555 1_555
Mn3 O1 1_555 1_555
Cl1 C4 1_555 1_555
Cl2 C13 1_555 1_555
Cl3 C22 1_555 1_555
O2 Mn1 1_555 1_555
O3 Mn2 1_555 1_555
O4 Mn3 1_555 1_555
O5 Mn1 1_555 1_555
O6 C28 1_555 1_555
O7 Mn2 1_555 1_555
H1 O7 1_555 1_555
O8 Mn2 1_555 1_555
H2 O8 1_555 1_555
N1 Mn3 1_555 1_555
N2 Mn1 1_555 1_555
N3 Mn1 1_555 1_555
N4 Mn2 1_555 1_555
N5 Mn2 1_555 1_555
N6 Mn3 1_555 1_555
C1 O2 1_555 1_555
C2 C1 1_555 1_555
H3 C2 1_555 1_555
C3 C2 1_555 1_555
H4 C3 1_555 1_555
C4 C3 1_555 1_555
C5 C4 1_555 1_555
H5 C5 1_555 1_555
C6 C1 1_555 1_555
C7 N2 1_555 1_555
C8 C7 1_555 1_555
H6 C8 1_555 1_555
C9 N1 1_555 1_555
H7 C9 1_555 1_555
C10 O3 1_555 1_555
C11 C10 1_555 1_555
H8 C11 1_555 1_555
C12 C11 1_555 1_555
H9 C12 1_555 1_555
C13 C12 1_555 1_555
C14 C13 1_555 1_555
H10 C14 1_555 1_555
C15 C10 1_555 1_555
C16 N4 1_555 1_555
C17 C16 1_555 1_555
H11 C17 1_555 1_555
C18 N3 1_555 1_555
H12 C18 1_555 1_555
C19 O4 1_555 1_555
C20 C19 1_555 1_555
H13 C20 1_555 1_555
C21 C20 1_555 1_555
H14 C21 1_555 1_555
C22 C21 1_555 1_555
C23 C22 1_555 1_555
H15 C23 1_555 1_555
C24 C19 1_555 1_555
C25 N6 1_555 1_555
C26 C25 1_555 1_555
H16 C26 1_555 1_555
C27 N5 1_555 1_555
H17 C27 1_555 1_555
C28 O5 1_555 1_555
C29 C28 1_555 1_555
H18 C29 1_555 1_555
H19 C29 1_555 1_555
H20 C29 1_555 1_555
C30 O7 1_555 1_555
H21 C30 1_555 1_555
H22 C30 1_555 1_555
C31 C30 1_555 1_555
H23 C31 1_555 1_555
H24 C31 1_555 1_555
H25 C31 1_555 1_555
C32 O8 1_555 1_555
H26 C32 1_555 1_555
H27 C32 1_555 1_555
C33 C32 1_555 1_555
H28 C33 1_555 1_555
H29 C33 1_555 1_555
H30 C33 1_555 1_555
Mn3C O6 1_555 1_555
O6C Mn3 1_555 1_555
N1 N2 1_555 1_555
N3 N4 1_555 1_555
N5 N6 1_555 1_555
C5 C6 1_555 1_555
C6 C7 1_555 1_555
C8 C9 1_555 1_555
C14 C15 1_555 1_555
C15 C16 1_555 1_555
C17 C18 1_555 1_555
C23 C24 1_555 1_555
C24 C25 1_555 1_555
C26 C27 1_555 1_555

#END
