
#######################################################################
#
#                 Cambridge Crystallographic Data Centre
#                                CCDC 
#
#######################################################################
#
# If this CIF has been generated from an entry in the Cambridge 
# Structural Database, then it will include bibliographic, chemical, 
# crystal, experimental, refinement or atomic coordinate data resulting 
# from the CCDC's data processing and validation procedures.
#
#######################################################################

data_TEQJOP
_symmetry_cell_setting           monoclinic
_symmetry_space_group_name_H-M   'P 21/n'
_symmetry_Int_Tables_number      14
_space_group_name_Hall           '-P 2yn'
loop_
_symmetry_equiv_pos_site_id
_symmetry_equiv_pos_as_xyz
1 x,y,z
2 1/2-x,1/2+y,1/2-z
3 -x,-y,-z
4 1/2+x,1/2-y,1/2+z
_cell_length_a                   7.437(3)
_cell_length_b                   20.691(3)
_cell_length_c                   13.607(3)
_cell_angle_alpha                90
_cell_angle_beta                 99.070(3)
_cell_angle_gamma                90
_cell_volume                     2067.65
loop_
_atom_site_label
_atom_site_type_symbol
_atom_site_fract_x
_atom_site_fract_y
_atom_site_fract_z
Sn1 Sn 0.63886(4) 0.167647(14) 0.24667(2)
N1 N 0.6610(6) 0.4714(2) 0.6148(3)
O1 O 0.6775(5) 0.27097(15) 0.2940(3)
O2 O 0.6448(6) 0.25007(17) 0.4512(3)
O3 O 0.8926(5) 0.56687(15) 0.3220(3)
O4 O 0.9088(5) 0.48740(16) 0.2127(3)
O5 O 0.7086(6) 0.52651(19) 0.6382(3)
O6 O 0.5785(6) 0.4371(2) 0.6658(3)
C1 C 0.7000(6) 0.3579(2) 0.4082(3)
C2 C 0.7625(6) 0.4000(2) 0.3412(3)
H1 H 0.7791 0.3845 0.2791
C3 C 0.8004(6) 0.4639(2) 0.3643(3)
C4 C 0.7702(6) 0.4875(2) 0.4573(3)
H2 H 0.7962 0.5302 0.4755
C5 C 0.7012(6) 0.4458(2) 0.5205(3)
C6 C 0.6688(6) 0.3811(2) 0.4991(3)
H3 H 0.6268 0.3538 0.5449
C7 C 0.6706(7) 0.2870(2) 0.3844(4)
C8 C 0.8743(6) 0.5091(2) 0.2927(4)
C9 C 0.6580(10) 0.1969(3) 0.0994(4)
H4 H 0.5398 0.2093 0.0659
H5 H 0.7032 0.1616 0.0644
H6 H 0.7398 0.2329 0.1013
C10 C 0.3749(7) 0.1614(3) 0.2836(5)
H7 H 0.2883 0.1779 0.2296
H8 H 0.3689 0.1864 0.3424
H9 H 0.3471 0.1171 0.2957
C11 C 0.8725(7) 0.1367(3) 0.3443(4)
H10 H 0.9786 0.1434 0.3135
H11 H 0.8613 0.0915 0.3586
H12 H 0.8837 0.1610 0.4050
Sn1A Sn 0.86114(4) 0.667647(14) 0.25333(2)
O3A O 0.6074(5) 0.06687(15) 0.1780(3)
N2 N 0.1009(6) 0.3848(2) 0.1477(3)
C12 C 0.0861(14) 0.3222(3) 0.1989(6)
C13 C 0.1732(9) 0.3245(3) 0.3101(5)
C14 C 0.3006(11) 0.4022(4) 0.1446(7)
C15 C 0.3231(11) 0.4693(3) 0.1039(6)
C16 C -0.0067(11) 0.3848(5) 0.0423(6)
C17 C -0.2145(9) 0.3768(4) 0.0472(5)
C18? C 0.243(3) 0.3492(11) 0.2197(12)
C19? C 0.188(3) 0.4141(9) 0.0681(15)
C20? C -0.053(2) 0.3386(8) 0.1087(17)
loop_
_geom_bond_atom_site_label_1
_geom_bond_atom_site_label_2
_geom_bond_site_symmetry_1
_geom_bond_site_symmetry_2
Sn1 O1 1_555 1_555
N1 O5 1_555 1_555
N2 C12 1_555 1_555
O1 C7 1_555 1_555
O2 C7 1_555 1_555
O3 C8 1_555 1_555
O4 C8 1_555 1_555
O6 N1 1_555 1_555
C1 C2 1_555 1_555
C2 H1 1_555 1_555
C3 C2 1_555 1_555
C4 C3 1_555 1_555
H2 C4 1_555 1_555
C5 N1 1_555 1_555
C6 C1 1_555 1_555
H3 C6 1_555 1_555
C7 C1 1_555 1_555
C8 C3 1_555 1_555
C9 Sn1 1_555 1_555
H4 C9 1_555 1_555
H5 C9 1_555 1_555
H6 C9 1_555 1_555
C10 Sn1 1_555 1_555
H7 C10 1_555 1_555
H8 C10 1_555 1_555
H9 C10 1_555 1_555
C11 Sn1 1_555 1_555
H10 C11 1_555 1_555
H11 C11 1_555 1_555
H12 C11 1_555 1_555
C12 C13 1_555 1_555
C14 N2 1_555 1_555
C15 C14 1_555 1_555
C16 N2 1_555 1_555
C17 C16 1_555 1_555
Sn1A O3 1_555 1_555
O3A Sn1 1_555 1_555
C4 C5 1_555 1_555
C5 C6 1_555 1_555

#END
