
#######################################################################
#
#                 Cambridge Crystallographic Data Centre
#                                CCDC 
#
#######################################################################
#
# If this CIF has been generated from an entry in the Cambridge 
# Structural Database, then it will include bibliographic, chemical, 
# crystal, experimental, refinement or atomic coordinate data resulting 
# from the CCDC's data processing and validation procedures.
#
#######################################################################

data_TEQJEF
_symmetry_cell_setting           orthorhombic
_symmetry_space_group_name_H-M   'P b c a'
_symmetry_Int_Tables_number      61
_space_group_name_Hall           '-P 2ac 2ab'
loop_
_symmetry_equiv_pos_site_id
_symmetry_equiv_pos_as_xyz
1 x,y,z
2 1/2-x,-y,1/2+z
3 -x,1/2+y,1/2-z
4 1/2+x,1/2-y,-z
5 -x,-y,-z
6 1/2+x,y,1/2-z
7 x,1/2-y,1/2+z
8 1/2-x,1/2+y,z
_cell_length_a                   16.527(16)
_cell_length_b                   17.889(17)
_cell_length_c                   19.911(19)
_cell_angle_alpha                90
_cell_angle_beta                 90
_cell_angle_gamma                90
_cell_volume                     5886.72
loop_
_atom_site_label
_atom_site_type_symbol
_atom_site_fract_x
_atom_site_fract_y
_atom_site_fract_z
Sn1 Sn 0.07864(2) 0.229220(19) 0.633940(17)
N1 N 0.0847(4) 0.0106(3) 0.9242(3)
O1 O 0.0750(2) 0.1676(2) 0.73134(18)
O2 O 0.0821(3) 0.0441(2) 0.7163(2)
O3 O 0.0812(2) 0.1945(2) 1.04770(17)
O4 O 0.0451(3) 0.2702(2) 0.9642(2)
C1 C 0.0846(4) 0.0228(3) 0.8575(3)
H1 H 0.0901 -0.0185 0.8295
C2 C 0.0770(3) 0.0919(3) 0.8277(2)
C3 C 0.0687(3) 0.1528(3) 0.8696(2)
H2 H 0.0620 0.2003 0.8516
C4 C 0.0704(3) 0.1432(3) 0.9389(2)
C5 C 0.0768(4) 0.0716(3) 0.9633(3)
H3 H 0.0757 0.0649 1.0096
C6 C 0.0781(3) 0.1006(3) 0.7514(2)
C7 C 0.0644(3) 0.2095(3) 0.9855(3)
C8 C 0.1156(4) 0.3220(3) 0.6949(3)
C9 C 0.0937(4) 0.3947(4) 0.6768(4)
H4 H 0.0611 0.4026 0.6394
C10 C 0.1202(8) 0.4552(4) 0.7145(5)
H5 H 0.1048 0.5034 0.7027
C11 C 0.1682(6) 0.4441(6) 0.7679(6)
H6 H 0.1870 0.4851 0.7919
C12 C 0.1900(5) 0.3741(5) 0.7878(4)
H7 H 0.2227 0.3675 0.8253
C13 C 0.1631(4) 0.3129(4) 0.7516(3)
H8 H 0.1770 0.2650 0.7656
C14 C -0.0484(4) 0.2104(4) 0.6227(3)
C15 C -0.0887(5) 0.1542(4) 0.6532(5)
H9 H -0.0599 0.1189 0.6776
C16 C -0.1730(6) 0.1479(5) 0.6488(6)
H10 H -0.1986 0.1076 0.6693
C17 C -0.2181(6) 0.1991(9) 0.6155(5)
H11 H -0.2743 0.1960 0.6145
C18 C -0.1795(6) 0.2530(6) 0.5846(5)
H12 H -0.2092 0.2871 0.5593
C19 C -0.0958(5) 0.2616(5) 0.5881(4)
H13 H -0.0713 0.3021 0.5669
C20 C 0.1794(4) 0.1653(3) 0.6001(3)
C21 C 0.1829(5) 0.1281(4) 0.5380(3)
H14 H 0.1381 0.1289 0.5098
C22 C 0.2516(7) 0.0907(5) 0.5181(5)
H15 H 0.2519 0.0644 0.4777
C23 C 0.3182(7) 0.0920(5) 0.5569(7)
H16 H 0.3651 0.0684 0.5419
C24 C 0.3186(6) 0.1273(5) 0.6182(6)
H17 H 0.3649 0.1279 0.6447
C25 C 0.2488(5) 0.1619(4) 0.6394(4)
H18 H 0.2480 0.1838 0.6818
Sn1F Sn 0.07864(2) 0.270780(19) 1.133940(17)
O3F O 0.0812(2) 0.3055(2) 0.54770(17)
N2 N 0.0952(5) 0.9172(3) 0.6367(3)
H19 H 0.0852 0.9508 0.6700
C26 C 0.0464(8) 0.9393(6) 0.5783(5)
H20 H 0.0440 0.8975 0.5473
H21 H 0.0734 0.9802 0.5556
C27 C -0.0367(8) 0.9625(6) 0.5944(6)
H22 H -0.0646 0.9757 0.5538
H23 H -0.0353 1.0049 0.6239
H24 H -0.0646 0.9221 0.6161
C28 C 0.0697(9) 0.8447(7) 0.6606(8)
H25 H 0.0854 0.8082 0.6270
H26 H 0.0110 0.8449 0.6620
C29 C 0.0986(5) 0.8174(7) 0.7259(5)
H27 H 0.0737 0.7702 0.7358
H28 H 0.0846 0.8529 0.7603
H29 H 0.1563 0.8115 0.7245
C30 C 0.1845(7) 0.9253(8) 0.6169(7)
H30 H 0.1941 0.9765 0.6028
H31 H 0.2177 0.9160 0.6562
C31 C 0.2107(9) 0.8737(8) 0.5617(6)
H32 H 0.2666 0.8827 0.5513
H33 H 0.1783 0.8826 0.5225
H34 H 0.2040 0.8229 0.5760
loop_
_geom_bond_atom_site_label_1
_geom_bond_atom_site_label_2
_geom_bond_site_symmetry_1
_geom_bond_site_symmetry_2
Sn1 O1 1_555 1_555
N1 C1 1_555 1_555
O1 C6 1_555 1_555
O2 C6 1_555 1_555
O3 C7 1_555 1_555
O4 C7 1_555 1_555
C1 H1 1_555 1_555
C2 C1 1_555 1_555
C3 C2 1_555 1_555
H2 C3 1_555 1_555
C4 C3 1_555 1_555
C5 N1 1_555 1_555
H3 C5 1_555 1_555
C6 C2 1_555 1_555
C7 C4 1_555 1_555
C8 Sn1 1_555 1_555
C9 C8 1_555 1_555
H4 C9 1_555 1_555
C10 C9 1_555 1_555
H5 C10 1_555 1_555
C11 C10 1_555 1_555
H6 C11 1_555 1_555
C12 C11 1_555 1_555
H7 C12 1_555 1_555
C13 C8 1_555 1_555
H8 C13 1_555 1_555
C14 Sn1 1_555 1_555
C15 C14 1_555 1_555
H9 C15 1_555 1_555
C16 C15 1_555 1_555
H10 C16 1_555 1_555
C17 C16 1_555 1_555
H11 C17 1_555 1_555
C18 C17 1_555 1_555
H12 C18 1_555 1_555
C19 C14 1_555 1_555
H13 C19 1_555 1_555
C20 Sn1 1_555 1_555
C21 C20 1_555 1_555
H14 C21 1_555 1_555
C22 C21 1_555 1_555
H15 C22 1_555 1_555
C23 C22 1_555 1_555
H16 C23 1_555 1_555
C24 C23 1_555 1_555
H17 C24 1_555 1_555
C25 C20 1_555 1_555
H18 C25 1_555 1_555
N2 H19 1_555 1_555
C26 N2 1_555 1_555
H20 C26 1_555 1_555
H21 C26 1_555 1_555
C27 C26 1_555 1_555
H22 C27 1_555 1_555
H23 C27 1_555 1_555
H24 C27 1_555 1_555
C28 N2 1_555 1_555
H25 C28 1_555 1_555
H26 C28 1_555 1_555
C29 C28 1_555 1_555
H27 C29 1_555 1_555
H28 C29 1_555 1_555
H29 C29 1_555 1_555
C30 N2 1_555 1_555
H30 C30 1_555 1_555
H31 C30 1_555 1_555
C31 C30 1_555 1_555
H32 C31 1_555 1_555
H33 C31 1_555 1_555
H34 C31 1_555 1_555
Sn1F O3 1_555 1_555
O3F Sn1 1_555 1_555
C4 C5 1_555 1_555
C12 C13 1_555 1_555
C18 C19 1_555 1_555
C24 C25 1_555 1_555

#END
