
#######################################################################
#
#                 Cambridge Crystallographic Data Centre
#                                CCDC 
#
#######################################################################
#
# If this CIF has been generated from an entry in the Cambridge 
# Structural Database, then it will include bibliographic, chemical, 
# crystal, experimental, refinement or atomic coordinate data resulting 
# from the CCDC's data processing and validation procedures.
#
#######################################################################

data_TEQJUV
_symmetry_cell_setting           monoclinic
_symmetry_space_group_name_H-M   'P 21/c'
_symmetry_Int_Tables_number      14
_space_group_name_Hall           '-P 2ybc'
loop_
_symmetry_equiv_pos_site_id
_symmetry_equiv_pos_as_xyz
1 x,y,z
2 -x,1/2+y,1/2-z
3 -x,-y,-z
4 x,1/2-y,1/2+z
_cell_length_a                   10.5179(9)
_cell_length_b                   16.3427(14)
_cell_length_c                   20.1897(14)
_cell_angle_alpha                90.00
_cell_angle_beta                 118.725(3)
_cell_angle_gamma                90.00
_cell_volume                     3043.34
loop_
_atom_site_label
_atom_site_type_symbol
_atom_site_fract_x
_atom_site_fract_y
_atom_site_fract_z
Sn1 Sn 0.055636(18) 0.731632(10) 0.779453(10)
N1 N 0.2765(3) 0.48625(17) 0.50180(14)
O1 O 0.0935(2) 0.63000(11) 0.71742(11)
O2 O 0.2676(2) 0.68314(12) 0.69759(13)
O3 O -0.0051(2) 0.33566(11) 0.66867(11)
O4 O -0.0400(3) 0.29148(13) 0.55623(13)
O5 O 0.2629(4) 0.42508(19) 0.46552(17)
O6 O 0.3417(4) 0.54673(18) 0.49970(18)
C1 C 0.1661(3) 0.55555(15) 0.64237(14)
C2 C 0.0926(3) 0.48652(14) 0.64586(13)
H2 H 0.0524 0.4863 0.6781
C3 C 0.0778(3) 0.41782(14) 0.60228(13)
C4 C 0.1364(3) 0.41860(15) 0.55363(13)
H3 H 0.1256 0.3739 0.5228
C5 C 0.2111(3) 0.48721(16) 0.55216(14)
C6 C 0.2284(3) 0.55548(15) 0.59522(14)
H4 H 0.2803 0.6005 0.5930
C7 C 0.1792(3) 0.62999(15) 0.68935(15)
C8 C 0.0028(3) 0.34110(15) 0.60712(15)
C9 C 0.0025(3) 0.81292(17) 0.68629(16)
C10 C 0.0118(4) 0.89740(18) 0.6955(2)
H5 H 0.0461 0.9198 0.7434
C11 C -0.0299(4) 0.9487(2) 0.6334(3)
H6 H -0.0239 1.0051 0.6402
C12 C -0.0796(4) 0.9172(3) 0.5624(2)
H7 H -0.1075 0.9520 0.5212
C13 C -0.0880(4) 0.8341(2) 0.5523(2)
H8 H -0.1206 0.8123 0.5042
C14 C -0.0479(3) 0.7828(2) 0.61334(18)
H9 H -0.0546 0.7265 0.6056
C15 C -0.1250(3) 0.66169(16) 0.76909(16)
C16 C -0.1591(4) 0.65417(19) 0.82731(19)
H10 H -0.0977 0.6762 0.8745
C17 C -0.2842(4) 0.6140(2) 0.8153(2)
H11 H -0.3060 0.6097 0.8547
C18 C -0.3756(4) 0.5807(2) 0.7473(3)
H12 H -0.4608 0.5554 0.7396
C19 C -0.3408(4) 0.5848(2) 0.6897(2)
H13 H -0.4011 0.5606 0.6433
C20 C -0.2161(4) 0.6249(2) 0.70087(19)
H14 H -0.1932 0.6271 0.6618
C21 C 0.2666(3) 0.71507(19) 0.87224(17)
C22 C 0.3378(4) 0.7792(3) 0.9219(2)
H15 H 0.2921 0.8296 0.9146
C23 C 0.4751(5) 0.7687(4) 0.9815(2)
H16 H 0.5212 0.8122 1.0140
C24 C 0.5434(5) 0.6965(5) 0.9932(3)
H17 H 0.6363 0.6903 1.0336
C25 C 0.4767(5) 0.6320(4) 0.9460(3)
H18 H 0.5244 0.5820 0.9546
C26 C 0.3374(4) 0.6406(3) 0.8849(2)
H19 H 0.2924 0.5965 0.8530
Sn1A Sn -0.055636(18) 0.231632(10) 0.720547(10)
O3A O 0.0051(2) 0.83566(11) 0.83133(11)
N2 N 0.4128(3) 0.8191(2) 0.68908(19)
H1 H 0.3669 0.7704 0.6837
C27 C 0.4556(6) 0.8538(3) 0.7715(3)
H20 H 0.5017 0.9068 0.7781
H21 H 0.3683 0.8612 0.7757
C28 C 0.5540(6) 0.7986(4) 0.8313(3)
H22 H 0.5780 0.8216 0.8797
H23 H 0.6409 0.7913 0.8276
H24 H 0.5076 0.7465 0.8259
C29 C 0.5442(4) 0.8032(3) 0.6808(2)
H25 H 0.6086 0.7672 0.7213
H26 H 0.5149 0.7748 0.6335
C30 C 0.6255(4) 0.8781(3) 0.6823(3)
H27 H 0.7079 0.8631 0.6764
H28 H 0.6578 0.9058 0.7296
H29 H 0.5634 0.9137 0.6417
C31 C 0.3054(5) 0.8772(3) 0.6342(3)
H30 H 0.2234 0.8821 0.6435
H31 H 0.3493 0.9309 0.6405
C32 C 0.2557(5) 0.8480(5) 0.5570(3)
H32 H 0.1873 0.8862 0.5218
H33 H 0.2102 0.7956 0.5507
H34 H 0.3371 0.8431 0.5480
loop_
_geom_bond_atom_site_label_1
_geom_bond_atom_site_label_2
_geom_bond_site_symmetry_1
_geom_bond_site_symmetry_2
Sn1 O1 1_555 1_555
N1 O5 1_555 1_555
N2 H1 1_555 1_555
O1 C7 1_555 1_555
O2 C7 1_555 1_555
O3 C8 1_555 1_555
O4 C8 1_555 1_555
O6 N1 1_555 1_555
C1 C2 1_555 1_555
C2 H2 1_555 1_555
C3 C2 1_555 1_555
C4 C3 1_555 1_555
H3 C4 1_555 1_555
C5 N1 1_555 1_555
C6 C1 1_555 1_555
H4 C6 1_555 1_555
C7 C1 1_555 1_555
C8 C3 1_555 1_555
C9 Sn1 1_555 1_555
C10 C9 1_555 1_555
H5 C10 1_555 1_555
C11 C10 1_555 1_555
H6 C11 1_555 1_555
C12 C11 1_555 1_555
H7 C12 1_555 1_555
C13 C12 1_555 1_555
H8 C13 1_555 1_555
C14 C9 1_555 1_555
H9 C14 1_555 1_555
C15 Sn1 1_555 1_555
C16 C15 1_555 1_555
H10 C16 1_555 1_555
C17 C16 1_555 1_555
H11 C17 1_555 1_555
C18 C17 1_555 1_555
H12 C18 1_555 1_555
C19 C18 1_555 1_555
H13 C19 1_555 1_555
C20 C15 1_555 1_555
H14 C20 1_555 1_555
C21 Sn1 1_555 1_555
C22 C21 1_555 1_555
H15 C22 1_555 1_555
C23 C22 1_555 1_555
H16 C23 1_555 1_555
C24 C23 1_555 1_555
H17 C24 1_555 1_555
C25 C24 1_555 1_555
H18 C25 1_555 1_555
C26 C21 1_555 1_555
H19 C26 1_555 1_555
C27 N2 1_555 1_555
H20 C27 1_555 1_555
H21 C27 1_555 1_555
C28 C27 1_555 1_555
H22 C28 1_555 1_555
H23 C28 1_555 1_555
H24 C28 1_555 1_555
C29 N2 1_555 1_555
H25 C29 1_555 1_555
H26 C29 1_555 1_555
C30 C29 1_555 1_555
H27 C30 1_555 1_555
H28 C30 1_555 1_555
H29 C30 1_555 1_555
C31 N2 1_555 1_555
H30 C31 1_555 1_555
H31 C31 1_555 1_555
C32 C31 1_555 1_555
H32 C32 1_555 1_555
H33 C32 1_555 1_555
H34 C32 1_555 1_555
Sn1A O3 1_555 1_555
O3A Sn1 1_555 1_555
C4 C5 1_555 1_555
C5 C6 1_555 1_555
C13 C14 1_555 1_555
C19 C20 1_555 1_555
C25 C26 1_555 1_555

#END
