
#######################################################################
#
#                 Cambridge Crystallographic Data Centre
#                                CCDC 
#
#######################################################################
#
# If this CIF has been generated from an entry in the Cambridge 
# Structural Database, then it will include bibliographic, chemical, 
# crystal, experimental, refinement or atomic coordinate data resulting 
# from the CCDC's data processing and validation procedures.
#
#######################################################################

data_TEQJIJ
_symmetry_cell_setting           monoclinic
_symmetry_space_group_name_H-M   'P 21/n'
_symmetry_Int_Tables_number      14
_space_group_name_Hall           '-P 2yn'
loop_
_symmetry_equiv_pos_site_id
_symmetry_equiv_pos_as_xyz
1 x,y,z
2 1/2-x,1/2+y,1/2-z
3 -x,-y,-z
4 1/2+x,1/2-y,1/2+z
_cell_length_a                   7.7852(14)
_cell_length_b                   20.708(3)
_cell_length_c                   12.808(2)
_cell_angle_alpha                90
_cell_angle_beta                 98.905(2)
_cell_angle_gamma                90
_cell_volume                     2039.96
loop_
_atom_site_label
_atom_site_type_symbol
_atom_site_fract_x
_atom_site_fract_y
_atom_site_fract_z
Sn1 Sn 0.23471(4) 0.806121(13) 0.23301(2)
N1 N 0.2219(6) 0.54531(18) 0.5625(3)
O1 O 0.2520(5) 0.70543(13) 0.2998(3)
O2 O 0.2335(5) 0.73566(14) 0.4652(3)
O3 O 0.2739(5) 0.40068(14) 0.3543(3)
O4 O 0.3209(5) 0.46800(15) 0.2257(2)
C1 C 0.2218(7) 0.6061(2) 0.5280(3)
H2 H 0.2057 0.6388 0.5753
C2 C 0.2438(6) 0.62395(19) 0.4273(3)
C3 C 0.2688(5) 0.57499(18) 0.3572(3)
H3 H 0.2866 0.5849 0.2888
C4 C 0.2672(6) 0.51144(18) 0.3897(3)
C5 C 0.2438(7) 0.4995(2) 0.4920(4)
H4 H 0.2432 0.4566 0.5138
C6 C 0.2428(6) 0.69446(19) 0.3975(4)
C7 C 0.2900(6) 0.45613(19) 0.3156(4)
C8 C 0.2417(9) 0.7644(2) 0.0826(4)
H5 H 0.1259 0.7532 0.0504
H6 H 0.3124 0.7262 0.0907
H7 H 0.2901 0.7948 0.0386
C9 C 0.4707(7) 0.8357(3) 0.3249(5)
H8 H 0.5660 0.8247 0.2888
H9 H 0.4847 0.8143 0.3921
H10 H 0.4687 0.8816 0.3354
C10 C -0.0191(7) 0.8177(2) 0.2694(4)
H11 H -0.1017 0.7998 0.2136
H12 H -0.0428 0.8629 0.2768
H13 H -0.0280 0.7958 0.3345
Sn1A Sn 0.26529(4) 0.306121(13) 0.26699(2)
O3A O 0.2261(5) 0.90068(14) 0.1457(3)
N2 N 0.2088(4) 0.88422(17) 0.6331(3)
H1 H 0.1949 0.9223 0.6661
C11 C 0.1019(7) 0.8867(3) 0.5270(4)
H14 H 0.0947 0.8437 0.4969
H15 H 0.1599 0.9141 0.4818
C12 C -0.0785(7) 0.9117(3) 0.5271(5)
H16 H -0.1397 0.9125 0.4560
H17 H -0.0729 0.9547 0.5557
H18 H -0.1386 0.8841 0.5695
C13 C 0.1504(9) 0.8312(3) 0.6990(5)
H19 H 0.1885 0.7901 0.6745
H20 H 0.0243 0.8308 0.6895
C14 C 0.2199(10) 0.8386(3) 0.8148(5)
H21 H 0.1770 0.8040 0.8536
H22 H 0.1824 0.8792 0.8396
H23 H 0.3446 0.8372 0.8250
C15 C 0.3964(8) 0.8774(3) 0.6246(5)
H24 H 0.4596 0.8650 0.6930
H25 H 0.4101 0.8430 0.5751
C16 C 0.4731(8) 0.9376(3) 0.5891(6)
H26 H 0.5933 0.9304 0.5838
H27 H 0.4643 0.9714 0.6393
H28 H 0.4115 0.9500 0.5213
O5 O 0.3329(6) 0.50184(18) 0.7726(3)
H29 H 0.443(3) 0.511(3) 0.765(4)
H30 H 0.281(5) 0.479(3) 0.717(3)
loop_
_geom_bond_atom_site_label_1
_geom_bond_atom_site_label_2
_geom_bond_site_symmetry_1
_geom_bond_site_symmetry_2
Sn1 O1 1_555 1_555
N1 C1 1_555 1_555
N2 H1 1_555 1_555
O1 C6 1_555 1_555
O2 C6 1_555 1_555
O3 C7 1_555 1_555
O4 C7 1_555 1_555
O5 H29 1_555 1_555
C1 H2 1_555 1_555
C2 C1 1_555 1_555
C3 C2 1_555 1_555
H3 C3 1_555 1_555
C4 C3 1_555 1_555
C5 N1 1_555 1_555
H4 C5 1_555 1_555
C6 C2 1_555 1_555
C7 C4 1_555 1_555
C8 Sn1 1_555 1_555
H5 C8 1_555 1_555
H6 C8 1_555 1_555
H7 C8 1_555 1_555
C9 Sn1 1_555 1_555
H8 C9 1_555 1_555
H9 C9 1_555 1_555
H10 C9 1_555 1_555
C10 Sn1 1_555 1_555
H11 C10 1_555 1_555
H12 C10 1_555 1_555
H13 C10 1_555 1_555
C11 N2 1_555 1_555
H14 C11 1_555 1_555
H15 C11 1_555 1_555
C12 C11 1_555 1_555
H16 C12 1_555 1_555
H17 C12 1_555 1_555
H18 C12 1_555 1_555
C13 N2 1_555 1_555
H19 C13 1_555 1_555
H20 C13 1_555 1_555
C14 C13 1_555 1_555
H21 C14 1_555 1_555
H22 C14 1_555 1_555
H23 C14 1_555 1_555
C15 N2 1_555 1_555
H24 C15 1_555 1_555
H25 C15 1_555 1_555
C16 C15 1_555 1_555
H26 C16 1_555 1_555
H27 C16 1_555 1_555
H28 C16 1_555 1_555
H30 O5 1_555 1_555
Sn1A O3 1_555 1_555
O3A Sn1 1_555 1_555
C4 C5 1_555 1_555

#END
