
#######################################################################
#
#                 Cambridge Crystallographic Data Centre
#                                CCDC 
#
#######################################################################
#
# If this CIF has been generated from an entry in the Cambridge 
# Structural Database, then it will include bibliographic, chemical, 
# crystal, experimental, refinement or atomic coordinate data resulting 
# from the CCDC's data processing and validation procedures.
#
#######################################################################

data_TEQKEH
_symmetry_cell_setting           triclinic
_symmetry_space_group_name_H-M   'P -1'
_symmetry_Int_Tables_number      2
_space_group_name_Hall           '-P 1'
loop_
_symmetry_equiv_pos_site_id
_symmetry_equiv_pos_as_xyz
1 x,y,z
2 -x,-y,-z
_cell_length_a                   9.247(2)
_cell_length_b                   9.437(2)
_cell_length_c                   9.862(3)
_cell_angle_alpha                74.36(2)
_cell_angle_beta                 63.38(2)
_cell_angle_gamma                87.67(2)
_cell_volume                     737.668
loop_
_atom_site_label
_atom_site_type_symbol
_atom_site_fract_x
_atom_site_fract_y
_atom_site_fract_z
Er1 Er 0.56149(4) 0.61995(3) 0.14494(4)
O1 O 0.5859(7) 0.3556(6) 0.2181(7)
O2 O 0.4263(7) 0.4472(7) 0.4096(7)
O3 O 0.3496(7) 0.5042(8) 0.1423(8)
O4 O 0.1999(8) 0.4055(8) 0.0662(8)
O5 O 0.3790(8) 0.7553(7) 0.2914(8)
O6 O 0.2604(8) 0.8906(7) 0.1539(8)
O7 O 0.5122(8) 0.7869(7) -0.0536(7)
O8 O 0.7149(9) 0.8490(7) 0.0619(9)
O9 O 0.7293(8) 0.5961(9) 0.2716(8)
C1 C 0.4879(11) 0.3363(10) 0.3651(11)
C2 C 0.4495(14) 0.1894(10) 0.4798(12)
H1 H 0.3735 0.1806 0.5837
C3 C 0.5152(12) 0.0699(10) 0.4453(11)
H2 H 0.5876 0.0784 0.3403
C4 C 0.2153(11) 0.4597(10) 0.1647(11)
C5 C 0.0683(11) 0.4597(10) 0.3109(10)
H3 H -0.0319 0.4298 0.3220
C6 C 0.0733(11) 0.5005(10) 0.4270(11)
H4 H 0.1734 0.5310 0.4157
C7 C 0.2769(11) 0.8431(10) 0.2793(11)
C8 C 0.1706(12) 0.8908(10) 0.4211(11)
H5 H 0.1880 0.8572 0.5098
C9 C 0.0532(12) 0.9774(11) 0.4305(12)
H6 H 0.0374 1.0123 0.3410
H7 H 0.4529 0.8559 -0.0233
H8 H 0.5857 0.8030 -0.1630
H9 H 0.72(2) 0.918(12) -0.011(14)
H10 H 0.778(17) 0.870(17) 0.094(19)
H11 H 0.687(17) 0.572(18) 0.370(3)
H12 H 0.818(10) 0.639(17) 0.247(17)
Er1A Er -0.56149(4) 0.38005(3) 0.85506(4)
Er1_2 Er -0.43851(4) 0.61995(3) 1.14494(4)
Er1A_2 Er -0.56149(4) 1.38005(3) 0.85506(4)
Er1A_3 Er 0.43851(4) -0.61995(3) 0.85506(4)
Er1A_4 Er 0.43851(4) 0.38005(3) -0.14494(4)
O1A O 0.4141(7) -0.3556(6) 0.7819(7)
O1A_2 O -0.5859(7) 0.6444(6) 0.7819(7)
O2A O 0.5737(7) -0.4472(7) 0.5904(7)
O2A_2 O -0.4263(7) 0.5528(7) 0.5904(7)
O3A O -0.3496(7) 0.4958(8) 0.8577(8)
O4A O -0.1999(8) 0.5945(8) 0.9338(8)
O4_2 O -0.8001(8) 0.4055(8) 1.0662(8)
O4A_2 O 0.8001(8) 0.5945(8) -0.0662(8)
O5A O -0.3790(8) 1.2447(7) 0.7086(8)
O5A_2 O -0.3790(8) 0.2447(7) 0.7086(8)
O6A O -0.2604(8) 1.1094(7) 0.8461(8)
O7A O -0.5122(8) 0.2131(7) 1.0536(7)
O8A O -0.7149(9) 0.1510(7) 0.9381(9)
O9A O -0.7293(8) 0.4039(9) 0.7284(8)
C1A C 0.5121(11) -0.3363(10) 0.6349(11)
C1A_2 C -0.4879(11) 0.6637(10) 0.6349(11)
C2A C 0.5505(14) -0.1894(10) 0.5202(12)
H1A H 0.6265 -0.1806 0.4163
C3A C 0.4848(12) -0.0699(10) 0.5547(11)
H2A H 0.4124 -0.0784 0.6597
C4A C -0.2153(11) 0.5403(10) 0.8353(11)
C5A C -0.0683(11) 0.5403(10) 0.6891(10)
H3A H 0.0319 0.5702 0.6780
C6A C -0.0733(11) 0.4995(10) 0.5730(11)
H4A H -0.1734 0.4690 0.5843
C7A C -0.2769(11) 1.1569(10) 0.7207(11)
C8A C -0.1706(12) 1.1092(10) 0.5789(11)
H5A H -0.1880 1.1428 0.4902
C9A C -0.0532(12) 1.0226(11) 0.5695(12)
H6A H -0.0374 0.9877 0.6590
H7A H -0.4529 0.1441 1.0233
H8A H -0.5857 0.1970 1.1630
H9A H -0.72(2) 0.082(12) 1.011(14)
H10A H -0.778(17) 0.130(17) 0.906(19)
H11A H -0.687(17) 0.428(18) 0.630(3)
H12A H -0.818(10) 0.361(17) 0.753(17)
O10 O 0.8983(11) 0.2505(12) 0.1512(13)
H13 H 0.807(9) 0.282(17) 0.186(19)
H14 H 0.961(15) 0.318(13) 0.074(14)
O11 O 1.0193(11) 0.1894(11) -0.1298(12)
loop_
_geom_bond_atom_site_label_1
_geom_bond_atom_site_label_2
_geom_bond_site_symmetry_1
_geom_bond_site_symmetry_2
Er1 O1 1_555 1_555
O1 C1 1_555 1_555
O2 Er1 1_555 1_555
O3 Er1 1_555 1_555
O4 C4 1_555 1_555
O5 Er1 1_555 1_555
O6 C7 1_555 1_555
O7 Er1 1_555 1_555
O8 Er1 1_555 1_555
O9 Er1 1_555 1_555
C1 O2 1_555 1_555
C2 C1 1_555 1_555
H1 C2 1_555 1_555
C3 C2 1_555 1_555
H2 C3 1_555 1_555
C4 O3 1_555 1_555
C5 C4 1_555 1_555
H3 C5 1_555 1_555
C6 C5 1_555 1_555
H4 C6 1_555 1_555
C7 O5 1_555 1_555
C8 C7 1_555 1_555
H5 C8 1_555 1_555
C9 C8 1_555 1_555
H6 C9 1_555 1_555
H7 O7 1_555 1_555
H8 O7 1_555 1_555
H9 O8 1_555 1_555
H10 O8 1_555 1_555
H11 O9 1_555 1_555
H12 O9 1_555 1_555
O10 H13 1_555 1_555
H14 O10 1_555 1_555
Er1A O1A_2 1_555 1_555
Er1_2 O4A 1_555 1_555
Er1A_2 O5A 1_555 1_555
Er1A_3 O1A 1_555 1_555
Er1A_4 O4 1_555 1_555
O1A C1A 1_555 1_555
O1A_2 C1A_2 1_555 1_555
O2A Er1A_3 1_555 1_555
O2A_2 Er1A 1_555 1_555
O3A Er1A 1_555 1_555
O4A C4A 1_555 1_555
O4_2 Er1A 1_555 1_555
O4A_2 Er1 1_555 1_555
O5A C7A 1_555 1_555
O5A_2 Er1A 1_555 1_555
O6A C7A 1_555 1_555
O7A Er1A 1_555 1_555
O8A Er1A 1_555 1_555
O9A Er1A 1_555 1_555
C1A O2A 1_555 1_555
C1A_2 O2A_2 1_555 1_555
C2A C1A 1_555 1_555
H1A C2A 1_555 1_555
C3A C3 1_555 1_555
H2A C3A 1_555 1_555
C4A O3A 1_555 1_555
C5A C4A 1_555 1_555
H3A C5A 1_555 1_555
C6A C6 1_555 1_555
H4A C6A 1_555 1_555
C7A C8A 1_555 1_555
C8A H5A 1_555 1_555
C9A C9 1_555 1_555
H6A C9A 1_555 1_555
H7A O7A 1_555 1_555
H8A O7A 1_555 1_555
H9A O8A 1_555 1_555
H10A O8A 1_555 1_555
H11A O9A 1_555 1_555
H12A O9A 1_555 1_555
C2A C3A 1_555 1_555
C5A C6A 1_555 1_555
C8A C9A 1_555 1_555

#END
