
#######################################################################
#
#                 Cambridge Crystallographic Data Centre
#                                CCDC 
#
#######################################################################
#
# If this CIF has been generated from an entry in the Cambridge 
# Structural Database, then it will include bibliographic, chemical, 
# crystal, experimental, refinement or atomic coordinate data resulting 
# from the CCDC's data processing and validation procedures.
#
#######################################################################

data_TEQLAE
_symmetry_cell_setting           monoclinic
_symmetry_space_group_name_H-M   'C 2/c'
_symmetry_Int_Tables_number      15
_space_group_name_Hall           '-C 2yn'
loop_
_symmetry_equiv_pos_site_id
_symmetry_equiv_pos_as_xyz
1 x,y,z
2 -x,y,1/2-z
3 1/2+x,1/2+y,z
4 1/2-x,1/2+y,1/2-z
5 -x,-y,-z
6 x,-y,1/2+z
7 1/2-x,1/2-y,-z
8 1/2+x,1/2-y,1/2+z
_cell_length_a                   15.2522(9)
_cell_length_b                   7.7825(5)
_cell_length_c                   20.2169(16)
_cell_angle_alpha                90
_cell_angle_beta                 110.634(2)
_cell_angle_gamma                90
_cell_volume                     2245.81
loop_
_atom_site_label
_atom_site_type_symbol
_atom_site_fract_x
_atom_site_fract_y
_atom_site_fract_z
Er1 Er 0.636621(8) 0.543368(16) 0.518041(6)
O1 O 0.18451(14) 0.1783(3) 0.09349(11)
O2 O 0.09193(14) 0.4030(3) 0.09191(11)
O3 O 0.48112(14) 0.4849(3) 0.42783(11)
O4 O 0.59898(14) 0.3207(3) 0.42943(10)
O5 O 0.84354(14) 0.8171(3) 0.57289(10)
O6 O 0.73038(13) 0.7088(3) 0.60646(11)
O7 O 0.56488(15) 0.8138(3) 0.50871(11)
H1 H 0.5138(14) 0.837(4) 0.4782(12)
H2 H 0.573(2) 0.881(4) 0.5418(12)
O8 O 0.78695(15) 0.4639(3) 0.52025(12)
H3 H 0.8265(17) 0.534(3) 0.518(2)
H4 H 0.8177(19) 0.377(2) 0.5378(18)
C1 C 0.1662(2) 0.3164(4) 0.11835(15)
C2 C 0.2357(2) 0.3819(4) 0.18567(15)
H5 H 0.2219 0.4868 0.2040
C3 C 0.3157(2) 0.3034(4) 0.22192(15)
H6 H 0.3332 0.2036 0.2025
C4 C 0.3770(2) 0.3657(4) 0.29024(15)
H7 H 0.3579 0.4663 0.3081
C5 C 0.4579(2) 0.2941(4) 0.33012(15)
H8 H 0.4789 0.1933 0.3138
C6 C 0.5154(2) 0.3680(4) 0.39900(15)
C7 C 0.8130(2) 0.7651(4) 0.61934(15)
C8 C 0.8759(2) 0.7654(4) 0.69401(16)
H9 H 0.8490 0.7612 0.7298
C9 C 0.9690(2) 0.7714(4) 0.71345(15)
H10 H 0.9958 0.7758 0.6776
Er1G Er 1.136621(8) -0.043368(16) 1.018041(6)
Er1G_2 Er 0.136621(8) -0.043368(16) 0.018041(6)
Er1D Er 0.363379(8) 0.456632(16) 0.481959(6)
Er1F Er 0.863379(8) 0.956632(16) 0.481959(6)
Er1G_3 Er 1.136621(8) 0.956632(16) 1.018041(6)
Er1A Er 1.363379(8) 0.543368(16) 0.981959(6)
Er1C Er 0.863379(8) 0.043368(16) 0.981959(6)
O1G O 0.68451(14) 0.3217(3) 0.59349(11)
O1_2 O 1.18451(14) 0.1783(3) 1.09349(11)
O2G O 0.59193(14) 0.0970(3) 0.59191(11)
O3G O 0.98112(14) 0.0151(3) 0.92783(11)
O3D O 0.51888(14) 0.5151(3) 0.57217(11)
O3C O 1.01888(14) -0.0151(3) 1.07217(11)
O4G O 1.09898(14) 0.1793(3) 0.92943(10)
O5A O 1.15646(14) 0.8171(3) 0.92711(10)
O5F O 0.65646(14) 0.6829(3) 0.42711(10)
O5A_2 O 1.15646(14) -0.1829(3) 0.92711(10)
O6A O 1.26962(13) 0.7088(3) 0.89354(11)
O6G O 1.23038(13) -0.2088(3) 1.10646(11)
O7G O 1.06488(15) -0.3138(3) 1.00871(11)
H1G H 1.0138(14) -0.337(4) 0.9782(12)
H2G H 1.073(2) -0.381(4) 1.0418(12)
O8G O 1.28695(15) 0.0361(3) 1.02025(12)
H3G H 1.3265(17) -0.034(3) 1.018(2)
H4G H 1.3177(19) 0.123(2) 1.0378(18)
C1G C 0.6662(2) 0.1836(4) 0.61835(15)
C2G C 0.7357(2) 0.1181(4) 0.68567(15)
H5G H 0.7219 0.0132 0.7040
C3G C 0.8157(2) 0.1966(4) 0.72192(15)
H6G H 0.8332 0.2964 0.7025
C4G C 0.8770(2) 0.1343(4) 0.79024(15)
H7G H 0.8579 0.0337 0.8081
C5G C 0.9579(2) 0.2059(4) 0.83012(15)
H8G H 0.9789 0.3067 0.8138
C6G C 1.0154(2) 0.1320(4) 0.89900(15)
C7A C 1.1870(2) 0.7651(4) 0.88066(15)
C8A C 1.1241(2) 0.7654(4) 0.80599(16)
H9A H 1.1510 0.7612 0.7702
C9A C 1.0310(2) 0.7714(4) 0.78655(15)
H10A H 1.0042 0.7758 0.8224
loop_
_geom_bond_atom_site_label_1
_geom_bond_atom_site_label_2
_geom_bond_site_symmetry_1
_geom_bond_site_symmetry_2
Er1 O3 1_555 1_555
O1 C1 1_555 1_555
O2 C1 1_555 1_555
O3 C6 1_555 1_555
O4 Er1 1_555 1_555
O5 C7 1_555 1_555
O6 Er1 1_555 1_555
O7 Er1 1_555 1_555
H1 O7 1_555 1_555
H2 O7 1_555 1_555
O8 Er1 1_555 1_555
H3 O8 1_555 1_555
H4 O8 1_555 1_555
C1 C2 1_555 1_555
C2 H5 1_555 1_555
C3 C2 1_555 1_555
H6 C3 1_555 1_555
C4 C3 1_555 1_555
H7 C4 1_555 1_555
C5 C4 1_555 1_555
H8 C5 1_555 1_555
C6 O4 1_555 1_555
C7 O6 1_555 1_555
C8 C7 1_555 1_555
H9 C8 1_555 1_555
C9 C8 1_555 1_555
H10 C9 1_555 1_555
Er1G O1_2 1_555 1_555
Er1G_2 O1 1_555 1_555
Er1D O3 1_555 1_555
Er1F O5 1_555 1_555
Er1G_3 O5A 1_555 1_555
Er1A O6A 1_555 1_555
Er1C O3G 1_555 1_555
O1G Er1 1_555 1_555
O2G C1G 1_555 1_555
O3G Er1G 1_555 1_555
O3D Er1 1_555 1_555
O3C Er1G 1_555 1_555
O4G Er1G 1_555 1_555
O5A C7A 1_555 1_555
O5F Er1 1_555 1_555
O5A_2 Er1G 1_555 1_555
O6A C7A 1_555 1_555
O6G Er1G 1_555 1_555
O7G Er1G 1_555 1_555
H1G O7G 1_555 1_555
H2G O7G 1_555 1_555
O8G Er1G 1_555 1_555
H3G O8G 1_555 1_555
H4G O8G 1_555 1_555
C1G O1G 1_555 1_555
C2G C1G 1_555 1_555
H5G C2G 1_555 1_555
C3G C2G 1_555 1_555
H6G C3G 1_555 1_555
C4G C3G 1_555 1_555
H7G C4G 1_555 1_555
C5G C4G 1_555 1_555
H8G C5G 1_555 1_555
C6G O3G 1_555 1_555
C7A C8A 1_555 1_555
C8A H9A 1_555 1_555
C9A C9 1_555 1_555
H10A C9A 1_555 1_555
C5 C6 1_555 1_555
Er1D O3D 1_555 1_555
Er1C O3C 1_555 1_555
O4G C6G 1_555 1_555
C5G C6G 1_555 1_555
C8A C9A 1_555 1_555

#END
