
#######################################################################
#
#                 Cambridge Crystallographic Data Centre
#                                CCDC 
#
#######################################################################
#
# If this CIF has been generated from an entry in the Cambridge 
# Structural Database, then it will include bibliographic, chemical, 
# crystal, experimental, refinement or atomic coordinate data resulting 
# from the CCDC's data processing and validation procedures.
#
#######################################################################

data_TEQLEI
_symmetry_cell_setting           triclinic
_symmetry_space_group_name_H-M   'P -1'
_symmetry_Int_Tables_number      2
_space_group_name_Hall           '-P 1'
loop_
_symmetry_equiv_pos_site_id
_symmetry_equiv_pos_as_xyz
1 x,y,z
2 -x,-y,-z
_cell_length_a                   18.5805(7)
_cell_length_b                   22.1360(7)
_cell_length_c                   27.3338(10)
_cell_angle_alpha                111.986(3)
_cell_angle_beta                 91.140(3)
_cell_angle_gamma                109.790(3)
_cell_volume                     9669.51
loop_
_atom_site_label
_atom_site_type_symbol
_atom_site_fract_x
_atom_site_fract_y
_atom_site_fract_z
C109 C 0.1419(13) 0.7636(8) 0.5242(6)
H88 H 0.1358 0.7210 0.5290
H89 H 0.1533 0.8016 0.5593
C110 C 0.0652(13) 0.7539(11) 0.4931(10)
H90 H 0.0238 0.7438 0.5128
H91 H 0.0534 0.7158 0.4586
H92 H 0.0710 0.7963 0.4887
C111 C 0.2153(11) 0.8491(9) 0.4836(7)
H93 H 0.1658 0.8376 0.4629
H94 H 0.2550 0.8597 0.4622
C112 C 0.2313(11) 0.9189(9) 0.5370(7)
H95 H 0.2298 0.9561 0.5275
H96 H 0.2815 0.9327 0.5570
H97 H 0.1922 0.9096 0.5585
C113 C 0.1937(7) 0.7178(6) 0.4375(5)
H98 H 0.1875 0.6756 0.4431
H99 H 0.1451 0.7106 0.4182
C114 C 0.2578(8) 0.7310(8) 0.4048(6)
H100 H 0.2438 0.6924 0.3704
H101 H 0.3052 0.7355 0.4231
H102 H 0.2649 0.7735 0.4003
C115 C 0.2846(9) 0.7989(9) 0.5257(7)
H103 H 0.2838 0.8304 0.5615
H104 H 0.3273 0.8247 0.5126
C116 C 0.3017(11) 0.7356(10) 0.5294(8)
H105 H 0.3490 0.7532 0.5539
H106 H 0.3067 0.7058 0.4947
H107 H 0.2597 0.7091 0.5420
N14 N 0.2138(8) 0.7811(6) 0.4922(4)
Br5 Br 0.29237(13) 0.06952(14) 0.77006(15)
Br6 Br 0.36158(13) 0.17470(12) 0.94220(10)
Br7 Br 0.5000 0.0000 0.0000
C1 C 0.1428(5) -0.2599(4) 1.3098(3)
C2 C 0.0742(5) -0.2455(4) 1.3266(4)
C3 C 0.0182(6) -0.2946(5) 1.3399(4)
H1 H 0.0266 -0.3342 1.3385
C4 C -0.0497(7) -0.2860(6) 1.3552(5)
H2 H -0.0846 -0.3185 1.3656
C5 C -0.0662(7) -0.2289(6) 1.3550(5)
H3 H -0.1137 -0.2253 1.3620
C6 C -0.0095(6) -0.1778(5) 1.3443(4)
H4 H -0.0181 -0.1377 1.3469
C7 C 0.0599(5) -0.1847(4) 1.3296(3)
C8 C 0.1778(7) 0.1122(6) 1.4222(5)
C9 C 0.2463(6) 0.1687(6) 1.4616(4)
C10 C 0.2283(8) 0.2121(8) 1.5088(6)
H5 H 0.1781 0.2035 1.5163
C11 C 0.2968(10) 0.2724(10) 1.5452(7)
H6 H 0.2886 0.3071 1.5740
C12 C 0.3672(8) 0.2790(7) 1.5389(5)
H7 H 0.4080 0.3157 1.5647
C13 C 0.3834(7) 0.2322(5) 1.4940(4)
H8 H 0.4346 0.2390 1.4897
C14 C 0.3238(6) 0.1754(5) 1.4557(4)
C15 C 0.3873(5) 0.2133(4) 1.3228(3)
C16 C 0.4626(5) 0.2703(4) 1.3430(4)
C17 C 0.4716(6) 0.3273(5) 1.3290(6)
H9 H 0.4289 0.3271 1.3105
C18 C 0.5370(10) 0.3801(9) 1.3409(7)
H10 H 0.5476 0.4100 1.3232
C19 C 0.5332(7) -0.2332(6) 1.1637(5)
H11 H 0.5702 -0.1976 1.1573
C20 C 0.5861(7) 0.3324(5) 1.4001(5)
H12 H 0.6249 0.3354 1.4239
C21 C 0.5186(4) -0.0410(4) 1.4293(3)
C22 C 0.5643(4) -0.0442(4) 1.4696(3)
H13 H 0.5996 -0.0028 1.4957
C23 C 0.5577(6) -0.1074(5) 1.4709(4)
H14 H 0.5895 -0.1086 1.4970
C24 C 0.5061(6) -0.1662(5) 1.4351(4)
H15 H 0.5011 -0.2085 1.4369
C25 C 0.4585(5) -0.1670(4) 1.3942(3)
H16 H 0.4232 -0.2094 1.3691
C26 C 0.4641(4) -0.1051(4) 1.3915(3)
C27 C 0.4892(5) -0.1418(4) 1.2226(4)
C28 C 0.4822(6) -0.2167(4) 1.1968(4)
C29 C 0.4306(6) -0.2695(4) 1.2088(4)
C30 C 0.5318(9) -0.3023(9) 1.1389(6)
H17 H 0.5671 -0.3129 1.1167
C31 C 0.4762(7) -0.3522(7) 1.1492(5)
H18 H 0.4697 -0.3990 1.1309
C32 C 0.4308(7) -0.3358(5) 1.1848(4)
H19 H 0.3978 -0.3708 1.1938
C33 C 0.0443(4) -0.1797(4) 1.1790(3)
C34 C -0.0256(5) -0.1677(5) 1.1748(3)
C35 C -0.0770(5) -0.2117(6) 1.1264(4)
H20 H -0.0647 -0.2464 1.1003
C36 C -0.1433(9) -0.2040(8) 1.1176(6)
H21 H -0.1766 -0.2328 1.0851
C37 C -0.1634(6) -0.1533(8) 1.1564(6)
H22 H -0.2099 -0.1486 1.1493
C38 C -0.1142(5) -0.1084(6) 1.2067(5)
H23 H -0.1280 -0.0746 1.2324
C39 C -0.0436(4) -0.1167(5) 1.2167(4)
C40 C 0.3947(4) -0.1265(4) 1.1057(3)
C41 C 0.4244(5) -0.1599(5) 1.0580(4)
H24 H 0.3817 -0.1934 1.0298
H25 H 0.4562 -0.1249 1.0467
H26 H 0.4547 -0.1836 1.0660
C42 C 0.1341(4) 0.0625(4) 1.2312(3)
C43 C 0.0602(5) 0.0702(4) 1.2429(3)
H27 H 0.0311 0.0351 1.2551
H28 H 0.0701 0.1160 1.2701
H29 H 0.0309 0.0644 1.2110
C44 C 0.4066(4) 0.1102(4) 1.1783(3)
C45 C 0.4360(5) 0.1519(5) 1.1437(4)
H30 H 0.4743 0.1373 1.1249
H31 H 0.3933 0.1433 1.1183
H32 H 0.4586 0.2012 1.1663
C46 C 0.2332(4) -0.2668(3) 1.1496(3)
C47 C 0.2213(5) -0.3374(3) 1.1483(3)
H33 H 0.1813 -0.3727 1.1189
H34 H 0.2687 -0.3457 1.1439
H35 H 0.2063 -0.3393 1.1813
C48 C 0.1808(5) -0.0673(5) 1.1063(3)
C49 C 0.1635(11) -0.0734(9) 1.0501(4)
H36 H 0.1258 -0.1193 1.0286
H37 H 0.1435 -0.0385 1.0509
H38 H 0.2103 -0.0665 1.0350
C50 C 0.5626(4) 0.1010(4) 1.2773(3)
C51 C 0.6341(4) 0.1563(4) 1.3187(3)
H39 H 0.6178 0.1806 1.3509
H40 H 0.6660 0.1338 1.3265
H41 H 0.6631 0.1893 1.3047
C52 C 0.7008(4) 0.2349(4) 1.2137(3)
C53 C 0.6289(4) 0.2449(5) 1.2301(4)
H42 H 0.6324 0.2910 1.2347
H43 H 0.5853 0.2104 1.2030
H44 H 0.6222 0.2397 1.2633
C54 C 0.9079(4) 0.1188(4) 1.1715(3)
C55 C 0.8872(5) 0.0411(4) 1.1562(4)
H45 H 0.8407 0.0228 1.1693
H46 H 0.8790 0.0171 1.1180
H47 H 0.9289 0.0340 1.1717
C56 C 0.8814(5) 0.2127(4) 1.3179(3)
C57 C 0.9221(5) 0.1862(4) 1.3449(3)
C58 C 0.9957(5) 0.2240(5) 1.3740(4)
C59 C 1.0314(6) 0.1931(5) 1.3990(4)
H48 H 1.0815 0.2165 1.4186
C60 C 0.9832(8) 0.1213(7) 1.3914(5)
H49 H 1.0040 0.1000 1.4083
C61 C 0.9131(7) 0.0844(7) 1.3629(5)
H50 H 0.8868 0.0379 1.3575
C62 C 0.8809(6) 0.1185(5) 1.3415(5)
H51 H 0.8296 0.0956 1.3240
C63 C 0.8163(6) 0.4321(5) 1.3904(3)
C64 C 0.1230(4) 0.2528(3) 1.2575(3)
C65 C 0.1766(4) 0.2609(4) 1.3032(3)
H52 H 0.2177 0.2458 1.2899
H53 H 0.1981 0.3093 1.3279
H54 H 0.1482 0.2328 1.3212
C66 C 1.2334(5) 0.4862(4) 1.3616(3)
C67 C 0.5928(11) 0.3892(10) 1.3842(7)
H55 H 0.6333 0.4323 1.4018
C68 C 1.2066(4) 0.3818(4) 1.1609(3)
C69 C 1.2451(4) 0.4129(4) 1.1260(3)
C70 C 1.2889(5) 0.3793(5) 1.0930(4)
H56 H 1.2909 0.3382 1.0935
C71 C 1.3294(6) 0.4076(6) 1.0592(4)
H57 H 1.3578 0.3849 1.0370
C72 C 1.3273(7) 0.4672(5) 1.0588(4)
H58 H 1.3546 0.4857 1.0363
C73 C 1.2863(6) 0.5010(4) 1.0905(4)
H59 H 1.2868 0.5427 1.0895
C74 C 1.2427(4) 0.4758(4) 1.1252(3)
C75 C 0.9262(5) 0.4148(4) 1.4269(3)
C76 C 0.9648(5) 0.4083(4) 1.4684(3)
H60 H 1.0059 0.3928 1.4632
C77 C 0.9390(6) 0.4260(5) 1.5182(3)
H61 H 0.9645 0.4246 1.5471
C78 C 0.8777(7) 0.4448(5) 1.5232(3)
H62 H 0.8618 0.4574 1.5564
C79 C 0.8375(7) 0.4463(5) 1.4820(4)
H63 H 0.7928 0.4564 1.4867
C80 C 0.8629(5) 0.4328(5) 1.4324(3)
C81 C 0.1565(7) -0.4493(6) 0.9721(3)
C82 C 0.1288(5) -0.4842(4) 0.9112(3)
H64 H 0.1388 -0.4486 0.8975
H65 H 0.1561 -0.5143 0.8946
H66 H 0.0741 -0.5114 0.9036
C83 C -0.0112(4) -0.4120(3) 0.9271(3)
C84 C -0.0623(5) -0.4700(4) 0.9413(3)
H67 H -0.1088 -0.4972 0.9152
H68 H -0.0351 -0.4998 0.9420
H69 H -0.0756 -0.4501 0.9760
C85 C 0.7594(5) 0.3664(3) 1.1189(3)
C86 C 0.6767(5) 0.3498(4) 1.1229(3)
C87 C 0.6242(6) 0.3147(5) 1.0755(4)
H70 H 0.6419 0.3017 1.0430
C88 C 0.5435(5) 0.2983(6) 1.0761(5)
H71 H 0.5085 0.2754 1.0442
C89 C 0.5176(6) 0.3165(5) 1.1240(4)
H72 H 0.4648 0.3047 1.1252
C90 C 0.5708(5) 0.3522(4) 1.1700(4)
H73 H 0.5525 0.3658 1.2022
C91 C 0.6494(5) 0.3695(4) 1.1722(4)
C92 C 1.0021(4) 0.6055(3) 1.2070(3)
C93 C 0.9281(5) 0.6113(4) 1.2159(3)
C94 C 0.9128(6) 0.6619(5) 1.2053(4)
H74 H 0.9508 0.6917 1.1943
C95 C 0.8409(7) 0.6704(6) 1.2105(5)
H75 H 0.8322 0.7057 1.2037
C96 C 0.7855(6) 0.6269(6) 1.2255(5)
H76 H 0.7382 0.6325 1.2292
C97 C 0.7969(6) 0.5740(5) 1.2357(4)
H77 H 0.7572 0.5433 1.2448
C98 C 0.8708(5) 0.5669(4) 1.2319(3)
C99 C 1.0360(4) 0.2354(3) 1.0620(2)
C100 C 1.0756(6) 0.2078(6) 1.0140(3)
H78 H 1.1200 0.2010 1.0260
H79 H 1.0918 0.2412 0.9982
H80 H 1.0396 0.1639 0.9879
C101 C 0.7836(5) 0.1856(4) 1.0733(3)
C102 C 0.7208(7) 0.1273(7) 1.0252(5)
H81 H 0.7160 0.1449 0.9985
H82 H 0.7356 0.0874 1.0101
H83 H 0.6720 0.1137 1.0371
C103 C 1.2527(4) 0.5549(3) 1.3032(3)
C104 C 1.3033(4) 0.6049(4) 1.2881(3)
H84 H 1.2854 0.6145 1.2609
C105 C 1.3789(4) 0.6401(4) 1.3127(3)
H85 H 1.4119 0.6739 1.3026
C106 C 1.4068(5) 0.6254(5) 1.3529(4)
H86 H 1.4586 0.6490 1.3693
C107 C 1.3583(5) 0.5768(5) 1.3681(4)
H87 H 1.3778 0.5679 1.3952
C108 C 1.2800(4) 0.5395(4) 1.3446(3)
C117 C 0.5295(4) 0.0265(4) 1.4299(3)
C118 C 0.5197(5) 0.2742(4) 1.3781(4)
O1 O 0.2128(3) -0.0360(2) 1.30201(17)
O2 O 0.3121(3) -0.1083(2) 1.28931(17)
O3 O 0.3131(2) -0.0336(2) 1.21932(16)
O4 O 0.3708(2) 0.0372(2) 1.33794(16)
O5 O 0.4197(3) -0.1072(2) 1.35115(19)
O6 O 0.4321(3) 0.0620(2) 1.17263(19)
O7 O 0.3559(3) 0.1225(2) 1.2055(2)
O8 O 0.1491(3) 0.0133(2) 1.23780(18)
O9 O 0.1827(3) 0.1020(2) 1.21459(18)
O10 O 0.4433(3) -0.0808(2) 1.14743(19)
O11 O 0.3222(3) -0.1450(2) 1.10331(18)
O12 O 0.3829(3) -0.2566(2) 1.2441(2)
O13 O 0.4557(3) -0.0519(2) 1.27056(18)
O14 O 0.5686(3) 0.0623(2) 1.23214(18)
O15 O 0.4953(3) 0.0951(2) 1.29109(18)
O16 O 0.5096(3) 0.1069(2) 1.40605(19)
O17 O 0.5137(3) 0.2230(2) 1.3946(2)
O18 O 0.2991(3) 0.1061(2) 1.30702(17)
O19 O 0.3409(3) 0.1285(2) 1.41671(18)
O20 O 0.1092(3) 0.0201(3) 1.3489(2)
O21 O 0.1108(3) -0.1357(2) 1.3183(2)
O22 O 0.2576(3) -0.2420(2) 1.28421(19)
O23 O 0.1654(3) -0.1584(2) 1.21754(18)
O24 O 0.2826(3) -0.2124(2) 1.18480(17)
O25 O 0.1927(3) -0.2612(2) 1.11435(18)
O26 O 0.1695(3) -0.1232(2) 1.11436(19)
O27 O 0.2293(3) -0.0091(2) 1.13510(19)
O28 O 0.5971(3) -0.0504(2) 1.1473(2)
O29 O 0.5584(3) 0.0665(3) 1.1260(2)
O30 O 0.7141(3) 0.0472(2) 1.11013(19)
O31 O 0.7416(3) 0.0722(3) 1.2297(2)
O32 O 0.7972(3) 0.1720(2) 1.11112(18)
O33 O 0.7110(3) 0.1787(2) 1.20506(19)
O34 O 0.7554(3) 0.2846(2) 1.20835(19)
O35 O 0.8630(3) 0.1462(2) 1.19714(18)
O36 O 0.8691(3) 0.2868(2) 1.28323(19)
O37 O 0.7762(3) 0.4230(3) 1.3079(2)
O38 O 0.1354(3) 0.2299(2) 1.21019(17)
O39 O 0.0643(3) 0.2700(2) 1.26629(18)
O40 O 1.0698(3) 0.2423(2) 1.10624(17)
O41 O 0.9671(2) 0.1516(2) 1.15781(18)
O42 O 0.9450(2) 0.2962(2) 1.17861(16)
O43 O 1.1257(3) 0.3695(2) 1.22002(16)
O44 O 1.0387(3) 0.2896(3) 1.38033(18)
O45 O 1.0123(3) 0.3813(2) 1.29421(17)
O46 O 1.1294(3) 0.4031(2) 1.36802(18)
O47 O 0.9568(3) 0.4037(2) 1.38147(18)
O48 O 0.3043(3) 0.2251(2) 1.2132(2)
O49 O 0.2023(3) 0.2164(2) 1.11119(18)
O50 O 0.0711(3) 0.0904(2) 1.12300(18)
O51 O 0.2384(3) 0.0941(2) 1.10690(19)
O52 O 0.2207(3) -0.2686(2) 1.01416(18)
O53 O 0.0710(3) -0.2445(2) 1.04224(17)
O54 O 0.8182(3) 0.2446(2) 1.06942(18)
O55 O 0.9782(3) 0.2482(2) 1.05666(18)
O56 O 0.0536(3) -0.3678(2) 0.95502(18)
O57 O -0.0337(3) -0.4076(2) 0.88489(17)
O58 O 0.8878(3) 0.4047(2) 1.15260(17)
O59 O 0.6952(3) 0.4026(3) 1.2189(2)
O60 O 0.8801(3) 0.5163(2) 1.24518(18)
O61 O 1.0935(3) 0.5592(2) 1.19819(18)
O62 O 1.0398(2) 0.4478(2) 1.22521(16)
O63 O 1.2040(3) 0.5119(2) 1.15603(18)
O64 O 1.1793(3) 0.5218(2) 1.27871(18)
O65 O 0.8937(3) 0.4076(2) 1.25198(18)
O66 O 0.0011(3) -0.0762(3) 1.2650(2)
N1 N 0.1021(3) -0.1381(3) 1.2182(2)
N2 N 0.2004(4) -0.2171(3) 1.2997(2)
N3 N 0.1806(4) 0.0631(3) 1.3793(3)
N4 N 0.3729(3) 0.1543(3) 1.3277(2)
N5 N 0.4884(3) 0.0378(3) 1.3988(2)
N6 N 0.4397(3) -0.1226(3) 1.2481(2)
N7 N 0.9161(3) 0.2678(3) 1.3100(2)
N8 N 0.8308(4) 0.4212(3) 1.3421(3)
N9 N 1.1621(3) 0.4494(3) 1.3441(2)
N10 N 0.8116(3) 0.3865(3) 1.1592(2)
N11 N 1.0221(3) 0.5564(3) 1.2102(2)
N12 N 1.1553(3) 0.4018(3) 1.1862(2)
N13 N 0.1584(4) -0.4115(3) 1.0109(3)
Mn1 Mn 0.10770(6) -0.05367(6) 1.28284(5)
Mn2 Mn 0.21103(6) -0.12409(5) 1.30135(4)
Mn3 Mn 0.26975(6) 0.04378(5) 1.22165(4)
Mn4 Mn 0.43313(6) -0.00268(5) 1.21760(4)
Mn5 Mn 0.34431(7) -0.18568(5) 1.26356(4)
Mn6 Mn 0.24701(6) -0.13784(5) 1.16387(4)
Mn7 Mn 0.39790(6) -0.03487(5) 1.34188(4)
Mn8 Mn 0.27606(7) 0.04728(5) 1.35778(4)
Mn9 Mn 0.44579(6) 0.12907(5) 1.36483(4)
Mn10 Mn 0.64757(6) 0.06405(5) 1.17573(5)
Mn11 Mn 0.84299(6) 0.23471(5) 1.19647(4)
Mn12 Mn 0.79290(7) 0.40173(6) 1.23519(5)
Mn13 Mn 0.92272(6) 0.40232(5) 1.31550(4)
Mn14 Mn 0.18928(6) 0.16036(5) 1.16425(4)
Mn15 Mn 1.03774(6) 0.26299(5) 1.18303(4)
Mn16 Mn 1.02765(6) 0.33472(5) 1.33654(4)
Mn17 Mn 1.09614(6) 0.44794(5) 1.28485(4)
Mn18 Mn 0.11251(6) -0.32767(5) 1.03842(4)
Mn19 Mn 0.92921(6) 0.31919(5) 1.11109(4)
Mn20 Mn 1.11979(6) 0.47955(5) 1.18792(4)
Mn21 Mn 0.95892(6) 0.48027(5) 1.23226(4)
Br1 Br 0.28054(5) -0.04179(4) 1.41168(3)
Br2 Br 0.00381(5) -0.37347(4) 1.08711(3)
Br3 Br 1.02879(5) 0.54482(4) 1.34456(3)
H108 H 0.130(4) 0.119(5) 1.438(4)
H109 H 0.350(6) 0.224(5) 1.306(4)
H110 H 0.535(4) -0.104(4) 1.217(4)
H111 H 0.061(5) -0.211(4) 1.150(3)
H112 H 0.832(3) 0.180(4) 1.301(4)
H113 H 0.781(5) 0.456(5) 1.401(4)
H114 H 1.258(5) 0.483(5) 1.392(3)
H115 H 0.767(5) 0.362(5) 1.080(4)
H116 H 0.583(3) 0.065(4) 1.445(4)
O39_2 O 1.0643(3) 0.2700(2) 1.26629(18)
O57A O 1.0337(3) 0.4076(2) 1.11511(17)
Mn15_2 Mn 0.03774(6) 0.26299(5) 1.18303(4)
Mn16_2 Mn 0.02765(6) 0.33472(5) 1.33654(4)
Mn19A Mn 0.07079(6) -0.31919(5) 0.88891(4)
Mn20A Mn -0.11979(6) -0.47955(5) 0.81208(4)
Br4? Br 0.03345(10) 0.01506(10) 0.99359(7)
C119? C 0.8948(8) 0.0744(9) 0.9213(8)
H117? H 0.9250 0.1232 0.9422
H118? H 0.9233 0.0550 0.8949
H119? H 0.8843 0.0497 0.9443
loop_
_geom_bond_atom_site_label_1
_geom_bond_atom_site_label_2
_geom_bond_site_symmetry_1
_geom_bond_site_symmetry_2
C1 C2 1_555 1_555
C2 C3 1_555 1_555
C3 H1 1_555 1_555
C4 C3 1_555 1_555
H2 C4 1_555 1_555
C5 C4 1_555 1_555
H3 C5 1_555 1_555
C6 C5 1_555 1_555
H4 C6 1_555 1_555
C7 C2 1_555 1_555
C8 C9 1_555 1_555
C9 C10 1_555 1_555
C10 H5 1_555 1_555
C11 C10 1_555 1_555
H6 C11 1_555 1_555
C12 C11 1_555 1_555
H7 C12 1_555 1_555
C13 C12 1_555 1_555
H8 C13 1_555 1_555
C14 C9 1_555 1_555
C15 C16 1_555 1_555
C16 C17 1_555 1_555
C17 H9 1_555 1_555
C18 C17 1_555 1_555
H10 C18 1_555 1_555
C19 H11 1_555 1_555
C20 H12 1_555 1_555
C21 C22 1_555 1_555
C22 H13 1_555 1_555
C23 C22 1_555 1_555
H14 C23 1_555 1_555
C24 C23 1_555 1_555
H15 C24 1_555 1_555
C25 C24 1_555 1_555
H16 C25 1_555 1_555
C26 C21 1_555 1_555
C27 C28 1_555 1_555
C28 C19 1_555 1_555
C29 C28 1_555 1_555
C30 C19 1_555 1_555
H17 C30 1_555 1_555
C31 C30 1_555 1_555
H18 C31 1_555 1_555
C32 C29 1_555 1_555
H19 C32 1_555 1_555
C33 C34 1_555 1_555
C34 C35 1_555 1_555
C35 H20 1_555 1_555
C36 C35 1_555 1_555
H21 C36 1_555 1_555
C37 C36 1_555 1_555
H22 C37 1_555 1_555
C38 C37 1_555 1_555
H23 C38 1_555 1_555
C39 C34 1_555 1_555
C40 C41 1_555 1_555
C41 H24 1_555 1_555
H25 C41 1_555 1_555
H26 C41 1_555 1_555
C42 C43 1_555 1_555
C43 H27 1_555 1_555
H28 C43 1_555 1_555
H29 C43 1_555 1_555
C44 C45 1_555 1_555
C45 H30 1_555 1_555
H31 C45 1_555 1_555
H32 C45 1_555 1_555
C46 C47 1_555 1_555
C47 H33 1_555 1_555
H34 C47 1_555 1_555
H35 C47 1_555 1_555
C48 C49 1_555 1_555
C49 H36 1_555 1_555
H37 C49 1_555 1_555
H38 C49 1_555 1_555
C50 C51 1_555 1_555
C51 H39 1_555 1_555
H40 C51 1_555 1_555
H41 C51 1_555 1_555
C52 C53 1_555 1_555
C53 H42 1_555 1_555
H43 C53 1_555 1_555
H44 C53 1_555 1_555
C54 C55 1_555 1_555
C55 H45 1_555 1_555
H46 C55 1_555 1_555
H47 C55 1_555 1_555
C56 C57 1_555 1_555
C57 C58 1_555 1_555
C58 C59 1_555 1_555
C59 H48 1_555 1_555
C60 C59 1_555 1_555
H49 C60 1_555 1_555
C61 C60 1_555 1_555
H50 C61 1_555 1_555
C62 C57 1_555 1_555
H51 C62 1_555 1_555
C63 C80 1_555 1_555
C64 C65 1_555 1_555
C65 H52 1_555 1_555
H53 C65 1_555 1_555
H54 C65 1_555 1_555
C66 C108 1_555 1_555
C67 C18 1_555 1_555
H55 C67 1_555 1_555
C68 C69 1_555 1_555
C69 C70 1_555 1_555
C70 H56 1_555 1_555
C71 C70 1_555 1_555
H57 C71 1_555 1_555
C72 C71 1_555 1_555
H58 C72 1_555 1_555
C73 C72 1_555 1_555
H59 C73 1_555 1_555
C74 C69 1_555 1_555
C75 C76 1_555 1_555
C76 H60 1_555 1_555
C77 C76 1_555 1_555
H61 C77 1_555 1_555
C78 C77 1_555 1_555
H62 C78 1_555 1_555
C79 C78 1_555 1_555
H63 C79 1_555 1_555
C80 C75 1_555 1_555
C81 C82 1_555 1_555
C82 H64 1_555 1_555
H65 C82 1_555 1_555
H66 C82 1_555 1_555
C83 C84 1_555 1_555
C84 H67 1_555 1_555
H68 C84 1_555 1_555
H69 C84 1_555 1_555
C85 C86 1_555 1_555
C86 C87 1_555 1_555
C87 H70 1_555 1_555
C88 C87 1_555 1_555
H71 C88 1_555 1_555
C89 C88 1_555 1_555
H72 C89 1_555 1_555
C90 C89 1_555 1_555
H73 C90 1_555 1_555
C91 C86 1_555 1_555
C92 C93 1_555 1_555
C93 C94 1_555 1_555
C94 H74 1_555 1_555
C95 C94 1_555 1_555
H75 C95 1_555 1_555
C96 C95 1_555 1_555
H76 C96 1_555 1_555
C97 C96 1_555 1_555
H77 C97 1_555 1_555
C98 C93 1_555 1_555
C99 C100 1_555 1_555
C100 H78 1_555 1_555
H79 C100 1_555 1_555
H80 C100 1_555 1_555
C101 C102 1_555 1_555
C102 H81 1_555 1_555
H82 C102 1_555 1_555
H83 C102 1_555 1_555
C103 C104 1_555 1_555
C104 H84 1_555 1_555
C105 C104 1_555 1_555
H85 C105 1_555 1_555
C106 C105 1_555 1_555
H86 C106 1_555 1_555
C107 C106 1_555 1_555
H87 C107 1_555 1_555
C108 C103 1_555 1_555
C109 H88 1_555 1_555
H89 C109 1_555 1_555
C110 C109 1_555 1_555
H90 C110 1_555 1_555
H91 C110 1_555 1_555
H92 C110 1_555 1_555
C111 H93 1_555 1_555
H94 C111 1_555 1_555
C112 C111 1_555 1_555
H95 C112 1_555 1_555
H96 C112 1_555 1_555
H97 C112 1_555 1_555
C113 H98 1_555 1_555
H99 C113 1_555 1_555
C114 C113 1_555 1_555
H100 C114 1_555 1_555
H101 C114 1_555 1_555
H102 C114 1_555 1_555
C115 H103 1_555 1_555
H104 C115 1_555 1_555
C116 C115 1_555 1_555
H105 C116 1_555 1_555
H106 C116 1_555 1_555
H107 C116 1_555 1_555
C117 C21 1_555 1_555
C118 C16 1_555 1_555
O1 Mn1 1_555 1_555
O2 Mn2 1_555 1_555
O3 Mn3 1_555 1_555
O4 Mn7 1_555 1_555
O5 C26 1_555 1_555
O6 C44 1_555 1_555
O7 C44 1_555 1_555
O8 C42 1_555 1_555
O9 C42 1_555 1_555
O10 C40 1_555 1_555
O11 C40 1_555 1_555
O12 C29 1_555 1_555
O13 N6 1_555 1_555
O14 C50 1_555 1_555
O15 C50 1_555 1_555
O16 N5 1_555 1_555
O17 C118 1_555 1_555
O18 N4 1_555 1_555
O19 C14 1_555 1_555
O20 N3 1_555 1_555
O21 C7 1_555 1_555
O22 N2 1_555 1_555
O23 N1 1_555 1_555
O24 C46 1_555 1_555
O25 C46 1_555 1_555
O26 C48 1_555 1_555
O27 C48 1_555 1_555
O28 Mn10 1_555 1_555
O29 Mn10 1_555 1_555
O30 Mn10 1_555 1_555
O31 Mn10 1_555 1_555
O32 C101 1_555 1_555
O33 C52 1_555 1_555
O34 C52 1_555 1_555
O35 C54 1_555 1_555
O36 N7 1_555 1_555
O37 N8 1_555 1_555
O38 C64 1_555 1_555
O39 C64 1_555 1_555
O40 C99 1_555 1_555
O41 C54 1_555 1_555
O42 Mn11 1_555 1_555
O43 N12 1_555 1_555
O44 C58 1_555 1_555
O45 Mn13 1_555 1_555
O46 N9 1_555 1_555
O47 C75 1_555 1_555
O48 Mn14 1_555 1_555
O49 Mn14 1_555 1_555
O50 Mn14 1_555 1_555
O51 Mn14 1_555 1_555
O52 Mn18 1_555 1_555
O53 Mn18 1_555 1_555
O54 C101 1_555 1_555
O55 C99 1_555 1_555
O56 C83 1_555 1_555
O57 C83 1_555 1_555
O58 N10 1_555 1_555
O59 C91 1_555 1_555
O60 C98 1_555 1_555
O61 N11 1_555 1_555
O62 Mn17 1_555 1_555
O63 C74 1_555 1_555
O64 C103 1_555 1_555
O65 Mn12 1_555 1_555
O66 C39 1_555 1_555
N1 C33 1_555 1_555
N2 C1 1_555 1_555
N3 C8 1_555 1_555
N4 C15 1_555 1_555
N5 C117 1_555 1_555
N6 C27 1_555 1_555
N7 C56 1_555 1_555
N8 C63 1_555 1_555
N9 C66 1_555 1_555
N10 C85 1_555 1_555
N11 C92 1_555 1_555
N12 C68 1_555 1_555
N13 C81 1_555 1_555
N14 C109 1_555 1_555
Mn1 O8 1_555 1_555
Mn2 O1 1_555 1_555
Mn3 O7 1_555 1_555
Mn4 O3 1_555 1_555
Mn5 O2 1_555 1_555
Mn6 O3 1_555 1_555
Mn7 O2 1_555 1_555
Mn8 O1 1_555 1_555
Mn9 O4 1_555 1_555
Mn10 O14 1_555 1_555
Mn11 O32 1_555 1_555
Mn12 O34 1_555 1_555
Mn13 O36 1_555 1_555
Mn14 O9 1_555 1_555
Mn15 O40 1_555 1_555
Mn16 O44 1_555 1_555
Mn17 O43 1_555 1_555
Mn18 O25 1_555 1_555
Mn19 O42 1_555 1_555
Mn20 O61 1_555 1_555
Mn21 O58 1_555 1_555
Br1 Mn2 1_555 1_555
Br2 Mn18 1_555 1_555
Br3 Mn17 1_555 1_555
H108 C8 1_555 1_555
H109 C15 1_555 1_555
H110 C27 1_555 1_555
H111 C33 1_555 1_555
H112 C56 1_555 1_555
H113 C63 1_555 1_555
H114 C66 1_555 1_555
H115 C85 1_555 1_555
H116 C117 1_555 1_555
O39_2 Mn15 1_555 1_555
O57A Mn19 1_555 1_555
Mn15_2 O39 1_555 1_555
Mn16_2 O39 1_555 1_555
Mn19A O57 1_555 1_555
Mn20A O57 1_555 1_555
C6 C7 1_555 1_555
C13 C14 1_555 1_555
C20 C67 1_555 1_555
C20 C118 1_555 1_555
C25 C26 1_555 1_555
C31 C32 1_555 1_555
C38 C39 1_555 1_555
C61 C62 1_555 1_555
C73 C74 1_555 1_555
C79 C80 1_555 1_555
C90 C91 1_555 1_555
C97 C98 1_555 1_555
C107 C108 1_555 1_555
C111 N14 1_555 1_555
C113 N14 1_555 1_555
C115 N14 1_555 1_555
O4 Mn8 1_555 1_555
O5 Mn7 1_555 1_555
O6 Mn4 1_555 1_555
O8 Mn3 1_555 1_555
O10 Mn4 1_555 1_555
O11 Mn6 1_555 1_555
O12 Mn5 1_555 1_555
O13 Mn4 1_555 1_555
O13 Mn7 1_555 1_555
O15 Mn4 1_555 1_555
O15 Mn9 1_555 1_555
O16 Mn9 1_555 1_555
O17 Mn9 1_555 1_555
O18 Mn3 1_555 1_555
O18 Mn8 1_555 1_555
O19 Mn8 1_555 1_555
O20 Mn1 1_555 1_555
O21 Mn2 1_555 1_555
O22 Mn5 1_555 1_555
O23 Mn2 1_555 1_555
O23 Mn6 1_555 1_555
O24 Mn5 1_555 1_555
O24 Mn6 1_555 1_555
O26 Mn6 1_555 1_555
O27 Mn3 1_555 1_555
O33 Mn10 1_555 1_555
O34 Mn11 1_555 1_555
O35 Mn11 1_555 1_555
O36 Mn11 1_555 1_555
O37 Mn12 1_555 1_555
O38 Mn14 1_555 1_555
O41 Mn15 1_555 1_555
O42 Mn15 1_555 1_555
O43 Mn15 1_555 1_555
O45 Mn16 1_555 1_555
O45 Mn17 1_555 1_555
O46 Mn16 1_555 1_555
O47 Mn13 1_555 1_555
O54 Mn19 1_555 1_555
O55 Mn19 1_555 1_555
O56 Mn18 1_555 1_555
O58 Mn19 1_555 1_555
O59 Mn12 1_555 1_555
O60 Mn21 1_555 1_555
O62 Mn20 1_555 1_555
O62 Mn21 1_555 1_555
O63 Mn20 1_555 1_555
O64 Mn17 1_555 1_555
O65 Mn13 1_555 1_555
O65 Mn21 1_555 1_555
O66 Mn1 1_555 1_555
N1 Mn1 1_555 1_555
N2 Mn2 1_555 1_555
N3 Mn8 1_555 1_555
N4 Mn9 1_555 1_555
N5 Mn7 1_555 1_555
N6 Mn5 1_555 1_555
N7 Mn16 1_555 1_555
N8 Mn13 1_555 1_555
N9 Mn17 1_555 1_555
N10 Mn12 1_555 1_555
N11 Mn21 1_555 1_555
N12 Mn20 1_555 1_555
N13 Mn18 1_555 1_555
Mn16 O39_2 1_555 1_555
Mn20 O57A 1_555 1_555

#END
