
#######################################################################
#
#                 Cambridge Crystallographic Data Centre
#                                CCDC 
#
#######################################################################
#
# If this CIF has been generated from an entry in the Cambridge 
# Structural Database, then it will include bibliographic, chemical, 
# crystal, experimental, refinement or atomic coordinate data resulting 
# from the CCDC's data processing and validation procedures.
#
#######################################################################

data_TEQMUY
_symmetry_cell_setting           triclinic
_symmetry_space_group_name_H-M   'P -1'
_symmetry_Int_Tables_number      2
_space_group_name_Hall           '-P 1'
loop_
_symmetry_equiv_pos_site_id
_symmetry_equiv_pos_as_xyz
1 x,y,z
2 -x,-y,-z
_cell_length_a                   8.0083(12)
_cell_length_b                   12.3677(14)
_cell_length_c                   13.1673(19)
_cell_angle_alpha                63.661(14)
_cell_angle_beta                 88.820(13)
_cell_angle_gamma                77.488(11)
_cell_volume                     1136.74
loop_
_atom_site_label
_atom_site_type_symbol
_atom_site_fract_x
_atom_site_fract_y
_atom_site_fract_z
Cu1 Cu 0.01901(3) 0.38972(2) -0.039281(19)
O1 O 0.16054(16) 0.27562(12) 0.10795(11)
N1 N 0.20817(19) 0.31998(15) -0.11887(14)
C1 C 0.3998(2) 0.1323(2) 0.28984(18)
H1 H 0.4132 0.1158 0.2235
H2 H 0.4477 0.0560 0.3588
H3 H 0.4605 0.1962 0.2814
N2 N 0.2175(2) 0.17541(15) 0.29839(13)
C2 C 0.1131(2) 0.24497(17) 0.20627(16)
H4 H -0.0041 0.2735 0.2144
C3 C 0.1584(3) 0.1403(2) 0.41221(17)
H5 H 0.0342 0.1736 0.4059
H6 H 0.2173 0.1741 0.4519
H7 H 0.1840 0.0497 0.4551
C4 C 0.3655(3) 0.2648(2) -0.06400(19)
H8 H 0.3877 0.2677 0.0052
C5 C 0.1811(2) 0.31912(17) -0.21978(16)
C6 C 0.4663(3) 0.1991(2) -0.2028(2)
H9 H 0.5528 0.1554 -0.2302
C7 C 0.3085(3) 0.2586(2) -0.26219(18)
H10 H 0.2861 0.2585 -0.3327
C8 C 0.0121(3) 0.3878(2) -0.28805(17)
H11 H -0.0721 0.3357 -0.2573
H12 H 0.0253 0.4015 -0.3675
C9 C 0.4967(3) 0.2040(3) -0.1028(2)
H13 H 0.6061 0.1662 -0.0611
O2 O -0.1207(2) 0.20906(15) -0.00255(14)
N3 N -0.0813(2) 0.05159(17) 0.17672(15)
C10 C -0.1321(3) 0.0036(2) 0.2929(2)
H14 H -0.2115 0.0701 0.3025
H15 H -0.0300 -0.0276 0.3464
H16 H -0.1888 -0.0641 0.3076
C11 C 0.0596(4) -0.0265(3) 0.1522(2)
H17 H 0.0167 -0.0872 0.1378
H18 H 0.1463 -0.0700 0.2174
H19 H 0.1113 0.0249 0.0849
C12 C -0.1567(3) 0.1626(2) 0.0966(2)
H20 H -0.2469 0.2107 0.1175
O3 O -0.14664(15) 0.44598(12) 0.04564(10)
N4 N -0.13279(19) 0.49153(14) -0.18019(12)
C13 C -0.3164(2) 0.47048(16) 0.02228(15)
C14 C -0.0589(2) 0.51259(19) -0.28826(16)
H21 H 0.0341 0.5567 -0.2979
H22 H -0.1483 0.5645 -0.3523
C15 C -0.3947(2) 0.51308(16) -0.08797(15)
C16 C -0.2966(2) 0.52901(17) -0.18504(15)
H23 H -0.3579 0.5704 -0.2581
C17 C -0.5743(2) 0.54310(16) -0.10892(15)
H24 H -0.6228 0.5736 -0.1845
Cu1A Cu -1.01901(3) 0.61028(2) 0.039281(19)
Cu1A_2 Cu -0.01901(3) 0.61028(2) 0.039281(19)
Cu1_2 Cu -0.98099(3) 0.38972(2) -0.039281(19)
O1A O -1.16054(16) 0.72438(12) -0.10795(11)
N1A N -1.20817(19) 0.68002(15) 0.11887(14)
C1A C -1.3998(2) 0.8677(2) -0.28984(18)
H1A H -1.4132 0.8842 -0.2235
H2A H -1.4477 0.9440 -0.3588
H3A H -1.4605 0.8038 -0.2814
N2A N -1.2175(2) 0.82459(15) -0.29839(13)
C2A C -1.1131(2) 0.75503(17) -0.20627(16)
H4A H -0.9959 0.7265 -0.2144
C3A C -1.1584(3) 0.8597(2) -0.41221(17)
H5A H -1.0342 0.8264 -0.4059
H6A H -1.2173 0.8259 -0.4519
H7A H -1.1840 0.9503 -0.4551
C4A C -1.3655(3) 0.7352(2) 0.06400(19)
H8A H -1.3877 0.7323 -0.0052
C5A C -1.1811(2) 0.68088(17) 0.21978(16)
C6A C -1.4663(3) 0.8009(2) 0.2028(2)
H9A H -1.5528 0.8446 0.2302
C7A C -1.3085(3) 0.7414(2) 0.26219(18)
H10A H -1.2861 0.7415 0.3327
C8A C -1.0121(3) 0.6122(2) 0.28805(17)
H11A H -0.9279 0.6643 0.2573
H12A H -1.0253 0.5985 0.3675
C9A C -1.4967(3) 0.7960(3) 0.1028(2)
H13A H -1.6061 0.8338 0.0611
O2A O -0.8793(2) 0.79094(15) 0.00255(14)
N3A N -0.9187(2) 0.94841(17) -0.17672(15)
C10A C -0.8679(3) 0.9964(2) -0.2929(2)
H14A H -0.7885 0.9299 -0.3025
H15A H -0.9700 1.0276 -0.3464
H16A H -0.8112 1.0641 -0.3076
C11A C -1.0596(4) 1.0265(3) -0.1522(2)
H17A H -1.0167 1.0872 -0.1378
H18A H -1.1463 1.0700 -0.2174
H19A H -1.1113 0.9751 -0.0849
C12A C -0.8433(3) 0.8374(2) -0.0966(2)
H20A H -0.7531 0.7893 -0.1175
O3A O -0.85336(15) 0.55402(12) -0.04564(10)
O3A_2 O 0.14664(15) 0.55402(12) -0.04564(10)
O3_2 O -1.14664(15) 0.44598(12) 0.04564(10)
N4A N -0.86721(19) 0.50847(14) 0.18019(12)
C13A C -0.6836(2) 0.52952(16) -0.02228(15)
C14A C -0.9411(2) 0.48741(19) 0.28826(16)
H21A H -1.0341 0.4433 0.2979
H22A H -0.8517 0.4355 0.3523
C15A C -0.6053(2) 0.48692(16) 0.08797(15)
C16A C -0.7034(2) 0.47099(17) 0.18504(15)
H23A H -0.6421 0.4296 0.2581
C17A C -0.4257(2) 0.45690(16) 0.10892(15)
H24A H -0.3772 0.4264 0.1845
S1 S -0.62913(6) 0.76292(5) -0.48813(4)
F1 F -0.6540(2) 0.61820(15) -0.58118(14)
F2 F -0.6661(2) 0.53572(14) -0.39947(15)
O4 O -0.7066(2) 0.77241(17) -0.39204(14)
F3 F -0.88287(18) 0.67153(17) -0.50938(14)
O5 O -0.44635(19) 0.71593(17) -0.47216(14)
O6 O -0.6925(2) 0.86622(15) -0.59618(15)
C18 C -0.7103(3) 0.6406(2) -0.4954(2)
loop_
_geom_bond_atom_site_label_1
_geom_bond_atom_site_label_2
_geom_bond_site_symmetry_1
_geom_bond_site_symmetry_2
Cu1 O1 1_555 1_555
O1 C2 1_555 1_555
N1 Cu1 1_555 1_555
C1 H1 1_555 1_555
H2 C1 1_555 1_555
H3 C1 1_555 1_555
N2 C1 1_555 1_555
C2 N2 1_555 1_555
H4 C2 1_555 1_555
C3 N2 1_555 1_555
H5 C3 1_555 1_555
H6 C3 1_555 1_555
H7 C3 1_555 1_555
C4 N1 1_555 1_555
H8 C4 1_555 1_555
C5 N1 1_555 1_555
C6 H9 1_555 1_555
C7 C5 1_555 1_555
H10 C7 1_555 1_555
C8 C5 1_555 1_555
H11 C8 1_555 1_555
H12 C8 1_555 1_555
C9 C4 1_555 1_555
H13 C9 1_555 1_555
O2 Cu1 1_555 1_555
N3 C10 1_555 1_555
C10 H14 1_555 1_555
H15 C10 1_555 1_555
H16 C10 1_555 1_555
C11 N3 1_555 1_555
H17 C11 1_555 1_555
H18 C11 1_555 1_555
H19 C11 1_555 1_555
C12 O2 1_555 1_555
H20 C12 1_555 1_555
O3 Cu1 1_555 1_555
N4 Cu1 1_555 1_555
C13 O3 1_555 1_555
C14 C8 1_555 1_555
H21 C14 1_555 1_555
H22 C14 1_555 1_555
C15 C13 1_555 1_555
C16 N4 1_555 1_555
H23 C16 1_555 1_555
C17 C15 1_555 1_555
H24 C17 1_555 1_555
S1 O4 1_555 1_555
F1 C18 1_555 1_555
F2 C18 1_555 1_555
F3 C18 1_555 1_555
O5 S1 1_555 1_555
O6 S1 1_555 1_555
C18 S1 1_555 1_555
Cu1A O1A 1_555 1_555
Cu1A_2 O3 1_555 1_555
Cu1_2 O3A 1_555 1_555
O1A C2A 1_555 1_555
N1A Cu1A 1_555 1_555
C1A H1A 1_555 1_555
H2A C1A 1_555 1_555
H3A C1A 1_555 1_555
N2A C1A 1_555 1_555
C2A N2A 1_555 1_555
H4A C2A 1_555 1_555
C3A N2A 1_555 1_555
H5A C3A 1_555 1_555
H6A C3A 1_555 1_555
H7A C3A 1_555 1_555
C4A N1A 1_555 1_555
H8A C4A 1_555 1_555
C5A N1A 1_555 1_555
C6A H9A 1_555 1_555
C7A C5A 1_555 1_555
H10A C7A 1_555 1_555
C8A C5A 1_555 1_555
H11A C8A 1_555 1_555
H12A C8A 1_555 1_555
C9A C4A 1_555 1_555
H13A C9A 1_555 1_555
O2A Cu1A 1_555 1_555
N3A C10A 1_555 1_555
C10A H14A 1_555 1_555
H15A C10A 1_555 1_555
H16A C10A 1_555 1_555
C11A N3A 1_555 1_555
H17A C11A 1_555 1_555
H18A C11A 1_555 1_555
H19A C11A 1_555 1_555
C12A O2A 1_555 1_555
H20A C12A 1_555 1_555
O3A Cu1A 1_555 1_555
O3A_2 Cu1 1_555 1_555
O3_2 Cu1A 1_555 1_555
N4A Cu1A 1_555 1_555
C13A C17 1_555 1_555
C14A C8A 1_555 1_555
H21A C14A 1_555 1_555
H22A C14A 1_555 1_555
C15A C13A 1_555 1_555
C16A N4A 1_555 1_555
H23A C16A 1_555 1_555
C17A C13 1_555 1_555
H24A C17A 1_555 1_555
C6 C7 1_555 1_555
C6 C9 1_555 1_555
N3 C12 1_555 1_555
N4 C14 1_555 1_555
C15 C16 1_555 1_555
Cu1A_2 O3A_2 1_555 1_555
Cu1_2 O3_2 1_555 1_555
C6A C7A 1_555 1_555
C6A C9A 1_555 1_555
N3A C12A 1_555 1_555
O3A C13A 1_555 1_555
N4A C14A 1_555 1_555
C15A C16A 1_555 1_555
C15A C17A 1_555 1_555

#END
