
#######################################################################
#
#                 Cambridge Crystallographic Data Centre
#                                CCDC 
#
#######################################################################
#
# If this CIF has been generated from an entry in the Cambridge 
# Structural Database, then it will include bibliographic, chemical, 
# crystal, experimental, refinement or atomic coordinate data resulting 
# from the CCDC's data processing and validation procedures.
#
#######################################################################

data_TEQNUZ
_symmetry_cell_setting           orthorhombic
_symmetry_space_group_name_H-M   'P c a 21'
_symmetry_Int_Tables_number      29
_space_group_name_Hall           'P 2c -2ac'
loop_
_symmetry_equiv_pos_site_id
_symmetry_equiv_pos_as_xyz
1 x,y,z
2 -x,-y,1/2+z
3 1/2+x,-y,z
4 1/2-x,y,1/2+z
_cell_length_a                   13.4877(10)
_cell_length_b                   6.9699(5)
_cell_length_c                   9.4739(7)
_cell_angle_alpha                90
_cell_angle_beta                 90
_cell_angle_gamma                90
_cell_volume                     890.622
loop_
_atom_site_label
_atom_site_type_symbol
_atom_site_fract_x
_atom_site_fract_y
_atom_site_fract_z
U1 U 1.079619(12) 0.46240(3) -0.01857(7)
O1 O 1.0838(4) 0.6274(10) 0.1221(6)
O2 O 1.0793(4) 0.2950(9) -0.1559(5)
O3 O 0.9848(4) 0.2424(7) 0.1139(5)
O4 O 0.9085(5) 0.2903(12) 0.3162(8)
O5 O 0.7517(3) -0.5216(7) -0.0563(6)
O6 O 0.9107(3) -0.4457(7) -0.0577(4)
N1 N 0.7045(4) -0.2192(9) 0.1002(6)
C1 C 0.6809(5) -0.0734(12) 0.1790(8)
H1 H 0.6159 -0.0634 0.2109
C2 C 0.7490(11) 0.0700(9) 0.2182(17)
H2 H 0.7306 0.1681 0.2794
C3 C 0.8426(4) 0.0615(10) 0.1642(7)
C4 C 0.8684(5) -0.0906(10) 0.0792(6)
H3 H 0.9319 -0.0993 0.0417
C5 C 0.7980(5) -0.2310(11) 0.0503(6)
C6 C 0.9181(5) 0.2104(10) 0.2017(8)
C7 C 0.8228(4) -0.4101(9) -0.0260(16)
U1A U 0.920381(12) 0.53760(3) 0.48143(7)
U1B U 0.579619(12) -0.46240(3) -0.01857(7)
U1_2 U 1.079619(12) -0.53760(3) -0.01857(7)
O4A O 1.0915(5) 0.7097(12) -0.1838(8)
O5B O 1.2517(3) 0.5216(7) -0.0563(6)
O6_2 O 0.9107(3) 0.5543(7) -0.0577(4)
N1B N 1.2045(4) 0.2192(9) 0.1002(6)
loop_
_geom_bond_atom_site_label_1
_geom_bond_atom_site_label_2
_geom_bond_site_symmetry_1
_geom_bond_site_symmetry_2
U1 O1 1_555 1_555
O2 U1 1_555 1_555
O3 U1 1_555 1_555
O4 C6 1_555 1_555
O5 C7 1_555 1_555
O6 C7 1_555 1_555
N1 C1 1_555 1_555
C1 H1 1_555 1_555
C2 C1 1_555 1_555
H2 C2 1_555 1_555
C3 C2 1_555 1_555
C4 C3 1_555 1_555
H3 C4 1_555 1_555
C5 N1 1_555 1_555
C6 O3 1_555 1_555
C7 C5 1_555 1_555
U1A O4 1_555 1_555
U1B O5 1_555 1_555
U1_2 O6 1_555 1_555
O4A U1 1_555 1_555
O5B U1 1_555 1_555
O6_2 U1 1_555 1_555
N1B U1 1_555 1_555
N1 U1B 1_555 1_555
C3 C6 1_555 1_555
C4 C5 1_555 1_555

#END
