
#######################################################################
#
#                 Cambridge Crystallographic Data Centre
#                                CCDC 
#
#######################################################################
#
# If this CIF has been generated from an entry in the Cambridge 
# Structural Database, then it will include bibliographic, chemical, 
# crystal, experimental, refinement or atomic coordinate data resulting 
# from the CCDC's data processing and validation procedures.
#
#######################################################################

data_TEQNAF
_symmetry_cell_setting           triclinic
_symmetry_space_group_name_H-M   'P -1'
_symmetry_Int_Tables_number      2
_space_group_name_Hall           '-P 1'
loop_
_symmetry_equiv_pos_site_id
_symmetry_equiv_pos_as_xyz
1 x,y,z
2 -x,-y,-z
_cell_length_a                   7.8730(9)
_cell_length_b                   11.3337(17)
_cell_length_c                   12.3291(15)
_cell_angle_alpha                110.619(5)
_cell_angle_beta                 96.191(6)
_cell_angle_gamma                96.164(5)
_cell_volume                     1011.09
loop_
_atom_site_label
_atom_site_type_symbol
_atom_site_fract_x
_atom_site_fract_y
_atom_site_fract_z
Cu1 Cu -0.00114(9) 0.12294(8) -0.04902(7)
O1 O -0.1430(4) 0.0630(3) 0.0442(3)
O2 O 0.1642(4) 0.2227(4) 0.0998(3)
N1 N -0.1753(6) 0.0437(4) -0.1915(4)
N2 N 0.1791(6) 0.1842(4) -0.1381(4)
N3 N 0.2462(6) 0.3096(5) 0.2957(4)
C1 C 0.4479(8) 0.2565(6) -0.2418(6)
H1 H 0.5407 0.2805 -0.2768
C2 C -0.3330(7) 0.0004(5) -0.1917(5)
H2 H -0.4060 -0.0342 -0.2657
N4 N -0.0881(6) 0.4652(5) 0.1896(4)
C3 C -0.4111(7) -0.0013(5) -0.0914(5)
O3 O -0.1460(5) 0.3205(4) 0.0015(4)
C4 C -0.3173(7) 0.0359(5) 0.0214(5)
C5 C 0.3017(8) 0.2848(6) -0.0777(6)
H3 H 0.2958 0.3320 0.0021
C6 C 0.1333(7) 0.2463(6) 0.2017(5)
H4 H 0.0207 0.2165 0.2116
C7 C -0.4090(7) 0.0365(5) 0.1112(5)
H5 H -0.3481 0.0616 0.1886
C8 C -0.1314(7) 0.0412(6) -0.3054(5)
H6 H -0.1377 0.1258 -0.3108
H7 H -0.2172 -0.0226 -0.3694
C9 C 0.1870(7) 0.1196(5) -0.2518(5)
C10 C 0.3211(7) 0.1544(6) -0.3047(5)
H8 H 0.3251 0.1072 -0.3849
C11 C 0.2098(8) 0.3345(6) 0.4152(5)
H9 H 0.0924 0.2934 0.4119
H10 H 0.2196 0.4268 0.4573
H11 H 0.2931 0.3001 0.4562
C12 C 0.4203(7) 0.3595(6) 0.2858(5)
H12 H 0.4380 0.3247 0.2037
H13 H 0.5056 0.3346 0.3342
H14 H 0.4342 0.4528 0.3127
C13 C 0.0481(7) 0.0083(6) -0.3215(5)
H15 H 0.0643 -0.0643 -0.2965
H16 H 0.0592 -0.0186 -0.4057
C14 C -0.1345(8) 0.5082(7) 0.3060(6)
H17 H -0.1810 0.5883 0.3211
H18 H -0.0317 0.5220 0.3640
H19 H -0.2223 0.4433 0.3117
C15 C -0.1763(8) 0.3619(6) 0.1031(6)
H20 H -0.2705 0.3164 0.1213
C16 C 0.0617(8) 0.5381(6) 0.1700(6)
H21 H 0.1063 0.4844 0.1012
H22 H 0.1519 0.5656 0.2391
H23 H 0.0277 0.6131 0.1567
C17 C 0.4357(8) 0.3220(6) -0.1275(6)
H24 H 0.5202 0.3938 -0.0818
Cu1A Cu -0.99886(9) -0.12294(8) 0.04902(7)
Cu1A_2 Cu 0.00114(9) -0.12294(8) 0.04902(7)
Cu1_2 Cu -1.00114(9) 0.12294(8) -0.04902(7)
O1A O -0.8570(4) -0.0630(3) -0.0442(3)
O1A_2 O 0.1430(4) -0.0630(3) -0.0442(3)
O1_2 O -1.1430(4) 0.0630(3) 0.0442(3)
O2A O -1.1642(4) -0.2227(4) -0.0998(3)
N1A N -0.8247(6) -0.0437(4) 0.1915(4)
N2A N -1.1791(6) -0.1842(4) 0.1381(4)
N3A N -1.2462(6) -0.3096(5) -0.2957(4)
C1A C -1.4479(8) -0.2565(6) 0.2418(6)
H1A H -1.5407 -0.2805 0.2768
C2A C -0.6670(7) -0.0004(5) 0.1917(5)
H2A H -0.5940 0.0342 0.2657
N4A N -0.9119(6) -0.4652(5) -0.1896(4)
C3A C -0.5889(7) 0.0013(5) 0.0914(5)
O3A O -0.8540(5) -0.3205(4) -0.0015(4)
C4A C -0.6827(7) -0.0359(5) -0.0214(5)
C5A C -1.3017(8) -0.2848(6) 0.0777(6)
H3A H -1.2958 -0.3320 -0.0021
C6A C -1.1333(7) -0.2463(6) -0.2017(5)
H4A H -1.0207 -0.2165 -0.2116
C7A C -0.5910(7) -0.0365(5) -0.1112(5)
H5A H -0.6519 -0.0616 -0.1886
C8A C -0.8686(7) -0.0412(6) 0.3054(5)
H6A H -0.8623 -0.1258 0.3108
H7A H -0.7828 0.0226 0.3694
C9A C -1.1870(7) -0.1196(5) 0.2518(5)
C10A C -1.3211(7) -0.1544(6) 0.3047(5)
H8A H -1.3251 -0.1072 0.3849
C11A C -1.2098(8) -0.3345(6) -0.4152(5)
H9A H -1.0924 -0.2934 -0.4119
H10A H -1.2196 -0.4268 -0.4573
H11A H -1.2931 -0.3001 -0.4562
C12A C -1.4203(7) -0.3595(6) -0.2858(5)
H12A H -1.4380 -0.3247 -0.2037
H13A H -1.5056 -0.3346 -0.3342
H14A H -1.4342 -0.4528 -0.3127
C13A C -1.0481(7) -0.0083(6) 0.3215(5)
H15A H -1.0643 0.0643 0.2965
H16A H -1.0592 0.0186 0.4057
C14A C -0.8655(8) -0.5082(7) -0.3060(6)
H17A H -0.8190 -0.5883 -0.3211
H18A H -0.9683 -0.5220 -0.3640
H19A H -0.7777 -0.4433 -0.3117
C15A C -0.8237(8) -0.3619(6) -0.1031(6)
H20A H -0.7295 -0.3164 -0.1213
C16A C -1.0617(8) -0.5381(6) -0.1700(6)
H21A H -1.1063 -0.4844 -0.1012
H22A H -1.1519 -0.5656 -0.2391
H23A H -1.0277 -0.6131 -0.1567
C17A C -1.4357(8) -0.3220(6) 0.1275(6)
H24A H -1.5202 -0.3938 0.0818
F1 F -0.2418(5) -0.7452(4) 0.3872(3)
F2 F -0.1425(5) -0.7743(4) 0.5527(3)
B1 B -0.2858(11) -0.7542(8) 0.4907(7)
F3 F -0.3383(5) -0.6410(4) 0.5559(3)
F4 F -0.4178(6) -0.8525(4) 0.4637(4)
loop_
_geom_bond_atom_site_label_1
_geom_bond_atom_site_label_2
_geom_bond_site_symmetry_1
_geom_bond_site_symmetry_2
Cu1 O1 1_555 1_555
O1 C4 1_555 1_555
O2 Cu1 1_555 1_555
N1 Cu1 1_555 1_555
N2 Cu1 1_555 1_555
N3 C6 1_555 1_555
C1 H1 1_555 1_555
C2 N1 1_555 1_555
H2 C2 1_555 1_555
N4 C14 1_555 1_555
C3 C2 1_555 1_555
O3 Cu1 1_555 1_555
C4 C3 1_555 1_555
C5 N2 1_555 1_555
H3 C5 1_555 1_555
C6 O2 1_555 1_555
H4 C6 1_555 1_555
C7 C4 1_555 1_555
H5 C7 1_555 1_555
C8 N1 1_555 1_555
H6 C8 1_555 1_555
H7 C8 1_555 1_555
C9 N2 1_555 1_555
C10 C1 1_555 1_555
H8 C10 1_555 1_555
C11 N3 1_555 1_555
H9 C11 1_555 1_555
H10 C11 1_555 1_555
H11 C11 1_555 1_555
C12 N3 1_555 1_555
H12 C12 1_555 1_555
H13 C12 1_555 1_555
H14 C12 1_555 1_555
C13 C8 1_555 1_555
H15 C13 1_555 1_555
H16 C13 1_555 1_555
C14 H17 1_555 1_555
H18 C14 1_555 1_555
H19 C14 1_555 1_555
C15 N4 1_555 1_555
H20 C15 1_555 1_555
C16 N4 1_555 1_555
H21 C16 1_555 1_555
H22 C16 1_555 1_555
H23 C16 1_555 1_555
C17 C1 1_555 1_555
H24 C17 1_555 1_555
F1 B1 1_555 1_555
F2 B1 1_555 1_555
B1 F3 1_555 1_555
F4 B1 1_555 1_555
Cu1A O1A 1_555 1_555
Cu1A_2 O1 1_555 1_555
Cu1_2 O1A 1_555 1_555
O1A C4A 1_555 1_555
O1A_2 Cu1 1_555 1_555
O1_2 Cu1A 1_555 1_555
O2A Cu1A 1_555 1_555
N1A Cu1A 1_555 1_555
N2A Cu1A 1_555 1_555
N3A C6A 1_555 1_555
C1A H1A 1_555 1_555
C2A N1A 1_555 1_555
H2A C2A 1_555 1_555
N4A C14A 1_555 1_555
C3A C7 1_555 1_555
O3A Cu1A 1_555 1_555
C4A C3A 1_555 1_555
C5A N2A 1_555 1_555
H3A C5A 1_555 1_555
C6A O2A 1_555 1_555
H4A C6A 1_555 1_555
C7A C3 1_555 1_555
H5A C7A 1_555 1_555
C8A N1A 1_555 1_555
H6A C8A 1_555 1_555
H7A C8A 1_555 1_555
C9A N2A 1_555 1_555
C10A C1A 1_555 1_555
H8A C10A 1_555 1_555
C11A N3A 1_555 1_555
H9A C11A 1_555 1_555
H10A C11A 1_555 1_555
H11A C11A 1_555 1_555
C12A N3A 1_555 1_555
H12A C12A 1_555 1_555
H13A C12A 1_555 1_555
H14A C12A 1_555 1_555
C13A C8A 1_555 1_555
H15A C13A 1_555 1_555
H16A C13A 1_555 1_555
C14A H17A 1_555 1_555
H18A C14A 1_555 1_555
H19A C14A 1_555 1_555
C15A N4A 1_555 1_555
H20A C15A 1_555 1_555
C16A N4A 1_555 1_555
H21A C16A 1_555 1_555
H22A C16A 1_555 1_555
H23A C16A 1_555 1_555
C17A C1A 1_555 1_555
H24A C17A 1_555 1_555
O3 C15 1_555 1_555
C5 C17 1_555 1_555
C9 C10 1_555 1_555
C9 C13 1_555 1_555
Cu1A_2 O1A_2 1_555 1_555
Cu1_2 O1_2 1_555 1_555
C2A C3A 1_555 1_555
O3A C15A 1_555 1_555
C4A C7A 1_555 1_555
C5A C17A 1_555 1_555
C9A C10A 1_555 1_555
C9A C13A 1_555 1_555

#END
