
#######################################################################
#
#                 Cambridge Crystallographic Data Centre
#                                CCDC 
#
#######################################################################
#
# If this CIF has been generated from an entry in the Cambridge 
# Structural Database, then it will include bibliographic, chemical, 
# crystal, experimental, refinement or atomic coordinate data resulting 
# from the CCDC's data processing and validation procedures.
#
#######################################################################

data_TEQPOV
_symmetry_cell_setting           triclinic
_symmetry_space_group_name_H-M   'P -1'
_symmetry_Int_Tables_number      2
_space_group_name_Hall           '-P 1'
loop_
_symmetry_equiv_pos_site_id
_symmetry_equiv_pos_as_xyz
1 x,y,z
2 -x,-y,-z
_cell_length_a                   8.4579(3)
_cell_length_b                   9.4393(4)
_cell_length_c                   11.8454(4)
_cell_angle_alpha                72.7230(10)
_cell_angle_beta                 69.3170(10)
_cell_angle_gamma                66.6810(10)
_cell_volume                     798.763
loop_
_atom_site_label
_atom_site_type_symbol
_atom_site_fract_x
_atom_site_fract_y
_atom_site_fract_z
U1 U 0.61926(3) 0.27241(2) 0.823233(19)
Ag1 Ag -0.00041(6) 0.12329(5) 1.28951(4)
Ag2 Ag -0.12124(6) 0.38755(5) 1.08280(4)
N1 N 0.6958(6) 0.4325(5) 0.6004(4)
N2 N 0.5787(6) 0.1396(5) 1.0540(4)
O1 O 0.1275(5) 0.3500(4) 1.1592(4)
O2 O 0.8232(5) 0.0013(5) 0.8839(4)
O3 O 0.3949(5) 0.5293(4) 0.7636(3)
O4 O 0.9727(5) -0.1793(5) 1.0161(4)
O5 O 0.8936(5) 0.1566(5) 0.6720(4)
O6 O 0.3249(5) 0.3643(5) 0.9752(4)
O7 O 0.5133(5) 0.1751(5) 0.7821(4)
O8 O 0.7239(5) 0.3734(5) 0.8610(4)
O9 O 0.2867(5) 0.7385(4) 0.6275(4)
O10 O 1.0872(6) 0.1397(5) 0.4865(4)
C1 C 0.7891(8) 0.6121(7) 0.3698(5)
H1 H 0.8212 0.6720 0.2929
C2 C 0.6246(8) 0.6684(7) 0.4518(5)
H2 H 0.5442 0.7664 0.4306
C3 C 0.8542(7) -0.0575(7) 0.9898(5)
C4 C 0.9560(7) 0.2123(7) 0.5585(5)
C5 C 0.4320(7) 0.1662(7) 1.2639(5)
H3 H 0.3288 0.2078 1.3229
C6 C 0.8510(7) 0.3793(6) 0.5182(5)
C7 C 0.9035(8) 0.4667(7) 0.4041(6)
H4 H 1.0152 0.4275 0.3512
C8 C 0.5828(7) 0.5757(7) 0.5655(5)
C9 C 0.4058(7) 0.6205(7) 0.6592(5)
C10 C 0.2812(7) 0.3148(6) 1.0913(5)
C11 C 0.5882(7) 0.0630(6) 1.2972(5)
H5 H 0.5936 0.0413 1.3779
C12 C 0.7343(7) -0.0058(6) 1.2076(5)
H6 H 0.8389 -0.0760 1.2270
C13 C 0.4353(7) 0.2042(6) 1.1413(5)
C14 C 0.7206(7) 0.0323(6) 1.0887(5)
Ag1A Ag 1.00041(6) -0.12329(5) 0.71049(4)
Ag1A_2 Ag 0.00041(6) 0.87671(5) 0.71049(4)
Ag2A Ag 0.12124(6) 0.61245(5) 0.91720(4)
Ag2A_2 Ag 1.12124(6) -0.38755(5) 0.91720(4)
O2A O 0.1768(5) -0.0013(5) 1.1161(4)
O3A O -0.3949(5) 0.4707(4) 1.2364(3)
O4A O 0.0273(5) 0.1793(5) 0.9839(4)
O5A O 0.1064(5) -0.1566(5) 1.3280(4)
O6A O -0.3249(5) 0.6357(5) 1.0248(4)
O9A O -0.2867(5) 0.2615(4) 1.3725(4)
loop_
_geom_bond_atom_site_label_1
_geom_bond_atom_site_label_2
_geom_bond_site_symmetry_1
_geom_bond_site_symmetry_2
U1 N1 1_555 1_555
Ag1 O1 1_555 1_555
Ag2 O1 1_555 1_555
N1 C6 1_555 1_555
N2 U1 1_555 1_555
O1 C10 1_555 1_555
O2 U1 1_555 1_555
O3 U1 1_555 1_555
O4 C3 1_555 1_555
O5 U1 1_555 1_555
O6 U1 1_555 1_555
O7 U1 1_555 1_555
O8 U1 1_555 1_555
O9 C9 1_555 1_555
O10 C4 1_555 1_555
C1 H1 1_555 1_555
C2 C1 1_555 1_555
H2 C2 1_555 1_555
C3 O2 1_555 1_555
C4 O5 1_555 1_555
C5 H3 1_555 1_555
C6 C4 1_555 1_555
C7 C1 1_555 1_555
H4 C7 1_555 1_555
C8 N1 1_555 1_555
C9 O3 1_555 1_555
C10 O6 1_555 1_555
C11 C5 1_555 1_555
H5 C11 1_555 1_555
C12 C11 1_555 1_555
H6 C12 1_555 1_555
C13 N2 1_555 1_555
C14 N2 1_555 1_555
Ag1A O2 1_555 1_555
Ag1A_2 O9 1_555 1_555
Ag2A O3 1_555 1_555
Ag2A_2 O4 1_555 1_555
O2A Ag1 1_555 1_555
O3A Ag2 1_555 1_555
O4A Ag2 1_555 1_555
O5A Ag1 1_555 1_555
O6A Ag2 1_555 1_555
O9A Ag1 1_555 1_555
O5 Ag1A 1_555 1_555
O6 Ag2A 1_555 1_555
C2 C8 1_555 1_555
C3 C14 1_555 1_555
C5 C13 1_555 1_555
C6 C7 1_555 1_555
C8 C9 1_555 1_555
C10 C13 1_555 1_555
C12 C14 1_555 1_555

#END
