
#######################################################################
#
#                 Cambridge Crystallographic Data Centre
#                                CCDC 
#
#######################################################################
#
# If this CIF has been generated from an entry in the Cambridge 
# Structural Database, then it will include bibliographic, chemical, 
# crystal, experimental, refinement or atomic coordinate data resulting 
# from the CCDC's data processing and validation procedures.
#
#######################################################################

data_TEQPEL
_symmetry_cell_setting           triclinic
_symmetry_space_group_name_H-M   'P -1'
_symmetry_Int_Tables_number      2
_space_group_name_Hall           '-P 1'
loop_
_symmetry_equiv_pos_site_id
_symmetry_equiv_pos_as_xyz
1 x,y,z
2 -x,-y,-z
_cell_length_a                   7.7478(10)
_cell_length_b                   9.1757(11)
_cell_length_c                   9.3460(12)
_cell_angle_alpha                86.151(2)
_cell_angle_beta                 71.627(2)
_cell_angle_gamma                77.395(2)
_cell_volume                     615.353
loop_
_atom_site_label
_atom_site_type_symbol
_atom_site_fract_x
_atom_site_fract_y
_atom_site_fract_z
U1 U 0.28490(6) 0.95934(5) 0.13822(5)
U2 U 0.72281(6) 0.63879(5) 0.07009(5)
O1 O 0.1523(11) 0.6455(10) 0.4165(10)
O2 O 0.5898(12) 0.8606(9) 0.0144(10)
O3 O 0.7936(12) 0.7165(10) 0.2084(10)
O4 O 0.3935(11) 0.6961(9) 0.2249(9)
O5 O 0.9503(12) 0.4009(9) 0.0875(9)
O6 O 0.6739(12) 0.5518(10) -0.0735(10)
O7 O 0.3366(12) 1.0123(10) 0.2958(10)
O8 O 0.2164(12) 0.8991(9) -0.0064(10)
O9 O 1.0374(13) 0.1819(9) 0.1824(11)
N1 N 0.6064(13) 0.4397(11) 0.2621(11)
C1 C 0.3114(19) 0.6145(14) 0.3305(14)
C2 C 0.9136(19) 0.2951(13) 0.1774(14)
C3 C 0.3543(18) 0.3555(13) 0.4503(14)
H1 H 0.2295 0.3747 0.5077
C4 C 0.4712(17) 0.2217(13) 0.4630(14)
H2 H 0.4244 0.1484 0.5280
C5 C 0.7175(16) 0.3075(13) 0.2764(13)
C6 C 0.4290(17) 0.4614(13) 0.3487(14)
C7 C 0.6596(18) 0.1955(14) 0.3787(13)
H3 H 0.7422 0.1085 0.3898
O10 O -0.0052(12) 0.8859(9) 0.3074(10)
U1A U 0.71510(6) 1.04066(5) -0.13822(5)
U1_2 U 1.28490(6) -0.04066(5) 0.13822(5)
U2A U 1.27719(6) 0.36121(5) -0.07009(5)
O2A O 0.4102(12) 1.1394(9) -0.0144(10)
O5A O 1.0497(12) 0.5991(9) -0.0875(9)
O9_2 O 0.0374(13) 1.1819(9) 0.1824(11)
loop_
_geom_bond_atom_site_label_1
_geom_bond_atom_site_label_2
_geom_bond_site_symmetry_1
_geom_bond_site_symmetry_2
U1 O2 1_555 1_555
U2 O2 1_555 1_555
O1 C1 1_555 1_555
O2 U1A 1_555 1_555
O3 U2 1_555 1_555
O4 U1 1_555 1_555
O5 U2 1_555 1_555
O6 U2 1_555 1_555
O7 U1 1_555 1_555
O8 U1 1_555 1_555
O9 C2 1_555 1_555
N1 U2 1_555 1_555
C1 O4 1_555 1_555
C2 O5 1_555 1_555
C3 H1 1_555 1_555
C4 C3 1_555 1_555
H2 C4 1_555 1_555
C5 N1 1_555 1_555
C6 N1 1_555 1_555
C7 C4 1_555 1_555
H3 C7 1_555 1_555
O10 U1 1_555 1_555
U1A O2A 1_555 1_555
U1_2 O9 1_555 1_555
U2A O5 1_555 1_555
O2A U1 1_555 1_555
O5A U2 1_555 1_555
O9_2 U1 1_555 1_555
U2 O4 1_555 1_555
C1 C6 1_555 1_555
C2 C5 1_555 1_555
C3 C6 1_555 1_555
C5 C7 1_555 1_555
U2A O5A 1_555 1_555

#END
