
#######################################################################
#
#                 Cambridge Crystallographic Data Centre
#                                CCDC 
#
#######################################################################
#
# If this CIF has been generated from an entry in the Cambridge 
# Structural Database, then it will include bibliographic, chemical, 
# crystal, experimental, refinement or atomic coordinate data resulting 
# from the CCDC's data processing and validation procedures.
#
#######################################################################

data_TEQPUB
_symmetry_cell_setting           monoclinic
_symmetry_space_group_name_H-M   'C c'
_symmetry_Int_Tables_number      9
_space_group_name_Hall           'C -2yc'
loop_
_symmetry_equiv_pos_site_id
_symmetry_equiv_pos_as_xyz
1 x,y,z
2 x,-y,1/2+z
3 1/2+x,1/2+y,z
4 1/2+x,1/2-y,1/2+z
_cell_length_a                   8.7087(4)
_cell_length_b                   19.9618(10)
_cell_length_c                   12.8850(7)
_cell_angle_alpha                90
_cell_angle_beta                 106.8420(10)
_cell_angle_gamma                90
_cell_volume                     2143.87
loop_
_atom_site_label
_atom_site_type_symbol
_atom_site_fract_x
_atom_site_fract_y
_atom_site_fract_z
U1 U 0.76054(2) 0.219196(11) 0.501267(17)
Pb1 Pb 0.78186(2) 0.436313(11) 0.491118(19)
Pb2 Pb 0.71022(3) 0.003998(12) 0.47109(2)
O1 O 0.6224(6) 0.1160(3) 0.5311(4)
O2 O 0.8683(6) 0.1090(2) 0.4774(4)
O3 O 0.8944(6) 0.3212(2) 0.4610(5)
O4 O 0.6644(7) 0.3302(2) 0.5333(5)
O5 O 0.6310(6) 0.2196(2) 0.3665(4)
O6 O 0.8848(6) 0.2181(2) 0.6377(4)
O7 O 0.4335(6) 0.0575(2) 0.5769(4)
O8 O 1.0564(6) 0.3831(3) 0.3941(4)
O9 O 0.4763(6) 0.4037(3) 0.5448(4)
O10 O 1.0226(6) 0.0336(2) 0.4319(4)
O11 O 0.7834(6) 0.4511(3) 0.6798(4)
O12 O 1.0576(6) 0.4256(3) 0.6227(4)
O13 O 0.5873(8) 0.3856(3) 0.2979(5)
O14 O 0.9312(8) 0.0106(3) 0.6816(5)
O15 O 1.2032(6) 0.4649(3) 0.7830(4)
O16 O 0.9339(6) 0.4769(3) 0.8467(4)
N1 N 0.5088(6) 0.2289(3) 0.5732(5)
N2 N 1.0049(6) 0.2087(3) 0.4172(4)
C1 C 0.5003(8) 0.1099(4) 0.5685(5)
C2 C 0.4372(8) 0.1742(3) 0.5982(5)
C3 C 0.3140(8) 0.1780(4) 0.6462(5)
H1 H 0.2692 0.1392 0.6648
C4 C 0.2586(7) 0.2402(3) 0.6663(5)
H2 H 0.1787 0.2435 0.7008
C5 C 0.3229(8) 0.2977(4) 0.6347(5)
H3 H 0.2831 0.3400 0.6428
C6 C 1.0060(8) 0.3281(3) 0.4150(6)
C7 C 1.0712(7) 0.2632(4) 0.3877(5)
C8 C 1.1943(7) 0.2599(3) 0.3373(5)
H4 H 1.2383 0.2987 0.3179
C9 C 1.1797(7) 0.1401(3) 0.3485(5)
H5 H 1.2125 0.0974 0.3357
C10 C 1.0624(7) 0.1490(3) 0.3989(5)
C11 C 0.4503(8) 0.2891(3) 0.5899(6)
C12 C 0.5318(8) 0.3472(3) 0.5541(5)
C13 C 1.2484(7) 0.1968(3) 0.3171(5)
H6 H 1.3290 0.1926 0.2834
C14 C 0.9828(8) 0.0916(3) 0.4382(5)
C15 C 0.9160(8) 0.4602(4) 0.7507(5)
C16 C 1.0710(8) 0.4489(4) 0.7143(6)
Pb1B Pb 0.28186(2) -0.063687(11) 0.491118(19)
Pb2B Pb 1.21022(3) 0.503998(12) 0.47109(2)
Pb2C Pb 1.21022(3) 0.496002(12) 0.97109(2)
O7B O 0.9335(6) 0.5575(2) 0.5769(4)
O8B O 0.5564(6) -0.1169(3) 0.3941(4)
O15C O 0.7032(6) 0.0351(3) 0.2830(4)
O16C O 0.4339(6) 0.0231(3) 0.3467(4)
loop_
_geom_bond_atom_site_label_1
_geom_bond_atom_site_label_2
_geom_bond_site_symmetry_1
_geom_bond_site_symmetry_2
U1 O1 1_555 1_555
Pb1 O3 1_555 1_555
Pb2 O1 1_555 1_555
O1 C1 1_555 1_555
O2 U1 1_555 1_555
O3 U1 1_555 1_555
O4 U1 1_555 1_555
O5 U1 1_555 1_555
O6 U1 1_555 1_555
O7 C1 1_555 1_555
O8 C6 1_555 1_555
O9 C12 1_555 1_555
O10 C14 1_555 1_555
O11 Pb1 1_555 1_555
O12 Pb1 1_555 1_555
O13 Pb1 1_555 1_555
O14 Pb2 1_555 1_555
O15 C16 1_555 1_555
O16 C15 1_555 1_555
N1 U1 1_555 1_555
N2 U1 1_555 1_555
C1 C2 1_555 1_555
C2 N1 1_555 1_555
C3 C2 1_555 1_555
H1 C3 1_555 1_555
C4 C3 1_555 1_555
H2 C4 1_555 1_555
C5 C4 1_555 1_555
H3 C5 1_555 1_555
C6 O3 1_555 1_555
C7 N2 1_555 1_555
C8 C7 1_555 1_555
H4 C8 1_555 1_555
C9 H5 1_555 1_555
C10 N2 1_555 1_555
C11 N1 1_555 1_555
C12 O4 1_555 1_555
C13 C8 1_555 1_555
H6 C13 1_555 1_555
C14 O2 1_555 1_555
C15 O11 1_555 1_555
C16 O12 1_555 1_555
Pb1B O7 1_555 1_555
Pb2B O8 1_555 1_555
Pb2C O15 1_555 1_555
O7B Pb1 1_555 1_555
O8B Pb2 1_555 1_555
O15C Pb2 1_555 1_555
O16C Pb2 1_555 1_555
Pb1 O4 1_555 1_555
Pb2 O2 1_555 1_555
O16 Pb2C 1_555 1_555
C5 C11 1_555 1_555
C6 C7 1_555 1_555
C9 C10 1_555 1_555
C9 C13 1_555 1_555
C10 C14 1_555 1_555
C11 C12 1_555 1_555
C15 C16 1_555 1_555

#END
