
#######################################################################
#
#                 Cambridge Crystallographic Data Centre
#                                CCDC 
#
#######################################################################
#
# If this CIF has been generated from an entry in the Cambridge 
# Structural Database, then it will include bibliographic, chemical, 
# crystal, experimental, refinement or atomic coordinate data resulting 
# from the CCDC's data processing and validation procedures.
#
#######################################################################

data_TEQQAI
_symmetry_cell_setting           monoclinic
_symmetry_space_group_name_H-M   'C 2/c'
_symmetry_Int_Tables_number      15
_space_group_name_Hall           '-C 2yn'
loop_
_symmetry_equiv_pos_site_id
_symmetry_equiv_pos_as_xyz
1 x,y,z
2 1/2+x,1/2+y,z
3 -x,y,1/2-z
4 1/2-x,1/2+y,1/2-z
5 -x,-y,-z
6 1/2-x,1/2-y,-z
7 x,-y,1/2+z
8 1/2+x,1/2-y,1/2+z
_cell_length_a                   13.9437(9)
_cell_length_b                   16.0610(9)
_cell_length_c                   8.8145(5)
_cell_angle_alpha                90
_cell_angle_beta                 116.9670(10)
_cell_angle_gamma                90
_cell_volume                     1759.37
loop_
_atom_site_label
_atom_site_type_symbol
_atom_site_fract_x
_atom_site_fract_y
_atom_site_fract_z
U1 U 0.2500 0.2500 1.0000
Pb1 Pb 0.5000 0.433708(10) 1.2500
O2 O 0.3224(2) 0.38752(15) 0.9846(3)
O3 O 0.1093(2) 0.18501(15) 0.7400(3)
O4 O 0.1445(2) 0.30245(15) 1.0207(3)
O5 O 0.3673(2) 0.49153(15) 0.8612(3)
O6 O 0.0190(2) 0.15887(15) 0.4618(3)
N1 N 0.2018(2) 0.31456(17) 0.7003(4)
C1 C 0.2511(3) 0.3843(2) 0.6877(5)
C2 C 0.1277(3) 0.2983(2) 0.3981(5)
H1 H 0.0872 0.2665 0.3018
C3 C 0.2388(3) 0.4159(2) 0.5339(5)
H2 H 0.2711 0.4660 0.5294
C4 C 0.1774(3) 0.3713(2) 0.3863(5)
H3 H 0.1696 0.3900 0.2815
C5 C 0.3196(3) 0.4255(2) 0.8543(5)
C6 C 0.1400(3) 0.2741(2) 0.5558(5)
C7 C 0.0837(3) 0.2001(2) 0.5813(5)
Pb1G Pb 0.0000 0.066292(10) 0.7500
Pb1F Pb 0.5000 0.566292(10) 0.7500
Pb1A Pb 0.0000 -0.066292(10) 1.2500
O2E O 0.1776(2) 0.11248(15) 1.0154(3)
O2B O 0.6776(2) 0.38752(15) 1.5154(3)
O3E O 0.3907(2) 0.31499(15) 1.2600(3)
O3G O 0.6093(2) 0.31499(15) 1.2400(3)
O4E O 0.3555(2) 0.19755(15) 0.9793(3)
O5E O 0.1327(2) 0.00847(15) 1.1388(3)
O5F O 0.3673(2) 0.50847(15) 1.3612(3)
O5D O 0.6327(2) 0.50847(15) 1.1388(3)
O6E O 0.4810(2) 0.34113(15) 1.5382(3)
N1E N 0.2982(2) 0.18544(17) 1.2997(4)
C1E C 0.2489(3) 0.1157(2) 1.3123(5)
C2E C 0.3723(3) 0.2017(2) 1.6019(5)
H1E H 0.4128 0.2335 1.6982
C3E C 0.2612(3) 0.0841(2) 1.4661(5)
H2E H 0.2289 0.0340 1.4706
C4E C 0.3226(3) 0.1287(2) 1.6137(5)
H3E H 0.3304 0.1100 1.7185
C5E C 0.1804(3) 0.0745(2) 1.1457(5)
C6E C 0.3600(3) 0.2259(2) 1.4442(5)
C7E C 0.4163(3) 0.2999(2) 1.4187(5)
O1 O 0.0048(10) 0.4507(5) 0.898(2)
loop_
_geom_bond_atom_site_label_1
_geom_bond_atom_site_label_2
_geom_bond_site_symmetry_1
_geom_bond_site_symmetry_2
U1 O2 1_555 1_555
Pb1 O2 1_555 1_555
O2 C5 1_555 1_555
O3 U1 1_555 1_555
O4 U1 1_555 1_555
O5 C5 1_555 1_555
O6 C7 1_555 1_555
N1 U1 1_555 1_555
C1 N1 1_555 1_555
C2 H1 1_555 1_555
C3 C1 1_555 1_555
H2 C3 1_555 1_555
C4 C2 1_555 1_555
H3 C4 1_555 1_555
C5 C1 1_555 1_555
C6 N1 1_555 1_555
C7 O3 1_555 1_555
Pb1G O3 1_555 1_555
Pb1F O5 1_555 1_555
Pb1A O5E 1_555 1_555
O2E U1 1_555 1_555
O2B Pb1 1_555 1_555
O3E U1 1_555 1_555
O3G Pb1 1_555 1_555
O4E U1 1_555 1_555
O5E C5E 1_555 1_555
O5F Pb1 1_555 1_555
O5D Pb1 1_555 1_555
O6E C7E 1_555 1_555
N1E U1 1_555 1_555
C1E N1E 1_555 1_555
C2E H1E 1_555 1_555
C3E C1E 1_555 1_555
H2E C3E 1_555 1_555
C4E C2E 1_555 1_555
H3E C4E 1_555 1_555
C5E O2E 1_555 1_555
C6E N1E 1_555 1_555
C7E O3E 1_555 1_555
Pb1 O3E 1_555 1_555
C2 C6 1_555 1_555
C3 C4 1_555 1_555
C6 C7 1_555 1_555
Pb1G O2E 1_555 1_555
C1E C5E 1_555 1_555
C2E C6E 1_555 1_555
C3E C4E 1_555 1_555
C6E C7E 1_555 1_555

#END
