
#######################################################################
#
#                 Cambridge Crystallographic Data Centre
#                                CCDC 
#
#######################################################################
#
# If this CIF has been generated from an entry in the Cambridge 
# Structural Database, then it will include bibliographic, chemical, 
# crystal, experimental, refinement or atomic coordinate data resulting 
# from the CCDC's data processing and validation procedures.
#
#######################################################################

data_TEQQIP
_symmetry_cell_setting           monoclinic
_symmetry_space_group_name_H-M   'C 2/c'
_symmetry_Int_Tables_number      15
_space_group_name_Hall           '-C 2yn'
loop_
_symmetry_equiv_pos_site_id
_symmetry_equiv_pos_as_xyz
1 x,y,z
2 -x,y,1/2-z
3 1/2+x,1/2+y,z
4 1/2-x,1/2+y,1/2-z
5 -x,-y,-z
6 x,-y,1/2+z
7 1/2-x,1/2-y,-z
8 1/2+x,1/2-y,1/2+z
_cell_length_a                   19.469(6)
_cell_length_b                   7.015(2)
_cell_length_c                   15.156(4)
_cell_angle_alpha                90
_cell_angle_beta                 117.98(2)
_cell_angle_gamma                90
_cell_volume                     1827.98
loop_
_atom_site_label
_atom_site_type_symbol
_atom_site_fract_x
_atom_site_fract_y
_atom_site_fract_z
Cd1 Cd 0.0000 -0.1491(2) 0.2500
Cl1 Cl 0.1055(2) -0.3688(4) 0.2712(2)
O1 O 0.0736(5) 0.0338(12) 0.3871(7)
O2 O -0.0480(5) 0.0896(11) 0.3467(6)
N1 N 0.1272(4) 0.3206(13) 0.5217(6)
C1 C 0.0209(6) 0.1306(17) 0.3907(7)
C2 C 0.0441(6) 0.3224(19) 0.4448(9)
C3 C -0.0077(6) 0.4017(15) 0.4775(9)
C4 C 0.1740(6) 0.4539(16) 0.5150(8)
C5 C 0.2506(6) 0.4565(18) 0.5802(9)
C6 C 0.2817(6) 0.3244(21) 0.6545(9)
C7 C 0.2335(7) 0.1919(18) 0.6632(8)
C8 C 0.1562(7) 0.1955(18) 0.5944(10)
H1 H 0.0418 0.4108 0.3951
H2 H -0.0072 0.3155 0.5270
H3 H -0.0594 0.4016 0.4224
H4 H 0.1524 0.5466 0.4624
H5 H 0.2833 0.5525 0.5743
H6 H 0.3365 0.3244 0.6994
H7 H 0.2335 0.1005 0.7166
H8 H 0.1217 0.1027 0.5988
Cl1A Cl -0.1055(2) -0.3688(4) 0.2288(2)
C3D C 0.0077(6) 0.5983(15) 0.5225(9)
C2D C -0.0441(6) 0.6776(19) 0.5552(9)
N1D N -0.1272(4) 0.6794(13) 0.4783(6)
C4D C -0.1740(6) 0.5461(16) 0.4850(8)
C5D C -0.2506(6) 0.5435(18) 0.4198(9)
C6D C -0.2817(6) 0.6756(21) 0.3455(9)
C7D C -0.2335(7) 0.8081(18) 0.3368(8)
C8D C -0.1562(7) 0.8045(18) 0.4056(10)
H8D H -0.1217 0.8973 0.4012
H7D H -0.2335 0.8995 0.2834
H6D H -0.3365 0.6756 0.3006
H5D H -0.2833 0.4475 0.4257
H4D H -0.1524 0.4534 0.5376
C1D C -0.0209(6) 0.8694(17) 0.6093(7)
O1D O -0.0736(5) 0.9662(12) 0.6129(7)
Cd1D Cd 0.0000 1.1491(2) 0.7500
O2D O 0.0480(5) 0.9104(11) 0.6533(6)
H1D H -0.0418 0.5892 0.6049
H2D H 0.0072 0.6845 0.4730
H3D H 0.0594 0.5984 0.5776
O1A O -0.0736(5) 0.0338(12) 0.1129(7)
loop_
_geom_bond_atom_site_label_1
_geom_bond_atom_site_label_2
_geom_bond_site_symmetry_1
_geom_bond_site_symmetry_2
Cd1 Cl1 1_555 1_555
O1 Cd1 1_555 1_555
O2 C1 1_555 1_555
N1 C2 1_555 1_555
C1 O1 1_555 1_555
C2 C1 1_555 1_555
C3 C2 1_555 1_555
C4 N1 1_555 1_555
C5 C4 1_555 1_555
C6 C5 1_555 1_555
C7 C6 1_555 1_555
C8 N1 1_555 1_555
H1 C2 1_555 1_555
H2 C3 1_555 1_555
H3 C3 1_555 1_555
H4 C4 1_555 1_555
H5 C5 1_555 1_555
H6 C6 1_555 1_555
H7 C7 1_555 1_555
H8 C8 1_555 1_555
Cl1A Cd1 1_555 1_555
C3D C3 1_555 1_555
C2D C3D 1_555 1_555
N1D C2D 1_555 1_555
C4D N1D 1_555 1_555
C5D C4D 1_555 1_555
C6D C5D 1_555 1_555
C7D C6D 1_555 1_555
C8D N1D 1_555 1_555
H8D C8D 1_555 1_555
H7D C7D 1_555 1_555
H6D C6D 1_555 1_555
H5D C5D 1_555 1_555
H4D C4D 1_555 1_555
C1D C2D 1_555 1_555
O1D C1D 1_555 1_555
Cd1D O1D 1_555 1_555
O2D C1D 1_555 1_555
H1D C2D 1_555 1_555
H2D C3D 1_555 1_555
H3D C3D 1_555 1_555
O1A Cd1 1_555 1_555
C7 C8 1_555 1_555
C7D C8D 1_555 1_555

#END
