
#######################################################################
#
#                 Cambridge Crystallographic Data Centre
#                                CCDC 
#
#######################################################################
#
# If this CIF has been generated from an entry in the Cambridge 
# Structural Database, then it will include bibliographic, chemical, 
# crystal, experimental, refinement or atomic coordinate data resulting 
# from the CCDC's data processing and validation procedures.
#
#######################################################################

data_TEQQUB
_symmetry_cell_setting           orthorhombic
_symmetry_space_group_name_H-M   'P c c n'
_symmetry_Int_Tables_number      56
_space_group_name_Hall           '-P 2ab 2ac'
loop_
_symmetry_equiv_pos_site_id
_symmetry_equiv_pos_as_xyz
1 x,y,z
2 1/2-x,1/2-y,z
3 1/2+x,-y,1/2-z
4 -x,1/2+y,1/2-z
5 -x,-y,-z
6 1/2+x,1/2+y,-z
7 1/2-x,y,1/2+z
8 x,1/2-y,1/2+z
_cell_length_a                   16.246(5)
_cell_length_b                   18.519(6)
_cell_length_c                   8.086(2)
_cell_angle_alpha                90
_cell_angle_beta                 90
_cell_angle_gamma                90
_cell_volume                     2432.75
loop_
_atom_site_label
_atom_site_type_symbol
_atom_site_fract_x
_atom_site_fract_y
_atom_site_fract_z
Cd1 Cd 0.0501(1) 0.7154(1) 0.0206(1)
I1 I 0.1397(1) 0.8160(1) 0.2163(1)
I2 I -0.0900(1) 0.7763(1) 0.8999(1)
O1 O 0.0948(4) 0.6181(4) 1.1526(9)
O2 O -0.0264(4) 0.5787(4) 1.0717(9)
N1 N 0.1271(4) 0.4840(4) 1.3011(9)
C1 C 0.0354(6) 0.5744(5) 1.1522(12)
C2 C 0.0405(6) 0.5106(5) 1.2769(12)
C3 C 0.0007(7) 0.5305(6) 1.4363(11)
C4 C 0.1457(6) 0.4160(5) 1.2569(12)
C5 C 0.2209(7) 0.3893(6) 1.2762(14)
C6 C 0.2823(7) 0.4296(7) 1.3393(14)
C7 C 0.2647(6) 0.4996(7) 1.3860(13)
C8 C 0.1849(6) 0.5275(5) 1.3663(11)
H1 H -0.0090 0.5284 1.7691
H2 H 0.0547 0.4538 1.5836
H3 H -0.0308 0.4299 1.5168
H4 H 0.1030 0.3859 1.2121
H5 H 0.2317 0.3404 1.2433
H6 H 0.3368 0.4102 1.3504
H7 H 0.3072 0.5292 1.4331
H8 H 0.1714 0.5760 1.3982
Cd1G Cd 0.0501(1) 0.7846(1) 0.5206(1)
I1G I 0.1397(1) 0.6840(1) 0.7163(1)
Cd1_2 Cd 0.0501(1) 0.7154(1) 1.0206(1)
I1_2 I 0.1397(1) 0.8160(1) 1.2163(1)
C3D C -0.0007(7) 0.4695(6) 1.5637(11)
C2D C -0.0405(6) 0.4894(5) 1.7231(12)
N1D N -0.1271(4) 0.5160(4) 1.6989(9)
C4D C -0.1457(6) 0.5840(5) 1.7431(12)
C5D C -0.2209(7) 0.6107(6) 1.7238(14)
C6D C -0.2823(7) 0.5704(7) 1.6607(14)
C7D C -0.2647(6) 0.5004(7) 1.6140(13)
C8D C -0.1849(6) 0.4725(5) 1.6337(11)
H8D H -0.1714 0.4240 1.6018
H7D H -0.3072 0.4708 1.5669
H6D H -0.3368 0.5898 1.6496
H5D H -0.2317 0.6596 1.7567
H4D H -0.1030 0.6141 1.7879
C1D C -0.0354(6) 0.4256(5) 1.8478(12)
O1D O -0.0948(4) 0.3819(4) 1.8474(9)
Cd1D Cd -0.0501(1) 0.2846(1) 1.9794(1)
O2D O 0.0264(4) 0.4213(4) 1.9283(9)
H2D H -0.0547 0.5462 1.4164
H3D H 0.0308 0.5701 1.4832
H1D H 0.0090 0.4716 1.2309
I2G I -0.0900(1) 0.7237(1) 0.3999(1)
O1G O 0.0948(4) 0.8819(4) 0.6526(9)
loop_
_geom_bond_atom_site_label_1
_geom_bond_atom_site_label_2
_geom_bond_site_symmetry_1
_geom_bond_site_symmetry_2
Cd1 I1 1_555 1_555
I1 Cd1G 1_555 1_555
I2 Cd1_2 1_555 1_555
O1 C1 1_555 1_555
O2 C1 1_555 1_555
N1 C2 1_555 1_555
C1 C2 1_555 1_555
C2 C3 1_555 1_555
C3 C3D 1_555 1_555
C4 N1 1_555 1_555
C5 C4 1_555 1_555
C6 C5 1_555 1_555
C7 C6 1_555 1_555
C8 N1 1_555 1_555
H1 C2D 1_555 1_555
H2 C3D 1_555 1_555
H3 C3D 1_555 1_555
H4 C4 1_555 1_555
H5 C5 1_555 1_555
H6 C6 1_555 1_555
H7 C7 1_555 1_555
H8 C8 1_555 1_555
Cd1G I1G 1_555 1_555
I1G Cd1_2 1_555 1_555
Cd1_2 O1 1_555 1_555
I1_2 Cd1_2 1_555 1_555
C3D C2D 1_555 1_555
C2D N1D 1_555 1_555
N1D C4D 1_555 1_555
C4D C5D 1_555 1_555
C5D C6D 1_555 1_555
C6D C7D 1_555 1_555
C7D C8D 1_555 1_555
C8D N1D 1_555 1_555
H8D C8D 1_555 1_555
H7D C7D 1_555 1_555
H6D C6D 1_555 1_555
H5D C5D 1_555 1_555
H4D C4D 1_555 1_555
C1D C2D 1_555 1_555
O1D C1D 1_555 1_555
Cd1D O1D 1_555 1_555
O2D C1D 1_555 1_555
H2D C3 1_555 1_555
H3D C3 1_555 1_555
H1D C2 1_555 1_555
I2G Cd1G 1_555 1_555
O1G Cd1G 1_555 1_555
C7 C8 1_555 1_555

#END
