
#######################################################################
#
#                 Cambridge Crystallographic Data Centre
#                                CCDC 
#
#######################################################################
#
# If this CIF has been generated from an entry in the Cambridge 
# Structural Database, then it will include bibliographic, chemical, 
# crystal, experimental, refinement or atomic coordinate data resulting 
# from the CCDC's data processing and validation procedures.
#
#######################################################################

data_TEQQOV
_symmetry_cell_setting           monoclinic
_symmetry_space_group_name_H-M   'C 2/c'
_symmetry_Int_Tables_number      15
_space_group_name_Hall           '-C 2yn'
loop_
_symmetry_equiv_pos_site_id
_symmetry_equiv_pos_as_xyz
1 x,y,z
2 -x,y,1/2-z
3 1/2+x,1/2+y,z
4 1/2-x,1/2+y,1/2-z
5 -x,-y,-z
6 x,-y,1/2+z
7 1/2-x,1/2-y,-z
8 1/2+x,1/2-y,1/2+z
_cell_length_a                   19.633(8)
_cell_length_b                   7.255(3)
_cell_length_c                   15.540(7)
_cell_angle_alpha                90
_cell_angle_beta                 118.86(3)
_cell_angle_gamma                90
_cell_volume                     1938.57
loop_
_atom_site_label
_atom_site_type_symbol
_atom_site_fract_x
_atom_site_fract_y
_atom_site_fract_z
Cd1 Cd 0.0000 -0.1272(2) 0.2500
Br1 Br 0.1109(1) -0.3525(2) 0.2768(1)
O1 O 0.0670(5) 0.0639(13) 0.3760(7)
O2 O -0.0518(5) 0.0963(13) 0.3534(7)
N1 N 0.1248(5) 0.3180(14) 0.5226(8)
C1 C 0.0169(7) 0.1441(17) 0.3888(8)
C2 C 0.0400(7) 0.3262(21) 0.4471(11)
C3 C -0.0089(7) 0.4054(16) 0.4764(10)
C4 C 0.1736(7) 0.4409(8) 0.5166(9)
C5 C 0.2512(7) 0.4384(21) 0.5853(11)
C6 C 0.2801(8) 0.3099(22) 0.6554(12)
C7 C 0.2283(9) 0.1856(20) 0.6582(10)
C8 C 0.1520(9) 0.1925(18) 0.5932(12)
H1 H 0.0389 0.4135 0.4000
H2 H -0.0115 0.3202 0.5220
H3 H -0.0600 0.4125 0.4205
H4 H 0.1543 0.5287 0.4639
H5 H 0.2855 0.5310 0.5837
H6 H 0.3347 0.3046 0.7016
H7 H 0.2474 0.0917 0.7079
H8 H 0.1166 0.1071 0.5980
Br1A Br -0.1109(1) -0.3525(2) 0.2232(1)
C3D C 0.0089(7) 0.5946(16) 0.5236(10)
C2D C -0.0400(7) 0.6738(21) 0.5529(11)
N1D N -0.1248(5) 0.6820(14) 0.4774(8)
C4D C -0.1736(7) 0.5591(8) 0.4834(9)
C5D C -0.2512(7) 0.5616(21) 0.4147(11)
C6D C -0.2801(8) 0.6901(22) 0.3446(12)
C7D C -0.2283(9) 0.8144(20) 0.3418(10)
C8D C -0.1520(9) 0.8075(18) 0.4068(12)
H8D H -0.1166 0.8929 0.4020
H7D H -0.2474 0.9083 0.2921
H6D H -0.3347 0.6954 0.2984
H5D H -0.2855 0.4690 0.4163
H4D H -0.1543 0.4713 0.5361
C1D C -0.0169(7) 0.8559(17) 0.6112(8)
O1D O -0.0670(5) 0.9361(13) 0.6240(7)
Cd1D Cd 0.0000 1.1272(2) 0.7500
O2D O 0.0518(5) 0.9037(13) 0.6466(7)
H1D H -0.0389 0.5865 0.6000
H2D H 0.0115 0.6798 0.4780
H3D H 0.0600 0.5875 0.5795
O1A O -0.0670(5) 0.0639(13) 0.1240(7)
loop_
_geom_bond_atom_site_label_1
_geom_bond_atom_site_label_2
_geom_bond_site_symmetry_1
_geom_bond_site_symmetry_2
Cd1 Br1 1_555 1_555
O1 Cd1 1_555 1_555
O2 C1 1_555 1_555
N1 C2 1_555 1_555
C1 O1 1_555 1_555
C2 C1 1_555 1_555
C3 C2 1_555 1_555
C4 N1 1_555 1_555
C5 C4 1_555 1_555
C6 C5 1_555 1_555
C7 C6 1_555 1_555
C8 N1 1_555 1_555
H1 C2 1_555 1_555
H2 C3 1_555 1_555
H3 C3 1_555 1_555
H4 C4 1_555 1_555
H5 C5 1_555 1_555
H6 C6 1_555 1_555
H7 C7 1_555 1_555
H8 C8 1_555 1_555
Br1A Cd1 1_555 1_555
C3D C3 1_555 1_555
C2D C3D 1_555 1_555
N1D C2D 1_555 1_555
C4D N1D 1_555 1_555
C5D C4D 1_555 1_555
C6D C5D 1_555 1_555
C7D C6D 1_555 1_555
C8D N1D 1_555 1_555
H8D C8D 1_555 1_555
H7D C7D 1_555 1_555
H6D C6D 1_555 1_555
H5D C5D 1_555 1_555
H4D C4D 1_555 1_555
C1D C2D 1_555 1_555
O1D C1D 1_555 1_555
Cd1D O1D 1_555 1_555
O2D C1D 1_555 1_555
H1D C2D 1_555 1_555
H2D C3D 1_555 1_555
H3D C3D 1_555 1_555
O1A Cd1 1_555 1_555
C7 C8 1_555 1_555
C7D C8D 1_555 1_555

#END
