
#######################################################################
#
#                 Cambridge Crystallographic Data Centre
#                                CCDC 
#
#######################################################################
#
# If this CIF has been generated from an entry in the Cambridge 
# Structural Database, then it will include bibliographic, chemical, 
# crystal, experimental, refinement or atomic coordinate data resulting 
# from the CCDC's data processing and validation procedures.
#
#######################################################################

data_TEQROX
_symmetry_cell_setting           monoclinic
_symmetry_space_group_name_H-M   'P 21/c'
_symmetry_Int_Tables_number      14
_space_group_name_Hall           '-P 2ybc'
loop_
_symmetry_equiv_pos_site_id
_symmetry_equiv_pos_as_xyz
1 x,y,z
2 -x,1/2+y,1/2-z
3 -x,-y,-z
4 x,1/2-y,1/2+z
_cell_length_a                   8.522(1)
_cell_length_b                   22.118(1)
_cell_length_c                   17.633(1)
_cell_angle_alpha                90
_cell_angle_beta                 103.41(1)
_cell_angle_gamma                90
_cell_volume                     3233.02
loop_
_atom_site_label
_atom_site_type_symbol
_atom_site_fract_x
_atom_site_fract_y
_atom_site_fract_z
Ag1 Ag 0.975316(16) 0.761827(6) 0.053760(8)
N1 N 1.19141(17) 0.75460(6) 0.15310(9)
C1 C 1.2244(2) 0.69995(9) 0.18677(11)
H1 H 1.1714 0.6655 0.1604
C2 C 1.3313(3) 0.69157(9) 0.25758(12)
H2 H 1.3512 0.6524 0.2798
C3 C 1.4088(3) 0.74172(10) 0.29551(12)
H3 H 1.4823 0.7374 0.3447
C4 C 1.3790(2) 0.79797(9) 0.26163(11)
H4 H 1.4323 0.8327 0.2870
C5 C 1.2691(2) 0.80321(8) 0.18926(10)
N2 N 1.23285(16) 0.85963(6) 0.15456(8)
C6 C 1.2009(2) 0.86872(8) 0.07320(10)
N3 N 1.12204(18) 0.91951(7) 0.04679(9)
C7 C 1.0915(2) 0.93007(9) -0.03004(11)
H5 H 1.0351 0.9661 -0.0491
C8 C 1.1366(3) 0.89221(10) -0.08304(11)
H6 H 1.1106 0.9013 -0.1372
C9 C 1.2211(3) 0.84030(10) -0.05487(12)
H7 H 1.2553 0.8133 -0.0897
C10 C 1.2556(2) 0.82797(9) 0.02422(11)
H8 H 1.3147 0.7929 0.0447
C11 C 1.2446(2) 0.91299(8) 0.20467(10)
H9 H 1.2237 0.9006 0.2554
H10 H 1.1591 0.9419 0.1804
C12 C 1.40605(19) 0.94507(7) 0.21957(9)
C13 C 1.53214(19) 0.92484(7) 0.18806(9)
H11 H 1.5191 0.8889 0.1578
C14 C 1.67672(19) 0.95647(7) 0.20024(9)
C15 C 1.6945(2) 1.00952(8) 0.24411(10)
H12 H 1.7916 1.0322 0.2516
C16 C 1.5707(2) 1.02916(8) 0.27674(10)
H13 H 1.5842 1.0648 0.3076
C17 C 1.4272(2) 0.99723(8) 0.26468(10)
H14 H 1.3429 1.0111 0.2873
N4 N 1.79111(17) 0.83561(7) 0.00377(8)
C18 C 1.7530(2) 0.83908(9) -0.07458(11)
H15 H 1.7821 0.8062 -0.1033
C19 C 1.6747(2) 0.88734(10) -0.11525(11)
H16 H 1.6524 0.8885 -0.1706
C20 C 1.6292(2) 0.93445(10) -0.07318(12)
H17 H 1.5750 0.9687 -0.0994
C21 C 1.6629(2) 0.93122(9) 0.00673(11)
H18 H 1.6302 0.9628 0.0362
C22 C 1.74587(19) 0.88098(8) 0.04434(10)
N5 N 1.78952(17) 0.87795(6) 0.12551(8)
C23 C 1.8112(2) 0.82257(8) 0.16687(10)
N6 N 1.9114(2) 0.82450(7) 0.23703(9)
C24 C 1.9380(3) 0.77249(10) 0.27739(12)
H19 H 2.0087 0.7733 0.3277
C25 C 1.8691(3) 0.71834(10) 0.25026(13)
H20 H 1.8953 0.6824 0.2799
C26 C 1.7606(3) 0.71736(10) 0.17878(13)
H21 H 1.7084 0.6807 0.1591
C27 C 1.7286(2) 0.77019(8) 0.13606(12)
H22 H 1.6526 0.7709 0.0872
C28 C 1.8188(2) 0.93415(8) 0.16991(10)
H23 H 1.8489 0.9659 0.1363
H24 H 1.9118 0.9281 0.2147
N7 N 0.9021(3) 0.68606(9) -0.03056(11)
C29 C 0.8517(3) 0.64190(10) -0.05783(11)
C30 C 0.7880(3) 0.58549(10) -0.09375(14)
H25 H 0.7144 0.5937 -0.1443
H26 H 0.7293 0.5645 -0.0598
H27 H 0.8770 0.5600 -0.1015
Ag1_2 Ag 1.975316(16) 0.761827(6) 0.053760(8)
N4_2 N 0.79111(17) 0.83561(7) 0.00377(8)
Cl1 Cl 1.09854(5) 0.45042(2) -0.13452(3)
O1 O 1.0930(2) 0.51425(7) -0.14834(10)
O2 O 0.9766(2) 0.43403(9) -0.09493(11)
O3 O 1.0690(2) 0.42050(8) -0.20864(10)
O4 O 1.25517(18) 0.43383(9) -0.08967(10)
N8 N 1.4350(5) 0.69583(15) -0.0188(2)
C31 C 1.3929(4) 0.64789(15) -0.01080(17)
C32 C 1.3451(4) 0.58623(15) 0.00169(19)
H28 H 1.4364 0.5647 0.0346
H29 H 1.3117 0.5655 -0.0486
H30 H 1.2549 0.5869 0.0275
loop_
_geom_bond_atom_site_label_1
_geom_bond_atom_site_label_2
_geom_bond_site_symmetry_1
_geom_bond_site_symmetry_2
Ag1 N1 1_555 1_555
N1 C1 1_555 1_555
C1 H1 1_555 1_555
C2 C1 1_555 1_555
H2 C2 1_555 1_555
C3 C2 1_555 1_555
H3 C3 1_555 1_555
C4 C3 1_555 1_555
H4 C4 1_555 1_555
C5 N1 1_555 1_555
N2 C5 1_555 1_555
C6 N2 1_555 1_555
N3 C6 1_555 1_555
C7 N3 1_555 1_555
H5 C7 1_555 1_555
C8 C7 1_555 1_555
H6 C8 1_555 1_555
C9 C8 1_555 1_555
H7 C9 1_555 1_555
C10 C6 1_555 1_555
H8 C10 1_555 1_555
C11 N2 1_555 1_555
H9 C11 1_555 1_555
H10 C11 1_555 1_555
C12 C11 1_555 1_555
C13 C12 1_555 1_555
H11 C13 1_555 1_555
C14 C13 1_555 1_555
C15 C14 1_555 1_555
H12 C15 1_555 1_555
C16 C15 1_555 1_555
H13 C16 1_555 1_555
C17 C12 1_555 1_555
H14 C17 1_555 1_555
N4 C18 1_555 1_555
C18 H15 1_555 1_555
C19 C18 1_555 1_555
H16 C19 1_555 1_555
C20 C19 1_555 1_555
H17 C20 1_555 1_555
C21 C20 1_555 1_555
H18 C21 1_555 1_555
C22 N4 1_555 1_555
N5 C22 1_555 1_555
C23 N5 1_555 1_555
N6 C23 1_555 1_555
C24 N6 1_555 1_555
H19 C24 1_555 1_555
C25 C24 1_555 1_555
H20 C25 1_555 1_555
C26 C25 1_555 1_555
H21 C26 1_555 1_555
C27 C23 1_555 1_555
H22 C27 1_555 1_555
C28 C14 1_555 1_555
H23 C28 1_555 1_555
H24 C28 1_555 1_555
N7 Ag1 1_555 1_555
C29 N7 1_555 1_555
C30 C29 1_555 1_555
H25 C30 1_555 1_555
H26 C30 1_555 1_555
H27 C30 1_555 1_555
Cl1 O1 1_555 1_555
O2 Cl1 1_555 1_555
O3 Cl1 1_555 1_555
O4 Cl1 1_555 1_555
N8 C31 1_555 1_555
C31 C32 1_555 1_555
C32 H28 1_555 1_555
H29 C32 1_555 1_555
H30 C32 1_555 1_555
Ag1_2 N4 1_555 1_555
N4_2 Ag1 1_555 1_555
C4 C5 1_555 1_555
C9 C10 1_555 1_555
C16 C17 1_555 1_555
C21 C22 1_555 1_555
N5 C28 1_555 1_555
C26 C27 1_555 1_555

#END
