
#######################################################################
#
#                 Cambridge Crystallographic Data Centre
#                                CCDC 
#
#######################################################################
#
# If this CIF has been generated from an entry in the Cambridge 
# Structural Database, then it will include bibliographic, chemical, 
# crystal, experimental, refinement or atomic coordinate data resulting 
# from the CCDC's data processing and validation procedures.
#
#######################################################################

data_TEQREN
_symmetry_cell_setting           monoclinic
_symmetry_space_group_name_H-M   'C 2/c'
_symmetry_Int_Tables_number      15
_space_group_name_Hall           '-C 2yn'
loop_
_symmetry_equiv_pos_site_id
_symmetry_equiv_pos_as_xyz
1 x,y,z
2 1/2+x,1/2+y,z
3 -x,y,1/2-z
4 1/2-x,1/2+y,1/2-z
5 -x,-y,-z
6 1/2-x,1/2-y,-z
7 x,-y,1/2+z
8 1/2+x,1/2-y,1/2+z
_cell_length_a                   8.623(3)
_cell_length_b                   25.164(9)
_cell_length_c                   14.262(5)
_cell_angle_alpha                90
_cell_angle_beta                 94.626(4)
_cell_angle_gamma                90
_cell_volume                     3084.62
loop_
_atom_site_label
_atom_site_type_symbol
_atom_site_fract_x
_atom_site_fract_y
_atom_site_fract_z
P1 P 0.5000 0.27521(10) 0.7500
F1 F 0.5000 0.3365(3) 0.7500
F2 F 0.3375(8) 0.2778(3) 0.7949(8)
F3 F 0.3985(10) 0.2784(4) 0.6568(6)
F4 F 0.5000 0.2169(3) 0.7500
F2B F 0.6625(8) 0.2778(3) 0.7051(8)
F3B F 0.6015(10) 0.2784(4) 0.8432(6)
Ag1 Ag 0.0000 0.15052(2) 0.7500
C1 C 0.3620(5) -0.04418(18) 0.7617(3)
C2 C 0.5000 -0.0168(2) 0.7500
H1 H 0.5000 0.0209 0.7500
C3 C 0.5000 -0.1267(3) 0.7500
H2 H 0.5000 -0.1644 0.7500
C4 C 0.3635(6) -0.09983(19) 0.7621(3)
H3 H 0.2709 -0.1190 0.7707
N1 N 0.2185(4) 0.04302(15) 0.7682(2)
C5 C 0.2091(5) -0.01508(18) 0.7728(3)
H4 H 0.1310 -0.0274 0.7229
H5 H 0.1712 -0.0251 0.8341
N2 N 0.1897(5) 0.12199(18) 0.8539(3)
C6 C 0.2465(5) 0.0717(2) 0.8515(3)
C7 C 0.3279(6) 0.0489(3) 0.9300(4)
H6 H 0.3679 0.0138 0.9271
C8 C 0.3494(7) 0.0780(3) 1.0119(4)
H7 H 0.4025 0.0629 1.0664
C9 C 0.2933(9) 0.1294(4) 1.0141(5)
H8 H 0.3081 0.1504 1.0695
C10 C 0.2150(8) 0.1492(3) 0.9335(5)
H9 H 0.1767 0.1846 0.9349
N3 N 0.1185(5) 0.04160(16) 0.6118(3)
C11 C 0.2063(5) 0.06730(18) 0.6785(3)
C12 C 0.2883(6) 0.1139(2) 0.6615(4)
H10 H 0.3535 0.1303 0.7100
C13 C 0.2714(7) 0.1352(2) 0.5723(4)
H11 H 0.3248 0.1669 0.5583
C14 C 0.1764(8) 0.1102(3) 0.5037(4)
H12 H 0.1608 0.1247 0.4422
C15 C 0.1044(7) 0.0635(2) 0.5264(3)
H13 H 0.0411 0.0459 0.4784
O1 O 0.0653(8) 0.2382(3) 0.6666(6)
H14 H -0.0317 0.2463 0.6889
C16 C 0.0565(16) 0.2597(5) 0.5840(12)
H15 H 0.0401 0.2319 0.5360
H16 H 0.1535 0.2786 0.5750
H17 H -0.0308 0.2847 0.5782
Ag1_2 Ag 1.0000 0.15052(2) 0.7500
C1B C 0.6380(5) -0.04418(18) 0.7383(3)
C4B C 0.6365(6) -0.09983(19) 0.7379(3)
H3B H 0.7291 -0.1190 0.7293
N1B N 0.7815(4) 0.04302(15) 0.7318(2)
C5B C 0.7909(5) -0.01508(18) 0.7272(3)
H4B H 0.8690 -0.0274 0.7771
H5B H 0.8288 -0.0251 0.6659
N2B N 0.8103(5) 0.12199(18) 0.6461(3)
N2B_2 N -0.1897(5) 0.12199(18) 0.6461(3)
C6B C 0.7535(5) 0.0717(2) 0.6485(3)
C7B C 0.6721(6) 0.0489(3) 0.5700(4)
H6B H 0.6321 0.0138 0.5729
C8B C 0.6506(7) 0.0780(3) 0.4881(4)
H7B H 0.5975 0.0629 0.4336
C9B C 0.7067(9) 0.1294(4) 0.4859(5)
H8B H 0.6919 0.1504 0.4305
C10B C 0.7850(8) 0.1492(3) 0.5665(5)
H9B H 0.8233 0.1846 0.5651
N3B N 0.8815(5) 0.04160(16) 0.8882(3)
C11B C 0.7937(5) 0.06730(18) 0.8215(3)
C12B C 0.7117(6) 0.1139(2) 0.8385(4)
H10B H 0.6465 0.1303 0.7900
C13B C 0.7286(7) 0.1352(2) 0.9277(4)
H11B H 0.6752 0.1669 0.9417
C14B C 0.8236(8) 0.1102(3) 0.9963(4)
H12B H 0.8392 0.1247 1.0578
C15B C 0.8956(7) 0.0635(2) 0.9736(3)
H13B H 0.9589 0.0459 1.0216
O1B O -0.0653(8) 0.2382(3) 0.8334(6)
H14B H 0.0317 0.2463 0.8111
C16B C -0.0565(16) 0.2597(5) 0.9160(12)
H15B H -0.0401 0.2319 0.9640
H16B H -0.1535 0.2786 0.9250
H17B H 0.0308 0.2847 0.9218
loop_
_geom_bond_atom_site_label_1
_geom_bond_atom_site_label_2
_geom_bond_site_symmetry_1
_geom_bond_site_symmetry_2
Ag1 N2 1_555 1_555
C1 C2 1_555 1_555
C2 H1 1_555 1_555
C3 H2 1_555 1_555
C4 C1 1_555 1_555
H3 C4 1_555 1_555
N1 C5 1_555 1_555
C5 C1 1_555 1_555
H4 C5 1_555 1_555
H5 C5 1_555 1_555
N2 C6 1_555 1_555
C6 N1 1_555 1_555
C7 C6 1_555 1_555
H6 C7 1_555 1_555
C8 C7 1_555 1_555
H7 C8 1_555 1_555
C9 C8 1_555 1_555
H8 C9 1_555 1_555
C10 N2 1_555 1_555
H9 C10 1_555 1_555
N3 C11 1_555 1_555
C11 N1 1_555 1_555
C12 C11 1_555 1_555
H10 C12 1_555 1_555
C13 C12 1_555 1_555
H11 C13 1_555 1_555
C14 C13 1_555 1_555
H12 C14 1_555 1_555
C15 N3 1_555 1_555
H13 C15 1_555 1_555
O1 Ag1 1_555 1_555
H14 O1 1_555 1_555
C16 O1 1_555 1_555
H15 C16 1_555 1_555
H16 C16 1_555 1_555
H17 C16 1_555 1_555
P1 F1 1_555 1_555
F2 P1 1_555 1_555
F3 P1 1_555 1_555
F4 P1 1_555 1_555
Ag1_2 N2B 1_555 1_555
C1B C2 1_555 1_555
C4B C3 1_555 1_555
H3B C4B 1_555 1_555
N1B C5B 1_555 1_555
C5B C1B 1_555 1_555
H4B C5B 1_555 1_555
H5B C5B 1_555 1_555
N2B C6B 1_555 1_555
N2B_2 Ag1 1_555 1_555
C6B N1B 1_555 1_555
C7B C6B 1_555 1_555
H6B C7B 1_555 1_555
C8B C7B 1_555 1_555
H7B C8B 1_555 1_555
C9B C8B 1_555 1_555
H8B C9B 1_555 1_555
C10B N2B 1_555 1_555
H9B C10B 1_555 1_555
N3B C11B 1_555 1_555
C11B N1B 1_555 1_555
C12B C11B 1_555 1_555
H10B C12B 1_555 1_555
C13B C12B 1_555 1_555
H11B C13B 1_555 1_555
C14B C13B 1_555 1_555
H12B C14B 1_555 1_555
C15B N3B 1_555 1_555
H13B C15B 1_555 1_555
O1B Ag1 1_555 1_555
H14B O1B 1_555 1_555
C16B O1B 1_555 1_555
H15B C16B 1_555 1_555
H16B C16B 1_555 1_555
H17B C16B 1_555 1_555
F2B P1 1_555 1_555
F3B P1 1_555 1_555
C3 C4 1_555 1_555
C9 C10 1_555 1_555
C14 C15 1_555 1_555
C1B C4B 1_555 1_555
C9B C10B 1_555 1_555
C14B C15B 1_555 1_555

#END
