
#######################################################################
#
#                 Cambridge Crystallographic Data Centre
#                                CCDC 
#
#######################################################################
#
# If this CIF has been generated from an entry in the Cambridge 
# Structural Database, then it will include bibliographic, chemical, 
# crystal, experimental, refinement or atomic coordinate data resulting 
# from the CCDC's data processing and validation procedures.
#
#######################################################################

data_TEQTAM
_symmetry_cell_setting           monoclinic
_symmetry_space_group_name_H-M   'P 21/c'
_symmetry_Int_Tables_number      14
_space_group_name_Hall           '-P 2ybc'
loop_
_symmetry_equiv_pos_site_id
_symmetry_equiv_pos_as_xyz
1 x,y,z
2 -x,1/2+y,1/2-z
3 -x,-y,-z
4 x,1/2-y,1/2+z
_cell_length_a                   9.2067(18)
_cell_length_b                   19.017(4)
_cell_length_c                   16.825(3)
_cell_angle_alpha                90
_cell_angle_beta                 100.56(3)
_cell_angle_gamma                90
_cell_volume                     2895.89
loop_
_atom_site_label
_atom_site_type_symbol
_atom_site_fract_x
_atom_site_fract_y
_atom_site_fract_z
Cd1 Cd 0.18226(3) 0.440270(13) 0.017154(16)
S1 S -0.03125(12) 0.33444(5) 0.18486(6)
S2 S 0.42510(13) 0.23636(5) 0.20953(6)
O1 O -0.0517(3) 0.44821(13) 0.06179(14)
O2 O -0.2579(3) 0.49689(12) 0.08532(15)
O3 O 0.2544(3) 0.35116(13) 0.11539(17)
O4 O 0.3970(3) 0.36343(13) 0.02319(17)
N1 N 0.0625(4) 0.13751(15) 0.42045(18)
N2 N -0.2275(4) 0.34286(16) 0.27558(19)
N3 N 0.7183(4) 0.02351(15) 0.38731(17)
N4 N 0.6429(4) 0.18966(16) 0.14847(19)
C1 C 0.1052(5) 0.1467(2) 0.3488(3)
H1 H 0.1744 0.1159 0.3344
C2 C 0.0507(5) 0.1999(2) 0.2958(2)
H2 H 0.0830 0.2045 0.2468
C3 C -0.0522(5) 0.24655(19) 0.3160(2)
C4 C -0.1005(5) 0.2361(2) 0.3879(3)
H3 H -0.1715 0.2655 0.4031
C5 C -0.0414(6) 0.1810(2) 0.4370(3)
H4 H -0.0765 0.1739 0.4848
C6 C -0.1114(4) 0.30602(18) 0.2640(2)
C7 C -0.1628(4) 0.40036(18) 0.1664(2)
C8 C -0.2576(5) 0.39648(19) 0.2205(2)
C9 C -0.1570(4) 0.45189(18) 0.0998(2)
C10 C -0.3887(5) 0.4433(2) 0.2240(3)
H5 H -0.3548 0.4894 0.2415
H6 H -0.4495 0.4462 0.1712
H7 H -0.4453 0.4240 0.2614
C11 C 0.6135(5) 0.06949(19) 0.3985(2)
H8 H 0.5744 0.0667 0.4456
C12 C 0.5614(5) 0.12101(19) 0.3423(2)
H9 H 0.4891 0.1523 0.3520
C13 C 0.6180(5) 0.12576(18) 0.2711(2)
C14 C 0.7239(5) 0.0760(2) 0.2590(2)
H10 H 0.7615 0.0759 0.2113
C15 C 0.7721(5) 0.0269(2) 0.3185(2)
H11 H 0.8446 -0.0051 0.3106
C16 C 0.5720(5) 0.18003(18) 0.2090(2)
C17 C 0.4609(5) 0.27531(19) 0.1231(2)
C18 C 0.5802(5) 0.2438(2) 0.0999(2)
C19 C 0.3653(5) 0.3342(2) 0.0846(2)
C20 C 0.6451(6) 0.2609(2) 0.0262(3)
H12 H 0.5983 0.2326 -0.0184
H13 H 0.7492 0.2514 0.0372
H14 H 0.6291 0.3097 0.0130
Cd1B Cd -0.18226(3) 0.559730(13) -0.017154(16)
Cd1C Cd 0.18226(3) 0.059730(13) 0.517154(16)
Cd1A Cd 0.81774(3) -0.059730(13) 0.482846(16)
O2B O 0.2579(3) 0.50311(12) -0.08532(15)
N1C N 0.0625(4) 0.36249(15) -0.07955(18)
N3A N 0.2817(4) 0.52351(15) 0.11269(17)
loop_
_geom_bond_atom_site_label_1
_geom_bond_atom_site_label_2
_geom_bond_site_symmetry_1
_geom_bond_site_symmetry_2
Cd1 O1 1_555 1_555
S1 C6 1_555 1_555
S2 C16 1_555 1_555
O1 C9 1_555 1_555
O2 C9 1_555 1_555
O3 Cd1 1_555 1_555
O4 Cd1 1_555 1_555
N1 C1 1_555 1_555
N2 C6 1_555 1_555
N3 C11 1_555 1_555
N4 C16 1_555 1_555
C1 H1 1_555 1_555
C2 C1 1_555 1_555
H2 C2 1_555 1_555
C3 C2 1_555 1_555
C4 C3 1_555 1_555
H3 C4 1_555 1_555
C5 N1 1_555 1_555
H4 C5 1_555 1_555
C6 C3 1_555 1_555
C7 S1 1_555 1_555
C8 N2 1_555 1_555
C9 C7 1_555 1_555
C10 C8 1_555 1_555
H5 C10 1_555 1_555
H6 C10 1_555 1_555
H7 C10 1_555 1_555
C11 H8 1_555 1_555
C12 C11 1_555 1_555
H9 C12 1_555 1_555
C13 C12 1_555 1_555
C14 C13 1_555 1_555
H10 C14 1_555 1_555
C15 N3 1_555 1_555
H11 C15 1_555 1_555
C16 C13 1_555 1_555
C17 S2 1_555 1_555
C18 N4 1_555 1_555
C19 O3 1_555 1_555
C20 C18 1_555 1_555
H12 C20 1_555 1_555
H13 C20 1_555 1_555
H14 C20 1_555 1_555
Cd1B O2 1_555 1_555
Cd1C N1 1_555 1_555
Cd1A N3 1_555 1_555
O2B Cd1 1_555 1_555
N1C Cd1 1_555 1_555
N3A Cd1 1_555 1_555
O4 C19 1_555 1_555
C4 C5 1_555 1_555
C7 C8 1_555 1_555
C14 C15 1_555 1_555
C17 C18 1_555 1_555
C17 C19 1_555 1_555

#END
