
#######################################################################
#
#                 Cambridge Crystallographic Data Centre
#                                CCDC 
#
#######################################################################
#
# If this CIF has been generated from an entry in the Cambridge 
# Structural Database, then it will include bibliographic, chemical, 
# crystal, experimental, refinement or atomic coordinate data resulting 
# from the CCDC's data processing and validation procedures.
#
#######################################################################

data_TEQTAK
_symmetry_cell_setting           monoclinic
_symmetry_space_group_name_H-M   'P 21/c'
_symmetry_Int_Tables_number      14
_space_group_name_Hall           '-P 2ybc'
loop_
_symmetry_equiv_pos_site_id
_symmetry_equiv_pos_as_xyz
1 x,y,z
2 -x,1/2+y,1/2-z
3 -x,-y,-z
4 x,1/2-y,1/2+z
_cell_length_a                   10.848(4)
_cell_length_b                   8.488(1)
_cell_length_c                   10.604(4)
_cell_angle_alpha                90
_cell_angle_beta                 90.77(2)
_cell_angle_gamma                90
_cell_volume                     976.305
loop_
_atom_site_label
_atom_site_type_symbol
_atom_site_fract_x
_atom_site_fract_y
_atom_site_fract_z
I1 I 0.22297(7) 0.3670(1) 0.71680(7)
Cd1 Cd 0.45395(7) 0.09134(9) 0.33602(7)
O1 O 0.4369(8) 0.1828(9) 0.9584(7)
O2 O 0.6131(7) 0.4275(9) 0.6915(7)
O3 O 0.5547(7) 0.1806(9) 0.7050(7)
O4 O 0.6148(6) 0.0328(9) 0.4821(6)
N1 N 0.7167(7) 0.120(1) 0.4923(8)
C1 C 0.6219(9) 0.283(1) 0.6605(9)
C2 C 0.724(1) 0.246(1) 0.573(1)
C3 C 0.832(1) 0.332(1) 0.576(1)
C4 C 0.931(1) 0.291(1) 0.504(1)
C5 C 0.921(1) 0.159(2) 0.425(1)
C6 C 0.812(1) 0.079(1) 0.420(1)
H1 H 0.83(2) 0.42(2) 0.61(2)
H2 H 1.0057 0.3506 0.5071
H3 H 0.99(2) 0.13(2) 0.38(2)
H4 H 0.81(2) 0.00(2) 0.36(2)
H5 H 0.47(2) 0.11(2) 0.92(2)
H6 H 0.48(2) 0.20(2) 1.04(2)
Cd1B Cd 0.54605(7) -0.09134(9) 0.66398(7)
Cd1C Cd 0.45395(7) 0.40866(9) 0.83602(7)
O3A O 0.4453(7) 0.6806(9) 0.7950(7)
O4C O 0.6148(6) 0.4672(9) 0.9821(6)
O4A O 0.3852(6) 0.5328(9) 1.0179(6)
loop_
_geom_bond_atom_site_label_1
_geom_bond_atom_site_label_2
_geom_bond_site_symmetry_1
_geom_bond_site_symmetry_2
I1 Cd1C 1_555 1_555
Cd1 O4 1_555 1_555
O1 H5 1_555 1_555
O2 C1 1_555 1_555
O3 C1 1_555 1_555
O4 N1 1_555 1_555
N1 C2 1_555 1_555
C1 C2 1_555 1_555
C2 C3 1_555 1_555
C3 C4 1_555 1_555
C4 C5 1_555 1_555
C5 C6 1_555 1_555
C6 N1 1_555 1_555
H1 C3 1_555 1_555
H2 C4 1_555 1_555
H3 C5 1_555 1_555
H4 C6 1_555 1_555
H6 O1 1_555 1_555
Cd1B O3 1_555 1_555
Cd1C O1 1_555 1_555
O3A Cd1C 1_555 1_555
O4C Cd1C 1_555 1_555
O4A Cd1C 1_555 1_555
O2 Cd1C 1_555 1_555
O3 Cd1C 1_555 1_555
O4 Cd1B 1_555 1_555

#END
