
#######################################################################
#
#                 Cambridge Crystallographic Data Centre
#                                CCDC 
#
#######################################################################
#
# If this CIF has been generated from an entry in the Cambridge 
# Structural Database, then it will include bibliographic, chemical, 
# crystal, experimental, refinement or atomic coordinate data resulting 
# from the CCDC's data processing and validation procedures.
#
#######################################################################

data_TEQVIW
_symmetry_cell_setting           triclinic
_symmetry_space_group_name_H-M   'P -1'
_symmetry_Int_Tables_number      2
_space_group_name_Hall           '-P 1'
loop_
_symmetry_equiv_pos_site_id
_symmetry_equiv_pos_as_xyz
1 x,y,z
2 -x,-y,-z
_cell_length_a                   8.0667(3)
_cell_length_b                   12.2547(8)
_cell_length_c                   12.5910(6)
_cell_angle_alpha                95.846(5)
_cell_angle_beta                 93.184(4)
_cell_angle_gamma                95.283(4)
_cell_volume                     1230.3
loop_
_atom_site_label
_atom_site_type_symbol
_atom_site_fract_x
_atom_site_fract_y
_atom_site_fract_z
Zn1 Zn 0.56898(6) 0.29877(4) 1.10125(4)
Zn2 Zn 1.04764(6) 0.60362(4) 1.78420(4)
Zn3 Zn 0.19478(6) 0.49145(4) 1.03881(4)
O1 O 0.3607(4) 0.2193(3) 1.0375(3)
O2 O 0.1847(5) 0.3343(3) 0.9774(3)
O3 O 0.2856(4) -0.1769(3) 0.9050(3)
O4 O 0.0341(4) -0.2436(3) 0.8303(3)
O5 O 0.6790(4) 0.4808(3) 1.8133(3)
O6 O 0.8499(4) 0.5443(3) 1.6946(3)
O7 O 0.5352(4) 0.3209(3) 1.2532(3)
O8 O 0.7834(4) 0.4031(3) 1.3194(3)
O9 O 0.6274(5) 0.4153(3) 1.0149(3)
O10 O 1.0342(4) 0.5030(3) 1.8964(3)
C1 C 0.2318(5) 0.2400(4) 0.9850(4)
C2 C 0.1271(5) 0.1420(4) 0.9258(4)
C3 C 0.1844(5) 0.0386(4) 0.9224(4)
H1 H 0.2880 0.0298 0.9550
C4 C 0.0852(5) -0.0520(4) 0.8699(4)
C5 C 0.1407(5) -0.1657(4) 0.8677(4)
C6 C -0.0699(5) -0.0381(4) 0.8207(4)
H2 H -0.1344 -0.0992 0.7853
C7 C -0.1304(5) 0.0648(4) 0.8231(4)
C8 C -0.0296(5) 0.1542(4) 0.8768(4)
H3 H -0.0672 0.2239 0.8802
C9 C -0.3029(6) 0.0769(4) 0.7691(4)
C10 C -0.4259(8) -0.0194(7) 0.7848(9)
H4 H -0.4203 -0.0322 0.8588
H5 H -0.5366 -0.0033 0.7639
H6 H -0.3994 -0.0839 0.7418
C11 C -0.2900(8) 0.0791(9) 0.6508(5)
H7 H -0.2407 0.0150 0.6221
H8 H -0.3993 0.0797 0.6167
H9 H -0.2216 0.1442 0.6379
C12 C -0.3719(9) 0.1799(7) 0.8161(7)
H10 H -0.3129 0.2431 0.7914
H11 H -0.4882 0.1770 0.7941
H12 H -0.3587 0.1851 0.8927
C13 C 0.7218(5) 0.4884(4) 1.7193(4)
C14 C 0.6166(5) 0.4240(4) 1.6276(4)
C15 C 0.6760(5) 0.4196(4) 1.5252(4)
H13 H 0.7800 0.4546 1.5145
C16 C 0.5781(5) 0.3623(4) 1.4398(3)
C17 C 0.6370(5) 0.3618(4) 1.3288(4)
C18 C 0.4214(6) 0.3103(4) 1.4562(4)
H14 H 0.3565 0.2731 1.3980
C19 C 0.3600(6) 0.3129(4) 1.5577(4)
C20 C 0.4606(5) 0.3702(4) 1.6428(4)
H15 H 0.4230 0.3728 1.7114
C21 C 0.1883(6) 0.2547(4) 1.5754(4)
C22 C 0.1032(8) 0.3220(6) 1.6618(6)
H16 H 0.1629 0.3213 1.7298
H17 H -0.0095 0.2903 1.6651
H18 H 0.1028 0.3965 1.6448
C23 C 0.2103(8) 0.1407(5) 1.6110(6)
H19 H 0.2627 0.0977 1.5567
H20 H 0.1031 0.1041 1.6218
H21 H 0.2790 0.1487 1.6766
C24 C 0.0717(7) 0.2408(7) 1.4740(5)
H22 H 0.0720 0.3100 1.4442
H23 H -0.0394 0.2172 1.4912
H24 H 0.1094 0.1866 1.4227
H25 H 1.034(7) 0.452(5) 1.875(4)
H26 H 0.561(7) 0.411(5) 0.982(5)
Zn1A Zn 0.43102(6) -0.29877(4) 0.89875(4)
Zn2_2 Zn 0.04764(6) -0.39638(4) 0.78420(4)
Zn2A Zn 0.95236(6) 0.39638(4) 1.21580(4)
Zn3A Zn 0.80522(6) 0.50855(4) 1.96119(4)
Zn3A_2 Zn 0.80522(6) 0.50855(4) 0.96119(4)
Zn3_2 Zn 1.19478(6) 0.49145(4) 2.03881(4)
O3A O 0.7144(4) 0.1769(3) 1.0950(3)
O4_2 O 1.0341(4) 0.7564(3) 1.8303(3)
O5A O 0.3210(4) 0.5192(3) 1.1867(3)
O8A O 1.2166(4) 0.5969(3) 1.6806(3)
O9A O 0.3726(5) 0.5847(3) 0.9851(3)
O10_2 O 0.0342(4) 0.5030(3) 0.8964(3)
O10A O -0.0342(4) 0.4970(3) 1.1036(3)
H25_2 H 0.034(7) 0.452(5) 0.875(4)
H25A H -0.034(7) 0.548(5) 1.125(4)
H26A H 0.439(7) 0.589(5) 1.018(5)
loop_
_geom_bond_atom_site_label_1
_geom_bond_atom_site_label_2
_geom_bond_site_symmetry_1
_geom_bond_site_symmetry_2
Zn1 O1 1_555 1_555
Zn2 O6 1_555 1_555
Zn3 O2 1_555 1_555
O1 C1 1_555 1_555
O2 C1 1_555 1_555
O3 C5 1_555 1_555
O4 C5 1_555 1_555
O5 C13 1_555 1_555
O6 C13 1_555 1_555
O7 Zn1 1_555 1_555
O8 C17 1_555 1_555
O9 Zn1 1_555 1_555
O10 Zn2 1_555 1_555
C1 C2 1_555 1_555
C2 C3 1_555 1_555
C3 H1 1_555 1_555
C4 C3 1_555 1_555
C5 C4 1_555 1_555
C6 C4 1_555 1_555
H2 C6 1_555 1_555
C7 C6 1_555 1_555
C8 C2 1_555 1_555
H3 C8 1_555 1_555
C9 C7 1_555 1_555
C10 C9 1_555 1_555
H4 C10 1_555 1_555
H5 C10 1_555 1_555
H6 C10 1_555 1_555
C11 C9 1_555 1_555
H7 C11 1_555 1_555
H8 C11 1_555 1_555
H9 C11 1_555 1_555
C12 C9 1_555 1_555
H10 C12 1_555 1_555
H11 C12 1_555 1_555
H12 C12 1_555 1_555
C13 C14 1_555 1_555
C14 C15 1_555 1_555
C15 H13 1_555 1_555
C16 C15 1_555 1_555
C17 O7 1_555 1_555
C18 C16 1_555 1_555
H14 C18 1_555 1_555
C19 C18 1_555 1_555
C20 C14 1_555 1_555
H15 C20 1_555 1_555
C21 C19 1_555 1_555
C22 C21 1_555 1_555
H16 C22 1_555 1_555
H17 C22 1_555 1_555
H18 C22 1_555 1_555
C23 C21 1_555 1_555
H19 C23 1_555 1_555
H20 C23 1_555 1_555
H21 C23 1_555 1_555
C24 C21 1_555 1_555
H22 C24 1_555 1_555
H23 C24 1_555 1_555
H24 C24 1_555 1_555
H25 O10 1_555 1_555
H26 O9 1_555 1_555
Zn1A O3 1_555 1_555
Zn2_2 O4 1_555 1_555
Zn2A O8 1_555 1_555
Zn3A O5 1_555 1_555
Zn3A_2 O9 1_555 1_555
Zn3_2 O10 1_555 1_555
O3A Zn1 1_555 1_555
O4_2 Zn2 1_555 1_555
O5A Zn3 1_555 1_555
O8A Zn2 1_555 1_555
O9A Zn3 1_555 1_555
O10_2 Zn3 1_555 1_555
O10A Zn3 1_555 1_555
H25_2 O10_2 1_555 1_555
H25A O10A 1_555 1_555
H26A O9A 1_555 1_555
O10 Zn3A 1_555 1_555
C7 C8 1_555 1_555
C16 C17 1_555 1_555
C19 C20 1_555 1_555

#END
