
#######################################################################
#
#                 Cambridge Crystallographic Data Centre
#                                CCDC 
#
#######################################################################
#
# If this CIF has been generated from an entry in the Cambridge 
# Structural Database, then it will include bibliographic, chemical, 
# crystal, experimental, refinement or atomic coordinate data resulting 
# from the CCDC's data processing and validation procedures.
#
#######################################################################

data_TEQWIX
_symmetry_cell_setting           orthorhombic
_symmetry_space_group_name_H-M   'P b c a'
_symmetry_Int_Tables_number      61
_space_group_name_Hall           '-P 2ac 2ab'
loop_
_symmetry_equiv_pos_site_id
_symmetry_equiv_pos_as_xyz
1 x,y,z
2 1/2-x,-y,1/2+z
3 1/2+x,1/2-y,-z
4 -x,1/2+y,1/2-z
5 -x,-y,-z
6 1/2+x,y,1/2-z
7 1/2-x,1/2+y,z
8 x,1/2-y,1/2+z
_cell_length_a                   11.8565(11)
_cell_length_b                   11.0480(8)
_cell_length_c                   20.2252(16)
_cell_angle_alpha                90
_cell_angle_beta                 90
_cell_angle_gamma                90
_cell_volume                     2649.31
loop_
_atom_site_label
_atom_site_type_symbol
_atom_site_fract_x
_atom_site_fract_y
_atom_site_fract_z
Zn1 Zn 0.334711(18) 0.104914(18) 0.385558(10)
O1 O -0.00188(13) 0.09881(14) 0.12762(7)
O2 O 0.00227(13) -0.04790(14) 0.20426(8)
O3 O 0.29050(14) 0.63063(13) 0.53876(8)
O4 O 0.54239(13) 0.34558(14) 0.61060(7)
N1 N 0.28112(14) 0.12865(15) 0.28934(8)
N2 N 0.31195(13) 0.27127(13) 0.42367(8)
N3 N 0.23639(13) 0.45961(13) 0.42471(7)
N4 N 0.41423(14) 0.48546(15) 0.57481(8)
N5 N 0.43137(14) 0.29391(14) 0.52285(8)
C1 C 0.04242(17) 0.04027(18) 0.17607(10)
C2 C 0.15279(16) 0.09477(17) 0.19917(10)
C3 C 0.19051(17) 0.07402(18) 0.26323(10)
H1 H 0.1500 0.0182 0.2899
C4 C 0.21435(18) 0.17455(19) 0.16005(10)
H2 H 0.1915 0.1906 0.1159
C5 C 0.30931(18) 0.2305(2) 0.18604(11)
H3 H 0.3528 0.2846 0.1599
C6 C 0.33946(17) 0.20605(18) 0.25067(10)
H4 H 0.4039 0.2453 0.2686
C7 C 0.24165(16) 0.35266(16) 0.39449(9)
H5 H 0.1997 0.3347 0.3557
C8 C 0.35323(15) 0.33275(16) 0.47710(9)
C9 C 0.30821(16) 0.44727(17) 0.47861(9)
C10 C 0.33263(16) 0.53069(17) 0.53060(9)
C11 C 0.46802(16) 0.37288(17) 0.57151(10)
C12 C 0.4433(2) 0.5615(2) 0.63221(12)
H6 H 0.4157 0.5230 0.6727
H7 H 0.4081 0.6413 0.6273
H8 H 0.5254 0.5708 0.6347
C13 C 0.47994(19) 0.17166(18) 0.52198(11)
H9 H 0.4213 0.1130 0.5102
H10 H 0.5101 0.1522 0.5658
H11 H 0.5409 0.1682 0.4893
Zn1E Zn -0.165289(18) 0.104914(18) 0.114442(10)
Zn1F Zn 0.165289(18) 0.604914(18) 0.385558(10)
O1E O 0.49812(13) 0.09881(14) 0.37238(7)
N3F N 0.26361(13) -0.04039(13) 0.42471(7)
loop_
_geom_bond_atom_site_label_1
_geom_bond_atom_site_label_2
_geom_bond_site_symmetry_1
_geom_bond_site_symmetry_2
Zn1 N1 1_555 1_555
O1 C1 1_555 1_555
O2 C1 1_555 1_555
O3 C10 1_555 1_555
O4 C11 1_555 1_555
N1 C3 1_555 1_555
N2 Zn1 1_555 1_555
N3 C7 1_555 1_555
N4 C10 1_555 1_555
N5 C8 1_555 1_555
C1 C2 1_555 1_555
C2 C3 1_555 1_555
C3 H1 1_555 1_555
C4 C2 1_555 1_555
H2 C4 1_555 1_555
C5 C4 1_555 1_555
H3 C5 1_555 1_555
C6 N1 1_555 1_555
H4 C6 1_555 1_555
C7 N2 1_555 1_555
H5 C7 1_555 1_555
C8 N2 1_555 1_555
C9 N3 1_555 1_555
C10 C9 1_555 1_555
C11 N4 1_555 1_555
C12 N4 1_555 1_555
H6 C12 1_555 1_555
H7 C12 1_555 1_555
H8 C12 1_555 1_555
C13 N5 1_555 1_555
H9 C13 1_555 1_555
H10 C13 1_555 1_555
H11 C13 1_555 1_555
Zn1E O1 1_555 1_555
Zn1F N3 1_555 1_555
O1E Zn1 1_555 1_555
N3F Zn1 1_555 1_555
N5 C11 1_555 1_555
C5 C6 1_555 1_555
C8 C9 1_555 1_555

#END
