
#######################################################################
#
#                 Cambridge Crystallographic Data Centre
#                                CCDC 
#
#######################################################################
#
# If this CIF has been generated from an entry in the Cambridge 
# Structural Database, then it will include bibliographic, chemical, 
# crystal, experimental, refinement or atomic coordinate data resulting 
# from the CCDC's data processing and validation procedures.
#
#######################################################################

data_TEQWET
_symmetry_cell_setting           monoclinic
_symmetry_space_group_name_H-M   'C 2/c'
_symmetry_Int_Tables_number      15
_space_group_name_Hall           '-C 2yn'
loop_
_symmetry_equiv_pos_site_id
_symmetry_equiv_pos_as_xyz
1 x,y,z
2 -x,y,1/2-z
3 1/2+x,1/2+y,z
4 1/2-x,1/2+y,1/2-z
5 -x,-y,-z
6 x,-y,1/2+z
7 1/2-x,1/2-y,-z
8 1/2+x,1/2-y,1/2+z
_cell_length_a                   16.023(2)
_cell_length_b                   13.4229(16)
_cell_length_c                   11.4932(19)
_cell_angle_alpha                90
_cell_angle_beta                 103.331(9)
_cell_angle_gamma                90
_cell_volume                     2405.29
loop_
_atom_site_label
_atom_site_type_symbol
_atom_site_fract_x
_atom_site_fract_y
_atom_site_fract_z
Zn1 Zn 0.395718(19) 0.01218(2) 0.19036(2)
O1 O 0.44440(13) 0.14779(15) 0.17082(17)
O2 O 0.5000 -0.06047(19) 0.2500
O3 O 0.20763(14) 0.12004(18) 0.62677(18)
O4 O 0.10377(13) 0.25518(17) 0.2556(2)
N1 N 0.33818(14) 0.03224(18) 0.32532(18)
N2 N 0.33944(14) 0.01372(17) 0.52101(19)
N3 N 0.21670(14) 0.14927(18) 0.2755(2)
N4 N 0.15380(14) 0.18411(17) 0.4383(2)
C1 C 0.37549(17) -0.0107(2) 0.4318(2)
H1 H 0.4233 -0.0543 0.4415
C2 C 0.27413(16) 0.0882(2) 0.3512(2)
C3 C 0.27343(16) 0.0776(2) 0.4689(2)
C4 C 0.21248(17) 0.1263(2) 0.5221(2)
C5 C 0.15564(17) 0.2000(2) 0.3194(3)
C6 C 0.08222(19) 0.2300(2) 0.4797(3)
H2 H 0.0864 0.3027 0.4757
H3 H 0.0850 0.2098 0.5624
H4 H 0.0277 0.2080 0.4285
H5 H 0.5000 -0.1256 0.2500
C7 C 0.2211(2) 0.1646(3) 0.1514(3)
H6 H 0.1787 0.2147 0.1146
H7 H 0.2088 0.1017 0.1074
H8 H 0.2786 0.1876 0.1486
C8 C 0.5000 0.1917(3) 0.2500
C9 C 0.5000 0.3025(3) 0.2500
C10 C 0.4400(2) 0.3543(3) 0.1675(4)
H9 H 0.3976 0.3194 0.1105
C11 C 0.4414(3) 0.4575(3) 0.1675(5)
H10 H 0.4008 0.4932 0.1091
C12 C 0.5000 0.5078(4) 0.2500
H11 H 0.5000 0.5786 0.2500
Zn1A Zn 0.604282(19) 0.01218(2) 0.30964(2)
Zn1D Zn 0.604282(19) -0.01218(2) -0.19036(2)
Zn1E Zn 0.395718(19) -0.01218(2) 0.69036(2)
O1A O 0.55560(13) 0.14779(15) 0.32918(17)
O3A O 0.79237(14) 0.12004(18) -0.12677(18)
O4A O 0.89623(13) 0.25518(17) 0.2444(2)
N1A N 0.66182(14) 0.03224(18) 0.17468(18)
N2A N 0.66056(14) 0.01372(17) -0.02101(19)
N2D N 0.66056(14) -0.01372(17) 0.47899(19)
N2E N 0.33944(14) -0.01372(17) 0.02101(19)
N3A N 0.78330(14) 0.14927(18) 0.2245(2)
N4A N 0.84620(14) 0.18411(17) 0.0617(2)
C1A C 0.62451(17) -0.0107(2) 0.0682(2)
H1A H 0.5767 -0.0543 0.0585
C2A C 0.72587(16) 0.0882(2) 0.1488(2)
C3A C 0.72657(16) 0.0776(2) 0.0311(2)
C4A C 0.78752(17) 0.1263(2) -0.0221(2)
C5A C 0.84436(17) 0.2000(2) 0.1806(3)
C6A C 0.91778(19) 0.2300(2) 0.0203(3)
H2A H 0.9136 0.3027 0.0243
H3A H 0.9150 0.2098 -0.0624
H4A H 0.9723 0.2080 0.0715
C7A C 0.7789(2) 0.1646(3) 0.3486(3)
H6A H 0.8213 0.2147 0.3854
H7A H 0.7912 0.1017 0.3926
H8A H 0.7214 0.1876 0.3514
C10A C 0.5600(2) 0.3543(3) 0.3325(4)
H9A H 0.6024 0.3194 0.3895
C11A C 0.5586(3) 0.4575(3) 0.3325(5)
H10A H 0.5992 0.4932 0.3909
loop_
_geom_bond_atom_site_label_1
_geom_bond_atom_site_label_2
_geom_bond_site_symmetry_1
_geom_bond_site_symmetry_2
Zn1 O1 1_555 1_555
O1 C8 1_555 1_555
O2 Zn1 1_555 1_555
O3 C4 1_555 1_555
O4 C5 1_555 1_555
N1 Zn1 1_555 1_555
N2 C1 1_555 1_555
N3 C2 1_555 1_555
N4 C4 1_555 1_555
C1 N1 1_555 1_555
H1 C1 1_555 1_555
C2 N1 1_555 1_555
C3 N2 1_555 1_555
C4 C3 1_555 1_555
C5 N3 1_555 1_555
C6 N4 1_555 1_555
H2 C6 1_555 1_555
H3 C6 1_555 1_555
H4 C6 1_555 1_555
H5 O2 1_555 1_555
C7 N3 1_555 1_555
H6 C7 1_555 1_555
H7 C7 1_555 1_555
H8 C7 1_555 1_555
C8 C9 1_555 1_555
C9 C10 1_555 1_555
C10 H9 1_555 1_555
C11 C10 1_555 1_555
H10 C11 1_555 1_555
C12 C11 1_555 1_555
H11 C12 1_555 1_555
Zn1A O2 1_555 1_555
Zn1D N2A 1_555 1_555
Zn1E N2 1_555 1_555
O1A C8 1_555 1_555
O3A C4A 1_555 1_555
O4A C5A 1_555 1_555
N1A Zn1A 1_555 1_555
N2A C1A 1_555 1_555
N2D Zn1A 1_555 1_555
N2E Zn1 1_555 1_555
N3A C2A 1_555 1_555
N4A C4A 1_555 1_555
C1A N1A 1_555 1_555
H1A C1A 1_555 1_555
C2A N1A 1_555 1_555
C3A N2A 1_555 1_555
C4A C3A 1_555 1_555
C5A N3A 1_555 1_555
C6A N4A 1_555 1_555
H2A C6A 1_555 1_555
H3A C6A 1_555 1_555
H4A C6A 1_555 1_555
C7A N3A 1_555 1_555
H6A C7A 1_555 1_555
H7A C7A 1_555 1_555
H8A C7A 1_555 1_555
C10A C9 1_555 1_555
H9A C10A 1_555 1_555
C11A C12 1_555 1_555
H10A C11A 1_555 1_555
N4 C5 1_555 1_555
C2 C3 1_555 1_555
Zn1A O1A 1_555 1_555
N4A C5A 1_555 1_555
C2A C3A 1_555 1_555
C10A C11A 1_555 1_555

#END
