
#######################################################################
#
#                 Cambridge Crystallographic Data Centre
#                                CCDC 
#
#######################################################################
#
# If this CIF has been generated from an entry in the Cambridge 
# Structural Database, then it will include bibliographic, chemical, 
# crystal, experimental, refinement or atomic coordinate data resulting 
# from the CCDC's data processing and validation procedures.
#
#######################################################################

data_TERNUA
_symmetry_cell_setting           monoclinic
_symmetry_space_group_name_H-M   'C 2/c'
_symmetry_Int_Tables_number      15
_space_group_name_Hall           '-C 2yn'
loop_
_symmetry_equiv_pos_site_id
_symmetry_equiv_pos_as_xyz
1 x,y,z
2 1/2+x,1/2+y,z
3 -x,y,1/2-z
4 1/2-x,1/2+y,1/2-z
5 -x,-y,-z
6 1/2-x,1/2-y,-z
7 x,-y,1/2+z
8 1/2+x,1/2-y,1/2+z
_cell_length_a                   18.010(7)
_cell_length_b                   11.478(7)
_cell_length_c                   18.743(12)
_cell_angle_alpha                90
_cell_angle_beta                 108.91(3)
_cell_angle_gamma                90
_cell_volume                     3665.42
loop_
_atom_site_label
_atom_site_type_symbol
_atom_site_fract_x
_atom_site_fract_y
_atom_site_fract_z
O8 O 0.4752(5) 0.7751(5) 0.7560(4)
O8B O 0.5248(5) 0.7751(5) 0.7440(4)
Eu1 Eu 0.498091(3) 0.058967(4) 0.898036(3)
O1 O 0.40982(7) 0.05628(11) 0.77564(6)
O2 O 0.41338(5) 0.01120(9) 0.66145(5)
O3 O 0.06978(8) 0.32197(12) 0.49946(6)
O4 O 0.07364(12) 0.38593(17) 0.61339(7)
O5 O 0.39304(7) 0.18172(11) 0.90617(6)
O6 O 0.42060(7) 0.06532(11) 1.00488(8)
O7 O 0.52735(8) 0.24314(10) 0.84810(7)
N1 N 0.55747(17) 0.43506(14) 0.86723(17)
C1 C 0.38204(6) 0.05873(10) 0.70580(6)
C2 C 0.30553(7) 0.12072(11) 0.67100(6)
C3 C 0.27018(9) 0.17930(15) 0.71686(7)
H1 H 0.2924 0.1758 0.7690
C4 C 0.20182(12) 0.24279(18) 0.68462(7)
H2 H 0.1785 0.2820 0.7152
C5 C 0.16815(11) 0.24776(15) 0.60620(7)
C6 C 0.20235(9) 0.18691(13) 0.56052(7)
H3 H 0.1791 0.1884 0.5084
C7 C 0.27102(8) 0.12408(13) 0.59267(6)
H4 H 0.2940 0.0842 0.5620
C8 C 0.09804(13) 0.32341(17) 0.57025(8)
C9 C 0.37941(7) 0.14514(13) 0.96395(8)
C10 C 0.31243(8) 0.19848(13) 0.98321(8)
C11 C 0.30288(9) 0.17871(14) 1.05310(8)
H5 H 0.3381 0.1314 1.0885
C12 C 0.25960(9) 0.26990(15) 0.93044(8)
H6 H 0.2662 0.2832 0.8839
C13 C 0.5187(2) 0.33910(18) 0.8711(2)
H7 H 0.4804 0.3459 0.8942
C16 C 0.6014(3) 0.4414(3) 0.8133(3)
H13 H 0.5774 0.5005 0.7760
H14 H 0.5959 0.3674 0.7871
C17 C 0.6870(4) 0.4684(8) 0.8469(6)
H15 H 0.6934 0.5436 0.8706
H16 H 0.7108 0.4686 0.8079
H17 H 0.7118 0.4103 0.8838
C20 C 0.5679(4) 0.5393(4) 0.9200(5)
H23 H 0.5557 0.5166 0.9648
H24 H 0.6220 0.5653 0.9355
C21 C 0.5152(6) 0.6364(6) 0.8812(8)
H25 H 0.5272 0.6585 0.8368
H26 H 0.5228 0.7019 0.9146
H27 H 0.4615 0.6112 0.8672
Eu1B Eu 0.501909(3) 0.058967(4) 0.601964(3)
Eu1G Eu -0.001909(3) 0.441033(4) 0.398036(3)
Eu1C Eu 0.001909(3) 0.558967(4) 0.601964(3)
Eu1D Eu 0.501909(3) -0.058967(4) 1.101964(3)
Eu1E Eu 0.001909(3) 0.441033(4) 1.101964(3)
Eu1A Eu -0.001909(3) 0.558967(4) 0.898036(3)
Eu1E_2 Eu 1.001909(3) 0.441033(4) 1.101964(3)
Eu1A_2 Eu 0.998091(3) 0.558967(4) 0.898036(3)
O1B O 0.59018(7) 0.05628(11) 0.72436(6)
O2B O 0.58662(5) 0.01120(9) 0.83855(5)
O3B O 0.93022(8) 0.32197(12) 1.00054(6)
O3G O 0.56978(8) 0.17803(12) 0.99946(6)
O3E O 0.43022(8) 0.17803(12) 0.50054(6)
O4B O 0.92636(12) 0.38593(17) 0.88661(7)
O4C O 0.42636(12) -0.11407(17) 0.88661(7)
O4A O 0.57364(12) -0.11407(17) 0.61339(7)
O5E O 0.10696(7) 0.31828(11) 1.09383(6)
O5B O 0.60696(7) 0.18172(11) 0.59383(6)
O6E O 0.07940(7) 0.43468(11) 0.99512(8)
O6D O 0.57940(7) -0.06532(11) 0.99512(8)
O6F O 0.42060(7) -0.06532(11) 0.50488(8)
O6B O 0.57940(7) 0.06532(11) 0.49512(8)
O7B O 0.47265(8) 0.24314(10) 0.65190(7)
N1B N 0.44253(17) 0.43506(14) 0.63277(17)
C1B C 0.61796(6) 0.05873(10) 0.79420(6)
C2B C 0.69447(7) 0.12072(11) 0.82900(6)
C3B C 0.72982(9) 0.17930(15) 0.78314(7)
H1B H 0.7076 0.1758 0.7310
C4B C 0.79818(12) 0.24279(18) 0.81538(7)
H2B H 0.8215 0.2820 0.7848
C5B C 0.83185(11) 0.24776(15) 0.89380(7)
C6B C 0.79765(9) 0.18691(13) 0.93948(7)
H3B H 0.8209 0.1884 0.9916
C7B C 0.72898(8) 0.12408(13) 0.90733(6)
H4B H 0.7060 0.0842 0.9380
C8B C 0.90196(13) 0.32341(17) 0.92975(8)
C9E C 0.12059(7) 0.35486(13) 1.03605(8)
C10E C 0.18757(8) 0.30152(13) 1.01679(8)
C11E C 0.19712(9) 0.32129(14) 0.94690(8)
H5E H 0.1619 0.3686 0.9115
C12E C 0.24040(9) 0.23010(15) 1.06956(8)
H6E H 0.2338 0.2168 1.1161
C13B C 0.4813(2) 0.33910(18) 0.6289(2)
H7B H 0.5196 0.3459 0.6058
C16B C 0.3986(3) 0.4414(3) 0.6867(3)
H13B H 0.4226 0.5005 0.7240
H14B H 0.4041 0.3674 0.7129
C17B C 0.3130(4) 0.4684(8) 0.6531(6)
H15B H 0.3066 0.5436 0.6294
H16B H 0.2892 0.4686 0.6921
H17B H 0.2882 0.4103 0.6162
C20B C 0.4321(4) 0.5393(4) 0.5800(5)
H23B H 0.4443 0.5166 0.5352
H24B H 0.3780 0.5653 0.5645
C21B C 0.4848(6) 0.6364(6) 0.6188(8)
H25B H 0.4728 0.6585 0.6632
H26B H 0.4772 0.7019 0.5854
H27B H 0.5385 0.6112 0.6328
C14? C 0.6342(3) 0.4262(4) 0.8584(4)
H8? H 0.6457 0.3446 0.8534
H9? H 0.6731 0.4555 0.9038
C15? C 0.6420(7) 0.4906(12) 0.7926(7)
H10? H 0.6102 0.4539 0.7469
H11? H 0.6959 0.4899 0.7944
H12? H 0.6250 0.5696 0.7939
C18? C 0.5233(3) 0.5452(3) 0.8816(3)
H18? H 0.4677 0.5358 0.8740
H19? H 0.5298 0.6057 0.8480
C19? C 0.5668(4) 0.5764(6) 0.9623(4)
H20? H 0.5619 0.5140 0.9946
H21? H 0.5450 0.6463 0.9754
H22? H 0.6212 0.5887 0.9684
loop_
_geom_bond_atom_site_label_1
_geom_bond_atom_site_label_2
_geom_bond_site_symmetry_1
_geom_bond_site_symmetry_2
Eu1 O1 1_555 1_555
O1 C1 1_555 1_555
O2 C1 1_555 1_555
O3 C8 1_555 1_555
O4 C8 1_555 1_555
O5 Eu1 1_555 1_555
O6 Eu1 1_555 1_555
O7 Eu1 1_555 1_555
N1 C13 1_555 1_555
C1 C2 1_555 1_555
C2 C3 1_555 1_555
C3 H1 1_555 1_555
C4 C3 1_555 1_555
H2 C4 1_555 1_555
C5 C4 1_555 1_555
C6 C5 1_555 1_555
H3 C6 1_555 1_555
C7 C2 1_555 1_555
H4 C7 1_555 1_555
C8 C5 1_555 1_555
C9 O5 1_555 1_555
C10 C9 1_555 1_555
C11 C10 1_555 1_555
H5 C11 1_555 1_555
C12 C10 1_555 1_555
H6 C12 1_555 1_555
C13 O7 1_555 1_555
H7 C13 1_555 1_555
C16 N1 1_555 1_555
H13 C16 1_555 1_555
H14 C16 1_555 1_555
C17 C16 1_555 1_555
H15 C17 1_555 1_555
H16 C17 1_555 1_555
H17 C17 1_555 1_555
C20 N1 1_555 1_555
H23 C20 1_555 1_555
H24 C20 1_555 1_555
C21 C20 1_555 1_555
H25 C21 1_555 1_555
H26 C21 1_555 1_555
H27 C21 1_555 1_555
O8 O8B 1_555 1_555
Eu1B O2 1_555 1_555
Eu1G O3 1_555 1_555
Eu1C O4 1_555 1_555
Eu1D O6 1_555 1_555
Eu1E O5E 1_555 1_555
Eu1A O6E 1_555 1_555
Eu1E_2 O3B 1_555 1_555
Eu1A_2 O4B 1_555 1_555
O1B Eu1B 1_555 1_555
O2B Eu1 1_555 1_555
O3B C8B 1_555 1_555
O3G Eu1 1_555 1_555
O3E Eu1B 1_555 1_555
O4B C8B 1_555 1_555
O4C Eu1 1_555 1_555
O4A Eu1B 1_555 1_555
O5E C9E 1_555 1_555
O5B Eu1B 1_555 1_555
O6E Eu1E 1_555 1_555
O6D Eu1 1_555 1_555
O6F Eu1B 1_555 1_555
O6B Eu1B 1_555 1_555
O7B Eu1B 1_555 1_555
N1B C13B 1_555 1_555
C1B O1B 1_555 1_555
C2B C1B 1_555 1_555
C3B C2B 1_555 1_555
H1B C3B 1_555 1_555
C4B C3B 1_555 1_555
H2B C4B 1_555 1_555
C5B C4B 1_555 1_555
C6B C5B 1_555 1_555
H3B C6B 1_555 1_555
C7B C2B 1_555 1_555
H4B C7B 1_555 1_555
C8B C5B 1_555 1_555
C9E O6E 1_555 1_555
C10E C9E 1_555 1_555
C11E C12 1_555 1_555
H5E C11E 1_555 1_555
C12E C11 1_555 1_555
H6E C12E 1_555 1_555
C13B O7B 1_555 1_555
H7B C13B 1_555 1_555
C16B N1B 1_555 1_555
H13B C16B 1_555 1_555
H14B C16B 1_555 1_555
C17B C16B 1_555 1_555
H15B C17B 1_555 1_555
H16B C17B 1_555 1_555
H17B C17B 1_555 1_555
C20B N1B 1_555 1_555
H23B C20B 1_555 1_555
H24B C20B 1_555 1_555
C21B C20B 1_555 1_555
H25B C21B 1_555 1_555
H26B C21B 1_555 1_555
H27B C21B 1_555 1_555
O6 C9 1_555 1_555
C6 C7 1_555 1_555
Eu1D O6D 1_555 1_555
O2B C1B 1_555 1_555
C6B C7B 1_555 1_555
C10E C11E 1_555 1_555
C10E C12E 1_555 1_555

#END
