
#######################################################################
#
#                 Cambridge Crystallographic Data Centre
#                                CCDC 
#
#######################################################################
#
# If this CIF has been generated from an entry in the Cambridge 
# Structural Database, then it will include bibliographic, chemical, 
# crystal, experimental, refinement or atomic coordinate data resulting 
# from the CCDC's data processing and validation procedures.
#
#######################################################################

data_TERQAI
_symmetry_cell_setting           monoclinic
_symmetry_space_group_name_H-M   'P 21/n'
_symmetry_Int_Tables_number      14
_space_group_name_Hall           '-P 2yn'
loop_
_symmetry_equiv_pos_site_id
_symmetry_equiv_pos_as_xyz
1 x,y,z
2 1/2-x,1/2+y,1/2-z
3 -x,-y,-z
4 1/2+x,1/2-y,1/2+z
_cell_length_a                   10.3223(5)
_cell_length_b                   8.3892(3)
_cell_length_c                   19.9025(9)
_cell_angle_alpha                90
_cell_angle_beta                 97.533(4)
_cell_angle_gamma                90
_cell_volume                     1708.6
loop_
_atom_site_label
_atom_site_type_symbol
_atom_site_fract_x
_atom_site_fract_y
_atom_site_fract_z
Cu1 Cu 0.39772(5) 0.24319(5) 0.34282(2)
O1 O 0.4406(3) 0.3184(3) 0.43277(11)
O2 O 0.3528(2) 0.1429(3) 0.25317(12)
O3 O 0.2837(3) 0.4788(3) 0.30623(12)
N1 N 0.2663(3) 0.0990(3) 0.36704(13)
N2 N 0.5667(3) 0.3142(4) 0.31467(14)
N3 N 0.6049(3) 0.2761(4) 0.25509(17)
H1 H 0.5570 0.2273 0.2229
C1 C 0.4218(4) 0.2388(4) 0.48733(19)
C2 C 0.4867(4) 0.2899(5) 0.55041(19)
H3 H 0.5371 0.3820 0.5524
C3 C 0.4772(4) 0.2070(5) 0.60904(19)
H4 H 0.5219 0.2434 0.6498
C4 C 0.4021(4) 0.0696(5) 0.60852(18)
H5 H 0.3979 0.0124 0.6482
C5 C 0.3343(4) 0.0200(4) 0.54837(17)
H6 H 0.2825 -0.0708 0.5480
C6 C 0.3405(3) 0.1020(4) 0.48704(16)
C7 C 0.2644(3) 0.0425(4) 0.42709(16)
H7 H 0.2094 -0.0434 0.4318
C8 C 0.1823(3) 0.0320(4) 0.30860(17)
H8 H 0.1654 -0.0809 0.3166
C9 C 0.2547(3) 0.0496(4) 0.24761(17)
C10 C 0.0534(3) 0.1241(5) 0.2981(2)
H9 H 0.0089 0.1116 0.3372
H10 H -0.0005 0.0834 0.2588
H11 H 0.0708 0.2350 0.2915
C11 C 0.7267(4) 0.3238(6) 0.2522(2)
H12 H 0.7737 0.3095 0.2158
C12 C 0.7710(4) 0.3974(6) 0.3119(2)
H13 H 0.8527 0.4428 0.3246
C13 C 0.6677(4) 0.3896(5) 0.3493(2)
H14 H 0.6685 0.4311 0.3927
O3A O 0.2163(3) -0.0212(3) 0.19377(12)
Cu1A Cu 0.10228(5) -0.25681(5) 0.15718(2)
N4 N 0.4832(3) 0.1847(5) 0.11912(17)
N5 N 0.3716(3) 0.1087(4) 0.09822(16)
H2 H 0.3240 0.0633 0.1251
C14 C 0.5248(6) 0.2340(6) 0.0629(3)
H15 H 0.6022 0.2896 0.0613
C15 C 0.4378(5) 0.1921(7) 0.0064(2)
H16 H 0.4442 0.2150 -0.0388
C16 C 0.3424(5) 0.1111(6) 0.0313(2)
H17 H 0.2695 0.0652 0.0063
loop_
_geom_bond_atom_site_label_1
_geom_bond_atom_site_label_2
_geom_bond_site_symmetry_1
_geom_bond_site_symmetry_2
Cu1 O1 1_555 1_555
O1 C1 1_555 1_555
O2 Cu1 1_555 1_555
O3 Cu1 1_555 1_555
N1 Cu1 1_555 1_555
N2 Cu1 1_555 1_555
N3 N2 1_555 1_555
H1 N3 1_555 1_555
N4 N5 1_555 1_555
N5 H2 1_555 1_555
C1 C2 1_555 1_555
C2 H3 1_555 1_555
C3 C2 1_555 1_555
H4 C3 1_555 1_555
C4 C3 1_555 1_555
H5 C4 1_555 1_555
C5 C4 1_555 1_555
H6 C5 1_555 1_555
C6 C1 1_555 1_555
C7 N1 1_555 1_555
H7 C7 1_555 1_555
C8 N1 1_555 1_555
H8 C8 1_555 1_555
C9 O2 1_555 1_555
C10 C8 1_555 1_555
H9 C10 1_555 1_555
H10 C10 1_555 1_555
H11 C10 1_555 1_555
C11 N3 1_555 1_555
H12 C11 1_555 1_555
C12 C11 1_555 1_555
H13 C12 1_555 1_555
C13 N2 1_555 1_555
H14 C13 1_555 1_555
C14 N4 1_555 1_555
H15 C14 1_555 1_555
C15 C14 1_555 1_555
H16 C15 1_555 1_555
C16 N5 1_555 1_555
H17 C16 1_555 1_555
O3A C9 1_555 1_555
Cu1A O3A 1_555 1_555
C5 C6 1_555 1_555
C6 C7 1_555 1_555
C8 C9 1_555 1_555
C12 C13 1_555 1_555
C15 C16 1_555 1_555

#END
