
#######################################################################
#
#                 Cambridge Crystallographic Data Centre
#                                CCDC 
#
#######################################################################
#
# If this CIF has been generated from an entry in the Cambridge 
# Structural Database, then it will include bibliographic, chemical, 
# crystal, experimental, refinement or atomic coordinate data resulting 
# from the CCDC's data processing and validation procedures.
#
#######################################################################

data_TERRAK
_symmetry_cell_setting           triclinic
_symmetry_space_group_name_H-M   'P -1'
_symmetry_Int_Tables_number      2
_space_group_name_Hall           '-P 1'
loop_
_symmetry_equiv_pos_site_id
_symmetry_equiv_pos_as_xyz
1 x,y,z
2 -x,-y,-z
_cell_length_a                   7.884(3)
_cell_length_b                   8.213(3)
_cell_length_c                   9.860(3)
_cell_angle_alpha                75.319(5)
_cell_angle_beta                 74.170(4)
_cell_angle_gamma                72.364(5)
_cell_volume                     575.12
loop_
_atom_site_label
_atom_site_type_symbol
_atom_site_fract_x
_atom_site_fract_y
_atom_site_fract_z
N1 N 0.3537(5) 0.1293(5) 0.6090(4)
N2 N 0.1358(5) 0.5002(5) 0.6012(4)
Co1 Co 0.37793(8) 0.36529(7) 0.48980(6)
S1 S 0.32336(16) -0.21363(15) 0.67711(13)
S2 S -0.23291(16) 0.63721(19) 0.70911(14)
O1 O 0.4674(4) 0.5882(4) 0.3839(3)
N3 N 0.3948(5) 0.7100(5) 0.2812(4)
C1 C 0.3412(6) -0.0123(6) 0.6388(4)
C2 C 0.2548(7) 0.9589(6) 0.0714(5)
C3 C -0.0156(6) 0.5563(6) 0.6460(5)
O2 O 0.2005(5) 1.0766(5) -0.0407(4)
C4 C 0.2495(6) 0.8384(6) 0.3164(5)
H1 H 0.1966 0.8420 0.4126
C5 C 0.1778(6) 0.9643(6) 0.2126(5)
H2 H 0.0768 1.0536 0.2380
C6 C 0.4035(7) 0.8224(7) 0.0377(5)
H3 H 0.4571 0.8154 -0.0578
C7 C 0.4708(7) 0.6994(6) 0.1434(5)
H4 H 0.5698 0.6074 0.1203
C8 C 0.0621(8) 1.2297(7) -0.0124(6)
H5 H -0.0490 1.1986 0.0402
H6 H 0.0426 1.3057 -0.1015
H7 H 0.0994 1.2881 0.0431
Co1A Co 0.62207(8) -0.36529(7) 0.51020(6)
Co1A_2 Co -0.37793(8) 0.63471(7) 0.51020(6)
Co1A_3 Co 0.62207(8) 0.63471(7) 0.51020(6)
S1A S 0.67664(16) 0.21363(15) 0.32289(13)
S2A S 0.23291(16) 0.36279(19) 0.29089(14)
O1A O 0.5326(4) 0.4118(4) 0.6161(3)
loop_
_geom_bond_atom_site_label_1
_geom_bond_atom_site_label_2
_geom_bond_site_symmetry_1
_geom_bond_site_symmetry_2
N1 Co1 1_555 1_555
N2 Co1 1_555 1_555
Co1 O1 1_555 1_555
S1 C1 1_555 1_555
S2 C3 1_555 1_555
O1 N3 1_555 1_555
N3 C4 1_555 1_555
C1 N1 1_555 1_555
C2 O2 1_555 1_555
C3 N2 1_555 1_555
O2 C8 1_555 1_555
C4 H1 1_555 1_555
C5 C2 1_555 1_555
H2 C5 1_555 1_555
C6 C2 1_555 1_555
H3 C6 1_555 1_555
C7 N3 1_555 1_555
H4 C7 1_555 1_555
C8 H5 1_555 1_555
H6 C8 1_555 1_555
H7 C8 1_555 1_555
Co1A S1 1_555 1_555
Co1A_2 S2 1_555 1_555
Co1A_3 O1 1_555 1_555
S1A Co1 1_555 1_555
S2A Co1 1_555 1_555
O1A Co1 1_555 1_555
C4 C5 1_555 1_555
C6 C7 1_555 1_555
Co1A_3 O1A 1_555 1_555

#END
