
#######################################################################
#
#                 Cambridge Crystallographic Data Centre
#                                CCDC 
#
#######################################################################
#
# If this CIF has been generated from an entry in the Cambridge 
# Structural Database, then it will include bibliographic, chemical, 
# crystal, experimental, refinement or atomic coordinate data resulting 
# from the CCDC's data processing and validation procedures.
#
#######################################################################

data_TERVES01
_symmetry_cell_setting           monoclinic
_symmetry_space_group_name_H-M   'P 21/c'
_symmetry_Int_Tables_number      14
_space_group_name_Hall           '-P 2ybc'
loop_
_symmetry_equiv_pos_site_id
_symmetry_equiv_pos_as_xyz
1 x,y,z
2 -x,1/2+y,1/2-z
3 -x,-y,-z
4 x,1/2-y,1/2+z
_cell_length_a                   10.7660(4)
_cell_length_b                   10.6434(4)
_cell_length_c                   17.1331(6)
_cell_angle_alpha                90
_cell_angle_beta                 92.6540(10)
_cell_angle_gamma                90
_cell_volume                     1961.12
loop_
_atom_site_label
_atom_site_type_symbol
_atom_site_fract_x
_atom_site_fract_y
_atom_site_fract_z
Cd1 Cd 0.583509(10) 0.088066(11) 0.421469(6)
O1 O 0.80884(14) -0.52384(18) 0.06780(11)
O2 O 0.5579(2) -0.0314(2) 0.30477(13)
O3 O 0.7126(2) -0.09441(17) 0.37963(11)
O4 O 0.60879(12) -0.49061(15) 0.03878(8)
N1 N 0.8405(2) 0.66022(18) 0.53273(13)
N2 N 0.60495(15) 0.27841(15) 0.49401(9)
N3 N 0.9739(2) 0.60267(17) 0.40025(13)
N4 N 0.72757(14) 0.22582(15) 0.36335(9)
N5 N 0.58839(13) -0.32203(14) 0.15043(8)
C1 C 0.9980(2) 0.7026(2) 0.44375(15)
H1 H 1.0624 0.7557 0.4306
C2 C 0.6538(3) 0.4925(2) 0.58224(14)
H2 H 0.6700 0.5640 0.6122
C3 C 0.5435(2) 0.3028(2) 0.55807(13)
H3 H 0.4831 0.2463 0.5729
C4 C 0.5660(3) 0.4090(2) 0.60348(17)
H4 H 0.5216 0.4229 0.6479
C5 C 0.9304(3) 0.7314(2) 0.50895(17)
H5 H 0.9500 0.8044 0.5367
C6 C 0.8151(2) 0.5559(2) 0.48940(13)
C7 C 0.9085(2) 0.3861(2) 0.30832(14)
H6 H 0.9701 0.4383 0.2901
C8 C 0.88008(18) 0.52840(18) 0.42269(12)
C9 C 0.8754(2) 0.2795(2) 0.26860(12)
H7 H 0.9125 0.2595 0.2223
C10 C 0.71956(19) 0.47066(18) 0.51527(12)
C11 C 0.66962(16) -0.20427(17) 0.26052(10)
C12 C 0.79824(18) -0.3508(2) 0.19641(11)
H8 H 0.8743 -0.3908 0.1915
C13 C 0.69190(16) 0.36090(17) 0.47233(10)
C14 C 0.78335(19) -0.2634(2) 0.25499(11)
H9 H 0.8490 -0.2446 0.2903
C15 C 0.70878(17) -0.47265(18) 0.07856(11)
C16 C 0.78536(19) 0.2005(2) 0.29787(11)
H10 H 0.7647 0.1273 0.2707
C17 C 0.69882(16) -0.37823(18) 0.14517(10)
C18 C 0.84900(19) 0.41644(16) 0.37696(13)
C19 C 0.6460(2) -0.10416(19) 0.31972(13)
C20 C 0.75798(15) 0.33298(17) 0.40228(10)
C21 C 0.57455(16) -0.23713(17) 0.20651(11)
H11 H 0.4977 -0.1979 0.2097
Cd1A Cd 0.416491(10) -0.411934(11) 0.078531(6)
Cd1C Cd 0.583509(10) -0.588066(11) -0.078531(6)
O4A O 0.39121(12) 0.00939(15) 0.46122(8)
O4C O 0.60879(12) -0.00939(15) 0.53878(8)
N5A N 0.41161(13) 0.17797(14) 0.34957(8)
O5 O -0.0412(2) -0.0210(3) 0.35381(15)
H12 H -0.106(3) -0.032(4) 0.381(2)
H13 H 0.021(4) -0.023(6) 0.388(3)
loop_
_geom_bond_atom_site_label_1
_geom_bond_atom_site_label_2
_geom_bond_site_symmetry_1
_geom_bond_site_symmetry_2
Cd1 O2 1_555 1_555
O1 C15 1_555 1_555
O2 C19 1_555 1_555
O3 Cd1 1_555 1_555
O4 C15 1_555 1_555
N1 C5 1_555 1_555
N2 Cd1 1_555 1_555
N3 C1 1_555 1_555
N4 Cd1 1_555 1_555
N5 C17 1_555 1_555
C1 H1 1_555 1_555
C2 H2 1_555 1_555
C3 N2 1_555 1_555
H3 C3 1_555 1_555
C4 C2 1_555 1_555
H4 C4 1_555 1_555
C5 C1 1_555 1_555
H5 C5 1_555 1_555
C6 N1 1_555 1_555
C7 H6 1_555 1_555
C8 N3 1_555 1_555
C9 C7 1_555 1_555
H7 C9 1_555 1_555
C10 C2 1_555 1_555
C11 C14 1_555 1_555
C12 H8 1_555 1_555
C13 N2 1_555 1_555
C14 C12 1_555 1_555
H9 C14 1_555 1_555
C15 C17 1_555 1_555
C16 N4 1_555 1_555
H10 C16 1_555 1_555
C17 C12 1_555 1_555
C18 C7 1_555 1_555
C19 O3 1_555 1_555
C20 N4 1_555 1_555
C21 N5 1_555 1_555
H11 C21 1_555 1_555
O5 H12 1_555 1_555
H13 O5 1_555 1_555
Cd1A O4 1_555 1_555
Cd1C O4 1_555 1_555
O4A Cd1 1_555 1_555
O4C Cd1 1_555 1_555
N5A Cd1 1_555 1_555
N5 Cd1A 1_555 1_555
C3 C4 1_555 1_555
C6 C8 1_555 1_555
C6 C10 1_555 1_555
C8 C18 1_555 1_555
C9 C16 1_555 1_555
C10 C13 1_555 1_555
C11 C19 1_555 1_555
C11 C21 1_555 1_555
C13 C20 1_555 1_555
C18 C20 1_555 1_555

#END
