
#######################################################################
#
#                 Cambridge Crystallographic Data Centre
#                                CCDC 
#
#######################################################################
#
# If this CIF has been generated from an entry in the Cambridge 
# Structural Database, then it will include bibliographic, chemical, 
# crystal, experimental, refinement or atomic coordinate data resulting 
# from the CCDC's data processing and validation procedures.
#
#######################################################################

data_TERVES
_symmetry_cell_setting           monoclinic
_symmetry_space_group_name_H-M   'P 21/c'
_symmetry_Int_Tables_number      14
_space_group_name_Hall           '-P 2ybc'
loop_
_symmetry_equiv_pos_site_id
_symmetry_equiv_pos_as_xyz
1 x,y,z
2 -x,1/2+y,1/2-z
3 -x,-y,-z
4 x,1/2-y,1/2+z
_cell_length_a                   10.754(2)
_cell_length_b                   10.631(2)
_cell_length_c                   17.127(3)
_cell_angle_alpha                90
_cell_angle_beta                 92.64(3)
_cell_angle_gamma                90
_cell_volume                     1955.98
loop_
_atom_site_label
_atom_site_type_symbol
_atom_site_fract_x
_atom_site_fract_y
_atom_site_fract_z
C1 C 0.2914(2) 0.5276(2) 0.42112(14)
C2 C 0.3012(2) 0.6218(2) 0.35508(13)
C3 C 0.2017(2) 0.6489(3) 0.30362(15)
H1 H 0.1256 0.6087 0.3084
C4 C 0.2168(2) 0.7365(3) 0.24508(14)
H2 H 0.1512 0.7555 0.2098
C5 C 0.3308(2) 0.7957(2) 0.23974(13)
C6 C 0.4253(2) 0.7629(2) 0.29347(13)
H3 H 0.5022 0.8022 0.2902
C7 C 0.3541(3) 0.8960(3) 0.18007(15)
C8 C 0.7856(2) 0.7010(3) 0.29796(14)
H4 H 0.7643 0.6280 0.2706
C9 C 0.8759(3) 0.7793(3) 0.26906(15)
H5 H 0.9138 0.7586 0.2231
C10 C 0.9086(3) 0.8865(3) 0.30826(16)
H6 H 0.9697 0.9392 0.2896
C11 C 0.8494(2) 0.9168(2) 0.37710(15)
C12 C 0.7584(2) 0.8331(2) 0.40217(13)
C13 C 0.6922(2) 0.8613(2) 0.47268(13)
C14 C 0.5440(3) 0.8029(3) 0.55828(17)
H7 H 0.4831 0.7467 0.5730
C15 C 0.5671(4) 0.9091(3) 0.6039(2)
H8 H 0.5232 0.9229 0.6487
C16 C 0.6543(3) 0.9922(3) 0.58231(18)
H9 H 0.6707 1.0638 0.6123
C17 C 0.7198(2) 0.9707(2) 0.51491(15)
C18 C 0.8152(3) 1.0561(2) 0.48922(16)
C19 C 0.8796(2) 1.0287(2) 0.42266(15)
C20 C 0.9977(3) 1.2032(3) 0.44342(19)
H10 H 1.0624 1.2561 0.4303
C21 C 0.9305(3) 1.2320(3) 0.5084(2)
H11 H 0.9504 1.3051 0.5361
N1 N 0.72834(17) 0.72638(19) 0.36341(11)
N2 N 0.60550(19) 0.7782(2) 0.49425(11)
N3 N 0.8395(3) 1.1603(2) 0.53250(16)
N4 N 0.9732(2) 1.1034(2) 0.39963(15)
N5 N 0.41189(17) 0.67804(18) 0.34940(11)
O1 O 0.39066(15) 0.50981(18) 0.46157(10)
O2 O 0.19162(18) 0.4762(2) 0.43227(13)
O4 O 0.4435(2) 0.9674(3) 0.19453(16)
O5 O 0.2860(2) 0.9055(2) 0.12061(13)
Cd1 Cd 0.583532(14) 0.588073(14) 0.421500(8)
O1B O 0.60934(15) 0.49019(18) 0.53843(10)
O4A O 0.5565(2) 0.4674(3) 0.30547(16)
O5A O 0.7140(2) 0.4055(2) 0.37939(13)
Cd1B Cd 0.416468(14) 0.411927(14) 0.578500(8)
Cd1A Cd 0.416468(14) 1.088073(14) 0.078500(8)
O3 O -0.0413(2) 0.4789(3) 0.35398(18)
H12 H 0.0196(19) 0.495(4) 0.3864(18)
H13 H -0.1136(19) 0.461(5) 0.372(2)
loop_
_geom_bond_atom_site_label_1
_geom_bond_atom_site_label_2
_geom_bond_site_symmetry_1
_geom_bond_site_symmetry_2
C1 C2 1_555 1_555
C2 C3 1_555 1_555
C3 H1 1_555 1_555
C4 C3 1_555 1_555
H2 C4 1_555 1_555
C5 C4 1_555 1_555
C6 C5 1_555 1_555
H3 C6 1_555 1_555
C7 C5 1_555 1_555
C8 H4 1_555 1_555
C9 C8 1_555 1_555
H5 C9 1_555 1_555
C10 C9 1_555 1_555
H6 C10 1_555 1_555
C11 C10 1_555 1_555
C12 C11 1_555 1_555
C13 C12 1_555 1_555
C14 H7 1_555 1_555
C15 C14 1_555 1_555
H8 C15 1_555 1_555
C16 C15 1_555 1_555
H9 C16 1_555 1_555
C17 C13 1_555 1_555
C18 C17 1_555 1_555
C19 C11 1_555 1_555
C20 H10 1_555 1_555
C21 C20 1_555 1_555
H11 C21 1_555 1_555
N1 C8 1_555 1_555
N2 C13 1_555 1_555
N3 C18 1_555 1_555
N4 C19 1_555 1_555
N5 C2 1_555 1_555
O1 C1 1_555 1_555
O2 C1 1_555 1_555
O3 H12 1_555 1_555
H13 O3 1_555 1_555
O4 C7 1_555 1_555
O5 C7 1_555 1_555
Cd1 N1 1_555 1_555
O1B Cd1 1_555 1_555
O4A Cd1 1_555 1_555
O5A Cd1 1_555 1_555
Cd1B O1 1_555 1_555
Cd1A O4 1_555 1_555
C6 N5 1_555 1_555
C12 N1 1_555 1_555
C14 N2 1_555 1_555
C16 C17 1_555 1_555
C18 C19 1_555 1_555
C20 N4 1_555 1_555
C21 N3 1_555 1_555
N2 Cd1 1_555 1_555
N5 Cd1 1_555 1_555
O1 Cd1 1_555 1_555
O5 Cd1A 1_555 1_555
O1B Cd1B 1_555 1_555

#END
