
#######################################################################
#
#                 Cambridge Crystallographic Data Centre
#                                CCDC 
#
#######################################################################
#
# If this CIF has been generated from an entry in the Cambridge 
# Structural Database, then it will include bibliographic, chemical, 
# crystal, experimental, refinement or atomic coordinate data resulting 
# from the CCDC's data processing and validation procedures.
#
#######################################################################

data_TESCIF
_symmetry_cell_setting           monoclinic
_symmetry_space_group_name_H-M   'P 21/c'
_symmetry_Int_Tables_number      14
_space_group_name_Hall           '-P 2ybc'
loop_
_symmetry_equiv_pos_site_id
_symmetry_equiv_pos_as_xyz
1 x,y,z
2 -x,1/2+y,1/2-z
3 -x,-y,-z
4 x,1/2-y,1/2+z
_cell_length_a                   9.5339(11)
_cell_length_b                   21.463(3)
_cell_length_c                   10.1579(12)
_cell_angle_alpha                90
_cell_angle_beta                 110.980(1)
_cell_angle_gamma                90
_cell_volume                     1940.77
loop_
_atom_site_label
_atom_site_type_symbol
_atom_site_fract_x
_atom_site_fract_y
_atom_site_fract_z
Zn1 Zn -0.09845(3) 0.406086(14) -0.09406(3)
O1 O -0.1717(2) 0.45845(9) 0.02876(17)
O2 O -0.0825(3) 0.37910(11) 0.1680(2)
O3 O -0.0589(2) 0.38350(9) 0.66183(18)
O4 O -0.1651(2) 0.46038(9) 0.73570(16)
N1 N 0.1229(2) 0.38812(10) -0.0095(2)
N2 N 0.3422(3) 0.34130(12) 0.0243(2)
N3 N 0.3536(2) 0.38009(10) 0.1327(2)
N4 N 0.6058(2) 0.24299(10) 0.3362(2)
N5 N 0.6563(3) 0.25622(13) 0.2299(3)
N6 N 0.7815(2) 0.17515(10) 0.3578(2)
C1 C -0.1824(3) 0.46247(12) 0.2587(2)
C2 C -0.1364(3) 0.43641(13) 0.3926(2)
H5 H -0.0776 0.4006 0.4121
C3 C -0.1773(3) 0.46331(12) 0.4973(2)
C4 C -0.2659(3) 0.51623(13) 0.4667(3)
H6 H -0.2930 0.5345 0.5371
C5 C -0.3154(3) 0.54273(14) 0.3326(3)
C6 C -0.2710(3) 0.51519(13) 0.2306(3)
H7 H -0.3016 0.5327 0.1410
C7 C -0.1415(3) 0.43114(13) 0.1459(3)
C8 C -0.1289(3) 0.43348(13) 0.6410(2)
C9 C -0.4159(5) 0.59930(18) 0.2987(4)
H8 H -0.4353 0.6119 0.2031
H9 H -0.3674 0.6327 0.3613
H10 H -0.5091 0.5894 0.3101
C10 C 0.2229(3) 0.40736(13) 0.1108(3)
H11 H 0.2042 0.4359 0.1713
C11 C 0.2017(3) 0.34788(14) -0.0573(3)
H12 H 0.1595 0.3264 -0.1419
C12 C 0.4944(3) 0.38431(14) 0.2542(3)
H13 H 0.5105 0.4272 0.2858
H14 H 0.5770 0.3722 0.2252
C13 C 0.4947(3) 0.34343(14) 0.3757(3)
H15 H 0.5894 0.3496 0.4530
H16 H 0.4155 0.3578 0.4072
C14 C 0.4739(3) 0.27468(14) 0.3470(3)
H17 H 0.4487 0.2554 0.4220
H18 H 0.3896 0.2685 0.2597
C15 C 0.7623(4) 0.21478(16) 0.2486(3)
H19 H 0.8199 0.2126 0.1916
C16 C 0.6810(3) 0.19556(13) 0.4102(3)
H20 H 0.6658 0.1787 0.4883
Zn1_2 Zn -0.09845(3) 0.406086(14) 0.90594(3)
Zn1C Zn 0.90155(3) 0.093914(14) 0.40594(3)
O4_2 O -0.1651(2) 0.46038(9) -0.26430(16)
N6C N -0.2185(2) 0.32485(10) -0.1422(2)
O5 O 0.0860(6) 0.2867(2) 0.5738(4)
H1 H 0.104(5) 0.263(2) 0.627(4)
H2 H 0.030(6) 0.312(3) 0.585(6)
O6 O 0.1254(4) 0.20548(14) 0.8114(4)
H3 H 0.051(5) 0.179(2) 0.761(5)
H4 H 0.123(6) 0.206(3) 0.892(6)
loop_
_geom_bond_atom_site_label_1
_geom_bond_atom_site_label_2
_geom_bond_site_symmetry_1
_geom_bond_site_symmetry_2
Zn1 O1 1_555 1_555
O1 C7 1_555 1_555
O2 C7 1_555 1_555
O3 C8 1_555 1_555
O4 C8 1_555 1_555
O5 H1 1_555 1_555
H2 O5 1_555 1_555
O6 H3 1_555 1_555
H4 O6 1_555 1_555
N1 Zn1 1_555 1_555
N2 N3 1_555 1_555
N3 C10 1_555 1_555
N4 N5 1_555 1_555
N5 C15 1_555 1_555
N6 C15 1_555 1_555
C1 C2 1_555 1_555
C2 H5 1_555 1_555
C3 C2 1_555 1_555
C4 C3 1_555 1_555
H6 C4 1_555 1_555
C5 C4 1_555 1_555
C6 C1 1_555 1_555
H7 C6 1_555 1_555
C7 C1 1_555 1_555
C8 C3 1_555 1_555
C9 C5 1_555 1_555
H8 C9 1_555 1_555
H9 C9 1_555 1_555
H10 C9 1_555 1_555
C10 N1 1_555 1_555
H11 C10 1_555 1_555
C11 N1 1_555 1_555
H12 C11 1_555 1_555
C12 N3 1_555 1_555
H13 C12 1_555 1_555
H14 C12 1_555 1_555
C13 C12 1_555 1_555
H15 C13 1_555 1_555
H16 C13 1_555 1_555
C14 N4 1_555 1_555
H17 C14 1_555 1_555
H18 C14 1_555 1_555
C15 H19 1_555 1_555
C16 N4 1_555 1_555
H20 C16 1_555 1_555
Zn1_2 O4 1_555 1_555
Zn1C N6 1_555 1_555
O4_2 Zn1 1_555 1_555
N6C Zn1 1_555 1_555
N2 C11 1_555 1_555
N6 C16 1_555 1_555
C5 C6 1_555 1_555
C13 C14 1_555 1_555

#END
