
#######################################################################
#
#                 Cambridge Crystallographic Data Centre
#                                CCDC 
#
#######################################################################
#
# If this CIF has been generated from an entry in the Cambridge 
# Structural Database, then it will include bibliographic, chemical, 
# crystal, experimental, refinement or atomic coordinate data resulting 
# from the CCDC's data processing and validation procedures.
#
#######################################################################

data_TESCOL
_symmetry_cell_setting           monoclinic
_symmetry_space_group_name_H-M   'C 2/c'
_symmetry_Int_Tables_number      15
_space_group_name_Hall           '-C 2yn'
loop_
_symmetry_equiv_pos_site_id
_symmetry_equiv_pos_as_xyz
1 x,y,z
2 -x,y,1/2-z
3 1/2+x,1/2+y,z
4 1/2-x,1/2+y,1/2-z
5 -x,-y,-z
6 x,-y,1/2+z
7 1/2-x,1/2-y,-z
8 1/2+x,1/2-y,1/2+z
_cell_length_a                   27.369(3)
_cell_length_b                   9.1258(10)
_cell_length_c                   15.3261(17)
_cell_angle_alpha                90
_cell_angle_beta                 104.285(1)
_cell_angle_gamma                90
_cell_volume                     3709.55
loop_
_atom_site_label
_atom_site_type_symbol
_atom_site_fract_x
_atom_site_fract_y
_atom_site_fract_z
Cd1 Cd 0.405812(8) 0.13634(2) 1.024870(15)
N1 N 0.34652(9) 0.0527(3) 0.89225(16)
N2 N 0.46837(10) 0.3125(3) 1.08164(19)
N3 N 0.37181(11) 0.3777(3) 0.99889(18)
O1 O 0.44587(8) 0.1042(2) 0.90839(14)
O2 O 0.43159(9) 0.1207(3) 0.75994(16)
O3 O 0.39176(12) -0.1602(3) 0.66956(19)
O4 O 0.33808(11) -0.0045(4) 0.59031(17)
O5 O 0.45429(8) -0.0590(2) 1.09438(14)
H1 H 0.4504 -0.0877 1.1450
H2 H 0.4822 -0.0823 1.0832
C1 C 0.41870(12) 0.0906(3) 0.8289(2)
C2 C 0.36545(11) 0.0337(3) 0.82046(19)
C3 C 0.33756(12) -0.0354(3) 0.7425(2)
C4 C 0.28977(12) -0.0846(4) 0.7421(2)
H3 H 0.2710 -0.1328 0.6914
C5 C 0.26928(13) -0.0646(5) 0.8139(2)
C6 C 0.29934(12) 0.0075(4) 0.8885(2)
H4 H 0.2861 0.0249 0.9379
C7 C 0.21649(16) -0.1283(5) 0.8139(3)
H5 H 0.2073 -0.2045 0.7686
H6 H 0.2170 -0.1704 0.8722
C8 C 0.18066(19) -0.0103(7) 0.7943(3)
H7 H 0.1900 0.0643 0.8395
H8 H 0.1477 -0.0467 0.7939
H9 H 0.1803 0.0303 0.7363
C9 C 0.35809(14) -0.0684(4) 0.6614(2)
C10 C 0.51536(14) 0.2761(4) 1.1242(3)
H10 H 0.5245 0.1778 1.1259
C11 C 0.55136(15) 0.3770(4) 1.1660(3)
H11 H 0.5836 0.3474 1.1964
C12 C 0.53804(17) 0.5201(4) 1.1611(3)
H12 H 0.5614 0.5911 1.1876
C13 C 0.48998(15) 0.5604(4) 1.1170(3)
H13 H 0.4808 0.6587 1.1131
C14 C 0.45537(13) 0.4543(3) 1.0786(2)
C15 C 0.40240(13) 0.4896(4) 1.0334(2)
C16 C 0.38386(16) 0.6323(4) 1.0288(3)
H14 H 0.4053 0.7095 1.0521
C17 C 0.33381(17) 0.6584(4) 0.9898(3)
H15 H 0.3212 0.7533 0.9868
C18 C 0.30284(15) 0.5449(4) 0.9556(3)
H16 H 0.2688 0.5601 0.9291
C19 C 0.32344(14) 0.4069(4) 0.9613(2)
H17 H 0.3024 0.3291 0.9376
Cd1E Cd 0.405812(8) -0.13634(2) 0.524870(15)
O3E O 0.39176(12) 0.1602(3) 1.16956(19)
O4E O 0.33808(11) 0.0045(4) 1.09031(17)
loop_
_geom_bond_atom_site_label_1
_geom_bond_atom_site_label_2
_geom_bond_site_symmetry_1
_geom_bond_site_symmetry_2
Cd1 N1 1_555 1_555
N1 C2 1_555 1_555
N2 Cd1 1_555 1_555
N3 Cd1 1_555 1_555
O1 Cd1 1_555 1_555
O2 C1 1_555 1_555
O3 C9 1_555 1_555
O4 C9 1_555 1_555
O5 Cd1 1_555 1_555
H1 O5 1_555 1_555
H2 O5 1_555 1_555
C1 O1 1_555 1_555
C2 C1 1_555 1_555
C3 C2 1_555 1_555
C4 C3 1_555 1_555
H3 C4 1_555 1_555
C5 C4 1_555 1_555
C6 N1 1_555 1_555
H4 C6 1_555 1_555
C7 C5 1_555 1_555
H5 C7 1_555 1_555
H6 C7 1_555 1_555
C8 C7 1_555 1_555
H7 C8 1_555 1_555
H8 C8 1_555 1_555
H9 C8 1_555 1_555
C9 C3 1_555 1_555
C10 N2 1_555 1_555
H10 C10 1_555 1_555
C11 C10 1_555 1_555
H11 C11 1_555 1_555
C12 C11 1_555 1_555
H12 C12 1_555 1_555
C13 C12 1_555 1_555
H13 C13 1_555 1_555
C14 N2 1_555 1_555
C15 N3 1_555 1_555
C16 C15 1_555 1_555
H14 C16 1_555 1_555
C17 C16 1_555 1_555
H15 C17 1_555 1_555
C18 C17 1_555 1_555
H16 C18 1_555 1_555
C19 N3 1_555 1_555
H17 C19 1_555 1_555
Cd1E O3 1_555 1_555
O3E Cd1 1_555 1_555
O4E Cd1 1_555 1_555
O4 Cd1E 1_555 1_555
C5 C6 1_555 1_555
C13 C14 1_555 1_555
C14 C15 1_555 1_555
C18 C19 1_555 1_555

#END
