
#######################################################################
#
#                 Cambridge Crystallographic Data Centre
#                                CCDC 
#
#######################################################################
#
# If this CIF has been generated from an entry in the Cambridge 
# Structural Database, then it will include bibliographic, chemical, 
# crystal, experimental, refinement or atomic coordinate data resulting 
# from the CCDC's data processing and validation procedures.
#
#######################################################################

data_TESDIG
_symmetry_cell_setting           triclinic
_symmetry_space_group_name_H-M   'P -1'
_symmetry_Int_Tables_number      2
_space_group_name_Hall           '-P 1'
loop_
_symmetry_equiv_pos_site_id
_symmetry_equiv_pos_as_xyz
1 x,y,z
2 -x,-y,-z
_cell_length_a                   6.796(5)
_cell_length_b                   10.4144(16)
_cell_length_c                   11.553(10)
_cell_angle_alpha                75.33(5)
_cell_angle_beta                 77.048(13)
_cell_angle_gamma                78.875(6)
_cell_volume                     762.812
loop_
_atom_site_label
_atom_site_type_symbol
_atom_site_fract_x
_atom_site_fract_y
_atom_site_fract_z
Cu1 Cu 0.5000 0.5000 0.0000
S1 S 0.92560(12) 0.57119(8) -0.26089(7)
O1 O 0.8209(4) 0.5611(3) -0.1351(2)
O2 O 1.1325(4) 0.5993(3) -0.2766(3)
O3 O 0.9160(6) 0.4581(3) -0.3094(3)
O4 O -0.1454(5) 1.0785(3) -0.1791(4)
O5 O 0.3891(4) 0.4464(3) -0.1220(3)
H1 H 0.3201 0.4900 -0.1591
H2 H 0.4252 0.3797 -0.1467
N1 N 0.3562(4) 0.6886(3) -0.0478(3)
N2 N 0.1339(5) 1.1816(3) -0.2309(4)
H7 H 0.0673 1.2580 -0.2591
H8 H 0.2627 1.1741 -0.2327
C1 C 0.1562(5) 0.7099(3) -0.0467(3)
H9 H 0.0829 0.6380 -0.0158
C2 C 0.0541(6) 0.8346(4) -0.0899(4)
H10 H -0.0858 0.8459 -0.0873
C3 C 0.1601(5) 0.9433(3) -0.1371(3)
C4 C 0.3678(6) 0.9214(4) -0.1363(4)
H11 H 0.4445 0.9917 -0.1662
C5 C 0.4583(5) 0.7943(4) -0.0906(4)
H12 H 0.5971 0.7807 -0.0893
C6 C 0.0383(6) 1.0758(4) -0.1849(4)
C7 C 0.7921(5) 0.7136(3) -0.3462(3)
C8 C 0.6160(7) 0.7014(4) -0.3806(5)
H13 H 0.5728 0.6180 -0.3635
C9 C 0.5035(7) 0.8146(4) -0.4411(5)
H14 H 0.3853 0.8052 -0.4640
C10 C 0.5611(5) 0.9399(3) -0.4681(3)
C11 C 0.7371(6) 0.9509(4) -0.4294(4)
H15 H 0.7776 1.0347 -0.4436
C12 C 0.8522(6) 0.8385(4) -0.3702(4)
H16 H 0.9701 0.8474 -0.3466
Cu1_2 Cu 0.5000 1.5000 -1.0000
S1A S 0.07440(12) 1.42881(8) -0.73911(7)
O1A O 0.1791(4) 1.4389(3) -0.8649(2)
O1A_2 O 0.1791(4) 0.4389(3) 0.1351(2)
O2A O -0.1325(4) 1.4007(3) -0.7234(3)
O3A O 0.0840(6) 1.5419(3) -0.6906(3)
O4A O 1.1454(5) -0.0785(3) 0.1791(4)
O5A O 0.6109(4) 0.5536(3) 0.1220(3)
H1A H 0.6799 0.5100 0.1591
H2A H 0.5748 0.6203 0.1467
N1A N 0.6438(4) 0.3114(3) 0.0478(3)
N2A N 0.8661(5) -0.1816(3) 0.2309(4)
H7A H 0.9327 -0.2580 0.2591
H8A H 0.7373 -0.1741 0.2327
C1A C 0.8438(5) 0.2901(3) 0.0467(3)
H9A H 0.9171 0.3620 0.0158
C2A C 0.9459(6) 0.1654(4) 0.0899(4)
H10A H 1.0858 0.1541 0.0873
C3A C 0.8399(5) 0.0567(3) 0.1371(3)
C4A C 0.6322(6) 0.0786(4) 0.1363(4)
H11A H 0.5555 0.0083 0.1662
C5A C 0.5417(5) 0.2057(4) 0.0906(4)
H12A H 0.4029 0.2193 0.0893
C6A C 0.9617(6) -0.0758(4) 0.1849(4)
C7A C 0.2079(5) 1.2864(3) -0.6538(3)
C8A C 0.3840(7) 1.2986(4) -0.6194(5)
H13A H 0.4272 1.3820 -0.6365
C9A C 0.4965(7) 1.1854(4) -0.5589(5)
H14A H 0.6147 1.1948 -0.5360
C10A C 0.4389(5) 1.0601(3) -0.5319(3)
C11A C 0.2629(6) 1.0491(4) -0.5706(4)
H15A H 0.2224 0.9653 -0.5564
C12A C 0.1478(6) 1.1615(4) -0.6298(4)
H16A H 0.0299 1.1526 -0.6534
O6 O 0.5341(4) 0.2521(3) -0.2441(3)
H3 H 0.6546 0.2006 -0.2221
H4 H 0.5655 0.2979 -0.3210
O7 O 0.7046(8) 0.3924(5) -0.4630(3)
H5 H 0.8005 0.4144 -0.4195
H6 H 0.7408 0.4042 -0.5360
loop_
_geom_bond_atom_site_label_1
_geom_bond_atom_site_label_2
_geom_bond_site_symmetry_1
_geom_bond_site_symmetry_2
Cu1 O1 1_555 1_555
S1 O1 1_555 1_555
O2 S1 1_555 1_555
O3 S1 1_555 1_555
O4 C6 1_555 1_555
O5 Cu1 1_555 1_555
H1 O5 1_555 1_555
H2 O5 1_555 1_555
O6 H3 1_555 1_555
H4 O6 1_555 1_555
O7 H5 1_555 1_555
H6 O7 1_555 1_555
N1 Cu1 1_555 1_555
N2 H7 1_555 1_555
H8 N2 1_555 1_555
C1 N1 1_555 1_555
H9 C1 1_555 1_555
C2 C1 1_555 1_555
H10 C2 1_555 1_555
C3 C2 1_555 1_555
C4 C3 1_555 1_555
H11 C4 1_555 1_555
C5 N1 1_555 1_555
H12 C5 1_555 1_555
C6 N2 1_555 1_555
C7 S1 1_555 1_555
C8 C7 1_555 1_555
H13 C8 1_555 1_555
C9 C8 1_555 1_555
H14 C9 1_555 1_555
C10 C9 1_555 1_555
C11 C10 1_555 1_555
H15 C11 1_555 1_555
C12 C7 1_555 1_555
H16 C12 1_555 1_555
Cu1_2 O1A 1_555 1_555
S1A O1A 1_555 1_555
O1A_2 Cu1 1_555 1_555
O2A S1A 1_555 1_555
O3A S1A 1_555 1_555
O4A C6A 1_555 1_555
O5A Cu1 1_555 1_555
H1A O5A 1_555 1_555
H2A O5A 1_555 1_555
N1A Cu1 1_555 1_555
N2A H7A 1_555 1_555
H8A N2A 1_555 1_555
C1A N1A 1_555 1_555
H9A C1A 1_555 1_555
C2A C1A 1_555 1_555
H10A C2A 1_555 1_555
C3A C2A 1_555 1_555
C4A C3A 1_555 1_555
H11A C4A 1_555 1_555
C5A N1A 1_555 1_555
H12A C5A 1_555 1_555
C6A N2A 1_555 1_555
C7A S1A 1_555 1_555
C8A C7A 1_555 1_555
H13A C8A 1_555 1_555
C9A C8A 1_555 1_555
H14A C9A 1_555 1_555
C10A C10 1_555 1_555
C11A C10A 1_555 1_555
H15A C11A 1_555 1_555
C12A C7A 1_555 1_555
H16A C12A 1_555 1_555
C3 C6 1_555 1_555
C4 C5 1_555 1_555
C11 C12 1_555 1_555
C3A C6A 1_555 1_555
C4A C5A 1_555 1_555
C9A C10A 1_555 1_555
C11A C12A 1_555 1_555

#END
