
#######################################################################
#
#                 Cambridge Crystallographic Data Centre
#                                CCDC 
#
#######################################################################
#
# If this CIF has been generated from an entry in the Cambridge 
# Structural Database, then it will include bibliographic, chemical, 
# crystal, experimental, refinement or atomic coordinate data resulting 
# from the CCDC's data processing and validation procedures.
#
#######################################################################

data_TESDIF01
_symmetry_cell_setting           tetragonal
_symmetry_space_group_name_H-M   'I 41'
_symmetry_Int_Tables_number      80
_space_group_name_Hall           'I 4bw'
loop_
_symmetry_equiv_pos_site_id
_symmetry_equiv_pos_as_xyz
1 x,y,z
2 -x,-y,z
3 -y,1/2+x,1/4+z
4 y,1/2-x,1/4+z
5 1/2+x,1/2+y,1/2+z
6 1/2-x,1/2-y,1/2+z
7 1/2-y,x,3/4+z
8 1/2+y,-x,3/4+z
_cell_length_a                   20.184(4)
_cell_length_b                   20.184(4)
_cell_length_c                   13.719(3)
_cell_angle_alpha                90
_cell_angle_beta                 90
_cell_angle_gamma                90
_cell_volume                     5589.04
loop_
_atom_site_label
_atom_site_type_symbol
_atom_site_fract_x
_atom_site_fract_y
_atom_site_fract_z
C1 C 0.08211(13) -0.00579(13) 0.3118(3)
H1 H 0.0650 0.0047 0.2491
C2 C 0.06207(15) -0.06461(16) 0.3562(3)
H2 H 0.0318 -0.0933 0.3242
C3 C 0.08651(16) -0.08067(15) 0.4466(3)
H3 H 0.0734 -0.1207 0.4776
C4 C 0.13125(15) -0.03730(15) 0.4930(2)
C5 C 0.15900(17) -0.04927(16) 0.5872(2)
H4 H 0.1493 -0.0897 0.6197
C6 C 0.19854(17) -0.00465(17) 0.6308(2)
H5 H 0.2154 -0.0136 0.6941
C7 C 0.21586(15) 0.05655(16) 0.5831(2)
C8 C 0.25577(16) 0.10567(17) 0.6255(2)
H6 H 0.2731 0.0998 0.6893
C9 C 0.26959(15) 0.16221(15) 0.5741(2)
H7 H 0.2970 0.1956 0.6015
C10 C 0.24275(14) 0.17004(15) 0.4807(2)
H8 H 0.2518 0.2098 0.4461
C11 C 0.19146(13) 0.06867(14) 0.4889(2)
C12 C 0.14813(13) 0.02140(14) 0.4434(2)
C13 C 0.06503(16) 0.16774(16) 0.1354(2)
C14 C 0.01717(15) 0.14460(16) 0.0588(3)
C15 C -0.04984(17) 0.16228(19) 0.0639(3)
C16 C -0.0754(2) 0.2022(2) 0.1473(3)
H9 H -0.1231 0.2096 0.1390
H10 H -0.0525 0.2449 0.1493
H11 H -0.0676 0.1782 0.2084
C17 C -0.09255(19) 0.1406(2) -0.0099(3)
H12 H -0.1380 0.1528 -0.0072
C18 C -0.0704(2) 0.1017(2) -0.0870(3)
C19 C -0.1166(3) 0.0752(3) -0.1650(4)
H13 H -0.1618 0.0908 -0.1523
H14 H -0.1159 0.0267 -0.1640
H15 H -0.1021 0.0910 -0.2290
C20 C -0.0041(2) 0.0858(2) -0.0912(3)
H16 H 0.0120 0.0610 -0.1450
C21 C 0.04045(17) 0.10545(17) -0.0175(3)
C22 C 0.11132(19) 0.08421(19) -0.0249(3)
H17 H 0.1362 0.1018 0.0307
H18 H 0.1304 0.1012 -0.0857
H19 H 0.1137 0.0357 -0.0246
C23 C 0.06997(14) 0.21951(14) 0.4557(2)
C24 C 0.00898(13) 0.22397(13) 0.5196(2)
C25 C 0.00504(14) 0.18866(14) 0.6070(2)
C26 C 0.06014(16) 0.14180(15) 0.6373(2)
H20 H 0.0955 0.1427 0.5884
H21 H 0.0425 0.0967 0.6427
H22 H 0.0780 0.1557 0.7005
C27 C -0.05091(16) 0.19587(15) 0.6654(2)
H23 H -0.0526 0.1739 0.7266
C28 C -0.10418(16) 0.23447(15) 0.6362(3)
C29 C -0.16494(19) 0.24202(19) 0.6997(3)
H24 H -0.1972 0.2707 0.6669
H25 H -0.1523 0.2619 0.7622
H26 H -0.1848 0.1984 0.7112
C30 C -0.10030(15) 0.26680(14) 0.5465(3)
H27 H -0.1370 0.2923 0.5247
C31 C -0.04449(15) 0.26277(14) 0.4884(2)
C32 C -0.04102(18) 0.29874(18) 0.3928(3)
H28 H 0.0018 0.2899 0.3617
H29 H -0.0457 0.3465 0.4040
H30 H -0.0769 0.2834 0.3502
N1 N 0.12438(11) 0.03657(11) 0.35373(18)
N2 N 0.20542(11) 0.12469(11) 0.43870(17)
O1 O 0.08529(10) 0.12424(10) 0.19470(15)
O2 O 0.08343(14) 0.22694(12) 0.13477(19)
O3 O 0.07371(9) 0.17033(9) 0.40048(14)
O4 O 0.11265(10) 0.26572(10) 0.46030(14)
O5 O 0.17178(11) 0.23572(10) 0.27854(19)
Co1 Co 0.151605(17) 0.133155(17) 0.30653(3)
H31 H 0.1439(18) 0.2431(16) 0.237(3)
H32 H 0.1575(17) 0.2518(17) 0.324(3)
O4F O 0.23428(10) 0.11265(10) 0.21030(14)
Co1C Co 0.133155(17) 0.348395(17) 0.55653(3)
loop_
_geom_bond_atom_site_label_1
_geom_bond_atom_site_label_2
_geom_bond_site_symmetry_1
_geom_bond_site_symmetry_2
C1 H1 1_555 1_555
C2 C1 1_555 1_555
H2 C2 1_555 1_555
C3 C2 1_555 1_555
H3 C3 1_555 1_555
C4 C3 1_555 1_555
C5 C4 1_555 1_555
H4 C5 1_555 1_555
C6 C5 1_555 1_555
H5 C6 1_555 1_555
C7 C6 1_555 1_555
C8 C7 1_555 1_555
H6 C8 1_555 1_555
C9 C8 1_555 1_555
H7 C9 1_555 1_555
C10 C9 1_555 1_555
H8 C10 1_555 1_555
C11 C7 1_555 1_555
C12 C4 1_555 1_555
C13 C14 1_555 1_555
C14 C15 1_555 1_555
C15 C16 1_555 1_555
C16 H9 1_555 1_555
H10 C16 1_555 1_555
H11 C16 1_555 1_555
C17 C15 1_555 1_555
H12 C17 1_555 1_555
C18 C17 1_555 1_555
C19 C18 1_555 1_555
H13 C19 1_555 1_555
H14 C19 1_555 1_555
H15 C19 1_555 1_555
C20 C18 1_555 1_555
H16 C20 1_555 1_555
C21 C14 1_555 1_555
C22 C21 1_555 1_555
H17 C22 1_555 1_555
H18 C22 1_555 1_555
H19 C22 1_555 1_555
C23 C24 1_555 1_555
C24 C25 1_555 1_555
C25 C26 1_555 1_555
C26 H20 1_555 1_555
H21 C26 1_555 1_555
H22 C26 1_555 1_555
C27 C25 1_555 1_555
H23 C27 1_555 1_555
C28 C27 1_555 1_555
C29 C28 1_555 1_555
H24 C29 1_555 1_555
H25 C29 1_555 1_555
H26 C29 1_555 1_555
C30 C28 1_555 1_555
H27 C30 1_555 1_555
C31 C24 1_555 1_555
C32 C31 1_555 1_555
H28 C32 1_555 1_555
H29 C32 1_555 1_555
H30 C32 1_555 1_555
N1 C1 1_555 1_555
N2 C10 1_555 1_555
O1 C13 1_555 1_555
O2 C13 1_555 1_555
O3 C23 1_555 1_555
O4 C23 1_555 1_555
O5 Co1 1_555 1_555
Co1 N1 1_555 1_555
H31 O5 1_555 1_555
H32 O5 1_555 1_555
O4F Co1 1_555 1_555
Co1C O4 1_555 1_555
C11 C12 1_555 1_555
C11 N2 1_555 1_555
C12 N1 1_555 1_555
C20 C21 1_555 1_555
C30 C31 1_555 1_555
N2 Co1 1_555 1_555
O1 Co1 1_555 1_555
O3 Co1 1_555 1_555

#END
