
#######################################################################
#
#                 Cambridge Crystallographic Data Centre
#                                CCDC 
#
#######################################################################
#
# If this CIF has been generated from an entry in the Cambridge 
# Structural Database, then it will include bibliographic, chemical, 
# crystal, experimental, refinement or atomic coordinate data resulting 
# from the CCDC's data processing and validation procedures.
#
#######################################################################

data_TESGIJ
_symmetry_cell_setting           triclinic
_symmetry_space_group_name_H-M   'P -1'
_symmetry_Int_Tables_number      2
_space_group_name_Hall           '-P 1'
loop_
_symmetry_equiv_pos_site_id
_symmetry_equiv_pos_as_xyz
1 x,y,z
2 -x,-y,-z
_cell_length_a                   9.1005(12)
_cell_length_b                   10.1747(13)
_cell_length_c                   10.9618(14)
_cell_angle_alpha                65.170(1)
_cell_angle_beta                 75.095(1)
_cell_angle_gamma                88.586(1)
_cell_volume                     886.155
loop_
_atom_site_label
_atom_site_type_symbol
_atom_site_fract_x
_atom_site_fract_y
_atom_site_fract_z
Cd1 Cd 0.571729(17) 0.416931(16) 0.363678(16)
O1 O 0.5555(2) 0.18759(19) 0.3532(2)
O2 O 0.7749(2) 0.28435(18) 0.3393(2)
O3 O 0.7475(2) -0.38743(19) 0.2810(2)
O4 O 0.54360(19) -0.34185(18) 0.41065(17)
N1 N 0.4327(2) 0.5196(2) 0.2141(2)
N2 N 0.2548(2) 0.5871(2) 0.1040(2)
C1 C 0.6958(3) 0.1841(2) 0.3408(2)
C2 C 0.7739(3) 0.0589(2) 0.3222(2)
C3 C 0.6896(3) -0.0618(2) 0.3370(2)
H1 H 0.5835 -0.0681 0.3620
C4 C 0.7660(3) -0.1727(2) 0.3139(2)
C5 C 0.9255(3) -0.1611(2) 0.2738(2)
H2 H 0.9752 -0.2335 0.2538
C6 C 1.0123(3) -0.0432(2) 0.2631(2)
C7 C 0.9328(3) 0.0650(2) 0.2887(2)
H3 H 0.9875 0.1442 0.2834
C8 C 0.6810(3) -0.3095(2) 0.3362(2)
C9 C 1.1875(3) -0.0338(3) 0.2193(3)
C10 C 1.2596(3) 0.0756(3) 0.2544(4)
H4 H 1.2334 0.1713 0.2024
H5 H 1.3686 0.0745 0.2301
H6 H 1.2219 0.0497 0.3525
C11 C 1.2388(3) 0.0140(4) 0.0607(3)
H7 H 1.1960 -0.0559 0.0388
H8 H 1.3483 0.0206 0.0300
H9 H 1.2043 0.1074 0.0141
C12 C 1.2434(4) -0.1824(3) 0.2942(4)
H10 H 1.2066 -0.2143 0.3934
H11 H 1.3530 -0.1742 0.2674
H12 H 1.2055 -0.2518 0.2688
C13 C 0.4967(3) 0.6258(3) 0.0807(3)
H13 H 0.5988 0.6628 0.0440
C14 C 0.3895(3) 0.6669(3) 0.0126(3)
H14 H 0.4030 0.7360 -0.0789
C15 C 0.2866(3) 0.4990(3) 0.2246(3)
C16 C 0.1721(3) 0.3978(3) 0.3520(3)
H15 H 0.2160 0.3091 0.3956
H16 H 0.0846 0.3770 0.3271
H17 H 0.1415 0.4418 0.4157
C17 C 0.1066(3) 0.5989(3) 0.0724(3)
H18 H 0.1031 0.6971 0.0043
H19 H 0.0262 0.5811 0.1568
C18 C 0.0772(3) 0.4923(3) 0.0159(3)
H20 H 0.0798 0.3938 0.0840
H21 H 0.1571 0.5098 -0.0686
Cd1A Cd 0.428271(17) -0.416931(16) 0.636322(16)
Cd1_2 Cd 0.571729(17) -0.583069(16) 0.363678(16)
Cd1A_2 Cd -0.571729(17) 0.583069(16) -0.363678(16)
Cd1A_3 Cd -0.571729(17) 1.583069(16) -0.363678(16)
Cd1_3 Cd -0.428271(17) 1.416931(16) -0.636322(16)
O1A O -0.5555(2) 0.81241(19) -0.3532(2)
O2A O -0.7749(2) 0.71565(18) -0.3393(2)
O3_2 O 0.7475(2) 0.61257(19) 0.2810(2)
O3A O -0.7475(2) 0.38743(19) -0.2810(2)
O3A_2 O -0.7475(2) 1.38743(19) -0.2810(2)
O4_2 O 0.54360(19) 0.65815(18) 0.41065(17)
O4A O 0.45640(19) 0.34185(18) 0.58935(17)
O4_3 O -0.45640(19) 0.65815(18) -0.58935(17)
O4A_2 O -0.54360(19) 0.34185(18) -0.41065(17)
O4A_3 O -0.54360(19) 1.34185(18) -0.41065(17)
N1A N -0.4327(2) 0.4804(2) -0.2141(2)
N2A N -0.2548(2) 0.4129(2) -0.1040(2)
C1A C -0.6958(3) 0.8159(2) -0.3408(2)
C2A C -0.7739(3) 0.9411(2) -0.3222(2)
C3A C -0.6896(3) 1.0618(2) -0.3370(2)
H1A H -0.5835 1.0681 -0.3620
C4A C -0.7660(3) 1.1727(2) -0.3139(2)
C5A C -0.9255(3) 1.1611(2) -0.2738(2)
H2A H -0.9752 1.2335 -0.2538
C6A C -1.0123(3) 1.0432(2) -0.2631(2)
C7A C -0.9328(3) 0.9350(2) -0.2887(2)
H3A H -0.9875 0.8558 -0.2834
C8A C -0.6810(3) 1.3095(2) -0.3362(2)
C9A C -1.1875(3) 1.0338(3) -0.2193(3)
C10A C -1.2596(3) 0.9244(3) -0.2544(4)
H4A H -1.2334 0.8287 -0.2024
H5A H -1.3686 0.9255 -0.2301
H6A H -1.2219 0.9503 -0.3525
C11A C -1.2388(3) 0.9860(4) -0.0607(3)
H7A H -1.1960 1.0559 -0.0388
H8A H -1.3483 0.9794 -0.0300
H9A H -1.2043 0.8926 -0.0141
C12A C -1.2434(4) 1.1824(3) -0.2942(4)
H10A H -1.2066 1.2143 -0.3934
H11A H -1.3530 1.1742 -0.2674
H12A H -1.2055 1.2518 -0.2688
C13A C -0.4967(3) 0.3742(3) -0.0807(3)
H13A H -0.5988 0.3372 -0.0440
C14A C -0.3895(3) 0.3331(3) -0.0126(3)
H14A H -0.4030 0.2640 0.0789
C15A C -0.2866(3) 0.5010(3) -0.2246(3)
C16A C -0.1721(3) 0.6022(3) -0.3520(3)
H15A H -0.2160 0.6909 -0.3956
H16A H -0.0846 0.6230 -0.3271
H17A H -0.1415 0.5582 -0.4157
C17A C -0.1066(3) 0.4011(3) -0.0724(3)
H18A H -0.1031 0.3029 -0.0043
H19A H -0.0262 0.4189 -0.1568
C18A C -0.0772(3) 0.5077(3) -0.0159(3)
H20A H -0.0798 0.6062 -0.0840
H21A H -0.1571 0.4902 0.0686
loop_
_geom_bond_atom_site_label_1
_geom_bond_atom_site_label_2
_geom_bond_site_symmetry_1
_geom_bond_site_symmetry_2
Cd1 O1 1_555 1_555
O1 C1 1_555 1_555
O2 Cd1 1_555 1_555
O3 C8 1_555 1_555
O4 C8 1_555 1_555
N1 Cd1 1_555 1_555
N2 C14 1_555 1_555
C1 O2 1_555 1_555
C2 C1 1_555 1_555
C3 C2 1_555 1_555
H1 C3 1_555 1_555
C4 C3 1_555 1_555
C5 C4 1_555 1_555
H2 C5 1_555 1_555
C6 C5 1_555 1_555
C7 C2 1_555 1_555
H3 C7 1_555 1_555
C8 C4 1_555 1_555
C9 C6 1_555 1_555
C10 C9 1_555 1_555
H4 C10 1_555 1_555
H5 C10 1_555 1_555
H6 C10 1_555 1_555
C11 C9 1_555 1_555
H7 C11 1_555 1_555
H8 C11 1_555 1_555
H9 C11 1_555 1_555
C12 C9 1_555 1_555
H10 C12 1_555 1_555
H11 C12 1_555 1_555
H12 C12 1_555 1_555
C13 N1 1_555 1_555
H13 C13 1_555 1_555
C14 C13 1_555 1_555
H14 C14 1_555 1_555
C15 N1 1_555 1_555
C16 C15 1_555 1_555
H15 C16 1_555 1_555
H16 C16 1_555 1_555
H17 C16 1_555 1_555
C17 N2 1_555 1_555
H18 C17 1_555 1_555
H19 C17 1_555 1_555
C18 C17 1_555 1_555
H20 C18 1_555 1_555
H21 C18 1_555 1_555
Cd1A O4 1_555 1_555
Cd1_2 O3 1_555 1_555
Cd1A_2 O1A 1_555 1_555
Cd1A_3 O3A_2 1_555 1_555
Cd1_3 O4A_3 1_555 1_555
O1A C1A 1_555 1_555
O2A Cd1A_2 1_555 1_555
O3_2 Cd1 1_555 1_555
O3A Cd1A_2 1_555 1_555
O3A_2 C8A 1_555 1_555
O4_2 Cd1 1_555 1_555
O4A Cd1 1_555 1_555
O4_3 Cd1A_2 1_555 1_555
O4A_2 Cd1A_2 1_555 1_555
O4A_3 Cd1A_3 1_555 1_555
N1A Cd1A_2 1_555 1_555
N2A C14A 1_555 1_555
C1A O2A 1_555 1_555
C2A C1A 1_555 1_555
C3A C2A 1_555 1_555
H1A C3A 1_555 1_555
C4A C3A 1_555 1_555
C5A C4A 1_555 1_555
H2A C5A 1_555 1_555
C6A C5A 1_555 1_555
C7A C2A 1_555 1_555
H3A C7A 1_555 1_555
C8A O4A_3 1_555 1_555
C9A C6A 1_555 1_555
C10A C9A 1_555 1_555
H4A C10A 1_555 1_555
H5A C10A 1_555 1_555
H6A C10A 1_555 1_555
C11A C9A 1_555 1_555
H7A C11A 1_555 1_555
H8A C11A 1_555 1_555
H9A C11A 1_555 1_555
C12A C9A 1_555 1_555
H10A C12A 1_555 1_555
H11A C12A 1_555 1_555
H12A C12A 1_555 1_555
C13A N1A 1_555 1_555
H13A C13A 1_555 1_555
C14A C13A 1_555 1_555
H14A C14A 1_555 1_555
C15A N1A 1_555 1_555
C16A C15A 1_555 1_555
H15A C16A 1_555 1_555
H16A C16A 1_555 1_555
H17A C16A 1_555 1_555
C17A N2A 1_555 1_555
H18A C17A 1_555 1_555
H19A C17A 1_555 1_555
C18A C18 1_555 1_555
H20A C18A 1_555 1_555
H21A C18A 1_555 1_555
O4 Cd1_2 1_555 1_555
N2 C15 1_555 1_555
C6 C7 1_555 1_555
N2A C15A 1_555 1_555
C4A C8A 1_555 1_555
C6A C7A 1_555 1_555
C17A C18A 1_555 1_555

#END
