
#######################################################################
#
#                 Cambridge Crystallographic Data Centre
#                                CCDC 
#
#######################################################################
#
# If this CIF has been generated from an entry in the Cambridge 
# Structural Database, then it will include bibliographic, chemical, 
# crystal, experimental, refinement or atomic coordinate data resulting 
# from the CCDC's data processing and validation procedures.
#
#######################################################################

data_TESHEG
_symmetry_cell_setting           triclinic
_symmetry_space_group_name_H-M   'P -1'
_symmetry_Int_Tables_number      2
_space_group_name_Hall           '-P 1'
loop_
_symmetry_equiv_pos_site_id
_symmetry_equiv_pos_as_xyz
1 x,y,z
2 -x,-y,-z
_cell_length_a                   8.3973(9)
_cell_length_b                   9.5185(10)
_cell_length_c                   11.2733(12)
_cell_angle_alpha                66.089(1)
_cell_angle_beta                 82.176(1)
_cell_angle_gamma                78.375(1)
_cell_volume                     805.348
loop_
_atom_site_label
_atom_site_type_symbol
_atom_site_fract_x
_atom_site_fract_y
_atom_site_fract_z
Ag1 Ag 0.0000 0.0000 0.5000
N1 N 0.0197(2) 0.17913(19) 0.30673(15)
C10 C 0.0951(3) 0.3008(3) 0.28100(19)
H10 H 0.1532 0.3003 0.3458
C11 C 0.0910(3) 0.4264(2) 0.16343(19)
H11 H 0.1450 0.5080 0.1508
C12 C 0.0061(2) 0.4316(2) 0.06349(17)
C13 C -0.0664(3) 0.3032(2) 0.08878(19)
H12 H -0.1211 0.2988 0.0243
C14 C -0.0581(3) 0.1815(2) 0.2092(2)
H13 H -0.1088 0.0973 0.2234
Ag1_2 Ag 0.0000 1.0000 -0.5000
N1A N -0.0197(2) 0.82087(19) -0.30673(15)
N1A_2 N -0.0197(2) -0.17913(19) 0.69327(15)
C10A C -0.0951(3) 0.6992(3) -0.28100(19)
H10A H -0.1532 0.6997 -0.3458
C11A C -0.0910(3) 0.5736(2) -0.16343(19)
H11A H -0.1450 0.4920 -0.1508
C12A C -0.0061(2) 0.5684(2) -0.06349(17)
C13A C 0.0664(3) 0.6968(2) -0.08878(19)
H12A H 0.1211 0.7012 -0.0243
C14A C 0.0581(3) 0.8185(2) -0.2092(2)
H13A H 0.1088 0.9027 -0.2234
O1 O 0.5619(2) 0.52822(19) 0.07869(15)
H1 H 0.5000 0.5000 0.0000
O2 O 0.4857(2) 0.3101(2) 0.22587(16)
O3 O 0.42766(18) 0.18601(17) 0.50541(16)
H2 H 0.4033 0.1005 0.5222
O4 O 0.66848(17) 0.07675(17) 0.44268(16)
O5 O 0.6731(3) 0.1263(2) 0.68631(17)
O6 O 0.7421(2) 0.30925(18) 0.73538(14)
H3 H 0.7331 0.2451 0.8101
O7 O 0.9115(2) 0.76542(19) 0.39492(16)
O8 O 0.8527(4) 0.8329(2) 0.1986(2)
N2 N 0.8493(2) 0.7459(2) 0.31199(18)
C1 C 0.6329(2) 0.4496(2) 0.29377(18)
C2 C 0.6381(2) 0.3396(2) 0.42213(18)
C3 C 0.7062(2) 0.3684(2) 0.51586(18)
C4 C 0.7731(2) 0.5032(2) 0.47915(18)
H8 H 0.8179 0.5236 0.5404
C5 C 0.7725(2) 0.6060(2) 0.35133(19)
C6 C 0.7014(2) 0.5835(2) 0.25739(18)
H9 H 0.6998 0.6564 0.1721
C7 C 0.5524(2) 0.4242(2) 0.19296(19)
C8 C 0.5759(2) 0.1880(2) 0.45779(19)
C9 C 0.7053(3) 0.2549(2) 0.65483(19)
O1A O 0.4381(2) 0.47178(19) -0.07869(15)
O2A O 0.5143(2) 0.6899(2) -0.22587(16)
O3A O 0.57234(18) 0.81399(17) -0.50541(16)
H2A H 0.5967 0.8995 -0.5222
O4A O 0.33152(17) 0.92325(17) -0.44268(16)
O5A O 0.3269(3) 0.8737(2) -0.68631(17)
O6A O 0.2579(2) 0.69075(18) -0.73538(14)
H3A H 0.2669 0.7549 -0.8101
O7A O 0.0885(2) 0.23458(19) -0.39492(16)
O8A O 0.1473(4) 0.1671(2) -0.1986(2)
N2A N 0.1507(2) 0.2541(2) -0.31199(18)
C1A C 0.3671(2) 0.5504(2) -0.29377(18)
C2A C 0.3619(2) 0.6604(2) -0.42213(18)
C3A C 0.2938(2) 0.6316(2) -0.51586(18)
C4A C 0.2269(2) 0.4968(2) -0.47915(18)
H8A H 0.1821 0.4764 -0.5404
C5A C 0.2275(2) 0.3940(2) -0.35133(19)
C6A C 0.2986(2) 0.4165(2) -0.25739(18)
H9A H 0.3002 0.3436 -0.1721
C7A C 0.4476(2) 0.5758(2) -0.19296(19)
C8A C 0.4241(2) 0.8120(2) -0.45779(19)
C9A C 0.2947(3) 0.7451(2) -0.65483(19)
O9 O 0.4052(3) 0.1379(2) 0.0862(2)
H4 H 0.3854 0.0633 0.1572
H5 H 0.4102 0.2027 0.1194
O10 O 0.2860(3) 0.8804(2) 0.02774(17)
H6 H 0.3822 0.8713 -0.0065
H7 H 0.2648 0.9752 0.0190
loop_
_geom_bond_atom_site_label_1
_geom_bond_atom_site_label_2
_geom_bond_site_symmetry_1
_geom_bond_site_symmetry_2
Ag1 N1 1_555 1_555
O1 H1 1_555 1_555
H1 O1A 1_555 1_555
O2 C7 1_555 1_555
O3 H2 1_555 1_555
O4 C8 1_555 1_555
O5 C9 1_555 1_555
O6 H3 1_555 1_555
O7 N2 1_555 1_555
O8 N2 1_555 1_555
O9 H4 1_555 1_555
H5 O9 1_555 1_555
O10 H6 1_555 1_555
H7 O10 1_555 1_555
N1 C10 1_555 1_555
N2 C5 1_555 1_555
C1 C2 1_555 1_555
C2 C3 1_555 1_555
C3 C4 1_555 1_555
C4 H8 1_555 1_555
C5 C4 1_555 1_555
C6 C1 1_555 1_555
H9 C6 1_555 1_555
C7 O1 1_555 1_555
C8 O3 1_555 1_555
C9 O6 1_555 1_555
C10 H10 1_555 1_555
C11 C10 1_555 1_555
H11 C11 1_555 1_555
C12 C11 1_555 1_555
C13 C12 1_555 1_555
H12 C13 1_555 1_555
C14 N1 1_555 1_555
H13 C14 1_555 1_555
Ag1_2 N1A 1_555 1_555
O1A C7A 1_555 1_555
O2A C7A 1_555 1_555
O3A H2A 1_555 1_555
O4A C8A 1_555 1_555
O5A C9A 1_555 1_555
O6A H3A 1_555 1_555
O7A N2A 1_555 1_555
O8A N2A 1_555 1_555
N1A C10A 1_555 1_555
N1A_2 Ag1 1_555 1_555
N2A C5A 1_555 1_555
C1A C2A 1_555 1_555
C2A C3A 1_555 1_555
C3A C4A 1_555 1_555
C4A H8A 1_555 1_555
C5A C4A 1_555 1_555
C6A C1A 1_555 1_555
H9A C6A 1_555 1_555
C7A C1A 1_555 1_555
C8A O3A 1_555 1_555
C9A O6A 1_555 1_555
C10A H10A 1_555 1_555
C11A C10A 1_555 1_555
H11A C11A 1_555 1_555
C12A C12 1_555 1_555
C13A C12A 1_555 1_555
H12A C13A 1_555 1_555
C14A N1A 1_555 1_555
H13A C14A 1_555 1_555
C1 C7 1_555 1_555
C2 C8 1_555 1_555
C3 C9 1_555 1_555
C5 C6 1_555 1_555
C13 C14 1_555 1_555
C2A C8A 1_555 1_555
C3A C9A 1_555 1_555
C5A C6A 1_555 1_555
C11A C12A 1_555 1_555
C13A C14A 1_555 1_555

#END
