
#######################################################################
#
#                 Cambridge Crystallographic Data Centre
#                                CCDC 
#
#######################################################################
#
# If this CIF has been generated from an entry in the Cambridge 
# Structural Database, then it will include bibliographic, chemical, 
# crystal, experimental, refinement or atomic coordinate data resulting 
# from the CCDC's data processing and validation procedures.
#
#######################################################################

data_TESJOS
_symmetry_cell_setting           triclinic
_symmetry_space_group_name_H-M   'P -1'
_symmetry_Int_Tables_number      2
_space_group_name_Hall           '-P 1'
loop_
_symmetry_equiv_pos_site_id
_symmetry_equiv_pos_as_xyz
1 x,y,z
2 -x,-y,-z
_cell_length_a                   7.6522(15)
_cell_length_b                   10.0262(19)
_cell_length_c                   16.727(3)
_cell_angle_alpha                72.832(4)
_cell_angle_beta                 78.101(3)
_cell_angle_gamma                79.010(4)
_cell_volume                     1188.19
loop_
_atom_site_label
_atom_site_type_symbol
_atom_site_fract_x
_atom_site_fract_y
_atom_site_fract_z
C1 C 0.8259(5) 1.4663(4) 0.7412(2)
C2 C 0.8344(5) 1.3198(4) 0.7720(2)
H1 H 0.8605 1.2732 0.8260
C3 C 0.8022(5) 1.2458(4) 0.7187(2)
C4 C 0.7770(6) 1.3105(4) 0.6370(2)
H2 H 0.7625 1.2577 0.6021
C5 C 0.7732(6) 1.4577(4) 0.6059(3)
C6 C 0.7956(5) 1.5340(4) 0.6595(2)
H3 H 0.7902 1.6314 0.6400
C7 C 0.8497(5) 1.5509(4) 0.7979(2)
C8 C 0.8069(5) 1.0876(4) 0.7503(2)
C9 C 0.7590(6) 1.4811(4) 0.4550(3)
C10 C 0.7218(7) 1.5879(5) 0.3727(3)
C11 C 0.6974(6) 1.5362(5) 0.3105(3)
H4 H 0.7031 1.4398 0.3185
C12 C 0.6639(6) 1.6307(5) 0.2345(3)
H5 H 0.6468 1.5939 0.1922
C13 C 0.6832(6) 1.8146(5) 0.2792(3)
H6 H 0.6810 1.9112 0.2694
C14 C 0.7165(7) 1.7275(5) 0.3573(3)
H7 H 0.7351 1.7655 0.3988
C15 C 0.5765(6) 0.6903(4) 0.9620(3)
H8 H 0.6496 0.6035 0.9724
C16 C 0.4063(6) 0.7173(4) 1.0028(3)
H9 H 0.3416 0.6546 1.0460
C17 C 0.4806(5) 0.9085(4) 0.9064(2)
H10 H 0.4739 1.0000 0.8713
C18 C 0.1712(5) 0.9303(4) 0.9839(2)
C19 C 0.1461(5) 1.0728(4) 0.9731(2)
H11 H 0.2447 1.1221 0.9543
C20 C 0.0245(5) 0.8557(4) 1.0102(2)
H12 H 0.0411 0.7591 1.0165
C21 C 1.2621(5) 0.7610(4) 0.7944(2)
H13 H 1.2734 0.7109 0.8500
C22 C 1.4008(5) 0.7921(4) 0.7313(3)
H14 H 1.5230 0.7693 0.7350
C23 C 1.1463(5) 0.8758(4) 0.6828(3)
H15 H 1.0644 0.9211 0.6460
C24 C 1.4178(5) 0.9298(5) 0.5788(2)
C25 C 1.3437(6) 0.9462(5) 0.5078(3)
H16 H 1.2367 0.9109 0.5132
C26 C 1.5742(5) 0.9854(5) 0.5718(3)
H17 H 1.6234 0.9770 0.6198
Cu1 Cu 0.84655(6) 0.82708(5) 0.81954(3)
N1 N 0.6542(5) 1.7667(4) 0.2173(2)
N2 N 0.7461(5) 1.5308(4) 0.5221(2)
H18 H 0.7169 1.6206 0.5130
N3 N 1.1010(4) 0.8142(3) 0.7648(2)
N4 N 1.3260(4) 0.8638(3) 0.6605(2)
N5 N 0.6230(4) 0.8094(3) 0.90393(19)
N6 N 0.3499(4) 0.8568(3) 0.96659(19)
O1 O 0.8971(4) 1.4898(3) 0.86641(19)
O2 O 0.8084(4) 1.6830(3) 0.77137(18)
O3 O 0.8466(3) 1.0253(3) 0.82217(17)
O4 O 0.7694(4) 1.0246(3) 0.7033(2)
O5 O 0.7893(5) 1.3580(3) 0.4594(2)
C1_2 C 0.8259(5) 0.4663(4) 0.7412(2)
C2_2 C 0.8344(5) 0.3198(4) 0.7720(2)
H1_2 H 0.8605 0.2732 0.8260
C3_2 C 0.8022(5) 0.2458(4) 0.7187(2)
C4_2 C 0.7770(6) 0.3105(4) 0.6370(2)
H2_2 H 0.7625 0.2577 0.6021
C5_2 C 0.7732(6) 0.4577(4) 0.6059(3)
C6_2 C 0.7956(5) 0.5340(4) 0.6595(2)
H3_2 H 0.7902 0.6314 0.6400
C7_2 C 0.8497(5) 0.5509(4) 0.7979(2)
C8_2 C 0.8069(5) 0.0876(4) 0.7503(2)
C9_2 C 0.7590(6) 0.4811(4) 0.4550(3)
C10_2 C 0.7218(7) 0.5879(5) 0.3727(3)
C11_2 C 0.6974(6) 0.5362(5) 0.3105(3)
H4_2 H 0.7031 0.4398 0.3185
C12_2 C 0.6639(6) 0.6307(5) 0.2345(3)
H5_2 H 0.6468 0.5939 0.1922
C13_2 C 0.6832(6) 0.8146(5) 0.2792(3)
H6_2 H 0.6810 0.9112 0.2694
C14_2 C 0.7165(7) 0.7275(5) 0.3573(3)
H7_2 H 0.7351 0.7655 0.3988
C15A C -0.5765(6) 1.3097(4) 1.0380(3)
H8A H -0.6496 1.3965 1.0276
C16A C -0.4063(6) 1.2827(4) 0.9972(3)
H9A H -0.3416 1.3454 0.9540
C17A C -0.4806(5) 1.0915(4) 1.0936(2)
H10A H -0.4739 1.0000 1.1287
C18A C -0.1712(5) 1.0697(4) 1.0161(2)
C19A C -0.1461(5) 0.9272(4) 1.0269(2)
H11A H -0.2447 0.8779 1.0457
C20A C -0.0245(5) 1.1443(4) 0.9898(2)
H12A H -0.0411 1.2409 0.9835
C21A C 1.7379(5) 1.2390(4) 0.2056(2)
H13A H 1.7266 1.2891 0.1500
C22A C 1.5992(5) 1.2079(4) 0.2687(3)
H14A H 1.4770 1.2307 0.2650
C23A C 1.8537(5) 1.1242(4) 0.3172(3)
H15A H 1.9356 1.0789 0.3540
C24A C 1.5822(5) 1.0702(5) 0.4212(2)
C25A C 1.6563(6) 1.0538(5) 0.4922(3)
H16A H 1.7633 1.0891 0.4868
C26A C 1.4258(5) 1.0146(5) 0.4282(3)
H17A H 1.3766 1.0230 0.3802
Cu1A Cu 2.15345(6) 1.17292(5) 0.18046(3)
Cu1_2 Cu 0.84655(6) 1.82708(5) 0.81954(3)
Cu1A_2 Cu -0.84655(6) 1.17292(5) 1.18046(3)
Cu1_3 Cu 0.84655(6) -0.17292(5) 0.81954(3)
N1_2 N 0.6542(5) 0.7667(4) 0.2173(2)
N2_2 N 0.7461(5) 0.5308(4) 0.5221(2)
H18_2 H 0.7169 0.6206 0.5130
N3A N 1.8990(4) 1.1858(3) 0.2352(2)
N4A N 1.6740(4) 1.1362(3) 0.3395(2)
N5A N -0.6230(4) 1.1906(3) 1.09607(19)
N5A_2 N 2.3770(4) 1.1906(3) 0.09607(19)
N6A N -0.3499(4) 1.1432(3) 1.03341(19)
O1_2 O 0.8971(4) 0.4898(3) 0.86641(19)
O2_2 O 0.8084(4) 0.6830(3) 0.77137(18)
O2A O 2.1916(4) 1.3170(3) 0.22863(18)
O3_2 O 0.8466(3) 0.0253(3) 0.82217(17)
O3A O 2.1534(3) 0.9747(3) 0.17783(17)
O4_2 O 0.7694(4) 0.0246(3) 0.7033(2)
O4A O 2.2306(4) 0.9754(3) 0.2967(2)
O5_2 O 0.7893(5) 0.3580(3) 0.4594(2)
loop_
_geom_bond_atom_site_label_1
_geom_bond_atom_site_label_2
_geom_bond_site_symmetry_1
_geom_bond_site_symmetry_2
C1 C2 1_555 1_555
C2 H1 1_555 1_555
C3 C2 1_555 1_555
C4 C3 1_555 1_555
H2 C4 1_555 1_555
C5 C4 1_555 1_555
C6 C1 1_555 1_555
H3 C6 1_555 1_555
C7 C1 1_555 1_555
C8 C3 1_555 1_555
C9 C10 1_555 1_555
C10 C11 1_555 1_555
C11 H4 1_555 1_555
C12 C11 1_555 1_555
H5 C12 1_555 1_555
C13 H6 1_555 1_555
C14 C10 1_555 1_555
H7 C14 1_555 1_555
C15 H8 1_555 1_555
C16 C15 1_555 1_555
H9 C16 1_555 1_555
C17 H10 1_555 1_555
C18 C19 1_555 1_555
C19 H11 1_555 1_555
C20 C18 1_555 1_555
H12 C20 1_555 1_555
C21 H13 1_555 1_555
C22 C21 1_555 1_555
H14 C22 1_555 1_555
C23 H15 1_555 1_555
C24 C25 1_555 1_555
C25 H16 1_555 1_555
C26 C24 1_555 1_555
H17 C26 1_555 1_555
Cu1 N3 1_555 1_555
N1 C12 1_555 1_555
N2 C5 1_555 1_555
H18 N2 1_555 1_555
N3 C21 1_555 1_555
N4 C22 1_555 1_555
N5 C15 1_555 1_555
N6 C16 1_555 1_555
O1 C7 1_555 1_555
O2 C7 1_555 1_555
O3 C8 1_555 1_555
O4 C8 1_555 1_555
O5 C9 1_555 1_555
C1_2 C2_2 1_555 1_555
C2_2 H1_2 1_555 1_555
C3_2 C2_2 1_555 1_555
C4_2 C3_2 1_555 1_555
H2_2 C4_2 1_555 1_555
C5_2 C4_2 1_555 1_555
C6_2 C1_2 1_555 1_555
H3_2 C6_2 1_555 1_555
C7_2 C1_2 1_555 1_555
C8_2 C3_2 1_555 1_555
C9_2 C10_2 1_555 1_555
C10_2 C11_2 1_555 1_555
C11_2 H4_2 1_555 1_555
C12_2 C11_2 1_555 1_555
H5_2 C12_2 1_555 1_555
C13_2 H6_2 1_555 1_555
C14_2 C10_2 1_555 1_555
H7_2 C14_2 1_555 1_555
C15A H8A 1_555 1_555
C16A C15A 1_555 1_555
H9A C16A 1_555 1_555
C17A H10A 1_555 1_555
C18A C19A 1_555 1_555
C19A C20 1_555 1_555
H11A C19A 1_555 1_555
C20A C19 1_555 1_555
H12A C20A 1_555 1_555
C21A H13A 1_555 1_555
C22A C21A 1_555 1_555
H14A C22A 1_555 1_555
C23A H15A 1_555 1_555
C24A C25A 1_555 1_555
C25A C26 1_555 1_555
H16A C25A 1_555 1_555
C26A C25 1_555 1_555
H17A C26A 1_555 1_555
Cu1A N3A 1_555 1_555
Cu1_2 O2 1_555 1_555
Cu1A_2 N5A 1_555 1_555
Cu1_3 O3_2 1_555 1_555
N1_2 C12_2 1_555 1_555
N2_2 C5_2 1_555 1_555
H18_2 N2_2 1_555 1_555
N3A C21A 1_555 1_555
N4A C22A 1_555 1_555
N5A C15A 1_555 1_555
N5A_2 Cu1A 1_555 1_555
N6A C16A 1_555 1_555
O1_2 C7_2 1_555 1_555
O2_2 Cu1 1_555 1_555
O2A Cu1A 1_555 1_555
O3_2 C8_2 1_555 1_555
O3A Cu1A 1_555 1_555
O4_2 C8_2 1_555 1_555
O4A Cu1A 1_555 1_555
O5_2 C9_2 1_555 1_555
C5 C6 1_555 1_555
C9 N2 1_555 1_555
C13 C14 1_555 1_555
C13 N1 1_555 1_555
C17 N5 1_555 1_555
C17 N6 1_555 1_555
C18 N6 1_555 1_555
C23 N3 1_555 1_555
C23 N4 1_555 1_555
C24 N4 1_555 1_555
Cu1 N5 1_555 1_555
Cu1 O3 1_555 1_555
Cu1 O4 1_555 1_555
C5_2 C6_2 1_555 1_555
C7_2 O2_2 1_555 1_555
C9_2 N2_2 1_555 1_555
C13_2 C14_2 1_555 1_555
C13_2 N1_2 1_555 1_555
C17A N5A 1_555 1_555
C17A N6A 1_555 1_555
C18A C20A 1_555 1_555
C18A N6A 1_555 1_555
C23A N3A 1_555 1_555
C23A N4A 1_555 1_555
C24A C26A 1_555 1_555
C24A N4A 1_555 1_555
Cu1_3 O4_2 1_555 1_555

#END
