
#######################################################################
#
#                 Cambridge Crystallographic Data Centre
#                                CCDC 
#
#######################################################################
#
# If this CIF has been generated from an entry in the Cambridge 
# Structural Database, then it will include bibliographic, chemical, 
# crystal, experimental, refinement or atomic coordinate data resulting 
# from the CCDC's data processing and validation procedures.
#
#######################################################################

data_TESKEI
_symmetry_cell_setting           monoclinic
_symmetry_space_group_name_H-M   'P 21/n'
_symmetry_Int_Tables_number      14
_space_group_name_Hall           '-P 2yn'
loop_
_symmetry_equiv_pos_site_id
_symmetry_equiv_pos_as_xyz
1 x,y,z
2 1/2-x,1/2+y,1/2-z
3 -x,-y,-z
4 1/2+x,1/2-y,1/2+z
_cell_length_a                   10.259(3)
_cell_length_b                   13.606(3)
_cell_length_c                   13.111(3)
_cell_angle_alpha                90
_cell_angle_beta                 92.53(2)
_cell_angle_gamma                90
_cell_volume                     1828.3
loop_
_atom_site_label
_atom_site_type_symbol
_atom_site_fract_x
_atom_site_fract_y
_atom_site_fract_z
Zn1 Zn -0.18538(2) 0.024070(17) 0.165320(16)
Cl1 Cl -0.26327(6) 0.01532(5) 0.32192(4)
Cl2 Cl -0.01357(5) 0.12056(4) 0.14460(5)
N1 N -0.29655(14) 0.00960(11) 0.03055(11)
O1 O -0.32822(13) 0.17079(9) 0.14011(9)
O2 O -0.38685(14) 0.38230(10) 0.34096(10)
O3 O -0.49494(16) 0.21754(11) 0.32481(12)
O4 O -0.53717(15) 0.33711(13) 0.18744(12)
P1 P -0.43324(5) 0.30482(4) 0.26970(4)
C1 C -0.2905(2) -0.07225(16) -0.02176(16)
H1 H -0.2457 -0.1251 0.0080
C2 C -0.3477(2) -0.08472(17) -0.11993(17)
H2 H -0.3434 -0.1452 -0.1527
C3 C -0.4089(2) -0.00836(17) -0.16624(15)
H3 H -0.4483 -0.0160 -0.2310
C4 C -0.41337(18) 0.08387(16) -0.11618(15)
C5 C -0.4671(2) 0.16915(19) -0.16079(17)
H4 H -0.5022 0.1667 -0.2274
C6 C -0.4689(2) 0.25391(18) -0.10941(17)
H5 H -0.5041 0.3098 -0.1408
C7 C -0.4177(2) 0.25938(16) -0.00790(16)
H6 H -0.4182 0.3191 0.0266
C8 C -0.36766(18) 0.17805(14) 0.04006(14)
C9 C -0.35810(17) 0.08808(14) -0.01559(14)
C10 C -0.30032(19) 0.25775(15) 0.19911(16)
H7 H -0.2723 0.3088 0.1534
H8 H -0.2278 0.2438 0.2469
C11 C -0.4970(5) 0.2048(3) 0.4272(3)
H9 H -0.4067 0.1980 0.4512
H10 H -0.5276 0.2664 0.4547
C12 C -0.5620(4) 0.1346(3) 0.4729(3)
H11 H -0.6502 0.1328 0.4453
H12 H -0.5620 0.1477 0.5448
H13 H -0.5208 0.0724 0.4616
C13 C -0.6416(3) 0.4018(3) 0.2021(2)
H14 H -0.7085 0.3677 0.2383
H15 H -0.6109 0.4564 0.2443
C14 C -0.6943(5) 0.4372(4) 0.1135(4)
H16 H -0.6265 0.4634 0.0732
H17 H -0.7556 0.4882 0.1276
H18 H -0.7383 0.3851 0.0766
Zn1A Zn -0.31462(2) 0.524070(17) 0.334680(16)
O2A O -0.11315(14) -0.11770(10) 0.15904(10)
loop_
_geom_bond_atom_site_label_1
_geom_bond_atom_site_label_2
_geom_bond_site_symmetry_1
_geom_bond_site_symmetry_2
Zn1 Cl1 1_555 1_555
Cl2 Zn1 1_555 1_555
N1 Zn1 1_555 1_555
O1 Zn1 1_555 1_555
O2 P1 1_555 1_555
O3 P1 1_555 1_555
O4 P1 1_555 1_555
P1 C10 1_555 1_555
C1 N1 1_555 1_555
H1 C1 1_555 1_555
C2 C1 1_555 1_555
H2 C2 1_555 1_555
C3 C2 1_555 1_555
H3 C3 1_555 1_555
C4 C3 1_555 1_555
C5 C4 1_555 1_555
H4 C5 1_555 1_555
C6 C5 1_555 1_555
H5 C6 1_555 1_555
C7 C6 1_555 1_555
H6 C7 1_555 1_555
C8 O1 1_555 1_555
C9 N1 1_555 1_555
C10 O1 1_555 1_555
H7 C10 1_555 1_555
H8 C10 1_555 1_555
C11 O3 1_555 1_555
H9 C11 1_555 1_555
H10 C11 1_555 1_555
C12 C11 1_555 1_555
H11 C12 1_555 1_555
H12 C12 1_555 1_555
H13 C12 1_555 1_555
C13 O4 1_555 1_555
H14 C13 1_555 1_555
H15 C13 1_555 1_555
C14 C13 1_555 1_555
H16 C14 1_555 1_555
H17 C14 1_555 1_555
H18 C14 1_555 1_555
Zn1A O2 1_555 1_555
O2A Zn1 1_555 1_555
C4 C9 1_555 1_555
C7 C8 1_555 1_555
C8 C9 1_555 1_555

#END
