
#######################################################################
#
#                 Cambridge Crystallographic Data Centre
#                                CCDC 
#
#######################################################################
#
# If this CIF has been generated from an entry in the Cambridge 
# Structural Database, then it will include bibliographic, chemical, 
# crystal, experimental, refinement or atomic coordinate data resulting 
# from the CCDC's data processing and validation procedures.
#
#######################################################################

data_TESMIP
_symmetry_cell_setting           triclinic
_symmetry_space_group_name_H-M   'P -1'
_symmetry_Int_Tables_number      2
_space_group_name_Hall           '-P 1'
loop_
_symmetry_equiv_pos_site_id
_symmetry_equiv_pos_as_xyz
1 x,y,z
2 -x,-y,-z
_cell_length_a                   9.358(2)
_cell_length_b                   10.258(2)
_cell_length_c                   13.016(3)
_cell_angle_alpha                89.383(3)
_cell_angle_beta                 78.588(3)
_cell_angle_gamma                63.127(3)
_cell_volume                     1088.07
loop_
_atom_site_label
_atom_site_type_symbol
_atom_site_fract_x
_atom_site_fract_y
_atom_site_fract_z
Mn1 Mn 0.49229(5) 0.18217(4) 0.39616(3)
Br1 Br 0.41362(5) 0.76735(4) -0.00096(2)
O1 O 0.3963(3) 0.3605(2) 0.27831(17)
O2 O 0.5411(3) 0.3791(2) 0.38633(16)
O3 O 0.3705(3) 0.9200(2) 0.48802(16)
O4 O 0.3904(3) 1.0476(2) 0.35156(16)
N1 N 0.2685(3) 0.3158(3) 0.52073(19)
N2 N 0.0701(3) 0.5087(3) 0.62094(18)
N3 N -0.0948(3) 0.8545(3) 1.16600(19)
N4 N -0.2897(3) 1.0478(3) 1.26935(19)
C1 C 0.4579(4) 0.4281(3) 0.3175(2)
C2 C 0.4307(3) 0.5760(3) 0.2812(2)
C3 C 0.4163(4) 0.6857(3) 0.3514(2)
H1 H 0.4197 0.6684 0.4214
C4 C 0.3971(3) 0.8199(3) 0.3174(2)
C5 C 0.3976(4) 0.8439(3) 0.2120(2)
H2 H 0.3894 0.9322 0.1879
C6 C 0.4106(4) 0.7349(3) 0.1434(2)
C7 C 0.4243(3) 0.6023(3) 0.1775(2)
H3 H 0.4292 0.5315 0.1309
C8 C 0.3852(3) 0.9379(3) 0.3915(2)
C9 C 0.1401(4) 0.2860(3) 0.5613(2)
H4 H 0.1379 0.1981 0.5483
C10 C 0.0173(4) 0.4044(4) 0.6232(2)
H5 H -0.0830 0.4129 0.6599
C11 C 0.2203(4) 0.4519(3) 0.5588(2)
H6 H 0.2830 0.5016 0.5442
C12 C -0.0232(4) 0.6567(3) 0.6749(2)
H7 H -0.1366 0.6957 0.6687
H8 H 0.0202 0.7193 0.6401
C13 C -0.0182(4) 0.6619(3) 0.7900(2)
C14 C 0.1263(4) 0.5860(3) 0.8248(2)
H9 H 0.2222 0.5241 0.7772
C15 C 0.1287(4) 0.6015(3) 0.9293(2)
H10 H 0.2264 0.5493 0.9514
C16 C -0.0101(4) 0.6923(3) 1.0013(2)
C17 C -0.1547(4) 0.7674(4) 0.9673(3)
H11 H -0.2500 0.8298 1.0150
C18 C -0.1590(4) 0.7505(4) 0.8623(3)
H12 H -0.2578 0.7994 0.8408
C19 C -0.0039(4) 0.7045(3) 1.1156(2)
H13 H -0.0480 0.6443 1.1537
H14 H 0.1098 0.6656 1.1209
C20 C -0.0516(5) 0.9656(4) 1.1519(3)
H15 H 0.0413 0.9616 1.1072
C21 C -0.1714(5) 1.0817(4) 1.2162(3)
H16 H -0.1731 1.1726 1.2233
C22 C -0.2387(4) 0.9101(3) 1.2359(2)
H17 H -0.2961 0.8573 1.2583
Mn1A Mn 0.50771(5) 0.81783(4) 0.60384(3)
Mn1_2 Mn 0.49229(5) 1.18217(4) 0.39616(3)
Mn1_3 Mn -0.50771(5) 1.18217(4) 1.39616(3)
O3A O 0.6295(3) 0.0800(2) 0.51198(16)
O4_2 O 0.3904(3) 0.0476(2) 0.35156(16)
N4_2 N 0.7103(3) 0.0478(3) 0.26935(19)
loop_
_geom_bond_atom_site_label_1
_geom_bond_atom_site_label_2
_geom_bond_site_symmetry_1
_geom_bond_site_symmetry_2
Mn1 O1 1_555 1_555
Br1 C6 1_555 1_555
O1 C1 1_555 1_555
O2 Mn1 1_555 1_555
O3 C8 1_555 1_555
O4 C8 1_555 1_555
N1 Mn1 1_555 1_555
N2 C10 1_555 1_555
N3 C19 1_555 1_555
N4 C21 1_555 1_555
C1 O2 1_555 1_555
C2 C1 1_555 1_555
C3 C2 1_555 1_555
H1 C3 1_555 1_555
C4 C3 1_555 1_555
C5 C4 1_555 1_555
H2 C5 1_555 1_555
C6 C5 1_555 1_555
C7 C2 1_555 1_555
H3 C7 1_555 1_555
C8 C4 1_555 1_555
C9 N1 1_555 1_555
H4 C9 1_555 1_555
C10 C9 1_555 1_555
H5 C10 1_555 1_555
C11 N1 1_555 1_555
H6 C11 1_555 1_555
C12 N2 1_555 1_555
H7 C12 1_555 1_555
H8 C12 1_555 1_555
C13 C12 1_555 1_555
C14 C13 1_555 1_555
H9 C14 1_555 1_555
C15 C14 1_555 1_555
H10 C15 1_555 1_555
C16 C15 1_555 1_555
C17 C16 1_555 1_555
H11 C17 1_555 1_555
C18 C13 1_555 1_555
H12 C18 1_555 1_555
C19 C16 1_555 1_555
H13 C19 1_555 1_555
H14 C19 1_555 1_555
C20 N3 1_555 1_555
H15 C20 1_555 1_555
C21 C20 1_555 1_555
H16 C21 1_555 1_555
C22 N3 1_555 1_555
H17 C22 1_555 1_555
Mn1A O3 1_555 1_555
Mn1_2 O4 1_555 1_555
Mn1_3 N4 1_555 1_555
O3A Mn1 1_555 1_555
O4_2 Mn1 1_555 1_555
N4_2 Mn1 1_555 1_555
N2 C11 1_555 1_555
N4 C22 1_555 1_555
C6 C7 1_555 1_555
C17 C18 1_555 1_555

#END
