
#######################################################################
#
#                 Cambridge Crystallographic Data Centre
#                                CCDC 
#
#######################################################################
#
# If this CIF has been generated from an entry in the Cambridge 
# Structural Database, then it will include bibliographic, chemical, 
# crystal, experimental, refinement or atomic coordinate data resulting 
# from the CCDC's data processing and validation procedures.
#
#######################################################################

data_TESQIT
_symmetry_cell_setting           monoclinic
_symmetry_space_group_name_H-M   'C 2/c'
_symmetry_Int_Tables_number      15
_space_group_name_Hall           '-C 2yn'
loop_
_symmetry_equiv_pos_site_id
_symmetry_equiv_pos_as_xyz
1 x,y,z
2 -x,y,1/2-z
3 1/2+x,1/2+y,z
4 1/2-x,1/2+y,1/2-z
5 -x,-y,-z
6 x,-y,1/2+z
7 1/2-x,1/2-y,-z
8 1/2+x,1/2-y,1/2+z
_cell_length_a                   9.6025(3)
_cell_length_b                   21.6248(5)
_cell_length_c                   16.4162(5)
_cell_angle_alpha                90
_cell_angle_beta                 96.440(3)
_cell_angle_gamma                90
_cell_volume                     3387.35
loop_
_atom_site_label
_atom_site_type_symbol
_atom_site_fract_x
_atom_site_fract_y
_atom_site_fract_z
Cd1 Cd 0.5000 -0.204281(10) 0.2500
O1 O 0.5484(2) -0.11851(8) 0.34050(11)
O2 O 0.3371(2) -0.15962(8) 0.33352(11)
N1 N 0.13134(19) 0.23248(8) 0.33744(11)
N2 N 0.2093(2) 0.16218(8) 0.43098(11)
C1 C 0.2685(2) 0.24712(9) 0.36677(13)
C2 C 0.4523(3) 0.20847(11) 0.46879(17)
H1 H 0.4845 0.1809 0.5102
C3 C 0.5340(3) 0.25587(14) 0.44545(18)
H2 H 0.6238 0.2606 0.4724
C4 C 0.4885(3) 0.29692(12) 0.38367(19)
H3 H 0.5497 0.3272 0.3689
C5 C 0.3174(2) 0.20405(9) 0.42648(14)
C6 C 0.2130(3) 0.10963(10) 0.48803(14)
H4 H 0.1187 0.1018 0.5014
H5 H 0.2701 0.1208 0.5384
C7 C 0.2705(3) 0.05062(10) 0.45506(14)
C8 C 0.3867(3) 0.05043(11) 0.41269(17)
H6 H 0.4322 0.0874 0.4041
C9 C 0.4363(3) -0.00413(12) 0.38289(18)
H7 H 0.5159 -0.0034 0.3554
C10 C 0.3697(3) -0.05961(10) 0.39322(14)
C11 C 0.2101(3) -0.00549(12) 0.46994(17)
H8 H 0.1355 -0.0067 0.5015
C12 C 0.4229(3) -0.11672(10) 0.35367(15)
C13 C 0.2581(3) -0.06024(11) 0.43887(17)
H9 H 0.2146 -0.0975 0.4489
C14 C 0.3543(3) 0.29421(10) 0.34312(16)
H10 H 0.3231 0.3223 0.3023
C15 C 0.0999(2) 0.18148(10) 0.37648(13)
C16 C -0.0358(3) 0.14953(10) 0.35939(14)
C17 C -0.0423(3) 0.08638(12) 0.34395(16)
H11 H 0.0387 0.0625 0.3505
C18 C -0.1705(4) 0.05947(14) 0.31873(19)
H12 H -0.1754 0.0171 0.3090
C19 C -0.2902(4) 0.09418(17) 0.3079(2)
H13 H -0.3751 0.0756 0.2890
C20 C -0.2855(3) 0.15600(16) 0.32484(18)
H14 H -0.3675 0.1792 0.3190
C21 C -0.1591(3) 0.18419(13) 0.35067(16)
H15 H -0.1562 0.2263 0.3623
Cd1B Cd 0.0000 0.295719(10) 0.2500
Cd1B_2 Cd 1.0000 0.295719(10) 0.2500
O1A O 0.4516(2) -0.11851(8) 0.15950(11)
O2A O 0.6629(2) -0.15962(8) 0.16648(11)
N1A N 0.86866(19) 0.23248(8) 0.16256(11)
N1B N 0.63134(19) -0.26752(8) 0.33744(11)
N1C N 0.36866(19) -0.26752(8) 0.16256(11)
N2A N 0.7907(2) 0.16218(8) 0.06902(11)
C1A C 0.7315(2) 0.24712(9) 0.13323(13)
C2A C 0.5477(3) 0.20847(11) 0.03121(17)
H1A H 0.5155 0.1809 -0.0102
C3A C 0.4660(3) 0.25587(14) 0.05455(18)
H2A H 0.3762 0.2606 0.0276
C4A C 0.5115(3) 0.29692(12) 0.11633(19)
H3A H 0.4503 0.3272 0.1311
C5A C 0.6826(2) 0.20405(9) 0.07352(14)
C6A C 0.7870(3) 0.10963(10) 0.01197(14)
H4A H 0.8813 0.1018 -0.0014
H5A H 0.7299 0.1208 -0.0384
C7A C 0.7295(3) 0.05062(10) 0.04494(14)
C8A C 0.6133(3) 0.05043(11) 0.08731(17)
H6A H 0.5678 0.0874 0.0959
C9A C 0.5637(3) -0.00413(12) 0.11711(18)
H7A H 0.4841 -0.0034 0.1446
C10A C 0.6303(3) -0.05961(10) 0.10678(14)
C11A C 0.7899(3) -0.00549(12) 0.03006(17)
H8A H 0.8645 -0.0067 -0.0015
C12A C 0.5771(3) -0.11672(10) 0.14633(15)
C13A C 0.7419(3) -0.06024(11) 0.06113(17)
H9A H 0.7854 -0.0975 0.0511
C14A C 0.6457(3) 0.29421(10) 0.15688(16)
H10A H 0.6769 0.3223 0.1977
C15A C 0.9001(2) 0.18148(10) 0.12352(13)
C16A C 1.0358(3) 0.14953(10) 0.14061(14)
C17A C 1.0423(3) 0.08638(12) 0.15605(16)
H11A H 0.9613 0.0625 0.1495
C18A C 1.1705(4) 0.05947(14) 0.18127(19)
H12A H 1.1754 0.0171 0.1910
C19A C 1.2902(4) 0.09418(17) 0.1921(2)
H13A H 1.3751 0.0756 0.2110
C20A C 1.2855(3) 0.15600(16) 0.17516(18)
H14A H 1.3675 0.1792 0.1810
C21A C 1.1591(3) 0.18419(13) 0.14933(16)
H15A H 1.1562 0.2263 0.1377
loop_
_geom_bond_atom_site_label_1
_geom_bond_atom_site_label_2
_geom_bond_site_symmetry_1
_geom_bond_site_symmetry_2
Cd1 O1 1_555 1_555
O1 C12 1_555 1_555
O2 Cd1 1_555 1_555
N1 C1 1_555 1_555
N2 C5 1_555 1_555
C1 C5 1_555 1_555
C2 H1 1_555 1_555
C3 C2 1_555 1_555
H2 C3 1_555 1_555
C4 C3 1_555 1_555
H3 C4 1_555 1_555
C5 C2 1_555 1_555
C6 N2 1_555 1_555
H4 C6 1_555 1_555
H5 C6 1_555 1_555
C7 C6 1_555 1_555
C8 C7 1_555 1_555
H6 C8 1_555 1_555
C9 C8 1_555 1_555
H7 C9 1_555 1_555
C10 C9 1_555 1_555
C11 C7 1_555 1_555
H8 C11 1_555 1_555
C12 O2 1_555 1_555
C13 C10 1_555 1_555
H9 C13 1_555 1_555
C14 C1 1_555 1_555
H10 C14 1_555 1_555
C15 N1 1_555 1_555
C16 C15 1_555 1_555
C17 C16 1_555 1_555
H11 C17 1_555 1_555
C18 C17 1_555 1_555
H12 C18 1_555 1_555
C19 C18 1_555 1_555
H13 C19 1_555 1_555
C20 C19 1_555 1_555
H14 C20 1_555 1_555
C21 C16 1_555 1_555
H15 C21 1_555 1_555
Cd1B N1 1_555 1_555
Cd1B_2 N1A 1_555 1_555
O1A Cd1 1_555 1_555
O2A Cd1 1_555 1_555
N1A C1A 1_555 1_555
N1B Cd1 1_555 1_555
N1C Cd1 1_555 1_555
N2A C5A 1_555 1_555
C1A C5A 1_555 1_555
C2A H1A 1_555 1_555
C3A C2A 1_555 1_555
H2A C3A 1_555 1_555
C4A C3A 1_555 1_555
H3A C4A 1_555 1_555
C5A C2A 1_555 1_555
C6A N2A 1_555 1_555
H4A C6A 1_555 1_555
H5A C6A 1_555 1_555
C7A C6A 1_555 1_555
C8A C7A 1_555 1_555
H6A C8A 1_555 1_555
C9A C8A 1_555 1_555
H7A C9A 1_555 1_555
C10A C9A 1_555 1_555
C11A C7A 1_555 1_555
H8A C11A 1_555 1_555
C12A O1A 1_555 1_555
C13A C10A 1_555 1_555
H9A C13A 1_555 1_555
C14A C1A 1_555 1_555
H10A C14A 1_555 1_555
C15A N1A 1_555 1_555
C16A C15A 1_555 1_555
C17A C16A 1_555 1_555
H11A C17A 1_555 1_555
C18A C17A 1_555 1_555
H12A C18A 1_555 1_555
C19A C18A 1_555 1_555
H13A C19A 1_555 1_555
C20A C19A 1_555 1_555
H14A C20A 1_555 1_555
C21A C16A 1_555 1_555
H15A C21A 1_555 1_555
N2 C15 1_555 1_555
C4 C14 1_555 1_555
C10 C12 1_555 1_555
C11 C13 1_555 1_555
C20 C21 1_555 1_555
O2A C12A 1_555 1_555
N2A C15A 1_555 1_555
C4A C14A 1_555 1_555
C10A C12A 1_555 1_555
C11A C13A 1_555 1_555
C20A C21A 1_555 1_555

#END
