
#######################################################################
#
#                 Cambridge Crystallographic Data Centre
#                                CCDC 
#
#######################################################################
#
# If this CIF has been generated from an entry in the Cambridge 
# Structural Database, then it will include bibliographic, chemical, 
# crystal, experimental, refinement or atomic coordinate data resulting 
# from the CCDC's data processing and validation procedures.
#
#######################################################################

data_TESQEP
_symmetry_cell_setting           monoclinic
_symmetry_space_group_name_H-M   'P 21/n'
_symmetry_Int_Tables_number      14
_space_group_name_Hall           '-P 2yn'
loop_
_symmetry_equiv_pos_site_id
_symmetry_equiv_pos_as_xyz
1 x,y,z
2 1/2-x,1/2+y,1/2-z
3 -x,-y,-z
4 1/2+x,1/2-y,1/2+z
_cell_length_a                   9.4893(2)
_cell_length_b                   18.1400(4)
_cell_length_c                   12.2891(2)
_cell_angle_alpha                90
_cell_angle_beta                 102.035(2)
_cell_angle_gamma                90
_cell_volume                     2068.9
loop_
_atom_site_label
_atom_site_type_symbol
_atom_site_fract_x
_atom_site_fract_y
_atom_site_fract_z
C1 C -0.0151(4) 0.11673(19) -0.2793(3)
H1 H -0.1015 0.0915 -0.3018
C2 C 0.2157(5) 0.1430(2) -0.2470(3)
H2 H 0.3146 0.1406 -0.2427
C3 C 0.1408(4) 0.1986(2) -0.2114(3)
H3 H 0.1815 0.2418 -0.1779
C4 C 0.1366(4) 0.01535(18) -0.3269(3)
H4 H 0.0449 -0.0052 -0.3643
H5 H 0.1992 0.0168 -0.3799
C5 C 0.2044(4) -0.03569(17) -0.2288(3)
C6 C 0.1173(4) -0.02535(18) -0.1369(2)
H6 H 0.0203 -0.0435 -0.1647
H7 H 0.1102 0.0270 -0.1231
C7 C 0.1590(4) -0.13269(19) -0.0015(3)
H8 H 0.1075 -0.1678 -0.0490
C8 C 0.2571(4) -0.0281(2) 0.0610(3)
H9 H 0.2861 0.0210 0.0669
N1 N 0.2235(4) -0.14595(17) 0.1010(3)
C9 C 0.1975(4) -0.11546(18) -0.2734(3)
H10 H 0.2345 -0.1481 -0.2116
H11 H 0.2613 -0.1192 -0.3254
C10 C -0.0482(4) -0.1702(2) -0.2822(3)
H12 H -0.0439 -0.1714 -0.2059
C11 C 0.0107(5) -0.1515(2) -0.4413(3)
H13 H 0.0605 -0.1382 -0.4960
C12 C -0.1198(4) -0.1841(2) -0.4573(3)
H14 H -0.1764 -0.1966 -0.5261
C13 C 0.3669(4) -0.01501(18) -0.1887(3)
H15 H 0.3774 0.0131 -0.1204
H16 H 0.3947 0.0168 -0.2441
C14 C 0.5380(4) -0.10439(19) -0.2452(3)
H17 H 0.5359 -0.0828 -0.3141
C15 C 0.5846(5) -0.1769(2) -0.1046(3)
H18 H 0.6222 -0.2159 -0.0585
C16 C 0.4975(4) -0.12414(19) -0.0781(3)
H19 H 0.4645 -0.1201 -0.0122
N2 N -0.0037(3) 0.18212(17) -0.2321(3)
N3 N 0.1137(3) 0.09093(15) -0.2908(2)
N4 N 0.1757(3) -0.06193(16) -0.0309(2)
C17 C 0.2869(4) -0.0804(2) 0.1413(3)
H20 H 0.3417 -0.0732 0.2125
N5 N 0.0556(3) -0.14191(16) -0.3287(2)
N6 N -0.1564(3) -0.19606(16) -0.3565(2)
N7 N 0.4671(3) -0.07735(15) -0.1688(2)
N8 N 0.6103(4) -0.16481(14) -0.2103(3)
O1 O 0.3182(3) -0.21071(15) 0.3348(2)
O2 O 0.5375(3) -0.22095(15) 0.5424(2)
O4 O 0.5484(3) -0.10372(16) 0.3847(2)
O5 O 0.3258(3) -0.10376(16) 0.5089(2)
Co1 Co 0.17519(5) -0.24483(2) 0.19024(3)
W1 W 0.433400(14) -0.160450(7) 0.442440(10)
N2B N 0.0037(3) -0.18212(17) 0.2321(3)
N6C N 0.3436(3) -0.30394(16) 0.1435(2)
N8C N 0.1103(4) -0.33519(14) 0.2897(3)
O2C O 0.0375(3) -0.27905(15) 0.0424(2)
Co1B Co -0.17519(5) 0.24483(2) -0.19024(3)
Co1C Co 0.67519(5) -0.25517(2) 0.69024(3)
Co1C_2 Co -0.32481(5) -0.25517(2) -0.30976(3)
Co1C_3 Co 0.67519(5) -0.25517(2) -0.30976(3)
O3 O -0.2637(5) -0.5230(2) -0.1059(4)
H21 H -0.220(4) -0.4898(17) -0.063(3)
H22 H -0.232(5) -0.5593(16) -0.065(3)
loop_
_geom_bond_atom_site_label_1
_geom_bond_atom_site_label_2
_geom_bond_site_symmetry_1
_geom_bond_site_symmetry_2
C1 H1 1_555 1_555
C2 H2 1_555 1_555
C3 C2 1_555 1_555
H3 C3 1_555 1_555
C4 H4 1_555 1_555
H5 C4 1_555 1_555
C5 C4 1_555 1_555
C6 C5 1_555 1_555
H6 C6 1_555 1_555
H7 C6 1_555 1_555
C7 H8 1_555 1_555
C8 H9 1_555 1_555
N1 C7 1_555 1_555
C9 C5 1_555 1_555
H10 C9 1_555 1_555
H11 C9 1_555 1_555
C10 H12 1_555 1_555
C11 H13 1_555 1_555
C12 C11 1_555 1_555
H14 C12 1_555 1_555
C13 C5 1_555 1_555
H15 C13 1_555 1_555
H16 C13 1_555 1_555
C14 H17 1_555 1_555
C15 H18 1_555 1_555
C16 C15 1_555 1_555
H19 C16 1_555 1_555
N2 C1 1_555 1_555
N3 C1 1_555 1_555
N4 C6 1_555 1_555
C17 C8 1_555 1_555
H20 C17 1_555 1_555
N5 C9 1_555 1_555
N6 C10 1_555 1_555
N7 C13 1_555 1_555
N8 C14 1_555 1_555
O1 Co1 1_555 1_555
O2 W1 1_555 1_555
O3 H21 1_555 1_555
O4 W1 1_555 1_555
O5 W1 1_555 1_555
Co1 N1 1_555 1_555
W1 O1 1_555 1_555
H22 O3 1_555 1_555
N2B Co1 1_555 1_555
N6C Co1 1_555 1_555
N8C Co1 1_555 1_555
O2C Co1 1_555 1_555
Co1B N2 1_555 1_555
Co1C O2 1_555 1_555
Co1C_2 N6 1_555 1_555
Co1C_3 N8 1_555 1_555
C2 N3 1_555 1_555
C3 N2 1_555 1_555
C4 N3 1_555 1_555
C7 N4 1_555 1_555
C8 N4 1_555 1_555
N1 C17 1_555 1_555
C10 N5 1_555 1_555
C11 N5 1_555 1_555
C12 N6 1_555 1_555
C14 N7 1_555 1_555
C15 N8 1_555 1_555
C16 N7 1_555 1_555

#END
