
#######################################################################
#
#                 Cambridge Crystallographic Data Centre
#                                CCDC 
#
#######################################################################
#
# If this CIF has been generated from an entry in the Cambridge 
# Structural Database, then it will include bibliographic, chemical, 
# crystal, experimental, refinement or atomic coordinate data resulting 
# from the CCDC's data processing and validation procedures.
#
#######################################################################

data_TESWOE
_symmetry_cell_setting           orthorhombic
_symmetry_space_group_name_H-M   'P b c a'
_symmetry_Int_Tables_number      61
_space_group_name_Hall           '-P 2ac 2ab'
loop_
_symmetry_equiv_pos_site_id
_symmetry_equiv_pos_as_xyz
1 x,y,z
2 1/2-x,-y,1/2+z
3 -x,1/2+y,1/2-z
4 1/2+x,1/2-y,-z
5 -x,-y,-z
6 1/2+x,y,1/2-z
7 x,1/2-y,1/2+z
8 1/2-x,1/2+y,z
_cell_length_a                   7.5575(6)
_cell_length_b                   9.3285(8)
_cell_length_c                   16.6741(14)
_cell_angle_alpha                90
_cell_angle_beta                 90
_cell_angle_gamma                90
_cell_volume                     1175.53
loop_
_atom_site_label
_atom_site_type_symbol
_atom_site_fract_x
_atom_site_fract_y
_atom_site_fract_z
Cu1 Cu 0.32621(17) 0.49207(14) -0.44615(7)
Se1 Se -0.01465(13) 0.30827(10) -0.50214(7)
O1 O 0.1737(10) 0.3923(7) -0.5338(4)
O2 O -0.1578(10) 0.3568(7) -0.5744(4)
O3 O 0.0258(9) 0.1351(7) -0.5305(4)
N1 N 0.3798(12) 0.4852(10) -0.3285(5)
N2 N 0.3639(13) 0.5137(11) -0.1989(5)
H1 H 0.3395 0.5516 -0.1532
C1 C 0.4569(17) 0.3905(12) -0.2109(6)
H2 H 0.5024 0.3299 -0.1717
C2 C 0.4699(16) 0.3740(14) -0.2919(7)
H3 H 0.5293 0.3004 -0.3182
C3 C 0.3175(16) 0.5652(13) -0.2703(7)
H4 H 0.2496 0.6472 -0.2780
Cu1D Cu -0.32621(17) 0.50793(14) -0.55385(7)
Cu1G Cu 0.17379(17) -0.00793(14) -0.44615(7)
Cu1C Cu -0.17379(17) 0.00793(14) -0.55385(7)
O2D O 0.1578(10) 0.6432(7) -0.4256(4)
O3C O 0.5258(9) 0.3649(7) -0.4695(4)
O3G O 0.4742(9) 0.6351(7) -0.5305(4)
loop_
_geom_bond_atom_site_label_1
_geom_bond_atom_site_label_2
_geom_bond_site_symmetry_1
_geom_bond_site_symmetry_2
Cu1 O1 1_555 1_555
Se1 O1 1_555 1_555
O2 Se1 1_555 1_555
O3 Se1 1_555 1_555
N1 Cu1 1_555 1_555
N2 H1 1_555 1_555
C1 N2 1_555 1_555
H2 C1 1_555 1_555
C2 N1 1_555 1_555
H3 C2 1_555 1_555
C3 N1 1_555 1_555
H4 C3 1_555 1_555
Cu1D O2 1_555 1_555
Cu1G O3 1_555 1_555
Cu1C O3 1_555 1_555
O2D Cu1 1_555 1_555
O3C Cu1 1_555 1_555
O3G Cu1 1_555 1_555
N2 C3 1_555 1_555
C1 C2 1_555 1_555

#END
