
#######################################################################
#
#                 Cambridge Crystallographic Data Centre
#                                CCDC 
#
#######################################################################
#
# If this CIF has been generated from an entry in the Cambridge 
# Structural Database, then it will include bibliographic, chemical, 
# crystal, experimental, refinement or atomic coordinate data resulting 
# from the CCDC's data processing and validation procedures.
#
#######################################################################

data_TESZIB
_symmetry_cell_setting           triclinic
_symmetry_space_group_name_H-M   'P -1'
_symmetry_Int_Tables_number      2
_space_group_name_Hall           '-P 1'
loop_
_symmetry_equiv_pos_site_id
_symmetry_equiv_pos_as_xyz
1 x,y,z
2 -x,-y,-z
_cell_length_a                   10.8481(7)
_cell_length_b                   21.2515(13)
_cell_length_c                   21.7740(13)
_cell_angle_alpha                101.2840(10)
_cell_angle_beta                 90.7340(10)
_cell_angle_gamma                91.5070(10)
_cell_volume                     4920.18
loop_
_atom_site_label
_atom_site_type_symbol
_atom_site_fract_x
_atom_site_fract_y
_atom_site_fract_z
O1 O -0.6216(3) 0.23210(15) 0.23256(15)
C3 C 0.1066(4) 0.2564(2) 0.2482(2)
H5 H 0.1593 0.2598 0.2851
H6 H 0.0673 0.2973 0.2509
O4 O 0.0153(3) 0.39216(15) 0.05548(16)
O5 O -0.5164(3) 0.08731(16) 0.17900(17)
C12 C -0.2577(4) 0.1542(2) 0.1206(2)
H23 H -0.2261 0.1520 0.1619
H24 H -0.3389 0.1335 0.1160
C14 C -0.1752(6) 0.1166(3) 0.0729(3)
H28 H -0.0916 0.1342 0.0794
H29 H -0.2026 0.1204 0.0312
C15 C 0.4741(5) 0.0885(3) -0.0253(3)
H30 H 0.4798 0.0469 -0.0517
H31 H 0.5501 0.0996 -0.0023
H32 H 0.4585 0.1197 -0.0508
C16 C 0.0081(6) 0.2064(3) 0.2507(3)
H33 H -0.0372 0.2193 0.2890
H34 H -0.0492 0.2057 0.2160
C20 C -0.1768(8) 0.0443(3) 0.0780(5)
H44 H -0.2167 0.0419 0.1171
H45 H -0.2320 0.0222 0.0448
C21 C 0.0493(16) 0.1425(5) 0.2484(7)
H46 H -0.0138 0.1183 0.2208
H47 H 0.1204 0.1428 0.2219
C22 C 0.0768(16) 0.1057(6) 0.2750(5)
H48 H 0.0925 0.0663 0.2464
H49 H 0.0117 0.0985 0.3025
H50 H 0.1502 0.1202 0.2993
C23 C -0.0947(15) 0.0147(6) 0.0763(12)
H51 H -0.1168 -0.0254 0.0879
H52 H -0.0328 0.0369 0.1050
H53 H -0.0630 0.0068 0.0347
Sn3 Sn 0.22149(3) 0.242170(15) 0.167850(14)
Sn4 Sn -0.27747(3) 0.253580(15) 0.115930(14)
O10 O 0.0285(3) 0.24731(15) 0.11417(14)
O11 O -0.4625(3) 0.25084(15) 0.17385(14)
O12 O -0.1277(3) 0.25605(15) 0.04894(14)
C62 C 0.2213(4) 0.2416(2) -0.0991(2)
H90 H 0.2716 0.2390 -0.1337
C63 C -0.0139(4) 0.2514(2) 0.0615(2)
C64 C 0.2032(4) 0.3659(2) -0.0779(2)
C65 C -0.5076(4) 0.2337(2) 0.2205(2)
C66 C 0.0797(4) 0.3716(2) 0.0110(2)
C67 C 0.1830(4) 0.3004(2) -0.0670(2)
C68 C 0.1827(4) 0.1864(2) -0.0782(2)
H91 H 0.2070 0.1466 -0.0999
C69 C 0.1064(4) 0.3028(2) -0.0144(2)
C70 C 0.1091(4) 0.1890(2) -0.0261(2)
H92 H 0.0860 0.1513 -0.0130
C71 C 0.1454(4) 0.4096(2) -0.0307(2)
C72 C 0.2637(4) 0.3884(2) -0.1247(2)
H93 H 0.3026 0.3602 -0.1561
C73 C 0.2520(4) 0.1502(2) 0.1109(2)
H94 H 0.2726 0.1205 0.1377
H95 H 0.1762 0.1345 0.0883
C74 C -0.2897(5) 0.3877(2) 0.2013(2)
H96 H -0.2914 0.4075 0.1647
H97 H -0.3732 0.3733 0.2079
C75 C -0.3657(4) 0.2596(2) 0.3160(2)
H98 H -0.3820 0.3028 0.3187
C76 C -0.2595(4) 0.1766(3) 0.3563(2)
H99 H -0.2063 0.1645 0.3855
C77 C 0.1482(4) 0.4740(2) -0.0296(2)
H100 H 0.1108 0.5022 0.0024
C78 C 0.0694(4) 0.2482(2) 0.0068(2)
C79 C -0.4423(4) 0.0906(2) 0.2214(2)
C80 C -0.4220(4) 0.2134(2) 0.2678(2)
C81 C -0.3008(5) 0.0606(2) 0.2925(2)
C82 C -0.3135(4) 0.1312(2) 0.3089(2)
C83 C -0.3767(5) 0.0362(2) 0.2404(2)
C84 C 0.2660(4) 0.4537(2) -0.1247(2)
H101 H 0.3063 0.4692 -0.1564
C85 C 0.3552(4) 0.1513(2) 0.0637(2)
H102 H 0.3381 0.1836 0.0392
H103 H 0.4324 0.1635 0.0864
C86 C 0.2263(5) 0.3880(2) 0.1732(2)
H104 H 0.1377 0.3830 0.1666
H105 H 0.2428 0.3925 0.2177
C87 C 0.2872(4) 0.3268(2) 0.1386(2)
H106 H 0.3757 0.3312 0.1457
H107 H 0.2716 0.3222 0.0939
C88 C -0.3723(4) 0.3375(2) 0.0242(2)
H108 H -0.2856 0.3413 0.0147
H109 H -0.3899 0.3720 0.0590
C89 C -0.2323(5) 0.0187(3) 0.3197(3)
H110 H -0.1820 0.0338 0.3546
C90 C -0.2863(4) 0.2413(2) 0.3595(2)
H111 H -0.2506 0.2724 0.3912
C91 C 0.3696(5) 0.0875(3) 0.0199(3)
H112 H 0.2933 0.0758 -0.0037
H113 H 0.3846 0.0549 0.0444
C92 C -0.4265(5) 0.4096(3) -0.0513(3)
H114 H -0.4772 0.4122 -0.0872
H115 H -0.3412 0.4140 -0.0615
H116 H -0.4464 0.4435 -0.0172
C93 C -0.4494(5) 0.3454(3) -0.0327(3)
H117 H -0.4307 0.3115 -0.0677
H118 H -0.5361 0.3409 -0.0235
C94 C -0.3947(4) 0.1502(2) 0.2654(2)
C95 C -0.3856(6) -0.0282(2) 0.2142(3)
H119 H -0.4370 -0.0435 0.1797
C96 C -0.3968(4) 0.2736(2) 0.0438(2)
H120 H -0.3900 0.2396 0.0072
H121 H -0.4812 0.2724 0.0579
C97 C 0.4084(5) 0.4630(3) 0.1617(3)
H122 H 0.4305 0.5019 0.1479
H123 H 0.4518 0.4279 0.1377
H124 H 0.4301 0.4673 0.2053
C98 C 0.2085(5) 0.4964(2) -0.0776(2)
H125 H 0.2105 0.5401 -0.0782
C99 C -0.2406(6) -0.0462(3) 0.2934(3)
H126 H -0.1952 -0.0748 0.3113
C100 C -0.1192(6) 0.4659(3) 0.2520(3)
H127 H -0.0983 0.4972 0.2890
H128 H -0.1171 0.4859 0.2161
H129 H -0.0610 0.4321 0.2470
C101 C 0.2702(5) 0.4499(3) 0.1527(3)
H130 H 0.2486 0.4468 0.1088
H131 H 0.2271 0.4858 0.1765
C102 C -0.3149(6) -0.0697(3) 0.2413(3)
H132 H -0.3176 -0.1134 0.2243
C103 C -0.2478(6) 0.4382(3) 0.2580(3)
H133 H -0.3057 0.4728 0.2640
H134 H -0.2497 0.4191 0.2950
C104 C -0.2083(4) 0.3293(2) 0.1877(2)
H135 H -0.1980 0.3128 0.2259
H136 H -0.1274 0.3429 0.1759
O1_2 O 0.3784(3) 0.23210(15) 0.23256(15)
Sn3_2 Sn -0.77851(3) 0.242170(15) 0.167850(14)
O2 O 0.2913(3) 0.70668(15) 0.46661(14)
C1 C 0.1862(4) 0.7765(2) 0.3622(2)
H1 H 0.2736 0.7860 0.3699
H2 H 0.1718 0.7675 0.3172
C2 C 0.6605(4) 0.7778(2) 0.3743(2)
H3 H 0.6915 0.7962 0.3399
H4 H 0.5808 0.7960 0.3853
C4 C 0.7176(4) 0.6147(2) 0.3986(2)
H7 H 0.7965 0.6016 0.3806
H8 H 0.7343 0.6396 0.4403
C5 C 0.6442(4) 0.5546(2) 0.4051(2)
H9 H 0.6250 0.5295 0.3638
H10 H 0.5669 0.5669 0.4253
C6 C 0.5066(4) 0.6365(2) 0.2707(2)
H11 H 0.5506 0.6142 0.2348
H12 H 0.4531 0.6054 0.2853
C7 C 0.7490(5) 0.7970(2) 0.4306(2)
H13 H 0.7217 0.7757 0.4637
H14 H 0.8304 0.7819 0.4184
C8 C 0.7135(5) 0.5132(2) 0.4430(3)
H15 H 0.7925 0.5030 0.4238
H16 H 0.7297 0.5382 0.4848
C9 C 0.4277(5) 0.6884(3) 0.2507(2)
H17 H 0.3615 0.6675 0.2231
H18 H 0.3904 0.7132 0.2876
C10 C 0.4985(5) 0.7338(3) 0.2176(3)
H19 H 0.5241 0.7105 0.1772
H20 H 0.5722 0.7497 0.2420
C11 C 0.7582(6) 0.8682(2) 0.4557(3)
H21 H 0.6770 0.8837 0.4678
H22 H 0.7868 0.8898 0.4229
O3 O -0.0970(3) 0.81944(16) 0.27524(16)
O6 O 0.3711(3) 0.85249(16) 0.46899(17)
C13 C 0.6466(5) 0.4510(2) 0.4487(3)
H25 H 0.6963 0.4278 0.4730
H26 H 0.6319 0.4253 0.4077
H27 H 0.5692 0.4604 0.4689
C17 C 0.0744(7) 0.9521(3) 0.3909(3)
H35 H 0.1038 0.9885 0.3747
H36 H 0.0778 0.9622 0.4358
H37 H -0.0092 0.9415 0.3769
C18 C 0.4236(6) 0.7903(3) 0.2079(4)
H38 H 0.4725 0.8175 0.1868
H39 H 0.3995 0.8142 0.2478
H40 H 0.3513 0.7750 0.1830
C19 C 0.8463(7) 0.8850(3) 0.5121(3)
H41 H 0.8494 0.9307 0.5269
H42 H 0.9273 0.8707 0.5001
H43 H 0.8177 0.8643 0.5449
Sn1 Sn 0.13639(3) 0.693910(15) 0.398170(14)
Sn2 Sn 0.63681(3) 0.676613(15) 0.343668(14)
O7 O 0.4500(3) 0.68267(16) 0.40298(15)
O8 O -0.0567(3) 0.68890(15) 0.33956(14)
O9 O -0.2165(3) 0.66992(15) 0.27316(14)
C24 C 0.4055(4) 0.7057(2) 0.4546(2)
C25 C -0.1018(4) 0.6796(2) 0.2856(2)
C26 C 0.5584(4) 0.6923(2) 0.5387(2)
H54 H 0.5562 0.6484 0.5224
C27 C 0.0223(4) 0.7015(2) 0.4784(2)
H55 H 0.0405 0.7423 0.5063
H56 H -0.0634 0.7011 0.4650
C28 C 0.1136(4) 0.8358(2) 0.3916(2)
H57 H 0.0264 0.8272 0.3821
H58 H 0.1247 0.8437 0.4368
C29 C -0.0211(4) 0.6783(2) 0.2301(2)
C30 C 0.1075(4) 0.8002(2) 0.1483(2)
C31 C 0.1315(4) 0.6758(2) 0.1255(2)
H59 H 0.1809 0.6745 0.0907
C32 C 0.5709(4) 0.8225(2) 0.5885(2)
C33 C 0.0266(4) 0.6209(2) 0.1977(2)
H60 H 0.0080 0.5827 0.2109
C34 C 0.0875(4) 0.7333(2) 0.1569(2)
C35 C 0.4963(4) 0.7983(2) 0.5353(2)
C36 C 0.1699(5) 0.6003(2) 0.3450(2)
H61 H 0.0906 0.5800 0.3311
H62 H 0.2142 0.6057 0.3079
C37 C 0.4890(4) 0.7335(2) 0.5098(2)
C38 C 0.0108(4) 0.7336(2) 0.2086(2)
C39 C -0.0271(4) 0.8010(2) 0.2331(2)
C40 C 0.1192(6) 0.9311(3) 0.1564(3)
H63 H 0.1247 0.9752 0.1587
C41 C 0.1785(5) 0.8251(3) 0.1058(2)
H64 H 0.2210 0.7982 0.0747
C42 C 0.6368(4) 0.7816(2) 0.6174(2)
H65 H 0.6844 0.7972 0.6532
C43 C 0.2657(5) 0.4922(2) 0.3307(2)
H66 H 0.1876 0.4732 0.3130
H67 H 0.3141 0.5024 0.2966
C44 C 0.1011(4) 0.6201(2) 0.1464(2)
H68 H 0.1313 0.5813 0.1255
C45 C 0.4492(5) 0.9755(2) 0.5649(3)
H69 H 0.3936 0.9873 0.5365
C46 C 0.0402(4) 0.6477(2) 0.5141(2)
H70 H 0.1273 0.6455 0.5238
H71 H 0.0147 0.6073 0.4873
C47 C 0.4364(4) 0.8541(2) 0.5145(2)
C48 C 0.5591(4) 0.8932(2) 0.6044(2)
C49 C 0.4792(4) 0.9121(2) 0.5610(2)
C50 C 0.6303(4) 0.7168(2) 0.5916(2)
H72 H 0.6754 0.6887 0.6103
C51 C 0.2406(5) 0.5542(2) 0.3760(2)
H73 H 0.1935 0.5445 0.4108
H74 H 0.3183 0.5745 0.3927
C52 C 0.0458(5) 0.9066(3) 0.1987(3)
H75 H 0.0018 0.9336 0.2289
C53 C 0.0407(5) 0.8408(2) 0.1941(2)
C54 C 0.6129(5) 0.9392(2) 0.6524(2)
H76 H 0.6669 0.9276 0.6815
C55 C 0.1843(5) 0.8912(3) 0.1109(3)
H77 H 0.2326 0.9090 0.0833
C56 C -0.0313(5) 0.6556(3) 0.5747(2)
H78 H -0.0112 0.6976 0.5999
H79 H -0.1189 0.6540 0.5647
C57 C 0.3329(6) 0.4431(3) 0.3592(3)
H80 H 0.3452 0.4055 0.3277
H81 H 0.2848 0.4317 0.3923
H82 H 0.4115 0.4609 0.3758
C58 C 0.1542(5) 0.8957(2) 0.3678(3)
H83 H 0.2388 0.9071 0.3813
H84 H 0.1519 0.8864 0.3224
C59 C -0.0046(6) 0.6051(3) 0.6127(3)
H85 H -0.0527 0.6126 0.6500
H86 H 0.0815 0.6073 0.6239
H87 H -0.0258 0.5634 0.5883
C60 C 0.5832(5) 1.0033(2) 0.6553(3)
H88 H 0.6177 1.0346 0.6872
C61 C 0.5046(6) 1.0214(3) 0.6124(3)
H89 H 0.4882 1.0646 0.6150
Sn2_2 Sn -0.36319(3) 0.676613(15) 0.343668(14)
O9_2 O 0.7835(3) 0.66992(15) 0.27316(14)
loop_
_geom_bond_atom_site_label_1
_geom_bond_atom_site_label_2
_geom_bond_site_symmetry_1
_geom_bond_site_symmetry_2
O1 C65 1_555 1_555
O2 Sn1 1_555 1_555
C1 H1 1_555 1_555
H2 C1 1_555 1_555
C2 H3 1_555 1_555
H4 C2 1_555 1_555
C3 H5 1_555 1_555
H6 C3 1_555 1_555
C4 H7 1_555 1_555
H8 C4 1_555 1_555
C5 C4 1_555 1_555
H9 C5 1_555 1_555
H10 C5 1_555 1_555
C6 H11 1_555 1_555
H12 C6 1_555 1_555
C7 C2 1_555 1_555
H13 C7 1_555 1_555
H14 C7 1_555 1_555
C8 C5 1_555 1_555
H15 C8 1_555 1_555
H16 C8 1_555 1_555
C9 C6 1_555 1_555
H17 C9 1_555 1_555
H18 C9 1_555 1_555
C10 C9 1_555 1_555
H19 C10 1_555 1_555
H20 C10 1_555 1_555
C11 C7 1_555 1_555
H21 C11 1_555 1_555
H22 C11 1_555 1_555
O3 C39 1_555 1_555
O4 C66 1_555 1_555
O5 C79 1_555 1_555
O6 C47 1_555 1_555
C12 H23 1_555 1_555
H24 C12 1_555 1_555
C13 C8 1_555 1_555
H25 C13 1_555 1_555
H26 C13 1_555 1_555
H27 C13 1_555 1_555
C14 C12 1_555 1_555
H28 C14 1_555 1_555
H29 C14 1_555 1_555
C15 H30 1_555 1_555
H31 C15 1_555 1_555
H32 C15 1_555 1_555
C16 C3 1_555 1_555
H33 C16 1_555 1_555
H34 C16 1_555 1_555
C17 H35 1_555 1_555
H36 C17 1_555 1_555
H37 C17 1_555 1_555
C18 C10 1_555 1_555
H38 C18 1_555 1_555
H39 C18 1_555 1_555
H40 C18 1_555 1_555
C19 C11 1_555 1_555
H41 C19 1_555 1_555
H42 C19 1_555 1_555
H43 C19 1_555 1_555
C20 C14 1_555 1_555
H44 C20 1_555 1_555
H45 C20 1_555 1_555
C21 C16 1_555 1_555
H46 C21 1_555 1_555
H47 C21 1_555 1_555
C22 C21 1_555 1_555
H48 C22 1_555 1_555
H49 C22 1_555 1_555
H50 C22 1_555 1_555
C23 C20 1_555 1_555
H51 C23 1_555 1_555
H52 C23 1_555 1_555
H53 C23 1_555 1_555
Sn1 C1 1_555 1_555
Sn2 C2 1_555 1_555
O7 Sn2 1_555 1_555
O8 Sn1 1_555 1_555
O9 C25 1_555 1_555
C24 O2 1_555 1_555
C25 O8 1_555 1_555
C26 H54 1_555 1_555
C27 Sn1 1_555 1_555
H55 C27 1_555 1_555
H56 C27 1_555 1_555
C28 C1 1_555 1_555
H57 C28 1_555 1_555
H58 C28 1_555 1_555
C29 C25 1_555 1_555
C30 C34 1_555 1_555
C31 H59 1_555 1_555
C32 C35 1_555 1_555
C33 C29 1_555 1_555
H60 C33 1_555 1_555
C34 C31 1_555 1_555
C35 C37 1_555 1_555
C36 Sn1 1_555 1_555
H61 C36 1_555 1_555
H62 C36 1_555 1_555
C37 C24 1_555 1_555
C38 C29 1_555 1_555
C39 C38 1_555 1_555
C40 H63 1_555 1_555
C41 C30 1_555 1_555
H64 C41 1_555 1_555
C42 C32 1_555 1_555
H65 C42 1_555 1_555
C43 H66 1_555 1_555
H67 C43 1_555 1_555
C44 C31 1_555 1_555
H68 C44 1_555 1_555
C45 H69 1_555 1_555
C46 C27 1_555 1_555
H70 C46 1_555 1_555
H71 C46 1_555 1_555
C47 C35 1_555 1_555
C48 C32 1_555 1_555
C49 C45 1_555 1_555
C50 C26 1_555 1_555
H72 C50 1_555 1_555
C51 C36 1_555 1_555
H73 C51 1_555 1_555
H74 C51 1_555 1_555
C52 C40 1_555 1_555
H75 C52 1_555 1_555
C53 C30 1_555 1_555
C54 C48 1_555 1_555
H76 C54 1_555 1_555
C55 C40 1_555 1_555
H77 C55 1_555 1_555
C56 C46 1_555 1_555
H78 C56 1_555 1_555
H79 C56 1_555 1_555
C57 C43 1_555 1_555
H80 C57 1_555 1_555
H81 C57 1_555 1_555
H82 C57 1_555 1_555
C58 C17 1_555 1_555
H83 C58 1_555 1_555
H84 C58 1_555 1_555
C59 C56 1_555 1_555
H85 C59 1_555 1_555
H86 C59 1_555 1_555
H87 C59 1_555 1_555
C60 C54 1_555 1_555
H88 C60 1_555 1_555
C61 C45 1_555 1_555
H89 C61 1_555 1_555
Sn3 C3 1_555 1_555
Sn4 C12 1_555 1_555
O10 Sn3 1_555 1_555
O11 Sn4 1_555 1_555
O12 Sn4 1_555 1_555
C62 H90 1_555 1_555
C63 O10 1_555 1_555
C64 C67 1_555 1_555
C65 O11 1_555 1_555
C66 C69 1_555 1_555
C67 C62 1_555 1_555
C68 C62 1_555 1_555
H91 C68 1_555 1_555
C69 C67 1_555 1_555
C70 C68 1_555 1_555
H92 C70 1_555 1_555
C71 C64 1_555 1_555
C72 C64 1_555 1_555
H93 C72 1_555 1_555
C73 Sn3 1_555 1_555
H94 C73 1_555 1_555
H95 C73 1_555 1_555
C74 H96 1_555 1_555
H97 C74 1_555 1_555
C75 H98 1_555 1_555
C76 H99 1_555 1_555
C77 C71 1_555 1_555
H100 C77 1_555 1_555
C78 C63 1_555 1_555
C79 C83 1_555 1_555
C80 C65 1_555 1_555
C81 C82 1_555 1_555
C82 C76 1_555 1_555
C83 C81 1_555 1_555
C84 C72 1_555 1_555
H101 C84 1_555 1_555
C85 C73 1_555 1_555
H102 C85 1_555 1_555
H103 C85 1_555 1_555
C86 H104 1_555 1_555
H105 C86 1_555 1_555
C87 Sn3 1_555 1_555
H106 C87 1_555 1_555
H107 C87 1_555 1_555
C88 H108 1_555 1_555
H109 C88 1_555 1_555
C89 C81 1_555 1_555
H110 C89 1_555 1_555
C90 C75 1_555 1_555
H111 C90 1_555 1_555
C91 C15 1_555 1_555
H112 C91 1_555 1_555
H113 C91 1_555 1_555
C92 H114 1_555 1_555
H115 C92 1_555 1_555
H116 C92 1_555 1_555
C93 C88 1_555 1_555
H117 C93 1_555 1_555
H118 C93 1_555 1_555
C94 C79 1_555 1_555
C95 C83 1_555 1_555
H119 C95 1_555 1_555
C96 Sn4 1_555 1_555
H120 C96 1_555 1_555
H121 C96 1_555 1_555
C97 H122 1_555 1_555
H123 C97 1_555 1_555
H124 C97 1_555 1_555
C98 C77 1_555 1_555
H125 C98 1_555 1_555
C99 C89 1_555 1_555
H126 C99 1_555 1_555
C100 H127 1_555 1_555
H128 C100 1_555 1_555
H129 C100 1_555 1_555
C101 C86 1_555 1_555
H130 C101 1_555 1_555
H131 C101 1_555 1_555
C102 C95 1_555 1_555
H132 C102 1_555 1_555
C103 C74 1_555 1_555
H133 C103 1_555 1_555
H134 C103 1_555 1_555
C104 Sn4 1_555 1_555
H135 C104 1_555 1_555
H136 C104 1_555 1_555
O1_2 Sn3 1_555 1_555
Sn2_2 O9 1_555 1_555
O9_2 Sn2 1_555 1_555
Sn3_2 O1 1_555 1_555
C4 Sn2 1_555 1_555
C6 Sn2 1_555 1_555
O7 C24 1_555 1_555
C26 C37 1_555 1_555
C28 C58 1_555 1_555
C33 C44 1_555 1_555
C34 C38 1_555 1_555
C39 C53 1_555 1_555
C41 C55 1_555 1_555
C42 C50 1_555 1_555
C43 C51 1_555 1_555
C47 C49 1_555 1_555
C48 C49 1_555 1_555
C52 C53 1_555 1_555
C60 C61 1_555 1_555
O12 C63 1_555 1_555
C66 C71 1_555 1_555
C69 C78 1_555 1_555
C70 C78 1_555 1_555
C74 C104 1_555 1_555
C75 C80 1_555 1_555
C76 C90 1_555 1_555
C80 C94 1_555 1_555
C82 C94 1_555 1_555
C84 C98 1_555 1_555
C85 C91 1_555 1_555
C86 C87 1_555 1_555
C88 C96 1_555 1_555
C92 C93 1_555 1_555
C97 C101 1_555 1_555
C99 C102 1_555 1_555
C100 C103 1_555 1_555

#END
