
#######################################################################
#
#                 Cambridge Crystallographic Data Centre
#                                CCDC 
#
#######################################################################
#
# If this CIF has been generated from an entry in the Cambridge 
# Structural Database, then it will include bibliographic, chemical, 
# crystal, experimental, refinement or atomic coordinate data resulting 
# from the CCDC's data processing and validation procedures.
#
#######################################################################

data_TETBUQ
_symmetry_cell_setting           monoclinic
_symmetry_space_group_name_H-M   'P 21/a'
_symmetry_Int_Tables_number      14
_space_group_name_Hall           '-P 2yab'
loop_
_symmetry_equiv_pos_site_id
_symmetry_equiv_pos_as_xyz
1 x,y,z
2 1/2-x,1/2+y,-z
3 -x,-y,-z
4 1/2+x,1/2-y,z
_cell_length_a                   10.7241(5)
_cell_length_b                   9.6013(5)
_cell_length_c                   12.2743(5)
_cell_angle_alpha                90
_cell_angle_beta                 113.219(2)
_cell_angle_gamma                90
_cell_volume                     1161.46
loop_
_atom_site_label
_atom_site_type_symbol
_atom_site_fract_x
_atom_site_fract_y
_atom_site_fract_z
Cu1 Cu 0.0000 0.0000 0.0000
N1 N 0.0179(3) 0.1977(3) -0.0465(3)
C1 C 0.1376(3) 0.2619(4) 0.0046(3)
H1 H 0.2098 0.2137 0.0642
C2 C 0.1611(3) 0.3951(3) -0.0254(3)
O1 O 0.2826(3) 0.4584(3) 0.0289(3)
C3 C 0.0545(4) 0.4658(4) -0.1130(4)
H2 H 0.0669 0.5571 -0.1369
C4 C -0.0695(4) 0.3993(4) -0.1637(3)
H3 H -0.1442 0.4456 -0.2224
C5 C -0.0852(4) 0.2653(4) -0.1294(3)
H4 H -0.1707 0.2204 -0.1653
O2 O -0.1078(3) -0.0430(3) -0.1659(2)
O3 O 0.0433(3) -0.1768(3) -0.1997(3)
C6 C -0.0728(4) -0.1281(4) -0.2283(4)
C7 C -0.1809(5) -0.1695(7) -0.3489(5)
H5 H -0.1524 -0.1331 -0.4109
H6 H -0.1813 -0.2724 -0.3544
C8 C -0.3159(7) -0.1252(8) -0.3766(6)
H7 H -0.3154 -0.0227 -0.3674
H8 H -0.3468 -0.1659 -0.3173
C9 C -0.4213(7) -0.1624(7) -0.5014(5)
H9 H -0.5112 -0.1307 -0.5063
H10 H -0.3994 -0.1072 -0.5597
C10 C -0.4341(7) -0.3028(8) -0.5378(6)
H11 H -0.4345 -0.3620 -0.4719
H12 H -0.3537 -0.3289 -0.5539
C11 C -0.5608(5) -0.3335(7) -0.6472(5)
H13 H -0.5635 -0.4329 -0.6664
H14 H -0.5595 -0.2785 -0.7141
H15 H -0.6412 -0.3091 -0.6321
H16 H 0.328(5) 0.416(6) 0.076(5)
Cu1C Cu 0.5000 0.5000 0.0000
Cu1C_2 Cu -0.5000 -0.5000 0.0000
N1B N -0.0179(3) -0.1977(3) 0.0465(3)
C1B C -0.1376(3) -0.2619(4) -0.0046(3)
H1B H -0.2098 -0.2137 -0.0642
C2B C -0.1611(3) -0.3951(3) 0.0254(3)
O1C O -0.2174(3) 0.0416(3) 0.0289(3)
O1A O 0.2174(3) -0.0416(3) -0.0289(3)
O1B O -0.2826(3) -0.4584(3) -0.0289(3)
C3B C -0.0545(4) -0.4658(4) 0.1130(4)
H2B H -0.0669 -0.5571 0.1369
C4B C 0.0695(4) -0.3993(4) 0.1637(3)
H3B H 0.1442 -0.4456 0.2224
C5B C 0.0852(4) -0.2653(4) 0.1294(3)
H4B H 0.1707 -0.2204 0.1653
O2B O 0.1078(3) 0.0430(3) 0.1659(2)
O3B O -0.0433(3) 0.1768(3) 0.1997(3)
C6B C 0.0728(4) 0.1281(4) 0.2283(4)
C7B C 0.1809(5) 0.1695(7) 0.3489(5)
H5B H 0.1524 0.1331 0.4109
H6B H 0.1813 0.2724 0.3544
C8B C 0.3159(7) 0.1252(8) 0.3766(6)
H7B H 0.3154 0.0227 0.3674
H8B H 0.3468 0.1659 0.3173
C9B C 0.4213(7) 0.1624(7) 0.5014(5)
H9B H 0.5112 0.1307 0.5063
H10B H 0.3994 0.1072 0.5597
C10B C 0.4341(7) 0.3028(8) 0.5378(6)
H11B H 0.4345 0.3620 0.4719
H12B H 0.3537 0.3289 0.5539
C11B C 0.5608(5) 0.3335(7) 0.6472(5)
H13B H 0.5635 0.4329 0.6664
H14B H 0.5595 0.2785 0.7141
H15B H 0.6412 0.3091 0.6321
H16A H 0.172(5) -0.084(6) -0.076(5)
H16C H -0.172(5) 0.084(6) 0.076(5)
H16B H -0.328(5) -0.416(6) -0.076(5)
loop_
_geom_bond_atom_site_label_1
_geom_bond_atom_site_label_2
_geom_bond_site_symmetry_1
_geom_bond_site_symmetry_2
Cu1 N1 1_555 1_555
N1 C1 1_555 1_555
C1 H1 1_555 1_555
C2 C1 1_555 1_555
O1 C2 1_555 1_555
C3 C2 1_555 1_555
H2 C3 1_555 1_555
C4 C3 1_555 1_555
H3 C4 1_555 1_555
C5 N1 1_555 1_555
H4 C5 1_555 1_555
O2 Cu1 1_555 1_555
O3 C6 1_555 1_555
C6 O2 1_555 1_555
C7 C6 1_555 1_555
H5 C7 1_555 1_555
H6 C7 1_555 1_555
C8 C7 1_555 1_555
H7 C8 1_555 1_555
H8 C8 1_555 1_555
C9 C8 1_555 1_555
H9 C9 1_555 1_555
H10 C9 1_555 1_555
C10 C9 1_555 1_555
H11 C10 1_555 1_555
H12 C10 1_555 1_555
C11 C10 1_555 1_555
H13 C11 1_555 1_555
H14 C11 1_555 1_555
H15 C11 1_555 1_555
H16 O1 1_555 1_555
Cu1C O1 1_555 1_555
Cu1C_2 O1B 1_555 1_555
N1B Cu1 1_555 1_555
C1B N1B 1_555 1_555
H1B C1B 1_555 1_555
C2B C1B 1_555 1_555
O1C Cu1 1_555 1_555
O1A Cu1 1_555 1_555
O1B C2B 1_555 1_555
C3B C2B 1_555 1_555
H2B C3B 1_555 1_555
C4B C3B 1_555 1_555
H3B C4B 1_555 1_555
C5B N1B 1_555 1_555
H4B C5B 1_555 1_555
O2B Cu1 1_555 1_555
O3B C6B 1_555 1_555
C6B O2B 1_555 1_555
C7B C6B 1_555 1_555
H5B C7B 1_555 1_555
H6B C7B 1_555 1_555
C8B C7B 1_555 1_555
H7B C8B 1_555 1_555
H8B C8B 1_555 1_555
C9B C8B 1_555 1_555
H9B C9B 1_555 1_555
H10B C9B 1_555 1_555
C10B C9B 1_555 1_555
H11B C10B 1_555 1_555
H12B C10B 1_555 1_555
C11B C10B 1_555 1_555
H13B C11B 1_555 1_555
H14B C11B 1_555 1_555
H15B C11B 1_555 1_555
H16A O1A 1_555 1_555
H16C O1C 1_555 1_555
H16B O1B 1_555 1_555
C4 C5 1_555 1_555
C4B C5B 1_555 1_555

#END
