
#######################################################################
#
#                 Cambridge Crystallographic Data Centre
#                                CCDC 
#
#######################################################################
#
# If this CIF has been generated from an entry in the Cambridge 
# Structural Database, then it will include bibliographic, chemical, 
# crystal, experimental, refinement or atomic coordinate data resulting 
# from the CCDC's data processing and validation procedures.
#
#######################################################################

data_TETCAX
_symmetry_cell_setting           monoclinic
_symmetry_space_group_name_H-M   'P 21/c'
_symmetry_Int_Tables_number      14
_space_group_name_Hall           '-P 2ybc'
loop_
_symmetry_equiv_pos_site_id
_symmetry_equiv_pos_as_xyz
1 x,y,z
2 -x,1/2+y,1/2-z
3 -x,-y,-z
4 x,1/2-y,1/2+z
_cell_length_a                   12.8516(3)
_cell_length_b                   9.6675(2)
_cell_length_c                   10.4773(3)
_cell_angle_alpha                90
_cell_angle_beta                 100.929(1)
_cell_angle_gamma                90
_cell_volume                     1278.12
loop_
_atom_site_label
_atom_site_type_symbol
_atom_site_fract_x
_atom_site_fract_y
_atom_site_fract_z
Cu1 Cu 0.00000 -0.50000 0.50000
N1 N 0.04468(18) -0.3051(2) 0.5509(2)
O1 O -0.03013(19) -0.0396(2) 0.7603(2)
O2 O 0.14749(15) -0.5461(2) 0.4936(2)
O3 O 0.17683(17) -0.6814(2) 0.6700(2)
C1 C -0.0037(2) -0.2389(3) 0.6358(3)
C2 C 0.0224(2) -0.1047(3) 0.6776(3)
C3 C 0.1036(2) -0.0377(3) 0.6319(3)
C4 C 0.1534(2) -0.1070(3) 0.5437(3)
C5 C 0.1225(2) -0.2402(3) 0.5048(3)
C6 C 0.2010(2) -0.6349(3) 0.5679(3)
C7 C 0.3011(2) -0.6911(3) 0.5299(3)
C8 C 0.3426(2) -0.6155(3) 0.4219(3)
C9 C 0.4468(2) -0.6794(4) 0.4018(3)
C10 C 0.4998(3) -0.6074(4) 0.3015(3)
C11 C 0.6038(3) -0.6762(5) 0.2886(5)
C12 C 0.6594(4) -0.6110(6) 0.1876(5)
H1 H -0.055(2) -0.292(4) 0.669(4)
H2 H 0.122(3) 0.0540(18) 0.661(3)
H3 H 0.216(4) -0.071(5) 0.510(5)
H4 H 0.153(3) -0.293(4) 0.441(4)
H5 H -0.075(5) -0.082(7) 0.771(6)
H6 H 0.288(4) -0.793(7) 0.507(5)
H7 H 0.362(5) -0.692(7) 0.616(6)
H8 H 0.293(5) -0.591(7) 0.344(6)
H9 H 0.354(3) -0.5185(14) 0.443(4)
H10 H 0.435(3) -0.775(5) 0.381(4)
H11 H 0.499(3) -0.682(5) 0.481(3)
H12 H 0.512(3) -0.509(5) 0.320(4)
H13 H 0.455(5) -0.601(6) 0.223(6)
H14 H 0.599(4) -0.773(7) 0.284(5)
H15 H 0.654(4) -0.679(5) 0.380(5)
H16 H 0.623(5) -0.634(8) 0.101(3)
H17 H 0.734(5) -0.667(6) 0.189(6)
H18 H 0.673(4) -0.5156(17) 0.208(5)
Cu1C Cu 0.00000 0.00000 1.00000
Cu1C_2 Cu 0.00000 -1.00000 0.00000
N1B N -0.04468(18) -0.6949(2) 0.4491(2)
O1C O -0.03013(19) -0.4604(2) 0.2603(2)
O1A O 0.03013(19) -0.5396(2) 0.7397(2)
O1B O 0.03013(19) -0.9604(2) 0.2397(2)
O2B O -0.14749(15) -0.4539(2) 0.5064(2)
O3B O -0.17683(17) -0.3186(2) 0.3300(2)
C1B C 0.0037(2) -0.7611(3) 0.3642(3)
C2B C -0.0224(2) -0.8953(3) 0.3224(3)
C3B C -0.1036(2) -0.9623(3) 0.3681(3)
C4B C -0.1534(2) -0.8930(3) 0.4563(3)
C5B C -0.1225(2) -0.7598(3) 0.4952(3)
C6B C -0.2010(2) -0.3651(3) 0.4321(3)
C7B C -0.3011(2) -0.3089(3) 0.4701(3)
C8B C -0.3426(2) -0.3845(3) 0.5781(3)
C9B C -0.4468(2) -0.3206(4) 0.5982(3)
C10B C -0.4998(3) -0.3926(4) 0.6985(3)
C11B C -0.6038(3) -0.3238(5) 0.7114(5)
C12B C -0.6594(4) -0.3890(6) 0.8124(5)
H1B H 0.055(2) -0.708(4) 0.331(4)
H2B H -0.122(3) -1.0540(18) 0.339(3)
H3B H -0.216(4) -0.929(5) 0.490(5)
H4B H -0.153(3) -0.707(4) 0.559(4)
H5A H 0.075(5) -0.582(7) 0.729(6)
H5C H -0.075(5) -0.418(7) 0.271(6)
H5B H 0.075(5) -0.918(7) 0.229(6)
H6B H -0.288(4) -0.207(7) 0.493(5)
H7B H -0.362(5) -0.308(7) 0.384(6)
H8B H -0.293(5) -0.409(7) 0.656(6)
H9B H -0.354(3) -0.4815(14) 0.557(4)
H10B H -0.435(3) -0.225(5) 0.619(4)
H11B H -0.499(3) -0.318(5) 0.519(3)
H12B H -0.512(3) -0.491(5) 0.680(4)
H13B H -0.455(5) -0.399(6) 0.777(6)
H14B H -0.599(4) -0.227(7) 0.716(5)
H15B H -0.654(4) -0.321(5) 0.620(5)
H16B H -0.623(5) -0.366(8) 0.899(3)
H17B H -0.734(5) -0.333(6) 0.811(6)
H18B H -0.673(4) -0.4844(17) 0.792(5)
loop_
_geom_bond_atom_site_label_1
_geom_bond_atom_site_label_2
_geom_bond_site_symmetry_1
_geom_bond_site_symmetry_2
Cu1 N1 1_555 1_555
N1 C1 1_555 1_555
O1 C2 1_555 1_555
O2 Cu1 1_555 1_555
O3 C6 1_555 1_555
C1 C2 1_555 1_555
C2 C3 1_555 1_555
C3 C4 1_555 1_555
C4 C5 1_555 1_555
C5 N1 1_555 1_555
C6 O2 1_555 1_555
C7 C6 1_555 1_555
C8 C7 1_555 1_555
C9 C8 1_555 1_555
C10 C9 1_555 1_555
C11 C10 1_555 1_555
C12 C11 1_555 1_555
H1 C1 1_555 1_555
H2 C3 1_555 1_555
H3 C4 1_555 1_555
H4 C5 1_555 1_555
H5 O1 1_555 1_555
H6 C7 1_555 1_555
H7 C7 1_555 1_555
H8 C8 1_555 1_555
H9 C8 1_555 1_555
H10 C9 1_555 1_555
H11 C9 1_555 1_555
H12 C10 1_555 1_555
H13 C10 1_555 1_555
H14 C11 1_555 1_555
H15 C11 1_555 1_555
H16 C12 1_555 1_555
H17 C12 1_555 1_555
H18 C12 1_555 1_555
Cu1C O1 1_555 1_555
Cu1C_2 O1B 1_555 1_555
N1B Cu1 1_555 1_555
O1C Cu1 1_555 1_555
O1A Cu1 1_555 1_555
O1B C2B 1_555 1_555
O2B Cu1 1_555 1_555
O3B C6B 1_555 1_555
C1B N1B 1_555 1_555
C2B C1B 1_555 1_555
C3B C2B 1_555 1_555
C4B C3B 1_555 1_555
C5B N1B 1_555 1_555
C6B O2B 1_555 1_555
C7B C6B 1_555 1_555
C8B C7B 1_555 1_555
C9B C8B 1_555 1_555
C10B C9B 1_555 1_555
C11B C10B 1_555 1_555
C12B C11B 1_555 1_555
H1B C1B 1_555 1_555
H2B C3B 1_555 1_555
H3B C4B 1_555 1_555
H4B C5B 1_555 1_555
H5A O1A 1_555 1_555
H5C O1C 1_555 1_555
H5B O1B 1_555 1_555
H6B C7B 1_555 1_555
H7B C7B 1_555 1_555
H8B C8B 1_555 1_555
H9B C8B 1_555 1_555
H10B C9B 1_555 1_555
H11B C9B 1_555 1_555
H12B C10B 1_555 1_555
H13B C10B 1_555 1_555
H14B C11B 1_555 1_555
H15B C11B 1_555 1_555
H16B C12B 1_555 1_555
H17B C12B 1_555 1_555
H18B C12B 1_555 1_555
C4B C5B 1_555 1_555

#END
