
#######################################################################
#
#                 Cambridge Crystallographic Data Centre
#                                CCDC 
#
#######################################################################
#
# If this CIF has been generated from an entry in the Cambridge 
# Structural Database, then it will include bibliographic, chemical, 
# crystal, experimental, refinement or atomic coordinate data resulting 
# from the CCDC's data processing and validation procedures.
#
#######################################################################

data_TETHOP
_symmetry_cell_setting           monoclinic
_symmetry_space_group_name_H-M   'I 2/a'
_symmetry_Int_Tables_number      15
_space_group_name_Hall           '-I 2ya'
loop_
_symmetry_equiv_pos_site_id
_symmetry_equiv_pos_as_xyz
1 x,y,z
2 1/2-x,y,-z
3 1/2+x,1/2+y,1/2+z
4 -x,1/2+y,1/2-z
5 -x,-y,-z
6 1/2+x,-y,z
7 1/2-x,1/2-y,1/2-z
8 x,1/2-y,1/2+z
_cell_length_a                   20.362(4)
_cell_length_b                   7.921(2)
_cell_length_c                   25.990(5)
_cell_angle_alpha                90
_cell_angle_beta                 100.36(3)
_cell_angle_gamma                90
_cell_volume                     4123.52
loop_
_atom_site_label
_atom_site_type_symbol
_atom_site_fract_x
_atom_site_fract_y
_atom_site_fract_z
Ag1 Ag 0.0191(1) -0.0145(3) 0.4118(1)
Ag2 Ag 0.0175(1) 0.5138(3) 0.6651(1)
S1 S -0.0551(3) 0.7338(8) 0.6142(3)
S2 S 0.0582(3) 0.2450(8) 0.6349(3)
S3 S 0.0880(3) -0.1973(8) 0.5207(3)
S4 S 0.0840(4) 0.7464(8) 0.7762(3)
C1 C -0.1229(14) 0.7768(35) 0.6460(11)
C2 C -0.1823(12) 0.8540(32) 0.6103(10)
O1 O -0.2073(8) 0.7492(22) 0.5673(8)
C3 C -0.1620(14) 0.7272(32) 0.5331(11)
C4 C -0.1034(13) 0.6244(30) 0.5561(11)
C5 C 0.1096(13) 0.1399(31) 0.6908(10)
C6 C 0.1640(14) 0.2516(34) 0.7155(11)
O2 O 0.2085(8) 0.2929(22) 0.6812(7)
C7 C 0.1785(13) 0.3952(33) 0.6394(10)
C8 C 0.1242(13) 0.3112(33) 0.6035(11)
O3 O 0.0681(8) -0.0324(21) 0.5356(7)
O4 O 0.0928(9) -0.2082(25) 0.4660(7)
O5 O 0.0578(9) -0.3402(22) 0.5416(8)
C9 C 0.1739(15) -0.2090(38) 0.5550(13)
F1 F 0.2020(8) -0.3556(20) 0.5425(7)
F2 F 0.1796(8) -0.1978(23) 0.6047(7)
F3 F 0.2108(8) -0.0839(22) 0.5395(8)
O6 O 0.0858(10) 0.7015(26) 0.7226(8)
O7 O 0.0609(8) 0.9166(20) 0.7817(7)
O8 O 0.0588(9) 0.6191(23) 0.8057(8)
C10 C 0.1725(15) 0.7605(38) 0.8050(12)
F4 F 0.2026(8) 0.6121(20) 0.8007(7)
F5 F 0.1797(8) 0.8022(25) 0.8542(7)
F6 F 0.2023(8) 0.8763(20) 0.7811(8)
H1 H -0.1380 0.6703 0.6571
H2 H -0.1090 0.8476 0.6760
H3 H -0.2175 0.8796 0.6291
H4 H -0.1659 0.9568 0.5976
H5 H -0.1471 0.8369 0.5245
H6 H -0.1838 0.6717 0.5019
H7 H -0.0745 0.6101 0.5309
H8 H -0.1177 0.5157 0.5662
H9 H 0.0816 0.1152 0.7159
H10 H 0.1274 0.0367 0.6797
H11 H 0.1455 0.3551 0.7259
H12 H 0.1881 0.1954 0.7459
H13 H 0.2122 0.4313 0.6203
H14 H 0.1591 0.4921 0.6530
H15 H 0.1428 0.2113 0.5909
Ag1D Ag -0.0191(1) 1.0145(3) 0.5882(1)
Ag1D_2 Ag -0.0191(1) 0.0145(3) 0.5882(1)
S1_2 S -0.0551(3) -0.2662(8) 0.6142(3)
O4D O -0.0928(9) 0.2082(25) 0.5340(7)
Ag2C Ag -0.0175(1) 1.0138(3) 0.8349(1)
O7C O -0.0609(8) 0.4166(20) 0.7183(7)
loop_
_geom_bond_atom_site_label_1
_geom_bond_atom_site_label_2
_geom_bond_site_symmetry_1
_geom_bond_site_symmetry_2
Ag1 O4 1_555 1_555
Ag2 S1 1_555 1_555
S1 C1 1_555 1_555
S2 Ag2 1_555 1_555
S3 O3 1_555 1_555
S4 O6 1_555 1_555
C1 C2 1_555 1_555
C2 O1 1_555 1_555
O1 C3 1_555 1_555
C3 C4 1_555 1_555
C4 S1 1_555 1_555
C5 S2 1_555 1_555
C6 C5 1_555 1_555
O2 C6 1_555 1_555
C7 O2 1_555 1_555
C8 S2 1_555 1_555
O3 Ag1D_2 1_555 1_555
O4 S3 1_555 1_555
O5 S3 1_555 1_555
C9 S3 1_555 1_555
F1 C9 1_555 1_555
F2 C9 1_555 1_555
F3 C9 1_555 1_555
O6 Ag2 1_555 1_555
O7 S4 1_555 1_555
O8 S4 1_555 1_555
C10 S4 1_555 1_555
F4 C10 1_555 1_555
F5 C10 1_555 1_555
F6 C10 1_555 1_555
H1 C1 1_555 1_555
H2 C1 1_555 1_555
H3 C2 1_555 1_555
H4 C2 1_555 1_555
H5 C3 1_555 1_555
H6 C3 1_555 1_555
H7 C4 1_555 1_555
H8 C4 1_555 1_555
H9 C5 1_555 1_555
H10 C5 1_555 1_555
H11 C6 1_555 1_555
H12 C6 1_555 1_555
H13 C7 1_555 1_555
H14 C7 1_555 1_555
H15 C8 1_555 1_555
Ag1D S1 1_555 1_555
Ag1D_2 S2 1_555 1_555
S1_2 Ag1D_2 1_555 1_555
O4D Ag1D_2 1_555 1_555
Ag2C O7 1_555 1_555
O7C Ag2 1_555 1_555
C7 C8 1_555 1_555

#END
