
#######################################################################
#
#                 Cambridge Crystallographic Data Centre
#                                CCDC 
#
#######################################################################
#
# If this CIF has been generated from an entry in the Cambridge 
# Structural Database, then it will include bibliographic, chemical, 
# crystal, experimental, refinement or atomic coordinate data resulting 
# from the CCDC's data processing and validation procedures.
#
#######################################################################

data_TETHIJ
_symmetry_cell_setting           monoclinic
_symmetry_space_group_name_H-M   'P 21/n'
_symmetry_Int_Tables_number      14
_space_group_name_Hall           '-P 2yn'
loop_
_symmetry_equiv_pos_site_id
_symmetry_equiv_pos_as_xyz
1 x,y,z
2 1/2-x,1/2+y,1/2-z
3 -x,-y,-z
4 1/2+x,1/2-y,1/2+z
_cell_length_a                   9.793(3)
_cell_length_b                   9.446(2)
_cell_length_c                   16.934(4)
_cell_angle_alpha                90
_cell_angle_beta                 96.13(2)
_cell_angle_gamma                90
_cell_volume                     1557.52
loop_
_atom_site_label
_atom_site_type_symbol
_atom_site_fract_x
_atom_site_fract_y
_atom_site_fract_z
Ag1 Ag 0.6182(1) 0.1876(1) 0.7618(1)
S1 S 0.9366(3) 0.3234(3) 0.7261(2)
S2 S 0.4360(3) 0.2223(3) 0.6498(2)
S3 S 0.6973(3) 0.2557(3) 0.8996(2)
O1 O 0.8727(7) 0.1858(7) 0.7328(4)
O2 O 0.6288(8) -0.0682(7) 0.7316(5)
O3 O 0.6197(8) 0.3784(8) 0.5363(4)
F1 F 1.1732(7) 0.1975(8) 0.7586(5)
O4 O 0.4055(7) 0.3524(8) 0.9391(5)
F2 F 1.1782(7) 0.4196(8) 0.7783(5)
O5 O 0.9696(9) 0.3623(10) 0.6489(5)
F3 F 1.0886(7) 0.2784(9) 0.8589(4)
C1 C 0.6421(11) 0.2328(12) 0.5526(7)
C2 C 0.5797(11) 0.1680(12) 0.9590(6)
C3 C 0.5138(11) 0.1541(12) 0.5651(6)
C4 C 0.4778(11) 0.4361(11) 0.8877(7)
C5 C 0.5779(11) 0.4529(12) 0.6025(7)
C6 C 0.6274(11) 0.4332(11) 0.9063(7)
C7 C 0.4375(11) 0.4072(11) 0.6223(7)
C8 C 1.1012(10) 0.3032(12) 0.7836(7)
C9 C 0.4326(12) 0.2043(12) 0.9334(7)
H1 H 0.5929 0.0675 0.9555
H2 H 0.6011 0.1954 1.0133
H3 H 0.4551 0.4025 0.8339
H4 H 0.4450 0.5321 0.8893
H5 H 0.6498 0.4686 0.9593
H6 H 0.6692 0.4948 0.8708
H7 H 0.3743 0.1525 0.9648
H8 H 0.4112 0.1745 0.8788
H9 H 0.6819 0.1906 0.5086
H10 H 0.7059 0.2227 0.5988
H11 H 0.5351 0.0556 0.5737
H12 H 0.4503 0.1621 0.5186
H13 H 0.6430 0.4369 0.6479
H14 H 0.5764 0.5525 0.5912
H15 H 0.3715 0.4229 0.5772
O2A O 0.8712(8) 0.4318(7) 0.7684(5)
Ag1A Ag 0.8818(1) 0.6876(1) 0.7382(1)
loop_
_geom_bond_atom_site_label_1
_geom_bond_atom_site_label_2
_geom_bond_site_symmetry_1
_geom_bond_site_symmetry_2
Ag1 S2 1_555 1_555
S1 O1 1_555 1_555
S2 C3 1_555 1_555
S3 Ag1 1_555 1_555
O1 Ag1 1_555 1_555
O2 Ag1 1_555 1_555
O3 C1 1_555 1_555
F1 C8 1_555 1_555
O4 C4 1_555 1_555
F2 C8 1_555 1_555
O5 S1 1_555 1_555
F3 C8 1_555 1_555
C1 C3 1_555 1_555
C2 S3 1_555 1_555
C3 H11 1_555 1_555
C4 C6 1_555 1_555
C5 O3 1_555 1_555
C6 S3 1_555 1_555
C7 S2 1_555 1_555
C8 S1 1_555 1_555
C9 O4 1_555 1_555
H1 C2 1_555 1_555
H2 C2 1_555 1_555
H3 C4 1_555 1_555
H4 C4 1_555 1_555
H5 C6 1_555 1_555
H6 C6 1_555 1_555
H7 C9 1_555 1_555
H8 C9 1_555 1_555
H9 C1 1_555 1_555
H10 C1 1_555 1_555
H12 C3 1_555 1_555
H13 C5 1_555 1_555
H14 C5 1_555 1_555
H15 C7 1_555 1_555
O2A S1 1_555 1_555
Ag1A O2A 1_555 1_555
C2 C9 1_555 1_555
C5 C7 1_555 1_555

#END
