
#######################################################################
#
#                 Cambridge Crystallographic Data Centre
#                                CCDC 
#
#######################################################################
#
# If this CIF has been generated from an entry in the Cambridge 
# Structural Database, then it will include bibliographic, chemical, 
# crystal, experimental, refinement or atomic coordinate data resulting 
# from the CCDC's data processing and validation procedures.
#
#######################################################################

data_TETNUD
_symmetry_cell_setting           monoclinic
_symmetry_space_group_name_H-M   'C 2/c'
_symmetry_Int_Tables_number      15
_space_group_name_Hall           '-C 2yn'
loop_
_symmetry_equiv_pos_site_id
_symmetry_equiv_pos_as_xyz
1 x,y,z
2 -x,y,1/2-z
3 1/2+x,1/2+y,z
4 1/2-x,1/2+y,1/2-z
5 -x,-y,-z
6 x,-y,1/2+z
7 1/2-x,1/2-y,-z
8 1/2+x,1/2-y,1/2+z
_cell_length_a                   24.075(7)
_cell_length_b                   9.496(3)
_cell_length_c                   14.226(4)
_cell_angle_alpha                90
_cell_angle_beta                 122.425(4)
_cell_angle_gamma                90
_cell_volume                     2745.24
loop_
_atom_site_label
_atom_site_type_symbol
_atom_site_fract_x
_atom_site_fract_y
_atom_site_fract_z
Cu1 Cu 0.247651(17) 0.04550(4) 0.35342(3)
S1 S 0.32022(3) -0.17397(8) 0.24928(6)
O1 O 0.26251(12) -0.0291(2) 0.4953(2)
H1 H 0.2313(14) -0.059(4) 0.499(3)
H2 H 0.2782(17) 0.039(3) 0.541(3)
O3 O 0.44620(11) -0.2130(2) 0.6083(2)
O4 O 0.28306(11) -0.0552(2) 0.25482(19)
O5 O 0.38998(11) -0.1639(2) 0.3362(2)
O6 O 0.31056(12) -0.1812(2) 0.13887(19)
O7 O 0.29359(10) -0.3083(2) 0.26642(18)
N1 N 0.33694(12) 0.1334(3) 0.4495(2)
N2 N 0.50353(13) -0.0166(3) 0.6218(2)
H5 H 0.5427(12) 0.018(4) 0.641(3)
N3 N 0.66670(13) -0.4239(3) 0.7736(2)
C1 C 0.38634(15) 0.0403(3) 0.4994(3)
H6 H 0.3769 -0.0569 0.4825
C2 C 0.45055(15) 0.0806(3) 0.5745(3)
C3 C 0.46398(15) 0.2214(4) 0.5999(3)
H7 H 0.5077 0.2523 0.6513
C4 C 0.41292(16) 0.3163(3) 0.5495(3)
H8 H 0.4211 0.4137 0.5668
C5 C 0.34957(15) 0.2702(3) 0.4735(3)
H9 H 0.3147 0.3366 0.4381
C6 C 0.60572(18) -0.4733(4) 0.7052(3)
H10 H 0.5998 -0.5711 0.6883
C7 C 0.55132(16) -0.3873(4) 0.6587(3)
H11 H 0.5086 -0.4259 0.6114
C8 C 0.55915(15) -0.2435(3) 0.6811(3)
C9 C 0.62217(15) -0.1934(3) 0.7491(3)
H12 H 0.6297 -0.0956 0.7649
C10 C 0.67421(15) -0.2860(3) 0.7941(3)
H13 H 0.7174 -0.2500 0.8419
C11 C 0.49799(15) -0.1562(3) 0.6332(3)
Cu1C Cu 0.252349(17) -0.45450(4) 0.14658(3)
Cu1G Cu 0.747651(17) -0.54550(4) 0.85342(3)
O7C O 0.20641(10) 0.1917(2) 0.23358(18)
N3G N 0.16670(13) -0.0761(3) 0.2736(2)
O2 O 0.33503(12) -0.3817(3) 0.4830(2)
H3 H 0.3168(18) -0.362(4) 0.4153(16)
H4 H 0.3639(15) -0.324(3) 0.524(3)
loop_
_geom_bond_atom_site_label_1
_geom_bond_atom_site_label_2
_geom_bond_site_symmetry_1
_geom_bond_site_symmetry_2
Cu1 O1 1_555 1_555
S1 O4 1_555 1_555
O1 H1 1_555 1_555
H2 O1 1_555 1_555
O2 H3 1_555 1_555
H4 O2 1_555 1_555
O3 C11 1_555 1_555
O4 Cu1 1_555 1_555
O5 S1 1_555 1_555
O6 S1 1_555 1_555
O7 S1 1_555 1_555
N1 Cu1 1_555 1_555
N2 H5 1_555 1_555
N3 C6 1_555 1_555
C1 N1 1_555 1_555
H6 C1 1_555 1_555
C2 N2 1_555 1_555
C3 C2 1_555 1_555
H7 C3 1_555 1_555
C4 C3 1_555 1_555
H8 C4 1_555 1_555
C5 N1 1_555 1_555
H9 C5 1_555 1_555
C6 H10 1_555 1_555
C7 C6 1_555 1_555
H11 C7 1_555 1_555
C8 C7 1_555 1_555
C9 C8 1_555 1_555
H12 C9 1_555 1_555
C10 N3 1_555 1_555
H13 C10 1_555 1_555
C11 N2 1_555 1_555
Cu1C O7 1_555 1_555
Cu1G N3 1_555 1_555
O7C Cu1 1_555 1_555
N3G Cu1 1_555 1_555
C1 C2 1_555 1_555
C4 C5 1_555 1_555
C8 C11 1_555 1_555
C9 C10 1_555 1_555

#END
