
#######################################################################
#
#                 Cambridge Crystallographic Data Centre
#                                CCDC 
#
#######################################################################
#
# If this CIF has been generated from an entry in the Cambridge 
# Structural Database, then it will include bibliographic, chemical, 
# crystal, experimental, refinement or atomic coordinate data resulting 
# from the CCDC's data processing and validation procedures.
#
#######################################################################

data_TETPAL
_symmetry_cell_setting           monoclinic
_symmetry_space_group_name_H-M   'P 21/c'
_symmetry_Int_Tables_number      14
_space_group_name_Hall           '-P 2ybc'
loop_
_symmetry_equiv_pos_site_id
_symmetry_equiv_pos_as_xyz
1 x,y,z
2 -x,1/2+y,1/2-z
3 -x,-y,-z
4 x,1/2-y,1/2+z
_cell_length_a                   8.6706(8)
_cell_length_b                   21.5919(19)
_cell_length_c                   6.9169(6)
_cell_angle_alpha                90
_cell_angle_beta                 90.1710(10)
_cell_angle_gamma                90
_cell_volume                     1294.94
loop_
_atom_site_label
_atom_site_type_symbol
_atom_site_fract_x
_atom_site_fract_y
_atom_site_fract_z
Cd1 Cd 0.15016(3) 0.452848(13) 0.73081(4)
S1 S 0.18633(11) 0.46880(5) 1.23689(14)
O1 O 0.1126(3) 0.43875(13) 1.0697(4)
O2 O 0.1890(3) 0.42559(13) 1.4032(4)
O3 O 0.3459(3) 0.48555(13) 1.1856(4)
O4 O 0.4087(3) 0.42979(14) 0.8343(4)
H1 H 0.489(4) 0.4497(18) 0.801(6)
H2 H 0.392(5) 0.438(2) 0.950(3)
O5 O 0.1015(3) 0.52498(13) 1.2947(4)
O6 O 0.4945(3) 0.75939(13) 0.8396(5)
N1 N 0.2530(4) 0.55150(14) 0.7289(5)
N2 N 0.6940(4) 0.70035(15) 0.7303(5)
H3 H 0.732(5) 0.6630(11) 0.707(6)
N3 N 0.9052(4) 0.84831(15) 0.7637(5)
C1 C 0.5451(5) 0.71075(19) 0.7779(6)
C2 C 1.0489(5) 0.82722(19) 0.7902(6)
H4 H 1.1298 0.8563 0.8084
C3 C 0.8163(5) 0.74335(18) 0.7485(6)
C4 C 0.3355(4) 0.64214(19) 0.8983(6)
H5 H 0.3256 0.6686 1.0072
C5 C 0.4491(5) 0.61677(19) 0.5956(6)
H6 H 0.5171 0.6257 0.4918
C6 C 1.0842(5) 0.76500(19) 0.7921(6)
H7 H 1.1880 0.7517 0.8069
C7 C 0.4421(5) 0.65522(17) 0.7550(6)
C8 C 0.2440(5) 0.59014(19) 0.8807(6)
H8 H 0.1717 0.5813 0.9799
C9 C 0.3561(5) 0.5656(2) 0.5905(6)
H9 H 0.3646 0.5385 0.4830
C10 C 0.9657(5) 0.72187(19) 0.7719(6)
H10 H 0.9869 0.6787 0.7742
C11 C 0.7904(5) 0.80668(18) 0.7429(6)
H11 H 0.6882 0.8213 0.7238
Cd1B Cd -0.15016(3) 0.547152(13) 1.26919(4)
Cd1_2 Cd 0.15016(3) 0.452848(13) 1.73081(4)
Cd1A Cd 0.84984(3) 0.952848(13) 0.76919(4)
Cd1B_2 Cd -0.15016(3) 0.547152(13) 0.26919(4)
Cd1C Cd -0.84984(3) 0.047152(13) 1.23081(4)
S1B S -0.18633(11) 0.53120(5) 0.76311(14)
O1B O -0.1126(3) 0.56125(13) 0.9303(4)
O2B O -0.1890(3) 0.57441(13) 0.5968(4)
O2_2 O 0.1890(3) 0.42559(13) 0.4032(4)
O2B_2 O -0.1890(3) 0.57441(13) 1.5968(4)
O3B O -0.3459(3) 0.51445(13) 0.8144(4)
O4B O -0.4087(3) 0.57021(14) 1.1657(4)
H1B H -0.489(4) 0.5503(18) 1.199(6)
H2B H -0.392(5) 0.562(2) 1.050(3)
O5B O -0.1015(3) 0.47502(13) 0.7053(4)
O6B O -0.4945(3) 0.24061(13) 1.1604(5)
N1B N -0.2530(4) 0.44850(14) 1.2711(5)
N2B N -0.6940(4) 0.29965(15) 1.2697(5)
H3B H -0.732(5) 0.3370(11) 1.293(6)
N3B N -0.9052(4) 0.15169(15) 1.2363(5)
N3A N 0.0948(4) 0.34831(15) 0.7363(5)
N3C N -0.0948(4) 0.65169(15) 1.2637(5)
C1B C -0.5451(5) 0.28925(19) 1.2221(6)
C2B C -1.0489(5) 0.17278(19) 1.2098(6)
H4B H -1.1298 0.1437 1.1916
C3B C -0.8163(5) 0.25665(18) 1.2515(6)
C4B C -0.3355(4) 0.35786(19) 1.1017(6)
H5B H -0.3256 0.3314 0.9928
C5B C -0.4491(5) 0.38323(19) 1.4044(6)
H6B H -0.5171 0.3743 1.5082
C6B C -1.0842(5) 0.23500(19) 1.2079(6)
H7B H -1.1880 0.2483 1.1931
C7B C -0.4421(5) 0.34478(17) 1.2450(6)
C8B C -0.2440(5) 0.40986(19) 1.1193(6)
H8B H -0.1717 0.4187 1.0201
C9B C -0.3561(5) 0.4344(2) 1.4095(6)
H9B H -0.3646 0.4615 1.5170
C10B C -0.9657(5) 0.27813(19) 1.2281(6)
H10B H -0.9869 0.3213 1.2258
C11B C -0.7904(5) 0.19332(18) 1.2571(6)
H11B H -0.6882 0.1787 1.2762
loop_
_geom_bond_atom_site_label_1
_geom_bond_atom_site_label_2
_geom_bond_site_symmetry_1
_geom_bond_site_symmetry_2
Cd1 O1 1_555 1_555
S1 O1 1_555 1_555
O2 S1 1_555 1_555
O3 S1 1_555 1_555
O4 Cd1 1_555 1_555
H1 O4 1_555 1_555
H2 O4 1_555 1_555
O5 S1 1_555 1_555
O6 C1 1_555 1_555
N1 Cd1 1_555 1_555
N2 H3 1_555 1_555
N3 C2 1_555 1_555
C1 N2 1_555 1_555
C2 H4 1_555 1_555
C3 N2 1_555 1_555
C4 H5 1_555 1_555
C5 H6 1_555 1_555
C6 C2 1_555 1_555
H7 C6 1_555 1_555
C7 C1 1_555 1_555
C8 N1 1_555 1_555
H8 C8 1_555 1_555
C9 N1 1_555 1_555
H9 C9 1_555 1_555
C10 C3 1_555 1_555
H10 C10 1_555 1_555
C11 N3 1_555 1_555
H11 C11 1_555 1_555
Cd1B O5 1_555 1_555
Cd1_2 O2 1_555 1_555
Cd1A N3 1_555 1_555
Cd1B_2 O2B 1_555 1_555
Cd1C N3B 1_555 1_555
S1B O1B 1_555 1_555
O1B Cd1B 1_555 1_555
O2B S1B 1_555 1_555
O2_2 Cd1 1_555 1_555
O2B_2 Cd1B 1_555 1_555
O3B S1B 1_555 1_555
O4B Cd1B 1_555 1_555
H1B O4B 1_555 1_555
H2B O4B 1_555 1_555
O5B Cd1 1_555 1_555
O6B C1B 1_555 1_555
N1B Cd1B 1_555 1_555
N2B H3B 1_555 1_555
N3B C2B 1_555 1_555
N3A Cd1 1_555 1_555
N3C Cd1B 1_555 1_555
C1B N2B 1_555 1_555
C2B H4B 1_555 1_555
C3B N2B 1_555 1_555
C4B H5B 1_555 1_555
C5B H6B 1_555 1_555
C6B C2B 1_555 1_555
H7B C6B 1_555 1_555
C7B C1B 1_555 1_555
C8B N1B 1_555 1_555
H8B C8B 1_555 1_555
C9B N1B 1_555 1_555
H9B C9B 1_555 1_555
C10B C3B 1_555 1_555
H10B C10B 1_555 1_555
C11B N3B 1_555 1_555
H11B C11B 1_555 1_555
C3 C11 1_555 1_555
C4 C7 1_555 1_555
C4 C8 1_555 1_555
C5 C7 1_555 1_555
C5 C9 1_555 1_555
C6 C10 1_555 1_555
S1B O5B 1_555 1_555
C3B C11B 1_555 1_555
C4B C7B 1_555 1_555
C4B C8B 1_555 1_555
C5B C7B 1_555 1_555
C5B C9B 1_555 1_555
C6B C10B 1_555 1_555

#END
