
#######################################################################
#
#                 Cambridge Crystallographic Data Centre
#                                CCDC 
#
#######################################################################
#
# If this CIF has been generated from an entry in the Cambridge 
# Structural Database, then it will include bibliographic, chemical, 
# crystal, experimental, refinement or atomic coordinate data resulting 
# from the CCDC's data processing and validation procedures.
#
#######################################################################

data_TETWAQ
_symmetry_cell_setting           triclinic
_symmetry_space_group_name_H-M   'P -1'
_symmetry_Int_Tables_number      2
_space_group_name_Hall           '-P 1'
loop_
_symmetry_equiv_pos_site_id
_symmetry_equiv_pos_as_xyz
1 x,y,z
2 -x,-y,-z
_cell_length_a                   12.494(4)
_cell_length_b                   13.924(2)
_cell_length_c                   13.264(7)
_cell_angle_alpha                75.52(3)
_cell_angle_beta                 72.75(3)
_cell_angle_gamma                82.59(3)
_cell_volume                     2129.95
loop_
_atom_site_label
_atom_site_type_symbol
_atom_site_fract_x
_atom_site_fract_y
_atom_site_fract_z
Bi1 Bi 0.0675(1) 0.1083(1) 0.3386(1)
N1 N 0.2018(9) 0.2446(7) 0.2564(8)
C1 C 0.1676(11) 0.3224(8) 0.3173(10)
C2 C 0.1220(12) 0.2801(11) 0.4386(11)
O1 O 0.1079(9) 0.1920(6) 0.4757(7)
O2 O 0.0986(10) 0.3436(7) 0.5018(8)
C3 C 0.3108(11) 0.1948(10) 0.2691(11)
C4 C 0.3263(12) 0.0899(9) 0.2492(10)
O3 O 0.2398(7) 0.0498(6) 0.2491(7)
O4 O 0.4231(9) 0.0466(8) 0.2370(9)
N2 N 0.0368(9) 0.1961(7) 0.1603(8)
C5 C -0.0903(11) 0.2137(10) 0.1881(11)
C6 C -0.1327(11) 0.2638(10) 0.2860(10)
O5 O -0.0725(8) 0.2474(7) 0.3515(7)
O6 O -0.2248(8) 0.3099(7) 0.2986(8)
C7 C 0.0762(10) 0.1253(9) 0.0923(10)
C8 C 0.0568(11) 0.0167(10) 0.1483(12)
O7 O 0.0244(8) -0.0013(6) 0.2503(8)
O8 O 0.0763(10) -0.0443(7) 0.0922(9)
C9 C 0.2090(10) 0.2825(9) 0.1352(9)
C10 C 0.0952(12) 0.2946(9) 0.1160(10)
C11 C 0.0996(14) 0.3346(11) -0.0014(11)
C12 C 0.1586(15) 0.4313(12) -0.0466(12)
C13 C 0.2742(14) 0.4180(12) -0.0289(12)
C14 C 0.2679(12) 0.3794(10) 0.0866(11)
Bi2 Bi -0.3431(1) 0.3283(1) 0.4927(1)
N3 N -0.5075(8) 0.2605(7) 0.6461(7)
C15 C -0.5416(11) 0.1713(10) 0.6244(11)
C16 C -0.5341(13) 0.1863(10) 0.5049(12)
O9 O -0.4852(9) 0.2558(8) 0.4393(8)
O10 O -0.5822(12) 0.1213(10) 0.4788(10)
C17 C -0.5956(12) 0.3436(11) 0.6407(13)
C18 C -0.5518(14) 0.4453(10) 0.6282(11)
O11 O -0.4451(8) 0.4510(6) 0.5901(7)
O12 O -0.6197(9) 0.5149(7) 0.6517(8)
N4 N -0.2715(9) 0.2564(7) 0.6550(8)
C19 C -0.1723(11) 0.1915(8) 0.6150(10)
C20 C -0.1925(10) 0.1277(8) 0.5462(10)
O13 O -0.2815(7) 0.1516(6) 0.5121(7)
O14 O -0.1251(8) 0.0563(6) 0.5263(7)
C21 C -0.2388(13) 0.3411(9) 0.6843(10)
C22 C -0.1808(11) 0.4210(9) 0.5852(11)
O15 O -0.1960(8) 0.4246(7) 0.4969(7)
O16 O -0.1298(9) 0.4811(7) 0.6078(9)
C23 C -0.4806(11) 0.2438(9) 0.7509(9)
C24 C -0.3598(10) 0.1947(9) 0.7445(9)
C25 C -0.3316(12) 0.1753(10) 0.8536(9)
C26 C -0.4182(12) 0.1130(9) 0.9444(10)
C27 C -0.5370(13) 0.1636(11) 0.9537(11)
C28 C -0.5647(12) 0.1799(9) 0.8479(10)
H1 H 0.1103(11) 0.3667(8) 0.2912(10)
H2 H 0.2315(11) 0.3609(8) 0.3049(10)
H3 H 0.3149(11) 0.1916(10) 0.3418(11)
H4 H 0.3714(11) 0.2338(10) 0.2185(11)
H5 H -0.1248(11) 0.1509(10) 0.2056(11)
H6 H -0.1116(11) 0.2560(10) 0.1261(11)
H7 H 0.1561(10) 0.1315(9) 0.0592(10)
H8 H 0.0398(10) 0.1431(9) 0.0345(10)
H9 H 0.2535(10) 0.2323(9) 0.0972(9)
H10 H 0.0499(12) 0.3427(9) 0.1565(10)
H11 H 0.0238(14) 0.3458(11) -0.0089(11)
H12 H 0.1390(14) 0.2860(11) -0.0427(11)
H13 H 0.1651(15) 0.4529(12) -0.1235(12)
H14 H 0.1145(15) 0.4823(12) -0.0112(12)
H15 H 0.3207(14) 0.3721(12) -0.0705(12)
H16 H 0.3088(14) 0.4813(12) -0.0543(12)
H17 H 0.2280(12) 0.4289(10) 0.1266(11)
H18 H 0.3433(12) 0.3689(10) 0.0949(11)
H19 H -0.4932(11) 0.1142(10) 0.6455(11)
H20 H -0.6180(11) 0.1581(10) 0.6674(11)
H21 H -0.6247(12) 0.3459(11) 0.5799(13)
H22 H -0.6572(12) 0.3305(11) 0.7062(13)
H23 H -0.1102(11) 0.2326(8) 0.5727(10)
H24 H -0.1508(11) 0.1487(8) 0.6766(10)
H25 H -0.3053(13) 0.3718(9) 0.7268(10)
H26 H -0.1882(13) 0.3168(9) 0.7295(10)
H27 H -0.4827(11) 0.3090(9) 0.7672(9)
H28 H -0.3571(10) 0.1302(9) 0.7264(9)
H29 H -0.3290(12) 0.2382(10) 0.8714(9)
H30 H -0.2581(12) 0.1409(10) 0.8472(9)
H31 H -0.4162(12) 0.0478(9) 0.9300(10)
H32 H -0.4000(12) 0.1046(9) 1.0124(10)
H33 H -0.5406(13) 0.2269(11) 0.9731(11)
H34 H -0.5915(13) 0.1221(11) 1.0102(11)
H35 H -0.5663(12) 0.1158(9) 0.8321(10)
H36 H -0.6393(12) 0.2123(9) 0.8551(10)
Bi1A Bi -0.0675(1) -0.1083(1) 0.6614(1)
O14A O 0.1251(8) -0.0563(6) 0.4737(7)
O12A O -0.3803(9) 0.4851(7) 0.3483(8)
Bi2A Bi -0.6569(1) 0.6717(1) 0.5073(1)
O17 O 0.6215(10) 0.1093(9) 0.2218(9)
O18 O 0.6923(11) 0.0204(9) 0.3952(9)
O19 O 0.6254(12) 0.3139(10) 0.1760(11)
O20 O 0.5585(14) 0.4405(11) 0.9161(14)
O21 O 0.4177(13) 0.4163(11) 0.2763(15)
O22 O 0.9391(13) 0.2499(11) 0.8647(16)
O23 O 0.7631(14) 0.3582(11) 0.9625(13)
O24 O 0.2022(14) 0.0044(13) 0.8731(12)
O25 O 0.1660(13) 0.1666(16) 0.7042(15)
O26 O 0.0452(21) 0.4817(21) 0.7161(17)
loop_
_geom_bond_atom_site_label_1
_geom_bond_atom_site_label_2
_geom_bond_site_symmetry_1
_geom_bond_site_symmetry_2
Bi1 N1 1_555 1_555
N1 C1 1_555 1_555
C1 C2 1_555 1_555
C2 O1 1_555 1_555
O1 Bi1 1_555 1_555
O2 C2 1_555 1_555
C3 N1 1_555 1_555
C4 C3 1_555 1_555
O3 Bi1 1_555 1_555
O4 C4 1_555 1_555
N2 Bi1 1_555 1_555
C5 N2 1_555 1_555
C6 C5 1_555 1_555
O5 Bi1 1_555 1_555
O6 C6 1_555 1_555
C7 N2 1_555 1_555
C8 C7 1_555 1_555
O7 Bi1 1_555 1_555
O8 C8 1_555 1_555
C9 N1 1_555 1_555
C10 N2 1_555 1_555
C11 C10 1_555 1_555
C12 C11 1_555 1_555
C13 C12 1_555 1_555
C14 C9 1_555 1_555
Bi2 O6 1_555 1_555
N3 Bi2 1_555 1_555
C15 N3 1_555 1_555
C16 C15 1_555 1_555
O9 Bi2 1_555 1_555
O10 C16 1_555 1_555
C17 N3 1_555 1_555
C18 C17 1_555 1_555
O11 Bi2 1_555 1_555
O12 C18 1_555 1_555
N4 Bi2 1_555 1_555
C19 N4 1_555 1_555
C20 C19 1_555 1_555
O13 Bi2 1_555 1_555
O14 Bi1 1_555 1_555
C21 N4 1_555 1_555
C22 C21 1_555 1_555
O15 Bi2 1_555 1_555
O16 C22 1_555 1_555
C23 N3 1_555 1_555
C24 N4 1_555 1_555
C25 C24 1_555 1_555
C26 C25 1_555 1_555
C27 C26 1_555 1_555
C28 C23 1_555 1_555
H1 C1 1_555 1_555
H2 C1 1_555 1_555
H3 C3 1_555 1_555
H4 C3 1_555 1_555
H5 C5 1_555 1_555
H6 C5 1_555 1_555
H7 C7 1_555 1_555
H8 C7 1_555 1_555
H9 C9 1_555 1_555
H10 C10 1_555 1_555
H11 C11 1_555 1_555
H12 C11 1_555 1_555
H13 C12 1_555 1_555
H14 C12 1_555 1_555
H15 C13 1_555 1_555
H16 C13 1_555 1_555
H17 C14 1_555 1_555
H18 C14 1_555 1_555
H19 C15 1_555 1_555
H20 C15 1_555 1_555
H21 C17 1_555 1_555
H22 C17 1_555 1_555
H23 C19 1_555 1_555
H24 C19 1_555 1_555
H25 C21 1_555 1_555
H26 C21 1_555 1_555
H27 C23 1_555 1_555
H28 C24 1_555 1_555
H29 C25 1_555 1_555
H30 C25 1_555 1_555
H31 C26 1_555 1_555
H32 C26 1_555 1_555
H33 C27 1_555 1_555
H34 C27 1_555 1_555
H35 C28 1_555 1_555
H36 C28 1_555 1_555
Bi1A O14 1_555 1_555
O14A Bi1 1_555 1_555
O12A Bi2 1_555 1_555
Bi2A O12 1_555 1_555
C4 O3 1_555 1_555
C6 O5 1_555 1_555
C8 O7 1_555 1_555
C9 C10 1_555 1_555
C13 C14 1_555 1_555
C16 O9 1_555 1_555
C18 O11 1_555 1_555
C20 O14 1_555 1_555
C20 O13 1_555 1_555
C22 O15 1_555 1_555
C23 C24 1_555 1_555
C27 C28 1_555 1_555
Bi1A O14A 1_555 1_555

#END
