
#######################################################################
#
#                 Cambridge Crystallographic Data Centre
#                                CCDC 
#
#######################################################################
#
# If this CIF has been generated from an entry in the Cambridge 
# Structural Database, then it will include bibliographic, chemical, 
# crystal, experimental, refinement or atomic coordinate data resulting 
# from the CCDC's data processing and validation procedures.
#
#######################################################################

data_TETWIA
_symmetry_cell_setting           monoclinic
_symmetry_space_group_name_H-M   'P 21/c'
_symmetry_Int_Tables_number      14
_space_group_name_Hall           '-P 2ybc'
loop_
_symmetry_equiv_pos_site_id
_symmetry_equiv_pos_as_xyz
1 x,y,z
2 -x,1/2+y,1/2-z
3 -x,-y,-z
4 x,1/2-y,1/2+z
_cell_length_a                   9.0724(12)
_cell_length_b                   9.1553(12)
_cell_length_c                   27.683(4)
_cell_angle_alpha                90
_cell_angle_beta                 98.481(2)
_cell_angle_gamma                90
_cell_volume                     2274.22
loop_
_atom_site_label
_atom_site_type_symbol
_atom_site_fract_x
_atom_site_fract_y
_atom_site_fract_z
Cu1 Cu 0.90167(6) 0.54910(7) 0.13080(2)
Cu2 Cu 0.50817(6) 0.22983(6) 0.28262(2)
C1 C 1.3151(6) 1.0509(6) -0.1724(2)
H1 H 1.2909 1.0301 -0.2055
C2 C 1.2398(6) 0.9791(6) -0.1408(2)
H2 H 1.1660 0.9121 -0.1524
C3 C 1.2738(6) 1.0063(6) -0.0915(2)
C4 C 1.3806(7) 1.1113(7) -0.0767(2)
H3 H 1.4053 1.1345 -0.0438
C5 C 1.4506(6) 1.1816(6) -0.11155(19)
H4 H 1.5202 1.2539 -0.1013
C6 C 1.1943(7) 0.9232(6) -0.0573(2)
H5 H 1.1249 0.8545 -0.0709
C7 C 1.2126(7) 0.9372(6) -0.0093(2)
H6 H 1.2819 1.0054 0.0047
C8 C 1.1314(6) 0.8528(6) 0.02362(19)
C9 C 1.0319(7) 0.7411(6) 0.0077(2)
H7 H 1.0129 0.7159 -0.0252
C10 C 0.9619(6) 0.6681(6) 0.0418(2)
H8 H 0.8940 0.5952 0.0306
C11 C 1.0803(6) 0.8030(6) 0.1043(2)
H9 H 1.0972 0.8263 0.1374
C12 C 1.1537(6) 0.8803(6) 0.0730(2)
H10 H 1.2203 0.9530 0.0853
C13 C 0.6524(5) 0.4177(5) 0.11708(18)
C14 C 0.5198(5) 0.3182(5) 0.12064(17)
H11 H 0.5427 0.2239 0.1068
C15 C 0.3677(5) 0.3660(6) 0.09333(17)
H12 H 0.3580 0.3397 0.0591
H13 H 0.3545 0.4707 0.0960
C16 C 0.2520(5) 0.2817(5) 0.11919(17)
H14 H 0.2038 0.2073 0.0968
C17 C 0.3439(5) 0.2043(5) 0.16361(16)
H15 H 0.3700 0.1093 0.1509
C18 C 0.4932(5) 0.2881(5) 0.17327(17)
H16 H 0.5708 0.2217 0.1888
C19 C 0.1339(5) 0.3830(5) 0.13313(18)
C20 C 0.2526(5) 0.1672(5) 0.20385(19)
C21 C 0.4956(5) 0.4261(5) 0.20365(17)
O1 O 0.8800(4) 0.6758(4) 0.18572(14)
O2 O 0.7602(4) 0.4115(4) 0.15160(12)
O3 O 0.6561(4) 0.4947(4) 0.08036(13)
O4 O 0.0159(4) 0.3953(4) 0.10253(12)
O5 O 0.1546(4) 0.4499(4) 0.17242(13)
O6 O 0.1276(4) 0.1133(4) 0.18954(13)
O7 O 0.3037(3) 0.1857(4) 0.24839(12)
O8 O 0.5108(4) 0.4155(3) 0.24941(11)
O9 O 0.4858(3) 0.5472(3) 0.18175(11)
O10 O 0.7245(4) 0.2008(5) 0.28274(18)
N1 N 1.4227(5) 1.1503(5) -0.15885(15)
N2 N 0.9851(4) 0.6952(4) 0.08925(15)
H19 H 0.8214 0.6791 0.2071
H20 H 0.9355 0.7393 0.2027
H21 H 0.7619 0.1214 0.2962
H22 H 0.7933 0.2549 0.2754
Cu1_2 Cu -0.09833(6) 0.54910(7) 0.13080(2)
Cu2A Cu 0.49183(6) 0.72983(6) 0.21738(2)
Cu2C Cu 1.50817(6) 1.27017(6) -0.21738(2)
O4_2 O 1.0159(4) 0.3953(4) 0.10253(12)
O5_2 O 1.1546(4) 0.4499(4) 0.17242(13)
O9A O 0.5142(3) 0.0472(3) 0.31825(11)
N1C N 0.4227(5) 0.3497(5) 0.34115(15)
O11 O 0.9426(4) 0.3783(4) 0.26021(14)
H17 H 0.9199 0.4525 0.2760
H18 H 1.0312 0.3498 0.2699
O12 O 0.5583(10) 0.1489(9) 0.4888(3)
H23 H 0.4958 0.1010 0.4680
H24 H 0.5882 0.1042 0.5156
loop_
_geom_bond_atom_site_label_1
_geom_bond_atom_site_label_2
_geom_bond_site_symmetry_1
_geom_bond_site_symmetry_2
Cu1 O1 1_555 1_555
Cu2 O7 1_555 1_555
C1 H1 1_555 1_555
C2 C1 1_555 1_555
H2 C2 1_555 1_555
C3 C2 1_555 1_555
C4 C3 1_555 1_555
H3 C4 1_555 1_555
C5 C4 1_555 1_555
H4 C5 1_555 1_555
C6 C3 1_555 1_555
H5 C6 1_555 1_555
C7 C6 1_555 1_555
H6 C7 1_555 1_555
C8 C7 1_555 1_555
C9 C8 1_555 1_555
H7 C9 1_555 1_555
C10 C9 1_555 1_555
H8 C10 1_555 1_555
C11 H9 1_555 1_555
C12 C8 1_555 1_555
H10 C12 1_555 1_555
C13 C14 1_555 1_555
C14 H11 1_555 1_555
C15 C14 1_555 1_555
H12 C15 1_555 1_555
H13 C15 1_555 1_555
C16 C15 1_555 1_555
H14 C16 1_555 1_555
C17 C16 1_555 1_555
H15 C17 1_555 1_555
C18 C14 1_555 1_555
H16 C18 1_555 1_555
C19 C16 1_555 1_555
C20 C17 1_555 1_555
C21 C18 1_555 1_555
O1 H19 1_555 1_555
O2 Cu1 1_555 1_555
O3 Cu1 1_555 1_555
O4 C19 1_555 1_555
O5 C19 1_555 1_555
O6 C20 1_555 1_555
O7 C20 1_555 1_555
O8 Cu2 1_555 1_555
O9 C21 1_555 1_555
O10 Cu2 1_555 1_555
O11 H17 1_555 1_555
H18 O11 1_555 1_555
O12 H23 1_555 1_555
N1 C1 1_555 1_555
N2 Cu1 1_555 1_555
H20 O1 1_555 1_555
H21 O10 1_555 1_555
H22 O10 1_555 1_555
H24 O12 1_555 1_555
Cu1_2 O4 1_555 1_555
Cu2A O9 1_555 1_555
Cu2C N1 1_555 1_555
O4_2 Cu1 1_555 1_555
O5_2 Cu1 1_555 1_555
O9A Cu2 1_555 1_555
N1C Cu2 1_555 1_555
C5 N1 1_555 1_555
C10 N2 1_555 1_555
C11 C12 1_555 1_555
C11 N2 1_555 1_555
C13 O2 1_555 1_555
C13 O3 1_555 1_555
C17 C18 1_555 1_555
C21 O8 1_555 1_555
O5 Cu1_2 1_555 1_555

#END
