
#######################################################################
#
#                 Cambridge Crystallographic Data Centre
#                                CCDC 
#
#######################################################################
#
# If this CIF has been generated from an entry in the Cambridge 
# Structural Database, then it will include bibliographic, chemical, 
# crystal, experimental, refinement or atomic coordinate data resulting 
# from the CCDC's data processing and validation procedures.
#
#######################################################################

data_TETXAT
_symmetry_cell_setting           triclinic
_symmetry_space_group_name_H-M   'P -1'
_symmetry_Int_Tables_number      2
_space_group_name_Hall           '-P 1'
loop_
_symmetry_equiv_pos_site_id
_symmetry_equiv_pos_as_xyz
1 x,y,z
2 -x,-y,-z
_cell_length_a                   9.0377(14)
_cell_length_b                   9.7838(15)
_cell_length_c                   11.3709(18)
_cell_angle_alpha                88.129(3)
_cell_angle_beta                 78.639(2)
_cell_angle_gamma                65.906(2)
_cell_volume                     898.584
loop_
_atom_site_label
_atom_site_type_symbol
_atom_site_fract_x
_atom_site_fract_y
_atom_site_fract_z
Co1 Co 0.16717(5) 0.46462(5) 0.21807(4)
Co2 Co 0.5000 0.5000 0.0000
Co3 Co 0.0000 1.0000 0.0000
O1 O 0.7022(3) 0.5180(2) 0.0475(2)
O2 O 0.3932(3) 0.7300(2) -0.0174(2)
O3 O 0.3618(3) 0.5352(3) 0.17299(19)
O4 O 0.7796(3) 0.6737(3) -0.0703(2)
C1 C 0.7102(4) 0.6425(4) 0.0273(3)
O5 O 0.9660(3) 0.6472(3) 0.1667(2)
O6 O 0.1829(3) 0.6431(3) 0.3344(2)
O7 O -0.0565(3) 1.2161(3) 0.0791(3)
H1 H -0.1347 1.2797 0.0545
O8 O 0.2099(3) 0.9476(3) 0.0717(3)
N1 N 0.2893(3) 0.2953(3) 0.3243(3)
C2 C 0.4368(4) 0.8215(4) 0.1632(3)
H2 H 0.3976 0.9249 0.1951
C3 C 0.6810(4) 0.7059(4) 0.2475(3)
H3 H 0.6572 0.7940 0.2987
C4 C 0.6285(4) 0.7640(3) 0.1278(3)
H4 H 0.6580 0.8487 0.1054
C5 C 0.8635(4) 0.6078(4) 0.2345(3)
C6 C 0.3416(4) 0.8319(4) 0.0635(3)
O9 O 0.9156(3) 0.4913(3) 0.2917(2)
C7 C 0.4553(4) 0.0623(4) 0.4630(3)
C8 C 0.3974(4) 0.7325(4) 0.2733(3)
H5 H 0.3308 0.8054 0.3406
C9 C 0.3074(4) 0.6340(4) 0.2593(3)
O10 O -0.1055(4) 0.9429(3) 0.1628(3)
H6 H -0.0707 0.9653 0.2173
C10 C 0.5654(4) 0.6343(4) 0.3069(3)
H7 H 0.5562 0.6354 0.3934
H8 H 0.6050 0.5314 0.2763
C11 C 0.5386(5) 0.1160(5) 0.3727(4)
H9 H 0.6537 0.0752 0.3565
C12 C 0.2848(5) 0.1305(5) 0.4820(4)
H10 H 0.2215 0.0984 0.5415
C13 C 0.2089(5) 0.2452(5) 0.4132(4)
H11 H 0.0939 0.2910 0.4297
C14 C 0.4526(5) 0.2303(5) 0.3057(4)
H12 H 0.5126 0.2634 0.2444
H13 H -0.067(6) 0.847(2) 0.162(4)
H14 H 0.020(4) 1.246(6) 0.064(6)
Co1A Co -0.16717(5) 1.53538(5) -0.21807(4)
Co1_2 Co -0.83283(5) 1.46462(5) 0.21807(4)
Co1_3 Co 1.16717(5) 0.46462(5) 0.21807(4)
Co1A_2 Co -1.16717(5) 1.53538(5) -0.21807(4)
Co1A_3 Co 0.83283(5) -0.46462(5) 0.78193(4)
Co1A_4 Co 0.83283(5) 0.53538(5) -0.21807(4)
Co2_2 Co -0.5000 1.5000 0.0000
O1A O -0.7022(3) 1.4820(2) -0.0475(2)
O1A_2 O 0.2978(3) 0.4820(2) -0.0475(2)
O2A O -0.3932(3) 1.2700(2) 0.0174(2)
O2A_2 O 0.6068(3) 0.2700(2) 0.0174(2)
O3A O -0.3618(3) 1.4648(3) -0.17299(19)
O3A_2 O 0.6382(3) 0.4648(3) -0.17299(19)
O4A O -0.7796(3) 1.3263(3) 0.0703(2)
O4_2 O -0.2204(3) 1.6737(3) -0.0703(2)
O4A_2 O 0.2204(3) 0.3263(3) 0.0703(2)
C1A C -0.7102(4) 1.3575(4) -0.0273(3)
O5A O -0.9660(3) 1.3528(3) -0.1667(2)
O5_2 O -0.0340(3) 0.6472(3) 0.1667(2)
O5A_2 O 0.0340(3) 1.3528(3) -0.1667(2)
O6A O -0.1829(3) 1.3569(3) -0.3344(2)
O7A O 0.0565(3) 0.7839(3) -0.0791(3)
H1A H 0.1347 0.7203 -0.0545
O8A O -0.2099(3) 1.0524(3) -0.0717(3)
N1A N 0.7107(3) -0.2953(3) 0.6757(3)
N1A_2 N -0.2893(3) 1.7047(3) -0.3243(3)
C2A C -0.4368(4) 1.1785(4) -0.1632(3)
H2A H -0.3976 1.0751 -0.1951
C3A C -0.6810(4) 1.2941(4) -0.2475(3)
H3A H -0.6572 1.2060 -0.2987
C4A C -0.6285(4) 1.2360(3) -0.1278(3)
H4A H -0.6580 1.1513 -0.1054
C5A C -0.8635(4) 1.3922(4) -0.2345(3)
C6A C -0.3416(4) 1.1681(4) -0.0635(3)
O9A O -0.9156(3) 1.5087(3) -0.2917(2)
O9_2 O -0.0844(3) 0.4913(3) 0.2917(2)
O9A_2 O 0.0844(3) 1.5087(3) -0.2917(2)
C7A C 0.5447(4) -0.0623(4) 0.5370(3)
C8A C -0.3974(4) 1.2675(4) -0.2733(3)
H5A H -0.3308 1.1946 -0.3406
C9A C -0.3074(4) 1.3660(4) -0.2593(3)
O10A O 0.1055(4) 1.0571(3) -0.1628(3)
H6A H 0.0707 1.0347 -0.2173
C10A C -0.5654(4) 1.3657(4) -0.3069(3)
H7A H -0.5562 1.3646 -0.3934
H8A H -0.6050 1.4686 -0.2763
C11A C 0.4614(5) -0.1160(5) 0.6273(4)
H9A H 0.3463 -0.0752 0.6435
C12A C 0.7152(5) -0.1305(5) 0.5180(4)
H10A H 0.7785 -0.0984 0.4585
C13A C 0.7911(5) -0.2452(5) 0.5868(4)
H11A H 0.9061 -0.2910 0.5703
C14A C 0.5474(5) -0.2303(5) 0.6943(4)
H12A H 0.4874 -0.2634 0.7556
H13A H 0.067(6) 1.153(2) -0.162(4)
H14A H -0.020(4) 0.754(6) -0.064(6)
O11 O 0.7882(4) 0.3028(4) 0.4299(3)
H15 H 0.821(9) 0.370(6) 0.399(5)
H16 H 0.816(10) 0.293(9) 0.498(4)
O12 O 1.0103(7) 0.0260(6) 0.3368(6)
H17 H 0.937(7) 0.120(3) 0.342(4)
H18 H 0.990(5) 0.014(4) 0.4149(19)
loop_
_geom_bond_atom_site_label_1
_geom_bond_atom_site_label_2
_geom_bond_site_symmetry_1
_geom_bond_site_symmetry_2
Co1 O3 1_555 1_555
Co2 O1 1_555 1_555
Co3 O7 1_555 1_555
O1 C1 1_555 1_555
O2 Co2 1_555 1_555
O3 Co2 1_555 1_555
O4 C1 1_555 1_555
C1 C4 1_555 1_555
O5 C5 1_555 1_555
O6 Co1 1_555 1_555
O7 H1 1_555 1_555
O8 Co3 1_555 1_555
N1 Co1 1_555 1_555
C2 H2 1_555 1_555
C3 H3 1_555 1_555
C4 C2 1_555 1_555
H4 C4 1_555 1_555
C5 C3 1_555 1_555
C6 O2 1_555 1_555
O9 C5 1_555 1_555
C7 C11 1_555 1_555
C8 C2 1_555 1_555
H5 C8 1_555 1_555
C9 O3 1_555 1_555
O10 Co3 1_555 1_555
H6 O10 1_555 1_555
C10 C3 1_555 1_555
H7 C10 1_555 1_555
H8 C10 1_555 1_555
C11 H9 1_555 1_555
C12 C7 1_555 1_555
H10 C12 1_555 1_555
C13 N1 1_555 1_555
H11 C13 1_555 1_555
C14 N1 1_555 1_555
H12 C14 1_555 1_555
H13 O10 1_555 1_555
H14 O7 1_555 1_555
O11 H15 1_555 1_555
H16 O11 1_555 1_555
O12 H17 1_555 1_555
H18 O12 1_555 1_555
Co1A O3A 1_555 1_555
Co1_2 O4A 1_555 1_555
Co1_3 O5 1_555 1_555
Co1A_2 O5A 1_555 1_555
Co1A_3 N1A 1_555 1_555
Co1A_4 O4 1_555 1_555
Co2_2 O1A 1_555 1_555
O1A C1A 1_555 1_555
O1A_2 Co2 1_555 1_555
O2A Co2_2 1_555 1_555
O2A_2 Co2 1_555 1_555
O3A Co2_2 1_555 1_555
O3A_2 Co2 1_555 1_555
O4A C1A 1_555 1_555
O4_2 Co1A 1_555 1_555
O4A_2 Co1 1_555 1_555
C1A C4A 1_555 1_555
O5A C5A 1_555 1_555
O5_2 Co1 1_555 1_555
O5A_2 Co1A 1_555 1_555
O6A Co1A 1_555 1_555
O7A Co3 1_555 1_555
H1A O7A 1_555 1_555
O8A Co3 1_555 1_555
N1A C13A 1_555 1_555
N1A_2 Co1A 1_555 1_555
C2A H2A 1_555 1_555
C3A H3A 1_555 1_555
C4A C2A 1_555 1_555
H4A C4A 1_555 1_555
C5A C3A 1_555 1_555
C6A O2A 1_555 1_555
O9A Co1A_2 1_555 1_555
O9_2 Co1 1_555 1_555
O9A_2 Co1A 1_555 1_555
C7A C7 1_555 1_555
C8A C2A 1_555 1_555
H5A C8A 1_555 1_555
C9A O3A 1_555 1_555
O10A Co3 1_555 1_555
H6A O10A 1_555 1_555
C10A C3A 1_555 1_555
H7A C10A 1_555 1_555
H8A C10A 1_555 1_555
C11A C7A 1_555 1_555
H9A C11A 1_555 1_555
C12A C7A 1_555 1_555
H10A C12A 1_555 1_555
C13A C12A 1_555 1_555
H11A C13A 1_555 1_555
C14A N1A 1_555 1_555
H12A C14A 1_555 1_555
H13A O10A 1_555 1_555
H14A O7A 1_555 1_555
O6 C9 1_555 1_555
O8 C6 1_555 1_555
C2 C6 1_555 1_555
C3 C4 1_555 1_555
O9 Co1_3 1_555 1_555
C8 C9 1_555 1_555
C8 C10 1_555 1_555
C11 C14 1_555 1_555
C12 C13 1_555 1_555
Co1A_4 O3A_2 1_555 1_555
O6A C9A 1_555 1_555
O8A C6A 1_555 1_555
C2A C6A 1_555 1_555
C3A C4A 1_555 1_555
C5A O9A 1_555 1_555
C8A C9A 1_555 1_555
C8A C10A 1_555 1_555
C11A C14A 1_555 1_555

#END
