
#######################################################################
#
#                 Cambridge Crystallographic Data Centre
#                                CCDC 
#
#######################################################################
#
# If this CIF has been generated from an entry in the Cambridge 
# Structural Database, then it will include bibliographic, chemical, 
# crystal, experimental, refinement or atomic coordinate data resulting 
# from the CCDC's data processing and validation procedures.
#
#######################################################################

data_TEVBUT
_symmetry_cell_setting           monoclinic
_symmetry_space_group_name_H-M   'P 21'
_symmetry_Int_Tables_number      4
_space_group_name_Hall           'P 2yb'
loop_
_symmetry_equiv_pos_site_id
_symmetry_equiv_pos_as_xyz
1 x,y,z
2 -x,1/2+y,-z
_cell_length_a                   6.9205(7)
_cell_length_b                   15.7116(16)
_cell_length_c                   13.5636(14)
_cell_angle_alpha                90
_cell_angle_beta                 98.2480(10)
_cell_angle_gamma                90
_cell_volume                     1459.54
loop_
_atom_site_label
_atom_site_type_symbol
_atom_site_fract_x
_atom_site_fract_y
_atom_site_fract_z
Mn1 Mn 0.71187(15) 0.66779(7) 0.09331(8)
P1 P 1.2166(3) 0.63050(12) 0.13257(14)
O1 O 0.7404(7) 0.5572(3) 0.1515(3)
O2 O 0.6836(7) 0.6259(3) -0.0397(4)
O3 O 1.0399(7) 0.6783(3) 0.0892(4)
O4 O 1.2096(7) 0.5410(3) 0.1013(4)
H1 H 1.2048 0.5321 0.0391
O5 O 1.4038(7) 0.6676(3) 0.1082(3)
N1 N 0.6820(9) 0.7880(4) 0.0466(4)
N2 N 0.7630(8) 0.7259(4) 0.2274(5)
C1 C 0.7155(10) 0.5381(5) 0.2412(6)
C2 C 0.6903(11) 0.4473(6) 0.2642(5)
H2 H 0.6810 0.4071 0.2134
C3 C 0.6806(10) 0.4216(4) 0.3610(5)
H3 H 0.6711 0.3642 0.3759
C4 C 0.6853(10) 0.4845(5) 0.4383(6)
C5 C 0.7104(12) 0.5668(5) 0.4182(6)
H4 H 0.7182 0.6055 0.4705
C6 C 0.7256(10) 0.5976(5) 0.3239(5)
C7 C 0.7574(10) 0.6889(4) 0.3098(6)
H5 H 0.7750 0.7227 0.3667
C8 C 0.8006(10) 0.8159(5) 0.2161(5)
H6 H 0.9290 0.8234 0.1948
C9 C 0.7896(11) 0.8696(4) 0.3109(5)
H7 H 0.8939 0.8530 0.3629
H8 H 0.6661 0.8593 0.3348
C10 C 0.8085(12) 0.9659(4) 0.2871(5)
H9 H 0.7901 0.9993 0.3452
H10 H 0.9388 0.9773 0.2718
C11 C 0.6630(10) 0.9918(4) 0.2019(5)
H11 H 0.6898 1.0493 0.1816
H12 H 0.5331 0.9906 0.2208
C12 C 0.6746(9) 0.9299(4) 0.1156(6)
H13 H 0.5797 0.9485 0.0601
H14 H 0.8025 0.9366 0.0952
C13 C 0.6426(11) 0.8346(5) 0.1296(5)
H15 H 0.5120 0.8225 0.1461
C14 C 0.6861(9) 0.8131(5) -0.0446(5)
H16 H 0.6684 0.8708 -0.0583
C15 C 0.7157(10) 0.7587(5) -0.1247(5)
C16 C 0.7411(11) 0.7991(5) -0.2159(5)
H17 H 0.7363 0.8582 -0.2208
C17 C 0.7733(10) 0.7505(5) -0.2981(6)
C18 C 0.7863(9) 0.6634(5) -0.2913(5)
H18 H 0.8113 0.6318 -0.3460
C19 C 0.7621(10) 0.6219(5) -0.2027(5)
H19 H 0.7768 0.5631 -0.1983
C20 C 0.7155(11) 0.6682(5) -0.1197(5)
C21 C 1.2279(12) 0.6280(5) 0.2686(5)
C22 C 1.2052(10) 0.5552(4) 0.3246(5)
H20 H 1.1847 0.5036 0.2911
C23 C 1.2109(10) 0.5548(4) 0.4232(5)
H21 H 1.1930 0.5045 0.4569
C24 C 1.2449(12) 0.6325(4) 0.4759(6)
H22 H 1.2499 0.6330 0.5448
C25 C 1.2711(11) 0.7090(5) 0.4255(6)
H23 H 1.2942 0.7604 0.4592
C26 C 1.2605(10) 0.7034(5) 0.3230(5)
Br1 Br 0.65926(10) 0.44751(4) 0.56863(5)
Br2 Br 0.81062(11) 0.80521(5) -0.41797(5)
F1 F 1.2866(6) 0.7769(2) 0.2739(3)
Mn1_2 Mn 1.71187(15) 0.66779(7) 0.09331(8)
O5_2 O 0.4038(7) 0.6676(3) 0.1082(3)
O6 O 0.9051(12) 0.4658(6) 0.9864(6)
H24 H 0.8655 0.4811 1.0402
H25 H 0.8797 0.5047 0.9428
O7 O 0.155(2) 0.8568(11) 0.9535(12)
H26 H 0.2220 0.8192 0.9886
H27 H 0.1245 0.8384 0.8942
H28? H 0.2678 0.7552 0.8300
H29? H 0.2890 0.7302 0.9291
O8? O 0.207(4) 0.7414(15) 0.8778(18)
loop_
_geom_bond_atom_site_label_1
_geom_bond_atom_site_label_2
_geom_bond_site_symmetry_1
_geom_bond_site_symmetry_2
Mn1 O1 1_555 1_555
P1 O3 1_555 1_555
O1 C1 1_555 1_555
O2 Mn1 1_555 1_555
O3 Mn1 1_555 1_555
O4 P1 1_555 1_555
H1 O4 1_555 1_555
O5 P1 1_555 1_555
N1 Mn1 1_555 1_555
N2 Mn1 1_555 1_555
C1 C2 1_555 1_555
C2 H2 1_555 1_555
C3 C2 1_555 1_555
H3 C3 1_555 1_555
C4 C3 1_555 1_555
C5 C4 1_555 1_555
H4 C5 1_555 1_555
C6 C1 1_555 1_555
C7 N2 1_555 1_555
H5 C7 1_555 1_555
C8 N2 1_555 1_555
H6 C8 1_555 1_555
C9 C8 1_555 1_555
H7 C9 1_555 1_555
H8 C9 1_555 1_555
C10 C9 1_555 1_555
H9 C10 1_555 1_555
H10 C10 1_555 1_555
C11 C10 1_555 1_555
H11 C11 1_555 1_555
H12 C11 1_555 1_555
C12 C11 1_555 1_555
H13 C12 1_555 1_555
H14 C12 1_555 1_555
C13 N1 1_555 1_555
H15 C13 1_555 1_555
C14 N1 1_555 1_555
H16 C14 1_555 1_555
C15 C14 1_555 1_555
C16 C15 1_555 1_555
H17 C16 1_555 1_555
C17 C16 1_555 1_555
C18 C17 1_555 1_555
H18 C18 1_555 1_555
C19 C18 1_555 1_555
H19 C19 1_555 1_555
C20 O2 1_555 1_555
C21 P1 1_555 1_555
C22 C21 1_555 1_555
H20 C22 1_555 1_555
C23 C22 1_555 1_555
H21 C23 1_555 1_555
C24 C23 1_555 1_555
H22 C24 1_555 1_555
C25 C24 1_555 1_555
H23 C25 1_555 1_555
C26 C21 1_555 1_555
Br1 C4 1_555 1_555
Br2 C17 1_555 1_555
F1 C26 1_555 1_555
O6 H24 1_555 1_555
H25 O6 1_555 1_555
O7 H26 1_555 1_555
H27 O7 1_555 1_555
Mn1_2 O5 1_555 1_555
O5_2 Mn1 1_555 1_555
C5 C6 1_555 1_555
C6 C7 1_555 1_555
C8 C13 1_555 1_555
C12 C13 1_555 1_555
C15 C20 1_555 1_555
C19 C20 1_555 1_555
C25 C26 1_555 1_555

#END
