
#######################################################################
#
#                 Cambridge Crystallographic Data Centre
#                                CCDC 
#
#######################################################################
#
# If this CIF has been generated from an entry in the Cambridge 
# Structural Database, then it will include bibliographic, chemical, 
# crystal, experimental, refinement or atomic coordinate data resulting 
# from the CCDC's data processing and validation procedures.
#
#######################################################################

data_TEVCEE
_symmetry_cell_setting           monoclinic
_symmetry_space_group_name_H-M   'P 21'
_symmetry_Int_Tables_number      4
_space_group_name_Hall           'P 2yb'
loop_
_symmetry_equiv_pos_site_id
_symmetry_equiv_pos_as_xyz
1 x,y,z
2 -x,1/2+y,-z
_cell_length_a                   6.9258(8)
_cell_length_b                   15.9043(19)
_cell_length_c                   13.5363(16)
_cell_angle_alpha                90
_cell_angle_beta                 98.125(2)
_cell_angle_gamma                90
_cell_volume                     1476.06
loop_
_atom_site_label
_atom_site_type_symbol
_atom_site_fract_x
_atom_site_fract_y
_atom_site_fract_z
Mn1 Mn 0.30076(17) 0.32728(8) 0.91222(8)
P1 P -0.2065(3) 0.29321(12) 0.87432(15)
O1 O 0.2859(8) 0.2184(3) 0.8532(4)
O2 O 0.3372(8) 0.2885(3) 1.0437(4)
O3 O -0.0204(7) 0.3315(4) 0.9189(4)
O4 O -0.3827(7) 0.3372(4) 0.9048(4)
O5 O -0.2123(8) 0.1969(3) 0.9006(4)
H1 H -0.3393 0.1826 0.9162
N1 N 0.2429(9) 0.3815(4) 0.7781(4)
N2 N 0.3198(9) 0.4457(4) 0.9561(5)
C1 C 0.3014(11) 0.1985(5) 0.7630(6)
C2 C 0.3338(10) 0.1108(6) 0.7398(6)
H5 H 0.3441 0.0711 0.7907
C3 C 0.3494(11) 0.0854(5) 0.6441(5)
H6 H 0.3702 0.0290 0.6306
C4 C 0.3338(12) 0.1450(5) 0.5668(6)
C5 C 0.3054(13) 0.2288(5) 0.5862(6)
H7 H 0.2995 0.2680 0.5348
C6 C 0.2854(11) 0.2552(5) 0.6822(6)
C7 C 0.2475(11) 0.3450(5) 0.6931(5)
H8 H 0.2254 0.3777 0.6356
C8 C 0.2007(11) 0.4716(6) 0.7874(5)
H9 H 0.0701 0.4760 0.8069
C9 C 0.1984(12) 0.5214(5) 0.6920(6)
H10 H 0.0971 0.5003 0.6412
H11 H 0.3228 0.5160 0.6675
C10 C 0.1583(11) 0.6166(5) 0.7156(5)
H12 H 0.1603 0.6502 0.6559
H13 H 0.0302 0.6220 0.7360
C11 C 0.3089(11) 0.6482(5) 0.7963(5)
H14 H 0.2844 0.7068 0.8098
H15 H 0.4371 0.6438 0.7757
C12 C 0.3016(12) 0.5970(5) 0.8880(6)
H16 H 0.3960 0.6188 0.9416
H17 H 0.1731 0.6020 0.9081
C13 C 0.3430(13) 0.5086(5) 0.8722(6)
H18 H 0.4755 0.5037 0.8552
C14 C 0.3117(9) 0.4743(6) 1.0478(5)
H19 H 0.3202 0.5319 1.0595
C15 C 0.2904(10) 0.4192(5) 1.1286(5)
C16 C 0.2597(11) 0.4619(6) 1.2195(5)
H20 H 0.2594 0.5203 1.2237
C17 C 0.2307(11) 0.4118(5) 1.3003(6)
C18 C 0.2316(11) 0.3238(5) 1.2954(5)
H21 H 0.2092 0.2918 1.3502
C19 C 0.2658(10) 0.2854(5) 1.2088(5)
H22 H 0.2689 0.2269 1.2062
C20 C 0.2959(11) 0.3311(6) 1.1249(5)
C21 C -0.2245(11) 0.2952(5) 0.7403(6)
C22 C -0.1881(11) 0.2272(5) 0.6811(6)
H23 H -0.1530 0.1763 0.7124
C23 C -0.2011(12) 0.2309(5) 0.5791(6)
H24 H -0.1823 0.1831 0.5422
C24 C -0.2441(10) 0.3098(5) 0.5311(5)
C25 C -0.2785(11) 0.3796(5) 0.5885(5)
H25 H -0.3110 0.4307 0.5572
C26 C -0.2651(11) 0.3740(6) 0.6914(6)
H26 H -0.2825 0.4218 0.7287
C27 C -0.2558(12) 0.3166(5) 0.4154(5)
H27 H -0.3272 0.3663 0.3924
H28 H -0.3210 0.2680 0.3846
H29 H -0.1264 0.3197 0.3979
Br1 Br 0.36514(11) 0.11265(5) 0.43448(5)
Br2 Br 0.19163(11) 0.46799(5) 1.42067(5)
Mn1_2 Mn -0.69924(17) 0.32728(8) 0.91222(8)
O4_2 O 0.6173(7) 0.3372(4) 0.9048(4)
O6 O 0.2332(9) 0.9572(5) 0.9399(5)
H2 H 0.3311 0.9372 0.9920
C28 C 0.2087(13) 0.8977(6) 0.8625(6)
H30 H 0.1723 0.9258 0.7999
H31 H 0.1083 0.8586 0.8735
H32 H 0.3289 0.8679 0.8611
O7 O 0.8996(7) 0.6133(4) 0.0102(4)
H3 H 0.8757 0.6648 0.0199
H4 H 0.8018 0.5910 -0.0252
loop_
_geom_bond_atom_site_label_1
_geom_bond_atom_site_label_2
_geom_bond_site_symmetry_1
_geom_bond_site_symmetry_2
Mn1 O1 1_555 1_555
P1 O3 1_555 1_555
O1 C1 1_555 1_555
O2 Mn1 1_555 1_555
O3 Mn1 1_555 1_555
O4 P1 1_555 1_555
O5 P1 1_555 1_555
H1 O5 1_555 1_555
O6 H2 1_555 1_555
O7 H3 1_555 1_555
H4 O7 1_555 1_555
N1 Mn1 1_555 1_555
N2 Mn1 1_555 1_555
C1 C2 1_555 1_555
C2 H5 1_555 1_555
C3 C2 1_555 1_555
H6 C3 1_555 1_555
C4 C3 1_555 1_555
C5 C4 1_555 1_555
H7 C5 1_555 1_555
C6 C1 1_555 1_555
C7 N1 1_555 1_555
H8 C7 1_555 1_555
C8 N1 1_555 1_555
H9 C8 1_555 1_555
C9 C8 1_555 1_555
H10 C9 1_555 1_555
H11 C9 1_555 1_555
C10 C9 1_555 1_555
H12 C10 1_555 1_555
H13 C10 1_555 1_555
C11 C10 1_555 1_555
H14 C11 1_555 1_555
H15 C11 1_555 1_555
C12 C11 1_555 1_555
H16 C12 1_555 1_555
H17 C12 1_555 1_555
C13 N2 1_555 1_555
H18 C13 1_555 1_555
C14 N2 1_555 1_555
H19 C14 1_555 1_555
C15 C14 1_555 1_555
C16 C15 1_555 1_555
H20 C16 1_555 1_555
C17 C16 1_555 1_555
C18 C17 1_555 1_555
H21 C18 1_555 1_555
C19 C18 1_555 1_555
H22 C19 1_555 1_555
C20 O2 1_555 1_555
C21 P1 1_555 1_555
C22 C21 1_555 1_555
H23 C22 1_555 1_555
C23 C22 1_555 1_555
H24 C23 1_555 1_555
C24 C23 1_555 1_555
C25 C24 1_555 1_555
H25 C25 1_555 1_555
C26 C21 1_555 1_555
H26 C26 1_555 1_555
C27 C24 1_555 1_555
H27 C27 1_555 1_555
H28 C27 1_555 1_555
H29 C27 1_555 1_555
C28 O6 1_555 1_555
H30 C28 1_555 1_555
H31 C28 1_555 1_555
H32 C28 1_555 1_555
Br1 C4 1_555 1_555
Br2 C17 1_555 1_555
Mn1_2 O4 1_555 1_555
O4_2 Mn1 1_555 1_555
C5 C6 1_555 1_555
C6 C7 1_555 1_555
C8 C13 1_555 1_555
C12 C13 1_555 1_555
C15 C20 1_555 1_555
C19 C20 1_555 1_555
C25 C26 1_555 1_555

#END
