
#######################################################################
#
#                 Cambridge Crystallographic Data Centre
#                                CCDC 
#
#######################################################################
#
# If this CIF has been generated from an entry in the Cambridge 
# Structural Database, then it will include bibliographic, chemical, 
# crystal, experimental, refinement or atomic coordinate data resulting 
# from the CCDC's data processing and validation procedures.
#
#######################################################################

data_TEVCAA
_symmetry_cell_setting           monoclinic
_symmetry_space_group_name_H-M   'P 21'
_symmetry_Int_Tables_number      4
_space_group_name_Hall           'P 2yb'
loop_
_symmetry_equiv_pos_site_id
_symmetry_equiv_pos_as_xyz
1 x,y,z
2 -x,1/2+y,-z
_cell_length_a                   6.9095(17)
_cell_length_b                   15.6772(13)
_cell_length_c                   13.5492(15)
_cell_angle_alpha                90
_cell_angle_beta                 98.441(3)
_cell_angle_gamma                90
_cell_volume                     1451.77
loop_
_atom_site_label
_atom_site_type_symbol
_atom_site_fract_x
_atom_site_fract_y
_atom_site_fract_z
Mn1 Mn 0.28763(14) 0.33252(7) 0.90648(8)
P1 P -0.2178(3) 0.36936(12) 0.86731(12)
O1 O 0.2596(7) 0.4412(3) 0.8482(3)
O2 O 0.3180(7) 0.3755(3) 1.0388(4)
O3 O -0.0411(7) 0.3232(3) 0.9096(4)
O4 O -0.2079(8) 0.4659(4) 0.8922(4)
H1 H -0.1041 0.4763 0.8677
O5 O -0.4038(6) 0.3327(3) 0.8915(3)
N1 N 0.3162(9) 0.2129(4) 0.9536(4)
N2 N 0.2355(8) 0.2749(4) 0.7725(4)
C1 C 0.2829(11) 0.4627(5) 0.7571(6)
C2 C 0.3104(12) 0.5497(6) 0.7349(5)
H2 H 0.3253 0.5892 0.7867
C3 C 0.3160(12) 0.5778(5) 0.6380(5)
H3 H 0.3215 0.6358 0.6241
C4 C 0.3131(10) 0.5181(5) 0.5626(6)
C5 C 0.2870(11) 0.4343(5) 0.5830(5)
H4 H 0.2776 0.3961 0.5299
C6 C 0.2736(10) 0.4017(5) 0.6753(5)
C7 C 0.2406(11) 0.3129(5) 0.6896(5)
H5 H 0.2208 0.2792 0.6325
C8 C 0.1977(9) 0.1835(5) 0.7823(5)
H6 H 0.0669 0.1762 0.8009
C9 C 0.2115(11) 0.1299(4) 0.6888(5)
H7 H 0.3368 0.1395 0.6665
H8 H 0.1090 0.1467 0.6356
C10 C 0.1894(12) 0.0346(4) 0.7138(5)
H9 H 0.0601 0.0249 0.7314
H10 H 0.2014 0.0006 0.6552
C11 C 0.3382(11) 0.0067(4) 0.7970(5)
H11 H 0.4671 0.0113 0.7772
H12 H 0.3161 -0.0527 0.8120
C12 C 0.3309(11) 0.0593(5) 0.8884(6)
H13 H 0.4353 0.0413 0.9400
H14 H 0.2076 0.0489 0.9125
C13 C 0.3510(10) 0.1537(5) 0.8706(5)
H15 H 0.4820 0.1647 0.8539
C14 C 0.3131(10) 0.1865(6) 1.0460(6)
H16 H 0.3292 0.1285 1.0593
C15 C 0.2870(11) 0.2411(6) 1.1255(6)
C16 C 0.2523(10) 0.2015(5) 1.2146(6)
H17 H 0.2461 0.1424 1.2180
C17 C 0.2273(10) 0.2500(4) 1.2973(5)
C18 C 0.2173(10) 0.3390(5) 1.2934(5)
H18 H 0.1991 0.3711 1.3490
C19 C 0.2357(10) 0.3772(4) 1.2039(4)
H19 H 0.2158 0.4358 1.1979
C20 C 0.2835(11) 0.3316(5) 1.1195(5)
C21 C -0.2264(13) 0.3721(5) 0.7328(5)
C22 C -0.2028(10) 0.4461(4) 0.6751(5)
H20 H -0.1754 0.4971 0.7094
C23 C -0.2169(10) 0.4487(5) 0.5742(6)
H21 H -0.2083 0.4996 0.5398
C24 C -0.2461(12) 0.3677(5) 0.5233(6)
H22 H -0.2496 0.3658 0.4545
C25 C -0.2692(14) 0.2923(5) 0.5752(6)
H23 H -0.2897 0.2404 0.5421
C26 C -0.2607(11) 0.2975(5) 0.6746(5)
Br1 Br 0.34115(11) 0.55241(4) 0.43139(5)
Br2 Br 0.18952(12) 0.19448(5) 1.41786(5)
F1 F -0.2893(7) 0.2231(3) 0.7259(3)
Mn1_2 Mn -0.71237(14) 0.33252(7) 0.90648(8)
O5_2 O 0.5962(6) 0.3327(3) 0.8915(3)
O6 O 0.0958(14) 0.5353(8) 0.0129(6)
H24 H 0.1454 0.5320 -0.0409
H25 H 0.1212 0.4964 0.0565
O7 O 0.842(3) 0.1486(17) 0.0490(16)
H26 H 0.7755 0.1862 0.0138
H27 H 0.8730 0.1670 0.1082
H28? H 0.7291 0.2442 0.1707
H29? H 0.7078 0.2692 0.0716
O8? O 0.790(3) 0.2580(14) 0.1229(18)
loop_
_geom_bond_atom_site_label_1
_geom_bond_atom_site_label_2
_geom_bond_site_symmetry_1
_geom_bond_site_symmetry_2
Mn1 O1 1_555 1_555
P1 O3 1_555 1_555
O1 C1 1_555 1_555
O2 Mn1 1_555 1_555
O3 Mn1 1_555 1_555
O4 P1 1_555 1_555
H1 O4 1_555 1_555
O5 P1 1_555 1_555
N1 Mn1 1_555 1_555
N2 Mn1 1_555 1_555
C1 C2 1_555 1_555
C2 H2 1_555 1_555
C3 C2 1_555 1_555
H3 C3 1_555 1_555
C4 C3 1_555 1_555
C5 C4 1_555 1_555
H4 C5 1_555 1_555
C6 C1 1_555 1_555
C7 N2 1_555 1_555
H5 C7 1_555 1_555
C8 N2 1_555 1_555
H6 C8 1_555 1_555
C9 C8 1_555 1_555
H7 C9 1_555 1_555
H8 C9 1_555 1_555
C10 C9 1_555 1_555
H9 C10 1_555 1_555
H10 C10 1_555 1_555
C11 C10 1_555 1_555
H11 C11 1_555 1_555
H12 C11 1_555 1_555
C12 C11 1_555 1_555
H13 C12 1_555 1_555
H14 C12 1_555 1_555
C13 N1 1_555 1_555
H15 C13 1_555 1_555
C14 N1 1_555 1_555
H16 C14 1_555 1_555
C15 C14 1_555 1_555
C16 C15 1_555 1_555
H17 C16 1_555 1_555
C17 C16 1_555 1_555
C18 C17 1_555 1_555
H18 C18 1_555 1_555
C19 C18 1_555 1_555
H19 C19 1_555 1_555
C20 O2 1_555 1_555
C21 P1 1_555 1_555
C22 C21 1_555 1_555
H20 C22 1_555 1_555
C23 C22 1_555 1_555
H21 C23 1_555 1_555
C24 C23 1_555 1_555
H22 C24 1_555 1_555
C25 C24 1_555 1_555
H23 C25 1_555 1_555
C26 C21 1_555 1_555
Br1 C4 1_555 1_555
Br2 C17 1_555 1_555
F1 C26 1_555 1_555
O6 H24 1_555 1_555
H25 O6 1_555 1_555
O7 H26 1_555 1_555
H27 O7 1_555 1_555
Mn1_2 O5 1_555 1_555
O5_2 Mn1 1_555 1_555
C5 C6 1_555 1_555
C6 C7 1_555 1_555
C8 C13 1_555 1_555
C12 C13 1_555 1_555
C15 C20 1_555 1_555
C19 C20 1_555 1_555
C25 C26 1_555 1_555

#END
