
#######################################################################
#
#                 Cambridge Crystallographic Data Centre
#                                CCDC 
#
#######################################################################
#
# If this CIF has been generated from an entry in the Cambridge 
# Structural Database, then it will include bibliographic, chemical, 
# crystal, experimental, refinement or atomic coordinate data resulting 
# from the CCDC's data processing and validation procedures.
#
#######################################################################

data_TEVFAD01
_symmetry_cell_setting           triclinic
_symmetry_space_group_name_H-M   'P -1'
_symmetry_Int_Tables_number      2
_space_group_name_Hall           '-P 1'
loop_
_symmetry_equiv_pos_site_id
_symmetry_equiv_pos_as_xyz
1 x,y,z
2 -x,-y,-z
_cell_length_a                   10.3320(9)
_cell_length_b                   13.7920(11)
_cell_length_c                   17.3310(14)
_cell_angle_alpha                70.708(7)
_cell_angle_beta                 88.355(7)
_cell_angle_gamma                87.483(7)
_cell_volume                     2328.46
loop_
_atom_site_label
_atom_site_type_symbol
_atom_site_fract_x
_atom_site_fract_y
_atom_site_fract_z
Zn1 Zn 0.72801(7) 0.25007(7) 0.50817(5)
Zn2 Zn 0.56806(7) 0.17860(6) 0.37224(4)
Zn3 Zn 0.38065(7) 0.14920(6) 0.24617(5)
Zn4 Zn 0.55098(7) 0.04300(6) 0.56625(4)
Zn5 Zn -0.25746(7) 0.08446(7) 0.70936(5)
C1 C 0.3477(6) 0.1469(5) 0.7453(4)
C2 C 0.2295(6) 0.1192(5) 0.7223(4)
H1 H 0.2295 0.0817 0.6865
C3 C 0.1133(6) 0.1468(5) 0.7521(4)
C4 C 0.1136(6) 0.2047(6) 0.8055(4)
H2 H 0.0359 0.2253 0.8249
C5 C 0.2307(6) 0.2306(6) 0.8289(4)
C6 C 0.3459(6) 0.2036(6) 0.7984(4)
H3 H 0.4235 0.2236 0.8134
C7 C 0.4718(6) 0.1155(5) 0.7141(4)
C8 C -0.0126(6) 0.1168(6) 0.7259(4)
C9 C 0.3423(7) 0.3169(7) 0.9031(5)
H4 H 0.3820 0.3639 0.8545
H5 H 0.4006 0.2573 0.9241
C10 C 0.3206(7) 0.3689(6) 0.9666(4)
C11 C 0.2091(7) 0.4213(6) 0.9770(4)
H6 H 0.1374 0.4238 0.9451
C12 C 0.2036(7) 0.4707(6) 1.0356(4)
H7 H 0.1290 0.5088 1.0404
C13 C 0.3053(7) 0.4645(5) 1.0862(4)
C14 C 0.4183(7) 0.4119(6) 1.0731(4)
H8 H 0.4906 0.4099 1.1044
C15 C 0.4260(7) 0.3637(6) 1.0163(4)
H9 H 0.5015 0.3272 1.0105
C16 C 0.3009(6) 0.5130(5) 1.1520(4)
C17 C 0.2618(8) 0.6157(6) 1.1319(5)
H10 H 0.2330 0.6510 1.0794
C18 C 0.2646(10) 0.6665(7) 1.1883(6)
H11 H 0.2390 0.7356 1.1737
C19 C 0.3059(10) 0.6136(8) 1.2665(6)
H12 H 0.3034 0.6458 1.3060
C20 C 0.3505(9) 0.5138(7) 1.2859(5)
H13 H 0.3833 0.4800 1.3377
C21 C 0.3477(6) 0.4616(5) 1.2293(4)
C22 C 0.3857(6) 0.3490(6) 1.2579(4)
C23 C 1.3370(6) 0.3164(5) 0.5353(4)
C24 C 1.2242(6) 0.2818(5) 0.5127(4)
H14 H 1.2296 0.2363 0.4832
C25 C 1.1060(6) 0.3142(5) 0.5335(4)
C26 C 1.0966(6) 0.3815(5) 0.5775(4)
H15 H 1.0155 0.4041 0.5906
C27 C 1.2070(6) 0.4153(5) 0.6021(4)
C28 C 1.3272(6) 0.3832(6) 0.5803(4)
H16 H 1.4019 0.4066 0.5959
C29 C 1.4673(6) 0.2735(5) 0.5181(4)
C30 C 0.9822(7) 0.2753(6) 0.5116(4)
C31 C 1.0873(7) 0.4957(6) 0.6836(5)
H17 H 1.0543 0.4304 0.7177
H18 H 1.0248 0.5278 0.6412
C32 C 1.1046(7) 0.5634(6) 0.7342(4)
C33 C 0.9978(7) 0.6181(7) 0.7514(6)
H19 H 0.9175 0.6125 0.7306
C34 C 1.0081(7) 0.6796(7) 0.7980(6)
H20 H 0.9339 0.7113 0.8117
C35 C 1.1290(7) 0.6962(6) 0.8259(4)
C36 C 1.2320(7) 0.6390(6) 0.8113(4)
H21 H 1.3125 0.6444 0.8319
C37 C 1.2202(7) 0.5726(6) 0.7665(4)
H22 H 1.2923 0.5341 0.7585
C38 C 1.1398(7) 0.7698(6) 0.8713(4)
C39 C 1.0463(8) 0.7746(7) 0.9278(5)
H23 H 0.9762 0.7320 0.9364
C40 C 1.0528(9) 0.8405(9) 0.9724(6)
H24 H 0.9880 0.8417 1.0104
C41 C 1.1533(10) 0.9032(7) 0.9607(5)
H25 H 1.1567 0.9489 0.9898
C42 C 1.2499(8) 0.8995(6) 0.9062(5)
H26 H 1.3217 0.9396 0.9011
C43 C 1.2429(7) 0.8372(6) 0.8583(4)
C44 C 1.3486(7) 0.8430(5) 0.7959(4)
O1 O 0.5755(4) 0.1400(4) 0.7380(3)
O2 O 0.4648(4) 0.0669(4) 0.6666(3)
O3 O -0.0103(5) 0.0635(5) 0.6800(4)
O4 O -0.1166(4) 0.1459(4) 0.7515(3)
O5 O 0.2228(4) 0.2858(5) 0.8829(3)
O6 O 0.3143(4) 0.2903(4) 1.2357(3)
O7 O 0.4851(4) 0.3191(4) 1.3004(3)
O8 O 0.8783(4) 0.3131(4) 0.5301(3)
O9 O 0.9887(5) 0.2078(5) 0.4780(4)
O10 O 1.4711(4) 0.1981(4) 0.4919(3)
O11 O 1.5658(4) 0.3139(4) 0.5341(3)
O12 O 1.2062(4) 0.4792(4) 0.6478(3)
O13 O 1.3198(4) 0.8490(4) 0.7247(3)
O14 O 1.4632(5) 0.8440(4) 0.8202(3)
O15 O 0.7275(4) 0.1064(3) 0.5887(3)
O16 O 0.6124(4) 0.0331(3) 0.4568(3)
O17 O 0.7188(4) 0.2443(4) 0.3989(3)
O18 O 0.3998(4) 0.1058(3) 0.3654(2)
O19 O 0.2556(4) 0.0630(4) 0.2254(3)
Zn1_2 Zn 1.72801(7) 0.25007(7) 0.50817(5)
Zn2_2 Zn 0.56806(7) 0.17860(6) 1.37224(4)
Zn2_3 Zn 1.56806(7) 0.17860(6) 0.37224(4)
Zn2A Zn 1.43194(7) 0.82140(6) 0.62776(4)
Zn3_2 Zn 0.38065(7) 0.14920(6) 1.24617(5)
Zn3A Zn 1.61935(7) 0.85080(6) 0.75383(5)
Zn4_2 Zn 1.55098(7) 0.04300(6) 0.56625(4)
Zn4A Zn 0.44902(7) -0.04300(6) 0.43375(4)
Zn5_2 Zn 0.74254(7) 0.08446(7) 0.70936(5)
Zn5A Zn 0.25746(7) -0.08446(7) 0.29064(5)
O1_2 O -0.4245(4) 0.1400(4) 0.7380(3)
O6_2 O 0.3143(4) 0.2903(4) 0.2357(3)
O7_2 O 0.4851(4) 0.3191(4) 0.3004(3)
O10_2 O 0.4711(4) 0.1981(4) 0.4919(3)
O11_2 O 0.5658(4) 0.3139(4) 0.5341(3)
O13A O 0.6802(4) 0.1510(4) 0.2753(3)
O14A O 0.5368(5) 0.1560(4) 0.1798(3)
O15_2 O -0.2725(4) 0.1064(3) 0.5887(3)
O16A O 0.3876(4) -0.0331(3) 0.5432(3)
O18A O 0.6002(4) -0.1058(3) 0.6346(2)
O19A O -0.2556(4) -0.0630(4) 0.7746(3)
loop_
_geom_bond_atom_site_label_1
_geom_bond_atom_site_label_2
_geom_bond_site_symmetry_1
_geom_bond_site_symmetry_2
Zn1 O8 1_555 1_555
Zn2 O16 1_555 1_555
Zn3 O18 1_555 1_555
Zn4 O2 1_555 1_555
Zn5 O4 1_555 1_555
C1 C2 1_555 1_555
C2 H1 1_555 1_555
C3 C2 1_555 1_555
C4 C3 1_555 1_555
H2 C4 1_555 1_555
C5 C4 1_555 1_555
C6 C1 1_555 1_555
H3 C6 1_555 1_555
C7 C1 1_555 1_555
C8 C3 1_555 1_555
C9 H4 1_555 1_555
H5 C9 1_555 1_555
C10 C9 1_555 1_555
C11 C10 1_555 1_555
H6 C11 1_555 1_555
C12 C11 1_555 1_555
H7 C12 1_555 1_555
C13 C12 1_555 1_555
C14 C13 1_555 1_555
H8 C14 1_555 1_555
C15 C10 1_555 1_555
H9 C15 1_555 1_555
C16 C13 1_555 1_555
C17 C16 1_555 1_555
H10 C17 1_555 1_555
C18 C17 1_555 1_555
H11 C18 1_555 1_555
C19 C18 1_555 1_555
H12 C19 1_555 1_555
C20 C19 1_555 1_555
H13 C20 1_555 1_555
C21 C16 1_555 1_555
C22 C21 1_555 1_555
C23 C24 1_555 1_555
C24 H14 1_555 1_555
C25 C24 1_555 1_555
C26 C25 1_555 1_555
H15 C26 1_555 1_555
C27 C26 1_555 1_555
C28 C23 1_555 1_555
H16 C28 1_555 1_555
C29 C23 1_555 1_555
C30 C25 1_555 1_555
C31 H17 1_555 1_555
H18 C31 1_555 1_555
C32 C31 1_555 1_555
C33 C32 1_555 1_555
H19 C33 1_555 1_555
C34 C33 1_555 1_555
H20 C34 1_555 1_555
C35 C34 1_555 1_555
C36 C35 1_555 1_555
H21 C36 1_555 1_555
C37 C32 1_555 1_555
H22 C37 1_555 1_555
C38 C35 1_555 1_555
C39 C38 1_555 1_555
H23 C39 1_555 1_555
C40 C39 1_555 1_555
H24 C40 1_555 1_555
C41 C40 1_555 1_555
H25 C41 1_555 1_555
C42 C41 1_555 1_555
H26 C42 1_555 1_555
C43 C38 1_555 1_555
C44 C43 1_555 1_555
O1 C7 1_555 1_555
O2 C7 1_555 1_555
O3 C8 1_555 1_555
O4 C8 1_555 1_555
O5 C5 1_555 1_555
O6 C22 1_555 1_555
O7 C22 1_555 1_555
O8 C30 1_555 1_555
O9 C30 1_555 1_555
O10 C29 1_555 1_555
O11 C29 1_555 1_555
O12 C27 1_555 1_555
O13 C44 1_555 1_555
O14 C44 1_555 1_555
O15 Zn1 1_555 1_555
O16 Zn4 1_555 1_555
O17 Zn1 1_555 1_555
O18 Zn2 1_555 1_555
O19 Zn3 1_555 1_555
Zn1_2 O11 1_555 1_555
Zn2_2 O7 1_555 1_555
Zn2_3 O10 1_555 1_555
Zn2A O13 1_555 1_555
Zn3_2 O6 1_555 1_555
Zn3A O14 1_555 1_555
Zn4_2 O10 1_555 1_555
Zn4A O16 1_555 1_555
Zn5_2 O1 1_555 1_555
Zn5A O19 1_555 1_555
O1_2 Zn5 1_555 1_555
O6_2 Zn3 1_555 1_555
O7_2 Zn2 1_555 1_555
O10_2 Zn2 1_555 1_555
O11_2 Zn1 1_555 1_555
O13A Zn2 1_555 1_555
O14A Zn3 1_555 1_555
O15_2 Zn5 1_555 1_555
O16A Zn4 1_555 1_555
O18A Zn4 1_555 1_555
O19A Zn5 1_555 1_555
Zn2 O17 1_555 1_555
Zn4 O15 1_555 1_555
Zn4 O10_2 1_555 1_555
C5 C6 1_555 1_555
C9 O5 1_555 1_555
C14 C15 1_555 1_555
C20 C21 1_555 1_555
C27 C28 1_555 1_555
C31 O12 1_555 1_555
C36 C37 1_555 1_555
C42 C43 1_555 1_555
O15 Zn5_2 1_555 1_555
O18 Zn4A 1_555 1_555
Zn4A O16A 1_555 1_555

#END
