
#######################################################################
#
#                 Cambridge Crystallographic Data Centre
#                                CCDC 
#
#######################################################################
#
# If this CIF has been generated from an entry in the Cambridge 
# Structural Database, then it will include bibliographic, chemical, 
# crystal, experimental, refinement or atomic coordinate data resulting 
# from the CCDC's data processing and validation procedures.
#
#######################################################################

data_TEVFAD
_symmetry_cell_setting           triclinic
_symmetry_space_group_name_H-M   'P -1'
_symmetry_Int_Tables_number      2
_space_group_name_Hall           '-P 1'
loop_
_symmetry_equiv_pos_site_id
_symmetry_equiv_pos_as_xyz
1 x,y,z
2 -x,-y,-z
_cell_length_a                   10.3450(3)
_cell_length_b                   13.7360(5)
_cell_length_c                   17.5020(7)
_cell_angle_alpha                70.636(3)
_cell_angle_beta                 88.437(3)
_cell_angle_gamma                88.257(2)
_cell_volume                     2344.85
loop_
_atom_site_label
_atom_site_type_symbol
_atom_site_fract_x
_atom_site_fract_y
_atom_site_fract_z
Zn1 Zn 0.27369(7) -0.25336(5) -0.50611(4)
Zn2 Zn 0.57197(7) -0.82368(5) -0.62793(4)
Zn3 Zn 0.45350(6) -0.04513(5) -0.56411(4)
Zn4 Zn 0.38701(7) -0.85718(5) -0.75101(4)
Zn5 Zn 0.25986(6) -0.09168(5) -0.70554(4)
C1 C 0.6627(5) -0.3150(4) -0.5339(4)
C2 C 0.7757(5) -0.2835(4) -0.5094(3)
H1 H 0.7711 -0.2396 -0.4788
C3 C 0.8941(5) -0.3163(4) -0.5297(3)
C4 C 0.9020(6) -0.3816(5) -0.5749(4)
H2 H 0.9825 -0.4040 -0.5884
C5 C 0.7903(6) -0.4140(4) -0.6004(4)
C6 C 0.6712(6) -0.3827(5) -0.5785(4)
H3 H 0.5961 -0.4067 -0.5936
C7 C 0.5358(6) -0.2736(4) -0.5176(3)
C8 C 1.0176(6) -0.2784(5) -0.5072(4)
C9 C 0.9124(6) -0.4899(5) -0.6830(4)
H4 H 0.9733 -0.5245 -0.6408
H5 H 0.9470 -0.4235 -0.7145
C10 C 0.8946(6) -0.5539(5) -0.7368(4)
C11 C 1.0025(7) -0.6038(5) -0.7558(4)
H6 H 1.0831 -0.5945 -0.7373
C12 C 0.9915(6) -0.6682(5) -0.8026(4)
H7 H 1.0652 -0.6994 -0.8166
C13 C 0.8706(6) -0.6861(5) -0.8284(3)
C14 C 0.7657(6) -0.6327(5) -0.8109(4)
H8 H 0.6850 -0.6405 -0.8301
C15 C 0.7768(6) -0.5680(4) -0.7657(4)
H9 H 0.7037 -0.5335 -0.7547
C16 C 0.8598(6) -0.7602(5) -0.8733(4)
C17 C 0.9485(7) -0.7576(5) -0.9344(4)
H10 H 1.0141 -0.7097 -0.9460
C18 C 0.9429(7) -0.8232(6) -0.9781(4)
H11 H 1.0042 -0.8197 -1.0187
C19 C 0.8473(8) -0.8940(6) -0.9622(5)
H12 H 0.8445 -0.9401 -0.9908
C20 C 0.7556(7) -0.8966(5) -0.9035(4)
H13 H 0.6879 -0.9423 -0.8948
C21 C 0.7615(6) -0.8326(5) -0.8569(4)
C22 C 0.6603(6) -0.8436(5) -0.7918(4)
C23 C 0.1144(6) -0.8494(4) -1.2519(4)
C24 C 0.1152(6) -0.7946(5) -1.1985(4)
H14 H 0.0376 -0.7759 -1.1785
C25 C 0.2319(6) -0.7675(5) -1.1746(4)
C26 C 0.3471(6) -0.7949(4) -1.2041(4)
H15 H 0.4251 -0.7763 -1.1883
C27 C 0.3466(5) -0.8508(4) -1.2581(3)
C28 C 0.2301(6) -0.8785(4) -1.2798(4)
H16 H 0.2293 -0.9177 -1.3141
C29 C 0.4714(6) -0.8810(5) -1.2890(3)
C30 C -0.0119(6) -0.8790(5) -1.2787(4)
C31 C 0.3444(6) -0.6846(5) -1.0983(4)
H17 H 0.3861 -0.6369 -1.1457
H18 H 0.4005 -0.7451 -1.0780
C32 C 0.3256(6) -0.6338(5) -1.0340(4)
C33 C 0.2166(6) -0.5787(5) -1.0259(4)
H19 H 0.1475 -0.5725 -1.0603
C34 C 0.2089(6) -0.5321(5) -0.9667(4)
H20 H 0.1341 -0.4954 -0.9614
C35 C 0.3101(6) -0.5394(4) -0.9156(4)
C36 C 0.4204(6) -0.5940(5) -0.9261(4)
H21 H 0.4909 -0.5981 -0.8932
C37 C 0.4292(6) -0.6421(5) -0.9833(4)
H22 H 0.5034 -0.6797 -0.9880
C38 C 0.3056(6) -0.4909(4) -0.8509(4)
C39 C 0.2632(7) -0.3883(5) -0.8691(4)
H23 H 0.2340 -0.3524 -0.9209
C40 C 0.2636(8) -0.3396(6) -0.8123(5)
H24 H 0.2345 -0.2714 -0.8256
C41 C 0.3069(9) -0.3915(6) -0.7356(5)
H25 H 0.3068 -0.3583 -0.6972
C42 C 0.3509(7) -0.4935(5) -0.7152(4)
H26 H 0.3821 -0.5285 -0.6637
C43 C 0.3473(6) -0.5422(5) -0.7734(4)
C44 C 0.3879(6) -0.6557(5) -0.7445(4)
C45 C 0.2176(11) -0.9159(8) -0.8540(7)
H27 H 0.1360 -0.9487 -0.8542
H28 H 0.2020 -0.8418 -0.8745
C46 C 0.3133(14) -0.9455(11) -0.9115(7)
H29 H 0.2782 -0.9244 -0.9649
H30 H 0.3937 -0.9118 -0.9130
H31 H 0.3278 -1.0190 -0.8926
O1 O 0.4359(4) -0.3157(3) -0.5321(3)
O2 O 0.5314(4) -0.1972(3) -0.4922(2)
O3 O 1.0143(4) -0.2119(3) -0.4729(3)
O4 O 1.1208(4) -0.3168(3) -0.5262(3)
O5 O 0.7918(4) -0.4758(3) -0.6477(3)
O6 O 0.6904(4) -0.8491(3) -0.7215(2)
O7 O 0.5444(4) -0.8452(3) -0.8152(2)
O8 O -0.0091(4) -0.9331(4) -1.3236(3)
O9 O -0.1169(4) -0.8474(3) -1.2550(3)
O10 O 0.4662(4) -0.9344(3) -1.3339(3)
O11 O 0.5748(4) -0.8493(3) -1.2693(2)
O12 O 0.2240(4) -0.7141(4) -1.1206(3)
O13 O 0.3152(4) -0.7165(3) -0.7646(2)
O14 O 0.4868(4) -0.6829(3) -0.7029(2)
O15 O 0.2854(4) -0.2523(3) -0.3962(2)
O16 O 0.2760(4) -0.1103(3) -0.5880(3)
O17 O 0.6131(4) -0.9654(3) -0.5437(2)
O18 O 0.4023(4) -0.8962(3) -0.6337(2)
O19 O 0.2607(4) -0.9444(3) -0.7709(2)
H32 H 0.228(6) -0.084(5) -0.574(4)
Zn1_2 Zn 1.27369(7) -0.25336(5) -0.50611(4)
Zn2A Zn 0.42803(7) -0.17632(5) -0.37207(4)
Zn3A Zn 0.54650(6) -0.95487(5) -1.43589(4)
Zn3_2 Zn 0.45350(6) -1.04513(5) -0.56411(4)
Zn3A_2 Zn 0.54650(6) -0.95487(5) -0.43589(4)
Zn5A Zn -0.25986(6) -0.90832(5) -1.29446(4)
Zn5A_2 Zn 0.74014(6) -0.90832(5) -1.29446(4)
Zn5_2 Zn 0.25986(6) -1.09168(5) -0.70554(4)
O4_2 O 0.1208(4) -0.3168(3) -0.5262(3)
O9A O 0.1169(4) -0.1526(3) -0.7450(3)
O10A O 0.5338(4) -0.0656(3) -0.6661(3)
O11A O 0.4252(4) -0.1507(3) -0.7307(2)
O15A O 0.7146(4) -0.7477(3) -0.6038(2)
O17_2 O 0.6131(4) 0.0346(3) -0.5437(2)
O17A O 0.3869(4) -0.0346(3) -0.4563(2)
O18_2 O 0.4023(4) 0.1038(3) -0.6337(2)
O19_2 O 0.2607(4) 0.0556(3) -0.7709(2)
Na1 Na 0.1088(3) -0.1646(2) -0.36814(17)
O20 O 0.1215(4) 0.0194(3) -0.4464(3)
O21 O -0.1015(5) -0.1291(4) -0.3393(4)
loop_
_geom_bond_atom_site_label_1
_geom_bond_atom_site_label_2
_geom_bond_site_symmetry_1
_geom_bond_site_symmetry_2
Zn1 O1 1_555 1_555
Zn2 O6 1_555 1_555
Zn3 O2 1_555 1_555
Zn4 O7 1_555 1_555
Zn5 O16 1_555 1_555
C1 C2 1_555 1_555
C2 H1 1_555 1_555
C3 C2 1_555 1_555
C4 C3 1_555 1_555
H2 C4 1_555 1_555
C5 C4 1_555 1_555
C6 C1 1_555 1_555
H3 C6 1_555 1_555
C7 C1 1_555 1_555
C8 C3 1_555 1_555
C9 H4 1_555 1_555
H5 C9 1_555 1_555
C10 C9 1_555 1_555
C11 C10 1_555 1_555
H6 C11 1_555 1_555
C12 C11 1_555 1_555
H7 C12 1_555 1_555
C13 C12 1_555 1_555
C14 C13 1_555 1_555
H8 C14 1_555 1_555
C15 C10 1_555 1_555
H9 C15 1_555 1_555
C16 C13 1_555 1_555
C17 C16 1_555 1_555
H10 C17 1_555 1_555
C18 C17 1_555 1_555
H11 C18 1_555 1_555
C19 C18 1_555 1_555
H12 C19 1_555 1_555
C20 C19 1_555 1_555
H13 C20 1_555 1_555
C21 C16 1_555 1_555
C22 C21 1_555 1_555
C23 C24 1_555 1_555
C24 H14 1_555 1_555
C25 C24 1_555 1_555
C26 C25 1_555 1_555
H15 C26 1_555 1_555
C27 C26 1_555 1_555
C28 C23 1_555 1_555
H16 C28 1_555 1_555
C29 C27 1_555 1_555
C30 C23 1_555 1_555
C31 H17 1_555 1_555
H18 C31 1_555 1_555
C32 C31 1_555 1_555
C33 C32 1_555 1_555
H19 C33 1_555 1_555
C34 C33 1_555 1_555
H20 C34 1_555 1_555
C35 C34 1_555 1_555
C36 C35 1_555 1_555
H21 C36 1_555 1_555
C37 C32 1_555 1_555
H22 C37 1_555 1_555
C38 C35 1_555 1_555
C39 C38 1_555 1_555
H23 C39 1_555 1_555
C40 C39 1_555 1_555
H24 C40 1_555 1_555
C41 C40 1_555 1_555
H25 C41 1_555 1_555
C42 C41 1_555 1_555
H26 C42 1_555 1_555
C43 C38 1_555 1_555
C44 C43 1_555 1_555
C45 H27 1_555 1_555
H28 C45 1_555 1_555
C46 C45 1_555 1_555
H29 C46 1_555 1_555
H30 C46 1_555 1_555
H31 C46 1_555 1_555
O1 C7 1_555 1_555
O2 C7 1_555 1_555
O3 C8 1_555 1_555
O4 C8 1_555 1_555
O5 C5 1_555 1_555
O6 C22 1_555 1_555
O7 C22 1_555 1_555
O8 C30 1_555 1_555
O9 C30 1_555 1_555
O10 C29 1_555 1_555
O11 C29 1_555 1_555
O12 C25 1_555 1_555
O13 Zn4 1_555 1_555
O14 Zn2 1_555 1_555
O15 Zn1 1_555 1_555
O16 Zn1 1_555 1_555
O17 Zn2 1_555 1_555
O18 Zn2 1_555 1_555
O19 Zn4 1_555 1_555
H32 O16 1_555 1_555
Zn1_2 O4 1_555 1_555
Zn2A O15 1_555 1_555
Zn3A O10 1_555 1_555
Zn3_2 O17 1_555 1_555
Zn3A_2 O17 1_555 1_555
Zn5A O9 1_555 1_555
Zn5A_2 O11 1_555 1_555
Zn5_2 O19 1_555 1_555
O4_2 Zn1 1_555 1_555
O9A Zn5 1_555 1_555
O10A Zn3 1_555 1_555
O11A Zn5 1_555 1_555
O15A Zn2 1_555 1_555
O17_2 Zn3 1_555 1_555
O17A Zn3 1_555 1_555
O18_2 Zn3 1_555 1_555
O19_2 Zn5 1_555 1_555
Zn3 O16 1_555 1_555
Zn4 O18 1_555 1_555
C5 C6 1_555 1_555
C9 O5 1_555 1_555
C14 C15 1_555 1_555
C20 C21 1_555 1_555
C27 C28 1_555 1_555
C31 O12 1_555 1_555
C36 C37 1_555 1_555
C42 C43 1_555 1_555
C44 O13 1_555 1_555
C44 O14 1_555 1_555
C45 O19 1_555 1_555
O18 Zn3_2 1_555 1_555
Zn2A O17A 1_555 1_555

#END
