
#######################################################################
#
#                 Cambridge Crystallographic Data Centre
#                                CCDC 
#
#######################################################################
#
# If this CIF has been generated from an entry in the Cambridge 
# Structural Database, then it will include bibliographic, chemical, 
# crystal, experimental, refinement or atomic coordinate data resulting 
# from the CCDC's data processing and validation procedures.
#
#######################################################################

data_TEVMAJ
_symmetry_cell_setting           monoclinic
_symmetry_space_group_name_H-M   'P 21/n'
_symmetry_Int_Tables_number      14
_space_group_name_Hall           '-P 2yn'
loop_
_symmetry_equiv_pos_site_id
_symmetry_equiv_pos_as_xyz
1 x,y,z
2 1/2-x,1/2+y,1/2-z
3 -x,-y,-z
4 1/2+x,1/2-y,1/2+z
_cell_length_a                   7.1529(10)
_cell_length_b                   13.5737(18)
_cell_length_c                   9.1813(13)
_cell_angle_alpha                90
_cell_angle_beta                 107.797(2)
_cell_angle_gamma                90
_cell_volume                     848.766
loop_
_atom_site_label
_atom_site_type_symbol
_atom_site_fract_x
_atom_site_fract_y
_atom_site_fract_z
Cu1 Cu 1.14571(5) 1.06514(2) 0.84633(4)
O1 O 1.2706(3) 0.93690(13) 0.8961(2)
O2 O 1.2051(3) 0.77665(15) 0.8914(3)
O3 O 0.4989(3) 0.68547(14) 0.6587(2)
O4 O 0.2726(3) 0.80201(16) 0.5640(2)
N1 N 0.9025(3) 0.98495(16) 0.7869(2)
C1 C 0.9418(4) 0.8880(2) 0.7963(3)
C2 C 0.5638(4) 0.9484(2) 0.6771(3)
H1 H 0.4353 0.9709 0.6381
C3 C 1.1543(4) 0.8613(2) 0.8661(3)
C4 C 0.6040(4) 0.8486(2) 0.6842(3)
C5 C 0.4420(4) 0.7733(2) 0.6296(3)
C6 C 0.7973(4) 0.81844(19) 0.7451(3)
H2 H 0.8289 0.7518 0.7511
C7 C 0.7163(4) 1.0139(2) 0.7284(3)
H3 H 0.6886 1.0810 0.7222
O5 O 1.3958(3) 1.13083(15) 0.9108(3)
H4 H 1.4941 1.1063 0.9795
H5 H 1.3571 1.1861 0.9314
O6 O 1.1204(3) 1.08865(16) 0.5880(2)
H6 H 1.1768 1.1425 0.5899
H7 H 1.0004 1.0944 0.5459
Cu1A Cu 0.35429(5) 0.56514(2) 0.65367(4)
O3A O 1.0011(3) 1.18547(14) 0.8413(2)
loop_
_geom_bond_atom_site_label_1
_geom_bond_atom_site_label_2
_geom_bond_site_symmetry_1
_geom_bond_site_symmetry_2
Cu1 O1 1_555 1_555
O1 C3 1_555 1_555
O2 C3 1_555 1_555
O3 C5 1_555 1_555
O4 C5 1_555 1_555
N1 Cu1 1_555 1_555
C1 N1 1_555 1_555
C2 H1 1_555 1_555
C3 C1 1_555 1_555
C4 C2 1_555 1_555
C5 C4 1_555 1_555
C6 C1 1_555 1_555
H2 C6 1_555 1_555
C7 N1 1_555 1_555
H3 C7 1_555 1_555
O5 Cu1 1_555 1_555
H4 O5 1_555 1_555
H5 O5 1_555 1_555
O6 Cu1 1_555 1_555
H6 O6 1_555 1_555
H7 O6 1_555 1_555
Cu1A O3 1_555 1_555
O3A Cu1 1_555 1_555
C2 C7 1_555 1_555
C4 C6 1_555 1_555

#END
