
#######################################################################
#
#                 Cambridge Crystallographic Data Centre
#                                CCDC 
#
#######################################################################
#
# If this CIF has been generated from an entry in the Cambridge 
# Structural Database, then it will include bibliographic, chemical, 
# crystal, experimental, refinement or atomic coordinate data resulting 
# from the CCDC's data processing and validation procedures.
#
#######################################################################

data_TEVNUE
_symmetry_cell_setting           triclinic
_symmetry_space_group_name_H-M   'P -1'
_symmetry_Int_Tables_number      2
_space_group_name_Hall           '-P 1'
loop_
_symmetry_equiv_pos_site_id
_symmetry_equiv_pos_as_xyz
1 x,y,z
2 -x,-y,-z
_cell_length_a                   11.481(3)
_cell_length_b                   11.635(3)
_cell_length_c                   13.170(3)
_cell_angle_alpha                64.764(4)
_cell_angle_beta                 88.190(5)
_cell_angle_gamma                63.025(4)
_cell_volume                     1389.37
loop_
_atom_site_label
_atom_site_type_symbol
_atom_site_fract_x
_atom_site_fract_y
_atom_site_fract_z
Mn1 Mn 0.0000 0.0000 0.5000
N1 N 0.0658(3) 0.0837(3) 0.6064(3)
N2 N 0.1547(3) 0.1100(3) 0.7366(3)
N3 N 0.7507(3) -0.0745(4) 0.7583(3)
N4 N 0.8702(3) -0.0598(3) 0.6230(3)
N5 N 0.3172(3) 0.5451(3) 0.7156(3)
N6 N 0.1761(3) 0.7714(3) 0.5897(3)
C1 C 0.1298(4) 0.0207(4) 0.7128(3)
H1 H 0.1550 -0.0749 0.7655
C2 C 0.0485(5) 0.2231(5) 0.5604(4)
H2 H 0.0051 0.2954 0.4859
C3 C 0.1035(5) 0.2396(5) 0.6389(4)
H3 H 0.1060 0.3226 0.6284
C4 C 0.2144(4) 0.0778(4) 0.8493(3)
H4 H 0.2476 -0.0244 0.9016
H5 H 0.1458 0.1340 0.8795
C5 C 0.3282(4) 0.1122(4) 0.8443(3)
C6 C 0.4580(4) 0.0063(4) 0.8528(3)
C7 C 0.4800(5) -0.1384(4) 0.8655(4)
H6 H 0.4282 -0.1222 0.8003
H7 H 0.4530 -0.1853 0.9339
H8 H 0.5729 -0.1992 0.8705
C8 C 0.5630(4) 0.0368(4) 0.8480(3)
C9 C 0.7065(4) -0.0800(4) 0.8660(3)
H9 H 0.7655 -0.0689 0.9077
H10 H 0.7143 -0.1749 0.9129
C10 C 0.8543(4) -0.0579(4) 0.7212(3)
H11 H 0.9098 -0.0460 0.7613
C11 C 0.7678(6) -0.0782(7) 0.5954(5)
H12 H 0.7517 -0.0839 0.5294
C12 C 0.6944(6) -0.0866(7) 0.6764(5)
H13 H 0.6195 -0.0984 0.6768
C13 C 0.5390(4) 0.1741(4) 0.8317(3)
C14 C 0.6516(5) 0.2110(5) 0.8158(4)
H14 H 0.6165 0.3125 0.7638
H15 H 0.7167 0.1539 0.7851
H16 H 0.6928 0.1899 0.8884
C15 C 0.4111(4) 0.2757(4) 0.8288(3)
C16 C 0.3882(5) 0.4162(4) 0.8276(3)
H17 H 0.3370 0.4305 0.8853
H18 H 0.4738 0.4066 0.8479
C17 C 0.2156(4) 0.6738(4) 0.6983(3)
H19 H 0.1773 0.6921 0.7568
C18 C 0.2598(4) 0.6984(4) 0.5343(4)
H20 H 0.2570 0.7390 0.4558
C19 C 0.3450(5) 0.5610(5) 0.6100(4)
H21 H 0.4105 0.4900 0.5940
C20 C 0.3046(4) 0.2461(4) 0.8349(3)
C21 C 0.1655(4) 0.3611(5) 0.8293(4)
H22 H 0.1124 0.3154 0.8621
H23 H 0.1242 0.4317 0.7509
H24 H 0.1725 0.4083 0.8716
Mn1_2 Mn 1.0000 0.0000 0.5000
Mn1_3 Mn 0.0000 1.0000 0.5000
Mn1_4 Mn -1.0000 0.0000 0.5000
Mn1_5 Mn 0.0000 -1.0000 0.5000
N1A N -0.0658(3) -0.0837(3) 0.3936(3)
N2A N -0.1547(3) -0.1100(3) 0.2634(3)
N3A N -0.7507(3) 0.0745(4) 0.2417(3)
N4A N -0.8702(3) 0.0598(3) 0.3770(3)
N4_2 N -0.1298(3) -0.0598(3) 0.6230(3)
N4A_2 N 0.1298(3) 0.0598(3) 0.3770(3)
N5A N -0.3172(3) -0.5451(3) 0.2844(3)
N6A N -0.1761(3) -0.7714(3) 0.4103(3)
N6_2 N 0.1761(3) -0.2286(3) 0.5897(3)
N6A_2 N -0.1761(3) 0.2286(3) 0.4103(3)
C1A C -0.1298(4) -0.0207(4) 0.2872(3)
H1A H -0.1550 0.0749 0.2345
C2A C -0.0485(5) -0.2231(5) 0.4396(4)
H2A H -0.0051 -0.2954 0.5141
C3A C -0.1035(5) -0.2396(5) 0.3611(4)
H3A H -0.1060 -0.3226 0.3716
C4A C -0.2144(4) -0.0778(4) 0.1507(3)
H4A H -0.2476 0.0244 0.0984
H5A H -0.1458 -0.1340 0.1205
C5A C -0.3282(4) -0.1122(4) 0.1557(3)
C6A C -0.4580(4) -0.0063(4) 0.1472(3)
C7A C -0.4800(5) 0.1384(4) 0.1345(4)
H6A H -0.4282 0.1222 0.1997
H7A H -0.4530 0.1853 0.0661
H8A H -0.5729 0.1992 0.1295
C8A C -0.5630(4) -0.0368(4) 0.1520(3)
C9A C -0.7065(4) 0.0800(4) 0.1340(3)
H9A H -0.7655 0.0689 0.0923
H10A H -0.7143 0.1749 0.0871
C10A C -0.8543(4) 0.0579(4) 0.2788(3)
H11A H -0.9098 0.0460 0.2387
C11A C -0.7678(6) 0.0782(7) 0.4046(5)
H12A H -0.7517 0.0839 0.4706
C12A C -0.6944(6) 0.0866(7) 0.3236(5)
H13A H -0.6195 0.0984 0.3232
C13A C -0.5390(4) -0.1741(4) 0.1683(3)
C14A C -0.6516(5) -0.2110(5) 0.1842(4)
H14A H -0.6165 -0.3125 0.2362
H15A H -0.7167 -0.1539 0.2149
H16A H -0.6928 -0.1899 0.1116
C15A C -0.4111(4) -0.2757(4) 0.1712(3)
C16A C -0.3882(5) -0.4162(4) 0.1724(3)
H17A H -0.3370 -0.4305 0.1147
H18A H -0.4738 -0.4066 0.1521
C17A C -0.2156(4) -0.6738(4) 0.3017(3)
H19A H -0.1773 -0.6921 0.2432
C18A C -0.2598(4) -0.6984(4) 0.4657(4)
H20A H -0.2570 -0.7390 0.5442
C19A C -0.3450(5) -0.5610(5) 0.3900(4)
H21A H -0.4105 -0.4900 0.4060
C20A C -0.3046(4) -0.2461(4) 0.1651(3)
C21A C -0.1655(4) -0.3611(5) 0.1707(4)
H22A H -0.1124 -0.3154 0.1379
H23A H -0.1242 -0.4317 0.2491
H24A H -0.1725 -0.4083 0.1284
S1 S 0.1668(4) 0.6824(5) 0.0014(3)
O1 O 0.1382(9) 0.6071(9) -0.0461(7)
O2 O 0.2580(7) 0.7278(7) -0.0455(6)
O3 O 0.0442(6) 0.7976(9) 0.0000(7)
C22 C 0.2368(10) 0.5705(11) 0.1482(6)
C23 C 0.1726(10) 0.5962(12) 0.2306(7)
H25 H 0.0893 0.6782 0.2093
C24 C 0.2280(10) 0.5040(13) 0.3447(7)
H26 H 0.1829 0.5264 0.3992
C25 C 0.3489(12) 0.3791(14) 0.3799(10)
C26 C 0.4200(11) 0.3581(12) 0.2962(8)
H27 H 0.5059 0.2798 0.3181
C27 C 0.3655(10) 0.4513(10) 0.1813(7)
H28 H 0.4137 0.4351 0.1262
C28 C 0.4065(16) 0.2743(19) 0.5080(11)
H29 H 0.4926 0.1955 0.5174
H30 H 0.3479 0.2365 0.5407
H31 H 0.4151 0.3253 0.5459
O4 O 0.0746(9) 0.3892(9) 0.0925(8)
H32 H 0.1052 0.4310 0.0375
H33 H 0.0080 0.3905 0.0645
S2? S 0.2369(7) 0.6208(6) 0.0231(4)
O5? O 0.1178(14) 0.7539(14) 0.0021(18)
O6? O 0.3364(14) 0.6464(17) -0.0284(12)
O7? O 0.2025(10) 0.5372(10) -0.0114(8)
C29? C 0.2915(11) 0.5135(12) 0.1719(7)
C30? C 0.2071(12) 0.5380(15) 0.2454(8)
H34? H 0.1197 0.6138 0.2162
C31? C 0.2507(12) 0.4516(15) 0.3622(9)
H35? H 0.1924 0.4692 0.4111
C32? C 0.3790(14) 0.3402(17) 0.4066(10)
C33? C 0.4646(12) 0.3126(13) 0.3347(10)
H36? H 0.5511 0.2348 0.3646
C34? C 0.4228(11) 0.3993(11) 0.2194(8)
H37? H 0.4825 0.3824 0.1713
C35? C 0.428(2) 0.240(2) 0.5356(12)
H38? H 0.5191 0.1657 0.5501
H39? H 0.3735 0.1952 0.5636
H40? H 0.4236 0.2954 0.5739
O8? O 0.0408(9) 0.9912(11) 0.0824(9)
H41? H 0.0216 1.0720 0.0247
H42? H 0.0069 0.9493 0.0644
loop_
_geom_bond_atom_site_label_1
_geom_bond_atom_site_label_2
_geom_bond_site_symmetry_1
_geom_bond_site_symmetry_2
Mn1 N1 1_555 1_555
N1 C1 1_555 1_555
N2 C1 1_555 1_555
N3 C9 1_555 1_555
N4 C10 1_555 1_555
N5 C16 1_555 1_555
N6 C17 1_555 1_555
C1 H1 1_555 1_555
C2 N1 1_555 1_555
H2 C2 1_555 1_555
C3 N2 1_555 1_555
H3 C3 1_555 1_555
C4 N2 1_555 1_555
H4 C4 1_555 1_555
H5 C4 1_555 1_555
C5 C4 1_555 1_555
C6 C5 1_555 1_555
C7 C6 1_555 1_555
H6 C7 1_555 1_555
H7 C7 1_555 1_555
H8 C7 1_555 1_555
C8 C6 1_555 1_555
C9 C8 1_555 1_555
H9 C9 1_555 1_555
H10 C9 1_555 1_555
C10 N3 1_555 1_555
H11 C10 1_555 1_555
C11 N4 1_555 1_555
H12 C11 1_555 1_555
C12 N3 1_555 1_555
H13 C12 1_555 1_555
C13 C8 1_555 1_555
C14 C13 1_555 1_555
H14 C14 1_555 1_555
H15 C14 1_555 1_555
H16 C14 1_555 1_555
C15 C13 1_555 1_555
C16 C15 1_555 1_555
H17 C16 1_555 1_555
H18 C16 1_555 1_555
C17 N5 1_555 1_555
H19 C17 1_555 1_555
C18 N6 1_555 1_555
H20 C18 1_555 1_555
C19 N5 1_555 1_555
H21 C19 1_555 1_555
C20 C5 1_555 1_555
C21 C20 1_555 1_555
H22 C21 1_555 1_555
H23 C21 1_555 1_555
H24 C21 1_555 1_555
S1 O1 1_555 1_555
O2 S1 1_555 1_555
O3 S1 1_555 1_555
C22 S1 1_555 1_555
C23 C22 1_555 1_555
H25 C23 1_555 1_555
C24 C23 1_555 1_555
H26 C24 1_555 1_555
C25 C24 1_555 1_555
C26 C25 1_555 1_555
H27 C26 1_555 1_555
C27 C22 1_555 1_555
H28 C27 1_555 1_555
C28 C25 1_555 1_555
H29 C28 1_555 1_555
H30 C28 1_555 1_555
H31 C28 1_555 1_555
O4 H32 1_555 1_555
H33 O4 1_555 1_555
Mn1_2 N4 1_555 1_555
Mn1_3 N6 1_555 1_555
Mn1_4 N4A 1_555 1_555
Mn1_5 N6A 1_555 1_555
N1A Mn1 1_555 1_555
N2A C1A 1_555 1_555
N3A C9A 1_555 1_555
N4A C10A 1_555 1_555
N4_2 Mn1 1_555 1_555
N4A_2 Mn1 1_555 1_555
N5A C16A 1_555 1_555
N6A C17A 1_555 1_555
N6_2 Mn1 1_555 1_555
N6A_2 Mn1 1_555 1_555
C1A N1A 1_555 1_555
H1A C1A 1_555 1_555
C2A N1A 1_555 1_555
H2A C2A 1_555 1_555
C3A N2A 1_555 1_555
H3A C3A 1_555 1_555
C4A N2A 1_555 1_555
H4A C4A 1_555 1_555
H5A C4A 1_555 1_555
C5A C4A 1_555 1_555
C6A C5A 1_555 1_555
C7A C6A 1_555 1_555
H6A C7A 1_555 1_555
H7A C7A 1_555 1_555
H8A C7A 1_555 1_555
C8A C6A 1_555 1_555
C9A C8A 1_555 1_555
H9A C9A 1_555 1_555
H10A C9A 1_555 1_555
C10A N3A 1_555 1_555
H11A C10A 1_555 1_555
C11A N4A 1_555 1_555
H12A C11A 1_555 1_555
C12A N3A 1_555 1_555
H13A C12A 1_555 1_555
C13A C8A 1_555 1_555
C14A C13A 1_555 1_555
H14A C14A 1_555 1_555
H15A C14A 1_555 1_555
H16A C14A 1_555 1_555
C15A C13A 1_555 1_555
C16A C15A 1_555 1_555
H17A C16A 1_555 1_555
H18A C16A 1_555 1_555
C17A N5A 1_555 1_555
H19A C17A 1_555 1_555
C18A N6A 1_555 1_555
H20A C18A 1_555 1_555
C19A N5A 1_555 1_555
H21A C19A 1_555 1_555
C20A C5A 1_555 1_555
C21A C20A 1_555 1_555
H22A C21A 1_555 1_555
H23A C21A 1_555 1_555
H24A C21A 1_555 1_555
C2 C3 1_555 1_555
C11 C12 1_555 1_555
C15 C20 1_555 1_555
C18 C19 1_555 1_555
C26 C27 1_555 1_555
C2A C3A 1_555 1_555
C11A C12A 1_555 1_555
C15A C20A 1_555 1_555
C18A C19A 1_555 1_555

#END
