
#######################################################################
#
#                 Cambridge Crystallographic Data Centre
#                                CCDC 
#
#######################################################################
#
# If this CIF has been generated from an entry in the Cambridge 
# Structural Database, then it will include bibliographic, chemical, 
# crystal, experimental, refinement or atomic coordinate data resulting 
# from the CCDC's data processing and validation procedures.
#
#######################################################################

data_TEVQIU01
_symmetry_cell_setting           monoclinic
_symmetry_space_group_name_H-M   'C 2'
_symmetry_Int_Tables_number      5
_space_group_name_Hall           'C 2y'
loop_
_symmetry_equiv_pos_site_id
_symmetry_equiv_pos_as_xyz
1 x,y,z
2 -x,y,-z
3 1/2+x,1/2+y,z
4 1/2-x,1/2+y,-z
_cell_length_a                   16.732(2)
_cell_length_b                   11.200(1)
_cell_length_c                   11.929(2)
_cell_angle_alpha                90
_cell_angle_beta                 104.21(1)
_cell_angle_gamma                90
_cell_volume                     2167.08
loop_
_atom_site_label
_atom_site_type_symbol
_atom_site_fract_x
_atom_site_fract_y
_atom_site_fract_z
Cl1 Cl -0.0518(2) 0.0242(3) 0.2321(3)
Cl2 Cl 0.0141(2) -0.3210(4) 0.2536(5)
S1 S 0.1335(1) -0.0666(3) 0.1113(3)
S2 S 0.1314(2) -0.0654(4) 0.4856(3)
N1 N 0.00000 0.210(1) 0.00000
N2 N 0.00000 0.226(1) 0.50000
C1 C 0.1435(7) -0.214(1) 0.045(2)
C2 C 0.1352(8) -0.213(1) 0.556(2)
C3 C 0.0250(7) 0.271(1) 0.096(2)
C4 C 0.0255(8) 0.397(1) 0.097(2)
C5 C 0.00000 0.458(1) 0.00000
C6 C -0.0323(9) 0.286(1) 0.401(2)
C7 C -0.034(1) 0.408(2) 0.402(2)
C8 C 0.00000 0.469(2) 0.50000
C9 C 0.2259(7) -0.275(1) 0.096(2)
C10 C 0.2406(8) -0.297(1) 0.227(2)
C11 C 0.223(1) -0.395(1) 0.032(2)
C12 C 0.2981(7) -0.201(2) 0.076(2)
C13 C 0.2202(7) -0.246(1) 0.624(1)
C14 C 0.247(1) -0.158(2) 0.725(3)
C15 C 0.281(1) -0.250(2) 0.555(3)
C16 C 0.214(1) -0.368(2) 0.681(2)
H1 H 0.0428(7) 0.231(1) 0.166(2)
H2 H 0.0439(8) 0.437(1) 0.167(2)
H3 H 0.000 0.544(1) 0.000
H4 H -0.0531(9) 0.244(1) 0.333(2)
H5 H -0.059(1) 0.450(2) 0.334(2)
H6 H 0.000 0.555(2) 0.500
H7 H 0.0994(7) -0.266(1) 0.056(2)
H8 H 0.1370(7) -0.203(1) -0.037(2)
H9 H 0.0984(8) -0.212(1) 0.608(2)
H10 H 0.1155(8) -0.273(1) 0.498(2)
H11 H 0.2929(8) -0.335(1) 0.255(2)
H12 H 0.1975(8) -0.347(1) 0.241(2)
H13 H 0.2405(8) -0.222(1) 0.265(2)
H14 H 0.273(1) -0.437(1) 0.061(2)
H15 H 0.215(1) -0.381(1) -0.049(2)
H16 H 0.178(1) -0.442(1) 0.045(2)
H17 H 0.3489(7) -0.242(2) 0.109(2)
H18 H 0.2986(7) -0.124(2) 0.113(2)
H19 H 0.2921(7) -0.190(2) -0.005(2)
H20 H 0.206(1) -0.156(2) 0.769(3)
H21 H 0.253(1) -0.080(2) 0.695(3)
H22 H 0.299(1) -0.183(2) 0.774(3)
H23 H 0.334(1) -0.272(2) 0.604(3)
H24 H 0.285(1) -0.173(2) 0.521(3)
H25 H 0.265(1) -0.308(2) 0.495(3)
H26 H 0.174(1) -0.363(2) 0.726(2)
H27 H 0.267(1) -0.388(2) 0.731(2)
H28 H 0.198(1) -0.427(2) 0.622(2)
Hg1 Hg 0.00000 0.0003(2) 0.00000
Hg2 Hg 0.07965(3) -0.1218(2) 0.28032(5)
Hg3 Hg 0.00000 0.0176(2) 0.50000
C4A C -0.0255(8) 0.397(1) -0.097(2)
C3A C -0.0250(7) 0.271(1) -0.096(2)
H1A H -0.0428(7) 0.231(1) -0.166(2)
H2A H -0.0439(8) 0.437(1) -0.167(2)
C7A C 0.034(1) 0.408(2) 0.598(2)
C6A C 0.0323(9) 0.286(1) 0.599(2)
H4A H 0.0531(9) 0.244(1) 0.667(2)
H5A H 0.059(1) 0.450(2) 0.666(2)
Cl1A Cl 0.0518(2) 0.0242(3) -0.2321(3)
S1A S -0.1335(1) -0.0666(3) -0.1113(3)
C1A C -0.1435(7) -0.214(1) -0.045(2)
C9A C -0.2259(7) -0.275(1) -0.096(2)
C10A C -0.2406(8) -0.297(1) -0.227(2)
C11A C -0.223(1) -0.395(1) -0.032(2)
C12A C -0.2981(7) -0.201(2) -0.076(2)
H7A H -0.0994(7) -0.266(1) -0.056(2)
H8A H -0.1370(7) -0.203(1) 0.037(2)
H11A H -0.2929(8) -0.335(1) -0.255(2)
H12A H -0.1975(8) -0.347(1) -0.241(2)
H13A H -0.2405(8) -0.222(1) -0.265(2)
H14A H -0.273(1) -0.437(1) -0.061(2)
H15A H -0.215(1) -0.381(1) 0.049(2)
H16A H -0.178(1) -0.442(1) -0.045(2)
H17A H -0.3489(7) -0.242(2) -0.109(2)
H18A H -0.2986(7) -0.124(2) -0.113(2)
H19A H -0.2921(7) -0.190(2) 0.005(2)
Hg2A Hg -0.07965(3) -0.1218(2) -0.28032(5)
S2A S -0.1314(2) -0.0654(4) 0.5144(3)
C2A C -0.1352(8) -0.213(1) 0.444(2)
C13A C -0.2202(7) -0.246(1) 0.376(1)
C14A C -0.247(1) -0.158(2) 0.275(3)
C15A C -0.281(1) -0.250(2) 0.445(3)
C16A C -0.214(1) -0.368(2) 0.319(2)
H9A H -0.0984(8) -0.212(1) 0.392(2)
H10A H -0.1155(8) -0.273(1) 0.502(2)
H20A H -0.206(1) -0.156(2) 0.231(3)
H21A H -0.253(1) -0.080(2) 0.305(3)
H22A H -0.299(1) -0.183(2) 0.226(3)
H23A H -0.334(1) -0.272(2) 0.396(3)
H24A H -0.285(1) -0.173(2) 0.479(3)
H25A H -0.265(1) -0.308(2) 0.505(3)
H26A H -0.174(1) -0.363(2) 0.274(2)
H27A H -0.267(1) -0.388(2) 0.269(2)
H28A H -0.198(1) -0.427(2) 0.378(2)
Cl2A Cl -0.0141(2) -0.3210(4) -0.2536(5)
Cl1A_2 Cl 0.0518(2) 0.0242(3) 0.7679(3)
Hg3_2 Hg 0.00000 0.0176(2) -0.50000
S2A_2 S -0.1314(2) -0.0654(4) -0.4856(3)
Hg2A_2 Hg -0.07965(3) -0.1218(2) 0.71968(5)
loop_
_geom_bond_atom_site_label_1
_geom_bond_atom_site_label_2
_geom_bond_site_symmetry_1
_geom_bond_site_symmetry_2
Cl1 Hg1 1_555 1_555
Cl2 Hg2 1_555 1_555
S1 C1 1_555 1_555
S2 C2 1_555 1_555
N1 C3 1_555 1_555
N2 C6 1_555 1_555
C1 C9 1_555 1_555
C2 C13 1_555 1_555
C3 C4 1_555 1_555
C4 C5 1_555 1_555
C5 H3 1_555 1_555
C6 C7 1_555 1_555
C7 C8 1_555 1_555
C8 H6 1_555 1_555
C9 C10 1_555 1_555
C10 H11 1_555 1_555
C11 C9 1_555 1_555
C12 C9 1_555 1_555
C13 C14 1_555 1_555
C14 H20 1_555 1_555
C15 C13 1_555 1_555
C16 C13 1_555 1_555
H1 C3 1_555 1_555
H2 C4 1_555 1_555
H4 C6 1_555 1_555
H5 C7 1_555 1_555
H7 C1 1_555 1_555
H8 C1 1_555 1_555
H9 C2 1_555 1_555
H10 C2 1_555 1_555
H12 C10 1_555 1_555
H13 C10 1_555 1_555
H14 C11 1_555 1_555
H15 C11 1_555 1_555
H16 C11 1_555 1_555
H17 C12 1_555 1_555
H18 C12 1_555 1_555
H19 C12 1_555 1_555
H21 C14 1_555 1_555
H22 C14 1_555 1_555
H23 C15 1_555 1_555
H24 C15 1_555 1_555
H25 C15 1_555 1_555
H26 C16 1_555 1_555
H27 C16 1_555 1_555
H28 C16 1_555 1_555
Hg1 S1 1_555 1_555
Hg2 Cl1 1_555 1_555
Hg3 Cl1 1_555 1_555
C4A C5 1_555 1_555
C3A N1 1_555 1_555
H1A C3A 1_555 1_555
H2A C4A 1_555 1_555
C7A C8 1_555 1_555
C6A N2 1_555 1_555
H4A C6A 1_555 1_555
H5A C7A 1_555 1_555
Cl1A Hg1 1_555 1_555
S1A Hg1 1_555 1_555
C1A S1A 1_555 1_555
C9A C1A 1_555 1_555
C10A C9A 1_555 1_555
C11A C9A 1_555 1_555
C12A C9A 1_555 1_555
H7A C1A 1_555 1_555
H8A C1A 1_555 1_555
H11A C10A 1_555 1_555
H12A C10A 1_555 1_555
H13A C10A 1_555 1_555
H14A C11A 1_555 1_555
H15A C11A 1_555 1_555
H16A C11A 1_555 1_555
H17A C12A 1_555 1_555
H18A C12A 1_555 1_555
H19A C12A 1_555 1_555
Hg2A Cl1A 1_555 1_555
S2A Hg3 1_555 1_555
C2A S2A 1_555 1_555
C13A C2A 1_555 1_555
C14A C13A 1_555 1_555
C15A C13A 1_555 1_555
C16A C13A 1_555 1_555
H9A C2A 1_555 1_555
H10A C2A 1_555 1_555
H20A C14A 1_555 1_555
H21A C14A 1_555 1_555
H22A C14A 1_555 1_555
H23A C15A 1_555 1_555
H24A C15A 1_555 1_555
H25A C15A 1_555 1_555
H26A C16A 1_555 1_555
H27A C16A 1_555 1_555
H28A C16A 1_555 1_555
Cl2A Hg2A 1_555 1_555
Cl1A_2 Hg3 1_555 1_555
Hg3_2 Cl1A 1_555 1_555
S2A_2 Hg2A 1_555 1_555
Hg2A_2 S2A 1_555 1_555
S1 Hg2 1_555 1_555
S2 Hg2 1_555 1_555
S2 Hg3 1_555 1_555
N1 Hg1 1_555 1_555
N2 Hg3 1_555 1_555
C4A C3A 1_555 1_555
C7A C6A 1_555 1_555
S1A Hg2A 1_555 1_555
Cl1A_2 Hg2A_2 1_555 1_555
Hg3_2 S2A_2 1_555 1_555

#END
