
#######################################################################
#
#                 Cambridge Crystallographic Data Centre
#                                CCDC 
#
#######################################################################
#
# If this CIF has been generated from an entry in the Cambridge 
# Structural Database, then it will include bibliographic, chemical, 
# crystal, experimental, refinement or atomic coordinate data resulting 
# from the CCDC's data processing and validation procedures.
#
#######################################################################

data_TEVYUQ
_symmetry_cell_setting           monoclinic
_symmetry_space_group_name_H-M   'C 2/c'
_symmetry_Int_Tables_number      15
_space_group_name_Hall           '-C 2yn'
loop_
_symmetry_equiv_pos_site_id
_symmetry_equiv_pos_as_xyz
1 x,y,z
2 -x,y,1/2-z
3 1/2+x,1/2+y,z
4 1/2-x,1/2+y,1/2-z
5 -x,-y,-z
6 x,-y,1/2+z
7 1/2-x,1/2-y,-z
8 1/2+x,1/2-y,1/2+z
_cell_length_a                   22.2642(11)
_cell_length_b                   4.9415(3)
_cell_length_c                   22.2230(11)
_cell_angle_alpha                90
_cell_angle_beta                 97.5980(10)
_cell_angle_gamma                90
_cell_volume                     2423.48
loop_
_atom_site_label
_atom_site_type_symbol
_atom_site_fract_x
_atom_site_fract_y
_atom_site_fract_z
Pb1 Pb 0.5000 0.03031(3) 0.2500
O1 O 0.53590(8) 0.2754(4) 0.15642(8)
O2 O 0.57004(9) 0.3896(5) 0.25042(8)
N1 N 0.41215(13) -0.0486(5) 0.15158(13)
C1 C 0.42153(12) -0.2473(7) 0.11418(12)
H1 H 0.4591 -0.3366 0.1202
C2 C 0.37914(12) -0.3317(6) 0.06652(12)
H2 H 0.3884 -0.4731 0.0410
C3 C 0.32307(11) -0.2068(6) 0.05674(11)
C4 C 0.31263(17) 0.0034(5) 0.09615(18)
H3 H 0.2752 0.0942 0.0917
C5 C 0.35812(14) 0.0758(7) 0.14185(14)
H4 H 0.3508 0.2201 0.1675
C6 C 0.27765(11) -0.3008(6) 0.00736(12)
H5 H 0.2886 -0.4465 -0.0161
C7 C 0.56978(12) 0.4143(6) 0.19381(13)
C8 C 0.61184(11) 0.6219(6) 0.17245(12)
C9 C 0.65370(12) 0.7507(6) 0.21486(13)
H6 H 0.6560 0.7061 0.2562
C10 C 0.69189(19) 0.9446(7) 0.1960(2)
H7 H 0.7202 1.0319 0.2247
C11 C 0.6886(2) 1.0111(6) 0.1350(2)
H8 H 0.7147 1.1427 0.1223
C12 C 0.64675(16) 0.8832(8) 0.09302(15)
H9 H 0.6442 0.9289 0.0517
C13 C 0.60858(13) 0.6875(7) 0.11167(13)
H10 H 0.5805 0.5995 0.0829
N1F N 0.08785(13) -0.4514(5) -0.15158(13)
C1F C 0.07847(12) -0.2527(7) -0.11418(12)
H1F H 0.0409 -0.1634 -0.1202
C2F C 0.12086(12) -0.1683(6) -0.06652(12)
H2F H 0.1116 -0.0269 -0.0410
C3F C 0.17693(11) -0.2932(6) -0.05674(11)
C4F C 0.18737(17) -0.5034(5) -0.09615(18)
H3F H 0.2248 -0.5942 -0.0917
C5F C 0.14188(14) -0.5758(7) -0.14185(14)
H4F H 0.1492 -0.7201 -0.1675
C6F C 0.22235(11) -0.1992(6) -0.00736(12)
H5F H 0.2114 -0.0535 0.0161
O1A O 0.46410(8) 0.2754(4) 0.34358(8)
O2A O 0.42996(9) 0.3896(5) 0.24958(8)
C7A C 0.43022(12) 0.4143(6) 0.30619(13)
C8A C 0.38816(11) 0.6219(6) 0.32755(12)
C9A C 0.34630(12) 0.7507(6) 0.28514(13)
H6A H 0.3440 0.7061 0.2438
C10A C 0.30811(19) 0.9446(7) 0.3040(2)
H7A H 0.2798 1.0319 0.2753
C11A C 0.3114(2) 1.0111(6) 0.3650(2)
H8A H 0.2853 1.1427 0.3777
C12A C 0.35325(16) 0.8832(8) 0.40698(15)
H9A H 0.3558 0.9289 0.4483
C13A C 0.39142(13) 0.6875(7) 0.38833(13)
H10A H 0.4195 0.5995 0.4171
Pb1F Pb 0.0000 -0.53031(3) -0.2500
N1A N 0.58785(13) -0.0486(5) 0.34842(13)
O3 O 0.49127(14) 0.2480(6) 0.02836(10)
H11 H 0.497(4) 0.277(17) 0.0662(8)
H12 H 0.507(4) 0.395(10) 0.018(4)
H13? H 0.511(3) 0.22(2) 0.0628(17)
H14? H 0.505(4) 0.104(11) 0.015(5)
loop_
_geom_bond_atom_site_label_1
_geom_bond_atom_site_label_2
_geom_bond_site_symmetry_1
_geom_bond_site_symmetry_2
Pb1 O1 1_555 1_555
O1 C7 1_555 1_555
O2 Pb1 1_555 1_555
N1 Pb1 1_555 1_555
C1 N1 1_555 1_555
H1 C1 1_555 1_555
C2 C1 1_555 1_555
H2 C2 1_555 1_555
C3 C2 1_555 1_555
C4 C3 1_555 1_555
H3 C4 1_555 1_555
C5 N1 1_555 1_555
H4 C5 1_555 1_555
C6 C3 1_555 1_555
H5 C6 1_555 1_555
C7 O2 1_555 1_555
C8 C7 1_555 1_555
C9 C8 1_555 1_555
H6 C9 1_555 1_555
C10 C9 1_555 1_555
H7 C10 1_555 1_555
C11 C10 1_555 1_555
H8 C11 1_555 1_555
C12 C11 1_555 1_555
H9 C12 1_555 1_555
C13 C8 1_555 1_555
H10 C13 1_555 1_555
O3 H11 1_555 1_555
H12 O3 1_555 1_555
N1F C1F 1_555 1_555
C1F H1F 1_555 1_555
C2F C1F 1_555 1_555
H2F C2F 1_555 1_555
C3F C2F 1_555 1_555
C4F C3F 1_555 1_555
H3F C4F 1_555 1_555
C5F N1F 1_555 1_555
H4F C5F 1_555 1_555
C6F C6 1_555 1_555
H5F C6F 1_555 1_555
O1A Pb1 1_555 1_555
O2A Pb1 1_555 1_555
C7A O1A 1_555 1_555
C8A C7A 1_555 1_555
C9A C8A 1_555 1_555
H6A C9A 1_555 1_555
C10A C9A 1_555 1_555
H7A C10A 1_555 1_555
C11A C10A 1_555 1_555
H8A C11A 1_555 1_555
C12A C11A 1_555 1_555
H9A C12A 1_555 1_555
C13A C8A 1_555 1_555
H10A C13A 1_555 1_555
Pb1F N1F 1_555 1_555
N1A Pb1 1_555 1_555
C4 C5 1_555 1_555
C12 C13 1_555 1_555
C3F C6F 1_555 1_555
C4F C5F 1_555 1_555
O2A C7A 1_555 1_555
C12A C13A 1_555 1_555

#END
