
#######################################################################
#
#                 Cambridge Crystallographic Data Centre
#                                CCDC 
#
#######################################################################
#
# If this CIF has been generated from an entry in the Cambridge 
# Structural Database, then it will include bibliographic, chemical, 
# crystal, experimental, refinement or atomic coordinate data resulting 
# from the CCDC's data processing and validation procedures.
#
#######################################################################

data_TEWDIJ
_symmetry_cell_setting           orthorhombic
_symmetry_space_group_name_H-M   'P n a 21'
_symmetry_Int_Tables_number      33
_space_group_name_Hall           'P 2c -2n'
loop_
_symmetry_equiv_pos_site_id
_symmetry_equiv_pos_as_xyz
1 x,y,z
2 -x,-y,1/2+z
3 1/2-x,1/2+y,1/2+z
4 1/2+x,1/2-y,z
_cell_length_a                   20.4254(10)
_cell_length_b                   11.7365(8)
_cell_length_c                   6.0910(3)
_cell_angle_alpha                90
_cell_angle_beta                 90
_cell_angle_gamma                90
_cell_volume                     1460.15
loop_
_atom_site_label
_atom_site_type_symbol
_atom_site_fract_x
_atom_site_fract_y
_atom_site_fract_z
Co1 Co 0.39383(2) 0.04168(4) 0.50932(19)
O1 O 0.46283(15) 0.1821(3) 0.6246(8)
O2 O 0.32229(16) 0.0999(3) 0.7277(7)
O3 O 0.46643(15) 0.0402(3) 0.2901(7)
O4 O 0.32876(18) 0.1908(3) 0.4151(8)
O5 O 0.57208(15) 0.0748(3) 0.2303(7)
N1 N 0.16857(17) 0.4222(3) 0.8628(7)
C1 C 0.3056(2) 0.1798(5) 0.6055(10)
C2 C 0.19404(15) 0.4372(3) 0.6629(8)
H1 H 0.1813 0.5020 0.5798
C3 C 0.52243(15) 0.1828(3) 0.5010(8)
H2 H 0.5600 0.1692 0.6001
H3 H 0.5284 0.2579 0.4302
C4 C 0.2389(2) 0.3603(4) 0.5718(9)
H4 H 0.2562 0.3728 0.4290
C5 C 0.1874(2) 0.3317(4) 0.9788(9)
H5 H 0.1694 0.3208 1.1211
C6 C 0.2577(2) 0.2667(4) 0.6915(9)
C7 C 0.2322(2) 0.2525(4) 0.9002(10)
H6 H 0.2451 0.1896 0.9883
C8 C 0.5197(2) 0.0903(4) 0.3275(9)
C9 C 0.4452(2) 0.2813(4) 0.7330(10)
C10 C 0.4465(3) 0.3864(4) 0.6348(11)
H7 H 0.4640 0.3953 0.4913
C11 C 0.4204(2) 0.2680(5) 0.9402(10)
H8 H 0.4211 0.1950 1.0076
C12 C 0.3946(3) 0.3598(5) 1.0521(11)
H9 H 0.3765 0.3505 1.1947
C13 C 0.4216(3) 0.4805(5) 0.7493(16)
H10 H 0.4229 0.5543 0.6855
C14 C 0.3955(3) 0.4648(5) 0.9533(15)
Cl1 Cl 0.36051(10) 0.58098(16) 1.0898(6)
Co1A Co 0.60617(2) -0.04168(4) 0.00932(19)
Co1B Co 0.10617(2) 0.54168(4) 1.00932(19)
O5A O 0.42792(15) -0.0748(3) 0.7303(7)
N1B N 0.33143(17) -0.0778(3) 0.3628(7)
loop_
_geom_bond_atom_site_label_1
_geom_bond_atom_site_label_2
_geom_bond_site_symmetry_1
_geom_bond_site_symmetry_2
Co1 O1 1_555 1_555
O1 C3 1_555 1_555
O2 Co1 1_555 1_555
O3 Co1 1_555 1_555
O4 Co1 1_555 1_555
O5 C8 1_555 1_555
N1 C2 1_555 1_555
C1 O2 1_555 1_555
C2 H1 1_555 1_555
C3 H2 1_555 1_555
H3 C3 1_555 1_555
C4 C2 1_555 1_555
H4 C4 1_555 1_555
C5 N1 1_555 1_555
H5 C5 1_555 1_555
C6 C1 1_555 1_555
C7 C5 1_555 1_555
H6 C7 1_555 1_555
C8 O3 1_555 1_555
C9 O1 1_555 1_555
C10 C9 1_555 1_555
H7 C10 1_555 1_555
C11 C9 1_555 1_555
H8 C11 1_555 1_555
C12 C11 1_555 1_555
H9 C12 1_555 1_555
C13 C10 1_555 1_555
H10 C13 1_555 1_555
C14 C12 1_555 1_555
Cl1 C14 1_555 1_555
Co1A O5 1_555 1_555
Co1B N1 1_555 1_555
O5A Co1 1_555 1_555
N1B Co1 1_555 1_555
O4 C1 1_555 1_555
C3 C8 1_555 1_555
C4 C6 1_555 1_555
C6 C7 1_555 1_555
C13 C14 1_555 1_555

#END
