
#######################################################################
#
#                 Cambridge Crystallographic Data Centre
#                                CCDC 
#
#######################################################################
#
# If this CIF has been generated from an entry in the Cambridge 
# Structural Database, then it will include bibliographic, chemical, 
# crystal, experimental, refinement or atomic coordinate data resulting 
# from the CCDC's data processing and validation procedures.
#
#######################################################################

data_TEWFOS
_symmetry_cell_setting           orthorhombic
_symmetry_space_group_name_H-M   'I b c a'
_symmetry_Int_Tables_number      73
_space_group_name_Hall           '-I 2b 2c'
loop_
_symmetry_equiv_pos_site_id
_symmetry_equiv_pos_as_xyz
1 x,y,z
2 1/2-x,-y,1/2+z
3 -x,1/2+y,1/2-z
4 1/2+x,1/2-y,-z
5 1/2+x,1/2+y,1/2+z
6 -x,1/2-y,z
7 1/2-x,y,-z
8 x,-y,1/2-z
9 -x,-y,-z
10 1/2+x,y,1/2-z
11 x,1/2-y,1/2+z
12 1/2-x,1/2+y,z
13 1/2-x,1/2-y,1/2-z
14 x,1/2+y,-z
15 1/2+x,-y,z
16 -x,y,1/2+z
_cell_length_a                   14.7932(8)
_cell_length_b                   16.7885(7)
_cell_length_c                   27.7725(16)
_cell_angle_alpha                90
_cell_angle_beta                 90
_cell_angle_gamma                90
_cell_volume                     6897.46
loop_
_atom_site_label
_atom_site_type_symbol
_atom_site_fract_x
_atom_site_fract_y
_atom_site_fract_z
Cu1 Cu 0.2500 0.2500 0.2500
N1 N 0.4391(2) -0.05077(16) 0.38777(11)
O1 O 0.32461(18) 0.23776(14) 0.19270(10)
O2 O 0.30105(19) -0.06903(16) 0.42549(10)
C1 C 0.3802(3) -0.0515(2) 0.42698(14)
O3 O 0.43497(18) 0.31497(15) 0.22202(10)
N2 N 0.3012(2) 0.14826(16) 0.27694(11)
O4 O 0.58824(19) -0.01866(16) 0.37253(10)
C2 C 0.4028(3) 0.2718(2) 0.19074(15)
C3 C 0.3895(3) 0.1378(2) 0.28023(14)
H1 H 0.4284 0.1789 0.2691
C4 C 0.4086(3) 0.2649(2) 0.10087(15)
H2 H 0.3453 0.2747 0.1008
C5 C 0.4538(3) 0.25805(19) 0.14428(13)
C6 C 0.4280(3) 0.0691(2) 0.29938(13)
H3 H 0.4918 0.0635 0.3011
C7 C 0.4095(3) -0.0160(2) 0.51655(14)
H4 H 0.3498 -0.0261 0.5274
C8 C 0.5257(3) -0.0258(2) 0.40031(14)
C9 C 0.4352(3) -0.0263(2) 0.46926(14)
C10 C 0.4107(3) -0.06619(19) 0.33845(13)
H5 H 0.3644 -0.1087 0.3382
H6 H 0.4631 -0.0848 0.3193
C11 C 0.2805(3) 0.0202(2) 0.31271(14)
H7 H 0.2403 -0.0198 0.3239
C12 C 0.3719(3) 0.00902(19) 0.31585(12)
C13 C 0.4773(3) 0.0103(2) 0.54702(14)
C14 C 0.2471(3) 0.0897(2) 0.29325(14)
H8 H 0.1834 0.0965 0.2912
C15 C 0.4538(3) 0.2576(3) 0.05792(16)
H9 H 0.4221 0.2629 0.0283
O5 O 0.1503(7) 0.1657(6) 0.1965(4)
N1H N 0.5609(2) 0.05077(16) 0.61223(11)
O2H O 0.69895(19) 0.06903(16) 0.57451(10)
C1H C 0.6198(3) 0.0515(2) 0.57302(14)
N2H N 0.6988(2) -0.14826(16) 0.72306(11)
O4H O 0.41176(19) 0.01866(16) 0.62747(10)
C3H C 0.6105(3) -0.1378(2) 0.71977(14)
H1H H 0.5716 -0.1789 0.7309
C6H C 0.5720(3) -0.0691(2) 0.70062(13)
H3H H 0.5082 -0.0635 0.6989
C7H C 0.5905(3) 0.0160(2) 0.48345(14)
H4H H 0.6502 0.0261 0.4726
C8H C 0.4743(3) 0.0258(2) 0.59969(14)
C9H C 0.5648(3) 0.0263(2) 0.53074(14)
C10H C 0.5893(3) 0.06619(19) 0.66155(13)
H5H H 0.6356 0.1087 0.6618
H6H H 0.5369 0.0848 0.6807
C11H C 0.7195(3) -0.0202(2) 0.68729(14)
H7H H 0.7597 0.0198 0.6761
C12H C 0.6281(3) -0.00902(19) 0.68415(12)
C13H C 0.5227(3) -0.0103(2) 0.45298(14)
C14H C 0.7529(3) -0.0897(2) 0.70675(14)
H8H H 0.8166 -0.0965 0.7088
O1E O 0.67539(18) 0.26224(14) 0.19270(10)
O3E O 0.56503(18) 0.18503(15) 0.22202(10)
C2E C 0.5972(3) 0.2282(2) 0.19074(15)
C4E C 0.5914(3) 0.2351(2) 0.10087(15)
H2E H 0.6547 0.2253 0.1008
C5E C 0.5462(3) 0.24195(19) 0.14428(13)
C15E C 0.5462(3) 0.2424(3) 0.05792(16)
H9E H 0.5779 0.2371 0.0283
O5L O 0.3497(7) 0.3343(6) 0.3035(4)
Cu1D Cu 0.7500 -0.2500 0.7500
Cu1E Cu 0.7500 0.2500 0.2500
O1L O 0.17539(18) 0.26224(14) 0.30730(10)
N2L N 0.1988(2) 0.35174(16) 0.22306(11)
loop_
_geom_bond_atom_site_label_1
_geom_bond_atom_site_label_2
_geom_bond_site_symmetry_1
_geom_bond_site_symmetry_2
Cu1 O1 1_555 1_555
N1 C1 1_555 1_555
O1 C2 1_555 1_555
O2 C1 1_555 1_555
C1 C9 1_555 1_555
O3 C2 1_555 1_555
N2 Cu1 1_555 1_555
O4 C8 1_555 1_555
C2 C5 1_555 1_555
C3 N2 1_555 1_555
H1 C3 1_555 1_555
C4 H2 1_555 1_555
C5 C4 1_555 1_555
C6 C3 1_555 1_555
H3 C6 1_555 1_555
C7 H4 1_555 1_555
C8 N1 1_555 1_555
C9 C7 1_555 1_555
C10 N1 1_555 1_555
H5 C10 1_555 1_555
H6 C10 1_555 1_555
C11 H7 1_555 1_555
C12 C6 1_555 1_555
C13 C7 1_555 1_555
C14 N2 1_555 1_555
H8 C14 1_555 1_555
C15 C4 1_555 1_555
H9 C15 1_555 1_555
O5 Cu1 1_555 1_555
N1H C1H 1_555 1_555
O2H C1H 1_555 1_555
C1H C9H 1_555 1_555
N2H C3H 1_555 1_555
O4H C8H 1_555 1_555
C3H H1H 1_555 1_555
C6H C3H 1_555 1_555
H3H C6H 1_555 1_555
C7H H4H 1_555 1_555
C8H C13 1_555 1_555
C9H C13 1_555 1_555
C10H N1H 1_555 1_555
H5H C10H 1_555 1_555
H6H C10H 1_555 1_555
C11H H7H 1_555 1_555
C12H C6H 1_555 1_555
C13H C8 1_555 1_555
C14H N2H 1_555 1_555
H8H C14H 1_555 1_555
O1E C2E 1_555 1_555
O3E C2E 1_555 1_555
C2E C5E 1_555 1_555
C4E H2E 1_555 1_555
C5E C5 1_555 1_555
C15E C15 1_555 1_555
H9E C15E 1_555 1_555
O5L Cu1 1_555 1_555
Cu1D N2H 1_555 1_555
Cu1E O1E 1_555 1_555
O1L Cu1 1_555 1_555
N2L Cu1 1_555 1_555
C9 C13H 1_555 1_555
C10 C12 1_555 1_555
C11 C12 1_555 1_555
C11 C14 1_555 1_555
N1H C8H 1_555 1_555
C7H C9H 1_555 1_555
C7H C13H 1_555 1_555
C10H C12H 1_555 1_555
C11H C12H 1_555 1_555
C11H C14H 1_555 1_555
C4E C5E 1_555 1_555
C4E C15E 1_555 1_555

#END
