
#######################################################################
#
#                 Cambridge Crystallographic Data Centre
#                                CCDC 
#
#######################################################################
#
# If this CIF has been generated from an entry in the Cambridge 
# Structural Database, then it will include bibliographic, chemical, 
# crystal, experimental, refinement or atomic coordinate data resulting 
# from the CCDC's data processing and validation procedures.
#
#######################################################################

data_TEWFUY01
_symmetry_cell_setting           orthorhombic
_symmetry_space_group_name_H-M   'I b c a'
_symmetry_Int_Tables_number      73
_space_group_name_Hall           '-I 2b 2c'
loop_
_symmetry_equiv_pos_site_id
_symmetry_equiv_pos_as_xyz
1 x,y,z
2 1/2-x,-y,1/2+z
3 -x,1/2+y,1/2-z
4 1/2+x,1/2-y,-z
5 1/2+x,1/2+y,1/2+z
6 -x,1/2-y,z
7 1/2-x,y,-z
8 x,-y,1/2-z
9 -x,-y,-z
10 1/2+x,y,1/2-z
11 x,1/2-y,1/2+z
12 1/2-x,1/2+y,z
13 1/2-x,1/2-y,1/2-z
14 x,1/2+y,-z
15 1/2+x,-y,z
16 -x,y,1/2+z
_cell_length_a                   14.6232(10)
_cell_length_b                   16.9144(10)
_cell_length_c                   27.9419(18)
_cell_angle_alpha                90
_cell_angle_beta                 90
_cell_angle_gamma                90
_cell_volume                     6911.22
loop_
_atom_site_label
_atom_site_type_symbol
_atom_site_fract_x
_atom_site_fract_y
_atom_site_fract_z
Cu1 Cu 0.2500 0.2500 0.2500
O1 O 0.32157(16) 0.23390(12) 0.19232(8)
O2 O 0.42974(16) 0.31106(12) 0.22290(8)
O3 O 0.5906(2) -0.01583(17) 0.37366(9)
C1 C 0.4528(2) 0.25640(16) 0.14538(10)
N1 N 0.4399(2) -0.04874(15) 0.38765(9)
C2 C 0.3998(2) 0.26869(17) 0.19080(11)
O4 O 0.30024(19) -0.06824(16) 0.42459(8)
N2 N 0.30160(19) 0.14846(15) 0.27738(9)
C3 C 0.3804(3) -0.05056(19) 0.42648(12)
C4 C 0.3919(2) 0.13797(19) 0.28034(12)
H1 H 0.4313 0.1784 0.2689
C5 C 0.3744(2) 0.01081(17) 0.31603(10)
C6 C 0.4066(3) 0.2616(2) 0.10176(12)
H2 H 0.3422 0.2692 0.1014
C7 C 0.4125(3) -0.06357(17) 0.33857(11)
H3 H 0.3655 -0.1057 0.3379
H4 H 0.4659 -0.0821 0.3199
C8 C 0.4298(3) 0.07062(19) 0.29937(11)
H5 H 0.4944 0.0653 0.3010
C9 C 0.4537(3) 0.2557(3) 0.05916(12)
H6 H 0.4217 0.2594 0.0297
C10 C 0.5272(3) -0.0241(2) 0.40060(11)
C11 C 0.5916(3) 0.0171(2) 0.48361(12)
H7 H 0.6519 0.0282 0.4728
C12 C 0.2816(3) 0.02165(19) 0.31308(13)
H8 H 0.2409 -0.0178 0.3246
C13 C 0.5237(3) -0.00895(19) 0.45354(11)
C14 C 0.4351(3) -0.0258(2) 0.46879(11)
C15 C 0.2479(2) 0.09089(19) 0.29310(13)
H9 H 0.1836 0.0973 0.2906
O1E O 0.67843(16) 0.26610(12) 0.19232(8)
O2E O 0.57026(16) 0.18894(12) 0.22290(8)
C1E C 0.5472(2) 0.24360(16) 0.14538(10)
C2E C 0.6002(2) 0.23131(17) 0.19080(11)
C6E C 0.5934(3) 0.2384(2) 0.10176(12)
H2E H 0.6578 0.2308 0.1014
C9E C 0.5463(3) 0.2443(3) 0.05916(12)
H6E H 0.5783 0.2406 0.0297
O3H O 0.4094(2) 0.01583(17) 0.62634(9)
N1H N 0.5601(2) 0.04874(15) 0.61235(9)
O4H O 0.69976(19) 0.06824(16) 0.57541(8)
N2H N 0.69840(19) -0.14846(15) 0.72262(9)
C3H C 0.6196(3) 0.05056(19) 0.57352(12)
C4H C 0.6081(2) -0.13797(19) 0.71966(12)
H1H H 0.5687 -0.1784 0.7311
C5H C 0.6256(2) -0.01081(17) 0.68397(10)
C7H C 0.5875(3) 0.06357(17) 0.66143(11)
H3H H 0.6345 0.1057 0.6621
H4H H 0.5341 0.0821 0.6801
C8H C 0.5702(3) -0.07062(19) 0.70063(11)
H5H H 0.5056 -0.0653 0.6990
C10H C 0.4728(3) 0.0241(2) 0.59940(11)
C11H C 0.4084(3) -0.0171(2) 0.51639(12)
H7H H 0.3481 -0.0282 0.5272
C12H C 0.7184(3) -0.02165(19) 0.68692(13)
H8H H 0.7591 0.0178 0.6754
C13H C 0.4763(3) 0.00895(19) 0.54646(11)
C14H C 0.5649(3) 0.0258(2) 0.53121(11)
C15H C 0.7521(2) -0.09089(19) 0.70690(13)
H9H H 0.8164 -0.0973 0.7094
Cu1D Cu 0.7500 -0.2500 0.7500
Cu1E Cu 0.7500 0.2500 0.2500
O1L O 0.17843(16) 0.26610(12) 0.30768(8)
N2L N 0.19840(19) 0.35154(15) 0.22262(9)
loop_
_geom_bond_atom_site_label_1
_geom_bond_atom_site_label_2
_geom_bond_site_symmetry_1
_geom_bond_site_symmetry_2
Cu1 O1 1_555 1_555
O1 C2 1_555 1_555
O2 C2 1_555 1_555
O3 C10 1_555 1_555
C1 C2 1_555 1_555
N1 C3 1_555 1_555
O4 C3 1_555 1_555
N2 Cu1 1_555 1_555
C3 C14 1_555 1_555
C4 N2 1_555 1_555
H1 C4 1_555 1_555
C5 C7 1_555 1_555
C6 C1 1_555 1_555
H2 C6 1_555 1_555
C7 N1 1_555 1_555
H3 C7 1_555 1_555
H4 C7 1_555 1_555
C8 C4 1_555 1_555
H5 C8 1_555 1_555
C9 C6 1_555 1_555
H6 C9 1_555 1_555
C10 N1 1_555 1_555
C11 H7 1_555 1_555
C12 C5 1_555 1_555
H8 C12 1_555 1_555
C13 C10 1_555 1_555
C14 C13 1_555 1_555
C15 N2 1_555 1_555
H9 C15 1_555 1_555
O1E C2E 1_555 1_555
O2E C2E 1_555 1_555
C1E C1 1_555 1_555
C2E C1E 1_555 1_555
C6E C1E 1_555 1_555
H2E C6E 1_555 1_555
C9E C9 1_555 1_555
H6E C9E 1_555 1_555
O3H C10H 1_555 1_555
N1H C3H 1_555 1_555
O4H C3H 1_555 1_555
N2H C4H 1_555 1_555
C3H C14H 1_555 1_555
C4H H1H 1_555 1_555
C5H C7H 1_555 1_555
C7H N1H 1_555 1_555
H3H C7H 1_555 1_555
H4H C7H 1_555 1_555
C8H C4H 1_555 1_555
H5H C8H 1_555 1_555
C10H N1H 1_555 1_555
C11H C14 1_555 1_555
H7H C11H 1_555 1_555
C12H C5H 1_555 1_555
H8H C12H 1_555 1_555
C13H C10H 1_555 1_555
C14H C11 1_555 1_555
C15H N2H 1_555 1_555
H9H C15H 1_555 1_555
Cu1D N2H 1_555 1_555
Cu1E O1E 1_555 1_555
O1L Cu1 1_555 1_555
N2L Cu1 1_555 1_555
C5 C8 1_555 1_555
C11 C13 1_555 1_555
C12 C15 1_555 1_555
C6E C9E 1_555 1_555
C5H C8H 1_555 1_555
C11H C13H 1_555 1_555
C12H C15H 1_555 1_555
C13H C14H 1_555 1_555

#END
