
#######################################################################
#
#                 Cambridge Crystallographic Data Centre
#                                CCDC 
#
#######################################################################
#
# If this CIF has been generated from an entry in the Cambridge 
# Structural Database, then it will include bibliographic, chemical, 
# crystal, experimental, refinement or atomic coordinate data resulting 
# from the CCDC's data processing and validation procedures.
#
#######################################################################

data_TEWFUX
_symmetry_cell_setting           orthorhombic
_symmetry_space_group_name_H-M   'P b c a'
_symmetry_Int_Tables_number      61
_space_group_name_Hall           '-P 2ac 2ab'
loop_
_symmetry_equiv_pos_site_id
_symmetry_equiv_pos_as_xyz
1 x,y,z
2 1/2-x,-y,1/2+z
3 1/2+x,1/2-y,-z
4 -x,1/2+y,1/2-z
5 -x,-y,-z
6 1/2+x,y,1/2-z
7 1/2-x,1/2+y,z
8 x,1/2-y,1/2+z
_cell_length_a                   12.614(5)
_cell_length_b                   8.458(5)
_cell_length_c                   22.587(5)
_cell_angle_alpha                90
_cell_angle_beta                 90
_cell_angle_gamma                90
_cell_volume                     2409.79
loop_
_atom_site_label
_atom_site_type_symbol
_atom_site_fract_x
_atom_site_fract_y
_atom_site_fract_z
Cd1 Cd 0.666015(11) 0.436383(17) 0.040109(6)
C1 C 1.1874(2) 0.4437(3) 0.21156(14)
C2 C 1.1337(2) 0.4804(4) 0.26955(12)
C3 C 1.0211(2) 0.4200(3) 0.27211(10)
C4 C 1.01117(14) 0.3289(2) 0.15529(8)
C5 C 0.96860(14) 0.2733(2) 0.10459(8)
C6 C 1.03031(14) 0.1644(2) 0.06423(8)
C7 C 0.85874(14) 0.3067(2) 0.08413(8)
O1 O 0.81381(12) 0.43308(15) 0.10045(7)
O2 O 1.00719(11) 0.02004(17) 0.06489(7)
O3 O 1.09896(11) 0.22409(17) 0.03084(6)
O4 O 0.81477(11) 0.20989(17) 0.04905(6)
O5 O 0.60166(16) 0.2422(2) 0.10396(8)
O6 O 0.78062(15) 0.5029(3) -0.03813(8)
S1 S 1.13876(4) 0.26480(7) 0.17616(2)
S2 S 0.94464(4) 0.45459(6) 0.20520(2)
H1 H 1.175(2) 0.525(4) 0.1814(17)
H2 H 1.256(3) 0.417(3) 0.2177(12)
H3 H 1.176(2) 0.432(3) 0.2974(17)
H4 H 1.136(2) 0.592(4) 0.2742(13)
H5 H 1.0219(18) 0.316(3) 0.2772(10)
H6 H 0.977(2) 0.472(3) 0.3015(11)
H7 H 0.622(2) 0.169(4) 0.1033(13)
H8 H 0.542(3) 0.228(4) 0.1119(16)
H9 H 0.811(3) 0.428(4) -0.0525(14)
H10 H 0.823(3) 0.567(4) -0.0337(15)
Cd1F Cd 0.833985(11) -0.063617(17) 0.040109(6)
Cd1B Cd 1.166015(11) 0.063617(17) -0.040109(6)
O2F O 0.49281(11) 0.52004(17) 0.06489(7)
O3B O 0.59896(11) 0.27591(17) -0.03084(6)
O4F O 0.68523(11) 0.70989(17) 0.04905(6)
O7 O 0.86724(18) 0.2432(2) 0.90308(9)
H11 H 0.813(4) 0.200(6) 0.901(2)
H12 H 0.888(3) 0.170(5) 0.9166(19)
loop_
_geom_bond_atom_site_label_1
_geom_bond_atom_site_label_2
_geom_bond_site_symmetry_1
_geom_bond_site_symmetry_2
Cd1 O1 1_555 1_555
C1 C2 1_555 1_555
C2 C3 1_555 1_555
C3 S2 1_555 1_555
C4 C5 1_555 1_555
C5 C6 1_555 1_555
C6 O2 1_555 1_555
C7 C5 1_555 1_555
O1 C7 1_555 1_555
O2 Cd1F 1_555 1_555
O3 C6 1_555 1_555
O4 Cd1 1_555 1_555
O5 Cd1 1_555 1_555
O6 Cd1 1_555 1_555
O7 H11 1_555 1_555
S1 C1 1_555 1_555
S2 C4 1_555 1_555
H1 C1 1_555 1_555
H2 C1 1_555 1_555
H3 C2 1_555 1_555
H4 C2 1_555 1_555
H5 C3 1_555 1_555
H6 C3 1_555 1_555
H7 O5 1_555 1_555
H8 O5 1_555 1_555
H9 O6 1_555 1_555
H10 O6 1_555 1_555
H12 O7 1_555 1_555
Cd1F O4 1_555 1_555
Cd1B O3 1_555 1_555
O2F Cd1 1_555 1_555
O3B Cd1 1_555 1_555
O4F Cd1 1_555 1_555
C4 S1 1_555 1_555
C7 O4 1_555 1_555

#END
