
#######################################################################
#
#                 Cambridge Crystallographic Data Centre
#                                CCDC 
#
#######################################################################
#
# If this CIF has been generated from an entry in the Cambridge 
# Structural Database, then it will include bibliographic, chemical, 
# crystal, experimental, refinement or atomic coordinate data resulting 
# from the CCDC's data processing and validation procedures.
#
#######################################################################

data_TEWGEJ
_symmetry_cell_setting           orthorhombic
_symmetry_space_group_name_H-M   'I b c a'
_symmetry_Int_Tables_number      73
_space_group_name_Hall           '-I 2b 2c'
loop_
_symmetry_equiv_pos_site_id
_symmetry_equiv_pos_as_xyz
1 x,y,z
2 1/2-x,-y,1/2+z
3 -x,1/2+y,1/2-z
4 1/2+x,1/2-y,-z
5 1/2+x,1/2+y,1/2+z
6 -x,1/2-y,z
7 1/2-x,y,-z
8 x,-y,1/2-z
9 -x,-y,-z
10 1/2+x,y,1/2-z
11 x,1/2-y,1/2+z
12 1/2-x,1/2+y,z
13 1/2-x,1/2-y,1/2-z
14 x,1/2+y,-z
15 1/2+x,-y,z
16 -x,y,1/2+z
_cell_length_a                   15.2841(10)
_cell_length_b                   16.7279(10)
_cell_length_c                   27.5547(15)
_cell_angle_alpha                90
_cell_angle_beta                 90
_cell_angle_gamma                90
_cell_volume                     7044.93
loop_
_atom_site_label
_atom_site_type_symbol
_atom_site_fract_x
_atom_site_fract_y
_atom_site_fract_z
Cu1 Cu 0.2500 -0.2500 0.2500
N1 N 0.2996(3) -0.1477(2) 0.22227(14)
N2 N 0.4349(3) 0.0529(2) 0.11215(14)
C1 C 0.2464(4) -0.0897(3) 0.20621(18)
H1 H 0.1849 -0.0976 0.2080
C2 C 0.2781(4) -0.0180(3) 0.18694(18)
H2 H 0.2389 0.0225 0.1764
C3 C 0.3672(4) -0.0072(3) 0.18353(15)
C4 C 0.4223(4) -0.0667(3) 0.20050(16)
H3 H 0.4841 -0.0602 0.1992
C5 C 0.3854(4) -0.1363(3) 0.21953(16)
H4 H 0.4232 -0.1772 0.2310
C6 C 0.4044(4) 0.0687(3) 0.16154(17)
H5 H 0.3589 0.1108 0.1609
H6 H 0.4538 0.0881 0.1816
C7 C 0.5199(4) 0.0293(3) 0.10059(18)
C8 C 0.5194(4) 0.0125(3) 0.04701(17)
C9 C 0.4353(4) 0.0262(3) 0.03015(17)
C10 C 0.3805(4) 0.0522(3) 0.07187(19)
C11 C 0.5869(4) -0.0140(3) 0.01829(18)
H7 H 0.6441 -0.0232 0.0305
C12 C 0.4089(4) -0.2762(3) 0.30873(18)
C13 C 0.4554(4) -0.2600(3) 0.35479(16)
C14 C 0.4125(4) -0.2690(3) 0.39894(18)
H8 H 0.3520 -0.2818 0.3992
C15 C 0.4565(4) -0.2597(4) 0.44290(19)
H9 H 0.4263 -0.2669 0.4727
O1 O 0.3031(3) 0.0690(3) 0.07220(14)
O2 O 0.5796(3) 0.0234(2) 0.12899(13)
O3 O 0.3328(2) -0.2442(2) 0.30488(11)
O4 O 0.4431(2) -0.3198(2) 0.27745(12)
O5 O 0.1585(3) -0.1646(3) 0.30121(16)
H10 H 0.1154 -0.1653 0.2823
C16 C 0.1322(7) -0.1830(5) 0.3459(3)
H11 H 0.1763 -0.2168 0.3615
H12 H 0.0765 -0.2119 0.3442
H13 H 0.1245 -0.1338 0.3647
N1H N 0.7004(3) 0.1477(2) -0.22227(14)
N2H N 0.5651(3) -0.0529(2) -0.11215(14)
C1H C 0.7536(4) 0.0897(3) -0.20621(18)
H1H H 0.8151 0.0976 -0.2080
C2H C 0.7219(4) 0.0180(3) -0.18694(18)
H2H H 0.7611 -0.0225 -0.1764
C3H C 0.6328(4) 0.0072(3) -0.18353(15)
C4H C 0.5777(4) 0.0667(3) -0.20050(16)
H3H H 0.5159 0.0602 -0.1992
C5H C 0.6146(4) 0.1363(3) -0.21953(16)
H4H H 0.5768 0.1772 -0.2310
C6H C 0.5956(4) -0.0687(3) -0.16154(17)
H5H H 0.6411 -0.1108 -0.1609
H6H H 0.5462 -0.0881 -0.1816
C7H C 0.4801(4) -0.0293(3) -0.10059(18)
C8H C 0.4806(4) -0.0125(3) -0.04701(17)
C9H C 0.5647(4) -0.0262(3) -0.03015(17)
C10H C 0.6195(4) -0.0522(3) -0.07187(19)
C11H C 0.4131(4) 0.0140(3) -0.01829(18)
H7H H 0.3559 0.0232 -0.0305
O1H O 0.6969(3) -0.0690(3) -0.07220(14)
O2H O 0.4204(3) -0.0234(2) -0.12899(13)
C12E C 0.5911(4) -0.2238(3) 0.30873(18)
C13E C 0.5446(4) -0.2400(3) 0.35479(16)
C14E C 0.5875(4) -0.2310(3) 0.39894(18)
H8E H 0.6480 -0.2182 0.3992
C15E C 0.5435(4) -0.2403(4) 0.44290(19)
H9E H 0.5737 -0.2331 0.4727
O3E O 0.6672(2) -0.2558(2) 0.30488(11)
O4E O 0.5569(2) -0.1802(2) 0.27745(12)
O5L O 0.3415(3) -0.3354(3) 0.19879(16)
H10L H 0.3846 -0.3347 0.2177
C16L C 0.3678(7) -0.3170(5) 0.1541(3)
H11L H 0.3237 -0.2832 0.1385
H12L H 0.4235 -0.2881 0.1558
H13L H 0.3755 -0.3662 0.1353
Cu1D Cu 0.7500 0.2500 -0.2500
Cu1E Cu 0.7500 -0.2500 0.2500
N1L N 0.2004(3) -0.3523(2) 0.27773(14)
O3L O 0.1672(2) -0.2558(2) 0.19512(11)
O6 O 0.1899(19) -0.3760(17) 0.4207(11)
O7 O 0.2500 0.331(3) 0.0000
loop_
_geom_bond_atom_site_label_1
_geom_bond_atom_site_label_2
_geom_bond_site_symmetry_1
_geom_bond_site_symmetry_2
Cu1 N1 1_555 1_555
N1 C1 1_555 1_555
N2 C6 1_555 1_555
C1 H1 1_555 1_555
C2 C1 1_555 1_555
H2 C2 1_555 1_555
C3 C2 1_555 1_555
C4 C3 1_555 1_555
H3 C4 1_555 1_555
C5 N1 1_555 1_555
H4 C5 1_555 1_555
C6 C3 1_555 1_555
H5 C6 1_555 1_555
H6 C6 1_555 1_555
C7 N2 1_555 1_555
C8 C7 1_555 1_555
C9 C8 1_555 1_555
C10 N2 1_555 1_555
C11 C8 1_555 1_555
H7 C11 1_555 1_555
C12 C13 1_555 1_555
C13 C14 1_555 1_555
C14 H8 1_555 1_555
C15 C14 1_555 1_555
H9 C15 1_555 1_555
O1 C10 1_555 1_555
O2 C7 1_555 1_555
O3 Cu1 1_555 1_555
O4 C12 1_555 1_555
O5 Cu1 1_555 1_555
H10 O5 1_555 1_555
C16 O5 1_555 1_555
H11 C16 1_555 1_555
H12 C16 1_555 1_555
H13 C16 1_555 1_555
N1H C1H 1_555 1_555
N2H C6H 1_555 1_555
C1H H1H 1_555 1_555
C2H C1H 1_555 1_555
H2H C2H 1_555 1_555
C3H C2H 1_555 1_555
C4H C3H 1_555 1_555
H3H C4H 1_555 1_555
C5H N1H 1_555 1_555
H4H C5H 1_555 1_555
C6H C3H 1_555 1_555
H5H C6H 1_555 1_555
H6H C6H 1_555 1_555
C7H N2H 1_555 1_555
C8H C7H 1_555 1_555
C9H C11 1_555 1_555
C10H N2H 1_555 1_555
C11H C9 1_555 1_555
H7H C11H 1_555 1_555
O1H C10H 1_555 1_555
O2H C7H 1_555 1_555
C12E C13E 1_555 1_555
C13E C13 1_555 1_555
C14E C13E 1_555 1_555
H8E C14E 1_555 1_555
C15E C15 1_555 1_555
H9E C15E 1_555 1_555
O3E C12E 1_555 1_555
O4E C12E 1_555 1_555
O5L Cu1 1_555 1_555
H10L O5L 1_555 1_555
C16L O5L 1_555 1_555
H11L C16L 1_555 1_555
H12L C16L 1_555 1_555
H13L C16L 1_555 1_555
Cu1D N1H 1_555 1_555
Cu1E O3E 1_555 1_555
N1L Cu1 1_555 1_555
O3L Cu1 1_555 1_555
C4 C5 1_555 1_555
C9 C10 1_555 1_555
C12 O3 1_555 1_555
C4H C5H 1_555 1_555
C8H C9H 1_555 1_555
C8H C11H 1_555 1_555
C9H C10H 1_555 1_555
C14E C15E 1_555 1_555

#END
