
#######################################################################
#
#                 Cambridge Crystallographic Data Centre
#                                CCDC 
#
#######################################################################
#
# If this CIF has been generated from an entry in the Cambridge 
# Structural Database, then it will include bibliographic, chemical, 
# crystal, experimental, refinement or atomic coordinate data resulting 
# from the CCDC's data processing and validation procedures.
#
#######################################################################

data_TEWGUY
_symmetry_cell_setting           monoclinic
_symmetry_space_group_name_H-M   'P 21'
_symmetry_Int_Tables_number      4
_space_group_name_Hall           'P 2yb'
loop_
_symmetry_equiv_pos_site_id
_symmetry_equiv_pos_as_xyz
1 x,y,z
2 -x,1/2+y,-z
_cell_length_a                   7.1911(4)
_cell_length_b                   55.050(3)
_cell_length_c                   11.7964(7)
_cell_angle_alpha                90
_cell_angle_beta                 99.166(3)
_cell_angle_gamma                90
_cell_volume                     4610.21
loop_
_atom_site_label
_atom_site_type_symbol
_atom_site_fract_x
_atom_site_fract_y
_atom_site_fract_z
Cu1 Cu 0.64769(12) 0.471184(16) 0.41986(8)
Cu2 Cu 0.79149(14) 0.320611(16) 0.42650(8)
Cu3 Cu 0.72590(14) 0.172684(16) 0.40290(10)
Cu4 Cu 0.55000(12) 0.022820(16) 0.39221(8)
N1 N 0.6379(10) 0.43377(13) 0.3677(7)
N2 N 0.5557(12) 0.39158(14) 0.3179(8)
N3 N 0.7154(11) 0.35410(13) 0.3778(6)
N4 N 0.8590(11) 0.28638(14) 0.4684(7)
N5 N 0.9575(12) 0.24510(16) 0.4708(9)
N6 N 0.8184(10) 0.20565(13) 0.4288(6)
N7 N 0.6317(11) 0.13948(13) 0.3668(6)
N8 N 0.4560(11) 0.10307(14) 0.3062(8)
N9 N 0.5387(10) 0.06037(13) 0.3392(6)
N10 N 0.4228(10) 0.48201(11) 0.3132(6)
N11 N 0.0974(10) 0.49110(15) 0.2235(6)
N12 N -0.1821(9) 0.48321(12) 0.3159(6)
N13 N 0.8757(10) 0.46804(13) 0.5363(6)
N14 N 1.1926(9) 0.45262(14) 0.6063(6)
N15 N 1.4767(10) 0.46686(14) 0.5365(6)
N16 N 0.5466(10) 0.30934(12) 0.3510(6)
N17 N 0.2433(14) 0.29264(16) 0.2701(9)
N18 N -0.0653(12) 0.31248(15) 0.2304(8)
N19 N 1.0441(10) 0.33139(13) 0.4928(7)
N20 N 1.3456(12) 0.34832(16) 0.5869(9)
N21 N 1.6567(11) 0.33014(14) 0.6058(6)
N22 N 0.4815(12) 0.18461(15) 0.3242(7)
N23 N 0.1706(15) 0.1981(2) 0.2362(10)
N24 N -0.1203(13) 0.17554(18) 0.1974(8)
N25 N 0.9735(12) 0.16004(12) 0.4757(7)
N26 N 1.2795(13) 0.14769(16) 0.5729(8)
N27 N 1.5764(13) 0.17055(17) 0.5907(7)
N28 N 0.3236(11) 0.01258(13) 0.2830(7)
N29 N -0.0008(10) 0.00211(15) 0.1981(6)
N30 N -0.2770(10) 0.01011(12) 0.2909(6)
N31 N 0.7768(10) 0.02645(15) 0.5113(6)
N32 N 1.0967(10) 0.04063(13) 0.5826(7)
N33 N 1.3806(9) 0.02692(12) 0.5078(6)
C1 C 0.6081(11) 0.41336(16) 0.3493(7)
C2 C 0.6483(12) 0.37204(16) 0.3577(8)
C3 C 0.8936(12) 0.26678(18) 0.4642(8)
C4 C 0.8737(12) 0.22546(18) 0.4472(9)
C5 C 0.5562(12) 0.12153(17) 0.3427(8)
C6 C 0.5062(12) 0.08041(18) 0.3304(7)
C7 C 0.2677(13) 0.48638(14) 0.2745(7)
C8 C -0.0460(12) 0.48680(12) 0.2779(7)
C9 C 1.0249(13) 0.46189(16) 0.5661(7)
C10 C 1.3424(13) 0.46064(14) 0.5667(7)
C11 C 0.3992(16) 0.30339(18) 0.3142(8)
C12 C 0.0819(15) 0.3051(2) 0.2486(9)
C13 C 1.1904(15) 0.33819(17) 0.5335(8)
C14 C 1.5075(15) 0.33781(17) 0.5957(8)
C15 C 0.3320(16) 0.18941(18) 0.2813(8)
C16 C 0.0217(19) 0.1843(2) 0.2135(9)
C17 C 1.1193(17) 0.15526(15) 0.5191(8)
C18 C 1.4317(17) 0.16042(19) 0.5802(8)
C19 C 0.1697(15) 0.00838(16) 0.2498(8)
C20 C -0.1440(12) 0.00703(14) 0.2514(7)
C21 C 0.9292(13) 0.03327(14) 0.5396(7)
C22 C 1.2423(13) 0.03287(14) 0.5396(7)
Cu1_2 Cu -0.35231(12) 0.471184(16) 0.41986(8)
Cu1_3 Cu 1.64769(12) 0.471184(16) 0.41986(8)
Cu2_2 Cu -0.20851(14) 0.320611(16) 0.42650(8)
Cu2_3 Cu 1.79149(14) 0.320611(16) 0.42650(8)
Cu3_2 Cu -0.27410(14) 0.172684(16) 0.40290(10)
Cu3_3 Cu 1.72590(14) 0.172684(16) 0.40290(10)
Cu4_2 Cu -0.45000(12) 0.022820(16) 0.39221(8)
Cu4_3 Cu 1.55000(12) 0.022820(16) 0.39221(8)
N12_2 N 0.8179(9) 0.48321(12) 0.3159(6)
N15_2 N 0.4767(10) 0.46686(14) 0.5365(6)
N18_2 N 0.9347(12) 0.31248(15) 0.2304(8)
N21_2 N 0.6567(11) 0.33014(14) 0.6058(6)
N24_2 N 0.8797(13) 0.17554(18) 0.1974(8)
N27_2 N 0.5764(13) 0.17055(17) 0.5907(7)
N30_2 N 0.7230(10) 0.01011(12) 0.2909(6)
N33_2 N 0.3806(9) 0.02692(12) 0.5078(6)
P1 P 0.8142(3) 0.24991(4) 0.85521(17)
C23 C 0.6373(11) 0.25148(13) 0.7317(7)
C24 C 0.5157(12) 0.27172(14) 0.7165(8)
H1 H 0.5235 0.2836 0.7732
C25 C 0.3871(12) 0.27397(17) 0.6191(9)
H2 H 0.3065 0.2873 0.6099
C26 C 0.3757(13) 0.2566(2) 0.5338(9)
H3 H 0.2937 0.2587 0.4652
C27 C 0.4845(13) 0.2362(2) 0.5501(8)
H4 H 0.4668 0.2239 0.4957
C28 C 0.6225(11) 0.23360(16) 0.6472(8)
H5 H 0.7025 0.2202 0.6552
C29 C 0.6990(11) 0.24755(15) 0.9785(6)
C30 C 0.5595(13) 0.23063(16) 0.9780(8)
H6 H 0.5268 0.2207 0.9142
C31 C 0.4683(14) 0.22823(17) 1.0701(9)
H7 H 0.3747 0.2165 1.0682
C32 C 0.5112(15) 0.24281(19) 1.1665(8)
H8 H 0.4510 0.2407 1.2301
C33 C 0.6465(15) 0.26055(17) 1.1648(8)
H9 H 0.6736 0.2711 1.2267
C34 C 0.7423(12) 0.26286(15) 1.0728(8)
H10 H 0.8355 0.2746 1.0739
C35 C 0.9651(11) 0.27596(13) 0.8627(7)
C36 C 0.9399(12) 0.29456(14) 0.7818(7)
H11 H 0.8387 0.2941 0.7220
C37 C 1.0636(12) 0.31353(14) 0.7903(8)
H12 H 1.0448 0.3260 0.7366
C38 C 1.2157(13) 0.31440(15) 0.8771(8)
H13 H 1.2994 0.3274 0.8810
C39 C 1.2447(13) 0.29650(16) 0.9570(8)
H14 H 1.3461 0.2973 1.0166
C40 C 1.1208(12) 0.27682(15) 0.9489(8)
H15 H 1.1428 0.2642 1.0017
C41 C 0.9590(11) 0.22377(13) 0.8460(7)
C42 C 1.0685(12) 0.22301(15) 0.7596(8)
H16 H 1.0722 0.2363 0.7115
C43 C 1.1726(13) 0.20244(18) 0.7449(8)
H17 H 1.2406 0.2015 0.6843
C44 C 1.1744(14) 0.18378(18) 0.8196(10)
H18 H 1.2459 0.1701 0.8096
C45 C 1.0758(14) 0.18427(16) 0.9088(10)
H19 H 1.0819 0.1713 0.9597
C46 C 0.9664(12) 0.20436(15) 0.9225(7)
H20 H 0.8976 0.2049 0.9828
P2 P 0.3024(3) 0.40309(4) 0.96578(18)
C47 C 0.4526(11) 0.37666(13) 0.9672(7)
C48 C 0.5543(12) 0.37362(15) 0.8784(7)
H21 H 0.5371 0.3843 0.8164
C49 C 0.6812(12) 0.35480(17) 0.8818(8)
H22 H 0.7467 0.3524 0.8208
C50 C 0.7109(12) 0.33960(15) 0.9752(8)
H23 H 0.7980 0.3271 0.9774
C51 C 0.6129(12) 0.34270(14) 1.0662(8)
H24 H 0.6347 0.3325 1.1296
C52 C 0.4828(12) 0.36114(15) 1.0614(7)
H25 H 0.4148 0.3632 1.1215
C53 C 0.1930(11) 0.40326(15) 1.0925(6)
C54 C 0.2201(11) 0.42185(16) 1.1718(7)
H26 H 0.2903 0.4354 1.1573
C55 C 0.1448(12) 0.42074(17) 1.2720(8)
H27 H 0.1614 0.4336 1.3239
C56 C 0.0450(12) 0.40052(19) 1.2943(7)
H28 H -0.0032 0.3994 1.3628
C57 C 0.0163(13) 0.38214(19) 1.2170(9)
H29 H -0.0504 0.3685 1.2336
C58 C 0.0855(12) 0.38334(16) 1.1120(8)
H30 H 0.0596 0.3711 1.0574
C59 C 0.4537(11) 0.42961(13) 0.9667(7)
C60 C 0.6142(12) 0.42963(15) 1.0486(7)
H31 H 0.6421 0.4167 1.0989
C61 C 0.7330(12) 0.44976(16) 1.0531(8)
H32 H 0.8427 0.4503 1.1068
C62 C 0.6887(13) 0.46832(17) 0.9799(8)
H33 H 0.7688 0.4817 0.9842
C63 C 0.5314(14) 0.46819(18) 0.9002(9)
H34 H 0.5036 0.4814 0.8511
C64 C 0.4118(12) 0.44837(15) 0.8917(7)
H35 H 0.3048 0.4479 0.8359
C65 C 0.1148(11) 0.40303(16) 0.8451(7)
C66 C -0.0198(12) 0.42179(16) 0.8387(8)
H36 H -0.0100 0.4335 0.8960
C67 C -0.1665(14) 0.42281(17) 0.7472(8)
H37 H -0.2570 0.4350 0.7435
C68 C -0.1768(13) 0.4057(2) 0.6625(8)
H38 H -0.2747 0.4063 0.6008
C69 C -0.0455(15) 0.38776(17) 0.6673(8)
H39 H -0.0581 0.3760 0.6099
C70 C 0.1041(13) 0.38654(15) 0.7543(7)
H40 H 0.1975 0.3749 0.7532
P3 P 0.2013(3) 0.09026(4) 0.94189(19)
C71 C 0.3537(11) 0.11620(14) 0.9473(7)
C72 C 0.4518(12) 0.11947(16) 0.8556(8)
H41 H 0.4303 0.1094 0.7916
C73 C 0.5832(13) 0.13828(17) 0.8626(9)
H42 H 0.6548 0.1402 0.8041
C74 C 0.6087(14) 0.15375(18) 0.9518(10)
H43 H 0.6929 0.1666 0.9533
C75 C 0.5096(14) 0.15041(18) 1.0405(9)
H44 H 0.5295 0.1610 1.1028
C76 C 0.3809(13) 0.13181(14) 1.0399(7)
H45 H 0.3140 0.1298 1.1005
C77 C 0.0925(11) 0.08968(16) 1.0690(7)
C78 C 0.1260(11) 0.07075(14) 1.1483(7)
H46 H 0.1985 0.0575 1.1336
C79 C 0.0509(12) 0.07193(17) 1.2482(8)
H47 H 0.0697 0.0593 1.3013
C80 C -0.0535(12) 0.09221(19) 1.2690(8)
H48 H -0.1017 0.0932 1.3375
C81 C -0.0868(14) 0.11059(17) 1.1918(9)
H49 H -0.1577 0.1240 1.2071
C82 C -0.0162(12) 0.10929(16) 1.0925(8)
H50 H -0.0409 0.1218 1.0390
C83 C 0.0183(11) 0.08966(15) 0.8202(7)
C84 C 0.0032(14) 0.10814(19) 0.7352(8)
H51 H 0.0929 0.1204 0.7404
C85 C -0.1473(16) 0.1078(2) 0.6434(9)
H52 H -0.1602 0.1200 0.5880
C86 C -0.2765(15) 0.0890(2) 0.6374(8)
H53 H -0.3730 0.0878 0.5750
C87 C -0.2621(14) 0.0724(2) 0.7215(9)
H54 H -0.3535 0.0604 0.7182
C88 C -0.1167(13) 0.07261(18) 0.8125(8)
H55 H -0.1118 0.0608 0.8694
C89 C 0.3504(11) 0.06429(14) 0.9423(6)
C90 C 0.5146(13) 0.06356(16) 1.0223(7)
H56 H 0.5422 0.0765 1.0730
C91 C 0.6337(12) 0.04485(16) 1.0286(8)
H57 H 0.7423 0.0449 1.0833
C92 C 0.5957(14) 0.02501(17) 0.9527(9)
H58 H 0.6750 0.0116 0.9586
C93 C 0.4393(13) 0.02607(16) 0.8703(8)
H59 H 0.4153 0.0135 0.8172
C94 C 0.3147(12) 0.04565(16) 0.8641(8)
H60 H 0.2085 0.0461 0.8077
loop_
_geom_bond_atom_site_label_1
_geom_bond_atom_site_label_2
_geom_bond_site_symmetry_1
_geom_bond_site_symmetry_2
Cu1 N1 1_555 1_555
Cu2 N3 1_555 1_555
Cu3 N6 1_555 1_555
Cu4 N9 1_555 1_555
N1 C1 1_555 1_555
N2 C1 1_555 1_555
N3 C2 1_555 1_555
N4 Cu2 1_555 1_555
N5 C3 1_555 1_555
N6 C4 1_555 1_555
N7 Cu3 1_555 1_555
N8 C5 1_555 1_555
N9 C6 1_555 1_555
N10 Cu1 1_555 1_555
N11 C7 1_555 1_555
N12 C8 1_555 1_555
N13 Cu1 1_555 1_555
N14 C9 1_555 1_555
N15 C10 1_555 1_555
N16 Cu2 1_555 1_555
N17 C11 1_555 1_555
N18 C12 1_555 1_555
N19 Cu2 1_555 1_555
N20 C13 1_555 1_555
N21 C14 1_555 1_555
N22 Cu3 1_555 1_555
N23 C15 1_555 1_555
N24 C16 1_555 1_555
N25 Cu3 1_555 1_555
N26 C17 1_555 1_555
N27 C18 1_555 1_555
N28 Cu4 1_555 1_555
N29 C19 1_555 1_555
N30 C20 1_555 1_555
N31 Cu4 1_555 1_555
N32 C21 1_555 1_555
N33 C22 1_555 1_555
C2 N2 1_555 1_555
C3 N4 1_555 1_555
C4 N5 1_555 1_555
C5 N7 1_555 1_555
C6 N8 1_555 1_555
C7 N10 1_555 1_555
C8 N11 1_555 1_555
C9 N13 1_555 1_555
C10 N14 1_555 1_555
C11 N16 1_555 1_555
C12 N17 1_555 1_555
C13 N19 1_555 1_555
C14 N20 1_555 1_555
C15 N22 1_555 1_555
C16 N23 1_555 1_555
C17 N25 1_555 1_555
C18 N26 1_555 1_555
C19 N28 1_555 1_555
C20 N29 1_555 1_555
C21 N31 1_555 1_555
C22 N32 1_555 1_555
P1 C23 1_555 1_555
C23 C24 1_555 1_555
C24 H1 1_555 1_555
C25 C24 1_555 1_555
H2 C25 1_555 1_555
C26 C25 1_555 1_555
H3 C26 1_555 1_555
C27 C26 1_555 1_555
H4 C27 1_555 1_555
C28 C23 1_555 1_555
H5 C28 1_555 1_555
C29 P1 1_555 1_555
C30 C29 1_555 1_555
H6 C30 1_555 1_555
C31 C30 1_555 1_555
H7 C31 1_555 1_555
C32 C31 1_555 1_555
H8 C32 1_555 1_555
C33 C32 1_555 1_555
H9 C33 1_555 1_555
C34 C29 1_555 1_555
H10 C34 1_555 1_555
C35 P1 1_555 1_555
C36 C35 1_555 1_555
H11 C36 1_555 1_555
C37 C36 1_555 1_555
H12 C37 1_555 1_555
C38 C37 1_555 1_555
H13 C38 1_555 1_555
C39 C38 1_555 1_555
H14 C39 1_555 1_555
C40 C35 1_555 1_555
H15 C40 1_555 1_555
C41 P1 1_555 1_555
C42 C41 1_555 1_555
H16 C42 1_555 1_555
C43 C42 1_555 1_555
H17 C43 1_555 1_555
C44 C43 1_555 1_555
H18 C44 1_555 1_555
C45 C44 1_555 1_555
H19 C45 1_555 1_555
C46 C41 1_555 1_555
H20 C46 1_555 1_555
P2 C47 1_555 1_555
C47 C48 1_555 1_555
C48 H21 1_555 1_555
C49 C48 1_555 1_555
H22 C49 1_555 1_555
C50 C49 1_555 1_555
H23 C50 1_555 1_555
C51 C50 1_555 1_555
H24 C51 1_555 1_555
C52 C47 1_555 1_555
H25 C52 1_555 1_555
C53 P2 1_555 1_555
C54 C53 1_555 1_555
H26 C54 1_555 1_555
C55 C54 1_555 1_555
H27 C55 1_555 1_555
C56 C55 1_555 1_555
H28 C56 1_555 1_555
C57 C56 1_555 1_555
H29 C57 1_555 1_555
C58 C53 1_555 1_555
H30 C58 1_555 1_555
C59 P2 1_555 1_555
C60 C59 1_555 1_555
H31 C60 1_555 1_555
C61 C60 1_555 1_555
H32 C61 1_555 1_555
C62 C61 1_555 1_555
H33 C62 1_555 1_555
C63 C62 1_555 1_555
H34 C63 1_555 1_555
C64 C59 1_555 1_555
H35 C64 1_555 1_555
C65 P2 1_555 1_555
C66 C65 1_555 1_555
H36 C66 1_555 1_555
C67 C66 1_555 1_555
H37 C67 1_555 1_555
C68 C67 1_555 1_555
H38 C68 1_555 1_555
C69 C68 1_555 1_555
H39 C69 1_555 1_555
C70 C65 1_555 1_555
H40 C70 1_555 1_555
P3 C71 1_555 1_555
C71 C72 1_555 1_555
C72 H41 1_555 1_555
C73 C72 1_555 1_555
H42 C73 1_555 1_555
C74 C73 1_555 1_555
H43 C74 1_555 1_555
C75 C74 1_555 1_555
H44 C75 1_555 1_555
C76 C71 1_555 1_555
H45 C76 1_555 1_555
C77 P3 1_555 1_555
C78 C77 1_555 1_555
H46 C78 1_555 1_555
C79 C78 1_555 1_555
H47 C79 1_555 1_555
C80 C79 1_555 1_555
H48 C80 1_555 1_555
C81 C80 1_555 1_555
H49 C81 1_555 1_555
C82 C77 1_555 1_555
H50 C82 1_555 1_555
C83 P3 1_555 1_555
C84 C83 1_555 1_555
H51 C84 1_555 1_555
C85 C84 1_555 1_555
H52 C85 1_555 1_555
C86 C85 1_555 1_555
H53 C86 1_555 1_555
C87 C86 1_555 1_555
H54 C87 1_555 1_555
C88 C83 1_555 1_555
H55 C88 1_555 1_555
C89 P3 1_555 1_555
C90 C89 1_555 1_555
H56 C90 1_555 1_555
C91 C90 1_555 1_555
H57 C91 1_555 1_555
C92 C91 1_555 1_555
H58 C92 1_555 1_555
C93 C92 1_555 1_555
H59 C93 1_555 1_555
C94 C89 1_555 1_555
H60 C94 1_555 1_555
Cu1_2 N12 1_555 1_555
Cu1_3 N15 1_555 1_555
Cu2_2 N18 1_555 1_555
Cu2_3 N21 1_555 1_555
Cu3_2 N24 1_555 1_555
Cu3_3 N27 1_555 1_555
Cu4_2 N30 1_555 1_555
Cu4_3 N33 1_555 1_555
N12_2 Cu1 1_555 1_555
N15_2 Cu1 1_555 1_555
N18_2 Cu2 1_555 1_555
N21_2 Cu2 1_555 1_555
N24_2 Cu3 1_555 1_555
N27_2 Cu3 1_555 1_555
N30_2 Cu4 1_555 1_555
N33_2 Cu4 1_555 1_555
C27 C28 1_555 1_555
C33 C34 1_555 1_555
C39 C40 1_555 1_555
C45 C46 1_555 1_555
C51 C52 1_555 1_555
C57 C58 1_555 1_555
C63 C64 1_555 1_555
C69 C70 1_555 1_555
C75 C76 1_555 1_555
C81 C82 1_555 1_555
C87 C88 1_555 1_555
C93 C94 1_555 1_555

#END
