
#######################################################################
#
#                 Cambridge Crystallographic Data Centre
#                                CCDC 
#
#######################################################################
#
# If this CIF has been generated from an entry in the Cambridge 
# Structural Database, then it will include bibliographic, chemical, 
# crystal, experimental, refinement or atomic coordinate data resulting 
# from the CCDC's data processing and validation procedures.
#
#######################################################################

data_TEWJAH
_symmetry_cell_setting           triclinic
_symmetry_space_group_name_H-M   'P -1'
_symmetry_Int_Tables_number      2
_space_group_name_Hall           '-P 1'
loop_
_symmetry_equiv_pos_site_id
_symmetry_equiv_pos_as_xyz
1 x,y,z
2 -x,-y,-z
_cell_length_a                   7.9261(8)
_cell_length_b                   12.1329(15)
_cell_length_c                   14.847(2)
_cell_angle_alpha                103.845(5)
_cell_angle_beta                 101.424(5)
_cell_angle_gamma                92.618(4)
_cell_volume                     1352.32
loop_
_atom_site_label
_atom_site_type_symbol
_atom_site_fract_x
_atom_site_fract_y
_atom_site_fract_z
Mn1 Mn 0.72954(5) 0.96179(3) 0.91789(3)
C1 C 1.0496(3) 1.2626(2) 0.9195(2)
C2 C 1.1654(4) 1.3537(3) 0.9759(2)
H1 H 1.2317 1.3489 1.0337
C3 C 1.1805(5) 1.4508(3) 0.9450(2)
C4 C 1.0883(5) 1.4623(3) 0.8602(3)
H2 H 1.1020 1.5286 0.8402
C5 C 0.9749(5) 1.3713(3) 0.8062(3)
C6 C 0.9524(4) 1.2721(3) 0.8340(2)
H3 H 0.8728 1.2123 0.7958
C7 C 1.0296(3) 1.1546(2) 0.9521(2)
C8 C 0.2643(3) 0.8027(2) 0.80328(18)
C9 C 0.3071(4) 0.6944(2) 0.76618(19)
H4 H 0.3849 0.6593 0.8032
C10 C 0.2319(4) 0.6394(3) 0.6731(2)
C11 C 0.1238(4) 0.6894(3) 0.6141(2)
H5 H 0.0786 0.6522 0.5507
C12 C 0.0856(4) 0.7973(3) 0.6531(2)
C13 C 0.1491(3) 0.8547(3) 0.74745(19)
H6 H 0.1154 0.9260 0.7725
C14 C 0.3496(3) 0.8673(2) 0.90394(18)
C15 C 0.4924(4) 1.1514(2) 0.8473(2)
H7 H 0.5197 1.1896 0.9114
C16 C 0.3943(4) 1.2036(3) 0.7836(2)
H8 H 0.3615 1.2763 0.8047
C17 C 0.3473(4) 1.1475(3) 0.6906(2)
H9 H 0.2799 1.1808 0.6476
C18 C 0.4004(4) 1.0390(3) 0.6594(2)
C19 C 0.3519(4) 0.9720(3) 0.5634(2)
H10 H 0.2814 1.0007 0.5182
C20 C 0.4058(5) 0.8690(3) 0.5374(2)
H11 H 0.3697 0.8266 0.4747
C21 C 0.5178(4) 0.8222(3) 0.6036(2)
C22 C 0.5785(4) 0.7148(3) 0.5795(2)
H12 H 0.5470 0.6701 0.5173
C23 C 0.6829(4) 0.6760(3) 0.6465(2)
H13 H 0.7229 0.6044 0.6309
C24 C 0.7300(4) 0.7449(3) 0.7397(2)
H14 H 0.8014 0.7173 0.7853
C25 C 0.5705(3) 0.8855(2) 0.69897(18)
C26 C 0.5066(3) 0.9950(2) 0.72750(18)
N1 N 1.3017(6) 1.5479(3) 1.0056(3)
N2 N 0.8734(6) 1.3811(4) 0.7146(3)
N3 N 0.2739(5) 0.5234(3) 0.6343(2)
N4 N -0.0277(4) 0.8549(4) 0.5920(2)
N5 N 0.5485(3) 1.05021(19) 0.82107(15)
N6 N 0.6775(3) 0.84759(19) 0.76576(15)
O1 O 0.9291(3) 1.07453(16) 0.89543(14)
O2 O 1.1165(3) 1.15746(17) 1.03259(14)
O3 O 1.3163(7) 1.6316(3) 0.9757(3)
O4 O 1.3779(5) 1.5404(3) 1.0820(3)
O5 O 0.9099(6) 1.4618(4) 0.6853(3)
O6 O 0.7550(7) 1.3098(4) 0.6741(3)
O7 O 0.5041(2) 0.85559(17) 0.93273(13)
O8 O 0.2546(3) 0.9270(2) 0.94837(15)
O9 O 0.3495(6) 0.4735(3) 0.6891(3)
O10 O 0.2290(5) 0.4833(3) 0.5492(2)
O11 O -0.0749(4) 0.8054(3) 0.5077(2)
O12 O -0.0671(4) 0.9484(3) 0.6272(2)
Mn1A Mn 1.27046(5) 1.03821(3) 1.08211(3)
Mn1A_2 Mn 0.27046(5) 1.03821(3) 1.08211(3)
O2A O 0.8835(3) 0.84254(17) 0.96741(14)
O8A O 0.7454(3) 1.0730(2) 1.05163(15)
loop_
_geom_bond_atom_site_label_1
_geom_bond_atom_site_label_2
_geom_bond_site_symmetry_1
_geom_bond_site_symmetry_2
Mn1 N5 1_555 1_555
C1 C2 1_555 1_555
C2 H1 1_555 1_555
C3 C2 1_555 1_555
C4 C3 1_555 1_555
H2 C4 1_555 1_555
C5 C4 1_555 1_555
C6 C1 1_555 1_555
H3 C6 1_555 1_555
C7 C1 1_555 1_555
C8 C9 1_555 1_555
C9 H4 1_555 1_555
C10 C9 1_555 1_555
C11 C10 1_555 1_555
H5 C11 1_555 1_555
C12 C11 1_555 1_555
C13 C8 1_555 1_555
H6 C13 1_555 1_555
C14 C8 1_555 1_555
C15 H7 1_555 1_555
C16 C15 1_555 1_555
H8 C16 1_555 1_555
C17 C16 1_555 1_555
H9 C17 1_555 1_555
C18 C17 1_555 1_555
C19 C18 1_555 1_555
H10 C19 1_555 1_555
C20 C19 1_555 1_555
H11 C20 1_555 1_555
C21 C20 1_555 1_555
C22 C21 1_555 1_555
H12 C22 1_555 1_555
C23 C22 1_555 1_555
H13 C23 1_555 1_555
C24 C23 1_555 1_555
H14 C24 1_555 1_555
C25 C21 1_555 1_555
C26 C18 1_555 1_555
N1 C3 1_555 1_555
N2 C5 1_555 1_555
N3 C10 1_555 1_555
N4 C12 1_555 1_555
N5 C15 1_555 1_555
N6 Mn1 1_555 1_555
O1 Mn1 1_555 1_555
O2 C7 1_555 1_555
O3 N1 1_555 1_555
O4 N1 1_555 1_555
O5 N2 1_555 1_555
O6 N2 1_555 1_555
O7 Mn1 1_555 1_555
O8 C14 1_555 1_555
O9 N3 1_555 1_555
O10 N3 1_555 1_555
O11 N4 1_555 1_555
O12 N4 1_555 1_555
Mn1A O2 1_555 1_555
Mn1A_2 O8 1_555 1_555
O2A Mn1 1_555 1_555
O8A Mn1 1_555 1_555
C5 C6 1_555 1_555
C7 O1 1_555 1_555
C12 C13 1_555 1_555
C14 O7 1_555 1_555
C24 N6 1_555 1_555
C25 C26 1_555 1_555
C25 N6 1_555 1_555
C26 N5 1_555 1_555

#END
