
#######################################################################
#
#                 Cambridge Crystallographic Data Centre
#                                CCDC 
#
#######################################################################
#
# If this CIF has been generated from an entry in the Cambridge 
# Structural Database, then it will include bibliographic, chemical, 
# crystal, experimental, refinement or atomic coordinate data resulting 
# from the CCDC's data processing and validation procedures.
#
#######################################################################

data_TEWKOW
_symmetry_cell_setting           triclinic
_symmetry_space_group_name_H-M   'P -1'
_symmetry_Int_Tables_number      2
_space_group_name_Hall           '-P 1'
loop_
_symmetry_equiv_pos_site_id
_symmetry_equiv_pos_as_xyz
1 x,y,z
2 -x,-y,-z
_cell_length_a                   9.771(3)
_cell_length_b                   10.739(3)
_cell_length_c                   11.249(4)
_cell_angle_alpha                75.946(3)
_cell_angle_beta                 65.306(3)
_cell_angle_gamma                86.073(4)
_cell_volume                     1039.6
loop_
_atom_site_label
_atom_site_type_symbol
_atom_site_fract_x
_atom_site_fract_y
_atom_site_fract_z
C1 C 0.359(2) 0.4989(10) 1.0029(10)
C2 C 0.437(3) 0.6148(18) 0.9461(18)
H1 H 0.3975 0.6895 0.9128
C3 C 0.201(2) 0.5025(13) 1.0056(13)
C4 C 0.417(3) 0.3905(14) 1.0570(16)
H2 H 0.3562 0.3161 1.0983
O1 O 0.1470(18) 0.5988(6) 0.9561(6)
O2 O 0.123(2) 0.3904(5) 1.0637(6)
H3 H 0.0406 0.3985 1.0608
C1A C 0.641(2) 0.5011(10) 0.9971(10)
C2A C 0.563(3) 0.3852(18) 1.0539(18)
H1A H 0.6025 0.3105 1.0872
C3A C 0.799(2) 0.4975(13) 0.9944(13)
C4A C 0.583(3) 0.6095(14) 0.9430(16)
H2A H 0.6438 0.6839 0.9017
O1A O 0.8530(18) 0.4012(6) 1.0439(6)
O2A O 0.877(2) 0.6096(5) 0.9363(6)
H3A H 0.9594 0.6015 0.9392
Co1 Co 0.75321(7) 0.80208(5) 0.53301(5)
O3 O 0.7827(3) 0.9600(2) 0.3659(2)
O4 O 0.6521(3) 0.8841(3) 0.6926(2)
C5 C 0.9272(4) 0.9479(3) 0.1378(3)
O5 O 0.8675(4) 0.7744(2) 0.3301(2)
O6 O 0.9675(3) 0.8371(3) 0.5259(3)
H4 H 1.0297 0.8778 0.4490
H5 H 1.0060 0.7703 0.5562
C6 C 0.5982(4) 0.9745(3) 0.8779(3)
C7 C 0.8540(4) 0.8918(4) 0.2858(4)
C8 C 0.9329(5) 1.0789(3) 0.0878(4)
H6 H 0.8885 1.1325 0.1463
C9 C 0.6527(4) 1.0063(4) 0.9626(4)
H7 H 0.7562 1.0107 0.9372
N1 N 0.5352(4) 0.7411(3) 0.5662(3)
C10 C 0.9954(5) 0.8691(3) 0.0494(4)
H8 H 0.9930 0.7807 0.0826
C11 C 0.4442(5) 0.9684(4) 0.9161(4)
H9 H 0.4061 0.9473 0.8600
N2 N 0.7515(6) 0.6051(4) 0.6175(3)
C12 C 0.7061(5) 0.9458(4) 0.7462(4)
C13 C 0.6235(8) 0.5408(4) 0.6461(4)
C14 C 0.4609(19) 0.3496(9) 0.7288(10)
H10 H 0.4448 0.2614 0.7645
C15 C 0.5073(6) 0.6133(4) 0.6198(4)
C16 C 0.6016(12) 0.4063(5) 0.7012(5)
C17 C 0.8617(8) 0.5391(5) 0.6393(5)
H11 H 0.9508 0.5821 0.6195
C18 C 0.8470(14) 0.4054(8) 0.6918(7)
H12 H 0.9272 0.3622 0.7048
C19 C 0.4291(6) 0.8113(5) 0.5425(5)
H13 H 0.4487 0.8988 0.5040
C20 C 0.7276(16) 0.3420(7) 0.7219(8)
H14 H 0.7209 0.2538 0.7575
C21 C 0.2896(7) 0.7589(8) 0.5730(7)
H15 H 0.2158 0.8109 0.5575
C22 C 0.3704(9) 0.5543(7) 0.6493(5)
C23 C 0.2613(9) 0.6300(10) 0.6261(7)
H16 H 0.1681 0.5936 0.6464
C24 C 0.3552(15) 0.4145(9) 0.7067(9)
H17 H 0.2654 0.3717 0.7277
O7 O 0.8394(4) 0.9829(4) 0.7003(3)
Co1A Co 1.24679(7) 1.19792(5) -0.53301(5)
Co1A_2 Co 0.24679(7) 1.19792(5) 1.46699(5)
O3A O 1.2173(3) 1.0400(2) -0.3659(2)
O4A O 0.3479(3) 1.1159(3) 1.3074(2)
O4A_2 O 1.3479(3) 1.1159(3) -0.6926(2)
C5A C 1.0728(4) 1.0521(3) -0.1378(3)
O5A O 1.1325(4) 1.2256(2) -0.3301(2)
O6A O 1.0325(3) 1.1629(3) -0.5259(3)
H4A H 0.9703 1.1222 -0.4490
H5A H 0.9940 1.2297 -0.5562
C6A C 0.4018(4) 1.0255(3) 1.1221(3)
C7A C 1.1460(4) 1.1082(4) -0.2858(4)
C8A C 1.0671(5) 0.9211(3) -0.0878(4)
H6A H 1.1115 0.8675 -0.1463
C9A C 0.3473(4) 0.9937(4) 1.0374(4)
H7A H 0.2438 0.9893 1.0628
N1A N 1.4648(4) 1.2589(3) -0.5662(3)
C10A C 1.0046(5) 1.1309(3) -0.0494(4)
H8A H 1.0070 1.2193 -0.0826
C11A C 0.5558(5) 1.0316(4) 1.0839(4)
H9A H 0.5939 1.0527 1.1400
N2A N 1.2485(6) 1.3949(4) -0.6175(3)
C12A C 0.2939(5) 1.0542(4) 1.2538(4)
C13A C 1.3765(8) 1.4592(4) -0.6461(4)
C14A C 1.5391(19) 1.6504(9) -0.7288(10)
H10A H 1.5552 1.7386 -0.7645
C15A C 1.4927(6) 1.3867(4) -0.6198(4)
C16A C 1.3984(12) 1.5937(5) -0.7012(5)
C17A C 1.1383(8) 1.4609(5) -0.6393(5)
H11A H 1.0492 1.4179 -0.6195
C18A C 1.1530(14) 1.5946(8) -0.6918(7)
H12A H 1.0728 1.6378 -0.7048
C19A C 1.5709(6) 1.1887(5) -0.5425(5)
H13A H 1.5513 1.1012 -0.5040
C20A C 1.2724(16) 1.6580(7) -0.7219(8)
H14A H 1.2791 1.7462 -0.7575
C21A C 1.7104(7) 1.2411(8) -0.5730(7)
H15A H 1.7842 1.1891 -0.5575
C22A C 1.6296(9) 1.4457(7) -0.6493(5)
C23A C 1.7387(9) 1.3700(10) -0.6261(7)
H16A H 1.8319 1.4064 -0.6464
C24A C 1.6448(15) 1.5855(9) -0.7067(9)
H17A H 1.7346 1.6283 -0.7277
O7A O 0.1606(4) 1.0171(4) 1.2997(3)
loop_
_geom_bond_atom_site_label_1
_geom_bond_atom_site_label_2
_geom_bond_site_symmetry_1
_geom_bond_site_symmetry_2
C1 C2 1_555 1_555
C2 H1 1_555 1_555
C3 C1 1_555 1_555
C4 C1 1_555 1_555
H2 C4 1_555 1_555
O1 C3 1_555 1_555
O2 C3 1_555 1_555
H3 O2 1_555 1_555
Co1 O3 1_555 1_555
O3 C7 1_555 1_555
O4 Co1 1_555 1_555
C5 C7 1_555 1_555
O5 Co1 1_555 1_555
O6 Co1 1_555 1_555
H4 O6 1_555 1_555
H5 O6 1_555 1_555
C6 C9 1_555 1_555
C7 O5 1_555 1_555
C8 C5 1_555 1_555
H6 C8 1_555 1_555
C9 H7 1_555 1_555
N1 Co1 1_555 1_555
C10 C5 1_555 1_555
H8 C10 1_555 1_555
C11 C6 1_555 1_555
H9 C11 1_555 1_555
N2 Co1 1_555 1_555
C12 O4 1_555 1_555
C13 N2 1_555 1_555
C14 H10 1_555 1_555
C15 N1 1_555 1_555
C16 C13 1_555 1_555
C17 N2 1_555 1_555
H11 C17 1_555 1_555
C18 C17 1_555 1_555
H12 C18 1_555 1_555
C19 N1 1_555 1_555
H13 C19 1_555 1_555
C20 C16 1_555 1_555
H14 C20 1_555 1_555
C21 C19 1_555 1_555
H15 C21 1_555 1_555
C22 C15 1_555 1_555
C23 C21 1_555 1_555
H16 C23 1_555 1_555
C24 C14 1_555 1_555
H17 C24 1_555 1_555
O7 C12 1_555 1_555
C1A C2A 1_555 1_555
C2A C4 1_555 1_555
H1A C2A 1_555 1_555
C3A C1A 1_555 1_555
C4A C2 1_555 1_555
H2A C4A 1_555 1_555
O1A C3A 1_555 1_555
O2A C3A 1_555 1_555
H3A O2A 1_555 1_555
Co1A O3A 1_555 1_555
Co1A_2 O4A 1_555 1_555
O3A C7A 1_555 1_555
O4A C12A 1_555 1_555
O4A_2 Co1A 1_555 1_555
C5A C7A 1_555 1_555
O5A Co1A 1_555 1_555
O6A Co1A 1_555 1_555
H4A O6A 1_555 1_555
H5A O6A 1_555 1_555
C6A C9A 1_555 1_555
C7A O5A 1_555 1_555
C8A C10 1_555 1_555
H6A C8A 1_555 1_555
C9A C11 1_555 1_555
H7A C9A 1_555 1_555
N1A Co1A 1_555 1_555
C10A C8 1_555 1_555
H8A C10A 1_555 1_555
C11A C9 1_555 1_555
H9A C11A 1_555 1_555
N2A Co1A 1_555 1_555
C12A C6A 1_555 1_555
C13A N2A 1_555 1_555
C14A H10A 1_555 1_555
C15A N1A 1_555 1_555
C16A C13A 1_555 1_555
C17A N2A 1_555 1_555
H11A C17A 1_555 1_555
C18A C17A 1_555 1_555
H12A C18A 1_555 1_555
C19A N1A 1_555 1_555
H13A C19A 1_555 1_555
C20A C16A 1_555 1_555
H14A C20A 1_555 1_555
C21A C19A 1_555 1_555
H15A C21A 1_555 1_555
C22A C15A 1_555 1_555
C23A C21A 1_555 1_555
H16A C23A 1_555 1_555
C24A C14A 1_555 1_555
H17A C24A 1_555 1_555
O7A C12A 1_555 1_555
C6 C12 1_555 1_555
C13 C15 1_555 1_555
C14 C16 1_555 1_555
C18 C20 1_555 1_555
C22 C23 1_555 1_555
C22 C24 1_555 1_555
C1A C4A 1_555 1_555
C5A C8A 1_555 1_555
C5A C10A 1_555 1_555
C6A C11A 1_555 1_555
C13A C15A 1_555 1_555
C14A C16A 1_555 1_555
C18A C20A 1_555 1_555
C22A C23A 1_555 1_555
C22A C24A 1_555 1_555

#END
