
#######################################################################
#
#                 Cambridge Crystallographic Data Centre
#                                CCDC 
#
#######################################################################
#
# If this CIF has been generated from an entry in the Cambridge 
# Structural Database, then it will include bibliographic, chemical, 
# crystal, experimental, refinement or atomic coordinate data resulting 
# from the CCDC's data processing and validation procedures.
#
#######################################################################

data_TEWLEN
_symmetry_cell_setting           triclinic
_symmetry_space_group_name_H-M   'P -1'
_symmetry_Int_Tables_number      2
_space_group_name_Hall           '-P 1'
loop_
_symmetry_equiv_pos_site_id
_symmetry_equiv_pos_as_xyz
1 x,y,z
2 -x,-y,-z
_cell_length_a                   5.2534(18)
_cell_length_b                   7.406(3)
_cell_length_c                   14.792(5)
_cell_angle_alpha                84.195(5)
_cell_angle_beta                 80.014(5)
_cell_angle_gamma                78.053(5)
_cell_volume                     553.239
loop_
_atom_site_label
_atom_site_type_symbol
_atom_site_fract_x
_atom_site_fract_y
_atom_site_fract_z
O1 O -0.2620(5) 0.4212(4) -0.10674(15)
H1 H -0.2530 0.4715 -0.1694
H2 H -0.1027 0.3394 -0.0943
Cu1 Cu -0.5000 0.5000 0.0000
O2 O -0.2967(4) 0.3248(3) 0.07841(14)
O3 O 0.1007(5) 0.2406(4) -0.00704(16)
C1 C -0.0579(6) 0.2394(4) 0.0647(2)
C2 C 0.0288(5) 0.1252(4) 0.14904(18)
C3 C -0.1342(5) 0.1327(4) 0.23330(18)
H3 H -0.3005 0.2083 0.2391
C4 C -0.0500(5) 0.0286(4) 0.30788(18)
H4 H -0.1588 0.0352 0.3647
C5 C 0.3510(5) -0.0936(4) 0.21934(18)
H5 H 0.5154 -0.1715 0.2151
N1 N 0.1887(4) -0.0835(3) 0.30026(14)
C6 C 0.2755(5) 0.0105(4) 0.14298(18)
H6 H 0.3892 0.0043 0.0872
C7 C 0.2719(5) -0.1963(3) 0.38290(17)
H7 H 0.4008 -0.3047 0.3634
H8 H 0.1205 -0.2384 0.4194
C8 C 0.3894(4) -0.0904(3) 0.44208(15)
C9 C 0.3370(5) 0.1018(3) 0.44124(16)
H9 H 0.2270 0.1709 0.4021
C10 C 0.5528(5) -0.1912(3) 0.50180(16)
H10 H 0.5885 -0.3197 0.5035
O1A O -0.7380(5) 0.5788(4) 0.10674(15)
H1A H -0.7470 0.5285 0.1694
H2A H -0.8973 0.6606 0.0943
Cu1_2 Cu 1.5000 -0.5000 1.0000
O2A O 1.2967(4) -0.3248(3) 0.92159(14)
O2A_2 O -0.7033(4) 0.6752(3) -0.07841(14)
O3A O 0.8993(5) -0.2406(4) 1.00704(16)
C1A C 1.0579(6) -0.2394(4) 0.9353(2)
C2A C 0.9712(5) -0.1252(4) 0.85096(18)
C3A C 1.1342(5) -0.1327(4) 0.76670(18)
H3A H 1.3005 -0.2083 0.7609
C4A C 1.0500(5) -0.0286(4) 0.69212(18)
H4A H 1.1588 -0.0352 0.6353
C5A C 0.6490(5) 0.0936(4) 0.78066(18)
H5A H 0.4846 0.1715 0.7849
N1A N 0.8113(4) 0.0835(3) 0.69974(14)
C6A C 0.7245(5) -0.0105(4) 0.85702(18)
H6A H 0.6108 -0.0043 0.9128
C7A C 0.7281(5) 0.1963(3) 0.61710(17)
H7A H 0.5992 0.3047 0.6366
H8A H 0.8795 0.2384 0.5806
C8A C 0.6106(4) 0.0904(3) 0.55792(15)
C9A C 0.6630(5) -0.1018(3) 0.55876(16)
H9A H 0.7730 -0.1709 0.5979
C10A C 0.4472(5) 0.1912(3) 0.49820(16)
H10A H 0.4115 0.3197 0.4965
N2 N -0.0287(5) 0.5003(3) 0.31198(17)
O4 O -0.1457(5) 0.6336(4) 0.2698(2)
O5 O -0.1294(6) 0.4427(4) 0.38729(18)
O6 O 0.2014(4) 0.4281(3) 0.27746(15)
loop_
_geom_bond_atom_site_label_1
_geom_bond_atom_site_label_2
_geom_bond_site_symmetry_1
_geom_bond_site_symmetry_2
O1 H1 1_555 1_555
H2 O1 1_555 1_555
Cu1 O1 1_555 1_555
O2 Cu1 1_555 1_555
O3 C1 1_555 1_555
C1 O2 1_555 1_555
C2 C1 1_555 1_555
C3 C2 1_555 1_555
H3 C3 1_555 1_555
C4 C3 1_555 1_555
H4 C4 1_555 1_555
C5 H5 1_555 1_555
N1 C4 1_555 1_555
C6 C2 1_555 1_555
H6 C6 1_555 1_555
C7 N1 1_555 1_555
H7 C7 1_555 1_555
H8 C7 1_555 1_555
C8 C7 1_555 1_555
C9 C8 1_555 1_555
H9 C9 1_555 1_555
C10 C8 1_555 1_555
H10 C10 1_555 1_555
N2 O4 1_555 1_555
O5 N2 1_555 1_555
O6 N2 1_555 1_555
O1A Cu1 1_555 1_555
H1A O1A 1_555 1_555
H2A O1A 1_555 1_555
Cu1_2 O2A 1_555 1_555
O2A C1A 1_555 1_555
O2A_2 Cu1 1_555 1_555
O3A C1A 1_555 1_555
C1A C2A 1_555 1_555
C2A C3A 1_555 1_555
C3A H3A 1_555 1_555
C4A C3A 1_555 1_555
H4A C4A 1_555 1_555
C5A H5A 1_555 1_555
N1A C4A 1_555 1_555
C6A C2A 1_555 1_555
H6A C6A 1_555 1_555
C7A N1A 1_555 1_555
H7A C7A 1_555 1_555
H8A C7A 1_555 1_555
C8A C7A 1_555 1_555
C9A C10 1_555 1_555
H9A C9A 1_555 1_555
C10A C9 1_555 1_555
H10A C10A 1_555 1_555
C5 N1 1_555 1_555
C5 C6 1_555 1_555
C5A N1A 1_555 1_555
C5A C6A 1_555 1_555
C8A C9A 1_555 1_555
C8A C10A 1_555 1_555

#END
