
#######################################################################
#
#                 Cambridge Crystallographic Data Centre
#                                CCDC 
#
#######################################################################
#
# If this CIF has been generated from an entry in the Cambridge 
# Structural Database, then it will include bibliographic, chemical, 
# crystal, experimental, refinement or atomic coordinate data resulting 
# from the CCDC's data processing and validation procedures.
#
#######################################################################

data_TEWLIR
_symmetry_cell_setting           monoclinic
_symmetry_space_group_name_H-M   'P 21/c'
_symmetry_Int_Tables_number      14
_space_group_name_Hall           '-P 2ybc'
loop_
_symmetry_equiv_pos_site_id
_symmetry_equiv_pos_as_xyz
1 x,y,z
2 -x,1/2+y,1/2-z
3 -x,-y,-z
4 x,1/2-y,1/2+z
_cell_length_a                   10.222(3)
_cell_length_b                   25.287(7)
_cell_length_c                   9.277(3)
_cell_angle_alpha                90
_cell_angle_beta                 93.572(5)
_cell_angle_gamma                90
_cell_volume                     2393.29
loop_
_atom_site_label
_atom_site_type_symbol
_atom_site_fract_x
_atom_site_fract_y
_atom_site_fract_z
O1 O 0.2010(4) 0.16891(12) 0.5257(3)
H1 H 0.2102 0.1937 0.4486
H2 H 0.1972 0.1926 0.6062
O2 O -0.0026(2) 0.06211(9) 0.5788(2)
H3 H -0.0650 0.0624 0.4971
H4 H 0.0035 0.0309 0.6379
O3 O 0.3442(2) 0.05625(10) 0.4715(3)
H5 H 0.4169 0.0564 0.5422
H6 H 0.3413 0.0261 0.4084
Cu1 Cu 0.17231(4) 0.087007(18) 0.52879(4)
O4 O 0.1128(3) 0.09797(11) 0.3310(2)
O5 O 0.0482(3) 0.01893(10) 0.2494(3)
C1 C 0.0601(3) 0.06647(14) 0.2394(3)
C2 C 0.0090(3) 0.09347(12) 0.1006(3)
C3 C -0.0805(3) 0.06822(13) 0.0069(3)
H7 H -0.1113 0.0347 0.0284
C4 C -0.1239(3) 0.09333(13) -0.1190(3)
H8 H -0.1850 0.0768 -0.1824
C5 C 0.0078(3) 0.16622(13) -0.0608(3)
H9 H 0.0382 0.1995 -0.0851
N1 N -0.0789(2) 0.14102(10) -0.1505(3)
C6 C 0.0519(3) 0.14321(13) 0.0661(3)
H10 H 0.1107 0.1611 0.1292
C7 C -0.1263(4) 0.16797(14) -0.2879(4)
H11 H -0.1724 0.1427 -0.3510
H12 H -0.0518 0.1811 -0.3368
C8 C -0.2167(3) 0.21332(14) -0.2577(3)
C9 C -0.3455(4) 0.20389(15) -0.2332(4)
H13 H -0.3777 0.1695 -0.2362
C10 C -0.4273(4) 0.24531(15) -0.2040(4)
H14 H -0.5141 0.2384 -0.1857
C11 C -0.3836(3) 0.29657(13) -0.2015(3)
C12 C -0.2542(4) 0.30607(15) -0.2248(4)
H15 H -0.2219 0.3405 -0.2214
C13 C -0.1717(4) 0.26432(15) -0.2536(4)
H16 H -0.0846 0.2711 -0.2704
C14 C -0.4752(3) 0.34131(14) -0.1724(4)
H17 H -0.4286 0.3675 -0.1125
H18 H -0.5470 0.3279 -0.1193
N2 N -0.5298(2) 0.36732(10) -0.3091(3)
C15 C -0.5842(3) 0.33720(13) -0.4162(4)
H19 H -0.5825 0.3006 -0.4073
C16 C -0.6419(3) 0.35969(13) -0.5378(3)
H20 H -0.6770 0.3385 -0.6125
C17 C -0.6478(3) 0.41420(13) -0.5493(3)
C18 C -0.5928(3) 0.44423(13) -0.4384(3)
H21 H -0.5966 0.4809 -0.4435
C19 C -0.5319(3) 0.41994(13) -0.3192(3)
H22 H -0.4921 0.4404 -0.2456
C20 C -0.7153(3) 0.44037(15) -0.6826(3)
O6 O -0.7658(2) 0.40732(10) -0.7725(2)
O7 O -0.7148(3) 0.48875(11) -0.6900(3)
Cu1C Cu -0.82769(4) 0.412993(18) -0.97121(4)
O6C O 0.2342(2) 0.09268(10) 0.7275(2)
O8 O -0.2172(3) 0.06186(10) 0.3970(3)
H23 H -0.2969 0.0694 0.4425
H24 H -0.2284 0.0307 0.3385
Cl1 Cl 0.21301(9) 0.24658(3) 0.26773(9)
Cl2 Cl 0.60050(9) 0.05446(4) 0.66078(11)
loop_
_geom_bond_atom_site_label_1
_geom_bond_atom_site_label_2
_geom_bond_site_symmetry_1
_geom_bond_site_symmetry_2
O1 H1 1_555 1_555
H2 O1 1_555 1_555
O2 H3 1_555 1_555
H4 O2 1_555 1_555
O3 H5 1_555 1_555
H6 O3 1_555 1_555
Cu1 O1 1_555 1_555
O4 Cu1 1_555 1_555
O5 C1 1_555 1_555
C1 O4 1_555 1_555
C2 C1 1_555 1_555
C3 C2 1_555 1_555
H7 C3 1_555 1_555
C4 C3 1_555 1_555
H8 C4 1_555 1_555
C5 H9 1_555 1_555
N1 C4 1_555 1_555
C6 C2 1_555 1_555
H10 C6 1_555 1_555
C7 N1 1_555 1_555
H11 C7 1_555 1_555
H12 C7 1_555 1_555
C8 C7 1_555 1_555
C9 C8 1_555 1_555
H13 C9 1_555 1_555
C10 C9 1_555 1_555
H14 C10 1_555 1_555
C11 C10 1_555 1_555
C12 C11 1_555 1_555
H15 C12 1_555 1_555
C13 C8 1_555 1_555
H16 C13 1_555 1_555
C14 C11 1_555 1_555
H17 C14 1_555 1_555
H18 C14 1_555 1_555
N2 C14 1_555 1_555
C15 N2 1_555 1_555
H19 C15 1_555 1_555
C16 C15 1_555 1_555
H20 C16 1_555 1_555
C17 C16 1_555 1_555
C18 C17 1_555 1_555
H21 C18 1_555 1_555
C19 N2 1_555 1_555
H22 C19 1_555 1_555
C20 C17 1_555 1_555
O6 C20 1_555 1_555
O7 C20 1_555 1_555
O8 H23 1_555 1_555
H24 O8 1_555 1_555
Cu1C O6 1_555 1_555
O6C Cu1 1_555 1_555
O2 Cu1 1_555 1_555
O3 Cu1 1_555 1_555
C5 N1 1_555 1_555
C5 C6 1_555 1_555
C12 C13 1_555 1_555
C18 C19 1_555 1_555

#END
