
#######################################################################
#
#                 Cambridge Crystallographic Data Centre
#                                CCDC 
#
#######################################################################
#
# If this CIF has been generated from an entry in the Cambridge 
# Structural Database, then it will include bibliographic, chemical, 
# crystal, experimental, refinement or atomic coordinate data resulting 
# from the CCDC's data processing and validation procedures.
#
#######################################################################

data_TEWMIS
_symmetry_cell_setting           monoclinic
_symmetry_space_group_name_H-M   'P n'
_symmetry_Int_Tables_number      7
_space_group_name_Hall           'P -2yac'
loop_
_symmetry_equiv_pos_site_id
_symmetry_equiv_pos_as_xyz
1 x,y,z
2 1/2+x,-y,1/2+z
_cell_length_a                   13.9176(8)
_cell_length_b                   15.4754(9)
_cell_length_c                   15.9670(9)
_cell_angle_alpha                90
_cell_angle_beta                 99.5010(10)
_cell_angle_gamma                90
_cell_volume                     3391.81
loop_
_atom_site_label
_atom_site_type_symbol
_atom_site_fract_x
_atom_site_fract_y
_atom_site_fract_z
Mn1 Mn 0.99890(3) 0.84494(2) 0.90839(3)
N1 N 0.98577(19) 0.85282(14) 0.76058(14)
N2 N 1.0181(2) 0.85236(16) 0.45275(14)
N3 N 1.00514(19) 0.86233(16) 0.36490(13)
N4 N 1.00964(18) 0.82958(16) 0.05361(14)
C1 C 0.9086(2) 0.8910(2) 0.71546(19)
H1 H 0.8626 0.9150 0.7448
C2 C 0.8920(2) 0.8974(2) 0.62788(18)
H2 H 0.8353 0.9231 0.5999
C3 C 0.9601(2) 0.86527(17) 0.58222(16)
C4 C 1.0413(2) 0.82594(18) 0.62853(17)
H3 H 1.0889 0.8020 0.6010
C5 C 1.0512(2) 0.82259(18) 0.71640(17)
H4 H 1.1073 0.7975 0.7462
C6 C 0.9453(2) 0.87188(18) 0.48758(17)
C7 C 0.8468(3) 0.8997(3) 0.4406(2)
H5 H 0.8394 0.8804 0.3827
H6 H 0.8420 0.9616 0.4418
H7 H 0.7964 0.8748 0.4674
C8 C 1.0326(2) 0.79899(17) 0.32401(17)
C9 C 1.0664(4) 0.7150(2) 0.3653(2)
H8 H 1.0369 0.7067 0.4150
H9 H 1.1360 0.7159 0.3812
H10 H 1.0479 0.6685 0.3262
C10 C 1.0253(2) 0.80904(16) 0.23054(16)
C11 C 0.9654(2) 0.87189(19) 0.18843(18)
H11 H 0.9297 0.9082 0.2181
C12 C 0.9594(2) 0.8802(2) 0.10069(17)
H12 H 0.9187 0.9226 0.0730
C13 C 1.0647(3) 0.7685(2) 0.09601(19)
H13 H 1.0994 0.7320 0.0656
C14 C 1.0733(3) 0.7562(2) 0.18230(19)
H14 H 1.1121 0.7116 0.2081
O9 O 0.87354(17) 0.76072(16) 0.89490(12)
H57 H 0.8359(8) 0.7551(18) 0.8489(3)
H58 H 0.8471(7) 0.7451(11) 0.9356(3)
O10 O 0.90024(14) 0.95658(12) 0.90529(14)
H59 H 0.8412(3) 0.9457(5) 0.895(2)
H60 H 0.9127(6) 1.0079(4) 0.8957(13)
O11 O 1.11418(16) 0.93760(15) 0.93006(12)
H61 H 1.1244 0.9559 0.9794
H62 H 1.1342 0.9711 0.8960
O12 O 1.10135(18) 0.74228(15) 0.90445(16)
H63 H 1.0912 0.6902 0.8949
H64 H 1.1599 0.7529 0.9225
Mn1_2 Mn 0.99890(3) 0.84494(2) -0.09161(3)
N4_2 N 1.00964(18) 0.82958(16) 1.05361(14)
Cl1 Cl 0.37959(11) 0.69622(7) 0.63008(14)
O1 O 0.3873(6) 0.6104(3) 0.6026(5)
O2 O 0.4247(7) 0.6998(8) 0.7191(3)
O3 O 0.4337(3) 0.7549(3) 0.5871(3)
O4 O 0.2798(3) 0.7213(3) 0.6231(4)
Cl2 Cl 0.40770(13) 0.80522(11) 0.11636(15)
O5 O 0.3176(3) 0.7608(4) 0.1147(5)
O6 O 0.4791(5) 0.7547(5) 0.1753(5)
O7 O 0.4080(4) 0.8873(3) 0.1526(4)
O8 O 0.4421(6) 0.7979(8) 0.0367(3)
N5 N 0.8065(2) 0.68644(18) 0.73863(17)
N6 N 0.8128(2) 0.67034(19) 0.42888(18)
N7 N 0.7984(2) 0.68339(19) 0.34234(18)
N8 N 0.8128(3) 0.6859(2) 0.03510(19)
C15 C 0.7200(3) 0.7086(2) 0.6986(3)
H15 H 0.6738 0.7262 0.7310
C16 C 0.6931(3) 0.7075(2) 0.6108(2)
H16 H 0.6307 0.7239 0.5855
C17 C 0.7612(3) 0.6812(2) 0.5620(2)
C18 C 0.8514(3) 0.6549(2) 0.6058(2)
H17 H 0.8989 0.6339 0.5764
C19 C 0.8695(3) 0.6602(2) 0.6924(2)
H18 H 0.9309 0.6440 0.7202
C20 C 0.7401(3) 0.6833(2) 0.4674(2)
C21 C 0.6405(3) 0.7022(4) 0.4211(3)
H19 H 0.6415 0.7034 0.3611
H20 H 0.6194 0.7573 0.4388
H21 H 0.5963 0.6581 0.4334
C22 C 0.8187(3) 0.6213(3) 0.2964(2)
C23 C 0.8449(4) 0.5334(2) 0.3299(3)
H22 H 0.8426 0.5320 0.3896
H23 H 0.9094 0.5193 0.3206
H24 H 0.7995 0.4922 0.3011
C24 C 0.8137(3) 0.64131(19) 0.2055(2)
C25 C 0.7681(3) 0.7166(2) 0.1713(2)
H25 H 0.7371 0.7533 0.2045
C26 C 0.7702(3) 0.7354(2) 0.0867(2)
H26 H 0.7398 0.7859 0.0645
C27 C 0.8483(3) 0.6139(3) 0.0684(3)
H27 H 0.8743 0.5763 0.0326
C28 C 0.8515(3) 0.5874(2) 0.1501(2)
H28 H 0.8785 0.5342 0.1682
N9 N 0.5899(3) 0.4939(2) 1.2103(2)
N10 N 0.6366(2) 0.48856(18) 0.9074(2)
N11 N 0.6325(3) 0.49704(19) 0.8211(2)
N12 N 0.6567(4) 0.4719(3) 0.5183(2)
C29 C 0.5545(4) 0.5675(3) 1.1726(3)
H29 H 0.5249 0.6068 1.2044
C30 C 0.5596(3) 0.5885(3) 1.0884(3)
H30 H 0.5359 0.6415 1.0666
C31 C 0.5987(2) 0.5326(2) 1.0382(2)
C32 C 0.6357(3) 0.4546(2) 1.0773(3)
H31 H 0.6653 0.4140 1.0469
C33 C 0.6278(3) 0.4402(3) 1.1573(3)
H32 H 0.6508 0.3872 1.1798
C34 C 0.6045(3) 0.5499(2) 0.9480(2)
C35 C 0.5743(4) 0.6335(3) 0.9087(3)
H33 H 0.5189 0.6547 0.9310
H34 H 0.5574 0.6263 0.8483
H35 H 0.6270 0.6741 0.9210
C36 C 0.7061(3) 0.4800(2) 0.7893(3)
C37 C 0.8039(4) 0.4607(4) 0.8397(4)
H36 H 0.8344 0.4155 0.8123
H37 H 0.7965 0.4424 0.8957
H38 H 0.8436 0.5117 0.8434
C38 C 0.6928(3) 0.4790(2) 0.6947(3)
C39 C 0.6070(4) 0.5107(3) 0.6488(3)
H39 H 0.5607 0.5369 0.6763
C40 C 0.5914(4) 0.5029(3) 0.5624(3)
H40 H 0.5315 0.5204 0.5327
C41 C 0.7357(5) 0.4416(4) 0.5617(4)
H41 H 0.7802 0.4154 0.5322
C42 C 0.7586(4) 0.4455(3) 0.6488(4)
H42 H 0.8186 0.4254 0.6763
N13 N 0.1932(2) -0.0005(2) 0.79435(18)
N14 N 0.18921(18) 0.05631(15) 0.48680(15)
N15 N 0.19589(18) 0.04720(16) 0.40032(15)
N16 N 0.1331(2) 0.02107(19) 0.08511(17)
C43 C 0.1390(3) 0.0502(3) 0.7364(2)
H43 H 0.0916 0.0852 0.7536
C44 C 0.1512(3) 0.0522(3) 0.6521(2)
H44 H 0.1167 0.0921 0.6152
C45 C 0.2133(2) -0.0040(2) 0.62299(19)
C46 C 0.2686(3) -0.0582(2) 0.6829(2)
H45 H 0.3133 -0.0972 0.6672
C47 C 0.2540(3) -0.0511(3) 0.7672(2)
H46 H 0.2917 -0.0863 0.8070
C48 C 0.2193(2) -0.0094(2) 0.53129(19)
C49 C 0.2567(3) -0.0924(2) 0.4994(2)
H47 H 0.3255 -0.0971 0.5194
H48 H 0.2447 -0.0927 0.4385
H49 H 0.2239 -0.1405 0.5202
C50 C 0.1187(2) 0.06503(17) 0.34849(18)
C51 C 0.0272(2) 0.0953(3) 0.3748(2)
H50 H 0.0404 0.1138 0.4330
H51 H -0.0192 0.0489 0.3691
H52 H 0.0012 0.1428 0.3395
C52 C 0.1250(2) 0.05215(18) 0.25642(19)
C53 C 0.0682(3) 0.1007(2) 0.1943(2)
H53 H 0.0267 0.1435 0.2084
C54 C 0.0752(3) 0.0831(2) 0.1089(2)
H54 H 0.0380 0.1161 0.0668
C55 C 0.1879(2) -0.0250(2) 0.1481(2)
H55 H 0.2290 -0.0678 0.1335
C56 C 0.1851(2) -0.01075(19) 0.2320(2)
H56 H 0.2239 -0.0437 0.2730
O13 O 0.0560(2) 0.57566(19) 0.8612(2)
H65 H 0.1100 0.5974 0.8570
H66 H 0.0693 0.5260 0.8889
O14 O 0.9175(5) 0.1297(3) 0.8356(3)
H67 H 0.9092 0.1451 0.7847
H68 H 0.9029 0.0874 0.8609
loop_
_geom_bond_atom_site_label_1
_geom_bond_atom_site_label_2
_geom_bond_site_symmetry_1
_geom_bond_site_symmetry_2
Mn1 N1 1_555 1_555
Cl1 O1 1_555 1_555
Cl2 O5 1_555 1_555
O2 Cl1 1_555 1_555
O3 Cl1 1_555 1_555
O4 Cl1 1_555 1_555
O6 Cl2 1_555 1_555
O7 Cl2 1_555 1_555
O8 Cl2 1_555 1_555
N1 C1 1_555 1_555
N2 N3 1_555 1_555
N3 C8 1_555 1_555
N4 C12 1_555 1_555
N5 C15 1_555 1_555
N6 N7 1_555 1_555
N7 C22 1_555 1_555
N8 C26 1_555 1_555
N9 C29 1_555 1_555
N10 N11 1_555 1_555
N11 C36 1_555 1_555
N12 C40 1_555 1_555
N13 C43 1_555 1_555
N14 N15 1_555 1_555
N15 C50 1_555 1_555
N16 C54 1_555 1_555
C1 H1 1_555 1_555
C2 C1 1_555 1_555
H2 C2 1_555 1_555
C3 C2 1_555 1_555
C4 C3 1_555 1_555
H3 C4 1_555 1_555
C5 N1 1_555 1_555
H4 C5 1_555 1_555
C6 N2 1_555 1_555
C7 C6 1_555 1_555
H5 C7 1_555 1_555
H6 C7 1_555 1_555
H7 C7 1_555 1_555
C8 C9 1_555 1_555
C9 H8 1_555 1_555
H9 C9 1_555 1_555
H10 C9 1_555 1_555
C10 C8 1_555 1_555
C11 C10 1_555 1_555
H11 C11 1_555 1_555
C12 C11 1_555 1_555
H12 C12 1_555 1_555
C13 N4 1_555 1_555
H13 C13 1_555 1_555
C14 C10 1_555 1_555
H14 C14 1_555 1_555
C15 H15 1_555 1_555
C16 C15 1_555 1_555
H16 C16 1_555 1_555
C17 C16 1_555 1_555
C18 C17 1_555 1_555
H17 C18 1_555 1_555
C19 N5 1_555 1_555
H18 C19 1_555 1_555
C20 N6 1_555 1_555
C21 C20 1_555 1_555
H19 C21 1_555 1_555
H20 C21 1_555 1_555
H21 C21 1_555 1_555
C22 C23 1_555 1_555
C23 H22 1_555 1_555
H23 C23 1_555 1_555
H24 C23 1_555 1_555
C24 C22 1_555 1_555
C25 C24 1_555 1_555
H25 C25 1_555 1_555
C26 C25 1_555 1_555
H26 C26 1_555 1_555
C27 N8 1_555 1_555
H27 C27 1_555 1_555
C28 C24 1_555 1_555
H28 C28 1_555 1_555
C29 H29 1_555 1_555
C30 C29 1_555 1_555
H30 C30 1_555 1_555
C31 C30 1_555 1_555
C32 C31 1_555 1_555
H31 C32 1_555 1_555
C33 N9 1_555 1_555
H32 C33 1_555 1_555
C34 N10 1_555 1_555
C35 C34 1_555 1_555
H33 C35 1_555 1_555
H34 C35 1_555 1_555
H35 C35 1_555 1_555
C36 C37 1_555 1_555
C37 H36 1_555 1_555
H37 C37 1_555 1_555
H38 C37 1_555 1_555
C38 C36 1_555 1_555
C39 C38 1_555 1_555
H39 C39 1_555 1_555
C40 C39 1_555 1_555
H40 C40 1_555 1_555
C41 N12 1_555 1_555
H41 C41 1_555 1_555
C42 C38 1_555 1_555
H42 C42 1_555 1_555
C43 H43 1_555 1_555
C44 C43 1_555 1_555
H44 C44 1_555 1_555
C45 C44 1_555 1_555
C46 C45 1_555 1_555
H45 C46 1_555 1_555
C47 N13 1_555 1_555
H46 C47 1_555 1_555
C48 N14 1_555 1_555
C49 C48 1_555 1_555
H47 C49 1_555 1_555
H48 C49 1_555 1_555
H49 C49 1_555 1_555
C50 C51 1_555 1_555
C51 H50 1_555 1_555
H51 C51 1_555 1_555
H52 C51 1_555 1_555
C52 C50 1_555 1_555
C53 C52 1_555 1_555
H53 C53 1_555 1_555
C54 C53 1_555 1_555
H54 C54 1_555 1_555
C55 N16 1_555 1_555
H55 C55 1_555 1_555
C56 C52 1_555 1_555
H56 C56 1_555 1_555
O9 Mn1 1_555 1_555
H57 O9 1_555 1_555
H58 O9 1_555 1_555
O10 Mn1 1_555 1_555
H59 O10 1_555 1_555
H60 O10 1_555 1_555
O11 Mn1 1_555 1_555
H61 O11 1_555 1_555
H62 O11 1_555 1_555
O12 Mn1 1_555 1_555
H63 O12 1_555 1_555
H64 O12 1_555 1_555
O13 H65 1_555 1_555
H66 O13 1_555 1_555
O14 H67 1_555 1_555
H68 O14 1_555 1_555
Mn1_2 N4 1_555 1_555
N4_2 Mn1 1_555 1_555
C3 C6 1_555 1_555
C4 C5 1_555 1_555
C13 C14 1_555 1_555
C17 C20 1_555 1_555
C18 C19 1_555 1_555
C27 C28 1_555 1_555
C31 C34 1_555 1_555
C32 C33 1_555 1_555
C41 C42 1_555 1_555
C45 C48 1_555 1_555
C46 C47 1_555 1_555
C55 C56 1_555 1_555

#END
