
#######################################################################
#
#                 Cambridge Crystallographic Data Centre
#                                CCDC 
#
#######################################################################
#
# If this CIF has been generated from an entry in the Cambridge 
# Structural Database, then it will include bibliographic, chemical, 
# crystal, experimental, refinement or atomic coordinate data resulting 
# from the CCDC's data processing and validation procedures.
#
#######################################################################

data_TEWMEO
_symmetry_cell_setting           monoclinic
_symmetry_space_group_name_H-M   'C 2/c'
_symmetry_Int_Tables_number      15
_space_group_name_Hall           '-C 2yn'
loop_
_symmetry_equiv_pos_site_id
_symmetry_equiv_pos_as_xyz
1 x,y,z
2 1/2+x,1/2+y,z
3 -x,y,1/2-z
4 1/2-x,1/2+y,1/2-z
5 -x,-y,-z
6 1/2-x,1/2-y,-z
7 x,-y,1/2+z
8 1/2+x,1/2-y,1/2+z
_cell_length_a                   23.310(3)
_cell_length_b                   12.2338(17)
_cell_length_c                   10.6075(15)
_cell_angle_alpha                90
_cell_angle_beta                 110.487(2)
_cell_angle_gamma                90
_cell_volume                     2833.62
loop_
_atom_site_label
_atom_site_type_symbol
_atom_site_fract_x
_atom_site_fract_y
_atom_site_fract_z
C1 C 0.29688(12) 0.1863(2) 0.5764(3)
H1 H 0.3290 0.1425 0.6287
C2 C 0.29953(13) 0.1845(2) 1.0518(3)
H2 H 0.3334 0.1392 1.0876
C3 C 0.49245(12) 0.4413(2) 1.1816(2)
H3 H 0.4874 0.5071 1.1350
Cu1 Cu 0.387794(13) 0.31919(3) 0.86626(3)
Cl1 Cl 0.34778(3) 0.59828(5) 0.85211(6)
Cl2 Cl 0.39804(3) 0.00580(5) 0.89290(7)
O1 O 0.41922(10) 0.31510(17) 0.71885(19)
H4 H 0.4447 0.2618 0.7158
H5 H 0.4039 0.3423 0.6367
O2 O 0.47184(8) 0.34669(16) 0.98339(17)
O3 O 0.36149(8) 0.32038(16) 1.02150(18)
O4 O 0.30285(9) 0.2932(2) 0.76063(18)
N1 N 0.48499(9) 0.34659(17) 1.1153(2)
N2 N 0.27824(9) 0.27206(18) 0.63132(19)
N3 N 0.30626(9) 0.28527(18) 1.00953(19)
O5 O 0.34099(13) -0.0128(2) 0.7896(3)
C4 C 0.26806(12) 0.1646(2) 0.4429(3)
H6 H 0.2806 0.1057 0.4035
C5 C 0.49236(13) 0.2515(2) 1.1820(3)
H8 H 0.4870 0.1857 1.1354
O7 O 0.34599(14) 0.5863(2) 0.9849(2)
C6 C 0.24247(12) 0.1487(2) 1.0420(3)
H9 H 0.2374 0.0787 1.0709
O8 O 0.41198(14) 0.1196(2) 0.9045(3)
O9 O 0.28693(13) 0.5861(3) 0.7613(3)
O10 O 0.38436(13) 0.5152(2) 0.8250(3)
O11 O 0.39623(17) -0.0342(3) 1.0148(3)
O12 O 0.37018(17) 0.7023(2) 0.8347(3)
O13 O 0.44420(16) -0.0453(3) 0.8580(5)
C1E C 0.20312(12) 0.3137(2) 0.4236(3)
H1E H 0.1710 0.3575 0.3713
C2E C 0.20047(13) 0.3155(2) 0.9482(3)
H2E H 0.1666 0.3608 0.9124
C3B C 0.50755(12) 0.4413(2) 1.3184(2)
H3B H 0.5126 0.5071 1.3650
Cu1B Cu 0.612206(13) 0.31919(3) 1.63374(3)
Cu1E Cu 0.112206(13) 0.18081(3) 0.13374(3)
Cu1E_2 Cu 0.112206(13) 0.18081(3) 1.13374(3)
Cl1B Cl 0.65222(3) 0.59828(5) 1.64789(6)
Cl2B Cl 0.60196(3) 0.00580(5) 1.60710(7)
O1B O 0.58078(10) 0.31510(17) 1.78115(19)
H4B H 0.5553 0.2618 1.7842
H5B H 0.5961 0.3423 1.8633
O2B O 0.52816(8) 0.34669(16) 1.51661(17)
O3E O 0.13851(8) 0.17962(16) 0.97850(18)
O3B O 0.63851(8) 0.32038(16) 1.47850(18)
O4E O 0.19715(9) 0.2068(2) 0.23937(18)
O4B O 0.69715(9) 0.2932(2) 1.73937(18)
N1B N 0.51501(9) 0.34659(17) 1.3847(2)
N2E N 0.22176(9) 0.22794(18) 0.36868(19)
N3E N 0.19374(9) 0.21473(18) 0.99047(19)
O5B O 0.65901(13) -0.0128(2) 1.7104(3)
C4E C 0.23194(12) 0.3354(2) 0.5571(3)
H6E H 0.2194 0.3943 0.5965
C5B C 0.50764(13) 0.2515(2) 1.3180(3)
H8B H 0.5130 0.1857 1.3646
O7B O 0.65401(14) 0.5863(2) 1.5151(2)
C6E C 0.25753(12) 0.3513(2) 0.9580(3)
H9E H 0.2626 0.4213 0.9291
O8B O 0.58802(14) 0.1196(2) 1.5955(3)
O9B O 0.71307(13) 0.5861(3) 1.7387(3)
O10B O 0.61564(13) 0.5152(2) 1.6750(3)
O11B O 0.60377(17) -0.0342(3) 1.4852(3)
O12B O 0.62982(17) 0.7023(2) 1.6653(3)
O13B O 0.55580(16) -0.0453(3) 1.6420(5)
O6 O 0.5000 0.1538(3) 0.7500
H7 H 0.4994 0.1067 0.8143
H7B H 0.5006 0.1067 0.6857
loop_
_geom_bond_atom_site_label_1
_geom_bond_atom_site_label_2
_geom_bond_site_symmetry_1
_geom_bond_site_symmetry_2
C1 H1 1_555 1_555
C2 H2 1_555 1_555
C3 H3 1_555 1_555
Cu1 O1 1_555 1_555
Cl1 O7 1_555 1_555
Cl2 O5 1_555 1_555
O1 H4 1_555 1_555
H5 O1 1_555 1_555
O2 Cu1 1_555 1_555
O3 Cu1 1_555 1_555
O4 Cu1 1_555 1_555
N1 C3 1_555 1_555
N2 C1 1_555 1_555
N3 C2 1_555 1_555
C4 C1 1_555 1_555
H6 C4 1_555 1_555
O6 H7 1_555 1_555
C5 N1 1_555 1_555
H8 C5 1_555 1_555
C6 C2 1_555 1_555
H9 C6 1_555 1_555
O8 Cu1 1_555 1_555
O9 Cl1 1_555 1_555
O10 Cu1 1_555 1_555
O11 Cl2 1_555 1_555
O12 Cl1 1_555 1_555
O13 Cl2 1_555 1_555
C1E H1E 1_555 1_555
C2E H2E 1_555 1_555
C3B C3 1_555 1_555
H3B C3B 1_555 1_555
Cu1B O1B 1_555 1_555
Cu1E O4E 1_555 1_555
Cu1E_2 O3E 1_555 1_555
Cl1B O7B 1_555 1_555
Cl2B O5B 1_555 1_555
O1B H4B 1_555 1_555
H5B O1B 1_555 1_555
O2B Cu1B 1_555 1_555
O3E N3E 1_555 1_555
O3B Cu1B 1_555 1_555
O4E N2E 1_555 1_555
O4B Cu1B 1_555 1_555
N1B C3B 1_555 1_555
N2E C4 1_555 1_555
N3E C6 1_555 1_555
C4E N2 1_555 1_555
H6E C4E 1_555 1_555
H7B O6 1_555 1_555
C5B C5 1_555 1_555
H8B C5B 1_555 1_555
C6E N3 1_555 1_555
H9E C6E 1_555 1_555
O8B Cu1B 1_555 1_555
O9B Cl1B 1_555 1_555
O10B Cu1B 1_555 1_555
O11B Cl2B 1_555 1_555
O12B Cl1B 1_555 1_555
O13B Cl2B 1_555 1_555
Cl1 O10 1_555 1_555
Cl2 O8 1_555 1_555
O2 N1 1_555 1_555
O3 N3 1_555 1_555
O4 N2 1_555 1_555
C1E N2E 1_555 1_555
C1E C4E 1_555 1_555
C2E N3E 1_555 1_555
C2E C6E 1_555 1_555
Cl1B O10B 1_555 1_555
Cl2B O8B 1_555 1_555
O2B N1B 1_555 1_555
N1B C5B 1_555 1_555

#END
