
#######################################################################
#
#                 Cambridge Crystallographic Data Centre
#                                CCDC 
#
#######################################################################
#
# If this CIF has been generated from an entry in the Cambridge 
# Structural Database, then it will include bibliographic, chemical, 
# crystal, experimental, refinement or atomic coordinate data resulting 
# from the CCDC's data processing and validation procedures.
#
#######################################################################

data_TEWPIW
_symmetry_cell_setting           triclinic
_symmetry_space_group_name_H-M   'P 1'
_symmetry_Int_Tables_number      1
_space_group_name_Hall           'P 1'
loop_
_symmetry_equiv_pos_site_id
_symmetry_equiv_pos_as_xyz
1 x,y,z
_cell_length_a                   10.0391(9)
_cell_length_b                   10.8691(11)
_cell_length_c                   13.7648(12)
_cell_angle_alpha                72.9150(10)
_cell_angle_beta                 70.7980(10)
_cell_angle_gamma                77.463(2)
_cell_volume                     1343.68
loop_
_atom_site_label
_atom_site_type_symbol
_atom_site_fract_x
_atom_site_fract_y
_atom_site_fract_z
Ag1 Ag -0.27832(17) -0.38607(13) 1.10755(12)
Ag2 Ag 0.96536(19) 1.64436(14) -0.26777(12)
Ag3 Ag 0.31078(19) 0.64145(14) 0.39981(14)
N1 N -0.4112(17) -0.5249(15) 1.2208(13)
N2 N -0.8963(18) -1.2198(14) 1.6177(13)
N3 N -0.1787(19) -0.2332(15) 0.9834(13)
N4 N 0.2014(18) 0.4972(15) 0.5214(12)
N5 N 0.8564(18) 1.5021(15) -0.1387(13)
N6 N 0.447(2) 0.7769(16) 0.2861(14)
O1 O 0.785(2) 1.6843(17) -0.3789(18)
H1 H 0.7278 1.7458 -0.3551
H2 H 0.8022 1.7036 -0.4459
C1 C -0.542(2) -0.5286(19) 1.2199(16)
H3 H -0.5775 -0.4657 1.1691
C2 C -0.627(2) -0.6184(18) 1.2882(14)
H4 H -0.7177 -0.6163 1.2827
C3 C -0.5784(19) -0.7110(17) 1.3646(14)
C4 C -0.438(2) -0.7088(19) 1.3672(15)
H5 H -0.3994 -0.7701 1.4172
C5 C -0.361(2) -0.6124(19) 1.2930(15)
H6 H -0.2695 -0.6103 1.2949
C6 C -0.938(2) -1.1370(18) 1.5353(15)
H7 H -1.0262 -1.1392 1.5283
C7 C -0.850(2) -1.0475(17) 1.4598(14)
H8 H -0.8782 -0.9955 1.4010
C8 C -0.724(2) -1.0369(17) 1.4727(15)
C9 C -0.683(2) -1.1250(19) 1.5594(16)
H9 H -0.5965 -1.1247 1.5696
C10 C -0.773(2) -1.2101(19) 1.6278(16)
H10 H -0.7460 -1.2654 1.6859
C11 C -0.669(2) -0.8126(17) 1.4416(14)
H11 H -0.7692 -0.7788 1.4505
H12 H -0.6516 -0.8339 1.5102
C12 C -0.634(2) -0.9360(17) 1.3990(15)
H13 H -0.6497 -0.9141 1.3297
H14 H -0.5343 -0.9704 1.3913
C13 C -0.218(2) -0.1762(18) 0.8953(16)
H15 H -0.2936 -0.2057 0.8873
C14 C -0.157(2) -0.0778(19) 0.8157(16)
H16 H -0.1957 -0.0362 0.7596
C15 C -0.034(2) -0.0420(16) 0.8213(14)
C16 C 0.010(2) -0.1021(18) 0.9114(16)
H17 H 0.0893 -0.0777 0.9186
C17 C -0.060(2) -0.1970(17) 0.9900(15)
H18 H -0.0261 -0.2374 1.0486
C18 C 0.070(2) 0.4812(18) 0.5286(15)
H19 H 0.0277 0.5344 0.4773
C19 C -0.006(2) 0.3897(17) 0.6081(14)
H20 H -0.0993 0.3859 0.6116
C20 C 0.0559(19) 0.3042(16) 0.6821(13)
C21 C 0.195(2) 0.320(2) 0.6735(15)
H21 H 0.2436 0.2643 0.7202
C22 C 0.259(2) 0.4197(19) 0.5950(16)
H22 H 0.3482 0.4330 0.5940
C23 C 0.043(2) 0.0643(16) 0.7357(14)
H23 H 0.0321 0.0666 0.6677
H24 H 0.1437 0.0466 0.7306
C24 C -0.021(2) 0.1985(16) 0.7645(15)
H25 H -0.1214 0.2166 0.7685
H26 H -0.0120 0.1953 0.8333
C25 C 0.725(2) 1.4841(19) -0.1298(17)
H27 H 0.6785 1.5409 -0.1774
C26 C 0.654(2) 1.3881(18) -0.0556(16)
H28 H 0.5640 1.3782 -0.0550
C27 C 0.720(2) 1.3037(18) 0.0205(15)
C28 C 0.852(2) 1.3271(19) 0.0103(17)
H29 H 0.9004 1.2753 0.0586
C29 C 0.916(2) 1.4227(19) -0.0673(17)
H30 H 1.0074 1.4332 -0.0706
C30 C 0.399(3) 0.858(2) 0.2019(18)
H31 H 0.3117 0.8516 0.1951
C31 C 0.485(3) 0.947(2) 0.1283(18)
H32 H 0.4571 0.9955 0.0684
C32 C 0.607(2) 0.9681(19) 0.1399(16)
C33 C 0.651(3) 0.882(2) 0.2249(18)
H33 H 0.7379 0.8858 0.2336
C34 C 0.567(3) 0.792(2) 0.2954(18)
H34 H 0.5969 0.7390 0.3530
C35 C 0.648(2) 1.1957(18) 0.0989(16)
H35 H 0.5462 1.2192 0.1123
H36 H 0.6708 1.1820 0.1650
C36 C 0.691(2) 1.0726(17) 0.0635(16)
H37 H 0.7917 1.0442 0.0567
H38 H 0.6771 1.0879 -0.0057
Ag4 Ag 0.91952(15) -0.77787(14) 0.46339(11)
O2 O -0.0793(16) -0.4628(19) 1.2094(12)
O3 O 0.121(2) -0.3892(19) 1.1806(14)
O4 O 0.0608(14) -0.7089(17) 1.3149(11)
O5 O -0.0241(18) -0.8313(17) 1.2522(13)
O6 O 0.618(2) -1.147(2) 0.7005(15)
O7 O 0.5884(19) -0.978(2) 0.5663(12)
O8 O 0.7804(16) -0.850(2) 0.6094(10)
O9 O 0.6463(17) -0.655(2) 0.5774(12)
C37 C 0.052(3) -0.462(3) 1.166(2)
C38 C 0.046(2) -0.748(3) 1.2394(18)
C39 C 0.137(2) -0.550(3) 1.0998(16)
C40 C 0.128(2) -0.679(3) 1.1308(16)
C41 C 0.206(2) -0.757(3) 1.0608(17)
H39 H 0.2054 -0.8469 1.0829
C42 C 0.284(2) -0.704(3) 0.9592(16)
C43 C 0.287(3) -0.572(3) 0.931(2)
H40 H 0.3404 -0.5334 0.8634
C44 C 0.217(2) -0.504(3) 0.9968(18)
H41 H 0.2202 -0.4146 0.9737
C45 C 0.579(3) -1.031(4) 0.662(2)
C46 C 0.666(3) -0.769(3) 0.6300(16)
C47 C 0.509(2) -0.945(3) 0.7408(15)
C48 C 0.547(2) -0.825(3) 0.7232(15)
C49 C 0.475(2) -0.745(3) 0.7932(17)
H42 H 0.5006 -0.6629 0.7806
C50 C 0.363(2) -0.790(3) 0.8835(15)
C51 C 0.330(3) -0.909(3) 0.8982(18)
H43 H 0.2565 -0.9384 0.9570
C52 C 0.403(2) -0.991(3) 0.8276(15)
H44 H 0.3796 -1.0738 0.8407
Ag2_2 Ag -1.03464(19) -1.35564(14) 1.73223(12)
N2_2 N 1.1037(18) 1.7802(14) -0.3823(13)
Ag4_2 Ag -0.08048(15) -0.77787(14) 1.46339(11)
O4_2 O 1.0608(14) -0.7089(17) 0.3149(11)
O10 O 0.085(2) 0.7519(17) 0.3135(17)
H45 H 0.1006 0.7068 0.2690
H46 H 0.0016 0.7450 0.3550
O11 O 0.036(3) 0.971(2) 0.1341(19)
H47 H 0.0518 0.9027 0.1803
H48 H 0.0180 1.0356 0.1620
O12 O 0.784(2) 0.5577(19) 0.4204(16)
H49 H 0.7459 0.4912 0.4615
H50 H 0.8221 0.5436 0.3591
O13 O 0.798(2) -0.027(2) 0.3948(15)
H51 H 0.8441 0.0361 0.3572
H52 H 0.7341 -0.0024 0.4463
O14 O 0.524(2) 0.571(2) 0.6570(17)
H53 H 0.5550 0.5027 0.6342
H54 H 0.5953 0.6082 0.6481
O15 O 0.435(2) 0.697(3) 0.8056(19)
H55 H 0.4539 0.6485 0.7634
H56 H 0.4903 0.7554 0.7779
O16 O 0.355(3) 0.740(2) 0.0197(19)
H57 H 0.2844 0.7024 0.0621
H58 H 0.3709 0.7258 -0.0409
O17 O 0.842(3) 0.734(3) 0.431(2)
H59 H 0.7988 0.6850 0.4177
H60 H 0.8064 0.8128 0.4116
loop_
_geom_bond_atom_site_label_1
_geom_bond_atom_site_label_2
_geom_bond_site_symmetry_1
_geom_bond_site_symmetry_2
Ag1 N1 1_555 1_555
Ag2 N5 1_555 1_555
Ag3 N4 1_555 1_555
N1 C1 1_555 1_555
N2 C6 1_555 1_555
N3 Ag1 1_555 1_555
N4 C18 1_555 1_555
N5 C25 1_555 1_555
N6 Ag3 1_555 1_555
O1 Ag2 1_555 1_555
H1 O1 1_555 1_555
H2 O1 1_555 1_555
C1 H3 1_555 1_555
C2 C1 1_555 1_555
H4 C2 1_555 1_555
C3 C2 1_555 1_555
C4 C3 1_555 1_555
H5 C4 1_555 1_555
C5 N1 1_555 1_555
H6 C5 1_555 1_555
C6 H7 1_555 1_555
C7 C6 1_555 1_555
H8 C7 1_555 1_555
C8 C7 1_555 1_555
C9 C8 1_555 1_555
H9 C9 1_555 1_555
C10 N2 1_555 1_555
H10 C10 1_555 1_555
C11 C3 1_555 1_555
H11 C11 1_555 1_555
H12 C11 1_555 1_555
C12 C8 1_555 1_555
H13 C12 1_555 1_555
H14 C12 1_555 1_555
C13 N3 1_555 1_555
H15 C13 1_555 1_555
C14 C13 1_555 1_555
H16 C14 1_555 1_555
C15 C14 1_555 1_555
C16 C15 1_555 1_555
H17 C16 1_555 1_555
C17 N3 1_555 1_555
H18 C17 1_555 1_555
C18 H19 1_555 1_555
C19 C18 1_555 1_555
H20 C19 1_555 1_555
C20 C19 1_555 1_555
C21 C20 1_555 1_555
H21 C21 1_555 1_555
C22 N4 1_555 1_555
H22 C22 1_555 1_555
C23 C15 1_555 1_555
H23 C23 1_555 1_555
H24 C23 1_555 1_555
C24 C20 1_555 1_555
H25 C24 1_555 1_555
H26 C24 1_555 1_555
C25 H27 1_555 1_555
C26 C25 1_555 1_555
H28 C26 1_555 1_555
C27 C26 1_555 1_555
C28 C27 1_555 1_555
H29 C28 1_555 1_555
C29 N5 1_555 1_555
H30 C29 1_555 1_555
C30 N6 1_555 1_555
H31 C30 1_555 1_555
C31 C30 1_555 1_555
H32 C31 1_555 1_555
C32 C31 1_555 1_555
C33 C32 1_555 1_555
H33 C33 1_555 1_555
C34 N6 1_555 1_555
H34 C34 1_555 1_555
C35 C27 1_555 1_555
H35 C35 1_555 1_555
H36 C35 1_555 1_555
C36 C32 1_555 1_555
H37 C36 1_555 1_555
H38 C36 1_555 1_555
Ag4 O8 1_555 1_555
O2 Ag1 1_555 1_555
O3 C37 1_555 1_555
O4 C38 1_555 1_555
O5 C38 1_555 1_555
O6 C45 1_555 1_555
O7 C45 1_555 1_555
O8 C46 1_555 1_555
O9 C46 1_555 1_555
C37 O2 1_555 1_555
C38 C40 1_555 1_555
C39 C37 1_555 1_555
C40 C39 1_555 1_555
C41 C40 1_555 1_555
H39 C41 1_555 1_555
C42 C41 1_555 1_555
C43 C42 1_555 1_555
H40 C43 1_555 1_555
C44 C39 1_555 1_555
H41 C44 1_555 1_555
C45 C47 1_555 1_555
C46 C48 1_555 1_555
C47 C48 1_555 1_555
C48 C49 1_555 1_555
C49 H42 1_555 1_555
C50 C42 1_555 1_555
C51 C50 1_555 1_555
H43 C51 1_555 1_555
C52 C47 1_555 1_555
H44 C52 1_555 1_555
O10 H45 1_555 1_555
H46 O10 1_555 1_555
O11 H47 1_555 1_555
H48 O11 1_555 1_555
O12 H49 1_555 1_555
H50 O12 1_555 1_555
O13 H51 1_555 1_555
H52 O13 1_555 1_555
O14 H53 1_555 1_555
H54 O14 1_555 1_555
O15 H55 1_555 1_555
H56 O15 1_555 1_555
O16 H57 1_555 1_555
H58 O16 1_555 1_555
O17 H59 1_555 1_555
H60 O17 1_555 1_555
Ag2_2 N2 1_555 1_555
N2_2 Ag2 1_555 1_555
Ag4_2 O4 1_555 1_555
O4_2 Ag4 1_555 1_555
C4 C5 1_555 1_555
C9 C10 1_555 1_555
C11 C12 1_555 1_555
C16 C17 1_555 1_555
C21 C22 1_555 1_555
C23 C24 1_555 1_555
C28 C29 1_555 1_555
C33 C34 1_555 1_555
C35 C36 1_555 1_555
C43 C44 1_555 1_555
C49 C50 1_555 1_555
C51 C52 1_555 1_555

#END
