
#######################################################################
#
#                 Cambridge Crystallographic Data Centre
#                                CCDC 
#
#######################################################################
#
# If this CIF has been generated from an entry in the Cambridge 
# Structural Database, then it will include bibliographic, chemical, 
# crystal, experimental, refinement or atomic coordinate data resulting 
# from the CCDC's data processing and validation procedures.
#
#######################################################################

data_TEWVOI
_symmetry_cell_setting           monoclinic
_symmetry_space_group_name_H-M   'P n'
_symmetry_Int_Tables_number      7
_space_group_name_Hall           'P -2yac'
loop_
_symmetry_equiv_pos_site_id
_symmetry_equiv_pos_as_xyz
1 x,y,z
2 1/2+x,-y,1/2+z
_cell_length_a                   13.116(5)
_cell_length_b                   15.760(5)
_cell_length_c                   14.792(5)
_cell_angle_alpha                90
_cell_angle_beta                 94.418(5)
_cell_angle_gamma                90
_cell_volume                     3048.54
loop_
_atom_site_label
_atom_site_type_symbol
_atom_site_fract_x
_atom_site_fract_y
_atom_site_fract_z
Cu1 Cu 0.6752(2) 0.7056(2) 0.48281(18)
Cu2 Cu 0.5125(2) 0.7681(2) 0.61121(19)
W1 W 0.85053(7) 0.18980(6) 0.57513(6)
W2 W 0.73656(7) 0.33591(6) 0.72540(6)
W3 W 0.48575(7) 0.38657(5) 0.68884(6)
W4 W 0.44191(7) 0.16555(6) 0.35409(6)
W5 W 0.65682(7) 0.45973(6) 0.55047(6)
W6 W 0.70938(7) 0.11121(6) 0.39475(6)
W7 W 0.52729(8) 0.03214(6) 0.54466(7)
W8 W 0.77769(8) 0.31573(7) 0.40116(6)
W9 W 0.50976(8) 0.37105(7) 0.35580(6)
W10 W 0.66465(8) 0.11432(6) 0.72546(6)
W11 W 0.41668(8) 0.16534(6) 0.68316(6)
W12 W 0.33624(7) 0.30240(6) 0.49517(6)
B1 B 0.589(2) 0.2436(16) 0.5416(19)
N1 N 1.3615(15) 0.7753(12) 0.5816(13)
N2 N 0.5186(15) 0.8271(11) 0.7330(13)
N3 N 0.5680(18) 0.4697(14) -0.0709(15)
N4 N 0.6595(15) 0.6572(13) 0.3563(13)
N5 N 0.8285(14) 0.7055(11) 0.4928(12)
N6 N 0.5951(15) 1.0360(11) 1.1544(12)
O1 O 0.5313(10) 0.7204(8) 0.4950(9)
O2 O 0.6110(10) 0.3253(8) 0.6040(8)
O3 O 0.3297(14) 0.2135(10) 0.4057(11)
O4 O 0.4184(12) 0.0585(9) 0.6241(10)
O5 O 0.6785(13) 0.7567(10) 0.6199(11)
O6 O 0.5312(13) 0.1254(10) 0.7668(10)
O7 O 0.4916(13) 0.4392(11) 0.2681(10)
O8 O 0.4503(12) 0.0819(9) 0.4476(10)
O9 O 0.5840(12) 0.1389(10) 0.3369(10)
O10 O 0.5070(10) 0.2622(9) 0.4715(9)
O11 O 0.6437(13) 0.0449(10) 0.4773(11)
O12 O 0.5015(16) 0.6400(11) 0.6904(12)
O13 O 0.3464(12) 0.2123(9) 0.5824(9)
O14 O 0.3839(13) 0.1119(10) 0.2677(11)
O15 O 0.6918(10) 0.2252(8) 0.4991(8)
O16 O 0.6867(14) 0.5649(10) 0.5408(11)
O17 O 0.5643(10) 0.1711(9) 0.6007(9)
O18 O 0.8518(14) 0.3663(11) 0.3299(11)
O19 O 0.7445(11) 0.0353(10) 0.3232(10)
O20 O 0.7797(14) 0.1225(9) 0.6534(10)
O21 O 0.7230(14) 0.0616(10) 0.8192(12)
O22 O 0.8291(14) 0.2838(10) 0.6552(12)
O23 O 0.2090(12) 0.3255(9) 0.4908(11)
O24 O 0.8829(11) 0.2728(10) 0.4860(10)
O25 O 0.4557(11) 0.2771(9) 0.7249(10)
O26 O 0.4196(11) 0.4484(9) 0.7645(10)
O27 O 0.5013(14) -0.0705(10) 0.5332(11)
O28 O 0.8158(14) 0.3634(12) 0.8196(12)
O29 O 0.8282(13) 0.1085(10) 0.4828(11)
O30 O 0.9709(13) 0.1634(10) 0.6151(11)
O31 O 0.7454(13) 0.4368(10) 0.6601(10)
O32 O 0.6484(11) 0.3380(10) 0.3448(10)
O33 O 0.5592(12) 0.4393(9) 0.4553(9)
O34 O 0.7538(12) 0.4030(9) 0.4855(9)
O35 O 0.6937(13) 0.2280(10) 0.7616(10)
O36 O 0.5490(13) 0.4786(9) 0.6287(10)
O37 O 0.3803(14) 0.3794(10) 0.4035(10)
O38 O 0.6082(12) 0.3811(9) 0.7701(9)
O39 O 0.7741(11) 0.2102(9) 0.3442(9)
O40 O 0.3193(14) 0.1405(12) 0.7503(12)
O41 O 0.6201(12) 0.0191(10) 0.6547(10)
O42 O 0.4650(13) 0.2705(9) 0.2940(11)
O43 O 0.3921(12) 0.3750(9) 0.5883(9)
C1 C 0.9817(17) 0.6870(15) 0.5821(14)
H1 H 1.0140 0.6628 0.6340
C2 C 0.4723(16) 0.8964(13) 0.7475(14)
H2 H 0.4267 0.9171 0.7014
C3 C 0.881(2) 0.7520(15) 0.4311(19)
H3 H 0.8462 0.7751 0.3797
C4 C 1.2995(18) 0.7597(13) 0.6484(16)
H4 H 1.3284 0.7597 0.7079
C5 C 1.1501(17) 0.7550(13) 0.5441(15)
C6 C 1.1989(19) 0.7441(15) 0.6349(16)
H5 H 1.1614 0.7268 0.6824
C7 C 0.5705(16) 0.6502(14) 0.2117(13)
H6 H 0.5199 0.6709 0.1700
C8 C 0.9886(19) 0.7636(15) 0.4476(15)
H7 H 1.0241 0.7906 0.4038
C9 C 0.6824(19) 0.4946(13) 0.0603(18)
H8 H 0.7453 0.4889 0.0933
C10 C 1.0408(17) 0.7369(13) 0.5245(14)
C11 C 0.503(2) 0.5138(14) -0.0388(17)
H9 H 0.4434 0.5243 -0.0758
C12 C 0.8802(18) 0.6740(14) 0.5635(15)
H10 H 0.8457 0.6409 0.6033
C13 C 1.2151(18) 0.7799(15) 0.4790(16)
H11 H 1.1888 0.7881 0.4195
C14 C 0.500(2) 1.0166(14) 1.0149(16)
H12 H 0.4392 1.0290 0.9813
C15 C 0.589(2) 0.8318(16) 0.8899(17)
H13 H 0.6181 0.8015 0.9393
C16 C 0.575(2) 0.7982(16) 0.8015(16)
H14 H 0.6107 0.7487 0.7913
C17 C 0.519(2) 1.0529(16) 1.0973(17)
H15 H 0.4726 1.0936 1.1141
C18 C 0.6008(19) 0.5392(15) 0.0965(15)
C19 C 0.626(2) 0.5814(16) 0.1908(16)
C20 C 0.712(2) 0.5854(15) 0.3364(15)
H16 H 0.7602 0.5626 0.3788
C21 C 0.6921(18) 0.5472(13) 0.2535(15)
H17 H 0.7251 0.4968 0.2410
C22 C 0.5684(15) 0.9620(13) 0.9786(13)
C23 C 1.3117(18) 0.7919(15) 0.4998(14)
H18 H 1.3501 0.8137 0.4549
C24 C 0.5533(18) 0.9168(14) 0.8959(14)
C25 C 0.5082(19) 0.5496(15) 0.0475(15)
H19 H 0.4537 0.5783 0.0702
C26 C 0.4853(18) 0.9436(14) 0.8279(13)
H20 H 0.4476 0.9929 0.8347
C27 C 0.666(2) 0.4595(16) -0.0259(19)
H21 H 0.7171 0.4304 -0.0528
C28 C 0.588(2) 0.6883(18) 0.2923(16)
H22 H 0.5510 0.7366 0.3051
C29 C 0.674(3) 0.996(2) 1.120(2)
H23 H 0.7385 0.9977 1.1518
C30 C 0.662(2) 0.9507(18) 1.0355(18)
H24 H 0.7125 0.9148 1.0178
O44 O 0.6778(16) 0.8576(12) 0.4096(13)
Cu2_2 Cu 0.5125(2) -0.2319(2) 0.61121(19)
Cu2_3 Cu 1.5125(2) 0.7681(2) 0.61121(19)
N1_2 N 0.3615(15) 0.7753(12) 0.5816(13)
O27_2 O 0.5013(14) 0.9295(10) 0.5332(11)
O45 O 0.2378(13) 0.3728(13) 0.2416(11)
O46 O 0.4077(18) 0.5789(13) 0.4767(14)
O47 O 0.7710(16) -0.0969(14) 0.5882(17)
O48 O 0.983(2) 0.0890(19) 0.8109(15)
loop_
_geom_bond_atom_site_label_1
_geom_bond_atom_site_label_2
_geom_bond_site_symmetry_1
_geom_bond_site_symmetry_2
Cu1 N4 1_555 1_555
Cu2 N2 1_555 1_555
W1 O15 1_555 1_555
W2 O2 1_555 1_555
W3 O2 1_555 1_555
W4 O3 1_555 1_555
W5 O2 1_555 1_555
W6 O9 1_555 1_555
W7 O4 1_555 1_555
W8 O15 1_555 1_555
W9 O7 1_555 1_555
W10 O6 1_555 1_555
W11 O4 1_555 1_555
W12 O3 1_555 1_555
B1 O2 1_555 1_555
N1 C4 1_555 1_555
N2 C2 1_555 1_555
N3 C11 1_555 1_555
N4 C20 1_555 1_555
N5 Cu1 1_555 1_555
N6 C17 1_555 1_555
O1 Cu1 1_555 1_555
O5 Cu1 1_555 1_555
O6 W11 1_555 1_555
O8 W4 1_555 1_555
O9 W4 1_555 1_555
O10 W4 1_555 1_555
O11 W6 1_555 1_555
O12 Cu2 1_555 1_555
O13 W11 1_555 1_555
O14 W4 1_555 1_555
O15 W6 1_555 1_555
O16 Cu1 1_555 1_555
O17 W7 1_555 1_555
O18 W8 1_555 1_555
O19 W6 1_555 1_555
O20 W1 1_555 1_555
O21 W10 1_555 1_555
O22 W1 1_555 1_555
O23 W12 1_555 1_555
O24 W1 1_555 1_555
O25 W3 1_555 1_555
O26 W3 1_555 1_555
O27 W7 1_555 1_555
O28 W2 1_555 1_555
O29 W1 1_555 1_555
O30 W1 1_555 1_555
O31 W2 1_555 1_555
O32 W8 1_555 1_555
O33 W5 1_555 1_555
O34 W5 1_555 1_555
O35 W2 1_555 1_555
O36 W3 1_555 1_555
O37 W9 1_555 1_555
O38 W2 1_555 1_555
O39 W6 1_555 1_555
O40 W11 1_555 1_555
O41 W7 1_555 1_555
O42 W4 1_555 1_555
O43 W3 1_555 1_555
C1 H1 1_555 1_555
C2 H2 1_555 1_555
C3 N5 1_555 1_555
H3 C3 1_555 1_555
C4 H4 1_555 1_555
C5 C6 1_555 1_555
C6 C4 1_555 1_555
H5 C6 1_555 1_555
C7 H6 1_555 1_555
C8 C3 1_555 1_555
H7 C8 1_555 1_555
C9 H8 1_555 1_555
C10 C1 1_555 1_555
C11 H9 1_555 1_555
C12 N5 1_555 1_555
H10 C12 1_555 1_555
C13 C5 1_555 1_555
H11 C13 1_555 1_555
C14 H12 1_555 1_555
C15 H13 1_555 1_555
C16 N2 1_555 1_555
H14 C16 1_555 1_555
C17 C14 1_555 1_555
H15 C17 1_555 1_555
C18 C9 1_555 1_555
C19 C7 1_555 1_555
C20 H16 1_555 1_555
C21 C19 1_555 1_555
H17 C21 1_555 1_555
C22 C14 1_555 1_555
C23 N1 1_555 1_555
H18 C23 1_555 1_555
C24 C15 1_555 1_555
C25 C11 1_555 1_555
H19 C25 1_555 1_555
C26 C2 1_555 1_555
H20 C26 1_555 1_555
C27 N3 1_555 1_555
H21 C27 1_555 1_555
C28 N4 1_555 1_555
H22 C28 1_555 1_555
C29 N6 1_555 1_555
H23 C29 1_555 1_555
C30 C22 1_555 1_555
H24 C30 1_555 1_555
O44 Cu1 1_555 1_555
Cu2_2 O27 1_555 1_555
Cu2_3 N1 1_555 1_555
N1_2 Cu2 1_555 1_555
O27_2 Cu2 1_555 1_555
Cu2 O1 1_555 1_555
Cu2 O5 1_555 1_555
W2 O22 1_555 1_555
W3 O38 1_555 1_555
W5 O16 1_555 1_555
W5 O31 1_555 1_555
W5 O36 1_555 1_555
W6 O29 1_555 1_555
W7 O8 1_555 1_555
W7 O11 1_555 1_555
W8 O24 1_555 1_555
W8 O34 1_555 1_555
W8 O39 1_555 1_555
W9 O10 1_555 1_555
W9 O32 1_555 1_555
W9 O33 1_555 1_555
W9 O42 1_555 1_555
W10 O17 1_555 1_555
W10 O20 1_555 1_555
W10 O35 1_555 1_555
W10 O41 1_555 1_555
W11 O17 1_555 1_555
W11 O25 1_555 1_555
W12 O10 1_555 1_555
W12 O13 1_555 1_555
W12 O37 1_555 1_555
W12 O43 1_555 1_555
B1 O10 1_555 1_555
B1 O15 1_555 1_555
B1 O17 1_555 1_555
C1 C12 1_555 1_555
C5 C10 1_555 1_555
C7 C28 1_555 1_555
C8 C10 1_555 1_555
C9 C27 1_555 1_555
C13 C23 1_555 1_555
C15 C16 1_555 1_555
C18 C19 1_555 1_555
C18 C25 1_555 1_555
C20 C21 1_555 1_555
C22 C24 1_555 1_555
C24 C26 1_555 1_555
C29 C30 1_555 1_555

#END
