
#######################################################################
#
#                 Cambridge Crystallographic Data Centre
#                                CCDC 
#
#######################################################################
#
# If this CIF has been generated from an entry in the Cambridge 
# Structural Database, then it will include bibliographic, chemical, 
# crystal, experimental, refinement or atomic coordinate data resulting 
# from the CCDC's data processing and validation procedures.
#
#######################################################################

data_TEWZAX
_symmetry_cell_setting           triclinic
_symmetry_space_group_name_H-M   'P -1'
_symmetry_Int_Tables_number      2
_space_group_name_Hall           '-P 1'
loop_
_symmetry_equiv_pos_site_id
_symmetry_equiv_pos_as_xyz
1 x,y,z
2 -x,-y,-z
_cell_length_a                   7.5950(10)
_cell_length_b                   8.4330(10)
_cell_length_c                   15.127(3)
_cell_angle_alpha                83.890(10)
_cell_angle_beta                 80.81(2)
_cell_angle_gamma                77.480(10)
_cell_volume                     931.088
loop_
_atom_site_label
_atom_site_type_symbol
_atom_site_fract_x
_atom_site_fract_y
_atom_site_fract_z
Ca1 Ca 0.23327(8) 0.01811(7) 0.54523(4)
O1 O 0.5417(3) -0.0490(2) 0.59110(14)
O2 O 0.7159(3) -0.0738(3) 0.69849(15)
O3 O 0.2685(3) 0.2834(2) 0.56610(16)
O4 O 0.1635(3) 0.5449(2) 0.58593(17)
O5 O -0.0203(3) -0.1396(3) 0.56679(16)
H1 H -0.095(5) -0.122(4) 0.613(2)
H2 H 0.020(5) -0.237(4) 0.572(2)
O6 O 0.3601(3) -0.2512(3) 0.4920(2)
H3 H 0.465(5) -0.274(4) 0.475(3)
H4 H 0.336(5) -0.323(5) 0.514(3)
N1 N 0.2541(4) -0.1132(4) 0.7065(2)
H5 H 0.286(5) -0.213(5) 0.688(2)
H6 H 0.163(5) -0.106(4) 0.744(2)
N2 N -0.0433(4) 0.1938(3) 0.6363(2)
H7 H -0.150(5) 0.177(4) 0.636(2)
H8 H -0.030(5) 0.151(5) 0.684(2)
C1 C 0.5661(4) -0.0665(4) 0.6720(2)
C2 C 0.4069(4) -0.0813(4) 0.7452(2)
H9 H 0.4472 -0.1755 0.7884
C3 C 0.3559(5) 0.0717(5) 0.7952(3)
H10 H 0.4695 0.0957 0.8097
H11 H 0.3050 0.1625 0.7535
C4 C 0.2225(6) 0.0737(6) 0.8808(3)
H12 H 0.1003 0.0725 0.8645
C5 C 0.2075(7) 0.2308(6) 0.9255(3)
H13 H 0.1209 0.2318 0.9810
H14 H 0.1646 0.3245 0.8847
H15 H 0.3272 0.2371 0.9396
C6 C 0.2740(8) -0.0737(7) 0.9453(3)
H16 H 0.2831 -0.1733 0.9155
H17 H 0.1805 -0.0700 0.9982
H18 H 0.3916 -0.0729 0.9639
C7 C 0.1468(4) 0.3993(4) 0.5929(2)
C8 C -0.0400(4) 0.3664(4) 0.6364(2)
H19 H -0.1295 0.4263 0.5964
C9 C -0.0986(5) 0.4370(4) 0.7260(2)
H20 H -0.1033 0.5558 0.7171
H21 H -0.0042 0.3899 0.7649
C10 C -0.2830(6) 0.4095(5) 0.7758(3)
H22 H -0.2751 0.2894 0.7877
C11 C -0.4356(6) 0.4755(6) 0.7216(3)
H23 H -0.4089 0.4250 0.6642
H24 H -0.4481 0.5938 0.7103
H25 H -0.5495 0.4510 0.7548
C12 C -0.3186(7) 0.4846(7) 0.8666(3)
H26 H -0.4363 0.4673 0.8989
H27 H -0.3207 0.6017 0.8567
H28 H -0.2216 0.4328 0.9022
Ca1A Ca 0.76673(8) -0.01811(7) 0.45477(4)
Ca1A_2 Ca -0.23327(8) -0.01811(7) 0.45477(4)
O1A O 0.4583(3) 0.0490(2) 0.40890(14)
O5A O 0.0203(3) 0.1396(3) 0.43321(16)
H1A H 0.095(5) 0.122(4) 0.387(2)
H2A H -0.020(5) 0.237(4) 0.428(2)
O7 O -0.1069(12) -0.1279(13) 0.8392(5)
O8? O -0.1392(18) -0.0462(18) 0.8368(9)
O9? O -0.076(3) -0.208(3) 0.8354(13)
loop_
_geom_bond_atom_site_label_1
_geom_bond_atom_site_label_2
_geom_bond_site_symmetry_1
_geom_bond_site_symmetry_2
Ca1 O1 1_555 1_555
O1 C1 1_555 1_555
O2 C1 1_555 1_555
O3 Ca1 1_555 1_555
O4 C7 1_555 1_555
O5 Ca1 1_555 1_555
H1 O5 1_555 1_555
H2 O5 1_555 1_555
O6 Ca1 1_555 1_555
H3 O6 1_555 1_555
H4 O6 1_555 1_555
N1 Ca1 1_555 1_555
H5 N1 1_555 1_555
H6 N1 1_555 1_555
N2 Ca1 1_555 1_555
H7 N2 1_555 1_555
H8 N2 1_555 1_555
C1 C2 1_555 1_555
C2 N1 1_555 1_555
H9 C2 1_555 1_555
C3 C2 1_555 1_555
H10 C3 1_555 1_555
H11 C3 1_555 1_555
C4 C3 1_555 1_555
H12 C4 1_555 1_555
C5 C4 1_555 1_555
H13 C5 1_555 1_555
H14 C5 1_555 1_555
H15 C5 1_555 1_555
C6 C4 1_555 1_555
H16 C6 1_555 1_555
H17 C6 1_555 1_555
H18 C6 1_555 1_555
C7 O3 1_555 1_555
C8 N2 1_555 1_555
H19 C8 1_555 1_555
C9 C8 1_555 1_555
H20 C9 1_555 1_555
H21 C9 1_555 1_555
C10 C9 1_555 1_555
H22 C10 1_555 1_555
C11 C10 1_555 1_555
H23 C11 1_555 1_555
H24 C11 1_555 1_555
H25 C11 1_555 1_555
C12 C10 1_555 1_555
H26 C12 1_555 1_555
H27 C12 1_555 1_555
H28 C12 1_555 1_555
Ca1A O1 1_555 1_555
Ca1A_2 O5 1_555 1_555
O1A Ca1 1_555 1_555
O5A Ca1 1_555 1_555
H1A O5A 1_555 1_555
H2A O5A 1_555 1_555
C7 C8 1_555 1_555
Ca1A O1A 1_555 1_555
Ca1A_2 O5A 1_555 1_555

#END
