
#######################################################################
#
#                 Cambridge Crystallographic Data Centre
#                                CCDC 
#
#######################################################################
#
# If this CIF has been generated from an entry in the Cambridge 
# Structural Database, then it will include bibliographic, chemical, 
# crystal, experimental, refinement or atomic coordinate data resulting 
# from the CCDC's data processing and validation procedures.
#
#######################################################################

data_TEWZUS
_symmetry_cell_setting           orthorhombic
_symmetry_space_group_name_H-M   'P n m a'
_symmetry_Int_Tables_number      62
_space_group_name_Hall           '-P 2ac 2n'
loop_
_symmetry_equiv_pos_site_id
_symmetry_equiv_pos_as_xyz
1 x,y,z
2 1/2-x,-y,1/2+z
3 -x,1/2+y,-z
4 1/2+x,1/2-y,1/2-z
5 -x,-y,-z
6 1/2+x,y,1/2-z
7 x,1/2-y,z
8 1/2-x,1/2+y,1/2+z
_cell_length_a                   17.4362(8)
_cell_length_b                   21.2896(9)
_cell_length_c                   5.6859(3)
_cell_angle_alpha                90
_cell_angle_beta                 90
_cell_angle_gamma                90
_cell_volume                     2110.66
loop_
_atom_site_label
_atom_site_type_symbol
_atom_site_fract_x
_atom_site_fract_y
_atom_site_fract_z
Ni1 Ni 0.5000 0.5000 0.0000
O1 O 0.47965(9) 0.58122(7) 0.2070(3)
O2 O 0.45042(10) 0.53934(8) -0.3080(3)
H1 H 0.4327 0.5764 -0.2969
C1 C 0.51901(13) 0.69290(11) 0.4464(4)
H2 H 0.5344 0.6554 0.5155
O3 O 0.41321(11) 0.63596(8) -0.0590(3)
C2 C 0.54010(18) 0.7500 0.5427(6)
C3 C 0.47437(13) 0.69290(10) 0.2446(4)
N1 N 0.39368(11) 0.46215(9) 0.0718(3)
C4 C 0.45186(18) 0.7500 0.1470(6)
H3 H 0.4211 0.7500 0.0135
N2 N 0.28230(12) 0.41798(9) -0.0009(4)
N3 N 0.58907(17) 0.7500 0.7537(5)
C5 C 0.45376(13) 0.63234(10) 0.1219(4)
O4 O 0.60840(12) 0.69936(9) 0.8362(4)
C6 C 0.34770(15) 0.46789(12) 0.2660(5)
H4 H 0.3617 0.4873 0.4062
C7 C 0.25769(14) 0.28251(12) -0.3094(5)
H5 H 0.2788 0.3042 -0.4356
C8 C 0.27861(15) 0.44095(13) 0.2224(5)
H6 H 0.2371 0.4386 0.3246
C9 C 0.22650(13) 0.31521(11) -0.1235(4)
C10 C 0.19636(14) 0.28252(12) 0.0652(4)
H7 H 0.1760 0.3043 0.1925
C11 C 0.22077(15) 0.38585(12) -0.1303(5)
H8 H 0.2219 0.3995 -0.2930
H9 H 0.1718 0.3984 -0.0645
C12 C 0.35225(14) 0.43142(11) -0.0832(4)
H10 H 0.3695 0.4203 -0.2323
H11 H 0.4734(17) 0.5507(14) -0.426(5)
O1F O 0.47965(9) 0.91878(7) 0.2070(3)
C1F C 0.51901(13) 0.80710(11) 0.4464(4)
H2F H 0.5344 0.8446 0.5155
O3F O 0.41321(11) 0.86404(8) -0.0590(3)
C3F C 0.47437(13) 0.80710(10) 0.2446(4)
C5F C 0.45376(13) 0.86766(10) 0.1219(4)
O4F O 0.60840(12) 0.80064(9) 0.8362(4)
N1F N 0.39368(11) 0.03785(9) 0.0718(3)
N2F N 0.28230(12) 0.08202(9) -0.0009(4)
C6F C 0.34770(15) 0.03211(12) 0.2660(5)
H4F H 0.3617 0.0127 0.4062
C7F C 0.25769(14) 0.21749(12) -0.3094(5)
H5F H 0.2788 0.1958 -0.4356
C8F C 0.27861(15) 0.05905(13) 0.2224(5)
H6F H 0.2371 0.0614 0.3246
C9F C 0.22650(13) 0.18479(11) -0.1235(4)
C10F C 0.19636(14) 0.21748(12) 0.0652(4)
H7F H 0.1760 0.1957 0.1925
C11F C 0.22077(15) 0.11415(12) -0.1303(5)
H8F H 0.2219 0.1005 -0.2930
H9F H 0.1718 0.1016 -0.0645
C12F C 0.35225(14) 0.06858(11) -0.0832(4)
H10F H 0.3695 0.0797 -0.2323
O2D O 0.54958(10) 0.46066(8) 0.3080(3)
H1D H 0.5673 0.4236 0.2969
H11D H 0.5266(17) 0.4493(14) 0.426(5)
Ni1B Ni 0.5000 0.0000 0.0000
Ni1B_2 Ni 0.5000 1.0000 0.0000
O1D O 0.52035(9) 0.41878(7) -0.2070(3)
N1D N 0.60632(11) 0.53785(9) -0.0718(3)
loop_
_geom_bond_atom_site_label_1
_geom_bond_atom_site_label_2
_geom_bond_site_symmetry_1
_geom_bond_site_symmetry_2
Ni1 O1 1_555 1_555
O1 C5 1_555 1_555
O2 Ni1 1_555 1_555
H1 O2 1_555 1_555
C1 H2 1_555 1_555
O3 C5 1_555 1_555
C2 C1 1_555 1_555
C3 C1 1_555 1_555
N1 Ni1 1_555 1_555
C4 C3 1_555 1_555
H3 C4 1_555 1_555
N2 C8 1_555 1_555
N3 C2 1_555 1_555
C5 C3 1_555 1_555
O4 N3 1_555 1_555
C6 N1 1_555 1_555
H4 C6 1_555 1_555
C7 H5 1_555 1_555
C8 C6 1_555 1_555
H6 C8 1_555 1_555
C9 C7 1_555 1_555
C10 C9 1_555 1_555
H7 C10 1_555 1_555
C11 N2 1_555 1_555
H8 C11 1_555 1_555
H9 C11 1_555 1_555
C12 N1 1_555 1_555
H10 C12 1_555 1_555
H11 O2 1_555 1_555
O1F C5F 1_555 1_555
C1F C2 1_555 1_555
H2F C1F 1_555 1_555
O3F C5F 1_555 1_555
C3F C4 1_555 1_555
C5F C3F 1_555 1_555
O4F N3 1_555 1_555
N1F C6F 1_555 1_555
N2F C8F 1_555 1_555
C6F H4F 1_555 1_555
C7F C7 1_555 1_555
H5F C7F 1_555 1_555
C8F C6F 1_555 1_555
H6F C8F 1_555 1_555
C9F C7F 1_555 1_555
C10F C10 1_555 1_555
H7F C10F 1_555 1_555
C11F N2F 1_555 1_555
H8F C11F 1_555 1_555
H9F C11F 1_555 1_555
C12F N1F 1_555 1_555
H10F C12F 1_555 1_555
O2D Ni1 1_555 1_555
H1D O2D 1_555 1_555
H11D O2D 1_555 1_555
Ni1B N1F 1_555 1_555
Ni1B_2 O1F 1_555 1_555
O1D Ni1 1_555 1_555
N1D Ni1 1_555 1_555
N2 C12 1_555 1_555
C9 C11 1_555 1_555
C1F C3F 1_555 1_555
N2F C12F 1_555 1_555
C9F C10F 1_555 1_555
C9F C11F 1_555 1_555

#END
