
#######################################################################
#
#                 Cambridge Crystallographic Data Centre
#                                CCDC 
#
#######################################################################
#
# If this CIF has been generated from an entry in the Cambridge 
# Structural Database, then it will include bibliographic, chemical, 
# crystal, experimental, refinement or atomic coordinate data resulting 
# from the CCDC's data processing and validation procedures.
#
#######################################################################

data_TEXCUU
_symmetry_cell_setting           monoclinic
_symmetry_space_group_name_H-M   'P 21/c'
_symmetry_Int_Tables_number      14
_space_group_name_Hall           '-P 2ybc'
loop_
_symmetry_equiv_pos_site_id
_symmetry_equiv_pos_as_xyz
1 x,y,z
2 -x,1/2+y,1/2-z
3 -x,-y,-z
4 x,1/2-y,1/2+z
_cell_length_a                   12.659(3)
_cell_length_b                   20.737(4)
_cell_length_c                   7.1570(10)
_cell_angle_alpha                90
_cell_angle_beta                 103.18(3)
_cell_angle_gamma                90
_cell_volume                     1829.29
loop_
_atom_site_label
_atom_site_type_symbol
_atom_site_fract_x
_atom_site_fract_y
_atom_site_fract_z
Cd1 Cd 0.5281(1) 0.0245(1) 0.2615(1)
S1 S 0.3507(3) -0.0069(2) -0.0058(5)
S2 S 0.4628(3) 0.0886(2) 0.5521(5)
F1 F 0.1635(9) 0.2537(5) -0.3572(17)
F2 F 0.0685(9) 0.1802(7) -0.2728(22)
F3 F 0.1487(12) 0.1644(7) -0.4999(19)
F4 F 0.7424(9) 0.2487(4) 0.9657(14)
F5 F 0.7832(10) 0.1667(5) 1.1418(14)
F6 F 0.8996(9) 0.2050(7) 0.9969(20)
N1 N 0.4260(9) 0.1111(5) 0.0587(16)
N2 N 0.2555(9) 0.1006(6) -0.1677(17)
N3 N 0.6635(9) 0.0734(5) 0.5106(14)
N4 N 0.6431(9) 0.1417(5) 0.7687(15)
C1 C 0.5172(12) 0.2130(8) 0.1480(22)
C2 C 0.3428(11) 0.0767(7) -0.0459(19)
C3 C 0.4242(12) 0.1760(7) 0.0349(20)
C4 C 0.3380(12) 0.2051(8) -0.0943(21)
C5 C 0.2569(12) 0.1651(7) -0.1909(22)
C6 C 0.1588(15) 0.1904(9) -0.3285(27)
C7 C 0.8399(13) 0.0417(8) 0.4527(23)
C8 C 0.6025(11) 0.1040(6) 0.6204(19)
C9 C 0.7710(11) 0.0795(7) 0.5599(19)
C10 C 0.8190(12) 0.1191(7) 0.7151(21)
C11 C 0.7490(11) 0.1488(7) 0.8101(19)
C12 C 0.7961(14) 0.1928(8) 0.9768(24)
H1 H 0.5068 0.2581 0.1192
H2 H 0.5829 0.1987 0.1157
H3 H 0.5222 0.2062 0.2824
H4 H 0.3353 0.2508 -0.1150
H5 H 0.9152 0.0511 0.5043
H6 H 0.8209 0.0536 0.3196
H7 H 0.8273 -0.0036 0.4651
H8 H 0.8961 0.1251 0.7533
S1B S 0.6493(3) 0.0069(2) 0.0058(5)
S2B S 0.5372(3) -0.0886(2) 0.4479(5)
Cd1B Cd 0.4719(1) -0.0245(1) -0.2615(1)
Cd1B_2 Cd 0.4719(1) -0.0245(1) 0.7385(1)
C2B C 0.6572(11) -0.0767(7) 0.0459(19)
N1B N 0.5740(9) -0.1111(5) -0.0587(16)
N2B N 0.7445(9) -0.1006(6) 0.1677(17)
C3B C 0.5758(12) -0.1760(7) -0.0349(20)
C5B C 0.7431(12) -0.1651(7) 0.1909(22)
C1B C 0.4828(12) -0.2130(8) -0.1480(22)
C4B C 0.6620(12) -0.2051(8) 0.0943(21)
C6B C 0.8412(15) -0.1904(9) 0.3285(27)
H1B H 0.4932 -0.2581 -0.1192
H2B H 0.4171 -0.1987 -0.1157
H3B H 0.4778 -0.2062 -0.2824
H4B H 0.6647 -0.2508 0.1150
F1B F 0.8365(9) -0.2537(5) 0.3572(17)
F2B F 0.9315(9) -0.1802(7) 0.2728(22)
F3B F 0.8513(12) -0.1644(7) 0.4999(19)
S2_2 S 0.4628(3) 0.0886(2) -0.4479(5)
S2B_2 S 0.5372(3) -0.0886(2) -0.5521(5)
N3B N 0.3365(9) -0.0734(5) -0.5106(14)
C8B C 0.3975(11) -0.1040(6) -0.6204(19)
C9B C 0.2290(11) -0.0795(7) -0.5599(19)
N4B N 0.3569(9) -0.1417(5) -0.7687(15)
C7B C 0.1601(13) -0.0417(8) -0.4527(23)
C10B C 0.1810(12) -0.1191(7) -0.7151(21)
C11B C 0.2510(11) -0.1488(7) -0.8101(19)
H5B H 0.0848 -0.0511 -0.5043
H6B H 0.1791 -0.0536 -0.3196
H7B H 0.1727 0.0036 -0.4651
H8B H 0.1039 -0.1251 -0.7533
C12B C 0.2039(14) -0.1928(8) -0.9768(24)
F4B F 0.2576(9) -0.2487(4) -0.9657(14)
F5B F 0.2168(10) -0.1667(5) -1.1418(14)
F6B F 0.1004(9) -0.2050(7) -0.9969(20)
Cd1_2 Cd 0.5281(1) 0.0245(1) -0.7385(1)
loop_
_geom_bond_atom_site_label_1
_geom_bond_atom_site_label_2
_geom_bond_site_symmetry_1
_geom_bond_site_symmetry_2
Cd1 S1 1_555 1_555
S1 C2 1_555 1_555
S2 Cd1 1_555 1_555
F1 C6 1_555 1_555
F2 C6 1_555 1_555
F3 C6 1_555 1_555
F4 C12 1_555 1_555
F5 C12 1_555 1_555
F6 C12 1_555 1_555
N1 Cd1 1_555 1_555
N2 C2 1_555 1_555
N3 Cd1 1_555 1_555
N4 C8 1_555 1_555
C1 C3 1_555 1_555
C2 N1 1_555 1_555
C3 N1 1_555 1_555
C4 C3 1_555 1_555
C5 N2 1_555 1_555
C6 C5 1_555 1_555
C7 C9 1_555 1_555
C8 S2 1_555 1_555
C9 N3 1_555 1_555
C10 C9 1_555 1_555
C11 N4 1_555 1_555
C12 C11 1_555 1_555
H1 C1 1_555 1_555
H2 C1 1_555 1_555
H3 C1 1_555 1_555
H4 C4 1_555 1_555
H5 C7 1_555 1_555
H6 C7 1_555 1_555
H7 C7 1_555 1_555
H8 C10 1_555 1_555
S1B Cd1 1_555 1_555
S2B Cd1 1_555 1_555
Cd1B S1 1_555 1_555
Cd1B_2 S2 1_555 1_555
C2B S1B 1_555 1_555
N1B Cd1B 1_555 1_555
N2B C2B 1_555 1_555
C3B N1B 1_555 1_555
C5B N2B 1_555 1_555
C1B C3B 1_555 1_555
C4B C3B 1_555 1_555
C6B C5B 1_555 1_555
H1B C1B 1_555 1_555
H2B C1B 1_555 1_555
H3B C1B 1_555 1_555
H4B C4B 1_555 1_555
F1B C6B 1_555 1_555
F2B C6B 1_555 1_555
F3B C6B 1_555 1_555
S2_2 Cd1B 1_555 1_555
S2B_2 Cd1B 1_555 1_555
N3B Cd1B 1_555 1_555
C8B S2B_2 1_555 1_555
C9B N3B 1_555 1_555
N4B C8B 1_555 1_555
C7B C9B 1_555 1_555
C10B C9B 1_555 1_555
C11B N4B 1_555 1_555
H5B C7B 1_555 1_555
H6B C7B 1_555 1_555
H7B C7B 1_555 1_555
H8B C10B 1_555 1_555
C12B C11B 1_555 1_555
F4B C12B 1_555 1_555
F5B C12B 1_555 1_555
F6B C12B 1_555 1_555
Cd1_2 S2_2 1_555 1_555
N3 C8 1_555 1_555
C4 C5 1_555 1_555
C10 C11 1_555 1_555
S1B Cd1B 1_555 1_555
S2B Cd1B_2 1_555 1_555
C2B N1B 1_555 1_555
C5B C4B 1_555 1_555
S2B_2 Cd1_2 1_555 1_555
N3B C8B 1_555 1_555
C10B C11B 1_555 1_555

#END
