
#######################################################################
#
#                 Cambridge Crystallographic Data Centre
#                                CCDC 
#
#######################################################################
#
# If this CIF has been generated from an entry in the Cambridge 
# Structural Database, then it will include bibliographic, chemical, 
# crystal, experimental, refinement or atomic coordinate data resulting 
# from the CCDC's data processing and validation procedures.
#
#######################################################################

data_TEXGIM
_symmetry_cell_setting           triclinic
_symmetry_space_group_name_H-M   'P -1'
_symmetry_Int_Tables_number      2
_space_group_name_Hall           '-P 1'
loop_
_symmetry_equiv_pos_site_id
_symmetry_equiv_pos_as_xyz
1 x,y,z
2 -x,-y,-z
_cell_length_a                   6.7190(10)
_cell_length_b                   7.0850(10)
_cell_length_c                   9.956(2)
_cell_angle_alpha                102.55(3)
_cell_angle_beta                 100.71(3)
_cell_angle_gamma                103.51(3)
_cell_volume                     435.62
loop_
_atom_site_label
_atom_site_type_symbol
_atom_site_fract_x
_atom_site_fract_y
_atom_site_fract_z
Ni1 Ni 0.0000 0.0000 0.0000
S1 S 0.3624(1) 0.1280(1) 0.1391(1)
S2 S -0.0185(1) 0.0652(1) 0.2456(1)
N1 N 0.0004(3) 0.3040(3) 0.0016(2)
O1 O 0.3775(3) 0.2215(3) 0.4060(2)
C1 C 0.2474(4) 0.1448(4) 0.2780(3)
C2 C 0.3003(5) 0.2173(5) 0.5353(3)
C3 C 0.4969(8) 0.2480(7) 0.6492(4)
C4 C 0.1917(7) 0.3779(6) 0.5686(4)
C5 C -0.1472(4) 0.3832(4) 0.0429(3)
C6 C 0.1478(4) 0.4232(4) -0.0402(3)
H1 H 0.1972(53) 0.0711(51) 0.5093(36)
H2 H 0.566(13) 0.167(12) 0.6084(85)
H3 H 0.5971(87) 0.3799(88) 0.6773(58)
H4 H 0.4653(79) 0.2180(75) 0.7262(59)
H5 H 0.2910(76) 0.5183(76) 0.5866(49)
H6 H 0.0707(67) 0.3547(59) 0.4912(44)
H7 H 0.1403(67) 0.3783(62) 0.6488(48)
H8 H -0.2544(49) 0.2997(47) 0.0787(32)
H9 H 0.2526(55) 0.3641(52) -0.0781(36)
S1A S -0.3624(1) -0.1280(1) -0.1391(1)
C1A C -0.2474(4) -0.1448(4) -0.2780(3)
S2A S 0.0185(1) -0.0652(1) -0.2456(1)
C6A C -0.1478(4) 0.5768(4) 0.0402(3)
N1A N -0.0004(3) 0.6960(3) -0.0016(2)
Ni1A Ni 0.0000 1.0000 0.0000
C5A C 0.1472(4) 0.6168(4) -0.0429(3)
H8A H 0.2544(49) 0.7003(47) -0.0787(32)
H9A H -0.2526(55) 0.6359(52) 0.0781(36)
N1A_2 N -0.0004(3) -0.3040(3) -0.0016(2)
O1A O -0.3775(3) -0.2215(3) -0.4060(2)
C2A C -0.3003(5) -0.2173(5) -0.5353(3)
C3A C -0.4969(8) -0.2480(7) -0.6492(4)
H2A H -0.566(13) -0.167(12) -0.6084(85)
H3A H -0.5971(87) -0.3799(88) -0.6773(58)
H4A H -0.4653(79) -0.2180(75) -0.7262(59)
C4A C -0.1917(7) -0.3779(6) -0.5686(4)
H5A H -0.2910(76) -0.5183(76) -0.5866(49)
H6A H -0.0707(67) -0.3547(59) -0.4912(44)
H7A H -0.1403(67) -0.3783(62) -0.6488(48)
H1A H -0.1972(53) -0.0711(51) -0.5093(36)
loop_
_geom_bond_atom_site_label_1
_geom_bond_atom_site_label_2
_geom_bond_site_symmetry_1
_geom_bond_site_symmetry_2
Ni1 S1 1_555 1_555
S1 C1 1_555 1_555
S2 Ni1 1_555 1_555
N1 Ni1 1_555 1_555
O1 C1 1_555 1_555
C1 S2 1_555 1_555
C2 O1 1_555 1_555
C3 C2 1_555 1_555
C4 C2 1_555 1_555
C5 N1 1_555 1_555
C6 N1 1_555 1_555
H1 C2 1_555 1_555
H2 C3 1_555 1_555
H3 C3 1_555 1_555
H4 C3 1_555 1_555
H5 C4 1_555 1_555
H6 C4 1_555 1_555
H7 C4 1_555 1_555
H8 C5 1_555 1_555
H9 C6 1_555 1_555
S1A Ni1 1_555 1_555
C1A S1A 1_555 1_555
S2A Ni1 1_555 1_555
C6A C5 1_555 1_555
N1A C6A 1_555 1_555
Ni1A N1A 1_555 1_555
C5A C6 1_555 1_555
H8A C5A 1_555 1_555
H9A C6A 1_555 1_555
N1A_2 Ni1 1_555 1_555
O1A C1A 1_555 1_555
C2A O1A 1_555 1_555
C3A C2A 1_555 1_555
H2A C3A 1_555 1_555
H3A C3A 1_555 1_555
H4A C3A 1_555 1_555
C4A C2A 1_555 1_555
H5A C4A 1_555 1_555
H6A C4A 1_555 1_555
H7A C4A 1_555 1_555
H1A C2A 1_555 1_555
C1A S2A 1_555 1_555
N1A C5A 1_555 1_555

#END
