
#######################################################################
#
#                 Cambridge Crystallographic Data Centre
#                                CCDC 
#
#######################################################################
#
# If this CIF has been generated from an entry in the Cambridge 
# Structural Database, then it will include bibliographic, chemical, 
# crystal, experimental, refinement or atomic coordinate data resulting 
# from the CCDC's data processing and validation procedures.
#
#######################################################################

data_TEXGUA
_symmetry_cell_setting           triclinic
_symmetry_space_group_name_H-M   'P -1'
_symmetry_Int_Tables_number      2
_space_group_name_Hall           '-P 1'
loop_
_symmetry_equiv_pos_site_id
_symmetry_equiv_pos_as_xyz
1 x,y,z
2 -x,-y,-z
_cell_length_a                   8.0606(6)
_cell_length_b                   11.3274(8)
_cell_length_c                   11.6584(8)
_cell_angle_alpha                116.7790(10)
_cell_angle_beta                 107.4170(10)
_cell_angle_gamma                90.9540(10)
_cell_volume                     892.285
loop_
_atom_site_label
_atom_site_type_symbol
_atom_site_fract_x
_atom_site_fract_y
_atom_site_fract_z
U1 U 0.744372(14) 0.398459(11) 0.733077(11)
Na1 Na 0.84863(17) 0.24236(13) -0.00589(14)
Na2 Na 1.22064(16) 0.08550(13) 0.06270(13)
C1 C 1.0856(4) 0.4226(3) 0.6206(3)
C2 C 1.1887(4) 0.4107(3) 0.5406(3)
H1 H 1.3001 0.4676 0.5788
C3 C 1.1251(4) 0.3133(3) 0.4028(3)
H2 H 1.1924 0.3035 0.3457
C4 C 0.9631(4) 0.2313(3) 0.3504(3)
C5 C 0.8689(4) 0.2481(3) 0.4383(3)
H3 H 0.7587 0.1905 0.4027
C6 C 1.1376(4) 0.5293(3) 0.7672(3)
C7 C 0.8824(4) 0.1290(3) 0.2009(3)
C8 C 0.3678(4) 0.1770(3) 0.6208(3)
C9 C 0.2220(4) 0.1043(3) 0.6135(3)
H4 H 0.1586 0.0246 0.5318
C10 C 0.1694(4) 0.1496(3) 0.7275(3)
H5 H 0.0693 0.1019 0.7250
C11 C 0.2675(4) 0.2668(3) 0.8454(3)
C12 C 0.4124(4) 0.3322(3) 0.8440(3)
H6 H 0.4798 0.4111 0.9250
C13 C 0.4344(4) 0.1349(3) 0.5021(3)
C14 C 0.2186(4) 0.3209(3) 0.9727(3)
N1 N 0.9269(3) 0.3418(3) 0.5704(3)
N2 N 0.4627(4) 0.2903(3) 0.7347(3)
O1 O 0.8458(3) 0.2967(2) 0.8038(2)
O2 O 0.6383(3) 0.4978(2) 0.6624(2)
O3 O 1.0206(3) 0.5347(2) 0.8229(2)
O4 O 1.2809(3) 0.6060(2) 0.8265(2)
O5 O 0.9696(3) 0.1213(2) 0.1249(2)
O6 O 0.7349(3) 0.0584(2) 0.1613(2)
O7 O 0.5790(3) 0.2082(2) 0.5298(2)
O8 O 0.3502(3) 0.0373(2) 0.3924(2)
O9 O 0.1332(3) 0.2423(2) 0.9893(2)
O10 O 0.2708(3) 0.4471(2) 1.0545(2)
O11 O 0.6170(3) 0.0622(3) -0.1438(3)
H7 H 0.612(6) 0.038(5) -0.221(3)
H8 H 0.521(3) 0.050(4) -0.142(4)
O12 O 1.4792(3) 0.2290(3) 0.2041(3)
H9 H 1.560(4) 0.190(4) 0.198(4)
H10 H 1.524(6) 0.294(4) 0.207(5)
U1A U 0.255628(14) 0.601541(11) 1.266923(11)
Na1_2 Na -0.15137(17) 0.24236(13) 0.99411(14)
Na1_3 Na 0.84863(17) 0.24236(13) 0.99411(14)
Na1A Na 1.15137(17) 0.75764(13) 1.00589(14)
Na2_2 Na 0.22064(16) 0.08550(13) 1.06270(13)
Na2A Na 0.77936(16) -0.08550(13) -0.06270(13)
O1_2 O 0.8458(3) 0.2967(2) -0.1962(2)
O3A O 0.9794(3) 0.4653(2) 0.1771(2)
O4A O 0.7191(3) 0.3940(2) 0.1735(2)
O5A O 1.0304(3) -0.1213(2) -0.1249(2)
O6A O 1.2651(3) -0.0584(2) -0.1613(2)
O9_2 O 1.1332(3) 0.2423(2) -0.0107(2)
O10A O 0.7292(3) 0.5529(2) 0.9455(2)
O11A O 1.3830(3) -0.0622(3) 0.1438(3)
loop_
_geom_bond_atom_site_label_1
_geom_bond_atom_site_label_2
_geom_bond_site_symmetry_1
_geom_bond_site_symmetry_2
U1 N1 1_555 1_555
Na1 O5 1_555 1_555
Na2 O5 1_555 1_555
C1 C2 1_555 1_555
C2 H1 1_555 1_555
C3 C2 1_555 1_555
H2 C3 1_555 1_555
C4 C3 1_555 1_555
C5 C4 1_555 1_555
H3 C5 1_555 1_555
C6 C1 1_555 1_555
C7 C4 1_555 1_555
C8 C9 1_555 1_555
C9 H4 1_555 1_555
C10 C9 1_555 1_555
H5 C10 1_555 1_555
C11 C10 1_555 1_555
C12 C11 1_555 1_555
H6 C12 1_555 1_555
C13 C8 1_555 1_555
C14 C11 1_555 1_555
N1 C1 1_555 1_555
N2 U1 1_555 1_555
O1 U1 1_555 1_555
O2 U1 1_555 1_555
O3 U1 1_555 1_555
O4 C6 1_555 1_555
O5 C7 1_555 1_555
O6 C7 1_555 1_555
O7 U1 1_555 1_555
O8 C13 1_555 1_555
O9 C14 1_555 1_555
O10 C14 1_555 1_555
O11 Na1 1_555 1_555
H7 O11 1_555 1_555
H8 O11 1_555 1_555
O12 Na2 1_555 1_555
H9 O12 1_555 1_555
H10 O12 1_555 1_555
U1A O10 1_555 1_555
Na1_2 O9 1_555 1_555
Na1_3 O1 1_555 1_555
Na1A O3 1_555 1_555
Na2_2 O9 1_555 1_555
Na2A O5 1_555 1_555
O1_2 Na1 1_555 1_555
O3A Na1 1_555 1_555
O4A Na1 1_555 1_555
O5A Na2 1_555 1_555
O6A Na2 1_555 1_555
O9_2 Na1 1_555 1_555
O10A U1 1_555 1_555
O11A Na2 1_555 1_555
Na2 O9_2 1_555 1_555
C5 N1 1_555 1_555
C6 O3 1_555 1_555
C8 N2 1_555 1_555
C12 N2 1_555 1_555
C13 O7 1_555 1_555
O4 Na1A 1_555 1_555
O6 Na2A 1_555 1_555
O11 Na2A 1_555 1_555
Na2A O5A 1_555 1_555

#END
