
#######################################################################
#
#                 Cambridge Crystallographic Data Centre
#                                CCDC 
#
#######################################################################
#
# If this CIF has been generated from an entry in the Cambridge 
# Structural Database, then it will include bibliographic, chemical, 
# crystal, experimental, refinement or atomic coordinate data resulting 
# from the CCDC's data processing and validation procedures.
#
#######################################################################

data_TEXHOV
_symmetry_cell_setting           triclinic
_symmetry_space_group_name_H-M   'P -1'
_symmetry_Int_Tables_number      2
_space_group_name_Hall           '-P 1'
loop_
_symmetry_equiv_pos_site_id
_symmetry_equiv_pos_as_xyz
1 x,y,z
2 -x,-y,-z
_cell_length_a                   13.8403(4)
_cell_length_b                   16.7268(5)
_cell_length_c                   17.6228(6)
_cell_angle_alpha                62.062(3)
_cell_angle_beta                 88.642(3)
_cell_angle_gamma                73.843(3)
_cell_volume                     3434.45
loop_
_atom_site_label
_atom_site_type_symbol
_atom_site_fract_x
_atom_site_fract_y
_atom_site_fract_z
Eu1 Eu 0.621058(13) 0.438624(14) 0.450583(11)
Eu2 Eu 0.846015(13) 0.520293(13) 0.513771(11)
Cl1 Cl 0.23925(12) -0.07509(11) 0.49055(10)
Cl2 Cl 1.32500(12) -0.15764(12) 0.75721(11)
Cl3 Cl 0.02903(13) 0.94037(16) -0.10553(9)
Cl4 Cl 1.40365(12) -0.06812(11) 1.07380(9)
Cl5 Cl 0.18511(13) 1.16259(12) 0.17749(12)
Cl6 Cl 1.07987(14) 0.66929(13) -0.12094(9)
O1 O 0.6153(2) 0.3349(2) 0.38707(18)
O2 O 0.49134(19) 0.36282(19) 0.45964(17)
O3 O 0.7266(2) 0.27583(19) 0.55285(18)
O4 O 0.79094(18) 0.38511(18) 0.54429(16)
O5 O 0.5147(2) 0.5493(2) 0.31533(16)
O6 O 0.44022(18) 0.56680(19) 0.42003(15)
O7 O 1.02325(17) 0.40678(17) 0.56346(15)
O8 O 0.92462(19) 0.39978(19) 0.66456(15)
O9 O 0.66396(18) 0.57541(18) 0.43163(15)
O10 O 0.73683(18) 0.68197(18) 0.41769(17)
O11 O 0.74605(18) 0.4520(2) 0.35633(16)
O12 O 0.86570(18) 0.50209(19) 0.38776(16)
O13 O 0.8820(2) 0.6092(2) 0.57924(17)
O14 O 0.71476(19) 0.5337(2) 0.60249(18)
H1 H 0.6580 0.5703 0.5701
N1 N 0.9352(3) 0.6979(3) 0.6232(2)
C1 C 0.2911(3) 0.1423(3) 0.5002(3)
H2 H 0.2640 0.1816 0.5241
C2 C 0.2480(4) 0.0736(4) 0.5100(3)
H3 H 0.1918 0.0668 0.5397
C3 C 0.2890(4) 0.0156(3) 0.4755(3)
C4 C 0.3705(4) 0.0257(3) 0.4300(3)
H4 H 0.3972 -0.0139 0.4064
C5 C 0.4124(3) 0.0950(3) 0.4197(3)
H5 H 0.4672 0.1024 0.3884
C6 C 0.3746(3) 0.1539(3) 0.4551(3)
C7 C 0.4182(3) 0.2266(3) 0.4499(3)
H6 H 0.3829 0.2644 0.4730
C8 C 0.5004(3) 0.2456(3) 0.4168(3)
H7 H 0.5363 0.2122 0.3900
C9 C 0.5371(3) 0.3176(3) 0.4211(3)
C10 C 1.0346(4) -0.0208(3) 0.6641(3)
H8 H 0.9803 -0.0324 0.6454
C11 C 1.1276(4) -0.0917(3) 0.6950(3)
H9 H 1.1357 -0.1500 0.6975
C12 C 1.2060(4) -0.0732(4) 0.7214(3)
C13 C 1.1936(4) 0.0105(4) 0.7211(3)
H10 H 1.2475 0.0203 0.7425
C14 C 1.1019(4) 0.0808(4) 0.6895(3)
H11 H 1.0950 0.1385 0.6877
C15 C 1.0202(3) 0.0661(3) 0.6604(3)
C16 C 0.9215(3) 0.1398(3) 0.6242(3)
H12 H 0.8704 0.1231 0.6074
C17 C 0.8975(3) 0.2266(3) 0.6130(3)
H13 H 0.9448 0.2435 0.6345
C18 C 0.7996(3) 0.2985(3) 0.5683(2)
C19 C 0.2871(4) 0.7590(4) 0.0409(3)
H14 H 0.3484 0.7244 0.0335
C20 C 0.2125(4) 0.8185(4) -0.0291(3)
H15 H 0.2237 0.8243 -0.0834
C21 C 0.1239(4) 0.8677(4) -0.0178(3)
C22 C 0.1053(4) 0.8634(4) 0.0609(3)
H16 H 0.0442 0.8995 0.0670
C23 C 0.1802(4) 0.8038(4) 0.1306(3)
H17 H 0.1686 0.7997 0.1844
C24 C 0.2712(3) 0.7505(3) 0.1225(3)
C25 C 0.3514(3) 0.6856(3) 0.1937(3)
H18 H 0.4120 0.6593 0.1785
C26 C 0.3505(3) 0.6587(3) 0.2769(3)
H19 H 0.2932 0.6845 0.2960
C27 C 0.4396(3) 0.5880(3) 0.3398(2)
C28 C 1.1511(4) 0.1424(4) 0.9459(3)
H20 H 1.0926 0.1737 0.9599
C29 C 1.2240(4) 0.0688(4) 1.0112(3)
H21 H 1.2142 0.0499 1.0687
C30 C 1.3109(4) 0.0234(4) 0.9911(3)
C31 C 1.3256(4) 0.0493(4) 0.9066(3)
H22 H 1.3844 0.0178 0.8932
C32 C 1.2522(3) 0.1225(3) 0.8420(3)
H23 H 1.2622 0.1404 0.7846
C33 C 1.1637(3) 0.1706(3) 0.8599(3)
C34 C 1.0842(3) 0.2487(3) 0.7920(2)
H24 H 1.0224 0.2688 0.8094
C35 C 1.0919(3) 0.2931(3) 0.7086(2)
H25 H 1.1532 0.2743 0.6898
C36 C 1.0087(3) 0.3707(3) 0.6439(2)
C37 C 0.4716(4) 1.0010(3) 0.2472(3)
H26 H 0.5350 1.0105 0.2427
C38 C 0.3860(4) 1.0784(3) 0.2124(3)
H27 H 0.3919 1.1394 0.1845
C39 C 0.2935(4) 1.0656(4) 0.2186(3)
C40 C 0.2838(4) 0.9759(4) 0.2592(3)
H28 H 0.2198 0.9677 0.2627
C41 C 0.3689(3) 0.8982(3) 0.2947(3)
H29 H 0.3619 0.8376 0.3229
C42 C 0.4652(3) 0.9091(3) 0.2890(2)
C43 C 0.5568(3) 0.8284(3) 0.3281(2)
H30 H 0.6162 0.8421 0.3333
C44 C 0.5649(3) 0.7377(3) 0.3573(2)
H31 H 0.5088 0.7216 0.3481
C45 C 0.6605(3) 0.6615(3) 0.4039(2)
C46 C 0.9127(3) 0.5776(3) 0.0697(3)
H32 H 0.8514 0.5639 0.0762
C47 C 0.9465(4) 0.6090(4) -0.0105(3)
H33 H 0.9091 0.6156 -0.0574
C48 C 1.0354(4) 0.6300(4) -0.0198(3)
C49 C 1.0912(4) 0.6198(4) 0.0480(4)
H34 H 1.1520 0.6346 0.0403
C50 C 1.0581(3) 0.5874(4) 0.1285(3)
H35 H 1.0969 0.5800 0.1751
C51 C 0.9674(3) 0.5660(3) 0.1402(3)
C52 C 0.9331(3) 0.5357(3) 0.2257(2)
H36 H 0.9720 0.5379 0.2666
C53 C 0.8539(3) 0.5057(3) 0.2519(2)
H37 H 0.8169 0.4968 0.2146
C54 C 0.8206(3) 0.4852(3) 0.3385(2)
C55 C 0.9346(3) 0.6593(3) 0.5734(3)
H38 H 0.9773 0.6709 0.5304
C56 C 0.8747(4) 0.6850(4) 0.6923(3)
H39 H 0.8361 0.7459 0.6855
H40 H 0.9180 0.6495 0.7466
H41 H 0.8295 0.6511 0.6915
C57 C 1.0036(5) 0.7541(4) 0.6106(4)
H42 H 1.0474 0.7276 0.6634
H43 H 0.9648 0.8183 0.5945
H44 H 1.0437 0.7535 0.5655
H45 H 0.714(4) 0.525(4) 0.6537(17)
Eu1A Eu 0.378942(13) 0.561376(14) 0.549417(11)
Eu2A Eu 1.153985(13) 0.479707(13) 0.486229(11)
O6A O 0.55978(18) 0.43320(19) 0.57997(15)
O7A O 0.97675(17) 0.59322(17) 0.43654(15)
O15 O 0.5920(7) 0.5896(6) 0.0590(5)
N2 N 0.6165(4) 0.6877(4) 0.1009(3)
C58 C 0.6044(5) 0.6079(7) 0.1151(5)
H46 H 0.6054 0.5626 0.1721
C59 C 0.6107(8) 0.7589(6) 0.0114(5)
H47 H 0.5788 0.8209 0.0052
H48 H 0.5718 0.7481 -0.0252
H49 H 0.6779 0.7550 -0.0049
C60 C 0.6323(5) 0.7036(4) 0.1714(4)
H50 H 0.6258 0.6511 0.2243
H51 H 0.5828 0.7610 0.1632
H52 H 0.6991 0.7093 0.1743
O16 O 0.2871(3) 0.4584(4) 0.2487(3)
N3 N 0.3909(4) 0.4166(4) 0.1661(3)
C61 C 0.3656(5) 0.4497(4) 0.2204(4)
H53 H 0.4140 0.4682 0.2385
C62 C 0.4920(6) 0.4040(7) 0.1369(6)
H54 H 0.5164 0.3423 0.1409
H55 H 0.5379 0.4095 0.1728
H56 H 0.4876 0.4519 0.0779
C63 C 0.3206(8) 0.3837(8) 0.1381(6)
H57 H 0.3290 0.3951 0.0800
H58 H 0.2525 0.4173 0.1396
H59 H 0.3332 0.3170 0.1758
O17 O 0.7615(6) 0.3228(6) 0.2728(5)
H60 H 0.7695 0.3257 0.3190
H61 H 0.7075 0.3088 0.2710
loop_
_geom_bond_atom_site_label_1
_geom_bond_atom_site_label_2
_geom_bond_site_symmetry_1
_geom_bond_site_symmetry_2
Eu1 O1 1_555 1_555
Eu2 O4 1_555 1_555
Cl1 C3 1_555 1_555
Cl2 C12 1_555 1_555
Cl3 C21 1_555 1_555
Cl4 C30 1_555 1_555
Cl5 C39 1_555 1_555
Cl6 C48 1_555 1_555
O1 C9 1_555 1_555
O2 Eu1 1_555 1_555
O3 Eu1 1_555 1_555
O4 Eu1 1_555 1_555
O5 Eu1 1_555 1_555
O6 Eu1 1_555 1_555
O7 Eu2 1_555 1_555
O8 Eu2 1_555 1_555
O9 Eu1 1_555 1_555
O10 Eu2 1_555 1_555
O11 Eu1 1_555 1_555
O12 Eu2 1_555 1_555
O13 Eu2 1_555 1_555
O14 Eu2 1_555 1_555
H1 O14 1_555 1_555
N1 C55 1_555 1_555
C1 H2 1_555 1_555
C2 C1 1_555 1_555
H3 C2 1_555 1_555
C3 C2 1_555 1_555
C4 C3 1_555 1_555
H4 C4 1_555 1_555
C5 C4 1_555 1_555
H5 C5 1_555 1_555
C6 C1 1_555 1_555
C7 C6 1_555 1_555
H6 C7 1_555 1_555
C8 C7 1_555 1_555
H7 C8 1_555 1_555
C9 O2 1_555 1_555
C10 H8 1_555 1_555
C11 C10 1_555 1_555
H9 C11 1_555 1_555
C12 C11 1_555 1_555
C13 C12 1_555 1_555
H10 C13 1_555 1_555
C14 C13 1_555 1_555
H11 C14 1_555 1_555
C15 C10 1_555 1_555
C16 C15 1_555 1_555
H12 C16 1_555 1_555
C17 C16 1_555 1_555
H13 C17 1_555 1_555
C18 O3 1_555 1_555
C19 H14 1_555 1_555
C20 C19 1_555 1_555
H15 C20 1_555 1_555
C21 C20 1_555 1_555
C22 C21 1_555 1_555
H16 C22 1_555 1_555
C23 C22 1_555 1_555
H17 C23 1_555 1_555
C24 C19 1_555 1_555
C25 C24 1_555 1_555
H18 C25 1_555 1_555
C26 C25 1_555 1_555
H19 C26 1_555 1_555
C27 O5 1_555 1_555
C28 H20 1_555 1_555
C29 C28 1_555 1_555
H21 C29 1_555 1_555
C30 C29 1_555 1_555
C31 C30 1_555 1_555
H22 C31 1_555 1_555
C32 C31 1_555 1_555
H23 C32 1_555 1_555
C33 C28 1_555 1_555
C34 C33 1_555 1_555
H24 C34 1_555 1_555
C35 C34 1_555 1_555
H25 C35 1_555 1_555
C36 O7 1_555 1_555
C37 H26 1_555 1_555
C38 C37 1_555 1_555
H27 C38 1_555 1_555
C39 C38 1_555 1_555
C40 C39 1_555 1_555
H28 C40 1_555 1_555
C41 C40 1_555 1_555
H29 C41 1_555 1_555
C42 C37 1_555 1_555
C43 C42 1_555 1_555
H30 C43 1_555 1_555
C44 C43 1_555 1_555
H31 C44 1_555 1_555
C45 O9 1_555 1_555
C46 H32 1_555 1_555
C47 C46 1_555 1_555
H33 C47 1_555 1_555
C48 C47 1_555 1_555
C49 C48 1_555 1_555
H34 C49 1_555 1_555
C50 C49 1_555 1_555
H35 C50 1_555 1_555
C51 C46 1_555 1_555
C52 C51 1_555 1_555
H36 C52 1_555 1_555
C53 C52 1_555 1_555
H37 C53 1_555 1_555
C54 O11 1_555 1_555
C55 O13 1_555 1_555
H38 C55 1_555 1_555
C56 N1 1_555 1_555
H39 C56 1_555 1_555
H40 C56 1_555 1_555
H41 C56 1_555 1_555
C57 N1 1_555 1_555
H42 C57 1_555 1_555
H43 C57 1_555 1_555
H44 C57 1_555 1_555
H45 O14 1_555 1_555
O15 C58 1_555 1_555
N2 C58 1_555 1_555
C58 H46 1_555 1_555
C59 N2 1_555 1_555
H47 C59 1_555 1_555
H48 C59 1_555 1_555
H49 C59 1_555 1_555
C60 N2 1_555 1_555
H50 C60 1_555 1_555
H51 C60 1_555 1_555
H52 C60 1_555 1_555
O16 C61 1_555 1_555
N3 C61 1_555 1_555
C61 H53 1_555 1_555
C62 N3 1_555 1_555
H54 C62 1_555 1_555
H55 C62 1_555 1_555
H56 C62 1_555 1_555
C63 N3 1_555 1_555
H57 C63 1_555 1_555
H58 C63 1_555 1_555
H59 C63 1_555 1_555
O17 H60 1_555 1_555
H61 O17 1_555 1_555
Eu1A O6 1_555 1_555
Eu2A O7 1_555 1_555
O6A Eu1 1_555 1_555
O7A Eu2 1_555 1_555
Eu2 O9 1_555 1_555
O4 C18 1_555 1_555
O6 C27 1_555 1_555
O8 C36 1_555 1_555
O10 C45 1_555 1_555
O12 C54 1_555 1_555
C5 C6 1_555 1_555
C8 C9 1_555 1_555
C14 C15 1_555 1_555
C17 C18 1_555 1_555
C23 C24 1_555 1_555
C26 C27 1_555 1_555
C32 C33 1_555 1_555
C35 C36 1_555 1_555
C41 C42 1_555 1_555
C44 C45 1_555 1_555
C50 C51 1_555 1_555
C53 C54 1_555 1_555
Eu1A O6A 1_555 1_555
Eu2A O7A 1_555 1_555

#END
