
#######################################################################
#
#                 Cambridge Crystallographic Data Centre
#                                CCDC 
#
#######################################################################
#
# If this CIF has been generated from an entry in the Cambridge 
# Structural Database, then it will include bibliographic, chemical, 
# crystal, experimental, refinement or atomic coordinate data resulting 
# from the CCDC's data processing and validation procedures.
#
#######################################################################

data_TEXHOU
_symmetry_cell_setting           monoclinic
_symmetry_space_group_name_H-M   'P 21/n'
_symmetry_Int_Tables_number      14
_space_group_name_Hall           '-P 2yn'
loop_
_symmetry_equiv_pos_site_id
_symmetry_equiv_pos_as_xyz
1 x,y,z
2 1/2-x,1/2+y,1/2-z
3 -x,-y,-z
4 1/2+x,1/2-y,1/2+z
_cell_length_a                   11.7184(8)
_cell_length_b                   22.114(1)
_cell_length_c                   20.745(1)
_cell_angle_alpha                90
_cell_angle_beta                 94.063(1)
_cell_angle_gamma                90
_cell_volume                     5362.36
loop_
_atom_site_label
_atom_site_type_symbol
_atom_site_fract_x
_atom_site_fract_y
_atom_site_fract_z
Cu1 Cu 0.79770(2) 0.114029(11) 0.726315(12)
Cu2 Cu 0.71091(2) 0.140444(11) 0.839846(12)
Br1 Br 0.626386(18) 0.184076(9) 0.730176(9)
Br2 Br 0.912705(18) 0.160857(9) 0.820444(10)
P1 P 0.73649(4) 0.02205(2) 0.72935(2)
P2 P 0.66696(4) 0.04692(2) 0.85770(2)
O1 O 0.63069(12) 0.00226(6) 0.67918(7)
O2 O 0.43427(13) 0.04997(7) 0.63401(7)
O3 O 0.82401(12) -0.03258(6) 0.71438(7)
O4 O 0.93753(13) -0.06763(7) 0.61719(7)
O5 O 0.73516(12) 0.00872(6) 0.91482(6)
O6 O 0.94734(13) 0.04777(7) 0.93897(8)
O7 O 0.53733(12) 0.03361(6) 0.87809(7)
O8 O 0.43819(13) 0.08835(7) 0.97197(7)
N1 N 0.68243(14) -0.00308(7) 0.79755(8)
N2 N 1.15281(15) 0.30334(7) 0.40755(8)
N3 N 0.88177(15) 0.14644(7) 0.65181(8)
C1 C 0.62419(18) 0.02566(9) 0.61634(10)
C2 C 0.7159(2) 0.02238(10) 0.57807(10)
H1 H 0.7855 0.0040 0.5941
C3 C 0.7053(2) 0.04626(11) 0.51587(10)
H2 H 0.7683 0.0450 0.4895
C4 C 0.6037(2) 0.07158(10) 0.49277(11)
H3 H 0.5967 0.0877 0.4502
C5 C 0.5106(2) 0.07406(10) 0.53080(10)
H4 H 0.4405 0.0914 0.5141
C6 C 0.52045(19) 0.05118(9) 0.59308(10)
C7 C 0.32927(19) 0.07786(11) 0.61100(11)
H5 H 0.3423 0.1210 0.6034
H6 H 0.2728 0.0732 0.6433
H7 H 0.3006 0.0586 0.5705
C8 C 0.94192(18) -0.02419(9) 0.72027(10)
C9 C 0.99826(19) -0.00023(10) 0.77508(10)
H8 H 0.9567 0.0119 0.8106
C10 C 1.1166(2) 0.00589(11) 0.77774(11)
H9 H 1.1561 0.0229 0.8150
C11 C 1.1768(2) -0.01265(10) 0.72666(11)
H10 H 1.2577 -0.0087 0.7291
C12 C 1.12024(19) -0.03712(10) 0.67141(11)
H11 H 1.1623 -0.0496 0.6362
C13 C 1.00234(18) -0.04321(9) 0.66795(10)
C14 C 0.9915(2) -0.07680(11) 0.55843(10)
H12 H 1.0214 -0.0382 0.5436
H13 H 0.9356 -0.0929 0.5254
H14 H 1.0546 -0.1056 0.5659
C15 C 0.76324(19) 0.03806(9) 0.97384(9)
C16 C 0.6832(2) 0.04348(10) 1.01917(10)
H15 H 0.6076 0.0287 1.0102
C17 C 0.7146(2) 0.07075(11) 1.07807(11)
H16 H 0.6603 0.0749 1.1097
C18 C 0.8239(2) 0.09169(11) 1.09052(11)
H17 H 0.8447 0.1104 1.1309
C19 C 0.9050(2) 0.08598(10) 1.04500(11)
H18 H 0.9804 0.1009 1.0542
C20 C 0.87498(19) 0.05839(9) 0.98609(10)
C21 C 1.0573(2) 0.07618(11) 0.94650(13)
H19 H 1.0475 0.1201 0.9492
H20 H 1.1009 0.0664 0.9093
H21 H 1.0986 0.0615 0.9861
C22 C 0.45028(17) 0.07496(9) 0.86086(10)
C23 C 0.41839(18) 0.08805(10) 0.79712(10)
H22 H 0.4564 0.0694 0.7634
C24 C 0.32986(19) 0.12899(10) 0.78268(11)
H23 H 0.3086 0.1392 0.7390
C25 C 0.27318(19) 0.15472(10) 0.83185(11)
H24 H 0.2114 0.1817 0.8217
C26 C 0.30554(18) 0.14153(10) 0.89603(11)
H25 H 0.2660 0.1595 0.9295
C27 C 0.39520(18) 0.10226(9) 0.91126(10)
C28 C 0.3843(2) 0.11503(10) 1.02471(11)
H26 H 0.3864 0.1592 1.0209
H27 H 0.4248 0.1027 1.0655
H28 H 0.3045 0.1015 1.0239
C29 C 0.64871(18) -0.06584(9) 0.80352(9)
C30 C 0.7294(2) -0.10823(9) 0.82556(10)
H29 H 0.8059 -0.0964 0.8375
C31 C 0.6964(2) -0.16857(10) 0.82993(11)
H30 H 0.7512 -0.1982 0.8443
C32 C 0.5855(3) -0.18564(10) 0.81369(11)
H31 H 0.5640 -0.2269 0.8166
C33 C 0.5050(2) -0.14290(11) 0.79312(12)
H32 H 0.4278 -0.1547 0.7831
C34 C 0.5366(2) -0.08274(10) 0.78709(10)
H33 H 0.4818 -0.0535 0.7718
C35 C 1.19839(18) 0.30186(9) 0.46882(10)
H34 H 1.2674 0.3234 0.4792
C36 C 1.14932(18) 0.27043(9) 0.51751(10)
H35 H 1.1845 0.2706 0.5602
C37 C 1.04869(17) 0.23874(9) 0.50357(10)
C38 C 1.00101(18) 0.24049(9) 0.44022(10)
H36 H 0.9320 0.2194 0.4286
C39 C 1.05462(18) 0.27314(9) 0.39436(10)
H37 H 1.0204 0.2743 0.3515
C40 C 0.99150(18) 0.20487(9) 0.55393(9)
C41 C 1.05355(18) 0.17879(9) 0.60683(10)
H38 H 1.1348 0.1806 0.6102
C42 C 0.99595(18) 0.15041(9) 0.65404(10)
H39 H 1.0392 0.1329 0.6897
C43 C 0.82240(18) 0.17029(9) 0.60051(10)
H40 H 0.7414 0.1670 0.5979
C44 C 0.87341(18) 0.19941(9) 0.55110(10)
H41 H 0.8279 0.2156 0.5155
Cu2C Cu 1.21091(2) 0.359556(11) 0.339846(12)
N2C N 0.65281(15) 0.19666(7) 0.90755(8)
N4 N 0.6340(2) 0.27743(12) 0.51202(13)
C45 C 0.5588(2) 0.26082(11) 0.53901(12)
C46 C 0.4623(2) 0.24024(12) 0.57300(13)
H42 H 0.4901 0.2178 0.6118
H43 H 0.4141 0.2138 0.5447
H44 H 0.4175 0.2752 0.5856
N5 N 0.28484(18) 0.15327(10) 0.45726(10)
C47 C 0.26979(19) 0.16069(10) 0.40309(11)
C48 C 0.2519(2) 0.17064(11) 0.33368(11)
H45 H 0.2711 0.2126 0.3237
H46 H 0.1716 0.1628 0.3197
H47 H 0.3011 0.1432 0.3110
N6 N 0.7558(2) 0.23255(12) 0.19006(12)
C49 C 0.8319(2) 0.21054(11) 0.21784(12)
C50 C 0.9302(2) 0.18189(12) 0.25203(12)
H48 H 0.9400 0.1411 0.2348
H49 H 0.9177 0.1794 0.2982
H50 H 0.9990 0.2059 0.2461
N7 N 0.2619(2) 0.33096(10) 0.87937(12)
C51 C 0.1696(2) 0.31711(11) 0.87501(12)
C52 C 0.0492(3) 0.30044(17) 0.87056(17)
H51 H 0.0047 0.3315 0.8462
H52 H 0.0224 0.2971 0.9141
H53 H 0.0394 0.2615 0.8483
loop_
_geom_bond_atom_site_label_1
_geom_bond_atom_site_label_2
_geom_bond_site_symmetry_1
_geom_bond_site_symmetry_2
Cu1 Br1 1_555 1_555
Cu2 Br1 1_555 1_555
Br2 Cu1 1_555 1_555
P1 Cu1 1_555 1_555
P2 Cu2 1_555 1_555
O1 P1 1_555 1_555
O2 C6 1_555 1_555
O3 P1 1_555 1_555
O4 C13 1_555 1_555
O5 P2 1_555 1_555
O6 C20 1_555 1_555
O7 P2 1_555 1_555
O8 C27 1_555 1_555
N1 P1 1_555 1_555
N2 C35 1_555 1_555
N3 Cu1 1_555 1_555
C1 O1 1_555 1_555
C2 C1 1_555 1_555
H1 C2 1_555 1_555
C3 C2 1_555 1_555
H2 C3 1_555 1_555
C4 C3 1_555 1_555
H3 C4 1_555 1_555
C5 C4 1_555 1_555
H4 C5 1_555 1_555
C6 C1 1_555 1_555
C7 O2 1_555 1_555
H5 C7 1_555 1_555
H6 C7 1_555 1_555
H7 C7 1_555 1_555
C8 O3 1_555 1_555
C9 C8 1_555 1_555
H8 C9 1_555 1_555
C10 C9 1_555 1_555
H9 C10 1_555 1_555
C11 C10 1_555 1_555
H10 C11 1_555 1_555
C12 C11 1_555 1_555
H11 C12 1_555 1_555
C13 C8 1_555 1_555
C14 O4 1_555 1_555
H12 C14 1_555 1_555
H13 C14 1_555 1_555
H14 C14 1_555 1_555
C15 O5 1_555 1_555
C16 C15 1_555 1_555
H15 C16 1_555 1_555
C17 C16 1_555 1_555
H16 C17 1_555 1_555
C18 C17 1_555 1_555
H17 C18 1_555 1_555
C19 C18 1_555 1_555
H18 C19 1_555 1_555
C20 C15 1_555 1_555
C21 O6 1_555 1_555
H19 C21 1_555 1_555
H20 C21 1_555 1_555
H21 C21 1_555 1_555
C22 O7 1_555 1_555
C23 C22 1_555 1_555
H22 C23 1_555 1_555
C24 C23 1_555 1_555
H23 C24 1_555 1_555
C25 C24 1_555 1_555
H24 C25 1_555 1_555
C26 C25 1_555 1_555
H25 C26 1_555 1_555
C27 C22 1_555 1_555
C28 O8 1_555 1_555
H26 C28 1_555 1_555
H27 C28 1_555 1_555
H28 C28 1_555 1_555
C29 N1 1_555 1_555
C30 C29 1_555 1_555
H29 C30 1_555 1_555
C31 C30 1_555 1_555
H30 C31 1_555 1_555
C32 C31 1_555 1_555
H31 C32 1_555 1_555
C33 C32 1_555 1_555
H32 C33 1_555 1_555
C34 C29 1_555 1_555
H33 C34 1_555 1_555
C35 H34 1_555 1_555
C36 C35 1_555 1_555
H35 C36 1_555 1_555
C37 C36 1_555 1_555
C38 C37 1_555 1_555
H36 C38 1_555 1_555
C39 N2 1_555 1_555
H37 C39 1_555 1_555
C40 C37 1_555 1_555
C41 C40 1_555 1_555
H38 C41 1_555 1_555
C42 N3 1_555 1_555
H39 C42 1_555 1_555
C43 N3 1_555 1_555
H40 C43 1_555 1_555
C44 C40 1_555 1_555
H41 C44 1_555 1_555
N4 C45 1_555 1_555
C45 C46 1_555 1_555
C46 H42 1_555 1_555
H43 C46 1_555 1_555
H44 C46 1_555 1_555
N5 C47 1_555 1_555
C47 C48 1_555 1_555
C48 H45 1_555 1_555
H46 C48 1_555 1_555
H47 C48 1_555 1_555
N6 C49 1_555 1_555
C49 C50 1_555 1_555
C50 H48 1_555 1_555
H49 C50 1_555 1_555
H50 C50 1_555 1_555
N7 C51 1_555 1_555
C51 C52 1_555 1_555
C52 H51 1_555 1_555
H52 C52 1_555 1_555
H53 C52 1_555 1_555
Cu2C N2 1_555 1_555
N2C Cu2 1_555 1_555
Cu2 Br2 1_555 1_555
P2 N1 1_555 1_555
C5 C6 1_555 1_555
C12 C13 1_555 1_555
C19 C20 1_555 1_555
C26 C27 1_555 1_555
C33 C34 1_555 1_555
C38 C39 1_555 1_555
C41 C42 1_555 1_555
C43 C44 1_555 1_555

#END
