
#######################################################################
#
#                 Cambridge Crystallographic Data Centre
#                                CCDC 
#
#######################################################################
#
# If this CIF has been generated from an entry in the Cambridge 
# Structural Database, then it will include bibliographic, chemical, 
# crystal, experimental, refinement or atomic coordinate data resulting 
# from the CCDC's data processing and validation procedures.
#
#######################################################################

data_TEXJIR
_symmetry_cell_setting           monoclinic
_symmetry_space_group_name_H-M   'P 21/c'
_symmetry_Int_Tables_number      14
_space_group_name_Hall           '-P 2ybc'
loop_
_symmetry_equiv_pos_site_id
_symmetry_equiv_pos_as_xyz
1 x,y,z
2 -x,1/2+y,1/2-z
3 -x,-y,-z
4 x,1/2-y,1/2+z
_cell_length_a                   17.9921(3)
_cell_length_b                   8.7401(1)
_cell_length_c                   16.8952(3)
_cell_angle_alpha                90
_cell_angle_beta                 101.5070(10)
_cell_angle_gamma                90
_cell_volume                     2603.42
loop_
_atom_site_label
_atom_site_type_symbol
_atom_site_fract_x
_atom_site_fract_y
_atom_site_fract_z
Co1 Co 0.5000 0.5000 0.0000
Co2 Co 0.0000 1.0000 0.0000
S1 S 0.09545(3) 0.53667(7) -0.11760(4)
O1 O 0.06065(10) 0.5498(2) -0.20231(11)
O2 O 0.08723(10) 0.3878(2) -0.08338(12)
O3 O 0.08214(10) 0.7841(2) 0.12754(10)
N1 N 0.42719(10) 0.6160(2) -0.10473(11)
H1 H 0.4390 0.7162 -0.1030
H2 H 0.4380 0.5775 -0.1505
N2 N 0.06524(11) 0.6739(2) -0.07330(12)
N3 N 0.05830(11) 0.8019(2) 0.04354(11)
C1 C 0.34773(12) 0.6011(3) -0.10791(13)
C2 C 0.30663(14) 0.7183(3) -0.08186(15)
H3 H 0.3306 0.8094 -0.0634
C3 C 0.22981(13) 0.6999(3) -0.08333(15)
H4 H 0.2022 0.7787 -0.0660
C4 C 0.19420(12) 0.5638(3) -0.11071(13)
C5 C 0.23557(13) 0.4453(3) -0.13559(14)
H5 H 0.2118 0.3536 -0.1533
C6 C 0.31199(14) 0.4638(3) -0.13399(14)
H6 H 0.3397 0.3842 -0.1504
C7 C 0.08296(12) 0.6812(3) 0.00958(14)
C8 C 0.12480(15) 0.5843(3) 0.07012(15)
H7 H 0.1489 0.4929 0.0625
C9 C 0.12210(14) 0.6528(3) 0.14033(15)
C10 C 0.1548(2) 0.6169(4) 0.22640(17)
H8 H 0.1691 0.5110 0.2312
H9 H 0.1176 0.6369 0.2587
H10 H 0.1986 0.6796 0.2447
S2 S 0.42080(3) 0.97206(6) 0.13596(3)
O4 O 0.46218(9) 1.08877(18) 0.10197(10)
O5 O 0.43651(9) 0.96224(19) 0.22306(10)
O6 O 0.40574(10) 0.42966(18) 0.12241(10)
N4 N 0.09414(11) 1.1570(2) 0.05192(14)
H11 H 0.0917 1.2366 0.0177
H12 H 0.0835 1.1942 0.0981
N5 N 0.43541(11) 0.8180(2) 0.09253(11)
N6 N 0.42827(11) 0.5558(2) 0.08068(12)
C11 C 0.17167(12) 1.1078(3) 0.07001(15)
C12 C 0.21786(14) 1.1260(3) 0.01395(15)
H13 H 0.1980 1.1678 -0.0364
C13 C 0.29321(14) 1.0823(3) 0.03247(15)
H14 H 0.3239 1.0956 -0.0052
C14 C 0.32297(12) 1.0184(2) 0.10738(14)
C15 C 0.27591(14) 0.9950(3) 0.16201(15)
H15 H 0.2951 0.9484 0.2114
C16 C 0.20065(13) 1.0404(3) 0.14381(15)
H16 H 0.1697 1.0255 0.1811
C17 C 0.41492(12) 0.6801(2) 0.12056(13)
C18 C 0.38242(15) 0.6378(3) 0.18781(15)
H17 H 0.3666 0.7026 0.2248
C19 C 0.37969(16) 0.4850(3) 0.18619(16)
C20 C 0.3565(2) 0.3675(4) 0.2405(2)
H18 H 0.3491 0.4154 0.2895
H19 H 0.3954 0.2911 0.2530
H20 H 0.3100 0.3202 0.2139
O7 O 0.44712(9) 0.28402(18) -0.02837(10)
H21 H 0.4888 0.2361 -0.0436
H22 H 0.4427 0.2335 0.0130
O8 O 0.04275(13) 0.9819(2) -0.10778(13)
H23 H 0.0884 1.0506 -0.1235
H24 H 0.0520 0.8842 -0.1184
S1B S -0.09545(3) 1.46333(7) 0.11760(4)
O1B O -0.06065(10) 1.4502(2) 0.20231(11)
O2B O -0.08723(10) 1.6122(2) 0.08338(12)
O3B O -0.08214(10) 1.2159(2) -0.12754(10)
N1B N -0.42719(10) 1.3840(2) 0.10473(11)
H1B H -0.4390 1.2838 0.1030
H2B H -0.4380 1.4225 0.1505
N2B N -0.06524(11) 1.3261(2) 0.07330(12)
N3B N -0.05830(11) 1.1981(2) -0.04354(11)
C1B C -0.34773(12) 1.3989(3) 0.10791(13)
C2B C -0.30663(14) 1.2817(3) 0.08186(15)
H3B H -0.3306 1.1906 0.0634
C3B C -0.22981(13) 1.3001(3) 0.08333(15)
H4B H -0.2022 1.2213 0.0660
C4B C -0.19420(12) 1.4362(3) 0.11071(13)
C5B C -0.23557(13) 1.5547(3) 0.13559(14)
H5B H -0.2118 1.6464 0.1533
C6B C -0.31199(14) 1.5362(3) 0.13399(14)
H6B H -0.3397 1.6158 0.1504
C7B C -0.08296(12) 1.3188(3) -0.00958(14)
C8B C -0.12480(15) 1.4157(3) -0.07012(15)
H7B H -0.1489 1.5071 -0.0625
C9B C -0.12210(14) 1.3472(3) -0.14033(15)
C10B C -0.1548(2) 1.3831(4) -0.22640(17)
H8B H -0.1691 1.4890 -0.2312
H9B H -0.1176 1.3631 -0.2587
H10B H -0.1986 1.3204 -0.2447
S2B S -0.42080(3) 1.02794(6) -0.13596(3)
O4B O -0.46218(9) 0.91123(18) -0.10197(10)
O5B O -0.43651(9) 1.03776(19) -0.22306(10)
O6B O -0.40574(10) 1.57034(18) -0.12241(10)
N4B N -0.09414(11) 0.8430(2) -0.05192(14)
H11B H -0.0917 0.7634 -0.0177
H12B H -0.0835 0.8058 -0.0981
N5B N -0.43541(11) 1.1820(2) -0.09253(11)
N6B N -0.42827(11) 1.4442(2) -0.08068(12)
C11B C -0.17167(12) 0.8922(3) -0.07001(15)
C12B C -0.21786(14) 0.8740(3) -0.01395(15)
H13B H -0.1980 0.8322 0.0364
C13B C -0.29321(14) 0.9177(3) -0.03247(15)
H14B H -0.3239 0.9044 0.0052
C14B C -0.32297(12) 0.9816(2) -0.10738(14)
C15B C -0.27591(14) 1.0050(3) -0.16201(15)
H15B H -0.2951 1.0516 -0.2114
C16B C -0.20065(13) 0.9596(3) -0.14381(15)
H16B H -0.1697 0.9745 -0.1811
C17B C -0.41492(12) 1.3199(2) -0.12056(13)
C18B C -0.38242(15) 1.3622(3) -0.18781(15)
H17B H -0.3666 1.2974 -0.2248
C19B C -0.37969(16) 1.5150(3) -0.18619(16)
C20B C -0.3565(2) 1.6325(4) -0.2405(2)
H18B H -0.3491 1.5846 -0.2895
H19B H -0.3954 1.7089 -0.2530
H20B H -0.3100 1.6798 -0.2139
O8B O -0.04275(13) 1.0181(2) 0.10778(13)
H23B H -0.0884 0.9494 0.1235
H24B H -0.0520 1.1158 0.1184
O7B O 0.55288(9) 0.71598(18) 0.02837(10)
H21B H 0.5112 0.7639 0.0436
H22B H 0.5573 0.7665 -0.0130
Co1_2 Co -0.5000 1.5000 0.0000
N1B_2 N 0.57281(10) 0.3840(2) 0.10473(11)
N6B_2 N 0.57173(11) 0.4442(2) -0.08068(12)
O9 O 0.07391(17) 0.2649(4) 0.2328(3)
H25 H 0.0670 0.3270 0.2872
H26 H 0.0272 0.1995 0.2039
loop_
_geom_bond_atom_site_label_1
_geom_bond_atom_site_label_2
_geom_bond_site_symmetry_1
_geom_bond_site_symmetry_2
Co1 N1 1_555 1_555
Co2 N3 1_555 1_555
S1 O1 1_555 1_555
O2 S1 1_555 1_555
O3 N3 1_555 1_555
N1 H1 1_555 1_555
H2 N1 1_555 1_555
N2 S1 1_555 1_555
N3 C7 1_555 1_555
C1 N1 1_555 1_555
C2 C1 1_555 1_555
H3 C2 1_555 1_555
C3 C2 1_555 1_555
H4 C3 1_555 1_555
C4 S1 1_555 1_555
C5 C4 1_555 1_555
H5 C5 1_555 1_555
C6 C1 1_555 1_555
H6 C6 1_555 1_555
C7 N2 1_555 1_555
C8 C7 1_555 1_555
H7 C8 1_555 1_555
C9 O3 1_555 1_555
C10 C9 1_555 1_555
H8 C10 1_555 1_555
H9 C10 1_555 1_555
H10 C10 1_555 1_555
S2 O4 1_555 1_555
O5 S2 1_555 1_555
O6 N6 1_555 1_555
N4 Co2 1_555 1_555
H11 N4 1_555 1_555
H12 N4 1_555 1_555
N5 S2 1_555 1_555
N6 Co1 1_555 1_555
C11 N4 1_555 1_555
C12 C11 1_555 1_555
H13 C12 1_555 1_555
C13 C12 1_555 1_555
H14 C13 1_555 1_555
C14 S2 1_555 1_555
C15 C14 1_555 1_555
H15 C15 1_555 1_555
C16 C11 1_555 1_555
H16 C16 1_555 1_555
C17 N5 1_555 1_555
C18 C17 1_555 1_555
H17 C18 1_555 1_555
C19 O6 1_555 1_555
C20 C19 1_555 1_555
H18 C20 1_555 1_555
H19 C20 1_555 1_555
H20 C20 1_555 1_555
O7 Co1 1_555 1_555
H21 O7 1_555 1_555
H22 O7 1_555 1_555
O8 Co2 1_555 1_555
H23 O8 1_555 1_555
H24 O8 1_555 1_555
O9 H25 1_555 1_555
H26 O9 1_555 1_555
S1B O1B 1_555 1_555
O2B S1B 1_555 1_555
O3B N3B 1_555 1_555
N1B H1B 1_555 1_555
H2B N1B 1_555 1_555
N2B S1B 1_555 1_555
N3B Co2 1_555 1_555
C1B N1B 1_555 1_555
C2B C1B 1_555 1_555
H3B C2B 1_555 1_555
C3B C2B 1_555 1_555
H4B C3B 1_555 1_555
C4B S1B 1_555 1_555
C5B C4B 1_555 1_555
H5B C5B 1_555 1_555
C6B C1B 1_555 1_555
H6B C6B 1_555 1_555
C7B N2B 1_555 1_555
C8B C7B 1_555 1_555
H7B C8B 1_555 1_555
C9B O3B 1_555 1_555
C10B C9B 1_555 1_555
H8B C10B 1_555 1_555
H9B C10B 1_555 1_555
H10B C10B 1_555 1_555
S2B O4B 1_555 1_555
O5B S2B 1_555 1_555
O6B N6B 1_555 1_555
N4B Co2 1_555 1_555
H11B N4B 1_555 1_555
H12B N4B 1_555 1_555
N5B S2B 1_555 1_555
N6B C17B 1_555 1_555
C11B N4B 1_555 1_555
C12B C11B 1_555 1_555
H13B C12B 1_555 1_555
C13B C12B 1_555 1_555
H14B C13B 1_555 1_555
C14B S2B 1_555 1_555
C15B C14B 1_555 1_555
H15B C15B 1_555 1_555
C16B C11B 1_555 1_555
H16B C16B 1_555 1_555
C17B N5B 1_555 1_555
C18B C17B 1_555 1_555
H17B C18B 1_555 1_555
C19B O6B 1_555 1_555
C20B C19B 1_555 1_555
H18B C20B 1_555 1_555
H19B C20B 1_555 1_555
H20B C20B 1_555 1_555
O8B Co2 1_555 1_555
H23B O8B 1_555 1_555
H24B O8B 1_555 1_555
O7B Co1 1_555 1_555
H21B O7B 1_555 1_555
H22B O7B 1_555 1_555
Co1_2 N1B 1_555 1_555
N1B_2 Co1 1_555 1_555
N6B_2 Co1 1_555 1_555
C3 C4 1_555 1_555
C5 C6 1_555 1_555
C8 C9 1_555 1_555
N6 C17 1_555 1_555
C13 C14 1_555 1_555
C15 C16 1_555 1_555
C18 C19 1_555 1_555
N3B C7B 1_555 1_555
C3B C4B 1_555 1_555
C5B C6B 1_555 1_555
C8B C9B 1_555 1_555
N6B Co1_2 1_555 1_555
C13B C14B 1_555 1_555
C15B C16B 1_555 1_555
C18B C19B 1_555 1_555

#END
