
#######################################################################
#
#                 Cambridge Crystallographic Data Centre
#                                CCDC 
#
#######################################################################
#
# If this CIF has been generated from an entry in the Cambridge 
# Structural Database, then it will include bibliographic, chemical, 
# crystal, experimental, refinement or atomic coordinate data resulting 
# from the CCDC's data processing and validation procedures.
#
#######################################################################

data_TEXKEO
_symmetry_cell_setting           orthorhombic
_symmetry_space_group_name_H-M   'P b c a'
_symmetry_Int_Tables_number      61
_space_group_name_Hall           '-P 2ac 2ab'
loop_
_symmetry_equiv_pos_site_id
_symmetry_equiv_pos_as_xyz
1 x,y,z
2 1/2-x,-y,1/2+z
3 1/2+x,1/2-y,-z
4 -x,1/2+y,1/2-z
5 -x,-y,-z
6 1/2+x,y,1/2-z
7 1/2-x,1/2+y,z
8 x,1/2-y,1/2+z
_cell_length_a                   23.864(9)
_cell_length_b                   18.914(7)
_cell_length_c                   29.501(11)
_cell_angle_alpha                90
_cell_angle_beta                 90
_cell_angle_gamma                90
_cell_volume                     13315.7
loop_
_atom_site_label
_atom_site_type_symbol
_atom_site_fract_x
_atom_site_fract_y
_atom_site_fract_z
Ba1 Ba 0.733735(11) 0.295069(12) 0.670792(8)
O1 O 0.81180(13) 0.27157(15) 0.59991(10)
O2 O 0.68688(13) 0.21963(15) 0.59965(10)
O3 O 0.64819(13) 0.21001(14) 0.70131(10)
O4 O 0.74767(14) 0.25844(16) 0.76026(10)
O5 O 0.84886(13) 0.29660(15) 0.69759(10)
O6 O 0.76330(13) -0.08919(15) 0.60907(10)
O7 O 0.73205(12) -0.08236(15) 0.70731(10)
O8 O 0.83496(14) -0.04376(15) 0.77683(11)
O9 O 0.93497(14) -0.00035(15) 0.71056(10)
O10 O 0.89482(14) -0.02732(16) 0.61111(11)
N1 N 0.89538(15) 0.22280(18) 0.74665(12)
N2 N 0.81646(16) 0.19163(18) 0.79446(12)
N3 N 0.72873(15) 0.15135(18) 0.79374(12)
N4 N 0.64600(15) 0.11631(17) 0.75106(11)
N5 N 0.62232(16) 0.09805(17) 0.67909(11)
N6 N 0.65476(16) 0.10469(18) 0.60137(12)
N7 N 0.72698(16) 0.13105(18) 0.55712(12)
N8 N 0.82324(16) 0.17304(18) 0.55480(12)
N9 N 0.89371(16) 0.20646(17) 0.59911(12)
N10 N 0.92503(16) 0.23061(19) 0.67569(11)
N11 N 0.85184(15) 0.07092(18) 0.79990(12)
N12 N 0.93096(16) 0.10201(18) 0.75218(12)
N13 N 0.95674(16) 0.10761(19) 0.68007(12)
N14 N 0.92845(16) 0.08604(18) 0.60223(12)
N15 N 0.85581(16) 0.05123(18) 0.56080(12)
N16 N 0.75945(16) 0.00968(18) 0.56301(12)
N17 N 0.68473(15) -0.01835(18) 0.60454(11)
N18 N 0.65327(16) -0.02401(18) 0.68279(11)
N19 N 0.68578(15) -0.00249(18) 0.75186(11)
N20 N 0.76388(15) 0.03093(18) 0.79974(12)
O11 O 0.64136(16) 0.37290(18) 0.69834(14)
O12 O 0.7739(2) 0.1542(2) 0.67591(16)
C1 C 0.64049(18) 0.1475(2) 0.70951(14)
C2 C 0.68948(19) 0.1573(2) 0.58753(14)
C3 C 0.84022(19) 0.2212(2) 0.58645(14)
C4 C 0.88557(19) 0.2538(2) 0.70564(14)
C5 C 0.76320(19) 0.2058(2) 0.78055(14)
C6 C 0.63447(18) 0.0405(2) 0.74975(14)
C7 C 0.61407(19) 0.0291(2) 0.69966(14)
C8 C 0.66402(19) 0.0391(2) 0.57610(14)
C9 C 0.71614(19) 0.0573(2) 0.54584(14)
C10 C 0.86676(19) 0.1223(2) 0.54347(14)
C11 C 0.91794(19) 0.1477(2) 0.57372(14)
C12 C 0.96484(19) 0.1805(2) 0.69566(14)
C13 C 0.94460(18) 0.1767(2) 0.74662(14)
C14 C 0.82048(19) 0.1280(2) 0.82198(14)
C15 C 0.75880(19) 0.0996(2) 0.82152(14)
C16 C 0.8184(2) 0.0138(2) 0.79019(14)
C17 C 0.69389(18) -0.0402(2) 0.71323(14)
C18 C 0.73862(18) -0.0377(2) 0.59395(14)
C19 C 0.8933(2) 0.0314(2) 0.59330(15)
C20 C 0.93947(19) 0.0631(2) 0.71394(15)
C21 C 0.9367(2) 0.0831(3) 0.48479(17)
H1 H 0.9464 0.0875 0.4526
H2 H 0.9310 0.0328 0.4912
C22 C 0.9859(2) 0.1102(3) 0.51345(18)
H3 H 1.0017 0.0707 0.5308
H4 H 1.0153 0.1282 0.4933
C23 C 0.9683(2) 0.1687(2) 0.54614(15)
H5 H 0.9995 0.1796 0.5666
H6 H 0.9596 0.2116 0.5289
C24 C 1.0249(2) 0.2055(2) 0.69113(16)
H7 H 1.0337 0.2124 0.6590
H8 H 1.0501 0.1690 0.7030
C25 C 1.0351(2) 0.2743(2) 0.71652(17)
H9 H 1.0169 0.3130 0.7000
H10 H 1.0754 0.2839 0.7171
C26 C 1.0129(2) 0.2731(2) 0.76542(17)
H11 H 1.0433 0.2864 0.7860
H12 H 0.9832 0.3086 0.7684
C27 C 0.9899(2) 0.2016(2) 0.77966(16)
H13 H 0.9740 0.2051 0.8102
H14 H 1.0204 0.1669 0.7805
C28 C 0.8416(2) 0.1427(2) 0.86932(14)
H15 H 0.8217 0.1834 0.8820
H16 H 0.8816 0.1543 0.8681
C29 C 0.8329(2) 0.0788(3) 0.89986(16)
H17 H 0.8440 0.0912 0.9309
H18 H 0.8574 0.0403 0.8896
C30 C 0.7715(2) 0.0523(3) 0.90021(16)
H19 H 0.7708 0.0024 0.8914
H20 H 0.7567 0.0557 0.9311
C31 C 0.7342(2) 0.0936(3) 0.86880(14)
H21 H 0.7285 0.1411 0.8812
H22 H 0.6976 0.0703 0.8670
C32 C 0.59110(19) 0.0173(2) 0.78438(15)
H23 H 0.5595 0.0504 0.7841
H24 H 0.6078 0.0181 0.8147
C33 C 0.5701(2) -0.0569(2) 0.77376(16)
H25 H 0.5418 -0.0703 0.7962
H26 H 0.6014 -0.0902 0.7763
C34 C 0.5446(2) -0.0627(2) 0.72591(16)
H27 H 0.5613 -0.1032 0.7103
H28 H 0.5042 -0.0715 0.7286
C35 C 0.55366(19) 0.0035(2) 0.69750(15)
H29 H 0.5288 0.0411 0.7084
H30 H 0.5438 -0.0065 0.6659
C36 C 0.6127(2) 0.0183(2) 0.54836(15)
H31 H 0.6190 -0.0281 0.5346
H32 H 0.5801 0.0146 0.5684
C37 C 0.6007(2) 0.0720(3) 0.51147(17)
H33 H 0.5883 0.1163 0.5256
H34 H 0.5700 0.0545 0.4925
C38 C 0.6518(2) 0.0874(3) 0.48112(16)
H35 H 0.6427 0.0745 0.4498
H36 H 0.6597 0.1382 0.4818
C39 C 0.7041(2) 0.0470(2) 0.49588(14)
H37 H 0.6989 -0.0035 0.4897
H38 H 0.7363 0.0634 0.4781
C40 C 0.8821(2) 0.1222(2) 0.49329(15)
H39 H 0.8520 0.0997 0.4760
H40 H 0.8857 0.1711 0.4827
C41 C 0.76798(18) 0.1758(2) 0.53482(14)
H41 H 0.7707 0.1616 0.5029
H42 H 0.7546 0.2248 0.5356
C42 C 0.81469(19) 0.0017(2) 0.54336(15)
H43 H 0.8119 0.0078 0.5104
H44 H 0.8279 -0.0466 0.5491
C43 C 0.60904(19) 0.1176(2) 0.63316(13)
H45 H 0.5994 0.1680 0.6324
H46 H 0.5760 0.0909 0.6233
C44 C 0.65146(19) -0.0554(2) 0.63769(13)
H47 H 0.6647 -0.1044 0.6396
H48 H 0.6125 -0.0565 0.6273
C45 C 0.66842(18) 0.1553(2) 0.78932(14)
H49 H 0.6513 0.1371 0.8172
H50 H 0.6576 0.2050 0.7863
C46 C 0.71827(19) -0.0178(2) 0.79213(14)
H51 H 0.6933 -0.0169 0.8185
H52 H 0.7335 -0.0658 0.7896
C47 C 0.86197(19) 0.2407(2) 0.78627(14)
H53 H 0.8864 0.2417 0.8130
H54 H 0.8464 0.2883 0.7823
C48 C 0.91158(19) 0.0688(2) 0.79357(14)
H55 H 0.9237 0.0193 0.7936
H56 H 0.9295 0.0922 0.8194
C49 C 0.9247(2) 0.2530(2) 0.62887(14)
H57 H 0.9635 0.2559 0.6181
H58 H 0.9085 0.3005 0.6271
C50 C 0.97292(19) 0.0810(2) 0.63607(14)
H59 H 0.9841 0.0314 0.6391
H60 H 1.0056 0.1076 0.6253
Ba1F Ba 0.766265(11) -0.204931(12) 0.670792(8)
O6F O 0.73670(13) 0.41081(15) 0.60907(10)
O7F O 0.76795(12) 0.41764(15) 0.70731(10)
O13 O 1.0460(2) 0.3274(3) 0.5948(2)
O14 O 0.9816(2) 0.4065(2) 0.59051(17)
O15 O 1.0617(2) 0.4329(3) 0.6175(2)
N21 N 1.0302(2) 0.3886(3) 0.60048(19)
O16 O 1.1373(2) 0.0720(3) 0.54436(16)
O17 O 1.09803(19) 0.1246(3) 0.59947(16)
O18 O 1.1072(3) 0.0146(3) 0.6021(2)
N22 N 1.1146(2) 0.0709(3) 0.58040(19)
O19 O 0.81287(17) 0.02431(18) 0.67857(13)
O20 O 0.6125(3) 0.2665(3) 0.4623(2)
O21 O 0.7534(3) 0.1727(5) 0.4056(3)
O22 O 0.9547(3) -0.1462(3) 0.6232(2)
O23 O 0.9402(2) 0.2929(2) 0.87598(16)
O24 O 1.1486(2) -0.1157(3) 0.62624(16)
O25 O 0.8391(2) -0.1549(3) 0.84687(19)
O26 O 0.9204(2) 0.3387(3) 0.51882(18)
O27 O 0.9782(2) 0.2971(3) 0.44314(17)
O28 O 0.7364(2) 0.2899(3) 0.45635(19)
O29 O 0.5877(2) 0.2668(3) 0.55189(19)
O30 O 0.6943(2) -0.1411(2) 0.51783(13)
O31 O 0.48209(17) 0.0775(2) 0.60941(14)
loop_
_geom_bond_atom_site_label_1
_geom_bond_atom_site_label_2
_geom_bond_site_symmetry_1
_geom_bond_site_symmetry_2
Ba1 O1 1_555 1_555
O1 C3 1_555 1_555
O2 Ba1 1_555 1_555
O3 Ba1 1_555 1_555
O4 Ba1 1_555 1_555
O5 Ba1 1_555 1_555
O6 C18 1_555 1_555
O7 C17 1_555 1_555
O8 C16 1_555 1_555
O9 C20 1_555 1_555
O10 C19 1_555 1_555
N1 C4 1_555 1_555
N2 C5 1_555 1_555
N3 C5 1_555 1_555
N4 C1 1_555 1_555
N5 C1 1_555 1_555
N6 C2 1_555 1_555
N7 C2 1_555 1_555
N8 C3 1_555 1_555
N9 C3 1_555 1_555
N10 C4 1_555 1_555
N11 C14 1_555 1_555
N12 C13 1_555 1_555
N13 C12 1_555 1_555
N14 C11 1_555 1_555
N15 C10 1_555 1_555
N16 C9 1_555 1_555
N17 C8 1_555 1_555
N18 C7 1_555 1_555
N19 C6 1_555 1_555
N20 C15 1_555 1_555
O11 Ba1 1_555 1_555
O12 Ba1 1_555 1_555
C1 O3 1_555 1_555
C2 O2 1_555 1_555
C4 O5 1_555 1_555
C5 O4 1_555 1_555
C6 N4 1_555 1_555
C7 N5 1_555 1_555
C8 N6 1_555 1_555
C9 N7 1_555 1_555
C10 N8 1_555 1_555
C11 N9 1_555 1_555
C12 N10 1_555 1_555
C13 N1 1_555 1_555
C14 N2 1_555 1_555
C15 N3 1_555 1_555
C16 N11 1_555 1_555
C17 N18 1_555 1_555
C18 N16 1_555 1_555
C19 N14 1_555 1_555
C20 N12 1_555 1_555
C21 H1 1_555 1_555
H2 C21 1_555 1_555
C22 C21 1_555 1_555
H3 C22 1_555 1_555
H4 C22 1_555 1_555
C23 C11 1_555 1_555
H5 C23 1_555 1_555
H6 C23 1_555 1_555
C24 C12 1_555 1_555
H7 C24 1_555 1_555
H8 C24 1_555 1_555
C25 C24 1_555 1_555
H9 C25 1_555 1_555
H10 C25 1_555 1_555
C26 C25 1_555 1_555
H11 C26 1_555 1_555
H12 C26 1_555 1_555
C27 C13 1_555 1_555
H13 C27 1_555 1_555
H14 C27 1_555 1_555
C28 C14 1_555 1_555
H15 C28 1_555 1_555
H16 C28 1_555 1_555
C29 C28 1_555 1_555
H17 C29 1_555 1_555
H18 C29 1_555 1_555
C30 C29 1_555 1_555
H19 C30 1_555 1_555
H20 C30 1_555 1_555
C31 C15 1_555 1_555
H21 C31 1_555 1_555
H22 C31 1_555 1_555
C32 C6 1_555 1_555
H23 C32 1_555 1_555
H24 C32 1_555 1_555
C33 C32 1_555 1_555
H25 C33 1_555 1_555
H26 C33 1_555 1_555
C34 C33 1_555 1_555
H27 C34 1_555 1_555
H28 C34 1_555 1_555
C35 C7 1_555 1_555
H29 C35 1_555 1_555
H30 C35 1_555 1_555
C36 C8 1_555 1_555
H31 C36 1_555 1_555
H32 C36 1_555 1_555
C37 C36 1_555 1_555
H33 C37 1_555 1_555
H34 C37 1_555 1_555
C38 C37 1_555 1_555
H35 C38 1_555 1_555
H36 C38 1_555 1_555
C39 C9 1_555 1_555
H37 C39 1_555 1_555
H38 C39 1_555 1_555
C40 C10 1_555 1_555
H39 C40 1_555 1_555
H40 C40 1_555 1_555
C41 N7 1_555 1_555
H41 C41 1_555 1_555
H42 C41 1_555 1_555
C42 N15 1_555 1_555
H43 C42 1_555 1_555
H44 C42 1_555 1_555
C43 N5 1_555 1_555
H45 C43 1_555 1_555
H46 C43 1_555 1_555
C44 N17 1_555 1_555
H47 C44 1_555 1_555
H48 C44 1_555 1_555
C45 N3 1_555 1_555
H49 C45 1_555 1_555
H50 C45 1_555 1_555
C46 N19 1_555 1_555
H51 C46 1_555 1_555
H52 C46 1_555 1_555
C47 N1 1_555 1_555
H53 C47 1_555 1_555
H54 C47 1_555 1_555
C48 N11 1_555 1_555
H55 C48 1_555 1_555
H56 C48 1_555 1_555
C49 N9 1_555 1_555
H57 C49 1_555 1_555
H58 C49 1_555 1_555
C50 N13 1_555 1_555
H59 C50 1_555 1_555
H60 C50 1_555 1_555
O13 N21 1_555 1_555
O14 N21 1_555 1_555
O15 N21 1_555 1_555
O16 N22 1_555 1_555
O17 N22 1_555 1_555
O18 N22 1_555 1_555
Ba1F O6 1_555 1_555
O6F Ba1 1_555 1_555
O7F Ba1 1_555 1_555
O7 Ba1F 1_555 1_555
N2 C47 1_555 1_555
N4 C45 1_555 1_555
N6 C43 1_555 1_555
N8 C41 1_555 1_555
N10 C49 1_555 1_555
N12 C48 1_555 1_555
N13 C20 1_555 1_555
N14 C50 1_555 1_555
N15 C19 1_555 1_555
N16 C42 1_555 1_555
N17 C18 1_555 1_555
N18 C44 1_555 1_555
N19 C17 1_555 1_555
N20 C16 1_555 1_555
N20 C46 1_555 1_555
C6 C7 1_555 1_555
C8 C9 1_555 1_555
C10 C11 1_555 1_555
C12 C13 1_555 1_555
C14 C15 1_555 1_555
C21 C40 1_555 1_555
C22 C23 1_555 1_555
C26 C27 1_555 1_555
C30 C31 1_555 1_555
C34 C35 1_555 1_555
C38 C39 1_555 1_555

#END
