
#######################################################################
#
#                 Cambridge Crystallographic Data Centre
#                                CCDC 
#
#######################################################################
#
# If this CIF has been generated from an entry in the Cambridge 
# Structural Database, then it will include bibliographic, chemical, 
# crystal, experimental, refinement or atomic coordinate data resulting 
# from the CCDC's data processing and validation procedures.
#
#######################################################################

data_TEXNUF
_symmetry_cell_setting           monoclinic
_symmetry_space_group_name_H-M   'P 21/a'
_symmetry_Int_Tables_number      14
_space_group_name_Hall           '-P 2yab'
loop_
_symmetry_equiv_pos_site_id
_symmetry_equiv_pos_as_xyz
1 x,y,z
2 1/2-x,1/2+y,-z
3 -x,-y,-z
4 1/2+x,1/2-y,z
_cell_length_a                   10.807(8)
_cell_length_b                   14.340(6)
_cell_length_c                   11.789(3)
_cell_angle_alpha                90
_cell_angle_beta                 96.49(9)
_cell_angle_gamma                90
_cell_volume                     1815.26
loop_
_atom_site_label
_atom_site_type_symbol
_atom_site_fract_x
_atom_site_fract_y
_atom_site_fract_z
Ni1 Ni 0.1521(1) 0.1829(1) 0.7498(1)
O1 O 0.3363(3) 0.2325(2) 0.7597(3)
O2 O -0.0443(3) 0.1483(2) 0.7230(3)
N1 N 0.1088(4) 0.2912(3) 0.8526(4)
N2 N 0.1177(4) 0.2634(3) 0.6034(3)
N3 N 0.1853(4) 0.0771(4) 0.8745(5)
N4 N 0.2033(4) 0.0567(4) 0.6698(6)
C1 C 0.1486(5) 0.3629(4) 0.6198(5)
C2 C 0.2400(4) 0.3818(3) 0.7270(5)
C3 C 0.1767(5) 0.3788(4) 0.8351(5)
C4 C 0.1176(10) 0.2670(7) 0.9828(7)
C5 C 0.0832(10) 0.1683(7) 1.0066(7)
C6 C 0.1748(9) 0.0973(7) 0.9920(8)
C7 C 0.3140(6) 0.0432(5) 0.8549(9)
C8 C 0.3210(7) 0.0292(5) 0.7289(10)
C9 C 0.1007(6) 0.0001(4) 0.8286(8)
C10 C 0.1090(6) -0.0094(4) 0.6978(9)
C11 C 0.2052(10) 0.0574(7) 0.5399(9)
C12 C 0.1275(10) 0.1290(8) 0.4806(7)
C13 C 0.1714(7) 0.2250(7) 0.5033(6)
C14 C 0.3516(4) 0.3170(3) 0.7366(4)
O2C O 0.4557(3) 0.3517(2) 0.7230(3)
Ni1C Ni 0.6521(1) 0.3171(1) 0.7498(1)
Cl1 Cl 0.0998(2) 0.6619(1) 0.7227(2)
O3 O 0.2251(8) 0.6238(7) 0.7443(7)
O4 O 0.0347(9) 0.6278(10) 0.8049(8)
O5 O 0.0557(8) 0.6277(11) 0.6180(7)
O6 O 0.1065(11) 0.7487(6) 0.7232(15)
loop_
_geom_bond_atom_site_label_1
_geom_bond_atom_site_label_2
_geom_bond_site_symmetry_1
_geom_bond_site_symmetry_2
Ni1 O1 1_555 1_555
O1 C14 1_555 1_555
O2 Ni1 1_555 1_555
N1 Ni1 1_555 1_555
N2 Ni1 1_555 1_555
N3 Ni1 1_555 1_555
N4 Ni1 1_555 1_555
C1 N2 1_555 1_555
C2 C1 1_555 1_555
C3 N1 1_555 1_555
C4 N1 1_555 1_555
C5 C4 1_555 1_555
C6 N3 1_555 1_555
C7 N3 1_555 1_555
C8 N4 1_555 1_555
C9 N3 1_555 1_555
C10 N4 1_555 1_555
C11 N4 1_555 1_555
C12 C11 1_555 1_555
C13 N2 1_555 1_555
C14 C2 1_555 1_555
Cl1 O3 1_555 1_555
O4 Cl1 1_555 1_555
O5 Cl1 1_555 1_555
O6 Cl1 1_555 1_555
O2C C14 1_555 1_555
Ni1C O2C 1_555 1_555
C2 C3 1_555 1_555
C5 C6 1_555 1_555
C7 C8 1_555 1_555
C9 C10 1_555 1_555
C12 C13 1_555 1_555

#END
