
#######################################################################
#
#                 Cambridge Crystallographic Data Centre
#                                CCDC 
#
#######################################################################
#
# If this CIF has been generated from an entry in the Cambridge 
# Structural Database, then it will include bibliographic, chemical, 
# crystal, experimental, refinement or atomic coordinate data resulting 
# from the CCDC's data processing and validation procedures.
#
#######################################################################

data_TEXQAQ
_symmetry_cell_setting           monoclinic
_symmetry_space_group_name_H-M   'P 21/n'
_symmetry_Int_Tables_number      14
_space_group_name_Hall           '-P 2yn'
loop_
_symmetry_equiv_pos_site_id
_symmetry_equiv_pos_as_xyz
1 x,y,z
2 1/2-x,1/2+y,1/2-z
3 -x,-y,-z
4 1/2+x,1/2-y,1/2+z
_cell_length_a                   12.4516(9)
_cell_length_b                   12.7857(10)
_cell_length_c                   17.0259(13)
_cell_angle_alpha                90
_cell_angle_beta                 95.1430(10)
_cell_angle_gamma                90
_cell_volume                     2699.65
loop_
_atom_site_label
_atom_site_type_symbol
_atom_site_fract_x
_atom_site_fract_y
_atom_site_fract_z
Co1 Co 0.5000 -1.0000 0.5000
Co2 Co 0.27224(5) 0.02175(5) 0.36157(4)
C1 C 0.1991(4) -0.4791(4) 0.4813(3)
C2 C 0.1040(3) -0.5807(3) 0.5744(3)
C3 C 0.0916(4) -0.3907(4) 0.5750(3)
C4 C 0.1670(4) -0.2902(3) 0.4700(3)
H1 H 0.1030 -0.2477 0.4735
H2 H 0.1733 -0.3042 0.4146
C5 C 0.2639(4) -0.2283(4) 0.5023(3)
H3 H 0.2555 -0.2078 0.5562
H4 H 0.3281 -0.2712 0.5022
C6 C 0.2758(4) -0.1324(3) 0.4526(3)
C7 C 0.2004(4) -0.6707(3) 0.4755(3)
H5 H 0.2177 -0.6561 0.4222
H6 H 0.1412 -0.7203 0.4724
C8 C 0.2972(4) -0.7196(3) 0.5210(3)
H7 H 0.2796 -0.7353 0.5741
H8 H 0.3562 -0.6698 0.5249
C9 C 0.3336(4) -0.8189(4) 0.4830(3)
C10 C -0.0001(4) -0.4939(4) 0.6699(3)
H9 H -0.0478 -0.5537 0.6622
H10 H -0.0445 -0.4315 0.6700
C11 C 0.0651(4) -0.5038(4) 0.7491(3)
H11 H 0.1128 -0.4441 0.7568
H12 H 0.1093 -0.5663 0.7491
C12 C -0.0062(4) -0.5098(3) 0.8168(3)
C13 C 0.0850(5) 0.2082(5) 0.1646(3)
H13 H 0.1254 0.2681 0.1842
H14 H 0.0367 0.2282 0.1200
H15 H 0.1336 0.1554 0.1490
C14 C -0.0899(5) 0.1990(5) 0.2259(4)
H16 H -0.1356 0.1453 0.2019
H17 H -0.1008 0.2627 0.1963
H18 H -0.1074 0.2103 0.2790
C15 C 0.0074(4) 0.0669(5) 0.3461(4)
H19 H 0.0451 0.0099 0.3730
H20 H -0.0624 0.0435 0.3245
H21 H -0.0010 0.1228 0.3827
C16 C 0.0703(4) 0.1049(4) 0.2811(3)
N1 N 0.1520(3) -0.3910(3) 0.5109(2)
N2 N 0.0679(3) -0.4878(3) 0.6034(2)
N3 N 0.1656(3) -0.5732(3) 0.5116(2)
N4 N 0.0230(3) 0.1668(3) 0.2266(3)
O1 O 0.2607(3) -0.4744(3) 0.4309(2)
O2 O 0.0606(3) -0.3110(2) 0.6025(2)
O3 O 0.0806(3) -0.6651(2) 0.6010(2)
O4 O 0.2030(3) -0.1092(3) 0.3997(2)
O5 O 0.3575(2) -0.0760(2) 0.4631(2)
O6 O 0.4237(3) -0.8545(3) 0.5065(2)
O7 O 0.2673(3) -0.8571(2) 0.4304(2)
O8 O 0.0387(3) -0.5210(3) 0.88406(19)
O9 O -0.1067(3) -0.5045(3) 0.79826(19)
O10 O 0.1664(3) 0.0780(3) 0.2771(2)
Co2B Co 0.72776(5) -2.02175(5) 0.63843(4)
C1B C 0.8009(4) -1.5209(4) 0.5187(3)
C2B C 0.8960(3) -1.4193(3) 0.4256(3)
C3B C 0.9084(4) -1.6093(4) 0.4250(3)
C4B C 0.8330(4) -1.7098(3) 0.5300(3)
H1B H 0.8970 -1.7523 0.5265
H2B H 0.8267 -1.6958 0.5854
C5B C 0.7361(4) -1.7717(4) 0.4977(3)
H3B H 0.7445 -1.7922 0.4438
H4B H 0.6719 -1.7288 0.4978
C6B C 0.7242(4) -1.8676(3) 0.5474(3)
C7B C 0.7996(4) -1.3293(3) 0.5245(3)
H5B H 0.7823 -1.3439 0.5778
H6B H 0.8588 -1.2797 0.5276
C8B C 0.7028(4) -1.2804(3) 0.4790(3)
H7B H 0.7204 -1.2647 0.4259
H8B H 0.6438 -1.3302 0.4751
C9B C 0.6664(4) -1.1811(4) 0.5170(3)
C10B C 1.0001(4) -1.5061(4) 0.3301(3)
H9B H 1.0478 -1.4463 0.3378
H10B H 1.0445 -1.5685 0.3300
C11B C 0.9349(4) -1.4962(4) 0.2509(3)
H11B H 0.8872 -1.5559 0.2432
H12B H 0.8907 -1.4337 0.2509
C12B C 1.0062(4) -1.4902(3) 0.1832(3)
C13B C 0.9150(5) -2.2082(5) 0.8354(3)
H13B H 0.8746 -2.2681 0.8158
H14B H 0.9633 -2.2282 0.8800
H15B H 0.8664 -2.1554 0.8510
C14B C 1.0899(5) -2.1990(5) 0.7741(4)
H16B H 1.1356 -2.1453 0.7981
H17B H 1.1008 -2.2627 0.8037
H18B H 1.1074 -2.2103 0.7210
C15B C 0.9926(4) -2.0669(5) 0.6539(4)
H19B H 0.9549 -2.0099 0.6270
H20B H 1.0624 -2.0435 0.6755
H21B H 1.0010 -2.1228 0.6173
C16B C 0.9297(4) -2.1049(4) 0.7189(3)
N1B N 0.8480(3) -1.6090(3) 0.4891(2)
N2B N 0.9321(3) -1.5122(3) 0.3966(2)
N3B N 0.8344(3) -1.4268(3) 0.4884(2)
N4B N 0.9770(3) -2.1668(3) 0.7734(3)
O1B O 0.7393(3) -1.5256(3) 0.5691(2)
O2B O 0.9394(3) -1.6890(2) 0.3975(2)
O3B O 0.9194(3) -1.3349(2) 0.3990(2)
O4B O 0.7970(3) -1.8908(3) 0.6003(2)
O5B O 0.6425(2) -1.9240(2) 0.5369(2)
O6B O 0.5763(3) -1.1455(3) 0.4935(2)
O7B O 0.7327(3) -1.1429(2) 0.5696(2)
O8B O 0.9613(3) -1.4790(3) 0.11594(19)
O9B O 1.1067(3) -1.4955(3) 0.20174(19)
O10B O 0.8336(3) -2.0780(3) 0.7229(2)
Co1_2 Co 0.5000 -2.0000 0.5000
Co1_3 Co 0.5000 0.0000 0.5000
Co1A Co 0.0000 -0.5000 1.0000
Co1A_2 Co 1.0000 -1.5000 0.0000
Co2_2 Co 0.27224(5) -0.97825(5) 0.36157(4)
Co2A Co 1.22776(5) -1.47825(5) 0.13843(4)
Co2B_2 Co 0.72776(5) -1.02175(5) 0.63843(4)
Co2C Co -0.22776(5) -0.52175(5) 0.86157(4)
O5_2 O 0.3575(2) -1.0760(2) 0.4631(2)
O5B_2 O 0.6425(2) -0.9240(2) 0.5369(2)
O7_2 O 0.2673(3) 0.1429(2) 0.4304(2)
O7B_2 O 0.7327(3) -2.1429(2) 0.5696(2)
O8A O 0.4613(3) -1.0210(3) 0.61594(19)
O8C O 0.5387(3) -0.9790(3) 0.38406(19)
O9A O 0.6067(3) -2.0045(3) 0.70174(19)
O9C O 0.3933(3) 0.0045(3) 0.29826(19)
C17 C 0.4914(6) -0.4311(8) 0.5950(5)
H22 H 0.5116 -0.3663 0.5718
H23 H 0.4593 -0.4764 0.5545
H24 H 0.5543 -0.4640 0.6207
C18 C 0.3146(4) -0.4579(4) 0.6490(3)
H25 H 0.3044 -0.4975 0.6956
H26 H 0.3149 -0.5044 0.6047
H27 H 0.2569 -0.4084 0.6395
C19 C 0.5402(6) -0.2990(6) 0.7202(6)
H28 H 0.5937 -0.3344 0.6928
H29 H 0.5636 -0.2955 0.7754
H30 H 0.5301 -0.2295 0.6995
C20 C 0.4375(8) -0.3567(6) 0.7090(6)
N5 N 0.4061(12) -0.4084(8) 0.6584(6)
O11 O 0.3444(6) -0.3325(7) 0.7661(5)
loop_
_geom_bond_atom_site_label_1
_geom_bond_atom_site_label_2
_geom_bond_site_symmetry_1
_geom_bond_site_symmetry_2
Co1 O6 1_555 1_555
Co2 O4 1_555 1_555
C1 N1 1_555 1_555
C2 N2 1_555 1_555
C3 N1 1_555 1_555
C4 H1 1_555 1_555
H2 C4 1_555 1_555
C5 C4 1_555 1_555
H3 C5 1_555 1_555
H4 C5 1_555 1_555
C6 C5 1_555 1_555
C7 H5 1_555 1_555
H6 C7 1_555 1_555
C8 C7 1_555 1_555
H7 C8 1_555 1_555
H8 C8 1_555 1_555
C9 C8 1_555 1_555
C10 H9 1_555 1_555
H10 C10 1_555 1_555
C11 C10 1_555 1_555
H11 C11 1_555 1_555
H12 C11 1_555 1_555
C12 C11 1_555 1_555
C13 H13 1_555 1_555
H14 C13 1_555 1_555
H15 C13 1_555 1_555
C14 H16 1_555 1_555
H17 C14 1_555 1_555
H18 C14 1_555 1_555
C15 H19 1_555 1_555
H20 C15 1_555 1_555
H21 C15 1_555 1_555
C16 C15 1_555 1_555
N1 C4 1_555 1_555
N2 C3 1_555 1_555
N3 C1 1_555 1_555
N4 C13 1_555 1_555
O1 C1 1_555 1_555
O2 C3 1_555 1_555
O3 C2 1_555 1_555
O4 C6 1_555 1_555
O5 Co2 1_555 1_555
O6 C9 1_555 1_555
O7 C9 1_555 1_555
O8 C12 1_555 1_555
O9 C12 1_555 1_555
O10 Co2 1_555 1_555
C17 H22 1_555 1_555
H23 C17 1_555 1_555
H24 C17 1_555 1_555
C18 H25 1_555 1_555
H26 C18 1_555 1_555
H27 C18 1_555 1_555
C19 H28 1_555 1_555
H29 C19 1_555 1_555
H30 C19 1_555 1_555
C20 C19 1_555 1_555
N5 C17 1_555 1_555
O11 C20 1_555 1_555
Co2B O4B 1_555 1_555
C1B N1B 1_555 1_555
C2B N2B 1_555 1_555
C3B N1B 1_555 1_555
C4B H1B 1_555 1_555
H2B C4B 1_555 1_555
C5B C4B 1_555 1_555
H3B C5B 1_555 1_555
H4B C5B 1_555 1_555
C6B C5B 1_555 1_555
C7B H5B 1_555 1_555
H6B C7B 1_555 1_555
C8B C7B 1_555 1_555
H7B C8B 1_555 1_555
H8B C8B 1_555 1_555
C9B C8B 1_555 1_555
C10B H9B 1_555 1_555
H10B C10B 1_555 1_555
C11B C10B 1_555 1_555
H11B C11B 1_555 1_555
H12B C11B 1_555 1_555
C12B C11B 1_555 1_555
C13B H13B 1_555 1_555
H14B C13B 1_555 1_555
H15B C13B 1_555 1_555
C14B H16B 1_555 1_555
H17B C14B 1_555 1_555
H18B C14B 1_555 1_555
C15B H19B 1_555 1_555
H20B C15B 1_555 1_555
H21B C15B 1_555 1_555
C16B C15B 1_555 1_555
N1B C4B 1_555 1_555
N2B C3B 1_555 1_555
N3B C1B 1_555 1_555
N4B C13B 1_555 1_555
O1B C1B 1_555 1_555
O2B C3B 1_555 1_555
O3B C2B 1_555 1_555
O4B C6B 1_555 1_555
O5B Co2B 1_555 1_555
O6B Co1 1_555 1_555
O7B C9B 1_555 1_555
O8B C12B 1_555 1_555
O9B C12B 1_555 1_555
O10B Co2B 1_555 1_555
Co1_2 O5B 1_555 1_555
Co1_3 O5 1_555 1_555
Co1A O8 1_555 1_555
Co1A_2 O8B 1_555 1_555
Co2_2 O7 1_555 1_555
Co2A O9B 1_555 1_555
Co2B_2 O7B 1_555 1_555
Co2C O9 1_555 1_555
O5_2 Co1 1_555 1_555
O5B_2 Co1 1_555 1_555
O7_2 Co2 1_555 1_555
O7B_2 Co2B 1_555 1_555
O8A Co1 1_555 1_555
O8C Co1 1_555 1_555
O9A Co2B 1_555 1_555
O9C Co2 1_555 1_555
C2 N3 1_555 1_555
C6 O5 1_555 1_555
C7 N3 1_555 1_555
C10 N2 1_555 1_555
C14 N4 1_555 1_555
C16 N4 1_555 1_555
C16 O10 1_555 1_555
C18 N5 1_555 1_555
C20 N5 1_555 1_555
C2B N3B 1_555 1_555
C6B O5B 1_555 1_555
C7B N3B 1_555 1_555
C9B O6B 1_555 1_555
C10B N2B 1_555 1_555
C14B N4B 1_555 1_555
C16B N4B 1_555 1_555
C16B O10B 1_555 1_555
Co2_2 O5_2 1_555 1_555
Co2B_2 O5B_2 1_555 1_555

#END
