
#######################################################################
#
#                 Cambridge Crystallographic Data Centre
#                                CCDC 
#
#######################################################################
#
# If this CIF has been generated from an entry in the Cambridge 
# Structural Database, then it will include bibliographic, chemical, 
# crystal, experimental, refinement or atomic coordinate data resulting 
# from the CCDC's data processing and validation procedures.
#
#######################################################################

data_TEXRAQ
_symmetry_cell_setting           triclinic
_symmetry_space_group_name_H-M   'P -1'
_symmetry_Int_Tables_number      2
_space_group_name_Hall           '-P 1'
loop_
_symmetry_equiv_pos_site_id
_symmetry_equiv_pos_as_xyz
1 x,y,z
2 -x,-y,-z
_cell_length_a                   10.2091(11)
_cell_length_b                   13.3443(14)
_cell_length_c                   15.3909(16)
_cell_angle_alpha                102.070(2)
_cell_angle_beta                 104.627(2)
_cell_angle_gamma                100.618(2)
_cell_volume                     1920.67
loop_
_atom_site_label
_atom_site_type_symbol
_atom_site_fract_x
_atom_site_fract_y
_atom_site_fract_z
Pb1 Pb 1.05884(3) 1.12818(2) 0.203008(18)
Pb2 Pb 0.29367(3) 0.55807(2) -0.317518(19)
Pb3 Pb 1.39231(3) 1.04183(2) 0.379312(19)
S1 S 0.8554(2) 0.67660(16) 0.52433(14)
S2 S 0.25265(17) 0.91010(15) 0.13973(12)
O1 O 1.1009(5) 1.0047(5) 0.3241(4)
O2 O 1.2182(5) 0.9099(4) 0.4032(4)
O3 O 0.6213(5) 1.0138(5) 0.3398(4)
O4 O 0.5348(5) 0.9297(4) 0.4307(3)
O5 O 0.7128(8) 0.6215(8) 0.4985(9)
O6 O 0.9176(9) 0.7243(6) 0.6203(5)
O7 O 0.9353(11) 0.6102(7) 0.4898(6)
O8 O 0.7890(5) 1.0889(5) 0.1898(4)
O9 O 0.8586(5) 0.9878(5) 0.0871(4)
O10 O 0.4897(5) 0.7003(5) -0.1786(4)
O11 O 0.2791(5) 0.6585(4) -0.1668(4)
O12 O 0.1296(5) 0.8239(5) 0.0876(4)
O13 O 0.3157(5) 0.8993(5) 0.2334(4)
O14 O 0.2286(6) 1.0142(5) 0.1420(4)
O15 O 0.9824(6) 1.2970(5) 0.1735(4)
H1 H 0.8990 1.3038 0.1609
H2 H 1.0318 1.3408 0.1542
O16 O 1.0874(5) 1.1493(4) 0.0526(3)
H3 H 1.0231 1.1674 0.0169
H4 H 1.1299 1.1109 0.0245
O17 O 1.3347(8) 1.2259(7) 0.2763(6)
H5 H 1.3776 1.2696 0.3292
H6 H 1.3667 1.2417 0.2336
O18 O 0.0134(7) 0.5326(6) -0.3416(5)
H7 H 0.0122 0.4941 -0.3935
H8 H -0.0228 0.5775 -0.3643
O19 O 0.2346(6) 0.7606(5) -0.3447(4)
H9 H 0.1507 0.7416 -0.3803
H10 H 0.2418 0.8202 -0.3083
N1 N 0.4791(7) 0.4544(6) -0.2841(5)
N2 N 0.2361(7) 0.4096(6) -0.2435(4)
C1 C 1.1052(7) 0.9375(7) 0.3716(5)
C2 C 0.9791(7) 0.8949(6) 0.3974(5)
C3 C 0.8636(7) 0.9391(6) 0.3793(5)
H15 H 0.8642 0.9925 0.3489
C4 C 0.7500(7) 0.9031(6) 0.4067(5)
C5 C 0.7462(7) 0.8222(6) 0.4496(5)
H16 H 0.6681 0.7971 0.4669
C6 C 0.8611(7) 0.7783(6) 0.4667(5)
C7 C 0.9765(7) 0.8147(6) 0.4409(5)
H17 H 1.0527 0.7852 0.4528
C8 C 0.6272(7) 0.9531(6) 0.3905(5)
C9 C 0.7641(7) 1.0124(6) 0.1209(5)
C10 C 0.6160(7) 0.9432(6) 0.0762(5)
C11 C 0.5798(7) 0.8644(6) -0.0076(5)
H18 H 0.6471 0.8544 -0.0373
C12 C 0.4453(7) 0.8013(6) -0.0467(5)
C13 C 0.3437(7) 0.8173(6) -0.0007(5)
H19 H 0.2526 0.7752 -0.0260
C14 C 0.3804(7) 0.8953(6) 0.0814(4)
C15 C 0.5153(7) 0.9589(5) 0.1209(5)
H20 H 0.5386 1.0113 0.1765
C16 C 0.4027(7) 0.7172(6) -0.1356(5)
C17 C 0.5956(9) 0.4762(8) -0.3094(7)
H21 H 0.6144 0.5369 -0.3293
C18 C 0.6871(10) 0.4145(8) -0.3073(7)
H22 H 0.7652 0.4315 -0.3271
C19 C 0.6619(10) 0.3259(8) -0.2751(7)
H23 H 0.7237 0.2825 -0.2721
C20 C 0.5450(9) 0.3028(8) -0.2479(6)
H24 H 0.5263 0.2432 -0.2264
C21 C 0.4538(8) 0.3687(7) -0.2523(5)
C22 C 0.3260(8) 0.3482(7) -0.2238(6)
C23 C 0.2983(10) 0.2710(8) -0.1787(6)
H25 H 0.3631 0.2324 -0.1620
C24 C 0.1728(11) 0.2522(8) -0.1587(7)
H26 H 0.1521 0.1994 -0.1297
C25 C 0.0790(10) 0.3107(7) -0.1814(6)
H27 H -0.0068 0.2979 -0.1698
C26 C 0.1174(9) 0.3900(8) -0.2224(6)
H28 H 0.0560 0.4321 -0.2360
Pb1A Pb 0.94116(3) 0.87182(2) 0.796992(18)
Pb1_2 Pb 0.05884(3) 1.12818(2) 0.203008(18)
Pb1_3 Pb 2.05884(3) 1.12818(2) 0.203008(18)
Pb2_2 Pb 1.29367(3) 0.55807(2) -0.317518(19)
Pb3A Pb 0.60769(3) 0.95817(2) 0.620688(19)
Pb3_2 Pb 0.39231(3) 1.04183(2) 0.379312(19)
Pb3A_2 Pb 1.60769(3) 0.95817(2) 0.620688(19)
S1A S 1.1446(2) 1.32340(16) 0.47567(14)
S2_2 S 1.25265(17) 0.91010(15) 0.13973(12)
O1A O 0.8991(5) 0.9953(5) 0.6759(4)
O2A O 0.7818(5) 1.0901(4) 0.5968(4)
O3A O 1.3787(5) 0.9862(5) 0.6602(4)
O3_2 O 1.6213(5) 1.0138(5) 0.3398(4)
O3A_2 O 0.3787(5) 0.9862(5) 0.6602(4)
O4A O 1.4652(5) 1.0703(4) 0.5693(3)
O4_2 O 1.5348(5) 0.9297(4) 0.4307(3)
O4A_2 O 0.4652(5) 1.0703(4) 0.5693(3)
O5A O 1.2872(8) 1.3785(8) 0.5015(9)
O6A O 1.0824(9) 1.2757(6) 0.3797(5)
O7A O 1.0647(11) 1.3898(7) 0.5102(6)
O8_2 O 1.7890(5) 1.0889(5) 0.1898(4)
O8A O 1.2110(5) 0.9111(5) 0.8102(4)
O9_2 O 1.8586(5) 0.9878(5) 0.0871(4)
O9A O 1.1414(5) 1.0122(5) 0.9129(4)
O10_2 O 1.4897(5) 0.7003(5) -0.1786(4)
O11_2 O 1.2791(5) 0.6585(4) -0.1668(4)
O12_2 O 1.1296(5) 0.8239(5) 0.0876(4)
O13_2 O 1.3157(5) 0.8993(5) 0.2334(4)
O13A O 0.6843(5) 1.1007(5) 0.7666(4)
O14_2 O 1.2286(6) 1.0142(5) 0.1420(4)
O14A O 0.7714(6) 0.9858(5) 0.8580(4)
O15A O 1.0176(6) 0.7030(5) 0.8265(4)
H1A H 1.1010 0.6962 0.8391
H2A H 0.9682 0.6592 0.8458
O16A O 0.9126(5) 0.8507(4) 0.9474(3)
H3A H 0.9769 0.8326 0.9831
H4A H 0.8701 0.8891 0.9755
O17A O 0.6653(8) 0.7741(7) 0.7237(6)
H5A H 0.6224 0.7304 0.6708
H6A H 0.6333 0.7583 0.7664
O18_2 O 1.0134(7) 0.5326(6) -0.3416(5)
H7_2 H 1.0122 0.4941 -0.3935
H8_2 H 0.9772 0.5775 -0.3643
O19_2 O 1.2346(6) 0.7606(5) -0.3447(4)
H9_2 H 1.1507 0.7416 -0.3803
H10_2 H 1.2418 0.8202 -0.3083
N1_2 N 1.4791(7) 0.4544(6) -0.2841(5)
N2_2 N 1.2361(7) 0.4096(6) -0.2435(4)
C1A C 0.8948(7) 1.0625(7) 0.6284(5)
C2A C 1.0209(7) 1.1051(6) 0.6026(5)
C3A C 1.1364(7) 1.0609(6) 0.6207(5)
H15A H 1.1358 1.0075 0.6511
C4A C 1.2500(7) 1.0969(6) 0.5933(5)
C5A C 1.2538(7) 1.1778(6) 0.5504(5)
H16A H 1.3319 1.2029 0.5331
C6A C 1.1389(7) 1.2217(6) 0.5333(5)
C7A C 1.0235(7) 1.1853(6) 0.5591(5)
H17A H 0.9473 1.2148 0.5472
C8A C 1.3728(7) 1.0469(6) 0.6095(5)
C9_2 C 1.7641(7) 1.0124(6) 0.1209(5)
C10_2 C 1.6160(7) 0.9432(6) 0.0762(5)
C11_2 C 1.5798(7) 0.8644(6) -0.0076(5)
H18_2 H 1.6471 0.8544 -0.0373
C12_2 C 1.4453(7) 0.8013(6) -0.0467(5)
C13_2 C 1.3437(7) 0.8173(6) -0.0007(5)
H19_2 H 1.2526 0.7752 -0.0260
C14_2 C 1.3804(7) 0.8953(6) 0.0814(4)
C15_2 C 1.5153(7) 0.9589(5) 0.1209(5)
H20_2 H 1.5386 1.0113 0.1765
C16_2 C 1.4027(7) 0.7172(6) -0.1356(5)
C17_2 C 1.5956(9) 0.4762(8) -0.3094(7)
H21_2 H 1.6144 0.5369 -0.3293
C18_2 C 1.6871(10) 0.4145(8) -0.3073(7)
H22_2 H 1.7652 0.4315 -0.3271
C19_2 C 1.6619(10) 0.3259(8) -0.2751(7)
H23_2 H 1.7237 0.2825 -0.2721
C20_2 C 1.5450(9) 0.3028(8) -0.2479(6)
H24_2 H 1.5263 0.2432 -0.2264
C21_2 C 1.4538(8) 0.3687(7) -0.2523(5)
C22_2 C 1.3260(8) 0.3482(7) -0.2238(6)
C23_2 C 1.2983(10) 0.2710(8) -0.1787(6)
H25_2 H 1.3631 0.2324 -0.1620
C24_2 C 1.1728(11) 0.2522(8) -0.1587(7)
H26_2 H 1.1521 0.1994 -0.1297
C25_2 C 1.0790(10) 0.3107(7) -0.1814(6)
H27_2 H 0.9932 0.2979 -0.1698
C26_2 C 1.1174(9) 0.3900(8) -0.2224(6)
H28_2 H 1.0560 0.4321 -0.2360
O20 O 0.5196(11) 0.3658(8) 0.4383(6)
H11 H 0.5944 0.4152 0.4591
H12 H 0.4670 0.3762 0.4724
O21 O 0.6517(8) 0.2174(6) 0.4887(5)
H13 H 0.6929 0.2260 0.4482
H14 H 0.7026 0.1965 0.5306
N3 N 0.8227(9) 0.4500(7) 1.0109(7)
C27 C 0.9287(8) 0.5081(6) 0.9867(5)
C28 C 0.9040(7) 0.5797(6) 0.9397(5)
H29 H 0.9746 0.6169 0.9218
C29 C 0.7782(9) 0.5969(8) 0.9190(6)
H30 H 0.7620 0.6467 0.8861
C30 C 0.6697(9) 0.5451(7) 0.9437(6)
H31 H 0.5838 0.5621 0.9300
C31 C 0.6892(9) 0.4692(8) 0.9881(7)
H32 H 0.6163 0.4308 1.0032
N3A N 1.1773(9) 0.5500(7) 0.9891(7)
C27A C 1.0713(8) 0.4919(6) 1.0133(5)
C28A C 1.0960(7) 0.4203(6) 1.0603(5)
H29A H 1.0254 0.3831 1.0782
C29A C 1.2218(9) 0.4031(8) 1.0810(6)
H30A H 1.2380 0.3533 1.1139
C30A C 1.3303(9) 0.4549(7) 1.0563(6)
H31A H 1.4162 0.4379 1.0700
C31A C 1.3108(9) 0.5308(8) 1.0119(7)
H32A H 1.3837 0.5692 0.9968
loop_
_geom_bond_atom_site_label_1
_geom_bond_atom_site_label_2
_geom_bond_site_symmetry_1
_geom_bond_site_symmetry_2
Pb1 O1 1_555 1_555
Pb2 O10 1_555 1_555
Pb3 O1 1_555 1_555
S1 O5 1_555 1_555
S2 O12 1_555 1_555
O1 C1 1_555 1_555
O2 Pb3 1_555 1_555
O3 C8 1_555 1_555
O4 C8 1_555 1_555
O6 S1 1_555 1_555
O7 S1 1_555 1_555
O8 Pb1 1_555 1_555
O9 Pb1 1_555 1_555
O10 C16 1_555 1_555
O11 Pb2 1_555 1_555
O13 S2 1_555 1_555
O14 S2 1_555 1_555
O15 Pb1 1_555 1_555
H1 O15 1_555 1_555
H2 O15 1_555 1_555
O16 Pb1 1_555 1_555
H3 O16 1_555 1_555
H4 O16 1_555 1_555
O17 Pb1 1_555 1_555
H5 O17 1_555 1_555
H6 O17 1_555 1_555
O18 Pb2 1_555 1_555
H7 O18 1_555 1_555
H8 O18 1_555 1_555
O19 Pb2 1_555 1_555
H9 O19 1_555 1_555
H10 O19 1_555 1_555
O20 H11 1_555 1_555
H12 O20 1_555 1_555
O21 H13 1_555 1_555
H14 O21 1_555 1_555
N1 Pb2 1_555 1_555
N2 Pb2 1_555 1_555
N3 C27 1_555 1_555
C1 O2 1_555 1_555
C2 C1 1_555 1_555
C3 C2 1_555 1_555
H15 C3 1_555 1_555
C4 C3 1_555 1_555
C5 C4 1_555 1_555
H16 C5 1_555 1_555
C6 S1 1_555 1_555
C7 C2 1_555 1_555
H17 C7 1_555 1_555
C8 C4 1_555 1_555
C9 O8 1_555 1_555
C10 C9 1_555 1_555
C11 C10 1_555 1_555
H18 C11 1_555 1_555
C12 C11 1_555 1_555
C13 C12 1_555 1_555
H19 C13 1_555 1_555
C14 S2 1_555 1_555
C15 C10 1_555 1_555
H20 C15 1_555 1_555
C16 O11 1_555 1_555
C17 N1 1_555 1_555
H21 C17 1_555 1_555
C18 C17 1_555 1_555
H22 C18 1_555 1_555
C19 C18 1_555 1_555
H23 C19 1_555 1_555
C20 C19 1_555 1_555
H24 C20 1_555 1_555
C21 N1 1_555 1_555
C22 N2 1_555 1_555
C23 C22 1_555 1_555
H25 C23 1_555 1_555
C24 C23 1_555 1_555
H26 C24 1_555 1_555
C25 C24 1_555 1_555
H27 C25 1_555 1_555
C26 N2 1_555 1_555
H28 C26 1_555 1_555
C27 C28 1_555 1_555
C28 H29 1_555 1_555
C29 C28 1_555 1_555
H30 C29 1_555 1_555
C30 C29 1_555 1_555
H31 C30 1_555 1_555
C31 N3 1_555 1_555
H32 C31 1_555 1_555
Pb1A O6 1_555 1_555
Pb1_2 O14 1_555 1_555
Pb1_3 O8_2 1_555 1_555
Pb2_2 O10_2 1_555 1_555
Pb3A O4 1_555 1_555
Pb3_2 O3 1_555 1_555
Pb3A_2 O3A 1_555 1_555
S1A O5A 1_555 1_555
S2_2 O12_2 1_555 1_555
O1A Pb1A 1_555 1_555
O2A Pb3A 1_555 1_555
O3A C8A 1_555 1_555
O3_2 Pb3 1_555 1_555
O3A_2 Pb3A 1_555 1_555
O4A Pb3 1_555 1_555
O4_2 Pb3 1_555 1_555
O4A_2 Pb3A 1_555 1_555
O6A Pb1 1_555 1_555
O7A S1A 1_555 1_555
O8_2 C9_2 1_555 1_555
O8A Pb1A 1_555 1_555
O9_2 Pb1_3 1_555 1_555
O9A Pb1A 1_555 1_555
O10_2 C16_2 1_555 1_555
O11_2 Pb2_2 1_555 1_555
O13_2 Pb3 1_555 1_555
O13A Pb3A 1_555 1_555
O14_2 Pb1 1_555 1_555
O14A Pb1A 1_555 1_555
O15A Pb1A 1_555 1_555
H1A O15A 1_555 1_555
H2A O15A 1_555 1_555
O16A Pb1A 1_555 1_555
H3A O16A 1_555 1_555
H4A O16A 1_555 1_555
O17A Pb1A 1_555 1_555
H5A O17A 1_555 1_555
H6A O17A 1_555 1_555
O18_2 Pb2_2 1_555 1_555
H7_2 O18_2 1_555 1_555
H8_2 O18_2 1_555 1_555
O19_2 Pb2_2 1_555 1_555
H9_2 O19_2 1_555 1_555
H10_2 O19_2 1_555 1_555
N1_2 Pb2_2 1_555 1_555
N2_2 Pb2_2 1_555 1_555
N3A C27A 1_555 1_555
C1A O1A 1_555 1_555
C2A C1A 1_555 1_555
C3A C2A 1_555 1_555
H15A C3A 1_555 1_555
C4A C3A 1_555 1_555
C5A C4A 1_555 1_555
H16A C5A 1_555 1_555
C6A S1A 1_555 1_555
C7A C2A 1_555 1_555
H17A C7A 1_555 1_555
C8A O4A 1_555 1_555
C9_2 O9_2 1_555 1_555
C10_2 C9_2 1_555 1_555
C11_2 C10_2 1_555 1_555
H18_2 C11_2 1_555 1_555
C12_2 C11_2 1_555 1_555
C13_2 C12_2 1_555 1_555
H19_2 C13_2 1_555 1_555
C14_2 S2_2 1_555 1_555
C15_2 C10_2 1_555 1_555
H20_2 C15_2 1_555 1_555
C16_2 O11_2 1_555 1_555
C17_2 N1_2 1_555 1_555
H21_2 C17_2 1_555 1_555
C18_2 C17_2 1_555 1_555
H22_2 C18_2 1_555 1_555
C19_2 C18_2 1_555 1_555
H23_2 C19_2 1_555 1_555
C20_2 C19_2 1_555 1_555
H24_2 C20_2 1_555 1_555
C21_2 N1_2 1_555 1_555
C22_2 N2_2 1_555 1_555
C23_2 C22_2 1_555 1_555
H25_2 C23_2 1_555 1_555
C24_2 C23_2 1_555 1_555
H26_2 C24_2 1_555 1_555
C25_2 C24_2 1_555 1_555
H27_2 C25_2 1_555 1_555
C26_2 N2_2 1_555 1_555
H28_2 C26_2 1_555 1_555
C27A C27 1_555 1_555
C28A C27A 1_555 1_555
H29A C28A 1_555 1_555
C29A C28A 1_555 1_555
H30A C29A 1_555 1_555
C30A C29A 1_555 1_555
H31A C30A 1_555 1_555
C31A N3A 1_555 1_555
H32A C31A 1_555 1_555
O4 Pb3_2 1_555 1_555
O9 C9 1_555 1_555
O13 Pb3_2 1_555 1_555
C5 C6 1_555 1_555
C6 C7 1_555 1_555
C12 C16 1_555 1_555
C13 C14 1_555 1_555
C14 C15 1_555 1_555
C20 C21 1_555 1_555
C21 C22 1_555 1_555
C25 C26 1_555 1_555
C30 C31 1_555 1_555
Pb3A O1A 1_555 1_555
Pb3_2 O4A_2 1_555 1_555
Pb3A_2 O4A 1_555 1_555
Pb3A_2 O4_2 1_555 1_555
S1A O6A 1_555 1_555
S2_2 O13_2 1_555 1_555
S2_2 O14_2 1_555 1_555
O2A C1A 1_555 1_555
C4A C8A 1_555 1_555
C5A C6A 1_555 1_555
C6A C7A 1_555 1_555
C12_2 C16_2 1_555 1_555
C13_2 C14_2 1_555 1_555
C14_2 C15_2 1_555 1_555
C20_2 C21_2 1_555 1_555
C21_2 C22_2 1_555 1_555
C25_2 C26_2 1_555 1_555
C30A C31A 1_555 1_555

#END
