
#######################################################################
#
#                 Cambridge Crystallographic Data Centre
#                                CCDC 
#
#######################################################################
#
# If this CIF has been generated from an entry in the Cambridge 
# Structural Database, then it will include bibliographic, chemical, 
# crystal, experimental, refinement or atomic coordinate data resulting 
# from the CCDC's data processing and validation procedures.
#
#######################################################################

data_TEXTOF
_symmetry_cell_setting           orthorhombic
_symmetry_space_group_name_H-M   'P b c a'
_symmetry_Int_Tables_number      61
_space_group_name_Hall           '-P 2ac 2ab'
loop_
_symmetry_equiv_pos_site_id
_symmetry_equiv_pos_as_xyz
1 x,y,z
2 1/2-x,-y,1/2+z
3 1/2+x,1/2-y,-z
4 -x,1/2+y,1/2-z
5 -x,-y,-z
6 1/2+x,y,1/2-z
7 1/2-x,1/2+y,z
8 x,1/2-y,1/2+z
_cell_length_a                   11.126(3)
_cell_length_b                   12.897(2)
_cell_length_c                   8.9645(13)
_cell_angle_alpha                90
_cell_angle_beta                 90
_cell_angle_gamma                90
_cell_volume                     1286.33
loop_
_atom_site_label
_atom_site_type_symbol
_atom_site_fract_x
_atom_site_fract_y
_atom_site_fract_z
Zn1 Zn 0.0000 0.0000 0.0000
O1 O 0.01003(11) 0.04900(12) 0.2300(2)
O2 O 0.00634(12) -0.16490(11) 0.0688(2)
N1 N -0.1801(2) 0.01457(13) 0.0524(2)
C1 C -0.0849(2) 0.09007(14) 0.2721(2)
H1 H -0.2051(21) -0.0448(18) 0.0821(25)
H2 H -0.2206(25) 0.0322(20) -0.0295(28)
C2 C -0.1954(2) 0.09030(15) 0.1731(2)
N2 N -0.09565(14) 0.13711(13) 0.4040(2)
H3 H -0.2057(23) 0.1594(19) 0.1365(27)
H4 H -0.2667(22) 0.0807(20) 0.2322(25)
H5 H -0.1612(21) 0.1604(17) 0.4285(26)
C3 C 0.0064(2) 0.1561(2) 0.4997(2)
H6 H 0.0644(24) 0.1143(19) 0.4720(26)
H7 H -0.0131(21) 0.1439(21) 0.5962(36)
C4 C 0.0564(2) 0.26662(15) 0.4938(2)
O3 O 0.15443(12) 0.28061(11) 0.5577(2)
O2D O -0.00634(12) 0.16490(11) -0.0688(2)
O1D O -0.01003(11) -0.04900(12) -0.2300(2)
N1D N 0.1801(2) -0.01457(13) -0.0524(2)
C1D C 0.0849(2) -0.09007(14) -0.2721(2)
H1D H 0.2051(21) 0.0448(18) -0.0821(25)
H2D H 0.2206(25) -0.0322(20) 0.0295(28)
C2D C 0.1954(2) -0.09030(15) -0.1731(2)
N2D N 0.09565(14) -0.13711(13) -0.4040(2)
H3D H 0.2057(23) -0.1594(19) -0.1365(27)
H4D H 0.2667(22) -0.0807(20) -0.2322(25)
H5D H 0.1612(21) -0.1604(17) -0.4285(26)
C3D C -0.0064(2) -0.1561(2) -0.4997(2)
C4D C -0.0564(2) -0.26662(15) -0.4938(2)
H6D H -0.0644(24) -0.1143(19) -0.4720(26)
H7D H 0.0131(21) -0.1439(21) -0.5962(36)
O2C O -0.00634(12) 0.33510(11) 0.4312(2)
O3D O -0.15443(12) -0.28061(11) -0.5577(2)
O2G O 0.00634(12) -0.33510(11) -0.4312(2)
Zn1C Zn 0.0000 0.5000 0.5000
Zn1C_2 Zn 0.0000 -0.5000 -0.5000
O4 O 0.2767(2) 0.14077(14) 0.7342(2)
H8 H 0.3382(31) 0.1502(27) 0.6971(37)
H9 H 0.2199(34) 0.1845(29) 0.6846(42)
loop_
_geom_bond_atom_site_label_1
_geom_bond_atom_site_label_2
_geom_bond_site_symmetry_1
_geom_bond_site_symmetry_2
Zn1 O1 1_555 1_555
O1 C1 1_555 1_555
O2 Zn1 1_555 1_555
N1 Zn1 1_555 1_555
C1 C2 1_555 1_555
H1 N1 1_555 1_555
H2 N1 1_555 1_555
C2 N1 1_555 1_555
N2 C1 1_555 1_555
H3 C2 1_555 1_555
H4 C2 1_555 1_555
H5 N2 1_555 1_555
C3 N2 1_555 1_555
H6 C3 1_555 1_555
H7 C3 1_555 1_555
C4 C3 1_555 1_555
O3 C4 1_555 1_555
O4 H8 1_555 1_555
H9 O4 1_555 1_555
O2D Zn1 1_555 1_555
O1D Zn1 1_555 1_555
N1D Zn1 1_555 1_555
C1D O1D 1_555 1_555
H1D N1D 1_555 1_555
H2D N1D 1_555 1_555
C2D N1D 1_555 1_555
N2D C1D 1_555 1_555
H3D C2D 1_555 1_555
H4D C2D 1_555 1_555
H5D N2D 1_555 1_555
C3D N2D 1_555 1_555
C4D C3D 1_555 1_555
H6D C3D 1_555 1_555
H7D C3D 1_555 1_555
O2C C4 1_555 1_555
O3D C4D 1_555 1_555
O2G C4D 1_555 1_555
Zn1C O2C 1_555 1_555
Zn1C_2 O2G 1_555 1_555
C1D C2D 1_555 1_555

#END
