
#######################################################################
#
#                 Cambridge Crystallographic Data Centre
#                                CCDC 
#
#######################################################################
#
# If this CIF has been generated from an entry in the Cambridge 
# Structural Database, then it will include bibliographic, chemical, 
# crystal, experimental, refinement or atomic coordinate data resulting 
# from the CCDC's data processing and validation procedures.
#
#######################################################################

data_TEXVID
_symmetry_cell_setting           orthorhombic
_symmetry_space_group_name_H-M   'P c c n'
_symmetry_Int_Tables_number      56
_space_group_name_Hall           '-P 2ab 2ac'
loop_
_symmetry_equiv_pos_site_id
_symmetry_equiv_pos_as_xyz
1 x,y,z
2 1/2-x,1/2-y,z
3 -x,1/2+y,1/2-z
4 1/2+x,-y,1/2-z
5 -x,-y,-z
6 1/2+x,1/2+y,-z
7 x,1/2-y,1/2+z
8 1/2-x,y,1/2+z
_cell_length_a                   12.724(7)
_cell_length_b                   13.439(7)
_cell_length_c                   23.509(12)
_cell_angle_alpha                90
_cell_angle_beta                 90
_cell_angle_gamma                90
_cell_volume                     4019.99
loop_
_atom_site_label
_atom_site_type_symbol
_atom_site_fract_x
_atom_site_fract_y
_atom_site_fract_z
Cd1 Cd 0.24150(3) -0.10421(3) 0.32624(2)
Cd2 Cd 0.48545(3) 0.01120(3) 0.24601(2)
Br1 Br 0.2500 -0.2500 0.40580(5)
Br2 Br 0.06884(6) -0.00669(5) 0.36447(3)
Br3 Br 0.40360(6) 0.01016(5) 0.36002(3)
N1 N 0.1465(4) 0.0406(4) 0.2191(2)
N2 N 0.2354(4) 0.0021(4) 0.2405(3)
N3 N 0.3154(4) 0.0513(4) 0.2208(2)
N4 N 0.2829(4) 0.1248(4) 0.1860(2)
N5 N 0.1128(5) 0.1776(4) 0.1546(3)
H1 H 0.1389 0.2246 0.1343
H2 H 0.0459 0.1689 0.1558
N6 N 0.4497(4) -0.1600(4) 0.2396(2)
N7 N 0.3692(4) -0.1971(4) 0.2707(2)
N8 N 0.3779(4) -0.2939(4) 0.2740(2)
N9 N 0.4647(4) -0.3232(4) 0.2454(2)
N10 N 0.5978(5) -0.2356(4) 0.1943(3)
H3 H 0.6320 -0.2893 0.1870
H4 H 0.6209 -0.1792 0.1823
C1 C 0.1786(5) 0.1157(5) 0.1857(3)
C2 C 0.5074(5) -0.2398(4) 0.2248(3)
Cd1A Cd 0.25850(3) -0.39579(3) 0.32624(2)
Cd2A Cd 0.01455(3) -0.51120(3) 0.24601(2)
Br2A Br 0.43116(6) -0.49331(5) 0.36447(3)
Br3A Br 0.09640(6) -0.51016(5) 0.36002(3)
N1A N 0.3535(4) -0.5406(4) 0.2191(2)
N2A N 0.2646(4) -0.5021(4) 0.2405(3)
N3A N 0.1846(4) -0.5513(4) 0.2208(2)
N4A N 0.2171(4) -0.6248(4) 0.1860(2)
N5A N 0.3872(5) -0.6776(4) 0.1546(3)
H1A H 0.3611 -0.7246 0.1343
H2A H 0.4541 -0.6689 0.1558
N6A N 0.0503(4) -0.3400(4) 0.2396(2)
N7A N 0.1308(4) -0.3029(4) 0.2707(2)
N8A N 0.1221(4) -0.2061(4) 0.2740(2)
N9A N 0.0353(4) -0.1768(4) 0.2454(2)
N10A N -0.0978(5) -0.2644(4) 0.1943(3)
H3A H -0.1320 -0.2107 0.1870
H4A H -0.1209 -0.3208 0.1823
C1A C 0.3214(5) -0.6157(5) 0.1857(3)
C2A C -0.0074(5) -0.2602(4) 0.2248(3)
Cd2B Cd 0.51455(3) -0.48880(3) 0.25399(2)
Cd2C Cd -0.01455(3) -0.01120(3) 0.25399(2)
Br2B Br -0.06884(6) -0.50669(5) 0.13553(3)
Br2C Br 0.56884(6) 0.00669(5) 0.13553(3)
N1B N -0.1465(4) -0.4594(4) 0.2809(2)
N1C N 0.6465(4) -0.0406(4) 0.2809(2)
N9B N 0.5353(4) 0.1768(4) 0.2546(2)
N9C N -0.0353(4) -0.6768(4) 0.2546(2)
N11 N 0.7500 -0.2500 0.0043(4)
C3 C 0.8459(8) -0.2465(7) 0.0420(4)
H5 H 0.8461 -0.3053 0.0659
H6 H 0.8401 -0.1891 0.0668
C4 C 0.9496(10) -0.2410(10) 0.0109(6)
H7 H 0.9520 -0.1808 -0.0118
H8 H 0.9561 -0.2975 -0.0145
C5 C 1.0404(10) -0.2411(10) 0.0527(6)
H9 H 1.1056 -0.2373 0.0323
H10 H 1.0387 -0.3013 0.0748
H11 H 1.0343 -0.1848 0.0776
C6 C 0.7455(8) -0.1584(7) -0.0350(4)
H12 H 0.8073 -0.1589 -0.0591
H13 H 0.6846 -0.1649 -0.0595
C7 C 0.7397(10) -0.0586(8) -0.0050(5)
H14 H 0.7991 -0.0512 0.0205
H15 H 0.6758 -0.0547 0.0174
C8 C 0.7409(12) 0.0242(9) -0.0490(6)
H16 H 0.7372 0.0875 -0.0302
H17 H 0.6817 0.0169 -0.0740
H18 H 0.8047 0.0205 -0.0707
C3A C 0.6541(8) -0.2535(7) 0.0420(4)
H5A H 0.6539 -0.1947 0.0659
H6A H 0.6599 -0.3109 0.0668
C4A C 0.5504(10) -0.2590(10) 0.0109(6)
H7A H 0.5480 -0.3192 -0.0118
H8A H 0.5439 -0.2025 -0.0145
C5A C 0.4596(10) -0.2589(10) 0.0527(6)
H9A H 0.3944 -0.2627 0.0323
H10A H 0.4613 -0.1987 0.0748
H11A H 0.4657 -0.3152 0.0776
C6A C 0.7545(8) -0.3416(7) -0.0350(4)
H12A H 0.6927 -0.3411 -0.0591
H13A H 0.8154 -0.3351 -0.0595
C7A C 0.7603(10) -0.4414(8) -0.0050(5)
H14A H 0.7009 -0.4488 0.0205
H15A H 0.8242 -0.4453 0.0174
C8A C 0.7591(12) -0.5242(9) -0.0490(6)
H16A H 0.7628 -0.5875 -0.0302
H17A H 0.8183 -0.5169 -0.0740
H18A H 0.6953 -0.5205 -0.0707
loop_
_geom_bond_atom_site_label_1
_geom_bond_atom_site_label_2
_geom_bond_site_symmetry_1
_geom_bond_site_symmetry_2
Cd1 Br1 1_555 1_555
Cd2 Br3 1_555 1_555
Br1 Cd1A 1_555 1_555
Br2 Cd1 1_555 1_555
Br3 Cd1 1_555 1_555
N1 N2 1_555 1_555
N2 Cd1 1_555 1_555
N3 Cd2 1_555 1_555
N4 N3 1_555 1_555
N5 H1 1_555 1_555
H2 N5 1_555 1_555
N6 Cd2 1_555 1_555
N7 Cd1 1_555 1_555
N8 N7 1_555 1_555
N9 N8 1_555 1_555
N10 H3 1_555 1_555
H4 N10 1_555 1_555
C1 N1 1_555 1_555
C2 N6 1_555 1_555
N11 C3 1_555 1_555
C3 H5 1_555 1_555
H6 C3 1_555 1_555
C4 C3 1_555 1_555
H7 C4 1_555 1_555
H8 C4 1_555 1_555
C5 C4 1_555 1_555
H9 C5 1_555 1_555
H10 C5 1_555 1_555
H11 C5 1_555 1_555
C6 N11 1_555 1_555
H12 C6 1_555 1_555
H13 C6 1_555 1_555
C7 C6 1_555 1_555
H14 C7 1_555 1_555
H15 C7 1_555 1_555
C8 C7 1_555 1_555
H16 C8 1_555 1_555
H17 C8 1_555 1_555
H18 C8 1_555 1_555
Cd1A N8 1_555 1_555
Cd2A Br3A 1_555 1_555
Br2A Cd1A 1_555 1_555
Br3A Cd1A 1_555 1_555
N1A N2A 1_555 1_555
N2A Cd1A 1_555 1_555
N3A Cd2A 1_555 1_555
N4A N3A 1_555 1_555
N5A H1A 1_555 1_555
H2A N5A 1_555 1_555
N6A Cd2A 1_555 1_555
N7A Cd1A 1_555 1_555
N8A Cd1 1_555 1_555
N9A N8A 1_555 1_555
N10A H3A 1_555 1_555
H4A N10A 1_555 1_555
C1A N1A 1_555 1_555
C2A N6A 1_555 1_555
Cd2B N9 1_555 1_555
Cd2C Br2 1_555 1_555
Br2B Cd2A 1_555 1_555
Br2C Cd2 1_555 1_555
N1B Cd2A 1_555 1_555
N1C Cd2 1_555 1_555
N9B Cd2 1_555 1_555
N9C Cd2A 1_555 1_555
C3A N11 1_555 1_555
H5A C3A 1_555 1_555
H6A C3A 1_555 1_555
C4A C3A 1_555 1_555
H7A C4A 1_555 1_555
H8A C4A 1_555 1_555
C5A C4A 1_555 1_555
H9A C5A 1_555 1_555
H10A C5A 1_555 1_555
H11A C5A 1_555 1_555
C6A N11 1_555 1_555
H12A C6A 1_555 1_555
H13A C6A 1_555 1_555
C7A C6A 1_555 1_555
H14A C7A 1_555 1_555
H15A C7A 1_555 1_555
C8A C7A 1_555 1_555
H16A C8A 1_555 1_555
H17A C8A 1_555 1_555
H18A C8A 1_555 1_555
N1 Cd2C 1_555 1_555
N2 N3 1_555 1_555
N4 C1 1_555 1_555
N5 C1 1_555 1_555
N6 N7 1_555 1_555
N9 C2 1_555 1_555
N10 C2 1_555 1_555
Br2A Cd2B 1_555 1_555
N1A Cd2B 1_555 1_555
N2A N3A 1_555 1_555
N4A C1A 1_555 1_555
N5A C1A 1_555 1_555
N6A N7A 1_555 1_555
N7A N8A 1_555 1_555
N9A C2A 1_555 1_555
N9A Cd2C 1_555 1_555
N10A C2A 1_555 1_555

#END
