
#######################################################################
#
#                 Cambridge Crystallographic Data Centre
#                                CCDC 
#
#######################################################################
#
# If this CIF has been generated from an entry in the Cambridge 
# Structural Database, then it will include bibliographic, chemical, 
# crystal, experimental, refinement or atomic coordinate data resulting 
# from the CCDC's data processing and validation procedures.
#
#######################################################################

data_TEXVOJ
_symmetry_cell_setting           orthorhombic
_symmetry_space_group_name_H-M   'P b c a'
_symmetry_Int_Tables_number      61
_space_group_name_Hall           '-P 2ac 2ab'
loop_
_symmetry_equiv_pos_site_id
_symmetry_equiv_pos_as_xyz
1 x,y,z
2 1/2-x,-y,1/2+z
3 -x,1/2+y,1/2-z
4 1/2+x,1/2-y,-z
5 -x,-y,-z
6 1/2+x,y,1/2-z
7 x,1/2-y,1/2+z
8 1/2-x,1/2+y,z
_cell_length_a                   19.052(2)
_cell_length_b                   18.588(2)
_cell_length_c                   28.092(4)
_cell_angle_alpha                90
_cell_angle_beta                 90
_cell_angle_gamma                90
_cell_volume                     9948.46
loop_
_atom_site_label
_atom_site_type_symbol
_atom_site_fract_x
_atom_site_fract_y
_atom_site_fract_z
Cd1 Cd -0.230721(9) -0.358769(9) 0.585225(6)
Cd2 Cd -0.148156(9) -0.294056(9) 0.466579(6)
Cd3 Cd -0.229149(10) -0.117116(9) 0.417845(6)
Cd4 Cd -0.328926(9) 0.047292(9) 0.365545(6)
Cd5 Cd -0.231922(10) 0.118333(10) 0.252215(6)
Cd6 Cd -0.144055(9) 0.191778(9) 0.135367(6)
Br1 Br -0.097292(14) -0.340853(17) 0.551079(10)
Br2 Br -0.099749(14) -0.157371(14) 0.453133(10)
Br3 Br -0.369025(14) -0.087333(14) 0.388554(10)
Br4 Br -0.366674(15) 0.059207(17) 0.273126(10)
Br5 Br -0.102016(15) 0.180335(16) 0.229677(10)
N1 N -0.21616(12) -0.46148(11) 0.63104(7)
N2 N -0.18477(12) -0.52127(11) 0.61449(7)
N3 N -0.18987(11) -0.57163(11) 0.64582(7)
N4 N -0.22402(12) -0.54703(12) 0.68500(8)
N5 N -0.27390(15) -0.43334(13) 0.70411(9)
H1 H -0.2824 -0.3899 0.6954
H2 H -0.2873 -0.4481 0.7317
N6 N -0.30958(11) -0.19337(11) 0.55901(7)
N7 N -0.26265(11) -0.24434(11) 0.54611(7)
N8 N -0.24222(11) -0.23297(11) 0.50309(7)
N9 N -0.27387(11) -0.17324(11) 0.48556(7)
N10 N -0.35919(12) -0.09302(12) 0.51735(8)
H3 H -0.3612 -0.0687 0.4914
H4 H -0.3848 -0.0810 0.5413
N11 N -0.06694(11) -0.40409(12) 0.39326(8)
N12 N -0.06351(11) -0.34338(12) 0.41921(8)
N13 N -0.00060(11) -0.31688(12) 0.41826(8)
N14 N 0.03976(11) -0.35968(12) 0.39129(8)
N15 N 0.01910(13) -0.46907(14) 0.34898(10)
H5 H -0.0105 -0.5018 0.3409
H6 H 0.0620 -0.4717 0.3395
N16 N -0.23402(11) -0.00563(11) 0.45882(7)
N17 N -0.27349(11) 0.04917(11) 0.44169(7)
N18 N -0.28086(11) 0.09804(11) 0.47363(7)
N19 N -0.24689(11) 0.07838(11) 0.51390(7)
N20 N -0.17998(12) -0.02639(12) 0.53403(8)
H7 H -0.1635 -0.0674 0.5252
H8 H -0.1719 -0.0108 0.5623
N21 N -0.12768(12) -0.06613(12) 0.32813(9)
N22 N -0.18654(11) -0.05366(11) 0.35296(8)
N23 N -0.21864(11) 0.00279(11) 0.33664(8)
N24 N -0.18234(12) 0.02970(12) 0.29982(8)
N25 N -0.07474(16) -0.00498(16) 0.26322(11)
H9 H -0.0765 0.0299 0.2431
H10 H -0.0401 -0.0346 0.2626
N26 N -0.26223(11) 0.27880(11) 0.37250(7)
N27 N -0.28875(11) 0.21714(11) 0.39043(7)
N28 N -0.28013(11) 0.16567(11) 0.35958(7)
N29 N -0.24813(12) 0.19148(11) 0.32062(7)
N30 N -0.20729(13) 0.30806(12) 0.29857(8)
H11 H -0.1937 0.2935 0.2710
H12 H -0.2018 0.3524 0.3066
N31 N -0.28345(12) 0.21002(12) 0.20920(8)
N32 N -0.25460(11) 0.23365(12) 0.16818(8)
N33 N -0.29144(12) 0.28753(12) 0.15252(8)
N34 N -0.34582(12) 0.30134(13) 0.18166(8)
N35 N -0.38417(14) 0.24688(16) 0.25367(9)
H13 H -0.4188 0.2762 0.2563
H14 H -0.3777 0.2141 0.2748
N36 N -0.10934(12) 0.31198(12) 0.12681(8)
N37 N -0.14798(12) 0.35828(12) 0.10651(9)
N38 N -0.11815(13) 0.42192(13) 0.10503(10)
N39 N -0.05494(13) 0.41621(13) 0.12533(10)
N40 N 0.00535(12) 0.32001(14) 0.16352(9)
H15 H 0.0398 0.3476 0.1713
H16 H 0.0060 0.2753 0.1714
C1 C -0.23928(16) -0.47869(14) 0.67442(9)
C2 C -0.31569(13) -0.15029(13) 0.52065(8)
C3 C -0.00168(13) -0.41359(15) 0.37656(10)
C4 C -0.21871(13) 0.01373(13) 0.50322(9)
C5 C -0.12638(16) -0.01321(16) 0.29579(11)
C6 C -0.23720(13) 0.26117(14) 0.32937(9)
C7 C -0.33944(14) 0.25230(16) 0.21583(10)
C8 C -0.05095(14) 0.34757(15) 0.13847(10)
Cd1A Cd -0.269279(9) 0.358769(9) 0.085225(6)
Cd1G Cd -0.269279(9) 0.141231(9) 0.585225(6)
Cd2G Cd -0.351844(9) 0.205944(9) 0.466579(6)
Cd3G Cd -0.270851(10) 0.382884(9) 0.417845(6)
Cd4G Cd -0.171074(9) -0.452708(9) 0.365545(6)
Cd5F Cd -0.231922(10) -0.618333(10) 0.752215(6)
Cd6A Cd -0.355945(9) -0.191778(9) 0.635367(6)
Cd6B Cd 0.144055(9) -0.308222(9) 0.364633(6)
Cd6F Cd -0.144055(9) -0.691778(9) 0.635367(6)
N3F N -0.18987(11) 0.07163(11) 0.14582(7)
N4F N -0.22402(12) 0.04703(12) 0.18500(8)
N6A N -0.19042(11) 0.19337(11) 0.05901(7)
N11G N -0.43306(11) 0.09591(12) 0.39326(8)
N14B N -0.03976(11) 0.14032(12) 0.10871(8)
N18G N -0.21914(11) -0.40196(11) 0.47363(7)
N19G N -0.25311(11) -0.42162(11) 0.51390(7)
N26G N -0.23777(11) -0.22120(11) 0.37250(7)
N27G N -0.21125(11) -0.28286(11) 0.39043(7)
N33A N -0.20856(12) -0.28753(12) 0.65252(8)
N37A N -0.35202(12) -0.35828(12) 0.60651(9)
N41 N -0.52014(13) 0.14600(14) 0.10060(9)
C9 C -0.53633(19) 0.18905(19) 0.05622(13)
H17 H -0.5133 0.1664 0.0293
H18 H -0.5167 0.2369 0.0598
C10 C -0.6145(3) 0.1959(3) 0.0453(2)
H19 H -0.6207 0.2237 0.0168
H20 H -0.6376 0.2195 0.0713
H21 H -0.6343 0.1489 0.0409
C11 C -0.44111(17) 0.1435(2) 0.10267(13)
H22 H -0.4245 0.1220 0.0733
H23 H -0.4241 0.1927 0.1032
C12 C -0.4082(3) 0.1048(3) 0.14250(18)
H24 H -0.3580 0.1075 0.1395
H25 H -0.4226 0.0554 0.1419
H26 H -0.4223 0.1264 0.1720
C13 C -0.5503(2) 0.0700(2) 0.09653(16)
H27 H -0.5345 0.0421 0.1237
H28 H -0.6010 0.0730 0.0982
C14 C -0.5304(3) 0.0305(2) 0.05179(18)
H29 H -0.5514 -0.0165 0.0520
H30 H -0.4803 0.0259 0.0502
H31 H -0.5469 0.0569 0.0246
C15 C -0.5507(3) 0.1796(2) 0.14422(15)
H32 H -0.5405 0.1488 0.1712
H33 H -0.6013 0.1813 0.1406
C16 C -0.5251(2) 0.2541(2) 0.15545(16)
H34 H -0.5476 0.2711 0.1839
H35 H -0.5361 0.2857 0.1295
H36 H -0.4752 0.2531 0.1602
O1 O -0.0602(2) 0.3871(2) 0.25184(14)
H37 H -0.0838(4) 0.3485(3) 0.2518(7)
H38 H -0.0310(4) 0.3837(11) 0.2746(3)
loop_
_geom_bond_atom_site_label_1
_geom_bond_atom_site_label_2
_geom_bond_site_symmetry_1
_geom_bond_site_symmetry_2
Cd1 Br1 1_555 1_555
Cd2 Br1 1_555 1_555
Cd3 Br2 1_555 1_555
Cd4 Br3 1_555 1_555
Cd5 Br4 1_555 1_555
Cd6 Br5 1_555 1_555
Br2 Cd2 1_555 1_555
Br3 Cd3 1_555 1_555
Br4 Cd4 1_555 1_555
Br5 Cd5 1_555 1_555
N1 Cd1 1_555 1_555
N2 N1 1_555 1_555
N3 N2 1_555 1_555
N4 N3 1_555 1_555
N5 H1 1_555 1_555
H2 N5 1_555 1_555
N6 N7 1_555 1_555
N7 Cd1 1_555 1_555
N8 Cd2 1_555 1_555
N9 Cd3 1_555 1_555
N10 H3 1_555 1_555
H4 N10 1_555 1_555
N11 N12 1_555 1_555
N12 Cd2 1_555 1_555
N13 N12 1_555 1_555
N14 N13 1_555 1_555
N15 H5 1_555 1_555
H6 N15 1_555 1_555
N16 Cd3 1_555 1_555
N17 Cd4 1_555 1_555
N18 N17 1_555 1_555
N19 N18 1_555 1_555
N20 H7 1_555 1_555
H8 N20 1_555 1_555
N21 N22 1_555 1_555
N22 Cd3 1_555 1_555
N23 Cd4 1_555 1_555
N24 Cd5 1_555 1_555
N25 H9 1_555 1_555
H10 N25 1_555 1_555
N26 N27 1_555 1_555
N27 N28 1_555 1_555
N28 Cd4 1_555 1_555
N29 Cd5 1_555 1_555
N30 H11 1_555 1_555
H12 N30 1_555 1_555
N31 Cd5 1_555 1_555
N32 Cd6 1_555 1_555
N33 N32 1_555 1_555
N34 N33 1_555 1_555
N35 H13 1_555 1_555
H14 N35 1_555 1_555
N36 Cd6 1_555 1_555
N37 N36 1_555 1_555
N38 N37 1_555 1_555
N39 N38 1_555 1_555
N40 H15 1_555 1_555
H16 N40 1_555 1_555
C1 N1 1_555 1_555
C2 N6 1_555 1_555
C3 N11 1_555 1_555
C4 N16 1_555 1_555
C5 N21 1_555 1_555
C6 N26 1_555 1_555
C7 N31 1_555 1_555
C8 N36 1_555 1_555
N41 C9 1_555 1_555
C9 H17 1_555 1_555
H18 C9 1_555 1_555
C10 C9 1_555 1_555
H19 C10 1_555 1_555
H20 C10 1_555 1_555
H21 C10 1_555 1_555
C11 N41 1_555 1_555
H22 C11 1_555 1_555
H23 C11 1_555 1_555
C12 C11 1_555 1_555
H24 C12 1_555 1_555
H25 C12 1_555 1_555
H26 C12 1_555 1_555
C13 N41 1_555 1_555
H27 C13 1_555 1_555
H28 C13 1_555 1_555
C14 C13 1_555 1_555
H29 C14 1_555 1_555
H30 C14 1_555 1_555
H31 C14 1_555 1_555
C15 N41 1_555 1_555
H32 C15 1_555 1_555
H33 C15 1_555 1_555
C16 C15 1_555 1_555
H34 C16 1_555 1_555
H35 C16 1_555 1_555
H36 C16 1_555 1_555
O1 H37 1_555 1_555
H38 O1 1_555 1_555
Cd1A N33 1_555 1_555
Cd1G N19 1_555 1_555
Cd2G N18 1_555 1_555
Cd3G N26 1_555 1_555
Cd4G N11 1_555 1_555
Cd5F N4 1_555 1_555
Cd6A N6 1_555 1_555
Cd6B N14 1_555 1_555
Cd6F N3 1_555 1_555
N3F Cd6 1_555 1_555
N4F Cd5 1_555 1_555
N6A Cd6 1_555 1_555
N11G Cd4 1_555 1_555
N14B Cd6 1_555 1_555
N18G Cd2 1_555 1_555
N19G Cd1 1_555 1_555
N26G Cd3 1_555 1_555
N27G Cd2 1_555 1_555
N33A Cd1 1_555 1_555
N37A Cd1 1_555 1_555
N4 C1 1_555 1_555
N5 C1 1_555 1_555
N7 N8 1_555 1_555
N8 N9 1_555 1_555
N9 C2 1_555 1_555
N10 C2 1_555 1_555
N14 C3 1_555 1_555
N15 C3 1_555 1_555
N16 N17 1_555 1_555
N19 C4 1_555 1_555
N20 C4 1_555 1_555
N22 N23 1_555 1_555
N23 N24 1_555 1_555
N24 C5 1_555 1_555
N25 C5 1_555 1_555
N27 Cd2G 1_555 1_555
N28 N29 1_555 1_555
N29 C6 1_555 1_555
N30 C6 1_555 1_555
N31 N32 1_555 1_555
N34 C7 1_555 1_555
N35 C7 1_555 1_555
N37 Cd1A 1_555 1_555
N39 C8 1_555 1_555
N40 C8 1_555 1_555
N3F N4F 1_555 1_555
N18G N19G 1_555 1_555
N26G N27G 1_555 1_555

#END
