
#######################################################################
#
#                 Cambridge Crystallographic Data Centre
#                                CCDC 
#
#######################################################################
#
# If this CIF has been generated from an entry in the Cambridge 
# Structural Database, then it will include bibliographic, chemical, 
# crystal, experimental, refinement or atomic coordinate data resulting 
# from the CCDC's data processing and validation procedures.
#
#######################################################################

data_TEXVEZ
_symmetry_cell_setting           triclinic
_symmetry_space_group_name_H-M   'P -1'
_symmetry_Int_Tables_number      2
_space_group_name_Hall           '-P 1'
loop_
_symmetry_equiv_pos_site_id
_symmetry_equiv_pos_as_xyz
1 x,y,z
2 -x,-y,-z
_cell_length_a                   7.5521(4)
_cell_length_b                   7.8791(4)
_cell_length_c                   13.0201(7)
_cell_angle_alpha                86.878(3)
_cell_angle_beta                 80.835(3)
_cell_angle_gamma                84.143(3)
_cell_volume                     760.285
loop_
_atom_site_label
_atom_site_type_symbol
_atom_site_fract_x
_atom_site_fract_y
_atom_site_fract_z
Cu1 Cu 0.75705(8) 0.34705(8) 0.24555(5)
O1 O 0.7673(5) 0.4571(4) 0.1013(3)
N1 N 0.7089(6) 0.1935(5) 0.0649(3)
H1 H 0.6909 0.1201 0.0221
N2 N 0.7080(5) 0.1556(5) 0.1687(3)
N3 N 0.7524(6) 0.1596(5) 0.3564(3)
N4 N 1.5057(6) 0.4905(6) 0.3062(4)
N5 N 0.9228(6) 0.4847(5) 0.2986(3)
N6 N 1.1836(6) 0.5442(7) 0.3760(4)
C1 C 0.7718(7) 0.1742(7) 0.4556(4)
H2 H 0.7937 0.2795 0.4774
C2 C 0.7604(7) 0.0372(7) 0.5271(4)
H3 H 0.7752 0.0501 0.5957
C3 C 0.7267(7) -0.1182(7) 0.4948(4)
H4 H 0.7161 -0.2109 0.5420
C4 C 0.7084(7) -0.1363(7) 0.3915(4)
H5 H 0.6880 -0.2410 0.3682
C5 C 0.7217(6) 0.0074(6) 0.3235(4)
C6 C 0.7117(6) 0.0052(6) 0.2109(4)
C7 C 0.7156(7) -0.1590(6) 0.1587(4)
H6 H 0.6072 -0.2118 0.1843
H7 H 0.8180 -0.2336 0.1732
H8 H 0.7240 -0.1373 0.0849
C8 C 0.7406(7) 0.3565(6) 0.0355(4)
C9 C 0.7429(8) 0.4076(7) -0.0760(4)
H9 H 0.6429 0.4907 -0.0831
H10 H 0.7337 0.3092 -0.1145
H11 H 0.8534 0.4561 -0.1027
C10 C 1.0523(7) 0.5086(6) 0.3301(4)
C11 C 1.3531(6) 0.5115(6) 0.3341(4)
Cu1_2 Cu 1.75705(8) 0.34705(8) 0.24555(5)
N4_2 N 0.5057(6) 0.4905(6) 0.3062(4)
Cl1 Cl 0.21359(16) 0.08580(15) 0.17124(9)
O2 O 0.2873(5) 0.1794(5) 0.2436(3)
O3 O 0.1221(6) -0.0525(5) 0.2246(3)
O4 O 0.3605(5) 0.0169(5) 0.0935(3)
O5 O 0.0914(5) 0.1972(5) 0.1183(3)
loop_
_geom_bond_atom_site_label_1
_geom_bond_atom_site_label_2
_geom_bond_site_symmetry_1
_geom_bond_site_symmetry_2
Cu1 O1 1_555 1_555
O1 C8 1_555 1_555
N1 H1 1_555 1_555
N2 Cu1 1_555 1_555
N3 Cu1 1_555 1_555
N4 C11 1_555 1_555
N5 Cu1 1_555 1_555
N6 C10 1_555 1_555
C1 N3 1_555 1_555
H2 C1 1_555 1_555
C2 C1 1_555 1_555
H3 C2 1_555 1_555
C3 C2 1_555 1_555
H4 C3 1_555 1_555
C4 C3 1_555 1_555
H5 C4 1_555 1_555
C5 N3 1_555 1_555
C6 N2 1_555 1_555
C7 C6 1_555 1_555
H6 C7 1_555 1_555
H7 C7 1_555 1_555
H8 C7 1_555 1_555
C8 N1 1_555 1_555
C9 C8 1_555 1_555
H9 C9 1_555 1_555
H10 C9 1_555 1_555
H11 C9 1_555 1_555
C10 N5 1_555 1_555
C11 N6 1_555 1_555
Cl1 O2 1_555 1_555
O3 Cl1 1_555 1_555
O4 Cl1 1_555 1_555
O5 Cl1 1_555 1_555
Cu1_2 N4 1_555 1_555
N4_2 Cu1 1_555 1_555
N1 N2 1_555 1_555
C4 C5 1_555 1_555
C5 C6 1_555 1_555

#END
