
#######################################################################
#
#                 Cambridge Crystallographic Data Centre
#                                CCDC 
#
#######################################################################
#
# If this CIF has been generated from an entry in the Cambridge 
# Structural Database, then it will include bibliographic, chemical, 
# crystal, experimental, refinement or atomic coordinate data resulting 
# from the CCDC's data processing and validation procedures.
#
#######################################################################

data_TEXXOL
_symmetry_cell_setting           monoclinic
_symmetry_space_group_name_H-M   'C 2'
_symmetry_Int_Tables_number      5
_space_group_name_Hall           'C 2y'
loop_
_symmetry_equiv_pos_site_id
_symmetry_equiv_pos_as_xyz
1 x,y,z
2 -x,y,-z
3 1/2+x,1/2+y,z
4 1/2-x,1/2+y,-z
_cell_length_a                   13.8026(5)
_cell_length_b                   11.2261(4)
_cell_length_c                   11.6056(4)
_cell_angle_alpha                90
_cell_angle_beta                 125.568(1)
_cell_angle_gamma                90
_cell_volume                     1462.77
loop_
_atom_site_label
_atom_site_type_symbol
_atom_site_fract_x
_atom_site_fract_y
_atom_site_fract_z
Tb1 Tb 0.837550(12) 0.4443(2) 0.464108(13)
O1 O 0.6654(10) 0.3184(9) 0.3490(11)
H1 H 0.623(5) 0.326(5) 0.2645(17)
H2 H 0.667(5) 0.272(4) 0.402(4)
O2 O 0.6634(9) 0.5788(10) 0.3471(11)
H3 H 0.679(5) 0.655(2) 0.339(6)
H4 H 0.602(3) 0.546(4) 0.289(5)
O3 O 1.04239(19) 0.4450(15) 0.6492(2)
O4 O 1.2376(2) 0.4390(18) 0.7918(3)
O5 O 0.9094(9) 0.2499(8) 0.4716(11)
O6 O 0.9023(8) -0.3663(8) 0.4631(11)
O7 O 1.1616(10) 0.5413(7) 1.3444(10)
O8 O 1.1606(9) 0.3451(9) 1.3470(11)
F1 F 1.1370(13) 0.6470(8) 0.9041(13)
F2 F 1.1445(13) 0.6516(8) 1.1412(11)
F3 F 1.1394(13) 0.2269(8) 1.1306(12)
F4 F 1.1246(14) 0.2293(8) 0.9022(14)
F5 F 0.8991(8) 0.0626(7) 0.2537(10)
F6 F 0.8952(9) -0.1777(7) 0.2517(9)
C1 C 1.1397(3) 0.4378(18) 0.7715(4)
C2 C 1.1355(3) 0.4485(15) 0.9001(4)
C3 C 1.1381(14) 0.5453(14) 0.9639(16)
C4 C 1.1440(13) 0.5423(12) 1.0832(13)
C5 C 1.1462(3) 0.4402(19) 1.1522(3)
C6 C 1.1396(11) 0.3333(10) 1.0869(10)
C7 C 1.1346(12) 0.3366(12) 0.9615(13)
C8 C 1.0000 0.1999(16) 0.5000
C9 C 1.0000 0.0673(12) 0.5000
C10 C 0.9528(13) 0.0029(11) 0.3855(15)
C11 C 0.9442(11) -0.1196(9) 0.3681(13)
C12 C 1.0000 -0.1832(15) 0.5000
C13 C 1.1573(3) 0.4396(13) 1.2902(4)
C14 C 1.0000 -0.3196(18) 0.5000
O5A O 1.0906(9) 0.2499(8) 0.5284(11)
F5A F 1.1009(8) 0.0626(7) 0.7463(10)
F6A F 1.1048(9) -0.1777(7) 0.7483(9)
C10A C 1.0472(13) 0.0029(11) 0.6145(15)
C11A C 1.0558(11) -0.1196(9) 0.6319(13)
O6A O 1.0977(8) -0.3663(8) 0.5369(11)
Tb1A Tb 1.162450(12) 0.4443(2) 0.535892(13)
O1A O 1.3346(10) 0.3184(9) 0.6510(11)
H1A H 1.377(5) 0.326(5) 0.7355(17)
H2A H 1.333(5) 0.272(4) 0.598(4)
O2A O 1.3366(9) 0.5788(10) 0.6529(11)
H3A H 1.321(5) 0.655(2) 0.661(6)
H4A H 1.398(3) 0.546(4) 0.711(5)
O3A O 0.95761(19) 0.4450(15) 0.3508(2)
O4A O 0.7624(2) 0.4390(18) 0.2082(3)
O7A O 0.8384(10) 0.5413(7) -0.3444(10)
O8A O 0.8394(9) 0.3451(9) -0.3470(11)
F1A F 0.8630(13) 0.6470(8) 0.0959(13)
F2A F 0.8555(13) 0.6516(8) -0.1412(11)
F3A F 0.8606(13) 0.2269(8) -0.1306(12)
F4A F 0.8754(14) 0.2293(8) 0.0978(14)
C1A C 0.8603(3) 0.4378(18) 0.2285(4)
C2A C 0.8645(3) 0.4485(15) 0.0999(4)
C3A C 0.8619(14) 0.5453(14) 0.0361(16)
C4A C 0.8560(13) 0.5423(12) -0.0832(13)
C5A C 0.8538(3) 0.4402(19) -0.1522(3)
C6A C 0.8604(11) 0.3333(10) -0.0869(10)
C7A C 0.8654(12) 0.3366(12) 0.0385(13)
C13A C 0.8427(3) 0.4396(13) -0.2902(4)
Tb1_2 Tb 0.837550(12) -0.5557(2) 0.464108(13)
Tb1_3 Tb 0.837550(12) 0.4443(2) -0.535892(13)
Tb1A_2 Tb 1.162450(12) -0.5557(2) 0.535892(13)
Tb1A_3 Tb 1.162450(12) 0.4443(2) 1.535892(13)
O6_2 O 0.9023(8) 0.6337(8) 0.4631(11)
O6A_2 O 1.0977(8) 0.6337(8) 0.5369(11)
O7_2 O 1.1616(10) 0.5413(7) 0.3444(10)
O7A_2 O 0.8384(10) 0.5413(7) 0.6556(10)
O8_2 O 1.1606(9) 0.3451(9) 0.3470(11)
O8A_2 O 0.8394(9) 0.3451(9) 0.6530(11)
O9 O 0.4808(3) 0.4454(13) 0.1011(4)
H5 H 0.512(5) 0.416(6) 0.064(5)
H6 H 0.407(8) 0.46(3) 0.072(10)
loop_
_geom_bond_atom_site_label_1
_geom_bond_atom_site_label_2
_geom_bond_site_symmetry_1
_geom_bond_site_symmetry_2
Tb1 O1 1_555 1_555
O1 H1 1_555 1_555
H2 O1 1_555 1_555
O2 Tb1 1_555 1_555
H3 O2 1_555 1_555
H4 O2 1_555 1_555
O3 Tb1 1_555 1_555
O4 C1 1_555 1_555
O5 Tb1 1_555 1_555
O6 C14 1_555 1_555
O7 C13 1_555 1_555
O8 C13 1_555 1_555
F1 C3 1_555 1_555
F2 C4 1_555 1_555
F3 C6 1_555 1_555
F4 C7 1_555 1_555
F5 C10 1_555 1_555
F6 C11 1_555 1_555
C1 O3 1_555 1_555
C2 C1 1_555 1_555
C3 C2 1_555 1_555
C4 C3 1_555 1_555
C5 C4 1_555 1_555
C6 C5 1_555 1_555
C7 C2 1_555 1_555
C8 O5 1_555 1_555
C9 C8 1_555 1_555
C10 C9 1_555 1_555
C11 C10 1_555 1_555
C12 C11 1_555 1_555
C13 C5 1_555 1_555
C14 C12 1_555 1_555
O9 H5 1_555 1_555
H6 O9 1_555 1_555
O5A C8 1_555 1_555
F5A C10A 1_555 1_555
F6A C11A 1_555 1_555
C10A C9 1_555 1_555
C11A C12 1_555 1_555
O6A C14 1_555 1_555
Tb1A O3 1_555 1_555
O1A Tb1A 1_555 1_555
H1A O1A 1_555 1_555
H2A O1A 1_555 1_555
O2A Tb1A 1_555 1_555
H3A O2A 1_555 1_555
H4A O2A 1_555 1_555
O3A Tb1 1_555 1_555
O4A Tb1 1_555 1_555
O7A C13A 1_555 1_555
O8A C13A 1_555 1_555
F1A C3A 1_555 1_555
F2A C4A 1_555 1_555
F3A C6A 1_555 1_555
F4A C7A 1_555 1_555
C1A O3A 1_555 1_555
C2A C1A 1_555 1_555
C3A C2A 1_555 1_555
C4A C3A 1_555 1_555
C5A C4A 1_555 1_555
C6A C5A 1_555 1_555
C7A C2A 1_555 1_555
C13A C5A 1_555 1_555
Tb1_2 O6 1_555 1_555
Tb1_3 O7A 1_555 1_555
Tb1A_2 O6A 1_555 1_555
Tb1A_3 O7 1_555 1_555
O6_2 Tb1 1_555 1_555
O6A_2 Tb1A 1_555 1_555
O7_2 Tb1A 1_555 1_555
O7A_2 Tb1 1_555 1_555
O8_2 Tb1A 1_555 1_555
O8A_2 Tb1 1_555 1_555
O4 Tb1A 1_555 1_555
O8 Tb1A_3 1_555 1_555
C6 C7 1_555 1_555
O5A Tb1A 1_555 1_555
C10A C11A 1_555 1_555
Tb1A O3A 1_555 1_555
O4A C1A 1_555 1_555
O8A Tb1_3 1_555 1_555
C6A C7A 1_555 1_555

#END
