
#######################################################################
#
#                 Cambridge Crystallographic Data Centre
#                                CCDC 
#
#######################################################################
#
# If this CIF has been generated from an entry in the Cambridge 
# Structural Database, then it will include bibliographic, chemical, 
# crystal, experimental, refinement or atomic coordinate data resulting 
# from the CCDC's data processing and validation procedures.
#
#######################################################################

data_TEYDOR
_symmetry_cell_setting           monoclinic
_symmetry_space_group_name_H-M   'C 2'
_symmetry_Int_Tables_number      5
_space_group_name_Hall           'C 2y'
loop_
_symmetry_equiv_pos_site_id
_symmetry_equiv_pos_as_xyz
1 x,y,z
2 1/2+x,1/2+y,z
3 -x,y,-z
4 1/2-x,1/2+y,-z
_cell_length_a                   21.197
_cell_length_b                   22.066
_cell_length_c                   15.314
_cell_angle_alpha                90
_cell_angle_beta                 92.97
_cell_angle_gamma                90
_cell_volume                     7153.24
loop_
_atom_site_label
_atom_site_type_symbol
_atom_site_fract_x
_atom_site_fract_y
_atom_site_fract_z
Au1 Au 0.080149 0.454096 0.013797
Au2 Au 0.2967 0.451694 0.232516
Au3 Au 0.390676 0.517996 0.392845
Cl1 Cl 0.00000 0.381495 0.00000
P1 P 0.162088 0.517906 0.022493
P2 P 0.219203 0.38281 0.215189
P3 P 0.403193 0.52212 0.538397
C1 C 0.18838 0.547816 0.139013
C2 C 0.229406 0.5959 0.13097
C3 C 0.252419 0.621414 0.208977
C4 C 0.233209 0.597712 0.286984
C5 C 0.256776 0.623907 0.371006
C6 C 0.2392 0.602018 0.446005
C7 C 0.195987 0.551396 0.446005
C8 C 0.175097 0.52842 0.367998
C9 C 0.190013 0.547091 0.295026
C10 C 0.165303 0.519809 0.198123
C11 C 0.120079 0.465607 0.2112
C12 C 0.057992 0.487995 0.216169
C13 C 0.040988 0.551985 0.209304
C14 C -0.020000 0.562001 0.215908
C15 C -0.071980 0.520987 0.228724
C16 C -0.051991 0.459988 0.234674
C17 C 0.008201 0.440501 0.229508
C18 C 0.030485 0.381314 0.235001
C19 C 0.092601 0.362416 0.229574
C20 C 0.142603 0.405514 0.216823
C21 C 0.229717 0.484687 -0.020989
C22 C 0.222477 0.445712 -0.091019
C23 C 0.269999 0.419609 -0.13097
C24 C 0.327987 0.430712 -0.102985
C25 C 0.340792 0.468689 -0.033020
C26 C 0.291319 0.496696 0.009023
C27 C 0.142489 0.587516 -0.037401
C28 C 0.176719 0.608317 -0.101023
C29 C 0.162895 0.663515 -0.143982
C30 C 0.113314 0.697822 -0.119985
C31 C 0.078002 0.677021 -0.054991
C32 C 0.092781 0.621006 -0.013012
C33 C 0.223413 0.342022 0.112008
C34 C 0.286404 0.33178 0.081995
C35 C 0.292978 0.301689 0.007977
C36 C 0.237 0.279392 -0.041979
H1 H 0.241495 0.258182 -0.093373
C37 C 0.177999 0.290495 -0.010004
C38 C 0.173385 0.321584 0.065976
C39 C 0.223182 0.324801 0.303984
C40 C 0.219189 0.345014 0.388987
C41 C 0.220184 0.306991 0.456009
C42 C 0.225199 0.245992 0.439989
C43 C 0.229308 0.225009 0.353024
C44 C 0.228284 0.265297 0.283976
C45 C 0.456996 0.465018 0.588221
C46 C 0.450801 0.459127 0.684994
C47 C 0.4874 0.418294 0.733969
C48 C 0.529301 0.383716 0.690029
C49 C 0.569976 0.339213 0.736977
C50 C 0.608975 0.305994 0.699968
C51 C 0.618992 0.307988 0.606988
C52 C 0.580601 0.351494 0.552978
C53 C 0.535872 0.388701 0.596983
C54 C 0.494885 0.433793 0.548008
C55 C 0.333576 0.509295 0.589268
C56 C 0.306094 0.549085 0.64792
C57 C 0.248811 0.536305 0.688002
C58 C 0.217483 0.480699 0.668974
C59 C 0.243214 0.442993 0.613984
C60 C 0.299095 0.454006 0.572986
C61 C 0.433075 0.597803 0.572986
C62 C 0.412712 0.645796 0.522965
C63 C 0.432903 0.705707 0.551997
C64 C 0.47287 0.708019 0.633012
C65 C 0.473608 0.604691 0.654001
Cl2 Cl 0.379310 0.520900 0.241600
H2 H 0.240900 0.610310 0.077480
H3 H 0.280210 0.654000 0.208980
H4 H 0.2847 0.6564 0.370880
H5 H 0.254580 0.619010 0.498900
H6 H 0.182800 0.535220 0.498310
H7 H 0.147320 0.495930 0.368190
H8 H 0.069880 0.582390 0.20113
H9 H -0.032000 0.602920 0.211590
H10 H -0.114110 0.532590 0.232520
H11 H -0.082580 0.430400 0.242910
H12 H 0.000600 0.351220 0.243300
H13 H 0.10221 0.321400 0.234220
H14 H 0.181480 0.437010 -0.1124
H15 H 0.261220 0.393820 -0.177920
H16 H 0.361210 0.412400 -0.130380
H17 H 0.382400 0.476120 -0.014190
H18 H 0.29969 0.522480 0.056300
H19 H 0.210790 0.585610 -0.118480
H20 H 0.187890 0.676610 -0.188510
H21 H 0.1039 0.734390 -0.148430
H22 H 0.043490 0.699910 -0.037920
H23 H 0.068300 0.607730 0.031320
H24 H 0.321720 0.346190 0.114230
H25 H 0.332710 0.2948 -0.011900
H26 H 0.141400 0.276810 -0.040080
H27 H 0.133610 0.328790 0.087230
H28 H 0.215790 0.386800 0.399120
H29 H 0.217490 0.321220 0.512700
H30 H 0.225970 0.218710 0.485890
H31 H 0.232680 0.183720 0.342370
H32 H 0.230910 0.2522 0.226700
H33 H 0.421890 0.483420 0.712910
H34 H 0.483710 0.414490 0.794390
H35 H 0.566690 0.335090 0.796810
H36 H 0.633090 0.279300 0.734170
H37 H 0.648680 0.282880 0.582210
H38 H 0.584910 0.354620 0.492690
H39 H 0.326490 0.585520 0.661000
H40 H 0.232100 0.563810 0.726710
H41 H 0.179780 0.471 0.693890
H42 H 0.222300 0.406920 0.601100
H43 H 0.314320 0.425320 0.534670
H44 H 0.387180 0.640400 0.47229
H45 H 0.421010 0.740600 0.521590
H46 H 0.486300 0.745720 0.652820
C66 C 0.489902 0.665011 0.675971
H47 H 0.515400 0.67199 0.725930
H48 H 0.487190 0.57179 0.688070
Au1B Au -0.080149 0.454096 -0.013797
Au2B Au -0.2967 0.451694 -0.232516
Au3B Au 0.609324 0.517996 0.607155
Au3B_2 Au -0.390676 0.517996 -0.392845
P1B P -0.162088 0.517906 -0.022493
P2B P -0.219203 0.38281 -0.215189
P3B P 0.596807 0.52212 0.461603
C1B C -0.18838 0.547816 -0.139013
C2B C -0.229406 0.5959 -0.13097
C3B C -0.252419 0.621414 -0.208977
C4B C -0.233209 0.597712 -0.286984
C5B C -0.256776 0.623907 -0.371006
C6B C -0.2392 0.602018 -0.446005
C7B C -0.195987 0.551396 -0.446005
C8B C -0.175097 0.52842 -0.367998
C9B C -0.190013 0.547091 -0.295026
C10B C -0.165303 0.519809 -0.198123
C11B C -0.120079 0.465607 -0.2112
C12B C -0.057992 0.487995 -0.216169
C13B C -0.040988 0.551985 -0.209304
C14B C 0.020000 0.562001 -0.215908
C15B C 0.071980 0.520987 -0.228724
C16B C 0.051991 0.459988 -0.234674
C17B C -0.008201 0.440501 -0.229508
C18B C -0.030485 0.381314 -0.235001
C19B C -0.092601 0.362416 -0.229574
C20B C -0.142603 0.405514 -0.216823
C21B C -0.229717 0.484687 0.020989
C22B C -0.222477 0.445712 0.091019
C23B C -0.269999 0.419609 0.13097
C24B C -0.327987 0.430712 0.102985
C25B C -0.340792 0.468689 0.033020
C26B C -0.291319 0.496696 -0.009023
C27B C -0.142489 0.587516 0.037401
C28B C -0.176719 0.608317 0.101023
C29B C -0.162895 0.663515 0.143982
C30B C -0.113314 0.697822 0.119985
C31B C -0.078002 0.677021 0.054991
C32B C -0.092781 0.621006 0.013012
C33B C -0.223413 0.342022 -0.112008
C34B C -0.286404 0.33178 -0.081995
C35B C -0.292978 0.301689 -0.007977
C36B C -0.237 0.279392 0.041979
H1B H -0.241495 0.258182 0.093373
C37B C -0.177999 0.290495 0.010004
C38B C -0.173385 0.321584 -0.065976
C39B C -0.223182 0.324801 -0.303984
C40B C -0.219189 0.345014 -0.388987
C41B C -0.220184 0.306991 -0.456009
C42B C -0.225199 0.245992 -0.439989
C43B C -0.229308 0.225009 -0.353024
C44B C -0.228284 0.265297 -0.283976
C45B C 0.543004 0.465018 0.411779
C46B C 0.549199 0.459127 0.315006
C47B C 0.5126 0.418294 0.266031
C48B C 0.470699 0.383716 0.309971
C49B C 0.430024 0.339213 0.263023
C50B C 0.391025 0.305994 0.300032
C51B C 0.381008 0.307988 0.393012
C52B C 0.419399 0.351494 0.447022
C53B C 0.464128 0.388701 0.403017
C54B C 0.505115 0.433793 0.451992
C55B C 0.666424 0.509295 0.410732
C56B C 0.693906 0.549085 0.35208
C57B C 0.751189 0.536305 0.311998
C58B C 0.782517 0.480699 0.331026
C59B C 0.756786 0.442993 0.386016
C60B C 0.700905 0.454006 0.427014
C61B C 0.566925 0.597803 0.427014
C62B C 0.587288 0.645796 0.477035
C63B C 0.567097 0.705707 0.448003
C64B C 0.52713 0.708019 0.366988
C65B C 0.526392 0.604691 0.345999
Cl2B Cl -0.379310 0.520900 -0.241600
Cl2B_2 Cl 0.620690 0.520900 0.758400
H2B H -0.240900 0.610310 -0.077480
H3B H -0.280210 0.654000 -0.208980
H4B H -0.2847 0.6564 -0.370880
H5B H -0.254580 0.619010 -0.498900
H6B H -0.182800 0.535220 -0.498310
H7B H -0.147320 0.495930 -0.368190
H8B H -0.069880 0.582390 -0.20113
H9B H 0.032000 0.602920 -0.211590
H10B H 0.114110 0.532590 -0.232520
H11B H 0.082580 0.430400 -0.242910
H12B H -0.000600 0.351220 -0.243300
H13B H -0.10221 0.321400 -0.234220
H14B H -0.181480 0.437010 0.1124
H15B H -0.261220 0.393820 0.177920
H16B H -0.361210 0.412400 0.130380
H17B H -0.382400 0.476120 0.014190
H18B H -0.29969 0.522480 -0.056300
H19B H -0.210790 0.585610 0.118480
H20B H -0.187890 0.676610 0.188510
H21B H -0.1039 0.734390 0.148430
H22B H -0.043490 0.699910 0.037920
H23B H -0.068300 0.607730 -0.031320
H24B H -0.321720 0.346190 -0.114230
H25B H -0.332710 0.2948 0.011900
H26B H -0.141400 0.276810 0.040080
H27B H -0.133610 0.328790 -0.087230
H28B H -0.215790 0.386800 -0.399120
H29B H -0.217490 0.321220 -0.512700
H30B H -0.225970 0.218710 -0.485890
H31B H -0.232680 0.183720 -0.342370
H32B H -0.230910 0.2522 -0.226700
H33B H 0.578110 0.483420 0.287090
H34B H 0.516290 0.414490 0.205610
H35B H 0.433310 0.335090 0.203190
H36B H 0.366910 0.279300 0.265830
H37B H 0.351320 0.282880 0.417790
H38B H 0.415090 0.354620 0.507310
H39B H 0.673510 0.585520 0.339000
H40B H 0.767900 0.563810 0.273290
H41B H 0.820220 0.471 0.306110
H42B H 0.777700 0.406920 0.398900
H43B H 0.685680 0.425320 0.465330
H44B H 0.612820 0.640400 0.52771
H45B H 0.578990 0.740600 0.478410
H46B H 0.513700 0.745720 0.347180
C66B C 0.510098 0.665011 0.324029
H47B H 0.484600 0.67199 0.274070
H48B H 0.512810 0.57179 0.311930
loop_
_geom_bond_atom_site_label_1
_geom_bond_atom_site_label_2
_geom_bond_site_symmetry_1
_geom_bond_site_symmetry_2
Au1 Cl1 1_555 1_555
Au2 P2 1_555 1_555
Au3 P3 1_555 1_555
Cl1 Au1B 1_555 1_555
P1 Au1 1_555 1_555
P2 C20 1_555 1_555
P3 C45 1_555 1_555
C1 P1 1_555 1_555
C2 C1 1_555 1_555
C3 C2 1_555 1_555
C4 C3 1_555 1_555
C5 C4 1_555 1_555
C6 C5 1_555 1_555
C7 C6 1_555 1_555
C8 C7 1_555 1_555
C9 C4 1_555 1_555
C10 C1 1_555 1_555
C11 C10 1_555 1_555
C12 C11 1_555 1_555
C13 C12 1_555 1_555
C14 C13 1_555 1_555
C15 C14 1_555 1_555
C16 C15 1_555 1_555
C17 C12 1_555 1_555
C18 C17 1_555 1_555
C19 C18 1_555 1_555
C20 C11 1_555 1_555
C21 P1 1_555 1_555
C22 C21 1_555 1_555
C23 C22 1_555 1_555
C24 C23 1_555 1_555
C25 C24 1_555 1_555
C26 C21 1_555 1_555
C27 P1 1_555 1_555
C28 C27 1_555 1_555
C29 C28 1_555 1_555
C30 C29 1_555 1_555
C31 C30 1_555 1_555
C32 C27 1_555 1_555
C33 P2 1_555 1_555
C34 C33 1_555 1_555
C35 C34 1_555 1_555
C36 C35 1_555 1_555
H1 C36 1_555 1_555
C37 C36 1_555 1_555
C38 C33 1_555 1_555
C39 P2 1_555 1_555
C40 C39 1_555 1_555
C41 C40 1_555 1_555
C42 C41 1_555 1_555
C43 C42 1_555 1_555
C44 C39 1_555 1_555
C45 C46 1_555 1_555
C46 C47 1_555 1_555
C47 C48 1_555 1_555
C48 C49 1_555 1_555
C49 C50 1_555 1_555
C50 C51 1_555 1_555
C51 C52 1_555 1_555
C52 C53 1_555 1_555
C53 C48 1_555 1_555
C54 C45 1_555 1_555
C55 P3 1_555 1_555
C56 C55 1_555 1_555
C57 C56 1_555 1_555
C58 C57 1_555 1_555
C59 C58 1_555 1_555
C60 C55 1_555 1_555
C61 P3 1_555 1_555
C62 C61 1_555 1_555
C63 C62 1_555 1_555
C64 C63 1_555 1_555
C65 C61 1_555 1_555
Cl2 Au2 1_555 1_555
H2 C2 1_555 1_555
H3 C3 1_555 1_555
H4 C5 1_555 1_555
H5 C6 1_555 1_555
H6 C7 1_555 1_555
H7 C8 1_555 1_555
H8 C13 1_555 1_555
H9 C14 1_555 1_555
H10 C15 1_555 1_555
H11 C16 1_555 1_555
H12 C18 1_555 1_555
H13 C19 1_555 1_555
H14 C22 1_555 1_555
H15 C23 1_555 1_555
H16 C24 1_555 1_555
H17 C25 1_555 1_555
H18 C26 1_555 1_555
H19 C28 1_555 1_555
H20 C29 1_555 1_555
H21 C30 1_555 1_555
H22 C31 1_555 1_555
H23 C32 1_555 1_555
H24 C34 1_555 1_555
H25 C35 1_555 1_555
H26 C37 1_555 1_555
H27 C38 1_555 1_555
H28 C40 1_555 1_555
H29 C41 1_555 1_555
H30 C42 1_555 1_555
H31 C43 1_555 1_555
H32 C44 1_555 1_555
H33 C46 1_555 1_555
H34 C47 1_555 1_555
H35 C49 1_555 1_555
H36 C50 1_555 1_555
H37 C51 1_555 1_555
H38 C52 1_555 1_555
H39 C56 1_555 1_555
H40 C57 1_555 1_555
H41 C58 1_555 1_555
H42 C59 1_555 1_555
H43 C60 1_555 1_555
H44 C62 1_555 1_555
H45 C63 1_555 1_555
H46 C64 1_555 1_555
C66 C64 1_555 1_555
H47 C66 1_555 1_555
H48 C65 1_555 1_555
Au1B P1B 1_555 1_555
Au2B P2B 1_555 1_555
Au3B P3B 1_555 1_555
Au3B_2 Cl2B 1_555 1_555
P1B C1B 1_555 1_555
P2B C20B 1_555 1_555
P3B C45B 1_555 1_555
C1B C2B 1_555 1_555
C2B C3B 1_555 1_555
C3B C4B 1_555 1_555
C4B C5B 1_555 1_555
C5B C6B 1_555 1_555
C6B C7B 1_555 1_555
C7B C8B 1_555 1_555
C8B C9B 1_555 1_555
C9B C4B 1_555 1_555
C10B C1B 1_555 1_555
C11B C10B 1_555 1_555
C12B C11B 1_555 1_555
C13B C12B 1_555 1_555
C14B C13B 1_555 1_555
C15B C14B 1_555 1_555
C16B C15B 1_555 1_555
C17B C12B 1_555 1_555
C18B C17B 1_555 1_555
C19B C18B 1_555 1_555
C20B C11B 1_555 1_555
C21B P1B 1_555 1_555
C22B C21B 1_555 1_555
C23B C22B 1_555 1_555
C24B C23B 1_555 1_555
C25B C24B 1_555 1_555
C26B C21B 1_555 1_555
C27B P1B 1_555 1_555
C28B C27B 1_555 1_555
C29B C28B 1_555 1_555
C30B C29B 1_555 1_555
C31B C30B 1_555 1_555
C32B C27B 1_555 1_555
C33B P2B 1_555 1_555
C34B C33B 1_555 1_555
C35B C34B 1_555 1_555
C36B C35B 1_555 1_555
H1B C36B 1_555 1_555
C37B C36B 1_555 1_555
C38B C33B 1_555 1_555
C39B P2B 1_555 1_555
C40B C39B 1_555 1_555
C41B C40B 1_555 1_555
C42B C41B 1_555 1_555
C43B C42B 1_555 1_555
C44B C39B 1_555 1_555
C45B C46B 1_555 1_555
C46B C47B 1_555 1_555
C47B C48B 1_555 1_555
C48B C49B 1_555 1_555
C49B C50B 1_555 1_555
C50B C51B 1_555 1_555
C51B C52B 1_555 1_555
C52B C53B 1_555 1_555
C53B C48B 1_555 1_555
C54B C54 1_555 1_555
C55B P3B 1_555 1_555
C56B C55B 1_555 1_555
C57B C56B 1_555 1_555
C58B C57B 1_555 1_555
C59B C58B 1_555 1_555
C60B C55B 1_555 1_555
C61B P3B 1_555 1_555
C62B C61B 1_555 1_555
C63B C62B 1_555 1_555
C64B C63B 1_555 1_555
C65B C61B 1_555 1_555
Cl2B Au2B 1_555 1_555
Cl2B_2 Au3B 1_555 1_555
H2B C2B 1_555 1_555
H3B C3B 1_555 1_555
H4B C5B 1_555 1_555
H5B C6B 1_555 1_555
H6B C7B 1_555 1_555
H7B C8B 1_555 1_555
H8B C13B 1_555 1_555
H9B C14B 1_555 1_555
H10B C15B 1_555 1_555
H11B C16B 1_555 1_555
H12B C18B 1_555 1_555
H13B C19B 1_555 1_555
H14B C22B 1_555 1_555
H15B C23B 1_555 1_555
H16B C24B 1_555 1_555
H17B C25B 1_555 1_555
H18B C26B 1_555 1_555
H19B C28B 1_555 1_555
H20B C29B 1_555 1_555
H21B C30B 1_555 1_555
H22B C31B 1_555 1_555
H23B C32B 1_555 1_555
H24B C34B 1_555 1_555
H25B C35B 1_555 1_555
H26B C37B 1_555 1_555
H27B C38B 1_555 1_555
H28B C40B 1_555 1_555
H29B C41B 1_555 1_555
H30B C42B 1_555 1_555
H31B C43B 1_555 1_555
H32B C44B 1_555 1_555
H33B C46B 1_555 1_555
H34B C47B 1_555 1_555
H35B C49B 1_555 1_555
H36B C50B 1_555 1_555
H37B C51B 1_555 1_555
H38B C52B 1_555 1_555
H39B C56B 1_555 1_555
H40B C57B 1_555 1_555
H41B C58B 1_555 1_555
H42B C59B 1_555 1_555
H43B C60B 1_555 1_555
H44B C62B 1_555 1_555
H45B C63B 1_555 1_555
H46B C64B 1_555 1_555
C66B C64B 1_555 1_555
H47B C66B 1_555 1_555
H48B C65B 1_555 1_555
Au3 Cl2 1_555 1_555
C8 C9 1_555 1_555
C9 C10 1_555 1_555
C16 C17 1_555 1_555
C19 C20 1_555 1_555
C25 C26 1_555 1_555
C31 C32 1_555 1_555
C37 C38 1_555 1_555
C43 C44 1_555 1_555
C53 C54 1_555 1_555
C59 C60 1_555 1_555
C65 C66 1_555 1_555
C9B C10B 1_555 1_555
C16B C17B 1_555 1_555
C19B C20B 1_555 1_555
C25B C26B 1_555 1_555
C31B C32B 1_555 1_555
C37B C38B 1_555 1_555
C43B C44B 1_555 1_555
C45B C54B 1_555 1_555
C53B C54B 1_555 1_555
C59B C60B 1_555 1_555
C65B C66B 1_555 1_555

#END
