
#######################################################################
#
#                 Cambridge Crystallographic Data Centre
#                                CCDC 
#
#######################################################################
#
# If this CIF has been generated from an entry in the Cambridge 
# Structural Database, then it will include bibliographic, chemical, 
# crystal, experimental, refinement or atomic coordinate data resulting 
# from the CCDC's data processing and validation procedures.
#
#######################################################################

data_TEYKIT
_symmetry_cell_setting           monoclinic
_symmetry_space_group_name_H-M   'P 2/c'
_symmetry_Int_Tables_number      13
_space_group_name_Hall           '-P 2yc'
loop_
_symmetry_equiv_pos_site_id
_symmetry_equiv_pos_as_xyz
1 x,y,z
2 -x,y,1/2-z
3 -x,-y,-z
4 x,-y,1/2+z
_cell_length_a                   12.4435(15)
_cell_length_b                   9.0015(11)
_cell_length_c                   13.7170(17)
_cell_angle_alpha                90
_cell_angle_beta                 99.9970(10)
_cell_angle_gamma                90
_cell_volume                     1513.12
loop_
_atom_site_label
_atom_site_type_symbol
_atom_site_fract_x
_atom_site_fract_y
_atom_site_fract_z
Cd1 Cd 0.051933(14) 0.50384(2) 0.140376(12)
N1 N 0.12902(17) 0.7388(2) 0.16351(14)
O1 O 0.04130(15) 0.63888(19) -0.01471(12)
O2 O 0.08643(19) 0.8463(2) -0.08821(13)
O3 O 0.11366(14) 0.56123(19) 0.31619(12)
O4 O 0.19767(18) 0.7279(2) 0.42434(12)
O5 O 0.29873(18) 1.1343(2) 0.19846(13)
H1 H 0.3233 1.1490 0.2571
O6 O 0.20245(15) 0.3858(2) 0.10638(12)
H2 H 0.2224 0.3128 0.1427
H3 H 0.1887 0.3565 0.0476
O7 O 0.0000 0.3033(3) 0.2500
H4 H -0.0351 0.2482 0.2077
C1 C 0.1359(2) 0.8269(3) 0.08583(17)
C2 C 0.1909(2) 0.9608(3) 0.09526(18)
H5 H 0.1946 1.0190 0.0399
C3 C 0.2409(2) 1.0073(3) 0.18904(19)
C4 C 0.2298(2) 0.9190(3) 0.27045(17)
H6 H 0.2594 0.9493 0.3343
C5 C 0.1743(2) 0.7863(3) 0.25456(17)
C6 C 0.0828(2) 0.7677(3) -0.01453(17)
C7 C 0.1610(2) 0.6845(3) 0.33959(17)
H4A H 0.0351 0.2482 0.2923
Cd1A Cd -0.051933(14) 0.50384(2) 0.359624(12)
N1A N -0.12902(17) 0.7388(2) 0.33649(14)
O1A O -0.04130(15) 0.63888(19) 0.51471(12)
O2A O -0.08643(19) 0.8463(2) 0.58821(13)
O3A O -0.11366(14) 0.56123(19) 0.18381(12)
O4A O -0.19767(18) 0.7279(2) 0.07566(12)
O5A O -0.29873(18) 1.1343(2) 0.30154(13)
H1A H -0.3233 1.1490 0.2429
O6A O -0.20245(15) 0.3858(2) 0.39362(12)
H2A H -0.2224 0.3128 0.3573
H3A H -0.1887 0.3565 0.4524
C1A C -0.1359(2) 0.8269(3) 0.41417(17)
C2A C -0.1909(2) 0.9608(3) 0.40474(18)
H5A H -0.1946 1.0190 0.4601
C3A C -0.2409(2) 1.0073(3) 0.31096(19)
C4A C -0.2298(2) 0.9190(3) 0.22955(17)
H6A H -0.2594 0.9493 0.1657
C5A C -0.1743(2) 0.7863(3) 0.24544(17)
C6A C -0.0828(2) 0.7677(3) 0.51453(17)
C7A C -0.1610(2) 0.6845(3) 0.16041(17)
Cd1B Cd -0.051933(14) 0.49616(2) -0.140376(12)
Cd1C Cd 0.051933(14) 0.49616(2) 0.640376(12)
O1B O -0.04130(15) 0.36112(19) 0.01471(12)
O1C O 0.04130(15) 0.36112(19) 0.48529(12)
N2 N 0.3876(2) 0.7904(3) -0.12512(17)
C8 C 0.3238(3) 0.6992(4) -0.0860(2)
H7 H 0.2552 0.6776 -0.1221
C9 C 0.3536(3) 0.6347(4) 0.0053(3)
H8 H 0.3056 0.5713 0.0298
C10 C 0.4539(3) 0.6639(3) 0.0601(2)
C11 C 0.5210(3) 0.7579(4) 0.0193(2)
H9 H 0.5904 0.7802 0.0535
C12 C 0.4847(3) 0.8190(4) -0.0730(2)
H10 H 0.5308 0.8830 -0.0994
C13 C 0.4890(4) 0.5882(4) 0.1587(2)
H11 H 0.4369 0.5099 0.1643
H12 H 0.5588 0.5408 0.1577
C14 C 0.5000 0.6815(5) 0.2500
H13 H 0.4364 0.7449 0.2462
N2A N 0.6124(2) 0.7904(3) 0.62512(17)
C8A C 0.6762(3) 0.6992(4) 0.5860(2)
H7A H 0.7448 0.6776 0.6221
C9A C 0.6464(3) 0.6347(4) 0.4947(3)
H8A H 0.6944 0.5713 0.4702
C10A C 0.5461(3) 0.6639(3) 0.4399(2)
C11A C 0.4790(3) 0.7579(4) 0.4807(2)
H9A H 0.4096 0.7802 0.4465
C12A C 0.5153(3) 0.8190(4) 0.5730(2)
H10A H 0.4692 0.8830 0.5994
C13A C 0.5110(4) 0.5882(4) 0.3413(2)
H11A H 0.5631 0.5099 0.3357
H12A H 0.4412 0.5408 0.3423
H13A H 0.5636 0.7449 0.2538
H14? H 0.4364 0.7449 0.2462
loop_
_geom_bond_atom_site_label_1
_geom_bond_atom_site_label_2
_geom_bond_site_symmetry_1
_geom_bond_site_symmetry_2
Cd1 N1 1_555 1_555
N1 C1 1_555 1_555
O1 Cd1 1_555 1_555
O2 C6 1_555 1_555
O3 Cd1 1_555 1_555
O4 C7 1_555 1_555
O5 H1 1_555 1_555
O6 Cd1 1_555 1_555
H2 O6 1_555 1_555
H3 O6 1_555 1_555
O7 Cd1 1_555 1_555
H4 O7 1_555 1_555
C1 C2 1_555 1_555
C2 H5 1_555 1_555
C3 O5 1_555 1_555
C4 C3 1_555 1_555
H6 C4 1_555 1_555
C5 N1 1_555 1_555
C6 O1 1_555 1_555
C7 O3 1_555 1_555
N2 C8 1_555 1_555
C8 H7 1_555 1_555
C9 C8 1_555 1_555
H8 C9 1_555 1_555
C10 C9 1_555 1_555
C11 C10 1_555 1_555
H9 C11 1_555 1_555
C12 N2 1_555 1_555
H10 C12 1_555 1_555
C13 C10 1_555 1_555
H11 C13 1_555 1_555
H12 C13 1_555 1_555
C14 C13 1_555 1_555
H13 C14 1_555 1_555
H4A O7 1_555 1_555
Cd1A O3 1_555 1_555
N1A Cd1A 1_555 1_555
O1A Cd1A 1_555 1_555
O2A C6A 1_555 1_555
O3A Cd1 1_555 1_555
O4A C7A 1_555 1_555
O5A H1A 1_555 1_555
O6A Cd1A 1_555 1_555
H2A O6A 1_555 1_555
H3A O6A 1_555 1_555
C1A N1A 1_555 1_555
C2A C1A 1_555 1_555
H5A C2A 1_555 1_555
C3A O5A 1_555 1_555
C4A C3A 1_555 1_555
H6A C4A 1_555 1_555
C5A N1A 1_555 1_555
C6A O1A 1_555 1_555
C7A O3A 1_555 1_555
Cd1B O1 1_555 1_555
Cd1C O1A 1_555 1_555
O1B Cd1 1_555 1_555
O1C Cd1A 1_555 1_555
N2A C8A 1_555 1_555
C8A H7A 1_555 1_555
C9A C8A 1_555 1_555
H8A C9A 1_555 1_555
C10A C9A 1_555 1_555
C11A C10A 1_555 1_555
H9A C11A 1_555 1_555
C12A N2A 1_555 1_555
H10A C12A 1_555 1_555
C13A C14 1_555 1_555
H11A C13A 1_555 1_555
H12A C13A 1_555 1_555
H13A C14 1_555 1_555
O7 Cd1A 1_555 1_555
C1 C6 1_555 1_555
C2 C3 1_555 1_555
C4 C5 1_555 1_555
C5 C7 1_555 1_555
C11 C12 1_555 1_555
Cd1A O3A 1_555 1_555
C1A C6A 1_555 1_555
C2A C3A 1_555 1_555
C4A C5A 1_555 1_555
C5A C7A 1_555 1_555
Cd1B O1B 1_555 1_555
Cd1C O1C 1_555 1_555
C10A C13A 1_555 1_555
C11A C12A 1_555 1_555

#END
