
#######################################################################
#
#                 Cambridge Crystallographic Data Centre
#                                CCDC 
#
#######################################################################
#
# If this CIF has been generated from an entry in the Cambridge 
# Structural Database, then it will include bibliographic, chemical, 
# crystal, experimental, refinement or atomic coordinate data resulting 
# from the CCDC's data processing and validation procedures.
#
#######################################################################

data_TEYLEQ
_symmetry_cell_setting           monoclinic
_symmetry_space_group_name_H-M   'P 21/c'
_symmetry_Int_Tables_number      14
_space_group_name_Hall           '-P 2ybc'
loop_
_symmetry_equiv_pos_site_id
_symmetry_equiv_pos_as_xyz
1 x,y,z
2 -x,1/2+y,1/2-z
3 -x,-y,-z
4 x,1/2-y,1/2+z
_cell_length_a                   10.0680(11)
_cell_length_b                   12.8419(14)
_cell_length_c                   29.029(3)
_cell_angle_alpha                90
_cell_angle_beta                 106.212(2)
_cell_angle_gamma                90
_cell_volume                     3603.98
loop_
_atom_site_label
_atom_site_type_symbol
_atom_site_fract_x
_atom_site_fract_y
_atom_site_fract_z
V1 V 0.81273(16) 0.59756(12) 0.66961(5)
Na1 Na 0.4569(4) 0.6477(3) 0.62984(12)
N1 N 0.0159(19) 0.7613(15) 0.5680(8)
O1 O 0.6743(6) 0.6348(4) 0.61014(19)
O2 O 0.8967(6) 0.5329(5) 0.62426(19)
O3 O 0.4402(7) 0.7056(5) 0.5474(2)
O4 O 0.5881(7) 0.5206(5) 0.4044(2)
O5 O 0.6538(6) 0.5876(5) 0.6951(2)
O6 O 0.8694(6) 0.4763(5) 0.7108(2)
O7 O 0.3950(7) 0.6071(5) 0.7053(3)
O8 O 0.5124(8) 0.3170(5) 0.8425(3)
O9 O 0.9014(7) 0.6966(5) 0.6938(2)
O10 O 0.2017(14) 0.6590(11) 0.6032(5)
C1 C 0.7005(8) 0.5989(6) 0.5710(3)
C2 C 0.8239(9) 0.5411(7) 0.5785(3)
C3 C 0.8622(9) 0.4996(7) 0.5405(3)
H1 H 0.9461 0.4648 0.5455
C4 C 0.7739(9) 0.5103(7) 0.4948(3)
H2 H 0.7974 0.4794 0.4691
C5 C 0.6531(9) 0.5650(7) 0.4862(3)
C6 C 0.6137(9) 0.6127(6) 0.5245(3)
C7 C 0.4853(9) 0.6701(7) 0.5152(3)
C8 C 0.4069(10) 0.6886(7) 0.4639(3)
C9 C 0.4442(10) 0.6401(7) 0.4276(3)
C10 C 0.5630(9) 0.5696(7) 0.4366(3)
C11 C 0.2937(10) 0.7535(8) 0.4537(4)
H3 H 0.2676 0.7851 0.4787
C12 C 0.2177(12) 0.7725(9) 0.4065(4)
H4 H 0.1433 0.8184 0.3995
C13 C 0.2557(12) 0.7217(9) 0.3708(4)
H5 H 0.2032 0.7310 0.3392
C14 C 0.3671(11) 0.6583(8) 0.3801(4)
H6 H 0.3926 0.6269 0.3550
C15 C 0.6608(9) 0.5133(6) 0.7276(3)
C16 C 0.7860(9) 0.4529(6) 0.7369(3)
C17 C 0.8086(10) 0.3734(7) 0.7706(3)
H7 H 0.8890 0.3337 0.7773
C18 C 0.7104(10) 0.3551(7) 0.7937(3)
H8 H 0.7256 0.3013 0.8161
C19 C 0.5900(9) 0.4115(7) 0.7861(3)
C20 C 0.5625(9) 0.4913(6) 0.7509(3)
C21 C 0.4306(9) 0.5465(7) 0.7395(3)
C22 C 0.3382(10) 0.5274(7) 0.7695(3)
C23 C 0.3670(10) 0.4518(7) 0.8055(3)
C24 C 0.4931(10) 0.3870(7) 0.8131(3)
C25 C 0.2161(10) 0.5850(8) 0.7624(4)
H9 H 0.1959 0.6375 0.7394
C26 C 0.1276(11) 0.5650(9) 0.7886(4)
H10 H 0.0456 0.6027 0.7825
C27 C 0.1543(11) 0.4921(9) 0.8234(4)
H11 H 0.0922 0.4807 0.8414
C28 C 0.2745(11) 0.4348(8) 0.8321(4)
H12 H 0.2935 0.3844 0.8560
C29 C 0.100(2) 0.7068(18) 0.6030(9)
H13 H 0.0753 0.7054 0.6316
C30 C 0.028(2) 0.7531(19) 0.5210(9)
H14 H 0.1190 0.7287 0.5221
H15 H 0.0131 0.8201 0.5058
H16 H -0.0396 0.7048 0.5031
C31 C -0.086(2) 0.8153(17) 0.5820(8)
H17 H -0.1096 0.7778 0.6073
H18 H -0.1668 0.8221 0.5552
H19 H -0.0524 0.8832 0.5933
Na1A Na 0.5431(4) 0.1477(3) 0.87016(12)
Na1B Na 0.5431(4) 0.3523(3) 0.37016(12)
O4B O 0.4119(7) 0.4794(5) 0.5956(2)
O8A O 0.4876(8) 0.8170(5) 0.6575(3)
N2 N 0.0998(11) 0.3845(8) 0.6640(5)
H20 H 0.0113 0.3774 0.6463
N3 N 0.2161(13) 0.2660(9) 0.7262(4)
H21 H 0.1753 0.2086 0.7336
C32 C 0.1816(15) 0.3542(12) 0.6331(5)
H22 H 0.1990 0.4140 0.6152
H23 H 0.1329 0.3021 0.6104
C33 C 0.3161(15) 0.3106(13) 0.6635(6)
H24 H 0.3651 0.2807 0.6423
H25 H 0.3715 0.3680 0.6803
C34 C 0.3083(16) 0.2301(12) 0.6996(6)
H26 H 0.2745 0.1651 0.6836
H27 H 0.3995 0.2181 0.7213
C35 C 0.1088(13) 0.3382(11) 0.7076(5)
H28 H 0.0453 0.3542 0.7244
N4 N 0.301(9) 0.034(8) 0.569(3)
O11 O 0.121(5) 0.064(4) 0.5952(18)
C36 C 0.200(10) -0.001(11) 0.585(4)
H29 H 0.1877 -0.0724 0.5892
C37 C 0.405(6) -0.035(4) 0.5572(19)
H30 H 0.3903 -0.1051 0.5658
H31 H 0.4961 -0.0126 0.5747
H32 H 0.3952 -0.0309 0.5234
C38 C 0.349(5) 0.143(5) 0.5752(18)
H33 H 0.2881 0.1858 0.5513
H34 H 0.4411 0.1474 0.5716
H35 H 0.3497 0.1674 0.6065
loop_
_geom_bond_atom_site_label_1
_geom_bond_atom_site_label_2
_geom_bond_site_symmetry_1
_geom_bond_site_symmetry_2
V1 O1 1_555 1_555
Na1 O1 1_555 1_555
N1 C29 1_555 1_555
O1 C1 1_555 1_555
O2 V1 1_555 1_555
O3 Na1 1_555 1_555
O4 C10 1_555 1_555
O5 V1 1_555 1_555
O6 V1 1_555 1_555
O7 Na1 1_555 1_555
O8 C24 1_555 1_555
O9 V1 1_555 1_555
O10 Na1 1_555 1_555
C1 C2 1_555 1_555
C2 O2 1_555 1_555
C3 C2 1_555 1_555
H1 C3 1_555 1_555
C4 C3 1_555 1_555
H2 C4 1_555 1_555
C5 C4 1_555 1_555
C6 C1 1_555 1_555
C7 O3 1_555 1_555
C8 C7 1_555 1_555
C9 C8 1_555 1_555
C10 C5 1_555 1_555
C11 C8 1_555 1_555
H3 C11 1_555 1_555
C12 C11 1_555 1_555
H4 C12 1_555 1_555
C13 C12 1_555 1_555
H5 C13 1_555 1_555
C14 C9 1_555 1_555
H6 C14 1_555 1_555
C15 O5 1_555 1_555
C16 O6 1_555 1_555
C17 C16 1_555 1_555
H7 C17 1_555 1_555
C18 C17 1_555 1_555
H8 C18 1_555 1_555
C19 C18 1_555 1_555
C20 C15 1_555 1_555
C21 O7 1_555 1_555
C22 C21 1_555 1_555
C23 C22 1_555 1_555
C24 C19 1_555 1_555
C25 C22 1_555 1_555
H9 C25 1_555 1_555
C26 C25 1_555 1_555
H10 C26 1_555 1_555
C27 C26 1_555 1_555
H11 C27 1_555 1_555
C28 C23 1_555 1_555
H12 C28 1_555 1_555
C29 O10 1_555 1_555
H13 C29 1_555 1_555
C30 N1 1_555 1_555
H14 C30 1_555 1_555
H15 C30 1_555 1_555
H16 C30 1_555 1_555
C31 N1 1_555 1_555
H17 C31 1_555 1_555
H18 C31 1_555 1_555
H19 C31 1_555 1_555
N2 H20 1_555 1_555
N3 H21 1_555 1_555
C32 N2 1_555 1_555
H22 C32 1_555 1_555
H23 C32 1_555 1_555
C33 C32 1_555 1_555
H24 C33 1_555 1_555
H25 C33 1_555 1_555
C34 N3 1_555 1_555
H26 C34 1_555 1_555
H27 C34 1_555 1_555
C35 N2 1_555 1_555
H28 C35 1_555 1_555
N4 C36 1_555 1_555
O11 C36 1_555 1_555
C36 H29 1_555 1_555
C37 N4 1_555 1_555
H30 C37 1_555 1_555
H31 C37 1_555 1_555
H32 C37 1_555 1_555
C38 N4 1_555 1_555
H33 C38 1_555 1_555
H34 C38 1_555 1_555
H35 C38 1_555 1_555
Na1A O8 1_555 1_555
Na1B O4 1_555 1_555
O4B Na1 1_555 1_555
O8A Na1 1_555 1_555
Na1 O5 1_555 1_555
C5 C6 1_555 1_555
C6 C7 1_555 1_555
C9 C10 1_555 1_555
C13 C14 1_555 1_555
C15 C16 1_555 1_555
C19 C20 1_555 1_555
C20 C21 1_555 1_555
C23 C24 1_555 1_555
C27 C28 1_555 1_555
N3 C35 1_555 1_555
C33 C34 1_555 1_555

#END
