
#######################################################################
#
#                 Cambridge Crystallographic Data Centre
#                                CCDC 
#
#######################################################################
#
# If this CIF has been generated from an entry in the Cambridge 
# Structural Database, then it will include bibliographic, chemical, 
# crystal, experimental, refinement or atomic coordinate data resulting 
# from the CCDC's data processing and validation procedures.
#
#######################################################################

data_TEYLUG
_symmetry_cell_setting           monoclinic
_symmetry_space_group_name_H-M   'C 2/c'
_symmetry_Int_Tables_number      15
_space_group_name_Hall           '-C 2yn'
loop_
_symmetry_equiv_pos_site_id
_symmetry_equiv_pos_as_xyz
1 x,y,z
2 -x,y,1/2-z
3 1/2+x,1/2+y,z
4 1/2-x,1/2+y,1/2-z
5 -x,-y,-z
6 x,-y,1/2+z
7 1/2-x,1/2-y,-z
8 1/2+x,1/2-y,1/2+z
_cell_length_a                   14.463(4)
_cell_length_b                   8.384(2)
_cell_length_c                   12.856(5)
_cell_angle_alpha                90
_cell_angle_beta                 114.683(3)
_cell_angle_gamma                90
_cell_volume                     1416.46
loop_
_atom_site_label
_atom_site_type_symbol
_atom_site_fract_x
_atom_site_fract_y
_atom_site_fract_z
Co1 Co 0.5000 -0.00565(6) 0.2500
C1 C 0.6811(2) 0.2802(3) 0.1115(2)
C2 C 0.6552(2) 0.1937(3) 0.1874(2)
C3 C 0.49022(19) 0.1840(3) 0.0532(2)
C4 C 0.5168(2) 0.2660(3) -0.0236(2)
C5 C 0.44489(19) 0.3016(3) -0.1466(2)
C6 C 0.38430(19) 0.1248(3) 0.0265(2)
H1 H 0.754(2) 0.317(4) 0.136(3)
H2 H 0.705(2) 0.161(3) 0.266(3)
N1 N 0.55971(16) 0.1480(3) 0.15854(17)
N2 N 0.61272(16) 0.3167(3) 0.00697(18)
O1 O 0.37426(14) 0.0372(2) 0.09993(16)
O2 O 0.31582(13) 0.1657(2) -0.06575(15)
O3 O 0.42167(14) 0.1918(2) -0.21756(14)
O4 O 0.41835(17) 0.4436(2) -0.16749(16)
C1A C 0.3189(2) 0.2802(3) 0.3885(2)
C2A C 0.3448(2) 0.1937(3) 0.3126(2)
C3A C 0.50978(19) 0.1840(3) 0.4468(2)
C4A C 0.4832(2) 0.2660(3) 0.5236(2)
C5A C 0.55511(19) 0.3016(3) 0.6466(2)
C6A C 0.61570(19) 0.1248(3) 0.4735(2)
H1A H 0.246(2) 0.317(4) 0.364(3)
H2A H 0.295(2) 0.161(3) 0.234(3)
N1A N 0.44029(16) 0.1480(3) 0.34146(17)
N2A N 0.38728(16) 0.3167(3) 0.49303(18)
O1A O 0.62574(14) 0.0372(2) 0.40007(16)
O2A O 0.68418(13) 0.1657(2) 0.56575(15)
O3A O 0.57833(14) 0.1918(2) 0.71756(14)
O4A O 0.58165(17) 0.4436(2) 0.66749(16)
Co1D Co 0.5000 0.00565(6) -0.2500
Co1D_2 Co 0.5000 0.00565(6) 0.7500
O3D O 0.57833(14) -0.1918(2) 0.21756(14)
O3E O 0.42167(14) -0.1918(2) 0.28244(14)
H3 H 0.212(4) 1.069(6) 0.890(4)
H4 H 0.136(3) 0.979(4) 0.906(3)
O5 O 0.14544(18) 1.0361(3) 0.86884(19)
loop_
_geom_bond_atom_site_label_1
_geom_bond_atom_site_label_2
_geom_bond_site_symmetry_1
_geom_bond_site_symmetry_2
Co1 N1 1_555 1_555
C1 C2 1_555 1_555
C2 H2 1_555 1_555
C3 C4 1_555 1_555
C4 C5 1_555 1_555
C5 O3 1_555 1_555
C6 C3 1_555 1_555
H1 C1 1_555 1_555
N1 C2 1_555 1_555
N2 C1 1_555 1_555
O1 Co1 1_555 1_555
O2 C6 1_555 1_555
O3 Co1D 1_555 1_555
O4 C5 1_555 1_555
H3 O5 1_555 1_555
H4 O5 1_555 1_555
C1A C2A 1_555 1_555
C2A H2A 1_555 1_555
C3A C4A 1_555 1_555
C4A C5A 1_555 1_555
C5A O3A 1_555 1_555
C6A C3A 1_555 1_555
H1A C1A 1_555 1_555
N1A Co1 1_555 1_555
N2A C1A 1_555 1_555
O1A Co1 1_555 1_555
O2A C6A 1_555 1_555
O3A Co1D_2 1_555 1_555
O4A C5A 1_555 1_555
O3D Co1 1_555 1_555
O3E Co1 1_555 1_555
C3 N1 1_555 1_555
C4 N2 1_555 1_555
C6 O1 1_555 1_555
C2A N1A 1_555 1_555
C3A N1A 1_555 1_555
C4A N2A 1_555 1_555
C6A O1A 1_555 1_555

#END
