
#######################################################################
#
#                 Cambridge Crystallographic Data Centre
#                                CCDC 
#
#######################################################################
#
# If this CIF has been generated from an entry in the Cambridge 
# Structural Database, then it will include bibliographic, chemical, 
# crystal, experimental, refinement or atomic coordinate data resulting 
# from the CCDC's data processing and validation procedures.
#
#######################################################################

data_TEYNAN
_symmetry_cell_setting           monoclinic
_symmetry_space_group_name_H-M   'P 21/n'
_symmetry_Int_Tables_number      14
_space_group_name_Hall           '-P 2yn'
loop_
_symmetry_equiv_pos_site_id
_symmetry_equiv_pos_as_xyz
1 x,y,z
2 1/2-x,1/2+y,1/2-z
3 -x,-y,-z
4 1/2+x,1/2-y,1/2+z
_cell_length_a                   7.4780(4)
_cell_length_b                   11.5429(5)
_cell_length_c                   13.9756(7)
_cell_angle_alpha                90
_cell_angle_beta                 93.998(4)
_cell_angle_gamma                90
_cell_volume                     1203.41
loop_
_atom_site_label
_atom_site_type_symbol
_atom_site_fract_x
_atom_site_fract_y
_atom_site_fract_z
Eu1 Eu 0.056(17) 0.24934(14) 0.93082(8)
C1 C 0.06191(5) 0.34647(3) 0.6859(2)
C2 C 0.18651(4) 0.37086(3) 0.55358(2)
C3 C 0.5289(5) 0.1387(3) 0.6745(2)
C4 C 0.4428(4) 0.17617(3) 0.8357(2)
C5 C -0.017(4) 0.015(3) 0.7621(2)
C6 C -0.18963(4) -0.07619(3) 0.64277(2)
N1 N 0.55(5) 0.11977(4) 0.76961(2)
N2 N 0.37063(4) 0.22242(3) 0.8876(2)
N3 N 0.52432(4) 0.15832(3) 0.60041(2)
N4 N 0.05(4) 0.37011(3) 0.6(2)
N5 N 0.0432(5) 0.32928(4) 0.75853(2)
N6 N 0.29998(4) 0.35619(3) 0.50852(2)
N7 N -0.035(4) -0.038(3) 0.6727(2)
N8 N 0.0043(4) 0.07315(3) 0.82586(2)
N9 N -0.30238(4) -0.11067(3) 0.59626(2)
O1 O 0.2295(4) 0.42555(2) 0.94209(2)
O2 O 0.18335(3) 0.11365(2) 1.04311(2)
H1 H 0.20082 0.48875 0.96287
H2 H 0.29446 0.43695 0.89675
H3 H 0.29305 0.09559 1.04217
H4 H 0.13771 0.05812 1.0701
Eu1C Eu 0.556(17) 0.25066(14) 0.43082(8)
Eu1A Eu -0.556(17) -0.25066(14) 0.56918(8)
N3C N 0.02432(4) 0.34168(3) 1.10041(2)
N6C N -0.20002(4) 0.14381(3) 1.00852(2)
N9A N -0.19762(4) 0.38933(3) 0.90374(2)
loop_
_geom_bond_atom_site_label_1
_geom_bond_atom_site_label_2
_geom_bond_site_symmetry_1
_geom_bond_site_symmetry_2
Eu1 N2 1_555 1_555
C1 N4 1_555 1_555
C2 N4 1_555 1_555
C3 N1 1_555 1_555
C4 N1 1_555 1_555
C5 N7 1_555 1_555
C6 N7 1_555 1_555
N2 C4 1_555 1_555
N3 C3 1_555 1_555
N5 Eu1 1_555 1_555
N6 C2 1_555 1_555
N8 Eu1 1_555 1_555
N9 C6 1_555 1_555
O1 Eu1 1_555 1_555
O2 Eu1 1_555 1_555
H1 O1 1_555 1_555
H2 O1 1_555 1_555
H3 O2 1_555 1_555
H4 O2 1_555 1_555
Eu1C N3 1_555 1_555
Eu1A N9 1_555 1_555
N3C Eu1 1_555 1_555
N6C Eu1 1_555 1_555
N9A Eu1 1_555 1_555
C1 N5 1_555 1_555
C5 N8 1_555 1_555
N6 Eu1C 1_555 1_555

#END
