
#######################################################################
#
#                 Cambridge Crystallographic Data Centre
#                                CCDC 
#
#######################################################################
#
# If this CIF has been generated from an entry in the Cambridge 
# Structural Database, then it will include bibliographic, chemical, 
# crystal, experimental, refinement or atomic coordinate data resulting 
# from the CCDC's data processing and validation procedures.
#
#######################################################################

data_TEYPUK
_symmetry_cell_setting           monoclinic
_symmetry_space_group_name_H-M   'P 21/c'
_symmetry_Int_Tables_number      14
_space_group_name_Hall           '-P 2ybc'
loop_
_symmetry_equiv_pos_site_id
_symmetry_equiv_pos_as_xyz
1 x,y,z
2 -x,1/2+y,1/2-z
3 -x,-y,-z
4 x,1/2-y,1/2+z
_cell_length_a                   12.818(3)
_cell_length_b                   10.705(2)
_cell_length_c                   20.701(4)
_cell_angle_alpha                90
_cell_angle_beta                 95.86(3)
_cell_angle_gamma                90
_cell_volume                     2825.68
loop_
_atom_site_label
_atom_site_type_symbol
_atom_site_fract_x
_atom_site_fract_y
_atom_site_fract_z
Cu1 Cu 0.79515(3) 0.52439(3) 0.134818(15)
C1 C 0.9656(2) 0.2287(3) 0.22709(13)
H1 H 0.9870 0.1886 0.1897
C2 C 0.9039(2) 0.3428(3) 0.33726(12)
H2 H 0.8823 0.3812 0.3751
C3 C 0.9023(2) 0.3375(2) 0.21923(12)
C4 C 0.9966(2) 0.1801(3) 0.28739(13)
H3 H 1.0378 0.1061 0.2909
C5 C 0.8697(2) 0.3938(2) 0.27647(12)
C6 C 0.9682(2) 0.2384(2) 0.34420(12)
C7 C 0.8005(2) 0.5001(3) 0.27492(13)
H4 H 0.7807 0.5299 0.3151
C8 C 1.0036(2) 0.1944(3) 0.40906(12)
H5 H 0.9695 0.2250 0.4445
C9 C 0.6667(2) 0.7022(2) 0.17070(13)
C10 C 1.1848(2) 0.0077(3) 0.50038(13)
C11 C 0.5882(2) 0.8046(2) 0.16570(13)
C12 C 1.2145(2) -0.0226(2) 0.56996(13)
C13 C 0.5507(2) 0.8504(3) 0.10462(14)
H6 H 0.5740 0.8147 0.0666
C14 C 1.2712(2) -0.1322(3) 0.58422(14)
H7 H 1.2876 -0.1859 0.5502
C15 C 0.4791(2) 0.9483(3) 0.09940(16)
H8 H 0.4536 0.9792 0.0578
C16 C 1.3035(2) -0.1625(3) 0.64853(15)
H9 H 1.3421 -0.2370 0.6585
C17 C 0.4448(2) 1.0011(3) 0.15470(17)
H10 H 0.3966 1.0688 0.1510
C18 C 1.2794(3) -0.0835(3) 0.69826(14)
H11 H 1.3011 -0.1047 0.7422
C19 C 0.4812(2) 0.9545(3) 0.21546(16)
H12 H 0.4571 0.9899 0.2533
C20 C 1.2240(3) 0.0256(3) 0.68413(15)
H13 H 1.2083 0.0795 0.7183
C21 C 0.5523(2) 0.8568(3) 0.22133(14)
H14 H 0.5767 0.8252 0.2631
C22 C 1.1910(2) 0.0569(3) 0.61990(14)
H15 H 1.1528 0.1318 0.6102
O1 O 0.87579(16) 0.37880(19) 0.15998(9)
O2 O 0.70134(16) 0.6641(2) 0.11719(9)
O3 O 1.23496(16) -0.03942(18) 0.45760(9)
N1 N 0.76375(17) 0.5575(2) 0.22262(11)
N2 N 1.07907(17) 0.1156(2) 0.42062(10)
N3 N 0.69470(18) 0.6560(2) 0.22860(11)
N4 N 1.10427(18) 0.0854(2) 0.48567(10)
H16 H 1.069(3) 0.117(4) 0.5131(19)
Cu1A Cu 1.20485(3) 0.02439(3) 0.365182(15)
O3A O 0.76504(16) 0.46058(18) 0.04240(9)
N2A N 0.92093(17) 0.6156(2) 0.07938(10)
S1 S 0.52308(7) 0.30464(8) 0.05436(4)
O4 O 0.4229(2) 0.2344(3) 0.05530(14)
C23 C 0.6097(3) 0.2532(4) 0.1231(2)
H17 H 0.5749 0.2630 0.1628
H18 H 0.6739 0.3035 0.1265
H19 H 0.6275 0.1651 0.1176
C24 C 0.4995(3) 0.4583(4) 0.0843(2)
H20 H 0.4510 0.5029 0.0527
H21 H 0.5660 0.5041 0.0910
H22 H 0.4688 0.4518 0.1256
S2 S 0.76951(8) 1.02335(9) 0.02559(5)
O5 O 0.8402(3) 1.1158(3) -0.00253(17)
C25 C 0.8280(4) 0.9881(5) 0.1053(2)
H23 H 0.9021 0.9684 0.1037
H24 H 0.7919 0.9170 0.1225
H25 H 0.8215 1.0612 0.1334
C26 C 0.7936(3) 0.8776(4) -0.0119(2)
H26 H 0.7768 0.8851 -0.0594
H27 H 0.7493 0.8127 0.0044
H28 H 0.8675 0.8547 -0.0026
O7 O 0.97959(18) 0.2805(2) 0.06415(10)
H35 H 0.953(4) 0.309(5) 0.0974(17)
H36 H 0.938(3) 0.223(3) 0.050(2)
S3? S 0.8837(5) 0.9592(6) 0.0310(3)
O6? O 0.9001(18) 1.0841(17) 0.0019(8)
H29? H 0.8197 1.0806 0.1116
H30? H 0.8745 0.9574 0.1430
H31? H 0.7595 0.9495 0.1050
H32? H 0.7500 0.9308 -0.0421
H33? H 0.7482 0.8352 0.0171
H34? H 0.8258 0.8117 -0.0375
loop_
_geom_bond_atom_site_label_1
_geom_bond_atom_site_label_2
_geom_bond_site_symmetry_1
_geom_bond_site_symmetry_2
Cu1 O1 1_555 1_555
C1 H1 1_555 1_555
C2 H2 1_555 1_555
C3 C1 1_555 1_555
C4 C1 1_555 1_555
H3 C4 1_555 1_555
C5 C2 1_555 1_555
C6 C2 1_555 1_555
C7 C5 1_555 1_555
H4 C7 1_555 1_555
C8 C6 1_555 1_555
H5 C8 1_555 1_555
C9 C11 1_555 1_555
C10 C12 1_555 1_555
C11 C13 1_555 1_555
C12 C14 1_555 1_555
C13 H6 1_555 1_555
C14 H7 1_555 1_555
C15 C13 1_555 1_555
H8 C15 1_555 1_555
C16 C14 1_555 1_555
H9 C16 1_555 1_555
C17 C15 1_555 1_555
H10 C17 1_555 1_555
C18 C16 1_555 1_555
H11 C18 1_555 1_555
C19 C17 1_555 1_555
H12 C19 1_555 1_555
C20 C18 1_555 1_555
H13 C20 1_555 1_555
C21 C11 1_555 1_555
H14 C21 1_555 1_555
C22 C12 1_555 1_555
H15 C22 1_555 1_555
O1 C3 1_555 1_555
O2 Cu1 1_555 1_555
O3 C10 1_555 1_555
N1 Cu1 1_555 1_555
N2 C8 1_555 1_555
N3 C9 1_555 1_555
N4 C10 1_555 1_555
H16 N4 1_555 1_555
S1 O4 1_555 1_555
C23 S1 1_555 1_555
H17 C23 1_555 1_555
H18 C23 1_555 1_555
H19 C23 1_555 1_555
C24 S1 1_555 1_555
H20 C24 1_555 1_555
H21 C24 1_555 1_555
H22 C24 1_555 1_555
S2 O5 1_555 1_555
C25 S2 1_555 1_555
H23 C25 1_555 1_555
H24 C25 1_555 1_555
H25 C25 1_555 1_555
C26 S2 1_555 1_555
H26 C26 1_555 1_555
H27 C26 1_555 1_555
H28 C26 1_555 1_555
O7 H35 1_555 1_555
H36 O7 1_555 1_555
Cu1A O3 1_555 1_555
O3A Cu1 1_555 1_555
N2A Cu1 1_555 1_555
C3 C5 1_555 1_555
C4 C6 1_555 1_555
C7 N1 1_555 1_555
C9 O2 1_555 1_555
C19 C21 1_555 1_555
C20 C22 1_555 1_555
N1 N3 1_555 1_555
N2 N4 1_555 1_555
N2 Cu1A 1_555 1_555

#END
