
#######################################################################
#
#                 Cambridge Crystallographic Data Centre
#                                CCDC 
#
#######################################################################
#
# If this CIF has been generated from an entry in the Cambridge 
# Structural Database, then it will include bibliographic, chemical, 
# crystal, experimental, refinement or atomic coordinate data resulting 
# from the CCDC's data processing and validation procedures.
#
#######################################################################

data_TEYQEV
_symmetry_cell_setting           triclinic
_symmetry_space_group_name_H-M   'P -1'
_symmetry_Int_Tables_number      2
_space_group_name_Hall           '-P 1'
loop_
_symmetry_equiv_pos_site_id
_symmetry_equiv_pos_as_xyz
1 x,y,z
2 -x,-y,-z
_cell_length_a                   10.808(2)
_cell_length_b                   14.539(3)
_cell_length_c                   16.626(3)
_cell_angle_alpha                111.03(3)
_cell_angle_beta                 96.96(3)
_cell_angle_gamma                93.92(3)
_cell_volume                     2402.88
loop_
_atom_site_label
_atom_site_type_symbol
_atom_site_fract_x
_atom_site_fract_y
_atom_site_fract_z
Cu1 Cu 0.41515(2) 0.924430(15) 0.726697(13)
Cu2 Cu 0.788212(18) 0.652293(14) 0.289775(13)
O1 O 0.66741(12) 0.68022(9) 0.36708(8)
O2 O 0.26350(12) 0.90215(9) 0.64714(9)
O3 O -0.29353(12) 0.51305(9) 0.23051(8)
O4 O 0.90800(12) 0.63870(9) 0.20985(8)
O5 O 0.56537(13) 0.93599(9) 0.80776(8)
O6 O 0.37188(13) 1.05555(9) 0.79842(9)
N1 N 0.84783(13) 0.79161(10) 0.32256(9)
N2 N -0.09504(14) 0.54234(10) 0.35272(9)
N3 N 0.44210(14) 0.78672(11) 0.68646(9)
N4 N 0.51388(14) 1.03875(10) 0.67453(9)
N5 N 0.93880(14) 0.81071(11) 0.27615(10)
N6 N -0.14764(14) 0.44768(11) 0.29683(10)
N7 N 0.55056(14) 0.76669(11) 0.72942(9)
N8 N 0.49355(14) 1.13076(11) 0.73237(9)
C1 C 0.55096(16) 0.77070(12) 0.47230(11)
H1 H 0.5004 0.7110 0.4640
C2 C 0.09559(18) 0.81600(13) 0.53755(12)
H2 H 0.0653 0.8773 0.5424
C3 C 0.69114(16) 0.94816(12) 0.49540(11)
H3 H 0.7369 1.0093 0.5021
C4 C 0.18220(17) 0.63508(13) 0.51983(11)
H4 H 0.2114 0.5730 0.5133
C5 C 0.64866(15) 0.76747(12) 0.42152(10)
C6 C 0.52838(16) 0.85831(13) 0.53291(11)
H5 H 0.4618 0.8581 0.5653
C7 C 0.20886(16) 0.81674(13) 0.59147(11)
C8 C 0.02899(18) 0.72956(14) 0.47891(12)
H6 H -0.0466 0.7320 0.4444
C9 C 0.71655(15) 0.85975(12) 0.43190(10)
C10 C 0.60134(16) 0.94852(12) 0.54835(10)
C11 C 0.07092(17) 0.63679(13) 0.46897(11)
C12 C 0.25289(16) 0.72271(12) 0.58083(11)
C13 C 0.81024(16) 0.86728(13) 0.37886(11)
H7 H 0.8463 0.9317 0.3858
C14 C 0.00250(17) 0.54421(13) 0.40679(11)
H8 H 0.0302 0.4833 0.4058
C15 C 0.58178(16) 1.04068(12) 0.61677(11)
H9 H 0.6196 1.1024 0.6185
C16 C 0.36736(17) 0.71222(13) 0.62996(11)
H10 H 0.3888 0.6472 0.6202
C17 C -0.24768(15) 0.43913(12) 0.23711(10)
C18 C 0.96117(16) 0.72541(13) 0.21953(11)
C19 C 0.60551(17) 0.85083(13) 0.79188(11)
C20 C 0.41829(16) 1.13257(13) 0.79158(11)
C21 C 1.05438(16) 0.73018(14) 0.16191(12)
C22 C -0.30540(15) 0.33764(12) 0.17776(10)
C23 C 0.71860(17) 0.84664(13) 0.85035(11)
C24 C 0.38752(17) 1.23007(13) 0.84911(11)
C25 C -0.42121(16) 0.32906(13) 0.12700(11)
H11 H -0.4601 0.3869 0.1313
C26 C 0.75878(18) 0.92881(15) 0.92794(12)
H12 H 0.7152 0.9857 0.9409
C27 C 0.28998(18) 1.22899(15) 0.89670(12)
H13 H 0.2458 1.1676 0.8910
C28 C 1.06101(19) 0.64670(15) 0.08820(13)
H14 H 1.0067 0.5874 0.0755
C29 C -0.48019(17) 0.23668(14) 0.07026(12)
H15 H -0.5594 0.2316 0.0362
C30 C 0.8619(2) 0.92752(17) 0.98599(13)
H16 H 0.8871 0.9828 1.0391
C31 C 0.2576(2) 1.31792(16) 0.95255(13)
H17 H 0.1919 1.3173 0.9855
C32 C 1.1473(2) 0.65024(17) 0.03317(14)
H18 H 1.1507 0.5937 -0.0175
C33 C -0.42404(19) 0.15201(14) 0.06311(13)
H19 H -0.4639 0.0889 0.0236
C34 C 0.3212(2) 1.40721(15) 0.96012(13)
H20 H 0.2994 1.4678 0.9987
C35 C 0.9281(2) 0.84636(17) 0.96695(14)
H21 H 0.9989 0.8459 1.0067
C36 C 1.2281(2) 0.73621(18) 0.05232(15)
H22 H 1.2874 0.7381 0.0150
C37 C 1.22267(19) 0.81971(17) 0.12593(14)
H23 H 1.2783 0.8784 0.1390
C38 C 0.4163(2) 1.40848(14) 0.91180(13)
H24 H 0.4582 1.4701 0.9162
C39 C 0.8906(2) 0.76515(16) 0.88935(14)
H25 H 0.9372 0.7099 0.8755
C40 C -0.3093(2) 0.15965(14) 0.11391(14)
H26 H -0.2712 0.1014 0.1097
C41 C -0.24936(19) 0.25200(14) 0.17102(13)
H27 H -0.1705 0.2567 0.2053
C42 C 1.13524(17) 0.81690(15) 0.18043(13)
H28 H 1.1306 0.8741 0.2303
C43 C 0.78508(18) 0.76454(14) 0.83185(12)
H29 H 0.7584 0.7080 0.7799
C44 C 0.4509(2) 1.31979(14) 0.85660(12)
H30 H 0.5175 1.3208 0.8244
H31 H -0.113(3) 0.393(3) 0.304(2)
H32 H 0.529(3) 1.188(2) 0.7292(19)
Cu2_2 Cu -0.211788(18) 0.652293(14) 0.289775(13)
O3_2 O 0.70647(12) 0.51305(9) 0.23051(8)
N2_2 N 0.90496(14) 0.54234(10) 0.35272(9)
O7 O 0.60124(17) 0.53039(11) 0.42803(10)
O8 O 0.63397(16) 0.58649(12) 0.61119(10)
O9 O 0.00328(14) 0.30039(11) 0.31047(10)
N9 N 0.07829(16) 0.15559(13) 0.30356(11)
C45 C 0.07835(19) 0.25379(15) 0.33638(13)
H33 H 0.1421 0.2909 0.3840
C46 C -0.0160(2) 0.09202(17) 0.23105(15)
H34 H -0.0675 0.0484 0.2505
H35 H 0.0256 0.0517 0.1835
H36 H -0.0696 0.1332 0.2103
C47 C 0.1702(2) 0.10715(17) 0.33856(15)
H37 H 0.2231 0.1562 0.3903
H38 H 0.2225 0.0760 0.2945
H39 H 0.1274 0.0563 0.3548
O10 O 0.63766(15) 0.27688(11) 0.69820(10)
N10 N 0.73471(16) 0.43468(12) 0.74711(11)
C48 C 0.7314(2) 0.33626(14) 0.71225(13)
H40 H 0.8073 0.3102 0.6972
C49 C 0.8522(2) 0.49979(16) 0.77140(18)
H41 H 0.9220 0.4598 0.7591
H42 H 0.8638 0.5405 0.8338
H43 H 0.8502 0.5430 0.7377
C50 C 0.62266(19) 0.48097(15) 0.77064(14)
H44 H 0.5483 0.4320 0.7431
H45 H 0.6172 0.5364 0.7505
H46 H 0.6269 0.5057 0.8342
loop_
_geom_bond_atom_site_label_1
_geom_bond_atom_site_label_2
_geom_bond_site_symmetry_1
_geom_bond_site_symmetry_2
Cu1 O2 1_555 1_555
Cu2 O1 1_555 1_555
O1 C5 1_555 1_555
O2 C7 1_555 1_555
O3 C17 1_555 1_555
O4 Cu2 1_555 1_555
O5 Cu1 1_555 1_555
O6 Cu1 1_555 1_555
N1 Cu2 1_555 1_555
N2 N6 1_555 1_555
N3 Cu1 1_555 1_555
N4 Cu1 1_555 1_555
N5 N1 1_555 1_555
N6 C17 1_555 1_555
N7 N3 1_555 1_555
N8 N4 1_555 1_555
C1 H1 1_555 1_555
C2 H2 1_555 1_555
C3 H3 1_555 1_555
C4 H4 1_555 1_555
C5 C1 1_555 1_555
C6 C1 1_555 1_555
H5 C6 1_555 1_555
C7 C2 1_555 1_555
C8 C2 1_555 1_555
H6 C8 1_555 1_555
C9 C3 1_555 1_555
C10 C3 1_555 1_555
C11 C4 1_555 1_555
C12 C4 1_555 1_555
C13 N1 1_555 1_555
H7 C13 1_555 1_555
C14 N2 1_555 1_555
H8 C14 1_555 1_555
C15 N4 1_555 1_555
H9 C15 1_555 1_555
C16 N3 1_555 1_555
H10 C16 1_555 1_555
C17 C22 1_555 1_555
C18 O4 1_555 1_555
C19 O5 1_555 1_555
C20 O6 1_555 1_555
C21 C18 1_555 1_555
C22 C25 1_555 1_555
C23 C19 1_555 1_555
C24 C20 1_555 1_555
C25 H11 1_555 1_555
C26 C23 1_555 1_555
H12 C26 1_555 1_555
C27 C24 1_555 1_555
H13 C27 1_555 1_555
C28 C21 1_555 1_555
H14 C28 1_555 1_555
C29 C25 1_555 1_555
H15 C29 1_555 1_555
C30 C26 1_555 1_555
H16 C30 1_555 1_555
C31 C27 1_555 1_555
H17 C31 1_555 1_555
C32 C28 1_555 1_555
H18 C32 1_555 1_555
C33 C29 1_555 1_555
H19 C33 1_555 1_555
C34 C31 1_555 1_555
H20 C34 1_555 1_555
C35 C30 1_555 1_555
H21 C35 1_555 1_555
C36 C32 1_555 1_555
H22 C36 1_555 1_555
C37 C36 1_555 1_555
H23 C37 1_555 1_555
C38 C34 1_555 1_555
H24 C38 1_555 1_555
C39 C35 1_555 1_555
H25 C39 1_555 1_555
C40 C33 1_555 1_555
H26 C40 1_555 1_555
C41 C22 1_555 1_555
H27 C41 1_555 1_555
C42 C21 1_555 1_555
H28 C42 1_555 1_555
C43 C23 1_555 1_555
H29 C43 1_555 1_555
C44 C24 1_555 1_555
H30 C44 1_555 1_555
H31 N6 1_555 1_555
H32 N8 1_555 1_555
O9 C45 1_555 1_555
N9 C45 1_555 1_555
C45 H33 1_555 1_555
C46 N9 1_555 1_555
H34 C46 1_555 1_555
H35 C46 1_555 1_555
H36 C46 1_555 1_555
C47 N9 1_555 1_555
H37 C47 1_555 1_555
H38 C47 1_555 1_555
H39 C47 1_555 1_555
O10 C48 1_555 1_555
N10 C48 1_555 1_555
C48 H40 1_555 1_555
C49 N10 1_555 1_555
H41 C49 1_555 1_555
H42 C49 1_555 1_555
H43 C49 1_555 1_555
C50 N10 1_555 1_555
H44 C50 1_555 1_555
H45 C50 1_555 1_555
H46 C50 1_555 1_555
Cu2_2 O3 1_555 1_555
O3_2 Cu2 1_555 1_555
N2_2 Cu2 1_555 1_555
N2 Cu2_2 1_555 1_555
N5 C18 1_555 1_555
N7 C19 1_555 1_555
N8 C20 1_555 1_555
C5 C9 1_555 1_555
C6 C10 1_555 1_555
C7 C12 1_555 1_555
C8 C11 1_555 1_555
C9 C13 1_555 1_555
C10 C15 1_555 1_555
C11 C14 1_555 1_555
C12 C16 1_555 1_555
C37 C42 1_555 1_555
C38 C44 1_555 1_555
C39 C43 1_555 1_555
C40 C41 1_555 1_555

#END
