
#######################################################################
#
#                 Cambridge Crystallographic Data Centre
#                                CCDC 
#
#######################################################################
#
# If this CIF has been generated from an entry in the Cambridge 
# Structural Database, then it will include bibliographic, chemical, 
# crystal, experimental, refinement or atomic coordinate data resulting 
# from the CCDC's data processing and validation procedures.
#
#######################################################################

data_TEYQIZ
_symmetry_cell_setting           triclinic
_symmetry_space_group_name_H-M   'P -1'
_symmetry_Int_Tables_number      2
_space_group_name_Hall           '-P 1'
loop_
_symmetry_equiv_pos_site_id
_symmetry_equiv_pos_as_xyz
1 x,y,z
2 -x,-y,-z
_cell_length_a                   9.2330(18)
_cell_length_b                   12.419(3)
_cell_length_c                   18.880(4)
_cell_angle_alpha                105.73(3)
_cell_angle_beta                 95.45(3)
_cell_angle_gamma                94.09(3)
_cell_volume                     2063.7
loop_
_atom_site_label
_atom_site_type_symbol
_atom_site_fract_x
_atom_site_fract_y
_atom_site_fract_z
Cu1 Cu 0.19807(4) 0.88238(3) 1.20380(2)
Cu2 Cu -0.41619(4) 0.59653(3) 0.78999(2)
N1 N 0.1254(3) 0.7254(2) 1.17963(14)
N2 N -0.4579(3) 0.7506(2) 0.82015(14)
N3 N 0.0450(3) 1.0017(2) 1.14988(14)
N4 N 0.4535(3) 0.4681(2) 0.84974(14)
N5 N -0.5709(3) 0.7777(2) 0.77567(15)
N6 N 0.0774(3) 1.1042(2) 1.20394(14)
H1 H 0.0204 1.1586 1.2064
N7 N 0.0304(3) 0.6998(2) 1.22755(14)
N8 N 0.4603(3) 0.3645(2) 0.79892(14)
H2 H 0.4059 0.3043 0.8006
O1 O -0.2403(3) 0.62426(17) 0.85754(12)
O2 O 0.3341(3) 0.85517(18) 1.13219(12)
O3 O 0.6272(3) 0.44340(17) 0.74245(12)
O4 O 0.2785(3) 1.04069(18) 1.25051(12)
O5 O -0.5755(3) 0.58985(18) 0.71288(12)
O6 O 0.0742(3) 0.89102(18) 1.28203(12)
C1 C -0.0728(4) 0.7159(3) 0.96139(17)
H3 H -0.0194 0.6519 0.9530
C2 C 0.4410(4) 0.7604(3) 1.02838(18)
H4 H 0.5030 0.8270 1.0330
C3 C 0.2680(4) 0.5635(3) 1.01380(17)
H5 H 0.2098 0.4952 1.0094
C4 C -0.2176(4) 0.9077(3) 0.98533(17)
H6 H -0.2654 0.9745 0.9929
C5 C 0.3404(4) 0.7610(3) 1.08009(17)
C6 C -0.1976(4) 0.7153(2) 0.91207(17)
C7 C -0.0264(4) 0.8070(3) 1.02131(17)
H7 H 0.0570 0.8043 1.0541
C8 C 0.4520(4) 0.6661(3) 0.97144(17)
H8 H 0.5213 0.6690 0.9377
C9 C -0.1004(4) 0.9041(3) 1.03482(17)
C10 C 0.2536(4) 0.6581(3) 1.07316(17)
C11 C -0.2694(4) 0.8158(2) 0.92368(17)
C12 C 0.3626(4) 0.5658(3) 0.96223(17)
C13 C -0.3915(4) 0.8303(3) 0.87564(17)
H9 H -0.4259 0.9026 0.8849
C14 C -0.0543(4) 1.0023(3) 1.09781(17)
H10 H -0.0996 1.0693 1.1003
C15 C 0.1547(4) 0.6449(3) 1.12489(17)
H11 H 0.1073 0.5719 1.1186
C16 C 0.3748(4) 0.4657(3) 0.90199(17)
H12 H 0.3228 0.3965 0.9014
C17 C 0.5517(4) 0.3588(3) 0.74734(16)
C18 C -0.6208(4) 0.6872(3) 0.72014(17)
C19 C 0.1974(4) 1.1175(3) 1.25208(17)
C20 C 0.0149(4) 0.7925(3) 1.27930(17)
C21 C 0.2355(4) 1.2283(3) 1.30849(17)
C22 C 0.5642(4) 0.2482(3) 0.69366(17)
C23 C -0.7316(4) 0.7025(3) 0.66283(18)
C24 C -0.0795(4) 0.7842(3) 1.33721(17)
C25 C 0.3527(4) 1.2375(3) 1.36243(18)
H13 H 0.4040 1.1740 1.3629
C26 C 0.6549(4) 0.2463(3) 0.63891(18)
H14 H 0.7087 0.3137 0.6377
C27 C -0.0809(4) 0.8789(3) 1.39742(18)
H15 H -0.0178 0.9447 1.4015
C28 C -0.7739(4) 0.6148(3) 0.5989(2)
H16 H -0.7355 0.5445 0.5940
C29 C -0.1727(4) 0.8781(3) 1.45106(19)
H17 H -0.1731 0.9433 1.4914
C30 C -0.8717(4) 0.6285(3) 0.5421(2)
H18 H -0.8985 0.5681 0.4984
C31 C 0.6677(4) 0.1466(3) 0.58609(19)
H19 H 0.7298 0.1456 0.5486
C32 C 0.3950(4) 1.3394(3) 1.41558(19)
H20 H 0.4747 1.3456 1.4527
C33 C 0.5895(4) 0.0484(3) 0.58809(19)
H21 H 0.5982 -0.0201 0.5519
C34 C 0.3205(4) 1.4320(3) 1.41434(19)
H22 H 0.3503 1.5020 1.4503
C35 C -0.2644(4) 0.7820(3) 1.44589(19)
H23 H -0.3282 0.7813 1.4824
C36 C -0.9295(5) 0.7286(3) 0.5489(2)
H24 H -0.9958 0.7379 0.5098
C37 C 0.4993(4) 0.0496(3) 0.6420(2)
H25 H 0.4460 -0.0182 0.6429
C38 C -0.2623(4) 0.6873(3) 1.38727(19)
H26 H -0.3246 0.6214 1.3839
C39 C 0.2038(4) 1.4232(3) 1.3615(2)
H27 H 0.1531 1.4871 1.3613
C40 C -0.8916(5) 0.8164(3) 0.6126(2)
H28 H -0.9338 0.8853 0.6177
C41 C 0.4854(4) 0.1495(3) 0.69526(18)
H29 H 0.4226 0.1501 0.7324
C42 C 0.1595(4) 1.3217(3) 1.30848(19)
H30 H 0.0780 1.3156 1.2724
C43 C -0.1697(4) 0.6874(3) 1.33303(18)
H31 H -0.1683 0.6215 1.2933
C44 C -0.7915(4) 0.8039(3) 0.6692(2)
H32 H -0.7639 0.8650 0.7123
Cu2_2 Cu 0.58381(4) 0.59653(3) 0.78999(2)
N4_2 N -0.5465(3) 0.4681(2) 0.84974(14)
O3_2 O -0.3728(3) 0.44340(17) 0.74245(12)
O7 O 0.7362(3) 0.7996(2) 0.16736(15)
H33 H 0.821(6) 0.793(4) 0.171(3)
H34 H 0.713(5) 0.865(2) 0.177(3)
O8 O 1.0060(3) 0.5372(2) 0.79525(17)
H35 H 1.010(6) 0.460(5) 0.783(3)
H36 H 0.916(6) 0.561(5) 0.811(3)
O9 O 0.1332(3) 0.7518(2) 0.83186(15)
H37 H 0.102(5) 0.682(2) 0.824(3)
H38 H 0.236(6) 0.759(4) 0.821(3)
O10 O 0.6026(3) -0.0143(2) 0.16770(16)
H39 H 0.521(6) -0.036(5) 0.162(3)
H40 H 0.609(6) 0.057(5) 0.196(3)
loop_
_geom_bond_atom_site_label_1
_geom_bond_atom_site_label_2
_geom_bond_site_symmetry_1
_geom_bond_site_symmetry_2
Cu1 N1 1_555 1_555
Cu2 N2 1_555 1_555
N1 N7 1_555 1_555
N2 N5 1_555 1_555
N3 Cu1 1_555 1_555
N4 N8 1_555 1_555
N5 C18 1_555 1_555
N6 N3 1_555 1_555
H1 N6 1_555 1_555
N7 C20 1_555 1_555
N8 H2 1_555 1_555
O1 Cu2 1_555 1_555
O2 Cu1 1_555 1_555
O3 C17 1_555 1_555
O4 Cu1 1_555 1_555
O5 Cu2 1_555 1_555
O6 Cu1 1_555 1_555
C1 H3 1_555 1_555
C2 H4 1_555 1_555
C3 H5 1_555 1_555
C4 H6 1_555 1_555
C5 O2 1_555 1_555
C6 O1 1_555 1_555
C7 C1 1_555 1_555
H7 C7 1_555 1_555
C8 C2 1_555 1_555
H8 C8 1_555 1_555
C9 C4 1_555 1_555
C10 C3 1_555 1_555
C11 C4 1_555 1_555
C12 C3 1_555 1_555
C13 N2 1_555 1_555
H9 C13 1_555 1_555
C14 N3 1_555 1_555
H10 C14 1_555 1_555
C15 N1 1_555 1_555
H11 C15 1_555 1_555
C16 N4 1_555 1_555
H12 C16 1_555 1_555
C17 N8 1_555 1_555
C18 O5 1_555 1_555
C19 N6 1_555 1_555
C20 O6 1_555 1_555
C21 C19 1_555 1_555
C22 C17 1_555 1_555
C23 C18 1_555 1_555
C24 C20 1_555 1_555
C25 C21 1_555 1_555
H13 C25 1_555 1_555
C26 C22 1_555 1_555
H14 C26 1_555 1_555
C27 C24 1_555 1_555
H15 C27 1_555 1_555
C28 C23 1_555 1_555
H16 C28 1_555 1_555
C29 C27 1_555 1_555
H17 C29 1_555 1_555
C30 C28 1_555 1_555
H18 C30 1_555 1_555
C31 C26 1_555 1_555
H19 C31 1_555 1_555
C32 C25 1_555 1_555
H20 C32 1_555 1_555
C33 C31 1_555 1_555
H21 C33 1_555 1_555
C34 C32 1_555 1_555
H22 C34 1_555 1_555
C35 C29 1_555 1_555
H23 C35 1_555 1_555
C36 C30 1_555 1_555
H24 C36 1_555 1_555
C37 C33 1_555 1_555
H25 C37 1_555 1_555
C38 C35 1_555 1_555
H26 C38 1_555 1_555
C39 C34 1_555 1_555
H27 C39 1_555 1_555
C40 C36 1_555 1_555
H28 C40 1_555 1_555
C41 C22 1_555 1_555
H29 C41 1_555 1_555
C42 C21 1_555 1_555
H30 C42 1_555 1_555
C43 C24 1_555 1_555
H31 C43 1_555 1_555
C44 C23 1_555 1_555
H32 C44 1_555 1_555
O7 H33 1_555 1_555
H34 O7 1_555 1_555
O8 H35 1_555 1_555
H36 O8 1_555 1_555
O9 H37 1_555 1_555
H38 O9 1_555 1_555
O10 H39 1_555 1_555
H40 O10 1_555 1_555
Cu2_2 N4 1_555 1_555
N4_2 Cu2 1_555 1_555
O3_2 Cu2 1_555 1_555
O3 Cu2_2 1_555 1_555
O4 C19 1_555 1_555
C1 C6 1_555 1_555
C2 C5 1_555 1_555
C5 C10 1_555 1_555
C6 C11 1_555 1_555
C7 C9 1_555 1_555
C8 C12 1_555 1_555
C9 C14 1_555 1_555
C10 C15 1_555 1_555
C11 C13 1_555 1_555
C12 C16 1_555 1_555
C37 C41 1_555 1_555
C38 C43 1_555 1_555
C39 C42 1_555 1_555
C40 C44 1_555 1_555

#END
