
#######################################################################
#
#                 Cambridge Crystallographic Data Centre
#                                CCDC 
#
#######################################################################
#
# If this CIF has been generated from an entry in the Cambridge 
# Structural Database, then it will include bibliographic, chemical, 
# crystal, experimental, refinement or atomic coordinate data resulting 
# from the CCDC's data processing and validation procedures.
#
#######################################################################

data_TEYREW
_symmetry_cell_setting           monoclinic
_symmetry_space_group_name_H-M   'I 2/a'
_symmetry_Int_Tables_number      15
_space_group_name_Hall           '-I 2ya'
loop_
_symmetry_equiv_pos_site_id
_symmetry_equiv_pos_as_xyz
1 x,y,z
2 1/2-x,y,-z
3 1/2+x,1/2+y,1/2+z
4 -x,1/2+y,1/2-z
5 -x,-y,-z
6 1/2+x,-y,z
7 1/2-x,1/2-y,1/2-z
8 x,1/2-y,1/2+z
_cell_length_a                   13.77020(10)
_cell_length_b                   7.63170(10)
_cell_length_c                   17.2410(2)
_cell_angle_alpha                90
_cell_angle_beta                 101.3030(10)
_cell_angle_gamma                90
_cell_volume                     1776.72
loop_
_atom_site_label
_atom_site_type_symbol
_atom_site_fract_x
_atom_site_fract_y
_atom_site_fract_z
C1 C 0.4904(3) 0.5446(5) 0.9603(2)
H1 H 0.4237 0.5921 0.9501
H2 H 0.5361 0.6418 0.9617
C2 C 0.5015(2) 0.4235(4) 0.89367(19)
C3 C 0.6146(2) 0.4155(4) 0.65311(18)
C4 C 0.6534(2) 0.5168(4) 0.59034(19)
H3 H 0.5978 0.5565 0.5506
H4 H 0.693 0.439 0.5646
C5 C 0.8186(2) 0.6291(4) 0.67031(19)
C6 C 0.7163(2) 0.6751(5) 0.6230(2)
H5 H 0.7242 0.7498 0.5791
H6 H 0.681 0.7417 0.6565
O1 O 0.54923(17) 0.4827(3) 0.68741(14)
O2 O 0.83960(17) 0.4713(3) 0.67991(16)
O3 O 0.67981(17) 0.3874(3) 0.83253(15)
H7 H 0.6779 0.4849 0.8234
H8 H 0.7361 0.3574 0.8295
O4 O 0.48304(17) 0.4821(3) 0.82222(13)
O5 O 0.8748(2) 0.7550(3) 0.69686(18)
O6 O 0.6428(2) 0.2628(3) 0.67184(17)
O7 O 0.5272(2) 0.2689(3) 0.90573(15)
Tm1 Tm 0.539000(9) 0.217778(17) 0.768871(8)
C1D C 0.5096(3) 0.4554(5) 1.0397(2)
H1D H 0.5763 0.4079 1.0499
H2D H 0.4639 0.3582 1.0383
C2D C 0.4985(2) 0.5765(4) 1.10633(19)
O4D O 0.51696(17) 0.5179(3) 1.17778(13)
O7D O 0.4728(2) 0.7311(3) 1.09427(15)
C3D C 0.3854(2) 0.5845(4) 1.34689(18)
C4D C 0.3466(2) 0.4832(4) 1.40966(19)
H3D H 0.4022 0.4435 1.4494
H4D H 0.307 0.561 1.4354
C5D C 0.1814(2) 0.3709(4) 1.32969(19)
C6D C 0.2837(2) 0.3249(5) 1.3770(2)
H5D H 0.2758 0.2502 1.4209
H6D H 0.319 0.2583 1.3435
O1D O 0.45077(17) 0.5173(3) 1.31259(14)
O2D O 0.16040(17) 0.5287(3) 1.32009(16)
O3D O 0.32019(17) 0.6126(3) 1.16747(15)
H7D H 0.3221 0.5151 1.1766
H8D H 0.2639 0.6426 1.1705
O5D O 0.1252(2) 0.2450(3) 1.30314(18)
O6D O 0.3572(2) 0.7372(3) 1.32816(17)
Tm1D Tm 0.461000(9) 0.782222(17) 1.231129(8)
O1C O 0.45077(17) -0.0173(3) 0.81259(14)
O1G O 0.54923(17) 1.0173(3) 1.18741(14)
O2B O 0.33960(17) 0.9713(3) 1.17991(16)
O2F O 0.66040(17) 0.0287(3) 0.82009(16)
O4C O 0.51696(17) -0.0179(3) 0.67778(13)
O4G O 0.48304(17) 1.0179(3) 1.32222(13)
O5A O 0.6252(2) 0.7550(3) 1.30314(18)
O5E O 0.3748(2) 0.2450(3) 0.69686(18)
Tm1A Tm -0.039000(9) 0.217778(17) 1.231129(8)
Tm1B Tm 0.039000(9) 0.717778(17) 1.268871(8)
Tm1C Tm 0.461000(9) 0.717778(17) 0.731129(8)
Tm1E Tm 1.039000(9) 0.782222(17) 0.768871(8)
Tm1F Tm 0.961000(9) 0.282222(17) 0.731129(8)
Tm1G Tm 0.539000(9) 0.282222(17) 1.268871(8)
O8 O 0.75000 0.4706(13) 0.00000
H9 H 0.7583 0.3961 0.0617
H9A H 0.7417 0.3961 -0.0617
loop_
_geom_bond_atom_site_label_1
_geom_bond_atom_site_label_2
_geom_bond_site_symmetry_1
_geom_bond_site_symmetry_2
C1 H1 1_555 1_555
H2 C1 1_555 1_555
C2 C1 1_555 1_555
C3 C4 1_555 1_555
C4 H3 1_555 1_555
H4 C4 1_555 1_555
C5 C6 1_555 1_555
C6 C4 1_555 1_555
H5 C6 1_555 1_555
H6 C6 1_555 1_555
O1 C3 1_555 1_555
O2 C5 1_555 1_555
O3 H7 1_555 1_555
H8 O3 1_555 1_555
O4 C2 1_555 1_555
O5 C5 1_555 1_555
O6 C3 1_555 1_555
O7 C2 1_555 1_555
Tm1 O1 1_555 1_555
O8 H9 1_555 1_555
C1D C1 1_555 1_555
H1D C1D 1_555 1_555
H2D C1D 1_555 1_555
C2D C1D 1_555 1_555
O4D C2D 1_555 1_555
O7D C2D 1_555 1_555
C3D C4D 1_555 1_555
C4D H3D 1_555 1_555
H4D C4D 1_555 1_555
C5D C6D 1_555 1_555
C6D C4D 1_555 1_555
H5D C6D 1_555 1_555
H6D C6D 1_555 1_555
O1D C3D 1_555 1_555
O2D C5D 1_555 1_555
O3D H7D 1_555 1_555
H8D O3D 1_555 1_555
O5D C5D 1_555 1_555
O6D C3D 1_555 1_555
Tm1D O4D 1_555 1_555
O1C Tm1 1_555 1_555
O1G Tm1D 1_555 1_555
O2B Tm1D 1_555 1_555
O2F Tm1 1_555 1_555
O4C Tm1 1_555 1_555
O4G Tm1D 1_555 1_555
O5A Tm1D 1_555 1_555
O5E Tm1 1_555 1_555
Tm1A O5D 1_555 1_555
Tm1B O2D 1_555 1_555
Tm1C O1 1_555 1_555
Tm1E O5 1_555 1_555
Tm1F O2 1_555 1_555
Tm1G O4D 1_555 1_555
H9A O8 1_555 1_555
O3 Tm1 1_555 1_555
O4 Tm1 1_555 1_555
O4 Tm1C 1_555 1_555
O6 Tm1 1_555 1_555
O7 Tm1 1_555 1_555
O7D Tm1D 1_555 1_555
O1D Tm1D 1_555 1_555
O1D Tm1G 1_555 1_555
O3D Tm1D 1_555 1_555
O6D Tm1D 1_555 1_555

#END
