
#######################################################################
#
#                 Cambridge Crystallographic Data Centre
#                                CCDC 
#
#######################################################################
#
# If this CIF has been generated from an entry in the Cambridge 
# Structural Database, then it will include bibliographic, chemical, 
# crystal, experimental, refinement or atomic coordinate data resulting 
# from the CCDC's data processing and validation procedures.
#
#######################################################################

data_TEYREW01
_symmetry_cell_setting           triclinic
_symmetry_space_group_name_H-M   'P -1'
_symmetry_Int_Tables_number      2
_space_group_name_Hall           '-P 1'
loop_
_symmetry_equiv_pos_site_id
_symmetry_equiv_pos_as_xyz
1 x,y,z
2 -x,-y,-z
_cell_length_a                   7.61780(10)
_cell_length_b                   10.58050(10)
_cell_length_c                   12.71030(10)
_cell_angle_alpha                95.3130(10)
_cell_angle_beta                 107.4370(10)
_cell_angle_gamma                111.0960(10)
_cell_volume                     888.446
loop_
_atom_site_label
_atom_site_type_symbol
_atom_site_fract_x
_atom_site_fract_y
_atom_site_fract_z
C1 C 0.8119(5) 0.0112(4) 0.8533(3)
C2 C 0.4715(5) -0.2677(3) 0.5403(3)
C3 C 0.3328(5) -0.2420(4) 0.4395(3)
H1 H 0.3722 -0.2548 0.3748
H2 H 0.3489 -0.1463 0.4562
C4 C 0.5728(5) -0.3961(4) 0.8915(3)
C5 C 0.4636(6) -0.4515(4) 0.9693(3)
H3 H 0.3207 -0.5004 0.9254
H4 H 0.4811 -0.374 1.0245
C6 C 0.1098(5) -0.3388(4) 0.4085(3)
H5 H 0.0775 -0.3382 0.4767
H6 H 0.0276 -0.302 0.3576
C7 C 0.0545(5) -0.4864(4) 0.3535(3)
C8 C 0.8011(5) 0.2328(3) 1.0402(3)
C9 C 0.8646(5) 0.2575(4) 0.9398(3)
H7 H 0.9609 0.3532 0.9563
H8 H 0.7477 0.2447 0.8752
C10 C 0.9594(5) 0.1609(4) 0.9084(3)
H9 H 1.0266 0.1977 0.8572
H10 H 1.0615 0.1621 0.9765
C11 C 0.0770(5) -0.1037(4) 0.6083(3)
C12 C -0.0545(6) -0.0495(4) 0.5306(3)
H11 H -0.1065 -0.0017 0.5741
H12 H -0.1684 -0.1273 0.475
O1 O 0.8830(4) -0.0713(3) 0.8245(2)
O2 O 0.5931(4) -0.3171(3) 0.5301(2)
O3 O 0.4715(4) -0.2347(3) 0.6395(2)
O4 O 0.2919(5) 0.0126(3) 0.8470(3)
O5 O 0.5313(4) -0.3070(3) 0.8381(2)
O6 O 0.7012(4) -0.4348(3) 0.8775(2)
O7 O 0.4300(4) -0.5150(3) 0.6524(2)
O8 O 0.1896(4) -0.5189(3) 0.3397(2)
O9 O -0.1301(4) -0.5722(3) 0.3242(2)
O10 O 0.9331(4) 0.2649(3) 1.1396(2)
O11 O 0.6196(4) 0.1827(3) 1.0302(2)
O12 O 0.6322(4) -0.0185(3) 0.8405(2)
O13 O 0.2585(4) -0.0653(3) 0.6227(2)
O14 O 0.0001(4) -0.1933(3) 0.6617(2)
Tm1 Tm 0.74261(2) -0.308362(14) 0.730354(11)
Tm2 Tm 0.32060(2) -0.191664(14) 0.769633(12)
H13 H 0.352(7) 0.056(5) 0.887(4)
H14 H 0.176(6) -0.002(4) 0.855(3)
C4A C 0.4272(5) -0.6039(4) 1.1085(3)
C5A C 0.5364(6) -0.5485(4) 1.0307(3)
H3A H 0.6793 -0.4996 1.0746
H4A H 0.5189 -0.626 0.9755
O5A O 0.4687(4) -0.6930(3) 1.1619(2)
O6A O 0.2988(4) -0.5652(3) 1.1225(2)
C11A C -0.0770(5) 0.1037(4) 0.3917(3)
C12A C 0.0545(6) 0.0495(4) 0.4694(3)
H11A H 0.1065 0.0017 0.4259
H12A H 0.1684 0.1273 0.525
O13A O -0.2585(4) 0.0653(3) 0.3773(2)
O14A O -0.0001(4) 0.1933(3) 0.3383(2)
C1A C -0.8119(5) -1.0112(4) 0.1467(3)
C2A C -0.4715(5) -0.7323(3) 0.4597(3)
C3A C -0.3328(5) -0.7580(4) 0.5605(3)
H1A H -0.3722 -0.7452 0.6252
H2A H -0.3489 -0.8537 0.5438
C6A C -0.1098(5) -0.6612(4) 0.5915(3)
H5A H -0.0775 -0.6618 0.5233
H6A H -0.0276 -0.698 0.6424
C7A C -0.0545(5) -0.5136(4) 0.6465(3)
C8A C -0.8011(5) -1.2328(3) -0.0402(3)
C9A C -0.8646(5) -1.2575(4) 0.0602(3)
H7A H -0.9609 -1.3532 0.0437
H8A H -0.7477 -1.2447 0.1248
C10A C -0.9594(5) -1.1609(4) 0.0916(3)
H9A H -1.0266 -1.1977 0.1428
H10A H -1.0615 -1.1621 0.0235
O1A O -0.8830(4) -0.9287(3) 0.1755(2)
O2A O -0.5931(4) -0.6829(3) 0.4699(2)
O3A O -0.4715(4) -0.7653(3) 0.3605(2)
O4A O -0.2919(5) -1.0126(3) 0.1530(3)
O7A O -0.4300(4) -0.4850(3) 0.3476(2)
O8A O -0.1896(4) -0.4811(3) 0.6603(2)
O9A O 0.1301(4) -0.4278(3) 0.6758(2)
O10A O -0.9331(4) -1.2649(3) -0.1396(2)
O11A O -0.6196(4) -1.1827(3) -0.0302(2)
O12A O -0.6322(4) -0.9815(3) 0.1595(2)
Tm1A Tm -0.74261(2) -0.691638(14) 0.269646(11)
Tm2A Tm -0.32060(2) -0.808336(14) 0.230367(12)
H13A H -0.352(7) -1.056(5) 0.113(4)
H14A H -0.176(6) -0.998(4) 0.145(3)
O5A_2 O -0.5313(4) -0.6930(3) 0.1619(2)
O6A_2 O -0.7012(4) -0.5652(3) 0.1225(2)
O8_2 O -0.8104(4) -0.5189(3) 0.3397(2)
O8A_2 O 0.8104(4) -0.4811(3) 0.6603(2)
O10_2 O -1.0669(4) -0.7351(3) 0.1396(2)
O10_3 O -0.0669(4) -0.7351(3) 0.1396(2)
O10A_2 O 0.0669(4) -0.2649(3) 0.8604(2)
O10A_3 O 1.0669(4) -0.2649(3) 0.8604(2)
O11_2 O -0.3804(4) -0.8173(3) 0.0302(2)
O11A_2 O 0.3804(4) -0.1827(3) 0.9698(2)
O13A_2 O -0.2585(4) -0.9347(3) 0.3773(2)
O14_2 O 1.0001(4) -0.1933(3) 0.6617(2)
O14A_2 O -1.0001(4) -0.8067(3) 0.3383(2)
O14A_3 O -0.0001(4) -0.8067(3) 0.3383(2)
Tm1_2 Tm -1.25739(2) -1.308362(14) -0.269646(11)
Tm1_3 Tm -0.25739(2) -0.308362(14) 0.730354(11)
Tm1A_2 Tm 0.25739(2) -0.691638(14) 0.269646(11)
Tm1A_3 Tm 0.25739(2) -0.691638(14) 1.269646(11)
Tm1A_4 Tm 0.25739(2) 0.308362(14) 0.269646(11)
Tm1A_5 Tm 1.25739(2) 0.308362(14) 1.269646(11)
Tm2_2 Tm -0.67940(2) -1.191664(14) -0.230367(12)
Tm2A_2 Tm -0.32060(2) 0.191664(14) 0.230367(12)
Tm2A_3 Tm 0.67940(2) -0.808336(14) 1.230367(12)
Tm2A_4 Tm 0.67940(2) 0.191664(14) 1.230367(12)
O15 O 0.2709(8) 0.2496(6) 0.7493(5)
H15 H 0.3644 0.3177 0.7415
H16 H 0.3167 0.1891 0.767
loop_
_geom_bond_atom_site_label_1
_geom_bond_atom_site_label_2
_geom_bond_site_symmetry_1
_geom_bond_site_symmetry_2
C1 C10 1_555 1_555
C2 C3 1_555 1_555
C3 H1 1_555 1_555
H2 C3 1_555 1_555
C4 C5 1_555 1_555
C5 H3 1_555 1_555
H4 C5 1_555 1_555
C6 C3 1_555 1_555
H5 C6 1_555 1_555
H6 C6 1_555 1_555
C7 C6 1_555 1_555
C8 C9 1_555 1_555
C9 H7 1_555 1_555
H8 C9 1_555 1_555
C10 C9 1_555 1_555
H9 C10 1_555 1_555
H10 C10 1_555 1_555
C11 C12 1_555 1_555
C12 H11 1_555 1_555
H12 C12 1_555 1_555
O1 C1 1_555 1_555
O2 C2 1_555 1_555
O3 C2 1_555 1_555
O4 Tm2 1_555 1_555
O5 C4 1_555 1_555
O6 C4 1_555 1_555
O7 Tm1 1_555 1_555
O8 C7 1_555 1_555
O9 C7 1_555 1_555
O10 C8 1_555 1_555
O11 C8 1_555 1_555
O12 C1 1_555 1_555
O13 C11 1_555 1_555
O14 C11 1_555 1_555
Tm1 O1 1_555 1_555
Tm2 O3 1_555 1_555
H13 O4 1_555 1_555
H14 O4 1_555 1_555
O15 H15 1_555 1_555
H16 O15 1_555 1_555
C4A C5A 1_555 1_555
C5A C5 1_555 1_555
H3A C5A 1_555 1_555
H4A C5A 1_555 1_555
O5A C4A 1_555 1_555
O6A C4A 1_555 1_555
C11A C12A 1_555 1_555
C12A C12 1_555 1_555
H11A C12A 1_555 1_555
H12A C12A 1_555 1_555
O13A C11A 1_555 1_555
O14A C11A 1_555 1_555
C1A C10A 1_555 1_555
C2A C3A 1_555 1_555
C3A H1A 1_555 1_555
H2A C3A 1_555 1_555
C6A C3A 1_555 1_555
H5A C6A 1_555 1_555
H6A C6A 1_555 1_555
C7A C6A 1_555 1_555
C8A C9A 1_555 1_555
C9A H7A 1_555 1_555
H8A C9A 1_555 1_555
C10A C9A 1_555 1_555
H9A C10A 1_555 1_555
H10A C10A 1_555 1_555
O1A C1A 1_555 1_555
O2A C2A 1_555 1_555
O3A C2A 1_555 1_555
O4A Tm2A 1_555 1_555
O7A Tm1A 1_555 1_555
O8A C7A 1_555 1_555
O9A Tm2 1_555 1_555
O10A C8A 1_555 1_555
O11A C8A 1_555 1_555
O12A C1A 1_555 1_555
Tm1A O1A 1_555 1_555
Tm2A O9 1_555 1_555
H13A O4A 1_555 1_555
H14A O4A 1_555 1_555
O5A_2 Tm1A 1_555 1_555
O6A_2 Tm1A 1_555 1_555
O8_2 Tm1A 1_555 1_555
O8A_2 Tm1 1_555 1_555
O10_2 Tm1A 1_555 1_555
O10_3 Tm2A 1_555 1_555
O10A_2 Tm2 1_555 1_555
O10A_3 Tm1 1_555 1_555
O11_2 Tm2A 1_555 1_555
O11A_2 Tm2 1_555 1_555
O13A_2 Tm2A 1_555 1_555
O14_2 Tm1 1_555 1_555
O14A_2 Tm1A 1_555 1_555
O14A_3 Tm2A 1_555 1_555
Tm1_2 O10A 1_555 1_555
Tm1_3 O14 1_555 1_555
Tm1A_2 O8 1_555 1_555
Tm1A_3 O5A 1_555 1_555
Tm1A_4 O14A 1_555 1_555
Tm1A_5 O10 1_555 1_555
Tm2_2 O10A 1_555 1_555
Tm2A_2 O13A 1_555 1_555
Tm2A_3 O5A 1_555 1_555
Tm2A_4 O10 1_555 1_555
O2 Tm1 1_555 1_555
O3 Tm1 1_555 1_555
O5 Tm1 1_555 1_555
O5 Tm2 1_555 1_555
O6 Tm1 1_555 1_555
O11 Tm2A_4 1_555 1_555
O12 Tm2 1_555 1_555
O13 Tm2 1_555 1_555
O14 Tm2 1_555 1_555
O6A Tm1A_3 1_555 1_555
O14A Tm2A_2 1_555 1_555
C7A O9A 1_555 1_555
O2A Tm1A 1_555 1_555
O3A Tm1A 1_555 1_555
O3A Tm2A 1_555 1_555
O8A Tm1_3 1_555 1_555
O11A Tm2_2 1_555 1_555
O12A Tm2A 1_555 1_555
Tm2A O5A_2 1_555 1_555
O10_3 Tm1A_2 1_555 1_555
O10A_2 Tm1_3 1_555 1_555
O14A_3 Tm1A_2 1_555 1_555

#END
