
#######################################################################
#
#                 Cambridge Crystallographic Data Centre
#                                CCDC 
#
#######################################################################
#
# If this CIF has been generated from an entry in the Cambridge 
# Structural Database, then it will include bibliographic, chemical, 
# crystal, experimental, refinement or atomic coordinate data resulting 
# from the CCDC's data processing and validation procedures.
#
#######################################################################

data_TEYSAT
_symmetry_cell_setting           monoclinic
_symmetry_space_group_name_H-M   'C 2/c'
_symmetry_Int_Tables_number      15
_space_group_name_Hall           '-C 2yn'
loop_
_symmetry_equiv_pos_site_id
_symmetry_equiv_pos_as_xyz
1 x,y,z
2 -x,y,1/2-z
3 1/2+x,1/2+y,z
4 1/2-x,1/2+y,1/2-z
5 -x,-y,-z
6 x,-y,1/2+z
7 1/2-x,1/2-y,-z
8 1/2+x,1/2-y,1/2+z
_cell_length_a                   34.8229(5)
_cell_length_b                   14.4775(2)
_cell_length_c                   27.4317(4)
_cell_angle_alpha                90
_cell_angle_beta                 102.6560(10)
_cell_angle_gamma                90
_cell_volume                     13493.6
loop_
_atom_site_label
_atom_site_type_symbol
_atom_site_fract_x
_atom_site_fract_y
_atom_site_fract_z
C1 C 0.00090(18) 0.7100(3) 0.12208(19)
H1 H -0.0001 0.7529 0.0966
C2 C -0.03328(15) 0.6641(3) 0.12750(17)
C3 C -0.02978(13) 0.6014(3) 0.16722(16)
C4 C -0.07166(18) 0.6739(4) 0.09521(19)
H2 H -0.0749 0.7145 0.0683
C5 C 0.01260(13) 0.3879(3) 0.15886(19)
H3 H 0.0148 0.4451 0.1442
C6 C 0.00341(14) 0.3022(3) 0.22543(17)
C7 C 0.00644(18) 0.2194(4) 0.2005(3)
C8 C 0.01543(14) 0.3092(4) 0.1308(2)
H4 H 0.0196 0.3138 0.0985
C9 C -0.06225(13) 0.5528(3) 0.17540(16)
C10 C -0.09947(15) 0.5646(3) 0.14322(18)
C11 C -0.13090(15) 0.5150(4) 0.1540(2)
H5 H -0.1559 0.5203 0.1336
C12 C -0.12464(15) 0.4586(4) 0.1948(2)
H6 H -0.1455 0.4261 0.2028
C13 C -0.08672(14) 0.4501(3) 0.22467(19)
H7 H -0.0830 0.4108 0.2521
C14 C -0.10290(17) 0.6263(4) 0.1028(2)
H8 H -0.1272 0.6341 0.0809
C15 C 0.03657(15) 0.6284(3) 0.19311(18)
H9 H 0.0606 0.6176 0.2151
C16 C 0.03541(16) 0.6913(3) 0.15427(19)
H10 H 0.0584 0.7204 0.1505
C17 C 0.0028(3) 0.1352(4) 0.2269(3)
H11 H 0.0043 0.0790 0.2110
C18 C 0.01193(19) 0.2249(4) 0.1518(3)
H12 H 0.0132 0.1713 0.1336
Fe1 Fe 0.0000 0.48910(5) 0.2500
N1 N -0.05624(10) 0.4947(2) 0.21580(13)
N2 N 0.00692(10) 0.3868(2) 0.20522(14)
N3 N 0.00505(10) 0.5831(2) 0.20018(13)
C5A C -0.01260(13) 0.3879(3) 0.34114(19)
H3A H -0.0148 0.4451 0.3558
C6A C -0.00341(14) 0.3022(3) 0.27457(17)
C7A C -0.00644(18) 0.2194(4) 0.2995(3)
C8A C -0.01543(14) 0.3092(4) 0.3692(2)
H4A H -0.0196 0.3138 0.4015
C17A C -0.0028(3) 0.1352(4) 0.2731(3)
H11A H -0.0043 0.0790 0.2890
C18A C -0.01193(19) 0.2249(4) 0.3482(3)
H12A H -0.0132 0.1713 0.3664
N2A N -0.00692(10) 0.3868(2) 0.29478(14)
C1A C -0.00090(18) 0.7100(3) 0.37792(19)
H1A H 0.0001 0.7529 0.4034
C2A C 0.03328(15) 0.6641(3) 0.37250(17)
C3A C 0.02978(13) 0.6014(3) 0.33278(16)
C4A C 0.07166(18) 0.6739(4) 0.40479(19)
H2A H 0.0749 0.7145 0.4317
C9A C 0.06225(13) 0.5528(3) 0.32460(16)
C10A C 0.09947(15) 0.5646(3) 0.35678(18)
C11A C 0.13090(15) 0.5150(4) 0.3460(2)
H5A H 0.1559 0.5203 0.3664
C12A C 0.12464(15) 0.4586(4) 0.3052(2)
H6A H 0.1455 0.4261 0.2972
C13A C 0.08672(14) 0.4501(3) 0.27533(19)
H7A H 0.0830 0.4108 0.2479
C14A C 0.10290(17) 0.6263(4) 0.3972(2)
H8A H 0.1272 0.6341 0.4191
C15A C -0.03657(15) 0.6284(3) 0.30689(18)
H9A H -0.0606 0.6176 0.2849
C16A C -0.03541(16) 0.6913(3) 0.34573(19)
H10A H -0.0584 0.7204 0.3495
N1A N 0.05624(10) 0.4947(2) 0.28420(13)
N3A N -0.00505(10) 0.5831(2) 0.29982(13)
C19 C 0.61096(11) 0.2554(3) 0.54038(16)
C20 C 0.46862(11) 0.3381(3) 0.50705(15)
C21 C 0.47392(12) 0.4793(3) 0.40446(16)
C22 C 0.44847(11) 0.4622(3) 0.35365(15)
C23 C 0.46291(14) 0.4158(3) 0.31739(16)
H13 H 0.4891 0.3968 0.3241
C24 C 0.44905(12) 0.2462(3) 0.50976(16)
C25 C 0.46193(12) 0.1685(3) 0.48822(16)
H14 H 0.4831 0.1721 0.4728
C26 C 0.44262(14) 0.0860(3) 0.49021(19)
C27 C 0.62455(12) 0.2282(3) 0.59400(16)
C28 C 0.63398(12) 0.4818(3) 0.38314(15)
C29 C 0.62114(12) 0.4110(3) 0.41667(15)
C30 C 0.61183(13) 0.5594(3) 0.36902(16)
H15 H 0.5884 0.5690 0.3792
C31 C 0.77266(13) 0.4168(3) 0.49038(17)
C32 C 0.73847(13) 0.2248(3) 0.40374(17)
C33 C 0.73153(12) 0.1973(3) 0.34968(16)
C34 C 0.69333(13) 0.1983(3) 0.32052(18)
H16 H 0.6723 0.2186 0.3335
C35 C 0.41776(13) 0.2379(3) 0.53283(19)
H17 H 0.4083 0.2900 0.5462
C36 C 0.70853(12) 0.5485(3) 0.60272(17)
H18 H 0.7251 0.5023 0.5957
C37 C 0.66927(11) 0.5502(3) 0.57939(16)
C38 C 0.65146(12) 0.4756(3) 0.54398(17)
C39 C 0.66922(12) 0.4701(3) 0.36797(17)
H19 H 0.6842 0.4174 0.3778
C40 C 0.62549(16) 0.6230(3) 0.33906(18)
C41 C 0.76976(12) 0.5163(3) 0.47678(17)
C42 C 0.73411(13) 0.5617(3) 0.47028(16)
H20 H 0.7119 0.5316 0.4761
C43 C 0.80232(14) 0.5633(3) 0.4686(2)
H21 H 0.8262 0.5325 0.4727
C44 C 0.72259(15) 0.6173(4) 0.63675(19)
C45 C 0.64569(13) 0.6214(3) 0.58916(18)
H22 H 0.6194 0.6238 0.5724
C46 C 0.65447(12) 0.1661(3) 0.60818(17)
H23 H 0.6654 0.1369 0.5842
C47 C 0.43872(18) 0.3973(4) 0.27105(19)
C48 C 0.40949(12) 0.4894(3) 0.34285(17)
H24 H 0.3992 0.5214 0.3665
C49 C 0.41253(15) 0.0768(3) 0.5147(2)
H25 H 0.4007 0.0197 0.5165
C50 C 0.76187(14) 0.1680(3) 0.32893(18)
H26 H 0.7874 0.1685 0.3482
C51 C 0.68239(15) 0.5348(4) 0.33880(19)
H27 H 0.7061 0.5262 0.3292
C52 C 0.6997(2) 0.6865(4) 0.6477(2)
H28 H 0.7102 0.7313 0.6711
C53 C 0.73224(16) 0.6517(4) 0.45514(19)
C54 C 0.7644(2) 0.6989(4) 0.4469(2)
H29 H 0.7621 0.7601 0.4363
C55 C 0.7176(2) 0.1378(4) 0.2509(2)
H30 H 0.7126 0.1177 0.2179
C56 C 0.68773(18) 0.1685(4) 0.2721(2)
C57 C 0.60862(16) 0.2694(4) 0.6298(2)
H31 H 0.5876 0.3100 0.6203
C58 C 0.66841(16) 0.1471(4) 0.6581(2)
C59 C 0.66033(17) 0.6118(4) 0.32411(18)
H32 H 0.6688 0.6561 0.3042
C60 C 0.40016(15) 0.1529(4) 0.5363(2)
H33 H 0.3799 0.1477 0.5534
C61 C 0.40055(19) 0.4248(4) 0.2609(2)
H34 H 0.3844 0.4137 0.2297
C62 C 0.38599(16) 0.4689(5) 0.2970(2)
C63 C 0.75519(19) 0.1375(4) 0.2797(2)
H35 H 0.7761 0.1171 0.2664
C64 C 0.8001(2) 0.6543(4) 0.4545(3)
H36 H 0.8225 0.6855 0.4501
C65 C 0.66082(19) 0.6896(4) 0.6238(2)
H37 H 0.6447 0.7369 0.6306
C66 C 0.6533(2) 0.1905(5) 0.6944(2)
H38 H 0.6632 0.1784 0.7281
C67 C 0.6231(2) 0.2518(5) 0.6794(2)
H39 H 0.6123 0.2818 0.7033
Dy1 Dy 0.553622(5) 0.434127(12) 0.489185(7)
Dy2 Dy 0.689636(5) 0.282020(13) 0.493361(8)
N4 N 0.64720(19) 0.1686(5) 0.2416(2)
N5 N 0.60234(18) 0.7065(3) 0.32416(19)
N6 N 0.69403(18) 0.6998(4) 0.4464(2)
N7 N 0.76508(17) 0.6154(5) 0.6609(2)
N8 N 0.7026(2) 0.0844(4) 0.6724(3)
N9 N 0.45494(16) 0.0061(3) 0.4647(2)
N10 N 0.3460(3) 0.4760(11) 0.2881(4)
O1 O 0.49981(7) 0.33927(18) 0.49154(11)
O2 O 0.50822(8) 0.4478(2) 0.41238(10)
O3 O 0.45956(8) 0.5238(2) 0.43514(11)
O4 O 0.45217(8) 0.40803(19) 0.52052(11)
O5 O 0.57913(8) 0.29929(19) 0.52701(11)
O6 O 0.63258(7) 0.23209(19) 0.51191(10)
O7 O 0.61528(8) 0.4774(2) 0.52917(13)
O8 O 0.67394(9) 0.4159(2) 0.53319(14)
O9 O 0.77355(8) 0.2337(2) 0.42678(11)
O10 O 0.80614(8) 0.37975(19) 0.50011(12)
O11 O 0.58851(8) 0.4202(2) 0.42747(11)
O12 O 0.64496(8) 0.3467(2) 0.43066(11)
O13 O 0.70855(8) 0.2360(2) 0.42117(11)
O14 O 0.74129(8) 0.3746(2) 0.49072(12)
O15 O 0.77818(14) 0.6843(4) 0.68462(19)
O16 O 0.78342(14) 0.5474(4) 0.6551(3)
O17 O 0.7164(2) 0.0757(4) 0.7160(2)
O18 O 0.7131(2) 0.0426(5) 0.6414(2)
O19 O 0.48082(14) 0.0156(3) 0.44185(16)
O20 O 0.43902(15) -0.0680(3) 0.4682(2)
O21 O 0.62110(15) 0.1997(4) 0.2599(2)
O22 O 0.64177(16) 0.1367(4) 0.19947(19)
O23 O 0.57990(15) 0.7336(3) 0.34932(19)
O24 O 0.60660(18) 0.7464(3) 0.28711(18)
O25 O 0.66804(13) 0.6643(4) 0.4625(2)
O26 O 0.69087(17) 0.7737(3) 0.42458(19)
O27 O 0.3239(3) 0.4256(9) 0.2566(4)
O28 O 0.3334(3) 0.5326(10) 0.3114(5)
Dy1D Dy 0.446378(5) 0.565873(12) 0.510815(7)
Dy2F Dy 0.810364(5) 0.217980(13) 0.506639(8)
O3D O 0.54044(8) 0.4762(2) 0.56486(11)
O4D O 0.54783(8) 0.59197(19) 0.47948(11)
O9F O 0.72645(8) 0.2663(2) 0.57322(11)
O10F O 0.69386(8) 0.12025(19) 0.49989(12)
N11? N 0.4493(3) 0.3433(7) 0.2351(4)
O29? O 0.4788(3) 0.2989(6) 0.2469(3)
O30? O 0.4303(3) 0.3433(7) 0.1925(3)
loop_
_geom_bond_atom_site_label_1
_geom_bond_atom_site_label_2
_geom_bond_site_symmetry_1
_geom_bond_site_symmetry_2
C1 H1 1_555 1_555
C2 C1 1_555 1_555
C3 C2 1_555 1_555
C4 C2 1_555 1_555
H2 C4 1_555 1_555
C5 H3 1_555 1_555
C6 C7 1_555 1_555
C7 C17 1_555 1_555
C8 C5 1_555 1_555
H4 C8 1_555 1_555
C9 C3 1_555 1_555
C10 C9 1_555 1_555
C11 C10 1_555 1_555
H5 C11 1_555 1_555
C12 C11 1_555 1_555
H6 C12 1_555 1_555
C13 C12 1_555 1_555
H7 C13 1_555 1_555
C14 C4 1_555 1_555
H8 C14 1_555 1_555
C15 H9 1_555 1_555
C16 C1 1_555 1_555
H10 C16 1_555 1_555
C17 H11 1_555 1_555
C18 C7 1_555 1_555
H12 C18 1_555 1_555
Fe1 N1 1_555 1_555
N1 C9 1_555 1_555
N2 C5 1_555 1_555
N3 C3 1_555 1_555
C19 C27 1_555 1_555
C20 C24 1_555 1_555
C21 C22 1_555 1_555
C22 C23 1_555 1_555
C23 H13 1_555 1_555
C24 C25 1_555 1_555
C25 H14 1_555 1_555
C26 C25 1_555 1_555
C27 C46 1_555 1_555
C28 C29 1_555 1_555
C29 O11 1_555 1_555
C30 C28 1_555 1_555
H15 C30 1_555 1_555
C31 C41 1_555 1_555
C32 C33 1_555 1_555
C33 C34 1_555 1_555
C34 H16 1_555 1_555
C35 C24 1_555 1_555
H17 C35 1_555 1_555
C36 H18 1_555 1_555
C37 C36 1_555 1_555
C38 C37 1_555 1_555
C39 C28 1_555 1_555
H19 C39 1_555 1_555
C40 C30 1_555 1_555
C41 C42 1_555 1_555
C42 H20 1_555 1_555
C43 C41 1_555 1_555
H21 C43 1_555 1_555
C44 C36 1_555 1_555
C45 C37 1_555 1_555
H22 C45 1_555 1_555
C46 H23 1_555 1_555
C47 C23 1_555 1_555
C48 C22 1_555 1_555
H24 C48 1_555 1_555
C49 C26 1_555 1_555
H25 C49 1_555 1_555
C50 C33 1_555 1_555
H26 C50 1_555 1_555
C51 C39 1_555 1_555
H27 C51 1_555 1_555
C52 C44 1_555 1_555
H28 C52 1_555 1_555
C53 C42 1_555 1_555
C54 C53 1_555 1_555
H29 C54 1_555 1_555
C55 H30 1_555 1_555
C56 C34 1_555 1_555
C57 C27 1_555 1_555
H31 C57 1_555 1_555
C58 C46 1_555 1_555
C59 C40 1_555 1_555
H32 C59 1_555 1_555
C60 C35 1_555 1_555
H33 C60 1_555 1_555
C61 C47 1_555 1_555
H34 C61 1_555 1_555
C62 C48 1_555 1_555
C63 C50 1_555 1_555
H35 C63 1_555 1_555
C64 C43 1_555 1_555
H36 C64 1_555 1_555
C65 C45 1_555 1_555
H37 C65 1_555 1_555
C66 C58 1_555 1_555
H38 C66 1_555 1_555
C67 C57 1_555 1_555
H39 C67 1_555 1_555
Dy1 O1 1_555 1_555
Dy2 O6 1_555 1_555
N4 C56 1_555 1_555
N5 C40 1_555 1_555
N6 C53 1_555 1_555
N7 C44 1_555 1_555
N8 C58 1_555 1_555
N9 C26 1_555 1_555
N10 C62 1_555 1_555
O1 C20 1_555 1_555
O2 C21 1_555 1_555
O3 C21 1_555 1_555
O4 C20 1_555 1_555
O5 C19 1_555 1_555
O6 C19 1_555 1_555
O7 C38 1_555 1_555
O8 C38 1_555 1_555
O9 C32 1_555 1_555
O10 C31 1_555 1_555
O11 Dy1 1_555 1_555
O12 C29 1_555 1_555
O13 C32 1_555 1_555
O14 C31 1_555 1_555
O15 N7 1_555 1_555
O16 N7 1_555 1_555
O17 N8 1_555 1_555
O18 N8 1_555 1_555
O19 N9 1_555 1_555
O20 N9 1_555 1_555
O21 N4 1_555 1_555
O22 N4 1_555 1_555
O23 N5 1_555 1_555
O24 N5 1_555 1_555
O25 N6 1_555 1_555
O26 N6 1_555 1_555
O27 N10 1_555 1_555
O28 N10 1_555 1_555
C5A H3A 1_555 1_555
C6A C6 1_555 1_555
C7A C6A 1_555 1_555
C8A C5A 1_555 1_555
H4A C8A 1_555 1_555
C17A C17 1_555 1_555
H11A C17A 1_555 1_555
C18A C7A 1_555 1_555
H12A C18A 1_555 1_555
N2A Fe1 1_555 1_555
C1A H1A 1_555 1_555
C2A C1A 1_555 1_555
C3A C2A 1_555 1_555
C4A C2A 1_555 1_555
H2A C4A 1_555 1_555
C9A C3A 1_555 1_555
C10A C9A 1_555 1_555
C11A C10A 1_555 1_555
H5A C11A 1_555 1_555
C12A C11A 1_555 1_555
H6A C12A 1_555 1_555
C13A C12A 1_555 1_555
H7A C13A 1_555 1_555
C14A C4A 1_555 1_555
H8A C14A 1_555 1_555
C15A H9A 1_555 1_555
C16A C1A 1_555 1_555
H10A C16A 1_555 1_555
N1A Fe1 1_555 1_555
N3A Fe1 1_555 1_555
Dy1D O3 1_555 1_555
Dy2F O9 1_555 1_555
O3D Dy1 1_555 1_555
O4D Dy1 1_555 1_555
O9F Dy2 1_555 1_555
O10F Dy2 1_555 1_555
C6 N2 1_555 1_555
C8 C18 1_555 1_555
C10 C14 1_555 1_555
C13 N1 1_555 1_555
C15 C16 1_555 1_555
C15 N3 1_555 1_555
Fe1 N2 1_555 1_555
Fe1 N3 1_555 1_555
C49 C60 1_555 1_555
C51 C59 1_555 1_555
C52 C65 1_555 1_555
C54 C64 1_555 1_555
C55 C56 1_555 1_555
C55 C63 1_555 1_555
C61 C62 1_555 1_555
C66 C67 1_555 1_555
Dy1 O2 1_555 1_555
Dy1 O5 1_555 1_555
Dy1 O7 1_555 1_555
Dy2 O8 1_555 1_555
Dy2 O12 1_555 1_555
Dy2 O13 1_555 1_555
Dy2 O14 1_555 1_555
O4 Dy1D 1_555 1_555
O10 Dy2F 1_555 1_555
C5A N2A 1_555 1_555
C6A N2A 1_555 1_555
C7A C17A 1_555 1_555
C8A C18A 1_555 1_555
C3A N3A 1_555 1_555
C9A N1A 1_555 1_555
C10A C14A 1_555 1_555
C13A N1A 1_555 1_555
C15A C16A 1_555 1_555
C15A N3A 1_555 1_555

#END
