
#######################################################################
#
#                 Cambridge Crystallographic Data Centre
#                                CCDC 
#
#######################################################################
#
# If this CIF has been generated from an entry in the Cambridge 
# Structural Database, then it will include bibliographic, chemical, 
# crystal, experimental, refinement or atomic coordinate data resulting 
# from the CCDC's data processing and validation procedures.
#
#######################################################################

data_TEYTUO
_symmetry_cell_setting           triclinic
_symmetry_space_group_name_H-M   'P -1'
_symmetry_Int_Tables_number      2
_space_group_name_Hall           '-P 1'
loop_
_symmetry_equiv_pos_site_id
_symmetry_equiv_pos_as_xyz
1 x,y,z
2 -x,-y,-z
_cell_length_a                   7.5872(6)
_cell_length_b                   12.2872(11)
_cell_length_c                   15.3589(15)
_cell_angle_alpha                68.1730(10)
_cell_angle_beta                 86.445(2)
_cell_angle_gamma                72.8090(10)
_cell_volume                     1267.96
loop_
_atom_site_label
_atom_site_type_symbol
_atom_site_fract_x
_atom_site_fract_y
_atom_site_fract_z
Cd1 Cd 0.64556(5) 0.30313(3) 0.94049(3)
O1 O 0.6277(5) 0.1298(3) 1.0593(3)
O2 O 0.3243(5) 0.1598(4) 1.0720(2)
O3 O 0.5166(5) -0.1634(4) 1.1484(3)
O4 O 0.2379(5) -0.1847(3) 1.1400(3)
O5 O 0.5373(5) 0.4840(4) 0.8081(3)
O6 O 0.3305(5) 0.4119(3) 0.8992(2)
O7 O 0.2955(5) 0.6466(4) 0.9371(3)
O8 O 0.0675(5) 0.6692(3) 1.0291(2)
C1 C 0.5140(7) 0.0493(5) 1.2105(4)
C2 C 0.6486(9) 0.0701(6) 1.2562(4)
H1 H 0.7194 0.1198 1.2212
C3 C 0.6763(11) 0.0170(7) 1.3529(5)
H2 H 0.7655 0.0305 1.3831
C4 C 0.5708(11) -0.0557(6) 1.4034(5)
H3 H 0.5878 -0.0910 1.4685
C5 C 0.4402(9) -0.0773(5) 1.3593(4)
H4 H 0.3711 -0.1277 1.3953
C6 C 0.4088(7) -0.0260(5) 1.2627(4)
C7 C 0.4877(8) 0.1166(5) 1.1061(4)
C8 C 0.2689(7) -0.0575(5) 1.2182(4)
H5 H 0.1861 0.0181 1.1755
H6 H 0.1957 -0.0966 1.2671
C9 C 0.3498(7) -0.1412(5) 1.1644(4)
C10 C 0.2246(7) 0.5990(4) 0.7630(4)
C11 C 0.2524(9) 0.6373(5) 0.6682(4)
H7 H 0.3631 0.5996 0.6477
C12 C 0.1201(10) 0.7304(6) 0.6025(4)
H8 H 0.1396 0.7531 0.5386
C13 C -0.0392(10) 0.7881(6) 0.6335(5)
H9 H -0.1284 0.8518 0.5905
C14 C -0.0689(8) 0.7525(5) 0.7281(4)
H10 H -0.1773 0.7940 0.7479
C15 C 0.0591(7) 0.6561(5) 0.7949(4)
C16 C 0.3729(7) 0.4931(5) 0.8274(4)
C17 C 0.0138(7) 0.6221(5) 0.8959(4)
H11 H -0.1140 0.6663 0.8992
H12 H 0.0249 0.5352 0.9221
C18 C 0.1346(7) 0.6487(4) 0.9563(4)
Cd2 Cd 0.22237(5) 0.24419(3) 0.92311(3)
N1 N -0.0907(6) 0.4502(4) 0.6522(3)
N2 N 0.0797(6) 0.3305(4) 0.7782(3)
N3 N 0.0163(7) 0.3546(5) 0.6306(3)
O9 O 0.1214(8) 0.0807(5) 0.9428(4)
C19 C -0.4401(8) 0.5995(5) 0.4517(4)
H13 H -0.4000 0.6675 0.4187
C20 C -0.3603(8) 0.5213(5) 0.5403(4)
C21 C -0.4225(8) 0.4218(5) 0.5882(4)
H14 H -0.3716 0.3687 0.6479
C22 C -0.2183(8) 0.5554(5) 0.5821(4)
H15 H -0.1483 0.5958 0.5320
H16 H -0.2821 0.6134 0.6109
C23 C -0.0529(7) 0.4353(5) 0.7394(4)
H17 H -0.1100 0.4894 0.7689
C24 C 0.1144(8) 0.2840(6) 0.7096(4)
H18 H 0.2003 0.2087 0.7176
H19 H 0.049(9) 0.090(6) 0.911(5)
H20 H 0.196(11) 0.025(7) 0.935(5)
N1A N -0.9093(6) 0.5498(4) 0.3478(3)
N2A N -1.0797(6) 0.6695(4) 0.2218(3)
N3A N -1.0163(7) 0.6454(5) 0.3694(3)
C19A C -0.5599(8) 0.4005(5) 0.5483(4)
H13A H -0.6000 0.3325 0.5813
C20A C -0.6397(8) 0.4787(5) 0.4597(4)
C21A C -0.5775(8) 0.5782(5) 0.4118(4)
H14A H -0.6284 0.6313 0.3521
C22A C -0.7817(8) 0.4446(5) 0.4179(4)
H15A H -0.8517 0.4042 0.4680
H16A H -0.7179 0.3866 0.3891
C23A C -0.9471(7) 0.5647(5) 0.2606(4)
H17A H -0.8900 0.5106 0.2311
C24A C -1.1144(8) 0.7160(6) 0.2904(4)
H18A H -1.2003 0.7913 0.2824
Cd1A Cd -1.64556(5) 0.69687(3) 0.05951(3)
O1A O -1.6277(5) 0.8702(3) -0.0593(3)
O2A O -1.3243(5) 0.8402(4) -0.0720(2)
O3A O -1.5166(5) 1.1634(4) -0.1484(3)
O4A O -1.2379(5) 1.1847(3) -0.1400(3)
O5A O -1.5373(5) 0.5160(4) 0.1919(3)
O6A O -1.3305(5) 0.5881(3) 0.1008(2)
O7A O -1.2955(5) 0.3534(4) 0.0629(3)
O8A O -1.0675(5) 0.3308(3) -0.0291(2)
C1A C -1.5140(7) 0.9507(5) -0.2105(4)
C2A C -1.6486(9) 0.9299(6) -0.2562(4)
H1A H -1.7194 0.8802 -0.2212
C3A C -1.6763(11) 0.9830(7) -0.3529(5)
H2A H -1.7655 0.9695 -0.3831
C4A C -1.5708(11) 1.0557(6) -0.4034(5)
H3A H -1.5878 1.0910 -0.4685
C5A C -1.4402(9) 1.0773(5) -0.3593(4)
H4A H -1.3711 1.1277 -0.3953
C6A C -1.4088(7) 1.0260(5) -0.2627(4)
C7A C -1.4877(8) 0.8834(5) -0.1061(4)
C8A C -1.2689(7) 1.0575(5) -0.2182(4)
H5A H -1.1861 0.9819 -0.1755
H6A H -1.1957 1.0966 -0.2671
C9A C -1.3498(7) 1.1412(5) -0.1644(4)
C10A C -1.2246(7) 0.4010(4) 0.2370(4)
C11A C -1.2524(9) 0.3627(5) 0.3318(4)
H7A H -1.3631 0.4004 0.3523
C12A C -1.1201(10) 0.2696(6) 0.3975(4)
H8A H -1.1396 0.2469 0.4614
C13A C -0.9608(10) 0.2119(6) 0.3665(5)
H9A H -0.8716 0.1482 0.4095
C14A C -0.9311(8) 0.2475(5) 0.2719(4)
H10A H -0.8227 0.2060 0.2521
C15A C -1.0591(7) 0.3439(5) 0.2051(4)
C16A C -1.3729(7) 0.5069(5) 0.1726(4)
C17A C -1.0138(7) 0.3779(5) 0.1041(4)
H11A H -0.8860 0.3337 0.1008
H12A H -1.0249 0.4648 0.0779
C18A C -1.1346(7) 0.3513(4) 0.0437(4)
Cd2A Cd -1.22237(5) 0.75581(3) 0.07689(3)
O9A O -1.1214(8) 0.9193(5) 0.0572(4)
H19A H -1.049(9) 0.910(6) 0.089(5)
H20A H -1.196(11) 0.975(7) 0.065(5)
Cd1_2 Cd -1.35444(5) 0.30313(3) -0.05951(3)
Cd1_3 Cd -1.35444(5) 1.30313(3) -0.05951(3)
Cd1A_2 Cd 0.35444(5) -0.30313(3) 1.05951(3)
Cd1A_3 Cd 0.35444(5) 0.69687(3) 1.05951(3)
O3_2 O -1.4834(5) 0.8366(4) 0.1484(3)
O3A_2 O 0.4834(5) 0.1634(4) 0.8516(3)
O4_2 O -1.7621(5) 0.8153(3) 0.1400(3)
O4A_2 O 0.7621(5) 0.1847(3) 0.8600(3)
O7_2 O -1.7045(5) 0.6466(4) -0.0629(3)
O7A_2 O 0.7045(5) 0.3534(4) 1.0629(3)
O8_2 O -1.9325(5) 0.6692(3) 0.0291(2)
O8_3 O -0.9325(5) 0.6692(3) 0.0291(2)
O8A_2 O -0.0675(5) 0.3308(3) 0.9709(2)
O8A_3 O 0.9325(5) 0.3308(3) 0.9709(2)
Cd2_2 Cd -1.77763(5) 1.24419(3) -0.07689(3)
Cd2_3 Cd -0.77763(5) 0.24419(3) -0.07689(3)
Cd2A_2 Cd -0.22237(5) 0.75581(3) 1.07689(3)
Cd2A_3 Cd 0.77763(5) -0.24419(3) 1.07689(3)
loop_
_geom_bond_atom_site_label_1
_geom_bond_atom_site_label_2
_geom_bond_site_symmetry_1
_geom_bond_site_symmetry_2
Cd1 O1 1_555 1_555
O1 C7 1_555 1_555
O2 C7 1_555 1_555
O3 C9 1_555 1_555
O4 C9 1_555 1_555
O5 Cd1 1_555 1_555
O6 Cd1 1_555 1_555
O7 C18 1_555 1_555
O8 C18 1_555 1_555
C1 C2 1_555 1_555
C2 H1 1_555 1_555
C3 C2 1_555 1_555
H2 C3 1_555 1_555
C4 C3 1_555 1_555
H3 C4 1_555 1_555
C5 C4 1_555 1_555
H4 C5 1_555 1_555
C6 C1 1_555 1_555
C7 C1 1_555 1_555
C8 C6 1_555 1_555
H5 C8 1_555 1_555
H6 C8 1_555 1_555
C9 C8 1_555 1_555
C10 C11 1_555 1_555
C11 H7 1_555 1_555
C12 C11 1_555 1_555
H8 C12 1_555 1_555
C13 C12 1_555 1_555
H9 C13 1_555 1_555
C14 C13 1_555 1_555
H10 C14 1_555 1_555
C15 C10 1_555 1_555
C16 O5 1_555 1_555
C17 C15 1_555 1_555
H11 C17 1_555 1_555
H12 C17 1_555 1_555
C18 C17 1_555 1_555
Cd2 O2 1_555 1_555
N1 N3 1_555 1_555
N2 Cd2 1_555 1_555
N3 C24 1_555 1_555
O9 Cd2 1_555 1_555
C19 H13 1_555 1_555
C20 C19 1_555 1_555
C21 C20 1_555 1_555
H14 C21 1_555 1_555
C22 N1 1_555 1_555
H15 C22 1_555 1_555
H16 C22 1_555 1_555
C23 N1 1_555 1_555
H17 C23 1_555 1_555
C24 N2 1_555 1_555
H18 C24 1_555 1_555
H19 O9 1_555 1_555
H20 O9 1_555 1_555
N1A N3A 1_555 1_555
N2A C23A 1_555 1_555
N3A C24A 1_555 1_555
C19A C21 1_555 1_555
H13A C19A 1_555 1_555
C20A C19A 1_555 1_555
C21A C19 1_555 1_555
H14A C21A 1_555 1_555
C22A N1A 1_555 1_555
H15A C22A 1_555 1_555
H16A C22A 1_555 1_555
C23A N1A 1_555 1_555
H17A C23A 1_555 1_555
C24A N2A 1_555 1_555
H18A C24A 1_555 1_555
Cd1A O1A 1_555 1_555
O1A C7A 1_555 1_555
O2A C7A 1_555 1_555
O3A C9A 1_555 1_555
O4A C9A 1_555 1_555
O5A Cd1A 1_555 1_555
O6A Cd1A 1_555 1_555
O7A C18A 1_555 1_555
O8A C18A 1_555 1_555
C1A C2A 1_555 1_555
C2A H1A 1_555 1_555
C3A C2A 1_555 1_555
H2A C3A 1_555 1_555
C4A C3A 1_555 1_555
H3A C4A 1_555 1_555
C5A C4A 1_555 1_555
H4A C5A 1_555 1_555
C6A C1A 1_555 1_555
C7A C1A 1_555 1_555
C8A C6A 1_555 1_555
H5A C8A 1_555 1_555
H6A C8A 1_555 1_555
C9A C8A 1_555 1_555
C10A C11A 1_555 1_555
C11A H7A 1_555 1_555
C12A C11A 1_555 1_555
H8A C12A 1_555 1_555
C13A C12A 1_555 1_555
H9A C13A 1_555 1_555
C14A C13A 1_555 1_555
H10A C14A 1_555 1_555
C15A C10A 1_555 1_555
C16A O5A 1_555 1_555
C17A C15A 1_555 1_555
H11A C17A 1_555 1_555
H12A C17A 1_555 1_555
C18A C17A 1_555 1_555
Cd2A N2A 1_555 1_555
O9A Cd2A 1_555 1_555
H19A O9A 1_555 1_555
H20A O9A 1_555 1_555
Cd1_2 O7A 1_555 1_555
Cd1_3 O4A 1_555 1_555
Cd1A_2 O4 1_555 1_555
Cd1A_3 O7 1_555 1_555
O3_2 Cd2A 1_555 1_555
O3A_2 Cd2 1_555 1_555
O4_2 Cd1A 1_555 1_555
O4A_2 Cd1 1_555 1_555
O7_2 Cd1A 1_555 1_555
O7A_2 Cd1 1_555 1_555
O8_2 Cd1A 1_555 1_555
O8_3 Cd2A 1_555 1_555
O8A_2 Cd2 1_555 1_555
O8A_3 Cd1 1_555 1_555
Cd2_2 O3A 1_555 1_555
Cd2_3 O8A 1_555 1_555
Cd2A_2 O8 1_555 1_555
Cd2A_3 O3 1_555 1_555
O6 C16 1_555 1_555
O6 Cd2 1_555 1_555
O8 Cd1A_3 1_555 1_555
C5 C6 1_555 1_555
C10 C16 1_555 1_555
C14 C15 1_555 1_555
N2 C23 1_555 1_555
C20 C22 1_555 1_555
C20A C21A 1_555 1_555
C20A C22A 1_555 1_555
O2A Cd2A 1_555 1_555
O6A C16A 1_555 1_555
O6A Cd2A 1_555 1_555
O8A Cd1_2 1_555 1_555
C5A C6A 1_555 1_555
C10A C16A 1_555 1_555
C14A C15A 1_555 1_555

#END
