
#######################################################################
#
#                 Cambridge Crystallographic Data Centre
#                                CCDC 
#
#######################################################################
#
# If this CIF has been generated from an entry in the Cambridge 
# Structural Database, then it will include bibliographic, chemical, 
# crystal, experimental, refinement or atomic coordinate data resulting 
# from the CCDC's data processing and validation procedures.
#
#######################################################################

data_TEYVAW
_symmetry_cell_setting           monoclinic
_symmetry_space_group_name_H-M   'C 2/c'
_symmetry_Int_Tables_number      15
_space_group_name_Hall           '-C 2yn'
loop_
_symmetry_equiv_pos_site_id
_symmetry_equiv_pos_as_xyz
1 x,y,z
2 -x,y,1/2-z
3 1/2+x,1/2+y,z
4 1/2-x,1/2+y,1/2-z
5 -x,-y,-z
6 x,-y,1/2+z
7 1/2-x,1/2-y,-z
8 1/2+x,1/2-y,1/2+z
_cell_length_a                   28.218(2)
_cell_length_b                   10.8849(11)
_cell_length_c                   10.7915(9)
_cell_angle_alpha                90
_cell_angle_beta                 106.8170(10)
_cell_angle_gamma                90
_cell_volume                     3172.86
loop_
_atom_site_label
_atom_site_type_symbol
_atom_site_fract_x
_atom_site_fract_y
_atom_site_fract_z
Zn1 Zn 0.417288(10) 0.41761(3) 0.67038(3)
N1 N 0.28060(8) 0.4103(2) 0.7337(2)
N2 N 0.26856(9) 0.3292(3) 0.6339(2)
N3 N 0.34674(7) 0.3922(2) 0.67218(18)
O1 O 0.42938(7) 0.41235(16) 0.23289(18)
O2 O 0.40346(7) 0.38987(17) 0.02292(17)
O3 O 0.45358(6) 0.33733(17) 0.56803(15)
O4 O 0.38283(7) 0.28314(17) 0.42617(16)
O5 O 0.44782(9) 0.32854(19) 0.83988(18)
C1 C 0.41417(9) 0.2097(2) 0.1526(2)
C2 C 0.43388(9) 0.1504(2) 0.2717(2)
C3 C 0.42943(12) 0.0229(3) 0.2757(3)
H1 H 0.4434 -0.0180 0.3534
C4 C 0.40491(15) -0.0442(3) 0.1680(3)
H2 H 0.4017 -0.1288 0.1744
C5 C 0.38523(14) 0.0129(3) 0.0516(3)
H3 H 0.3686 -0.0322 -0.0212
C6 C 0.39032(11) 0.1380(3) 0.0437(3)
H4 H 0.3776 0.1766 -0.0360
C7 C 0.41598(9) 0.3445(3) 0.1340(3)
C8 C 0.46025(10) 0.2157(3) 0.3945(2)
H5 H 0.4829 0.2746 0.3751
H6 H 0.4800 0.1559 0.4541
C9 C 0.42787(10) 0.2834(2) 0.4632(2)
C10 C 0.28423(12) 0.3408(4) 1.0220(3)
H7 H 0.3080 0.4026 1.0378
C11 C 0.24700(10) 0.3408(3) 0.9064(3)
C12 C 0.21273(11) 0.2482(4) 0.8852(3)
H8 H 0.1873 0.2454 0.8079
C13 C 0.24548(11) 0.4374(3) 0.8072(3)
H9 H 0.2123 0.4425 0.7483
H10 H 0.2535 0.5164 0.8497
C14 C 0.32705(9) 0.4463(3) 0.7556(2)
H11 H 0.3434 0.5013 0.8198
C15 C 0.30933(10) 0.3213(3) 0.5999(3)
H12 H 0.3124 0.2717 0.5325
H13 H 0.4783(11) 0.329(3) 0.868(3)
H14 H 0.4347(10) 0.343(3) 0.897(3)
N1F N 0.21940(8) 0.0897(2) 1.2663(2)
N2F N 0.23144(9) 0.1708(3) 1.3661(2)
N3F N 0.15326(7) 0.1078(2) 1.32782(18)
C10F C 0.21577(12) 0.1592(4) 0.9780(3)
H7F H 0.1920 0.0974 0.9622
C11F C 0.25300(10) 0.1592(3) 1.0936(3)
C12F C 0.28727(11) 0.2518(4) 1.1148(3)
H8F H 0.3127 0.2546 1.1921
C13F C 0.25452(11) 0.0626(3) 1.1928(3)
H9F H 0.2877 0.0575 1.2517
H10F H 0.2465 -0.0164 1.1503
C14F C 0.17295(9) 0.0537(3) 1.2444(2)
H11F H 0.1566 -0.0013 1.1802
C15F C 0.19067(10) 0.1787(3) 1.4001(3)
H12F H 0.1876 0.2283 1.4675
Zn1F Zn 0.082712(10) 0.08239(3) 1.32962(3)
O1F O 0.07062(7) 0.08765(16) 1.76711(18)
O2F O 0.09654(7) 0.11013(17) 1.97708(17)
O3F O 0.04642(6) 0.16267(17) 1.43197(15)
O4F O 0.11717(7) 0.21686(17) 1.57383(16)
O5F O 0.05218(9) 0.17146(19) 1.16012(18)
C1F C 0.08583(9) 0.2903(2) 1.8474(2)
C2F C 0.06612(9) 0.3496(2) 1.7283(2)
C3F C 0.07057(12) 0.4771(3) 1.7243(3)
H1F H 0.0566 0.5180 1.6466
C4F C 0.09509(15) 0.5442(3) 1.8320(3)
H2F H 0.0983 0.6288 1.8256
C5F C 0.11477(14) 0.4871(3) 1.9484(3)
H3F H 0.1314 0.5322 2.0212
C6F C 0.10968(11) 0.3620(3) 1.9563(3)
H4F H 0.1224 0.3234 2.0360
C7F C 0.08402(9) 0.1555(3) 1.8660(3)
C8F C 0.03975(10) 0.2843(3) 1.6055(2)
H5F H 0.0171 0.2254 1.6249
H6F H 0.0200 0.3441 1.5459
C9F C 0.07213(10) 0.2166(2) 1.5368(2)
H13F H 0.0217(11) 0.171(3) 1.132(3)
H14F H 0.0653(10) 0.157(3) 1.103(3)
Zn1C Zn 0.082712(10) -0.08239(3) 1.82962(3)
Zn1E Zn 0.417288(10) 0.58239(3) 0.17038(3)
O1C O 0.07062(7) -0.08765(16) 1.26711(18)
O1E O 0.42938(7) 0.58765(16) 0.73289(18)
loop_
_geom_bond_atom_site_label_1
_geom_bond_atom_site_label_2
_geom_bond_site_symmetry_1
_geom_bond_site_symmetry_2
Zn1 N3 1_555 1_555
N1 N2 1_555 1_555
N2 C15 1_555 1_555
N3 C14 1_555 1_555
O1 C7 1_555 1_555
O2 C7 1_555 1_555
O3 Zn1 1_555 1_555
O4 C9 1_555 1_555
O5 Zn1 1_555 1_555
C1 C2 1_555 1_555
C2 C3 1_555 1_555
C3 H1 1_555 1_555
C4 C3 1_555 1_555
H2 C4 1_555 1_555
C5 C4 1_555 1_555
H3 C5 1_555 1_555
C6 C1 1_555 1_555
H4 C6 1_555 1_555
C7 C1 1_555 1_555
C8 C2 1_555 1_555
H5 C8 1_555 1_555
H6 C8 1_555 1_555
C9 O3 1_555 1_555
C10 H7 1_555 1_555
C11 C10 1_555 1_555
C12 C11 1_555 1_555
H8 C12 1_555 1_555
C13 N1 1_555 1_555
H9 C13 1_555 1_555
H10 C13 1_555 1_555
C14 N1 1_555 1_555
H11 C14 1_555 1_555
C15 N3 1_555 1_555
H12 C15 1_555 1_555
H13 O5 1_555 1_555
H14 O5 1_555 1_555
N1F N2F 1_555 1_555
N2F C15F 1_555 1_555
N3F C14F 1_555 1_555
C10F C12 1_555 1_555
H7F C10F 1_555 1_555
C11F C10F 1_555 1_555
C12F C10 1_555 1_555
H8F C12F 1_555 1_555
C13F N1F 1_555 1_555
H9F C13F 1_555 1_555
H10F C13F 1_555 1_555
C14F N1F 1_555 1_555
H11F C14F 1_555 1_555
C15F N3F 1_555 1_555
H12F C15F 1_555 1_555
Zn1F N3F 1_555 1_555
O1F C7F 1_555 1_555
O2F C7F 1_555 1_555
O3F Zn1F 1_555 1_555
O4F C9F 1_555 1_555
O5F Zn1F 1_555 1_555
C1F C2F 1_555 1_555
C2F C3F 1_555 1_555
C3F H1F 1_555 1_555
C4F C3F 1_555 1_555
H2F C4F 1_555 1_555
C5F C4F 1_555 1_555
H3F C5F 1_555 1_555
C6F C1F 1_555 1_555
H4F C6F 1_555 1_555
C7F C1F 1_555 1_555
C8F C2F 1_555 1_555
H5F C8F 1_555 1_555
H6F C8F 1_555 1_555
C9F O3F 1_555 1_555
H13F O5F 1_555 1_555
H14F O5F 1_555 1_555
Zn1C O1F 1_555 1_555
Zn1E O1 1_555 1_555
O1C Zn1F 1_555 1_555
O1E Zn1 1_555 1_555
C5 C6 1_555 1_555
C8 C9 1_555 1_555
C11 C13 1_555 1_555
C11F C12F 1_555 1_555
C11F C13F 1_555 1_555
C5F C6F 1_555 1_555
C8F C9F 1_555 1_555

#END
