
#######################################################################
#
#                 Cambridge Crystallographic Data Centre
#                                CCDC 
#
#######################################################################
#
# If this CIF has been generated from an entry in the Cambridge 
# Structural Database, then it will include bibliographic, chemical, 
# crystal, experimental, refinement or atomic coordinate data resulting 
# from the CCDC's data processing and validation procedures.
#
#######################################################################

data_TEYYOM
_symmetry_cell_setting           monoclinic
_symmetry_space_group_name_H-M   'C 2/c'
_symmetry_Int_Tables_number      15
_space_group_name_Hall           '-C 2yn'
loop_
_symmetry_equiv_pos_site_id
_symmetry_equiv_pos_as_xyz
1 x,y,z
2 1/2+x,1/2+y,z
3 -x,y,1/2-z
4 1/2-x,1/2+y,1/2-z
5 -x,-y,-z
6 1/2-x,1/2-y,-z
7 x,-y,1/2+z
8 1/2+x,1/2-y,1/2+z
_cell_length_a                   13.9753(6)
_cell_length_b                   15.4428(7)
_cell_length_c                   10.9479(5)
_cell_angle_alpha                90.00
_cell_angle_beta                 93.261(2)
_cell_angle_gamma                90.00
_cell_volume                     2358.93
loop_
_atom_site_label
_atom_site_type_symbol
_atom_site_fract_x
_atom_site_fract_y
_atom_site_fract_z
Co1 Co 0.0000 0.07551(5) 0.2500
Cu1 Cu 0.2500 0.2500 0.0000
O1 O -0.0997(3) -0.0178(3) 0.1926(4)
O2 O 0.0993(2) 0.1753(2) 0.2758(3)
O3 O 0.0561(2) 0.0793(2) 0.0739(3)
O4 O 0.1615(3) 0.1527(2) -0.0268(3)
N1 N 0.2010(3) 0.2547(3) 0.1605(4)
C1 C 0.1403(3) 0.1926(3) 0.1803(4)
C2 C 0.1171(3) 0.1365(3) 0.0677(4)
C3 C 0.2200(4) 0.3196(4) 0.2541(5)
C4 C 0.1667(5) 0.3951(4) 0.2456(6)
C5 C 0.1848(8) 0.4571(5) 0.3383(9)
H1 H 0.1501 0.5085 0.3383
C6 C 0.2531(8) 0.4408(8) 0.4270(10)
H2 H 0.2625 0.4821 0.4883
C7 C 0.3095(7) 0.3692(8) 0.4348(7)
H3 H 0.3577 0.3632 0.4965
C8 C 0.2918(5) 0.3031(5) 0.3441(6)
C9 C 0.0952(6) 0.4106(5) 0.1445(8)
H4 H 0.0661 0.4662 0.1547
H5 H 0.0469 0.3664 0.1444
H6 H 0.1259 0.4093 0.0683
C10 C 0.3506(6) 0.2252(7) 0.3476(8)
H7 H 0.3956 0.2275 0.4171
H8 H 0.3846 0.2214 0.2740
H9 H 0.3103 0.1752 0.3540
Cu1G Cu -0.2500 0.2500 0.5000
O1B O 0.0997(3) -0.0178(3) 0.3074(4)
O2B O -0.0993(2) 0.1753(2) 0.2242(3)
O3B O -0.0561(2) 0.0793(2) 0.4261(3)
O4B O -0.1615(3) 0.1527(2) 0.5268(3)
O4E O 0.3385(3) 0.3473(2) 0.0268(3)
N1B N -0.2010(3) 0.2547(3) 0.3395(4)
N1E N 0.2990(3) 0.2453(3) -0.1605(4)
C1B C -0.1403(3) 0.1926(3) 0.3197(4)
C2B C -0.1171(3) 0.1365(3) 0.4323(4)
C3B C -0.2200(4) 0.3196(4) 0.2459(5)
C4B C -0.1667(5) 0.3951(4) 0.2544(6)
C5B C -0.1848(8) 0.4571(5) 0.1617(9)
H1B H -0.1501 0.5085 0.1617
C6B C -0.2531(8) 0.4408(8) 0.0730(10)
H2B H -0.2625 0.4821 0.0117
C7B C -0.3095(7) 0.3692(8) 0.0652(7)
H3B H -0.3577 0.3632 0.0035
C8B C -0.2918(5) 0.3031(5) 0.1559(6)
C9B C -0.0952(6) 0.4106(5) 0.3555(8)
H4B H -0.0661 0.4662 0.3453
H5B H -0.0469 0.3664 0.3556
H6B H -0.1259 0.4093 0.4317
C10B C -0.3506(6) 0.2252(7) 0.1524(8)
H7B H -0.3956 0.2275 0.0829
H8B H -0.3846 0.2214 0.2260
H9B H -0.3103 0.1752 0.1460
loop_
_geom_bond_atom_site_label_1
_geom_bond_atom_site_label_2
_geom_bond_site_symmetry_1
_geom_bond_site_symmetry_2
Co1 O1 1_555 1_555
Cu1 O4 1_555 1_555
O2 Co1 1_555 1_555
O3 Co1 1_555 1_555
O4 C2 1_555 1_555
N1 Cu1 1_555 1_555
C1 O2 1_555 1_555
C2 O3 1_555 1_555
C3 N1 1_555 1_555
C4 C3 1_555 1_555
C5 C4 1_555 1_555
H1 C5 1_555 1_555
C6 C5 1_555 1_555
H2 C6 1_555 1_555
C7 C6 1_555 1_555
H3 C7 1_555 1_555
C8 C3 1_555 1_555
C9 C4 1_555 1_555
H4 C9 1_555 1_555
H5 C9 1_555 1_555
H6 C9 1_555 1_555
C10 C8 1_555 1_555
H7 C10 1_555 1_555
H8 C10 1_555 1_555
H9 C10 1_555 1_555
Cu1G O4B 1_555 1_555
O1B Co1 1_555 1_555
O2B Co1 1_555 1_555
O3B Co1 1_555 1_555
O4B C2B 1_555 1_555
O4E Cu1 1_555 1_555
N1B Cu1G 1_555 1_555
N1E Cu1 1_555 1_555
C1B O2B 1_555 1_555
C2B O3B 1_555 1_555
C3B N1B 1_555 1_555
C4B C3B 1_555 1_555
C5B C4B 1_555 1_555
H1B C5B 1_555 1_555
C6B C5B 1_555 1_555
H2B C6B 1_555 1_555
C7B C6B 1_555 1_555
H3B C7B 1_555 1_555
C8B C3B 1_555 1_555
C9B C4B 1_555 1_555
H4B C9B 1_555 1_555
H5B C9B 1_555 1_555
H6B C9B 1_555 1_555
C10B C8B 1_555 1_555
H7B C10B 1_555 1_555
H8B C10B 1_555 1_555
H9B C10B 1_555 1_555
N1 C1 1_555 1_555
C1 C2 1_555 1_555
C7 C8 1_555 1_555
N1B C1B 1_555 1_555
C1B C2B 1_555 1_555
C7B C8B 1_555 1_555

#END
