
#######################################################################
#
#                 Cambridge Crystallographic Data Centre
#                                CCDC 
#
#######################################################################
#
# If this CIF has been generated from an entry in the Cambridge 
# Structural Database, then it will include bibliographic, chemical, 
# crystal, experimental, refinement or atomic coordinate data resulting 
# from the CCDC's data processing and validation procedures.
#
#######################################################################

data_TEYYIG
_symmetry_cell_setting           triclinic
_symmetry_space_group_name_H-M   'P -1'
_symmetry_Int_Tables_number      2
_space_group_name_Hall           '-P 1'
loop_
_symmetry_equiv_pos_site_id
_symmetry_equiv_pos_as_xyz
1 x,y,z
2 -x,-y,-z
_cell_length_a                   23.4405(15)
_cell_length_b                   19.8751(15)
_cell_length_c                   14.5335(15)
_cell_angle_alpha                84.359(3)
_cell_angle_beta                 57.542(4)
_cell_angle_gamma                38.099(16)
_cell_volume                     2759.13
loop_
_atom_site_label
_atom_site_type_symbol
_atom_site_fract_x
_atom_site_fract_y
_atom_site_fract_z
O1 O -0.2880(3) 0.0157(3) -0.0502(3)
O2 O -0.9846(3) 0.7123(3) 0.8226(3)
O3 O -0.3405(3) 0.2041(3) 0.1877(3)
C1 C -0.2242(5) 0.1238(5) 0.1188(5)
O4 O -0.2432(6) -0.2436(6) -0.0059(11)
O5 O -0.1983(3) 0.1584(3) 0.1274(3)
O6 O -0.3727(4) -0.0874(3) 0.3017(3)
O7 O -0.6772(3) 0.4496(3) 0.5152(3)
O8 O -0.5506(3) 0.3229(3) 0.2127(3)
O9 O -0.5060(11) 0.4925(11) 0.2567(6)
Cu1 Cu 0.0000 0.0000 0.0000
Cu2 Cu -1.0000 1.0000 0.5000
Cu3 Cu -0.5000 0.0000 0.5000
Cu4 Cu -1.0000 0.5000 0.5000
Na1 Na -0.35043(18) 0.10047(19) 0.14975(18)
Na2 Na -0.89972(19) 0.64955(19) 0.60026(18)
Na3 Na -0.56732(19) 0.4326(2) 0.3171(2)
Na4 Na -0.1823(2) -0.1830(2) -0.06754(19)
O10 O -1.0877(3) 0.6272(4) 0.6588(3)
O11 O -0.1145(3) -0.0744(3) -0.0029(3)
O12 O -0.8416(3) 0.8019(3) 0.4127(3)
O13 O -0.3117(3) -0.0519(3) 0.1590(3)
N1 N -1.1071(4) 1.0216(4) 0.6435(4)
O14 O -0.8088(3) 0.4977(3) 0.4261(3)
O15 O -1.0742(3) 0.8853(3) 0.6913(3)
N2 N -0.5582(4) 0.1435(4) 0.5216(4)
N3 N 0.0218(4) -0.1072(4) -0.0580(4)
O16 O -0.5026(3) 0.1915(3) 0.3858(3)
O17 O -0.7958(3) 0.6594(3) 0.4486(3)
N4 N -0.8567(4) 0.4418(4) 0.3927(4)
C2 C -1.2539(5) 1.1518(5) 0.7674(5)
C3 C -0.0960(5) -0.0339(5) 0.0105(5)
O18 O -1.0511(3) 0.6874(3) 0.7040(3)
C4 C -1.0184(5) 0.6187(5) 0.6239(5)
C5 C -0.4901(5) 0.1194(5) 0.4045(5)
C6 C 0.1517(5) -0.2541(5) -0.1651(5)
C7 C -1.0342(5) 0.9044(5) 0.6197(5)
C8 C -0.6649(5) 0.2669(5) 0.6512(5)
C9 C -0.7325(5) 0.3347(6) 0.2454(5)
C10 C -0.8805(5) 0.5100(5) 0.4661(5)
C11 C -0.3805(5) -0.0192(5) 0.2754(5)
C12 C -0.8763(5) 0.7759(5) 0.4817(5)
C13 C -1.3059(6) 1.2310(6) 0.8782(5)
C14 C -0.8033(6) 0.3781(5) 0.7310(5)
C15 C 0.2311(5) -0.3058(5) -0.3031(6)
C16 C -0.6209(5) 0.1959(6) 0.1936(5)
C17 C 0.3646(6) -0.4497(6) -0.4088(6)
H1 H 0.4188 -0.4842 -0.5011
C18 C -1.3440(6) 1.2037(6) 0.7750(6)
C19 C -0.6343(6) 0.2746(6) 0.7041(6)
C20 C -1.4508(6) 1.3651(6) 0.9943(5)
H2 H -1.4856 1.4193 1.0673
C21 C -0.5057(6) 0.0916(6) 0.0499(6)
H3 H -0.4324 -0.0009 0.0150
C22 C -0.7251(6) 0.3657(6) 0.1559(6)
C23 C -0.9077(6) 0.4932(5) 0.8632(6)
H4 H -1.0001 0.5663 0.9170
C24 C -0.4961(7) 0.1191(8) -0.0406(6)
C25 C 0.2037(6) -0.3439(6) -0.1344(6)
C26 C -0.3666(7) -0.0001(8) -0.1978(6)
H5 H -0.3049 -0.0170 -0.2366
H6 H -0.3940 0.0249 -0.2410
H7 H -0.3198 -0.0829 -0.2144
C27 C -0.6270(7) 0.1616(7) 0.2916(6)
H8 H -0.6270 0.1923 0.3388
H9 H -0.5473 0.0628 0.2398
H10 H -0.7105 0.2080 0.3587
C28 C -0.9993(8) 0.6329(7) 1.0638(7)
H11 H -0.9624 0.6177 1.0907
H12 H -1.0622 0.6513 1.1283
H13 H -1.0483 0.7112 1.0643
C29 C 0.5644(7) -0.6978(6) -0.4991(8)
H14 H 0.5826 -0.7206 -0.5760
H15 H 0.5718 -0.7466 -0.4670
H16 H 0.6311 -0.7248 -0.5286
C30 C -1.6968(6) 1.5630(7) 1.1334(7)
H17 H -1.7393 1.5566 1.1795
H18 H -1.7364 1.6191 1.1070
H19 H -1.7132 1.6048 1.1953
C31 C -0.7439(8) 0.3942(7) 0.8369(7)
H20 H -0.7231 0.3997 0.8717
C32 C -1.2083(7) 1.1743(7) 0.8723(6)
H21 H -1.1553 1.0920 0.8648
H22 H -1.2611 1.2431 0.9557
H23 H -1.1461 1.1515 0.7928
C33 C 0.1747(7) -0.2094(7) -0.3387(7)
H24 H 0.0934 -0.1580 -0.3029
H25 H 0.2441 -0.2625 -0.4380
H26 H 0.1503 -0.1458 -0.2978
C34 C 0.3360(7) -0.4870(6) -0.2444(8)
H27 H 0.3698 -0.5481 -0.2236
C35 C -0.8801(7) 0.5034(6) 0.9176(6)
C36 C 0.1187(8) -0.2864(8) 0.0163(7)
H28 H 0.0994 -0.2289 0.0589
H29 H 0.1702 -0.3621 0.0202
H30 H 0.0326 -0.2319 0.0653
C37 C -1.5413(6) 1.4182(6) 1.0043(6)
C38 C 0.4176(6) -0.5409(6) -0.3808(7)
C39 C -1.4857(6) 1.3349(7) 0.8942(7)
H31 H -1.5465 1.3684 0.9002
C40 C -0.6049(7) 0.2556(8) 0.0132(6)
H32 H -0.5986 0.2761 -0.0482
C41 C -0.4833(8) 0.1519(8) 0.6187(8)
H33 H -0.4454 0.0760 0.6149
H34 H -0.4785 0.1791 0.6612
H35 H -0.4306 0.1230 0.5259
C42 C -0.8384(7) 0.3723(7) 0.6747(7)
H36 H -0.7985 0.3611 0.5904
H37 H -0.9377 0.4571 0.7422
H38 H -0.8013 0.2948 0.6554
C43 C -1.2874(9) 1.1184(9) 0.6525(8)
H39 H -1.2431 1.1121 0.5755
H40 H -1.3626 1.1628 0.6793
H41 H -1.2208 1.0266 0.6256
C44 C -0.8497(8) 0.5170(8) 0.2138(8)
H42 H -0.9286 0.5572 0.2670
H43 H -0.8278 0.5213 0.1383
H44 H -0.8711 0.5680 0.2728
O1A O 0.2880(3) -0.0157(3) 0.0502(3)
O2_2 O 0.0154(3) -0.2877(3) -0.1774(3)
O2A O 0.9846(3) -0.7123(3) -0.8226(3)
O2A_2 O -0.0154(3) 0.2877(3) 0.1774(3)
O3A O 0.3405(3) -0.2041(3) -0.1877(3)
C1A C 0.2242(5) -0.1238(5) -0.1188(5)
O4A O 0.2432(6) 0.2436(6) 0.0059(11)
O5A O 0.1983(3) -0.1584(3) -0.1274(3)
O6A O 0.3727(4) 0.0874(3) -0.3017(3)
O6A_2 O -0.6273(4) 0.0874(3) 0.6983(3)
O7A O 0.6772(3) -0.4496(3) -0.5152(3)
O8A O 0.5506(3) -0.3229(3) -0.2127(3)
O9A O 0.5060(11) -0.4925(11) -0.2567(6)
Cu2_2 Cu 1.0000 -1.0000 -0.5000
Cu3_2 Cu 0.5000 0.0000 -0.5000
Cu4_2 Cu 0.0000 -0.5000 -0.5000
Na1A Na 0.35043(18) -0.10047(19) -0.14975(18)
Na2A Na 0.89972(19) -0.64955(19) -0.60026(18)
Na2_2 Na 0.10028(19) -0.35045(19) -0.39974(18)
Na3A Na 0.56732(19) -0.4326(2) -0.3171(2)
Na4A Na 0.1823(2) 0.1830(2) 0.06754(19)
Na4_2 Na -1.1823(2) 0.8170(2) 0.93246(19)
O10_2 O -0.0877(3) -0.3728(4) -0.3412(3)
O10A O -0.9123(3) 0.3728(4) 0.3412(3)
O11A O 0.1145(3) 0.0744(3) 0.0029(3)
O12A O 0.8416(3) -0.8019(3) -0.4127(3)
O12A_2 O -1.1584(3) 1.1981(3) 0.5873(3)
O13A O 0.3117(3) 0.0519(3) -0.1590(3)
N1A N 1.1071(4) -1.0216(4) -0.6435(4)
N1A_2 N -0.8929(4) 0.9784(4) 0.3565(4)
O14_2 O 0.1912(3) -0.5023(3) -0.5739(3)
O14A O 0.8088(3) -0.4977(3) -0.4261(3)
O15A O 1.0742(3) -0.8853(3) -0.6913(3)
N2A N 0.5582(4) -0.1435(4) -0.5216(4)
N2A_2 N -0.4418(4) -0.1435(4) 0.4784(4)
N3A N -0.0218(4) 0.1072(4) 0.0580(4)
O16A O 0.5026(3) -0.1915(3) -0.3858(3)
O17A O 0.7958(3) -0.6594(3) -0.4486(3)
N4_2 N 0.1433(4) -0.5582(4) -0.6073(4)
N4A N -1.1433(4) 0.5582(4) 0.6073(4)
C2A C 1.2539(5) -1.1518(5) -0.7674(5)
C3A C 0.0960(5) 0.0339(5) -0.0105(5)
O18_2 O -0.0511(3) -0.3126(3) -0.2960(3)
O18A O 1.0511(3) -0.6874(3) -0.7040(3)
O18A_2 O 0.0511(3) 0.3126(3) 0.2960(3)
C4_2 C -0.0184(5) -0.3813(5) -0.3761(5)
C5A C 0.4901(5) -0.1194(5) -0.4045(5)
C6A C -0.1517(5) 0.2541(5) 0.1651(5)
C7A C 1.0342(5) -0.9044(5) -0.6197(5)
C8A C 0.6649(5) -0.2669(5) -0.6512(5)
C9_2 C 0.2675(5) -0.6653(6) -0.7546(5)
C10_2 C 0.1195(5) -0.4900(5) -0.5339(5)
C11A C 0.3805(5) 0.0192(5) -0.2754(5)
C12A C 0.8763(5) -0.7759(5) -0.4817(5)
C13A C 1.3059(6) -1.2310(6) -0.8782(5)
C14A C 0.8033(6) -0.3781(5) -0.7310(5)
C15A C -0.2311(5) 0.3058(5) 0.3031(6)
C16_2 C 0.3791(5) -0.8041(6) -0.8064(5)
C17A C -0.3646(6) 0.4497(6) 0.4088(6)
H1A H -0.4188 0.4842 0.5011
C18A C 1.3440(6) -1.2037(6) -0.7750(6)
C19A C 0.6343(6) -0.2746(6) -0.7041(6)
C20A C 1.4508(6) -1.3651(6) -0.9943(5)
H2A H 1.4856 -1.4193 -1.0673
C21_2 C 0.4943(6) -0.9084(6) -0.9501(6)
H3_2 H 0.5676 -1.0009 -0.9850
C22_2 C 0.2749(6) -0.6343(6) -0.8441(6)
C23A C 0.9077(6) -0.4932(5) -0.8632(6)
H4A H 1.0001 -0.5663 -0.9170
C24_2 C 0.5039(7) -0.8809(8) -1.0406(6)
C25A C -0.2037(6) 0.3439(6) 0.1344(6)
C26_2 C 0.6334(7) -1.0001(8) -1.1978(6)
H5_2 H 0.6951 -1.0170 -1.2366
H6_2 H 0.6060 -0.9751 -1.2410
H7_2 H 0.6802 -1.0829 -1.2144
C27_2 C 0.3730(7) -0.8384(7) -0.7084(6)
H8_2 H 0.3730 -0.8077 -0.6612
H9_2 H 0.4527 -0.9372 -0.7602
H10_2 H 0.2895 -0.7920 -0.6413
C28A C 0.9993(8) -0.6329(7) -1.0638(7)
H11A H 0.9624 -0.6177 -1.0907
H12A H 1.0622 -0.6513 -1.1283
H13A H 1.0483 -0.7112 -1.0643
C29A C -0.5644(7) 0.6978(6) 0.4991(8)
H14A H -0.5826 0.7206 0.5760
H15A H -0.5718 0.7466 0.4670
H16A H -0.6311 0.7248 0.5286
C30A C 1.6968(6) -1.5630(7) -1.1334(7)
H17A H 1.7393 -1.5566 -1.1795
H18A H 1.7364 -1.6191 -1.1070
H19A H 1.7132 -1.6048 -1.1953
C31A C 0.7439(8) -0.3942(7) -0.8369(7)
H20A H 0.7231 -0.3997 -0.8717
C32A C 1.2083(7) -1.1743(7) -0.8723(6)
H21A H 1.1553 -1.0920 -0.8648
H22A H 1.2611 -1.2431 -0.9557
H23A H 1.1461 -1.1515 -0.7928
C33A C -0.1747(7) 0.2094(7) 0.3387(7)
H24A H -0.0934 0.1580 0.3029
H25A H -0.2441 0.2625 0.4380
H26A H -0.1503 0.1458 0.2978
C34A C -0.3360(7) 0.4870(6) 0.2444(8)
H27A H -0.3698 0.5481 0.2236
C35A C 0.8801(7) -0.5034(6) -0.9176(6)
C36A C -0.1187(8) 0.2864(8) -0.0163(7)
H28A H -0.0994 0.2289 -0.0589
H29A H -0.1702 0.3621 -0.0202
H30A H -0.0326 0.2319 -0.0653
C37A C 1.5413(6) -1.4182(6) -1.0043(6)
C38A C -0.4176(6) 0.5409(6) 0.3808(7)
C39A C 1.4857(6) -1.3349(7) -0.8942(7)
H31A H 1.5465 -1.3684 -0.9002
C40_2 C 0.3951(7) -0.7444(8) -0.9868(6)
H32_2 H 0.4014 -0.7239 -1.0482
C41A C 0.4833(8) -0.1519(8) -0.6187(8)
H33A H 0.4454 -0.0760 -0.6149
H34A H 0.4785 -0.1791 -0.6612
H35A H 0.4306 -0.1230 -0.5259
C42A C 0.8384(7) -0.3723(7) -0.6747(7)
H36A H 0.7985 -0.3611 -0.5904
H37A H 0.9377 -0.4571 -0.7422
H38A H 0.8013 -0.2948 -0.6554
C43A C 1.2874(9) -1.1184(9) -0.6525(8)
H39A H 1.2431 -1.1121 -0.5755
H40A H 1.3626 -1.1628 -0.6793
H41A H 1.2208 -1.0266 -0.6256
C44_2 C 0.1503(8) -0.4830(8) -0.7862(8)
H42_2 H 0.0714 -0.4428 -0.7330
H43_2 H 0.1722 -0.4787 -0.8617
H44_2 H 0.1289 -0.4320 -0.7272
loop_
_geom_bond_atom_site_label_1
_geom_bond_atom_site_label_2
_geom_bond_site_symmetry_1
_geom_bond_site_symmetry_2
O1 Na1 1_555 1_555
O2 Na2 1_555 1_555
O3 C1 1_555 1_555
C1 O5 1_555 1_555
O4 Na4 1_555 1_555
O5 Cu1 1_555 1_555
O6 Cu3 1_555 1_555
O7 Na2 1_555 1_555
O8 Na1 1_555 1_555
O9 Na3 1_555 1_555
Cu1 N3 1_555 1_555
Cu2 O12 1_555 1_555
Cu3 N2 1_555 1_555
Cu4 O10 1_555 1_555
Na1 O3 1_555 1_555
Na2 O14 1_555 1_555
Na3 O3 1_555 1_555
Na4 O1 1_555 1_555
O10 C4 1_555 1_555
O11 Na1 1_555 1_555
O12 C12 1_555 1_555
O13 Na1 1_555 1_555
N1 Cu2 1_555 1_555
O14 C10 1_555 1_555
O15 Na2 1_555 1_555
N2 C5 1_555 1_555
N3 C3 1_555 1_555
O16 Na1 1_555 1_555
O17 Na2 1_555 1_555
N4 Cu4 1_555 1_555
C2 N1 1_555 1_555
C3 C1 1_555 1_555
O18 Na2 1_555 1_555
C4 O18 1_555 1_555
C5 O16 1_555 1_555
C6 N3 1_555 1_555
C7 N1 1_555 1_555
C8 N2 1_555 1_555
C9 N4 1_555 1_555
C10 N4 1_555 1_555
C11 O6 1_555 1_555
C12 O17 1_555 1_555
C13 C2 1_555 1_555
C14 C8 1_555 1_555
C15 C6 1_555 1_555
C16 C9 1_555 1_555
C17 C15 1_555 1_555
H1 C17 1_555 1_555
C18 C2 1_555 1_555
C19 C8 1_555 1_555
C20 C13 1_555 1_555
H2 C20 1_555 1_555
C21 C16 1_555 1_555
H3 C21 1_555 1_555
C22 C9 1_555 1_555
C23 C14 1_555 1_555
H4 C23 1_555 1_555
C24 C21 1_555 1_555
C25 C6 1_555 1_555
C26 C24 1_555 1_555
H5 C26 1_555 1_555
H6 C26 1_555 1_555
H7 C26 1_555 1_555
C27 C16 1_555 1_555
H8 C27 1_555 1_555
H9 C27 1_555 1_555
H10 C27 1_555 1_555
C28 H11 1_555 1_555
H12 C28 1_555 1_555
H13 C28 1_555 1_555
C29 H14 1_555 1_555
H15 C29 1_555 1_555
H16 C29 1_555 1_555
C30 H17 1_555 1_555
H18 C30 1_555 1_555
H19 C30 1_555 1_555
C31 C19 1_555 1_555
H20 C31 1_555 1_555
C32 C13 1_555 1_555
H21 C32 1_555 1_555
H22 C32 1_555 1_555
H23 C32 1_555 1_555
C33 C15 1_555 1_555
H24 C33 1_555 1_555
H25 C33 1_555 1_555
H26 C33 1_555 1_555
C34 C25 1_555 1_555
H27 C34 1_555 1_555
C35 C23 1_555 1_555
C36 C25 1_555 1_555
H28 C36 1_555 1_555
H29 C36 1_555 1_555
H30 C36 1_555 1_555
C37 C20 1_555 1_555
C38 C17 1_555 1_555
C39 C18 1_555 1_555
H31 C39 1_555 1_555
C40 C22 1_555 1_555
H32 C40 1_555 1_555
C41 C19 1_555 1_555
H33 C41 1_555 1_555
H34 C41 1_555 1_555
H35 C41 1_555 1_555
C42 C14 1_555 1_555
H36 C42 1_555 1_555
H37 C42 1_555 1_555
H38 C42 1_555 1_555
C43 C18 1_555 1_555
H39 C43 1_555 1_555
H40 C43 1_555 1_555
H41 C43 1_555 1_555
C44 C22 1_555 1_555
H42 C44 1_555 1_555
H43 C44 1_555 1_555
H44 C44 1_555 1_555
O1A Na1A 1_555 1_555
O2_2 Na4 1_555 1_555
O2A Na2A 1_555 1_555
O2A_2 Na4A 1_555 1_555
O3A C1A 1_555 1_555
C1A O5A 1_555 1_555
O4A Na4A 1_555 1_555
O5A Cu1 1_555 1_555
O6A Cu3_2 1_555 1_555
O6A_2 Cu3 1_555 1_555
O7A Na2A 1_555 1_555
O8A Na1A 1_555 1_555
O9A Na3A 1_555 1_555
Cu2_2 O12A 1_555 1_555
Cu3_2 N2A 1_555 1_555
Cu4_2 O10_2 1_555 1_555
Na1A O3A 1_555 1_555
Na2A O14A 1_555 1_555
Na2_2 O2_2 1_555 1_555
Na3A O3A 1_555 1_555
Na4A O1A 1_555 1_555
Na4_2 O2 1_555 1_555
O10_2 C4_2 1_555 1_555
O10A Cu4 1_555 1_555
O11A Na1A 1_555 1_555
O12A C12A 1_555 1_555
O12A_2 Cu2 1_555 1_555
O13A Na1A 1_555 1_555
N1A Cu2_2 1_555 1_555
N1A_2 Cu2 1_555 1_555
O14_2 Na2_2 1_555 1_555
O15A Na2A 1_555 1_555
N2A C5A 1_555 1_555
N2A_2 Cu3 1_555 1_555
N3A Cu1 1_555 1_555
O16A Na1A 1_555 1_555
O17A Na2A 1_555 1_555
N4_2 Cu4_2 1_555 1_555
N4A Cu4 1_555 1_555
C2A N1A 1_555 1_555
C3A C1A 1_555 1_555
O18_2 Na4 1_555 1_555
O18A Na2A 1_555 1_555
O18A_2 Na4A 1_555 1_555
C4_2 O18_2 1_555 1_555
C5A O16A 1_555 1_555
C6A N3A 1_555 1_555
C7A N1A 1_555 1_555
C8A N2A 1_555 1_555
C9_2 N4_2 1_555 1_555
C10_2 O14_2 1_555 1_555
C11A O6A 1_555 1_555
C12A O17A 1_555 1_555
C13A C2A 1_555 1_555
C14A C8A 1_555 1_555
C15A C6A 1_555 1_555
C16_2 C9_2 1_555 1_555
C17A C15A 1_555 1_555
H1A C17A 1_555 1_555
C18A C2A 1_555 1_555
C19A C8A 1_555 1_555
C20A C13A 1_555 1_555
H2A C20A 1_555 1_555
C21_2 C16_2 1_555 1_555
H3_2 C21_2 1_555 1_555
C22_2 C9_2 1_555 1_555
C23A C14A 1_555 1_555
H4A C23A 1_555 1_555
C24_2 C21_2 1_555 1_555
C25A C6A 1_555 1_555
C26_2 C24_2 1_555 1_555
H5_2 C26_2 1_555 1_555
H6_2 C26_2 1_555 1_555
H7_2 C26_2 1_555 1_555
C27_2 C16_2 1_555 1_555
H8_2 C27_2 1_555 1_555
H9_2 C27_2 1_555 1_555
H10_2 C27_2 1_555 1_555
C28A H11A 1_555 1_555
H12A C28A 1_555 1_555
H13A C28A 1_555 1_555
C29A H14A 1_555 1_555
H15A C29A 1_555 1_555
H16A C29A 1_555 1_555
C30A H17A 1_555 1_555
H18A C30A 1_555 1_555
H19A C30A 1_555 1_555
C31A C19A 1_555 1_555
H20A C31A 1_555 1_555
C32A C13A 1_555 1_555
H21A C32A 1_555 1_555
H22A C32A 1_555 1_555
H23A C32A 1_555 1_555
C33A C15A 1_555 1_555
H24A C33A 1_555 1_555
H25A C33A 1_555 1_555
H26A C33A 1_555 1_555
C34A C25A 1_555 1_555
H27A C34A 1_555 1_555
C35A C23A 1_555 1_555
C36A C25A 1_555 1_555
H28A C36A 1_555 1_555
H29A C36A 1_555 1_555
H30A C36A 1_555 1_555
C37A C20A 1_555 1_555
C38A C17A 1_555 1_555
C39A C18A 1_555 1_555
H31A C39A 1_555 1_555
C40_2 C22_2 1_555 1_555
H32_2 C40_2 1_555 1_555
C41A C19A 1_555 1_555
H33A C41A 1_555 1_555
H34A C41A 1_555 1_555
H35A C41A 1_555 1_555
C42A C14A 1_555 1_555
H36A C42A 1_555 1_555
H37A C42A 1_555 1_555
H38A C42A 1_555 1_555
C43A C18A 1_555 1_555
H39A C43A 1_555 1_555
H40A C43A 1_555 1_555
H41A C43A 1_555 1_555
C44_2 C22_2 1_555 1_555
H42_2 C44_2 1_555 1_555
H43_2 C44_2 1_555 1_555
H44_2 C44_2 1_555 1_555
O7 Na3 1_555 1_555
O8 Na3 1_555 1_555
Na3 O17 1_555 1_555
Na4 O13 1_555 1_555
O11 C3 1_555 1_555
O13 C11 1_555 1_555
O15 C7 1_555 1_555
O18 Na4_2 1_555 1_555
C4 C10 1_555 1_555
C5 C11 1_555 1_555
C7 C12 1_555 1_555
C24 C40 1_555 1_555
C28 C35 1_555 1_555
C29 C38 1_555 1_555
C30 C37 1_555 1_555
C31 C35 1_555 1_555
C34 C38 1_555 1_555
C37 C39 1_555 1_555
O7A Na3A 1_555 1_555
O8A Na3A 1_555 1_555
Na2_2 O18_2 1_555 1_555
Na3A O17A 1_555 1_555
Na4A O13A 1_555 1_555
O11A C3A 1_555 1_555
O13A C11A 1_555 1_555
O15A C7A 1_555 1_555
N3A C3A 1_555 1_555
N4_2 C10_2 1_555 1_555
C4_2 C10_2 1_555 1_555
C5A C11A 1_555 1_555
C7A C12A 1_555 1_555
C24_2 C40_2 1_555 1_555
C28A C35A 1_555 1_555
C29A C38A 1_555 1_555
C30A C37A 1_555 1_555
C31A C35A 1_555 1_555
C34A C38A 1_555 1_555
C37A C39A 1_555 1_555

#END
