
#######################################################################
#
#                 Cambridge Crystallographic Data Centre
#                                CCDC 
#
#######################################################################
#
# If this CIF has been generated from an entry in the Cambridge 
# Structural Database, then it will include bibliographic, chemical, 
# crystal, experimental, refinement or atomic coordinate data resulting 
# from the CCDC's data processing and validation procedures.
#
#######################################################################

data_TEYZEE
_symmetry_cell_setting           orthorhombic
_symmetry_space_group_name_H-M   'P n m a'
_symmetry_Int_Tables_number      62
_space_group_name_Hall           '-P 2ac 2n'
loop_
_symmetry_equiv_pos_site_id
_symmetry_equiv_pos_as_xyz
1 x,y,z
2 1/2-x,-y,1/2+z
3 -x,1/2+y,-z
4 1/2+x,1/2-y,1/2-z
5 -x,-y,-z
6 1/2+x,y,1/2-z
7 x,1/2-y,z
8 1/2-x,1/2+y,1/2+z
_cell_length_a                   17.0341(8)
_cell_length_b                   21.3551(10)
_cell_length_c                   13.1534(6)
_cell_angle_alpha                90
_cell_angle_beta                 90
_cell_angle_gamma                90
_cell_volume                     4784.75
loop_
_atom_site_label
_atom_site_type_symbol
_atom_site_fract_x
_atom_site_fract_y
_atom_site_fract_z
Ag1 Ag 0.53428(4) 0.57865(3) 0.56541(4)
P1 P 0.53270(11) 0.61655(9) 0.73326(14)
O1 O 0.9238(4) 0.6441(3) 0.0673(5)
O2 O 0.9440(3) 0.5432(2) 0.0520(4)
N1 N 0.6343(4) 0.5889(3) 0.4467(5)
C1 C 0.6309(4) 0.6253(3) 0.7888(6)
C2 C 0.6943(5) 0.6070(4) 0.7334(7)
H1 H 0.6865 0.5902 0.6681
C3 C 0.7707(6) 0.6124(6) 0.7708(10)
H2 H 0.8138 0.5999 0.7312
C4 C 0.7816(6) 0.6363(6) 0.8661(9)
H3 H 0.8325 0.6388 0.8931
C5 C 0.7194(7) 0.6565(6) 0.9224(8)
H4 H 0.7277 0.6745 0.9867
C6 C 0.6432(5) 0.6502(5) 0.8839(7)
H5 H 0.6001 0.6630 0.9234
C7 C 0.4790(4) 0.5646(3) 0.8200(6)
C8 C 0.4586(5) 0.5051(4) 0.7857(7)
H6 H 0.4752 0.4918 0.7210
C9 C 0.4144(6) 0.4654(5) 0.8457(9)
H7 H 0.4020 0.4249 0.8226
C10 C 0.3889(7) 0.4853(6) 0.9384(10)
H8 H 0.3573 0.4588 0.9783
C11 C 0.4088(6) 0.5442(5) 0.9746(8)
H9 H 0.3918 0.5575 1.0390
C12 C 0.4532(5) 0.5821(4) 0.9155(7)
H10 H 0.4670 0.6218 0.9403
C13 C 0.4863(4) 0.6927(3) 0.7582(6)
H11 H 0.4329 0.6915 0.7305
H12 H 0.4816 0.6977 0.8320
C14 C 0.5268(7) 0.7500 0.7164(9)
H13 H 0.5240 0.7500 0.6420
H14 H 0.5822 0.7500 0.7364
C15 C 0.6450(6) 0.6422(5) 0.3998(8)
H15 H 0.6125 0.6761 0.4174
C16 C 0.7013(6) 0.6516(4) 0.3257(8)
H16 H 0.7047 0.6905 0.2926
C17 C 0.7519(5) 0.6048(4) 0.3004(6)
C18 C 0.7404(5) 0.5480(4) 0.3500(6)
H17 H 0.7729 0.5137 0.3351
C19 C 0.6818(5) 0.5421(4) 0.4204(6)
H18 H 0.6747 0.5030 0.4518
C20 C 0.8113(6) 0.6159(4) 0.2220(7)
H19 H 0.8189 0.6578 0.2026
C21 C 0.8547(5) 0.5745(4) 0.1760(6)
H20 H 0.8495 0.5324 0.1959
C22 C 0.9126(5) 0.5895(4) 0.0931(6)
P1F P 0.53270(11) 0.88345(9) 0.73326(14)
C1F C 0.6309(4) 0.8747(3) 0.7888(6)
C2F C 0.6943(5) 0.8930(4) 0.7334(7)
H1F H 0.6865 0.9098 0.6681
C3F C 0.7707(6) 0.8876(6) 0.7708(10)
H2F H 0.8138 0.9001 0.7312
C4F C 0.7816(6) 0.8637(6) 0.8661(9)
H3F H 0.8325 0.8612 0.8931
C5F C 0.7194(7) 0.8435(6) 0.9224(8)
H4F H 0.7277 0.8255 0.9867
C6F C 0.6432(5) 0.8498(5) 0.8839(7)
H5F H 0.6001 0.8370 0.9234
C7F C 0.4790(4) 0.9354(3) 0.8200(6)
C8F C 0.4586(5) 0.9949(4) 0.7857(7)
H6F H 0.4752 1.0082 0.7210
C9F C 0.4144(6) 1.0346(5) 0.8457(9)
H7F H 0.4020 1.0751 0.8226
C10F C 0.3889(7) 1.0147(6) 0.9384(10)
H8F H 0.3573 1.0412 0.9783
C11F C 0.4088(6) 0.9558(5) 0.9746(8)
H9F H 0.3918 0.9425 1.0390
C12F C 0.4532(5) 0.9179(4) 0.9155(7)
H10F H 0.4670 0.8782 0.9403
C13F C 0.4863(4) 0.8073(3) 0.7582(6)
H11F H 0.4329 0.8085 0.7305
H12F H 0.4816 0.8023 0.8320
Ag1F Ag 0.53428(4) 0.92135(3) 0.56541(4)
O1F O 0.9238(4) 0.8559(3) 0.0673(5)
O2F O 0.9440(3) 0.9568(2) 0.0520(4)
N1F N 0.6343(4) 0.9111(3) 0.4467(5)
C15F C 0.6450(6) 0.8578(5) 0.3998(8)
H15F H 0.6125 0.8239 0.4174
C16F C 0.7013(6) 0.8484(4) 0.3257(8)
H16F H 0.7047 0.8095 0.2926
C17F C 0.7519(5) 0.8952(4) 0.3004(6)
C18F C 0.7404(5) 0.9520(4) 0.3500(6)
H17F H 0.7729 0.9863 0.3351
C19F C 0.6818(5) 0.9579(4) 0.4204(6)
H18F H 0.6747 0.9970 0.4518
C20F C 0.8113(6) 0.8841(4) 0.2220(7)
H19F H 0.8189 0.8422 0.2026
C21F C 0.8547(5) 0.9255(4) 0.1760(6)
H20F H 0.8495 0.9676 0.1959
C22F C 0.9126(5) 0.9105(4) 0.0931(6)
Ag1A Ag 0.96572(4) 0.42135(3) 0.06541(4)
Ag1C Ag 1.03428(4) 0.92135(3) -0.06541(4)
Ag1E Ag 1.03428(4) 0.57865(3) -0.06541(4)
Ag1G Ag 0.96572(4) 1.07865(3) 0.06541(4)
O2A O 0.5560(3) 0.4568(2) 0.5520(4)
O2C O 0.4440(3) 0.9568(2) 0.4480(4)
O2E O 0.4440(3) 0.5432(2) 0.4480(4)
O2G O 0.5560(3) 1.0432(2) 0.5520(4)
C23 C 0.9722(16) 0.7500 0.3739(19)
C24 C 0.8536(14) 0.7500 0.445(2)
C25 C 1.0563(15) 0.7500 0.407(3)
O3 O 0.9356(14) 0.7500 0.4734(17)
C26 C 0.8182(19) 0.7500 0.549(3)
O4 O 0.0158(8) 0.7500 0.0442(15)
O5 O 0.3243(8) 0.7500 0.4106(12)
O6? O 0.838(4) 0.7500 0.513(5)
O7? O 0.975(4) 0.7500 0.288(5)
O8? O 0.746(4) 0.7500 0.608(5)
O9? O 1.041(4) 0.7500 0.359(5)
H21? H 1.0901 0.7500 0.3477
H22? H 1.0666 0.7129 0.4475
H23? H 1.0666 0.7129 0.4475
H24? H 0.7614 0.7500 0.5434
H25? H 0.8351 0.7871 0.5855
H26? H 0.9588 0.7875 0.3346
H27? H 0.8393 0.7125 0.4061
loop_
_geom_bond_atom_site_label_1
_geom_bond_atom_site_label_2
_geom_bond_site_symmetry_1
_geom_bond_site_symmetry_2
Ag1 P1 1_555 1_555
P1 C1 1_555 1_555
O1 C22 1_555 1_555
O2 C22 1_555 1_555
N1 Ag1 1_555 1_555
C1 C2 1_555 1_555
C2 H1 1_555 1_555
C3 C2 1_555 1_555
H2 C3 1_555 1_555
C4 C3 1_555 1_555
H3 C4 1_555 1_555
C5 C4 1_555 1_555
H4 C5 1_555 1_555
C6 C1 1_555 1_555
H5 C6 1_555 1_555
C7 P1 1_555 1_555
C8 C7 1_555 1_555
H6 C8 1_555 1_555
C9 C8 1_555 1_555
H7 C9 1_555 1_555
C10 C9 1_555 1_555
H8 C10 1_555 1_555
C11 C10 1_555 1_555
H9 C11 1_555 1_555
C12 C7 1_555 1_555
H10 C12 1_555 1_555
C13 P1 1_555 1_555
H11 C13 1_555 1_555
H12 C13 1_555 1_555
C14 C13 1_555 1_555
H13 C14 1_555 1_555
H14 C14 1_555 1_555
C15 N1 1_555 1_555
H15 C15 1_555 1_555
C16 C15 1_555 1_555
H16 C16 1_555 1_555
C17 C16 1_555 1_555
C18 C17 1_555 1_555
H17 C18 1_555 1_555
C19 N1 1_555 1_555
H18 C19 1_555 1_555
C20 C17 1_555 1_555
H19 C20 1_555 1_555
C21 C20 1_555 1_555
H20 C21 1_555 1_555
C22 C21 1_555 1_555
C23 C25 1_555 1_555
C24 O3 1_555 1_555
O3 C23 1_555 1_555
C26 C24 1_555 1_555
P1F C1F 1_555 1_555
C1F C2F 1_555 1_555
C2F H1F 1_555 1_555
C3F C2F 1_555 1_555
H2F C3F 1_555 1_555
C4F C3F 1_555 1_555
H3F C4F 1_555 1_555
C5F C4F 1_555 1_555
H4F C5F 1_555 1_555
C6F C1F 1_555 1_555
H5F C6F 1_555 1_555
C7F P1F 1_555 1_555
C8F C7F 1_555 1_555
H6F C8F 1_555 1_555
C9F C8F 1_555 1_555
H7F C9F 1_555 1_555
C10F C9F 1_555 1_555
H8F C10F 1_555 1_555
C11F C10F 1_555 1_555
H9F C11F 1_555 1_555
C12F C7F 1_555 1_555
H10F C12F 1_555 1_555
C13F C14 1_555 1_555
H11F C13F 1_555 1_555
H12F C13F 1_555 1_555
Ag1F P1F 1_555 1_555
O1F C22F 1_555 1_555
O2F C22F 1_555 1_555
N1F Ag1F 1_555 1_555
C15F N1F 1_555 1_555
H15F C15F 1_555 1_555
C16F C15F 1_555 1_555
H16F C16F 1_555 1_555
C17F C16F 1_555 1_555
C18F C17F 1_555 1_555
H17F C18F 1_555 1_555
C19F N1F 1_555 1_555
H18F C19F 1_555 1_555
C20F C17F 1_555 1_555
H19F C20F 1_555 1_555
C21F C20F 1_555 1_555
H20F C21F 1_555 1_555
C22F C21F 1_555 1_555
Ag1A O2 1_555 1_555
Ag1C O2F 1_555 1_555
Ag1E O2 1_555 1_555
Ag1G O2F 1_555 1_555
O2A Ag1 1_555 1_555
O2C Ag1F 1_555 1_555
O2E Ag1 1_555 1_555
O2G Ag1F 1_555 1_555
C5 C6 1_555 1_555
C11 C12 1_555 1_555
C18 C19 1_555 1_555
P1F C13F 1_555 1_555
C5F C6F 1_555 1_555
C11F C12F 1_555 1_555
C18F C19F 1_555 1_555

#END
