
#######################################################################
#
#                 Cambridge Crystallographic Data Centre
#                                CCDC 
#
#######################################################################
#
# If this CIF has been generated from an entry in the Cambridge 
# Structural Database, then it will include bibliographic, chemical, 
# crystal, experimental, refinement or atomic coordinate data resulting 
# from the CCDC's data processing and validation procedures.
#
#######################################################################

data_TEYZUU
_symmetry_cell_setting           monoclinic
_symmetry_space_group_name_H-M   'P 21/c'
_symmetry_Int_Tables_number      14
_space_group_name_Hall           '-P 2ybc'
loop_
_symmetry_equiv_pos_site_id
_symmetry_equiv_pos_as_xyz
1 x,y,z
2 -x,1/2+y,1/2-z
3 -x,-y,-z
4 x,1/2-y,1/2+z
_cell_length_a                   17.1068(15)
_cell_length_b                   13.1531(10)
_cell_length_c                   25.507(2)
_cell_angle_alpha                90
_cell_angle_beta                 109.460(2)
_cell_angle_gamma                90
_cell_volume                     5411.41
loop_
_atom_site_label
_atom_site_type_symbol
_atom_site_fract_x
_atom_site_fract_y
_atom_site_fract_z
N1 N 0.5913(8) 0.5481(11) 0.0524(6)
C1 C 0.6520(9) 0.3986(10) 0.0169(5)
H1 H 0.6887 0.3602 0.0485
H2 H 0.6838 0.4232 -0.0062
H3 H 0.6071 0.3544 -0.0053
C2 C 0.6172(6) 0.4849(8) 0.0374(4)
O3 O 0.1499(7) 0.5371(6) 0.0269(3)
O6 O 0.8825(2) 0.8282(3) 0.48231(14)
C3 C 0.9307(5) 0.7709(6) 0.4065(3)
H4 H 0.8905 0.7152 0.3956
H5 H 0.9805 0.7528 0.3977
H6 H 0.9061 0.8327 0.3861
C4 C 0.9536(4) 0.7897(7) 0.4679(3)
H7 H 0.9735 0.7255 0.4882
H8 H 0.9994 0.8397 0.4797
C5 C 0.8369(5) 0.7411(6) 0.4873(4)
H9 H 0.8755 0.6894 0.5101
H10 H 0.8093 0.7118 0.4500
C6 C 0.7748(8) 0.7653(10) 0.5129(5)
H11 H 0.8023 0.7905 0.5507
H12 H 0.7430 0.7039 0.5143
H13 H 0.7373 0.8176 0.4909
Ag1 Ag 0.681461(17) 0.06828(2) 0.183384(12)
Ag2 Ag 0.179705(17) 0.699071(19) 0.188020(11)
P1 P 0.64501(6) -0.08925(7) 0.13872(4)
P2 P 0.15609(6) 0.86474(6) 0.15200(4)
O7 O 0.27626(17) 0.5718(2) 0.21389(11)
O8 O 0.27678(17) 0.58120(19) 0.12705(11)
O9 O -0.24696(17) 0.2100(2) 0.12067(10)
O10 O -0.20325(16) 0.17120(19) 0.21075(10)
N2 N 0.5911(2) 0.2045(2) 0.17920(13)
N3 N 0.0705(2) 0.5804(2) 0.16426(12)
C11 C 0.5781(2) 0.2755(3) 0.13954(18)
H24 H 0.6121 0.2750 0.1167
C12 C 0.5173(3) 0.3496(3) 0.13022(17)
H25 H 0.5095 0.3973 0.1009
C13 C 0.4681(2) 0.3542(3) 0.16357(16)
C14 C 0.4837(2) 0.2824(3) 0.20591(16)
H26 H 0.4527 0.2833 0.2306
C15 C 0.5443(2) 0.2099(3) 0.21183(16)
H27 H 0.5533 0.1612 0.2407
C16 C 0.4038(2) 0.4328(3) 0.15384(15)
H28 H 0.3899 0.4687 0.1196
C17 C 0.3632(2) 0.4587(3) 0.18775(15)
H29 H 0.3740 0.4226 0.2217
C18 C 0.3002(2) 0.5437(3) 0.17442(16)
C19 C 0.0117(3) 0.5651(3) 0.11524(15)
H30 H 0.0136 0.6042 0.0844
C20 C -0.0519(3) 0.4954(3) 0.10671(15)
H31 H -0.0927 0.4882 0.0710
C21 C -0.0554(2) 0.4363(3) 0.15093(14)
C22 C 0.0059(2) 0.4518(3) 0.20228(14)
H32 H 0.0056 0.4137 0.2338
C23 C 0.0669(2) 0.5231(3) 0.20688(15)
H33 H 0.1087 0.5320 0.2421
C24 C -0.1214(2) 0.3604(3) 0.14287(14)
H34 H -0.1588 0.3522 0.1061
C25 C -0.1341(2) 0.3020(3) 0.18178(15)
H35 H -0.0993 0.3110 0.2192
C26 C -0.2004(2) 0.2228(3) 0.16945(15)
C27 C 0.6268(2) -0.0832(3) 0.06397(15)
C28 C 0.5631(4) -0.1294(6) 0.0248(2)
H36 H 0.5244 -0.1682 0.0359
C29 C 0.5536(5) -0.1212(6) -0.0312(2)
H37 H 0.5083 -0.1541 -0.0579
C30 C 0.6076(3) -0.0671(4) -0.04816(18)
H38 H 0.6030 -0.0653 -0.0863
C31 C 0.6686(4) -0.0153(5) -0.0098(2)
H39 H 0.7052 0.0265 -0.0213
C32 C 0.6782(4) -0.0229(5) 0.04617(19)
H40 H 0.7210 0.0143 0.0726
C33 C 0.7213(2) -0.1906(3) 0.16398(14)
C34 C 0.7785(2) -0.1816(3) 0.21752(15)
H41 H 0.7765 -0.1245 0.2398
C35 C 0.8385(2) -0.2562(3) 0.23829(17)
H42 H 0.8770 -0.2502 0.2749
C36 C 0.8423(3) -0.3389(3) 0.20585(17)
H43 H 0.8840 -0.3890 0.2199
C37 C 0.7858(3) -0.3488(3) 0.15326(17)
H44 H 0.7881 -0.4063 0.1313
C38 C 0.7254(2) -0.2750(3) 0.13205(16)
H45 H 0.6867 -0.2822 0.0956
C39 C 0.5497(2) -0.1423(3) 0.14515(15)
C40 C 0.5003(2) -0.0776(3) 0.16400(16)
H46 H 0.5179 -0.0097 0.1741
C41 C 0.4259(2) -0.1109(3) 0.16819(18)
H47 H 0.3926 -0.0660 0.1809
C42 C 0.4002(2) -0.2095(3) 0.15384(17)
H48 H 0.3488 -0.2324 0.1563
C43 C 0.4491(3) -0.2747(3) 0.13600(16)
H49 H 0.4315 -0.3428 0.1266
C44 C 0.5242(2) -0.2419(3) 0.13154(16)
H50 H 0.5576 -0.2874 0.1193
C45 C 0.1480(2) 0.8681(3) 0.07896(14)
C46 C 0.1835(2) 0.7873(3) 0.05960(15)
H51 H 0.2094 0.7335 0.0840
C47 C 0.1809(3) 0.7854(3) 0.00475(16)
H52 H 0.2057 0.7306 -0.0082
C48 C 0.1427(3) 0.8627(3) -0.03122(16)
H53 H 0.1417 0.8611 -0.0687
C49 C 0.1057(2) 0.9427(3) -0.01293(15)
H54 H 0.0792 0.9957 -0.0378
C50 C 0.1075(2) 0.9452(3) 0.04202(14)
H55 H 0.0812 0.9992 0.0545
C51 C 0.2320(2) 0.9618(3) 0.18660(14)
C52 C 0.2485(2) 1.0474(3) 0.15981(15)
H56 H 0.2212 1.0561 0.1210
C53 C 0.3045(2) 1.1201(3) 0.18956(17)
H57 H 0.3156 1.1783 0.1711
C54 C 0.3443(2) 1.1078(3) 0.24615(17)
H58 H 0.3822 1.1580 0.2665
C55 C 0.3291(2) 1.0222(3) 0.27327(17)
H59 H 0.3566 1.0138 0.3121
C56 C 0.2734(2) 0.9490(3) 0.24330(15)
H60 H 0.2635 0.8900 0.2616
C57 C 0.0581(2) 0.9187(3) 0.15302(13)
C58 C 0.0485(2) 1.0202(3) 0.16547(14)
H61 H 0.0943 1.0655 0.1738
C59 C -0.0278(2) 1.0551(3) 0.16572(14)
H62 H -0.0340 1.1244 0.1742
C60 C -0.0951(2) 0.9901(3) 0.15372(14)
H63 H -0.1471 1.0146 0.1542
C61 C -0.0868(2) 0.8901(3) 0.14109(14)
H64 H -0.1332 0.8458 0.1322
C62 C -0.0105(2) 0.8538(3) 0.14136(15)
H65 H -0.0047 0.7841 0.1335
Ag1_2 Ag -0.318539(17) 0.06828(2) 0.183384(12)
Ag1A Ag 0.318539(17) 0.56828(2) 0.316616(12)
Ag2A Ag -0.179705(17) 0.199071(19) 0.311980(11)
O7A O 0.72374(17) 0.0718(2) 0.28611(11)
O10_2 O 0.79675(16) 0.17120(19) 0.21075(10)
O10A O 0.20325(16) 0.67120(19) 0.28925(10)
O1? O 0.5579(7) 0.5591(7) 0.0655(4)
O2? O 0.6234(6) 0.4430(9) -0.0012(4)
O4? O 0.2243(6) 0.5125(5) 0.0240(3)
O5? O 0.6348(5) 0.2365(8) 0.0221(3)
C7? C 0.8878(14) 0.8224(17) 0.3904(7)
H14? H 0.8653 0.7533 0.3841
H15? H 0.9234 0.8338 0.3678
H16? H 0.8421 0.8715 0.3798
C8? C 0.9377(10) 0.8358(19) 0.4508(6)
H17? H 0.9809 0.7825 0.4627
H18? H 0.9653 0.9030 0.4569
C9? C 0.8134(11) 0.7610(16) 0.4746(14)
H19? H 0.8301 0.7023 0.5001
H20? H 0.7932 0.7353 0.4359
C10? C 0.7465(16) 0.821(2) 0.4866(11)
H21? H 0.7665 0.8437 0.5254
H22? H 0.6975 0.7777 0.4804
H23? H 0.7318 0.8799 0.4619
loop_
_geom_bond_atom_site_label_1
_geom_bond_atom_site_label_2
_geom_bond_site_symmetry_1
_geom_bond_site_symmetry_2
N1 C2 1_555 1_555
C1 H1 1_555 1_555
H2 C1 1_555 1_555
H3 C1 1_555 1_555
C2 C1 1_555 1_555
O6 C4 1_555 1_555
C3 H4 1_555 1_555
H5 C3 1_555 1_555
H6 C3 1_555 1_555
C4 C3 1_555 1_555
H7 C4 1_555 1_555
H8 C4 1_555 1_555
C5 O6 1_555 1_555
H9 C5 1_555 1_555
H10 C5 1_555 1_555
C6 C5 1_555 1_555
H11 C6 1_555 1_555
H12 C6 1_555 1_555
H13 C6 1_555 1_555
Ag1 P1 1_555 1_555
Ag2 P2 1_555 1_555
P1 C27 1_555 1_555
P2 C45 1_555 1_555
O7 Ag2 1_555 1_555
O8 C18 1_555 1_555
O9 C26 1_555 1_555
O10 C26 1_555 1_555
N2 Ag1 1_555 1_555
N3 Ag2 1_555 1_555
C11 N2 1_555 1_555
H24 C11 1_555 1_555
C12 C11 1_555 1_555
H25 C12 1_555 1_555
C13 C12 1_555 1_555
C14 C13 1_555 1_555
H26 C14 1_555 1_555
C15 N2 1_555 1_555
H27 C15 1_555 1_555
C16 C13 1_555 1_555
H28 C16 1_555 1_555
C17 C16 1_555 1_555
H29 C17 1_555 1_555
C18 O7 1_555 1_555
C19 N3 1_555 1_555
H30 C19 1_555 1_555
C20 C19 1_555 1_555
H31 C20 1_555 1_555
C21 C20 1_555 1_555
C22 C21 1_555 1_555
H32 C22 1_555 1_555
C23 N3 1_555 1_555
H33 C23 1_555 1_555
C24 C21 1_555 1_555
H34 C24 1_555 1_555
C25 C24 1_555 1_555
H35 C25 1_555 1_555
C26 C25 1_555 1_555
C27 C28 1_555 1_555
C28 H36 1_555 1_555
C29 C28 1_555 1_555
H37 C29 1_555 1_555
C30 C29 1_555 1_555
H38 C30 1_555 1_555
C31 C30 1_555 1_555
H39 C31 1_555 1_555
C32 C27 1_555 1_555
H40 C32 1_555 1_555
C33 P1 1_555 1_555
C34 C33 1_555 1_555
H41 C34 1_555 1_555
C35 C34 1_555 1_555
H42 C35 1_555 1_555
C36 C35 1_555 1_555
H43 C36 1_555 1_555
C37 C36 1_555 1_555
H44 C37 1_555 1_555
C38 C33 1_555 1_555
H45 C38 1_555 1_555
C39 P1 1_555 1_555
C40 C39 1_555 1_555
H46 C40 1_555 1_555
C41 C40 1_555 1_555
H47 C41 1_555 1_555
C42 C41 1_555 1_555
H48 C42 1_555 1_555
C43 C42 1_555 1_555
H49 C43 1_555 1_555
C44 C39 1_555 1_555
H50 C44 1_555 1_555
C45 C46 1_555 1_555
C46 H51 1_555 1_555
C47 C46 1_555 1_555
H52 C47 1_555 1_555
C48 C47 1_555 1_555
H53 C48 1_555 1_555
C49 C48 1_555 1_555
H54 C49 1_555 1_555
C50 C45 1_555 1_555
H55 C50 1_555 1_555
C51 P2 1_555 1_555
C52 C51 1_555 1_555
H56 C52 1_555 1_555
C53 C52 1_555 1_555
H57 C53 1_555 1_555
C54 C53 1_555 1_555
H58 C54 1_555 1_555
C55 C54 1_555 1_555
H59 C55 1_555 1_555
C56 C51 1_555 1_555
H60 C56 1_555 1_555
C57 P2 1_555 1_555
C58 C57 1_555 1_555
H61 C58 1_555 1_555
C59 C58 1_555 1_555
H62 C59 1_555 1_555
C60 C59 1_555 1_555
H63 C60 1_555 1_555
C61 C60 1_555 1_555
H64 C61 1_555 1_555
C62 C57 1_555 1_555
H65 C62 1_555 1_555
Ag1_2 O10 1_555 1_555
Ag1A O7 1_555 1_555
Ag2A O10 1_555 1_555
O7A Ag1 1_555 1_555
O10_2 Ag1 1_555 1_555
O10A Ag2 1_555 1_555
C14 C15 1_555 1_555
C17 C18 1_555 1_555
C22 C23 1_555 1_555
C31 C32 1_555 1_555
C37 C38 1_555 1_555
C43 C44 1_555 1_555
C49 C50 1_555 1_555
C55 C56 1_555 1_555
C61 C62 1_555 1_555
Ag1A O10A 1_555 1_555

#END
