
#######################################################################
#
#                 Cambridge Crystallographic Data Centre
#                                CCDC 
#
#######################################################################
#
# If this CIF has been generated from an entry in the Cambridge 
# Structural Database, then it will include bibliographic, chemical, 
# crystal, experimental, refinement or atomic coordinate data resulting 
# from the CCDC's data processing and validation procedures.
#
#######################################################################

data_TEZFOV
_symmetry_cell_setting           orthorhombic
_symmetry_space_group_name_H-M   'P b c a'
_symmetry_Int_Tables_number      61
_space_group_name_Hall           '-P 2ac 2ab'
loop_
_symmetry_equiv_pos_site_id
_symmetry_equiv_pos_as_xyz
1 x,y,z
2 1/2-x,-y,1/2+z
3 1/2+x,1/2-y,-z
4 -x,1/2+y,1/2-z
5 -x,-y,-z
6 1/2+x,y,1/2-z
7 1/2-x,1/2+y,z
8 x,1/2-y,1/2+z
_cell_length_a                   16.1603(3)
_cell_length_b                   14.9216(4)
_cell_length_c                   30.3050(6)
_cell_angle_alpha                90
_cell_angle_beta                 90
_cell_angle_gamma                90
_cell_volume                     7307.67
loop_
_atom_site_label
_atom_site_type_symbol
_atom_site_fract_x
_atom_site_fract_y
_atom_site_fract_z
Cu1 Cu 0.605200(17) 0.19621(2) 0.122829(9)
O1 O 0.59417(14) 0.04249(16) 0.11789(7)
N1 N 0.51924(13) 0.22553(17) 0.07609(7)
N2 N 0.19578(13) 0.28762(17) -0.07763(7)
N3 N 0.51440(13) 0.19131(16) 0.16930(7)
N4 N 0.19461(13) 0.19140(16) 0.32954(7)
C1 C 0.46587(17) 0.2937(3) 0.08023(10)
C2 C 0.40360(18) 0.3101(3) 0.04980(10)
C3 C 0.39452(15) 0.2528(2) 0.01391(9)
C4 C 0.45080(19) 0.1836(3) 0.00947(10)
C5 C 0.51229(18) 0.1724(3) 0.04066(9)
C6 C 0.20277(17) 0.2122(2) -0.05375(9)
C7 C 0.26730(18) 0.1982(3) -0.02453(9)
C8 C 0.32577(15) 0.2653(2) -0.01819(8)
C9 C 0.31790(17) 0.3439(3) -0.04240(10)
C10 C 0.25306(17) 0.3521(3) -0.07220(9)
C11 C 0.52204(16) 0.2340(3) 0.20789(9)
C12 C 0.46005(16) 0.2342(3) 0.23958(8)
C13 C 0.38582(16) 0.18967(19) 0.23148(9)
C14 C 0.37799(17) 0.1451(3) 0.19119(9)
C15 C 0.44315(16) 0.1474(3) 0.16133(9)
C16 C 0.20151(16) 0.1234(2) 0.30080(9)
C17 C 0.26164(16) 0.1208(2) 0.26814(9)
C18 C 0.31851(16) 0.19042(19) 0.26483(9)
C19 C 0.31112(17) 0.2612(3) 0.29457(9)
C20 C 0.24929(16) 0.2591(2) 0.32631(9)
C21 C 0.6116(3) -0.0282(3) 0.08771(13)
H1 H 0.4708 0.3323 0.1050
H2 H 0.3676 0.3598 0.0534
H3 H 0.4472 0.1439 -0.0150
H4 H 0.5511 0.1253 0.0368
H5 H 0.1620 0.1669 -0.0570
H6 H 0.2716 0.1432 -0.0089
H7 H 0.3564 0.3914 -0.0386
H8 H 0.2490 0.4051 -0.0894
H9 H 0.5719 0.2655 0.2139
H10 H 0.4682 0.2647 0.2668
H11 H 0.3286 0.1136 0.1843
H12 H 0.4372 0.1166 0.1341
H13 H 0.1636 0.0750 0.3029
H14 H 0.2640 0.0717 0.2482
H15 H 0.3482 0.3106 0.2931
H16 H 0.2454 0.3074 0.3466
H17 H 0.6710 -0.0291 0.0812
H18 H 0.5806 -0.0185 0.0603
H19 H 0.5952 -0.0855 0.1008
Cu1B Cu 0.105200(17) 0.30379(2) -0.122829(9)
Cu1E Cu 0.105200(17) 0.19621(2) 0.377171(9)
N2B N 0.69578(13) 0.21238(17) 0.07763(7)
N4E N 0.69461(13) 0.19140(16) 0.17046(7)
P1 P 0.60630(6) 0.47522(7) 0.14616(3)
F1 F 0.60451(12) 0.36812(15) 0.13949(8)
F2 F 0.6121(2) 0.5815(2) 0.14916(14)
F3 F 0.70315(15) 0.47450(19) 0.14064(11)
F4 F 0.50908(17) 0.4742(3) 0.15101(16)
F5 F 0.6188(3) 0.4612(4) 0.19676(9)
F6 F 0.5954(3) 0.4843(2) 0.09396(10)
P2 P 0.33404(8) -0.03977(10) 0.05990(4)
F7 F 0.2537(3) -0.0596(4) 0.08796(14)
F8 F 0.4151(3) -0.0227(3) 0.03112(14)
F9 F 0.3336(3) 0.0650(3) 0.07405(12)
F10 F 0.3310(3) -0.1392(3) 0.04312(18)
F11 F 0.3881(3) -0.0581(5) 0.10080(15)
F12 F 0.2783(3) -0.0124(3) 0.01979(13)
O2 O 0.2485(14) 0.4538(15) 0.1825(4)
C22 C 0.3261(10) 0.4276(11) 0.1909(5)
O3 O 0.4550(3) 0.4471(3) 0.31141(10)
C23 C 0.4899(7) 0.4716(6) 0.2716(3)
loop_
_geom_bond_atom_site_label_1
_geom_bond_atom_site_label_2
_geom_bond_site_symmetry_1
_geom_bond_site_symmetry_2
Cu1 O1 1_555 1_555
O1 C21 1_555 1_555
N1 Cu1 1_555 1_555
N2 C6 1_555 1_555
N3 Cu1 1_555 1_555
N4 C16 1_555 1_555
C1 N1 1_555 1_555
C2 C1 1_555 1_555
C3 C2 1_555 1_555
C4 C3 1_555 1_555
C5 N1 1_555 1_555
C6 C7 1_555 1_555
C7 C8 1_555 1_555
C8 C3 1_555 1_555
C9 C8 1_555 1_555
C10 N2 1_555 1_555
C11 N3 1_555 1_555
C12 C11 1_555 1_555
C13 C12 1_555 1_555
C14 C13 1_555 1_555
C15 N3 1_555 1_555
C16 C17 1_555 1_555
C17 C18 1_555 1_555
C18 C13 1_555 1_555
C19 C18 1_555 1_555
C20 N4 1_555 1_555
C21 H17 1_555 1_555
H1 C1 1_555 1_555
H2 C2 1_555 1_555
H3 C4 1_555 1_555
H4 C5 1_555 1_555
H5 C6 1_555 1_555
H6 C7 1_555 1_555
H7 C9 1_555 1_555
H8 C10 1_555 1_555
H9 C11 1_555 1_555
H10 C12 1_555 1_555
H11 C14 1_555 1_555
H12 C15 1_555 1_555
H13 C16 1_555 1_555
H14 C17 1_555 1_555
H15 C19 1_555 1_555
H16 C20 1_555 1_555
H18 C21 1_555 1_555
H19 C21 1_555 1_555
P1 F1 1_555 1_555
F2 P1 1_555 1_555
F3 P1 1_555 1_555
F4 P1 1_555 1_555
F5 P1 1_555 1_555
F6 P1 1_555 1_555
P2 F7 1_555 1_555
F8 P2 1_555 1_555
F9 P2 1_555 1_555
F10 P2 1_555 1_555
F11 P2 1_555 1_555
F12 P2 1_555 1_555
O2 C22 1_555 1_555
O3 C23 1_555 1_555
Cu1B N2 1_555 1_555
Cu1E N4 1_555 1_555
N2B Cu1 1_555 1_555
N4E Cu1 1_555 1_555
C4 C5 1_555 1_555
C9 C10 1_555 1_555
C14 C15 1_555 1_555
C19 C20 1_555 1_555

#END
