
#######################################################################
#
#                 Cambridge Crystallographic Data Centre
#                                CCDC 
#
#######################################################################
#
# If this CIF has been generated from an entry in the Cambridge 
# Structural Database, then it will include bibliographic, chemical, 
# crystal, experimental, refinement or atomic coordinate data resulting 
# from the CCDC's data processing and validation procedures.
#
#######################################################################

data_TEZJOY
_symmetry_cell_setting           triclinic
_symmetry_space_group_name_H-M   'P -1'
_symmetry_Int_Tables_number      2
_space_group_name_Hall           '-P 1'
loop_
_symmetry_equiv_pos_site_id
_symmetry_equiv_pos_as_xyz
1 x,y,z
2 -x,-y,-z
_cell_length_a                   7.6770(6)
_cell_length_b                   7.7251(7)
_cell_length_c                   8.0443(7)
_cell_angle_alpha                79.908(2)
_cell_angle_beta                 88.668(2)
_cell_angle_gamma                69.0900(10)
_cell_volume                     438.357
loop_
_atom_site_label
_atom_site_type_symbol
_atom_site_fract_x
_atom_site_fract_y
_atom_site_fract_z
Cu1 Cu 0.5000 0.0000 1.0000
P1 P 0.20531(5) 0.40058(5) 0.81146(5)
O1 O -0.01022(16) 0.44590(17) 0.78076(15)
H1 H -0.0648 0.4630 0.8715
O2 O 0.23389(16) 0.49050(16) 0.95727(15)
H2 H 0.1476 0.4968 1.0248
O3 O 0.30878(15) 0.18908(15) 0.83390(14)
O4 O 0.42504(19) -0.25468(18) 0.89219(16)
N1 N 0.31245(18) 0.02557(19) 1.17597(17)
C1 C 0.1697(2) -0.0292(2) 1.1530(2)
H3 H 0.1545 -0.0625 1.0475
C2 C 0.0431(2) -0.0397(2) 1.2758(2)
H4 H -0.0570 -0.0789 1.2545
C3 C 0.0642(2) 0.0080(2) 1.43121(18)
C4 C 0.2108(2) 0.0699(2) 1.4531(2)
H5 H 0.2277 0.1072 1.5561
C5 C 0.3313(2) 0.0763(2) 1.3235(2)
H6 H 0.4309 0.1182 1.3398
C6 C 0.2689(2) 0.5094(2) 0.6136(2)
H7 H 0.2070 0.4819 0.5202
H8 H 0.2190 0.6476 0.6078
C7 C 0.4792(2) 0.4473(2) 0.5838(2)
H9 H 0.5433 0.4708 0.6782
H10 H 0.5296 0.3103 0.5830
H11 H 0.358(4) -0.310(4) 0.910(3)
H12 H 0.516(4) -0.331(4) 0.931(4)
Cu1_2 Cu 0.5000 1.0000 0.0000
Cu1_3 Cu -0.5000 0.0000 2.0000
P1A P 0.79469(5) 0.59942(5) 0.18854(5)
O1A O 1.01022(16) 0.55410(17) 0.21924(15)
H1A H 1.0648 0.5370 0.1285
O2A O 0.76611(16) 0.50950(16) 0.04273(15)
H2A H 0.8524 0.5032 -0.0248
O3A O 0.69122(15) 0.81092(15) 0.16610(14)
O3A_2 O 0.69122(15) -0.18908(15) 1.16610(14)
O4A O 0.57496(19) 0.25468(18) 1.10781(16)
N1A N -0.31245(18) -0.02557(19) 1.82403(17)
N1A_2 N 0.68755(18) -0.02557(19) 0.82403(17)
C1A C -0.1697(2) 0.0292(2) 1.8470(2)
H3A H -0.1545 0.0625 1.9525
C2A C -0.0431(2) 0.0397(2) 1.7242(2)
H4A H 0.0570 0.0789 1.7455
C3A C -0.0642(2) -0.0080(2) 1.56879(18)
C4A C -0.2108(2) -0.0699(2) 1.5469(2)
H5A H -0.2277 -0.1072 1.4439
C5A C -0.3313(2) -0.0763(2) 1.6765(2)
H6A H -0.4309 -0.1182 1.6602
C6A C 0.7311(2) 0.4906(2) 0.3864(2)
H7A H 0.7930 0.5181 0.4798
H8A H 0.7810 0.3524 0.3922
C7A C 0.5208(2) 0.5527(2) 0.4162(2)
H9A H 0.4567 0.5292 0.3218
H10A H 0.4704 0.6897 0.4170
H11A H 0.642(4) 0.310(4) 1.090(3)
H12A H 0.484(4) 0.331(4) 1.069(4)
loop_
_geom_bond_atom_site_label_1
_geom_bond_atom_site_label_2
_geom_bond_site_symmetry_1
_geom_bond_site_symmetry_2
Cu1 O3 1_555 1_555
P1 O1 1_555 1_555
O1 H1 1_555 1_555
O2 P1 1_555 1_555
H2 O2 1_555 1_555
O3 P1 1_555 1_555
O4 Cu1 1_555 1_555
N1 Cu1 1_555 1_555
C1 N1 1_555 1_555
H3 C1 1_555 1_555
C2 C1 1_555 1_555
H4 C2 1_555 1_555
C3 C2 1_555 1_555
C4 C3 1_555 1_555
H5 C4 1_555 1_555
C5 N1 1_555 1_555
H6 C5 1_555 1_555
C6 P1 1_555 1_555
H7 C6 1_555 1_555
H8 C6 1_555 1_555
C7 C6 1_555 1_555
H9 C7 1_555 1_555
H10 C7 1_555 1_555
H11 O4 1_555 1_555
H12 O4 1_555 1_555
Cu1_2 O3A 1_555 1_555
Cu1_3 N1A 1_555 1_555
P1A O1A 1_555 1_555
O1A H1A 1_555 1_555
O2A P1A 1_555 1_555
H2A O2A 1_555 1_555
O3A P1A 1_555 1_555
O3A_2 Cu1 1_555 1_555
O4A Cu1 1_555 1_555
N1A C1A 1_555 1_555
N1A_2 Cu1 1_555 1_555
C1A H3A 1_555 1_555
C2A C1A 1_555 1_555
H4A C2A 1_555 1_555
C3A C3 1_555 1_555
C4A C3A 1_555 1_555
H5A C4A 1_555 1_555
C5A N1A 1_555 1_555
H6A C5A 1_555 1_555
C6A P1A 1_555 1_555
H7A C6A 1_555 1_555
H8A C6A 1_555 1_555
C7A C7 1_555 1_555
H9A C7A 1_555 1_555
H10A C7A 1_555 1_555
H11A O4A 1_555 1_555
H12A O4A 1_555 1_555
C4 C5 1_555 1_555
C2A C3A 1_555 1_555
C4A C5A 1_555 1_555
C6A C7A 1_555 1_555

#END
