
#######################################################################
#
#                 Cambridge Crystallographic Data Centre
#                                CCDC 
#
#######################################################################
#
# If this CIF has been generated from an entry in the Cambridge 
# Structural Database, then it will include bibliographic, chemical, 
# crystal, experimental, refinement or atomic coordinate data resulting 
# from the CCDC's data processing and validation procedures.
#
#######################################################################

data_TEZJUE
_symmetry_cell_setting           monoclinic
_symmetry_space_group_name_H-M   'C 2/c'
_symmetry_Int_Tables_number      15
_space_group_name_Hall           '-C 2yn'
loop_
_symmetry_equiv_pos_site_id
_symmetry_equiv_pos_as_xyz
1 x,y,z
2 1/2+x,1/2+y,z
3 -x,y,1/2-z
4 1/2-x,1/2+y,1/2-z
5 -x,-y,-z
6 1/2-x,1/2-y,-z
7 x,-y,1/2+z
8 1/2+x,1/2-y,1/2+z
_cell_length_a                   18.208(4)
_cell_length_b                   16.376(3)
_cell_length_c                   10.585(2)
_cell_angle_alpha                90
_cell_angle_beta                 100.72(3)
_cell_angle_gamma                90
_cell_volume                     3101.09
loop_
_atom_site_label
_atom_site_type_symbol
_atom_site_fract_x
_atom_site_fract_y
_atom_site_fract_z
Cu1 Cu 0.97172(3) 0.94114(3) 0.88522(5)
P1 P 0.91062(6) 1.06878(7) 0.67248(10)
O1 O 0.90454(15) 1.01827(17) 0.7877(3)
O2 O 0.94919(15) 1.02238(16) 0.5786(3)
O3 O 0.83379(17) 1.0986(2) 0.6060(3)
N1 N 1.0398(2) 0.8493(2) 0.9362(3)
N2 N 0.8987(2) 0.8518(2) 0.8496(3)
C1 C 1.1128(3) 0.8553(3) 0.9830(4)
H1 H 1.1345 0.9069 0.9950
C2 C 1.1571(3) 0.7874(3) 1.0141(5)
H2 H 1.2079 0.7928 1.0467
C3 C 1.1249(4) 0.7121(3) 0.9961(6)
H3 H 1.1540 0.6655 1.0153
C4 C 1.0495(4) 0.7051(3) 0.9496(5)
H4 H 1.0273 0.6539 0.9373
C5 C 1.0075(3) 0.7747(3) 0.9214(4)
C6 C 0.9266(3) 0.7768(3) 0.8748(4)
C7 C 0.8800(4) 0.7093(3) 0.8617(5)
H5 H 0.8997 0.6571 0.8780
C8 C 0.8057(4) 0.7203(4) 0.8248(5)
H6 H 0.7738 0.6754 0.8160
C9 C 0.7771(3) 0.7968(4) 0.8006(5)
H7 H 0.7258 0.8046 0.7762
C10 C 0.8250(3) 0.8621(3) 0.8126(4)
H8 H 0.8060 0.9144 0.7946
C11 C 0.9631(2) 1.1608(2) 0.7189(4)
C12 C 0.9263(3) 1.2348(3) 0.6894(5)
H9 H 0.8764 1.2352 0.6487
C13 C 0.9636(3) 1.3081(3) 0.7203(5)
H10 H 0.9387 1.3573 0.7004
Cu1B Cu 1.02828(3) 0.94114(3) 0.61478(5)
Cu1D Cu 1.02828(3) 1.05886(3) 1.11478(5)
Cu1F Cu 0.97172(3) 1.05886(3) 0.38522(5)
P1B P 1.08938(6) 1.06878(7) 0.82752(10)
O1B O 1.09546(15) 1.01827(17) 0.7123(3)
O2B O 1.05081(15) 1.02238(16) 0.9214(3)
O2F O 0.94919(15) 0.97762(16) 1.0786(3)
O2D O 1.05081(15) 0.97762(16) 0.4214(3)
O3B O 1.16621(17) 1.0986(2) 0.8940(3)
N1B N 0.9602(2) 0.8493(2) 0.5638(3)
N2B N 1.1013(2) 0.8518(2) 0.6504(3)
C1B C 0.8872(3) 0.8553(3) 0.5170(4)
H1B H 0.8655 0.9069 0.5050
C2B C 0.8429(3) 0.7874(3) 0.4859(5)
H2B H 0.7921 0.7928 0.4533
C3B C 0.8751(4) 0.7121(3) 0.5039(6)
H3B H 0.8460 0.6655 0.4847
C4B C 0.9505(4) 0.7051(3) 0.5504(5)
H4B H 0.9727 0.6539 0.5627
C5B C 0.9925(3) 0.7747(3) 0.5786(4)
C6B C 1.0734(3) 0.7768(3) 0.6252(4)
C7B C 1.1200(4) 0.7093(3) 0.6383(5)
H5B H 1.1003 0.6571 0.6220
C8B C 1.1943(4) 0.7203(4) 0.6752(5)
H6B H 1.2262 0.6754 0.6840
C9B C 1.2229(3) 0.7968(4) 0.6994(5)
H7B H 1.2742 0.8046 0.7238
C10B C 1.1750(3) 0.8621(3) 0.6874(4)
H8B H 1.1940 0.9144 0.7054
C11B C 1.0369(2) 1.1608(2) 0.7811(4)
C12B C 1.0737(3) 1.2348(3) 0.8106(5)
H9B H 1.1236 1.2352 0.8513
C13B C 1.0364(3) 1.3081(3) 0.7797(5)
H10B H 1.0613 1.3573 0.7996
O4 O -0.0994(11) 0.5003(4) -0.0712(9)
O5 O 0.7650(3) 0.5128(3) 0.4941(6)
O6 O 0.8407(3) 0.4858(4) 0.7513(8)
O7? O 0.0270(7) 0.4805(5) 0.2084(15)
O8? O -0.0129(10) 0.5033(8) 0.0463(16)
loop_
_geom_bond_atom_site_label_1
_geom_bond_atom_site_label_2
_geom_bond_site_symmetry_1
_geom_bond_site_symmetry_2
Cu1 O1 1_555 1_555
P1 O1 1_555 1_555
O2 P1 1_555 1_555
O3 P1 1_555 1_555
N1 Cu1 1_555 1_555
N2 Cu1 1_555 1_555
C1 N1 1_555 1_555
H1 C1 1_555 1_555
C2 C1 1_555 1_555
H2 C2 1_555 1_555
C3 C2 1_555 1_555
H3 C3 1_555 1_555
C4 C3 1_555 1_555
H4 C4 1_555 1_555
C5 N1 1_555 1_555
C6 N2 1_555 1_555
C7 C6 1_555 1_555
H5 C7 1_555 1_555
C8 C7 1_555 1_555
H6 C8 1_555 1_555
C9 C8 1_555 1_555
H7 C9 1_555 1_555
C10 N2 1_555 1_555
H8 C10 1_555 1_555
C11 P1 1_555 1_555
C12 C11 1_555 1_555
H9 C12 1_555 1_555
C13 C12 1_555 1_555
H10 C13 1_555 1_555
Cu1B O2 1_555 1_555
Cu1D O2B 1_555 1_555
Cu1F O2 1_555 1_555
P1B O1B 1_555 1_555
O1B Cu1B 1_555 1_555
O2B Cu1 1_555 1_555
O2F Cu1 1_555 1_555
O2D Cu1B 1_555 1_555
O3B P1B 1_555 1_555
N1B Cu1B 1_555 1_555
N2B Cu1B 1_555 1_555
C1B N1B 1_555 1_555
H1B C1B 1_555 1_555
C2B C1B 1_555 1_555
H2B C2B 1_555 1_555
C3B C2B 1_555 1_555
H3B C3B 1_555 1_555
C4B C3B 1_555 1_555
H4B C4B 1_555 1_555
C5B N1B 1_555 1_555
C6B N2B 1_555 1_555
C7B C6B 1_555 1_555
H5B C7B 1_555 1_555
C8B C7B 1_555 1_555
H6B C8B 1_555 1_555
C9B C8B 1_555 1_555
H7B C9B 1_555 1_555
C10B N2B 1_555 1_555
H8B C10B 1_555 1_555
C11B C11 1_555 1_555
C12B C11B 1_555 1_555
H9B C12B 1_555 1_555
C13B C13 1_555 1_555
H10B C13B 1_555 1_555
C4 C5 1_555 1_555
C5 C6 1_555 1_555
C9 C10 1_555 1_555
Cu1D O2F 1_555 1_555
Cu1F O2D 1_555 1_555
P1B O2B 1_555 1_555
P1B C11B 1_555 1_555
C4B C5B 1_555 1_555
C5B C6B 1_555 1_555
C9B C10B 1_555 1_555
C12B C13B 1_555 1_555

#END
