
#######################################################################
#
#                 Cambridge Crystallographic Data Centre
#                                CCDC 
#
#######################################################################
#
# If this CIF has been generated from an entry in the Cambridge 
# Structural Database, then it will include bibliographic, chemical, 
# crystal, experimental, refinement or atomic coordinate data resulting 
# from the CCDC's data processing and validation procedures.
#
#######################################################################

data_TEZKAM
_symmetry_cell_setting           monoclinic
_symmetry_space_group_name_H-M   'P 21/n'
_symmetry_Int_Tables_number      14
_space_group_name_Hall           '-P 2yn'
loop_
_symmetry_equiv_pos_site_id
_symmetry_equiv_pos_as_xyz
1 x,y,z
2 1/2-x,1/2+y,1/2-z
3 -x,-y,-z
4 1/2+x,1/2-y,1/2+z
_cell_length_a                   14.586(2)
_cell_length_b                   18.068(3)
_cell_length_c                   24.846(3)
_cell_angle_alpha                90
_cell_angle_beta                 90.000(5)
_cell_angle_gamma                90
_cell_volume                     6547.91
loop_
_atom_site_label
_atom_site_type_symbol
_atom_site_fract_x
_atom_site_fract_y
_atom_site_fract_z
Zn1 Zn 0.46049(4) 0.93962(3) 0.14407(3)
Zn2 Zn 0.49629(4) 0.74682(3) 0.14498(2)
O1 O 0.3304(3) 0.9146(2) 0.1511(2)
O2 O 0.3824(3) 0.8083(3) 0.12049(18)
O3 O -0.3361(3) 0.5783(2) 0.1424(2)
O4 O -0.3856(3) 0.6889(2) 0.16666(19)
O5 O 0.5261(3) 0.9251(2) 0.07734(16)
O6 O 0.5841(3) 0.8160(2) 0.10216(17)
O7 O 0.9796(3) 0.9297(2) -0.28721(17)
O8 O 0.9116(3) 0.8248(2) -0.31220(17)
O9 O 0.5320(4) 0.9220(2) 0.20932(16)
O10 O 0.5056(3) 0.8018(2) 0.21767(17)
O11 O 0.9582(3) 0.9318(2) 0.58083(16)
O12 O 0.9832(3) 0.8110(2) 0.57465(16)
N1 N 0.4670(3) 1.05309(19) 0.1436(2)
N2 N 0.5262(3) 1.4392(2) 0.1432(2)
C1 C 0.5153(4) 1.0877(3) 0.1054(2)
H1 H 0.5418 1.0590 0.0774
C2 C 0.5284(5) 1.1640(3) 0.1049(3)
H2 H 0.5622 1.1873 0.0769
C3 C 0.4907(4) 1.2047(2) 0.1463(3)
C4 C 0.4405(5) 1.1696(3) 0.1861(3)
C5 C 0.3931(8) 1.2089(5) 0.2316(4)
H3 H 0.3486 1.2443 0.2169
H4 H 0.4385 1.2354 0.2533
H5 H 0.3611 1.1727 0.2541
C6 C 0.4321(5) 1.0936(3) 0.1827(3)
H6 H 0.3991 1.0689 0.2103
C7 C 0.4793(4) 1.4045(3) 0.1039(3)
H7 H 0.4547 1.4325 0.0750
C8 C 0.4665(5) 1.3289(3) 0.1051(3)
H8 H 0.4314 1.3054 0.0779
C9 C 0.5057(4) 1.2866(3) 0.1469(3)
C10 C 0.5605(5) 1.3230(3) 0.1847(3)
C11 C 0.6184(7) 1.2838(4) 0.2255(4)
H9 H 0.6087 1.2303 0.2225
H10 H 0.6014 1.3004 0.2617
H11 H 0.6832 1.2951 0.2189
C12 C 0.5666(5) 1.3993(3) 0.1815(3)
H12 H 0.6014 1.4246 0.2081
C13 C 0.3192(4) 0.8483(3) 0.1382(3)
C14 C 0.2241(4) 0.8189(3) 0.1405(4)
C15 C 0.1513(5) 0.8626(3) 0.1593(3)
H13 H 0.1629 0.9110 0.1725
C16 C 0.0602(4) 0.8346(3) 0.1584(3)
H14 H 0.0109 0.8638 0.1717
C17 C 0.0437(4) 0.7635(3) 0.1378(4)
C18 C 0.1179(5) 0.7198(4) 0.1203(4)
H15 H 0.1073 0.6712 0.1072
C19 C 0.2060(5) 0.7475(4) 0.1222(4)
H16 H 0.2554 0.7171 0.1107
C20 C -0.0516(4) 0.7338(3) 0.1397(4)
C21 C -0.0664(4) 0.6580(3) 0.1460(4)
H17 H -0.0155 0.6253 0.1479
C22 C -0.1536(4) 0.6302(3) 0.1496(4)
H18 H -0.1627 0.5787 0.1550
C23 C -0.2276(4) 0.6763(3) 0.1454(3)
C24 C -0.2149(4) 0.7511(3) 0.1403(4)
H19 H -0.2661 0.7836 0.1396
C25 C -0.1255(4) 0.7792(3) 0.1362(4)
H20 H -0.1165 0.8308 0.1309
C26 C -0.3237(4) 0.6461(3) 0.1511(3)
C27 C 0.5753(5) 0.8665(3) 0.0698(3)
C28 C 0.6341(5) 0.8668(3) 0.0211(3)
C29 C 0.6487(5) 0.9317(3) -0.0084(2)
H21 H 0.6209 0.9767 0.0028
C30 C 0.7033(5) 0.9310(3) -0.0537(2)
H22 H 0.7144 0.9759 -0.0725
C31 C 0.7421(5) 0.8657(3) -0.0724(3)
C32 C 0.7254(6) 0.7992(4) -0.0445(3)
H23 H 0.7507 0.7539 -0.0570
C33 C 0.6708(6) 0.8009(4) 0.0023(3)
H24 H 0.6589 0.7562 0.0212
C34 C 0.7967(6) 0.8651(3) -0.1231(3)
C35 C 0.8426(6) 0.9282(3) -0.1407(3)
H25 H 0.8404 0.9716 -0.1191
C36 C 0.8910(5) 0.9301(3) -0.1883(2)
H26 H 0.9246 0.9730 -0.1982
C37 C 0.8897(5) 0.8686(3) -0.2212(3)
C38 C 0.8433(6) 0.8056(4) -0.2060(3)
H27 H 0.8406 0.7641 -0.2294
C39 C 0.8012(7) 0.8034(4) -0.1569(3)
H28 H 0.7741 0.7583 -0.1453
C40 C 0.9332(5) 0.8718(3) -0.2771(3)
C41 C 0.5438(5) 0.8618(3) 0.2314(2)
C42 C 0.6009(5) 0.8623(3) 0.2799(3)
C43 C 0.6502(6) 0.9216(4) 0.2941(3)
H29 H 0.6478 0.9650 0.2726
C44 C 0.7059(7) 0.9206(4) 0.3408(3)
H30 H 0.7437 0.9621 0.3486
C45 C 0.7063(5) 0.8617(3) 0.3745(3)
C46 C 0.6535(5) 0.8004(3) 0.3628(3)
H31 H 0.6528 0.7591 0.3865
C47 C 0.6004(5) 0.7996(3) 0.3151(3)
H32 H 0.5643 0.7575 0.3065
C48 C 0.7636(5) 0.8637(3) 0.4239(3)
C49 C 0.7927(4) 0.9311(3) 0.4443(2)
H33 H 0.7742 0.9760 0.4276
C50 C 0.8494(5) 0.9324(3) 0.4896(2)
H34 H 0.8702 0.9787 0.5031
C51 C 0.8756(5) 0.8689(3) 0.5150(2)
C52 C 0.8482(6) 0.8010(4) 0.4937(3)
H35 H 0.8683 0.7563 0.5100
C53 C 0.7921(5) 0.7985(3) 0.4490(3)
H36 H 0.7728 0.7520 0.4351
C54 C 0.9392(5) 0.8706(3) 0.5624(2)
Zn3 Zn -0.46584(4) 0.55273(3) 0.14361(3)
Zn2_2 Zn -0.50371(4) 0.74682(3) 0.14498(2)
Zn2C Zn 0.99629(4) 0.75318(3) -0.35502(2)
Zn2C_2 Zn 0.99629(4) 0.75318(3) 0.64498(2)
O4_2 O 0.6144(3) 0.6889(2) 0.16666(19)
O7C O -0.5204(3) 0.5703(2) 0.21279(17)
O8C O 0.4116(3) 0.6752(2) 0.18780(17)
O11C O -0.5418(3) 0.5682(2) 0.08083(16)
O12C O 0.4832(3) 0.6890(2) 0.07465(16)
N2_2 N -0.4738(3) 0.4392(2) 0.1432(2)
Zn3_2 Zn 0.53416(4) 1.55273(3) 0.14361(3)
Zn3C Zn 1.03416(4) 0.94727(3) -0.35639(3)
Zn3C_2 Zn 1.03416(4) 0.94727(3) 0.64361(3)
O13 O 0.4011(3) 0.5417(3) 0.6877(2)
C55 C 0.3585(3) 0.4850(3) 0.6986(2)
H37 H 0.3846 0.4521 0.7242
N3 N 0.2790(3) 0.4670(2) 0.67726(18)
C56 C 0.2353(4) 0.5147(4) 0.6380(3)
H38 H 0.1772 0.4925 0.6265
H39 H 0.2756 0.5206 0.6068
H40 H 0.2234 0.5632 0.6542
C57 C 0.2316(5) 0.4001(3) 0.6914(3)
H41 H 0.1741 0.3970 0.6711
H42 H 0.2183 0.4002 0.7300
H43 H 0.2702 0.3573 0.6826
O14 O 0.7397(11) 0.6190(8) 0.4608(7)
C58 C 0.6730(13) 0.6269(7) 0.4905(5)
H44 H 0.6840 0.6370 0.5275
N4 N 0.5873(12) 0.6221(6) 0.4743(6)
C59 C 0.5655(12) 0.6068(14) 0.4188(7)
H45 H 0.4988 0.6049 0.4143
H46 H 0.5922 0.5591 0.4084
H47 H 0.5907 0.6460 0.3959
C60 C 0.5118(15) 0.6317(14) 0.5109(9)
H48 H 0.4539 0.6277 0.4911
H49 H 0.5158 0.6807 0.5278
H50 H 0.5142 0.5934 0.5388
O15 O 0.4360(9) 1.0348(6) 0.4179(5)
C61 C 0.4022(9) 0.9980(6) 0.4546(5)
H51 H 0.3605 1.0220 0.4782
N5 N 0.4203(10) 0.9273(6) 0.4631(5)
C62 C 0.4828(18) 0.8875(8) 0.4289(10)
H52 H 0.4876 0.8362 0.4413
H53 H 0.5434 0.9110 0.4304
H54 H 0.4601 0.8884 0.3918
C63 C 0.3788(17) 0.8868(10) 0.5066(8)
H55 H 0.4009 0.8356 0.5063
H56 H 0.3120 0.8872 0.5023
H57 H 0.3950 0.9101 0.5410
O16 O 0.2555(7) 0.8723(4) 0.3943(3)
C64 C 0.2408(5) 0.9357(4) 0.3769(3)
H58 H 0.1993 0.9657 0.3966
N6 N 0.2784(5) 0.9652(3) 0.3329(3)
C65 C 0.3415(10) 0.9225(6) 0.3015(4)
H59 H 0.3619 0.9517 0.2705
H60 H 0.3112 0.8773 0.2889
H61 H 0.3946 0.9093 0.3237
C66 C 0.2734(10) 1.0433(4) 0.3247(5)
H62 H 0.3035 1.0560 0.2907
H63 H 0.3044 1.0687 0.3544
H64 H 0.2091 1.0587 0.3234
O17 O 0.8663(11) 0.6143(9) 0.4977(7)
H65 H 0.8372 0.6631 0.5075
H66 H 0.9513 0.6163 0.5115
O18? O 0.3346(19) 0.9278(17) 0.5280(11)
C67? C 0.3767(16) 0.9590(12) 0.4916(10)
H67? H 0.3605 1.0086 0.4832
N7? N 0.4430(13) 0.9278(9) 0.4633(7)
C68? C 0.471(2) 0.8529(11) 0.4737(13)
H68? H 0.5131 0.8365 0.4453
H69? H 0.4170 0.8206 0.4742
H70? H 0.5020 0.8504 0.5086
C69? C 0.490(2) 0.9672(14) 0.4210(10)
H71? H 0.5296 0.9331 0.4014
H72? H 0.5265 1.0071 0.4367
H73? H 0.4444 0.9884 0.3962
loop_
_geom_bond_atom_site_label_1
_geom_bond_atom_site_label_2
_geom_bond_site_symmetry_1
_geom_bond_site_symmetry_2
Zn1 O1 1_555 1_555
Zn2 O2 1_555 1_555
O1 C13 1_555 1_555
O2 C13 1_555 1_555
O3 C26 1_555 1_555
O4 C26 1_555 1_555
O5 Zn1 1_555 1_555
O6 Zn2 1_555 1_555
O7 C40 1_555 1_555
O8 C40 1_555 1_555
O9 Zn1 1_555 1_555
O10 Zn2 1_555 1_555
O11 C54 1_555 1_555
O12 C54 1_555 1_555
N1 Zn1 1_555 1_555
N2 C7 1_555 1_555
C1 N1 1_555 1_555
H1 C1 1_555 1_555
C2 C1 1_555 1_555
H2 C2 1_555 1_555
C3 C2 1_555 1_555
C4 C3 1_555 1_555
C5 C4 1_555 1_555
H3 C5 1_555 1_555
H4 C5 1_555 1_555
H5 C5 1_555 1_555
C6 N1 1_555 1_555
H6 C6 1_555 1_555
C7 H7 1_555 1_555
C8 C7 1_555 1_555
H8 C8 1_555 1_555
C9 C3 1_555 1_555
C10 C9 1_555 1_555
C11 C10 1_555 1_555
H9 C11 1_555 1_555
H10 C11 1_555 1_555
H11 C11 1_555 1_555
C12 N2 1_555 1_555
H12 C12 1_555 1_555
C13 C14 1_555 1_555
C14 C15 1_555 1_555
C15 H13 1_555 1_555
C16 C15 1_555 1_555
H14 C16 1_555 1_555
C17 C16 1_555 1_555
C18 C17 1_555 1_555
H15 C18 1_555 1_555
C19 C14 1_555 1_555
H16 C19 1_555 1_555
C20 C17 1_555 1_555
C21 C20 1_555 1_555
H17 C21 1_555 1_555
C22 C21 1_555 1_555
H18 C22 1_555 1_555
C23 C22 1_555 1_555
C24 C23 1_555 1_555
H19 C24 1_555 1_555
C25 C20 1_555 1_555
H20 C25 1_555 1_555
C26 C23 1_555 1_555
C27 O5 1_555 1_555
C28 C27 1_555 1_555
C29 C28 1_555 1_555
H21 C29 1_555 1_555
C30 C29 1_555 1_555
H22 C30 1_555 1_555
C31 C30 1_555 1_555
C32 C31 1_555 1_555
H23 C32 1_555 1_555
C33 C28 1_555 1_555
H24 C33 1_555 1_555
C34 C31 1_555 1_555
C35 C34 1_555 1_555
H25 C35 1_555 1_555
C36 C35 1_555 1_555
H26 C36 1_555 1_555
C37 C36 1_555 1_555
C38 C37 1_555 1_555
H27 C38 1_555 1_555
C39 C34 1_555 1_555
H28 C39 1_555 1_555
C40 C37 1_555 1_555
C41 O9 1_555 1_555
C42 C41 1_555 1_555
C43 C42 1_555 1_555
H29 C43 1_555 1_555
C44 C43 1_555 1_555
H30 C44 1_555 1_555
C45 C44 1_555 1_555
C46 C45 1_555 1_555
H31 C46 1_555 1_555
C47 C42 1_555 1_555
H32 C47 1_555 1_555
C48 C45 1_555 1_555
C49 C48 1_555 1_555
H33 C49 1_555 1_555
C50 C49 1_555 1_555
H34 C50 1_555 1_555
C51 C50 1_555 1_555
C52 C51 1_555 1_555
H35 C52 1_555 1_555
C53 C48 1_555 1_555
H36 C53 1_555 1_555
C54 C51 1_555 1_555
Zn3 O3 1_555 1_555
O13 C55 1_555 1_555
C55 H37 1_555 1_555
N3 C55 1_555 1_555
C56 N3 1_555 1_555
H38 C56 1_555 1_555
H39 C56 1_555 1_555
H40 C56 1_555 1_555
C57 N3 1_555 1_555
H41 C57 1_555 1_555
H42 C57 1_555 1_555
H43 C57 1_555 1_555
O14 C58 1_555 1_555
C58 H44 1_555 1_555
N4 C58 1_555 1_555
C59 N4 1_555 1_555
H45 C59 1_555 1_555
H46 C59 1_555 1_555
H47 C59 1_555 1_555
C60 N4 1_555 1_555
H48 C60 1_555 1_555
H49 C60 1_555 1_555
H50 C60 1_555 1_555
O15 C61 1_555 1_555
C61 H51 1_555 1_555
N5 C61 1_555 1_555
C62 N5 1_555 1_555
H52 C62 1_555 1_555
H53 C62 1_555 1_555
H54 C62 1_555 1_555
C63 N5 1_555 1_555
H55 C63 1_555 1_555
H56 C63 1_555 1_555
H57 C63 1_555 1_555
O16 C64 1_555 1_555
C64 H58 1_555 1_555
N6 C64 1_555 1_555
C65 N6 1_555 1_555
H59 C65 1_555 1_555
H60 C65 1_555 1_555
H61 C65 1_555 1_555
C66 N6 1_555 1_555
H62 C66 1_555 1_555
H63 C66 1_555 1_555
H64 C66 1_555 1_555
O17 H65 1_555 1_555
H66 O17 1_555 1_555
Zn2_2 O4 1_555 1_555
Zn2C O8 1_555 1_555
Zn2C_2 O12 1_555 1_555
O4_2 Zn2 1_555 1_555
O7C Zn3 1_555 1_555
O8C Zn2 1_555 1_555
O11C Zn3 1_555 1_555
O12C Zn2 1_555 1_555
N2_2 Zn3 1_555 1_555
Zn3_2 N2 1_555 1_555
Zn3C O7 1_555 1_555
Zn3C_2 O11 1_555 1_555
O6 C27 1_555 1_555
O10 C41 1_555 1_555
C4 C6 1_555 1_555
C8 C9 1_555 1_555
C10 C12 1_555 1_555
C18 C19 1_555 1_555
C24 C25 1_555 1_555
C32 C33 1_555 1_555
C38 C39 1_555 1_555
C46 C47 1_555 1_555
C52 C53 1_555 1_555

#END
