
#######################################################################
#
#                 Cambridge Crystallographic Data Centre
#                                CCDC 
#
#######################################################################
#
# If this CIF has been generated from an entry in the Cambridge 
# Structural Database, then it will include bibliographic, chemical, 
# crystal, experimental, refinement or atomic coordinate data resulting 
# from the CCDC's data processing and validation procedures.
#
#######################################################################

data_TEZKIT
_symmetry_cell_setting           monoclinic
_symmetry_space_group_name_H-M   'C 2/c'
_symmetry_Int_Tables_number      15
_space_group_name_Hall           '-C 2yn'
loop_
_symmetry_equiv_pos_site_id
_symmetry_equiv_pos_as_xyz
1 x,y,z
2 1/2+x,1/2+y,z
3 -x,y,1/2-z
4 1/2-x,1/2+y,1/2-z
5 -x,-y,-z
6 1/2-x,1/2-y,-z
7 x,-y,1/2+z
8 1/2+x,1/2-y,1/2+z
_cell_length_a                   18.409(4)
_cell_length_b                   25.757(6)
_cell_length_c                   29.688(6)
_cell_angle_alpha                90
_cell_angle_beta                 96.427(4)
_cell_angle_gamma                90
_cell_volume                     13988.4
loop_
_atom_site_label
_atom_site_type_symbol
_atom_site_fract_x
_atom_site_fract_y
_atom_site_fract_z
Zn1 Zn 0.56790(3) 0.20445(2) 0.120301(18)
Zn2 Zn 0.24268(3) -0.00867(2) 0.05666(2)
O1 O 0.46395(18) 0.20243(12) 0.10217(12)
O2 O 0.3480(3) 0.2091(2) 0.1149(2)
O3 O 0.4363(2) 0.18454(16) 0.17099(17)
Cl1 Cl 0.2071(2) -0.05407(11) 0.11658(12)
N1 N 0.6565(2) 0.17802(14) 0.08957(13)
N2 N 0.6247(2) 0.23255(15) 0.17802(12)
N3 N 0.5770(2) 0.12228(14) 0.15077(12)
N4 N 0.7130(2) 0.15845(15) 0.11865(13)
N5 N 0.6914(2) 0.21026(15) 0.18799(13)
N6 N 0.64257(19) 0.11938(14) 0.17804(12)
N7 N 0.5587(4) 0.2319(2) -0.07410(17)
N8 N 0.4520(5) 0.3886(3) 0.1810(2)
N9 N 0.3314(2) 0.03255(15) 0.09645(14)
N10 N 0.8011(2) 0.47441(15) 0.00363(15)
N11 N 0.69011(19) 0.55652(15) 0.03182(12)
N12 N 0.64864(18) 0.44167(14) 0.00213(12)
N13 N 0.7687(2) 0.48942(14) -0.03771(13)
N14 N 0.69024(19) 0.56276(14) -0.01412(12)
N15 N 0.63395(18) 0.47619(13) -0.03206(12)
N16 N 1.0305(5) 0.4009(3) 0.0971(3)
N17 N 0.6583(4) 0.6324(3) 0.1874(2)
N18 N 0.5716(2) 0.27929(15) 0.08545(12)
B1 B 0.7049(3) 0.1559(2) 0.16961(18)
H1 H 0.7504 0.1423 0.1855
B2 B 0.6921(3) 0.51427(19) -0.04548(19)
H2 H 0.6809 0.5245 -0.0773
C1 C 0.8397(3) 0.1233(2) 0.1182(2)
H3 H 0.8368 0.1200 0.1501
H4 H 0.8795 0.1459 0.1132
H5 H 0.8477 0.0898 0.1055
C2 C 0.7707(3) 0.14524(19) 0.09618(19)
C3 C 0.7505(3) 0.1569(2) 0.05058(18)
H6 H 0.7788 0.1520 0.0269
C4 C 0.6800(3) 0.17712(18) 0.04719(16)
C5 C 0.6370(3) 0.19554(18) 0.00645(17)
C6 C 0.5610(3) 0.1971(2) 0.00047(19)
H7 H 0.5343 0.1864 0.0236
C7 C 0.5264(4) 0.2143(3) -0.0391(2)
H8 H 0.4756 0.2138 -0.0422
C8 C 0.6310(5) 0.2305(3) -0.0679(2)
H9 H 0.6561 0.2426 -0.0914
C9 C 0.6713(3) 0.2128(2) -0.02990(19)
H10 H 0.7221 0.2123 -0.0283
C10 C 0.8151(3) 0.2299(2) 0.2285(2)
H11 H 0.8254 0.1953 0.2190
H12 H 0.8236 0.2322 0.2609
H13 H 0.8464 0.2540 0.2152
C11 C 0.7372(3) 0.2428(2) 0.21326(17)
C12 C 0.6993(3) 0.2867(2) 0.21940(19)
H14 H 0.7166 0.3158 0.2357
C13 C 0.6300(3) 0.2801(2) 0.19684(17)
C14 C 0.5673(3) 0.3163(2) 0.19147(16)
C15 C 0.5801(4) 0.3701(2) 0.1872(2)
H15 H 0.6274 0.3830 0.1876
C16 C 0.5212(6) 0.4026(3) 0.1826(3)
H16 H 0.5308 0.4379 0.1805
C17 C 0.4400(4) 0.3370(4) 0.1859(2)
H17 H 0.3922 0.3255 0.1865
C18 C 0.4968(4) 0.3003(3) 0.19030(19)
H18 H 0.4862 0.2651 0.1924
C19 C 0.7047(3) 0.0650(2) 0.24042(18)
H19 H 0.7442 0.0886 0.2374
H20 H 0.7199 0.0303 0.2344
H21 H 0.6912 0.0669 0.2707
C20 C 0.6413(2) 0.07917(18) 0.20770(15)
C21 C 0.5738(2) 0.05610(18) 0.20009(15)
H22 H 0.5570 0.0278 0.2154
C22 C 0.5353(2) 0.08407(17) 0.16451(15)
C23 C 0.4639(2) 0.07014(17) 0.14123(15)
C24 C 0.4400(2) 0.08311(17) 0.09631(16)
H23 H 0.4685 0.1048 0.0804
C25 C 0.3757(2) 0.06443(17) 0.07560(16)
H24 H 0.3614 0.0740 0.0457
C26 C 0.3527(3) 0.0220(2) 0.13964(16)
H25 H 0.3218 0.0020 0.1553
C27 C 0.4170(3) 0.0386(2) 0.16262(16)
H26 H 0.4293 0.0289 0.1927
C28 C 0.4129(3) 0.2002(2) 0.1279(3)
C29 C 0.3807(5) 0.1778(3) 0.2001(3)
H27 H 0.4024 0.1668 0.2295
H28 H 0.3466 0.1520 0.1877
H29 H 0.3555 0.2101 0.2029
C30 C 0.7959(3) 0.4927(3) -0.1189(2)
H30 H 0.8355 0.4825 -0.1355
H31 H 0.7879 0.5294 -0.1221
H32 H 0.7524 0.4744 -0.1305
C31 C 0.8146(3) 0.4797(2) -0.0701(2)
C32 C 0.8766(3) 0.4585(2) -0.0493(2)
H33 H 0.9172 0.4481 -0.0630
C33 C 0.8681(3) 0.45542(18) -0.0043(2)
C34 C 0.9205(4) 0.4367(2) 0.0325(3)
C35 C 0.9956(3) 0.4367(2) 0.0260(3)
H34 H 1.0087 0.4508 -0.0007
C36 C 1.0471(5) 0.4184(3) 0.0550(4)
H35 H 1.0949 0.4169 0.0477
C37 C 0.9592(6) 0.3989(4) 0.1053(4)
H36 H 0.9473 0.3858 0.1327
C38 C 0.9030(4) 0.4168(3) 0.0723(3)
H37 H 0.8544 0.4149 0.0779
C39 C 0.6769(3) 0.6324(2) -0.07410(19)
H38 H 0.6830 0.6036 -0.0939
H39 H 0.7154 0.6571 -0.0763
H40 H 0.6305 0.6486 -0.0827
C40 C 0.6799(3) 0.61294(18) -0.02541(17)
C41 C 0.6738(3) 0.63967(19) 0.0135(2)
H41 H 0.6664 0.6752 0.0160
C42 C 0.6803(2) 0.60421(19) 0.04868(18)
C43 C 0.6730(3) 0.6129(2) 0.09673(18)
C44 C 0.6884(4) 0.6599(3) 0.1164(2)
H42 H 0.7042 0.6870 0.0993
C45 C 0.6809(6) 0.6672(4) 0.1602(3)
H43 H 0.6928 0.6998 0.1723
C46 C 0.6452(4) 0.5849(3) 0.1690(2)
H44 H 0.6310 0.5582 0.1871
C47 C 0.6522(3) 0.5749(3) 0.12448(19)
H45 H 0.6426 0.5417 0.1130
C48 C 0.5314(3) 0.5056(2) -0.0888(2)
H46 H 0.4809 0.4969 -0.0967
H47 H 0.5577 0.5002 -0.1145
H48 H 0.5353 0.5413 -0.0797
C49 C 0.5626(2) 0.47226(18) -0.05108(17)
C50 C 0.5319(3) 0.43389(19) -0.02821(17)
H49 H 0.4839 0.4220 -0.0334
C51 C 0.5864(2) 0.41569(17) 0.00468(16)
C52 C 0.5822(2) 0.37078(18) 0.03476(15)
C53 C 0.5147(3) 0.3474(2) 0.03962(18)
H50 H 0.4716 0.3621 0.0259
C54 C 0.5122(3) 0.3029(2) 0.06459(18)
H51 H 0.4668 0.2882 0.0673
C55 C 0.6358(3) 0.30231(17) 0.08192(15)
H52 H 0.6779 0.2874 0.0967
C56 C 0.6424(2) 0.34731(18) 0.05725(15)
H53 H 0.6884 0.3618 0.0559
Zn2A Zn 0.74268(3) 0.49133(2) 0.05666(2)
N10A N 0.3011(2) -0.02559(15) 0.00363(15)
N11A N 0.19011(19) 0.05652(15) 0.03182(12)
loop_
_geom_bond_atom_site_label_1
_geom_bond_atom_site_label_2
_geom_bond_site_symmetry_1
_geom_bond_site_symmetry_2
Zn1 O1 1_555 1_555
Zn2 Cl1 1_555 1_555
O1 C28 1_555 1_555
O2 C28 1_555 1_555
O3 C28 1_555 1_555
N1 Zn1 1_555 1_555
N2 Zn1 1_555 1_555
N3 Zn1 1_555 1_555
N4 N1 1_555 1_555
N5 N2 1_555 1_555
N6 N3 1_555 1_555
N7 C7 1_555 1_555
N8 C16 1_555 1_555
N9 Zn2 1_555 1_555
N10 N13 1_555 1_555
N11 N14 1_555 1_555
N12 N15 1_555 1_555
N13 B2 1_555 1_555
N14 B2 1_555 1_555
N15 B2 1_555 1_555
N16 C36 1_555 1_555
N17 C45 1_555 1_555
N18 Zn1 1_555 1_555
B1 N4 1_555 1_555
H1 B1 1_555 1_555
B2 H2 1_555 1_555
C1 H3 1_555 1_555
H4 C1 1_555 1_555
H5 C1 1_555 1_555
C2 N4 1_555 1_555
C3 C2 1_555 1_555
H6 C3 1_555 1_555
C4 N1 1_555 1_555
C5 C4 1_555 1_555
C6 C5 1_555 1_555
H7 C6 1_555 1_555
C7 C6 1_555 1_555
H8 C7 1_555 1_555
C8 N7 1_555 1_555
H9 C8 1_555 1_555
C9 C5 1_555 1_555
H10 C9 1_555 1_555
C10 H11 1_555 1_555
H12 C10 1_555 1_555
H13 C10 1_555 1_555
C11 N5 1_555 1_555
C12 C11 1_555 1_555
H14 C12 1_555 1_555
C13 N2 1_555 1_555
C14 C13 1_555 1_555
C15 C14 1_555 1_555
H15 C15 1_555 1_555
C16 C15 1_555 1_555
H16 C16 1_555 1_555
C17 N8 1_555 1_555
H17 C17 1_555 1_555
C18 C14 1_555 1_555
H18 C18 1_555 1_555
C19 H19 1_555 1_555
H20 C19 1_555 1_555
H21 C19 1_555 1_555
C20 N6 1_555 1_555
C21 C20 1_555 1_555
H22 C21 1_555 1_555
C22 N3 1_555 1_555
C23 C22 1_555 1_555
C24 C23 1_555 1_555
H23 C24 1_555 1_555
C25 N9 1_555 1_555
H24 C25 1_555 1_555
C26 N9 1_555 1_555
H25 C26 1_555 1_555
C27 C23 1_555 1_555
H26 C27 1_555 1_555
C29 O3 1_555 1_555
H27 C29 1_555 1_555
H28 C29 1_555 1_555
H29 C29 1_555 1_555
C30 H30 1_555 1_555
H31 C30 1_555 1_555
H32 C30 1_555 1_555
C31 N13 1_555 1_555
C32 C31 1_555 1_555
H33 C32 1_555 1_555
C33 N10 1_555 1_555
C34 C33 1_555 1_555
C35 C34 1_555 1_555
H34 C35 1_555 1_555
C36 C35 1_555 1_555
H35 C36 1_555 1_555
C37 N16 1_555 1_555
H36 C37 1_555 1_555
C38 C34 1_555 1_555
H37 C38 1_555 1_555
C39 H38 1_555 1_555
H39 C39 1_555 1_555
H40 C39 1_555 1_555
C40 N14 1_555 1_555
C41 C40 1_555 1_555
H41 C41 1_555 1_555
C42 N11 1_555 1_555
C43 C42 1_555 1_555
C44 C43 1_555 1_555
H42 C44 1_555 1_555
C45 C44 1_555 1_555
H43 C45 1_555 1_555
C46 N17 1_555 1_555
H44 C46 1_555 1_555
C47 C43 1_555 1_555
H45 C47 1_555 1_555
C48 H46 1_555 1_555
H47 C48 1_555 1_555
H48 C48 1_555 1_555
C49 N15 1_555 1_555
C50 C49 1_555 1_555
H49 C50 1_555 1_555
C51 N12 1_555 1_555
C52 C51 1_555 1_555
C53 C52 1_555 1_555
H50 C53 1_555 1_555
C54 N18 1_555 1_555
H51 C54 1_555 1_555
C55 N18 1_555 1_555
H52 C55 1_555 1_555
C56 C52 1_555 1_555
H53 C56 1_555 1_555
Zn2A N10 1_555 1_555
N10A Zn2 1_555 1_555
N11A Zn2 1_555 1_555
N5 B1 1_555 1_555
N6 B1 1_555 1_555
N11 Zn2A 1_555 1_555
C1 C2 1_555 1_555
C3 C4 1_555 1_555
C8 C9 1_555 1_555
C10 C11 1_555 1_555
C12 C13 1_555 1_555
C17 C18 1_555 1_555
C19 C20 1_555 1_555
C21 C22 1_555 1_555
C24 C25 1_555 1_555
C26 C27 1_555 1_555
C30 C31 1_555 1_555
C32 C33 1_555 1_555
C37 C38 1_555 1_555
C39 C40 1_555 1_555
C41 C42 1_555 1_555
C46 C47 1_555 1_555
C48 C49 1_555 1_555
C50 C51 1_555 1_555
C53 C54 1_555 1_555
C55 C56 1_555 1_555

#END
