
#######################################################################
#
#                 Cambridge Crystallographic Data Centre
#                                CCDC 
#
#######################################################################
#
# If this CIF has been generated from an entry in the Cambridge 
# Structural Database, then it will include bibliographic, chemical, 
# crystal, experimental, refinement or atomic coordinate data resulting 
# from the CCDC's data processing and validation procedures.
#
#######################################################################

data_TEZLOA
_symmetry_cell_setting           orthorhombic
_symmetry_space_group_name_H-M   'F d d d'
_symmetry_Int_Tables_number      70
_space_group_name_Hall           '-F 2uv 2vw'
loop_
_symmetry_equiv_pos_site_id
_symmetry_equiv_pos_as_xyz
1 x,y,z
2 1/4-x,1/4-y,z
3 x,1/4-y,1/4-z
4 1/4-x,y,1/4-z
5 x,1/2+y,1/2+z
6 1/2+x,y,1/2+z
7 1/2+x,1/2+y,z
8 1/4-x,3/4-y,1/2+z
9 x,3/4-y,3/4-z
10 1/4-x,1/2+y,3/4-z
11 3/4-x,1/4-y,1/2+z
12 1/2+x,1/4-y,3/4-z
13 3/4-x,y,3/4-z
14 3/4-x,3/4-y,z
15 1/2+x,3/4-y,1/4-z
16 3/4-x,1/2+y,1/4-z
17 -x,-y,-z
18 3/4+x,3/4+y,-z
19 -x,3/4+y,3/4+z
20 3/4+x,-y,3/4+z
21 -x,1/2-y,1/2-z
22 1/2-x,-y,1/2-z
23 1/2-x,1/2-y,-z
24 3/4+x,1/4+y,1/2-z
25 -x,1/4+y,1/4+z
26 3/4+x,1/2-y,1/4+z
27 1/4+x,3/4+y,1/2-z
28 1/2-x,3/4+y,1/4+z
29 1/4+x,-y,1/4+z
30 1/4+x,1/4+y,-z
31 1/2-x,1/4+y,3/4+z
32 1/4+x,1/2-y,3/4+z
_cell_length_a                   13.9815(16)
_cell_length_b                   17.184(2)
_cell_length_c                   40.351(5)
_cell_angle_alpha                90
_cell_angle_beta                 90
_cell_angle_gamma                90
_cell_volume                     9694.65
loop_
_atom_site_label
_atom_site_type_symbol
_atom_site_fract_x
_atom_site_fract_y
_atom_site_fract_z
Sb1 Sb 0.91762(2) 0.1250 0.1250
F1 F 0.91603(14) 0.01787(10) 0.11549(5)
F2 F 1.01162(18) 0.14002(12) 0.09310(6)
F3 F 0.82428(18) 0.14259(13) 0.09278(7)
F1B F 0.91603(14) 0.23213(10) 0.13451(5)
F2B F 1.01162(18) 0.10998(12) 0.15690(6)
F3B F 0.82428(18) 0.10741(13) 0.15722(7)
Ag1 Ag 0.8750 -0.1250 0.067804(8)
C1 C 0.4234(2) -0.11378(17) 0.05579(8)
C2 C 0.6497(2) -0.13029(18) 0.07804(7)
N1 N 0.57548(17) -0.08181(15) 0.08448(6)
N2 N 0.72897(18) -0.08910(15) 0.07349(6)
C3 C 0.6095(2) -0.00624(19) 0.08346(8)
H1 H 0.5737 0.0401 0.0867
C5 C 0.4220(2) -0.1129(2) -0.00419(8)
H5 H 0.4542 -0.1041 -0.0246
C6 C 0.4695(2) -0.1015(2) 0.02557(8)
H6 H 0.5344 -0.0851 0.0254
C7 C 0.7038(2) -0.01171(18) 0.07688(8)
H7 H 0.7464 0.0311 0.0749
C8 C 0.6409(2) -0.21568(18) 0.07504(9)
H8 H 0.7047 -0.2388 0.0729
H9 H 0.6029 -0.2284 0.0554
H10 H 0.6094 -0.2365 0.0948
C10 C 0.4755(2) -0.10380(19) 0.08831(8)
H11 H 0.4425 -0.0634 0.1015
H12 H 0.4721 -0.1533 0.1008
Ag1_2 Ag -0.1250 -0.1250 0.067804(8)
C1M C 0.3266(2) -0.13622(17) 0.05579(8)
C2M C 0.1003(2) -0.11971(18) 0.07804(7)
N1M N 0.17452(17) -0.16819(15) 0.08448(6)
N2M N 0.02103(18) -0.16090(15) 0.07349(6)
N2M_2 N 1.02103(18) -0.16090(15) 0.07349(6)
C3M C 0.1405(2) -0.24376(19) 0.08346(8)
H1M H 0.1763 -0.2901 0.0867
C5M C 0.3280(2) -0.1371(2) -0.00419(8)
H5M H 0.2958 -0.1459 -0.0246
C6M C 0.2805(2) -0.1485(2) 0.02557(8)
H6M H 0.2156 -0.1649 0.0254
C7M C 0.0462(2) -0.23829(18) 0.07688(8)
H7M H 0.0036 -0.2811 0.0749
C8M C 0.1091(2) -0.03432(18) 0.07504(9)
H8M H 0.0453 -0.0112 0.0729
H9M H 0.1471 -0.0216 0.0554
H10M H 0.1406 -0.0135 0.0948
C10M C 0.2745(2) -0.14620(19) 0.08831(8)
H11M H 0.3075 -0.1866 0.1015
H12M H 0.2779 -0.0967 0.1008
N3 N 0.8910(2) 0.0065(2) 0.02322(8)
C4 C 0.9684(3) 0.1435(2) 0.01622(10)
H2 H 0.9222 0.1841 0.0221
H3 H 0.9885 0.1503 -0.0069
H4 H 1.0243 0.1473 0.0308
C9 C 0.9240(2) 0.0671(2) 0.02019(8)
loop_
_geom_bond_atom_site_label_1
_geom_bond_atom_site_label_2
_geom_bond_site_symmetry_1
_geom_bond_site_symmetry_2
Sb1 F1 1_555 1_555
Ag1 N2 1_555 1_555
C1 C6 1_555 1_555
C2 N1 1_555 1_555
F2 Sb1 1_555 1_555
N1 C3 1_555 1_555
N2 C2 1_555 1_555
C3 H1 1_555 1_555
F3 Sb1 1_555 1_555
N3 C9 1_555 1_555
C4 H2 1_555 1_555
H3 C4 1_555 1_555
H4 C4 1_555 1_555
C5 H5 1_555 1_555
C6 C5 1_555 1_555
H6 C6 1_555 1_555
C7 N2 1_555 1_555
H7 C7 1_555 1_555
C8 C2 1_555 1_555
H8 C8 1_555 1_555
H9 C8 1_555 1_555
H10 C8 1_555 1_555
C9 C4 1_555 1_555
C10 C1 1_555 1_555
H11 C10 1_555 1_555
H12 C10 1_555 1_555
Ag1_2 N2M 1_555 1_555
C1M C1 1_555 1_555
F1B Sb1 1_555 1_555
C2M N1M 1_555 1_555
F2B Sb1 1_555 1_555
N1M C3M 1_555 1_555
N2M C2M 1_555 1_555
N2M_2 Ag1 1_555 1_555
C3M H1M 1_555 1_555
F3B Sb1 1_555 1_555
C5M C5 1_555 1_555
H5M C5M 1_555 1_555
C6M C1M 1_555 1_555
H6M C6M 1_555 1_555
C7M N2M 1_555 1_555
H7M C7M 1_555 1_555
C8M C2M 1_555 1_555
H8M C8M 1_555 1_555
H9M C8M 1_555 1_555
H10M C8M 1_555 1_555
C10M C1M 1_555 1_555
H11M C10M 1_555 1_555
H12M C10M 1_555 1_555
N1 C10 1_555 1_555
C3 C7 1_555 1_555
N1M C10M 1_555 1_555
C3M C7M 1_555 1_555
C5M C6M 1_555 1_555

#END
