
#######################################################################
#
#                 Cambridge Crystallographic Data Centre
#                                CCDC 
#
#######################################################################
#
# If this CIF has been generated from an entry in the Cambridge 
# Structural Database, then it will include bibliographic, chemical, 
# crystal, experimental, refinement or atomic coordinate data resulting 
# from the CCDC's data processing and validation procedures.
#
#######################################################################

data_TEZLIU
_symmetry_cell_setting           monoclinic
_symmetry_space_group_name_H-M   'P 21/c'
_symmetry_Int_Tables_number      14
_space_group_name_Hall           '-P 2ybc'
loop_
_symmetry_equiv_pos_site_id
_symmetry_equiv_pos_as_xyz
1 x,y,z
2 -x,1/2+y,1/2-z
3 -x,-y,-z
4 x,1/2-y,1/2+z
_cell_length_a                   7.1428(4)
_cell_length_b                   15.1084(9)
_cell_length_c                   19.4643(12)
_cell_angle_alpha                90
_cell_angle_beta                 95.8460(10)
_cell_angle_gamma                90
_cell_volume                     2089.59
loop_
_atom_site_label
_atom_site_type_symbol
_atom_site_fract_x
_atom_site_fract_y
_atom_site_fract_z
Co1 Co 0.16856(4) 0.442035(17) 0.324730(13)
Cl1 Cl -0.06780(8) 0.35344(3) 0.28182(3)
Cl2 Cl 0.41989(7) 0.37390(3) 0.38323(3)
N1 N 0.0590(2) 0.52751(11) 0.38905(9)
N2 N 0.2784(2) 0.98904(11) 0.75055(8)
N3 N 0.3023(2) 0.89117(11) 0.66863(8)
C1 C 0.4766(3) 0.93026(14) 0.68142(11)
H1 H 0.5860 0.9173 0.6593
N4 N 0.0408(2) 0.62825(11) 0.46959(8)
C2 C 0.1858(3) 0.92802(13) 0.71107(10)
C3 C 0.3617(3) 0.60218(14) 0.43336(12)
H2 H 0.4121 0.5748 0.3935
H3 H 0.3853 0.6661 0.4330
H4 H 0.4235 0.5765 0.4760
C4 C 0.2532(3) 0.81927(13) 0.61973(10)
H5 H 0.3586 0.7764 0.6226
H6 H 0.1416 0.7880 0.6340
C5 C -0.1382(3) 0.59547(14) 0.45401(11)
H7 H -0.2482 0.6128 0.4741
C6 C 0.1558(3) 0.58585(13) 0.42965(10)
C7 C 0.4609(3) 0.99090(14) 0.73177(10)
H8 H 0.5589 1.0286 0.7511
C8 C 0.2112(3) 0.84821(13) 0.54535(10)
C9 C -0.0138(3) 0.90200(15) 0.71365(12)
H9 H -0.0796 0.9484 0.7369
H10 H -0.0742 0.8941 0.6665
H11 H -0.0194 0.8463 0.7392
C10 C 0.0991(3) 0.69285(13) 0.52364(10)
H12 H -0.0010 0.6973 0.5551
H13 H 0.2140 0.6707 0.5510
C11 C 0.1386(3) 0.78476(13) 0.49716(10)
C12 C 0.1011(3) 0.80865(14) 0.42834(11)
H14 H 0.0520 0.7659 0.3955
C13 C 0.2432(3) 0.93406(13) 0.52350(11)
H15 H 0.2925 0.9771 0.5560
C14 C -0.1262(3) 0.53338(14) 0.40414(11)
H16 H -0.2282 0.4994 0.3830
C15 C 0.1346(3) 0.89447(15) 0.40688(12)
H17 H 0.1099 0.9099 0.3595
C16 C 0.2036(3) 0.95730(14) 0.45442(12)
H18 H 0.2241 1.0163 0.4400
Co1C Co 0.16856(4) 1.057965(17) 0.824730(13)
N2C N 0.2784(2) 0.51096(11) 0.25055(8)
O1 O 0.2691(2) 0.18170(11) 0.42448(9)
H22 H 0.309(4) 0.1737(19) 0.4746(5)
H23 H 0.318(4) 0.2408(10) 0.4136(14)
N5 N 0.3730(3) 0.31714(16) 0.07506(13)
C17 C 0.4010(4) 0.29695(17) 0.13132(15)
C18 C 0.4359(6) 0.2693(2) 0.20322(16)
H19 H 0.3348 0.2913 0.2291
H20 H 0.5566 0.2936 0.2233
H21 H 0.4400 0.2046 0.2056
loop_
_geom_bond_atom_site_label_1
_geom_bond_atom_site_label_2
_geom_bond_site_symmetry_1
_geom_bond_site_symmetry_2
Co1 Cl1 1_555 1_555
Cl2 Co1 1_555 1_555
N1 Co1 1_555 1_555
N2 C2 1_555 1_555
N3 C1 1_555 1_555
C1 H1 1_555 1_555
N4 C5 1_555 1_555
C2 N3 1_555 1_555
C3 H2 1_555 1_555
H3 C3 1_555 1_555
H4 C3 1_555 1_555
C4 N3 1_555 1_555
H5 C4 1_555 1_555
H6 C4 1_555 1_555
C5 H7 1_555 1_555
C6 N1 1_555 1_555
C7 N2 1_555 1_555
H8 C7 1_555 1_555
C8 C4 1_555 1_555
C9 C2 1_555 1_555
H9 C9 1_555 1_555
H10 C9 1_555 1_555
H11 C9 1_555 1_555
C10 N4 1_555 1_555
H12 C10 1_555 1_555
H13 C10 1_555 1_555
C11 C8 1_555 1_555
C12 C11 1_555 1_555
H14 C12 1_555 1_555
C13 C8 1_555 1_555
H15 C13 1_555 1_555
C14 N1 1_555 1_555
H16 C14 1_555 1_555
C15 C12 1_555 1_555
H17 C15 1_555 1_555
C16 C13 1_555 1_555
H18 C16 1_555 1_555
O1 H22 1_555 1_555
N5 C17 1_555 1_555
C17 C18 1_555 1_555
C18 H19 1_555 1_555
H20 C18 1_555 1_555
H21 C18 1_555 1_555
H23 O1 1_555 1_555
Co1C N2 1_555 1_555
N2C Co1 1_555 1_555
C1 C7 1_555 1_555
N4 C6 1_555 1_555
C3 C6 1_555 1_555
C5 C14 1_555 1_555
C10 C11 1_555 1_555
C15 C16 1_555 1_555

#END
