
#######################################################################
#
#                 Cambridge Crystallographic Data Centre
#                                CCDC 
#
#######################################################################
#
# If this CIF has been generated from an entry in the Cambridge 
# Structural Database, then it will include bibliographic, chemical, 
# crystal, experimental, refinement or atomic coordinate data resulting 
# from the CCDC's data processing and validation procedures.
#
#######################################################################

data_TEZMIW
_symmetry_cell_setting           triclinic
_symmetry_space_group_name_H-M   'P -1'
_symmetry_Int_Tables_number      2
_space_group_name_Hall           '-P 1'
loop_
_symmetry_equiv_pos_site_id
_symmetry_equiv_pos_as_xyz
1 x,y,z
2 -x,-y,-z
_cell_length_a                   9.4089(15)
_cell_length_b                   11.3501(18)
_cell_length_c                   12.2527(19)
_cell_angle_alpha                105.701(7)
_cell_angle_beta                 90.309(7)
_cell_angle_gamma                112.899(7)
_cell_volume                     1151.32
loop_
_atom_site_label
_atom_site_type_symbol
_atom_site_fract_x
_atom_site_fract_y
_atom_site_fract_z
Mn1 Mn 0.0000 -0.5000 0.5000
Mn2 Mn 0.20322(2) 0.35566(2) 0.105782(19)
O1 O 0.22211(14) -0.48389(13) 0.43855(11)
H1 H 0.296(2) -0.4344(19) 0.4887(14)
H2 H 0.261(2) -0.492(2) 0.3781(13)
O2 O 0.97773(13) 0.35737(12) 0.89527(11)
O3 O 0.98618(13) 0.22335(11) 0.99457(10)
O4 O 0.33398(15) 0.24786(14) 0.00625(12)
H3 H 0.373(2) 0.278(2) -0.0454(16)
H4 H 0.395(2) 0.226(2) 0.0345(17)
O5 O 0.38529(13) -0.31449(14) 0.63905(11)
O6 O 0.07871(14) 0.47256(13) 0.19326(11)
H5 H 0.060(2) 0.5241(18) 0.1655(16)
H6 H 0.008(2) 0.4429(19) 0.2292(16)
O7 O 0.13551(12) -0.38514(11) 0.66701(9)
O8 O 0.26742(13) 0.48924(11) -0.00360(10)
H7 H 0.1829(17) 0.4570(19) -0.0438(15)
H8 H 0.3270(18) 0.4741(19) -0.0524(15)
O9 O 0.60763(12) 0.49747(11) 0.75689(10)
O10 O 0.42311(14) 0.37514(12) 0.84279(11)
O11 O 0.47787(12) -0.17108(10) 0.86864(10)
O12 O 0.42041(13) 0.14229(11) 0.69973(11)
N1 N 0.02068(16) -0.30918(13) 0.45936(12)
N2 N 0.14471(15) 0.21480(13) 0.21346(12)
C1 C 0.91736(16) 0.25470(14) 0.92682(13)
C2 C 0.75004(16) 0.16162(14) 0.87907(12)
C3 C 0.66476(17) 0.20166(15) 0.81438(13)
H9 H 0.7090 0.2853 0.8024
C4 C 0.51349(17) 0.11505(15) 0.76839(13)
C5 C 0.44487(17) -0.00993(15) 0.78604(13)
H10 H 0.3425 -0.0668 0.7557
C6 C 0.53163(17) -0.04817(14) 0.84948(13)
C7 C 0.68446(16) 0.03773(14) 0.89705(12)
H11 H 0.7415 0.0116 0.9405
C8 C 0.31892(17) -0.25956(15) 0.83045(13)
H12 H 0.2548 -0.2104 0.8554
H13 H 0.2911 -0.3302 0.8668
C9 C 0.28098(17) -0.32365(14) 0.70072(13)
C10 C 0.49201(19) 0.26333(15) 0.67092(14)
H14 H 0.4312 0.2579 0.6041
H15 H 0.5944 0.2724 0.6505
C11 C 0.50874(16) 0.38864(15) 0.76652(13)
C12 C 0.1531(2) -0.19898(17) 0.48710(15)
H16 H 0.2328 -0.1956 0.5347
C13 C 0.1772(2) -0.09046(17) 0.44868(16)
H17 H 0.2714 -0.0158 0.4711
C14 C 0.06251(17) -0.09140(14) 0.37683(13)
C15 C 0.08750(17) 0.01769(14) 0.32485(13)
C16 C 0.22649(19) 0.13123(15) 0.34984(14)
H18 H 0.3037 0.1433 0.4046
C17 C 0.24974(18) 0.22574(15) 0.29351(14)
H19 H 0.3434 0.3010 0.3122
C18 C -0.02286(19) 0.00752(18) 0.24279(17)
H20 H -0.1187 -0.0654 0.2240
C19 C 0.01021(19) 0.10555(18) 0.18962(17)
H21 H -0.0646 0.0958 0.1340
C20 C -0.07670(19) -0.20504(17) 0.35036(17)
H22 H -0.1589 -0.2107 0.3037
C21 C -0.0922(2) -0.30864(17) 0.39339(17)
H23 H -0.1870 -0.3828 0.3755
Mn2A Mn -0.20322(2) -1.35566(2) 0.894218(19)
O1A O -0.22211(14) -0.51611(13) 0.56145(11)
H1A H -0.296(2) -0.5656(19) 0.5113(14)
H2A H -0.261(2) -0.508(2) 0.6219(13)
O2A O -0.97773(13) -1.35737(12) 0.10473(11)
O3A O -0.98618(13) -1.22335(11) 0.00543(10)
O4A O -0.33398(15) -1.24786(14) 0.99375(12)
H3A H -0.373(2) -1.278(2) 1.0454(16)
H4A H -0.395(2) -1.226(2) 0.9655(17)
O5A O -0.38529(13) -0.68551(14) 0.36095(11)
O6A O -0.07871(14) -1.47256(13) 0.80674(11)
H5A H -0.060(2) -1.5241(18) 0.8345(16)
H6A H -0.008(2) -1.4429(19) 0.7708(16)
O7A O -0.13551(12) -0.61486(11) 0.33299(9)
O8A O -0.26742(13) -1.48924(11) 1.00360(10)
H7A H -0.1829(17) -1.4570(19) 1.0438(15)
H8A H -0.3270(18) -1.4741(19) 1.0524(15)
O9A O -0.60763(12) -1.49747(11) 0.24311(10)
O10A O -0.42311(14) -1.37514(12) 0.15721(11)
O11A O -0.47787(12) -0.82892(10) 0.13136(10)
O12A O -0.42041(13) -1.14229(11) 0.30027(11)
N1A N -0.02068(16) -0.69082(13) 0.54064(12)
N2A N -0.14471(15) -1.21480(13) 0.78654(12)
C1A C -0.91736(16) -1.25470(14) 0.07318(13)
C2A C -0.75004(16) -1.16162(14) 0.12093(12)
C3A C -0.66476(17) -1.20166(15) 0.18562(13)
H9A H -0.7090 -1.2853 0.1976
C4A C -0.51349(17) -1.11505(15) 0.23161(13)
C5A C -0.44487(17) -0.99007(15) 0.21396(13)
H10A H -0.3425 -0.9332 0.2443
C6A C -0.53163(17) -0.95183(14) 0.15052(13)
C7A C -0.68446(16) -1.03773(14) 0.10295(12)
H11A H -0.7415 -1.0116 0.0595
C8A C -0.31892(17) -0.74044(15) 0.16955(13)
H12A H -0.2548 -0.7896 0.1446
H13A H -0.2911 -0.6698 0.1332
C9A C -0.28098(17) -0.67635(14) 0.29928(13)
C10A C -0.49201(19) -1.26333(15) 0.32908(14)
H14A H -0.4312 -1.2579 0.3959
H15A H -0.5944 -1.2724 0.3495
C11A C -0.50874(16) -1.38864(15) 0.23348(13)
C12A C -0.1531(2) -0.80102(17) 0.51290(15)
H16A H -0.2328 -0.8044 0.4653
C13A C -0.1772(2) -0.90954(17) 0.55132(16)
H17A H -0.2714 -0.9842 0.5289
C14A C -0.06251(17) -0.90860(14) 0.62317(13)
C15A C -0.08750(17) -1.01769(14) 0.67515(13)
C16A C -0.22649(19) -1.13123(15) 0.65016(14)
H18A H -0.3037 -1.1433 0.5954
C17A C -0.24974(18) -1.22574(15) 0.70649(14)
H19A H -0.3434 -1.3010 0.6878
C18A C 0.02286(19) -1.00752(18) 0.75721(17)
H20A H 0.1187 -0.9346 0.7760
C19A C -0.01021(19) -1.10555(18) 0.81038(17)
H21A H 0.0646 -1.0958 0.8660
C20A C 0.07670(19) -0.79496(17) 0.64964(17)
H22A H 0.1589 -0.7893 0.6963
C21A C 0.0922(2) -0.69136(17) 0.60661(17)
H23A H 0.1870 -0.6172 0.6245
Mn2_2 Mn -0.79678(2) -1.64434(2) 0.105782(19)
Mn2_3 Mn 1.20322(2) 0.35566(2) 1.105782(19)
Mn2A_2 Mn -1.20322(2) -1.35566(2) -0.105782(19)
Mn2A_3 Mn 0.79678(2) 0.64434(2) 0.894218(19)
O3_2 O -0.01382(13) 0.22335(11) -0.00543(10)
O3A_2 O 0.01382(13) -1.22335(11) 1.00543(10)
O9_2 O -0.39237(12) -1.50253(11) 0.75689(10)
O9A_2 O 0.39237(12) 0.50253(11) 0.24311(10)
loop_
_geom_bond_atom_site_label_1
_geom_bond_atom_site_label_2
_geom_bond_site_symmetry_1
_geom_bond_site_symmetry_2
Mn1 O1 1_555 1_555
Mn2 O4 1_555 1_555
O1 H1 1_555 1_555
H2 O1 1_555 1_555
O2 C1 1_555 1_555
O3 C1 1_555 1_555
O4 H3 1_555 1_555
H4 O4 1_555 1_555
O5 C9 1_555 1_555
O6 Mn2 1_555 1_555
H5 O6 1_555 1_555
H6 O6 1_555 1_555
O7 Mn1 1_555 1_555
O8 Mn2 1_555 1_555
H7 O8 1_555 1_555
H8 O8 1_555 1_555
O9 C11 1_555 1_555
O10 C11 1_555 1_555
O11 C6 1_555 1_555
O12 C4 1_555 1_555
N1 Mn1 1_555 1_555
N2 Mn2 1_555 1_555
C1 C2 1_555 1_555
C2 C3 1_555 1_555
C3 H9 1_555 1_555
C4 C3 1_555 1_555
C5 C4 1_555 1_555
H10 C5 1_555 1_555
C6 C5 1_555 1_555
C7 C2 1_555 1_555
H11 C7 1_555 1_555
C8 O11 1_555 1_555
H12 C8 1_555 1_555
H13 C8 1_555 1_555
C9 O7 1_555 1_555
C10 O12 1_555 1_555
H14 C10 1_555 1_555
H15 C10 1_555 1_555
C11 C10 1_555 1_555
C12 N1 1_555 1_555
H16 C12 1_555 1_555
C13 C12 1_555 1_555
H17 C13 1_555 1_555
C14 C13 1_555 1_555
C15 C14 1_555 1_555
C16 C15 1_555 1_555
H18 C16 1_555 1_555
C17 N2 1_555 1_555
H19 C17 1_555 1_555
C18 C15 1_555 1_555
H20 C18 1_555 1_555
C19 N2 1_555 1_555
H21 C19 1_555 1_555
C20 C14 1_555 1_555
H22 C20 1_555 1_555
C21 N1 1_555 1_555
H23 C21 1_555 1_555
Mn2A O4A 1_555 1_555
O1A Mn1 1_555 1_555
H1A O1A 1_555 1_555
H2A O1A 1_555 1_555
O2A C1A 1_555 1_555
O3A C1A 1_555 1_555
O4A H3A 1_555 1_555
H4A O4A 1_555 1_555
O5A C9A 1_555 1_555
O6A Mn2A 1_555 1_555
H5A O6A 1_555 1_555
H6A O6A 1_555 1_555
O7A Mn1 1_555 1_555
O8A Mn2A 1_555 1_555
H7A O8A 1_555 1_555
H8A O8A 1_555 1_555
O9A C11A 1_555 1_555
O10A C11A 1_555 1_555
O11A C6A 1_555 1_555
O12A C4A 1_555 1_555
N1A Mn1 1_555 1_555
N2A Mn2A 1_555 1_555
C1A C2A 1_555 1_555
C2A C3A 1_555 1_555
C3A H9A 1_555 1_555
C4A C3A 1_555 1_555
C5A C4A 1_555 1_555
H10A C5A 1_555 1_555
C6A C5A 1_555 1_555
C7A C2A 1_555 1_555
H11A C7A 1_555 1_555
C8A O11A 1_555 1_555
H12A C8A 1_555 1_555
H13A C8A 1_555 1_555
C9A O7A 1_555 1_555
C10A O12A 1_555 1_555
H14A C10A 1_555 1_555
H15A C10A 1_555 1_555
C11A C10A 1_555 1_555
C12A N1A 1_555 1_555
H16A C12A 1_555 1_555
C13A C12A 1_555 1_555
H17A C13A 1_555 1_555
C14A C13A 1_555 1_555
C15A C14A 1_555 1_555
C16A C15A 1_555 1_555
H18A C16A 1_555 1_555
C17A N2A 1_555 1_555
H19A C17A 1_555 1_555
C18A C15A 1_555 1_555
H20A C18A 1_555 1_555
C19A N2A 1_555 1_555
H21A C19A 1_555 1_555
C20A C14A 1_555 1_555
H22A C20A 1_555 1_555
C21A N1A 1_555 1_555
H23A C21A 1_555 1_555
Mn2_2 O9A 1_555 1_555
Mn2_3 O3 1_555 1_555
Mn2A_2 O3A 1_555 1_555
Mn2A_3 O9 1_555 1_555
O3_2 Mn2 1_555 1_555
O3A_2 Mn2A 1_555 1_555
O9_2 Mn2A 1_555 1_555
O9A_2 Mn2 1_555 1_555
C6 C7 1_555 1_555
C8 C9 1_555 1_555
C16 C17 1_555 1_555
C18 C19 1_555 1_555
C20 C21 1_555 1_555
C6A C7A 1_555 1_555
C8A C9A 1_555 1_555
C16A C17A 1_555 1_555
C18A C19A 1_555 1_555
C20A C21A 1_555 1_555

#END
