
#######################################################################
#
#                 Cambridge Crystallographic Data Centre
#                                CCDC 
#
#######################################################################
#
# If this CIF has been generated from an entry in the Cambridge 
# Structural Database, then it will include bibliographic, chemical, 
# crystal, experimental, refinement or atomic coordinate data resulting 
# from the CCDC's data processing and validation procedures.
#
#######################################################################

data_TEZMAN
_symmetry_cell_setting           orthorhombic
_symmetry_space_group_name_H-M   'F d d d'
_symmetry_Int_Tables_number      70
_space_group_name_Hall           '-F 2uv 2vw'
loop_
_symmetry_equiv_pos_site_id
_symmetry_equiv_pos_as_xyz
1 x,y,z
2 1/4-x,1/4-y,z
3 x,1/4-y,1/4-z
4 1/4-x,y,1/4-z
5 x,1/2+y,1/2+z
6 1/2+x,y,1/2+z
7 1/2+x,1/2+y,z
8 1/4-x,3/4-y,1/2+z
9 x,3/4-y,3/4-z
10 1/4-x,1/2+y,3/4-z
11 3/4-x,1/4-y,1/2+z
12 1/2+x,1/4-y,3/4-z
13 3/4-x,y,3/4-z
14 3/4-x,3/4-y,z
15 1/2+x,3/4-y,1/4-z
16 3/4-x,1/2+y,1/4-z
17 -x,-y,-z
18 3/4+x,3/4+y,-z
19 -x,3/4+y,3/4+z
20 3/4+x,-y,3/4+z
21 -x,1/2-y,1/2-z
22 1/2-x,-y,1/2-z
23 1/2-x,1/2-y,-z
24 3/4+x,1/4+y,1/2-z
25 -x,1/4+y,1/4+z
26 3/4+x,1/2-y,1/4+z
27 1/4+x,3/4+y,1/2-z
28 1/2-x,3/4+y,1/4+z
29 1/4+x,-y,1/4+z
30 1/4+x,1/4+y,-z
31 1/2-x,1/4+y,3/4+z
32 1/4+x,1/2-y,3/4+z
_cell_length_a                   14.054(2)
_cell_length_b                   15.500(3)
_cell_length_c                   40.371(6)
_cell_angle_alpha                90
_cell_angle_beta                 90
_cell_angle_gamma                90
_cell_volume                     8794.3
loop_
_atom_site_label
_atom_site_type_symbol
_atom_site_fract_x
_atom_site_fract_y
_atom_site_fract_z
N3 N 0.8618(5) 0.2526(5) 0.02003(18)
C5 C 0.8325(5) 0.1848(5) 0.02158(18)
C10 C 0.7919(6) 0.0986(6) 0.0233(2)
H10 H 0.7423 0.0927 0.0064
H11 H 0.7642 0.0894 0.0452
H12 H 0.8420 0.0558 0.0193
B1 B 0.8487(5) 0.1250 0.1250
F2 F 0.9183(10) 0.1651(6) 0.1426(3)
F3 F 0.7633(7) 0.1624(6) 0.1315(3)
F2B F 0.9183(10) 0.0849(6) 0.1074(3)
F3B F 0.7633(7) 0.0876(6) 0.1185(3)
Ag1 Ag 0.8750 0.3750 0.067334(18)
C1 C 0.4239(4) 0.3848(4) 0.05728(16)
C2 C 0.4764(4) 0.3912(4) 0.09005(16)
H1 H 0.4444 0.4347 0.1042
H2 H 0.4727 0.3349 0.1016
C3 C 0.4235(5) 0.3854(5) -0.00280(17)
H3 H 0.4565 0.3938 -0.0231
C4 C 0.6515(5) 0.3655(5) 0.07986(17)
N1 N 0.5756(4) 0.4150(4) 0.08619(15)
N2 N 0.7286(4) 0.4108(4) 0.07561(14)
C6 C 0.6072(5) 0.5001(5) 0.08532(19)
H4 H 0.5699 0.5505 0.0886
C7 C 0.4710(4) 0.3936(4) 0.02740(16)
H5 H 0.5373 0.4055 0.0274
C8 C 0.7001(5) 0.4968(5) 0.07894(18)
H6 H 0.7408 0.5455 0.0770
C9 C 0.6464(5) 0.2690(5) 0.0768(2)
H7 H 0.5812 0.2498 0.0811
H8 H 0.6896 0.2425 0.0929
H9 H 0.6653 0.2519 0.0544
Ag1_2 Ag -0.1250 0.3750 0.067334(18)
C1M C 0.3261(4) 0.3652(4) 0.05728(16)
C2M C 0.2736(4) 0.3588(4) 0.09005(16)
H1M H 0.3056 0.3153 0.1042
H2M H 0.2773 0.4151 0.1016
C3M C 0.3265(5) 0.3646(5) -0.00280(17)
H3M H 0.2935 0.3562 -0.0231
C4M C 0.0985(5) 0.3845(5) 0.07986(17)
N1M N 0.1744(4) 0.3350(4) 0.08619(15)
N2M N 0.0214(4) 0.3392(4) 0.07561(14)
N2M_2 N 1.0214(4) 0.3392(4) 0.07561(14)
C6M C 0.1428(5) 0.2499(5) 0.08532(19)
H4M H 0.1801 0.1995 0.0886
C7M C 0.2790(4) 0.3564(4) 0.02740(16)
H5M H 0.2127 0.3445 0.0274
C8M C 0.0499(5) 0.2532(5) 0.07894(18)
H6M H 0.0092 0.2045 0.0770
C9M C 0.1036(5) 0.4810(5) 0.0768(2)
H7M H 0.1688 0.5002 0.0811
H8M H 0.0604 0.5075 0.0929
H9M H 0.0847 0.4981 0.0544
F1? F 0.8451(7) 0.0401(2) 0.1343(3)
F4? F 0.8679(10) 0.1298(7) 0.09213(8)
loop_
_geom_bond_atom_site_label_1
_geom_bond_atom_site_label_2
_geom_bond_site_symmetry_1
_geom_bond_site_symmetry_2
Ag1 N2 1_555 1_555
C1 C2 1_555 1_555
C2 H1 1_555 1_555
H2 C2 1_555 1_555
C3 H3 1_555 1_555
C4 N1 1_555 1_555
N1 C2 1_555 1_555
N2 C4 1_555 1_555
N3 C5 1_555 1_555
C5 C10 1_555 1_555
C6 N1 1_555 1_555
H4 C6 1_555 1_555
C7 C1 1_555 1_555
H5 C7 1_555 1_555
C8 N2 1_555 1_555
H6 C8 1_555 1_555
C9 C4 1_555 1_555
H7 C9 1_555 1_555
H8 C9 1_555 1_555
H9 C9 1_555 1_555
C10 H10 1_555 1_555
H11 C10 1_555 1_555
H12 C10 1_555 1_555
B1 F2 1_555 1_555
F3 B1 1_555 1_555
Ag1_2 N2M 1_555 1_555
C1M C1 1_555 1_555
C2M C1M 1_555 1_555
H1M C2M 1_555 1_555
H2M C2M 1_555 1_555
C3M C3 1_555 1_555
H3M C3M 1_555 1_555
C4M N1M 1_555 1_555
N1M C2M 1_555 1_555
N2M C4M 1_555 1_555
N2M_2 Ag1 1_555 1_555
C6M N1M 1_555 1_555
H4M C6M 1_555 1_555
C7M C1M 1_555 1_555
H5M C7M 1_555 1_555
C8M N2M 1_555 1_555
H6M C8M 1_555 1_555
C9M C4M 1_555 1_555
H7M C9M 1_555 1_555
H8M C9M 1_555 1_555
H9M C9M 1_555 1_555
F2B B1 1_555 1_555
F3B B1 1_555 1_555
C3 C7 1_555 1_555
C6 C8 1_555 1_555
F3 F3B 1_555 1_555
C3M C7M 1_555 1_555
C6M C8M 1_555 1_555

#END
