
#######################################################################
#
#                 Cambridge Crystallographic Data Centre
#                                CCDC 
#
#######################################################################
#
# If this CIF has been generated from an entry in the Cambridge 
# Structural Database, then it will include bibliographic, chemical, 
# crystal, experimental, refinement or atomic coordinate data resulting 
# from the CCDC's data processing and validation procedures.
#
#######################################################################

data_TEZMES
_symmetry_cell_setting           triclinic
_symmetry_space_group_name_H-M   'P -1'
_symmetry_Int_Tables_number      2
_space_group_name_Hall           '-P 1'
loop_
_symmetry_equiv_pos_site_id
_symmetry_equiv_pos_as_xyz
1 x,y,z
2 -x,-y,-z
_cell_length_a                   9.409(2)
_cell_length_b                   11.128(3)
_cell_length_c                   11.981(3)
_cell_angle_alpha                105.133(15)
_cell_angle_beta                 91.824(16)
_cell_angle_gamma                112.530(14)
_cell_volume                     1106.23
loop_
_atom_site_label
_atom_site_type_symbol
_atom_site_fract_x
_atom_site_fract_y
_atom_site_fract_z
Ni1 Ni 0.0000 -0.5000 0.5000
Ni2 Ni 0.19682(7) 0.35065(6) 0.10567(6)
O1 O 0.2020(5) -0.4994(4) 0.4367(3)
H1 H 0.279(5) -0.442(5) 0.486(3)
H2 H 0.240(6) -0.503(6) 0.374(3)
O2 O 0.9766(4) 0.3612(4) 0.8917(4)
O3 O 0.9887(4) 0.2262(4) 0.9958(3)
O4 O 0.3135(5) 0.2439(4) 0.0068(4)
H3 H 0.361(6) 0.275(6) -0.045(4)
H4 H 0.383(5) 0.233(7) 0.043(5)
O5 O 0.3786(4) -0.3233(4) 0.6345(4)
O6 O 0.0848(5) 0.4635(4) 0.1970(4)
H5 H 0.060(6) 0.513(5) 0.166(5)
H6 H 0.007(5) 0.430(6) 0.229(5)
O7 O 0.1299(4) -0.3850(4) 0.6637(3)
O8 O 0.2561(5) 0.4861(4) 0.0076(3)
H7 H 0.174(4) 0.455(6) -0.041(4)
H8 H 0.318(5) 0.476(6) -0.040(4)
O9 O 0.6119(5) 0.5105(4) 0.7665(3)
O10 O 0.4270(5) 0.3895(4) 0.8543(4)
O11 O 0.4789(4) -0.1749(4) 0.8681(3)
O12 O 0.4128(4) 0.1510(4) 0.7024(4)
N1 N 0.0251(5) -0.3212(5) 0.4564(4)
N2 N 0.1461(5) 0.2168(4) 0.2074(4)
C1 C 0.9175(6) 0.2579(5) 0.9261(4)
C2 C 0.7503(6) 0.1637(5) 0.8789(4)
C3 C 0.6611(6) 0.2053(5) 0.8149(5)
H9 H 0.7043 0.2907 0.8033
C4 C 0.5092(6) 0.1193(5) 0.7692(5)
C5 C 0.4411(6) -0.0081(6) 0.7865(5)
H10 H 0.3374 -0.0646 0.7569
C6 C 0.5316(6) -0.0490(5) 0.8492(5)
C7 C 0.6856(6) 0.0368(5) 0.8964(4)
H11 H 0.7445 0.0090 0.9394
C8 C 0.3200(6) -0.2637(6) 0.8297(5)
H12 H 0.2569 -0.2133 0.8559
H13 H 0.2939 -0.3359 0.8665
C9 C 0.2775(6) -0.3278(5) 0.6977(5)
C10 C 0.4841(7) 0.2760(5) 0.6748(5)
H14 H 0.4193 0.2741 0.6092
H15 H 0.5837 0.2832 0.6506
C11 C 0.5101(6) 0.4029(5) 0.7767(5)
C12 C 0.1597(7) -0.2115(6) 0.4822(5)
H16 H 0.2421 -0.2118 0.5270
C13 C 0.1842(7) -0.0975(6) 0.4465(5)
H17 H 0.2799 -0.0231 0.4689
C14 C 0.0652(6) -0.0943(5) 0.3770(5)
C15 C 0.0896(6) 0.0173(5) 0.3242(5)
C16 C 0.2291(7) 0.1322(6) 0.3490(5)
H18 H 0.3074 0.1445 0.4056
C17 C 0.2521(6) 0.2276(5) 0.2905(5)
H19 H 0.3463 0.3036 0.3097
C18 C -0.0222(7) 0.0096(6) 0.2413(6)
H20 H -0.1196 -0.0626 0.2234
C19 C 0.0108(7) 0.1088(6) 0.1854(6)
H21 H -0.0659 0.0997 0.1290
C20 C -0.0747(7) -0.2076(6) 0.3524(6)
H22 H -0.1591 -0.2110 0.3071
C21 C -0.0899(7) -0.3147(6) 0.3941(5)
H23 H -0.1867 -0.3874 0.3778
Ni2A Ni -0.19682(7) -1.35065(6) 0.89433(6)
O1A O -0.2020(5) -0.5006(4) 0.5633(3)
H1A H -0.279(5) -0.558(5) 0.514(3)
H2A H -0.240(6) -0.497(6) 0.626(3)
O2A O -0.9766(4) -1.3612(4) 0.1083(4)
O3A O -0.9887(4) -1.2262(4) 0.0042(3)
O4A O -0.3135(5) -1.2439(4) 0.9932(4)
H3A H -0.361(6) -1.275(6) 1.045(4)
H4A H -0.383(5) -1.233(7) 0.957(5)
O5A O -0.3786(4) -0.6767(4) 0.3655(4)
O6A O -0.0848(5) -1.4635(4) 0.8030(4)
H5A H -0.060(6) -1.513(5) 0.834(5)
H6A H -0.007(5) -1.430(6) 0.771(5)
O7A O -0.1299(4) -0.6150(4) 0.3363(3)
O8A O -0.2561(5) -1.4861(4) 0.9924(3)
H7A H -0.174(4) -1.455(6) 1.041(4)
H8A H -0.318(5) -1.476(6) 1.040(4)
O9A O -0.6119(5) -1.5105(4) 0.2335(3)
O10A O -0.4270(5) -1.3895(4) 0.1457(4)
O11A O -0.4789(4) -0.8251(4) 0.1319(3)
O12A O -0.4128(4) -1.1510(4) 0.2976(4)
N1A N -0.0251(5) -0.6788(5) 0.5436(4)
N2A N -0.1461(5) -1.2168(4) 0.7926(4)
C1A C -0.9175(6) -1.2579(5) 0.0739(4)
C2A C -0.7503(6) -1.1637(5) 0.1211(4)
C3A C -0.6611(6) -1.2053(5) 0.1851(5)
H9A H -0.7043 -1.2907 0.1967
C4A C -0.5092(6) -1.1193(5) 0.2308(5)
C5A C -0.4411(6) -0.9919(6) 0.2135(5)
H10A H -0.3374 -0.9354 0.2431
C6A C -0.5316(6) -0.9510(5) 0.1508(5)
C7A C -0.6856(6) -1.0368(5) 0.1036(4)
H11A H -0.7445 -1.0090 0.0606
C8A C -0.3200(6) -0.7363(6) 0.1703(5)
H12A H -0.2569 -0.7867 0.1441
H13A H -0.2939 -0.6641 0.1335
C9A C -0.2775(6) -0.6722(5) 0.3023(5)
C10A C -0.4841(7) -1.2760(5) 0.3252(5)
H14A H -0.4193 -1.2741 0.3908
H15A H -0.5837 -1.2832 0.3494
C11A C -0.5101(6) -1.4029(5) 0.2233(5)
C12A C -0.1597(7) -0.7885(6) 0.5178(5)
H16A H -0.2421 -0.7882 0.4730
C13A C -0.1842(7) -0.9025(6) 0.5535(5)
H17A H -0.2799 -0.9769 0.5311
C14A C -0.0652(6) -0.9057(5) 0.6230(5)
C15A C -0.0896(6) -1.0173(5) 0.6758(5)
C16A C -0.2291(7) -1.1322(6) 0.6510(5)
H18A H -0.3074 -1.1445 0.5944
C17A C -0.2521(6) -1.2276(5) 0.7095(5)
H19A H -0.3463 -1.3036 0.6903
C18A C 0.0222(7) -1.0096(6) 0.7587(6)
H20A H 0.1196 -0.9374 0.7766
C19A C -0.0108(7) -1.1088(6) 0.8146(6)
H21A H 0.0659 -1.0997 0.8710
C20A C 0.0747(7) -0.7924(6) 0.6476(6)
H22A H 0.1591 -0.7890 0.6929
C21A C 0.0899(7) -0.6853(6) 0.6059(5)
H23A H 0.1867 -0.6126 0.6222
Ni2_2 Ni -0.80318(7) -1.64935(6) 0.10567(6)
Ni2_3 Ni 1.19682(7) 0.35065(6) 1.10567(6)
Ni2A_2 Ni -1.19682(7) -1.35065(6) -0.10567(6)
Ni2A_3 Ni 0.80318(7) 0.64935(6) 0.89433(6)
O3_2 O -0.0113(4) 0.2262(4) -0.0042(3)
O3A_2 O 0.0113(4) -1.2262(4) 1.0042(3)
O9_2 O -0.3881(5) -1.4895(4) 0.7665(3)
O9A_2 O 0.3881(5) 0.4895(4) 0.2335(3)
loop_
_geom_bond_atom_site_label_1
_geom_bond_atom_site_label_2
_geom_bond_site_symmetry_1
_geom_bond_site_symmetry_2
Ni1 O1 1_555 1_555
Ni2 O4 1_555 1_555
O1 H1 1_555 1_555
H2 O1 1_555 1_555
O2 C1 1_555 1_555
O3 C1 1_555 1_555
O4 H3 1_555 1_555
H4 O4 1_555 1_555
O5 C9 1_555 1_555
O6 Ni2 1_555 1_555
H5 O6 1_555 1_555
H6 O6 1_555 1_555
O7 Ni1 1_555 1_555
O8 Ni2 1_555 1_555
H7 O8 1_555 1_555
H8 O8 1_555 1_555
O9 C11 1_555 1_555
O10 C11 1_555 1_555
O11 C6 1_555 1_555
O12 C4 1_555 1_555
N1 Ni1 1_555 1_555
N2 Ni2 1_555 1_555
C1 C2 1_555 1_555
C2 C3 1_555 1_555
C3 H9 1_555 1_555
C4 C3 1_555 1_555
C5 C4 1_555 1_555
H10 C5 1_555 1_555
C6 C5 1_555 1_555
C7 C2 1_555 1_555
H11 C7 1_555 1_555
C8 O11 1_555 1_555
H12 C8 1_555 1_555
H13 C8 1_555 1_555
C9 O7 1_555 1_555
C10 O12 1_555 1_555
H14 C10 1_555 1_555
H15 C10 1_555 1_555
C11 C10 1_555 1_555
C12 N1 1_555 1_555
H16 C12 1_555 1_555
C13 C12 1_555 1_555
H17 C13 1_555 1_555
C14 C13 1_555 1_555
C15 C14 1_555 1_555
C16 C15 1_555 1_555
H18 C16 1_555 1_555
C17 N2 1_555 1_555
H19 C17 1_555 1_555
C18 C15 1_555 1_555
H20 C18 1_555 1_555
C19 N2 1_555 1_555
H21 C19 1_555 1_555
C20 C14 1_555 1_555
H22 C20 1_555 1_555
C21 N1 1_555 1_555
H23 C21 1_555 1_555
Ni2A O4A 1_555 1_555
O1A Ni1 1_555 1_555
H1A O1A 1_555 1_555
H2A O1A 1_555 1_555
O2A C1A 1_555 1_555
O3A C1A 1_555 1_555
O4A H3A 1_555 1_555
H4A O4A 1_555 1_555
O5A C9A 1_555 1_555
O6A Ni2A 1_555 1_555
H5A O6A 1_555 1_555
H6A O6A 1_555 1_555
O7A Ni1 1_555 1_555
O8A Ni2A 1_555 1_555
H7A O8A 1_555 1_555
H8A O8A 1_555 1_555
O9A C11A 1_555 1_555
O10A C11A 1_555 1_555
O11A C6A 1_555 1_555
O12A C4A 1_555 1_555
N1A Ni1 1_555 1_555
N2A Ni2A 1_555 1_555
C1A C2A 1_555 1_555
C2A C3A 1_555 1_555
C3A H9A 1_555 1_555
C4A C3A 1_555 1_555
C5A C4A 1_555 1_555
H10A C5A 1_555 1_555
C6A C5A 1_555 1_555
C7A C2A 1_555 1_555
H11A C7A 1_555 1_555
C8A O11A 1_555 1_555
H12A C8A 1_555 1_555
H13A C8A 1_555 1_555
C9A O7A 1_555 1_555
C10A O12A 1_555 1_555
H14A C10A 1_555 1_555
H15A C10A 1_555 1_555
C11A C10A 1_555 1_555
C12A N1A 1_555 1_555
H16A C12A 1_555 1_555
C13A C12A 1_555 1_555
H17A C13A 1_555 1_555
C14A C13A 1_555 1_555
C15A C14A 1_555 1_555
C16A C15A 1_555 1_555
H18A C16A 1_555 1_555
C17A N2A 1_555 1_555
H19A C17A 1_555 1_555
C18A C15A 1_555 1_555
H20A C18A 1_555 1_555
C19A N2A 1_555 1_555
H21A C19A 1_555 1_555
C20A C14A 1_555 1_555
H22A C20A 1_555 1_555
C21A N1A 1_555 1_555
H23A C21A 1_555 1_555
Ni2_2 O9A 1_555 1_555
Ni2_3 O3 1_555 1_555
Ni2A_2 O3A 1_555 1_555
Ni2A_3 O9 1_555 1_555
O3_2 Ni2 1_555 1_555
O3A_2 Ni2A 1_555 1_555
O9_2 Ni2A 1_555 1_555
O9A_2 Ni2 1_555 1_555
C6 C7 1_555 1_555
C8 C9 1_555 1_555
C16 C17 1_555 1_555
C18 C19 1_555 1_555
C20 C21 1_555 1_555
C6A C7A 1_555 1_555
C8A C9A 1_555 1_555
C16A C17A 1_555 1_555
C18A C19A 1_555 1_555
C20A C21A 1_555 1_555

#END
