
#######################################################################
#
#                 Cambridge Crystallographic Data Centre
#                                CCDC 
#
#######################################################################
#
# If this CIF has been generated from an entry in the Cambridge 
# Structural Database, then it will include bibliographic, chemical, 
# crystal, experimental, refinement or atomic coordinate data resulting 
# from the CCDC's data processing and validation procedures.
#
#######################################################################

data_TEZQOF
_symmetry_cell_setting           monoclinic
_symmetry_space_group_name_H-M   'P 2/c'
_symmetry_Int_Tables_number      13
_space_group_name_Hall           '-P 2yc'
loop_
_symmetry_equiv_pos_site_id
_symmetry_equiv_pos_as_xyz
1 x,y,z
2 -x,y,1/2-z
3 -x,-y,-z
4 x,-y,1/2+z
_cell_length_a                   6.770(3)
_cell_length_b                   11.437(3)
_cell_length_c                   12.383(4)
_cell_angle_alpha                90
_cell_angle_beta                 103.73(2)
_cell_angle_gamma                90
_cell_volume                     931.399
loop_
_atom_site_label
_atom_site_type_symbol
_atom_site_fract_x
_atom_site_fract_y
_atom_site_fract_z
Fe1 Fe 0.5000 -0.85609(3) 0.7500
O1 O 0.2327(3) -0.86824(15) 0.62069(15)
H1 H 0.151(4) -0.920(2) 0.621(3)
H2 H 0.194(5) -0.831(3) 0.5617(19)
O2 O 0.6925(3) -0.85009(15) 0.63345(14)
H3 H 0.776(4) -0.901(2) 0.630(3)
H4 H 0.759(4) -0.7866(19) 0.631(3)
N1 N 0.5000 -0.6673(2) 0.7500
N2 N 0.5000 -0.0472(2) 0.7500
C1 C 0.4309(3) -0.60581(18) 0.65661(19)
H5 H 0.3834 -0.6466 0.5906
C2 C 0.4263(3) -0.48588(18) 0.65292(18)
H6 H 0.3743 -0.4474 0.5861
C3 C 0.5000 -0.4223(2) 0.7500
C4 C 0.5000 -0.2927(2) 0.7500
C5 C 0.5381(3) -0.22877(17) 0.84897(17)
H7 H 0.5650 -0.2673 0.9171
C6 C 0.5358(3) -0.10841(17) 0.84508(18)
H8 H 0.5602 -0.0675 0.9118
Fe1_2 Fe 0.5000 0.14391(3) 0.7500
O1A O 0.7673(3) -0.86824(15) 0.87931(15)
H1A H 0.849(4) -0.920(2) 0.879(3)
H2A H 0.806(5) -0.831(3) 0.9383(19)
O2A O 0.3075(3) -0.85009(15) 0.86655(14)
H3A H 0.224(4) -0.901(2) 0.870(3)
H4A H 0.241(4) -0.7866(19) 0.869(3)
N2_2 N 0.5000 -1.0472(2) 0.7500
C1A C 0.5691(3) -0.60581(18) 0.84339(19)
H5A H 0.6166 -0.6466 0.9094
C2A C 0.5737(3) -0.48588(18) 0.84708(18)
H6A H 0.6257 -0.4474 0.9139
C5A C 0.4619(3) -0.22877(17) 0.65103(17)
H7A H 0.4350 -0.2673 0.5829
C6A C 0.4642(3) -0.10841(17) 0.65492(18)
H8A H 0.4398 -0.0675 0.5882
C7 C 1.0000 -0.3303(2) 0.7500
C8 C 0.9503(3) -0.25340(18) 0.65137(16)
C9 C 0.9715(3) -0.13185(18) 0.68989(17)
O3 O 0.9430(3) -0.04340(14) 0.62667(14)
O4 O 0.8993(3) -0.28547(14) 0.55296(12)
O5 O 1.0000 -0.43783(19) 0.7500
C8A C 1.0497(3) -0.25340(18) 0.84863(16)
C9A C 1.0285(3) -0.13185(18) 0.81011(17)
O3A O 1.0570(3) -0.04340(14) 0.87333(14)
O4A O 1.1007(3) -0.28547(14) 0.94704(12)
O6 O 0.8637(3) -0.63488(17) 0.59584(17)
H9 H 0.943(5) -0.645(3) 0.556(3)
H10 H 0.898(5) -0.579(2) 0.637(3)
loop_
_geom_bond_atom_site_label_1
_geom_bond_atom_site_label_2
_geom_bond_site_symmetry_1
_geom_bond_site_symmetry_2
Fe1 O1 1_555 1_555
O1 H1 1_555 1_555
H2 O1 1_555 1_555
O2 Fe1 1_555 1_555
H3 O2 1_555 1_555
H4 O2 1_555 1_555
N1 Fe1 1_555 1_555
N2 C6 1_555 1_555
C1 N1 1_555 1_555
H5 C1 1_555 1_555
C2 C1 1_555 1_555
H6 C2 1_555 1_555
C3 C2 1_555 1_555
C4 C3 1_555 1_555
C5 C4 1_555 1_555
H7 C5 1_555 1_555
C6 C5 1_555 1_555
H8 C6 1_555 1_555
C7 C8 1_555 1_555
C8 C9 1_555 1_555
C9 O3 1_555 1_555
O4 C8 1_555 1_555
O5 C7 1_555 1_555
O6 H9 1_555 1_555
H10 O6 1_555 1_555
Fe1_2 N2 1_555 1_555
O1A Fe1 1_555 1_555
H1A O1A 1_555 1_555
H2A O1A 1_555 1_555
O2A Fe1 1_555 1_555
H3A O2A 1_555 1_555
H4A O2A 1_555 1_555
N2_2 Fe1 1_555 1_555
C1A N1 1_555 1_555
H5A C1A 1_555 1_555
C2A C3 1_555 1_555
H6A C2A 1_555 1_555
C5A C4 1_555 1_555
H7A C5A 1_555 1_555
C6A N2 1_555 1_555
H8A C6A 1_555 1_555
C8A C7 1_555 1_555
C9A C9 1_555 1_555
O3A C9A 1_555 1_555
O4A C8A 1_555 1_555
C1A C2A 1_555 1_555
C5A C6A 1_555 1_555
C8A C9A 1_555 1_555

#END
