
#######################################################################
#
#                 Cambridge Crystallographic Data Centre
#                                CCDC 
#
#######################################################################
#
# If this CIF has been generated from an entry in the Cambridge 
# Structural Database, then it will include bibliographic, chemical, 
# crystal, experimental, refinement or atomic coordinate data resulting 
# from the CCDC's data processing and validation procedures.
#
#######################################################################

data_TEZQUL
_symmetry_cell_setting           monoclinic
_symmetry_space_group_name_H-M   'P 21/c'
_symmetry_Int_Tables_number      14
_space_group_name_Hall           '-P 2ybc'
loop_
_symmetry_equiv_pos_site_id
_symmetry_equiv_pos_as_xyz
1 x,y,z
2 -x,1/2+y,1/2-z
3 -x,-y,-z
4 x,1/2-y,1/2+z
_cell_length_a                   16.858(2)
_cell_length_b                   13.6388(19)
_cell_length_c                   17.692(2)
_cell_angle_alpha                90
_cell_angle_beta                 113.899(3)
_cell_angle_gamma                90
_cell_volume                     3719.03
loop_
_atom_site_label
_atom_site_type_symbol
_atom_site_fract_x
_atom_site_fract_y
_atom_site_fract_z
Co1 Co 0.44880(5) 0.66722(5) 0.17438(4)
Co2 Co -0.07098(5) 0.31781(6) 0.30374(4)
O1 O 0.4760(3) 0.7343(3) 0.0813(2)
H1 H 0.434(4) 0.752(5) 0.060(4)
H2 H 0.502(4) 0.696(4) 0.057(3)
O2 O 0.3931(3) 0.7952(3) 0.1919(2)
H3 H 0.393(4) 0.812(4) 0.234(4)
H4 H 0.349(4) 0.804(4) 0.152(4)
O3 O -0.0852(3) 0.4508(3) 0.2406(2)
H5 H -0.126(3) 0.457(5) 0.198(2)
H6 H -0.084(4) 0.500(3) 0.268(3)
O4 O -0.1172(3) 0.3919(3) 0.3784(2)
H7 H -0.166(4) 0.422(5) 0.352(4)
H8 H -0.117(4) 0.375(5) 0.423(4)
N1 N 0.4254(3) 0.5826(3) 0.2628(3)
N2 N 0.0603(3) 0.3541(3) 0.3752(3)
N3 N 0.5735(3) 0.7124(3) 0.2644(3)
N4 N 0.9324(3) 1.1771(3) 0.3570(3)
C1 C 0.3614(4) 0.5966(4) 0.2881(3)
H9 H 0.3212 0.6481 0.2636
C2 C 0.3510(4) 0.5400(4) 0.3480(4)
H10 H 0.3044 0.5519 0.3640
C3 C 0.4101(4) 0.4652(4) 0.3842(3)
C4 C 0.4748(4) 0.4476(4) 0.3562(3)
H11 H 0.5145 0.3951 0.3783
C5 C 0.4803(4) 0.5069(4) 0.2965(3)
H12 H 0.5247 0.4945 0.2777
S1 S 0.41047(10) 0.38839(10) 0.46615(9)
S2 S 0.33718(10) 0.46222(11) 0.51418(9)
C6 C 0.1192(4) 0.3394(5) 0.3447(4)
H13 H 0.1018 0.3068 0.2930
C7 C 0.2051(4) 0.3691(5) 0.3841(4)
H14 H 0.2455 0.3572 0.3602
C8 C 0.2297(4) 0.4162(4) 0.4586(3)
C9 C 0.1707(4) 0.4309(4) 0.4918(4)
H15 H 0.1868 0.4629 0.5436
C10 C 0.0879(4) 0.3988(4) 0.4490(3)
H16 H 0.0472 0.4087 0.4728
C11 C 0.5814(4) 0.7368(4) 0.3398(3)
H17 H 0.5326 0.7284 0.3532
C12 C 0.6571(4) 0.7740(4) 0.3999(3)
H18 H 0.6605 0.7887 0.4537
C13 C 0.7274(4) 0.7894(4) 0.3804(4)
C14 C 0.7212(4) 0.7633(4) 0.3020(3)
H19 H 0.7690 0.7712 0.2871
C15 C 0.6426(4) 0.7253(4) 0.2465(4)
H20 H 0.6378 0.7077 0.1928
S3 S 0.82125(10) 0.83747(11) 0.46273(9)
S4 S 0.91462(10) 0.85346(11) 0.41835(10)
C16 C 0.8676(4) 1.1471(4) 0.3792(3)
H21 H 0.8270 1.1944 0.3809
C17 C 0.8582(4) 1.0516(4) 0.3992(4)
H22 H 0.8124 1.0340 0.4148
C18 C 0.9162(4) 0.9811(4) 0.3963(3)
C19 C 0.9834(4) 1.0102(5) 0.3757(4)
H23 H 1.0253 0.9643 0.3747
C20 C 0.9883(4) 1.1075(4) 0.3568(3)
H24 H 1.0347 1.1265 0.3425
O5 O 0.3225(2) 0.6316(2) 0.0803(2)
O6 O 0.4834(3) 0.5339(3) 0.1299(2)
O7 O 0.4687(3) 0.3761(3) 0.0120(2)
O8 O 0.2925(3) 0.3915(3) -0.1247(2)
O9 O 0.2000(3) 0.5506(3) -0.0817(2)
O10 O -0.2521(2) 0.1565(3) -0.0520(2)
O11 O -0.3383(2) 0.2337(3) 0.0566(2)
O12 O -0.1978(2) 0.2817(3) 0.2154(2)
O13 O -0.0360(2) 0.2477(3) 0.2098(2)
O14 O -0.0681(3) 0.1613(3) 0.0416(2)
C21 C 0.3357(4) 0.5638(4) 0.0385(3)
C22 C 0.4175(4) 0.5129(4) 0.0646(3)
C23 C 0.4113(4) 0.4370(4) 0.0050(3)
C24 C 0.3222(4) 0.4436(4) -0.0627(3)
C25 C 0.2754(4) 0.5238(4) -0.0411(3)
C26 C -0.2172(4) 0.1858(4) 0.0199(3)
C27 C -0.2595(4) 0.2236(4) 0.0730(3)
C28 C -0.1897(4) 0.2480(4) 0.1521(3)
C29 C -0.1073(4) 0.2288(4) 0.1491(3)
C30 C -0.1222(4) 0.1888(4) 0.0686(3)
Co2_2 Co 0.92902(5) 1.31781(6) 0.30374(4)
N4_2 N -0.0676(3) 0.1771(3) 0.3570(3)
O15 O 0.9095(3) 0.6232(3) 0.3187(3)
H25 H 0.929(5) 0.667(4) 0.299(4)
H26 H 0.919(5) 0.597(5) 0.363(2)
O16 O 0.6193(3) 0.3650(3) 0.1699(3)
H27 H 0.642(5) 0.330(5) 0.150(4)
H28 H 0.576(5) 0.383(5) 0.135(4)
O17 O 0.7390(3) 0.4941(3) 0.2870(3)
H29 H 0.740(5) 0.539(3) 0.260(4)
H30 H 0.704(4) 0.458(4) 0.255(3)
loop_
_geom_bond_atom_site_label_1
_geom_bond_atom_site_label_2
_geom_bond_site_symmetry_1
_geom_bond_site_symmetry_2
Co1 O1 1_555 1_555
Co2 O3 1_555 1_555
O1 H1 1_555 1_555
H2 O1 1_555 1_555
O2 Co1 1_555 1_555
H3 O2 1_555 1_555
H4 O2 1_555 1_555
O3 H5 1_555 1_555
H6 O3 1_555 1_555
O4 Co2 1_555 1_555
H7 O4 1_555 1_555
H8 O4 1_555 1_555
N1 Co1 1_555 1_555
N2 Co2 1_555 1_555
N3 Co1 1_555 1_555
N4 C16 1_555 1_555
C1 N1 1_555 1_555
H9 C1 1_555 1_555
C2 C1 1_555 1_555
H10 C2 1_555 1_555
C3 C2 1_555 1_555
C4 C3 1_555 1_555
H11 C4 1_555 1_555
C5 N1 1_555 1_555
H12 C5 1_555 1_555
S1 C3 1_555 1_555
S2 S1 1_555 1_555
C6 N2 1_555 1_555
H13 C6 1_555 1_555
C7 C6 1_555 1_555
H14 C7 1_555 1_555
C8 S2 1_555 1_555
C9 C8 1_555 1_555
H15 C9 1_555 1_555
C10 N2 1_555 1_555
H16 C10 1_555 1_555
C11 N3 1_555 1_555
H17 C11 1_555 1_555
C12 C11 1_555 1_555
H18 C12 1_555 1_555
C13 C12 1_555 1_555
C14 C13 1_555 1_555
H19 C14 1_555 1_555
C15 N3 1_555 1_555
H20 C15 1_555 1_555
S3 C13 1_555 1_555
S4 S3 1_555 1_555
C16 H21 1_555 1_555
C17 C16 1_555 1_555
H22 C17 1_555 1_555
C18 S4 1_555 1_555
C19 C18 1_555 1_555
H23 C19 1_555 1_555
C20 N4 1_555 1_555
H24 C20 1_555 1_555
O5 Co1 1_555 1_555
O6 Co1 1_555 1_555
O7 C23 1_555 1_555
O8 C24 1_555 1_555
O9 C25 1_555 1_555
O10 C26 1_555 1_555
O11 C27 1_555 1_555
O12 Co2 1_555 1_555
O13 Co2 1_555 1_555
O14 C30 1_555 1_555
C21 O5 1_555 1_555
C22 O6 1_555 1_555
C23 C22 1_555 1_555
C24 C23 1_555 1_555
C25 C21 1_555 1_555
C26 C27 1_555 1_555
C27 C28 1_555 1_555
C28 O12 1_555 1_555
C29 O13 1_555 1_555
C30 C26 1_555 1_555
O15 H25 1_555 1_555
H26 O15 1_555 1_555
O16 H27 1_555 1_555
H28 O16 1_555 1_555
O17 H29 1_555 1_555
H30 O17 1_555 1_555
Co2_2 N4 1_555 1_555
N4_2 Co2 1_555 1_555
C4 C5 1_555 1_555
C7 C8 1_555 1_555
C9 C10 1_555 1_555
C14 C15 1_555 1_555
C17 C18 1_555 1_555
C19 C20 1_555 1_555
C21 C22 1_555 1_555
C24 C25 1_555 1_555
C28 C29 1_555 1_555
C29 C30 1_555 1_555

#END
