
#######################################################################
#
#                 Cambridge Crystallographic Data Centre
#                                CCDC 
#
#######################################################################
#
# If this CIF has been generated from an entry in the Cambridge 
# Structural Database, then it will include bibliographic, chemical, 
# crystal, experimental, refinement or atomic coordinate data resulting 
# from the CCDC's data processing and validation procedures.
#
#######################################################################

data_TEZVIF
_symmetry_cell_setting           triclinic
_symmetry_space_group_name_H-M   'P -1'
_symmetry_Int_Tables_number      2
_space_group_name_Hall           '-P 1'
loop_
_symmetry_equiv_pos_site_id
_symmetry_equiv_pos_as_xyz
1 x,y,z
2 -x,-y,-z
_cell_length_a                   9.044(5)
_cell_length_b                   9.047(5)
_cell_length_c                   13.506(5)
_cell_angle_alpha                102.100(5)
_cell_angle_beta                 99.975(5)
_cell_angle_gamma                106.945(5)
_cell_volume                     1000.65
loop_
_atom_site_label
_atom_site_type_symbol
_atom_site_fract_x
_atom_site_fract_y
_atom_site_fract_z
Cu1 Cu 0.5000 0.0000 0.5000
Cu2 Cu 1.0000 0.0000 0.5000
C1 C 0.7338(7) -0.3067(6) 0.3756(4)
H1 H 0.6766 -0.2773 0.4227
C2 C 0.6682(7) -0.4562(7) 0.3033(5)
H2 H 0.5658 -0.5226 0.2992
C3 C 0.7551(7) -0.5063(7) 0.2375(4)
H3 H 0.716(7) -0.602(7) 0.204(4)
C4 C 0.9044(6) -0.4010(6) 0.2428(4)
C5 C 0.9553(7) -0.2497(6) 0.3130(4)
H4 H 1.049(7) -0.175(7) 0.318(4)
C6 C 1.0252(6) -0.4374(6) 0.1887(4)
C7 C 1.0798(6) -0.6423(6) 0.0622(4)
C8 C 1.0048(7) -0.7841(7) -0.0192(4)
H5 H 0.8945 -0.8320 -0.0352
C9 C 1.0902(7) -0.8531(7) -0.0753(4)
H6 H 1.0370 -0.9459 -0.1301
C10 C 1.2542(6) -0.7880(6) -0.0523(3)
C11 C 1.3314(7) -0.6476(6) 0.0289(4)
H7 H 1.4420 -0.6016 0.0455
C12 C 1.2440(7) -0.5762(7) 0.0851(5)
H8 H 1.291(7) -0.489(8) 0.134(5)
C13 C 1.4891(6) -0.8580(6) -0.0891(4)
C14 C 1.5117(6) -0.9307(6) -0.2750(3)
H9 H 1.456(6) -0.859(7) -0.296(4)
C15 C 1.5408(5) -0.9476(6) -0.1747(3)
C16 C 1.6285(6) -1.0456(6) -0.1532(4)
H10 H 1.6500 -1.0599 -0.0866
C17 C 1.6828(6) -1.1209(7) -0.2308(4)
H11 H 1.7414 -1.1871 -0.2181
C18 C 1.6481(6) -1.0958(7) -0.3292(4)
H12 H 1.694(7) -1.133(7) -0.377(5)
C19 C 0.9583(6) 0.1879(6) 0.3615(4)
C20 C 0.7470(5) 0.2196(6) 0.5059(4)
C21 C 0.9789(5) 0.3471(5) 0.4361(3)
C22 C 0.8771(5) 0.3661(5) 0.5010(3)
C23 C 0.8986(5) 0.5176(6) 0.5634(4)
H13 H 0.841(6) 0.529(6) 0.607(4)
N1 N 0.8743(5) -0.2041(5) 0.3804(3)
N2 N 1.5636(4) -1.0040(5) -0.3516(3)
N3 N 0.9815(6) -0.5792(6) 0.1161(4)
H14 H 0.892(8) -0.621(7) 0.101(5)
N4 N 1.3358(5) -0.8642(5) -0.1152(3)
H15 H 1.2813 -0.9211 -0.1773
O1 O 0.6262(4) 0.2409(4) 0.5304(3)
O2 O 0.7629(4) 0.0848(4) 0.4847(3)
O3 O 1.0459(4) 0.1095(4) 0.3934(3)
O4 O 0.8684(5) 0.1482(5) 0.2751(3)
O5 O 1.1606(5) -0.3417(6) 0.2137(4)
O6 O 1.5836(5) -0.7858(5) -0.0033(3)
C19A C 1.0417(6) 0.8121(6) 0.6385(4)
C20A C 1.2530(5) 0.7804(6) 0.4941(4)
C21A C 1.0211(5) 0.6529(5) 0.5639(3)
C22A C 1.1229(5) 0.6339(5) 0.4990(3)
C23A C 1.1014(5) 0.4824(6) 0.4366(4)
H13A H 1.159(6) 0.471(6) 0.393(4)
O1A O 1.3738(4) 0.7591(4) 0.4696(3)
O2A O 1.2371(4) 0.9152(4) 0.5153(3)
O3A O 0.9541(4) 0.8905(4) 0.6066(3)
O4A O 1.1316(5) 0.8518(5) 0.7249(3)
C1A C 1.2662(7) -0.6933(6) -0.3756(4)
H1A H 1.3234 -0.7227 -0.4227
C2A C 1.3318(7) -0.5438(7) -0.3033(5)
H2A H 1.4342 -0.4774 -0.2992
C3A C 1.2449(7) -0.4937(7) -0.2375(4)
H3A H 1.284(7) -0.398(7) -0.204(4)
C4A C 1.0956(6) -0.5990(6) -0.2428(4)
C5A C 1.0447(7) -0.7503(6) -0.3130(4)
H4A H 0.951(7) -0.825(7) -0.318(4)
C6A C 0.9748(6) -0.5626(6) -0.1887(4)
C7A C 0.9202(6) -0.3577(6) -0.0622(4)
C8A C 0.9952(7) -0.2159(7) 0.0192(4)
H5A H 1.1055 -0.1680 0.0352
C9A C 0.9098(7) -0.1469(7) 0.0753(4)
H6A H 0.9630 -0.0541 0.1301
C10A C 0.7458(6) -0.2120(6) 0.0523(3)
C11A C 0.6686(7) -0.3524(6) -0.0289(4)
H7A H 0.5580 -0.3984 -0.0455
C12A C 0.7560(7) -0.4238(7) -0.0851(5)
H8A H 0.709(7) -0.511(8) -0.134(5)
C13A C 0.5109(6) -0.1420(6) 0.0891(4)
C14A C 0.4883(6) -0.0693(6) 0.2750(3)
H9A H 0.544(6) -0.141(7) 0.296(4)
C15A C 0.4592(5) -0.0524(6) 0.1747(3)
C16A C 0.3715(6) 0.0456(6) 0.1532(4)
H10A H 0.3500 0.0599 0.0866
C17A C 0.3172(6) 0.1209(7) 0.2308(4)
H11A H 0.2586 0.1871 0.2181
C18A C 0.3519(6) 0.0958(7) 0.3292(4)
H12A H 0.306(7) 0.133(7) 0.377(5)
N1A N 1.1257(5) -0.7959(5) -0.3804(3)
N2A N 0.4364(4) 0.0040(5) 0.3516(3)
N3A N 1.0185(6) -0.4208(6) -0.1161(4)
H14A H 1.108(8) -0.379(7) -0.101(5)
N4A N 0.6642(5) -0.1358(5) 0.1152(3)
H15A H 0.7187 -0.0789 0.1773
O5A O 0.8394(5) -0.6583(6) -0.2137(4)
O6A O 0.4164(5) -0.2142(5) 0.0033(3)
Cu1_2 Cu 1.5000 -1.0000 -0.5000
Cu1_3 Cu 1.5000 1.0000 0.5000
Cu2_2 Cu 1.0000 -1.0000 -0.5000
Cu2_3 Cu 1.0000 1.0000 0.5000
N1A_2 N 1.1257(5) 0.2041(5) 0.6196(3)
N2_2 N 0.5636(4) -0.0040(5) 0.6484(3)
O1A_2 O 0.3738(4) -0.2409(4) 0.4696(3)
O2A_2 O 0.2371(4) -0.0848(4) 0.5153(3)
O2A_3 O 1.2371(4) -0.0848(4) 0.5153(3)
O3A_2 O 0.9541(4) -0.1095(4) 0.6066(3)
loop_
_geom_bond_atom_site_label_1
_geom_bond_atom_site_label_2
_geom_bond_site_symmetry_1
_geom_bond_site_symmetry_2
Cu1 O1 1_555 1_555
Cu2 N1 1_555 1_555
C1 H1 1_555 1_555
C2 C1 1_555 1_555
H2 C2 1_555 1_555
C3 C2 1_555 1_555
H3 C3 1_555 1_555
C4 C3 1_555 1_555
C5 C4 1_555 1_555
H4 C5 1_555 1_555
C6 C4 1_555 1_555
C7 C8 1_555 1_555
C8 H5 1_555 1_555
C9 C8 1_555 1_555
H6 C9 1_555 1_555
C10 C9 1_555 1_555
C11 C10 1_555 1_555
H7 C11 1_555 1_555
C12 C7 1_555 1_555
H8 C12 1_555 1_555
C13 C15 1_555 1_555
C14 H9 1_555 1_555
C15 C14 1_555 1_555
C16 C15 1_555 1_555
H10 C16 1_555 1_555
C17 C16 1_555 1_555
H11 C17 1_555 1_555
C18 C17 1_555 1_555
H12 C18 1_555 1_555
C19 C21 1_555 1_555
C20 C22 1_555 1_555
C21 C22 1_555 1_555
C22 C23 1_555 1_555
C23 H13 1_555 1_555
N1 C1 1_555 1_555
N2 C14 1_555 1_555
N3 C6 1_555 1_555
H14 N3 1_555 1_555
N4 C10 1_555 1_555
H15 N4 1_555 1_555
O1 C20 1_555 1_555
O2 Cu1 1_555 1_555
O3 Cu2 1_555 1_555
O4 C19 1_555 1_555
O5 C6 1_555 1_555
O6 C13 1_555 1_555
C19A C21A 1_555 1_555
C20A C22A 1_555 1_555
C21A C23 1_555 1_555
C22A C21A 1_555 1_555
C23A C21 1_555 1_555
H13A C23A 1_555 1_555
O1A C20A 1_555 1_555
O2A C20A 1_555 1_555
O3A C19A 1_555 1_555
O4A C19A 1_555 1_555
C1A H1A 1_555 1_555
C2A C1A 1_555 1_555
H2A C2A 1_555 1_555
C3A C2A 1_555 1_555
H3A C3A 1_555 1_555
C4A C3A 1_555 1_555
C5A C4A 1_555 1_555
H4A C5A 1_555 1_555
C6A C4A 1_555 1_555
C7A C8A 1_555 1_555
C8A H5A 1_555 1_555
C9A C8A 1_555 1_555
H6A C9A 1_555 1_555
C10A C9A 1_555 1_555
C11A C10A 1_555 1_555
H7A C11A 1_555 1_555
C12A C7A 1_555 1_555
H8A C12A 1_555 1_555
C13A C15A 1_555 1_555
C14A H9A 1_555 1_555
C15A C14A 1_555 1_555
C16A C15A 1_555 1_555
H10A C16A 1_555 1_555
C17A C16A 1_555 1_555
H11A C17A 1_555 1_555
C18A C17A 1_555 1_555
H12A C18A 1_555 1_555
N1A C1A 1_555 1_555
N2A Cu1 1_555 1_555
N3A C6A 1_555 1_555
H14A N3A 1_555 1_555
N4A C10A 1_555 1_555
H15A N4A 1_555 1_555
O5A C6A 1_555 1_555
O6A C13A 1_555 1_555
Cu1_2 N2 1_555 1_555
Cu1_3 O1A 1_555 1_555
Cu2_2 N1A 1_555 1_555
Cu2_3 O2A 1_555 1_555
N1A_2 Cu2 1_555 1_555
N2_2 Cu1 1_555 1_555
O1A_2 Cu1 1_555 1_555
O2A_2 Cu1 1_555 1_555
O2A_3 Cu2 1_555 1_555
O3A_2 Cu2 1_555 1_555
Cu2 O2 1_555 1_555
C5 N1 1_555 1_555
C7 N3 1_555 1_555
C11 C12 1_555 1_555
C13 N4 1_555 1_555
C18 N2 1_555 1_555
C19 O3 1_555 1_555
C20 O2 1_555 1_555
C22A C23A 1_555 1_555
O2A Cu1_3 1_555 1_555
O3A Cu2_3 1_555 1_555
C5A N1A 1_555 1_555
C7A N3A 1_555 1_555
C11A C12A 1_555 1_555
C13A N4A 1_555 1_555
C14A N2A 1_555 1_555
C18A N2A 1_555 1_555

#END
