
#######################################################################
#
#                 Cambridge Crystallographic Data Centre
#                                CCDC 
#
#######################################################################
#
# If this CIF has been generated from an entry in the Cambridge 
# Structural Database, then it will include bibliographic, chemical, 
# crystal, experimental, refinement or atomic coordinate data resulting 
# from the CCDC's data processing and validation procedures.
#
#######################################################################

data_TEZVOL
_symmetry_cell_setting           monoclinic
_symmetry_space_group_name_H-M   'P 21/c'
_symmetry_Int_Tables_number      14
_space_group_name_Hall           '-P 2ybc'
loop_
_symmetry_equiv_pos_site_id
_symmetry_equiv_pos_as_xyz
1 x,y,z
2 -x,1/2+y,1/2-z
3 -x,-y,-z
4 x,1/2-y,1/2+z
_cell_length_a                   13.9126(15)
_cell_length_b                   10.0812(11)
_cell_length_c                   17.1931(18)
_cell_angle_alpha                90
_cell_angle_beta                 92.265(2)
_cell_angle_gamma                90
_cell_volume                     2409.55
loop_
_atom_site_label
_atom_site_type_symbol
_atom_site_fract_x
_atom_site_fract_y
_atom_site_fract_z
Cu1 Cu 0.56555(4) 0.66800(5) -0.00224(3)
Cu2 Cu 0.5000 1.0000 0.0000
C1 C 1.2176(5) 0.9390(13) 0.8417(4)
H1 H 1.2663 1.0010 0.8506
C2 C 1.1709(4) 0.9406(8) 0.7745(4)
H2 H 1.1889 1.0008 0.7367
C3 C 1.0951(4) 0.8547(5) 0.7580(3)
C4 C 1.0699(5) 0.7656(6) 0.8142(3)
H3 H 1.0189 0.7069 0.8066
C5 C 1.1275(8) 0.7691(8) 0.8851(4)
H4 H 1.1146 0.7094 0.9245
C6 C 1.0407(4) 0.8689(5) 0.6811(3)
C7 C 0.9583(4) 0.7391(5) 0.5752(3)
C8 C 0.9345(4) 0.6138(5) 0.5513(3)
H5 H 0.9531 0.5417 0.5821
C9 C 0.8833(4) 0.5925(5) 0.4825(3)
H6 H 0.8677 0.5064 0.4672
C10 C 0.8551(3) 0.6966(5) 0.4363(3)
C11 C 0.8772(4) 0.8234(5) 0.4601(3)
H7 H 0.8579 0.8947 0.4290
C12 C 0.9276(4) 0.8466(5) 0.5294(3)
H8 H 0.9409 0.9330 0.5455
C13 C 0.8152(3) 0.5914(4) 0.3090(3)
C14 C 0.7527(3) 0.6070(4) 0.2364(3)
C15 C 0.7727(4) 0.5343(5) 0.1706(3)
H9 H 0.8253 0.4774 0.1718
C16 C 0.7162(4) 0.5450(5) 0.1041(3)
H10 H 0.7305 0.4926 0.0616
C17 C 0.6201(3) 0.6954(5) 0.1619(3)
H11 H 0.5667 0.7509 0.1593
C18 C 0.6717(3) 0.6884(5) 0.2310(3)
H12 H 0.6531 0.7372 0.2738
C19 C 0.6982(5) 0.2347(7) -0.0594(3)
C20 C 0.6282(3) 0.4999(4) -0.1093(3)
C21 C 0.5404(3) 0.3129(5) -0.3714(3)
C22 C 0.6268(4) 0.1470(5) -0.1848(3)
H13 H 0.6391 0.0617 -0.1664
C23 C 0.5913(3) 0.1656(4) -0.2607(3)
H14 H 0.5788 0.0928 -0.2928
C24 C 0.5747(3) 0.2923(4) -0.2883(2)
C25 C 0.5897(3) 0.4002(4) -0.2389(2)
H15 H 0.5772 0.4855 -0.2572
C26 C 0.6230(3) 0.3822(4) -0.1628(2)
C27 C 0.6441(4) 0.2546(5) -0.1363(2)
O1 O 0.6784(4) 0.1266(4) -0.0235(2)
O2 O 1.0239(3) 0.9795(4) 0.6556(2)
O3 O 0.8747(3) 0.5018(4) 0.3148(2)
O4 O 0.6713(3) 0.6015(3) -0.12982(19)
O5 O 0.5821(2) 0.4906(3) -0.04756(16)
O6 O 0.5784(3) 0.8521(3) 0.0230(2)
O7 O 0.5311(3) 0.4315(3) -0.39446(18)
O8 O 0.5245(3) 0.2091(3) -0.41094(18)
O9 O 0.7573(3) 0.3160(5) -0.0368(2)
N1 N 1.2002(5) 0.8571(9) 0.8961(4)
N2 N 0.6411(3) 0.6276(4) 0.0976(2)
N3 N 1.0120(3) 0.7548(4) 0.6469(2)
H16 H 1.0280 0.6830 0.6711
N4 N 0.8023(3) 0.6826(4) 0.3641(2)
H17 H 0.7569 0.7391 0.3549
Cu1B Cu 0.43445(4) 0.33200(5) 0.00224(3)
C1B C -0.2176(5) 0.0610(13) -0.8417(4)
H1B H -0.2663 -0.0010 -0.8506
C2B C -0.1709(4) 0.0594(8) -0.7745(4)
H2B H -0.1889 -0.0008 -0.7367
C3B C -0.0951(4) 0.1453(5) -0.7580(3)
C4B C -0.0699(5) 0.2344(6) -0.8142(3)
H3B H -0.0189 0.2931 -0.8066
C5B C -0.1275(8) 0.2309(8) -0.8851(4)
H4B H -0.1146 0.2906 -0.9245
C6B C -0.0407(4) 0.1311(5) -0.6811(3)
C7B C 0.0417(4) 0.2609(5) -0.5752(3)
C8B C 0.0655(4) 0.3862(5) -0.5513(3)
H5B H 0.0469 0.4583 -0.5821
C9B C 0.1167(4) 0.4075(5) -0.4825(3)
H6B H 0.1323 0.4936 -0.4672
C10B C 0.1449(3) 0.3034(5) -0.4363(3)
C11B C 0.1228(4) 0.1766(5) -0.4601(3)
H7B H 0.1421 0.1053 -0.4290
C12B C 0.0724(4) 0.1534(5) -0.5294(3)
H8B H 0.0591 0.0670 -0.5455
C13B C 0.1848(3) 0.4086(4) -0.3090(3)
C14B C 0.2473(3) 0.3930(4) -0.2364(3)
C15B C 0.2273(4) 0.4657(5) -0.1706(3)
H9B H 0.1747 0.5226 -0.1718
C16B C 0.2838(4) 0.4550(5) -0.1041(3)
H10B H 0.2695 0.5074 -0.0616
C17B C 0.3799(3) 0.3046(5) -0.1619(3)
H11B H 0.4333 0.2491 -0.1593
C18B C 0.3283(3) 0.3116(5) -0.2310(3)
H12B H 0.3469 0.2628 -0.2738
C19B C 0.3018(5) 0.7653(7) 0.0594(3)
C20B C 0.3718(3) 0.5001(4) 0.1093(3)
C21B C 0.4596(3) 0.6871(5) 0.3714(3)
C22B C 0.3732(4) 0.8530(5) 0.1848(3)
H13B H 0.3609 0.9383 0.1664
C23B C 0.4087(3) 0.8344(4) 0.2607(3)
H14B H 0.4212 0.9072 0.2928
C24B C 0.4253(3) 0.7077(4) 0.2883(2)
C25B C 0.4103(3) 0.5998(4) 0.2389(2)
H15B H 0.4228 0.5145 0.2572
C26B C 0.3770(3) 0.6178(4) 0.1628(2)
C27B C 0.3559(4) 0.7454(5) 0.1363(2)
O1B O 0.3216(4) 0.8734(4) 0.0235(2)
O2B O -0.0239(3) 0.0205(4) -0.6556(2)
O3B O 0.1253(3) 0.4982(4) -0.3148(2)
O4B O 0.3287(3) 0.3985(3) 0.12982(19)
O5B O 0.4179(2) 0.5094(3) 0.04756(16)
O6B O 0.4216(3) 0.1479(3) -0.0230(2)
O7B O 0.4689(3) 0.5685(3) 0.39446(18)
O8B O 0.4755(3) 0.7909(3) 0.41094(18)
O9B O 0.2427(3) 0.6840(5) 0.0368(2)
N1B N -0.2002(5) 0.1429(9) -0.8961(4)
N2B N 0.3589(3) 0.3724(4) -0.0976(2)
N3B N -0.0120(3) 0.2452(4) -0.6469(2)
H16B H -0.0280 0.3170 -0.6711
N4B N 0.1977(3) 0.3174(4) -0.3641(2)
H17B H 0.2431 0.2609 -0.3549
Cu1A Cu 0.43445(4) 0.16800(5) -0.49776(3)
Cu1C Cu 0.56555(4) 0.83200(5) 0.49776(3)
Cu2_2 Cu 0.5000 0.0000 0.0000
Cu2A Cu 0.5000 0.5000 -0.5000
Cu2A_2 Cu 0.5000 0.5000 0.5000
O6B_2 O 0.4216(3) 1.1479(3) -0.0230(2)
O7A O 0.4689(3) 0.9315(3) -0.10554(18)
O7C O 0.5311(3) 1.0685(3) 0.10554(18)
O8A O 0.4755(3) 0.7091(3) -0.08906(18)
O8C O 0.5245(3) 0.2909(3) 0.08906(18)
loop_
_geom_bond_atom_site_label_1
_geom_bond_atom_site_label_2
_geom_bond_site_symmetry_1
_geom_bond_site_symmetry_2
Cu1 O4 1_555 1_555
Cu2 O6 1_555 1_555
C1 H1 1_555 1_555
C2 C1 1_555 1_555
H2 C2 1_555 1_555
C3 C2 1_555 1_555
C4 C3 1_555 1_555
H3 C4 1_555 1_555
C5 C4 1_555 1_555
H4 C5 1_555 1_555
C6 C3 1_555 1_555
C7 C8 1_555 1_555
C8 H5 1_555 1_555
C9 C8 1_555 1_555
H6 C9 1_555 1_555
C10 C9 1_555 1_555
C11 C10 1_555 1_555
H7 C11 1_555 1_555
C12 C7 1_555 1_555
H8 C12 1_555 1_555
C13 C14 1_555 1_555
C14 C15 1_555 1_555
C15 H9 1_555 1_555
C16 C15 1_555 1_555
H10 C16 1_555 1_555
C17 H11 1_555 1_555
C18 C14 1_555 1_555
H12 C18 1_555 1_555
C19 C27 1_555 1_555
C20 C26 1_555 1_555
C21 C24 1_555 1_555
C22 H13 1_555 1_555
C23 C22 1_555 1_555
H14 C23 1_555 1_555
C24 C23 1_555 1_555
C25 C24 1_555 1_555
H15 C25 1_555 1_555
C26 C25 1_555 1_555
C27 C22 1_555 1_555
O1 C19 1_555 1_555
O2 C6 1_555 1_555
O3 C13 1_555 1_555
O4 C20 1_555 1_555
O5 Cu1 1_555 1_555
O6 Cu1 1_555 1_555
O7 C21 1_555 1_555
O8 C21 1_555 1_555
O9 C19 1_555 1_555
N1 C1 1_555 1_555
N2 Cu1 1_555 1_555
N3 C6 1_555 1_555
H16 N3 1_555 1_555
N4 C10 1_555 1_555
H17 N4 1_555 1_555
Cu1B O5 1_555 1_555
C1B H1B 1_555 1_555
C2B C1B 1_555 1_555
H2B C2B 1_555 1_555
C3B C2B 1_555 1_555
C4B C3B 1_555 1_555
H3B C4B 1_555 1_555
C5B C4B 1_555 1_555
H4B C5B 1_555 1_555
C6B C3B 1_555 1_555
C7B C8B 1_555 1_555
C8B H5B 1_555 1_555
C9B C8B 1_555 1_555
H6B C9B 1_555 1_555
C10B C9B 1_555 1_555
C11B C10B 1_555 1_555
H7B C11B 1_555 1_555
C12B C7B 1_555 1_555
H8B C12B 1_555 1_555
C13B C14B 1_555 1_555
C14B C15B 1_555 1_555
C15B H9B 1_555 1_555
C16B C15B 1_555 1_555
H10B C16B 1_555 1_555
C17B H11B 1_555 1_555
C18B C14B 1_555 1_555
H12B C18B 1_555 1_555
C19B C27B 1_555 1_555
C20B C26B 1_555 1_555
C21B C24B 1_555 1_555
C22B H13B 1_555 1_555
C23B C22B 1_555 1_555
H14B C23B 1_555 1_555
C24B C23B 1_555 1_555
C25B C24B 1_555 1_555
H15B C25B 1_555 1_555
C26B C25B 1_555 1_555
C27B C22B 1_555 1_555
O1B C19B 1_555 1_555
O2B C6B 1_555 1_555
O3B C13B 1_555 1_555
O4B Cu1B 1_555 1_555
O5B Cu1 1_555 1_555
O6B Cu1B 1_555 1_555
O7B C21B 1_555 1_555
O8B C21B 1_555 1_555
O9B C19B 1_555 1_555
N1B C1B 1_555 1_555
N2B Cu1B 1_555 1_555
N3B C6B 1_555 1_555
H16B N3B 1_555 1_555
N4B C10B 1_555 1_555
H17B N4B 1_555 1_555
Cu1A O8 1_555 1_555
Cu1C O8B 1_555 1_555
Cu2_2 O6B 1_555 1_555
Cu2A O7 1_555 1_555
Cu2A_2 O7B 1_555 1_555
O6B_2 Cu2 1_555 1_555
O7A Cu2 1_555 1_555
O7C Cu2 1_555 1_555
O8A Cu1 1_555 1_555
O8C Cu1B 1_555 1_555
C5 N1 1_555 1_555
C7 N3 1_555 1_555
C11 C12 1_555 1_555
C13 N4 1_555 1_555
C16 N2 1_555 1_555
C17 C18 1_555 1_555
C17 N2 1_555 1_555
C20 O5 1_555 1_555
C26 C27 1_555 1_555
Cu1B O5B 1_555 1_555
C5B N1B 1_555 1_555
C7B N3B 1_555 1_555
C11B C12B 1_555 1_555
C13B N4B 1_555 1_555
C16B N2B 1_555 1_555
C17B C18B 1_555 1_555
C17B N2B 1_555 1_555
C20B O4B 1_555 1_555
C20B O5B 1_555 1_555
C26B C27B 1_555 1_555

#END
