
#######################################################################
#
#                 Cambridge Crystallographic Data Centre
#                                CCDC 
#
#######################################################################
#
# If this CIF has been generated from an entry in the Cambridge 
# Structural Database, then it will include bibliographic, chemical, 
# crystal, experimental, refinement or atomic coordinate data resulting 
# from the CCDC's data processing and validation procedures.
#
#######################################################################

data_TEZWEB
_symmetry_cell_setting           triclinic
_symmetry_space_group_name_H-M   'P -1'
_symmetry_Int_Tables_number      2
_space_group_name_Hall           '-P 1'
loop_
_symmetry_equiv_pos_site_id
_symmetry_equiv_pos_as_xyz
1 x,y,z
2 -x,-y,-z
_cell_length_a                   10.17160(10)
_cell_length_b                   12.4806(2)
_cell_length_c                   14.7630(2)
_cell_angle_alpha                109.2290(10)
_cell_angle_beta                 106.4490(10)
_cell_angle_gamma                95.7000(10)
_cell_volume                     1658.33
loop_
_atom_site_label
_atom_site_type_symbol
_atom_site_fract_x
_atom_site_fract_y
_atom_site_fract_z
C1 C 0.4838(4) 0.7321(3) 0.2511(3)
C2 C 0.6140(4) 0.7188(3) 0.2173(3)
C3 C 0.5396(4) 0.4089(4) 0.1681(3)
C4 C 0.6979(4) 0.4097(3) 0.2056(3)
C5 C 0.5197(4) 0.4414(3) 0.4764(3)
C6 C 0.4241(4) 0.9936(3) -0.0347(3)
C7 C 0.4811(5) 1.0577(4) 0.2161(3)
H1 H 0.5718 1.0448 0.2271
C8 C 0.4656(6) 1.1676(4) 0.2661(4)
H2 H 0.5437 1.2273 0.3070
C9 C 0.3344(6) 1.1870(4) 0.2546(4)
H3 H 0.3215 1.2608 0.2873
C10 C 0.2178(5) 1.0954(4) 0.1931(3)
C11 C 0.0769(6) 1.1077(5) 0.1828(4)
H4 H 0.0603 1.1799 0.2158
C12 C -0.0315(5) 1.0183(5) 0.1273(4)
H5 H -0.1220 1.0288 0.1230
C13 C -0.0108(5) 0.9059(4) 0.0739(3)
C14 C -0.1225(5) 0.8098(5) 0.0139(4)
H6 H -0.2141 0.8165 0.0096
C15 C -0.0957(5) 0.7070(5) -0.0377(4)
H7 H -0.1687 0.6428 -0.0779
C16 C 0.0428(5) 0.6988(4) -0.0297(3)
H8 H 0.0595 0.6280 -0.0658
C17 C 0.1263(4) 0.8898(4) 0.0793(3)
C18 C 0.2433(4) 0.9860(3) 0.1430(3)
C19 C 0.6495(5) 0.8940(4) 0.5422(3)
H9 H 0.5554 0.8564 0.5137
C20 C 0.6854(6) 1.0089(4) 0.6119(4)
H10 H 0.6166 1.0466 0.6293
C21 C 0.8224(7) 1.0641(4) 0.6538(4)
H11 H 0.8482 1.1404 0.7003
C22 C 0.9242(6) 1.0066(4) 0.6270(3)
C23 C 1.0708(7) 1.0607(4) 0.6681(4)
H12 H 1.1004 1.1360 0.7165
C24 C 1.1656(6) 1.0042(4) 0.6376(4)
H13 H 1.2596 1.0416 0.6645
C25 C 1.1251(5) 0.8878(4) 0.5647(3)
C26 C 1.2224(6) 0.8268(5) 0.5323(4)
H14 H 1.3173 0.8615 0.5584
C27 C 1.1761(5) 0.7166(5) 0.4623(4)
H15 H 1.2388 0.6754 0.4388
C28 C 1.0345(5) 0.6661(4) 0.4263(4)
H16 H 1.0050 0.5900 0.3793
C29 C 0.9827(5) 0.8309(4) 0.5243(3)
C30 C 0.8807(5) 0.8921(3) 0.5566(3)
N1 N 0.3746(4) 0.9679(3) 0.1525(2)
N2 N 0.1515(4) 0.7866(3) 0.0266(3)
N3 N 0.7440(4) 0.8360(3) 0.5147(3)
N4 N 0.9384(4) 0.7202(3) 0.4551(3)
O1 O 0.4867(3) 0.7132(3) 0.3296(2)
O2 O 0.3873(3) 0.7601(3) 0.1962(2)
O3 O 0.7101(3) 0.6864(3) 0.2695(2)
O4 O 0.6157(3) 0.7426(3) 0.1420(2)
O5 O 0.4955(3) 0.4784(3) 0.2286(2)
O6 O 0.4716(3) 0.3388(3) 0.0794(2)
O7 O 0.7675(3) 0.4725(2) 0.2970(2)
O8 O 0.7455(3) 0.3471(3) 0.1432(2)
O9 O 0.5893(4) 0.4382(2) 0.4181(2)
O10 O 0.4789(3) 0.3596(2) 0.4996(2)
O11 O 0.3412(3) 0.8995(2) -0.0627(2)
O12 O 0.3997(3) 1.0782(2) -0.0601(2)
O13 O 0.3270(6) 0.5642(3) 0.0164(3)
H17 H 0.256(6) 0.517(5) -0.028(5)
H18 H 0.361(8) 0.527(6) 0.049(5)
O14 O 0.8222(4) 0.6129(3) 0.5631(2)
H19 H 0.903(3) 0.647(5) 0.587(4)
H20 H 0.810(5) 0.587(5) 0.605(3)
Sm1 Sm 0.67090(2) 0.616669(16) 0.398451(14)
Sm2 Sm 0.405893(19) 0.770463(16) 0.031268(13)
C1A C 0.5162(4) 0.2679(3) 0.7489(3)
C2A C 0.3860(4) 0.2812(3) 0.7827(3)
C3A C 0.4604(4) 0.5911(4) -0.1681(3)
C4A C 0.3021(4) 0.5903(3) -0.2056(3)
C5A C 0.4803(4) 0.5586(3) 0.5236(3)
C6A C 0.5759(4) 1.0064(3) 0.0347(3)
C7A C 0.5189(5) -0.0577(4) -0.2161(3)
H1A H 0.4282 -0.0448 -0.2271
C8A C 0.5344(6) -0.1676(4) -0.2661(4)
H2A H 0.4563 -0.2273 -0.3070
C9A C 0.6656(6) -0.1870(4) -0.2546(4)
H3A H 0.6785 -0.2608 -0.2873
C10A C 0.7822(5) -0.0954(4) -0.1931(3)
C11A C 0.9231(6) -0.1077(5) -0.1828(4)
H4A H 0.9397 -0.1799 -0.2158
C12A C 1.0315(5) -0.0183(5) -0.1273(4)
H5A H 1.1220 -0.0288 -0.1230
C13A C 1.0108(5) 0.0941(4) -0.0739(3)
C14A C 1.1225(5) 0.1902(5) -0.0139(4)
H6A H 1.2141 0.1835 -0.0096
C15A C 1.0957(5) 0.2930(5) 0.0377(4)
H7A H 1.1687 0.3572 0.0779
C16A C 0.9572(5) 0.3012(4) 0.0297(3)
H8A H 0.9405 0.3720 0.0658
C17A C 0.8737(4) 0.1102(4) -0.0793(3)
C18A C 0.7567(4) 0.0140(3) -0.1430(3)
C19A C 0.3505(5) 0.1060(4) 0.4578(3)
H9A H 0.4446 0.1436 0.4863
C20A C 0.3146(6) -0.0089(4) 0.3881(4)
H10A H 0.3834 -0.0466 0.3707
C21A C 0.1776(7) -0.0641(4) 0.3462(4)
H11A H 0.1518 -0.1404 0.2997
C22A C 0.0758(6) -0.0066(4) 0.3730(3)
C23A C -0.0708(7) -0.0607(4) 0.3319(4)
H12A H -0.1004 -0.1360 0.2835
C24A C -0.1656(6) -0.0042(4) 0.3624(4)
H13A H -0.2596 -0.0416 0.3355
C25A C -0.1251(5) 0.1122(4) 0.4353(3)
C26A C -0.2224(6) 0.1732(5) 0.4677(4)
H14A H -0.3173 0.1385 0.4416
C27A C -0.1761(5) 0.2834(5) 0.5377(4)
H15A H -0.2388 0.3246 0.5612
C28A C -0.0345(5) 0.3339(4) 0.5737(4)
H16A H -0.0050 0.4100 0.6207
C29A C 0.0173(5) 0.1691(4) 0.4757(3)
C30A C 0.1193(5) 0.1079(3) 0.4434(3)
N1A N 0.6254(4) 0.0321(3) -0.1525(2)
N2A N 0.8485(4) 0.2134(3) -0.0266(3)
N3A N 0.2560(4) 0.1640(3) 0.4853(3)
N4A N 0.0616(4) 0.2798(3) 0.5449(3)
O1A O 0.5133(3) 0.2868(3) 0.6704(2)
O2A O 0.6127(3) 0.2399(3) 0.8038(2)
O2A_2 O 0.6127(3) 0.2399(3) -0.1962(2)
O3A O 0.2899(3) 0.3136(3) 0.7305(2)
O4A O 0.3843(3) 0.2574(3) 0.8580(2)
O4A_2 O 0.3843(3) 0.2574(3) -0.1420(2)
O5A O 0.5045(3) 0.5216(3) -0.2286(2)
O5A_2 O 0.5045(3) 0.5216(3) 0.7714(2)
O6A O 0.5284(3) 0.6612(3) -0.0794(2)
O7A O 0.2325(3) 0.5275(2) -0.2970(2)
O7A_2 O 0.2325(3) 0.5275(2) 0.7030(2)
O8A O 0.2545(3) 0.6529(3) -0.1432(2)
O9A O 0.4107(4) 0.5618(2) 0.5819(2)
O10A O 0.5211(3) 0.6404(2) 0.5004(2)
O11A O 0.6588(3) 1.1005(2) 0.0627(2)
O11A_2 O 0.6588(3) 0.1005(2) 0.0627(2)
O12A O 0.6003(3) 0.9218(2) 0.0601(2)
O12_2 O 0.3997(3) 0.0782(2) -0.0601(2)
O13A O 0.6730(6) 0.4358(3) -0.0164(3)
H17A H 0.744(6) 0.483(5) 0.028(5)
H18A H 0.639(8) 0.473(6) -0.049(5)
O14A O 0.1778(4) 0.3871(3) 0.4369(2)
H19A H 0.097(3) 0.353(5) 0.413(4)
H20A H 0.190(5) 0.413(5) 0.395(3)
Sm1A Sm 0.32910(2) 0.383331(16) 0.601549(14)
Sm1A_2 Sm 0.32910(2) 0.383331(16) -0.398451(14)
Sm2A Sm 0.594107(19) 0.229537(16) -0.031268(13)
Sm2A_2 Sm 0.594107(19) 1.229537(16) -0.031268(13)
Sm2A_3 Sm 0.594107(19) 0.229537(16) 0.968732(13)
O15 O 0.7480(4) 0.5376(4) 0.7024(3)
H21 H 0.797(5) 0.500(5) 0.734(5)
H22 H 0.667(3) 0.530(6) 0.709(5)
O16 O 0.1326(5) 0.3750(4) 0.8570(3)
H23 H 0.178(6) 0.375(6) 0.816(4)
H24 H 0.160(7) 0.327(5) 0.886(5)
O17 O 0.1009(5) 0.7206(4) 0.6868(4)
H25 H 0.122(3) 0.684(5) 0.634(2)
H26 H 0.081(5) 0.667(4) 0.710(4)
O18 O 0.1495(5) 0.5978(4) 0.1865(5)
H27 H 0.203(6) 0.667(3) 0.214(6)
H28 H 0.066(3) 0.604(6) 0.158(6)
loop_
_geom_bond_atom_site_label_1
_geom_bond_atom_site_label_2
_geom_bond_site_symmetry_1
_geom_bond_site_symmetry_2
C1 C2 1_555 1_555
C2 O3 1_555 1_555
C3 C4 1_555 1_555
C4 O7 1_555 1_555
C5 O9 1_555 1_555
C6 O11 1_555 1_555
C7 H1 1_555 1_555
C8 C7 1_555 1_555
H2 C8 1_555 1_555
C9 C8 1_555 1_555
H3 C9 1_555 1_555
C10 C9 1_555 1_555
C11 C10 1_555 1_555
H4 C11 1_555 1_555
C12 C11 1_555 1_555
H5 C12 1_555 1_555
C13 C12 1_555 1_555
C14 C13 1_555 1_555
H6 C14 1_555 1_555
C15 C14 1_555 1_555
H7 C15 1_555 1_555
C16 C15 1_555 1_555
H8 C16 1_555 1_555
C17 C13 1_555 1_555
C18 C10 1_555 1_555
C19 H9 1_555 1_555
C20 C19 1_555 1_555
H10 C20 1_555 1_555
C21 C20 1_555 1_555
H11 C21 1_555 1_555
C22 C21 1_555 1_555
C23 C22 1_555 1_555
H12 C23 1_555 1_555
C24 C23 1_555 1_555
H13 C24 1_555 1_555
C25 C24 1_555 1_555
C26 C25 1_555 1_555
H14 C26 1_555 1_555
C27 C26 1_555 1_555
H15 C27 1_555 1_555
C28 C27 1_555 1_555
H16 C28 1_555 1_555
C29 C25 1_555 1_555
C30 C22 1_555 1_555
N1 C7 1_555 1_555
N2 C16 1_555 1_555
N3 C19 1_555 1_555
N4 C28 1_555 1_555
O1 C1 1_555 1_555
O2 C1 1_555 1_555
O3 Sm1 1_555 1_555
O4 C2 1_555 1_555
O5 C3 1_555 1_555
O6 C3 1_555 1_555
O7 Sm1 1_555 1_555
O8 C4 1_555 1_555
O9 Sm1 1_555 1_555
O10 C5 1_555 1_555
O11 Sm2 1_555 1_555
O12 C6 1_555 1_555
O13 H17 1_555 1_555
H18 O13 1_555 1_555
O14 H19 1_555 1_555
H20 O14 1_555 1_555
O15 H21 1_555 1_555
H22 O15 1_555 1_555
O16 H23 1_555 1_555
H24 O16 1_555 1_555
O17 H25 1_555 1_555
H26 O17 1_555 1_555
O18 H27 1_555 1_555
H28 O18 1_555 1_555
Sm1 N3 1_555 1_555
Sm2 N1 1_555 1_555
C1A C2A 1_555 1_555
C2A O3A 1_555 1_555
C3A C4A 1_555 1_555
C4A O7A 1_555 1_555
C5A C5 1_555 1_555
C6A C6 1_555 1_555
C7A H1A 1_555 1_555
C8A C7A 1_555 1_555
H2A C8A 1_555 1_555
C9A C8A 1_555 1_555
H3A C9A 1_555 1_555
C10A C9A 1_555 1_555
C11A C10A 1_555 1_555
H4A C11A 1_555 1_555
C12A C11A 1_555 1_555
H5A C12A 1_555 1_555
C13A C12A 1_555 1_555
C14A C13A 1_555 1_555
H6A C14A 1_555 1_555
C15A C14A 1_555 1_555
H7A C15A 1_555 1_555
C16A C15A 1_555 1_555
H8A C16A 1_555 1_555
C17A C13A 1_555 1_555
C18A C10A 1_555 1_555
C19A H9A 1_555 1_555
C20A C19A 1_555 1_555
H10A C20A 1_555 1_555
C21A C20A 1_555 1_555
H11A C21A 1_555 1_555
C22A C21A 1_555 1_555
C23A C22A 1_555 1_555
H12A C23A 1_555 1_555
C24A C23A 1_555 1_555
H13A C24A 1_555 1_555
C25A C24A 1_555 1_555
C26A C25A 1_555 1_555
H14A C26A 1_555 1_555
C27A C26A 1_555 1_555
H15A C27A 1_555 1_555
C28A C27A 1_555 1_555
H16A C28A 1_555 1_555
C29A C25A 1_555 1_555
C30A C22A 1_555 1_555
N1A C7A 1_555 1_555
N2A C16A 1_555 1_555
N3A C19A 1_555 1_555
N4A C28A 1_555 1_555
O1A C1A 1_555 1_555
O2A C1A 1_555 1_555
O2A_2 Sm2A 1_555 1_555
O3A Sm1A 1_555 1_555
O4A C2A 1_555 1_555
O4A_2 Sm2A 1_555 1_555
O5A C3A 1_555 1_555
O5A_2 Sm1A 1_555 1_555
O6A Sm2 1_555 1_555
O7A Sm1A_2 1_555 1_555
O7A_2 Sm1A 1_555 1_555
O8A Sm2 1_555 1_555
O9A C5A 1_555 1_555
O10A Sm1 1_555 1_555
O11A C6A 1_555 1_555
O11A_2 Sm2A 1_555 1_555
O12A Sm2 1_555 1_555
O12_2 Sm2A 1_555 1_555
O13A H17A 1_555 1_555
H18A O13A 1_555 1_555
O14A H19A 1_555 1_555
H20A O14A 1_555 1_555
Sm1A O10 1_555 1_555
Sm1A_2 O5A 1_555 1_555
Sm2A O6 1_555 1_555
Sm2A_2 O12 1_555 1_555
Sm2A_3 O2A 1_555 1_555
C17 C18 1_555 1_555
C17 N2 1_555 1_555
C18 N1 1_555 1_555
C29 C30 1_555 1_555
C29 N4 1_555 1_555
C30 N3 1_555 1_555
N2 Sm2 1_555 1_555
N4 Sm1 1_555 1_555
O1 Sm1 1_555 1_555
O2 Sm2 1_555 1_555
O4 Sm2 1_555 1_555
O5 Sm1 1_555 1_555
O8 Sm2A 1_555 1_555
O13 Sm2 1_555 1_555
O14 Sm1 1_555 1_555
C3A O6A 1_555 1_555
C4A O8A 1_555 1_555
C5A O10A 1_555 1_555
C6A O12A 1_555 1_555
C17A C18A 1_555 1_555
C17A N2A 1_555 1_555
C18A N1A 1_555 1_555
C29A C30A 1_555 1_555
C29A N4A 1_555 1_555
C30A N3A 1_555 1_555
N1A Sm2A 1_555 1_555
N2A Sm2A 1_555 1_555
N3A Sm1A 1_555 1_555
N4A Sm1A 1_555 1_555
O1A Sm1A 1_555 1_555
O4A Sm2A_3 1_555 1_555
O9A Sm1A 1_555 1_555
O11A Sm2A_2 1_555 1_555
O13A Sm2A 1_555 1_555
O14A Sm1A 1_555 1_555

#END
