
#######################################################################
#
#                 Cambridge Crystallographic Data Centre
#                                CCDC 
#
#######################################################################
#
# If this CIF has been generated from an entry in the Cambridge 
# Structural Database, then it will include bibliographic, chemical, 
# crystal, experimental, refinement or atomic coordinate data resulting 
# from the CCDC's data processing and validation procedures.
#
#######################################################################

data_TEZWIF
_symmetry_cell_setting           monoclinic
_symmetry_space_group_name_H-M   'P 21/n'
_symmetry_Int_Tables_number      14
_space_group_name_Hall           '-P 2yn'
loop_
_symmetry_equiv_pos_site_id
_symmetry_equiv_pos_as_xyz
1 x,y,z
2 1/2-x,1/2+y,1/2-z
3 -x,-y,-z
4 1/2+x,1/2-y,1/2+z
_cell_length_a                   10.007(2)
_cell_length_b                   15.251(4)
_cell_length_c                   11.5785(17)
_cell_angle_alpha                90
_cell_angle_beta                 99.599(14)
_cell_angle_gamma                90
_cell_volume                     1742.33
loop_
_atom_site_label
_atom_site_type_symbol
_atom_site_fract_x
_atom_site_fract_y
_atom_site_fract_z
Cu1 Cu 0.08407(2) 0.024482(14) 0.745297(19)
C1 C -0.08662(18) 0.15441(13) 0.77950(17)
C2 C -0.16083(18) 0.21309(12) 0.85242(17)
C3 C -0.12890(19) 0.21034(12) 0.97398(17)
H1 H -0.0656 0.1700 1.0099
C4 C -0.1912(2) 0.26779(13) 1.04233(17)
C5 C -0.28763(19) 0.32682(12) 0.98867(17)
H2 H -0.3284 0.3659 1.0338
C6 C -0.32299(18) 0.32739(12) 0.86757(16)
C7 C -0.25925(19) 0.27096(12) 0.79922(16)
H3 H -0.2826 0.2721 0.7181
C8 C -0.42771(18) 0.39034(12) 0.80898(16)
C9 C 0.2130(2) -0.07729(14) 0.56790(18)
H4 H 0.1262 -0.0916 0.5304
C10 C 0.3244(3) -0.10945(17) 0.5228(2)
H5 H 0.3112 -0.1451 0.4567
C11 C 0.4531(3) -0.08854(17) 0.5759(2)
H6 H 0.5275 -0.1095 0.5458
C12 C 0.4718(2) -0.03522(15) 0.6760(2)
C13 C 0.6008(2) -0.00800(19) 0.7377(2)
H7 H 0.6791 -0.0264 0.7115
C14 C 0.6113(2) 0.04390(17) 0.8333(3)
H8 H 0.6967 0.0593 0.8729
C15 C 0.4937(2) 0.07549(14) 0.8748(2)
C16 C 0.4954(3) 0.13224(17) 0.9705(2)
H9 H 0.5776 0.1517 1.0122
C17 C 0.3769(3) 0.15884(19) 1.0023(2)
H10 H 0.3776 0.1967 1.0654
C18 C 0.2540(2) 0.12874(17) 0.9394(2)
H11 H 0.1736 0.1473 0.9618
C19 C 0.3657(2) 0.04922(13) 0.81644(18)
C20 C 0.3543(2) -0.00615(13) 0.71579(18)
N1 N 0.22717(17) -0.02698(10) 0.66256(15)
N2 N 0.24789(17) 0.07461(12) 0.84875(16)
O1 O -0.07652(19) 0.17430(11) 0.67881(14)
O2 O -0.03444(14) 0.08566(9) 0.83212(13)
O3 O -0.1598(2) 0.26896(13) 1.16103(13)
H12 H -0.1105 0.2272 1.1833
O4 O -0.43805(14) 0.46356(9) 0.85927(13)
O5 O -0.50007(15) 0.37104(10) 0.71426(13)
Cu1A Cu -0.58407(2) 0.524482(14) 0.754703(19)
O4A O -0.06195(14) -0.03644(9) 0.64073(13)
loop_
_geom_bond_atom_site_label_1
_geom_bond_atom_site_label_2
_geom_bond_site_symmetry_1
_geom_bond_site_symmetry_2
Cu1 N1 1_555 1_555
C1 C2 1_555 1_555
C2 C3 1_555 1_555
C3 H1 1_555 1_555
C4 C3 1_555 1_555
C5 C4 1_555 1_555
H2 C5 1_555 1_555
C6 C5 1_555 1_555
C7 C2 1_555 1_555
H3 C7 1_555 1_555
C8 C6 1_555 1_555
C9 H4 1_555 1_555
C10 C9 1_555 1_555
H5 C10 1_555 1_555
C11 C10 1_555 1_555
H6 C11 1_555 1_555
C12 C11 1_555 1_555
C13 C12 1_555 1_555
H7 C13 1_555 1_555
C14 C13 1_555 1_555
H8 C14 1_555 1_555
C15 C14 1_555 1_555
C16 C15 1_555 1_555
H9 C16 1_555 1_555
C17 C16 1_555 1_555
H10 C17 1_555 1_555
C18 C17 1_555 1_555
H11 C18 1_555 1_555
C19 C15 1_555 1_555
C20 C12 1_555 1_555
N1 C9 1_555 1_555
N2 Cu1 1_555 1_555
O1 C1 1_555 1_555
O2 Cu1 1_555 1_555
O3 C4 1_555 1_555
H12 O3 1_555 1_555
O4 C8 1_555 1_555
O5 C8 1_555 1_555
Cu1A O4 1_555 1_555
O4A Cu1 1_555 1_555
C1 O2 1_555 1_555
C6 C7 1_555 1_555
C18 N2 1_555 1_555
C19 C20 1_555 1_555
C19 N2 1_555 1_555
C20 N1 1_555 1_555

#END
