
#######################################################################
#
#                 Cambridge Crystallographic Data Centre
#                                CCDC 
#
#######################################################################
#
# If this CIF has been generated from an entry in the Cambridge 
# Structural Database, then it will include bibliographic, chemical, 
# crystal, experimental, refinement or atomic coordinate data resulting 
# from the CCDC's data processing and validation procedures.
#
#######################################################################

data_TEZXUS
_symmetry_cell_setting           triclinic
_symmetry_space_group_name_H-M   'P -1'
_symmetry_Int_Tables_number      2
_space_group_name_Hall           '-P 1'
loop_
_symmetry_equiv_pos_site_id
_symmetry_equiv_pos_as_xyz
1 x,y,z
2 -x,-y,-z
_cell_length_a                   5.8006(7)
_cell_length_b                   8.7767(11)
_cell_length_c                   13.0427(16)
_cell_angle_alpha                87.922(2)
_cell_angle_beta                 84.784(2)
_cell_angle_gamma                74.730(2)
_cell_volume                     637.858
loop_
_atom_site_label
_atom_site_type_symbol
_atom_site_fract_x
_atom_site_fract_y
_atom_site_fract_z
Mn1 Mn 0.0000 1.0000 0.5000
S1 S 0.27620(10) 1.06480(7) 0.32793(4)
O1 O -0.4140(3) 0.3727(3) 0.15991(15)
N1 N 0.0267(3) 0.7658(2) 0.43600(13)
N2 N -0.0446(3) 0.57102(19) 0.35275(13)
N3 N 0.6767(3) 1.0999(2) 0.41923(15)
C1 C -0.1323(4) 0.7180(2) 0.38815(16)
H1 H -0.2870 0.7793 0.3800
C2 C 0.2270(4) 0.6401(3) 0.43079(17)
H2 H 0.3703 0.6380 0.4583
C3 C 0.1855(4) 0.5203(3) 0.38002(18)
H3 H 0.2924 0.4224 0.3662
C4 C -0.1757(4) 0.4829(3) 0.29742(17)
H4 H -0.3366 0.5483 0.2899
H5 H -0.1890 0.3899 0.3375
C5 C -0.0532(4) 0.4327(3) 0.19200(17)
H6 H -0.0207 0.5236 0.1549
H7 H 0.0990 0.3559 0.1996
C6 C -0.2056(4) 0.3619(3) 0.13117(17)
C7 C -0.0992(4) 0.2813(3) 0.03227(17)
C8 C 0.1421(5) 0.2061(3) 0.01519(19)
H8 H 0.2468 0.2110 0.0641
C9 C 0.2278(5) 0.1233(3) -0.0747(2)
H9 H 0.3893 0.0702 -0.0851
C10 C 0.0767(6) 0.1189(3) -0.1484(2)
H10 H 0.1351 0.0624 -0.2084
C11 C -0.1623(6) 0.1983(3) -0.1336(2)
H11 H -0.2642 0.1982 -0.1847
C12 C -0.2505(5) 0.2778(3) -0.04346(19)
H12 H -0.4127 0.3294 -0.0333
C13 C 0.5091(4) 1.0870(2) 0.38208(16)
Mn1_2 Mn 1.0000 1.0000 0.5000
S1A S -0.27620(10) 0.93520(7) 0.67207(4)
S1A_2 S 0.72380(10) 0.93520(7) 0.67207(4)
O1A O 0.4140(3) 1.6273(3) 0.84009(15)
N1A N -0.0267(3) 1.2342(2) 0.56400(13)
N2A N 0.0446(3) 1.42898(19) 0.64725(13)
N3_2 N -0.3233(3) 1.0999(2) 0.41923(15)
N3A N 0.3233(3) 0.9001(2) 0.58077(15)
C1A C 0.1323(4) 1.2820(2) 0.61185(16)
H1A H 0.2870 1.2207 0.6200
C2A C -0.2270(4) 1.3599(3) 0.56921(17)
H2A H -0.3703 1.3620 0.5417
C3A C -0.1855(4) 1.4797(3) 0.61998(18)
H3A H -0.2924 1.5776 0.6338
C4A C 0.1757(4) 1.5171(3) 0.70258(17)
H4A H 0.3366 1.4517 0.7101
H5A H 0.1890 1.6101 0.6625
C5A C 0.0532(4) 1.5673(3) 0.80800(17)
H6A H 0.0207 1.4764 0.8451
H7A H -0.0990 1.6441 0.8004
C6A C 0.2056(4) 1.6381(3) 0.86883(17)
C7A C 0.0992(4) 1.7187(3) 0.96773(17)
C8A C -0.1421(5) 1.7939(3) 0.98481(19)
H8A H -0.2468 1.7890 0.9359
C9A C -0.2278(5) 1.8767(3) 1.0747(2)
H9A H -0.3893 1.9298 1.0851
C10A C -0.0767(6) 1.8811(3) 1.1484(2)
H10A H -0.1351 1.9376 1.2084
C11A C 0.1623(6) 1.8017(3) 1.1336(2)
H11A H 0.2642 1.8018 1.1847
C12A C 0.2505(5) 1.7222(3) 1.04346(19)
H12A H 0.4127 1.6706 1.0333
C13A C 0.4909(4) 0.9130(2) 0.61792(16)
loop_
_geom_bond_atom_site_label_1
_geom_bond_atom_site_label_2
_geom_bond_site_symmetry_1
_geom_bond_site_symmetry_2
Mn1 S1 1_555 1_555
S1 C13 1_555 1_555
O1 C6 1_555 1_555
N1 Mn1 1_555 1_555
N2 C1 1_555 1_555
N3 C13 1_555 1_555
C1 N1 1_555 1_555
H1 C1 1_555 1_555
C2 N1 1_555 1_555
H2 C2 1_555 1_555
C3 N2 1_555 1_555
H3 C3 1_555 1_555
C4 N2 1_555 1_555
H4 C4 1_555 1_555
H5 C4 1_555 1_555
C5 C4 1_555 1_555
H6 C5 1_555 1_555
H7 C5 1_555 1_555
C6 C5 1_555 1_555
C7 C6 1_555 1_555
C8 C7 1_555 1_555
H8 C8 1_555 1_555
C9 C8 1_555 1_555
H9 C9 1_555 1_555
C10 C9 1_555 1_555
H10 C10 1_555 1_555
C11 C10 1_555 1_555
H11 C11 1_555 1_555
C12 C7 1_555 1_555
H12 C12 1_555 1_555
Mn1_2 N3 1_555 1_555
S1A Mn1 1_555 1_555
S1A_2 Mn1_2 1_555 1_555
O1A C6A 1_555 1_555
N1A Mn1 1_555 1_555
N2A C1A 1_555 1_555
N3_2 Mn1 1_555 1_555
N3A Mn1 1_555 1_555
C1A N1A 1_555 1_555
H1A C1A 1_555 1_555
C2A N1A 1_555 1_555
H2A C2A 1_555 1_555
C3A N2A 1_555 1_555
H3A C3A 1_555 1_555
C4A N2A 1_555 1_555
H4A C4A 1_555 1_555
H5A C4A 1_555 1_555
C5A C4A 1_555 1_555
H6A C5A 1_555 1_555
H7A C5A 1_555 1_555
C6A C5A 1_555 1_555
C7A C6A 1_555 1_555
C8A C7A 1_555 1_555
H8A C8A 1_555 1_555
C9A C8A 1_555 1_555
H9A C9A 1_555 1_555
C10A C9A 1_555 1_555
H10A C10A 1_555 1_555
C11A C10A 1_555 1_555
H11A C11A 1_555 1_555
C12A C7A 1_555 1_555
H12A C12A 1_555 1_555
C13A S1A_2 1_555 1_555
C2 C3 1_555 1_555
C11 C12 1_555 1_555
N3A C13A 1_555 1_555
C2A C3A 1_555 1_555
C11A C12A 1_555 1_555

#END
