
#######################################################################
#
#                 Cambridge Crystallographic Data Centre
#                                CCDC 
#
#######################################################################
#
# If this CIF has been generated from an entry in the Cambridge 
# Structural Database, then it will include bibliographic, chemical, 
# crystal, experimental, refinement or atomic coordinate data resulting 
# from the CCDC's data processing and validation procedures.
#
#######################################################################

data_THOXLB03
_symmetry_cell_setting           triclinic
_symmetry_space_group_name_H-M   'P -1'
_symmetry_Int_Tables_number      2
_space_group_name_Hall           '-P 1'
loop_
_symmetry_equiv_pos_site_id
_symmetry_equiv_pos_as_xyz
1 x,y,z
2 -x,-y,-z
_cell_length_a                   6.283(3)
_cell_length_b                   7.449(2)
_cell_length_c                   10.790(2)
_cell_angle_alpha                94.56(1)
_cell_angle_beta                 99.49(1)
_cell_angle_gamma                95.27(3)
_cell_volume                     493.669
loop_
_atom_site_label
_atom_site_type_symbol
_atom_site_fract_x
_atom_site_fract_y
_atom_site_fract_z
Cs1 Cs 0.66077(3) 0.65658(2) 0.28028(1)
O1 O 0.2595(3) 0.4150(3) 0.3527(2)
O2 O 0.5649(4) 0.2356(3) 0.1307(2)
O3 O 1.0072(3) 0.4233(3) 0.1481(2)
O4 O 1.2637(3) 0.5853(3) 0.0690(2)
O5 O 1.1622(3) 1.0016(3) 0.1476(2)
O6 O 0.8426(3) 0.8419(3) 0.0663(2)
O7 O 0.1789(3) 0.8350(3) 0.3424(2)
O8 O 0.2467(4) 1.0978(2) 0.4658(2)
O9 O 0.3087(4) 0.9230(2) 0.6705(2)
O10 O 0.2181(4) 0.6578(2) 0.5544(2)
C1 C 1.0845(4) 0.5058(3) 0.0607(2)
C2 C 0.9940(4) 0.9521(3) 0.0601(2)
C3 C 0.2232(4) 0.9305(3) 0.4469(2)
C4 C 0.2498(4) 0.8205(3) 0.5638(2)
H1 H 1.072(6) 0.426(5) 0.206(4)
H2 H 1.158(6) 0.958(5) 0.224(4)
H3 H 0.343(6) 0.869(5) 0.738(3)
H4 H 0.285(6) 0.333(5) 0.387(4)
H5 H 0.243(6) 0.504(5) 0.413(3)
H6 H 0.459(6) 0.195(5) 0.084(4)
H7 H 0.646(6) 0.274(5) 0.076(3)
C1A C 0.9155(4) 0.4942(3) -0.0607(2)
O3A O 0.9928(3) 0.5767(3) -0.1481(2)
H1A H 0.928(6) 0.574(5) -0.206(4)
O4A O 0.7363(3) 0.4147(3) -0.0690(2)
C2A C 1.0060(4) 1.0479(3) -0.0601(2)
O5A O 0.8378(3) 0.9984(3) -0.1476(2)
H2A H 0.842(6) 1.042(5) -0.224(4)
O6A O 1.1574(3) 1.1581(3) -0.0663(2)
O7_2 O 1.1789(3) 0.8350(3) 0.3424(2)
O8_2 O 1.2467(4) 1.0978(2) 0.4658(2)
O9_2 O 1.3087(4) 0.9230(2) 0.6705(2)
O10_2 O 1.2181(4) 0.6578(2) 0.5544(2)
C3_2 C 1.2232(4) 0.9305(3) 0.4469(2)
C4_2 C 1.2498(4) 0.8205(3) 0.5638(2)
H3_2 H 1.343(6) 0.869(5) 0.738(3)
Cs1A Cs 1.33923(3) 0.34342(2) -0.28028(1)
O1A O 1.7405(3) 0.5850(3) -0.3527(2)
H4A H 1.715(6) 0.667(5) -0.387(4)
H5A H 1.757(6) 0.496(5) -0.413(3)
O2A O 1.4351(4) 0.7644(3) -0.1307(2)
H6A H 1.541(6) 0.805(5) -0.084(4)
H7A H 1.354(6) 0.726(5) -0.076(3)
O4_2 O 0.2637(3) 0.5853(3) 0.0690(2)
O8A O 0.7533(4) 0.9022(2) 0.5342(2)
O9A O 0.6913(4) 1.0770(2) 0.3295(2)
O10A O 0.7819(4) 0.3422(2) 0.4456(2)
Cs1_2 Cs 1.66077(3) 0.65658(2) 0.28028(1)
Cs1_3 Cs -0.33923(3) 0.65658(2) 0.28028(1)
Cs1A_2 Cs 0.33923(3) 1.34342(2) 0.71972(1)
Cs1A_3 Cs 0.33923(3) 0.34342(2) 0.71972(1)
Cs1A_4 Cs 0.33923(3) 0.34342(2) -0.28028(1)
Cs1A_5 Cs 1.33923(3) 1.34342(2) -0.28028(1)
Cs1A_6 Cs 1.33923(3) 1.34342(2) 0.71972(1)
Cs1A_7 Cs 1.33923(3) 0.34342(2) 0.71972(1)
O4A_2 O 1.7363(3) 0.4147(3) -0.0690(2)
O6A_2 O 1.1574(3) 0.1581(3) -0.0663(2)
O7A O 0.8211(3) 0.1650(3) -0.3424(2)
O7A_2 O 1.8211(3) 0.1650(3) -0.3424(2)
O8_3 O 1.2467(4) 0.0978(2) -0.5342(2)
O9_3 O 1.3087(4) -0.0770(2) -0.3295(2)
O10_3 O 1.2181(4) 0.6578(2) -0.4456(2)
H3A H 0.657(6) 1.131(5) 0.262(3)
H3_3 H 1.343(6) -0.131(5) -0.262(3)
loop_
_geom_bond_atom_site_label_1
_geom_bond_atom_site_label_2
_geom_bond_site_symmetry_1
_geom_bond_site_symmetry_2
Cs1 O1 1_555 1_555
O1 H4 1_555 1_555
O2 Cs1 1_555 1_555
O3 Cs1 1_555 1_555
O4 C1 1_555 1_555
O5 C2 1_555 1_555
O6 Cs1 1_555 1_555
O7 Cs1 1_555 1_555
O8 C3 1_555 1_555
O9 C4 1_555 1_555
O10 C4 1_555 1_555
C1 O3 1_555 1_555
C2 O6 1_555 1_555
C3 O7 1_555 1_555
C4 C3 1_555 1_555
H1 O3 1_555 1_555
H2 O5 1_555 1_555
H3 O9 1_555 1_555
H5 O1 1_555 1_555
H6 O2 1_555 1_555
H7 O2 1_555 1_555
C1A C1 1_555 1_555
O3A C1A 1_555 1_555
H1A O3A 1_555 1_555
O4A C1A 1_555 1_555
C2A C2 1_555 1_555
O5A C2A 1_555 1_555
H2A O5A 1_555 1_555
O6A C2A 1_555 1_555
O7_2 Cs1 1_555 1_555
O8_2 C3_2 1_555 1_555
O9_2 C4_2 1_555 1_555
O10_2 C4_2 1_555 1_555
C3_2 O7_2 1_555 1_555
C4_2 C3_2 1_555 1_555
H3_2 O9_2 1_555 1_555
Cs1A O3A 1_555 1_555
O1A Cs1A 1_555 1_555
H4A O1A 1_555 1_555
H5A O1A 1_555 1_555
O2A Cs1A 1_555 1_555
H6A O2A 1_555 1_555
H7A O2A 1_555 1_555
O4_2 Cs1 1_555 1_555
O8A Cs1 1_555 1_555
O9A Cs1 1_555 1_555
O10A Cs1 1_555 1_555
Cs1_2 O4 1_555 1_555
Cs1_3 O7 1_555 1_555
Cs1A_2 O8 1_555 1_555
Cs1A_3 O10 1_555 1_555
Cs1A_4 O4A 1_555 1_555
Cs1A_5 O6A 1_555 1_555
Cs1A_6 O8_2 1_555 1_555
Cs1A_7 O10_2 1_555 1_555
O4A_2 Cs1A 1_555 1_555
O6A_2 Cs1A 1_555 1_555
O7A Cs1A 1_555 1_555
O7A_2 Cs1A 1_555 1_555
O8_3 Cs1A 1_555 1_555
O9_3 Cs1A 1_555 1_555
O10_3 Cs1A 1_555 1_555
H3A O9A 1_555 1_555
H3_3 O9_3 1_555 1_555
O9 Cs1A_2 1_555 1_555
O7_2 Cs1_2 1_555 1_555
O9_2 Cs1A_6 1_555 1_555
Cs1A_4 O7A 1_555 1_555

#END
