
#######################################################################
#
#                 Cambridge Crystallographic Data Centre
#                                CCDC 
#
#######################################################################
#
# If this CIF has been generated from an entry in the Cambridge 
# Structural Database, then it will include bibliographic, chemical, 
# crystal, experimental, refinement or atomic coordinate data resulting 
# from the CCDC's data processing and validation procedures.
#
#######################################################################

data_THPRCU
_symmetry_cell_setting           orthorhombic
_symmetry_space_group_name_H-M   'P n a 21'
_symmetry_Int_Tables_number      33
_space_group_name_Hall           'P 2c -2n'
loop_
_symmetry_equiv_pos_site_id
_symmetry_equiv_pos_as_xyz
1 x,y,z
2 1/2-x,1/2+y,1/2+z
3 1/2+x,1/2-y,z
4 -x,-y,1/2+z
_cell_length_a                   22.268(15)
_cell_length_b                   14.855(12)
_cell_length_c                   5.670(4)
_cell_angle_alpha                90
_cell_angle_beta                 90
_cell_angle_gamma                90
_cell_volume                     1875.59
loop_
_atom_site_label
_atom_site_type_symbol
_atom_site_fract_x
_atom_site_fract_y
_atom_site_fract_z
Cu1 Cu 0.15440 0.12400 0.25000
S1 S 0.38650 0.14180 0.54730
S2 S 0.42260 0.14750 0.22470
O1 O 0.22380 0.04370 0.23970
O2 O 0.23950 0.07810 0.60640
O3 O 0.59250 0.29650 0.37680
O4 O 0.57450 0.22290 0.05000
O5 O 0.13650 0.12590 -0.13480
N1 N 0.10100 0.01520 0.29580
N2 N 0.21460 0.22860 0.22280
C1 C 0.25370 0.04420 0.42600
C2 C 0.31490 -0.00310 0.39730
C3 C 0.36050 0.02540 0.57830
C4 C 0.49670 0.10090 0.27580
C5 C 0.54160 0.15920 0.40610
C6 C 0.57110 0.23100 0.25980
C7 C 0.06570 -0.00080 0.48370
C8 C 0.03150 -0.07880 0.50740
C9 C 0.03560 -0.14480 0.33110
C10 C 0.07200 -0.12600 0.14430
C11 C 0.10500 -0.04840 0.13490
C12 C 0.21660 0.29700 0.37380
C13 C 0.25880 0.36500 0.35370
C14 C 0.29770 0.36250 0.17720
C15 C 0.29910 0.28920 0.02260
C16 C 0.25450 0.22520 0.05210
H1 H 0.33300 0.01200 0.22380
H2 H 0.30940 -0.07470 0.40430
H3 H 0.39820 -0.02030 0.56370
H4 H 0.34120 0.01500 0.74650
H5 H 0.51680 0.07740 0.12140
H6 H 0.49220 0.03880 0.38340
H7 H 0.51800 0.19180 0.54980
H8 H 0.57400 0.11800 0.48810
H9 H 0.06360 0.04920 0.62260
H10 H 0.00150 -0.08870 0.65340
H11 H 0.01010 -0.20750 0.34320
H12 H 0.07470 -0.17470 0.00020
H13 H 0.13600 -0.03870 -0.01170
H14 H 0.18430 0.29900 0.51970
H15 H 0.25980 0.42100 0.47700
H16 H 0.32950 0.41740 0.15220
H17 H 0.33320 0.28260 -0.11220
H18 H 0.25280 0.16830 -0.06490
O3B O 0.09250 0.20350 0.37680
Cu1B Cu 0.65440 0.37600 0.25000
loop_
_geom_bond_atom_site_label_1
_geom_bond_atom_site_label_2
_geom_bond_site_symmetry_1
_geom_bond_site_symmetry_2
Cu1 O1 1_555 1_555
S1 S2 1_555 1_555
S2 C4 1_555 1_555
O1 C1 1_555 1_555
O2 C1 1_555 1_555
O3 C6 1_555 1_555
O4 C6 1_555 1_555
O5 Cu1 1_555 1_555
N1 Cu1 1_555 1_555
N2 Cu1 1_555 1_555
C1 C2 1_555 1_555
C2 C3 1_555 1_555
C3 S1 1_555 1_555
C4 C5 1_555 1_555
C5 C6 1_555 1_555
C7 N1 1_555 1_555
C8 C7 1_555 1_555
C9 C8 1_555 1_555
C10 C9 1_555 1_555
C11 N1 1_555 1_555
C12 N2 1_555 1_555
C13 C12 1_555 1_555
C14 C13 1_555 1_555
C15 C14 1_555 1_555
C16 N2 1_555 1_555
H1 C2 1_555 1_555
H2 C2 1_555 1_555
H3 C3 1_555 1_555
H4 C3 1_555 1_555
H5 C4 1_555 1_555
H6 C4 1_555 1_555
H7 C5 1_555 1_555
H8 C5 1_555 1_555
H9 C7 1_555 1_555
H10 C8 1_555 1_555
H11 C9 1_555 1_555
H12 C10 1_555 1_555
H13 C11 1_555 1_555
H14 C12 1_555 1_555
H15 C13 1_555 1_555
H16 C14 1_555 1_555
H17 C15 1_555 1_555
H18 C16 1_555 1_555
O3B Cu1 1_555 1_555
Cu1B O3 1_555 1_555
C10 C11 1_555 1_555
C15 C16 1_555 1_555

#END
