
#######################################################################
#
#                 Cambridge Crystallographic Data Centre
#                                CCDC 
#
#######################################################################
#
# If this CIF has been generated from an entry in the Cambridge 
# Structural Database, then it will include bibliographic, chemical, 
# crystal, experimental, refinement or atomic coordinate data resulting 
# from the CCDC's data processing and validation procedures.
#
#######################################################################

data_TIBBOW
_symmetry_cell_setting           monoclinic
_symmetry_space_group_name_H-M   'C 2/c'
_symmetry_Int_Tables_number      15
_space_group_name_Hall           '-C 2yn'
loop_
_symmetry_equiv_pos_site_id
_symmetry_equiv_pos_as_xyz
1 x,y,z
2 1/2+x,1/2+y,z
3 -x,y,1/2-z
4 1/2-x,1/2+y,1/2-z
5 -x,-y,-z
6 1/2-x,1/2-y,-z
7 x,-y,1/2+z
8 1/2+x,1/2-y,1/2+z
_cell_length_a                   20.2130(3)
_cell_length_b                   11.5120(6)
_cell_length_c                   9.7830(2)
_cell_angle_alpha                90
_cell_angle_beta                 115.720(5)
_cell_angle_gamma                90
_cell_volume                     2050.89
loop_
_atom_site_label
_atom_site_type_symbol
_atom_site_fract_x
_atom_site_fract_y
_atom_site_fract_z
Tm1 Tm 0.0000 0.48653(2) 0.2500
O1 O 0.10387(18) 0.4230(3) 0.4634(4)
O2 O 0.0800(2) 0.4734(4) 0.6546(6)
O3 O -0.0497(2) 0.6532(3) 0.0988(5)
H1 H -0.0732 0.6577 0.1509
H2 H -0.0711 0.6988 0.0238
O4 O -0.03166(19) 0.2994(3) 0.3174(4)
C1 C 0.1190(3) 0.4291(4) 0.6005(6)
C2 C 0.1907(3) 0.3777(6) 0.7091(6)
C3 C 0.2232(4) 0.4094(9) 0.8607(8)
H3 H 0.2003 0.4627 0.8976
C4 C 0.2896(5) 0.3613(10) 0.9559(10)
H4 H 0.3119 0.3860 1.0563
C5 C 0.2926(5) 0.2538(9) 0.7672(11)
H5 H 0.3163 0.2005 0.7321
C6 C 0.2276(4) 0.2994(7) 0.6657(9)
H6 H 0.2083 0.2762 0.5647
C7 C 0.0000 0.2469(6) 0.2500
C8 C 0.0000 0.1167(7) 0.2500
C9 C 0.0409(6) 0.0559(7) 0.1926(10)
H7 H 0.0692 0.0950 0.1535
C10 C 0.0393(8) -0.0651(10) 0.1939(14)
H8 H 0.0665 -0.1067 0.1545
N1 N 0.3234(4) 0.2808(9) 0.9110(10)
N2 N 0.0000 -0.1214(13) 0.2500
Tm1F Tm 0.0000 0.51347(2) 0.7500
Tm1F_2 Tm 0.0000 0.51347(2) -0.2500
O1B O -0.10387(18) 0.4230(3) 0.0366(4)
O2B O -0.0800(2) 0.4734(4) -0.1546(6)
O2F O 0.0800(2) 0.5266(4) 0.1546(6)
O2D O -0.0800(2) 0.5266(4) 0.3454(6)
O3B O 0.0497(2) 0.6532(3) 0.4012(5)
H1B H 0.0732 0.6577 0.3491
H2B H 0.0711 0.6988 0.4762
O4B O 0.03166(19) 0.2994(3) 0.1826(4)
C1B C -0.1190(3) 0.4291(4) -0.1005(6)
C2B C -0.1907(3) 0.3777(6) -0.2091(6)
C3B C -0.2232(4) 0.4094(9) -0.3607(8)
H3B H -0.2003 0.4627 -0.3976
C4B C -0.2896(5) 0.3613(10) -0.4559(10)
H4B H -0.3119 0.3860 -0.5563
C5B C -0.2926(5) 0.2538(9) -0.2672(11)
H5B H -0.3163 0.2005 -0.2321
C6B C -0.2276(4) 0.2994(7) -0.1657(9)
H6B H -0.2083 0.2762 -0.0647
C9B C -0.0409(6) 0.0559(7) 0.3074(10)
H7B H -0.0692 0.0950 0.3465
C10B C -0.0393(8) -0.0651(10) 0.3061(14)
H8B H -0.0665 -0.1067 0.3455
N1B N -0.3234(4) 0.2808(9) -0.4110(10)
loop_
_geom_bond_atom_site_label_1
_geom_bond_atom_site_label_2
_geom_bond_site_symmetry_1
_geom_bond_site_symmetry_2
Tm1 O1 1_555 1_555
O1 C1 1_555 1_555
O2 C1 1_555 1_555
O3 Tm1 1_555 1_555
H1 O3 1_555 1_555
H2 O3 1_555 1_555
O4 Tm1 1_555 1_555
C1 C2 1_555 1_555
C2 C3 1_555 1_555
C3 H3 1_555 1_555
C4 C3 1_555 1_555
H4 C4 1_555 1_555
C5 H5 1_555 1_555
C6 C2 1_555 1_555
H6 C6 1_555 1_555
C7 O4 1_555 1_555
C8 C7 1_555 1_555
C9 C8 1_555 1_555
H7 C9 1_555 1_555
C10 C9 1_555 1_555
H8 C10 1_555 1_555
N1 C4 1_555 1_555
N2 C10 1_555 1_555
Tm1F O2 1_555 1_555
Tm1F_2 O2B 1_555 1_555
O1B Tm1 1_555 1_555
O2B C1B 1_555 1_555
O2F Tm1 1_555 1_555
O2D Tm1 1_555 1_555
O3B Tm1 1_555 1_555
H1B O3B 1_555 1_555
H2B O3B 1_555 1_555
O4B Tm1 1_555 1_555
C1B O1B 1_555 1_555
C2B C1B 1_555 1_555
C3B C2B 1_555 1_555
H3B C3B 1_555 1_555
C4B C3B 1_555 1_555
H4B C4B 1_555 1_555
C5B H5B 1_555 1_555
C6B C2B 1_555 1_555
H6B C6B 1_555 1_555
C9B C8 1_555 1_555
H7B C9B 1_555 1_555
C10B N2 1_555 1_555
H8B C10B 1_555 1_555
N1B C4B 1_555 1_555
C5 C6 1_555 1_555
C5 N1 1_555 1_555
C7 O4B 1_555 1_555
C5B C6B 1_555 1_555
C5B N1B 1_555 1_555
C9B C10B 1_555 1_555

#END
