
#######################################################################
#
#                 Cambridge Crystallographic Data Centre
#                                CCDC 
#
#######################################################################
#
# If this CIF has been generated from an entry in the Cambridge 
# Structural Database, then it will include bibliographic, chemical, 
# crystal, experimental, refinement or atomic coordinate data resulting 
# from the CCDC's data processing and validation procedures.
#
#######################################################################

data_TIBCAK
_symmetry_cell_setting           monoclinic
_symmetry_space_group_name_H-M   'P 21/c'
_symmetry_Int_Tables_number      14
_space_group_name_Hall           '-P 2ybc'
loop_
_symmetry_equiv_pos_site_id
_symmetry_equiv_pos_as_xyz
1 x,y,z
2 -x,1/2+y,1/2-z
3 -x,-y,-z
4 x,1/2-y,1/2+z
_cell_length_a                   14.6596(16)
_cell_length_b                   7.6995(8)
_cell_length_c                   14.8678(16)
_cell_angle_alpha                90
_cell_angle_beta                 102.1280(10)
_cell_angle_gamma                90
_cell_volume                     1640.7
loop_
_atom_site_label
_atom_site_type_symbol
_atom_site_fract_x
_atom_site_fract_y
_atom_site_fract_z
Zn1 Zn 0.91421(2) 0.09912(4) 0.31785(2)
N1 N 0.81320(17) 0.3005(3) 0.26746(16)
O1 O 0.89496(15) 0.1295(3) 0.46219(14)
O2 O 0.80254(16) -0.0361(3) 0.36300(14)
O3 O 0.98239(16) -0.2715(3) 0.69344(15)
O4 O 0.89312(16) -0.5038(3) 0.68660(14)
O5 O 0.5093(2) 0.5942(4) 0.1465(3)
O6 O 1.00192(19) -0.1068(3) 0.36666(16)
H1 H 1.0137 -0.1675 0.3234
H2 H 1.0331 -0.1251 0.4198
C1 C 0.8283(2) 0.0219(4) 0.44286(19)
C2 C 0.7786(2) -0.0343(4) 0.5185(2)
C3 C 0.7341(2) -0.2119(4) 0.50152(19)
C4 C 0.6369(2) -0.2250(5) 0.4712(2)
C5 C 0.5945(2) -0.3852(5) 0.4544(3)
C6 C 0.6466(3) -0.5362(5) 0.4672(3)
C7 C 0.7432(2) -0.5251(4) 0.4977(2)
C8 C 0.7872(2) -0.3641(4) 0.51462(19)
C9 C 0.8930(2) -0.3590(5) 0.5454(2)
C10 C 0.92486(19) -0.3788(4) 0.64970(19)
C11 C 0.8223(2) 0.4681(4) 0.2887(2)
H3 H 0.8796 0.5070 0.3218
C12 C 0.7511(2) 0.5881(4) 0.2644(2)
H4 H 0.7609 0.7043 0.2807
C13 C 0.6651(2) 0.5328(4) 0.2153(2)
C14 C 0.6560(2) 0.3583(5) 0.1918(3)
H5 H 0.5996 0.3160 0.1583
C15 C 0.7304(2) 0.2484(4) 0.2182(3)
H6 H 0.7230 0.1322 0.2011
C16 C 0.5828(2) 0.6526(5) 0.1872(2)
C17 C 0.5952(3) 0.8403(5) 0.2083(3)
H7 H 0.6324 0.8916 0.1693
H8 H 0.6259 0.8550 0.2715
H9 H 0.5352 0.8959 0.1977
Zn1B Zn 1.08579(2) -0.09912(4) 0.68215(2)
Zn1C Zn 0.91421(2) -0.59912(4) 0.81785(2)
O3B O 1.01761(16) 0.2715(3) 0.30656(15)
O4C O 0.89312(16) 0.0038(3) 0.18660(14)
loop_
_geom_bond_atom_site_label_1
_geom_bond_atom_site_label_2
_geom_bond_site_symmetry_1
_geom_bond_site_symmetry_2
Zn1 N1 1_555 1_555
N1 C11 1_555 1_555
O1 Zn1 1_555 1_555
O2 Zn1 1_555 1_555
O3 C10 1_555 1_555
O4 C10 1_555 1_555
O5 C16 1_555 1_555
O6 Zn1 1_555 1_555
H1 O6 1_555 1_555
H2 O6 1_555 1_555
C1 O1 1_555 1_555
C2 C1 1_555 1_555
C3 C2 1_555 1_555
C4 C3 1_555 1_555
C5 C4 1_555 1_555
C6 C5 1_555 1_555
C7 C6 1_555 1_555
C8 C3 1_555 1_555
C9 C8 1_555 1_555
C10 C9 1_555 1_555
C11 H3 1_555 1_555
C12 C11 1_555 1_555
H4 C12 1_555 1_555
C13 C12 1_555 1_555
C14 C13 1_555 1_555
H5 C14 1_555 1_555
C15 N1 1_555 1_555
H6 C15 1_555 1_555
C16 C13 1_555 1_555
C17 C16 1_555 1_555
H7 C17 1_555 1_555
H8 C17 1_555 1_555
H9 C17 1_555 1_555
Zn1B O3 1_555 1_555
Zn1C O4 1_555 1_555
O3B Zn1 1_555 1_555
O4C Zn1 1_555 1_555
O2 C1 1_555 1_555
C7 C8 1_555 1_555
C14 C15 1_555 1_555

#END
