
#######################################################################
#
#                 Cambridge Crystallographic Data Centre
#                                CCDC 
#
#######################################################################
#
# If this CIF has been generated from an entry in the Cambridge 
# Structural Database, then it will include bibliographic, chemical, 
# crystal, experimental, refinement or atomic coordinate data resulting 
# from the CCDC's data processing and validation procedures.
#
#######################################################################

data_TIBDEO01
_symmetry_cell_setting           triclinic
_symmetry_space_group_name_H-M   'P -1'
_symmetry_Int_Tables_number      2
_space_group_name_Hall           '-P 1'
loop_
_symmetry_equiv_pos_site_id
_symmetry_equiv_pos_as_xyz
1 x,y,z
2 -x,-y,-z
_cell_length_a                   7.703(4)
_cell_length_b                   11.452(6)
_cell_length_c                   15.370(9)
_cell_angle_alpha                78.182(9)
_cell_angle_beta                 77.170(9)
_cell_angle_gamma                89.784(9)
_cell_volume                     1292.75
loop_
_atom_site_label
_atom_site_type_symbol
_atom_site_fract_x
_atom_site_fract_y
_atom_site_fract_z
Cd1 Cd 0.25015(8) 0.11441(5) -0.00004(4)
O1 O 0.1183(4) -0.0183(2) 0.10999(19)
O2 O -0.0388(4) -0.1583(2) 0.07539(19)
O3 O 0.3833(4) 0.0431(2) -0.11046(19)
O4 O 0.5405(4) -0.1172(2) -0.07572(19)
N1 N 0.1251(4) 0.2569(3) 0.0789(2)
N2 N 0.3754(4) 0.2998(3) -0.0791(2)
C1 C 0.0345(5) -0.1175(3) 0.1280(3)
C2 C 0.0266(5) -0.1926(3) 0.2217(2)
C3 C 0.1480(5) -0.1711(3) 0.2718(3)
H1 H 0.2326 -0.1085 0.2476
C4 C 0.1457(6) -0.2413(4) 0.3572(3)
C5 C 0.0155(7) -0.3306(4) 0.3934(3)
H2 H 0.0112 -0.3766 0.4513
C6 C -0.1108(6) -0.3544(4) 0.3456(3)
C7 C -0.1019(5) -0.2847(3) 0.2593(3)
H3 H -0.1834 -0.2998 0.2260
C8 C 0.2817(8) -0.2175(6) 0.4089(4)
H4 H 0.2473 -0.2617 0.4707
H5 H 0.2888 -0.1337 0.4085
H6 H 0.3960 -0.2419 0.3804
C9 C -0.2540(8) -0.4518(5) 0.3881(4)
H7 H -0.3495 -0.4396 0.3567
H8 H -0.2988 -0.4497 0.4512
H9 H -0.2049 -0.5280 0.3834
C10 C 0.4661(5) -0.0471(3) -0.1284(3)
C11 C 0.4706(5) -0.0730(3) -0.2212(3)
C12 C 0.5965(5) -0.1461(3) -0.2585(3)
H10 H 0.6813 -0.1779 -0.2267
C13 C 0.5980(6) -0.1727(4) -0.3427(3)
C14 C 0.4677(6) -0.1258(4) -0.3884(3)
H11 H 0.4666 -0.1440 -0.4445
C15 C 0.3397(6) -0.0526(4) -0.3524(3)
C16 C 0.3455(5) -0.0255(3) -0.2693(3)
H12 H 0.2633 0.0257 -0.2452
C17 C 0.7387(8) -0.2529(5) -0.3835(4)
H13 H 0.7890 -0.2985 -0.3361
H14 H 0.8311 -0.2044 -0.4286
H15 H 0.6844 -0.3062 -0.4115
C18 C 0.1954(7) -0.0059(5) -0.4008(3)
H16 H 0.0834 -0.0458 -0.3679
H17 H 0.2234 -0.0207 -0.4615
H18 H 0.1873 0.0784 -0.4037
C19 C 0.4968(5) 0.3200(4) -0.1565(3)
H19 H 0.5381 0.2551 -0.1818
C20 C 0.5667(6) 0.4347(4) -0.2028(3)
H20 H 0.6524 0.4455 -0.2573
C21 C 0.5060(6) 0.5293(4) -0.1659(3)
H21 H 0.5497 0.6061 -0.1957
C22 C 0.3793(5) 0.5126(3) -0.0839(3)
C23 C 0.3098(6) 0.6067(4) -0.0393(4)
H22 H 0.3506 0.6849 -0.0662
C24 C 0.1892(7) 0.5860(4) 0.0391(4)
H23 H 0.1485 0.6497 0.0660
C25 C 0.1206(5) 0.4675(3) 0.0832(3)
C26 C -0.0062(6) 0.4396(4) 0.1657(3)
H24 H -0.0511 0.5003 0.1952
C27 C -0.0648(6) 0.3244(4) 0.2033(3)
H25 H -0.1486 0.3053 0.2584
C28 C 0.0046(5) 0.2356(4) 0.1567(3)
H26 H -0.0366 0.1571 0.1820
C29 C 0.1836(5) 0.3720(3) 0.0421(3)
C30 C 0.3161(5) 0.3947(3) -0.0421(3)
O2A O 0.0388(4) 0.1583(2) -0.07539(19)
O4A O 0.4595(4) 0.1172(2) 0.07572(19)
Cd1A Cd -0.25015(8) -0.11441(5) 0.00004(4)
Cd1A_2 Cd 0.74985(8) -0.11441(5) 0.00004(4)
C1A C -0.0345(5) 0.1175(3) -0.1280(3)
C10A C 0.5339(5) 0.0471(3) 0.1284(3)
O1A O -0.1183(4) 0.0183(2) -0.10999(19)
O3A O -0.3833(4) -0.0431(2) 0.11046(19)
O4_2 O -0.4595(4) -0.1172(2) -0.07572(19)
N1A N -0.1251(4) -0.2569(3) -0.0789(2)
N2A N -0.3754(4) -0.2998(3) 0.0791(2)
O1A_2 O 0.8817(4) 0.0183(2) -0.10999(19)
O2_2 O 0.9612(4) -0.1583(2) 0.07539(19)
O3A_2 O 0.6167(4) -0.0431(2) 0.11046(19)
N1A_2 N 0.8749(4) -0.2569(3) -0.0789(2)
N2A_2 N 0.6246(4) -0.2998(3) 0.0791(2)
C2A C -0.0266(5) 0.1926(3) -0.2217(2)
C11A C 0.5294(5) 0.0730(3) 0.2212(3)
C10A_2 C -0.4661(5) 0.0471(3) 0.1284(3)
C10_2 C -0.5339(5) -0.0471(3) -0.1284(3)
C28A C -0.0046(5) -0.2356(4) -0.1567(3)
C29A C -0.1836(5) -0.3720(3) -0.0421(3)
C19A C -0.4968(5) -0.3200(4) 0.1565(3)
C30A C -0.3161(5) -0.3947(3) 0.0421(3)
C1A_2 C 0.9655(5) 0.1175(3) -0.1280(3)
C1_2 C 1.0345(5) -0.1175(3) 0.1280(3)
C28A_2 C 0.9954(5) -0.2356(4) -0.1567(3)
C29A_2 C 0.8164(5) -0.3720(3) -0.0421(3)
C19A_2 C 0.5032(5) -0.3200(4) 0.1565(3)
C30A_2 C 0.6839(5) -0.3947(3) 0.0421(3)
C3A C -0.1480(5) 0.1711(3) -0.2718(3)
C7A C 0.1019(5) 0.2847(3) -0.2593(3)
C12A C 0.4035(5) 0.1461(3) 0.2585(3)
C16A C 0.6545(5) 0.0255(3) 0.2693(3)
O4A_2 O -0.5405(4) 0.1172(2) 0.07572(19)
C11A_2 C -0.4706(5) 0.0730(3) 0.2212(3)
O3_2 O -0.6167(4) 0.0431(2) -0.11046(19)
C11_2 C -0.5294(5) -0.0730(3) -0.2212(3)
C27A C 0.0648(6) -0.3244(4) -0.2033(3)
H26A H 0.0366 -0.1571 -0.1820
C25A C -0.1206(5) -0.4675(3) -0.0832(3)
H19A H -0.5381 -0.2551 0.1818
C20A C -0.5667(6) -0.4347(4) 0.2028(3)
C22A C -0.3793(5) -0.5126(3) 0.0839(3)
O2A_2 O 1.0388(4) 0.1583(2) -0.07539(19)
C2A_2 C 0.9734(5) 0.1926(3) -0.2217(2)
O1_2 O 1.1183(4) -0.0183(2) 0.10999(19)
C2_2 C 1.0266(5) -0.1926(3) 0.2217(2)
C27A_2 C 1.0648(6) -0.3244(4) -0.2033(3)
H26A_2 H 1.0366 -0.1571 -0.1820
C25A_2 C 0.8794(5) -0.4675(3) -0.0832(3)
H19A_2 H 0.4619 -0.2551 0.1818
C20A_2 C 0.4333(6) -0.4347(4) 0.2028(3)
C22A_2 C 0.6207(5) -0.5126(3) 0.0839(3)
H1A H -0.2326 0.1085 -0.2476
C4A C -0.1457(6) 0.2413(4) -0.3572(3)
C6A C 0.1108(6) 0.3544(4) -0.3456(3)
H3A H 0.1834 0.2998 -0.2260
H10A H 0.3187 0.1779 0.2267
C13A C 0.4020(6) 0.1727(4) 0.3427(3)
C15A C 0.6603(6) 0.0526(4) 0.3524(3)
H12A H 0.7367 -0.0257 0.2452
Cd1_2 Cd -0.74985(8) 0.11441(5) -0.00004(4)
C12A_2 C -0.5965(5) 0.1461(3) 0.2585(3)
C16A_2 C -0.3455(5) 0.0255(3) 0.2693(3)
C12_2 C -0.4035(5) -0.1461(3) -0.2585(3)
C16_2 C -0.6545(5) -0.0255(3) -0.2693(3)
C26A C 0.0062(6) -0.4396(4) -0.1657(3)
H25A H 0.1486 -0.3053 -0.2584
C24A C -0.1892(7) -0.5860(4) -0.0391(4)
H20A H -0.6524 -0.4455 0.2573
C21A C -0.5060(6) -0.5293(4) 0.1659(3)
C23A C -0.3098(6) -0.6067(4) 0.0393(4)
Cd1_3 Cd 1.25015(8) 0.11441(5) -0.00004(4)
C3A_2 C 0.8520(5) 0.1711(3) -0.2718(3)
C7A_2 C 1.1019(5) 0.2847(3) -0.2593(3)
C3_2 C 1.1480(5) -0.1711(3) 0.2718(3)
C7_2 C 0.8981(5) -0.2847(3) 0.2593(3)
C26A_2 C 1.0062(6) -0.4396(4) -0.1657(3)
H25A_2 H 1.1486 -0.3053 -0.2584
C24A_2 C 0.8108(7) -0.5860(4) -0.0391(4)
H20A_2 H 0.3476 -0.4455 0.2573
C21A_2 C 0.4940(6) -0.5293(4) 0.1659(3)
C23A_2 C 0.6902(6) -0.6067(4) 0.0393(4)
C5A C -0.0155(7) 0.3306(4) -0.3934(3)
C8A C -0.2817(8) 0.2175(6) -0.4089(4)
C9A C 0.2540(8) 0.4518(5) -0.3881(4)
C14A C 0.5323(6) 0.1258(4) 0.3884(3)
C17A C 0.2613(8) 0.2529(5) 0.3835(4)
C18A C 0.8046(7) 0.0059(5) 0.4008(3)
O1_3 O -0.8817(4) -0.0183(2) 0.10999(19)
O2A_3 O -0.9612(4) 0.1583(2) -0.07539(19)
N1_2 N -0.8749(4) 0.2569(3) 0.0789(2)
N2_2 N -0.6246(4) 0.2998(3) -0.0791(2)
H10A_2 H -0.6813 0.1779 0.2267
C13A_2 C -0.5980(6) 0.1727(4) 0.3427(3)
C15A_2 C -0.3397(6) 0.0526(4) 0.3524(3)
H12A_2 H -0.2633 -0.0257 0.2452
H10_2 H -0.3187 -0.1779 -0.2267
C13_2 C -0.4020(6) -0.1727(4) -0.3427(3)
C15_2 C -0.6603(6) -0.0526(4) -0.3524(3)
H12_2 H -0.7367 0.0257 -0.2452
H24A H 0.0511 -0.5003 -0.1952
H23A H -0.1485 -0.6497 -0.0660
H21A H -0.5497 -0.6061 0.1957
H22A H -0.3506 -0.6849 0.0662
O3_3 O 1.3833(4) 0.0431(2) -0.11046(19)
O4A_3 O 1.4595(4) 0.1172(2) 0.07572(19)
N1_3 N 1.1251(4) 0.2569(3) 0.0789(2)
N2_3 N 1.3754(4) 0.2998(3) -0.0791(2)
H1A_2 H 0.7674 0.1085 -0.2476
C4A_2 C 0.8543(6) 0.2413(4) -0.3572(3)
C6A_2 C 1.1108(6) 0.3544(4) -0.3456(3)
H3A_2 H 1.1834 0.2998 -0.2260
H1_2 H 1.2326 -0.1085 0.2476
C4_2 C 1.1457(6) -0.2413(4) 0.3572(3)
C6_2 C 0.8892(6) -0.3544(4) 0.3456(3)
H3_2 H 0.8166 -0.2998 0.2260
H24A_2 H 1.0511 -0.5003 -0.1952
H23A_2 H 0.8515 -0.6497 -0.0660
H21A_2 H 0.4503 -0.6061 0.1957
H22A_2 H 0.6494 -0.6849 0.0662
loop_
_geom_bond_atom_site_label_1
_geom_bond_atom_site_label_2
_geom_bond_site_symmetry_1
_geom_bond_site_symmetry_2
Cd1 O1 1_555 1_555
O1 C1 1_555 1_555
O2 C1 1_555 1_555
O3 Cd1 1_555 1_555
O4 C10 1_555 1_555
N1 Cd1 1_555 1_555
N2 Cd1 1_555 1_555
C1 C2 1_555 1_555
C2 C3 1_555 1_555
C3 H1 1_555 1_555
C4 C3 1_555 1_555
C5 C4 1_555 1_555
H2 C5 1_555 1_555
C6 C5 1_555 1_555
C7 C2 1_555 1_555
H3 C7 1_555 1_555
C8 C4 1_555 1_555
H4 C8 1_555 1_555
H5 C8 1_555 1_555
H6 C8 1_555 1_555
C9 C6 1_555 1_555
H7 C9 1_555 1_555
H8 C9 1_555 1_555
H9 C9 1_555 1_555
C10 O3 1_555 1_555
C11 C10 1_555 1_555
C12 C11 1_555 1_555
H10 C12 1_555 1_555
C13 C12 1_555 1_555
C14 C13 1_555 1_555
H11 C14 1_555 1_555
C15 C14 1_555 1_555
C16 C11 1_555 1_555
H12 C16 1_555 1_555
C17 C13 1_555 1_555
H13 C17 1_555 1_555
H14 C17 1_555 1_555
H15 C17 1_555 1_555
C18 C15 1_555 1_555
H16 C18 1_555 1_555
H17 C18 1_555 1_555
H18 C18 1_555 1_555
C19 N2 1_555 1_555
H19 C19 1_555 1_555
C20 C19 1_555 1_555
H20 C20 1_555 1_555
C21 C20 1_555 1_555
H21 C21 1_555 1_555
C22 C21 1_555 1_555
C23 C22 1_555 1_555
H22 C23 1_555 1_555
C24 C23 1_555 1_555
H23 C24 1_555 1_555
C25 C24 1_555 1_555
C26 C25 1_555 1_555
H24 C26 1_555 1_555
C27 C26 1_555 1_555
H25 C27 1_555 1_555
C28 N1 1_555 1_555
H26 C28 1_555 1_555
C29 N1 1_555 1_555
C30 N2 1_555 1_555
O2A Cd1 1_555 1_555
O4A Cd1 1_555 1_555
Cd1A O2 1_555 1_555
Cd1A_2 O4 1_555 1_555
C1A O2A 1_555 1_555
C10A O4A 1_555 1_555
O1A Cd1A 1_555 1_555
O3A Cd1A 1_555 1_555
O4_2 Cd1A 1_555 1_555
N1A Cd1A 1_555 1_555
N2A Cd1A 1_555 1_555
O1A_2 Cd1A_2 1_555 1_555
O2_2 Cd1A_2 1_555 1_555
O3A_2 Cd1A_2 1_555 1_555
N1A_2 Cd1A_2 1_555 1_555
N2A_2 Cd1A_2 1_555 1_555
C2A C1A 1_555 1_555
C11A C10A 1_555 1_555
C10A_2 O3A 1_555 1_555
C10_2 O4_2 1_555 1_555
C28A N1A 1_555 1_555
C29A N1A 1_555 1_555
C19A N2A 1_555 1_555
C30A N2A 1_555 1_555
C1A_2 O1A_2 1_555 1_555
C1_2 O2_2 1_555 1_555
C28A_2 N1A_2 1_555 1_555
C29A_2 N1A_2 1_555 1_555
C19A_2 N2A_2 1_555 1_555
C30A_2 N2A_2 1_555 1_555
C3A C2A 1_555 1_555
C7A C2A 1_555 1_555
C12A C11A 1_555 1_555
C16A C11A 1_555 1_555
O4A_2 C10A_2 1_555 1_555
C11A_2 C10A_2 1_555 1_555
O3_2 C10_2 1_555 1_555
C11_2 C10_2 1_555 1_555
C27A C28A 1_555 1_555
H26A C28A 1_555 1_555
C25A C29A 1_555 1_555
H19A C19A 1_555 1_555
C20A C19A 1_555 1_555
C22A C30A 1_555 1_555
O2A_2 C1A_2 1_555 1_555
C2A_2 C1A_2 1_555 1_555
O1_2 C1_2 1_555 1_555
C2_2 C1_2 1_555 1_555
C27A_2 C28A_2 1_555 1_555
H26A_2 C28A_2 1_555 1_555
C25A_2 C29A_2 1_555 1_555
H19A_2 C19A_2 1_555 1_555
C20A_2 C19A_2 1_555 1_555
C22A_2 C30A_2 1_555 1_555
H1A C3A 1_555 1_555
C4A C3A 1_555 1_555
C6A C7A 1_555 1_555
H3A C7A 1_555 1_555
H10A C12A 1_555 1_555
C13A C12A 1_555 1_555
C15A C16A 1_555 1_555
H12A C16A 1_555 1_555
Cd1_2 O4A_2 1_555 1_555
C12A_2 C11A_2 1_555 1_555
C16A_2 C11A_2 1_555 1_555
C12_2 C11_2 1_555 1_555
C16_2 C11_2 1_555 1_555
C26A C27A 1_555 1_555
H25A C27A 1_555 1_555
C24A C25A 1_555 1_555
H20A C20A 1_555 1_555
C21A C20A 1_555 1_555
C23A C22A 1_555 1_555
Cd1_3 O2A_2 1_555 1_555
C3A_2 C2A_2 1_555 1_555
C7A_2 C2A_2 1_555 1_555
C3_2 C2_2 1_555 1_555
C7_2 C2_2 1_555 1_555
C26A_2 C27A_2 1_555 1_555
H25A_2 C27A_2 1_555 1_555
C24A_2 C25A_2 1_555 1_555
H20A_2 C20A_2 1_555 1_555
C21A_2 C20A_2 1_555 1_555
C23A_2 C22A_2 1_555 1_555
C5A C4A 1_555 1_555
C8A C4A 1_555 1_555
C9A C6A 1_555 1_555
C14A C13A 1_555 1_555
C17A C13A 1_555 1_555
C18A C15A 1_555 1_555
O1_3 Cd1_2 1_555 1_555
O2A_3 Cd1_2 1_555 1_555
N1_2 Cd1_2 1_555 1_555
N2_2 Cd1_2 1_555 1_555
H10A_2 C12A_2 1_555 1_555
C13A_2 C12A_2 1_555 1_555
C15A_2 C16A_2 1_555 1_555
H12A_2 C16A_2 1_555 1_555
H10_2 C12_2 1_555 1_555
C13_2 C12_2 1_555 1_555
C15_2 C16_2 1_555 1_555
H12_2 C16_2 1_555 1_555
H24A C26A 1_555 1_555
H23A C24A 1_555 1_555
H21A C21A 1_555 1_555
H22A C23A 1_555 1_555
O3_3 Cd1_3 1_555 1_555
O4A_3 Cd1_3 1_555 1_555
N1_3 Cd1_3 1_555 1_555
N2_3 Cd1_3 1_555 1_555
H1A_2 C3A_2 1_555 1_555
C4A_2 C3A_2 1_555 1_555
C6A_2 C7A_2 1_555 1_555
H3A_2 C7A_2 1_555 1_555
H1_2 C3_2 1_555 1_555
C4_2 C3_2 1_555 1_555
C6_2 C7_2 1_555 1_555
H3_2 C7_2 1_555 1_555
H24A_2 C26A_2 1_555 1_555
H23A_2 C24A_2 1_555 1_555
H21A_2 C21A_2 1_555 1_555
H22A_2 C23A_2 1_555 1_555
C6 C7 1_555 1_555
C15 C16 1_555 1_555
C22 C30 1_555 1_555
C25 C29 1_555 1_555
C27 C28 1_555 1_555
C29 C30 1_555 1_555
C1A O1A 1_555 1_555
C10A O3A_2 1_555 1_555
C29A C30A 1_555 1_555
C29A_2 C30A_2 1_555 1_555
O3_2 Cd1_2 1_555 1_555
C25A C26A 1_555 1_555
C22A C21A 1_555 1_555
O1_2 Cd1_3 1_555 1_555
C25A_2 C26A_2 1_555 1_555
C22A_2 C21A_2 1_555 1_555
C6A C5A 1_555 1_555
C15A C14A 1_555 1_555
C24A C23A 1_555 1_555
C24A_2 C23A_2 1_555 1_555

#END
