
#######################################################################
#
#                 Cambridge Crystallographic Data Centre
#                                CCDC 
#
#######################################################################
#
# If this CIF has been generated from an entry in the Cambridge 
# Structural Database, then it will include bibliographic, chemical, 
# crystal, experimental, refinement or atomic coordinate data resulting 
# from the CCDC's data processing and validation procedures.
#
#######################################################################

data_TIBHIW
_symmetry_cell_setting           tetragonal
_symmetry_space_group_name_H-M   'P 43 21 2'
_symmetry_Int_Tables_number      96
_space_group_name_Hall           'P 4nw 2abw'
loop_
_symmetry_equiv_pos_site_id
_symmetry_equiv_pos_as_xyz
1 x,y,z
2 1/2-y,1/2+x,3/4+z
3 -x,-y,1/2+z
4 1/2+y,1/2-x,1/4+z
5 1/2+x,1/2-y,1/4-z
6 y,x,-z
7 1/2-x,1/2+y,3/4-z
8 -y,-x,1/2-z
_cell_length_a                   10.2694(13)
_cell_length_b                   10.2694(13)
_cell_length_c                   30.611(8)
_cell_angle_alpha                90
_cell_angle_beta                 90
_cell_angle_gamma                90
_cell_volume                     3228.25
loop_
_atom_site_label
_atom_site_type_symbol
_atom_site_fract_x
_atom_site_fract_y
_atom_site_fract_z
Mn1 Mn 0.31207(3) 0.96108(3) 0.142844(10)
O1 O 0.33240(17) 0.80000(17) 0.09491(5)
H1 H 0.3895 0.8146 0.0755
H2 H 0.2693 0.7577 0.0841
O2 O 1.11938(17) 0.24608(17) 0.14725(5)
O3 O 0.50673(16) 1.02057(18) 0.12576(6)
H3 H 0.5424 1.0932 0.1199
H4 H 0.5549 0.9782 0.1433
O4 O 0.35369(17) 0.84367(17) 0.28231(5)
H5 H 0.3428 0.8720 0.2575
O5 O 0.23079(16) 1.07358(16) 0.09064(5)
H6 H 0.1925 1.1409 0.1003
H7 H 0.2401 1.0792 0.0632
O6 O 0.39386(15) 0.86759(16) 0.19998(5)
O7 O 0.12448(17) 0.85805(19) 0.15441(5)
H8 H 0.1314 0.8099 0.1769
H9 H 0.0908 0.8144 0.1337
O8 O 0.57627(16) 0.78864(16) 0.17102(5)
O9 O 1.18617(17) 0.06247(16) 0.26542(5)
H10 H 1.2242 0.0549 0.2420
N1 N 0.80204(18) 0.44061(18) 0.25395(6)
N2 N 0.74338(18) 0.47035(18) 0.28867(6)
O10 O 1.23776(16) 0.10721(15) 0.18662(5)
C1 C 0.4791(2) 0.6890(2) 0.32062(7)
H11 H 0.4319 0.7073 0.3458
C2 C 1.0101(2) 0.1727(2) 0.29780(7)
H12 H 1.0209 0.1222 0.3227
C3 C 1.0720(2) 0.2238(2) 0.22317(7)
C4 C 0.4507(2) 0.7540(2) 0.28193(7)
C5 C 0.8987(2) 0.3420(2) 0.25912(7)
C6 C 0.6465(2) 0.5676(2) 0.28398(7)
C7 C 0.4969(2) 0.7982(2) 0.20195(7)
C8 C 0.6194(2) 0.6342(2) 0.24557(7)
H13 H 0.6672 0.6156 0.2205
C9 C 1.0906(2) 0.1525(2) 0.26152(7)
C10 C 0.9760(2) 0.3190(2) 0.22291(7)
H14 H 0.9634 0.3685 0.1978
C11 C 0.5227(2) 0.72763(19) 0.24386(7)
C12 C 0.5760(2) 0.5984(2) 0.32171(7)
H15 H 0.5956 0.5565 0.3478
C13 C 0.9156(2) 0.2664(2) 0.29672(7)
H16 H 0.8626 0.2799 0.3209
C14 C 1.1470(2) 0.1928(2) 0.18252(7)
Mn1_2 Mn 1.31207(3) -0.03892(3) 0.142844(10)
O10_2 O 0.23776(16) 1.10721(15) 0.18662(5)
loop_
_geom_bond_atom_site_label_1
_geom_bond_atom_site_label_2
_geom_bond_site_symmetry_1
_geom_bond_site_symmetry_2
Mn1 O1 1_555 1_555
O1 H1 1_555 1_555
H2 O1 1_555 1_555
O2 C14 1_555 1_555
O3 Mn1 1_555 1_555
H3 O3 1_555 1_555
H4 O3 1_555 1_555
O4 H5 1_555 1_555
O5 Mn1 1_555 1_555
H6 O5 1_555 1_555
H7 O5 1_555 1_555
O6 Mn1 1_555 1_555
O7 Mn1 1_555 1_555
H8 O7 1_555 1_555
H9 O7 1_555 1_555
O8 C7 1_555 1_555
O9 H10 1_555 1_555
N1 N2 1_555 1_555
N2 C6 1_555 1_555
O10 C14 1_555 1_555
C1 H11 1_555 1_555
C2 H12 1_555 1_555
C3 C9 1_555 1_555
C4 O4 1_555 1_555
C5 N1 1_555 1_555
C6 C8 1_555 1_555
C7 O6 1_555 1_555
C8 H13 1_555 1_555
C9 O9 1_555 1_555
C10 C3 1_555 1_555
H14 C10 1_555 1_555
C11 C4 1_555 1_555
C12 C1 1_555 1_555
H15 C12 1_555 1_555
C13 C2 1_555 1_555
H16 C13 1_555 1_555
C14 C3 1_555 1_555
Mn1_2 O10 1_555 1_555
O10_2 Mn1 1_555 1_555
C1 C4 1_555 1_555
C2 C9 1_555 1_555
C5 C10 1_555 1_555
C5 C13 1_555 1_555
C6 C12 1_555 1_555
C7 C11 1_555 1_555
C8 C11 1_555 1_555

#END
