
#######################################################################
#
#                 Cambridge Crystallographic Data Centre
#                                CCDC 
#
#######################################################################
#
# If this CIF has been generated from an entry in the Cambridge 
# Structural Database, then it will include bibliographic, chemical, 
# crystal, experimental, refinement or atomic coordinate data resulting 
# from the CCDC's data processing and validation procedures.
#
#######################################################################

data_TIBHOD
_symmetry_cell_setting           triclinic
_symmetry_space_group_name_H-M   'P -1'
_symmetry_Int_Tables_number      2
_space_group_name_Hall           '-P 1'
loop_
_symmetry_equiv_pos_site_id
_symmetry_equiv_pos_as_xyz
1 x,y,z
2 -x,-y,-z
_cell_length_a                   9.4871(8)
_cell_length_b                   12.9289(5)
_cell_length_c                   14.0230(5)
_cell_angle_alpha                90.4740(10)
_cell_angle_beta                 107.8060(10)
_cell_angle_gamma                109.6910(10)
_cell_volume                     1529.94
loop_
_atom_site_label
_atom_site_type_symbol
_atom_site_fract_x
_atom_site_fract_y
_atom_site_fract_z
Zn1 Zn 0.76957(7) 0.21264(5) -0.12874(4)
Zn2 Zn 0.65616(7) 0.31543(5) 0.35031(4)
C1 C 0.7494(7) 0.1291(5) 0.0719(4)
H1 H 0.7805 0.1996 0.1055
C2 C 0.7258(7) 0.0350(5) 0.1147(4)
H2 H 0.7367 0.0282 0.1823
C3 C 0.6789(6) -0.0034(5) -0.0477(4)
C4 C 0.6310(9) -0.0670(5) -0.1491(4)
H3 H 0.5826 -0.0293 -0.2005
H4 H 0.5567 -0.1398 -0.1515
H5 H 0.7230 -0.0729 -0.1606
C5 C 0.6471(6) -0.1657(4) 0.0540(4)
H6 H 0.5752 -0.1861 0.0929
H7 H 0.5951 -0.2114 -0.0110
C6 C 0.8561(7) -0.1768(5) 0.2093(4)
H8 H 0.8132 -0.1630 0.2572
C7 C 0.9976(7) -0.1917(5) 0.2271(4)
H9 H 1.0686 -0.1890 0.2907
C8 C 0.8932(7) -0.2072(5) 0.0653(4)
C9 C 0.8670(8) -0.2228(5) -0.0443(4)
H10 H 0.8923 -0.1520 -0.0688
H11 H 0.7580 -0.2668 -0.0792
H12 H 0.9337 -0.2597 -0.0561
C10 C 0.7503(7) 0.3330(5) 0.5767(4)
H13 H 0.7151 0.2561 0.5716
C11 C 0.7989(7) 0.4001(5) 0.6616(4)
H14 H 0.8028 0.3798 0.7255
C12 C 0.8167(6) 0.4987(5) 0.5345(4)
C13 C 0.9046(7) 0.6075(5) 0.7069(4)
H15 H 1.0014 0.6575 0.6987
H16 H 0.9299 0.5888 0.7754
C14 C 0.8134(7) 0.7690(5) 0.6645(5)
H17 H 0.9043 0.8167 0.6541
C15 C 0.6829(7) 0.7891(5) 0.6571(4)
H18 H 0.6677 0.8552 0.6413
C16 C 0.6415(6) 0.6228(5) 0.6988(4)
C17 C 0.8484(8) 0.5959(5) 0.4783(4)
H19 H 0.8716 0.5771 0.4199
H20 H 0.9374 0.6563 0.5211
H21 H 0.7568 0.6170 0.4576
C18 C 0.5719(9) 0.5126(6) 0.7278(6)
H22 H 0.4698 0.5039 0.7324
H23 H 0.6400 0.5056 0.7920
H24 H 0.5607 0.4565 0.6778
C19 C 0.8049(7) 0.3958(5) -0.0103(4)
C20 C 0.7405(8) 0.4790(5) 0.0177(4)
H25 H 0.6262 0.4507 -0.0135
H26 H 0.7822 0.5469 -0.0098
C21 C 0.7804(8) 0.5059(5) 0.1310(4)
H27 H 0.8944 0.5298 0.1626
H28 H 0.7485 0.5674 0.1426
C22 C 0.7031(7) 0.4109(5) 0.1821(4)
C23 C 0.4248(7) 0.0642(5) -0.4104(4)
H29 H 0.4930 0.0316 -0.4284
H30 H 0.4144 0.1212 -0.4537
C24 C 0.5038(6) 0.1176(5) -0.3025(4)
C25 C 0.2631(8) -0.0243(5) -0.4312(5)
H31 H 0.1988 0.0071 -0.4072
H32 H 0.2139 -0.0431 -0.5038
C26 C 0.2580(7) -0.1312(5) -0.3846(4)
N1 N 0.7201(6) 0.1047(4) -0.0300(3)
N2 N 0.6821(5) -0.0497(4) 0.0388(3)
N3 N 0.7905(5) -0.1865(4) 0.1066(3)
N4 N 1.0193(5) -0.2112(4) 0.1373(3)
N5 N 0.7597(5) 0.3941(4) 0.4971(3)
N6 N 0.8428(5) 0.5066(4) 0.6358(3)
N7 N 0.7881(6) 0.6636(4) 0.6904(3)
N8 N 0.5721(6) 0.6974(4) 0.6762(3)
O1 O 0.6557(4) 0.1566(3) -0.2729(3)
O2 O 0.4255(5) 0.1211(4) -0.2487(3)
O3 O 0.3744(5) -0.1608(3) -0.3761(3)
O4 O 0.1419(6) -0.1849(4) -0.3643(5)
O5 O 0.7396(5) 0.3488(3) -0.1015(3)
O6 O 0.9125(5) 0.3760(3) 0.0520(3)
O7 O 0.5817(6) 0.3351(4) 0.1346(3)
O8 O 0.7705(5) 0.4185(4) 0.2775(3)
Zn1A Zn 1.23043(7) -0.21264(5) 0.12874(4)
Zn2A Zn 0.34384(7) -0.31543(5) -0.35031(4)
Zn2A_2 Zn 0.34384(7) 0.68457(5) 0.64969(4)
N4A N 0.9807(5) 0.2112(4) -0.1373(3)
N8A N 0.4279(6) 0.3026(4) 0.3238(3)
O3A O 0.6256(5) 0.1608(3) 0.3761(3)
loop_
_geom_bond_atom_site_label_1
_geom_bond_atom_site_label_2
_geom_bond_site_symmetry_1
_geom_bond_site_symmetry_2
Zn1 N1 1_555 1_555
Zn2 N5 1_555 1_555
C1 H1 1_555 1_555
C2 C1 1_555 1_555
H2 C2 1_555 1_555
C3 C4 1_555 1_555
C4 H3 1_555 1_555
H4 C4 1_555 1_555
H5 C4 1_555 1_555
C5 H6 1_555 1_555
H7 C5 1_555 1_555
C6 H8 1_555 1_555
C7 C6 1_555 1_555
H9 C7 1_555 1_555
C8 C9 1_555 1_555
C9 H10 1_555 1_555
H11 C9 1_555 1_555
H12 C9 1_555 1_555
C10 H13 1_555 1_555
C11 C10 1_555 1_555
H14 C11 1_555 1_555
C12 C17 1_555 1_555
C13 H15 1_555 1_555
H16 C13 1_555 1_555
C14 H17 1_555 1_555
C15 C14 1_555 1_555
H18 C15 1_555 1_555
C16 C18 1_555 1_555
C17 H19 1_555 1_555
H20 C17 1_555 1_555
H21 C17 1_555 1_555
C18 H22 1_555 1_555
H23 C18 1_555 1_555
H24 C18 1_555 1_555
C19 C20 1_555 1_555
C20 H25 1_555 1_555
H26 C20 1_555 1_555
C21 C20 1_555 1_555
H27 C21 1_555 1_555
H28 C21 1_555 1_555
C22 C21 1_555 1_555
C23 H29 1_555 1_555
H30 C23 1_555 1_555
C24 C23 1_555 1_555
C25 C23 1_555 1_555
H31 C25 1_555 1_555
H32 C25 1_555 1_555
C26 C25 1_555 1_555
N1 C1 1_555 1_555
N2 C2 1_555 1_555
N3 C5 1_555 1_555
N4 C7 1_555 1_555
N5 C10 1_555 1_555
N6 C11 1_555 1_555
N7 C13 1_555 1_555
N8 C15 1_555 1_555
O1 Zn1 1_555 1_555
O2 C24 1_555 1_555
O3 C26 1_555 1_555
O4 C26 1_555 1_555
O5 Zn1 1_555 1_555
O6 C19 1_555 1_555
O7 C22 1_555 1_555
O8 Zn2 1_555 1_555
Zn1A N4 1_555 1_555
Zn2A O3 1_555 1_555
Zn2A_2 N8 1_555 1_555
N4A Zn1 1_555 1_555
N8A Zn2 1_555 1_555
O3A Zn2 1_555 1_555
C3 N1 1_555 1_555
C3 N2 1_555 1_555
C5 N2 1_555 1_555
C6 N3 1_555 1_555
C8 N3 1_555 1_555
C8 N4 1_555 1_555
C12 N5 1_555 1_555
C12 N6 1_555 1_555
C13 N6 1_555 1_555
C14 N7 1_555 1_555
C16 N7 1_555 1_555
C16 N8 1_555 1_555
C19 O5 1_555 1_555
C22 O8 1_555 1_555
C24 O1 1_555 1_555

#END
