
#######################################################################
#
#                 Cambridge Crystallographic Data Centre
#                                CCDC 
#
#######################################################################
#
# If this CIF has been generated from an entry in the Cambridge 
# Structural Database, then it will include bibliographic, chemical, 
# crystal, experimental, refinement or atomic coordinate data resulting 
# from the CCDC's data processing and validation procedures.
#
#######################################################################

data_TIBMOH
_symmetry_cell_setting           monoclinic
_symmetry_space_group_name_H-M   'P 21/c'
_symmetry_Int_Tables_number      14
_space_group_name_Hall           '-P 2ybc'
loop_
_symmetry_equiv_pos_site_id
_symmetry_equiv_pos_as_xyz
1 x,y,z
2 -x,1/2+y,1/2-z
3 -x,-y,-z
4 x,1/2-y,1/2+z
_cell_length_a                   5.7108(3)
_cell_length_b                   21.8212(11)
_cell_length_c                   13.4418(7)
_cell_angle_alpha                90
_cell_angle_beta                 101.5270(10)
_cell_angle_gamma                90
_cell_volume                     1641.29
loop_
_atom_site_label
_atom_site_type_symbol
_atom_site_fract_x
_atom_site_fract_y
_atom_site_fract_z
O1 O 1.2772(14) -0.01779(19) 0.0391(3)
H1 H 1.3009 -0.0147 0.1034
H2 H 1.1325 -0.0084 0.0150
Cu1 Cu 0.0000 0.5000 0.0000
F1 F -0.7200(3) 0.24733(7) -0.18162(14)
O2 O 0.2072(3) 0.50596(8) -0.10300(14)
O3 O 0.3233(4) 0.50601(9) -0.24951(16)
O4 O -0.2084(3) 0.42968(8) -0.10599(14)
N1 N -0.0123(4) 0.34870(10) -0.35231(17)
N2 N -0.5847(4) 0.18433(10) -0.34091(17)
N3 N -0.7550(4) 0.06394(10) -0.41991(17)
C1 C 0.2000(5) 0.48489(11) -0.1915(2)
C2 C 0.0439(5) 0.43024(11) -0.22842(19)
C3 C -0.1428(5) 0.40699(11) -0.18110(19)
C4 C -0.2555(5) 0.35050(11) -0.22593(19)
C5 C -0.4349(5) 0.32313(11) -0.1845(2)
H3 H -0.4863 0.3421 -0.1307
C6 C -0.5354(5) 0.26947(12) -0.2213(2)
C7 C -0.4660(5) 0.23737(11) -0.30168(19)
C8 C -0.2903(5) 0.26520(12) -0.3439(2)
H4 H -0.2391 0.2459 -0.3974
C9 C -0.1876(5) 0.32127(11) -0.3087(2)
C10 C 0.0951(5) 0.39989(12) -0.3109(2)
H5 H 0.2148 0.4163 -0.3407
C11 C 0.0656(5) 0.31826(13) -0.4366(2)
H6 H 0.1443 0.2786 -0.4201
C12 C 0.1554(7) 0.35440(17) -0.5137(3)
H7 H 0.1562 0.3987 -0.5072
H8 H 0.2869 0.3376 -0.5408
C13 C -0.0803(7) 0.32316(17) -0.5406(2)
H9 H -0.0921 0.2873 -0.5839
H10 H -0.2229 0.3484 -0.5503
C14 C -0.5316(6) 0.16140(13) -0.4352(2)
H11 H -0.5242 0.1953 -0.4811
H12 H -0.3772 0.1412 -0.4218
C15 C -0.7226(6) 0.11657(13) -0.4841(2)
H13 H -0.6820 0.1014 -0.5464
H14 H -0.8733 0.1383 -0.5023
C16 C -0.7924(5) 0.08727(12) -0.3216(2)
H15 H -0.9478 0.1069 -0.3314
H16 H -0.7938 0.0529 -0.2759
C17 C -0.6028(5) 0.13288(12) -0.2719(2)
H17 H -0.4495 0.1123 -0.2542
H18 H -0.6436 0.1484 -0.2099
H19 H -0.622(3) 0.0436(13) -0.409(3)
Cu1C Cu -1.0000 0.0000 -0.5000
Cu1C_2 Cu 1.0000 1.0000 0.5000
F1B F 0.7200(3) 0.75267(7) 0.18162(14)
O2B O -0.2072(3) 0.49404(8) 0.10300(14)
O3B O -0.3233(4) 0.49399(9) 0.24951(16)
O4B O 0.2084(3) 0.57032(8) 0.10599(14)
N1B N 0.0123(4) 0.65130(10) 0.35231(17)
N2B N 0.5847(4) 0.81567(10) 0.34091(17)
N3B N 0.7550(4) 0.93606(10) 0.41991(17)
N3C N 0.2450(4) 0.43606(10) 0.08009(17)
N3A N -0.2450(4) 0.56394(10) -0.08009(17)
C1B C -0.2000(5) 0.51511(11) 0.1915(2)
C2B C -0.0439(5) 0.56976(11) 0.22842(19)
C3B C 0.1428(5) 0.59301(11) 0.18110(19)
C4B C 0.2555(5) 0.64950(11) 0.22593(19)
C5B C 0.4349(5) 0.67687(11) 0.1845(2)
H3B H 0.4863 0.6579 0.1307
C6B C 0.5354(5) 0.73053(12) 0.2213(2)
C7B C 0.4660(5) 0.76263(11) 0.30168(19)
C8B C 0.2903(5) 0.73480(12) 0.3439(2)
H4B H 0.2391 0.7541 0.3974
C9B C 0.1876(5) 0.67873(11) 0.3087(2)
C10B C -0.0951(5) 0.60011(12) 0.3109(2)
H5B H -0.2148 0.5837 0.3407
C11B C -0.0656(5) 0.68174(13) 0.4366(2)
H6B H -0.1443 0.7214 0.4201
C12B C -0.1554(7) 0.64560(17) 0.5137(3)
H7B H -0.1562 0.6013 0.5072
H8B H -0.2869 0.6624 0.5408
C13B C 0.0803(7) 0.67684(17) 0.5406(2)
H9B H 0.0921 0.7127 0.5839
H10B H 0.2229 0.6516 0.5503
C14B C 0.5316(6) 0.83860(13) 0.4352(2)
H11B H 0.5242 0.8047 0.4811
H12B H 0.3772 0.8588 0.4218
C15B C 0.7226(6) 0.88343(13) 0.4841(2)
H13B H 0.6820 0.8986 0.5464
H14B H 0.8733 0.8617 0.5023
C16B C 0.7924(5) 0.91273(12) 0.3216(2)
H15B H 0.9478 0.8931 0.3314
H16B H 0.7938 0.9471 0.2759
C17B C 0.6028(5) 0.86712(12) 0.2719(2)
H17B H 0.4495 0.8877 0.2542
H18B H 0.6436 0.8516 0.2099
H19B H 0.622(3) 0.9564(13) 0.409(3)
H19C H 0.378(3) 0.4564(13) 0.091(3)
H19A H -0.378(3) 0.5436(13) -0.091(3)
loop_
_geom_bond_atom_site_label_1
_geom_bond_atom_site_label_2
_geom_bond_site_symmetry_1
_geom_bond_site_symmetry_2
O1 H1 1_555 1_555
H2 O1 1_555 1_555
Cu1 O2 1_555 1_555
F1 C6 1_555 1_555
O2 C1 1_555 1_555
O3 C1 1_555 1_555
O4 Cu1 1_555 1_555
N1 C9 1_555 1_555
N2 C7 1_555 1_555
N3 C15 1_555 1_555
C1 C2 1_555 1_555
C2 C3 1_555 1_555
C3 O4 1_555 1_555
C4 C3 1_555 1_555
C5 C4 1_555 1_555
H3 C5 1_555 1_555
C6 C5 1_555 1_555
C7 C6 1_555 1_555
C8 C7 1_555 1_555
H4 C8 1_555 1_555
C9 C4 1_555 1_555
C10 N1 1_555 1_555
H5 C10 1_555 1_555
C11 N1 1_555 1_555
H6 C11 1_555 1_555
C12 C11 1_555 1_555
H7 C12 1_555 1_555
H8 C12 1_555 1_555
C13 C11 1_555 1_555
H9 C13 1_555 1_555
H10 C13 1_555 1_555
C14 N2 1_555 1_555
H11 C14 1_555 1_555
H12 C14 1_555 1_555
C15 C14 1_555 1_555
H13 C15 1_555 1_555
H14 C15 1_555 1_555
C16 N3 1_555 1_555
H15 C16 1_555 1_555
H16 C16 1_555 1_555
C17 N2 1_555 1_555
H17 C17 1_555 1_555
H18 C17 1_555 1_555
H19 N3 1_555 1_555
Cu1C N3 1_555 1_555
Cu1C_2 N3B 1_555 1_555
F1B C6B 1_555 1_555
O2B Cu1 1_555 1_555
O3B C1B 1_555 1_555
O4B Cu1 1_555 1_555
N1B C9B 1_555 1_555
N2B C7B 1_555 1_555
N3B C15B 1_555 1_555
N3C Cu1 1_555 1_555
N3A Cu1 1_555 1_555
C1B O2B 1_555 1_555
C2B C1B 1_555 1_555
C3B O4B 1_555 1_555
C4B C3B 1_555 1_555
C5B C4B 1_555 1_555
H3B C5B 1_555 1_555
C6B C5B 1_555 1_555
C7B C6B 1_555 1_555
C8B C7B 1_555 1_555
H4B C8B 1_555 1_555
C9B C4B 1_555 1_555
C10B N1B 1_555 1_555
H5B C10B 1_555 1_555
C11B N1B 1_555 1_555
H6B C11B 1_555 1_555
C12B C11B 1_555 1_555
H7B C12B 1_555 1_555
H8B C12B 1_555 1_555
C13B C11B 1_555 1_555
H9B C13B 1_555 1_555
H10B C13B 1_555 1_555
C14B N2B 1_555 1_555
H11B C14B 1_555 1_555
H12B C14B 1_555 1_555
C15B C14B 1_555 1_555
H13B C15B 1_555 1_555
H14B C15B 1_555 1_555
C16B N3B 1_555 1_555
H15B C16B 1_555 1_555
H16B C16B 1_555 1_555
C17B N2B 1_555 1_555
H17B C17B 1_555 1_555
H18B C17B 1_555 1_555
H19B N3B 1_555 1_555
H19C N3C 1_555 1_555
H19A N3A 1_555 1_555
C2 C10 1_555 1_555
C8 C9 1_555 1_555
C12 C13 1_555 1_555
C16 C17 1_555 1_555
C2B C3B 1_555 1_555
C2B C10B 1_555 1_555
C8B C9B 1_555 1_555
C12B C13B 1_555 1_555
C16B C17B 1_555 1_555

#END
