
#######################################################################
#
#                 Cambridge Crystallographic Data Centre
#                                CCDC 
#
#######################################################################
#
# If this CIF has been generated from an entry in the Cambridge 
# Structural Database, then it will include bibliographic, chemical, 
# crystal, experimental, refinement or atomic coordinate data resulting 
# from the CCDC's data processing and validation procedures.
#
#######################################################################

data_TIBPIF
_symmetry_cell_setting           monoclinic
_symmetry_space_group_name_H-M   'C 2/c'
_symmetry_Int_Tables_number      15
_space_group_name_Hall           '-C 2yn'
loop_
_symmetry_equiv_pos_site_id
_symmetry_equiv_pos_as_xyz
1 x,y,z
2 -x,y,1/2-z
3 1/2+x,1/2+y,z
4 1/2-x,1/2+y,1/2-z
5 -x,-y,-z
6 x,-y,1/2+z
7 1/2-x,1/2-y,-z
8 1/2+x,1/2-y,1/2+z
_cell_length_a                   28.867(4)
_cell_length_b                   8.0358(12)
_cell_length_c                   15.211(2)
_cell_angle_alpha                90
_cell_angle_beta                 114.151(2)
_cell_angle_gamma                90
_cell_volume                     3219.64
loop_
_atom_site_label
_atom_site_type_symbol
_atom_site_fract_x
_atom_site_fract_y
_atom_site_fract_z
Co1 Co 0.374264(15) 0.62245(5) 0.56815(3)
O1 O 0.35589(9) 0.4142(3) 0.21760(16)
O2 O 0.42295(8) 0.4764(3) 0.18995(14)
O3 O 0.33421(9) 0.8224(3) 0.52169(17)
O4 O 0.39685(9) 0.9717(3) 0.62729(17)
N1 N 0.41896(9) 0.6275(3) 0.48974(16)
N2 N 0.32800(9) 1.4148(3) 0.50656(17)
C1 C 0.39993(11) 0.5591(4) 0.4030(2)
H1 H 0.3687 0.5058 0.3833
C2 C 0.42332(12) 0.5611(4) 0.3390(2)
C3 C 0.39853(13) 0.4769(4) 0.2434(2)
C4 C 0.46869(12) 0.6421(4) 0.3666(2)
H2 H 0.4850 0.6466 0.3252
C5 C 0.49079(11) 0.7190(4) 0.4577(2)
C6 C 0.53744(12) 0.8058(4) 0.4898(2)
H3 H 0.5541 0.8179 0.4492
C7 C 0.55788(13) 0.8715(4) 0.5798(2)
H4 H 0.5887 0.9277 0.6005
C8 C 0.53356(12) 0.8561(4) 0.6415(2)
H5 H 0.5484 0.9009 0.7032
C9 C 0.48800(12) 0.7757(4) 0.6124(2)
H6 H 0.4719 0.7665 0.6542
C10 C 0.46540(11) 0.7069(4) 0.5194(2)
C11 C 0.34819(11) 1.2697(4) 0.5438(2)
H7 H 0.3787 1.2717 0.5982
C12 C 0.32760(11) 1.1133(4) 0.5086(2)
C13 C 0.35557(13) 0.9600(4) 0.5575(2)
C14 C 0.28288(11) 1.1094(4) 0.4288(2)
H8 H 0.2682 1.0077 0.4031
C15 C 0.25883(11) 1.2579(4) 0.3850(2)
C16 C 0.21231(12) 1.2600(5) 0.3035(2)
H9 H 0.1969 1.1604 0.2756
C17 C 0.18989(13) 1.4067(5) 0.2655(2)
H10 H 0.1593 1.4067 0.2111
C18 C 0.21211(13) 1.5583(5) 0.3070(2)
H11 H 0.1959 1.6579 0.2809
C19 C 0.25747(12) 1.5606(4) 0.3857(2)
H12 H 0.2722 1.6617 0.4125
C20 C 0.28191(11) 1.4114(4) 0.4261(2)
Co1_2 Co 0.374264(15) 1.62245(5) 0.56815(3)
Co1E Co 0.374264(15) 0.37755(5) 0.06815(3)
O2E O 0.42295(8) 0.5236(3) 0.68995(14)
N2_2 N 0.32800(9) 0.4148(3) 0.50656(17)
loop_
_geom_bond_atom_site_label_1
_geom_bond_atom_site_label_2
_geom_bond_site_symmetry_1
_geom_bond_site_symmetry_2
Co1 O3 1_555 1_555
O1 C3 1_555 1_555
O2 C3 1_555 1_555
O3 C13 1_555 1_555
O4 C13 1_555 1_555
N1 Co1 1_555 1_555
N2 C11 1_555 1_555
C1 N1 1_555 1_555
H1 C1 1_555 1_555
C2 C1 1_555 1_555
C3 C2 1_555 1_555
C4 C2 1_555 1_555
H2 C4 1_555 1_555
C5 C4 1_555 1_555
C6 C5 1_555 1_555
H3 C6 1_555 1_555
C7 C6 1_555 1_555
H4 C7 1_555 1_555
C8 C7 1_555 1_555
H5 C8 1_555 1_555
C9 C8 1_555 1_555
H6 C9 1_555 1_555
C10 N1 1_555 1_555
C11 H7 1_555 1_555
C12 C11 1_555 1_555
C13 C12 1_555 1_555
C14 C12 1_555 1_555
H8 C14 1_555 1_555
C15 C14 1_555 1_555
C16 C15 1_555 1_555
H9 C16 1_555 1_555
C17 C16 1_555 1_555
H10 C17 1_555 1_555
C18 C17 1_555 1_555
H11 C18 1_555 1_555
C19 C18 1_555 1_555
H12 C19 1_555 1_555
C20 N2 1_555 1_555
Co1_2 N2 1_555 1_555
Co1E O2 1_555 1_555
O2E Co1 1_555 1_555
N2_2 Co1 1_555 1_555
C5 C10 1_555 1_555
C9 C10 1_555 1_555
C15 C20 1_555 1_555
C19 C20 1_555 1_555

#END
