
#######################################################################
#
#                 Cambridge Crystallographic Data Centre
#                                CCDC 
#
#######################################################################
#
# If this CIF has been generated from an entry in the Cambridge 
# Structural Database, then it will include bibliographic, chemical, 
# crystal, experimental, refinement or atomic coordinate data resulting 
# from the CCDC's data processing and validation procedures.
#
#######################################################################

data_TIBQAX
_symmetry_cell_setting           monoclinic
_symmetry_space_group_name_H-M   'C 2/c'
_symmetry_Int_Tables_number      15
_space_group_name_Hall           '-C 2yn'
loop_
_symmetry_equiv_pos_site_id
_symmetry_equiv_pos_as_xyz
1 x,y,z
2 1/2+x,1/2+y,z
3 -x,y,1/2-z
4 1/2-x,1/2+y,1/2-z
5 -x,-y,-z
6 1/2-x,1/2-y,-z
7 x,-y,1/2+z
8 1/2+x,1/2-y,1/2+z
_cell_length_a                   19.110(9)
_cell_length_b                   6.814(4)
_cell_length_c                   10.319(5)
_cell_angle_alpha                90
_cell_angle_beta                 109.610(10)
_cell_angle_gamma                90
_cell_volume                     1265.76
loop_
_atom_site_label
_atom_site_type_symbol
_atom_site_fract_x
_atom_site_fract_y
_atom_site_fract_z
Ni1 Ni 0.0000 0.15182(4) 0.7500
N1 N -0.00287(8) 0.3333(2) 0.90851(14)
H1 H -0.0234 0.2565 0.9583
O1 O -0.11030(7) 0.0922(2) 0.71243(14)
O2 O -0.05640(7) -0.07574(19) 0.59159(13)
C1 C -0.18409(9) -0.1479(2) 0.55928(18)
C2 C -0.11281(9) -0.0383(2) 0.62415(17)
C3 C 0.06797(10) 0.3998(3) 1.01166(18)
H2 H 0.0924 0.4912 0.9687
H3 H 0.1006 0.2878 1.0436
C4 C -0.05515(10) 0.5016(3) 0.86644(17)
H4 H -0.1023 0.4555 0.8033
H5 H -0.0354 0.5971 0.8182
C5 C -0.20301(10) -0.2158(3) 0.42510(18)
H6 H -0.1717 -0.1919 0.3747
C6 C -0.23155(10) -0.1809(3) 0.63395(19)
H7 H -0.2194 -0.1337 0.7234
Ni1F Ni 0.0000 0.84818(4) 1.2500
Ni1G Ni -0.5000 -0.65182(4) 0.2500
N1D N 0.00287(8) 0.6667(2) 1.09149(14)
N1B N 0.00287(8) 0.3333(2) 0.59149(14)
H1D H 0.0234 0.7435 1.0417
H1B H 0.0234 0.2565 0.5417
O1E O -0.38970(7) -0.5922(2) 0.28757(14)
O1B O 0.11030(7) 0.0922(2) 0.78757(14)
O2E O -0.44360(7) -0.42426(19) 0.40841(13)
O2B O 0.05640(7) -0.07574(19) 0.90841(13)
C1E C -0.31591(9) -0.3521(2) 0.44072(18)
C2E C -0.38719(9) -0.4617(2) 0.37585(17)
C3D C -0.06797(10) 0.6002(3) 0.98834(18)
H2D H -0.0924 0.5088 1.0313
H3D H -0.1006 0.7122 0.9564
C4D C 0.05515(10) 0.4984(3) 1.13356(17)
H4D H 0.1023 0.5445 1.1967
H5D H 0.0354 0.4029 1.1818
C5E C -0.29699(10) -0.2842(3) 0.57490(18)
H6E H -0.3283 -0.3081 0.6253
C6E C -0.26845(10) -0.3191(3) 0.36605(19)
H7E H -0.2806 -0.3663 0.2766
loop_
_geom_bond_atom_site_label_1
_geom_bond_atom_site_label_2
_geom_bond_site_symmetry_1
_geom_bond_site_symmetry_2
Ni1 N1 1_555 1_555
N1 H1 1_555 1_555
O1 Ni1 1_555 1_555
O2 Ni1 1_555 1_555
C1 C2 1_555 1_555
C2 O1 1_555 1_555
C3 N1 1_555 1_555
H2 C3 1_555 1_555
H3 C3 1_555 1_555
C4 N1 1_555 1_555
H4 C4 1_555 1_555
H5 C4 1_555 1_555
C5 C1 1_555 1_555
H6 C5 1_555 1_555
C6 C1 1_555 1_555
H7 C6 1_555 1_555
Ni1F N1D 1_555 1_555
Ni1G O1E 1_555 1_555
N1D H1D 1_555 1_555
N1B Ni1 1_555 1_555
H1B N1B 1_555 1_555
O1E C2E 1_555 1_555
O1B Ni1 1_555 1_555
O2E Ni1G 1_555 1_555
O2B Ni1 1_555 1_555
C1E C2E 1_555 1_555
C2E O2E 1_555 1_555
C3D C4 1_555 1_555
H2D C3D 1_555 1_555
H3D C3D 1_555 1_555
C4D C3 1_555 1_555
H4D C4D 1_555 1_555
H5D C4D 1_555 1_555
C5E C6 1_555 1_555
H6E C5E 1_555 1_555
C6E C5 1_555 1_555
H7E C6E 1_555 1_555
O2 C2 1_555 1_555
N1D C3D 1_555 1_555
N1D C4D 1_555 1_555
C1E C5E 1_555 1_555
C1E C6E 1_555 1_555

#END
