
#######################################################################
#
#                 Cambridge Crystallographic Data Centre
#                                CCDC 
#
#######################################################################
#
# If this CIF has been generated from an entry in the Cambridge 
# Structural Database, then it will include bibliographic, chemical, 
# crystal, experimental, refinement or atomic coordinate data resulting 
# from the CCDC's data processing and validation procedures.
#
#######################################################################

data_TIBRON
_symmetry_cell_setting           triclinic
_symmetry_space_group_name_H-M   'P -1'
_symmetry_Int_Tables_number      2
_space_group_name_Hall           '-P 1'
loop_
_symmetry_equiv_pos_site_id
_symmetry_equiv_pos_as_xyz
1 x,y,z
2 -x,-y,-z
_cell_length_a                   16.1375(13)
_cell_length_b                   18.4875(15)
_cell_length_c                   19.6126(15)
_cell_angle_alpha                82.764(4)
_cell_angle_beta                 75.661(4)
_cell_angle_gamma                89.511(4)
_cell_volume                     5622.27
loop_
_atom_site_label
_atom_site_type_symbol
_atom_site_fract_x
_atom_site_fract_y
_atom_site_fract_z
C1 C 0.9425(5) 0.9508(5) 0.7196(4)
C2 C 0.7466(6) 0.9793(5) 0.6373(4)
C3 C 0.3802(5) 0.5550(5) 0.8738(4)
C4 C 0.6070(5) 0.7718(5) 0.7206(5)
C5 C 0.9378(6) 0.6628(5) 0.8213(5)
C6 C 0.4283(5) 0.5389(5) 0.9310(4)
C7 C 0.4404(6) 0.3008(5) 0.9091(5)
C8 C 0.5259(5) 0.5144(5) 0.7122(4)
C9 C 1.0789(5) 0.9621(5) 0.5623(4)
C10 C 0.5648(5) 0.5206(5) 0.7735(4)
C11 C 0.7366(6) 0.2875(6) 0.8591(5)
C12 C 1.0393(5) 1.1941(5) 0.6102(4)
C13 C 1.1076(6) 1.2425(5) 0.6211(5)
C14 C 1.1799(6) 1.2608(6) 0.5663(5)
H1 H 1.1873 1.2427 0.5231
C15 C 0.8833(6) 0.6384(5) 0.8862(5)
H2 H 0.8248 0.6459 0.8942
C16 C 0.9954(6) 0.9950(6) 0.8169(5)
H3 H 0.9852 1.0428 0.8006
C17 C 0.9777(6) 0.9367(5) 0.7839(4)
C18 C 0.7769(6) 1.2217(5) 0.5957(5)
C19 C 0.6626(6) 1.0170(5) 0.6435(5)
C20 C 0.7998(6) 0.6534(5) 0.6334(5)
C21 C 0.8829(7) 1.2395(5) 0.4915(5)
H4 H 0.9363 1.2279 0.4648
C22 C 0.7469(6) 1.1846(5) 0.6645(5)
C23 C 0.6214(6) 0.8411(6) 0.6023(5)
H5 H 0.6788 0.8290 0.5901
C24 C 0.9019(6) 0.7046(5) 0.7651(5)
C25 C 0.8256(7) 0.6024(6) 0.5789(5)
C26 C 0.5698(6) 0.8165(5) 0.6683(5)
C27 C 0.9169(7) 0.6028(6) 0.9391(6)
C28 C 0.3623(7) 0.2658(5) 0.9001(6)
C29 C 0.6969(6) 0.8729(5) 0.9073(4)
C30 C 0.7187(6) 0.8228(5) 0.8519(4)
C31 C 0.3427(6) 0.4992(6) 0.8508(5)
H6 H 0.3476 0.4508 0.8689
C32 C 0.9003(7) 0.6166(6) 0.5260(5)
H7 H 0.9348 0.6570 0.5249
C33 C 1.1299(5) 0.9521(5) 0.6171(4)
C34 C 0.7025(6) 0.2557(5) 0.9289(6)
C35 C 0.8327(6) 0.4574(5) 0.8666(5)
C36 C 0.8379(7) 0.4042(6) 0.9227(6)
H8 H 0.7914 0.3937 0.9616
C37 C 0.6156(6) 0.8677(5) 0.9544(5)
H9 H 0.5746 0.8336 0.9522
C38 C 1.1525(6) 0.8837(6) 0.6423(5)
H10 H 1.1383 0.8425 0.6244
C39 C 0.9940(7) 0.8666(6) 0.8097(5)
H11 H 0.9831 0.8281 0.7868
C40 C 0.6690(6) 1.2048(6) 0.7089(5)
C41 C 0.5965(8) 0.2505(6) 1.0327(5)
H12 H 0.5458 0.2683 1.0584
C42 C 0.2975(6) 0.5173(6) 0.7997(5)
C43 C 0.5937(6) 0.9960(6) 0.7013(5)
H13 H 0.5991 0.9585 0.7362
C44 C 0.7525(5) 0.4983(5) 0.8668(4)
C45 C 0.5039(7) 0.4466(7) 0.6994(6)
H14 H 0.5146 0.4050 0.7276
C46 C 0.4835(7) 0.8346(6) 0.6850(6)
H15 H 0.4486 0.8175 0.7294
C47 C 1.2405(6) 1.3068(7) 0.5780(6)
C48 C 0.7652(6) 1.0938(6) 0.7525(5)
H16 H 0.7965 1.0551 0.7672
C49 C 0.7602(8) 1.3124(6) 0.5004(6)
H17 H 0.7284 1.3480 0.4813
C50 C 1.0248(7) 0.6511(7) 0.8100(7)
H18 H 1.0618 0.6688 0.7668
C51 C 0.5994(7) 0.9163(6) 1.0046(5)
C52 C 0.4720(7) 0.5673(8) 0.6160(6)
C53 C 1.0294(7) 0.9783(7) 0.8758(5)
C54 C 1.1965(7) 0.8778(7) 0.6947(6)
C55 C 0.5095(6) 0.5766(6) 0.6707(5)
H19 H 0.5232 0.6228 0.6792
C56 C 0.8373(8) 1.2947(6) 0.4611(6)
H20 H 0.8596 1.3182 0.4155
C57 C 0.6520(7) 1.0717(6) 0.5921(6)
H21 H 0.6973 1.0852 0.5528
C58 C 0.5184(7) 1.0311(7) 0.7060(7)
C59 C 0.9038(6) 0.4715(6) 0.8093(6)
H22 H 0.9012 0.5063 0.7713
C60 C 0.3758(7) 0.6253(6) 0.8437(6)
H23 H 0.4016 0.6627 0.8591
C61 C 0.7277(7) 1.2776(6) 0.5696(6)
C62 C 0.7560(7) 0.9236(6) 0.9131(6)
H24 H 0.8091 0.9283 0.8806
C63 C 0.9129(9) 0.3677(7) 0.9192(7)
C64 C 0.5012(7) 0.9031(7) 0.5711(7)
H25 H 0.4792 0.9331 0.5384
C65 C 1.0981(7) 1.2697(6) 0.6848(5)
H26 H 1.0496 1.2570 0.7214
C66 C 0.5855(7) 0.8841(6) 0.5547(5)
C67 C 0.6411(7) 1.1663(7) 0.7760(6)
H27 H 0.5885 1.1765 0.8051
C68 C 0.6917(7) 1.1122(7) 0.7999(5)
H28 H 0.6764 1.0891 0.8463
C69 C 1.0440(8) 0.9094(8) 0.9021(6)
H29 H 1.0658 0.9009 0.9420
C70 C 1.2200(7) 0.9368(8) 0.7211(6)
H30 H 1.2496 0.9311 0.7564
C71 C 1.1534(6) 1.0123(6) 0.6438(5)
H31 H 1.1384 1.0587 0.6274
C72 C 0.7272(7) 0.3732(6) 0.7647(5)
H32 H 0.6984 0.4122 0.7473
C73 C 0.7974(7) 0.3495(7) 0.7198(7)
H33 H 0.8146 0.3698 0.6725
C74 C 1.1593(7) 1.3152(8) 0.6946(6)
H34 H 1.1522 1.3330 0.7380
C75 C 0.6492(8) 1.2962(7) 0.6154(7)
H35 H 0.6169 1.3331 0.5987
C76 C 0.6210(7) 1.2627(7) 0.6807(7)
H36 H 0.5696 1.2764 0.7090
C77 C 0.8135(7) 0.2608(7) 0.8167(7)
C78 C 0.8426(7) 0.2936(8) 0.7473(7)
H37 H 0.8929 0.2781 0.7189
C79 C 0.9224(9) 0.5705(7) 0.4756(6)
C80 C 0.6571(8) 0.9655(7) 1.0123(7)
H38 H 0.6431 0.9967 1.0470
C81 C 1.1996(7) 1.0032(7) 0.6953(6)
H39 H 1.2166 1.0440 0.7122
C82 C 1.0028(8) 0.5893(7) 0.9283(7)
H40 H 1.0241 0.5646 0.9644
C83 C 0.2913(7) 0.5866(7) 0.7697(6)
H41 H 0.2597 0.5970 0.7360
C84 C 0.3335(9) 0.6416(7) 0.7905(7)
H42 H 0.3334 0.6893 0.7689
C85 C 0.6344(10) 0.1909(7) 1.0662(7)
H43 H 0.6092 0.1693 1.1120
C86 C 0.9839(9) 0.3810(8) 0.8635(8)
H44 H 1.0338 0.3553 0.8628
C87 C 0.3616(8) 0.2441(7) 0.8352(7)
H45 H 0.4101 0.2500 0.7976
C88 C 1.2314(7) 1.3351(7) 0.6410(6)
H46 H 1.2727 1.3666 0.6472
C89 C 0.7372(9) 0.9676(8) 0.9669(7)
H47 H 0.7793 0.9988 0.9724
C90 C 0.4502(8) 0.5017(10) 0.6015(7)
H48 H 0.4255 0.4981 0.5639
C91 C 0.7467(8) 0.1970(7) 0.9582(7)
C92 C 0.7759(9) 0.5428(7) 0.5806(7)
H49 H 0.7265 0.5325 0.6168
C93 C 0.8247(8) 0.1732(7) 0.9132(9)
H50 H 0.8545 0.1354 0.9315
C94 C 0.8553(9) 0.2034(8) 0.8468(9)
H51 H 0.9055 0.1861 0.8197
C95 C 0.4496(7) 0.8773(8) 0.6367(7)
H52 H 0.3920 0.8887 0.6481
C96 C 1.0263(9) 0.8523(7) 0.8691(6)
H53 H 1.0358 0.8046 0.8864
C97 C 0.5069(8) 1.0873(8) 0.6554(8)
H54 H 0.4550 1.1109 0.6604
C98 C 0.2886(7) 0.2570(7) 0.9548(7)
H55 H 0.2885 0.2722 0.9982
C99 C 0.5741(9) 1.1072(7) 0.5980(7)
H56 H 0.5679 1.1443 0.5630
C100 C 1.0566(8) 0.6130(8) 0.8632(8)
H57 H 1.1146 0.6033 0.8549
C101 C 0.9785(8) 0.4335(8) 0.8089(8)
H58 H 1.0259 0.4440 0.7708
C102 C 0.4655(9) 0.4400(9) 0.6440(7)
H59 H 0.4501 0.3942 0.6357
C103 C 0.7097(10) 0.1669(7) 1.0275(8)
H60 H 0.7371 0.1291 1.0483
C104 C 0.2881(12) 0.2138(8) 0.8279(11)
C105 C 0.8732(12) 0.5113(8) 0.4750(8)
H61 H 0.8891 0.4812 0.4395
C106 C 0.7997(12) 0.4970(9) 0.5276(9)
H62 H 0.7653 0.4567 0.5282
C107 C 0.2154(9) 0.2260(10) 0.9457(11)
H63 H 0.1667 0.2195 0.9832
C108 C 0.2140(12) 0.2048(10) 0.8826(14)
H64 H 0.1645 0.1847 0.8758
Dy1 Dy 0.68143(2) 0.66104(2) 0.798838(19)
Dy2 Dy 0.82768(2) 0.81470(2) 0.685480(18)
Dy3 Dy 0.56911(2) 0.39775(2) 0.917395(18)
Dy4 Dy 0.92293(2) 1.08819(2) 0.595035(18)
N1 N 0.8542(5) 1.2030(4) 0.5557(4)
N2 N 0.7936(4) 1.1280(4) 0.6878(4)
N3 N 0.6961(5) 0.3437(4) 0.8333(4)
N4 N 0.6286(5) 0.2819(4) 0.9678(4)
N5 N 1.3180(6) 1.3270(7) 0.5208(6)
N6 N 1.2176(8) 0.8063(8) 0.7240(6)
N7 N 1.0505(7) 1.0410(8) 0.9099(6)
N8 N 0.4462(7) 1.0061(9) 0.7674(7)
N9 N 0.6401(8) 0.9106(7) 0.4847(6)
N10 N 1.0022(8) 0.5864(7) 0.4182(5)
N11 N 0.5136(7) 0.9102(6) 1.0539(5)
N12 N 0.8579(7) 0.5764(6) 1.0073(5)
N13 N 0.9160(12) 0.3114(7) 0.9781(9)
N14 N 0.4520(8) 0.6335(10) 0.5733(6)
N15 N 0.2528(7) 0.4584(7) 0.7775(6)
N16 N 0.2894(15) 0.1929(13) 0.7570(14)
O1 O 1.0401(4) 1.1796(3) 0.5488(3)
O2 O 0.9803(4) 1.1686(4) 0.6623(3)
O3 O 1.3267(5) 1.3030(6) 0.4647(5)
O4 O 1.3682(7) 1.3707(7) 0.5302(6)
O5 O 1.0793(4) 0.9118(3) 0.5252(3)
O6 O 1.0403(4) 1.0206(3) 0.5565(3)
O7 O 1.2522(11) 0.8019(8) 0.7731(7)
O8 O 1.2004(8) 0.7517(6) 0.6981(7)
O9 O 0.9293(4) 1.0160(3) 0.6990(3)
O10 O 0.9292(4) 0.8978(3) 0.6893(3)
O11 O 1.0237(8) 1.0993(7) 0.8952(7)
O12 O 1.0928(7) 1.0269(7) 0.9538(6)
O13 O 0.7454(4) 0.9187(3) 0.6754(3)
O14 O 0.8124(4) 1.0092(3) 0.5952(3)
O15 O 0.4511(7) 0.9515(7) 0.8046(6)
O16 O 0.3829(8) 1.0446(10) 0.7759(8)
O17 O 0.8636(4) 0.8624(4) 0.5663(3)
O18 O 0.8350(4) 0.7149(3) 0.6216(3)
O19 O 0.7426(5) 0.6284(4) 0.6873(3)
O20 O 1.0205(8) 0.5448(7) 0.3728(5)
O21 O 1.0467(7) 0.6377(7) 0.4198(5)
O22 O 0.9490(4) 0.7419(4) 0.7131(3)
O23 O 0.8206(4) 0.7033(3) 0.7742(3)
O24 O 0.8878(8) 0.5498(7) 1.0555(5)
O25 O 0.7819(7) 0.5802(8) 1.0121(5)
O26 O 0.7802(5) 0.8440(4) 0.7988(3)
O27 O 0.6765(4) 0.7646(3) 0.8614(3)
O28 O 0.6884(4) 0.7692(3) 0.7098(3)
O29 O 0.5606(4) 0.7339(4) 0.7735(4)
O30 O 0.7112(8) 0.8874(9) 0.4691(7)
O31 O 0.6137(7) 0.9558(7) 0.4454(5)
O32 O 0.4646(6) 0.8624(6) 1.0531(5)
O33 O 0.4938(7) 0.9582(7) 1.0927(7)
O34 O 0.6377(4) 0.6227(4) 0.9193(3)
O35 O 0.7564(4) 0.5533(3) 0.8226(3)
O36 O 0.6848(4) 0.4741(3) 0.9119(3)
O37 O 0.9832(10) 0.2766(7) 0.9733(8)
O38 O 0.8551(11) 0.3003(7) 1.0285(8)
O39 O 0.5023(4) 0.3168(4) 0.8568(3)
O40 O 0.4436(4) 0.3168(4) 0.9692(3)
O41 O 0.5753(5) 0.4630(4) 0.8094(3)
O42 O 0.5808(4) 0.5826(4) 0.7861(3)
O43 O 0.4591(10) 0.6921(8) 0.5917(8)
O44 O 0.4247(8) 0.6244(9) 0.5216(6)
O45 O 0.2653(9) 0.3966(6) 0.7969(7)
O46 O 0.2073(8) 0.4761(7) 0.7375(7)
O47 O 0.4556(4) 0.4753(4) 0.9407(3)
O48 O 0.4361(4) 0.5887(3) 0.9658(3)
O49 O 0.2267(11) 0.1578(9) 0.7538(12)
O50 O 0.3478(14) 0.2091(13) 0.7095(11)
Dy3A Dy 0.43089(2) 0.60225(2) 1.082605(18)
Dy4A Dy 1.07707(2) 0.91181(2) 0.404965(18)
O5A O 0.9207(4) 1.0882(3) 0.4748(3)
O48A O 0.5639(4) 0.4113(3) 1.0342(3)
loop_
_geom_bond_atom_site_label_1
_geom_bond_atom_site_label_2
_geom_bond_site_symmetry_1
_geom_bond_site_symmetry_2
C1 C17 1_555 1_555
C2 C19 1_555 1_555
C3 C6 1_555 1_555
C4 C26 1_555 1_555
C5 C15 1_555 1_555
C6 O47 1_555 1_555
C7 C28 1_555 1_555
C8 C10 1_555 1_555
C9 C33 1_555 1_555
C10 O41 1_555 1_555
C11 C34 1_555 1_555
C12 C13 1_555 1_555
C13 C14 1_555 1_555
C14 H1 1_555 1_555
C15 H2 1_555 1_555
C16 H3 1_555 1_555
C17 C16 1_555 1_555
C18 C22 1_555 1_555
C19 C43 1_555 1_555
C20 C25 1_555 1_555
C21 H4 1_555 1_555
C22 C40 1_555 1_555
C23 H5 1_555 1_555
C24 C5 1_555 1_555
C25 C32 1_555 1_555
C26 C23 1_555 1_555
C27 C15 1_555 1_555
C28 C87 1_555 1_555
C29 C30 1_555 1_555
C30 O26 1_555 1_555
C31 C3 1_555 1_555
H6 C31 1_555 1_555
C32 H7 1_555 1_555
C33 C38 1_555 1_555
C34 C91 1_555 1_555
C35 C36 1_555 1_555
C36 H8 1_555 1_555
C37 C29 1_555 1_555
H9 C37 1_555 1_555
C38 H10 1_555 1_555
C39 C17 1_555 1_555
H11 C39 1_555 1_555
C40 C67 1_555 1_555
C41 H12 1_555 1_555
C42 C31 1_555 1_555
C43 H13 1_555 1_555
C44 C35 1_555 1_555
C45 C8 1_555 1_555
H14 C45 1_555 1_555
C46 C26 1_555 1_555
H15 C46 1_555 1_555
C47 C14 1_555 1_555
C48 H16 1_555 1_555
C49 H17 1_555 1_555
C50 C5 1_555 1_555
H18 C50 1_555 1_555
C51 C37 1_555 1_555
C52 C55 1_555 1_555
C53 C16 1_555 1_555
C54 C38 1_555 1_555
C55 C8 1_555 1_555
H19 C55 1_555 1_555
C56 C21 1_555 1_555
H20 C56 1_555 1_555
C57 C19 1_555 1_555
H21 C57 1_555 1_555
C58 C43 1_555 1_555
C59 C35 1_555 1_555
H22 C59 1_555 1_555
C60 C3 1_555 1_555
H23 C60 1_555 1_555
C61 C18 1_555 1_555
C62 C29 1_555 1_555
H24 C62 1_555 1_555
C63 C36 1_555 1_555
C64 H25 1_555 1_555
C65 C13 1_555 1_555
H26 C65 1_555 1_555
C66 C23 1_555 1_555
C67 H27 1_555 1_555
C68 C48 1_555 1_555
H28 C68 1_555 1_555
C69 C53 1_555 1_555
H29 C69 1_555 1_555
C70 C54 1_555 1_555
H30 C70 1_555 1_555
C71 C33 1_555 1_555
H31 C71 1_555 1_555
C72 H32 1_555 1_555
C73 C72 1_555 1_555
H33 C73 1_555 1_555
C74 C65 1_555 1_555
H34 C74 1_555 1_555
C75 C61 1_555 1_555
H35 C75 1_555 1_555
C76 C40 1_555 1_555
H36 C76 1_555 1_555
C77 C11 1_555 1_555
C78 C73 1_555 1_555
H37 C78 1_555 1_555
C79 C32 1_555 1_555
C80 C51 1_555 1_555
H38 C80 1_555 1_555
C81 C70 1_555 1_555
H39 C81 1_555 1_555
C82 C27 1_555 1_555
H40 C82 1_555 1_555
C83 C42 1_555 1_555
H41 C83 1_555 1_555
C84 C60 1_555 1_555
H42 C84 1_555 1_555
C85 C41 1_555 1_555
H43 C85 1_555 1_555
C86 C63 1_555 1_555
H44 C86 1_555 1_555
C87 H45 1_555 1_555
C88 C47 1_555 1_555
H46 C88 1_555 1_555
C89 C62 1_555 1_555
H47 C89 1_555 1_555
C90 C52 1_555 1_555
H48 C90 1_555 1_555
C91 C93 1_555 1_555
C92 C25 1_555 1_555
H49 C92 1_555 1_555
C93 H50 1_555 1_555
C94 C77 1_555 1_555
H51 C94 1_555 1_555
C95 C46 1_555 1_555
H52 C95 1_555 1_555
C96 C39 1_555 1_555
H53 C96 1_555 1_555
C97 C58 1_555 1_555
H54 C97 1_555 1_555
C98 C28 1_555 1_555
H55 C98 1_555 1_555
C99 C57 1_555 1_555
H56 C99 1_555 1_555
C100 C50 1_555 1_555
H57 C100 1_555 1_555
C101 C59 1_555 1_555
H58 C101 1_555 1_555
C102 C45 1_555 1_555
H59 C102 1_555 1_555
C103 C85 1_555 1_555
H60 C103 1_555 1_555
C104 C87 1_555 1_555
C105 C79 1_555 1_555
H61 C105 1_555 1_555
C106 C92 1_555 1_555
H62 C106 1_555 1_555
C107 C98 1_555 1_555
H63 C107 1_555 1_555
C108 C104 1_555 1_555
H64 C108 1_555 1_555
Dy1 O19 1_555 1_555
Dy2 O10 1_555 1_555
Dy3 N3 1_555 1_555
Dy4 N1 1_555 1_555
N1 C18 1_555 1_555
N2 C22 1_555 1_555
N3 C11 1_555 1_555
N4 C34 1_555 1_555
N5 C47 1_555 1_555
N6 C54 1_555 1_555
N7 C53 1_555 1_555
N8 C58 1_555 1_555
N9 C66 1_555 1_555
N10 C79 1_555 1_555
N11 C51 1_555 1_555
N12 C27 1_555 1_555
N13 C63 1_555 1_555
N14 C52 1_555 1_555
N15 C42 1_555 1_555
N16 C104 1_555 1_555
O1 C12 1_555 1_555
O2 C12 1_555 1_555
O3 N5 1_555 1_555
O4 N5 1_555 1_555
O5 C9 1_555 1_555
O6 C9 1_555 1_555
O7 N6 1_555 1_555
O8 N6 1_555 1_555
O9 C1 1_555 1_555
O10 C1 1_555 1_555
O11 N7 1_555 1_555
O12 N7 1_555 1_555
O13 C2 1_555 1_555
O14 C2 1_555 1_555
O15 N8 1_555 1_555
O16 N8 1_555 1_555
O17 Dy2 1_555 1_555
O18 C20 1_555 1_555
O19 C20 1_555 1_555
O20 N10 1_555 1_555
O21 N10 1_555 1_555
O22 C24 1_555 1_555
O23 C24 1_555 1_555
O24 N12 1_555 1_555
O25 N12 1_555 1_555
O26 Dy2 1_555 1_555
O27 C30 1_555 1_555
O28 C4 1_555 1_555
O29 C4 1_555 1_555
O30 N9 1_555 1_555
O31 N9 1_555 1_555
O32 N11 1_555 1_555
O33 N11 1_555 1_555
O34 Dy1 1_555 1_555
O35 C44 1_555 1_555
O36 C44 1_555 1_555
O37 N13 1_555 1_555
O38 N13 1_555 1_555
O39 C7 1_555 1_555
O40 C7 1_555 1_555
O41 Dy3 1_555 1_555
O42 C10 1_555 1_555
O43 N14 1_555 1_555
O44 N14 1_555 1_555
O45 N15 1_555 1_555
O46 N15 1_555 1_555
O47 Dy3 1_555 1_555
O48 C6 1_555 1_555
O49 N16 1_555 1_555
O50 N16 1_555 1_555
Dy3A O48 1_555 1_555
Dy4A O5 1_555 1_555
O5A Dy4 1_555 1_555
O48A Dy3 1_555 1_555
C21 N1 1_555 1_555
C41 N4 1_555 1_555
C48 N2 1_555 1_555
C49 C56 1_555 1_555
C49 C61 1_555 1_555
C64 C66 1_555 1_555
C64 C95 1_555 1_555
C67 C68 1_555 1_555
C69 C96 1_555 1_555
C71 C81 1_555 1_555
C72 N3 1_555 1_555
C74 C88 1_555 1_555
C75 C76 1_555 1_555
C77 C78 1_555 1_555
C80 C89 1_555 1_555
C82 C100 1_555 1_555
C83 C84 1_555 1_555
C86 C101 1_555 1_555
C90 C102 1_555 1_555
C91 C103 1_555 1_555
C93 C94 1_555 1_555
C97 C99 1_555 1_555
C105 C106 1_555 1_555
C107 C108 1_555 1_555
Dy1 O23 1_555 1_555
Dy1 O27 1_555 1_555
Dy1 O28 1_555 1_555
Dy1 O29 1_555 1_555
Dy1 O35 1_555 1_555
Dy1 O42 1_555 1_555
Dy2 O13 1_555 1_555
Dy2 O18 1_555 1_555
Dy2 O22 1_555 1_555
Dy2 O23 1_555 1_555
Dy2 O28 1_555 1_555
Dy3 N4 1_555 1_555
Dy3 O36 1_555 1_555
Dy3 O39 1_555 1_555
Dy3 O40 1_555 1_555
Dy4 N2 1_555 1_555
Dy4 O1 1_555 1_555
Dy4 O2 1_555 1_555
Dy4 O6 1_555 1_555
Dy4 O9 1_555 1_555
Dy4 O14 1_555 1_555

#END
