
#######################################################################
#
#                 Cambridge Crystallographic Data Centre
#                                CCDC 
#
#######################################################################
#
# If this CIF has been generated from an entry in the Cambridge 
# Structural Database, then it will include bibliographic, chemical, 
# crystal, experimental, refinement or atomic coordinate data resulting 
# from the CCDC's data processing and validation procedures.
#
#######################################################################

data_TIBRUT
_symmetry_cell_setting           triclinic
_symmetry_space_group_name_H-M   'P -1'
_symmetry_Int_Tables_number      2
_space_group_name_Hall           '-P 1'
loop_
_symmetry_equiv_pos_site_id
_symmetry_equiv_pos_as_xyz
1 x,y,z
2 -x,-y,-z
_cell_length_a                   10.1915(2)
_cell_length_b                   18.7208(3)
_cell_length_c                   20.7128(4)
_cell_angle_alpha                86.2430(10)
_cell_angle_beta                 81.2920(10)
_cell_angle_gamma                86.1710(10)
_cell_volume                     3891.43
loop_
_atom_site_label
_atom_site_type_symbol
_atom_site_fract_x
_atom_site_fract_y
_atom_site_fract_z
C43 C 0.8067(14) -0.0179(7) -0.1931(7)
C44 C 0.9054(11) -0.0788(8) 0.0701(7)
C45 C 0.9216(16) 0.0453(9) 0.0904(16)
H25 H 1.0123 0.0374 0.0915
C46 C 0.8577(16) 0.1128(9) 0.1015(13)
H26 H 0.8923 0.1449 0.1259
C47 C 0.6702(12) 0.0769(6) 0.0560(11)
C48 C 0.7412(12) 0.1310(6) 0.0751(11)
C49 C 0.686(2) 0.2015(8) 0.0722(15)
C50 C 0.294(3) 0.1301(9) 0.2062(9)
H27 H 0.2578 0.1328 0.2500
C51 C 0.353(3) 0.1890(8) 0.1713(10)
H28 H 0.3296 0.2354 0.1839
C52 C 0.4413(17) 0.1148(6) 0.0829(7)
C53 C 0.4498(17) 0.1761(6) 0.1169(7)
C54 C 0.542(2) 0.2257(9) 0.0896(9)
C55 C 0.6053(18) 0.0436(16) -0.1446(8)
C56 C 0.7083(19) 0.0374(13) -0.1972(8)
C57 C 0.8394(18) -0.0394(17) -0.1312(8)
C58 C 0.7512(17) -0.019(2) -0.0762(8)
C59 C 0.8926(16) -0.064(3) 0.0041(8)
C60 C 0.7707(16) -0.033(2) -0.0104(8)
C61 C 0.7910(16) -0.095(2) 0.1136(8)
C62 C 0.6681(16) -0.067(3) 0.0987(8)
Fe1 Fe 0.5000 0.0000 0.0000
N7 N 0.5477(13) 0.0956(6) 0.0350(9)
N8 N 0.6227(16) 0.0070(8) -0.0851(6)
N9 N 0.6562(11) -0.0465(8) 0.0338(7)
C63 C 0.6015(19) 0.2192(6) 0.0246(8)
C64 C 0.5247(18) 0.1653(8) 0.0093(11)
C65 C 0.621(3) 0.1504(9) 0.0007(10)
C43A C 0.1933(14) 0.0179(7) 0.1931(7)
C44A C 0.0946(11) 0.0788(8) -0.0701(7)
C45A C 0.0784(16) -0.0453(9) -0.0904(16)
H25A H -0.0123 -0.0374 -0.0915
C46A C 0.1423(16) -0.1128(9) -0.1015(13)
H26A H 0.1077 -0.1449 -0.1259
C47A C 0.3298(12) -0.0769(6) -0.0560(11)
C48A C 0.2588(12) -0.1310(6) -0.0751(11)
C49A C 0.314(2) -0.2015(8) -0.0722(15)
C50A C 0.706(3) -0.1301(9) -0.2062(9)
H27A H 0.7422 -0.1328 -0.2500
C51A C 0.647(3) -0.1890(8) -0.1713(10)
H28A H 0.6704 -0.2354 -0.1839
C52A C 0.5587(17) -0.1148(6) -0.0829(7)
C53A C 0.5502(17) -0.1761(6) -0.1169(7)
C54A C 0.458(2) -0.2257(9) -0.0896(9)
C55A C 0.3947(18) -0.0436(16) 0.1446(8)
C56A C 0.2917(19) -0.0374(13) 0.1972(8)
C57A C 0.1606(18) 0.0394(17) 0.1312(8)
C58A C 0.2488(17) 0.019(2) 0.0762(8)
C59A C 0.1074(16) 0.064(3) -0.0041(8)
C60A C 0.2293(16) 0.033(2) 0.0104(8)
C61A C 0.2090(16) 0.095(2) -0.1136(8)
C62A C 0.3319(16) 0.067(3) -0.0987(8)
N7A N 0.4523(13) -0.0956(6) -0.0350(9)
N8A N 0.3773(16) -0.0070(8) 0.0851(6)
N9A N 0.3438(11) 0.0465(8) -0.0338(7)
C63A C 0.3985(19) -0.2192(6) -0.0246(8)
C64A C 0.4753(18) -0.1653(8) -0.0093(11)
C65A C 0.379(3) -0.1504(9) -0.0007(10)
C1 C 0.590(14) 0.726(7) 0.621(8)
C2 C 0.553(14) 0.806(7) 0.615(7)
C3 C 0.638(15) 0.855(7) 0.629(8)
H1 H 0.7160 0.8400 0.6451
C4 C 0.607(16) 0.926(8) 0.618(9)
H2 H 0.6657 0.9593 0.6261
C5 C 0.494(15) 0.950(7) 0.597(8)
C6 C 0.405(15) 0.903(7) 0.582(8)
H3 H 0.3280 0.9191 0.5654
C7 C 0.436(15) 0.831(7) 0.592(8)
H4 H 0.3779 0.7980 0.5832
C8 C 0.029(19) 0.740(9) 0.705(8)
C9 C 0.116(18) 0.800(8) 0.723(8)
C10 C 0.22(2) 0.779(11) 0.754(10)
H5 H 0.2368 0.7316 0.7675
C11 C 0.31(3) 0.833(12) 0.765(10)
H6 H 0.3853 0.8220 0.7831
C12 C 0.16(2) 0.922(10) 0.717(9)
H7 H 0.1441 0.9698 0.7035
C13 C 0.09(2) 0.870(9) 0.704(9)
H8 H 0.0160 0.8815 0.6829
C14 C 0.112(14) 0.704(7) 0.550(7)
C15 C 0.086(13) 0.776(6) 0.515(6)
C16 C 0.188(14) 0.809(7) 0.475(7)
H9 H 0.2733 0.7870 0.4705
C17 C 0.165(16) 0.873(8) 0.441(8)
H10 H 0.2339 0.8948 0.4143
C18 C 0.039(15) 0.903(7) 0.449(7)
C19 C -0.067(15) 0.872(7) 0.489(8)
H11 H -0.1518 0.8944 0.4936
C20 C -0.041(13) 0.807(6) 0.521(7)
H12 H -0.1102 0.7839 0.5474
C21 C 0.038(15) 0.478(7) 0.709(7)
C22 C -0.030(15) 0.420(7) 0.751(7)
C23 C -0.167(18) 0.420(9) 0.763(10)
H13 H -0.2176 0.4572 0.7445
C24 C -0.230(19) 0.366(9) 0.803(10)
H14 H -0.3222 0.3682 0.8137
C25 C -0.154(19) 0.310(9) 0.825(9)
C26 C -0.02(2) 0.306(9) 0.812(10)
H15 H 0.0273 0.2668 0.8286
C27 C 0.044(18) 0.362(8) 0.774(8)
H16 H 0.1358 0.3596 0.7644
C28 C 0.616(14) 0.676(7) 0.472(7)
C29 C 0.718(14) 0.713(7) 0.426(7)
C30 C 0.682(16) 0.779(7) 0.397(8)
H17 H 0.5955 0.7982 0.4065
C31 C 0.776(18) 0.816(8) 0.355(9)
H18 H 0.7529 0.8601 0.3352
C32 C 0.901(17) 0.787(8) 0.343(8)
C33 C 0.941(16) 0.721(8) 0.371(8)
H19 H 1.0279 0.7022 0.3614
C34 C 0.849(14) 0.685(8) 0.413(7)
H20 H 0.8737 0.6419 0.4337
C35 C 0.440(13) 0.549(6) 0.404(7)
C36 C 0.457(15) 0.605(7) 0.349(8)
C37 C 0.39(2) 0.672(8) 0.357(9)
H21 H 0.3248 0.6804 0.3925
C38 C 0.42(2) 0.727(12) 0.307(11)
H22 H 0.3846 0.7727 0.3102
C39 C 0.512(7) 0.7113(14) 0.255(2)
C40 C 0.57(3) 0.648(13) 0.246(13)
H23 H 0.6285 0.6396 0.2074
C41 C 0.542(18) 0.593(11) 0.293(8)
H24 H 0.5817 0.5470 0.2871
C42 C 0.27(2) 0.905(9) 0.748(9)
Dy1 Dy 0.4108(6) 0.6086(3) 0.5607(3)
Dy2 Dy -0.1304(7) 0.6391(3) 0.6704(4)
N1 N 0.560(3) 0.7766(10) 0.2175(11)
N2 N 0.462(15) 1.028(7) 0.585(8)
N3 N 1.001(18) 0.827(9) 0.300(9)
N4 N 0.35(2) 0.956(10) 0.764(10)
N5 N -0.22(2) 0.250(9) 0.863(9)
N6 N 0.015(14) 0.973(7) 0.415(7)
O1 O -0.081(12) 0.762(6) 0.689(6)
O2 O 0.066(11) 0.677(5) 0.713(5)
O3 O -0.21(2) 0.650(9) 0.781(8)
O4 O 0.709(11) 0.710(5) 0.627(7)
O5 O -0.167(12) 0.570(6) 0.578(7)
O6 O -0.031(11) 0.532(5) 0.693(6)
O7 O 0.159(12) 0.469(6) 0.692(6)
O8 O 0.015(10) 0.671(5) 0.579(5)
O9 O 0.230(10) 0.681(5) 0.546(6)
O10 O 0.293(10) 0.601(5) 0.671(5)
O11 O 0.505(10) 0.684(5) 0.621(5)
O12 O 0.500(9) 0.704(5) 0.486(5)
O13 O 0.643(9) 0.613(5) 0.498(5)
O14 O 0.400(11) 0.565(6) 0.459(5)
O15 O 1.116(14) 0.804(8) 0.290(8)
O16 O 0.962(19) 0.884(8) 0.274(10)
O17 O 0.532(15) 1.069(6) 0.606(10)
O18 O 0.368(15) 1.046(6) 0.557(8)
O19 O -0.092(14) 1.007(6) 0.433(8)
O20 O 0.099(14) 0.997(7) 0.374(7)
O21 O 0.33(2) 1.021(9) 0.742(12)
O22 O 0.44(2) 0.941(10) 0.795(10)
O23 O -0.342(18) 0.252(10) 0.871(11)
O24 O -0.15(2) 0.202(9) 0.884(12)
O25 O 0.474(11) 0.486(6) 0.389(5)
O26 O 0.261(11) 0.512(5) 0.569(5)
O27 O -0.330(14) 0.570(7) 0.700(7)
O28 O 0.622(3) 0.7610(18) 0.1624(11)
O29 O 0.478(3) 0.8299(12) 0.219(2)
Dy1A Dy 0.5892(6) 0.3914(3) 0.4393(3)
Dy2_2 Dy 0.8696(7) 0.6391(3) 0.6704(4)
O4_2 O -0.291(11) 0.710(5) 0.627(7)
O25A O 0.526(11) 0.514(6) 0.611(5)
C66? C 0.8447(13) -0.0100(6) 0.0777(11)
C67? C 0.7315(13) 0.0085(6) 0.0485(12)
C68? C 0.2913(18) 0.0672(6) 0.1740(8)
C69? C 0.3812(19) 0.0559(6) 0.1173(8)
C70? C 0.6931(16) -0.1169(8) 0.054(2)
C71? C 0.8270(16) -0.1340(8) 0.059(2)
C72? C 0.779(3) 0.0529(9) -0.1752(14)
C73? C 0.684(3) 0.0652(8) -0.1199(10)
loop_
_geom_bond_atom_site_label_1
_geom_bond_atom_site_label_2
_geom_bond_site_symmetry_1
_geom_bond_site_symmetry_2
C1 C2 1_555 1_555
C2 C3 1_555 1_555
C3 H1 1_555 1_555
C4 C3 1_555 1_555
H2 C4 1_555 1_555
C5 C4 1_555 1_555
C6 C5 1_555 1_555
H3 C6 1_555 1_555
C7 C2 1_555 1_555
H4 C7 1_555 1_555
C8 C9 1_555 1_555
C9 C10 1_555 1_555
C10 H5 1_555 1_555
C11 C10 1_555 1_555
H6 C11 1_555 1_555
C12 H7 1_555 1_555
C13 C9 1_555 1_555
H8 C13 1_555 1_555
C14 C15 1_555 1_555
C15 C16 1_555 1_555
C16 H9 1_555 1_555
C17 C16 1_555 1_555
H10 C17 1_555 1_555
C18 C17 1_555 1_555
C19 C18 1_555 1_555
H11 C19 1_555 1_555
C20 C15 1_555 1_555
H12 C20 1_555 1_555
C21 C22 1_555 1_555
C22 C23 1_555 1_555
C23 H13 1_555 1_555
C24 C23 1_555 1_555
H14 C24 1_555 1_555
C25 C24 1_555 1_555
C26 C25 1_555 1_555
H15 C26 1_555 1_555
C27 C22 1_555 1_555
H16 C27 1_555 1_555
C28 C29 1_555 1_555
C29 C30 1_555 1_555
C30 H17 1_555 1_555
C31 C30 1_555 1_555
H18 C31 1_555 1_555
C32 C31 1_555 1_555
C33 C32 1_555 1_555
H19 C33 1_555 1_555
C34 C29 1_555 1_555
H20 C34 1_555 1_555
C35 C36 1_555 1_555
C36 C37 1_555 1_555
C37 H21 1_555 1_555
C38 C37 1_555 1_555
H22 C38 1_555 1_555
C39 C38 1_555 1_555
C40 C39 1_555 1_555
H23 C40 1_555 1_555
C41 C36 1_555 1_555
H24 C41 1_555 1_555
C42 C11 1_555 1_555
Dy1 O9 1_555 1_555
Dy2 O1 1_555 1_555
N1 C39 1_555 1_555
N2 C5 1_555 1_555
N3 C32 1_555 1_555
N4 C42 1_555 1_555
N5 C25 1_555 1_555
N6 C18 1_555 1_555
O1 C8 1_555 1_555
O2 C8 1_555 1_555
O3 Dy2 1_555 1_555
O4 C1 1_555 1_555
O5 Dy2 1_555 1_555
O6 C21 1_555 1_555
O7 C21 1_555 1_555
O8 C14 1_555 1_555
O9 C14 1_555 1_555
O10 Dy1 1_555 1_555
O11 C1 1_555 1_555
O12 C28 1_555 1_555
O13 C28 1_555 1_555
O14 C35 1_555 1_555
O15 N3 1_555 1_555
O16 N3 1_555 1_555
O17 N2 1_555 1_555
O18 N2 1_555 1_555
O19 N6 1_555 1_555
O20 N6 1_555 1_555
O21 N4 1_555 1_555
O22 N4 1_555 1_555
O23 N5 1_555 1_555
O24 N5 1_555 1_555
O25 C35 1_555 1_555
O26 Dy1 1_555 1_555
O27 Dy2 1_555 1_555
O28 N1 1_555 1_555
O29 N1 1_555 1_555
C43 C56 1_555 1_555
C44 C59 1_555 1_555
C45 H25 1_555 1_555
C46 C45 1_555 1_555
H26 C46 1_555 1_555
C47 C48 1_555 1_555
C48 C46 1_555 1_555
C49 C48 1_555 1_555
C50 H27 1_555 1_555
C51 C50 1_555 1_555
H28 C51 1_555 1_555
C52 C53 1_555 1_555
C53 C51 1_555 1_555
C54 C49 1_555 1_555
C55 C56 1_555 1_555
C57 C43 1_555 1_555
C58 C57 1_555 1_555
C59 C60 1_555 1_555
C60 C58 1_555 1_555
C61 C44 1_555 1_555
C62 C61 1_555 1_555
Fe1 N7 1_555 1_555
N7 C47 1_555 1_555
N8 C55 1_555 1_555
N9 C60 1_555 1_555
C63 C49 1_555 1_555
C64 N7 1_555 1_555
C65 N7 1_555 1_555
Dy1A O25 1_555 1_555
Dy2_2 O4 1_555 1_555
O4_2 Dy2 1_555 1_555
O25A Dy1 1_555 1_555
C43A C56A 1_555 1_555
C44A C59A 1_555 1_555
C45A H25A 1_555 1_555
C46A C45A 1_555 1_555
H26A C46A 1_555 1_555
C47A C48A 1_555 1_555
C48A C46A 1_555 1_555
C49A C48A 1_555 1_555
C50A H27A 1_555 1_555
C51A C50A 1_555 1_555
H28A C51A 1_555 1_555
C52A C53A 1_555 1_555
C53A C51A 1_555 1_555
C54A C49A 1_555 1_555
C55A C56A 1_555 1_555
C57A C43A 1_555 1_555
C58A C57A 1_555 1_555
C59A C60A 1_555 1_555
C60A C58A 1_555 1_555
C61A C44A 1_555 1_555
C62A C61A 1_555 1_555
N7A Fe1 1_555 1_555
N8A Fe1 1_555 1_555
N9A Fe1 1_555 1_555
C63A C49A 1_555 1_555
C64A N7A 1_555 1_555
C65A N7A 1_555 1_555
C6 C7 1_555 1_555
C12 C13 1_555 1_555
C12 C42 1_555 1_555
C19 C20 1_555 1_555
C26 C27 1_555 1_555
C33 C34 1_555 1_555
C40 C41 1_555 1_555
Dy1 O11 1_555 1_555
Dy1 O12 1_555 1_555
Dy1 O13 1_555 1_555
Dy1 O14 1_555 1_555
Dy2 O2 1_555 1_555
Dy2 O6 1_555 1_555
Dy2 O8 1_555 1_555
C52 N7 1_555 1_555
C53 C54 1_555 1_555
C54 C63 1_555 1_555
C58 N8 1_555 1_555
C62 N9 1_555 1_555
Fe1 N8 1_555 1_555
Fe1 N9 1_555 1_555
C63 C64 1_555 1_555
C63 C65 1_555 1_555
C64 C65 1_555 1_555
C47A N7A 1_555 1_555
C52A N7A 1_555 1_555
C53A C54A 1_555 1_555
C54A C63A 1_555 1_555
C55A N8A 1_555 1_555
C58A N8A 1_555 1_555
C60A N9A 1_555 1_555
C62A N9A 1_555 1_555
C63A C64A 1_555 1_555
C63A C65A 1_555 1_555
C64A C65A 1_555 1_555

#END
