
#######################################################################
#
#                 Cambridge Crystallographic Data Centre
#                                CCDC 
#
#######################################################################
#
# If this CIF has been generated from an entry in the Cambridge 
# Structural Database, then it will include bibliographic, chemical, 
# crystal, experimental, refinement or atomic coordinate data resulting 
# from the CCDC's data processing and validation procedures.
#
#######################################################################

data_TIBWEH
_symmetry_cell_setting           monoclinic
_symmetry_space_group_name_H-M   'P 21/c'
_symmetry_Int_Tables_number      14
_space_group_name_Hall           '-P 2ybc'
loop_
_symmetry_equiv_pos_site_id
_symmetry_equiv_pos_as_xyz
1 x,y,z
2 -x,1/2+y,1/2-z
3 -x,-y,-z
4 x,1/2-y,1/2+z
_cell_length_a                   19.9757(13)
_cell_length_b                   9.4615(6)
_cell_length_c                   9.8943(7)
_cell_angle_alpha                90
_cell_angle_beta                 99.8000(10)
_cell_angle_gamma                90
_cell_volume                     1842.74
loop_
_atom_site_label
_atom_site_type_symbol
_atom_site_fract_x
_atom_site_fract_y
_atom_site_fract_z
C1 C 0.16201(18) 0.3229(3) 0.1067(4)
C2 C 0.1176(2) 0.2387(4) 0.0215(4)
H1 H 0.1338 0.1698 -0.0316
C3 C 0.0489(2) 0.2566(4) 0.0148(4)
H2 H 0.0185 0.2025 -0.0454
C4 C 0.02537(19) 0.3556(4) 0.0982(4)
H3 H -0.0211 0.3667 0.0957
C5 C 0.07052(18) 0.4375(3) 0.1846(4)
C6 C 0.14078(17) 0.4294(3) 0.1886(3)
C7 C 0.18202(15) 0.6620(3) 0.2816(3)
C8 C 0.14168(17) 0.7409(4) 0.1832(4)
H4 H 0.1171 0.6959 0.1070
C9 C 0.13704(19) 0.8859(4) 0.1953(4)
H5 H 0.1088 0.9375 0.1287
C10 C 0.1742(2) 0.9537(4) 0.3060(4)
H6 H 0.1713 1.0512 0.3147
C11 C 0.21555(18) 0.8763(4) 0.4034(4)
H7 H 0.2410 0.9227 0.4778
C12 C 0.22045(16) 0.7299(3) 0.3940(3)
C13 C 0.26672(17) 0.6487(4) 0.5042(4)
H8 H 0.2764 0.7066 0.5862
H9 H 0.2434 0.5643 0.5269
C14 C 0.33290(17) 0.6067(4) 0.4607(4)
Cl1 Cl 0.24883(5) 0.29557(10) 0.11392(12)
Cl2 Cl 0.03666(5) 0.54950(9) 0.29459(10)
K1 K 0.48346(5) 0.55665(10) 0.74672(10)
N1 N 0.18667(14) 0.5124(3) 0.2740(3)
H10 H 0.2296(7) 0.494(4) 0.288(4)
O1 O 0.32999(13) 0.5330(3) 0.3546(3)
O2 O 0.38739(14) 0.6476(3) 0.5312(3)
O3 O 0.36712(18) 0.4763(4) 0.8520(4)
H11 H 0.3271(18) 0.489(8) 0.812(5)
H12 H 0.367(3) 0.482(8) 0.936(3)
O4 O 0.50401(16) 0.3085(4) 0.6086(3)
H13 H 0.5422(15) 0.320(6) 0.584(5)
H14 H 0.4751(18) 0.298(7) 0.541(4)
O5 O 0.60651(17) 0.4280(3) 0.8813(3)
H15 H 0.599(3) 0.348(3) 0.895(5)
H16 H 0.631(3) 0.439(5) 0.824(5)
O6 O 0.58597(16) 0.6942(3) 0.6360(4)
H17 H 0.610(2) 0.770(3) 0.643(7)
H18 H 0.617(2) 0.631(4) 0.635(6)
K1A K 0.51654(5) 0.05665(10) 0.75328(10)
O4A O 0.49599(16) 0.8085(4) 0.8914(3)
H13A H 0.4578(15) 0.820(6) 0.916(5)
H14A H 0.5249(18) 0.798(7) 0.959(4)
loop_
_geom_bond_atom_site_label_1
_geom_bond_atom_site_label_2
_geom_bond_site_symmetry_1
_geom_bond_site_symmetry_2
C1 C2 1_555 1_555
C2 H1 1_555 1_555
C3 C2 1_555 1_555
H2 C3 1_555 1_555
C4 C3 1_555 1_555
H3 C4 1_555 1_555
C5 C4 1_555 1_555
C6 C1 1_555 1_555
C7 C8 1_555 1_555
C8 H4 1_555 1_555
C9 C8 1_555 1_555
H5 C9 1_555 1_555
C10 C9 1_555 1_555
H6 C10 1_555 1_555
C11 C10 1_555 1_555
H7 C11 1_555 1_555
C12 C7 1_555 1_555
C13 C12 1_555 1_555
H8 C13 1_555 1_555
H9 C13 1_555 1_555
C14 C13 1_555 1_555
Cl1 C1 1_555 1_555
Cl2 C5 1_555 1_555
K1 O2 1_555 1_555
N1 C6 1_555 1_555
H10 N1 1_555 1_555
O1 C14 1_555 1_555
O2 C14 1_555 1_555
O3 K1 1_555 1_555
H11 O3 1_555 1_555
H12 O3 1_555 1_555
O4 K1 1_555 1_555
H13 O4 1_555 1_555
H14 O4 1_555 1_555
O5 K1 1_555 1_555
H15 O5 1_555 1_555
H16 O5 1_555 1_555
O6 K1 1_555 1_555
H17 O6 1_555 1_555
H18 O6 1_555 1_555
K1A O4 1_555 1_555
O4A K1 1_555 1_555
H13A O4A 1_555 1_555
H14A O4A 1_555 1_555
C5 C6 1_555 1_555
C7 N1 1_555 1_555
C11 C12 1_555 1_555

#END
