
#######################################################################
#
#                 Cambridge Crystallographic Data Centre
#                                CCDC 
#
#######################################################################
#
# If this CIF has been generated from an entry in the Cambridge 
# Structural Database, then it will include bibliographic, chemical, 
# crystal, experimental, refinement or atomic coordinate data resulting 
# from the CCDC's data processing and validation procedures.
#
#######################################################################

data_TIBXOT
_symmetry_cell_setting           monoclinic
_symmetry_space_group_name_H-M   'P 21/c'
_symmetry_Int_Tables_number      14
_space_group_name_Hall           '-P 2ybc'
loop_
_symmetry_equiv_pos_site_id
_symmetry_equiv_pos_as_xyz
1 x,y,z
2 -x,1/2+y,1/2-z
3 -x,-y,-z
4 x,1/2-y,1/2+z
_cell_length_a                   21.785(4)
_cell_length_b                   24.800(5)
_cell_length_c                   14.725(3)
_cell_angle_alpha                90
_cell_angle_beta                 93.76(3)
_cell_angle_gamma                90
_cell_volume                     7938.32
loop_
_atom_site_label
_atom_site_type_symbol
_atom_site_fract_x
_atom_site_fract_y
_atom_site_fract_z
Mo1 Mo 0.19058(7) 0.51861(5) 0.03928(11)
Mo2 Mo 0.17694(7) 0.52440(6) 0.29806(11)
Mo3 Mo 0.32600(7) 0.51393(5) 0.19827(11)
Mo4 Mo 0.30800(7) 0.51581(5) 0.46382(12)
Mo5 Mo 0.28861(7) 0.63168(5) 0.34877(11)
Mo6 Mo 0.22035(7) 0.40322(5) 0.14787(11)
Mo7 Mo 0.26205(7) 0.39040(6) 0.38205(11)
Mo8 Mo 0.22440(7) 0.64376(6) 0.13094(12)
Cu1 Cu 0.0000 0.5000 0.0000
Cu2 Cu 0.5000 0.5000 0.5000
O1 O 0.2305(5) 0.4503(4) 0.0460(7)
O2 O 0.1004(5) 0.5219(5) 0.3107(9)
O3 O 0.3856(5) 0.5272(4) 0.4772(8)
O4 O 0.1750(6) 0.6919(4) 0.1629(9)
O5 O 0.4023(5) 0.5224(5) 0.1820(9)
O6 O 0.2816(5) 0.5460(4) 0.1067(8)
O7 O 0.2087(5) 0.5375(4) -0.0667(8)
O8 O 0.2654(5) 0.3503(4) 0.1242(8)
O9 O 0.1144(5) 0.4988(4) 0.0259(7)
O10 O 0.2749(4) 0.5855(4) 0.4507(7)
O11 O 0.2513(5) 0.6870(4) 0.3805(8)
O12 O 0.2881(6) 0.5009(5) 0.5694(8)
O13 O 0.1486(5) 0.3817(4) 0.1159(8)
O14 O 0.3110(5) 0.5431(4) 0.3073(7)
O15 O 0.1976(4) 0.5922(4) 0.2932(8)
O16 O 0.3188(5) 0.4418(4) 0.4137(8)
O17 O 0.3096(5) 0.4455(4) 0.2040(9)
O18 O 0.1722(4) 0.5881(4) 0.0924(8)
O19 O 0.3644(5) 0.6467(4) 0.3750(8)
O20 O 0.2163(5) 0.4920(4) 0.3929(7)
O21 O 0.1901(5) 0.4901(3) 0.1928(7)
O22 O 0.2105(5) 0.3953(4) 0.2773(7)
O23 O 0.3068(5) 0.3365(4) 0.3653(8)
O24 O 0.2548(5) 0.6673(5) 0.0378(9)
O25 O 0.2895(5) 0.6419(4) 0.2174(8)
O26 O 0.2195(5) 0.3751(4) 0.4689(8)
N1 N 0.0085(6) 0.4296(5) -0.0645(9)
N2 N -0.0102(6) 0.0361(5) -0.3807(9)
N3 N 0.5044(6) 0.9474(5) 0.1029(9)
N4 N 0.5209(6) 0.5552(5) 0.4110(10)
N5 N -0.0051(6) 0.3690(5) -0.1668(10)
N6 N 0.0569(7) 0.3664(6) -0.1433(12)
N7 N 0.0161(7) 0.0786(5) -0.2571(10)
N8 N -0.0461(7) 0.0685(6) -0.2532(11)
N9 N 0.5071(6) 0.6059(5) 0.2922(10)
N10 N 0.5691(7) 0.5985(6) 0.3010(12)
N11 N 0.5350(6) 0.8946(5) 0.2153(10)
N12 N 0.4752(8) 0.9054(6) 0.2290(11)
C1 C 0.0346(8) 0.0587(6) -0.3297(14)
H1 H 0.0752 0.0599 -0.3452
C2 C -0.0312(8) 0.4062(6) -0.1232(11)
H2 H -0.0725 0.4155 -0.1317
C3 C 0.5742(8) 0.5688(7) 0.3706(13)
H3 H 0.6124 0.5564 0.3938
C4 C 0.4805(10) 0.5811(7) 0.3551(14)
H4 H 0.4382 0.5812 0.3609
C5 C 0.5023(7) 0.6979(6) 0.2359(12)
C6 C 0.5489(8) 0.7170(7) 0.1855(13)
H5 H 0.5655 0.6950 0.1424
C7 C 0.4776(9) 0.7313(8) 0.2996(13)
H6 H 0.4452 0.7193 0.3323
C8 C 0.4788(8) 0.6404(6) 0.2190(12)
H7 H 0.4343 0.6394 0.2198
H8 H 0.4902 0.6277 0.1601
C9 C 0.5509(8) 0.9202(6) 0.1426(12)
H9 H 0.5902 0.9194 0.1216
C10 C 0.4578(8) 0.9371(7) 0.1613(14)
H10 H 0.4184 0.9514 0.1528
C11 C 0.0603(8) 0.4041(6) -0.0816(13)
H11 H 0.0975 0.4128 -0.0506
C12 C 0.5011(8) 0.7818(6) 0.3140(11)
H12 H 0.4862 0.8036 0.3591
C13 C 0.5707(8) 0.7686(7) 0.1988(12)
H13 H 0.6018 0.7816 0.1645
C14 C 0.5690(8) 0.8578(6) 0.2785(12)
H14 H 0.6126 0.8598 0.2691
H15 H 0.5632 0.8685 0.3407
C15 C 0.5462(8) 0.8004(7) 0.2627(13)
C16 C -0.0135(8) 0.1916(7) -0.1484(13)
H16 H -0.0314 0.1704 -0.1052
C17 C -0.0590(9) 0.0431(7) -0.3293(12)
H17 H -0.0984 0.0308 -0.3469
C18 C 0.0327(8) 0.1698(7) -0.2007(14)
C19 C -0.0305(8) 0.3334(6) -0.2426(12)
H18 H -0.0168 0.3463 -0.3000
H19 H -0.0751 0.3348 -0.2458
C20 C 0.0347(8) 0.2547(6) -0.2769(13)
H20 H 0.0516 0.2760 -0.3207
C21 C -0.0095(7) 0.2756(6) -0.2275(12)
C22 C 0.0490(8) 0.1118(6) -0.1874(11)
H21 H 0.0930 0.1072 -0.1909
H22 H 0.0383 0.1003 -0.1275
C23 C -0.0322(7) 0.2446(7) -0.1615(13)
H23 H -0.0608 0.2592 -0.1244
C24 C 0.0554(8) 0.2026(7) -0.2642(13)
H24 H 0.0858 0.1895 -0.3001
Mo1B Mo -0.19058(7) 0.48139(5) -0.03928(11)
Mo2B Mo -0.17694(7) 0.47560(6) -0.29806(11)
Mo3B Mo -0.32600(7) 0.48607(5) -0.19827(11)
Mo4B Mo -0.30800(7) 0.48419(5) -0.46382(12)
Mo5B Mo -0.28861(7) 0.36832(5) -0.34877(11)
Mo6B Mo -0.22035(7) 0.59678(5) -0.14787(11)
Mo7B Mo -0.26205(7) 0.60960(6) -0.38205(11)
Mo8B Mo -0.22440(7) 0.35624(6) -0.13094(12)
O1B O -0.2305(5) 0.5497(4) -0.0460(7)
O2B O -0.1004(5) 0.4781(5) -0.3107(9)
O3B O -0.3856(5) 0.4728(4) -0.4772(8)
O4B O -0.1750(6) 0.3081(4) -0.1629(9)
O5B O -0.4023(5) 0.4776(5) -0.1820(9)
O6B O -0.2816(5) 0.4540(4) -0.1067(8)
O7B O -0.2087(5) 0.4625(4) 0.0667(8)
O8B O -0.2654(5) 0.6497(4) -0.1242(8)
O9B O -0.1144(5) 0.5012(4) -0.0259(7)
O10B O -0.2749(4) 0.4145(4) -0.4507(7)
O11B O -0.2513(5) 0.3130(4) -0.3805(8)
O12B O -0.2881(6) 0.4991(5) -0.5694(8)
O13B O -0.1486(5) 0.6183(4) -0.1159(8)
O14B O -0.3110(5) 0.4569(4) -0.3073(7)
O15B O -0.1976(4) 0.4078(4) -0.2932(8)
O16B O -0.3188(5) 0.5582(4) -0.4137(8)
O17B O -0.3096(5) 0.5545(4) -0.2040(9)
O18B O -0.1722(4) 0.4119(4) -0.0924(8)
O19B O -0.3644(5) 0.3533(4) -0.3750(8)
O20B O -0.2163(5) 0.5080(4) -0.3929(7)
O21B O -0.1901(5) 0.5099(3) -0.1928(7)
O22B O -0.2105(5) 0.6047(4) -0.2773(7)
O23B O -0.3068(5) 0.6635(4) -0.3653(8)
O24B O -0.2548(5) 0.3327(5) -0.0378(9)
O25B O -0.2895(5) 0.3581(4) -0.2174(8)
O26B O -0.2195(5) 0.6249(4) -0.4689(8)
N1B N -0.0085(6) 0.5704(5) 0.0645(9)
N2B N 0.0102(6) 0.9639(5) 0.3807(9)
N5B N 0.0051(6) 0.6310(5) 0.1668(10)
N6B N -0.0569(7) 0.6336(6) 0.1433(12)
N7B N -0.0161(7) 0.9214(5) 0.2571(10)
N8B N 0.0461(7) 0.9315(6) 0.2532(11)
C1B C -0.0346(8) 0.9413(6) 0.3297(14)
H1B H -0.0752 0.9401 0.3452
C2B C 0.0312(8) 0.5938(6) 0.1232(11)
H2B H 0.0725 0.5845 0.1317
C11B C -0.0603(8) 0.5959(6) 0.0816(13)
H11B H -0.0975 0.5872 0.0506
C16B C 0.0135(8) 0.8084(7) 0.1484(13)
H16B H 0.0314 0.8296 0.1052
C17B C 0.0590(9) 0.9569(7) 0.3293(12)
H17B H 0.0984 0.9692 0.3469
C18B C -0.0327(8) 0.8302(7) 0.2007(14)
C19B C 0.0305(8) 0.6666(6) 0.2426(12)
H18B H 0.0168 0.6537 0.3000
H19B H 0.0751 0.6652 0.2458
C20B C -0.0347(8) 0.7453(6) 0.2769(13)
H20B H -0.0516 0.7240 0.3207
C21B C 0.0095(7) 0.7244(6) 0.2275(12)
C22B C -0.0490(8) 0.8882(6) 0.1874(11)
H21B H -0.0930 0.8928 0.1909
H22B H -0.0383 0.8997 0.1275
C23B C 0.0322(7) 0.7554(7) 0.1615(13)
H23B H 0.0608 0.7408 0.1244
C24B C -0.0554(8) 0.7974(7) 0.2642(13)
H24B H -0.0858 0.8105 0.3001
N3C N 0.5044(6) 0.5526(5) 0.6029(9)
N4C N 0.5209(6) 0.9448(5) 0.9110(10)
N9C N 0.5071(6) 0.8941(5) 0.7922(10)
N10C N 0.5691(7) 0.9015(6) 0.8010(12)
N11C N 0.5350(6) 0.6054(5) 0.7153(10)
N12C N 0.4752(8) 0.5946(6) 0.7290(11)
C3C C 0.5742(8) 0.9312(7) 0.8706(13)
H3C H 0.6124 0.9436 0.8938
C4C C 0.4805(10) 0.9189(7) 0.8551(14)
H4C H 0.4382 0.9188 0.8609
C5C C 0.5023(7) 0.8021(6) 0.7359(12)
C6C C 0.5489(8) 0.7830(7) 0.6855(13)
H5C H 0.5655 0.8050 0.6424
C7C C 0.4776(9) 0.7687(8) 0.7996(13)
H6C H 0.4452 0.7807 0.8323
C8C C 0.4788(8) 0.8596(6) 0.7190(12)
H7C H 0.4343 0.8606 0.7198
H8C H 0.4902 0.8723 0.6601
C9C C 0.5509(8) 0.5798(6) 0.6426(12)
H9C H 0.5902 0.5806 0.6216
C10C C 0.4578(8) 0.5629(7) 0.6613(14)
H10C H 0.4184 0.5486 0.6528
C12C C 0.5011(8) 0.7182(6) 0.8140(11)
H12C H 0.4862 0.6964 0.8591
C13C C 0.5707(8) 0.7314(7) 0.6988(12)
H13C H 0.6018 0.7184 0.6645
C14C C 0.5690(8) 0.6422(6) 0.7785(12)
H14C H 0.6126 0.6402 0.7691
H15C H 0.5632 0.6315 0.8407
C15C C 0.5462(8) 0.6996(7) 0.7627(13)
Cu1A Cu 0.0000 0.0000 -0.5000
Cu1A_2 Cu 0.0000 1.0000 0.5000
Cu2_2 Cu -0.5000 0.5000 -0.5000
Cu2A Cu 0.5000 1.0000 0.0000
Cu2A_2 Cu 0.5000 1.0000 1.0000
O3B_2 O 0.6144(5) 0.4728(4) 0.5228(8)
N2A N 0.0102(6) 0.5361(5) -0.1193(9)
N2C N -0.0102(6) 0.4639(5) 0.1193(9)
N3A N 0.4956(6) 0.4474(5) 0.3971(9)
N4B N 0.4791(6) 0.4448(5) 0.5890(10)
N13 N 0.7439(6) 0.3377(5) 0.2705(9)
C25 C 0.8618(8) 0.3828(7) 0.4635(12)
H25 H 0.8908 0.3978 0.4230
H26 H 0.8368 0.4123 0.4837
C26 C 0.8200(8) 0.3430(7) 0.4097(12)
H27 H 0.8448 0.3162 0.3810
H28 H 0.7939 0.3245 0.4506
C27 C 0.8975(9) 0.3592(7) 0.5452(13)
H29 H 0.9225 0.3868 0.5749
H30 H 0.9235 0.3307 0.5260
H31 H 0.8694 0.3452 0.5869
C28 C 0.7061(7) 0.3770(6) 0.2081(12)
H32 H 0.6843 0.4010 0.2468
H33 H 0.7349 0.3989 0.1767
C29 C 0.6602(8) 0.3547(7) 0.1380(12)
H34 H 0.6804 0.3295 0.0994
H35 H 0.6284 0.3354 0.1677
C30 C 0.7811(8) 0.3724(6) 0.3389(12)
H36 H 0.8076 0.3956 0.3058
H37 H 0.7529 0.3954 0.3694
C31 C 0.7861(8) 0.3044(6) 0.2134(12)
H38 H 0.8056 0.2770 0.2524
H39 H 0.7606 0.2858 0.1668
C32 C 0.8357(8) 0.3337(6) 0.1674(11)
H40 H 0.8177 0.3623 0.1295
H41 H 0.8644 0.3498 0.2128
C33 C 0.6210(8) 0.2749(8) 0.4191(13)
H42 H 0.6108 0.2467 0.3751
H43 H 0.6485 0.2598 0.4670
C34 C 0.7031(8) 0.2980(6) 0.3194(13)
H44 H 0.6841 0.2738 0.2740
H45 H 0.7296 0.2763 0.3604
C35 C 0.5650(12) 0.2940(10) 0.4579(19)
H46 H 0.5451 0.2645 0.4861
H47 H 0.5377 0.3089 0.4105
H48 H 0.5752 0.3213 0.5026
C36 C 0.6537(8) 0.3211(7) 0.3724(13)
H49 H 0.6244 0.3406 0.3322
H50 H 0.6712 0.3461 0.4178
C37 C 0.8689(8) 0.2949(6) 0.1104(13)
H51 H 0.8404 0.2806 0.0631
H52 H 0.8840 0.2650 0.1481
C38 C 0.6319(8) 0.3991(7) 0.0814(13)
H53 H 0.6646 0.4200 0.0567
H54 H 0.6101 0.4228 0.1206
C39 C 0.9230(9) 0.3212(8) 0.0664(14)
H55 H 0.9430 0.2949 0.0308
H56 H 0.9517 0.3350 0.1130
H57 H 0.9081 0.3503 0.0278
C40 C 0.5880(11) 0.3814(9) 0.0037(15)
H58 H 0.5722 0.4125 -0.0289
H59 H 0.5546 0.3616 0.0271
H60 H 0.6093 0.3587 -0.0368
N14 N 0.2432(7) 0.1475(5) 0.2584(12)
C41 C 0.1815(8) 0.1380(7) 0.2050(13)
H61 H 0.1492 0.1460 0.2453
H62 H 0.1780 0.1642 0.1560
C42 C 0.2930(7) 0.2060(6) 0.1381(12)
H63 H 0.2943 0.2361 0.1804
H64 H 0.2561 0.2093 0.0979
C43 C 0.3508(7) 0.2066(6) 0.0820(13)
H65 H 0.3869 0.2013 0.1231
H66 H 0.3483 0.1765 0.0400
C44 C 0.2366(9) 0.1977(7) 0.3149(13)
H67 H 0.2773 0.2093 0.3376
H68 H 0.2193 0.2261 0.2757
C45 C 0.2923(8) 0.1545(6) 0.1883(12)
H69 H 0.3324 0.1498 0.2199
H70 H 0.2870 0.1256 0.1441
C46 C 0.1976(9) 0.1917(7) 0.3937(13)
H71 H 0.2208 0.1738 0.4433
H72 H 0.1619 0.1699 0.3761
C47 C 0.1774(9) 0.2463(7) 0.4242(14)
H73 H 0.1550 0.2641 0.3735
H74 H 0.2135 0.2678 0.4411
C48 C 0.2590(8) 0.0983(7) 0.3164(13)
H75 H 0.2240 0.0897 0.3513
H76 H 0.2656 0.0680 0.2766
C49 C 0.3148(8) 0.1049(7) 0.3811(12)
H77 H 0.3026 0.1216 0.4367
H78 H 0.3437 0.1289 0.3540
C50 C 0.1042(11) 0.0850(8) 0.1066(16)
H79 H 0.0717 0.0931 0.1464
H80 H 0.1046 0.1133 0.0611
C51 C 0.3466(9) 0.0517(7) 0.4043(14)
H81 H 0.3170 0.0268 0.4275
H82 H 0.3614 0.0362 0.3494
C52 C 0.1688(9) 0.0846(7) 0.1650(15)
H83 H 0.1678 0.0579 0.2130
H84 H 0.2013 0.0748 0.1262
C53 C 0.4001(11) 0.0583(9) 0.4745(16)
H85 H 0.4189 0.0238 0.4867
H86 H 0.3855 0.0727 0.5296
H87 H 0.4298 0.0825 0.4515
C54 C 0.1371(9) 0.2443(7) 0.5036(14)
H88 H 0.1255 0.2802 0.5196
H89 H 0.1593 0.2276 0.5547
H90 H 0.1008 0.2236 0.4871
C55 C 0.3593(9) 0.2583(7) 0.0280(13)
H91 H 0.3959 0.2555 -0.0047
H92 H 0.3629 0.2884 0.0689
H93 H 0.3244 0.2635 -0.0144
C56 C 0.0906(11) 0.0329(10) 0.0607(18)
H94 H 0.0514 0.0349 0.0272
H95 H 0.0898 0.0048 0.1054
H96 H 0.1220 0.0252 0.0196
loop_
_geom_bond_atom_site_label_1
_geom_bond_atom_site_label_2
_geom_bond_site_symmetry_1
_geom_bond_site_symmetry_2
Mo1 O1 1_555 1_555
Mo2 O2 1_555 1_555
Mo3 O5 1_555 1_555
Mo4 O3 1_555 1_555
Mo5 O10 1_555 1_555
Mo6 O1 1_555 1_555
Mo7 O16 1_555 1_555
Mo8 O4 1_555 1_555
Cu1 O9 1_555 1_555
Cu2 O3 1_555 1_555
O6 Mo1 1_555 1_555
O7 Mo1 1_555 1_555
O8 Mo6 1_555 1_555
O9 Mo1 1_555 1_555
O10 Mo4 1_555 1_555
O11 Mo5 1_555 1_555
O12 Mo4 1_555 1_555
O13 Mo6 1_555 1_555
O14 Mo3 1_555 1_555
O15 Mo2 1_555 1_555
O16 Mo4 1_555 1_555
O17 Mo3 1_555 1_555
O18 Mo1 1_555 1_555
O19 Mo5 1_555 1_555
O20 Mo2 1_555 1_555
O21 Mo1 1_555 1_555
O22 Mo6 1_555 1_555
O23 Mo7 1_555 1_555
O24 Mo8 1_555 1_555
O25 Mo5 1_555 1_555
O26 Mo7 1_555 1_555
N1 Cu1 1_555 1_555
N2 C1 1_555 1_555
N3 C9 1_555 1_555
N4 Cu2 1_555 1_555
N5 N6 1_555 1_555
N6 C11 1_555 1_555
N7 N8 1_555 1_555
N8 C17 1_555 1_555
N9 N10 1_555 1_555
N10 C3 1_555 1_555
N11 N12 1_555 1_555
N12 C10 1_555 1_555
C1 N7 1_555 1_555
H1 C1 1_555 1_555
C2 N1 1_555 1_555
H2 C2 1_555 1_555
C3 N4 1_555 1_555
H3 C3 1_555 1_555
C4 N4 1_555 1_555
H4 C4 1_555 1_555
C5 C6 1_555 1_555
C6 H5 1_555 1_555
C7 C5 1_555 1_555
H6 C7 1_555 1_555
C8 N9 1_555 1_555
H7 C8 1_555 1_555
H8 C8 1_555 1_555
C9 N11 1_555 1_555
H9 C9 1_555 1_555
C10 N3 1_555 1_555
H10 C10 1_555 1_555
C11 N1 1_555 1_555
H11 C11 1_555 1_555
C12 C7 1_555 1_555
H12 C12 1_555 1_555
C13 C6 1_555 1_555
H13 C13 1_555 1_555
C14 N11 1_555 1_555
H14 C14 1_555 1_555
H15 C14 1_555 1_555
C15 C12 1_555 1_555
C16 H16 1_555 1_555
C17 N2 1_555 1_555
H17 C17 1_555 1_555
C18 C16 1_555 1_555
C19 N5 1_555 1_555
H18 C19 1_555 1_555
H19 C19 1_555 1_555
C20 H20 1_555 1_555
C21 C19 1_555 1_555
C22 N7 1_555 1_555
H21 C22 1_555 1_555
H22 C22 1_555 1_555
C23 C16 1_555 1_555
H23 C23 1_555 1_555
C24 C18 1_555 1_555
H24 C24 1_555 1_555
N13 C28 1_555 1_555
C25 H25 1_555 1_555
H26 C25 1_555 1_555
C26 C25 1_555 1_555
H27 C26 1_555 1_555
H28 C26 1_555 1_555
C27 C25 1_555 1_555
H29 C27 1_555 1_555
H30 C27 1_555 1_555
H31 C27 1_555 1_555
C28 H32 1_555 1_555
H33 C28 1_555 1_555
C29 C28 1_555 1_555
H34 C29 1_555 1_555
H35 C29 1_555 1_555
C30 N13 1_555 1_555
H36 C30 1_555 1_555
H37 C30 1_555 1_555
C31 N13 1_555 1_555
H38 C31 1_555 1_555
H39 C31 1_555 1_555
C32 C31 1_555 1_555
H40 C32 1_555 1_555
H41 C32 1_555 1_555
C33 H42 1_555 1_555
H43 C33 1_555 1_555
C34 N13 1_555 1_555
H44 C34 1_555 1_555
H45 C34 1_555 1_555
C35 C33 1_555 1_555
H46 C35 1_555 1_555
H47 C35 1_555 1_555
H48 C35 1_555 1_555
C36 C33 1_555 1_555
H49 C36 1_555 1_555
H50 C36 1_555 1_555
C37 C32 1_555 1_555
H51 C37 1_555 1_555
H52 C37 1_555 1_555
C38 C29 1_555 1_555
H53 C38 1_555 1_555
H54 C38 1_555 1_555
C39 C37 1_555 1_555
H55 C39 1_555 1_555
H56 C39 1_555 1_555
H57 C39 1_555 1_555
C40 C38 1_555 1_555
H58 C40 1_555 1_555
H59 C40 1_555 1_555
H60 C40 1_555 1_555
N14 C41 1_555 1_555
C41 H61 1_555 1_555
H62 C41 1_555 1_555
C42 H63 1_555 1_555
H64 C42 1_555 1_555
C43 C42 1_555 1_555
H65 C43 1_555 1_555
H66 C43 1_555 1_555
C44 N14 1_555 1_555
H67 C44 1_555 1_555
H68 C44 1_555 1_555
C45 N14 1_555 1_555
H69 C45 1_555 1_555
H70 C45 1_555 1_555
C46 C44 1_555 1_555
H71 C46 1_555 1_555
H72 C46 1_555 1_555
C47 C46 1_555 1_555
H73 C47 1_555 1_555
H74 C47 1_555 1_555
C48 N14 1_555 1_555
H75 C48 1_555 1_555
H76 C48 1_555 1_555
C49 C48 1_555 1_555
H77 C49 1_555 1_555
H78 C49 1_555 1_555
C50 H79 1_555 1_555
H80 C50 1_555 1_555
C51 C49 1_555 1_555
H81 C51 1_555 1_555
H82 C51 1_555 1_555
C52 C41 1_555 1_555
H83 C52 1_555 1_555
H84 C52 1_555 1_555
C53 C51 1_555 1_555
H85 C53 1_555 1_555
H86 C53 1_555 1_555
H87 C53 1_555 1_555
C54 C47 1_555 1_555
H88 C54 1_555 1_555
H89 C54 1_555 1_555
H90 C54 1_555 1_555
C55 C43 1_555 1_555
H91 C55 1_555 1_555
H92 C55 1_555 1_555
H93 C55 1_555 1_555
C56 C50 1_555 1_555
H94 C56 1_555 1_555
H95 C56 1_555 1_555
H96 C56 1_555 1_555
Mo1B O1B 1_555 1_555
Mo2B O2B 1_555 1_555
Mo3B O5B 1_555 1_555
Mo4B O3B 1_555 1_555
Mo5B O10B 1_555 1_555
Mo6B O1B 1_555 1_555
Mo7B O16B 1_555 1_555
Mo8B O4B 1_555 1_555
O3B Cu2_2 1_555 1_555
O6B Mo1B 1_555 1_555
O7B Mo1B 1_555 1_555
O8B Mo6B 1_555 1_555
O9B Cu1 1_555 1_555
O10B Mo4B 1_555 1_555
O11B Mo5B 1_555 1_555
O12B Mo4B 1_555 1_555
O13B Mo6B 1_555 1_555
O14B Mo3B 1_555 1_555
O15B Mo2B 1_555 1_555
O16B Mo4B 1_555 1_555
O17B Mo3B 1_555 1_555
O18B Mo1B 1_555 1_555
O19B Mo5B 1_555 1_555
O20B Mo2B 1_555 1_555
O21B Mo1B 1_555 1_555
O22B Mo6B 1_555 1_555
O23B Mo7B 1_555 1_555
O24B Mo8B 1_555 1_555
O25B Mo5B 1_555 1_555
O26B Mo7B 1_555 1_555
N1B Cu1 1_555 1_555
N2B C1B 1_555 1_555
N5B N6B 1_555 1_555
N6B C11B 1_555 1_555
N7B N8B 1_555 1_555
N8B C17B 1_555 1_555
C1B N7B 1_555 1_555
H1B C1B 1_555 1_555
C2B N1B 1_555 1_555
H2B C2B 1_555 1_555
C11B N1B 1_555 1_555
H11B C11B 1_555 1_555
C16B H16B 1_555 1_555
C17B N2B 1_555 1_555
H17B C17B 1_555 1_555
C18B C16B 1_555 1_555
C19B N5B 1_555 1_555
H18B C19B 1_555 1_555
H19B C19B 1_555 1_555
C20B H20B 1_555 1_555
C21B C19B 1_555 1_555
C22B N7B 1_555 1_555
H21B C22B 1_555 1_555
H22B C22B 1_555 1_555
C23B C16B 1_555 1_555
H23B C23B 1_555 1_555
C24B C18B 1_555 1_555
H24B C24B 1_555 1_555
N3C Cu2 1_555 1_555
N4C C3C 1_555 1_555
N9C N10C 1_555 1_555
N10C C3C 1_555 1_555
N11C N12C 1_555 1_555
N12C C10C 1_555 1_555
C3C H3C 1_555 1_555
C4C N4C 1_555 1_555
H4C C4C 1_555 1_555
C5C C6C 1_555 1_555
C6C H5C 1_555 1_555
C7C C5C 1_555 1_555
H6C C7C 1_555 1_555
C8C N9C 1_555 1_555
H7C C8C 1_555 1_555
H8C C8C 1_555 1_555
C9C N3C 1_555 1_555
H9C C9C 1_555 1_555
C10C N3C 1_555 1_555
H10C C10C 1_555 1_555
C12C C7C 1_555 1_555
H12C C12C 1_555 1_555
C13C C6C 1_555 1_555
H13C C13C 1_555 1_555
C14C N11C 1_555 1_555
H14C C14C 1_555 1_555
H15C C14C 1_555 1_555
C15C C12C 1_555 1_555
Cu1A N2 1_555 1_555
Cu1A_2 N2B 1_555 1_555
Cu2A N3 1_555 1_555
Cu2A_2 N4C 1_555 1_555
O3B_2 Cu2 1_555 1_555
N2A Cu1 1_555 1_555
N2C Cu1 1_555 1_555
N3A Cu2 1_555 1_555
N4B Cu2 1_555 1_555
Mo2 O21 1_555 1_555
Mo3 O6 1_555 1_555
Mo4 O14 1_555 1_555
Mo4 O20 1_555 1_555
Mo5 O14 1_555 1_555
Mo5 O15 1_555 1_555
Mo6 O17 1_555 1_555
Mo6 O21 1_555 1_555
Mo7 O22 1_555 1_555
Mo8 O18 1_555 1_555
Mo8 O25 1_555 1_555
N5 C2 1_555 1_555
N9 C4 1_555 1_555
C5 C8 1_555 1_555
C13 C15 1_555 1_555
C14 C15 1_555 1_555
C18 C22 1_555 1_555
C20 C21 1_555 1_555
C20 C24 1_555 1_555
C21 C23 1_555 1_555
C26 C30 1_555 1_555
C34 C36 1_555 1_555
C42 C45 1_555 1_555
C50 C52 1_555 1_555
Mo1B O9B 1_555 1_555
Mo2B O21B 1_555 1_555
Mo3B O6B 1_555 1_555
Mo4B O14B 1_555 1_555
Mo4B O20B 1_555 1_555
Mo5B O14B 1_555 1_555
Mo5B O15B 1_555 1_555
Mo6B O17B 1_555 1_555
Mo6B O21B 1_555 1_555
Mo7B O22B 1_555 1_555
Mo8B O18B 1_555 1_555
Mo8B O25B 1_555 1_555
N5B C2B 1_555 1_555
C18B C22B 1_555 1_555
C20B C21B 1_555 1_555
C20B C24B 1_555 1_555
C21B C23B 1_555 1_555
N9C C4C 1_555 1_555
N11C C9C 1_555 1_555
C5C C8C 1_555 1_555
C13C C15C 1_555 1_555
C14C C15C 1_555 1_555

#END
