
#######################################################################
#
#                 Cambridge Crystallographic Data Centre
#                                CCDC 
#
#######################################################################
#
# If this CIF has been generated from an entry in the Cambridge 
# Structural Database, then it will include bibliographic, chemical, 
# crystal, experimental, refinement or atomic coordinate data resulting 
# from the CCDC's data processing and validation procedures.
#
#######################################################################

data_TIBXUZ
_symmetry_cell_setting           monoclinic
_symmetry_space_group_name_H-M   'C 2/c'
_symmetry_Int_Tables_number      15
_space_group_name_Hall           '-C 2yn'
loop_
_symmetry_equiv_pos_site_id
_symmetry_equiv_pos_as_xyz
1 x,y,z
2 -x,y,1/2-z
3 1/2+x,1/2+y,z
4 1/2-x,1/2+y,1/2-z
5 -x,-y,-z
6 x,-y,1/2+z
7 1/2-x,1/2-y,-z
8 1/2+x,1/2-y,1/2+z
_cell_length_a                   22.374(5)
_cell_length_b                   26.008(5)
_cell_length_c                   13.675(3)
_cell_angle_alpha                90
_cell_angle_beta                 97.92(3)
_cell_angle_gamma                90
_cell_volume                     7881.62
loop_
_atom_site_label
_atom_site_type_symbol
_atom_site_fract_x
_atom_site_fract_y
_atom_site_fract_z
Cu1 Cu 0.0000 0.25011(5) 0.2500
N1 N 0.0065(2) 0.1976(2) 0.3563(4)
N2 N 0.0391(2) 0.1593(2) 0.4949(4)
N3 N 0.0028(3) 0.3051(2) 0.3543(4)
C1 C 0.0347(3) 0.1455(3) 0.6724(5)
N4 N 0.0340(3) 0.3640(2) 0.4602(5)
C2 C 0.0464(3) 0.3381(3) 0.3816(5)
H1 H 0.0813 0.3427 0.3501
N5 N -0.0051(3) 0.1283(3) 0.4489(5)
N6 N -0.0197(3) 0.3483(3) 0.4854(5)
C3 C 0.0453(3) 0.1993(3) 0.4383(5)
H2 H 0.0740 0.2259 0.4544
C4 C -0.0371(4) 0.3124(3) 0.4194(6)
H3 H -0.0737 0.2936 0.4175
C5 C -0.0233(4) 0.1533(3) 0.3658(5)
H4 H -0.0545 0.1410 0.3173
C6 C 0.0731(3) 0.1453(3) 0.5896(5)
H5 H 0.1069 0.1699 0.6057
H6 H 0.0906 0.1106 0.5845
C7 C 0.0684(4) 0.4047(4) 0.5169(7)
H7 H 0.1076 0.4094 0.4921
H8 H 0.0766 0.3945 0.5872
C8 C 0.0401(4) 0.4894(4) 0.4355(7)
H9 H 0.0675 0.4824 0.3900
C9 C 0.0341(3) 0.4548(3) 0.5084(7)
C10 C 0.0171(5) 0.1013(3) 0.7116(7)
H10 H 0.0285 0.0694 0.6857
C11 C -0.0069(4) 0.4651(4) 0.5736(7)
H11 H -0.0123 0.4413 0.6242
C12 C 0.0171(5) 0.1907(4) 0.7115(7)
H12 H 0.0285 0.2225 0.6853
Mo1 Mo 0.19027(3) 0.27583(3) 0.27903(4)
Mo2 Mo 0.20340(3) 0.14589(2) 0.36212(4)
Mo3 Mo 0.30587(2) 0.23383(2) 0.42862(4)
Mo4 Mo 0.24465(3) 0.37756(2) 0.40745(5)
O1 O 0.2823(2) 0.16765(18) 0.4601(3)
O2 O 0.27430(19) 0.29410(19) 0.3676(3)
O3 O 0.1769(2) 0.34070(19) 0.3359(4)
O4 O 0.1159(2) 0.2565(2) 0.2591(4)
O5 O 0.1881(2) 0.12308(19) 0.4872(3)
O6 O 0.3758(2) 0.2275(2) 0.3959(4)
O7 O 0.2830(2) 0.3993(2) 0.3164(4)
O8 O 0.2051(2) 0.4299(2) 0.4370(4)
O9 O 0.2355(2) 0.2094(2) 0.3048(3)
O10 O 0.1313(2) 0.1511(2) 0.3066(4)
O11 O 0.3171(2) 0.25777(19) 0.5496(3)
O12 O 0.2065(3) 0.2921(2) 0.1657(4)
O13 O 0.2329(3) 0.0963(2) 0.3059(4)
N1A N -0.0065(2) 0.1976(2) 1.1437(4)
N2A N -0.0391(2) 0.1593(2) 1.0051(4)
C1A C -0.0347(3) 0.1455(3) 0.8276(5)
N5A N 0.0051(3) 0.1283(3) 1.0511(5)
C3A C -0.0453(3) 0.1993(3) 1.0617(5)
H2A H -0.0740 0.2259 1.0456
C5A C 0.0233(4) 0.1533(3) 1.1342(5)
H4A H 0.0545 0.1410 1.1827
C6A C -0.0731(3) 0.1453(3) 0.9104(5)
H5A H -0.1069 0.1699 0.8943
H6A H -0.0906 0.1106 0.9155
C10A C -0.0171(5) 0.1013(3) 0.7884(7)
H10A H -0.0285 0.0694 0.8143
C12A C -0.0171(5) 0.1907(4) 0.7885(7)
H12A H -0.0285 0.2225 0.8147
N3D N -0.0028(3) 0.6949(2) 0.6457(4)
N4D N -0.0340(3) 0.6360(2) 0.5398(5)
C2D C -0.0464(3) 0.6619(3) 0.6184(5)
H1D H -0.0813 0.6573 0.6499
N6D N 0.0197(3) 0.6517(3) 0.5146(5)
C4D C 0.0371(4) 0.6876(3) 0.5806(6)
H3D H 0.0737 0.7064 0.5825
C7D C -0.0684(4) 0.5953(4) 0.4831(7)
H7D H -0.1076 0.5906 0.5079
H8D H -0.0766 0.6055 0.4128
C8D C -0.0401(4) 0.5106(4) 0.5645(7)
H9D H -0.0675 0.5176 0.6100
C9D C -0.0341(3) 0.5452(3) 0.4916(7)
C11D C 0.0069(4) 0.5349(4) 0.4264(7)
H11D H 0.0123 0.5587 0.3758
Mo1A Mo -0.19027(3) 0.27583(3) 0.22097(4)
Mo2A Mo -0.20340(3) 0.14589(2) 0.13788(4)
Mo3A Mo -0.30587(2) 0.23383(2) 0.07138(4)
Mo4A Mo -0.24465(3) 0.37756(2) 0.09255(5)
O1A O -0.2823(2) 0.16765(18) 0.0399(3)
O2A O -0.27430(19) 0.29410(19) 0.1324(3)
O3A O -0.1769(2) 0.34070(19) 0.1641(4)
O4A O -0.1159(2) 0.2565(2) 0.2409(4)
O5A O -0.1881(2) 0.12308(19) 0.0128(3)
O6A O -0.3758(2) 0.2275(2) 0.1041(4)
O7A O -0.2830(2) 0.3993(2) 0.1836(4)
O8A O -0.2051(2) 0.4299(2) 0.0630(4)
O9A O -0.2355(2) 0.2094(2) 0.1952(3)
O10A O -0.1313(2) 0.1511(2) 0.1934(4)
O11A O -0.3171(2) 0.25777(19) -0.0496(3)
O12A O -0.2065(3) 0.2921(2) 0.3343(4)
O13A O -0.2329(3) 0.0963(2) 0.1941(4)
Cu1_2 Cu 0.0000 0.25011(5) 1.2500
Cu1D Cu 0.0000 0.74989(5) 0.7500
N1A_2 N -0.0065(2) 0.1976(2) 0.1437(4)
N3A N -0.0028(3) 0.3051(2) 0.1457(4)
Mo1F Mo 0.30973(3) 0.22417(3) 0.72097(4)
Mo1G Mo -0.30973(3) 0.22417(3) -0.22097(4)
Mo4F Mo 0.25535(3) 0.12244(2) 0.59255(5)
Mo4G Mo -0.25535(3) 0.12244(2) -0.09255(5)
O1F O 0.2177(2) 0.33235(18) 0.5399(3)
O1G O -0.2177(2) 0.33235(18) -0.0399(3)
O5F O 0.3119(2) 0.37692(19) 0.5128(3)
O5G O -0.3119(2) 0.37692(19) -0.0128(3)
O11F O 0.1829(2) 0.24223(19) 0.4504(3)
O11G O -0.1829(2) 0.24223(19) 0.0496(3)
N7 N 0.2437(4) 0.0789(3) 0.9859(6)
C13 C 0.2805(5) 0.0716(4) 0.9000(7)
H13 H 0.2523 0.0726 0.8376
H14 H 0.3081 0.1014 0.8994
C14 C 0.1985(5) 0.0381(5) 0.9914(10)
H15 H 0.1739 0.0478 1.0433
H16 H 0.2204 0.0062 1.0139
C15 C 0.2121(5) 0.1301(4) 0.9650(9)
H17 H 0.2434 0.1567 0.9622
H18 H 0.1881 0.1281 0.8986
C16 C 0.2851(5) 0.0805(5) 1.0835(7)
H19 H 0.2595 0.0849 1.1365
H20 H 0.3048 0.0465 1.0935
C17 C 0.3164(6) 0.0246(5) 0.9005(8)
H21 H 0.2894 -0.0056 0.8989
H22 H 0.3452 0.0230 0.9623
C18 C 0.4167(6) 0.1554(6) 1.2160(10)
H23 H 0.4386 0.1515 1.2828
H24 H 0.3988 0.1898 1.2088
H25 H 0.4448 0.1509 1.1676
C19 C 0.3504(5) 0.0224(5) 0.8146(7)
H26 H 0.3704 -0.0116 0.8151
H27 H 0.3209 0.0242 0.7538
C20 C 0.3330(6) 0.1202(5) 1.0980(9)
H28 H 0.3144 0.1548 1.0892
H29 H 0.3603 0.1159 1.0474
C21 C 0.3690(6) 0.1165(7) 1.1992(8)
H30 H 0.3414 0.1206 1.2495
H31 H 0.3873 0.0819 1.2077
C22 C 0.0925(11) -0.0188(7) 0.868(3)
H32 H 0.1040 -0.0551 0.8590
H33 H 0.0604 -0.0072 0.8155
C23 C 0.3968(6) 0.0622(5) 0.8078(8)
H34 H 0.4151 0.0570 0.7475
H35 H 0.4280 0.0598 0.8654
H36 H 0.3780 0.0963 0.8061
C24 C 0.1544(8) 0.0249(8) 0.8961(15)
H37 H 0.1817 0.0159 0.8476
H38 H 0.1369 0.0586 0.8744
C25 C 0.1730(8) 0.1470(8) 1.0329(14)
H39 H 0.1972 0.1559 1.0968
H40 H 0.1449 0.1190 1.0445
C26 C 0.1302(11) 0.2032(9) 0.983(2)
H41 H 0.0884 0.1926 0.9579
H42 H 0.1284 0.2285 1.0367
C27 C 0.1518(12) 0.2222(12) 0.920(2)
H43 H 0.1369 0.2575 0.9105
H44 H 0.1410 0.2026 0.8590
H45 H 0.1958 0.2227 0.9375
C28 C 0.080(2) -0.0012(18) 0.997(3)
H46 H 0.0470 -0.0214 1.0163
H47 H 0.0708 0.0355 0.9998
H48 H 0.1173 -0.0084 1.0427
loop_
_geom_bond_atom_site_label_1
_geom_bond_atom_site_label_2
_geom_bond_site_symmetry_1
_geom_bond_site_symmetry_2
Cu1 N1 1_555 1_555
N1 C3 1_555 1_555
N2 N5 1_555 1_555
N3 Cu1 1_555 1_555
C1 C6 1_555 1_555
N4 C2 1_555 1_555
C2 N3 1_555 1_555
H1 C2 1_555 1_555
N5 C5 1_555 1_555
N6 N4 1_555 1_555
C3 N2 1_555 1_555
H2 C3 1_555 1_555
C4 N3 1_555 1_555
H3 C4 1_555 1_555
C5 N1 1_555 1_555
H4 C5 1_555 1_555
C6 N2 1_555 1_555
H5 C6 1_555 1_555
H6 C6 1_555 1_555
C7 N4 1_555 1_555
H7 C7 1_555 1_555
H8 C7 1_555 1_555
C8 H9 1_555 1_555
C9 C7 1_555 1_555
C10 C1 1_555 1_555
H10 C10 1_555 1_555
C11 C9 1_555 1_555
H11 C11 1_555 1_555
C12 C1 1_555 1_555
H12 C12 1_555 1_555
Mo1 O2 1_555 1_555
Mo2 O1 1_555 1_555
Mo3 O1 1_555 1_555
Mo4 O2 1_555 1_555
O1 Mo4F 1_555 1_555
O2 Mo3 1_555 1_555
O3 Mo1 1_555 1_555
O4 Cu1 1_555 1_555
O5 Mo2 1_555 1_555
O6 Mo3 1_555 1_555
O7 Mo4 1_555 1_555
O8 Mo4 1_555 1_555
O9 Mo1 1_555 1_555
O10 Mo2 1_555 1_555
O11 Mo3 1_555 1_555
O12 Mo1 1_555 1_555
O13 Mo2 1_555 1_555
N7 C13 1_555 1_555
C13 H13 1_555 1_555
H14 C13 1_555 1_555
C14 N7 1_555 1_555
H15 C14 1_555 1_555
H16 C14 1_555 1_555
C15 N7 1_555 1_555
H17 C15 1_555 1_555
H18 C15 1_555 1_555
C16 N7 1_555 1_555
H19 C16 1_555 1_555
H20 C16 1_555 1_555
C17 C13 1_555 1_555
H21 C17 1_555 1_555
H22 C17 1_555 1_555
C18 H23 1_555 1_555
H24 C18 1_555 1_555
H25 C18 1_555 1_555
C19 C17 1_555 1_555
H26 C19 1_555 1_555
H27 C19 1_555 1_555
C20 C16 1_555 1_555
H28 C20 1_555 1_555
H29 C20 1_555 1_555
C21 C18 1_555 1_555
H30 C21 1_555 1_555
H31 C21 1_555 1_555
C22 H32 1_555 1_555
H33 C22 1_555 1_555
C23 C19 1_555 1_555
H34 C23 1_555 1_555
H35 C23 1_555 1_555
H36 C23 1_555 1_555
C24 C14 1_555 1_555
H37 C24 1_555 1_555
H38 C24 1_555 1_555
C25 C15 1_555 1_555
H39 C25 1_555 1_555
H40 C25 1_555 1_555
C26 C25 1_555 1_555
H41 C26 1_555 1_555
H42 C26 1_555 1_555
C27 C26 1_555 1_555
H43 C27 1_555 1_555
H44 C27 1_555 1_555
H45 C27 1_555 1_555
C28 C22 1_555 1_555
H46 C28 1_555 1_555
H47 C28 1_555 1_555
H48 C28 1_555 1_555
N1A C3A 1_555 1_555
N2A N5A 1_555 1_555
C1A C6A 1_555 1_555
N5A C5A 1_555 1_555
C3A N2A 1_555 1_555
H2A C3A 1_555 1_555
C5A N1A 1_555 1_555
H4A C5A 1_555 1_555
C6A N2A 1_555 1_555
H5A C6A 1_555 1_555
H6A C6A 1_555 1_555
C10A C10 1_555 1_555
H10A C10A 1_555 1_555
C12A C12 1_555 1_555
H12A C12A 1_555 1_555
N3D C2D 1_555 1_555
N4D C2D 1_555 1_555
C2D H1D 1_555 1_555
N6D N4D 1_555 1_555
C4D N3D 1_555 1_555
H3D C4D 1_555 1_555
C7D N4D 1_555 1_555
H7D C7D 1_555 1_555
H8D C7D 1_555 1_555
C8D C11 1_555 1_555
H9D C8D 1_555 1_555
C9D C7D 1_555 1_555
C11D C8 1_555 1_555
H11D C11D 1_555 1_555
Mo1A O2A 1_555 1_555
Mo2A O1A 1_555 1_555
Mo3A O1A 1_555 1_555
Mo4A O2A 1_555 1_555
O1A Mo4G 1_555 1_555
O2A Mo3A 1_555 1_555
O3A Mo1A 1_555 1_555
O4A Cu1 1_555 1_555
O5A Mo2A 1_555 1_555
O6A Mo3A 1_555 1_555
O7A Mo4A 1_555 1_555
O8A Mo4A 1_555 1_555
O9A Mo1A 1_555 1_555
O10A Mo2A 1_555 1_555
O11A Mo3A 1_555 1_555
O12A Mo1A 1_555 1_555
O13A Mo2A 1_555 1_555
Cu1_2 N1A 1_555 1_555
Cu1D N3D 1_555 1_555
N1A_2 Cu1 1_555 1_555
N3A Cu1 1_555 1_555
Mo1F O11 1_555 1_555
Mo1G O11A 1_555 1_555
Mo4F O5 1_555 1_555
Mo4G O5A 1_555 1_555
O1F Mo4 1_555 1_555
O1G Mo4A 1_555 1_555
O5F Mo4 1_555 1_555
O5G Mo4A 1_555 1_555
O11F Mo1 1_555 1_555
O11G Mo1A 1_555 1_555
N6 C4 1_555 1_555
C8 C9 1_555 1_555
Mo1 O4 1_555 1_555
Mo2 O9 1_555 1_555
Mo3 O9 1_555 1_555
Mo4 O3 1_555 1_555
C20 C21 1_555 1_555
C22 C24 1_555 1_555
C1A C10A 1_555 1_555
C1A C12A 1_555 1_555
N6D C4D 1_555 1_555
C8D C9D 1_555 1_555
C9D C11D 1_555 1_555
Mo1A O4A 1_555 1_555
Mo2A O9A 1_555 1_555
Mo3A O9A 1_555 1_555
Mo4A O3A 1_555 1_555

#END
