
#######################################################################
#
#                 Cambridge Crystallographic Data Centre
#                                CCDC 
#
#######################################################################
#
# If this CIF has been generated from an entry in the Cambridge 
# Structural Database, then it will include bibliographic, chemical, 
# crystal, experimental, refinement or atomic coordinate data resulting 
# from the CCDC's data processing and validation procedures.
#
#######################################################################

data_TIBYAG
_symmetry_cell_setting           monoclinic
_symmetry_space_group_name_H-M   'P 21/c'
_symmetry_Int_Tables_number      14
_space_group_name_Hall           '-P 2ybc'
loop_
_symmetry_equiv_pos_site_id
_symmetry_equiv_pos_as_xyz
1 x,y,z
2 -x,1/2+y,1/2-z
3 -x,-y,-z
4 x,1/2-y,1/2+z
_cell_length_a                   13.758(3)
_cell_length_b                   17.565(4)
_cell_length_c                   16.921(3)
_cell_angle_alpha                90
_cell_angle_beta                 100.07(3)
_cell_angle_gamma                90
_cell_volume                     4026.12
loop_
_atom_site_label
_atom_site_type_symbol
_atom_site_fract_x
_atom_site_fract_y
_atom_site_fract_z
Mo1 Mo 0.86260(3) 0.11948(2) 0.96184(3)
Mo2 Mo 0.77771(3) 0.01241(3) 1.09450(3)
Mo3 Mo 0.88367(3) -0.13174(2) 1.01641(3)
Mo4 Mo 0.96796(3) -0.02070(2) 0.89507(3)
Cu1 Cu 0.5000 0.0000 1.0000
O1 O 0.7838(3) -0.1405(2) 0.9419(2)
O2 O 0.7402(3) 0.0292(2) 1.1825(2)
O3 O 0.8994(3) -0.00286(19) 0.9963(2)
O4 O 0.8236(3) -0.0898(2) 1.1003(2)
O5 O 1.0671(3) -0.0281(2) 0.8432(2)
O6 O 0.9692(2) 0.08911(19) 0.9021(2)
O7 O 0.9857(2) -0.11927(18) 0.9471(2)
O8 O 0.7639(3) 0.0970(2) 0.8907(2)
O9 O 0.8065(3) 0.11118(19) 1.0574(2)
O10 O 0.8674(3) -0.0363(2) 0.8239(2)
O11 O 0.8750(3) 0.2149(2) 0.9541(2)
O12 O 0.6698(3) -0.0033(2) 1.0276(2)
N1 N 0.5156(3) 0.0104(3) 0.8830(3)
O13 O 0.9075(3) -0.2207(2) 1.0513(2)
N2 N 0.5830(3) 0.0180(3) 0.7765(3)
N3 N 0.4997(3) -0.3852(3) 0.4910(3)
C1 C 0.4975(3) 0.0569(3) 0.7580(3)
H1 H 0.4718 0.0825 0.7094
N4 N 0.5431(4) -0.2692(3) 0.4732(3)
C2 C 0.6545(4) 0.0163(3) 0.7222(3)
H2 H 0.7210 0.0085 0.7544
H3 H 0.6542 0.0666 0.6958
C3 C 0.4478(4) -0.2651(3) 0.4787(4)
H4 H 0.4073 -0.2210 0.4754
C4 C 0.5741(4) -0.3407(3) 0.4811(4)
H5 H 0.6395 -0.3574 0.4798
N5 N 0.4586(4) 0.0511(3) 0.8228(4)
C5 C 0.6369(4) -0.0438(3) 0.6586(3)
C6 C 0.5491(4) -0.0480(3) 0.6044(3)
H6 H 0.4960 -0.0153 0.6108
C7 C 0.5932(4) -0.0084(3) 0.8505(3)
H7 H 0.6482 -0.0369 0.8768
C8 C 0.6129(4) -0.1480(3) 0.5311(4)
C9 C 0.6022(5) -0.2015(3) 0.4610(4)
H8 H 0.5701 -0.1745 0.4120
H9 H 0.6684 -0.2180 0.4527
C10 C 0.7005(5) -0.1457(4) 0.5860(4)
H10 H 0.7526 -0.1797 0.5806
N6 N 0.4227(4) -0.3359(4) 0.4898(4)
C11 C 0.5371(4) -0.0989(3) 0.5415(4)
H11 H 0.4764 -0.1004 0.5048
C12 C 0.7118(5) -0.0938(4) 0.6489(4)
H12 H 0.7722 -0.0925 0.6860
Mo1B Mo 0.13740(3) -0.11948(2) 1.03816(3)
Mo2B Mo 0.22229(3) -0.01241(3) 0.90550(3)
Mo3B Mo 0.11633(3) 0.13174(2) 0.98359(3)
Mo4B Mo 0.03204(3) 0.02070(2) 1.10493(3)
O1B O 0.2162(3) 0.1405(2) 1.0581(2)
O2B O 0.2598(3) -0.0292(2) 0.8175(2)
O3B O 0.1006(3) 0.00286(19) 1.0037(2)
O4B O 0.1764(3) 0.0898(2) 0.8997(2)
O5B O -0.0671(3) 0.0281(2) 1.1568(2)
O6B O 0.0308(2) -0.08911(19) 1.0979(2)
O7B O 0.0143(2) 0.11927(18) 1.0529(2)
O8B O 0.2361(3) -0.0970(2) 1.1093(2)
O9B O 0.1935(3) -0.11118(19) 0.9426(2)
O10B O 0.1326(3) 0.0363(2) 1.1761(2)
O11B O 0.1250(3) -0.2149(2) 1.0459(2)
O12B O 0.3302(3) 0.0033(2) 0.9724(2)
N1B N 0.4844(3) -0.0104(3) 1.1170(3)
O13B O 0.0925(3) 0.2207(2) 0.9487(2)
N2B N 0.4170(3) -0.0180(3) 1.2235(3)
N3B N 0.5003(3) 0.3852(3) 1.5090(3)
C1B C 0.5025(3) -0.0569(3) 1.2420(3)
H1B H 0.5282 -0.0825 1.2906
N4B N 0.4569(4) 0.2692(3) 1.5268(3)
C2B C 0.3455(4) -0.0163(3) 1.2778(3)
H2B H 0.2790 -0.0085 1.2456
H3B H 0.3458 -0.0666 1.3042
C3B C 0.5522(4) 0.2651(3) 1.5213(4)
H4B H 0.5927 0.2210 1.5246
C4B C 0.4259(4) 0.3407(3) 1.5189(4)
H5B H 0.3605 0.3574 1.5202
N5B N 0.5414(4) -0.0511(3) 1.1772(4)
C5B C 0.3631(4) 0.0438(3) 1.3414(3)
C6B C 0.4509(4) 0.0480(3) 1.3956(3)
H6B H 0.5040 0.0153 1.3892
C7B C 0.4068(4) 0.0084(3) 1.1495(3)
H7B H 0.3518 0.0369 1.1232
C8B C 0.3871(4) 0.1480(3) 1.4689(4)
C9B C 0.3978(5) 0.2015(3) 1.5390(4)
H8B H 0.4299 0.1745 1.5880
H9B H 0.3316 0.2180 1.5473
C10B C 0.2995(5) 0.1457(4) 1.4140(4)
H10B H 0.2474 0.1797 1.4194
N6B N 0.5773(4) 0.3359(4) 1.5102(4)
C11B C 0.4629(4) 0.0989(3) 1.4585(4)
H11B H 0.5236 0.1004 1.4952
C12B C 0.2882(5) 0.0938(4) 1.3511(4)
H12B H 0.2278 0.0925 1.3140
Mo1_2 Mo -0.13740(3) 0.11948(2) 0.96184(3)
Mo1B_2 Mo 1.13740(3) -0.11948(2) 1.03816(3)
Mo2_2 Mo -0.22229(3) 0.01241(3) 1.09450(3)
Mo2B_2 Mo 1.22229(3) -0.01241(3) 0.90550(3)
Mo3_2 Mo -0.11633(3) -0.13174(2) 1.01641(3)
Mo3B_2 Mo 1.11633(3) 0.13174(2) 0.98359(3)
Mo4_2 Mo -0.03204(3) -0.02070(2) 0.89507(3)
Mo4B_2 Mo 1.03204(3) 0.02070(2) 1.10493(3)
Cu1A Cu 0.5000 -0.5000 0.5000
Cu1A_2 Cu 0.5000 0.5000 1.5000
O3_2 O -0.1006(3) -0.00286(19) 0.9963(2)
O3B_2 O 1.1006(3) 0.00286(19) 1.0037(2)
O5_2 O 0.0671(3) -0.0281(2) 0.8432(2)
O5B_2 O 0.9329(3) 0.0281(2) 1.1568(2)
O6_2 O -0.0308(2) 0.08911(19) 0.9021(2)
O6B_2 O 1.0308(2) -0.08911(19) 1.0979(2)
O7_2 O -0.0143(2) -0.11927(18) 0.9471(2)
O7B_2 O 1.0143(2) 0.11927(18) 1.0529(2)
N3A N 0.5003(3) 0.1148(3) 1.0090(3)
N3C N 0.4997(3) -0.1148(3) 0.9910(3)
N7 N 1.1069(4) -0.2216(3) 1.2994(3)
C13 C 1.2375(5) -0.1290(4) 1.4986(4)
H13 H 1.1936 -0.1521 1.5326
H14 H 1.2982 -0.1603 1.5044
C14 C 1.1838(5) -0.2071(3) 1.2475(3)
H15 H 1.1985 -0.1519 1.2485
H16 H 1.1553 -0.2208 1.1915
C15 C 1.1860(5) -0.1310(4) 1.4115(4)
H17 H 1.1289 -0.0957 1.4041
H18 H 1.2322 -0.1137 1.3765
C16 C 1.1507(5) -0.2107(4) 1.3877(3)
H19 H 1.1003 -0.2253 1.4201
H20 H 1.2071 -0.2461 1.4017
C17 C 1.2648(5) -0.0494(4) 1.5286(4)
H21 H 1.2973 -0.0516 1.5849
H22 H 1.2049 -0.0183 1.5240
H23 H 1.3098 -0.0267 1.4963
C18 C 1.0215(5) -0.1660(4) 1.2739(4)
H24 H 1.0468 -0.1133 1.2819
H25 H 0.9960 -0.1728 1.2159
C19 C 1.2808(6) -0.2505(4) 1.2717(4)
H26 H 1.3178 -0.2283 1.3219
H27 H 1.2662 -0.3043 1.2826
C20 C 0.9368(6) -0.1767(5) 1.3204(5)
H28 H 0.9067 -0.2275 1.3081
H29 H 0.9631 -0.1748 1.3787
C21 C 1.0715(6) -0.3037(3) 1.2892(4)
H30 H 1.1296 -0.3375 1.3024
H31 H 1.0279 -0.3139 1.3287
C22 C 1.3440(6) -0.2476(5) 1.2079(5)
H32 H 1.3593 -0.1938 1.1976
H33 H 1.3065 -0.2690 1.1575
C23 C 0.9941(6) -0.4128(4) 1.0881(4)
H34 H 1.0292 -0.4548 1.0673
H35 H 0.9856 -0.3709 1.0493
H36 H 0.9293 -0.4305 1.0967
C24 C 0.8595(6) -0.1169(5) 1.2999(5)
H37 H 0.8374 -0.1162 1.2410
H38 H 0.8887 -0.0666 1.3161
C25 C 1.0162(6) -0.3249(4) 1.2064(5)
H39 H 0.9474 -0.3374 1.2113
H40 H 1.0138 -0.2794 1.1716
C26 C 1.0537(8) -0.3852(6) 1.1674(5)
H41 H 1.0630 -0.4290 1.2048
H42 H 1.1199 -0.3702 1.1575
C27 C 0.7707(7) -0.1295(6) 1.3401(6)
H43 H 0.7226 -0.0887 1.3246
H44 H 0.7918 -0.1293 1.3985
H45 H 0.7404 -0.1787 1.3232
C28 C 1.4404(7) -0.2917(6) 1.2309(6)
H46 H 1.4788 -0.2880 1.1874
H47 H 1.4257 -0.3452 1.2400
H48 H 1.4785 -0.2700 1.2801
loop_
_geom_bond_atom_site_label_1
_geom_bond_atom_site_label_2
_geom_bond_site_symmetry_1
_geom_bond_site_symmetry_2
Mo1 Mo4 1_555 1_555
Mo2 O2 1_555 1_555
Mo3 O1 1_555 1_555
Mo4 O3 1_555 1_555
Cu1 O12 1_555 1_555
O3 Mo1 1_555 1_555
O4 Mo2 1_555 1_555
O5 Mo4 1_555 1_555
O6 Mo1 1_555 1_555
O7 Mo3 1_555 1_555
O8 Mo1 1_555 1_555
O9 Mo1 1_555 1_555
O10 Mo4 1_555 1_555
O11 Mo1 1_555 1_555
O12 Mo2 1_555 1_555
N1 Cu1 1_555 1_555
O13 Mo3 1_555 1_555
N2 C1 1_555 1_555
N3 C4 1_555 1_555
C1 H1 1_555 1_555
N4 C3 1_555 1_555
C2 N2 1_555 1_555
H2 C2 1_555 1_555
H3 C2 1_555 1_555
C3 H4 1_555 1_555
C4 N4 1_555 1_555
H5 C4 1_555 1_555
N5 N1 1_555 1_555
C5 C2 1_555 1_555
C6 C5 1_555 1_555
H6 C6 1_555 1_555
C7 N1 1_555 1_555
H7 C7 1_555 1_555
C8 C9 1_555 1_555
C9 N4 1_555 1_555
H8 C9 1_555 1_555
H9 C9 1_555 1_555
C10 C8 1_555 1_555
H10 C10 1_555 1_555
N6 N3 1_555 1_555
C11 C6 1_555 1_555
H11 C11 1_555 1_555
C12 C5 1_555 1_555
H12 C12 1_555 1_555
N7 C14 1_555 1_555
C13 H13 1_555 1_555
H14 C13 1_555 1_555
C14 H15 1_555 1_555
H16 C14 1_555 1_555
C15 C13 1_555 1_555
H17 C15 1_555 1_555
H18 C15 1_555 1_555
C16 N7 1_555 1_555
H19 C16 1_555 1_555
H20 C16 1_555 1_555
C17 C13 1_555 1_555
H21 C17 1_555 1_555
H22 C17 1_555 1_555
H23 C17 1_555 1_555
C18 N7 1_555 1_555
H24 C18 1_555 1_555
H25 C18 1_555 1_555
C19 C14 1_555 1_555
H26 C19 1_555 1_555
H27 C19 1_555 1_555
C20 C18 1_555 1_555
H28 C20 1_555 1_555
H29 C20 1_555 1_555
C21 N7 1_555 1_555
H30 C21 1_555 1_555
H31 C21 1_555 1_555
C22 C19 1_555 1_555
H32 C22 1_555 1_555
H33 C22 1_555 1_555
C23 H34 1_555 1_555
H35 C23 1_555 1_555
H36 C23 1_555 1_555
C24 C20 1_555 1_555
H37 C24 1_555 1_555
H38 C24 1_555 1_555
C25 C21 1_555 1_555
H39 C25 1_555 1_555
H40 C25 1_555 1_555
C26 C23 1_555 1_555
H41 C26 1_555 1_555
H42 C26 1_555 1_555
C27 C24 1_555 1_555
H43 C27 1_555 1_555
H44 C27 1_555 1_555
H45 C27 1_555 1_555
C28 C22 1_555 1_555
H46 C28 1_555 1_555
H47 C28 1_555 1_555
H48 C28 1_555 1_555
Mo1B Mo4B 1_555 1_555
Mo2B O2B 1_555 1_555
Mo3B O1B 1_555 1_555
Mo4B O3B 1_555 1_555
O3B Mo1B 1_555 1_555
O4B Mo2B 1_555 1_555
O5B Mo4B 1_555 1_555
O6B Mo1B 1_555 1_555
O7B Mo3B 1_555 1_555
O8B Mo1B 1_555 1_555
O9B Mo1B 1_555 1_555
O10B Mo4B 1_555 1_555
O11B Mo1B 1_555 1_555
O12B Cu1 1_555 1_555
N1B Cu1 1_555 1_555
O13B Mo3B 1_555 1_555
N2B C1B 1_555 1_555
N3B C4B 1_555 1_555
C1B H1B 1_555 1_555
N4B C3B 1_555 1_555
C2B N2B 1_555 1_555
H2B C2B 1_555 1_555
H3B C2B 1_555 1_555
C3B H4B 1_555 1_555
C4B N4B 1_555 1_555
H5B C4B 1_555 1_555
N5B N1B 1_555 1_555
C5B C2B 1_555 1_555
C6B C5B 1_555 1_555
H6B C6B 1_555 1_555
C7B N1B 1_555 1_555
H7B C7B 1_555 1_555
C8B C9B 1_555 1_555
C9B N4B 1_555 1_555
H8B C9B 1_555 1_555
H9B C9B 1_555 1_555
C10B C8B 1_555 1_555
H10B C10B 1_555 1_555
N6B N3B 1_555 1_555
C11B C6B 1_555 1_555
H11B C11B 1_555 1_555
C12B C5B 1_555 1_555
H12B C12B 1_555 1_555
Mo1_2 O7B 1_555 1_555
Mo1B_2 O7 1_555 1_555
Mo2_2 O5B 1_555 1_555
Mo2B_2 O5 1_555 1_555
Mo3_2 O6B 1_555 1_555
Mo3B_2 O6 1_555 1_555
Mo4_2 O3B 1_555 1_555
Mo4B_2 O3 1_555 1_555
Cu1A N3 1_555 1_555
Cu1A_2 N3B 1_555 1_555
O3_2 Mo4B 1_555 1_555
O3B_2 Mo4 1_555 1_555
O5_2 Mo2B 1_555 1_555
O5B_2 Mo2 1_555 1_555
O6_2 Mo3B 1_555 1_555
O6B_2 Mo3 1_555 1_555
O7_2 Mo1B 1_555 1_555
O7B_2 Mo1 1_555 1_555
N3A Cu1 1_555 1_555
N3C Cu1 1_555 1_555
Mo2 O3 1_555 1_555
Mo2 O9 1_555 1_555
Mo3 O3 1_555 1_555
Mo3 O4 1_555 1_555
Mo4 O6 1_555 1_555
Mo4 O7 1_555 1_555
N2 C7 1_555 1_555
C1 N5 1_555 1_555
C3 N6 1_555 1_555
C8 C11 1_555 1_555
C10 C12 1_555 1_555
C15 C16 1_555 1_555
C25 C26 1_555 1_555
Mo2B O3B 1_555 1_555
Mo2B O9B 1_555 1_555
Mo2B O12B 1_555 1_555
Mo3B O3B 1_555 1_555
Mo3B O4B 1_555 1_555
Mo4B O6B 1_555 1_555
Mo4B O7B 1_555 1_555
N2B C7B 1_555 1_555
C1B N5B 1_555 1_555
C3B N6B 1_555 1_555
C8B C11B 1_555 1_555
C10B C12B 1_555 1_555
Mo1_2 Mo4_2 1_555 1_555
Mo1_2 O3_2 1_555 1_555
Mo1_2 O6_2 1_555 1_555
Mo1B_2 Mo4B_2 1_555 1_555
Mo1B_2 O3B_2 1_555 1_555
Mo1B_2 O6B_2 1_555 1_555
Mo2_2 O3_2 1_555 1_555
Mo2B_2 O3B_2 1_555 1_555
Mo3_2 O3_2 1_555 1_555
Mo3_2 O7_2 1_555 1_555
Mo3B_2 O3B_2 1_555 1_555
Mo3B_2 O7B_2 1_555 1_555
Mo4_2 O3_2 1_555 1_555
Mo4_2 O5_2 1_555 1_555
Mo4_2 O6_2 1_555 1_555
Mo4_2 O7_2 1_555 1_555
Mo4B_2 O3B_2 1_555 1_555
Mo4B_2 O5B_2 1_555 1_555
Mo4B_2 O6B_2 1_555 1_555
Mo4B_2 O7B_2 1_555 1_555

#END
