
#######################################################################
#
#                 Cambridge Crystallographic Data Centre
#                                CCDC 
#
#######################################################################
#
# If this CIF has been generated from an entry in the Cambridge 
# Structural Database, then it will include bibliographic, chemical, 
# crystal, experimental, refinement or atomic coordinate data resulting 
# from the CCDC's data processing and validation procedures.
#
#######################################################################

data_TICJIZ
_symmetry_cell_setting           triclinic
_symmetry_space_group_name_H-M   'P -1'
_symmetry_Int_Tables_number      2
_space_group_name_Hall           '-P 1'
loop_
_symmetry_equiv_pos_site_id
_symmetry_equiv_pos_as_xyz
1 x,y,z
2 -x,-y,-z
_cell_length_a                   8.055(5)
_cell_length_b                   9.869(5)
_cell_length_c                   11.322(7)
_cell_angle_alpha                76.52(2)
_cell_angle_beta                 79.83(3)
_cell_angle_gamma                77.73(2)
_cell_volume                     847.575
loop_
_atom_site_label
_atom_site_type_symbol
_atom_site_fract_x
_atom_site_fract_y
_atom_site_fract_z
Ag1 Ag 0.64124(4) 0.53427(3) 0.09955(3)
N1 N 0.8293(4) 0.3440(3) 0.1054(3)
N2 N 1.4740(4) -0.2645(3) 0.0970(3)
C1 C 1.3851(5) -0.2352(4) 0.2021(4)
H2 H 1.4107 -0.2966 0.2750
C2 C 1.2564(5) -0.1175(4) 0.2078(3)
H3 H 1.1981 -0.1006 0.2830
C3 C 1.2159(4) -0.0249(3) 0.0992(3)
C4 C 1.3093(5) -0.0553(4) -0.0100(3)
H4 H 1.2868 0.0043 -0.0844
C5 C 1.4354(5) -0.1741(4) -0.0072(4)
H5 H 1.4969 -0.1927 -0.0811
C6 C 1.0804(4) 0.1014(4) 0.1017(3)
C7 C 0.9513(5) 0.1111(4) 0.2014(3)
H6 H 0.9477 0.0360 0.2684
C8 C 0.8300(5) 0.2322(4) 0.1994(3)
H7 H 0.7446 0.2371 0.2660
C9 C 0.9507(5) 0.3344(4) 0.0090(4)
H8 H 0.9505 0.4107 -0.0571
C10 C 1.0761(5) 0.2158(4) 0.0036(3)
H9 H 1.1575 0.2126 -0.0655
Ag1_2 Ag 1.64124(4) -0.46573(3) 0.09955(3)
N2_2 N 0.4740(4) 0.7355(3) 0.0970(3)
Ag2 Ag 0.55596(9) -0.05901(7) 0.36296(7)
O1 O 0.4438(3) 0.4143(3) 0.3183(2)
H1 H 0.4151 0.3861 0.3917
O2 O 0.3445(4) 0.4349(3) 0.1457(2)
O3 O 0.3645(4) 0.1366(3) 0.3240(3)
O4 O 0.2201(5) 0.0395(3) 0.4973(3)
O5 O -0.2331(4) 0.7644(3) 0.2906(3)
O6 O -0.3969(3) 0.6686(3) 0.4523(3)
C11 C 0.2392(5) 0.1371(4) 0.4087(4)
C12 C 0.1067(5) 0.2714(4) 0.3974(3)
C13 C -0.0609(5) 0.2722(4) 0.4576(4)
H10 H -0.0915 0.1879 0.5040
C14 C -0.1816(5) 0.3947(4) 0.4497(4)
H11 H -0.2918 0.3921 0.4910
C15 C -0.1402(4) 0.5220(4) 0.3807(3)
C16 C -0.2640(5) 0.6610(4) 0.3730(3)
C17 C 0.0255(4) 0.5220(4) 0.3179(3)
H12 H 0.0545 0.6059 0.2697
C18 C 0.1472(4) 0.3989(4) 0.3262(3)
C19 C 0.3210(4) 0.4117(4) 0.2568(3)
Ag2A Ag 0.44404(9) 0.05901(7) 0.63704(7)
Ag2_2 Ag -0.44404(9) 0.94099(7) 0.36296(7)
O4A O 0.7799(5) -0.0395(3) 0.5027(3)
O5_2 O 0.7669(4) -0.2356(3) 0.2906(3)
O6_2 O 0.6031(3) -0.3314(3) 0.4523(3)
Ag3? Ag 0.4994(8) -0.0882(7) 0.4062(6)
loop_
_geom_bond_atom_site_label_1
_geom_bond_atom_site_label_2
_geom_bond_site_symmetry_1
_geom_bond_site_symmetry_2
Ag1 N1 1_555 1_555
Ag2 O3 1_555 1_555
O1 H1 1_555 1_555
O2 C19 1_555 1_555
O3 C11 1_555 1_555
O4 C11 1_555 1_555
O5 C16 1_555 1_555
O6 C16 1_555 1_555
N1 C8 1_555 1_555
N2 C1 1_555 1_555
C1 H2 1_555 1_555
C2 C1 1_555 1_555
H3 C2 1_555 1_555
C3 C2 1_555 1_555
C4 C3 1_555 1_555
H4 C4 1_555 1_555
C5 N2 1_555 1_555
H5 C5 1_555 1_555
C6 C3 1_555 1_555
C7 C6 1_555 1_555
H6 C7 1_555 1_555
C8 C7 1_555 1_555
H7 C8 1_555 1_555
C9 N1 1_555 1_555
H8 C9 1_555 1_555
C10 C6 1_555 1_555
H9 C10 1_555 1_555
C11 C12 1_555 1_555
C12 C13 1_555 1_555
C13 H10 1_555 1_555
C14 C13 1_555 1_555
H11 C14 1_555 1_555
C15 C14 1_555 1_555
C16 C15 1_555 1_555
C17 C15 1_555 1_555
H12 C17 1_555 1_555
C18 C12 1_555 1_555
C19 O1 1_555 1_555
Ag1_2 N2 1_555 1_555
Ag2A O4 1_555 1_555
Ag2_2 O5 1_555 1_555
O4A Ag2 1_555 1_555
O5_2 Ag2 1_555 1_555
O6_2 Ag2 1_555 1_555
N2_2 Ag1 1_555 1_555
O6 Ag2_2 1_555 1_555
C4 C5 1_555 1_555
C9 C10 1_555 1_555
C17 C18 1_555 1_555
C18 C19 1_555 1_555

#END
