
#######################################################################
#
#                 Cambridge Crystallographic Data Centre
#                                CCDC 
#
#######################################################################
#
# If this CIF has been generated from an entry in the Cambridge 
# Structural Database, then it will include bibliographic, chemical, 
# crystal, experimental, refinement or atomic coordinate data resulting 
# from the CCDC's data processing and validation procedures.
#
#######################################################################

data_TICKUM
_symmetry_cell_setting           orthorhombic
_symmetry_space_group_name_H-M   'P c a b'
_symmetry_Int_Tables_number      61
_space_group_name_Hall           '-P 2bc 2ac'
loop_
_symmetry_equiv_pos_site_id
_symmetry_equiv_pos_as_xyz
1 x,y,z
2 1/2-x,1/2+y,-z
3 -x,1/2-y,1/2+z
4 1/2+x,-y,1/2-z
5 -x,-y,-z
6 1/2+x,1/2-y,z
7 x,1/2+y,1/2-z
8 1/2-x,y,1/2+z
_cell_length_a                   9.2434(10)
_cell_length_b                   27.553(5)
_cell_length_c                   7.096(3)
_cell_angle_alpha                90
_cell_angle_beta                 90
_cell_angle_gamma                90
_cell_volume                     1807.23
loop_
_atom_site_label
_atom_site_type_symbol
_atom_site_fract_x
_atom_site_fract_y
_atom_site_fract_z
Cd1 Cd 0.66652(5) 0.643365(16) 0.23377(7)
Cl1 Cl 0.68087(15) 0.58612(6) -0.0740(2)
Cl2 Cl 0.86809(19) 0.69426(6) 0.0701(3)
N1 N 0.4473(6) 0.60277(16) 0.2862(7)
C1 C 0.3279(6) 0.6278(3) 0.2488(9)
C2 C 0.1908(8) 0.6063(3) 0.2612(10)
H1 H 0.1075 0.6240 0.2358
C3 C 0.1831(7) 0.5582(3) 0.3122(10)
H2 H 0.0934 0.5433 0.3248
C4 C 0.3055(7) 0.5323(2) 0.3441(10)
H3 H 0.3014 0.4995 0.3744
C5 C 0.4358(7) 0.5561(2) 0.3301(9)
H4 H 0.5202 0.5386 0.3526
C6 C 0.3436(7) 0.6807(3) 0.2000(10)
H5 H 0.2639 0.6905 0.1196
H6 H 0.3395 0.6999 0.3143
N2 N 0.4817(6) 0.69000(19) 0.1023(8)
H7 H 0.5043 0.7217 0.1118
H8 H 0.4724 0.6827 -0.0207
Cd1G Cd 0.83348(5) 0.643365(16) -0.26623(7)
Cl1G Cl 0.81913(15) 0.58612(6) 0.4260(2)
Cl2G Cl 0.63191(19) 0.69426(6) 0.5701(3)
loop_
_geom_bond_atom_site_label_1
_geom_bond_atom_site_label_2
_geom_bond_site_symmetry_1
_geom_bond_site_symmetry_2
Cd1 Cl1 1_555 1_555
Cl1 Cd1G 1_555 1_555
Cl2 Cd1 1_555 1_555
N1 Cd1 1_555 1_555
C1 N1 1_555 1_555
C2 C1 1_555 1_555
H1 C2 1_555 1_555
C3 C2 1_555 1_555
H2 C3 1_555 1_555
C4 C3 1_555 1_555
H3 C4 1_555 1_555
C5 N1 1_555 1_555
H4 C5 1_555 1_555
C6 C1 1_555 1_555
H5 C6 1_555 1_555
H6 C6 1_555 1_555
N2 Cd1 1_555 1_555
H7 N2 1_555 1_555
H8 N2 1_555 1_555
Cd1G Cl2 1_555 1_555
Cl1G Cd1 1_555 1_555
Cl2G Cd1 1_555 1_555
C4 C5 1_555 1_555
C6 N2 1_555 1_555

#END
