
#######################################################################
#
#                 Cambridge Crystallographic Data Centre
#                                CCDC 
#
#######################################################################
#
# If this CIF has been generated from an entry in the Cambridge 
# Structural Database, then it will include bibliographic, chemical, 
# crystal, experimental, refinement or atomic coordinate data resulting 
# from the CCDC's data processing and validation procedures.
#
#######################################################################

data_TICLOI
_symmetry_cell_setting           triclinic
_symmetry_space_group_name_H-M   'P -1'
_symmetry_Int_Tables_number      2
_space_group_name_Hall           '-P 1'
loop_
_symmetry_equiv_pos_site_id
_symmetry_equiv_pos_as_xyz
1 x,y,z
2 -x,-y,-z
_cell_length_a                   6.3542(12)
_cell_length_b                   10.027(2)
_cell_length_c                   10.2443(12)
_cell_angle_alpha                95.054(2)
_cell_angle_beta                 95.0980(10)
_cell_angle_gamma                99.8180(10)
_cell_volume                     637.043
loop_
_atom_site_label
_atom_site_type_symbol
_atom_site_fract_x
_atom_site_fract_y
_atom_site_fract_z
Gd1 Gd 0.42883(3) 0.53805(2) 0.258792(19)
Cu1 Cu 1.0000 1.0000 0.0000
S1 S 0.59285(18) 0.70667(11) 0.03792(11)
O1 O 1.3262(6) 1.3765(3) 0.4002(3)
O2 O 1.3694(5) 1.2833(3) 0.5879(3)
O3 O 1.1765(5) 0.6531(3) 0.3613(3)
O4 O 1.2187(6) 0.7661(3) 0.5624(3)
O5 O 0.6917(7) 0.8494(4) 0.0433(4)
O6 O 0.7184(5) 0.6297(4) 0.1222(3)
O7 O 0.3821(6) 0.6947(4) 0.0941(4)
O8 O 0.5594(6) 0.6453(3) -0.0986(3)
O9 O 1.1564(8) 0.8479(4) -0.0517(4)
H1 H 1.2901 0.8786 -0.0489
H2 H 1.2101 0.7939 -0.0046
O10 O 0.7612(5) 0.4634(3) 0.3297(3)
H3 H 0.8740 0.5241 0.3434
H4 H 0.7647 0.3945 0.3721
O11 O 0.0665(6) 0.4540(4) 0.1411(4)
H5 H -0.0508 0.4631 0.1720
H6 H -0.0130 0.3778 0.1141
N1 N 1.1054(7) 1.0035(4) 0.1899(4)
C1 C 1.1752(8) 1.1238(5) 0.2607(5)
H7 H 1.1771 1.2026 0.2188
C2 C 1.2447(7) 1.1361(4) 0.3939(4)
C3 C 1.2477(7) 1.0183(4) 0.4547(4)
H8 H 1.2919 1.0234 0.5443
C4 C 1.1846(7) 0.8930(4) 0.3814(4)
C5 C 1.1115(8) 0.8900(5) 0.2487(5)
H9 H 1.0653 0.8061 0.1991
C6 C 1.3194(7) 1.2757(4) 0.4663(4)
C7 C 1.1944(7) 0.7609(4) 0.4402(4)
Gd1A Gd 0.57117(3) 0.46195(2) -0.258792(19)
S1A S 0.40715(18) 0.29333(11) -0.03792(11)
O5A O 0.3083(7) 0.1506(4) -0.0433(4)
O6A O 0.2816(5) 0.3703(4) -0.1222(3)
O7A O 0.6179(6) 0.3053(4) -0.0941(4)
O8A O 0.4406(6) 0.3547(3) 0.0986(3)
O10A O 0.2388(5) 0.5366(3) -0.3297(3)
H3A H 0.1260 0.4759 -0.3434
H4A H 0.2353 0.6055 -0.3721
O11A O 0.9335(6) 0.5460(4) -0.1411(4)
H5A H 1.0508 0.5369 -0.1720
H6A H 1.0130 0.6222 -0.1141
O1_2 O 0.3262(6) 0.3765(3) 0.4002(3)
O2_2 O 0.3694(5) 0.2833(3) 0.5879(3)
O3_2 O 0.1765(5) -0.3469(3) 0.3613(3)
O4_2 O 0.2187(6) -0.2339(3) 0.5624(3)
N1_2 N 0.1054(7) 0.0035(4) 0.1899(4)
C1_2 C 0.1752(8) 0.1238(5) 0.2607(5)
H7_2 H 0.1771 0.2026 0.2188
C2_2 C 0.2447(7) 0.1361(4) 0.3939(4)
C3_2 C 0.2477(7) 0.0183(4) 0.4547(4)
H8_2 H 0.2919 0.0234 0.5443
C4_2 C 0.1846(7) -0.1070(4) 0.3814(4)
C5_2 C 0.1115(8) -0.1100(5) 0.2487(5)
H9_2 H 0.0653 -0.1939 0.1991
C6_2 C 0.3194(7) 0.2757(4) 0.4663(4)
C7_2 C 0.1944(7) -0.2391(4) 0.4402(4)
O9A O 0.8436(8) 1.1521(4) 0.0517(4)
H1A H 0.7099 1.1214 0.0489
H2A H 0.7899 1.2061 0.0046
Gd1_2 Gd 0.42883(3) -0.46195(2) 0.258792(19)
Gd1_3 Gd 1.42883(3) 0.53805(2) 0.258792(19)
Gd1_4 Gd 1.42883(3) 1.53805(2) 0.258792(19)
Gd1A_2 Gd 0.57117(3) 0.46195(2) 0.741208(19)
Gd1A_3 Gd 1.57117(3) 1.46195(2) 0.741208(19)
Cu1_2 Cu 0.0000 0.0000 0.0000
O1A O 0.6738(6) 0.6235(3) -0.4002(3)
O2_3 O 0.3694(5) 0.2833(3) -0.4121(3)
O2A O 0.6306(5) 0.7167(3) 0.4121(3)
O3_3 O 0.1765(5) 0.6531(3) 0.3613(3)
O3A O 0.8235(5) 0.3469(3) -0.3613(3)
O5A_2 O 1.3083(7) 1.1506(4) -0.0433(4)
N1A N 0.8946(7) 0.9965(4) -0.1899(4)
O12 O 0.3816(13) 0.9348(8) 0.7860(7)
H10 H 0.3079 0.9071 0.7123
H11 H 0.3850 1.0179 0.7741
loop_
_geom_bond_atom_site_label_1
_geom_bond_atom_site_label_2
_geom_bond_site_symmetry_1
_geom_bond_site_symmetry_2
Gd1 O6 1_555 1_555
Cu1 O5 1_555 1_555
S1 O5 1_555 1_555
O1 C6 1_555 1_555
O2 C6 1_555 1_555
O3 C7 1_555 1_555
O4 C7 1_555 1_555
O6 S1 1_555 1_555
O7 Gd1 1_555 1_555
O8 S1 1_555 1_555
O9 Cu1 1_555 1_555
H1 O9 1_555 1_555
H2 O9 1_555 1_555
O10 Gd1 1_555 1_555
H3 O10 1_555 1_555
H4 O10 1_555 1_555
O11 Gd1 1_555 1_555
H5 O11 1_555 1_555
H6 O11 1_555 1_555
N1 Cu1 1_555 1_555
C1 N1 1_555 1_555
H7 C1 1_555 1_555
C2 C1 1_555 1_555
C3 C2 1_555 1_555
H8 C3 1_555 1_555
C4 C3 1_555 1_555
C5 N1 1_555 1_555
H9 C5 1_555 1_555
C6 C2 1_555 1_555
C7 C4 1_555 1_555
O12 H10 1_555 1_555
H11 O12 1_555 1_555
Gd1A O8 1_555 1_555
S1A O5A 1_555 1_555
O5A Cu1_2 1_555 1_555
O6A Gd1A 1_555 1_555
O7A Gd1A 1_555 1_555
O8A Gd1 1_555 1_555
O10A Gd1A 1_555 1_555
H3A O10A 1_555 1_555
H4A O10A 1_555 1_555
O11A Gd1A 1_555 1_555
H5A O11A 1_555 1_555
H6A O11A 1_555 1_555
O1_2 Gd1 1_555 1_555
O2_2 C6_2 1_555 1_555
O3_2 C7_2 1_555 1_555
O4_2 C7_2 1_555 1_555
N1_2 C1_2 1_555 1_555
C1_2 H7_2 1_555 1_555
C2_2 C1_2 1_555 1_555
C3_2 C2_2 1_555 1_555
H8_2 C3_2 1_555 1_555
C4_2 C3_2 1_555 1_555
C5_2 N1_2 1_555 1_555
H9_2 C5_2 1_555 1_555
C6_2 O1_2 1_555 1_555
C7_2 C4_2 1_555 1_555
O9A Cu1 1_555 1_555
H1A O9A 1_555 1_555
H2A O9A 1_555 1_555
Gd1_2 O3_2 1_555 1_555
Gd1_3 O3 1_555 1_555
Gd1_4 O1 1_555 1_555
Gd1A_2 O2_2 1_555 1_555
Gd1A_3 O2 1_555 1_555
Cu1_2 N1_2 1_555 1_555
O1A Gd1A 1_555 1_555
O2_3 Gd1A 1_555 1_555
O2A Gd1 1_555 1_555
O3_3 Gd1 1_555 1_555
O3A Gd1A 1_555 1_555
O5A_2 Cu1 1_555 1_555
N1A Cu1 1_555 1_555
S1 O7 1_555 1_555
C4 C5 1_555 1_555
S1A O6A 1_555 1_555
S1A O7A 1_555 1_555
S1A O8A 1_555 1_555
C2_2 C6_2 1_555 1_555
C4_2 C5_2 1_555 1_555

#END
