
#######################################################################
#
#                 Cambridge Crystallographic Data Centre
#                                CCDC 
#
#######################################################################
#
# If this CIF has been generated from an entry in the Cambridge 
# Structural Database, then it will include bibliographic, chemical, 
# crystal, experimental, refinement or atomic coordinate data resulting 
# from the CCDC's data processing and validation procedures.
#
#######################################################################

data_TICLOH
_symmetry_cell_setting           orthorhombic
_symmetry_space_group_name_H-M   'P b c m'
_symmetry_Int_Tables_number      57
_space_group_name_Hall           '-P 2c 2b'
loop_
_symmetry_equiv_pos_site_id
_symmetry_equiv_pos_as_xyz
1 x,y,z
2 -x,-y,1/2+z
3 -x,1/2+y,1/2-z
4 x,1/2-y,-z
5 -x,-y,-z
6 x,y,1/2-z
7 x,1/2-y,1/2+z
8 -x,1/2+y,z
_cell_length_a                   10.0755(2)
_cell_length_b                   8.9512(2)
_cell_length_c                   15.978
_cell_angle_alpha                90
_cell_angle_beta                 90
_cell_angle_gamma                90
_cell_volume                     1441.02
loop_
_atom_site_label
_atom_site_type_symbol
_atom_site_fract_x
_atom_site_fract_y
_atom_site_fract_z
C1 C 0.2258(2) 0.0090(3) 0.67019(16)
H1 H 0.1800 -0.0346 0.6227
H2 H 0.2060 0.1151 0.6711
C2 C 0.1757(4) -0.0622(4) 0.7500
H3 H 0.0795 -0.0582 0.7500
H4 H 0.2013 -0.1667 0.7500
C3 C 0.7010(2) 0.0692(2) 0.61951(13)
C4 C 0.7750(2) 0.1606(2) 0.55636(13)
C5 C 0.7069(3) 0.2500 0.5000
H5 H 0.6146 0.2500 0.5000
C6 C 0.9125(2) 0.1582(3) 0.55432(16)
H6 H 0.9590 0.0944 0.5897
C7 C 0.9806(3) 0.2500 0.5000
H7 H 1.0730 0.2500 0.5000
N1 N 0.37032(19) -0.0124(3) 0.66011(13)
O1 O 0.61481(15) 0.13749(17) 0.66156(9)
O2 O 0.7303(2) -0.06493(19) 0.62660(13)
O3 O 0.4000(2) 0.2995(2) 0.7500
Cu1 Cu 0.49092(3) 0.06471(4) 0.7500
H8 H 0.392(2) 0.031(3) 0.6148(16)
H9 H 0.386(2) -0.107(4) 0.6552(16)
H10 H 0.355(2) 0.330(3) 0.7906(12)
C1E C 0.2258(2) 0.0090(3) 0.82981(16)
H1E H 0.1800 -0.0346 0.8773
H2E H 0.2060 0.1151 0.8289
C3C C 0.7010(2) 0.4308(2) 0.38049(13)
C4C C 0.7750(2) 0.3394(2) 0.44364(13)
C6C C 0.9125(2) 0.3418(3) 0.44568(16)
H6C H 0.9590 0.4056 0.4103
N1E N 0.37032(19) -0.0124(3) 0.83989(13)
O1C O 0.61481(15) 0.36251(17) 0.33844(9)
O1E O 0.61481(15) 0.13749(17) 0.83844(9)
O2C O 0.7303(2) 0.56493(19) 0.37340(13)
Cu1F Cu 0.49092(3) 0.43529(4) 0.2500
H8E H 0.392(2) 0.031(3) 0.8852(16)
H9E H 0.386(2) -0.107(4) 0.8448(16)
H10E H 0.355(2) 0.330(3) 0.7094(12)
O4 O 0.6268(4) -0.2500 0.5000
H11 H 0.672(3) -0.199(4) 0.534(2)
H11C H 0.672(3) -0.301(4) 0.466(2)
loop_
_geom_bond_atom_site_label_1
_geom_bond_atom_site_label_2
_geom_bond_site_symmetry_1
_geom_bond_site_symmetry_2
C1 H1 1_555 1_555
H2 C1 1_555 1_555
C2 C1 1_555 1_555
H3 C2 1_555 1_555
H4 C2 1_555 1_555
C3 C4 1_555 1_555
C4 C5 1_555 1_555
C5 H5 1_555 1_555
C6 C4 1_555 1_555
H6 C6 1_555 1_555
C7 C6 1_555 1_555
H7 C7 1_555 1_555
N1 C1 1_555 1_555
O1 C3 1_555 1_555
O2 C3 1_555 1_555
O3 Cu1 1_555 1_555
O4 H11 1_555 1_555
Cu1 N1 1_555 1_555
H8 N1 1_555 1_555
H9 N1 1_555 1_555
H10 O3 1_555 1_555
C1E C2 1_555 1_555
H1E C1E 1_555 1_555
H2E C1E 1_555 1_555
C3C C4C 1_555 1_555
C4C C5 1_555 1_555
C6C C7 1_555 1_555
H6C C6C 1_555 1_555
N1E Cu1 1_555 1_555
O1C C3C 1_555 1_555
O1E Cu1 1_555 1_555
O2C C3C 1_555 1_555
Cu1F O1C 1_555 1_555
H8E N1E 1_555 1_555
H9E N1E 1_555 1_555
H10E O3 1_555 1_555
H11C O4 1_555 1_555
O1 Cu1 1_555 1_555
C1E N1E 1_555 1_555
C4C C6C 1_555 1_555

#END
