
#######################################################################
#
#                 Cambridge Crystallographic Data Centre
#                                CCDC 
#
#######################################################################
#
# If this CIF has been generated from an entry in the Cambridge 
# Structural Database, then it will include bibliographic, chemical, 
# crystal, experimental, refinement or atomic coordinate data resulting 
# from the CCDC's data processing and validation procedures.
#
#######################################################################

data_TICLUN
_symmetry_cell_setting           orthorhombic
_symmetry_space_group_name_H-M   'P n m a'
_symmetry_Int_Tables_number      62
_space_group_name_Hall           '-P 2ac 2n'
loop_
_symmetry_equiv_pos_site_id
_symmetry_equiv_pos_as_xyz
1 x,y,z
2 1/2-x,-y,1/2+z
3 -x,1/2+y,-z
4 1/2+x,1/2-y,1/2-z
5 -x,-y,-z
6 1/2+x,y,1/2-z
7 x,1/2-y,z
8 1/2-x,1/2+y,1/2+z
_cell_length_a                   10.3145(5)
_cell_length_b                   17.4418(9)
_cell_length_c                   9.3234(5)
_cell_angle_alpha                90
_cell_angle_beta                 90
_cell_angle_gamma                90
_cell_volume                     1677.31
loop_
_atom_site_label
_atom_site_type_symbol
_atom_site_fract_x
_atom_site_fract_y
_atom_site_fract_z
Ni1 Ni 0.5000 0.5000 0.0000
O1 O 0.61935(18) 0.39868(11) 0.0287(2)
O2 O 0.7860(2) 0.45214(12) 0.1394(3)
N1 N 0.5166(3) 0.52539(16) 0.2190(3)
H1 H 0.584(4) 0.4983(18) 0.240(4)
H2 H 0.453(3) 0.5066(16) 0.261(3)
N2 N 0.6627(3) 0.56997(15) -0.0333(3)
H3 H 0.718(3) 0.542(2) -0.002(3)
H4 H 0.681(4) 0.574(2) -0.123(4)
C1 C 0.5372(4) 0.6064(2) 0.2586(4)
H5 H 0.463(3) 0.6389(18) 0.214(3)
H6 H 0.536(3) 0.612(2) 0.363(4)
C2 C 0.6642(4) 0.6362(2) 0.2009(4)
H7 H 0.679(4) 0.686(2) 0.244(4)
H8 H 0.734(4) 0.600(2) 0.240(4)
C3 C 0.6702(4) 0.64482(19) 0.0399(5)
H9 H 0.601(4) 0.675(2) 0.003(4)
H10 H 0.750(4) 0.668(2) 0.010(4)
C4 C 0.7288(3) 0.39599(16) 0.0876(3)
C5 C 0.7967(2) 0.31914(15) 0.0984(3)
C6 C 0.9260(3) 0.31814(17) 0.1392(3)
H11 H 0.967(3) 0.3621(19) 0.153(3)
C7 C 0.9909(4) 0.2500 0.1566(5)
H12 H 1.078(4) 0.2500 0.181(4)
C8 C 0.7333(4) 0.2500 0.0752(4)
H13 H 0.650(4) 0.2500 0.045(4)
Ni1F Ni 0.5000 0.0000 0.0000
O1F O 0.61935(18) 0.10132(11) 0.0287(2)
O1D O 0.38065(18) 0.60132(11) -0.0287(2)
O2F O 0.7860(2) 0.04786(12) 0.1394(3)
N1D N 0.4834(3) 0.47461(16) -0.2190(3)
H1D H 0.416(4) 0.5017(18) -0.240(4)
H2D H 0.547(3) 0.4934(16) -0.261(3)
N2D N 0.3373(3) 0.43003(15) 0.0333(3)
H3D H 0.282(3) 0.458(2) 0.002(3)
H4D H 0.319(4) 0.426(2) 0.123(4)
C1D C 0.4628(4) 0.3936(2) -0.2586(4)
H5D H 0.537(3) 0.3611(18) -0.214(3)
H6D H 0.464(3) 0.388(2) -0.363(4)
C2D C 0.3358(4) 0.3638(2) -0.2009(4)
H7D H 0.321(4) 0.314(2) -0.244(4)
H8D H 0.266(4) 0.400(2) -0.240(4)
C3D C 0.3298(4) 0.35518(19) -0.0399(5)
H9D H 0.399(4) 0.325(2) -0.003(4)
H10D H 0.250(4) 0.332(2) -0.010(4)
C4F C 0.7288(3) 0.10401(16) 0.0876(3)
C5F C 0.7967(2) 0.18086(15) 0.0984(3)
C6F C 0.9260(3) 0.18186(17) 0.1392(3)
H11F H 0.967(3) 0.1379(19) 0.153(3)
loop_
_geom_bond_atom_site_label_1
_geom_bond_atom_site_label_2
_geom_bond_site_symmetry_1
_geom_bond_site_symmetry_2
Ni1 O1 1_555 1_555
O1 C4 1_555 1_555
O2 C4 1_555 1_555
N1 Ni1 1_555 1_555
H1 N1 1_555 1_555
H2 N1 1_555 1_555
N2 Ni1 1_555 1_555
H3 N2 1_555 1_555
H4 N2 1_555 1_555
C1 N1 1_555 1_555
H5 C1 1_555 1_555
H6 C1 1_555 1_555
C2 C1 1_555 1_555
H7 C2 1_555 1_555
H8 C2 1_555 1_555
C3 N2 1_555 1_555
H9 C3 1_555 1_555
H10 C3 1_555 1_555
C4 C5 1_555 1_555
C5 C6 1_555 1_555
C6 H11 1_555 1_555
C7 C6 1_555 1_555
H12 C7 1_555 1_555
C8 C5 1_555 1_555
H13 C8 1_555 1_555
Ni1F O1F 1_555 1_555
O1F C4F 1_555 1_555
O1D Ni1 1_555 1_555
O2F C4F 1_555 1_555
N1D Ni1 1_555 1_555
H1D N1D 1_555 1_555
H2D N1D 1_555 1_555
N2D Ni1 1_555 1_555
H3D N2D 1_555 1_555
H4D N2D 1_555 1_555
C1D N1D 1_555 1_555
H5D C1D 1_555 1_555
H6D C1D 1_555 1_555
C2D C1D 1_555 1_555
H7D C2D 1_555 1_555
H8D C2D 1_555 1_555
C3D N2D 1_555 1_555
H9D C3D 1_555 1_555
H10D C3D 1_555 1_555
C4F C5F 1_555 1_555
C5F C8 1_555 1_555
C6F C7 1_555 1_555
H11F C6F 1_555 1_555
C2 C3 1_555 1_555
C2D C3D 1_555 1_555
C5F C6F 1_555 1_555

#END
