
#######################################################################
#
#                 Cambridge Crystallographic Data Centre
#                                CCDC 
#
#######################################################################
#
# If this CIF has been generated from an entry in the Cambridge 
# Structural Database, then it will include bibliographic, chemical, 
# crystal, experimental, refinement or atomic coordinate data resulting 
# from the CCDC's data processing and validation procedures.
#
#######################################################################

data_TICMUO
_symmetry_cell_setting           triclinic
_symmetry_space_group_name_H-M   'P -1'
_symmetry_Int_Tables_number      2
_space_group_name_Hall           '-P 1'
loop_
_symmetry_equiv_pos_site_id
_symmetry_equiv_pos_as_xyz
1 x,y,z
2 -x,-y,-z
_cell_length_a                   9.4434(3)
_cell_length_b                   11.3754(6)
_cell_length_c                   13.9654(3)
_cell_angle_alpha                103.392(3)
_cell_angle_beta                 90.252(3)
_cell_angle_gamma                106.064(4)
_cell_volume                     1398.65
loop_
_atom_site_label
_atom_site_type_symbol
_atom_site_fract_x
_atom_site_fract_y
_atom_site_fract_z
Ag1 Ag 0.04894(8) 0.06974(5) 0.11378(5)
N1 N 0.0614(6) -0.1130(5) 0.1243(4)
N2 N 0.0571(6) -0.7366(5) 0.1235(4)
C1 C 0.1832(8) -0.1477(7) 0.1107(7)
H1 H 0.2679 -0.0894 0.0989
C2 C 0.1917(8) -0.2672(6) 0.1129(7)
H2 H 0.2800 -0.2876 0.1022
C3 C 0.0684(7) -0.3551(5) 0.1311(5)
C4 C 0.0660(7) -0.4873(5) 0.1302(5)
C5 C 0.1879(9) -0.5291(7) 0.1143(8)
H3 H 0.2776 -0.4742 0.1057
C6 C 0.1778(9) -0.6530(7) 0.1110(8)
H4 H 0.2625 -0.6791 0.0990
C7 C -0.0615(10) -0.6964(7) 0.1383(8)
H5 H -0.1501 -0.7531 0.1465
C8 C -0.0590(9) -0.5739(7) 0.1420(8)
H6 H -0.1454 -0.5501 0.1530
C9 C -0.0583(9) -0.3176(7) 0.1462(7)
H7 H -0.1443 -0.3735 0.1591
C10 C -0.0579(10) -0.1985(7) 0.1425(8)
H8 H -0.1449 -0.1758 0.1532
Ag1_2 Ag 0.04894(8) -0.93026(5) 0.11378(5)
N2_2 N 0.0571(6) 0.2634(5) 0.1235(4)
Cl1 Cl -0.2365(6) 0.3758(6) 0.6313(3)
O1 O -0.4905(6) -0.1265(5) 0.0201(4)
O2 O -0.2440(6) -0.0454(6) 0.0400(5)
O3 O -0.2552(6) 0.0558(6) 0.2322(4)
C11 C -0.3659(9) -0.0634(6) 0.0724(7)
C12 C -0.3932(9) -0.0172(8) 0.1787(6)
H9 H -0.4606 0.0343 0.1833
H10 H -0.4375 -0.0883 0.2066
C13 C -0.2616(10) 0.1235(10) 0.3267(7)
C14 C -0.1275(12) 0.2060(14) 0.3715(9)
H11 H -0.0422 0.2100 0.3378
C15 C -0.1197(16) 0.2827(17) 0.4662(10)
H12 H -0.0302 0.3375 0.4965
C16 C -0.2494(17) 0.2746(17) 0.5138(9)
C17 C -0.3783(15) 0.1985(17) 0.4715(9)
H13 H -0.4637 0.1967 0.5047
C18 C -0.3858(12) 0.1210(13) 0.3770(8)
H14 H -0.4765 0.0670 0.3479
Cl2 Cl 0.1812(5) 0.0550(4) 0.3483(3)
O4 O 0.3513(8) 0.4453(6) 0.7194(4)
O5 O 0.4360(7) 0.5887(5) 0.8979(4)
O6 O 0.5064(8) 0.7632(6) 0.8436(5)
H15 H 0.5080 0.8180 0.9313
C19 C 0.4521(9) 0.6456(8) 0.8326(6)
C20 C 0.4110(10) 0.5755(9) 0.7247(7)
H16 H 0.3388 0.6068 0.6968
H17 H 0.4979 0.5890 0.6874
C21 C 0.3133(10) 0.3613(9) 0.6294(6)
C22 C 0.2720(14) 0.2373(10) 0.6324(8)
H18 H 0.2725 0.2162 0.6929
C23 C 0.2295(14) 0.1426(12) 0.5466(8)
H19 H 0.2009 0.0587 0.5500
C24 C 0.2294(12) 0.1709(13) 0.4589(8)
C25 C 0.2718(12) 0.2945(14) 0.4530(7)
H20 H 0.2724 0.3137 0.3918
C26 C 0.3145(11) 0.3919(11) 0.5395(7)
H21 H 0.3430 0.4758 0.5360
O7 O 0.5603(8) 0.6673(6) 1.1067(6)
H22 H 0.574(11) 0.595(5) 1.102(8)
H23 H 0.484(7) 0.635(10) 1.134(7)
loop_
_geom_bond_atom_site_label_1
_geom_bond_atom_site_label_2
_geom_bond_site_symmetry_1
_geom_bond_site_symmetry_2
Ag1 N1 1_555 1_555
N1 C1 1_555 1_555
N2 C6 1_555 1_555
C1 H1 1_555 1_555
C2 C1 1_555 1_555
H2 C2 1_555 1_555
C3 C2 1_555 1_555
C4 C3 1_555 1_555
C5 C4 1_555 1_555
H3 C5 1_555 1_555
C6 C5 1_555 1_555
H4 C6 1_555 1_555
C7 N2 1_555 1_555
H5 C7 1_555 1_555
C8 C4 1_555 1_555
H6 C8 1_555 1_555
C9 C3 1_555 1_555
H7 C9 1_555 1_555
C10 N1 1_555 1_555
H8 C10 1_555 1_555
Cl1 C16 1_555 1_555
O1 C11 1_555 1_555
O2 C11 1_555 1_555
O3 C12 1_555 1_555
C11 C12 1_555 1_555
C12 H9 1_555 1_555
H10 C12 1_555 1_555
C13 O3 1_555 1_555
C14 C13 1_555 1_555
H11 C14 1_555 1_555
C15 C14 1_555 1_555
H12 C15 1_555 1_555
C16 C15 1_555 1_555
C17 C16 1_555 1_555
H13 C17 1_555 1_555
C18 C13 1_555 1_555
H14 C18 1_555 1_555
Cl2 C24 1_555 1_555
O4 C20 1_555 1_555
O5 C19 1_555 1_555
O6 H15 1_555 1_555
C19 O6 1_555 1_555
C20 C19 1_555 1_555
H16 C20 1_555 1_555
H17 C20 1_555 1_555
C21 O4 1_555 1_555
C22 C21 1_555 1_555
H18 C22 1_555 1_555
C23 C22 1_555 1_555
H19 C23 1_555 1_555
C24 C23 1_555 1_555
C25 C24 1_555 1_555
H20 C25 1_555 1_555
C26 C21 1_555 1_555
H21 C26 1_555 1_555
O7 H22 1_555 1_555
H23 O7 1_555 1_555
Ag1_2 N2 1_555 1_555
N2_2 Ag1 1_555 1_555
C7 C8 1_555 1_555
C9 C10 1_555 1_555
C17 C18 1_555 1_555
C25 C26 1_555 1_555

#END
