
#######################################################################
#
#                 Cambridge Crystallographic Data Centre
#                                CCDC 
#
#######################################################################
#
# If this CIF has been generated from an entry in the Cambridge 
# Structural Database, then it will include bibliographic, chemical, 
# crystal, experimental, refinement or atomic coordinate data resulting 
# from the CCDC's data processing and validation procedures.
#
#######################################################################

data_TICMEY
_symmetry_cell_setting           monoclinic
_symmetry_space_group_name_H-M   'C c'
_symmetry_Int_Tables_number      9
_space_group_name_Hall           'C -2yc'
loop_
_symmetry_equiv_pos_site_id
_symmetry_equiv_pos_as_xyz
1 x,y,z
2 x,-y,1/2+z
3 1/2+x,1/2+y,z
4 1/2+x,1/2-y,1/2+z
_cell_length_a                   19.0742(5)
_cell_length_b                   8.5204(3)
_cell_length_c                   18.8634(6)
_cell_angle_alpha                90
_cell_angle_beta                 101.3840(10)
_cell_angle_gamma                90
_cell_volume                     3005.36
loop_
_atom_site_label
_atom_site_type_symbol
_atom_site_fract_x
_atom_site_fract_y
_atom_site_fract_z
Fe1 Fe -0.099355(14) 0.48472(3) 0.339205(13)
C1 C 0.00295(10) 0.4543(2) 0.35915(9)
N1 N 0.06387(9) 0.43179(18) 0.36933(9)
C2 C -0.19942(9) 0.5352(2) 0.30518(9)
N2 N -0.25824(9) 0.57440(19) 0.28922(9)
C3 C -0.11081(10) 0.2939(2) 0.28160(10)
N3 N -0.11840(9) 0.18167(19) 0.24743(9)
C4 C -0.08464(10) 0.5862(2) 0.25091(10)
N4 N -0.07531(9) 0.6466(2) 0.19912(9)
C5 C -0.08758(10) 0.6933(2) 0.38109(9)
N5 N -0.08208(9) 0.8157(2) 0.40705(9)
N6 N -0.11184(8) 0.40220(19) 0.41538(8)
O1 O -0.12119(8) 0.35078(19) 0.46839(8)
Cu1 Cu 0.150028(12) 0.25483(2) 0.330595(11)
N7 N 0.23456(8) 0.30958(17) 0.41322(8)
H1 H 0.2719 0.2561 0.4014
N8 N 0.12653(8) 0.08946(18) 0.39912(8)
H2 H 0.0912 0.1291 0.4200
N9 N 0.06719(8) 0.19738(18) 0.24699(8)
H3 H 0.0293 0.2502 0.2580
N10 N 0.17470(9) 0.41897(18) 0.26167(8)
H4 H 0.2103 0.3786 0.2414
C6 C 0.22247(10) 0.2288(2) 0.47987(10)
H5 H 0.1871 0.2894 0.4997
C7 C 0.29024(10) 0.2136(3) 0.53898(10)
H6 H 0.3271 0.1602 0.5193
H7 H 0.3078 0.3174 0.5543
C8 C 0.27582(11) 0.1224(2) 0.60432(10)
H8 H 0.3204 0.1078 0.6386
H9 H 0.2440 0.1830 0.6280
C9 C 0.24226(11) -0.0373(2) 0.58285(10)
H10 H 0.2303 -0.0880 0.6250
H11 H 0.2764 -0.1033 0.5649
C10 C 0.17448(11) -0.0192(2) 0.52420(10)
H12 H 0.1549 -0.1221 0.5099
H13 H 0.1389 0.0392 0.5436
C11 C 0.19056(10) 0.0664(2) 0.45804(9)
H14 H 0.2260 0.0051 0.4386
C12 C 0.09983(10) -0.0617(2) 0.36416(10)
H15 H 0.0905 -0.1344 0.4008
H16 H 0.1363 -0.1074 0.3413
C13 C 0.03160(10) -0.0378(2) 0.30774(9)
H17 H 0.0001 0.0302 0.3284
H18 H 0.0079 -0.1385 0.2984
C14 C 0.04024(10) 0.0320(2) 0.23546(9)
H19 H -0.0075 0.0372 0.2047
C15 C 0.08621(11) -0.0697(2) 0.19637(10)
H20 H 0.0833 -0.0310 0.1481
H21 H 0.0693 -0.1760 0.1945
H22 H 0.1350 -0.0661 0.2219
C16 C 0.07989(10) 0.2778(2) 0.18046(10)
H23 H 0.1158 0.2176 0.1614
C17 C 0.01270(11) 0.2898(2) 0.12099(10)
H24 H -0.0247 0.3433 0.1397
H25 H -0.0043 0.1853 0.1061
C18 C 0.02846(11) 0.3798(2) 0.05559(10)
H26 H 0.0619 0.3201 0.0336
H27 H -0.0154 0.3919 0.0199
C19 C 0.05996(11) 0.5413(2) 0.07746(11)
H28 H 0.0248 0.6049 0.0949
H29 H 0.0718 0.5932 0.0356
C20 C 0.12720(11) 0.5271(2) 0.13658(10)
H30 H 0.1453 0.6310 0.1511
H31 H 0.1639 0.4712 0.1177
C21 C 0.11093(9) 0.4392(2) 0.20249(9)
H32 H 0.0750 0.4995 0.2216
C22 C 0.20120(10) 0.5687(2) 0.29671(10)
H33 H 0.1649 0.6136 0.3200
H34 H 0.2102 0.6420 0.2602
C23 C 0.27005(10) 0.5445(2) 0.35295(9)
H35 H 0.3014 0.4768 0.3319
H36 H 0.2937 0.6453 0.3621
C24 C 0.26247(10) 0.4747(2) 0.42531(9)
H37 H 0.3105 0.4682 0.4554
C25 C 0.21741(11) 0.5754(2) 0.46591(10)
H38 H 0.1678 0.5644 0.4439
H39 H 0.2313 0.6834 0.4640
H40 H 0.2248 0.5420 0.5154
N2B N 0.24176(9) 0.07440(19) 0.28922(9)
Cu1B Cu -0.349972(12) 0.75483(2) 0.330595(11)
O2 O 0.80448(8) 0.90944(18) 0.18298(8)
O3 O 0.49369(9) 0.59548(19) 0.46987(9)
O4 O 0.41759(8) 0.37868(18) 0.08613(8)
loop_
_geom_bond_atom_site_label_1
_geom_bond_atom_site_label_2
_geom_bond_site_symmetry_1
_geom_bond_site_symmetry_2
Fe1 C1 1_555 1_555
C1 N1 1_555 1_555
N1 Cu1 1_555 1_555
C2 Fe1 1_555 1_555
N2 C2 1_555 1_555
C3 Fe1 1_555 1_555
N3 C3 1_555 1_555
C4 Fe1 1_555 1_555
N4 C4 1_555 1_555
C5 Fe1 1_555 1_555
N5 C5 1_555 1_555
N6 Fe1 1_555 1_555
O1 N6 1_555 1_555
Cu1 N7 1_555 1_555
N7 H1 1_555 1_555
N8 Cu1 1_555 1_555
H2 N8 1_555 1_555
N9 Cu1 1_555 1_555
H3 N9 1_555 1_555
N10 Cu1 1_555 1_555
H4 N10 1_555 1_555
C6 N7 1_555 1_555
H5 C6 1_555 1_555
C7 C6 1_555 1_555
H6 C7 1_555 1_555
H7 C7 1_555 1_555
C8 C7 1_555 1_555
H8 C8 1_555 1_555
H9 C8 1_555 1_555
C9 C8 1_555 1_555
H10 C9 1_555 1_555
H11 C9 1_555 1_555
C10 C9 1_555 1_555
H12 C10 1_555 1_555
H13 C10 1_555 1_555
C11 N8 1_555 1_555
H14 C11 1_555 1_555
C12 N8 1_555 1_555
H15 C12 1_555 1_555
H16 C12 1_555 1_555
C13 C12 1_555 1_555
H17 C13 1_555 1_555
H18 C13 1_555 1_555
C14 N9 1_555 1_555
H19 C14 1_555 1_555
C15 C14 1_555 1_555
H20 C15 1_555 1_555
H21 C15 1_555 1_555
H22 C15 1_555 1_555
C16 N9 1_555 1_555
H23 C16 1_555 1_555
C17 C16 1_555 1_555
H24 C17 1_555 1_555
H25 C17 1_555 1_555
C18 C17 1_555 1_555
H26 C18 1_555 1_555
H27 C18 1_555 1_555
C19 C18 1_555 1_555
H28 C19 1_555 1_555
H29 C19 1_555 1_555
C20 C19 1_555 1_555
H30 C20 1_555 1_555
H31 C20 1_555 1_555
C21 N10 1_555 1_555
H32 C21 1_555 1_555
C22 N10 1_555 1_555
H33 C22 1_555 1_555
H34 C22 1_555 1_555
C23 C22 1_555 1_555
H35 C23 1_555 1_555
H36 C23 1_555 1_555
C24 N7 1_555 1_555
H37 C24 1_555 1_555
C25 C24 1_555 1_555
H38 C25 1_555 1_555
H39 C25 1_555 1_555
H40 C25 1_555 1_555
N2B Cu1 1_555 1_555
Cu1B N2 1_555 1_555
C6 C11 1_555 1_555
C10 C11 1_555 1_555
C13 C14 1_555 1_555
C16 C21 1_555 1_555
C20 C21 1_555 1_555
C23 C24 1_555 1_555

#END
