
#######################################################################
#
#                 Cambridge Crystallographic Data Centre
#                                CCDC 
#
#######################################################################
#
# If this CIF has been generated from an entry in the Cambridge 
# Structural Database, then it will include bibliographic, chemical, 
# crystal, experimental, refinement or atomic coordinate data resulting 
# from the CCDC's data processing and validation procedures.
#
#######################################################################

data_TICNEZ
_symmetry_cell_setting           monoclinic
_symmetry_space_group_name_H-M   'P 21/c'
_symmetry_Int_Tables_number      14
_space_group_name_Hall           '-P 2ybc'
loop_
_symmetry_equiv_pos_site_id
_symmetry_equiv_pos_as_xyz
1 x,y,z
2 -x,1/2+y,1/2-z
3 -x,-y,-z
4 x,1/2-y,1/2+z
_cell_length_a                   20.094(4)
_cell_length_b                   10.3923(19)
_cell_length_c                   6.5492(16)
_cell_angle_alpha                90
_cell_angle_beta                 96.994(8)
_cell_angle_gamma                90
_cell_volume                     1357.45
loop_
_atom_site_label
_atom_site_type_symbol
_atom_site_fract_x
_atom_site_fract_y
_atom_site_fract_z
K1 K -0.45105(4) -0.37871(8) -0.33097(12)
S1 S -0.37841(4) -0.46311(8) 0.16618(13)
Cl1 Cl -0.31952(5) -0.55671(9) -0.15685(14)
O1 O -0.42981(12) -0.4925(2) 0.2963(4)
O2 O -0.38187(12) -0.3349(2) 0.0768(4)
N1 N -0.38294(14) -0.5770(3) 0.0037(4)
C1 C -0.29963(16) -0.4722(3) 0.3206(5)
C2 C -0.27103(18) -0.5911(4) 0.3681(6)
H1 H -0.2920 -0.6654 0.3134
C3 C -0.21150(19) -0.5997(4) 0.4963(6)
H2 H -0.1926 -0.6804 0.5253
C4 C -0.17870(17) -0.4908(4) 0.5839(6)
C5 C -0.20945(19) -0.3730(4) 0.5339(6)
H3 H -0.1895 -0.2984 0.5907
C6 C -0.26849(18) -0.3628(4) 0.4031(6)
H4 H -0.2871 -0.2824 0.3708
C7 C -0.11434(19) -0.5002(4) 0.7332(6)
C8 C -0.0761(2) -0.6251(5) 0.7050(9)
H5 H -0.0649 -0.6296 0.5668
H6 H -0.0357 -0.6266 0.7998
H7 H -0.1036 -0.6974 0.7307
C9 C -0.0683(2) -0.3860(6) 0.7080(10)
H8 H -0.0901 -0.3079 0.7411
H9 H -0.0273 -0.3961 0.7986
H10 H -0.0585 -0.3822 0.5683
C10 C -0.1334(2) -0.4996(5) 0.9540(7)
H11 H -0.1596 -0.5746 0.9749
H12 H -0.0934 -0.4999 1.0505
H13 H -0.1592 -0.4238 0.9743
O3 O -0.53746(12) -0.2120(2) -0.1571(4)
H14 H -0.5607 -0.1708 -0.2779
H15 H -0.5768 -0.2736 -0.1128
K1C K -0.45105(4) -0.12129(8) -0.83097(12)
K1C_2 K -0.45105(4) -0.12129(8) 0.16903(12)
K1B K -0.54895(4) -0.62129(8) -0.66903(12)
K1_2 K -0.45105(4) -0.37871(8) 0.66903(12)
K1B_2 K -0.54895(4) -0.62129(8) 0.33097(12)
O1_2 O -0.42981(12) -0.4925(2) -0.7037(4)
O1B O -0.57019(12) -0.5075(2) -0.2963(4)
O2C O -0.38187(12) -0.1651(2) -0.4232(4)
O3C O -0.53746(12) -0.2880(2) -0.6571(4)
H14C H -0.5607 -0.3292 -0.7779
H15C H -0.5768 -0.2264 -0.6128
loop_
_geom_bond_atom_site_label_1
_geom_bond_atom_site_label_2
_geom_bond_site_symmetry_1
_geom_bond_site_symmetry_2
K1 Cl1 1_555 1_555
S1 O1 1_555 1_555
Cl1 N1 1_555 1_555
O1 K1_2 1_555 1_555
O2 K1 1_555 1_555
N1 S1 1_555 1_555
C1 S1 1_555 1_555
C2 C1 1_555 1_555
H1 C2 1_555 1_555
C3 C2 1_555 1_555
H2 C3 1_555 1_555
C4 C3 1_555 1_555
C5 C4 1_555 1_555
H3 C5 1_555 1_555
C6 C1 1_555 1_555
H4 C6 1_555 1_555
C7 C4 1_555 1_555
C8 C7 1_555 1_555
H5 C8 1_555 1_555
H6 C8 1_555 1_555
H7 C8 1_555 1_555
C9 C7 1_555 1_555
H8 C9 1_555 1_555
H9 C9 1_555 1_555
H10 C9 1_555 1_555
C10 C7 1_555 1_555
H11 C10 1_555 1_555
H12 C10 1_555 1_555
H13 C10 1_555 1_555
O3 K1 1_555 1_555
H14 O3 1_555 1_555
H15 O3 1_555 1_555
K1C O2C 1_555 1_555
K1C_2 O2 1_555 1_555
K1B O1_2 1_555 1_555
K1B_2 O1 1_555 1_555
O1_2 K1 1_555 1_555
O1B K1 1_555 1_555
O2C K1 1_555 1_555
O3C K1 1_555 1_555
H14C O3C 1_555 1_555
H15C O3C 1_555 1_555
S1 O2 1_555 1_555
C5 C6 1_555 1_555
O3 K1C_2 1_555 1_555
K1C O3C 1_555 1_555
K1B O1B 1_555 1_555

#END
