
#######################################################################
#
#                 Cambridge Crystallographic Data Centre
#                                CCDC 
#
#######################################################################
#
# If this CIF has been generated from an entry in the Cambridge 
# Structural Database, then it will include bibliographic, chemical, 
# crystal, experimental, refinement or atomic coordinate data resulting 
# from the CCDC's data processing and validation procedures.
#
#######################################################################

data_TICNAV
_symmetry_cell_setting           monoclinic
_symmetry_space_group_name_H-M   'P 21/c'
_symmetry_Int_Tables_number      14
_space_group_name_Hall           '-P 2ybc'
loop_
_symmetry_equiv_pos_site_id
_symmetry_equiv_pos_as_xyz
1 x,y,z
2 -x,1/2+y,1/2-z
3 -x,-y,-z
4 x,1/2-y,1/2+z
_cell_length_a                   12.497(3)
_cell_length_b                   27.434(6)
_cell_length_c                   6.4409(16)
_cell_angle_alpha                90
_cell_angle_beta                 102.607(11)
_cell_angle_gamma                90
_cell_volume                     2154.98
loop_
_atom_site_label
_atom_site_type_symbol
_atom_site_fract_x
_atom_site_fract_y
_atom_site_fract_z
K1 K -0.16351(6) 0.20740(2) -0.28188(12)
K2 K -0.64602(6) 0.20767(2) -0.24079(12)
O1 O -0.5116(2) 0.28117(10) -0.0194(4)
H1 H -0.4925 0.3007 -0.1272
H2 H -0.5812 0.2815 -0.0518
O2 O -0.02337(19) 0.22697(9) -0.5352(4)
H3 H -0.0034 0.2068 -0.6133
H4 H 0.0344 0.2422 -0.4895
S1 S -0.31650(6) 0.17380(3) 0.17954(13)
O3 O -0.2602(2) 0.17130(9) 0.0070(4)
O4 O -0.2988(2) 0.21820(8) 0.3069(4)
N1 N -0.4460(2) 0.16975(9) 0.1181(4)
Cl1 Cl -0.48472(7) 0.11808(3) -0.03945(15)
C1 C -0.2626(2) 0.12510(10) 0.3528(5)
C2 C -0.1640(3) 0.10343(13) 0.3380(6)
H5 H -0.1271 0.1132 0.2305
C3 C -0.1204(3) 0.06740(13) 0.4823(6)
H6 H -0.0534 0.0523 0.4710
C4 C -0.1709(3) 0.05265(12) 0.6420(6)
C5 C -0.2691(3) 0.07513(12) 0.6548(6)
H7 H -0.3050 0.0657 0.7642
C6 C -0.3154(3) 0.11085(11) 0.5120(5)
H8 H -0.3829 0.1256 0.5225
C7 C -0.1219(4) 0.01357(15) 0.7999(7)
H9 H -0.0522 0.0026 0.7702
H10 H -0.1727 -0.0140 0.7874
H11 H -0.1092 0.0269 0.9445
S2 S 0.19780(6) 0.17507(3) 0.21505(13)
O5 O 0.2568(2) 0.17229(9) 0.0460(4)
O6 O 0.2207(2) 0.21721(8) 0.3554(4)
N2 N 0.0684(2) 0.17596(9) 0.1437(4)
Cl2 Cl 0.02256(7) 0.12826(3) -0.03392(14)
C8 C 0.2403(2) 0.12319(10) 0.3782(5)
C9 C 0.3298(3) 0.09632(12) 0.3534(6)
H12 H 0.3662 0.1037 0.2422
C10 C 0.3662(3) 0.05827(12) 0.4934(6)
H13 H 0.4278 0.0397 0.4763
C11 C 0.3152(3) 0.04680(11) 0.6567(5)
C12 C 0.2254(3) 0.07422(12) 0.6784(6)
H14 H 0.1893 0.0669 0.7901
C13 C 0.1869(3) 0.11228(11) 0.5397(5)
H15 H 0.1247 0.1306 0.5556
C14 C 0.3578(3) 0.00661(13) 0.8124(6)
H16 H 0.3742 0.0198 0.9573
H17 H 0.4247 -0.0071 0.7801
H18 H 0.3021 -0.0190 0.8012
K1C K -0.16351(6) 0.29260(2) -0.78188(12)
K1_2 K -0.16351(6) 0.20740(2) 0.71812(12)
K1C_2 K -0.16351(6) 0.29260(2) 0.21812(12)
K2C K -0.64602(6) 0.29233(2) 0.25921(12)
K2_2 K 0.35398(6) 0.20767(2) -0.24079(12)
K2_3 K 0.35398(6) 0.20767(2) 0.75921(12)
K2C_2 K 0.35398(6) 0.29233(2) 0.25921(12)
O1C O -0.5116(2) 0.21883(10) -0.5194(4)
H1C H -0.4925 0.1993 -0.6272
H2C H -0.5812 0.2185 -0.5518
O2C O -0.02337(19) 0.27303(9) -0.0352(4)
H3C H -0.0034 0.2932 -0.1133
H4C H 0.0344 0.2578 0.0105
O4_2 O -0.2988(2) 0.21820(8) -0.6931(4)
O4C O -0.2988(2) 0.28180(8) -0.1931(4)
O5_2 O -0.7432(2) 0.17229(9) 0.0460(4)
O6_2 O -0.7793(2) 0.21721(8) -0.6446(4)
O6C O -0.7793(2) 0.28279(8) -0.1446(4)
loop_
_geom_bond_atom_site_label_1
_geom_bond_atom_site_label_2
_geom_bond_site_symmetry_1
_geom_bond_site_symmetry_2
K1 O2 1_555 1_555
K2 O1 1_555 1_555
O1 H1 1_555 1_555
H2 O1 1_555 1_555
O2 H3 1_555 1_555
H4 O2 1_555 1_555
S1 O3 1_555 1_555
O3 K1 1_555 1_555
O4 S1 1_555 1_555
N1 S1 1_555 1_555
Cl1 K2 1_555 1_555
C1 S1 1_555 1_555
C2 C1 1_555 1_555
H5 C2 1_555 1_555
C3 C2 1_555 1_555
H6 C3 1_555 1_555
C4 C3 1_555 1_555
C5 C4 1_555 1_555
H7 C5 1_555 1_555
C6 C1 1_555 1_555
H8 C6 1_555 1_555
C7 C4 1_555 1_555
H9 C7 1_555 1_555
H10 C7 1_555 1_555
H11 C7 1_555 1_555
S2 O5 1_555 1_555
O5 K2_2 1_555 1_555
O6 S2 1_555 1_555
N2 S2 1_555 1_555
Cl2 K1 1_555 1_555
C8 S2 1_555 1_555
C9 C8 1_555 1_555
H12 C9 1_555 1_555
C10 C9 1_555 1_555
H13 C10 1_555 1_555
C11 C10 1_555 1_555
C12 C11 1_555 1_555
H14 C12 1_555 1_555
C13 C8 1_555 1_555
H15 C13 1_555 1_555
C14 C11 1_555 1_555
H16 C14 1_555 1_555
H17 C14 1_555 1_555
H18 C14 1_555 1_555
K1C O2 1_555 1_555
K1_2 O4 1_555 1_555
K1C_2 O4 1_555 1_555
K2C O1 1_555 1_555
K2_3 O6 1_555 1_555
K2C_2 O6 1_555 1_555
O1C K2 1_555 1_555
H1C O1C 1_555 1_555
H2C O1C 1_555 1_555
O2C K1 1_555 1_555
H3C O2C 1_555 1_555
H4C O2C 1_555 1_555
O4_2 K1 1_555 1_555
O4C K1 1_555 1_555
O5_2 K2 1_555 1_555
O6_2 K2 1_555 1_555
O6C K2 1_555 1_555
N1 Cl1 1_555 1_555
C5 C6 1_555 1_555
N2 Cl2 1_555 1_555
C12 C13 1_555 1_555
K1C O4_2 1_555 1_555
K1C_2 O2C 1_555 1_555
K1C_2 O4C 1_555 1_555
K2C O6C 1_555 1_555

#END
