
#######################################################################
#
#                 Cambridge Crystallographic Data Centre
#                                CCDC 
#
#######################################################################
#
# If this CIF has been generated from an entry in the Cambridge 
# Structural Database, then it will include bibliographic, chemical, 
# crystal, experimental, refinement or atomic coordinate data resulting 
# from the CCDC's data processing and validation procedures.
#
#######################################################################

data_TICPUR
_symmetry_cell_setting           monoclinic
_symmetry_space_group_name_H-M   'C 2/c'
_symmetry_Int_Tables_number      15
_space_group_name_Hall           '-C 2yn'
loop_
_symmetry_equiv_pos_site_id
_symmetry_equiv_pos_as_xyz
1 x,y,z
2 1/2+x,1/2+y,z
3 -x,y,1/2-z
4 1/2-x,1/2+y,1/2-z
5 -x,-y,-z
6 1/2-x,1/2-y,-z
7 x,-y,1/2+z
8 1/2+x,1/2-y,1/2+z
_cell_length_a                   31.6791(18)
_cell_length_b                   22.1307(18)
_cell_length_c                   29.632(2)
_cell_angle_alpha                90
_cell_angle_beta                 119.855(2)
_cell_angle_gamma                90
_cell_volume                     18017.4
loop_
_atom_site_label
_atom_site_type_symbol
_atom_site_fract_x
_atom_site_fract_y
_atom_site_fract_z
Co1 Co 0.742308(16) 0.875929(19) 0.248248(17)
Co2 Co 0.798907(16) 0.71572(2) 0.030596(17)
Co3 Co 0.564022(16) 1.04056(2) 0.395114(18)
Co4 Co 0.972540(18) 1.03765(2) 0.52367(2)
C1 C 0.67671(14) 0.87508(15) 0.22191(14)
O1 O 0.63581(10) 0.87463(12) 0.20569(13)
C2 C 0.78201(14) 0.87842(15) 0.31797(14)
O2 O 0.80769(11) 0.88083(11) 0.36202(10)
C3 C 0.76371(13) 0.87387(15) 0.20197(14)
O3 O 0.77562(11) 0.87123(12) 0.17100(12)
P1 P 0.74409(3) 0.97724(4) 0.24721(3)
C4 C 0.80451(5) 1.00834(9) 0.29407(7)
C5 C 0.84495(7) 0.98709(9) 0.29229(7)
H1 H 0.8412 0.9571 0.2676
C6 C 0.89092(6) 1.00975(10) 0.32661(8)
H2 H 0.9186 0.9952 0.3254
C7 C 0.89646(6) 1.05365(9) 0.36271(7)
C8 C 0.85603(7) 1.07489(9) 0.36449(7)
H3 H 0.8598 1.1049 0.3892
C9 C 0.81005(6) 1.05224(9) 0.33017(8)
H4 H 0.7824 1.0668 0.3314
P2 P 0.95831(3) 1.08232(4) 0.40966(3)
O4 O 0.98045(8) 1.03913(10) 0.45678(8)
O5 O 0.95155(9) 1.14562(10) 0.42596(9)
O6 O 0.98796(8) 1.08124(10) 0.38182(9)
C10 C 0.72933(7) 1.00760(9) 0.18310(6)
C11 C 0.75624(6) 1.05465(9) 0.17890(6)
H5 H 0.7842 1.0694 0.2091
C12 C 0.74218(7) 1.08014(8) 0.13058(8)
H6 H 0.7606 1.1123 0.1277
C13 C 0.70121(8) 1.05858(9) 0.08645(6)
C14 C 0.67429(7) 1.01154(10) 0.09066(6)
H7 H 0.6463 0.9968 0.0605
C15 C 0.68835(7) 0.98604(9) 0.13898(7)
H8 H 0.6700 0.9539 0.1419
P3 P 0.68067(3) 1.09380(4) 0.02192(3)
O7 O 0.69723(9) 1.05052(10) -0.00692(9)
O8 O 0.62478(9) 1.09661(10) -0.00526(9)
O9 O 0.70406(10) 1.15642(10) 0.03151(9)
C16 C 0.70043(6) 1.01232(9) 0.26365(7)
C17 C 0.69940(7) 0.99299(9) 0.30772(7)
H9 H 0.7224 0.9640 0.3303
C18 C 0.66474(8) 1.01600(10) 0.31881(7)
H10 H 0.6640 1.0028 0.3489
C19 C 0.63110(7) 1.05834(9) 0.28582(8)
C20 C 0.63213(7) 1.07767(9) 0.24174(8)
H11 H 0.6091 1.1066 0.2192
C21 C 0.66679(7) 1.05466(10) 0.23065(7)
H12 H 0.6675 1.0679 0.2005
P4 P 0.58556(3) 1.08719(4) 0.30188(3)
O10 O 0.57648(9) 1.03855(10) 0.33249(9)
O11 O 0.60489(8) 1.14616(10) 0.33136(9)
O12 O 0.53858(8) 1.09873(12) 0.24811(9)
P5 P 0.74507(3) 0.77486(4) 0.25143(3)
C22 C 0.80614(6) 0.74628(9) 0.29989(7)
C23 C 0.81147(6) 0.69362(8) 0.32780(8)
H13 H 0.7835 0.6727 0.3235
C24 C 0.85770(7) 0.67152(7) 0.36194(8)
H14 H 0.8613 0.6355 0.3810
C25 C 0.89859(6) 0.70209(9) 0.36817(8)
C26 C 0.89326(6) 0.75475(9) 0.34026(9)
H15 H 0.9212 0.7756 0.3445
C27 C 0.84704(7) 0.77685(8) 0.30611(8)
H16 H 0.8434 0.8128 0.2870
P6 P 0.96112(3) 0.67434(4) 0.41349(4)
O13 O 0.97605(9) 0.70142(10) 0.46656(9)
O14 O 0.99233(9) 0.69725(11) 0.39068(10)
O15 O 0.95915(9) 0.60486(10) 0.41339(10)
C28 C 0.73129(7) 0.73845(9) 0.18944(6)
C29 C 0.68907(6) 0.75382(9) 0.14381(7)
H17 H 0.6668 0.7818 0.1448
C30 C 0.67943(6) 0.72821(9) 0.09679(6)
H18 H 0.6506 0.7387 0.0656
C31 C 0.71200(7) 0.68722(9) 0.09540(6)
C32 C 0.75423(7) 0.67184(9) 0.14102(8)
H19 H 0.7765 0.6438 0.1401
C33 C 0.76387(6) 0.69746(9) 0.18804(6)
H20 H 0.7927 0.6869 0.2192
P7 P 0.70269(3) 0.65782(4) 0.03270(3)
O16 O 0.73048(8) 0.59814(10) 0.04453(9)
O17 O 0.72627(8) 0.70513(10) 0.01367(9)
O18 O 0.64790(8) 0.65299(10) -0.00501(9)
C34 C 0.70258(7) 0.73998(9) 0.26946(8)
C35 C 0.67491(8) 0.69014(9) 0.24224(7)
H21 H 0.6748 0.6769 0.2117
C36 C 0.64740(8) 0.65966(8) 0.25972(8)
H22 H 0.6285 0.6256 0.2411
C37 C 0.64756(8) 0.67904(10) 0.30442(9)
C38 C 0.67523(9) 0.72889(11) 0.33165(8)
H23 H 0.6753 0.7421 0.3622
C39 C 0.70274(8) 0.75936(9) 0.31417(8)
H24 H 0.7217 0.7934 0.3328
P8 P 0.61446(5) 0.63692(5) 0.33088(5)
O19 O 0.60127(15) 0.57439(15) 0.30122(16)
O20 O 0.64867(17) 0.62608(17) 0.38825(15)
O21 O 0.56981(12) 0.67166(16) 0.31841(15)
H25 H 0.5689 0.7033 0.3023
O22 O 0.82011(7) 0.63489(10) 0.07345(8)
H26 H 0.7947(3) 0.6200(12) 0.0726(8)
H27 H 0.8421(6) 0.6325(15) 0.1057(3)
O23 O 0.78092(8) 0.66278(10) -0.03786(9)
H28 H 0.7703(6) 0.6279(5) -0.0354(13)
H29 H 0.8099(3) 0.6551(12) -0.0318(9)
O24 O 0.81108(9) 0.76770(11) 0.09618(9)
H30 H 0.8356(4) 0.7876(10) 0.1194(11)
H31 H 0.7857(3) 0.7889(9) 0.0886(14)
O25 O 0.86935(9) 0.73048(11) 0.04569(12)
H32 H 0.8763(8) 0.7664(5) 0.0404(14)
H33 H 0.8899(4) 0.7065(9) 0.0440(11)
O26 O 0.56519(8) 1.13706(11) 0.39547(10)
H34 H 0.5745(4) 1.1518(15) 0.3750(6)
H35 H 0.5375(3) 1.1541(8) 0.3854(10)
O27 O 0.63672(8) 1.04480(9) 0.45301(9)
H36 H 0.6537(4) 1.0716(8) 0.4481(10)
H37 H 0.6552(5) 1.0137(5) 0.4654(12)
O28 O 0.56847(8) 0.94574(10) 0.39844(9)
H38 H 0.5403(3) 0.9289(8) 0.3827(11)
H39 H 0.5824(11) 0.9300(9) 0.4290(3)
O29 O 0.54795(9) 1.05023(11) 0.45714(10)
H40 H 0.5478(8) 1.0180(7) 0.4733(9)
H41 H 0.5196(3) 1.0656(8) 0.4462(12)
O30 O 0.48803(10) 1.03916(12) 0.34592(11)
H42 H 0.4906(8) 1.0126(10) 0.3262(8)
H43 H 0.4803(16) 1.0694(6) 0.3250(7)
O31 O 0.93297(8) 1.12147(11) 0.50387(9)
H44 H 0.9308(6) 1.1368(14) 0.4762(5)
H45 H 0.9037(2) 1.1244(16) 0.4983(7)
O32 O 0.96694(11) 1.02819(12) 0.59083(12)
H46 H 0.9439(3) 1.0403(14) 0.5961(8)
H47 H 0.9636(13) 0.9898(3) 0.5924(19)
O33 O 1.04037(9) 1.08841(11) 0.56710(11)
H48 H 1.0387(10) 1.1231(6) 0.5533(10)
H49 H 1.0679(3) 1.0750(11) 0.5722(10)
O34 O 0.90944(10) 0.97956(11) 0.47956(11)
H50 H 0.8988(14) 0.9612(9) 0.4503(5)
H51 H 0.9107(9) 0.9510(8) 0.4999(7)
Co1D Co 1.257692(16) 1.124071(19) 0.751752(17)
Co1E Co 0.757692(16) 0.624071(19) -0.248248(17)
Co2E Co 0.701093(16) 0.78428(2) -0.030596(17)
Co3D Co 1.435978(16) 0.95944(2) 0.604886(18)
Co4D Co 1.027460(18) 0.96235(2) 0.47633(2)
C1D C 1.32329(14) 1.12492(15) 0.77809(14)
O1D O 1.36419(10) 1.12537(12) 0.79431(13)
C2D C 1.21799(14) 1.12158(15) 0.68203(14)
O2D O 1.19231(11) 1.11917(11) 0.63798(10)
C3D C 1.23629(13) 1.12613(15) 0.79803(14)
O3D O 1.22438(11) 1.12877(12) 0.82900(12)
P1D P 1.25591(3) 1.02276(4) 0.75279(3)
C4D C 1.19549(5) 0.99166(9) 0.70593(7)
C5D C 1.15505(7) 1.01291(9) 0.70771(7)
H1D H 1.1588 1.0429 0.7324
C6D C 1.10908(6) 0.99025(10) 0.67339(8)
H2D H 1.0814 1.0048 0.6746
C7D C 1.10354(6) 0.94635(9) 0.63729(7)
C8D C 1.14397(7) 0.92511(9) 0.63551(7)
H3D H 1.1402 0.8951 0.6108
C9D C 1.18995(6) 0.94776(9) 0.66983(8)
H4D H 1.2176 0.9332 0.6686
P2D P 1.04169(3) 0.91768(4) 0.59034(3)
O4D O 1.01955(8) 0.96087(10) 0.54322(8)
O5D O 1.04845(9) 0.85438(10) 0.57404(9)
O6D O 1.01204(8) 0.91876(10) 0.61818(9)
C10D C 1.27067(7) 0.99240(9) 0.81690(6)
C11D C 1.24376(6) 0.94535(9) 0.82110(6)
H5D H 1.2158 0.9306 0.7909
C12D C 1.25782(7) 0.91986(8) 0.86942(8)
H6D H 1.2394 0.8877 0.8723
C13D C 1.29879(8) 0.94142(9) 0.91355(6)
C14D C 1.32571(7) 0.98846(10) 0.90934(6)
H7D H 1.3537 1.0032 0.9395
C15D C 1.31165(7) 1.01396(9) 0.86102(7)
H8D H 1.3300 1.0461 0.8581
P3D P 1.31933(3) 0.90620(4) 0.97808(3)
O7D O 1.30277(9) 0.94948(10) 1.00692(9)
O8D O 1.37522(9) 0.90339(10) 1.00526(9)
O9D O 1.29594(10) 0.84358(10) 0.96849(9)
C16D C 1.29957(6) 0.98768(9) 0.73635(7)
C17D C 1.30060(7) 1.00701(9) 0.69228(7)
H9D H 1.2776 1.0360 0.6697
C18D C 1.33526(8) 0.98400(10) 0.68119(7)
H10D H 1.3360 0.9972 0.6511
C19D C 1.36890(7) 0.94166(9) 0.71418(8)
C20D C 1.36787(7) 0.92233(9) 0.75826(8)
H11D H 1.3909 0.8934 0.7808
C21D C 1.33321(7) 0.94534(10) 0.76935(7)
H12D H 1.3325 0.9321 0.7995
P4D P 1.41444(3) 0.91281(4) 0.69812(3)
O10D O 1.42352(9) 0.96145(10) 0.66751(9)
O11D O 1.39511(8) 0.85384(10) 0.66864(9)
O12D O 1.46142(8) 0.90127(12) 0.75189(9)
P5E P 0.75493(3) 0.72514(4) -0.25143(3)
P5D P 1.25493(3) 1.22514(4) 0.74857(3)
C22E C 0.69386(6) 0.75372(9) -0.29989(7)
C23E C 0.68853(6) 0.80638(8) -0.32780(8)
H13E H 0.7165 0.8273 -0.3235
C24E C 0.64230(7) 0.82848(7) -0.36194(8)
H14E H 0.6387 0.8645 -0.3810
C25E C 0.60141(6) 0.79791(9) -0.36817(8)
C26E C 0.60674(6) 0.74525(9) -0.34026(9)
H15E H 0.5788 0.7244 -0.3445
C27E C 0.65296(7) 0.72315(8) -0.30611(8)
H16E H 0.6566 0.6872 -0.2870
P6E P 0.53888(3) 0.82566(4) -0.41349(4)
O13E O 0.52395(9) 0.79858(10) -0.46656(9)
O14E O 0.50767(9) 0.80275(11) -0.39068(10)
O15E O 0.54085(9) 0.89514(10) -0.41339(10)
C28E C 0.76871(7) 0.76155(9) -0.18944(6)
C29E C 0.81093(6) 0.74618(9) -0.14381(7)
H17E H 0.8332 0.7182 -0.1448
C30E C 0.82057(6) 0.77179(9) -0.09679(6)
H18E H 0.8494 0.7613 -0.0656
C31E C 0.78800(7) 0.81278(9) -0.09540(6)
C32E C 0.74577(7) 0.82816(9) -0.14102(8)
H19E H 0.7235 0.8562 -0.1401
C33E C 0.73613(6) 0.80254(9) -0.18804(6)
H20E H 0.7073 0.8131 -0.2192
P7E P 0.79731(3) 0.84218(4) -0.03270(3)
O16E O 0.76952(8) 0.90186(10) -0.04453(9)
O17E O 0.77373(8) 0.79487(10) -0.01367(9)
O18E O 0.85210(8) 0.84701(10) 0.00501(9)
C34E C 0.79742(7) 0.76002(9) -0.26946(8)
C35E C 0.82509(8) 0.80986(9) -0.24224(7)
H21E H 0.8252 0.8231 -0.2117
C36E C 0.85260(8) 0.84034(8) -0.25972(8)
H22E H 0.8715 0.8744 -0.2411
C37E C 0.85244(8) 0.82096(10) -0.30442(9)
C38E C 0.82477(9) 0.77111(11) -0.33165(8)
H23E H 0.8247 0.7579 -0.3622
C39E C 0.79726(8) 0.74064(9) -0.31417(8)
H24E H 0.7783 0.7066 -0.3328
P8E P 0.88554(5) 0.86308(5) -0.33088(5)
O19E O 0.89873(15) 0.92561(15) -0.30122(16)
O20E O 0.85133(17) 0.87392(17) -0.38825(15)
O21E O 0.93019(12) 0.82834(16) -0.31841(15)
H25E H 0.9311 0.7967 -0.3023
O22E O 0.67989(7) 0.86511(10) -0.07345(8)
H26E H 0.7053(3) 0.8800(12) -0.0726(8)
H27E H 0.6579(6) 0.8675(15) -0.1057(3)
O23E O 0.71908(8) 0.83722(10) 0.03786(9)
H28E H 0.7297(6) 0.8721(5) 0.0354(13)
H29E H 0.6901(3) 0.8449(12) 0.0318(9)
O24E O 0.68892(9) 0.73230(11) -0.09618(9)
H30E H 0.6644(4) 0.7124(10) -0.1194(11)
H31E H 0.7143(3) 0.7111(9) -0.0886(14)
O25E O 0.63065(9) 0.76952(11) -0.04569(12)
H32E H 0.6237(8) 0.7336(5) -0.0404(14)
H33E H 0.6101(4) 0.7935(9) -0.0440(11)
O26D O 1.43481(8) 0.86294(11) 0.60453(10)
H34D H 1.4255(4) 0.8482(15) 0.6250(6)
H35D H 1.4625(3) 0.8459(8) 0.6146(10)
O27D O 1.36328(8) 0.95520(9) 0.54699(9)
H36D H 1.3463(4) 0.9284(8) 0.5519(10)
H37D H 1.3448(5) 0.9863(5) 0.5346(12)
O28D O 1.43153(8) 1.05426(10) 0.60156(9)
H38D H 1.4597(3) 1.0711(8) 0.6173(11)
H39D H 1.4176(11) 1.0700(9) 0.5710(3)
O29D O 1.45205(9) 0.94977(11) 0.54286(10)
H40D H 1.4522(8) 0.9820(7) 0.5267(9)
H41D H 1.4804(3) 0.9344(8) 0.5538(12)
O30D O 1.51197(10) 0.96084(12) 0.65408(11)
H42D H 1.5094(8) 0.9874(10) 0.6738(8)
H43D H 1.5197(16) 0.9306(6) 0.6750(7)
O31D O 1.06703(8) 0.87853(11) 0.49613(9)
H44D H 1.0692(6) 0.8632(14) 0.5238(5)
H45D H 1.0963(2) 0.8756(16) 0.5017(7)
O32D O 1.03306(11) 0.97181(12) 0.40917(12)
H46D H 1.0561(3) 0.9597(14) 0.4039(8)
H47D H 1.0364(13) 1.0102(3) 0.4076(19)
O33D O 0.95963(9) 0.91159(11) 0.43290(11)
H48D H 0.9613(10) 0.8769(6) 0.4467(10)
H49D H 0.9321(3) 0.9250(11) 0.4278(10)
O34D O 1.09056(10) 1.02044(11) 0.52044(11)
H50D H 1.1012(14) 1.0388(9) 0.5497(5)
H51D H 1.0893(9) 1.0490(8) 0.5001(7)
O35 O 0.5000 0.6725(3) 0.2500
H52 H 0.52881(10) 0.673(5) 0.2540(3)
H52B H 0.47119(10) 0.673(5) 0.2460(3)
O36 O 0.56222(10) 0.95600(14) 0.52203(16)
H54 H 0.5614(7) 0.9323(11) 0.5446(8)
H55 H 0.5797(5) 0.9363(12) 0.5122(8)
H53? H 0.4817(6) 0.667(2) 0.2170(3)
loop_
_geom_bond_atom_site_label_1
_geom_bond_atom_site_label_2
_geom_bond_site_symmetry_1
_geom_bond_site_symmetry_2
Co1 C1 1_555 1_555
Co2 O17 1_555 1_555
Co3 O10 1_555 1_555
Co4 O4 1_555 1_555
C1 O1 1_555 1_555
C2 Co1 1_555 1_555
O2 C2 1_555 1_555
C3 Co1 1_555 1_555
O3 C3 1_555 1_555
P1 Co1 1_555 1_555
C4 P1 1_555 1_555
C5 C4 1_555 1_555
H1 C5 1_555 1_555
C6 C5 1_555 1_555
H2 C6 1_555 1_555
C7 C6 1_555 1_555
C8 C7 1_555 1_555
H3 C8 1_555 1_555
C9 C4 1_555 1_555
H4 C9 1_555 1_555
P2 C7 1_555 1_555
O4 P2 1_555 1_555
O5 P2 1_555 1_555
O6 P2 1_555 1_555
C10 P1 1_555 1_555
C11 C10 1_555 1_555
H5 C11 1_555 1_555
C12 C11 1_555 1_555
H6 C12 1_555 1_555
C13 C12 1_555 1_555
C14 C13 1_555 1_555
H7 C14 1_555 1_555
C15 C10 1_555 1_555
H8 C15 1_555 1_555
P3 C13 1_555 1_555
O7 P3 1_555 1_555
O8 P3 1_555 1_555
O9 P3 1_555 1_555
C16 P1 1_555 1_555
C17 C16 1_555 1_555
H9 C17 1_555 1_555
C18 C17 1_555 1_555
H10 C18 1_555 1_555
C19 C18 1_555 1_555
C20 C19 1_555 1_555
H11 C20 1_555 1_555
C21 C16 1_555 1_555
H12 C21 1_555 1_555
P4 C19 1_555 1_555
O10 P4 1_555 1_555
O11 P4 1_555 1_555
O12 P4 1_555 1_555
P5 Co1 1_555 1_555
C22 P5 1_555 1_555
C23 C22 1_555 1_555
H13 C23 1_555 1_555
C24 C23 1_555 1_555
H14 C24 1_555 1_555
C25 C24 1_555 1_555
C26 C25 1_555 1_555
H15 C26 1_555 1_555
C27 C22 1_555 1_555
H16 C27 1_555 1_555
P6 C25 1_555 1_555
O13 P6 1_555 1_555
O14 P6 1_555 1_555
O15 P6 1_555 1_555
C28 P5 1_555 1_555
C29 C28 1_555 1_555
H17 C29 1_555 1_555
C30 C29 1_555 1_555
H18 C30 1_555 1_555
C31 C30 1_555 1_555
C32 C31 1_555 1_555
H19 C32 1_555 1_555
C33 C28 1_555 1_555
H20 C33 1_555 1_555
P7 C31 1_555 1_555
O16 P7 1_555 1_555
O17 P7 1_555 1_555
O18 P7 1_555 1_555
C34 P5 1_555 1_555
C35 C34 1_555 1_555
H21 C35 1_555 1_555
C36 C35 1_555 1_555
H22 C36 1_555 1_555
C37 C36 1_555 1_555
C38 C37 1_555 1_555
H23 C38 1_555 1_555
C39 C34 1_555 1_555
H24 C39 1_555 1_555
P8 C37 1_555 1_555
O19 P8 1_555 1_555
O20 P8 1_555 1_555
O21 P8 1_555 1_555
H25 O21 1_555 1_555
O22 Co2 1_555 1_555
H26 O22 1_555 1_555
H27 O22 1_555 1_555
O23 Co2 1_555 1_555
H28 O23 1_555 1_555
H29 O23 1_555 1_555
O24 Co2 1_555 1_555
H30 O24 1_555 1_555
H31 O24 1_555 1_555
O25 Co2 1_555 1_555
H32 O25 1_555 1_555
H33 O25 1_555 1_555
O26 Co3 1_555 1_555
H34 O26 1_555 1_555
H35 O26 1_555 1_555
O27 Co3 1_555 1_555
H36 O27 1_555 1_555
H37 O27 1_555 1_555
O28 Co3 1_555 1_555
H38 O28 1_555 1_555
H39 O28 1_555 1_555
O29 Co3 1_555 1_555
H40 O29 1_555 1_555
H41 O29 1_555 1_555
O30 Co3 1_555 1_555
H42 O30 1_555 1_555
H43 O30 1_555 1_555
O31 Co4 1_555 1_555
H44 O31 1_555 1_555
H45 O31 1_555 1_555
O32 Co4 1_555 1_555
H46 O32 1_555 1_555
H47 O32 1_555 1_555
O33 Co4 1_555 1_555
H48 O33 1_555 1_555
H49 O33 1_555 1_555
O34 Co4 1_555 1_555
H50 O34 1_555 1_555
H51 O34 1_555 1_555
O35 H52 1_555 1_555
O36 H54 1_555 1_555
H55 O36 1_555 1_555
Co1D C1D 1_555 1_555
Co1E P5E 1_555 1_555
Co2E O17 1_555 1_555
Co3D O10D 1_555 1_555
Co4D O4 1_555 1_555
C1D O1D 1_555 1_555
C2D Co1D 1_555 1_555
O2D C2D 1_555 1_555
C3D Co1D 1_555 1_555
O3D C3D 1_555 1_555
P1D Co1D 1_555 1_555
C4D P1D 1_555 1_555
C5D C4D 1_555 1_555
H1D C5D 1_555 1_555
C6D C5D 1_555 1_555
H2D C6D 1_555 1_555
C7D C6D 1_555 1_555
C8D C7D 1_555 1_555
H3D C8D 1_555 1_555
C9D C4D 1_555 1_555
H4D C9D 1_555 1_555
P2D C7D 1_555 1_555
O4D Co4 1_555 1_555
O5D P2D 1_555 1_555
O6D P2D 1_555 1_555
C10D P1D 1_555 1_555
C11D C10D 1_555 1_555
H5D C11D 1_555 1_555
C12D C11D 1_555 1_555
H6D C12D 1_555 1_555
C13D C12D 1_555 1_555
C14D C13D 1_555 1_555
H7D C14D 1_555 1_555
C15D C10D 1_555 1_555
H8D C15D 1_555 1_555
P3D C13D 1_555 1_555
O7D P3D 1_555 1_555
O8D P3D 1_555 1_555
O9D P3D 1_555 1_555
C16D P1D 1_555 1_555
C17D C16D 1_555 1_555
H9D C17D 1_555 1_555
C18D C17D 1_555 1_555
H10D C18D 1_555 1_555
C19D C18D 1_555 1_555
C20D C19D 1_555 1_555
H11D C20D 1_555 1_555
C21D C16D 1_555 1_555
H12D C21D 1_555 1_555
P4D C19D 1_555 1_555
O10D P4D 1_555 1_555
O11D P4D 1_555 1_555
O12D P4D 1_555 1_555
P5E C22E 1_555 1_555
P5D Co1D 1_555 1_555
C22E C23E 1_555 1_555
C23E H13E 1_555 1_555
C24E C23E 1_555 1_555
H14E C24E 1_555 1_555
C25E C24E 1_555 1_555
C26E C25E 1_555 1_555
H15E C26E 1_555 1_555
C27E C22E 1_555 1_555
H16E C27E 1_555 1_555
P6E C25E 1_555 1_555
O13E P6E 1_555 1_555
O14E P6E 1_555 1_555
O15E P6E 1_555 1_555
C28E P5E 1_555 1_555
C29E C28E 1_555 1_555
H17E C29E 1_555 1_555
C30E C29E 1_555 1_555
H18E C30E 1_555 1_555
C31E C30E 1_555 1_555
C32E C31E 1_555 1_555
H19E C32E 1_555 1_555
C33E C28E 1_555 1_555
H20E C33E 1_555 1_555
P7E C31E 1_555 1_555
O16E P7E 1_555 1_555
O17E Co2 1_555 1_555
O18E P7E 1_555 1_555
C34E P5E 1_555 1_555
C35E C34E 1_555 1_555
H21E C35E 1_555 1_555
C36E C35E 1_555 1_555
H22E C36E 1_555 1_555
C37E C36E 1_555 1_555
C38E C37E 1_555 1_555
H23E C38E 1_555 1_555
C39E C34E 1_555 1_555
H24E C39E 1_555 1_555
P8E C37E 1_555 1_555
O19E P8E 1_555 1_555
O20E P8E 1_555 1_555
O21E P8E 1_555 1_555
H25E O21E 1_555 1_555
O22E Co2E 1_555 1_555
H26E O22E 1_555 1_555
H27E O22E 1_555 1_555
O23E Co2E 1_555 1_555
H28E O23E 1_555 1_555
H29E O23E 1_555 1_555
O24E Co2E 1_555 1_555
H30E O24E 1_555 1_555
H31E O24E 1_555 1_555
O25E Co2E 1_555 1_555
H32E O25E 1_555 1_555
H33E O25E 1_555 1_555
O26D Co3D 1_555 1_555
H34D O26D 1_555 1_555
H35D O26D 1_555 1_555
O27D Co3D 1_555 1_555
H36D O27D 1_555 1_555
H37D O27D 1_555 1_555
O28D Co3D 1_555 1_555
H38D O28D 1_555 1_555
H39D O28D 1_555 1_555
O29D Co3D 1_555 1_555
H40D O29D 1_555 1_555
H41D O29D 1_555 1_555
O30D Co3D 1_555 1_555
H42D O30D 1_555 1_555
H43D O30D 1_555 1_555
O31D Co4D 1_555 1_555
H44D O31D 1_555 1_555
H45D O31D 1_555 1_555
O32D Co4D 1_555 1_555
H46D O32D 1_555 1_555
H47D O32D 1_555 1_555
O33D Co4D 1_555 1_555
H48D O33D 1_555 1_555
H49D O33D 1_555 1_555
O34D Co4D 1_555 1_555
H50D O34D 1_555 1_555
H51D O34D 1_555 1_555
H52B O35 1_555 1_555
C8 C9 1_555 1_555
C14 C15 1_555 1_555
C20 C21 1_555 1_555
C26 C27 1_555 1_555
C32 C33 1_555 1_555
C38 C39 1_555 1_555
Co2E O17E 1_555 1_555
Co4D O4D 1_555 1_555
C8D C9D 1_555 1_555
P2D O4D 1_555 1_555
C14D C15D 1_555 1_555
C20D C21D 1_555 1_555
C26E C27E 1_555 1_555
C32E C33E 1_555 1_555
P7E O17E 1_555 1_555
C38E C39E 1_555 1_555

#END
