
#######################################################################
#
#                 Cambridge Crystallographic Data Centre
#                                CCDC 
#
#######################################################################
#
# If this CIF has been generated from an entry in the Cambridge 
# Structural Database, then it will include bibliographic, chemical, 
# crystal, experimental, refinement or atomic coordinate data resulting 
# from the CCDC's data processing and validation procedures.
#
#######################################################################

data_TICSEF
_symmetry_cell_setting           monoclinic
_symmetry_space_group_name_H-M   'C 2/c'
_symmetry_Int_Tables_number      15
_space_group_name_Hall           '-C 2yn'
loop_
_symmetry_equiv_pos_site_id
_symmetry_equiv_pos_as_xyz
1 x,y,z
2 -x,y,1/2-z
3 1/2+x,1/2+y,z
4 1/2-x,1/2+y,1/2-z
5 -x,-y,-z
6 x,-y,1/2+z
7 1/2-x,1/2-y,-z
8 1/2+x,1/2-y,1/2+z
_cell_length_a                   37.133(5)
_cell_length_b                   6.254(5)
_cell_length_c                   8.897(5)
_cell_angle_alpha                90
_cell_angle_beta                 99.706(5)
_cell_angle_gamma                90
_cell_volume                     2036.57
loop_
_atom_site_label
_atom_site_type_symbol
_atom_site_fract_x
_atom_site_fract_y
_atom_site_fract_z
Mn1 Mn 0.2500 0.2500 0.5000
O1 O 0.29452(4) 0.1546(2) 0.67265(16)
O2 O 0.27009(4) -0.0710(2) 0.81919(16)
O3 O 0.21999(5) -0.0371(3) 0.55897(19)
H1 H 0.2310 -0.0559 0.6482
H2 H 0.2323 -0.1196 0.5128
C1 C 0.29666(5) 0.0358(3) 0.7874(2)
C2 C 0.33348(5) 0.0212(3) 0.8902(2)
H3 H 0.3297 0.0012 0.9945
H4 H 0.3463 0.1554 0.8855
C3 C 0.35724(5) -0.1592(3) 0.8484(2)
C4 C 0.34360(6) -0.3166(4) 0.7470(2)
H5 H 0.3191 -0.3122 0.7018
C5 C 0.36576(6) -0.4845(4) 0.7099(3)
H6 H 0.3558 -0.5889 0.6407
C6 C 0.40145(7) -0.4954(4) 0.7742(3)
H7 H 0.4158 -0.6072 0.7489
C7 C 0.41704(6) -0.3375(4) 0.8796(3)
C8 C 0.39484(5) -0.1669(4) 0.9182(2)
C9 C 0.41127(6) -0.0131(4) 1.0249(3)
H8 H 0.3972 0.0989 1.0521
C10 C 0.44720(6) -0.0256(4) 1.0885(3)
H9 H 0.4573 0.0773 1.1585
C11 C 0.46909(7) -0.1928(5) 1.0492(3)
H10 H 0.4937 -0.1994 1.0919
C12 C 0.45420(6) -0.3446(5) 0.9486(3)
H11 H 0.4688 -0.4560 0.9246
O1F O 0.20548(4) 0.3454(2) 0.32735(16)
O2F O 0.22991(4) 0.5710(2) 0.18081(16)
O3F O 0.28001(5) 0.5371(3) 0.44103(19)
H1F H 0.2690 0.5559 0.3518
H2F H 0.2677 0.6196 0.4872
C1F C 0.20334(5) 0.4642(3) 0.2126(2)
C2F C 0.16652(5) 0.4788(3) 0.1098(2)
H3F H 0.1703 0.4988 0.0055
H4F H 0.1537 0.3446 0.1145
C3F C 0.14276(5) 0.6592(3) 0.1516(2)
C4F C 0.15640(6) 0.8166(4) 0.2530(2)
H5F H 0.1809 0.8122 0.2982
C5F C 0.13424(6) 0.9845(4) 0.2901(3)
H6F H 0.1442 1.0889 0.3593
C6F C 0.09855(7) 0.9954(4) 0.2258(3)
H7F H 0.0842 1.1072 0.2511
C7F C 0.08296(6) 0.8375(4) 0.1204(3)
C8F C 0.10516(5) 0.6669(4) 0.0818(2)
C9F C 0.08873(6) 0.5131(4) -0.0249(3)
H8F H 0.1028 0.4011 -0.0521
C10F C 0.05280(6) 0.5256(4) -0.0885(3)
H9F H 0.0427 0.4227 -0.1585
C11F C 0.03091(7) 0.6928(5) -0.0492(3)
H10F H 0.0063 0.6994 -0.0919
C12F C 0.04580(6) 0.8446(5) 0.0514(3)
H11F H 0.0312 0.9560 0.0754
Mn1C Mn 0.2500 -0.2500 1.0000
Mn1C_2 Mn 0.2500 0.7500 0.0000
O2C O 0.22991(4) 0.4290(2) 0.68081(16)
O2E O 0.27009(4) 0.0710(2) 0.31919(16)
loop_
_geom_bond_atom_site_label_1
_geom_bond_atom_site_label_2
_geom_bond_site_symmetry_1
_geom_bond_site_symmetry_2
Mn1 O1 1_555 1_555
O1 C1 1_555 1_555
O2 C1 1_555 1_555
O3 Mn1 1_555 1_555
H1 O3 1_555 1_555
H2 O3 1_555 1_555
C1 C2 1_555 1_555
C2 H3 1_555 1_555
H4 C2 1_555 1_555
C3 C2 1_555 1_555
C4 C3 1_555 1_555
H5 C4 1_555 1_555
C5 C4 1_555 1_555
H6 C5 1_555 1_555
C6 C5 1_555 1_555
H7 C6 1_555 1_555
C7 C6 1_555 1_555
C8 C3 1_555 1_555
C9 C8 1_555 1_555
H8 C9 1_555 1_555
C10 C9 1_555 1_555
H9 C10 1_555 1_555
C11 C10 1_555 1_555
H10 C11 1_555 1_555
C12 C7 1_555 1_555
H11 C12 1_555 1_555
O1F Mn1 1_555 1_555
O2F C1F 1_555 1_555
O3F Mn1 1_555 1_555
H1F O3F 1_555 1_555
H2F O3F 1_555 1_555
C1F O1F 1_555 1_555
C2F C1F 1_555 1_555
H3F C2F 1_555 1_555
H4F C2F 1_555 1_555
C3F C2F 1_555 1_555
C4F C3F 1_555 1_555
H5F C4F 1_555 1_555
C5F C4F 1_555 1_555
H6F C5F 1_555 1_555
C6F C5F 1_555 1_555
H7F C6F 1_555 1_555
C7F C6F 1_555 1_555
C8F C3F 1_555 1_555
C9F C8F 1_555 1_555
H8F C9F 1_555 1_555
C10F C9F 1_555 1_555
H9F C10F 1_555 1_555
C11F C10F 1_555 1_555
H10F C11F 1_555 1_555
C12F C7F 1_555 1_555
H11F C12F 1_555 1_555
Mn1C O2 1_555 1_555
Mn1C_2 O2F 1_555 1_555
O2C Mn1 1_555 1_555
O2E Mn1 1_555 1_555
C7 C8 1_555 1_555
C11 C12 1_555 1_555
C7F C8F 1_555 1_555
C11F C12F 1_555 1_555

#END
