
#######################################################################
#
#                 Cambridge Crystallographic Data Centre
#                                CCDC 
#
#######################################################################
#
# If this CIF has been generated from an entry in the Cambridge 
# Structural Database, then it will include bibliographic, chemical, 
# crystal, experimental, refinement or atomic coordinate data resulting 
# from the CCDC's data processing and validation procedures.
#
#######################################################################

data_TICXAG
_symmetry_cell_setting           monoclinic
_symmetry_space_group_name_H-M   'P 21/c'
_symmetry_Int_Tables_number      14
_space_group_name_Hall           '-P 2ybc'
loop_
_symmetry_equiv_pos_site_id
_symmetry_equiv_pos_as_xyz
1 x,y,z
2 -x,1/2+y,1/2-z
3 -x,-y,-z
4 x,1/2-y,1/2+z
_cell_length_a                   11.828(8)
_cell_length_b                   6.521(4)
_cell_length_c                   15.217(10)
_cell_angle_alpha                90
_cell_angle_beta                 111.498(8)
_cell_angle_gamma                90
_cell_volume                     1092.04
loop_
_atom_site_label
_atom_site_type_symbol
_atom_site_fract_x
_atom_site_fract_y
_atom_site_fract_z
Mn1 Mn 0.98665(3) 0.04266(6) 0.24898(3)
C1 C 0.9382(2) -0.2252(4) 0.39731(19)
C2 C 0.8652(3) -0.2724(4) 0.4583(2)
H1 H 0.8336 -0.4109 0.4450
H2 H 0.9186 -0.2670 0.5241
C3 C 0.7672(2) 0.0348(4) 0.4934(2)
H3 H 0.8342 0.0821 0.5438
C4 C 0.6507(3) -0.1492(5) 0.3755(2)
H4 H 0.6239 -0.2525 0.3304
C5 C 0.5854(3) 0.0094(5) 0.3859(2)
H5 H 0.5046 0.0373 0.3495
C6 C 0.6281(3) 0.3107(5) 0.4980(3)
H6 H 0.6971 0.3574 0.5506
H7 H 0.5617 0.2842 0.5184
H8 H 0.6048 0.4142 0.4497
O1 O 0.94139(17) -0.0454(3) 0.37020(13)
O2 O 0.99351(18) -0.3759(3) 0.38162(13)
N1 N 0.8619(2) 0.3059(3) 0.22481(17)
N2 N 0.7854(2) 0.3325(3) 0.25818(18)
N3 N 0.7102(3) 0.3613(5) 0.2876(2)
N4 N 0.87305(19) -0.2203(3) 0.17678(16)
N5 N 0.7659(2) -0.2305(3) 0.15507(18)
N6 N 0.6628(2) -0.2422(5) 0.1320(3)
N7 N 0.7643(2) -0.1314(4) 0.44334(17)
N8 N 0.6596(2) 0.1230(4) 0.46023(17)
Mn1A Mn 1.01335(3) -0.45734(6) 0.25102(3)
Mn1A_2 Mn 1.01335(3) 0.54266(6) 0.25102(3)
O2A O 1.00649(18) 0.1241(3) 0.11838(13)
N1A N 1.1381(2) -0.1941(3) 0.27519(17)
N4A N 1.12695(19) 0.2797(3) 0.32322(16)
loop_
_geom_bond_atom_site_label_1
_geom_bond_atom_site_label_2
_geom_bond_site_symmetry_1
_geom_bond_site_symmetry_2
Mn1 O1 1_555 1_555
C1 C2 1_555 1_555
C2 H1 1_555 1_555
H2 C2 1_555 1_555
C3 H3 1_555 1_555
C4 H4 1_555 1_555
C5 C4 1_555 1_555
H5 C5 1_555 1_555
C6 H6 1_555 1_555
H7 C6 1_555 1_555
H8 C6 1_555 1_555
O1 C1 1_555 1_555
O2 C1 1_555 1_555
N1 Mn1 1_555 1_555
N2 N1 1_555 1_555
N3 N2 1_555 1_555
N4 Mn1 1_555 1_555
N5 N4 1_555 1_555
N6 N5 1_555 1_555
N7 C2 1_555 1_555
N8 C3 1_555 1_555
Mn1A O2 1_555 1_555
Mn1A_2 N1 1_555 1_555
O2A Mn1 1_555 1_555
N1A Mn1 1_555 1_555
N4A Mn1 1_555 1_555
C3 N7 1_555 1_555
C4 N7 1_555 1_555
C5 N8 1_555 1_555
C6 N8 1_555 1_555
N4 Mn1A 1_555 1_555
Mn1A N1A 1_555 1_555
Mn1A_2 N4A 1_555 1_555

#END
