
#######################################################################
#
#                 Cambridge Crystallographic Data Centre
#                                CCDC 
#
#######################################################################
#
# If this CIF has been generated from an entry in the Cambridge 
# Structural Database, then it will include bibliographic, chemical, 
# crystal, experimental, refinement or atomic coordinate data resulting 
# from the CCDC's data processing and validation procedures.
#
#######################################################################

data_TIDBOY
_symmetry_cell_setting           orthorhombic
_symmetry_space_group_name_H-M   'P n a 21'
_symmetry_Int_Tables_number      33
_space_group_name_Hall           'P 2c -2n'
loop_
_symmetry_equiv_pos_site_id
_symmetry_equiv_pos_as_xyz
1 x,y,z
2 -x,-y,1/2+z
3 1/2+x,1/2-y,z
4 1/2-x,1/2+y,1/2+z
_cell_length_a                   8.3892(5)
_cell_length_b                   18.6742(10)
_cell_length_c                   10.7301(6)
_cell_angle_alpha                90
_cell_angle_beta                 90
_cell_angle_gamma                90
_cell_volume                     1680.99
loop_
_atom_site_label
_atom_site_type_symbol
_atom_site_fract_x
_atom_site_fract_y
_atom_site_fract_z
Fe1 Fe 0.85961(2) 0.872413(9) 0.25921(3)
Cl1 Cl 1.12300(6) 0.68625(3) 0.74284(5)
N1 N 0.96312(16) 0.81417(6) 0.41455(14)
O1 O 0.90861(17) 0.95098(6) 0.63589(13)
C1 C 1.02396(18) 0.74840(8) 0.39796(15)
C2 C 1.0758(2) 0.70692(8) 0.49680(16)
H1 H 1.111(3) 0.6616(13) 0.478(3)
N2 N 0.82408(18) 0.93558(7) 0.43105(15)
O2 O 1.10137(14) 0.66633(5) 0.23851(12)
C3 C 1.0685(2) 0.73684(9) 0.61419(16)
O3 O 1.09215(16) 0.91859(7) 0.21723(16)
H2 H 1.098(4) 0.9568(18) 0.181(4)
N3 N 0.76246(18) 0.98481(7) 0.20220(16)
H3 H 0.853(4) 1.0130(17) 0.188(4)
N4 N 0.8165(2) 0.86853(7) 0.04940(15)
H4 H 0.720(3) 0.8445(11) 0.053(2)
C4 C 1.0174(2) 0.80698(9) 0.63211(17)
H5 H 1.014(3) 0.8310(11) 0.709(3)
C5 C 0.9627(2) 0.84289(8) 0.52844(15)
N5 N 0.94974(17) 0.76742(7) 0.19240(13)
C6 C 0.8928(2) 0.91717(8) 0.53488(18)
C7 C 0.7510(2) 1.00611(8) 0.4240(2)
H6 H 0.676(3) 1.0135(12) 0.494(3)
H7 H 0.848(3) 1.0471(13) 0.426(3)
C8 C 0.6601(2) 1.01061(10) 0.3032(2)
H8 H 0.618(3) 1.0607(13) 0.291(3)
H9 H 0.572(3) 0.9738(14) 0.309(2)
C9 C 0.6878(3) 0.98230(10) 0.0799(2)
H10 H 0.669(4) 1.0297(16) 0.046(3)
H11 H 0.585(3) 0.9623(12) 0.089(3)
C10 C 0.7923(2) 0.93867(10) -0.0072(2)
H12 H 0.891(3) 0.9612(15) -0.016(3)
H13 H 0.742(3) 0.9366(12) -0.086(3)
C11 C 0.9308(2) 0.82158(10) -0.01113(19)
H14 H 1.035(3) 0.8427(14) -0.005(3)
H15 H 0.899(3) 0.8089(13) -0.099(3)
C12 C 0.9373(3) 0.75142(10) 0.06068(17)
H16 H 0.825(3) 0.7283(12) 0.041(3)
H17 H 1.027(3) 0.7262(13) 0.036(3)
C13 C 1.02815(16) 0.72415(7) 0.26531(17)
C14 C 1.2425(2) 0.89612(9) 0.2591(3)
H18 H 1.2617 0.9151 0.3409
H19 H 1.3231 0.9131 0.2029
H20 H 1.2455 0.8448 0.2621
Fe1B Fe 1.35961(2) 0.627587(9) 0.25921(3)
O2B O 0.60137(14) 0.83367(5) 0.23851(12)
loop_
_geom_bond_atom_site_label_1
_geom_bond_atom_site_label_2
_geom_bond_site_symmetry_1
_geom_bond_site_symmetry_2
Fe1 N1 1_555 1_555
Cl1 C3 1_555 1_555
N1 C1 1_555 1_555
O1 C6 1_555 1_555
C1 C2 1_555 1_555
C2 H1 1_555 1_555
N2 Fe1 1_555 1_555
O2 C13 1_555 1_555
C3 C2 1_555 1_555
O3 Fe1 1_555 1_555
H2 O3 1_555 1_555
N3 Fe1 1_555 1_555
H3 N3 1_555 1_555
N4 Fe1 1_555 1_555
H4 N4 1_555 1_555
C4 C3 1_555 1_555
H5 C4 1_555 1_555
C5 N1 1_555 1_555
N5 Fe1 1_555 1_555
C6 N2 1_555 1_555
C7 N2 1_555 1_555
H6 C7 1_555 1_555
H7 C7 1_555 1_555
C8 N3 1_555 1_555
H8 C8 1_555 1_555
H9 C8 1_555 1_555
C9 N3 1_555 1_555
H10 C9 1_555 1_555
H11 C9 1_555 1_555
C10 N4 1_555 1_555
H12 C10 1_555 1_555
H13 C10 1_555 1_555
C11 N4 1_555 1_555
H14 C11 1_555 1_555
H15 C11 1_555 1_555
C12 N5 1_555 1_555
H16 C12 1_555 1_555
H17 C12 1_555 1_555
C13 C1 1_555 1_555
C14 O3 1_555 1_555
H18 C14 1_555 1_555
H19 C14 1_555 1_555
H20 C14 1_555 1_555
Fe1B O2 1_555 1_555
O2B Fe1 1_555 1_555
C4 C5 1_555 1_555
C5 C6 1_555 1_555
N5 C13 1_555 1_555
C7 C8 1_555 1_555
C9 C10 1_555 1_555
C11 C12 1_555 1_555

#END
