
#######################################################################
#
#                 Cambridge Crystallographic Data Centre
#                                CCDC 
#
#######################################################################
#
# If this CIF has been generated from an entry in the Cambridge 
# Structural Database, then it will include bibliographic, chemical, 
# crystal, experimental, refinement or atomic coordinate data resulting 
# from the CCDC's data processing and validation procedures.
#
#######################################################################

data_TIDCUF
_symmetry_cell_setting           monoclinic
_symmetry_space_group_name_H-M   'P 21/c'
_symmetry_Int_Tables_number      14
_space_group_name_Hall           '-P 2ybc'
loop_
_symmetry_equiv_pos_site_id
_symmetry_equiv_pos_as_xyz
1 x,y,z
2 -x,1/2+y,1/2-z
3 -x,-y,-z
4 x,1/2-y,1/2+z
_cell_length_a                   5.6256(6)
_cell_length_b                   22.077(2)
_cell_length_c                   6.8307(7)
_cell_angle_alpha                90
_cell_angle_beta                 104.749(2)
_cell_angle_gamma                90
_cell_volume                     820.395
loop_
_atom_site_label
_atom_site_type_symbol
_atom_site_fract_x
_atom_site_fract_y
_atom_site_fract_z
Cu1 Cu 1.0000 0.0000 0.0000
Cu2 Cu 0.61433(5) 0.217432(12) 0.53978(4)
S1 S 0.80472(9) 0.29300(2) 0.38603(7)
N1 N 0.9110(3) 0.05616(7) 0.1944(2)
N2 N 0.7120(3) 0.13903(8) 0.4123(3)
N3 N 1.2708(3) 0.23833(10) 0.4657(3)
O1 O 0.6913(3) 0.02524(7) -0.1769(2)
O2 O 0.3471(3) 0.07397(8) -0.1656(3)
C1 C 0.5600(4) 0.05923(10) -0.0936(3)
C2 C 0.6883(4) 0.08020(9) 0.1179(3)
C3 C 0.5894(4) 0.12135(9) 0.2262(3)
H1 H 0.4342 0.1373 0.1691
C4 C 0.9319(4) 0.11335(10) 0.4891(3)
H2 H 1.0193 0.1237 0.6195
C5 C 1.0334(4) 0.07217(9) 0.3816(3)
H3 H 1.1871 0.0555 0.4396
C6 C 1.0806(4) 0.26076(10) 0.4290(3)
Cu2B Cu 1.38567(5) -0.217432(12) -0.53978(4)
Cu2C Cu 0.61433(5) 0.282568(12) 0.03978(4)
Cu2_2 Cu 1.61433(5) 0.217432(12) 0.53978(4)
Cu2C_2 Cu 0.61433(5) 0.282568(12) 1.03978(4)
Cu2C_3 Cu 1.61433(5) 0.282568(12) 1.03978(4)
S1C S 0.80472(9) 0.20700(2) 0.88603(7)
S1B S 1.19528(9) -0.29300(2) -0.38603(7)
S1A S 1.19528(9) -0.20700(2) -0.88603(7)
N1B N 1.0890(3) -0.05616(7) -0.1944(2)
N2B N 1.2880(3) -0.13903(8) -0.4123(3)
N3C N 1.2708(3) 0.26167(10) 0.9657(3)
N3_2 N 0.2708(3) 0.23833(10) 0.4657(3)
N3B N 1.7292(3) -0.23833(10) -0.4657(3)
O1B O 1.3087(3) -0.02524(7) 0.1769(2)
O2B O 1.6529(3) -0.07397(8) 0.1656(3)
C1B C 1.4400(4) -0.05923(10) 0.0936(3)
C2B C 1.3117(4) -0.08020(9) -0.1179(3)
C3B C 1.4106(4) -0.12135(9) -0.2262(3)
H1B H 1.5658 -0.1373 -0.1691
C4B C 1.0681(4) -0.11335(10) -0.4891(3)
H2B H 0.9807 -0.1237 -0.6195
C5B C 0.9666(4) -0.07217(9) -0.3816(3)
H3B H 0.8129 -0.0555 -0.4396
C6C C 1.0806(4) 0.23924(10) 0.9290(3)
loop_
_geom_bond_atom_site_label_1
_geom_bond_atom_site_label_2
_geom_bond_site_symmetry_1
_geom_bond_site_symmetry_2
Cu1 N1 1_555 1_555
Cu2 S1 1_555 1_555
S1 C6 1_555 1_555
N1 C2 1_555 1_555
N2 Cu2 1_555 1_555
N3 C6 1_555 1_555
O1 Cu1 1_555 1_555
O2 C1 1_555 1_555
C1 O1 1_555 1_555
C2 C1 1_555 1_555
C3 N2 1_555 1_555
H1 C3 1_555 1_555
C4 N2 1_555 1_555
H2 C4 1_555 1_555
C5 N1 1_555 1_555
H3 C5 1_555 1_555
Cu2B S1B 1_555 1_555
Cu2C S1 1_555 1_555
Cu2_2 N3 1_555 1_555
Cu2C_2 S1C 1_555 1_555
Cu2C_3 N3C 1_555 1_555
S1C Cu2 1_555 1_555
S1A Cu2B 1_555 1_555
N1B Cu1 1_555 1_555
N2B Cu2B 1_555 1_555
N3C C6C 1_555 1_555
N3_2 Cu2 1_555 1_555
N3B Cu2B 1_555 1_555
O1B Cu1 1_555 1_555
O2B C1B 1_555 1_555
C1B O1B 1_555 1_555
C2B N1B 1_555 1_555
C3B N2B 1_555 1_555
H1B C3B 1_555 1_555
C4B N2B 1_555 1_555
H2B C4B 1_555 1_555
C5B N1B 1_555 1_555
H3B C5B 1_555 1_555
C6C S1C 1_555 1_555
C2 C3 1_555 1_555
C4 C5 1_555 1_555
C1B C2B 1_555 1_555
C2B C3B 1_555 1_555
C4B C5B 1_555 1_555

#END
