
#######################################################################
#
#                 Cambridge Crystallographic Data Centre
#                                CCDC 
#
#######################################################################
#
# If this CIF has been generated from an entry in the Cambridge 
# Structural Database, then it will include bibliographic, chemical, 
# crystal, experimental, refinement or atomic coordinate data resulting 
# from the CCDC's data processing and validation procedures.
#
#######################################################################

data_TIDGIY
_symmetry_cell_setting           monoclinic
_symmetry_space_group_name_H-M   'P 21/c'
_symmetry_Int_Tables_number      14
_space_group_name_Hall           '-P 2ybc'
loop_
_symmetry_equiv_pos_site_id
_symmetry_equiv_pos_as_xyz
1 x,y,z
2 -x,1/2+y,1/2-z
3 -x,-y,-z
4 x,1/2-y,1/2+z
_cell_length_a                   8.1243(16)
_cell_length_b                   11.078(2)
_cell_length_c                   26.196(5)
_cell_angle_alpha                90
_cell_angle_beta                 91.64(3)
_cell_angle_gamma                90
_cell_volume                     2356.7
loop_
_atom_site_label
_atom_site_type_symbol
_atom_site_fract_x
_atom_site_fract_y
_atom_site_fract_z
S1 S 0.96208(7) 1.51333(5) 0.36779(2)
S2 S 0.51464(7) 1.56403(5) 0.11352(2)
N1 N 0.5701(2) 2.01964(17) 0.15184(8)
O1 O 0.8033(2) 1.56470(16) 0.37974(7)
O2 O 0.9317(3) 0.96112(16) 0.31950(8)
O3 O 0.5599(2) 2.03424(16) 0.10525(7)
C1 C 0.9495(3) 1.2718(2) 0.35086(8)
H1 H 1.0012 1.2653 0.3829
O4 O 1.0613(2) 1.59173(16) 0.33704(7)
O5 O 0.4070(2) 1.48785(16) 0.14255(7)
O6 O 0.4313(3) 1.62097(16) 0.07005(7)
O7 O 1.0513(2) 1.46941(16) 0.41283(7)
C2 C 0.6445(3) 1.6596(2) 0.20461(8)
C3 C 0.9138(3) 1.38380(19) 0.33020(8)
O8 O 0.5660(2) 2.10190(16) 0.18280(8)
C4 C 0.8336(3) 1.3956(2) 0.28155(8)
O9 O 0.6654(2) 1.50373(18) 0.09973(8)
O10 O 0.9664(2) 1.04789(17) 0.39329(8)
N2 N 0.9382(3) 1.05048(18) 0.34675(9)
C5 C 0.5739(3) 1.68403(19) 0.15553(8)
C6 C 0.5498(3) 1.8013(2) 0.13836(9)
H2 H 0.5075 1.8160 0.1056
C7 C 0.6853(3) 1.5369(2) 0.22250(9)
H3 H 0.6353 1.4719 0.2058
C8 C 0.7886(3) 1.5144(2) 0.26090(9)
H4 H 0.8383 1.5808 0.2766
C9 C 0.6478(3) 1.8763(2) 0.22034(10)
H5 H 0.6673 1.9409 0.2423
C10 C 0.5897(3) 1.8957(2) 0.17075(9)
C11 C 0.6762(3) 1.7597(2) 0.23649(9)
H6 H 0.7176 1.7467 0.2695
C12 C 0.9074(3) 1.1695(2) 0.32325(9)
C13 C 0.8364(3) 1.1762(2) 0.27477(9)
H7 H 0.8140 1.1065 0.2560
C14 C 0.7994(3) 1.2889(2) 0.25478(9)
H8 H 0.7501 1.2939 0.2224
Na1 Na 1.24536(12) 1.61932(9) 0.45561(4)
Na2 Na 0.96788(13) 0.87351(9) 0.45686(4)
O11 O 1.1654(2) 1.78231(15) 0.40188(7)
H9 H 1.2358 1.8388 0.4050
H10 H 1.1606 1.7584 0.3710
O12 O 0.7254(2) 0.79636(15) 0.41409(7)
H11 H 0.6902 0.8355 0.3881
H12 H 0.8201 0.7677 0.4083
O13 O 0.8044(2) 1.01463(17) 0.50199(7)
H13 H 0.7335 1.0435 0.4788
H14 H 0.7560 1.0127 0.5321
O14 O 0.9981(3) 0.68242(19) 0.50057(8)
H15 H 0.9053 0.6289 0.4942
H16 H 1.0183 0.6918 0.5370
O15 O 1.4834(2) 1.72928(17) 0.48486(7)
H17 H 1.4955 1.7715 0.5134
H18 H 1.5329 1.7624 0.4657
O16 O 1.2926(3) 1.46864(19) 0.51592(8)
H19 H 1.2955 1.4857 0.5458
H20 H 1.3698 1.4198 0.5133
O3A O 1.4401(2) 1.53424(16) 0.39475(7)
Na1_2 Na 1.24536(12) 0.61932(9) 0.45561(4)
Na1A Na 0.75464(12) 2.11932(9) 0.04439(4)
Na2_2 Na 0.96788(13) 1.87351(9) 0.45686(4)
Na2B Na 1.03212(13) 1.12649(9) 0.54314(4)
O11_2 O 1.1654(2) 0.78231(15) 0.40188(7)
O13B O 1.1956(2) 0.98537(17) 0.49801(7)
O14_2 O 0.9981(3) 1.68242(19) 0.50057(8)
loop_
_geom_bond_atom_site_label_1
_geom_bond_atom_site_label_2
_geom_bond_site_symmetry_1
_geom_bond_site_symmetry_2
S1 O1 1_555 1_555
S2 O5 1_555 1_555
N1 O3 1_555 1_555
O2 N2 1_555 1_555
O3 Na1A 1_555 1_555
C1 H1 1_555 1_555
O4 S1 1_555 1_555
O6 S2 1_555 1_555
O7 S1 1_555 1_555
C2 C5 1_555 1_555
C3 S1 1_555 1_555
O8 N1 1_555 1_555
C4 C3 1_555 1_555
O9 S2 1_555 1_555
O10 N2 1_555 1_555
N2 C12 1_555 1_555
C5 S2 1_555 1_555
C6 C5 1_555 1_555
H2 C6 1_555 1_555
C7 C2 1_555 1_555
H3 C7 1_555 1_555
C8 C4 1_555 1_555
H4 C8 1_555 1_555
C9 H5 1_555 1_555
C10 N1 1_555 1_555
C11 C2 1_555 1_555
H6 C11 1_555 1_555
C12 C1 1_555 1_555
C13 C12 1_555 1_555
H7 C13 1_555 1_555
C14 C4 1_555 1_555
H8 C14 1_555 1_555
Na1 O7 1_555 1_555
Na2 O10 1_555 1_555
O11 Na1 1_555 1_555
H9 O11 1_555 1_555
H10 O11 1_555 1_555
O12 Na2 1_555 1_555
H11 O12 1_555 1_555
H12 O12 1_555 1_555
O13 Na2 1_555 1_555
H13 O13 1_555 1_555
H14 O13 1_555 1_555
O14 Na2 1_555 1_555
H15 O14 1_555 1_555
H16 O14 1_555 1_555
O15 Na1 1_555 1_555
H17 O15 1_555 1_555
H18 O15 1_555 1_555
O16 Na1 1_555 1_555
H19 O16 1_555 1_555
H20 O16 1_555 1_555
O3A Na1 1_555 1_555
Na1_2 O14 1_555 1_555
Na2_2 O11 1_555 1_555
Na2B O13 1_555 1_555
O11_2 Na2 1_555 1_555
O13B Na2 1_555 1_555
O14_2 Na1 1_555 1_555
C1 C3 1_555 1_555
C6 C10 1_555 1_555
C7 C8 1_555 1_555
C9 C10 1_555 1_555
C9 C11 1_555 1_555
C13 C14 1_555 1_555
Na1_2 O11_2 1_555 1_555
Na2_2 O14_2 1_555 1_555
Na2B O13B 1_555 1_555

#END
