
#######################################################################
#
#                 Cambridge Crystallographic Data Centre
#                                CCDC 
#
#######################################################################
#
# If this CIF has been generated from an entry in the Cambridge 
# Structural Database, then it will include bibliographic, chemical, 
# crystal, experimental, refinement or atomic coordinate data resulting 
# from the CCDC's data processing and validation procedures.
#
#######################################################################

data_TIDJUN
_symmetry_cell_setting           monoclinic
_symmetry_space_group_name_H-M   'P 21/c'
_symmetry_Int_Tables_number      14
_space_group_name_Hall           '-P 2ybc'
loop_
_symmetry_equiv_pos_site_id
_symmetry_equiv_pos_as_xyz
1 x,y,z
2 -x,1/2+y,1/2-z
3 -x,-y,-z
4 x,1/2-y,1/2+z
_cell_length_a                   8.0194(4)
_cell_length_b                   16.1398(8)
_cell_length_c                   12.5893(6)
_cell_angle_alpha                90
_cell_angle_beta                 92.824(4)
_cell_angle_gamma                90
_cell_volume                     1627.47
loop_
_atom_site_label
_atom_site_type_symbol
_atom_site_fract_x
_atom_site_fract_y
_atom_site_fract_z
O1 O 0.5016(3) 0.58607(15) 0.50468(16)
O2 O 0.2569(3) 0.68394(16) 0.3672(2)
O3 O 0.4209(3) 0.50210(14) 0.67247(17)
O4 O 0.2775(3) 0.51272(14) 0.38115(17)
O5 O 0.1576(3) 0.58776(15) 0.56702(18)
O6 O 0.7423(3) 0.66317(15) 0.62101(17)
O7 O 0.4272(3) 0.67218(16) 0.70624(19)
O8 O 0.5451(3) 0.77385(16) 0.5086(2)
O9 O 0.1784(3) 0.41960(15) 0.55506(17)
O10 O 0.6020(3) 0.67214(15) 0.33879(17)
O11 O 0.8647(3) 0.75811(17) 0.45181(19)
O12 O 0.3671(3) 0.60191(15) 0.19699(19)
O13 O 0.6662(3) 0.58162(17) 0.80835(19)
O14 O -0.1467(3) 0.42039(17) 0.0522(2)
N1 N -0.1811(4) 0.5605(2) 0.1868(2)
C1 C -0.0340(5) 0.5036(2) 0.1988(3)
H1 H 0.0565 0.525 0.1584
H2 H 0.0042 0.5008 0.273
C2 C -0.2925(5) 0.4711(3) 0.0437(3)
H3 H -0.3762 0.4486 0.0887
H4 H -0.3379 0.4702 -0.0291
C3 C -0.2545(5) 0.5586(2) 0.0760(3)
H5 H -0.1765 0.5826 0.0281
H6 H -0.3562 0.5912 0.0714
C4 C -0.0807(5) 0.4189(2) 0.1598(3)
H7 H 0.017 0.3835 0.1648
H8 H -0.1634 0.3957 0.205
Na1 Na -0.0478(3) 0.71884(17) 0.2255(2)
O15 O 0.1983(4) 0.7317(2) 0.0674(3)
H9 H -0.257(4) 0.549(3) 0.226(3)
H10 H 0.177(6) 0.6860(16) 0.039(4)
H11 H 0.171(6) 0.7742(19) 0.034(4)
Mo1 Mo 0.28928(3) 0.510885(18) 0.53494(2)
Mo2 Mo 0.57585(3) 0.599853(18) 0.68627(2)
Mo3 Mo 0.69073(3) 0.702539(18) 0.47763(2)
Mo4 Mo 0.39924(3) 0.612603(18) 0.33094(2)
O1B O 0.4984(3) 0.41393(15) 0.49532(16)
O3B O 0.5791(3) 0.49790(14) 0.32753(17)
O4B O 0.7225(3) 0.48728(14) 0.61885(17)
O6C O -0.2577(3) 0.83683(15) 0.12101(17)
O9B O 0.8216(3) 0.58040(15) 0.44494(17)
O11_2 O -0.1353(3) 0.75811(17) 0.45181(19)
Na1_2 Na 0.9522(3) 0.71884(17) 0.2255(2)
Na1C Na 0.9522(3) 0.78116(17) 0.7255(2)
Mo1B Mo 0.71072(3) 0.489115(18) 0.46506(2)
Mo2B Mo 0.42415(3) 0.400147(18) 0.31373(2)
Mo3B Mo 0.30927(3) 0.297461(18) 0.52237(2)
Mo4B Mo 0.60076(3) 0.387397(18) 0.66906(2)
loop_
_geom_bond_atom_site_label_1
_geom_bond_atom_site_label_2
_geom_bond_site_symmetry_1
_geom_bond_site_symmetry_2
O1 Mo1 1_555 1_555
O2 Na1 1_555 1_555
O3 Mo1 1_555 1_555
O4 Mo1 1_555 1_555
O5 Mo1 1_555 1_555
O6 Mo2 1_555 1_555
O7 Mo2 1_555 1_555
O8 Mo3 1_555 1_555
O9 Mo1 1_555 1_555
O10 Mo3 1_555 1_555
O11 Mo3 1_555 1_555
O12 Mo4 1_555 1_555
O13 Mo2 1_555 1_555
O14 C2 1_555 1_555
N1 C1 1_555 1_555
C1 H1 1_555 1_555
H2 C1 1_555 1_555
C2 H3 1_555 1_555
H4 C2 1_555 1_555
C3 N1 1_555 1_555
H5 C3 1_555 1_555
H6 C3 1_555 1_555
C4 O14 1_555 1_555
H7 C4 1_555 1_555
H8 C4 1_555 1_555
Na1 N1 1_555 1_555
O15 Na1 1_555 1_555
H9 N1 1_555 1_555
H10 O15 1_555 1_555
H11 O15 1_555 1_555
Mo1 O1B 1_555 1_555
Mo2 O1 1_555 1_555
Mo3 O1 1_555 1_555
Mo4 O1 1_555 1_555
O1B Mo1B 1_555 1_555
O3B Mo4 1_555 1_555
O4B Mo2 1_555 1_555
O6C Na1 1_555 1_555
O9B Mo3 1_555 1_555
O11_2 Na1 1_555 1_555
Na1_2 O11 1_555 1_555
Na1C O6 1_555 1_555
Mo1B O1 1_555 1_555
Mo2B O4 1_555 1_555
Mo3B O9 1_555 1_555
Mo4B O3 1_555 1_555
O2 Mo4 1_555 1_555
O3 Mo2 1_555 1_555
O4 Mo4 1_555 1_555
O6 Mo3 1_555 1_555
O10 Mo4 1_555 1_555
C1 C4 1_555 1_555
C2 C3 1_555 1_555
O1B Mo2B 1_555 1_555
O1B Mo3B 1_555 1_555
O1B Mo4B 1_555 1_555
O3B Mo1B 1_555 1_555
O3B Mo2B 1_555 1_555
O4B Mo1B 1_555 1_555
O4B Mo4B 1_555 1_555
O9B Mo1B 1_555 1_555

#END
