
#######################################################################
#
#                 Cambridge Crystallographic Data Centre
#                                CCDC 
#
#######################################################################
#
# If this CIF has been generated from an entry in the Cambridge 
# Structural Database, then it will include bibliographic, chemical, 
# crystal, experimental, refinement or atomic coordinate data resulting 
# from the CCDC's data processing and validation procedures.
#
#######################################################################

data_TIDLEZ
_symmetry_cell_setting           orthorhombic
_symmetry_space_group_name_H-M   'P n m a'
_symmetry_Int_Tables_number      62
_space_group_name_Hall           '-P 2ac 2n'
loop_
_symmetry_equiv_pos_site_id
_symmetry_equiv_pos_as_xyz
1 x,y,z
2 1/2-x,-y,1/2+z
3 1/2+x,1/2-y,1/2-z
4 -x,1/2+y,-z
5 -x,-y,-z
6 1/2+x,y,1/2-z
7 1/2-x,1/2+y,1/2+z
8 x,1/2-y,z
_cell_length_a                   18.9120(18)
_cell_length_b                   7.5956(8)
_cell_length_c                   13.8924(14)
_cell_angle_alpha                90
_cell_angle_beta                 90
_cell_angle_gamma                90
_cell_volume                     1995.62
loop_
_atom_site_label
_atom_site_type_symbol
_atom_site_fract_x
_atom_site_fract_y
_atom_site_fract_z
Cd2 Cd 0.83242(4) 0.7500 0.40857(5)
Cl2 Cl 0.75056(14) 0.7500 0.2650(2)
N5 N 0.7730(6) 0.5337(11) 0.4929(6)
N6 N 0.7169(5) 0.2500 0.5089(7)
C5 C 0.7499(4) 0.3975(10) 0.4993(5)
C6 C 0.9617(8) 0.7500 0.5912(11)
C7 C 1.0610(10) 0.596(2) 0.6473(16)
N7 N 0.9152(6) 0.7500 0.5375(10)
N8 N 1.0178(7) 0.7500 0.6471(10)
N9 N 1.0914(9) 0.466(2) 0.6575(14)
N5G N 0.7730(6) -0.0337(11) 0.4929(6)
C5G C 0.7499(4) 0.1025(10) 0.4993(5)
C7G C 1.0610(10) 0.904(2) 0.6473(16)
N9G N 1.0914(9) 1.034(2) 0.6575(14)
Cd2_2 Cd 0.83242(4) -0.2500 0.40857(5)
Cd2D Cd 1.16758(4) 0.2500 0.59143(5)
Cd2D_2 Cd 1.16758(4) 1.2500 0.59143(5)
N5G_2 N 0.7730(6) 0.9663(11) 0.4929(6)
N9D N 0.9086(9) 0.534(2) 0.3425(14)
N9C N 0.9086(9) 0.966(2) 0.3425(14)
O1 O 0.5808(14) 0.723(9) 0.1129(15)
Cd1 Cd 0.5000 0.5000 0.5000
Cl1 Cl 0.50925(12) 0.2500 0.62795(16)
N1 N 0.6503(4) 0.2500 0.2893(5)
N2 N 0.5751(2) 0.3413(7) 0.3973(3)
N3 N 0.8301(4) 0.2500 0.1785(5)
N4 N 0.9085(3) 0.3414(7) 0.0748(4)
C1 C 0.7027(5) 0.2500 0.2110(7)
H1 H 0.6963 0.3546 0.1706
C2 C 0.7765(5) 0.2500 0.2537(7)
H2 H 0.7826 0.3544 0.2944
C3 C 0.6198(3) 0.3896(9) 0.3319(4)
H3 H 0.6297 0.5074 0.3162
C4 C 0.8616(3) 0.3917(8) 0.1377(5)
H4 H 0.8512 0.5095 0.1527
N2G N 0.5751(2) 0.1587(7) 0.3973(3)
N4G N 0.9085(3) 0.1586(7) 0.0748(4)
H1G H 0.6963 0.1454 0.1706
H2G H 0.7826 0.1456 0.2944
C3G C 0.6198(3) 0.1104(9) 0.3319(4)
H3G H 0.6297 -0.0074 0.3162
C4G C 0.8616(3) 0.1083(8) 0.1377(5)
H4G H 0.8512 -0.0095 0.1527
Cd1F Cd 1.0000 0.0000 0.0000
Cd1G Cd 0.5000 0.0000 0.5000
Cd1A Cd 1.0000 0.5000 0.0000
Cl1D Cl 0.49075(12) 0.7500 0.37205(16)
N2D N 0.4249(2) 0.6587(7) 0.6027(3)
N4A N 0.5915(3) 0.6586(7) 0.5748(4)
N4E N 0.4085(3) 0.3414(7) 0.4252(4)
H5? H 0.6963 0.3546 0.1706
H6? H 0.7826 0.3544 0.2944
loop_
_geom_bond_atom_site_label_1
_geom_bond_atom_site_label_2
_geom_bond_site_symmetry_1
_geom_bond_site_symmetry_2
Cd1 Cl1 1_555 1_555
Cl1 Cd1G 1_555 1_555
N1 C1 1_555 1_555
N2 Cd1 1_555 1_555
N3 C2 1_555 1_555
N4 C4 1_555 1_555
C1 H1 1_555 1_555
C2 C1 1_555 1_555
H2 C2 1_555 1_555
C3 N1 1_555 1_555
H3 C3 1_555 1_555
C4 N3 1_555 1_555
H4 C4 1_555 1_555
Cd2 Cl2 1_555 1_555
N5 Cd2 1_555 1_555
N6 C5 1_555 1_555
C5 N5 1_555 1_555
C6 N7 1_555 1_555
C7 N8 1_555 1_555
N7 Cd2 1_555 1_555
N8 C6 1_555 1_555
N9 C7 1_555 1_555
N2G N2 1_555 1_555
N4G N4 1_555 1_555
H1G C1 1_555 1_555
H2G C2 1_555 1_555
C3G N1 1_555 1_555
H3G C3G 1_555 1_555
C4G N3 1_555 1_555
H4G C4G 1_555 1_555
Cd1F N4G 1_555 1_555
Cd1G N2G 1_555 1_555
Cd1A N4 1_555 1_555
Cl1D Cd1 1_555 1_555
N2D Cd1 1_555 1_555
N4A Cd1 1_555 1_555
N4E Cd1 1_555 1_555
N5G C5G 1_555 1_555
C5G N6 1_555 1_555
C7G N8 1_555 1_555
N9G C7G 1_555 1_555
Cd2_2 N5G 1_555 1_555
Cd2D N9 1_555 1_555
Cd2D_2 N9G 1_555 1_555
N5G_2 Cd2 1_555 1_555
N9D Cd2 1_555 1_555
N9C Cd2 1_555 1_555
N2 C3 1_555 1_555
N2G C3G 1_555 1_555
N4G C4G 1_555 1_555

#END
