
#######################################################################
#
#                 Cambridge Crystallographic Data Centre
#                                CCDC 
#
#######################################################################
#
# If this CIF has been generated from an entry in the Cambridge 
# Structural Database, then it will include bibliographic, chemical, 
# crystal, experimental, refinement or atomic coordinate data resulting 
# from the CCDC's data processing and validation procedures.
#
#######################################################################

data_TIDMAW
_symmetry_cell_setting           triclinic
_symmetry_space_group_name_H-M   'P -1'
_symmetry_Int_Tables_number      2
_space_group_name_Hall           '-P 1'
loop_
_symmetry_equiv_pos_site_id
_symmetry_equiv_pos_as_xyz
1 x,y,z
2 -x,-y,-z
_cell_length_a                   10.1535(11)
_cell_length_b                   10.8333(12)
_cell_length_c                   12.8740(14)
_cell_angle_alpha                70.9430(10)
_cell_angle_beta                 80.1530(10)
_cell_angle_gamma                84.0680(10)
_cell_volume                     1317.04
loop_
_atom_site_label
_atom_site_type_symbol
_atom_site_fract_x
_atom_site_fract_y
_atom_site_fract_z
Y1 Y 0.04894(4) 0.38973(3) 0.82894(3)
O1 O 0.1032(5) 0.2651(3) 0.7005(3)
H1 H 0.1392 0.3163 0.7203
O2 O 0.0699(5) 0.1578(4) 0.8758(3)
O3 O 0.0062(5) -0.3196(3) 0.9870(3)
O4 O 0.0348(7) -0.4188(4) 0.8600(4)
O5 O 0.2863(4) 0.3824(4) 0.8366(3)
O6 O 0.2135(3) 0.5054(3) 0.6838(3)
O7 O 0.8097(4) 0.3616(6) 0.8286(4)
O8 O 0.9142(4) 0.5046(6) 0.6944(4)
C1 C 0.1043(5) 0.0338(4) 0.7499(4)
C2 C 0.0783(5) -0.0830(4) 0.8322(4)
H2 H 0.0603 -0.0868 0.9065
C3 C 0.0795(5) -0.1958(4) 0.8020(4)
C4 C 0.1108(5) -0.1917(4) 0.6917(4)
H3 H 0.1117 -0.2679 0.6732
C5 C 0.1409(5) -0.0737(4) 0.6081(4)
C6 C 0.1338(5) 0.0403(4) 0.6385(4)
H4 H 0.1490 0.1206 0.5840
C7 C 0.0919(5) 0.1579(4) 0.7775(4)
C8 C 0.0393(6) -0.3213(5) 0.8894(4)
C9 C 0.1921(5) 0.0517(5) 0.4109(4)
H5 H 0.2670 0.0930 0.4213
H6 H 0.1128 0.1080 0.4183
C10 C 0.2157(5) 0.0437(7) 0.2966(5)
C11 C 0.2095(6) -0.0687(8) 0.2699(5)
H7 H 0.1914 -0.1454 0.3282
C12 C 0.2477(8) 0.0294(7) 0.0831(8)
H8 H 0.2532 0.0253 0.0114
C13 C 0.2607(8) 0.1421(7) 0.0951(8)
H9 H 0.2805 0.2143 0.0327
C14 C 0.2439(7) 0.1564(8) 0.2082(6)
H10 H 0.2519 0.2361 0.2187
C15 C 0.4466(4) 0.5078(5) 0.6885(4)
C16 C 0.5579(5) 0.4555(5) 0.7424(4)
H11 H 0.5484 0.3916 0.8116
C17 C 0.6832(5) 0.5014(5) 0.6900(4)
C18 C 0.6966(5) 0.5968(5) 0.5872(4)
H12 H 0.7812 0.6258 0.5533
C19 C 0.5861(5) 0.6506(5) 0.5332(4)
C20 C 0.4607(5) 0.6032(5) 0.5853(4)
H13 H 0.3857 0.6360 0.5503
C21 C 0.3080(5) 0.4620(5) 0.7395(4)
C22 C 0.8081(6) 0.4529(5) 0.7420(4)
C23 C 0.4967(6) 0.8136(6) 0.3742(5)
H14 H 0.4202 0.8280 0.4261
H15 H 0.4708 0.7569 0.3372
C24 C 0.5354(5) 0.9430(6) 0.2889(5)
C25 C 0.5597(6) 0.9571(7) 0.1782(5)
H16 H 0.5548 0.8833 0.1575
C26 C 0.6000(8) 1.1716(8) 0.1296(8)
H17 H 0.6238 1.2499 0.0752
C27 C 0.5777(8) 1.1704(7) 0.2371(8)
H18 H 0.5825 1.2459 0.2554
C28 C 0.5481(6) 1.0544(7) 0.3170(6)
H19 H 0.5363 1.0496 0.3915
N1 N 0.1750(5) -0.0716(4) 0.4988(3)
H20 H 0.1859 -0.1437 0.4832
N2 N 0.2277(6) -0.0763(8) 0.1647(6)
N3 N 0.6047(4) 0.7510(5) 0.4337(4)
H21 H 0.6843 0.7767 0.4065
N4 N 0.5902(7) 1.0693(7) 0.0968(5)
Y1_2 Y 0.04894(4) -0.61027(3) 0.82894(3)
Y1_3 Y 1.04894(4) 0.38973(3) 0.82894(3)
Y1A Y -0.04894(4) -0.38973(3) 1.17106(3)
O3A O -0.0062(5) 0.3196(3) 1.0130(3)
O4_2 O 0.0348(7) 0.5812(4) 0.8600(4)
O7_2 O -0.1903(4) 0.3616(6) 0.8286(4)
O8_2 O -0.0858(4) 0.5046(6) 0.6944(4)
O9 O 0.0879(7) 0.6788(5) 0.4767(4)
H22 H 0.0388 0.6961 0.4259
H23 H 0.0448 0.6319 0.5369
O10 O 0.3639(7) 0.4644(8) 1.0170(6)
H24 H 0.3283 0.4490 0.9676
H25 H 0.3081 0.5096 1.0487
loop_
_geom_bond_atom_site_label_1
_geom_bond_atom_site_label_2
_geom_bond_site_symmetry_1
_geom_bond_site_symmetry_2
Y1 O1 1_555 1_555
O1 H1 1_555 1_555
O2 Y1 1_555 1_555
O3 C8 1_555 1_555
O4 C8 1_555 1_555
O5 Y1 1_555 1_555
O6 Y1 1_555 1_555
O7 C22 1_555 1_555
O8 C22 1_555 1_555
C1 C2 1_555 1_555
C2 H2 1_555 1_555
C3 C2 1_555 1_555
C4 C3 1_555 1_555
H3 C4 1_555 1_555
C5 C4 1_555 1_555
C6 C1 1_555 1_555
H4 C6 1_555 1_555
C7 O1 1_555 1_555
C8 C3 1_555 1_555
C9 H5 1_555 1_555
H6 C9 1_555 1_555
C10 C9 1_555 1_555
C11 C10 1_555 1_555
H7 C11 1_555 1_555
C12 H8 1_555 1_555
C13 C12 1_555 1_555
H9 C13 1_555 1_555
C14 C10 1_555 1_555
H10 C14 1_555 1_555
C15 C16 1_555 1_555
C16 H11 1_555 1_555
C17 C16 1_555 1_555
C18 C17 1_555 1_555
H12 C18 1_555 1_555
C19 C18 1_555 1_555
C20 C15 1_555 1_555
H13 C20 1_555 1_555
C21 O5 1_555 1_555
C22 C17 1_555 1_555
C23 H14 1_555 1_555
H15 C23 1_555 1_555
C24 C23 1_555 1_555
C25 C24 1_555 1_555
H16 C25 1_555 1_555
C26 H17 1_555 1_555
C27 C26 1_555 1_555
H18 C27 1_555 1_555
C28 C24 1_555 1_555
H19 C28 1_555 1_555
N1 C5 1_555 1_555
H20 N1 1_555 1_555
N2 C11 1_555 1_555
N3 C19 1_555 1_555
H21 N3 1_555 1_555
N4 C25 1_555 1_555
O9 H22 1_555 1_555
H23 O9 1_555 1_555
O10 H24 1_555 1_555
H25 O10 1_555 1_555
Y1_2 O4 1_555 1_555
Y1_3 O7 1_555 1_555
Y1A O3 1_555 1_555
O3A Y1 1_555 1_555
O4_2 Y1 1_555 1_555
O7_2 Y1 1_555 1_555
O8_2 Y1 1_555 1_555
O2 C7 1_555 1_555
O6 C21 1_555 1_555
O8 Y1_3 1_555 1_555
C1 C7 1_555 1_555
C5 C6 1_555 1_555
C9 N1 1_555 1_555
C12 N2 1_555 1_555
C13 C14 1_555 1_555
C15 C21 1_555 1_555
C19 C20 1_555 1_555
C23 N3 1_555 1_555
C26 N4 1_555 1_555
C27 C28 1_555 1_555

#END
