
#######################################################################
#
#                 Cambridge Crystallographic Data Centre
#                                CCDC 
#
#######################################################################
#
# If this CIF has been generated from an entry in the Cambridge 
# Structural Database, then it will include bibliographic, chemical, 
# crystal, experimental, refinement or atomic coordinate data resulting 
# from the CCDC's data processing and validation procedures.
#
#######################################################################

data_TIDROP
_symmetry_cell_setting           orthorhombic
_symmetry_space_group_name_H-M   'P b c a'
_symmetry_Int_Tables_number      61
_space_group_name_Hall           '-P 2ac 2ab'
loop_
_symmetry_equiv_pos_site_id
_symmetry_equiv_pos_as_xyz
1 x,y,z
2 1/2-x,-y,1/2+z
3 1/2+x,1/2-y,-z
4 -x,1/2+y,1/2-z
5 -x,-y,-z
6 1/2+x,y,1/2-z
7 1/2-x,1/2+y,z
8 x,1/2-y,1/2+z
_cell_length_a                   19.2017(5)
_cell_length_b                   16.2729(8)
_cell_length_c                   25.7799(15)
_cell_angle_alpha                90
_cell_angle_beta                 90
_cell_angle_gamma                90
_cell_volume                     8055.38
loop_
_atom_site_label
_atom_site_type_symbol
_atom_site_fract_x
_atom_site_fract_y
_atom_site_fract_z
Fe1 Fe 0.010469(12) 0.253499(17) 0.079860(10)
S1 S 0.00495(3) 0.06473(4) 0.32928(2)
O1 O -0.07441(6) 0.30388(8) 0.11131(5)
O2 O 0.09099(6) 0.31300(8) 0.11230(5)
O3 O -0.26868(6) 0.16234(10) 0.04196(6)
O4 O -0.27382(7) 0.23749(9) 0.11460(6)
O5 O 0.29547(7) 0.18892(10) 0.04680(6)
O6 O 0.29314(6) 0.25996(9) 0.12121(6)
N1 N -0.05606(7) 0.17981(9) 0.03621(6)
N2 N 0.08319(7) 0.18780(9) 0.03709(6)
N3 N 0.01181(8) 0.16371(10) 0.14518(6)
N4 N 0.00757(7) 0.15251(9) 0.51662(6)
C1 C 0.15622(9) 0.30981(12) 0.10373(7)
C2 C 0.18798(8) 0.24505(12) 0.07634(7)
C3 C 0.15057(9) 0.19155(12) 0.04313(8)
H1 H 0.1772 0.1547 0.0233
C4 C 0.05290(10) 0.13774(12) -0.00149(8)
C5 C 0.08949(11) 0.09614(14) -0.03976(9)
H2 H 0.1383 0.1005 -0.0406
C6 C 0.05680(13) 0.04905(15) -0.07620(9)
H3 H 0.0831 0.0210 -0.1013
C7 C -0.01451(12) 0.04280(15) -0.07606(9)
H4 H -0.0371 0.0099 -0.1009
C8 C -0.05253(11) 0.08447(14) -0.03977(9)
H5 H -0.1014 0.0807 -0.0405
C9 C -0.02085(10) 0.13252(12) -0.00167(8)
C10 C -0.12379(9) 0.17704(12) 0.04091(8)
H6 H -0.1473 0.1379 0.0205
C11 C -0.16556(9) 0.22696(11) 0.07358(7)
C12 C -0.13896(9) 0.29309(12) 0.10260(7)
C13 C -0.24017(10) 0.20587(13) 0.07347(9)
C14 C -0.34740(10) 0.22213(16) 0.11877(11)
H7 H -0.3561 0.1632 0.1233
H8 H -0.3714 0.2406 0.0873
C15 C -0.37294(13) 0.2688(2) 0.16480(12)
H9 H -0.3489 0.2497 0.1956
H10 H -0.4226 0.2600 0.1688
H11 H -0.3639 0.3269 0.1599
C16 C 0.26358(10) 0.22940(13) 0.07829(9)
C17 C 0.36761(10) 0.24940(17) 0.12653(11)
H12 H 0.3917 0.2709 0.0959
H13 H 0.3791 0.1910 0.1302
C18 C 0.38894(14) 0.2954(2) 0.17343(13)
H14 H 0.3780 0.3531 0.1690
H15 H 0.4387 0.2890 0.1787
H16 H 0.3642 0.2741 0.2033
C19 C -0.18278(9) 0.36237(13) 0.12203(9)
C20 C -0.18022(11) 0.38424(18) 0.17375(11)
H17 H -0.1548 0.3519 0.1973
C21 C -0.21493(15) 0.4536(3) 0.19088(16)
H18 H -0.2146 0.4672 0.2263
C22 C -0.24970(17) 0.5022(2) 0.1562(2)
H19 H -0.2723 0.5501 0.1678
C23 C -0.25172(13) 0.48173(18) 0.10498(19)
H20 H -0.2755 0.5155 0.0813
C24 C -0.21872(10) 0.41105(14) 0.08777(11)
H21 H -0.2210 0.3964 0.0525
C25 C 0.19415(9) 0.38556(12) 0.11977(8)
C26 C 0.17722(10) 0.42414(15) 0.16583(9)
H22 H 0.1464 0.3986 0.1891
C27 C 0.20535(13) 0.50028(17) 0.17806(11)
H23 H 0.1938 0.5260 0.2095
C28 C 0.25014(13) 0.53779(16) 0.14400(14)
H24 H 0.2690 0.5896 0.1520
C29 C 0.26724(12) 0.50029(17) 0.09889(13)
H25 H 0.2983 0.5261 0.0759
C30 C 0.23949(10) 0.42440(14) 0.08623(10)
H26 H 0.2516 0.3992 0.0547
C31 C 0.07291(10) 0.08421(14) 0.20846(9)
H27 H 0.1160 0.0693 0.2230
C32 C 0.07052(10) 0.13910(14) 0.16813(9)
H28 H 0.1128 0.1607 0.1559
C33 C -0.04613(10) 0.13002(14) 0.16343(8)
H29 H -0.0885 0.1449 0.1478
C34 C -0.04803(10) 0.07481(14) 0.20370(8)
H30 H -0.0909 0.0533 0.2149
C35 C 0.01235(10) 0.05112(12) 0.22748(8)
C36 C 0.01212(10) -0.00381(13) 0.27439(8)
H31 H 0.0553 -0.0358 0.2763
H32 H -0.0274 -0.0418 0.2733
C37 C 0.00396(9) -0.00601(12) 0.38328(7)
H33 H -0.0381 -0.0402 0.3824
H34 H 0.0449 -0.0420 0.3823
C38 C 0.00490(9) 0.04616(11) 0.43109(7)
C39 C -0.05577(9) 0.07955(12) 0.45130(8)
H35 H -0.0991 0.0669 0.4364
C40 C -0.05195(9) 0.13107(12) 0.49316(8)
H36 H -0.0937 0.1528 0.5063
C41 C 0.06577(9) 0.12046(12) 0.49639(8)
H37 H 0.1085 0.1344 0.5118
C42 C 0.06666(9) 0.06844(12) 0.45454(8)
H38 H 0.1092 0.0480 0.4419
Fe1G Fe 0.010469(12) 0.246501(17) 0.579860(10)
N4G N 0.00757(7) 0.34749(9) 0.01662(6)
loop_
_geom_bond_atom_site_label_1
_geom_bond_atom_site_label_2
_geom_bond_site_symmetry_1
_geom_bond_site_symmetry_2
Fe1 O1 1_555 1_555
S1 C36 1_555 1_555
O1 C12 1_555 1_555
O2 Fe1 1_555 1_555
O3 C13 1_555 1_555
O4 C13 1_555 1_555
O5 C16 1_555 1_555
O6 C16 1_555 1_555
N1 Fe1 1_555 1_555
N2 Fe1 1_555 1_555
N3 Fe1 1_555 1_555
N4 C40 1_555 1_555
C1 O2 1_555 1_555
C2 C1 1_555 1_555
C3 N2 1_555 1_555
H1 C3 1_555 1_555
C4 N2 1_555 1_555
C5 C4 1_555 1_555
H2 C5 1_555 1_555
C6 C5 1_555 1_555
H3 C6 1_555 1_555
C7 C6 1_555 1_555
H4 C7 1_555 1_555
C8 C7 1_555 1_555
H5 C8 1_555 1_555
C9 N1 1_555 1_555
C10 N1 1_555 1_555
H6 C10 1_555 1_555
C11 C10 1_555 1_555
C12 C11 1_555 1_555
C13 C11 1_555 1_555
C14 O4 1_555 1_555
H7 C14 1_555 1_555
H8 C14 1_555 1_555
C15 C14 1_555 1_555
H9 C15 1_555 1_555
H10 C15 1_555 1_555
H11 C15 1_555 1_555
C16 C2 1_555 1_555
C17 O6 1_555 1_555
H12 C17 1_555 1_555
H13 C17 1_555 1_555
C18 C17 1_555 1_555
H14 C18 1_555 1_555
H15 C18 1_555 1_555
H16 C18 1_555 1_555
C19 C12 1_555 1_555
C20 C19 1_555 1_555
H17 C20 1_555 1_555
C21 C20 1_555 1_555
H18 C21 1_555 1_555
C22 C21 1_555 1_555
H19 C22 1_555 1_555
C23 C22 1_555 1_555
H20 C23 1_555 1_555
C24 C19 1_555 1_555
H21 C24 1_555 1_555
C25 C1 1_555 1_555
C26 C25 1_555 1_555
H22 C26 1_555 1_555
C27 C26 1_555 1_555
H23 C27 1_555 1_555
C28 C27 1_555 1_555
H24 C28 1_555 1_555
C29 C28 1_555 1_555
H25 C29 1_555 1_555
C30 C25 1_555 1_555
H26 C30 1_555 1_555
C31 H27 1_555 1_555
C32 N3 1_555 1_555
H28 C32 1_555 1_555
C33 N3 1_555 1_555
H29 C33 1_555 1_555
C34 C33 1_555 1_555
H30 C34 1_555 1_555
C35 C31 1_555 1_555
C36 C35 1_555 1_555
H31 C36 1_555 1_555
H32 C36 1_555 1_555
C37 S1 1_555 1_555
H33 C37 1_555 1_555
H34 C37 1_555 1_555
C38 C37 1_555 1_555
C39 C38 1_555 1_555
H35 C39 1_555 1_555
C40 C39 1_555 1_555
H36 C40 1_555 1_555
C41 N4 1_555 1_555
H37 C41 1_555 1_555
C42 C38 1_555 1_555
H38 C42 1_555 1_555
Fe1G N4 1_555 1_555
N4G Fe1 1_555 1_555
C2 C3 1_555 1_555
C4 C9 1_555 1_555
C8 C9 1_555 1_555
C23 C24 1_555 1_555
C29 C30 1_555 1_555
C31 C32 1_555 1_555
C34 C35 1_555 1_555
C41 C42 1_555 1_555

#END
