
#######################################################################
#
#                 Cambridge Crystallographic Data Centre
#                                CCDC 
#
#######################################################################
#
# If this CIF has been generated from an entry in the Cambridge 
# Structural Database, then it will include bibliographic, chemical, 
# crystal, experimental, refinement or atomic coordinate data resulting 
# from the CCDC's data processing and validation procedures.
#
#######################################################################

data_TIDTOR
_symmetry_cell_setting           orthorhombic
_symmetry_space_group_name_H-M   'P c a 21'
_symmetry_Int_Tables_number      29
_space_group_name_Hall           'P 2c -2ac'
loop_
_symmetry_equiv_pos_site_id
_symmetry_equiv_pos_as_xyz
1 x,y,z
2 -x,-y,1/2+z
3 1/2-x,y,1/2+z
4 1/2+x,-y,z
_cell_length_a                   11.5597(8)
_cell_length_b                   12.2735(9)
_cell_length_c                   21.7303(16)
_cell_angle_alpha                90
_cell_angle_beta                 90
_cell_angle_gamma                90
_cell_volume                     3083.05
loop_
_atom_site_label
_atom_site_type_symbol
_atom_site_fract_x
_atom_site_fract_y
_atom_site_fract_z
Ce1 Ce 0.73339(4) 0.08677(6) 0.53384(3)
Ce2 Ce 1.05910(5) 0.41184(6) 0.41052(3)
C1 C 0.4878(10) 0.0267(10) 0.6001(5)
C2 C 0.5500(10) 0.0564(10) 0.6565(5)
C3 C 0.5078(10) 0.0447(10) 0.7145(5)
H1 H 0.4360 0.0118 0.7196
C4 C 0.5651(10) 0.0783(10) 0.7646(6)
H2 H 0.5367 0.0670 0.8042
C5 C 0.6661(11) 0.1295(10) 0.7542(6)
H3 H 0.7092 0.1560 0.7871
C6 C 0.7059(10) 0.1428(10) 0.6952(6)
C7 C 0.8067(10) 0.2044(10) 0.6807(6)
C8 C 0.8769(9) 0.2504(10) 0.7250(6)
H4 H 0.8633 0.2381 0.7666
C9 C 0.9667(11) 0.3141(11) 0.7062(6)
H5 H 1.0142 0.3482 0.7349
C10 C 0.9861(11) 0.3273(11) 0.6441(6)
H6 H 1.0493 0.3675 0.6305
C11 C 0.9158(11) 0.2832(11) 0.6049(6)
C12 C 0.9327(8) 0.2886(9) 0.5346(6)
C13 C 1.2787(10) 0.2459(11) 0.3988(6)
C14 C 1.2490(11) 0.2442(11) 0.3333(6)
C15 C 1.3128(12) 0.1896(11) 0.2883(7)
H7 H 1.3783 0.1502 0.2994
C16 C 1.2794(12) 0.1939(12) 0.2283(7)
H8 H 1.3216 0.1584 0.1979
C17 C 1.1832(11) 0.2512(11) 0.2142(6)
H9 H 1.1585 0.2566 0.1736
C18 C 1.1222(9) 0.3013(10) 0.2605(6)
C19 C 1.0179(10) 0.3616(10) 0.2490(5)
C20 C 0.9721(10) 0.3733(11) 0.1912(6)
H10 H 1.0107 0.3465 0.1568
C21 C 0.8717(10) 0.4236(11) 0.1857(6)
H11 H 0.8408 0.4391 0.1472
C22 C 0.8144(10) 0.4524(10) 0.2386(6)
H12 H 0.7408 0.4826 0.2359
C23 C 0.8630(10) 0.4376(9) 0.2941(6)
C24 C 0.8062(9) 0.4598(10) 0.3539(5)
N1 N 0.6494(8) 0.1024(8) 0.6472(5)
N2 N 0.8266(7) 0.2200(7) 0.6202(4)
N3 N 1.1543(8) 0.2977(8) 0.3187(5)
N4 N 0.9656(7) 0.3961(7) 0.3001(4)
N5 N 0.6482(9) 0.0686(8) 0.3973(5)
O1 O 0.5383(6) 0.0283(6) 0.5492(4)
O2 O 0.3889(7) -0.0011(7) 0.6042(4)
O3 O 0.8621(7) 0.2402(7) 0.5018(4)
O4 O 1.0128(7) 0.3415(7) 0.5153(4)
O5 O 1.2121(7) 0.2878(7) 0.4369(4)
O6 O 1.3703(6) 0.2056(6) 0.4135(5)
O7 O 0.8591(6) 0.4482(6) 0.4033(4)
O8 O 0.7070(7) 0.4837(7) 0.3514(4)
O9 O 0.6453(7) -0.0157(7) 0.4333(4)
O10 O 0.6880(8) 0.1606(8) 0.4170(5)
O11 O 0.6146(9) 0.0621(9) 0.3445(5)
O12 O 0.7146(7) -0.1278(8) 0.5519(4)
H13 H 0.6956 -0.1695 0.5223
H14 H 0.7275 -0.1543 0.5873
O13 O 0.6196(7) 0.2656(7) 0.5355(5)
H15 H 0.6007 0.2966 0.5020
H16 H 0.6006 0.2939 0.5698
O14 O 0.8806(7) 0.0036(8) 0.4651(4)
H17 H 0.8799 0.0178 0.4268
H18 H 0.9315 -0.0391 0.4798
O15 O 1.1850(7) 0.5238(7) 0.4862(4)
H19 H 1.1827 0.5930 0.4853
H20 H 1.2283 0.4914 0.5120
O16 O 0.9854(7) 0.2046(7) 0.3986(4)
H21 H 0.9207 0.1913 0.3816
H22 H 1.0268 0.1526 0.4120
O17 O 1.0281(8) 0.6294(7) 0.3933(4)
H23 H 0.9672 0.6525 0.3758
H24 H 1.0794 0.6742 0.4054
Ce1C Ce 0.23339(4) -0.08677(6) 0.53384(3)
Ce2C Ce 0.55910(5) 0.58816(6) 0.41052(3)
O2C O 0.8889(7) 0.0011(7) 0.6042(4)
O8C O 1.2070(7) 0.5163(7) 0.3514(4)
N6 N 0.3623(9) 0.3672(9) 0.5568(5)
O18 O 0.3983(7) 0.2688(7) 0.5677(4)
O19 O 0.2686(9) 0.3913(8) 0.5798(5)
O20 O 0.4119(10) 0.4385(9) 0.5269(6)
loop_
_geom_bond_atom_site_label_1
_geom_bond_atom_site_label_2
_geom_bond_site_symmetry_1
_geom_bond_site_symmetry_2
Ce1 N1 1_555 1_555
Ce2 N3 1_555 1_555
C1 C2 1_555 1_555
C2 C3 1_555 1_555
C3 H1 1_555 1_555
C4 C3 1_555 1_555
H2 C4 1_555 1_555
C5 C4 1_555 1_555
H3 C5 1_555 1_555
C6 C5 1_555 1_555
C7 C6 1_555 1_555
C8 C7 1_555 1_555
H4 C8 1_555 1_555
C9 C8 1_555 1_555
H5 C9 1_555 1_555
C10 C9 1_555 1_555
H6 C10 1_555 1_555
C11 C10 1_555 1_555
C12 C11 1_555 1_555
C13 C14 1_555 1_555
C14 C15 1_555 1_555
C15 H7 1_555 1_555
C16 C15 1_555 1_555
H8 C16 1_555 1_555
C17 C16 1_555 1_555
H9 C17 1_555 1_555
C18 C17 1_555 1_555
C19 C18 1_555 1_555
C20 C19 1_555 1_555
H10 C20 1_555 1_555
C21 C20 1_555 1_555
H11 C21 1_555 1_555
C22 C21 1_555 1_555
H12 C22 1_555 1_555
C23 C22 1_555 1_555
C24 C23 1_555 1_555
N1 C2 1_555 1_555
N2 Ce1 1_555 1_555
N3 C14 1_555 1_555
N4 Ce2 1_555 1_555
N5 O9 1_555 1_555
O1 Ce1 1_555 1_555
O2 C1 1_555 1_555
O3 Ce1 1_555 1_555
O4 Ce2 1_555 1_555
O5 Ce2 1_555 1_555
O6 C13 1_555 1_555
O7 Ce2 1_555 1_555
O8 C24 1_555 1_555
O9 Ce1 1_555 1_555
O10 Ce1 1_555 1_555
O11 N5 1_555 1_555
O12 Ce1 1_555 1_555
H13 O12 1_555 1_555
H14 O12 1_555 1_555
O13 Ce1 1_555 1_555
H15 O13 1_555 1_555
H16 O13 1_555 1_555
O14 Ce1 1_555 1_555
H17 O14 1_555 1_555
H18 O14 1_555 1_555
O15 Ce2 1_555 1_555
H19 O15 1_555 1_555
H20 O15 1_555 1_555
O16 Ce2 1_555 1_555
H21 O16 1_555 1_555
H22 O16 1_555 1_555
O17 Ce2 1_555 1_555
H23 O17 1_555 1_555
H24 O17 1_555 1_555
N6 O18 1_555 1_555
O19 N6 1_555 1_555
O20 N6 1_555 1_555
Ce1C O2 1_555 1_555
Ce2C O8 1_555 1_555
O2C Ce1 1_555 1_555
O8C Ce2 1_555 1_555
C1 O1 1_555 1_555
C6 N1 1_555 1_555
C7 N2 1_555 1_555
C11 N2 1_555 1_555
C12 O3 1_555 1_555
C12 O4 1_555 1_555
C13 O5 1_555 1_555
C18 N3 1_555 1_555
C19 N4 1_555 1_555
C23 N4 1_555 1_555
C24 O7 1_555 1_555
N5 O10 1_555 1_555

#END
