
#######################################################################
#
#                 Cambridge Crystallographic Data Centre
#                                CCDC 
#
#######################################################################
#
# If this CIF has been generated from an entry in the Cambridge 
# Structural Database, then it will include bibliographic, chemical, 
# crystal, experimental, refinement or atomic coordinate data resulting 
# from the CCDC's data processing and validation procedures.
#
#######################################################################

data_TIDTIL
_symmetry_cell_setting           orthorhombic
_symmetry_space_group_name_H-M   'P c a 21'
_symmetry_Int_Tables_number      29
_space_group_name_Hall           'P 2c -2ac'
loop_
_symmetry_equiv_pos_site_id
_symmetry_equiv_pos_as_xyz
1 x,y,z
2 -x,-y,1/2+z
3 1/2-x,y,1/2+z
4 1/2+x,-y,z
_cell_length_a                   11.568(2)
_cell_length_b                   12.246(2)
_cell_length_c                   21.723(4)
_cell_angle_alpha                90
_cell_angle_beta                 90
_cell_angle_gamma                90
_cell_volume                     3077.32
loop_
_atom_site_label
_atom_site_type_symbol
_atom_site_fract_x
_atom_site_fract_y
_atom_site_fract_z
O1 O 0.2063(9) 0.4840(9) 0.3921(5)
Pr1 Pr 0.23230(6) 0.08832(7) 0.21047(4)
Pr2 Pr 0.55919(6) 0.41135(7) 0.33411(4)
O2 O 0.2127(8) -0.1235(9) 0.1927(6)
H1 H 0.1934 -0.1650 0.2223
H2 H 0.2259 -0.1505 0.1573
C1 C 0.4663(13) 0.3156(14) 0.0384(8)
H3 H 0.5132 0.3498 0.0094
O3 O 0.3594(8) 0.4463(7) 0.3396(6)
N1 N 0.4650(10) 0.3971(11) 0.4431(6)
N2 N 0.1485(10) 0.1001(11) 0.0985(7)
O4 O 0.0372(8) 0.0291(9) 0.1952(5)
O5 O 0.3811(9) 0.0023(10) 0.2790(6)
H4 H 0.3807 0.0161 0.3173
H5 H 0.4317 -0.0403 0.2640
C2 C 0.4321(12) 0.2895(13) 0.2096(9)
C3 C 0.4739(13) 0.3742(14) 0.5505(9)
H6 H 0.5145 0.3493 0.5847
N3 N 0.6547(11) 0.2956(11) 0.4242(7)
O6 O 0.3624(9) 0.2408(9) 0.2441(5)
C4 C 0.0660(12) 0.0793(13) -0.0173(8)
H7 H 0.0379 0.0669 -0.0568
O7 O 0.1175(8) 0.2671(9) 0.2094(7)
H8 H 0.0987 0.2976 0.2430
H9 H 0.0983 0.2959 0.1753
C5 C 0.7797(13) 0.2456(14) 0.3436(9)
O8 O 0.6811(8) 0.5210(10) 0.2593(5)
H10 H 0.6796 0.5904 0.2603
H11 H 0.7237 0.4883 0.2332
O9 O 0.1148(11) 0.0640(12) 0.3996(6)
C6 C 0.2077(13) 0.1432(14) 0.0496(8)
C7 C 0.3706(12) 0.4243(13) 0.5575(8)
H12 H 0.3399 0.4385 0.5962
C8 C 0.3058(13) 0.4647(15) 0.3890(8)
C9 C 0.3135(13) 0.4534(14) 0.5047(8)
H13 H 0.2397 0.4832 0.5071
C10 C 0.4146(13) 0.2856(14) 0.1399(8)
C11 C 0.3032(12) 0.2026(14) 0.0634(8)
O10 O 0.5086(9) 0.3449(10) 0.2304(5)
C12 C 0.1640(13) 0.1302(14) -0.0104(8)
H14 H 0.2041 0.1571 -0.0442
O11 O 0.1456(9) -0.0152(10) 0.3119(5)
N4 N 0.3289(10) 0.2199(11) 0.1241(6)
C13 C 0.5167(13) 0.3608(14) 0.4944(8)
O12 O 0.8686(7) 0.2062(8) 0.3277(6)
C14 C -0.0137(14) 0.0282(15) 0.1449(8)
C15 C 0.3638(12) 0.4387(13) 0.4494(8)
O13 O 0.1882(9) 0.1619(10) 0.3266(6)
C16 C 0.0501(13) 0.0542(16) 0.0898(8)
C17 C 0.7805(13) 0.1952(15) 0.5138(9)
H15 H 0.8247 0.1609 0.5439
C18 C 0.6227(13) 0.3013(14) 0.4832(8)
C19 C 0.3750(11) 0.2508(13) 0.0196(8)
H16 H 0.3616 0.2393 -0.0221
C20 C 0.6870(12) 0.2480(13) 0.5286(9)
H17 H 0.6629 0.2503 0.5694
C21 C 0.7477(14) 0.2438(15) 0.4095(9)
N5 N 0.1473(10) 0.0676(12) 0.3473(7)
O14 O 0.4843(9) 0.2064(9) 0.3464(5)
H18 H 0.4199 0.1938 0.3638
H19 H 0.5248 0.1537 0.3328
C22 C 0.8120(13) 0.1910(13) 0.4543(9)
H20 H 0.8778 0.1522 0.4431
O15 O -0.1119(9) -0.0040(10) 0.1412(5)
C23 C 0.0071(13) 0.0459(14) 0.0291(8)
H21 H -0.0655 0.0156 0.0226
C24 C 0.4872(13) 0.3292(14) 0.1013(8)
H22 H 0.5511 0.3682 0.1152
O16 O 0.5303(10) 0.6282(9) 0.3514(5)
H23 H 0.4699 0.6519 0.3693
H24 H 0.5817 0.6727 0.3390
O17 O 0.7118(9) 0.2881(9) 0.3058(6)
O1C O 0.7063(9) 0.5160(9) 0.3921(5)
Pr1C Pr -0.26770(6) -0.08832(7) 0.21047(4)
Pr2C Pr 0.05919(6) 0.58865(7) 0.33411(4)
O15C O 0.3881(9) 0.0040(10) 0.1412(5)
N6 N 0.6416(12) 0.3657(13) 0.6856(7)
O18 O 0.5913(11) 0.4364(11) 0.7157(9)
O19 O 0.6068(9) 0.2672(10) 0.6750(6)
O20 O 0.7357(11) 0.3894(11) 0.6634(7)
loop_
_geom_bond_atom_site_label_1
_geom_bond_atom_site_label_2
_geom_bond_site_symmetry_1
_geom_bond_site_symmetry_2
O1 C8 1_555 1_555
Pr1 O2 1_555 1_555
Pr2 O3 1_555 1_555
O2 H1 1_555 1_555
H2 O2 1_555 1_555
C1 H3 1_555 1_555
O3 C8 1_555 1_555
N1 Pr2 1_555 1_555
N2 Pr1 1_555 1_555
O4 Pr1 1_555 1_555
O5 Pr1 1_555 1_555
H4 O5 1_555 1_555
H5 O5 1_555 1_555
C2 O6 1_555 1_555
C3 H6 1_555 1_555
N3 Pr2 1_555 1_555
O6 Pr1 1_555 1_555
C4 H7 1_555 1_555
O7 Pr1 1_555 1_555
H8 O7 1_555 1_555
H9 O7 1_555 1_555
C5 O12 1_555 1_555
O8 Pr2 1_555 1_555
H10 O8 1_555 1_555
H11 O8 1_555 1_555
O9 N5 1_555 1_555
C6 N2 1_555 1_555
C7 C3 1_555 1_555
H12 C7 1_555 1_555
C8 C15 1_555 1_555
C9 C7 1_555 1_555
H13 C9 1_555 1_555
C10 C2 1_555 1_555
C11 C6 1_555 1_555
O10 Pr2 1_555 1_555
C12 C4 1_555 1_555
H14 C12 1_555 1_555
O11 Pr1 1_555 1_555
N4 Pr1 1_555 1_555
C13 N1 1_555 1_555
C14 O4 1_555 1_555
C15 N1 1_555 1_555
O13 Pr1 1_555 1_555
C16 N2 1_555 1_555
C17 H15 1_555 1_555
C18 N3 1_555 1_555
C19 C1 1_555 1_555
H16 C19 1_555 1_555
C20 C17 1_555 1_555
H17 C20 1_555 1_555
C21 N3 1_555 1_555
N5 O11 1_555 1_555
O14 Pr2 1_555 1_555
H18 O14 1_555 1_555
H19 O14 1_555 1_555
C22 C17 1_555 1_555
H20 C22 1_555 1_555
O15 C14 1_555 1_555
C23 C4 1_555 1_555
H21 C23 1_555 1_555
C24 C1 1_555 1_555
H22 C24 1_555 1_555
O16 Pr2 1_555 1_555
H23 O16 1_555 1_555
H24 O16 1_555 1_555
O17 Pr2 1_555 1_555
N6 O18 1_555 1_555
O19 N6 1_555 1_555
O20 N6 1_555 1_555
O1C Pr2 1_555 1_555
Pr1C O15 1_555 1_555
Pr2C O1 1_555 1_555
O15C Pr1 1_555 1_555
C2 O10 1_555 1_555
C3 C13 1_555 1_555
C5 C21 1_555 1_555
C5 O17 1_555 1_555
C6 C12 1_555 1_555
C9 C15 1_555 1_555
C10 N4 1_555 1_555
C10 C24 1_555 1_555
C11 N4 1_555 1_555
C11 C19 1_555 1_555
C13 C18 1_555 1_555
C14 C16 1_555 1_555
O13 N5 1_555 1_555
C16 C23 1_555 1_555
C18 C20 1_555 1_555
C21 C22 1_555 1_555

#END
