
#######################################################################
#
#                 Cambridge Crystallographic Data Centre
#                                CCDC 
#
#######################################################################
#
# If this CIF has been generated from an entry in the Cambridge 
# Structural Database, then it will include bibliographic, chemical, 
# crystal, experimental, refinement or atomic coordinate data resulting 
# from the CCDC's data processing and validation procedures.
#
#######################################################################

data_TIDVIM
_symmetry_cell_setting           triclinic
_symmetry_space_group_name_H-M   'P -1'
_symmetry_Int_Tables_number      2
_space_group_name_Hall           '-P 1'
loop_
_symmetry_equiv_pos_site_id
_symmetry_equiv_pos_as_xyz
1 x,y,z
2 -x,-y,-z
_cell_length_a                   7.9767(11)
_cell_length_b                   15.271(2)
_cell_length_c                   16.199(2)
_cell_angle_alpha                105.300(2)
_cell_angle_beta                 97.495(2)
_cell_angle_gamma                91.118(2)
_cell_volume                     1884.03
loop_
_atom_site_label
_atom_site_type_symbol
_atom_site_fract_x
_atom_site_fract_y
_atom_site_fract_z
Mn1 Mn 0.11591(6) 0.23941(3) 0.70447(3)
N1 N 0.1292(4) 0.1466(2) 0.79461(19)
N2 N 0.3349(5) -0.0950(3) 1.1095(2)
N3 N 0.0961(4) 0.3418(2) 0.6231(2)
N4 N 0.2643(4) 0.3459(2) 0.81638(19)
C1 C 0.2014(5) 0.0668(3) 0.7752(2)
H1 H 0.2272 0.0442 0.7194
C2 C 0.2398(5) 0.0161(3) 0.8333(2)
H2 H 0.2904 -0.0389 0.8166
C3 C 0.2023(4) 0.0479(2) 0.9171(2)
C4 C 0.1241(5) 0.1290(3) 0.9365(3)
H3 H 0.0950 0.1525 0.9914
C5 C 0.0890(5) 0.1751(3) 0.8743(3)
H4 H 0.0343 0.2291 0.8888
C6 C 0.3061(6) -0.1389(3) 1.0256(3)
H5 H 0.3165 -0.2015 1.0093
C7 C 0.2613(6) -0.0952(3) 0.9617(3)
H6 H 0.2404 -0.1286 0.9041
C8 C 0.2478(5) -0.0023(3) 0.9832(2)
C9 C 0.2771(6) 0.0432(3) 1.0707(3)
H7 H 0.2681 0.1058 1.0890
C10 C 0.3197(6) -0.0060(3) 1.1296(3)
H8 H 0.3392 0.0256 1.1878
C11 C 0.0571(10) 0.3173(3) 0.5389(3)
H9 H 0.0541 0.2556 0.5108
C12 C 0.0203(11) 0.3766(3) 0.4895(3)
H10 H -0.0061 0.3540 0.4298
C13 C 0.0216(5) 0.4671(2) 0.5256(2)
C14 C 0.0654(7) 0.4934(3) 0.6126(3)
H11 H 0.0718 0.5548 0.6420
C15 C 0.1004(7) 0.4294(3) 0.6580(3)
H12 H 0.1292 0.4502 0.7177
C16 C 0.4319(6) 0.3553(4) 0.8265(4)
H13 H 0.4882 0.3201 0.7838
C17 C 0.5268(6) 0.4142(5) 0.8967(4)
H14 H 0.6442 0.4178 0.9004
C18 C 0.4501(5) 0.4678(3) 0.9614(2)
C19 C 0.2786(5) 0.4594(3) 0.9502(3)
H15 H 0.2191 0.4947 0.9914
C20 C 0.1922(5) 0.3988(3) 0.8782(3)
H16 H 0.0746 0.3950 0.8727
O11 O -0.1296(3) 0.28086(17) 0.74203(16)
H32 H -0.1879 0.3148 0.7162
H33 H -0.1948 0.2393 0.7490
O12 O -0.0030(3) 0.12887(17) 0.59647(16)
H34 H 0.0450 0.1079 0.5515
H35 H -0.0713 0.0880 0.6022
O13 O 0.3511(3) 0.19471(18) 0.65294(16)
H36 H 0.3294 0.1659 0.6002
H37 H 0.4351 0.1748 0.6785
Mn1A Mn -0.11591(6) 0.76059(3) 0.29553(3)
Mn1A_2 Mn 0.88409(6) 0.76059(3) 1.29553(3)
N1A N -0.1292(4) 0.8534(2) 0.20539(19)
N2A N -0.3349(5) 1.0950(3) -0.1095(2)
N3A N -0.0961(4) 0.6582(2) 0.3769(2)
N4A N 0.7357(4) 0.6541(2) 1.18362(19)
N4A_2 N -0.2643(4) 0.6541(2) 0.18362(19)
C1A C -0.2014(5) 0.9332(3) 0.2248(2)
H1A H -0.2272 0.9558 0.2806
C2A C -0.2398(5) 0.9839(3) 0.1667(2)
H2A H -0.2904 1.0389 0.1834
C3A C -0.2023(4) 0.9521(2) 0.0829(2)
C4A C -0.1241(5) 0.8710(3) 0.0635(3)
H3A H -0.0950 0.8475 0.0086
C5A C -0.0890(5) 0.8249(3) 0.1257(3)
H4A H -0.0343 0.7709 0.1112
C6A C -0.3061(6) 1.1389(3) -0.0256(3)
H5A H -0.3165 1.2015 -0.0093
C7A C -0.2613(6) 1.0952(3) 0.0383(3)
H6A H -0.2404 1.1286 0.0959
C8A C -0.2478(5) 1.0023(3) 0.0168(2)
C9A C -0.2771(6) 0.9568(3) -0.0707(3)
H7A H -0.2681 0.8942 -0.0890
C10A C -0.3197(6) 1.0060(3) -0.1296(3)
H8A H -0.3392 0.9744 -0.1878
C11A C -0.0571(10) 0.6827(3) 0.4611(3)
H9A H -0.0541 0.7444 0.4892
C12A C -0.0203(11) 0.6234(3) 0.5105(3)
H10A H 0.0061 0.6460 0.5702
C13A C -0.0216(5) 0.5329(2) 0.4744(2)
C14A C -0.0654(7) 0.5066(3) 0.3874(3)
H11A H -0.0718 0.4452 0.3580
C15A C -0.1004(7) 0.5706(3) 0.3420(3)
H12A H -0.1292 0.5498 0.2823
C16A C 0.5681(6) 0.6447(4) 1.1735(4)
H13A H 0.5118 0.6799 1.2162
C17A C 0.4732(6) 0.5858(5) 1.1033(4)
H14A H 0.3558 0.5822 1.0996
C18A C 0.5499(5) 0.5322(3) 1.0386(2)
C19A C 0.7214(5) 0.5406(3) 1.0498(3)
H15A H 0.7809 0.5053 1.0086
C20A C 0.8078(5) 0.6012(3) 1.1218(3)
H16A H 0.9254 0.6050 1.1273
O11A O 0.1296(3) 0.71914(17) 0.25797(16)
H32A H 0.1879 0.6852 0.2838
H33A H 0.1948 0.7607 0.2510
O12A O 0.0030(3) 0.87113(17) 0.40353(16)
H34A H -0.0450 0.8921 0.4485
H35A H 0.0713 0.9120 0.3978
O13A O -0.3511(3) 0.80529(18) 0.34706(16)
H36A H -0.3294 0.8341 0.3998
H37A H -0.4351 0.8252 0.3215
N5 N 0.3301(4) 0.6174(3) 0.3487(2)
C31 C 0.3955(8) 0.6602(3) 0.4280(4)
H28 H 0.3945 0.7233 0.4445
C32 C 0.4658(8) 0.6177(3) 0.4886(3)
H29 H 0.5130 0.6522 0.5433
C33 C 0.4659(5) 0.5249(3) 0.4680(2)
C34 C 0.4016(6) 0.4804(3) 0.3847(3)
H30 H 0.4027 0.4174 0.3659
C35 C 0.3351(7) 0.5288(3) 0.3284(3)
H31 H 0.2910 0.4963 0.2724
N5A N 0.6699(4) 0.3826(3) 0.6513(2)
C31A C 0.6045(8) 0.3398(3) 0.5720(4)
H28A H 0.6055 0.2767 0.5555
C32A C 0.5342(8) 0.3823(3) 0.5114(3)
H29A H 0.4870 0.3478 0.4567
C33A C 0.5341(5) 0.4751(3) 0.5320(2)
C34A C 0.5984(6) 0.5196(3) 0.6153(3)
H30A H 0.5973 0.5826 0.6341
C35A C 0.6649(7) 0.4712(3) 0.6716(3)
H31A H 0.7090 0.5037 0.7276
O1 O 0.2169(4) -0.01049(19) 0.37011(19)
O2 O 0.2277(4) 0.1058(2) 0.48615(17)
C21 C 0.2604(4) 0.0698(3) 0.4120(2)
C22 C 0.3574(4) 0.1268(2) 0.3682(2)
C23 C 0.2666(4) 0.1738(2) 0.3157(2)
C24 C 0.3550(5) 0.2258(3) 0.2748(2)
H17 H 0.2951 0.2579 0.2403
C25 C 0.5309(5) 0.2305(3) 0.2845(3)
C26 C 0.6168(5) 0.1831(3) 0.3365(3)
H18 H 0.7345 0.1859 0.3433
C27 C 0.5335(4) 0.1312(2) 0.3794(2)
C28 C 0.0758(5) 0.1683(3) 0.3010(3)
H19 H 0.0353 0.1075 0.2694
H20 H 0.0364 0.2100 0.2686
H21 H 0.0341 0.1838 0.3557
C29 C 0.6332(5) 0.0815(3) 0.4363(3)
H22 H 0.6107 0.1046 0.4947
H23 H 0.7519 0.0905 0.4343
H24 H 0.6007 0.0178 0.4163
C30 C 0.6232(7) 0.2870(3) 0.2387(4)
H25 H 0.6280 0.3499 0.2704
H26 H 0.5640 0.2796 0.1815
H27 H 0.7362 0.2672 0.2350
Cl1 Cl 0.9676(2) 0.64224(11) 0.88431(10)
O3 O 1.0438(10) 0.6521(6) 0.9726(4)
O4 O 1.0691(15) 0.5922(7) 0.8260(6)
O5 O 0.7974(12) 0.6165(11) 0.8726(9)
O6 O 0.9838(11) 0.7343(5) 0.8725(5)
O14 O 0.3642(3) 0.85683(17) 0.26330(16)
H38 H 0.3579 0.8670 0.2135
H39 H 0.3259 0.9014 0.2984
O7? O 1.0928(18) 0.6662(11) 0.9535(9)
O8? O 0.9137(10) 0.5453(4) 0.8652(5)
O9? O 0.8081(12) 0.6861(8) 0.8972(7)
O10? O 1.0053(17) 0.6505(10) 0.8042(7)
loop_
_geom_bond_atom_site_label_1
_geom_bond_atom_site_label_2
_geom_bond_site_symmetry_1
_geom_bond_site_symmetry_2
Mn1 N1 1_555 1_555
N1 C1 1_555 1_555
N2 C6 1_555 1_555
N3 Mn1 1_555 1_555
N4 Mn1 1_555 1_555
N5 C31 1_555 1_555
O1 C21 1_555 1_555
O2 C21 1_555 1_555
C1 H1 1_555 1_555
C2 C1 1_555 1_555
H2 C2 1_555 1_555
C3 C2 1_555 1_555
C4 C3 1_555 1_555
H3 C4 1_555 1_555
C5 N1 1_555 1_555
H4 C5 1_555 1_555
C6 H5 1_555 1_555
C7 C6 1_555 1_555
H6 C7 1_555 1_555
C8 C3 1_555 1_555
C9 C8 1_555 1_555
H7 C9 1_555 1_555
C10 N2 1_555 1_555
H8 C10 1_555 1_555
C11 N3 1_555 1_555
H9 C11 1_555 1_555
C12 C11 1_555 1_555
H10 C12 1_555 1_555
C13 C12 1_555 1_555
C14 C13 1_555 1_555
H11 C14 1_555 1_555
C15 N3 1_555 1_555
H12 C15 1_555 1_555
C16 N4 1_555 1_555
H13 C16 1_555 1_555
C17 C16 1_555 1_555
H14 C17 1_555 1_555
C18 C17 1_555 1_555
C19 C18 1_555 1_555
H15 C19 1_555 1_555
C20 N4 1_555 1_555
H16 C20 1_555 1_555
C21 C22 1_555 1_555
C22 C23 1_555 1_555
C23 C24 1_555 1_555
C24 H17 1_555 1_555
C25 C24 1_555 1_555
C26 C25 1_555 1_555
H18 C26 1_555 1_555
C27 C22 1_555 1_555
C28 C23 1_555 1_555
H19 C28 1_555 1_555
H20 C28 1_555 1_555
H21 C28 1_555 1_555
C29 C27 1_555 1_555
H22 C29 1_555 1_555
H23 C29 1_555 1_555
H24 C29 1_555 1_555
C30 C25 1_555 1_555
H25 C30 1_555 1_555
H26 C30 1_555 1_555
H27 C30 1_555 1_555
C31 H28 1_555 1_555
C32 C31 1_555 1_555
H29 C32 1_555 1_555
C33 C32 1_555 1_555
C34 C33 1_555 1_555
H30 C34 1_555 1_555
C35 N5 1_555 1_555
H31 C35 1_555 1_555
Cl1 O3 1_555 1_555
O4 Cl1 1_555 1_555
O5 Cl1 1_555 1_555
O6 Cl1 1_555 1_555
O11 Mn1 1_555 1_555
H32 O11 1_555 1_555
H33 O11 1_555 1_555
O12 Mn1 1_555 1_555
H34 O12 1_555 1_555
H35 O12 1_555 1_555
O13 Mn1 1_555 1_555
H36 O13 1_555 1_555
H37 O13 1_555 1_555
O14 H38 1_555 1_555
H39 O14 1_555 1_555
Mn1A N1A 1_555 1_555
Mn1A_2 N4A 1_555 1_555
N1A C1A 1_555 1_555
N2A C6A 1_555 1_555
N3A Mn1A 1_555 1_555
N4A C16A 1_555 1_555
N4A_2 Mn1A 1_555 1_555
N5A C31A 1_555 1_555
C1A H1A 1_555 1_555
C2A C1A 1_555 1_555
H2A C2A 1_555 1_555
C3A C2A 1_555 1_555
C4A C3A 1_555 1_555
H3A C4A 1_555 1_555
C5A N1A 1_555 1_555
H4A C5A 1_555 1_555
C6A H5A 1_555 1_555
C7A C6A 1_555 1_555
H6A C7A 1_555 1_555
C8A C3A 1_555 1_555
C9A C8A 1_555 1_555
H7A C9A 1_555 1_555
C10A N2A 1_555 1_555
H8A C10A 1_555 1_555
C11A N3A 1_555 1_555
H9A C11A 1_555 1_555
C12A C11A 1_555 1_555
H10A C12A 1_555 1_555
C13A C13 1_555 1_555
C14A C13A 1_555 1_555
H11A C14A 1_555 1_555
C15A N3A 1_555 1_555
H12A C15A 1_555 1_555
C16A H13A 1_555 1_555
C17A C16A 1_555 1_555
H14A C17A 1_555 1_555
C18A C18 1_555 1_555
C19A C18A 1_555 1_555
H15A C19A 1_555 1_555
C20A N4A 1_555 1_555
H16A C20A 1_555 1_555
C31A H28A 1_555 1_555
C32A C31A 1_555 1_555
H29A C32A 1_555 1_555
C33A C33 1_555 1_555
C34A C33A 1_555 1_555
H30A C34A 1_555 1_555
C35A N5A 1_555 1_555
H31A C35A 1_555 1_555
O11A Mn1A 1_555 1_555
H32A O11A 1_555 1_555
H33A O11A 1_555 1_555
O12A Mn1A 1_555 1_555
H34A O12A 1_555 1_555
H35A O12A 1_555 1_555
O13A Mn1A 1_555 1_555
H36A O13A 1_555 1_555
H37A O13A 1_555 1_555
C4 C5 1_555 1_555
C7 C8 1_555 1_555
C9 C10 1_555 1_555
C14 C15 1_555 1_555
C19 C20 1_555 1_555
C26 C27 1_555 1_555
C34 C35 1_555 1_555
C4A C5A 1_555 1_555
C7A C8A 1_555 1_555
C9A C10A 1_555 1_555
C12A C13A 1_555 1_555
C14A C15A 1_555 1_555
C17A C18A 1_555 1_555
C19A C20A 1_555 1_555
C32A C33A 1_555 1_555
C34A C35A 1_555 1_555

#END
