
#######################################################################
#
#                 Cambridge Crystallographic Data Centre
#                                CCDC 
#
#######################################################################
#
# If this CIF has been generated from an entry in the Cambridge 
# Structural Database, then it will include bibliographic, chemical, 
# crystal, experimental, refinement or atomic coordinate data resulting 
# from the CCDC's data processing and validation procedures.
#
#######################################################################

data_TIDWEK
_symmetry_cell_setting           triclinic
_symmetry_space_group_name_H-M   'P -1'
_symmetry_Int_Tables_number      2
_space_group_name_Hall           '-P 1'
loop_
_symmetry_equiv_pos_site_id
_symmetry_equiv_pos_as_xyz
1 x,y,z
2 -x,-y,-z
_cell_length_a                   11.607(3)
_cell_length_b                   12.017(3)
_cell_length_c                   14.235(3)
_cell_angle_alpha                67.901(4)
_cell_angle_beta                 79.785(4)
_cell_angle_gamma                75.774(4)
_cell_volume                     1775.25
loop_
_atom_site_label
_atom_site_type_symbol
_atom_site_fract_x
_atom_site_fract_y
_atom_site_fract_z
Cd1 Cd 0.16129(4) 0.44496(4) 0.42755(3)
Cd2 Cd -0.08376(4) 0.23161(4) 0.58426(3)
C1 C 0.0916(5) 0.3782(5) 0.6469(4)
C2 C 0.0927(5) 0.3615(5) 0.7570(4)
C3 C 0.0062(5) 0.3112(6) 0.8303(4)
H1 H -0.0515 0.2813 0.8143
C4 C 0.0086(5) 0.3071(5) 0.9280(4)
C5 C 0.0907(5) 0.3524(5) 0.9543(4)
C6 C 0.1796(5) 0.4020(6) 0.8813(4)
H2 H 0.2370 0.4318 0.8979
C7 C 0.1787(5) 0.4048(5) 0.7832(4)
H3 H 0.2373 0.4366 0.7333
C8 C 0.0724(5) 0.3438(5) 1.0618(4)
C9 C -0.0232(5) 0.2896(5) 1.1158(4)
C10 C -0.0573(5) 0.2743(6) 1.2153(4)
H4 H -0.1207 0.2358 1.2496
C11 C 0.0055(5) 0.3180(5) 1.2648(4)
C12 C -0.0291(5) 0.3039(6) 1.3752(4)
C13 C 0.1005(5) 0.3734(6) 1.2122(4)
H5 H 0.1418 0.4022 1.2458
C14 C 0.1360(5) 0.3872(5) 1.1105(4)
H6 H 0.2003 0.4243 1.0760
C15 C 0.2864(5) 0.6163(6) 0.3032(4)
C16 C 0.3769(5) 0.6861(6) 0.2344(4)
C17 C 0.4446(5) 0.7381(6) 0.2707(4)
H7 H 0.4316 0.7311 0.3389
C18 C 0.5317(6) 0.8005(6) 0.2083(5)
H8 H 0.5763 0.8349 0.2343
C19 C 0.5512(5) 0.8109(6) 0.1065(4)
C20 C 0.4817(5) 0.7589(5) 0.0710(4)
C21 C 0.3962(5) 0.6959(6) 0.1330(5)
H9 H 0.3521 0.6605 0.1073
C22 C 0.6378(5) 0.8741(5) 0.0268(4)
C23 C 0.7192(5) 0.9351(6) 0.0326(4)
H10 H 0.7305 0.9362 0.0953
C24 C 0.7852(5) 0.9956(5) -0.0549(4)
H11 H 0.8396 1.0384 -0.0506
C25 C 0.7710(5) 0.9932(5) -0.1493(4)
C26 C 0.8310(5) 1.0713(6) -0.2444(4)
C27 C 0.6932(5) 0.9271(5) -0.1556(4)
H12 H 0.6841 0.9233 -0.2178
C28 C 0.6290(5) 0.8668(5) -0.0679(4)
C29 C 0.1611(6) 0.0450(6) 0.6726(5)
H13 H 0.1302 0.0678 0.7290
C30 C 0.2702(6) -0.0344(6) 0.6758(5)
H14 H 0.3110 -0.0647 0.7337
C31 C 0.3188(6) -0.0690(6) 0.5915(5)
C32 C 0.2513(6) -0.0246(6) 0.5099(5)
H15 H 0.2790 -0.0470 0.4529
C33 C 0.1428(6) 0.0529(6) 0.5130(5)
H16 H 0.0985 0.0804 0.4574
C34 C 0.4382(6) -0.1488(6) 0.5886(5)
C35 C 0.4965(7) -0.2160(9) 0.6726(6)
H17 H 0.4617 -0.2123 0.7357
C36 C 0.6061(8) -0.2893(9) 0.6658(6)
H18 H 0.6419 -0.3350 0.7258
C37 C 0.6094(7) -0.2333(8) 0.4993(6)
H19 H 0.6472 -0.2379 0.4371
C38 C 0.4993(7) -0.1571(8) 0.4994(5)
H20 H 0.4663 -0.1109 0.4382
N1 N 0.0976(4) 0.0908(5) 0.5906(4)
N2 N 0.6639(5) -0.2995(5) 0.5809(4)
O1 O 0.1860(4) 0.3959(4) 0.5895(3)
O2 O -0.0041(4) 0.3791(4) 0.6165(3)
O3 O -0.1107(4) 0.2480(4) 1.4227(3)
O4 O 0.0252(4) 0.3471(4) 1.4184(3)
O5 O -0.0834(4) 0.1207(4) 1.0662(3)
O6 O -0.2099(4) 0.3274(5) 1.0193(3)
O7 O 0.2463(4) 0.5503(4) 0.2721(3)
O8 O 0.2549(4) 0.6225(4) 0.3924(3)
O9 O 0.8920(4) 1.1403(4) -0.2386(3)
O10 O 0.8139(4) 1.0697(4) -0.3286(3)
O11 O 0.5734(4) 0.6704(4) -0.0764(3)
O12 O 0.4247(4) 0.8616(4) -0.1198(3)
S1 S -0.09367(14) 0.25080(15) 1.03459(11)
S2 S 0.52026(14) 0.78341(15) -0.05965(11)
Cd1_2 Cd 0.16129(4) 0.44496(4) 1.42755(3)
Cd1A Cd -0.16129(4) 0.55504(4) 0.57245(3)
Cd1A_2 Cd 0.83871(4) -0.44496(4) 0.57245(3)
Cd2_2 Cd -0.08376(4) 0.23161(4) 1.58426(3)
Cd2_3 Cd 0.91624(4) 1.23161(4) -0.41574(3)
Cd2A Cd 0.08376(4) 0.76839(4) 0.41574(3)
N2A N 0.3361(5) 0.2995(5) 0.4191(4)
O2A O 0.0041(4) 0.6209(4) 0.3835(3)
O3_2 O -0.1107(4) 0.2480(4) 0.4227(3)
O4_2 O 0.0252(4) 0.3471(4) 0.4184(3)
O8A O -0.2549(4) 0.3775(4) 0.6076(3)
O9_2 O -0.1080(4) 0.1403(4) 0.7614(3)
O10_2 O -0.1861(4) 0.0697(4) 0.6714(3)
loop_
_geom_bond_atom_site_label_1
_geom_bond_atom_site_label_2
_geom_bond_site_symmetry_1
_geom_bond_site_symmetry_2
Cd1 O1 1_555 1_555
Cd2 N1 1_555 1_555
C1 C2 1_555 1_555
C2 C3 1_555 1_555
C3 H1 1_555 1_555
C4 C3 1_555 1_555
C5 C4 1_555 1_555
C6 C5 1_555 1_555
H2 C6 1_555 1_555
C7 C2 1_555 1_555
H3 C7 1_555 1_555
C8 C5 1_555 1_555
C9 C8 1_555 1_555
C10 C9 1_555 1_555
H4 C10 1_555 1_555
C11 C10 1_555 1_555
C12 C11 1_555 1_555
C13 C11 1_555 1_555
H5 C13 1_555 1_555
C14 C8 1_555 1_555
H6 C14 1_555 1_555
C15 C16 1_555 1_555
C16 C17 1_555 1_555
C17 H7 1_555 1_555
C18 C17 1_555 1_555
H8 C18 1_555 1_555
C19 C18 1_555 1_555
C20 C19 1_555 1_555
C21 C16 1_555 1_555
H9 C21 1_555 1_555
C22 C19 1_555 1_555
C23 C22 1_555 1_555
H10 C23 1_555 1_555
C24 C23 1_555 1_555
H11 C24 1_555 1_555
C25 C24 1_555 1_555
C26 C25 1_555 1_555
C27 C25 1_555 1_555
H12 C27 1_555 1_555
C28 C22 1_555 1_555
C29 H13 1_555 1_555
C30 C29 1_555 1_555
H14 C30 1_555 1_555
C31 C30 1_555 1_555
C32 C31 1_555 1_555
H15 C32 1_555 1_555
C33 C32 1_555 1_555
H16 C33 1_555 1_555
C34 C31 1_555 1_555
C35 C34 1_555 1_555
H17 C35 1_555 1_555
C36 C35 1_555 1_555
H18 C36 1_555 1_555
C37 H19 1_555 1_555
C38 C34 1_555 1_555
H20 C38 1_555 1_555
N1 C29 1_555 1_555
N2 C36 1_555 1_555
O1 C1 1_555 1_555
O2 Cd2 1_555 1_555
O3 C12 1_555 1_555
O4 C12 1_555 1_555
O5 S1 1_555 1_555
O6 S1 1_555 1_555
O7 Cd1 1_555 1_555
O8 Cd1 1_555 1_555
O9 C26 1_555 1_555
O10 C26 1_555 1_555
O11 S2 1_555 1_555
O12 S2 1_555 1_555
S1 C4 1_555 1_555
S2 C20 1_555 1_555
Cd1_2 O4 1_555 1_555
Cd1A O2 1_555 1_555
Cd1A_2 N2 1_555 1_555
Cd2_2 O3 1_555 1_555
Cd2_3 O9 1_555 1_555
Cd2A O8 1_555 1_555
N2A Cd1 1_555 1_555
O2A Cd1 1_555 1_555
O3_2 Cd2 1_555 1_555
O4_2 Cd1 1_555 1_555
O8A Cd2 1_555 1_555
O9_2 Cd2 1_555 1_555
O10_2 Cd2 1_555 1_555
Cd2 O4_2 1_555 1_555
C1 O2 1_555 1_555
C6 C7 1_555 1_555
C9 S1 1_555 1_555
C13 C14 1_555 1_555
C15 O7 1_555 1_555
C15 O8 1_555 1_555
C20 C21 1_555 1_555
C27 C28 1_555 1_555
C28 S2 1_555 1_555
C33 N1 1_555 1_555
C37 C38 1_555 1_555
C37 N2 1_555 1_555
O4 Cd2_2 1_555 1_555
O10 Cd2_3 1_555 1_555
Cd1A O8A 1_555 1_555
Cd2A O2A 1_555 1_555

#END
