
#######################################################################
#
#                 Cambridge Crystallographic Data Centre
#                                CCDC 
#
#######################################################################
#
# If this CIF has been generated from an entry in the Cambridge 
# Structural Database, then it will include bibliographic, chemical, 
# crystal, experimental, refinement or atomic coordinate data resulting 
# from the CCDC's data processing and validation procedures.
#
#######################################################################

data_TIDXUA
_symmetry_cell_setting           triclinic
_symmetry_space_group_name_H-M   'P -1'
_symmetry_Int_Tables_number      2
_space_group_name_Hall           '-P 1'
loop_
_symmetry_equiv_pos_site_id
_symmetry_equiv_pos_as_xyz
1 x,y,z
2 -x,-y,-z
_cell_length_a                   10.192(2)
_cell_length_b                   11.455(3)
_cell_length_c                   12.460(3)
_cell_angle_alpha                68.377(5)
_cell_angle_beta                 67.275(12)
_cell_angle_gamma                71.821(7)
_cell_volume                     1222.69
loop_
_atom_site_label
_atom_site_type_symbol
_atom_site_fract_x
_atom_site_fract_y
_atom_site_fract_z
C21 C 0.4466(6) 0.9409(6) 0.8162(6)
H16 H 0.4329 0.9602 0.7390
C22 C 0.4764(7) 1.0337(6) 0.8457(5)
H17 H 0.4830 1.1144 0.7907
C23 C 0.4962(7) 1.0059(6) 0.9575(6)
H18 H 0.5167 1.0700 0.9779
C24 C 0.4863(5) 0.8853(5) 1.0397(5)
H19 H 0.5000 0.8661 1.1169
C25 C 0.4566(6) 0.7925(6) 1.0102(5)
H20 H 0.4498 0.7092 1.0670
N3 N 0.4368(6) 0.8203(5) 0.8984(5)
C21A C 0.5534(6) 1.0591(6) 1.1838(6)
H16A H 0.5671 1.0398 1.2610
C22A C 0.5236(7) 0.9663(6) 1.1543(5)
H17A H 0.5170 0.8856 1.2093
C23A C 0.5038(7) 0.9941(6) 1.0425(6)
H18A H 0.4833 0.9300 1.0221
C24A C 0.5137(5) 1.1147(5) 0.9603(5)
H19A H 0.5000 1.1339 0.8831
C25A C 0.5434(6) 1.2075(6) 0.9898(5)
H20A H 0.5502 1.2908 0.9330
N3A N 0.5632(6) 1.1797(5) 1.1016(5)
O7 O 0.5178(4) 0.3441(3) 0.2359(3)
H24 H 0.4691 0.3790 0.2934
H25 H 0.4666 0.2943 0.2436
C1 C 0.2265(3) 0.7452(3) 0.4315(3)
C2 C 0.3865(3) 0.7032(3) 0.4089(2)
C3 C 0.4605(3) 0.7549(3) 0.4474(2)
H1 H 0.4098 0.8125 0.4932
C4 C 0.6114(3) 0.7202(3) 0.4174(2)
C5 C 0.6867(3) 0.6373(3) 0.3487(3)
H2 H 0.7873 0.6156 0.3286
C6 C 0.6160(3) 0.5859(3) 0.3092(3)
C7 C 0.4623(3) 0.6190(3) 0.3407(3)
H3 H 0.4131 0.5837 0.3150
C8 C 0.6910(3) 0.7776(3) 0.4607(3)
C9 C -0.0984(3) 0.5504(3) 0.6411(3)
H4 H -0.1076 0.5398 0.5740
C10 C -0.1192(3) 0.4538(3) 0.7470(3)
H5 H -0.1444 0.3805 0.7515
C11 C -0.1031(3) 0.4648(3) 0.8461(2)
C12 C -0.0684(3) 0.5790(3) 0.8337(3)
H6 H -0.0583 0.5918 0.8994
C13 C -0.0493(3) 0.6716(3) 0.7251(3)
H7 H -0.0241 0.7460 0.7183
C14 C -0.1227(3) 0.3601(3) 0.9651(2)
H8 H -0.2095 0.3288 0.9841
H9 H -0.1353 0.3948 1.0294
C15 C 0.0068(3) 0.2503(3) 0.9588(3)
H10 H 0.0941 0.2823 0.9366
H11 H 0.0171 0.2135 0.8966
C16 C -0.0103(3) 0.1466(3) 1.0807(3)
C17 C 0.1030(3) 0.0531(3) 1.0977(3)
H12 H 0.1858 0.0453 1.0319
C18 C 0.1009(3) -0.0321(3) 1.2098(3)
H13 H 0.1879 -0.0841 1.2209
C19 C -0.1339(3) 0.0412(3) 1.2817(3)
H14 H -0.2233 0.0359 1.3414
C20 C -0.1268(4) 0.1394(3) 1.1728(3)
H15 H -0.2125 0.1956 1.1634
N1 N -0.0650(3) 0.6605(2) 0.62939(19)
N2 N -0.0188(3) -0.0436(2) 1.3024(2)
Ni1 Ni -0.03767(4) 0.80797(4) 0.46768(3)
O1 O 0.1628(2) 0.69601(19) 0.39514(17)
O2 O 0.1550(2) 0.82959(19) 0.48567(17)
O3 O 0.61816(18) 0.84425(18) 0.53095(17)
O4 O 0.8268(2) 0.75119(16) 0.42219(15)
O5 O 0.69404(19) 0.50761(19) 0.23791(18)
H21 H 0.6691 0.4408 0.2916
O6 O -0.19398(18) 0.92613(18) 0.56717(16)
H22 H -0.1988 1.0132 0.5186
H23 H -0.2863 0.9042 0.5920
C1_2 C -0.7735(3) 0.7452(3) 0.4315(3)
C2_2 C -0.6135(3) 0.7032(3) 0.4089(2)
C3_2 C -0.5395(3) 0.7549(3) 0.4474(2)
H1_2 H -0.5902 0.8125 0.4932
C4_2 C -0.3886(3) 0.7202(3) 0.4174(2)
C5_2 C -0.3133(3) 0.6373(3) 0.3487(3)
H2_2 H -0.2127 0.6156 0.3286
C6_2 C -0.3840(3) 0.5859(3) 0.3092(3)
C7_2 C -0.5377(3) 0.6190(3) 0.3407(3)
H3_2 H -0.5869 0.5837 0.3150
C8_2 C -0.3090(3) 0.7776(3) 0.4607(3)
C9_2 C -0.0984(3) 1.5504(3) -0.3589(3)
H4_2 H -0.1076 1.5398 -0.4260
C10_2 C -0.1192(3) 1.4538(3) -0.2530(3)
H5_2 H -0.1444 1.3805 -0.2485
C11_2 C -0.1031(3) 1.4648(3) -0.1539(2)
C12_2 C -0.0684(3) 1.5790(3) -0.1663(3)
H6_2 H -0.0583 1.5918 -0.1006
C13_2 C -0.0493(3) 1.6716(3) -0.2749(3)
H7_2 H -0.0241 1.7460 -0.2817
C14_2 C -0.1227(3) 1.3601(3) -0.0349(2)
H8_2 H -0.2095 1.3288 -0.0159
H9_2 H -0.1353 1.3948 0.0294
C15_2 C 0.0068(3) 1.2503(3) -0.0412(3)
H10_2 H 0.0941 1.2823 -0.0634
H11_2 H 0.0171 1.2135 -0.1034
C16_2 C -0.0103(3) 1.1466(3) 0.0807(3)
C17_2 C 0.1030(3) 1.0531(3) 0.0977(3)
H12_2 H 0.1858 1.0453 0.0319
C18_2 C 0.1009(3) 0.9679(3) 0.2098(3)
H13_2 H 0.1879 0.9159 0.2209
C19_2 C -0.1339(3) 1.0412(3) 0.2817(3)
H14_2 H -0.2233 1.0359 0.3414
C20_2 C -0.1268(4) 1.1394(3) 0.1728(3)
H15_2 H -0.2125 1.1956 0.1634
N1_2 N -0.0650(3) 1.6605(2) -0.37061(19)
N2_2 N -0.0188(3) 0.9564(2) 0.3024(2)
N2_3 N -0.0188(3) 1.9564(2) -0.6976(2)
Ni1_2 Ni -0.03767(4) 1.80797(4) -0.53232(3)
Ni1_3 Ni -0.03767(4) -0.19203(4) 1.46768(3)
Ni1_4 Ni 0.96233(4) 0.80797(4) 0.46768(3)
Ni1_5 Ni -1.03767(4) 0.80797(4) 0.46768(3)
O1_2 O -0.8372(2) 0.69601(19) 0.39514(17)
O1_3 O 0.1628(2) 1.69601(19) -0.60486(17)
O2_2 O -0.8450(2) 0.82959(19) 0.48567(17)
O2_3 O 0.1550(2) 1.82959(19) -0.51433(17)
O3_2 O -0.38184(18) 0.84425(18) 0.53095(17)
O4_2 O -0.1732(2) 0.75119(16) 0.42219(15)
O4_3 O -0.1732(2) 1.75119(16) -0.57781(15)
O5_2 O -0.30596(19) 0.50761(19) 0.23791(18)
H21_2 H -0.3309 0.4408 0.2916
O6_2 O -0.19398(18) 1.92613(18) -0.43283(16)
H22_2 H -0.1988 2.0132 -0.4814
H23_2 H -0.2863 1.9042 -0.4080
loop_
_geom_bond_atom_site_label_1
_geom_bond_atom_site_label_2
_geom_bond_site_symmetry_1
_geom_bond_site_symmetry_2
C1 C2 1_555 1_555
C2 C3 1_555 1_555
C3 H1 1_555 1_555
C4 C3 1_555 1_555
C5 C4 1_555 1_555
H2 C5 1_555 1_555
C6 C5 1_555 1_555
C7 C2 1_555 1_555
H3 C7 1_555 1_555
C8 C4 1_555 1_555
C9 H4 1_555 1_555
C10 C9 1_555 1_555
H5 C10 1_555 1_555
C11 C10 1_555 1_555
C12 C11 1_555 1_555
H6 C12 1_555 1_555
C13 C12 1_555 1_555
H7 C13 1_555 1_555
C14 C11 1_555 1_555
H8 C14 1_555 1_555
H9 C14 1_555 1_555
C15 C14 1_555 1_555
H10 C15 1_555 1_555
H11 C15 1_555 1_555
C16 C15 1_555 1_555
C17 C16 1_555 1_555
H12 C17 1_555 1_555
C18 C17 1_555 1_555
H13 C18 1_555 1_555
C19 H14 1_555 1_555
C20 C16 1_555 1_555
H15 C20 1_555 1_555
C21 H16 1_555 1_555
C22 C21 1_555 1_555
H17 C22 1_555 1_555
C23 C22 1_555 1_555
H18 C23 1_555 1_555
C24 C23 1_555 1_555
H19 C24 1_555 1_555
C25 C24 1_555 1_555
H20 C25 1_555 1_555
N1 C9 1_555 1_555
N2 C18 1_555 1_555
N3 C21 1_555 1_555
Ni1 N1 1_555 1_555
O1 C1 1_555 1_555
O2 C1 1_555 1_555
O3 C8 1_555 1_555
O4 C8 1_555 1_555
O5 C6 1_555 1_555
H21 O5 1_555 1_555
O6 Ni1 1_555 1_555
H22 O6 1_555 1_555
H23 O6 1_555 1_555
O7 H24 1_555 1_555
H25 O7 1_555 1_555
C1_2 C2_2 1_555 1_555
C2_2 C3_2 1_555 1_555
C3_2 H1_2 1_555 1_555
C4_2 C3_2 1_555 1_555
C5_2 C4_2 1_555 1_555
H2_2 C5_2 1_555 1_555
C6_2 C5_2 1_555 1_555
C7_2 C2_2 1_555 1_555
H3_2 C7_2 1_555 1_555
C8_2 C4_2 1_555 1_555
C9_2 H4_2 1_555 1_555
C10_2 C9_2 1_555 1_555
H5_2 C10_2 1_555 1_555
C11_2 C10_2 1_555 1_555
C12_2 C11_2 1_555 1_555
H6_2 C12_2 1_555 1_555
C13_2 C12_2 1_555 1_555
H7_2 C13_2 1_555 1_555
C14_2 C11_2 1_555 1_555
H8_2 C14_2 1_555 1_555
H9_2 C14_2 1_555 1_555
C15_2 C14_2 1_555 1_555
H10_2 C15_2 1_555 1_555
H11_2 C15_2 1_555 1_555
C16_2 C15_2 1_555 1_555
C17_2 C16_2 1_555 1_555
H12_2 C17_2 1_555 1_555
C18_2 C17_2 1_555 1_555
H13_2 C18_2 1_555 1_555
C19_2 H14_2 1_555 1_555
C20_2 C16_2 1_555 1_555
H15_2 C20_2 1_555 1_555
C21A H16A 1_555 1_555
C22A C21A 1_555 1_555
H17A C22A 1_555 1_555
C23A C23 1_555 1_555
H18A C23 1_555 1_555
C24A C23 1_555 1_555
H19A C24A 1_555 1_555
C25A C24A 1_555 1_555
H20A C25A 1_555 1_555
N1_2 C9_2 1_555 1_555
N2_2 Ni1 1_555 1_555
N2_3 Ni1_2 1_555 1_555
N3A C21A 1_555 1_555
Ni1_2 N1_2 1_555 1_555
Ni1_3 N2 1_555 1_555
Ni1_4 O4 1_555 1_555
Ni1_5 O1_2 1_555 1_555
O1_2 C1_2 1_555 1_555
O1_3 Ni1_2 1_555 1_555
O2_2 C1_2 1_555 1_555
O2_3 Ni1_2 1_555 1_555
O3_2 C8_2 1_555 1_555
O4_2 Ni1 1_555 1_555
O4_3 Ni1_2 1_555 1_555
O5_2 C6_2 1_555 1_555
H21_2 O5_2 1_555 1_555
O6_2 Ni1_2 1_555 1_555
H22_2 O6_2 1_555 1_555
H23_2 O6_2 1_555 1_555
C6 C7 1_555 1_555
C13 N1 1_555 1_555
C19 C20 1_555 1_555
C19 N2 1_555 1_555
H18 C23A 1_555 1_555
H18 C24A 1_555 1_555
C24 C23A 1_555 1_555
C24 H18A 1_555 1_555
C25 N3 1_555 1_555
Ni1 O1 1_555 1_555
Ni1 O2 1_555 1_555
C6_2 C7_2 1_555 1_555
C8_2 O4_2 1_555 1_555
C13_2 N1_2 1_555 1_555
C18_2 N2_2 1_555 1_555
C19_2 C20_2 1_555 1_555
C19_2 N2_2 1_555 1_555
C22A C23A 1_555 1_555
C23A H18A 1_555 1_555
C23A C24A 1_555 1_555
C25A N3A 1_555 1_555
Ni1_5 O2_2 1_555 1_555

#END
