
#######################################################################
#
#                 Cambridge Crystallographic Data Centre
#                                CCDC 
#
#######################################################################
#
# If this CIF has been generated from an entry in the Cambridge 
# Structural Database, then it will include bibliographic, chemical, 
# crystal, experimental, refinement or atomic coordinate data resulting 
# from the CCDC's data processing and validation procedures.
#
#######################################################################

data_TIDYEL01
_symmetry_cell_setting           monoclinic
_symmetry_space_group_name_H-M   'P 21/c'
_symmetry_Int_Tables_number      14
_space_group_name_Hall           '-P 2ybc'
loop_
_symmetry_equiv_pos_site_id
_symmetry_equiv_pos_as_xyz
1 x,y,z
2 -x,1/2+y,1/2-z
3 -x,-y,-z
4 x,1/2-y,1/2+z
_cell_length_a                   7.2716(13)
_cell_length_b                   21.676(4)
_cell_length_c                   7.3030(13)
_cell_angle_alpha                90
_cell_angle_beta                 93.965(2)
_cell_angle_gamma                90
_cell_volume                     1148.34
loop_
_atom_site_label
_atom_site_type_symbol
_atom_site_fract_x
_atom_site_fract_y
_atom_site_fract_z
Co1 Co 0.0000 0.5000 1.0000
Co2 Co 0.5000 0.5000 1.0000
O1 O 0.2127(6) 0.93106(18) 1.0462(6)
O2 O 0.0747(7) 0.4829(2) 1.2824(7)
H1 H -0.037(11) 0.473(4) 1.310(10)
H2 H 0.106(11) 0.509(3) 1.372(11)
O3 O 0.4703(6) 0.4794(3) 1.2780(7)
H3 H 0.364(11) 0.470(4) 1.288(11)
H4 H 0.569(12) 0.481(4) 1.308(12)
N1 N 0.0940(7) 0.6391(2) 1.0320(7)
N2 N 0.1593(6) 0.5817(2) 1.0273(7)
N3 N 0.3387(7) 0.5823(2) 1.0215(7)
N4 N 0.3969(7) 0.6407(2) 1.0198(7)
N5 N 0.2213(7) 0.8691(2) 1.0402(7)
N6 N 0.2437(9) 0.3930(4) 0.6668(10)
N7 N 0.2440(7) 0.4246(3) 0.7950(9)
N8 N 0.2455(6) 0.4573(2) 0.9279(7)
C1 C 0.3792(9) 0.8408(3) 1.0049(9)
H7 H 0.4826 0.8644 0.9842
C2 C 0.3902(9) 0.7781(3) 0.9991(10)
H8 H 0.5005 0.7594 0.9734
C3 C 0.2368(7) 0.7418(3) 1.0313(8)
C4 C 0.0755(8) 0.7726(3) 1.0656(9)
H9 H -0.0301 0.7501 1.0854
C5 C 0.0698(8) 0.8360(3) 1.0709(9)
H10 H -0.0388 0.8560 1.0957
C6 C 0.2443(7) 0.6748(3) 1.0278(8)
Co2_2 Co -0.5000 0.5000 1.0000
O1B O -0.2127(6) 0.06894(18) 0.9538(6)
O2B O -0.0747(7) 0.5171(2) 0.7176(7)
H1B H 0.037(11) 0.527(4) 0.690(10)
H2B H -0.106(11) 0.491(3) 0.628(11)
O3B O 0.5297(6) 0.5206(3) 0.7220(7)
H3B H 0.636(11) 0.530(4) 0.712(11)
H4B H 0.431(12) 0.519(4) 0.692(12)
N1B N -0.0940(7) 0.3609(2) 0.9680(7)
N2B N -0.1593(6) 0.4183(2) 0.9727(7)
N3B N -0.3387(7) 0.4177(2) 0.9785(7)
N3B_2 N 0.6613(7) 0.4177(2) 0.9785(7)
N4B N -0.3969(7) 0.3593(2) 0.9802(7)
N5B N -0.2213(7) 0.1309(2) 0.9598(7)
N6B N -0.2437(9) 0.6070(4) 1.3332(10)
N7B N -0.2440(7) 0.5754(3) 1.2050(9)
N8B N -0.2455(6) 0.5427(2) 1.0721(7)
N8B_2 N 0.7545(6) 0.5427(2) 1.0721(7)
C1B C -0.3792(9) 0.1592(3) 0.9951(9)
H7B H -0.4826 0.1356 1.0158
C2B C -0.3902(9) 0.2219(3) 1.0009(10)
H8B H -0.5005 0.2406 1.0266
C3B C -0.2368(7) 0.2582(3) 0.9687(8)
C4B C -0.0755(8) 0.2274(3) 0.9344(9)
H9B H 0.0301 0.2499 0.9146
C5B C -0.0698(8) 0.1640(3) 0.9291(9)
H10B H 0.0388 0.1440 0.9043
C6B C -0.2443(7) 0.3252(3) 0.9722(8)
O4 O 0.7325(7) 0.6718(4) 0.8303(10)
H5 H 0.634(15) 0.663(5) 0.872(15)
H6 H 0.820(14) 0.663(6) 0.885(15)
loop_
_geom_bond_atom_site_label_1
_geom_bond_atom_site_label_2
_geom_bond_site_symmetry_1
_geom_bond_site_symmetry_2
Co1 O2 1_555 1_555
Co2 O3 1_555 1_555
O1 N5 1_555 1_555
O2 H1 1_555 1_555
H2 O2 1_555 1_555
O3 H3 1_555 1_555
H4 O3 1_555 1_555
O4 H5 1_555 1_555
H6 O4 1_555 1_555
N1 N2 1_555 1_555
N2 Co1 1_555 1_555
N3 Co2 1_555 1_555
N4 N3 1_555 1_555
N5 C1 1_555 1_555
N6 N7 1_555 1_555
N7 N8 1_555 1_555
N8 Co1 1_555 1_555
C1 H7 1_555 1_555
C2 C1 1_555 1_555
H8 C2 1_555 1_555
C3 C2 1_555 1_555
C4 C3 1_555 1_555
H9 C4 1_555 1_555
C5 N5 1_555 1_555
H10 C5 1_555 1_555
C6 N1 1_555 1_555
Co2_2 N3B 1_555 1_555
O1B N5B 1_555 1_555
O2B Co1 1_555 1_555
H1B O2B 1_555 1_555
H2B O2B 1_555 1_555
O3B Co2 1_555 1_555
H3B O3B 1_555 1_555
H4B O3B 1_555 1_555
N1B N2B 1_555 1_555
N2B Co1 1_555 1_555
N3B N2B 1_555 1_555
N3B_2 Co2 1_555 1_555
N4B N3B 1_555 1_555
N5B C1B 1_555 1_555
N6B N7B 1_555 1_555
N7B N8B 1_555 1_555
N8B Co1 1_555 1_555
N8B_2 Co2 1_555 1_555
C1B H7B 1_555 1_555
C2B C1B 1_555 1_555
H8B C2B 1_555 1_555
C3B C2B 1_555 1_555
C4B C3B 1_555 1_555
H9B C4B 1_555 1_555
C5B N5B 1_555 1_555
H10B C5B 1_555 1_555
C6B N1B 1_555 1_555
Co2 N8 1_555 1_555
N2 N3 1_555 1_555
N4 C6 1_555 1_555
C3 C6 1_555 1_555
C4 C5 1_555 1_555
Co2_2 N8B 1_555 1_555
N4B C6B 1_555 1_555
C3B C6B 1_555 1_555
C4B C5B 1_555 1_555

#END
