
#######################################################################
#
#                 Cambridge Crystallographic Data Centre
#                                CCDC 
#
#######################################################################
#
# If this CIF has been generated from an entry in the Cambridge 
# Structural Database, then it will include bibliographic, chemical, 
# crystal, experimental, refinement or atomic coordinate data resulting 
# from the CCDC's data processing and validation procedures.
#
#######################################################################

data_TIDYUB
_symmetry_cell_setting           monoclinic
_symmetry_space_group_name_H-M   'P 21/n'
_symmetry_Int_Tables_number      14
_space_group_name_Hall           '-P 2yn'
loop_
_symmetry_equiv_pos_site_id
_symmetry_equiv_pos_as_xyz
1 x,y,z
2 1/2-x,1/2+y,1/2-z
3 -x,-y,-z
4 1/2+x,1/2-y,1/2+z
_cell_length_a                   15.1776(12)
_cell_length_b                   8.6518(6)
_cell_length_c                   16.8401(12)
_cell_angle_alpha                90
_cell_angle_beta                 109.966(2)
_cell_angle_gamma                90
_cell_volume                     2078.42
loop_
_atom_site_label
_atom_site_type_symbol
_atom_site_fract_x
_atom_site_fract_y
_atom_site_fract_z
Pb1 Pb 0.887569(17) 0.73469(3) 0.931327(16)
C1 C 0.6647(5) 0.2603(8) 0.7559(4)
O1 O 0.7232(4) 0.7436(5) 0.9387(3)
O2 O 0.7882(3) 0.5195(5) 0.9312(3)
O3 O 0.7073(3) 0.2256(5) 0.7034(3)
C2 C 0.7298(5) 0.2395(8) 1.0709(4)
H1 H 0.6787 0.3015 1.0680
C3 C 0.5233(5) 0.3011(9) 0.8959(4)
C4 C 0.7172(5) 0.5995(8) 0.9293(4)
O4 O 0.5917(4) 0.3358(7) 0.7367(3)
C5 C 0.7127(5) 0.2046(8) 0.8437(4)
C6 C 0.7465(5) 0.1962(7) 0.9944(4)
C7 C 0.6257(5) 0.5209(8) 0.9147(4)
C8 C 0.3603(5) 0.3447(12) 0.8811(5)
H2 H 0.3109 0.4122 0.8757
C9 C 0.8230(5) 0.0981(8) 1.0024(4)
C10 C 0.4502(5) 0.4062(10) 0.8899(4)
N1 N 0.4618(4) 0.5612(8) 0.8945(4)
C11 C 0.7877(6) 0.1907(9) 1.1460(4)
H3 H 0.7758 0.2184 1.1948
C12 C 0.5461(5) 0.6130(9) 0.9079(4)
H4 H 0.5549 0.7193 0.9135
C13 C 0.8834(5) 0.0506(9) 1.0827(5)
H5 H 0.9344 -0.0128 1.0874
C14 C 0.5053(5) 0.1400(10) 0.8929(5)
H6 H 0.5529 0.0697 0.8966
C15 C 0.6143(4) 0.3645(8) 0.9069(4)
C16 C 0.7874(5) 0.0986(8) 0.8586(4)
H7 H 0.7992 0.0618 0.8113
C17 C 0.8666(6) 0.0978(9) 1.1526(5)
H8 H 0.9073 0.0689 1.2057
N2 N 0.8417(4) 0.0467(6) 0.9318(4)
C18 C 0.6921(5) 0.2555(7) 0.9133(4)
N3 N 0.9642(4) 0.5101(7) 0.8744(4)
C19 C 0.9148(6) 0.4020(11) 0.8238(6)
H9 H 0.8513 0.3942 0.8165
C20 C 0.4164(6) 0.0884(12) 0.8844(6)
H10 H 0.4043 -0.0172 0.8813
C21 C 0.3451(6) 0.1914(13) 0.8803(6)
H11 H 0.2864 0.1544 0.8771
C22 C 0.9520(7) 0.2996(10) 0.7811(6)
H12 H 0.9146 0.2248 0.7457
C23 C 1.0450(7) 0.3109(12) 0.7920(7)
H13 H 1.0728 0.2440 0.7644
C24 C 1.0950(6) 0.4206(12) 0.8435(7)
H14 H 1.1586 0.4301 0.8522
C25 C 1.0533(5) 0.5198(9) 0.8837(5)
H15 H 1.0895 0.5963 0.9186
Pb1A Pb 0.612431(17) 0.23469(3) 0.568673(16)
Pb1_2 Pb 0.887569(17) -0.26531(3) 0.931327(16)
O3A O 0.7927(3) 0.7256(5) 0.7966(3)
N2_2 N 0.8417(4) 1.0467(6) 0.9318(4)
loop_
_geom_bond_atom_site_label_1
_geom_bond_atom_site_label_2
_geom_bond_site_symmetry_1
_geom_bond_site_symmetry_2
Pb1 O1 1_555 1_555
C1 O3 1_555 1_555
O1 C4 1_555 1_555
O2 Pb1 1_555 1_555
O3 Pb1A 1_555 1_555
C2 H1 1_555 1_555
C3 C10 1_555 1_555
C4 O2 1_555 1_555
O4 C1 1_555 1_555
C5 C1 1_555 1_555
C6 C2 1_555 1_555
C7 C4 1_555 1_555
C8 H2 1_555 1_555
C9 C6 1_555 1_555
C10 C8 1_555 1_555
N1 C10 1_555 1_555
C11 C2 1_555 1_555
H3 C11 1_555 1_555
C12 C7 1_555 1_555
H4 C12 1_555 1_555
C13 C9 1_555 1_555
H5 C13 1_555 1_555
C14 C3 1_555 1_555
H6 C14 1_555 1_555
C15 C3 1_555 1_555
C16 C5 1_555 1_555
H7 C16 1_555 1_555
C17 C11 1_555 1_555
H8 C17 1_555 1_555
N2 C9 1_555 1_555
C18 C5 1_555 1_555
N3 Pb1 1_555 1_555
C19 N3 1_555 1_555
H9 C19 1_555 1_555
C20 C14 1_555 1_555
H10 C20 1_555 1_555
C21 C8 1_555 1_555
H11 C21 1_555 1_555
C22 C19 1_555 1_555
H12 C22 1_555 1_555
C23 C22 1_555 1_555
H13 C23 1_555 1_555
C24 C23 1_555 1_555
H14 C24 1_555 1_555
C25 N3 1_555 1_555
H15 C25 1_555 1_555
Pb1_2 N2 1_555 1_555
O3A Pb1 1_555 1_555
N2_2 Pb1 1_555 1_555
C6 C18 1_555 1_555
C7 C15 1_555 1_555
N1 C12 1_555 1_555
C13 C17 1_555 1_555
C15 C18 1_555 1_555
C16 N2 1_555 1_555
C20 C21 1_555 1_555
C24 C25 1_555 1_555

#END
