
#######################################################################
#
#                 Cambridge Crystallographic Data Centre
#                                CCDC 
#
#######################################################################
#
# If this CIF has been generated from an entry in the Cambridge 
# Structural Database, then it will include bibliographic, chemical, 
# crystal, experimental, refinement or atomic coordinate data resulting 
# from the CCDC's data processing and validation procedures.
#
#######################################################################

data_TIDYAH
_symmetry_cell_setting           monoclinic
_symmetry_space_group_name_H-M   'P 2/c'
_symmetry_Int_Tables_number      13
_space_group_name_Hall           '-P 2yc'
loop_
_symmetry_equiv_pos_site_id
_symmetry_equiv_pos_as_xyz
1 x,y,z
2 -x,y,1/2-z
3 -x,-y,-z
4 x,-y,1/2+z
_cell_length_a                   8.611(2)
_cell_length_b                   11.068(3)
_cell_length_c                   18.394(4)
_cell_angle_alpha                90.00
_cell_angle_beta                 104.267(9)
_cell_angle_gamma                90.00
_cell_volume                     1699
loop_
_atom_site_label
_atom_site_type_symbol
_atom_site_fract_x
_atom_site_fract_y
_atom_site_fract_z
C1 C 0.8768(7) 0.3527(5) 0.0529(3)
H1 H 0.8442 0.2763 0.0340
C2 C 0.7994(8) 0.4519(6) 0.0177(3)
H2 H 0.7161 0.4429 -0.0251
C3 C 0.8439(8) 0.5639(6) 0.0451(4)
H3 H 0.7920 0.6321 0.0213
C4 C 0.9656(8) 0.5750(5) 0.1080(3)
H4 H 0.9963 0.6511 0.1279
C5 C 1.0445(6) 0.4714(4) 0.1426(3)
C6 C 1.1769(7) 0.4735(4) 0.2103(3)
C7 C 1.2455(8) 0.5781(5) 0.2455(3)
H5 H 1.2064 0.6531 0.2267
C8 C 1.3697(9) 0.5713(6) 0.3072(4)
H6 H 1.4158 0.6414 0.3310
C9 C 1.4256(8) 0.4625(6) 0.3338(3)
H7 H 1.5115 0.4570 0.3758
C10 C 1.3556(7) 0.3594(5) 0.2989(3)
H8 H 1.3941 0.2843 0.3178
C11 C 1.2566(6) 0.1443(4) 0.0624(3)
C12 C 1.3175(6) 0.1176(4) -0.0062(2)
C13 C 1.4497(6) 0.1788(4) -0.0160(3)
H9 H 1.5014 0.2339 0.0201
C14 C 1.5067(6) 0.1590(4) -0.0794(3)
C15 C 1.4261(6) 0.0768(4) -0.1340(3)
H10 H 1.4625 0.0633 -0.1769
C16 C 1.2936(6) 0.0161(4) -0.1241(2)
C17 C 1.2374(6) 0.0353(4) -0.0593(2)
H11 H 1.1484 -0.0062 -0.0523
C18 C 1.2069(6) -0.0710(4) -0.1831(2)
N1 N 0.9997(5) 0.3624(3) 0.1146(2)
N2 N 1.2314(5) 0.3659(4) 0.2375(2)
Ni1 Ni 1.13041(9) 0.20104(6) 0.17217(4)
O1 O 1.1350(5) 0.0883(3) 0.07205(19)
O2 O 1.3239(5) 0.2220(3) 0.10706(19)
O3 O 1.6357(4) 0.2235(3) -0.0861(2)
H12 H 1.6793 0.1890 -0.1153
O4 O 1.2425(4) -0.0718(3) -0.24501(17)
O5 O 1.1055(4) -0.1390(3) -0.16707(18)
Ni1C Ni 1.13041(9) -0.20104(6) -0.32783(4)
Ni1B Ni 0.86959(9) -0.20104(6) -0.17217(4)
O4C O 1.2425(4) 0.0718(3) 0.25499(17)
O5B O 0.8945(4) 0.1390(3) 0.16707(18)
O6 O 0.8357(5) 0.1290(3) 0.8408(2)
H13 H 0.8189 0.1161 0.7940
H14 H 0.8839 0.0688 0.8650
loop_
_geom_bond_atom_site_label_1
_geom_bond_atom_site_label_2
_geom_bond_site_symmetry_1
_geom_bond_site_symmetry_2
C1 H1 1_555 1_555
C2 C1 1_555 1_555
H2 C2 1_555 1_555
C3 C2 1_555 1_555
H3 C3 1_555 1_555
C4 C3 1_555 1_555
H4 C4 1_555 1_555
C5 C4 1_555 1_555
C6 C5 1_555 1_555
C7 C6 1_555 1_555
H5 C7 1_555 1_555
C8 C7 1_555 1_555
H6 C8 1_555 1_555
C9 C8 1_555 1_555
H7 C9 1_555 1_555
C10 C9 1_555 1_555
H8 C10 1_555 1_555
C11 C12 1_555 1_555
C12 C13 1_555 1_555
C13 H9 1_555 1_555
C14 C13 1_555 1_555
C15 C14 1_555 1_555
H10 C15 1_555 1_555
C16 C15 1_555 1_555
C17 C12 1_555 1_555
H11 C17 1_555 1_555
C18 C16 1_555 1_555
N1 C1 1_555 1_555
N2 C6 1_555 1_555
Ni1 N1 1_555 1_555
O1 C11 1_555 1_555
O2 C11 1_555 1_555
O3 C14 1_555 1_555
H12 O3 1_555 1_555
O4 C18 1_555 1_555
O5 C18 1_555 1_555
O6 H13 1_555 1_555
H14 O6 1_555 1_555
Ni1C O4 1_555 1_555
Ni1B O5 1_555 1_555
O4C Ni1 1_555 1_555
O5B Ni1 1_555 1_555
C5 N1 1_555 1_555
C10 N2 1_555 1_555
C16 C17 1_555 1_555
N2 Ni1 1_555 1_555
Ni1 O1 1_555 1_555
Ni1 O2 1_555 1_555

#END
