
#######################################################################
#
#                 Cambridge Crystallographic Data Centre
#                                CCDC 
#
#######################################################################
#
# If this CIF has been generated from an entry in the Cambridge 
# Structural Database, then it will include bibliographic, chemical, 
# crystal, experimental, refinement or atomic coordinate data resulting 
# from the CCDC's data processing and validation procedures.
#
#######################################################################

data_TIDYEL
_symmetry_cell_setting           monoclinic
_symmetry_space_group_name_H-M   'P 21/c'
_symmetry_Int_Tables_number      14
_space_group_name_Hall           '-P 2ybc'
loop_
_symmetry_equiv_pos_site_id
_symmetry_equiv_pos_as_xyz
1 x,y,z
2 -x,1/2+y,1/2-z
3 -x,-y,-z
4 x,1/2-y,1/2+z
_cell_length_a                   7.2726(8)
_cell_length_b                   21.649(2)
_cell_length_c                   7.2933(8)
_cell_angle_alpha                90
_cell_angle_beta                 93.930(2)
_cell_angle_gamma                90
_cell_volume                     1145.59
loop_
_atom_site_label
_atom_site_type_symbol
_atom_site_fract_x
_atom_site_fract_y
_atom_site_fract_z
Co1 Co 0.5000 0.5000 0.5000
Co2 Co 0.0000 0.5000 0.5000
O1 O 0.2870(2) 0.06907(7) 0.4549(3)
N1 N 0.2800(3) 0.13099(9) 0.4613(3)
N2 N 0.1604(2) 0.41721(8) 0.4803(3)
C1 C 0.2623(3) 0.25776(10) 0.4695(3)
O2 O 0.4259(3) 0.51705(9) 0.2174(3)
N3 N 0.1028(3) 0.35878(9) 0.4807(3)
C2 C 0.4240(3) 0.22745(11) 0.4340(4)
H1 H 0.5290 0.2502 0.4134
C3 C 0.2560(3) 0.32522(10) 0.4730(3)
O3 O 0.0299(4) 0.52030(14) 0.2221(3)
N4 N 0.4058(3) 0.36064(9) 0.4692(3)
N5 N 0.3418(2) 0.41804(9) 0.4742(3)
N6 N 0.2537(2) 0.54277(9) 0.5733(3)
C4 C 0.4302(3) 0.16406(11) 0.4289(4)
H2 H 0.5386 0.1441 0.4030
C5 C 0.1213(4) 0.15863(11) 0.4969(4)
H3 H 0.0190 0.1348 0.5199
C6 C 0.1093(3) 0.22211(11) 0.4995(4)
H4 H -0.0019 0.2410 0.5213
N7 N 0.2563(3) 0.57572(11) 0.7066(3)
N8 N 0.2556(4) 0.60627(18) 0.8313(5)
H6 H -0.055(6) 0.535(2) 0.144(6)
H7 H 0.373(5) 0.4863(16) 0.150(5)
H9 H 0.505(5) 0.5340(15) 0.163(4)
H10 H 0.087(6) 0.534(2) 0.217(6)
Co2_2 Co 1.0000 0.5000 0.5000
O1B O 0.7130(2) 0.93093(7) 0.5451(3)
N1B N 0.7200(3) 0.86901(9) 0.5387(3)
N2B N 0.8396(2) 0.58279(8) 0.5197(3)
N2B_2 N -0.1604(2) 0.58279(8) 0.5197(3)
C1B C 0.7377(3) 0.74224(10) 0.5305(3)
O2B O 0.5741(3) 0.48295(9) 0.7826(3)
N3B N 0.8972(3) 0.64122(9) 0.5193(3)
C2B C 0.5760(3) 0.77255(11) 0.5660(4)
H1B H 0.4710 0.7498 0.5866
C3B C 0.7440(3) 0.67478(10) 0.5270(3)
O3B O -0.0299(4) 0.47970(14) 0.7779(3)
N4B N 0.5942(3) 0.63936(9) 0.5308(3)
N5B N 0.6582(2) 0.58196(9) 0.5258(3)
N6B N 0.7463(2) 0.45723(9) 0.4267(3)
N6B_2 N -0.2537(2) 0.45723(9) 0.4267(3)
C4B C 0.5698(3) 0.83594(11) 0.5711(4)
H2B H 0.4614 0.8559 0.5970
C5B C 0.8787(4) 0.84137(11) 0.5031(4)
H3B H 0.9810 0.8652 0.4801
C6B C 0.8907(3) 0.77789(11) 0.5005(4)
H4B H 1.0019 0.7590 0.4787
N7B N 0.7437(3) 0.42428(11) 0.2934(3)
N8B N 0.7444(4) 0.39373(18) 0.1687(5)
H6B H 0.055(6) 0.465(2) 0.856(6)
H7B H 0.627(5) 0.5137(16) 0.850(5)
H9B H 0.495(5) 0.4660(15) 0.837(4)
H10B H -0.087(6) 0.466(2) 0.783(6)
O4 O -0.2332(4) 0.32786(16) 0.6700(5)
H5 H -0.147(5) 0.3386(16) 0.607(5)
H8 H -0.343(7) 0.344(2) 0.607(7)
loop_
_geom_bond_atom_site_label_1
_geom_bond_atom_site_label_2
_geom_bond_site_symmetry_1
_geom_bond_site_symmetry_2
Co1 O2 1_555 1_555
Co2 N2 1_555 1_555
O1 N1 1_555 1_555
N1 C4 1_555 1_555
N2 N3 1_555 1_555
C1 C2 1_555 1_555
O2 H7 1_555 1_555
N3 C3 1_555 1_555
C2 H1 1_555 1_555
C3 C1 1_555 1_555
O3 Co2 1_555 1_555
N4 C3 1_555 1_555
N5 Co1 1_555 1_555
N6 Co1 1_555 1_555
C4 C2 1_555 1_555
H2 C4 1_555 1_555
C5 N1 1_555 1_555
H3 C5 1_555 1_555
C6 C1 1_555 1_555
H4 C6 1_555 1_555
N7 N6 1_555 1_555
N8 N7 1_555 1_555
O4 H5 1_555 1_555
H6 O3 1_555 1_555
H8 O4 1_555 1_555
H9 O2 1_555 1_555
H10 O3 1_555 1_555
Co2_2 N2B 1_555 1_555
O1B N1B 1_555 1_555
N1B C4B 1_555 1_555
N2B N3B 1_555 1_555
N2B_2 Co2 1_555 1_555
C1B C2B 1_555 1_555
O2B Co1 1_555 1_555
N3B C3B 1_555 1_555
C2B H1B 1_555 1_555
C3B C1B 1_555 1_555
O3B Co2 1_555 1_555
N4B C3B 1_555 1_555
N5B Co1 1_555 1_555
N6B Co1 1_555 1_555
N6B_2 Co2 1_555 1_555
C4B C2B 1_555 1_555
H2B C4B 1_555 1_555
C5B N1B 1_555 1_555
H3B C5B 1_555 1_555
C6B C1B 1_555 1_555
H4B C6B 1_555 1_555
N7B N6B 1_555 1_555
N8B N7B 1_555 1_555
H6B O3B 1_555 1_555
H7B O2B 1_555 1_555
H9B O2B 1_555 1_555
H10B O3B 1_555 1_555
Co2 N6 1_555 1_555
N2 N5 1_555 1_555
N4 N5 1_555 1_555
C5 C6 1_555 1_555
Co2_2 N6B 1_555 1_555
N2B N5B 1_555 1_555
N4B N5B 1_555 1_555
C5B C6B 1_555 1_555

#END
