
#######################################################################
#
#                 Cambridge Crystallographic Data Centre
#                                CCDC 
#
#######################################################################
#
# If this CIF has been generated from an entry in the Cambridge 
# Structural Database, then it will include bibliographic, chemical, 
# crystal, experimental, refinement or atomic coordinate data resulting 
# from the CCDC's data processing and validation procedures.
#
#######################################################################

data_TIFBOA
_symmetry_cell_setting           monoclinic
_symmetry_space_group_name_H-M   'P 21'
_symmetry_Int_Tables_number      4
_space_group_name_Hall           'P 2yb'
loop_
_symmetry_equiv_pos_site_id
_symmetry_equiv_pos_as_xyz
1 x,y,z
2 -x,1/2+y,-z
_cell_length_a                   7.3518(19)
_cell_length_b                   14.131(5)
_cell_length_c                   11.624(3)
_cell_angle_alpha                90
_cell_angle_beta                 98.724(15)
_cell_angle_gamma                90
_cell_volume                     1193.63
loop_
_atom_site_label
_atom_site_type_symbol
_atom_site_fract_x
_atom_site_fract_y
_atom_site_fract_z
Mo1 Mo 0.05460(3) 0.74249(3) 0.65953(2)
Mn1 Mn 0.49895(6) 0.50002(4) 0.47735(3)
Mn2 Mn 0.02680(5) 0.97491(4) 1.02544(3)
O1 O 0.6013(2) 0.40154(17) 0.62286(19)
O2 O 0.3922(3) 0.59597(18) 0.3312(2)
O3 O 0.0498(3) 0.85156(18) 1.1422(2)
O4 O 0.0132(3) 1.09175(17) 0.8966(2)
N1 N 0.4246(3) 0.7241(2) 0.8622(2)
N2 N 0.0455(3) 0.7857(2) 0.3779(2)
N3 N 0.3148(3) 0.5715(2) 0.5805(2)
N4 N -0.2753(3) 0.60295(19) 0.5295(2)
N5 N -0.2822(3) 0.89571(19) 0.5840(2)
N6 N 0.3164(3) 0.92561(19) 0.6245(2)
N7 N -0.0128(3) 0.87259(19) 0.8848(2)
N8 N -0.0520(3) 0.5809(2) 0.8414(2)
N9 N 0.3362(3) 0.97456(19) 1.0235(2)
N10 N 0.7157(3) 0.97636(19) 1.0230(2)
C1 C 0.2995(3) 0.7296(2) 0.7901(2)
C2 C 0.0505(3) 0.76781(19) 0.4752(2)
C3 C 0.2228(4) 0.6309(2) 0.6071(2)
C4 C -0.1633(3) 0.6527(2) 0.5740(2)
C5 C -0.1694(3) 0.8389(2) 0.6109(2)
C6 C 0.2260(3) 0.8615(2) 0.6382(2)
C7 C 0.0047(3) 0.8250(2) 0.8067(2)
C8 C -0.0211(3) 0.6390(2) 0.7783(2)
C9 C 0.4070(4) 0.9642(2) 0.9245(2)
C10 C 0.5963(4) 0.9654(2) 0.9243(2)
C11 C 0.6425(4) 0.9880(2) 1.1220(2)
C12 C 0.4558(4) 0.9875(2) 1.1227(2)
H1 H 0.5554 0.4061 0.6947
H2 H 0.6913 0.3552 0.6130
H3 H 0.3013 0.6419 0.3409
H4 H 0.4370 0.5910 0.2590
H5 H -0.0572 0.8254 1.1665
H6 H 0.1670 0.8244 1.1682
H7 H -0.1022 1.1191 0.8664
H8 H 0.1226 1.1145 0.8719
H9 H 0.3264 0.9557 0.8533
H10 H 0.6418 0.9584 0.8525
H11 H 0.7228 0.9966 1.1934
H12 H 0.4097 0.9968 1.1939
Mn1_2 Mn -0.50105(6) 0.50002(4) 0.47735(3)
Mn1A Mn -0.49895(6) 1.00002(4) 0.52265(3)
Mn1A_2 Mn 0.50105(6) 1.00002(4) 0.52265(3)
Mn2A Mn -0.02680(5) 0.47491(4) 0.97456(3)
Mn2_2 Mn 1.02680(5) 0.97491(4) 1.02544(3)
N4_2 N 0.7247(3) 0.60295(19) 0.5295(2)
N5A N 0.2822(3) 0.39571(19) 0.4160(2)
N6A N 0.6836(3) 0.42561(19) 0.3755(2)
N8A N 0.0520(3) 1.0809(2) 1.1586(2)
N10_2 N -0.2843(3) 0.97636(19) 1.0230(2)
O5 O 0.2862(3) 0.71877(17) 1.0881(2)
O6 O 0.0090(3) 0.56126(17) 1.3324(2)
O7 O 0.7274(2) 0.73156(18) 1.05320(19)
O8 O 0.6119(3) 0.75739(18) 1.2883(2)
loop_
_geom_bond_atom_site_label_1
_geom_bond_atom_site_label_2
_geom_bond_site_symmetry_1
_geom_bond_site_symmetry_2
Mo1 C1 1_555 1_555
Mn1 O1 1_555 1_555
Mn2 O3 1_555 1_555
O1 H1 1_555 1_555
O2 Mn1 1_555 1_555
O3 H5 1_555 1_555
O4 Mn2 1_555 1_555
N1 C1 1_555 1_555
N2 C2 1_555 1_555
N3 Mn1 1_555 1_555
N4 C4 1_555 1_555
N5 C5 1_555 1_555
N6 C6 1_555 1_555
N7 Mn2 1_555 1_555
N8 C8 1_555 1_555
N9 Mn2 1_555 1_555
N10 C10 1_555 1_555
C2 Mo1 1_555 1_555
C3 Mo1 1_555 1_555
C4 Mo1 1_555 1_555
C5 Mo1 1_555 1_555
C6 Mo1 1_555 1_555
C7 Mo1 1_555 1_555
C8 Mo1 1_555 1_555
C9 N9 1_555 1_555
C10 C9 1_555 1_555
C11 N10 1_555 1_555
C12 N9 1_555 1_555
H2 O1 1_555 1_555
H3 O2 1_555 1_555
H4 O2 1_555 1_555
H6 O3 1_555 1_555
H7 O4 1_555 1_555
H8 O4 1_555 1_555
H9 C9 1_555 1_555
H10 C10 1_555 1_555
H11 C11 1_555 1_555
H12 C12 1_555 1_555
Mn1_2 N4 1_555 1_555
Mn1A N5 1_555 1_555
Mn1A_2 N6 1_555 1_555
Mn2A N8 1_555 1_555
Mn2_2 N10 1_555 1_555
N4_2 Mn1 1_555 1_555
N5A Mn1 1_555 1_555
N6A Mn1 1_555 1_555
N8A Mn2 1_555 1_555
N10_2 Mn2 1_555 1_555
N3 C3 1_555 1_555
N7 C7 1_555 1_555
C11 C12 1_555 1_555

#END
