
#######################################################################
#
#                 Cambridge Crystallographic Data Centre
#                                CCDC 
#
#######################################################################
#
# If this CIF has been generated from an entry in the Cambridge 
# Structural Database, then it will include bibliographic, chemical, 
# crystal, experimental, refinement or atomic coordinate data resulting 
# from the CCDC's data processing and validation procedures.
#
#######################################################################

data_TIFCIV
_symmetry_cell_setting           monoclinic
_symmetry_space_group_name_H-M   'P 21/n'
_symmetry_Int_Tables_number      14
_space_group_name_Hall           '-P 2yn'
loop_
_symmetry_equiv_pos_site_id
_symmetry_equiv_pos_as_xyz
1 x,y,z
2 1/2-x,1/2+y,1/2-z
3 -x,-y,-z
4 1/2+x,1/2-y,1/2+z
_cell_length_a                   20.679(6)
_cell_length_b                   7.534(3)
_cell_length_c                   14.278(4)
_cell_angle_alpha                90
_cell_angle_beta                 107.99(2)
_cell_angle_gamma                90
_cell_volume                     2115.7
loop_
_atom_site_label
_atom_site_type_symbol
_atom_site_fract_x
_atom_site_fract_y
_atom_site_fract_z
Ag1 Ag 0.61596(2) -0.23027(4) 0.35530(2)
Ru1 Ru 0.55547(1) -0.78149(3) 0.29437(2)
Cl1 Cl 0.55859(4) -0.51078(10) 0.38689(6)
Cl2 Cl 0.55931(4) -1.0507(1) 0.20645(6)
S1 S 0.45027(4) -0.8512(1) 0.29835(5)
S2 S 0.51503(4) -0.6332(1) 0.15162(5)
O1 O 0.60021(10) -0.9239(3) 0.4253(1)
O2 O 0.6651(1) -0.7332(3) 0.5473(2)
O3 O 0.3911(1) -0.8498(4) 0.2077(2)
O4 O 0.5652(1) -0.5310(4) 0.1182(2)
N1 N 0.6611(1) -0.7464(3) 0.3165(2)
N2 N 0.7054(1) -1.1758(4) 0.4907(2)
C1 C 0.7011(2) -0.7972(4) 0.4055(2)
C2 C 0.7712(2) -0.7815(6) 0.4327(3)
C3 C 0.8005(2) -0.7137(6) 0.3644(3)
C4 C 0.7598(2) -0.6649(6) 0.2746(3)
C5 C 0.6905(2) -0.6827(5) 0.2516(3)
C6 C 0.6645(1) -0.8700(4) 0.4764(2)
C7 C 0.7072(1) -1.0212(4) 0.5380(2)
C8 C 0.7464(2) -1.0011(5) 0.6349(2)
C9 C 0.7840(2) -1.1417(6) 0.6854(3)
C10 C 0.7828(2) -1.2991(6) 0.6369(4)
C11 C 0.7435(2) -1.3107(5) 0.5409(3)
C12 C 0.4532(2) -1.0659(5) 0.3531(3)
C13 C 0.4248(2) -0.7245(6) 0.3862(4)
C14 C 0.4713(2) -0.7693(5) 0.0496(3)
C15 C 0.4487(2) -0.4790(5) 0.1473(3)
H1 H 0.7987 -0.8162 0.4965
H2 H 0.8484 -0.7021 0.3809
H3 H 0.7791 -0.6182 0.2273
H4 H 0.6625 -0.6489 0.1879
H5 H 0.7476 -0.8901 0.6668
H6 H 0.8101 -1.1296 0.7526
H7 H 0.8088 -1.3978 0.6694
H8 H 0.7428 -1.4201 0.5075
H9 H 0.6349 -0.6621 0.5162
H10 H 0.4906 -1.0713 0.4119
H11 H 0.4122 -1.0863 0.3682
H12 H 0.4584 -1.1540 0.3084
H13 H 0.3861 -0.7782 0.3970
H14 H 0.4137 -0.6073 0.3620
H15 H 0.4610 -0.7204 0.4464
H16 H 0.4379 -0.8380 0.0663
H17 H 0.5028 -0.8461 0.0338
H18 H 0.4499 -0.6963 -0.0055
H19 H 0.4295 -0.4371 0.0818
H20 H 0.4145 -0.5359 0.1681
H21 H 0.4668 -0.3817 0.1896
Ag1_2 Ag 0.61596(2) -1.23027(4) 0.35530(2)
Cl2_2 Cl 0.55931(4) -0.0507(1) 0.20645(6)
N2_2 N 0.7054(1) -0.1758(4) 0.4907(2)
loop_
_geom_bond_atom_site_label_1
_geom_bond_atom_site_label_2
_geom_bond_site_symmetry_1
_geom_bond_site_symmetry_2
Ag1 Cl1 1_555 1_555
Ru1 Cl1 1_555 1_555
Cl2 Ru1 1_555 1_555
S1 Ru1 1_555 1_555
S2 Ru1 1_555 1_555
O1 Ru1 1_555 1_555
O2 C6 1_555 1_555
O3 S1 1_555 1_555
O4 S2 1_555 1_555
N1 Ru1 1_555 1_555
N2 C7 1_555 1_555
C1 N1 1_555 1_555
C2 C1 1_555 1_555
C3 C2 1_555 1_555
C4 C3 1_555 1_555
C5 N1 1_555 1_555
C6 O1 1_555 1_555
C7 C6 1_555 1_555
C8 C7 1_555 1_555
C9 C8 1_555 1_555
C10 C9 1_555 1_555
C11 N2 1_555 1_555
C12 S1 1_555 1_555
C13 S1 1_555 1_555
C14 S2 1_555 1_555
C15 S2 1_555 1_555
H1 C2 1_555 1_555
H2 C3 1_555 1_555
H3 C4 1_555 1_555
H4 C5 1_555 1_555
H5 C8 1_555 1_555
H6 C9 1_555 1_555
H7 C10 1_555 1_555
H8 C11 1_555 1_555
H9 O2 1_555 1_555
H10 C12 1_555 1_555
H11 C12 1_555 1_555
H12 C12 1_555 1_555
H13 C13 1_555 1_555
H14 C13 1_555 1_555
H15 C13 1_555 1_555
H16 C14 1_555 1_555
H17 C14 1_555 1_555
H18 C14 1_555 1_555
H19 C15 1_555 1_555
H20 C15 1_555 1_555
H21 C15 1_555 1_555
Ag1_2 Cl2 1_555 1_555
Cl2_2 Ag1 1_555 1_555
N2_2 Ag1 1_555 1_555
N2 Ag1_2 1_555 1_555
C1 C6 1_555 1_555
C4 C5 1_555 1_555
C10 C11 1_555 1_555

#END
