
#######################################################################
#
#                 Cambridge Crystallographic Data Centre
#                                CCDC 
#
#######################################################################
#
# If this CIF has been generated from an entry in the Cambridge 
# Structural Database, then it will include bibliographic, chemical, 
# crystal, experimental, refinement or atomic coordinate data resulting 
# from the CCDC's data processing and validation procedures.
#
#######################################################################

data_TIFCUI
_symmetry_cell_setting           triclinic
_symmetry_space_group_name_H-M   'P -1'
_symmetry_Int_Tables_number      2
_space_group_name_Hall           '-P 1'
loop_
_symmetry_equiv_pos_site_id
_symmetry_equiv_pos_as_xyz
1 x,y,z
2 -x,-y,-z
_cell_length_a                   10.231(5)
_cell_length_b                   12.979(5)
_cell_length_c                   13.330(5)
_cell_angle_alpha                96.035(5)
_cell_angle_beta                 112.394(5)
_cell_angle_gamma                97.434(5)
_cell_volume                     1599.64
loop_
_atom_site_label
_atom_site_type_symbol
_atom_site_fract_x
_atom_site_fract_y
_atom_site_fract_z
O1 O 0.111(2) 0.3126(16) 0.3380(16)
O2 O 0.244(2) 0.6764(15) 0.2491(16)
O3 O 0.355(2) 0.4474(15) 0.1435(17)
O4 O -0.269(2) 0.616(2) 0.0661(18)
O5 O 0.281(2) 0.5749(18) -0.096(2)
O6 O 0.191(2) 0.7723(17) 0.0749(19)
O7 O -0.362(2) 0.7574(15) -0.0802(17)
O8 O 0.166(2) 0.3001(18) 0.1557(18)
O9 O -0.019(2) 0.6694(18) 0.2272(18)
O10 O 0.373(2) 0.6428(15) 0.1180(16)
O11 O 0.058(4) 0.548(3) -0.069(3)
O12 O -0.243(2) 0.5767(15) 0.2690(15)
O13 O -0.034(2) 0.4701(16) 0.2584(17)
O14 O 0.103(2) 0.7097(18) -0.135(2)
O15 O 0.230(3) 0.4847(15) 0.281(2)
O16 O 0.142(2) 0.8652(14) 0.2568(16)
O17 O 0.500(2) 0.6033(16) 0.3310(16)
O18 O 0.393(2) 0.7894(14) -0.0146(18)
O19 O -0.074(2) 0.7587(19) 0.0560(18)
O20 O -0.054(3) 0.591(2) 0.054(2)
O21 O 0.113(3) 0.463(2) 0.084(2)
P1 P 0.0000 0.5000 0.0000
Ag4 Ag -0.5000 0.5000 0.0000
W1 W 0.09642(12) 0.74896(8) 0.17069(9)
W2 W 0.34032(12) 0.57031(9) 0.22399(9)
W3 W 0.26796(12) 0.69613(8) -0.00901(10)
W4 W -0.24442(13) 0.67783(9) -0.05016(11)
W5 W 0.07285(14) 0.36974(9) 0.23001(10)
W6 W -0.16533(14) 0.55183(11) 0.18534(10)
O22 O 0.120(3) 0.586(2) 0.060(3)
O11A O -0.058(4) 0.452(3) 0.069(3)
O20A O 0.054(3) 0.409(2) -0.054(2)
O21A O -0.113(3) 0.537(2) -0.084(2)
O22A O -0.120(3) 0.414(2) -0.060(3)
O1A O -1.111(2) 0.6874(16) -0.3380(16)
O2A O -1.244(2) 0.3236(15) -0.2491(16)
O3A O -1.355(2) 0.5526(15) -0.1435(17)
O4A O -0.731(2) 0.384(2) -0.0661(18)
O5A O -1.281(2) 0.4251(18) 0.096(2)
O6A O -1.191(2) 0.2277(17) -0.0749(19)
O7A O -0.638(2) 0.2426(15) 0.0802(17)
O8A O -1.166(2) 0.6999(18) -0.1557(18)
O9A O -0.981(2) 0.3306(18) -0.2272(18)
O10A O -1.373(2) 0.3572(15) -0.1180(16)
O12A O -0.757(2) 0.4233(15) -0.2690(15)
O13A O -0.966(2) 0.5299(16) -0.2584(17)
O14A O -1.103(2) 0.2903(18) 0.135(2)
O15A O -1.230(3) 0.5153(15) -0.281(2)
O16A O -1.142(2) 0.1348(14) -0.2568(16)
O17A O -1.500(2) 0.3967(16) -0.3310(16)
O18A O -1.393(2) 0.2106(14) 0.0146(18)
O19A O -0.926(2) 0.2413(19) -0.0560(18)
W1A W -1.09642(12) 0.25104(8) -0.17069(9)
W2A W -1.34032(12) 0.42969(9) -0.22399(9)
W3A W -1.26796(12) 0.30387(8) 0.00901(10)
W4A W -0.75558(13) 0.32217(9) 0.05016(11)
W5A W -1.07285(14) 0.63026(9) -0.23001(10)
W6A W -0.83467(14) 0.44817(11) -0.18534(10)
O3_2 O -0.645(2) 0.4474(15) 0.1435(17)
O3A_2 O -0.355(2) 0.5526(15) -0.1435(17)
O5_2 O -0.719(2) 0.5749(18) -0.096(2)
O5A_2 O -0.281(2) 0.4251(18) 0.096(2)
O8_2 O -0.834(2) 0.3001(18) 0.1557(18)
O8A_2 O -0.166(2) 0.6999(18) -0.1557(18)
O11_2 O -0.942(4) 0.548(3) -0.069(3)
O11A_2 O -1.058(4) 0.452(3) 0.069(3)
O14_2 O -0.897(2) 0.7097(18) -0.135(2)
O14A_2 O -0.103(2) 0.2903(18) 0.135(2)
O20A_2 O -0.946(3) 0.409(2) -0.054(2)
O21A_2 O -1.113(3) 0.537(2) -0.084(2)
Ag4_2 Ag -1.5000 0.5000 0.0000
Ag4_3 Ag 0.5000 0.5000 0.0000
W1A_2 W -0.09642(12) 0.25104(8) -0.17069(9)
W2A_2 W -0.34032(12) 0.42969(9) -0.22399(9)
W3A_2 W -0.26796(12) 0.30387(8) 0.00901(10)
W4_2 W -1.24442(13) 0.67783(9) -0.05016(11)
W4A_2 W 0.24442(13) 0.32217(9) 0.05016(11)
W5_2 W -0.92715(14) 0.36974(9) 0.23001(10)
W5A_2 W -0.07285(14) 0.63026(9) -0.23001(10)
W6_2 W -1.16533(14) 0.55183(11) 0.18534(10)
W6A_2 W 0.16533(14) 0.44817(11) -0.18534(10)
O22A_2 O -1.120(3) 0.414(2) -0.060(3)
C1 C 0.631(3) 0.841(2) 0.652(2)
H1 H 0.7136 0.8154 0.6903
C2 C 0.469(3) 0.954(2) 0.645(2)
H2 H 0.4405 1.0035 0.6836
C3 C 0.434(3) 0.856(2) 0.482(2)
H3 H 0.3895 0.8415 0.4051
C4 C 0.586(3) 0.9148(18) 0.7010(19)
C5 C 0.658(2) 0.9546(18) 0.8242(19)
C6 C 0.121(3) 0.821(2) 0.622(2)
C7 C 0.187(3) 0.739(2) 0.597(2)
C8 C 0.298(3) 0.707(2) 0.677(2)
H4 H 0.3378 0.7436 0.7485
C9 C 0.143(4) 0.688(2) 0.489(3)
H5 H 0.0707 0.7107 0.4339
C10 C 0.298(4) 0.576(2) 0.539(3)
H6 H 0.3386 0.5215 0.5191
C11 C 0.546(3) 0.803(2) 0.538(2)
H7 H 0.5629 0.7446 0.5015
C12 C 0.351(4) 0.621(2) 0.652(3)
H8 H 0.4180 0.5927 0.7056
N1 N 0.812(2) 0.9922(18) 0.9883(16)
N2 N 0.799(2) 0.9623(16) 0.8810(17)
N3 N 0.056(2) 0.9397(17) 0.7096(18)
N4 N -0.031(2) 0.9236(17) 0.6010(18)
N5 N 0.002(2) 0.8523(19) 0.5446(17)
N6 N 0.391(2) 0.9253(17) 0.5348(17)
N7 N 0.690(2) 1.0002(16) 0.9878(16)
N8 N 0.155(2) 0.8775(15) 0.7207(15)
N9 N 0.198(3) 0.607(2) 0.461(2)
N10 N 0.585(2) 0.9732(16) 0.8805(16)
Ag1 Ag -0.0063(2) 0.97860(19) 0.84881(17)
Ag2 Ag 0.3611(2) 0.94814(19) 0.86413(17)
Ag3 Ag -0.2076(3) 1.0064(2) 0.54591(19)
N1A N 0.188(2) 1.0078(18) 1.0117(16)
N2_2 N -0.201(2) 0.9623(16) 0.8810(17)
N6A N -0.391(2) 1.0747(17) 0.4652(17)
N7A N 0.310(2) 0.9998(16) 1.0122(16)
Ag1_2 Ag 0.9937(2) 0.97860(19) 0.84881(17)
Ag1A Ag 1.0063(2) 1.02140(19) 1.15119(17)
Ag2A Ag 0.6389(2) 1.05186(19) 1.13587(17)
Ag3A Ag 0.2076(3) 0.9936(2) 0.45409(19)
loop_
_geom_bond_atom_site_label_1
_geom_bond_atom_site_label_2
_geom_bond_site_symmetry_1
_geom_bond_site_symmetry_2
C1 H1 1_555 1_555
C2 H2 1_555 1_555
C3 H3 1_555 1_555
C4 C1 1_555 1_555
C5 C4 1_555 1_555
C6 C7 1_555 1_555
C7 C8 1_555 1_555
C8 H4 1_555 1_555
C9 C7 1_555 1_555
H5 C9 1_555 1_555
C10 H6 1_555 1_555
C11 C1 1_555 1_555
H7 C11 1_555 1_555
C12 C8 1_555 1_555
H8 C12 1_555 1_555
N1 N2 1_555 1_555
N2 C5 1_555 1_555
N3 N4 1_555 1_555
N4 N5 1_555 1_555
N5 C6 1_555 1_555
N6 C2 1_555 1_555
N7 N1 1_555 1_555
N8 C6 1_555 1_555
N9 C9 1_555 1_555
N10 C5 1_555 1_555
Ag1 N3 1_555 1_555
Ag2 N8 1_555 1_555
Ag3 N4 1_555 1_555
O1 W5 1_555 1_555
O2 W1 1_555 1_555
O3 W2 1_555 1_555
O4 Ag4 1_555 1_555
O5 W3 1_555 1_555
O6 W1 1_555 1_555
O7 W4 1_555 1_555
O8 W5 1_555 1_555
O9 W1 1_555 1_555
O10 W2 1_555 1_555
O11 P1 1_555 1_555
O12 W6 1_555 1_555
O13 W5 1_555 1_555
O14 W3 1_555 1_555
O15 W2 1_555 1_555
O16 W1 1_555 1_555
O17 W2 1_555 1_555
O18 W3 1_555 1_555
O19 W1 1_555 1_555
O20 P1 1_555 1_555
O21 P1 1_555 1_555
P1 O22 1_555 1_555
Ag4 W6 1_555 1_555
W1 O20 1_555 1_555
W2 O2 1_555 1_555
W3 O6 1_555 1_555
W4 O4 1_555 1_555
W5 O15 1_555 1_555
W6 O4 1_555 1_555
O22 O11 1_555 1_555
N1A Ag1 1_555 1_555
N2_2 Ag1 1_555 1_555
N6A Ag3 1_555 1_555
N7A Ag2 1_555 1_555
Ag1_2 N2 1_555 1_555
Ag1A N1 1_555 1_555
Ag2A N7 1_555 1_555
Ag3A N6 1_555 1_555
O11A O21 1_555 1_555
O20A O21 1_555 1_555
O21A O11 1_555 1_555
O22A P1 1_555 1_555
O1A W5A 1_555 1_555
O2A W1A 1_555 1_555
O3A W2A 1_555 1_555
O4A Ag4 1_555 1_555
O5A W3A 1_555 1_555
O6A W1A 1_555 1_555
O7A W4A 1_555 1_555
O8A W5A 1_555 1_555
O9A W1A 1_555 1_555
O10A W2A 1_555 1_555
O12A W6A 1_555 1_555
O13A W5A 1_555 1_555
O14A W3A 1_555 1_555
O15A W2A 1_555 1_555
O16A W1A 1_555 1_555
O17A W2A 1_555 1_555
O18A W3A 1_555 1_555
O19A W1A 1_555 1_555
W1A O20A_2 1_555 1_555
W2A O2A 1_555 1_555
W3A O6A 1_555 1_555
W4A O4A 1_555 1_555
W5A O15A 1_555 1_555
W6A Ag4 1_555 1_555
O3_2 W4A 1_555 1_555
O3A_2 W4 1_555 1_555
O5_2 Ag4 1_555 1_555
O5A_2 Ag4 1_555 1_555
O8_2 W4A 1_555 1_555
O8A_2 W4 1_555 1_555
O11_2 W5A 1_555 1_555
O11A_2 W3A 1_555 1_555
O14_2 W5A 1_555 1_555
O14A_2 W5 1_555 1_555
O20A_2 W4A 1_555 1_555
O21A_2 W2A 1_555 1_555
Ag4_2 O5A 1_555 1_555
Ag4_3 O5 1_555 1_555
W1A_2 O20A 1_555 1_555
W2A_2 O21A 1_555 1_555
W3A_2 O11A 1_555 1_555
W4_2 O3A 1_555 1_555
W4A_2 O3 1_555 1_555
W5_2 O14A 1_555 1_555
W5A_2 O11 1_555 1_555
W6_2 O5A 1_555 1_555
W6A_2 O5 1_555 1_555
O22A_2 W3A 1_555 1_555
C2 C4 1_555 1_555
C3 C11 1_555 1_555
C3 N6 1_555 1_555
C10 C12 1_555 1_555
C10 N9 1_555 1_555
N3 N8 1_555 1_555
N7 N10 1_555 1_555
N10 Ag2 1_555 1_555
O8 W4A_2 1_555 1_555
O9 W6 1_555 1_555
O10 W3 1_555 1_555
O11 W3 1_555 1_555
O13 W6 1_555 1_555
O14 W5A_2 1_555 1_555
O19 W4 1_555 1_555
O20 W4 1_555 1_555
O20 W6 1_555 1_555
O20 O22 1_555 1_555
O20 O21A 1_555 1_555
O21 W2 1_555 1_555
O21 O22 1_555 1_555
P1 O11A 1_555 1_555
P1 O20A 1_555 1_555
P1 O21A 1_555 1_555
W3 O22 1_555 1_555
W5 O11A 1_555 1_555
W6 O5A_2 1_555 1_555
N1A N7A 1_555 1_555
O11A O22A 1_555 1_555
O20A O22A 1_555 1_555
O20A W4A_2 1_555 1_555
O20A W6A_2 1_555 1_555
O21A O22A 1_555 1_555
O22A W3A_2 1_555 1_555
O4A W6A 1_555 1_555
O8A W4_2 1_555 1_555
O9A W6A 1_555 1_555
O10A W3A 1_555 1_555
O13A W6A 1_555 1_555
O19A W4A 1_555 1_555
W6A O5_2 1_555 1_555
W6A O20A_2 1_555 1_555
O3A_2 W2A_2 1_555 1_555
O5A_2 W3A_2 1_555 1_555
O8_2 W5_2 1_555 1_555
O8A_2 W5A_2 1_555 1_555
O11_2 O21A_2 1_555 1_555
O11A_2 W5_2 1_555 1_555
O11A_2 O22A_2 1_555 1_555
O14A_2 W3A_2 1_555 1_555
O20A_2 O22A_2 1_555 1_555
O21A_2 O22A_2 1_555 1_555
Ag4_2 W6_2 1_555 1_555
Ag4_3 W6A_2 1_555 1_555

#END
