
#######################################################################
#
#                 Cambridge Crystallographic Data Centre
#                                CCDC 
#
#######################################################################
#
# If this CIF has been generated from an entry in the Cambridge 
# Structural Database, then it will include bibliographic, chemical, 
# crystal, experimental, refinement or atomic coordinate data resulting 
# from the CCDC's data processing and validation procedures.
#
#######################################################################

data_TIFDOB
_symmetry_cell_setting           tetragonal
_symmetry_space_group_name_H-M   'P 41 21 2'
_symmetry_Int_Tables_number      92
_space_group_name_Hall           'P 4abw 2nw'
loop_
_symmetry_equiv_pos_site_id
_symmetry_equiv_pos_as_xyz
1 x,y,z
2 -x,-y,1/2+z
3 1/2-y,1/2+x,1/4+z
4 1/2+y,1/2-x,3/4+z
5 1/2-x,1/2+y,1/4-z
6 1/2+x,1/2-y,3/4-z
7 y,x,-z
8 -y,-x,1/2-z
_cell_length_a                   20.1716(5)
_cell_length_b                   20.1716(5)
_cell_length_c                   41.2300(17)
_cell_angle_alpha                90
_cell_angle_beta                 90
_cell_angle_gamma                90
_cell_volume                     16776.2
loop_
_atom_site_label
_atom_site_type_symbol
_atom_site_fract_x
_atom_site_fract_y
_atom_site_fract_z
Mn1 Mn -0.04727(2) 0.27277(2) 0.108270(10)
Mn2 Mn 0.44920(2) 0.263998(19) 0.119728(10)
O1 O -0.07237(8) 0.26930(8) 0.15780(4)
O2 O 0.36375(8) 0.20960(8) 0.10823(4)
O3 O 0.28815(8) 0.36891(8) 0.35456(4)
O4 O 0.18424(8) -0.07408(8) 0.32710(4)
O5 O -0.03585(10) 0.27327(10) 0.05690(4)
O6 O -0.09546(10) 0.36487(9) 0.09898(4)
O7 O 0.04173(10) 0.32764(9) 0.11978(5)
O8 O 0.02318(8) 0.19306(8) 0.10631(5)
O9 O 0.40526(10) 0.33457(9) 0.15060(4)
O10 O 0.46042(10) 0.20989(9) 0.16338(4)
O11 O 0.53647(10) 0.32339(9) 0.12558(5)
O12 O 0.51877(9) 0.19597(9) 0.09984(5)
N1 N -0.04728(10) 0.30328(10) 0.18166(5)
N2 N 0.34386(10) 0.15430(9) 0.12052(5)
N3 N 0.32497(10) 0.34784(10) 0.33109(5)
N4 N 0.13234(9) -0.04683(10) 0.31472(5)
C1 C 0.18914(11) 0.18619(10) 0.23633(5)
C2 C 0.12536(10) 0.21929(10) 0.22346(5)
C3 C 0.10595(12) 0.28466(11) 0.23008(6)
H1 H 0.1313 0.3095 0.2445
C4 C 0.05265(12) 0.31277(11) 0.21661(6)
H2 H 0.0429 0.3570 0.2207
C5 C 0.01187(11) 0.27571(12) 0.19645(5)
C6 C 0.02844(11) 0.21177(11) 0.18912(5)
H3 H 0.0015 0.1871 0.1754
C7 C 0.08415(12) 0.18388(11) 0.20182(6)
H4 H 0.0953 0.1407 0.1962
C8 C -0.08284(13) 0.36488(14) 0.19307(7)
C9 C -0.04410(19) 0.42461(14) 0.18277(10)
H5 H -0.0010 0.4235 0.1927
H6 H -0.0671 0.4640 0.1894
H7 H -0.0394 0.4246 0.1596
C10 C -0.15514(15) 0.36042(17) 0.17840(8)
H8 H -0.1527 0.3619 0.1552
H9 H -0.1811 0.3971 0.1861
H10 H -0.1755 0.3196 0.1851
C11 C -0.09274(17) 0.3621(2) 0.23070(8)
H11 H -0.0504 0.3647 0.2412
H12 H -0.1141 0.3213 0.2365
H13 H -0.1198 0.3988 0.2375
C12 C 0.23067(11) 0.17198(10) 0.20588(5)
C13 C 0.25339(12) 0.11217(11) 0.19562(6)
H14 H 0.2429 0.0747 0.2077
C14 C 0.29080(11) 0.10475(11) 0.16841(6)
H15 H 0.3071 0.0630 0.1631
C15 C 0.30487(11) 0.15767(11) 0.14866(5)
C16 C 0.28207(12) 0.21901(11) 0.15790(6)
H16 H 0.2914 0.2561 0.1453
C17 C 0.24544(11) 0.22524(11) 0.18586(5)
H17 H 0.2299 0.2670 0.1916
C18 C 0.36403(14) 0.09140(13) 0.10211(7)
C19 C 0.41998(14) 0.05879(14) 0.12248(8)
H18 H 0.4031 0.0474 0.1435
H19 H 0.4561 0.0894 0.1248
H20 H 0.4353 0.0195 0.1117
C20 C 0.39141(16) 0.10983(17) 0.06805(7)
H21 H 0.3569 0.1300 0.0554
H22 H 0.4067 0.0705 0.0573
H23 H 0.4276 0.1404 0.0704
C21 C 0.30310(13) 0.04543(14) 0.09803(8)
H24 H 0.2860 0.0339 0.1190
H25 H 0.3161 0.0059 0.0867
H26 H 0.2695 0.0680 0.0858
C22 C 0.22697(10) 0.23057(11) 0.26074(5)
C23 C 0.28938(10) 0.25534(12) 0.25509(6)
H27 H 0.3102 0.2462 0.2355
C24 C 0.32200(11) 0.29379(13) 0.27807(6)
H28 H 0.3643 0.3096 0.2736
C25 C 0.29275(12) 0.30888(11) 0.30737(6)
C26 C 0.22906(11) 0.28550(10) 0.31316(6)
H29 H 0.2075 0.2963 0.3324
C27 C 0.19890(11) 0.24766(11) 0.29120(6)
H30 H 0.1569 0.2314 0.2961
C28 C 0.39953(13) 0.36896(14) 0.33077(8)
C29 C 0.41277(15) 0.39614(16) 0.36594(7)
H31 H 0.4581 0.4103 0.3677
H32 H 0.4044 0.3617 0.3815
H33 H 0.3839 0.4330 0.3701
C30 C 0.41164(15) 0.42100(15) 0.30459(8)
H34 H 0.4029 0.4021 0.2837
H35 H 0.4569 0.4356 0.3056
H36 H 0.3827 0.4581 0.3081
C31 C 0.44183(16) 0.30541(16) 0.32574(10)
H37 H 0.4343 0.2882 0.3043
H38 H 0.4294 0.2727 0.3415
H39 H 0.4879 0.3160 0.3282
C32 C 0.17194(10) 0.12336(10) 0.25656(5)
C33 C 0.22250(11) 0.08108(11) 0.26691(5)
H40 H 0.2661 0.0908 0.2613
C34 C 0.20968(11) 0.02523(11) 0.28519(5)
H41 H 0.2441 -0.0032 0.2909
C35 C 0.14408(12) 0.01131(11) 0.29525(5)
C36 C 0.09438(11) 0.05545(11) 0.28588(6)
H42 H 0.0511 0.0483 0.2929
C37 C 0.10783(11) 0.10911(10) 0.26659(5)
H43 H 0.0733 0.1366 0.2601
C38 C 0.06510(12) -0.07788(13) 0.32287(6)
C39 C 0.02831(14) -0.03392(15) 0.34687(7)
H44 H 0.0541 -0.0295 0.3663
H45 H -0.0138 -0.0536 0.3520
H46 H 0.0214 0.0090 0.3374
C40 C 0.02664(14) -0.08712(16) 0.29111(7)
H47 H -0.0158 -0.1066 0.2957
H48 H 0.0512 -0.1158 0.2769
H49 H 0.0205 -0.0448 0.2809
C41 C 0.07676(15) -0.14422(14) 0.33723(7)
H50 H 0.1008 -0.1395 0.3572
H51 H 0.1020 -0.1708 0.3224
H52 H 0.0350 -0.1653 0.3414
C42 C -0.0279(2) 0.3091(2) 0.00223(9)
C43 C -0.04582(15) 0.32095(16) 0.03732(8)
C44 C -0.07079(16) 0.38317(16) 0.04355(8)
H53 H -0.0718 0.4145 0.0270
C45 C -0.09396(15) 0.39945(15) 0.07347(8)
C46 C -0.1370(2) 0.46690(16) 0.08502(13)
C47 C 0.14899(19) 0.36441(18) 0.12332(11)
C48 C 0.10233(14) 0.31035(14) 0.11646(8)
C49 C 0.12267(15) 0.24859(15) 0.10712(9)
H54 H 0.1676 0.2425 0.1030
C50 C 0.08327(14) 0.19706(14) 0.10353(7)
C51 C 0.11693(15) 0.13114(18) 0.09570(13)
C52 C 0.3924(2) 0.40819(19) 0.19210(9)
C53 C 0.41373(15) 0.33973(14) 0.18015(8)
C54 C 0.44008(15) 0.29327(14) 0.20153(7)
H55 H 0.4440 0.3036 0.2234
C55 C 0.45992(15) 0.23354(15) 0.19067(8)
C56 C 0.4797(2) 0.1898(2) 0.21476(12)
C57 C 0.6453(2) 0.35461(19) 0.12984(11)
C58 C 0.59638(15) 0.30708(13) 0.12095(8)
C59 C 0.62018(15) 0.25155(14) 0.11097(9)
H56 H 0.6659 0.2457 0.1113
C60 C 0.58104(14) 0.20020(14) 0.09982(7)
C61 C 0.6249(2) 0.13551(19) 0.09251(13)
F1 F -0.0741(2) 0.27247(19) -0.01093(6)
F2 F 0.02299(14) 0.2804(2) -0.00206(6)
F3 F -0.02974(16) 0.35808(17) -0.01694(6)
F4 F -0.1952(2) 0.45902(16) 0.08251(15)
F5 F -0.1025(3) 0.49981(12) 0.09690(9)
F6 F -0.1303(2) 0.50210(12) 0.05467(8)
F7 F 0.14136(14) 0.38648(13) 0.15412(8)
F8 F 0.21039(12) 0.35044(12) 0.11837(11)
F9 F 0.14231(13) 0.41599(10) 0.10543(7)
F10 F 0.14173(14) 0.10132(11) 0.12225(8)
F11 F 0.08091(12) 0.08850(11) 0.08530(9)
F12 F 0.17077(12) 0.13858(13) 0.07901(8)
F13 F 0.4247(2) 0.45240(12) 0.18232(8)
F14 F 0.33866(18) 0.43082(18) 0.17919(10)
F15 F 0.3913(2) 0.41458(12) 0.22139(6)
F16 F 0.4381(2) 0.14250(16) 0.22175(9)
F17 F 0.48789(18) 0.20766(16) 0.24564(6)
F18 F 0.52438(16) 0.14853(18) 0.21086(7)
F19 F 0.64594(15) 0.40665(13) 0.10862(9)
F20 F 0.63527(14) 0.38697(14) 0.15580(7)
F21 F 0.70673(11) 0.34277(13) 0.13052(9)
F22 F 0.59825(17) 0.08442(11) 0.09851(8)
F23 F 0.58013(19) 0.11958(14) 0.05789(10)
F24 F 0.66334(13) 0.14508(14) 0.06883(10)
O3C O -0.13109(8) 0.21185(8) 0.10456(4)
O4C O 0.42592(8) 0.31576(8) 0.07710(4)
Mn1B Mn 0.22723(2) 0.45273(2) 0.358270(10)
Mn2B Mn 0.236002(19) -0.05080(2) 0.369728(10)
loop_
_geom_bond_atom_site_label_1
_geom_bond_atom_site_label_2
_geom_bond_site_symmetry_1
_geom_bond_site_symmetry_2
Mn1 O1 1_555 1_555
Mn2 O2 1_555 1_555
O1 N1 1_555 1_555
O2 N2 1_555 1_555
O3 N3 1_555 1_555
O4 N4 1_555 1_555
O5 Mn1 1_555 1_555
O6 Mn1 1_555 1_555
O7 Mn1 1_555 1_555
O8 Mn1 1_555 1_555
O9 Mn2 1_555 1_555
O10 Mn2 1_555 1_555
O11 Mn2 1_555 1_555
O12 Mn2 1_555 1_555
N1 C5 1_555 1_555
N2 C15 1_555 1_555
N3 C25 1_555 1_555
N4 C35 1_555 1_555
C1 C2 1_555 1_555
C2 C3 1_555 1_555
C3 H1 1_555 1_555
C4 C3 1_555 1_555
H2 C4 1_555 1_555
C5 C4 1_555 1_555
C6 C5 1_555 1_555
H3 C6 1_555 1_555
C7 C2 1_555 1_555
H4 C7 1_555 1_555
C8 N1 1_555 1_555
C9 C8 1_555 1_555
H5 C9 1_555 1_555
H6 C9 1_555 1_555
H7 C9 1_555 1_555
C10 C8 1_555 1_555
H8 C10 1_555 1_555
H9 C10 1_555 1_555
H10 C10 1_555 1_555
C11 C8 1_555 1_555
H11 C11 1_555 1_555
H12 C11 1_555 1_555
H13 C11 1_555 1_555
C12 C1 1_555 1_555
C13 C12 1_555 1_555
H14 C13 1_555 1_555
C14 C13 1_555 1_555
H15 C14 1_555 1_555
C15 C14 1_555 1_555
C16 C15 1_555 1_555
H16 C16 1_555 1_555
C17 C12 1_555 1_555
H17 C17 1_555 1_555
C18 N2 1_555 1_555
C19 C18 1_555 1_555
H18 C19 1_555 1_555
H19 C19 1_555 1_555
H20 C19 1_555 1_555
C20 C18 1_555 1_555
H21 C20 1_555 1_555
H22 C20 1_555 1_555
H23 C20 1_555 1_555
C21 C18 1_555 1_555
H24 C21 1_555 1_555
H25 C21 1_555 1_555
H26 C21 1_555 1_555
C22 C1 1_555 1_555
C23 C22 1_555 1_555
H27 C23 1_555 1_555
C24 C23 1_555 1_555
H28 C24 1_555 1_555
C25 C24 1_555 1_555
C26 C25 1_555 1_555
H29 C26 1_555 1_555
C27 C22 1_555 1_555
H30 C27 1_555 1_555
C28 N3 1_555 1_555
C29 C28 1_555 1_555
H31 C29 1_555 1_555
H32 C29 1_555 1_555
H33 C29 1_555 1_555
C30 C28 1_555 1_555
H34 C30 1_555 1_555
H35 C30 1_555 1_555
H36 C30 1_555 1_555
C31 C28 1_555 1_555
H37 C31 1_555 1_555
H38 C31 1_555 1_555
H39 C31 1_555 1_555
C32 C1 1_555 1_555
C33 C32 1_555 1_555
H40 C33 1_555 1_555
C34 C33 1_555 1_555
H41 C34 1_555 1_555
C35 C34 1_555 1_555
C36 C35 1_555 1_555
H42 C36 1_555 1_555
C37 C32 1_555 1_555
H43 C37 1_555 1_555
C38 N4 1_555 1_555
C39 C38 1_555 1_555
H44 C39 1_555 1_555
H45 C39 1_555 1_555
H46 C39 1_555 1_555
C40 C38 1_555 1_555
H47 C40 1_555 1_555
H48 C40 1_555 1_555
H49 C40 1_555 1_555
C41 C38 1_555 1_555
H50 C41 1_555 1_555
H51 C41 1_555 1_555
H52 C41 1_555 1_555
C42 C43 1_555 1_555
C43 O5 1_555 1_555
C44 C43 1_555 1_555
H53 C44 1_555 1_555
C45 O6 1_555 1_555
C46 C45 1_555 1_555
C47 C48 1_555 1_555
C48 O7 1_555 1_555
C49 C48 1_555 1_555
H54 C49 1_555 1_555
C50 O8 1_555 1_555
C51 C50 1_555 1_555
C52 C53 1_555 1_555
C53 O9 1_555 1_555
C54 C53 1_555 1_555
H55 C54 1_555 1_555
C55 O10 1_555 1_555
C56 C55 1_555 1_555
C57 C58 1_555 1_555
C58 O11 1_555 1_555
C59 C58 1_555 1_555
H56 C59 1_555 1_555
C60 O12 1_555 1_555
C61 C60 1_555 1_555
F1 C42 1_555 1_555
F2 C42 1_555 1_555
F3 C42 1_555 1_555
F4 C46 1_555 1_555
F5 C46 1_555 1_555
F6 C46 1_555 1_555
F7 C47 1_555 1_555
F8 C47 1_555 1_555
F9 C47 1_555 1_555
F10 C51 1_555 1_555
F11 C51 1_555 1_555
F12 C51 1_555 1_555
F13 C52 1_555 1_555
F14 C52 1_555 1_555
F15 C52 1_555 1_555
F16 C56 1_555 1_555
F17 C56 1_555 1_555
F18 C56 1_555 1_555
F19 C57 1_555 1_555
F20 C57 1_555 1_555
F21 C57 1_555 1_555
F22 C61 1_555 1_555
F23 C61 1_555 1_555
F24 C61 1_555 1_555
O3C Mn1 1_555 1_555
O4C Mn2 1_555 1_555
Mn1B O3 1_555 1_555
Mn2B O4 1_555 1_555
C6 C7 1_555 1_555
C16 C17 1_555 1_555
C26 C27 1_555 1_555
C36 C37 1_555 1_555
C44 C45 1_555 1_555
C49 C50 1_555 1_555
C54 C55 1_555 1_555
C59 C60 1_555 1_555

#END
