
#######################################################################
#
#                 Cambridge Crystallographic Data Centre
#                                CCDC 
#
#######################################################################
#
# If this CIF has been generated from an entry in the Cambridge 
# Structural Database, then it will include bibliographic, chemical, 
# crystal, experimental, refinement or atomic coordinate data resulting 
# from the CCDC's data processing and validation procedures.
#
#######################################################################

data_TIFHIB
_symmetry_cell_setting           orthorhombic
_symmetry_space_group_name_H-M   'P 21 21 2'
_symmetry_Int_Tables_number      18
_space_group_name_Hall           'P 2 2ab'
loop_
_symmetry_equiv_pos_site_id
_symmetry_equiv_pos_as_xyz
1 x,y,z
2 -x,-y,z
3 1/2+x,1/2-y,-z
4 1/2-x,1/2+y,-z
_cell_length_a                   19.030(3)
_cell_length_b                   37.337(6)
_cell_length_c                   7.9153(13)
_cell_angle_alpha                90
_cell_angle_beta                 90
_cell_angle_gamma                90
_cell_volume                     5624
loop_
_atom_site_label
_atom_site_type_symbol
_atom_site_fract_x
_atom_site_fract_y
_atom_site_fract_z
Gd1 Gd 0.25017(3) 0.885629(13) 0.42875(6)
Gd2 Gd 0.27461(3) 0.625568(14) 1.59898(6)
O1 O 0.3211(5) 0.8650(3) 0.2163(12)
O2 O 0.7099(4) 0.9239(2) -0.5050(11)
O3 O 0.1719(5) 0.9056(3) 0.2198(11)
O4 O 0.3094(5) 0.8429(2) 0.5899(12)
O5 O 0.2168(6) 0.6548(2) 1.3842(11)
O6 O 0.3525(5) 0.6044(3) 1.3910(11)
O7 O 0.4026(7) 0.9636(4) 0.388(2)
O8 O 0.3665(6) 0.9141(3) 0.4892(14)
O9 O 0.3001(5) 0.9435(3) 0.3327(16)
O10 O 0.1698(5) 0.9298(3) 0.5617(11)
O11 O 0.1660(8) 0.9417(4) 0.8309(13)
O12 O 0.2449(6) 0.9061(3) 0.7281(12)
O13 O 0.1522(6) 0.8515(3) 0.5518(13)
O14 O 0.1106(9) 0.8020(4) 0.449(3)
O15 O 0.1957(6) 0.8290(3) 0.3286(13)
O16 O 0.3461(5) 0.6789(3) 1.5277(13)
O17 O 0.4360(9) 0.6955(5) 1.677(3)
O18 O 0.3781(6) 0.6502(4) 1.7438(15)
O19 O 0.2277(5) 0.6776(3) 1.7574(12)
O20 O 0.1269(7) 0.6811(4) 1.8660(19)
O21 O 0.1516(5) 0.6360(2) 1.7184(13)
O22 O 0.3364(5) 0.5754(3) 1.7418(11)
O23 O 0.3381(11) 0.5671(5) 2.0105(15)
O24 O 0.2654(6) 0.6052(3) 1.8969(12)
N1 N 0.3758(5) 0.8774(3) 0.1300(11)
N2 N 0.6549(5) 0.9207(2) -0.4014(13)
N3 N 0.1246(5) 0.9310(3) 0.2076(12)
N4 N 0.2935(6) 0.8167(3) 0.6951(12)
N5 N 0.2303(6) 0.6808(3) 1.2809(13)
N6 N 0.3924(5) 0.5762(3) 1.3757(13)
N7 N 0.3571(6) 0.9413(3) 0.4034(17)
N8 N 0.1948(7) 0.9269(3) 0.7092(13)
N9 N 0.1517(7) 0.8267(3) 0.4444(19)
N10 N 0.3880(6) 0.6749(3) 1.648(2)
N11 N 0.1671(6) 0.6652(3) 1.7836(14)
N12 N 0.3135(7) 0.5825(3) 1.8872(15)
C1 C 0.3628(8) 0.9004(5) -0.0020(17)
H1 H 0.3176 0.9089 -0.0209
C2 C 0.4171(7) 0.9107(5) -0.1055(19)
H2 H 0.4080 0.9253 -0.1982
C3 C 0.4864(7) 0.8993(4) -0.0728(15)
C4 C 0.4960(7) 0.8782(4) 0.0665(18)
H3 H 0.5415 0.8712 0.0941
C5 C 0.4417(7) 0.8667(4) 0.1678(17)
C6 C 0.4485(11) 0.8439(7) 0.318(3)
H4 H 0.4032 0.8408 0.3690
H5 H 0.4798 0.8551 0.3970
H6 H 0.4670 0.8210 0.2852
C7 C 0.5472(7) 0.9090(4) -0.1835(17)
C8 C 0.5352(6) 0.9211(4) -0.3478(16)
H7 H 0.4894 0.9245 -0.3852
C9 C 0.5903(6) 0.9278(3) -0.4546(14)
C10 C 0.6702(6) 0.9114(3) -0.2321(15)
H8 H 0.7162 0.9100 -0.1930
C11 C 0.6151(6) 0.9046(4) -0.1300(14)
H9 H 0.6233 0.8966 -0.0204
C12 C 0.5828(7) 0.9419(4) -0.6315(14)
H10 H 0.6285 0.9443 -0.6819
H11 H 0.5602 0.9649 -0.6286
H12 H 0.5550 0.9256 -0.6971
C13 C 0.1453(7) 0.9649(3) 0.2071(17)
H13 H 0.1929 0.9703 0.2142
C14 C 0.0969(7) 0.9921(4) 0.1960(19)
H14 H 0.1123 1.0157 0.1979
C15 C 0.0264(6) 0.9851(3) 0.1822(14)
C16 C 0.0095(7) 0.9506(4) 0.186(2)
H15 H -0.0381 0.9451 0.1832
C17 C 0.0556(8) 0.9221(4) 0.193(2)
C18 C 0.0399(10) 0.8833(5) 0.182(4)
H16 H -0.0099 0.8799 0.1744
H17 H 0.0574 0.8715 0.2814
H18 H 0.0622 0.8734 0.0839
C19 C 0.2643(9) 0.8254(4) 0.8469(15)
H19 H 0.2519 0.8490 0.8700
C20 C 0.2533(10) 0.7995(3) 0.9643(14)
H20 H 0.2348 0.8059 1.0689
C21 C 0.2686(8) 0.7649(3) 0.9335(15)
C22 C 0.2935(8) 0.7562(4) 0.7747(17)
H21 H 0.3020 0.7323 0.7486
C23 C 0.3061(8) 0.7821(4) 0.6543(16)
C24 C 0.3352(11) 0.7738(4) 0.481(2)
H22 H 0.3396 0.7957 0.4173
H23 H 0.3040 0.7578 0.4226
H24 H 0.3805 0.7628 0.4916
C25 C 0.2554(8) 0.7356(3) 1.0601(13)
C26 C 0.2988(8) 0.7055(3) 1.0629(16)
H25 H 0.3366 0.7036 0.9889
C27 C 0.2843(8) 0.6781(4) 1.1796(16)
H26 H 0.3132 0.6580 1.1848
C28 C 0.1870(8) 0.7097(4) 1.2819(16)
C29 C 0.2005(9) 0.7371(4) 1.1745(17)
H27 H 0.1722 0.7575 1.1777
C30 C 0.1277(11) 0.7104(6) 1.409(3)
H28 H 0.1268 0.6882 1.4701
H29 H 0.0838 0.7137 1.3511
H30 H 0.1348 0.7299 1.4866
C31 C 0.3643(6) 0.5431(4) 1.3933(16)
H31 H 0.3164 0.5409 1.4137
C32 C 0.4042(7) 0.5134(3) 1.3818(17)
H32 H 0.3834 0.4910 1.3948
C33 C 0.4772(6) 0.5156(3) 1.3502(15)
C34 C 0.5018(7) 0.5521(4) 1.326(2)
H33 H 0.5490 0.5555 1.3008
C35 C 0.4622(8) 0.5801(3) 1.339(2)
C36 C 0.4856(9) 0.6169(5) 1.303(4)
H34 H 0.5352 0.6169 1.2805
H35 H 0.4760 0.6318 1.3990
H36 H 0.4608 0.6259 1.2064
O3A O -0.1719(5) 1.0944(3) 0.2198(11)
N3A N -0.1246(5) 1.0690(3) 0.2076(12)
C13A C -0.1453(7) 1.0351(3) 0.2071(17)
H13A H -0.1929 1.0297 0.2142
C14A C -0.0969(7) 1.0079(4) 0.1960(19)
H14A H -0.1123 0.9843 0.1979
C15A C -0.0264(6) 1.0149(3) 0.1822(14)
C16A C -0.0095(7) 1.0494(4) 0.186(2)
H15A H 0.0381 1.0549 0.1832
C17A C -0.0556(8) 1.0779(4) 0.193(2)
C18A C -0.0399(10) 1.1167(5) 0.182(4)
H16A H 0.0099 1.1201 0.1744
H17A H -0.0574 1.1285 0.2814
H18A H -0.0622 1.1266 0.0839
O6A O 0.6475(5) 0.3956(3) 1.3910(11)
N6A N 0.6076(5) 0.4238(3) 1.3757(13)
C31A C 0.6357(6) 0.4569(4) 1.3933(16)
H31A H 0.6836 0.4591 1.4137
C32A C 0.5958(7) 0.4866(3) 1.3818(17)
H32A H 0.6166 0.5090 1.3948
C33A C 0.5228(6) 0.4844(3) 1.3502(15)
C34A C 0.4982(7) 0.4479(4) 1.326(2)
H33A H 0.4510 0.4445 1.3008
C35A C 0.5378(8) 0.4199(3) 1.339(2)
C36A C 0.5144(9) 0.3831(5) 1.303(4)
H34A H 0.4648 0.3831 1.2805
H35A H 0.5240 0.3682 1.3990
H36A H 0.5392 0.3741 1.2064
Gd1A Gd -0.25017(3) 1.114371(13) 0.42875(6)
Gd2A Gd -0.27461(3) 1.374432(14) 1.59898(6)
O1A O -0.3211(5) 1.1350(3) 0.2163(12)
O2A O -0.7099(4) 1.0761(2) -0.5050(11)
O4A O -0.3094(5) 1.1571(2) 0.5899(12)
O5A O -0.2168(6) 1.3452(2) 1.3842(11)
O7A O -0.4026(7) 1.0364(4) 0.388(2)
O8A O -0.3665(6) 1.0859(3) 0.4892(14)
O9A O -0.3001(5) 1.0565(3) 0.3327(16)
O10A O -0.1698(5) 1.0702(3) 0.5617(11)
O11A O -0.1660(8) 1.0583(4) 0.8309(13)
O12A O -0.2449(6) 1.0939(3) 0.7281(12)
O13A O -0.1522(6) 1.1485(3) 0.5518(13)
O14A O -0.1106(9) 1.1980(4) 0.449(3)
O15A O -0.1957(6) 1.1710(3) 0.3286(13)
O16A O -0.3461(5) 1.3211(3) 1.5277(13)
O17A O -0.4360(9) 1.3045(5) 1.677(3)
O18A O -0.3781(6) 1.3498(4) 1.7438(15)
O19A O -0.2277(5) 1.3224(3) 1.7574(12)
O20A O -0.1269(7) 1.3189(4) 1.8660(19)
O21A O -0.1516(5) 1.3640(2) 1.7184(13)
O22A O -0.3364(5) 1.4246(3) 1.7418(11)
O23A O -0.3381(11) 1.4329(5) 2.0105(15)
O24A O -0.2654(6) 1.3948(3) 1.8969(12)
N1A N -0.3758(5) 1.1226(3) 0.1300(11)
N2A N -0.6549(5) 1.0793(2) -0.4014(13)
N4A N -0.2935(6) 1.1833(3) 0.6951(12)
N5A N -0.2303(6) 1.3192(3) 1.2809(13)
N7A N -0.3571(6) 1.0587(3) 0.4034(17)
N8A N -0.1948(7) 1.0731(3) 0.7092(13)
N9A N -0.1517(7) 1.1733(3) 0.4444(19)
N10A N -0.3880(6) 1.3251(3) 1.648(2)
N11A N -0.1671(6) 1.3348(3) 1.7836(14)
N12A N -0.3135(7) 1.4175(3) 1.8872(15)
C1A C -0.3628(8) 1.0996(5) -0.0020(17)
H1A H -0.3176 1.0911 -0.0209
C2A C -0.4171(7) 1.0893(5) -0.1055(19)
H2A H -0.4080 1.0747 -0.1982
C3A C -0.4864(7) 1.1007(4) -0.0728(15)
C4A C -0.4960(7) 1.1218(4) 0.0665(18)
H3A H -0.5415 1.1288 0.0941
C5A C -0.4417(7) 1.1333(4) 0.1678(17)
C6A C -0.4485(11) 1.1561(7) 0.318(3)
H4A H -0.4032 1.1592 0.3690
H5A H -0.4798 1.1449 0.3970
H6A H -0.4670 1.1790 0.2852
C7A C -0.5472(7) 1.0910(4) -0.1835(17)
C8A C -0.5352(6) 1.0789(4) -0.3478(16)
H7A H -0.4894 1.0755 -0.3852
C9A C -0.5903(6) 1.0722(3) -0.4546(14)
C10A C -0.6702(6) 1.0886(3) -0.2321(15)
H8A H -0.7162 1.0900 -0.1930
C11A C -0.6151(6) 1.0954(4) -0.1300(14)
H9A H -0.6233 1.1034 -0.0204
C12A C -0.5828(7) 1.0581(4) -0.6315(14)
H10A H -0.6285 1.0557 -0.6819
H11A H -0.5602 1.0351 -0.6286
H12A H -0.5550 1.0744 -0.6971
C19A C -0.2643(9) 1.1746(4) 0.8469(15)
H19A H -0.2519 1.1510 0.8700
C20A C -0.2533(10) 1.2005(3) 0.9643(14)
H20A H -0.2348 1.1941 1.0689
C21A C -0.2686(8) 1.2351(3) 0.9335(15)
C22A C -0.2935(8) 1.2438(4) 0.7747(17)
H21A H -0.3020 1.2677 0.7486
C23A C -0.3061(8) 1.2179(4) 0.6543(16)
C24A C -0.3352(11) 1.2262(4) 0.481(2)
H22A H -0.3396 1.2043 0.4173
H23A H -0.3040 1.2422 0.4226
H24A H -0.3805 1.2372 0.4916
C25A C -0.2554(8) 1.2644(3) 1.0601(13)
C26A C -0.2988(8) 1.2945(3) 1.0629(16)
H25A H -0.3366 1.2964 0.9889
C27A C -0.2843(8) 1.3219(4) 1.1796(16)
H26A H -0.3132 1.3420 1.1848
C28A C -0.1870(8) 1.2903(4) 1.2819(16)
C29A C -0.2005(9) 1.2629(4) 1.1745(17)
H27A H -0.1722 1.2425 1.1777
C30A C -0.1277(11) 1.2896(6) 1.409(3)
H28A H -0.1268 1.3118 1.4701
H29A H -0.0838 1.2863 1.3511
H30A H -0.1348 1.2701 1.4866
Gd2A_2 Gd 0.72539(3) 0.374432(14) 1.59898(6)
Gd2B Gd 0.77461(3) 0.874432(14) -0.59898(6)
Gd2C Gd -0.77461(3) 1.125568(14) -0.59898(6)
O2B O 0.2099(4) 0.5761(2) 1.5050(11)
O2C O -0.2099(4) 1.4239(2) 1.5050(11)
O6A_2 O -0.3525(5) 1.3956(3) 1.3910(11)
O25 O 0.5772(16) 0.9980(7) 0.968(4)
O26 O 0.6750(13) 0.0049(3) 0.755(2)
O27 O 0.185(2) 0.5120(8) 0.965(4)
O28 O 0.047(2) 0.7983(7) 0.973(4)
O29 O 1.003(3) 0.7692(13) -0.233(6)
O30 O 0.967(2) 0.7302(11) -0.026(6)
loop_
_geom_bond_atom_site_label_1
_geom_bond_atom_site_label_2
_geom_bond_site_symmetry_1
_geom_bond_site_symmetry_2
Gd1 O1 1_555 1_555
Gd2 O5 1_555 1_555
O1 N1 1_555 1_555
O2 N2 1_555 1_555
O3 Gd1 1_555 1_555
O4 Gd1 1_555 1_555
O5 N5 1_555 1_555
O6 Gd2 1_555 1_555
O7 N7 1_555 1_555
O8 Gd1 1_555 1_555
O9 Gd1 1_555 1_555
O10 Gd1 1_555 1_555
O11 N8 1_555 1_555
O12 Gd1 1_555 1_555
O13 Gd1 1_555 1_555
O14 N9 1_555 1_555
O15 Gd1 1_555 1_555
O16 Gd2 1_555 1_555
O17 N10 1_555 1_555
O18 Gd2 1_555 1_555
O19 Gd2 1_555 1_555
O20 N11 1_555 1_555
O21 Gd2 1_555 1_555
O22 Gd2 1_555 1_555
O23 N12 1_555 1_555
O24 Gd2 1_555 1_555
N1 C1 1_555 1_555
N2 C9 1_555 1_555
N3 O3 1_555 1_555
N4 O4 1_555 1_555
N5 C27 1_555 1_555
N6 O6 1_555 1_555
N7 O8 1_555 1_555
N8 O10 1_555 1_555
N9 O13 1_555 1_555
N10 O16 1_555 1_555
N11 O19 1_555 1_555
N12 O22 1_555 1_555
C1 H1 1_555 1_555
C2 C1 1_555 1_555
H2 C2 1_555 1_555
C3 C2 1_555 1_555
C4 C3 1_555 1_555
H3 C4 1_555 1_555
C5 N1 1_555 1_555
C6 C5 1_555 1_555
H4 C6 1_555 1_555
H5 C6 1_555 1_555
H6 C6 1_555 1_555
C7 C3 1_555 1_555
C8 C7 1_555 1_555
H7 C8 1_555 1_555
C9 C8 1_555 1_555
C10 N2 1_555 1_555
H8 C10 1_555 1_555
C11 C7 1_555 1_555
H9 C11 1_555 1_555
C12 C9 1_555 1_555
H10 C12 1_555 1_555
H11 C12 1_555 1_555
H12 C12 1_555 1_555
C13 N3 1_555 1_555
H13 C13 1_555 1_555
C14 C13 1_555 1_555
H14 C14 1_555 1_555
C15 C14 1_555 1_555
C16 C15 1_555 1_555
H15 C16 1_555 1_555
C17 N3 1_555 1_555
C18 C17 1_555 1_555
H16 C18 1_555 1_555
H17 C18 1_555 1_555
H18 C18 1_555 1_555
C19 N4 1_555 1_555
H19 C19 1_555 1_555
C20 C19 1_555 1_555
H20 C20 1_555 1_555
C21 C20 1_555 1_555
C22 C21 1_555 1_555
H21 C22 1_555 1_555
C23 N4 1_555 1_555
C24 C23 1_555 1_555
H22 C24 1_555 1_555
H23 C24 1_555 1_555
H24 C24 1_555 1_555
C25 C21 1_555 1_555
C26 C25 1_555 1_555
H25 C26 1_555 1_555
C27 C26 1_555 1_555
H26 C27 1_555 1_555
C28 N5 1_555 1_555
C29 C25 1_555 1_555
H27 C29 1_555 1_555
C30 C28 1_555 1_555
H28 C30 1_555 1_555
H29 C30 1_555 1_555
H30 C30 1_555 1_555
C31 N6 1_555 1_555
H31 C31 1_555 1_555
C32 C31 1_555 1_555
H32 C32 1_555 1_555
C33 C32 1_555 1_555
C34 C33 1_555 1_555
H33 C34 1_555 1_555
C35 N6 1_555 1_555
C36 C35 1_555 1_555
H34 C36 1_555 1_555
H35 C36 1_555 1_555
H36 C36 1_555 1_555
O3A N3A 1_555 1_555
N3A C13A 1_555 1_555
C13A H13A 1_555 1_555
C14A C13A 1_555 1_555
H14A C14A 1_555 1_555
C15A C15 1_555 1_555
C16A C15A 1_555 1_555
H15A C16A 1_555 1_555
C17A N3A 1_555 1_555
C18A C17A 1_555 1_555
H16A C18A 1_555 1_555
H17A C18A 1_555 1_555
H18A C18A 1_555 1_555
O6A N6A 1_555 1_555
N6A C31A 1_555 1_555
C31A H31A 1_555 1_555
C32A C31A 1_555 1_555
H32A C32A 1_555 1_555
C33A C33 1_555 1_555
C34A C33A 1_555 1_555
H33A C34A 1_555 1_555
C35A N6A 1_555 1_555
C36A C35A 1_555 1_555
H34A C36A 1_555 1_555
H35A C36A 1_555 1_555
H36A C36A 1_555 1_555
Gd1A O3A 1_555 1_555
Gd2A O5A 1_555 1_555
O1A Gd1A 1_555 1_555
O2A N2A 1_555 1_555
O4A Gd1A 1_555 1_555
O5A N5A 1_555 1_555
O7A N7A 1_555 1_555
O8A Gd1A 1_555 1_555
O9A Gd1A 1_555 1_555
O10A Gd1A 1_555 1_555
O11A N8A 1_555 1_555
O12A Gd1A 1_555 1_555
O13A Gd1A 1_555 1_555
O14A N9A 1_555 1_555
O15A Gd1A 1_555 1_555
O16A Gd2A 1_555 1_555
O17A N10A 1_555 1_555
O18A Gd2A 1_555 1_555
O19A Gd2A 1_555 1_555
O20A N11A 1_555 1_555
O21A Gd2A 1_555 1_555
O22A Gd2A 1_555 1_555
O23A N12A 1_555 1_555
O24A Gd2A 1_555 1_555
N1A O1A 1_555 1_555
N2A C9A 1_555 1_555
N4A O4A 1_555 1_555
N5A C27A 1_555 1_555
N7A O8A 1_555 1_555
N8A O10A 1_555 1_555
N9A O13A 1_555 1_555
N10A O16A 1_555 1_555
N11A O19A 1_555 1_555
N12A O22A 1_555 1_555
C1A N1A 1_555 1_555
H1A C1A 1_555 1_555
C2A C1A 1_555 1_555
H2A C2A 1_555 1_555
C3A C2A 1_555 1_555
C4A C3A 1_555 1_555
H3A C4A 1_555 1_555
C5A N1A 1_555 1_555
C6A C5A 1_555 1_555
H4A C6A 1_555 1_555
H5A C6A 1_555 1_555
H6A C6A 1_555 1_555
C7A C3A 1_555 1_555
C8A C7A 1_555 1_555
H7A C8A 1_555 1_555
C9A C8A 1_555 1_555
C10A N2A 1_555 1_555
H8A C10A 1_555 1_555
C11A C7A 1_555 1_555
H9A C11A 1_555 1_555
C12A C9A 1_555 1_555
H10A C12A 1_555 1_555
H11A C12A 1_555 1_555
H12A C12A 1_555 1_555
C19A N4A 1_555 1_555
H19A C19A 1_555 1_555
C20A C19A 1_555 1_555
H20A C20A 1_555 1_555
C21A C20A 1_555 1_555
C22A C21A 1_555 1_555
H21A C22A 1_555 1_555
C23A N4A 1_555 1_555
C24A C23A 1_555 1_555
H22A C24A 1_555 1_555
H23A C24A 1_555 1_555
H24A C24A 1_555 1_555
C25A C21A 1_555 1_555
C26A C25A 1_555 1_555
H25A C26A 1_555 1_555
C27A C26A 1_555 1_555
H26A C27A 1_555 1_555
C28A N5A 1_555 1_555
C29A C25A 1_555 1_555
H27A C29A 1_555 1_555
C30A C28A 1_555 1_555
H28A C30A 1_555 1_555
H29A C30A 1_555 1_555
H30A C30A 1_555 1_555
Gd2A_2 O6A 1_555 1_555
Gd2B O2 1_555 1_555
Gd2C O2A 1_555 1_555
O2B Gd2 1_555 1_555
O2C Gd2A 1_555 1_555
O6A_2 Gd2A 1_555 1_555
O9 N7 1_555 1_555
O12 N8 1_555 1_555
O15 N9 1_555 1_555
O18 N10 1_555 1_555
O21 N11 1_555 1_555
O24 N12 1_555 1_555
C4 C5 1_555 1_555
C10 C11 1_555 1_555
C16 C17 1_555 1_555
C22 C23 1_555 1_555
C28 C29 1_555 1_555
C34 C35 1_555 1_555
C14A C15A 1_555 1_555
C16A C17A 1_555 1_555
C32A C33A 1_555 1_555
C34A C35A 1_555 1_555
O9A N7A 1_555 1_555
O12A N8A 1_555 1_555
O15A N9A 1_555 1_555
O18A N10A 1_555 1_555
O21A N11A 1_555 1_555
O24A N12A 1_555 1_555
C4A C5A 1_555 1_555
C10A C11A 1_555 1_555
C22A C23A 1_555 1_555
C28A C29A 1_555 1_555

#END
