
#######################################################################
#
#                 Cambridge Crystallographic Data Centre
#                                CCDC 
#
#######################################################################
#
# If this CIF has been generated from an entry in the Cambridge 
# Structural Database, then it will include bibliographic, chemical, 
# crystal, experimental, refinement or atomic coordinate data resulting 
# from the CCDC's data processing and validation procedures.
#
#######################################################################

data_TIFHAT
_symmetry_cell_setting           monoclinic
_symmetry_space_group_name_H-M   'C 2/c'
_symmetry_Int_Tables_number      15
_space_group_name_Hall           '-C 2yn'
loop_
_symmetry_equiv_pos_site_id
_symmetry_equiv_pos_as_xyz
1 x,y,z
2 -x,y,1/2-z
3 1/2+x,1/2+y,z
4 1/2-x,1/2+y,1/2-z
5 -x,-y,-z
6 x,-y,1/2+z
7 1/2-x,1/2-y,-z
8 1/2+x,1/2-y,1/2+z
_cell_length_a                   33.912(2)
_cell_length_b                   23.1782(15)
_cell_length_c                   24.3984(16)
_cell_angle_alpha                90
_cell_angle_beta                 134.02
_cell_angle_gamma                90
_cell_volume                     13790.6
loop_
_atom_site_label
_atom_site_type_symbol
_atom_site_fract_x
_atom_site_fract_y
_atom_site_fract_z
Nd1 Nd 0.227328(16) 0.122671(17) 0.21967(2)
O1 O 0.1916(3) 0.0426(3) 0.1331(3)
O2 O 0.2616(3) -0.0669(3) -0.1745(3)
O3 O 0.2930(2) 0.1906(3) 0.3107(4)
O4 O 0.6690(2) 0.3075(3) 0.6169(3)
O5 O 0.1404(3) 0.0842(3) 0.1744(4)
O6 O 0.1939(3) 0.1856(3) 0.2642(4)
O7 O 0.2612(2) 0.1521(3) 0.1602(3)
O8 O 0.3134(3) 0.0698(3) 0.2776(4)
N1 N 0.2026(3) 0.0266(3) 0.0934(4)
N2 N 0.2498(3) -0.0527(3) -0.1340(4)
N3 N 0.3456(3) 0.2038(3) 0.3519(4)
N4 N 0.6182(3) 0.2892(3) 0.5783(4)
C1 C 0.1852(4) 0.0605(4) 0.0336(5)
H1 H 0.1674 0.0950 0.0242
C2 C 0.1928(4) 0.0456(4) -0.0113(5)
H2 H 0.1796 0.0693 -0.0519
C3 C 0.2208(4) -0.0059(4) 0.0025(5)
C4 C 0.2390(4) -0.0389(4) 0.0640(5)
H3 H 0.2581 -0.0727 0.0751
C5 C 0.2301(4) -0.0237(4) 0.1097(5)
C6 C 0.2489(6) -0.0596(4) 0.1757(7)
H4 H 0.2715 -0.0366 0.2212
H5 H 0.2697 -0.0920 0.1825
H6 H 0.2176 -0.0733 0.1655
C7 C 0.2306(4) -0.0232(3) -0.0456(5)
C8 C 0.2458(4) -0.0783(4) -0.0452(5)
H7 H 0.2496 -0.1062 -0.0144
C9 C 0.2554(4) -0.0924(4) -0.0889(5)
H8 H 0.2659 -0.1298 -0.0877
C10 C 0.2343(4) 0.0028(4) -0.1378(5)
C11 C 0.2243(4) 0.0164(4) -0.0936(5)
H9 H 0.2129 0.0536 -0.0960
C12 C 0.2290(5) 0.0451(4) -0.1896(6)
H10 H 0.2627 0.0462 -0.1773
H11 H 0.2212 0.0828 -0.1828
H12 H 0.1997 0.0332 -0.2416
C13 C 0.3857(4) 0.1685(4) 0.4111(5)
H13 H 0.3764 0.1351 0.4209
C14 C 0.4391(4) 0.1826(4) 0.4553(6)
H14 H 0.4663 0.1584 0.4954
C15 C 0.4545(3) 0.2340(4) 0.4414(5)
C16 C 0.4119(3) 0.2665(4) 0.3799(5)
H15 H 0.4202 0.2996 0.3681
C17 C 0.3567(3) 0.2523(4) 0.3343(5)
C18 C 0.3106(4) 0.2881(4) 0.2695(6)
H16 H 0.2844 0.2639 0.2259
H17 H 0.3242 0.3165 0.2576
H18 H 0.2932 0.3069 0.2830
C19 C 0.5117(3) 0.2525(4) 0.4906(5)
C20 C 0.5227(3) 0.3090(4) 0.4890(5)
H19 H 0.4945 0.3356 0.4581
C21 C 0.5777(4) 0.3258(4) 0.5351(6)
H20 H 0.5854 0.3643 0.5348
C22 C 0.6093(4) 0.2333(4) 0.5847(5)
C23 C 0.5555(3) 0.2162(4) 0.5390(5)
H21 H 0.5486 0.1779 0.5412
C24 C 0.6587(4) 0.1951(4) 0.6368(6)
H22 H 0.6847 0.2056 0.6341
H23 H 0.6479 0.1557 0.6214
H24 H 0.6751 0.1998 0.6881
Nd1E Nd 0.227328(16) -0.122671(17) -0.28033(2)
Nd1G Nd 0.727328(16) 0.377329(17) 0.71967(2)
O2E O 0.2616(3) 0.0669(3) 0.3255(3)
O4G O 0.1690(2) 0.1925(3) 0.1169(3)
O9 O 0.1406(7) 0.4479(7) 0.8916(8)
O10 O 0.1073(8) 0.5295(7) 0.7430(10)
O11 O 0.4894(6) 0.3011(11) 0.6069(8)
O12 O 0.5904(11) 0.1447(7) 0.7053(15)
O13 O 0.5542(7) 0.0612(7) 0.5225(10)
O14 O 0.5964(9) -0.0250(7) 0.5421(12)
O15 O 0.6239(8) 0.0599(7) 0.5304(9)
O16 O 0.6406(6) 0.0314(6) 0.6327(8)
Cl1 Cl 0.5999(3) 0.0277(2) 0.5498(3)
O17 O 0.7425(4) 0.2110(4) 0.8436(5)
O18 O 0.7800(6) 0.1761(4) 0.9607(7)
O19 O 0.8341(5) 0.1937(6) 0.9419(8)
O20 O 0.7916(6) 0.2698(4) 0.9473(7)
Cl2 Cl 0.78775(16) 0.21334(12) 0.92496(19)
O21 O 0.8598(5) 0.1412(6) 0.6866(8)
O22 O 0.9045(5) 0.0628(4) 0.7660(7)
O23 O 0.9459(5) 0.1531(6) 0.8010(8)
O24 O 0.9316(7) 0.1026(5) 0.7139(9)
Cl3 Cl 0.91130(12) 0.11558(11) 0.74417(16)
O25 O 0.6102(4) 0.3579(4) 0.7373(5)
O26 O 0.5530(3) 0.5396(4) 1.0339(5)
N5 N 0.6033(4) 0.3813(4) 0.7798(5)
N6 N 0.5579(4) 0.5124(4) 0.9922(5)
C25 C 0.5848(5) 0.4356(5) 0.7663(7)
H25 H 0.5791 0.4571 0.7291
C26 C 0.5743(5) 0.4599(5) 0.8055(7)
H26 H 0.5602 0.4972 0.7932
C27 C 0.5840(4) 0.4307(4) 0.8631(6)
C28 C 0.6048(5) 0.3758(4) 0.8780(7)
H27 H 0.6128 0.3551 0.9174
C29 C 0.6144(5) 0.3498(5) 0.8360(7)
C30 C 0.6387(7) 0.2916(6) 0.8516(9)
H28 H 0.6208 0.2726 0.8042
H29 H 0.6339 0.2693 0.8798
H30 H 0.6771 0.2954 0.8808
C31 C 0.5738(4) 0.4571(4) 0.9069(6)
C32 C 0.5486(5) 0.5116(5) 0.8871(6)
H31 H 0.5370 0.5300 0.8441
C33 C 0.5406(5) 0.5383(5) 0.9278(6)
H32 H 0.5235 0.5741 0.9124
C34 C 0.5824(5) 0.4580(5) 1.0149(6)
C35 C 0.5892(5) 0.4323(4) 0.9694(6)
H33 H 0.6054 0.3960 0.9835
C36 C 0.5965(6) 0.4323(5) 1.0822(8)
H34 H 0.5662 0.4367 1.0776
H35 H 0.6281 0.4514 1.1276
H36 H 0.6044 0.3920 1.0851
O27 O 0.7890(3) 0.1977(3) 0.4785(4)
O28 O 1.1377(3) 0.3864(3) 0.7633(4)
N7 N 0.8347(3) 0.2253(4) 0.5188(5)
N8 N 1.0896(3) 0.3616(3) 0.7260(4)
C37 C 0.8824(4) 0.1950(4) 0.5730(6)
H37 H 0.8809 0.1566 0.5827
C38 C 0.9327(4) 0.2216(4) 0.6134(5)
H38 H 0.9648 0.2000 0.6472
C39 C 0.9358(4) 0.2798(4) 0.6040(5)
C40 C 0.8861(4) 0.3106(4) 0.5521(5)
H39 H 0.8865 0.3500 0.5453
C41 C 0.8356(4) 0.2811(5) 0.5101(5)
C42 C 0.7823(5) 0.3108(6) 0.4556(7)
H40 H 0.7611 0.2948 0.4056
H41 H 0.7881 0.3512 0.4548
H42 H 0.7629 0.3057 0.4708
C43 C 0.9898(4) 0.3091(4) 0.6484(5)
C44 C 0.9939(4) 0.3609(4) 0.6238(6)
H43 H 0.9622 0.3789 0.5806
C45 C 1.0436(4) 0.3858(4) 0.6620(6)
H44 H 1.0457 0.4196 0.6436
C46 C 1.0874(4) 0.3105(4) 0.7530(5)
C47 C 1.0380(4) 0.2858(4) 0.7143(5)
H45 H 1.0365 0.2517 0.7330
C48 C 1.1411(5) 0.2866(5) 0.8246(7)
H46 H 1.1344 0.2567 0.8445
H47 H 1.1621 0.3169 0.8617
H48 H 1.1611 0.2711 0.8134
loop_
_geom_bond_atom_site_label_1
_geom_bond_atom_site_label_2
_geom_bond_site_symmetry_1
_geom_bond_site_symmetry_2
Nd1 O1 1_555 1_555
O1 N1 1_555 1_555
O2 N2 1_555 1_555
O3 Nd1 1_555 1_555
O4 N4 1_555 1_555
O5 Nd1 1_555 1_555
O6 Nd1 1_555 1_555
O7 Nd1 1_555 1_555
O8 Nd1 1_555 1_555
N1 C1 1_555 1_555
N2 C9 1_555 1_555
N3 O3 1_555 1_555
N4 C21 1_555 1_555
C1 H1 1_555 1_555
C2 C1 1_555 1_555
H2 C2 1_555 1_555
C3 C2 1_555 1_555
C4 C3 1_555 1_555
H3 C4 1_555 1_555
C5 N1 1_555 1_555
C6 C5 1_555 1_555
H4 C6 1_555 1_555
H5 C6 1_555 1_555
H6 C6 1_555 1_555
C7 C3 1_555 1_555
C8 C7 1_555 1_555
H7 C8 1_555 1_555
C9 C8 1_555 1_555
H8 C9 1_555 1_555
C10 N2 1_555 1_555
C11 C7 1_555 1_555
H9 C11 1_555 1_555
C12 C10 1_555 1_555
H10 C12 1_555 1_555
H11 C12 1_555 1_555
H12 C12 1_555 1_555
C13 N3 1_555 1_555
H13 C13 1_555 1_555
C14 C13 1_555 1_555
H14 C14 1_555 1_555
C15 C14 1_555 1_555
C16 C15 1_555 1_555
H15 C16 1_555 1_555
C17 N3 1_555 1_555
C18 C17 1_555 1_555
H16 C18 1_555 1_555
H17 C18 1_555 1_555
H18 C18 1_555 1_555
C19 C15 1_555 1_555
C20 C19 1_555 1_555
H19 C20 1_555 1_555
C21 C20 1_555 1_555
H20 C21 1_555 1_555
C22 N4 1_555 1_555
C23 C19 1_555 1_555
H21 C23 1_555 1_555
C24 C22 1_555 1_555
H22 C24 1_555 1_555
H23 C24 1_555 1_555
H24 C24 1_555 1_555
O13 Cl1 1_555 1_555
O14 Cl1 1_555 1_555
O15 Cl1 1_555 1_555
O16 Cl1 1_555 1_555
O17 Cl2 1_555 1_555
O18 Cl2 1_555 1_555
O19 Cl2 1_555 1_555
O20 Cl2 1_555 1_555
O21 Cl3 1_555 1_555
O22 Cl3 1_555 1_555
O23 Cl3 1_555 1_555
O24 Cl3 1_555 1_555
O25 N5 1_555 1_555
O26 N6 1_555 1_555
N5 C25 1_555 1_555
N6 C33 1_555 1_555
C25 H25 1_555 1_555
C26 C25 1_555 1_555
H26 C26 1_555 1_555
C27 C26 1_555 1_555
C28 C27 1_555 1_555
H27 C28 1_555 1_555
C29 N5 1_555 1_555
C30 C29 1_555 1_555
H28 C30 1_555 1_555
H29 C30 1_555 1_555
H30 C30 1_555 1_555
C31 C27 1_555 1_555
C32 C31 1_555 1_555
H31 C32 1_555 1_555
C33 C32 1_555 1_555
H32 C33 1_555 1_555
C34 N6 1_555 1_555
C35 C31 1_555 1_555
H33 C35 1_555 1_555
C36 C34 1_555 1_555
H34 C36 1_555 1_555
H35 C36 1_555 1_555
H36 C36 1_555 1_555
O27 N7 1_555 1_555
O28 N8 1_555 1_555
N7 C37 1_555 1_555
N8 C45 1_555 1_555
C37 H37 1_555 1_555
C38 C37 1_555 1_555
H38 C38 1_555 1_555
C39 C38 1_555 1_555
C40 C39 1_555 1_555
H39 C40 1_555 1_555
C41 N7 1_555 1_555
C42 C41 1_555 1_555
H40 C42 1_555 1_555
H41 C42 1_555 1_555
H42 C42 1_555 1_555
C43 C39 1_555 1_555
C44 C43 1_555 1_555
H43 C44 1_555 1_555
C45 C44 1_555 1_555
H44 C45 1_555 1_555
C46 N8 1_555 1_555
C47 C43 1_555 1_555
H45 C47 1_555 1_555
C48 C46 1_555 1_555
H46 C48 1_555 1_555
H47 C48 1_555 1_555
H48 C48 1_555 1_555
Nd1E O2 1_555 1_555
Nd1G O4 1_555 1_555
O2E Nd1 1_555 1_555
O4G Nd1 1_555 1_555
C4 C5 1_555 1_555
C10 C11 1_555 1_555
C16 C17 1_555 1_555
C22 C23 1_555 1_555
C28 C29 1_555 1_555
C34 C35 1_555 1_555
C40 C41 1_555 1_555
C46 C47 1_555 1_555

#END
