
#######################################################################
#
#                 Cambridge Crystallographic Data Centre
#                                CCDC 
#
#######################################################################
#
# If this CIF has been generated from an entry in the Cambridge 
# Structural Database, then it will include bibliographic, chemical, 
# crystal, experimental, refinement or atomic coordinate data resulting 
# from the CCDC's data processing and validation procedures.
#
#######################################################################

data_TIFHEX
_symmetry_cell_setting           monoclinic
_symmetry_space_group_name_H-M   'C 2/c'
_symmetry_Int_Tables_number      15
_space_group_name_Hall           '-C 2yn'
loop_
_symmetry_equiv_pos_site_id
_symmetry_equiv_pos_as_xyz
1 x,y,z
2 -x,y,1/2-z
3 1/2+x,1/2+y,z
4 1/2-x,1/2+y,1/2-z
5 -x,-y,-z
6 x,-y,1/2+z
7 1/2-x,1/2-y,-z
8 1/2+x,1/2-y,1/2+z
_cell_length_a                   33.813(4)
_cell_length_b                   23.079(3)
_cell_length_c                   24.287(5)
_cell_angle_alpha                90
_cell_angle_beta                 134.116(10)
_cell_angle_gamma                90
_cell_volume                     13606.9
loop_
_atom_site_label
_atom_site_type_symbol
_atom_site_fract_x
_atom_site_fract_y
_atom_site_fract_z
Sm1 Sm 0.75746(3) 0.37308(4) 0.28022(5)
O1 O 0.6868(5) 0.3173(6) 0.1762(8)
O2 O 0.3087(5) 0.2055(6) -0.1344(8)
O3 O 0.8006(5) 0.4412(6) 0.3806(8)
O4 O 0.7328(6) 0.5592(6) 0.6903(8)
O5 O 0.7170(5) 0.3359(6) 0.3251(8)
O6 O 0.6795(5) 0.4342(6) 0.2362(8)
O7 O 0.7856(6) 0.3204(6) 0.2218(8)
O8 O 0.8498(6) 0.4023(6) 0.3394(7)
N1 N 0.6347(6) 0.3024(7) 0.1358(8)
N2 N 0.3592(6) 0.2220(7) -0.0932(9)
N3 N 0.7895(6) 0.4609(7) 0.4211(9)
N4 N 0.7441(6) 0.5482(7) 0.6487(9)
C1 C 0.5970(8) 0.3414(9) 0.0903(11)
H1 H 0.6066 0.3784 0.0878
C2 C 0.5412(7) 0.3262(9) 0.0446(11)
H2 H 0.5141 0.3539 0.0123
C3 C 0.5262(7) 0.2727(7) 0.0466(10)
C4 C 0.5701(8) 0.2349(8) 0.0959(11)
H3 H 0.5617 0.1972 0.0983
C5 C 0.6221(8) 0.2474(8) 0.1393(11)
C6 C 0.6705(10) 0.2049(10) 0.1943(15)
H4 H 0.6565 0.1677 0.1914
H5 H 0.6946 0.2193 0.2459
H6 H 0.6905 0.2013 0.1798
C7 C 0.4691(7) 0.2545(8) -0.0013(10)
C8 C 0.4551(8) 0.2032(10) 0.0109(11)
H7 H 0.4826 0.1790 0.0510
C9 C 0.4009(8) 0.1876(9) -0.0355(12)
H8 H 0.3926 0.1523 -0.0271
C10 C 0.3696(8) 0.2721(9) -0.1096(12)
C11 C 0.4244(8) 0.2875(8) -0.0641(13)
H9 H 0.4320 0.3214 -0.0759
C12 C 0.3213(10) 0.3095(11) -0.1771(14)
H10 H 0.2871 0.2911 -0.2008
H11 H 0.3237 0.3136 -0.2140
H12 H 0.3230 0.3471 -0.1586
C13 C 0.7941(10) 0.4262(11) 0.4641(14)
H13 H 0.8044 0.3883 0.4662
C14 C 0.7841(9) 0.4420(9) 0.5123(11)
H14 H 0.7861 0.4150 0.5426
C15 C 0.7717(8) 0.4986(9) 0.5098(11)
C16 C 0.7654(9) 0.5340(11) 0.4595(12)
H15 H 0.7555 0.5723 0.4562
C17 C 0.7728(8) 0.5167(9) 0.4135(11)
C18 C 0.7692(12) 0.5532(10) 0.3607(14)
H16 H 0.7760 0.5301 0.3352
H17 H 0.7962 0.5836 0.3892
H18 H 0.7331 0.5700 0.3234
C19 C 0.7638(8) 0.5155(9) 0.5600(11)
C20 C 0.7811(8) 0.4842(9) 0.6200(12)
H19 H 0.8004 0.4503 0.6314
C21 C 0.7724(9) 0.4988(9) 0.6665(11)
C22 C 0.7266(8) 0.5816(9) 0.5908(10)
H20 H 0.7075 0.6153 0.5813
C23 C 0.7344(10) 0.5702(10) 0.5470(13)
H21 H 0.7221 0.5956 0.5080
C24 C 0.7913(11) 0.4626(10) 0.7273(15)
H22 H 0.7819 0.4795 0.7532
H23 H 0.8305 0.4584 0.7628
H24 H 0.7742 0.4252 0.7076
Sm1E Sm 0.75746(3) 0.62692(4) 0.78022(5)
Sm1G Sm 0.25746(3) 0.12692(4) -0.21978(5)
O2G O 0.8087(5) 0.2945(6) 0.3656(8)
O4E O 0.7328(6) 0.4408(6) 0.1903(8)
O9 O 0.9937(10) 0.2957(16) 0.1101(15)
O10 O 0.6295(17) 0.451(2) 0.3871(16)
O11 O 0.1149(14) 0.202(4) 0.257(2)
O12 O 0.1330(13) 0.1071(13) 0.294(3)
O13 O 0.9231(11) 0.6043(14) 0.311(2)
O14 O 0.8963(12) 0.5971(11) 0.201(2)
O15 O 0.8857(11) 0.6855(10) 0.2312(15)
O16 O 0.9676(9) 0.6485(12) 0.2895(17)
Cl1 Cl 0.9168(3) 0.6336(3) 0.2553(4)
O17 O 0.7847(16) 0.6915(16) 0.481(2)
O18 O 0.8413(13) 0.6919(13) 0.467(2)
O19 O 0.811(2) 0.7770(13) 0.457(2)
O20 O 0.7591(13) 0.7175(14) 0.3634(19)
Cl2 Cl 0.7988(6) 0.7221(5) 0.4476(7)
O21 O 0.5953(11) 0.4796(11) 0.0519(15)
O22 O 0.6474(9) 0.5388(9) 0.1539(10)
O23 O 0.6404(13) 0.5594(14) 0.0576(18)
O24 O 0.5676(9) 0.5726(10) 0.0350(14)
Cl3 Cl 0.6121(3) 0.5364(3) 0.0736(4)
O25 O 0.6236(7) 0.3923(8) 0.2652(11)
O26 O 0.2690(7) 0.2106(8) -0.0329(10)
N5 N 0.5745(7) 0.3690(8) 0.2223(11)
N6 N 0.3156(10) 0.2361(9) 0.0086(13)
C25 C 0.5712(13) 0.3135(12) 0.2376(17)
H25 H 0.6029 0.2922 0.2759
C26 C 0.5218(11) 0.2908(12) 0.1964(17)
H26 H 0.5199 0.2529 0.2074
C27 C 0.4725(10) 0.3191(11) 0.1380(13)
C28 C 0.4778(10) 0.3735(13) 0.1241(14)
H27 H 0.4462 0.3949 0.0861
C29 C 0.5298(12) 0.3994(13) 0.1652(18)
C30 C 0.5380(11) 0.4603(14) 0.150(2)
H28 H 0.5767 0.4684 0.1850
H29 H 0.5209 0.4882 0.1574
H30 H 0.5217 0.4627 0.0983
C31 C 0.4175(11) 0.2916(10) 0.0943(15)
C32 C 0.4129(11) 0.2375(11) 0.1133(13)
H31 H 0.4450 0.2192 0.1560
C33 C 0.3640(13) 0.2090(13) 0.0733(15)
H32 H 0.3630 0.1726 0.0887
C34 C 0.3179(9) 0.2914(10) -0.0151(12)
C35 C 0.3711(11) 0.3173(11) 0.0312(15)
H33 H 0.3739 0.3535 0.0173
C36 C 0.2635(12) 0.3196(14) -0.0810(17)
H34 H 0.2341 0.2928 -0.1025
H35 H 0.2630 0.3308 -0.1195
H36 H 0.2587 0.3533 -0.0629
O27 O 0.1231(6) 0.3617(6) 0.2336(8)
O28 O 0.0610(6) 0.5506(7) 0.5223(9)
N7 N 0.1132(6) 0.3862(8) 0.2721(9)
N8 N 0.0653(7) 0.5237(9) 0.4809(11)
C37 C 0.1313(9) 0.3618(10) 0.3381(13)
H37 H 0.1521 0.3280 0.3577
C38 C 0.1191(9) 0.3866(10) 0.3730(12)
H38 H 0.1285 0.3677 0.4146
C39 C 0.0932(9) 0.4387(9) 0.3511(12)
C40 C 0.0755(8) 0.4626(9) 0.2874(11)
H39 H 0.0564 0.4975 0.2706
C41 C 0.0842(8) 0.4380(9) 0.2464(11)
C42 C 0.0672(12) 0.4641(16) 0.1736(16)
H40 H 0.0479 0.4999 0.1608
H41 H 0.0436 0.4373 0.1318
H42 H 0.0994 0.4712 0.1829
C43 C 0.0827(9) 0.4682(11) 0.3962(13)
C44 C 0.0686(9) 0.5265(10) 0.3869(13)
H43 H 0.0663 0.5489 0.3529
C45 C 0.0581(10) 0.5514(10) 0.4264(14)
H44 H 0.0454 0.5894 0.4148
C46 C 0.0738(9) 0.4671(14) 0.4881(12)
C47 C 0.0832(9) 0.4364(9) 0.4477(11)
H45 H 0.0894 0.3966 0.4541
C48 C 0.0783(14) 0.4371(12) 0.5447(16)
H46 H 0.0709 0.4637 0.5669
H47 H 0.1149 0.4218 0.5841
H48 H 0.0521 0.4059 0.5205
loop_
_geom_bond_atom_site_label_1
_geom_bond_atom_site_label_2
_geom_bond_site_symmetry_1
_geom_bond_site_symmetry_2
Sm1 O1 1_555 1_555
O1 N1 1_555 1_555
O2 N2 1_555 1_555
O3 Sm1 1_555 1_555
O4 N4 1_555 1_555
O5 Sm1 1_555 1_555
O6 Sm1 1_555 1_555
O7 Sm1 1_555 1_555
O8 Sm1 1_555 1_555
N1 C1 1_555 1_555
N2 C9 1_555 1_555
N3 O3 1_555 1_555
N4 C21 1_555 1_555
C1 H1 1_555 1_555
C2 C1 1_555 1_555
H2 C2 1_555 1_555
C3 C2 1_555 1_555
C4 C3 1_555 1_555
H3 C4 1_555 1_555
C5 N1 1_555 1_555
C6 C5 1_555 1_555
H4 C6 1_555 1_555
H5 C6 1_555 1_555
H6 C6 1_555 1_555
C7 C3 1_555 1_555
C8 C7 1_555 1_555
H7 C8 1_555 1_555
C9 C8 1_555 1_555
H8 C9 1_555 1_555
C10 N2 1_555 1_555
C11 C7 1_555 1_555
H9 C11 1_555 1_555
C12 C10 1_555 1_555
H10 C12 1_555 1_555
H11 C12 1_555 1_555
H12 C12 1_555 1_555
C13 N3 1_555 1_555
H13 C13 1_555 1_555
C14 C13 1_555 1_555
H14 C14 1_555 1_555
C15 C14 1_555 1_555
C16 C15 1_555 1_555
H15 C16 1_555 1_555
C17 N3 1_555 1_555
C18 C17 1_555 1_555
H16 C18 1_555 1_555
H17 C18 1_555 1_555
H18 C18 1_555 1_555
C19 C15 1_555 1_555
C20 C19 1_555 1_555
H19 C20 1_555 1_555
C21 C20 1_555 1_555
C22 N4 1_555 1_555
H20 C22 1_555 1_555
C23 C19 1_555 1_555
H21 C23 1_555 1_555
C24 C21 1_555 1_555
H22 C24 1_555 1_555
H23 C24 1_555 1_555
H24 C24 1_555 1_555
O13 Cl1 1_555 1_555
O14 Cl1 1_555 1_555
O15 Cl1 1_555 1_555
O16 Cl1 1_555 1_555
O17 Cl2 1_555 1_555
O18 Cl2 1_555 1_555
O19 Cl2 1_555 1_555
O20 Cl2 1_555 1_555
O21 Cl3 1_555 1_555
O22 Cl3 1_555 1_555
O23 Cl3 1_555 1_555
O24 Cl3 1_555 1_555
O25 N5 1_555 1_555
O26 N6 1_555 1_555
N5 C25 1_555 1_555
N6 C33 1_555 1_555
C25 H25 1_555 1_555
C26 C25 1_555 1_555
H26 C26 1_555 1_555
C27 C26 1_555 1_555
C28 C27 1_555 1_555
H27 C28 1_555 1_555
C29 N5 1_555 1_555
C30 C29 1_555 1_555
H28 C30 1_555 1_555
H29 C30 1_555 1_555
H30 C30 1_555 1_555
C31 C27 1_555 1_555
C32 C31 1_555 1_555
H31 C32 1_555 1_555
C33 C32 1_555 1_555
H32 C33 1_555 1_555
C34 N6 1_555 1_555
C35 C31 1_555 1_555
H33 C35 1_555 1_555
C36 C34 1_555 1_555
H34 C36 1_555 1_555
H35 C36 1_555 1_555
H36 C36 1_555 1_555
O27 N7 1_555 1_555
O28 N8 1_555 1_555
N7 C37 1_555 1_555
N8 C45 1_555 1_555
C37 H37 1_555 1_555
C38 C37 1_555 1_555
H38 C38 1_555 1_555
C39 C38 1_555 1_555
C40 C39 1_555 1_555
H39 C40 1_555 1_555
C41 N7 1_555 1_555
C42 C41 1_555 1_555
H40 C42 1_555 1_555
H41 C42 1_555 1_555
H42 C42 1_555 1_555
C43 C39 1_555 1_555
C44 C43 1_555 1_555
H43 C44 1_555 1_555
C45 C44 1_555 1_555
H44 C45 1_555 1_555
C46 N8 1_555 1_555
C47 C43 1_555 1_555
H45 C47 1_555 1_555
C48 C46 1_555 1_555
H46 C48 1_555 1_555
H47 C48 1_555 1_555
H48 C48 1_555 1_555
Sm1E O4 1_555 1_555
Sm1G O2 1_555 1_555
O2G Sm1 1_555 1_555
O4E Sm1 1_555 1_555
C4 C5 1_555 1_555
C10 C11 1_555 1_555
C16 C17 1_555 1_555
C22 C23 1_555 1_555
C28 C29 1_555 1_555
C34 C35 1_555 1_555
C40 C41 1_555 1_555
C46 C47 1_555 1_555

#END
