
#######################################################################
#
#                 Cambridge Crystallographic Data Centre
#                                CCDC 
#
#######################################################################
#
# If this CIF has been generated from an entry in the Cambridge 
# Structural Database, then it will include bibliographic, chemical, 
# crystal, experimental, refinement or atomic coordinate data resulting 
# from the CCDC's data processing and validation procedures.
#
#######################################################################

data_TIFHOH
_symmetry_cell_setting           orthorhombic
_symmetry_space_group_name_H-M   'P n m a'
_symmetry_Int_Tables_number      62
_space_group_name_Hall           '-P 2ac 2n'
loop_
_symmetry_equiv_pos_site_id
_symmetry_equiv_pos_as_xyz
1 x,y,z
2 1/2-x,-y,1/2+z
3 -x,1/2+y,-z
4 1/2+x,1/2-y,1/2-z
5 -x,-y,-z
6 1/2+x,y,1/2-z
7 x,1/2-y,z
8 1/2-x,1/2+y,1/2+z
_cell_length_a                   11.0015(8)
_cell_length_b                   22.1926(16)
_cell_length_c                   7.5027(5)
_cell_angle_alpha                90
_cell_angle_beta                 90
_cell_angle_gamma                90
_cell_volume                     1831.8
loop_
_atom_site_label
_atom_site_type_symbol
_atom_site_fract_x
_atom_site_fract_y
_atom_site_fract_z
La1 La 0.84373(5) 0.7500 0.98313(7)
O1 O 0.9977(5) 0.6852(2) 0.8409(8)
O2 O 0.7281(8) 0.7500 0.6894(10)
H1 H 0.6666 0.7706 0.6995
O3 O 0.8268(7) 0.6509(3) 1.1643(9)
O4 O 0.7640(8) 0.5648(3) 1.0706(14)
O5 O 0.7470(5) 0.6444(3) 0.9057(9)
O6 O 0.6719(12) 0.7500 1.2985(17)
O7 O 0.4807(11) 0.7500 1.2463(18)
O8 O 0.6097(9) 0.7500 1.0467(13)
N1 N 0.9964(5) 0.6332(3) 0.7502(9)
N2 N 0.7782(7) 0.6184(4) 1.0470(11)
N3 N 0.5779(17) 0.7500 1.1962(17)
C1 C 0.9447(7) 0.6318(4) 0.5883(11)
H2 H 0.9090 0.6666 0.5426
C2 C 0.9438(8) 0.5806(4) 0.4906(10)
H3 H 0.9065 0.5805 0.3794
C3 C 0.9979(7) 0.5279(3) 0.5538(10)
C4 C 1.0496(7) 0.5318(3) 0.7224(10)
H4 H 1.0854 0.4974 0.7703
C5 C 1.0505(6) 0.5837(3) 0.8217(10)
C6 C 1.1089(10) 0.5898(5) 0.9993(11)
H5 H 1.1768 0.6168 0.9907
H6 H 1.1366 0.5510 1.0388
H7 H 1.0510 0.6055 1.0830
O1D O 1.0023(5) 0.3148(2) 0.1591(8)
N1D N 1.0036(5) 0.3668(3) 0.2498(9)
C1D C 1.0553(7) 0.3682(4) 0.4117(11)
H2D H 1.0910 0.3334 0.4574
C2D C 1.0562(8) 0.4194(4) 0.5094(10)
H3D H 1.0935 0.4195 0.6206
C3D C 1.0021(7) 0.4721(3) 0.4462(10)
C4D C 0.9504(7) 0.4682(3) 0.2776(10)
H4D H 0.9146 0.5026 0.2297
C5D C 0.9495(6) 0.4163(3) 0.1783(10)
C6D C 0.8911(10) 0.4102(5) 0.0007(11)
H5D H 0.8232 0.3832 0.0093
H6D H 0.8634 0.4490 -0.0388
H7D H 0.9490 0.3945 -0.0830
H1F H 0.6666 0.7294 0.6995
O3F O 0.8268(7) 0.8491(3) 1.1643(9)
O4F O 0.7640(8) 0.9352(3) 1.0706(14)
O5F O 0.7470(5) 0.8556(3) 0.9057(9)
N2F N 0.7782(7) 0.8816(4) 1.0470(11)
La1B La 1.15627(5) 0.2500 0.01687(7)
La1C La 0.34373(5) 0.7500 1.51687(7)
O1F O 0.9977(5) 0.8148(2) 0.8409(8)
O7C O 0.9807(11) 0.7500 1.2537(18)
loop_
_geom_bond_atom_site_label_1
_geom_bond_atom_site_label_2
_geom_bond_site_symmetry_1
_geom_bond_site_symmetry_2
La1 O1 1_555 1_555
O1 N1 1_555 1_555
O2 La1 1_555 1_555
H1 O2 1_555 1_555
O3 La1 1_555 1_555
O4 N2 1_555 1_555
O5 La1 1_555 1_555
O6 N3 1_555 1_555
O7 N3 1_555 1_555
O8 La1 1_555 1_555
N1 C1 1_555 1_555
N2 O3 1_555 1_555
N3 O8 1_555 1_555
C1 H2 1_555 1_555
C2 C1 1_555 1_555
H3 C2 1_555 1_555
C3 C2 1_555 1_555
C4 C3 1_555 1_555
H4 C4 1_555 1_555
C5 N1 1_555 1_555
C6 C5 1_555 1_555
H5 C6 1_555 1_555
H6 C6 1_555 1_555
H7 C6 1_555 1_555
O1D N1D 1_555 1_555
N1D C1D 1_555 1_555
C1D H2D 1_555 1_555
C2D C1D 1_555 1_555
H3D C2D 1_555 1_555
C3D C3 1_555 1_555
C4D C3D 1_555 1_555
H4D C4D 1_555 1_555
C5D N1D 1_555 1_555
C6D C5D 1_555 1_555
H5D C6D 1_555 1_555
H6D C6D 1_555 1_555
H7D C6D 1_555 1_555
H1F O2 1_555 1_555
O3F La1 1_555 1_555
O4F N2F 1_555 1_555
O5F La1 1_555 1_555
N2F O3F 1_555 1_555
La1B O1D 1_555 1_555
La1C O7 1_555 1_555
O1F La1 1_555 1_555
O7C La1 1_555 1_555
O5 N2 1_555 1_555
C4 C5 1_555 1_555
C2D C3D 1_555 1_555
C4D C5D 1_555 1_555
O5F N2F 1_555 1_555

#END
