
#######################################################################
#
#                 Cambridge Crystallographic Data Centre
#                                CCDC 
#
#######################################################################
#
# If this CIF has been generated from an entry in the Cambridge 
# Structural Database, then it will include bibliographic, chemical, 
# crystal, experimental, refinement or atomic coordinate data resulting 
# from the CCDC's data processing and validation procedures.
#
#######################################################################

data_TIFJOJ
_symmetry_cell_setting           monoclinic
_symmetry_space_group_name_H-M   'C c'
_symmetry_Int_Tables_number      9
_space_group_name_Hall           'C -2yc'
loop_
_symmetry_equiv_pos_site_id
_symmetry_equiv_pos_as_xyz
1 x,y,z
2 x,-y,1/2+z
3 1/2+x,1/2+y,z
4 1/2+x,1/2-y,1/2+z
_cell_length_a                   11.7624(9)
_cell_length_b                   18.7933(19)
_cell_length_c                   10.3071(11)
_cell_angle_alpha                90
_cell_angle_beta                 97.6510(10)
_cell_angle_gamma                90
_cell_volume                     2258.15
loop_
_atom_site_label
_atom_site_type_symbol
_atom_site_fract_x
_atom_site_fract_y
_atom_site_fract_z
Ni1 Ni 0.32308(6) 0.03212(3) 0.52263(6)
N1 N 0.2358(4) -0.0619(2) 0.5119(4)
N2 N -0.0990(4) -0.3716(2) 0.5122(4)
O1 O 0.1884(3) 0.06955(19) 0.3849(4)
O2 O 0.1764(3) 0.0939(2) 0.5908(4)
O3 O -0.0515(3) 0.48223(17) 0.4321(3)
O4 O -0.1030(3) 0.49002(18) 0.2171(4)
S1 S 0.09741(16) 0.24998(9) 0.56097(16)
S2 S 0.04729(16) 0.35309(9) 0.52066(16)
C1 C -0.0085(5) 0.1973(3) 0.4650(6)
C2 C 0.0206(5) 0.1291(3) 0.4306(6)
C3 C -0.0582(6) 0.0889(4) 0.3500(8)
H1 H -0.0373 0.0443 0.3218
C4 C -0.1680(7) 0.1145(5) 0.3108(10)
H2 H -0.2219 0.0865 0.2599
C5 C -0.1957(6) 0.1814(5) 0.3481(8)
H3 H -0.2689 0.1992 0.3214
C6 C -0.1179(6) 0.2221(4) 0.4233(7)
H4 H -0.1384 0.2676 0.4473
C7 C 0.1362(5) 0.0960(3) 0.4726(6)
C8 C 0.1157(5) 0.3765(3) 0.3820(6)
C9 C 0.0690(4) 0.4295(3) 0.2952(5)
C10 C 0.1225(5) 0.4463(3) 0.1887(6)
H5 H 0.0914 0.4818 0.1317
C11 C 0.2210(6) 0.4121(5) 0.1639(8)
H6 H 0.2563 0.4249 0.0918
C12 C 0.2669(7) 0.3586(5) 0.2473(8)
H7 H 0.3318 0.3339 0.2304
C13 C 0.2147(6) 0.3425(4) 0.3557(7)
H8 H 0.2470 0.3076 0.4131
C14 C -0.0376(4) 0.4701(2) 0.3154(5)
C15 C 0.0963(5) -0.1815(3) 0.5024(6)
C16 C 0.1135(5) -0.1454(3) 0.3892(6)
H9 H 0.0775 -0.1605 0.3081
C17 C 0.1842(5) -0.0871(3) 0.3987(6)
H10 H 0.1967 -0.0641 0.3220
C18 C 0.2206(5) -0.0974(3) 0.6190(6)
H11 H 0.2566 -0.0809 0.6992
C19 C 0.1548(6) -0.1567(3) 0.6170(6)
H12 H 0.1494 -0.1809 0.6946
C20 C 0.0219(5) -0.2455(3) 0.5006(5)
C21 C -0.0313(5) -0.2618(3) 0.6079(6)
H13 H -0.0262 -0.2308 0.6787
C22 C -0.0921(5) -0.3244(3) 0.6094(6)
H14 H -0.1299 -0.3340 0.6812
C23 C -0.0528(4) -0.3533(3) 0.4060(5)
H15 H -0.0607 -0.3844 0.3352
C24 C 0.0052(5) -0.2914(3) 0.3952(5)
H16 H 0.0333 -0.2801 0.3175
Ni1B Ni -0.17692(6) -0.46788(3) 0.52263(6)
Ni1B_2 Ni -0.17692(6) 0.53212(3) 0.52263(6)
Ni1C Ni -0.17692(6) 0.46788(3) 0.02263(6)
N2B N 0.4010(4) 0.1284(2) 0.5122(4)
O3B O 0.4485(3) -0.01777(17) 0.4321(3)
O4C O 0.3970(3) 0.00998(18) 0.7171(4)
loop_
_geom_bond_atom_site_label_1
_geom_bond_atom_site_label_2
_geom_bond_site_symmetry_1
_geom_bond_site_symmetry_2
Ni1 N1 1_555 1_555
N1 C17 1_555 1_555
N2 C22 1_555 1_555
O1 Ni1 1_555 1_555
O2 Ni1 1_555 1_555
O3 C14 1_555 1_555
O4 C14 1_555 1_555
S1 S2 1_555 1_555
S2 C8 1_555 1_555
C1 S1 1_555 1_555
C2 C1 1_555 1_555
C3 C2 1_555 1_555
H1 C3 1_555 1_555
C4 C3 1_555 1_555
H2 C4 1_555 1_555
C5 C4 1_555 1_555
H3 C5 1_555 1_555
C6 C1 1_555 1_555
H4 C6 1_555 1_555
C7 O1 1_555 1_555
C8 C9 1_555 1_555
C9 C10 1_555 1_555
C10 H5 1_555 1_555
C11 C10 1_555 1_555
H6 C11 1_555 1_555
C12 C11 1_555 1_555
H7 C12 1_555 1_555
C13 C8 1_555 1_555
H8 C13 1_555 1_555
C14 C9 1_555 1_555
C15 C16 1_555 1_555
C16 H9 1_555 1_555
C17 C16 1_555 1_555
H10 C17 1_555 1_555
C18 N1 1_555 1_555
H11 C18 1_555 1_555
C19 C15 1_555 1_555
H12 C19 1_555 1_555
C20 C15 1_555 1_555
C21 C20 1_555 1_555
H13 C21 1_555 1_555
C22 C21 1_555 1_555
H14 C22 1_555 1_555
C23 N2 1_555 1_555
H15 C23 1_555 1_555
C24 C20 1_555 1_555
H16 C24 1_555 1_555
Ni1B N2 1_555 1_555
Ni1B_2 O3 1_555 1_555
Ni1C O4 1_555 1_555
N2B Ni1 1_555 1_555
O3B Ni1 1_555 1_555
O4C Ni1 1_555 1_555
O2 C7 1_555 1_555
C2 C7 1_555 1_555
C5 C6 1_555 1_555
C12 C13 1_555 1_555
C18 C19 1_555 1_555
C23 C24 1_555 1_555

#END
