
#######################################################################
#
#                 Cambridge Crystallographic Data Centre
#                                CCDC 
#
#######################################################################
#
# If this CIF has been generated from an entry in the Cambridge 
# Structural Database, then it will include bibliographic, chemical, 
# crystal, experimental, refinement or atomic coordinate data resulting 
# from the CCDC's data processing and validation procedures.
#
#######################################################################

data_TIFLEB
_symmetry_cell_setting           monoclinic
_symmetry_space_group_name_H-M   'C 2/c'
_symmetry_Int_Tables_number      15
_space_group_name_Hall           '-C 2yn'
loop_
_symmetry_equiv_pos_site_id
_symmetry_equiv_pos_as_xyz
1 x,y,z
2 -x,y,1/2-z
3 1/2+x,1/2+y,z
4 1/2-x,1/2+y,1/2-z
5 -x,-y,-z
6 x,-y,1/2+z
7 1/2-x,1/2-y,-z
8 1/2+x,1/2-y,1/2+z
_cell_length_a                   44.6934(16)
_cell_length_b                   9.6802(3)
_cell_length_c                   6.5293(2)
_cell_angle_alpha                90
_cell_angle_beta                 91.605(4)
_cell_angle_gamma                90
_cell_volume                     2823.73
loop_
_atom_site_label
_atom_site_type_symbol
_atom_site_fract_x
_atom_site_fract_y
_atom_site_fract_z
Mn1 Mn 0.36796(5) 0.5805(2) 0.6046(3)
O1 O 0.4159(2) 0.6722(10) 0.5113(17)
N1 N 0.3482(3) 0.5967(13) 0.288(2)
N2 N 0.3305(3) 0.6866(12) 0.2323(19)
N3 N 0.3143(4) 0.7725(15) 0.188(2)
N4 N 0.3890(3) 0.4024(12) 0.4285(17)
N5 N 0.3922(3) 0.2887(12) 0.5020(19)
N6 N 0.3951(4) 0.1809(14) 0.574(2)
N7 N 0.4455(3) 0.8584(13) 0.473(2)
H1 H 0.4510 0.9734 0.4793
H2 H 0.4614 0.7732 0.4302
N8 N 0.3963(3) 0.8851(13) 0.5610(19)
N9 N 0.3698(3) 0.8223(12) 0.5955(18)
N10 N 0.3207(3) 0.6850(12) 0.6900(17)
C1 C 0.4193(3) 0.7999(14) 0.514(2)
C2 C 0.3467(3) 0.8974(15) 0.632(2)
H3 H 0.3474 0.9934 0.6279
C3 C 0.3192(3) 0.8230(15) 0.682(2)
C4 C 0.2931(3) 0.8980(15) 0.708(3)
H4 H 0.2931 0.9940 0.7009
C5 C 0.2671(3) 0.8261(17) 0.746(2)
H5 H 0.2491 0.8724 0.7656
C6 C 0.2685(3) 0.6839(16) 0.755(3)
H6 H 0.2514 0.6329 0.7804
C7 C 0.2947(3) 0.6187(16) 0.726(3)
H7 H 0.2950 0.5227 0.7314
Mn1E Mn 0.36796(5) 0.4195(2) 0.1046(3)
N1E N 0.3482(3) 0.4033(13) 0.788(2)
N4E N 0.3890(3) 0.5976(12) 0.9285(17)
Mn2 Mn 0.5000 0.4947(3) 0.7500
O2 O 0.4513(2) 0.4885(11) 0.7434(17)
N11 N 0.5011(3) 0.3424(14) 0.499(2)
N12 N 0.4839(3) 0.2485(14) 0.484(2)
N13 N 0.4668(3) 0.1586(14) 0.464(2)
O2A O 0.5487(2) 0.4885(11) 0.7566(17)
N11A N 0.4989(3) 0.3424(14) 1.001(2)
N12A N 0.5161(3) 0.2485(14) 1.016(2)
N13A N 0.5332(3) 0.1586(14) 1.036(2)
Mn2D Mn 0.5000 0.5053(3) 0.2500
Mn2D_2 Mn 0.5000 0.5053(3) 1.2500
N11D N 0.4989(3) 0.6576(14) 0.501(2)
N11E N 0.5011(3) 0.6576(14) 0.999(2)
loop_
_geom_bond_atom_site_label_1
_geom_bond_atom_site_label_2
_geom_bond_site_symmetry_1
_geom_bond_site_symmetry_2
Mn1 O1 1_555 1_555
O1 C1 1_555 1_555
N1 Mn1 1_555 1_555
N2 N1 1_555 1_555
N3 N2 1_555 1_555
N4 Mn1 1_555 1_555
N5 N4 1_555 1_555
N6 N5 1_555 1_555
N7 H1 1_555 1_555
H2 N7 1_555 1_555
N8 N9 1_555 1_555
N9 Mn1 1_555 1_555
N10 Mn1 1_555 1_555
C1 N7 1_555 1_555
C2 N9 1_555 1_555
H3 C2 1_555 1_555
C3 N10 1_555 1_555
C4 C3 1_555 1_555
H4 C4 1_555 1_555
C5 C4 1_555 1_555
H5 C5 1_555 1_555
C6 C5 1_555 1_555
H6 C6 1_555 1_555
C7 N10 1_555 1_555
H7 C7 1_555 1_555
Mn2 O2 1_555 1_555
N11 Mn2 1_555 1_555
N12 N11 1_555 1_555
N13 N12 1_555 1_555
Mn1E N1 1_555 1_555
N1E Mn1 1_555 1_555
N4E Mn1 1_555 1_555
O2A Mn2 1_555 1_555
N11A Mn2 1_555 1_555
N12A N11A 1_555 1_555
N13A N12A 1_555 1_555
Mn2D N11 1_555 1_555
Mn2D_2 N11A 1_555 1_555
N11D Mn2 1_555 1_555
N11E Mn2 1_555 1_555
N4 Mn1E 1_555 1_555
N8 C1 1_555 1_555
C2 C3 1_555 1_555
C6 C7 1_555 1_555
Mn2D N11D 1_555 1_555
Mn2D_2 N11E 1_555 1_555

#END
