
#######################################################################
#
#                 Cambridge Crystallographic Data Centre
#                                CCDC 
#
#######################################################################
#
# If this CIF has been generated from an entry in the Cambridge 
# Structural Database, then it will include bibliographic, chemical, 
# crystal, experimental, refinement or atomic coordinate data resulting 
# from the CCDC's data processing and validation procedures.
#
#######################################################################

data_TIFLAX
_symmetry_cell_setting           monoclinic
_symmetry_space_group_name_H-M   'P 21/c'
_symmetry_Int_Tables_number      14
_space_group_name_Hall           '-P 2ybc'
loop_
_symmetry_equiv_pos_site_id
_symmetry_equiv_pos_as_xyz
1 x,y,z
2 -x,1/2+y,1/2-z
3 -x,-y,-z
4 x,1/2-y,1/2+z
_cell_length_a                   18.2423(9)
_cell_length_b                   9.7255(4)
_cell_length_c                   6.5488(3)
_cell_angle_alpha                90
_cell_angle_beta                 97.243(4)
_cell_angle_gamma                90
_cell_volume                     1152.59
loop_
_atom_site_label
_atom_site_type_symbol
_atom_site_fract_x
_atom_site_fract_y
_atom_site_fract_z
C1 C 0.4184(3) 1.0941(5) 0.1223(8)
C2 C 0.2362(3) 1.1564(6) 0.2151(9)
H1 H 0.2347 1.2518 0.2213
C3 C 0.1699(3) 1.0756(6) 0.2350(9)
C4 C 0.1031(3) 1.1421(6) 0.2495(10)
H2 H 0.1005 1.2376 0.2494
C5 C 0.0408(3) 1.0637(6) 0.2639(11)
H3 H -0.0047 1.1051 0.2724
C6 C 0.0476(4) 0.9219(7) 0.2653(12)
H4 H 0.0068 0.8662 0.2746
C7 C 0.1161(3) 0.8648(6) 0.2528(11)
H5 H 0.1201 0.7694 0.2562
N1 N 0.4769(2) 1.1718(5) 0.1013(8)
H6 H 0.5156 1.1592 0.1086
H7 H 0.4749 1.2712 0.1114
N2 N 0.3570(2) 1.1688(4) 0.1630(8)
H8 H 0.3567 1.2747 0.1947
N3 N 0.2961(2) 1.0947(5) 0.1892(7)
N4 N 0.1773(2) 0.9382(5) 0.2361(8)
N5 N 0.2495(3) 0.6427(5) 0.3255(8)
N6 N 0.2023(3) 0.5588(5) 0.2770(8)
N7 N 0.1552(3) 0.4794(6) 0.2311(9)
N8 N 0.3618(3) 0.6685(4) -0.0015(7)
N9 N 0.3803(3) 0.5597(5) 0.0720(7)
N10 N 0.3976(3) 0.4538(5) 0.1421(9)
O1 O 0.4159(2) 0.9668(4) 0.1084(6)
Cd1 Cd 0.301233(19) 0.84195(3) 0.16697(6)
N5C N 0.2495(3) 0.8573(5) -0.1745(8)
N8C N 0.3618(3) 0.8315(4) 0.4985(7)
Cd1C Cd 0.301233(19) 0.65805(3) -0.33303(6)
Cd1C_2 Cd 0.301233(19) 0.65805(3) 0.66697(6)
loop_
_geom_bond_atom_site_label_1
_geom_bond_atom_site_label_2
_geom_bond_site_symmetry_1
_geom_bond_site_symmetry_2
C1 N1 1_555 1_555
C2 H1 1_555 1_555
C3 C2 1_555 1_555
C4 C3 1_555 1_555
H2 C4 1_555 1_555
C5 C4 1_555 1_555
H3 C5 1_555 1_555
C6 C5 1_555 1_555
H4 C6 1_555 1_555
C7 C6 1_555 1_555
H5 C7 1_555 1_555
N1 H6 1_555 1_555
H7 N1 1_555 1_555
N2 C1 1_555 1_555
H8 N2 1_555 1_555
N3 C2 1_555 1_555
N4 C3 1_555 1_555
N5 N6 1_555 1_555
N6 N7 1_555 1_555
N8 N9 1_555 1_555
N9 N10 1_555 1_555
O1 C1 1_555 1_555
Cd1 N3 1_555 1_555
N5C Cd1 1_555 1_555
N8C Cd1 1_555 1_555
Cd1C N8 1_555 1_555
Cd1C_2 N5 1_555 1_555
C7 N4 1_555 1_555
N2 N3 1_555 1_555
N4 Cd1 1_555 1_555
N5 Cd1 1_555 1_555
N8 Cd1 1_555 1_555
O1 Cd1 1_555 1_555
N5C Cd1C 1_555 1_555
N8C Cd1C_2 1_555 1_555

#END
