
#######################################################################
#
#                 Cambridge Crystallographic Data Centre
#                                CCDC 
#
#######################################################################
#
# If this CIF has been generated from an entry in the Cambridge 
# Structural Database, then it will include bibliographic, chemical, 
# crystal, experimental, refinement or atomic coordinate data resulting 
# from the CCDC's data processing and validation procedures.
#
#######################################################################

data_TIFMOK01
_symmetry_cell_setting           monoclinic
_symmetry_space_group_name_H-M   'P 21/n'
_symmetry_Int_Tables_number      14
_space_group_name_Hall           '-P 2yn'
loop_
_symmetry_equiv_pos_site_id
_symmetry_equiv_pos_as_xyz
1 x,y,z
2 1/2-x,1/2+y,1/2-z
3 -x,-y,-z
4 1/2+x,1/2-y,1/2+z
_cell_length_a                   9.4935(5)
_cell_length_b                   7.2658(5)
_cell_length_c                   16.2480(6)
_cell_angle_alpha                90
_cell_angle_beta                 95.228(2)
_cell_angle_gamma                90
_cell_volume                     1116.09
loop_
_atom_site_label
_atom_site_type_symbol
_atom_site_fract_x
_atom_site_fract_y
_atom_site_fract_z
Zn1 Zn 0.52153(7) 0.37335(11) 0.66268(4)
N1 N 0.5218(5) 0.4447(8) 0.7851(3)
O1 O 0.3450(4) 0.5063(6) 0.6223(2)
O2 O 0.3450(4) 0.2753(7) 0.5347(3)
O3 O 0.3365(4) 0.5855(7) 0.4133(2)
O4 O 0.1792(4) 0.5268(8) 0.3095(3)
O5 O 0.4970(5) 0.1082(6) 0.6878(3)
H1 H 0.5484 0.0561 0.7309
H2 H 0.4856 0.0421 0.6408
C1 C 0.2883(6) 0.4123(9) 0.5614(3)
C2 C 0.2145(6) 0.5391(9) 0.3842(4)
C3 C 0.1421(5) 0.4686(8) 0.5279(3)
C4 C 0.1047(6) 0.5124(8) 0.4445(3)
C5 C 0.0366(5) 0.4564(9) 0.5808(3)
H3 H 0.0615 0.4259 0.6358
C6 C 0.3978(6) 0.4478(11) 0.8173(4)
H4 H 0.3158 0.4353 0.7818
C7 C 0.3848(6) 0.4685(11) 0.8999(4)
H5 H 0.2956 0.4695 0.9192
C8 C 0.5039(6) 0.4880(9) 0.9547(3)
C9 C 0.6328(6) 0.4877(10) 0.9207(4)
H6 H 0.7164 0.5033 0.9545
C10 C 0.6364(6) 0.4645(11) 0.8377(4)
H7 H 0.7243 0.4625 0.8167
C8B C 0.4961(6) 0.5120(9) 1.0453(3)
C7B C 0.6152(6) 0.5315(11) 1.1001(4)
C6B C 0.6022(6) 0.5522(11) 1.1827(4)
N1B N 0.4782(5) 0.5553(8) 1.2149(3)
C10B C 0.3636(6) 0.5355(11) 1.1623(4)
C9B C 0.3672(6) 0.5123(10) 1.0793(4)
H6B H 0.2836 0.4967 1.0455
H7B H 0.2757 0.5375 1.1833
H4B H 0.6842 0.5647 1.2182
H5B H 0.7044 0.5305 1.0808
C5B C -0.0366(5) 0.5436(9) 0.4192(3)
C3B C -0.1421(5) 0.5314(8) 0.4721(3)
C1B C -0.2883(6) 0.5877(9) 0.4386(3)
O1B O -0.3450(4) 0.4937(6) 0.3777(2)
O2B O -0.3450(4) 0.7247(7) 0.4653(3)
C4B C -0.1047(6) 0.4876(8) 0.5555(3)
C2B C -0.2145(6) 0.4609(9) 0.6158(4)
O3B O -0.3365(4) 0.4145(7) 0.5867(2)
O4B O -0.1792(4) 0.4732(8) 0.6905(3)
H3B H -0.0615 0.5741 0.3642
Zn1B Zn 0.47847(7) 0.62665(11) 1.33732(4)
O5B O 0.5030(5) 0.8918(6) 1.3122(3)
H1B H 0.4516 0.9439 1.2691
H2B H 0.5144 0.9579 1.3592
O3B_2 O 0.6635(4) 0.4145(7) 0.5867(2)
Zn1B_2 Zn 0.47847(7) 0.62665(11) 0.33732(4)
Zn1B_3 Zn -0.52153(7) 0.62665(11) 0.33732(4)
Zn1_2 Zn -0.47847(7) 0.37335(11) 0.66268(4)
O1B_2 O 0.6550(4) 0.4937(6) 1.3777(2)
O3_2 O 0.3365(4) 0.5855(7) 1.4133(2)
O6 O 0.4610(6) -0.1497(7) 0.5729(3)
H8 H 0.4226 -0.2507 0.5844
H9 H 0.5319 -0.1915 0.5671
loop_
_geom_bond_atom_site_label_1
_geom_bond_atom_site_label_2
_geom_bond_site_symmetry_1
_geom_bond_site_symmetry_2
Zn1 N1 1_555 1_555
N1 C6 1_555 1_555
O1 Zn1 1_555 1_555
O2 C1 1_555 1_555
O3 C2 1_555 1_555
O4 C2 1_555 1_555
O5 Zn1 1_555 1_555
H1 O5 1_555 1_555
H2 O5 1_555 1_555
C1 O1 1_555 1_555
C2 C4 1_555 1_555
C3 C1 1_555 1_555
C4 C3 1_555 1_555
C5 C3 1_555 1_555
H3 C5 1_555 1_555
C6 H4 1_555 1_555
C7 C6 1_555 1_555
H5 C7 1_555 1_555
C8 C7 1_555 1_555
C9 C8 1_555 1_555
H6 C9 1_555 1_555
C10 N1 1_555 1_555
H7 C10 1_555 1_555
O6 H8 1_555 1_555
H9 O6 1_555 1_555
C8B C8 1_555 1_555
C7B C8B 1_555 1_555
C6B C7B 1_555 1_555
N1B C6B 1_555 1_555
C10B N1B 1_555 1_555
C9B C8B 1_555 1_555
H6B C9B 1_555 1_555
H7B C10B 1_555 1_555
H4B C6B 1_555 1_555
H5B C7B 1_555 1_555
C5B C4 1_555 1_555
C3B C5B 1_555 1_555
C1B C3B 1_555 1_555
O1B C1B 1_555 1_555
O2B C1B 1_555 1_555
C4B C5 1_555 1_555
C2B C4B 1_555 1_555
O3B C2B 1_555 1_555
O4B C2B 1_555 1_555
H3B C5B 1_555 1_555
Zn1B N1B 1_555 1_555
O5B Zn1B 1_555 1_555
H1B O5B 1_555 1_555
H2B O5B 1_555 1_555
O3B_2 Zn1 1_555 1_555
Zn1B_2 O3 1_555 1_555
Zn1B_3 O1B 1_555 1_555
Zn1_2 O3B 1_555 1_555
O1B_2 Zn1B 1_555 1_555
O3_2 Zn1B 1_555 1_555
C9 C10 1_555 1_555
C10B C9B 1_555 1_555
C3B C4B 1_555 1_555

#END
