
#######################################################################
#
#                 Cambridge Crystallographic Data Centre
#                                CCDC 
#
#######################################################################
#
# If this CIF has been generated from an entry in the Cambridge 
# Structural Database, then it will include bibliographic, chemical, 
# crystal, experimental, refinement or atomic coordinate data resulting 
# from the CCDC's data processing and validation procedures.
#
#######################################################################

data_TIFMOK
_symmetry_cell_setting           monoclinic
_symmetry_space_group_name_H-M   'P 21/n'
_symmetry_Int_Tables_number      14
_space_group_name_Hall           '-P 2yn'
loop_
_symmetry_equiv_pos_site_id
_symmetry_equiv_pos_as_xyz
1 x,y,z
2 1/2-x,1/2+y,1/2-z
3 -x,-y,-z
4 1/2+x,1/2-y,1/2+z
_cell_length_a                   9.493(2)
_cell_length_b                   7.263(2)
_cell_length_c                   16.263(3)
_cell_angle_alpha                90
_cell_angle_beta                 95.18(3)
_cell_angle_gamma                90
_cell_volume                     1116.72
loop_
_atom_site_label
_atom_site_type_symbol
_atom_site_fract_x
_atom_site_fract_y
_atom_site_fract_z
Zn1 Zn 0.52149(3) 0.62648(4) 0.162774(16)
O1 O 0.34485(19) 0.4933(3) 0.12245(11)
O2 O 0.3456(2) 0.7254(3) 0.03484(14)
O3 O 0.33698(19) 0.4153(3) -0.08636(12)
O4 O 0.4963(2) 0.8940(3) 0.18774(13)
O5 O 0.1790(2) 0.4734(4) -0.19071(12)
N1 N 0.5213(2) 0.5543(3) 0.28501(13)
C1 C 0.3839(3) 0.5307(6) 0.40047(18)
C2 C 0.6370(3) 0.5345(5) 0.33734(17)
C3 C 0.3967(3) 0.5506(6) 0.31689(18)
C4 C 0.6336(3) 0.5104(5) 0.42121(16)
C5 C 0.5047(3) 0.5108(4) 0.45503(14)
C6 C 0.2135(2) 0.4606(4) -0.11592(14)
C7 C 0.1420(2) 0.5327(3) 0.02764(14)
C8 C 0.2892(2) 0.5881(4) 0.06097(15)
C9 C 0.0365(2) 0.5429(4) 0.08151(14)
C10 C 0.1050(2) 0.4874(3) -0.05542(13)
H1 H 0.719(6) 0.558(8) 0.315(4)
H2 H 0.056(4) 0.567(5) 0.143(2)
H3 H 0.718(5) 0.504(6) 0.457(3)
H4 H 0.297(4) 0.523(6) 0.421(2)
H5 H 0.309(4) 0.553(6) 0.274(2)
C10B C -0.1050(2) 0.5126(3) 0.05542(13)
C6B C -0.2135(2) 0.5394(4) 0.11592(14)
O3B O -0.33698(19) 0.5847(3) 0.08636(12)
O5B O -0.1790(2) 0.5266(4) 0.19071(12)
C7B C -0.1420(2) 0.4673(3) -0.02764(14)
C8B C -0.2892(2) 0.4119(4) -0.06097(15)
O1B O -0.34485(19) 0.5067(3) -0.12245(11)
O2B O -0.3456(2) 0.2746(3) -0.03484(14)
C9B C -0.0365(2) 0.4571(4) -0.08151(14)
H2B H -0.056(4) 0.433(5) -0.143(2)
C5B C 0.4953(3) 0.4892(4) 0.54497(14)
C1B C 0.6161(3) 0.4693(6) 0.59953(18)
C3B C 0.6033(3) 0.4494(6) 0.68311(18)
N1B N 0.4787(2) 0.4457(3) 0.71499(13)
C2B C 0.3630(3) 0.4655(5) 0.66266(17)
C4B C 0.3664(3) 0.4896(5) 0.57879(16)
H3B H 0.282(5) 0.496(6) 0.543(3)
H1B H 0.281(6) 0.442(8) 0.685(4)
H5B H 0.691(4) 0.447(6) 0.726(2)
H4B H 0.703(4) 0.477(6) 0.579(2)
Zn1B Zn -0.52149(3) 0.37352(4) -0.162774(16)
O4B O -0.4963(2) 0.1060(3) -0.18774(13)
O3B_2 O 0.66302(19) 0.5847(3) 0.08636(12)
Zn1B_2 Zn 0.47851(3) 0.37352(4) -0.162774(16)
Zn1_2 Zn -0.47851(3) 0.62648(4) 0.162774(16)
Zn1B_3 Zn 0.47851(3) 0.37352(4) 0.837226(16)
O3_2 O -0.66302(19) 0.4153(3) -0.08636(12)
N1B_2 N -0.5213(2) 0.4457(3) -0.28501(13)
O6 O 0.4586(4) 1.1504(5) 0.0724(3)
H6 H 0.496(11) 1.211(14) 0.030(7)
H7 H 0.505(5) 1.170(7) 0.099(3)
loop_
_geom_bond_atom_site_label_1
_geom_bond_atom_site_label_2
_geom_bond_site_symmetry_1
_geom_bond_site_symmetry_2
Zn1 O1 1_555 1_555
O1 C8 1_555 1_555
O2 C8 1_555 1_555
O3 C6 1_555 1_555
O4 Zn1 1_555 1_555
O5 C6 1_555 1_555
N1 Zn1 1_555 1_555
C1 C3 1_555 1_555
C2 N1 1_555 1_555
C3 N1 1_555 1_555
C4 C2 1_555 1_555
C5 C1 1_555 1_555
C6 C10 1_555 1_555
C7 C8 1_555 1_555
C9 C7 1_555 1_555
C10 C7 1_555 1_555
H1 C2 1_555 1_555
H2 C9 1_555 1_555
H3 C4 1_555 1_555
H4 C1 1_555 1_555
H5 C3 1_555 1_555
O6 H6 1_555 1_555
H7 O6 1_555 1_555
C10B C9 1_555 1_555
C6B C10B 1_555 1_555
O3B C6B 1_555 1_555
O5B C6B 1_555 1_555
C7B C10B 1_555 1_555
C8B C7B 1_555 1_555
O1B C8B 1_555 1_555
O2B C8B 1_555 1_555
C9B C10 1_555 1_555
H2B C9B 1_555 1_555
C5B C5 1_555 1_555
C1B C5B 1_555 1_555
C3B C1B 1_555 1_555
N1B C3B 1_555 1_555
C2B N1B 1_555 1_555
C4B C5B 1_555 1_555
H3B C4B 1_555 1_555
H1B C2B 1_555 1_555
H5B C3B 1_555 1_555
H4B C1B 1_555 1_555
Zn1B O1B 1_555 1_555
O4B Zn1B 1_555 1_555
O3B_2 Zn1 1_555 1_555
Zn1B_2 O3 1_555 1_555
Zn1_2 O3B 1_555 1_555
Zn1B_3 N1B 1_555 1_555
O3_2 Zn1B 1_555 1_555
N1B_2 Zn1B 1_555 1_555
C4 C5 1_555 1_555
C7B C9B 1_555 1_555
C2B C4B 1_555 1_555

#END
