
#######################################################################
#
#                 Cambridge Crystallographic Data Centre
#                                CCDC 
#
#######################################################################
#
# If this CIF has been generated from an entry in the Cambridge 
# Structural Database, then it will include bibliographic, chemical, 
# crystal, experimental, refinement or atomic coordinate data resulting 
# from the CCDC's data processing and validation procedures.
#
#######################################################################

data_TIFQIK
_symmetry_cell_setting           triclinic
_symmetry_space_group_name_H-M   'P -1'
_symmetry_Int_Tables_number      2
_space_group_name_Hall           '-P 1'
loop_
_symmetry_equiv_pos_site_id
_symmetry_equiv_pos_as_xyz
1 x,y,z
2 -x,-y,-z
_cell_length_a                   10.0065(14)
_cell_length_b                   11.5311(16)
_cell_length_c                   12.5543(17)
_cell_angle_alpha                70.960(2)
_cell_angle_beta                 82.651(2)
_cell_angle_gamma                82.555(2)
_cell_volume                     1352.12
loop_
_atom_site_label
_atom_site_type_symbol
_atom_site_fract_x
_atom_site_fract_y
_atom_site_fract_z
Cd1 Cd 0.50974(4) 0.15334(3) 0.52590(3)
C1 C 0.5116(9) 0.2433(8) 0.2538(6)
H1 H 0.4677 0.1722 0.2710
C2 C 0.5400(10) 0.3120(9) 0.1415(8)
H2 H 0.5174 0.2861 0.0838
C3 C 0.5995(11) 0.4147(10) 0.1173(9)
H3 H 0.6171 0.4618 0.0421
C4 C 0.6355(10) 0.4526(9) 0.2014(8)
H4 H 0.6782 0.5242 0.1846
C5 C 0.6059(7) 0.3798(6) 0.3135(7)
C6 C 0.6428(7) 0.4112(6) 0.4110(7)
C7 C 0.6882(8) 0.5239(7) 0.3997(8)
H5 H 0.6967 0.5837 0.3291
C8 C 0.7196(9) 0.5452(8) 0.4922(9)
H6 H 0.7509 0.6201 0.4850
C9 C 0.7065(8) 0.4598(8) 0.5953(9)
H7 H 0.7288 0.4746 0.6591
C10 C 0.6581(7) 0.3480(7) 0.6034(7)
H8 H 0.6476 0.2886 0.6741
C11 C 0.5120(7) 0.0760(6) 0.7547(5)
C12 C 0.5039(7) 0.0361(6) 0.8819(5)
C13 C 0.6104(7) -0.0389(6) 0.9381(5)
H9 H 0.6844 -0.0657 0.8964
C14 C 0.3912(7) 0.0746(6) 0.9449(5)
C15 C 0.2705(7) 0.1557(6) 0.8920(5)
C16 C 0.1672(6) 0.0968(6) 0.8564(5)
C17 C 0.1614(8) -0.0281(6) 0.8953(6)
H10 H 0.2252 -0.0784 0.9421
C18 C 0.0593(9) -0.0800(7) 0.8647(8)
H11 H 0.0543 -0.1648 0.8912
C19 C -0.0333(8) -0.0044(7) 0.7951(7)
H12 H -0.1018 -0.0382 0.7748
C20 C -0.0257(8) 0.1203(7) 0.7553(6)
H13 H -0.0881 0.1707 0.7073
C21 C 0.0738(7) 0.1710(6) 0.7861(6)
H14 H 0.0782 0.2558 0.7593
C22 C 0.7360(6) -0.0721(5) 0.4884(5)
C23 C 0.8745(5) -0.0360(5) 0.4952(5)
C24 C 0.8957(6) 0.0881(5) 0.4633(5)
H15 H 0.8243 0.1474 0.4388
C25 C 0.9799(5) -0.1251(5) 0.5327(5)
C26 C 0.9711(6) -0.2643(5) 0.5646(5)
C27 C 0.9322(6) -0.3329(5) 0.6849(5)
C28 C 0.9726(8) -0.4579(6) 0.7234(6)
H16 H 1.0183 -0.4973 0.6736
C29 C 0.9450(9) -0.5235(6) 0.8356(6)
H17 H 0.9742 -0.6069 0.8616
C30 C 0.8756(9) -0.4676(7) 0.9092(6)
H18 H 0.8573 -0.5129 0.9848
C31 C 0.8323(9) -0.3433(7) 0.8709(6)
H19 H 0.7858 -0.3043 0.9207
C32 C 0.8588(8) -0.2780(5) 0.7587(5)
H20 H 0.8266 -0.1953 0.7323
N1 N 0.5463(6) 0.2777(4) 0.3380(5)
N2 N 0.6266(5) 0.3244(5) 0.5128(5)
O1 O 0.6060(5) 0.0312(4) 0.7012(4)
O2 O 0.4223(5) 0.1575(4) 0.7073(3)
O3 O 0.7198(4) -0.1832(4) 0.5173(3)
O4 O 0.6424(4) 0.0115(4) 0.4521(3)
O5 O 0.2560(5) 0.2643(4) 0.8880(4)
O6 O 1.0130(5) -0.3153(4) 0.4944(4)
C11A C 0.4880(7) -0.0760(6) 1.2453(5)
C12A C 0.4961(7) -0.0361(6) 1.1181(5)
C13A C 0.3896(7) 0.0389(6) 1.0619(5)
H9A H 0.3156 0.0657 1.1036
C14A C 0.6088(7) -0.0746(6) 1.0551(5)
C15A C 0.7295(7) -0.1557(6) 1.1080(5)
C16A C 0.8328(6) -0.0968(6) 1.1436(5)
C17A C 0.8386(8) 0.0281(6) 1.1047(6)
H10A H 0.7748 0.0784 1.0579
C18A C 0.9407(9) 0.0800(7) 1.1353(8)
H11A H 0.9457 0.1648 1.1088
C19A C 1.0333(8) 0.0044(7) 1.2049(7)
H12A H 1.1018 0.0382 1.2252
C20A C 1.0257(8) -0.1203(7) 1.2447(6)
H13A H 1.0881 -0.1707 1.2927
C21A C 0.9262(7) -0.1710(6) 1.2139(6)
H14A H 0.9218 -0.2558 1.2407
O1A O 0.3940(5) -0.0312(4) 1.2988(4)
O2A O 0.5777(5) -0.1575(4) 1.2927(3)
O5A O 0.7440(5) -0.2643(4) 1.1120(4)
C22A C 1.2640(6) 0.0721(5) 0.5116(5)
C23A C 1.1255(5) 0.0360(5) 0.5048(5)
C24A C 1.1043(6) -0.0881(5) 0.5367(5)
H15A H 1.1757 -0.1474 0.5612
C25A C 1.0201(5) 0.1251(5) 0.4673(5)
C26A C 1.0289(6) 0.2643(5) 0.4354(5)
C27A C 1.0678(6) 0.3329(5) 0.3151(5)
C28A C 1.0274(8) 0.4579(6) 0.2766(6)
H16A H 0.9817 0.4973 0.3264
C29A C 1.0550(9) 0.5235(6) 0.1644(6)
H17A H 1.0258 0.6069 0.1384
C30A C 1.1244(9) 0.4676(7) 0.0908(6)
H18A H 1.1427 0.5129 0.0152
C31A C 1.1677(9) 0.3433(7) 0.1291(6)
H19A H 1.2142 0.3043 0.0793
C32A C 1.1412(8) 0.2780(5) 0.2413(5)
H20A H 1.1734 0.1953 0.2677
O4A O 1.3576(4) -0.0115(4) 0.5479(3)
O6A O 0.9870(5) 0.3153(4) 0.5056(4)
O3A O 1.2802(4) 0.1832(4) 0.4827(3)
Cd1A Cd 0.49026(4) -0.15334(3) 0.47410(3)
C1A C 0.4884(9) -0.2433(8) 0.7462(6)
H1A H 0.5323 -0.1722 0.7290
C2A C 0.4600(10) -0.3120(9) 0.8585(8)
H2A H 0.4826 -0.2861 0.9162
C3A C 0.4005(11) -0.4147(10) 0.8827(9)
H3A H 0.3829 -0.4618 0.9579
C4A C 0.3645(10) -0.4526(9) 0.7986(8)
H4A H 0.3218 -0.5242 0.8154
C5A C 0.3941(7) -0.3798(6) 0.6865(7)
C6A C 0.3572(7) -0.4112(6) 0.5890(7)
C7A C 0.3118(8) -0.5239(7) 0.6003(8)
H5A H 0.3033 -0.5837 0.6709
C8A C 0.2804(9) -0.5452(8) 0.5078(9)
H6A H 0.2491 -0.6201 0.5150
C9A C 0.2935(8) -0.4598(8) 0.4047(9)
H7A H 0.2712 -0.4746 0.3409
C10A C 0.3419(7) -0.3480(7) 0.3966(7)
H8A H 0.3524 -0.2886 0.3259
N1A N 0.4537(6) -0.2777(4) 0.6620(5)
N2A N 0.3734(5) -0.3244(5) 0.4872(5)
Cd1_2 Cd 1.50974(4) 0.15334(3) 0.52590(3)
Cd1A_2 Cd 0.49026(4) -0.15334(3) 1.47410(3)
Cd1A_3 Cd 1.49026(4) -0.15334(3) 0.47410(3)
O1A_2 O 0.3940(5) -0.0312(4) 0.2988(4)
O2A_2 O 0.5777(5) -0.1575(4) 0.2927(3)
O3A_2 O 0.2802(4) 0.1832(4) 0.4827(3)
O4A_2 O 0.3576(4) -0.0115(4) 0.5479(3)
loop_
_geom_bond_atom_site_label_1
_geom_bond_atom_site_label_2
_geom_bond_site_symmetry_1
_geom_bond_site_symmetry_2
Cd1 N1 1_555 1_555
C1 H1 1_555 1_555
C2 C1 1_555 1_555
H2 C2 1_555 1_555
C3 C2 1_555 1_555
H3 C3 1_555 1_555
C4 C3 1_555 1_555
H4 C4 1_555 1_555
C5 C4 1_555 1_555
C6 C5 1_555 1_555
C7 C6 1_555 1_555
H5 C7 1_555 1_555
C8 C7 1_555 1_555
H6 C8 1_555 1_555
C9 C8 1_555 1_555
H7 C9 1_555 1_555
C10 C9 1_555 1_555
H8 C10 1_555 1_555
C11 C12 1_555 1_555
C12 C13 1_555 1_555
C13 H9 1_555 1_555
C14 C12 1_555 1_555
C15 C14 1_555 1_555
C16 C15 1_555 1_555
C17 C16 1_555 1_555
H10 C17 1_555 1_555
C18 C17 1_555 1_555
H11 C18 1_555 1_555
C19 C18 1_555 1_555
H12 C19 1_555 1_555
C20 C19 1_555 1_555
H13 C20 1_555 1_555
C21 C16 1_555 1_555
H14 C21 1_555 1_555
C22 C23 1_555 1_555
C23 C24 1_555 1_555
C24 H15 1_555 1_555
C25 C23 1_555 1_555
C26 C25 1_555 1_555
C27 C26 1_555 1_555
C28 C27 1_555 1_555
H16 C28 1_555 1_555
C29 C28 1_555 1_555
H17 C29 1_555 1_555
C30 C29 1_555 1_555
H18 C30 1_555 1_555
C31 C30 1_555 1_555
H19 C31 1_555 1_555
C32 C27 1_555 1_555
H20 C32 1_555 1_555
N1 C1 1_555 1_555
N2 Cd1 1_555 1_555
O1 Cd1 1_555 1_555
O2 Cd1 1_555 1_555
O3 C22 1_555 1_555
O4 Cd1 1_555 1_555
O5 C15 1_555 1_555
O6 C26 1_555 1_555
C11A C12A 1_555 1_555
C12A C13A 1_555 1_555
C13A C14 1_555 1_555
H9A C13A 1_555 1_555
C14A C13 1_555 1_555
C15A C14A 1_555 1_555
C16A C15A 1_555 1_555
C17A C16A 1_555 1_555
H10A C17A 1_555 1_555
C18A C17A 1_555 1_555
H11A C18A 1_555 1_555
C19A C18A 1_555 1_555
H12A C19A 1_555 1_555
C20A C19A 1_555 1_555
H13A C20A 1_555 1_555
C21A C16A 1_555 1_555
H14A C21A 1_555 1_555
O1A C11A 1_555 1_555
O2A C11A 1_555 1_555
O5A C15A 1_555 1_555
C22A C23A 1_555 1_555
C23A C24A 1_555 1_555
C24A C25 1_555 1_555
H15A C24A 1_555 1_555
C25A C24 1_555 1_555
C26A C25A 1_555 1_555
C27A C26A 1_555 1_555
C28A C27A 1_555 1_555
H16A C28A 1_555 1_555
C29A C28A 1_555 1_555
H17A C29A 1_555 1_555
C30A C29A 1_555 1_555
H18A C30A 1_555 1_555
C31A C30A 1_555 1_555
H19A C31A 1_555 1_555
C32A C27A 1_555 1_555
H20A C32A 1_555 1_555
O4A C22A 1_555 1_555
O6A C26A 1_555 1_555
O3A C22A 1_555 1_555
Cd1A O3 1_555 1_555
C1A H1A 1_555 1_555
C2A C1A 1_555 1_555
H2A C2A 1_555 1_555
C3A C2A 1_555 1_555
H3A C3A 1_555 1_555
C4A C3A 1_555 1_555
H4A C4A 1_555 1_555
C5A C4A 1_555 1_555
C6A C5A 1_555 1_555
C7A C6A 1_555 1_555
H5A C7A 1_555 1_555
C8A C7A 1_555 1_555
H6A C8A 1_555 1_555
C9A C8A 1_555 1_555
H7A C9A 1_555 1_555
C10A C9A 1_555 1_555
H8A C10A 1_555 1_555
N1A Cd1A 1_555 1_555
N2A Cd1A 1_555 1_555
Cd1_2 O4A 1_555 1_555
Cd1A_2 O1A 1_555 1_555
Cd1A_3 O4A 1_555 1_555
O1A_2 Cd1A 1_555 1_555
O2A_2 Cd1A 1_555 1_555
O3A_2 Cd1 1_555 1_555
O4A_2 Cd1 1_555 1_555
C5 N1 1_555 1_555
C6 N2 1_555 1_555
C10 N2 1_555 1_555
C11 O1 1_555 1_555
C11 O2 1_555 1_555
C20 C21 1_555 1_555
C22 O4 1_555 1_555
C31 C32 1_555 1_555
O4 Cd1A 1_555 1_555
C12A C14A 1_555 1_555
C20A C21A 1_555 1_555
O2A Cd1A_2 1_555 1_555
C23A C25A 1_555 1_555
C31A C32A 1_555 1_555
O3A Cd1_2 1_555 1_555
Cd1A O4A_2 1_555 1_555
C1A N1A 1_555 1_555
C5A N1A 1_555 1_555
C6A N2A 1_555 1_555
C10A N2A 1_555 1_555

#END
