
#######################################################################
#
#                 Cambridge Crystallographic Data Centre
#                                CCDC 
#
#######################################################################
#
# If this CIF has been generated from an entry in the Cambridge 
# Structural Database, then it will include bibliographic, chemical, 
# crystal, experimental, refinement or atomic coordinate data resulting 
# from the CCDC's data processing and validation procedures.
#
#######################################################################

data_TIFQAC
_symmetry_cell_setting           triclinic
_symmetry_space_group_name_H-M   'P -1'
_symmetry_Int_Tables_number      2
_space_group_name_Hall           '-P 1'
loop_
_symmetry_equiv_pos_site_id
_symmetry_equiv_pos_as_xyz
1 x,y,z
2 -x,-y,-z
_cell_length_a                   10.3643(18)
_cell_length_b                   11.972(2)
_cell_length_c                   12.052(2)
_cell_angle_alpha                109.389(2)
_cell_angle_beta                 94.847(3)
_cell_angle_gamma                101.401(3)
_cell_volume                     1364.44
loop_
_atom_site_label
_atom_site_type_symbol
_atom_site_fract_x
_atom_site_fract_y
_atom_site_fract_z
Zn1 Zn 0.82644(6) 0.19838(6) 0.41811(6)
C1 C 0.8439(6) 0.0522(6) 0.1924(5)
C2 C 0.9198(5) 0.0230(5) 0.0890(5)
C3 C 1.0196(5) 0.1158(5) 0.0812(5)
H1 H 1.0329 0.1945 0.1361
C4 C 1.0998(5) 0.0933(5) -0.0067(5)
C5 C 1.2038(6) 0.2033(6) -0.0061(5)
C6 C 1.3456(6) 0.2194(6) 0.0399(5)
C7 C 1.3914(7) 0.1364(6) 0.0786(6)
H2 H 1.3315 0.0670 0.0777
C8 C 1.5265(8) 0.1552(8) 0.1192(7)
H3 H 1.5565 0.0967 0.1423
C9 C 1.6158(9) 0.2592(9) 0.1255(8)
H4 H 1.7053 0.2726 0.1558
C10 C 1.5737(9) 0.3413(9) 0.0880(8)
H5 H 1.6350 0.4110 0.0915
C11 C 1.4375(8) 0.3239(7) 0.0430(7)
H6 H 1.4095 0.3809 0.0160
C12 C 0.6682(6) 0.3286(5) 0.4523(4)
C13 C 0.5773(5) 0.4158(5) 0.4805(5)
C14 C 0.6125(5) 0.5213(5) 0.5844(5)
C15 C 0.5338(5) 0.6038(4) 0.6004(5)
H7 H 0.5566 0.6746 0.6677
C16 C 0.7320(7) 0.5488(6) 0.6769(5)
C17 C 0.7520(8) 0.4583(7) 0.7315(6)
C18 C 0.6481(9) 0.3640(8) 0.7274(7)
H8 H 0.5645 0.3560 0.6868
C19 C 0.6646(13) 0.2789(9) 0.7829(8)
H9 H 0.5956 0.2150 0.7805
C20 C 0.7939(13) 0.3003(10) 0.8412(9)
H10 H 0.8085 0.2475 0.8800
C21 C 0.8977(11) 0.3869(9) 0.8474(8)
H11 H 0.9813 0.3924 0.8866
C22 C 0.8778(9) 0.4715(8) 0.7925(7)
H12 H 0.9482 0.5354 0.7972
C23 C 1.0985(7) 0.3566(6) 0.5571(6)
H13 H 1.0900 0.4046 0.5113
C24 C 1.2107(7) 0.3900(7) 0.6399(7)
H14 H 1.2752 0.4609 0.6521
C25 C 1.2267(8) 0.3174(7) 0.7049(7)
H15 H 1.3042 0.3361 0.7590
C26 C 1.1270(7) 0.2172(6) 0.6888(6)
H16 H 1.1349 0.1673 0.7327
C27 C 1.0150(6) 0.1914(5) 0.6067(5)
C28 C 0.8978(6) 0.0867(5) 0.5848(5)
C29 C 0.8904(7) 0.0090(6) 0.6497(6)
H17 H 0.9632 0.0179 0.7053
C30 C 0.7791(8) -0.0787(7) 0.6326(7)
H18 H 0.7715 -0.1270 0.6794
C31 C 0.6744(8) -0.0951(7) 0.5416(7)
H19 H 0.5981 -0.1580 0.5230
C32 C 0.6885(7) -0.0151(6) 0.4811(6)
H20 H 0.6186 -0.0236 0.4229
N1 N 1.0017(5) 0.2594(4) 0.5388(4)
N2 N 0.7980(5) 0.0743(5) 0.5021(5)
O1 O 0.8735(4) 0.1631(4) 0.2621(4)
O2 O 0.7639(4) -0.0305(4) 0.2061(4)
O3 O 1.1650(5) 0.2793(4) -0.0356(4)
O4 O 0.7907(4) 0.3750(3) 0.4702(4)
O5 O 0.6197(4) 0.2162(3) 0.4120(4)
O6 O 0.8076(5) 0.6483(5) 0.7076(5)
C1A C 1.1561(6) -0.0522(6) -0.1924(5)
C2A C 1.0802(5) -0.0230(5) -0.0890(5)
C3A C 0.9804(5) -0.1158(5) -0.0812(5)
H1A H 0.9671 -0.1945 -0.1361
C4A C 0.9002(5) -0.0933(5) 0.0067(5)
C5A C 0.7962(6) -0.2033(6) 0.0061(5)
C6A C 0.6544(6) -0.2194(6) -0.0399(5)
C7A C 0.6086(7) -0.1364(6) -0.0786(6)
H2A H 0.6685 -0.0670 -0.0777
C8A C 0.4735(8) -0.1552(8) -0.1192(7)
H3A H 0.4435 -0.0967 -0.1423
C9A C 0.3842(9) -0.2592(9) -0.1255(8)
H4A H 0.2947 -0.2726 -0.1558
C10A C 0.4263(9) -0.3413(9) -0.0880(8)
H5A H 0.3650 -0.4110 -0.0915
C11A C 0.5625(8) -0.3239(7) -0.0430(7)
H6A H 0.5905 -0.3809 -0.0160
O1A O 1.1265(4) -0.1631(4) -0.2621(4)
O2A O 1.2361(4) 0.0305(4) -0.2061(4)
O3A O 0.8350(5) -0.2793(4) 0.0356(4)
C12A C 0.3318(6) 0.6714(5) 0.5477(4)
C13A C 0.4227(5) 0.5842(5) 0.5195(5)
C14A C 0.3875(5) 0.4787(5) 0.4156(5)
C15A C 0.4662(5) 0.3962(4) 0.3996(5)
H7A H 0.4434 0.3254 0.3323
C16A C 0.2680(7) 0.4512(6) 0.3231(5)
C17A C 0.2480(8) 0.5417(7) 0.2685(6)
C18A C 0.3519(9) 0.6360(8) 0.2726(7)
H8A H 0.4355 0.6440 0.3132
C19A C 0.3354(13) 0.7211(9) 0.2171(8)
H9A H 0.4044 0.7850 0.2195
C20A C 0.2061(13) 0.6997(10) 0.1588(9)
H10A H 0.1915 0.7525 0.1200
C21A C 0.1023(11) 0.6131(9) 0.1526(8)
H11A H 0.0187 0.6076 0.1134
C22A C 0.1222(9) 0.5285(8) 0.2075(7)
H12A H 0.0518 0.4646 0.2028
O4A O 0.2093(4) 0.6250(3) 0.5298(4)
O5A O 0.3803(4) 0.7838(3) 0.5880(4)
O6A O 0.1924(5) 0.3517(5) 0.2924(5)
Zn1A Zn 0.17356(6) 0.80162(6) 0.58189(6)
C23A C -0.0985(7) 0.6434(6) 0.4429(6)
H13A H -0.0900 0.5954 0.4887
C24A C -0.2107(7) 0.6100(7) 0.3601(7)
H14A H -0.2752 0.5391 0.3479
C25A C -0.2267(8) 0.6826(7) 0.2951(7)
H15A H -0.3042 0.6639 0.2410
C26A C -0.1270(7) 0.7828(6) 0.3112(6)
H16A H -0.1349 0.8327 0.2673
C27A C -0.0150(6) 0.8086(5) 0.3933(5)
C28A C 0.1022(6) 0.9133(5) 0.4152(5)
C29A C 0.1096(7) 0.9910(6) 0.3503(6)
H17A H 0.0368 0.9821 0.2947
C30A C 0.2209(8) 1.0787(7) 0.3674(7)
H18A H 0.2285 1.1270 0.3206
C31A C 0.3256(8) 1.0951(7) 0.4584(7)
H19A H 0.4019 1.1580 0.4770
C32A C 0.3115(7) 1.0151(6) 0.5189(6)
H20A H 0.3814 1.0236 0.5771
N1A N -0.0017(5) 0.7406(4) 0.4612(4)
N2A N 0.2020(5) 0.9257(5) 0.4979(5)
Zn1A_2 Zn 1.17356(6) -0.19838(6) -0.41811(6)
O1A_2 O 0.1265(4) 0.8369(4) 0.7379(4)
loop_
_geom_bond_atom_site_label_1
_geom_bond_atom_site_label_2
_geom_bond_site_symmetry_1
_geom_bond_site_symmetry_2
Zn1 N1 1_555 1_555
C1 C2 1_555 1_555
C2 C3 1_555 1_555
C3 H1 1_555 1_555
C4 C3 1_555 1_555
C5 C4 1_555 1_555
C6 C5 1_555 1_555
C7 C6 1_555 1_555
H2 C7 1_555 1_555
C8 C7 1_555 1_555
H3 C8 1_555 1_555
C9 C8 1_555 1_555
H4 C9 1_555 1_555
C10 C9 1_555 1_555
H5 C10 1_555 1_555
C11 C6 1_555 1_555
H6 C11 1_555 1_555
C12 C13 1_555 1_555
C13 C14 1_555 1_555
C14 C15 1_555 1_555
C15 H7 1_555 1_555
C16 C14 1_555 1_555
C17 C16 1_555 1_555
C18 C17 1_555 1_555
H8 C18 1_555 1_555
C19 C18 1_555 1_555
H9 C19 1_555 1_555
C20 C19 1_555 1_555
H10 C20 1_555 1_555
C21 C20 1_555 1_555
H11 C21 1_555 1_555
C22 C17 1_555 1_555
H12 C22 1_555 1_555
C23 H13 1_555 1_555
C24 C23 1_555 1_555
H14 C24 1_555 1_555
C25 C24 1_555 1_555
H15 C25 1_555 1_555
C26 C25 1_555 1_555
H16 C26 1_555 1_555
C27 C26 1_555 1_555
C28 C27 1_555 1_555
C29 C28 1_555 1_555
H17 C29 1_555 1_555
C30 C29 1_555 1_555
H18 C30 1_555 1_555
C31 C30 1_555 1_555
H19 C31 1_555 1_555
C32 C31 1_555 1_555
H20 C32 1_555 1_555
N1 C23 1_555 1_555
N2 Zn1 1_555 1_555
O1 Zn1 1_555 1_555
O2 C1 1_555 1_555
O3 C5 1_555 1_555
O4 Zn1 1_555 1_555
O5 Zn1 1_555 1_555
O6 C16 1_555 1_555
C1A C2A 1_555 1_555
C2A C4 1_555 1_555
C3A C2A 1_555 1_555
H1A C3A 1_555 1_555
C4A C2 1_555 1_555
C5A C4A 1_555 1_555
C6A C5A 1_555 1_555
C7A C6A 1_555 1_555
H2A C7A 1_555 1_555
C8A C7A 1_555 1_555
H3A C8A 1_555 1_555
C9A C8A 1_555 1_555
H4A C9A 1_555 1_555
C10A C9A 1_555 1_555
H5A C10A 1_555 1_555
C11A C6A 1_555 1_555
H6A C11A 1_555 1_555
O1A C1A 1_555 1_555
O2A C1A 1_555 1_555
O3A C5A 1_555 1_555
C12A C13A 1_555 1_555
C13A C15 1_555 1_555
C14A C13A 1_555 1_555
C15A C13 1_555 1_555
H7A C15A 1_555 1_555
C16A C14A 1_555 1_555
C17A C16A 1_555 1_555
C18A C17A 1_555 1_555
H8A C18A 1_555 1_555
C19A C18A 1_555 1_555
H9A C19A 1_555 1_555
C20A C19A 1_555 1_555
H10A C20A 1_555 1_555
C21A C20A 1_555 1_555
H11A C21A 1_555 1_555
C22A C17A 1_555 1_555
H12A C22A 1_555 1_555
O4A C12A 1_555 1_555
O5A C12A 1_555 1_555
O6A C16A 1_555 1_555
Zn1A O4A 1_555 1_555
C23A H13A 1_555 1_555
C24A C23A 1_555 1_555
H14A C24A 1_555 1_555
C25A C24A 1_555 1_555
H15A C25A 1_555 1_555
C26A C25A 1_555 1_555
H16A C26A 1_555 1_555
C27A C26A 1_555 1_555
C28A C27A 1_555 1_555
C29A C28A 1_555 1_555
H17A C29A 1_555 1_555
C30A C29A 1_555 1_555
H18A C30A 1_555 1_555
C31A C30A 1_555 1_555
H19A C31A 1_555 1_555
C32A C31A 1_555 1_555
H20A C32A 1_555 1_555
N1A Zn1A 1_555 1_555
N2A Zn1A 1_555 1_555
Zn1A_2 O1A 1_555 1_555
O1A_2 Zn1A 1_555 1_555
C1 O1 1_555 1_555
C10 C11 1_555 1_555
C12 O4 1_555 1_555
C12 O5 1_555 1_555
C21 C22 1_555 1_555
C27 N1 1_555 1_555
C28 N2 1_555 1_555
C32 N2 1_555 1_555
C3A C4A 1_555 1_555
C10A C11A 1_555 1_555
C14A C15A 1_555 1_555
C21A C22A 1_555 1_555
O5A Zn1A 1_555 1_555
C23A N1A 1_555 1_555
C27A N1A 1_555 1_555
C28A N2A 1_555 1_555
C32A N2A 1_555 1_555

#END
