
#######################################################################
#
#                 Cambridge Crystallographic Data Centre
#                                CCDC 
#
#######################################################################
#
# If this CIF has been generated from an entry in the Cambridge 
# Structural Database, then it will include bibliographic, chemical, 
# crystal, experimental, refinement or atomic coordinate data resulting 
# from the CCDC's data processing and validation procedures.
#
#######################################################################

data_TIFREH
_symmetry_cell_setting           triclinic
_symmetry_space_group_name_H-M   'P -1'
_symmetry_Int_Tables_number      2
_space_group_name_Hall           '-P 1'
loop_
_symmetry_equiv_pos_site_id
_symmetry_equiv_pos_as_xyz
1 x,y,z
2 -x,-y,-z
_cell_length_a                   6.9177(5)
_cell_length_b                   7.2342(4)
_cell_length_c                   12.4632(10)
_cell_angle_alpha                78.221(2)
_cell_angle_beta                 89.685(2)
_cell_angle_gamma                64.885(5)
_cell_volume                     550.528
loop_
_atom_site_label
_atom_site_type_symbol
_atom_site_fract_x
_atom_site_fract_y
_atom_site_fract_z
Co1 Co 0.000 0.500 0.000
Co2 Co -0.5 1 0.000
O1 O 0.0357(10) 0.7053(11) 0.6585(5)
O2 O -0.2704(9) 0.7845(10) 0.5611(5)
H1 H -0.3169 0.7763 0.6235
O3 O 0.4953(9) 0.5829(9) 0.1560(5)
O4 O 0.2943(8) 0.9246(8) 0.1019(4)
O5 O 0.0144(8) 0.6805(9) 0.1021(4)
O6 O -0.2993(8) 0.9153(8) 0.1446(4)
O7 O 0.0373(9) 0.7125(8) -0.1247(5)
H2 H -0.0571 0.826 -0.1135
H3 H 0.0346 0.7309 -0.1942
O8 O -0.3431(8) 0.6781(8) -0.0211(4)
H4 H -0.3717 0.582 0.0178
H5 H -0.3695 0.6754 -0.0875
C1 C -0.0681(14) 0.7465(13) 0.5719(7)
C2 C 0.0290(12) 0.7574(12) 0.4638(7)
C3 C 0.2418(13) 0.7292(13) 0.4651(7)
H6 H 0.3183 0.7096 0.5336
C4 C 0.3410(13) 0.7246(13) 0.3696(7)
H7 H 0.4863 0.7081 0.3701
C5 C 0.2303(12) 0.7500(12) 0.2708(6)
C6 C 0.3457(12) 0.7502(12) 0.1679(7)
C7 C 0.0165(12) 0.7817(12) 0.2694(7)
C8 C -0.0983(12) 0.7944(11) 0.1630(6)
C9 C -0.0836(12) 0.7849(11) 0.3650(7)
H8 H -0.2306 0.807 0.364
O1A O -1.0357(10) 1.2947(11) -0.6585(5)
O2A O -0.7296(9) 1.2155(10) -0.5611(5)
H1A H -0.6831 1.2237 -0.6235
O3A O -1.4953(9) 1.4171(9) -0.1560(5)
O4A O -1.2943(8) 1.0754(8) -0.1019(4)
O5A O -1.0144(8) 1.3195(9) -0.1021(4)
O6A O -0.7007(8) 1.0847(8) -0.1446(4)
O8A O -0.6569(8) 1.3219(8) 0.0211(4)
H4A H -0.6283 1.418 -0.0178
H5A H -0.6305 1.3246 0.0875
C1A C -0.9319(14) 1.2535(13) -0.5719(7)
C2A C -1.0290(12) 1.2426(12) -0.4638(7)
C3A C -1.2418(13) 1.2708(13) -0.4651(7)
H6A H -1.3183 1.2904 -0.5336
C4A C -1.3410(13) 1.2754(13) -0.3696(7)
H7A H -1.4863 1.2919 -0.3701
C5A C -1.2303(12) 1.2500(12) -0.2708(6)
C6A C -1.3457(12) 1.2498(12) -0.1679(7)
C7A C -1.0165(12) 1.2183(12) -0.2694(7)
C8A C -0.9017(12) 1.2056(11) -0.1630(6)
C9A C -0.9164(12) 1.2151(11) -0.3650(7)
H8A H -0.7694 1.193 -0.364
O7A O -0.0373(9) 0.2875(8) 0.1247(5)
H2A H 0.0571 0.174 0.1135
H3A H -0.0346 0.2691 0.1942
Co1_2 Co -1.000 1.500 0.000
Co2_2 Co -1.5 1 0.000
Co2_3 Co 0.5 1 0.000
O4_2 O -0.7057(8) 0.9246(8) 0.1019(4)
O4A_2 O -0.2943(8) 1.0754(8) -0.1019(4)
O5A_2 O -0.0144(8) 0.3195(9) -0.1021(4)
O8A_2 O 0.3431(8) 0.3219(8) 0.0211(4)
O9 O -0.4697(10) 0.7740(10) 0.7424(6)
H9 H -0.5618 0.8843 0.7591
H10 H -0.537 0.7063 0.7289
loop_
_geom_bond_atom_site_label_1
_geom_bond_atom_site_label_2
_geom_bond_site_symmetry_1
_geom_bond_site_symmetry_2
Co1 O5 1_555 1_555
Co2 O6 1_555 1_555
O1 C1 1_555 1_555
O2 H1 1_555 1_555
O3 C6 1_555 1_555
O4 C6 1_555 1_555
O5 C8 1_555 1_555
O6 C8 1_555 1_555
O7 Co1 1_555 1_555
H2 O7 1_555 1_555
H3 O7 1_555 1_555
O8 Co1 1_555 1_555
H4 O8 1_555 1_555
H5 O8 1_555 1_555
C1 O2 1_555 1_555
C2 C1 1_555 1_555
C3 C2 1_555 1_555
H6 C3 1_555 1_555
C4 C3 1_555 1_555
H7 C4 1_555 1_555
C5 C4 1_555 1_555
C6 C5 1_555 1_555
C7 C5 1_555 1_555
C8 C7 1_555 1_555
C9 C2 1_555 1_555
H8 C9 1_555 1_555
O9 H9 1_555 1_555
H10 O9 1_555 1_555
O1A C1A 1_555 1_555
O2A H1A 1_555 1_555
O3A C6A 1_555 1_555
O4A C6A 1_555 1_555
O5A C8A 1_555 1_555
O6A Co2 1_555 1_555
O8A Co2 1_555 1_555
H4A O8A 1_555 1_555
H5A O8A 1_555 1_555
C1A O2A 1_555 1_555
C2A C1A 1_555 1_555
C3A C2A 1_555 1_555
H6A C3A 1_555 1_555
C4A C3A 1_555 1_555
H7A C4A 1_555 1_555
C5A C4A 1_555 1_555
C6A C5A 1_555 1_555
C7A C5A 1_555 1_555
C8A O6A 1_555 1_555
C9A C2A 1_555 1_555
H8A C9A 1_555 1_555
O7A Co1 1_555 1_555
H2A O7A 1_555 1_555
H3A O7A 1_555 1_555
Co1_2 O5A 1_555 1_555
Co2_2 O4A 1_555 1_555
Co2_3 O4 1_555 1_555
O4_2 Co2 1_555 1_555
O4A_2 Co2 1_555 1_555
O5A_2 Co1 1_555 1_555
O8A_2 Co1 1_555 1_555
Co2 O8 1_555 1_555
C7 C9 1_555 1_555
O8A Co1_2 1_555 1_555
C7A C8A 1_555 1_555
C7A C9A 1_555 1_555

#END
