
#######################################################################
#
#                 Cambridge Crystallographic Data Centre
#                                CCDC 
#
#######################################################################
#
# If this CIF has been generated from an entry in the Cambridge 
# Structural Database, then it will include bibliographic, chemical, 
# crystal, experimental, refinement or atomic coordinate data resulting 
# from the CCDC's data processing and validation procedures.
#
#######################################################################

data_TIFTOT
_symmetry_cell_setting           orthorhombic
_symmetry_space_group_name_H-M   'P n a 21'
_symmetry_Int_Tables_number      33
_space_group_name_Hall           'P 2c -2n'
loop_
_symmetry_equiv_pos_site_id
_symmetry_equiv_pos_as_xyz
1 x,y,z
2 -x,-y,1/2+z
3 1/2+x,1/2-y,z
4 1/2-x,1/2+y,1/2+z
_cell_length_a                   21.5398(14)
_cell_length_b                   14.9259(9)
_cell_length_c                   8.4490(5)
_cell_angle_alpha                90
_cell_angle_beta                 90
_cell_angle_gamma                90
_cell_volume                     2716.36
loop_
_atom_site_label
_atom_site_type_symbol
_atom_site_fract_x
_atom_site_fract_y
_atom_site_fract_z
Cd1 Cd 0.265835(11) 0.604392(17) 1.03744(6)
C1 C 0.33981(17) 0.6685(3) 0.7289(5)
N1 N 0.35560(15) 0.7393(2) 0.6391(4)
O1 O 0.16351(14) 0.5599(2) 1.0048(4)
C2 C 0.3633(3) 0.3934(3) 1.4224(6)
H1 H 0.3204 0.3872 1.4270
C3 C 0.1696(3) 0.5194(4) 0.8797(7)
N2 N 0.30560(15) 0.6959(2) 0.8504(4)
O2 O 0.37082(17) 0.5710(3) 1.1375(5)
O3 O 0.29417(18) 0.4788(3) 1.1866(5)
C4 C 0.3896(2) 0.4509(3) 1.3142(5)
C5 C 0.3500(2) 0.5038(3) 1.2038(6)
C6 C 0.3303(2) 0.8142(3) 0.7057(6)
H2 H 0.3336 0.8726 0.6682
O4 O 0.21925(16) 0.5156(3) 0.8122(5)
C7 C 0.30020(19) 0.7875(3) 0.8343(5)
H3 H 0.2787 0.8249 0.9031
C8 C 0.46362(15) 0.7381(2) 0.5358(7)
N3 N 0.73917(15) 0.8045(2) 0.2408(4)
N4 N 0.69755(15) 0.7566(2) 0.4616(4)
C9 C 0.70545(18) 0.8277(3) 0.3644(5)
C10 C 0.3954(2) 0.7375(3) 0.4973(4)
H4 H 0.3858 0.7892 0.4320
H5 H 0.3859 0.6842 0.4363
C11 C 0.4534(2) 0.4601(3) 1.3108(6)
H6 H 0.4717 0.4993 1.2390
C12 C 0.7527(2) 0.7146(3) 0.2606(6)
H7 H 0.7761 0.6801 0.1911
C13 C 0.4007(3) 0.3446(3) 1.5247(8)
H8 H 0.3826 0.3053 1.5965
C14 C 0.4887(2) 0.7913(3) 0.6523(5)
H9 H 0.4625 0.8246 0.7169
C15 C 0.4633(3) 0.3534(4) 1.5214(9)
H10 H 0.4879 0.3207 1.5910
C16 C 0.4902(3) 0.4112(4) 1.4143(7)
H11 H 0.5332 0.4175 1.4114
C17 C 0.11356(18) 0.4750(3) 0.8124(5)
C18 C 0.5036(2) 0.6874(3) 0.4457(5)
H12 H 0.4878 0.6491 0.3688
C19 C 0.5674(2) 0.6928(3) 0.4682(5)
H13 H 0.5937 0.6585 0.4053
C20 C 0.59230(18) 0.7480(3) 0.5818(4)
C21 C 0.7270(2) 0.6848(3) 0.3954(5)
H14 H 0.7289 0.6268 0.4357
C22 C 0.55212(19) 0.7962(3) 0.6752(5)
H15 H 0.5679 0.8326 0.7550
C23 C 0.6618(2) 0.7539(3) 0.6096(5)
H16 H 0.6750 0.7026 0.6714
H17 H 0.6708 0.8074 0.6707
C24 C 0.3567(2) 0.5750(3) 0.6923(7)
H18 H 0.3509 0.5385 0.7848
H19 H 0.3994 0.5724 0.6599
H20 H 0.3307 0.5531 0.6083
C25 C 0.1168(2) 0.4280(3) 0.6720(6)
H21 H 0.1539 0.4258 0.6159
C26 C 0.0578(2) 0.4769(3) 0.8907(6)
H22 H 0.0547 0.5074 0.9863
C27 C 0.0647(3) 0.3841(4) 0.6145(7)
H23 H 0.0675 0.3518 0.5206
C28 C 0.0071(2) 0.4350(4) 0.8312(9)
H24 H -0.0304 0.4387 0.8855
C29 C 0.0098(3) 0.3876(4) 0.6931(10)
H25 H -0.0251 0.3584 0.6539
C30 C 0.6817(3) 0.9181(3) 0.3998(7)
H26 H 0.6474 0.9314 0.3311
H27 H 0.6681 0.9205 0.5079
H28 H 0.7141 0.9613 0.3834
Cd1B Cd 0.765835(11) 0.895608(17) 0.03744(6)
N3B N 0.23917(15) 0.6955(2) 1.2408(4)
loop_
_geom_bond_atom_site_label_1
_geom_bond_atom_site_label_2
_geom_bond_site_symmetry_1
_geom_bond_site_symmetry_2
Cd1 O1 1_555 1_555
C1 N1 1_555 1_555
N1 C6 1_555 1_555
O1 C3 1_555 1_555
C2 H1 1_555 1_555
C3 O4 1_555 1_555
N2 Cd1 1_555 1_555
O2 Cd1 1_555 1_555
O3 Cd1 1_555 1_555
C4 C2 1_555 1_555
C5 O2 1_555 1_555
C6 H2 1_555 1_555
O4 Cd1 1_555 1_555
C7 N2 1_555 1_555
H3 C7 1_555 1_555
C8 C10 1_555 1_555
N3 C9 1_555 1_555
N4 C9 1_555 1_555
C9 C30 1_555 1_555
C10 N1 1_555 1_555
H4 C10 1_555 1_555
H5 C10 1_555 1_555
C11 C4 1_555 1_555
H6 C11 1_555 1_555
C12 N3 1_555 1_555
H7 C12 1_555 1_555
C13 C2 1_555 1_555
H8 C13 1_555 1_555
C14 C8 1_555 1_555
H9 C14 1_555 1_555
C15 C13 1_555 1_555
H10 C15 1_555 1_555
C16 C11 1_555 1_555
H11 C16 1_555 1_555
C17 C3 1_555 1_555
C18 C8 1_555 1_555
H12 C18 1_555 1_555
C19 C18 1_555 1_555
H13 C19 1_555 1_555
C20 C19 1_555 1_555
C21 N4 1_555 1_555
H14 C21 1_555 1_555
C22 C14 1_555 1_555
H15 C22 1_555 1_555
C23 N4 1_555 1_555
H16 C23 1_555 1_555
H17 C23 1_555 1_555
C24 C1 1_555 1_555
H18 C24 1_555 1_555
H19 C24 1_555 1_555
H20 C24 1_555 1_555
C25 C17 1_555 1_555
H21 C25 1_555 1_555
C26 C17 1_555 1_555
H22 C26 1_555 1_555
C27 C25 1_555 1_555
H23 C27 1_555 1_555
C28 C26 1_555 1_555
H24 C28 1_555 1_555
C29 C27 1_555 1_555
H25 C29 1_555 1_555
C30 H26 1_555 1_555
H27 C30 1_555 1_555
H28 C30 1_555 1_555
Cd1B N3 1_555 1_555
N3B Cd1 1_555 1_555
C1 N2 1_555 1_555
O3 C5 1_555 1_555
C4 C5 1_555 1_555
C6 C7 1_555 1_555
C12 C21 1_555 1_555
C15 C16 1_555 1_555
C20 C22 1_555 1_555
C20 C23 1_555 1_555
C28 C29 1_555 1_555

#END
