
#######################################################################
#
#                 Cambridge Crystallographic Data Centre
#                                CCDC 
#
#######################################################################
#
# If this CIF has been generated from an entry in the Cambridge 
# Structural Database, then it will include bibliographic, chemical, 
# crystal, experimental, refinement or atomic coordinate data resulting 
# from the CCDC's data processing and validation procedures.
#
#######################################################################

data_TIFVEK
_symmetry_cell_setting           monoclinic
_symmetry_space_group_name_H-M   'C 2/c'
_symmetry_Int_Tables_number      15
_space_group_name_Hall           '-C 2yn'
loop_
_symmetry_equiv_pos_site_id
_symmetry_equiv_pos_as_xyz
1 x,y,z
2 1/2+x,1/2+y,z
3 -x,y,1/2-z
4 1/2-x,1/2+y,1/2-z
5 -x,-y,-z
6 1/2-x,1/2-y,-z
7 x,-y,1/2+z
8 1/2+x,1/2-y,1/2+z
_cell_length_a                   25.102(3)
_cell_length_b                   14.1911(14)
_cell_length_c                   22.067(3)
_cell_angle_alpha                90
_cell_angle_beta                 113.084(5)
_cell_angle_gamma                90
_cell_volume                     7231.41
loop_
_atom_site_label
_atom_site_type_symbol
_atom_site_fract_x
_atom_site_fract_y
_atom_site_fract_z
Mn1 Mn 0.81077(4) 0.11706(7) 0.45522(5)
Mn2 Mn 1.0000 0.39859(10) 0.7500
F1 F 0.91510(17) 0.1239(3) 0.31611(19)
F2 F 0.8790(2) 0.0010(3) 0.2605(2)
F3 F 0.82940(19) 0.1284(3) 0.2441(2)
F4 F 0.7989(2) -0.2316(3) 0.3442(2)
F5 F 0.74288(18) -0.2005(2) 0.3936(2)
F6 F 0.8335(2) -0.2180(3) 0.4485(2)
F7 F 0.68409(19) -0.0042(4) 0.5342(2)
F8 F 0.7285(2) 0.0559(4) 0.6272(3)
F9 F 0.74017(19) -0.0881(3) 0.6106(2)
F10 F 0.93987(19) -0.1108(3) 0.6580(2)
F11 F 0.97650(17) 0.0271(3) 0.6636(2)
F12 F 0.9708(2) -0.0653(3) 0.5844(2)
F13 F 1.0167(2) 0.6864(3) 0.8564(2)
F14 F 1.0663(2) 0.6050(3) 0.9421(2)
F15 F 1.1093(2) 0.6999(3) 0.9006(2)
F16 F 1.19096(17) 0.5892(3) 0.7591(2)
F17 F 1.19349(19) 0.4401(3) 0.7478(2)
F18 F 1.13081(18) 0.5230(3) 0.67260(19)
O1 O 0.99518(17) 0.2818(3) 0.6869(2)
O2 O 0.85036(17) 0.2537(3) 0.47876(19)
O3 O 0.83544(17) 0.1169(3) 0.3732(2)
O4 O 0.78879(19) -0.0276(3) 0.4267(2)
O5 O 0.77157(17) 0.0933(2) 0.5249(2)
O6 O 0.88573(18) 0.0651(3) 0.5384(2)
O7 O 1.03204(19) 0.4942(3) 0.8320(2)
O8 O 1.08507(18) 0.4229(3) 0.7511(2)
N1 N 0.9699(2) 0.2784(3) 0.6233(2)
N2 N 0.9014(2) 0.2667(3) 0.5255(2)
N3 N 0.7726(2) 0.3095(3) 0.6054(2)
C1 C 0.8690(2) 0.2640(4) 0.6186(2)
C2 C 0.8159(2) 0.3100(4) 0.5849(3)
C3 C 0.7810(2) 0.2628(4) 0.6611(3)
C4 C 0.8320(2) 0.2166(4) 0.6976(3)
C5 C 0.8766(2) 0.2168(4) 0.6766(3)
C6 C 0.9124(2) 0.2693(4) 0.5903(2)
C7 C 1.0030(2) 0.2738(5) 0.5797(3)
C8 C 0.9532(2) 0.2915(4) 0.5102(3)
C9 C 1.0507(2) 0.3479(5) 0.6011(3)
C10 C 1.0287(3) 0.1749(5) 0.5879(3)
C11 C 0.9447(2) 0.3952(4) 0.4895(3)
C12 C 0.9548(2) 0.2276(5) 0.4551(3)
C13 C 0.8666(3) 0.0740(5) 0.2901(3)
C14 C 0.8428(2) 0.0486(4) 0.3419(3)
C15 C 0.8317(2) -0.0467(5) 0.3489(3)
C16 C 0.8049(2) -0.0767(4) 0.3903(3)
C17 C 0.7944(3) -0.1830(5) 0.3941(3)
C18 C 0.7341(3) -0.0036(5) 0.5853(3)
C19 C 0.7838(2) 0.0257(4) 0.5651(3)
C20 C 0.8361(2) -0.0218(5) 0.5934(3)
C21 C 0.8840(2) 0.0057(5) 0.5798(3)
C22 C 0.9429(3) -0.0377(6) 0.6209(4)
C23 C 1.0657(3) 0.6382(5) 0.8855(3)
C24 C 1.0696(2) 0.5584(5) 0.8398(3)
C25 C 1.1099(2) 0.5654(5) 0.8123(3)
C26 C 1.1142(2) 0.4965(5) 0.7685(3)
C27 C 1.1582(2) 0.5136(5) 0.7370(3)
H1 H 0.8107 0.3433 0.5456
H2 H 0.7504 0.2612 0.6762
H3 H 0.8361 0.1851 0.7371
H4 H 0.9119 0.1852 0.7011
H5 H 1.0795 0.3309 0.6428
H6 H 1.0348 0.4074 0.6044
H7 H 1.0678 0.3515 0.5696
H8 H 1.0597 0.1698 0.6298
H9 H 0.9997 0.1299 0.5845
H10 H 1.0428 0.1636 0.5544
H11 H 0.9735 0.4136 0.4740
H12 H 0.9478 0.4330 0.5263
H13 H 0.9074 0.4034 0.4554
H14 H 0.9196 0.2340 0.4175
H15 H 0.9594 0.1640 0.4696
H16 H 0.9863 0.2452 0.4440
H17 H 0.8448 -0.0956 0.3152
H18 H 0.8396 -0.0733 0.6222
H19 H 1.1325 0.6325 0.8168
Mn1B Mn 1.18923(4) 0.11706(7) 1.04478(5)
Mn1E Mn 0.68923(4) 0.38294(7) 0.54478(5)
Mn1G Mn 1.31077(4) 0.38294(7) 0.95522(5)
F1B F 1.08490(17) 0.1239(3) 1.18389(19)
F2B F 1.1210(2) 0.0010(3) 1.2395(2)
F3B F 1.17060(19) 0.1284(3) 1.2559(2)
F4B F 1.2011(2) -0.2316(3) 1.1558(2)
F5B F 1.25712(18) -0.2005(2) 1.1064(2)
F6B F 1.1665(2) -0.2180(3) 1.0515(2)
F7B F 1.31591(19) -0.0042(4) 0.9658(2)
F8B F 1.2715(2) 0.0559(4) 0.8728(3)
F9B F 1.25983(19) -0.0881(3) 0.8894(2)
F10B F 1.06013(19) -0.1108(3) 0.8420(2)
F11B F 1.02350(17) 0.0271(3) 0.8364(2)
F12B F 1.0292(2) -0.0653(3) 0.9156(2)
F13B F 0.9833(2) 0.6864(3) 0.6436(2)
F14B F 0.9337(2) 0.6050(3) 0.5579(2)
F15B F 0.8907(2) 0.6999(3) 0.5994(2)
F16B F 0.80904(17) 0.5892(3) 0.7409(2)
F17B F 0.80651(19) 0.4401(3) 0.7522(2)
F18B F 0.86919(18) 0.5230(3) 0.82740(19)
O1B O 1.00482(17) 0.2818(3) 0.8131(2)
O2B O 1.14964(17) 0.2537(3) 1.02124(19)
O3B O 1.16456(17) 0.1169(3) 1.1268(2)
O4B O 1.21121(19) -0.0276(3) 1.0733(2)
O5B O 1.22843(17) 0.0933(2) 0.9751(2)
O6B O 1.11427(18) 0.0651(3) 0.9616(2)
O7B O 0.96796(19) 0.4942(3) 0.6680(2)
O8B O 0.91493(18) 0.4229(3) 0.7489(2)
N1B N 1.0301(2) 0.2784(3) 0.8767(2)
N2B N 1.0986(2) 0.2667(3) 0.9745(2)
N3B N 1.2274(2) 0.3095(3) 0.8946(2)
N3E N 0.7274(2) 0.1905(3) 0.3946(2)
N3G N 1.2726(2) 0.1905(3) 1.1054(2)
C1B C 1.1310(2) 0.2640(4) 0.8814(2)
C2B C 1.1841(2) 0.3100(4) 0.9151(3)
C3B C 1.2190(2) 0.2628(4) 0.8389(3)
C4B C 1.1680(2) 0.2166(4) 0.8024(3)
C5B C 1.1234(2) 0.2168(4) 0.8234(3)
C6B C 1.0876(2) 0.2693(4) 0.9097(2)
C7B C 0.9970(2) 0.2738(5) 0.9203(3)
C8B C 1.0468(2) 0.2915(4) 0.9898(3)
C9B C 0.9493(2) 0.3479(5) 0.8989(3)
C10B C 0.9713(3) 0.1749(5) 0.9121(3)
C11B C 1.0553(2) 0.3952(4) 1.0105(3)
C12B C 1.0452(2) 0.2276(5) 1.0449(3)
C13B C 1.1334(3) 0.0740(5) 1.2099(3)
C14B C 1.1572(2) 0.0486(4) 1.1581(3)
C15B C 1.1683(2) -0.0467(5) 1.1511(3)
C16B C 1.1951(2) -0.0767(4) 1.1097(3)
C17B C 1.2056(3) -0.1830(5) 1.1059(3)
C18B C 1.2659(3) -0.0036(5) 0.9147(3)
C19B C 1.2162(2) 0.0257(4) 0.9349(3)
C20B C 1.1639(2) -0.0218(5) 0.9066(3)
C21B C 1.1160(2) 0.0057(5) 0.9202(3)
C22B C 1.0571(3) -0.0377(6) 0.8791(4)
C23B C 0.9343(3) 0.6382(5) 0.6145(3)
C24B C 0.9304(2) 0.5584(5) 0.6602(3)
C25B C 0.8901(2) 0.5654(5) 0.6877(3)
C26B C 0.8858(2) 0.4965(5) 0.7315(3)
C27B C 0.8418(2) 0.5136(5) 0.7630(3)
H1B H 1.1893 0.3433 0.9544
H2B H 1.2496 0.2612 0.8238
H3B H 1.1639 0.1851 0.7629
H4B H 1.0881 0.1852 0.7989
H5B H 0.9205 0.3309 0.8572
H6B H 0.9652 0.4074 0.8956
H7B H 0.9322 0.3515 0.9304
H8B H 0.9403 0.1698 0.8702
H9B H 1.0003 0.1299 0.9155
H10B H 0.9572 0.1636 0.9456
H11B H 1.0265 0.4136 1.0260
H12B H 1.0522 0.4330 0.9737
H13B H 1.0926 0.4034 1.0446
H14B H 1.0804 0.2340 1.0825
H15B H 1.0406 0.1640 1.0304
H16B H 1.0137 0.2452 1.0560
H17B H 1.1552 -0.0956 1.1848
H18B H 1.1604 -0.0733 0.8778
H19B H 0.8675 0.6325 0.6832
loop_
_geom_bond_atom_site_label_1
_geom_bond_atom_site_label_2
_geom_bond_site_symmetry_1
_geom_bond_site_symmetry_2
Mn1 O2 1_555 1_555
Mn2 O1 1_555 1_555
F1 C13 1_555 1_555
F2 C13 1_555 1_555
F3 C13 1_555 1_555
F4 C17 1_555 1_555
F5 C17 1_555 1_555
F6 C17 1_555 1_555
F7 C18 1_555 1_555
F8 C18 1_555 1_555
F9 C18 1_555 1_555
F10 C22 1_555 1_555
F11 C22 1_555 1_555
F12 C22 1_555 1_555
F13 C23 1_555 1_555
F14 C23 1_555 1_555
F15 C23 1_555 1_555
F16 C27 1_555 1_555
F17 C27 1_555 1_555
F18 C27 1_555 1_555
O1 N1 1_555 1_555
O2 N2 1_555 1_555
O3 Mn1 1_555 1_555
O4 Mn1 1_555 1_555
O5 Mn1 1_555 1_555
O6 Mn1 1_555 1_555
O7 Mn2 1_555 1_555
O8 Mn2 1_555 1_555
N1 C6 1_555 1_555
N2 C6 1_555 1_555
N3 C2 1_555 1_555
C1 C2 1_555 1_555
C2 H1 1_555 1_555
C3 N3 1_555 1_555
C4 C3 1_555 1_555
C5 C1 1_555 1_555
C6 C1 1_555 1_555
C7 N1 1_555 1_555
C8 N2 1_555 1_555
C9 C7 1_555 1_555
C10 C7 1_555 1_555
C11 C8 1_555 1_555
C12 C8 1_555 1_555
C13 C14 1_555 1_555
C14 O3 1_555 1_555
C15 C14 1_555 1_555
C16 O4 1_555 1_555
C17 C16 1_555 1_555
C18 C19 1_555 1_555
C19 O5 1_555 1_555
C20 C19 1_555 1_555
C21 O6 1_555 1_555
C22 C21 1_555 1_555
C23 C24 1_555 1_555
C24 O7 1_555 1_555
C25 C24 1_555 1_555
C26 O8 1_555 1_555
C27 C26 1_555 1_555
H2 C3 1_555 1_555
H3 C4 1_555 1_555
H4 C5 1_555 1_555
H5 C9 1_555 1_555
H6 C9 1_555 1_555
H7 C9 1_555 1_555
H8 C10 1_555 1_555
H9 C10 1_555 1_555
H10 C10 1_555 1_555
H11 C11 1_555 1_555
H12 C11 1_555 1_555
H13 C11 1_555 1_555
H14 C12 1_555 1_555
H15 C12 1_555 1_555
H16 C12 1_555 1_555
H17 C15 1_555 1_555
H18 C20 1_555 1_555
H19 C25 1_555 1_555
Mn1B O2B 1_555 1_555
Mn1E N3 1_555 1_555
Mn1G N3B 1_555 1_555
F1B C13B 1_555 1_555
F2B C13B 1_555 1_555
F3B C13B 1_555 1_555
F4B C17B 1_555 1_555
F5B C17B 1_555 1_555
F6B C17B 1_555 1_555
F7B C18B 1_555 1_555
F8B C18B 1_555 1_555
F9B C18B 1_555 1_555
F10B C22B 1_555 1_555
F11B C22B 1_555 1_555
F12B C22B 1_555 1_555
F13B C23B 1_555 1_555
F14B C23B 1_555 1_555
F15B C23B 1_555 1_555
F16B C27B 1_555 1_555
F17B C27B 1_555 1_555
F18B C27B 1_555 1_555
O1B Mn2 1_555 1_555
O2B N2B 1_555 1_555
O3B Mn1B 1_555 1_555
O4B Mn1B 1_555 1_555
O5B Mn1B 1_555 1_555
O6B Mn1B 1_555 1_555
O7B Mn2 1_555 1_555
O8B Mn2 1_555 1_555
N1B O1B 1_555 1_555
N2B C6B 1_555 1_555
N3B C2B 1_555 1_555
N3E Mn1 1_555 1_555
N3G Mn1B 1_555 1_555
C1B C2B 1_555 1_555
C2B H1B 1_555 1_555
C3B N3B 1_555 1_555
C4B C3B 1_555 1_555
C5B C1B 1_555 1_555
C6B N1B 1_555 1_555
C7B N1B 1_555 1_555
C8B N2B 1_555 1_555
C9B C7B 1_555 1_555
C10B C7B 1_555 1_555
C11B C8B 1_555 1_555
C12B C8B 1_555 1_555
C13B C14B 1_555 1_555
C14B O3B 1_555 1_555
C15B C14B 1_555 1_555
C16B O4B 1_555 1_555
C17B C16B 1_555 1_555
C18B C19B 1_555 1_555
C19B O5B 1_555 1_555
C20B C19B 1_555 1_555
C21B O6B 1_555 1_555
C22B C21B 1_555 1_555
C23B C24B 1_555 1_555
C24B O7B 1_555 1_555
C25B C24B 1_555 1_555
C26B O8B 1_555 1_555
C27B C26B 1_555 1_555
H2B C3B 1_555 1_555
H3B C4B 1_555 1_555
H4B C5B 1_555 1_555
H5B C9B 1_555 1_555
H6B C9B 1_555 1_555
H7B C9B 1_555 1_555
H8B C10B 1_555 1_555
H9B C10B 1_555 1_555
H10B C10B 1_555 1_555
H11B C11B 1_555 1_555
H12B C11B 1_555 1_555
H13B C11B 1_555 1_555
H14B C12B 1_555 1_555
H15B C12B 1_555 1_555
H16B C12B 1_555 1_555
H17B C15B 1_555 1_555
H18B C20B 1_555 1_555
H19B C25B 1_555 1_555
C4 C5 1_555 1_555
C7 C8 1_555 1_555
C15 C16 1_555 1_555
C20 C21 1_555 1_555
C25 C26 1_555 1_555
C1B C6B 1_555 1_555
C4B C5B 1_555 1_555
C7B C8B 1_555 1_555
C15B C16B 1_555 1_555
C20B C21B 1_555 1_555
C25B C26B 1_555 1_555

#END
