
#######################################################################
#
#                 Cambridge Crystallographic Data Centre
#                                CCDC 
#
#######################################################################
#
# If this CIF has been generated from an entry in the Cambridge 
# Structural Database, then it will include bibliographic, chemical, 
# crystal, experimental, refinement or atomic coordinate data resulting 
# from the CCDC's data processing and validation procedures.
#
#######################################################################

data_TIFVAG
_symmetry_cell_setting           trigonal
_symmetry_space_group_name_H-M   'P -3 c 1'
_symmetry_Int_Tables_number      165
_space_group_name_Hall           '-P 3 2"c'
loop_
_symmetry_equiv_pos_site_id
_symmetry_equiv_pos_as_xyz
1 x,y,z
2 -y,x-y,z
3 -x+y,-x,z
4 y,x,1/2-z
5 x-y,-y,1/2-z
6 -x,-x+y,1/2-z
7 -x,-y,-z
8 y,-x+y,-z
9 x-y,x,-z
10 -y,-x,1/2+z
11 -x+y,y,1/2+z
12 x,x-y,1/2+z
_cell_length_a                   14.355(3)
_cell_length_b                   14.355(3)
_cell_length_c                   13.705(5)
_cell_angle_alpha                90
_cell_angle_beta                 90
_cell_angle_gamma                120
_cell_volume                     2445.77
loop_
_atom_site_label
_atom_site_type_symbol
_atom_site_fract_x
_atom_site_fract_y
_atom_site_fract_z
Mn1 Mn 0.498837(18) 0.798906(18) 0.350261(18)
Mn2 Mn 1.0000 1.0000 0.5000
C1 C 0.64483(12) 0.68498(12) 0.37779(12)
C2 C 0.75676(12) 0.87964(12) 0.38760(12)
N1 N 0.54953(10) 0.67752(10) 0.36241(11)
N2 N 0.47921(10) 0.56995(10) 0.35968(10)
N3 N 0.53109(11) 0.51818(11) 0.37203(12)
N4 N 0.63658(11) 0.58852(11) 0.38367(12)
N5 N 0.74193(11) 0.77780(11) 0.38708(13)
H1 H 0.7947(19) 0.770(2) 0.3956(18)
N6 N 0.68202(10) 0.90666(10) 0.36844(11)
N7 N 0.73707(11) 1.01645(11) 0.37269(12)
N8 N 0.83721(11) 1.05059(11) 0.39380(12)
N9 N 0.85341(10) 0.96591(10) 0.40585(11)
O1 O 0.51634(10) 0.82929(11) 0.19364(10)
H2 H 0.580(2) 0.869(2) 0.1733(18)
H3 H 0.489(2) 0.865(2) 0.175(2)
O2 O 0.45997(12) 0.77267(12) 0.50875(11)
H4 H 0.446(2) 0.720(3) 0.527(3)
H5 H 0.502(2) 0.818(2) 0.545(2)
F1 F 0.3333 0.6667 0.33125(12)
Mn1A Mn 1.201094(18) 0.699931(25) 0.350261(18)
Mn1B Mn 1.300069(25) 1.501163(18) 0.350261(18)
Mn1F Mn 1.501163(18) 1.201094(18) 0.649739(18)
Mn1G Mn 0.798906(18) 1.300069(25) 0.649739(18)
Mn1H Mn 0.699931(25) 0.498837(18) 0.649739(18)
Mn1B_2 Mn 0.300069(25) 0.501163(18) 0.350261(18)
Mn1A_2 Mn 0.201094(18) 0.699931(25) 0.350261(18)
Mn1_2 Mn 1.498837(18) 0.798906(18) 0.350261(18)
Mn1A_3 Mn 1.201094(18) 1.699931(25) 0.350261(18)
Mn1H_2 Mn 1.699931(25) 1.498837(18) 0.649739(18)
Mn1F_2 Mn 0.501163(18) 1.201094(18) 0.649739(18)
Mn1G_2 Mn 0.798906(18) 0.300069(25) 0.649739(18)
Mn1B_3 Mn 1.300069(25) 0.501163(18) 0.350261(18)
C1A C 1.31502(12) 0.95985(17) 0.37779(12)
C1B C 1.04015(17) 1.35517(12) 0.37779(12)
C1F C 1.35517(12) 1.31502(12) 0.62221(12)
C1G C 0.68498(12) 1.04015(17) 0.62221(12)
C1H C 0.95985(17) 0.64483(12) 0.62221(12)
C2A C 1.12036(12) 0.87712(17) 0.38760(12)
C2B C 1.12288(17) 1.24324(12) 0.38760(12)
C2F C 1.24324(12) 1.12036(12) 0.61240(12)
C2G C 0.87964(12) 1.12288(17) 0.61240(12)
C2H C 0.87712(17) 0.75676(12) 0.61240(12)
N1A N 1.32248(10) 0.87201(14) 0.36241(11)
N1B N 1.12799(14) 1.45047(10) 0.36241(11)
N1F N 1.45047(10) 1.32248(10) 0.63759(11)
N1G N 0.67752(10) 1.12799(14) 0.63759(11)
N1H N 0.87201(14) 0.54953(10) 0.63759(11)
N2A N 1.43005(10) 0.90926(14) 0.35968(10)
N2B N 1.09074(14) 1.52079(10) 0.35968(10)
N2F N 1.52079(10) 1.43005(10) 0.64032(10)
N2G N 0.56995(10) 1.09074(14) 0.64032(10)
N2H N 0.90926(14) 0.47921(10) 0.64032(10)
N2A_2 N 0.43005(10) 0.90926(14) 0.35968(10)
N2B_2 N 1.09074(14) 0.52079(10) 0.35968(10)
N2_2 N 1.47921(10) 1.56995(10) 0.35968(10)
N2G_2 N 1.56995(10) 1.09074(14) 0.64032(10)
N2H_2 N 0.90926(14) 1.47921(10) 0.64032(10)
N2F_2 N 0.52079(10) 0.43005(10) 0.64032(10)
N3A N 1.48182(11) 1.01291(16) 0.37203(12)
N3B N 0.98709(16) 1.46891(11) 0.37203(12)
N3F N 1.46891(11) 1.48182(11) 0.62797(12)
N3G N 0.51818(11) 0.98709(16) 0.62797(12)
N3H N 1.01291(16) 0.53109(11) 0.62797(12)
N4A N 1.41148(11) 1.04806(16) 0.38367(12)
N4B N 0.95194(16) 1.36342(11) 0.38367(12)
N4F N 1.36342(11) 1.41148(11) 0.61633(12)
N4G N 0.58852(11) 0.95194(16) 0.61633(12)
N4H N 1.04806(16) 0.63658(11) 0.61633(12)
N5A N 1.22220(11) 0.96413(16) 0.38708(13)
N5B N 1.03587(16) 1.25807(11) 0.38708(13)
N5F N 1.25807(11) 1.22220(11) 0.61292(13)
N5G N 0.77780(11) 1.03587(16) 0.61292(13)
N5H N 0.96413(16) 0.74193(11) 0.61292(13)
H1A H 1.230(2) 1.0247(28) 0.3956(18)
H1B H 0.9753(28) 1.2053(19) 0.3956(18)
H1F H 1.2053(19) 1.230(2) 0.6044(18)
H1G H 0.770(2) 0.9753(28) 0.6044(18)
H1H H 1.0247(28) 0.7947(19) 0.6044(18)
N6A N 1.09334(10) 0.77536(14) 0.36844(11)
N6B N 1.22464(14) 1.31798(10) 0.36844(11)
N6F N 1.31798(10) 1.09334(10) 0.63156(11)
N6G N 0.90666(10) 1.22464(14) 0.63156(11)
N6H N 0.77536(14) 0.68202(10) 0.63156(11)
N7A N 0.98355(11) 0.72062(16) 0.37269(12)
N7B N 1.27938(16) 1.26293(11) 0.37269(12)
N7F N 1.26293(11) 0.98355(11) 0.62731(12)
N7G N 1.01645(11) 1.27938(16) 0.62731(12)
N7H N 0.72062(16) 0.73707(11) 0.62731(12)
N8A N 0.94941(11) 0.78662(16) 0.39380(12)
N8B N 1.21338(16) 1.16279(11) 0.39380(12)
N8F N 1.16279(11) 0.94941(11) 0.60620(12)
N8G N 1.05059(11) 1.21338(16) 0.60620(12)
N8H N 0.78662(16) 0.83721(11) 0.60620(12)
N9A N 1.03409(10) 0.88750(14) 0.40585(11)
N9B N 1.11250(14) 1.14659(10) 0.40585(11)
N9F N 1.14659(10) 1.03409(10) 0.59415(11)
N9G N 0.96591(10) 1.11250(14) 0.59415(11)
N9H N 0.88750(14) 0.85341(10) 0.59415(11)
O1A O 1.17071(11) 0.68705(15) 0.19364(10)
O1B O 1.31295(15) 1.48366(10) 0.19364(10)
O1F O 1.48366(10) 1.17071(11) 0.80636(10)
O1G O 0.82929(11) 1.31295(15) 0.80636(10)
O1H O 0.68705(15) 0.51634(10) 0.80636(10)
H2A H 1.131(2) 0.711(3) 0.1733(18)
H2B H 1.289(3) 1.420(2) 0.1733(18)
H2F H 1.420(2) 1.131(2) 0.8267(18)
H2G H 0.869(2) 1.289(3) 0.8267(18)
H2H H 0.711(3) 0.580(2) 0.8267(18)
H3A H 1.135(2) 0.624(3) 0.175(2)
H3B H 1.376(3) 1.511(2) 0.175(2)
H3F H 1.511(2) 1.135(2) 0.825(2)
H3G H 0.865(2) 1.376(3) 0.825(2)
H3H H 0.624(3) 0.489(2) 0.825(2)
O2A O 1.22733(12) 0.68730(17) 0.50875(11)
O2B O 1.31270(17) 1.54003(12) 0.50875(11)
O2F O 1.54003(12) 1.22733(12) 0.49125(11)
O2G O 0.77267(12) 1.31270(17) 0.49125(11)
O2H O 0.68730(17) 0.45997(12) 0.49125(11)
H4A H 1.280(3) 0.726(4) 0.527(3)
H4B H 1.274(4) 1.554(2) 0.527(3)
H4F H 1.554(2) 1.280(3) 0.473(3)
H4G H 0.720(3) 1.274(4) 0.473(3)
H4H H 0.726(4) 0.446(2) 0.473(3)
H5A H 1.182(2) 0.684(3) 0.545(2)
H5B H 1.316(3) 1.498(2) 0.545(2)
H5F H 1.498(2) 1.182(2) 0.455(2)
H5G H 0.818(2) 1.316(3) 0.455(2)
H5H H 0.684(3) 0.502(2) 0.455(2)
F1A F 1.3333 0.6666 0.33125(12)
F1_2 F 1.3333 1.6667 0.33125(12)
F1F F 1.6667 1.3333 0.66875(12)
F1F_2 F 0.6667 1.3333 0.66875(12)
F1F_3 F 0.6667 0.3333 0.66875(12)
loop_
_geom_bond_atom_site_label_1
_geom_bond_atom_site_label_2
_geom_bond_site_symmetry_1
_geom_bond_site_symmetry_2
Mn1 N1 1_555 1_555
Mn2 N9 1_555 1_555
C1 N1 1_555 1_555
C2 N5 1_555 1_555
N1 N2 1_555 1_555
N2 N3 1_555 1_555
N3 N4 1_555 1_555
N4 C1 1_555 1_555
N5 C1 1_555 1_555
H1 N5 1_555 1_555
N6 Mn1 1_555 1_555
N7 N6 1_555 1_555
N8 N7 1_555 1_555
N9 C2 1_555 1_555
O1 Mn1 1_555 1_555
H2 O1 1_555 1_555
H3 O1 1_555 1_555
O2 Mn1 1_555 1_555
H4 O2 1_555 1_555
H5 O2 1_555 1_555
F1 Mn1 1_555 1_555
Mn1A N1A 1_555 1_555
Mn1B N1B 1_555 1_555
Mn1F N1F 1_555 1_555
Mn1G N1G 1_555 1_555
Mn1H N1H 1_555 1_555
Mn1B_2 N2 1_555 1_555
Mn1A_2 F1 1_555 1_555
Mn1_2 N2A 1_555 1_555
Mn1A_3 N2B 1_555 1_555
Mn1H_2 N2F 1_555 1_555
Mn1F_2 N2G 1_555 1_555
Mn1G_2 N2H 1_555 1_555
Mn1B_3 F1A 1_555 1_555
C1A N1A 1_555 1_555
C1B N1B 1_555 1_555
C1F N1F 1_555 1_555
C1G N1G 1_555 1_555
C1H N1H 1_555 1_555
C2A N5A 1_555 1_555
C2B N5B 1_555 1_555
C2F N5F 1_555 1_555
C2G N5G 1_555 1_555
C2H N5H 1_555 1_555
N1A N2A 1_555 1_555
N1B N2B 1_555 1_555
N1F N2F 1_555 1_555
N1G N2G 1_555 1_555
N1H N2H 1_555 1_555
N2A N3A 1_555 1_555
N2B N3B 1_555 1_555
N2F N3F 1_555 1_555
N2G N3G 1_555 1_555
N2H N3H 1_555 1_555
N2A_2 Mn1 1_555 1_555
N2B_2 Mn1A 1_555 1_555
N2_2 Mn1B 1_555 1_555
N2G_2 Mn1F 1_555 1_555
N2H_2 Mn1G 1_555 1_555
N2F_2 Mn1H 1_555 1_555
N3A N4A 1_555 1_555
N3B N4B 1_555 1_555
N3F N4F 1_555 1_555
N3G N4G 1_555 1_555
N3H N4H 1_555 1_555
N4A C1A 1_555 1_555
N4B C1B 1_555 1_555
N4F C1F 1_555 1_555
N4G C1G 1_555 1_555
N4H C1H 1_555 1_555
N5A C1A 1_555 1_555
N5B C1B 1_555 1_555
N5F C1F 1_555 1_555
N5G C1G 1_555 1_555
N5H C1H 1_555 1_555
H1A N5A 1_555 1_555
H1B N5B 1_555 1_555
H1F N5F 1_555 1_555
H1G N5G 1_555 1_555
H1H N5H 1_555 1_555
N6A Mn1A 1_555 1_555
N6B Mn1B 1_555 1_555
N6F Mn1F 1_555 1_555
N6G Mn1G 1_555 1_555
N6H Mn1H 1_555 1_555
N7A N6A 1_555 1_555
N7B N6B 1_555 1_555
N7F N6F 1_555 1_555
N7G N6G 1_555 1_555
N7H N6H 1_555 1_555
N8A N7A 1_555 1_555
N8B N7B 1_555 1_555
N8F N7F 1_555 1_555
N8G N7G 1_555 1_555
N8H N7H 1_555 1_555
N9A Mn2 1_555 1_555
N9B Mn2 1_555 1_555
N9F Mn2 1_555 1_555
N9G Mn2 1_555 1_555
N9H Mn2 1_555 1_555
O1A Mn1A 1_555 1_555
O1B Mn1B 1_555 1_555
O1F Mn1F 1_555 1_555
O1G Mn1G 1_555 1_555
O1H Mn1H 1_555 1_555
H2A O1A 1_555 1_555
H2B O1B 1_555 1_555
H2F O1F 1_555 1_555
H2G O1G 1_555 1_555
H2H O1H 1_555 1_555
H3A O1A 1_555 1_555
H3B O1B 1_555 1_555
H3F O1F 1_555 1_555
H3G O1G 1_555 1_555
H3H O1H 1_555 1_555
O2A Mn1A 1_555 1_555
O2B Mn1B 1_555 1_555
O2F Mn1F 1_555 1_555
O2G Mn1G 1_555 1_555
O2H Mn1H 1_555 1_555
H4A O2A 1_555 1_555
H4B O2B 1_555 1_555
H4F O2F 1_555 1_555
H4G O2G 1_555 1_555
H4H O2H 1_555 1_555
H5A O2A 1_555 1_555
H5B O2B 1_555 1_555
H5F O2F 1_555 1_555
H5G O2G 1_555 1_555
H5H O2H 1_555 1_555
F1A Mn1A 1_555 1_555
F1_2 Mn1B 1_555 1_555
F1F Mn1F 1_555 1_555
F1F_2 Mn1G 1_555 1_555
F1F_3 Mn1H 1_555 1_555
C2 N6 1_555 1_555
N8 N9 1_555 1_555
F1 Mn1B_2 1_555 1_555
Mn1_2 F1A 1_555 1_555
Mn1A_3 F1_2 1_555 1_555
Mn1H_2 F1F 1_555 1_555
Mn1F_2 F1F_2 1_555 1_555
Mn1G_2 F1F_3 1_555 1_555
C2A N6A 1_555 1_555
C2A N9A 1_555 1_555
C2B N6B 1_555 1_555
C2B N9B 1_555 1_555
C2F N6F 1_555 1_555
C2F N9F 1_555 1_555
C2G N6G 1_555 1_555
C2G N9G 1_555 1_555
C2H N6H 1_555 1_555
C2H N9H 1_555 1_555
N8A N9A 1_555 1_555
N8B N9B 1_555 1_555
N8F N9F 1_555 1_555
N8G N9G 1_555 1_555
N8H N9H 1_555 1_555

#END
