
#######################################################################
#
#                 Cambridge Crystallographic Data Centre
#                                CCDC 
#
#######################################################################
#
# If this CIF has been generated from an entry in the Cambridge 
# Structural Database, then it will include bibliographic, chemical, 
# crystal, experimental, refinement or atomic coordinate data resulting 
# from the CCDC's data processing and validation procedures.
#
#######################################################################

data_TIFWAH
_symmetry_cell_setting           monoclinic
_symmetry_space_group_name_H-M   'P 21/c'
_symmetry_Int_Tables_number      14
_space_group_name_Hall           '-P 2ybc'
loop_
_symmetry_equiv_pos_site_id
_symmetry_equiv_pos_as_xyz
1 x,y,z
2 -x,1/2+y,1/2-z
3 -x,-y,-z
4 x,1/2-y,1/2+z
_cell_length_a                   11.960(4)
_cell_length_b                   9.448(3)
_cell_length_c                   18.756(6)
_cell_angle_alpha                90
_cell_angle_beta                 108.592(4)
_cell_angle_gamma                90
_cell_volume                     2008.79
loop_
_atom_site_label
_atom_site_type_symbol
_atom_site_fract_x
_atom_site_fract_y
_atom_site_fract_z
Cd1 Cd 1.0000 0.5000 0.0000
C1 C 0.4821(3) 0.1571(4) 0.07099(17)
C2 C 0.4142(3) 0.0348(3) 0.05930(19)
C3 C 0.4560(3) -0.0813(4) 0.10476(18)
H1 H 0.4097 -0.1625 0.0971
C4 C 0.5635(3) -0.0817(4) 0.16110(18)
C5 C 0.6286(3) 0.0425(4) 0.17102(18)
H2 H 0.7015 0.0455 0.2085
C6 C 0.5898(3) 0.1625(3) 0.12747(17)
C7 C 0.6600(3) 0.2970(4) 0.14719(19)
H3 H 0.6086 0.3715 0.1542
H4 H 0.7219 0.2835 0.1948
C8 C 0.8256(3) 0.3626(4) 0.0972(2)
H5 H 0.8886 0.3422 0.1401
C9 C 0.7236(3) 0.4264(4) -0.0096(2)
H6 H 0.7025 0.4610 -0.0585
C10 C 0.2986(3) 0.0280(4) -0.0035(2)
H7 H 0.3098 0.0617 -0.0496
H8 H 0.2725 -0.0696 -0.0113
C11 C 0.1637(3) 0.2360(4) -0.01451(19)
H9 H 0.1845 0.2853 -0.0513
C12 C 0.0861(3) 0.1758(4) 0.0643(2)
H10 H 0.0388 0.1771 0.0952
C13 C 0.6105(3) -0.2113(4) 0.21066(18)
C14 C 0.5190(4) -0.3283(4) 0.1967(2)
H11 H 0.5023 -0.3633 0.1464
H12 H 0.4480 -0.2915 0.2032
H13 H 0.5489 -0.4039 0.2318
C15 C 0.6439(4) -0.1696(5) 0.2937(2)
H14 H 0.5759 -0.1321 0.3038
H15 H 0.7048 -0.0990 0.3048
H16 H 0.6720 -0.2514 0.3246
C16 C 0.7174(4) -0.2704(5) 0.1931(3)
H17 H 0.7468 -0.3518 0.2240
H18 H 0.7779 -0.1994 0.2031
H19 H 0.6948 -0.2971 0.1410
N1 N 0.7139(2) 0.3441(3) 0.09105(15)
N2 N 0.6458(2) 0.3859(3) 0.02182(16)
N3 N 0.8359(2) 0.4139(3) 0.03429(16)
N4 N 0.2073(2) 0.1133(3) 0.01273(14)
N5 N 0.1576(3) 0.0706(4) 0.06402(18)
N6 N 0.0867(2) 0.2805(3) 0.01688(16)
O1 O 0.43423(19) 0.2713(2) 0.02633(14)
H20 H 0.4874 0.3215 0.0216
O2 O 1.1054(2) 0.5603(3) 0.12084(14)
H21 H 1.1197 0.6486 0.1253
H22 H 1.0652 0.5326 0.1483
Cd1_2 Cd 0.0000 0.5000 0.0000
Cd1_3 Cd 2.0000 0.5000 0.0000
C1B C 1.5179(3) 0.8429(4) -0.07099(17)
C2B C 1.5858(3) 0.9652(3) -0.05930(19)
C3B C 1.5440(3) 1.0813(4) -0.10476(18)
H1B H 1.5903 1.1625 -0.0971
C4B C 1.4365(3) 1.0817(4) -0.16110(18)
C5B C 1.3714(3) 0.9575(4) -0.17102(18)
H2B H 1.2985 0.9545 -0.2085
C6B C 1.4102(3) 0.8375(3) -0.12747(17)
C7B C 1.3400(3) 0.7030(4) -0.14719(19)
H3B H 1.3914 0.6285 -0.1542
H4B H 1.2781 0.7165 -0.1948
C8B C 1.1744(3) 0.6374(4) -0.0972(2)
H5B H 1.1114 0.6578 -0.1401
C9B C 1.2764(3) 0.5736(4) 0.0096(2)
H6B H 1.2975 0.5390 0.0585
C10B C 1.7014(3) 0.9720(4) 0.0035(2)
H7B H 1.6902 0.9383 0.0496
H8B H 1.7275 1.0696 0.0113
C11B C 1.8363(3) 0.7640(4) 0.01451(19)
H9B H 1.8155 0.7147 0.0513
C12B C 1.9139(3) 0.8242(4) -0.0643(2)
H10B H 1.9612 0.8229 -0.0952
C13B C 1.3895(3) 1.2113(4) -0.21066(18)
C14B C 1.4810(4) 1.3283(4) -0.1967(2)
H11B H 1.4977 1.3633 -0.1464
H12B H 1.5520 1.2915 -0.2032
H13B H 1.4511 1.4039 -0.2318
C15B C 1.3561(4) 1.1696(5) -0.2937(2)
H14B H 1.4241 1.1321 -0.3038
H15B H 1.2952 1.0990 -0.3048
H16B H 1.3280 1.2514 -0.3246
C16B C 1.2826(4) 1.2704(5) -0.1931(3)
H17B H 1.2532 1.3518 -0.2240
H18B H 1.2221 1.1994 -0.2031
H19B H 1.3052 1.2971 -0.1410
N1B N 1.2861(2) 0.6559(3) -0.09105(15)
N2B N 1.3542(2) 0.6141(3) -0.02182(16)
N3B N 1.1641(2) 0.5861(3) -0.03429(16)
N4B N 1.7927(2) 0.8867(3) -0.01273(14)
N5B N 1.8424(3) 0.9294(4) -0.06402(18)
N6B N 1.9133(2) 0.7195(3) -0.01688(16)
N6_2 N 1.0867(2) 0.2805(3) 0.01688(16)
N6B_2 N 0.9133(2) 0.7195(3) -0.01688(16)
O1B O 1.56577(19) 0.7287(2) -0.02633(14)
H20B H 1.5126 0.6785 -0.0216
O2B O 0.8946(2) 0.4397(3) -0.12084(14)
H21B H 0.8803 0.3514 -0.1253
H22B H 0.9348 0.4674 -0.1483
N7 N 0.9577(4) 0.0212(6) 0.2125(3)
O4 O 0.9864(7) -0.0496(6) 0.2614(3)
O5 O 0.9399(5) 0.0037(5) 0.1480(3)
O6 O 0.9167(5) 0.1339(7) 0.2248(4)
O3 O 0.1714(3) 0.8280(3) 0.16290(17)
H23 H 0.2153 0.8576 0.1383
H24 H 0.1105 0.8802 0.1535
loop_
_geom_bond_atom_site_label_1
_geom_bond_atom_site_label_2
_geom_bond_site_symmetry_1
_geom_bond_site_symmetry_2
Cd1 N3 1_555 1_555
C1 C2 1_555 1_555
C2 C3 1_555 1_555
C3 H1 1_555 1_555
C4 C3 1_555 1_555
C5 C4 1_555 1_555
H2 C5 1_555 1_555
C6 C1 1_555 1_555
C7 C6 1_555 1_555
H3 C7 1_555 1_555
H4 C7 1_555 1_555
C8 H5 1_555 1_555
C9 H6 1_555 1_555
C10 C2 1_555 1_555
H7 C10 1_555 1_555
H8 C10 1_555 1_555
C11 H9 1_555 1_555
C12 H10 1_555 1_555
C13 C4 1_555 1_555
C14 C13 1_555 1_555
H11 C14 1_555 1_555
H12 C14 1_555 1_555
H13 C14 1_555 1_555
C15 C13 1_555 1_555
H14 C15 1_555 1_555
H15 C15 1_555 1_555
H16 C15 1_555 1_555
C16 C13 1_555 1_555
H17 C16 1_555 1_555
H18 C16 1_555 1_555
H19 C16 1_555 1_555
N1 C7 1_555 1_555
N2 C9 1_555 1_555
N3 C8 1_555 1_555
N4 C10 1_555 1_555
N5 C12 1_555 1_555
N6 C11 1_555 1_555
N7 O4 1_555 1_555
O1 C1 1_555 1_555
H20 O1 1_555 1_555
O2 Cd1 1_555 1_555
H21 O2 1_555 1_555
H22 O2 1_555 1_555
O3 H23 1_555 1_555
H24 O3 1_555 1_555
O5 N7 1_555 1_555
O6 N7 1_555 1_555
Cd1_2 N6 1_555 1_555
Cd1_3 N6B 1_555 1_555
C1B C2B 1_555 1_555
C2B C3B 1_555 1_555
C3B H1B 1_555 1_555
C4B C3B 1_555 1_555
C5B C4B 1_555 1_555
H2B C5B 1_555 1_555
C6B C1B 1_555 1_555
C7B C6B 1_555 1_555
H3B C7B 1_555 1_555
H4B C7B 1_555 1_555
C8B H5B 1_555 1_555
C9B H6B 1_555 1_555
C10B C2B 1_555 1_555
H7B C10B 1_555 1_555
H8B C10B 1_555 1_555
C11B H9B 1_555 1_555
C12B H10B 1_555 1_555
C13B C4B 1_555 1_555
C14B C13B 1_555 1_555
H11B C14B 1_555 1_555
H12B C14B 1_555 1_555
H13B C14B 1_555 1_555
C15B C13B 1_555 1_555
H14B C15B 1_555 1_555
H15B C15B 1_555 1_555
H16B C15B 1_555 1_555
C16B C13B 1_555 1_555
H17B C16B 1_555 1_555
H18B C16B 1_555 1_555
H19B C16B 1_555 1_555
N1B C7B 1_555 1_555
N2B C9B 1_555 1_555
N3B Cd1 1_555 1_555
N4B C10B 1_555 1_555
N5B C12B 1_555 1_555
N6B C11B 1_555 1_555
N6_2 Cd1 1_555 1_555
N6B_2 Cd1 1_555 1_555
O1B C1B 1_555 1_555
H20B O1B 1_555 1_555
O2B Cd1 1_555 1_555
H21B O2B 1_555 1_555
H22B O2B 1_555 1_555
C5 C6 1_555 1_555
C8 N1 1_555 1_555
C9 N3 1_555 1_555
C11 N4 1_555 1_555
C12 N6 1_555 1_555
N1 N2 1_555 1_555
N4 N5 1_555 1_555
C5B C6B 1_555 1_555
C8B N1B 1_555 1_555
C8B N3B 1_555 1_555
C9B N3B 1_555 1_555
C11B N4B 1_555 1_555
C12B N6B 1_555 1_555
N1B N2B 1_555 1_555
N4B N5B 1_555 1_555

#END
