
#######################################################################
#
#                 Cambridge Crystallographic Data Centre
#                                CCDC 
#
#######################################################################
#
# If this CIF has been generated from an entry in the Cambridge 
# Structural Database, then it will include bibliographic, chemical, 
# crystal, experimental, refinement or atomic coordinate data resulting 
# from the CCDC's data processing and validation procedures.
#
#######################################################################

data_TIFYEO
_symmetry_cell_setting           monoclinic
_symmetry_space_group_name_H-M   'P 21/c'
_symmetry_Int_Tables_number      14
_space_group_name_Hall           '-P 2ybc'
loop_
_symmetry_equiv_pos_site_id
_symmetry_equiv_pos_as_xyz
1 x,y,z
2 -x,1/2+y,1/2-z
3 -x,-y,-z
4 x,1/2-y,1/2+z
_cell_length_a                   21.140(4)
_cell_length_b                   14.841(3)
_cell_length_c                   25.156(5)
_cell_angle_alpha                90
_cell_angle_beta                 96.507(2)
_cell_angle_gamma                90
_cell_volume                     7841.57
loop_
_atom_site_label
_atom_site_type_symbol
_atom_site_fract_x
_atom_site_fract_y
_atom_site_fract_z
Pd1 Pd 0.63315(5) 0.54647(7) 0.19842(4)
P1 P 0.65950(19) 0.6564(2) 0.25906(15)
P2 P 0.53287(19) 0.5759(2) 0.21578(15)
C1 C 0.6993(7) 0.6116(11) 0.3211(6)
C2 C 0.7113(8) 0.5203(12) 0.3282(7)
H1 H 0.6999 0.4792 0.2998
C3 C 0.7396(8) 0.4898(12) 0.3760(8)
H2 H 0.7465 0.4269 0.3802
C4 C 0.7583(9) 0.5443(14) 0.4177(8)
H3 H 0.7784 0.5206 0.4505
C5 C 0.7471(9) 0.6377(14) 0.4113(7)
H4 H 0.7597 0.6781 0.4398
C6 C 0.7184(8) 0.6689(11) 0.3643(7)
H5 H 0.7109 0.7318 0.3603
C7 C 0.7126(8) 0.7407(10) 0.2376(6)
C8 C 0.7775(10) 0.7225(12) 0.2439(8)
H6 H 0.7929 0.6683 0.2608
C9 C 0.8201(11) 0.7844(17) 0.2253(11)
H7 H 0.8644 0.7718 0.2280
C10 C 0.7956(12) 0.8653(16) 0.2025(9)
H8 H 0.8240 0.9098 0.1920
C11 C 0.7336(11) 0.8805(12) 0.1954(8)
H9 H 0.7184 0.9342 0.1779
C12 C 0.6898(8) 0.8196(11) 0.2132(6)
H10 H 0.6455 0.8322 0.2085
C13 C 0.5860(7) 0.7123(9) 0.2746(5)
H11 H 0.5744 0.6896 0.3092
H12 H 0.5935 0.7780 0.2782
C14 C 0.5326(7) 0.6952(9) 0.2318(5)
H13 H 0.5383 0.7314 0.1997
H14 H 0.4916 0.7122 0.2445
C15 C 0.4739(7) 0.5531(9) 0.1611(6)
C16 C 0.4540(8) 0.6170(10) 0.1237(6)
H15 H 0.4682 0.6774 0.1289
C17 C 0.4144(8) 0.5955(11) 0.0789(7)
H16 H 0.4014 0.6414 0.0536
C18 C 0.3925(8) 0.5084(13) 0.0694(6)
H17 H 0.3644 0.4940 0.0383
C19 C 0.4130(8) 0.4425(10) 0.1069(7)
H18 H 0.4003 0.3817 0.1006
C20 C 0.4511(8) 0.4640(11) 0.1525(7)
H19 H 0.4625 0.4189 0.1786
C21 C 0.5084(7) 0.5161(9) 0.2728(5)
C22 C 0.4509(7) 0.5388(9) 0.2913(6)
H20 H 0.4246 0.5848 0.2744
C23 C 0.4331(8) 0.4929(12) 0.3347(6)
H21 H 0.3951 0.5098 0.3489
C24 C 0.4694(9) 0.4222(11) 0.3583(6)
H22 H 0.4561 0.3902 0.3878
C25 C 0.5237(9) 0.4002(10) 0.3383(6)
H23 H 0.5487 0.3520 0.3541
C26 C 0.5441(8) 0.4460(10) 0.2956(6)
H24 H 0.5826 0.4291 0.2821
C27 C 0.7379(8) 0.5916(11) 0.1395(7)
H25 H 0.7094 0.6405 0.1314
C28 C 0.7925(8) 0.5871(11) 0.1109(6)
H26 H 0.8002 0.6308 0.0848
C29 C 0.8334(8) 0.5157(11) 0.1233(7)
C30 C 0.8206(8) 0.4542(11) 0.1620(7)
H27 H 0.8490 0.4058 0.1718
C31 C 0.7657(8) 0.4652(10) 0.1860(6)
H28 H 0.7566 0.4212 0.2115
N1 N 0.8865(6) 0.5054(9) 0.0929(5)
C32 C 0.9284(9) 0.5782(13) 0.0921(7)
C33 C 0.8904(9) 0.4286(12) 0.0607(7)
C34 C 0.9408(8) 0.3524(12) -0.0096(7)
H29 H 0.9136 0.3021 -0.0071
C35 C 0.9369(8) 0.4270(11) 0.0230(7)
C36 C 0.9776(7) 0.5010(11) 0.0186(7)
C37 C 0.9756(8) 0.5766(11) 0.0531(7)
C38 C 1.0138(8) 0.6471(12) 0.0466(7)
H30 H 1.0101 0.6991 0.0680
C39 C 0.5791(7) 0.4420(10) 0.0963(6)
H31 H 0.5757 0.4995 0.0796
C40 C 0.6086(7) 0.3538(10) 0.1699(6)
H32 H 0.6258 0.3487 0.2063
C41 C 0.5579(7) 0.3686(9) 0.0669(5)
H33 H 0.5386 0.3739 0.0310
C42 C 0.5905(8) 0.2796(10) 0.1441(6)
H34 H 0.5945 0.2229 0.1617
C43 C 0.5663(7) 0.2850(9) 0.0925(6)
N2 N 0.5448(5) 0.2039(7) 0.0626(4)
C44 C 0.4879(8) 0.1653(9) 0.0753(6)
C45 C 0.5812(8) 0.1746(10) 0.0241(6)
C46 C 0.4161(7) 0.0339(9) 0.0608(5)
H35 H 0.3898 0.0598 0.0850
C47 C 0.4701(7) 0.0779(9) 0.0494(5)
C48 C 0.5072(7) 0.0429(9) 0.0127(5)
C49 C 0.5649(7) 0.0862(9) -0.0012(5)
C50 C 0.6003(8) 0.0496(9) -0.0365(6)
H36 H 0.6370 0.0805 -0.0453
N3 N 0.7235(6) 0.5334(8) 0.1764(5)
N4 N 0.6045(5) 0.4372(7) 0.1477(5)
O1 O 0.9250(6) 0.6405(8) 0.1235(5)
O2 O 0.8512(6) 0.3687(9) 0.0637(5)
O3 O 0.6274(6) 0.2181(7) 0.0125(4)
O4 O 0.4582(5) 0.2001(6) 0.1077(4)
C27B C 1.2621(8) 0.4084(11) -0.1395(7)
H25B H 1.2906 0.3595 -0.1314
C28B C 1.2075(8) 0.4129(11) -0.1109(6)
H26B H 1.1998 0.3692 -0.0848
C29B C 1.1666(8) 0.4843(11) -0.1233(7)
C30B C 1.1794(8) 0.5458(11) -0.1620(7)
H27B H 1.1510 0.5942 -0.1718
C31B C 1.2343(8) 0.5348(10) -0.1860(6)
H28B H 1.2434 0.5788 -0.2115
N1B N 1.1135(6) 0.4946(9) -0.0929(5)
C32B C 1.0716(9) 0.4218(13) -0.0921(7)
C33B C 1.1096(9) 0.5714(12) -0.0607(7)
C34B C 1.0592(8) 0.6476(12) 0.0096(7)
H29B H 1.0864 0.6979 0.0071
C35B C 1.0631(8) 0.5730(11) -0.0230(7)
C36B C 1.0224(7) 0.4990(11) -0.0186(7)
C37B C 1.0244(8) 0.4234(11) -0.0531(7)
C38B C 0.9862(8) 0.3529(12) -0.0466(7)
H30B H 0.9899 0.3009 -0.0680
N3B N 1.2765(6) 0.4666(8) -0.1764(5)
O1B O 1.0750(6) 0.3595(8) -0.1235(5)
O2B O 1.1488(6) 0.6313(9) -0.0637(5)
C39B C 0.4209(7) -0.4420(10) -0.0963(6)
H31B H 0.4243 -0.4995 -0.0796
C40B C 0.3914(7) -0.3538(10) -0.1699(6)
H32B H 0.3742 -0.3487 -0.2063
C41B C 0.4421(7) -0.3686(9) -0.0669(5)
H33B H 0.4614 -0.3739 -0.0310
C42B C 0.4095(8) -0.2796(10) -0.1441(6)
H34B H 0.4055 -0.2229 -0.1617
C43B C 0.4337(7) -0.2850(9) -0.0925(6)
N2B N 0.4552(5) -0.2039(7) -0.0626(4)
C44B C 0.5121(8) -0.1653(9) -0.0753(6)
C45B C 0.4188(8) -0.1746(10) -0.0241(6)
C46B C 0.5839(7) -0.0339(9) -0.0608(5)
H35B H 0.6102 -0.0598 -0.0850
C47B C 0.5299(7) -0.0779(9) -0.0494(5)
C48B C 0.4928(7) -0.0429(9) -0.0127(5)
C49B C 0.4351(7) -0.0862(9) 0.0012(5)
C50B C 0.3997(8) -0.0496(9) 0.0365(6)
H36B H 0.3630 -0.0805 0.0453
N4B N 0.3955(5) -0.4372(7) -0.1477(5)
O3B O 0.3726(6) -0.2181(7) -0.0125(4)
O4B O 0.5418(5) -0.2001(6) -0.1077(4)
Pd1B Pd 0.36685(5) -0.54647(7) -0.19842(4)
P1B P 0.34050(19) -0.6564(2) -0.25906(15)
P2B P 0.46713(19) -0.5759(2) -0.21578(15)
C1B C 0.3007(7) -0.6116(11) -0.3211(6)
C2B C 0.2887(8) -0.5203(12) -0.3282(7)
H1B H 0.3001 -0.4792 -0.2998
C3B C 0.2604(8) -0.4898(12) -0.3760(8)
H2B H 0.2535 -0.4269 -0.3802
C4B C 0.2417(9) -0.5443(14) -0.4177(8)
H3B H 0.2216 -0.5206 -0.4505
C5B C 0.2529(9) -0.6377(14) -0.4113(7)
H4B H 0.2403 -0.6781 -0.4398
C6B C 0.2816(8) -0.6689(11) -0.3643(7)
H5B H 0.2891 -0.7318 -0.3603
C7B C 0.2874(8) -0.7407(10) -0.2376(6)
C8B C 0.2225(10) -0.7225(12) -0.2439(8)
H6B H 0.2071 -0.6683 -0.2608
C9B C 0.1799(11) -0.7844(17) -0.2253(11)
H7B H 0.1356 -0.7718 -0.2280
C10B C 0.2044(12) -0.8653(16) -0.2025(9)
H8B H 0.1760 -0.9098 -0.1920
C11B C 0.2664(11) -0.8805(12) -0.1954(8)
H9B H 0.2816 -0.9342 -0.1779
C12B C 0.3102(8) -0.8196(11) -0.2132(6)
H10B H 0.3545 -0.8322 -0.2085
C13B C 0.4140(7) -0.7123(9) -0.2746(5)
H11B H 0.4256 -0.6896 -0.3092
H12B H 0.4065 -0.7780 -0.2782
C14B C 0.4674(7) -0.6952(9) -0.2318(5)
H13B H 0.4617 -0.7314 -0.1997
H14B H 0.5084 -0.7122 -0.2445
C15B C 0.5261(7) -0.5531(9) -0.1611(6)
C16B C 0.5460(8) -0.6170(10) -0.1237(6)
H15B H 0.5318 -0.6774 -0.1289
C17B C 0.5856(8) -0.5955(11) -0.0789(7)
H16B H 0.5986 -0.6414 -0.0536
C18B C 0.6075(8) -0.5084(13) -0.0694(6)
H17B H 0.6356 -0.4940 -0.0383
C19B C 0.5870(8) -0.4425(10) -0.1069(7)
H18B H 0.5997 -0.3817 -0.1006
C20B C 0.5489(8) -0.4640(11) -0.1525(7)
H19B H 0.5375 -0.4189 -0.1786
C21B C 0.4916(7) -0.5161(9) -0.2728(5)
C22B C 0.5491(7) -0.5388(9) -0.2913(6)
H20B H 0.5754 -0.5848 -0.2744
C23B C 0.5669(8) -0.4929(12) -0.3347(6)
H21B H 0.6049 -0.5098 -0.3489
C24B C 0.5306(9) -0.4222(11) -0.3583(6)
H22B H 0.5439 -0.3902 -0.3878
C25B C 0.4763(9) -0.4002(10) -0.3383(6)
H23B H 0.4513 -0.3520 -0.3541
C26B C 0.4559(8) -0.4460(10) -0.2956(6)
H24B H 0.4174 -0.4291 -0.2821
Pd1B_2 Pd 1.36685(5) 0.45353(7) -0.19842(4)
N3B_2 N 0.2765(6) -0.5334(8) -0.1764(5)
S1 S 0.3188(2) 0.7499(3) 0.69850(18)
O5 O 0.2795(5) 0.6893(7) 0.7252(4)
O6 O 0.3238(7) 0.7301(8) 0.6431(5)
O7 O 0.3773(5) 0.7744(7) 0.7291(4)
C51 C 0.2719(12) 0.8553(14) 0.6962(12)
F1 F 0.2640(8) 0.8821(9) 0.7432(7)
F2 F 0.2189(6) 0.8451(11) 0.6651(7)
F3 F 0.3057(6) 0.9196(7) 0.6729(6)
S2 S 0.4100(2) 0.2891(2) 0.93917(16)
O8 O 0.3983(9) 0.3717(7) 0.9661(5)
O9 O 0.3972(5) 0.2930(7) 0.8825(4)
O10 O 0.4667(5) 0.2423(8) 0.9581(4)
C52 C 0.3473(10) 0.2167(13) 0.9595(8)
F4 F 0.2886(5) 0.2435(9) 0.9400(5)
F5 F 0.3503(5) 0.2109(7) 1.0124(4)
F6 F 0.3526(5) 0.1331(8) 0.9411(4)
C53 C 0.7523(13) 0.293(3) 0.9683(11)
H37 H 0.7725 0.3442 0.9519
H38 H 0.7427 0.3104 1.0041
H39 H 0.7128 0.2772 0.9461
C54 C 0.797(2) 0.214(3) 0.9724(12)
N5 N 0.833(2) 0.155(2) 0.9715(19)
O11 O 0.8385(8) 0.6098(18) 0.9869(8)
C55 C 0.8676(14) 0.637(3) 0.9399(11)
H40 H 0.8764 0.7024 0.9415
H41 H 0.9085 0.6049 0.9391
C56 C 0.8258(15) 0.617(3) 0.8917(10)
H42 H 0.8453 0.5706 0.8701
H43 H 0.8173 0.6714 0.8697
C57 C 0.7664(16) 0.582(3) 0.9099(13)
H44 H 0.7318 0.6268 0.9029
H45 H 0.7532 0.5254 0.8909
C58 C 0.7801(15) 0.566(2) 0.9668(12)
H46 H 0.7448 0.5890 0.9856
H47 H 0.7839 0.5002 0.9735
O12 O 0.812(2) 0.085(5) 0.105(5)
C59 C 0.8044(12) 0.169(3) 0.1339(16)
H48 H 0.8278 0.2188 0.1183
H49 H 0.8221 0.1621 0.1718
C60 C 0.7363(13) 0.1921(17) 0.1306(10)
H50 H 0.7250 0.2383 0.1028
H51 H 0.7253 0.2151 0.1654
C61 C 0.7023(9) 0.1057(15) 0.1164(8)
H52 H 0.6987 0.0676 0.1482
H53 H 0.6594 0.1160 0.0970
C62 C 0.747(2) 0.0673(16) 0.0813(13)
H54 H 0.7398 0.0015 0.0777
H55 H 0.7389 0.0946 0.0453
O13 O 0.9683(13) 0.515(2) 0.8407(12)
C63 C 0.921(2) 0.444(3) 0.8190(18)
H56 H 0.9353 0.3835 0.8319
H57 H 0.8786 0.4565 0.8296
C64 C 0.921(4) 0.451(5) 0.7601(16)
H58 H 0.8771 0.4572 0.7426
H59 H 0.9404 0.3965 0.7460
C65 C 0.959(3) 0.533(5) 0.749(2)
H60 H 0.9817 0.5229 0.7171
H61 H 0.9313 0.5859 0.7430
C66 C 1.006(2) 0.546(5) 0.797(2)
H62 H 1.0184 0.6106 0.8021
H63 H 1.0450 0.5095 0.7960
O14 O 0.9838(18) 0.871(3) 0.0862(19)
C67 C 0.9199(17) 0.866(3) 0.1072(12)
H64 H 0.9113 0.9225 0.1259
H65 H 0.9191 0.8152 0.1327
C68 C 0.8705(14) 0.852(3) 0.0593(14)
H66 H 0.8641 0.7867 0.0515
H67 H 0.8292 0.8790 0.0655
C69 C 0.899(2) 0.899(4) 0.0142(14)
H68 H 0.8906 0.8630 -0.0191
H69 H 0.8789 0.9588 0.0078
C70 C 0.969(2) 0.908(6) 0.030(2)
H70 H 0.9817 0.9723 0.0294
H71 H 0.9931 0.8744 0.0051
O15 O 0.965(5) 0.628(7) 0.397(3)
C71 C 0.924(4) 0.598(5) 0.348(4)
H72 H 0.9275 0.5315 0.3437
H73 H 0.8789 0.6128 0.3503
C72 C 0.947(6) 0.644(9) 0.300(3)
H74 H 0.9101 0.6655 0.2755
H75 H 0.9726 0.6029 0.2809
C73 C 0.986(6) 0.723(7) 0.323(3)
H76 H 1.0229 0.7325 0.3020
H77 H 0.9604 0.7787 0.3210
C74 C 1.009(3) 0.699(5) 0.380(3)
H78 H 1.0082 0.7532 0.4028
H79 H 1.0529 0.6758 0.3825
C75? C 1.116(3) 0.868(6) 0.166(3)
H80? H 1.1409 0.8333 0.1431
H81? H 1.1376 0.9250 0.1761
H82? H 1.0736 0.8807 0.1474
C76? C 1.108(2) 0.813(4) 0.218(5)
N6? N 1.075(5) 0.795(7) 0.222(5)
loop_
_geom_bond_atom_site_label_1
_geom_bond_atom_site_label_2
_geom_bond_site_symmetry_1
_geom_bond_site_symmetry_2
Pd1 P1 1_555 1_555
P1 C1 1_555 1_555
P2 Pd1 1_555 1_555
C1 C2 1_555 1_555
C2 H1 1_555 1_555
C3 C2 1_555 1_555
H2 C3 1_555 1_555
C4 C3 1_555 1_555
H3 C4 1_555 1_555
C5 C4 1_555 1_555
H4 C5 1_555 1_555
C6 C1 1_555 1_555
H5 C6 1_555 1_555
C7 P1 1_555 1_555
C8 C7 1_555 1_555
H6 C8 1_555 1_555
C9 C8 1_555 1_555
H7 C9 1_555 1_555
C10 C9 1_555 1_555
H8 C10 1_555 1_555
C11 C10 1_555 1_555
H9 C11 1_555 1_555
C12 C7 1_555 1_555
H10 C12 1_555 1_555
C13 P1 1_555 1_555
H11 C13 1_555 1_555
H12 C13 1_555 1_555
C14 P2 1_555 1_555
H13 C14 1_555 1_555
H14 C14 1_555 1_555
C15 P2 1_555 1_555
C16 C15 1_555 1_555
H15 C16 1_555 1_555
C17 C16 1_555 1_555
H16 C17 1_555 1_555
C18 C17 1_555 1_555
H17 C18 1_555 1_555
C19 C18 1_555 1_555
H18 C19 1_555 1_555
C20 C15 1_555 1_555
H19 C20 1_555 1_555
C21 P2 1_555 1_555
C22 C21 1_555 1_555
H20 C22 1_555 1_555
C23 C22 1_555 1_555
H21 C23 1_555 1_555
C24 C23 1_555 1_555
H22 C24 1_555 1_555
C25 C24 1_555 1_555
H23 C25 1_555 1_555
C26 C21 1_555 1_555
H24 C26 1_555 1_555
C27 H25 1_555 1_555
C28 C27 1_555 1_555
H26 C28 1_555 1_555
C29 C28 1_555 1_555
C30 C29 1_555 1_555
H27 C30 1_555 1_555
C31 C30 1_555 1_555
H28 C31 1_555 1_555
N1 C29 1_555 1_555
C32 N1 1_555 1_555
C33 N1 1_555 1_555
C34 H29 1_555 1_555
C35 C33 1_555 1_555
C36 C35 1_555 1_555
C37 C32 1_555 1_555
C38 C37 1_555 1_555
H30 C38 1_555 1_555
C39 H31 1_555 1_555
C40 H32 1_555 1_555
C41 C39 1_555 1_555
H33 C41 1_555 1_555
C42 C40 1_555 1_555
H34 C42 1_555 1_555
C43 C41 1_555 1_555
N2 C43 1_555 1_555
C44 N2 1_555 1_555
C45 N2 1_555 1_555
C46 H35 1_555 1_555
C47 C44 1_555 1_555
C48 C47 1_555 1_555
C49 C45 1_555 1_555
C50 C49 1_555 1_555
H36 C50 1_555 1_555
N3 Pd1 1_555 1_555
N4 Pd1 1_555 1_555
O1 C32 1_555 1_555
O2 C33 1_555 1_555
O3 C45 1_555 1_555
O4 C44 1_555 1_555
S1 O5 1_555 1_555
O6 S1 1_555 1_555
O7 S1 1_555 1_555
C51 S1 1_555 1_555
F1 C51 1_555 1_555
F2 C51 1_555 1_555
F3 C51 1_555 1_555
S2 O8 1_555 1_555
O9 S2 1_555 1_555
O10 S2 1_555 1_555
C52 S2 1_555 1_555
F4 C52 1_555 1_555
F5 C52 1_555 1_555
F6 C52 1_555 1_555
C53 H37 1_555 1_555
H38 C53 1_555 1_555
H39 C53 1_555 1_555
C54 C53 1_555 1_555
N5 C54 1_555 1_555
O11 C55 1_555 1_555
C55 H40 1_555 1_555
H41 C55 1_555 1_555
C56 C55 1_555 1_555
H42 C56 1_555 1_555
H43 C56 1_555 1_555
C57 C56 1_555 1_555
H44 C57 1_555 1_555
H45 C57 1_555 1_555
C58 O11 1_555 1_555
H46 C58 1_555 1_555
H47 C58 1_555 1_555
O12 C59 1_555 1_555
C59 H48 1_555 1_555
H49 C59 1_555 1_555
C60 C59 1_555 1_555
H50 C60 1_555 1_555
H51 C60 1_555 1_555
C61 C60 1_555 1_555
H52 C61 1_555 1_555
H53 C61 1_555 1_555
C62 O12 1_555 1_555
H54 C62 1_555 1_555
H55 C62 1_555 1_555
O13 C63 1_555 1_555
C63 H56 1_555 1_555
H57 C63 1_555 1_555
C64 C63 1_555 1_555
H58 C64 1_555 1_555
H59 C64 1_555 1_555
C65 C64 1_555 1_555
H60 C65 1_555 1_555
H61 C65 1_555 1_555
C66 O13 1_555 1_555
H62 C66 1_555 1_555
H63 C66 1_555 1_555
O14 C67 1_555 1_555
C67 H64 1_555 1_555
H65 C67 1_555 1_555
C68 C67 1_555 1_555
H66 C68 1_555 1_555
H67 C68 1_555 1_555
C69 C68 1_555 1_555
H68 C69 1_555 1_555
H69 C69 1_555 1_555
C70 O14 1_555 1_555
H70 C70 1_555 1_555
H71 C70 1_555 1_555
O15 C71 1_555 1_555
C71 H72 1_555 1_555
H73 C71 1_555 1_555
C72 C71 1_555 1_555
H74 C72 1_555 1_555
H75 C72 1_555 1_555
C73 C72 1_555 1_555
H76 C73 1_555 1_555
H77 C73 1_555 1_555
C74 O15 1_555 1_555
H78 C74 1_555 1_555
H79 C74 1_555 1_555
C27B H25B 1_555 1_555
C28B C27B 1_555 1_555
H26B C28B 1_555 1_555
C29B C28B 1_555 1_555
C30B C29B 1_555 1_555
H27B C30B 1_555 1_555
C31B C30B 1_555 1_555
H28B C31B 1_555 1_555
N1B C29B 1_555 1_555
C32B N1B 1_555 1_555
C33B N1B 1_555 1_555
C34B C38 1_555 1_555
H29B C34B 1_555 1_555
C35B C33B 1_555 1_555
C36B C36 1_555 1_555
C37B C32B 1_555 1_555
C38B C34 1_555 1_555
H30B C38B 1_555 1_555
N3B C27B 1_555 1_555
O1B C32B 1_555 1_555
O2B C33B 1_555 1_555
C39B H31B 1_555 1_555
C40B H32B 1_555 1_555
C41B C39B 1_555 1_555
H33B C41B 1_555 1_555
C42B C40B 1_555 1_555
H34B C42B 1_555 1_555
C43B C41B 1_555 1_555
N2B C43B 1_555 1_555
C44B N2B 1_555 1_555
C45B N2B 1_555 1_555
C46B C50 1_555 1_555
H35B C46B 1_555 1_555
C47B C44B 1_555 1_555
C48B C48 1_555 1_555
C49B C45B 1_555 1_555
C50B C46 1_555 1_555
H36B C50B 1_555 1_555
N4B C39B 1_555 1_555
O3B C45B 1_555 1_555
O4B C44B 1_555 1_555
Pd1B N4B 1_555 1_555
P1B Pd1B 1_555 1_555
P2B Pd1B 1_555 1_555
C1B P1B 1_555 1_555
C2B C1B 1_555 1_555
H1B C2B 1_555 1_555
C3B C2B 1_555 1_555
H2B C3B 1_555 1_555
C4B C3B 1_555 1_555
H3B C4B 1_555 1_555
C5B C4B 1_555 1_555
H4B C5B 1_555 1_555
C6B C1B 1_555 1_555
H5B C6B 1_555 1_555
C7B P1B 1_555 1_555
C8B C7B 1_555 1_555
H6B C8B 1_555 1_555
C9B C8B 1_555 1_555
H7B C9B 1_555 1_555
C10B C9B 1_555 1_555
H8B C10B 1_555 1_555
C11B C10B 1_555 1_555
H9B C11B 1_555 1_555
C12B C7B 1_555 1_555
H10B C12B 1_555 1_555
C13B P1B 1_555 1_555
H11B C13B 1_555 1_555
H12B C13B 1_555 1_555
C14B P2B 1_555 1_555
H13B C14B 1_555 1_555
H14B C14B 1_555 1_555
C15B P2B 1_555 1_555
C16B C15B 1_555 1_555
H15B C16B 1_555 1_555
C17B C16B 1_555 1_555
H16B C17B 1_555 1_555
C18B C17B 1_555 1_555
H17B C18B 1_555 1_555
C19B C18B 1_555 1_555
H18B C19B 1_555 1_555
C20B C15B 1_555 1_555
H19B C20B 1_555 1_555
C21B P2B 1_555 1_555
C22B C21B 1_555 1_555
H20B C22B 1_555 1_555
C23B C22B 1_555 1_555
H21B C23B 1_555 1_555
C24B C23B 1_555 1_555
H22B C24B 1_555 1_555
C25B C24B 1_555 1_555
H23B C25B 1_555 1_555
C26B C21B 1_555 1_555
H24B C26B 1_555 1_555
Pd1B_2 N3B 1_555 1_555
N3B_2 Pd1B 1_555 1_555
C5 C6 1_555 1_555
C11 C12 1_555 1_555
C13 C14 1_555 1_555
C19 C20 1_555 1_555
C25 C26 1_555 1_555
C27 N3 1_555 1_555
C31 N3 1_555 1_555
C34 C35 1_555 1_555
C36 C37 1_555 1_555
C39 N4 1_555 1_555
C40 N4 1_555 1_555
C42 C43 1_555 1_555
C46 C47 1_555 1_555
C48 C49 1_555 1_555
C57 C58 1_555 1_555
C61 C62 1_555 1_555
C65 C66 1_555 1_555
C69 C70 1_555 1_555
C73 C74 1_555 1_555
C31B N3B 1_555 1_555
C34B C35B 1_555 1_555
C35B C36B 1_555 1_555
C36B C37B 1_555 1_555
C37B C38B 1_555 1_555
C40B N4B 1_555 1_555
C42B C43B 1_555 1_555
C46B C47B 1_555 1_555
C47B C48B 1_555 1_555
C48B C49B 1_555 1_555
C49B C50B 1_555 1_555
C5B C6B 1_555 1_555
C11B C12B 1_555 1_555
C13B C14B 1_555 1_555
C19B C20B 1_555 1_555
C25B C26B 1_555 1_555

#END
