
#######################################################################
#
#                 Cambridge Crystallographic Data Centre
#                                CCDC 
#
#######################################################################
#
# If this CIF has been generated from an entry in the Cambridge 
# Structural Database, then it will include bibliographic, chemical, 
# crystal, experimental, refinement or atomic coordinate data resulting 
# from the CCDC's data processing and validation procedures.
#
#######################################################################

data_TIFYUD
_symmetry_cell_setting           monoclinic
_symmetry_space_group_name_H-M   'P 21/c'
_symmetry_Int_Tables_number      14
_space_group_name_Hall           '-P 2ybc'
loop_
_symmetry_equiv_pos_site_id
_symmetry_equiv_pos_as_xyz
1 x,y,z
2 -x,1/2+y,1/2-z
3 -x,-y,-z
4 x,1/2-y,1/2+z
_cell_length_a                   8.3118(7)
_cell_length_b                   8.8422(7)
_cell_length_c                   26.829(2)
_cell_angle_alpha                90
_cell_angle_beta                 98.1930(10)
_cell_angle_gamma                90
_cell_volume                     1951.66
loop_
_atom_site_label
_atom_site_type_symbol
_atom_site_fract_x
_atom_site_fract_y
_atom_site_fract_z
Cd1 Cd 0.70919(2) 0.48390(2) 0.546677(6)
S1 S 0.95499(18) 0.93208(14) 0.63347(4)
O1 O 0.7890(2) 0.5393(3) 0.46472(7)
O2 O 0.5646(2) 0.4085(2) 0.46208(6)
O3 O 0.9340(2) 0.3282(2) 0.54939(7)
H1 H 1.0209 0.3718 0.5490
N1 N 0.5713(2) 0.2399(2) 0.06768(6)
N2 N 0.7869(3) 0.0638(3) 0.14334(7)
N3 N 0.5485(3) 0.4793(3) 0.22597(8)
N4 N 0.8030(3) 0.7114(3) 0.57061(9)
C1 C 0.4633(3) 0.3307(3) 0.04010(9)
H2 H 0.4402 0.3137 0.0056
C2 C 0.3851(4) 0.4483(3) 0.06077(10)
H3 H 0.3110 0.5076 0.0401
C3 C 0.4157(4) 0.4792(3) 0.11212(10)
H4 H 0.3618 0.5562 0.1266
C4 C 0.5301(3) 0.3895(3) 0.14043(8)
C5 C 0.6003(3) 0.2731(3) 0.11655(8)
C6 C 0.7071(3) 0.1857(3) 0.15418(8)
C7 C 0.7030(3) 0.2487(3) 0.20194(8)
C8 C 0.7956(3) 0.1783(3) 0.24217(9)
H5 H 0.7994 0.2147 0.2748
C9 C 0.8828(4) 0.0508(3) 0.23184(10)
H6 H 0.9475 0.0012 0.2580
C10 C 0.8745(4) -0.0036(3) 0.18286(10)
H7 H 0.9324 -0.0906 0.1774
C11 C 0.5921(3) 0.3827(3) 0.19545(8)
C12 C 0.5947(3) 0.4675(3) 0.27888(9)
C13 C 0.7029(3) 0.5695(3) 0.30414(9)
H8 H 0.7547 0.6397 0.2861
C14 C 0.7345(3) 0.5677(3) 0.35641(9)
H9 H 0.8113 0.6333 0.3732
C15 C 0.6512(3) 0.4675(3) 0.38363(8)
C16 C 0.5414(3) 0.3666(3) 0.35808(9)
H10 H 0.4856 0.2996 0.3761
C17 C 0.5141(4) 0.3645(3) 0.30582(9)
H11 H 0.4423 0.2947 0.2889
C18 C 0.6715(3) 0.4716(3) 0.43996(9)
C19 C 0.8661(4) 0.8014(3) 0.59673(10)
C20 C 0.9307(4) 0.1948(4) 0.52030(14)
H12 H 0.8645 0.1203 0.5337
H13 H 1.0392 0.1566 0.5213
H14 H 0.8860 0.2169 0.4861
Cd1B Cd 0.29081(2) 0.51610(2) 0.453323(6)
Cd1C Cd 0.70919(2) 0.01610(2) 0.046677(6)
O2B O 0.4354(2) 0.5915(2) 0.53792(6)
N1C N 0.5713(2) 0.2601(2) 0.56768(6)
N2C N 0.7869(3) 0.4362(3) 0.64334(7)
loop_
_geom_bond_atom_site_label_1
_geom_bond_atom_site_label_2
_geom_bond_site_symmetry_1
_geom_bond_site_symmetry_2
Cd1 O1 1_555 1_555
S1 C19 1_555 1_555
O1 C18 1_555 1_555
O2 Cd1 1_555 1_555
O3 Cd1 1_555 1_555
H1 O3 1_555 1_555
N1 C1 1_555 1_555
N2 C6 1_555 1_555
N3 C11 1_555 1_555
N4 Cd1 1_555 1_555
C1 H2 1_555 1_555
C2 C1 1_555 1_555
H3 C2 1_555 1_555
C3 C2 1_555 1_555
H4 C3 1_555 1_555
C4 C3 1_555 1_555
C5 N1 1_555 1_555
C6 C5 1_555 1_555
C7 C6 1_555 1_555
C8 C7 1_555 1_555
H5 C8 1_555 1_555
C9 C8 1_555 1_555
H6 C9 1_555 1_555
C10 N2 1_555 1_555
H7 C10 1_555 1_555
C11 C4 1_555 1_555
C12 N3 1_555 1_555
C13 C12 1_555 1_555
H8 C13 1_555 1_555
C14 C13 1_555 1_555
H9 C14 1_555 1_555
C15 C14 1_555 1_555
C16 C15 1_555 1_555
H10 C16 1_555 1_555
C17 C12 1_555 1_555
H11 C17 1_555 1_555
C18 O2 1_555 1_555
C19 N4 1_555 1_555
C20 O3 1_555 1_555
H12 C20 1_555 1_555
H13 C20 1_555 1_555
H14 C20 1_555 1_555
Cd1B O2 1_555 1_555
Cd1C N1 1_555 1_555
O2B Cd1 1_555 1_555
N1C Cd1 1_555 1_555
N2C Cd1 1_555 1_555
N2 Cd1C 1_555 1_555
C4 C5 1_555 1_555
C7 C11 1_555 1_555
C9 C10 1_555 1_555
C15 C18 1_555 1_555
C16 C17 1_555 1_555
Cd1B O2B 1_555 1_555

#END
