
#######################################################################
#
#                 Cambridge Crystallographic Data Centre
#                                CCDC 
#
#######################################################################
#
# If this CIF has been generated from an entry in the Cambridge 
# Structural Database, then it will include bibliographic, chemical, 
# crystal, experimental, refinement or atomic coordinate data resulting 
# from the CCDC's data processing and validation procedures.
#
#######################################################################

data_TIGDOD
_symmetry_cell_setting           monoclinic
_symmetry_space_group_name_H-M   'C 2/c'
_symmetry_Int_Tables_number      15
_space_group_name_Hall           '-C 2yn'
loop_
_symmetry_equiv_pos_site_id
_symmetry_equiv_pos_as_xyz
1 x,y,z
2 1/2+x,1/2+y,z
3 -x,y,1/2-z
4 1/2-x,1/2+y,1/2-z
5 -x,-y,-z
6 1/2-x,1/2-y,-z
7 x,-y,1/2+z
8 1/2+x,1/2-y,1/2+z
_cell_length_a                   8.8488(8)
_cell_length_b                   21.5285(19)
_cell_length_c                   13.5042(11)
_cell_angle_alpha                90
_cell_angle_beta                 97.144(4)
_cell_angle_gamma                90
_cell_volume                     2552.6
loop_
_atom_site_label
_atom_site_type_symbol
_atom_site_fract_x
_atom_site_fract_y
_atom_site_fract_z
Zn1 Zn 0.0000 0.147618(6) 0.2500
O1 O -0.10470(8) 0.20659(3) 0.15521(5)
O2 O -0.21011(10) 0.12225(4) 0.07903(6)
N1 N 0.14390(8) 0.09472(4) 0.18136(6)
C1 C 0.28693(11) 0.11406(5) 0.17539(8)
H1 H 0.3217 0.1509 0.2096
C2 C 0.38538(11) 0.08249(5) 0.12157(8)
H2 H 0.4852 0.0980 0.1184
C3 C 0.33737(10) 0.02748(5) 0.07150(7)
C4 C 0.19073(11) 0.00652(5) 0.08083(8)
H3 H 0.1550 -0.0314 0.0504
C5 C 0.09708(11) 0.04145(5) 0.13489(8)
H4 H -0.0035 0.0272 0.1392
C6 C 0.43108(11) -0.00836(5) 0.00942(8)
H5 H 0.3902 -0.0460 -0.0191
C7 C -0.18907(11) 0.17920(4) 0.08416(7)
C8 C -0.26287(11) 0.22001(5) 0.00310(7)
H6 H -0.3330 0.2015 -0.0474
Zn1G Zn -0.5000 0.352382(6) -0.2500
Zn1F Zn 1.0000 -0.147618(6) -0.2500
O1E O -0.39530(8) 0.29341(3) -0.15521(5)
O1B O 0.10470(8) 0.20659(3) 0.34479(5)
O2E O -0.28989(10) 0.37775(4) -0.07903(6)
N1D N 0.85610(8) -0.09472(4) -0.18136(6)
N1B N -0.14390(8) 0.09472(4) 0.31864(6)
C1D C 0.71307(11) -0.11406(5) -0.17539(8)
H1D H 0.6783 -0.1509 -0.2096
C2D C 0.61462(11) -0.08249(5) -0.12157(8)
H2D H 0.5148 -0.0980 -0.1184
C3D C 0.66263(10) -0.02748(5) -0.07150(7)
C4D C 0.80927(11) -0.00652(5) -0.08083(8)
H3D H 0.8450 0.0314 -0.0504
C5D C 0.90292(11) -0.04145(5) -0.13489(8)
H4D H 1.0035 -0.0272 -0.1392
C6D C 0.56892(11) 0.00836(5) -0.00942(8)
H5D H 0.6098 0.0460 0.0191
C7E C -0.31093(11) 0.32080(4) -0.08416(7)
C8E C -0.23713(11) 0.27999(5) -0.00310(7)
H6E H -0.1670 0.2985 0.0474
loop_
_geom_bond_atom_site_label_1
_geom_bond_atom_site_label_2
_geom_bond_site_symmetry_1
_geom_bond_site_symmetry_2
Zn1 O1 1_555 1_555
O1 C7 1_555 1_555
O2 C7 1_555 1_555
N1 Zn1 1_555 1_555
C1 N1 1_555 1_555
H1 C1 1_555 1_555
C2 C1 1_555 1_555
H2 C2 1_555 1_555
C3 C2 1_555 1_555
C4 C3 1_555 1_555
H3 C4 1_555 1_555
C5 N1 1_555 1_555
H4 C5 1_555 1_555
C6 C3 1_555 1_555
H5 C6 1_555 1_555
C7 C8 1_555 1_555
C8 H6 1_555 1_555
Zn1G O1E 1_555 1_555
Zn1F N1D 1_555 1_555
O1E C7E 1_555 1_555
O1B Zn1 1_555 1_555
O2E C7E 1_555 1_555
N1D C1D 1_555 1_555
N1B Zn1 1_555 1_555
C1D H1D 1_555 1_555
C2D C1D 1_555 1_555
H2D C2D 1_555 1_555
C3D C2D 1_555 1_555
C4D C3D 1_555 1_555
H3D C4D 1_555 1_555
C5D N1D 1_555 1_555
H4D C5D 1_555 1_555
C6D C6 1_555 1_555
H5D C6D 1_555 1_555
C7E C8E 1_555 1_555
C8E C8 1_555 1_555
H6E C8E 1_555 1_555
C4 C5 1_555 1_555
C3D C6D 1_555 1_555
C4D C5D 1_555 1_555

#END
