
#######################################################################
#
#                 Cambridge Crystallographic Data Centre
#                                CCDC 
#
#######################################################################
#
# If this CIF has been generated from an entry in the Cambridge 
# Structural Database, then it will include bibliographic, chemical, 
# crystal, experimental, refinement or atomic coordinate data resulting 
# from the CCDC's data processing and validation procedures.
#
#######################################################################

data_TIGDIX
_symmetry_cell_setting           monoclinic
_symmetry_space_group_name_H-M   'P 21/n'
_symmetry_Int_Tables_number      14
_space_group_name_Hall           '-P 2yn'
loop_
_symmetry_equiv_pos_site_id
_symmetry_equiv_pos_as_xyz
1 x,y,z
2 1/2-x,1/2+y,1/2-z
3 -x,-y,-z
4 1/2+x,1/2-y,1/2+z
_cell_length_a                   10.8424(2)
_cell_length_b                   14.3465(3)
_cell_length_c                   11.1929(2)
_cell_angle_alpha                90
_cell_angle_beta                 108.7410(10)
_cell_angle_gamma                90
_cell_volume                     1648.75
loop_
_atom_site_label
_atom_site_type_symbol
_atom_site_fract_x
_atom_site_fract_y
_atom_site_fract_z
Cu1 Cu 0.53837(2) 0.371184(17) 0.64815(2)
O1 O 0.35686(13) 0.37764(9) 0.64009(13)
O2 O 0.27817(13) 0.40992(10) 0.43389(12)
O3 O -0.35170(13) 0.37559(10) 0.45053(13)
O4 O -0.27850(13) 0.36803(9) 0.66048(13)
O5 O 0.59539(14) 0.34997(10) 0.86385(13)
O6 O 0.55072(14) 0.50852(10) 0.65718(13)
H1 H 0.6064(19) 0.5313(18) 0.629(2)
H2 H 0.4812(15) 0.5389(15) 0.625(2)
N1 N 0.52007(16) 0.23600(12) 0.59914(15)
N2 N 0.5139(2) 0.37178(13) 1.02550(16)
C1 C 0.6080(2) 0.17317(15) 0.66171(18)
H3 H 0.6770 0.1931 0.7336
C2 C 0.6031(2) 0.08068(15) 0.62679(18)
H4 H 0.6676 0.0384 0.6747
C3 C 0.50411(19) 0.04921(14) 0.52162(17)
C4 C 0.4123(2) 0.11503(14) 0.45831(19)
H5 H 0.3416 0.0972 0.3866
C5 C 0.4237(2) 0.20588(15) 0.49936(19)
H6 H 0.3596 0.2494 0.4543
C6 C 0.26399(19) 0.39180(13) 0.53743(18)
C7 C 0.12944(18) 0.38330(13) 0.54406(18)
C8 C 0.02418(19) 0.39287(14) 0.43468(18)
H7 H 0.0387 0.4034 0.3565
C9 C -0.10098(19) 0.38726(14) 0.43854(18)
H8 H -0.1722 0.3932 0.3628
C10 C -0.12433(19) 0.37297(13) 0.55176(18)
C11 C -0.0189(2) 0.36227(15) 0.66153(19)
H9 H -0.0335 0.3517 0.7397
C12 C 0.1059(2) 0.36693(15) 0.65759(19)
H10 H 0.1771 0.3589 0.7330
C13 C -0.26200(19) 0.37214(13) 0.55229(19)
C14 C 0.5048(2) 0.35112(15) 0.90772(19)
H11 H 0.4208 0.3358 0.8520
C15 C 0.4001(3) 0.37555(17) 1.0660(2)
H12 H 0.3244 0.3522 0.9984
H13 H 0.3844 0.4401 1.0856
H14 H 0.4145 0.3368 1.1414
C16 C 0.6383(3) 0.3923(2) 1.1183(2)
H15 H 0.7072 0.3867 1.0796
H16 H 0.6548 0.3483 1.1887
H17 H 0.6373 0.4560 1.1497
Cu1_2 Cu 1.53837(2) 0.371184(17) 0.64815(2)
Cu1_3 Cu -0.46163(2) 0.371184(17) 0.64815(2)
Cu1B Cu 0.46163(2) -0.371184(17) 0.35185(2)
O1_2 O 1.35686(13) 0.37764(9) 0.64009(13)
O2_2 O 1.27817(13) 0.40992(10) 0.43389(12)
O3_2 O 0.64830(13) 0.37559(10) 0.45053(13)
O4_2 O 0.72150(13) 0.36803(9) 0.66048(13)
O4_3 O 1.72150(13) 0.36803(9) 0.66048(13)
O5_2 O 1.59539(14) 0.34997(10) 0.86385(13)
O6_2 O 1.55072(14) 0.50852(10) 0.65718(13)
H1_2 H 1.6064(19) 0.5313(18) 0.629(2)
H2_2 H 1.4812(15) 0.5389(15) 0.625(2)
N1B N 0.47993(16) -0.23600(12) 0.40086(15)
N1_2 N 1.52007(16) 0.23600(12) 0.59914(15)
N2_2 N 1.5139(2) 0.37178(13) 1.02550(16)
C1B C 0.3920(2) -0.17317(15) 0.33829(18)
H3B H 0.3230 -0.1931 0.2664
C2B C 0.3969(2) -0.08068(15) 0.37321(18)
H4B H 0.3324 -0.0384 0.3253
C3B C 0.49589(19) -0.04921(14) 0.47838(17)
C4B C 0.5877(2) -0.11503(14) 0.54169(19)
H5B H 0.6584 -0.0972 0.6134
C5B C 0.5763(2) -0.20588(15) 0.50064(19)
H6B H 0.6404 -0.2494 0.5457
C6_2 C 1.26399(19) 0.39180(13) 0.53743(18)
C7_2 C 1.12944(18) 0.38330(13) 0.54406(18)
C8_2 C 1.02418(19) 0.39287(14) 0.43468(18)
H7_2 H 1.0387 0.4034 0.3565
C9_2 C 0.89902(19) 0.38726(14) 0.43854(18)
H8_2 H 0.8278 0.3932 0.3628
C10_2 C 0.87567(19) 0.37297(13) 0.55176(18)
C11_2 C 0.9811(2) 0.36227(15) 0.66153(19)
H9_2 H 0.9665 0.3517 0.7397
C12_2 C 1.1059(2) 0.36693(15) 0.65759(19)
H10_2 H 1.1771 0.3589 0.7330
C13_2 C 0.73800(19) 0.37214(13) 0.55229(19)
C14_2 C 1.5048(2) 0.35112(15) 0.90772(19)
H11_2 H 1.4208 0.3358 0.8520
C15_2 C 1.4001(3) 0.37555(17) 1.0660(2)
H12_2 H 1.3244 0.3522 0.9984
H13_2 H 1.3844 0.4401 1.0856
H14_2 H 1.4145 0.3368 1.1414
C16_2 C 1.6383(3) 0.3923(2) 1.1183(2)
H15_2 H 1.7072 0.3867 1.0796
H16_2 H 1.6548 0.3483 1.1887
H17_2 H 1.6373 0.4560 1.1497
loop_
_geom_bond_atom_site_label_1
_geom_bond_atom_site_label_2
_geom_bond_site_symmetry_1
_geom_bond_site_symmetry_2
Cu1 O1 1_555 1_555
O1 C6 1_555 1_555
O2 C6 1_555 1_555
O3 C13 1_555 1_555
O4 C13 1_555 1_555
O5 Cu1 1_555 1_555
O6 Cu1 1_555 1_555
H1 O6 1_555 1_555
H2 O6 1_555 1_555
N1 Cu1 1_555 1_555
N2 C14 1_555 1_555
C1 N1 1_555 1_555
H3 C1 1_555 1_555
C2 C1 1_555 1_555
H4 C2 1_555 1_555
C3 C2 1_555 1_555
C4 C3 1_555 1_555
H5 C4 1_555 1_555
C5 N1 1_555 1_555
H6 C5 1_555 1_555
C6 C7 1_555 1_555
C7 C8 1_555 1_555
C8 H7 1_555 1_555
C9 C8 1_555 1_555
H8 C9 1_555 1_555
C10 C9 1_555 1_555
C11 C10 1_555 1_555
H9 C11 1_555 1_555
C12 C7 1_555 1_555
H10 C12 1_555 1_555
C13 C10 1_555 1_555
C14 O5 1_555 1_555
H11 C14 1_555 1_555
C15 N2 1_555 1_555
H12 C15 1_555 1_555
H13 C15 1_555 1_555
H14 C15 1_555 1_555
C16 N2 1_555 1_555
H15 C16 1_555 1_555
H16 C16 1_555 1_555
H17 C16 1_555 1_555
Cu1_2 O1_2 1_555 1_555
Cu1_3 O4 1_555 1_555
Cu1B N1B 1_555 1_555
O1_2 C6_2 1_555 1_555
O2_2 C6_2 1_555 1_555
O3_2 C13_2 1_555 1_555
O4_2 Cu1 1_555 1_555
O4_3 Cu1_2 1_555 1_555
O5_2 Cu1_2 1_555 1_555
O6_2 Cu1_2 1_555 1_555
H1_2 O6_2 1_555 1_555
H2_2 O6_2 1_555 1_555
N1B C1B 1_555 1_555
N1_2 Cu1_2 1_555 1_555
N2_2 C14_2 1_555 1_555
C1B H3B 1_555 1_555
C2B C1B 1_555 1_555
H4B C2B 1_555 1_555
C3B C3 1_555 1_555
C4B C3B 1_555 1_555
H5B C4B 1_555 1_555
C5B N1B 1_555 1_555
H6B C5B 1_555 1_555
C6_2 C7_2 1_555 1_555
C7_2 C8_2 1_555 1_555
C8_2 H7_2 1_555 1_555
C9_2 C8_2 1_555 1_555
H8_2 C9_2 1_555 1_555
C10_2 C9_2 1_555 1_555
C11_2 C10_2 1_555 1_555
H9_2 C11_2 1_555 1_555
C12_2 C7_2 1_555 1_555
H10_2 C12_2 1_555 1_555
C13_2 O4_2 1_555 1_555
C14_2 O5_2 1_555 1_555
H11_2 C14_2 1_555 1_555
C15_2 N2_2 1_555 1_555
H12_2 C15_2 1_555 1_555
H13_2 C15_2 1_555 1_555
H14_2 C15_2 1_555 1_555
C16_2 N2_2 1_555 1_555
H15_2 C16_2 1_555 1_555
H16_2 C16_2 1_555 1_555
H17_2 C16_2 1_555 1_555
C4 C5 1_555 1_555
C11 C12 1_555 1_555
C2B C3B 1_555 1_555
C4B C5B 1_555 1_555
C10_2 C13_2 1_555 1_555
C11_2 C12_2 1_555 1_555

#END
