
#######################################################################
#
#                 Cambridge Crystallographic Data Centre
#                                CCDC 
#
#######################################################################
#
# If this CIF has been generated from an entry in the Cambridge 
# Structural Database, then it will include bibliographic, chemical, 
# crystal, experimental, refinement or atomic coordinate data resulting 
# from the CCDC's data processing and validation procedures.
#
#######################################################################

data_TIGDOE
_symmetry_cell_setting           triclinic
_symmetry_space_group_name_H-M   'P -1'
_symmetry_Int_Tables_number      2
_space_group_name_Hall           '-P 1'
loop_
_symmetry_equiv_pos_site_id
_symmetry_equiv_pos_as_xyz
1 x,y,z
2 -x,-y,-z
_cell_length_a                   10.1704(15)
_cell_length_b                   10.2712(15)
_cell_length_c                   12.253(3)
_cell_angle_alpha                104.949(2)
_cell_angle_beta                 91.541(2)
_cell_angle_gamma                118.753(2)
_cell_volume                     1066.82
loop_
_atom_site_label
_atom_site_type_symbol
_atom_site_fract_x
_atom_site_fract_y
_atom_site_fract_z
Cd1 Cd 0.25647(3) 0.95794(3) 0.10549(2)
N1 N 0.2114(4) 0.9817(4) 0.2941(3)
N2 N -0.0942(4) 0.5618(4) 0.3672(3)
H1 H -0.0846 0.5438 0.2962
N3 N -0.0595(4) 0.6940(4) 0.5511(3)
O1 O 0.4298(3) 0.2090(3) 0.1398(3)
O2 O 0.2121(3) 0.1974(3) 0.0974(2)
O3 O 0.4604(3) 0.9183(3) 0.1390(2)
O4 O 0.2368(3) 0.7035(3) 0.0951(2)
O5 O 0.2595(3) 0.8928(3) -0.0868(2)
O6 O -0.0076(4) 0.8127(6) 0.0559(4)
C1 C 0.2801(5) 1.1164(5) 0.3795(3)
H2 H 0.3462 1.2076 0.3633
C2 C 0.2566(5) 1.1253(5) 0.4910(4)
H3 H 0.3057 1.2211 0.5485
C3 C 0.1602(5) 0.9913(5) 0.5162(3)
H4 H 0.1443 0.9955 0.5912
C4 C 0.0864(4) 0.8491(5) 0.4288(3)
C5 C 0.1158(4) 0.8505(5) 0.3183(3)
C6 C -0.0208(4) 0.7030(5) 0.4504(3)
C7 C -0.1867(4) 0.4531(5) 0.4182(3)
C8 C -0.2847(5) 0.2933(5) 0.3759(4)
H5 H -0.2994 0.2383 0.2991
C9 C -0.3593(5) 0.2197(6) 0.4527(4)
H6 H -0.4260 0.1123 0.4271
C10 C -0.3378(5) 0.3014(6) 0.5678(4)
H7 H -0.3901 0.2474 0.6173
C11 C -0.2416(5) 0.4591(6) 0.6095(4)
H8 H -0.2275 0.5133 0.6864
C12 C -0.1648(4) 0.5367(5) 0.5323(3)
C13 C 0.3798(4) 0.7735(4) 0.1232(3)
C14 C 0.4571(4) 0.6859(4) 0.1401(3)
C15 C 0.3725(4) 0.5247(4) 0.1213(3)
H9 H 0.2677 0.4709 0.0961
C16 C 0.4439(4) 0.4451(4) 0.1400(3)
C17 C 0.6005(4) 0.5251(4) 0.1770(3)
H10 H 0.6488 0.4712 0.1882
C18 C 0.6850(4) 0.6850(4) 0.1974(4)
H11 H 0.7897 0.7387 0.2231
C19 C 0.6129(4) 0.7641(4) 0.1791(3)
H12 H 0.6697 0.8716 0.1933
C20 C 0.3558(4) 0.2726(4) 0.1239(3)
Cd1_2 Cd 0.25647(3) -0.04206(3) 0.10549(2)
O1_2 O 0.4298(3) 1.2090(3) 0.1398(3)
O2_2 O 0.2121(3) 1.1974(3) 0.0974(2)
O7 O 0.9578(5) 0.4804(5) 0.1367(3)
O8 O 0.9640(3) 0.1100(4) 0.2197(2)
loop_
_geom_bond_atom_site_label_1
_geom_bond_atom_site_label_2
_geom_bond_site_symmetry_1
_geom_bond_site_symmetry_2
Cd1 N1 1_555 1_555
N1 C1 1_555 1_555
N2 H1 1_555 1_555
N3 C6 1_555 1_555
O1 C20 1_555 1_555
O2 C20 1_555 1_555
O3 Cd1 1_555 1_555
O4 Cd1 1_555 1_555
O5 Cd1 1_555 1_555
O6 Cd1 1_555 1_555
C1 H2 1_555 1_555
C2 C1 1_555 1_555
H3 C2 1_555 1_555
C3 C2 1_555 1_555
H4 C3 1_555 1_555
C4 C3 1_555 1_555
C5 N1 1_555 1_555
C6 N2 1_555 1_555
C7 N2 1_555 1_555
C8 C7 1_555 1_555
H5 C8 1_555 1_555
C9 C8 1_555 1_555
H6 C9 1_555 1_555
C10 C9 1_555 1_555
H7 C10 1_555 1_555
C11 C10 1_555 1_555
H8 C11 1_555 1_555
C12 N3 1_555 1_555
C13 O3 1_555 1_555
C14 C13 1_555 1_555
C15 C14 1_555 1_555
H9 C15 1_555 1_555
C16 C15 1_555 1_555
C17 C16 1_555 1_555
H10 C17 1_555 1_555
C18 C17 1_555 1_555
H11 C18 1_555 1_555
C19 C14 1_555 1_555
H12 C19 1_555 1_555
C20 C16 1_555 1_555
Cd1_2 O1 1_555 1_555
O1_2 Cd1 1_555 1_555
O2_2 Cd1 1_555 1_555
O2 Cd1_2 1_555 1_555
O4 C13 1_555 1_555
C4 C5 1_555 1_555
C4 C6 1_555 1_555
C7 C12 1_555 1_555
C11 C12 1_555 1_555
C18 C19 1_555 1_555

#END
