
#######################################################################
#
#                 Cambridge Crystallographic Data Centre
#                                CCDC 
#
#######################################################################
#
# If this CIF has been generated from an entry in the Cambridge 
# Structural Database, then it will include bibliographic, chemical, 
# crystal, experimental, refinement or atomic coordinate data resulting 
# from the CCDC's data processing and validation procedures.
#
#######################################################################

data_TIGDIY
_symmetry_cell_setting           triclinic
_symmetry_space_group_name_H-M   'P -1'
_symmetry_Int_Tables_number      2
_space_group_name_Hall           '-P 1'
loop_
_symmetry_equiv_pos_site_id
_symmetry_equiv_pos_as_xyz
1 x,y,z
2 -x,-y,-z
_cell_length_a                   10.192(4)
_cell_length_b                   10.568(5)
_cell_length_c                   15.332(7)
_cell_angle_alpha                89.610(7)
_cell_angle_beta                 85.023(7)
_cell_angle_gamma                65.627(19)
_cell_volume                     1497.78
loop_
_atom_site_label
_atom_site_type_symbol
_atom_site_fract_x
_atom_site_fract_y
_atom_site_fract_z
Zn1 Zn 0.19561(6) 0.94962(7) 0.24293(4)
O1 O 0.2970(4) 1.0713(4) 0.2432(3)
O2 O 0.5000(4) 0.8777(4) 0.2291(3)
O3 O 0.9686(4) 0.8860(4) 0.2501(3)
O4 O 0.9909(4) 1.0838(4) 0.2559(3)
N1 N 0.2583(4) 0.8315(5) 0.1278(3)
N2 N 0.1466(5) 0.4916(5) 0.1001(3)
N3 N 0.2687(5) 0.4293(5) -0.0314(3)
H1 H 0.3216 0.4307 -0.0777
N4 N 0.2555(5) 0.8257(5) 0.3498(3)
N5 N 0.1456(5) 0.4784(5) 0.3967(3)
H2 H 0.1088 0.5213 0.3511
N6 N 0.2684(6) 0.4266(5) 0.5134(3)
C1 C 0.4338(5) 1.0056(6) 0.2391(3)
C2 C 0.5200(5) 1.0898(5) 0.2484(3)
C3 C 0.4555(6) 1.2342(5) 0.2563(4)
H3 H 0.3557 1.2819 0.2562
C4 C 0.5406(6) 1.3063(6) 0.2641(4)
H4 H 0.4970 1.4028 0.2696
C5 C 0.6887(6) 1.2381(6) 0.2641(4)
H5 H 0.7445 1.2881 0.2691
C6 C 0.7544(5) 1.0923(5) 0.2563(3)
C7 C 0.6689(5) 1.0219(5) 0.2508(3)
H6 H 0.7119 0.9252 0.2486
C8 C 0.9134(5) 1.0154(6) 0.2545(3)
C9 C 0.3370(6) 0.8596(6) 0.0623(4)
H7 H 0.3603 0.9351 0.0685
C10 C 0.3844(7) 0.7790(7) -0.0145(4)
H8 H 0.4369 0.8024 -0.0595
C11 C 0.3545(7) 0.6652(7) -0.0245(4)
H9 H 0.3881 0.6092 -0.0752
C12 C 0.2719(6) 0.6355(6) 0.0438(4)
C13 C 0.2266(6) 0.7219(6) 0.1179(4)
H10 H 0.1713 0.7028 0.1632
C14 C 0.2303(6) 0.5175(6) 0.0384(4)
C15 C 0.1301(6) 0.3768(6) 0.0672(4)
C16 C 0.0511(7) 0.3046(7) 0.1026(4)
H11 H -0.0001 0.3292 0.1576
C17 C 0.0514(8) 0.1959(7) 0.0536(5)
H12 H -0.0007 0.1466 0.0759
C18 C 0.1286(8) 0.1578(7) -0.0293(4)
H13 H 0.1266 0.0842 -0.0612
C19 C 0.2073(7) 0.2284(6) -0.0638(4)
H14 H 0.2595 0.2032 -0.1185
C20 C 0.2063(6) 0.3376(6) -0.0148(4)
C21 C 0.3317(6) 0.8535(6) 0.4072(4)
H15 H 0.3553 0.9290 0.3981
C22 C 0.3773(7) 0.7738(7) 0.4803(4)
H16 H 0.4292 0.7965 0.5197
C23 C 0.3448(7) 0.6618(7) 0.4934(4)
H17 H 0.3756 0.6069 0.5416
C24 C 0.2655(6) 0.6297(6) 0.4347(4)
C25 C 0.2229(6) 0.7156(6) 0.3646(4)
H18 H 0.1685 0.6964 0.3253
C26 C 0.2266(6) 0.5118(6) 0.4490(4)
C27 C 0.2111(6) 0.3315(6) 0.5047(4)
C28 C 0.2180(8) 0.2193(7) 0.5564(4)
H19 H 0.2698 0.1974 0.6055
C29 C 0.1456(8) 0.1431(7) 0.5319(4)
H20 H 0.1481 0.0689 0.5658
C30 C 0.0685(7) 0.1722(7) 0.4583(5)
H21 H 0.0209 0.1176 0.4443
C31 C 0.0615(7) 0.2817(6) 0.4053(4)
H22 H 0.0122 0.3003 0.3552
C32 C 0.1315(6) 0.3622(6) 0.4308(4)
Zn1_2 Zn 1.19561(6) 0.94962(7) 0.24293(4)
O4_2 O -0.0091(4) 1.0838(4) 0.2559(3)
O5 O 0.0156(4) 0.3839(4) 0.7454(2)
O6 O 0.5611(4) 0.6025(4) 0.1901(3)
O7 O 0.7718(5) 0.5146(5) 0.3017(3)
H23? H 0.3259 0.4258 0.5502
loop_
_geom_bond_atom_site_label_1
_geom_bond_atom_site_label_2
_geom_bond_site_symmetry_1
_geom_bond_site_symmetry_2
Zn1 O1 1_555 1_555
O1 C1 1_555 1_555
O2 C1 1_555 1_555
O3 C8 1_555 1_555
O4 C8 1_555 1_555
N1 Zn1 1_555 1_555
N2 C14 1_555 1_555
N3 H1 1_555 1_555
N4 Zn1 1_555 1_555
N5 H2 1_555 1_555
N6 C26 1_555 1_555
C1 C2 1_555 1_555
C2 C3 1_555 1_555
C3 H3 1_555 1_555
C4 C3 1_555 1_555
H4 C4 1_555 1_555
C5 C4 1_555 1_555
H5 C5 1_555 1_555
C6 C5 1_555 1_555
C7 C2 1_555 1_555
H6 C7 1_555 1_555
C8 C6 1_555 1_555
C9 N1 1_555 1_555
H7 C9 1_555 1_555
C10 C9 1_555 1_555
H8 C10 1_555 1_555
C11 C10 1_555 1_555
H9 C11 1_555 1_555
C12 C11 1_555 1_555
C13 N1 1_555 1_555
H10 C13 1_555 1_555
C14 N3 1_555 1_555
C15 N2 1_555 1_555
C16 C15 1_555 1_555
H11 C16 1_555 1_555
C17 C16 1_555 1_555
H12 C17 1_555 1_555
C18 C17 1_555 1_555
H13 C18 1_555 1_555
C19 C18 1_555 1_555
H14 C19 1_555 1_555
C20 N3 1_555 1_555
C21 N4 1_555 1_555
H15 C21 1_555 1_555
C22 C21 1_555 1_555
H16 C22 1_555 1_555
C23 C22 1_555 1_555
H17 C23 1_555 1_555
C24 C23 1_555 1_555
C25 N4 1_555 1_555
H18 C25 1_555 1_555
C26 N5 1_555 1_555
C27 N6 1_555 1_555
C28 C27 1_555 1_555
H19 C28 1_555 1_555
C29 C28 1_555 1_555
H20 C29 1_555 1_555
C30 C29 1_555 1_555
H21 C30 1_555 1_555
C31 C30 1_555 1_555
H22 C31 1_555 1_555
C32 N5 1_555 1_555
Zn1_2 O4 1_555 1_555
O4_2 Zn1 1_555 1_555
C6 C7 1_555 1_555
C12 C13 1_555 1_555
C12 C14 1_555 1_555
C15 C20 1_555 1_555
C19 C20 1_555 1_555
C24 C25 1_555 1_555
C24 C26 1_555 1_555
C27 C32 1_555 1_555
C31 C32 1_555 1_555

#END
