
#######################################################################
#
#                 Cambridge Crystallographic Data Centre
#                                CCDC 
#
#######################################################################
#
# If this CIF has been generated from an entry in the Cambridge 
# Structural Database, then it will include bibliographic, chemical, 
# crystal, experimental, refinement or atomic coordinate data resulting 
# from the CCDC's data processing and validation procedures.
#
#######################################################################

data_TIGGAS
_symmetry_cell_setting           monoclinic
_symmetry_space_group_name_H-M   'P 21/n'
_symmetry_Int_Tables_number      14
_space_group_name_Hall           '-P 2yn'
loop_
_symmetry_equiv_pos_site_id
_symmetry_equiv_pos_as_xyz
1 x,y,z
2 1/2-x,1/2+y,1/2-z
3 -x,-y,-z
4 1/2+x,1/2-y,1/2+z
_cell_length_a                   9.1784(11)
_cell_length_b                   13.2446(16)
_cell_length_c                   11.9536(14)
_cell_angle_alpha                90
_cell_angle_beta                 91.550(2)
_cell_angle_gamma                90
_cell_volume                     1452.6
loop_
_atom_site_label
_atom_site_type_symbol
_atom_site_fract_x
_atom_site_fract_y
_atom_site_fract_z
Mn1 Mn 0.5000 1.0000 0.0000
Ag1 Ag -0.741170(19) 0.836660(14) 0.634520(15)
N1 N 0.6379(2) 1.03594(16) 0.14932(17)
N2 N 0.4096(2) 1.15716(14) -0.00741(19)
N3 N 0.3127(2) 0.95122(16) 0.11267(16)
N4 N -0.4954(2) 0.84446(18) 0.5562(2)
C1 C 0.6871(2) 1.07260(18) 0.2271(2)
C2 C 0.3545(2) 1.22646(18) -0.0448(2)
C3 C 0.3207(3) 0.8754(2) 0.1835(3)
H1 H 0.4106 0.8441 0.1948
C4 C 0.2044(3) 0.8393(2) 0.2424(3)
H2 H 0.2169 0.7844 0.2902
C5 C 0.0705(3) 0.8843(2) 0.2303(2)
C6 C 0.0629(3) 0.9656(2) 0.1596(3)
H3 H -0.0246 1.0003 0.1497
C7 C 0.1837(3) 0.9963(2) 0.1029(3)
H4 H 0.1745 1.0516 0.0553
C8 C -0.0620(3) 0.8473(2) 0.2895(2)
H5 H -0.0505 0.7760 0.3059
H6 H -0.1469 0.8550 0.2401
C9 C -0.0876(2) 0.90353(18) 0.3971(2)
H7 H -0.0852 0.9754 0.3817
H8 H -0.0078 0.8887 0.4494
C10 C -0.4551(3) 0.7921(3) 0.4693(3)
H9 H -0.5174 0.7420 0.4420
C11 C -0.3253(3) 0.8073(3) 0.4160(3)
H10 H -0.3032 0.7680 0.3543
C12 C -0.2292(2) 0.87926(19) 0.4528(2)
C13 C -0.2709(3) 0.9332(3) 0.5439(3)
H11 H -0.2104 0.9837 0.5730
C14 C -0.4017(4) 0.9134(3) 0.5928(3)
H12 H -0.4257 0.9508 0.6556
Ag1B Ag 1.741170(19) 1.163340(14) -0.634520(15)
Ag1B_2 Ag 0.741170(19) 1.163340(14) 0.365480(15)
Ag1A Ag 0.241170(19) 1.336660(14) -0.134520(15)
Ag1_2 Ag 0.258830(19) 0.836660(14) -0.365480(15)
Ag1C Ag 0.758830(19) 0.663340(14) 0.134520(15)
N1B N 0.3621(2) 0.96406(16) -0.14932(17)
N2B N 0.5904(2) 0.84284(14) 0.00741(19)
N3B N 0.6873(2) 1.04878(16) -0.11267(16)
N4B N 1.4954(2) 1.15554(18) -0.5562(2)
C1B C 0.3129(2) 0.92740(18) -0.2271(2)
C1B_2 C -0.6871(2) 0.92740(18) 0.7729(2)
C1_2 C 1.6871(2) 1.07260(18) -0.7729(2)
C2B C 0.6455(2) 0.77354(18) 0.0448(2)
C2A C -0.8545(2) 0.72646(18) 0.5448(2)
C2C C 1.8545(2) 1.27354(18) -0.5448(2)
C3B C 0.6793(3) 1.1246(2) -0.1835(3)
H1B H 0.5894 1.1559 -0.1948
C4B C 0.7956(3) 1.1607(2) -0.2424(3)
H2B H 0.7831 1.2156 -0.2902
C5B C 0.9295(3) 1.1157(2) -0.2303(2)
C6B C 0.9371(3) 1.0344(2) -0.1596(3)
H3B H 1.0246 0.9997 -0.1497
C7B C 0.8163(3) 1.0037(2) -0.1029(3)
H4B H 0.8255 0.9484 -0.0553
C8B C 1.0620(3) 1.1527(2) -0.2895(2)
H5B H 1.0505 1.2240 -0.3059
H6B H 1.1469 1.1450 -0.2401
C9B C 1.0876(2) 1.09647(18) -0.3971(2)
H7B H 1.0852 1.0246 -0.3817
H8B H 1.0078 1.1113 -0.4494
C10B C 1.4551(3) 1.2079(3) -0.4693(3)
H9B H 1.5174 1.2580 -0.4420
C11B C 1.3253(3) 1.1927(3) -0.4160(3)
H10B H 1.3032 1.2320 -0.3543
C12B C 1.2292(2) 1.12074(19) -0.4528(2)
C13B C 1.2709(3) 1.0668(3) -0.5439(3)
H11B H 1.2104 1.0163 -0.5730
C14B C 1.4017(4) 1.0866(3) -0.5928(3)
H12B H 1.4257 1.0492 -0.6556
loop_
_geom_bond_atom_site_label_1
_geom_bond_atom_site_label_2
_geom_bond_site_symmetry_1
_geom_bond_site_symmetry_2
Mn1 N1 1_555 1_555
Ag1 N4 1_555 1_555
N1 C1 1_555 1_555
N2 Mn1 1_555 1_555
N3 Mn1 1_555 1_555
N4 C10 1_555 1_555
C1 Ag1B_2 1_555 1_555
C2 N2 1_555 1_555
C3 N3 1_555 1_555
H1 C3 1_555 1_555
C4 C3 1_555 1_555
H2 C4 1_555 1_555
C5 C4 1_555 1_555
C6 C5 1_555 1_555
H3 C6 1_555 1_555
C7 N3 1_555 1_555
H4 C7 1_555 1_555
C8 C5 1_555 1_555
H5 C8 1_555 1_555
H6 C8 1_555 1_555
C9 C8 1_555 1_555
H7 C9 1_555 1_555
H8 C9 1_555 1_555
C10 H9 1_555 1_555
C11 C10 1_555 1_555
H10 C11 1_555 1_555
C12 C9 1_555 1_555
C13 C12 1_555 1_555
H11 C13 1_555 1_555
C14 N4 1_555 1_555
H12 C14 1_555 1_555
Ag1B N4B 1_555 1_555
Ag1A C2 1_555 1_555
Ag1_2 C1B 1_555 1_555
Ag1C C2B 1_555 1_555
N1B Mn1 1_555 1_555
N2B Mn1 1_555 1_555
N3B Mn1 1_555 1_555
N4B C10B 1_555 1_555
C1B N1B 1_555 1_555
C1B_2 Ag1 1_555 1_555
C1_2 Ag1B 1_555 1_555
C2B N2B 1_555 1_555
C2A Ag1 1_555 1_555
C2C Ag1B 1_555 1_555
C3B N3B 1_555 1_555
H1B C3B 1_555 1_555
C4B C3B 1_555 1_555
H2B C4B 1_555 1_555
C5B C4B 1_555 1_555
C6B C5B 1_555 1_555
H3B C6B 1_555 1_555
C7B N3B 1_555 1_555
H4B C7B 1_555 1_555
C8B C5B 1_555 1_555
H5B C8B 1_555 1_555
H6B C8B 1_555 1_555
C9B C8B 1_555 1_555
H7B C9B 1_555 1_555
H8B C9B 1_555 1_555
C10B H9B 1_555 1_555
C11B C10B 1_555 1_555
H10B C11B 1_555 1_555
C12B C9B 1_555 1_555
C13B C12B 1_555 1_555
H11B C13B 1_555 1_555
C14B N4B 1_555 1_555
H12B C14B 1_555 1_555
C6 C7 1_555 1_555
C11 C12 1_555 1_555
C13 C14 1_555 1_555
C6B C7B 1_555 1_555
C11B C12B 1_555 1_555
C13B C14B 1_555 1_555

#END
