
#######################################################################
#
#                 Cambridge Crystallographic Data Centre
#                                CCDC 
#
#######################################################################
#
# If this CIF has been generated from an entry in the Cambridge 
# Structural Database, then it will include bibliographic, chemical, 
# crystal, experimental, refinement or atomic coordinate data resulting 
# from the CCDC's data processing and validation procedures.
#
#######################################################################

data_TIGGIA
_symmetry_cell_setting           monoclinic
_symmetry_space_group_name_H-M   'P 21/c'
_symmetry_Int_Tables_number      14
_space_group_name_Hall           '-P 2ybc'
loop_
_symmetry_equiv_pos_site_id
_symmetry_equiv_pos_as_xyz
1 x,y,z
2 -x,1/2+y,1/2-z
3 -x,-y,-z
4 x,1/2-y,1/2+z
_cell_length_a                   6.58350(10)
_cell_length_b                   11.8399(2)
_cell_length_c                   29.0173(4)
_cell_angle_alpha                90
_cell_angle_beta                 97.3170(10)
_cell_angle_gamma                90
_cell_volume                     2243.42
loop_
_atom_site_label
_atom_site_type_symbol
_atom_site_fract_x
_atom_site_fract_y
_atom_site_fract_z
Sn1 Sn 0.87124(2) 0.294273(13) 0.087817(5)
O1 O 0.5266(3) 0.29990(15) 0.07927(7)
O2 O 0.2108(3) 0.31893(15) 0.09542(7)
O3 O 0.2851(3) 0.11530(17) 0.03396(6)
O4 O 0.3619(4) -0.06212(18) 0.04299(7)
O5 O 0.5299(4) -0.1099(2) 0.25504(9)
O6 O 0.3845(4) -0.21551(18) 0.19930(9)
N1 N 0.3405(3) 0.03299(19) 0.05774(7)
N2 N 0.4504(4) -0.1246(2) 0.21479(9)
C1 C 0.8850(4) 0.1206(2) 0.10719(8)
C2 C 0.9165(4) 0.0846(2) 0.15348(8)
H1 H 0.9314 0.1375 0.1773
C3 C 0.9257(4) -0.0307(2) 0.16399(9)
H2 H 0.9486 -0.0540 0.1948
C4 C 0.9008(4) -0.1108(2) 0.12863(10)
H3 H 0.9063 -0.1874 0.1358
C5 C 0.8678(4) -0.0763(2) 0.08267(9)
H4 H 0.8503 -0.1297 0.0590
C6 C 0.8607(4) 0.0389(2) 0.07174(9)
H5 H 0.8397 0.0616 0.0408
C7 C 0.8551(4) 0.3266(2) 0.01530(8)
C8 C 0.6708(4) 0.3126(2) -0.01376(9)
H6 H 0.5534 0.2914 -0.0012
C9 C 0.6616(5) 0.3300(3) -0.06136(10)
H7 H 0.5379 0.3210 -0.0804
C10 C 0.8351(6) 0.3608(3) -0.08061(10)
H8 H 0.8285 0.3725 -0.1125
C11 C 1.0176(5) 0.3741(3) -0.05225(10)
H9 H 1.1344 0.3947 -0.0651
C12 C 1.0296(4) 0.3571(2) -0.00454(10)
H10 H 1.1541 0.3661 0.0142
C13 C 0.8637(3) 0.4209(2) 0.14002(8)
C14 C 1.0354(4) 0.4420(2) 0.17288(9)
H11 H 1.1514 0.3970 0.1734
C15 C 1.0334(5) 0.5301(3) 0.20481(10)
H12 H 1.1481 0.5430 0.2264
C16 C 0.8629(5) 0.5983(3) 0.20472(10)
H13 H 0.8633 0.6578 0.2257
C17 C 0.6903(5) 0.5767(3) 0.17276(10)
H14 H 0.5739 0.6213 0.1728
C18 C 0.6912(4) 0.4891(2) 0.14096(9)
H15 H 0.5749 0.4757 0.1199
C19 C 0.3747(3) 0.2646(2) 0.09720(8)
C20 C 0.3959(3) 0.1593(2) 0.12628(8)
C21 C 0.4358(4) 0.1730(2) 0.17424(9)
H16 H 0.4489 0.2454 0.1867
C22 C 0.4562(4) 0.0801(2) 0.20357(8)
H17 H 0.4843 0.0891 0.2356
C23 C 0.4338(4) -0.0263(2) 0.18396(9)
C24 C 0.3965(4) -0.0443(2) 0.13664(9)
H18 H 0.3840 -0.1168 0.1242
C25 C 0.3789(3) 0.0502(2) 0.10870(8)
Sn1_2 Sn -0.12876(2) 0.294273(13) 0.087817(5)
O2_2 O 1.2108(3) 0.31893(15) 0.09542(7)
loop_
_geom_bond_atom_site_label_1
_geom_bond_atom_site_label_2
_geom_bond_site_symmetry_1
_geom_bond_site_symmetry_2
Sn1 O1 1_555 1_555
O1 C19 1_555 1_555
O2 C19 1_555 1_555
O3 N1 1_555 1_555
O4 N1 1_555 1_555
O5 N2 1_555 1_555
O6 N2 1_555 1_555
N1 C25 1_555 1_555
N2 C23 1_555 1_555
C1 Sn1 1_555 1_555
C2 C1 1_555 1_555
H1 C2 1_555 1_555
C3 C2 1_555 1_555
H2 C3 1_555 1_555
C4 C3 1_555 1_555
H3 C4 1_555 1_555
C5 C4 1_555 1_555
H4 C5 1_555 1_555
C6 C1 1_555 1_555
H5 C6 1_555 1_555
C7 Sn1 1_555 1_555
C8 C7 1_555 1_555
H6 C8 1_555 1_555
C9 C8 1_555 1_555
H7 C9 1_555 1_555
C10 C9 1_555 1_555
H8 C10 1_555 1_555
C11 C10 1_555 1_555
H9 C11 1_555 1_555
C12 C7 1_555 1_555
H10 C12 1_555 1_555
C13 Sn1 1_555 1_555
C14 C13 1_555 1_555
H11 C14 1_555 1_555
C15 C14 1_555 1_555
H12 C15 1_555 1_555
C16 C15 1_555 1_555
H13 C16 1_555 1_555
C17 C16 1_555 1_555
H14 C17 1_555 1_555
C18 C13 1_555 1_555
H15 C18 1_555 1_555
C19 C20 1_555 1_555
C20 C21 1_555 1_555
C21 H16 1_555 1_555
C22 C21 1_555 1_555
H17 C22 1_555 1_555
C23 C22 1_555 1_555
C24 C23 1_555 1_555
H18 C24 1_555 1_555
C25 C20 1_555 1_555
Sn1_2 O2 1_555 1_555
O2_2 Sn1 1_555 1_555
C5 C6 1_555 1_555
C11 C12 1_555 1_555
C17 C18 1_555 1_555
C24 C25 1_555 1_555

#END
