
#######################################################################
#
#                 Cambridge Crystallographic Data Centre
#                                CCDC 
#
#######################################################################
#
# If this CIF has been generated from an entry in the Cambridge 
# Structural Database, then it will include bibliographic, chemical, 
# crystal, experimental, refinement or atomic coordinate data resulting 
# from the CCDC's data processing and validation procedures.
#
#######################################################################

data_TIGGUN
_symmetry_cell_setting           triclinic
_symmetry_space_group_name_H-M   'P -1'
_symmetry_Int_Tables_number      2
_space_group_name_Hall           '-P 1'
loop_
_symmetry_equiv_pos_site_id
_symmetry_equiv_pos_as_xyz
1 x,y,z
2 -x,-y,-z
_cell_length_a                   5.1720(2)
_cell_length_b                   8.3581(3)
_cell_length_c                   13.5530(5)
_cell_angle_alpha                94.146(3)
_cell_angle_beta                 95.462(3)
_cell_angle_gamma                93.181(3)
_cell_volume                     580.535
loop_
_atom_site_label
_atom_site_type_symbol
_atom_site_fract_x
_atom_site_fract_y
_atom_site_fract_z
C1 C 0.2032(4) -0.2505(2) 0.89212(13)
C2 C 0.3531(4) -0.3657(2) 0.82961(14)
H1 H 0.5026 -0.3984 0.8718
C3 C 0.4547(4) -0.2817(2) 0.74215(14)
H2 H 0.5921 -0.2016 0.7677
H3 H 0.5289 -0.3604 0.6987
C4 C 0.2466(4) -0.2025(2) 0.68327(14)
C5 C 0.0730(4) -0.2570(3) 0.60545(15)
H4 H 0.0620 -0.3590 0.5724
C6 C -0.0097(4) -0.0073(2) 0.64666(14)
H5 H -0.0840 0.0915 0.6478
N1 N 0.1816(3) -0.5122(2) 0.79377(13)
H6 H 0.0252 -0.5026 0.8150
H7 H 0.2513 -0.5985 0.8173
H8 H 0.1662 -0.5229 0.7276
N2 N 0.1888(3) -0.0458(2) 0.70728(12)
H9 H 0.2699 0.0172 0.7546
N3 N -0.0842(3) -0.1339(2) 0.58420(12)
H10 H -0.2105 -0.1386 0.5378
N4 N 0.6599(3) 0.2267(2) 0.85917(12)
O1 O 0.3343(3) -0.12875(16) 0.93267(10)
O2 O -0.0338(3) -0.28354(16) 0.89536(10)
O3 O 0.4113(3) 0.20349(16) 0.84230(10)
O4 O 0.7508(3) 0.35936(18) 0.89715(11)
O5 O 0.7981(3) 0.11561(19) 0.83850(11)
Ag1 Ag 0.20897(3) 0.114071(18) 0.996724(11)
O1A O 0.6657(3) 0.12875(16) 1.06733(10)
O2A O 0.0338(3) 0.28354(16) 1.10464(10)
Ag1A Ag -0.20897(3) -0.114071(18) 1.003276(11)
Ag1A_2 Ag 0.79103(3) -0.114071(18) 1.003276(11)
N5 N 0.5030(3) 0.3005(2) 0.60533(12)
O6 O 0.2940(3) 0.3703(2) 0.59501(12)
O7 O 0.6885(3) 0.3579(2) 0.66421(12)
O8 O 0.5196(3) 0.16941(18) 0.55584(11)
loop_
_geom_bond_atom_site_label_1
_geom_bond_atom_site_label_2
_geom_bond_site_symmetry_1
_geom_bond_site_symmetry_2
C1 C2 1_555 1_555
C2 H1 1_555 1_555
C3 C2 1_555 1_555
H2 C3 1_555 1_555
H3 C3 1_555 1_555
C4 C3 1_555 1_555
C5 C4 1_555 1_555
H4 C5 1_555 1_555
C6 H5 1_555 1_555
N1 C2 1_555 1_555
H6 N1 1_555 1_555
H7 N1 1_555 1_555
H8 N1 1_555 1_555
N2 C4 1_555 1_555
H9 N2 1_555 1_555
N3 C5 1_555 1_555
H10 N3 1_555 1_555
N4 O3 1_555 1_555
O1 C1 1_555 1_555
O2 C1 1_555 1_555
O3 Ag1 1_555 1_555
O4 N4 1_555 1_555
O5 N4 1_555 1_555
Ag1 O1 1_555 1_555
N5 O6 1_555 1_555
O7 N5 1_555 1_555
O8 N5 1_555 1_555
O1A Ag1 1_555 1_555
O2A Ag1 1_555 1_555
Ag1A O2 1_555 1_555
Ag1A_2 O1 1_555 1_555
C6 N2 1_555 1_555
C6 N3 1_555 1_555
O1A Ag1A_2 1_555 1_555

#END
