
#######################################################################
#
#                 Cambridge Crystallographic Data Centre
#                                CCDC 
#
#######################################################################
#
# If this CIF has been generated from an entry in the Cambridge 
# Structural Database, then it will include bibliographic, chemical, 
# crystal, experimental, refinement or atomic coordinate data resulting 
# from the CCDC's data processing and validation procedures.
#
#######################################################################

data_TIGKEB
_symmetry_cell_setting           monoclinic
_symmetry_space_group_name_H-M   'C 2/c'
_symmetry_Int_Tables_number      15
_space_group_name_Hall           '-C 2yn'
loop_
_symmetry_equiv_pos_site_id
_symmetry_equiv_pos_as_xyz
1 x,y,z
2 -x,y,1/2-z
3 1/2+x,1/2+y,z
4 1/2-x,1/2+y,1/2-z
5 -x,-y,-z
6 x,-y,1/2+z
7 1/2-x,1/2-y,-z
8 1/2+x,1/2-y,1/2+z
_cell_length_a                   28.498(3)
_cell_length_b                   11.7312(11)
_cell_length_c                   12.4676(12)
_cell_angle_alpha                90
_cell_angle_beta                 95.487(2)
_cell_angle_gamma                90
_cell_volume                     4149.02
loop_
_atom_site_label
_atom_site_type_symbol
_atom_site_fract_x
_atom_site_fract_y
_atom_site_fract_z
Cd1 Cd 0.0000 0.09019(3) -0.2500
C1 C 0.07636(10) 0.1320(3) -0.0530(2)
C2 C 0.12101(10) 0.1001(2) 0.0162(2)
C3 C 0.07614(10) -0.0115(2) 0.1491(2)
C4 C 0.12092(10) 0.0306(2) 0.1069(2)
C5 C 0.16348(10) 0.0023(2) 0.1643(2)
H1 H 0.1633 -0.0437 0.2250
C6 C 0.20629(10) 0.0405(2) 0.1337(2)
C7 C 0.20588(10) 0.1085(2) 0.0427(2)
H2 H 0.2342 0.1345 0.0203
C8 C 0.16378(10) 0.1382(2) -0.0151(2)
H3 H 0.1641 0.1843 -0.0757
C9 C 0.25115(9) 0.0032(2) 0.1945(2)
C10 C 0.25506(10) -0.1074(2) 0.2349(2)
H4 H 0.2291 -0.1557 0.2273
C11 C 0.29716(10) -0.1459(3) 0.2859(2)
H5 H 0.2992 -0.2205 0.3111
C12 C 0.37944(10) -0.1323(2) 0.3573(3)
C13 C 0.33639(10) -0.0762(2) 0.3007(2)
C14 C 0.37409(11) 0.1149(3) 0.2841(2)
C15 C 0.33298(10) 0.0355(2) 0.2629(2)
C16 C 0.29042(10) 0.0733(2) 0.2100(2)
H6 H 0.2883 0.1478 0.1844
O1 O 0.05263(7) 0.05354(17) -0.09813(17)
O2 O 0.06715(7) 0.23645(17) -0.06575(17)
O3 O 0.07353(7) -0.11558(16) 0.17460(18)
O4 O 0.04388(7) 0.05747(16) 0.16208(17)
O5 O 0.40530(8) -0.1916(2) 0.31014(18)
O6 O 0.38211(8) -0.12071(18) 0.46177(19)
H7 H 0.3999(10) -0.169(2) 0.491(3)
O7 O 0.41301(8) 0.08249(19) 0.3159(2)
O8 O 0.36252(8) 0.22333(18) 0.26807(19)
H8 H 0.3849(8) 0.265(2) 0.286(3)
O9 O 0.0000 0.2821(3) -0.2500
H9 H -0.0257(7) 0.312(3) -0.254(4)
H9A H 0.0257(7) 0.312(3) -0.246(4)
C1A C -0.07636(10) 0.1320(3) -0.4470(2)
C2A C -0.12101(10) 0.1001(2) -0.5162(2)
C3A C -0.07614(10) -0.0115(2) -0.6491(2)
C4A C -0.12092(10) 0.0306(2) -0.6069(2)
C5A C -0.16348(10) 0.0023(2) -0.6643(2)
H1A H -0.1633 -0.0437 -0.7250
C6A C -0.20629(10) 0.0405(2) -0.6337(2)
C7A C -0.20588(10) 0.1085(2) -0.5427(2)
H2A H -0.2342 0.1345 -0.5203
C8A C -0.16378(10) 0.1382(2) -0.4849(2)
H3A H -0.1641 0.1843 -0.4243
C9A C -0.25115(9) 0.0032(2) -0.6945(2)
C10A C -0.25506(10) -0.1074(2) -0.7349(2)
H4A H -0.2291 -0.1557 -0.7273
C11A C -0.29716(10) -0.1459(3) -0.7859(2)
H5A H -0.2992 -0.2205 -0.8111
C12A C -0.37944(10) -0.1323(2) -0.8573(3)
C13A C -0.33639(10) -0.0762(2) -0.8007(2)
C14A C -0.37409(11) 0.1149(3) -0.7841(2)
C15A C -0.33298(10) 0.0355(2) -0.7629(2)
C16A C -0.29042(10) 0.0733(2) -0.7100(2)
H6A H -0.2883 0.1478 -0.6844
O1A O -0.05263(7) 0.05354(17) -0.40187(17)
O2A O -0.06715(7) 0.23645(17) -0.43425(17)
O3A O -0.07353(7) -0.11558(16) -0.67460(18)
O4A O -0.04388(7) 0.05747(16) -0.66208(17)
O5A O -0.40530(8) -0.1916(2) -0.81014(18)
O6A O -0.38211(8) -0.12071(18) -0.96177(19)
H7A H -0.3999(10) -0.169(2) -0.991(3)
O7A O -0.41301(8) 0.08249(19) -0.8159(2)
O8A O -0.36252(8) 0.22333(18) -0.76807(19)
H8A H -0.3849(8) 0.265(2) -0.786(3)
Cd1D Cd 0.0000 -0.09019(3) -0.7500
Cd1D_2 Cd 0.0000 -0.09019(3) 0.2500
O3D O -0.07353(7) 0.11558(16) -0.17460(18)
O3E O 0.07353(7) 0.11558(16) -0.32540(18)
O4D O -0.04388(7) -0.05747(16) -0.16208(17)
O4E O 0.04388(7) -0.05747(16) -0.33792(17)
C17 C 0.15417(11) 0.6270(3) 0.9811(2)
H10 H 0.1402 0.5571 0.9935
C18 C 0.20162(10) 0.6405(3) 1.0050(2)
H11 H 0.2194 0.5795 1.0342
C19 C 0.22417(10) 0.7430(2) 0.9868(2)
C20 C 0.19585(11) 0.8303(3) 0.9394(3)
H12 H 0.2098 0.8990 0.9231
C21 C 0.14775(11) 0.8175(3) 0.9161(3)
H13 H 0.1297 0.8772 0.8853
C22 C 0.12673(10) 0.7160(2) 0.9387(2)
C23 C 0.05344(12) 0.5974(3) 0.9072(3)
H14 H 0.0673 0.5256 0.9134
C24 C 0.04432(11) 0.7828(3) 0.9035(3)
H15 H 0.0502 0.8607 0.9069
C25 C 0.00753(12) 0.6197(3) 0.8860(3)
H16 H -0.0166 0.5664 0.8751
N1 N 0.07660(8) 0.7009(2) 0.9182(2)
N2 N 0.00280(9) 0.7351(2) 0.8834(2)
H17 H -0.0237(6) 0.770(2) 0.874(3)
C17F C 0.34583(11) 0.8730(3) 1.0189(2)
H10F H 0.3598 0.9429 1.0065
C18F C 0.29838(10) 0.8595(3) 0.9950(2)
H11F H 0.2806 0.9205 0.9658
C19F C 0.27583(10) 0.7570(2) 1.0132(2)
C20F C 0.30415(11) 0.6697(3) 1.0606(3)
H12F H 0.2902 0.6010 1.0769
C21F C 0.35225(11) 0.6825(3) 1.0839(3)
H13F H 0.3703 0.6228 1.1147
C22F C 0.37327(10) 0.7840(2) 1.0613(2)
C23F C 0.44656(12) 0.9026(3) 1.0928(3)
H14F H 0.4327 0.9744 1.0866
C24F C 0.45568(11) 0.7172(3) 1.0965(3)
H15F H 0.4498 0.6393 1.0931
C25F C 0.49247(12) 0.8803(3) 1.1140(3)
H16F H 0.5166 0.9336 1.1249
N1F N 0.42340(8) 0.7991(2) 1.0818(2)
N2F N 0.49720(9) 0.7649(2) 1.1166(2)
H17F H 0.5237(6) 0.730(2) 1.126(3)
loop_
_geom_bond_atom_site_label_1
_geom_bond_atom_site_label_2
_geom_bond_site_symmetry_1
_geom_bond_site_symmetry_2
Cd1 O1 1_555 1_555
C1 C2 1_555 1_555
C2 C4 1_555 1_555
C3 C4 1_555 1_555
C4 C5 1_555 1_555
C5 H1 1_555 1_555
C6 C5 1_555 1_555
C7 C6 1_555 1_555
H2 C7 1_555 1_555
C8 C2 1_555 1_555
H3 C8 1_555 1_555
C9 C6 1_555 1_555
C10 C9 1_555 1_555
H4 C10 1_555 1_555
C11 C10 1_555 1_555
H5 C11 1_555 1_555
C12 C13 1_555 1_555
C13 C11 1_555 1_555
C14 C15 1_555 1_555
C15 C13 1_555 1_555
C16 C9 1_555 1_555
H6 C16 1_555 1_555
O1 C1 1_555 1_555
O2 C1 1_555 1_555
O3 C3 1_555 1_555
O4 C3 1_555 1_555
O5 C12 1_555 1_555
O6 C12 1_555 1_555
H7 O6 1_555 1_555
O7 C14 1_555 1_555
O8 C14 1_555 1_555
H8 O8 1_555 1_555
O9 Cd1 1_555 1_555
H9 O9 1_555 1_555
C17 H10 1_555 1_555
C18 C17 1_555 1_555
H11 C18 1_555 1_555
C19 C18 1_555 1_555
C20 C19 1_555 1_555
H12 C20 1_555 1_555
C21 C20 1_555 1_555
H13 C21 1_555 1_555
C22 C17 1_555 1_555
C23 H14 1_555 1_555
C24 H15 1_555 1_555
C25 C23 1_555 1_555
H16 C25 1_555 1_555
N1 C22 1_555 1_555
N2 C24 1_555 1_555
H17 N2 1_555 1_555
H9A O9 1_555 1_555
C1A C2A 1_555 1_555
C2A C4A 1_555 1_555
C3A C4A 1_555 1_555
C4A C5A 1_555 1_555
C5A H1A 1_555 1_555
C6A C5A 1_555 1_555
C7A C6A 1_555 1_555
H2A C7A 1_555 1_555
C8A C2A 1_555 1_555
H3A C8A 1_555 1_555
C9A C6A 1_555 1_555
C10A C9A 1_555 1_555
H4A C10A 1_555 1_555
C11A C10A 1_555 1_555
H5A C11A 1_555 1_555
C12A C13A 1_555 1_555
C13A C11A 1_555 1_555
C14A C15A 1_555 1_555
C15A C13A 1_555 1_555
C16A C9A 1_555 1_555
H6A C16A 1_555 1_555
O1A Cd1 1_555 1_555
O2A C1A 1_555 1_555
O3A C3A 1_555 1_555
O4A C3A 1_555 1_555
O5A C12A 1_555 1_555
O6A C12A 1_555 1_555
H7A O6A 1_555 1_555
O7A C14A 1_555 1_555
O8A C14A 1_555 1_555
H8A O8A 1_555 1_555
Cd1D O3A 1_555 1_555
Cd1D_2 O3 1_555 1_555
O3D Cd1 1_555 1_555
O3E Cd1 1_555 1_555
O4D Cd1 1_555 1_555
O4E Cd1 1_555 1_555
C17F H10F 1_555 1_555
C18F C17F 1_555 1_555
H11F C18F 1_555 1_555
C19F C19 1_555 1_555
C20F C19F 1_555 1_555
H12F C20F 1_555 1_555
C21F C20F 1_555 1_555
H13F C21F 1_555 1_555
C22F C17F 1_555 1_555
C23F H14F 1_555 1_555
C24F H15F 1_555 1_555
C25F C23F 1_555 1_555
H16F C25F 1_555 1_555
N1F C22F 1_555 1_555
N2F C24F 1_555 1_555
H17F N2F 1_555 1_555
C7 C8 1_555 1_555
C15 C16 1_555 1_555
O4 Cd1D_2 1_555 1_555
C21 C22 1_555 1_555
C23 N1 1_555 1_555
C24 N1 1_555 1_555
C25 N2 1_555 1_555
C1A O1A 1_555 1_555
C7A C8A 1_555 1_555
C15A C16A 1_555 1_555
O4A Cd1D 1_555 1_555
C18F C19F 1_555 1_555
C21F C22F 1_555 1_555
C23F N1F 1_555 1_555
C24F N1F 1_555 1_555
C25F N2F 1_555 1_555

#END
