
#######################################################################
#
#                 Cambridge Crystallographic Data Centre
#                                CCDC 
#
#######################################################################
#
# If this CIF has been generated from an entry in the Cambridge 
# Structural Database, then it will include bibliographic, chemical, 
# crystal, experimental, refinement or atomic coordinate data resulting 
# from the CCDC's data processing and validation procedures.
#
#######################################################################

data_TIGRUY
_symmetry_cell_setting           monoclinic
_symmetry_space_group_name_H-M   'P 21/n'
_symmetry_Int_Tables_number      14
_space_group_name_Hall           '-P 2yn'
loop_
_symmetry_equiv_pos_site_id
_symmetry_equiv_pos_as_xyz
1 x,y,z
2 1/2-x,1/2+y,1/2-z
3 -x,-y,-z
4 1/2+x,1/2-y,1/2+z
_cell_length_a                   13.4288(7)
_cell_length_b                   15.5866(8)
_cell_length_c                   14.6967(8)
_cell_angle_alpha                90
_cell_angle_beta                 111.8970(10)
_cell_angle_gamma                90
_cell_volume                     2854.23
loop_
_atom_site_label
_atom_site_type_symbol
_atom_site_fract_x
_atom_site_fract_y
_atom_site_fract_z
Cu1 Cu 0.42443(4) 0.30998(3) 0.97313(3)
Cu2 Cu 0.50382(4) 0.20406(3) 0.82022(3)
O1 O 0.3077(2) 0.21089(17) 0.9190(2)
O2 O 0.3666(2) 0.12852(17) 0.8257(2)
O3 O 0.0688(2) -0.19044(16) 0.75031(18)
O4 O 0.1152(2) -0.11367(16) 0.6433(2)
O5 O -0.1026(3) 0.0254(3) 0.9028(3)
O6 O -0.0111(3) 0.1349(2) 0.9732(3)
O7 O 0.5411(2) 0.25931(16) 0.94631(18)
H1 H 0.594(2) 0.3015(17) 0.947(3)
N1 N 0.4889(3) 0.2681(2) 1.1188(2)
N2 N 0.3250(3) 0.3836(2) 1.0184(3)
N3 N 0.6177(3) 0.1092(2) 0.8798(3)
N4 N 0.4858(3) 0.1535(2) 0.6869(2)
N5 N -0.0236(3) 0.0703(2) 0.9221(3)
C1 C 0.2152(3) 0.0832(2) 0.8558(3)
C2 C 0.1995(3) 0.0104(2) 0.7984(3)
H2 H 0.2469 -0.0011 0.7673
C3 C 0.1158(3) -0.0456(2) 0.7856(3)
C4 C 0.0425(3) -0.0274(2) 0.8290(3)
H3 H -0.0147 -0.0640 0.8213
C5 C 0.0567(3) 0.0465(2) 0.8836(3)
C6 C 0.1419(3) 0.1010(2) 0.8993(3)
H4 H 0.1503 0.1493 0.9386
C7 C 0.3052(3) 0.1458(2) 0.8683(3)
C8 C 0.0982(3) -0.1239(2) 0.7207(3)
C9 C 0.4424(4) 0.3230(3) 1.1748(3)
H5 H 0.4844 0.3751 1.1951
H6 H 0.4441 0.2930 1.2332
C10 C 0.3281(4) 0.3453(3) 1.1117(3)
H7 H 0.2841 0.2940 1.0982
H8 H 0.2996 0.3857 1.1460
C11 C 0.4606(5) 0.1774(3) 1.1253(3)
H9 H 0.4908 0.1589 1.1924
H10 H 0.4888 0.1427 1.0864
H11 H 0.3840 0.1715 1.1012
C12 C 0.6075(4) 0.2753(3) 1.1614(3)
H12 H 0.6281 0.3334 1.1559
H13 H 0.6379 0.2379 1.1267
H14 H 0.6333 0.2591 1.2293
C13 C 0.3667(4) 0.4729(3) 1.0341(4)
H15 H 0.3233 0.5072 1.0592
H16 H 0.3643 0.4964 0.9729
H17 H 0.4395 0.4727 1.0803
C14 C 0.2126(4) 0.3853(3) 0.9485(3)
H18 H 0.1708 0.4210 0.9741
H19 H 0.1839 0.3281 0.9391
H20 H 0.2098 0.4080 0.8869
C15 C 0.6351(5) 0.0687(4) 0.7987(4)
H21 H 0.6603 0.0105 0.8166
H22 H 0.6901 0.0998 0.7844
C16 C 0.5340(4) 0.0669(3) 0.7090(4)
H23 H 0.5499 0.0463 0.6536
H24 H 0.4831 0.0277 0.7193
C17 C 0.5792(4) 0.0465(3) 0.9344(4)
H25 H 0.5139 0.0207 0.8909
H26 H 0.5660 0.0752 0.9867
H27 H 0.6326 0.0029 0.9612
C18 C 0.7212(4) 0.1421(3) 0.9527(4)
H28 H 0.7719 0.0959 0.9739
H29 H 0.7092 0.1656 1.0081
H30 H 0.7490 0.1859 0.9228
C19 C 0.5402(5) 0.2075(4) 0.6375(4)
H31 H 0.5392 0.1792 0.5792
H32 H 0.6132 0.2170 0.6808
H33 H 0.5037 0.2616 0.6204
C20 C 0.3730(4) 0.1449(3) 0.6206(3)
H34 H 0.3408 0.2008 0.6057
H35 H 0.3350 0.1111 0.6518
H36 H 0.3694 0.1173 0.5611
Cu1A Cu 0.07557(4) -0.19002(3) 0.52687(3)
Cu2A Cu -0.00382(4) -0.29594(3) 0.67978(3)
O3A O 0.4312(2) 0.30956(16) 0.74969(18)
O4A O 0.3848(2) 0.38633(16) 0.8567(2)
Cl1 Cl 0.27654(12) 0.13839(9) 0.31789(11)
O8 O 0.3412(7) 0.0751(5) 0.3742(5)
O9 O 0.1848(5) 0.1532(5) 0.3426(7)
O10 O 0.3322(6) 0.2177(4) 0.3284(6)
O11 O 0.2391(8) 0.1178(5) 0.2162(4)
O12? O 0.2670(10) 0.0462(4) 0.3234(8)
O13? O 0.2123(9) 0.1759(7) 0.3627(10)
O14? O 0.3857(6) 0.1573(9) 0.3716(7)
O15? O 0.2497(10) 0.1608(7) 0.2205(5)
loop_
_geom_bond_atom_site_label_1
_geom_bond_atom_site_label_2
_geom_bond_site_symmetry_1
_geom_bond_site_symmetry_2
Cu1 O1 1_555 1_555
Cu2 O2 1_555 1_555
O1 C7 1_555 1_555
O2 C7 1_555 1_555
O3 C8 1_555 1_555
O4 C8 1_555 1_555
O5 N5 1_555 1_555
O6 N5 1_555 1_555
O7 Cu1 1_555 1_555
H1 O7 1_555 1_555
N1 Cu1 1_555 1_555
N2 Cu1 1_555 1_555
N3 Cu2 1_555 1_555
N4 Cu2 1_555 1_555
N5 C5 1_555 1_555
C1 C2 1_555 1_555
C2 H2 1_555 1_555
C3 C2 1_555 1_555
C4 C3 1_555 1_555
H3 C4 1_555 1_555
C5 C4 1_555 1_555
C6 C1 1_555 1_555
H4 C6 1_555 1_555
C7 C1 1_555 1_555
C8 C3 1_555 1_555
C9 N1 1_555 1_555
H5 C9 1_555 1_555
H6 C9 1_555 1_555
C10 N2 1_555 1_555
H7 C10 1_555 1_555
H8 C10 1_555 1_555
C11 N1 1_555 1_555
H9 C11 1_555 1_555
H10 C11 1_555 1_555
H11 C11 1_555 1_555
C12 N1 1_555 1_555
H12 C12 1_555 1_555
H13 C12 1_555 1_555
H14 C12 1_555 1_555
C13 N2 1_555 1_555
H15 C13 1_555 1_555
H16 C13 1_555 1_555
H17 C13 1_555 1_555
C14 N2 1_555 1_555
H18 C14 1_555 1_555
H19 C14 1_555 1_555
H20 C14 1_555 1_555
C15 N3 1_555 1_555
H21 C15 1_555 1_555
H22 C15 1_555 1_555
C16 N4 1_555 1_555
H23 C16 1_555 1_555
H24 C16 1_555 1_555
C17 N3 1_555 1_555
H25 C17 1_555 1_555
H26 C17 1_555 1_555
H27 C17 1_555 1_555
C18 N3 1_555 1_555
H28 C18 1_555 1_555
H29 C18 1_555 1_555
H30 C18 1_555 1_555
C19 N4 1_555 1_555
H31 C19 1_555 1_555
H32 C19 1_555 1_555
H33 C19 1_555 1_555
C20 N4 1_555 1_555
H34 C20 1_555 1_555
H35 C20 1_555 1_555
H36 C20 1_555 1_555
Cl1 O8 1_555 1_555
O9 Cl1 1_555 1_555
O10 Cl1 1_555 1_555
O11 Cl1 1_555 1_555
Cu1A O4 1_555 1_555
Cu2A O3 1_555 1_555
O3A Cu2 1_555 1_555
O4A Cu1 1_555 1_555
Cu2 O7 1_555 1_555
C5 C6 1_555 1_555
C9 C10 1_555 1_555
C15 C16 1_555 1_555

#END
