
#######################################################################
#
#                 Cambridge Crystallographic Data Centre
#                                CCDC 
#
#######################################################################
#
# If this CIF has been generated from an entry in the Cambridge 
# Structural Database, then it will include bibliographic, chemical, 
# crystal, experimental, refinement or atomic coordinate data resulting 
# from the CCDC's data processing and validation procedures.
#
#######################################################################

data_TIGSOT
_symmetry_cell_setting           monoclinic
_symmetry_space_group_name_H-M   'P 21/c'
_symmetry_Int_Tables_number      14
_space_group_name_Hall           '-P 2ybc'
loop_
_symmetry_equiv_pos_site_id
_symmetry_equiv_pos_as_xyz
1 x,y,z
2 -x,1/2+y,1/2-z
3 -x,-y,-z
4 x,1/2-y,1/2+z
_cell_length_a                   9.646(3)
_cell_length_b                   9.410(3)
_cell_length_c                   30.929(10)
_cell_angle_alpha                90
_cell_angle_beta                 93.338(5)
_cell_angle_gamma                90
_cell_volume                     2802.63
loop_
_atom_site_label
_atom_site_type_symbol
_atom_site_fract_x
_atom_site_fract_y
_atom_site_fract_z
O15 O 0.465(5) 0.864(4) 0.1094(14)
O16 O 0.360(2) 0.812(3) 0.0584(14)
O17 O 0.798(2) 0.935(2) 0.1096(7)
O18 O 0.6313(15) 0.9758(18) 0.1650(7)
N3 N 0.906(3) 0.986(3) 0.0389(9)
C15 C 1.144(3) 1.022(3) 0.0070(9)
C16 C 1.066(3) 0.968(4) 0.0359(9)
C17 C 1.119(4) 0.971(8) 0.0818(10)
N3B N 1.094(3) 1.014(3) -0.0389(9)
C15B C 0.856(3) 0.978(3) -0.0070(9)
C16B C 0.934(3) 1.032(4) -0.0359(9)
C17B C 0.881(4) 1.029(8) -0.0818(10)
Zn1 Zn 0.03557(9) 0.27106(9) 0.14027(3)
Zn2 Zn 0.21463(9) 0.55604(13) 0.03969(3)
Zn3 Zn 0.06167(8) -0.19789(8) 0.19345(2)
P1 P -0.03751(16) 0.11013(17) 0.22080(5)
P2 P 0.24892(18) 0.06078(17) 0.18270(6)
P3 P -0.07259(18) 0.37431(19) 0.05042(5)
P4 P 0.02478(18) 0.59927(18) 0.11450(5)
O1 O -0.0890(5) 0.1984(6) 0.18205(17)
O2 O -0.0658(5) -0.0489(5) 0.21381(16)
O3 O -0.0998(5) 0.1620(5) 0.26185(15)
O4 O 0.1806(6) 0.1301(6) 0.14180(16)
O5 O 0.3983(5) 0.1036(6) 0.19050(19)
O6 O 0.2304(6) -0.1006(5) 0.18157(18)
O7 O 0.1914(5) 0.2757(5) 0.22864(17)
H1 H 0.1485 0.3182 0.2468
O8 O -0.0684(6) 0.2543(6) 0.08325(17)
O9 O 0.0696(5) 0.3996(5) 0.03312(15)
O10 O -0.1826(5) 0.3433(6) 0.01447(16)
O11 O -0.0304(6) 0.7159(6) 0.14241(16)
O12 O 0.1339(6) 0.6591(6) 0.08580(17)
O13 O 0.0779(5) 0.4724(5) 0.14067(17)
O14 O -0.1655(6) 0.6453(6) 0.04797(16)
H2 H -0.1346 0.6272 0.0245
N1 N 0.5330(7) -0.1216(8) 0.2991(2)
H3 H 0.5654 -0.2067 0.3000
N2 N -0.6082(6) 0.4521(8) 0.0573(2)
C1 C 0.1533(6) 0.1284(7) 0.2285(2)
C2 C 0.1935(7) 0.0544(8) 0.2723(2)
H4 H 0.1544 0.1098 0.2951
H5 H 0.1485 -0.0378 0.2720
C3 C 0.3443(7) 0.0322(8) 0.2845(2)
C4 C 0.4327(8) 0.1437(9) 0.2968(3)
H6 H 0.3985 0.2362 0.2961
C5 C 0.5706(9) 0.1202(10) 0.3100(3)
H7 H 0.6291 0.1954 0.3180
C6 C 0.6179(8) -0.0156(10) 0.3108(3)
H8 H 0.7099 -0.0345 0.3196
C7 C 0.3997(8) -0.1029(8) 0.2861(2)
H9 H 0.3446 -0.1807 0.2782
C8 C -0.1231(7) 0.5359(8) 0.0788(2)
C9 C -0.2461(7) 0.5133(10) 0.1080(2)
H10 H -0.2111 0.4607 0.1333
H11 H -0.2740 0.6061 0.1180
C10 C -0.3765(7) 0.4378(9) 0.0900(3)
C11 C -0.3953(10) 0.2974(12) 0.0979(5)
H12 H -0.3239 0.2434 0.1111
C12 C -0.5198(11) 0.2370(13) 0.0865(6)
H13 H -0.5346 0.1417 0.0926
C13 C -0.6246(10) 0.3157(12) 0.0658(5)
H14 H -0.7085 0.2719 0.0577
C14 C -0.4875(8) 0.5122(9) 0.0703(2)
H15 H -0.4770 0.6092 0.0659
Zn2_2 Zn -0.78537(9) 0.55604(13) 0.03969(3)
Zn2B Zn -0.21463(9) 0.44396(13) -0.03969(3)
Zn3_2 Zn 0.06167(8) 0.80211(8) 0.19345(2)
Zn3A Zn -0.06167(8) 0.30211(8) 0.30655(2)
O3A O 0.0998(5) -0.3380(5) 0.23815(15)
O10B O 0.1826(5) 0.6567(6) -0.01447(16)
O11_2 O -0.0304(6) -0.2841(6) 0.14241(16)
N2_2 N 0.3918(6) 0.4521(8) 0.0573(2)
loop_
_geom_bond_atom_site_label_1
_geom_bond_atom_site_label_2
_geom_bond_site_symmetry_1
_geom_bond_site_symmetry_2
Zn1 O1 1_555 1_555
Zn2 O9 1_555 1_555
Zn3 O2 1_555 1_555
P1 O1 1_555 1_555
P2 O4 1_555 1_555
P3 O8 1_555 1_555
P4 O11 1_555 1_555
O2 P1 1_555 1_555
O3 P1 1_555 1_555
O4 Zn1 1_555 1_555
O5 P2 1_555 1_555
O6 Zn3 1_555 1_555
O7 H1 1_555 1_555
O8 Zn1 1_555 1_555
O9 P3 1_555 1_555
O10 P3 1_555 1_555
O11 Zn3_2 1_555 1_555
O12 Zn2 1_555 1_555
O13 Zn1 1_555 1_555
O14 H2 1_555 1_555
N1 H3 1_555 1_555
N2 C13 1_555 1_555
C1 P1 1_555 1_555
C2 C1 1_555 1_555
H4 C2 1_555 1_555
H5 C2 1_555 1_555
C3 C2 1_555 1_555
C4 C3 1_555 1_555
H6 C4 1_555 1_555
C5 C4 1_555 1_555
H7 C5 1_555 1_555
C6 N1 1_555 1_555
H8 C6 1_555 1_555
C7 N1 1_555 1_555
H9 C7 1_555 1_555
C8 P3 1_555 1_555
C9 C8 1_555 1_555
H10 C9 1_555 1_555
H11 C9 1_555 1_555
C10 C9 1_555 1_555
C11 C10 1_555 1_555
H12 C11 1_555 1_555
C12 C11 1_555 1_555
H13 C12 1_555 1_555
C13 C12 1_555 1_555
H14 C13 1_555 1_555
C14 N2 1_555 1_555
H15 C14 1_555 1_555
N3 C16 1_555 1_555
C15 C16 1_555 1_555
C16 C17 1_555 1_555
Zn2_2 N2 1_555 1_555
Zn2B O10 1_555 1_555
Zn3A O3 1_555 1_555
O3A Zn3 1_555 1_555
O10B Zn2 1_555 1_555
O11_2 Zn3 1_555 1_555
N2_2 Zn2 1_555 1_555
N3B C15 1_555 1_555
C15B N3 1_555 1_555
C16B N3B 1_555 1_555
C17B C16B 1_555 1_555
P2 O6 1_555 1_555
P2 C1 1_555 1_555
P4 O12 1_555 1_555
P4 O13 1_555 1_555
P4 C8 1_555 1_555
O7 C1 1_555 1_555
O14 C8 1_555 1_555
C3 C7 1_555 1_555
C5 C6 1_555 1_555
C10 C14 1_555 1_555
C15B C16B 1_555 1_555

#END
