
#######################################################################
#
#                 Cambridge Crystallographic Data Centre
#                                CCDC 
#
#######################################################################
#
# If this CIF has been generated from an entry in the Cambridge 
# Structural Database, then it will include bibliographic, chemical, 
# crystal, experimental, refinement or atomic coordinate data resulting 
# from the CCDC's data processing and validation procedures.
#
#######################################################################

data_TIGSEJ
_symmetry_cell_setting           monoclinic
_symmetry_space_group_name_H-M   'P 21/n'
_symmetry_Int_Tables_number      14
_space_group_name_Hall           '-P 2yn'
loop_
_symmetry_equiv_pos_site_id
_symmetry_equiv_pos_as_xyz
1 x,y,z
2 1/2-x,1/2+y,1/2-z
3 -x,-y,-z
4 1/2+x,1/2-y,1/2+z
_cell_length_a                   13.4164(8)
_cell_length_b                   15.4139(9)
_cell_length_c                   15.0463(9)
_cell_angle_alpha                90
_cell_angle_beta                 112.9660(10)
_cell_angle_gamma                90
_cell_volume                     2864.93
loop_
_atom_site_label
_atom_site_type_symbol
_atom_site_fract_x
_atom_site_fract_y
_atom_site_fract_z
Cu1 Cu 0.06592(4) 0.19417(3) 0.02577(3)
Cu2 Cu -0.00996(3) 0.30099(3) 0.17614(3)
O1 O 0.1801(2) 0.29773(16) 0.07723(18)
O2 O 0.1308(2) 0.37502(16) 0.17737(19)
O3 O 0.3915(2) 0.61847(16) 0.35910(19)
O4 O 0.4423(2) 0.69271(15) 0.25549(17)
O5 O 0.5186(2) 0.43705(17) 0.08315(19)
O6 O -0.0509(2) 0.24657(16) 0.05116(18)
H1 H -0.094(2) 0.2080(18) 0.050(3)
N1 N -0.0018(3) 0.2320(2) -0.1189(2)
N2 N 0.1679(3) 0.1195(2) -0.0157(2)
N3 N 0.0097(3) 0.3523(2) 0.3072(2)
N4 N -0.1200(3) 0.4011(2) 0.1189(3)
C1 C 0.2817(3) 0.4216(2) 0.1473(2)
C2 C 0.3002(3) 0.4933(2) 0.2061(2)
H2 H 0.2536 0.5055 0.2369
C3 C 0.3876(3) 0.5475(2) 0.2199(2)
C4 C 0.4592(3) 0.5277(2) 0.1769(2)
H3 H 0.5184 0.5635 0.1866
C5 C 0.4423(3) 0.4541(2) 0.1193(2)
C6 C 0.3527(3) 0.4031(2) 0.1036(2)
H4 H 0.3397 0.3553 0.0628
C7 C 0.1889(3) 0.3601(2) 0.1326(2)
C8 C 0.4090(3) 0.6264(2) 0.2840(3)
C9 C 0.4951(3) 0.3673(3) 0.0155(3)
H5 H 0.4962 0.3135 0.0479
H6 H 0.5485 0.3658 -0.0123
H7 H 0.4248 0.3758 -0.0347
C10 C 0.1617(4) 0.1568(3) -0.1091(3)
H8 H 0.2047 0.2094 -0.0972
H9 H 0.1909 0.1156 -0.1415
C11 C 0.0474(4) 0.1767(3) -0.1716(3)
H10 H 0.0445 0.2065 -0.2293
H11 H 0.0067 0.1231 -0.1911
C12 C 0.1296(4) 0.0285(3) -0.0295(3)
H12 H 0.0558 0.0266 -0.0751
H13 H 0.1341 0.0051 0.0311
H14 H 0.1740 -0.0052 -0.0533
C13 C 0.2811(4) 0.1211(3) 0.0540(3)
H15 H 0.2852 0.0995 0.1151
H16 H 0.3077 0.1796 0.0616
H17 H 0.3243 0.0854 0.0307
C14 C -0.1204(4) 0.2233(3) -0.1622(3)
H18 H -0.1467 0.2385 -0.2293
H19 H -0.1519 0.2613 -0.1297
H20 H -0.1401 0.1644 -0.1558
C15 C 0.0250(4) 0.3238(3) -0.1277(3)
H21 H 0.1021 0.3303 -0.1046
H22 H -0.0024 0.3595 -0.0901
H23 H -0.0073 0.3412 -0.1942
C16 C -0.1280(5) 0.4476(3) 0.1999(4)
H24 H -0.1436 0.5082 0.1824
H25 H -0.1878 0.4242 0.2132
C17 C -0.0306(4) 0.4419(3) 0.2858(4)
H26 H -0.0446 0.4645 0.3400
H27 H 0.0249 0.4777 0.2780
C18 C -0.2275(4) 0.3716(3) 0.0533(4)
H28 H -0.2568 0.3331 0.0872
H29 H -0.2217 0.3415 -0.0003
H30 H -0.2745 0.4207 0.0302
C19 C -0.0812(4) 0.4577(3) 0.0610(3)
H31 H -0.1321 0.5039 0.0341
H32 H -0.0738 0.4248 0.0097
H33 H -0.0122 0.4817 0.1012
C20 C 0.1231(4) 0.3553(3) 0.3754(3)
H34 H 0.1279 0.3844 0.4333
H35 H 0.1652 0.3861 0.3467
H36 H 0.1504 0.2972 0.3907
C21 C -0.0521(4) 0.3018(3) 0.3506(4)
H37 H -0.0219 0.2447 0.3658
H38 H -0.1262 0.2978 0.3059
H39 H -0.0490 0.3300 0.4086
Cu1A Cu 0.43408(4) 0.69417(3) 0.47423(3)
Cu2A Cu 0.50996(3) 0.80099(3) 0.32386(3)
O3A O 0.1085(2) 0.11847(16) 0.14090(19)
O4A O 0.0577(2) 0.19271(15) 0.24451(17)
Cl1 Cl 0.71628(12) 0.13963(9) 0.17601(10)
O7 O 0.7521(9) 0.1518(7) 0.2749(4)
O8 O 0.7192(9) 0.0498(3) 0.1576(7)
O9 O 0.6079(5) 0.1639(8) 0.1344(7)
O10 O 0.7775(9) 0.1847(7) 0.1370(9)
O11? O 0.7677(9) 0.1048(8) 0.2671(6)
O12? O 0.6389(10) 0.0865(8) 0.1148(6)
O13? O 0.6709(10) 0.2193(5) 0.1853(9)
O14? O 0.7961(9) 0.1585(7) 0.1386(10)
loop_
_geom_bond_atom_site_label_1
_geom_bond_atom_site_label_2
_geom_bond_site_symmetry_1
_geom_bond_site_symmetry_2
Cu1 O1 1_555 1_555
Cu2 O2 1_555 1_555
O1 C7 1_555 1_555
O2 C7 1_555 1_555
O3 C8 1_555 1_555
O4 C8 1_555 1_555
O5 C5 1_555 1_555
O6 Cu1 1_555 1_555
H1 O6 1_555 1_555
N1 Cu1 1_555 1_555
N2 Cu1 1_555 1_555
N3 Cu2 1_555 1_555
N4 Cu2 1_555 1_555
C1 C2 1_555 1_555
C2 H2 1_555 1_555
C3 C2 1_555 1_555
C4 C3 1_555 1_555
H3 C4 1_555 1_555
C5 C4 1_555 1_555
C6 C1 1_555 1_555
H4 C6 1_555 1_555
C7 C1 1_555 1_555
C8 C3 1_555 1_555
C9 O5 1_555 1_555
H5 C9 1_555 1_555
H6 C9 1_555 1_555
H7 C9 1_555 1_555
C10 N2 1_555 1_555
H8 C10 1_555 1_555
H9 C10 1_555 1_555
C11 N1 1_555 1_555
H10 C11 1_555 1_555
H11 C11 1_555 1_555
C12 N2 1_555 1_555
H12 C12 1_555 1_555
H13 C12 1_555 1_555
H14 C12 1_555 1_555
C13 N2 1_555 1_555
H15 C13 1_555 1_555
H16 C13 1_555 1_555
H17 C13 1_555 1_555
C14 N1 1_555 1_555
H18 C14 1_555 1_555
H19 C14 1_555 1_555
H20 C14 1_555 1_555
C15 N1 1_555 1_555
H21 C15 1_555 1_555
H22 C15 1_555 1_555
H23 C15 1_555 1_555
C16 N4 1_555 1_555
H24 C16 1_555 1_555
H25 C16 1_555 1_555
C17 N3 1_555 1_555
H26 C17 1_555 1_555
H27 C17 1_555 1_555
C18 N4 1_555 1_555
H28 C18 1_555 1_555
H29 C18 1_555 1_555
H30 C18 1_555 1_555
C19 N4 1_555 1_555
H31 C19 1_555 1_555
H32 C19 1_555 1_555
H33 C19 1_555 1_555
C20 N3 1_555 1_555
H34 C20 1_555 1_555
H35 C20 1_555 1_555
H36 C20 1_555 1_555
C21 N3 1_555 1_555
H37 C21 1_555 1_555
H38 C21 1_555 1_555
H39 C21 1_555 1_555
Cl1 O7 1_555 1_555
O8 Cl1 1_555 1_555
O9 Cl1 1_555 1_555
O10 Cl1 1_555 1_555
Cu1A O3 1_555 1_555
Cu2A O4 1_555 1_555
O3A Cu1 1_555 1_555
O4A Cu2 1_555 1_555
Cu2 O6 1_555 1_555
C5 C6 1_555 1_555
C10 C11 1_555 1_555
C16 C17 1_555 1_555

#END
