
#######################################################################
#
#                 Cambridge Crystallographic Data Centre
#                                CCDC 
#
#######################################################################
#
# If this CIF has been generated from an entry in the Cambridge 
# Structural Database, then it will include bibliographic, chemical, 
# crystal, experimental, refinement or atomic coordinate data resulting 
# from the CCDC's data processing and validation procedures.
#
#######################################################################

data_TIGVUC
_symmetry_cell_setting           orthorhombic
_symmetry_space_group_name_H-M   'P c a 21'
_symmetry_Int_Tables_number      29
_space_group_name_Hall           'P 2c -2ac'
loop_
_symmetry_equiv_pos_site_id
_symmetry_equiv_pos_as_xyz
1 x,y,z
2 -x,-y,1/2+z
3 1/2+x,-y,z
4 1/2-x,y,1/2+z
_cell_length_a                   22.2913(3)
_cell_length_b                   16.1324(2)
_cell_length_c                   17.3900(2)
_cell_angle_alpha                90
_cell_angle_beta                 90
_cell_angle_gamma                90
_cell_volume                     6253.66
loop_
_atom_site_label
_atom_site_type_symbol
_atom_site_fract_x
_atom_site_fract_y
_atom_site_fract_z
Zn1 Zn 0.043372(17) 0.03394(3) 0.44149(3)
Zn2 Zn 0.196493(17) 0.53647(3) 0.49191(3)
O1 O 0.08724(12) 0.12779(16) 0.48121(19)
O2 O 0.00861(13) 0.20079(18) 0.4422(2)
O3 O 0.08136(14) 0.48796(19) 0.4465(2)
O4 O 0.15592(12) 0.43233(18) 0.51119(17)
O5 O 0.06496(12) 0.2258(2) 0.64435(18)
O6 O 0.15736(12) 0.1865(2) 0.67212(18)
O7 O 0.08242(12) -0.07260(17) 0.45724(17)
O8 O 0.1647(2) -0.0367(2) 0.3950(3)
O9 O 0.12689(13) -0.33817(19) 0.57595(18)
O10 O 0.17626(13) -0.35075(17) 0.46528(18)
O11 O 0.19500(12) -0.2182(2) 0.30117(18)
O12 O 0.29153(13) -0.1955(2) 0.32364(19)
N1 N 0.25734(14) 0.5391(2) 0.5807(2)
N2 N 0.44904(13) 0.5604(2) 0.7362(2)
H1 H 0.4442(18) 0.6055(18) 0.710(2)
N3 N 0.57545(13) 0.5215(2) 0.7271(2)
N4 N 0.75572(13) 0.4905(2) 0.8947(2)
N5 N -0.02316(13) 0.0108(2) 0.5208(2)
N6 N -0.21050(13) -0.0039(2) 0.6773(2)
N7 N -0.33817(14) -0.0180(2) 0.6577(2)
H2 H -0.3389(19) -0.0722(13) 0.663(3)
N8 N -0.51124(14) 0.0309(2) 0.8334(2)
C1 C 0.27567(17) 0.6098(3) 0.6131(3)
H3 H 0.2597 0.6608 0.5949
C2 C 0.31708(16) 0.6115(3) 0.6723(3)
H4 H 0.3284 0.6628 0.6947
C3 C 0.34182(16) 0.5387(3) 0.6986(2)
C4 C 0.32280(19) 0.4646(3) 0.6651(3)
H5 H 0.3387 0.4129 0.6816
C5 C 0.28055(19) 0.4683(3) 0.6079(3)
H6 H 0.2669 0.4176 0.5863
C6 C 0.38622(17) 0.5391(3) 0.7638(3)
H7 H 0.3867 0.4838 0.7885
H8 H 0.3735 0.5801 0.8028
C7 C 0.49011(16) 0.5654(3) 0.8047(2)
H9 H 0.4896 0.5119 0.8326
H10 H 0.4757 0.6090 0.8403
C8 C 0.55356(16) 0.5850(3) 0.7794(2)
H11 H 0.5543 0.6396 0.7534
H12 H 0.5801 0.5880 0.8250
C9 C 0.53705(17) 0.5196(3) 0.6582(3)
H13 H 0.5525 0.4777 0.6217
H14 H 0.5383 0.5743 0.6325
C10 C 0.47278(18) 0.4989(3) 0.6796(3)
H15 H 0.4475 0.4993 0.6327
H16 H 0.4711 0.4426 0.7021
C11 C 0.63827(17) 0.5375(3) 0.7037(3)
H17 H 0.6422 0.5955 0.6859
H18 H 0.6491 0.5005 0.6604
C12 C 0.73426(18) 0.4291(3) 0.8503(3)
H19 H 0.7452 0.3737 0.8624
C13 C 0.69718(18) 0.4427(3) 0.7882(3)
H20 H 0.6833 0.3973 0.7584
C14 C 0.68024(16) 0.5227(3) 0.7695(3)
C15 C 0.7038(2) 0.5866(3) 0.8140(3)
H21 H 0.6944 0.6426 0.8023
C16 C 0.74084(18) 0.5682(3) 0.8753(3)
H22 H 0.7565 0.6126 0.9051
C17 C -0.04370(17) -0.0664(3) 0.5326(3)
H23 H -0.0297 -0.1099 0.5005
C18 C -0.08427(17) -0.0846(3) 0.5895(3)
H24 H -0.0975 -0.1401 0.5963
C19 C -0.10593(16) -0.0231(3) 0.6370(3)
C20 C -0.08482(17) 0.0568(3) 0.6246(3)
H25 H -0.0985 0.1013 0.6558
C21 C -0.04421(16) 0.0709(3) 0.5670(2)
H26 H -0.0302 0.1259 0.5594
C22 C -0.15203(17) -0.0392(3) 0.6986(3)
H27 H -0.1562 -0.0996 0.7065
H28 H -0.1384 -0.0142 0.7476
C23 C -0.25142(19) -0.0114(3) 0.7432(3)
H29 H -0.2338 0.0168 0.7884
H30 H -0.2569 -0.0706 0.7562
C24 C -0.31167(17) 0.0270(3) 0.7246(3)
H31 H -0.3387 0.0226 0.7696
H32 H -0.3066 0.0864 0.7119
C25 C -0.29627(16) -0.0132(3) 0.5899(3)
H33 H -0.2916 0.0453 0.5739
H34 H -0.3134 -0.0446 0.5462
C26 C -0.23593(17) -0.0486(3) 0.6108(2)
H35 H -0.2402 -0.1081 0.6236
H36 H -0.2084 -0.0438 0.5663
C27 C -0.39921(16) 0.0121(3) 0.6339(3)
H37 H -0.4160 -0.0262 0.5949
H38 H -0.3955 0.0675 0.6099
C28 C -0.49749(18) 0.0983(3) 0.7916(2)
H39 H -0.5122 0.1507 0.8078
C29 C -0.46279(17) 0.0940(3) 0.7261(3)
H40 H -0.4534 0.1428 0.6980
C30 C -0.44175(16) 0.0172(3) 0.7019(2)
C31 C -0.45928(18) -0.0528(3) 0.7418(3)
H41 H -0.4480 -0.1064 0.7244
C32 C -0.49311(18) -0.0435(3) 0.8067(3)
H42 H -0.5044 -0.0918 0.8345
C33 C 0.05851(19) 0.1965(3) 0.4709(2)
C34 C 0.09293(16) 0.2736(2) 0.4965(3)
C35 C 0.07698(18) 0.3447(3) 0.4668(2)
H43 H 0.0424 0.3435 0.4349
C36 C 0.10610(17) 0.4281(3) 0.4762(2)
C37 C 0.14222(16) 0.2573(3) 0.5543(2)
H44 H 0.1717 0.2185 0.5316
H45 H 0.1633 0.3100 0.5655
C38 C 0.11880(16) 0.2215(3) 0.6281(2)
C39 C 0.13475(18) -0.0872(3) 0.4328(2)
C40 C 0.16134(16) -0.1709(2) 0.4522(2)
C41 C 0.12702(15) -0.2246(2) 0.4888(2)
H46 H 0.0875 -0.2072 0.5012
C42 C 0.14437(16) -0.3102(3) 0.5126(2)
C43 C 0.22588(16) -0.1841(3) 0.4305(3)
H47 H 0.2416 -0.2315 0.4605
H48 H 0.2490 -0.1344 0.4458
C44 C 0.23738(17) -0.2007(3) 0.3451(3)
Zn1C Zn -0.543372(17) 0.03394(3) 0.94149(3)
Zn2_2 Zn 0.196493(17) -0.46353(3) 0.49191(3)
Zn2A Zn 0.803507(17) 0.46353(3) 0.99191(3)
O10_2 O 0.17626(13) 0.64925(17) 0.46528(18)
N4A N 0.24428(13) 0.5095(2) 0.3947(2)
N8C N 0.01124(14) 0.0309(2) 0.3334(2)
O13 O 0.21497(14) -0.1767(2) 0.15007(19)
H49 H 0.2014(19) -0.1247(15) 0.152(3)
H50 H 0.203(2) -0.195(3) 0.1988(16)
O14 O -0.04641(12) 0.2910(2) 0.65133(19)
H51 H -0.0124(12) 0.268(3) 0.644(3)
H52 H -0.0733(15) 0.286(3) 0.615(2)
O15 O 0.36604(13) 0.7583(2) 0.5486(2)
H53 H 0.3394(18) 0.790(3) 0.576(2)
H54 H 0.368(2) 0.799(2) 0.511(2)
O16 O -0.04158(17) 0.5144(3) 0.4878(3)
H55 H -0.0658 0.4751 0.4780
H56 H -0.0050 0.5068 0.4759
O17 O -0.06951(16) 0.6744(3) 0.5079(3)
H57 H -0.0712(9) 0.6180(13) 0.502(3)
H58 H -0.1097 0.6891 0.5149
O18 O 0.56300(15) 0.3600(2) 0.8078(2)
O19 O 0.26701(16) 0.2703(3) 0.6686(3)
H59 H 0.2439(13) 0.2258(18) 0.674(2)
H60 H 0.2947 0.2575 0.7013
O20 O -0.1861(2) 0.7224(3) 0.5241(3)
H61 H -0.2004 0.7248 0.5693
H62 H -0.208(3) 0.756(4) 0.493(3)
O21 O 0.1378(2) 0.1936(5) 0.8295(3)
O22 O 0.36995(14) -0.2529(2) 0.2193(2)
H63 H 0.3326(13) -0.234(3) 0.238(3)
H64 H 0.360(2) -0.283(3) 0.179(2)
O23 O -0.1181(2) 0.3896(3) 0.4561(3)
H65 H -0.1284(16) 0.3331(13) 0.4673(19)
H66 H -0.0939 0.3755 0.4152
O24 O 0.38107(15) -0.1443(3) 0.4183(2)
H67 H 0.360(2) -0.0938(19) 0.419(4)
H68 H 0.354(2) -0.169(3) 0.387(3)
O25 O -0.02793(17) 0.7723(3) 0.3935(2)
H69 H 0.0051(8) 0.768(3) 0.3680(15)
H70 H -0.0636 0.7829 0.3729
O26 O 0.00369(18) 0.7216(3) 0.6246(3)
H71 H 0.0334(11) 0.692(3) 0.604(2)
H72 H -0.0211 0.7044 0.5871
O27 O 0.07390(15) -0.2469(3) 0.3040(2)
H73 H 0.1134(13) -0.228(4) 0.306(3)
H74 H 0.071(2) -0.249(4) 0.2524(12)
O28 O 0.44782(19) 0.2993(3) 0.7661(3)
H75 H 0.457(3) 0.287(5) 0.7161(16)
H76 H 0.4805(17) 0.307(5) 0.791(3)
O29 O 0.3315(2) 0.2645(6) 0.8033(4)
H77 H 0.356(3) 0.298(3) 0.780(4)
H78 H 0.3024 0.2486 0.8359
O30 O 0.3205(7) 0.0203(6) 0.4203(6)
O31 O -0.2405(4) 0.7980(10) 0.4037(5)
O32? O -0.2736(5) 0.8915(12) 0.4202(6)
loop_
_geom_bond_atom_site_label_1
_geom_bond_atom_site_label_2
_geom_bond_site_symmetry_1
_geom_bond_site_symmetry_2
Zn1 O1 1_555 1_555
Zn2 O4 1_555 1_555
O1 C33 1_555 1_555
O2 C33 1_555 1_555
O3 C36 1_555 1_555
O4 C36 1_555 1_555
O5 C38 1_555 1_555
O6 C38 1_555 1_555
O7 Zn1 1_555 1_555
O8 C39 1_555 1_555
O9 C42 1_555 1_555
O10 C42 1_555 1_555
O11 C44 1_555 1_555
O12 C44 1_555 1_555
N1 Zn2 1_555 1_555
N2 H1 1_555 1_555
N3 C8 1_555 1_555
N4 C12 1_555 1_555
N5 Zn1 1_555 1_555
N6 C22 1_555 1_555
N7 H2 1_555 1_555
N8 C28 1_555 1_555
C1 N1 1_555 1_555
H3 C1 1_555 1_555
C2 C1 1_555 1_555
H4 C2 1_555 1_555
C3 C2 1_555 1_555
C4 C3 1_555 1_555
H5 C4 1_555 1_555
C5 N1 1_555 1_555
H6 C5 1_555 1_555
C6 N2 1_555 1_555
H7 C6 1_555 1_555
H8 C6 1_555 1_555
C7 N2 1_555 1_555
H9 C7 1_555 1_555
H10 C7 1_555 1_555
C8 C7 1_555 1_555
H11 C8 1_555 1_555
H12 C8 1_555 1_555
C9 N3 1_555 1_555
H13 C9 1_555 1_555
H14 C9 1_555 1_555
C10 N2 1_555 1_555
H15 C10 1_555 1_555
H16 C10 1_555 1_555
C11 N3 1_555 1_555
H17 C11 1_555 1_555
H18 C11 1_555 1_555
C12 H19 1_555 1_555
C13 C12 1_555 1_555
H20 C13 1_555 1_555
C14 C11 1_555 1_555
C15 C14 1_555 1_555
H21 C15 1_555 1_555
C16 N4 1_555 1_555
H22 C16 1_555 1_555
C17 N5 1_555 1_555
H23 C17 1_555 1_555
C18 C17 1_555 1_555
H24 C18 1_555 1_555
C19 C18 1_555 1_555
C20 C19 1_555 1_555
H25 C20 1_555 1_555
C21 N5 1_555 1_555
H26 C21 1_555 1_555
C22 C19 1_555 1_555
H27 C22 1_555 1_555
H28 C22 1_555 1_555
C23 N6 1_555 1_555
H29 C23 1_555 1_555
H30 C23 1_555 1_555
C24 N7 1_555 1_555
H31 C24 1_555 1_555
H32 C24 1_555 1_555
C25 N7 1_555 1_555
H33 C25 1_555 1_555
H34 C25 1_555 1_555
C26 N6 1_555 1_555
H35 C26 1_555 1_555
H36 C26 1_555 1_555
C27 N7 1_555 1_555
H37 C27 1_555 1_555
H38 C27 1_555 1_555
C28 H39 1_555 1_555
C29 C28 1_555 1_555
H40 C29 1_555 1_555
C30 C27 1_555 1_555
C31 C30 1_555 1_555
H41 C31 1_555 1_555
C32 N8 1_555 1_555
H42 C32 1_555 1_555
C33 C34 1_555 1_555
C34 C35 1_555 1_555
C35 H43 1_555 1_555
C36 C35 1_555 1_555
C37 C34 1_555 1_555
H44 C37 1_555 1_555
H45 C37 1_555 1_555
C38 C37 1_555 1_555
C39 O7 1_555 1_555
C40 C39 1_555 1_555
C41 C40 1_555 1_555
H46 C41 1_555 1_555
C42 C41 1_555 1_555
C43 C40 1_555 1_555
H47 C43 1_555 1_555
H48 C43 1_555 1_555
C44 C43 1_555 1_555
O13 H49 1_555 1_555
H50 O13 1_555 1_555
O14 H51 1_555 1_555
H52 O14 1_555 1_555
O15 H53 1_555 1_555
H54 O15 1_555 1_555
O16 H55 1_555 1_555
H56 O16 1_555 1_555
O17 H57 1_555 1_555
H58 O17 1_555 1_555
O19 H59 1_555 1_555
H60 O19 1_555 1_555
O20 H61 1_555 1_555
H62 O20 1_555 1_555
O22 H63 1_555 1_555
H64 O22 1_555 1_555
O23 H65 1_555 1_555
H66 O23 1_555 1_555
O24 H67 1_555 1_555
H68 O24 1_555 1_555
O25 H69 1_555 1_555
H70 O25 1_555 1_555
O26 H71 1_555 1_555
H72 O26 1_555 1_555
O27 H73 1_555 1_555
H74 O27 1_555 1_555
O28 H75 1_555 1_555
H76 O28 1_555 1_555
O29 H77 1_555 1_555
H78 O29 1_555 1_555
Zn1C N8 1_555 1_555
Zn2_2 O10 1_555 1_555
Zn2A N4 1_555 1_555
O10_2 Zn2 1_555 1_555
N4A Zn2 1_555 1_555
N8C Zn1 1_555 1_555
C3 C6 1_555 1_555
C4 C5 1_555 1_555
C9 C10 1_555 1_555
C13 C14 1_555 1_555
C15 C16 1_555 1_555
C20 C21 1_555 1_555
C23 C24 1_555 1_555
C25 C26 1_555 1_555
C29 C30 1_555 1_555
C31 C32 1_555 1_555

#END
