
#######################################################################
#
#                 Cambridge Crystallographic Data Centre
#                                CCDC 
#
#######################################################################
#
# If this CIF has been generated from an entry in the Cambridge 
# Structural Database, then it will include bibliographic, chemical, 
# crystal, experimental, refinement or atomic coordinate data resulting 
# from the CCDC's data processing and validation procedures.
#
#######################################################################

data_TIGZEQ
_symmetry_cell_setting           monoclinic
_symmetry_space_group_name_H-M   'C 2/c'
_symmetry_Int_Tables_number      15
_space_group_name_Hall           '-C 2yn'
loop_
_symmetry_equiv_pos_site_id
_symmetry_equiv_pos_as_xyz
1 x,y,z
2 -x,y,1/2-z
3 1/2+x,1/2+y,z
4 1/2-x,1/2+y,1/2-z
5 -x,-y,-z
6 x,-y,1/2+z
7 1/2-x,1/2-y,-z
8 1/2+x,1/2-y,1/2+z
_cell_length_a                   20.460(4)
_cell_length_b                   12.086(2)
_cell_length_c                   20.304(4)
_cell_angle_alpha                90
_cell_angle_beta                 106.684(5)
_cell_angle_gamma                90
_cell_volume                     4809.4
loop_
_atom_site_label
_atom_site_type_symbol
_atom_site_fract_x
_atom_site_fract_y
_atom_site_fract_z
Mo1 Mo 0.121257(18) 1.08588(3) -0.011130(17)
Mo2 Mo 0.204263(18) 1.19644(3) 0.135439(17)
Mo3 Mo 0.342046(18) 1.33925(3) 0.150827(17)
Cu1 Cu 0.16119(3) 0.91857(4) 0.16713(3)
As1 As 0.30087(2) 1.13792(3) 0.011277(19)
O1 O 0.12631(15) 0.9619(2) 0.03106(14)
O2 O 0.15421(14) 1.0465(2) -0.08622(13)
O3 O 0.03637(14) 1.1005(2) -0.05406(14)
O4 O 0.34961(14) 1.2434(2) 0.05453(13)
O5 O 0.12241(14) 1.1883(2) 0.06162(13)
O6 O 0.23380(14) 1.1107(2) 0.04299(13)
O7 O 0.27041(14) 1.1669(2) -0.07491(13)
O8 O 0.17825(15) 1.2882(2) 0.18630(14)
O9 O 0.30108(14) 1.2043(2) 0.16788(13)
O10 O 0.42598(14) 1.3119(2) 0.18837(14)
O11 O 0.31845(15) 1.4205(2) 0.21006(14)
O12 O 0.19693(14) 1.0676(2) 0.17185(14)
O13 O 0.06997(17) 0.9787(3) 0.15443(18)
H1 H 0.065(3) 1.023(3) 0.182(2)
H2 H 0.0368(19) 0.962(4) 0.1208(18)
N1 N 0.13235(18) 0.7614(3) 0.16528(17)
N2 N 0.24882(17) 0.8505(3) 0.16674(16)
N3 N 0.46929(19) 0.7202(3) 0.0393(2)
H3 H 0.453(2) 0.661(3) 0.016(2)
H4 H 0.5125(12) 0.730(4) 0.042(2)
C1 C 0.0722(2) 0.7241(4) 0.1697(2)
H5 H 0.0367 0.7758 0.1677
C2 C 0.0600(2) 0.6131(4) 0.1772(2)
H6 H 0.0173 0.5888 0.1817
C3 C 0.1110(2) 0.5386(4) 0.1781(2)
H7 H 0.1035 0.4617 0.1823
C4 C 0.1733(2) 0.5754(3) 0.1728(2)
H8 H 0.2088 0.5245 0.1730
C5 C 0.1829(2) 0.6879(3) 0.1673(2)
C6 C 0.2482(2) 0.7386(3) 0.1656(2)
C7 C 0.3059(2) 0.6786(4) 0.1648(2)
H9 H 0.3047 0.6001 0.1631
C8 C 0.3648(2) 0.7350(4) 0.1663(2)
H10 H 0.4045 0.6953 0.1651
C9 C 0.3662(2) 0.8496(4) 0.1698(2)
H11 H 0.4070 0.8893 0.1726
C10 C 0.3066(2) 0.9046(3) 0.1690(2)
H12 H 0.3066 0.9832 0.1700
C11 C 0.3537(2) 1.0080(3) 0.01994(19)
C12 C 0.4248(2) 1.0140(3) 0.0432(2)
H13 H 0.4469 1.0833 0.0552
C13 C 0.3214(2) 0.9067(3) 0.0007(2)
H14 H 0.2730 0.9032 -0.0157
C14 C 0.4627(2) 0.9181(3) 0.0487(2)
H15 H 0.5111 0.9217 0.0651
C15 C 0.3597(2) 0.8116(3) 0.0054(2)
H16 H 0.3375 0.7428 -0.0084
C16 C 0.4308(2) 0.8156(3) 0.0304(2)
Mo1F Mo 0.378743(18) 1.41412(3) 0.011130(17)
Mo2F Mo 0.295737(18) 1.30356(3) -0.135439(17)
Mo3F Mo 0.157954(18) 1.16075(3) -0.150827(17)
Cu1C Cu 0.33881(3) 1.41857(4) 0.33287(3)
O2F O 0.34579(14) 1.4535(2) 0.08622(13)
O4F O 0.15039(14) 1.2566(2) -0.05453(13)
O7F O 0.22959(14) 1.3331(2) 0.07491(13)
O11C O 0.18155(15) 0.9205(2) 0.28994(14)
O14 O 1.0000 0.9714(7) 0.7500
H17 H 0.984(5) 0.940(7) 0.712(3)
H17A H 1.016(5) 0.940(7) 0.788(3)
O15 O 0.9598(4) 0.8127(6) 0.8203(4)
H18 H 0.974(5) 0.748(4) 0.806(5)
H19 H 0.977(5) 0.806(8) 0.8669(13)
loop_
_geom_bond_atom_site_label_1
_geom_bond_atom_site_label_2
_geom_bond_site_symmetry_1
_geom_bond_site_symmetry_2
Mo1 O1 1_555 1_555
Mo2 O5 1_555 1_555
Mo3 O4 1_555 1_555
Cu1 O1 1_555 1_555
As1 O4 1_555 1_555
O2 Mo1 1_555 1_555
O3 Mo1 1_555 1_555
O4 Mo1F 1_555 1_555
O5 Mo1 1_555 1_555
O6 Mo1 1_555 1_555
O7 As1 1_555 1_555
O8 Mo2 1_555 1_555
O9 Mo2 1_555 1_555
O10 Mo3 1_555 1_555
O11 Mo3 1_555 1_555
O12 Mo2 1_555 1_555
O13 Cu1 1_555 1_555
H1 O13 1_555 1_555
H2 O13 1_555 1_555
N1 Cu1 1_555 1_555
N2 Cu1 1_555 1_555
N3 H3 1_555 1_555
H4 N3 1_555 1_555
C1 N1 1_555 1_555
H5 C1 1_555 1_555
C2 C1 1_555 1_555
H6 C2 1_555 1_555
C3 C2 1_555 1_555
H7 C3 1_555 1_555
C4 C3 1_555 1_555
H8 C4 1_555 1_555
C5 N1 1_555 1_555
C6 N2 1_555 1_555
C7 C6 1_555 1_555
H9 C7 1_555 1_555
C8 C7 1_555 1_555
H10 C8 1_555 1_555
C9 C8 1_555 1_555
H11 C9 1_555 1_555
C10 N2 1_555 1_555
H12 C10 1_555 1_555
C11 As1 1_555 1_555
C12 C11 1_555 1_555
H13 C12 1_555 1_555
C13 C11 1_555 1_555
H14 C13 1_555 1_555
C14 C12 1_555 1_555
H15 C14 1_555 1_555
C15 C13 1_555 1_555
H16 C15 1_555 1_555
C16 N3 1_555 1_555
O14 H17 1_555 1_555
O15 H18 1_555 1_555
H19 O15 1_555 1_555
Mo1F O2F 1_555 1_555
Mo2F O7 1_555 1_555
Mo3F O2 1_555 1_555
Cu1C O11 1_555 1_555
O2F Mo3 1_555 1_555
O4F Mo1 1_555 1_555
O7F Mo2 1_555 1_555
O11C Cu1 1_555 1_555
H17A O14 1_555 1_555
Mo2 O6 1_555 1_555
Mo3 O9 1_555 1_555
Mo3 O7F 1_555 1_555
Cu1 O12 1_555 1_555
As1 O6 1_555 1_555
O7 Mo3F 1_555 1_555
C4 C5 1_555 1_555
C5 C6 1_555 1_555
C9 C10 1_555 1_555
C14 C16 1_555 1_555
C15 C16 1_555 1_555
Mo3F O4F 1_555 1_555

#END
