
#######################################################################
#
#                 Cambridge Crystallographic Data Centre
#                                CCDC 
#
#######################################################################
#
# If this CIF has been generated from an entry in the Cambridge 
# Structural Database, then it will include bibliographic, chemical, 
# crystal, experimental, refinement or atomic coordinate data resulting 
# from the CCDC's data processing and validation procedures.
#
#######################################################################

data_TIHCUK
_symmetry_cell_setting           orthorhombic
_symmetry_space_group_name_H-M   'F d d 2'
_symmetry_Int_Tables_number      43
_space_group_name_Hall           'F 2 -2d'
loop_
_symmetry_equiv_pos_site_id
_symmetry_equiv_pos_as_xyz
1 x,y,z
2 -x,-y,z
3 1/4+x,1/4-y,1/4+z
4 1/4-x,1/4+y,1/4+z
5 x,1/2+y,1/2+z
6 -x,1/2-y,1/2+z
7 1/4+x,3/4-y,3/4+z
8 1/4-x,3/4+y,3/4+z
9 1/2+x,y,1/2+z
10 1/2-x,-y,1/2+z
11 3/4+x,1/4-y,3/4+z
12 3/4-x,1/4+y,3/4+z
13 1/2+x,1/2+y,z
14 1/2-x,1/2-y,z
15 3/4+x,3/4-y,1/4+z
16 3/4-x,3/4+y,1/4+z
_cell_length_a                   12.3697(9)
_cell_length_b                   34.701(3)
_cell_length_c                   11.4064(11)
_cell_angle_alpha                90
_cell_angle_beta                 90
_cell_angle_gamma                90
_cell_volume                     4896.09
loop_
_atom_site_label
_atom_site_type_symbol
_atom_site_fract_x
_atom_site_fract_y
_atom_site_fract_z
Zn1 Zn 0.0000 1.0000 0.04067(4)
O1 O -0.24755(19) 0.92475(8) -0.0018(3)
O2 O -0.15390(16) 0.97797(5) 0.03283(18)
O3 O -0.1594(2) 0.85954(6) 0.0094(3)
H1 H -0.2068 0.8758 0.0007
N1 N 0.03223(17) 0.93642(6) 0.0428(3)
N2 N 0.0000 1.0000 0.2289(4)
N3 N 0.0000 1.0000 0.8496(4)
C1 C -0.1616(3) 0.94218(8) 0.0178(2)
C2 C -0.0605(2) 0.91850(8) 0.0293(3)
C3 C -0.0647(3) 0.87695(9) 0.0254(3)
N4 N 0.0205(2) 0.85546(6) 0.0414(4)
C4 C 0.1162(3) 0.87402(8) 0.0593(3)
C5 C 0.1238(2) 0.91482(8) 0.0592(3)
C6 C 0.2240(3) 0.93252(11) 0.0798(3)
H2 H 0.2294 0.9593 0.0792
C7 C 0.3131(3) 0.91067(11) 0.1005(3)
H3 H 0.3793 0.9225 0.1143
C8 C 0.3059(3) 0.87018(11) 0.1011(3)
H4 H 0.3672 0.8555 0.1161
C9 C 0.2100(3) 0.85241(10) 0.0799(3)
H5 H 0.2066 0.8256 0.0790
C10 C 0.0915(3) 0.99622(7) 0.2910(3)
H6 H 0.1561 0.9938 0.2501
C11 C 0.0954(3) 0.99569(9) 0.4112(3)
H7 H 0.1610 0.9925 0.4498
C12 C 0.0000 1.0000 0.4746(5)
C13 C 0.0000 1.0000 0.6037(5)
C14 C 0.0779(2) 0.98007(9) 0.6677(2)
H8 H 0.1315 0.9662 0.6291
C15 C 0.0753(2) 0.98098(8) 0.7884(3)
H9 H 0.1285 0.9677 0.8294
C10A C -0.0915(3) 1.00378(7) 0.2910(3)
H6A H -0.1561 1.0062 0.2501
C11A C -0.0954(3) 1.00431(9) 0.4112(3)
H7A H -0.1610 1.0075 0.4498
C14A C -0.0779(2) 1.01993(9) 0.6677(2)
H8A H -0.1315 1.0338 0.6291
C15A C -0.0753(2) 1.01902(8) 0.7884(3)
H9A H -0.1285 1.0323 0.8294
O1A O 0.24755(19) 1.07525(8) -0.0018(3)
O2A O 0.15390(16) 1.02203(5) 0.03283(18)
O3A O 0.1594(2) 1.14046(6) 0.0094(3)
H1A H 0.2068 1.1242 0.0007
N1A N -0.03223(17) 1.06358(6) 0.0428(3)
C1A C 0.1616(3) 1.05782(8) 0.0178(2)
C2A C 0.0605(2) 1.08150(8) 0.0293(3)
C3A C 0.0647(3) 1.12305(9) 0.0254(3)
N4A N -0.0205(2) 1.14454(6) 0.0414(4)
C4A C -0.1162(3) 1.12598(8) 0.0593(3)
C5A C -0.1238(2) 1.08518(8) 0.0592(3)
C6A C -0.2240(3) 1.06748(11) 0.0798(3)
H2A H -0.2294 1.0407 0.0792
C7A C -0.3131(3) 1.08933(11) 0.1005(3)
H3A H -0.3793 1.0775 0.1143
C8A C -0.3059(3) 1.12982(11) 0.1011(3)
H4A H -0.3672 1.1445 0.1161
C9A C -0.2100(3) 1.14759(10) 0.0799(3)
H5A H -0.2066 1.1744 0.0790
Zn1_2 Zn 0.0000 1.0000 1.04067(4)
N3_2 N 0.0000 1.0000 -0.1504(4)
loop_
_geom_bond_atom_site_label_1
_geom_bond_atom_site_label_2
_geom_bond_site_symmetry_1
_geom_bond_site_symmetry_2
Zn1 O2 1_555 1_555
O1 C1 1_555 1_555
O2 C1 1_555 1_555
O3 H1 1_555 1_555
N1 Zn1 1_555 1_555
N2 Zn1 1_555 1_555
N3 C15 1_555 1_555
C1 C2 1_555 1_555
C2 N1 1_555 1_555
C3 O3 1_555 1_555
N4 C3 1_555 1_555
C4 N4 1_555 1_555
C5 N1 1_555 1_555
C6 C5 1_555 1_555
H2 C6 1_555 1_555
C7 C6 1_555 1_555
H3 C7 1_555 1_555
C8 C7 1_555 1_555
H4 C8 1_555 1_555
C9 C4 1_555 1_555
H5 C9 1_555 1_555
C10 N2 1_555 1_555
H6 C10 1_555 1_555
C11 C10 1_555 1_555
H7 C11 1_555 1_555
C12 C11 1_555 1_555
C13 C12 1_555 1_555
C14 C13 1_555 1_555
H8 C14 1_555 1_555
C15 C14 1_555 1_555
H9 C15 1_555 1_555
C10A N2 1_555 1_555
H6A C10A 1_555 1_555
C11A C12 1_555 1_555
H7A C11A 1_555 1_555
C14A C13 1_555 1_555
H8A C14A 1_555 1_555
C15A N3 1_555 1_555
H9A C15A 1_555 1_555
O1A C1A 1_555 1_555
O2A Zn1 1_555 1_555
O3A H1A 1_555 1_555
N1A Zn1 1_555 1_555
C1A O2A 1_555 1_555
C2A N1A 1_555 1_555
C3A O3A 1_555 1_555
N4A C3A 1_555 1_555
C4A N4A 1_555 1_555
C5A N1A 1_555 1_555
C6A C5A 1_555 1_555
H2A C6A 1_555 1_555
C7A C6A 1_555 1_555
H3A C7A 1_555 1_555
C8A C7A 1_555 1_555
H4A C8A 1_555 1_555
C9A C4A 1_555 1_555
H5A C9A 1_555 1_555
Zn1_2 N3 1_555 1_555
N3_2 Zn1 1_555 1_555
C2 C3 1_555 1_555
C4 C5 1_555 1_555
C8 C9 1_555 1_555
C10A C11A 1_555 1_555
C14A C15A 1_555 1_555
C1A C2A 1_555 1_555
C2A C3A 1_555 1_555
C4A C5A 1_555 1_555
C8A C9A 1_555 1_555

#END
