
#######################################################################
#
#                 Cambridge Crystallographic Data Centre
#                                CCDC 
#
#######################################################################
#
# If this CIF has been generated from an entry in the Cambridge 
# Structural Database, then it will include bibliographic, chemical, 
# crystal, experimental, refinement or atomic coordinate data resulting 
# from the CCDC's data processing and validation procedures.
#
#######################################################################

data_TIHCEU
_symmetry_cell_setting           triclinic
_symmetry_space_group_name_H-M   'P -1'
_symmetry_Int_Tables_number      2
_space_group_name_Hall           '-P 1'
loop_
_symmetry_equiv_pos_site_id
_symmetry_equiv_pos_as_xyz
1 x,y,z
2 -x,-y,-z
_cell_length_a                   10.6851(8)
_cell_length_b                   11.4951(9)
_cell_length_c                   14.6721(12)
_cell_angle_alpha                66.9840(10)
_cell_angle_beta                 87.5900(10)
_cell_angle_gamma                68.9510(10)
_cell_volume                     1537.8
loop_
_atom_site_label
_atom_site_type_symbol
_atom_site_fract_x
_atom_site_fract_y
_atom_site_fract_z
Cu1 Cu 0.50505(3) 0.73376(3) 0.51223(2)
O1 O 0.68384(17) 0.73337(18) 0.52541(14)
O2 O 0.71964(19) 0.7028(2) 0.38582(18)
O3 O 1.32539(16) 0.73438(17) 0.50490(13)
O4 O 1.28534(18) 0.7867(2) 0.63669(15)
N1 N 0.5747(2) 0.5339(2) 0.60980(15)
N2 N 0.4367(2) 0.9303(2) 0.40893(15)
N3 N 0.4384(2) 1.6408(2) 0.04644(18)
H1 H 0.473(3) 1.707(2) 0.014(2)
N4 N 0.7092(3) 0.1310(2) 0.8241(2)
H2 H 0.792(2) 0.105(3) 0.849(2)
N5 N 0.2943(2) 1.3322(2) 0.19064(17)
H3 H 0.214(2) 1.353(3) 0.163(2)
N6 N 0.5446(3) -0.1672(2) 0.95684(18)
C1 C 0.3121(3) 0.9943(3) 0.35881(19)
H4 H 0.2536 0.9453 0.3729
C2 C 0.9689(2) 0.6228(2) 0.5779(2)
H5 H 0.9738 0.5287 0.5962
H6 H 0.9151 0.6580 0.6246
C3 C 1.0375(2) 0.8561(2) 0.45024(19)
H7 H 1.0323 0.9504 0.4320
H8 H 1.0917 0.8212 0.4036
C4 C 1.1068(2) 0.7670(2) 0.55667(18)
H9 H 1.0520 0.8055 0.6023
C5 C 0.5143(3) 1.0047(3) 0.3854(2)
H10 H 0.6023 0.9637 0.4203
C6 C 0.6949(3) 0.4717(3) 0.6664(2)
H11 H 0.7513 0.5221 0.6575
C7 C 1.2485(2) 0.7640(2) 0.56870(19)
C8 C 0.9000(2) 0.7116(2) 0.4719(2)
H12 H 0.9553 0.6727 0.4266
C9 C 0.7586(2) 0.7144(2) 0.4585(2)
C10 C 1.1113(2) 0.6218(2) 0.5871(2)
H13 H 1.1670 0.5808 0.5439
H14 H 1.1535 0.5655 0.6569
C11 C 0.2647(3) 1.1252(3) 0.2889(2)
H15 H 0.1748 1.1650 0.2572
C12 C 0.5005(3) 0.4567(3) 0.62334(18)
H16 H 0.4163 0.4969 0.5832
C13 C 0.8959(2) 0.8568(2) 0.4405(2)
H17 H 0.8545 0.9122 0.3705
H18 H 0.8395 0.8988 0.4830
C14 C 0.4645(3) -0.0390(3) 0.8996(2)
H19 H 0.3704 -0.0187 0.8899
C15 C 0.5109(3) 0.0646(3) 0.8543(2)
H20 H 0.4497 0.1540 0.8150
C16 C 0.7402(3) 0.3402(3) 0.7358(2)
H21 H 0.8263 0.3015 0.7731
C17 C 0.4764(3) 1.1357(3) 0.3147(2)
H22 H 0.5381 1.1812 0.3008
C18 C 0.6478(3) 0.0380(3) 0.8663(2)
C19 C 0.3494(3) 1.4297(3) 0.14522(19)
C20 C 0.4758(3) 1.4230(3) 0.1739(2)
H23 H 0.5335 1.3452 0.2282
C21 C 0.3474(2) 1.2014(3) 0.26356(19)
C22 C 0.6597(3) 0.2619(3) 0.7520(2)
C23 C 0.5376(3) 0.3242(3) 0.69079(19)
H24 H 0.4807 0.2751 0.6959
C24 C 0.5155(3) 1.5295(3) 0.1232(2)
H25 H 0.6014 1.5241 0.1434
C25 C 0.7317(3) -0.0958(3) 0.9286(2)
H26 H 0.8259 -0.1187 0.9408
C26 C 0.6764(3) -0.1926(3) 0.9715(2)
H27 H 0.7343 -0.2821 1.0138
C27 C 0.3175(3) 1.6496(3) 0.0174(2)
H28 H 0.2628 1.7288 -0.0374
C28 C 0.2702(3) 1.5474(3) 0.0645(2)
H29 H 0.1836 1.5565 0.0423
Cu1_2 Cu 1.50505(3) 0.73376(3) 0.51223(2)
O3_2 O 0.32539(16) 0.73438(17) 0.50490(13)
O5 O 1.1220(3) 0.8270(3) 0.7833(2)
H30 H 1.168(4) 0.818(4) 0.738(2)
H31 H 1.102(4) 0.760(3) 0.816(3)
O6 O 0.8501(4) 0.7687(3) 0.2151(2)
H32 H 0.889(4) 0.706(4) 0.197(3)
H33 H 0.794(4) 0.746(5) 0.253(3)
O7 O -0.1773(2) 1.4911(3) 0.1468(2)
O8 O 0.0217(2) 1.3742(2) 0.12498(19)
O9 O -0.0116(2) 1.5546(2) 0.1505(2)
N7 N -0.0569(2) 1.4740(3) 0.14068(19)
O10 O 1.0128(3) 0.0365(4) 0.8401(3)
O12 O 0.9283(5) 0.0661(6) 0.9535(4)
O11? O 1.1508(6) -0.0006(5) 0.8624(4)
loop_
_geom_bond_atom_site_label_1
_geom_bond_atom_site_label_2
_geom_bond_site_symmetry_1
_geom_bond_site_symmetry_2
Cu1 O1 1_555 1_555
O1 C9 1_555 1_555
O2 C9 1_555 1_555
O3 C7 1_555 1_555
O4 C7 1_555 1_555
N1 Cu1 1_555 1_555
N2 Cu1 1_555 1_555
N3 H1 1_555 1_555
N4 H2 1_555 1_555
N5 H3 1_555 1_555
N6 C14 1_555 1_555
C1 N2 1_555 1_555
H4 C1 1_555 1_555
C2 H5 1_555 1_555
H6 C2 1_555 1_555
C3 H7 1_555 1_555
H8 C3 1_555 1_555
C4 C3 1_555 1_555
H9 C4 1_555 1_555
C5 N2 1_555 1_555
H10 C5 1_555 1_555
C6 N1 1_555 1_555
H11 C6 1_555 1_555
C7 C4 1_555 1_555
C8 C2 1_555 1_555
H12 C8 1_555 1_555
C9 C8 1_555 1_555
C10 C2 1_555 1_555
H13 C10 1_555 1_555
H14 C10 1_555 1_555
C11 C1 1_555 1_555
H15 C11 1_555 1_555
C12 N1 1_555 1_555
H16 C12 1_555 1_555
C13 C3 1_555 1_555
H17 C13 1_555 1_555
H18 C13 1_555 1_555
C14 H19 1_555 1_555
C15 C14 1_555 1_555
H20 C15 1_555 1_555
C16 C6 1_555 1_555
H21 C16 1_555 1_555
C17 C5 1_555 1_555
H22 C17 1_555 1_555
C18 N4 1_555 1_555
C19 N5 1_555 1_555
C20 C19 1_555 1_555
H23 C20 1_555 1_555
C21 N5 1_555 1_555
C22 N4 1_555 1_555
C23 C12 1_555 1_555
H24 C23 1_555 1_555
C24 N3 1_555 1_555
H25 C24 1_555 1_555
C25 C18 1_555 1_555
H26 C25 1_555 1_555
C26 N6 1_555 1_555
H27 C26 1_555 1_555
C27 N3 1_555 1_555
H28 C27 1_555 1_555
C28 C19 1_555 1_555
H29 C28 1_555 1_555
O5 H30 1_555 1_555
H31 O5 1_555 1_555
O6 H32 1_555 1_555
H33 O6 1_555 1_555
O7 N7 1_555 1_555
O8 N7 1_555 1_555
O9 N7 1_555 1_555
Cu1_2 O3 1_555 1_555
O3_2 Cu1 1_555 1_555
C4 C10 1_555 1_555
C8 C13 1_555 1_555
C11 C21 1_555 1_555
C15 C18 1_555 1_555
C16 C22 1_555 1_555
C17 C21 1_555 1_555
C20 C24 1_555 1_555
C22 C23 1_555 1_555
C25 C26 1_555 1_555
C27 C28 1_555 1_555

#END
