
#######################################################################
#
#                 Cambridge Crystallographic Data Centre
#                                CCDC 
#
#######################################################################
#
# If this CIF has been generated from an entry in the Cambridge 
# Structural Database, then it will include bibliographic, chemical, 
# crystal, experimental, refinement or atomic coordinate data resulting 
# from the CCDC's data processing and validation procedures.
#
#######################################################################

data_TIHCIY
_symmetry_cell_setting           triclinic
_symmetry_space_group_name_H-M   'P -1'
_symmetry_Int_Tables_number      2
_space_group_name_Hall           '-P 1'
loop_
_symmetry_equiv_pos_site_id
_symmetry_equiv_pos_as_xyz
1 x,y,z
2 -x,-y,-z
_cell_length_a                   8.443(7)
_cell_length_b                   8.843(9)
_cell_length_c                   12.705(12)
_cell_angle_alpha                98.12(2)
_cell_angle_beta                 94.77(3)
_cell_angle_gamma                105.328(16)
_cell_volume                     898.418
loop_
_atom_site_label
_atom_site_type_symbol
_atom_site_fract_x
_atom_site_fract_y
_atom_site_fract_z
Cu1 Cu 0.50336(6) 0.96915(6) 0.10054(4)
O1 O 0.4462(4) 1.1717(4) 0.1258(2)
O2 O 0.4298(4) 1.2203(4) -0.0443(2)
O3 O -0.2688(4) 1.1424(4) -0.0393(2)
O4 O -0.2557(4) 1.0908(4) 0.1299(2)
N1 N 0.4490(5) 0.9119(4) 0.2575(3)
N2 N 0.2707(5) 0.7589(5) 0.5365(3)
H1 H 0.241(6) 0.829(5) 0.584(3)
N3 N 0.1466(5) 0.2987(5) 0.6161(3)
C1 C 0.1594(6) 0.3214(6) 0.5149(4)
H2 H 0.1381 0.2300 0.4609
C2 C 0.3292(6) 0.8053(5) 0.4426(3)
C3 C -0.0207(5) 1.2761(5) 0.0791(3)
H3 H -0.0368 1.3824 0.1053
C4 C 0.1795(7) 0.4320(6) 0.6899(4)
H4 H 0.1722 0.4197 0.7626
C5 C 0.2234(6) 0.5860(6) 0.6677(4)
H5 H 0.2448 0.6753 0.7234
C6 C -0.1945(5) 1.1580(5) 0.0541(3)
C7 C 0.2353(5) 0.6057(5) 0.5607(4)
C8 C 0.3496(6) 0.9806(6) 0.3130(4)
H6 H 0.3195 1.0667 0.2881
C9 C 0.3483(5) 1.3922(5) 0.0918(3)
H7 H 0.4464 1.4880 0.1112
C10 C 0.2889(6) 0.9324(6) 0.4046(4)
H8 H 0.2203 0.9857 0.4412
C11 C 0.0931(5) 1.2420(5) 0.1692(3)
H9 H 0.0380 1.2376 0.2350
H10 H 0.1135 1.1376 0.1471
C12 C 0.4122(5) 1.2493(5) 0.0545(3)
C13 C 0.4363(5) 0.7368(5) 0.3867(3)
H11 H 0.4713 0.6528 0.4111
C14 C 0.0655(5) 1.2932(5) -0.0231(3)
H12 H -0.0075 1.3201 -0.0783
H13 H 0.0852 1.1908 -0.0521
C15 C 0.2588(5) 1.3730(5) 0.1927(3)
H14 H 0.3316 1.3472 0.2484
H15 H 0.2384 1.4754 0.2213
C16 C 0.4903(5) 0.7919(5) 0.2962(3)
H16 H 0.5611 0.7421 0.2590
C17 C 0.2016(6) 0.4691(6) 0.4834(4)
H17 H 0.2076 0.4772 0.4099
C18 C 0.2322(5) 1.4248(5) 0.0020(4)
H18 H 0.2112 1.5288 0.0245
H19 H 0.2873 1.4305 -0.0637
Cu1_2 Cu -0.49664(6) 0.96915(6) 0.10054(4)
Cu1A Cu -0.50336(6) 1.03085(6) -0.10054(4)
Cu1A_2 Cu 0.49664(6) 1.03085(6) -0.10054(4)
O2A O 0.5702(4) 0.7797(4) 0.0443(2)
O3A O 0.2688(4) 0.8576(4) 0.0393(2)
O4_2 O 0.7443(4) 1.0908(4) 0.1299(2)
O5 O -0.1224(4) 1.0179(4) 0.3400(3)
H20 H -0.159(6) 1.025(6) 0.278(2)
H21 H -0.120(7) 0.924(3) 0.340(4)
loop_
_geom_bond_atom_site_label_1
_geom_bond_atom_site_label_2
_geom_bond_site_symmetry_1
_geom_bond_site_symmetry_2
Cu1 O1 1_555 1_555
O1 C12 1_555 1_555
O2 C12 1_555 1_555
O3 C6 1_555 1_555
O4 C6 1_555 1_555
N1 Cu1 1_555 1_555
N2 H1 1_555 1_555
N3 C1 1_555 1_555
C1 H2 1_555 1_555
C2 N2 1_555 1_555
C3 H3 1_555 1_555
C4 N3 1_555 1_555
H4 C4 1_555 1_555
C5 C4 1_555 1_555
H5 C5 1_555 1_555
C6 C3 1_555 1_555
C7 N2 1_555 1_555
C8 N1 1_555 1_555
H6 C8 1_555 1_555
C9 H7 1_555 1_555
C10 C2 1_555 1_555
H8 C10 1_555 1_555
C11 C3 1_555 1_555
H9 C11 1_555 1_555
H10 C11 1_555 1_555
C12 C9 1_555 1_555
C13 C2 1_555 1_555
H11 C13 1_555 1_555
C14 C3 1_555 1_555
H12 C14 1_555 1_555
H13 C14 1_555 1_555
C15 C9 1_555 1_555
H14 C15 1_555 1_555
H15 C15 1_555 1_555
C16 N1 1_555 1_555
H16 C16 1_555 1_555
C17 C1 1_555 1_555
H17 C17 1_555 1_555
C18 C9 1_555 1_555
H18 C18 1_555 1_555
H19 C18 1_555 1_555
O5 H20 1_555 1_555
H21 O5 1_555 1_555
Cu1_2 O4 1_555 1_555
Cu1A O3 1_555 1_555
Cu1A_2 Cu1 1_555 1_555
O2A Cu1 1_555 1_555
O3A Cu1 1_555 1_555
O4_2 Cu1 1_555 1_555
O2 Cu1A_2 1_555 1_555
C5 C7 1_555 1_555
C7 C17 1_555 1_555
C8 C10 1_555 1_555
C11 C15 1_555 1_555
C13 C16 1_555 1_555
C14 C18 1_555 1_555
Cu1_2 Cu1A 1_555 1_555

#END
