
#######################################################################
#
#                 Cambridge Crystallographic Data Centre
#                                CCDC 
#
#######################################################################
#
# If this CIF has been generated from an entry in the Cambridge 
# Structural Database, then it will include bibliographic, chemical, 
# crystal, experimental, refinement or atomic coordinate data resulting 
# from the CCDC's data processing and validation procedures.
#
#######################################################################

data_TIHCAQ
_symmetry_cell_setting           triclinic
_symmetry_space_group_name_H-M   'P -1'
_symmetry_Int_Tables_number      2
_space_group_name_Hall           '-P 1'
loop_
_symmetry_equiv_pos_site_id
_symmetry_equiv_pos_as_xyz
1 x,y,z
2 -x,-y,-z
_cell_length_a                   10.584(2)
_cell_length_b                   11.339(3)
_cell_length_c                   13.522(3)
_cell_angle_alpha                65.887(3)
_cell_angle_beta                 87.068(3)
_cell_angle_gamma                63.399(2)
_cell_volume                     1307.03
loop_
_atom_site_label
_atom_site_type_symbol
_atom_site_fract_x
_atom_site_fract_y
_atom_site_fract_z
Cu1 Cu 0.53811(8) 0.11171(10) 0.89788(7)
Cu2 Cu 0.40198(9) 0.42395(10) 0.68524(8)
O1 O 0.2602(4) 0.6309(5) 0.6132(4)
O2 O 0.0725(5) 0.6083(5) 0.6836(4)
O3 O 0.7047(4) 0.1409(5) 0.8720(4)
O4 O 0.6099(5) 0.3064(6) 0.6965(4)
O5 O 1.3733(5) 0.0758(5) 0.9308(4)
O6 O 1.2828(5) 0.2723(5) 0.7715(4)
O7 O 0.4619(5) 0.2527(6) 0.9607(4)
O8 O 0.4193(5) 0.4567(6) 0.8107(4)
N1 N 0.3947(6) 0.0186(6) 0.1798(5)
N2 N 0.2200(6) 0.2989(7) 0.3315(5)
H1 H 0.123(7) 0.336(8) 0.326(6)
N3 N 0.3620(5) 0.3899(6) 0.5608(5)
C1 C 0.4738(7) 0.0022(8) 0.2630(6)
H2 H 0.5691 -0.0754 0.2862
C2 C 0.4269(7) 0.0897(8) 0.3172(6)
H3 H 0.4875 0.0725 0.3764
C3 C 0.2870(7) 0.2050(8) 0.2826(6)
C4 C 0.2050(7) 0.2230(8) 0.1961(6)
H4 H 0.1099 0.3008 0.1698
C5 C 0.2611(7) 0.1284(8) 0.1484(6)
H5 H 0.2022 0.1415 0.0901
C6 C 0.2288(7) 0.4149(7) 0.5427(6)
H6 H 0.1621 0.4571 0.5834
C7 C 0.1806(7) 0.3835(8) 0.4684(6)
H7 H 0.0839 0.4022 0.4600
C8 C 0.2752(7) 0.3239(7) 0.4055(6)
C9 C 0.4145(7) 0.3026(8) 0.4215(6)
H8 H 0.4826 0.2656 0.3794
C10 C 0.4522(7) 0.3358(8) 0.4991(6)
H9 H 0.5478 0.3195 0.5093
C11 C 0.0489(7) 0.8497(8) 0.5870(6)
H10 H -0.0120 0.8731 0.6420
C12 C -0.0511(7) 0.9095(8) 0.4821(6)
H11 H -0.1160 0.8649 0.4983
H12 H 0.0061 0.8814 0.4278
C13 C 0.1406(8) 0.9240(8) 0.5677(7)
H13 H 0.2073 0.8966 0.5177
H14 H 0.1984 0.8896 0.6383
C14 C 0.1328(7) 0.6830(9) 0.6327(6)
C15 C 1.1274(6) 0.1736(8) 0.8612(6)
H15 H 1.1257 0.1183 0.9404
C16 C 1.0011(7) 0.3228(8) 0.8198(7)
H16 H 1.0047 0.3817 0.7429
H17 H 1.0060 0.3720 0.8644
C17 C 0.8602(6) 0.3162(8) 0.8252(6)
H18 H 0.7796 0.4168 0.7925
H19 H 0.8512 0.2680 0.9030
C18 C 0.8506(7) 0.2319(8) 0.7639(6)
H20 H 0.8503 0.2869 0.6842
C19 C 0.9802(7) 0.0818(8) 0.8065(6)
H21 H 0.9780 0.0240 0.8841
H22 H 0.9754 0.0305 0.7637
C20 C 1.1195(7) 0.0893(8) 0.7988(6)
H23 H 1.1265 0.1390 0.7207
H24 H 1.2008 -0.0109 0.8304
C21 C 1.2680(7) 0.1801(8) 0.8528(6)
C22 C 0.7105(7) 0.2274(8) 0.7765(7)
C23 C 0.3835(8) 0.4695(8) 0.9827(6)
H25 H 0.2869 0.4817 1.0009
C24 C 0.4862(8) 0.3808(9) 1.0910(6)
H26 H 0.4435 0.4236 1.1428
H27 H 0.4999 0.2795 1.1232
C25 C 0.3698(8) 0.6224(8) 0.9231(6)
H28 H 0.3105 0.6726 0.8499
H29 H 0.3203 0.6793 0.9651
C26 C 0.4246(7) 0.3859(8) 0.9128(6)
O1A O -0.2602(4) 1.3691(5) 0.3868(4)
O2A O -0.0725(5) 1.3917(5) 0.3164(4)
C11A C -0.0489(7) 1.1503(8) 0.4130(6)
H10A H 0.0120 1.1269 0.3580
C12A C 0.0511(7) 1.0905(8) 0.5179(6)
H11A H 0.1160 1.1351 0.5017
H12A H -0.0061 1.1186 0.5722
C13A C -0.1406(8) 1.0760(8) 0.4323(7)
H13A H -0.2073 1.1034 0.4823
H14A H -0.1984 1.1104 0.3617
C14A C -0.1328(7) 1.3170(9) 0.3673(6)
O7A O 0.5381(5) 0.7473(6) 1.0393(4)
O8A O 0.5807(5) 0.5433(6) 1.1893(4)
C23A C 0.6165(8) 0.5305(8) 1.0173(6)
H25A H 0.7131 0.5183 0.9991
C24A C 0.5138(8) 0.6192(9) 0.9090(6)
H26A H 0.5565 0.5764 0.8572
H27A H 0.5001 0.7205 0.8768
C25A C 0.6302(8) 0.3776(8) 1.0769(6)
H28A H 0.6895 0.3274 1.1501
H29A H 0.6797 0.3207 1.0349
C26A C 0.5754(7) 0.6141(8) 1.0872(6)
Cu1A Cu -0.53811(8) 1.88829(10) 0.10212(7)
Cu2A Cu -0.40198(9) 1.57605(10) 0.31476(8)
O3A O -0.7047(4) 1.8591(5) 0.1280(4)
O4A O -0.6099(5) 1.6936(6) 0.3035(4)
O5A O -1.3733(5) 1.9242(5) 0.0692(4)
O6A O -1.2828(5) 1.7277(5) 0.2285(4)
N1A N -0.3947(6) 1.9814(6) 0.8202(5)
N2A N -0.2200(6) 1.7011(7) 0.6685(5)
H1A H -0.123(7) 1.664(8) 0.674(6)
N3A N -0.3620(5) 1.6101(6) 0.4392(5)
C1A C -0.4738(7) 1.9978(8) 0.7370(6)
H2A H -0.5691 2.0754 0.7138
C2A C -0.4269(7) 1.9103(8) 0.6828(6)
H3A H -0.4875 1.9275 0.6236
C3A C -0.2870(7) 1.7950(8) 0.7174(6)
C4A C -0.2050(7) 1.7770(8) 0.8039(6)
H4A H -0.1099 1.6992 0.8302
C5A C -0.2611(7) 1.8716(8) 0.8516(6)
H5A H -0.2022 1.8585 0.9099
C6A C -0.2288(7) 1.5851(7) 0.4573(6)
H6A H -0.1621 1.5429 0.4166
C7A C -0.1806(7) 1.6165(8) 0.5316(6)
H7A H -0.0839 1.5978 0.5400
C8A C -0.2752(7) 1.6761(7) 0.5945(6)
C9A C -0.4145(7) 1.6974(8) 0.5785(6)
H8A H -0.4826 1.7344 0.6206
C10A C -0.4522(7) 1.6642(8) 0.5009(6)
H9A H -0.5478 1.6805 0.4907
C15A C -1.1274(6) 1.8264(8) 0.1388(6)
H15A H -1.1257 1.8817 0.0596
C16A C -1.0011(7) 1.6772(8) 0.1802(7)
H16A H -1.0047 1.6183 0.2571
H17A H -1.0060 1.6280 0.1356
C17A C -0.8602(6) 1.6838(8) 0.1748(6)
H18A H -0.7796 1.5832 0.2075
H19A H -0.8512 1.7320 0.0970
C18A C -0.8506(7) 1.7681(8) 0.2361(6)
H20A H -0.8503 1.7131 0.3158
C19A C -0.9802(7) 1.9182(8) 0.1935(6)
H21A H -0.9780 1.9760 0.1159
H22A H -0.9754 1.9695 0.2363
C20A C -1.1195(7) 1.9107(8) 0.2012(6)
H23A H -1.1265 1.8610 0.2793
H24A H -1.2008 2.0109 0.1696
C21A C -1.2680(7) 1.8199(8) 0.1472(6)
C22A C -0.7105(7) 1.7726(8) 0.2235(7)
Cu1_2 Cu -1.46189(8) 2.11171(10) -0.10212(7)
Cu1_3 Cu -0.46189(8) 2.11171(10) 0.89788(7)
Cu1_4 Cu 1.53811(8) 0.11171(10) 0.89788(7)
Cu1A_2 Cu -1.53811(8) 1.88829(10) 0.10212(7)
Cu1A_3 Cu 0.46189(8) -0.11171(10) 0.10212(7)
Cu1A_4 Cu 0.46189(8) 0.88829(10) 1.10212(7)
Cu1A_5 Cu 1.46189(8) -0.11171(10) 1.10212(7)
Cu2_2 Cu 1.40198(9) 0.42395(10) 0.68524(8)
Cu2A_2 Cu -1.40198(9) 1.57605(10) 0.31476(8)
Cu2A_3 Cu 0.59802(9) 0.57605(10) 1.31476(8)
O5_2 O -0.6267(5) 2.0758(5) -0.0692(4)
O5_3 O 0.3733(5) 0.0758(5) 0.9308(4)
O5A_2 O -0.3733(5) 1.9242(5) 0.0692(4)
O5A_3 O 0.6267(5) -0.0758(5) 1.0692(4)
O6_2 O 0.2828(5) 0.2723(5) 0.7715(4)
O6A_2 O -0.2828(5) 1.7277(5) 0.2285(4)
O7A_2 O -0.4619(5) 1.7473(6) 0.0393(4)
O8A_2 O -0.4193(5) 1.5433(6) 0.1893(4)
N1_2 N -0.6053(6) 2.0186(6) 0.1798(5)
N1A_2 N 0.6053(6) -0.0186(6) 0.8202(5)
loop_
_geom_bond_atom_site_label_1
_geom_bond_atom_site_label_2
_geom_bond_site_symmetry_1
_geom_bond_site_symmetry_2
Cu1 O3 1_555 1_555
Cu2 O1 1_555 1_555
O1 C14 1_555 1_555
O2 C14 1_555 1_555
O3 C22 1_555 1_555
O4 Cu2 1_555 1_555
O5 C21 1_555 1_555
O6 C21 1_555 1_555
O7 Cu1 1_555 1_555
O8 Cu2 1_555 1_555
N1 C1 1_555 1_555
N2 H1 1_555 1_555
N3 Cu2 1_555 1_555
C1 H2 1_555 1_555
C2 C1 1_555 1_555
H3 C2 1_555 1_555
C3 N2 1_555 1_555
C4 C3 1_555 1_555
H4 C4 1_555 1_555
C5 N1 1_555 1_555
H5 C5 1_555 1_555
C6 N3 1_555 1_555
H6 C6 1_555 1_555
C7 C6 1_555 1_555
H7 C7 1_555 1_555
C8 N2 1_555 1_555
C9 C8 1_555 1_555
H8 C9 1_555 1_555
C10 N3 1_555 1_555
H9 C10 1_555 1_555
C11 H10 1_555 1_555
C12 C11 1_555 1_555
H11 C12 1_555 1_555
H12 C12 1_555 1_555
C13 C11 1_555 1_555
H13 C13 1_555 1_555
H14 C13 1_555 1_555
C14 C11 1_555 1_555
C15 H15 1_555 1_555
C16 C15 1_555 1_555
H16 C16 1_555 1_555
H17 C16 1_555 1_555
C17 C16 1_555 1_555
H18 C17 1_555 1_555
H19 C17 1_555 1_555
C18 C17 1_555 1_555
H20 C18 1_555 1_555
C19 C18 1_555 1_555
H21 C19 1_555 1_555
H22 C19 1_555 1_555
C20 C15 1_555 1_555
H23 C20 1_555 1_555
H24 C20 1_555 1_555
C21 C15 1_555 1_555
C22 O4 1_555 1_555
C23 H25 1_555 1_555
C24 C23 1_555 1_555
H26 C24 1_555 1_555
H27 C24 1_555 1_555
C25 C23 1_555 1_555
H28 C25 1_555 1_555
H29 C25 1_555 1_555
C26 O7 1_555 1_555
O1A C14A 1_555 1_555
O2A C14A 1_555 1_555
C11A H10A 1_555 1_555
C12A C13 1_555 1_555
H11A C12A 1_555 1_555
H12A C12A 1_555 1_555
C13A C12 1_555 1_555
H13A C13A 1_555 1_555
H14A C13A 1_555 1_555
C14A C11A 1_555 1_555
O7A C26A 1_555 1_555
O8A C26A 1_555 1_555
C23A H25A 1_555 1_555
C24A C25 1_555 1_555
H26A C24A 1_555 1_555
H27A C24A 1_555 1_555
C25A C24 1_555 1_555
H28A C25A 1_555 1_555
H29A C25A 1_555 1_555
C26A C23A 1_555 1_555
Cu1A O3A 1_555 1_555
Cu2A O1A 1_555 1_555
O3A C22A 1_555 1_555
O4A Cu2A 1_555 1_555
O5A C21A 1_555 1_555
O6A C21A 1_555 1_555
N1A C1A 1_555 1_555
N2A H1A 1_555 1_555
N3A Cu2A 1_555 1_555
C1A H2A 1_555 1_555
C2A C1A 1_555 1_555
H3A C2A 1_555 1_555
C3A N2A 1_555 1_555
C4A C3A 1_555 1_555
H4A C4A 1_555 1_555
C5A N1A 1_555 1_555
H5A C5A 1_555 1_555
C6A N3A 1_555 1_555
H6A C6A 1_555 1_555
C7A C6A 1_555 1_555
H7A C7A 1_555 1_555
C8A N2A 1_555 1_555
C9A C8A 1_555 1_555
H8A C9A 1_555 1_555
C10A N3A 1_555 1_555
H9A C10A 1_555 1_555
C15A H15A 1_555 1_555
C16A C15A 1_555 1_555
H16A C16A 1_555 1_555
H17A C16A 1_555 1_555
C17A C16A 1_555 1_555
H18A C17A 1_555 1_555
H19A C17A 1_555 1_555
C18A C17A 1_555 1_555
H20A C18A 1_555 1_555
C19A C18A 1_555 1_555
H21A C19A 1_555 1_555
H22A C19A 1_555 1_555
C20A C15A 1_555 1_555
H23A C20A 1_555 1_555
H24A C20A 1_555 1_555
C21A C15A 1_555 1_555
C22A O4A 1_555 1_555
Cu1_2 O5A 1_555 1_555
Cu1_3 N1A 1_555 1_555
Cu1_4 O5 1_555 1_555
Cu1A_2 O5A 1_555 1_555
Cu1A_3 N1 1_555 1_555
Cu1A_4 O7A 1_555 1_555
Cu1A_5 O5 1_555 1_555
Cu2_2 O6 1_555 1_555
Cu2A_2 O6A 1_555 1_555
Cu2A_3 O8A 1_555 1_555
O5_2 Cu1A 1_555 1_555
O5_3 Cu1 1_555 1_555
O5A_2 Cu1A 1_555 1_555
O5A_3 Cu1 1_555 1_555
O6_2 Cu1 1_555 1_555
O6A_2 Cu1A 1_555 1_555
O7A_2 Cu1A 1_555 1_555
O8A_2 Cu2A 1_555 1_555
N1_2 Cu1A 1_555 1_555
N1A_2 Cu1 1_555 1_555
Cu2 O6_2 1_555 1_555
O6 Cu1_4 1_555 1_555
O8 C26 1_555 1_555
C2 C3 1_555 1_555
C4 C5 1_555 1_555
C7 C8 1_555 1_555
C9 C10 1_555 1_555
C18 C22 1_555 1_555
C19 C20 1_555 1_555
C23 C26 1_555 1_555
C11A C12A 1_555 1_555
C11A C13A 1_555 1_555
C23A C24A 1_555 1_555
C23A C25A 1_555 1_555
Cu2A O6A_2 1_555 1_555
O6A Cu1A_2 1_555 1_555
C2A C3A 1_555 1_555
C4A C5A 1_555 1_555
C7A C8A 1_555 1_555
C9A C10A 1_555 1_555
C18A C22A 1_555 1_555
C19A C20A 1_555 1_555

#END
