
#######################################################################
#
#                 Cambridge Crystallographic Data Centre
#                                CCDC 
#
#######################################################################
#
# If this CIF has been generated from an entry in the Cambridge 
# Structural Database, then it will include bibliographic, chemical, 
# crystal, experimental, refinement or atomic coordinate data resulting 
# from the CCDC's data processing and validation procedures.
#
#######################################################################

data_TIHDOF
_symmetry_cell_setting           orthorhombic
_symmetry_space_group_name_H-M   'P 21 21 21'
_symmetry_Int_Tables_number      19
_space_group_name_Hall           'P 2ac 2ab'
loop_
_symmetry_equiv_pos_site_id
_symmetry_equiv_pos_as_xyz
1 x,y,z
2 1/2-x,-y,1/2+z
3 1/2+x,1/2-y,-z
4 -x,1/2+y,1/2-z
_cell_length_a                   8.994(2)
_cell_length_b                   9.838(5)
_cell_length_c                   34.815(8)
_cell_angle_alpha                90
_cell_angle_beta                 90
_cell_angle_gamma                90
_cell_volume                     3080.53
loop_
_atom_site_label
_atom_site_type_symbol
_atom_site_fract_x
_atom_site_fract_y
_atom_site_fract_z
Gd1 Gd 0.5469(2) 0.80697(19) 0.19442(5)
O1 O 0.297(2) 0.811(3) 0.2229(6)
O2 O 0.440(3) 0.593(2) 0.1832(6)
O3 O 0.734(3) 0.660(3) 0.1716(7)
O4 O 0.790(3) 0.893(3) 0.2173(7)
O5 O 0.530(3) 1.019(2) 0.2292(6)
O6 O 0.968(4) 1.042(3) 0.2134(7)
O7 O 0.955(4) 0.634(3) 0.1424(7)
O8 O 0.414(3) 1.213(3) 0.2432(7)
O9 O 0.364(3) 0.416(3) 0.1461(8)
O10 O 0.325(4) 0.437(4) 0.0066(11)
O11 O 0.462(3) 0.263(2) 0.0187(6)
N1 N 0.713(3) 0.928(3) 0.1422(9)
N2 N 0.401(3) 0.993(3) 0.1595(8)
N3 N 0.446(4) 0.762(3) 0.1219(7)
C1 C 0.605(4) 0.978(4) 0.1099(11)
C2 C 0.491(3) 1.059(3) 0.1319(9)
H1 H 0.5432 1.132 0.145
H2 H 0.4254 1.1012 0.1133
C3 C 0.418(4) 0.535(4) 0.1485(10)
C4 C 0.264(4) 0.932(4) 0.1391(10)
H3 H 0.1803 0.9323 0.1567
H4 H 0.2384 0.9887 0.1173
C5 C 0.289(3) 0.795(4) 0.1259(9)
H5 H 0.2409 0.7825 0.1012
H6 H 0.2443 0.7316 0.1439
C6 C 0.524(4) 0.857(3) 0.0956(9)
H7 H 0.594 0.8034 0.0809
H8 H 0.4496 0.8897 0.0776
C7 C 0.684(5) 1.050(4) 0.0813(12)
H9 H 0.789 1.0399 0.0855
H10 H 0.6582 1.1448 0.0826
H11 H 0.6585 1.0151 0.0564
C8 C 0.788(4) 1.026(4) 0.1627(10)
H12 H 0.7185 1.0989 0.1681
H13 H 0.8642 1.0631 0.146
C9 C 0.858(4) 0.990(4) 0.1980(12)
C10 C 0.824(5) 0.825(5) 0.1297(11)
H14 H 0.8058 0.8076 0.1027
H15 H 0.921 0.8678 0.1314
C11 C 0.836(4) 0.694(5) 0.1482(9)
C12 C 0.336(4) 1.096(3) 0.1861(9)
H16 H 0.2384 1.0661 0.1943
H17 H 0.325 1.1813 0.1726
C13 C 0.437(4) 1.118(4) 0.2227(8)
C14 C 0.474(5) 0.615(3) 0.1165(8)
H18 H 0.5811 0.6004 0.1145
C15 C 0.399(4) 0.561(4) 0.0789(10)
H19 H 0.2953 0.5398 0.0843
H20 H 0.4004 0.6324 0.0597
C16 C 0.475(4) 0.435(3) 0.0627(8)
H21 H 0.5777 0.4562 0.0569
H22 H 0.4745 0.3636 0.0821
C17 C 0.402(5) 0.384(5) 0.0279(12)
C18 C 0.424(5) 0.186(5) -0.0184(10)
H23 H 0.3623 0.2424 -0.0347
H24 H 0.5153 0.1661 -0.0323
C19 C 0.348(4) 0.060(4) -0.0101(10)
C20 C 0.393(5) -0.059(4) -0.0276(12)
H25 H 0.4739 -0.0541 -0.0443
C21 C 0.329(5) -0.180(7) -0.0222(13)
H26 H 0.3537 -0.2573 -0.0363
C22 C 0.233(5) -0.180(7) 0.0036(13)
H27 H 0.1976 -0.2665 0.0091
C23 C 0.175(6) -0.094(5) 0.0230(14)
H28 H 0.0955 -0.1128 0.0394
C24 C 0.239(5) 0.045(6) 0.0187(14)
H29 H 0.2099 0.1169 0.0342
Gd1C Gd 0.4531(2) 1.30697(19) 0.30558(5)
O8C O 0.586(3) 0.713(3) 0.2568(7)
Na1 Na 0.7022(18) 0.9294(17) 0.2831(5)
O12 O 0.953(4) 0.802(3) 0.2870(6)
O13 O 0.896(3) 1.108(3) 0.2878(7)
O14 O 0.254(4) 0.895(4) 0.2976(11)
O15 O 0.656(4) 0.244(3) -0.1041(8)
H30 H 0.7407 0.2133 -0.1045
C25 C 0.392(4) 0.135(6) -0.1189(17)
H31 H 0.3668 0.0441 -0.1263
H32 H 0.36 0.1973 -0.1385
H33 H 0.3434 0.1571 -0.0952
C26 C 0.560(5) 0.147(4) -0.1138(12)
H34 H 0.5825 0.0747 -0.0956
H35 H 0.5988 0.1144 -0.1382
loop_
_geom_bond_atom_site_label_1
_geom_bond_atom_site_label_2
_geom_bond_site_symmetry_1
_geom_bond_site_symmetry_2
Gd1 O1 1_555 1_555
O2 Gd1 1_555 1_555
O3 Gd1 1_555 1_555
O4 Gd1 1_555 1_555
O5 Gd1 1_555 1_555
O6 C9 1_555 1_555
O7 C11 1_555 1_555
O8 C13 1_555 1_555
O9 C3 1_555 1_555
O10 C17 1_555 1_555
O11 C17 1_555 1_555
N1 Gd1 1_555 1_555
N2 Gd1 1_555 1_555
N3 Gd1 1_555 1_555
C1 N1 1_555 1_555
C2 N2 1_555 1_555
H1 C2 1_555 1_555
H2 C2 1_555 1_555
C3 O2 1_555 1_555
C4 N2 1_555 1_555
H3 C4 1_555 1_555
H4 C4 1_555 1_555
C5 N3 1_555 1_555
H5 C5 1_555 1_555
H6 C5 1_555 1_555
C6 N3 1_555 1_555
H7 C6 1_555 1_555
H8 C6 1_555 1_555
C7 C1 1_555 1_555
H9 C7 1_555 1_555
H10 C7 1_555 1_555
H11 C7 1_555 1_555
C8 N1 1_555 1_555
H12 C8 1_555 1_555
H13 C8 1_555 1_555
C9 O4 1_555 1_555
C10 N1 1_555 1_555
H14 C10 1_555 1_555
H15 C10 1_555 1_555
C11 O3 1_555 1_555
C12 N2 1_555 1_555
H16 C12 1_555 1_555
H17 C12 1_555 1_555
C13 O5 1_555 1_555
C14 N3 1_555 1_555
H18 C14 1_555 1_555
C15 C14 1_555 1_555
H19 C15 1_555 1_555
H20 C15 1_555 1_555
C16 C15 1_555 1_555
H21 C16 1_555 1_555
H22 C16 1_555 1_555
C17 C16 1_555 1_555
C18 O11 1_555 1_555
H23 C18 1_555 1_555
H24 C18 1_555 1_555
C19 C18 1_555 1_555
C20 C19 1_555 1_555
H25 C20 1_555 1_555
C21 C20 1_555 1_555
H26 C21 1_555 1_555
C22 C21 1_555 1_555
H27 C22 1_555 1_555
C23 C22 1_555 1_555
H28 C23 1_555 1_555
C24 C19 1_555 1_555
H29 C24 1_555 1_555
O15 H30 1_555 1_555
C25 H31 1_555 1_555
H32 C25 1_555 1_555
H33 C25 1_555 1_555
C26 O15 1_555 1_555
H34 C26 1_555 1_555
H35 C26 1_555 1_555
Gd1C O8 1_555 1_555
O8C Gd1 1_555 1_555
C1 C2 1_555 1_555
C1 C6 1_555 1_555
C3 C14 1_555 1_555
C4 C5 1_555 1_555
C8 C9 1_555 1_555
C10 C11 1_555 1_555
C12 C13 1_555 1_555
C23 C24 1_555 1_555
C25 C26 1_555 1_555

#END
