
#######################################################################
#
#                 Cambridge Crystallographic Data Centre
#                                CCDC 
#
#######################################################################
#
# If this CIF has been generated from an entry in the Cambridge 
# Structural Database, then it will include bibliographic, chemical, 
# crystal, experimental, refinement or atomic coordinate data resulting 
# from the CCDC's data processing and validation procedures.
#
#######################################################################

data_TIHDEV
_symmetry_cell_setting           orthorhombic
_symmetry_space_group_name_H-M   'P 21 21 21'
_symmetry_Int_Tables_number      19
_space_group_name_Hall           'P 2ac 2ab'
loop_
_symmetry_equiv_pos_site_id
_symmetry_equiv_pos_as_xyz
1 x,y,z
2 1/2-x,-y,1/2+z
3 -x,1/2+y,1/2-z
4 1/2+x,1/2-y,-z
_cell_length_a                   10.6251(5)
_cell_length_b                   13.8323(7)
_cell_length_c                   16.9639(9)
_cell_angle_alpha                90
_cell_angle_beta                 90
_cell_angle_gamma                90
_cell_volume                     2493.18
loop_
_atom_site_label
_atom_site_type_symbol
_atom_site_fract_x
_atom_site_fract_y
_atom_site_fract_z
Cd1 Cd 0.449621(18) 0.297806(13) 0.127096(11)
O1 O 0.51380(18) 0.19912(15) 0.01969(10)
O2 O 0.61241(18) 0.17045(12) 0.13193(12)
O3 O 0.7841(2) 0.08416(15) -0.15272(11)
O4 O 0.79873(19) 0.15244(14) -0.03604(11)
O5 O 0.67280(17) -0.17746(12) 0.13168(12)
O6 O 0.6690(2) -0.15880(13) 0.00172(11)
O7 O 0.5018(2) 0.32894(16) 0.25363(11)
H1 H 0.565(2) 0.304(2) 0.2772(16)
H2 H 0.447(2) 0.327(2) 0.2902(14)
N1 N 0.5873(2) 0.42473(16) 0.08902(13)
N2 N 0.8761(2) 0.72717(15) 0.07911(13)
H3 H 0.8034(19) 0.7536(18) 0.0943(16)
N3 N 1.0434(2) 0.85360(15) 0.16732(12)
N4 N 1.3072(2) 1.16666(16) 0.15988(13)
C1 C 0.6896(3) 0.4070(2) 0.04591(17)
H4 H 0.7043 0.3428 0.0284
C2 C 0.7754(3) 0.47775(19) 0.02553(17)
H5 H 0.8475 0.4612 -0.0047
C3 C 0.7569(3) 0.57248(19) 0.04880(15)
C4 C 0.6493(3) 0.59102(19) 0.09389(15)
H6 H 0.6320 0.6547 0.1120
C5 C 0.5692(3) 0.51682(18) 0.11171(15)
H7 H 0.4964 0.5312 0.1420
C6 C 0.8470(3) 0.64911(19) 0.02089(15)
H8 H 0.9269 0.6174 0.0057
H9 H 0.8116 0.6795 -0.0271
C7 C 0.9504(3) 0.80640(17) 0.03999(14)
H10 H 0.9028 0.8314 -0.0058
H11 H 1.0312 0.7800 0.0205
C8 C 0.9763(3) 0.88859(19) 0.09732(14)
H12 H 1.0274 0.9388 0.0708
H13 H 0.8956 0.9184 0.1136
C9 C 0.9707(3) 0.77593(18) 0.20518(15)
H14 H 0.8888 0.8019 0.2232
H15 H 1.0169 0.7523 0.2520
C10 C 0.9482(3) 0.69284(18) 0.14922(14)
H16 H 1.0299 0.6655 0.1321
H17 H 0.9004 0.6413 0.1764
C11 C 1.0594(3) 0.93281(19) 0.22562(15)
H18 H 1.0931 0.9052 0.2752
H19 H 0.9759 0.9609 0.2375
C12 C 1.1461(3) 1.01255(19) 0.19836(15)
C13 C 1.2745(3) 1.0087(2) 0.21428(17)
H20 H 1.3101 0.9530 0.2382
C14 C 1.3495(3) 1.08633(19) 0.19502(16)
H21 H 1.4365 1.0827 0.2074
C15 C 1.1843(3) 1.16863(19) 0.14306(15)
H22 H 1.1519 1.2240 0.1168
C16 C 1.1020(3) 1.09533(19) 0.16150(15)
H23 H 1.0152 1.1014 0.1490
C17 C 0.5803(3) 0.1461(2) 0.06242(16)
C18 C 0.6140(3) 0.04761(19) 0.03198(16)
C19 C 0.6325(3) 0.0392(2) -0.05525(16)
H24 H 0.5565 0.0635 -0.0826
H25 H 0.6432 -0.0298 -0.0694
C20 C 0.7457(3) 0.0953(2) -0.08310(16)
C21 C 0.6199(3) -0.0244(2) 0.08442(17)
H26 H 0.6004 -0.0079 0.1374
C22 C 0.6534(3) -0.12737(19) 0.06976(16)
Cd1_2 Cd 1.449621(18) 1.297806(13) 0.127096(11)
Cd1C Cd 0.949621(18) 0.202194(13) -0.127096(11)
O3C O 0.2841(2) 0.41584(15) 0.15272(11)
O4C O 0.29873(19) 0.34756(14) 0.03604(11)
N4_2 N 0.3072(2) 0.16666(16) 0.15988(13)
O8 O 0.8796(2) 0.25530(18) 0.12545(15)
H27 H 0.821(3) 0.210(2) 0.119(2)
H28 H 0.905(3) 0.256(2) 0.0772(12)
O9 O 0.7054(2) 0.26349(16) 0.33512(13)
H29 H 0.7692(16) 0.2976(12) 0.3460(13)
H30 H 0.7216 0.2069 0.3188
O10 O 0.7628(3) 0.08791(18) 0.26564(15)
H31 H 0.730(4) 0.0348(19) 0.285(2)
H32 H 0.713(3) 0.096(3) 0.2263(17)
loop_
_geom_bond_atom_site_label_1
_geom_bond_atom_site_label_2
_geom_bond_site_symmetry_1
_geom_bond_site_symmetry_2
Cd1 O1 1_555 1_555
O1 C17 1_555 1_555
O2 Cd1 1_555 1_555
O3 C20 1_555 1_555
O4 C20 1_555 1_555
O5 C22 1_555 1_555
O6 C22 1_555 1_555
O7 Cd1 1_555 1_555
H1 O7 1_555 1_555
H2 O7 1_555 1_555
N1 Cd1 1_555 1_555
N2 H3 1_555 1_555
N3 C8 1_555 1_555
N4 C14 1_555 1_555
C1 N1 1_555 1_555
H4 C1 1_555 1_555
C2 C1 1_555 1_555
H5 C2 1_555 1_555
C3 C2 1_555 1_555
C4 C3 1_555 1_555
H6 C4 1_555 1_555
C5 N1 1_555 1_555
H7 C5 1_555 1_555
C6 N2 1_555 1_555
H8 C6 1_555 1_555
H9 C6 1_555 1_555
C7 N2 1_555 1_555
H10 C7 1_555 1_555
H11 C7 1_555 1_555
C8 C7 1_555 1_555
H12 C8 1_555 1_555
H13 C8 1_555 1_555
C9 N3 1_555 1_555
H14 C9 1_555 1_555
H15 C9 1_555 1_555
C10 N2 1_555 1_555
H16 C10 1_555 1_555
H17 C10 1_555 1_555
C11 N3 1_555 1_555
H18 C11 1_555 1_555
H19 C11 1_555 1_555
C12 C11 1_555 1_555
C13 C12 1_555 1_555
H20 C13 1_555 1_555
C14 C13 1_555 1_555
H21 C14 1_555 1_555
C15 N4 1_555 1_555
H22 C15 1_555 1_555
C16 C12 1_555 1_555
H23 C16 1_555 1_555
C17 O2 1_555 1_555
C18 C17 1_555 1_555
C19 C18 1_555 1_555
H24 C19 1_555 1_555
H25 C19 1_555 1_555
C20 C19 1_555 1_555
C21 C18 1_555 1_555
H26 C21 1_555 1_555
C22 C21 1_555 1_555
O8 H27 1_555 1_555
H28 O8 1_555 1_555
O9 H29 1_555 1_555
H30 O9 1_555 1_555
O10 H31 1_555 1_555
H32 O10 1_555 1_555
Cd1_2 N4 1_555 1_555
Cd1C O3 1_555 1_555
O3C Cd1 1_555 1_555
O4C Cd1 1_555 1_555
N4_2 Cd1 1_555 1_555
O4 Cd1C 1_555 1_555
C3 C6 1_555 1_555
C4 C5 1_555 1_555
C9 C10 1_555 1_555
C15 C16 1_555 1_555

#END
