
#######################################################################
#
#                 Cambridge Crystallographic Data Centre
#                                CCDC 
#
#######################################################################
#
# If this CIF has been generated from an entry in the Cambridge 
# Structural Database, then it will include bibliographic, chemical, 
# crystal, experimental, refinement or atomic coordinate data resulting 
# from the CCDC's data processing and validation procedures.
#
#######################################################################

data_TIHDIZ
_symmetry_cell_setting           monoclinic
_symmetry_space_group_name_H-M   'C 2/c'
_symmetry_Int_Tables_number      15
_space_group_name_Hall           '-C 2yn'
loop_
_symmetry_equiv_pos_site_id
_symmetry_equiv_pos_as_xyz
1 x,y,z
2 -x,y,1/2-z
3 1/2+x,1/2+y,z
4 1/2-x,1/2+y,1/2-z
5 -x,-y,-z
6 x,-y,1/2+z
7 1/2-x,1/2-y,-z
8 1/2+x,1/2-y,1/2+z
_cell_length_a                   23.553(2)
_cell_length_b                   16.8851(15)
_cell_length_c                   16.031(3)
_cell_angle_alpha                90
_cell_angle_beta                 130.870(1)
_cell_angle_gamma                90
_cell_volume                     4821.09
loop_
_atom_site_label
_atom_site_type_symbol
_atom_site_fract_x
_atom_site_fract_y
_atom_site_fract_z
Cd1 Cd 0.059519(8) 0.692912(9) 0.909268(12)
O1 O -0.06549(8) 0.68613(10) 0.73172(13)
O2 O -0.05916(9) 0.70770(10) 0.87233(13)
O3 O -0.31255(9) 0.79787(11) 0.52334(13)
O4 O -0.34874(9) 0.78328(10) 0.61910(14)
O5 O -0.19007(15) 0.90148(13) 0.8001(2)
O6 O -0.15829(11) 0.85822(14) 0.95773(16)
N1 N 0.05669(10) 0.56015(11) 0.93280(15)
N2 N -0.13262(10) 0.42934(11) 0.66547(16)
N3 N -0.28948(11) 0.46331(12) 0.48438(16)
H1 H -0.3099(13) 0.4330(14) 0.505(2)
N4 N -0.44791(11) 0.66775(12) 0.40157(16)
C1 C -0.00104(12) 0.51631(14) 0.84939(19)
H2 H -0.0374 0.5409 0.7797
C2 C -0.01026(12) 0.43679(14) 0.86000(19)
C3 C 0.04339(14) 0.40226(14) 0.9626(2)
H3 H 0.0389 0.3482 0.9739
C4 C 0.10363(14) 0.44677(14) 1.0486(2)
H4 H 0.1411 0.4235 1.1190
C5 C 0.10842(13) 0.52556(14) 1.03065(19)
H5 H 0.1497 0.5561 1.0896
C6 C -0.07407(13) 0.38660(14) 0.7670(2)
H6 H -0.0532 0.3453 0.7498
H7 H -0.0974 0.3593 0.7926
C7 C -0.18185(13) 0.37147(14) 0.5776(2)
H8 H -0.2030 0.3355 0.6000
H9 H -0.1519 0.3391 0.5670
C8 C -0.24521(14) 0.41077(15) 0.4699(2)
H10 H -0.2245 0.4426 0.4432
H11 H -0.2786 0.3698 0.4138
C9 C -0.17743(13) 0.47826(15) 0.67900(19)
H12 H -0.1444 0.5170 0.7391
H13 H -0.2006 0.4442 0.7000
C10 C -0.23819(13) 0.52187(14) 0.5738(2)
H14 H -0.2669 0.5558 0.5851
H15 H -0.2154 0.5563 0.5526
C11 C -0.35306(14) 0.50154(15) 0.37738(19)
H16 H -0.3818 0.4605 0.3193
H17 H -0.3328 0.5394 0.3555
C12 C -0.40378(13) 0.62647(14) 0.39290(19)
H18 H -0.3698 0.6547 0.3909
C13 C -0.40471(13) 0.54453(14) 0.38658(19)
C14 C -0.45529(14) 0.50373(16) 0.3883(2)
H19 H -0.4583 0.4476 0.3831
C15 C -0.50110(14) 0.54626(16) 0.3977(2)
H20 H -0.5360 0.5196 0.3991
C16 C -0.49561(14) 0.62740(15) 0.4050(2)
H21 H -0.5266 0.6561 0.4128
C17 C -0.09657(12) 0.70510(12) 0.77041(18)
C18 C -0.17729(12) 0.72743(13) 0.68881(18)
H22 H -0.2011 0.7215 0.6133
C19 C -0.22001(12) 0.75488(13) 0.70977(18)
C20 C -0.19761(13) 0.76345(14) 0.82096(18)
H23 H -0.1528 0.7303 0.8747
H24 H -0.2388 0.7435 0.8171
C21 C -0.18017(14) 0.84841(17) 0.8617(2)
C22 C -0.29913(12) 0.78053(14) 0.61105(18)
Cd1A Cd -0.059519(8) 0.692912(9) 0.590732(12)
Cd1G Cd -0.440481(8) 0.807088(9) 0.409268(12)
O1A O 0.06549(8) 0.68613(10) 0.76828(13)
O3G O 0.18745(9) 0.70213(11) 1.02334(13)
O4G O 0.15126(9) 0.71672(10) 1.11910(14)
N4G N 0.05209(11) 0.83225(12) 0.90157(16)
O7 O -0.38819(14) 0.67290(15) 0.7023(2)
H25 H -0.378(2) 0.7083(18) 0.675(3)
H26 H -0.4330(13) 0.678(2) 0.678(3)
O8 O -0.02477(14) 0.78966(16) 1.1438(2)
H27 H -0.0698(15) 0.807(2) 1.0773(19)
H28 H -0.0477(19) 0.800(2) 1.176(3)
O9 O -0.1942(3) 1.05813(16) 0.8016(4)
H29 H -0.1685 1.0931 0.8009
H30 H -0.188(3) 1.0080(11) 0.800(5)
loop_
_geom_bond_atom_site_label_1
_geom_bond_atom_site_label_2
_geom_bond_site_symmetry_1
_geom_bond_site_symmetry_2
Cd1 O1 1_555 1_555
O1 C17 1_555 1_555
O2 Cd1 1_555 1_555
O3 C22 1_555 1_555
O4 C22 1_555 1_555
O5 C21 1_555 1_555
O6 C21 1_555 1_555
N1 Cd1 1_555 1_555
N2 C6 1_555 1_555
N3 H1 1_555 1_555
N4 C12 1_555 1_555
C1 N1 1_555 1_555
H2 C1 1_555 1_555
C2 C1 1_555 1_555
C3 C2 1_555 1_555
H3 C3 1_555 1_555
C4 C3 1_555 1_555
H4 C4 1_555 1_555
C5 N1 1_555 1_555
H5 C5 1_555 1_555
C6 C2 1_555 1_555
H6 C6 1_555 1_555
H7 C6 1_555 1_555
C7 N2 1_555 1_555
H8 C7 1_555 1_555
H9 C7 1_555 1_555
C8 N3 1_555 1_555
H10 C8 1_555 1_555
H11 C8 1_555 1_555
C9 N2 1_555 1_555
H12 C9 1_555 1_555
H13 C9 1_555 1_555
C10 N3 1_555 1_555
H14 C10 1_555 1_555
H15 C10 1_555 1_555
C11 N3 1_555 1_555
H16 C11 1_555 1_555
H17 C11 1_555 1_555
C12 H18 1_555 1_555
C13 C11 1_555 1_555
C14 C13 1_555 1_555
H19 C14 1_555 1_555
C15 C14 1_555 1_555
H20 C15 1_555 1_555
C16 N4 1_555 1_555
H21 C16 1_555 1_555
C17 O2 1_555 1_555
C18 C17 1_555 1_555
H22 C18 1_555 1_555
C19 C18 1_555 1_555
C20 C19 1_555 1_555
H23 C20 1_555 1_555
H24 C20 1_555 1_555
C21 C20 1_555 1_555
C22 C19 1_555 1_555
O7 H25 1_555 1_555
H26 O7 1_555 1_555
O8 H27 1_555 1_555
H28 O8 1_555 1_555
O9 H29 1_555 1_555
H30 O9 1_555 1_555
Cd1A O1 1_555 1_555
Cd1G O3 1_555 1_555
O1A Cd1 1_555 1_555
O3G Cd1 1_555 1_555
O4G Cd1 1_555 1_555
N4G Cd1 1_555 1_555
O4 Cd1G 1_555 1_555
N4 Cd1G 1_555 1_555
C4 C5 1_555 1_555
C7 C8 1_555 1_555
C9 C10 1_555 1_555
C12 C13 1_555 1_555
C15 C16 1_555 1_555
Cd1A O1A 1_555 1_555

#END
