
#######################################################################
#
#                 Cambridge Crystallographic Data Centre
#                                CCDC 
#
#######################################################################
#
# If this CIF has been generated from an entry in the Cambridge 
# Structural Database, then it will include bibliographic, chemical, 
# crystal, experimental, refinement or atomic coordinate data resulting 
# from the CCDC's data processing and validation procedures.
#
#######################################################################

data_TIHFOH
_symmetry_cell_setting           monoclinic
_symmetry_space_group_name_H-M   'P 21/n'
_symmetry_Int_Tables_number      14
_space_group_name_Hall           '-P 2yn'
loop_
_symmetry_equiv_pos_site_id
_symmetry_equiv_pos_as_xyz
1 x,y,z
2 1/2-x,1/2+y,1/2-z
3 -x,-y,-z
4 1/2+x,1/2-y,1/2+z
_cell_length_a                   10.3038(8)
_cell_length_b                   11.4265(8)
_cell_length_c                   17.3227(13)
_cell_angle_alpha                90
_cell_angle_beta                 104.3150(10)
_cell_angle_gamma                90
_cell_volume                     1976.19
loop_
_atom_site_label
_atom_site_type_symbol
_atom_site_fract_x
_atom_site_fract_y
_atom_site_fract_z
Cd1 Cd 0.888068(12) 0.597981(11) 0.068761(8)
O1 O 0.71075(13) 0.70383(15) -0.00296(9)
O2 O 0.65400(16) 0.60642(15) 0.09271(11)
O3 O 0.14715(13) 0.54309(12) 0.04566(8)
O4 O 0.02515(12) 0.70381(12) 0.01184(8)
N1 N 0.91659(17) 0.44244(14) 0.15062(9)
N2 N 1.01016(18) 0.29564(14) 0.22620(10)
N3 N 0.97746(19) -0.27719(15) 0.17671(10)
N4 N 1.08029(19) -0.12788(15) 0.24689(10)
C1 C 0.48588(18) 0.72222(17) 0.00758(11)
C2 C 0.37895(17) 0.66328(16) 0.02532(11)
H1 H 0.3932 0.5925 0.0526
C3 C 0.25076(17) 0.70990(16) 0.00230(10)
C4 C 0.23085(17) 0.81620(17) -0.03835(11)
H2 H 0.1453 0.8483 -0.0523
C5 C 0.33529(19) 0.87552(17) -0.05860(11)
C6 C 0.46303(18) 0.82666(17) -0.03515(11)
H3 H 0.5345 0.8646 -0.0483
C7 C 0.62600(18) 0.67320(18) 0.03491(12)
C8 C 0.13370(18) 0.64733(17) 0.02132(10)
C9 C 1.1065(2) 0.20323(18) 0.25941(13)
H4 H 1.1401 0.2152 0.3163
H5 H 1.1819 0.2071 0.2352
C10 C 0.3113(2) 0.9889(2) -0.10485(14)
H6 H 0.2609 0.9734 -0.1584
H7 H 0.3957 1.0235 -0.1059
H8 H 0.2620 1.0416 -0.0797
C11 C 1.0217(2) 0.37330(17) 0.17014(11)
H9 H 1.0949 0.3777 0.1479
C12 C 0.8318(3) 0.40592(18) 0.19607(14)
H10 H 0.7484 0.4381 0.1947
C13 C 0.8889(3) 0.31594(19) 0.24307(13)
H11 H 0.8530 0.2757 0.2796
C14 C 1.0414(2) 0.08353(17) 0.24428(14)
H12 H 0.9765 0.0749 0.2760
H13 H 0.9941 0.0771 0.1886
C15 C 1.1438(2) -0.01293(18) 0.26499(13)
H14 H 1.2109 -0.0026 0.2349
H15 H 1.1884 -0.0088 0.3212
C16 C 1.0389(2) -0.17733(18) 0.17472(12)
H16 H 1.0523 -0.1442 0.1283
C17 C 0.9842(4) -0.2934(3) 0.25545(16)
H17 H 0.9502 -0.3581 0.2765
C18 C 1.0472(4) -0.2026(3) 0.29865(15)
H18 H 1.0643 -0.1934 0.3536
Cd1_2 Cd -0.111932(12) 0.597981(11) 0.068761(8)
Cd1_3 Cd 0.888068(12) -0.402019(11) 0.068761(8)
Cd1B Cd 0.111932(12) 0.402019(11) -0.068761(8)
O3B O 0.85285(13) 0.45691(12) -0.04566(8)
O4_2 O 1.02515(12) 0.70381(12) 0.01184(8)
N3_2 N 0.97746(19) 0.72281(15) 0.17671(10)
loop_
_geom_bond_atom_site_label_1
_geom_bond_atom_site_label_2
_geom_bond_site_symmetry_1
_geom_bond_site_symmetry_2
Cd1 O1 1_555 1_555
O1 C7 1_555 1_555
O2 Cd1 1_555 1_555
O3 C8 1_555 1_555
O4 C8 1_555 1_555
N1 Cd1 1_555 1_555
N2 C9 1_555 1_555
N3 C16 1_555 1_555
N4 C15 1_555 1_555
C1 C2 1_555 1_555
C2 H1 1_555 1_555
C3 C2 1_555 1_555
C4 C3 1_555 1_555
H2 C4 1_555 1_555
C5 C4 1_555 1_555
C6 C1 1_555 1_555
H3 C6 1_555 1_555
C7 O2 1_555 1_555
C8 C3 1_555 1_555
C9 H4 1_555 1_555
H5 C9 1_555 1_555
C10 C5 1_555 1_555
H6 C10 1_555 1_555
H7 C10 1_555 1_555
H8 C10 1_555 1_555
C11 N1 1_555 1_555
H9 C11 1_555 1_555
C12 N1 1_555 1_555
H10 C12 1_555 1_555
C13 N2 1_555 1_555
H11 C13 1_555 1_555
C14 C9 1_555 1_555
H12 C14 1_555 1_555
H13 C14 1_555 1_555
C15 C14 1_555 1_555
H14 C15 1_555 1_555
H15 C15 1_555 1_555
C16 N4 1_555 1_555
H16 C16 1_555 1_555
C17 N3 1_555 1_555
H17 C17 1_555 1_555
C18 N4 1_555 1_555
H18 C18 1_555 1_555
Cd1_2 O4 1_555 1_555
Cd1_3 N3 1_555 1_555
Cd1B O3 1_555 1_555
O3B Cd1 1_555 1_555
O4_2 Cd1 1_555 1_555
N3_2 Cd1 1_555 1_555
N2 C11 1_555 1_555
C1 C7 1_555 1_555
C5 C6 1_555 1_555
C12 C13 1_555 1_555
C17 C18 1_555 1_555

#END
