
#######################################################################
#
#                 Cambridge Crystallographic Data Centre
#                                CCDC 
#
#######################################################################
#
# If this CIF has been generated from an entry in the Cambridge 
# Structural Database, then it will include bibliographic, chemical, 
# crystal, experimental, refinement or atomic coordinate data resulting 
# from the CCDC's data processing and validation procedures.
#
#######################################################################

data_TIHFIB
_symmetry_cell_setting           orthorhombic
_symmetry_space_group_name_H-M   'P n a 21'
_symmetry_Int_Tables_number      33
_space_group_name_Hall           'P 2c -2n'
loop_
_symmetry_equiv_pos_site_id
_symmetry_equiv_pos_as_xyz
1 x,y,z
2 -x,-y,1/2+z
3 1/2+x,1/2-y,z
4 1/2-x,1/2+y,1/2+z
_cell_length_a                   24.608(3)
_cell_length_b                   10.2320(12)
_cell_length_c                   18.294(2)
_cell_angle_alpha                90
_cell_angle_beta                 90
_cell_angle_gamma                90
_cell_volume                     4606.23
loop_
_atom_site_label
_atom_site_type_symbol
_atom_site_fract_x
_atom_site_fract_y
_atom_site_fract_z
Cd1 Cd 0.19598(2) 0.84639(4) 0.57293(3)
O1 O 0.2388(2) -0.0028(5) 0.4919(3)
O2 O 0.19237(18) 0.0903(4) 0.5817(4)
O3 O 0.1895(2) 0.5861(5) 0.5853(4)
O4 O 0.2301(2) 0.6866(5) 0.4953(3)
O5 O 0.1582(2) 0.8344(4) 0.6890(3)
H1 H 0.1542 0.7702 0.7162
H2 H 0.1321 0.8860 0.6929
N1 N 0.6145(3) 0.6511(6) 0.5188(3)
N2 N 0.5284(3) 0.6177(6) 0.4924(4)
N3 N 0.3669(3) 0.8408(7) 0.6427(5)
N4 N 0.2781(3) 0.8363(6) 0.6311(4)
C1 C 0.2464(3) 0.2235(7) 0.5044(5)
C2 C 0.2247(3) 0.3412(6) 0.5307(4)
H3 H 0.1967 0.3403 0.5648
C3 C 0.2451(3) 0.4584(7) 0.5055(4)
C4 C 0.2889(3) 0.4611(7) 0.4583(4)
H4 H 0.3022 0.5413 0.4423
C5 C 0.3136(3) 0.3471(8) 0.4342(5)
C6 C 0.2909(4) 0.2306(8) 0.4568(5)
H5 H 0.3059 0.1530 0.4396
C7 C 0.2236(3) 0.0941(7) 0.5280(5)
C8 C 0.2195(3) 0.5852(8) 0.5296(4)
C9 C 0.3611(3) 0.3476(7) 0.3840(5)
H6 H 0.3574 0.2779 0.3493
H7 H 0.3938 0.3357 0.4118
H8 H 0.3626 0.4297 0.3587
C10 C 0.5692(3) 0.5930(8) 0.5385(4)
H9 H 0.5660 0.5407 0.5798
C11 C 0.6022(3) 0.7155(9) 0.4556(5)
H10 H 0.6267 0.7648 0.4283
C12 C 0.5499(4) 0.6971(8) 0.4386(5)
H11 H 0.5316 0.7312 0.3984
C13 C 0.4722(3) 0.5817(9) 0.5007(5)
H12 H 0.4700 0.5058 0.5323
H13 H 0.4580 0.5568 0.4533
C14 C 0.4370(4) 0.6877(12) 0.5318(7)
H14 H 0.4333 0.7557 0.4952
H15 H 0.4010 0.6516 0.5401
C15 C 0.4545(5) 0.7466(14) 0.5974(8)
H16 H 0.4925 0.7695 0.5916
H17 H 0.4525 0.6813 0.6357
C16 C 0.4249(4) 0.8663(11) 0.6236(6)
H18 H 0.4433 0.9006 0.6664
H19 H 0.4263 0.9326 0.5858
C17 C 0.3243(3) 0.8717(8) 0.6004(5)
H20 H 0.3269 0.9129 0.5553
C18 C 0.2936(4) 0.7814(9) 0.6963(5)
H21 H 0.2700 0.7471 0.7311
C19 C 0.3473(4) 0.7844(10) 0.7024(6)
H22 H 0.3676 0.7528 0.7415
Cd1_2 Cd 0.19598(2) -0.15361(4) 0.57293(3)
Cd1B Cd 0.69598(2) 0.65361(4) 0.57293(3)
O1_2 O 0.2388(2) 0.9972(5) 0.4919(3)
O2_2 O 0.19237(18) 1.0903(4) 0.5817(4)
N1B N 0.1145(3) 0.8489(6) 0.5188(3)
Cd2 Cd 0.05506(2) 1.21235(5) 0.73183(3)
O6 O 0.01622(19) 1.0557(5) 0.8061(3)
O7 O 0.06290(18) 0.9570(4) 0.7192(3)
O8 O 0.0584(2) 0.4586(4) 0.7245(4)
O9 O 0.0136(3) 0.3625(5) 0.8133(3)
O10 O 0.0963(2) 1.2192(5) 0.6154(3)
H23 H 0.0957 1.2985 0.6061
H24 H 0.1279 1.1908 0.6149
N5 N 0.1357(3) 1.2161(6) 0.7859(4)
N6 N 0.2223(2) 1.1800(7) 0.8103(4)
N7 N 0.3886(3) 1.3373(8) 0.6507(4)
N8 N 0.4753(3) 1.2941(7) 0.6669(4)
C20 C 0.0063(3) 0.8284(6) 0.7984(4)
C21 C 0.0256(3) 0.7084(7) 0.7757(4)
H25 H 0.0541 0.7054 0.7422
C22 C 0.0041(3) 0.5943(7) 0.8009(4)
C23 C -0.0392(3) 0.5989(8) 0.8492(5)
H26 H -0.0535 0.5211 0.8671
C24 C -0.0613(4) 0.7146(8) 0.8712(5)
C25 C -0.0374(3) 0.8322(7) 0.8475(5)
H27 H -0.0506 0.9119 0.8644
C26 C 0.0306(3) 0.9536(7) 0.7732(4)
C27 C 0.0259(3) 0.4611(8) 0.7782(5)
C28 C -0.1119(4) 0.7223(9) 0.9205(6)
H28 H -0.1218 0.6360 0.9363
H29 H -0.1415 0.7601 0.8937
H30 H -0.1041 0.7755 0.9624
C29 C 0.1796(3) 1.1501(8) 0.7679(4)
H31 H 0.1809 1.0895 0.7300
C30 C 0.1518(3) 1.2918(8) 0.8430(5)
H32 H 0.1295 1.3496 0.8682
C31 C 0.2049(3) 1.2713(8) 0.8580(5)
H33 H 0.2254 1.3121 0.8941
C32 C 0.2783(3) 1.1272(9) 0.8023(5)
H34 H 0.2918 1.1006 0.8499
H35 H 0.2775 1.0506 0.7711
C33 C 0.3156(4) 1.2249(10) 0.7707(6)
H36 H 0.3512 1.1856 0.7653
H37 H 0.3190 1.2973 0.8046
C34 C 0.2975(4) 1.2779(13) 0.6969(6)
H38 H 0.2610 1.3123 0.7019
H39 H 0.2960 1.2059 0.6625
C35 C 0.3338(3) 1.3849(9) 0.6649(5)
H40 H 0.3180 1.4163 0.6197
H41 H 0.3355 1.4577 0.6988
C36 C 0.4324(3) 1.3508(8) 0.6940(5)
H42 H 0.4322 1.3956 0.7382
C37 C 0.4593(4) 1.2414(8) 0.6037(6)
H43 H 0.4812 1.1932 0.5722
C38 C 0.4058(4) 1.2698(10) 0.5928(6)
H44 H 0.3850 1.2464 0.5523
Cd2_2 Cd 0.05506(2) 0.21235(5) 0.73183(3)
Cd2B Cd 0.55506(2) 1.28765(5) 0.73183(3)
O8_2 O 0.0584(2) 1.4586(4) 0.7245(4)
O9_2 O 0.0136(3) 1.3625(5) 0.8133(3)
N8B N -0.0247(3) 1.2059(7) 0.6669(4)
O11 O 0.1727(2) 0.5692(5) 0.7336(4)
H45 H 0.1418 0.5386 0.7314
H46 H 0.1864 0.5821 0.6931
O12 O 0.0777(2) 0.4858(5) 0.5788(4)
H47 H 0.0605 0.4824 0.6189
H48 H 0.1092 0.5104 0.5859
loop_
_geom_bond_atom_site_label_1
_geom_bond_atom_site_label_2
_geom_bond_site_symmetry_1
_geom_bond_site_symmetry_2
Cd1 O3 1_555 1_555
O1 C7 1_555 1_555
O2 C7 1_555 1_555
O3 C8 1_555 1_555
O4 Cd1 1_555 1_555
O5 Cd1 1_555 1_555
H1 O5 1_555 1_555
H2 O5 1_555 1_555
N1 C10 1_555 1_555
N2 C10 1_555 1_555
N3 C16 1_555 1_555
N4 Cd1 1_555 1_555
C1 C2 1_555 1_555
C2 H3 1_555 1_555
C3 C2 1_555 1_555
C4 C3 1_555 1_555
H4 C4 1_555 1_555
C5 C4 1_555 1_555
C6 C1 1_555 1_555
H5 C6 1_555 1_555
C7 C1 1_555 1_555
C8 O4 1_555 1_555
C9 C5 1_555 1_555
H6 C9 1_555 1_555
H7 C9 1_555 1_555
H8 C9 1_555 1_555
C10 H9 1_555 1_555
C11 N1 1_555 1_555
H10 C11 1_555 1_555
C12 N2 1_555 1_555
H11 C12 1_555 1_555
C13 N2 1_555 1_555
H12 C13 1_555 1_555
H13 C13 1_555 1_555
C14 C13 1_555 1_555
H14 C14 1_555 1_555
H15 C14 1_555 1_555
C15 C14 1_555 1_555
H16 C15 1_555 1_555
H17 C15 1_555 1_555
C16 C15 1_555 1_555
H18 C16 1_555 1_555
H19 C16 1_555 1_555
C17 N3 1_555 1_555
H20 C17 1_555 1_555
C18 N4 1_555 1_555
H21 C18 1_555 1_555
C19 N3 1_555 1_555
H22 C19 1_555 1_555
Cd2 O6 1_555 1_555
O6 C26 1_555 1_555
O7 Cd2 1_555 1_555
O8 C27 1_555 1_555
O9 C27 1_555 1_555
O10 Cd2 1_555 1_555
H23 O10 1_555 1_555
H24 O10 1_555 1_555
N5 Cd2 1_555 1_555
N6 C29 1_555 1_555
N7 C35 1_555 1_555
N8 C36 1_555 1_555
C20 C21 1_555 1_555
C21 H25 1_555 1_555
C22 C21 1_555 1_555
C23 C22 1_555 1_555
H26 C23 1_555 1_555
C24 C23 1_555 1_555
C25 C20 1_555 1_555
H27 C25 1_555 1_555
C26 O7 1_555 1_555
C27 C22 1_555 1_555
C28 C24 1_555 1_555
H28 C28 1_555 1_555
H29 C28 1_555 1_555
H30 C28 1_555 1_555
C29 N5 1_555 1_555
H31 C29 1_555 1_555
C30 N5 1_555 1_555
H32 C30 1_555 1_555
C31 N6 1_555 1_555
H33 C31 1_555 1_555
C32 N6 1_555 1_555
H34 C32 1_555 1_555
H35 C32 1_555 1_555
C33 C32 1_555 1_555
H36 C33 1_555 1_555
H37 C33 1_555 1_555
C34 C33 1_555 1_555
H38 C34 1_555 1_555
H39 C34 1_555 1_555
C35 C34 1_555 1_555
H40 C35 1_555 1_555
H41 C35 1_555 1_555
C36 N7 1_555 1_555
H42 C36 1_555 1_555
C37 N8 1_555 1_555
H43 C37 1_555 1_555
C38 N7 1_555 1_555
H44 C38 1_555 1_555
O11 H45 1_555 1_555
H46 O11 1_555 1_555
O12 H47 1_555 1_555
H48 O12 1_555 1_555
Cd1_2 O1 1_555 1_555
Cd1B N1 1_555 1_555
O1_2 Cd1 1_555 1_555
O2_2 Cd1 1_555 1_555
N1B Cd1 1_555 1_555
Cd2_2 O8 1_555 1_555
Cd2B N8 1_555 1_555
O8_2 Cd2 1_555 1_555
O9_2 Cd2 1_555 1_555
N8B Cd2 1_555 1_555
O2 Cd1_2 1_555 1_555
N4 C17 1_555 1_555
C3 C8 1_555 1_555
C5 C6 1_555 1_555
C11 C12 1_555 1_555
C18 C19 1_555 1_555
O9 Cd2_2 1_555 1_555
C20 C26 1_555 1_555
C24 C25 1_555 1_555
C30 C31 1_555 1_555
C37 C38 1_555 1_555

#END
