
#######################################################################
#
#                 Cambridge Crystallographic Data Centre
#                                CCDC 
#
#######################################################################
#
# If this CIF has been generated from an entry in the Cambridge 
# Structural Database, then it will include bibliographic, chemical, 
# crystal, experimental, refinement or atomic coordinate data resulting 
# from the CCDC's data processing and validation procedures.
#
#######################################################################

data_TIJCOE
_symmetry_cell_setting           triclinic
_symmetry_space_group_name_H-M   'P -1'
_symmetry_Int_Tables_number      2
_space_group_name_Hall           '-P 1'
loop_
_symmetry_equiv_pos_site_id
_symmetry_equiv_pos_as_xyz
1 x,y,z
2 -x,-y,-z
_cell_length_a                   6.9892(3)
_cell_length_b                   7.169(4)
_cell_length_c                   8.2106(3)
_cell_angle_alpha                85.922(3)
_cell_angle_beta                 84.242(4)
_cell_angle_gamma                61.818(3)
_cell_volume                     360.665
loop_
_atom_site_label
_atom_site_type_symbol
_atom_site_fract_x
_atom_site_fract_y
_atom_site_fract_z
Ni1 Ni 0.5000 -0.5 -0.5
Ni2 Ni 0.0000 0.0000 0.0000
O1 O 0.3411(7) -0.3757(10) -0.2861(4)
O2 O -0.0010(8) -0.1574(10) -0.1899(6)
O3 O -0.3159(13) -0.3524(11) -0.1033(7)
O4 O -0.4596(13) -0.0776(11) -0.2999(10)
O5 O 0.3538(10) -0.2121(6) -0.6071(8)
O6 O 0.2786(7) -0.2399(7) 0.0676(9)
O7 O 0.1629(11) 0.1344(11) -0.1298(8)
N1 N 0.2071(6) -0.5090(12) -0.5042(7)
C1 C 0.0512(9) -0.4183(16) -0.3764(8)
C2 C -0.1532(9) -0.4034(16) -0.3744(8)
C3 C 0.1347(9) -0.2982(15) -0.2850(14)
C4 C -0.3290(17) -0.2634(12) -0.2456(8)
C2A C 0.1532(9) -0.5966(16) -0.6256(8)
C1A C -0.0512(9) -0.5817(16) -0.6236(8)
N1A N -0.2071(6) -0.4910(12) -0.4958(7)
C3A C -0.1347(9) -0.7018(15) -0.7150(14)
O1A O -0.3411(7) -0.6243(10) -0.7139(4)
O2A O 0.0010(8) -0.8426(10) -0.8101(6)
C4A C 0.3290(17) -0.7366(12) -0.7544(8)
O3A O 0.3159(13) -0.6476(11) -0.8967(7)
O4A O 0.4596(13) -0.9224(11) -0.7001(10)
O5A O 0.6462(10) -0.7879(6) -0.3929(8)
O6A O -0.2786(7) 0.2399(7) -0.0676(9)
O7A O -0.1629(11) -0.1344(11) 0.1298(8)
O1A_2 O 0.6589(7) -0.6243(10) -0.7139(4)
N1A_2 N 0.7929(6) -0.4910(12) -0.4958(7)
O2A_2 O 0.0010(8) 0.1574(10) 0.1899(6)
Ni1_2 Ni -0.5000 -0.5 -0.5
Ni2_2 Ni 0.0000 -1.0000 -1.0000
loop_
_geom_bond_atom_site_label_1
_geom_bond_atom_site_label_2
_geom_bond_site_symmetry_1
_geom_bond_site_symmetry_2
Ni1 O1 1_555 1_555
Ni2 O2 1_555 1_555
O1 C3 1_555 1_555
O2 C3 1_555 1_555
O3 C4 1_555 1_555
O4 C4 1_555 1_555
O5 Ni1 1_555 1_555
O6 Ni2 1_555 1_555
O7 Ni2 1_555 1_555
N1 Ni1 1_555 1_555
C1 N1 1_555 1_555
C2 C1 1_555 1_555
C3 C1 1_555 1_555
C4 C2 1_555 1_555
C2A N1 1_555 1_555
C1A C2A 1_555 1_555
N1A C2 1_555 1_555
C3A C1A 1_555 1_555
O1A C3A 1_555 1_555
O2A C3A 1_555 1_555
C4A C2A 1_555 1_555
O3A C4A 1_555 1_555
O4A C4A 1_555 1_555
O5A Ni1 1_555 1_555
O6A Ni2 1_555 1_555
O7A Ni2 1_555 1_555
O1A_2 Ni1 1_555 1_555
N1A_2 Ni1 1_555 1_555
O2A_2 Ni2 1_555 1_555
Ni1_2 N1A 1_555 1_555
Ni2_2 O2A 1_555 1_555
C1A N1A 1_555 1_555
O1A Ni1_2 1_555 1_555

#END
