
#######################################################################
#
#                 Cambridge Crystallographic Data Centre
#                                CCDC 
#
#######################################################################
#
# If this CIF has been generated from an entry in the Cambridge 
# Structural Database, then it will include bibliographic, chemical, 
# crystal, experimental, refinement or atomic coordinate data resulting 
# from the CCDC's data processing and validation procedures.
#
#######################################################################

data_TIJCUK
_symmetry_cell_setting           monoclinic
_symmetry_space_group_name_H-M   'P 21/c'
_symmetry_Int_Tables_number      14
_space_group_name_Hall           '-P 2ybc'
loop_
_symmetry_equiv_pos_site_id
_symmetry_equiv_pos_as_xyz
1 x,y,z
2 x,1/2-y,1/2+z
3 -x,-y,-z
4 -x,1/2+y,1/2-z
_cell_length_a                   17.146(2)
_cell_length_b                   10.9380(16)
_cell_length_c                   18.965(9)
_cell_angle_alpha                90
_cell_angle_beta                 109.96(2)
_cell_angle_gamma                90
_cell_volume                     3343.1
loop_
_atom_site_label
_atom_site_type_symbol
_atom_site_fract_x
_atom_site_fract_y
_atom_site_fract_z
K1 K 0.70547(7) 0.02638(10) 0.25207(6)
P1 P 0.67571(10) 0.68220(12) 0.19374(8)
O1 O 0.6559(2) 0.5538(3) 0.22529(17)
O2 O 0.7699(2) 0.2671(3) 0.23963(16)
O3 O 0.8805(2) 0.4057(3) 0.36145(15)
O4 O 0.8761(2) 0.3669(3) 0.21442(17)
O5 O 0.7703(2) 0.6600(3) 0.19574(17)
O6 O 0.7481(2) 0.3467(3) 0.12242(16)
O7 O 0.6800(3) 0.7761(3) 0.2505(2)
O8 O 0.6195(3) 0.6983(4) 0.1157(2)
O9 O 0.8043(2) 0.4444(3) 0.43470(17)
O10 O 0.8786(2) 0.0008(3) 0.31345(19)
O11 O 0.8105(2) 0.0033(3) 0.15589(19)
O12 O 0.6388(3) 0.0435(4) 0.0945(2)
O13 O 0.5589(2) 0.1627(4) 0.1829(2)
O14 O 0.6233(3) 0.1467(4) 0.3384(2)
O15 O 0.7952(2) 0.1242(3) 0.40056(17)
C1 C 0.6788(3) 0.4403(4) 0.1996(2)
H1 H 0.6299 0.3878 0.1795
C2 C 0.7429(3) 0.3780(4) 0.2656(2)
H2 H 0.7181 0.3581 0.3038
C3 C 0.8163(3) 0.4610(4) 0.2989(2)
H3 H 0.7985 0.5389 0.3141
C4 C 0.8549(3) 0.4819(4) 0.2394(3)
H4 H 0.9047 0.5327 0.2595
C5 C 0.7918(3) 0.5455(4) 0.1713(2)
H5 H 0.8173 0.5600 0.1330
C6 C 0.7190(3) 0.4605(4) 0.1401(2)
H6 H 0.6786 0.4960 0.0950
C7 C 0.8054(3) 0.2937(4) 0.1852(3)
H7 H 0.8229 0.2161 0.1695
C8 C 0.8672(3) 0.4064(4) 0.4279(2)
C9 C 0.9400(3) 0.3561(4) 0.4890(2)
C10 C 0.9307(4) 0.3362(5) 0.5578(3)
H8 H 0.8804 0.3528 0.5644
C11 C 0.9968(4) 0.2916(5) 0.6161(3)
H9 H 0.9904 0.2759 0.6620
C12 C 1.0715(4) 0.2701(5) 0.6078(3)
H10 H 1.1160 0.2418 0.6481
C13 C 1.0806(3) 0.2904(5) 0.5391(3)
H11 H 1.1313 0.2752 0.5330
C14 C 1.0145(3) 0.3334(4) 0.4795(3)
H12 H 1.0204 0.3469 0.4332
C15 C 0.9275(3) -0.0028(5) 0.2667(3)
H13 H 0.9791 -0.0456 0.2919
H14 H 0.9408 0.0797 0.2558
C16 C 0.8807(4) -0.0665(5) 0.1960(3)
H15 H 0.9159 -0.0775 0.1659
H16 H 0.8635 -0.1465 0.2072
C17 C 0.7597(4) -0.0517(5) 0.0883(3)
H17 H 0.7380 -0.1288 0.0989
H18 H 0.7917 -0.0676 0.0559
C18 C 0.6919(4) 0.0315(6) 0.0517(3)
H19 H 0.7141 0.1110 0.0460
H20 H 0.6606 0.0008 0.0022
C19 C 0.5731(4) 0.1283(7) 0.0646(3)
H21 H 0.5430 0.1094 0.0123
H22 H 0.5952 0.2105 0.0674
C20 C 0.5164(4) 0.1203(7) 0.1088(3)
H23 H 0.4674 0.1699 0.0855
H24 H 0.4988 0.0363 0.1103
C21 C 0.5072(4) 0.1644(8) 0.2271(4)
H25 H 0.4907 0.0817 0.2341
H26 H 0.4575 0.2114 0.2020
C22 C 0.5529(4) 0.2198(8) 0.3005(4)
H27 H 0.5705 0.3017 0.2933
H28 H 0.5170 0.2254 0.3303
C23 C 0.6693(4) 0.1913(7) 0.4113(3)
H29 H 0.6352 0.1889 0.4429
H30 H 0.6857 0.2754 0.4080
C24 C 0.7436(4) 0.1149(6) 0.4443(3)
H31 H 0.7735 0.1418 0.4952
H32 H 0.7273 0.0304 0.4463
C25 C 0.8683(4) 0.0549(6) 0.4308(3)
H33 H 0.8543 -0.0300 0.4352
H34 H 0.8999 0.0848 0.4806
C26 C 0.9187(4) 0.0647(5) 0.3816(3)
H35 H 0.9255 0.1500 0.3710
H36 H 0.9733 0.0300 0.4066
O7_2 O 0.6800(3) -0.2239(3) 0.2505(2)
K1_2 K 0.70547(7) 1.02638(10) 0.25207(6)
O17 O 0.2908(5) 0.1835(8) 0.1004(4)
O18 O 0.3739(8) 0.3504(9) 0.0200(5)
O20 O 0.5105(9) 0.0607(13) 0.4710(8)
O16? O 0.2743(8) 0.3018(15) 0.1048(7)
O19? O 0.3101(11) 0.3334(12) 0.0010(7)
O21? O 0.5220(12) -0.0380(17) 0.4008(10)
loop_
_geom_bond_atom_site_label_1
_geom_bond_atom_site_label_2
_geom_bond_site_symmetry_1
_geom_bond_site_symmetry_2
K1 O2 1_555 1_555
P1 O1 1_555 1_555
O1 C1 1_555 1_555
O2 C2 1_555 1_555
O3 C3 1_555 1_555
O4 C4 1_555 1_555
O5 P1 1_555 1_555
O6 C6 1_555 1_555
O7 P1 1_555 1_555
O8 P1 1_555 1_555
O9 C8 1_555 1_555
O10 K1 1_555 1_555
O11 K1 1_555 1_555
O12 K1 1_555 1_555
O13 K1 1_555 1_555
O14 K1 1_555 1_555
O15 K1 1_555 1_555
C1 H1 1_555 1_555
C2 C1 1_555 1_555
H2 C2 1_555 1_555
C3 C2 1_555 1_555
H3 C3 1_555 1_555
C4 C3 1_555 1_555
H4 C4 1_555 1_555
C5 O5 1_555 1_555
H5 C5 1_555 1_555
C6 C1 1_555 1_555
H6 C6 1_555 1_555
C7 O2 1_555 1_555
H7 C7 1_555 1_555
C8 O3 1_555 1_555
C9 C8 1_555 1_555
C10 C9 1_555 1_555
H8 C10 1_555 1_555
C11 C10 1_555 1_555
H9 C11 1_555 1_555
C12 C11 1_555 1_555
H10 C12 1_555 1_555
C13 C12 1_555 1_555
H11 C13 1_555 1_555
C14 C9 1_555 1_555
H12 C14 1_555 1_555
C15 O10 1_555 1_555
H13 C15 1_555 1_555
H14 C15 1_555 1_555
C16 O11 1_555 1_555
H15 C16 1_555 1_555
H16 C16 1_555 1_555
C17 O11 1_555 1_555
H17 C17 1_555 1_555
H18 C17 1_555 1_555
C18 O12 1_555 1_555
H19 C18 1_555 1_555
H20 C18 1_555 1_555
C19 O12 1_555 1_555
H21 C19 1_555 1_555
H22 C19 1_555 1_555
C20 O13 1_555 1_555
H23 C20 1_555 1_555
H24 C20 1_555 1_555
C21 O13 1_555 1_555
H25 C21 1_555 1_555
H26 C21 1_555 1_555
C22 O14 1_555 1_555
H27 C22 1_555 1_555
H28 C22 1_555 1_555
C23 O14 1_555 1_555
H29 C23 1_555 1_555
H30 C23 1_555 1_555
C24 O15 1_555 1_555
H31 C24 1_555 1_555
H32 C24 1_555 1_555
C25 O15 1_555 1_555
H33 C25 1_555 1_555
H34 C25 1_555 1_555
C26 O10 1_555 1_555
H35 C26 1_555 1_555
H36 C26 1_555 1_555
O7_2 K1 1_555 1_555
K1_2 O7 1_555 1_555
O4 C7 1_555 1_555
O6 C7 1_555 1_555
C4 C5 1_555 1_555
C5 C6 1_555 1_555
C13 C14 1_555 1_555
C15 C16 1_555 1_555
C17 C18 1_555 1_555
C19 C20 1_555 1_555
C21 C22 1_555 1_555
C23 C24 1_555 1_555
C25 C26 1_555 1_555

#END
