
#######################################################################
#
#                 Cambridge Crystallographic Data Centre
#                                CCDC 
#
#######################################################################
#
# If this CIF has been generated from an entry in the Cambridge 
# Structural Database, then it will include bibliographic, chemical, 
# crystal, experimental, refinement or atomic coordinate data resulting 
# from the CCDC's data processing and validation procedures.
#
#######################################################################

data_TIJDUM
_symmetry_cell_setting           triclinic
_symmetry_space_group_name_H-M   'P -1'
_symmetry_Int_Tables_number      2
_space_group_name_Hall           '-P 1'
loop_
_symmetry_equiv_pos_site_id
_symmetry_equiv_pos_as_xyz
1 x,y,z
2 -x,-y,-z
_cell_length_a                   13.382(5)
_cell_length_b                   14.081(5)
_cell_length_c                   20.242(8)
_cell_angle_alpha                94.217(3)
_cell_angle_beta                 107.932(4)
_cell_angle_gamma                90.853(6)
_cell_volume                     3616.3
loop_
_atom_site_label
_atom_site_type_symbol
_atom_site_fract_x
_atom_site_fract_y
_atom_site_fract_z
Au1 Au -0.02879(2) 0.35409(2) 0.168730(17)
Au2 Au 0.53841(2) 0.88646(2) 0.336312(17)
Au3 Au 0.45925(2) -0.13444(2) 0.175050(17)
Au4 Au 0.03993(2) 0.37699(2) 0.332710(17)
Mn1 Mn -0.31673(8) 0.19680(7) 0.26043(6)
Mn2 Mn 0.32337(8) 0.55463(8) 0.23768(6)
Mn3 Mn 0.17041(8) 0.06216(8) 0.24750(6)
Mn4 Mn -0.19797(8) 0.66825(7) 0.25564(6)
N1 N -0.2334(5) 0.2696(5) 0.1897(4)
N2 N 0.1857(5) 0.4506(5) 0.1743(4)
N3 N 0.4411(5) 0.6796(5) 0.3154(4)
N4 N -0.3765(5) 0.0911(5) 0.3292(4)
N5 N 0.2537(5) -0.0346(5) 0.1800(4)
N6 N -0.3377(5) 0.7520(4) 0.1914(4)
N7 N -0.0717(5) 0.5705(4) 0.3199(3)
N8 N 0.1267(5) 0.1735(5) 0.3221(4)
N9 N -0.3429(5) 0.0835(4) 0.1926(4)
N10 N -0.1792(4) 0.1381(4) 0.2984(3)
N11 N 0.2421(4) 0.5708(4) 0.3052(4)
N12 N 0.2428(5) 0.6645(4) 0.1972(3)
N13 N 0.3144(5) 0.0828(4) 0.3119(3)
N14 N 0.2142(5) 0.1697(4) 0.2043(4)
N15 N -0.2830(4) 0.6352(4) 0.3157(4)
N16 N -0.2672(4) 0.5480(4) 0.2026(3)
O1 O -0.4457(4) 0.2471(4) 0.2151(3)
O2 O -0.2832(4) 0.2961(3) 0.3309(3)
O3 O 0.4041(4) 0.4608(3) 0.2863(3)
O4 O 0.3930(4) 0.5487(3) 0.1715(3)
O5 O 0.1413(4) -0.0416(4) 0.2920(3)
O6 O 0.0367(4) 0.0545(4) 0.1817(3)
O7 O -0.1394(4) 0.7792(3) 0.3128(3)
O8 O -0.1194(4) 0.6844(3) 0.1943(3)
C1 C -0.1623(6) 0.2982(5) 0.1765(4)
C2 C 0.1059(6) 0.4135(5) 0.1682(4)
C3 C 0.4754(6) 0.7546(6) 0.3274(4)
C4 C -0.4033(6) 0.0169(6) 0.3364(4)
C5 C 0.3275(6) -0.0675(5) 0.1749(4)
C6 C -0.4095(6) 0.7937(5) 0.1825(4)
C7 C -0.0276(6) 0.5020(5) 0.3294(4)
C8 C 0.0990(6) 0.2495(6) 0.3306(4)
C9 C -0.5054(6) 0.2270(6) 0.1493(4)
C10 C -0.5790(6) 0.2928(7) 0.1184(5)
H1 H -0.5826 0.3504 0.1430
C11 C -0.6454(7) 0.2733(9) 0.0525(6)
H2 H -0.6936 0.3183 0.0330
C12 C -0.6439(9) 0.1897(10) 0.0140(6)
H3 H -0.6901 0.1781 -0.0310
C13 C -0.5717(8) 0.1221(8) 0.0433(5)
H4 H -0.5717 0.0638 0.0186
C14 C -0.4990(7) 0.1419(7) 0.1099(4)
C15 C -0.4191(7) 0.0740(6) 0.1353(5)
H5 H -0.4233 0.0177 0.1074
C16 C -0.2638(6) 0.0107(5) 0.2133(5)
H6 H -0.2828 -0.0310 0.2440
H7 H -0.2596 -0.0277 0.1725
C17 C -0.1629(6) 0.0602(5) 0.2492(4)
H8 H -0.1343 0.0866 0.2156
H9 H -0.1134 0.0159 0.2746
C18 C -0.1109(6) 0.1635(5) 0.3564(4)
H10 H -0.0519 0.1269 0.3704
C19 C -0.1178(5) 0.2451(5) 0.4025(4)
C20 C -0.0302(6) 0.2662(6) 0.4631(4)
H11 H 0.0249 0.2247 0.4730
C21 C -0.0248(6) 0.3456(6) 0.5073(5)
H12 H 0.0331 0.3585 0.5468
C22 C -0.1079(7) 0.4064(6) 0.4917(4)
H13 H -0.1050 0.4610 0.5212
C23 C -0.1939(6) 0.3884(5) 0.4343(4)
H14 H -0.2489 0.4301 0.4259
C24 C -0.2002(5) 0.3082(5) 0.3880(4)
C25 C 0.4131(6) 0.4382(5) 0.3496(4)
C26 C 0.4946(6) 0.3792(5) 0.3809(5)
H15 H 0.5404 0.3582 0.3570
C27 C 0.5077(7) 0.3517(6) 0.4476(5)
H16 H 0.5635 0.3142 0.4684
C28 C 0.4383(9) 0.3796(8) 0.4832(6)
H17 H 0.4453 0.3586 0.5269
C29 C 0.3597(7) 0.4381(7) 0.4535(5)
H18 H 0.3138 0.4573 0.4778
C30 C 0.3458(6) 0.4701(6) 0.3878(4)
C31 C 0.2634(6) 0.5350(6) 0.3629(4)
H19 H 0.2227 0.5518 0.3914
C32 C 0.1536(7) 0.6363(6) 0.2800(5)
H20 H 0.0923 0.6006 0.2491
H21 H 0.1350 0.6658 0.3192
C33 C 0.1865(6) 0.7077(6) 0.2437(5)
H22 H 0.2325 0.7549 0.2771
H23 H 0.1257 0.7396 0.2164
C34 C 0.2440(6) 0.7003(5) 0.1414(4)
H24 H 0.1990 0.7497 0.1272
C35 C 0.3073(6) 0.6723(5) 0.0981(4)
C36 C 0.3039(7) 0.7232(6) 0.0414(5)
H25 H 0.2542 0.7695 0.0288
C37 C 0.3711(9) 0.7072(7) 0.0036(5)
H26 H 0.3690 0.7437 -0.0332
C38 C 0.4426(8) 0.6363(7) 0.0207(5)
H27 H 0.4871 0.6239 -0.0060
C39 C 0.4493(6) 0.5838(6) 0.0763(4)
H28 H 0.4990 0.5372 0.0872
C40 C 0.3816(6) 0.5998(5) 0.1171(4)
C41 C 0.1963(6) -0.0713(5) 0.3519(4)
C42 C 0.1512(7) -0.1406(6) 0.3812(5)
H29 H 0.0831 -0.1640 0.3581
C43 C 0.2042(9) -0.1737(7) 0.4417(5)
H30 H 0.1720 -0.2215 0.4583
C44 C 0.3045(10) -0.1409(8) 0.4811(6)
H31 H 0.3387 -0.1636 0.5240
C45 C 0.3511(8) -0.0725(7) 0.4532(5)
H32 H 0.4194 -0.0503 0.4773
C46 C 0.2982(7) -0.0352(6) 0.3893(4)
C47 C 0.3515(6) 0.0387(6) 0.3668(5)
H33 H 0.4195 0.0563 0.3947
C48 C 0.3776(7) 0.1545(6) 0.2895(6)
H34 H 0.4290 0.1870 0.3299
H35 H 0.4147 0.1231 0.2602
C49 C 0.3066(7) 0.2230(7) 0.2508(5)
H36 H 0.3410 0.2584 0.2241
H37 H 0.2862 0.2677 0.2826
C50 C 0.1714(6) 0.1897(5) 0.1415(5)
H38 H 0.2040 0.2371 0.1248
C51 C 0.0768(6) 0.1444(6) 0.0951(5)
C52 C 0.0471(8) 0.1644(6) 0.0246(5)
H39 H 0.0905 0.2029 0.0086
C53 C -0.0474(8) 0.1262(7) -0.0207(5)
H40 H -0.0666 0.1383 -0.0675
C54 C -0.1120(8) 0.0716(6) 0.0022(6)
H41 H -0.1754 0.0477 -0.0292
C55 C -0.0861(7) 0.0503(6) 0.0713(5)
H42 H -0.1327 0.0146 0.0864
C56 C 0.0107(6) 0.0833(5) 0.1176(4)
C57 C -0.1604(6) 0.8156(5) 0.3694(4)
C58 C -0.1130(6) 0.9051(5) 0.4001(4)
H43 H -0.0686 0.9360 0.3803
C59 C -0.1309(7) 0.9471(6) 0.4582(5)
H44 H -0.1020 1.0077 0.4758
C60 C -0.1915(8) 0.9007(8) 0.4912(5)
H45 H -0.2003 0.9282 0.5322
C61 C -0.2384(7) 0.8135(7) 0.4627(4)
H46 H -0.2805 0.7828 0.4842
C62 C -0.2245(5) 0.7696(5) 0.4020(4)
C63 C -0.2820(6) 0.6819(5) 0.3725(4)
H47 H -0.3228 0.6563 0.3972
C64 C -0.3576(9) 0.5550(7) 0.2860(6)
H48 H -0.3652 0.5188 0.3233
H49 H -0.4258 0.5790 0.2622
C65 C -0.3255(8) 0.4953(7) 0.2395(6)
H50 H -0.3867 0.4629 0.2059
H51 H -0.2814 0.4473 0.2645
C66 C -0.2572(5) 0.5134(5) 0.1453(4)
H52 H -0.2958 0.4575 0.1250
C67 C -0.1914(5) 0.5528(5) 0.1087(4)
C68 C -0.1899(6) 0.5029(5) 0.0467(4)
H53 H -0.2319 0.4476 0.0307
C69 C -0.1284(7) 0.5335(6) 0.0091(5)
H54 H -0.1297 0.5007 -0.0328
C70 C -0.0644(7) 0.6136(6) 0.0345(4)
H55 H -0.0212 0.6344 0.0098
C71 C -0.0629(6) 0.6642(5) 0.0961(4)
H56 H -0.0193 0.7186 0.1119
C72 C -0.1258(5) 0.6345(5) 0.1345(4)
Au2_2 Au 0.53841(2) -0.11354(2) 0.336312(17)
Au2_3 Au -0.46159(2) -0.11354(2) 0.336312(17)
Au3_2 Au 0.45925(2) 0.86556(2) 0.175050(17)
Au3_3 Au -0.54075(2) 0.86556(2) 0.175050(17)
C4_2 C 0.5967(6) 1.0169(6) 0.3364(4)
C6_2 C 0.5905(6) -0.2063(5) 0.1825(4)
O9 O 0.9187(7) 0.8786(5) 0.1710(5)
H57 H 0.9684 0.8737 0.2086
H58 H 0.8792 0.8286 0.1635
loop_
_geom_bond_atom_site_label_1
_geom_bond_atom_site_label_2
_geom_bond_site_symmetry_1
_geom_bond_site_symmetry_2
Au1 Au4 1_555 1_555
Au2 C3 1_555 1_555
Au3 C5 1_555 1_555
Au4 C7 1_555 1_555
Mn1 N1 1_555 1_555
Mn2 N2 1_555 1_555
Mn3 N5 1_555 1_555
Mn4 N6 1_555 1_555
N1 C1 1_555 1_555
N2 C2 1_555 1_555
N3 Mn2 1_555 1_555
N4 Mn1 1_555 1_555
N5 C5 1_555 1_555
N6 C6 1_555 1_555
N7 Mn4 1_555 1_555
N8 Mn3 1_555 1_555
N9 Mn1 1_555 1_555
N10 Mn1 1_555 1_555
N11 Mn2 1_555 1_555
N12 Mn2 1_555 1_555
N13 Mn3 1_555 1_555
N14 Mn3 1_555 1_555
N15 Mn4 1_555 1_555
N16 Mn4 1_555 1_555
O1 Mn1 1_555 1_555
O2 Mn1 1_555 1_555
O3 Mn2 1_555 1_555
O4 Mn2 1_555 1_555
O5 Mn3 1_555 1_555
O6 Mn3 1_555 1_555
O7 Mn4 1_555 1_555
O8 Mn4 1_555 1_555
C1 Au1 1_555 1_555
C2 Au1 1_555 1_555
C3 N3 1_555 1_555
C4 N4 1_555 1_555
C6 Au3_3 1_555 1_555
C7 N7 1_555 1_555
C8 Au4 1_555 1_555
C9 O1 1_555 1_555
C10 C9 1_555 1_555
H1 C10 1_555 1_555
C11 C10 1_555 1_555
H2 C11 1_555 1_555
C12 C11 1_555 1_555
H3 C12 1_555 1_555
C13 C12 1_555 1_555
H4 C13 1_555 1_555
C14 C9 1_555 1_555
C15 N9 1_555 1_555
H5 C15 1_555 1_555
C16 N9 1_555 1_555
H6 C16 1_555 1_555
H7 C16 1_555 1_555
C17 N10 1_555 1_555
H8 C17 1_555 1_555
H9 C17 1_555 1_555
C18 N10 1_555 1_555
H10 C18 1_555 1_555
C19 C18 1_555 1_555
C20 C19 1_555 1_555
H11 C20 1_555 1_555
C21 C20 1_555 1_555
H12 C21 1_555 1_555
C22 C21 1_555 1_555
H13 C22 1_555 1_555
C23 C22 1_555 1_555
H14 C23 1_555 1_555
C24 O2 1_555 1_555
C25 O3 1_555 1_555
C26 C25 1_555 1_555
H15 C26 1_555 1_555
C27 C26 1_555 1_555
H16 C27 1_555 1_555
C28 C27 1_555 1_555
H17 C28 1_555 1_555
C29 C28 1_555 1_555
H18 C29 1_555 1_555
C30 C25 1_555 1_555
C31 N11 1_555 1_555
H19 C31 1_555 1_555
C32 N11 1_555 1_555
H20 C32 1_555 1_555
H21 C32 1_555 1_555
C33 N12 1_555 1_555
H22 C33 1_555 1_555
H23 C33 1_555 1_555
C34 N12 1_555 1_555
H24 C34 1_555 1_555
C35 C34 1_555 1_555
C36 C35 1_555 1_555
H25 C36 1_555 1_555
C37 C36 1_555 1_555
H26 C37 1_555 1_555
C38 C37 1_555 1_555
H27 C38 1_555 1_555
C39 C38 1_555 1_555
H28 C39 1_555 1_555
C40 O4 1_555 1_555
C41 O5 1_555 1_555
C42 C41 1_555 1_555
H29 C42 1_555 1_555
C43 C42 1_555 1_555
H30 C43 1_555 1_555
C44 C43 1_555 1_555
H31 C44 1_555 1_555
C45 C44 1_555 1_555
H32 C45 1_555 1_555
C46 C41 1_555 1_555
C47 N13 1_555 1_555
H33 C47 1_555 1_555
C48 N13 1_555 1_555
H34 C48 1_555 1_555
H35 C48 1_555 1_555
C49 N14 1_555 1_555
H36 C49 1_555 1_555
H37 C49 1_555 1_555
C50 N14 1_555 1_555
H38 C50 1_555 1_555
C51 C50 1_555 1_555
C52 C51 1_555 1_555
H39 C52 1_555 1_555
C53 C52 1_555 1_555
H40 C53 1_555 1_555
C54 C53 1_555 1_555
H41 C54 1_555 1_555
C55 C54 1_555 1_555
H42 C55 1_555 1_555
C56 O6 1_555 1_555
C57 O7 1_555 1_555
C58 C57 1_555 1_555
H43 C58 1_555 1_555
C59 C58 1_555 1_555
H44 C59 1_555 1_555
C60 C59 1_555 1_555
H45 C60 1_555 1_555
C61 C60 1_555 1_555
H46 C61 1_555 1_555
C62 C57 1_555 1_555
C63 N15 1_555 1_555
H47 C63 1_555 1_555
C64 N15 1_555 1_555
H48 C64 1_555 1_555
H49 C64 1_555 1_555
C65 N16 1_555 1_555
H50 C65 1_555 1_555
H51 C65 1_555 1_555
C66 N16 1_555 1_555
H52 C66 1_555 1_555
C67 C66 1_555 1_555
C68 C67 1_555 1_555
H53 C68 1_555 1_555
C69 C68 1_555 1_555
H54 C69 1_555 1_555
C70 C69 1_555 1_555
H55 C70 1_555 1_555
C71 C70 1_555 1_555
H56 C71 1_555 1_555
C72 O8 1_555 1_555
O9 H57 1_555 1_555
H58 O9 1_555 1_555
Au2_2 Au3 1_555 1_555
Au2_3 C4 1_555 1_555
Au3_2 Au2 1_555 1_555
C4_2 Au2 1_555 1_555
C6_2 Au3 1_555 1_555
N8 C8 1_555 1_555
C13 C14 1_555 1_555
C14 C15 1_555 1_555
C16 C17 1_555 1_555
C19 C24 1_555 1_555
C23 C24 1_555 1_555
C29 C30 1_555 1_555
C30 C31 1_555 1_555
C32 C33 1_555 1_555
C35 C40 1_555 1_555
C39 C40 1_555 1_555
C45 C46 1_555 1_555
C46 C47 1_555 1_555
C48 C49 1_555 1_555
C51 C56 1_555 1_555
C55 C56 1_555 1_555
C61 C62 1_555 1_555
C62 C63 1_555 1_555
C64 C65 1_555 1_555
C67 C72 1_555 1_555
C71 C72 1_555 1_555

#END
