
#######################################################################
#
#                 Cambridge Crystallographic Data Centre
#                                CCDC 
#
#######################################################################
#
# If this CIF has been generated from an entry in the Cambridge 
# Structural Database, then it will include bibliographic, chemical, 
# crystal, experimental, refinement or atomic coordinate data resulting 
# from the CCDC's data processing and validation procedures.
#
#######################################################################

data_TIJGOJ
_symmetry_cell_setting           monoclinic
_symmetry_space_group_name_H-M   'P 21/c'
_symmetry_Int_Tables_number      14
_space_group_name_Hall           '-P 2ybc'
loop_
_symmetry_equiv_pos_site_id
_symmetry_equiv_pos_as_xyz
1 x,y,z
2 -x,1/2+y,1/2-z
3 -x,-y,-z
4 x,1/2-y,1/2+z
_cell_length_a                   13.976(3)
_cell_length_b                   7.9398(18)
_cell_length_c                   7.8687(18)
_cell_angle_alpha                90
_cell_angle_beta                 101.150(5)
_cell_angle_gamma                90
_cell_volume                     856.682
loop_
_atom_site_label
_atom_site_type_symbol
_atom_site_fract_x
_atom_site_fract_y
_atom_site_fract_z
Cu1 Cu 0.95998(6) 0.54264(10) 0.17193(10)
P1 P 0.92434(14) 0.1886(2) -0.0005(2)
N1 N 0.8298(4) 0.4804(7) 0.0216(6)
O1 O 1.0093(3) 0.3110(6) 0.0123(5)
O2 O 0.9087(3) 0.0661(5) -0.1476(5)
O3 O 0.9218(3) 0.1054(5) 0.1720(5)
C1 C 0.8171(5) 0.3242(8) -0.0371(8)
C2 C 0.7254(5) 0.2649(9) -0.1167(8)
H1 H 0.7188 0.1567 -0.1629
C3 C 0.6465(5) 0.3646(9) -0.1266(9)
H2 H 0.5848 0.3233 -0.1738
C4 C 0.6577(5) 0.5312(9) -0.0653(8)
C5 C 0.5798(6) 0.6464(10) -0.0794(10)
H3 H 0.5165 0.6122 -0.1261
C6 C 0.5978(6) 0.8092(10) -0.0238(10)
H4 H 0.5465 0.8854 -0.0328
C7 C 0.6912(6) 0.8598(10) 0.0450(10)
H5 H 0.7019 0.9708 0.0815
C8 C 0.7678(6) 0.7541(9) 0.0613(9)
H6 H 0.8302 0.7915 0.1092
C9 C 0.7523(5) 0.5866(8) 0.0051(8)
Cu1B Cu 1.04002(6) 0.45736(10) -0.17193(10)
Cu1C Cu 0.95998(6) -0.04264(10) -0.32807(10)
Cu1A Cu 1.04002(6) 0.04264(10) 0.32807(10)
O1B O 0.9907(3) 0.6890(6) -0.0123(5)
O2C O 0.9087(3) 0.4339(5) 0.3524(5)
O3A O 1.0782(3) 0.6054(5) 0.3280(5)
loop_
_geom_bond_atom_site_label_1
_geom_bond_atom_site_label_2
_geom_bond_site_symmetry_1
_geom_bond_site_symmetry_2
Cu1 N1 1_555 1_555
P1 O1 1_555 1_555
N1 C1 1_555 1_555
O1 Cu1 1_555 1_555
O2 P1 1_555 1_555
O3 P1 1_555 1_555
C1 P1 1_555 1_555
C2 C1 1_555 1_555
H1 C2 1_555 1_555
C3 C2 1_555 1_555
H2 C3 1_555 1_555
C4 C3 1_555 1_555
C5 C4 1_555 1_555
H3 C5 1_555 1_555
C6 C5 1_555 1_555
H4 C6 1_555 1_555
C7 C6 1_555 1_555
H5 C7 1_555 1_555
C8 C7 1_555 1_555
H6 C8 1_555 1_555
C9 N1 1_555 1_555
Cu1B O1 1_555 1_555
Cu1C O2 1_555 1_555
Cu1A O3 1_555 1_555
O1B Cu1 1_555 1_555
O2C Cu1 1_555 1_555
O3A Cu1 1_555 1_555
C4 C9 1_555 1_555
C8 C9 1_555 1_555
Cu1B O1B 1_555 1_555

#END
