
#######################################################################
#
#                 Cambridge Crystallographic Data Centre
#                                CCDC 
#
#######################################################################
#
# If this CIF has been generated from an entry in the Cambridge 
# Structural Database, then it will include bibliographic, chemical, 
# crystal, experimental, refinement or atomic coordinate data resulting 
# from the CCDC's data processing and validation procedures.
#
#######################################################################

data_TIJGUP
_symmetry_cell_setting           monoclinic
_symmetry_space_group_name_H-M   'P 21/c'
_symmetry_Int_Tables_number      14
_space_group_name_Hall           '-P 2ybc'
loop_
_symmetry_equiv_pos_site_id
_symmetry_equiv_pos_as_xyz
1 x,y,z
2 -x,1/2+y,1/2-z
3 -x,-y,-z
4 x,1/2-y,1/2+z
_cell_length_a                   17.164(4)
_cell_length_b                   5.4870(12)
_cell_length_c                   10.850(2)
_cell_angle_alpha                90
_cell_angle_beta                 101.557(4)
_cell_angle_gamma                90
_cell_volume                     1001.12
loop_
_atom_site_label
_atom_site_type_symbol
_atom_site_fract_x
_atom_site_fract_y
_atom_site_fract_z
Cd1 Cd 0.58279(3) 0.41716(8) 0.81651(4)
P1 P 0.59998(9) 0.8982(3) 0.63280(14)
N1 N 0.7075(3) 0.5849(9) 0.7737(5)
C1 C 0.6974(4) 0.7747(12) 0.6943(6)
C2 C 0.7635(4) 0.8764(12) 0.6529(7)
H1 H 0.7555 1.0086 0.5981
C3 C 0.8373(4) 0.7879(14) 0.6902(7)
H2 H 0.8796 0.8569 0.6608
C4 C 0.8502(4) 0.5906(14) 0.7739(7)
C5 C 0.9253(4) 0.4857(15) 0.8199(8)
H3 H 0.9696 0.5500 0.7941
C6 C 0.9351(4) 0.2967(15) 0.8994(7)
H4 H 0.9855 0.2326 0.9300
C7 C 0.8668(4) 0.1957(14) 0.9363(7)
H5 H 0.8728 0.0621 0.9902
C8 C 0.7934(4) 0.2903(13) 0.8945(6)
H6 H 0.7498 0.2217 0.9203
C9 C 0.7827(4) 0.4892(12) 0.8135(6)
O1 O 0.5426(2) 0.7597(7) 0.6983(4)
O2 O 0.5879(2) 0.8551(7) 0.4930(4)
O3 O 0.6043(3) 1.1677(7) 0.6648(4)
O4 O 0.6285(3) 0.1140(7) 0.9576(4)
H7 H 0.6087 -0.0394 0.9494
H8 H 0.6295 0.1877 1.0321
Cd1A Cd 0.41721(3) 0.91716(8) 0.68349(4)
Cd1C Cd 0.58279(3) 1.08284(8) 0.31651(4)
Cd1_2 Cd 0.58279(3) 1.41716(8) 0.81651(4)
O1A O 0.4574(2) 0.2597(7) 0.8017(4)
O2C O 0.5879(2) 0.6449(7) 0.9930(4)
O3_2 O 0.6043(3) 0.1677(7) 0.6648(4)
loop_
_geom_bond_atom_site_label_1
_geom_bond_atom_site_label_2
_geom_bond_site_symmetry_1
_geom_bond_site_symmetry_2
Cd1 N1 1_555 1_555
P1 C1 1_555 1_555
N1 C1 1_555 1_555
C1 C2 1_555 1_555
C2 H1 1_555 1_555
C3 C2 1_555 1_555
H2 C3 1_555 1_555
C4 C3 1_555 1_555
C5 C4 1_555 1_555
H3 C5 1_555 1_555
C6 C5 1_555 1_555
H4 C6 1_555 1_555
C7 C6 1_555 1_555
H5 C7 1_555 1_555
C8 C7 1_555 1_555
H6 C8 1_555 1_555
C9 N1 1_555 1_555
O1 Cd1 1_555 1_555
O2 P1 1_555 1_555
O3 P1 1_555 1_555
O4 Cd1 1_555 1_555
H7 O4 1_555 1_555
H8 O4 1_555 1_555
Cd1A O1 1_555 1_555
Cd1C O2 1_555 1_555
Cd1_2 O3 1_555 1_555
O1A Cd1 1_555 1_555
O2C Cd1 1_555 1_555
O3_2 Cd1 1_555 1_555
P1 O1 1_555 1_555
C4 C9 1_555 1_555
C8 C9 1_555 1_555

#END
