
#######################################################################
#
#                 Cambridge Crystallographic Data Centre
#                                CCDC 
#
#######################################################################
#
# If this CIF has been generated from an entry in the Cambridge 
# Structural Database, then it will include bibliographic, chemical, 
# crystal, experimental, refinement or atomic coordinate data resulting 
# from the CCDC's data processing and validation procedures.
#
#######################################################################

data_TIJHEA
_symmetry_cell_setting           triclinic
_symmetry_space_group_name_H-M   'P -1'
_symmetry_Int_Tables_number      2
_space_group_name_Hall           '-P 1'
loop_
_symmetry_equiv_pos_site_id
_symmetry_equiv_pos_as_xyz
1 x,y,z
2 -x,-y,-z
_cell_length_a                   8.5776(8)
_cell_length_b                   9.7925(9)
_cell_length_c                   11.1831(10)
_cell_angle_alpha                97.153(2)
_cell_angle_beta                 102.288(2)
_cell_angle_gamma                114.152(2)
_cell_volume                     813.546
loop_
_atom_site_label
_atom_site_type_symbol
_atom_site_fract_x
_atom_site_fract_y
_atom_site_fract_z
Cu1 Cu 0.35464(6) 0.59068(6) 0.29268(5)
V1 V 0.26597(8) 0.22754(8) 0.22086(6)
V2 V 0.44660(10) 0.84932(8) 0.57730(8)
F1 F 0.0342(3) 0.1122(3) 0.1387(3)
O1 O 0.3694(4) 0.2789(4) 0.1164(3)
O2 O 0.3487(4) 0.1234(4) 0.3091(3)
O3 O 0.2888(4) 0.3841(3) 0.3144(3)
O4 O 0.3557(4) 0.6852(3) 0.4739(3)
O5 O 0.4660(9) 1.0155(8) 0.5324(7)
O6 O 0.2849(13) 0.809(2) 0.6627(8)
N1 N 0.6224(4) 0.6710(4) 0.3339(3)
N2 N 0.4068(4) 0.7492(4) 0.1998(3)
N3 N 0.1046(4) 0.5571(4) 0.2070(3)
C1 C 0.7241(6) 0.6286(5) 0.4133(4)
H1 H 0.6683 0.5430 0.4472
C2 C 0.9093(6) 0.7059(5) 0.4477(4)
H2 H 0.9791 0.6726 0.5031
C3 C 0.9902(6) 0.8311(5) 0.4006(4)
H3 H 1.1167 0.8866 0.4245
C4 C 0.8856(5) 0.8759(5) 0.3177(4)
H4 H 0.9394 0.9618 0.2837
C5 C 0.7027(5) 0.7937(5) 0.2856(4)
C6 C 0.5766(5) 0.8289(4) 0.1991(4)
C7 C 0.6159(5) 0.9275(4) 0.1205(4)
H5 H 0.7356 0.9815 0.1186
C8 C 0.4809(5) 0.9481(4) 0.0440(4)
C9 C 0.3057(5) 0.8664(5) 0.0500(4)
H6 H 0.2105 0.8797 0.0007
C10 C 0.2744(5) 0.7667(5) 0.1286(4)
C11 C 0.0976(5) 0.6601(5) 0.1379(4)
C12 C -0.0610(5) 0.6613(5) 0.0807(4)
H7 H -0.0627 0.7353 0.0337
C13 C -0.2189(6) 0.5505(5) 0.0936(4)
H8 H -0.3306 0.5470 0.0543
C14 C -0.2109(6) 0.4466(5) 0.1641(4)
H9 H -0.3170 0.3714 0.1745
C15 C -0.0478(5) 0.4523(5) 0.2194(4)
H10 H -0.0434 0.3800 0.2677
Cu1A Cu 0.64536(6) 1.40932(6) -0.29268(5)
V1A V 0.73403(8) 0.77246(8) 0.77914(6)
V1A_2 V 0.73403(8) 1.77246(8) -0.22086(6)
V2A V 0.55340(10) 0.15068(8) 0.42270(8)
V2A_2 V 0.55340(10) 1.15068(8) 0.42270(8)
V2A_3 V 0.55340(10) 1.15068(8) -0.57730(8)
F1A F 0.9658(3) 0.8878(3) 0.8613(3)
O1A O 0.6306(4) 0.7211(4) 0.8836(3)
O2A O 0.6513(4) 0.8766(4) 0.6909(3)
O3A O 0.7112(4) 1.6159(3) -0.3144(3)
O3A_2 O 0.7112(4) 0.6159(3) 0.6856(3)
O4A O 0.6443(4) 1.3148(3) -0.4739(3)
O4A_2 O 0.6443(4) 0.3148(3) 0.5261(3)
O5A O 0.5340(9) 0.9845(8) 0.4676(7)
O5_2 O 0.4660(9) 0.0155(8) 0.5324(7)
O5A_2 O 0.5340(9) -0.0155(8) 0.4676(7)
O6A O 0.7151(13) 0.191(2) 0.3373(8)
N1A N 0.3776(4) 1.3290(4) -0.3339(3)
N2A N 0.5932(4) 1.2508(4) -0.1998(3)
N3A N 0.8954(4) 1.4429(4) -0.2070(3)
C1A C 0.2759(6) 1.3714(5) -0.4133(4)
H1A H 0.3317 1.4570 -0.4472
C2A C 0.0907(6) 1.2941(5) -0.4477(4)
H2A H 0.0209 1.3274 -0.5031
C3A C 0.0098(6) 1.1689(5) -0.4006(4)
H3A H -0.1167 1.1134 -0.4245
C4A C 0.1144(5) 1.1241(5) -0.3177(4)
H4A H 0.0606 1.0382 -0.2837
C5A C 0.2973(5) 1.2063(5) -0.2856(4)
C6A C 0.4234(5) 1.1711(4) -0.1991(4)
C7A C 0.3841(5) 1.0725(4) -0.1205(4)
H5A H 0.2644 1.0185 -0.1186
C8A C 0.5191(5) 1.0519(4) -0.0440(4)
C9A C 0.6943(5) 1.1336(5) -0.0500(4)
H6A H 0.7895 1.1203 -0.0007
C10A C 0.7256(5) 1.2333(5) -0.1286(4)
C11A C 0.9024(5) 1.3399(5) -0.1379(4)
C12A C 1.0610(5) 1.3387(5) -0.0807(4)
H7A H 1.0627 1.2647 -0.0337
C13A C 1.2189(6) 1.4495(5) -0.0936(4)
H8A H 1.3306 1.4530 -0.0543
C14A C 1.2109(6) 1.5534(5) -0.1641(4)
H9A H 1.3170 1.6286 -0.1745
C15A C 1.0478(5) 1.5477(5) -0.2194(4)
H10A H 1.0434 1.6200 -0.2677
loop_
_geom_bond_atom_site_label_1
_geom_bond_atom_site_label_2
_geom_bond_site_symmetry_1
_geom_bond_site_symmetry_2
Cu1 O3 1_555 1_555
V1 F1 1_555 1_555
V2 O4 1_555 1_555
O1 V1 1_555 1_555
O2 V1 1_555 1_555
O3 V1 1_555 1_555
O4 Cu1 1_555 1_555
O5 V2 1_555 1_555
O6 V2 1_555 1_555
N1 Cu1 1_555 1_555
N2 Cu1 1_555 1_555
N3 Cu1 1_555 1_555
C1 N1 1_555 1_555
H1 C1 1_555 1_555
C2 C1 1_555 1_555
H2 C2 1_555 1_555
C3 C2 1_555 1_555
H3 C3 1_555 1_555
C4 C3 1_555 1_555
H4 C4 1_555 1_555
C5 N1 1_555 1_555
C6 N2 1_555 1_555
C7 C6 1_555 1_555
H5 C7 1_555 1_555
C8 C7 1_555 1_555
C9 C8 1_555 1_555
H6 C9 1_555 1_555
C10 N2 1_555 1_555
C11 N3 1_555 1_555
C12 C11 1_555 1_555
H7 C12 1_555 1_555
C13 C12 1_555 1_555
H8 C13 1_555 1_555
C14 C13 1_555 1_555
H9 C14 1_555 1_555
C15 N3 1_555 1_555
H10 C15 1_555 1_555
Cu1A O3A 1_555 1_555
V1A F1A 1_555 1_555
V1A_2 O3A 1_555 1_555
V2A O2 1_555 1_555
V2A_2 O5 1_555 1_555
V2A_3 O4A 1_555 1_555
O1A V1A 1_555 1_555
O2A V2 1_555 1_555
O3A_2 V1A 1_555 1_555
O4A Cu1A 1_555 1_555
O4A_2 V2A 1_555 1_555
O5A V2 1_555 1_555
O5_2 V2A 1_555 1_555
O5A_2 V2A 1_555 1_555
O6A V2A 1_555 1_555
N1A Cu1A 1_555 1_555
N2A Cu1A 1_555 1_555
N3A Cu1A 1_555 1_555
C1A N1A 1_555 1_555
H1A C1A 1_555 1_555
C2A C1A 1_555 1_555
H2A C2A 1_555 1_555
C3A C2A 1_555 1_555
H3A C3A 1_555 1_555
C4A C3A 1_555 1_555
H4A C4A 1_555 1_555
C5A N1A 1_555 1_555
C6A N2A 1_555 1_555
C7A C6A 1_555 1_555
H5A C7A 1_555 1_555
C8A C8 1_555 1_555
C9A C8A 1_555 1_555
H6A C9A 1_555 1_555
C10A N2A 1_555 1_555
C11A N3A 1_555 1_555
C12A C11A 1_555 1_555
H7A C12A 1_555 1_555
C13A C12A 1_555 1_555
H8A C13A 1_555 1_555
C14A C13A 1_555 1_555
H9A C14A 1_555 1_555
C15A N3A 1_555 1_555
H10A C15A 1_555 1_555
O5 O5A 1_555 1_555
C4 C5 1_555 1_555
C5 C6 1_555 1_555
C9 C10 1_555 1_555
C10 C11 1_555 1_555
C14 C15 1_555 1_555
V1A O2A 1_555 1_555
V2A_2 O5A 1_555 1_555
O5_2 O5A_2 1_555 1_555
C4A C5A 1_555 1_555
C5A C6A 1_555 1_555
C7A C8A 1_555 1_555
C9A C10A 1_555 1_555
C10A C11A 1_555 1_555
C14A C15A 1_555 1_555

#END
