
#######################################################################
#
#                 Cambridge Crystallographic Data Centre
#                                CCDC 
#
#######################################################################
#
# If this CIF has been generated from an entry in the Cambridge 
# Structural Database, then it will include bibliographic, chemical, 
# crystal, experimental, refinement or atomic coordinate data resulting 
# from the CCDC's data processing and validation procedures.
#
#######################################################################

data_TIJHAW
_symmetry_cell_setting           triclinic
_symmetry_space_group_name_H-M   'P -1'
_symmetry_Int_Tables_number      2
_space_group_name_Hall           '-P 1'
loop_
_symmetry_equiv_pos_site_id
_symmetry_equiv_pos_as_xyz
1 x,y,z
2 -x,-y,-z
_cell_length_a                   7.9205(4)
_cell_length_b                   8.5212(5)
_cell_length_c                   12.7090(7)
_cell_angle_alpha                83.9760(10)
_cell_angle_beta                 77.5090(10)
_cell_angle_gamma                83.3460(10)
_cell_volume                     828.987
loop_
_atom_site_label
_atom_site_type_symbol
_atom_site_fract_x
_atom_site_fract_y
_atom_site_fract_z
Cu1 Cu 0.39957(4) 0.08451(4) 0.72776(2)
V1 V 0.08735(6) 0.14049(5) 0.61517(3)
V2 V 0.80717(6) -0.13886(5) 0.65729(3)
O1 O 0.5938(3) -0.1121(2) 0.69191(18)
O2 O 0.2566(3) 0.0140(2) 0.63921(16)
O3 O -0.1099(3) 0.0476(2) 0.65857(17)
O4 O 0.1229(3) 0.2089(2) 0.47560(15)
O5 O 0.0744(3) 0.2907(2) 0.68633(16)
O6 O 0.8742(3) -0.2702(2) 0.74672(17)
N1 N 0.2842(3) -0.0210(3) 0.87056(18)
N2 N 0.4513(3) 0.2226(2) 0.82658(17)
N3 N 0.5264(3) 0.2445(3) 0.62097(18)
C1 C 0.2107(4) -0.1575(3) 0.8838(2)
C2 C 0.1411(4) -0.2268(3) 0.9856(2)
C3 C 0.1469(4) -0.1504(3) 1.0760(2)
C4 C 0.2235(4) -0.0083(3) 1.0622(2)
C5 C 0.2918(3) 0.0536(3) 0.9582(2)
C6 C 0.3820(3) 0.2005(3) 0.9322(2)
C7 C 0.3972(3) 0.3084(3) 1.0033(2)
C8 C 0.4899(3) 0.4406(3) 0.9630(2)
C9 C 0.5598(4) 0.4608(3) 0.8518(2)
C10 C 0.5379(3) 0.3481(3) 0.7853(2)
C11 C 0.5976(4) 0.3512(3) 0.6667(2)
C12 C 0.7155(4) 0.4498(3) 0.6056(2)
C13 C 0.7607(4) 0.4401(3) 0.4943(2)
C14 C 0.6844(4) 0.3342(3) 0.4475(2)
C15 C 0.5687(4) 0.2369(3) 0.5138(2)
H1 H 0.210(4) -0.201(4) 0.824(3)
H2 H 0.091(5) -0.313(5) 0.989(3)
H3 H 0.099(5) -0.197(4) 1.151(3)
H4 H 0.235(5) 0.044(5) 1.119(3)
H5 H 0.348(4) 0.290(4) 1.078(3)
H6 H 0.629(5) 0.546(5) 0.822(3)
H7 H 0.767(5) 0.517(4) 0.643(3)
H8 H 0.855(5) 0.499(5) 0.446(3)
H9 H 0.715(5) 0.325(5) 0.370(3)
H10 H 0.516(4) 0.168(3) 0.482(2)
Cu1A Cu 0.60043(4) 0.91549(4) 1.27224(2)
V1A V 0.91265(6) 0.85951(5) 1.38483(3)
V1_2 V 1.08735(6) 0.14049(5) 0.61517(3)
V1A_2 V 0.91265(6) -0.14049(5) 0.38483(3)
V2A V 0.19283(6) 1.13886(5) 1.34271(3)
V2_2 V -0.19283(6) -0.13886(5) 0.65729(3)
V2A_2 V 0.19283(6) 0.13886(5) 0.34271(3)
O1A O 0.4062(3) 1.1121(2) 1.30809(18)
O2A O 0.7434(3) 0.9860(2) 1.36079(16)
O3_2 O 0.8901(3) 0.0476(2) 0.65857(17)
O3A O 1.1099(3) 0.9524(2) 1.34143(17)
O3A_2 O 0.1099(3) 0.9524(2) 1.34143(17)
O4A O 0.8771(3) -0.2089(2) 0.52440(15)
O4A_2 O 0.8771(3) 0.7911(2) 1.52440(15)
O4_2 O 0.1229(3) 1.2089(2) 1.47560(15)
O5A O 0.9256(3) 0.7093(2) 1.31367(16)
O6A O 0.1258(3) 1.2702(2) 1.25328(17)
N1A N 0.7158(3) 1.0210(3) 1.12944(18)
N2A N 0.5487(3) 0.7774(2) 1.17342(17)
N3A N 0.4736(3) 0.7555(3) 1.37903(18)
C1A C 0.7893(4) 1.1575(3) 1.1162(2)
C2A C 0.8589(4) 1.2268(3) 1.0144(2)
C3A C 0.8531(4) 1.1504(3) 0.9240(2)
C4A C 0.7765(4) 1.0083(3) 0.9378(2)
C5A C 0.7082(3) 0.9464(3) 1.0418(2)
C6A C 0.6180(3) 0.7995(3) 1.0678(2)
C7A C 0.6028(3) 0.6916(3) 0.9967(2)
C8A C 0.5101(3) 0.5594(3) 1.0370(2)
C9A C 0.4402(4) 0.5392(3) 1.1482(2)
C10A C 0.4621(3) 0.6519(3) 1.2147(2)
C11A C 0.4024(4) 0.6488(3) 1.3333(2)
C12A C 0.2845(4) 0.5502(3) 1.3944(2)
C13A C 0.2393(4) 0.5599(3) 1.5057(2)
C14A C 0.3156(4) 0.6658(3) 1.5525(2)
C15A C 0.4313(4) 0.7631(3) 1.4862(2)
H1A H 0.790(4) 1.201(4) 1.176(3)
H2A H 0.909(5) 1.313(5) 1.011(3)
H3A H 0.901(5) 1.197(4) 0.849(3)
H4A H 0.765(5) 0.956(5) 0.881(3)
H5A H 0.652(4) 0.710(4) 0.922(3)
H6A H 0.371(5) 0.454(5) 1.178(3)
H7A H 0.233(5) 0.483(4) 1.357(3)
H8A H 0.145(5) 0.501(5) 1.554(3)
H9A H 0.285(5) 0.675(5) 1.630(3)
H10A H 0.484(4) 0.832(3) 1.518(2)
O7 O 0.1028(4) 0.5012(3) 0.8351(2)
H11 H 0.113(5) 0.432(5) 0.793(4)
H12 H 0.035(6) 0.564(6) 0.810(4)
loop_
_geom_bond_atom_site_label_1
_geom_bond_atom_site_label_2
_geom_bond_site_symmetry_1
_geom_bond_site_symmetry_2
Cu1 O1 1_555 1_555
V1 O2 1_555 1_555
V2 O1 1_555 1_555
O2 Cu1 1_555 1_555
O3 V1 1_555 1_555
O4 V1 1_555 1_555
O5 V1 1_555 1_555
O6 V2 1_555 1_555
O7 H11 1_555 1_555
N1 Cu1 1_555 1_555
N2 Cu1 1_555 1_555
N3 Cu1 1_555 1_555
C1 N1 1_555 1_555
C2 C1 1_555 1_555
C3 C2 1_555 1_555
C4 C3 1_555 1_555
C5 N1 1_555 1_555
C6 N2 1_555 1_555
C7 C6 1_555 1_555
C8 C7 1_555 1_555
C9 C8 1_555 1_555
C10 N2 1_555 1_555
C11 N3 1_555 1_555
C12 C11 1_555 1_555
C13 C12 1_555 1_555
C14 C13 1_555 1_555
C15 N3 1_555 1_555
H1 C1 1_555 1_555
H2 C2 1_555 1_555
H3 C3 1_555 1_555
H4 C4 1_555 1_555
H5 C7 1_555 1_555
H6 C9 1_555 1_555
H7 C12 1_555 1_555
H8 C13 1_555 1_555
H9 C14 1_555 1_555
H10 C15 1_555 1_555
H12 O7 1_555 1_555
Cu1A O1A 1_555 1_555
V1A O2A 1_555 1_555
V1_2 O3_2 1_555 1_555
V1A_2 O4A 1_555 1_555
V2A O1A 1_555 1_555
V2_2 O3 1_555 1_555
V2A_2 O4 1_555 1_555
O2A Cu1A 1_555 1_555
O3_2 V2 1_555 1_555
O3A V1A 1_555 1_555
O3A_2 V2A 1_555 1_555
O4A V2 1_555 1_555
O4A_2 V1A 1_555 1_555
O4_2 V2A 1_555 1_555
O5A V1A 1_555 1_555
O6A V2A 1_555 1_555
N1A Cu1A 1_555 1_555
N2A Cu1A 1_555 1_555
N3A Cu1A 1_555 1_555
C1A N1A 1_555 1_555
C2A C1A 1_555 1_555
C3A C2A 1_555 1_555
C4A C3A 1_555 1_555
C5A N1A 1_555 1_555
C6A N2A 1_555 1_555
C7A C6A 1_555 1_555
C8A C8 1_555 1_555
C9A C8A 1_555 1_555
C10A N2A 1_555 1_555
C11A N3A 1_555 1_555
C12A C11A 1_555 1_555
C13A C12A 1_555 1_555
C14A C13A 1_555 1_555
C15A N3A 1_555 1_555
H1A C1A 1_555 1_555
H2A C2A 1_555 1_555
H3A C3A 1_555 1_555
H4A C4A 1_555 1_555
H5A C7A 1_555 1_555
H6A C9A 1_555 1_555
H7A C12A 1_555 1_555
H8A C13A 1_555 1_555
H9A C14A 1_555 1_555
H10A C15A 1_555 1_555
C4 C5 1_555 1_555
C5 C6 1_555 1_555
C9 C10 1_555 1_555
C10 C11 1_555 1_555
C14 C15 1_555 1_555
C4A C5A 1_555 1_555
C5A C6A 1_555 1_555
C7A C8A 1_555 1_555
C9A C10A 1_555 1_555
C10A C11A 1_555 1_555
C14A C15A 1_555 1_555

#END
