
#######################################################################
#
#                 Cambridge Crystallographic Data Centre
#                                CCDC 
#
#######################################################################
#
# If this CIF has been generated from an entry in the Cambridge 
# Structural Database, then it will include bibliographic, chemical, 
# crystal, experimental, refinement or atomic coordinate data resulting 
# from the CCDC's data processing and validation procedures.
#
#######################################################################

data_TIJPUZ
_symmetry_cell_setting           triclinic
_symmetry_space_group_name_H-M   'P -1'
_symmetry_Int_Tables_number      2
_space_group_name_Hall           '-P 1'
loop_
_symmetry_equiv_pos_site_id
_symmetry_equiv_pos_as_xyz
1 x,y,z
2 -x,-y,-z
_cell_length_a                   7.1674(6)
_cell_length_b                   7.5711(8)
_cell_length_c                   8.4825(11)
_cell_angle_alpha                109.937(11)
_cell_angle_beta                 94.919(8)
_cell_angle_gamma                116.156(9)
_cell_volume                     372.897
loop_
_atom_site_label
_atom_site_type_symbol
_atom_site_fract_x
_atom_site_fract_y
_atom_site_fract_z
C1 C 0.2122(14) 0.4156(15) 0.0192(11)
C2 C 0.1904(15) 0.8280(15) 0.7673(12)
C3 C 0.3421(15) 0.7390(16) 0.7281(12)
H1 H 0.4715 0.8236 0.8301
H2 H 0.2685 0.5869 0.7144
C4 C 0.3518(15) 0.6637(14) 0.1280(11)
H3 H 0.4779 0.7218 0.0829
H4 H 0.2652 0.7323 0.1145
C5 C 0.6265(15) 0.7611(15) 0.3979(12)
H5 H 0.7460 0.7767 0.3515
C6 C 0.6156(15) 0.7738(15) 0.5600(12)
H6 H 0.7270 0.7993 0.6487
C7 C 0.3030(14) 0.7085(14) 0.4208(11)
H7 H 0.1583 0.6797 0.3930
N1 N 0.4132(12) 0.7432(12) 0.5735(10)
N2 N 0.4287(12) 0.7208(12) 0.3141(10)
O1 O 0.2250(10) 0.3026(10) 0.0970(9)
O2 O 0.2111(11) 0.9136(11) 0.9317(9)
O3 O 0.0617(11) 0.8087(13) 0.6488(9)
O4 O 0.1068(11) 0.3520(12) -0.1298(8)
Cu1 Cu 0.0000 0.0000 0.0000
C1A C -0.2122(14) -0.4156(15) -0.0192(11)
C2A C -0.1904(15) -0.8280(15) -0.7673(12)
C3A C -0.3421(15) -0.7390(16) -0.7281(12)
H1A H -0.4715 -0.8236 -0.8301
H2A H -0.2685 -0.5869 -0.7144
C4A C -0.3518(15) -0.6637(14) -0.1280(11)
H3A H -0.4779 -0.7218 -0.0829
H4A H -0.2652 -0.7323 -0.1145
C5A C -0.6265(15) -0.7611(15) -0.3979(12)
H5A H -0.7460 -0.7767 -0.3515
C6A C -0.6156(15) -0.7738(15) -0.5600(12)
H6A H -0.7270 -0.7993 -0.6487
C7A C -0.3030(14) -0.7085(14) -0.4208(11)
H7A H -0.1583 -0.6797 -0.3930
N1A N -0.4132(12) -0.7432(12) -0.5735(10)
N2A N -0.4287(12) -0.7208(12) -0.3141(10)
O1A O -0.2250(10) -0.3026(10) -0.0970(9)
O2A O -0.2111(11) -0.9136(11) -0.9317(9)
O3A O -0.0617(11) -0.8087(13) -0.6488(9)
O4A O -0.1068(11) -0.3520(12) 0.1298(8)
O2_2 O 0.2111(11) -0.0864(11) -0.0683(9)
O2A_2 O -0.2111(11) 0.0864(11) 0.0683(9)
Cu1_2 Cu 0.0000 -1.0000 -1.0000
Cu1_3 Cu 0.0000 1.0000 1.0000
loop_
_geom_bond_atom_site_label_1
_geom_bond_atom_site_label_2
_geom_bond_site_symmetry_1
_geom_bond_site_symmetry_2
C1 C4 1_555 1_555
C2 C3 1_555 1_555
C3 H1 1_555 1_555
H2 C3 1_555 1_555
C4 H3 1_555 1_555
H4 C4 1_555 1_555
C5 H5 1_555 1_555
C6 C5 1_555 1_555
H6 C6 1_555 1_555
C7 H7 1_555 1_555
N1 C3 1_555 1_555
N2 C4 1_555 1_555
O1 C1 1_555 1_555
O2 C2 1_555 1_555
O3 C2 1_555 1_555
O4 C1 1_555 1_555
Cu1 O1 1_555 1_555
C1A C4A 1_555 1_555
C2A C3A 1_555 1_555
C3A H1A 1_555 1_555
H2A C3A 1_555 1_555
C4A H3A 1_555 1_555
H4A C4A 1_555 1_555
C5A H5A 1_555 1_555
C6A C5A 1_555 1_555
H6A C6A 1_555 1_555
C7A H7A 1_555 1_555
N1A C3A 1_555 1_555
N2A C4A 1_555 1_555
O1A Cu1 1_555 1_555
O2A C2A 1_555 1_555
O3A C2A 1_555 1_555
O4A C1A 1_555 1_555
O2_2 Cu1 1_555 1_555
O2A_2 Cu1 1_555 1_555
Cu1_2 O2A 1_555 1_555
Cu1_3 O2 1_555 1_555
C5 N2 1_555 1_555
C6 N1 1_555 1_555
C7 N1 1_555 1_555
C7 N2 1_555 1_555
C1A O1A 1_555 1_555
C5A N2A 1_555 1_555
C6A N1A 1_555 1_555
C7A N1A 1_555 1_555
C7A N2A 1_555 1_555

#END
