
#######################################################################
#
#                 Cambridge Crystallographic Data Centre
#                                CCDC 
#
#######################################################################
#
# If this CIF has been generated from an entry in the Cambridge 
# Structural Database, then it will include bibliographic, chemical, 
# crystal, experimental, refinement or atomic coordinate data resulting 
# from the CCDC's data processing and validation procedures.
#
#######################################################################

data_TIJPOT
_symmetry_cell_setting           monoclinic
_symmetry_space_group_name_H-M   'C c'
_symmetry_Int_Tables_number      9
_space_group_name_Hall           'C -2yc'
loop_
_symmetry_equiv_pos_site_id
_symmetry_equiv_pos_as_xyz
1 x,y,z
2 x,-y,1/2+z
3 1/2+x,1/2+y,z
4 1/2+x,1/2-y,1/2+z
_cell_length_a                   12.4176(2)
_cell_length_b                   22.5346(3)
_cell_length_c                   10.1644(2)
_cell_angle_alpha                90
_cell_angle_beta                 107.054(2)
_cell_angle_gamma                90
_cell_volume                     2719.19
loop_
_atom_site_label
_atom_site_type_symbol
_atom_site_fract_x
_atom_site_fract_y
_atom_site_fract_z
C1 C 0.1578(3) 0.64303(17) 0.8840(5)
C2 C 0.1161(4) 0.70667(18) 0.8590(5)
H1 H 0.1610 0.7276 0.8073
H2 H 0.0368 0.7062 0.8005
C3 C 0.0399(3) 0.74712(17) 1.0415(4)
H3 H -0.0337 0.7309 1.0080
C4 C 0.2169(4) 0.7700(2) 1.0638(5)
H4 H 0.2884 0.7721 1.0476
C5 C 0.1877(4) 0.7953(2) 1.1683(5)
H5 H 0.2348 0.8191 1.2394
C6 C 0.0112(4) 0.79910(18) 1.2441(5)
H6 H 0.0601 0.7974 1.3405
H7 H -0.0508 0.7704 1.2351
C7 C -0.0387(3) 0.86091(17) 1.2161(4)
C8 C -0.4502(3) 0.48951(17) 0.8841(4)
C9 C -0.3408(3) 0.4970(2) 0.8459(5)
H8 H -0.3453 0.4730 0.7627
H9 H -0.3327 0.5391 0.8228
C10 C -0.1910(4) 0.42393(18) 0.9746(4)
H10 H -0.2133 0.3904 0.9163
C11 C -0.1043(4) 0.42639(19) 1.0916(5)
H11 H -0.0531 0.3953 1.1302
C12 C -0.1880(4) 0.51405(17) 1.0603(5)
H12 H -0.2065 0.5542 1.0726
C13 C -0.0170(4) 0.5077(2) 1.2603(4)
H13 H -0.0046 0.4813 1.3411
H14 H -0.0410 0.5470 1.2850
C14 C 0.0921(3) 0.51418(16) 1.2218(4)
N1 N 0.1227(3) 0.74027(14) 0.9845(4)
N2 N 0.0773(3) 0.78048(14) 1.1532(3)
N3 N -0.2410(3) 0.47900(16) 0.9558(4)
N4 N -0.1047(3) 0.48298(15) 1.1443(3)
O1 O -0.0879(3) 0.87796(13) 1.3016(3)
O2 O 0.3559(2) 0.54702(12) 0.9935(3)
H15 H 0.384(4) 0.5795(11) 1.028(5)
O3 O 0.2758(2) 0.54084(12) 0.6011(3)
H16 H 0.225(3) 0.5654(17) 0.564(5)
O4 O 0.1728(2) 0.62125(12) 1.0025(3)
O5 O 0.1682(3) 0.61713(13) 0.7804(3)
O6 O -0.0277(3) 0.88844(12) 1.1135(3)
O7 O -0.4422(2) 0.48169(13) 1.0096(3)
O8 O -0.5388(2) 0.49278(13) 0.7869(3)
O9 O 0.0812(2) 0.52689(13) 1.0979(3)
O10 O 0.1835(2) 0.50755(13) 1.3138(3)
Cu1 Cu 0.42268(4) 0.46962(2) 1.06485(5)
Cu2 Cu 0.31085(5) 0.55299(2) 0.79600(6)
Cu3 Cu 0.21609(4) 0.53871(2) 1.04069(5)
O1C O 0.4121(3) 0.62204(13) 0.8016(3)
O3A O 0.2758(2) 0.45916(12) 1.1011(3)
O6B O 0.4723(3) 0.38844(12) 1.1135(3)
O7_2 O 0.5578(2) 0.48169(13) 1.0096(3)
O8_2 O 0.4612(2) 0.49278(13) 0.7869(3)
O8A O 0.4612(2) 0.50722(13) 1.2869(3)
O10A O 0.1835(2) 0.49245(13) 0.8138(3)
Cu1_2 Cu -0.57732(4) 0.46962(2) 1.06485(5)
Cu1A Cu -0.57732(4) 0.53038(2) 0.56485(5)
Cu1A_2 Cu 0.42268(4) 0.53038(2) 0.56485(5)
Cu1B Cu -0.07732(4) 0.96962(2) 1.06485(5)
Cu2_2 Cu -0.68915(5) 0.55299(2) 0.79600(6)
Cu2A Cu 0.31085(5) 0.44701(2) 1.29600(6)
Cu2C Cu -0.18915(5) 0.94701(2) 1.29600(6)
Cu3A Cu 0.21609(4) 0.46129(2) 0.54069(5)
Cu3A_2 Cu 0.21609(4) 0.46129(2) 1.54069(5)
C15 C 0.1664(5) 0.6511(3) 0.3572(7)
H17 H 0.1914 0.6901 0.3973
H18 H 0.1037 0.6561 0.2730
H19 H 0.2290 0.6311 0.3351
O11 O 0.1307(3) 0.61676(17) 0.4520(4)
H20 H 0.1080 0.6392 0.5042
C16 C 0.4528(5) 0.6543(2) 1.2550(6)
H21 H 0.5291 0.6467 1.3151
H22 H 0.3996 0.6278 1.2803
H23 H 0.4323 0.6956 1.2656
O12 O 0.4493(3) 0.64402(16) 1.1182(4)
H24 H 0.5140 0.6487 1.1094
O13 O 0.4179(3) 0.11881(16) -0.1054(4)
H25 H 0.473(3) 0.107(3) -0.042(4)
H26 H 0.357(2) 0.124(3) -0.087(5)
H27 H 0.024(4) 0.276(2) 0.025(5)
O14 O -0.0237(3) 0.30375(15) 0.0085(4)
H28 H -0.065(4) 0.308(3) -0.073(2)
F1 F 0.1257(2) 0.20954(12) 0.0795(3)
F2 F 0.2925(2) 0.21184(12) 0.2741(3)
F3 F 0.2191(2) 0.14164(12) -0.0344(3)
F4 F 0.3018(2) 0.23415(13) 0.0465(3)
F5 F 0.3820(2) 0.14492(13) 0.1600(3)
F6 F 0.2041(3) 0.11980(12) 0.1868(3)
Si1 Si 0.25546(10) 0.17767(5) 0.12006(12)
loop_
_geom_bond_atom_site_label_1
_geom_bond_atom_site_label_2
_geom_bond_site_symmetry_1
_geom_bond_site_symmetry_2
C1 C2 1_555 1_555
C2 H1 1_555 1_555
H2 C2 1_555 1_555
C3 H3 1_555 1_555
C4 H4 1_555 1_555
C5 C4 1_555 1_555
H5 C5 1_555 1_555
C6 H6 1_555 1_555
H7 C6 1_555 1_555
C7 C6 1_555 1_555
C8 C9 1_555 1_555
C9 H8 1_555 1_555
H9 C9 1_555 1_555
C10 H10 1_555 1_555
C11 C10 1_555 1_555
H11 C11 1_555 1_555
C12 H12 1_555 1_555
C13 H13 1_555 1_555
H14 C13 1_555 1_555
C14 C13 1_555 1_555
N1 C2 1_555 1_555
N2 C3 1_555 1_555
N3 C9 1_555 1_555
N4 C11 1_555 1_555
O1 C7 1_555 1_555
O2 H15 1_555 1_555
O3 H16 1_555 1_555
O4 C1 1_555 1_555
O5 C1 1_555 1_555
O6 C7 1_555 1_555
O7 C8 1_555 1_555
O8 C8 1_555 1_555
O9 C14 1_555 1_555
O10 C14 1_555 1_555
Cu1 O2 1_555 1_555
Cu2 O2 1_555 1_555
Cu3 O2 1_555 1_555
C15 H17 1_555 1_555
H18 C15 1_555 1_555
H19 C15 1_555 1_555
O11 C15 1_555 1_555
H20 O11 1_555 1_555
C16 H21 1_555 1_555
H22 C16 1_555 1_555
H23 C16 1_555 1_555
O12 C16 1_555 1_555
H24 O12 1_555 1_555
O13 H25 1_555 1_555
H26 O13 1_555 1_555
H27 O14 1_555 1_555
O14 H28 1_555 1_555
F1 Si1 1_555 1_555
F2 Si1 1_555 1_555
F3 Si1 1_555 1_555
F4 Si1 1_555 1_555
F5 Si1 1_555 1_555
F6 Si1 1_555 1_555
O1C Cu2 1_555 1_555
O3A Cu1 1_555 1_555
O6B Cu1 1_555 1_555
O7_2 Cu1 1_555 1_555
O8_2 Cu2 1_555 1_555
O8A Cu1 1_555 1_555
O10A Cu2 1_555 1_555
Cu1_2 O7 1_555 1_555
Cu1A O8 1_555 1_555
Cu1A_2 O3 1_555 1_555
Cu1B O6 1_555 1_555
Cu2_2 O8 1_555 1_555
Cu2A O10 1_555 1_555
Cu2C O1 1_555 1_555
Cu3A O3 1_555 1_555
Cu3A_2 O10 1_555 1_555
C3 N1 1_555 1_555
C4 N1 1_555 1_555
C5 N2 1_555 1_555
C6 N2 1_555 1_555
C10 N3 1_555 1_555
C12 N3 1_555 1_555
C12 N4 1_555 1_555
C13 N4 1_555 1_555
O3 Cu2 1_555 1_555
O4 Cu3 1_555 1_555
O5 Cu2 1_555 1_555
O9 Cu3 1_555 1_555
Cu3 O3A 1_555 1_555
Cu3 O10A 1_555 1_555
O3A Cu2A 1_555 1_555
O8_2 Cu1A_2 1_555 1_555
O8A Cu2A 1_555 1_555

#END
