
#######################################################################
#
#                 Cambridge Crystallographic Data Centre
#                                CCDC 
#
#######################################################################
#
# If this CIF has been generated from an entry in the Cambridge 
# Structural Database, then it will include bibliographic, chemical, 
# crystal, experimental, refinement or atomic coordinate data resulting 
# from the CCDC's data processing and validation procedures.
#
#######################################################################

data_TIJQAG
_symmetry_cell_setting           tetragonal
_symmetry_space_group_name_H-M   'P -4 2 c'
_symmetry_Int_Tables_number      112
_space_group_name_Hall           'P -4 2c'
loop_
_symmetry_equiv_pos_site_id
_symmetry_equiv_pos_as_xyz
1 x,y,z
2 -x,-y,z
3 y,-x,-z
4 -y,x,-z
5 -x,y,1/2-z
6 x,-y,1/2-z
7 -y,-x,1/2+z
8 y,x,1/2+z
_cell_length_a                   12.3883(3)
_cell_length_b                   12.3883(3)
_cell_length_c                   14.5923(4)
_cell_angle_alpha                90
_cell_angle_beta                 90
_cell_angle_gamma                90
_cell_volume                     2239.48
loop_
_atom_site_label
_atom_site_type_symbol
_atom_site_fract_x
_atom_site_fract_y
_atom_site_fract_z
B1 B 1.0000 1.0000 0.7776(10)
F1 F 0.9077(7) 1.0065(11) 0.7189(6)
F2 F 0.9959(10) 0.9024(7) 0.8279(6)
F1A F 1.0923(7) 0.9935(11) 0.7189(6)
F2A F 1.0041(10) 1.0976(7) 0.8279(6)
B1D B 1.0000 1.0000 0.7224(10)
F1D F 1.0923(7) 1.0065(11) 0.7811(6)
F2D F 1.0041(10) 0.9024(7) 0.6721(6)
F1E F 0.9077(7) 0.9935(11) 0.7811(6)
F2E F 0.9959(10) 1.0976(7) 0.6721(6)
O4 O 1.0000 1.0000 0.919(2)
Cu1 Cu 0.5000 1.0000 0.2500
Cu2 Cu 0.5000 0.5000 0.7500
O5 O 0.3878(3) 0.8900(3) 0.2367(3)
O6 O 0.3880(4) 0.4846(3) 0.6582(2)
N1 N 0.2134(3) 0.7473(4) 0.3890(3)
O7 O 0.3635(3) 0.9101(3) 0.3873(2)
N2 N 0.2208(4) 0.6393(4) 0.5044(3)
O8 O 0.3879(4) 0.6627(3) 0.6311(3)
C1 C 0.3395(4) 0.8715(4) 0.3130(3)
C2 C 0.2583(4) 0.6593(4) 0.4203(3)
H1 H 0.3095 0.6163 0.3884
C3 C 0.2411(4) 0.7966(4) 0.3012(4)
H2 H 0.1788 0.8387 0.2781
H3 H 0.2579 0.7396 0.2559
C4 C 0.3510(5) 0.5699(4) 0.6208(4)
C5 C 0.2541(5) 0.5481(5) 0.5599(4)
H4 H 0.2713 0.4869 0.5189
H5 H 0.1926 0.5259 0.5990
C6 C 0.1419(6) 0.7843(6) 0.4533(5)
H6 H 0.0977 0.8466 0.4479
C7 C 0.1453(7) 0.7161(6) 0.5263(5)
H7 H 0.1041 0.7206 0.5810
O5A O 0.6122(3) 0.1100(3) 0.2367(3)
O6A O 0.6120(4) 0.5154(3) 0.6582(2)
N1A N 0.7866(3) 0.2527(4) 0.3890(3)
O7A O 0.6365(3) 0.0899(3) 0.3873(2)
N2A N 0.7792(4) 0.3607(4) 0.5044(3)
O8A O 0.6121(4) 0.3373(3) 0.6311(3)
C1A C 0.6605(4) 0.1285(4) 0.3130(3)
C2A C 0.7417(4) 0.3407(4) 0.4203(3)
H1A H 0.6905 0.3837 0.3884
C3A C 0.7589(4) 0.2034(4) 0.3012(4)
H2A H 0.8212 0.1613 0.2781
H3A H 0.7421 0.2604 0.2559
C4A C 0.6490(5) 0.4301(4) 0.6208(4)
C5A C 0.7459(5) 0.4519(5) 0.5599(4)
H4A H 0.7287 0.5131 0.5189
H5A H 0.8074 0.4741 0.5990
C6A C 0.8581(6) 0.2157(6) 0.4533(5)
H6A H 0.9023 0.1534 0.4479
C7A C 0.8547(7) 0.2839(6) 0.5263(5)
H7A H 0.8959 0.2794 0.5810
O5D O 0.6122(3) 0.8900(3) 0.2633(3)
O6D O 0.6120(4) 0.4846(3) -0.1582(2)
N1D N 0.7866(3) 0.7473(4) 0.1110(3)
O7D O 0.6365(3) 0.9101(3) 0.1127(2)
N2D N 0.7792(4) 0.6393(4) -0.0044(3)
O8D O 0.6121(4) 0.6627(3) -0.1311(3)
C1D C 0.6605(4) 0.8715(4) 0.1870(3)
C2D C 0.7417(4) 0.6593(4) 0.0797(3)
H1D H 0.6905 0.6163 0.1116
C3D C 0.7589(4) 0.7966(4) 0.1988(4)
H2D H 0.8212 0.8387 0.2219
H3D H 0.7421 0.7396 0.2441
C4D C 0.6490(5) 0.5699(4) -0.1208(4)
C5D C 0.7459(5) 0.5481(5) -0.0599(4)
H4D H 0.7287 0.4869 -0.0189
H5D H 0.8074 0.5259 -0.0990
C6D C 0.8581(6) 0.7843(6) 0.0467(5)
H6D H 0.9023 0.8466 0.0521
C7D C 0.8547(7) 0.7161(6) -0.0263(5)
H7D H 0.8959 0.7206 -0.0810
O5E O 0.3878(3) 1.1100(3) 0.2633(3)
O6E O 0.3880(4) 1.5154(3) -0.1582(2)
N1E N 0.2134(3) 1.2527(4) 0.1110(3)
O7E O 0.3635(3) 1.0899(3) 0.1127(2)
N2E N 0.2208(4) 1.3607(4) -0.0044(3)
O8E O 0.3879(4) 1.3373(3) -0.1311(3)
C1E C 0.3395(4) 1.1285(4) 0.1870(3)
C2E C 0.2583(4) 1.3407(4) 0.0797(3)
H1E H 0.3095 1.3837 0.1116
C3E C 0.2411(4) 1.2034(4) 0.1988(4)
H2E H 0.1788 1.1613 0.2219
H3E H 0.2579 1.2604 0.2441
C4E C 0.3510(5) 1.4301(4) -0.1208(4)
C5E C 0.2541(5) 1.4519(5) -0.0599(4)
H4E H 0.2713 1.5131 -0.0189
H5E H 0.1926 1.4741 -0.0990
C6E C 0.1419(6) 1.2157(6) 0.0467(5)
H6E H 0.0977 1.1534 0.0521
C7E C 0.1453(7) 1.2839(6) -0.0263(5)
H7E H 0.1041 1.2794 -0.0810
Cu1_2 Cu 0.5000 0.0000 0.2500
Cu2_2 Cu 0.5000 0.5000 -0.2500
Cu2_3 Cu 0.5000 1.5000 -0.2500
O5A_2 O 0.6122(3) 1.1100(3) 0.2367(3)
O6D_2 O 0.6120(4) 0.4846(3) 0.8418(2)
O6E_2 O 0.3880(4) 0.5154(3) 0.8418(2)
Na1 Na 0.4803(7) 0.9784(6) 0.6835(6)
O1 O 0.3677(7) 0.8796(7) 0.5771(7)
O2 O 0.6769(11) 1.012(2) 0.7409(19)
O3 O 0.5000 0.8074(14) 0.7500
Na1A Na 0.5197(7) 1.0216(6) 0.6835(6)
O1A O 0.6323(7) 1.1204(7) 0.5771(7)
O2A O 0.3231(11) 0.988(2) 0.7409(19)
O3A O 0.5000 1.1926(14) 0.7500
Na1D Na 0.5197(7) 0.9784(6) 0.8165(6)
O1D O 0.6323(7) 0.8796(7) 0.9229(7)
O2D O 0.3231(11) 1.012(2) 0.7591(19)
Na1E Na 0.4803(7) 1.0216(6) 0.8165(6)
O1E O 0.3677(7) 1.1204(7) 0.9229(7)
O2E O 0.6769(11) 0.988(2) 0.7591(19)
O9? O 0.4099(16) 0.9122(15) 0.5841(16)
loop_
_geom_bond_atom_site_label_1
_geom_bond_atom_site_label_2
_geom_bond_site_symmetry_1
_geom_bond_site_symmetry_2
Na1 O1 1_555 1_555
O1 Na1A 1_555 1_555
O2 Na1 1_555 1_555
O3 Na1 1_555 1_555
B1 F1 1_555 1_555
F1 B1D 1_555 1_555
F2 B1 1_555 1_555
Cu1 O5 1_555 1_555
Cu2 O6 1_555 1_555
O5 C1 1_555 1_555
O6 C4 1_555 1_555
N1 C2 1_555 1_555
O7 C1 1_555 1_555
N2 C2 1_555 1_555
O8 C4 1_555 1_555
C1 C3 1_555 1_555
C2 H1 1_555 1_555
C3 N1 1_555 1_555
H2 C3 1_555 1_555
H3 C3 1_555 1_555
C4 C5 1_555 1_555
C5 N2 1_555 1_555
H4 C5 1_555 1_555
H5 C5 1_555 1_555
C6 N1 1_555 1_555
H6 C6 1_555 1_555
C7 N2 1_555 1_555
H7 C7 1_555 1_555
Na1A Na1 1_555 1_555
O1A Na1 1_555 1_555
O2A Na1 1_555 1_555
O3A Na1 1_555 1_555
Na1D Na1 1_555 1_555
O1D Na1D 1_555 1_555
O2D Na1 1_555 1_555
Na1E Na1 1_555 1_555
O1E Na1D 1_555 1_555
O2E Na1 1_555 1_555
F1A B1 1_555 1_555
F2A B1 1_555 1_555
B1D B1 1_555 1_555
F1D B1 1_555 1_555
F2D B1D 1_555 1_555
F1E B1 1_555 1_555
F2E B1D 1_555 1_555
O5A C1A 1_555 1_555
O6A Cu2 1_555 1_555
N1A C2A 1_555 1_555
O7A C1A 1_555 1_555
N2A C2A 1_555 1_555
O8A C4A 1_555 1_555
C1A C3A 1_555 1_555
C2A H1A 1_555 1_555
C3A N1A 1_555 1_555
H2A C3A 1_555 1_555
H3A C3A 1_555 1_555
C4A O6A 1_555 1_555
C5A N2A 1_555 1_555
H4A C5A 1_555 1_555
H5A C5A 1_555 1_555
C6A N1A 1_555 1_555
H6A C6A 1_555 1_555
C7A N2A 1_555 1_555
H7A C7A 1_555 1_555
O5D Cu1 1_555 1_555
O6D C4D 1_555 1_555
N1D C2D 1_555 1_555
O7D C1D 1_555 1_555
N2D C2D 1_555 1_555
O8D C4D 1_555 1_555
C1D O5D 1_555 1_555
C2D H1D 1_555 1_555
C3D N1D 1_555 1_555
H2D C3D 1_555 1_555
H3D C3D 1_555 1_555
C4D C5D 1_555 1_555
C5D N2D 1_555 1_555
H4D C5D 1_555 1_555
H5D C5D 1_555 1_555
C6D N1D 1_555 1_555
H6D C6D 1_555 1_555
C7D N2D 1_555 1_555
H7D C7D 1_555 1_555
O5E Cu1 1_555 1_555
O6E C4E 1_555 1_555
N1E C2E 1_555 1_555
O7E C1E 1_555 1_555
N2E C2E 1_555 1_555
O8E C4E 1_555 1_555
C1E O5E 1_555 1_555
C2E H1E 1_555 1_555
C3E N1E 1_555 1_555
H2E C3E 1_555 1_555
H3E C3E 1_555 1_555
C4E C5E 1_555 1_555
C5E N2E 1_555 1_555
H4E C5E 1_555 1_555
H5E C5E 1_555 1_555
C6E N1E 1_555 1_555
H6E C6E 1_555 1_555
C7E N2E 1_555 1_555
H7E C7E 1_555 1_555
Cu1_2 O5A 1_555 1_555
Cu2_2 O6D 1_555 1_555
Cu2_3 O6E 1_555 1_555
O5A_2 Cu1 1_555 1_555
O6D_2 Cu2 1_555 1_555
O6E_2 Cu2 1_555 1_555
O2 Na1A 1_555 1_555
O2 Na1D 1_555 1_555
O2 Na1E 1_555 1_555
O3 Na1A 1_555 1_555
O3 Na1D 1_555 1_555
O3 Na1E 1_555 1_555
F1 F1E 1_555 1_555
C6 C7 1_555 1_555
Na1A O1A 1_555 1_555
Na1A O2A 1_555 1_555
Na1A O3A 1_555 1_555
Na1A Na1D 1_555 1_555
Na1A O2D 1_555 1_555
Na1A Na1E 1_555 1_555
Na1A O2E 1_555 1_555
O2A Na1D 1_555 1_555
O2A Na1E 1_555 1_555
O3A Na1D 1_555 1_555
O3A Na1E 1_555 1_555
Na1D O2D 1_555 1_555
Na1D Na1E 1_555 1_555
Na1D O2E 1_555 1_555
O1D Na1E 1_555 1_555
O2D Na1E 1_555 1_555
Na1E O1E 1_555 1_555
Na1E O2E 1_555 1_555
F1A B1D 1_555 1_555
F1A F1D 1_555 1_555
B1D F1D 1_555 1_555
B1D F1E 1_555 1_555
C4A C5A 1_555 1_555
C6A C7A 1_555 1_555
C1D C3D 1_555 1_555
C6D C7D 1_555 1_555
C1E C3E 1_555 1_555
C6E C7E 1_555 1_555

#END
