
#######################################################################
#
#                 Cambridge Crystallographic Data Centre
#                                CCDC 
#
#######################################################################
#
# If this CIF has been generated from an entry in the Cambridge 
# Structural Database, then it will include bibliographic, chemical, 
# crystal, experimental, refinement or atomic coordinate data resulting 
# from the CCDC's data processing and validation procedures.
#
#######################################################################

data_TIJSEL
_symmetry_cell_setting           monoclinic
_symmetry_space_group_name_H-M   'C 2/c'
_symmetry_Int_Tables_number      15
_space_group_name_Hall           '-C 2yn'
loop_
_symmetry_equiv_pos_site_id
_symmetry_equiv_pos_as_xyz
1 x,y,z
2 1/2+x,1/2+y,z
3 -x,y,1/2-z
4 1/2-x,1/2+y,1/2-z
5 -x,-y,-z
6 1/2-x,1/2-y,-z
7 x,-y,1/2+z
8 1/2+x,1/2-y,1/2+z
_cell_length_a                   16.217(5)
_cell_length_b                   14.896(5)
_cell_length_c                   9.835(3)
_cell_angle_alpha                90
_cell_angle_beta                 101.453(4)
_cell_angle_gamma                90
_cell_volume                     2328.52
loop_
_atom_site_label
_atom_site_type_symbol
_atom_site_fract_x
_atom_site_fract_y
_atom_site_fract_z
Dy1 Dy 1.0000 -0.00194(3) 0.7500
O2 O 0.8844(2) 0.0502(2) 0.8366(4)
O3 O 0.8995(2) 0.0356(2) 1.0630(4)
O4 O 1.0395(2) 0.1459(2) 0.8537(3)
O5 O 0.9440(4) -0.1301(3) 0.8516(6)
O6 O 0.7621(3) 0.1369(4) 0.6965(4)
O7 O 1.1006(6) 0.3028(6) 0.9404(9)
C1 C 0.8576(3) 0.0595(3) 0.9489(5)
C2 C 0.7733(3) 0.0986(3) 0.9387(5)
C3 C 0.7371(4) 0.1022(4) 1.0540(6)
H1 H 0.7658 0.0781 1.1373
C4 C 0.6592(4) 0.1410(5) 1.0484(8)
H2 H 0.6355 0.1432 1.1271
C5 C 0.6173(4) 0.1763(5) 0.9251(9)
H3 H 0.5651 0.2033 0.9207
C6 C 0.6511(4) 0.1721(4) 0.8088(8)
H4 H 0.6210 0.1947 0.7254
C7 C 0.7294(4) 0.1348(4) 0.8140(7)
C8 C 1.0000 0.1886(5) 0.7500
C9 C 1.0000 0.2894(5) 0.7500
C10 C 1.0536(5) 0.3349(5) 0.8590(9)
C11 C 1.0523(6) 0.4283(6) 0.8549(12)
H5 H 1.0869 0.4615 0.9236
C12 C 1.0000 0.4701(9) 0.7500
H6 H 1.0000 0.5325 0.7500
H7 H 0.901(3) -0.136(4) 0.842(6)
H8 H 0.963(4) -0.140(4) 0.920(6)
Dy1F Dy 1.0000 0.00194(3) 1.2500
Dy1F_2 Dy 1.0000 0.00194(3) 0.2500
O2B O 1.1156(2) 0.0502(2) 0.6634(4)
O3B O 1.1005(2) 0.0356(2) 0.4370(4)
O3F O 0.8995(2) -0.0356(2) 0.5630(4)
O3D O 1.1005(2) -0.0356(2) 0.9370(4)
O4B O 0.9605(2) 0.1459(2) 0.6463(3)
O5B O 1.0560(4) -0.1301(3) 0.6484(6)
O6B O 1.2379(3) 0.1369(4) 0.8035(4)
O7B O 0.8994(6) 0.3028(6) 0.5596(9)
C1B C 1.1424(3) 0.0595(3) 0.5511(5)
C2B C 1.2267(3) 0.0986(3) 0.5613(5)
C3B C 1.2629(4) 0.1022(4) 0.4460(6)
H1B H 1.2342 0.0781 0.3627
C4B C 1.3408(4) 0.1410(5) 0.4516(8)
H2B H 1.3645 0.1432 0.3729
C5B C 1.3827(4) 0.1763(5) 0.5749(9)
H3B H 1.4349 0.2033 0.5793
C6B C 1.3489(4) 0.1721(4) 0.6912(8)
H4B H 1.3790 0.1947 0.7746
C7B C 1.2706(4) 0.1348(4) 0.6860(7)
C10B C 0.9464(5) 0.3349(5) 0.6410(9)
C11B C 0.9477(6) 0.4283(6) 0.6451(12)
H5B H 0.9131 0.4615 0.5764
H7B H 1.099(3) -0.136(4) 0.658(6)
H8B H 1.037(4) -0.140(4) 0.580(6)
O1 O 0.7201(3) 0.6598(3) 0.1020(5)
loop_
_geom_bond_atom_site_label_1
_geom_bond_atom_site_label_2
_geom_bond_site_symmetry_1
_geom_bond_site_symmetry_2
Dy1 O2 1_555 1_555
O2 C1 1_555 1_555
O3 C1 1_555 1_555
O4 Dy1 1_555 1_555
O5 Dy1 1_555 1_555
O6 C7 1_555 1_555
O7 C10 1_555 1_555
C1 C2 1_555 1_555
C2 C3 1_555 1_555
C3 H1 1_555 1_555
C4 C3 1_555 1_555
H2 C4 1_555 1_555
C5 C4 1_555 1_555
H3 C5 1_555 1_555
C6 C5 1_555 1_555
H4 C6 1_555 1_555
C7 C2 1_555 1_555
C8 O4 1_555 1_555
C9 C8 1_555 1_555
C10 C9 1_555 1_555
C11 C10 1_555 1_555
H5 C11 1_555 1_555
C12 C11 1_555 1_555
H6 C12 1_555 1_555
H7 O5 1_555 1_555
H8 O5 1_555 1_555
Dy1F O3 1_555 1_555
Dy1F_2 O3B 1_555 1_555
O2B Dy1 1_555 1_555
O3B C1B 1_555 1_555
O3F Dy1 1_555 1_555
O3D Dy1 1_555 1_555
O4B Dy1 1_555 1_555
O5B Dy1 1_555 1_555
O6B C7B 1_555 1_555
O7B C10B 1_555 1_555
C1B O2B 1_555 1_555
C2B C1B 1_555 1_555
C3B C2B 1_555 1_555
H1B C3B 1_555 1_555
C4B C3B 1_555 1_555
H2B C4B 1_555 1_555
C5B C4B 1_555 1_555
H3B C5B 1_555 1_555
C6B C5B 1_555 1_555
H4B C6B 1_555 1_555
C7B C2B 1_555 1_555
C10B C9 1_555 1_555
C11B C12 1_555 1_555
H5B C11B 1_555 1_555
H7B O5B 1_555 1_555
H8B O5B 1_555 1_555
C6 C7 1_555 1_555
C8 O4B 1_555 1_555
C6B C7B 1_555 1_555
C10B C11B 1_555 1_555

#END
