
#######################################################################
#
#                 Cambridge Crystallographic Data Centre
#                                CCDC 
#
#######################################################################
#
# If this CIF has been generated from an entry in the Cambridge 
# Structural Database, then it will include bibliographic, chemical, 
# crystal, experimental, refinement or atomic coordinate data resulting 
# from the CCDC's data processing and validation procedures.
#
#######################################################################

data_TIJSAG
_symmetry_cell_setting           monoclinic
_symmetry_space_group_name_H-M   'C 2/c'
_symmetry_Int_Tables_number      15
_space_group_name_Hall           '-C 2yn'
loop_
_symmetry_equiv_pos_site_id
_symmetry_equiv_pos_as_xyz
1 x,y,z
2 1/2+x,1/2+y,z
3 x,-y,1/2+z
4 1/2+x,1/2-y,1/2+z
5 -x,-y,-z
6 1/2-x,1/2-y,-z
7 -x,y,1/2-z
8 1/2-x,1/2+y,1/2-z
_cell_length_a                   9.441(4)
_cell_length_b                   8.085(3)
_cell_length_c                   20.666(11)
_cell_angle_alpha                90
_cell_angle_beta                 93.4900(10)
_cell_angle_gamma                90
_cell_volume                     1574.52
loop_
_atom_site_label
_atom_site_type_symbol
_atom_site_fract_x
_atom_site_fract_y
_atom_site_fract_z
Cd1 Cd 0.0000 0.0000 0.5000
C1 C 0.1479(3) -0.3798(4) 0.53864(15)
C2 C 0.1891(4) 0.0104(4) 0.64003(15)
C3 C 0.1521(4) -0.1143(5) 0.68226(17)
H1 H 0.0538 -0.1407 0.6861
C4 C 0.2560(4) -0.2005(4) 0.71909(17)
H2 H 0.2301 -0.2878 0.7476
C5 C 0.3977(3) -0.1604(4) 0.71383(15)
C6 C 0.4359(4) -0.0382(4) 0.67143(17)
H3 H 0.5343 -0.0118 0.6678
C7 C 0.3311(4) 0.0463(4) 0.63408(17)
H4 H 0.3576 0.1297 0.6040
N1 N 0.0760(3) -0.2677(3) 0.52703(15)
N2 N 0.0815(3) 0.0997(3) 0.60249(13)
O1 O 0.5000 -0.2531(4) 0.7500
S1 S 0.24723(10) -0.54422(12) 0.55763(6)
H5 H -0.0009 0.1039 0.6219
H6 H 0.1173 0.2011 0.5959
C5F C 0.6023(3) -0.1604(4) 0.78617(15)
C4F C 0.7440(4) -0.2005(4) 0.78091(17)
C3F C 0.8479(4) -0.1143(5) 0.81774(17)
C2F C 0.8109(4) 0.0104(4) 0.85997(15)
C7F C 0.6689(4) 0.0463(4) 0.86592(17)
C6F C 0.5641(4) -0.0382(4) 0.82857(17)
H3F H 0.4657 -0.0118 0.8322
H4F H 0.6424 0.1297 0.8960
N2F N 0.9185(3) 0.0997(3) 0.89751(13)
H5F H 1.0009 0.1039 0.8781
H6F H 0.8827 0.2011 0.9041
H1F H 0.9462 -0.1407 0.8139
H2F H 0.7699 -0.2878 0.7524
C1D C -0.1479(3) 0.3798(4) 0.46136(15)
N1D N -0.0760(3) 0.2677(3) 0.47297(15)
S1D S -0.24723(10) 0.54422(12) 0.44237(6)
N2D N -0.0815(3) -0.0997(3) 0.39751(13)
S1A S -0.25277(10) -0.04422(12) 0.55763(6)
S1E S 0.25277(10) 0.04422(12) 0.44237(6)
Cd1A Cd 0.5000 -0.5000 0.5000
Cd1B Cd 1.0000 0.0000 1.0000
Cd1A_2 Cd -0.5000 0.5000 0.5000
H5D H 0.0009 -0.1039 0.3781
H6D H -0.1173 -0.2011 0.4041
loop_
_geom_bond_atom_site_label_1
_geom_bond_atom_site_label_2
_geom_bond_site_symmetry_1
_geom_bond_site_symmetry_2
Cd1 N1 1_555 1_555
C1 N1 1_555 1_555
C2 C3 1_555 1_555
C3 H1 1_555 1_555
C4 C3 1_555 1_555
H2 C4 1_555 1_555
C5 C4 1_555 1_555
C6 C5 1_555 1_555
H3 C6 1_555 1_555
C7 C2 1_555 1_555
H4 C7 1_555 1_555
N2 Cd1 1_555 1_555
O1 C5 1_555 1_555
S1 C1 1_555 1_555
H5 N2 1_555 1_555
H6 N2 1_555 1_555
C5F O1 1_555 1_555
C4F C5F 1_555 1_555
C3F C4F 1_555 1_555
C2F C3F 1_555 1_555
C7F C2F 1_555 1_555
C6F C5F 1_555 1_555
H3F C6F 1_555 1_555
H4F C7F 1_555 1_555
N2F C2F 1_555 1_555
H5F N2F 1_555 1_555
H6F N2F 1_555 1_555
H1F C3F 1_555 1_555
H2F C4F 1_555 1_555
C1D N1D 1_555 1_555
N1D Cd1 1_555 1_555
S1D C1D 1_555 1_555
N2D Cd1 1_555 1_555
S1A Cd1 1_555 1_555
S1E Cd1 1_555 1_555
Cd1A S1 1_555 1_555
Cd1B N2F 1_555 1_555
Cd1A_2 S1D 1_555 1_555
H5D N2D 1_555 1_555
H6D N2D 1_555 1_555
C2 N2 1_555 1_555
C6 C7 1_555 1_555
C7F C6F 1_555 1_555

#END
