
#######################################################################
#
#                 Cambridge Crystallographic Data Centre
#                                CCDC 
#
#######################################################################
#
# If this CIF has been generated from an entry in the Cambridge 
# Structural Database, then it will include bibliographic, chemical, 
# crystal, experimental, refinement or atomic coordinate data resulting 
# from the CCDC's data processing and validation procedures.
#
#######################################################################

data_TIJXER
_symmetry_cell_setting           monoclinic
_symmetry_space_group_name_H-M   'P 2/c'
_symmetry_Int_Tables_number      13
_space_group_name_Hall           '-P 2yc'
loop_
_symmetry_equiv_pos_site_id
_symmetry_equiv_pos_as_xyz
1 x,y,z
2 -x,y,1/2-z
3 -x,-y,-z
4 x,-y,1/2+z
_cell_length_a                   16.6389(22)
_cell_length_b                   7.1141(12)
_cell_length_c                   9.1040(17)
_cell_angle_alpha                90
_cell_angle_beta                 95.46(1)
_cell_angle_gamma                90
_cell_volume                     1072.76
loop_
_atom_site_label
_atom_site_type_symbol
_atom_site_fract_x
_atom_site_fract_y
_atom_site_fract_z
Ca1 Ca 0.5000 0.26281(8) 0.2500
P1 P 0.37205(3) 0.09504(7) 0.51845(6)
O1 O 0.35048(9) -0.0647(2) 0.40162(14)
H1 H 0.3696(13) -0.045(3) 0.326(2)
O2 O 0.42066(8) 0.24433(18) 0.45100(14)
O3 O 0.41227(8) 0.00568(19) 0.65703(13)
C1 C 0.27725(12) 0.1891(3) 0.5646(2)
H2 H 0.2468 0.0876 0.6040
H3 H 0.2885 0.2803 0.6432
C2 C 0.22404(12) 0.2822(3) 0.4426(2)
C3 C 0.17695(13) 0.1778(3) 0.3396(2)
H4 H 0.1808 0.0474 0.3417
C4 C 0.12399(13) 0.2631(3) 0.2328(2)
C5 C 0.11762(14) 0.4572(3) 0.2285(3)
H5 H 0.0819 0.5154 0.1579
C6 C 0.16481(15) 0.5636(3) 0.3304(3)
H6 H 0.1611 0.6940 0.3282
C7 C 0.21720(13) 0.4766(3) 0.4350(2)
H7 H 0.2489 0.5499 0.5024
C8 C 0.07154(14) 0.1477(4) 0.1282(3)
O4 O 0.02260(11) 0.2276(3) 0.03461(19)
O5 O 0.07846(12) -0.0290(3) 0.1379(2)
H8 H 0.0472(18) -0.084(4) 0.079(3)
O6 O 0.40379(10) 0.3881(2) 0.06122(17)
H9 H 0.4050(15) 0.493(4) 0.011(3)
H10 H 0.3845(15) 0.315(4) 0.005(3)
O7 O 0.5000 0.6076(3) 0.2500
H11 H 0.512(2) 0.680(4) 0.310(3)
H11A H 0.488(2) 0.680(4) 0.190(3)
P1A P 0.62795(3) 0.09504(7) -0.01845(6)
O1A O 0.64952(9) -0.0647(2) 0.09838(14)
H1A H 0.6304(13) -0.045(3) 0.174(2)
O2A O 0.57934(8) 0.24433(18) 0.04900(14)
O3A O 0.58773(8) 0.00568(19) -0.15703(13)
C1A C 0.72275(12) 0.1891(3) -0.0646(2)
H2A H 0.7532 0.0876 -0.1040
H3A H 0.7115 0.2803 -0.1432
C2A C 0.77596(12) 0.2822(3) 0.0574(2)
C3A C 0.82305(13) 0.1778(3) 0.1604(2)
H4A H 0.8192 0.0474 0.1583
C4A C 0.87601(13) 0.2631(3) 0.2672(2)
C5A C 0.88238(14) 0.4572(3) 0.2715(3)
H5A H 0.9181 0.5154 0.3421
C6A C 0.83519(15) 0.5636(3) 0.1696(3)
H6A H 0.8389 0.6940 0.1718
C7A C 0.78280(13) 0.4766(3) 0.0650(2)
H7A H 0.7511 0.5499 -0.0024
C8A C 0.92846(14) 0.1477(4) 0.3718(3)
O4A O 0.97740(11) 0.2276(3) 0.46539(19)
O5A O 0.92154(12) -0.0290(3) 0.3621(2)
H8A H 0.9528(18) -0.084(4) 0.421(3)
O6A O 0.59621(10) 0.3881(2) 0.43878(17)
H9A H 0.5950(15) 0.493(4) 0.489(3)
H10A H 0.6155(15) 0.315(4) 0.495(3)
Ca1B Ca 0.5000 -0.26281(8) -0.2500
Ca1B_2 Ca 0.5000 -0.26281(8) 0.7500
O3B O 0.58773(8) -0.00568(19) 0.34297(13)
O3C O 0.41227(8) -0.00568(19) 0.15703(13)
loop_
_geom_bond_atom_site_label_1
_geom_bond_atom_site_label_2
_geom_bond_site_symmetry_1
_geom_bond_site_symmetry_2
Ca1 O2 1_555 1_555
P1 O1 1_555 1_555
O1 H1 1_555 1_555
O2 P1 1_555 1_555
O3 P1 1_555 1_555
C1 P1 1_555 1_555
H2 C1 1_555 1_555
H3 C1 1_555 1_555
C2 C1 1_555 1_555
C3 C2 1_555 1_555
H4 C3 1_555 1_555
C4 C3 1_555 1_555
C5 C4 1_555 1_555
H5 C5 1_555 1_555
C6 C5 1_555 1_555
H6 C6 1_555 1_555
C7 C2 1_555 1_555
H7 C7 1_555 1_555
C8 C4 1_555 1_555
O4 C8 1_555 1_555
O5 C8 1_555 1_555
H8 O5 1_555 1_555
O6 Ca1 1_555 1_555
H9 O6 1_555 1_555
H10 O6 1_555 1_555
O7 Ca1 1_555 1_555
H11 O7 1_555 1_555
H11A O7 1_555 1_555
P1A O1A 1_555 1_555
O1A H1A 1_555 1_555
O2A Ca1 1_555 1_555
O3A P1A 1_555 1_555
C1A P1A 1_555 1_555
H2A C1A 1_555 1_555
H3A C1A 1_555 1_555
C2A C1A 1_555 1_555
C3A C2A 1_555 1_555
H4A C3A 1_555 1_555
C4A C3A 1_555 1_555
C5A C4A 1_555 1_555
H5A C5A 1_555 1_555
C6A C5A 1_555 1_555
H6A C6A 1_555 1_555
C7A C2A 1_555 1_555
H7A C7A 1_555 1_555
C8A C4A 1_555 1_555
O4A C8A 1_555 1_555
O5A C8A 1_555 1_555
H8A O5A 1_555 1_555
O6A Ca1 1_555 1_555
H9A O6A 1_555 1_555
H10A O6A 1_555 1_555
Ca1B O3A 1_555 1_555
Ca1B_2 O3 1_555 1_555
O3B Ca1 1_555 1_555
O3C Ca1 1_555 1_555
C6 C7 1_555 1_555
P1A O2A 1_555 1_555
C6A C7A 1_555 1_555

#END
