
#######################################################################
#
#                 Cambridge Crystallographic Data Centre
#                                CCDC 
#
#######################################################################
#
# If this CIF has been generated from an entry in the Cambridge 
# Structural Database, then it will include bibliographic, chemical, 
# crystal, experimental, refinement or atomic coordinate data resulting 
# from the CCDC's data processing and validation procedures.
#
#######################################################################

data_TIJXIV
_symmetry_cell_setting           triclinic
_symmetry_space_group_name_H-M   'P -1'
_symmetry_Int_Tables_number      2
_space_group_name_Hall           '-P 1'
loop_
_symmetry_equiv_pos_site_id
_symmetry_equiv_pos_as_xyz
1 x,y,z
2 -x,-y,-z
_cell_length_a                   5.3149(11)
_cell_length_b                   5.7684(12)
_cell_length_c                   16.702(3)
_cell_angle_alpha                92.08(1)
_cell_angle_beta                 90.42(1)
_cell_angle_gamma                93.12(2)
_cell_volume                     510.94
loop_
_atom_site_label
_atom_site_type_symbol
_atom_site_fract_x
_atom_site_fract_y
_atom_site_fract_z
Ca1 Ca 0.5000 0.5000 0.5000
P1 P 0.80024(7) 0.01632(7) 0.40244(2)
O1 O 0.7473(2) 0.26554(17) 0.42070(6)
O2 O 0.70896(19) -0.15458(17) 0.46367(6)
O3 O 1.0972(2) -0.00127(18) 0.39288(6)
H1 H 1.170(3) 0.038(3) 0.4347(6)
C1 C 0.7657(3) 0.0740(3) 0.23836(9)
C2 C 0.9608(3) 0.0166(3) 0.18853(9)
H2 H 1.0458 -0.1170 0.1974
C3 C 1.0320(3) 0.1555(3) 0.12535(9)
C4 C 0.9072(4) 0.3572(3) 0.11295(10)
H3 H 0.9550 0.4524 0.0713
C5 C 0.7124(4) 0.4155(3) 0.16268(10)
H4 H 0.6284 0.5500 0.1544
C6 C 0.6422(3) 0.2750(3) 0.22459(10)
H5 H 0.5101 0.3153 0.2576
C7 C 0.6838(3) -0.0808(3) 0.30570(9)
H6 H 0.7400 -0.2355 0.2941
H7 H 0.5011 -0.0920 0.3071
C8 C 1.2352(3) 0.0857(3) 0.07060(10)
O4 O 1.2872(3) 0.2162(3) 0.01299(8)
H8 H 1.410(3) 0.180(4) -0.0131(12)
O5 O 1.3429(2) -0.0992(2) 0.08265(7)
O6 O 0.2100(2) 0.5249(2) 0.39226(8)
H9 H 0.179(4) 0.6602(14) 0.3842(12)
H10 H 0.081(2) 0.441(3) 0.3951(12)
P1A P 0.19976(7) -0.01632(7) 0.59756(2)
O1A O 0.2527(2) -0.26554(17) 0.57930(6)
O2A O 0.29104(19) 0.15458(17) 0.53633(6)
O3A O -0.0972(2) 0.00127(18) 0.60712(6)
H1A H -0.170(3) -0.038(3) 0.5653(6)
C1A C 0.2343(3) -0.0740(3) 0.76164(9)
C2A C 0.0392(3) -0.0166(3) 0.81147(9)
H2A H -0.0458 0.1170 0.8026
C3A C -0.0320(3) -0.1555(3) 0.87465(9)
C4A C 0.0928(4) -0.3572(3) 0.88705(10)
H3A H 0.0450 -0.4524 0.9287
C5A C 0.2876(4) -0.4155(3) 0.83732(10)
H4A H 0.3716 -0.5500 0.8456
C6A C 0.3578(3) -0.2750(3) 0.77541(10)
H5A H 0.4899 -0.3153 0.7424
C7A C 0.3162(3) 0.0808(3) 0.69430(9)
H6A H 0.2600 0.2355 0.7059
H7A H 0.4989 0.0920 0.6929
C8A C -0.2352(3) -0.0857(3) 0.92940(10)
O4A O -0.2872(3) -0.2162(3) 0.98701(8)
H8A H -0.410(3) -0.180(4) 1.0131(12)
O5A O -0.3429(2) 0.0992(2) 0.91735(7)
O6A O 0.7900(2) 0.4751(2) 0.60774(8)
H9A H 0.821(4) 0.3398(14) 0.6158(12)
H10A H 0.919(2) 0.559(3) 0.6049(12)
Ca1_2 Ca 0.5000 -0.5000 0.5000
O1A_2 O 0.2527(2) 0.73446(17) 0.57930(6)
O2_2 O 0.70896(19) 0.84542(17) 0.46367(6)
loop_
_geom_bond_atom_site_label_1
_geom_bond_atom_site_label_2
_geom_bond_site_symmetry_1
_geom_bond_site_symmetry_2
Ca1 O1 1_555 1_555
P1 O1 1_555 1_555
O2 P1 1_555 1_555
O3 P1 1_555 1_555
H1 O3 1_555 1_555
C1 C2 1_555 1_555
C2 H2 1_555 1_555
C3 C2 1_555 1_555
C4 C3 1_555 1_555
H3 C4 1_555 1_555
C5 C4 1_555 1_555
H4 C5 1_555 1_555
C6 C1 1_555 1_555
H5 C6 1_555 1_555
C7 P1 1_555 1_555
H6 C7 1_555 1_555
H7 C7 1_555 1_555
C8 C3 1_555 1_555
O4 C8 1_555 1_555
H8 O4 1_555 1_555
O5 C8 1_555 1_555
O6 Ca1 1_555 1_555
H9 O6 1_555 1_555
H10 O6 1_555 1_555
P1A O1A 1_555 1_555
O1A Ca1_2 1_555 1_555
O2A Ca1 1_555 1_555
O3A P1A 1_555 1_555
H1A O3A 1_555 1_555
C1A C2A 1_555 1_555
C2A H2A 1_555 1_555
C3A C2A 1_555 1_555
C4A C3A 1_555 1_555
H3A C4A 1_555 1_555
C5A C4A 1_555 1_555
H4A C5A 1_555 1_555
C6A C1A 1_555 1_555
H5A C6A 1_555 1_555
C7A P1A 1_555 1_555
H6A C7A 1_555 1_555
H7A C7A 1_555 1_555
C8A C3A 1_555 1_555
O4A C8A 1_555 1_555
H8A O4A 1_555 1_555
O5A C8A 1_555 1_555
O6A Ca1 1_555 1_555
H9A O6A 1_555 1_555
H10A O6A 1_555 1_555
Ca1_2 O2 1_555 1_555
O1A_2 Ca1 1_555 1_555
O2_2 Ca1 1_555 1_555
C1 C7 1_555 1_555
C5 C6 1_555 1_555
P1A O2A 1_555 1_555
C1A C7A 1_555 1_555
C5A C6A 1_555 1_555

#END
