
#######################################################################
#
#                 Cambridge Crystallographic Data Centre
#                                CCDC 
#
#######################################################################
#
# If this CIF has been generated from an entry in the Cambridge 
# Structural Database, then it will include bibliographic, chemical, 
# crystal, experimental, refinement or atomic coordinate data resulting 
# from the CCDC's data processing and validation procedures.
#
#######################################################################

data_TIKDEX
_symmetry_cell_setting           monoclinic
_symmetry_space_group_name_H-M   'P 21/c'
_symmetry_Int_Tables_number      14
_space_group_name_Hall           '-P 2ybc'
loop_
_symmetry_equiv_pos_site_id
_symmetry_equiv_pos_as_xyz
1 x,y,z
2 -x,1/2+y,1/2-z
3 -x,-y,-z
4 x,1/2-y,1/2+z
_cell_length_a                   16.9315(10)
_cell_length_b                   7.2927(10)
_cell_length_c                   13.905(1)
_cell_angle_alpha                90.000
_cell_angle_beta                 113.991(11)
_cell_angle_gamma                90.000
_cell_volume                     1568.61
loop_
_atom_site_label
_atom_site_type_symbol
_atom_site_fract_x
_atom_site_fract_y
_atom_site_fract_z
Cd1 Cd 1.0000 0.5000 0.5000
P1 P 0.8887 0.1483 0.3142
P2 P 0.8231 -0.2666 0.5463
O1 O 0.9046 0.3320 0.3608
O2 O 0.9649 0.0631 0.3013
O3 O 0.8105 0.1627 0.2056
O4 O 0.8755 -0.1194 0.6288
O5 O 0.8831 -0.3762 0.5158
O6 O 0.7683 -0.3805 0.5848
O7 O 0.3890 0.3167 0.4459
O8 O 0.3681 0.4606 0.2976
N1 N 0.7716 0.0127 0.3937
C1 C 0.8598 -0.0136 0.3930
C2 C 0.7426 -0.1576 0.4298
C3 C 0.7690 0.1853 0.4519
C4 C 0.6772 0.2353 0.4328
C5 C 0.6434 0.1823 0.5039
C6 C 0.5582 0.2268 0.4854
C7 C 0.5051 0.3142 0.3935
C8 C 0.5391 0.3609 0.3211
C9 C 0.6246 0.3302 0.3428
C10 C 0.4149 0.3735 0.3733
O9 O 1.0123 0.7063 0.3762
Cd1_2 Cd 1.0000 -0.5000 0.5000
Cd1_3 Cd 1.0000 1.5000 0.5000
P1B P 1.1113 0.8517 0.6858
P2B P 1.1769 1.2666 0.4537
O1B O 1.0954 0.6680 0.6392
O2B O 1.0351 0.9369 0.6987
O3B O 1.1895 0.8373 0.7944
O4B O 1.1245 1.1194 0.3712
O5B O 1.1169 1.3762 0.4842
O5_2 O 0.8831 0.6238 0.5158
O5B_2 O 1.1169 0.3762 0.4842
O6B O 1.2317 1.3805 0.4152
O7B O 1.6110 0.6833 0.5541
O8B O 1.6319 0.5394 0.7024
N1B N 1.2284 0.9873 0.6063
C1B C 1.1402 1.0136 0.6070
C2B C 1.2574 1.1576 0.5702
C3B C 1.2310 0.8147 0.5481
C4B C 1.3228 0.7647 0.5672
C5B C 1.3566 0.8177 0.4961
C6B C 1.4418 0.7732 0.5146
C7B C 1.4949 0.6858 0.6065
C8B C 1.4609 0.6391 0.6789
C9B C 1.3754 0.6698 0.6572
C10B C 1.5851 0.6265 0.6267
O9B O 0.9877 0.2937 0.6238
O10 O 0.7650 0.5941 0.2609
loop_
_geom_bond_atom_site_label_1
_geom_bond_atom_site_label_2
_geom_bond_site_symmetry_1
_geom_bond_site_symmetry_2
Cd1 O1 1_555 1_555
P1 O1 1_555 1_555
P2 O4 1_555 1_555
O2 P1 1_555 1_555
O3 P1 1_555 1_555
O5 P2 1_555 1_555
O6 P2 1_555 1_555
O7 C10 1_555 1_555
O8 C10 1_555 1_555
N1 C1 1_555 1_555
C1 P1 1_555 1_555
C2 P2 1_555 1_555
C3 N1 1_555 1_555
C4 C3 1_555 1_555
C5 C4 1_555 1_555
C6 C5 1_555 1_555
C7 C6 1_555 1_555
C8 C7 1_555 1_555
C9 C4 1_555 1_555
C10 C7 1_555 1_555
O9 Cd1 1_555 1_555
Cd1_2 O5 1_555 1_555
Cd1_3 O5B 1_555 1_555
P1B O1B 1_555 1_555
P2B O4B 1_555 1_555
O1B Cd1 1_555 1_555
O2B P1B 1_555 1_555
O3B P1B 1_555 1_555
O5B P2B 1_555 1_555
O5_2 Cd1 1_555 1_555
O5B_2 Cd1 1_555 1_555
O6B P2B 1_555 1_555
O7B C10B 1_555 1_555
O8B C10B 1_555 1_555
N1B C1B 1_555 1_555
C1B P1B 1_555 1_555
C2B P2B 1_555 1_555
C3B N1B 1_555 1_555
C4B C3B 1_555 1_555
C5B C4B 1_555 1_555
C6B C5B 1_555 1_555
C7B C6B 1_555 1_555
C8B C7B 1_555 1_555
C9B C4B 1_555 1_555
C10B C7B 1_555 1_555
O9B Cd1 1_555 1_555
N1 C2 1_555 1_555
C8 C9 1_555 1_555
N1B C2B 1_555 1_555
C8B C9B 1_555 1_555

#END
