
#######################################################################
#
#                 Cambridge Crystallographic Data Centre
#                                CCDC 
#
#######################################################################
#
# If this CIF has been generated from an entry in the Cambridge 
# Structural Database, then it will include bibliographic, chemical, 
# crystal, experimental, refinement or atomic coordinate data resulting 
# from the CCDC's data processing and validation procedures.
#
#######################################################################

data_TIKJON
_symmetry_cell_setting           monoclinic
_symmetry_space_group_name_H-M   'C 2/c'
_symmetry_Int_Tables_number      15
_space_group_name_Hall           '-C 2yn'
loop_
_symmetry_equiv_pos_site_id
_symmetry_equiv_pos_as_xyz
1 x,y,z
2 1/2+x,1/2+y,z
3 -x,y,1/2-z
4 1/2-x,1/2+y,1/2-z
5 -x,-y,-z
6 1/2-x,1/2-y,-z
7 x,-y,1/2+z
8 1/2+x,1/2-y,1/2+z
_cell_length_a                   17.541(2)
_cell_length_b                   14.2888(18)
_cell_length_c                   8.3715(10)
_cell_angle_alpha                90
_cell_angle_beta                 95.332(2)
_cell_angle_gamma                90
_cell_volume                     2089.15
loop_
_atom_site_label
_atom_site_type_symbol
_atom_site_fract_x
_atom_site_fract_y
_atom_site_fract_z
Dy1 Dy 0.203012(9) 0.629687(11) 1.02215(2)
C1 C 0.3670(2) 0.6707(3) 0.8412(5)
C2 C 0.5000 0.6675(4) 0.7500
H1 H 0.5000 0.7326 0.7500
C3 C 0.4365(2) 0.6185(3) 0.7934(5)
C4 C 0.4371(2) 0.5210(3) 0.7938(6)
H2 H 0.3949 0.4882 0.8238
C5 C 0.5000 0.4730(4) 0.7500
H3 H 0.5000 0.4079 0.7500
C6 C 0.1957(2) 0.7992(3) 0.7177(5)
C7 C 0.1505(3) 0.7515(3) 0.5804(5)
H4 H 0.1811 0.7007 0.5436
H5 H 0.1421 0.7960 0.4929
C8 C 0.0723(2) 0.7116(3) 0.6160(5)
H6 H 0.0674 0.7168 0.7301
H7 H 0.0320 0.7490 0.5603
C9 C 0.0613(3) 0.6098(3) 0.5655(6)
H8 H 0.0076 0.5938 0.5669
H9 H 0.0743 0.6032 0.4560
C10 C 0.1085(2) 0.5411(3) 0.6705(5)
O1 O 0.30630(17) 0.62295(19) 0.8498(4)
O2 O 0.37264(16) 0.75702(19) 0.8653(4)
O3 O 0.19584(15) 0.76764(19) 0.8599(3)
O4 O 0.2361(2) 0.86950(18) 0.6944(4)
O5 O 0.14435(17) 0.5694(2) 0.7979(4)
O6 O 0.11073(16) 0.4571(2) 0.6258(4)
O7 O 0.26580(19) 0.4837(2) 1.0647(4)
H10 H 0.275(4) 0.455(4) 1.154(4)
H11 H 0.261(3) 0.449(3) 0.982(3)
Dy1B Dy 0.796988(9) 0.629687(11) 0.47785(2)
Dy1E Dy 0.296988(9) 0.870313(11) 0.97785(2)
Dy1F Dy 0.203012(9) 0.370313(11) 0.52215(2)
Dy1G Dy 0.703012(9) 0.870313(11) 0.52215(2)
Dy1C Dy 0.296988(9) 1.129687(11) 1.47785(2)
C1B C 0.6330(2) 0.6707(3) 0.6588(5)
C3B C 0.5635(2) 0.6185(3) 0.7066(5)
C4B C 0.5629(2) 0.5210(3) 0.7062(6)
H2B H 0.6051 0.4882 0.6762
C6E C 0.3043(2) 0.7008(3) 1.2823(5)
C7E C 0.3495(3) 0.7485(3) 1.4196(5)
H4E H 0.3189 0.7993 1.4564
H5E H 0.3579 0.7040 1.5071
C8E C 0.4277(2) 0.7884(3) 1.3840(5)
H6E H 0.4326 0.7832 1.2699
H7E H 0.4680 0.7510 1.4397
C9E C 0.4387(3) 0.8902(3) 1.4345(6)
H8E H 0.4924 0.9062 1.4331
H9E H 0.4257 0.8968 1.5440
C10E C 0.3915(2) 0.9589(3) 1.3295(5)
O1B O 0.69370(17) 0.62295(19) 0.6502(4)
O2B O 0.62736(16) 0.75702(19) 0.6347(4)
O2E O 0.12736(16) 0.74298(19) 1.1347(4)
O2G O 0.87264(16) 0.74298(19) 0.3653(4)
O3E O 0.30416(15) 0.73236(19) 1.1401(3)
O3G O 0.69584(15) 0.73236(19) 0.3599(3)
O3B O 0.80416(15) 0.76764(19) 0.6401(3)
O4E O 0.2639(2) 0.63050(18) 1.3056(4)
O4G O 0.7361(2) 0.63050(18) 0.1944(4)
O5E O 0.35565(17) 0.9306(2) 1.2021(4)
O5B O 0.85565(17) 0.5694(2) 0.7021(4)
O6E O 0.38927(16) 1.0429(2) 1.3742(4)
O6F O 0.11073(16) 0.5429(2) 1.1258(4)
O6D O 0.88927(16) 0.5429(2) 0.3742(4)
O7B O 0.73420(19) 0.4837(2) 0.4353(4)
H10B H 0.725(4) 0.455(4) 0.346(4)
H11B H 0.739(3) 0.449(3) 0.518(3)
loop_
_geom_bond_atom_site_label_1
_geom_bond_atom_site_label_2
_geom_bond_site_symmetry_1
_geom_bond_site_symmetry_2
Dy1 O1 1_555 1_555
C1 C3 1_555 1_555
C2 H1 1_555 1_555
C3 C2 1_555 1_555
C4 C3 1_555 1_555
H2 C4 1_555 1_555
C5 C4 1_555 1_555
H3 C5 1_555 1_555
C6 C7 1_555 1_555
C7 H4 1_555 1_555
H5 C7 1_555 1_555
C8 C7 1_555 1_555
H6 C8 1_555 1_555
H7 C8 1_555 1_555
C9 C8 1_555 1_555
H8 C9 1_555 1_555
H9 C9 1_555 1_555
C10 C9 1_555 1_555
O1 C1 1_555 1_555
O2 C1 1_555 1_555
O3 Dy1 1_555 1_555
O4 C6 1_555 1_555
O5 Dy1 1_555 1_555
O6 C10 1_555 1_555
O7 Dy1 1_555 1_555
H10 O7 1_555 1_555
H11 O7 1_555 1_555
Dy1B O1B 1_555 1_555
Dy1E O2 1_555 1_555
Dy1F O6 1_555 1_555
Dy1G O2B 1_555 1_555
Dy1C O6E 1_555 1_555
C1B C3B 1_555 1_555
C3B C2 1_555 1_555
C4B C5 1_555 1_555
H2B C4B 1_555 1_555
C6E C7E 1_555 1_555
C7E H4E 1_555 1_555
H5E C7E 1_555 1_555
C8E C7E 1_555 1_555
H6E C8E 1_555 1_555
H7E C8E 1_555 1_555
C9E C8E 1_555 1_555
H8E C9E 1_555 1_555
H9E C9E 1_555 1_555
C10E C9E 1_555 1_555
O1B C1B 1_555 1_555
O2B C1B 1_555 1_555
O2E Dy1 1_555 1_555
O2G Dy1B 1_555 1_555
O3E Dy1 1_555 1_555
O3G Dy1B 1_555 1_555
O3B Dy1B 1_555 1_555
O4E Dy1 1_555 1_555
O4G Dy1B 1_555 1_555
O5E Dy1E 1_555 1_555
O5B Dy1B 1_555 1_555
O6E C10E 1_555 1_555
O6F Dy1 1_555 1_555
O6D Dy1B 1_555 1_555
O7B Dy1B 1_555 1_555
H10B O7B 1_555 1_555
H11B O7B 1_555 1_555
C6 O3 1_555 1_555
C10 O5 1_555 1_555
O3 Dy1E 1_555 1_555
O4 Dy1E 1_555 1_555
Dy1E O3E 1_555 1_555
Dy1G O3G 1_555 1_555
Dy1G O3B 1_555 1_555
C3B C4B 1_555 1_555
C6E O3E 1_555 1_555
C6E O4E 1_555 1_555
C10E O5E 1_555 1_555

#END
