
#######################################################################
#
#                 Cambridge Crystallographic Data Centre
#                                CCDC 
#
#######################################################################
#
# If this CIF has been generated from an entry in the Cambridge 
# Structural Database, then it will include bibliographic, chemical, 
# crystal, experimental, refinement or atomic coordinate data resulting 
# from the CCDC's data processing and validation procedures.
#
#######################################################################

data_TIKJUT
_symmetry_cell_setting           monoclinic
_symmetry_space_group_name_H-M   'C 2/c'
_symmetry_Int_Tables_number      15
_space_group_name_Hall           '-C 2yn'
loop_
_symmetry_equiv_pos_site_id
_symmetry_equiv_pos_as_xyz
1 x,y,z
2 1/2+x,1/2+y,z
3 -x,y,1/2-z
4 1/2-x,1/2+y,1/2-z
5 -x,-y,-z
6 1/2-x,1/2-y,-z
7 x,-y,1/2+z
8 1/2+x,1/2-y,1/2+z
_cell_length_a                   17.507(4)
_cell_length_b                   14.196(3)
_cell_length_c                   8.3366(17)
_cell_angle_alpha                90
_cell_angle_beta                 95.40(3)
_cell_angle_gamma                90
_cell_volume                     2062.69
loop_
_atom_site_label
_atom_site_type_symbol
_atom_site_fract_x
_atom_site_fract_y
_atom_site_fract_z
C1 C 0.36655(16) 0.32955(19) -0.1584(3)
C2 C 0.5000 0.3317(3) -0.2500
H1 H 0.5000 0.2662 -0.2500
C3 C 0.43632(15) 0.38113(18) -0.2058(3)
C4 C 0.43667(17) 0.4783(2) -0.2065(4)
H2 H 0.3941 0.5112 -0.1776
C5 C 0.5000 0.5273(3) -0.2500
H3 H 0.5000 0.5928 -0.2500
C6 C 0.30350(15) 0.29908(18) 0.2820(3)
C7 C 0.34942(19) 0.2523(2) 0.4189(3)
H4 H 0.3190 0.2014 0.4574
H5 H 0.3581 0.2975 0.5058
C8 C 0.42723(17) 0.21202(19) 0.3834(4)
H6 H 0.4321 0.2175 0.2688
H7 H 0.4676 0.2495 0.4396
C9 C 0.43861(17) 0.10883(19) 0.4333(4)
H8 H 0.4923 0.0925 0.4303
H9 H 0.4262 0.1017 0.5436
C10 C 0.39055(16) 0.04132(19) 0.3283(3)
H10 H 0.282(2) 0.541(3) 0.155(3)
H11 H 0.268(2) 0.5522(18) -0.015(3)
O1 O 0.30626(11) 0.37749(12) -0.1490(2)
O2 O 0.37228(11) 0.24245(13) -0.1335(2)
O3 O 0.30359(11) 0.26712(13) 0.1394(2)
O4 O 0.26326(12) 0.37040(12) 0.3045(2)
O5 O 0.35518(12) 0.06987(14) 0.2002(2)
O6 O 0.38839(11) -0.04354(13) 0.3733(2)
O7 O 0.26570(13) 0.51559(14) 0.0655(2)
Y1 Y 0.203279(14) 0.370314(16) 0.02234(3)
C1B C 0.63345(16) 0.32955(19) -0.3416(3)
C3B C 0.56368(15) 0.38113(18) -0.2942(3)
C4B C 0.56333(17) 0.4783(2) -0.2935(4)
H2B H 0.6059 0.5112 -0.3224
C6E C 0.19650(15) 0.20092(18) -0.2820(3)
C7E C 0.15058(19) 0.2477(2) -0.4189(3)
H4E H 0.1810 0.2986 -0.4574
H5E H 0.1419 0.2025 -0.5058
C8E C 0.07277(17) 0.28798(19) -0.3834(4)
H6E H 0.0679 0.2825 -0.2688
H7E H 0.0324 0.2505 -0.4396
C9E C 0.06139(17) 0.39117(19) -0.4333(4)
H8E H 0.0077 0.4075 -0.4303
H9E H 0.0738 0.3983 -0.5436
C10E C 0.10945(16) 0.45868(19) -0.3283(3)
H10B H 0.718(2) 0.541(3) -0.655(3)
H11B H 0.732(2) 0.5522(18) -0.485(3)
O1B O 0.69374(11) 0.37749(12) -0.3510(2)
O2B O 0.62772(11) 0.24245(13) -0.3665(2)
O2E O 0.12772(11) 0.25755(13) 0.1335(2)
O2G O 0.87228(11) 0.25755(13) -0.6335(2)
O3E O 0.19641(11) 0.23288(13) -0.1394(2)
O3G O 0.80359(11) 0.23288(13) -0.3606(2)
O3B O 0.69641(11) 0.26712(13) -0.6394(2)
O4E O 0.23674(12) 0.12960(12) -0.3045(2)
O4B O 0.73674(12) 0.37040(12) -0.8045(2)
O5E O 0.14482(12) 0.43013(14) -0.2002(2)
O5G O 0.85518(12) 0.43013(14) -0.2998(2)
O6E O 0.11161(11) 0.54354(13) -0.3733(2)
O6C O 0.11161(11) 0.45646(13) 0.1267(2)
O6A O 0.88839(11) 0.45646(13) -0.6267(2)
O7B O 0.73430(13) 0.51559(14) -0.5655(2)
Y1B Y 0.796721(14) 0.370314(16) -0.52234(3)
Y1E Y 0.296721(14) 0.129686(16) -0.02234(3)
Y1C Y 0.296721(14) -0.129686(16) 0.47766(3)
Y1G Y 0.703279(14) 0.129686(16) -0.47766(3)
Y1F Y 0.203279(14) 0.629686(16) -0.47766(3)
loop_
_geom_bond_atom_site_label_1
_geom_bond_atom_site_label_2
_geom_bond_site_symmetry_1
_geom_bond_site_symmetry_2
C1 C3 1_555 1_555
C2 H1 1_555 1_555
C3 C2 1_555 1_555
C4 C3 1_555 1_555
H2 C4 1_555 1_555
C5 C4 1_555 1_555
H3 C5 1_555 1_555
C6 C7 1_555 1_555
C7 H4 1_555 1_555
H5 C7 1_555 1_555
C8 C7 1_555 1_555
H6 C8 1_555 1_555
H7 C8 1_555 1_555
C9 C8 1_555 1_555
H8 C9 1_555 1_555
H9 C9 1_555 1_555
C10 C9 1_555 1_555
H10 O7 1_555 1_555
H11 O7 1_555 1_555
O1 C1 1_555 1_555
O2 C1 1_555 1_555
O3 C6 1_555 1_555
O4 C6 1_555 1_555
O5 C10 1_555 1_555
O6 C10 1_555 1_555
O7 Y1 1_555 1_555
Y1 O1 1_555 1_555
C1B C3B 1_555 1_555
C3B C2 1_555 1_555
C4B C5 1_555 1_555
H2B C4B 1_555 1_555
C6E C7E 1_555 1_555
C7E H4E 1_555 1_555
H5E C7E 1_555 1_555
C8E C7E 1_555 1_555
H6E C8E 1_555 1_555
H7E C8E 1_555 1_555
C9E C8E 1_555 1_555
H8E C9E 1_555 1_555
H9E C9E 1_555 1_555
C10E C9E 1_555 1_555
H10B O7B 1_555 1_555
H11B O7B 1_555 1_555
O1B C1B 1_555 1_555
O2B C1B 1_555 1_555
O2E Y1 1_555 1_555
O2G Y1B 1_555 1_555
O3E Y1 1_555 1_555
O3G Y1B 1_555 1_555
O3B Y1B 1_555 1_555
O4E C6E 1_555 1_555
O4B Y1B 1_555 1_555
O5E Y1 1_555 1_555
O5G Y1B 1_555 1_555
O6E C10E 1_555 1_555
O6C Y1 1_555 1_555
O6A Y1B 1_555 1_555
O7B Y1B 1_555 1_555
Y1B O1B 1_555 1_555
Y1E O2 1_555 1_555
Y1C O6 1_555 1_555
Y1G O2B 1_555 1_555
Y1F O6E 1_555 1_555
O3 Y1 1_555 1_555
O3 Y1E 1_555 1_555
O4 Y1 1_555 1_555
O5 Y1E 1_555 1_555
C3B C4B 1_555 1_555
C6E O3E 1_555 1_555
C10E O5E 1_555 1_555
O3E Y1E 1_555 1_555
O3G Y1G 1_555 1_555
O3B Y1G 1_555 1_555
O4E Y1E 1_555 1_555

#END
