
#######################################################################
#
#                 Cambridge Crystallographic Data Centre
#                                CCDC 
#
#######################################################################
#
# If this CIF has been generated from an entry in the Cambridge 
# Structural Database, then it will include bibliographic, chemical, 
# crystal, experimental, refinement or atomic coordinate data resulting 
# from the CCDC's data processing and validation procedures.
#
#######################################################################

data_TIKJIH
_symmetry_cell_setting           monoclinic
_symmetry_space_group_name_H-M   'C 2/c'
_symmetry_Int_Tables_number      15
_space_group_name_Hall           '-C 2yn'
loop_
_symmetry_equiv_pos_site_id
_symmetry_equiv_pos_as_xyz
1 x,y,z
2 1/2+x,1/2+y,z
3 -x,y,1/2-z
4 1/2-x,1/2+y,1/2-z
5 -x,-y,-z
6 1/2-x,1/2-y,-z
7 x,-y,1/2+z
8 1/2+x,1/2-y,1/2+z
_cell_length_a                   17.4826(19)
_cell_length_b                   14.2661(16)
_cell_length_c                   8.3567(13)
_cell_angle_alpha                90
_cell_angle_beta                 95.276(2)
_cell_angle_gamma                90
_cell_volume                     2075.4
loop_
_atom_site_label
_atom_site_type_symbol
_atom_site_fract_x
_atom_site_fract_y
_atom_site_fract_z
C1 C 0.133(2) 0.171(3) 0.661(5)
C2 C 0.064(2) 0.119(3) 0.707(6)
C3 C 0.063(3) 0.022(3) 0.707(7)
H1 H 0.1059 -0.0111 0.6779
C4 C 0.0000 -0.026(5) 0.7500
H2 H 0.0000 -0.0912 0.7500
C5 C 0.0000 0.167(4) 0.7500
H3 H 0.0000 0.2322 0.7500
C6 C 0.195(2) 0.201(3) 0.218(5)
C7 C 0.152(3) 0.251(4) 0.085(6)
H4 H 0.1461 0.2091 -0.0072
H5 H 0.1832 0.3035 0.0553
C8 C 0.073(3) 0.288(3) 0.116(6)
H6 H 0.0335 0.2500 0.0573
H7 H 0.0660 0.2827 0.2294
C9 C 0.061(3) 0.390(3) 0.065(6)
H8 H 0.0746 0.3965 -0.0449
H9 H 0.0073 0.4057 0.0655
C10 C 0.108(2) 0.458(3) 0.169(5)
Gd1 Gd 0.20259(11) 0.37065(13) 0.5221(2)
O1 O 0.1275(17) 0.256(2) 0.637(4)
O2 O 0.1937(17) 0.123(2) 0.651(4)
O3 O 0.1949(16) 0.232(2) 0.360(3)
O4 O 0.2353(19) 0.1305(19) 0.194(4)
O5 O 0.1432(19) 0.430(2) 0.296(4)
O6 O 0.1089(17) 0.542(2) 0.125(4)
O7 O 0.2654(18) 0.517(2) 0.564(4)
H10 H 0.2651 0.5512 0.4816
H11 H 0.2788 0.5469 0.6502
C1B C -0.133(2) 0.171(3) 0.839(5)
C2B C -0.064(2) 0.119(3) 0.793(6)
C3B C -0.063(3) 0.022(3) 0.793(7)
H1B H -0.1059 -0.0111 0.8221
C6E C 0.305(2) 0.299(3) 0.782(5)
C7E C 0.348(3) 0.249(4) 0.915(6)
H4E H 0.3539 0.2909 1.0072
H5E H 0.3168 0.1965 0.9447
C8E C 0.427(3) 0.212(3) 0.884(6)
H6E H 0.4665 0.2500 0.9427
H7E H 0.4340 0.2173 0.7706
C9E C 0.439(3) 0.110(3) 0.935(6)
H8E H 0.4254 0.1035 1.0449
H9E H 0.4927 0.0943 0.9345
C10E C 0.392(2) 0.042(3) 0.831(5)
Gd1B Gd -0.20259(11) 0.37065(13) 0.9779(2)
Gd1E Gd 0.29741(11) 0.12935(13) 0.4779(2)
Gd1F Gd 0.20259(11) 0.62935(13) 0.0221(2)
Gd1G Gd -0.29741(11) 0.12935(13) 1.0221(2)
Gd1C Gd 0.29741(11) -0.12935(13) 0.9779(2)
O1B O -0.1275(17) 0.256(2) 0.863(4)
O2B O -0.1937(17) 0.123(2) 0.849(4)
O2E O 0.3063(17) 0.377(2) 0.349(4)
O2G O -0.3063(17) 0.377(2) 1.151(4)
O3E O 0.3051(16) 0.268(2) 0.640(3)
O3G O -0.3051(16) 0.268(2) 0.860(3)
O3B O -0.1949(16) 0.232(2) 1.140(3)
O4E O 0.2647(19) 0.3695(19) 0.806(4)
O4G O -0.2647(19) 0.3695(19) 0.694(4)
O5E O 0.3568(19) 0.070(2) 0.704(4)
O5B O -0.1432(19) 0.430(2) 1.204(4)
O6E O 0.3911(17) -0.042(2) 0.875(4)
O6F O 0.1089(17) 0.458(2) 0.625(4)
O6D O -0.1089(17) 0.458(2) 0.875(4)
O7B O -0.2654(18) 0.517(2) 0.936(4)
H10B H -0.2651 0.5512 1.0184
H11B H -0.2788 0.5469 0.8498
loop_
_geom_bond_atom_site_label_1
_geom_bond_atom_site_label_2
_geom_bond_site_symmetry_1
_geom_bond_site_symmetry_2
C1 C2 1_555 1_555
C2 C3 1_555 1_555
C3 H1 1_555 1_555
C4 C3 1_555 1_555
H2 C4 1_555 1_555
C5 C2 1_555 1_555
H3 C5 1_555 1_555
C6 C7 1_555 1_555
C7 H4 1_555 1_555
H5 C7 1_555 1_555
C8 C7 1_555 1_555
H6 C8 1_555 1_555
H7 C8 1_555 1_555
C9 C8 1_555 1_555
H8 C9 1_555 1_555
H9 C9 1_555 1_555
C10 C9 1_555 1_555
Gd1 O1 1_555 1_555
O1 C1 1_555 1_555
O2 C1 1_555 1_555
O3 C6 1_555 1_555
O4 C6 1_555 1_555
O5 C10 1_555 1_555
O6 C10 1_555 1_555
O7 Gd1 1_555 1_555
H10 O7 1_555 1_555
H11 O7 1_555 1_555
C1B C2B 1_555 1_555
C2B C5 1_555 1_555
C3B C4 1_555 1_555
H1B C3B 1_555 1_555
C6E C7E 1_555 1_555
C7E H4E 1_555 1_555
H5E C7E 1_555 1_555
C8E C7E 1_555 1_555
H6E C8E 1_555 1_555
H7E C8E 1_555 1_555
C9E C8E 1_555 1_555
H8E C9E 1_555 1_555
H9E C9E 1_555 1_555
C10E C9E 1_555 1_555
Gd1B O1B 1_555 1_555
Gd1E O2 1_555 1_555
Gd1F O6 1_555 1_555
Gd1G O2B 1_555 1_555
Gd1C O6E 1_555 1_555
O1B C1B 1_555 1_555
O2B C1B 1_555 1_555
O2E Gd1 1_555 1_555
O2G Gd1B 1_555 1_555
O3E Gd1 1_555 1_555
O3G Gd1B 1_555 1_555
O3B Gd1B 1_555 1_555
O4E Gd1 1_555 1_555
O4G Gd1B 1_555 1_555
O5E C10E 1_555 1_555
O5B Gd1B 1_555 1_555
O6E C10E 1_555 1_555
O6F Gd1 1_555 1_555
O6D Gd1B 1_555 1_555
O7B Gd1B 1_555 1_555
H10B O7B 1_555 1_555
H11B O7B 1_555 1_555
Gd1 O3 1_555 1_555
Gd1 O5 1_555 1_555
O3 Gd1E 1_555 1_555
O4 Gd1E 1_555 1_555
C2B C3B 1_555 1_555
C6E O3E 1_555 1_555
C6E O4E 1_555 1_555
Gd1E O3E 1_555 1_555
Gd1E O5E 1_555 1_555
Gd1G O3G 1_555 1_555
Gd1G O3B 1_555 1_555

#END
