
#######################################################################
#
#                 Cambridge Crystallographic Data Centre
#                                CCDC 
#
#######################################################################
#
# If this CIF has been generated from an entry in the Cambridge 
# Structural Database, then it will include bibliographic, chemical, 
# crystal, experimental, refinement or atomic coordinate data resulting 
# from the CCDC's data processing and validation procedures.
#
#######################################################################

data_TIKKAA
_symmetry_cell_setting           monoclinic
_symmetry_space_group_name_H-M   'C 2/c'
_symmetry_Int_Tables_number      15
_space_group_name_Hall           '-C 2yn'
loop_
_symmetry_equiv_pos_site_id
_symmetry_equiv_pos_as_xyz
1 x,y,z
2 1/2+x,1/2+y,z
3 -x,y,1/2-z
4 1/2-x,1/2+y,1/2-z
5 -x,-y,-z
6 1/2-x,1/2-y,-z
7 x,-y,1/2+z
8 1/2+x,1/2-y,1/2+z
_cell_length_a                   7.9862(9)
_cell_length_b                   14.9936(17)
_cell_length_c                   19.864(2)
_cell_angle_alpha                90
_cell_angle_beta                 93.875(2)
_cell_angle_gamma                90
_cell_volume                     2373.12
loop_
_atom_site_label
_atom_site_type_symbol
_atom_site_fract_x
_atom_site_fract_y
_atom_site_fract_z
Sm1 Sm 0.75571(4) 0.462984(19) 0.013173(16)
C1 C 1.0000 0.3673(7) 0.2500
H1 H 1.0000 0.4293 0.2500
C2 C 0.9273(8) 0.3137(5) 0.1927(3)
C3 C 0.920(4) 0.2292(9) 0.1947(11)
H2 H 0.8599 0.2005 0.1592
C4 C 1.0000 0.1717(19) 0.2500
H3 H 1.0000 0.1097 0.2500
C5 C 0.8684(8) 0.3649(4) 0.1306(3)
C6 C 0.8851(8) 0.6362(4) 0.0564(3)
C7 C 0.9482(9) 0.7264(4) 0.0787(4)
H4 H 0.9392 0.7663 0.0401
H5 H 1.0663 0.7213 0.0931
C8 C 0.8574(9) 0.7682(4) 0.1352(4)
H6 H 0.8677 0.7293 0.1743
H7 H 0.7391 0.7734 0.1212
C9 C 0.9261(8) 0.8606(4) 0.1552(3)
H8 H 0.8800 0.8794 0.1968
H9 H 1.0472 0.8575 0.1628
C10 C 0.8806(8) 0.9275(4) 0.1005(3)
O1 O 0.8335(6) 0.3240(3) 0.0751(2)
O2 O 0.8488(6) 0.4483(3) 0.1332(2)
O3 O 0.7326(5) 0.6161(3) 0.0584(3)
O4 O 0.9865(5) 0.5807(3) 0.0333(2)
O5 O 0.9888(5) 0.9559(3) 0.0614(2)
O6 O 0.7316(6) 0.9526(4) 0.0920(3)
O7 O 0.6141(7) 0.3513(3) -0.0566(3)
H10 H 0.675(10) 0.313(5) -0.075(5)
H11 H 0.5078(15) 0.350(6) -0.059(4)
Sm1B Sm 1.24429(4) 0.462984(19) 0.486827(16)
Sm1D Sm 1.24429(4) 0.537016(19) -0.013173(16)
Sm1A Sm 1.25571(4) 0.962984(19) 0.013173(16)
Sm1E Sm 0.74429(4) 1.037016(19) -0.013173(16)
Sm1A_2 Sm 1.25571(4) -0.037016(19) 0.013173(16)
Sm1E_2 Sm 0.74429(4) 0.037016(19) -0.013173(16)
C2B C 1.0727(8) 0.3137(5) 0.3073(3)
C3B C 1.080(4) 0.2292(9) 0.3053(11)
H2B H 1.1401 0.2005 0.3408
C5B C 1.1316(8) 0.3649(4) 0.3694(3)
C6D C 1.1149(8) 0.3638(4) -0.0564(3)
C7D C 1.0518(9) 0.2736(4) -0.0787(4)
H4D H 1.0608 0.2337 -0.0401
H5D H 0.9337 0.2787 -0.0931
C8D C 1.1426(9) 0.2318(4) -0.1352(4)
H6D H 1.1323 0.2707 -0.1743
H7D H 1.2609 0.2266 -0.1212
C9D C 1.0739(8) 0.1394(4) -0.1552(3)
H8D H 1.1200 0.1206 -0.1968
H9D H 0.9528 0.1425 -0.1628
C10D C 1.1194(8) 0.0725(4) -0.1005(3)
O1B O 1.1665(6) 0.3240(3) 0.4249(2)
O1D O 1.1665(6) 0.6760(3) -0.0751(2)
O2B O 1.1512(6) 0.4483(3) 0.3668(2)
O2D O 1.1512(6) 0.5517(3) -0.1332(2)
O3D O 1.2674(5) 0.3839(3) -0.0584(3)
O4D O 1.0135(5) 0.4193(3) -0.0333(2)
O5D O 1.0112(5) 0.0441(3) -0.0614(2)
O5A O 0.4888(5) 0.4559(3) 0.0614(2)
O5E O 0.5112(5) 0.5441(3) -0.0614(2)
O5A_2 O 1.4888(5) 0.4559(3) 0.0614(2)
O5E_2 O 1.5112(5) 0.5441(3) -0.0614(2)
O6D O 1.2684(6) 0.0474(4) -0.0920(3)
O6E O 0.7684(6) 0.5474(4) -0.0920(3)
O6A O 1.2316(6) 0.4526(4) 0.0920(3)
O7D O 1.3859(7) 0.6487(3) 0.0566(3)
H10D H 1.325(10) 0.687(5) 0.075(5)
H11D H 1.4922(15) 0.650(6) 0.059(4)
O8 O 0.107(2) 0.5909(7) 0.1998(6)
O9 O 0.127(3) 0.0720(15) 0.2144(12)
loop_
_geom_bond_atom_site_label_1
_geom_bond_atom_site_label_2
_geom_bond_site_symmetry_1
_geom_bond_site_symmetry_2
Sm1 O1 1_555 1_555
C1 H1 1_555 1_555
C2 C1 1_555 1_555
C3 C2 1_555 1_555
H2 C3 1_555 1_555
C4 C3 1_555 1_555
H3 C4 1_555 1_555
C5 C2 1_555 1_555
C6 C7 1_555 1_555
C7 H4 1_555 1_555
H5 C7 1_555 1_555
C8 C7 1_555 1_555
H6 C8 1_555 1_555
H7 C8 1_555 1_555
C9 C8 1_555 1_555
H8 C9 1_555 1_555
H9 C9 1_555 1_555
C10 C9 1_555 1_555
O1 C5 1_555 1_555
O2 Sm1 1_555 1_555
O3 Sm1 1_555 1_555
O4 Sm1 1_555 1_555
O5 C10 1_555 1_555
O6 C10 1_555 1_555
O7 Sm1 1_555 1_555
H10 O7 1_555 1_555
H11 O7 1_555 1_555
Sm1B O1B 1_555 1_555
Sm1D O4 1_555 1_555
Sm1A O5 1_555 1_555
Sm1E O5 1_555 1_555
Sm1A_2 O5D 1_555 1_555
Sm1E_2 O5D 1_555 1_555
C2B C1 1_555 1_555
C3B C4 1_555 1_555
H2B C3B 1_555 1_555
C5B C2B 1_555 1_555
C6D C7D 1_555 1_555
C7D H4D 1_555 1_555
H5D C7D 1_555 1_555
C8D C7D 1_555 1_555
H6D C8D 1_555 1_555
H7D C8D 1_555 1_555
C9D C8D 1_555 1_555
H8D C9D 1_555 1_555
H9D C9D 1_555 1_555
C10D C9D 1_555 1_555
O1B C5B 1_555 1_555
O1D Sm1D 1_555 1_555
O2B Sm1B 1_555 1_555
O2D Sm1D 1_555 1_555
O3D Sm1D 1_555 1_555
O4D Sm1 1_555 1_555
O5D C10D 1_555 1_555
O5A Sm1 1_555 1_555
O5E Sm1 1_555 1_555
O5A_2 Sm1D 1_555 1_555
O5E_2 Sm1D 1_555 1_555
O6D Sm1A_2 1_555 1_555
O6E Sm1 1_555 1_555
O6A Sm1D 1_555 1_555
O7D Sm1D 1_555 1_555
H10D O7D 1_555 1_555
H11D O7D 1_555 1_555
C5 O2 1_555 1_555
C6 O3 1_555 1_555
C6 O4 1_555 1_555
O6 Sm1E 1_555 1_555
Sm1D O4D 1_555 1_555
C2B C3B 1_555 1_555
C5B O2B 1_555 1_555
C6D O3D 1_555 1_555
C6D O4D 1_555 1_555
C10D O6D 1_555 1_555

#END
