
#######################################################################
#
#                 Cambridge Crystallographic Data Centre
#                                CCDC 
#
#######################################################################
#
# If this CIF has been generated from an entry in the Cambridge 
# Structural Database, then it will include bibliographic, chemical, 
# crystal, experimental, refinement or atomic coordinate data resulting 
# from the CCDC's data processing and validation procedures.
#
#######################################################################

data_TIKKEE
_symmetry_cell_setting           triclinic
_symmetry_space_group_name_H-M   'P -1'
_symmetry_Int_Tables_number      2
_space_group_name_Hall           '-P 1'
loop_
_symmetry_equiv_pos_site_id
_symmetry_equiv_pos_as_xyz
1 x,y,z
2 -x,-y,-z
_cell_length_a                   6.7577(14)
_cell_length_b                   10.003(2)
_cell_length_c                   10.490(2)
_cell_angle_alpha                92.79(3)
_cell_angle_beta                 107.95(3)
_cell_angle_gamma                108.78(3)
_cell_volume                     629.999
loop_
_atom_site_label
_atom_site_type_symbol
_atom_site_fract_x
_atom_site_fract_y
_atom_site_fract_z
Er1 Er 0.75903(2) 0.584661(12) 0.420349(13)
C1 C 0.8194(8) 0.8717(4) 0.2650(4)
C2 C 0.7537(6) 0.8950(3) 0.1199(3)
C3 C 0.6354(7) 0.7759(3) 0.0180(4)
H1 H 0.5948 0.6847 0.0407
C4 C 0.5780(6) 0.7931(3) -0.1177(4)
C5 C 0.6359(7) 0.9295(4) -0.1513(4)
H2 H 0.5984 0.9416 -0.2419
C6 C 0.7506(7) 1.0485(4) -0.0485(4)
H3 H 0.7866 1.1398 -0.0712
C7 C 0.8109(7) 1.0327(3) 0.0855(4)
H4 H 0.8892 1.1127 0.1532
C8 C 0.4581(6) 0.6627(3) -0.2231(4)
C9 C 0.8130(6) 0.4615(3) 0.6750(3)
C10 C 0.8626(6) 0.4087(4) 0.8093(3)
H5 H 0.9591 0.3542 0.8122
H6 H 0.7247 0.3445 0.8154
C11 C 0.9736(7) 0.5284(4) 0.9326(3)
H7 H 0.8761 0.5817 0.9313
H8 H 1.1105 0.5938 0.9261
H9 H 0.662(6) 0.741(5) 0.610(5)
H10 H 1.190(7) 0.758(5) 0.562(3)
H11 H 0.723(10) 0.809(6) 0.520(5)
H12 H 1.112(8) 0.855(2) 0.482(5)
O1 O 0.7260(5) 0.7480(2) 0.2864(3)
O2 O 0.9696(9) 0.9685(3) 0.3544(3)
O3 O 0.4090(4) 0.5407(2) -0.1908(2)
O4 O 0.4068(4) 0.6753(2) -0.3497(2)
O5 O 0.6261(4) 0.4691(2) 0.6141(2)
O6 O 0.9640(4) 0.5037(2) 0.6213(2)
O7 O 0.7673(6) 0.7583(3) 0.5778(4)
O8 O 1.1097(5) 0.7706(3) 0.4871(3)
Er1A Er 0.24097(2) 0.415339(12) -0.420349(13)
Er1A_2 Er 0.24097(2) 0.415339(12) 0.579651(13)
Er1A_3 Er 1.24097(2) 0.415339(12) 0.579651(13)
Er1_2 Er 1.75903(2) 0.584661(12) 1.420349(13)
Er1A_4 Er 1.24097(2) 0.415339(12) 1.579651(13)
Er1_3 Er 0.75903(2) 0.584661(12) 1.420349(13)
C1A C 0.1806(8) 0.1283(4) -0.2650(4)
C2A C 0.2463(6) 0.1050(3) -0.1199(3)
C3A C 0.3646(7) 0.2241(3) -0.0180(4)
H1A H 0.4052 0.3153 -0.0407
C4A C 0.4220(6) 0.2069(3) 0.1177(4)
C5A C 0.3641(7) 0.0705(4) 0.1513(4)
H2A H 0.4016 0.0584 0.2419
C6A C 0.2494(7) -0.0485(4) 0.0485(4)
H3A H 0.2134 -0.1398 0.0712
C7A C 0.1891(7) -0.0327(3) -0.0855(4)
H4A H 0.1108 -0.1127 -0.1532
C8A C 0.5419(6) 0.3373(3) 0.2231(4)
C9A C 1.1870(6) 0.5385(3) 1.3250(3)
C10A C 1.1374(6) 0.5913(4) 1.1907(3)
H5A H 1.0409 0.6458 1.1878
H6A H 1.2753 0.6555 1.1846
C11A C 1.0264(7) 0.4716(4) 1.0674(3)
H7A H 1.1239 0.4183 1.0687
H8A H 0.8895 0.4062 1.0739
H9A H 0.338(6) 0.259(5) -0.610(5)
H10A H -0.190(7) 0.242(5) -0.562(3)
H11A H 0.277(10) 0.191(6) -0.520(5)
H12A H -0.112(8) 0.145(2) -0.482(5)
O1A O 0.2740(5) 0.2520(2) -0.2864(3)
O2A O 0.0304(9) 0.0315(3) -0.3544(3)
O3A O 0.5910(4) 0.4593(2) 0.1908(2)
O4A O 0.5932(4) 0.3247(2) 0.3497(2)
O5A O 1.3739(4) 0.5309(2) 1.3859(2)
O5A_2 O 0.3739(4) 0.5309(2) 0.3859(2)
O5_2 O 0.6261(4) 0.4691(2) -0.3859(2)
O5A_3 O 0.3739(4) 0.5309(2) -0.6141(2)
O6A O 1.0360(4) 0.4963(2) 1.3787(2)
O6A_2 O 1.0360(4) 0.4963(2) 0.3787(2)
O6_2 O -0.0360(4) 0.5037(2) -0.3787(2)
O6A_3 O 0.0360(4) 0.4963(2) -0.6213(2)
O7A O 0.2327(6) 0.2417(3) -0.5778(4)
O8A O -0.1097(5) 0.2294(3) -0.4871(3)
loop_
_geom_bond_atom_site_label_1
_geom_bond_atom_site_label_2
_geom_bond_site_symmetry_1
_geom_bond_site_symmetry_2
Er1 O1 1_555 1_555
C1 C2 1_555 1_555
C2 C3 1_555 1_555
C3 H1 1_555 1_555
C4 C3 1_555 1_555
C5 C4 1_555 1_555
H2 C5 1_555 1_555
C6 C5 1_555 1_555
H3 C6 1_555 1_555
C7 C2 1_555 1_555
H4 C7 1_555 1_555
C8 C4 1_555 1_555
C9 C10 1_555 1_555
C10 H5 1_555 1_555
H6 C10 1_555 1_555
C11 C10 1_555 1_555
H7 C11 1_555 1_555
H8 C11 1_555 1_555
H9 O7 1_555 1_555
H10 O8 1_555 1_555
H11 O7 1_555 1_555
H12 O8 1_555 1_555
O1 C1 1_555 1_555
O2 C1 1_555 1_555
O3 C8 1_555 1_555
O4 C8 1_555 1_555
O5 Er1 1_555 1_555
O6 Er1 1_555 1_555
O7 Er1 1_555 1_555
O8 Er1 1_555 1_555
Er1A O3 1_555 1_555
Er1A_2 O5 1_555 1_555
Er1A_3 O6 1_555 1_555
Er1_2 O5A 1_555 1_555
Er1A_4 O5A 1_555 1_555
Er1_3 O6A 1_555 1_555
C1A C2A 1_555 1_555
C2A C3A 1_555 1_555
C3A H1A 1_555 1_555
C4A C3A 1_555 1_555
C5A C4A 1_555 1_555
H2A C5A 1_555 1_555
C6A C5A 1_555 1_555
H3A C6A 1_555 1_555
C7A C2A 1_555 1_555
H4A C7A 1_555 1_555
C8A C4A 1_555 1_555
C9A C10A 1_555 1_555
C10A H5A 1_555 1_555
H6A C10A 1_555 1_555
C11A C11 1_555 1_555
H7A C11A 1_555 1_555
H8A C11A 1_555 1_555
H9A O7A 1_555 1_555
H10A O8A 1_555 1_555
H11A O7A 1_555 1_555
H12A O8A 1_555 1_555
O1A Er1A 1_555 1_555
O2A C1A 1_555 1_555
O3A Er1 1_555 1_555
O4A Er1 1_555 1_555
O5A C9A 1_555 1_555
O5A_2 Er1 1_555 1_555
O5_2 Er1A 1_555 1_555
O5A_3 Er1A 1_555 1_555
O6A Er1A_4 1_555 1_555
O6A_2 Er1 1_555 1_555
O6_2 Er1A 1_555 1_555
O6A_3 Er1A 1_555 1_555
O7A Er1A 1_555 1_555
O8A Er1A 1_555 1_555
C6 C7 1_555 1_555
C9 O5 1_555 1_555
C9 O6 1_555 1_555
O4 Er1A 1_555 1_555
Er1A_2 O5A_2 1_555 1_555
Er1A_3 O6A_2 1_555 1_555
C1A O1A 1_555 1_555
C6A C7A 1_555 1_555
C8A O3A 1_555 1_555
C8A O4A 1_555 1_555
C9A O6A 1_555 1_555
C10A C11A 1_555 1_555

#END
