
#######################################################################
#
#                 Cambridge Crystallographic Data Centre
#                                CCDC 
#
#######################################################################
#
# If this CIF has been generated from an entry in the Cambridge 
# Structural Database, then it will include bibliographic, chemical, 
# crystal, experimental, refinement or atomic coordinate data resulting 
# from the CCDC's data processing and validation procedures.
#
#######################################################################

data_TIKKII
_symmetry_cell_setting           triclinic
_symmetry_space_group_name_H-M   'P -1'
_symmetry_Int_Tables_number      2
_space_group_name_Hall           '-P 1'
loop_
_symmetry_equiv_pos_site_id
_symmetry_equiv_pos_as_xyz
1 x,y,z
2 -x,-y,-z
_cell_length_a                   9.5593(19)
_cell_length_b                   12.298(3)
_cell_length_c                   15.836(3)
_cell_angle_alpha                71.08(3)
_cell_angle_beta                 84.47(3)
_cell_angle_gamma                70.51(3)
_cell_volume                     1660.04
loop_
_atom_site_label
_atom_site_type_symbol
_atom_site_fract_x
_atom_site_fract_y
_atom_site_fract_z
C1 C 1.2374(11) 0.9159(13) 0.3898(7)
H1 H 1.3071 0.8455 0.3768
H2 H 1.2341 0.9862 0.3385
C2 C 1.2954(9) 0.9308(8) 0.4676(5)
O1 O 1.2302(7) 0.9133(6) 0.5421(4)
O2 O 1.4097(7) 0.9612(6) 0.4596(4)
La1 La 0.88236(5) 0.98402(5) 0.13036(3)
La2 La 1.38240(5) 0.98400(5) 0.63036(3)
O3 O 1.3753(8) 0.7689(7) 0.7257(5)
O4 O 1.5491(7) 0.7726(6) 0.6223(4)
O5 O 1.3103(12) 0.3693(9) 0.9029(7)
O6 O 1.4427(9) 0.2066(8) 0.8642(6)
H3 H 1.3928 0.1731 0.9021
O7 O 1.0491(8) 0.7719(6) 0.1230(4)
O8 O 0.8749(8) 0.7680(7) 0.2249(4)
O9 O 0.8097(12) 0.3678(9) 0.4030(6)
O10 O 0.9409(10) 0.2071(8) 0.3635(6)
H4 H 0.8907 0.1742 0.4015
O11 O 0.6286(6) 1.0417(6) 0.1911(4)
O12 O 0.4111(7) 1.0927(6) 0.2517(4)
O13 O 0.0909(7) 1.0380(6) 0.0409(4)
O14 O 0.2699(7) 1.0861(6) -0.0420(4)
O15 O 0.8714(6) 0.9579(6) 0.3085(4)
O16 O 1.0897(6) 0.9075(6) 0.2477(4)
O17 O 0.7404(8) 1.1795(7) 0.0048(4)
O18 O 0.8801(10) 1.1775(8) 0.1668(5)
O19 O 1.3801(10) 1.1770(8) 0.6677(5)
O20 O 1.2395(8) 1.1809(7) 0.5048(5)
C3 C 0.2072(10) 1.0699(9) 0.0315(6)
C4 C 0.4900(10) 1.0757(8) 0.1859(5)
C5 C 1.0149(9) 0.9224(8) 0.3133(6)
C6 C 1.0264(11) 0.5804(10) 0.2050(6)
C7 C 1.5274(12) 0.5783(10) 0.7062(8)
C8 C 1.0855(10) 0.9008(9) 0.4006(5)
H5 H 1.0940 0.8193 0.4388
H6 H 1.0215 0.9572 0.4299
C9 C 0.4164(8) 1.1008(10) 0.0996(6)
H7 H 0.4800 1.0475 0.0679
H8 H 0.4053 1.1837 0.0633
C10 C 1.6909(11) 0.3927(10) 0.6877(8)
H9 H 1.7721 0.3522 0.6597
C11 C 1.1910(14) 0.3916(12) 0.1863(9)
H10 H 1.2716 0.3508 0.1581
C12 C 1.1480(13) 0.5181(11) 0.1639(7)
H11 H 1.2007 0.5609 0.1215
C13 C 0.9802(10) 0.7138(9) 0.1837(7)
C14 C 1.6482(12) 0.5183(10) 0.6649(8)
H12 H 1.7005 0.5614 0.6224
C15 C 0.2677(12) 1.0834(13) 0.1108(7)
H13 H 0.1973 1.1523 0.1254
H14 H 0.2734 1.0117 0.1613
C16 C 1.4797(11) 0.7164(9) 0.6846(6)
C17 C 0.9039(12) 0.3208(11) 0.3583(6)
C18 C 1.4049(12) 0.3207(11) 0.8597(8)
C19 C 1.1152(12) 0.3276(11) 0.2493(7)
H15 H 1.1465 0.2434 0.2650
C20 C 1.6146(12) 0.3258(10) 0.7515(7)
H16 H 1.6447 0.2416 0.7671
C21 C 0.9479(12) 0.5143(10) 0.2690(7)
H17 H 0.8672 0.5550 0.2971
C22 C 0.9900(12) 0.3883(9) 0.2907(6)
C23 C 1.4924(11) 0.3887(10) 0.7911(7)
C24 C 1.4482(11) 0.5147(9) 0.7687(6)
H18 H 1.3659 0.5558 0.7956
H19 H 0.873(8) 1.250(3) 0.136(4)
H20 H 1.327(18) 1.235(10) 0.626(8)
H21 H 0.877(14) 1.179(10) 0.220(3)
H22 H 1.387(18) 1.210(13) 0.706(8)
O2A O 1.5903(7) 1.0388(6) 0.5404(4)
La1_2 La -0.11764(5) 0.98402(5) 0.13036(3)
La1A La 0.11764(5) 1.01598(5) -0.13036(3)
La2A La 1.61760(5) 1.01600(5) 0.36964(3)
La2A_2 La 0.61760(5) 1.01600(5) 0.36964(3)
O11A O 1.3714(6) 0.9583(6) 0.8089(4)
O12A O 1.5889(7) 0.9073(6) 0.7483(4)
O13_2 O 1.0909(7) 1.0380(6) 0.0409(4)
O13A O 0.9091(7) 0.9620(6) -0.0409(4)
O14A O 0.7301(7) 0.9139(6) 0.0420(4)
O15A O 1.1286(6) 1.0421(6) 0.6915(4)
O21 O 0.878(2) 0.4144(16) 0.0602(10)
O22 O 0.374(2) 0.4138(13) 0.5626(9)
O23 O 0.0453(17) 0.3605(15) 0.5682(11)
O24 O 0.5490(17) 0.3661(15) 0.0636(12)
loop_
_geom_bond_atom_site_label_1
_geom_bond_atom_site_label_2
_geom_bond_site_symmetry_1
_geom_bond_site_symmetry_2
C1 H1 1_555 1_555
H2 C1 1_555 1_555
C2 C1 1_555 1_555
O1 C2 1_555 1_555
O2 C2 1_555 1_555
La1 O7 1_555 1_555
La2 O1 1_555 1_555
O3 La2 1_555 1_555
O4 La2 1_555 1_555
O5 C18 1_555 1_555
O6 H3 1_555 1_555
O7 C13 1_555 1_555
O8 La1 1_555 1_555
O9 C17 1_555 1_555
O10 H4 1_555 1_555
O11 La1 1_555 1_555
O12 C4 1_555 1_555
O13 C3 1_555 1_555
O14 C3 1_555 1_555
O15 La1 1_555 1_555
O16 La1 1_555 1_555
O17 La1 1_555 1_555
O18 La1 1_555 1_555
O19 La2 1_555 1_555
O20 La2 1_555 1_555
C3 C15 1_555 1_555
C4 O11 1_555 1_555
C5 O15 1_555 1_555
C6 C12 1_555 1_555
C7 C14 1_555 1_555
C8 C1 1_555 1_555
H5 C8 1_555 1_555
H6 C8 1_555 1_555
C9 C4 1_555 1_555
H7 C9 1_555 1_555
H8 C9 1_555 1_555
C10 H9 1_555 1_555
C11 H10 1_555 1_555
C12 C11 1_555 1_555
H11 C12 1_555 1_555
C13 O8 1_555 1_555
C14 C10 1_555 1_555
H12 C14 1_555 1_555
C15 C9 1_555 1_555
H13 C15 1_555 1_555
H14 C15 1_555 1_555
C16 O3 1_555 1_555
C17 O10 1_555 1_555
C18 O6 1_555 1_555
C19 C11 1_555 1_555
H15 C19 1_555 1_555
C20 C10 1_555 1_555
H16 C20 1_555 1_555
C21 C6 1_555 1_555
H17 C21 1_555 1_555
C22 C17 1_555 1_555
C23 C18 1_555 1_555
C24 C7 1_555 1_555
H18 C24 1_555 1_555
H19 O18 1_555 1_555
H20 O19 1_555 1_555
H21 O18 1_555 1_555
H22 O19 1_555 1_555
O2A La2 1_555 1_555
La1_2 O13 1_555 1_555
La1A O13 1_555 1_555
La2A O2 1_555 1_555
La2A_2 O11 1_555 1_555
O11A La2 1_555 1_555
O12A La2 1_555 1_555
O13_2 La1 1_555 1_555
O13A La1 1_555 1_555
O14A La1 1_555 1_555
O15A La2 1_555 1_555
O2 La2 1_555 1_555
O4 C16 1_555 1_555
O12 La2A_2 1_555 1_555
O14 La1A 1_555 1_555
O15 La2A_2 1_555 1_555
O16 C5 1_555 1_555
C5 C8 1_555 1_555
C6 C13 1_555 1_555
C7 C16 1_555 1_555
C19 C22 1_555 1_555
C20 C23 1_555 1_555
C21 C22 1_555 1_555
C23 C24 1_555 1_555
O2A La2A 1_555 1_555

#END
