
#######################################################################
#
#                 Cambridge Crystallographic Data Centre
#                                CCDC 
#
#######################################################################
#
# If this CIF has been generated from an entry in the Cambridge 
# Structural Database, then it will include bibliographic, chemical, 
# crystal, experimental, refinement or atomic coordinate data resulting 
# from the CCDC's data processing and validation procedures.
#
#######################################################################

data_TIKKIJ
_symmetry_cell_setting           monoclinic
_symmetry_space_group_name_H-M   'C 2/c'
_symmetry_Int_Tables_number      15
_space_group_name_Hall           '-C 2yn'
loop_
_symmetry_equiv_pos_site_id
_symmetry_equiv_pos_as_xyz
1 x,y,z
2 -x,y,1/2-z
3 1/2+x,1/2+y,z
4 1/2-x,1/2+y,1/2-z
5 -x,-y,-z
6 x,-y,1/2+z
7 1/2-x,1/2-y,-z
8 1/2+x,1/2-y,1/2+z
_cell_length_a                   25.1612(11)
_cell_length_b                   8.0468(4)
_cell_length_c                   9.0563(4)
_cell_angle_alpha                90
_cell_angle_beta                 93.4380(10)
_cell_angle_gamma                90
_cell_volume                     1830.3
loop_
_atom_site_label
_atom_site_type_symbol
_atom_site_fract_x
_atom_site_fract_y
_atom_site_fract_z
Pb1 Pb 0.5000 0.19032(3) 0.7500
O1 O 0.5000 0.4977(9) 0.7500
N1 N 0.4079(2) 0.2871(7) 0.6311(7)
O2 O 0.4623(4) 0.2964(7) 1.0025(9)
N2 N 0.4484(3) 0.1699(7) 1.0589(7)
N3 N 0.3343(3) 0.3282(7) 0.4821(7)
N4 N 0.32634(18) 0.3763(7) 0.6238(5)
C1 C 0.3007(2) 0.7268(9) 0.5653(7)
C2 C 0.2624(2) 0.6032(7) 0.5771(6)
C3 C 0.2881(2) 0.8723(9) 0.4880(7)
H1 H 0.3140 0.9539 0.4800
O3 O 0.4367(3) 0.1493(10) 1.1842(7)
C4 C 0.3840(3) 0.2751(10) 0.4934(8)
C5 C 0.3701(3) 0.3525(10) 0.7090(7)
O4 O 0.4436(6) 0.0604(13) 0.9751(11)
C6 C 0.2750(2) 0.4462(8) 0.6615(6)
H2 H 0.2760 0.4694 0.7667
H3 H 0.2471 0.3652 0.6393
H4 H 0.373(3) 0.382(11) 0.806(9)
H5 H 0.336(4) 0.699(7) 0.615(11)
H6 H 0.400(4) 0.207(10) 0.419(13)
N1F N 0.0921(2) 1.2129(7) 0.3689(7)
N3F N 0.1657(3) 1.1718(7) 0.5179(7)
N4F N 0.17366(18) 1.1237(7) 0.3762(5)
C1F C 0.1993(2) 0.7732(9) 0.4347(7)
C2F C 0.2376(2) 0.8968(7) 0.4229(6)
C3F C 0.2119(2) 0.6277(9) 0.5120(7)
H1F H 0.1860 0.5461 0.5200
C4F C 0.1160(3) 1.2249(10) 0.5066(8)
C5F C 0.1299(3) 1.1475(10) 0.2910(7)
C6F C 0.2250(2) 1.0538(8) 0.3385(6)
H2F H 0.2240 1.0306 0.2333
H3F H 0.2529 1.1348 0.3607
H4F H 0.127(3) 1.118(11) 0.194(9)
H5F H 0.164(4) 0.801(7) 0.385(11)
H6F H 0.100(4) 1.293(10) 0.581(13)
O2A O 0.5377(4) 0.2964(7) 0.4975(9)
N2A N 0.5516(3) 0.1699(7) 0.4411(7)
O3A O 0.5633(3) 0.1493(10) 0.3158(7)
O4A O 0.5564(6) 0.0604(13) 0.5249(11)
Pb1F Pb 0.0000 1.30968(3) 0.2500
N1A N 0.5921(2) 0.2871(7) 0.8689(7)
loop_
_geom_bond_atom_site_label_1
_geom_bond_atom_site_label_2
_geom_bond_site_symmetry_1
_geom_bond_site_symmetry_2
Pb1 O1 1_555 1_555
N1 Pb1 1_555 1_555
O2 Pb1 1_555 1_555
N2 O2 1_555 1_555
N3 N4 1_555 1_555
N4 C5 1_555 1_555
C1 C2 1_555 1_555
C2 C6 1_555 1_555
C3 C1 1_555 1_555
H1 C3 1_555 1_555
O3 N2 1_555 1_555
C4 N1 1_555 1_555
C5 N1 1_555 1_555
O4 Pb1 1_555 1_555
C6 N4 1_555 1_555
H2 C6 1_555 1_555
H3 C6 1_555 1_555
H4 C5 1_555 1_555
H5 C1 1_555 1_555
H6 C4 1_555 1_555
N1F C4F 1_555 1_555
N3F N4F 1_555 1_555
N4F C5F 1_555 1_555
C1F C2F 1_555 1_555
C2F C3 1_555 1_555
C3F C2 1_555 1_555
H1F C3F 1_555 1_555
C4F N3F 1_555 1_555
C5F N1F 1_555 1_555
C6F N4F 1_555 1_555
H2F C6F 1_555 1_555
H3F C6F 1_555 1_555
H4F C5F 1_555 1_555
H5F C1F 1_555 1_555
H6F C4F 1_555 1_555
O2A Pb1 1_555 1_555
N2A O2A 1_555 1_555
O3A N2A 1_555 1_555
O4A Pb1 1_555 1_555
Pb1F N1F 1_555 1_555
N1A Pb1 1_555 1_555
N2 O4 1_555 1_555
N3 C4 1_555 1_555
C1F C3F 1_555 1_555
C2F C6F 1_555 1_555
N2A O4A 1_555 1_555

#END
