
#######################################################################
#
#                 Cambridge Crystallographic Data Centre
#                                CCDC 
#
#######################################################################
#
# If this CIF has been generated from an entry in the Cambridge 
# Structural Database, then it will include bibliographic, chemical, 
# crystal, experimental, refinement or atomic coordinate data resulting 
# from the CCDC's data processing and validation procedures.
#
#######################################################################

data_TIKLIJ
_symmetry_cell_setting           monoclinic
_symmetry_space_group_name_H-M   'P 21/c'
_symmetry_Int_Tables_number      14
_space_group_name_Hall           '-P 2ybc'
loop_
_symmetry_equiv_pos_site_id
_symmetry_equiv_pos_as_xyz
1 x,y,z
2 -x,1/2+y,1/2-z
3 -x,-y,-z
4 x,1/2-y,1/2+z
_cell_length_a                   5.6880(16)
_cell_length_b                   17.917(5)
_cell_length_c                   20.904(6)
_cell_angle_alpha                90
_cell_angle_beta                 92.959(5)
_cell_angle_gamma                90
_cell_volume                     2127.53
loop_
_atom_site_label
_atom_site_type_symbol
_atom_site_fract_x
_atom_site_fract_y
_atom_site_fract_z
Cu1 Cu -0.20905(7) -0.09648(2) -0.113330(18)
Cu2 Cu 0.0000 0.0000 0.0000
O1 O -0.2235(4) -0.01666(14) -0.17614(11)
O2 O -0.2830(4) -0.02859(12) -0.04652(10)
H1 H -0.3783 -0.0504 -0.0227
N1 N -0.0518(5) -0.07769(15) 0.06668(13)
O3 O -0.1896(4) -0.18271(13) -0.05798(12)
O4 O 0.1831(4) -0.08630(13) -0.09057(13)
H2 H 0.2358 -0.1256 -0.0721
H3 H 0.2565 -0.0793 -0.1244
N2 N -0.1825(5) -0.33297(16) 0.31346(14)
C1 C 0.0907(6) -0.1788(2) 0.12845(17)
H4 H 0.2129 -0.2141 0.1372
C2 C 0.1141(6) -0.1263(2) 0.08273(17)
H5 H 0.2571 -0.1244 0.0612
C3 C -0.2461(6) -0.08034(19) 0.09766(17)
H6 H -0.3678 -0.0458 0.0864
C4 C -0.1093(6) -0.18111(19) 0.16212(16)
O5 O -0.5870(5) -0.05173(16) -0.19910(13)
C5 C -0.3011(7) -0.2239(2) 0.25950(18)
H7 H -0.4023 -0.1817 0.2573
C6 C -0.2830(7) -0.2787(2) 0.00994(17)
C7 C -0.1369(6) -0.2342(2) 0.21371(16)
C8 C -0.3468(7) -0.2098(2) -0.02609(17)
O6 O -0.5407(6) -0.1838(2) -0.02224(18)
C9 C -0.2190(7) 0.0722(2) -0.28304(18)
H8 H -0.0858 0.0733 -0.2537
C10 C -0.4094(6) -0.0167(2) -0.21043(16)
C11 C -0.3167(7) -0.2737(2) 0.30689(18)
H9 H -0.4317 -0.2655 0.3375
C12 C -0.4089(6) 0.0288(2) -0.26996(16)
C13 C -0.0019(7) -0.2966(2) 0.22079(18)
H10 H 0.1135 -0.3069 0.1907
C14 C -0.0294(7) -0.3442(2) 0.26998(18)
H11 H 0.0665 -0.3876 0.2731
C15 C -0.2816(6) -0.1300(2) 0.14502(16)
H12 H -0.4250 -0.1295 0.1664
C16 C -0.5976(7) 0.0272(2) -0.31356(19)
H13 H -0.7308 -0.0027 -0.3056
C17 C -0.0777(7) -0.3146(2) 0.0015(2)
H14 H 0.0317 -0.2944 -0.0266
C18 C -0.2189(8) 0.1136(3) -0.3374(2)
H15 H -0.0871 0.1442 -0.3455
C19 C -0.4374(8) -0.3079(3) 0.0517(2)
H16 H -0.5822 -0.2834 0.0584
C20 C -0.5942(9) 0.0686(3) -0.3684(2)
H17 H -0.7252 0.0671 -0.3984
C21 C -0.0271(9) -0.3797(3) 0.0334(3)
H18 H 0.1166 -0.4049 0.0267
C22 C -0.4060(9) 0.1116(3) -0.3803(2)
H19 H -0.4049 0.1403 -0.4185
C23 C -0.1785(11) -0.4085(3) 0.0742(3)
H20 H -0.1428 -0.4539 0.0962
C24 C -0.3815(10) -0.3722(3) 0.0836(3)
H21 H -0.4875 -0.3919 0.1129
Cu1B Cu 0.20905(7) 0.09648(2) 0.113330(18)
Cu1C Cu -0.20905(7) -0.40352(2) 0.386670(18)
Cu1A Cu 0.20905(7) 0.40352(2) -0.386670(18)
O1B O 0.2235(4) 0.01666(14) 0.17614(11)
O2B O 0.2830(4) 0.02859(12) 0.04652(10)
H1B H 0.3783 0.0504 0.0227
N1B N 0.0518(5) 0.07769(15) -0.06668(13)
O3B O 0.1896(4) 0.18271(13) 0.05798(12)
O4B O -0.1831(4) 0.08630(13) 0.09057(13)
H2B H -0.2358 0.1256 0.0721
H3B H -0.2565 0.0793 0.1244
N2B N 0.1825(5) 0.33297(16) -0.31346(14)
N2C N -0.1825(5) -0.16703(16) -0.18654(14)
N2A N 0.1825(5) 0.16703(16) 0.18654(14)
C1B C -0.0907(6) 0.1788(2) -0.12845(17)
H4B H -0.2129 0.2141 -0.1372
C2B C -0.1141(6) 0.1263(2) -0.08273(17)
H5B H -0.2571 0.1244 -0.0612
C3B C 0.2461(6) 0.08034(19) -0.09766(17)
H6B H 0.3678 0.0458 -0.0864
C4B C 0.1093(6) 0.18111(19) -0.16212(16)
O5B O 0.5870(5) 0.05173(16) 0.19910(13)
C5B C 0.3011(7) 0.2239(2) -0.25950(18)
H7B H 0.4023 0.1817 -0.2573
C6B C 0.2830(7) 0.2787(2) -0.00994(17)
C7B C 0.1369(6) 0.2342(2) -0.21371(16)
C8B C 0.3468(7) 0.2098(2) 0.02609(17)
O6B O 0.5407(6) 0.1838(2) 0.02224(18)
C9B C 0.2190(7) -0.0722(2) 0.28304(18)
H8B H 0.0858 -0.0733 0.2537
C10B C 0.4094(6) 0.0167(2) 0.21043(16)
C11B C 0.3167(7) 0.2737(2) -0.30689(18)
H9B H 0.4317 0.2655 -0.3375
C12B C 0.4089(6) -0.0288(2) 0.26996(16)
C13B C 0.0019(7) 0.2966(2) -0.22079(18)
H10B H -0.1135 0.3069 -0.1907
C14B C 0.0294(7) 0.3442(2) -0.26998(18)
H11B H -0.0665 0.3876 -0.2731
C15B C 0.2816(6) 0.1300(2) -0.14502(16)
H12B H 0.4250 0.1295 -0.1664
C16B C 0.5976(7) -0.0272(2) 0.31356(19)
H13B H 0.7308 0.0027 0.3056
C17B C 0.0777(7) 0.3146(2) -0.0015(2)
H14B H -0.0317 0.2944 0.0266
C18B C 0.2189(8) -0.1136(3) 0.3374(2)
H15B H 0.0871 -0.1442 0.3455
C19B C 0.4374(8) 0.3079(3) -0.0517(2)
H16B H 0.5822 0.2834 -0.0584
C20B C 0.5942(9) -0.0686(3) 0.3684(2)
H17B H 0.7252 -0.0671 0.3984
C21B C 0.0271(9) 0.3797(3) -0.0334(3)
H18B H -0.1166 0.4049 -0.0267
C22B C 0.4060(9) -0.1116(3) 0.3803(2)
H19B H 0.4049 -0.1403 0.4185
C23B C 0.1785(11) 0.4085(3) -0.0742(3)
H20B H 0.1428 0.4539 -0.0962
C24B C 0.3815(10) 0.3722(3) -0.0836(3)
H21B H 0.4875 0.3919 -0.1129
loop_
_geom_bond_atom_site_label_1
_geom_bond_atom_site_label_2
_geom_bond_site_symmetry_1
_geom_bond_site_symmetry_2
Cu1 O1 1_555 1_555
Cu2 O2 1_555 1_555
O1 C10 1_555 1_555
O2 Cu1 1_555 1_555
H1 O2 1_555 1_555
N1 Cu2 1_555 1_555
O3 Cu1 1_555 1_555
O4 Cu1 1_555 1_555
H2 O4 1_555 1_555
H3 O4 1_555 1_555
N2 C11 1_555 1_555
C1 H4 1_555 1_555
C2 N1 1_555 1_555
H5 C2 1_555 1_555
C3 N1 1_555 1_555
H6 C3 1_555 1_555
C4 C1 1_555 1_555
O5 C10 1_555 1_555
C5 H7 1_555 1_555
C6 C8 1_555 1_555
C7 C4 1_555 1_555
C8 O3 1_555 1_555
O6 C8 1_555 1_555
C9 H8 1_555 1_555
C10 C12 1_555 1_555
C11 C5 1_555 1_555
H9 C11 1_555 1_555
C12 C9 1_555 1_555
C13 C7 1_555 1_555
H10 C13 1_555 1_555
C14 N2 1_555 1_555
H11 C14 1_555 1_555
C15 C3 1_555 1_555
H12 C15 1_555 1_555
C16 C12 1_555 1_555
H13 C16 1_555 1_555
C17 C6 1_555 1_555
H14 C17 1_555 1_555
C18 C9 1_555 1_555
H15 C18 1_555 1_555
C19 C6 1_555 1_555
H16 C19 1_555 1_555
C20 C16 1_555 1_555
H17 C20 1_555 1_555
C21 C17 1_555 1_555
H18 C21 1_555 1_555
C22 C18 1_555 1_555
H19 C22 1_555 1_555
C23 C21 1_555 1_555
H20 C23 1_555 1_555
C24 C19 1_555 1_555
H21 C24 1_555 1_555
Cu1B O1B 1_555 1_555
Cu1C N2 1_555 1_555
Cu1A N2B 1_555 1_555
O1B C10B 1_555 1_555
O2B Cu2 1_555 1_555
H1B O2B 1_555 1_555
N1B Cu2 1_555 1_555
O3B Cu1B 1_555 1_555
O4B Cu2 1_555 1_555
H2B O4B 1_555 1_555
H3B O4B 1_555 1_555
N2B C11B 1_555 1_555
N2C Cu1 1_555 1_555
N2A Cu1B 1_555 1_555
C1B H4B 1_555 1_555
C2B N1B 1_555 1_555
H5B C2B 1_555 1_555
C3B N1B 1_555 1_555
H6B C3B 1_555 1_555
C4B C1B 1_555 1_555
O5B C10B 1_555 1_555
C5B H7B 1_555 1_555
C6B C8B 1_555 1_555
C7B C4B 1_555 1_555
C8B O3B 1_555 1_555
O6B C8B 1_555 1_555
C9B H8B 1_555 1_555
C10B C12B 1_555 1_555
C11B C5B 1_555 1_555
H9B C11B 1_555 1_555
C12B C9B 1_555 1_555
C13B C7B 1_555 1_555
H10B C13B 1_555 1_555
C14B N2B 1_555 1_555
H11B C14B 1_555 1_555
C15B C3B 1_555 1_555
H12B C15B 1_555 1_555
C16B C12B 1_555 1_555
H13B C16B 1_555 1_555
C17B C6B 1_555 1_555
H14B C17B 1_555 1_555
C18B C9B 1_555 1_555
H15B C18B 1_555 1_555
C19B C6B 1_555 1_555
H16B C19B 1_555 1_555
C20B C16B 1_555 1_555
H17B C20B 1_555 1_555
C21B C17B 1_555 1_555
H18B C21B 1_555 1_555
C22B C18B 1_555 1_555
H19B C22B 1_555 1_555
C23B C21B 1_555 1_555
H20B C23B 1_555 1_555
C24B C19B 1_555 1_555
H21B C24B 1_555 1_555
Cu2 O4 1_555 1_555
C1 C2 1_555 1_555
C4 C15 1_555 1_555
C5 C7 1_555 1_555
C13 C14 1_555 1_555
C20 C22 1_555 1_555
C23 C24 1_555 1_555
Cu1B O2B 1_555 1_555
Cu1B O4B 1_555 1_555
C1B C2B 1_555 1_555
C4B C15B 1_555 1_555
C5B C7B 1_555 1_555
C13B C14B 1_555 1_555
C20B C22B 1_555 1_555
C23B C24B 1_555 1_555

#END
