
#######################################################################
#
#                 Cambridge Crystallographic Data Centre
#                                CCDC 
#
#######################################################################
#
# If this CIF has been generated from an entry in the Cambridge 
# Structural Database, then it will include bibliographic, chemical, 
# crystal, experimental, refinement or atomic coordinate data resulting 
# from the CCDC's data processing and validation procedures.
#
#######################################################################

data_TIKMUW
_symmetry_cell_setting           triclinic
_symmetry_space_group_name_H-M   'P -1'
_symmetry_Int_Tables_number      2
_space_group_name_Hall           '-P 1'
loop_
_symmetry_equiv_pos_site_id
_symmetry_equiv_pos_as_xyz
1 x,y,z
2 -x,-y,-z
_cell_length_a                   10.4483(1)
_cell_length_b                   15.0282(2)
_cell_length_c                   16.7750(2)
_cell_angle_alpha                65.385(1)
_cell_angle_beta                 83.952(1)
_cell_angle_gamma                73.595(1)
_cell_volume                     2296.92
loop_
_atom_site_label
_atom_site_type_symbol
_atom_site_fract_x
_atom_site_fract_y
_atom_site_fract_z
Pr1 Pr 0.706394(13) 0.745097(10) -0.211784(9)
Pr2 Pr -0.221904(14) 0.491222(11) 0.371276(9)
S1 S 0.62293(7) 0.71719(5) 0.02223(4)
S2 S 0.05271(7) 0.61029(5) 0.26949(5)
S3 S 0.00747(6) 0.74064(5) 0.65191(4)
S4 S 0.67958(6) 0.67451(5) 0.47930(4)
O1 O 0.6445(2) 0.76411(15) -0.07267(12)
O2 O 0.5505(2) 0.64005(15) 0.04347(14)
O3 O 0.7492(2) 0.67793(15) 0.07087(13)
O4 O 0.27060(19) 1.03391(15) 0.12254(14)
H1 H 0.3116 1.0551 0.1484
O5 O -0.0832(2) 0.59871(16) 0.27495(15)
O6 O 0.1187(2) 0.56188(17) 0.35486(15)
O7 O 0.1315(2) 0.57896(16) 0.20398(15)
O8 O -0.00868(19) 1.04998(14) 0.14766(13)
H2 H 0.0279 1.0721 0.0989
O9 O -0.13585(19) 0.76915(15) 0.66931(12)
O10 O 0.0899(2) 0.74424(16) 0.71438(13)
O11 O 0.0432(2) 0.64149(14) 0.64688(13)
O12 O 0.0993(2) 1.02715(15) 0.29845(12)
H3 H 0.1655 1.0488 0.2976
O13 O 0.5870(2) 0.61870(15) 0.53479(14)
O14 O 0.7718(2) 0.68794(15) 0.53010(14)
O15 O 0.7516(2) 0.62834(15) 0.42002(13)
O16 O 0.33206(18) 1.07186(13) 0.25336(12)
O17 O 0.5890(2) 0.60165(16) -0.10981(14)
O18 O 0.9066(2) 0.76339(16) -0.15834(14)
O19 O 0.8798(2) 0.57969(16) -0.15901(15)
O20 O 0.6749(3) 0.63897(17) -0.28925(15)
O21 O 0.5520(2) 0.84589(16) -0.34944(14)
O22 O 0.4584(2) 0.81406(16) -0.22249(14)
O23 O 0.3366(2) 0.8857(2) -0.34151(17)
O24 O -0.2537(3) 0.51139(17) 0.22207(15)
O25 O -0.3469(2) 0.36958(16) 0.37867(15)
O26 O -0.4504(2) 0.60624(19) 0.31698(18)
O27 O -0.3406(2) 0.43871(17) 0.51154(15)
O28 O -0.0515(2) 0.41447(17) 0.48894(15)
N1 N 0.4463(3) 0.85019(19) -0.30678(17)
C1 C 0.4947(3) 0.9307(2) 0.12113(17)
C2 C 0.5764(3) 0.8554(2) 0.09684(17)
H4 H 0.6694 0.8335 0.1095
C3 C 0.5223(3) 0.8119(2) 0.05405(17)
C4 C 0.3866(3) 0.8435(2) 0.03407(17)
H5 H 0.3513 0.8142 0.0039
C5 C 0.3027(3) 0.9178(2) 0.05814(17)
C6 C 0.3578(3) 0.96119(19) 0.10161(17)
C7 C 0.1533(3) 0.9485(2) 0.04226(17)
H6 H 0.1345 0.9297 -0.0044
H7 H 0.1192 1.0230 0.0220
C8 C 0.0817(3) 0.8968(2) 0.12535(18)
C9 C 0.0929(3) 0.7932(2) 0.15393(18)
H8 H 0.1398 0.7579 0.1196
C10 C 0.0358(3) 0.7416(2) 0.23221(18)
C11 C -0.0314(3) 0.7914(2) 0.28408(18)
H9 H -0.0682 0.7549 0.3381
C12 C -0.0451(3) 0.8947(2) 0.25718(17)
C13 C 0.0103(3) 0.9468(2) 0.17656(18)
C14 C -0.1152(3) 0.9469(2) 0.31625(17)
H10 H -0.1395 1.0213 0.2819
H11 H -0.1985 0.9261 0.3379
C15 C -0.0280(3) 0.9207(2) 0.39356(18)
C16 C -0.0518(3) 0.8536(2) 0.47742(18)
H12 H -0.1244 0.8240 0.4871
C17 C 0.0320(3) 0.8301(2) 0.54716(17)
C18 C 0.1370(3) 0.8738(2) 0.53494(18)
H13 H 0.1918 0.8574 0.5835
C19 C 0.1627(3) 0.94130(19) 0.45215(17)
C20 C 0.0799(3) 0.9631(2) 0.38208(17)
C21 C 0.2783(3) 0.9888(2) 0.43863(17)
H14 H 0.2481 1.0622 0.4011
H15 H 0.3072 0.9811 0.4960
C22 C 0.3951(3) 0.93973(19) 0.39612(17)
C23 C 0.4788(3) 0.8464(2) 0.44827(18)
H16 H 0.4654 0.8176 0.5097
C24 C 0.5819(3) 0.7950(2) 0.41086(18)
C25 C 0.6048(3) 0.8381(2) 0.32140(18)
H17 H 0.6758 0.8030 0.2964
C26 C 0.5246(3) 0.9328(2) 0.26785(17)
C27 C 0.4170(3) 0.98383(19) 0.30482(17)
C28 C 0.5524(3) 0.9763(2) 0.17044(17)
H18 H 0.6501 0.9633 0.1618
H19 H 0.5135 1.0507 0.1457
H20 H 0.981(3) 0.753(3) -0.189(2)
H21 H -0.250(4) 0.567(2) 0.176(2)
H22 H 0.937(4) 0.754(3) -0.1072(18)
H23 H -0.386(5) 0.487(3) 0.531(4)
H24 H -0.421(3) 0.372(3) 0.408(3)
H25 H -0.329(5) 0.376(2) 0.555(2)
H26 H -0.072(5) 0.431(4) 0.534(2)
H27 H 0.640(4) 0.5387(19) -0.088(3)
H28 H -0.501(5) 0.588(5) 0.290(4)
H30 H 0.030(2) 0.396(3) 0.471(3)
H32 H 0.556(4) 0.611(3) -0.0614(19)
H33 H 0.881(5) 0.527(3) -0.171(3)
H34 H -0.285(5) 0.471(3) 0.208(3)
H36 H -0.358(5) 0.363(4) 0.329(2)
H37 H -0.497(5) 0.659(3) 0.329(4)
H39 H 0.960(4) 0.573(6) -0.141(5)
H41 H 0.706(4) 0.648(4) -0.3416(17)
H44 H 0.652(5) 0.582(2) -0.271(3)
Pr1_2 Pr -0.293606(13) 0.745097(10) 0.788216(9)
Pr1A Pr 0.293606(13) 1.254903(10) 0.211784(9)
Pr2A Pr 0.221904(14) 0.508778(11) 0.628724(9)
Pr2_2 Pr 0.778096(14) 0.491222(11) 0.371276(9)
O9_2 O 0.86415(19) 0.76915(15) -0.33069(12)
O11A O -0.0432(2) 0.35851(14) 0.35312(13)
O15_2 O -0.2484(2) 0.62834(15) 0.42002(13)
O16A O 0.66794(18) 0.92814(13) -0.25336(12)
O29 O -0.3119(3) 0.2482(2) 0.6519(2)
H35 H -0.228(3) 0.228(5) 0.670(4)
H38 H -0.309(6) 0.189(2) 0.651(4)
O30 O -0.5867(3) 0.5614(2) 0.20896(17)
H46 H -0.550(6) 0.587(5) 0.155(2)
H47 H -0.674(2) 0.590(4) 0.194(3)
O31 O -0.3528(2) 0.36747(18) 0.21259(17)
H29 H -0.280(3) 0.319(3) 0.212(3)
H31 H -0.415(4) 0.376(4) 0.176(3)
O32 O 0.2436(3) 0.5963(2) 0.0249(2)
H42 H 0.250(6) 0.656(3) -0.017(3)
H45 H 0.155(3) 0.618(8) 0.016(7)
O33 O 0.2410(2) 0.77941(19) -0.11416(18)
H40 H 0.303(3) 0.802(3) -0.150(2)
H43 H 0.170(3) 0.831(3) -0.121(3)
O34 O 1.1013(4) 0.5140(3) -0.0535(3)
O35 O 0.986(3) 0.734(3) 0.000(3)
O36? O 0.961(3) 0.7669(17) -0.0060(10)
O37? O 0.945(5) 0.768(6) 0.000(3)
loop_
_geom_bond_atom_site_label_1
_geom_bond_atom_site_label_2
_geom_bond_site_symmetry_1
_geom_bond_site_symmetry_2
Pr1 O1 1_555 1_555
Pr2 O5 1_555 1_555
S1 O1 1_555 1_555
S2 O5 1_555 1_555
S3 O9 1_555 1_555
S4 O13 1_555 1_555
O2 S1 1_555 1_555
O3 S1 1_555 1_555
O4 H1 1_555 1_555
O6 S2 1_555 1_555
O7 S2 1_555 1_555
O8 H2 1_555 1_555
O9 Pr1_2 1_555 1_555
O10 S3 1_555 1_555
O11 S3 1_555 1_555
O12 H3 1_555 1_555
O14 S4 1_555 1_555
O15 S4 1_555 1_555
O16 C27 1_555 1_555
O17 Pr1 1_555 1_555
O18 Pr1 1_555 1_555
O19 Pr1 1_555 1_555
O20 Pr1 1_555 1_555
O21 Pr1 1_555 1_555
O22 Pr1 1_555 1_555
O23 N1 1_555 1_555
O24 Pr2 1_555 1_555
O25 Pr2 1_555 1_555
O26 Pr2 1_555 1_555
O27 Pr2 1_555 1_555
O28 Pr2 1_555 1_555
O29 H35 1_555 1_555
O30 H46 1_555 1_555
O31 H29 1_555 1_555
O32 H42 1_555 1_555
O33 H40 1_555 1_555
N1 O21 1_555 1_555
C1 C2 1_555 1_555
C2 H4 1_555 1_555
C3 S1 1_555 1_555
C4 C3 1_555 1_555
H5 C4 1_555 1_555
C5 C4 1_555 1_555
C6 O4 1_555 1_555
C7 C5 1_555 1_555
H6 C7 1_555 1_555
H7 C7 1_555 1_555
C8 C7 1_555 1_555
C9 C8 1_555 1_555
H8 C9 1_555 1_555
C10 S2 1_555 1_555
C11 C10 1_555 1_555
H9 C11 1_555 1_555
C12 C11 1_555 1_555
C13 O8 1_555 1_555
C14 C12 1_555 1_555
H10 C14 1_555 1_555
H11 C14 1_555 1_555
C15 C14 1_555 1_555
C16 C15 1_555 1_555
H12 C16 1_555 1_555
C17 S3 1_555 1_555
C18 C17 1_555 1_555
H13 C18 1_555 1_555
C19 C18 1_555 1_555
C20 O12 1_555 1_555
C21 C19 1_555 1_555
H14 C21 1_555 1_555
H15 C21 1_555 1_555
C22 C21 1_555 1_555
C23 C22 1_555 1_555
H16 C23 1_555 1_555
C24 S4 1_555 1_555
C25 C24 1_555 1_555
H17 C25 1_555 1_555
C26 C25 1_555 1_555
C27 C22 1_555 1_555
C28 C1 1_555 1_555
H18 C28 1_555 1_555
H19 C28 1_555 1_555
H20 O18 1_555 1_555
H21 O24 1_555 1_555
H22 O18 1_555 1_555
H23 O27 1_555 1_555
H24 O25 1_555 1_555
H25 O27 1_555 1_555
H26 O28 1_555 1_555
H27 O17 1_555 1_555
H28 O26 1_555 1_555
H30 O28 1_555 1_555
H31 O31 1_555 1_555
H32 O17 1_555 1_555
H33 O19 1_555 1_555
H34 O24 1_555 1_555
H36 O25 1_555 1_555
H37 O26 1_555 1_555
H38 O29 1_555 1_555
H39 O19 1_555 1_555
H41 O20 1_555 1_555
H43 O33 1_555 1_555
H44 O20 1_555 1_555
H45 O32 1_555 1_555
H47 O30 1_555 1_555
Pr1A O16 1_555 1_555
Pr2A O11 1_555 1_555
Pr2_2 O15 1_555 1_555
O9_2 Pr1 1_555 1_555
O11A Pr2 1_555 1_555
O15_2 Pr2 1_555 1_555
O16A Pr1 1_555 1_555
O22 N1 1_555 1_555
C1 C6 1_555 1_555
C2 C3 1_555 1_555
C5 C6 1_555 1_555
C8 C13 1_555 1_555
C9 C10 1_555 1_555
C12 C13 1_555 1_555
C15 C20 1_555 1_555
C16 C17 1_555 1_555
C19 C20 1_555 1_555
C23 C24 1_555 1_555
C26 C27 1_555 1_555
C26 C28 1_555 1_555

#END
