
#######################################################################
#
#                 Cambridge Crystallographic Data Centre
#                                CCDC 
#
#######################################################################
#
# If this CIF has been generated from an entry in the Cambridge 
# Structural Database, then it will include bibliographic, chemical, 
# crystal, experimental, refinement or atomic coordinate data resulting 
# from the CCDC's data processing and validation procedures.
#
#######################################################################

data_TIKMAD
_symmetry_cell_setting           monoclinic
_symmetry_space_group_name_H-M   'P 21/c'
_symmetry_Int_Tables_number      14
_space_group_name_Hall           '-P 2ybc'
loop_
_symmetry_equiv_pos_site_id
_symmetry_equiv_pos_as_xyz
1 x,y,z
2 -x,1/2+y,1/2-z
3 -x,-y,-z
4 x,1/2-y,1/2+z
_cell_length_a                   10.099(2)
_cell_length_b                   16.811(3)
_cell_length_c                   15.251(3)
_cell_angle_alpha                90
_cell_angle_beta                 96.81(3)
_cell_angle_gamma                90
_cell_volume                     2570.96
loop_
_atom_site_label
_atom_site_type_symbol
_atom_site_fract_x
_atom_site_fract_y
_atom_site_fract_z
Cd1 Cd 0.74744(6) 0.51744(3) 0.68121(4)
C1 C 0.8603(9) 0.3663(5) 0.8050(6)
H1 H 0.9372 0.3801 0.7806
C2 C 0.6425(9) 0.3910(5) 0.8222(6)
H2 H 0.5663 0.4219 0.8097
C3 C 0.6374(10) 0.3252(5) 0.8784(6)
H3 H 0.5597 0.3136 0.9030
C4 C 0.8635(9) 0.2995(5) 0.8599(5)
H4 H 0.9415 0.2701 0.8716
C5 C 0.7501(9) 0.2774(5) 0.8968(5)
C6 C 0.7482(8) 0.2070(5) 0.9552(5)
C7 C 0.6300(8) 0.1677(5) 0.9677(5)
H5 H 0.5496 0.1833 0.9363
C8 C 0.8670(8) 0.1791(5) 1.0026(5)
H6 H 0.9479 0.2030 0.9949
C9 C 0.8636(8) 0.1169(5) 1.0601(5)
H7 H 0.9432 0.0991 1.0909
H8 H 0.558(10) 0.085(6) 1.039(6)
C10 C 0.6337(8) 0.1056(5) 1.0269(5)
C11 C 0.5039(8) 0.5631(5) 0.7283(5)
C12 C 0.3802(7) 0.5980(4) 0.7578(5)
C13 C 0.2536(8) 0.5659(4) 0.7314(5)
C14 C 0.2397(8) 0.4927(5) 0.6758(5)
C15 C 0.0028(8) 0.5723(5) 0.7309(5)
C16 C 0.1398(8) 0.6033(5) 0.7578(5)
C17 C 0.1547(8) 0.6724(5) 0.8088(5)
H9 H 0.0798 0.6980 0.8252
C18 C 0.2828(8) 0.7035(5) 0.8356(6)
H10 H 0.2924 0.7491 0.8704
C19 C 0.3932(8) 0.6666(5) 0.8105(5)
H11 H 0.4776 0.6872 0.8285
C20 C 0.2636(10) 0.3526(5) 0.6734(6)
H12 H 0.3380 0.3524 0.6387
H13 H 0.1817 0.3477 0.6336
C21 C 0.2762(10) 0.2846(5) 0.7377(7)
H14 H 0.2925 0.2359 0.7068
H15 H 0.3518 0.2939 0.7820
N1 N 0.7479(7) 0.0802(4) 1.0738(4)
N2 N 0.7510(7) 0.4111(4) 0.7862(4)
O1 O 0.7114(6) 0.5936(3) 0.5503(4)
H16 H 0.7372 0.6405 0.5403
H17 H 0.7281 0.5645 0.5073
O2 O 0.4968(6) 0.5097(3) 0.6711(4)
O3 O 0.6161(6) 0.5904(3) 0.7640(4)
O4 O 0.2627(5) 0.4257(3) 0.7232(3)
O5 O 0.2122(6) 0.4927(3) 0.5960(3)
O6 O -0.0120(6) 0.5017(3) 0.7056(4)
O7 O -0.0960(6) 0.6188(4) 0.7323(5)
O8 O 0.1594(7) 0.2760(4) 0.7797(4)
H18 H 0.1247 0.2329 0.7663
Cd1_2 Cd -0.25256(6) 0.51744(3) 0.68121(4)
Cd1C Cd 0.74744(6) -0.01744(3) 1.18121(4)
N1C N 0.7479(7) 0.4198(4) 0.5738(4)
O6_2 O 0.9880(6) 0.5017(3) 0.7056(4)
O7_2 O 0.9040(6) 0.6188(4) 0.7323(5)
C22 C 0.302(3) 0.0215(10) 0.4759(10)
H19 H 0.2677 -0.0259 0.4449
H20 H 0.3732 0.0047 0.5204
C23 C 0.1989(18) 0.0543(11) 0.5196(11)
O9 O 0.3597(14) 0.0722(8) 0.4133(7)
H21 H 0.3002 0.0896 0.3772
O10 O 0.2453(13) 0.1244(6) 0.5707(6)
O11 O 0.2028(10) 0.2465(5) 0.9614(5)
H22 H 0.1797 0.2692 0.9029
H23 H 0.2258 0.2926 1.0010
H24? H 0.1679 0.0147 0.5587
H25? H 0.1245 0.0688 0.4764
H26? H 0.3268 0.1272 0.5741
loop_
_geom_bond_atom_site_label_1
_geom_bond_atom_site_label_2
_geom_bond_site_symmetry_1
_geom_bond_site_symmetry_2
Cd1 N2 1_555 1_555
C1 H1 1_555 1_555
C2 H2 1_555 1_555
C3 C2 1_555 1_555
H3 C3 1_555 1_555
C4 C1 1_555 1_555
H4 C4 1_555 1_555
C5 C3 1_555 1_555
C6 C5 1_555 1_555
C7 C6 1_555 1_555
H5 C7 1_555 1_555
C8 C6 1_555 1_555
H6 C8 1_555 1_555
C9 C8 1_555 1_555
H7 C9 1_555 1_555
H8 C10 1_555 1_555
C10 C7 1_555 1_555
C11 C12 1_555 1_555
C12 C13 1_555 1_555
C13 C14 1_555 1_555
C14 O4 1_555 1_555
C15 C16 1_555 1_555
C16 C13 1_555 1_555
C17 C16 1_555 1_555
H9 C17 1_555 1_555
C18 C17 1_555 1_555
H10 C18 1_555 1_555
C19 C12 1_555 1_555
H11 C19 1_555 1_555
C20 H12 1_555 1_555
H13 C20 1_555 1_555
C21 C20 1_555 1_555
H14 C21 1_555 1_555
H15 C21 1_555 1_555
N1 C9 1_555 1_555
N2 C1 1_555 1_555
O1 Cd1 1_555 1_555
H16 O1 1_555 1_555
H17 O1 1_555 1_555
O2 Cd1 1_555 1_555
O3 Cd1 1_555 1_555
O4 C20 1_555 1_555
O5 C14 1_555 1_555
O6 C15 1_555 1_555
O7 C15 1_555 1_555
O8 C21 1_555 1_555
H18 O8 1_555 1_555
C22 H19 1_555 1_555
H20 C22 1_555 1_555
C23 C22 1_555 1_555
O9 C22 1_555 1_555
H21 O9 1_555 1_555
O10 C23 1_555 1_555
O11 H22 1_555 1_555
H23 O11 1_555 1_555
Cd1_2 O6 1_555 1_555
Cd1C N1 1_555 1_555
N1C Cd1 1_555 1_555
O6_2 Cd1 1_555 1_555
O7_2 Cd1 1_555 1_555
C2 N2 1_555 1_555
C4 C5 1_555 1_555
C10 N1 1_555 1_555
C11 O2 1_555 1_555
C11 O3 1_555 1_555
C18 C19 1_555 1_555
O7 Cd1_2 1_555 1_555

#END
