
#######################################################################
#
#                 Cambridge Crystallographic Data Centre
#                                CCDC 
#
#######################################################################
#
# If this CIF has been generated from an entry in the Cambridge 
# Structural Database, then it will include bibliographic, chemical, 
# crystal, experimental, refinement or atomic coordinate data resulting 
# from the CCDC's data processing and validation procedures.
#
#######################################################################

data_TIKSOW
_symmetry_cell_setting           monoclinic
_symmetry_space_group_name_H-M   'P 21/n'
_symmetry_Int_Tables_number      14
_space_group_name_Hall           '-P 2yn'
loop_
_symmetry_equiv_pos_site_id
_symmetry_equiv_pos_as_xyz
1 x,y,z
2 1/2-x,1/2+y,1/2-z
3 -x,-y,-z
4 1/2+x,1/2-y,1/2+z
_cell_length_a                   7.295(4)
_cell_length_b                   19.627(5)
_cell_length_c                   12.770(4)
_cell_angle_alpha                90
_cell_angle_beta                 101.25(4)
_cell_angle_gamma                90
_cell_volume                     1793.26
loop_
_atom_site_label
_atom_site_type_symbol
_atom_site_fract_x
_atom_site_fract_y
_atom_site_fract_z
Cu1 Cu 0.1413(1) 0.3802(1) 0.0119(1)
Cl1 Cl 0.2870(2) 0.4164(1) -0.5244(1)
C1 C 0.1443(5) 0.4357(2) -0.1951(3)
C2 C 0.1617(6) 0.4929(2) -0.2579(3)
C3 C 0.2057(6) 0.4895(2) -0.3575(3)
C4 C 0.2333(6) 0.4243(2) -0.3975(3)
C5 C 0.2170(7) 0.3675(2) -0.3403(3)
C6 C 0.1769(6) 0.3712(2) -0.2375(3)
C7 C 0.1733(6) 0.3085(2) -0.1800(3)
N1 N 0.1532(4) 0.3038(2) -0.0833(3)
C8 C 0.1613(8) 0.2372(2) -0.0331(4)
C9 C 0.1730(5) 0.2440(2) 0.0845(3)
C10 C 0.1859(7) 0.1885(2) 0.1520(4)
C11 C 0.1878(8) 0.1981(3) 0.2575(4)
C12 C 0.1784(8) 0.2634(3) 0.2954(4)
C13 C 0.1688(7) 0.3164(2) 0.2257(4)
N2 N 0.1657(4) 0.3077(2) 0.1210(3)
O1 O 0.1001(4) 0.4446(1) -0.1011(2)
C14 C 0.2267(9) 0.5534(3) -0.4182(5)
O2 O 0.1503(4) 0.4554(1) 0.1170(2)
C15 C 0.3188(9) 0.4911(3) 0.1612(6)
Cl2 Cl 0.6538(2) 0.3457(1) 0.0647(1)
O3 O 0.4933(5) 0.3862(2) 0.0248(4)
O4 O 0.8001(6) 0.3762(3) 0.0242(4)
O5 O 0.6910(7) 0.3459(2) 0.1760(3)
O6 O 0.6183(10) 0.2788(2) 0.0296(4)
Cu1_2 Cu 1.1413(1) 0.3802(1) 0.0119(1)
O4_2 O -0.1999(6) 0.3762(3) 0.0242(4)
loop_
_geom_bond_atom_site_label_1
_geom_bond_atom_site_label_2
_geom_bond_site_symmetry_1
_geom_bond_site_symmetry_2
Cu1 N1 1_555 1_555
Cl1 C4 1_555 1_555
C1 C2 1_555 1_555
C2 C3 1_555 1_555
C3 C4 1_555 1_555
C4 C5 1_555 1_555
C5 C6 1_555 1_555
C6 C1 1_555 1_555
C7 C6 1_555 1_555
N1 C7 1_555 1_555
C8 N1 1_555 1_555
C9 C8 1_555 1_555
C10 C9 1_555 1_555
C11 C10 1_555 1_555
C12 C11 1_555 1_555
C13 C12 1_555 1_555
N2 Cu1 1_555 1_555
O1 Cu1 1_555 1_555
C14 C3 1_555 1_555
O2 Cu1 1_555 1_555
C15 O2 1_555 1_555
Cl2 O3 1_555 1_555
O3 Cu1 1_555 1_555
O4 Cl2 1_555 1_555
O5 Cl2 1_555 1_555
O6 Cl2 1_555 1_555
Cu1_2 O4 1_555 1_555
O4_2 Cu1 1_555 1_555
C1 O1 1_555 1_555
C9 N2 1_555 1_555
C13 N2 1_555 1_555

#END
