
#######################################################################
#
#                 Cambridge Crystallographic Data Centre
#                                CCDC 
#
#######################################################################
#
# If this CIF has been generated from an entry in the Cambridge 
# Structural Database, then it will include bibliographic, chemical, 
# crystal, experimental, refinement or atomic coordinate data resulting 
# from the CCDC's data processing and validation procedures.
#
#######################################################################

data_TIKWUG
_symmetry_cell_setting           orthorhombic
_symmetry_space_group_name_H-M   'P b c a'
_symmetry_Int_Tables_number      61
_space_group_name_Hall           '-P 2ac 2ab'
loop_
_symmetry_equiv_pos_site_id
_symmetry_equiv_pos_as_xyz
1 x,y,z
2 1/2-x,-y,1/2+z
3 -x,1/2+y,1/2-z
4 1/2+x,1/2-y,-z
5 -x,-y,-z
6 1/2+x,y,1/2-z
7 x,1/2-y,1/2+z
8 1/2-x,1/2+y,z
_cell_length_a                   18.799(2)
_cell_length_b                   7.7538(10)
_cell_length_c                   19.174(3)
_cell_angle_alpha                90
_cell_angle_beta                 90
_cell_angle_gamma                90
_cell_volume                     2794.87
loop_
_atom_site_label
_atom_site_type_symbol
_atom_site_fract_x
_atom_site_fract_y
_atom_site_fract_z
Cd1 Cd 0.743565(18) 0.38776(4) 0.751906(18)
O1 O 0.6540(2) 0.4456(6) 0.8309(2)
O2 O 0.7382(2) 0.6436(6) 0.8327(2)
O3 O 0.6562(2) 0.3041(5) 0.6719(2)
O4 O 0.7504(2) 0.1381(5) 0.6770(2)
N1 N 0.3631(2) 1.0777(6) 1.2313(2)
N2 N 0.4552(3) 0.9944(7) 1.1690(2)
C1 C 0.6808(3) 0.5817(7) 0.8553(3)
C2 C 0.6445(3) 0.6699(7) 0.9152(3)
C3 C 0.5754(4) 0.6313(7) 0.9310(3)
H1 H 0.5505 0.5510 0.9045
C4 C 0.5423(4) 0.7139(8) 0.9876(3)
H2 H 0.4952 0.6901 0.9988
C5 C 0.5826(4) 0.8356(8) 1.0275(3)
C6 C 0.6510(4) 0.8723(8) 1.0100(3)
H3 H 0.6766 0.9529 1.0357
C7 C 0.6824(4) 0.7908(8) 0.9545(3)
H4 H 0.7293 0.8162 0.9429
C8 C 0.5501(3) 0.9300(9) 1.0884(3)
H5 H 0.5766 1.0152 1.1105
C9 C 0.4884(4) 0.8975(9) 1.1103(4)
H6 H 0.4626 0.8098 1.0890
C10 C 0.3850(3) 0.9719(7) 1.1824(3)
H7 H 0.3562 0.8919 1.1598
C11 C 0.4794(3) 1.1233(9) 1.2114(4)
H8 H 0.5254 1.1676 1.2134
C12 C 0.4214(3) 1.1743(9) 1.2506(3)
H9 H 0.4217 1.2600 1.2846
C13 C 0.6899(3) 0.1745(7) 0.6514(3)
C14 C 0.6588(4) 0.0616(11) 0.5949(4)
H10 H 0.6132 0.1060 0.5813
H11 H 0.6533 -0.0538 0.6123
H12 H 0.6901 0.0608 0.5554
Cd1G Cd 0.756435(18) 0.88776(4) 0.751906(18)
Cd1G_2 Cd 0.756435(18) -0.11224(4) 0.751906(18)
Cd1C Cd 0.243565(18) 1.11224(4) 1.248094(18)
O2G O 0.7618(2) 0.1436(6) 0.8327(2)
O4G O 0.7496(2) 0.6381(5) 0.6770(2)
N1C N 0.8631(2) 0.4223(6) 0.7687(2)
loop_
_geom_bond_atom_site_label_1
_geom_bond_atom_site_label_2
_geom_bond_site_symmetry_1
_geom_bond_site_symmetry_2
Cd1 O1 1_555 1_555
O1 C1 1_555 1_555
O2 Cd1 1_555 1_555
O3 Cd1 1_555 1_555
O4 Cd1 1_555 1_555
N1 C10 1_555 1_555
N2 C9 1_555 1_555
C1 O2 1_555 1_555
C2 C1 1_555 1_555
C3 C2 1_555 1_555
H1 C3 1_555 1_555
C4 C3 1_555 1_555
H2 C4 1_555 1_555
C5 C4 1_555 1_555
C6 C5 1_555 1_555
H3 C6 1_555 1_555
C7 C2 1_555 1_555
H4 C7 1_555 1_555
C8 C5 1_555 1_555
H5 C8 1_555 1_555
C9 C8 1_555 1_555
H6 C9 1_555 1_555
C10 N2 1_555 1_555
H7 C10 1_555 1_555
C11 N2 1_555 1_555
H8 C11 1_555 1_555
C12 N1 1_555 1_555
H9 C12 1_555 1_555
C13 O3 1_555 1_555
C14 C13 1_555 1_555
H10 C14 1_555 1_555
H11 C14 1_555 1_555
H12 C14 1_555 1_555
Cd1G O2 1_555 1_555
Cd1G_2 O4 1_555 1_555
Cd1C N1 1_555 1_555
O2G Cd1 1_555 1_555
O4G Cd1 1_555 1_555
N1C Cd1 1_555 1_555
O4 C13 1_555 1_555
C6 C7 1_555 1_555
C11 C12 1_555 1_555
Cd1G O4G 1_555 1_555
Cd1G_2 O2G 1_555 1_555

#END
