
#######################################################################
#
#                 Cambridge Crystallographic Data Centre
#                                CCDC 
#
#######################################################################
#
# If this CIF has been generated from an entry in the Cambridge 
# Structural Database, then it will include bibliographic, chemical, 
# crystal, experimental, refinement or atomic coordinate data resulting 
# from the CCDC's data processing and validation procedures.
#
#######################################################################

data_TIKWIU
_symmetry_cell_setting           monoclinic
_symmetry_space_group_name_H-M   'P 21/c'
_symmetry_Int_Tables_number      14
_space_group_name_Hall           '-P 2ybc'
loop_
_symmetry_equiv_pos_site_id
_symmetry_equiv_pos_as_xyz
1 x,y,z
2 -x,1/2+y,1/2-z
3 -x,-y,-z
4 x,1/2-y,1/2+z
_cell_length_a                   5.0536(10)
_cell_length_b                   8.3267(16)
_cell_length_c                   30.561(6)
_cell_angle_alpha                90
_cell_angle_beta                 92.690(4)
_cell_angle_gamma                90
_cell_volume                     1284.58
loop_
_atom_site_label
_atom_site_type_symbol
_atom_site_fract_x
_atom_site_fract_y
_atom_site_fract_z
Cd1 Cd 0.5000 0.0000 0.0000
O1 O 0.1213(3) 0.1351(2) -0.02203(5)
O2 O -0.2779(3) 0.1173(2) -0.05572(5)
N1 N 0.5645(4) 0.2771(2) -0.45275(7)
C1 C 0.0708(5) 0.1826(3) -0.25749(8)
H1 H -0.0114 0.2398 -0.2813
C2 C 0.2918(5) 0.0870(3) -0.26451(8)
C3 C 0.4404(5) 0.2672(3) -0.41500(8)
H2 H 0.3256 0.3526 -0.4079
C4 C 0.4682(6) 0.1403(3) -0.38564(8)
C5 C 0.3378(6) 0.1506(3) -0.34377(8)
H3 H 0.1898 0.2206 -0.3425
C6 C 0.4094(5) 0.0701(3) -0.30746(8)
H4 H 0.5495 -0.0052 -0.3095
C7 C 0.4054(6) 0.0046(3) -0.22853(9)
H5 H 0.5547 -0.0623 -0.2324
C8 C 0.7173(8) 0.1546(4) -0.46336(11)
H6 H 0.8055 0.1585 -0.4901
C9 C 0.6276(12) 0.0139(4) -0.39750(14)
H7 H 0.6511 -0.0770 -0.3789
C10 C 0.7514(14) 0.0218(5) -0.43658(17)
H8 H 0.8607 -0.0643 -0.4452
C11 C 0.3044(6) 0.0187(3) -0.18722(9)
H9 H 0.3868 -0.0382 -0.1633
C12 C 0.0855(5) 0.1140(3) -0.18019(7)
C13 C -0.0296(5) 0.1282(3) -0.13703(8)
H10 H -0.2114 0.1569 -0.1365
C14 C 0.1004(5) 0.1042(3) -0.09869(8)
H11 H 0.2828 0.0764 -0.0986
C15 C -0.0281(5) 0.1188(3) -0.05558(7)
C16 C -0.0301(5) 0.1952(3) -0.21639(8)
H12 H -0.1814 0.2606 -0.2126
Cd1_2 Cd -0.5000 0.0000 0.0000
Cd1C Cd 0.5000 0.5000 -0.5000
Cd1_3 Cd 1.5000 0.0000 0.0000
Cd1C_2 Cd 0.5000 -0.5000 0.5000
O1B O 0.8787(3) -0.1351(2) 0.02203(5)
O2B O 1.2779(3) -0.1173(2) 0.05572(5)
O2_2 O 0.7221(3) 0.1173(2) -0.05572(5)
O2B_2 O 0.2779(3) -0.1173(2) 0.05572(5)
N1B N 0.4355(4) -0.2771(2) 0.45275(7)
N1C N 0.5645(4) 0.2229(2) 0.04725(7)
N1A N 0.4355(4) -0.2229(2) -0.04725(7)
C1B C 0.9292(5) -0.1826(3) 0.25749(8)
H1B H 1.0114 -0.2398 0.2813
C2B C 0.7082(5) -0.0870(3) 0.26451(8)
C3B C 0.5596(5) -0.2672(3) 0.41500(8)
H2B H 0.6744 -0.3526 0.4079
C4B C 0.5318(6) -0.1403(3) 0.38564(8)
C5B C 0.6622(6) -0.1506(3) 0.34377(8)
H3B H 0.8102 -0.2206 0.3425
C6B C 0.5906(5) -0.0701(3) 0.30746(8)
H4B H 0.4505 0.0052 0.3095
C7B C 0.5946(6) -0.0046(3) 0.22853(9)
H5B H 0.4453 0.0623 0.2324
C8B C 0.2827(8) -0.1546(4) 0.46336(11)
H6B H 0.1945 -0.1585 0.4901
C9B C 0.3724(12) -0.0139(4) 0.39750(14)
H7B H 0.3489 0.0770 0.3789
C10B C 0.2486(14) -0.0218(5) 0.43658(17)
H8B H 0.1393 0.0643 0.4452
C11B C 0.6956(6) -0.0187(3) 0.18722(9)
H9B H 0.6132 0.0382 0.1633
C12B C 0.9145(5) -0.1140(3) 0.18019(7)
C13B C 1.0296(5) -0.1282(3) 0.13703(8)
H10B H 1.2114 -0.1569 0.1365
C14B C 0.8996(5) -0.1042(3) 0.09869(8)
H11B H 0.7172 -0.0764 0.0986
C15B C 1.0281(5) -0.1188(3) 0.05558(7)
C16B C 1.0301(5) -0.1952(3) 0.21639(8)
H12B H 1.1814 -0.2606 0.2126
loop_
_geom_bond_atom_site_label_1
_geom_bond_atom_site_label_2
_geom_bond_site_symmetry_1
_geom_bond_site_symmetry_2
Cd1 O1 1_555 1_555
O1 C15 1_555 1_555
O2 C15 1_555 1_555
N1 C3 1_555 1_555
C1 H1 1_555 1_555
C2 C1 1_555 1_555
C3 H2 1_555 1_555
C4 C3 1_555 1_555
C5 C4 1_555 1_555
H3 C5 1_555 1_555
C6 C2 1_555 1_555
H4 C6 1_555 1_555
C7 C2 1_555 1_555
H5 C7 1_555 1_555
C8 N1 1_555 1_555
H6 C8 1_555 1_555
C9 C4 1_555 1_555
H7 C9 1_555 1_555
C10 C8 1_555 1_555
H8 C10 1_555 1_555
C11 C7 1_555 1_555
H9 C11 1_555 1_555
C12 C11 1_555 1_555
C13 C12 1_555 1_555
H10 C13 1_555 1_555
C14 C13 1_555 1_555
H11 C14 1_555 1_555
C15 C14 1_555 1_555
C16 C1 1_555 1_555
H12 C16 1_555 1_555
Cd1_2 O2 1_555 1_555
Cd1C N1 1_555 1_555
Cd1_3 O2B 1_555 1_555
Cd1C_2 N1B 1_555 1_555
O1B Cd1 1_555 1_555
O2B C15B 1_555 1_555
O2_2 Cd1 1_555 1_555
O2B_2 Cd1 1_555 1_555
N1B C3B 1_555 1_555
N1C Cd1 1_555 1_555
N1A Cd1 1_555 1_555
C1B H1B 1_555 1_555
C2B C1B 1_555 1_555
C3B H2B 1_555 1_555
C4B C3B 1_555 1_555
C5B C4B 1_555 1_555
H3B C5B 1_555 1_555
C6B C2B 1_555 1_555
H4B C6B 1_555 1_555
C7B C2B 1_555 1_555
H5B C7B 1_555 1_555
C8B N1B 1_555 1_555
H6B C8B 1_555 1_555
C9B C4B 1_555 1_555
H7B C9B 1_555 1_555
C10B C8B 1_555 1_555
H8B C10B 1_555 1_555
C11B C7B 1_555 1_555
H9B C11B 1_555 1_555
C12B C11B 1_555 1_555
C13B C12B 1_555 1_555
H10B C13B 1_555 1_555
C14B C13B 1_555 1_555
H11B C14B 1_555 1_555
C15B O1B 1_555 1_555
C16B C1B 1_555 1_555
H12B C16B 1_555 1_555
C5 C6 1_555 1_555
C9 C10 1_555 1_555
C12 C16 1_555 1_555
C5B C6B 1_555 1_555
C9B C10B 1_555 1_555
C12B C16B 1_555 1_555
C14B C15B 1_555 1_555

#END
