
#######################################################################
#
#                 Cambridge Crystallographic Data Centre
#                                CCDC 
#
#######################################################################
#
# If this CIF has been generated from an entry in the Cambridge 
# Structural Database, then it will include bibliographic, chemical, 
# crystal, experimental, refinement or atomic coordinate data resulting 
# from the CCDC's data processing and validation procedures.
#
#######################################################################

data_TIKXAN
_symmetry_cell_setting           cubic
_symmetry_space_group_name_H-M   'I -4 3 d'
_symmetry_Int_Tables_number      220
_space_group_name_Hall           'I -4bd 2c 3'
loop_
_symmetry_equiv_pos_site_id
_symmetry_equiv_pos_as_xyz
1 x,y,z
2 1/4+y,3/4-x,1/4-z
3 -x,1/2-y,z
4 1/4-y,1/4+x,3/4-z
5 1/4-x,1/4+z,3/4-y
6 x,-y,1/2-z
7 3/4-x,1/4-z,1/4+y
8 3/4-z,1/4-y,1/4+x
9 1/2-x,y,-z
10 1/4+z,3/4-y,1/4-x
11 z,x,y
12 y,z,x
13 -y,1/2-z,x
14 z,-x,1/2-y
15 1/2-y,z,-x
16 -z,1/2-x,y
17 1/2-z,x,-y
18 y,-z,1/2-x
19 3/4-y,1/4-x,1/4+z
20 1/4+y,1/4+x,1/4+z
21 1/4+x,3/4-z,1/4-y
22 1/4+x,1/4+z,1/4+y
23 1/4-z,1/4+y,3/4-x
24 1/4+z,1/4+y,1/4+x
25 1/2+x,1/2+y,1/2+z
26 3/4+y,1/4-x,3/4-z
27 1/2-x,-y,1/2+z
28 3/4-y,3/4+x,1/4-z
29 3/4-x,3/4+z,1/4-y
30 1/2+x,1/2-y,-z
31 1/4-x,3/4-z,3/4+y
32 1/4-z,3/4-y,3/4+x
33 -x,1/2+y,1/2-z
34 3/4+z,1/4-y,3/4-x
35 1/2+z,1/2+x,1/2+y
36 1/2+y,1/2+z,1/2+x
37 1/2-y,-z,1/2+x
38 1/2+z,1/2-x,-y
39 -y,1/2+z,1/2-x
40 1/2-z,-x,1/2+y
41 -z,1/2+x,1/2-y
42 1/2+y,1/2-z,-x
43 1/4-y,3/4-x,3/4+z
44 3/4+y,3/4+x,3/4+z
45 3/4+x,1/4-z,3/4-y
46 3/4+x,3/4+z,3/4+y
47 3/4-z,3/4+y,1/4-x
48 3/4+z,3/4+y,3/4+x
_cell_length_a                   20.3732(8)
_cell_length_b                   20.3732(8)
_cell_length_c                   20.3732(8)
_cell_angle_alpha                90
_cell_angle_beta                 90
_cell_angle_gamma                90
_cell_volume                     8456.25
loop_
_atom_site_label
_atom_site_type_symbol
_atom_site_fract_x
_atom_site_fract_y
_atom_site_fract_z
O3 O 0.3316(4) 0.3734(3) 0.0485(3)
In1 In 0.5000 0.2500 0.1250
O1 O 0.5538(2) 0.3318(3) 0.0850(2)
O2 O 0.4638(3) 0.3129(3) 0.0316(3)
C1 C 0.5292(3) 0.4040(3) -0.0031(4)
C2 C 0.5148(3) 0.3456(3) 0.0395(3)
C3 C 0.5829(4) 0.4432(3) 0.0108(3)
H1 H 0.6104 0.4336 0.0471
In1T In 0.7500 0.6250 0.0000
In1I In 0.3750 0.5000 -0.2500
In1O In 0.8750 0.0000 0.2500
In1D In 0.7500 0.3750 0.5000
In1Q In 0.2500 -0.1250 0.0000
In1G In 0.6250 0.0000 -0.2500
In1J In 0.1250 0.5000 0.2500
In1F In 0.2500 0.1250 0.5000
O1LA O 0.6682(3) 0.5850(2) -0.0538(2)
O1MA O 0.4150(2) 0.4462(2) -0.1682(3)
O1A O 0.5818(3) 0.1962(2) 0.1650(2)
O1UA O 0.8350(2) 0.0818(3) 0.3038(2)
O1D O 0.6962(2) 0.3350(2) 0.4182(3)
O1B O 0.4462(2) 0.1682(3) 0.0850(2)
O1Q O 0.3318(3) -0.0850(2) -0.0538(2)
O1HA O 0.5850(2) 0.0538(2) -0.1682(3)
O1AA O 0.4182(3) 0.3038(2) 0.1650(2)
O1EA O 0.1650(2) 0.4182(3) 0.3038(2)
O1RA O 0.3038(2) 0.1650(2) 0.4182(3)
O1T O 0.8038(2) 0.6650(2) -0.0818(3)
O1DA O 0.6962(2) 0.6650(2) 0.0818(3)
O1IA O 0.8318(3) 0.5850(2) 0.0538(2)
O1I O 0.3350(2) 0.4182(3) -0.3038(2)
O1P O 0.4150(2) 0.5538(2) -0.3318(3)
O1W O 0.3350(2) 0.5818(3) -0.1962(2)
O2LA O 0.6871(3) 0.5316(3) 0.0362(3)
O2MA O 0.4684(3) 0.5362(3) -0.1871(3)
O2A O 0.5629(3) 0.2862(3) 0.2184(3)
O2UA O 0.7816(3) 0.0629(3) 0.2138(3)
O2D O 0.7862(3) 0.2816(3) 0.4371(3)
O2B O 0.5362(3) 0.1871(3) 0.0316(3)
O2Q O 0.3129(3) -0.0316(3) 0.0362(3)
O2HA O 0.5316(3) -0.0362(3) -0.1871(3)
O2AA O 0.4371(3) 0.2138(3) 0.2184(3)
O2EA O 0.2184(3) 0.4371(3) 0.2138(3)
O2RA O 0.2138(3) 0.2184(3) 0.4371(3)
O2T O 0.7138(3) 0.7184(3) -0.0629(3)
O2DA O 0.7862(3) 0.7184(3) 0.0629(3)
O2IA O 0.8129(3) 0.5316(3) -0.0362(3)
O2I O 0.2816(3) 0.4371(3) -0.2138(3)
O2P O 0.4684(3) 0.4638(3) -0.3129(3)
O2W O 0.2816(3) 0.5629(3) -0.2862(3)
C1LA C 0.5960(3) 0.4969(4) -0.0292(3)
C1MA C 0.5031(4) 0.4708(3) -0.0960(3)
C1A C 0.6540(3) 0.2208(3) 0.2531(4)
C1UA C 0.7469(4) 0.1540(3) 0.2792(3)
C1D C 0.7208(3) 0.2469(4) 0.3460(3)
C1B C 0.4708(3) 0.0960(3) -0.0031(4)
C1Q C 0.4040(3) 0.0031(4) -0.0292(3)
C1HA C 0.4969(4) 0.0292(3) -0.0960(3)
C1AA C 0.3460(3) 0.2792(3) 0.2531(4)
C1EA C 0.2531(4) 0.3460(3) 0.2792(3)
C1RA C 0.2792(3) 0.2531(4) 0.3460(3)
C2LA C 0.6544(3) 0.5395(3) -0.0148(3)
C2MA C 0.4605(3) 0.4852(3) -0.1544(3)
C2A C 0.5956(3) 0.2352(3) 0.2105(3)
C2UA C 0.7895(3) 0.0956(3) 0.2648(3)
C2D C 0.7352(3) 0.2895(3) 0.4044(3)
C2B C 0.4852(3) 0.1544(3) 0.0395(3)
C2Q C 0.3456(3) -0.0395(3) -0.0148(3)
C2HA C 0.5395(3) 0.0148(3) -0.1544(3)
C2AA C 0.4044(3) 0.2648(3) 0.2105(3)
C2EA C 0.2105(3) 0.4044(3) 0.2648(3)
C2RA C 0.2648(3) 0.2105(3) 0.4044(3)
C3LA C 0.5568(3) 0.5108(3) -0.0829(4)
C3MA C 0.4892(3) 0.4171(4) -0.0568(3)
C3A C 0.6932(3) 0.1671(4) 0.2392(3)
C3UA C 0.7608(3) 0.1932(3) 0.3329(4)
C3D C 0.6671(4) 0.2608(3) 0.3068(3)
C3B C 0.4171(4) 0.0568(3) 0.0108(3)
C3Q C 0.4432(3) -0.0108(3) -0.0829(4)
C3HA C 0.5108(3) 0.0829(4) -0.0568(3)
C3AA C 0.3068(3) 0.3329(4) 0.2392(3)
C3EA C 0.2392(3) 0.3068(3) 0.3329(4)
C3RA C 0.3329(4) 0.2392(3) 0.3068(3)
H1MA H 0.4529 0.3896 -0.0664
H1LA H 0.5664 0.5471 -0.1104
H1A H 0.6836 0.1396 0.2029
H1D H 0.6396 0.2971 0.3164
H1UA H 0.7971 0.1836 0.3604
H1B H 0.3896 0.0664 0.0471
H1HA H 0.5471 0.1104 -0.0664
H1Q H 0.4336 -0.0471 -0.1104
H1AA H 0.3164 0.3604 0.2029
H1RA H 0.3604 0.2029 0.3164
H1EA H 0.2029 0.3164 0.3604
loop_
_geom_bond_atom_site_label_1
_geom_bond_atom_site_label_2
_geom_bond_site_symmetry_1
_geom_bond_site_symmetry_2
In1 O1 1_555 1_555
O1 C2 1_555 1_555
O2 In1 1_555 1_555
C1 C2 1_555 1_555
C2 O2 1_555 1_555
C3 C1 1_555 1_555
H1 C3 1_555 1_555
In1T O1LA 1_555 1_555
In1I O1MA 1_555 1_555
In1O O1UA 1_555 1_555
In1D O1D 1_555 1_555
In1Q O1Q 1_555 1_555
In1G O1HA 1_555 1_555
In1J O1EA 1_555 1_555
In1F O1RA 1_555 1_555
O1LA C2LA 1_555 1_555
O1MA C2MA 1_555 1_555
O1A In1 1_555 1_555
O1UA C2UA 1_555 1_555
O1D C2D 1_555 1_555
O1B In1 1_555 1_555
O1Q C2Q 1_555 1_555
O1HA C2HA 1_555 1_555
O1AA In1 1_555 1_555
O1EA C2EA 1_555 1_555
O1RA C2RA 1_555 1_555
O1T In1T 1_555 1_555
O1DA In1T 1_555 1_555
O1IA In1T 1_555 1_555
O1I In1I 1_555 1_555
O1P In1I 1_555 1_555
O1W In1I 1_555 1_555
O2LA In1T 1_555 1_555
O2MA In1I 1_555 1_555
O2A In1 1_555 1_555
O2UA In1O 1_555 1_555
O2D In1D 1_555 1_555
O2B In1 1_555 1_555
O2Q In1Q 1_555 1_555
O2HA In1G 1_555 1_555
O2AA In1 1_555 1_555
O2EA In1J 1_555 1_555
O2RA In1F 1_555 1_555
O2T In1T 1_555 1_555
O2DA In1T 1_555 1_555
O2IA In1T 1_555 1_555
O2I In1I 1_555 1_555
O2P In1I 1_555 1_555
O2W In1I 1_555 1_555
C1LA C3 1_555 1_555
C1MA C2MA 1_555 1_555
C1A C2A 1_555 1_555
C1UA C2UA 1_555 1_555
C1D C2D 1_555 1_555
C1B C2B 1_555 1_555
C1Q C2Q 1_555 1_555
C1HA C2HA 1_555 1_555
C1AA C2AA 1_555 1_555
C1EA C2EA 1_555 1_555
C1RA C2RA 1_555 1_555
C2LA O2LA 1_555 1_555
C2MA O2MA 1_555 1_555
C2A O1A 1_555 1_555
C2UA O2UA 1_555 1_555
C2D O2D 1_555 1_555
C2B O1B 1_555 1_555
C2Q O2Q 1_555 1_555
C2HA O2HA 1_555 1_555
C2AA O1AA 1_555 1_555
C2EA O2EA 1_555 1_555
C2RA O2RA 1_555 1_555
C3LA C1LA 1_555 1_555
C3MA C1 1_555 1_555
C3A C1A 1_555 1_555
C3UA C1UA 1_555 1_555
C3D C1A 1_555 1_555
C3B C1B 1_555 1_555
C3Q C1Q 1_555 1_555
C3HA C1B 1_555 1_555
C3AA C1AA 1_555 1_555
C3EA C1EA 1_555 1_555
C3RA C1AA 1_555 1_555
H1MA C3MA 1_555 1_555
H1LA C3LA 1_555 1_555
H1A C3A 1_555 1_555
H1D C3D 1_555 1_555
H1UA C3UA 1_555 1_555
H1B C3B 1_555 1_555
H1HA C3HA 1_555 1_555
H1Q C3Q 1_555 1_555
H1AA C3AA 1_555 1_555
H1RA C3RA 1_555 1_555
H1EA C3EA 1_555 1_555
O2A C2A 1_555 1_555
O2B C2B 1_555 1_555
O2AA C2AA 1_555 1_555
C1LA C2LA 1_555 1_555
C1MA C3LA 1_555 1_555
C1MA C3MA 1_555 1_555
C1UA C3A 1_555 1_555
C1D C3UA 1_555 1_555
C1D C3D 1_555 1_555
C1Q C3B 1_555 1_555
C1HA C3Q 1_555 1_555
C1HA C3HA 1_555 1_555
C1EA C3AA 1_555 1_555
C1RA C3EA 1_555 1_555
C1RA C3RA 1_555 1_555

#END
