
#######################################################################
#
#                 Cambridge Crystallographic Data Centre
#                                CCDC 
#
#######################################################################
#
# If this CIF has been generated from an entry in the Cambridge 
# Structural Database, then it will include bibliographic, chemical, 
# crystal, experimental, refinement or atomic coordinate data resulting 
# from the CCDC's data processing and validation procedures.
#
#######################################################################

data_TILBIB01
_symmetry_cell_setting           triclinic
_symmetry_space_group_name_H-M   'P -1'
_symmetry_Int_Tables_number      2
_space_group_name_Hall           '-P 1'
loop_
_symmetry_equiv_pos_site_id
_symmetry_equiv_pos_as_xyz
1 x,y,z
2 -x,-y,-z
_cell_length_a                   18.6427(2)
_cell_length_b                   27.5425(3)
_cell_length_c                   29.4131(3)
_cell_angle_alpha                62.5750(10)
_cell_angle_beta                 89.2070(10)
_cell_angle_gamma                70.6390(10)
_cell_volume                     12472.2
loop_
_atom_site_label
_atom_site_type_symbol
_atom_site_fract_x
_atom_site_fract_y
_atom_site_fract_z
Fe1 Fe 0.72831(6) 0.79087(4) 0.18402(4)
N1 N 0.7694(4) 0.7832(3) 0.1246(2)
N2 N 0.8097(4) 0.7121(3) 0.2242(2)
N3 N 0.6536(4) 0.7539(3) 0.1860(2)
N4 N 0.6900(4) 0.7896(3) 0.2475(2)
N5 N 0.7937(4) 0.8353(3) 0.1824(2)
N6 N 0.6519(4) 0.8709(3) 0.1384(2)
C31 C 0.7499(5) 0.8213(4) 0.0735(3)
H11 H 0.7108 0.8588 0.0622
C32 C 0.7846(5) 0.8082(4) 0.0359(3)
H12 H 0.7701 0.8367 0.0002
C33 C 0.8400(5) 0.7536(4) 0.0514(3)
H13 H 0.8632 0.7438 0.0263
C34 C 0.8616(5) 0.7129(4) 0.1037(3)
C35 C 0.9195(5) 0.6548(4) 0.1243(4)
H14 H 0.9451 0.6426 0.1010
C36 C 0.9381(5) 0.6177(4) 0.1754(4)
H15 H 0.9751 0.5791 0.1874
C37 C 0.9044(5) 0.6340(3) 0.2124(4)
C38 C 0.9218(5) 0.5982(4) 0.2664(3)
H16 H 0.9574 0.5588 0.2814
C39 C 0.8868(5) 0.6206(4) 0.2973(3)
H17 H 0.9013 0.5978 0.3340
C40 C 0.8304(5) 0.6764(3) 0.2756(3)
H18 H 0.8052 0.6900 0.2982
C41 C 0.8468(4) 0.6909(3) 0.1930(3)
C42 C 0.8260(5) 0.7296(3) 0.1393(3)
C43 C 0.6378(5) 0.7345(4) 0.1547(3)
H19 H 0.6652 0.7387 0.1265
C44 C 0.5832(7) 0.7084(6) 0.1614(5)
H20 H 0.5734 0.6955 0.1382
C45 C 0.5441(9) 0.7019(8) 0.2020(6)
H21 H 0.5058 0.6851 0.2068
C46 C 0.5608(7) 0.7203(6) 0.2374(5)
C47 C 0.5223(9) 0.7161(7) 0.2816(5)
H22 H 0.4824 0.7007 0.2880
C48 C 0.5423(7) 0.7337(6) 0.3139(5)
H23 H 0.5185 0.7283 0.3437
C49 C 0.5988(6) 0.7604(4) 0.3035(4)
C50 C 0.6246(6) 0.7787(4) 0.3355(3)
H24 H 0.6011 0.7766 0.3649
C51 C 0.6820(6) 0.7989(4) 0.3247(3)
H25 H 0.7011 0.8094 0.3472
C52 C 0.7139(6) 0.8046(3) 0.2802(3)
H26 H 0.7542 0.8197 0.2728
C53 C 0.6341(5) 0.7671(4) 0.2597(3)
C54 C 0.6147(6) 0.7471(4) 0.2263(4)
C55 C 0.8662(5) 0.8159(4) 0.2048(3)
H27 H 0.8937 0.7746 0.2234
C56 C 0.9041(6) 0.8528(4) 0.2022(4)
H28 H 0.9550 0.8370 0.2204
C57 C 0.8660(7) 0.9124(4) 0.1728(4)
H29 H 0.8916 0.9381 0.1699
C58 C 0.7916(6) 0.9357(4) 0.1475(4)
C59 C 0.7473(8) 0.9957(4) 0.1158(4)
H30 H 0.7687 1.0241 0.1117
C60 C 0.6758(7) 1.0143(4) 0.0910(4)
H31 H 0.6487 1.0552 0.0693
C61 C 0.6392(6) 0.9744(4) 0.0964(3)
C62 C 0.5659(7) 0.9894(4) 0.0718(4)
H32 H 0.5358 1.0295 0.0487
C63 C 0.5364(6) 0.9454(5) 0.0810(4)
H33 H 0.4862 0.9555 0.0646
C64 C 0.5820(6) 0.8864(4) 0.1147(4)
H34 H 0.5620 0.8568 0.1207
C65 C 0.6799(5) 0.9139(3) 0.1295(3)
C66 C 0.7565(5) 0.8950(3) 0.1534(3)
Fe2 Fe 0.46562(6) 0.92375(4) 0.38839(4)
N7 N 0.5640(3) 0.9349(2) 0.3907(2)
N8 N 0.5319(4) 0.8393(3) 0.4258(2)
N9 N 0.4539(4) 0.9252(2) 0.4550(2)
N10 N 0.4033(3) 1.0075(2) 0.3591(2)
N11 N 0.4730(4) 0.9265(3) 0.3199(2)
N12 N 0.3728(4) 0.9067(3) 0.3827(2)
C67 C 0.5790(4) 0.9838(3) 0.3699(3)
H35 H 0.5377 1.0205 0.3509
C68 C 0.6543(5) 0.9831(3) 0.3751(3)
H36 H 0.6630 1.0191 0.3589
C69 C 0.7151(5) 0.9314(4) 0.4030(4)
H37 H 0.7659 0.9310 0.4065
C70 C 0.7007(5) 0.8794(4) 0.4264(4)
C71 C 0.7576(5) 0.8213(4) 0.4587(5)
H38 H 0.8092 0.8174 0.4663
C72 C 0.7406(5) 0.7732(4) 0.4780(5)
H39 H 0.7802 0.7361 0.4990
C73 C 0.6636(5) 0.7756(4) 0.4682(4)
C74 C 0.6427(5) 0.7262(4) 0.4862(4)
H40 H 0.6796 0.6876 0.5065
C75 C 0.5663(5) 0.7355(4) 0.4731(4)
H41 H 0.5504 0.7030 0.4845
C76 C 0.5133(5) 0.7919(3) 0.4436(3)
H42 H 0.4612 0.7970 0.4356
C77 C 0.6070(4) 0.8312(3) 0.4378(3)
C78 C 0.6246(4) 0.8828(3) 0.4180(3)
C79 C 0.4808(5) 0.8820(3) 0.5038(3)
H43 H 0.5061 0.8429 0.5097
C80 C 0.4734(5) 0.8919(4) 0.5468(3)
H44 H 0.4941 0.8600 0.5810
C81 C 0.4366(5) 0.9471(4) 0.5392(3)
H45 H 0.4311 0.9540 0.5681
C82 C 0.4066(5) 0.9939(4) 0.4888(3)
C83 C 0.3656(6) 1.0543(4) 0.4757(4)
H46 H 0.3579 1.0645 0.5027
C84 C 0.3379(5) 1.0967(4) 0.4260(4)
H47 H 0.3120 1.1362 0.4188
C85 C 0.3465(5) 1.0841(3) 0.3840(3)
C86 C 0.3168(5) 1.1256(3) 0.3318(3)
H48 H 0.2884 1.1656 0.3219
C87 C 0.3299(5) 1.1070(3) 0.2951(3)
H49 H 0.3098 1.1345 0.2595
C88 C 0.3722(4) 1.0483(3) 0.3098(3)
H50 H 0.3793 1.0368 0.2837
C89 C 0.3883(4) 1.0258(3) 0.3956(3)
C90 C 0.4178(5) 0.9808(3) 0.4481(3)
C91 C 0.5227(5) 0.9387(3) 0.2877(3)
H51 H 0.5623 0.9484 0.2973
C92 C 0.5201(6) 0.9382(4) 0.2407(3)
H52 H 0.5565 0.9481 0.2186
C93 C 0.4641(6) 0.9231(4) 0.2265(3)
H53 H 0.4622 0.9216 0.1950
C94 C 0.4104(6) 0.9101(4) 0.2587(3)
C95 C 0.3476(7) 0.8951(5) 0.2485(4)
H54 H 0.3427 0.8915 0.2182
C96 C 0.2956(6) 0.8861(5) 0.2806(4)
H55 H 0.2542 0.8774 0.2718
C97 C 0.3011(5) 0.8890(4) 0.3269(3)
C98 C 0.2484(5) 0.8805(4) 0.3621(4)
H56 H 0.2067 0.8705 0.3562
C99 C 0.2581(5) 0.8869(4) 0.4045(4)
H57 H 0.2218 0.8829 0.4277
C100 C 0.3217(5) 0.8993(3) 0.4142(3)
H58 H 0.3281 0.9025 0.4445
C101 C 0.3624(4) 0.9023(3) 0.3386(3)
C102 C 0.4166(5) 0.9130(3) 0.3052(3)
Fe3 Fe 0.96829(6) 0.25741(6) 0.17879(5)
N13 N 1.0571(4) 0.1868(4) 0.1915(3)
N14 N 0.9300(4) 0.1996(3) 0.2318(3)
N15 N 0.9232(4) 0.2540(3) 0.1201(3)
N16 N 1.0052(4) 0.3132(3) 0.1238(3)
N17 N 1.0110(4) 0.2655(4) 0.2348(3)
N18 N 0.8790(4) 0.3244(3) 0.1725(3)
C103 C 1.1185(5) 0.1817(5) 0.1685(4)
H59 H 1.1238 0.2166 0.1425
C104 C 1.1757(6) 0.1283(6) 0.1801(6)
H60 H 1.2180 0.1265 0.1617
C105 C 1.1692(7) 0.0776(7) 0.2193(7)
H61 H 1.2085 0.0405 0.2293
C106 C 1.1052(7) 0.0813(6) 0.2441(6)
C107 C 1.0904(9) 0.0310(7) 0.2835(7)
H62 H 1.1266 -0.0075 0.2939
C108 C 1.0265(9) 0.0374(6) 0.3057(6)
H63 H 1.0196 0.0036 0.3324
C109 C 0.9684(7) 0.0950(6) 0.2894(5)
C110 C 0.8987(8) 0.1068(6) 0.3098(5)
H64 H 0.8877 0.0753 0.3366
C111 C 0.8487(6) 0.1621(5) 0.2911(4)
H65 H 0.8025 0.1701 0.3050
C112 C 0.8648(5) 0.2075(5) 0.2513(3)
H66 H 0.8276 0.2463 0.2373
C113 C 0.9812(5) 0.1444(4) 0.2508(4)
C114 C 1.0495(6) 0.1367(5) 0.2284(4)
C115 C 0.8853(5) 0.2214(4) 0.1200(4)
H67 H 0.8743 0.1960 0.1521
C116 C 0.8606(5) 0.2226(4) 0.0749(4)
H68 H 0.8336 0.1981 0.0766
C117 C 0.8750(5) 0.2588(4) 0.0283(4)
H69 H 0.8591 0.2591 -0.0024
C118 C 0.9137(5) 0.2958(4) 0.0259(4)
C119 C 0.9302(6) 0.3386(5) -0.0205(4)
H70 H 0.9139 0.3431 -0.0532
C120 C 0.9675(6) 0.3722(5) -0.0192(4)
H71 H 0.9766 0.3999 -0.0508
C121 C 0.9940(5) 0.3670(4) 0.0288(4)
C122 C 1.0338(5) 0.3994(5) 0.0345(4)
H72 H 1.0437 0.4290 0.0047
C123 C 1.0582(5) 0.3883(5) 0.0822(4)
H73 H 1.0854 0.4102 0.0860
C124 C 1.0444(5) 0.3457(5) 0.1256(4)
H74 H 1.0635 0.3388 0.1587
C125 C 0.9810(4) 0.3237(4) 0.0755(4)
C126 C 0.9389(4) 0.2900(4) 0.0739(3)
C127 C 1.0808(6) 0.2373(6) 0.2637(4)
H75 H 1.1194 0.2109 0.2558
C128 C 1.0993(7) 0.2450(7) 0.3052(5)
H76 H 1.1502 0.2250 0.3243
C129 C 1.0442(8) 0.2812(7) 0.3184(5)
H77 H 1.0561 0.2845 0.3479
C130 C 0.9694(6) 0.3137(6) 0.2882(4)
C131 C 0.9071(7) 0.3547(7) 0.2960(5)
H78 H 0.9137 0.3593 0.3255
C132 C 0.8396(7) 0.3869(6) 0.2634(5)
H79 H 0.8005 0.4149 0.2693
C133 C 0.8258(6) 0.3791(5) 0.2184(5)
C134 C 0.7591(6) 0.4108(5) 0.1813(6)
H80 H 0.7171 0.4398 0.1841
C135 C 0.7545(5) 0.3998(4) 0.1406(4)
H81 H 0.7096 0.4219 0.1147
C136 C 0.8151(5) 0.3565(4) 0.1372(4)
H82 H 0.8110 0.3495 0.1087
C137 C 0.8857(5) 0.3365(4) 0.2120(4)
C138 C 0.9572(5) 0.3037(5) 0.2467(4)
N19 N 0.2604(7) 0.5974(5) 0.1328(5)
C139 C 0.2153(6) 0.5678(4) 0.1374(4)
C140 C 0.1556(8) 0.5697(6) 0.1658(4)
H83 H 0.1257 0.5471 0.1675
C141 C 0.1364(9) 0.6017(6) 0.1918(6)
H84 H 0.0948 0.6020 0.2108
C142 C 0.1822(8) 0.6335(7) 0.1880(6)
H85 H 0.1754 0.6574 0.2041
C143 C 0.2390(9) 0.6268(7) 0.1584(5)
H86 H 0.2702 0.6488 0.1560
C144 C 0.2279(8) 0.5301(6) 0.1110(5)
H87 H 0.2716 0.5326 0.0924
H88 H 0.1814 0.5442 0.0865
H89 H 0.2387 0.4891 0.1373
N20 N 0.9260(10) 0.0593(7) 0.1232(9)
C145 C 0.9439(12) 0.0342(8) 0.0934(8)
C146 C 1.0103(13) -0.0151(9) 0.1100(10)
H90 H 1.0270 -0.0354 0.0907
C147 C 1.0501(12) -0.0321(10) 0.1573(10)
H91 H 1.0961 -0.0661 0.1705
C148 C 1.0299(14) -0.0048(11) 0.1872(10)
H92 H 1.0613 -0.0194 0.2192
C149 C 0.9628(14) 0.0445(10) 0.1695(9)
H93 H 0.9447 0.0655 0.1880
C150 C 0.8946(17) 0.0574(13) 0.0413(9)
H94 H 0.8498 0.0924 0.0344
H95 H 0.8770 0.0270 0.0427
H96 H 0.9254 0.0675 0.0135
N21 N 1.1823(12) 0.0164(9) 0.5413(10)
C151 C 1.1892(10) -0.0133(8) 0.5929(10)
C152 C 1.1461(15) 0.0090(11) 0.6230(13)
H97 H 1.1537 -0.0145 0.6597
C153 C 1.0916(19) 0.0663(11) 0.5984(17)
H98 H 1.0613 0.0831 0.6173
C154 C 1.0843(19) 0.0973(16) 0.5445(17)
H99 H 1.0480 0.1365 0.5258
C155 C 1.1301(12) 0.0711(10) 0.5178(16)
H100 H 1.1237 0.0934 0.4811
C156 C 1.2486(11) -0.0772(7) 0.6231(12)
H101 H 1.2755 -0.0885 0.5987
H102 H 1.2217 -0.1039 0.6420
H103 H 1.2861 -0.0796 0.6478
O58 O 0.7498(15) 0.0657(11) 0.4993(10)
N22 N 0.3829(10) 0.7408(9) 0.5529(8)
H104 H 0.3652 0.7358 0.5284
C157 C 0.4436(9) 0.6974(8) 0.5870(6)
C158 C 0.4758(12) 0.7010(10) 0.6270(7)
H105 H 0.5194 0.6709 0.6523
C159 C 0.4364(12) 0.7541(9) 0.6254(9)
H106 H 0.4554 0.7594 0.6519
C160 C 0.3725(12) 0.8008(12) 0.5903(8)
H107 H 0.3489 0.8361 0.5920
C161 C 0.3467(15) 0.7910(11) 0.5526(10)
H108 H 0.3032 0.8201 0.5267
C162 C 0.4810(13) 0.6403(9) 0.5836(9)
H109 H 0.4531 0.6435 0.5537
H110 H 0.4786 0.6068 0.6155
H111 H 0.5349 0.6343 0.5793
N23 N -0.0020(13) 0.8467(10) 0.6125(8)
C163 C -0.0460(12) 0.9001(9) 0.6020(7)
C164 C -0.0225(15) 0.9466(12) 0.5725(8)
H112 H -0.0513 0.9863 0.5634
C165 C 0.0480(15) 0.9282(14) 0.5578(10)
H113 H 0.0671 0.9582 0.5374
C166 C 0.0947(19) 0.8713(12) 0.5690(10)
H114 H 0.1426 0.8627 0.5571
C167 C 0.0653(14) 0.8287(14) 0.5987(9)
H115 H 0.0922 0.7884 0.6087
C168 C -0.1238(12) 0.9147(12) 0.6208(10)
H116 H -0.1337 0.8785 0.6415
H117 H -0.1650 0.9418 0.5907
H118 H -0.1223 0.9332 0.6422
N24 N 0.9901(9) 0.7911(8) 0.0371(6)
C169 C 0.9473(8) 0.8441(7) -0.0003(6)
C170 C 0.9133(12) 0.8907(10) 0.0097(8)
H119 H 0.8824 0.9290 -0.0167
C171 C 0.9280(14) 0.8769(11) 0.0612(8)
H120 H 0.9071 0.9059 0.0717
C172 C 0.9739(12) 0.8199(10) 0.0968(10)
H121 H 0.9830 0.8118 0.1318
C173 C 1.0075(12) 0.7738(10) 0.0872(7)
H122 H 1.0388 0.7350 0.1127
C174 C 0.9319(12) 0.8577(10) -0.0572(6)
H123 H 0.9582 0.8220 -0.0598
H124 H 0.9513 0.8884 -0.0795
H125 H 0.8763 0.8714 -0.0685
N25 N 0.9235(12) 0.5830(8) 0.8014(11)
H126 H 0.9156 0.5864 0.8295
C175 C 0.9933(13) 0.5471(7) 0.8055(9)
C176 C 1.0102(18) 0.5390(10) 0.7633(10)
H127 H 1.0585 0.5144 0.7614
C177 C 0.9469(15) 0.5719(9) 0.7237(13)
H128 H 0.9557 0.5675 0.6937
C178 C 0.8728(16) 0.6103(10) 0.7192(13)
H129 H 0.8343 0.6305 0.6893
C179 C 0.8623(17) 0.6153(11) 0.7640(11)
H130 H 0.8154 0.6398 0.7675
C180 C 1.0549(15) 0.5148(9) 0.8541(10)
H131 H 1.0337 0.5255 0.8803
H132 H 1.0999 0.5260 0.8450
H133 H 1.0703 0.4722 0.8681
N26 N 0.793(2) 0.1904(13) 0.8488(12)
C181 C 0.7780(16) 0.1763(10) 0.8969(12)
C182 C 0.7206(19) 0.1539(14) 0.9182(13)
H134 H 0.7139 0.1451 0.9529
C183 C 0.673(2) 0.1442(16) 0.8893(18)
H135 H 0.6341 0.1289 0.9024
C184 C 0.689(3) 0.1592(15) 0.8391(19)
H136 H 0.6602 0.1544 0.8163
C185 C 0.748(2) 0.1810(15) 0.822(2)
H137 H 0.7558 0.1902 0.7872
C186 C 0.826(2) 0.1847(18) 0.9336(16)
H138 H 0.8644 0.2001 0.9157
H139 H 0.8519 0.1468 0.9648
H140 H 0.7915 0.2125 0.9436
N27 N 0.6825(18) -0.0332(12) 0.9664(14)
C187 C 0.7395(16) -0.0130(10) 0.9554(11)
C188 C 0.774(2) -0.0039(14) 0.9110(12)
H141 H 0.8142 0.0107 0.9054
C189 C 0.748(2) -0.0165(14) 0.8753(17)
H142 H 0.7687 -0.0113 0.8445
C190 C 0.688(2) -0.0375(13) 0.8884(16)
H143 H 0.6674 -0.0469 0.8654
C191 C 0.656(3) -0.0455(15) 0.9333(14)
H144 H 0.6153 -0.0599 0.9401
C192 C 0.773(3) 0.0024(18) 0.9931(15)
H145 H 0.7459 -0.0058 1.0231
H146 H 0.7655 0.0442 0.9749
H147 H 0.8279 -0.0214 1.0049
O59 O 0.4036(8) 0.5472(5) 0.1207(6)
O60 O 0.2241(14) 0.2301(10) 0.3966(9)
O61 O 0.2092(19) 0.3369(14) 0.3935(13)
O62 O 0.345(2) 0.2505(15) 0.3802(14)
O63 O 0.904(3) 0.0545(18) 0.5434(17)
Pr1 Pr 0.61680(2) 0.179357(15) 0.123389(14)
Pr2 Pr 0.34176(2) 0.235534(15) 0.122643(14)
Pr3 Pr 0.44105(2) 0.353435(15) -0.021733(13)
Pr4 Pr 0.47538(2) 0.348252(15) 0.142443(13)
Pr5 Pr 0.90192(2) 0.247269(17) 0.609351(15)
Pr6 Pr 0.75108(2) 0.413462(19) 0.446401(16)
Pr7 Pr 0.95093(2) 0.424623(16) 0.535398(15)
Pr8 Pr 0.71897(3) 0.42282(2) 0.605775(19)
Sb1 Sb 0.65385(3) 0.292797(19) 0.006777(17)
Sb2 Sb 0.68099(2) 0.286887(19) 0.132361(17)
Sb3 Sb 0.60696(3) 0.197940(19) 0.240685(17)
Sb4 Sb 0.50594(3) 0.113053(18) 0.225768(17)
Sb5 Sb 0.48049(3) 0.117516(18) 0.101559(18)
Sb6 Sb 0.55349(3) 0.20744(2) -0.009080(18)
Sb7 Sb 0.55204(3) 0.418947(18) 0.021472(17)
Sb8 Sb 0.40066(3) 0.240816(19) 0.240088(17)
Sb9 Sb 0.34762(3) 0.248052(19) -0.007918(17)
Sb10 Sb 0.34103(3) 0.463466(18) 0.019308(18)
Sb11 Sb 0.26720(3) 0.374574(19) 0.128837(18)
Sb12 Sb 0.24131(3) 0.377390(19) 0.006017(18)
Sb13 Sb 1.05761(3) 0.28490(2) 0.541018(19)
Sb14 Sb 0.86254(3) 0.28497(3) 0.714916(19)
Sb15 Sb 0.70992(3) 0.27531(3) 0.64760(2)
Sb16 Sb 0.73078(3) 0.27067(3) 0.52699(2)
Sb17 Sb 0.94814(3) 0.40748(2) 0.417153(19)
Sb18 Sb 0.80849(3) 0.53998(2) 0.416540(18)
Sb19 Sb 0.89711(3) 0.42046(2) 0.660623(19)
Sb20 Sb 0.63442(3) 0.53782(3) 0.46934(2)
Sb21 Sb 0.59452(3) 0.39919(3) 0.52743(2)
Sb22 Sb 0.90797(3) 0.27262(2) 0.47287(2)
Sb23 Sb 0.78640(3) 0.54866(2) 0.53370(2)
Sb24 Sb 1.03690(3) 0.29273(2) 0.659095(18)
Cl1 Cl 0.46735(9) 0.27829(6) 0.09178(6)
Cl2 Cl 0.72494(10) 0.15599(8) 0.05242(8)
Cl3 Cl 0.75712(10) 0.15368(8) 0.19179(7)
Cl4 Cl 0.36437(10) 0.10658(7) 0.17639(7)
Cl5 Cl 0.20814(10) 0.25108(8) 0.06277(7)
Cl6 Cl 0.23551(10) 0.25123(7) 0.19217(7)
Cl7 Cl 0.42012(11) 0.48082(8) -0.08069(7)
Cl8 Cl 0.71642(10) 0.37116(7) 0.02550(7)
Cl9 Cl 0.52339(11) 0.13129(7) 0.32189(6)
Cl10 Cl 0.44873(12) 0.14079(8) -0.01211(7)
Cl11 Cl 0.17241(10) 0.47964(8) 0.02497(8)
Cl12 Cl 0.82876(9) 0.37856(7) 0.54893(6)
Cl13 Cl 0.89515(13) 0.16376(11) 0.57402(10)
Cl14 Cl 0.86941(15) 0.16684(11) 0.70912(9)
Cl15 Cl 0.5862(5) 0.4917(5) 0.4023(3)
Cl16 Cl 0.99148(11) 0.50400(8) 0.56001(7)
Cl17 Cl 1.11791(10) 0.35851(8) 0.57766(7)
Cl18 Cl 0.5487(3) 0.4846(3) 0.5721(2)
Cl19 Cl 0.68902(13) 0.63345(9) 0.42911(9)
Cl20 Cl 0.97887(12) 0.30905(10) 0.75767(7)
Cl21 Cl 1.06418(12) 0.28738(10) 0.43801(8)
Cl22 Cl 0.59035(14) 0.27602(13) 0.58080(11)
O1 O 0.5713(3) 0.25900(19) 0.01622(18)
O2 O 0.6661(3) 0.25874(19) 0.08297(17)
O3 O 0.6029(3) 0.25270(19) 0.16571(17)
O4 O 0.5859(3) 0.14888(19) 0.21429(18)
O5 O 0.4991(3) 0.14578(19) 0.14940(17)
O6 O 0.5531(3) 0.15582(19) 0.06534(18)
O7 O 0.5629(3) 0.36354(18) -0.00515(17)
O8 O 0.5870(3) 0.36040(18) 0.09599(17)
O9 O 0.4994(3) 0.2540(2) 0.22588(18)
O10 O 0.4207(3) 0.18896(19) 0.20713(18)
O11 O 0.3903(3) 0.19124(18) 0.06672(17)
O12 O 0.4446(3) 0.26298(19) -0.02488(17)
O13 O 0.4512(3) 0.40816(19) 0.03850(18)
O14 O 0.3642(3) 0.30496(19) 0.16636(18)
O15 O 0.3308(3) 0.30668(18) 0.01682(17)
O16 O 0.3220(3) 0.41205(19) -0.00464(18)
O17 O 0.3398(3) 0.41237(19) 0.09391(18)
O18 O 0.2652(3) 0.34008(19) 0.08297(18)
O19 O 0.4614(3) 0.4558(2) 0.1079(2)
O20 O 0.9703(3) 0.2620(2) 0.5349(2)
O21 O 0.9975(3) 0.3054(2) 0.59075(18)
O22 O 0.9485(3) 0.2650(2) 0.67860(19)
O23 O 0.7961(3) 0.3011(3) 0.6531(2)
O24 O 0.7661(3) 0.2578(3) 0.5961(2)
O25 O 0.8179(3) 0.2983(3) 0.5052(2)
O26 O 0.6729(3) 0.3555(3) 0.5004(2)
O27 O 0.8825(3) 0.3593(2) 0.4323(2)
O28 O 0.8679(3) 0.4542(2) 0.44166(18)
O29 O 0.6562(3) 0.4504(3) 0.5075(2)
O30 O 0.7200(3) 0.5135(2) 0.43473(19)
O31 O 0.9998(3) 0.36864(19) 0.49112(18)
O32 O 0.9706(3) 0.3774(2) 0.63073(18)
O33 O 0.8393(3) 0.4652(2) 0.5886(2)
O34 O 0.8434(3) 0.5167(2) 0.48931(19)
O35 O 0.8330(3) 0.3722(2) 0.6748(2)
O36 O 0.6581(3) 0.3596(2) 0.5969(2)
O37 O 0.7027(3) 0.5209(3) 0.5307(2)
S1 S 0.75936(10) -0.08052(7) 0.28341(7)
O38 O 0.6727(3) 0.07699(19) 0.16621(19)
O39 O 0.6132(3) 0.0219(2) 0.2219(2)
O40 O 0.9731(3) -0.1703(2) 0.3520(2)
O41 O 0.8750(4) -0.1984(3) 0.3495(3)
C1 C 0.6720(4) 0.0327(3) 0.2066(3)
C2 C 0.7486(4) -0.0106(3) 0.2382(3)
C3 C 0.8169(5) -0.0020(3) 0.2373(4)
H1 H 0.8222 0.0344 0.2151
C4 C 0.8781(5) -0.0526(3) 0.2725(4)
H2 H 0.9295 -0.0543 0.2766
C5 C 0.8559(4) -0.0985(3) 0.2999(3)
C6 C 0.9062(5) -0.1608(3) 0.3377(3)
C7 C 0.3702(4) 0.3776(3) 0.2293(3)
C8 C 0.3518(3) 0.4108(2) 0.25911(19)
C9 C 0.3202(4) 0.4632(3) 0.3086(3)
S2 S 0.3162(3) 0.39557(17) 0.31450(14)
O42 O 0.3971(6) 0.3902(4) 0.1913(3)
O43 O 0.3605(7) 0.3277(4) 0.2585(3)
O44 O 0.2899(9) 0.5161(6) 0.3535(6)
O45 O 0.2655(8) 0.4338(5) 0.3926(4)
C10 C 0.3647(6) 0.4633(4) 0.2405(4)
H3 H 0.3849 0.4779 0.2091
C11 C 0.3482(6) 0.4940(5) 0.2678(4)
H4 H 0.3553 0.5297 0.2593
C12 C 0.2903(6) 0.4689(5) 0.3569(4)
S3 S 0.72306(13) 0.29835(11) 0.31362(9)
O46 O 0.5672(4) 0.3500(2) 0.1980(2)
O47 O 0.6827(4) 0.2805(4) 0.2273(3)
O48 O 0.8016(4) 0.2900(4) 0.4061(3)
O49 O 0.7159(4) 0.3701(4) 0.4013(3)
C13 C 0.6301(5) 0.3227(4) 0.2267(3)
C14 C 0.6451(5) 0.3410(4) 0.2650(3)
C15 C 0.5994(7) 0.3898(5) 0.2678(4)
H5 H 0.5531 0.4187 0.2447
C16 C 0.6316(7) 0.3903(6) 0.3102(5)
H6 H 0.6082 0.4210 0.3183
C17 C 0.6963(6) 0.3460(5) 0.3384(4)
C18 C 0.7426(6) 0.3329(6) 0.3870(4)
S4 S 0.7689(4) 0.5752(3) 0.21745(15)
O50 O 0.7513(6) 0.4849(5) 0.3566(4)
O51 O 0.8625(5) 0.4860(4) 0.3285(3)
O52 O 0.6645(7) 0.6079(5) 0.0872(5)
O53 O 0.7293(7) 0.6568(4) 0.1000(4)
C19 C 0.7897(6) 0.5016(6) 0.3213(4)
C20 C 0.7438(6) 0.5233(3) 0.2680(4)
C21 C 0.6865(7) 0.5127(5) 0.2493(4)
H7 H 0.6641 0.4856 0.2712
C22 C 0.6644(7) 0.5449(5) 0.1958(4)
H8 H 0.6257 0.5425 0.1772
C23 C 0.7053(6) 0.5804(4) 0.1732(3)
C24 C 0.7018(9) 0.6173(5) 0.1154(3)
S5 S 0.6317(3) 0.3099(2) 0.81742(16)
O54 O 0.6620(10) 0.3954(7) 0.6745(5)
O55 O 0.7106(13) 0.2994(6) 0.7330(8)
O56 O 0.5006(8) 0.3665(5) 0.9020(5)
O57 O 0.5856(9) 0.2794(5) 0.9150(5)
C25 C 0.6614(8) 0.3507(6) 0.7145(5)
C26 C 0.6172(6) 0.3646(5) 0.7548(3)
C27 C 0.5670(9) 0.4138(9) 0.7497(7)
H9 H 0.5522 0.4488 0.7171
C28 C 0.5366(9) 0.4142(8) 0.7917(6)
H10 H 0.5001 0.4475 0.7922
C29 C 0.5672(6) 0.3584(5) 0.8335(4)
C30 C 0.5528(8) 0.3342(6) 0.8903(5)
Pr3_2 Pr 0.44105(2) 0.353435(15) 0.978267(13)
Pr3A Pr 0.55895(2) 0.646565(15) 0.021733(13)
Pr5A Pr 1.09808(2) -0.247269(17) 0.390649(15)
Pr7A Pr 1.04907(2) 0.575377(16) 0.464602(15)
Pr8A Pr 0.28103(3) 0.57718(2) 0.394225(19)
Sb6_2 Sb 0.55349(3) 0.20744(2) 0.990920(18)
Sb23A Sb 0.21360(3) 0.45134(2) 0.46630(2)
Cl16A Cl 1.00852(11) 0.49600(8) 0.43999(7)
O40A O 1.0269(3) 0.1703(2) 0.6480(2)
O44A O 0.7101(9) 0.4839(6) 0.6465(6)
O45A O 0.7345(8) 0.5662(5) 0.6074(4)
O52A O 0.3355(7) 0.3921(5) -0.0872(5)
O56_2 O 0.5006(8) 0.3665(5) -0.0980(5)
O57_2 O 0.5856(9) 0.2794(5) -0.0850(5)
O64? O 0.6149(10) 0.4704(12) 0.3952(9)
O65? O 0.5631(11) 0.5040(8) 0.5768(7)
S6? S 0.2722(4) 0.4483(3) 0.2716(3)
O66? O 0.4270(9) 0.3720(13) 0.2068(9)
O67? O 0.3035(7) 0.3841(10) 0.2113(8)
O68? O 0.3106(16) 0.5227(17) 0.3504(17)
O69? O 0.2052(15) 0.5129(11) 0.3262(10)
C193? C 0.4143(12) 0.4125(9) 0.2829(6)
H148? H 0.4656 0.3934 0.2800
C194? C 0.3993(7) 0.4429(8) 0.3109(8)
H149? H 0.4360 0.4486 0.3282
C195? C 0.2762(15) 0.5021(5) 0.3320(7)
S7? S 0.8017(4) 0.5443(4) 0.2146(2)
O70? O 0.7486(11) 0.4611(7) 0.3571(7)
O71? O 0.7993(14) 0.5305(9) 0.3307(7)
O72? O 0.6475(7) 0.6217(9) 0.0914(8)
O73? O 0.7750(7) 0.5957(8) 0.0954(5)
C196? C 0.7803(14) 0.4930(9) 0.3252(6)
C197? C 0.7525(10) 0.5269(4) 0.2660(6)
C198? C 0.6757(11) 0.5359(7) 0.2572(6)
H150? H 0.6407 0.5286 0.2810
C199? C 0.6642(11) 0.5584(7) 0.2042(6)
H151? H 0.6140 0.5688 0.1876
C200? C 0.7196(7) 0.5670(6) 0.1736(5)
C201? C 0.7151(8) 0.5969(11) 0.1151(4)
Cl23? Cl 0.5370(5) 0.3416(3) -0.1009(3)
Cl24? Cl 0.6741(7) 0.3496(7) 0.7078(6)
N28? N 1.1361(14) 0.0212(11) 0.5940(11)
C202? C 1.1727(10) 0.0186(9) 0.5554(10)
C203? C 1.1657(14) 0.0679(9) 0.5077(11)
H152? H 1.1923 0.0653 0.4806
C204? C 1.1165(14) 0.1212(12) 0.5032(16)
H153? H 1.1079 0.1571 0.4723
C205? C 1.0801(18) 0.1205(15) 0.5453(14)
H154? H 1.0469 0.1572 0.5416
C206? C 1.0887(18) 0.0704(11) 0.5922(15)
H155? H 1.0633 0.0713 0.6202
C207? C 1.2271(13) -0.0413(8) 0.5616(13)
H156? H 1.2282 -0.0729 0.5961
H157? H 1.2793 -0.0409 0.5578
H158? H 1.2083 -0.0481 0.5349
N29? N 0.6223(13) 0.0781(10) 0.8758(8)
C208? C 0.6640(12) 0.0283(9) 0.9160(9)
C209? C 0.6929(16) 0.0302(12) 0.9577(9)
H159? H 0.7237 -0.0039 0.9884
C210? C 0.6731(17) 0.0863(12) 0.9509(11)
H160? H 0.6908 0.0917 0.9777
C211? C 0.6279(16) 0.1347(11) 0.9058(12)
H161? H 0.6161 0.1720 0.9039
C212? C 0.5983(16) 0.1344(9) 0.8635(10)
H162? H 0.5674 0.1674 0.8322
C213? C 0.682(2) -0.0315(10) 0.9184(14)
H163? H 0.6556 -0.0258 0.8866
H164? H 0.6638 -0.0566 0.9486
H165? H 0.7376 -0.0505 0.9214
O74? O 0.2776(16) 0.2622(11) 0.3435(10)
loop_
_geom_bond_atom_site_label_1
_geom_bond_atom_site_label_2
_geom_bond_site_symmetry_1
_geom_bond_site_symmetry_2
Pr1 Cl1 1_555 1_555
Pr2 Cl1 1_555 1_555
Pr3 Cl1 1_555 1_555
Pr4 Cl1 1_555 1_555
Pr5 Cl12 1_555 1_555
Pr6 Cl12 1_555 1_555
Pr7 Cl12 1_555 1_555
Pr8 Cl12 1_555 1_555
Sb1 Cl8 1_555 1_555
Sb2 Cl3 1_555 1_555
Sb3 Cl9 1_555 1_555
Sb4 O4 1_555 1_555
Sb5 O5 1_555 1_555
Sb6 O1 1_555 1_555
Sb7 Cl8 1_555 1_555
Sb8 Cl9 1_555 1_555
Sb9 Cl10 1_555 1_555
Sb10 Cl11 1_555 1_555
Sb11 O14 1_555 1_555
Sb12 Cl11 1_555 1_555
Sb13 Cl21 1_555 1_555
Sb14 Cl20 1_555 1_555
Sb15 Cl22 1_555 1_555
Sb16 Cl22 1_555 1_555
Sb17 O27 1_555 1_555
Sb18 Cl19 1_555 1_555
Sb19 Cl20 1_555 1_555
Sb20 Cl19 1_555 1_555
Sb21 Cl22 1_555 1_555
Sb22 O20 1_555 1_555
Sb23 Cl19 1_555 1_555
Sb24 Cl17 1_555 1_555
Cl2 Pr1 1_555 1_555
Cl3 Pr1 1_555 1_555
Cl4 Pr2 1_555 1_555
Cl5 Pr2 1_555 1_555
Cl6 Pr2 1_555 1_555
Cl7 Pr3 1_555 1_555
Cl13 Pr5 1_555 1_555
Cl14 Pr5 1_555 1_555
Cl15 Pr6 1_555 1_555
Cl16 Pr7 1_555 1_555
Cl17 Pr7 1_555 1_555
Cl18 Pr8 1_555 1_555
O1 Pr1 1_555 1_555
O2 Pr1 1_555 1_555
O3 Pr1 1_555 1_555
O4 Pr1 1_555 1_555
O5 Pr1 1_555 1_555
O6 Pr1 1_555 1_555
O7 Pr3 1_555 1_555
O8 Pr4 1_555 1_555
O9 Pr4 1_555 1_555
O10 Pr2 1_555 1_555
O11 Pr2 1_555 1_555
O12 Pr3 1_555 1_555
O13 Pr3 1_555 1_555
O14 Pr2 1_555 1_555
O15 Pr2 1_555 1_555
O16 Pr3 1_555 1_555
O17 Pr4 1_555 1_555
O18 Pr2 1_555 1_555
O19 Pr4 1_555 1_555
O20 Pr5 1_555 1_555
O21 Pr5 1_555 1_555
O22 Pr5 1_555 1_555
O23 Pr5 1_555 1_555
O24 Pr5 1_555 1_555
O25 Pr5 1_555 1_555
O26 Pr6 1_555 1_555
O27 Pr6 1_555 1_555
O28 Pr6 1_555 1_555
O29 Pr6 1_555 1_555
O30 Pr6 1_555 1_555
O31 Pr7 1_555 1_555
O32 Pr7 1_555 1_555
O33 Pr7 1_555 1_555
O34 Pr7 1_555 1_555
O35 Pr8 1_555 1_555
O36 Pr8 1_555 1_555
O37 Pr8 1_555 1_555
S1 C2 1_555 1_555
O38 Pr1 1_555 1_555
O39 C1 1_555 1_555
O40 C6 1_555 1_555
O41 C6 1_555 1_555
C1 O38 1_555 1_555
C2 C1 1_555 1_555
C3 C2 1_555 1_555
H1 C3 1_555 1_555
C4 C3 1_555 1_555
H2 C4 1_555 1_555
C5 S1 1_555 1_555
C6 C5 1_555 1_555
C7 C8 1_555 1_555
C8 S2 1_555 1_555
C9 S2 1_555 1_555
O42 Pr4 1_555 1_555
O43 Sb8 1_555 1_555
O44 C12 1_555 1_555
O45 C12 1_555 1_555
C10 C8 1_555 1_555
H3 C10 1_555 1_555
C11 C9 1_555 1_555
H4 C11 1_555 1_555
C12 C9 1_555 1_555
S3 C14 1_555 1_555
O46 Pr4 1_555 1_555
O47 C13 1_555 1_555
O48 Sb22 1_555 1_555
O49 Pr6 1_555 1_555
C13 O46 1_555 1_555
C14 C13 1_555 1_555
C15 C14 1_555 1_555
H5 C15 1_555 1_555
C16 C15 1_555 1_555
H6 C16 1_555 1_555
C17 S3 1_555 1_555
C18 O48 1_555 1_555
S4 C20 1_555 1_555
O50 Pr6 1_555 1_555
O51 Sb17 1_555 1_555
O52 C24 1_555 1_555
O53 C24 1_555 1_555
C19 O50 1_555 1_555
C20 C19 1_555 1_555
C21 C20 1_555 1_555
H7 C21 1_555 1_555
C22 C21 1_555 1_555
H8 C22 1_555 1_555
C23 S4 1_555 1_555
C24 C23 1_555 1_555
S5 C26 1_555 1_555
O54 Pr8 1_555 1_555
O55 C25 1_555 1_555
O56 C30 1_555 1_555
O57 C30 1_555 1_555
C25 O54 1_555 1_555
C26 C25 1_555 1_555
C27 C26 1_555 1_555
H9 C27 1_555 1_555
C28 C27 1_555 1_555
H10 C28 1_555 1_555
C29 S5 1_555 1_555
C30 C29 1_555 1_555
Fe1 N1 1_555 1_555
N1 C31 1_555 1_555
N2 Fe1 1_555 1_555
N3 Fe1 1_555 1_555
N4 Fe1 1_555 1_555
N5 Fe1 1_555 1_555
N6 Fe1 1_555 1_555
C31 H11 1_555 1_555
C32 C31 1_555 1_555
H12 C32 1_555 1_555
C33 C32 1_555 1_555
H13 C33 1_555 1_555
C34 C33 1_555 1_555
C35 C34 1_555 1_555
H14 C35 1_555 1_555
C36 C35 1_555 1_555
H15 C36 1_555 1_555
C37 C36 1_555 1_555
C38 C37 1_555 1_555
H16 C38 1_555 1_555
C39 C38 1_555 1_555
H17 C39 1_555 1_555
C40 N2 1_555 1_555
H18 C40 1_555 1_555
C41 N2 1_555 1_555
C42 N1 1_555 1_555
C43 N3 1_555 1_555
H19 C43 1_555 1_555
C44 C43 1_555 1_555
H20 C44 1_555 1_555
C45 C44 1_555 1_555
H21 C45 1_555 1_555
C46 C45 1_555 1_555
C47 C46 1_555 1_555
H22 C47 1_555 1_555
C48 C47 1_555 1_555
H23 C48 1_555 1_555
C49 C48 1_555 1_555
C50 C49 1_555 1_555
H24 C50 1_555 1_555
C51 C50 1_555 1_555
H25 C51 1_555 1_555
C52 N4 1_555 1_555
H26 C52 1_555 1_555
C53 N4 1_555 1_555
C54 N3 1_555 1_555
C55 N5 1_555 1_555
H27 C55 1_555 1_555
C56 C55 1_555 1_555
H28 C56 1_555 1_555
C57 C56 1_555 1_555
H29 C57 1_555 1_555
C58 C57 1_555 1_555
C59 C58 1_555 1_555
H30 C59 1_555 1_555
C60 C59 1_555 1_555
H31 C60 1_555 1_555
C61 C60 1_555 1_555
C62 C61 1_555 1_555
H32 C62 1_555 1_555
C63 C62 1_555 1_555
H33 C63 1_555 1_555
C64 N6 1_555 1_555
H34 C64 1_555 1_555
C65 N6 1_555 1_555
C66 N5 1_555 1_555
Fe2 N7 1_555 1_555
N7 C67 1_555 1_555
N8 Fe2 1_555 1_555
N9 Fe2 1_555 1_555
N10 Fe2 1_555 1_555
N11 Fe2 1_555 1_555
N12 Fe2 1_555 1_555
C67 H35 1_555 1_555
C68 C67 1_555 1_555
H36 C68 1_555 1_555
C69 C68 1_555 1_555
H37 C69 1_555 1_555
C70 C69 1_555 1_555
C71 C70 1_555 1_555
H38 C71 1_555 1_555
C72 C71 1_555 1_555
H39 C72 1_555 1_555
C73 C72 1_555 1_555
C74 C73 1_555 1_555
H40 C74 1_555 1_555
C75 C74 1_555 1_555
H41 C75 1_555 1_555
C76 N8 1_555 1_555
H42 C76 1_555 1_555
C77 N8 1_555 1_555
C78 N7 1_555 1_555
C79 N9 1_555 1_555
H43 C79 1_555 1_555
C80 C79 1_555 1_555
H44 C80 1_555 1_555
C81 C80 1_555 1_555
H45 C81 1_555 1_555
C82 C81 1_555 1_555
C83 C82 1_555 1_555
H46 C83 1_555 1_555
C84 C83 1_555 1_555
H47 C84 1_555 1_555
C85 C84 1_555 1_555
C86 C85 1_555 1_555
H48 C86 1_555 1_555
C87 C86 1_555 1_555
H49 C87 1_555 1_555
C88 N10 1_555 1_555
H50 C88 1_555 1_555
C89 N10 1_555 1_555
C90 N9 1_555 1_555
C91 N11 1_555 1_555
H51 C91 1_555 1_555
C92 C91 1_555 1_555
H52 C92 1_555 1_555
C93 C92 1_555 1_555
H53 C93 1_555 1_555
C94 C93 1_555 1_555
C95 C94 1_555 1_555
H54 C95 1_555 1_555
C96 C95 1_555 1_555
H55 C96 1_555 1_555
C97 C96 1_555 1_555
C98 C97 1_555 1_555
H56 C98 1_555 1_555
C99 C98 1_555 1_555
H57 C99 1_555 1_555
C100 N12 1_555 1_555
H58 C100 1_555 1_555
C101 N12 1_555 1_555
C102 N11 1_555 1_555
Fe3 N13 1_555 1_555
N13 C103 1_555 1_555
N14 Fe3 1_555 1_555
N15 Fe3 1_555 1_555
N16 Fe3 1_555 1_555
N17 Fe3 1_555 1_555
N18 Fe3 1_555 1_555
C103 H59 1_555 1_555
C104 C103 1_555 1_555
H60 C104 1_555 1_555
C105 C104 1_555 1_555
H61 C105 1_555 1_555
C106 C105 1_555 1_555
C107 C106 1_555 1_555
H62 C107 1_555 1_555
C108 C107 1_555 1_555
H63 C108 1_555 1_555
C109 C108 1_555 1_555
C110 C109 1_555 1_555
H64 C110 1_555 1_555
C111 C110 1_555 1_555
H65 C111 1_555 1_555
C112 N14 1_555 1_555
H66 C112 1_555 1_555
C113 N14 1_555 1_555
C114 N13 1_555 1_555
C115 N15 1_555 1_555
H67 C115 1_555 1_555
C116 C115 1_555 1_555
H68 C116 1_555 1_555
C117 C116 1_555 1_555
H69 C117 1_555 1_555
C118 C117 1_555 1_555
C119 C118 1_555 1_555
H70 C119 1_555 1_555
C120 C119 1_555 1_555
H71 C120 1_555 1_555
C121 C120 1_555 1_555
C122 C121 1_555 1_555
H72 C122 1_555 1_555
C123 C122 1_555 1_555
H73 C123 1_555 1_555
C124 N16 1_555 1_555
H74 C124 1_555 1_555
C125 N16 1_555 1_555
C126 N15 1_555 1_555
C127 N17 1_555 1_555
H75 C127 1_555 1_555
C128 C127 1_555 1_555
H76 C128 1_555 1_555
C129 C128 1_555 1_555
H77 C129 1_555 1_555
C130 C129 1_555 1_555
C131 C130 1_555 1_555
H78 C131 1_555 1_555
C132 C131 1_555 1_555
H79 C132 1_555 1_555
C133 C132 1_555 1_555
C134 C133 1_555 1_555
H80 C134 1_555 1_555
C135 C134 1_555 1_555
H81 C135 1_555 1_555
C136 N18 1_555 1_555
H82 C136 1_555 1_555
C137 N18 1_555 1_555
C138 N17 1_555 1_555
N19 C139 1_555 1_555
C139 C140 1_555 1_555
C140 H83 1_555 1_555
C141 C140 1_555 1_555
H84 C141 1_555 1_555
C142 C141 1_555 1_555
H85 C142 1_555 1_555
C143 N19 1_555 1_555
H86 C143 1_555 1_555
C144 C139 1_555 1_555
H87 C144 1_555 1_555
H88 C144 1_555 1_555
H89 C144 1_555 1_555
N20 C145 1_555 1_555
C145 C146 1_555 1_555
C146 H90 1_555 1_555
C147 C146 1_555 1_555
H91 C147 1_555 1_555
C148 C147 1_555 1_555
H92 C148 1_555 1_555
C149 N20 1_555 1_555
H93 C149 1_555 1_555
C150 C145 1_555 1_555
H94 C150 1_555 1_555
H95 C150 1_555 1_555
H96 C150 1_555 1_555
N21 C151 1_555 1_555
C151 C152 1_555 1_555
C152 H97 1_555 1_555
C153 C152 1_555 1_555
H98 C153 1_555 1_555
C154 C153 1_555 1_555
H99 C154 1_555 1_555
C155 N21 1_555 1_555
H100 C155 1_555 1_555
C156 C151 1_555 1_555
H101 C156 1_555 1_555
H102 C156 1_555 1_555
H103 C156 1_555 1_555
N22 H104 1_555 1_555
C157 N22 1_555 1_555
C158 C157 1_555 1_555
H105 C158 1_555 1_555
C159 C158 1_555 1_555
H106 C159 1_555 1_555
C160 C159 1_555 1_555
H107 C160 1_555 1_555
C161 N22 1_555 1_555
H108 C161 1_555 1_555
C162 C157 1_555 1_555
H109 C162 1_555 1_555
H110 C162 1_555 1_555
H111 C162 1_555 1_555
N23 C163 1_555 1_555
C163 C164 1_555 1_555
C164 H112 1_555 1_555
C165 C164 1_555 1_555
H113 C165 1_555 1_555
C166 C165 1_555 1_555
H114 C166 1_555 1_555
C167 N23 1_555 1_555
H115 C167 1_555 1_555
C168 C163 1_555 1_555
H116 C168 1_555 1_555
H117 C168 1_555 1_555
H118 C168 1_555 1_555
N24 C169 1_555 1_555
C169 C170 1_555 1_555
C170 H119 1_555 1_555
C171 C170 1_555 1_555
H120 C171 1_555 1_555
C172 C171 1_555 1_555
H121 C172 1_555 1_555
C173 N24 1_555 1_555
H122 C173 1_555 1_555
C174 C169 1_555 1_555
H123 C174 1_555 1_555
H124 C174 1_555 1_555
H125 C174 1_555 1_555
N25 H126 1_555 1_555
C175 N25 1_555 1_555
C176 C175 1_555 1_555
H127 C176 1_555 1_555
C177 C176 1_555 1_555
H128 C177 1_555 1_555
C178 C177 1_555 1_555
H129 C178 1_555 1_555
C179 N25 1_555 1_555
H130 C179 1_555 1_555
C180 C175 1_555 1_555
H131 C180 1_555 1_555
H132 C180 1_555 1_555
H133 C180 1_555 1_555
N26 C181 1_555 1_555
C181 C182 1_555 1_555
C182 H134 1_555 1_555
C183 C182 1_555 1_555
H135 C183 1_555 1_555
C184 C183 1_555 1_555
H136 C184 1_555 1_555
C185 N26 1_555 1_555
H137 C185 1_555 1_555
C186 C181 1_555 1_555
H138 C186 1_555 1_555
H139 C186 1_555 1_555
H140 C186 1_555 1_555
N27 C187 1_555 1_555
C187 C188 1_555 1_555
C188 H141 1_555 1_555
C189 C188 1_555 1_555
H142 C189 1_555 1_555
C190 C189 1_555 1_555
H143 C190 1_555 1_555
C191 N27 1_555 1_555
H144 C191 1_555 1_555
C192 C187 1_555 1_555
H145 C192 1_555 1_555
H146 C192 1_555 1_555
H147 C192 1_555 1_555
Pr3_2 O56 1_555 1_555
Pr3A O52 1_555 1_555
Pr5A O40 1_555 1_555
Pr7A Cl16 1_555 1_555
Pr8A O44 1_555 1_555
Sb6_2 O57 1_555 1_555
Sb23A O45 1_555 1_555
Cl16A Pr7 1_555 1_555
O40A Pr5 1_555 1_555
O44A Pr8 1_555 1_555
O45A Sb23 1_555 1_555
O52A Pr3 1_555 1_555
O56_2 Pr3 1_555 1_555
O57_2 Sb6 1_555 1_555
Pr3 O1 1_555 1_555
Pr3 O15 1_555 1_555
Pr4 O3 1_555 1_555
Pr4 O13 1_555 1_555
Pr4 O14 1_555 1_555
Pr6 O25 1_555 1_555
Pr7 O21 1_555 1_555
Pr7 O28 1_555 1_555
Pr8 O23 1_555 1_555
Pr8 O29 1_555 1_555
Pr8 O33 1_555 1_555
Sb1 O1 1_555 1_555
Sb1 O2 1_555 1_555
Sb1 O7 1_555 1_555
Sb2 O2 1_555 1_555
Sb2 O3 1_555 1_555
Sb2 O8 1_555 1_555
Sb3 O3 1_555 1_555
Sb3 O4 1_555 1_555
Sb3 O9 1_555 1_555
Sb4 O5 1_555 1_555
Sb4 O10 1_555 1_555
Sb5 O6 1_555 1_555
Sb5 O11 1_555 1_555
Sb6 O6 1_555 1_555
Sb6 O12 1_555 1_555
Sb7 O7 1_555 1_555
Sb7 O8 1_555 1_555
Sb7 O13 1_555 1_555
Sb8 O9 1_555 1_555
Sb8 O10 1_555 1_555
Sb8 O14 1_555 1_555
Sb9 O11 1_555 1_555
Sb9 O12 1_555 1_555
Sb9 O15 1_555 1_555
Sb10 O13 1_555 1_555
Sb10 O16 1_555 1_555
Sb10 O17 1_555 1_555
Sb11 O17 1_555 1_555
Sb11 O18 1_555 1_555
Sb12 O15 1_555 1_555
Sb12 O16 1_555 1_555
Sb12 O18 1_555 1_555
Sb13 O20 1_555 1_555
Sb13 O21 1_555 1_555
Sb13 O31 1_555 1_555
Sb14 O22 1_555 1_555
Sb14 O23 1_555 1_555
Sb14 O35 1_555 1_555
Sb15 O23 1_555 1_555
Sb15 O24 1_555 1_555
Sb15 O36 1_555 1_555
Sb16 O24 1_555 1_555
Sb16 O25 1_555 1_555
Sb16 O26 1_555 1_555
Sb17 O28 1_555 1_555
Sb17 O31 1_555 1_555
Sb18 O28 1_555 1_555
Sb18 O30 1_555 1_555
Sb18 O34 1_555 1_555
Sb19 O32 1_555 1_555
Sb19 O33 1_555 1_555
Sb19 O35 1_555 1_555
Sb20 O29 1_555 1_555
Sb20 O30 1_555 1_555
Sb20 O37 1_555 1_555
Sb21 O26 1_555 1_555
Sb21 O29 1_555 1_555
Sb21 O36 1_555 1_555
Sb22 O25 1_555 1_555
Sb22 O27 1_555 1_555
Sb23 O33 1_555 1_555
Sb23 O34 1_555 1_555
Sb23 O37 1_555 1_555
Sb24 O21 1_555 1_555
Sb24 O22 1_555 1_555
Sb24 O32 1_555 1_555
C4 C5 1_555 1_555
C7 O42 1_555 1_555
C7 O43 1_555 1_555
C10 C11 1_555 1_555
O49 C18 1_555 1_555
C16 C17 1_555 1_555
C17 C18 1_555 1_555
O51 C19 1_555 1_555
C22 C23 1_555 1_555
C28 C29 1_555 1_555
C34 C42 1_555 1_555
C37 C41 1_555 1_555
C39 C40 1_555 1_555
C41 C42 1_555 1_555
C46 C54 1_555 1_555
C49 C53 1_555 1_555
C51 C52 1_555 1_555
C53 C54 1_555 1_555
C58 C66 1_555 1_555
C61 C65 1_555 1_555
C63 C64 1_555 1_555
C65 C66 1_555 1_555
C70 C78 1_555 1_555
C73 C77 1_555 1_555
C75 C76 1_555 1_555
C77 C78 1_555 1_555
C82 C90 1_555 1_555
C85 C89 1_555 1_555
C87 C88 1_555 1_555
C89 C90 1_555 1_555
C94 C102 1_555 1_555
C97 C101 1_555 1_555
C99 C100 1_555 1_555
C101 C102 1_555 1_555
C106 C114 1_555 1_555
C109 C113 1_555 1_555
C111 C112 1_555 1_555
C113 C114 1_555 1_555
C118 C126 1_555 1_555
C121 C125 1_555 1_555
C123 C124 1_555 1_555
C125 C126 1_555 1_555
C130 C138 1_555 1_555
C133 C137 1_555 1_555
C135 C136 1_555 1_555
C137 C138 1_555 1_555
C142 C143 1_555 1_555
C148 C149 1_555 1_555
C154 C155 1_555 1_555
C160 C161 1_555 1_555
C166 C167 1_555 1_555
C172 C173 1_555 1_555
C178 C179 1_555 1_555
C184 C185 1_555 1_555
C190 C191 1_555 1_555
Pr7A Cl16A 1_555 1_555

#END
