
#######################################################################
#
#                 Cambridge Crystallographic Data Centre
#                                CCDC 
#
#######################################################################
#
# If this CIF has been generated from an entry in the Cambridge 
# Structural Database, then it will include bibliographic, chemical, 
# crystal, experimental, refinement or atomic coordinate data resulting 
# from the CCDC's data processing and validation procedures.
#
#######################################################################

data_TILBOG
_symmetry_cell_setting           triclinic
_symmetry_space_group_name_H-M   'P -1'
_symmetry_Int_Tables_number      2
_space_group_name_Hall           '-P 1'
loop_
_symmetry_equiv_pos_site_id
_symmetry_equiv_pos_as_xyz
1 x,y,z
2 -x,-y,-z
_cell_length_a                   10.904(2)
_cell_length_b                   15.087(3)
_cell_length_c                   15.303(3)
_cell_angle_alpha                116.23(3)
_cell_angle_beta                 100.08(3)
_cell_angle_gamma                94.40(3)
_cell_volume                     2189.29
loop_
_atom_site_label
_atom_site_type_symbol
_atom_site_fract_x
_atom_site_fract_y
_atom_site_fract_z
W1 W 0.15412(4) -0.12887(4) -0.19269(4)
W2 W -0.08441(4) -0.26161(4) -0.14463(5)
W3 W 0.08466(4) -0.15770(4) 0.10582(4)
W4 W -0.23608(4) -0.13333(4) 0.05048(4)
W5 W 0.16596(4) 0.10476(4) 0.25258(4)
W6 W 0.32109(4) -0.02148(4) 0.05994(4)
Si1 Si 0.0000 0.0000 0.0000
O1 O -0.0859(9) -0.1546(11) 0.1133(10)
O3 O -0.1743(8) -0.2209(9) -0.2324(10)
O5 O 0.2999(12) 0.0724(7) 0.1885(10)
O6 O -0.2119(9) -0.2357(10) -0.0724(10)
O7 O 0.0279(9) -0.2493(11) -0.0307(10)
O8 O 0.0634(9) -0.2356(9) -0.1855(11)
O9 O 0.1233(10) -0.0299(7) 0.2227(8)
O10 O 0.2744(12) -0.1090(7) -0.0791(9)
O11 O 0.1302(11) -0.0035(9) -0.0302(10)
O12 O 0.0158(11) 0.0914(10) 0.1136(11)
O13 O -0.3364(11) -0.0875(7) -0.0299(8)
O14 O -0.0481(14) -0.1061(12) 0.0041(13)
O15 O 0.2385(11) -0.1250(7) 0.0779(10)
O16 O 0.2440(8) 0.1553(8) 0.3738(8)
O17 O 0.2127(10) 0.0062(7) -0.1598(8)
O18 O 0.2237(9) -0.1913(8) -0.2858(8)
O19 O 0.4711(8) -0.0293(8) 0.0916(10)
O20 O -0.1099(11) 0.0114(9) -0.0768(11)
O21 O -0.1192(7) -0.3857(6) -0.2127(7)
O22 O -0.3456(8) -0.1979(8) 0.0734(8)
O23 O 0.0003(8) -0.1209(9) -0.2679(11)
O24 O 0.1284(8) -0.2305(7) 0.1591(9)
W1A W -0.15412(4) 0.12887(4) 0.19269(4)
W2A W 0.08441(4) 0.26161(4) 0.14463(5)
W3A W -0.08466(4) 0.15770(4) -0.10582(4)
W4A W 0.23608(4) 0.13333(4) -0.05048(4)
W5A W -0.16596(4) -0.10476(4) -0.25258(4)
W6A W -0.32109(4) 0.02148(4) -0.05994(4)
O1A O 0.0859(9) 0.1546(11) -0.1133(10)
O3A O 0.1743(8) 0.2209(9) 0.2324(10)
O5A O -0.2999(12) -0.0724(7) -0.1885(10)
O6A O 0.2119(9) 0.2357(10) 0.0724(10)
O7A O -0.0279(9) 0.2493(11) 0.0307(10)
O8A O -0.0634(9) 0.2356(9) 0.1855(11)
O9A O -0.1233(10) 0.0299(7) -0.2227(8)
O10A O -0.2744(12) 0.1090(7) 0.0791(9)
O11A O -0.1302(11) 0.0035(9) 0.0302(10)
O12A O -0.0158(11) -0.0914(10) -0.1136(11)
O13A O 0.3364(11) 0.0875(7) 0.0299(8)
O14A O 0.0481(14) 0.1061(12) -0.0041(13)
O15A O -0.2385(11) 0.1250(7) -0.0779(10)
O16A O -0.2440(8) -0.1553(8) -0.3738(8)
O17A O -0.2127(10) -0.0062(7) 0.1598(8)
O18A O -0.2237(9) 0.1913(8) 0.2858(8)
O19A O -0.4711(8) 0.0293(8) -0.0916(10)
O20A O 0.1099(11) -0.0114(9) 0.0768(11)
O21A O 0.1192(7) 0.3857(6) 0.2127(7)
O22A O 0.3456(8) 0.1979(8) -0.0734(8)
O23A O -0.0003(8) 0.1209(9) 0.2679(11)
O24A O -0.1284(8) 0.2305(7) -0.1591(9)
O2 O 0.4482(14) -0.1676(14) -0.3555(15)
O4 O 0.4451(14) -0.2640(13) -0.1521(15)
Cu1 Cu 0.10971(17) -0.4354(3) 0.1620(2)
Cu2 Cu 0.17094(15) -0.44888(18) 0.3942(2)
Cu3 Cu 0.17027(13) -0.13040(17) 0.36580(16)
N1 N 0.3487(9) -0.4584(9) 0.4018(12)
N2 N -0.0713(10) -0.4498(13) 0.1344(12)
N3 N -0.7242(11) -0.4471(13) 0.1407(11)
N4 N 0.0009(8) -0.1130(9) 0.3793(9)
N5 N -0.6503(8) -0.1085(8) 0.3759(9)
N6 N 1.0009(10) -0.4580(10) 0.4154(12)
C1 C -0.6470(15) -0.3691(16) 0.1538(18)
H1 H -0.6792 -0.3102 0.1680
C2 C 0.4321(13) -0.3775(12) 0.4450(16)
H2 H 0.4044 -0.3163 0.4732
C3 C 0.3950(13) -0.5459(12) 0.3638(13)
H3 H 0.3380 -0.6059 0.3336
C4 C -0.0636(12) -0.1668(15) 0.4108(15)
H4 H -0.0222 -0.2083 0.4314
C5 C 0.5603(11) -0.3761(12) 0.4518(17)
H5 H 0.6155 -0.3149 0.4859
C6 C -0.5189(13) -0.3669(13) 0.1481(16)
H6 H -0.4713 -0.3096 0.1544
C7 C -0.4674(10) -0.4476(11) 0.1338(11)
C8 C 0.9143(12) -0.5359(14) 0.3496(14)
H7 H 0.9393 -0.5902 0.3010
C9 C 0.5196(12) -0.5502(13) 0.3677(12)
H8 H 0.5469 -0.6117 0.3422
C10 C -0.1251(15) -0.3683(15) 0.1540(17)
H9 H -0.0738 -0.3091 0.1683
C11 C -0.1480(14) -0.5302(15) 0.1137(16)
H10 H -0.1147 -0.5886 0.1002
C12 C -0.2779(12) -0.5349(12) 0.1102(15)
H11 H -0.3275 -0.5955 0.0939
C13 C -0.6719(13) -0.5255(17) 0.1232(17)
H12 H -0.7227 -0.5826 0.1144
C14 C 0.9623(10) -0.3807(11) 0.4824(13)
H13 H 1.0222 -0.3244 0.5279
C15 C 0.8373(11) -0.3798(11) 0.4877(13)
H14 H 0.8154 -0.3258 0.5387
C16 C -0.4445(11) -0.1279(10) 0.4471(11)
H15 H -0.3954 -0.1428 0.4933
C17 C 0.6063(11) -0.4603(12) 0.4108(13)
C18 C -0.5486(13) -0.5329(13) 0.1165(17)
H16 H -0.5199 -0.5934 0.1007
C19 C -0.1912(11) -0.1641(12) 0.4145(13)
H17 H -0.2324 -0.2031 0.4373
C20 C 0.7878(13) -0.5397(12) 0.3506(13)
H18 H 0.7308 -0.5978 0.3052
C21 C 0.7439(11) -0.4601(10) 0.4165(12)
C22 C -0.2508(12) -0.3657(13) 0.1546(16)
H19 H -0.2813 -0.3058 0.1713
C23 C -0.3315(10) -0.4528(9) 0.1301(11)
C24 C -0.4690(10) -0.0830(10) 0.3137(10)
H20 H -0.4361 -0.0669 0.2694
C25 C -0.3925(9) -0.1048(9) 0.3819(10)
C26 C -0.2539(9) -0.1045(10) 0.3847(10)
C27 C -0.5735(11) -0.1280(11) 0.4403(12)
H21 H -0.6087 -0.1428 0.4844
C28 C -0.0598(11) -0.0525(12) 0.3543(12)
H22 H -0.0159 -0.0122 0.3343
C29 C -0.1870(11) -0.0453(11) 0.3560(12)
H23 H -0.2253 -0.0010 0.3379
C30 C -0.5980(10) -0.0862(11) 0.3143(12)
H24 H -0.6499 -0.0719 0.2688
Cl1 Cl 0.1616(3) -0.3120(3) 0.3459(4)
Cu1_2 Cu 1.10971(17) -0.4354(3) 0.1620(2)
Cu1_3 Cu -0.89029(17) -0.4354(3) 0.1620(2)
Cu2_2 Cu -0.82906(15) -0.44888(18) 0.3942(2)
Cu2_3 Cu 1.17094(15) -0.44888(18) 0.3942(2)
Cu3_2 Cu 1.17027(13) -0.13040(17) 0.36580(16)
Cu3_3 Cu -0.82973(13) -0.13040(17) 0.36580(16)
N1_2 N -0.6513(9) -0.4584(9) 0.4018(12)
N2_2 N 0.9287(10) -0.4498(13) 0.1344(12)
N3_2 N 0.2758(11) -0.4471(13) 0.1407(11)
N3_3 N 1.2758(11) -0.4471(13) 0.1407(11)
N4_2 N 1.0009(8) -0.1130(9) 0.3793(9)
N5_2 N 0.3497(8) -0.1085(8) 0.3759(9)
N5_3 N 1.3497(8) -0.1085(8) 0.3759(9)
N6_2 N 0.0009(10) -0.4580(10) 0.4154(12)
N6_3 N -0.9991(10) -0.4580(10) 0.4154(12)
C1_2 C 0.3530(15) -0.3691(16) 0.1538(18)
H1_2 H 0.3208 -0.3102 0.1680
C2_2 C -0.5679(13) -0.3775(12) 0.4450(16)
H2_2 H -0.5956 -0.3163 0.4732
C3_2 C -0.6050(13) -0.5459(12) 0.3638(13)
H3_2 H -0.6620 -0.6059 0.3336
C4_2 C 0.9364(12) -0.1668(15) 0.4108(15)
H4_2 H 0.9778 -0.2083 0.4314
C5_2 C -0.4397(11) -0.3761(12) 0.4518(17)
H5_2 H -0.3845 -0.3149 0.4859
C6_2 C 0.4811(13) -0.3669(13) 0.1481(16)
H6_2 H 0.5287 -0.3096 0.1544
C7_2 C 0.5326(10) -0.4476(11) 0.1338(11)
C8_2 C -0.0857(12) -0.5359(14) 0.3496(14)
H7_2 H -0.0607 -0.5902 0.3010
C9_2 C -0.4804(12) -0.5502(13) 0.3677(12)
H8_2 H -0.4531 -0.6117 0.3422
C10_2 C 0.8749(15) -0.3683(15) 0.1540(17)
H9_2 H 0.9262 -0.3091 0.1683
C11_2 C 0.8520(14) -0.5302(15) 0.1137(16)
H10_2 H 0.8853 -0.5886 0.1002
C12_2 C 0.7221(12) -0.5349(12) 0.1102(15)
H11_2 H 0.6725 -0.5955 0.0939
C13_2 C 0.3281(13) -0.5255(17) 0.1232(17)
H12_2 H 0.2773 -0.5826 0.1144
C14_2 C -0.0377(10) -0.3807(11) 0.4824(13)
H13_2 H 0.0222 -0.3244 0.5279
C15_2 C -0.1627(11) -0.3798(11) 0.4877(13)
H14_2 H -0.1846 -0.3258 0.5387
C16_2 C 0.5555(11) -0.1279(10) 0.4471(11)
H15_2 H 0.6046 -0.1428 0.4933
C17_2 C -0.3937(11) -0.4603(12) 0.4108(13)
C18_2 C 0.4514(13) -0.5329(13) 0.1165(17)
H16_2 H 0.4801 -0.5934 0.1007
C19_2 C 0.8088(11) -0.1641(12) 0.4145(13)
H17_2 H 0.7676 -0.2031 0.4373
C20_2 C -0.2122(13) -0.5397(12) 0.3506(13)
H18_2 H -0.2692 -0.5978 0.3052
C21_2 C -0.2561(11) -0.4601(10) 0.4165(12)
C22_2 C 0.7492(12) -0.3657(13) 0.1546(16)
H19_2 H 0.7187 -0.3058 0.1713
C23_2 C 0.6685(10) -0.4528(9) 0.1301(11)
C24_2 C 0.5310(10) -0.0830(10) 0.3137(10)
H20_2 H 0.5639 -0.0669 0.2694
C25_2 C 0.6075(9) -0.1048(9) 0.3819(10)
C26_2 C 0.7461(9) -0.1045(10) 0.3847(10)
C27_2 C 0.4265(11) -0.1280(11) 0.4403(12)
H21_2 H 0.3913 -0.1428 0.4844
C28_2 C 0.9402(11) -0.0525(12) 0.3543(12)
H22_2 H 0.9841 -0.0122 0.3343
C29_2 C 0.8130(11) -0.0453(11) 0.3560(12)
H23_2 H 0.7747 -0.0010 0.3379
C30_2 C 0.4020(10) -0.0862(11) 0.3143(12)
H24_2 H 0.3501 -0.0719 0.2688
Cl1_2 Cl 1.1616(3) -0.3120(3) 0.3459(4)
Cl1_3 Cl -0.8384(3) -0.3120(3) 0.3459(4)
loop_
_geom_bond_atom_site_label_1
_geom_bond_atom_site_label_2
_geom_bond_site_symmetry_1
_geom_bond_site_symmetry_2
Cu1 N2 1_555 1_555
Cu2 N1 1_555 1_555
Cu3 N4 1_555 1_555
W1 O8 1_555 1_555
W2 O3 1_555 1_555
W3 O1 1_555 1_555
W4 O1 1_555 1_555
W5 O5 1_555 1_555
W6 O5 1_555 1_555
Si1 O11 1_555 1_555
O3 W5A 1_555 1_555
O6 W2 1_555 1_555
O7 W2 1_555 1_555
O8 W2 1_555 1_555
O9 W3 1_555 1_555
O10 W1 1_555 1_555
O11 W1 1_555 1_555
O12 W5 1_555 1_555
O13 W4 1_555 1_555
O14 W2 1_555 1_555
O15 W3 1_555 1_555
O16 W5 1_555 1_555
O17 W1 1_555 1_555
O18 W1 1_555 1_555
O19 W6 1_555 1_555
O20 Si1 1_555 1_555
O21 W2 1_555 1_555
O22 W4 1_555 1_555
O23 W1 1_555 1_555
O24 W3 1_555 1_555
N1 C2 1_555 1_555
N2 C10 1_555 1_555
N3 C1 1_555 1_555
N4 C4 1_555 1_555
N5 C27 1_555 1_555
N6 C8 1_555 1_555
C1 H1 1_555 1_555
C2 H2 1_555 1_555
C3 N1 1_555 1_555
H3 C3 1_555 1_555
C4 H4 1_555 1_555
C5 C2 1_555 1_555
H5 C5 1_555 1_555
C6 C1 1_555 1_555
H6 C6 1_555 1_555
C7 C6 1_555 1_555
C8 H7 1_555 1_555
C9 C3 1_555 1_555
H8 C9 1_555 1_555
C10 H9 1_555 1_555
C11 N2 1_555 1_555
H10 C11 1_555 1_555
C12 C11 1_555 1_555
H11 C12 1_555 1_555
C13 N3 1_555 1_555
H12 C13 1_555 1_555
C14 N6 1_555 1_555
H13 C14 1_555 1_555
C15 C14 1_555 1_555
H14 C15 1_555 1_555
C16 H15 1_555 1_555
C17 C5 1_555 1_555
C18 C7 1_555 1_555
H16 C18 1_555 1_555
C19 C4 1_555 1_555
H17 C19 1_555 1_555
C20 C8 1_555 1_555
H18 C20 1_555 1_555
C21 C15 1_555 1_555
C22 C10 1_555 1_555
H19 C22 1_555 1_555
C23 C7 1_555 1_555
C24 H20 1_555 1_555
C25 C16 1_555 1_555
C26 C19 1_555 1_555
C27 C16 1_555 1_555
H21 C27 1_555 1_555
C28 N4 1_555 1_555
H22 C28 1_555 1_555
C29 C26 1_555 1_555
H23 C29 1_555 1_555
C30 N5 1_555 1_555
H24 C30 1_555 1_555
Cl1 Cu1 1_555 1_555
Cu1_2 N2_2 1_555 1_555
Cu1_3 N3 1_555 1_555
Cu2_2 N1_2 1_555 1_555
Cu2_3 N6 1_555 1_555
Cu3_2 N4_2 1_555 1_555
Cu3_3 N5 1_555 1_555
W1A O12 1_555 1_555
W2A O12 1_555 1_555
W3A O20 1_555 1_555
W4A O17 1_555 1_555
W5A O20 1_555 1_555
W6A O13 1_555 1_555
O1A W3A 1_555 1_555
O3A W5 1_555 1_555
O5A W5A 1_555 1_555
O6A W2A 1_555 1_555
O7A W2A 1_555 1_555
O8A W1A 1_555 1_555
O9A W3A 1_555 1_555
O10A W1A 1_555 1_555
O11A Si1 1_555 1_555
O12A W1 1_555 1_555
O13A W6 1_555 1_555
O14A Si1 1_555 1_555
O15A W3A 1_555 1_555
O16A W5A 1_555 1_555
O17A W4 1_555 1_555
O18A W1A 1_555 1_555
O19A W6A 1_555 1_555
O20A W3 1_555 1_555
O21A W2A 1_555 1_555
O22A W4A 1_555 1_555
O23A W5 1_555 1_555
O24A W3A 1_555 1_555
N1_2 C2_2 1_555 1_555
N2_2 C10_2 1_555 1_555
N3_2 Cu1 1_555 1_555
N3_3 Cu1_2 1_555 1_555
N4_2 C4_2 1_555 1_555
N5_2 Cu3 1_555 1_555
N5_3 Cu3_2 1_555 1_555
N6_2 Cu2 1_555 1_555
N6_3 Cu2_2 1_555 1_555
C1_2 N3_2 1_555 1_555
H1_2 C1_2 1_555 1_555
C2_2 H2_2 1_555 1_555
C3_2 N1_2 1_555 1_555
H3_2 C3_2 1_555 1_555
C4_2 H4_2 1_555 1_555
C5_2 C2_2 1_555 1_555
H5_2 C5_2 1_555 1_555
C6_2 C1_2 1_555 1_555
H6_2 C6_2 1_555 1_555
C7_2 C6_2 1_555 1_555
C8_2 N6_2 1_555 1_555
H7_2 C8_2 1_555 1_555
C9_2 C3_2 1_555 1_555
H8_2 C9_2 1_555 1_555
C10_2 H9_2 1_555 1_555
C11_2 N2_2 1_555 1_555
H10_2 C11_2 1_555 1_555
C12_2 C11_2 1_555 1_555
H11_2 C12_2 1_555 1_555
C13_2 N3_2 1_555 1_555
H12_2 C13_2 1_555 1_555
C14_2 N6_2 1_555 1_555
H13_2 C14_2 1_555 1_555
C15_2 C14_2 1_555 1_555
H14_2 C15_2 1_555 1_555
C16_2 H15_2 1_555 1_555
C17_2 C5_2 1_555 1_555
C18_2 C7_2 1_555 1_555
H16_2 C18_2 1_555 1_555
C19_2 C4_2 1_555 1_555
H17_2 C19_2 1_555 1_555
C20_2 C8_2 1_555 1_555
H18_2 C20_2 1_555 1_555
C21_2 C15_2 1_555 1_555
C22_2 C10_2 1_555 1_555
H19_2 C22_2 1_555 1_555
C23_2 C7_2 1_555 1_555
C24_2 H20_2 1_555 1_555
C25_2 C16_2 1_555 1_555
C26_2 C19_2 1_555 1_555
C27_2 N5_2 1_555 1_555
H21_2 C27_2 1_555 1_555
C28_2 N4_2 1_555 1_555
H22_2 C28_2 1_555 1_555
C29_2 C26_2 1_555 1_555
H23_2 C29_2 1_555 1_555
C30_2 N5_2 1_555 1_555
H24_2 C30_2 1_555 1_555
Cl1_2 Cu1_2 1_555 1_555
Cl1_3 Cu1_3 1_555 1_555
Cu2 Cl1 1_555 1_555
Cu3 Cl1 1_555 1_555
W2 O12A 1_555 1_555
W3 O7 1_555 1_555
W3 O14 1_555 1_555
W4 O6 1_555 1_555
W4 O14 1_555 1_555
W5 O9 1_555 1_555
W5 O20A 1_555 1_555
W6 O10 1_555 1_555
W6 O11 1_555 1_555
W6 O15 1_555 1_555
W6 O20A 1_555 1_555
Si1 O12 1_555 1_555
Si1 O14 1_555 1_555
Si1 O12A 1_555 1_555
Si1 O20A 1_555 1_555
O11 O20A 1_555 1_555
O20 W6A 1_555 1_555
O20 O11A 1_555 1_555
O23 W5A 1_555 1_555
C9 C17 1_555 1_555
C12 C23 1_555 1_555
C13 C18 1_555 1_555
C17 C21 1_555 1_555
C20 C21 1_555 1_555
C22 C23 1_555 1_555
C24 C25 1_555 1_555
C24 C30 1_555 1_555
C25 C26 1_555 1_555
C28 C29 1_555 1_555
Cu2_2 Cl1_3 1_555 1_555
Cu2_3 Cl1_2 1_555 1_555
Cu3_2 Cl1_2 1_555 1_555
Cu3_3 Cl1_3 1_555 1_555
W1A O11A 1_555 1_555
W1A O17A 1_555 1_555
W1A O23A 1_555 1_555
W2A O3A 1_555 1_555
W2A O8A 1_555 1_555
W2A O14A 1_555 1_555
W3A O7A 1_555 1_555
W3A O14A 1_555 1_555
W4A O1A 1_555 1_555
W4A O6A 1_555 1_555
W4A O13A 1_555 1_555
W4A O14A 1_555 1_555
W5A O9A 1_555 1_555
W5A O12A 1_555 1_555
W6A O5A 1_555 1_555
W6A O10A 1_555 1_555
W6A O11A 1_555 1_555
W6A O15A 1_555 1_555
C9_2 C17_2 1_555 1_555
C12_2 C23_2 1_555 1_555
C13_2 C18_2 1_555 1_555
C16_2 C27_2 1_555 1_555
C17_2 C21_2 1_555 1_555
C20_2 C21_2 1_555 1_555
C22_2 C23_2 1_555 1_555
C24_2 C25_2 1_555 1_555
C24_2 C30_2 1_555 1_555
C25_2 C26_2 1_555 1_555
C28_2 C29_2 1_555 1_555

#END
