
#######################################################################
#
#                 Cambridge Crystallographic Data Centre
#                                CCDC 
#
#######################################################################
#
# If this CIF has been generated from an entry in the Cambridge 
# Structural Database, then it will include bibliographic, chemical, 
# crystal, experimental, refinement or atomic coordinate data resulting 
# from the CCDC's data processing and validation procedures.
#
#######################################################################

data_TILBAS
_symmetry_cell_setting           monoclinic
_symmetry_space_group_name_H-M   'P 21/c'
_symmetry_Int_Tables_number      14
_space_group_name_Hall           '-P 2ybc'
loop_
_symmetry_equiv_pos_site_id
_symmetry_equiv_pos_as_xyz
1 x,y,z
2 -x,1/2+y,1/2-z
3 -x,-y,-z
4 x,1/2-y,1/2+z
_cell_length_a                   8.1851(13)
_cell_length_b                   18.804(3)
_cell_length_c                   14.6967(18)
_cell_angle_alpha                90
_cell_angle_beta                 116.090(6)
_cell_angle_gamma                90
_cell_volume                     2031.52
loop_
_atom_site_label
_atom_site_type_symbol
_atom_site_fract_x
_atom_site_fract_y
_atom_site_fract_z
Cu1 Cu 0.16144(3) 1.055005(12) 0.805469(17)
O1 O -0.0025(2) 0.90536(8) 0.74194(13)
O2 O 0.2668(2) 0.96009(7) 0.81428(11)
O3 O -0.01487(19) 0.64297(7) 0.71566(11)
O4 O 0.2421(2) 0.58281(7) 0.75513(11)
O5 O 0.4400(2) 1.12694(8) 0.86830(12)
N1 N 0.2124(5) 1.05400(15) 0.5395(2)
N2 N 0.1471(3) 1.06619(9) 0.66714(14)
N3 N 0.2710(3) 1.00132(14) 1.09700(17)
N4 N 0.1949(2) 1.04551(8) 0.94701(13)
N5 N 0.5395(3) 1.24077(11) 0.90482(17)
C1 C 0.2595(3) 0.70771(10) 0.78121(14)
C2 C 0.4476(3) 0.70682(12) 0.82872(19)
C3 C 0.5440(3) 0.76927(13) 0.8631(2)
C4 C 0.4530(3) 0.83325(12) 0.8479(2)
C5 C 0.2644(3) 0.83543(10) 0.79908(14)
C6 C 0.1692(3) 0.77236(10) 0.76645(14)
C7 C 0.1561(3) 0.63869(10) 0.74833(14)
C8 C 0.1658(3) 0.90528(10) 0.78311(15)
C9 C 0.1190(3) 1.08570(14) 0.99673(18)
C10 C 0.1643(4) 1.05757(17) 1.0886(2)
C11 C 0.2866(3) 0.99494(13) 1.01196(18)
C12 C 0.2431(4) 1.03091(15) 0.6306(2)
C13 C 0.0912(5) 1.1068(2) 0.5146(2)
C14 C 0.0532(5) 1.11495(17) 0.5931(2)
C15 C 0.4935(8) 1.31584(19) 0.8979(5)
C16 C 0.4137(4) 1.19096(15) 0.8649(2)
C17 C 0.7282(5) 1.2210(2) 0.9583(3)
H1 H 0.349(3) 0.9606(12) 1.0020(17)
H2 H 0.139(3) 1.0708(13) 1.1284(18)
H3 H 0.059(3) 1.1236(13) 0.9679(17)
H4 H 0.044(3) 0.7710(10) 0.7328(14)
H5 H 0.504(3) 0.6685(12) 0.8370(16)
H6 H 0.515(4) 0.8764(15) 0.8749(19)
H7 H -0.029(4) 1.1372(15) 0.597(2)
H8 H 0.291(5) 0.980(2) 1.137(3)
H9 H 0.316(3) 0.9994(14) 0.6622(19)
H10 H 0.673(4) 0.7641(15) 0.891(2)
H11 H 0.046(5) 1.1280(18) 0.451(3)
H12 H 0.254(4) 1.0389(16) 0.514(2)
H13 H 0.770(4) 1.2325(18) 1.022(3)
H14 H 0.294(4) 1.2158(16) 0.834(2)
H15 H 0.534(6) 1.331(2) 0.963(3)
H16 H 0.808(5) 1.2464(18) 0.936(2)
H17 H 0.736(5) 1.171(2) 0.949(3)
H18 H 0.573(5) 1.339(2) 0.874(3)
H21 H 0.346(6) 1.321(2) 0.849(3)
Cu1A Cu -0.16144(3) 0.555005(12) 0.694531(17)
O3A O 0.01487(19) 1.14297(7) 0.78434(11)
O6 O 0.6741(4) 0.52829(14) 0.11258(17)
H19 H 0.761(7) 0.550(2) 0.144(4)
H20 H 0.660(4) 0.4824(19) 0.132(2)
loop_
_geom_bond_atom_site_label_1
_geom_bond_atom_site_label_2
_geom_bond_site_symmetry_1
_geom_bond_site_symmetry_2
Cu1 O2 1_555 1_555
O1 C8 1_555 1_555
O2 C8 1_555 1_555
O3 C7 1_555 1_555
O4 C7 1_555 1_555
O5 Cu1 1_555 1_555
N1 C12 1_555 1_555
N2 Cu1 1_555 1_555
N3 C10 1_555 1_555
N4 Cu1 1_555 1_555
N5 C15 1_555 1_555
C1 C2 1_555 1_555
C2 C3 1_555 1_555
C3 C4 1_555 1_555
C4 C5 1_555 1_555
C5 C6 1_555 1_555
C6 C1 1_555 1_555
C7 C1 1_555 1_555
C8 C5 1_555 1_555
C9 N4 1_555 1_555
C10 C9 1_555 1_555
C11 N3 1_555 1_555
C12 N2 1_555 1_555
C13 N1 1_555 1_555
C14 N2 1_555 1_555
C15 H15 1_555 1_555
C16 O5 1_555 1_555
C17 N5 1_555 1_555
O6 H19 1_555 1_555
H1 C11 1_555 1_555
H2 C10 1_555 1_555
H3 C9 1_555 1_555
H4 C6 1_555 1_555
H5 C2 1_555 1_555
H6 C4 1_555 1_555
H7 C14 1_555 1_555
H8 N3 1_555 1_555
H9 C12 1_555 1_555
H10 C3 1_555 1_555
H11 C13 1_555 1_555
H12 N1 1_555 1_555
H13 C17 1_555 1_555
H14 C16 1_555 1_555
H16 C17 1_555 1_555
H17 C17 1_555 1_555
H18 C15 1_555 1_555
H20 O6 1_555 1_555
H21 C15 1_555 1_555
Cu1A O3 1_555 1_555
O3A Cu1 1_555 1_555
N4 C11 1_555 1_555
N5 C16 1_555 1_555
C13 C14 1_555 1_555

#END
