
#######################################################################
#
#                 Cambridge Crystallographic Data Centre
#                                CCDC 
#
#######################################################################
#
# If this CIF has been generated from an entry in the Cambridge 
# Structural Database, then it will include bibliographic, chemical, 
# crystal, experimental, refinement or atomic coordinate data resulting 
# from the CCDC's data processing and validation procedures.
#
#######################################################################

data_TILBEW
_symmetry_cell_setting           monoclinic
_symmetry_space_group_name_H-M   'P 21/c'
_symmetry_Int_Tables_number      14
_space_group_name_Hall           '-P 2ybc'
loop_
_symmetry_equiv_pos_site_id
_symmetry_equiv_pos_as_xyz
1 x,y,z
2 -x,1/2+y,1/2-z
3 -x,-y,-z
4 x,1/2-y,1/2+z
_cell_length_a                   6.8251(9)
_cell_length_b                   12.2125(17)
_cell_length_c                   18.4832(19)
_cell_angle_alpha                90
_cell_angle_beta                 101.248(4)
_cell_angle_gamma                90
_cell_volume                     1511.01
loop_
_atom_site_label
_atom_site_type_symbol
_atom_site_fract_x
_atom_site_fract_y
_atom_site_fract_z
Co1 Co 0.23605(4) 0.29848(2) 0.865124(14)
O1 O 0.2017(2) 0.26035(14) 1.00086(8)
O2 O 0.4300(2) 0.20968(12) 0.93846(7)
O3 O 0.3132(2) 0.20770(12) 1.26771(8)
O4 O 0.5513(2) 0.09830(14) 1.32549(7)
N1 N -0.0216(3) 0.21196(13) 0.83651(10)
N2 N -0.3051(3) 0.13156(17) 0.83988(13)
N3 N 0.1649(2) 0.45214(14) 0.89174(8)
N4 N 0.0047(3) 0.58894(16) 0.92920(11)
C1 C 0.3607(3) 0.21228(16) 0.99763(10)
C2 C 0.4777(3) 0.15807(16) 1.06502(10)
C3 C 0.6477(3) 0.09690(18) 1.06276(12)
C4 C 0.7588(4) 0.0524(2) 1.12614(12)
C5 C 0.7010(3) 0.06809(19) 1.19309(11)
C6 C 0.5304(3) 0.12834(15) 1.19669(10)
C7 C 0.4198(3) 0.17259(16) 1.13238(10)
C8 C 0.4641(3) 0.14499(16) 1.26884(10)
C9 C -0.1551(4) 0.18960(19) 0.87718(14)
C10 C -0.2688(4) 0.1151(2) 0.77083(14)
C11 C -0.0939(4) 0.1651(2) 0.76922(13)
C12 C 0.2986(4) 0.5309(2) 0.92210(14)
C13 C 0.2014(4) 0.6145(2) 0.94568(17)
C14 C -0.0120(3) 0.49066(18) 0.89741(11)
H1 H 0.683(3) 0.0885(18) 1.0226(12)
H2 H 0.873(4) 0.0132(19) 1.1236(13)
H3 H 0.781(3) 0.0349(19) 1.2358(13)
H4 H 0.309(3) 0.2126(17) 1.1354(11)
H5 H -0.153(3) 0.2131(18) 0.9251(13)
H6 H -0.418(5) 0.109(2) 0.8583(16)
H7 H -0.358(4) 0.079(2) 0.7401(14)
H8 H -0.028(4) 0.172(2) 0.7328(14)
H9 H 0.427(5) 0.525(3) 0.9191(16)
H10 H 0.249(5) 0.681(3) 0.9708(18)
H11 H -0.086(4) 0.623(2) 0.9401(13)
H12 H -0.131(3) 0.4543(19) 0.8821(12)
Co1C Co 0.23605(4) 0.20152(2) 1.365124(14)
O3C O 0.3132(2) 0.29230(12) 0.76771(8)
loop_
_geom_bond_atom_site_label_1
_geom_bond_atom_site_label_2
_geom_bond_site_symmetry_1
_geom_bond_site_symmetry_2
Co1 O2 1_555 1_555
O1 C1 1_555 1_555
O2 C1 1_555 1_555
O3 C8 1_555 1_555
O4 C8 1_555 1_555
N1 Co1 1_555 1_555
N2 C9 1_555 1_555
N3 Co1 1_555 1_555
N4 C13 1_555 1_555
C1 C2 1_555 1_555
C2 C3 1_555 1_555
C3 C4 1_555 1_555
C4 C5 1_555 1_555
C5 C6 1_555 1_555
C6 C7 1_555 1_555
C7 C2 1_555 1_555
C8 C6 1_555 1_555
C9 N1 1_555 1_555
C10 N2 1_555 1_555
C11 N1 1_555 1_555
C12 N3 1_555 1_555
C13 C12 1_555 1_555
C14 N3 1_555 1_555
H1 C3 1_555 1_555
H2 C4 1_555 1_555
H3 C5 1_555 1_555
H4 C7 1_555 1_555
H5 C9 1_555 1_555
H6 N2 1_555 1_555
H7 C10 1_555 1_555
H8 C11 1_555 1_555
H9 C12 1_555 1_555
H10 C13 1_555 1_555
H11 N4 1_555 1_555
H12 C14 1_555 1_555
Co1C O3 1_555 1_555
O3C Co1 1_555 1_555
N4 C14 1_555 1_555
C10 C11 1_555 1_555

#END
