
#######################################################################
#
#                 Cambridge Crystallographic Data Centre
#                                CCDC 
#
#######################################################################
#
# If this CIF has been generated from an entry in the Cambridge 
# Structural Database, then it will include bibliographic, chemical, 
# crystal, experimental, refinement or atomic coordinate data resulting 
# from the CCDC's data processing and validation procedures.
#
#######################################################################

data_TILCUN
_symmetry_cell_setting           monoclinic
_symmetry_space_group_name_H-M   'P 2/n'
_symmetry_Int_Tables_number      13
_space_group_name_Hall           '-P 2yac'
loop_
_symmetry_equiv_pos_site_id
_symmetry_equiv_pos_as_xyz
1 x,y,z
2 1/2-x,y,1/2-z
3 -x,-y,-z
4 1/2+x,-y,1/2+z
_cell_length_a                   14.161(2)
_cell_length_b                   13.997(2)
_cell_length_c                   16.339(3)
_cell_angle_alpha                90
_cell_angle_beta                 108.812(3)
_cell_angle_gamma                90
_cell_volume                     3065.58
loop_
_atom_site_label
_atom_site_type_symbol
_atom_site_fract_x
_atom_site_fract_y
_atom_site_fract_z
Zn1 Zn 0.7500 0.25494(5) 0.2500
Zn2 Zn 0.7500 0.04789(5) 0.2500
Zn3 Zn 0.89638(3) 0.49140(3) 0.00393(3)
O1 O 0.7972(2) 0.2252(2) 0.14435(18)
O2 O 0.7497(2) 0.0721(2) 0.12947(19)
O3 O 0.9140(2) 0.3659(2) -0.0503(2)
O4 O 1.0679(2) 0.3775(2) -0.0583(2)
O5 O 0.6058(2) 0.2333(2) 0.17657(18)
O6 O 0.5979(2) 0.0772(2) 0.2057(2)
O7 O 0.5296(2) 0.4252(2) 0.38027(19)
O8 O 0.3749(2) 0.4430(2) 0.3854(2)
N1 N 0.7500 0.9019(3) 0.2500
N2 N 0.7500 0.3990(3) 0.2500
N3 N 0.7511(2) 0.4907(3) 0.0019(2)
C1 C 0.7866(3) 0.1460(3) 0.1067(3)
C2 C 0.8205(3) 0.1325(3) 0.0311(3)
H1 H 0.7920 0.0828 -0.0065
C3 C 0.8876(3) 0.1850(3) 0.0124(3)
H2 H 0.9079 0.2413 0.0433
C4 C 0.9331(3) 0.1603(3) -0.0546(3)
C5 C 0.9314(4) 0.0667(3) -0.0830(3)
H3 H 0.8968 0.0210 -0.0626
C6 C 0.9794(4) 0.0392(4) -0.1402(3)
H4 H 0.9747 -0.0236 -0.1598
C7 C 1.0340(4) 0.1045(4) -0.1683(3)
H5 H 1.0681 0.0858 -0.2056
C8 C 1.0383(3) 0.1978(4) -0.1412(3)
H6 H 1.0760 0.2416 -0.1602
C9 C 0.9876(3) 0.2278(3) -0.0863(3)
C10 C 0.9901(3) 0.3313(3) -0.0627(3)
C11 C 0.5594(3) 0.1562(3) 0.1769(3)
C12 C 0.4474(3) 0.1597(3) 0.1383(3)
C13 C 0.4016(4) 0.1031(3) 0.0672(3)
H7 H 0.4401 0.0629 0.0456
C14 C 0.2990(4) 0.1056(4) 0.0276(3)
H8 H 0.2689 0.0696 -0.0218
C15 C 0.2426(4) 0.1620(3) 0.0624(3)
H9 H 0.1736 0.1630 0.0374
C16 C 0.2871(3) 0.2171(3) 0.1337(3)
H10 H 0.2472 0.2536 0.1570
C17 C 0.3905(3) 0.2201(3) 0.1727(3)
C18 C 0.4372(3) 0.2835(3) 0.2468(3)
H11 H 0.5026 0.2701 0.2802
C19 C 0.3937(3) 0.3581(3) 0.2699(3)
H12 H 0.3318 0.3771 0.2326
C20 C 0.4365(3) 0.4132(3) 0.3506(3)
C21 C 0.6795(3) 0.8531(3) 0.1922(3)
H13 H 0.6296 0.8867 0.1511
C22 C 0.6766(4) 0.7548(3) 0.1902(3)
H14 H 0.6254 0.7232 0.1487
C23 C 0.7500 0.7036(4) 0.2500
C24 C 0.7500 0.5974(4) 0.2500
C25 C 0.8252(3) 0.5463(3) 0.2330(3)
H15 H 0.8768 0.5780 0.2208
C26 C 0.8229(3) 0.4487(3) 0.2344(3)
H16 H 0.8747 0.4153 0.2240
C27 C 0.6957(3) 0.5681(3) -0.0233(4)
H17 H 0.7245 0.6209 -0.0404
C28 C 0.5984(3) 0.5750(3) -0.0256(4)
H18 H 0.5626 0.6309 -0.0450
C29 C 0.5532(3) 0.4975(3) 0.0013(3)
C30 C 0.6117(3) 0.4182(3) 0.0283(3)
H19 H 0.5858 0.3648 0.0474
C31 C 0.7084(3) 0.4168(3) 0.0272(3)
H20 H 0.7458 0.3614 0.0451
Zn2_2 Zn 0.7500 1.04789(5) 0.2500
Zn3A Zn 0.60362(3) 0.49140(3) 0.49607(3)
Zn3B Zn 1.10362(3) 0.50860(3) -0.00393(3)
Zn3C Zn 0.39638(3) 0.50860(3) 0.50393(3)
Zn3B_2 Zn 0.10362(3) 0.50860(3) -0.00393(3)
O1A O 0.7028(2) 0.2252(2) 0.35565(18)
O2A O 0.7503(2) 0.0721(2) 0.37053(19)
O3A O 0.5860(2) 0.3659(2) 0.5503(2)
O4A O 0.4321(2) 0.3775(2) 0.5583(2)
O4B O 0.9321(2) 0.6225(2) 0.0583(2)
O4C O 0.5679(2) 0.6225(2) 0.4417(2)
O5A O 0.8942(2) 0.2333(2) 0.32343(18)
O6A O 0.9021(2) 0.0772(2) 0.2943(2)
O7A O 0.9704(2) 0.4252(2) 0.11973(19)
O8A O 1.1251(2) 0.4430(2) 0.1146(2)
O8C O 0.8749(2) 0.5570(2) -0.1146(2)
O8B O 0.6251(2) 0.5570(2) 0.6146(2)
N1_2 N 0.7500 -0.0981(3) 0.2500
N3B N 0.2489(2) 0.5093(3) -0.0019(2)
N3A N 0.7489(2) 0.4907(3) 0.4981(2)
C1A C 0.7134(3) 0.1460(3) 0.3933(3)
C2A C 0.6795(3) 0.1325(3) 0.4689(3)
H1A H 0.7080 0.0828 0.5065
C3A C 0.6124(3) 0.1850(3) 0.4876(3)
H2A H 0.5921 0.2413 0.4567
C4A C 0.5669(3) 0.1603(3) 0.5546(3)
C5A C 0.5686(4) 0.0667(3) 0.5830(3)
H3A H 0.6032 0.0210 0.5626
C6A C 0.5206(4) 0.0392(4) 0.6402(3)
H4A H 0.5253 -0.0236 0.6598
C7A C 0.4660(4) 0.1045(4) 0.6683(3)
H5A H 0.4319 0.0858 0.7056
C8A C 0.4617(3) 0.1978(4) 0.6412(3)
H6A H 0.4240 0.2416 0.6602
C9A C 0.5124(3) 0.2278(3) 0.5863(3)
C10A C 0.5099(3) 0.3313(3) 0.5627(3)
C11A C 0.9406(3) 0.1562(3) 0.3231(3)
C12A C 1.0526(3) 0.1597(3) 0.3617(3)
C13A C 1.0984(4) 0.1031(3) 0.4328(3)
H7A H 1.0599 0.0629 0.4544
C14A C 1.2010(4) 0.1056(4) 0.4724(3)
H8A H 1.2311 0.0696 0.5218
C15A C 1.2574(4) 0.1620(3) 0.4376(3)
H9A H 1.3264 0.1630 0.4626
C16A C 1.2129(3) 0.2171(3) 0.3663(3)
H10A H 1.2528 0.2536 0.3430
C17A C 1.1095(3) 0.2201(3) 0.3273(3)
C18A C 1.0628(3) 0.2835(3) 0.2532(3)
H11A H 0.9974 0.2701 0.2198
C19A C 1.1063(3) 0.3581(3) 0.2301(3)
H12A H 1.1682 0.3771 0.2674
C20A C 1.0635(3) 0.4132(3) 0.1494(3)
C21A C 0.8205(3) 0.8531(3) 0.3078(3)
H13A H 0.8704 0.8867 0.3489
C22A C 0.8234(4) 0.7548(3) 0.3098(3)
H14A H 0.8746 0.7232 0.3513
C25A C 0.6748(3) 0.5463(3) 0.2670(3)
H15A H 0.6232 0.5780 0.2792
C26A C 0.6771(3) 0.4487(3) 0.2656(3)
H16A H 0.6253 0.4153 0.2760
C27B C 0.3043(3) 0.4319(3) 0.0233(4)
H17B H 0.2755 0.3791 0.0404
C28B C 0.4016(3) 0.4250(3) 0.0256(4)
H18B H 0.4374 0.3691 0.0450
C29B C 0.4468(3) 0.5025(3) -0.0013(3)
C30B C 0.3883(3) 0.5818(3) -0.0283(3)
H19B H 0.4142 0.6352 -0.0474
C31B C 0.2916(3) 0.5832(3) -0.0272(3)
H20B H 0.2542 0.6386 -0.0451
N4 N 0.5671(6) 0.2809(9) 0.8555(5)
C32 C 0.5881(7) 0.3580(8) 0.8189(6)
H21 H 0.5529 0.4135 0.8211
C33 C 0.6595(5) 0.3621(6) 0.7770(4)
H22 H 0.6717 0.4191 0.7529
C34 C 0.7120(4) 0.2802(5) 0.7716(4)
C35 C 0.6897(5) 0.1986(6) 0.8101(4)
H23 H 0.7226 0.1415 0.8084
C36 C 0.6181(7) 0.2029(8) 0.8513(5)
H24 H 0.6052 0.1477 0.8776
N4A N 0.9329(6) 0.2809(9) 0.6445(5)
C32A C 0.9119(7) 0.3580(8) 0.6811(6)
H21A H 0.9471 0.4135 0.6789
C33A C 0.8405(5) 0.3621(6) 0.7230(4)
H22A H 0.8283 0.4191 0.7471
C34A C 0.7880(4) 0.2802(5) 0.7284(4)
C35A C 0.8103(5) 0.1986(6) 0.6899(4)
H23A H 0.7774 0.1415 0.6916
C36A C 0.8819(7) 0.2029(8) 0.6487(5)
H24A H 0.8948 0.1477 0.6224
loop_
_geom_bond_atom_site_label_1
_geom_bond_atom_site_label_2
_geom_bond_site_symmetry_1
_geom_bond_site_symmetry_2
Zn1 O1 1_555 1_555
Zn2 O2 1_555 1_555
Zn3 O3 1_555 1_555
O1 C1 1_555 1_555
O2 C1 1_555 1_555
O3 C10 1_555 1_555
O4 C10 1_555 1_555
O5 Zn1 1_555 1_555
O6 Zn2 1_555 1_555
O7 C20 1_555 1_555
O8 C20 1_555 1_555
N1 C21 1_555 1_555
N2 Zn1 1_555 1_555
N3 Zn3 1_555 1_555
N4 C32 1_555 1_555
C1 C2 1_555 1_555
C2 H1 1_555 1_555
C3 C2 1_555 1_555
H2 C3 1_555 1_555
C4 C3 1_555 1_555
C5 C4 1_555 1_555
H3 C5 1_555 1_555
C6 C5 1_555 1_555
H4 C6 1_555 1_555
C7 C6 1_555 1_555
H5 C7 1_555 1_555
C8 C7 1_555 1_555
H6 C8 1_555 1_555
C9 C4 1_555 1_555
C10 C9 1_555 1_555
C11 O5 1_555 1_555
C12 C11 1_555 1_555
C13 C12 1_555 1_555
H7 C13 1_555 1_555
C14 C13 1_555 1_555
H8 C14 1_555 1_555
C15 C14 1_555 1_555
H9 C15 1_555 1_555
C16 C15 1_555 1_555
H10 C16 1_555 1_555
C17 C12 1_555 1_555
C18 C17 1_555 1_555
H11 C18 1_555 1_555
C19 C18 1_555 1_555
H12 C19 1_555 1_555
C20 C19 1_555 1_555
C21 H13 1_555 1_555
C22 C21 1_555 1_555
H14 C22 1_555 1_555
C23 C22 1_555 1_555
C24 C23 1_555 1_555
C25 C24 1_555 1_555
H15 C25 1_555 1_555
C26 N2 1_555 1_555
H16 C26 1_555 1_555
C27 N3 1_555 1_555
H17 C27 1_555 1_555
C28 C27 1_555 1_555
H18 C28 1_555 1_555
C29 C28 1_555 1_555
C30 C29 1_555 1_555
H19 C30 1_555 1_555
C31 N3 1_555 1_555
H20 C31 1_555 1_555
C32 H21 1_555 1_555
C33 C32 1_555 1_555
H22 C33 1_555 1_555
C34 C33 1_555 1_555
C35 C34 1_555 1_555
H23 C35 1_555 1_555
C36 N4 1_555 1_555
H24 C36 1_555 1_555
Zn2_2 N1 1_555 1_555
Zn3A O7 1_555 1_555
Zn3B O4 1_555 1_555
Zn3C O8 1_555 1_555
Zn3B_2 N3B 1_555 1_555
O1A Zn1 1_555 1_555
O2A Zn2 1_555 1_555
O3A Zn3A 1_555 1_555
O4A Zn3C 1_555 1_555
O4B Zn3 1_555 1_555
O4C Zn3A 1_555 1_555
O5A Zn1 1_555 1_555
O6A Zn2 1_555 1_555
O7A Zn3 1_555 1_555
O8A Zn3B 1_555 1_555
O8C Zn3 1_555 1_555
O8B Zn3A 1_555 1_555
N1_2 Zn2 1_555 1_555
N3B C27B 1_555 1_555
N3A Zn3A 1_555 1_555
N4A C32A 1_555 1_555
C1A O1A 1_555 1_555
C2A C1A 1_555 1_555
H1A C2A 1_555 1_555
C3A C2A 1_555 1_555
H2A C3A 1_555 1_555
C4A C3A 1_555 1_555
C5A C4A 1_555 1_555
H3A C5A 1_555 1_555
C6A C5A 1_555 1_555
H4A C6A 1_555 1_555
C7A C6A 1_555 1_555
H5A C7A 1_555 1_555
C8A C7A 1_555 1_555
H6A C8A 1_555 1_555
C9A C4A 1_555 1_555
C10A O3A 1_555 1_555
C11A O5A 1_555 1_555
C12A C11A 1_555 1_555
C13A C12A 1_555 1_555
H7A C13A 1_555 1_555
C14A C13A 1_555 1_555
H8A C14A 1_555 1_555
C15A C14A 1_555 1_555
H9A C15A 1_555 1_555
C16A C15A 1_555 1_555
H10A C16A 1_555 1_555
C17A C12A 1_555 1_555
C18A C17A 1_555 1_555
H11A C18A 1_555 1_555
C19A C18A 1_555 1_555
H12A C19A 1_555 1_555
C20A O7A 1_555 1_555
C21A N1 1_555 1_555
H13A C21A 1_555 1_555
C22A C23 1_555 1_555
H14A C22A 1_555 1_555
C25A C24 1_555 1_555
H15A C25A 1_555 1_555
C26A N2 1_555 1_555
H16A C26A 1_555 1_555
C27B H17B 1_555 1_555
C28B C27B 1_555 1_555
H18B C28B 1_555 1_555
C29B C29 1_555 1_555
C30B C29B 1_555 1_555
H19B C30B 1_555 1_555
C31B N3B 1_555 1_555
H20B C31B 1_555 1_555
C32A H21A 1_555 1_555
C33A C32A 1_555 1_555
H22A C33A 1_555 1_555
C34A C34 1_555 1_555
C35A C34A 1_555 1_555
H23A C35A 1_555 1_555
C36A N4A 1_555 1_555
H24A C36A 1_555 1_555
O6 C11 1_555 1_555
C8 C9 1_555 1_555
C16 C17 1_555 1_555
C25 C26 1_555 1_555
C30 C31 1_555 1_555
C35 C36 1_555 1_555
O2A C1A 1_555 1_555
O4A C10A 1_555 1_555
O6A C11A 1_555 1_555
O8A C20A 1_555 1_555
C8A C9A 1_555 1_555
C9A C10A 1_555 1_555
C16A C17A 1_555 1_555
C19A C20A 1_555 1_555
C21A C22A 1_555 1_555
C25A C26A 1_555 1_555
C28B C29B 1_555 1_555
C30B C31B 1_555 1_555
C33A C34A 1_555 1_555
C35A C36A 1_555 1_555

#END
