
#######################################################################
#
#                 Cambridge Crystallographic Data Centre
#                                CCDC 
#
#######################################################################
#
# If this CIF has been generated from an entry in the Cambridge 
# Structural Database, then it will include bibliographic, chemical, 
# crystal, experimental, refinement or atomic coordinate data resulting 
# from the CCDC's data processing and validation procedures.
#
#######################################################################

data_TILDAU
_symmetry_cell_setting           orthorhombic
_symmetry_space_group_name_H-M   'P b n b'
_symmetry_Int_Tables_number      56
_space_group_name_Hall           '-P 2bc 2ab'
loop_
_symmetry_equiv_pos_site_id
_symmetry_equiv_pos_as_xyz
1 x,y,z
2 1/2-x,y,1/2-z
3 1/2+x,1/2-y,-z
4 -x,1/2-y,1/2+z
5 -x,-y,-z
6 1/2+x,-y,1/2+z
7 1/2-x,1/2+y,z
8 x,1/2+y,1/2-z
_cell_length_a                   13.1304(15)
_cell_length_b                   16.3927(19)
_cell_length_c                   19.426(2)
_cell_angle_alpha                90
_cell_angle_beta                 90
_cell_angle_gamma                90
_cell_volume                     4181.3
loop_
_atom_site_label
_atom_site_type_symbol
_atom_site_fract_x
_atom_site_fract_y
_atom_site_fract_z
Zn1 Zn 0.03346(2) 0.16798(2) 0.500591(17)
O1 O -0.02644(16) 0.07289(13) 0.42522(12)
O2 O -0.11212(16) 0.18041(12) 0.45787(11)
O3 O -0.45432(17) 0.24044(12) 0.42913(10)
O4 O -0.4588(2) 0.30241(14) 0.32752(12)
O5 O -0.02343(17) 0.08781(14) 0.58086(12)
N1 N 0.10239(19) 0.24816(14) 0.42409(12)
N2 N 0.17695(19) 0.11140(15) 0.50835(12)
C1 C -0.1072(2) 0.11458(18) 0.42448(16)
C2 C -0.1947(2) 0.08603(19) 0.38374(16)
H1 H -0.1904 0.0349 0.3631
C3 C -0.2783(2) 0.12862(18) 0.37480(15)
H2 H -0.2805 0.1792 0.3965
C4 C -0.3688(2) 0.10607(18) 0.33476(14)
C5 C -0.3734(3) 0.03098(19) 0.29992(16)
H3 H -0.3189 -0.0051 0.3031
C6 C -0.4571(3) 0.0099(2) 0.26119(18)
H4 H -0.4593 -0.0402 0.2389
C7 C -0.5371(3) 0.0631(2) 0.25568(19)
H5 H -0.5935 0.0490 0.2293
C8 C -0.5345(3) 0.1376(2) 0.28913(17)
H6 H -0.5889 0.1735 0.2846
C9 C -0.4516(2) 0.15909(18) 0.32927(15)
C10 C -0.4552(2) 0.24077(18) 0.36459(15)
C11 C 0.0657(3) 0.2645(2) 0.36171(16)
H7 H 0.0046 0.2403 0.3487
C12 C 0.1139(3) 0.31552(19) 0.31536(16)
H8 H 0.0847 0.3252 0.2725
C13 C 0.2049(2) 0.35202(17) 0.33239(14)
C14 C 0.2432(3) 0.33422(19) 0.39677(15)
H9 H 0.3049 0.3567 0.4107
C15 C 0.1907(2) 0.2836(2) 0.44019(16)
H10 H 0.2183 0.2734 0.4834
C16 C 0.2598(3) 0.41376(18) 0.28862(14)
H11 H 0.3324 0.4061 0.2956
H12 H 0.2429 0.4675 0.3060
C17 C 0.2163(3) 0.0731(2) 0.45417(19)
H13 H 0.1737 0.0607 0.4174
C18 C 0.3166(3) 0.0512(2) 0.4501(2)
H14 H 0.3407 0.0246 0.4111
C19 C 0.3823(2) 0.06821(19) 0.50367(18)
C20 C 0.3408(3) 0.1062(2) 0.55994(18)
H15 H 0.3816 0.1183 0.5977
C21 C 0.2395(2) 0.12642(19) 0.56065(16)
H16 H 0.2132 0.1519 0.5996
C22 C 0.4924(3) 0.0442(2) 0.5011(2)
H17 H 0.5234 0.0684 0.4606
H18 H 0.5267 0.0661 0.5412
H19 H 0.002(3) 0.0398(10) 0.5796(17)
H20 H -0.007(3) 0.1160(18) 0.6161(14)
Zn1B Zn 0.53346(2) 0.33202(2) 0.499409(17)
Zn1B_2 Zn -0.46654(2) 0.33202(2) 0.499409(17)
Zn1A Zn 0.46654(2) 0.16798(2) -0.000591(17)
Zn1D Zn 0.96654(2) -0.16798(2) 0.499409(17)
O1B O 0.47356(16) 0.42711(13) 0.57478(12)
O2B O 0.38788(16) 0.31959(12) 0.54213(11)
O3B O 0.04568(17) 0.25956(12) 0.57087(10)
O3_2 O 0.54568(17) 0.24044(12) 0.42913(10)
O4B O 0.0412(2) 0.19759(14) 0.67248(12)
O5B O 0.47657(17) 0.41219(14) 0.41914(12)
N1A N 0.39761(19) 0.24816(14) 0.07591(12)
N1B N 0.60239(19) 0.25184(14) 0.57591(12)
N2D N 0.82305(19) -0.11140(15) 0.49165(12)
N2B N 0.67695(19) 0.38860(15) 0.49165(12)
C1B C 0.3928(2) 0.38542(18) 0.57552(16)
C2B C 0.3053(2) 0.41397(19) 0.61626(16)
H1B H 0.3096 0.4651 0.6369
C3B C 0.2217(2) 0.37138(18) 0.62520(15)
H2B H 0.2195 0.3208 0.6035
C4B C 0.1312(2) 0.39393(18) 0.66524(14)
C5B C 0.1266(3) 0.46902(19) 0.70008(16)
H3B H 0.1811 0.5051 0.6969
C6B C 0.0429(3) 0.4901(2) 0.73881(18)
H4B H 0.0407 0.5402 0.7611
C7B C -0.0371(3) 0.4369(2) 0.74432(19)
H5B H -0.0935 0.4510 0.7707
C8B C -0.0345(3) 0.3624(2) 0.71087(17)
H6B H -0.0889 0.3265 0.7154
C9B C 0.0484(2) 0.34091(18) 0.67073(15)
C10B C 0.0448(2) 0.25923(18) 0.63541(15)
C11A C 0.4343(3) 0.2645(2) 0.13829(16)
H7A H 0.4954 0.2403 0.1513
C12A C 0.3861(3) 0.31552(19) 0.18464(16)
H8A H 0.4153 0.3252 0.2275
C13A C 0.2951(2) 0.35202(17) 0.16761(14)
C14A C 0.2568(3) 0.33422(19) 0.10323(15)
H9A H 0.1951 0.3567 0.0893
C15A C 0.3093(2) 0.2836(2) 0.05981(16)
H10A H 0.2817 0.2734 0.0166
C16A C 0.2402(3) 0.41376(18) 0.21138(14)
H11A H 0.1676 0.4061 0.2044
H12A H 0.2571 0.4675 0.1940
C17D C 0.7837(3) -0.0731(2) 0.54583(19)
H13D H 0.8263 -0.0607 0.5826
C18D C 0.6834(3) -0.0512(2) 0.5499(2)
H14D H 0.6593 -0.0246 0.5889
C19D C 0.6177(2) -0.06821(19) 0.49633(18)
C20D C 0.6592(3) -0.1062(2) 0.44006(18)
H15D H 0.6184 -0.1183 0.4023
C21D C 0.7605(2) -0.12642(19) 0.43935(16)
H16D H 0.7868 -0.1519 0.4004
C22D C 0.5076(3) -0.0442(2) 0.4989(2)
H17D H 0.4766 -0.0684 0.5394
H18D H 0.4733 -0.0661 0.4588
H19B H 0.502(3) 0.4602(10) 0.4204(17)
H20B H 0.493(3) 0.3840(18) 0.3839(14)
O6 O 0.7500 0.3481(6) 0.2500
O7? O 0.8306(12) 0.3094(10) 0.2805(7)
loop_
_geom_bond_atom_site_label_1
_geom_bond_atom_site_label_2
_geom_bond_site_symmetry_1
_geom_bond_site_symmetry_2
Zn1 O1 1_555 1_555
O1 C1 1_555 1_555
O2 Zn1 1_555 1_555
O3 C10 1_555 1_555
O4 C10 1_555 1_555
O5 Zn1 1_555 1_555
N1 Zn1 1_555 1_555
N2 Zn1 1_555 1_555
C1 O2 1_555 1_555
C2 C1 1_555 1_555
H1 C2 1_555 1_555
C3 C2 1_555 1_555
H2 C3 1_555 1_555
C4 C3 1_555 1_555
C5 C4 1_555 1_555
H3 C5 1_555 1_555
C6 C5 1_555 1_555
H4 C6 1_555 1_555
C7 C6 1_555 1_555
H5 C7 1_555 1_555
C8 C7 1_555 1_555
H6 C8 1_555 1_555
C9 C4 1_555 1_555
C10 C9 1_555 1_555
C11 N1 1_555 1_555
H7 C11 1_555 1_555
C12 C11 1_555 1_555
H8 C12 1_555 1_555
C13 C12 1_555 1_555
C14 C13 1_555 1_555
H9 C14 1_555 1_555
C15 N1 1_555 1_555
H10 C15 1_555 1_555
C16 C13 1_555 1_555
H11 C16 1_555 1_555
H12 C16 1_555 1_555
C17 N2 1_555 1_555
H13 C17 1_555 1_555
C18 C17 1_555 1_555
H14 C18 1_555 1_555
C19 C18 1_555 1_555
C20 C19 1_555 1_555
H15 C20 1_555 1_555
C21 N2 1_555 1_555
H16 C21 1_555 1_555
C22 C19 1_555 1_555
H17 C22 1_555 1_555
H18 C22 1_555 1_555
H19 O5 1_555 1_555
H20 O5 1_555 1_555
Zn1B O1B 1_555 1_555
Zn1B_2 O3 1_555 1_555
Zn1A N1A 1_555 1_555
Zn1D N2D 1_555 1_555
O1B C1B 1_555 1_555
O2B Zn1B 1_555 1_555
O3B Zn1 1_555 1_555
O3_2 Zn1B 1_555 1_555
O4B C10B 1_555 1_555
O5B Zn1B 1_555 1_555
N1A C11A 1_555 1_555
N1B Zn1B 1_555 1_555
N2D C17D 1_555 1_555
N2B Zn1B 1_555 1_555
C1B O2B 1_555 1_555
C2B C1B 1_555 1_555
H1B C2B 1_555 1_555
C3B C2B 1_555 1_555
H2B C3B 1_555 1_555
C4B C3B 1_555 1_555
C5B C4B 1_555 1_555
H3B C5B 1_555 1_555
C6B C5B 1_555 1_555
H4B C6B 1_555 1_555
C7B C6B 1_555 1_555
H5B C7B 1_555 1_555
C8B C7B 1_555 1_555
H6B C8B 1_555 1_555
C9B C4B 1_555 1_555
C10B O3B 1_555 1_555
C11A H7A 1_555 1_555
C12A C11A 1_555 1_555
H8A C12A 1_555 1_555
C13A C12A 1_555 1_555
C14A C13A 1_555 1_555
H9A C14A 1_555 1_555
C15A N1A 1_555 1_555
H10A C15A 1_555 1_555
C16A C16 1_555 1_555
H11A C16A 1_555 1_555
H12A C16A 1_555 1_555
C17D H13D 1_555 1_555
C18D C17D 1_555 1_555
H14D C18D 1_555 1_555
C19D C18D 1_555 1_555
C20D C19D 1_555 1_555
H15D C20D 1_555 1_555
C21D N2D 1_555 1_555
H16D C21D 1_555 1_555
C22D C22 1_555 1_555
H17D C22D 1_555 1_555
H18D C22D 1_555 1_555
H19B O5B 1_555 1_555
H20B O5B 1_555 1_555
C8 C9 1_555 1_555
C14 C15 1_555 1_555
C20 C21 1_555 1_555
C8B C9B 1_555 1_555
C9B C10B 1_555 1_555
C13A C16A 1_555 1_555
C14A C15A 1_555 1_555
C19D C22D 1_555 1_555
C20D C21D 1_555 1_555

#END
