
#######################################################################
#
#                 Cambridge Crystallographic Data Centre
#                                CCDC 
#
#######################################################################
#
# If this CIF has been generated from an entry in the Cambridge 
# Structural Database, then it will include bibliographic, chemical, 
# crystal, experimental, refinement or atomic coordinate data resulting 
# from the CCDC's data processing and validation procedures.
#
#######################################################################

data_TILDOI
_symmetry_cell_setting           monoclinic
_symmetry_space_group_name_H-M   'P 21/c'
_symmetry_Int_Tables_number      14
_space_group_name_Hall           '-P 2ybc'
loop_
_symmetry_equiv_pos_site_id
_symmetry_equiv_pos_as_xyz
1 x,y,z
2 -x,1/2+y,1/2-z
3 -x,-y,-z
4 x,1/2-y,1/2+z
_cell_length_a                   5.7396(11)
_cell_length_b                   14.607(3)
_cell_length_c                   6.9028(14)
_cell_angle_alpha                90
_cell_angle_beta                 98.925(3)
_cell_angle_gamma                90
_cell_volume                     571.712
loop_
_atom_site_label
_atom_site_type_symbol
_atom_site_fract_x
_atom_site_fract_y
_atom_site_fract_z
Cu1 Cu 0.5000 0.5000 0.0000
S1 S 1.20721(15) 0.33590(7) 0.05242(17)
O1 O 0.5639(4) 0.51177(17) 0.2968(4)
N1 N 0.7720(5) 0.4242(2) -0.0010(4)
N2 N 0.7791(5) 0.50443(19) 0.3968(4)
C1 C 0.9530(6) 0.3876(2) 0.0225(5)
C2 C 0.9157(6) 0.5791(2) 0.4201(5)
H1 H 0.8564 0.6342 0.3655
C3 C 0.8573(6) 0.4232(2) 0.4771(5)
C4 C 0.7014(7) 0.3418(3) 0.4559(6)
H2 H 0.5606 0.3549 0.5097
H3 H 0.7821 0.2910 0.5247
H4 H 0.6606 0.3267 0.3195
Cu1_2 Cu 1.5000 0.5000 1.0000
S1B S -0.20721(15) 0.66410(7) -0.05242(17)
O1B O 1.4361(4) 0.48823(17) 0.7032(4)
O1B_2 O 0.4361(4) 0.48823(17) -0.2968(4)
N1B N 0.2280(5) 0.5758(2) 0.0010(4)
N2B N 1.2209(5) 0.49557(19) 0.6032(4)
C1B C 0.0470(6) 0.6124(2) -0.0225(5)
C2B C 1.0843(6) 0.4209(2) 0.5799(5)
H1B H 1.1436 0.3658 0.6345
C3B C 1.1427(6) 0.5768(2) 0.5229(5)
C4B C 1.2986(7) 0.6582(3) 0.5441(6)
H2B H 1.4394 0.6451 0.4903
H3B H 1.2179 0.7090 0.4753
H4B H 1.3394 0.6733 0.6805
loop_
_geom_bond_atom_site_label_1
_geom_bond_atom_site_label_2
_geom_bond_site_symmetry_1
_geom_bond_site_symmetry_2
Cu1 O1 1_555 1_555
S1 C1 1_555 1_555
O1 N2 1_555 1_555
N1 Cu1 1_555 1_555
N2 C2 1_555 1_555
C1 N1 1_555 1_555
C2 H1 1_555 1_555
C3 N2 1_555 1_555
C4 C3 1_555 1_555
H2 C4 1_555 1_555
H3 C4 1_555 1_555
H4 C4 1_555 1_555
Cu1_2 O1B 1_555 1_555
S1B C1B 1_555 1_555
O1B N2B 1_555 1_555
O1B_2 Cu1 1_555 1_555
N1B Cu1 1_555 1_555
N2B C2B 1_555 1_555
C1B N1B 1_555 1_555
C2B C3 1_555 1_555
H1B C2B 1_555 1_555
C3B C2 1_555 1_555
C4B C3B 1_555 1_555
H2B C4B 1_555 1_555
H3B C4B 1_555 1_555
H4B C4B 1_555 1_555
N2B C3B 1_555 1_555

#END
