
#######################################################################
#
#                 Cambridge Crystallographic Data Centre
#                                CCDC 
#
#######################################################################
#
# If this CIF has been generated from an entry in the Cambridge 
# Structural Database, then it will include bibliographic, chemical, 
# crystal, experimental, refinement or atomic coordinate data resulting 
# from the CCDC's data processing and validation procedures.
#
#######################################################################

data_TILFUQ
_symmetry_cell_setting           orthorhombic
_symmetry_space_group_name_H-M   'P 21 21 21'
_symmetry_Int_Tables_number      19
_space_group_name_Hall           'P 2ac 2ab'
loop_
_symmetry_equiv_pos_site_id
_symmetry_equiv_pos_as_xyz
1 x,y,z
2 1/2-x,-y,1/2+z
3 -x,1/2+y,1/2-z
4 1/2+x,1/2-y,-z
_cell_length_a                   6.2146(12)
_cell_length_b                   7.2413(14)
_cell_length_c                   14.670(3)
_cell_angle_alpha                90
_cell_angle_beta                 90
_cell_angle_gamma                90
_cell_volume                     660.176
loop_
_atom_site_label
_atom_site_type_symbol
_atom_site_fract_x
_atom_site_fract_y
_atom_site_fract_z
Tl1 Tl -1.0909(3) 0.0995(3) 0.04184(11)
Tl2 Tl -0.5396(3) -0.1144(3) -0.15588(12)
O1 O -0.880(4) 0.112(4) -0.1179(18)
O2 O -1.232(5) 0.150(5) -0.146(2)
O3 O -0.984(6) -0.043(4) -0.491(2)
O4 O -0.782(6) 0.235(4) -0.475(2)
C1 C -1.040(5) 0.124(7) -0.176(3)
C2 C -1.028(9) 0.136(8) -0.274(3)
C3 C -0.949(12) 0.144(11) -0.347(4)
C4 C -0.904(5) 0.098(4) -0.451(2)
Tl1C Tl -0.5909(3) 0.4005(3) -0.04184(11)
Tl1A Tl -1.4091(3) -0.0995(3) -0.45816(11)
Tl1B Tl -0.9091(3) -0.4005(3) -0.54184(11)
Tl1B_2 Tl -0.9091(3) 0.5995(3) -0.54184(11)
Tl2_2 Tl -1.5396(3) -0.1144(3) -0.15588(12)
Tl2A Tl -0.9604(3) 0.1144(3) -0.65588(12)
Tl2B Tl -0.4604(3) 0.3856(3) -0.34412(12)
O1C O -1.380(4) 0.388(4) 0.1179(18)
O2_2 O -0.232(5) 0.150(5) -0.146(2)
O3A O -1.516(6) 0.043(4) 0.009(2)
O3B O -1.016(6) 0.457(4) -0.009(2)
O3A_2 O -0.516(6) 0.043(4) 0.009(2)
O4B O -1.218(6) -0.265(4) -0.025(2)
O4B_2 O -0.218(6) -0.265(4) -0.025(2)
loop_
_geom_bond_atom_site_label_1
_geom_bond_atom_site_label_2
_geom_bond_site_symmetry_1
_geom_bond_site_symmetry_2
Tl1 O1 1_555 1_555
Tl2 O1 1_555 1_555
O1 C1 1_555 1_555
O2 Tl1 1_555 1_555
O3 C4 1_555 1_555
O4 C4 1_555 1_555
C1 O2 1_555 1_555
C2 C1 1_555 1_555
C3 C2 1_555 1_555
C4 C3 1_555 1_555
Tl1C O1 1_555 1_555
Tl1A O3 1_555 1_555
Tl1B O3 1_555 1_555
Tl1B_2 O4 1_555 1_555
Tl2_2 O2 1_555 1_555
Tl2A O3 1_555 1_555
Tl2B O4 1_555 1_555
O1C Tl1 1_555 1_555
O2_2 Tl2 1_555 1_555
O3A Tl1 1_555 1_555
O3B Tl1 1_555 1_555
O3A_2 Tl2 1_555 1_555
O4B Tl1 1_555 1_555
O4B_2 Tl2 1_555 1_555
Tl1C O3B 1_555 1_555
Tl1C O3A_2 1_555 1_555
Tl2_2 O3A 1_555 1_555
Tl2_2 O4B 1_555 1_555

#END
