
#######################################################################
#
#                 Cambridge Crystallographic Data Centre
#                                CCDC 
#
#######################################################################
#
# If this CIF has been generated from an entry in the Cambridge 
# Structural Database, then it will include bibliographic, chemical, 
# crystal, experimental, refinement or atomic coordinate data resulting 
# from the CCDC's data processing and validation procedures.
#
#######################################################################

data_TILFUQ01
_symmetry_cell_setting           orthorhombic
_symmetry_space_group_name_H-M   'P 21 21 21'
_symmetry_Int_Tables_number      19
_space_group_name_Hall           'P 2ac 2ab'
loop_
_symmetry_equiv_pos_site_id
_symmetry_equiv_pos_as_xyz
1 x,y,z
2 1/2-x,-y,1/2+z
3 1/2+x,1/2-y,-z
4 -x,1/2+y,1/2-z
_cell_length_a                   6.2324(7)
_cell_length_b                   7.2695(7)
_cell_length_c                   14.7211(18)
_cell_angle_alpha                90
_cell_angle_beta                 90
_cell_angle_gamma                90
_cell_volume                     666.961
loop_
_atom_site_label
_atom_site_type_symbol
_atom_site_fract_x
_atom_site_fract_y
_atom_site_fract_z
Tl1 Tl 0.09066(9) -0.10026(10) 1.04144(4)
Tl2 Tl -0.45994(10) 0.11405(12) 0.84416(4)
C1 C 0.041(2) -0.131(2) 0.8282(11)
C2 C -0.001(3) -0.124(2) 0.7314(11)
C3 C -0.036(2) -0.120(2) 0.6519(11)
C4 C -0.0964(18) -0.104(2) 0.5538(8)
O1 O -0.124(3) -0.112(2) 0.8779(7)
O2 O 0.226(2) -0.153(2) 0.8552(8)
O3 O -0.214(2) -0.233(2) 0.5249(8)
O4 O -0.0191(17) 0.0254(17) 0.5091(7)
Tl1B Tl -0.40934(9) -0.39974(10) 0.95856(4)
Tl1C Tl -0.09066(9) -0.60026(10) 0.45856(4)
Tl1A Tl 0.40934(9) 0.10026(10) 0.54144(4)
Tl1C_2 Tl -0.09066(9) 0.39974(10) 0.45856(4)
Tl2_2 Tl 0.54006(10) 0.11405(12) 0.84416(4)
Tl2A Tl -0.04006(10) -0.11405(12) 0.34416(4)
Tl2C Tl -0.54006(10) -0.38595(12) 0.65584(4)
O1B O 0.376(3) -0.388(2) 1.1221(7)
O2_2 O -0.774(2) -0.153(2) 0.8552(8)
O3C O 0.214(2) 0.267(2) 0.9751(8)
O3A O -0.286(2) 0.233(2) 1.0249(8)
O3C_2 O -0.786(2) 0.267(2) 0.9751(8)
O4A O 0.5191(17) -0.0254(17) 1.0091(7)
O4C O 0.0191(17) -0.4746(17) 0.9909(7)
O4A_2 O -0.4809(17) -0.0254(17) 1.0091(7)
loop_
_geom_bond_atom_site_label_1
_geom_bond_atom_site_label_2
_geom_bond_site_symmetry_1
_geom_bond_site_symmetry_2
Tl1 O1 1_555 1_555
Tl2 O1 1_555 1_555
C1 C2 1_555 1_555
C2 C3 1_555 1_555
C3 C4 1_555 1_555
C4 O3 1_555 1_555
O1 C1 1_555 1_555
O2 Tl1 1_555 1_555
O3 Tl1C 1_555 1_555
O4 C4 1_555 1_555
Tl1B O1 1_555 1_555
Tl1A O4 1_555 1_555
Tl1C_2 O4 1_555 1_555
Tl2_2 O2 1_555 1_555
Tl2A O3 1_555 1_555
Tl2C O3 1_555 1_555
O1B Tl1 1_555 1_555
O2_2 Tl2 1_555 1_555
O3C Tl1 1_555 1_555
O3A Tl2 1_555 1_555
O3C_2 Tl2 1_555 1_555
O4A Tl1 1_555 1_555
O4C Tl1 1_555 1_555
O4A_2 Tl2 1_555 1_555
C1 O2 1_555 1_555
O4 Tl2A 1_555 1_555
Tl1B O4C 1_555 1_555
Tl1B O4A_2 1_555 1_555
Tl2_2 O3C 1_555 1_555
Tl2_2 O4A 1_555 1_555

#END
