
#######################################################################
#
#                 Cambridge Crystallographic Data Centre
#                                CCDC 
#
#######################################################################
#
# If this CIF has been generated from an entry in the Cambridge 
# Structural Database, then it will include bibliographic, chemical, 
# crystal, experimental, refinement or atomic coordinate data resulting 
# from the CCDC's data processing and validation procedures.
#
#######################################################################

data_TILGOL
_symmetry_cell_setting           triclinic
_symmetry_space_group_name_H-M   'P -1'
_symmetry_Int_Tables_number      2
_space_group_name_Hall           '-P 1'
loop_
_symmetry_equiv_pos_site_id
_symmetry_equiv_pos_as_xyz
1 x,y,z
2 -x,-y,-z
_cell_length_a                   6.536(1)
_cell_length_b                   8.127(1)
_cell_length_c                   9.051(1)
_cell_angle_alpha                81.692(2)
_cell_angle_beta                 82.819(2)
_cell_angle_gamma                87.229(2)
_cell_volume                     471.77
loop_
_atom_site_label
_atom_site_type_symbol
_atom_site_fract_x
_atom_site_fract_y
_atom_site_fract_z
Ag1 Ag 0.5000 0.5000 0.5000
O1 O 0.6100(4) 0.8984(3) 0.0724(3)
O2 O 0.6584(4) 0.6375(3) 0.1682(3)
N1 N 0.2355(4) 0.6413(3) 0.4414(3)
N2 N -0.0432(4) 0.7203(3) 0.3301(3)
C1 C 0.0980(5) 0.7225(4) 0.5402(3)
C2 C 0.1120(6) 0.7578(4) 0.6834(4)
C3 C -0.0519(6) 0.8394(4) 0.7547(4)
C4 C -0.2286(6) 0.8848(4) 0.6848(4)
C5 C -0.2461(5) 0.8526(4) 0.5432(4)
C6 C -0.0792(4) 0.7710(4) 0.4700(3)
C7 C 0.1451(4) 0.6430(3) 0.3174(3)
C8 C 0.2318(5) 0.5742(4) 0.1784(4)
C9 C 0.3481(5) 0.7051(4) 0.0607(3)
C10 C 0.5512(5) 0.7485(4) 0.1048(3)
H1 H 0.5000 1.0000 0.0000
H2 H -0.126(4) 0.709(4) 0.268(3)
H3 H 0.2296 0.7271 0.7303
H4 H -0.0449 0.8647 0.8509
H5 H -0.3379 0.9386 0.7363
H6 H -0.3644 0.8837 0.4974
H7 H 0.1204 0.5322 0.1343
H8 H 0.3257 0.4814 0.2046
H9 H 0.3726 0.6626 -0.0350
H10 H 0.2619 0.8054 0.0472
Ag1_2 Ag 0.5000 1.5000 -0.5000
O1A O 0.3900(4) 1.1016(3) -0.0724(3)
O2A O 0.3416(4) 1.3625(3) -0.1682(3)
N1A N 0.7645(4) 1.3587(3) -0.4414(3)
N1A_2 N 0.7645(4) 0.3587(3) 0.5586(3)
N2A N 1.0432(4) 1.2797(3) -0.3301(3)
C1A C 0.9020(5) 1.2775(4) -0.5402(3)
C2A C 0.8880(6) 1.2422(4) -0.6834(4)
C3A C 1.0519(6) 1.1606(4) -0.7547(4)
C4A C 1.2286(6) 1.1152(4) -0.6848(4)
C5A C 1.2461(5) 1.1474(4) -0.5432(4)
C6A C 1.0792(4) 1.2290(4) -0.4700(3)
C7A C 0.8549(4) 1.3570(3) -0.3174(3)
C8A C 0.7682(5) 1.4258(4) -0.1784(4)
C9A C 0.6519(5) 1.2949(4) -0.0607(3)
C10A C 0.4488(5) 1.2515(4) -0.1048(3)
H2A H 1.126(4) 1.291(4) -0.268(3)
H3A H 0.7704 1.2729 -0.7303
H4A H 1.0449 1.1353 -0.8509
H5A H 1.3379 1.0614 -0.7363
H6A H 1.3644 1.1163 -0.4974
H7A H 0.8796 1.4678 -0.1343
H8A H 0.6743 1.5186 -0.2046
H9A H 0.6274 1.3374 0.0350
H10A H 0.7381 1.1946 -0.0472
loop_
_geom_bond_atom_site_label_1
_geom_bond_atom_site_label_2
_geom_bond_site_symmetry_1
_geom_bond_site_symmetry_2
Ag1 N1 1_555 1_555
O1 C10 1_555 1_555
O2 C10 1_555 1_555
N1 C1 1_555 1_555
N2 C6 1_555 1_555
C1 C2 1_555 1_555
C2 C3 1_555 1_555
C3 C4 1_555 1_555
C4 C5 1_555 1_555
C5 C6 1_555 1_555
C6 C1 1_555 1_555
C7 N1 1_555 1_555
C8 C7 1_555 1_555
C9 C8 1_555 1_555
C10 C9 1_555 1_555
H1 O1 1_555 1_555
H2 N2 1_555 1_555
H3 C2 1_555 1_555
H4 C3 1_555 1_555
H5 C4 1_555 1_555
H6 C5 1_555 1_555
H7 C8 1_555 1_555
H8 C8 1_555 1_555
H9 C9 1_555 1_555
H10 C9 1_555 1_555
Ag1_2 N1A 1_555 1_555
O1A H1 1_555 1_555
O2A C10A 1_555 1_555
N1A C1A 1_555 1_555
N1A_2 Ag1 1_555 1_555
N2A C6A 1_555 1_555
C1A C2A 1_555 1_555
C2A C3A 1_555 1_555
C3A C4A 1_555 1_555
C4A C5A 1_555 1_555
C5A C6A 1_555 1_555
C6A C1A 1_555 1_555
C7A N1A 1_555 1_555
C8A C7A 1_555 1_555
C9A C8A 1_555 1_555
C10A O1A 1_555 1_555
H2A N2A 1_555 1_555
H3A C2A 1_555 1_555
H4A C3A 1_555 1_555
H5A C4A 1_555 1_555
H6A C5A 1_555 1_555
H7A C8A 1_555 1_555
H8A C8A 1_555 1_555
H9A C9A 1_555 1_555
H10A C9A 1_555 1_555
N2 C7 1_555 1_555
N2A C7A 1_555 1_555
C9A C10A 1_555 1_555

#END
