
#######################################################################
#
#                 Cambridge Crystallographic Data Centre
#                                CCDC 
#
#######################################################################
#
# If this CIF has been generated from an entry in the Cambridge 
# Structural Database, then it will include bibliographic, chemical, 
# crystal, experimental, refinement or atomic coordinate data resulting 
# from the CCDC's data processing and validation procedures.
#
#######################################################################

data_TILHAY
_symmetry_cell_setting           monoclinic
_symmetry_space_group_name_H-M   'C 2/c'
_symmetry_Int_Tables_number      15
_space_group_name_Hall           '-C 2yn'
loop_
_symmetry_equiv_pos_site_id
_symmetry_equiv_pos_as_xyz
1 x,y,z
2 1/2+x,1/2+y,z
3 -x,y,1/2-z
4 1/2-x,1/2+y,1/2-z
5 -x,-y,-z
6 1/2-x,1/2-y,-z
7 x,-y,1/2+z
8 1/2+x,1/2-y,1/2+z
_cell_length_a                   14.7366(19)
_cell_length_b                   13.5985(17)
_cell_length_c                   11.3369(14)
_cell_angle_alpha                90
_cell_angle_beta                 113.141(2)
_cell_angle_gamma                90
_cell_volume                     2089.07
loop_
_atom_site_label
_atom_site_type_symbol
_atom_site_fract_x
_atom_site_fract_y
_atom_site_fract_z
C9 C 0.8122(6) -0.2969(7) 0.4694(8)
N1 N 0.7610(9) -0.2127(9) 0.4769(9)
C9E C 0.6878(6) -0.2031(7) 0.5306(8)
N1E N 0.7390(9) -0.2873(9) 0.5231(9)
C1 C 0.3469(3) -0.5153(3) 0.1543(4)
C2 C 0.2603(3) -0.5765(3) 0.0703(4)
C3 C 0.2127(4) -0.6375(3) 0.1259(5)
H1 H 0.2331 -0.6385 0.2146
C4 C 0.1349(3) -0.6970(3) 0.0507(4)
C5 C 0.0851(4) -0.7651(3) 0.1115(5)
C6 C 0.1039(4) -0.6940(4) -0.0820(5)
H2 H 0.0522 -0.7340 -0.1333
C7 C 0.2281(4) -0.5731(4) -0.0625(5)
H3 H 0.2590 -0.5319 -0.1006
C8 C 0.1496(5) -0.6316(4) -0.1377(5)
H4 H 0.1276 -0.6288 -0.2266
O1 O 0.3853(2) -0.4588(2) 0.0960(3)
O2 O 0.3767(3) -0.5190(3) 0.2730(3)
O3 O 0.0249(3) -0.8270(3) 0.0446(4)
O4 O 0.1053(3) -0.7567(3) 0.2293(4)
Na1 Na 0.5000 -0.5000 0.0000
Cd1 Cd 0.5000 -0.37233(3) 0.2500
C1D C 0.6531(3) -0.4847(3) -0.1543(4)
C2D C 0.7397(3) -0.4235(3) -0.0703(4)
C3D C 0.7873(4) -0.3625(3) -0.1259(5)
H1D H 0.7669 -0.3615 -0.2146
C4D C 0.8651(3) -0.3030(3) -0.0507(4)
C5D C 0.9149(4) -0.2349(3) -0.1115(5)
C6D C 0.8961(4) -0.3060(4) 0.0820(5)
H2D H 0.9478 -0.2660 0.1333
C7D C 0.7719(4) -0.4269(4) 0.0625(5)
H3D H 0.7410 -0.4681 0.1006
C8D C 0.8504(5) -0.3684(4) 0.1377(5)
H4D H 0.8724 -0.3712 0.2266
O1D O 0.6147(2) -0.5412(2) -0.0960(3)
O1B O 0.6147(2) -0.4588(2) 0.4040(3)
O2D O 0.6233(3) -0.4810(3) -0.2730(3)
O2F O 0.3767(3) -0.4810(3) -0.2270(3)
O2B O 0.6233(3) -0.5190(3) 0.2270(3)
O3D O 0.9751(3) -0.1730(3) -0.0446(4)
O3A O 0.5249(3) -0.3270(3) 0.0446(4)
O3E O 0.4751(3) -0.6730(3) -0.0446(4)
O4D O 0.8947(3) -0.2433(3) -0.2293(4)
O4A O 0.6053(3) -0.2567(3) 0.2293(4)
O4C O 0.3947(3) -0.2567(3) 0.2707(4)
Na1F Na 0.5000 -0.5000 0.5000
Na1A Na 0.0000 -1.0000 0.0000
Na1F_2 Na 0.5000 -0.5000 -0.5000
Na1A_2 Na 1.0000 0.0000 0.0000
Cd1A Cd 0.0000 -0.87233(3) 0.2500
Cd1F Cd 0.5000 -0.62767(3) -0.2500
Cd1G Cd 1.0000 -0.12767(3) -0.2500
loop_
_geom_bond_atom_site_label_1
_geom_bond_atom_site_label_2
_geom_bond_site_symmetry_1
_geom_bond_site_symmetry_2
C1 C2 1_555 1_555
C2 C3 1_555 1_555
C3 H1 1_555 1_555
C4 C3 1_555 1_555
C5 C4 1_555 1_555
C6 C4 1_555 1_555
H2 C6 1_555 1_555
C7 C2 1_555 1_555
H3 C7 1_555 1_555
C8 C6 1_555 1_555
H4 C8 1_555 1_555
C9 N1 1_555 1_555
N1 C9E 1_555 1_555
O1 C1 1_555 1_555
O2 C1 1_555 1_555
O3 C5 1_555 1_555
O4 C5 1_555 1_555
Na1 O1 1_555 1_555
Cd1 O1 1_555 1_555
C1D C2D 1_555 1_555
C2D C3D 1_555 1_555
C3D H1D 1_555 1_555
C4D C3D 1_555 1_555
C5D C4D 1_555 1_555
C6D C4D 1_555 1_555
H2D C6D 1_555 1_555
C7D C2D 1_555 1_555
H3D C7D 1_555 1_555
C8D C6D 1_555 1_555
H4D C8D 1_555 1_555
C9E N1E 1_555 1_555
N1E C9 1_555 1_555
O1D Na1 1_555 1_555
O1B Cd1 1_555 1_555
O2D C1D 1_555 1_555
O2F Na1 1_555 1_555
O2B Na1 1_555 1_555
O3D C5D 1_555 1_555
O3A Na1 1_555 1_555
O3E Na1 1_555 1_555
O4D C5D 1_555 1_555
O4A Cd1 1_555 1_555
O4C Cd1 1_555 1_555
Na1F O2 1_555 1_555
Na1A O3 1_555 1_555
Na1F_2 O2D 1_555 1_555
Na1A_2 O3D 1_555 1_555
Cd1A O4 1_555 1_555
Cd1F O1D 1_555 1_555
Cd1G O4D 1_555 1_555
C7 C8 1_555 1_555
N1 N1E 1_555 1_555
C1D O1D 1_555 1_555
C7D C8D 1_555 1_555
O1B Na1F 1_555 1_555

#END
