
#######################################################################
#
#                 Cambridge Crystallographic Data Centre
#                                CCDC 
#
#######################################################################
#
# If this CIF has been generated from an entry in the Cambridge 
# Structural Database, then it will include bibliographic, chemical, 
# crystal, experimental, refinement or atomic coordinate data resulting 
# from the CCDC's data processing and validation procedures.
#
#######################################################################

data_TILHEC
_symmetry_cell_setting           monoclinic
_symmetry_space_group_name_H-M   'C 2/c'
_symmetry_Int_Tables_number      15
_space_group_name_Hall           '-C 2yn'
loop_
_symmetry_equiv_pos_site_id
_symmetry_equiv_pos_as_xyz
1 x,y,z
2 1/2+x,1/2+y,z
3 -x,y,1/2-z
4 1/2-x,1/2+y,1/2-z
5 -x,-y,-z
6 1/2-x,1/2-y,-z
7 x,-y,1/2+z
8 1/2+x,1/2-y,1/2+z
_cell_length_a                   13.3751(12)
_cell_length_b                   14.3847(12)
_cell_length_c                   11.3178(8)
_cell_angle_alpha                90
_cell_angle_beta                 111.405(7)
_cell_angle_gamma                90
_cell_volume                     2027.31
loop_
_atom_site_label
_atom_site_type_symbol
_atom_site_fract_x
_atom_site_fract_y
_atom_site_fract_z
C9 C 0.6955(15) -0.1985(15) 0.552(2)
N1 N 0.7230(12) -0.2794(14) 0.5199(12)
C10 C 0.6771(15) -0.1777(13) 0.467(2)
C9E C 0.8045(15) -0.3015(15) 0.448(2)
N1E N 0.7770(12) -0.2206(14) 0.4801(12)
C10E C 0.8229(15) -0.3223(13) 0.533(2)
Co1 Co 1.0000 0.11366(6) 0.2500
Na1 Na 1.0000 0.0000 0.5000
O1 O 0.8656(3) -0.0261(4) 0.2914(4)
O2 O 0.8898(3) 0.0335(3) 0.1238(4)
C1 C 0.8430(4) -0.0217(4) 0.1756(5)
C2 C 0.7566(4) -0.0825(3) 0.0880(4)
C3 C 0.7070(4) -0.1501(4) 0.1356(5)
H1 H 0.7261 -0.1559 0.2229
C4 C 0.5799(6) -0.2824(5) 0.1130(12)
C5 C 0.7259(4) -0.0740(4) -0.0431(5)
H2 H 0.7577 -0.0292 -0.0772
C6 C 0.6306(4) -0.2084(4) 0.0563(7)
C7 C 0.6014(5) -0.2000(5) -0.0736(7)
H3 H 0.5503 -0.2399 -0.1276
O3 O 0.6023(6) -0.2843(4) 0.2285(9)
O4 O 0.5164(5) -0.3372(4) 0.0415(10)
C8 C 0.6479(5) -0.1327(5) -0.1229(6)
H4 H 0.6270 -0.1264 -0.2104
Co1A Co 0.5000 -0.38634(6) 0.2500
Co1A_2 Co 1.5000 -0.38634(6) 0.2500
Na1F Na 1.0000 0.0000 0.0000
Na1G Na 0.5000 -0.5000 0.0000
Na1A Na 1.5000 -0.5000 0.5000
O1B O 1.1344(3) -0.0261(4) 0.2086(4)
O1D O 1.1344(3) 0.0261(4) 0.7086(4)
O2B O 1.1102(3) 0.0335(3) 0.3762(4)
O2F O 0.8898(3) -0.0335(3) 0.6238(4)
C1B C 1.1570(4) -0.0217(4) 0.3244(5)
C2B C 1.2434(4) -0.0825(3) 0.4120(4)
C3B C 1.2930(4) -0.1501(4) 0.3644(5)
H1B H 1.2739 -0.1559 0.2771
C4B C 1.4201(6) -0.2824(5) 0.3870(12)
C5B C 1.2741(4) -0.0740(4) 0.5431(5)
H2B H 1.2423 -0.0292 0.5772
C6B C 1.3694(4) -0.2084(4) 0.4437(7)
C7B C 1.3986(5) -0.2000(5) 0.5736(7)
H3B H 1.4497 -0.2399 0.6276
O3B O 1.3977(6) -0.2843(4) 0.2715(9)
O3A O 1.1023(6) 0.2157(4) 0.2285(9)
O3C O 0.8977(6) 0.2157(4) 0.2715(9)
O4B O 1.4836(5) -0.3372(4) 0.4585(10)
O4G O 1.0164(5) -0.1628(4) 0.5415(10)
O4C O 0.9836(5) 0.1628(4) 0.4585(10)
C8B C 1.3521(5) -0.1327(5) 0.6229(6)
H4B H 1.3730 -0.1264 0.7104
loop_
_geom_bond_atom_site_label_1
_geom_bond_atom_site_label_2
_geom_bond_site_symmetry_1
_geom_bond_site_symmetry_2
Co1 O2 1_555 1_555
Na1 O1 1_555 1_555
O1 C1 1_555 1_555
O2 C1 1_555 1_555
C1 C2 1_555 1_555
C2 C3 1_555 1_555
C3 H1 1_555 1_555
C4 C6 1_555 1_555
C5 C2 1_555 1_555
H2 C5 1_555 1_555
C6 C3 1_555 1_555
C7 C6 1_555 1_555
H3 C7 1_555 1_555
O3 C4 1_555 1_555
O4 C4 1_555 1_555
C8 C5 1_555 1_555
H4 C8 1_555 1_555
C9 N1 1_555 1_555
N1 C10 1_555 1_555
C10 C9 1_555 1_555
Co1A O3 1_555 1_555
Co1A_2 O3B 1_555 1_555
Na1F O2 1_555 1_555
Na1G O4 1_555 1_555
Na1A O4B 1_555 1_555
O1B Na1F 1_555 1_555
O1D Na1 1_555 1_555
O2B Co1 1_555 1_555
O2F Na1 1_555 1_555
C1B O1B 1_555 1_555
C2B C1B 1_555 1_555
C3B C2B 1_555 1_555
H1B C3B 1_555 1_555
C4B C6B 1_555 1_555
C5B C2B 1_555 1_555
H2B C5B 1_555 1_555
C6B C3B 1_555 1_555
C7B C6B 1_555 1_555
H3B C7B 1_555 1_555
O3B C4B 1_555 1_555
O3A Co1 1_555 1_555
O3C Co1 1_555 1_555
O4B C4B 1_555 1_555
O4G Na1 1_555 1_555
O4C Na1 1_555 1_555
C8B C5B 1_555 1_555
H4B C8B 1_555 1_555
C9E N1 1_555 1_555
N1E C9 1_555 1_555
C10E N1 1_555 1_555
Na1 O2B 1_555 1_555
C7 C8 1_555 1_555
N1 N1E 1_555 1_555
C10 N1E 1_555 1_555
O2B C1B 1_555 1_555
C7B C8B 1_555 1_555
C9E N1E 1_555 1_555
C9E C10E 1_555 1_555
N1E C10E 1_555 1_555

#END
