
#######################################################################
#
#                 Cambridge Crystallographic Data Centre
#                                CCDC 
#
#######################################################################
#
# If this CIF has been generated from an entry in the Cambridge 
# Structural Database, then it will include bibliographic, chemical, 
# crystal, experimental, refinement or atomic coordinate data resulting 
# from the CCDC's data processing and validation procedures.
#
#######################################################################

data_TILJUU01
_symmetry_cell_setting           monoclinic
_symmetry_space_group_name_H-M   'P 21/c'
_symmetry_Int_Tables_number      14
_space_group_name_Hall           '-P 2ybc'
loop_
_symmetry_equiv_pos_site_id
_symmetry_equiv_pos_as_xyz
1 x,y,z
2 -x,1/2+y,1/2-z
3 -x,-y,-z
4 x,1/2-y,1/2+z
_cell_length_a                   10.594(2)
_cell_length_b                   14.216(3)
_cell_length_c                   17.150(4)
_cell_angle_alpha                90
_cell_angle_beta                 97.962(4)
_cell_angle_gamma                90
_cell_volume                     2557.97
loop_
_atom_site_label
_atom_site_type_symbol
_atom_site_fract_x
_atom_site_fract_y
_atom_site_fract_z
H1 H 0.812(5) 0.808(3) 0.202(3)
H2 H 0.865(15) 0.714(11) 0.169(9)
O1 O 0.5996(3) 0.7816(2) 0.28342(17)
O2 O 0.6809(3) 0.5951(2) 0.2183(2)
O3 O 0.5394(3) 0.4830(2) 0.1829(2)
C1 C 0.6453(5) 0.5112(4) 0.2172(3)
C2 C 0.7333(4) 0.4418(3) 0.2622(3)
O4 O 0.4644(3) 0.3681(2) 0.37587(19)
O5 O 0.3649(3) 0.4799(2) 0.29937(18)
C3 C 0.4504(5) 0.4522(3) 0.3534(3)
O6 O 0.4384(3) 0.6971(2) 0.04389(19)
O7 O 0.3379(3) 0.5600(2) 0.04932(18)
C4 C 0.3495(5) 0.6407(4) 0.0211(3)
H3 H 0.485(4) 0.632(3) 0.323(3)
C5 C 0.1606(5) 0.7972(4) -0.1316(3)
C6 C 0.7233(6) 0.6541(4) 0.4563(3)
C7 C 0.8479(5) 0.4705(4) 0.3034(3)
C8 C 0.6980(5) 0.3485(3) 0.2659(3)
Y1 Y 0.57855(4) 0.71877(3) 0.15550(3)
Y2 Y 0.32215(4) 0.48725(3) 0.16548(3)
O9 O 0.8138(3) 0.1193(2) 0.3217(2)
O10 O 0.6127(3) 0.1640(2) 0.30349(17)
O11 O 0.7906(4) 0.7767(3) 0.1723(3)
O12 O 0.6546(3) 0.8461(2) 0.40037(18)
O13 O -0.1128(3) 0.5459(2) -0.08418(19)
C9 C 0.6281(4) 0.7749(3) 0.3571(3)
C10 C 0.6300(4) 0.6802(3) 0.3944(3)
C11 C 0.2480(5) 0.6757(3) -0.0426(3)
C12 C 0.7315(5) 0.1843(3) 0.3118(3)
O14 O -0.1497(3) 0.6079(2) -0.20211(19)
C13 C 0.1382(5) 0.6235(4) -0.0638(3)
C14 C 0.5438(5) 0.5232(3) 0.3923(3)
C15 C 0.5398(5) 0.6135(3) 0.3639(3)
C16 C 0.2574(6) 0.7633(4) -0.0772(3)
C17 C 0.7728(4) 0.2838(3) 0.3104(3)
C18 C -0.0803(5) 0.5995(3) -0.1362(3)
C19 C 0.0389(4) 0.6571(3) -0.1183(3)
C20 C 0.6383(5) 0.4978(4) 0.4532(3)
C21 C 0.9247(6) 0.4063(4) 0.3488(4)
C22 C 0.0517(6) 0.7437(4) -0.1527(3)
C23 C 0.7261(6) 0.5626(4) 0.4850(3)
O15 O 0.6828(4) 0.6484(3) 0.0620(2)
C24 C 0.8871(5) 0.3133(4) 0.3533(4)
H4 H 0.644(4) 0.431(3) 0.471(2)
H5 H 0.874(4) 0.536(3) 0.304(3)
H6 H 0.626(4) 0.332(3) 0.242(3)
H7 H 0.944(5) 0.268(4) 0.387(3)
H8 H 0.176(4) 0.861(3) -0.151(3)
H9 H 0.134(4) 0.571(3) -0.040(2)
H10 H -0.016(5) 0.765(4) -0.186(3)
H11 H 0.321(5) 0.793(3) -0.064(3)
H12 H 0.745(4) 0.629(3) 0.070(3)
H13 H 0.654(6) 0.649(4) 0.005(4)
H14 H 0.999(5) 0.425(4) 0.382(3)
H15 H 0.787(5) 0.697(4) 0.475(3)
H16 H 0.781(6) 0.544(4) 0.525(3)
O4A O 0.5356(3) 0.8681(2) 0.12413(19)
Y1A Y 0.42145(4) 0.21877(3) 0.34450(3)
Y2A Y 0.67785(4) -0.01275(3) 0.33452(3)
Y2A_2 Y 0.67785(4) 0.98725(3) 0.33452(3)
Y2B Y -0.32215(4) 0.51275(3) -0.16548(3)
O9A O 0.1862(3) 0.6193(2) 0.1783(2)
O10A O 0.3873(3) 0.6640(2) 0.19651(17)
O12A O 0.3454(3) 0.3461(2) 0.09963(18)
O13B O 0.1128(3) 0.4541(2) 0.08418(19)
O14B O 0.1497(3) 0.3921(2) 0.20211(19)
O8 O 0.9385(4) 0.6259(3) 0.0738(3)
H17 H 0.930(4) 0.617(3) 0.1329(9)
H18 H 0.952(14) 0.589(9) 0.025(5)
loop_
_geom_bond_atom_site_label_1
_geom_bond_atom_site_label_2
_geom_bond_site_symmetry_1
_geom_bond_site_symmetry_2
H1 O11 1_555 1_555
H2 O11 1_555 1_555
O1 Y1 1_555 1_555
O2 C1 1_555 1_555
O3 C1 1_555 1_555
C1 C2 1_555 1_555
C2 C7 1_555 1_555
O4 C3 1_555 1_555
O5 C3 1_555 1_555
C3 C14 1_555 1_555
O6 C4 1_555 1_555
O7 C4 1_555 1_555
C4 C11 1_555 1_555
H3 C15 1_555 1_555
C5 C16 1_555 1_555
C6 C10 1_555 1_555
C7 C21 1_555 1_555
C8 C2 1_555 1_555
O8 H17 1_555 1_555
Y1 O2 1_555 1_555
Y2 O3 1_555 1_555
O9 C12 1_555 1_555
O10 C12 1_555 1_555
O11 Y1 1_555 1_555
O12 C9 1_555 1_555
O13 C18 1_555 1_555
C9 O1 1_555 1_555
C10 C9 1_555 1_555
C11 C13 1_555 1_555
C12 C17 1_555 1_555
O14 C18 1_555 1_555
C13 C19 1_555 1_555
C14 C15 1_555 1_555
C15 C10 1_555 1_555
C16 C11 1_555 1_555
C17 C8 1_555 1_555
C18 C19 1_555 1_555
C19 C22 1_555 1_555
C20 C14 1_555 1_555
C21 C24 1_555 1_555
C22 C5 1_555 1_555
C23 C6 1_555 1_555
O15 Y1 1_555 1_555
C24 C17 1_555 1_555
H4 C20 1_555 1_555
H5 C7 1_555 1_555
H6 C8 1_555 1_555
H7 C24 1_555 1_555
H8 C5 1_555 1_555
H9 C13 1_555 1_555
H10 C22 1_555 1_555
H11 C16 1_555 1_555
H12 O15 1_555 1_555
H13 O15 1_555 1_555
H14 C21 1_555 1_555
H15 C6 1_555 1_555
H16 C23 1_555 1_555
H18 O8 1_555 1_555
O4A Y1 1_555 1_555
Y1A O4 1_555 1_555
Y2A O9 1_555 1_555
Y2A_2 O12 1_555 1_555
Y2B O13 1_555 1_555
O9A Y2 1_555 1_555
O10A Y1 1_555 1_555
O12A Y2 1_555 1_555
O13B Y2 1_555 1_555
O14B Y2 1_555 1_555
O5 Y2 1_555 1_555
O6 Y1 1_555 1_555
O7 Y2 1_555 1_555
Y2 O10A 1_555 1_555
O10 Y1A 1_555 1_555
O10 Y2A 1_555 1_555
O14 Y2B 1_555 1_555
C20 C23 1_555 1_555

#END
