
#######################################################################
#
#                 Cambridge Crystallographic Data Centre
#                                CCDC 
#
#######################################################################
#
# If this CIF has been generated from an entry in the Cambridge 
# Structural Database, then it will include bibliographic, chemical, 
# crystal, experimental, refinement or atomic coordinate data resulting 
# from the CCDC's data processing and validation procedures.
#
#######################################################################

data_TILJII
_symmetry_cell_setting           monoclinic
_symmetry_space_group_name_H-M   'P 21/n'
_symmetry_Int_Tables_number      14
_space_group_name_Hall           '-P 2yn'
loop_
_symmetry_equiv_pos_site_id
_symmetry_equiv_pos_as_xyz
1 x,y,z
2 1/2-x,1/2+y,1/2-z
3 -x,-y,-z
4 1/2+x,1/2-y,1/2+z
_cell_length_a                   7.7878(16)
_cell_length_b                   5.6894(11)
_cell_length_c                   14.047(3)
_cell_angle_alpha                90
_cell_angle_beta                 102.44(3)
_cell_angle_gamma                90
_cell_volume                     607.781
loop_
_atom_site_label
_atom_site_type_symbol
_atom_site_fract_x
_atom_site_fract_y
_atom_site_fract_z
C1 C 0.6681(2) 0.0147(3) 0.60174(14)
C2 C 0.8373(3) 0.4432(4) 0.40915(16)
H1 H 0.8553 0.2925 0.4350
C3 C 0.7301(3) 0.7825(4) 0.36872(18)
H2 H 0.6565 0.9129 0.3616
C4 C 0.8755(3) 0.7648(4) 0.33269(18)
H3 H 0.9213 0.8778 0.2973
Mn1 Mn 0.5000 0.5000 0.5000
N1 N 0.6501(2) 0.1941(3) 0.56303(13)
N2 N 0.9416(2) 0.5489(4) 0.35851(14)
H4 H 1.0349 0.4898 0.3447
N3 N 0.7052(2) 0.5802(3) 0.41774(12)
S1 S 0.68564(7) -0.24023(8) 0.65835(4)
C1B C 0.3319(2) 0.9853(3) 0.39826(14)
C2B C 0.1627(3) 0.5568(4) 0.59085(16)
H1B H 0.1447 0.7075 0.5650
C3B C 0.2699(3) 0.2175(4) 0.63128(18)
H2B H 0.3435 0.0871 0.6384
C4B C 0.1245(3) 0.2352(4) 0.66731(18)
H3B H 0.0787 0.1222 0.7027
Mn1_2 Mn 0.5000 -0.5000 0.5000
Mn1_3 Mn 0.5000 1.5000 0.5000
N1B N 0.3499(2) 0.8059(3) 0.43697(13)
N2B N 0.0584(2) 0.4511(4) 0.64149(14)
H4B H -0.0349 0.5102 0.6553
N3B N 0.2948(2) 0.4198(3) 0.58226(12)
S1B S 0.31436(7) 1.24023(8) 0.34165(4)
S1_2 S 0.68564(7) 0.75977(8) 0.65835(4)
S1B_2 S 0.31436(7) 0.24023(8) 0.34165(4)
loop_
_geom_bond_atom_site_label_1
_geom_bond_atom_site_label_2
_geom_bond_site_symmetry_1
_geom_bond_site_symmetry_2
C1 N1 1_555 1_555
C2 H1 1_555 1_555
C3 H2 1_555 1_555
C4 C3 1_555 1_555
H3 C4 1_555 1_555
Mn1 N1 1_555 1_555
N2 C2 1_555 1_555
H4 N2 1_555 1_555
N3 C2 1_555 1_555
S1 C1 1_555 1_555
C1B N1B 1_555 1_555
C2B H1B 1_555 1_555
C3B H2B 1_555 1_555
C4B C3B 1_555 1_555
H3B C4B 1_555 1_555
Mn1_2 S1 1_555 1_555
Mn1_3 S1B 1_555 1_555
N1B Mn1 1_555 1_555
N2B C2B 1_555 1_555
H4B N2B 1_555 1_555
N3B Mn1 1_555 1_555
S1B C1B 1_555 1_555
S1_2 Mn1 1_555 1_555
S1B_2 Mn1 1_555 1_555
C3 N3 1_555 1_555
C4 N2 1_555 1_555
Mn1 N3 1_555 1_555
C2B N3B 1_555 1_555
C3B N3B 1_555 1_555
C4B N2B 1_555 1_555

#END
