
#######################################################################
#
#                 Cambridge Crystallographic Data Centre
#                                CCDC 
#
#######################################################################
#
# If this CIF has been generated from an entry in the Cambridge 
# Structural Database, then it will include bibliographic, chemical, 
# crystal, experimental, refinement or atomic coordinate data resulting 
# from the CCDC's data processing and validation procedures.
#
#######################################################################

data_TILJEE
_symmetry_cell_setting           monoclinic
_symmetry_space_group_name_H-M   'P 21/n'
_symmetry_Int_Tables_number      14
_space_group_name_Hall           '-P 2yn'
loop_
_symmetry_equiv_pos_site_id
_symmetry_equiv_pos_as_xyz
1 x,y,z
2 1/2-x,1/2+y,1/2-z
3 -x,-y,-z
4 1/2+x,1/2-y,1/2+z
_cell_length_a                   7.6950(15)
_cell_length_b                   5.6170(11)
_cell_length_c                   13.772(3)
_cell_angle_alpha                90
_cell_angle_beta                 103.01(3)
_cell_angle_gamma                90
_cell_volume                     579.985
loop_
_atom_site_label
_atom_site_type_symbol
_atom_site_fract_x
_atom_site_fract_y
_atom_site_fract_z
C1 C 0.8303(3) 0.9277(4) 0.41258(16)
H1 H 0.8456 0.7748 0.4390
C2 C 0.7263(3) 1.2771(4) 0.37103(17)
H2 H 0.6540 1.4115 0.3638
C3 C 0.8752(3) 1.2532(4) 0.33411(17)
H3 H 0.9235 1.3651 0.2979
C4 C 0.6625(2) 0.5147(3) 0.60043(15)
Co1 Co 0.5000 1.0000 0.5000
N1 N 0.6985(2) 1.0730(3) 0.42055(12)
N2 N 0.9385(2) 1.0311(3) 0.36125(14)
H4 H 1.0320 0.9678 0.3477
N3 N 0.6418(2) 0.7005(3) 0.56320(13)
S1 S 0.68010(6) 0.25025(8) 0.65422(4)
C1B C 0.1697(3) 1.0723(4) 0.58742(16)
H1B H 0.1544 1.2252 0.5610
C2B C 0.2737(3) 0.7229(4) 0.62897(17)
H2B H 0.3460 0.5885 0.6362
C3B C 0.1248(3) 0.7468(4) 0.66589(17)
H3B H 0.0765 0.6349 0.7021
C4B C 0.3375(2) 1.4853(3) 0.39957(15)
Co1_2 Co 0.5000 0.0000 0.5000
Co1_3 Co 0.5000 2.0000 0.5000
N1B N 0.3015(2) 0.9270(3) 0.57945(12)
N2B N 0.0615(2) 0.9689(3) 0.63875(14)
H4B H -0.0320 1.0322 0.6523
N3B N 0.3582(2) 1.2995(3) 0.43680(13)
S1B S 0.31990(6) 1.74975(8) 0.34578(4)
S1_2 S 0.68010(6) 1.25025(8) 0.65422(4)
S1B_2 S 0.31990(6) 0.74975(8) 0.34578(4)
loop_
_geom_bond_atom_site_label_1
_geom_bond_atom_site_label_2
_geom_bond_site_symmetry_1
_geom_bond_site_symmetry_2
C1 H1 1_555 1_555
C2 H2 1_555 1_555
C3 C2 1_555 1_555
H3 C3 1_555 1_555
C4 N3 1_555 1_555
Co1 N1 1_555 1_555
N1 C1 1_555 1_555
N2 C1 1_555 1_555
H4 N2 1_555 1_555
N3 Co1 1_555 1_555
S1 C4 1_555 1_555
C1B H1B 1_555 1_555
C2B H2B 1_555 1_555
C3B C2B 1_555 1_555
H3B C3B 1_555 1_555
C4B N3B 1_555 1_555
Co1_2 S1 1_555 1_555
Co1_3 S1B 1_555 1_555
N1B Co1 1_555 1_555
N2B C1B 1_555 1_555
H4B N2B 1_555 1_555
N3B Co1 1_555 1_555
S1B C4B 1_555 1_555
S1_2 Co1 1_555 1_555
S1B_2 Co1 1_555 1_555
C2 N1 1_555 1_555
C3 N2 1_555 1_555
C1B N1B 1_555 1_555
C2B N1B 1_555 1_555
C3B N2B 1_555 1_555

#END
