
#######################################################################
#
#                 Cambridge Crystallographic Data Centre
#                                CCDC 
#
#######################################################################
#
# If this CIF has been generated from an entry in the Cambridge 
# Structural Database, then it will include bibliographic, chemical, 
# crystal, experimental, refinement or atomic coordinate data resulting 
# from the CCDC's data processing and validation procedures.
#
#######################################################################

data_TILJUU
_symmetry_cell_setting           monoclinic
_symmetry_space_group_name_H-M   'P 21/c'
_symmetry_Int_Tables_number      14
_space_group_name_Hall           '-P 2ybc'
loop_
_symmetry_equiv_pos_site_id
_symmetry_equiv_pos_as_xyz
1 x,y,z
2 -x,1/2+y,1/2-z
3 -x,-y,-z
4 x,1/2-y,1/2+z
_cell_length_a                   10.587(2)
_cell_length_b                   14.227(3)
_cell_length_c                   17.130(3)
_cell_angle_alpha                90
_cell_angle_beta                 97.998(4)
_cell_angle_gamma                90
_cell_volume                     2555.04
loop_
_atom_site_label
_atom_site_type_symbol
_atom_site_fract_x
_atom_site_fract_y
_atom_site_fract_z
Y1 Y 0.07841(4) 0.28120(3) 0.15552(3)
Y2 Y 0.17786(4) 1.01275(3) 0.33451(3)
O1 O -0.0619(3) 0.3029(3) 0.0436(2)
O2 O 0.0356(3) 0.1314(2) 0.1243(2)
O3 O 0.2891(3) 0.2222(3) 0.1729(3)
O4 O -0.0996(3) -0.2814(2) 0.21634(18)
O5 O 0.1817(3) 0.4042(2) 0.2186(2)
O6 O 0.1129(3) 0.8361(2) 0.30352(18)
O7 O 0.1838(4) 0.3524(3) 0.0629(2)
O8 O -0.1625(3) 0.4399(2) 0.04935(19)
O9 O 0.0392(3) 0.5166(3) 0.1828(2)
O10 O 0.1346(3) 0.0194(2) 0.20099(19)
O11 O 0.3133(3) 0.8806(2) 0.3219(2)
O12 O -0.6124(3) 0.4543(2) -0.0843(2)
O13 O -0.6499(3) 0.3927(2) -0.20215(19)
O14 O -0.1545(3) -0.3461(2) 0.09972(19)
C1 C -0.1277(4) -0.2752(4) 0.1428(3)
C2 C -0.1304(4) -0.1795(3) 0.1057(3)
C3 C -0.2216(5) -0.1537(4) 0.0435(3)
H1 H -0.2800 -0.1980 0.0207
C4 C -0.2266(5) -0.0632(4) 0.0152(3)
H2 H -0.2895 -0.0461 -0.0258
C5 C -0.1384(5) 0.0023(4) 0.0476(3)
H3 H -0.1426 0.0639 0.0291
C6 C -0.0434(4) -0.0240(4) 0.1078(3)
C7 C -0.0402(4) -0.1139(3) 0.1356(3)
H4 H 0.0241 -0.1315 0.1755
C8 C 0.0500(4) 0.0471(3) 0.1468(3)
C9 C -0.5808(4) 0.3999(4) -0.1360(3)
C10 C -0.4610(4) 0.3424(4) -0.1180(3)
C11 C -0.4486(5) 0.2559(4) -0.1523(3)
H5 H -0.5135 0.2333 -0.1898
C12 C -0.3400(5) 0.2026(4) -0.1312(3)
H6 H -0.3328 0.1437 -0.1536
C13 C -0.2423(5) 0.2369(4) -0.0768(3)
H7 H -0.1691 0.2010 -0.0631
C14 C -0.2525(5) 0.3247(4) -0.0424(3)
C15 C -0.1505(4) 0.3600(4) 0.0215(3)
C16 C -0.3617(4) 0.3768(4) -0.0631(3)
H8 H -0.3695 0.4355 -0.0403
C17 C 0.2317(4) 0.8154(3) 0.3126(3)
C18 C 0.2725(4) 0.7161(3) 0.3107(3)
C19 C 0.3868(5) 0.6858(4) 0.3532(3)
H9 H 0.4383 0.7282 0.3844
C20 C 0.4243(5) 0.5934(4) 0.3494(4)
H10 H 0.5010 0.5738 0.3778
C21 C 0.3483(5) 0.5294(4) 0.3034(3)
H11 H 0.3743 0.4673 0.3007
C22 C 0.2335(4) 0.5583(4) 0.2616(3)
C23 C 0.1961(4) 0.6512(3) 0.2653(3)
H12 H 0.1190 0.6705 0.2371
C24 C 0.1456(5) 0.4887(4) 0.2177(3)
H13 H 0.348(3) 0.256(3) 0.159(3)
H14 H 0.308(6) 0.187(4) 0.213(2)
H15 H 0.262(2) 0.366(5) 0.066(5)
H16 H 0.161(5) 0.353(4) 0.0133(8)
Y1A Y -0.07841(4) -0.21880(3) 0.34448(3)
Y1A_2 Y -0.07841(4) 0.78120(3) 0.34448(3)
Y2A Y -0.17786(4) 0.51275(3) 0.16549(3)
Y2_2 Y 0.17786(4) 0.01275(3) 0.33451(3)
Y2C Y -0.82214(4) 0.48725(3) -0.16549(3)
Y2A_2 Y -0.17786(4) -0.48725(3) 0.16549(3)
O4A O 0.0996(3) 0.2186(2) 0.28366(18)
O6A O -0.1129(3) 0.3361(2) 0.19648(18)
O8A O 0.1625(3) 0.9399(2) 0.45065(19)
O9A O -0.0392(3) 1.0166(3) 0.3172(2)
O10_2 O 0.1346(3) 1.0194(2) 0.20099(19)
O12C O 0.3876(3) 1.0457(2) 0.4157(2)
O13C O 0.3501(3) 1.1073(2) 0.29785(19)
O14A O 0.1545(3) 1.1539(2) 0.40028(19)
O15 O 0.4381(4) 0.3746(3) 0.0749(3)
loop_
_geom_bond_atom_site_label_1
_geom_bond_atom_site_label_2
_geom_bond_site_symmetry_1
_geom_bond_site_symmetry_2
Y1 O1 1_555 1_555
Y2 O6 1_555 1_555
O1 C15 1_555 1_555
O2 Y1 1_555 1_555
O3 Y1 1_555 1_555
O4 C1 1_555 1_555
O5 Y1 1_555 1_555
O6 C17 1_555 1_555
O7 Y1 1_555 1_555
O8 C15 1_555 1_555
O9 C24 1_555 1_555
O10 C8 1_555 1_555
O11 Y2 1_555 1_555
O12 C9 1_555 1_555
O13 C9 1_555 1_555
O14 C1 1_555 1_555
C1 C2 1_555 1_555
C2 C3 1_555 1_555
C3 H1 1_555 1_555
C4 C3 1_555 1_555
H2 C4 1_555 1_555
C5 C4 1_555 1_555
H3 C5 1_555 1_555
C6 C5 1_555 1_555
C7 C2 1_555 1_555
H4 C7 1_555 1_555
C8 O2 1_555 1_555
C9 C10 1_555 1_555
C10 C11 1_555 1_555
C11 H5 1_555 1_555
C12 C11 1_555 1_555
H6 C12 1_555 1_555
C13 C12 1_555 1_555
H7 C13 1_555 1_555
C14 C13 1_555 1_555
C15 C14 1_555 1_555
C16 C10 1_555 1_555
H8 C16 1_555 1_555
C17 O11 1_555 1_555
C18 C17 1_555 1_555
C19 C18 1_555 1_555
H9 C19 1_555 1_555
C20 C19 1_555 1_555
H10 C20 1_555 1_555
C21 C20 1_555 1_555
H11 C21 1_555 1_555
C22 C21 1_555 1_555
C23 C18 1_555 1_555
H12 C23 1_555 1_555
C24 O5 1_555 1_555
H13 O3 1_555 1_555
H14 O3 1_555 1_555
H15 O7 1_555 1_555
H16 O7 1_555 1_555
Y1A O4 1_555 1_555
Y1A_2 O6 1_555 1_555
Y2A O8 1_555 1_555
Y2_2 O10 1_555 1_555
Y2C O12 1_555 1_555
Y2A_2 O14 1_555 1_555
O4A Y1 1_555 1_555
O6A Y1 1_555 1_555
O8A Y2 1_555 1_555
O9A Y2 1_555 1_555
O10_2 Y2 1_555 1_555
O12C Y2 1_555 1_555
O13C Y2 1_555 1_555
O14A Y2 1_555 1_555
O9 Y2A 1_555 1_555
O13 Y2C 1_555 1_555
C6 C7 1_555 1_555
C6 C8 1_555 1_555
C14 C16 1_555 1_555
C22 C23 1_555 1_555
C22 C24 1_555 1_555
Y2A O6A 1_555 1_555

#END
