
#######################################################################
#
#                 Cambridge Crystallographic Data Centre
#                                CCDC 
#
#######################################################################
#
# If this CIF has been generated from an entry in the Cambridge 
# Structural Database, then it will include bibliographic, chemical, 
# crystal, experimental, refinement or atomic coordinate data resulting 
# from the CCDC's data processing and validation procedures.
#
#######################################################################

data_TILKAB
_symmetry_cell_setting           monoclinic
_symmetry_space_group_name_H-M   'P 21/c'
_symmetry_Int_Tables_number      14
_space_group_name_Hall           '-P 2ybc'
loop_
_symmetry_equiv_pos_site_id
_symmetry_equiv_pos_as_xyz
1 x,y,z
2 -x,1/2+y,1/2-z
3 -x,-y,-z
4 x,1/2-y,1/2+z
_cell_length_a                   10.6293(18)
_cell_length_b                   14.219(2)
_cell_length_c                   17.175(3)
_cell_angle_alpha                90
_cell_angle_beta                 97.915(3)
_cell_angle_gamma                90
_cell_volume                     2571.07
loop_
_atom_site_label
_atom_site_type_symbol
_atom_site_fract_x
_atom_site_fract_y
_atom_site_fract_z
Gd1 Gd 0.075244(18) 0.277979(13) 0.156500(11)
Gd2 Gd 0.177150(18) 1.008580(13) 0.332160(11)
O1 O -0.0665(3) 0.2961(2) 0.04224(16)
O2 O 0.0334(3) 0.12561(19) 0.12370(17)
O3 O 0.2897(3) 0.2166(2) 0.1691(2)
O4 O -0.0962(3) -0.29077(19) 0.21368(15)
O5 O 0.1913(3) 0.3964(2) 0.22575(17)
O6 O 0.1187(2) 0.83068(18) 0.30154(15)
O7 O 0.1789(3) 0.3585(3) 0.06454(19)
O8 O -0.1630(3) 0.4341(2) 0.04902(16)
O9 O 0.0453(3) 0.5045(2) 0.18851(18)
O10 O 0.1378(3) 0.0139(2) 0.19601(16)
O11 O 0.3182(3) 0.87503(19) 0.32185(18)
O12 O -0.6104(3) 0.4558(2) -0.08574(17)
O13 O -0.6502(3) 0.3929(2) -0.20254(17)
O14 O -0.1505(3) -0.35245(19) 0.09578(16)
C1 C -0.1241(4) -0.2820(3) 0.1401(2)
C2 C -0.1281(4) -0.1865(3) 0.1044(2)
C3 C -0.2217(4) -0.1609(3) 0.0432(2)
H1 H -0.2809 -0.2049 0.0213
C4 C -0.2264(5) -0.0694(3) 0.0150(3)
H2 H -0.2894 -0.0521 -0.0255
C5 C -0.1384(4) -0.0040(3) 0.0466(3)
H3 H -0.1430 0.0575 0.0279
C6 C -0.0427(4) -0.0294(3) 0.1062(2)
C7 C -0.0379(4) -0.1205(3) 0.1343(2)
H4 H 0.0267 -0.1378 0.1738
C8 C 0.0505(4) 0.0416(3) 0.1443(2)
C9 C -0.5797(4) 0.4005(3) -0.1371(2)
C10 C -0.4624(4) 0.3423(3) -0.1190(2)
C11 C -0.4529(4) 0.2551(3) -0.1532(3)
H5 H -0.5184 0.2338 -0.1905
C12 C -0.3465(4) 0.1990(3) -0.1324(3)
H6 H -0.3410 0.1399 -0.1549
C13 C -0.2480(4) 0.2325(3) -0.0773(2)
H7 H -0.1765 0.1953 -0.0631
C14 C -0.2554(4) 0.3208(3) -0.0434(2)
C15 C -0.1539(4) 0.3540(3) 0.0202(2)
C16 C -0.3637(4) 0.3750(3) -0.0638(2)
H8 H -0.3704 0.4335 -0.0405
C17 C 0.2370(4) 0.8106(3) 0.3116(2)
C18 C 0.2777(4) 0.7103(3) 0.3109(2)
C19 C 0.3918(4) 0.6821(3) 0.3535(3)
H9 H 0.4429 0.7256 0.3834
C20 C 0.4296(5) 0.5891(3) 0.3514(3)
H10 H 0.5064 0.5703 0.3797
C21 C 0.3538(4) 0.5245(3) 0.3076(3)
H11 H 0.3799 0.4622 0.3062
C22 C 0.2392(4) 0.5514(3) 0.2657(2)
C23 C 0.2010(4) 0.6446(3) 0.2673(2)
H12 H 0.1239 0.6631 0.2392
C24 C 0.1523(4) 0.4795(3) 0.2231(2)
H13 H 0.346(4) 0.253(4) 0.157(4)
H14 H 0.321(7) 0.186(5) 0.209(3)
H15 H 0.2568(17) 0.373(4) 0.075(3)
H16 H 0.158(5) 0.364(4) 0.0152(8)
Gd1A Gd -0.075244(18) -0.222021(13) 0.343500(11)
Gd1A_2 Gd -0.075244(18) 0.777979(13) 0.343500(11)
Gd2A Gd -0.177150(18) 0.508580(13) 0.167840(11)
Gd2_2 Gd 0.177150(18) 0.008580(13) 0.332160(11)
Gd2C Gd -0.822850(18) 0.491420(13) -0.167840(11)
Gd2A_2 Gd -0.177150(18) -0.491420(13) 0.167840(11)
O4A O 0.0962(3) 0.20923(19) 0.28632(15)
O6A O -0.1187(2) 0.33068(18) 0.19846(15)
O8A O 0.1630(3) 0.9341(2) 0.45098(16)
O9A O -0.0453(3) 1.0045(2) 0.31149(18)
O10_2 O 0.1378(3) 1.0139(2) 0.19601(16)
O12C O 0.3896(3) 1.0442(2) 0.41426(17)
O13C O 0.3498(3) 1.1071(2) 0.29746(17)
O14A O 0.1505(3) 1.14755(19) 0.40422(16)
O15 O 0.4341(3) 0.3741(3) 0.0730(3)
loop_
_geom_bond_atom_site_label_1
_geom_bond_atom_site_label_2
_geom_bond_site_symmetry_1
_geom_bond_site_symmetry_2
Gd1 O1 1_555 1_555
Gd2 O6 1_555 1_555
O1 C15 1_555 1_555
O2 Gd1 1_555 1_555
O3 Gd1 1_555 1_555
O4 C1 1_555 1_555
O5 Gd1 1_555 1_555
O6 C17 1_555 1_555
O7 Gd1 1_555 1_555
O8 C15 1_555 1_555
O9 C24 1_555 1_555
O10 C8 1_555 1_555
O11 Gd2 1_555 1_555
O12 C9 1_555 1_555
O13 C9 1_555 1_555
O14 C1 1_555 1_555
C1 C2 1_555 1_555
C2 C3 1_555 1_555
C3 H1 1_555 1_555
C4 C3 1_555 1_555
H2 C4 1_555 1_555
C5 C4 1_555 1_555
H3 C5 1_555 1_555
C6 C5 1_555 1_555
C7 C2 1_555 1_555
H4 C7 1_555 1_555
C8 O2 1_555 1_555
C9 C10 1_555 1_555
C10 C11 1_555 1_555
C11 H5 1_555 1_555
C12 C11 1_555 1_555
H6 C12 1_555 1_555
C13 C12 1_555 1_555
H7 C13 1_555 1_555
C14 C13 1_555 1_555
C15 C14 1_555 1_555
C16 C10 1_555 1_555
H8 C16 1_555 1_555
C17 O11 1_555 1_555
C18 C17 1_555 1_555
C19 C18 1_555 1_555
H9 C19 1_555 1_555
C20 C19 1_555 1_555
H10 C20 1_555 1_555
C21 C20 1_555 1_555
H11 C21 1_555 1_555
C22 C21 1_555 1_555
C23 C18 1_555 1_555
H12 C23 1_555 1_555
C24 O5 1_555 1_555
H13 O3 1_555 1_555
H14 O3 1_555 1_555
H15 O7 1_555 1_555
H16 O7 1_555 1_555
Gd1A O4 1_555 1_555
Gd1A_2 O6 1_555 1_555
Gd2A O8 1_555 1_555
Gd2_2 O10 1_555 1_555
Gd2C O12 1_555 1_555
Gd2A_2 O14 1_555 1_555
O4A Gd1 1_555 1_555
O6A Gd1 1_555 1_555
O8A Gd2 1_555 1_555
O9A Gd2 1_555 1_555
O10_2 Gd2 1_555 1_555
O12C Gd2 1_555 1_555
O13C Gd2 1_555 1_555
O14A Gd2 1_555 1_555
O9 Gd2A 1_555 1_555
O13 Gd2C 1_555 1_555
C6 C7 1_555 1_555
C6 C8 1_555 1_555
C14 C16 1_555 1_555
C22 C23 1_555 1_555
C22 C24 1_555 1_555
Gd2A O6A 1_555 1_555

#END
