
#######################################################################
#
#                 Cambridge Crystallographic Data Centre
#                                CCDC 
#
#######################################################################
#
# If this CIF has been generated from an entry in the Cambridge 
# Structural Database, then it will include bibliographic, chemical, 
# crystal, experimental, refinement or atomic coordinate data resulting 
# from the CCDC's data processing and validation procedures.
#
#######################################################################

data_TILKUV
_symmetry_cell_setting           triclinic
_symmetry_space_group_name_H-M   'P -1'
_symmetry_Int_Tables_number      2
_space_group_name_Hall           '-P 1'
loop_
_symmetry_equiv_pos_site_id
_symmetry_equiv_pos_as_xyz
1 x,y,z
2 -x,-y,-z
_cell_length_a                   8.8201(5)
_cell_length_b                   11.9198(5)
_cell_length_c                   15.0464(2)
_cell_angle_alpha                73.527(7)
_cell_angle_beta                 76.788(7)
_cell_angle_gamma                89.327(9)
_cell_volume                     1474.41
loop_
_atom_site_label
_atom_site_type_symbol
_atom_site_fract_x
_atom_site_fract_y
_atom_site_fract_z
Cu1 Cu 0.36375(4) 0.94323(3) 0.26647(3)
Cu2 Cu 0.20888(5) 1.18156(3) 0.17171(3)
Cl2 Cl 0.47505(10) 1.07628(8) 0.12321(6)
Cl3 Cl 0.19718(10) 1.10720(7) 0.32995(5)
C1 C 0.6566(4) 1.0360(3) 0.2989(2)
H1 H 0.6704 1.0888 0.2384
C2 C 0.7682(4) 1.0365(3) 0.3503(3)
H2 H 0.8554 1.0885 0.3244
C3 C 0.7488(4) 0.9597(3) 0.4399(3)
H3 H 0.8232 0.9580 0.4753
C4 C 0.6149(4) 0.8842(3) 0.4770(2)
H4 H 0.5971 0.8325 0.5381
C5 C 0.5103(4) 0.8877(3) 0.4216(2)
C6 C 0.3693(4) 0.8105(3) 0.4535(2)
H5 H 0.3413 0.7603 0.5152
C7 C 0.1445(3) 0.7429(3) 0.4219(2)
C8 C 0.0350(4) 0.7422(3) 0.5048(2)
H6 H 0.0563 0.7838 0.5447
C9 C -0.1054(4) 0.6791(3) 0.5272(3)
H7 H -0.1795 0.6788 0.5823
C10 C -0.1370(4) 0.6161(3) 0.4681(2)
C11 C -0.0251(4) 0.6128(3) 0.3877(2)
H8 H -0.0444 0.5679 0.3496
C12 C 0.1157(4) 0.6769(3) 0.3643(2)
H9 H 0.1908 0.6756 0.3101
C13 C -0.2931(4) 0.5577(3) 0.4890(3)
C14 C -0.3711(5) 0.6269(4) -0.2170(3)
H10 H -0.3880 0.6834 -0.2703
C15 C -0.4155(5) 0.5127(4) -0.2031(3)
H11 H -0.4605 0.4926 -0.2470
C16 C -0.3940(5) 0.4278(4) -0.1247(3)
H12 H -0.4225 0.3497 -0.1152
C17 C -0.3285(4) 0.4609(3) -0.0594(3)
H13 H -0.3138 0.4058 -0.0048
C18 C -0.2861(4) 0.5778(3) -0.0781(2)
C19 C -0.2225(4) 0.6240(3) -0.0130(2)
H14 H -0.2046 0.5745 0.0432
C20 C -0.1281(4) 0.7826(3) 0.0251(2)
C21 C -0.0018(4) 0.7326(3) 0.0594(3)
H15 H 0.0368 0.6646 0.0463
C22 C 0.0657(4) 0.7844(3) 0.1130(3)
H16 H 0.1489 0.7503 0.1370
C23 C 0.0112(4) 0.8866(3) 0.1317(2)
C24 C -0.1168(4) 0.9356(3) 0.0977(2)
H17 H -0.1553 1.0034 0.1111
C25 C -0.1865(3) 0.8842(3) 0.0445(2)
H18 H -0.2715 0.9171 0.0219
C26 C 0.1019(4) 0.9512(3) 0.1768(2)
N1 N 0.5303(3) 0.9626(2) 0.33283(18)
N2 N 0.2851(3) 0.8138(2) 0.39381(18)
N3 N -0.3043(3) 0.6605(2) -0.15673(19)
N4 N -0.1923(3) 0.7344(2) -0.03570(18)
O1 O -0.3111(3) 0.4897(2) 0.4394(2)
O2 O -0.4018(3) 0.5787(3) 0.5511(2)
O3 O 0.2045(3) 0.8954(2) 0.21390(18)
O4 O 0.0734(3) 1.05598(19) 0.17016(15)
Cu2A Cu -0.20888(5) 0.81844(3) -0.17171(3)
N3A N 0.3043(3) 1.3395(2) 0.15673(19)
N4A N 0.1923(3) 1.2656(2) 0.03570(18)
Cl1 Cl 0.82630(13) 1.36468(9) 0.22481(7)
O5 O 0.7932(9) 1.3404(6) 0.1441(4)
O6 O 0.9539(5) 1.3052(5) 0.2427(4)
O7 O 0.8398(8) 1.4843(4) 0.2041(4)
O8 O 0.6982(5) 1.3199(4) 0.3040(3)
C27 C 0.6178(6) 0.7093(4) 0.2707(4)
O9 O 0.5194(4) 0.7786(3) 0.2153(2)
loop_
_geom_bond_atom_site_label_1
_geom_bond_atom_site_label_2
_geom_bond_site_symmetry_1
_geom_bond_site_symmetry_2
Cu1 Cl2 1_555 1_555
Cu2 Cl2 1_555 1_555
Cl1 O5 1_555 1_555
Cl3 Cu1 1_555 1_555
C1 H1 1_555 1_555
C2 C1 1_555 1_555
H2 C2 1_555 1_555
C3 C2 1_555 1_555
H3 C3 1_555 1_555
C4 C3 1_555 1_555
H4 C4 1_555 1_555
C5 C4 1_555 1_555
C6 C5 1_555 1_555
H5 C6 1_555 1_555
C7 C8 1_555 1_555
C8 H6 1_555 1_555
C9 C8 1_555 1_555
H7 C9 1_555 1_555
C10 C9 1_555 1_555
C11 C10 1_555 1_555
H8 C11 1_555 1_555
C12 C7 1_555 1_555
H9 C12 1_555 1_555
C13 C10 1_555 1_555
C14 H10 1_555 1_555
C15 C14 1_555 1_555
H11 C15 1_555 1_555
C16 C15 1_555 1_555
H12 C16 1_555 1_555
C17 C16 1_555 1_555
H13 C17 1_555 1_555
C18 C17 1_555 1_555
C19 C18 1_555 1_555
H14 C19 1_555 1_555
C20 C21 1_555 1_555
C21 H15 1_555 1_555
C22 C21 1_555 1_555
H16 C22 1_555 1_555
C23 C22 1_555 1_555
C24 C23 1_555 1_555
H17 C24 1_555 1_555
C25 C20 1_555 1_555
H18 C25 1_555 1_555
C26 C23 1_555 1_555
C27 O9 1_555 1_555
N1 Cu1 1_555 1_555
N2 Cu1 1_555 1_555
N3 C14 1_555 1_555
N4 C19 1_555 1_555
O1 C13 1_555 1_555
O2 C13 1_555 1_555
O3 Cu1 1_555 1_555
O4 Cu2 1_555 1_555
O6 Cl1 1_555 1_555
O7 Cl1 1_555 1_555
O8 Cl1 1_555 1_555
Cu2A N3 1_555 1_555
N3A Cu2 1_555 1_555
N4A Cu2 1_555 1_555
Cu2 Cl3 1_555 1_555
C1 N1 1_555 1_555
C5 N1 1_555 1_555
C6 N2 1_555 1_555
C7 N2 1_555 1_555
C11 C12 1_555 1_555
C18 N3 1_555 1_555
C20 N4 1_555 1_555
C24 C25 1_555 1_555
C26 O3 1_555 1_555
C26 O4 1_555 1_555
N4 Cu2A 1_555 1_555

#END
