
#######################################################################
#
#                 Cambridge Crystallographic Data Centre
#                                CCDC 
#
#######################################################################
#
# If this CIF has been generated from an entry in the Cambridge 
# Structural Database, then it will include bibliographic, chemical, 
# crystal, experimental, refinement or atomic coordinate data resulting 
# from the CCDC's data processing and validation procedures.
#
#######################################################################

data_TILKOO
_symmetry_cell_setting           triclinic
_symmetry_space_group_name_H-M   'P -1'
_symmetry_Int_Tables_number      2
_space_group_name_Hall           '-P 1'
loop_
_symmetry_equiv_pos_site_id
_symmetry_equiv_pos_as_xyz
1 x,y,z
2 -x,-y,-z
_cell_length_a                   8.583(3)
_cell_length_b                   9.647(4)
_cell_length_c                   10.497(4)
_cell_angle_alpha                77.93(3)
_cell_angle_beta                 70.48(3)
_cell_angle_gamma                85.83(4)
_cell_volume                     801.085
loop_
_atom_site_label
_atom_site_type_symbol
_atom_site_fract_x
_atom_site_fract_y
_atom_site_fract_z
In1 In 0.2187(1) 0.1534(1) 0.3321(1)
S1 S -0.0262(1) 0.0429(11) 0.2612(1)
S2 S 0.2208(1) 0.2608(1) 0.0842(1)
N1 N -0.0390(3) 0.2014(3) 0.0238(2)
N2 N 0.4662(3) 0.3269(3) 0.2871(3)
C1 C 0.0412(3) 0.1699(4) 0.1148(3)
C2 C 0.0224(4) 0.3080(5) -0.1024(3)
C3 C -0.1955(3) 0.1339(4) 0.0431(3)
C4 C -0.3456(3) 0.2294(4) 0.0847(3)
C5 C -0.3686(3) 0.2696(5) 0.2213(3)
C6 C -0.5592(5) 0.4652(5) 0.2080(5)
C7 C -0.5412(4) 0.3428(6) 0.4255(4)
C8 C 0.0417(4) 0.2689(5) 0.4724(3)
C9 C -0.0627(5) 0.3744(5) 0.4099(5)
C10 C 0.3684(4) -0.0338(5) 0.3568(4)
C11 C 0.4018(5) -0.1253(5) 0.2505(5)
H1 H -0.0014(33) 0.4010(5) -0.0812(6)
H2 H -0.0307(28) 0.2962(21) -0.1667(12)
H3 H 0.1397(7) 0.2970(21) -0.1423(17)
H4 H -0.2098(3) 0.0485(4) 0.1135(3)
H5 H -0.1895(3) 0.1063(4) -0.0422(3)
H6 H -0.3324(3) 0.3147(4) 0.0142(3)
H7 H -0.4437(3) 0.1808(4) 0.0908(3)
H8 H -0.3484(3) 0.1865(5) 0.2839(3)
H9 H -0.2862(3) 0.3399(5) 0.2075(3)
H10 H -0.6637(16) 0.5035(14) 0.2559(14)
H11 H -0.5585(33) 0.4548(7) 0.1189(11)
H12 H -0.4722(19) 0.5282(10) 0.1974(24)
H13 H -0.5304(29) 0.2514(6) 0.4795(9)
H14 H -0.6453(13) 0.3843(25) 0.4695(11)
H15 H -0.4529(19) 0.4030(20) 0.4177(4)
H16 H -0.0309(4) 0.2011(5) 0.5463(3)
H17 H 0.1011(4) 0.3185(5) 0.5133(3)
H18 H -0.1492(27) 0.4084(29) 0.4818(5)
H19 H -0.1105(36) 0.3298(11) 0.3581(31)
H20 H 0.0047(10) 0.4525(19) 0.3498(29)
H21 H 0.4738(4) -0.0042(5) 0.3571(4)
H22 H 0.3147(4) -0.0919(5) 0.4466(4)
H23 H 0.4758(33) -0.2007(21) 0.2680(21)
H24 H 0.4512(38) -0.0690(9) 0.1603(5)
H25 H 0.2998(8) -0.1645(29) 0.2556(24)
N2_2 N -0.5338(3) 0.3269(3) 0.2871(3)
In1_2 In -0.7813(1) 0.1534(1) 0.3321(1)
loop_
_geom_bond_atom_site_label_1
_geom_bond_atom_site_label_2
_geom_bond_site_symmetry_1
_geom_bond_site_symmetry_2
In1 S1 1_555 1_555
S1 C1 1_555 1_555
S2 In1 1_555 1_555
N1 C1 1_555 1_555
N2 In1 1_555 1_555
C1 S2 1_555 1_555
C2 N1 1_555 1_555
C3 N1 1_555 1_555
C4 C3 1_555 1_555
C5 C4 1_555 1_555
C6 H10 1_555 1_555
C7 H13 1_555 1_555
C8 In1 1_555 1_555
C9 C8 1_555 1_555
C10 In1 1_555 1_555
C11 C10 1_555 1_555
H1 C2 1_555 1_555
H2 C2 1_555 1_555
H3 C2 1_555 1_555
H4 C3 1_555 1_555
H5 C3 1_555 1_555
H6 C4 1_555 1_555
H7 C4 1_555 1_555
H8 C5 1_555 1_555
H9 C5 1_555 1_555
H11 C6 1_555 1_555
H12 C6 1_555 1_555
H14 C7 1_555 1_555
H15 C7 1_555 1_555
H16 C8 1_555 1_555
H17 C8 1_555 1_555
H18 C9 1_555 1_555
H19 C9 1_555 1_555
H20 C9 1_555 1_555
H21 C10 1_555 1_555
H22 C10 1_555 1_555
H23 C11 1_555 1_555
H24 C11 1_555 1_555
H25 C11 1_555 1_555
N2_2 C5 1_555 1_555
In1_2 N2_2 1_555 1_555
C6 N2_2 1_555 1_555
C7 N2_2 1_555 1_555

#END
