
#######################################################################
#
#                 Cambridge Crystallographic Data Centre
#                                CCDC 
#
#######################################################################
#
# If this CIF has been generated from an entry in the Cambridge 
# Structural Database, then it will include bibliographic, chemical, 
# crystal, experimental, refinement or atomic coordinate data resulting 
# from the CCDC's data processing and validation procedures.
#
#######################################################################

data_TILLUW
_symmetry_cell_setting           monoclinic
_symmetry_space_group_name_H-M   'P 21/n'
_symmetry_Int_Tables_number      14
_space_group_name_Hall           '-P 2yn'
loop_
_symmetry_equiv_pos_site_id
_symmetry_equiv_pos_as_xyz
1 x,y,z
2 1/2-x,1/2+y,1/2-z
3 -x,-y,-z
4 1/2+x,1/2-y,1/2+z
_cell_length_a                   13.162(2)
_cell_length_b                   8.1298(12)
_cell_length_c                   14.888(2)
_cell_angle_alpha                90
_cell_angle_beta                 90.348(3)
_cell_angle_gamma                90
_cell_volume                     1593.05
loop_
_atom_site_label
_atom_site_type_symbol
_atom_site_fract_x
_atom_site_fract_y
_atom_site_fract_z
Ag1 Ag 0.97820(2) 0.56967(3) 0.156019(17)
C1 C 1.1958(3) 0.7075(5) 0.0986(2)
H1 H 1.2150 0.6625 0.1536
C2 C 1.2689(3) 0.7811(5) 0.0472(3)
H2 H 1.3363 0.7834 0.0662
C3 C 1.2403(3) 0.8517(5) -0.0331(3)
H3 H 1.2884 0.9020 -0.0694
C4 C 1.1401(3) 0.8470(4) -0.0590(2)
H4 H 1.1194 0.8964 -0.1124
C5 C 1.0703(3) 0.7681(4) -0.0050(2)
C6 C 0.9623(3) 0.7559(4) -0.0299(2)
C7 C 0.9112(3) 0.8088(5) -0.1082(2)
H5 H 0.9390 0.8627 -0.1574
C8 C 0.8127(3) 0.7644(5) -0.0967(2)
H6 H 0.7596 0.7822 -0.1371
C9 C 0.7158(3) 0.6238(4) 0.0269(2)
H7 H 0.7327 0.5183 0.0535
H8 H 0.6637 0.6052 -0.0183
C10 C 0.6733(2) 0.7362(4) 0.0996(2)
C11 C 0.5756(3) 0.7916(5) 0.0949(2)
H9 H 0.5350 0.7658 0.0455
C12 C 0.5375(3) 0.8859(5) 0.1635(3)
H10 H 0.4707 0.9224 0.1590
C13 C 0.6868(3) 0.8767(4) 0.2391(2)
H11 H 0.7266 0.9068 0.2883
C14 C 0.7299(3) 0.7819(4) 0.1734(2)
H12 H 0.7972 0.7486 0.1788
N1 N 1.0980(2) 0.6971(3) 0.07346(18)
N2 N 0.8966(2) 0.6821(3) 0.02553(16)
N3 N 0.8057(2) 0.6902(3) -0.01631(17)
N4 N 0.5909(2) 0.9276(3) 0.23596(19)
Ag1A Ag 0.52180(2) 1.06967(3) 0.343981(17)
N4A N 0.9091(2) 0.4276(3) 0.26404(19)
O1 O -0.0440(2) 0.9026(4) 0.24438(19)
O2 O 0.0781(2) 0.7323(4) 0.3096(2)
O3 O -0.0412(3) 0.8642(5) 0.3982(2)
O4 O 0.0864(3) 1.0132(4) 0.3308(2)
Cl1 Cl 0.01868(7) 0.87856(12) 0.32097(6)
loop_
_geom_bond_atom_site_label_1
_geom_bond_atom_site_label_2
_geom_bond_site_symmetry_1
_geom_bond_site_symmetry_2
Ag1 N1 1_555 1_555
C1 H1 1_555 1_555
C2 C1 1_555 1_555
H2 C2 1_555 1_555
C3 C2 1_555 1_555
H3 C3 1_555 1_555
C4 C3 1_555 1_555
H4 C4 1_555 1_555
C5 C4 1_555 1_555
C6 C5 1_555 1_555
C7 C6 1_555 1_555
H5 C7 1_555 1_555
C8 C7 1_555 1_555
H6 C8 1_555 1_555
C9 H7 1_555 1_555
H8 C9 1_555 1_555
C10 C9 1_555 1_555
C11 C10 1_555 1_555
H9 C11 1_555 1_555
C12 C11 1_555 1_555
H10 C12 1_555 1_555
C13 H11 1_555 1_555
C14 C10 1_555 1_555
H12 C14 1_555 1_555
N1 C1 1_555 1_555
N2 Ag1 1_555 1_555
N3 C8 1_555 1_555
N4 C12 1_555 1_555
O1 Cl1 1_555 1_555
O2 Cl1 1_555 1_555
O3 Cl1 1_555 1_555
O4 Cl1 1_555 1_555
Ag1A N4 1_555 1_555
N4A Ag1 1_555 1_555
C5 N1 1_555 1_555
C6 N2 1_555 1_555
C9 N3 1_555 1_555
C13 C14 1_555 1_555
C13 N4 1_555 1_555
N2 N3 1_555 1_555

#END
