
#######################################################################
#
#                 Cambridge Crystallographic Data Centre
#                                CCDC 
#
#######################################################################
#
# If this CIF has been generated from an entry in the Cambridge 
# Structural Database, then it will include bibliographic, chemical, 
# crystal, experimental, refinement or atomic coordinate data resulting 
# from the CCDC's data processing and validation procedures.
#
#######################################################################

data_TILMAE
_symmetry_cell_setting           triclinic
_symmetry_space_group_name_H-M   'P -1'
_symmetry_Int_Tables_number      2
_space_group_name_Hall           '-P 1'
loop_
_symmetry_equiv_pos_site_id
_symmetry_equiv_pos_as_xyz
1 x,y,z
2 -x,-y,-z
_cell_length_a                   5.4113(3)
_cell_length_b                   7.7578(5)
_cell_length_c                   11.4883(6)
_cell_angle_alpha                97.343(5)
_cell_angle_beta                 103.252(5)
_cell_angle_gamma                108.526(6)
_cell_volume                     434.462
loop_
_atom_site_label
_atom_site_type_symbol
_atom_site_fract_x
_atom_site_fract_y
_atom_site_fract_z
O1 O 0.7226(2) -0.08561(14) 0.25100(9)
N1 N 0.4846(3) 0.09636(18) 0.38241(11)
N2 N 0.3576(3) 0.14656(17) 0.46336(11)
N3 N 0.3539(2) 0.31462(17) 0.31437(11)
N4 N 0.1387(3) 0.37372(18) 0.46498(11)
N5 N 0.0880(3) 0.33361(17) 0.56173(11)
N6 N 0.0255(3) 0.31576(19) 0.64746(12)
N7 N 0.7144(2) 0.04146(17) 0.18595(11)
N8 N 0.8205(3) 0.05533(17) 0.09176(11)
N9 N 0.7776(3) 0.19629(17) 0.04921(12)
N10 N 0.6468(3) 0.27421(17) 0.11431(11)
C1 C 0.2835(3) 0.2763(2) 0.41678(13)
C2 C 0.4811(3) 0.19639(19) 0.29575(13)
C3 C 0.6085(3) 0.1749(2) 0.19963(13)
O2 O 0.3069(2) 0.57219(17) 0.15067(10)
K1 K 0.84179(6) 0.66413(4) 0.07928(3)
H1 H 0.553(4) 0.016(3) 0.3908(17)
H2 H 0.419(5) 0.682(3) 0.185(2)
H3 H 0.313(4) 0.512(3) 0.198(2)
O1_2 O 0.7226(2) 0.91439(14) 0.25100(9)
N6A N 0.9745(3) 0.68424(19) 0.35254(12)
N8_2 N 0.8205(3) 1.05533(17) 0.09176(11)
N9A N 1.2224(3) 0.80371(17) -0.04921(12)
N10A N 0.3532(3) 0.72579(17) -0.11431(11)
O2_2 O 1.3069(2) 0.57219(17) 0.15067(10)
O2A O 0.6931(2) 0.42781(17) -0.15067(10)
K1_2 K -0.15821(6) 0.66413(4) 0.07928(3)
K1_3 K 0.84179(6) -0.33587(4) 0.07928(3)
K1A K 0.15821(6) 0.33587(4) -0.07928(3)
K1A_2 K 0.15821(6) 0.33587(4) 0.92072(3)
K1A_3 K 1.15821(6) 0.33587(4) -0.07928(3)
loop_
_geom_bond_atom_site_label_1
_geom_bond_atom_site_label_2
_geom_bond_site_symmetry_1
_geom_bond_site_symmetry_2
O1 N7 1_555 1_555
N1 N2 1_555 1_555
N2 C1 1_555 1_555
N3 C1 1_555 1_555
N4 N5 1_555 1_555
N5 N6 1_555 1_555
N6 K1A_2 1_555 1_555
N7 N8 1_555 1_555
N8 N9 1_555 1_555
N9 N10 1_555 1_555
N10 C3 1_555 1_555
C1 N4 1_555 1_555
C2 N1 1_555 1_555
C3 N7 1_555 1_555
O2 K1 1_555 1_555
K1 N10 1_555 1_555
H1 N1 1_555 1_555
H2 O2 1_555 1_555
H3 O2 1_555 1_555
O1_2 K1 1_555 1_555
N6A K1 1_555 1_555
N8_2 K1 1_555 1_555
N9A K1 1_555 1_555
N10A K1 1_555 1_555
O2_2 K1 1_555 1_555
O2A K1 1_555 1_555
K1_2 O2 1_555 1_555
K1_3 O1 1_555 1_555
K1A N10 1_555 1_555
K1A_3 N9 1_555 1_555
N3 C2 1_555 1_555
N8 K1_3 1_555 1_555
C2 C3 1_555 1_555
O2 K1A 1_555 1_555
N10A K1A 1_555 1_555
O2_2 K1A_3 1_555 1_555
O2A K1A 1_555 1_555
O2A K1A_3 1_555 1_555

#END
