
#######################################################################
#
#                 Cambridge Crystallographic Data Centre
#                                CCDC 
#
#######################################################################
#
# If this CIF has been generated from an entry in the Cambridge 
# Structural Database, then it will include bibliographic, chemical, 
# crystal, experimental, refinement or atomic coordinate data resulting 
# from the CCDC's data processing and validation procedures.
#
#######################################################################

data_TILPOU07
_symmetry_cell_setting           monoclinic
_symmetry_space_group_name_H-M   'P 21/c'
_symmetry_Int_Tables_number      14
_space_group_name_Hall           '-P 2ybc'
loop_
_symmetry_equiv_pos_site_id
_symmetry_equiv_pos_as_xyz
1 x,y,z
2 -x,1/2+y,1/2-z
3 -x,-y,-z
4 x,1/2-y,1/2+z
_cell_length_a                   14.9418(15)
_cell_length_b                   7.7340(8)
_cell_length_c                   10.7222(11)
_cell_angle_alpha                90
_cell_angle_beta                 102.590(1)
_cell_angle_gamma                90
_cell_volume                     1209.26
loop_
_atom_site_label
_atom_site_type_symbol
_atom_site_fract_x
_atom_site_fract_y
_atom_site_fract_z
Mn1 Mn 0.625629(19) 0.09871(3) 0.87005(3)
Mn2 Mn 0.886940(19) 0.57168(4) 0.66854(3)
O1 O 0.47121(10) 0.1062(2) 0.85180(14)
H1 H 0.4480 0.1456 0.7794
H2 H 0.4499 0.0085 0.8598
O2 O 1.03146(9) 0.55598(19) 0.75188(14)
H3 H 1.0681 0.6401 0.7648
H4 H 1.0500 0.4776 0.8036
O3 O 0.91894(10) 0.3939(2) 0.52243(14)
H5 H 0.9706 0.3491 0.5296
H6 H 0.8901 0.3847 0.4465
O4 O 0.76023(9) 0.14524(16) 0.82008(13)
O5 O 0.85221(8) 0.33012(16) 0.74986(12)
O6 O 0.87437(10) 0.69999(19) 0.84865(13)
O7 O 0.91732(9) 0.70002(17) 1.06120(13)
O8 O 0.74964(9) 0.90269(16) 1.05303(13)
O9 O 0.63563(9) 0.82386(17) 0.89452(13)
O10 O 0.58314(9) 0.42084(17) 1.16765(12)
O11 O 0.62265(9) 0.19479(17) 1.06025(12)
O12 O 0.64886(8) 0.39333(16) 0.86790(11)
C1 C 0.73468(12) 0.4491(2) 0.84074(16)
H7 H 0.7244 0.5394 0.7751
C2 C 0.79063(12) 0.5205(2) 0.96824(16)
H8 H 0.8188 0.4230 1.0209
C3 C 0.71468(12) 0.5997(2) 1.03046(17)
H9 H 0.7326 0.5906 1.1238
C4 C 0.63086(12) 0.4841(2) 0.97853(16)
H10 H 0.5769 0.5579 0.9509
C5 C 0.61112(12) 0.3538(2) 1.07666(16)
C6 C 0.78413(12) 0.2952(2) 0.79808(16)
C7 C 0.86633(12) 0.6493(2) 0.95591(17)
C8 C 0.69821(12) 0.7885(2) 0.99055(17)
Mn1_2 Mn 0.625629(19) 1.09871(3) 0.87005(3)
Mn1C Mn 0.625629(19) 0.40129(3) 1.37005(3)
Mn2C Mn 0.886940(19) 0.92832(4) 1.16854(3)
O7C O 0.91732(9) 0.79998(17) 0.56120(13)
O8C O 0.74964(9) 0.59731(16) 0.55303(13)
O9_2 O 0.63563(9) -0.17614(17) 0.89452(13)
O10C O 0.58314(9) 0.07916(17) 0.66765(12)
loop_
_geom_bond_atom_site_label_1
_geom_bond_atom_site_label_2
_geom_bond_site_symmetry_1
_geom_bond_site_symmetry_2
Mn1 O1 1_555 1_555
Mn2 O2 1_555 1_555
O1 H1 1_555 1_555
H2 O1 1_555 1_555
O2 H3 1_555 1_555
H4 O2 1_555 1_555
O3 Mn2 1_555 1_555
H5 O3 1_555 1_555
H6 O3 1_555 1_555
O4 Mn1 1_555 1_555
O5 Mn2 1_555 1_555
O6 Mn2 1_555 1_555
O7 C7 1_555 1_555
O8 C8 1_555 1_555
O9 C8 1_555 1_555
O10 C5 1_555 1_555
O11 Mn1 1_555 1_555
O12 Mn1 1_555 1_555
C1 O12 1_555 1_555
H7 C1 1_555 1_555
C2 C1 1_555 1_555
H8 C2 1_555 1_555
C3 C2 1_555 1_555
H9 C3 1_555 1_555
C4 O12 1_555 1_555
H10 C4 1_555 1_555
C5 O11 1_555 1_555
C6 O4 1_555 1_555
C7 O6 1_555 1_555
C8 C3 1_555 1_555
Mn1_2 O9 1_555 1_555
Mn1C O10 1_555 1_555
Mn2C O7 1_555 1_555
O7C Mn2 1_555 1_555
O8C Mn2 1_555 1_555
O9_2 Mn1 1_555 1_555
O10C Mn1 1_555 1_555
O5 C6 1_555 1_555
O8 Mn2C 1_555 1_555
C1 C6 1_555 1_555
C2 C7 1_555 1_555
C3 C4 1_555 1_555
C4 C5 1_555 1_555

#END
