
#######################################################################
#
#                 Cambridge Crystallographic Data Centre
#                                CCDC 
#
#######################################################################
#
# If this CIF has been generated from an entry in the Cambridge 
# Structural Database, then it will include bibliographic, chemical, 
# crystal, experimental, refinement or atomic coordinate data resulting 
# from the CCDC's data processing and validation procedures.
#
#######################################################################

data_TILQAH
_symmetry_cell_setting           monoclinic
_symmetry_space_group_name_H-M   'C 2/c'
_symmetry_Int_Tables_number      15
_space_group_name_Hall           '-C 2yn'
loop_
_symmetry_equiv_pos_site_id
_symmetry_equiv_pos_as_xyz
1 x,y,z
2 1/2+x,1/2+y,z
3 -x,y,1/2-z
4 1/2-x,1/2+y,1/2-z
5 -x,-y,-z
6 1/2-x,1/2-y,-z
7 x,-y,1/2+z
8 1/2+x,1/2-y,1/2+z
_cell_length_a                   28.386(4)
_cell_length_b                   7.5189(8)
_cell_length_c                   19.822(2)
_cell_angle_alpha                90
_cell_angle_beta                 111.757(3)
_cell_angle_gamma                90
_cell_volume                     3929.27
loop_
_atom_site_label
_atom_site_type_symbol
_atom_site_fract_x
_atom_site_fract_y
_atom_site_fract_z
Te1 Te 0.513556(18) 0.73443(5) 0.35950(2)
Te2 Te 0.578079(17) 1.23275(5) 0.27442(3)
In1 In 0.5000 0.98641(8) 0.2500
In2 In 0.5000 0.48133(8) 0.2500
Te1B Te 0.486444(18) 0.73443(5) 0.14050(2)
Te2B Te 0.421921(17) 1.23275(5) 0.22558(3)
Te2_2 Te 0.578079(17) 0.23275(5) 0.27442(3)
Te2B_2 Te 0.421921(17) 0.23275(5) 0.22558(3)
In2_2 In 0.5000 1.48133(8) 0.2500
Zn1 Zn 0.35010(3) 0.77968(10) 0.34217(4)
N1 N 0.3698(3) 0.7195(8) 0.4635(3)
N2 N 0.4029(2) 0.9764(8) 0.3879(3)
H1 H 0.4335 0.9421 0.3874
H2 H 0.3933 1.0776 0.3611
N3 N 0.3839(2) 0.5376(7) 0.3475(3)
H3 H 0.3597 0.4534 0.3276
H4 H 0.4044 0.5409 0.3214
N4 N 0.2795(2) 0.7967(8) 0.3482(3)
H5 H 0.2716 0.9132 0.3504
H6 H 0.2561 0.7496 0.3071
N5 N 0.3281(2) 0.8588(7) 0.2322(3)
H7 H 0.2944 0.8355 0.2101
H8 H 0.3318 0.9790 0.2318
N6 N 0.2786(3) 0.6425(9) 0.0898(3)
H9 H 0.2668 0.5333 0.0715
H10 H 0.2571 0.6866 0.1102
C1 C 0.2762(3) 0.7559(10) 0.0306(4)
H11 H 0.3023 0.7204 0.0120
H12 H 0.2829 0.8790 0.0477
C2 C 0.4121(4) 0.8392(11) 0.5042(4)
H13 H 0.4445 0.7820 0.5107
H14 H 0.4113 0.8631 0.5524
C3 C 0.4076(4) 1.0126(11) 0.4634(4)
H15 H 0.3778 1.0785 0.4633
H16 H 0.4377 1.0858 0.4877
C4 C 0.4142(3) 0.4896(10) 0.4232(4)
H17 H 0.4461 0.5566 0.4400
H18 H 0.4224 0.3625 0.4262
C5 C 0.3848(3) 0.5309(10) 0.4713(4)
H19 H 0.3545 0.4555 0.4575
H20 H 0.4059 0.5055 0.5221
C6 C 0.2766(3) 0.7017(11) 0.4126(5)
H21 H 0.2753 0.5729 0.4046
H22 H 0.2459 0.7374 0.4207
C7 C 0.3232(4) 0.7504(11) 0.4778(5)
H23 H 0.3214 0.8760 0.4897
H24 H 0.3242 0.6791 0.5196
C8 C 0.3541(3) 0.7810(11) 0.1859(4)
H25 H 0.3549 0.8698 0.1501
H26 H 0.3892 0.7518 0.2164
C9 C 0.3284(3) 0.6193(11) 0.1475(4)
H27 H 0.3507 0.5619 0.1263
H28 H 0.3247 0.5372 0.1835
Zn1E Zn 0.14990(3) 0.72032(10) -0.34217(4)
N1E N 0.1302(3) 0.7805(8) -0.4635(3)
N2E N 0.0971(2) 0.5236(8) -0.3879(3)
H1E H 0.0665 0.5579 -0.3874
H2E H 0.1067 0.4224 -0.3611
N3E N 0.1161(2) 0.9624(7) -0.3475(3)
H3E H 0.1403 1.0466 -0.3276
H4E H 0.0956 0.9591 -0.3214
N4E N 0.2205(2) 0.7033(8) -0.3482(3)
H5E H 0.2284 0.5868 -0.3504
H6E H 0.2439 0.7504 -0.3071
N5E N 0.1719(2) 0.6412(7) -0.2322(3)
H7E H 0.2056 0.6645 -0.2101
H8E H 0.1682 0.5210 -0.2318
N6E N 0.2214(3) 0.8575(9) -0.0898(3)
H9E H 0.2332 0.9667 -0.0715
H10E H 0.2429 0.8134 -0.1102
C1E C 0.2238(3) 0.7441(10) -0.0306(4)
H11E H 0.1977 0.7796 -0.0120
H12E H 0.2171 0.6210 -0.0477
C2E C 0.0879(4) 0.6608(11) -0.5042(4)
H13E H 0.0555 0.7180 -0.5107
H14E H 0.0887 0.6369 -0.5524
C3E C 0.0924(4) 0.4874(11) -0.4634(4)
H15E H 0.1222 0.4215 -0.4633
H16E H 0.0623 0.4142 -0.4877
C4E C 0.0858(3) 1.0104(10) -0.4232(4)
H17E H 0.0539 0.9434 -0.4400
H18E H 0.0776 1.1375 -0.4262
C5E C 0.1152(3) 0.9691(10) -0.4713(4)
H19E H 0.1455 1.0445 -0.4575
H20E H 0.0941 0.9945 -0.5221
C6E C 0.2234(3) 0.7983(11) -0.4126(5)
H21E H 0.2247 0.9271 -0.4046
H22E H 0.2541 0.7626 -0.4207
C7E C 0.1768(4) 0.7496(11) -0.4778(5)
H23E H 0.1786 0.6240 -0.4897
H24E H 0.1758 0.8209 -0.5196
C8E C 0.1459(3) 0.7190(11) -0.1859(4)
H25E H 0.1451 0.6302 -0.1501
H26E H 0.1108 0.7482 -0.2164
C9E C 0.1716(3) 0.8807(11) -0.1475(4)
H27E H 0.1493 0.9381 -0.1263
H28E H 0.1753 0.9628 -0.1835
Cl1 Cl 0.20247(7) 0.7309(2) 0.18063(11)
loop_
_geom_bond_atom_site_label_1
_geom_bond_atom_site_label_2
_geom_bond_site_symmetry_1
_geom_bond_site_symmetry_2
Te1 In1 1_555 1_555
Te2 In1 1_555 1_555
In1 Te1B 1_555 1_555
In2 Te1 1_555 1_555
Zn1 N1 1_555 1_555
N1 C2 1_555 1_555
N2 Zn1 1_555 1_555
H1 N2 1_555 1_555
H2 N2 1_555 1_555
N3 Zn1 1_555 1_555
H3 N3 1_555 1_555
H4 N3 1_555 1_555
N4 Zn1 1_555 1_555
H5 N4 1_555 1_555
H6 N4 1_555 1_555
N5 Zn1 1_555 1_555
H7 N5 1_555 1_555
H8 N5 1_555 1_555
N6 H9 1_555 1_555
H10 N6 1_555 1_555
C1 N6 1_555 1_555
H11 C1 1_555 1_555
H12 C1 1_555 1_555
C2 H13 1_555 1_555
H14 C2 1_555 1_555
C3 N2 1_555 1_555
H15 C3 1_555 1_555
H16 C3 1_555 1_555
C4 N3 1_555 1_555
H17 C4 1_555 1_555
H18 C4 1_555 1_555
C5 N1 1_555 1_555
H19 C5 1_555 1_555
H20 C5 1_555 1_555
C6 N4 1_555 1_555
H21 C6 1_555 1_555
H22 C6 1_555 1_555
C7 N1 1_555 1_555
H23 C7 1_555 1_555
H24 C7 1_555 1_555
C8 N5 1_555 1_555
H25 C8 1_555 1_555
H26 C8 1_555 1_555
C9 N6 1_555 1_555
H27 C9 1_555 1_555
H28 C9 1_555 1_555
Te1B In2 1_555 1_555
Te2B In1 1_555 1_555
Te2_2 In2 1_555 1_555
Te2B_2 In2 1_555 1_555
In2_2 Te2 1_555 1_555
Zn1E N1E 1_555 1_555
N1E C2E 1_555 1_555
N2E Zn1E 1_555 1_555
H1E N2E 1_555 1_555
H2E N2E 1_555 1_555
N3E Zn1E 1_555 1_555
H3E N3E 1_555 1_555
H4E N3E 1_555 1_555
N4E Zn1E 1_555 1_555
H5E N4E 1_555 1_555
H6E N4E 1_555 1_555
N5E Zn1E 1_555 1_555
H7E N5E 1_555 1_555
H8E N5E 1_555 1_555
N6E H9E 1_555 1_555
H10E N6E 1_555 1_555
C1E C1 1_555 1_555
H11E C1E 1_555 1_555
H12E C1E 1_555 1_555
C2E H13E 1_555 1_555
H14E C2E 1_555 1_555
C3E N2E 1_555 1_555
H15E C3E 1_555 1_555
H16E C3E 1_555 1_555
C4E N3E 1_555 1_555
H17E C4E 1_555 1_555
H18E C4E 1_555 1_555
C5E N1E 1_555 1_555
H19E C5E 1_555 1_555
H20E C5E 1_555 1_555
C6E N4E 1_555 1_555
H21E C6E 1_555 1_555
H22E C6E 1_555 1_555
C7E N1E 1_555 1_555
H23E C7E 1_555 1_555
H24E C7E 1_555 1_555
C8E N5E 1_555 1_555
H25E C8E 1_555 1_555
H26E C8E 1_555 1_555
C9E N6E 1_555 1_555
H27E C9E 1_555 1_555
H28E C9E 1_555 1_555
C2 C3 1_555 1_555
C4 C5 1_555 1_555
C6 C7 1_555 1_555
C8 C9 1_555 1_555
Te2B In2_2 1_555 1_555
N6E C1E 1_555 1_555
C2E C3E 1_555 1_555
C4E C5E 1_555 1_555
C6E C7E 1_555 1_555
C8E C9E 1_555 1_555

#END
