
#######################################################################
#
#                 Cambridge Crystallographic Data Centre
#                                CCDC 
#
#######################################################################
#
# If this CIF has been generated from an entry in the Cambridge 
# Structural Database, then it will include bibliographic, chemical, 
# crystal, experimental, refinement or atomic coordinate data resulting 
# from the CCDC's data processing and validation procedures.
#
#######################################################################

data_TILVER
_symmetry_cell_setting           triclinic
_symmetry_space_group_name_H-M   'P -1'
_symmetry_Int_Tables_number      2
_space_group_name_Hall           '-P 1'
loop_
_symmetry_equiv_pos_site_id
_symmetry_equiv_pos_as_xyz
1 x,y,z
2 -x,-y,-z
_cell_length_a                   10.1139(8)
_cell_length_b                   12.5756(10)
_cell_length_c                   13.2653(10)
_cell_angle_alpha                116.009(1)
_cell_angle_beta                 92.998(1)
_cell_angle_gamma                108.043(1)
_cell_volume                     1406.38
loop_
_atom_site_label
_atom_site_type_symbol
_atom_site_fract_x
_atom_site_fract_y
_atom_site_fract_z
Cd1 Cd 0.444131(14) 0.782382(12) 0.203153(11)
O1 O 0.33344(16) 0.88033(15) 0.34280(11)
O2 O 0.42787(14) 1.22167(13) 0.64791(11)
O3 O 0.61354(16) 0.98521(14) 0.24888(13)
H1 H 0.688(2) 0.977(2) 0.2323(19)
H2 H 0.622(2) 1.038(2) 0.3177(14)
O4 O 0.34547(15) 1.28812(14) 0.80535(12)
O5 O 0.25318(17) 0.86197(15) 0.17788(12)
N1 N 0.27964(17) 0.57997(14) 0.14968(13)
N2 N 0.45457(16) 0.74515(14) 0.01802(13)
N3 N 0.53086(18) 0.60488(15) -0.38767(13)
N4 N -0.00730(16) 0.11782(14) 0.01365(13)
C1 C 0.3337(2) 1.25112(17) 0.69961(16)
C2 C 0.2591(2) 0.90496(18) 0.28305(16)
C3 C 0.2013(2) 1.24132(17) 0.63291(16)
C4 C 0.14132(19) 1.15037(17) 0.51696(16)
C5 C 0.0196(2) 1.15179(19) 0.46259(18)
H3 H -0.0237 1.0896 0.3847
C6 C 0.1392(2) 1.3292(2) 0.69009(19)
H4 H 0.1785 1.3892 0.7691
C7 C 0.20137(19) 1.05442(17) 0.45266(16)
H5 H 0.2590 1.0358 0.4966
C8 C 0.4983(2) 0.65588(19) -0.05572(16)
H6 H 0.5154 0.5977 -0.0342
C9 C 0.5194(2) 0.64463(19) -0.16075(17)
H7 H 0.5494 0.5792 -0.2105
C10 C 0.4304(2) 0.82505(17) -0.01528(16)
H8 H 0.3983 0.8883 0.0352
C11 C 0.0918(2) 0.11476(17) 0.09677(16)
H9 H 0.0457 0.1106 0.1597
H10 H 0.1780 0.1938 0.1308
C12 C -0.13413(19) -0.00066(17) -0.03841(17)
H11 H -0.2000 0.0006 -0.0954
H12 H -0.1846 -0.0070 0.0219
C13 C -0.0521(2) 0.22654(17) 0.07062(18)
H13 H -0.0805 0.2297 0.1419
H14 H -0.1361 0.2147 0.0193
C14 C 0.0653(2) 0.35041(17) 0.10002(17)
C15 C 0.1496(2) 0.43311(18) 0.20966(17)
H15 H 0.1350 0.4125 0.2701
C16 C 0.2551(2) 0.54572(18) 0.23064(17)
H16 H 0.3125 0.6011 0.3061
C17 C 0.4498(2) 0.82014(18) -0.11892(16)
H17 H 0.4309 0.8787 -0.1389
C18 C 0.4970(2) 0.72913(18) -0.19397(16)
C19 C 0.5285(2) 0.72722(19) -0.30410(17)
H18 H 0.4552 0.7463 -0.3381
H19 H 0.6221 0.7949 -0.2869
C20 C 0.0214(2) 1.3306(2) 0.6340(2)
H20 H -0.0186 1.3924 0.6737
C21 C -0.0382(2) 1.2413(2) 0.5196(2)
H21 H -0.1191 1.2419 0.4805
C22 C 0.1830(2) 0.99149(19) 0.33981(17)
H22 H 0.1188 1.0019 0.2932
C23 C 0.6087(2) 0.61699(19) -0.47432(17)
H23 H 0.7069 0.6802 -0.4363
H24 H 0.5609 0.6471 -0.5175
C24 C 0.3866(2) 0.51049(19) -0.44407(17)
H25 H 0.3355 0.5389 -0.4870
H26 H 0.3339 0.5024 -0.3854
C25 C 0.1983(2) 0.4998(2) 0.04380(18)
H27 H 0.2149 0.5229 -0.0149
C26 C 0.0922(2) 0.38591(19) 0.01567(18)
H28 H 0.0377 0.3318 -0.0609
N1A N -0.27964(17) -0.57997(14) -0.14968(13)
N4A N 0.00730(16) -0.11782(14) -0.01365(13)
C11A C -0.0918(2) -0.11476(17) -0.09677(16)
H9A H -0.0457 -0.1106 -0.1597
H10A H -0.1780 -0.1938 -0.1308
C12A C 0.13413(19) 0.00066(17) 0.03841(17)
H11A H 0.2000 -0.0006 0.0954
H12A H 0.1846 0.0070 -0.0219
C13A C 0.0521(2) -0.22654(17) -0.07062(18)
H13A H 0.0805 -0.2297 -0.1419
H14A H 0.1361 -0.2147 -0.0193
C14A C -0.0653(2) -0.35041(17) -0.10002(17)
C15A C -0.1496(2) -0.43311(18) -0.20966(17)
H15A H -0.1350 -0.4125 -0.2701
C16A C -0.2551(2) -0.54572(18) -0.23064(17)
H16A H -0.3125 -0.6011 -0.3061
C25A C -0.1983(2) -0.4998(2) -0.04380(18)
H27A H -0.2149 -0.5229 0.0149
C26A C -0.0922(2) -0.38591(19) -0.01567(18)
H28A H -0.0377 -0.3318 0.0609
N2A N 0.54543(16) 0.25485(14) -1.01802(13)
N3A N 0.46914(18) 0.39512(15) -0.61233(13)
C8A C 0.5017(2) 0.34412(19) -0.94428(16)
H6A H 0.4846 0.4023 -0.9658
C9A C 0.4806(2) 0.35537(19) -0.83925(17)
H7A H 0.4506 0.4208 -0.7895
C10A C 0.5696(2) 0.17495(17) -0.98472(16)
H8A H 0.6017 0.1117 -1.0352
C17A C 0.5502(2) 0.17986(18) -0.88108(16)
H17A H 0.5691 0.1213 -0.8611
C18A C 0.5030(2) 0.27087(18) -0.80603(16)
C19A C 0.4715(2) 0.27278(19) -0.69590(17)
H18A H 0.5448 0.2537 -0.6619
H19A H 0.3779 0.2051 -0.7131
C23A C 0.3913(2) 0.38301(19) -0.52568(17)
H23A H 0.2931 0.3198 -0.5637
H24A H 0.4391 0.3529 -0.4825
C24A C 0.6134(2) 0.48951(19) -0.55593(17)
H25A H 0.6645 0.4611 -0.5130
H26A H 0.6661 0.4976 -0.6146
Cd1A Cd -0.444131(14) -0.782382(12) -0.203153(11)
O1A O -0.33344(16) -0.88033(15) -0.34280(11)
O2A O -0.42787(14) -1.22167(13) -0.64791(11)
O3A O -0.61354(16) -0.98521(14) -0.24888(13)
H1A H -0.688(2) -0.977(2) -0.2323(19)
H2A H -0.622(2) -1.038(2) -0.3177(14)
O4A O -0.34547(15) -1.28812(14) -0.80535(12)
O5A O -0.25318(17) -0.86197(15) -0.17788(12)
C1A C -0.3337(2) -1.25112(17) -0.69961(16)
C2A C -0.2591(2) -0.90496(18) -0.28305(16)
C3A C -0.2013(2) -1.24132(17) -0.63291(16)
C4A C -0.14132(19) -1.15037(17) -0.51696(16)
C5A C -0.0196(2) -1.15179(19) -0.46259(18)
H3A H 0.0237 -1.0896 -0.3847
C6A C -0.1392(2) -1.3292(2) -0.69009(19)
H4A H -0.1785 -1.3892 -0.7691
C7A C -0.20137(19) -1.05442(17) -0.45266(16)
H5A H -0.2590 -1.0358 -0.4966
C20A C -0.0214(2) -1.3306(2) -0.6340(2)
H20A H 0.0186 -1.3924 -0.6737
C21A C 0.0382(2) -1.2413(2) -0.5196(2)
H21A H 0.1191 -1.2419 -0.4805
C22A C -0.1830(2) -0.99149(19) -0.33981(17)
H22A H -0.1188 -1.0019 -0.2932
Cd1_2 Cd -0.555869(14) -1.217618(12) -0.796847(11)
Cd1A_2 Cd 0.555869(14) 0.217618(12) -1.203153(11)
Cd1A_3 Cd 0.555869(14) 1.217618(12) 0.796847(11)
O2_2 O -0.57213(14) -0.77833(13) -0.35209(11)
O2A_2 O 0.57213(14) 0.77833(13) 0.35209(11)
O4_2 O -0.65453(15) -0.71188(14) -0.19465(12)
O4A_2 O 0.65453(15) 0.71188(14) 0.19465(12)
N2A_2 N -0.45457(16) -0.74515(14) -0.01802(13)
O6 O 0.61023(16) 1.14859(16) 0.46940(13)
H29 H 0.642(2) 1.136(2) 0.5194(18)
H30 H 0.5276(18) 1.141(2) 0.474(2)
O7 O 0.84325(17) 0.90726(15) 0.17094(14)
H31 H 0.883(2) 0.891(2) 0.1172(18)
H32 H 0.799(2) 0.8393(18) 0.170(2)
loop_
_geom_bond_atom_site_label_1
_geom_bond_atom_site_label_2
_geom_bond_site_symmetry_1
_geom_bond_site_symmetry_2
Cd1 O1 1_555 1_555
O1 C2 1_555 1_555
O2 C1 1_555 1_555
O3 Cd1 1_555 1_555
H1 O3 1_555 1_555
H2 O3 1_555 1_555
O4 C1 1_555 1_555
O5 Cd1 1_555 1_555
N1 Cd1 1_555 1_555
N2 Cd1 1_555 1_555
N3 C19 1_555 1_555
N4 C11 1_555 1_555
C1 C3 1_555 1_555
C2 O5 1_555 1_555
C3 C4 1_555 1_555
C4 C5 1_555 1_555
C5 H3 1_555 1_555
C6 C3 1_555 1_555
H4 C6 1_555 1_555
C7 C4 1_555 1_555
H5 C7 1_555 1_555
C8 N2 1_555 1_555
H6 C8 1_555 1_555
C9 C8 1_555 1_555
H7 C9 1_555 1_555
C10 N2 1_555 1_555
H8 C10 1_555 1_555
C11 H9 1_555 1_555
H10 C11 1_555 1_555
C12 N4 1_555 1_555
H11 C12 1_555 1_555
H12 C12 1_555 1_555
C13 N4 1_555 1_555
H13 C13 1_555 1_555
H14 C13 1_555 1_555
C14 C13 1_555 1_555
C15 C14 1_555 1_555
H15 C15 1_555 1_555
C16 N1 1_555 1_555
H16 C16 1_555 1_555
C17 C10 1_555 1_555
H17 C17 1_555 1_555
C18 C9 1_555 1_555
C19 C18 1_555 1_555
H18 C19 1_555 1_555
H19 C19 1_555 1_555
C20 C6 1_555 1_555
H20 C20 1_555 1_555
C21 C5 1_555 1_555
H21 C21 1_555 1_555
C22 C2 1_555 1_555
H22 C22 1_555 1_555
C23 N3 1_555 1_555
H23 C23 1_555 1_555
H24 C23 1_555 1_555
C24 N3 1_555 1_555
H25 C24 1_555 1_555
H26 C24 1_555 1_555
C25 N1 1_555 1_555
H27 C25 1_555 1_555
C26 C14 1_555 1_555
H28 C26 1_555 1_555
O6 H29 1_555 1_555
H30 O6 1_555 1_555
O7 H31 1_555 1_555
H32 O7 1_555 1_555
N1A C16A 1_555 1_555
N4A C11A 1_555 1_555
C11A C12 1_555 1_555
H9A C11A 1_555 1_555
H10A C11A 1_555 1_555
C12A C11 1_555 1_555
H11A C12A 1_555 1_555
H12A C12A 1_555 1_555
C13A N4A 1_555 1_555
H13A C13A 1_555 1_555
H14A C13A 1_555 1_555
C14A C13A 1_555 1_555
C15A C14A 1_555 1_555
H15A C15A 1_555 1_555
C16A C15A 1_555 1_555
H16A C16A 1_555 1_555
C25A N1A 1_555 1_555
H27A C25A 1_555 1_555
C26A C14A 1_555 1_555
H28A C26A 1_555 1_555
N2A C8A 1_555 1_555
N3A C19A 1_555 1_555
C8A H6A 1_555 1_555
C9A C8A 1_555 1_555
H7A C9A 1_555 1_555
C10A N2A 1_555 1_555
H8A C10A 1_555 1_555
C17A C10A 1_555 1_555
H17A C17A 1_555 1_555
C18A C9A 1_555 1_555
C19A C18A 1_555 1_555
H18A C19A 1_555 1_555
H19A C19A 1_555 1_555
C23A C24 1_555 1_555
H23A C23A 1_555 1_555
H24A C23A 1_555 1_555
C24A C23 1_555 1_555
H25A C24A 1_555 1_555
H26A C24A 1_555 1_555
Cd1A N1A 1_555 1_555
O1A Cd1A 1_555 1_555
O2A C1A 1_555 1_555
O3A Cd1A 1_555 1_555
H1A O3A 1_555 1_555
H2A O3A 1_555 1_555
O4A C1A 1_555 1_555
O5A Cd1A 1_555 1_555
C1A C3A 1_555 1_555
C2A O1A 1_555 1_555
C3A C4A 1_555 1_555
C4A C5A 1_555 1_555
C5A H3A 1_555 1_555
C6A C3A 1_555 1_555
H4A C6A 1_555 1_555
C7A C4A 1_555 1_555
H5A C7A 1_555 1_555
C20A C6A 1_555 1_555
H20A C20A 1_555 1_555
C21A C5A 1_555 1_555
H21A C21A 1_555 1_555
C22A C2A 1_555 1_555
H22A C22A 1_555 1_555
Cd1_2 O2A 1_555 1_555
Cd1A_2 N2A 1_555 1_555
Cd1A_3 O2 1_555 1_555
O2_2 Cd1A 1_555 1_555
O2A_2 Cd1 1_555 1_555
O4_2 Cd1A 1_555 1_555
O4A_2 Cd1 1_555 1_555
N2A_2 Cd1A 1_555 1_555
O4 Cd1A_3 1_555 1_555
C7 C22 1_555 1_555
C15 C16 1_555 1_555
C17 C18 1_555 1_555
C20 C21 1_555 1_555
C25 C26 1_555 1_555
N4A C12A 1_555 1_555
C25A C26A 1_555 1_555
N3A C23A 1_555 1_555
N3A C24A 1_555 1_555
C17A C18A 1_555 1_555
O4A Cd1_2 1_555 1_555
O5A C2A 1_555 1_555
C7A C22A 1_555 1_555
C20A C21A 1_555 1_555

#END
