
#######################################################################
#
#                 Cambridge Crystallographic Data Centre
#                                CCDC 
#
#######################################################################
#
# If this CIF has been generated from an entry in the Cambridge 
# Structural Database, then it will include bibliographic, chemical, 
# crystal, experimental, refinement or atomic coordinate data resulting 
# from the CCDC's data processing and validation procedures.
#
#######################################################################

data_TILVAN
_symmetry_cell_setting           monoclinic
_symmetry_space_group_name_H-M   'P 21/n'
_symmetry_Int_Tables_number      14
_space_group_name_Hall           '-P 2yn'
loop_
_symmetry_equiv_pos_site_id
_symmetry_equiv_pos_as_xyz
1 x,y,z
2 1/2-x,1/2+y,1/2-z
3 -x,-y,-z
4 1/2+x,1/2-y,1/2+z
_cell_length_a                   15.328(2)
_cell_length_b                   12.9730(17)
_cell_length_c                   15.583(2)
_cell_angle_alpha                90
_cell_angle_beta                 109.577(2)
_cell_angle_gamma                90
_cell_volume                     2919.55
loop_
_atom_site_label
_atom_site_type_symbol
_atom_site_fract_x
_atom_site_fract_y
_atom_site_fract_z
Cd1 Cd 0.290822(15) 0.043969(17) 0.102801(15)
O1 O 0.38422(14) 0.18375(16) 0.16263(14)
O2 O 0.37557(14) 0.15663(16) 0.02003(14)
O3 O 0.30873(15) 0.40819(17) 0.33787(15)
O4 O 0.23821(15) 0.54358(17) 0.25931(15)
N1 N 0.23526(17) -0.05159(19) -0.02816(16)
N2 N 0.15319(19) -0.2433(2) -0.25637(19)
H1 H 0.1978(17) -0.259(2) -0.279(2)
N3 N -0.07988(16) -0.43408(19) -0.35708(17)
N4 N 0.16954(17) 0.16417(19) 0.06046(17)
N5 N -0.05802(17) 0.3613(2) 0.01960(17)
H2 H -0.1054(16) 0.339(2) -0.0265(16)
N6 N -0.13689(19) 0.6269(2) 0.12914(19)
C1 C -0.1956(2) 0.5666(3) 0.0666(3)
H3 H -0.2590 0.5860 0.0448
C2 C 0.5236(3) 0.2978(3) 0.0457(3)
H4 H 0.5188 0.2432 0.0037
C3 C -0.1706(2) 0.4788(3) 0.0318(2)
H5 H -0.2163 0.4387 -0.0117
C4 C -0.0488(2) 0.5968(2) 0.1564(2)
H6 H -0.0051 0.6377 0.2012
C5 C 0.4713(2) 0.3811(3) 0.1582(2)
C6 C 0.3547(2) 0.4648(3) 0.2137(2)
H7 H 0.3498 0.5189 0.1713
C7 C 0.0060(2) -0.4648(2) -0.3488(2)
H8 H 0.0138 -0.5331 -0.3671
C8 C 0.4116(2) 0.3886(2) 0.2158(2)
H9 H 0.4149 0.3340 0.2574
C9 C -0.0148(2) -0.2698(2) -0.3000(2)
H10 H -0.0248 -0.2010 -0.2844
C10 C 0.2868(2) -0.0655(2) -0.0816(2)
H11 H 0.3448 -0.0311 -0.0659
C11 C 0.2610(2) -0.1264(2) -0.1573(2)
H12 H 0.3004 -0.1332 -0.1928
C12 C 0.0831(2) -0.4045(2) -0.3159(2)
H13 H 0.1423 -0.4309 -0.3113
C13 C 0.4669(2) 0.2983(2) 0.0993(2)
C14 C -0.0159(2) 0.5112(2) 0.1249(2)
H14 H 0.0484 0.4955 0.1469
C15 C -0.0883(2) -0.3363(2) -0.3336(2)
H15 H -0.1486 -0.3113 -0.3405
C16 C 0.0899(2) 0.1551(2) -0.0095(2)
H16 H 0.0848 0.1008 -0.0518
C17 C 0.0206(2) 0.3016(2) 0.0361(2)
C18 C 0.1541(2) -0.1018(2) -0.0524(2)
H17 H 0.1164 -0.0936 -0.0153
C19 C 0.1225(2) -0.1640(2) -0.1273(2)
H18 H 0.0640 -0.1971 -0.1416
C20 C 0.1738(2) 0.2433(2) 0.1169(2)
H19 H 0.2296 0.2521 0.1666
C21 C 0.4039(2) 0.2074(2) 0.0926(2)
C22 C 0.0739(2) -0.3041(2) -0.2890(2)
C23 C 0.0158(2) 0.2193(2) -0.0235(2)
H20 H -0.0391 0.2081 -0.0738
C24 C -0.07741(19) 0.4482(2) 0.0607(2)
C25 C 0.1765(2) -0.1785(2) -0.1827(2)
C26 C 0.2973(2) 0.4713(2) 0.2741(2)
C27 C 0.1036(2) 0.3126(2) 0.1083(2)
H21 H 0.1115 0.3672 0.1508
C28 C 0.5868(3) 0.3762(4) 0.0531(4)
H22 H 0.6270 0.3740 0.0182
C29 C 0.5914(4) 0.4575(4) 0.1113(4)
H23 H 0.6341 0.5120 0.1159
C30 C 0.5339(3) 0.4593(3) 0.1625(3)
H24 H 0.5373 0.5160 0.2020
Cd1A Cd 0.209178(15) 0.543969(17) 0.397199(15)
Cd1C Cd -0.209178(15) -0.543969(17) -0.397199(15)
O3A O 0.19127(15) -0.09181(17) 0.16213(15)
O4A O 0.26179(15) 0.04358(17) 0.24069(15)
N3C N 0.42012(16) -0.06592(19) 0.14292(17)
O5 O 0.21036(17) 0.69862(18) 0.13346(16)
H25 H 0.203(2) 0.7566(16) 0.153(2)
H26 H 0.216(2) 0.654(2) 0.1743(19)
O6 O 0.26999(16) -0.30688(19) -0.34978(16)
H27 H 0.2326(19) -0.322(3) -0.4014(15)
H28 H 0.305(2) -0.259(2) -0.353(2)
loop_
_geom_bond_atom_site_label_1
_geom_bond_atom_site_label_2
_geom_bond_site_symmetry_1
_geom_bond_site_symmetry_2
Cd1 O1 1_555 1_555
O1 C21 1_555 1_555
O2 Cd1 1_555 1_555
O3 C26 1_555 1_555
O4 C26 1_555 1_555
N1 Cd1 1_555 1_555
N2 H1 1_555 1_555
N3 C7 1_555 1_555
N4 Cd1 1_555 1_555
N5 H2 1_555 1_555
N6 C1 1_555 1_555
C1 H3 1_555 1_555
C2 H4 1_555 1_555
C3 C1 1_555 1_555
H5 C3 1_555 1_555
C4 N6 1_555 1_555
H6 C4 1_555 1_555
C5 C8 1_555 1_555
C6 H7 1_555 1_555
C7 H8 1_555 1_555
C8 C6 1_555 1_555
H9 C8 1_555 1_555
C9 H10 1_555 1_555
C10 N1 1_555 1_555
H11 C10 1_555 1_555
C11 C10 1_555 1_555
H12 C11 1_555 1_555
C12 C7 1_555 1_555
H13 C12 1_555 1_555
C13 C2 1_555 1_555
C14 C4 1_555 1_555
H14 C14 1_555 1_555
C15 N3 1_555 1_555
H15 C15 1_555 1_555
C16 N4 1_555 1_555
H16 C16 1_555 1_555
C17 N5 1_555 1_555
C18 N1 1_555 1_555
H17 C18 1_555 1_555
C19 C18 1_555 1_555
H18 C19 1_555 1_555
C20 N4 1_555 1_555
H19 C20 1_555 1_555
C21 O2 1_555 1_555
C22 N2 1_555 1_555
C23 C16 1_555 1_555
H20 C23 1_555 1_555
C24 N5 1_555 1_555
C25 N2 1_555 1_555
C26 C6 1_555 1_555
C27 C17 1_555 1_555
H21 C27 1_555 1_555
C28 C2 1_555 1_555
H22 C28 1_555 1_555
C29 C28 1_555 1_555
H23 C29 1_555 1_555
C30 C5 1_555 1_555
H24 C30 1_555 1_555
O5 H25 1_555 1_555
H26 O5 1_555 1_555
O6 H27 1_555 1_555
H28 O6 1_555 1_555
Cd1A O3 1_555 1_555
Cd1C N3 1_555 1_555
O3A Cd1 1_555 1_555
O4A Cd1 1_555 1_555
N3C Cd1 1_555 1_555
O4 Cd1A 1_555 1_555
C3 C24 1_555 1_555
C5 C13 1_555 1_555
C9 C15 1_555 1_555
C9 C22 1_555 1_555
C11 C25 1_555 1_555
C12 C22 1_555 1_555
C13 C21 1_555 1_555
C14 C24 1_555 1_555
C17 C23 1_555 1_555
C19 C25 1_555 1_555
C20 C27 1_555 1_555
C29 C30 1_555 1_555

#END
