
#######################################################################
#
#                 Cambridge Crystallographic Data Centre
#                                CCDC 
#
#######################################################################
#
# If this CIF has been generated from an entry in the Cambridge 
# Structural Database, then it will include bibliographic, chemical, 
# crystal, experimental, refinement or atomic coordinate data resulting 
# from the CCDC's data processing and validation procedures.
#
#######################################################################

data_TILWIV
_symmetry_cell_setting           monoclinic
_symmetry_space_group_name_H-M   'P 21/n'
_symmetry_Int_Tables_number      14
_space_group_name_Hall           '-P 2yn'
loop_
_symmetry_equiv_pos_site_id
_symmetry_equiv_pos_as_xyz
1 x,y,z
2 1/2-x,1/2+y,1/2-z
3 -x,-y,-z
4 1/2+x,1/2-y,1/2+z
_cell_length_a                   10.36420(10)
_cell_length_b                   15.5661(3)
_cell_length_c                   16.4630(2)
_cell_angle_alpha                90
_cell_angle_beta                 102.9650(10)
_cell_angle_gamma                90
_cell_volume                     2588.27
loop_
_atom_site_label
_atom_site_type_symbol
_atom_site_fract_x
_atom_site_fract_y
_atom_site_fract_z
Pb1 Pb 0.76659(2) 0.427284(15) 0.543677(15)
Pb2 Pb 0.91640(2) 0.664640(16) 0.572580(16)
Pb3 Pb 0.55124(3) 0.508766(18) 0.327383(16)
S1 S 0.7787(2) 0.85006(12) 0.76293(12)
S2 S 1.25223(16) 0.20667(10) 0.84516(11)
P1 P 0.56708(15) 0.61836(10) 0.52128(10)
P2 P 1.09151(16) 0.45860(10) 0.60913(10)
C1 C 0.5715(6) 0.7281(4) 0.5596(4)
C2 C 0.6526(6) 0.7468(4) 0.6372(4)
H1 H 0.7000 0.7032 0.6693
C3 C 0.6625(7) 0.8312(4) 0.6667(4)
C4 C 0.5899(8) 0.8960(5) 0.6218(5)
H2 H 0.5962 0.9519 0.6423
C5 C 0.5059(8) 0.8765(5) 0.5444(5)
H3 H 0.4558 0.9199 0.5136
C6 C 0.4968(7) 0.7934(4) 0.5136(5)
H4 H 0.4409 0.7812 0.4623
C7 C 1.1517(6) 0.4260(4) 0.7170(4)
C8 C 1.1654(6) 0.3397(4) 0.7386(4)
H5 H 1.1366 0.2974 0.6987
C9 C 1.2232(6) 0.3172(4) 0.8210(4)
C10 C 1.2651(8) 0.3787(5) 0.8815(5)
H6 H 1.3037 0.3628 0.9359
C11 C 1.2486(9) 0.4648(5) 0.8595(5)
H7 H 1.2750 0.5072 0.8997
C12 C 1.1924(7) 0.4878(4) 0.7772(4)
H8 H 1.1824 0.5455 0.7628
O1 O 0.7040(4) 0.5801(3) 0.5565(3)
O2 O 0.5272(5) 0.6213(3) 0.4265(3)
O3 O 0.4615(4) 0.5702(3) 0.5558(3)
O4 O 0.7556(8) 0.9364(4) 0.7913(4)
O5 O 0.7571(6) 0.7848(4) 0.8212(4)
O6 O 0.9066(6) 0.8449(5) 0.7414(4)
O7 O 0.9727(4) 0.5192(3) 0.6057(3)
O8 O 1.2082(4) 0.5040(3) 0.5851(3)
O9 O 1.0442(5) 0.3784(3) 0.5573(3)
O10 O 1.1347(5) 0.1591(3) 0.8067(3)
O11 O 1.3651(5) 0.1846(3) 0.8085(3)
O12 O 1.2919(6) 0.2010(3) 0.9358(3)
O13 O 0.3735(7) 0.4197(5) 0.2210(5)
O16 O 0.8396(8) 0.8107(5) 0.4704(5)
Pb1B Pb 0.23341(2) 0.572716(15) 0.456323(15)
Pb1A Pb 0.73341(2) 0.927284(15) 0.956323(15)
Pb1B_2 Pb 1.23341(2) 0.572716(15) 0.456323(15)
Pb1C Pb 1.26659(2) 0.072716(15) 1.043677(15)
Pb2B Pb 1.08360(2) 0.335360(16) 0.427420(16)
Pb2A Pb 1.58360(2) 0.164640(16) 0.927420(16)
Pb3B Pb 0.44876(3) 0.491234(18) 0.672617(16)
Pb3B_2 Pb 1.44876(3) 0.491234(18) 0.672617(16)
Pb3C Pb 1.05124(3) -0.008766(18) 0.827383(16)
O3B O 0.5385(4) 0.4298(3) 0.4442(3)
O4A O 0.7444(8) 0.4364(4) 0.7087(4)
O8B O 0.7918(4) 0.4960(3) 0.4149(3)
O9B O 0.9558(5) 0.6216(3) 0.4427(3)
O10C O 0.6347(5) 0.3409(3) 0.3067(3)
O11A O 1.1349(5) 0.6846(3) 0.6915(3)
O12C O 0.7919(6) 0.2990(3) 0.4358(3)
O14 O 0.6073(11) 0.4618(8) -0.0674(7)
O15 O 0.1163(6) 0.3922(4) 0.2501(4)
O17 O 0.8952(7) 0.2839(5) 0.1486(4)
O18 O 0.4278(11) 0.3233(7) 0.0957(6)
loop_
_geom_bond_atom_site_label_1
_geom_bond_atom_site_label_2
_geom_bond_site_symmetry_1
_geom_bond_site_symmetry_2
Pb1 O1 1_555 1_555
Pb2 O1 1_555 1_555
Pb3 O2 1_555 1_555
S1 C3 1_555 1_555
S2 C9 1_555 1_555
P1 C1 1_555 1_555
P2 C7 1_555 1_555
C1 C2 1_555 1_555
C2 H1 1_555 1_555
C3 C2 1_555 1_555
C4 C3 1_555 1_555
H2 C4 1_555 1_555
C5 C4 1_555 1_555
H3 C5 1_555 1_555
C6 C1 1_555 1_555
H4 C6 1_555 1_555
C7 C8 1_555 1_555
C8 H5 1_555 1_555
C9 C8 1_555 1_555
C10 C9 1_555 1_555
H6 C10 1_555 1_555
C11 C10 1_555 1_555
H7 C11 1_555 1_555
C12 C7 1_555 1_555
H8 C12 1_555 1_555
O1 P1 1_555 1_555
O2 P1 1_555 1_555
O3 P1 1_555 1_555
O4 S1 1_555 1_555
O5 S1 1_555 1_555
O6 S1 1_555 1_555
O7 Pb1 1_555 1_555
O8 P2 1_555 1_555
O9 P2 1_555 1_555
O10 S2 1_555 1_555
O11 S2 1_555 1_555
O12 S2 1_555 1_555
O13 Pb3 1_555 1_555
O16 Pb2 1_555 1_555
Pb1B O3 1_555 1_555
Pb1A O4 1_555 1_555
Pb1B_2 O8 1_555 1_555
Pb1C O12 1_555 1_555
Pb2B O9 1_555 1_555
Pb2A O11 1_555 1_555
Pb3B O3 1_555 1_555
Pb3B_2 O8 1_555 1_555
Pb3C O10 1_555 1_555
O3B Pb1 1_555 1_555
O4A Pb1 1_555 1_555
O8B Pb1 1_555 1_555
O9B Pb2 1_555 1_555
O10C Pb3 1_555 1_555
O11A Pb2 1_555 1_555
O12C Pb1 1_555 1_555
Pb2 O7 1_555 1_555
Pb3 O3B 1_555 1_555
Pb3 O8B 1_555 1_555
P2 O7 1_555 1_555
C5 C6 1_555 1_555
C11 C12 1_555 1_555

#END
