
#######################################################################
#
#                 Cambridge Crystallographic Data Centre
#                                CCDC 
#
#######################################################################
#
# If this CIF has been generated from an entry in the Cambridge 
# Structural Database, then it will include bibliographic, chemical, 
# crystal, experimental, refinement or atomic coordinate data resulting 
# from the CCDC's data processing and validation procedures.
#
#######################################################################

data_TILXES
_symmetry_cell_setting           monoclinic
_symmetry_space_group_name_H-M   'P 21/n'
_symmetry_Int_Tables_number      14
_space_group_name_Hall           '-P 2yn'
loop_
_symmetry_equiv_pos_site_id
_symmetry_equiv_pos_as_xyz
1 x,y,z
2 1/2-x,1/2+y,1/2-z
3 -x,-y,-z
4 1/2+x,1/2-y,1/2+z
_cell_length_a                   10.25440(10)
_cell_length_b                   16.3825(2)
_cell_length_c                   16.6409(3)
_cell_angle_alpha                90
_cell_angle_beta                 103.7830(10)
_cell_angle_gamma                90
_cell_volume                     2715.05
loop_
_atom_site_label
_atom_site_type_symbol
_atom_site_fract_x
_atom_site_fract_y
_atom_site_fract_z
Pb1 Pb -1.06222(3) -0.35732(2) 0.10171(2)
Pb2 Pb -1.23686(3) -0.573176(19) 0.02931(2)
Pb3 Pb -1.46049(4) -0.46829(2) -0.17025(2)
P1 P -1.4290(2) -0.39473(14) 0.03795(13)
P2 P -0.5988(2) -0.06302(13) 0.40241(13)
S1 S -1.2320(3) -0.17656(16) 0.28517(16)
S2 S -0.7474(2) -0.33484(14) 0.20615(16)
N1 N -1.0246(11) -0.2072(5) 0.0556(6)
C1 C -1.3994(9) -0.2891(5) 0.0692(5)
C2 C -1.3438(9) -0.2729(5) 0.1528(5)
H1 H -1.3238 -0.3159 0.1903
C3 C -1.3180(10) -0.1924(6) 0.1805(6)
C4 C -1.3474(13) -0.1285(6) 0.1237(7)
H2 H -1.3303 -0.0748 0.1413
C5 C -1.4024(15) -0.1456(7) 0.0408(7)
H3 H -1.4235 -0.1029 0.0030
C6 C -1.4262(12) -0.2254(6) 0.0136(7)
H4 H -1.4603 -0.2360 -0.0424
C7 C -0.6996(9) -0.2311(6) 0.2155(6)
C8 C -0.6756(9) -0.1939(5) 0.2928(5)
H5 H -0.6841 -0.2238 0.3388
C9 C -0.6384(8) -0.1108(5) 0.3016(5)
C10 C -0.6320(11) -0.0676(6) 0.2317(6)
H6 H -0.6112 -0.0123 0.2364
C11 C -0.6556(12) -0.1039(7) 0.1551(6)
H7 H -0.6493 -0.0734 0.1091
C12 C -0.6887(11) -0.1857(6) 0.1467(6)
H8 H -0.7036 -0.2105 0.0950
C13 C -1.0255(12) -0.1469(6) 0.1080(8)
H9 H -1.0342 -0.1600 0.1608
C14 C -1.0142(13) -0.0656(7) 0.0892(8)
H10 H -1.0132 -0.0258 0.1292
C15 C -1.0046(15) -0.0437(7) 0.0119(7)
C16 C -1.000(3) -0.1069(8) -0.0420(8)
H11 H -0.9945 -0.0950 -0.0958
C17 C -1.004(2) -0.1878(8) -0.0181(8)
H12 H -0.9923 -0.2291 -0.0540
O1 O -1.2968(6) -0.4415(4) 0.0668(4)
O2 O -1.4871(7) -0.3955(4) -0.0547(4)
O3 O -1.5362(6) -0.4275(4) 0.0809(4)
O4 O -1.0973(8) -0.2011(6) 0.2870(5)
O5 O -1.2380(10) -0.0897(5) 0.3026(5)
O6 O -1.2957(11) -0.2268(7) 0.3360(5)
O7 O -0.8460(8) -0.3457(5) 0.2551(5)
O8 O -0.8113(7) -0.3467(4) 0.1169(4)
O9 O -0.6287(7) -0.3840(4) 0.2348(5)
O10 O -0.5533(7) -0.1306(4) 0.4664(4)
O11 O -0.4826(6) -0.0034(3) 0.4033(4)
O12 O -0.7245(6) -0.0189(4) 0.4134(4)
O13 O -1.6515(11) -0.5613(7) -0.2825(7)
Pb1B Pb -0.93778(3) 0.35732(2) -0.10171(2)
Pb1C Pb -0.56222(3) -0.14268(2) 0.60171(2)
Pb1A Pb -0.43778(3) 0.14268(2) 0.39829(2)
Pb1C_2 Pb -1.56222(3) -0.14268(2) -0.39829(2)
Pb1B_2 Pb -0.93778(3) -0.64268(2) -0.10171(2)
Pb1B_3 Pb -1.93778(3) -0.64268(2) -0.10171(2)
Pb2B Pb -1.76314(3) -0.426824(19) -0.02931(2)
Pb2A Pb -1.26314(3) -0.073176(19) 0.47069(2)
Pb2A_2 Pb -0.26314(3) -0.073176(19) 0.47069(2)
Pb2C Pb -0.73686(3) 0.073176(19) 0.52931(2)
Pb2B_2 Pb -0.76314(3) -0.426824(19) -0.02931(2)
Pb2C_2 Pb -1.73686(3) -0.926824(19) -0.47069(2)
Pb3B Pb -1.53951(4) -0.53171(2) 0.17025(2)
Pb3B_2 Pb -0.53951(4) -0.53171(2) 0.17025(2)
Pb3C Pb -0.96049(4) -0.03171(2) 0.32975(2)
Pb3A Pb -1.03951(4) 0.03171(2) -0.32975(2)
P1B P -1.5710(2) -0.60527(14) -0.03795(13)
P2C P -1.0988(2) -0.43698(13) -0.09759(13)
S1B S -1.7680(3) -0.82344(16) -0.28517(16)
S2C S -1.2474(2) -0.16516(14) -0.29385(16)
N1B N -0.9754(11) 0.2072(5) -0.0556(6)
C1B C -1.6006(9) -0.7109(5) -0.0692(5)
C2B C -1.6562(9) -0.7271(5) -0.1528(5)
H1B H -1.6762 -0.6841 -0.1903
C3B C -1.6820(10) -0.8076(6) -0.1805(6)
C4B C -1.6526(13) -0.8715(6) -0.1237(7)
H2B H -1.6697 -0.9252 -0.1413
C5B C -1.5976(15) -0.8544(7) -0.0408(7)
H3B H -1.5765 -0.8971 -0.0030
C6B C -1.5738(12) -0.7746(6) -0.0136(7)
H4B H -1.5397 -0.7640 0.0424
C7C C -1.1996(9) -0.2689(6) -0.2845(6)
C8C C -1.1756(9) -0.3061(5) -0.2072(5)
H5C H -1.1841 -0.2762 -0.1612
C9C C -1.1384(8) -0.3892(5) -0.1984(5)
C10C C -1.1320(11) -0.4324(6) -0.2683(6)
H6C H -1.1112 -0.4877 -0.2636
C11C C -1.1556(12) -0.3961(7) -0.3449(6)
H7C H -1.1493 -0.4266 -0.3909
C12C C -1.1887(11) -0.3143(6) -0.3533(6)
H8C H -1.2036 -0.2895 -0.4050
C13B C -0.9745(12) 0.1469(6) -0.1080(8)
H9B H -0.9658 0.1600 -0.1608
C14B C -0.9858(13) 0.0656(7) -0.0892(8)
H10B H -0.9868 0.0258 -0.1292
C15B C -0.9954(15) 0.0437(7) -0.0119(7)
C16B C -1.000(3) 0.1069(8) 0.0420(8)
H11B H -1.0055 0.0950 0.0958
C17B C -0.996(2) 0.1878(8) 0.0181(8)
H12B H -1.0077 0.2291 0.0540
O1B O -1.7032(6) -0.5585(4) -0.0668(4)
O1B_2 O -0.7032(6) 0.4415(4) -0.0668(4)
O2B O -1.5129(7) -0.6045(4) 0.0547(4)
O3B O -1.4638(6) -0.5725(4) -0.0809(4)
O4B O -1.9027(8) -0.7989(6) -0.2870(5)
O5B O -1.7620(10) -0.9103(5) -0.3026(5)
O5A O -1.2620(10) -0.5897(5) 0.1974(5)
O5C O -1.7380(10) -0.4103(5) -0.1974(5)
O6B O -1.7043(11) -0.7732(7) -0.3360(5)
O7C O -1.3460(8) -0.1543(5) -0.2449(5)
O8C O -1.3113(7) -0.1533(4) -0.3831(4)
O8B O -1.1887(7) 0.3467(4) -0.1169(4)
O9C O -1.1287(7) -0.1160(4) -0.2652(5)
O9B O -1.3713(7) -0.6160(4) -0.2348(5)
O9_2 O -1.6287(7) -0.3840(4) 0.2348(5)
O10C O -1.0533(7) -0.3694(4) -0.0336(4)
O10A O -0.9467(7) 0.3694(4) 0.0336(4)
O11C O -0.9826(6) -0.4966(3) -0.0967(4)
O11A O -1.0174(6) -0.5034(3) 0.0967(4)
O11C_2 O -0.9826(6) 0.5034(3) -0.0967(4)
O11C_3 O -1.9826(6) -0.4966(3) -0.0967(4)
O12C O -1.2245(6) -0.4811(4) -0.0866(4)
O12A O -1.7755(6) -0.5189(4) 0.0866(4)
O13B O -1.3485(11) -0.4387(7) 0.2825(7)
O14 O -1.0799(11) -0.3805(7) 0.3189(8)
loop_
_geom_bond_atom_site_label_1
_geom_bond_atom_site_label_2
_geom_bond_site_symmetry_1
_geom_bond_site_symmetry_2
Pb1 N1 1_555 1_555
Pb2 O1 1_555 1_555
Pb3 O2 1_555 1_555
P1 C1 1_555 1_555
P2 C9 1_555 1_555
S1 C3 1_555 1_555
S2 C7 1_555 1_555
N1 C13 1_555 1_555
C1 C2 1_555 1_555
C2 H1 1_555 1_555
C3 C2 1_555 1_555
C4 C3 1_555 1_555
H2 C4 1_555 1_555
C5 C4 1_555 1_555
H3 C5 1_555 1_555
C6 C1 1_555 1_555
H4 C6 1_555 1_555
C7 C8 1_555 1_555
C8 H5 1_555 1_555
C9 C8 1_555 1_555
C10 C9 1_555 1_555
H6 C10 1_555 1_555
C11 C10 1_555 1_555
H7 C11 1_555 1_555
C12 C7 1_555 1_555
H8 C12 1_555 1_555
C13 H9 1_555 1_555
C14 C13 1_555 1_555
H10 C14 1_555 1_555
C15 C14 1_555 1_555
C16 C15 1_555 1_555
H11 C16 1_555 1_555
C17 N1 1_555 1_555
H12 C17 1_555 1_555
O1 Pb1 1_555 1_555
O2 P1 1_555 1_555
O3 P1 1_555 1_555
O4 S1 1_555 1_555
O5 S1 1_555 1_555
O6 S1 1_555 1_555
O7 S2 1_555 1_555
O8 Pb1 1_555 1_555
O9 S2 1_555 1_555
O10 P2 1_555 1_555
O11 P2 1_555 1_555
O12 P2 1_555 1_555
O13 Pb3 1_555 1_555
Pb1B N1B 1_555 1_555
Pb1C O10 1_555 1_555
Pb1A O11 1_555 1_555
Pb1C_2 O8C 1_555 1_555
Pb1B_2 O11C 1_555 1_555
Pb1B_3 O1B 1_555 1_555
Pb2B O3 1_555 1_555
Pb2A O5 1_555 1_555
Pb2A_2 O11 1_555 1_555
Pb2C O12 1_555 1_555
Pb2B_2 O11C 1_555 1_555
Pb2C_2 O5B 1_555 1_555
Pb3B O3 1_555 1_555
Pb3B_2 O9 1_555 1_555
Pb3C O12 1_555 1_555
Pb3A O9C 1_555 1_555
P1B C1B 1_555 1_555
P2C C9C 1_555 1_555
S1B C3B 1_555 1_555
S2C C7C 1_555 1_555
N1B C13B 1_555 1_555
C1B C2B 1_555 1_555
C2B H1B 1_555 1_555
C3B C2B 1_555 1_555
C4B C3B 1_555 1_555
H2B C4B 1_555 1_555
C5B C4B 1_555 1_555
H3B C5B 1_555 1_555
C6B C1B 1_555 1_555
H4B C6B 1_555 1_555
C7C C8C 1_555 1_555
C8C H5C 1_555 1_555
C9C C8C 1_555 1_555
C10C C9C 1_555 1_555
H6C C10C 1_555 1_555
C11C C10C 1_555 1_555
H7C C11C 1_555 1_555
C12C C7C 1_555 1_555
H8C C12C 1_555 1_555
C13B H9B 1_555 1_555
C14B C13B 1_555 1_555
H10B C14B 1_555 1_555
C15B C15 1_555 1_555
C16B C15B 1_555 1_555
H11B C16B 1_555 1_555
C17B N1B 1_555 1_555
H12B C17B 1_555 1_555
O1B Pb2B 1_555 1_555
O1B_2 Pb1B 1_555 1_555
O2B Pb3B 1_555 1_555
O3B Pb2 1_555 1_555
O4B S1B 1_555 1_555
O5B S1B 1_555 1_555
O5A Pb2 1_555 1_555
O5C Pb2B 1_555 1_555
O6B S1B 1_555 1_555
O7C S2C 1_555 1_555
O8C S2C 1_555 1_555
O8B Pb1B 1_555 1_555
O9C S2C 1_555 1_555
O9B Pb3 1_555 1_555
O9_2 Pb3B 1_555 1_555
O10C Pb1 1_555 1_555
O10A Pb1B 1_555 1_555
O11C P2C 1_555 1_555
O11A Pb1 1_555 1_555
O11C_2 Pb1B 1_555 1_555
O11C_3 Pb1B_3 1_555 1_555
O12C Pb2 1_555 1_555
O12A Pb2B 1_555 1_555
O13B Pb3B 1_555 1_555
Pb2 O11A 1_555 1_555
Pb3 O3B 1_555 1_555
Pb3 O12C 1_555 1_555
P1 O1 1_555 1_555
S2 O8 1_555 1_555
C5 C6 1_555 1_555
C11 C12 1_555 1_555
C16 C17 1_555 1_555
Pb2B O11C_3 1_555 1_555
Pb3B O12A 1_555 1_555
P1B O1B 1_555 1_555
P1B O2B 1_555 1_555
P1B O3B 1_555 1_555
P2C O10C 1_555 1_555
P2C O12C 1_555 1_555
C5B C6B 1_555 1_555
C11C C12C 1_555 1_555
C14B C15B 1_555 1_555
C16B C17B 1_555 1_555

#END
