
#######################################################################
#
#                 Cambridge Crystallographic Data Centre
#                                CCDC 
#
#######################################################################
#
# If this CIF has been generated from an entry in the Cambridge 
# Structural Database, then it will include bibliographic, chemical, 
# crystal, experimental, refinement or atomic coordinate data resulting 
# from the CCDC's data processing and validation procedures.
#
#######################################################################

data_TILZIY
_symmetry_cell_setting           monoclinic
_symmetry_space_group_name_H-M   'P 21/c'
_symmetry_Int_Tables_number      14
_space_group_name_Hall           '-P 2ybc'
loop_
_symmetry_equiv_pos_site_id
_symmetry_equiv_pos_as_xyz
1 x,y,z
2 -x,1/2+y,1/2-z
3 -x,-y,-z
4 x,1/2-y,1/2+z
_cell_length_a                   4.9404(3)
_cell_length_b                   8.7820(5)
_cell_length_c                   17.1114(9)
_cell_angle_alpha                90
_cell_angle_beta                 96.395(4)
_cell_angle_gamma                90
_cell_volume                     737.786
loop_
_atom_site_label
_atom_site_type_symbol
_atom_site_fract_x
_atom_site_fract_y
_atom_site_fract_z
Zn1 Zn 0.20452(18) 0.43380(10) 0.41748(5)
S1 S 0.2765(4) 0.7301(2) 0.51451(11)
O1 O 0.2467(10) 0.6506(6) 0.4356(3)
O2 O 0.5806(9) 0.7381(5) 0.5401(3)
O3 O 0.1771(10) 0.6122(6) 0.5712(3)
N1 N 0.2181(14) 0.4266(7) 0.2980(3)
C1 C 0.3947(17) 0.3405(10) 0.2650(5)
H1 H 0.5181 0.2821 0.2973
C2 C 0.0463(19) 0.5097(10) 0.2503(5)
H2 H -0.0776 0.5709 0.2729
C3 C 0.040(2) 0.5111(11) 0.1692(5)
H3 H -0.0828 0.5722 0.1383
C4 C 0.221(2) 0.4191(11) 0.1361(5)
H4 H 0.2205 0.4141 0.0818
C5 C 0.4022(19) 0.3343(10) 0.1852(5)
H5 H 0.5296 0.2729 0.1643
Zn1B Zn 0.79548(18) 0.56620(10) 0.58252(5)
Zn1B_2 Zn -0.20452(18) 0.56620(10) 0.58252(5)
O2B O 0.4194(9) 0.2619(5) 0.4599(3)
O3B O -0.1771(10) 0.3878(6) 0.4288(3)
loop_
_geom_bond_atom_site_label_1
_geom_bond_atom_site_label_2
_geom_bond_site_symmetry_1
_geom_bond_site_symmetry_2
Zn1 O1 1_555 1_555
S1 O1 1_555 1_555
O2 S1 1_555 1_555
O3 S1 1_555 1_555
N1 Zn1 1_555 1_555
C1 N1 1_555 1_555
H1 C1 1_555 1_555
C2 N1 1_555 1_555
H2 C2 1_555 1_555
C3 C2 1_555 1_555
H3 C3 1_555 1_555
C4 C3 1_555 1_555
H4 C4 1_555 1_555
C5 C1 1_555 1_555
H5 C5 1_555 1_555
Zn1B O2 1_555 1_555
Zn1B_2 O3 1_555 1_555
O2B Zn1 1_555 1_555
O3B Zn1 1_555 1_555
C4 C5 1_555 1_555

#END
