
#######################################################################
#
#                 Cambridge Crystallographic Data Centre
#                                CCDC 
#
#######################################################################
#
# If this CIF has been generated from an entry in the Cambridge 
# Structural Database, then it will include bibliographic, chemical, 
# crystal, experimental, refinement or atomic coordinate data resulting 
# from the CCDC's data processing and validation procedures.
#
#######################################################################

data_TIMBIB
_symmetry_cell_setting           monoclinic
_symmetry_space_group_name_H-M   'P 21/n'
_symmetry_Int_Tables_number      14
_space_group_name_Hall           '-P 2yn'
loop_
_symmetry_equiv_pos_site_id
_symmetry_equiv_pos_as_xyz
1 x,y,z
2 1/2-x,1/2+y,1/2-z
3 -x,-y,-z
4 1/2+x,1/2-y,1/2+z
_cell_length_a                   7.9230(8)
_cell_length_b                   13.3793(13)
_cell_length_c                   17.4141(18)
_cell_angle_alpha                90
_cell_angle_beta                 96.006(2)
_cell_angle_gamma                90
_cell_volume                     1835.84
loop_
_atom_site_label
_atom_site_type_symbol
_atom_site_fract_x
_atom_site_fract_y
_atom_site_fract_z
U1 U -0.523820(17) 0.261970(10) 0.015860(9)
U2 U 0.272830(17) -0.026320(10) 0.001610(8)
O1 O 0.2318(4) -0.0160(2) -0.10058(18)
O2 O 0.0348(3) 0.0980(2) 0.00898(18)
O3 O -0.7111(4) -0.0380(2) 0.10428(18)
O4 O -0.4649(4) 0.2711(2) 0.11710(18)
O5 O -0.5844(4) 0.2640(2) -0.0850(2)
O6 O -0.6732(4) 0.4258(2) 0.0167(2)
O7 O -0.3448(4) 0.4094(2) -0.0039(2)
C1 C -0.9458(5) 0.1872(3) 0.0333(2)
O8 O -0.2478(3) 0.2040(2) 0.00680(17)
O9 O -0.5317(3) 0.0960(2) 0.01030(17)
O10 O -0.8051(4) 0.2285(2) 0.0483(2)
C10 C -0.5940(5) 0.5045(3) 0.0055(3)
C11 C -0.1028(5) 0.2445(3) 0.0483(3)
H21 H -0.0905 0.3138 0.0335
H22 H -0.1157 0.2428 0.1031
U1B U -0.476180(17) 0.738030(10) -0.015860(9)
U1_2 U -1.523820(17) 0.261970(10) 0.015860(9)
U1B_2 U 0.523820(17) -0.261970(10) -0.015860(9)
U1_3 U 0.476180(17) 0.261970(10) 0.015860(9)
U2B U -0.272830(17) 0.026320(10) -0.001610(8)
U2_2 U -0.727170(17) -0.026320(10) 0.001610(8)
U2B_2 U -1.272830(17) 0.026320(10) -0.001610(8)
U2B_3 U 0.727170(17) 0.026320(10) -0.001610(8)
O1_2 O -0.7682(4) -0.0160(2) -0.10058(18)
O2B O -0.0348(3) -0.0980(2) -0.00898(18)
O2_2 O -0.9652(3) 0.0980(2) 0.00898(18)
O2B_2 O -1.0348(3) -0.0980(2) -0.00898(18)
O3_2 O 0.2889(4) -0.0380(2) 0.10428(18)
O4B O -0.5351(4) 0.7289(2) -0.11710(18)
O5B O -0.4156(4) 0.7360(2) 0.0850(2)
O6B O -0.3268(4) 0.5742(2) -0.0167(2)
O7B O -0.6552(4) 0.5906(2) 0.0039(2)
C1_2 C 0.0542(5) 0.1872(3) 0.0333(2)
O8_2 O -1.2478(3) 0.2040(2) 0.00680(17)
O8B O -0.7522(3) -0.2040(2) -0.00680(17)
O8B_2 O 0.2478(3) -0.2040(2) -0.00680(17)
O8B_3 O -0.7522(3) 0.7960(2) -0.00680(17)
O9B O -0.4683(3) -0.0960(2) -0.01030(17)
O9B_2 O 0.5317(3) -0.0960(2) -0.01030(17)
O9_2 O 0.4683(3) 0.0960(2) 0.01030(17)
O9B_3 O -0.4683(3) 0.9040(2) -0.01030(17)
O10B O -0.1949(4) 0.7715(2) -0.0483(2)
O10_2 O 0.1949(4) 0.2285(2) 0.0483(2)
C10B C -0.4060(5) 0.4955(3) -0.0055(3)
C11_2 C -1.1028(5) 0.2445(3) 0.0483(3)
H21_2 H -1.0905 0.3138 0.0335
H22_2 H -1.1157 0.2428 0.1031
N1 N -0.5468(5) 0.1074(3) 0.2988(2)
C2 C -0.6970(6) 0.1401(4) 0.2432(3)
H1 H -0.6593 0.1922 0.2101
H2 H -0.7336 0.0838 0.2105
C3 C -0.4106(7) 0.0732(4) 0.2492(3)
H3 H -0.4595 0.0231 0.2132
H4 H -0.3782 0.1297 0.2191
C4 C -0.4846(7) 0.1927(4) 0.3511(3)
H5 H -0.3883 0.1693 0.3854
H6 H -0.5738 0.2100 0.3829
C5 C -0.5960(9) 0.0237(5) 0.3509(3)
H7 H -0.4966 0.0045 0.3850
H8 H -0.6798 0.0490 0.3828
C6 C -0.4317(9) 0.2872(5) 0.3110(4)
H9 H -0.3946 0.3366 0.3491
H10 H -0.5267 0.3127 0.2780
H11 H -0.3407 0.2719 0.2807
C7 C -0.2518(9) 0.0300(5) 0.2928(4)
H12 H -0.1739 0.0106 0.2568
H13 H -0.2812 -0.0274 0.3216
H14 H -0.1997 0.0794 0.3275
C8 C -0.8477(8) 0.1788(6) 0.2806(4)
H15 H -0.9359 0.1979 0.2413
H16 H -0.8140 0.2357 0.3121
H17 H -0.8890 0.1272 0.3121
C9 C -0.6668(12) -0.0678(5) 0.3090(4)
H18 H -0.6932 -0.1172 0.3458
H19 H -0.5843 -0.0942 0.2778
H20 H -0.7680 -0.0503 0.2766
loop_
_geom_bond_atom_site_label_1
_geom_bond_atom_site_label_2
_geom_bond_site_symmetry_1
_geom_bond_site_symmetry_2
U1 O4 1_555 1_555
U2 O1 1_555 1_555
O2 U2 1_555 1_555
O3 U2_2 1_555 1_555
O5 U1 1_555 1_555
O6 U1 1_555 1_555
O7 U1 1_555 1_555
C1 O10 1_555 1_555
O8 U1 1_555 1_555
O9 U1 1_555 1_555
O10 U1 1_555 1_555
N1 C2 1_555 1_555
C2 H1 1_555 1_555
H2 C2 1_555 1_555
C3 N1 1_555 1_555
H3 C3 1_555 1_555
H4 C3 1_555 1_555
C4 N1 1_555 1_555
H5 C4 1_555 1_555
H6 C4 1_555 1_555
C5 N1 1_555 1_555
H7 C5 1_555 1_555
H8 C5 1_555 1_555
C6 C4 1_555 1_555
H9 C6 1_555 1_555
H10 C6 1_555 1_555
H11 C6 1_555 1_555
C7 C3 1_555 1_555
H12 C7 1_555 1_555
H13 C7 1_555 1_555
H14 C7 1_555 1_555
C8 C2 1_555 1_555
H15 C8 1_555 1_555
H16 C8 1_555 1_555
H17 C8 1_555 1_555
C9 C5 1_555 1_555
H18 C9 1_555 1_555
H19 C9 1_555 1_555
H20 C9 1_555 1_555
C10 O6 1_555 1_555
C11 O8 1_555 1_555
H21 C11 1_555 1_555
H22 C11 1_555 1_555
U1B O4B 1_555 1_555
U1_2 O8_2 1_555 1_555
U1B_2 O8B_2 1_555 1_555
U1_3 O9_2 1_555 1_555
U2B O2 1_555 1_555
U2_2 O9 1_555 1_555
U2B_2 O2_2 1_555 1_555
U2B_3 O9B_2 1_555 1_555
O1_2 U2_2 1_555 1_555
O2B U2 1_555 1_555
O2_2 C1 1_555 1_555
O2B_2 U2_2 1_555 1_555
O3_2 U2 1_555 1_555
O5B U1B 1_555 1_555
O6B U1B 1_555 1_555
O7B C10 1_555 1_555
C1_2 O2 1_555 1_555
O8_2 U2B_2 1_555 1_555
O8B U2_2 1_555 1_555
O8B_2 U2 1_555 1_555
O8B_3 U1B 1_555 1_555
O9B U2B 1_555 1_555
O9B_2 U2 1_555 1_555
O9_2 U2 1_555 1_555
O9B_3 U1B 1_555 1_555
O10B U1B 1_555 1_555
O10_2 U1_3 1_555 1_555
C10B O7 1_555 1_555
C11_2 C1 1_555 1_555
H21_2 C11_2 1_555 1_555
H22_2 C11_2 1_555 1_555
O8 U2B 1_555 1_555
O9 U2B 1_555 1_555
C10 C10B 1_555 1_555
C11 C1_2 1_555 1_555
U1B O7B 1_555 1_555
U1B_2 O9B_2 1_555 1_555
U2B O2B 1_555 1_555
U2_2 O2_2 1_555 1_555
U2_2 O9B 1_555 1_555
U2B_2 O2B_2 1_555 1_555
U2B_3 O9_2 1_555 1_555
O6B C10B 1_555 1_555
C1_2 O10_2 1_555 1_555
O8_2 C11_2 1_555 1_555

#END
