
#######################################################################
#
#                 Cambridge Crystallographic Data Centre
#                                CCDC 
#
#######################################################################
#
# If this CIF has been generated from an entry in the Cambridge 
# Structural Database, then it will include bibliographic, chemical, 
# crystal, experimental, refinement or atomic coordinate data resulting 
# from the CCDC's data processing and validation procedures.
#
#######################################################################

data_TIMBOH
_symmetry_cell_setting           monoclinic
_symmetry_space_group_name_H-M   'P 21/n'
_symmetry_Int_Tables_number      14
_space_group_name_Hall           '-P 2yn'
loop_
_symmetry_equiv_pos_site_id
_symmetry_equiv_pos_as_xyz
1 x,y,z
2 1/2-x,1/2+y,1/2-z
3 -x,-y,-z
4 1/2+x,1/2-y,1/2+z
_cell_length_a                   16.0957(2)
_cell_length_b                   14.28689(13)
_cell_length_c                   18.47870(16)
_cell_angle_alpha                90
_cell_angle_beta                 94.5153(12)
_cell_angle_gamma                90
_cell_volume                     4236.13
loop_
_atom_site_label
_atom_site_type_symbol
_atom_site_fract_x
_atom_site_fract_y
_atom_site_fract_z
Tb1 Tb 0.306256(10) 0.362655(13) 0.081132(9)
N1 N 0.23855(19) 0.3821(2) -0.05475(16)
N2 N 0.34388(19) 0.5060(2) 0.01388(16)
N3 N 0.36388(18) 0.2572(2) -0.00864(17)
O1 O 0.42864(16) 0.4359(2) 0.12679(14)
O2 O 0.52523(17) 0.5490(2) 0.12822(15)
O3 O 0.39024(17) 0.2429(2) 0.13353(14)
O4 O 0.46183(19) 0.1099(2) 0.12617(16)
C1 C 0.1048(2) 0.3432(3) -0.1329(2)
H1 H 0.1372 0.3319 -0.1754
H2 H 0.0859 0.4092 -0.1346
C2 C 0.1602(2) 0.3261(3) -0.0630(2)
H3 H 0.1273 0.3397 -0.0212
H4 H 0.1752 0.2589 -0.0606
C3 C 0.2203(2) 0.4824(3) -0.0672(2)
H5 H 0.1725 0.5012 -0.0399
H6 H 0.2051 0.4934 -0.1195
C4 C 0.2959(2) 0.5407(3) -0.0426(2)
C5 C 0.3150(3) 0.6233(3) -0.0764(2)
H7 H 0.2799 0.6465 -0.1161
C6 C 0.3859(3) 0.6720(3) -0.0515(2)
H8 H 0.4002 0.7289 -0.0739
C7 C 0.4359(3) 0.6360(3) 0.0070(2)
H9 H 0.4852 0.6677 0.0250
C8 C 0.4124(2) 0.5535(3) 0.0380(2)
C9 C 0.4603(2) 0.5101(3) 0.1029(2)
C10 C 0.2990(2) 0.3516(3) -0.1069(2)
H10 H 0.3373 0.4040 -0.1153
H11 H 0.2682 0.3363 -0.1539
C11 C 0.3495(2) 0.2678(3) -0.08095(19)
C12 C 0.3861(3) 0.2090(3) -0.1294(2)
H12 H 0.3753 0.2176 -0.1802
C13 C 0.4381(3) 0.1379(3) -0.1030(2)
H13 H 0.4645 0.0980 -0.1353
C14 C 0.4510(3) 0.1259(3) -0.0282(2)
H14 H 0.4861 0.0771 -0.0086
C15 C 0.4123(2) 0.1855(3) 0.0170(2)
C16 C 0.4232(2) 0.1775(3) 0.0993(2)
N4 N -0.1051(2) 0.2479(2) -0.21639(18)
H15 H -0.127(3) 0.264(3) -0.260(3)
N5 N -0.22808(19) 0.0878(2) -0.28391(16)
N6 N -0.2571(2) 0.2964(2) -0.26815(17)
O5 O -0.31236(17) 0.0505(2) -0.41151(15)
O6 O -0.42723(18) 0.0133(2) -0.35948(16)
O7 O -0.28620(18) 0.2588(2) -0.41353(15)
O8 O -0.3952(2) 0.3514(3) -0.41760(19)
C17 C 0.0288(2) 0.2781(3) -0.1366(2)
H16 H 0.0470 0.2121 -0.1314
H17 H -0.0069 0.2929 -0.0968
C18 C -0.0198(2) 0.2928(3) -0.2099(2)
H18 H -0.0262 0.3608 -0.2187
H19 H 0.0132 0.2670 -0.2483
C19 C -0.0988(2) 0.1425(3) -0.2172(2)
H20 H -0.0646 0.1216 -0.1733
H21 H -0.0701 0.1229 -0.2602
C20 C -0.1832(2) 0.0952(3) -0.2193(2)
C21 C -0.2112(3) 0.0621(3) -0.1552(2)
H22 H -0.1765 0.0654 -0.1112
C22 C -0.2902(3) 0.0242(3) -0.1556(2)
H23 H -0.3110 0.0022 -0.1120
C23 C -0.3384(3) 0.0188(3) -0.2209(2)
H24 H -0.3935 -0.0055 -0.2227
C24 C -0.3049(2) 0.0496(3) -0.2834(2)
C25 C -0.3527(2) 0.0383(3) -0.3569(2)
C26 C -0.1607(2) 0.2857(3) -0.1622(2)
H25 H -0.1416 0.3488 -0.1465
H26 H -0.1583 0.2445 -0.1190
C27 C -0.2496(2) 0.2909(3) -0.1962(2)
C28 C -0.3171(3) 0.2899(3) -0.1538(2)
H27 H -0.3094 0.2837 -0.1025
C29 C -0.3963(3) 0.2982(3) -0.1890(3)
H28 H -0.4441 0.2982 -0.1619
C30 C -0.4051(3) 0.3066(3) -0.2637(2)
H29 H -0.4586 0.3137 -0.2887
C31 C -0.3338(2) 0.3044(3) -0.3016(2)
C32 C -0.3391(3) 0.3050(3) -0.3841(2)
Tb1C Tb -0.193744(10) 0.137345(13) -0.418868(9)
N5C N 0.27192(19) 0.4122(2) 0.21609(16)
O5C O 0.18764(17) 0.4495(2) 0.08849(15)
O7C O 0.21380(18) 0.2412(2) 0.08647(15)
O9 O -0.2896(4) 0.0667(5) 0.0243(3)
H30 H -0.243(4) 0.134(5) 0.024(3)
H38 H -0.316(7) 0.066(8) 0.076(7)
O10 O 0.7191(3) 0.2435(3) 0.2217(2)
H35 H 0.698(5) 0.297(5) 0.250(4)
O11 O 0.8143(3) 0.8900(3) 0.1917(2)
O12 O 0.6825(3) 0.9842(3) 0.2481(2)
O13 O 0.6299(3) 0.1108(3) 0.1480(3)
H36 H 0.628(2) 0.053(2) 0.1866(18)
O14 O -0.0052(3) 0.0106(3) 0.1108(3)
H33 H -0.039(4) 0.034(4) 0.149(3)
O15 O 0.8744(3) 0.2196(4) 0.1773(3)
H34 H 0.805(9) 0.204(10) 0.194(7)
H37 H 0.884(5) 0.288(6) 0.181(4)
O16 O 0.9134(2) 0.0402(3) 0.23190(19)
O17 O 0.9517(3) 0.3890(4) 0.2151(3)
H31 H 0.922(3) 0.438(3) 0.225(2)
H32 H 0.986(5) 0.421(6) 0.182(5)
O18 O 0.0498(6) 0.7292(9) -0.0574(6)
O19 O 0.0244(5) 0.5583(6) -0.0099(4)
O20 O -0.0265(6) 0.1340(7) -0.0272(5)
H39 H -0.052(8) 0.070(10) -0.011(7)
O21 O -0.1683(8) -0.0728(5) 0.0451(3)
O22 O -0.1584(8) 0.1900(11) 0.0156(5)
loop_
_geom_bond_atom_site_label_1
_geom_bond_atom_site_label_2
_geom_bond_site_symmetry_1
_geom_bond_site_symmetry_2
Tb1 N1 1_555 1_555
N1 C2 1_555 1_555
N2 Tb1 1_555 1_555
N3 Tb1 1_555 1_555
O1 Tb1 1_555 1_555
O2 C9 1_555 1_555
O3 Tb1 1_555 1_555
O4 C16 1_555 1_555
C1 H1 1_555 1_555
H2 C1 1_555 1_555
C2 C1 1_555 1_555
H3 C2 1_555 1_555
H4 C2 1_555 1_555
C3 N1 1_555 1_555
H5 C3 1_555 1_555
H6 C3 1_555 1_555
C4 N2 1_555 1_555
C5 C4 1_555 1_555
H7 C5 1_555 1_555
C6 C5 1_555 1_555
H8 C6 1_555 1_555
C7 C6 1_555 1_555
H9 C7 1_555 1_555
C8 N2 1_555 1_555
C9 O1 1_555 1_555
C10 N1 1_555 1_555
H10 C10 1_555 1_555
H11 C10 1_555 1_555
C11 N3 1_555 1_555
C12 C11 1_555 1_555
H12 C12 1_555 1_555
C13 C12 1_555 1_555
H13 C13 1_555 1_555
C14 C13 1_555 1_555
H14 C14 1_555 1_555
C15 N3 1_555 1_555
C16 O3 1_555 1_555
N4 H15 1_555 1_555
N5 C20 1_555 1_555
N6 C27 1_555 1_555
O5 C25 1_555 1_555
O6 C25 1_555 1_555
O7 C32 1_555 1_555
O8 C32 1_555 1_555
C17 C1 1_555 1_555
H16 C17 1_555 1_555
H17 C17 1_555 1_555
C18 N4 1_555 1_555
H18 C18 1_555 1_555
H19 C18 1_555 1_555
C19 N4 1_555 1_555
H20 C19 1_555 1_555
H21 C19 1_555 1_555
C20 C19 1_555 1_555
C21 C20 1_555 1_555
H22 C21 1_555 1_555
C22 C21 1_555 1_555
H23 C22 1_555 1_555
C23 C22 1_555 1_555
H24 C23 1_555 1_555
C24 N5 1_555 1_555
C25 C24 1_555 1_555
C26 N4 1_555 1_555
H25 C26 1_555 1_555
H26 C26 1_555 1_555
C27 C26 1_555 1_555
C28 C27 1_555 1_555
H27 C28 1_555 1_555
C29 C28 1_555 1_555
H28 C29 1_555 1_555
C30 C29 1_555 1_555
H29 C30 1_555 1_555
C31 N6 1_555 1_555
C32 C31 1_555 1_555
O9 H30 1_555 1_555
O10 H35 1_555 1_555
O13 H36 1_555 1_555
O14 H33 1_555 1_555
O15 H34 1_555 1_555
O17 H31 1_555 1_555
O20 H39 1_555 1_555
H32 O17 1_555 1_555
H37 O15 1_555 1_555
H38 O9 1_555 1_555
Tb1C N5 1_555 1_555
N5C Tb1 1_555 1_555
O5C Tb1 1_555 1_555
O7C Tb1 1_555 1_555
C3 C4 1_555 1_555
C7 C8 1_555 1_555
C8 C9 1_555 1_555
C10 C11 1_555 1_555
C14 C15 1_555 1_555
C15 C16 1_555 1_555
O5 Tb1C 1_555 1_555
O7 Tb1C 1_555 1_555
C17 C18 1_555 1_555
C23 C24 1_555 1_555
C30 C31 1_555 1_555

#END
