
#######################################################################
#
#                 Cambridge Crystallographic Data Centre
#                                CCDC 
#
#######################################################################
#
# If this CIF has been generated from an entry in the Cambridge 
# Structural Database, then it will include bibliographic, chemical, 
# crystal, experimental, refinement or atomic coordinate data resulting 
# from the CCDC's data processing and validation procedures.
#
#######################################################################

data_TIMCUS01
_symmetry_cell_setting           monoclinic
_symmetry_space_group_name_H-M   'P 21/n'
_symmetry_Int_Tables_number      14
_space_group_name_Hall           '-P 2yn'
loop_
_symmetry_equiv_pos_site_id
_symmetry_equiv_pos_as_xyz
1 x,y,z
2 1/2-x,1/2+y,1/2-z
3 -x,-y,-z
4 1/2+x,1/2-y,1/2+z
_cell_length_a                   11.723(2)
_cell_length_b                   8.6507(16)
_cell_length_c                   13.839(3)
_cell_angle_alpha                90
_cell_angle_beta                 91.703(4)
_cell_angle_gamma                90
_cell_volume                     1402.82
loop_
_atom_site_label
_atom_site_type_symbol
_atom_site_fract_x
_atom_site_fract_y
_atom_site_fract_z
Cu1 Cu 0.57914(5) 0.65540(7) 0.78070(5)
S1 S 0.75828(10) 0.42368(13) 0.89478(9)
N1 N 0.5413(3) 0.4833(5) 0.6890(3)
N2 N 0.5529(4) 0.2684(5) 0.6080(3)
H1 H 0.5787 0.1816 0.5876
N3 N 0.6126(3) 0.8189(4) 0.8780(3)
N4 N 0.6452(4) 1.0452(5) 0.9431(3)
H2 H 0.6556 1.1432 0.9487
N5 N 0.4393(3) 0.7708(5) 0.7372(3)
N6 N 0.3232(4) 0.8996(6) 0.6433(3)
H3 H 0.2988 0.9545 0.5952
O1 O 0.7216(3) 0.5462(4) 0.8261(2)
O2 O 0.8001(3) 0.2913(4) 0.8422(2)
O3 O 0.6625(3) 0.3760(4) 0.9543(3)
O4 O 0.8479(3) 0.4885(4) 0.9583(2)
O5 O 0.4598(6) 0.5072(9) 0.9009(5)
H4 H 0.5159 0.4933 0.9367
H5 H 0.4013 0.5189 0.9344
C1 C 0.6028(4) 0.3574(6) 0.6748(4)
H6 H 0.6714 0.3345 0.7072
C2 C 0.4540(5) 0.3373(6) 0.5770(4)
H7 H 0.4019 0.2995 0.5309
C3 C 0.4466(4) 0.4707(6) 0.6260(4)
H8 H 0.3881 0.5427 0.6191
C4 C 0.6208(5) 0.9693(7) 0.8626(4)
H9 H 0.6105 1.0158 0.8024
C5 C 0.6510(5) 0.9406(7) 1.0148(4)
H10 H 0.6656 0.9609 1.0800
C6 C 0.6319(4) 0.8029(6) 0.9752(4)
H11 H 0.6316 0.7097 1.0087
C7 C 0.4301(4) 0.8521(6) 0.6593(4)
H12 H 0.4904 0.8747 0.6195
C8 C 0.2604(5) 0.8462(7) 0.7158(5)
H13 H 0.1827 0.8613 0.7236
C9 C 0.3323(4) 0.7662(7) 0.7753(4)
H14 H 0.3129 0.7167 0.8321
Cu1A Cu 0.92086(5) 0.15540(7) 0.71930(5)
O2A O 0.6999(3) 0.7913(4) 0.6578(2)
loop_
_geom_bond_atom_site_label_1
_geom_bond_atom_site_label_2
_geom_bond_site_symmetry_1
_geom_bond_site_symmetry_2
Cu1 N1 1_555 1_555
S1 O1 1_555 1_555
N1 C1 1_555 1_555
N2 H1 1_555 1_555
N3 Cu1 1_555 1_555
N4 H2 1_555 1_555
N5 Cu1 1_555 1_555
N6 H3 1_555 1_555
O1 Cu1 1_555 1_555
O2 S1 1_555 1_555
O3 S1 1_555 1_555
O4 S1 1_555 1_555
O5 Cu1 1_555 1_555
H4 O5 1_555 1_555
H5 O5 1_555 1_555
C1 N2 1_555 1_555
H6 C1 1_555 1_555
C2 N2 1_555 1_555
H7 C2 1_555 1_555
C3 N1 1_555 1_555
H8 C3 1_555 1_555
C4 N3 1_555 1_555
H9 C4 1_555 1_555
C5 N4 1_555 1_555
H10 C5 1_555 1_555
C6 N3 1_555 1_555
H11 C6 1_555 1_555
C7 N5 1_555 1_555
H12 C7 1_555 1_555
C8 N6 1_555 1_555
H13 C8 1_555 1_555
C9 N5 1_555 1_555
H14 C9 1_555 1_555
Cu1A O2 1_555 1_555
O2A Cu1 1_555 1_555
N4 C4 1_555 1_555
N6 C7 1_555 1_555
C2 C3 1_555 1_555
C5 C6 1_555 1_555
C8 C9 1_555 1_555

#END
