
#######################################################################
#
#                 Cambridge Crystallographic Data Centre
#                                CCDC 
#
#######################################################################
#
# If this CIF has been generated from an entry in the Cambridge 
# Structural Database, then it will include bibliographic, chemical, 
# crystal, experimental, refinement or atomic coordinate data resulting 
# from the CCDC's data processing and validation procedures.
#
#######################################################################

data_TIMJAA01
_symmetry_cell_setting           orthorhombic
_symmetry_space_group_name_H-M   'P b c a'
_symmetry_Int_Tables_number      61
_space_group_name_Hall           '-P 2ac 2ab'
loop_
_symmetry_equiv_pos_site_id
_symmetry_equiv_pos_as_xyz
1 x,y,z
2 1/2-x,-y,1/2+z
3 1/2+x,1/2-y,-z
4 -x,1/2+y,1/2-z
5 -x,-y,-z
6 1/2+x,y,1/2-z
7 1/2-x,1/2+y,z
8 x,1/2-y,1/2+z
_cell_length_a                   10.905(2)
_cell_length_b                   13.211(2)
_cell_length_c                   15.543(2)
_cell_angle_alpha                90
_cell_angle_beta                 90
_cell_angle_gamma                90
_cell_volume                     2239.22
loop_
_atom_site_label
_atom_site_type_symbol
_atom_site_fract_x
_atom_site_fract_y
_atom_site_fract_z
N1 N 0.0633(1) 0.0887(1) 0.0757(1)
O1 O 0.1867(2) 0.1870(1) -0.1170(1)
O2 O 0.0848(2) 0.3189(1) -0.1584(1)
O3 O 0.1297(2) 0.2983(2) -0.0250(1)
N2 N 0.3496(2) 0.2739(1) 0.0951(1)
O4 O 0.3759(2) 0.2559(1) 0.0181(1)
O5 O 0.2818(2) 0.2102(1) 0.1321(1)
O6 O 0.3884(2) 0.3494(1) 0.1313(1)
Mn1 Mn 0.2498(1) 0.1150(1) 0.0031(1)
H1 H 0.083 0.183 0.175
H2 H -0.118 0.166 0.228
H3 H -0.252 0.057 0.156
H4 H -0.275 0.021 -0.181
H5 H -0.420 0.118 -0.256
C1 C 0.0261(2) 0.1393(2) 0.1459(1)
C2 C -0.0919(2) 0.1297(2) 0.1776(1)
C3 C -0.1702(2) 0.0655(2) 0.1345(1)
N3 N 0.1358(1) -0.0148(1) -0.0641(1)
C4 C -0.0202(2) 0.0285(1) 0.0385(1)
C5 C -0.3537(2) 0.0341(2) -0.1553(1)
N4 N 0.3770(2) 0.0030(1) 0.0769(1)
C6 C -0.4386(2) 0.0905(2) -0.2003(1)
C7 C -0.5509(2) 0.1056(2) -0.1622(1)
C8 C -0.5128(2) -0.0184(1) 0.0443(1)
N5 N 0.4234(1) 0.0700(1) -0.0830(1)
N6 N 0.1324(2) 0.2697(1) -0.1002(1)
H6 H -0.387 -0.142 0.193
C3D C 0.1702(2) -0.0655(2) -0.1345(1)
H3D H 0.252 -0.057 -0.156
C2D C 0.0919(2) -0.1297(2) -0.1776(1)
H2D H 0.118 -0.166 -0.228
C1D C -0.0261(2) -0.1393(2) -0.1459(1)
N1D N -0.0633(1) -0.0887(1) -0.0757(1)
Mn1D Mn -0.2498(1) -0.1150(1) -0.0031(1)
O1D O -0.1867(2) -0.1870(1) 0.1170(1)
N6D N -0.1324(2) -0.2697(1) 0.1002(1)
O2D O -0.0848(2) -0.3189(1) 0.1584(1)
O3D O -0.1297(2) -0.2983(2) 0.0250(1)
O4D O -0.3759(2) -0.2559(1) -0.0181(1)
N2D N -0.3496(2) -0.2739(1) -0.0951(1)
O5D O -0.2818(2) -0.2102(1) -0.1321(1)
N3D N -0.1358(1) 0.0148(1) 0.0641(1)
C4D C 0.0202(2) -0.0285(1) -0.0385(1)
N4D N -0.3770(2) -0.0030(1) -0.0769(1)
N5_2 N -0.5766(1) 0.0700(1) -0.0830(1)
Mn1_2 Mn -0.7502(1) 0.1150(1) 0.0031(1)
N4_2 N -0.6230(2) 0.0030(1) 0.0769(1)
C5D C -0.6463(2) -0.0341(2) 0.1553(1)
H4D H -0.725 -0.021 0.181
C6D C -0.5614(2) -0.0905(2) 0.2003(1)
H5D H -0.580 -0.118 0.256
C7D C -0.4491(2) -0.1056(2) 0.1622(1)
N5D N -0.4234(1) -0.0700(1) 0.0830(1)
C8D C -0.4872(2) 0.0184(1) -0.0443(1)
H6D H -0.613 0.142 -0.193
O6D O -0.3884(2) -0.3494(1) -0.1313(1)
H1D H -0.083 -0.183 -0.175
loop_
_geom_bond_atom_site_label_1
_geom_bond_atom_site_label_2
_geom_bond_site_symmetry_1
_geom_bond_site_symmetry_2
N1 Mn1 1_555 1_555
O1 Mn1 1_555 1_555
O2 N6 1_555 1_555
O3 N6 1_555 1_555
N2 O4 1_555 1_555
O4 Mn1 1_555 1_555
O5 N2 1_555 1_555
O6 N2 1_555 1_555
Mn1 O5 1_555 1_555
H1 C1 1_555 1_555
H2 C2 1_555 1_555
H3 C3 1_555 1_555
H4 C5 1_555 1_555
H5 C6 1_555 1_555
C1 N1 1_555 1_555
C2 C1 1_555 1_555
C3 C2 1_555 1_555
N3 Mn1 1_555 1_555
C4 N1 1_555 1_555
C5 C6 1_555 1_555
N4 Mn1 1_555 1_555
C6 C7 1_555 1_555
C7 N5_2 1_555 1_555
C8 N4_2 1_555 1_555
N5 Mn1 1_555 1_555
N6 O1 1_555 1_555
H6 C7D 1_555 1_555
C3D N3 1_555 1_555
H3D C3D 1_555 1_555
C2D C3D 1_555 1_555
H2D C2D 1_555 1_555
C1D C2D 1_555 1_555
N1D C1D 1_555 1_555
Mn1D N1D 1_555 1_555
O1D Mn1D 1_555 1_555
N6D O1D 1_555 1_555
O2D N6D 1_555 1_555
O3D N6D 1_555 1_555
O4D Mn1D 1_555 1_555
N2D O4D 1_555 1_555
O5D Mn1D 1_555 1_555
N3D C3 1_555 1_555
C4D N3 1_555 1_555
N4D C5 1_555 1_555
N5_2 Mn1_2 1_555 1_555
Mn1_2 N4_2 1_555 1_555
N4_2 C5D 1_555 1_555
C5D H4D 1_555 1_555
C6D C5D 1_555 1_555
H5D C6D 1_555 1_555
C7D C6D 1_555 1_555
N5D C8 1_555 1_555
C8D C8 1_555 1_555
H6D C7 1_555 1_555
O6D N2D 1_555 1_555
H1D C1D 1_555 1_555
C4 C4D 1_555 1_555
C4 N3D 1_555 1_555
N1D C4D 1_555 1_555
Mn1D N3D 1_555 1_555
Mn1D N4D 1_555 1_555
Mn1D N5D 1_555 1_555
N2D O5D 1_555 1_555
N4D C8D 1_555 1_555
N5_2 C8D 1_555 1_555
C7D N5D 1_555 1_555

#END
