
#######################################################################
#
#                 Cambridge Crystallographic Data Centre
#                                CCDC 
#
#######################################################################
#
# If this CIF has been generated from an entry in the Cambridge 
# Structural Database, then it will include bibliographic, chemical, 
# crystal, experimental, refinement or atomic coordinate data resulting 
# from the CCDC's data processing and validation procedures.
#
#######################################################################

data_TIMKOP
_symmetry_cell_setting           orthorhombic
_symmetry_space_group_name_H-M   'F d d d'
_symmetry_Int_Tables_number      70
_space_group_name_Hall           '-F 2uv 2vw'
loop_
_symmetry_equiv_pos_site_id
_symmetry_equiv_pos_as_xyz
1 x,y,z
2 1/4-x,1/4-y,z
3 x,1/4-y,1/4-z
4 1/4-x,y,1/4-z
5 x,1/2+y,1/2+z
6 1/4-x,3/4-y,1/2+z
7 x,3/4-y,3/4-z
8 1/4-x,1/2+y,3/4-z
9 1/2+x,y,1/2+z
10 3/4-x,1/4-y,1/2+z
11 1/2+x,1/4-y,3/4-z
12 3/4-x,y,3/4-z
13 1/2+x,1/2+y,z
14 3/4-x,3/4-y,z
15 1/2+x,3/4-y,1/4-z
16 3/4-x,1/2+y,1/4-z
17 -x,-y,-z
18 3/4+x,3/4+y,-z
19 -x,3/4+y,3/4+z
20 3/4+x,-y,3/4+z
21 -x,1/2-y,1/2-z
22 3/4+x,1/4+y,1/2-z
23 -x,1/4+y,1/4+z
24 3/4+x,1/2-y,1/4+z
25 1/2-x,-y,1/2-z
26 1/4+x,3/4+y,1/2-z
27 1/2-x,3/4+y,1/4+z
28 1/4+x,-y,1/4+z
29 1/2-x,1/2-y,-z
30 1/4+x,1/4+y,-z
31 1/2-x,1/4+y,3/4+z
32 1/4+x,1/2-y,3/4+z
_cell_length_a                   37.200(15)
_cell_length_b                   41.54(2)
_cell_length_c                   45.648(15)
_cell_angle_alpha                90
_cell_angle_beta                 90
_cell_angle_gamma                90
_cell_volume                     70539.3
loop_
_atom_site_label
_atom_site_type_symbol
_atom_site_fract_x
_atom_site_fract_y
_atom_site_fract_z
Cd1 Cd 0.1250 0.3717(1) 0.1250
Cd2 Cd 0.0201(1) 0.3721(1) 0.0968(1)
Cd3 Cd 0.0524(1) 0.3066(1) 0.1610(1)
Cd4 Cd 0.1415(1) 0.3726(1) 0.0372(1)
Cd5 Cd 0.1941(1) 0.4384(1) 0.0899(1)
Cd6 Cd 0.0837(1) 0.4482(1) 0.0740(1)
Cd7 Cd 0.1567(1) 0.4661(1) 0.0069(1)
Cd8 Cd 0.0876(1) 0.2950(1) 0.0755(1)
Cd9 Cd -0.0176(1) 0.2788(1) 0.0960(1)
S1 S 0.1353(2) 0.4086(2) 0.0818(2)
S2 S 0.0711(2) 0.3370(2) 0.1147(2)
S3 S 0.2438(2) 0.4000(2) 0.1041(2)
C1 C 0.2829(9) 0.4240(8) 0.1086(7)
C2 C 0.3148(9) 0.4057(9) 0.1169(7)
C3 C 0.3464(9) 0.4243(9) 0.1218(8)
C4 C 0.3447(10) 0.4573(9) 0.1196(8)
C5 C 0.3143(10) 0.4723(10) 0.1143(7)
C6 C 0.2832(11) 0.4564(9) 0.1109(7)
S4 S 0.2026(2) 0.3464(2) 0.0474(2)
C7 C 0.2139(9) 0.3255(8) 0.0147(7)
C8 C 0.2236(12) 0.3448(13) -0.0106(11)
C9 C 0.2299(11) 0.3285(12) -0.0362(11)
C10 C 0.2291(11) 0.2962(11) -0.0371(10)
C11 C 0.2239(11) 0.2781(11) -0.0137(10)
C12 C 0.2136(9) 0.2916(8) 0.0130(8)
S5 S 0.1747(2) 0.4792(2) 0.1289(2)
C13 C 0.2094(10) 0.5097(9) 0.1330(9)
C14 C 0.2281(10) 0.5122(9) 0.1586(9)
C15 C 0.2565(11) 0.5387(10) 0.1588(10)
C16 C 0.2609(13) 0.5554(11) 0.1352(10)
C17 C 0.2430(14) 0.5531(14) 0.1113(12)
C18 C 0.2165(11) 0.5262(10) 0.1076(10)
S6 S 0.0981(2) 0.4843(2) 0.0303(2)
C19 C 0.1037(10) 0.5230(9) 0.0474(8)
C20 C 0.1258(12) 0.5300(11) 0.0674(9)
C21 C 0.1294(13) 0.5588(12) 0.0840(11)
C22 C 0.1075(12) 0.5823(12) 0.0719(10)
C23 C 0.0835(13) 0.5781(13) 0.0511(11)
C24 C 0.0818(12) 0.5470(11) 0.0363(10)
S7 S 0.0347(2) 0.4101(2) 0.0557(2)
C25 C -0.0043(9) 0.4332(8) 0.0506(7)
C26 C -0.0004(12) 0.4606(10) 0.0313(9)
C27 C -0.0329(14) 0.4780(12) 0.0273(10)
C28 C -0.0646(13) 0.4721(12) 0.0397(9)
C29 C -0.0674(11) 0.4451(9) 0.0553(8)
C30 C -0.0374(10) 0.4277(9) 0.0611(8)
S8 S -0.0350(2) 0.3372(2) 0.0883(2)
C31 C -0.0461(10) 0.3378(8) 0.0502(8)
C32 C -0.0844(12) 0.3391(10) 0.0444(10)
C33 C -0.0906(13) 0.3382(10) 0.0147(10)
C34 C -0.0694(13) 0.3378(11) -0.0086(11)
C35 C -0.0313(14) 0.3371(11) -0.0014(11)
C36 C -0.0253(13) 0.3379(10) 0.0260(10)
S9 S 0.1049(2) 0.2669(2) 0.1610(2)
C37 C 0.0970(8) 0.2368(8) 0.1879(7)
C38 C 0.1055(11) 0.2394(11) 0.2143(10)
C39 C 0.0991(12) 0.2138(12) 0.2354(11)
C40 C 0.0826(14) 0.1879(14) 0.2288(13)
C41 C 0.0760(14) 0.1840(15) 0.2017(13)
C42 C 0.0802(12) 0.2095(12) 0.1790(12)
S10 S 0.2072(3) 0.4718(2) 0.0445(2)
C43 C 0.2434(10) 0.4543(10) 0.0282(8)
C44 C 0.2521(12) 0.4243(11) 0.0282(9)
C45 C 0.2830(14) 0.4078(13) 0.0174(10)
C46 C 0.3083(15) 0.4288(14) 0.0056(11)
C47 C 0.3039(14) 0.4597(13) 0.0087(10)
C48 C 0.2727(15) 0.4742(15) 0.0181(11)
S11 S 0.0873(2) 0.3360(2) 0.0330(2)
C49 C 0.0925(10) 0.3147(8) -0.0024(7)
C50 C 0.1223(13) 0.3128(9) -0.0148(9)
C51 C 0.1267(15) 0.3001(11) -0.0430(11)
C52 C 0.0978(13) 0.2897(10) -0.0578(10)
C53 C 0.0682(13) 0.2938(10) -0.0446(10)
C54 C 0.0638(12) 0.3067(9) -0.0148(9)
S12 S -0.0030(2) 0.2726(2) 0.1513(2)
C55 C -0.0398(9) 0.2940(8) 0.1669(7)
C56 C -0.0689(8) 0.2746(8) 0.1741(6)
C57 C -0.0996(10) 0.2910(9) 0.1861(7)
C58 C -0.0988(10) 0.3235(9) 0.1906(7)
C59 C -0.0692(11) 0.3418(11) 0.1852(8)
C60 C -0.0410(8) 0.3267(7) 0.1709(6)
S13 S 0.0338(2) 0.2600(2) 0.0642(2)
C61 C 0.0398(12) 0.2202(10) 0.0753(9)
C62 C 0.0656(15) 0.2101(14) 0.0919(11)
C63 C 0.0720(20) 0.1761(18) 0.0978(14)
C64 C 0.0468(24) 0.1595(23) 0.0921(20)
C65 C 0.0229(20) 0.1614(20) 0.0694(16)
C66 C 0.0154(17) 0.1958(15) 0.0637(13)
S14 S 0.1504(3) 0.4066(2) -0.0087(2)
C67 C 0.1094(10) 0.3989(9) -0.0283(8)
C68 C 0.0786(10) 0.4093(9) -0.0161(8)
C69 C 0.0449(13) 0.4034(11) -0.0309(10)
C70 C 0.0508(13) 0.3868(10) -0.0555(10)
C71 C 0.0811(12) 0.3776(10) -0.0707(10)
C72 C 0.1127(13) 0.3824(11) -0.0546(10)
S15 S 0.1855(3) 0.4992(3) -0.0340(2)
S16 S -0.0750(3) 0.2452(3) 0.0982(2)
C73 C 0.1637(8) 0.4873(7) -0.0634(6)
C74 C 0.1101(10) 0.4621(9) -0.0807(8)
O1 O 0.1324(6) 0.4720(5) -0.0576(5)
H1 H 0.3146 0.3827 0.1192
H2 H 0.3689 0.4142 0.1265
H3 H 0.3662 0.4696 0.1230
H4 H 0.3150 0.4953 0.1123
H5 H 0.2610 0.4679 0.1088
H6 H 0.2274 0.3676 -0.0089
H7 H 0.2323 0.3403 -0.0542
H8 H 0.2350 0.2864 -0.0555
H9 H 0.2248 0.2551 -0.0157
H10 H 0.2093 0.2787 0.0301
H11 H 0.2238 0.4983 0.1751
H12 H 0.2715 0.5422 0.1756
H13 H 0.2786 0.5721 0.1363
H14 H 0.2469 0.5686 0.0960
H15 H 0.2059 0.5208 0.0891
H16 H 0.1432 0.5136 0.0717
H17 H 0.1443 0.5621 0.1009
H18 H 0.1089 0.6038 0.0797
H19 H 0.0676 0.5951 0.0454
H20 H 0.0670 0.5428 0.0195
H21 H 0.0220 0.4673 0.0230
H22 H -0.0321 0.4951 0.0132
H23 H -0.0842 0.4871 0.0380
H24 H -0.0905 0.4378 0.0621
H25 H -0.0402 0.4098 0.0742
H26 H -0.1030 0.3407 0.0589
H27 H -0.1157 0.3376 0.0099
H28 H -0.0781 0.3375 -0.0285
H29 H -0.0122 0.3372 -0.0155
H30 H -0.0001 0.3375 0.0306
H31 H 0.1178 0.2586 0.2203
H32 H 0.1068 0.2172 0.2553
H33 H 0.0751 0.1728 0.2435
H34 H 0.0693 0.1628 0.1952
H35 H 0.0711 0.2071 0.1595
H36 H 0.2342 0.4105 0.0366
H37 H 0.2865 0.3850 0.0193
H38 H 0.3279 0.4203 -0.0057
H39 H 0.3241 0.4731 0.0040
H40 H 0.2705 0.4973 0.0181
H41 H 0.1435 0.3204 -0.0050
H42 H 0.1500 0.2981 -0.0518
H43 H 0.0992 0.2805 -0.0771
H44 H 0.0466 0.2880 -0.0549
H45 H 0.0408 0.3087 -0.0054
H46 H -0.0687 0.2517 0.1710
H47 H -0.1207 0.2790 0.1912
H48 H -0.1199 0.3340 0.1979
H49 H -0.0680 0.3640 0.1909
H50 H -0.0216 0.3397 0.1638
H51 H 0.0821 0.2255 0.0999
H52 H 0.0933 0.1681 0.1072
H53 H 0.0447 0.1403 0.1037
H54 H 0.0113 0.1435 0.0600
H55 H -0.0046 0.2021 0.0517
H56 H 0.0790 0.4205 0.0023
H57 H 0.0217 0.4104 -0.0242
H58 H 0.0291 0.3799 -0.0650
H59 H 0.0806 0.3683 -0.0899
H60 H 0.1356 0.3755 -0.0619
H61 H 0.0899 0.4523 -0.0736
H62 H 0.1226 0.4469 -0.0925
H63 H 0.1028 0.4802 -0.0919
S1C S 0.1147(2) 0.4086(2) 0.1682(2)
S2C S 0.1789(2) 0.3370(2) 0.1353(2)
S3C S 0.0062(2) 0.4000(2) 0.1459(2)
S4C S 0.0474(2) 0.3464(2) 0.2026(2)
S5C S 0.0753(2) 0.4792(2) 0.1211(2)
S9C S 0.1451(2) 0.2669(2) 0.0890(2)
Cd2C Cd 0.2299(1) 0.3721(1) 0.1532(1)
Cd3C Cd 0.1976(1) 0.3066(1) 0.0890(1)
Cd6C Cd 0.1663(1) 0.4482(1) 0.1760(1)
Cd8C Cd 0.1624(1) 0.2950(1) 0.1745(1)
C73Q C -0.0863(8) 0.2373(7) 0.0634(6)
S16CA S 0.1750(3) 0.4952(3) -0.0982(2)
O2 O 0.3056(14) 0.1579(12) 0.1202(12)
C75 C 0.3174(32) 0.1250 0.1250
O2B O 0.3056(14) 0.0921(12) 0.1298(12)
loop_
_geom_bond_atom_site_label_1
_geom_bond_atom_site_label_2
_geom_bond_site_symmetry_1
_geom_bond_site_symmetry_2
Cd1 S1 1_555 1_555
Cd2 S2 1_555 1_555
Cd3 S2 1_555 1_555
Cd4 S1 1_555 1_555
Cd5 S1 1_555 1_555
Cd6 S1 1_555 1_555
Cd7 S6 1_555 1_555
Cd8 S2 1_555 1_555
Cd9 S8 1_555 1_555
S2 Cd1 1_555 1_555
S3 Cd5 1_555 1_555
C1 S3 1_555 1_555
C2 C1 1_555 1_555
C3 C2 1_555 1_555
C4 C3 1_555 1_555
C5 C4 1_555 1_555
C6 C1 1_555 1_555
S4 Cd4 1_555 1_555
C7 S4 1_555 1_555
C8 C7 1_555 1_555
C9 C8 1_555 1_555
C10 C9 1_555 1_555
C11 C10 1_555 1_555
C12 C7 1_555 1_555
S5 Cd5 1_555 1_555
C13 S5 1_555 1_555
C14 C13 1_555 1_555
C15 C14 1_555 1_555
C16 C15 1_555 1_555
C17 C16 1_555 1_555
C18 C13 1_555 1_555
S6 Cd6 1_555 1_555
C19 S6 1_555 1_555
C20 C19 1_555 1_555
C21 C20 1_555 1_555
C22 C21 1_555 1_555
C23 C22 1_555 1_555
C24 C19 1_555 1_555
S7 Cd2 1_555 1_555
C25 S7 1_555 1_555
C26 C25 1_555 1_555
C27 C26 1_555 1_555
C28 C27 1_555 1_555
C29 C28 1_555 1_555
C30 C25 1_555 1_555
S8 Cd2 1_555 1_555
C31 S8 1_555 1_555
C32 C31 1_555 1_555
C33 C32 1_555 1_555
C34 C33 1_555 1_555
C35 C34 1_555 1_555
C36 C31 1_555 1_555
S9 Cd3 1_555 1_555
C37 S9 1_555 1_555
C38 C37 1_555 1_555
C39 C38 1_555 1_555
C40 C39 1_555 1_555
C41 C40 1_555 1_555
C42 C37 1_555 1_555
S10 Cd5 1_555 1_555
C43 S10 1_555 1_555
C44 C43 1_555 1_555
C45 C44 1_555 1_555
C46 C45 1_555 1_555
C47 C46 1_555 1_555
C48 C43 1_555 1_555
S11 Cd4 1_555 1_555
C49 S11 1_555 1_555
C50 C49 1_555 1_555
C51 C50 1_555 1_555
C52 C51 1_555 1_555
C53 C52 1_555 1_555
C54 C49 1_555 1_555
S12 Cd3 1_555 1_555
C55 S12 1_555 1_555
C56 C55 1_555 1_555
C57 C56 1_555 1_555
C58 C57 1_555 1_555
C59 C58 1_555 1_555
C60 C55 1_555 1_555
S13 Cd8 1_555 1_555
C61 S13 1_555 1_555
C62 C61 1_555 1_555
C63 C62 1_555 1_555
C64 C63 1_555 1_555
C65 C64 1_555 1_555
C66 C61 1_555 1_555
S14 Cd4 1_555 1_555
C67 S14 1_555 1_555
C68 C67 1_555 1_555
C69 C68 1_555 1_555
C70 C69 1_555 1_555
C71 C70 1_555 1_555
C72 C67 1_555 1_555
S15 Cd7 1_555 1_555
S16 Cd9 1_555 1_555
C73 S15 1_555 1_555
C74 O1 1_555 1_555
O1 C73 1_555 1_555
H1 C2 1_555 1_555
H2 C3 1_555 1_555
H3 C4 1_555 1_555
H4 C5 1_555 1_555
H5 C6 1_555 1_555
H6 C8 1_555 1_555
H7 C9 1_555 1_555
H8 C10 1_555 1_555
H9 C11 1_555 1_555
H10 C12 1_555 1_555
H11 C14 1_555 1_555
H12 C15 1_555 1_555
H13 C16 1_555 1_555
H14 C17 1_555 1_555
H15 C18 1_555 1_555
H16 C20 1_555 1_555
H17 C21 1_555 1_555
H18 C22 1_555 1_555
H19 C23 1_555 1_555
H20 C24 1_555 1_555
H21 C26 1_555 1_555
H22 C27 1_555 1_555
H23 C28 1_555 1_555
H24 C29 1_555 1_555
H25 C30 1_555 1_555
H26 C32 1_555 1_555
H27 C33 1_555 1_555
H28 C34 1_555 1_555
H29 C35 1_555 1_555
H30 C36 1_555 1_555
H31 C38 1_555 1_555
H32 C39 1_555 1_555
H33 C40 1_555 1_555
H34 C41 1_555 1_555
H35 C42 1_555 1_555
H36 C44 1_555 1_555
H37 C45 1_555 1_555
H38 C46 1_555 1_555
H39 C47 1_555 1_555
H40 C48 1_555 1_555
H41 C50 1_555 1_555
H42 C51 1_555 1_555
H43 C52 1_555 1_555
H44 C53 1_555 1_555
H45 C54 1_555 1_555
H46 C56 1_555 1_555
H47 C57 1_555 1_555
H48 C58 1_555 1_555
H49 C59 1_555 1_555
H50 C60 1_555 1_555
H51 C62 1_555 1_555
H52 C63 1_555 1_555
H53 C64 1_555 1_555
H54 C65 1_555 1_555
H55 C66 1_555 1_555
H56 C68 1_555 1_555
H57 C69 1_555 1_555
H58 C70 1_555 1_555
H59 C71 1_555 1_555
H60 C72 1_555 1_555
H61 C74 1_555 1_555
H62 C74 1_555 1_555
H63 C74 1_555 1_555
O2 C75 1_555 1_555
C75 O2B 1_555 1_555
S1C Cd1 1_555 1_555
S2C Cd1 1_555 1_555
S3C Cd2 1_555 1_555
S4C Cd3 1_555 1_555
S5C Cd6 1_555 1_555
S9C Cd8 1_555 1_555
Cd2C S3 1_555 1_555
Cd3C S4 1_555 1_555
Cd6C S5 1_555 1_555
Cd8C S9 1_555 1_555
C73Q S16 1_555 1_555
S16CA C73 1_555 1_555
Cd6 S7 1_555 1_555
Cd7 S10 1_555 1_555
Cd7 S14 1_555 1_555
Cd8 S11 1_555 1_555
Cd9 S12 1_555 1_555
Cd9 S13 1_555 1_555
C5 C6 1_555 1_555
C11 C12 1_555 1_555
C17 C18 1_555 1_555
C23 C24 1_555 1_555
C29 C30 1_555 1_555
C35 C36 1_555 1_555
C41 C42 1_555 1_555
C47 C48 1_555 1_555
C53 C54 1_555 1_555
C59 C60 1_555 1_555
C65 C66 1_555 1_555
C71 C72 1_555 1_555
S1C Cd6C 1_555 1_555
S2C Cd2C 1_555 1_555
S2C Cd3C 1_555 1_555
S2C Cd8C 1_555 1_555
S9C Cd3C 1_555 1_555

#END
