
#######################################################################
#
#                 Cambridge Crystallographic Data Centre
#                                CCDC 
#
#######################################################################
#
# If this CIF has been generated from an entry in the Cambridge 
# Structural Database, then it will include bibliographic, chemical, 
# crystal, experimental, refinement or atomic coordinate data resulting 
# from the CCDC's data processing and validation procedures.
#
#######################################################################

data_TIMMIM
_symmetry_cell_setting           monoclinic
_symmetry_space_group_name_H-M   'C 2/c'
_symmetry_Int_Tables_number      15
_space_group_name_Hall           '-C 2yn'
loop_
_symmetry_equiv_pos_site_id
_symmetry_equiv_pos_as_xyz
1 x,y,z
2 1/2+x,1/2+y,z
3 -x,y,1/2-z
4 1/2-x,1/2+y,1/2-z
5 -x,-y,-z
6 1/2-x,1/2-y,-z
7 x,-y,1/2+z
8 1/2+x,1/2-y,1/2+z
_cell_length_a                   34.182(7)
_cell_length_b                   31.280(6)
_cell_length_c                   26.460(5)
_cell_angle_alpha                90
_cell_angle_beta                 94.703(5)
_cell_angle_gamma                90
_cell_volume                     28196.1
loop_
_atom_site_label
_atom_site_type_symbol
_atom_site_fract_x
_atom_site_fract_y
_atom_site_fract_z
Ag1 Ag 0.376790(9) 0.622260(11) 0.935390(12)
Ag2 Ag 0.384290(10) 0.624040(12) 1.064260(15)
N1 N 0.34510(11) 0.66094(12) 1.12044(14)
N2 N 0.30101(12) 0.70936(14) 1.17889(16)
N3 N 0.37578(10) 0.69378(11) 1.03704(13)
N4 N 0.38854(12) 0.71328(13) 0.99352(17)
N5 N 0.45933(9) 0.63912(10) 1.00775(12)
N6 N 0.44268(10) 0.62350(12) 0.96011(13)
N7 N 0.41079(10) 0.58592(12) 0.87490(14)
N8 N 0.45969(10) 0.55292(11) 0.80643(14)
N9 N 0.33891(11) 0.33496(11) 0.37572(13)
N10 N 0.28449(10) 0.28786(11) 0.31463(12)
N11 N 0.31497(10) 0.36977(10) 0.46050(14)
N12 N 0.30069(10) 0.38573(12) 0.50533(14)
N13 N 0.36818(12) 0.46229(13) 0.49547(15)
N14 N 0.38281(11) 0.44792(12) 0.54259(14)
N15 N 0.42069(11) 0.41710(12) 0.62692(15)
N16 N 0.45849(11) 0.47329(12) 0.69818(14)
C1 C 0.32985(13) 0.64477(12) 1.16168(16)
H1 H 0.3344 0.6164 1.1710
C2 C 0.30809(14) 0.66976(15) 1.18913(18)
H2 H 0.2975 0.6579 1.2172
C3 C 0.31684(13) 0.72641(15) 1.13577(18)
H3 H 0.3129 0.7552 1.1279
C4 C 0.33741(13) 0.70213(14) 1.10586(18)
C5 C 0.35320(11) 0.71824(13) 1.06103(15)
C6 C 0.34272(13) 0.76482(15) 1.04256(17)
H4 H 0.3554 0.7708 1.0123
H5 H 0.3148 0.7673 1.0356
H6 H 0.3515 0.7849 1.0685
C7 C 0.42314(14) 0.70357(13) 0.98402(18)
C8 C 0.43736(14) 0.72128(14) 0.93764(17)
C9 C 0.41137(17) 0.74166(15) 0.90243(17)
H7 H 0.3850 0.7443 0.9084
C10 C 0.42489(14) 0.75810(15) 0.85811(17)
H8 H 0.4077 0.7723 0.8347
C11 C 0.46412(12) 0.75319(13) 0.84903(16)
H9 H 0.4731 0.7636 0.8191
C12 C 0.49005(13) 0.73274(13) 0.88465(15)
H10 H 0.5164 0.7298 0.8788
C13 C 0.47636(13) 0.71681(14) 0.92888(17)
H11 H 0.4935 0.7031 0.9527
C14 C 0.48737(13) 0.66763(15) 1.10360(17)
H12 H 0.4917 0.6392 1.0954
C15 C 0.50257(12) 0.68513(13) 1.15063(17)
H13 H 0.5165 0.6680 1.1746
C16 C 0.49643(14) 0.72845(16) 1.16062(19)
H14 H 0.5059 0.7404 1.1914
C17 C 0.47640(13) 0.75265(15) 1.12471(15)
H15 H 0.4742 0.7818 1.1306
C18 C 0.45970(12) 0.73690(15) 1.08141(17)
H16 H 0.4443 0.7542 1.0592
C19 C 0.46558(12) 0.69472(12) 1.07013(15)
C20 C 0.45006(13) 0.67725(15) 1.01992(17)
C21 C 0.46748(12) 0.60190(13) 0.93320(17)
C22 C 0.51083(13) 0.60265(15) 0.94524(17)
H17 H 0.5168 0.6145 0.9784
H18 H 0.5209 0.5740 0.9444
H19 H 0.5227 0.6199 0.9207
C23 C 0.45014(12) 0.58497(12) 0.88418(15)
C24 C 0.47475(13) 0.56938(15) 0.85172(17)
H20 H 0.5017 0.5698 0.8600
C25 C 0.42168(16) 0.55278(16) 0.79529(17)
H21 H 0.4107 0.5408 0.7652
C26 C 0.39746(13) 0.57179(14) 0.83124(17)
H22 H 0.3706 0.5740 0.8223
C27 C 0.34887(14) 0.31998(17) 0.33149(19)
H23 H 0.3736 0.3255 0.3207
C28 C 0.32001(12) 0.29449(14) 0.29988(17)
H24 H 0.3268 0.2830 0.2694
C29 C 0.27600(13) 0.30226(15) 0.35852(17)
H25 H 0.2513 0.2970 0.3695
C30 C 0.30358(13) 0.32558(14) 0.38967(17)
C31 C 0.29163(13) 0.34315(13) 0.4387(2)
C32 C 0.25265(14) 0.33038(16) 0.4577(2)
H26 H 0.2495 0.3443 0.4894
H27 H 0.2520 0.3000 0.4623
H28 H 0.2317 0.3388 0.4333
C33 C 0.30807(12) 0.42485(15) 0.51629(17)
C34 C 0.29390(12) 0.44230(13) 0.56308(14)
C35 C 0.30165(15) 0.48625(15) 0.57442(17)
H29 H 0.3165 0.5039 0.5551
C36 C 0.28418(14) 0.49989(15) 0.61842(18)
H30 H 0.2875 0.5285 0.6271
C37 C 0.26338(14) 0.47618(15) 0.64901(18)
H31 H 0.2556 0.4866 0.6796
C38 C 0.25406(14) 0.43449(16) 0.63178(18)
H32 H 0.2367 0.4186 0.6495
C39 C 0.26923(12) 0.41537(12) 0.58980(14)
H33 H 0.2636 0.3873 0.5801
C40 C 0.33951(14) 0.49115(15) 0.40284(17)
H34 H 0.3657 0.4960 0.4134
C41 C 0.32145(13) 0.50620(15) 0.35599(17)
H35 H 0.3353 0.5244 0.3361
C42 C 0.28378(13) 0.49429(14) 0.33959(16)
H36 H 0.2743 0.5014 0.3067
C43 C 0.25940(14) 0.47222(15) 0.36961(17)
H37 H 0.2334 0.4668 0.3582
C44 C 0.27535(13) 0.45753(14) 0.41965(17)
H38 H 0.2607 0.4423 0.4416
C45 C 0.31432(14) 0.46855(16) 0.43112(18)
C46 C 0.33048(14) 0.45215(16) 0.4808(2)
C47 C 0.40506(11) 0.47427(12) 0.57124(16)
C48 C 0.40802(12) 0.52011(14) 0.55443(17)
H39 H 0.3939 0.5236 0.5218
H40 H 0.4351 0.5274 0.5522
H41 H 0.3969 0.5385 0.5786
C49 C 0.42303(13) 0.45858(15) 0.61864(16)
C50 C 0.44270(12) 0.48596(15) 0.65318(17)
H42 H 0.4449 0.5146 0.6444
C51 C 0.45496(13) 0.43185(14) 0.71008(18)
H43 H 0.4649 0.4218 0.7416
C52 C 0.43620(13) 0.40402(14) 0.67452(15)
H44 H 0.4340 0.3754 0.6832
Ag3 Ag 0.349200(10) 0.841840(12) 1.465780(13)
Ag4 Ag 0.396970(10) 0.924600(10) 1.473240(13)
N17 N 0.41905(11) 0.96155(14) 1.54454(16)
N18 N 0.43237(10) 1.00044(11) 1.63652(13)
N19 N 0.42159(11) 0.87539(13) 1.54025(15)
N20 N 0.41673(11) 0.83126(12) 1.54039(16)
N21 N 0.43924(11) 0.84000(11) 1.41947(17)
N22 N 0.39994(11) 0.83194(12) 1.41061(13)
N23 N 0.32130(10) 0.82830(12) 1.38596(14)
N24 N 0.29207(11) 0.78679(11) 1.29715(14)
N25 N 0.40899(12) 0.93404(12) 1.39197(14)
N26 N 0.42620(11) 0.95074(12) 1.29187(14)
N27 N 0.33421(11) 0.92965(12) 1.41912(15)
N28 N 0.29373(11) 0.92225(13) 1.42667(15)
N29 N 0.33130(10) 0.91610(10) 1.54683(11)
N30 N 0.32351(11) 0.87332(13) 1.53418(14)
N31 N 0.31952(12) 0.78877(12) 1.51153(14)
N32 N 0.28356(11) 0.73273(12) 1.57005(13)
C53 C 0.42350(16) 1.00592(19) 1.5454(2)
H45 H 0.4224 1.0219 1.5157
C54 C 0.42966(13) 1.02544(15) 1.59323(17)
H46 H 0.4319 1.0550 1.5958
C55 C 0.42868(13) 0.95889(15) 1.63454(17)
H47 H 0.4311 0.9421 1.6637
C56 C 0.42071(13) 0.94035(15) 1.58500(17)
C57 C 0.42045(14) 0.89459(13) 1.58313(18)
C58 C 0.41906(15) 0.86454(15) 1.63063(17)
H48 H 0.4192 0.8352 1.6199
H49 H 0.3956 0.8701 1.6471
H50 H 0.4416 0.8699 1.6539
C59 C 0.43189(16) 0.81243(15) 1.50231(18)
C60 C 0.42652(13) 0.76431(15) 1.50465(17)
C61 C 0.41277(12) 0.74245(13) 1.54552(16)
H51 H 0.4072 0.7572 1.5746
C62 C 0.40740(12) 0.69860(13) 1.54263(16)
H52 H 0.3981 0.6840 1.5698
C63 C 0.41576(13) 0.67642(15) 1.49981(17)
H53 H 0.4119 0.6470 1.4981
C64 C 0.42989(14) 0.69803(14) 1.45930(18)
H54 H 0.4359 0.6830 1.4306
C65 C 0.43508(12) 0.74228(13) 1.46145(17)
H55 H 0.4442 0.7569 1.4341
C66 C 0.51248(14) 0.83176(15) 1.52675(19)
H56 H 0.4958 0.8253 1.5517
C67 C 0.55479(13) 0.83432(14) 1.54099(16)
H57 H 0.5663 0.8269 1.5729
C68 C 0.57518(13) 0.84838(15) 1.50321(17)
H58 H 0.6022 0.8514 1.5099
C69 C 0.55928(13) 0.85880(15) 1.45505(18)
H59 H 0.5753 0.8699 1.4315
C70 C 0.51957(13) 0.85289(15) 1.44157(17)
H60 H 0.5095 0.8588 1.4086
C71 C 0.49556(13) 0.83882(14) 1.47535(17)
C72 C 0.45549(13) 0.83100(14) 1.46892(18)
C73 C 0.38778(12) 0.82176(13) 1.36599(14)
C74 C 0.41610(14) 0.81703(17) 1.3253(2)
H61 H 0.4423 0.8228 1.3396
H62 H 0.4092 0.8369 1.2984
H63 H 0.4148 0.7884 1.3123
C75 C 0.34661(15) 0.81450(16) 1.35325(16)
C76 C 0.33060(13) 0.79416(14) 1.30834(16)
H64 H 0.3479 0.7853 1.2850
C77 C 0.26742(15) 0.80192(17) 1.33121(19)
H65 H 0.2406 0.7967 1.3258
C78 C 0.28103(13) 0.82411(14) 1.37227(17)
H66 H 0.2632 0.8371 1.3922
C79 C 0.44390(14) 0.93953(16) 1.38003(17)
H67 H 0.4642 0.9392 1.4057
C80 C 0.45395(14) 0.94654(14) 1.32653(16)
H68 H 0.4800 0.9478 1.3189
C81 C 0.38723(13) 0.94717(14) 1.30528(18)
H69 H 0.3669 0.9497 1.2798
C82 C 0.37729(15) 0.93977(15) 1.35642(18)
C83 C 0.33804(12) 0.93197(15) 1.37198(17)
C84 C 0.30709(13) 0.93488(14) 1.32790(17)
H70 H 0.2817 0.9296 1.3397
H71 H 0.3124 0.9140 1.3028
H72 H 0.3075 0.9629 1.3133
C85 C 0.28480(15) 0.92612(15) 1.47084(18)
C86 C 0.24618(14) 0.91887(14) 1.48352(18)
C87 C 0.21981(14) 0.90153(15) 1.44614(19)
H73 H 0.2280 0.8951 1.4144
C88 C 0.18103(13) 0.89378(15) 1.45633(18)
H74 H 0.1634 0.8823 1.4313
C89 C 0.16892(14) 0.90316(15) 1.50350(19)
H75 H 0.1430 0.8982 1.5101
C90 C 0.19512(14) 0.92002(15) 1.54134(18)
H76 H 0.1869 0.9258 1.5733
C91 C 0.23365(16) 0.92813(18) 1.5311(2)
H77 H 0.2512 0.9398 1.5561
C92 C 0.33033(13) 1.00095(14) 1.57558(16)
H78 H 0.3347 0.9816 1.6021
C93 C 0.33564(13) 1.04408(15) 1.58442(17)
H79 H 0.3433 1.0538 1.6169
C94 C 0.32950(13) 1.07300(14) 1.54471(18)
H80 H 0.3333 1.1021 1.5506
C95 C 0.31773(15) 1.05854(16) 1.49641(19)
H81 H 0.3136 1.0780 1.4699
C96 C 0.31203(13) 1.01526(15) 1.48735(18)
H82 H 0.3039 1.0056 1.4549
C97 C 0.31853(12) 0.98628(15) 1.52723(16)
C98 C 0.31118(12) 0.94088(14) 1.51405(16)
C99 C 0.31206(12) 0.84582(15) 1.56783(16)
C100 C 0.30067(13) 0.85790(14) 1.62235(16)
H83 H 0.3055 0.8878 1.6283
H84 H 0.3162 0.8414 1.6471
H85 H 0.2734 0.8519 1.6249
C101 C 0.30636(13) 0.80177(14) 1.55375(16)
C102 C 0.28915(13) 0.77368(14) 1.58168(15)
H86 H 0.2802 0.7833 1.6119
C103 C 0.29639(12) 0.72060(13) 1.52609(16)
H87 H 0.2919 0.6927 1.5149
C104 C 0.31577(13) 0.74777(14) 1.49732(16)
H88 H 0.3264 0.7382 1.4681
Ag5 Ag 0.433760(9) 1.033160(10) 1.713100(12)
Ag6 Ag 0.266450(9) 0.751170(11) 1.229190(12)
Ag7 Ag 0.5000 0.520521(17) 0.7500
O1 O 0.22481(9) 0.70427(9) 1.28075(11)
H89 H 0.2396 0.6881 1.2998
H90 H 0.2097 0.6891 1.2610
Ag1B Ag 0.623210(9) 0.622260(11) 0.564610(12)
Ag1F Ag 0.376790(9) 0.377740(11) 0.435390(12)
Ag1D Ag 0.623210(9) 0.377740(11) 1.064610(12)
Ag2B Ag 0.615710(10) 0.624040(12) 0.435740(15)
Ag2F Ag 0.384290(10) 0.375960(12) 0.564260(15)
Ag2D Ag 0.615710(10) 0.375960(12) 0.935740(15)
N1B N 0.65490(11) 0.66094(12) 0.37956(14)
N2B N 0.69899(12) 0.70936(14) 0.32111(16)
N3B N 0.62422(10) 0.69378(11) 0.46296(13)
N4B N 0.61146(12) 0.71328(13) 0.50648(17)
N5B N 0.54067(9) 0.63912(10) 0.49225(12)
N6B N 0.55732(10) 0.62350(12) 0.53989(13)
N7B N 0.58921(10) 0.58592(12) 0.62510(14)
N8B N 0.54031(10) 0.55292(11) 0.69357(14)
N9B N 0.66109(11) 0.33496(11) 1.12428(13)
N9F N 0.33891(11) 0.66504(11) 0.87572(13)
N9D N 0.66109(11) 0.66504(11) 0.62428(13)
N10B N 0.71551(10) 0.28786(11) 1.18537(12)
N10C N 0.21551(10) 0.78786(11) 1.18537(12)
N10A N 0.78449(10) 0.78786(11) 0.31463(12)
N11B N 0.68503(10) 0.36977(10) 1.03950(14)
N11F N 0.31497(10) 0.63023(10) 0.96050(14)
N11D N 0.68503(10) 0.63023(10) 0.53950(14)
N12B N 0.69931(10) 0.38573(12) 0.99467(14)
N13B N 0.63182(12) 0.46229(13) 1.00453(15)
N14B N 0.61719(11) 0.44792(12) 0.95741(14)
N14F N 0.38281(11) 0.55208(12) 1.04259(14)
N14D N 0.61719(11) 0.55208(12) 0.45741(14)
N15B N 0.57931(11) 0.41710(12) 0.87308(15)
N15F N 0.42069(11) 0.58290(12) 1.12692(15)
N15D N 0.57931(11) 0.58290(12) 0.37308(15)
N16B N 0.54151(11) 0.47329(12) 0.80182(14)
C1B C 0.67015(13) 0.64477(12) 0.33832(16)
H1B H 0.6656 0.6164 0.3290
C2B C 0.69191(14) 0.66976(15) 0.31087(18)
H2B H 0.7025 0.6579 0.2828
C3B C 0.68316(13) 0.72641(15) 0.36423(18)
H3B H 0.6871 0.7552 0.3721
C4B C 0.66259(13) 0.70213(14) 0.39414(18)
C5B C 0.64680(11) 0.71824(13) 0.43897(15)
C6B C 0.65728(13) 0.76482(15) 0.45744(17)
H4B H 0.6446 0.7708 0.4877
H5B H 0.6852 0.7673 0.4644
H6B H 0.6485 0.7849 0.4315
C7B C 0.57686(14) 0.70357(13) 0.51598(18)
C8B C 0.56264(14) 0.72128(14) 0.56236(17)
C9B C 0.58863(17) 0.74166(15) 0.59757(17)
H7B H 0.6150 0.7443 0.5916
C10B C 0.57511(14) 0.75810(15) 0.64189(17)
H8B H 0.5923 0.7723 0.6653
C11B C 0.53588(12) 0.75319(13) 0.65097(16)
H9B H 0.5269 0.7636 0.6809
C12B C 0.50995(13) 0.73274(13) 0.61535(15)
H10B H 0.4836 0.7298 0.6212
C13B C 0.52364(13) 0.71681(14) 0.57112(17)
H11B H 0.5065 0.7031 0.5473
C14B C 0.51263(13) 0.66763(15) 0.39640(17)
H12B H 0.5083 0.6392 0.4046
C15B C 0.49743(12) 0.68513(13) 0.34937(17)
H13B H 0.4835 0.6680 0.3254
C16B C 0.50357(14) 0.72845(16) 0.33938(19)
H14B H 0.4941 0.7404 0.3086
C17B C 0.52360(13) 0.75265(15) 0.37529(15)
H15B H 0.5258 0.7818 0.3694
C18B C 0.54030(12) 0.73690(15) 0.41859(17)
H16B H 0.5557 0.7542 0.4408
C19B C 0.53442(12) 0.69472(12) 0.42987(15)
C20B C 0.54994(13) 0.67725(15) 0.48008(17)
C21B C 0.53252(12) 0.60190(13) 0.56680(17)
C22B C 0.48917(13) 0.60265(15) 0.55476(17)
H17B H 0.4832 0.6145 0.5216
H18B H 0.4791 0.5740 0.5556
H19B H 0.4773 0.6199 0.5793
C23B C 0.54986(12) 0.58497(12) 0.61582(15)
C24B C 0.52525(13) 0.56938(15) 0.64828(17)
H20B H 0.4983 0.5698 0.6400
C25B C 0.57832(16) 0.55278(16) 0.70471(17)
H21B H 0.5893 0.5408 0.7348
C26B C 0.60254(13) 0.57179(14) 0.66876(17)
H22B H 0.6294 0.5740 0.6777
C27B C 0.65113(14) 0.31998(17) 1.16851(19)
H23B H 0.6264 0.3255 1.1793
C28B C 0.67999(12) 0.29449(14) 1.20012(17)
H24B H 0.6732 0.2830 1.2306
C29B C 0.72400(13) 0.30226(15) 1.14148(17)
H25B H 0.7487 0.2970 1.1305
C30B C 0.69642(13) 0.32558(14) 1.11033(17)
C31B C 0.70837(13) 0.34315(13) 1.0613(2)
C32B C 0.74735(14) 0.33038(16) 1.0423(2)
H26B H 0.7505 0.3443 1.0106
H27B H 0.7480 0.3000 1.0377
H28B H 0.7683 0.3388 1.0667
C33B C 0.69193(12) 0.42485(15) 0.98371(17)
C34B C 0.70610(12) 0.44230(13) 0.93692(14)
C35B C 0.69835(15) 0.48625(15) 0.92558(17)
H29B H 0.6835 0.5039 0.9449
C36B C 0.71582(14) 0.49989(15) 0.88158(18)
H30B H 0.7125 0.5285 0.8729
C37B C 0.73662(14) 0.47618(15) 0.85099(18)
H31B H 0.7444 0.4866 0.8204
C38B C 0.74594(14) 0.43449(16) 0.86822(18)
H32B H 0.7633 0.4186 0.8505
C39B C 0.73077(12) 0.41537(12) 0.91020(14)
H33B H 0.7364 0.3873 0.9199
C40B C 0.66049(14) 0.49115(15) 1.09716(17)
H34B H 0.6343 0.4960 1.0866
C41B C 0.67855(13) 0.50620(15) 1.14401(17)
H35B H 0.6647 0.5244 1.1639
C42B C 0.71622(13) 0.49429(14) 1.16041(16)
H36B H 0.7257 0.5014 1.1933
C43B C 0.74060(14) 0.47222(15) 1.13039(17)
H37B H 0.7666 0.4668 1.1418
C44B C 0.72465(13) 0.45753(14) 1.08035(17)
H38B H 0.7393 0.4423 1.0584
C45B C 0.68568(14) 0.46855(16) 1.06888(18)
C46B C 0.66952(14) 0.45215(16) 1.0192(2)
C47B C 0.59494(11) 0.47427(12) 0.92876(16)
C48B C 0.59198(12) 0.52011(14) 0.94557(17)
H39B H 0.6061 0.5236 0.9782
H40B H 0.5649 0.5274 0.9478
H41B H 0.6031 0.5385 0.9214
C49B C 0.57697(13) 0.45858(15) 0.88136(16)
C50B C 0.55730(12) 0.48596(15) 0.84682(17)
H42B H 0.5551 0.5146 0.8556
C51B C 0.54504(13) 0.43185(14) 0.78992(18)
H43B H 0.5351 0.4218 0.7584
C52B C 0.56380(13) 0.40402(14) 0.82548(15)
H44B H 0.5660 0.3754 0.8168
Ag3B Ag 0.650800(10) 0.841840(12) 0.034220(13)
Ag3F Ag 0.349200(10) 1.158160(12) 1.965780(13)
Ag4B Ag 0.603030(10) 0.924600(10) 0.026760(13)
Ag4F Ag 0.396970(10) 1.075400(10) 1.973240(13)
N17B N 0.58095(11) 0.96155(14) -0.04454(16)
N18B N 0.56763(10) 1.00044(11) -0.13652(13)
N19B N 0.57841(11) 0.87539(13) -0.04025(15)
N20B N 0.58327(11) 0.83126(12) -0.04039(16)
N21B N 0.56076(11) 0.84000(11) 0.08053(17)
N22B N 0.60006(11) 0.83194(12) 0.08939(13)
N23B N 0.67870(10) 0.82830(12) 0.11404(14)
N24B N 0.70793(11) 0.78679(11) 0.20285(14)
N25F N 0.40899(12) 1.06596(12) 1.89197(14)
N25B N 0.59101(12) 0.93404(12) 0.10803(14)
N26F N 0.42620(11) 1.04926(12) 1.79187(14)
N26D N 0.57380(11) 1.04926(12) -0.29187(14)
N27F N 0.33421(11) 1.07035(12) 1.91912(15)
N27B N 0.66579(11) 0.92965(12) 0.08088(15)
N28F N 0.29373(11) 1.07775(13) 1.92667(15)
N29F N 0.33130(10) 1.08390(10) 2.04683(11)
N30F N 0.32351(11) 1.12668(13) 2.03418(14)
N30B N 0.67649(11) 0.87332(13) -0.03418(14)
N31F N 0.31952(12) 1.21123(12) 2.01153(14)
N31B N 0.68048(12) 0.78877(12) -0.01153(14)
N32F N 0.28356(11) 1.26727(12) 2.07005(13)
C53B C 0.57650(16) 1.00592(19) -0.0454(2)
H45B H 0.5776 1.0219 -0.0157
C54B C 0.57034(13) 1.02544(15) -0.09323(17)
H46B H 0.5681 1.0550 -0.0958
C55B C 0.57132(13) 0.95889(15) -0.13454(17)
H47B H 0.5689 0.9421 -0.1637
C56B C 0.57929(13) 0.94035(15) -0.08500(17)
C57B C 0.57955(14) 0.89459(13) -0.08313(18)
C58B C 0.58094(15) 0.86454(15) -0.13063(17)
H48B H 0.5808 0.8352 -0.1199
H49B H 0.6044 0.8701 -0.1471
H50B H 0.5584 0.8699 -0.1539
C59B C 0.56811(16) 0.81243(15) -0.00231(18)
C60B C 0.57348(13) 0.76431(15) -0.00465(17)
C61B C 0.58723(12) 0.74245(13) -0.04552(16)
H51B H 0.5928 0.7572 -0.0746
C62B C 0.59260(12) 0.69860(13) -0.04263(16)
H52B H 0.6019 0.6840 -0.0698
C63B C 0.58424(13) 0.67642(15) 0.00019(17)
H53B H 0.5881 0.6470 0.0019
C64B C 0.57011(14) 0.69803(14) 0.04070(18)
H54B H 0.5641 0.6830 0.0694
C65B C 0.56492(12) 0.74228(13) 0.03855(17)
H55B H 0.5558 0.7569 0.0659
C66B C 0.48752(14) 0.83176(15) -0.02675(19)
H56B H 0.5042 0.8253 -0.0517
C67B C 0.44521(13) 0.83432(14) -0.04099(16)
H57B H 0.4337 0.8269 -0.0729
C68B C 0.42482(13) 0.84838(15) -0.00321(17)
H58B H 0.3978 0.8514 -0.0099
C69B C 0.44072(13) 0.85880(15) 0.04495(18)
H59B H 0.4247 0.8699 0.0685
C70B C 0.48043(13) 0.85289(15) 0.05843(17)
H60B H 0.4905 0.8588 0.0914
C71B C 0.50444(13) 0.83882(14) 0.02465(17)
C72B C 0.54451(13) 0.83100(14) 0.03108(18)
C73B C 0.61222(12) 0.82176(13) 0.13401(14)
C74B C 0.58390(14) 0.81703(17) 0.1747(2)
H61B H 0.5577 0.8228 0.1604
H62B H 0.5908 0.8369 0.2016
H63B H 0.5852 0.7884 0.1877
C75B C 0.65339(15) 0.81450(16) 0.14675(16)
C76B C 0.66940(13) 0.79416(14) 0.19166(16)
H64B H 0.6521 0.7853 0.2150
C77B C 0.73258(15) 0.80192(17) 0.16879(19)
H65B H 0.7594 0.7967 0.1742
C78B C 0.71897(13) 0.82411(14) 0.12773(17)
H66B H 0.7368 0.8371 0.1078
C79F C 0.44390(14) 1.06047(16) 1.88003(17)
H67F H 0.4642 1.0608 1.9057
C80F C 0.45395(14) 1.05346(14) 1.82653(16)
H68F H 0.4800 1.0522 1.8189
C81F C 0.38723(13) 1.05283(14) 1.80528(18)
H69F H 0.3669 1.0503 1.7798
C82F C 0.37729(15) 1.06023(15) 1.85642(18)
C83F C 0.33804(12) 1.06803(15) 1.87198(17)
C84F C 0.30709(13) 1.06512(14) 1.82790(17)
H70F H 0.2817 1.0704 1.8397
H71F H 0.3124 1.0860 1.8028
H72F H 0.3075 1.0371 1.8133
C85F C 0.28480(15) 1.07388(15) 1.97084(18)
C86F C 0.24618(14) 1.08113(14) 1.98352(18)
C87F C 0.21981(14) 1.09847(15) 1.94614(19)
H73F H 0.2280 1.1049 1.9144
C88F C 0.18103(13) 1.10622(15) 1.95633(18)
H74F H 0.1634 1.1177 1.9313
C89F C 0.16892(14) 1.09684(15) 2.00350(19)
H75F H 0.1430 1.1018 2.0101
C90F C 0.19512(14) 1.07998(15) 2.04134(18)
H76F H 0.1869 1.0742 2.0733
C91F C 0.23365(16) 1.07187(18) 2.0311(2)
H77F H 0.2512 1.0602 2.0561
C92F C 0.33033(13) 0.99905(14) 2.07558(16)
H78F H 0.3347 1.0184 2.1021
C93F C 0.33564(13) 0.95592(15) 2.08442(17)
H79F H 0.3433 0.9462 2.1169
C94F C 0.32950(13) 0.92700(14) 2.04471(18)
H80F H 0.3333 0.8979 2.0506
C95F C 0.31773(15) 0.94146(16) 1.99641(19)
H81F H 0.3136 0.9220 1.9699
C96F C 0.31203(13) 0.98474(15) 1.98735(18)
H82F H 0.3039 0.9944 1.9549
C97F C 0.31853(12) 1.01372(15) 2.02723(16)
C98F C 0.31118(12) 1.05912(14) 2.01405(16)
C99F C 0.31206(12) 1.15418(15) 2.06783(16)
C100F C 0.30067(13) 1.14210(14) 2.12235(16)
H83F H 0.3055 1.1122 2.1283
H84F H 0.3162 1.1586 2.1471
H85F H 0.2734 1.1481 2.1249
C101F C 0.30636(13) 1.19823(14) 2.05375(16)
C102F C 0.28915(13) 1.22632(14) 2.08168(15)
H86F H 0.2802 1.2167 2.1119
C103F C 0.29639(12) 1.27940(13) 2.02609(16)
H87F H 0.2919 1.3073 2.0149
C104F C 0.31577(13) 1.25223(14) 1.99732(16)
H88F H 0.3264 1.2618 1.9681
Ag5B Ag 0.566240(9) 1.033160(10) -0.213100(12)
Ag5F Ag 0.433760(9) 0.966840(10) 1.213100(12)
Ag6B Ag 0.733550(9) 0.751170(11) 0.270810(12)
Ag6C Ag 0.233550(9) 0.251170(11) 0.270810(12)
Ag6A Ag 0.766450(9) 0.251170(11) 1.229190(12)
O1B O 0.77519(9) 0.70427(9) 0.21925(11)
H89B H 0.7604 0.6881 0.2002
H90B H 0.7903 0.6891 0.2390
B1 B 0.20275(15) 0.69219(17) 0.08789(19)
F1 F 0.18827(7) 0.66602(7) 0.05108(9)
F2 F 0.19222(7) 0.73209(8) 0.07599(9)
F3 F 0.24138(7) 0.68914(7) 0.09408(9)
F4 F 0.18726(8) 0.68166(9) 0.13143(11)
B2 B 0.82320(15) 0.18862(15) 0.35219(19)
F5 F 0.78900(9) 0.20452(9) 0.37210(11)
F6 F 0.81978(7) 0.19533(8) 0.29846(9)
F7 F 0.82698(6) 0.14470(7) 0.36225(8)
F8 F 0.85594(7) 0.21075(8) 0.37367(9)
B3 B 0.09900(16) 0.09187(17) 0.8424(2)
F9 F 0.09786(7) 0.10253(7) 0.89268(9)
F10 F 0.12021(7) 0.05432(8) 0.83899(9)
F11 F 0.11727(8) 0.12344(8) 0.81733(9)
F12 F 0.06148(7) 0.08510(8) 0.82040(9)
B4 B 0.65327(15) 0.84683(14) 0.3225(2)
F13 F 0.65640(6) 0.86926(7) 0.27839(8)
F14 F 0.68960(7) 0.84360(7) 0.34603(8)
F15 F 0.62853(7) 0.86840(8) 0.35210(9)
F16 F 0.63810(7) 0.80693(8) 0.31129(9)
B5 B 0.16479(15) 0.52793(17) 0.27824(19)
F17 F 0.16213(6) 0.48581(7) 0.29255(9)
F18 F 0.18645(7) 0.52963(8) 0.23703(10)
F19 F 0.18372(7) 0.55066(7) 0.31792(8)
F20 F 0.12729(7) 0.54435(8) 0.26678(9)
B6 B 0.53749(15) 0.55016(14) 0.09063(19)
F21 F 0.49985(6) 0.56554(7) 0.08801(8)
F22 F 0.56504(7) 0.57756(8) 0.07454(9)
F23 F 0.54866(7) 0.53786(7) 0.13986(9)
F24 F 0.53621(7) 0.51292(8) 0.06295(9)
B7 B 0.1199(4) 0.5501(4) 0.1134(5)
F25 F 0.09763(13) 0.54275(14) 0.15419(16)
F26 F 0.15299(15) 0.52409(18) 0.1210(2)
F27 F 0.13137(16) 0.59229(17) 0.11485(18)
F28 F 0.09926(15) 0.53989(16) 0.07000(19)
O2 O 0.3636(2) 0.1745(3) 0.2758(3)
H91 H 0.3755 0.1589 0.2557
H92 H 0.3602 0.1606 0.3027
O3 O 0.9700(2) 0.2321(2) 0.7229(3)
H93 H 0.9574 0.2192 0.7446
H94 H 0.9712 0.2586 0.7299
O4 O 0.6111(2) 0.2485(2) 0.3010(3)
H95 H 0.5870 0.2543 0.2936
H96 H 0.6240 0.2533 0.2754
O5 O 0.0617(3) 0.6282(2) 0.2222(3)
H97 H 0.0663 0.6533 0.2332
H98 H 0.0446 0.6164 0.2393
O6 O 0.5000 0.34373(17) 0.2500
O7 O 0.2923(2) 0.6001(2) 0.7295(3)
H99 H 0.2951 0.6185 0.7531
H100 H 0.2735 0.6074 0.7083
O8 O 0.0582(2) 0.3911(2) 0.3271(3)
H101 H 0.0672 0.3864 0.2986
H102 H 0.0655 0.3713 0.3477
O9 O 0.3999(2) 0.4025(2) 0.8268(3)
H103 H 0.4119 0.4263 0.8272
H104 H 0.3887 0.3996 0.8541
O10 O 0.2411(2) 0.1260(2) 0.2052(3)
H105 H 0.2553 0.1104 0.1877
H106 H 0.2185 0.1288 0.1897
O11 O 0.6467(3) 0.5385(3) 0.2732(3)
H107 H 0.6560 0.5512 0.2484
H108 H 0.6218 0.5398 0.2700
O12 O 0.0267(3) 0.5311(3) 0.0678(4)
H109 H 0.0513 0.5314 0.0759
H110 H 0.0152 0.5169 0.0897
O13 O 0.4038(2) 0.2769(2) 0.7281(2)
H111 H 0.4269 0.2670 0.7275
H112 H 0.3921 0.2641 0.7509
H113? H 0.5141 0.3506 0.2767
H114? H 0.4951 0.3171 0.2504
O14? O 0.97926(19) 0.5527(2) 0.2405(3)
H115? H 0.9957 0.5323 0.2423
H116? H 0.9840 0.5694 0.2657
O15? O 0.0112(2) 0.3578(3) 0.2823(3)
H117? H -0.0109 0.3661 0.2912
H118? H 0.0134 0.3310 0.2866
loop_
_geom_bond_atom_site_label_1
_geom_bond_atom_site_label_2
_geom_bond_site_symmetry_1
_geom_bond_site_symmetry_2
Ag1 N6 1_555 1_555
Ag2 N1 1_555 1_555
N1 C1 1_555 1_555
N2 C2 1_555 1_555
N3 Ag2 1_555 1_555
N4 N3 1_555 1_555
N5 N6 1_555 1_555
N6 C21 1_555 1_555
N7 Ag1 1_555 1_555
N8 C24 1_555 1_555
N9 C27 1_555 1_555
N10 C28 1_555 1_555
N11 N12 1_555 1_555
N12 C33 1_555 1_555
N13 N14 1_555 1_555
N14 C47 1_555 1_555
N15 C49 1_555 1_555
N16 C50 1_555 1_555
C1 H1 1_555 1_555
C2 C1 1_555 1_555
H2 C2 1_555 1_555
C3 N2 1_555 1_555
H3 C3 1_555 1_555
C4 N1 1_555 1_555
C5 N3 1_555 1_555
C6 C5 1_555 1_555
H4 C6 1_555 1_555
H5 C6 1_555 1_555
H6 C6 1_555 1_555
C7 N4 1_555 1_555
C8 C7 1_555 1_555
C9 C8 1_555 1_555
H7 C9 1_555 1_555
C10 C9 1_555 1_555
H8 C10 1_555 1_555
C11 C10 1_555 1_555
H9 C11 1_555 1_555
C12 C11 1_555 1_555
H10 C12 1_555 1_555
C13 C8 1_555 1_555
H11 C13 1_555 1_555
C14 H12 1_555 1_555
C15 C14 1_555 1_555
H13 C15 1_555 1_555
C16 C15 1_555 1_555
H14 C16 1_555 1_555
C17 C16 1_555 1_555
H15 C17 1_555 1_555
C18 C17 1_555 1_555
H16 C18 1_555 1_555
C19 C14 1_555 1_555
C20 N5 1_555 1_555
C21 C22 1_555 1_555
C22 H17 1_555 1_555
H18 C22 1_555 1_555
H19 C22 1_555 1_555
C23 N7 1_555 1_555
C24 C23 1_555 1_555
H20 C24 1_555 1_555
C25 N8 1_555 1_555
H21 C25 1_555 1_555
C26 N7 1_555 1_555
H22 C26 1_555 1_555
C27 H23 1_555 1_555
C28 C27 1_555 1_555
H24 C28 1_555 1_555
C29 N10 1_555 1_555
H25 C29 1_555 1_555
C30 N9 1_555 1_555
C31 N11 1_555 1_555
C32 C31 1_555 1_555
H26 C32 1_555 1_555
H27 C32 1_555 1_555
H28 C32 1_555 1_555
C33 C34 1_555 1_555
C34 C35 1_555 1_555
C35 H29 1_555 1_555
C36 C35 1_555 1_555
H30 C36 1_555 1_555
C37 C36 1_555 1_555
H31 C37 1_555 1_555
C38 C37 1_555 1_555
H32 C38 1_555 1_555
C39 C34 1_555 1_555
H33 C39 1_555 1_555
C40 H34 1_555 1_555
C41 C40 1_555 1_555
H35 C41 1_555 1_555
C42 C41 1_555 1_555
H36 C42 1_555 1_555
C43 C42 1_555 1_555
H37 C43 1_555 1_555
C44 C43 1_555 1_555
H38 C44 1_555 1_555
C45 C40 1_555 1_555
C46 N13 1_555 1_555
C47 C48 1_555 1_555
C48 H39 1_555 1_555
H40 C48 1_555 1_555
H41 C48 1_555 1_555
C49 C47 1_555 1_555
C50 C49 1_555 1_555
H42 C50 1_555 1_555
C51 N16 1_555 1_555
H43 C51 1_555 1_555
C52 N15 1_555 1_555
H44 C52 1_555 1_555
Ag3 N22 1_555 1_555
Ag4 N17 1_555 1_555
N17 C53 1_555 1_555
N18 C54 1_555 1_555
N19 Ag4 1_555 1_555
N20 N19 1_555 1_555
N21 N22 1_555 1_555
N22 C73 1_555 1_555
N23 Ag3 1_555 1_555
N24 C76 1_555 1_555
N25 Ag4 1_555 1_555
N26 C80 1_555 1_555
N27 Ag4 1_555 1_555
N28 N27 1_555 1_555
N29 N30 1_555 1_555
N30 Ag3 1_555 1_555
N31 Ag3 1_555 1_555
N32 C102 1_555 1_555
C53 H45 1_555 1_555
C54 C53 1_555 1_555
H46 C54 1_555 1_555
C55 N18 1_555 1_555
H47 C55 1_555 1_555
C56 N17 1_555 1_555
C57 N19 1_555 1_555
C58 C57 1_555 1_555
H48 C58 1_555 1_555
H49 C58 1_555 1_555
H50 C58 1_555 1_555
C59 N20 1_555 1_555
C60 C59 1_555 1_555
C61 C60 1_555 1_555
H51 C61 1_555 1_555
C62 C61 1_555 1_555
H52 C62 1_555 1_555
C63 C62 1_555 1_555
H53 C63 1_555 1_555
C64 C63 1_555 1_555
H54 C64 1_555 1_555
C65 C60 1_555 1_555
H55 C65 1_555 1_555
C66 H56 1_555 1_555
C67 C66 1_555 1_555
H57 C67 1_555 1_555
C68 C67 1_555 1_555
H58 C68 1_555 1_555
C69 C68 1_555 1_555
H59 C69 1_555 1_555
C70 C69 1_555 1_555
H60 C70 1_555 1_555
C71 C66 1_555 1_555
C72 N21 1_555 1_555
C73 C74 1_555 1_555
C74 H61 1_555 1_555
H62 C74 1_555 1_555
H63 C74 1_555 1_555
C75 N23 1_555 1_555
C76 C75 1_555 1_555
H64 C76 1_555 1_555
C77 N24 1_555 1_555
H65 C77 1_555 1_555
C78 N23 1_555 1_555
H66 C78 1_555 1_555
C79 N25 1_555 1_555
H67 C79 1_555 1_555
C80 C79 1_555 1_555
H68 C80 1_555 1_555
C81 N26 1_555 1_555
H69 C81 1_555 1_555
C82 N25 1_555 1_555
C83 N27 1_555 1_555
C84 C83 1_555 1_555
H70 C84 1_555 1_555
H71 C84 1_555 1_555
H72 C84 1_555 1_555
C85 N28 1_555 1_555
C86 C85 1_555 1_555
C87 C86 1_555 1_555
H73 C87 1_555 1_555
C88 C87 1_555 1_555
H74 C88 1_555 1_555
C89 C88 1_555 1_555
H75 C89 1_555 1_555
C90 C89 1_555 1_555
H76 C90 1_555 1_555
C91 C86 1_555 1_555
H77 C91 1_555 1_555
C92 H78 1_555 1_555
C93 C92 1_555 1_555
H79 C93 1_555 1_555
C94 C93 1_555 1_555
H80 C94 1_555 1_555
C95 C94 1_555 1_555
H81 C95 1_555 1_555
C96 C95 1_555 1_555
H82 C96 1_555 1_555
C97 C92 1_555 1_555
C98 N29 1_555 1_555
C99 N30 1_555 1_555
C100 C99 1_555 1_555
H83 C100 1_555 1_555
H84 C100 1_555 1_555
H85 C100 1_555 1_555
C101 N31 1_555 1_555
C102 C101 1_555 1_555
H86 C102 1_555 1_555
C103 N32 1_555 1_555
H87 C103 1_555 1_555
C104 N31 1_555 1_555
H88 C104 1_555 1_555
Ag5 N18 1_555 1_555
Ag6 N2 1_555 1_555
Ag7 N8 1_555 1_555
O1 Ag6 1_555 1_555
H89 O1 1_555 1_555
H90 O1 1_555 1_555
B1 F1 1_555 1_555
F2 B1 1_555 1_555
F3 B1 1_555 1_555
F4 B1 1_555 1_555
B2 F5 1_555 1_555
F6 B2 1_555 1_555
F7 B2 1_555 1_555
F8 B2 1_555 1_555
B3 F9 1_555 1_555
F10 B3 1_555 1_555
F11 B3 1_555 1_555
F12 B3 1_555 1_555
B4 F13 1_555 1_555
F14 B4 1_555 1_555
F15 B4 1_555 1_555
F16 B4 1_555 1_555
B5 F17 1_555 1_555
F18 B5 1_555 1_555
F19 B5 1_555 1_555
F20 B5 1_555 1_555
B6 F21 1_555 1_555
F22 B6 1_555 1_555
F23 B6 1_555 1_555
F24 B6 1_555 1_555
B7 F25 1_555 1_555
F26 B7 1_555 1_555
F27 B7 1_555 1_555
F28 B7 1_555 1_555
O2 H91 1_555 1_555
H92 O2 1_555 1_555
O3 H93 1_555 1_555
H94 O3 1_555 1_555
O4 H95 1_555 1_555
H96 O4 1_555 1_555
O5 H97 1_555 1_555
H98 O5 1_555 1_555
O7 H99 1_555 1_555
H100 O7 1_555 1_555
O8 H101 1_555 1_555
H102 O8 1_555 1_555
O9 H103 1_555 1_555
H104 O9 1_555 1_555
O10 H105 1_555 1_555
H106 O10 1_555 1_555
O11 H107 1_555 1_555
H108 O11 1_555 1_555
O12 H109 1_555 1_555
H110 O12 1_555 1_555
O13 H111 1_555 1_555
H112 O13 1_555 1_555
Ag1B N6B 1_555 1_555
Ag1F N9 1_555 1_555
Ag1D N9B 1_555 1_555
Ag2B N1B 1_555 1_555
Ag2F N14 1_555 1_555
Ag2D N14B 1_555 1_555
N1B C1B 1_555 1_555
N2B C2B 1_555 1_555
N3B Ag2B 1_555 1_555
N4B N3B 1_555 1_555
N5B N6B 1_555 1_555
N6B C21B 1_555 1_555
N7B Ag1B 1_555 1_555
N8B Ag7 1_555 1_555
N9B C27B 1_555 1_555
N9F Ag1 1_555 1_555
N9D Ag1B 1_555 1_555
N10B C28B 1_555 1_555
N10C Ag6 1_555 1_555
N10A Ag6B 1_555 1_555
N11B Ag1D 1_555 1_555
N11F Ag1 1_555 1_555
N11D Ag1B 1_555 1_555
N12B N11B 1_555 1_555
N13B N14B 1_555 1_555
N14B C47B 1_555 1_555
N14F Ag2 1_555 1_555
N14D Ag2B 1_555 1_555
N15B Ag2D 1_555 1_555
N15F Ag2 1_555 1_555
N15D Ag2B 1_555 1_555
N16B Ag7 1_555 1_555
C1B H1B 1_555 1_555
C2B C1B 1_555 1_555
H2B C2B 1_555 1_555
C3B N2B 1_555 1_555
H3B C3B 1_555 1_555
C4B N1B 1_555 1_555
C5B N3B 1_555 1_555
C6B C5B 1_555 1_555
H4B C6B 1_555 1_555
H5B C6B 1_555 1_555
H6B C6B 1_555 1_555
C7B N4B 1_555 1_555
C8B C7B 1_555 1_555
C9B C8B 1_555 1_555
H7B C9B 1_555 1_555
C10B C9B 1_555 1_555
H8B C10B 1_555 1_555
C11B C10B 1_555 1_555
H9B C11B 1_555 1_555
C12B C11B 1_555 1_555
H10B C12B 1_555 1_555
C13B C8B 1_555 1_555
H11B C13B 1_555 1_555
C14B H12B 1_555 1_555
C15B C14B 1_555 1_555
H13B C15B 1_555 1_555
C16B C15B 1_555 1_555
H14B C16B 1_555 1_555
C17B C16B 1_555 1_555
H15B C17B 1_555 1_555
C18B C17B 1_555 1_555
H16B C18B 1_555 1_555
C19B C14B 1_555 1_555
C20B N5B 1_555 1_555
C21B C22B 1_555 1_555
C22B H17B 1_555 1_555
H18B C22B 1_555 1_555
H19B C22B 1_555 1_555
C23B N7B 1_555 1_555
C24B N8B 1_555 1_555
H20B C24B 1_555 1_555
C25B N8B 1_555 1_555
H21B C25B 1_555 1_555
C26B N7B 1_555 1_555
H22B C26B 1_555 1_555
C27B H23B 1_555 1_555
C28B C27B 1_555 1_555
H24B C28B 1_555 1_555
C29B N10B 1_555 1_555
H25B C29B 1_555 1_555
C30B N9B 1_555 1_555
C31B N11B 1_555 1_555
C32B C31B 1_555 1_555
H26B C32B 1_555 1_555
H27B C32B 1_555 1_555
H28B C32B 1_555 1_555
C33B N12B 1_555 1_555
C34B C33B 1_555 1_555
C35B C34B 1_555 1_555
H29B C35B 1_555 1_555
C36B C35B 1_555 1_555
H30B C36B 1_555 1_555
C37B C36B 1_555 1_555
H31B C37B 1_555 1_555
C38B C37B 1_555 1_555
H32B C38B 1_555 1_555
C39B C34B 1_555 1_555
H33B C39B 1_555 1_555
C40B H34B 1_555 1_555
C41B C40B 1_555 1_555
H35B C41B 1_555 1_555
C42B C41B 1_555 1_555
H36B C42B 1_555 1_555
C43B C42B 1_555 1_555
H37B C43B 1_555 1_555
C44B C43B 1_555 1_555
H38B C44B 1_555 1_555
C45B C40B 1_555 1_555
C46B N13B 1_555 1_555
C47B C48B 1_555 1_555
C48B H39B 1_555 1_555
H40B C48B 1_555 1_555
H41B C48B 1_555 1_555
C49B N15B 1_555 1_555
C50B N16B 1_555 1_555
H42B C50B 1_555 1_555
C51B N16B 1_555 1_555
H43B C51B 1_555 1_555
C52B N15B 1_555 1_555
H44B C52B 1_555 1_555
Ag3B N22B 1_555 1_555
Ag3F N30F 1_555 1_555
Ag4B N17B 1_555 1_555
Ag4F N25F 1_555 1_555
N17B C53B 1_555 1_555
N18B C54B 1_555 1_555
N19B Ag4B 1_555 1_555
N20B N19B 1_555 1_555
N21B N22B 1_555 1_555
N22B C73B 1_555 1_555
N23B Ag3B 1_555 1_555
N24B C76B 1_555 1_555
N25F C79F 1_555 1_555
N25B Ag4B 1_555 1_555
N26F Ag5 1_555 1_555
N26D Ag5B 1_555 1_555
N27F Ag4F 1_555 1_555
N27B Ag4B 1_555 1_555
N28F N27F 1_555 1_555
N29F N30F 1_555 1_555
N30F C99F 1_555 1_555
N30B Ag3B 1_555 1_555
N31F Ag3F 1_555 1_555
N31B Ag3B 1_555 1_555
N32F C102F 1_555 1_555
C53B H45B 1_555 1_555
C54B C53B 1_555 1_555
H46B C54B 1_555 1_555
C55B N18B 1_555 1_555
H47B C55B 1_555 1_555
C56B N17B 1_555 1_555
C57B N19B 1_555 1_555
C58B C57B 1_555 1_555
H48B C58B 1_555 1_555
H49B C58B 1_555 1_555
H50B C58B 1_555 1_555
C59B N20B 1_555 1_555
C60B C59B 1_555 1_555
C61B C60B 1_555 1_555
H51B C61B 1_555 1_555
C62B C61B 1_555 1_555
H52B C62B 1_555 1_555
C63B C62B 1_555 1_555
H53B C63B 1_555 1_555
C64B C63B 1_555 1_555
H54B C64B 1_555 1_555
C65B C60B 1_555 1_555
H55B C65B 1_555 1_555
C66B H56B 1_555 1_555
C67B C66B 1_555 1_555
H57B C67B 1_555 1_555
C68B C67B 1_555 1_555
H58B C68B 1_555 1_555
C69B C68B 1_555 1_555
H59B C69B 1_555 1_555
C70B C69B 1_555 1_555
H60B C70B 1_555 1_555
C71B C66B 1_555 1_555
C72B N21B 1_555 1_555
C73B C74B 1_555 1_555
C74B H61B 1_555 1_555
H62B C74B 1_555 1_555
H63B C74B 1_555 1_555
C75B N23B 1_555 1_555
C76B C75B 1_555 1_555
H64B C76B 1_555 1_555
C77B N24B 1_555 1_555
H65B C77B 1_555 1_555
C78B N23B 1_555 1_555
H66B C78B 1_555 1_555
C79F H67F 1_555 1_555
C80F N26F 1_555 1_555
H68F C80F 1_555 1_555
C81F N26F 1_555 1_555
H69F C81F 1_555 1_555
C82F N25F 1_555 1_555
C83F N27F 1_555 1_555
C84F C83F 1_555 1_555
H70F C84F 1_555 1_555
H71F C84F 1_555 1_555
H72F C84F 1_555 1_555
C85F N28F 1_555 1_555
C86F C85F 1_555 1_555
C87F C86F 1_555 1_555
H73F C87F 1_555 1_555
C88F C87F 1_555 1_555
H74F C88F 1_555 1_555
C89F C88F 1_555 1_555
H75F C89F 1_555 1_555
C90F C89F 1_555 1_555
H76F C90F 1_555 1_555
C91F C86F 1_555 1_555
H77F C91F 1_555 1_555
C92F H78F 1_555 1_555
C93F C92F 1_555 1_555
H79F C93F 1_555 1_555
C94F C93F 1_555 1_555
H80F C94F 1_555 1_555
C95F C94F 1_555 1_555
H81F C95F 1_555 1_555
C96F C95F 1_555 1_555
H82F C96F 1_555 1_555
C97F C92F 1_555 1_555
C98F N29F 1_555 1_555
C99F C100F 1_555 1_555
C100F H83F 1_555 1_555
H84F C100F 1_555 1_555
H85F C100F 1_555 1_555
C101F N31F 1_555 1_555
C102F C101F 1_555 1_555
H86F C102F 1_555 1_555
C103F N32F 1_555 1_555
H87F C103F 1_555 1_555
C104F N31F 1_555 1_555
H88F C104F 1_555 1_555
Ag5B N18B 1_555 1_555
Ag5F N26 1_555 1_555
Ag6B N2B 1_555 1_555
Ag6C N10 1_555 1_555
Ag6A N10B 1_555 1_555
O1B Ag6B 1_555 1_555
H89B O1B 1_555 1_555
H90B O1B 1_555 1_555
N11 Ag1F 1_555 1_555
N15 Ag2F 1_555 1_555
N16 Ag7 1_555 1_555
C3 C4 1_555 1_555
C4 C5 1_555 1_555
C7 C20 1_555 1_555
C12 C13 1_555 1_555
C18 C19 1_555 1_555
C19 C20 1_555 1_555
C21 C23 1_555 1_555
C25 C26 1_555 1_555
C29 C30 1_555 1_555
C30 C31 1_555 1_555
C33 C46 1_555 1_555
C38 C39 1_555 1_555
C44 C45 1_555 1_555
C45 C46 1_555 1_555
C51 C52 1_555 1_555
N24 Ag6 1_555 1_555
C55 C56 1_555 1_555
C56 C57 1_555 1_555
C59 C72 1_555 1_555
C64 C65 1_555 1_555
C70 C71 1_555 1_555
C71 C72 1_555 1_555
C73 C75 1_555 1_555
C77 C78 1_555 1_555
C81 C82 1_555 1_555
C82 C83 1_555 1_555
C85 C98 1_555 1_555
C90 C91 1_555 1_555
C96 C97 1_555 1_555
C97 C98 1_555 1_555
C99 C101 1_555 1_555
C103 C104 1_555 1_555
C3B C4B 1_555 1_555
C4B C5B 1_555 1_555
C7B C20B 1_555 1_555
C12B C13B 1_555 1_555
C18B C19B 1_555 1_555
C19B C20B 1_555 1_555
C21B C23B 1_555 1_555
C23B C24B 1_555 1_555
C25B C26B 1_555 1_555
C29B C30B 1_555 1_555
C30B C31B 1_555 1_555
C33B C46B 1_555 1_555
C38B C39B 1_555 1_555
C44B C45B 1_555 1_555
C45B C46B 1_555 1_555
C47B C49B 1_555 1_555
C49B C50B 1_555 1_555
C51B C52B 1_555 1_555
N24B Ag6B 1_555 1_555
C55B C56B 1_555 1_555
C56B C57B 1_555 1_555
C59B C72B 1_555 1_555
C64B C65B 1_555 1_555
C70B C71B 1_555 1_555
C71B C72B 1_555 1_555
C73B C75B 1_555 1_555
C77B C78B 1_555 1_555
C79F C80F 1_555 1_555
C81F C82F 1_555 1_555
C82F C83F 1_555 1_555
C85F C98F 1_555 1_555
C90F C91F 1_555 1_555
C96F C97F 1_555 1_555
C97F C98F 1_555 1_555
C99F C101F 1_555 1_555
C103F C104F 1_555 1_555

#END
