
#######################################################################
#
#                 Cambridge Crystallographic Data Centre
#                                CCDC 
#
#######################################################################
#
# If this CIF has been generated from an entry in the Cambridge 
# Structural Database, then it will include bibliographic, chemical, 
# crystal, experimental, refinement or atomic coordinate data resulting 
# from the CCDC's data processing and validation procedures.
#
#######################################################################

data_TIMSUE
_symmetry_cell_setting           monoclinic
_symmetry_space_group_name_H-M   'P 21/c'
_symmetry_Int_Tables_number      14
_space_group_name_Hall           '-P 2ybc'
loop_
_symmetry_equiv_pos_site_id
_symmetry_equiv_pos_as_xyz
1 x,y,z
2 -x,1/2+y,1/2-z
3 -x,-y,-z
4 x,1/2-y,1/2+z
_cell_length_a                   13.025(3)
_cell_length_b                   16.879(3)
_cell_length_c                   19.198(4)
_cell_angle_alpha                90
_cell_angle_beta                 92.49(3)
_cell_angle_gamma                90
_cell_volume                     4216.68
loop_
_atom_site_label
_atom_site_type_symbol
_atom_site_fract_x
_atom_site_fract_y
_atom_site_fract_z
Ni1 Ni 0.15472(13) 0.26773(11) 0.01121(8)
N1 N 0.0767(8) 0.2730(7) -0.0861(5)
N2 N 0.2310(8) 0.2760(6) 0.1086(5)
N3 N 0.0830(9) 0.1624(7) 0.0411(5)
N4 N 0.2273(8) 0.3599(7) -0.0353(6)
N5 N 0.2590(9) 0.1843(7) -0.0245(5)
N6 N 0.0577(9) 0.3432(6) 0.0634(5)
C1 C -0.0599(2) 0.24196(16) -0.16920(14)
H1 H -0.1198 0.2134 -0.1794
C2 C -0.0230(2) 0.38010(16) 0.03384(14)
H2 H -0.0420 0.3706 -0.0127
C3 C 0.4132(2) 0.14265(16) -0.07712(14)
H3 H 0.4745 0.1559 -0.0972
C4 C -0.0203(2) 0.29299(16) -0.21761(14)
H4 H -0.0518 0.2977 -0.2618
C5 C 0.1161(2) 0.02226(16) 0.05432(14)
H5 H 0.1533 -0.0230 0.0443
C6 C 0.1804(2) 0.31502(16) 0.15756(14)
C7 C 0.3197(2) 0.23966(16) 0.12475(14)
H6 H 0.3556 0.2150 0.0899
C8 C -0.0815(2) 0.43535(16) 0.07446(14)
H7 H -0.1383 0.4621 0.0551
C9 C 0.3026(2) 0.40385(16) -0.00864(14)
H8 H 0.3136 0.4037 0.0396
C10 C 0.2634(2) 0.41205(16) -0.15005(14)
H9 H 0.2486 0.4140 -0.1978
C11 C 0.3059(2) 0.27666(16) 0.24459(14)
H10 H 0.3318 0.2768 0.2905
C12 C 0.3443(2) 0.20005(16) -0.05446(14)
H11 H 0.3608 0.2530 -0.0613
C13 C 0.3674(2) 0.45086(16) -0.04800(14)
H12 H 0.4226 0.4771 -0.0261
C14 C 0.0342(2) 0.40933(16) 0.17330(14)
H13 H 0.0552 0.4188 0.2195
C15 C -0.0497(2) 0.44598(16) 0.14180(14)
H14 H -0.0872 0.4805 0.1686
C16 C -0.0100(2) 0.23503(16) -0.10793(14)
H15 H -0.0378 0.2001 -0.0764
C17 C 0.2129(2) 0.31565(16) 0.22826(14)
H16 H 0.1751 0.3403 0.2621
C18 C 0.2956(2) 0.04597(16) -0.03218(14)
H17 H 0.2777 -0.0061 -0.0227
C19 C 0.3820(2) 0.06184(16) -0.06698(14)
H18 H 0.4209 0.0206 -0.0842
C20 C -0.0004(2) 0.15816(16) 0.07821(14)
H19 H -0.0385 0.2035 0.0867
C21 C 0.3600(2) 0.23820(16) 0.19474(14)
H20 H 0.4211 0.2120 0.2065
C22 C 0.0681(2) 0.33780(16) -0.19941(14)
H21 H 0.0946 0.3748 -0.2297
C23 C 0.2061(2) 0.36626(16) -0.10608(14)
C24 C 0.3499(2) 0.45795(16) -0.11687(14)
H22 H 0.3906 0.4906 -0.1432
C25 C 0.1418(2) 0.09652(16) 0.02993(14)
C26 C 0.2332(2) 0.10874(16) -0.01064(14)
C27 C 0.0864(2) 0.35597(16) 0.13026(14)
C28 C 0.0278(2) 0.02042(16) 0.09609(14)
H23 H 0.0120 -0.0271 0.1177
C29 C 0.1140(2) 0.32376(16) -0.13348(14)
C30 C -0.0319(2) 0.08089(16) 0.10578(14)
H24 H -0.0924 0.0755 0.1293
W1 W 0.31596(4) 0.54973(3) 0.18204(3)
W2 W 0.33849(5) 0.76931(3) -0.05561(3)
Ag1 Ag 0.31904(12) 0.67769(8) 0.07581(6)
Ag2 Ag 0.32848(11) 0.64832(8) 0.30900(6)
S1 S 0.2565(3) 0.8129(2) 0.03592(19)
S2 S 0.4110(3) 0.4513(3) 0.1590(2)
S3 S 0.2359(4) 0.5210(3) 0.2778(2)
S4 S 0.4288(4) 0.6625(2) -0.0339(2)
S5 S 0.1994(3) 0.5608(3) 0.0970(2)
S6 S 0.4191(3) 0.6568(2) 0.19240(18)
S7 S 0.2240(3) 0.7582(3) 0.3592(2)
S8 S 0.4483(3) 0.6385(2) 0.4167(2)
W2C W 0.33849(5) 0.73069(3) 0.44439(3)
Ag2C Ag 0.32848(11) 0.85168(8) -0.19100(6)
S7C S 0.2240(3) 0.7418(3) -0.1408(2)
S8C S 0.4483(3) 0.8615(2) -0.0833(2)
N7 N 0.3293(2) 0.55878(16) -0.29375(14)
C31 C 0.2295(2) 0.55773(16) -0.27066(14)
H25 H 0.2073 0.5997 -0.2438
C32 C 0.3716(2) 0.49656(16) -0.33026(14)
H26 H 0.3221 0.4546 -0.3356
H27 H 0.4318 0.4773 -0.3050
H28 H 0.3900 0.5148 -0.3754
C33 C 0.3867(2) 0.62893(16) -0.27864(14)
H29 H 0.4541 0.6239 -0.2966
H30 H 0.3926 0.6367 -0.2291
H31 H 0.3523 0.6735 -0.3001
O1 O 0.1716(2) 0.50481(16) -0.28423(14)
loop_
_geom_bond_atom_site_label_1
_geom_bond_atom_site_label_2
_geom_bond_site_symmetry_1
_geom_bond_site_symmetry_2
Ni1 N1 1_555 1_555
W1 Ag1 1_555 1_555
W2 Ag1 1_555 1_555
Ag1 S1 1_555 1_555
Ag2 W1 1_555 1_555
S1 W2 1_555 1_555
S2 W1 1_555 1_555
S3 W1 1_555 1_555
S4 W2 1_555 1_555
S5 W1 1_555 1_555
S6 W1 1_555 1_555
S7 Ag2 1_555 1_555
S8 Ag2 1_555 1_555
N1 C16 1_555 1_555
N2 Ni1 1_555 1_555
N3 Ni1 1_555 1_555
N4 Ni1 1_555 1_555
N5 Ni1 1_555 1_555
N6 Ni1 1_555 1_555
N7 C31 1_555 1_555
C1 H1 1_555 1_555
C2 N6 1_555 1_555
H2 C2 1_555 1_555
C3 H3 1_555 1_555
C4 C1 1_555 1_555
H4 C4 1_555 1_555
C5 H5 1_555 1_555
C6 N2 1_555 1_555
C7 N2 1_555 1_555
H6 C7 1_555 1_555
C8 C2 1_555 1_555
H7 C8 1_555 1_555
C9 N4 1_555 1_555
H8 C9 1_555 1_555
C10 H9 1_555 1_555
C11 H10 1_555 1_555
C12 N5 1_555 1_555
H11 C12 1_555 1_555
C13 C9 1_555 1_555
H12 C13 1_555 1_555
C14 H13 1_555 1_555
C15 C8 1_555 1_555
H14 C15 1_555 1_555
C16 C1 1_555 1_555
H15 C16 1_555 1_555
C17 C6 1_555 1_555
H16 C17 1_555 1_555
C18 H17 1_555 1_555
C19 C3 1_555 1_555
H18 C19 1_555 1_555
C20 N3 1_555 1_555
H19 C20 1_555 1_555
C21 C7 1_555 1_555
H20 C21 1_555 1_555
C22 C4 1_555 1_555
H21 C22 1_555 1_555
C23 N4 1_555 1_555
C24 C10 1_555 1_555
H22 C24 1_555 1_555
C25 N3 1_555 1_555
C26 N5 1_555 1_555
C27 N6 1_555 1_555
C28 C5 1_555 1_555
H23 C28 1_555 1_555
C29 N1 1_555 1_555
C30 C20 1_555 1_555
H24 C30 1_555 1_555
C31 H25 1_555 1_555
C32 N7 1_555 1_555
H26 C32 1_555 1_555
H27 C32 1_555 1_555
H28 C32 1_555 1_555
C33 N7 1_555 1_555
H29 C33 1_555 1_555
H30 C33 1_555 1_555
H31 C33 1_555 1_555
O1 C31 1_555 1_555
W2C Ag2 1_555 1_555
Ag2C W2 1_555 1_555
S7C W2 1_555 1_555
S8C W2 1_555 1_555
Ag1 S4 1_555 1_555
Ag1 S5 1_555 1_555
Ag1 S6 1_555 1_555
Ag2 S3 1_555 1_555
Ag2 S6 1_555 1_555
S7 W2C 1_555 1_555
S8 W2C 1_555 1_555
C3 C12 1_555 1_555
C5 C25 1_555 1_555
C6 C27 1_555 1_555
C10 C23 1_555 1_555
C11 C17 1_555 1_555
C11 C21 1_555 1_555
C13 C24 1_555 1_555
C14 C15 1_555 1_555
C14 C27 1_555 1_555
C18 C19 1_555 1_555
C18 C26 1_555 1_555
C22 C29 1_555 1_555
C23 C29 1_555 1_555
C25 C26 1_555 1_555
C28 C30 1_555 1_555
Ag2C S7C 1_555 1_555
Ag2C S8C 1_555 1_555

#END
