
#######################################################################
#
#                 Cambridge Crystallographic Data Centre
#                                CCDC 
#
#######################################################################
#
# If this CIF has been generated from an entry in the Cambridge 
# Structural Database, then it will include bibliographic, chemical, 
# crystal, experimental, refinement or atomic coordinate data resulting 
# from the CCDC's data processing and validation procedures.
#
#######################################################################

data_TIMSOY
_symmetry_cell_setting           orthorhombic
_symmetry_space_group_name_H-M   'P 2 2 21'
_symmetry_Int_Tables_number      17
_space_group_name_Hall           'P 2c 2'
loop_
_symmetry_equiv_pos_site_id
_symmetry_equiv_pos_as_xyz
1 x,y,z
2 -x,-y,1/2+z
3 -x,y,1/2-z
4 x,-y,-z
_cell_length_a                   13.447(3)
_cell_length_b                   13.579(3)
_cell_length_c                   22.509(5)
_cell_angle_alpha                90
_cell_angle_beta                 90
_cell_angle_gamma                90
_cell_volume                     4110.07
loop_
_atom_site_label
_atom_site_type_symbol
_atom_site_fract_x
_atom_site_fract_y
_atom_site_fract_z
Ni1 Ni 0.53227(12) 0.27785(10) 0.09689(7)
N1 N 0.4398(8) 0.3110(7) 0.0253(4)
N2 N 0.6138(8) 0.2166(7) 0.0263(5)
N3 N 0.6044(7) 0.4136(7) 0.0985(4)
N4 N 0.6296(8) 0.2113(8) 0.1576(4)
N5 N 0.4590(7) 0.1445(7) 0.1120(5)
N6 N 0.4449(7) 0.3582(7) 0.1566(5)
C1 C 0.6895(10) 0.4350(11) 0.0698(6)
H1 H 0.7159 0.3896 0.0432
C2 C 0.7190(10) 0.2428(11) 0.1723(6)
H2 H 0.7365 0.3065 0.1613
C3 C 0.7387(10) 0.5238(11) 0.0793(7)
H3 H 0.7982 0.5371 0.0598
C4 C 0.2882(11) 0.3618(11) -0.0201(7)
H4 H 0.2264 0.3916 -0.0157
C5 C 0.4096(10) 0.2819(10) -0.0775(6)
H5 H 0.4322 0.2585 -0.1139
C6 C 0.3690(11) 0.1167(11) 0.0926(7)
H6 H 0.3339 0.1598 0.0683
C7 C 0.3265(13) 0.0294(11) 0.1065(9)
H7 H 0.2669 0.0103 0.0889
C8 C 0.6069(12) 0.1141(11) 0.1706(6)
C9 C 0.6999(10) 0.5894(11) 0.1164(7)
H8 H 0.7325 0.6488 0.1230
C10 C 0.4094(10) 0.5190(12) 0.1918(6)
H9 H 0.4292 0.5844 0.1953
C11 C 0.4644(12) -0.0047(11) 0.1665(6)
H10 H 0.4990 -0.0479 0.1910
C12 C 0.7033(10) 0.1742(10) 0.0282(6)
H11 H 0.7374 0.1737 0.0641
C13 C 0.7026(11) 0.1380(11) -0.0745(7)
H12 H 0.7327 0.1116 -0.1081
C14 C 0.2929(9) 0.3924(11) 0.2098(5)
H13 H 0.2327 0.3690 0.2244
C15 C 0.3575(10) 0.3332(11) 0.1817(6)
H14 H 0.3398 0.2671 0.1792
C16 C 0.7481(11) 0.1309(11) -0.0207(7)
H15 H 0.8081 0.0975 -0.0169
C17 C 0.3205(9) 0.4898(11) 0.2157(6)
H16 H 0.2798 0.5344 0.2355
C18 C 0.5062(11) 0.0836(9) 0.1508(5)
C19 C 0.4696(10) 0.4534(9) 0.1630(5)
C20 C 0.5666(9) 0.2226(8) -0.0281(5)
C21 C 0.4706(9) 0.2726(8) -0.0268(5)
C22 C 0.5626(8) 0.4812(8) 0.1353(5)
C23 C 0.3520(12) 0.3538(11) 0.0265(6)
H17 H 0.3319 0.3810 0.0625
C24 C 0.3182(11) 0.3244(12) -0.0739(7)
H18 H 0.2770 0.3280 -0.1070
C25 C 0.6746(13) 0.0579(11) 0.2005(6)
H19 H 0.6586 -0.0068 0.2101
C26 C 0.7872(11) 0.1887(12) 0.2024(6)
H20 H 0.8481 0.2159 0.2132
C27 C 0.6130(11) 0.5702(9) 0.1447(7)
H21 H 0.5865 0.6166 0.1706
C28 C 0.7651(13) 0.0942(13) 0.2166(7)
H22 H 0.8106 0.0550 0.2368
C29 C 0.6103(10) 0.1852(10) -0.0790(6)
H23 H 0.5788 0.1914 -0.1156
C30 C 0.3722(14) -0.0291(12) 0.1462(8)
H24 H 0.3411 -0.0860 0.1597
O1 O 0.1668(16) -0.3122(14) 0.2255(8)
N7 N 0.0452(11) -0.2366(11) 0.1727(6)
C31 C -0.0417(15) -0.2585(14) 0.1358(8)
H25 H -0.0988 -0.2247 0.1514
H26 H -0.0538 -0.3282 0.1360
H27 H -0.0296 -0.2370 0.0959
C32 C 0.0905(16) -0.1431(15) 0.1837(9)
H28 H 0.1123 -0.1150 0.1468
H29 H 0.1465 -0.1515 0.2096
H30 H 0.0430 -0.0999 0.2021
C33 C 0.089(2) -0.315(2) 0.1969(11)
H31 H 0.0587 -0.3764 0.1918
Ag1 Ag 0.02741(9) 0.19028(8) 0.05779(6)
Ag2 Ag 0.02433(11) 0.5000 0.0000
Mo1 Mo 0.04575(11) 0.0000 0.0000
Mo2 Mo 0.01385(8) 0.38413(7) 0.11356(5)
S1 S 0.0896(4) 0.2582(3) 0.1542(2)
S2 S -0.0841(3) 0.4432(4) 0.17879(18)
S3 S 0.1433(3) 0.1255(3) -0.0216(2)
S4 S -0.0748(3) 0.3441(2) 0.03142(16)
S5 S 0.1270(3) 0.4959(3) 0.09489(16)
S6 S -0.0525(3) 0.0259(3) 0.07647(17)
Ag1C Ag 0.02741(9) 0.80972(8) -0.05779(6)
Ag1C_2 Ag 0.02741(9) -0.19028(8) -0.05779(6)
Mo1_2 Mo 0.04575(11) 1.0000 0.0000
Mo2C Mo 0.01385(8) 0.61587(7) -0.11356(5)
S1C S 0.0896(4) 0.7418(3) -0.1542(2)
S2C S -0.0841(3) 0.5568(4) -0.17879(18)
S3C S 0.1433(3) 0.8745(3) 0.0216(2)
S3C_2 S 0.1433(3) -0.1255(3) 0.0216(2)
S4C S -0.0748(3) 0.6559(2) -0.03142(16)
S5C S 0.1270(3) 0.5041(3) -0.09489(16)
S6C S -0.0525(3) 0.9741(3) -0.07647(17)
S6C_2 S -0.0525(3) -0.0259(3) -0.07647(17)
O2 O 0.7153(11) -0.1782(11) 0.2148(6)
Cl1 Cl 0.5000 -0.2351(4) 0.2500
loop_
_geom_bond_atom_site_label_1
_geom_bond_atom_site_label_2
_geom_bond_site_symmetry_1
_geom_bond_site_symmetry_2
Ni1 N1 1_555 1_555
N1 C21 1_555 1_555
N2 Ni1 1_555 1_555
N3 Ni1 1_555 1_555
N4 Ni1 1_555 1_555
N5 Ni1 1_555 1_555
N6 Ni1 1_555 1_555
C1 N3 1_555 1_555
H1 C1 1_555 1_555
C2 N4 1_555 1_555
H2 C2 1_555 1_555
C3 C1 1_555 1_555
H3 C3 1_555 1_555
C4 H4 1_555 1_555
C5 H5 1_555 1_555
C6 N5 1_555 1_555
H6 C6 1_555 1_555
C7 C6 1_555 1_555
H7 C7 1_555 1_555
C8 N4 1_555 1_555
C9 C3 1_555 1_555
H8 C9 1_555 1_555
C10 H9 1_555 1_555
C11 H10 1_555 1_555
C12 N2 1_555 1_555
H11 C12 1_555 1_555
C13 H12 1_555 1_555
C14 H13 1_555 1_555
C15 N6 1_555 1_555
H14 C15 1_555 1_555
C16 C12 1_555 1_555
H15 C16 1_555 1_555
C17 C10 1_555 1_555
H16 C17 1_555 1_555
C18 N5 1_555 1_555
C19 N6 1_555 1_555
C20 N2 1_555 1_555
C21 C5 1_555 1_555
C22 N3 1_555 1_555
C23 N1 1_555 1_555
H17 C23 1_555 1_555
C24 C4 1_555 1_555
H18 C24 1_555 1_555
C25 C8 1_555 1_555
H19 C25 1_555 1_555
C26 C2 1_555 1_555
H20 C26 1_555 1_555
C27 C9 1_555 1_555
H21 C27 1_555 1_555
C28 C25 1_555 1_555
H22 C28 1_555 1_555
C29 C13 1_555 1_555
H23 C29 1_555 1_555
C30 C7 1_555 1_555
H24 C30 1_555 1_555
O1 C33 1_555 1_555
N7 C31 1_555 1_555
C31 H25 1_555 1_555
H26 C31 1_555 1_555
H27 C31 1_555 1_555
C32 N7 1_555 1_555
H28 C32 1_555 1_555
H29 C32 1_555 1_555
H30 C32 1_555 1_555
C33 N7 1_555 1_555
H31 C33 1_555 1_555
Ag1 Mo1 1_555 1_555
Ag2 Mo2 1_555 1_555
Mo1 S3 1_555 1_555
Mo2 Ag1 1_555 1_555
S1 Ag1 1_555 1_555
S2 Mo2 1_555 1_555
S3 Ag1 1_555 1_555
S4 Ag1 1_555 1_555
S5 Ag2 1_555 1_555
S6 Ag1 1_555 1_555
Ag1C Mo1_2 1_555 1_555
Ag1C_2 Mo1 1_555 1_555
Mo1_2 S3C 1_555 1_555
Mo2C Ag2 1_555 1_555
S1C Ag1C 1_555 1_555
S2C Mo2C 1_555 1_555
S3C Ag1C 1_555 1_555
S3C_2 Mo1 1_555 1_555
S4C Ag2 1_555 1_555
S5C Ag2 1_555 1_555
S6C Ag1C 1_555 1_555
S6C_2 Mo1 1_555 1_555
C4 C23 1_555 1_555
C5 C24 1_555 1_555
C8 C18 1_555 1_555
C10 C19 1_555 1_555
C11 C18 1_555 1_555
C11 C30 1_555 1_555
C13 C16 1_555 1_555
C14 C15 1_555 1_555
C14 C17 1_555 1_555
C19 C22 1_555 1_555
C20 C21 1_555 1_555
C20 C29 1_555 1_555
C22 C27 1_555 1_555
C26 C28 1_555 1_555
Ag2 S4 1_555 1_555
Mo1 S6 1_555 1_555
Mo2 S1 1_555 1_555
Mo2 S4 1_555 1_555
Mo2 S5 1_555 1_555
Ag1C Mo2C 1_555 1_555
Ag1C S4C 1_555 1_555
Ag1C_2 S3C_2 1_555 1_555
Ag1C_2 S6C_2 1_555 1_555
Mo1_2 S6C 1_555 1_555
Mo2C S1C 1_555 1_555
Mo2C S4C 1_555 1_555
Mo2C S5C 1_555 1_555

#END
