
#######################################################################
#
#                 Cambridge Crystallographic Data Centre
#                                CCDC 
#
#######################################################################
#
# If this CIF has been generated from an entry in the Cambridge 
# Structural Database, then it will include bibliographic, chemical, 
# crystal, experimental, refinement or atomic coordinate data resulting 
# from the CCDC's data processing and validation procedures.
#
#######################################################################

data_TIMXUJ
_symmetry_cell_setting           triclinic
_symmetry_space_group_name_H-M   'P -1'
_symmetry_Int_Tables_number      2
_space_group_name_Hall           '-P 1'
loop_
_symmetry_equiv_pos_site_id
_symmetry_equiv_pos_as_xyz
1 x,y,z
2 -x,-y,-z
_cell_length_a                   4.476(1)
_cell_length_b                   13.973(3)
_cell_length_c                   14.900(3)
_cell_angle_alpha                116.30(3)
_cell_angle_beta                 92.86(3)
_cell_angle_gamma                93.97(3)
_cell_volume                     830.036
loop_
_atom_site_label
_atom_site_type_symbol
_atom_site_fract_x
_atom_site_fract_y
_atom_site_fract_z
Hg1 Hg 0.08784(7) 0.35068(2) 0.182493(18)
I1 I -0.15018(10) 0.41782(3) 0.35556(3)
I2 I 0.46958(9) 0.36733(3) 0.05815(3)
S1 S -0.1210(5) 0.13116(11) 0.08771(10)
S2 S 0.2237(4) 0.15110(9) 0.27390(10)
S3 S -0.1809(4) -0.03911(10) 0.15569(10)
S4 S -0.0637(4) -0.14152(9) 0.29318(10)
S5 S 0.3991(4) 0.07500(10) 0.43136(11)
O1 O 0.0825(10) -0.3762(3) 0.2609(3)
H1 H -0.0119 -0.3405 0.3083
O2 O 0.3839(10) 0.3078(3) 0.6232(3)
H2 H 0.5342 0.3219 0.6623
C1 C -0.0287(13) 0.0834(4) 0.1690(4)
C2 C 0.1965(13) 0.0548(3) 0.3191(4)
C3 C 0.0126(14) -0.0347(4) 0.2630(4)
C4 C 0.1148(14) -0.2470(4) 0.1916(4)
H3 H 0.0738 -0.2420 0.1294
H4 H 0.3309 -0.2360 0.2079
C5 C -0.0006(14) -0.3569(4) 0.1774(4)
H5 H -0.2181 -0.3655 0.1659
H6 H 0.0765 -0.4103 0.1179
C6 C 0.6247(14) 0.2030(4) 0.4720(4)
H7 H 0.8017 0.2041 0.5128
H8 H 0.6927 0.2072 0.4129
C7 C 0.4691(14) 0.3018(4) 0.5311(4)
H9 H 0.6028 0.3651 0.5443
H10 H 0.2914 0.3015 0.4909
Hg1_2 Hg 1.08784(7) 0.35068(2) 0.182493(18)
I2_2 I -0.53042(9) 0.36733(3) 0.05815(3)
loop_
_geom_bond_atom_site_label_1
_geom_bond_atom_site_label_2
_geom_bond_site_symmetry_1
_geom_bond_site_symmetry_2
Hg1 I1 1_555 1_555
I2 Hg1 1_555 1_555
S1 Hg1 1_555 1_555
S2 C1 1_555 1_555
S3 C1 1_555 1_555
S4 C3 1_555 1_555
S5 C2 1_555 1_555
O1 H1 1_555 1_555
O2 H2 1_555 1_555
C1 S1 1_555 1_555
C2 S2 1_555 1_555
C3 S3 1_555 1_555
C4 S4 1_555 1_555
H3 C4 1_555 1_555
H4 C4 1_555 1_555
C5 O1 1_555 1_555
H5 C5 1_555 1_555
H6 C5 1_555 1_555
C6 S5 1_555 1_555
H7 C6 1_555 1_555
H8 C6 1_555 1_555
C7 O2 1_555 1_555
H9 C7 1_555 1_555
H10 C7 1_555 1_555
Hg1_2 I2 1_555 1_555
I2_2 Hg1 1_555 1_555
C2 C3 1_555 1_555
C4 C5 1_555 1_555
C6 C7 1_555 1_555

#END
