
#######################################################################
#
#                 Cambridge Crystallographic Data Centre
#                                CCDC 
#
#######################################################################
#
# If this CIF has been generated from an entry in the Cambridge 
# Structural Database, then it will include bibliographic, chemical, 
# crystal, experimental, refinement or atomic coordinate data resulting 
# from the CCDC's data processing and validation procedures.
#
#######################################################################

data_TIMZIZ
_symmetry_cell_setting           monoclinic
_symmetry_space_group_name_H-M   'P 21/n'
_symmetry_Int_Tables_number      14
_space_group_name_Hall           '-P 2yn'
loop_
_symmetry_equiv_pos_site_id
_symmetry_equiv_pos_as_xyz
1 x,y,z
2 1/2-x,1/2+y,1/2-z
3 -x,-y,-z
4 1/2+x,1/2-y,1/2+z
_cell_length_a                   10.4566(2)
_cell_length_b                   12.1736(2)
_cell_length_c                   15.4433(3)
_cell_angle_alpha                90
_cell_angle_beta                 108.317(1)
_cell_angle_gamma                90
_cell_volume                     1866.24
loop_
_atom_site_label
_atom_site_type_symbol
_atom_site_fract_x
_atom_site_fract_y
_atom_site_fract_z
Mn1 Mn 0.675534(18) 0.521108(15) 0.527325(13)
O1 O 0.45954(10) 0.11492(8) 0.59648(8)
O2 O 0.59721(10) 0.36873(8) 0.55821(7)
O3 O 0.38386(10) 0.31926(8) 0.53790(7)
O4 O 0.23472(14) -0.01522(13) 0.49774(10)
O5 O 0.18026(13) -0.03812(14) 0.62093(11)
O6 O 0.59918(10) -0.28388(8) 0.77424(6)
O7 O 0.38181(10) -0.46100(8) 0.61357(7)
O8 O 0.59829(10) -0.41658(9) 0.63380(7)
N1 N 0.26243(13) -0.03578(10) 0.57879(10)
N2 N 0.86342(11) 0.61906(10) 0.60634(8)
N3 N 0.86750(11) 0.41301(9) 0.55366(8)
C1 C 0.50072(14) 0.01690(11) 0.63821(10)
C2 C 0.40225(13) -0.06271(11) 0.63040(9)
C3 C 0.42810(14) -0.16492(11) 0.67231(9)
H1 H 0.3579 -0.2172 0.6648
C4 C 0.55951(14) -0.18885(11) 0.72566(9)
C5 C 0.65971(14) -0.10970(11) 0.73583(9)
H2 H 0.7490 -0.1253 0.7732
C6 C 0.63149(14) -0.00887(11) 0.69254(10)
H3 H 0.7017 0.0433 0.6999
C7 C 0.56453(13) 0.19180(11) 0.60146(10)
H4 H 0.6234 0.1626 0.5676
H5 H 0.6200 0.2017 0.6660
C8 C 0.50772(13) 0.30187(10) 0.56160(9)
C9 C 0.50696(14) -0.37354(11) 0.75131(9)
H6 H 0.4173 -0.3484 0.7522
H7 H 0.5379 -0.4321 0.7977
C10 C 0.49429(13) -0.42069(10) 0.65692(9)
C11 C 0.85312(15) 0.72274(13) 0.63215(10)
H8 H 0.7670 0.7568 0.6139
C12 C 0.96340(16) 0.78237(14) 0.68461(11)
H9 H 0.9531 0.8560 0.7017
C13 C 1.08827(16) 0.73259(14) 0.71147(11)
H10 H 1.1652 0.7713 0.7480
C14 C 1.10045(14) 0.62569(14) 0.68465(10)
H11 H 1.1856 0.5902 0.7022
C15 C 0.98532(13) 0.57098(12) 0.63126(9)
C16 C 0.98879(13) 0.45652(11) 0.59842(9)
C17 C 1.10786(13) 0.39793(12) 0.61182(9)
H12 H 1.1924 0.4308 0.6425
C18 C 1.10154(14) 0.29105(13) 0.57986(10)
H13 H 1.1817 0.2500 0.5880
C19 C 0.97696(15) 0.24486(12) 0.53596(10)
H14 H 0.9696 0.1712 0.5145
C20 C 0.86316(14) 0.30931(12) 0.52417(10)
H15 H 0.7776 0.2781 0.4935
Mn1B Mn 0.324466(18) 0.478892(15) 0.472675(13)
Mn1B_2 Mn 0.324466(18) -0.521108(15) 0.472675(13)
Mn1_2 Mn 0.675534(18) -0.478892(15) 0.527325(13)
O3B O 0.61614(10) 0.68074(8) 0.46210(7)
O7B O 0.61819(10) 0.46100(8) 0.38643(7)
O8_2 O 0.59829(10) 0.58342(9) 0.63380(7)
loop_
_geom_bond_atom_site_label_1
_geom_bond_atom_site_label_2
_geom_bond_site_symmetry_1
_geom_bond_site_symmetry_2
Mn1 O2 1_555 1_555
O1 C1 1_555 1_555
O2 C8 1_555 1_555
O3 C8 1_555 1_555
O4 N1 1_555 1_555
O5 N1 1_555 1_555
O6 C4 1_555 1_555
O7 C10 1_555 1_555
O8 C10 1_555 1_555
N1 C2 1_555 1_555
N2 Mn1 1_555 1_555
N3 Mn1 1_555 1_555
C1 C2 1_555 1_555
C2 C3 1_555 1_555
C3 H1 1_555 1_555
C4 C3 1_555 1_555
C5 C4 1_555 1_555
H2 C5 1_555 1_555
C6 C1 1_555 1_555
H3 C6 1_555 1_555
C7 O1 1_555 1_555
H4 C7 1_555 1_555
H5 C7 1_555 1_555
C8 C7 1_555 1_555
C9 O6 1_555 1_555
H6 C9 1_555 1_555
H7 C9 1_555 1_555
C10 C9 1_555 1_555
C11 N2 1_555 1_555
H8 C11 1_555 1_555
C12 C11 1_555 1_555
H9 C12 1_555 1_555
C13 C12 1_555 1_555
H10 C13 1_555 1_555
C14 C13 1_555 1_555
H11 C14 1_555 1_555
C15 N2 1_555 1_555
C16 N3 1_555 1_555
C17 C16 1_555 1_555
H12 C17 1_555 1_555
C18 C17 1_555 1_555
H13 C18 1_555 1_555
C19 C18 1_555 1_555
H14 C19 1_555 1_555
C20 N3 1_555 1_555
H15 C20 1_555 1_555
Mn1B O3 1_555 1_555
Mn1B_2 O7 1_555 1_555
Mn1_2 O8 1_555 1_555
O3B Mn1 1_555 1_555
O7B Mn1 1_555 1_555
O8_2 Mn1 1_555 1_555
C5 C6 1_555 1_555
C14 C15 1_555 1_555
C15 C16 1_555 1_555
C19 C20 1_555 1_555

#END
