
#######################################################################
#
#                 Cambridge Crystallographic Data Centre
#                                CCDC 
#
#######################################################################
#
# If this CIF has been generated from an entry in the Cambridge 
# Structural Database, then it will include bibliographic, chemical, 
# crystal, experimental, refinement or atomic coordinate data resulting 
# from the CCDC's data processing and validation procedures.
#
#######################################################################

data_TIMZOF
_symmetry_cell_setting           monoclinic
_symmetry_space_group_name_H-M   'C 2/c'
_symmetry_Int_Tables_number      15
_space_group_name_Hall           '-C 2yn'
loop_
_symmetry_equiv_pos_site_id
_symmetry_equiv_pos_as_xyz
1 x,y,z
2 1/2+x,1/2+y,z
3 -x,y,1/2-z
4 1/2-x,1/2+y,1/2-z
5 -x,-y,-z
6 1/2-x,1/2-y,-z
7 x,-y,1/2+z
8 1/2+x,1/2-y,1/2+z
_cell_length_a                   19.862(4)
_cell_length_b                   13.024(3)
_cell_length_c                   13.120(3)
_cell_angle_alpha                90
_cell_angle_beta                 125.98(3)
_cell_angle_gamma                90
_cell_volume                     2746.43
loop_
_atom_site_label
_atom_site_type_symbol
_atom_site_fract_x
_atom_site_fract_y
_atom_site_fract_z
C1 C 0.1555(4) 0.4367(6) 0.0457(6)
C2 C 0.0053(4) 0.7748(6) -0.1066(7)
C3 C -0.1491(4) 0.4471(6) -0.2981(7)
C4 C 0.0771(4) 0.4969(5) -0.0356(6)
C5 C 0.0787(4) 0.6035(6) -0.0309(7)
H1 H 0.1287 0.6376 0.0249
C6 C 0.0055(4) 0.6595(5) -0.1099(6)
C7 C -0.0677(4) 0.6080(5) -0.1976(6)
H2 H -0.1160 0.6452 -0.2533
C8 C -0.0696(4) 0.5023(5) -0.2030(6)
C9 C 0.0030(4) 0.4473(5) -0.1208(6)
H3 H 0.0016 0.3759 -0.1232
Ni1 Ni 0.30570(5) 0.48111(7) 0.06668(9)
Ni2 Ni 0.24911(5) 0.24183(7) 0.11680(9)
O1 O 0.2235(3) 0.4851(4) 0.1184(5)
O2 O 0.1494(3) 0.3402(4) 0.0349(5)
O3 O -0.0605(3) 0.8204(4) -0.1888(5)
O4 O 0.0703(3) 0.8197(4) -0.0237(5)
O5 O -0.2092(3) 0.5001(4) -0.3825(5)
O6 O -0.1499(3) 0.3506(4) -0.2861(5)
O7 O 0.3059(3) 0.3284(4) 0.0560(5)
H4 H 0.3547 0.3052 0.1008
O8 O 0.4006(3) 0.4845(4) 0.2581(5)
H5 H 0.4302 0.4315 0.2752
H6 H 0.4395 0.5269 0.2971
O9 O 0.3947(3) 0.4854(4) 0.0326(5)
H7 H 0.3886 0.4393 -0.0166
H8 H 0.4069 0.5413 0.0147
O10 O 0.3003(3) 0.6437(4) 0.0655(5)
H9 H 0.3496 0.6632 0.1104
H10 H 0.2886 0.6528 -0.0062
O11 O 0.2963(3) 0.3198(4) 0.2835(5)
H11 H 0.2843 0.3825 0.2665
H12 H 0.2911 0.3076 0.3435
O12 O 0.1905(3) 0.1424(4) 0.1739(5)
H13 H 0.1708 0.1799 0.2053
H14 H 0.2290 0.1214 0.2479
Ni1B Ni -0.30570(5) 0.48111(7) -0.56668(9)
Ni2G Ni -0.25089(5) 0.25817(7) -0.38320(9)
Ni2E Ni 0.25089(5) 0.25817(7) -0.11680(9)
O5B O 0.2092(3) 0.5001(4) -0.1175(5)
O6G O 0.3501(3) 0.1494(4) 0.2139(5)
O7E O 0.1941(3) 0.1716(4) -0.0560(5)
H4E H 0.1453 0.1948 -0.1008
O13 O 0.4909(11) 0.3038(12) 0.302(2)
loop_
_geom_bond_atom_site_label_1
_geom_bond_atom_site_label_2
_geom_bond_site_symmetry_1
_geom_bond_site_symmetry_2
C1 C4 1_555 1_555
C2 C6 1_555 1_555
C3 C8 1_555 1_555
C4 C5 1_555 1_555
C5 H1 1_555 1_555
C6 C5 1_555 1_555
C7 C6 1_555 1_555
H2 C7 1_555 1_555
C8 C7 1_555 1_555
C9 C4 1_555 1_555
H3 C9 1_555 1_555
Ni1 O1 1_555 1_555
Ni2 O2 1_555 1_555
O1 C1 1_555 1_555
O2 C1 1_555 1_555
O3 C2 1_555 1_555
O4 C2 1_555 1_555
O5 C3 1_555 1_555
O6 C3 1_555 1_555
O7 Ni1 1_555 1_555
H4 O7 1_555 1_555
O8 Ni1 1_555 1_555
H5 O8 1_555 1_555
H6 O8 1_555 1_555
O9 Ni1 1_555 1_555
H7 O9 1_555 1_555
H8 O9 1_555 1_555
O10 Ni1 1_555 1_555
H9 O10 1_555 1_555
H10 O10 1_555 1_555
O11 Ni2 1_555 1_555
H11 O11 1_555 1_555
H12 O11 1_555 1_555
O12 Ni2 1_555 1_555
H13 O12 1_555 1_555
H14 O12 1_555 1_555
Ni1B O5 1_555 1_555
Ni2G O6 1_555 1_555
Ni2E O7 1_555 1_555
O5B Ni1 1_555 1_555
O6G Ni2 1_555 1_555
O7E Ni2 1_555 1_555
H4E O7E 1_555 1_555
C8 C9 1_555 1_555
Ni2 O7 1_555 1_555
Ni2E O7E 1_555 1_555

#END
