
#######################################################################
#
#                 Cambridge Crystallographic Data Centre
#                                CCDC 
#
#######################################################################
#
# If this CIF has been generated from an entry in the Cambridge 
# Structural Database, then it will include bibliographic, chemical, 
# crystal, experimental, refinement or atomic coordinate data resulting 
# from the CCDC's data processing and validation procedures.
#
#######################################################################

data_TIMZUL01
_symmetry_cell_setting           monoclinic
_symmetry_space_group_name_H-M   'C 2/c'
_symmetry_Int_Tables_number      15
_space_group_name_Hall           '-C 2yn'
loop_
_symmetry_equiv_pos_site_id
_symmetry_equiv_pos_as_xyz
1 x,y,z
2 1/2+x,1/2+y,z
3 -x,y,1/2-z
4 1/2-x,1/2+y,1/2-z
5 -x,-y,-z
6 1/2-x,1/2-y,-z
7 x,-y,1/2+z
8 1/2+x,1/2-y,1/2+z
_cell_length_a                   21.057(5)
_cell_length_b                   11.981(2)
_cell_length_c                   15.235(3)
_cell_angle_alpha                90
_cell_angle_beta                 112.100(3)
_cell_angle_gamma                90
_cell_volume                     3561.15
loop_
_atom_site_label
_atom_site_type_symbol
_atom_site_fract_x
_atom_site_fract_y
_atom_site_fract_z
Cd1 Cd 0.0000 0.35700(4) 0.7500
O1 O 0.1126(2) 0.4397(3) 0.8762(3)
O2 O 0.0693(2) 0.4996(4) 0.7323(3)
N1 N 0.26171(18) 0.7717(3) 0.8912(3)
C1 C 0.1126(3) 0.5030(4) 0.8132(4)
C2 C 0.1671(2) 0.5934(4) 0.8368(3)
C3 C 0.1913(2) 0.6357(4) 0.9270(3)
H1 H 0.1769 0.6049 0.9725
C4 C 0.2379(2) 0.7261(3) 0.9511(3)
C5 C 0.2395(2) 0.7303(4) 0.8008(3)
C6 C 0.2643(3) 0.7822(4) 0.7369(4)
H2 H 0.2957 0.8403 0.7578
C7 C 0.2427(3) 0.7480(5) 0.6449(4)
H3 H 0.2585 0.7839 0.6029
C8 C 0.1968(3) 0.6589(5) 0.6138(4)
H4 H 0.1828 0.6352 0.5512
C9 C 0.1722(3) 0.6063(5) 0.6737(3)
H5 H 0.1423 0.5465 0.6516
C10 C 0.1916(2) 0.6413(3) 0.7695(3)
C11 C -0.08016(19) 0.1454(3) 0.7992(3)
N2 N -0.07828(15) 0.1985(2) 0.7191(3)
C12 C -0.1141(2) 0.1540(4) 0.6298(3)
H6 H -0.1128 0.1895 0.5762
C13 C -0.1518(2) 0.0564(4) 0.6206(4)
H7 H -0.1758 0.0267 0.5608
C14 C -0.1537(3) 0.0033(3) 0.7007(5)
H8 H -0.1789 -0.0619 0.6945
C15 C -0.1179(3) 0.0478(4) 0.7900(4)
C16 C -0.1250(4) 0.0043(8) 0.8705(6)
H9 H -0.1498 -0.0611 0.8658
C17 C -0.0958(3) 0.0569(5) 0.9576(8)
H10 H -0.1010 0.0270 1.0108
C18 C -0.0583(3) 0.1553(4) 0.9649(5)
C19 C -0.0304(3) 0.2115(6) 1.0508(4)
H11 H -0.0354 0.1826 1.1045
C20 C 0.0050(3) 0.3109(6) 1.0564(2)
H12 H 0.0236 0.3485 1.1139
C21 C 0.0124(2) 0.3541(4) 0.9762(3)
H13 H 0.0361 0.4206 0.9800
N3 N -0.01550(15) 0.2980(3) 0.8903(2)
C22 C -0.05086(18) 0.1986(3) 0.8847(3)
Cd1E Cd 0.5000 1.14300(4) 1.2500
O1E O 0.3874(2) 1.0603(3) 1.1238(3)
O1B O -0.1126(2) 0.4397(3) 0.6238(3)
O2E O 0.4307(2) 1.0004(4) 1.2677(3)
O2B O -0.0693(2) 0.4996(4) 0.7677(3)
N1E N 0.23829(18) 0.7283(3) 1.1088(3)
C1E C 0.3874(3) 0.9970(4) 1.1868(4)
C2E C 0.3329(2) 0.9066(4) 1.1632(3)
C3E C 0.3087(2) 0.8643(4) 1.0730(3)
H1E H 0.3231 0.8951 1.0275
C4E C 0.2621(2) 0.7739(3) 1.0489(3)
C5E C 0.2605(2) 0.7697(4) 1.1992(3)
C6E C 0.2357(3) 0.7178(4) 1.2631(4)
H2E H 0.2043 0.6597 1.2422
C7E C 0.2573(3) 0.7520(5) 1.3551(4)
H3E H 0.2415 0.7161 1.3971
C8E C 0.3032(3) 0.8411(5) 1.3862(4)
H4E H 0.3172 0.8648 1.4488
C9E C 0.3278(3) 0.8937(5) 1.3263(3)
H5E H 0.3577 0.9535 1.3484
C10E C 0.3084(2) 0.8587(3) 1.2305(3)
C11B C 0.08016(19) 0.1454(3) 0.7008(3)
N2B N 0.07828(15) 0.1985(2) 0.7809(3)
C12B C 0.1141(2) 0.1540(4) 0.8702(3)
H6B H 0.1128 0.1895 0.9238
C13B C 0.1518(2) 0.0564(4) 0.8794(4)
H7B H 0.1758 0.0267 0.9392
C14B C 0.1537(3) 0.0033(3) 0.7993(5)
H8B H 0.1789 -0.0619 0.8055
C15B C 0.1179(3) 0.0478(4) 0.7100(4)
C16B C 0.1250(4) 0.0043(8) 0.6295(6)
H9B H 0.1498 -0.0611 0.6342
C17B C 0.0958(3) 0.0569(5) 0.5424(8)
H10B H 0.1010 0.0270 0.4892
C18B C 0.0583(3) 0.1553(4) 0.5351(5)
C19B C 0.0304(3) 0.2115(6) 0.4492(4)
H11B H 0.0354 0.1826 0.3955
C20B C -0.0050(3) 0.3109(6) 0.4436(2)
H12B H -0.0236 0.3485 0.3861
C21B C -0.0124(2) 0.3541(4) 0.5238(3)
H13B H -0.0361 0.4206 0.5200
N3B N 0.01550(15) 0.2980(3) 0.6097(2)
C22B C 0.05086(18) 0.1986(3) 0.6153(3)
loop_
_geom_bond_atom_site_label_1
_geom_bond_atom_site_label_2
_geom_bond_site_symmetry_1
_geom_bond_site_symmetry_2
Cd1 O1 1_555 1_555
O1 C1 1_555 1_555
O2 Cd1 1_555 1_555
N1 C4 1_555 1_555
C1 O2 1_555 1_555
C2 C1 1_555 1_555
C3 C2 1_555 1_555
H1 C3 1_555 1_555
C4 C3 1_555 1_555
C5 N1 1_555 1_555
C6 C5 1_555 1_555
H2 C6 1_555 1_555
C7 C6 1_555 1_555
H3 C7 1_555 1_555
C8 C7 1_555 1_555
H4 C8 1_555 1_555
C9 C8 1_555 1_555
H5 C9 1_555 1_555
C10 C2 1_555 1_555
C11 N2 1_555 1_555
N2 Cd1 1_555 1_555
C12 N2 1_555 1_555
H6 C12 1_555 1_555
C13 C12 1_555 1_555
H7 C13 1_555 1_555
C14 C13 1_555 1_555
H8 C14 1_555 1_555
C15 C11 1_555 1_555
C16 C15 1_555 1_555
H9 C16 1_555 1_555
C17 C16 1_555 1_555
H10 C17 1_555 1_555
C18 C17 1_555 1_555
C19 C18 1_555 1_555
H11 C19 1_555 1_555
C20 C19 1_555 1_555
H12 C20 1_555 1_555
C21 C20 1_555 1_555
H13 C21 1_555 1_555
N3 Cd1 1_555 1_555
C22 C11 1_555 1_555
Cd1E O1E 1_555 1_555
O1E C1E 1_555 1_555
O1B Cd1 1_555 1_555
O2E Cd1E 1_555 1_555
O2B Cd1 1_555 1_555
N1E C4E 1_555 1_555
C1E O2E 1_555 1_555
C2E C1E 1_555 1_555
C3E C2E 1_555 1_555
H1E C3E 1_555 1_555
C4E C4 1_555 1_555
C5E N1E 1_555 1_555
C6E C5E 1_555 1_555
H2E C6E 1_555 1_555
C7E C6E 1_555 1_555
H3E C7E 1_555 1_555
C8E C7E 1_555 1_555
H4E C8E 1_555 1_555
C9E C8E 1_555 1_555
H5E C9E 1_555 1_555
C10E C2E 1_555 1_555
C11B N2B 1_555 1_555
N2B Cd1 1_555 1_555
C12B N2B 1_555 1_555
H6B C12B 1_555 1_555
C13B C12B 1_555 1_555
H7B C13B 1_555 1_555
C14B C13B 1_555 1_555
H8B C14B 1_555 1_555
C15B C11B 1_555 1_555
C16B C15B 1_555 1_555
H9B C16B 1_555 1_555
C17B C16B 1_555 1_555
H10B C17B 1_555 1_555
C18B C17B 1_555 1_555
C19B C18B 1_555 1_555
H11B C19B 1_555 1_555
C20B C19B 1_555 1_555
H12B C20B 1_555 1_555
C21B C20B 1_555 1_555
H13B C21B 1_555 1_555
N3B Cd1 1_555 1_555
C22B C11B 1_555 1_555
C5 C10 1_555 1_555
C9 C10 1_555 1_555
C14 C15 1_555 1_555
C18 C22 1_555 1_555
C21 N3 1_555 1_555
N3 C22 1_555 1_555
C3E C4E 1_555 1_555
C5E C10E 1_555 1_555
C9E C10E 1_555 1_555
C14B C15B 1_555 1_555
C18B C22B 1_555 1_555
C21B N3B 1_555 1_555
N3B C22B 1_555 1_555

#END
