
#######################################################################
#
#                 Cambridge Crystallographic Data Centre
#                                CCDC 
#
#######################################################################
#
# If this CIF has been generated from an entry in the Cambridge 
# Structural Database, then it will include bibliographic, chemical, 
# crystal, experimental, refinement or atomic coordinate data resulting 
# from the CCDC's data processing and validation procedures.
#
#######################################################################

data_TIMZCU02
_symmetry_cell_setting           monoclinic
_symmetry_space_group_name_H-M   'C 2/c'
_symmetry_Int_Tables_number      15
_space_group_name_Hall           '-C 2yn'
loop_
_symmetry_equiv_pos_site_id
_symmetry_equiv_pos_as_xyz
1 x,y,z
2 -x,y,1/2-z
3 1/2+x,1/2+y,z
4 1/2-x,1/2+y,1/2-z
5 -x,-y,-z
6 x,-y,1/2+z
7 1/2-x,1/2-y,-z
8 1/2+x,1/2-y,1/2+z
_cell_length_a                   9.2180(17)
_cell_length_b                   17.631(3)
_cell_length_c                   10.5455(19)
_cell_angle_alpha                90
_cell_angle_beta                 93.447(3)
_cell_angle_gamma                90
_cell_volume                     1710.78
loop_
_atom_site_label
_atom_site_type_symbol
_atom_site_fract_x
_atom_site_fract_y
_atom_site_fract_z
Cu1 Cu 0.2500 0.2500 0.0000
N1 N 0.0685(3) 0.30478(16) 0.0486(2)
N2 N -0.1407(3) 0.3300(2) 0.1253(4)
H1 H -0.2238 0.3229 0.1564
N3 N 0.2164(3) 0.16540(14) 0.1221(2)
N4 N 0.1607(3) 0.05247(16) 0.1875(3)
H2 H 0.1208 0.0084 0.1898
C1 C -0.0482(4) 0.2769(3) 0.0944(5)
H3 H -0.0646 0.2253 0.1042
C2 C -0.0808(5) 0.3968(3) 0.0992(4)
H4 H -0.1203 0.4446 0.1114
C3 C 0.0481(5) 0.3811(2) 0.0518(4)
H5 H 0.1135 0.4171 0.0252
C4 C 0.1390(4) 0.10379(19) 0.0970(3)
H6 H 0.0772 0.0972 0.0249
C5 C 0.2566(5) 0.0818(2) 0.2756(4)
H7 H 0.2919 0.0583 0.3502
C6 C 0.2920(4) 0.1520(2) 0.2350(3)
H8 H 0.3567 0.1854 0.2770
S1 S 0.5000 0.36040(5) 0.2500
O1 O 0.4450(4) 0.4095(2) 0.3474(3)
O2 O 0.3820(4) 0.31670(19) 0.1927(3)
O1A O 0.5550(4) 0.4095(2) 0.1526(3)
O2A O 0.6180(4) 0.31670(19) 0.3073(3)
N1F N 0.4315(3) 0.19522(16) -0.0486(2)
N2F N 0.6407(3) 0.1700(2) -0.1253(4)
H1F H 0.7238 0.1771 -0.1564
C1F C 0.5482(4) 0.2231(3) -0.0944(5)
H3F H 0.5646 0.2747 -0.1042
C2F C 0.5808(5) 0.1032(3) -0.0992(4)
H4F H 0.6203 0.0554 -0.1114
C3F C 0.4519(5) 0.1189(2) -0.0518(4)
H5F H 0.3865 0.0829 -0.0252
N3F N 0.2836(3) 0.33460(14) -0.1221(2)
N4F N 0.3393(3) 0.44753(16) -0.1875(3)
H2F H 0.3792 0.4916 -0.1898
C4F C 0.3610(4) 0.39621(19) -0.0970(3)
H6F H 0.4228 0.4028 -0.0249
C5F C 0.2434(5) 0.4182(2) -0.2756(4)
H7F H 0.2081 0.4417 -0.3502
C6F C 0.2080(4) 0.3480(2) -0.2350(3)
H8F H 0.1433 0.3146 -0.2770
Cu1A Cu 0.7500 0.2500 0.5000
O2F O 0.1180(4) 0.18330(19) -0.1927(3)
loop_
_geom_bond_atom_site_label_1
_geom_bond_atom_site_label_2
_geom_bond_site_symmetry_1
_geom_bond_site_symmetry_2
Cu1 N1 1_555 1_555
N1 C1 1_555 1_555
N2 H1 1_555 1_555
N3 Cu1 1_555 1_555
N4 H2 1_555 1_555
C1 N2 1_555 1_555
H3 C1 1_555 1_555
C2 N2 1_555 1_555
H4 C2 1_555 1_555
C3 N1 1_555 1_555
H5 C3 1_555 1_555
C4 N3 1_555 1_555
H6 C4 1_555 1_555
C5 N4 1_555 1_555
H7 C5 1_555 1_555
C6 N3 1_555 1_555
H8 C6 1_555 1_555
S1 O1 1_555 1_555
O2 Cu1 1_555 1_555
O1A S1 1_555 1_555
O2A S1 1_555 1_555
N1F Cu1 1_555 1_555
N2F H1F 1_555 1_555
C1F N1F 1_555 1_555
H3F C1F 1_555 1_555
C2F N2F 1_555 1_555
H4F C2F 1_555 1_555
C3F N1F 1_555 1_555
H5F C3F 1_555 1_555
N3F Cu1 1_555 1_555
N4F H2F 1_555 1_555
C4F N3F 1_555 1_555
H6F C4F 1_555 1_555
C5F N4F 1_555 1_555
H7F C5F 1_555 1_555
C6F N3F 1_555 1_555
H8F C6F 1_555 1_555
Cu1A O2A 1_555 1_555
O2F Cu1 1_555 1_555
N4 C4 1_555 1_555
C2 C3 1_555 1_555
C5 C6 1_555 1_555
S1 O2 1_555 1_555
N2F C1F 1_555 1_555
C2F C3F 1_555 1_555
N4F C4F 1_555 1_555
C5F C6F 1_555 1_555

#END
