
#######################################################################
#
#                 Cambridge Crystallographic Data Centre
#                                CCDC 
#
#######################################################################
#
# If this CIF has been generated from an entry in the Cambridge 
# Structural Database, then it will include bibliographic, chemical, 
# crystal, experimental, refinement or atomic coordinate data resulting 
# from the CCDC's data processing and validation procedures.
#
#######################################################################

data_TIMZUL
_symmetry_cell_setting           monoclinic
_symmetry_space_group_name_H-M   'P 21/c'
_symmetry_Int_Tables_number      14
_space_group_name_Hall           '-P 2ybc'
loop_
_symmetry_equiv_pos_site_id
_symmetry_equiv_pos_as_xyz
1 x,y,z
2 -x,1/2+y,1/2-z
3 -x,-y,-z
4 x,1/2-y,1/2+z
_cell_length_a                   16.1075(9)
_cell_length_b                   11.9734(7)
_cell_length_c                   19.8457(11)
_cell_angle_alpha                90
_cell_angle_beta                 112.783(1)
_cell_angle_gamma                90
_cell_volume                     3528.85
loop_
_atom_site_label
_atom_site_type_symbol
_atom_site_fract_x
_atom_site_fract_y
_atom_site_fract_z
Cd1 Cd 0.771309(15) 0.828200(16) 0.372528(12)
N1 N 0.88120(17) 1.25467(19) 0.16419(13)
N2 N 0.64289(17) 1.2519(2) 0.06526(14)
N3 N 0.92384(16) 0.7788(2) 0.44862(14)
N4 N 0.81631(18) 0.6455(2) 0.33702(14)
N5 N 0.72050(17) 0.70162(19) 0.44606(14)
N6 N 0.62310(17) 0.7545(2) 0.30332(15)
O1 O 0.84805(16) 0.96141(19) 0.33752(13)
O2 O 0.74298(17) 0.91903(19) 0.23064(13)
O3 O 0.79237(14) 1.55982(17) -0.01631(11)
O4 O 0.67889(15) 1.52070(18) -0.11895(11)
C1 C 0.9463(2) 1.2024(2) 0.22116(16)
C2 C 1.0349(2) 1.2435(3) 0.24270(17)
H1 H 1.0464 1.3030 0.2175
C3 C 1.1038(2) 1.1970(3) 0.30003(18)
H2 H 1.1617 1.2258 0.3143
C4 C 1.0875(2) 1.1060(3) 0.33735(18)
H3 H 1.1350 1.0742 0.3761
C5 C 1.0032(2) 1.0636(3) 0.31774(17)
H4 H 0.9940 1.0026 0.3431
C6 C 0.9291(2) 1.1102(2) 0.25962(15)
C7 C 0.8376(2) 1.0734(2) 0.23566(16)
C8 C 0.7737(2) 1.1285(2) 0.17898(16)
H5 H 0.7138 1.1064 0.1631
C9 C 0.7975(2) 1.2191(2) 0.14385(16)
C10 C 0.7281(2) 1.2792(2) 0.08233(16)
C11 C 0.7538(2) 1.3639(2) 0.04454(15)
H6 H 0.8144 1.3812 0.0584
C12 C 0.6910(2) 1.4203(2) -0.01177(15)
C13 C 0.5981(2) 1.3969(2) -0.02952(16)
C14 C 0.5258(2) 1.4560(3) -0.08137(16)
H7 H 0.5376 1.5138 -0.1077
C15 C 0.4391(2) 1.4300(3) -0.09353(19)
H8 H 0.3924 1.4709 -0.1273
C16 C 0.4196(2) 1.3421(3) -0.0556(2)
H9 H 0.3600 1.3236 -0.0652
C17 C 0.4871(2) 1.2840(3) -0.0051(2)
H10 H 0.4734 1.2256 0.0198
C18 C 0.5780(2) 1.3102(2) 0.01055(17)
C19 C 0.8069(2) 0.9763(2) 0.27030(19)
C20 C 0.7230(2) 1.5069(2) -0.05201(17)
C21 C 0.9770(2) 0.8451(3) 0.50074(18)
H11 H 0.9525 0.9104 0.5105
C22 C 1.0680(2) 0.8230(3) 0.54216(19)
H12 H 1.1031 0.8722 0.5782
C23 C 1.1033(2) 0.7270(3) 0.5278(2)
H13 H 1.1636 0.7100 0.5543
C24 C 1.0497(2) 0.6536(3) 0.47346(18)
C25 C 1.0822(3) 0.5504(3) 0.4566(2)
H14 H 1.1418 0.5301 0.4826
C26 C 1.0289(3) 0.4830(3) 0.4044(2)
H15 H 1.0522 0.4164 0.3950
C27 C 0.9369(2) 0.5103(3) 0.36240(19)
C28 C 0.8787(3) 0.4424(3) 0.3072(2)
H16 H 0.8987 0.3742 0.2969
C29 C 0.7934(3) 0.4757(3) 0.2689(2)
H17 H 0.7541 0.4308 0.2321
C30 C 0.7649(3) 0.5783(3) 0.2850(2)
H18 H 0.7062 0.6008 0.2575
C31 C 0.9020(2) 0.6123(2) 0.37651(17)
C32 C 0.9594(2) 0.6836(2) 0.43420(16)
C33 C 0.7655(2) 0.6785(3) 0.51564(18)
H19 H 0.8183 0.7179 0.5408
C34 C 0.7381(3) 0.5980(3) 0.5535(2)
H20 H 0.7716 0.5845 0.6028
C35 C 0.6613(3) 0.5395(3) 0.5169(2)
H21 H 0.6433 0.4834 0.5407
C36 C 0.6097(3) 0.5633(3) 0.4440(2)
C37 C 0.5234(3) 0.5143(3) 0.4041(3)
H22 H 0.5032 0.4562 0.4249
C38 C 0.4716(3) 0.5505(3) 0.3374(3)
H23 H 0.4142 0.5206 0.3142
C39 C 0.5018(2) 0.6338(3) 0.3008(2)
C40 C 0.4501(3) 0.6731(4) 0.2304(3)
H24 H 0.3920 0.6462 0.2055
C41 C 0.4846(3) 0.7504(3) 0.1986(2)
H25 H 0.4503 0.7784 0.1524
C42 C 0.5722(3) 0.7870(3) 0.2363(2)
H26 H 0.5964 0.8372 0.2131
C43 C 0.5887(2) 0.6793(2) 0.33628(18)
C44 C 0.6419(2) 0.6468(2) 0.41003(18)
Cd1C Cd 0.771309(15) 1.671800(16) -0.127472(12)
O3C O 0.79237(14) 0.94018(17) 0.48369(11)
O4C O 0.67889(15) 0.97930(18) 0.38105(11)
loop_
_geom_bond_atom_site_label_1
_geom_bond_atom_site_label_2
_geom_bond_site_symmetry_1
_geom_bond_site_symmetry_2
Cd1 N3 1_555 1_555
N1 C1 1_555 1_555
N2 C10 1_555 1_555
N3 C21 1_555 1_555
N4 Cd1 1_555 1_555
N5 Cd1 1_555 1_555
N6 Cd1 1_555 1_555
O1 Cd1 1_555 1_555
O2 C19 1_555 1_555
O3 C20 1_555 1_555
O4 C20 1_555 1_555
C1 C2 1_555 1_555
C2 H1 1_555 1_555
C3 C2 1_555 1_555
H2 C3 1_555 1_555
C4 C3 1_555 1_555
H3 C4 1_555 1_555
C5 C4 1_555 1_555
H4 C5 1_555 1_555
C6 C1 1_555 1_555
C7 C6 1_555 1_555
C8 C7 1_555 1_555
H5 C8 1_555 1_555
C9 N1 1_555 1_555
C10 C9 1_555 1_555
C11 C10 1_555 1_555
H6 C11 1_555 1_555
C12 C11 1_555 1_555
C13 C12 1_555 1_555
C14 C13 1_555 1_555
H7 C14 1_555 1_555
C15 C14 1_555 1_555
H8 C15 1_555 1_555
C16 C15 1_555 1_555
H9 C16 1_555 1_555
C17 C16 1_555 1_555
H10 C17 1_555 1_555
C18 N2 1_555 1_555
C19 O1 1_555 1_555
C20 C12 1_555 1_555
C21 H11 1_555 1_555
C22 C21 1_555 1_555
H12 C22 1_555 1_555
C23 C22 1_555 1_555
H13 C23 1_555 1_555
C24 C23 1_555 1_555
C25 C24 1_555 1_555
H14 C25 1_555 1_555
C26 C25 1_555 1_555
H15 C26 1_555 1_555
C27 C26 1_555 1_555
C28 C27 1_555 1_555
H16 C28 1_555 1_555
C29 C28 1_555 1_555
H17 C29 1_555 1_555
C30 N4 1_555 1_555
H18 C30 1_555 1_555
C31 N4 1_555 1_555
C32 N3 1_555 1_555
C33 N5 1_555 1_555
H19 C33 1_555 1_555
C34 C33 1_555 1_555
H20 C34 1_555 1_555
C35 C34 1_555 1_555
H21 C35 1_555 1_555
C36 C35 1_555 1_555
C37 C36 1_555 1_555
H22 C37 1_555 1_555
C38 C37 1_555 1_555
H23 C38 1_555 1_555
C39 C38 1_555 1_555
C40 C39 1_555 1_555
H24 C40 1_555 1_555
C41 C40 1_555 1_555
H25 C41 1_555 1_555
C42 N6 1_555 1_555
H26 C42 1_555 1_555
C43 N6 1_555 1_555
C44 N5 1_555 1_555
Cd1C O3 1_555 1_555
O3C Cd1 1_555 1_555
O4C Cd1 1_555 1_555
O4 Cd1C 1_555 1_555
C5 C6 1_555 1_555
C7 C19 1_555 1_555
C8 C9 1_555 1_555
C13 C18 1_555 1_555
C17 C18 1_555 1_555
C24 C32 1_555 1_555
C27 C31 1_555 1_555
C29 C30 1_555 1_555
C31 C32 1_555 1_555
C36 C44 1_555 1_555
C39 C43 1_555 1_555
C41 C42 1_555 1_555
C43 C44 1_555 1_555

#END
