
#######################################################################
#
#                 Cambridge Crystallographic Data Centre
#                                CCDC 
#
#######################################################################
#
# If this CIF has been generated from an entry in the Cambridge 
# Structural Database, then it will include bibliographic, chemical, 
# crystal, experimental, refinement or atomic coordinate data resulting 
# from the CCDC's data processing and validation procedures.
#
#######################################################################

data_TINBAU
_symmetry_cell_setting           triclinic
_symmetry_space_group_name_H-M   'P -1'
_symmetry_Int_Tables_number      2
_space_group_name_Hall           '-P 1'
loop_
_symmetry_equiv_pos_site_id
_symmetry_equiv_pos_as_xyz
1 x,y,z
2 -x,-y,-z
_cell_length_a                   8.2123(13)
_cell_length_b                   11.8565(19)
_cell_length_c                   13.097(2)
_cell_angle_alpha                94.400(2)
_cell_angle_beta                 93.621(2)
_cell_angle_gamma                101.030(2)
_cell_volume                     1244.04
loop_
_atom_site_label
_atom_site_type_symbol
_atom_site_fract_x
_atom_site_fract_y
_atom_site_fract_z
Cd1 Cd 0.23754(7) 0.96666(4) -0.01073(4)
N1 N 0.1026(8) 1.5267(5) 0.1247(4)
N2 N 0.6117(7) 0.8892(5) 0.4735(4)
N3 N 0.2817(7) 0.7907(5) -0.0818(4)
N4 N 0.1233(7) 0.9342(5) -0.1829(4)
O1 O 0.0496(7) 1.1195(4) -0.0159(4)
O2 O 0.2904(8) 1.1510(5) 0.0700(5)
O3 O 0.5219(6) 0.9572(4) 0.1008(3)
O4 O 0.2735(7) 0.9157(5) 0.1545(3)
C1 C 0.0431(8) 1.4695(5) 0.0371(5)
C2 C 0.0573(8) 1.3556(5) 0.0115(5)
H1 H 0.0108 1.3181 -0.0516
C3 C 0.1386(9) 1.2991(5) 0.0783(5)
C4 C 0.1989(9) 1.3566(6) 0.1751(5)
C5 C 0.2774(10) 1.3069(7) 0.2549(6)
H2 H 0.2918 1.2310 0.2445
C6 C 0.3310(12) 1.3677(10) 0.3451(7)
H3 H 0.3792 1.3331 0.3974
C7 C 0.3153(13) 1.4819(10) 0.3612(7)
H4 H 0.3563 1.5242 0.4234
C8 C 0.2413(12) 1.5317(8) 0.2877(6)
H5 H 0.2316 1.6084 0.2997
C9 C 0.1790(9) 1.4714(6) 0.1940(5)
C10 C 0.1602(10) 1.1805(6) 0.0435(6)
C11 C 0.5199(9) 0.9647(6) 0.4549(5)
C12 C 0.4564(9) 0.9786(6) 0.3551(5)
H6 H 0.3858 1.0303 0.3457
C13 C 0.4976(8) 0.9173(6) 0.2734(5)
C14 C 0.6020(8) 0.8382(6) 0.2899(5)
C15 C 0.6595(10) 0.7719(6) 0.2109(5)
H7 H 0.6273 0.7791 0.1427
C16 C 0.7602(10) 0.6982(6) 0.2325(6)
H8 H 0.7983 0.6560 0.1795
C17 C 0.8075(11) 0.6851(7) 0.3344(6)
H9 H 0.8760 0.6334 0.3489
C18 C 0.7548(10) 0.7467(6) 0.4123(5)
H10 H 0.7865 0.7365 0.4799
C19 C 0.6529(9) 0.8256(6) 0.3924(5)
C20 C 0.4272(10) 0.9324(5) 0.1677(5)
C21 C 0.3485(9) 0.7171(6) -0.0314(6)
H11 H 0.3718 0.7316 0.0393
C22 C 0.3855(10) 0.6175(6) -0.0811(8)
H12 H 0.4289 0.5652 -0.0434
C23 C 0.3579(12) 0.5980(7) -0.1832(8)
H13 H 0.3868 0.5336 -0.2168
C24 C 0.2876(11) 0.6720(7) -0.2385(7)
C25 C 0.2491(13) 0.6563(9) -0.3472(8)
H14 H 0.2757 0.5932 -0.3844
C26 C 0.1769(14) 0.7288(9) -0.3956(7)
H15 H 0.1540 0.7156 -0.4665
C27 C 0.1327(11) 0.8262(7) -0.3439(6)
C28 C 0.0483(11) 0.9011(9) -0.3911(6)
H16 H 0.0250 0.8920 -0.4620
C29 C -0.0001(11) 0.9864(8) -0.3355(6)
H17 H -0.0599 1.0353 -0.3667
C30 C 0.0402(9) 1.0003(7) -0.2318(5)
H18 H 0.0066 1.0601 -0.1937
C31 C 0.1667(9) 0.8461(6) -0.2386(5)
C32 C 0.2494(9) 0.7681(6) -0.1840(5)
Cd1A Cd -0.23754(7) 2.03334(4) 0.01073(4)
Cd1A_2 Cd -0.23754(7) 1.03334(4) 0.01073(4)
Cd1A_3 Cd 0.76246(7) 1.03334(4) 0.01073(4)
Cd1_2 Cd 0.23754(7) 1.96666(4) -0.01073(4)
Cd1_3 Cd 0.23754(7) 0.96666(4) 0.98927(4)
Cd1A_4 Cd 0.76246(7) 1.03334(4) 1.01073(4)
N1A N -0.1026(8) 1.4733(5) -0.1247(4)
N2A N 0.3883(7) 1.1108(5) 0.5265(4)
N3A N -0.2817(7) 2.2093(5) 0.0818(4)
N4A N -0.1233(7) 2.0658(5) 0.1829(4)
O1A O -0.0496(7) 1.8805(4) 0.0159(4)
O1A_2 O -0.0496(7) 0.8805(4) 0.0159(4)
O1_2 O 0.0496(7) 2.1195(4) -0.0159(4)
O2A O -0.2904(8) 1.8490(5) -0.0700(5)
O3A O 0.4781(6) 1.0428(4) 0.8992(3)
O3A_2 O 0.4781(6) 1.0428(4) -0.1008(3)
O3_2 O -0.4781(6) 1.9572(4) 0.1008(3)
O3A_3 O -0.5219(6) 2.0428(4) -0.1008(3)
O4A O 0.7265(7) 1.0843(5) 0.8455(3)
O4A_2 O -0.2735(7) 2.0843(5) -0.1545(3)
C1A C -0.0431(8) 1.5305(5) -0.0371(5)
C2A C -0.0573(8) 1.6444(5) -0.0115(5)
H1A H -0.0108 1.6819 0.0516
C3A C -0.1386(9) 1.7009(5) -0.0783(5)
C4A C -0.1989(9) 1.6434(6) -0.1751(5)
C5A C -0.2774(10) 1.6931(7) -0.2549(6)
H2A H -0.2918 1.7690 -0.2445
C6A C -0.3310(12) 1.6323(10) -0.3451(7)
H3A H -0.3792 1.6669 -0.3974
C7A C -0.3153(13) 1.5181(10) -0.3612(7)
H4A H -0.3563 1.4758 -0.4234
C8A C -0.2413(12) 1.4683(8) -0.2877(6)
H5A H -0.2316 1.3916 -0.2997
C9A C -0.1790(9) 1.5286(6) -0.1940(5)
C10A C -0.1602(10) 1.8195(6) -0.0435(6)
C11A C 0.4801(9) 1.0353(6) 0.5451(5)
C12A C 0.5436(9) 1.0214(6) 0.6449(5)
H6A H 0.6142 0.9697 0.6543
C13A C 0.5024(8) 1.0827(6) 0.7266(5)
C14A C 0.3980(8) 1.1618(6) 0.7101(5)
C15A C 0.3405(10) 1.2281(6) 0.7891(5)
H7A H 0.3727 1.2209 0.8573
C16A C 0.2398(10) 1.3018(6) 0.7675(6)
H8A H 0.2017 1.3440 0.8205
C17A C 0.1925(11) 1.3149(7) 0.6656(6)
H9A H 0.1240 1.3666 0.6511
C18A C 0.2452(10) 1.2533(6) 0.5877(5)
H10A H 0.2135 1.2635 0.5201
C19A C 0.3471(9) 1.1744(6) 0.6076(5)
C20A C 0.5728(10) 1.0676(5) 0.8323(5)
C21A C -0.3485(9) 2.2829(6) 0.0314(6)
H11A H -0.3718 2.2684 -0.0393
C22A C -0.3855(10) 2.3825(6) 0.0811(8)
H12A H -0.4289 2.4348 0.0434
C23A C -0.3579(12) 2.4020(7) 0.1832(8)
H13A H -0.3868 2.4664 0.2168
C24A C -0.2876(11) 2.3280(7) 0.2385(7)
C25A C -0.2491(13) 2.3437(9) 0.3472(8)
H14A H -0.2757 2.4068 0.3844
C26A C -0.1769(14) 2.2712(9) 0.3956(7)
H15A H -0.1540 2.2844 0.4665
C27A C -0.1327(11) 2.1738(7) 0.3439(6)
C28A C -0.0483(11) 2.0989(9) 0.3911(6)
H16A H -0.0250 2.1080 0.4620
C29A C 0.0001(11) 2.0136(8) 0.3355(6)
H17A H 0.0599 1.9647 0.3667
C30A C -0.0402(9) 1.9997(7) 0.2318(5)
H18A H -0.0066 1.9399 0.1937
C31A C -0.1667(9) 2.1539(6) 0.2386(5)
C32A C -0.2494(9) 2.2319(6) 0.1840(5)
loop_
_geom_bond_atom_site_label_1
_geom_bond_atom_site_label_2
_geom_bond_site_symmetry_1
_geom_bond_site_symmetry_2
Cd1 N3 1_555 1_555
N1 C1 1_555 1_555
N2 C11 1_555 1_555
N3 C21 1_555 1_555
N4 Cd1 1_555 1_555
O1 Cd1 1_555 1_555
O2 Cd1 1_555 1_555
O3 Cd1 1_555 1_555
O4 Cd1 1_555 1_555
C1 C2 1_555 1_555
C2 H1 1_555 1_555
C3 C2 1_555 1_555
C4 C3 1_555 1_555
C5 C4 1_555 1_555
H2 C5 1_555 1_555
C6 C5 1_555 1_555
H3 C6 1_555 1_555
C7 C6 1_555 1_555
H4 C7 1_555 1_555
C8 C7 1_555 1_555
H5 C8 1_555 1_555
C9 N1 1_555 1_555
C10 O1 1_555 1_555
C11 C12 1_555 1_555
C12 H6 1_555 1_555
C13 C12 1_555 1_555
C14 C13 1_555 1_555
C15 C14 1_555 1_555
H7 C15 1_555 1_555
C16 C15 1_555 1_555
H8 C16 1_555 1_555
C17 C16 1_555 1_555
H9 C17 1_555 1_555
C18 C17 1_555 1_555
H10 C18 1_555 1_555
C19 N2 1_555 1_555
C20 O3 1_555 1_555
C21 H11 1_555 1_555
C22 C21 1_555 1_555
H12 C22 1_555 1_555
C23 C22 1_555 1_555
H13 C23 1_555 1_555
C24 C23 1_555 1_555
C25 C24 1_555 1_555
H14 C25 1_555 1_555
C26 C25 1_555 1_555
H15 C26 1_555 1_555
C27 C26 1_555 1_555
C28 C27 1_555 1_555
H16 C28 1_555 1_555
C29 C28 1_555 1_555
H17 C29 1_555 1_555
C30 N4 1_555 1_555
H18 C30 1_555 1_555
C31 N4 1_555 1_555
C32 N3 1_555 1_555
Cd1A N3A 1_555 1_555
Cd1A_2 O1 1_555 1_555
Cd1A_3 O3 1_555 1_555
Cd1_2 O1A 1_555 1_555
Cd1_3 O3A 1_555 1_555
Cd1A_4 O3A 1_555 1_555
N1A C1A 1_555 1_555
N2A C11A 1_555 1_555
N3A C21A 1_555 1_555
N4A Cd1A 1_555 1_555
O1A Cd1A 1_555 1_555
O1A_2 Cd1 1_555 1_555
O1_2 Cd1A 1_555 1_555
O2A Cd1A 1_555 1_555
O3A C20A 1_555 1_555
O3A_2 Cd1 1_555 1_555
O3_2 Cd1A 1_555 1_555
O3A_3 Cd1A 1_555 1_555
O4A Cd1A_4 1_555 1_555
O4A_2 Cd1A 1_555 1_555
C1A C1 1_555 1_555
C2A C1A 1_555 1_555
H1A C2A 1_555 1_555
C3A C2A 1_555 1_555
C4A C3A 1_555 1_555
C5A C4A 1_555 1_555
H2A C5A 1_555 1_555
C6A C5A 1_555 1_555
H3A C6A 1_555 1_555
C7A C6A 1_555 1_555
H4A C7A 1_555 1_555
C8A C7A 1_555 1_555
H5A C8A 1_555 1_555
C9A N1A 1_555 1_555
C10A O1A 1_555 1_555
C11A C11 1_555 1_555
C12A C11A 1_555 1_555
H6A C12A 1_555 1_555
C13A C12A 1_555 1_555
C14A C13A 1_555 1_555
C15A C14A 1_555 1_555
H7A C15A 1_555 1_555
C16A C15A 1_555 1_555
H8A C16A 1_555 1_555
C17A C16A 1_555 1_555
H9A C17A 1_555 1_555
C18A C17A 1_555 1_555
H10A C18A 1_555 1_555
C19A N2A 1_555 1_555
C20A O4A 1_555 1_555
C21A H11A 1_555 1_555
C22A C21A 1_555 1_555
H12A C22A 1_555 1_555
C23A C22A 1_555 1_555
H13A C23A 1_555 1_555
C24A C23A 1_555 1_555
C25A C24A 1_555 1_555
H14A C25A 1_555 1_555
C26A C25A 1_555 1_555
H15A C26A 1_555 1_555
C27A C26A 1_555 1_555
C28A C27A 1_555 1_555
H16A C28A 1_555 1_555
C29A C28A 1_555 1_555
H17A C29A 1_555 1_555
C30A N4A 1_555 1_555
H18A C30A 1_555 1_555
C31A N4A 1_555 1_555
C32A N3A 1_555 1_555
O2 C10 1_555 1_555
O4 C20 1_555 1_555
C3 C10 1_555 1_555
C4 C9 1_555 1_555
C8 C9 1_555 1_555
C13 C20 1_555 1_555
C14 C19 1_555 1_555
C18 C19 1_555 1_555
C24 C32 1_555 1_555
C27 C31 1_555 1_555
C29 C30 1_555 1_555
C31 C32 1_555 1_555
Cd1A_2 O1A_2 1_555 1_555
Cd1A_3 O3A_2 1_555 1_555
Cd1_2 O1_2 1_555 1_555
O2A C10A 1_555 1_555
C3A C10A 1_555 1_555
C4A C9A 1_555 1_555
C8A C9A 1_555 1_555
C13A C20A 1_555 1_555
C14A C19A 1_555 1_555
C18A C19A 1_555 1_555
C24A C32A 1_555 1_555
C27A C31A 1_555 1_555
C29A C30A 1_555 1_555
C31A C32A 1_555 1_555

#END
