
#######################################################################
#
#                 Cambridge Crystallographic Data Centre
#                                CCDC 
#
#######################################################################
#
# If this CIF has been generated from an entry in the Cambridge 
# Structural Database, then it will include bibliographic, chemical, 
# crystal, experimental, refinement or atomic coordinate data resulting 
# from the CCDC's data processing and validation procedures.
#
#######################################################################

data_TINCOJ
_symmetry_cell_setting           rhombohedral
_symmetry_space_group_name_H-M   'R -3'
_symmetry_Int_Tables_number      148
_space_group_name_Hall           '-R 3'
loop_
_symmetry_equiv_pos_site_id
_symmetry_equiv_pos_as_xyz
1 x,y,z
2 -y,x-y,z
3 -x+y,-x,z
4 2/3+x,1/3+y,1/3+z
5 2/3-y,1/3+x-y,1/3+z
6 2/3-x+y,1/3-x,1/3+z
7 1/3+x,2/3+y,2/3+z
8 1/3-y,2/3+x-y,2/3+z
9 1/3-x+y,2/3-x,2/3+z
10 -x,-y,-z
11 y,-x+y,-z
12 x-y,x,-z
13 1/3-x,2/3-y,2/3-z
14 1/3+y,2/3-x+y,2/3-z
15 1/3+x-y,2/3+x,2/3-z
16 2/3-x,1/3-y,1/3-z
17 2/3+y,1/3-x+y,1/3-z
18 2/3+x-y,1/3+x,1/3-z
_cell_length_a                   23.7031(5)
_cell_length_b                   23.7031(5)
_cell_length_c                   13.2750(3)
_cell_angle_alpha                90
_cell_angle_beta                 90
_cell_angle_gamma                120.00
_cell_volume                     6459.15
loop_
_atom_site_label
_atom_site_type_symbol
_atom_site_fract_x
_atom_site_fract_y
_atom_site_fract_z
Ca1 Ca 0.71570(3) 0.11880(3) 0.28747(5)
N1 N 1.00572(15) 0.18366(17) 0.6133(3)
H1 H 1.0267 0.2112 0.5641
H2 H 1.0276 0.1787 0.6627
O1 O 0.73399(13) 0.09486(15) 0.4590(2)
O2 O 0.82423(13) 0.15715(13) 0.3745(2)
O3 O 0.83568(13) 0.02769(13) 0.85878(19)
O4 O 0.74125(14) -0.00397(14) 0.7851(2)
O5 O 0.61224(13) 0.03639(14) 0.3481(2)
O6 O 0.74377(15) 0.03686(13) 0.2539(2)
O7 O 0.72454(17) 0.21400(15) 0.3706(3)
O8 O 0.79423(16) 0.20222(18) 0.1702(3)
C1 C 0.79493(18) 0.12543(17) 0.4525(3)
C2 C 0.83392(17) 0.12089(16) 0.5394(3)
C3 C 0.80105(17) 0.08023(16) 0.6200(3)
H3 H 0.7548 0.0573 0.6222
C4 C 0.83679(16) 0.07355(17) 0.6977(2)
C5 C 0.90466(17) 0.10740(17) 0.6945(3)
H4 H 0.9287 0.1030 0.7481
C6 C 0.93736(17) 0.14768(17) 0.6129(3)
C7 C 0.90143(16) 0.15451(16) 0.5357(3)
H5 H 0.9233 0.1823 0.4802
C8 C 0.80197(17) 0.02929(18) 0.7855(3)
H6 H 0.606(2) 0.000(3) 0.375(4)
H7 H 0.5753 0.0211 0.3149
H8 H 0.7318 0.0084 0.2023
H9 H 0.7563 0.0238 0.3103
H10 H 0.7969 0.1948 0.1035
H11 H 0.8272 0.2358 0.2004
Ca1H Ca 0.73643(4) -0.04903(3) 0.95414(5)
O3D O 0.63898(13) 0.14132(18) 0.19211(19)
O4D O 0.67064(14) 0.07855(20) 0.1184(2)
O9 O 1.0465(4) 0.1209(5) 0.8099(12)
O10 O 0.6667 0.3333 0.144(3)
loop_
_geom_bond_atom_site_label_1
_geom_bond_atom_site_label_2
_geom_bond_site_symmetry_1
_geom_bond_site_symmetry_2
Ca1 O1 1_555 1_555
N1 H1 1_555 1_555
H2 N1 1_555 1_555
O1 C1 1_555 1_555
O2 Ca1 1_555 1_555
O3 C8 1_555 1_555
O4 C8 1_555 1_555
O5 Ca1 1_555 1_555
O6 Ca1 1_555 1_555
O7 Ca1 1_555 1_555
O8 Ca1 1_555 1_555
C1 O2 1_555 1_555
C2 C1 1_555 1_555
C3 C2 1_555 1_555
H3 C3 1_555 1_555
C4 C3 1_555 1_555
C5 C4 1_555 1_555
H4 C5 1_555 1_555
C6 N1 1_555 1_555
C7 C2 1_555 1_555
H5 C7 1_555 1_555
C8 C4 1_555 1_555
H6 O5 1_555 1_555
H7 O5 1_555 1_555
H8 O6 1_555 1_555
H9 O6 1_555 1_555
H10 O8 1_555 1_555
H11 O8 1_555 1_555
Ca1H O3 1_555 1_555
O3D Ca1 1_555 1_555
O4D Ca1 1_555 1_555
O4 Ca1H 1_555 1_555
C5 C6 1_555 1_555
C6 C7 1_555 1_555

#END
