
#######################################################################
#
#                 Cambridge Crystallographic Data Centre
#                                CCDC 
#
#######################################################################
#
# If this CIF has been generated from an entry in the Cambridge 
# Structural Database, then it will include bibliographic, chemical, 
# crystal, experimental, refinement or atomic coordinate data resulting 
# from the CCDC's data processing and validation procedures.
#
#######################################################################

data_TINCAV
_symmetry_cell_setting           triclinic
_symmetry_space_group_name_H-M   'P -1'
_symmetry_Int_Tables_number      2
_space_group_name_Hall           '-P 1'
loop_
_symmetry_equiv_pos_site_id
_symmetry_equiv_pos_as_xyz
1 x,y,z
2 -x,-y,-z
_cell_length_a                   7.325(3)
_cell_length_b                   8.162(3)
_cell_length_c                   8.791(3)
_cell_angle_alpha                65.345(4)
_cell_angle_beta                 86.015(4)
_cell_angle_gamma                84.203(5)
_cell_volume                     475.01
loop_
_atom_site_label
_atom_site_type_symbol
_atom_site_fract_x
_atom_site_fract_y
_atom_site_fract_z
Pr1 Pr 1.93021(3) 0.25838(3) 0.99208(2)
O1 O 1.6059(4) 0.3669(4) 0.8874(4)
O2 O 1.8287(4) 0.5064(4) 0.7188(4)
O3 O 1.1652(4) 0.5068(4) 0.9098(3)
O4 O 1.2170(4) 0.3085(4) 0.8007(4)
O5 O 1.0880(4) 1.1273(4) 0.2677(4)
O6 O 1.1008(4) 0.9405(4) 0.1459(3)
O7 O 1.7105(4) 1.0652(4) 0.2112(4)
O8 O 1.4369(5) 1.1138(7) 0.1043(5)
H1 H 1.4853 1.1981 0.0293
C1 C 1.6617(5) 0.4898(5) 0.7529(5)
C2 C 1.2403(5) 0.4589(5) 0.7963(5)
C3 C 1.1495(5) 0.9839(5) 0.2603(5)
C4 C 1.5520(6) 1.0284(6) 0.2216(5)
C5 C 1.5237(5) 0.6177(5) 0.6311(5)
C6 C 1.3337(5) 0.5990(5) 0.6501(5)
C7 C 1.2161(5) 0.7178(6) 0.5270(5)
H2 H 1.0908 0.7035 0.5390
C8 C 1.2842(5) 0.8577(5) 0.3861(5)
C9 C 1.4725(5) 0.8802(5) 0.3694(5)
C10 C 1.5899(5) 0.7606(5) 0.4912(5)
H3 H 1.7149 0.7761 0.4793
Pr1_2 Pr 0.93021(3) 0.25838(3) 0.99208(2)
Pr1A Pr 1.06979(3) 0.74162(3) 1.00792(2)
Pr1_3 Pr 0.93021(3) 1.25838(3) -0.00792(2)
Pr1A_2 Pr 1.06979(3) 0.74162(3) 0.00792(2)
Pr1_4 Pr 1.93021(3) 1.25838(3) -0.00792(2)
O3_2 O 2.1652(4) 0.5068(4) 0.9098(3)
O3A O 1.8348(4) 0.4932(4) 1.0902(3)
O4_2 O 2.2170(4) 0.3085(4) 0.8007(4)
O5_2 O 2.0880(4) 0.1273(4) 1.2677(4)
O6_2 O 2.1008(4) -0.0595(4) 1.1459(3)
O6A O 1.8992(4) 0.0595(4) 0.8541(3)
O7_2 O 1.7105(4) 0.0652(4) 1.2112(4)
loop_
_geom_bond_atom_site_label_1
_geom_bond_atom_site_label_2
_geom_bond_site_symmetry_1
_geom_bond_site_symmetry_2
Pr1 O1 1_555 1_555
O1 C1 1_555 1_555
O2 Pr1 1_555 1_555
O3 C2 1_555 1_555
O4 C2 1_555 1_555
O5 C3 1_555 1_555
O6 C3 1_555 1_555
O7 C4 1_555 1_555
O8 H1 1_555 1_555
C1 O2 1_555 1_555
C2 C6 1_555 1_555
C3 C8 1_555 1_555
C4 O8 1_555 1_555
C5 C1 1_555 1_555
C6 C5 1_555 1_555
C7 C6 1_555 1_555
H2 C7 1_555 1_555
C8 C7 1_555 1_555
C9 C4 1_555 1_555
C10 C5 1_555 1_555
H3 C10 1_555 1_555
Pr1_2 O3 1_555 1_555
Pr1A O3 1_555 1_555
Pr1_3 O5 1_555 1_555
Pr1A_2 O6 1_555 1_555
Pr1_4 O7 1_555 1_555
O3_2 Pr1 1_555 1_555
O3A Pr1 1_555 1_555
O4_2 Pr1 1_555 1_555
O5_2 Pr1 1_555 1_555
O6_2 Pr1 1_555 1_555
O6A Pr1 1_555 1_555
O7_2 Pr1 1_555 1_555
O4 Pr1_2 1_555 1_555
O6 Pr1_3 1_555 1_555
C8 C9 1_555 1_555
C9 C10 1_555 1_555

#END
