
#######################################################################
#
#                 Cambridge Crystallographic Data Centre
#                                CCDC 
#
#######################################################################
#
# If this CIF has been generated from an entry in the Cambridge 
# Structural Database, then it will include bibliographic, chemical, 
# crystal, experimental, refinement or atomic coordinate data resulting 
# from the CCDC's data processing and validation procedures.
#
#######################################################################

data_TINDAW
_symmetry_cell_setting           orthorhombic
_symmetry_space_group_name_H-M   'P c c n'
_symmetry_Int_Tables_number      56
_space_group_name_Hall           '-P 2ab 2ac'
loop_
_symmetry_equiv_pos_site_id
_symmetry_equiv_pos_as_xyz
1 x,y,z
2 1/2-x,1/2-y,z
3 -x,1/2+y,1/2-z
4 1/2+x,-y,1/2-z
5 -x,-y,-z
6 1/2+x,1/2+y,-z
7 x,1/2-y,1/2+z
8 1/2-x,y,1/2+z
_cell_length_a                   22.117(3)
_cell_length_b                   15.280(2)
_cell_length_c                   21.380(3)
_cell_angle_alpha                90
_cell_angle_beta                 90
_cell_angle_gamma                90
_cell_volume                     7225.32
loop_
_atom_site_label
_atom_site_type_symbol
_atom_site_fract_x
_atom_site_fract_y
_atom_site_fract_z
Na1 Na 0.2500 0.2500 -0.20927(5)
Cu1 Cu 0.399750(11) 0.454400(15) -0.407280(11)
Cu2 Cu 0.384950(11) 0.463150(15) -0.519100(11)
Cu3 Cu 0.327910(11) 0.326800(15) -0.459340(11)
O1 O 0.46392(6) 0.41775(9) -0.52710(6)
O2 O 0.29471(7) 0.34352(10) -0.27512(6)
N1 N 0.41796(7) 0.45402(10) -0.31282(8)
N2 N 0.46192(7) 0.37318(11) -0.42640(8)
N3 N 0.33595(7) 0.32033(10) -0.37215(8)
C1 C 0.41071(9) 0.52870(14) -0.28021(10)
H1 H 0.3981 0.5798 -0.3019
C2 C 0.42085(10) 0.53402(15) -0.21675(10)
H2 H 0.4159 0.5878 -0.1951
C3 C 0.43846(10) 0.45924(15) -0.18534(10)
H3 H 0.4460 0.4608 -0.1416
C4 C 0.44491(10) 0.38240(15) -0.21828(10)
H4 H 0.4564 0.3304 -0.1970
C5 C 0.43469(9) 0.38034(13) -0.28253(10)
C6 C 0.44227(9) 0.29846(13) -0.32205(10)
C7 C 0.47150(11) 0.22382(15) -0.28465(11)
H5 H 0.5122 0.2413 -0.2715
H6 H 0.4741 0.1714 -0.3109
H7 H 0.4469 0.2111 -0.2476
C8 C 0.48575(9) 0.31529(13) -0.37736(10)
H8 H 0.5235 0.3412 -0.3608
H9 H 0.4963 0.2583 -0.3966
C9 C 0.48708(9) 0.37413(13) -0.48199(10)
C10 C 0.54371(10) 0.32383(15) -0.49673(11)
H10 H 0.5345 0.2611 -0.4983
H11 H 0.5740 0.3348 -0.4642
H12 H 0.5596 0.3427 -0.5373
C11 C 0.38008(9) 0.26102(13) -0.34382(10)
H13 H 0.3883 0.2137 -0.3743
H14 H 0.3606 0.2335 -0.3071
C12 C 0.29485(9) 0.35404(13) -0.33320(9)
C13 C 0.24497(9) 0.40870(14) -0.36146(10)
H15 H 0.2059 0.3805 -0.3537
H16 H 0.2515 0.4141 -0.4066
H17 H 0.2452 0.4670 -0.3424
O3 O 0.34798(7) 0.55261(9) -0.40087(6)
O4 O 0.32750(6) 0.28382(10) -0.64523(6)
N4 N 0.37515(7) 0.48018(11) -0.61396(8)
N5 N 0.31519(8) 0.53056(10) -0.49956(8)
N6 N 0.31508(7) 0.33557(11) -0.54552(7)
C14 C 0.42472(10) 0.48500(14) -0.65014(10)
H18 H 0.4633 0.4848 -0.6306
C15 C 0.42203(11) 0.49018(16) -0.71409(10)
H19 H 0.4579 0.4949 -0.7383
C16 C 0.36587(11) 0.48833(17) -0.74274(11)
H20 H 0.3626 0.4918 -0.7870
C17 C 0.31478(11) 0.48135(16) -0.70601(10)
H21 H 0.2759 0.4791 -0.7249
C18 C 0.32028(9) 0.47756(14) -0.64125(10)
C19 C 0.26590(9) 0.47171(14) -0.59752(9)
C20 C 0.20642(10) 0.48692(15) -0.63298(10)
H22 H 0.2070 0.5451 -0.6522
H23 H 0.1724 0.4830 -0.6037
H24 H 0.2019 0.4424 -0.6656
C21 C 0.26891(10) 0.54423(14) -0.54766(10)
H25 H 0.2769 0.6007 -0.5688
H26 H 0.2290 0.5487 -0.5270
C22 C 0.30988(10) 0.56815(13) -0.44535(10)
C23 C 0.25991(11) 0.63103(15) -0.43009(11)
H27 H 0.2546 0.6720 -0.4649
H28 H 0.2703 0.6636 -0.3921
H29 H 0.2223 0.5985 -0.4233
C24 C 0.25969(9) 0.37951(13) -0.56689(9)
H30 H 0.2323 0.3851 -0.5305
H31 H 0.2395 0.3406 -0.5974
C25 C 0.34348(9) 0.28846(13) -0.58943(9)
C26 C 0.39848(9) 0.23705(14) -0.56907(10)
H32 H 0.3930 0.1752 -0.5798
H33 H 0.4038 0.2429 -0.5237
H34 H 0.4344 0.2598 -0.5905
Na1F Na 0.2500 0.2500 -0.70927(5)
O2A O 0.20529(7) 0.15648(10) -0.27512(6)
O4G O 0.17250(6) 0.28382(10) -0.14523(6)
O4F O 0.32750(6) 0.21618(10) -0.14523(6)
O4A O 0.17250(6) 0.21618(10) -0.64523(6)
loop_
_geom_bond_atom_site_label_1
_geom_bond_atom_site_label_2
_geom_bond_site_symmetry_1
_geom_bond_site_symmetry_2
Na1 O2 1_555 1_555
Cu1 Cu2 1_555 1_555
Cu2 O1 1_555 1_555
Cu3 N3 1_555 1_555
O1 C9 1_555 1_555
O2 C12 1_555 1_555
N1 Cu1 1_555 1_555
N2 Cu1 1_555 1_555
N3 C11 1_555 1_555
C1 N1 1_555 1_555
H1 C1 1_555 1_555
C2 C1 1_555 1_555
H2 C2 1_555 1_555
C3 C2 1_555 1_555
H3 C3 1_555 1_555
C4 C3 1_555 1_555
H4 C4 1_555 1_555
C5 N1 1_555 1_555
C6 C5 1_555 1_555
C7 C6 1_555 1_555
H5 C7 1_555 1_555
H6 C7 1_555 1_555
H7 C7 1_555 1_555
C8 N2 1_555 1_555
H8 C8 1_555 1_555
H9 C8 1_555 1_555
C9 N2 1_555 1_555
C10 C9 1_555 1_555
H10 C10 1_555 1_555
H11 C10 1_555 1_555
H12 C10 1_555 1_555
C11 C6 1_555 1_555
H13 C11 1_555 1_555
H14 C11 1_555 1_555
C12 N3 1_555 1_555
C13 C12 1_555 1_555
H15 C13 1_555 1_555
H16 C13 1_555 1_555
H17 C13 1_555 1_555
O3 Cu1 1_555 1_555
O4 C25 1_555 1_555
N4 Cu2 1_555 1_555
N5 Cu2 1_555 1_555
N6 Cu3 1_555 1_555
C14 N4 1_555 1_555
H18 C14 1_555 1_555
C15 C14 1_555 1_555
H19 C15 1_555 1_555
C16 C15 1_555 1_555
H20 C16 1_555 1_555
C17 C16 1_555 1_555
H21 C17 1_555 1_555
C18 N4 1_555 1_555
C19 C18 1_555 1_555
C20 C19 1_555 1_555
H22 C20 1_555 1_555
H23 C20 1_555 1_555
H24 C20 1_555 1_555
C21 N5 1_555 1_555
H25 C21 1_555 1_555
H26 C21 1_555 1_555
C22 O3 1_555 1_555
C23 C22 1_555 1_555
H27 C23 1_555 1_555
H28 C23 1_555 1_555
H29 C23 1_555 1_555
C24 N6 1_555 1_555
H30 C24 1_555 1_555
H31 C24 1_555 1_555
C25 N6 1_555 1_555
C26 C25 1_555 1_555
H32 C26 1_555 1_555
H33 C26 1_555 1_555
H34 C26 1_555 1_555
Na1F O4 1_555 1_555
O2A Na1 1_555 1_555
O4G Na1 1_555 1_555
O4F Na1 1_555 1_555
O4A Na1F 1_555 1_555
C4 C5 1_555 1_555
C6 C8 1_555 1_555
N5 C22 1_555 1_555
C17 C18 1_555 1_555
C19 C21 1_555 1_555
C19 C24 1_555 1_555

#END
