
#######################################################################
#
#                 Cambridge Crystallographic Data Centre
#                                CCDC 
#
#######################################################################
#
# If this CIF has been generated from an entry in the Cambridge 
# Structural Database, then it will include bibliographic, chemical, 
# crystal, experimental, refinement or atomic coordinate data resulting 
# from the CCDC's data processing and validation procedures.
#
#######################################################################

data_TINDEA
_symmetry_cell_setting           monoclinic
_symmetry_space_group_name_H-M   'P 21/n'
_symmetry_Int_Tables_number      14
_space_group_name_Hall           '-P 2yn'
loop_
_symmetry_equiv_pos_site_id
_symmetry_equiv_pos_as_xyz
1 x,y,z
2 1/2-x,1/2+y,1/2-z
3 -x,-y,-z
4 1/2+x,1/2-y,1/2+z
_cell_length_a                   12.633(3)
_cell_length_b                   19.231(5)
_cell_length_c                   15.626(5)
_cell_angle_alpha                90
_cell_angle_beta                 93.685(9)
_cell_angle_gamma                90
_cell_volume                     3788.41
loop_
_atom_site_label
_atom_site_type_symbol
_atom_site_fract_x
_atom_site_fract_y
_atom_site_fract_z
O8 O 0.3318(4) 0.8913(2) 0.7515(3)
H35 H 0.388(4) 0.871(3) 0.722(4)
H36 H 0.330(5) 0.9342(18) 0.717(3)
O9 O -0.0286(5) 0.7577(3) 0.6404(4)
C28 C -0.0090(13) 0.8235(5) 0.6010(7)
H37 H -0.0755 0.8437 0.5749
H38 H 0.0424 0.8186 0.5561
C29 C 0.0354(9) 0.8674(6) 0.6729(6)
H39 H 0.0203 0.9172 0.6614
H40 H 0.1131 0.8610 0.6814
C30 C -0.0184(10) 0.8434(5) 0.7496(7)
H41 H 0.0269 0.8509 0.8029
H42 H -0.0871 0.8674 0.7544
C31 C -0.0337(12) 0.7683(5) 0.7314(6)
H43 H 0.0223 0.7409 0.7631
H44 H -0.1034 0.7529 0.7499
Cu1 Cu 0.64938(4) 0.65625(3) 0.70044(3)
Cu2 Cu 0.52830(4) 0.64876(3) 0.54585(3)
Cu3 Cu 0.65441(4) 0.55545(3) 0.57706(3)
O1 O 0.5077(2) 0.84169(14) 0.66304(18)
O2 O 0.5378(2) 0.50054(13) 0.60543(17)
N1 N 0.4254(3) 0.73006(17) 0.5180(2)
N2 N 0.5462(3) 0.72609(17) 0.6856(2)
N3 N 0.4308(3) 0.59522(18) 0.6033(2)
C1 C 0.4408(4) 0.7686(2) 0.4469(3)
H1 H 0.4938 0.7552 0.4097
C2 C 0.3802(4) 0.8271(2) 0.4284(3)
H2 H 0.3915 0.8535 0.3784
C3 C 0.3045(4) 0.8470(3) 0.4812(3)
H3 H 0.2622 0.8869 0.4685
C4 C 0.2902(4) 0.8078(2) 0.5541(3)
H4 H 0.2381 0.8212 0.5921
C5 C 0.3512(3) 0.7494(2) 0.5717(3)
C6 C 0.3432(3) 0.7054(2) 0.6518(3)
C7 C 0.2440(3) 0.7235(2) 0.6978(3)
H5 H 0.2480 0.7719 0.7172
H6 H 0.2390 0.6928 0.7474
H7 H 0.1812 0.7173 0.6584
C8 C 0.4408(3) 0.7178(2) 0.7173(3)
H8 H 0.4258 0.7599 0.7509
H9 H 0.4441 0.6781 0.7579
C9 C 0.5695(4) 0.7904(2) 0.6610(3)
C10 C 0.6774(3) 0.8026(2) 0.6284(3)
H10 H 0.6698 0.8144 0.5672
H11 H 0.7200 0.7603 0.6363
H12 H 0.7126 0.8410 0.6601
C11 C 0.3333(3) 0.6273(2) 0.6279(3)
H13 H 0.3080 0.6017 0.6777
H14 H 0.2787 0.6222 0.5800
C12 C 0.4473(4) 0.5292(2) 0.6191(3)
C13 C 0.3665(4) 0.4810(2) 0.6532(3)
H15 H 0.3834 0.4329 0.6385
H16 H 0.2959 0.4929 0.6279
H17 H 0.3675 0.4858 0.7157
O3 O 0.6248(2) 0.68436(14) 0.47200(18)
O4 O 0.8256(2) 0.50388(15) 0.81125(18)
N4 N 0.7607(3) 0.47441(18) 0.5984(2)
N5 N 0.7570(3) 0.59079(17) 0.7232(2)
N6 N 0.7532(3) 0.61337(18) 0.5256(2)
C14 C 0.7219(4) 0.4101(2) 0.5998(3)
H18 H 0.6481 0.4035 0.5866
C15 C 0.7852(4) 0.3520(2) 0.6197(3)
H19 H 0.7560 0.3064 0.6183
C16 C 0.8909(4) 0.3630(3) 0.6413(3)
H20 H 0.9364 0.3249 0.6559
C17 C 0.9307(4) 0.4304(2) 0.6417(3)
H21 H 1.0038 0.4385 0.6568
C18 C 0.8643(4) 0.4858(2) 0.6203(3)
C19 C 0.9020(3) 0.5602(2) 0.6197(3)
C20 C 1.0234(3) 0.5655(2) 0.6251(3)
H22 H 1.0444 0.6146 0.6244
H23 H 1.0513 0.5415 0.5760
H24 H 1.0521 0.5439 0.6784
C21 C 0.8641(3) 0.6028(2) 0.6969(3)
H25 H 0.9141 0.5935 0.7470
H26 H 0.8703 0.6527 0.6828
C22 C 0.7496(4) 0.5401(2) 0.7819(3)
C23 C 0.6409(3) 0.5255(2) 0.8111(3)
H27 H 0.6068 0.4893 0.7748
H28 H 0.5981 0.5680 0.8068
H29 H 0.6468 0.5096 0.8708
C24 C 0.8655(4) 0.5953(2) 0.5332(3)
H30 H 0.9077 0.6381 0.5265
H31 H 0.8807 0.5634 0.4858
C25 C 0.7234(4) 0.6673(2) 0.4786(3)
C26 C 0.7953(4) 0.7114(2) 0.4294(3)
H32 H 0.7538 0.7475 0.3985
H33 H 0.8307 0.6823 0.3884
H34 H 0.8487 0.7331 0.4691
Na1 Na 0.54422(13) 0.95092(8) 0.61437(11)
S1 S 0.36327(11) 1.06625(7) 0.60305(9)
O5 O 0.3701(3) 1.13563(15) 0.6317(2)
O6 O 0.4083(3) 1.0503(2) 0.5247(2)
O7 O 0.3933(3) 1.01525(18) 0.6662(3)
C27 C 0.2221(4) 1.0505(3) 0.5835(4)
F1 F 0.1695(2) 1.06623(17) 0.6491(2)
F2 F 0.1997(3) 0.9875(2) 0.5624(3)
F3 F 0.1879(3) 1.0906(3) 0.5195(3)
O4A O 0.6744(2) 1.00388(15) 0.68875(18)
Na1A Na 0.95578(13) 0.45092(8) 0.88563(11)
Na1B Na 0.45578(13) 1.04908(8) 0.38563(11)
O6B O 0.5917(3) 0.9497(2) 0.4753(2)
C32? C 0.0543(9) 0.7945(6) 0.4471(6)
H45? H 0.1313 0.7875 0.4492
H46? H 0.0301 0.8135 0.3910
H47? H 0.0191 0.7499 0.4559
C33? C 0.0296(9) 0.8435(5) 0.5143(6)
H48? H 0.0907 0.8746 0.5285
H49? H -0.0325 0.8723 0.4957
O10? O 0.0072(9) 0.8023(4) 0.5865(4)
C34? C -0.0083(11) 0.8480(5) 0.6558(7)
H50? H -0.0705 0.8783 0.6423
H51? H 0.0550 0.8777 0.6675
C35? C -0.0259(12) 0.8040(5) 0.7300(7)
H52? H -0.0778 0.7677 0.7137
H53? H -0.0527 0.8327 0.7757
H54? H 0.0413 0.7824 0.7504
loop_
_geom_bond_atom_site_label_1
_geom_bond_atom_site_label_2
_geom_bond_site_symmetry_1
_geom_bond_site_symmetry_2
Cu1 N2 1_555 1_555
Cu2 Cu3 1_555 1_555
Cu3 O2 1_555 1_555
O1 C9 1_555 1_555
O2 C12 1_555 1_555
N1 Cu2 1_555 1_555
N2 C8 1_555 1_555
N3 Cu2 1_555 1_555
C1 N1 1_555 1_555
H1 C1 1_555 1_555
C2 C1 1_555 1_555
H2 C2 1_555 1_555
C3 C2 1_555 1_555
H3 C3 1_555 1_555
C4 C3 1_555 1_555
H4 C4 1_555 1_555
C5 N1 1_555 1_555
C6 C5 1_555 1_555
C7 C6 1_555 1_555
H5 C7 1_555 1_555
H6 C7 1_555 1_555
H7 C7 1_555 1_555
C8 C6 1_555 1_555
H8 C8 1_555 1_555
H9 C8 1_555 1_555
C9 N2 1_555 1_555
C10 C9 1_555 1_555
H10 C10 1_555 1_555
H11 C10 1_555 1_555
H12 C10 1_555 1_555
C11 N3 1_555 1_555
H13 C11 1_555 1_555
H14 C11 1_555 1_555
C12 N3 1_555 1_555
C13 C12 1_555 1_555
H15 C13 1_555 1_555
H16 C13 1_555 1_555
H17 C13 1_555 1_555
O3 Cu2 1_555 1_555
O4 C22 1_555 1_555
N4 Cu3 1_555 1_555
N5 Cu1 1_555 1_555
N6 Cu3 1_555 1_555
C14 N4 1_555 1_555
H18 C14 1_555 1_555
C15 C14 1_555 1_555
H19 C15 1_555 1_555
C16 C15 1_555 1_555
H20 C16 1_555 1_555
C17 C16 1_555 1_555
H21 C17 1_555 1_555
C18 N4 1_555 1_555
C19 C18 1_555 1_555
C20 C19 1_555 1_555
H22 C20 1_555 1_555
H23 C20 1_555 1_555
H24 C20 1_555 1_555
C21 N5 1_555 1_555
H25 C21 1_555 1_555
H26 C21 1_555 1_555
C22 N5 1_555 1_555
C23 C22 1_555 1_555
H27 C23 1_555 1_555
H28 C23 1_555 1_555
H29 C23 1_555 1_555
C24 N6 1_555 1_555
H30 C24 1_555 1_555
H31 C24 1_555 1_555
C25 O3 1_555 1_555
C26 C25 1_555 1_555
H32 C26 1_555 1_555
H33 C26 1_555 1_555
H34 C26 1_555 1_555
Na1 O1 1_555 1_555
S1 O5 1_555 1_555
O6 Na1 1_555 1_555
O7 Na1 1_555 1_555
C27 S1 1_555 1_555
F1 C27 1_555 1_555
F2 C27 1_555 1_555
F3 C27 1_555 1_555
O8 H35 1_555 1_555
H36 O8 1_555 1_555
O9 C28 1_555 1_555
C28 H37 1_555 1_555
H38 C28 1_555 1_555
C29 C28 1_555 1_555
H39 C29 1_555 1_555
H40 C29 1_555 1_555
C30 C29 1_555 1_555
H41 C30 1_555 1_555
H42 C30 1_555 1_555
C31 O9 1_555 1_555
H43 C31 1_555 1_555
H44 C31 1_555 1_555
O4A Na1 1_555 1_555
Na1A O4 1_555 1_555
Na1B O6 1_555 1_555
O6B Na1 1_555 1_555
C4 C5 1_555 1_555
C6 C11 1_555 1_555
N6 C25 1_555 1_555
C17 C18 1_555 1_555
C19 C21 1_555 1_555
C19 C24 1_555 1_555
S1 O6 1_555 1_555
S1 O7 1_555 1_555
C30 C31 1_555 1_555
Na1B O6B 1_555 1_555

#END
