
#######################################################################
#
#                 Cambridge Crystallographic Data Centre
#                                CCDC 
#
#######################################################################
#
# If this CIF has been generated from an entry in the Cambridge 
# Structural Database, then it will include bibliographic, chemical, 
# crystal, experimental, refinement or atomic coordinate data resulting 
# from the CCDC's data processing and validation procedures.
#
#######################################################################

data_TINFIH
_symmetry_cell_setting           monoclinic
_symmetry_space_group_name_H-M   'P 21/n'
_symmetry_Int_Tables_number      14
_space_group_name_Hall           '-P 2yn'
loop_
_symmetry_equiv_pos_site_id
_symmetry_equiv_pos_as_xyz
1 x,y,z
2 1/2-x,1/2+y,1/2-z
3 -x,-y,-z
4 1/2+x,1/2-y,1/2+z
_cell_length_a                   10.327(3)
_cell_length_b                   12.129(3)
_cell_length_c                   15.073(4)
_cell_angle_alpha                90
_cell_angle_beta                 106.288(8)
_cell_angle_gamma                90
_cell_volume                     1812.21
loop_
_atom_site_label
_atom_site_type_symbol
_atom_site_fract_x
_atom_site_fract_y
_atom_site_fract_z
C1 C 0.5066(8) 0.1648(7) 0.4464(5)
C2 C 0.5759(8) 0.2196(7) 0.5271(6)
H1 H 0.6506 0.1873 0.5683
C3 C 0.5314(9) 0.3239(7) 0.5452(6)
C4 C 0.4147(9) 0.3668(7) 0.4807(6)
H2 H 0.3805 0.4353 0.4905
C5 C 0.3527(8) 0.3065(6) 0.4037(5)
C6 C 0.2307(8) 0.3454(6) 0.3303(6)
C7 C 0.5485(7) 0.0560(6) 0.4171(6)
N1 N 0.3951(7) 0.2067(5) 0.3851(4)
O1 O 0.1787(6) 0.0285(5) 0.3011(4)
O2 O 0.3764(7) 0.1788(5) 0.1819(4)
O3 O 0.4770(6) 0.0193(5) 0.3407(4)
O4 O 0.1787(7) 0.2803(5) 0.2664(4)
O5 O 0.1880(6) 0.4431(5) 0.3366(4)
O6 O 0.6486(6) 0.0067(5) 0.4684(4)
O7 O 0.8142(9) 0.0388(7) 0.3443(5)
O8 O 0.8583(7) -0.1786(6) 0.5090(5)
O9 O 0.6339(8) -0.1645(7) 0.3283(6)
O10 O 0.8963(8) -0.1915(9) 0.3119(7)
O11 O 0.9294(6) 0.0546(6) 0.5470(5)
O12 O 0.5896(6) 0.3804(5) 0.6202(4)
U1 U 0.27649(3) 0.10399(2) 0.24086(2)
U2 U 0.83824(3) -0.07060(3) 0.42753(2)
O5A O 0.3120(6) -0.0569(5) 0.1634(4)
O11B O 1.0706(6) -0.0546(6) 0.4530(5)
O12C O 0.0896(6) 0.1196(5) 0.1202(4)
U1A U 0.22351(3) 0.60399(2) 0.25914(2)
U1C U 0.77649(3) 0.39601(2) 0.74086(2)
U2B U 1.16176(3) 0.07060(3) 0.57247(2)
O13 O 0.654(2) -0.3899(13) 0.3228(12)
loop_
_geom_bond_atom_site_label_1
_geom_bond_atom_site_label_2
_geom_bond_site_symmetry_1
_geom_bond_site_symmetry_2
C1 C2 1_555 1_555
C2 H1 1_555 1_555
C3 C2 1_555 1_555
C4 C3 1_555 1_555
H2 C4 1_555 1_555
C5 C4 1_555 1_555
C6 C5 1_555 1_555
C7 C1 1_555 1_555
N1 C1 1_555 1_555
O1 U1 1_555 1_555
O2 U1 1_555 1_555
O3 C7 1_555 1_555
O4 C6 1_555 1_555
O5 C6 1_555 1_555
O6 C7 1_555 1_555
O7 U2 1_555 1_555
O8 U2 1_555 1_555
O9 U2 1_555 1_555
O10 U2 1_555 1_555
O11 U2 1_555 1_555
O12 C3 1_555 1_555
U1 N1 1_555 1_555
U2 O6 1_555 1_555
O5A U1 1_555 1_555
O11B U2 1_555 1_555
O12C U1 1_555 1_555
U1A O5 1_555 1_555
U1C O12 1_555 1_555
U2B O11 1_555 1_555
C5 N1 1_555 1_555
O3 U1 1_555 1_555
O4 U1 1_555 1_555
O11B U2B 1_555 1_555

#END
