
#######################################################################
#
#                 Cambridge Crystallographic Data Centre
#                                CCDC 
#
#######################################################################
#
# If this CIF has been generated from an entry in the Cambridge 
# Structural Database, then it will include bibliographic, chemical, 
# crystal, experimental, refinement or atomic coordinate data resulting 
# from the CCDC's data processing and validation procedures.
#
#######################################################################

data_TINFON
_symmetry_cell_setting           monoclinic
_symmetry_space_group_name_H-M   'P 21/n'
_symmetry_Int_Tables_number      14
_space_group_name_Hall           '-P 2yn'
loop_
_symmetry_equiv_pos_site_id
_symmetry_equiv_pos_as_xyz
1 x,y,z
2 1/2-x,1/2+y,1/2-z
3 -x,-y,-z
4 1/2+x,1/2-y,1/2+z
_cell_length_a                   10.0704(10)
_cell_length_b                   8.3162(8)
_cell_length_c                   13.6240(13)
_cell_angle_alpha                90
_cell_angle_beta                 106.0310(10)
_cell_angle_gamma                90
_cell_volume                     1096.61
loop_
_atom_site_label
_atom_site_type_symbol
_atom_site_fract_x
_atom_site_fract_y
_atom_site_fract_z
C1 C 0.2758(8) 0.5409(9) 0.1157(5)
C2 C 0.1779(8) 0.4241(9) 0.1082(5)
H1 H 0.0846 0.4492 0.0832
C3 C 0.2196(7) 0.2629(9) 0.1391(5)
C4 C 0.3617(7) 0.2412(9) 0.1849(5)
H2 H 0.3947 0.1414 0.2115
C5 C 0.4521(8) 0.3668(9) 0.1904(5)
C6 C 0.6055(8) 0.3547(8) 0.2306(5)
C7 C 0.2432(9) 0.7125(9) 0.0816(5)
N1 N 0.4121(6) 0.5163(7) 0.1559(4)
O1 O 0.6014(6) 0.6704(6) 0.0395(3)
O2 O 0.5660(5) 0.8024(6) 0.2756(4)
O3 O 0.6733(5) 0.4814(6) 0.2272(3)
O4 O 0.3448(6) 0.8016(6) 0.0808(4)
O5 O 0.5969(5) 1.0088(6) 0.1001(3)
O6 O 0.6621(5) 0.2235(6) 0.2653(4)
O7 O 0.1182(5) 0.7564(6) 0.0558(4)
O8 O 0.1322(5) 0.1447(6) 0.1277(3)
O9 O -0.1160(5) 0.9513(6) 0.0730(3)
U1 U 0.58514(3) 0.73290(3) 0.158761(19)
U2 U 0.0000 1.0000 0.0000
C1B C -0.2758(8) 0.4591(9) -0.1157(5)
C2B C -0.1779(8) 0.5759(9) -0.1082(5)
H1B H -0.0846 0.5508 -0.0832
C3B C -0.2196(7) 0.7371(9) -0.1391(5)
C4B C -0.3617(7) 0.7588(9) -0.1849(5)
H2B H -0.3947 0.8586 -0.2115
C5B C -0.4521(8) 0.6332(9) -0.1904(5)
C6B C -0.6055(8) 0.6453(8) -0.2306(5)
C7B C -0.2432(9) 0.2875(9) -0.0816(5)
N1B N -0.4121(6) 0.4837(7) -0.1559(4)
O1B O -0.6014(6) 0.3296(6) -0.0395(3)
O2B O -0.5660(5) 0.1976(6) -0.2756(4)
O3B O -0.6733(5) 0.5186(6) -0.2272(3)
O4B O -0.3448(6) 0.1984(6) -0.0808(4)
O5B O -0.5969(5) -0.0088(6) -0.1001(3)
O6B O -0.6621(5) 0.7765(6) -0.2653(4)
O7B O -0.1182(5) 0.2436(6) -0.0558(4)
O8B O -0.1322(5) 0.8553(6) -0.1277(3)
U1B U -0.58514(3) 0.26710(3) -0.158761(19)
O9B O 0.1160(5) 1.0487(6) -0.0730(3)
O6A O 0.8379(5) 0.7235(6) 0.2347(4)
O6C O -0.8379(5) 0.2765(6) -0.2347(4)
O7B_2 O -0.1182(5) 1.2436(6) -0.0558(4)
O8_2 O 0.1322(5) 1.1447(6) 0.1277(3)
U1A U 0.91486(3) 0.23290(3) 0.341239(19)
U1C U -0.91486(3) 0.76710(3) -0.341239(19)
U2_2 U 0.0000 0.0000 0.0000
loop_
_geom_bond_atom_site_label_1
_geom_bond_atom_site_label_2
_geom_bond_site_symmetry_1
_geom_bond_site_symmetry_2
C1 C2 1_555 1_555
C2 H1 1_555 1_555
C3 C2 1_555 1_555
C4 C3 1_555 1_555
H2 C4 1_555 1_555
C5 C4 1_555 1_555
C6 C5 1_555 1_555
C7 C1 1_555 1_555
N1 C1 1_555 1_555
O1 U1 1_555 1_555
O2 U1 1_555 1_555
O3 C6 1_555 1_555
O4 C7 1_555 1_555
O5 U1 1_555 1_555
O6 C6 1_555 1_555
O7 C7 1_555 1_555
O8 C3 1_555 1_555
O9 U2 1_555 1_555
U1 N1 1_555 1_555
U2 O7 1_555 1_555
C1B C2B 1_555 1_555
C2B H1B 1_555 1_555
C3B C2B 1_555 1_555
C4B C3B 1_555 1_555
H2B C4B 1_555 1_555
C5B C4B 1_555 1_555
C6B C5B 1_555 1_555
C7B C1B 1_555 1_555
N1B C1B 1_555 1_555
O1B U1B 1_555 1_555
O2B U1B 1_555 1_555
O3B C6B 1_555 1_555
O4B C7B 1_555 1_555
O5B U1B 1_555 1_555
O6B C6B 1_555 1_555
O7B C7B 1_555 1_555
O8B U2 1_555 1_555
U1B N1B 1_555 1_555
O9B U2 1_555 1_555
O6A U1 1_555 1_555
O6C U1B 1_555 1_555
O7B_2 U2 1_555 1_555
O8_2 U2 1_555 1_555
U1A O6 1_555 1_555
U1C O6B 1_555 1_555
U2_2 O8 1_555 1_555
C5 N1 1_555 1_555
O3 U1 1_555 1_555
O4 U1 1_555 1_555
C3B O8B 1_555 1_555
C5B N1B 1_555 1_555
O3B U1B 1_555 1_555
O4B U1B 1_555 1_555
O7B U2_2 1_555 1_555

#END
