
#######################################################################
#
#                 Cambridge Crystallographic Data Centre
#                                CCDC 
#
#######################################################################
#
# If this CIF has been generated from an entry in the Cambridge 
# Structural Database, then it will include bibliographic, chemical, 
# crystal, experimental, refinement or atomic coordinate data resulting 
# from the CCDC's data processing and validation procedures.
#
#######################################################################

data_TINGAA
_symmetry_cell_setting           orthorhombic
_symmetry_space_group_name_H-M   'P 21 21 21'
_symmetry_Int_Tables_number      19
_space_group_name_Hall           'P 2ac 2ab'
loop_
_symmetry_equiv_pos_site_id
_symmetry_equiv_pos_as_xyz
1 x,y,z
2 1/2-x,-y,1/2+z
3 1/2+x,1/2-y,-z
4 -x,1/2+y,1/2-z
_cell_length_a                   8.8835(8)
_cell_length_b                   9.2545(8)
_cell_length_c                   28.075(3)
_cell_angle_alpha                90
_cell_angle_beta                 90
_cell_angle_gamma                90
_cell_volume                     2308.11
loop_
_atom_site_label
_atom_site_type_symbol
_atom_site_fract_x
_atom_site_fract_y
_atom_site_fract_z
C1 C 0.2428(7) 0.8249(7) 0.8862(2)
C2 C 0.3092(7) 0.9558(7) 0.8981(2)
H1 H 0.3560 0.9688 0.9274
C3 C 0.3036(8) 1.0665(7) 0.8650(2)
C4 C 0.2288(8) 1.0477(7) 0.8213(2)
H2 H 0.2205 1.1224 0.7993
C5 C 0.1676(7) 0.9113(7) 0.8126(2)
C6 C 0.0897(7) 0.8701(7) 0.7673(2)
C7 C 0.2440(7) 0.6936(7) 0.9176(2)
C8 C 0.1053(8) 0.7913(8) 1.1239(2)
C9 C 0.0380(7) 0.8210(7) 1.1680(2)
H3 H -0.0114 0.9082 1.1731
C10 C 0.0462(8) 0.7195(8) 1.2034(2)
C11 C 0.1284(8) 0.5905(8) 1.1954(2)
H4 H 0.1414 0.5225 1.2195
C12 C 0.1891(7) 0.5693(8) 1.1502(2)
C13 C 0.2789(9) 0.4367(9) 1.1368(2)
C14 C 0.1091(8) 0.8953(8) 1.0826(2)
N1 N 0.1742(6) 0.8037(6) 0.84413(18)
N2 N 0.1756(6) 0.6652(6) 1.11524(19)
O1 O 0.2251(6) 0.5030(5) 0.79833(15)
O2 O -0.1094(5) 0.6237(5) 0.85364(16)
O3 O 0.0151(6) 0.3287(5) 0.86215(18)
O4 O 0.0902(5) 0.9591(5) 0.73353(15)
O5 O 0.0277(6) 0.7490(5) 0.76665(15)
O6 O 0.1837(5) 0.5825(5) 0.90108(15)
O7 O 0.4615(6) 0.6859(6) 1.05086(16)
O8 O 0.1054(6) 0.5426(6) 1.02045(17)
O9 O 0.3994(7) 0.4127(5) 0.99349(19)
O10 O 0.3104(5) 0.7056(5) 0.95739(15)
O11 O 0.1792(6) 0.8473(5) 1.04603(16)
O12 O 0.3184(7) 0.4339(6) 1.09336(17)
O13 O 0.0482(8) 1.0150(6) 1.08633(17)
O14 O 0.3067(7) 0.3464(6) 1.16787(18)
U1 U 0.05606(3) 0.56143(2) 0.826105(8)
U2 U 0.28471(3) 0.61467(3) 1.035087(8)
Cl1 Cl 0.3896(2) 1.22886(18) 0.87759(6)
Cl2 Cl -0.0391(2) 0.7432(2) 1.25723(6)
O4C O -0.0902(5) 0.4591(5) 0.76647(15)
U1C U -0.05606(3) 1.06143(2) 0.673895(8)
O15 O 0.442(4) 0.1546(14) 1.0383(4)
loop_
_geom_bond_atom_site_label_1
_geom_bond_atom_site_label_2
_geom_bond_site_symmetry_1
_geom_bond_site_symmetry_2
C1 C2 1_555 1_555
C2 H1 1_555 1_555
C3 C2 1_555 1_555
C4 C3 1_555 1_555
H2 C4 1_555 1_555
C5 C4 1_555 1_555
C6 C5 1_555 1_555
C7 C1 1_555 1_555
C8 C9 1_555 1_555
C9 H3 1_555 1_555
C10 C9 1_555 1_555
C11 C10 1_555 1_555
H4 C11 1_555 1_555
C12 C11 1_555 1_555
C13 C12 1_555 1_555
C14 C8 1_555 1_555
N1 C1 1_555 1_555
N2 C8 1_555 1_555
O1 U1 1_555 1_555
O2 U1 1_555 1_555
O3 U1 1_555 1_555
O4 C6 1_555 1_555
O5 C6 1_555 1_555
O6 C7 1_555 1_555
O7 U2 1_555 1_555
O8 U2 1_555 1_555
O9 U2 1_555 1_555
O10 C7 1_555 1_555
O11 C14 1_555 1_555
O12 C13 1_555 1_555
O13 C14 1_555 1_555
O14 C13 1_555 1_555
U1 N1 1_555 1_555
U2 N2 1_555 1_555
Cl1 C3 1_555 1_555
Cl2 C10 1_555 1_555
O4C U1 1_555 1_555
U1C O4 1_555 1_555
C5 N1 1_555 1_555
C12 N2 1_555 1_555
O5 U1 1_555 1_555
O6 U1 1_555 1_555
O10 U2 1_555 1_555
O11 U2 1_555 1_555
O12 U2 1_555 1_555

#END
