
#######################################################################
#
#                 Cambridge Crystallographic Data Centre
#                                CCDC 
#
#######################################################################
#
# If this CIF has been generated from an entry in the Cambridge 
# Structural Database, then it will include bibliographic, chemical, 
# crystal, experimental, refinement or atomic coordinate data resulting 
# from the CCDC's data processing and validation procedures.
#
#######################################################################

data_TINGUU
_symmetry_cell_setting           triclinic
_symmetry_space_group_name_H-M   'P -1'
_symmetry_Int_Tables_number      2
_space_group_name_Hall           '-P 1'
loop_
_symmetry_equiv_pos_site_id
_symmetry_equiv_pos_as_xyz
1 x,y,z
2 -x,-y,-z
_cell_length_a                   11.2552(11)
_cell_length_b                   13.6464(14)
_cell_length_c                   16.3098(16)
_cell_angle_alpha                110.448(2)
_cell_angle_beta                 100.874(2)
_cell_angle_gamma                95.504(2)
_cell_volume                     2269.15
loop_
_atom_site_label
_atom_site_type_symbol
_atom_site_fract_x
_atom_site_fract_y
_atom_site_fract_z
Ag1 Ag -0.02394(3) 0.18017(3) 0.37720(2)
N1 N 0.0235(4) 0.2511(3) 0.5308(3)
N2 N 0.0988(4) 0.2554(3) 1.3100(3)
N3 N 0.8112(4) 1.0514(3) 1.2973(3)
C1 C 0.3074(4) 0.4902(4) 0.9381(3)
C2 C 0.2625(4) 0.4421(4) 0.9908(3)
H1 H 0.2016 0.3796 0.9650
C3 C 0.3104(4) 0.4892(4) 1.0825(3)
C4 C 0.3993(4) 0.5792(4) 1.1220(3)
H2 H 0.4317 0.6098 1.1854
C5 C 0.4391(4) 0.6229(3) 1.0657(3)
C6 C 0.3962(4) 0.5807(4) 0.9738(3)
H3 H 0.4262 0.6123 0.9366
C7 C 0.1472(5) 0.4468(4) 0.8094(3)
C8 C 0.3136(5) 0.3820(4) 1.1691(4)
C9 C 0.5015(4) 0.8066(4) 1.1469(3)
C10 C 0.1072(4) 0.3755(4) 0.7128(3)
C11 C 0.1795(4) 0.3108(4) 0.6669(3)
H4 H 0.2590 0.3079 0.6974
C12 C 0.1350(5) 0.2507(4) 0.5765(3)
H5 H 0.1858 0.2071 0.5454
C13 C -0.0483(4) 0.3119(4) 0.5747(3)
H6 H -0.1282 0.3115 0.5425
C14 C -0.0102(5) 0.3756(4) 0.6654(3)
H7 H -0.0628 0.4185 0.6949
C15 C 0.2383(5) 0.3409(4) 1.2201(3)
C16 C 0.1189(5) 0.3586(4) 1.2196(3)
H8 H 0.0830 0.3998 1.1885
C17 C 0.0536(5) 0.3142(4) 1.2661(3)
H9 H -0.0279 0.3266 1.2664
C18 C 0.2129(5) 0.2390(5) 1.3110(4)
H10 H 0.2461 0.1975 1.3428
C19 C 0.2858(5) 0.2810(5) 1.2666(4)
H11 H 0.3677 0.2683 1.2685
C20 C 0.6125(4) 0.8914(4) 1.1984(3)
C21 C 0.5955(5) 0.9942(4) 1.2419(4)
H12 H 0.5152 1.0110 1.2386
C22 C 0.6972(5) 1.0714(4) 1.2901(4)
H13 H 0.6855 1.1421 1.3195
C23 C 0.8261(4) 0.9527(4) 1.2553(4)
H14 H 0.9075 0.9383 1.2601
C24 C 0.7301(4) 0.8693(4) 1.2048(4)
H15 H 0.7447 0.7995 1.1758
O1 O 0.1233(4) 0.0457(4) 0.3801(4)
S1 S 0.17728(15) -0.05004(12) 0.38062(11)
C25 C 0.2309(8) -0.0311(6) 0.4953(5)
H16 H 0.1607 -0.0385 0.5215
H17 H 0.2804 0.0400 0.5281
H18 H 0.2815 -0.0846 0.4997
C26 C 0.3204(7) -0.0330(6) 0.3528(6)
H19 H 0.3065 -0.0409 0.2895
H20 H 0.3672 -0.0867 0.3623
H21 H 0.3669 0.0380 0.3912
S2 S -0.20830(16) 0.42575(13) 0.37379(12)
O2 O -0.1665(4) 0.3291(4) 0.3803(3)
C27 C -0.1935(8) 0.5173(5) 0.4852(6)
H22 H -0.1062 0.5436 0.5150
H23 H -0.2320 0.4818 0.5189
H24 H -0.2341 0.5771 0.4832
C28 C -0.3707(7) 0.3957(9) 0.3407(7)
H25 H -0.3967 0.3443 0.2784
H26 H -0.4035 0.4608 0.3449
H27 H -0.4019 0.3653 0.3805
O3 O 0.2651(3) 0.4399(3) 0.8445(2)
O4 O 0.2558(3) 0.4474(3) 1.1372(2)
O5 O 0.5344(3) 0.7125(3) 1.1047(2)
O6 O 0.0871(4) 0.5023(3) 0.8512(3)
O7 O 0.4106(4) 0.3606(4) 1.1575(3)
O8 O 0.3986(3) 0.8199(3) 1.1454(3)
Ag1_2 Ag -0.02394(3) 0.18017(3) 1.37720(2)
Ag1_3 Ag 0.97606(3) 1.18017(3) 1.37720(2)
N2_2 N 0.0988(4) 0.2554(3) 0.3100(3)
N3_2 N -0.1888(4) 0.0514(3) 0.2973(3)
Sb1 Sb 0.46290(3) 0.69672(3) 0.42412(3)
F1 F 0.4038(9) 0.7741(8) 0.5175(6)
F2 F 0.5166(8) 0.6093(7) 0.3295(4)
F3 F 0.3271(8) 0.7166(9) 0.3486(8)
F4 F 0.5431(14) 0.8239(11) 0.4316(13)
F5 F 0.3770(17) 0.5773(12) 0.4216(13)
F6 F 0.5969(14) 0.6815(12) 0.4971(10)
S3 S 0.07360(14) 0.78092(13) 1.13909(12)
O9 O -0.0591(4) 0.7549(4) 1.1391(4)
C29 C 0.1468(8) 0.6948(7) 1.1763(10)
H28 H 0.1489 0.7128 1.2403
H29 H 0.2310 0.7002 1.1683
H30 H 0.1025 0.6221 1.1416
C30 C 0.0885(10) 0.7225(13) 1.0262(7)
H31 H 0.0513 0.7616 0.9908
H32 H 0.0467 0.6483 0.9997
H33 H 0.1758 0.7255 1.0259
O10 O 0.120(2) -0.0686(16) 0.9065(12)
O11 O 0.2116(18) 0.1484(15) 1.0019(11)
O12 O 0.5000 1.0000 1.0000
O13 O 0.557(2) 1.1428(17) 1.0656(13)
O14 O 0.060(2) 0.0400(12) 1.0807(12)
F7? F 0.3129(14) 0.6238(17) 0.3591(15)
F8? F 0.6182(14) 0.7416(17) 0.4880(12)
F9? F 0.484(2) 0.7642(15) 0.3483(14)
F10? F 0.467(2) 0.6012(14) 0.4796(13)
O15? O 0.100(3) 0.030(2) 0.968(2)
loop_
_geom_bond_atom_site_label_1
_geom_bond_atom_site_label_2
_geom_bond_site_symmetry_1
_geom_bond_site_symmetry_2
Ag1 N1 1_555 1_555
N1 C12 1_555 1_555
N2 C17 1_555 1_555
N3 C22 1_555 1_555
C1 C2 1_555 1_555
C2 H1 1_555 1_555
C3 C2 1_555 1_555
C4 C3 1_555 1_555
H2 C4 1_555 1_555
C5 C4 1_555 1_555
C6 C1 1_555 1_555
H3 C6 1_555 1_555
C7 C10 1_555 1_555
C8 C15 1_555 1_555
C9 C20 1_555 1_555
C10 C11 1_555 1_555
C11 H4 1_555 1_555
C12 C11 1_555 1_555
H5 C12 1_555 1_555
C13 N1 1_555 1_555
H6 C13 1_555 1_555
C14 C10 1_555 1_555
H7 C14 1_555 1_555
C15 C16 1_555 1_555
C16 H8 1_555 1_555
C17 C16 1_555 1_555
H9 C17 1_555 1_555
C18 N2 1_555 1_555
H10 C18 1_555 1_555
C19 C15 1_555 1_555
H11 C19 1_555 1_555
C20 C21 1_555 1_555
C21 H12 1_555 1_555
C22 C21 1_555 1_555
H13 C22 1_555 1_555
C23 N3 1_555 1_555
H14 C23 1_555 1_555
C24 C20 1_555 1_555
H15 C24 1_555 1_555
O1 Ag1 1_555 1_555
S1 O1 1_555 1_555
C25 S1 1_555 1_555
H16 C25 1_555 1_555
H17 C25 1_555 1_555
H18 C25 1_555 1_555
C26 S1 1_555 1_555
H19 C26 1_555 1_555
H20 C26 1_555 1_555
H21 C26 1_555 1_555
S2 O2 1_555 1_555
O2 Ag1 1_555 1_555
C27 S2 1_555 1_555
H22 C27 1_555 1_555
H23 C27 1_555 1_555
H24 C27 1_555 1_555
C28 S2 1_555 1_555
H25 C28 1_555 1_555
H26 C28 1_555 1_555
H27 C28 1_555 1_555
O3 C1 1_555 1_555
O4 C3 1_555 1_555
O5 C5 1_555 1_555
O6 C7 1_555 1_555
O7 C8 1_555 1_555
O8 C9 1_555 1_555
Sb1 F1 1_555 1_555
F2 Sb1 1_555 1_555
F3 Sb1 1_555 1_555
F4 Sb1 1_555 1_555
F5 Sb1 1_555 1_555
F6 Sb1 1_555 1_555
S3 O9 1_555 1_555
C29 S3 1_555 1_555
H28 C29 1_555 1_555
H29 C29 1_555 1_555
H30 C29 1_555 1_555
C30 S3 1_555 1_555
H31 C30 1_555 1_555
H32 C30 1_555 1_555
H33 C30 1_555 1_555
Ag1_2 N2 1_555 1_555
Ag1_3 N3 1_555 1_555
N2_2 Ag1 1_555 1_555
N3_2 Ag1 1_555 1_555
C5 C6 1_555 1_555
C7 O3 1_555 1_555
C8 O4 1_555 1_555
C9 O5 1_555 1_555
C13 C14 1_555 1_555
C18 C19 1_555 1_555
C23 C24 1_555 1_555

#END
