
#######################################################################
#
#                 Cambridge Crystallographic Data Centre
#                                CCDC 
#
#######################################################################
#
# If this CIF has been generated from an entry in the Cambridge 
# Structural Database, then it will include bibliographic, chemical, 
# crystal, experimental, refinement or atomic coordinate data resulting 
# from the CCDC's data processing and validation procedures.
#
#######################################################################

data_TINGII
_symmetry_cell_setting           monoclinic
_symmetry_space_group_name_H-M   'C 2/c'
_symmetry_Int_Tables_number      15
_space_group_name_Hall           '-C 2yn'
loop_
_symmetry_equiv_pos_site_id
_symmetry_equiv_pos_as_xyz
1 x,y,z
2 -x,y,1/2-z
3 1/2+x,1/2+y,z
4 1/2-x,1/2+y,1/2-z
5 -x,-y,-z
6 x,-y,1/2+z
7 1/2-x,1/2-y,-z
8 1/2+x,1/2-y,1/2+z
_cell_length_a                   28.157(6)
_cell_length_b                   10.174(2)
_cell_length_c                   13.230(3)
_cell_angle_alpha                90
_cell_angle_beta                 91.302(3)
_cell_angle_gamma                90
_cell_volume                     3789.01
loop_
_atom_site_label
_atom_site_type_symbol
_atom_site_fract_x
_atom_site_fract_y
_atom_site_fract_z
C1 C 0.4091(2) 0.4741(5) 0.1803(5)
C2 C 0.3765(2) 0.4256(5) 0.2476(4)
C3 C 0.3821(2) 0.2955(5) 0.2779(4)
C4 C 0.4182(2) 0.2198(6) 0.2394(5)
C5 C 0.4474(2) 0.2760(5) 0.1688(5)
C6 C 0.4850(2) 0.2017(6) 0.1136(6)
C7 C 0.4083(2) 0.6139(5) 0.1430(5)
C8 C 0.6483(2) -0.1366(5) -0.0396(4)
C9 C 0.6491(2) -0.2611(5) 0.0017(4)
C10 C 0.6840(2) -0.3476(5) -0.0300(4)
C11 C 0.7177(2) -0.3073(5) -0.0981(4)
C12 C 0.7148(2) -0.1795(5) -0.1338(4)
C13 C 0.7490(2) -0.1216(5) -0.2071(4)
C14 C 0.6094(2) -0.0384(6) -0.0219(5)
N1 N 0.44385(17) 0.4022(5) 0.1400(4)
N2 N 0.68075(18) -0.0954(4) -0.1054(3)
O1 O 0.54338(16) 0.5432(4) 0.0919(4)
O2 O 0.44138(17) 0.6456(4) 0.0863(4)
O3 O 0.50680(15) 0.2712(4) 0.0485(4)
O4 O 0.37574(18) 0.6862(4) 0.1732(4)
O5 O 0.49156(15) 0.0845(4) 0.1313(4)
O6 O 0.29210(17) 0.8160(4) 0.0612(3)
O7 O 0.35172(18) 0.9150(4) 0.2866(3)
O8 O 0.74319(17) -0.0015(4) -0.2274(3)
O9 O 0.78085(17) -0.1943(4) -0.2403(3)
O10 O 0.61252(15) 0.0664(4) -0.0764(3)
O11 O 0.57739(19) -0.0642(5) 0.0358(4)
Na1 Na 0.52939(13) 0.1275(3) -0.0831(4)
Cl1 Cl 0.34334(6) 0.22824(13) 0.36299(10)
Cl2 Cl 0.68541(6) -0.50684(13) 0.01402(10)
U1 U 0.5000 0.5000 0.0000
U2 U 0.322869(8) 0.862367(18) 0.173241(14)
O12 O 0.4638(5) 0.1669(12) -0.2106(8)
H1 H 0.351(2) 0.481(5) 0.270(4)
H2 H 0.424(3) 0.136(8) 0.256(6)
H3 H 0.627(3) -0.287(8) 0.041(6)
H4 H 0.741(2) -0.362(6) -0.120(5)
C1A C 0.5909(2) 0.4741(5) -0.6803(5)
C2A C 0.6235(2) 0.4256(5) -0.7476(4)
C3A C 0.6179(2) 0.2955(5) -0.7779(4)
C4A C 0.5818(2) 0.2198(6) -0.7394(5)
C5A C 0.5526(2) 0.2760(5) -0.6688(5)
C6A C 0.5150(2) 0.2017(6) -0.6136(6)
C7A C 0.5917(2) 0.6139(5) -0.6430(5)
C8A C 0.3517(2) -0.1366(5) -0.4604(4)
C9A C 0.3509(2) -0.2611(5) -0.5017(4)
C10A C 0.3160(2) -0.3476(5) -0.4700(4)
C11A C 0.2823(2) -0.3073(5) -0.4019(4)
C12A C 0.2852(2) -0.1795(5) -0.3662(4)
C13A C 0.2510(2) -0.1216(5) -0.2929(4)
C14A C 0.3906(2) -0.0384(6) -0.4781(5)
N1A N 0.55615(17) 0.4022(5) -0.6400(4)
N2A N 0.31925(18) -0.0954(4) -0.3946(3)
O2A O 0.55862(17) 0.6456(4) -0.5863(4)
O3A O 0.49320(15) 0.2712(4) -0.5485(4)
O4A O 0.62426(18) 0.6862(4) -0.6732(4)
O5A O 0.50844(15) 0.0845(4) -0.6313(4)
O6A O 0.70790(17) 0.8160(4) -0.5612(3)
O7A O 0.64828(18) 0.9150(4) -0.7866(3)
O8A O 0.25681(17) -0.0015(4) -0.2726(3)
O9A O 0.21915(17) -0.1943(4) -0.2597(3)
O10A O 0.38748(15) 0.0664(4) -0.4236(3)
O11A O 0.42261(19) -0.0642(5) -0.5358(4)
Na1A Na 0.47061(13) 0.1275(3) -0.4169(4)
Cl1A Cl 0.65666(6) 0.22824(13) -0.86299(10)
Cl2A Cl 0.31459(6) -0.50684(13) -0.51402(10)
U2A U 0.677131(8) 0.862367(18) -0.673241(14)
O12A O 0.5362(5) 0.1669(12) -0.2894(8)
H1A H 0.649(2) 0.481(5) -0.770(4)
H2A H 0.576(3) 0.136(8) -0.756(6)
H3A H 0.373(3) -0.287(8) -0.541(6)
H4A H 0.259(2) -0.362(6) -0.380(5)
O1D O 0.45662(16) 0.4568(4) -0.0919(4)
N1D N 0.55615(17) 0.5978(5) -0.1400(4)
N2D N 0.31925(18) 1.0954(4) 0.1054(3)
N2E N 0.68075(18) 1.0954(4) -0.6054(3)
O2D O 0.55862(17) 0.3544(4) -0.0863(4)
O2E O 0.44138(17) 0.3544(4) -0.4137(4)
O3D O 0.49320(15) 0.7288(4) -0.0485(4)
O5D O 0.50844(15) -0.0845(4) -0.1313(4)
O5E O 0.49156(15) -0.0845(4) -0.3687(4)
O8D O 0.25681(17) 1.0015(4) 0.2274(3)
O8E O 0.74319(17) 1.0015(4) -0.7274(3)
O9F O 0.71915(17) 0.6943(4) -0.7597(3)
O9G O 0.28085(17) 0.6943(4) 0.2597(3)
O10D O 0.38748(15) 0.9336(4) 0.0764(3)
O10E O 0.61252(15) 0.9336(4) -0.5764(3)
Na1D Na 0.47061(13) -0.1275(3) 0.0831(4)
Na1D_2 Na 0.47061(13) 0.8725(3) 0.0831(4)
Na1E Na 0.52939(13) -0.1275(3) -0.5831(4)
Na1E_2 Na 0.52939(13) 0.8725(3) -0.5831(4)
U1A U 0.5000 0.5000 -0.5000
U2D U 0.677131(8) 0.137633(18) -0.173241(14)
U2E U 0.322869(8) 0.137633(18) -0.326759(14)
U2F U 0.177131(8) -0.362367(18) -0.173241(14)
U2G U 0.822869(8) -0.362367(18) -0.326759(14)
loop_
_geom_bond_atom_site_label_1
_geom_bond_atom_site_label_2
_geom_bond_site_symmetry_1
_geom_bond_site_symmetry_2
C1 C2 1_555 1_555
C2 C3 1_555 1_555
C3 C4 1_555 1_555
C4 C5 1_555 1_555
C5 C6 1_555 1_555
C6 O3 1_555 1_555
C7 C1 1_555 1_555
C8 C9 1_555 1_555
C9 C10 1_555 1_555
C10 C11 1_555 1_555
C11 C12 1_555 1_555
C12 C13 1_555 1_555
C13 O8 1_555 1_555
C14 C8 1_555 1_555
N1 C1 1_555 1_555
N2 C8 1_555 1_555
O1 U1 1_555 1_555
O2 C7 1_555 1_555
O3 Na1 1_555 1_555
O4 C7 1_555 1_555
O5 C6 1_555 1_555
O6 U2 1_555 1_555
O7 U2 1_555 1_555
O8 U2D 1_555 1_555
O9 C13 1_555 1_555
O10 C14 1_555 1_555
O11 C14 1_555 1_555
Na1 O10 1_555 1_555
Cl1 C3 1_555 1_555
Cl2 C10 1_555 1_555
U1 N1 1_555 1_555
U2 O4 1_555 1_555
O12 Na1 1_555 1_555
H1 C2 1_555 1_555
H2 C4 1_555 1_555
H3 C9 1_555 1_555
H4 C11 1_555 1_555
C1A C2A 1_555 1_555
C2A C3A 1_555 1_555
C3A C4A 1_555 1_555
C4A C5A 1_555 1_555
C5A C6A 1_555 1_555
C6A O3A 1_555 1_555
C7A C1A 1_555 1_555
C8A C9A 1_555 1_555
C9A C10A 1_555 1_555
C10A C11A 1_555 1_555
C11A C12A 1_555 1_555
C12A C13A 1_555 1_555
C13A O8A 1_555 1_555
C14A C8A 1_555 1_555
N1A C1A 1_555 1_555
N2A C8A 1_555 1_555
O2A C7A 1_555 1_555
O3A Na1A 1_555 1_555
O4A C7A 1_555 1_555
O5A C6A 1_555 1_555
O6A U2A 1_555 1_555
O7A U2A 1_555 1_555
O8A U2E 1_555 1_555
O9A C13A 1_555 1_555
O10A C14A 1_555 1_555
O11A C14A 1_555 1_555
Na1A O12 1_555 1_555
Cl1A C3A 1_555 1_555
Cl2A C10A 1_555 1_555
U2A O4A 1_555 1_555
O12A Na1 1_555 1_555
H1A C2A 1_555 1_555
H2A C4A 1_555 1_555
H3A C9A 1_555 1_555
H4A C11A 1_555 1_555
O1D U1 1_555 1_555
N1D U1 1_555 1_555
N2D U2 1_555 1_555
N2E U2A 1_555 1_555
O2D Na1 1_555 1_555
O2E Na1A 1_555 1_555
O3D U1 1_555 1_555
O5D Na1 1_555 1_555
O5E Na1A 1_555 1_555
O8D U2 1_555 1_555
O8E U2A 1_555 1_555
O9F U2A 1_555 1_555
O9G U2 1_555 1_555
O10D U2 1_555 1_555
O10E U2A 1_555 1_555
Na1D O5 1_555 1_555
Na1D_2 O2 1_555 1_555
Na1E O5A 1_555 1_555
Na1E_2 O2A 1_555 1_555
U1A N1A 1_555 1_555
U2D N2 1_555 1_555
U2E N2A 1_555 1_555
U2F O9A 1_555 1_555
U2G O9 1_555 1_555
C5 N1 1_555 1_555
C12 N2 1_555 1_555
O2 U1 1_555 1_555
O3 U1 1_555 1_555
O10 U2D 1_555 1_555
O11 Na1 1_555 1_555
U1 O2D 1_555 1_555
C5A N1A 1_555 1_555
C12A N2A 1_555 1_555
O2A U1A 1_555 1_555
O3A U1A 1_555 1_555
O10A Na1A 1_555 1_555
O10A U2E 1_555 1_555
O11A Na1A 1_555 1_555
Na1A O12A 1_555 1_555
O2E U1A 1_555 1_555
O3D Na1D_2 1_555 1_555
O10D Na1D_2 1_555 1_555
O10E Na1E_2 1_555 1_555

#END
