
#######################################################################
#
#                 Cambridge Crystallographic Data Centre
#                                CCDC 
#
#######################################################################
#
# If this CIF has been generated from an entry in the Cambridge 
# Structural Database, then it will include bibliographic, chemical, 
# crystal, experimental, refinement or atomic coordinate data resulting 
# from the CCDC's data processing and validation procedures.
#
#######################################################################

data_TINHAB
_symmetry_cell_setting           triclinic
_symmetry_space_group_name_H-M   'P -1'
_symmetry_Int_Tables_number      2
_space_group_name_Hall           '-P 1'
loop_
_symmetry_equiv_pos_site_id
_symmetry_equiv_pos_as_xyz
1 x,y,z
2 -x,-y,-z
_cell_length_a                   10.6004(12)
_cell_length_b                   11.6175(14)
_cell_length_c                   12.1474(14)
_cell_angle_alpha                83.729(2)
_cell_angle_beta                 83.464(2)
_cell_angle_gamma                74.505(2)
_cell_volume                     1427.35
loop_
_atom_site_label
_atom_site_type_symbol
_atom_site_fract_x
_atom_site_fract_y
_atom_site_fract_z
Ag1 Ag 0.44760(3) -0.32786(3) 0.82513(2)
C1 C 0.0386(4) 0.0281(3) 0.2580(3)
C2 C 0.0644(3) 0.1346(3) 0.2111(3)
H1 H 0.1236 0.1674 0.2395
C3 C -0.0022(4) 0.1900(3) 0.1198(3)
C4 C -0.0969(4) 0.1472(3) 0.0804(3)
H2 H -0.1429 0.1873 0.0208
C5 C -0.1206(4) 0.0416(3) 0.1336(3)
C6 C -0.0520(4) -0.0210(3) 0.2214(3)
H3 H -0.0666 -0.0930 0.2541
C7 C 0.2328(4) -0.0583(4) 0.3498(3)
C8 C 0.0649(4) 0.3085(3) -0.0364(3)
C9 C -0.2947(4) -0.0568(3) 0.1494(3)
C10 C 0.2783(4) -0.1134(3) 0.4589(3)
C11 C 0.1979(4) -0.1562(4) 0.5418(3)
H4 H 0.1102 -0.1487 0.5321
C12 C 0.2499(4) -0.2104(4) 0.6393(3)
H5 H 0.1954 -0.2400 0.6941
C13 C 0.4500(4) -0.1778(4) 0.5802(4)
H6 H 0.5359 -0.1827 0.5940
C14 C 0.4080(4) -0.1248(4) 0.4792(4)
H7 H 0.4651 -0.0970 0.4255
C15 C 0.1426(4) 0.3992(3) -0.0632(3)
C16 C 0.1921(4) 0.4454(3) 0.0177(3)
H8 H 0.1733 0.4246 0.0927
C17 C 0.2709(4) 0.5238(4) -0.0160(4)
H9 H 0.3038 0.5555 0.0382
C18 C 0.2533(5) 0.5095(4) -0.1999(4)
H10 H 0.2745 0.5307 -0.2745
C19 C 0.1735(4) 0.4317(4) -0.1741(3)
H11 H 0.1413 0.4018 -0.2300
C20 C -0.3621(3) -0.1131(3) 0.0767(3)
C21 C -0.3454(3) -0.0969(3) -0.0383(3)
H12 H -0.2932 -0.0484 -0.0731
C22 C -0.4082(4) -0.1543(3) -0.1000(3)
H13 H -0.3977 -0.1426 -0.1772
C23 C -0.4995(4) -0.2400(3) 0.0579(3)
H14 H -0.5523 -0.2889 0.0909
C24 C -0.4418(4) -0.1855(3) 0.1257(3)
H15 H -0.4558 -0.1969 0.2026
N1 N 0.3742(3) -0.2225(3) 0.6591(3)
N2 N 0.3014(4) 0.5558(3) -0.1232(3)
N3 N -0.4837(3) -0.2262(3) -0.0541(3)
O1 O 0.0989(3) -0.0305(2) 0.3531(2)
O2 O 0.0319(3) 0.2946(2) 0.0746(2)
O3 O -0.2097(3) -0.0019(2) 0.0853(2)
O4 O 0.3029(3) -0.0424(3) 0.2688(2)
O5 O 0.0387(3) 0.2538(3) -0.1040(2)
O6 O -0.3124(3) -0.0595(3) 0.2483(2)
O7 O 0.6907(6) -0.3867(6) 0.7186(4)
F1 F 0.8362(8) -0.6801(6) 0.6769(7)
F2 F 0.9218(5) -0.5424(7) 0.6749(6)
F3 F 0.8047(7) -0.5498(7) 0.5491(5)
C25 C 0.8139(8) -0.5673(9) 0.6573(8)
C26 C 0.6913(7) -0.4933(9) 0.7240(6)
O8 O 0.6196(15) -0.5659(13) 0.7682(12)
Ag1_2 Ag -0.55240(3) -0.32786(3) -0.17487(2)
Ag1_3 Ag 0.44760(3) 0.67214(3) -0.17487(2)
N2_2 N 0.3014(4) -0.4442(3) 0.8768(3)
N3_2 N 0.5163(3) -0.2262(3) 0.9459(3)
C27 C 0.2217(6) 0.2080(6) 0.3960(6)
O9 O 0.1622(10) 0.2240(9) 0.4969(12)
O10? O 0.6061(12) -0.5139(11) 0.7726(10)
C28? C 0.468(3) 0.444(3) -0.472(3)
O11? O 0.491(3) 0.364(3) -0.355(3)
loop_
_geom_bond_atom_site_label_1
_geom_bond_atom_site_label_2
_geom_bond_site_symmetry_1
_geom_bond_site_symmetry_2
Ag1 N1 1_555 1_555
C1 C2 1_555 1_555
C2 H1 1_555 1_555
C3 C2 1_555 1_555
C4 C3 1_555 1_555
H2 C4 1_555 1_555
C5 C4 1_555 1_555
C6 C1 1_555 1_555
H3 C6 1_555 1_555
C7 C10 1_555 1_555
C8 C15 1_555 1_555
C9 C20 1_555 1_555
C10 C11 1_555 1_555
C11 H4 1_555 1_555
C12 C11 1_555 1_555
H5 C12 1_555 1_555
C13 H6 1_555 1_555
C14 C10 1_555 1_555
H7 C14 1_555 1_555
C15 C16 1_555 1_555
C16 H8 1_555 1_555
C17 C16 1_555 1_555
H9 C17 1_555 1_555
C18 H10 1_555 1_555
C19 C15 1_555 1_555
H11 C19 1_555 1_555
C20 C21 1_555 1_555
C21 H12 1_555 1_555
C22 C21 1_555 1_555
H13 C22 1_555 1_555
C23 H14 1_555 1_555
C24 C20 1_555 1_555
H15 C24 1_555 1_555
N1 C12 1_555 1_555
N2 C17 1_555 1_555
N3 C22 1_555 1_555
O1 C1 1_555 1_555
O2 C3 1_555 1_555
O3 C5 1_555 1_555
O4 C7 1_555 1_555
O5 C8 1_555 1_555
O6 C9 1_555 1_555
O7 Ag1 1_555 1_555
F1 C25 1_555 1_555
F2 C25 1_555 1_555
F3 C25 1_555 1_555
C25 C26 1_555 1_555
C26 O7 1_555 1_555
O8 C26 1_555 1_555
C27 O9 1_555 1_555
Ag1_2 N3 1_555 1_555
Ag1_3 N2 1_555 1_555
N2_2 Ag1 1_555 1_555
N3_2 Ag1 1_555 1_555
C5 C6 1_555 1_555
C7 O1 1_555 1_555
C8 O2 1_555 1_555
C9 O3 1_555 1_555
C13 C14 1_555 1_555
C13 N1 1_555 1_555
C18 C19 1_555 1_555
C18 N2 1_555 1_555
C23 C24 1_555 1_555
C23 N3 1_555 1_555

#END
