
#######################################################################
#
#                 Cambridge Crystallographic Data Centre
#                                CCDC 
#
#######################################################################
#
# If this CIF has been generated from an entry in the Cambridge 
# Structural Database, then it will include bibliographic, chemical, 
# crystal, experimental, refinement or atomic coordinate data resulting 
# from the CCDC's data processing and validation procedures.
#
#######################################################################

data_TINPIQ
_symmetry_cell_setting           orthorhombic
_symmetry_space_group_name_H-M   'P c a 21'
_symmetry_Int_Tables_number      29
_space_group_name_Hall           'P 2c -2ac'
loop_
_symmetry_equiv_pos_site_id
_symmetry_equiv_pos_as_xyz
1 x,y,z
2 -x,-y,1/2+z
3 1/2+x,-y,z
4 1/2-x,y,1/2+z
_cell_length_a                   8.6095(17)
_cell_length_b                   12.322(3)
_cell_length_c                   14.342(3)
_cell_angle_alpha                90
_cell_angle_beta                 90
_cell_angle_gamma                90
_cell_volume                     1521.49
loop_
_atom_site_label
_atom_site_type_symbol
_atom_site_fract_x
_atom_site_fract_y
_atom_site_fract_z
Ag1 Ag 0.75241(4) 0.26431(3) 0.84998(7)
N1 N 0.7161(4) 0.2166(3) 0.6974(3)
N2 N 0.5572(4) 0.3870(4) 0.8990(2)
C1 C 0.3331(4) 0.3028(3) 1.1066(3)
H1 H 0.2491 0.2583 1.1208
C2 C 0.4096(4) 0.3569(4) 1.1770(2)
C3 C 0.5817(5) 0.4358(4) 1.0639(3)
H2 H 0.6650 0.4808 1.0493
C4 C 0.5046(4) 0.3807(3) 0.9936(3)
C5 C 0.3805(4) 0.3143(4) 1.0149(3)
H3 H 0.3287 0.2773 0.9677
C6 C 0.6074(5) 0.2709(4) 0.6484(3)
H4 H 0.5352 0.3134 0.6800
C7 C 0.8158(4) 0.1530(4) 0.6489(3)
C8 C 0.9340(5) 0.0913(4) 0.7056(3)
H5 H 1.0324 0.0920 0.6727
H6 H 0.9489 0.1284 0.7646
C9 C 0.8893(6) -0.0230(5) 0.7244(4)
H7 H 0.9691 -0.0576 0.7606
H8 H 0.8766 -0.0609 0.6664
H9 H 0.7933 -0.0245 0.7584
C10 C 0.5349(5) 0.4242(4) 1.1560(3)
H10 H 0.5868 0.4610 1.2032
O1 O 0.2572(3) 0.4407(3) 1.3140(2)
O2 O 0.4825(3) 0.3370(3) 1.3513(2)
O3 O 0.2466(4) 0.2486(3) 1.2958(3)
S1 S 0.34471(10) 0.34335(8) 1.29348(7)
C11 C 0.6010(5) 0.2649(4) 0.5534(3)
H11 H 0.5247 0.3036 0.5217
N3 N 0.7017(4) 0.2050(4) 0.5049(3)
C12 C 0.8082(5) 0.1482(4) 0.5518(3)
C13 C 0.9145(5) 0.0780(4) 0.4936(3)
H12 H 1.0060 0.0605 0.5301
H13 H 0.9483 0.1193 0.4397
C14 C 0.8404(7) -0.0264(5) 0.4606(4)
H14 H 0.9143 -0.0670 0.4246
H15 H 0.7516 -0.0098 0.4227
H16 H 0.8084 -0.0684 0.5135
H17 H 0.475(3) 0.378(4) 0.866(3)
H18 H 0.605(5) 0.447(2) 0.895(4)
Ag1C Ag 0.74759(4) 0.26431(3) 1.34998(7)
Ag1C_2 Ag 0.74759(4) 0.26431(3) 0.34998(7)
O2C O 1.0175(3) 0.3370(3) 0.8513(2)
N3C N 0.7983(4) 0.2050(4) 1.0049(3)
loop_
_geom_bond_atom_site_label_1
_geom_bond_atom_site_label_2
_geom_bond_site_symmetry_1
_geom_bond_site_symmetry_2
Ag1 N1 1_555 1_555
N1 C6 1_555 1_555
N2 Ag1 1_555 1_555
C1 H1 1_555 1_555
C2 C1 1_555 1_555
C3 H2 1_555 1_555
C4 N2 1_555 1_555
C5 C1 1_555 1_555
H3 C5 1_555 1_555
C6 H4 1_555 1_555
C7 N1 1_555 1_555
C8 C7 1_555 1_555
H5 C8 1_555 1_555
H6 C8 1_555 1_555
C9 C8 1_555 1_555
H7 C9 1_555 1_555
H8 C9 1_555 1_555
H9 C9 1_555 1_555
C10 C2 1_555 1_555
H10 C10 1_555 1_555
O1 S1 1_555 1_555
O2 S1 1_555 1_555
O3 S1 1_555 1_555
S1 C2 1_555 1_555
C11 C6 1_555 1_555
H11 C11 1_555 1_555
N3 C11 1_555 1_555
C12 C7 1_555 1_555
C13 C12 1_555 1_555
H12 C13 1_555 1_555
H13 C13 1_555 1_555
C14 C13 1_555 1_555
H14 C14 1_555 1_555
H15 C14 1_555 1_555
H16 C14 1_555 1_555
H17 N2 1_555 1_555
H18 N2 1_555 1_555
Ag1C O2 1_555 1_555
Ag1C_2 N3 1_555 1_555
O2C Ag1 1_555 1_555
N3C Ag1 1_555 1_555
C3 C4 1_555 1_555
C3 C10 1_555 1_555
C4 C5 1_555 1_555
N3 C12 1_555 1_555

#END
