
#######################################################################
#
#                 Cambridge Crystallographic Data Centre
#                                CCDC 
#
#######################################################################
#
# If this CIF has been generated from an entry in the Cambridge 
# Structural Database, then it will include bibliographic, chemical, 
# crystal, experimental, refinement or atomic coordinate data resulting 
# from the CCDC's data processing and validation procedures.
#
#######################################################################

data_TINPOV
_symmetry_cell_setting           triclinic
_symmetry_space_group_name_H-M   'P -1'
_symmetry_Int_Tables_number      2
_space_group_name_Hall           '-P 1'
loop_
_symmetry_equiv_pos_site_id
_symmetry_equiv_pos_as_xyz
1 x,y,z
2 -x,-y,-z
_cell_length_a                   8.0712(4)
_cell_length_b                   11.266(1)
_cell_length_c                   4.9905(9)
_cell_angle_alpha                97.80(1)
_cell_angle_beta                 99.58(1)
_cell_angle_gamma                83.017(8)
_cell_volume                     441.037
loop_
_atom_site_label
_atom_site_type_symbol
_atom_site_fract_x
_atom_site_fract_y
_atom_site_fract_z
Cu1 Cu 1.0000 0.0000 0.0000
Cl1 Cl 1.41367(10) 0.19319(7) -0.4226(2)
O1 O 0.7504(3) 0.0851(2) -0.1823(4)
O2 O 0.8282(2) -0.0786(2) 0.1682(4)
O3 O 1.0063(3) 0.1246(2) 0.3162(6)
C1 C 1.3702(4) -0.0483(3) 0.1043(6)
C2 C 1.3281(4) 0.0458(3) -0.0981(6)
C3 C 1.4587(4) 0.0882(3) -0.1906(6)
H1 H 1.055(4) 0.113(3) 0.429(6)
H2 H 1.006(5) 0.207(4) 0.297(8)
O1A O 1.2496(3) -0.0851(2) 0.1823(4)
O2A O 1.1718(2) 0.0786(2) -0.1682(4)
O3A O 0.9937(3) -0.1246(2) -0.3162(6)
H1A H 0.945(4) -0.113(3) -0.429(6)
H2A H 0.994(5) -0.207(4) -0.297(8)
C1A C 1.6298(4) 0.0483(3) -0.1043(6)
O1_2 O 1.7504(3) 0.0851(2) -0.1823(4)
Cu1_2 Cu 2.0000 0.0000 0.0000
C2A C 1.6719(4) -0.0458(3) 0.0981(6)
C3A C 1.5413(4) -0.0882(3) 0.1906(6)
Cl1A Cl 1.58633(10) -0.19319(7) 0.4226(2)
O2_2 O 1.8282(2) -0.0786(2) 0.1682(4)
N1 N 1.0048(3) 0.3758(2) 0.4049(5)
C4 C 0.7126(5) 0.4035(3) 0.8913(8)
C5 C 0.8063(4) 0.3544(3) 0.6971(8)
C6 C 0.9059(4) 0.4263(3) 0.5895(7)
C7 C 1.0985(4) 0.4474(3) 0.3148(7)
C8 C 1.2014(4) 0.3990(3) 0.1130(7)
C9 C 0.7082(4) 0.5282(3) 0.9861(8)
H3 H 0.656(4) 0.356(3) 0.967(6)
H4 H 0.812(4) 0.277(3) 0.637(6)
H5 H 1.197(4) 0.314(3) 0.044(6)
H6 H 0.647(4) 0.559(3) 1.110(6)
C8A C 0.7986(4) 0.6010(3) 0.8870(7)
C7A C 0.9015(4) 0.5526(3) 0.6852(7)
N1A N 0.9952(3) 0.6242(2) 0.5951(5)
C6A C 1.0941(4) 0.5737(3) 0.4105(7)
C5A C 1.1937(4) 0.6456(3) 0.3029(8)
C4A C 1.2874(5) 0.5965(3) 0.1087(8)
C9A C 1.2918(4) 0.4718(3) 0.0139(8)
H6A H 1.353(4) 0.441(3) -0.110(6)
H3A H 1.344(4) 0.644(3) 0.033(6)
H4A H 1.188(4) 0.723(3) 0.363(6)
H5A H 0.803(4) 0.686(3) 0.956(6)
loop_
_geom_bond_atom_site_label_1
_geom_bond_atom_site_label_2
_geom_bond_site_symmetry_1
_geom_bond_site_symmetry_2
Cu1 O1 1_555 1_555
Cl1 C3 1_555 1_555
O2 Cu1 1_555 1_555
O3 Cu1 1_555 1_555
N1 C6 1_555 1_555
C1 C2 1_555 1_555
C2 C3 1_555 1_555
C3 C1A 1_555 1_555
C4 C5 1_555 1_555
C5 C6 1_555 1_555
C6 C7A 1_555 1_555
C7 N1 1_555 1_555
C8 C7 1_555 1_555
C9 C4 1_555 1_555
H1 O3 1_555 1_555
H2 O3 1_555 1_555
H3 C4 1_555 1_555
H4 C5 1_555 1_555
H5 C8 1_555 1_555
H6 C9 1_555 1_555
O1A Cu1 1_555 1_555
O2A Cu1 1_555 1_555
O3A Cu1 1_555 1_555
H1A O3A 1_555 1_555
H2A O3A 1_555 1_555
C1A O1_2 1_555 1_555
O1_2 Cu1_2 1_555 1_555
Cu1_2 O2_2 1_555 1_555
C2A C1A 1_555 1_555
C3A C1 1_555 1_555
Cl1A C3A 1_555 1_555
O2_2 C2A 1_555 1_555
C8A C9 1_555 1_555
C7A C8A 1_555 1_555
N1A C7A 1_555 1_555
C6A C7 1_555 1_555
C5A C6A 1_555 1_555
C4A C5A 1_555 1_555
C9A C8 1_555 1_555
H6A C9A 1_555 1_555
H3A C4A 1_555 1_555
H4A C5A 1_555 1_555
H5A C8A 1_555 1_555
C1 O1A 1_555 1_555
C2 O2A 1_555 1_555
C2A C3A 1_555 1_555
N1A C6A 1_555 1_555
C4A C9A 1_555 1_555

#END
