
#######################################################################
#
#                 Cambridge Crystallographic Data Centre
#                                CCDC 
#
#######################################################################
#
# If this CIF has been generated from an entry in the Cambridge 
# Structural Database, then it will include bibliographic, chemical, 
# crystal, experimental, refinement or atomic coordinate data resulting 
# from the CCDC's data processing and validation procedures.
#
#######################################################################

data_TINPIP
_symmetry_cell_setting           triclinic
_symmetry_space_group_name_H-M   'P -1'
_symmetry_Int_Tables_number      2
_space_group_name_Hall           '-P 1'
loop_
_symmetry_equiv_pos_site_id
_symmetry_equiv_pos_as_xyz
1 x,y,z
2 -x,-y,-z
_cell_length_a                   8.010(1)
_cell_length_b                   10.117(1)
_cell_length_c                   5.1621(7)
_cell_angle_alpha                94.40(1)
_cell_angle_beta                 97.49(1)
_cell_angle_gamma                112.64(1)
_cell_volume                     379.094
loop_
_atom_site_label
_atom_site_type_symbol
_atom_site_fract_x
_atom_site_fract_y
_atom_site_fract_z
N1 N 0.9437(4) -0.3927(3) 1.5828(6)
C4 C 0.8691(5) -0.4741(4) 1.3476(7)
C5 C 1.0729(5) -0.4201(4) 1.7310(7)
C6 C 0.7192(7) -0.4490(6) 1.1800(10)
H3 H 1.119(4) -0.367(3) 1.903(6)
H4 H 0.761(8) -0.366(6) 1.14(1)
H5 H 0.627(8) -0.455(6) 1.28(1)
H6 H 0.678(7) -0.506(5) 1.020(10)
C5A C 0.9271(5) -0.5799(4) 1.2690(7)
C4A C 1.1309(5) -0.5259(4) 1.6524(7)
N1A N 1.0563(4) -0.6073(3) 1.4172(6)
H3A H 0.881(4) -0.633(3) 1.097(6)
C6A C 1.2808(7) -0.5510(6) 1.8200(10)
H4A H 1.239(8) -0.634(6) 1.86(1)
H5A H 1.373(8) -0.545(6) 1.72(1)
H6A H 1.322(7) -0.494(5) 1.980(10)
Cu1 Cu 1.0000 0.00000 1.0000
Cl1 Cl 0.6050(1) 0.23127(9) 0.6021(2)
O1 O 0.7555(3) -0.0857(2) 1.2261(4)
O2 O 0.8422(3) 0.1011(2) 0.8778(4)
O3 O 1.1454(4) 0.1607(3) 1.2841(5)
C1 C 0.6807(4) 0.0586(3) 0.9288(6)
C2 C 0.6295(4) -0.0523(3) 1.1237(6)
C3 C 0.5500(4) 0.1065(3) 0.8226(6)
H1 H 1.116(5) 0.241(4) 1.319(7)
H2 H 1.184(6) 0.147(4) 1.423(8)
O1A O 1.2445(3) 0.0857(2) 0.7739(4)
O2A O 1.1578(3) -0.1011(2) 1.1222(4)
O3A O 0.8546(4) -0.1607(3) 0.7159(5)
C3A C 0.4500(4) -0.1065(3) 1.1774(6)
C2A C 0.3705(4) 0.0523(3) 0.8763(6)
C2A_2 C 1.3705(4) 0.0523(3) 0.8763(6)
C1A C 1.3193(4) -0.0586(3) 1.0712(6)
H1A H 0.884(5) -0.241(4) 0.681(7)
H2A H 0.816(6) -0.147(4) 0.577(8)
Cl1A Cl 0.3950(1) -0.23127(9) 1.3979(2)
C1A_2 C 0.3193(4) -0.0586(3) 1.0712(6)
O1A_2 O 0.2445(3) 0.0857(2) 0.7739(4)
C3A_2 C 1.4500(4) -0.1065(3) 1.1774(6)
loop_
_geom_bond_atom_site_label_1
_geom_bond_atom_site_label_2
_geom_bond_site_symmetry_1
_geom_bond_site_symmetry_2
Cu1 O1 1_555 1_555
Cl1 C3 1_555 1_555
O1 C2 1_555 1_555
O2 Cu1 1_555 1_555
O3 Cu1 1_555 1_555
N1 C4 1_555 1_555
C1 O2 1_555 1_555
C2 C1 1_555 1_555
C3 C1 1_555 1_555
C4 C6 1_555 1_555
C5 N1 1_555 1_555
C6 H4 1_555 1_555
H1 O3 1_555 1_555
H2 O3 1_555 1_555
H3 C5 1_555 1_555
H5 C6 1_555 1_555
H6 C6 1_555 1_555
O1A Cu1 1_555 1_555
O2A Cu1 1_555 1_555
O3A Cu1 1_555 1_555
C3A C2 1_555 1_555
C2A C3 1_555 1_555
C2A_2 O1A 1_555 1_555
C1A O2A 1_555 1_555
H1A O3A 1_555 1_555
H2A O3A 1_555 1_555
Cl1A C3A 1_555 1_555
C1A_2 C3A 1_555 1_555
O1A_2 C2A 1_555 1_555
C3A_2 C1A 1_555 1_555
C5A C4 1_555 1_555
C4A C5 1_555 1_555
N1A C5A 1_555 1_555
H3A C5A 1_555 1_555
C6A C4A 1_555 1_555
H4A C6A 1_555 1_555
H5A C6A 1_555 1_555
H6A C6A 1_555 1_555
C2A C1A_2 1_555 1_555
C2A_2 C1A 1_555 1_555
C4A N1A 1_555 1_555

#END
