
#######################################################################
#
#                 Cambridge Crystallographic Data Centre
#                                CCDC 
#
#######################################################################
#
# If this CIF has been generated from an entry in the Cambridge 
# Structural Database, then it will include bibliographic, chemical, 
# crystal, experimental, refinement or atomic coordinate data resulting 
# from the CCDC's data processing and validation procedures.
#
#######################################################################

data_TINPIP01
_symmetry_cell_setting           triclinic
_symmetry_space_group_name_H-M   'P -1'
_symmetry_Int_Tables_number      2
_space_group_name_Hall           '-P 1'
loop_
_symmetry_equiv_pos_site_id
_symmetry_equiv_pos_as_xyz
1 x,y,z
2 -x,-y,-z
_cell_length_a                   8.028(2)
_cell_length_b                   10.269(3)
_cell_length_c                   4.780(2)
_cell_angle_alpha                93.85(3)
_cell_angle_beta                 101.01(2)
_cell_angle_gamma                90.04(3)
_cell_volume                     385.898
loop_
_atom_site_label
_atom_site_type_symbol
_atom_site_fract_x
_atom_site_fract_y
_atom_site_fract_z
N1 N 1.0077(4) 0.3800(3) 0.1168(6)
C4 C 0.8761(5) 0.4578(3) 0.1292(7)
C5 C 1.1289(5) 0.4219(4) -0.0125(8)
C6 C 0.7368(6) 0.4092(5) 0.269(1)
H3 H 1.221(4) 0.366(3) -0.008(6)
H4 H 0.785(6) 0.389(5) 0.45(1)
H5 H 0.668(6) 0.476(4) 0.315(10)
H6 H 0.658(5) 0.361(4) 0.139(9)
C5A C 0.8711(5) 0.5781(4) 0.0125(8)
C4A C 1.1239(5) 0.5422(3) -0.1292(7)
N1A N 0.9923(4) 0.6200(3) -0.1168(6)
H3A H 0.779(4) 0.634(3) 0.008(6)
C6A C 1.2632(6) 0.5908(5) -0.269(1)
H4A H 1.215(6) 0.611(5) -0.45(1)
H5A H 1.332(6) 0.524(4) -0.315(10)
H6A H 1.342(5) 0.639(4) -0.139(9)
Cu1 Cu 1.0000 0.00000 1.0000
Cl1 Cl 1.55977(10) -0.22825(8) 1.4231(2)
O1 O 1.2385(2) -0.0927(2) 1.2059(4)
O2 O 1.1837(2) 0.0972(2) 0.8455(4)
O3 O 1.0074(3) 0.1351(2) 1.3117(5)
C1 C 1.3634(3) -0.0531(3) 1.1149(6)
C2 C 1.3345(3) 0.0560(3) 0.9077(6)
C3 C 1.5287(3) -0.1032(3) 1.1915(6)
H1 H 1.067(4) 0.131(3) 1.459(7)
H2 H 1.012(4) 0.218(4) 1.248(8)
O1A O 0.7615(2) 0.0927(2) 0.7941(4)
O2A O 0.8163(2) -0.0972(2) 1.1545(4)
O3A O 0.9926(3) -0.1351(2) 0.6883(5)
C3A C 1.4713(3) 0.1032(3) 0.8085(6)
C2A C 1.6655(3) -0.0560(3) 1.0923(6)
C1A C 0.6366(3) 0.0531(3) 0.8851(6)
C2A_2 C 0.6655(3) -0.0560(3) 1.0923(6)
H1A H 0.933(4) -0.131(3) 0.541(7)
H2A H 0.988(4) -0.218(4) 0.752(8)
Cl1A Cl 1.44023(10) 0.22825(8) 0.5769(2)
C1A_2 C 1.6366(3) 0.0531(3) 0.8851(6)
O2A_2 O 1.8163(2) -0.0972(2) 1.1545(4)
C3A_2 C 0.4713(3) 0.1032(3) 0.8085(6)
loop_
_geom_bond_atom_site_label_1
_geom_bond_atom_site_label_2
_geom_bond_site_symmetry_1
_geom_bond_site_symmetry_2
Cu1 O1 1_555 1_555
Cl1 C3 1_555 1_555
O1 C1 1_555 1_555
O2 Cu1 1_555 1_555
O3 Cu1 1_555 1_555
N1 C4 1_555 1_555
C1 C2 1_555 1_555
C2 O2 1_555 1_555
C3 C1 1_555 1_555
C4 C6 1_555 1_555
C5 N1 1_555 1_555
C6 H4 1_555 1_555
H1 O3 1_555 1_555
H2 O3 1_555 1_555
H3 C5 1_555 1_555
H5 C6 1_555 1_555
H6 C6 1_555 1_555
O1A Cu1 1_555 1_555
O2A Cu1 1_555 1_555
O3A Cu1 1_555 1_555
C3A C2 1_555 1_555
C2A C3 1_555 1_555
C1A O1A 1_555 1_555
C2A_2 O2A 1_555 1_555
H1A O3A 1_555 1_555
H2A O3A 1_555 1_555
Cl1A C3A 1_555 1_555
C1A_2 C3A 1_555 1_555
O2A_2 C2A 1_555 1_555
C3A_2 C1A 1_555 1_555
C5A C4 1_555 1_555
C4A C5 1_555 1_555
N1A C5A 1_555 1_555
H3A C5A 1_555 1_555
C6A C4A 1_555 1_555
H4A C6A 1_555 1_555
H5A C6A 1_555 1_555
H6A C6A 1_555 1_555
C2A C1A_2 1_555 1_555
C1A C2A_2 1_555 1_555
C4A N1A 1_555 1_555

#END
