
#######################################################################
#
#                 Cambridge Crystallographic Data Centre
#                                CCDC 
#
#######################################################################
#
# If this CIF has been generated from an entry in the Cambridge 
# Structural Database, then it will include bibliographic, chemical, 
# crystal, experimental, refinement or atomic coordinate data resulting 
# from the CCDC's data processing and validation procedures.
#
#######################################################################

data_TINQEN
_symmetry_cell_setting           monoclinic
_symmetry_space_group_name_H-M   'P 21/c'
_symmetry_Int_Tables_number      14
_space_group_name_Hall           '-P 2ybc'
loop_
_symmetry_equiv_pos_site_id
_symmetry_equiv_pos_as_xyz
1 x,y,z
2 -x,1/2+y,1/2-z
3 -x,-y,-z
4 x,1/2-y,1/2+z
_cell_length_a                   8.1415(6)
_cell_length_b                   18.6885(15)
_cell_length_c                   6.3230(5)
_cell_angle_alpha                90
_cell_angle_beta                 99.860(4)
_cell_angle_gamma                90
_cell_volume                     947.849
loop_
_atom_site_label
_atom_site_type_symbol
_atom_site_fract_x
_atom_site_fract_y
_atom_site_fract_z
Na1 Na 0.47929(13) 0.70461(6) 0.82314(16)
S1 S 0.31622(6) 0.63408(3) 0.27575(8)
O1 O 0.4039(2) 0.68007(10) 0.4429(3)
O2 O 0.4037(2) 0.56729(10) 0.2570(3)
O3 O 0.2760(2) 0.67132(12) 0.0699(3)
O4 O 0.6775(2) 0.78332(11) 0.6530(3)
H1 H 0.759(2) 0.7566(12) 0.688(5)
H2 H 0.697(4) 0.8187(10) 0.733(4)
O5 O 0.5550(3) 0.58184(12) 0.8734(4)
H3 H 0.527(6) 0.5482(13) 0.789(4)
H4 H 0.522(5) 0.5698(19) 0.985(3)
N1 N -0.0974(3) 0.67174(14) 0.7935(3)
H5 H -0.010(2) 0.6876(17) 0.879(3)
H6 H -0.168(3) 0.6459(17) 0.849(4)
C1 C 0.0441(3) 0.52710(13) 0.0485(4)
H7 H 0.1357 0.5430 -0.0112
C2 C 0.0102(3) 0.56404(12) 0.2411(4)
C3 C -0.1390(3) 0.55170(14) 0.3206(4)
H8 H -0.2168 0.5190 0.2484
C4 C -0.1748(3) 0.58591(14) 0.5005(4)
H9 H -0.2759 0.5766 0.5481
C5 C -0.0613(3) 0.63444(13) 0.6121(4)
C6 C 0.0858(3) 0.64861(14) 0.5362(4)
H10 H 0.1616 0.6823 0.6071
C7 C 0.1217(3) 0.61327(13) 0.3559(3)
Na1B Na -0.47929(13) 0.29539(6) -0.82314(16)
Na1C Na 0.47929(13) 0.79539(6) 0.32314(16)
Na1_2 Na 0.47929(13) 0.70461(6) -0.17686(16)
Na1A Na -0.47929(13) 0.20461(6) -0.32314(16)
Na1B_2 Na -0.47929(13) 0.29539(6) 0.17686(16)
Na1C_2 Na 0.47929(13) 0.79539(6) 1.32314(16)
S1B S -0.31622(6) 0.36592(3) -0.27575(8)
O1B O -0.4039(2) 0.31993(10) -0.4429(3)
O1C O 0.4039(2) 0.81993(10) 0.9429(3)
O1A O -0.4039(2) 0.18007(10) -0.9429(3)
O2B O -0.4037(2) 0.43271(10) -0.2570(3)
O3B O -0.2760(2) 0.32868(12) -0.0699(3)
O3_2 O 0.2760(2) 0.67132(12) 1.0699(3)
O3B_2 O -0.2760(2) 0.32868(12) -1.0699(3)
O4C O 0.6775(2) 0.71668(11) 1.1530(3)
O4B O -0.6775(2) 0.21668(11) -0.6530(3)
O4A O -0.6775(2) 0.28332(11) -1.1530(3)
H1C H 0.759(2) 0.7434(12) 1.188(5)
H1B H -0.759(2) 0.2434(12) -0.688(5)
H1A H -0.759(2) 0.2566(12) -1.188(5)
H2C H 0.697(4) 0.6813(10) 1.233(4)
H2B H -0.697(4) 0.1813(10) -0.733(4)
H2A H -0.697(4) 0.3187(10) -1.233(4)
O5B O -0.5550(3) 0.41816(12) -0.8734(4)
H3B H -0.527(6) 0.4518(13) -0.789(4)
H4B H -0.522(5) 0.4302(19) -0.985(3)
N1B N 0.0974(3) 0.32826(14) -0.7935(3)
H5B H 0.010(2) 0.3124(17) -0.879(3)
H6B H 0.168(3) 0.3541(17) -0.849(4)
C1B C -0.0441(3) 0.47290(13) -0.0485(4)
H7B H -0.1357 0.4570 0.0112
C2B C -0.0102(3) 0.43596(12) -0.2411(4)
C3B C 0.1390(3) 0.44830(14) -0.3206(4)
H8B H 0.2168 0.4810 -0.2484
C4B C 0.1748(3) 0.41409(14) -0.5005(4)
H9B H 0.2759 0.4234 -0.5481
C5B C 0.0613(3) 0.36556(13) -0.6121(4)
C6B C -0.0858(3) 0.35139(14) -0.5362(4)
H10B H -0.1616 0.3177 -0.6071
C7B C -0.1217(3) 0.38673(13) -0.3559(3)
loop_
_geom_bond_atom_site_label_1
_geom_bond_atom_site_label_2
_geom_bond_site_symmetry_1
_geom_bond_site_symmetry_2
Na1 O1 1_555 1_555
S1 O1 1_555 1_555
O1 Na1C 1_555 1_555
O2 S1 1_555 1_555
O3 S1 1_555 1_555
O4 Na1 1_555 1_555
H1 O4 1_555 1_555
H2 O4 1_555 1_555
O5 Na1 1_555 1_555
H3 O5 1_555 1_555
H4 O5 1_555 1_555
N1 H5 1_555 1_555
H6 N1 1_555 1_555
C1 H7 1_555 1_555
C2 C1 1_555 1_555
C3 C2 1_555 1_555
H8 C3 1_555 1_555
C4 C3 1_555 1_555
H9 C4 1_555 1_555
C5 N1 1_555 1_555
C6 C5 1_555 1_555
H10 C6 1_555 1_555
C7 S1 1_555 1_555
Na1B O1B 1_555 1_555
Na1C O4 1_555 1_555
Na1_2 O3 1_555 1_555
Na1A O1B 1_555 1_555
Na1B_2 O3B 1_555 1_555
Na1C_2 O1C 1_555 1_555
S1B O1B 1_555 1_555
O1C Na1 1_555 1_555
O1A Na1B 1_555 1_555
O2B S1B 1_555 1_555
O3B S1B 1_555 1_555
O3_2 Na1 1_555 1_555
O3B_2 Na1B 1_555 1_555
O4C Na1 1_555 1_555
O4B Na1B 1_555 1_555
O4A Na1B 1_555 1_555
H1C O4C 1_555 1_555
H1B O4B 1_555 1_555
H1A O4A 1_555 1_555
H2C O4C 1_555 1_555
H2B O4B 1_555 1_555
H2A O4A 1_555 1_555
O5B Na1B 1_555 1_555
H3B O5B 1_555 1_555
H4B O5B 1_555 1_555
N1B H5B 1_555 1_555
H6B N1B 1_555 1_555
C1B C1 1_555 1_555
H7B C1B 1_555 1_555
C2B C1B 1_555 1_555
C3B C2B 1_555 1_555
H8B C3B 1_555 1_555
C4B C3B 1_555 1_555
H9B C4B 1_555 1_555
C5B N1B 1_555 1_555
C6B C5B 1_555 1_555
H10B C6B 1_555 1_555
C7B S1B 1_555 1_555
C2 C7 1_555 1_555
C4 C5 1_555 1_555
C6 C7 1_555 1_555
Na1A O4B 1_555 1_555
Na1C_2 O4C 1_555 1_555
C2B C7B 1_555 1_555
C4B C5B 1_555 1_555
C6B C7B 1_555 1_555

#END
