
#######################################################################
#
#                 Cambridge Crystallographic Data Centre
#                                CCDC 
#
#######################################################################
#
# If this CIF has been generated from an entry in the Cambridge 
# Structural Database, then it will include bibliographic, chemical, 
# crystal, experimental, refinement or atomic coordinate data resulting 
# from the CCDC's data processing and validation procedures.
#
#######################################################################

data_TINRUE
_symmetry_cell_setting           monoclinic
_symmetry_space_group_name_H-M   'P 21/c'
_symmetry_Int_Tables_number      14
_space_group_name_Hall           '-P 2ybc'
loop_
_symmetry_equiv_pos_site_id
_symmetry_equiv_pos_as_xyz
1 x,y,z
2 -x,1/2+y,1/2-z
3 -x,-y,-z
4 x,1/2-y,1/2+z
_cell_length_a                   7.2518(7)
_cell_length_b                   20.6995(19)
_cell_length_c                   11.3088(11)
_cell_angle_alpha                90
_cell_angle_beta                 95.914(5)
_cell_angle_gamma                90
_cell_volume                     1688.51
loop_
_atom_site_label
_atom_site_type_symbol
_atom_site_fract_x
_atom_site_fract_y
_atom_site_fract_z
Co1 Co 0.21952(5) 0.389651(17) 0.65376(3)
C1 C 0.1887(4) 0.51415(16) 0.8068(3)
H1 H 0.1646 0.4867 0.8685
C2 C 0.2052(5) 0.57978(18) 0.8292(3)
H2 H 0.1906 0.5961 0.9042
C3 C 0.2433(5) 0.62015(16) 0.7392(3)
H3 H 0.2567 0.6643 0.7525
C4 C 0.2617(4) 0.59479(14) 0.6290(3)
H4 H 0.2882 0.6215 0.5668
C5 C 0.2403(4) 0.52938(13) 0.6114(2)
C6 C 0.2538(3) 0.49664(12) 0.4984(2)
C7 C 0.2778(4) 0.47506(14) 0.3107(2)
C8 C 0.2962(5) 0.47506(16) 0.1891(3)
H5 H 0.3118 0.5131 0.1475
C9 C 0.2899(5) 0.41577(18) 0.1343(3)
H6 H 0.3018 0.4137 0.0533
C10 C 0.2664(5) 0.35865(16) 0.1960(3)
H7 H 0.2617 0.3197 0.1549
C11 C 0.2500(4) 0.35825(15) 0.3156(3)
H8 H 0.2354 0.3199 0.3565
C12 C 0.2559(4) 0.41753(13) 0.3730(2)
C13 C 0.4583(4) 0.35217(12) 0.8096(2)
C14 C 0.6013(4) 0.31788(12) 0.8909(2)
C15 C 0.7883(4) 0.32392(13) 0.8738(2)
H9 H 0.8250 0.3527 0.8175
C16 C 0.9190(4) 0.28677(13) 0.9411(2)
H10 H 1.0440 0.2915 0.9314
C17 C 0.8643(3) 0.24263(12) 1.0228(2)
C18 C 1.0033(4) 0.19638(13) 1.0811(2)
C19 C 0.6783(4) 0.23799(13) 1.0420(2)
H11 H 0.6417 0.2093 1.0984
C20 C 0.5484(4) 0.27602(13) 0.9769(2)
H12 H 0.4244 0.2736 0.9910
O1 O 0.2913(3) 0.35225(10) 0.83061(17)
O2 O 0.5059(2) 0.37898(9) 0.71660(16)
O3 O 1.1733(2) 0.20703(9) 1.08103(17)
O4 O 0.9473(2) 0.14397(9) 1.12442(16)
N1 N 0.2062(3) 0.48882(11) 0.7003(2)
N2 N 0.2420(3) 0.43282(10) 0.49134(18)
N3 N 0.2760(3) 0.52381(11) 0.3928(2)
H13 H 0.2871 0.5644 0.3792
Co1C Co 1.21952(5) 0.110349(17) 1.15376(3)
O3C O 0.1733(2) 0.29297(9) 0.58103(17)
O4C O -0.0527(2) 0.35603(9) 0.62442(16)
loop_
_geom_bond_atom_site_label_1
_geom_bond_atom_site_label_2
_geom_bond_site_symmetry_1
_geom_bond_site_symmetry_2
Co1 O1 1_555 1_555
C1 H1 1_555 1_555
C2 C1 1_555 1_555
H2 C2 1_555 1_555
C3 C2 1_555 1_555
H3 C3 1_555 1_555
C4 C3 1_555 1_555
H4 C4 1_555 1_555
C5 C4 1_555 1_555
C6 C5 1_555 1_555
C7 C8 1_555 1_555
C8 H5 1_555 1_555
C9 C8 1_555 1_555
H6 C9 1_555 1_555
C10 C9 1_555 1_555
H7 C10 1_555 1_555
C11 C10 1_555 1_555
H8 C11 1_555 1_555
C12 C7 1_555 1_555
C13 C14 1_555 1_555
C14 C15 1_555 1_555
C15 H9 1_555 1_555
C16 C15 1_555 1_555
H10 C16 1_555 1_555
C17 C16 1_555 1_555
C18 C17 1_555 1_555
C19 C17 1_555 1_555
H11 C19 1_555 1_555
C20 C14 1_555 1_555
H12 C20 1_555 1_555
O1 C13 1_555 1_555
O2 Co1 1_555 1_555
O3 C18 1_555 1_555
O4 C18 1_555 1_555
N1 Co1 1_555 1_555
N2 Co1 1_555 1_555
N3 C6 1_555 1_555
H13 N3 1_555 1_555
Co1C O3 1_555 1_555
O3C Co1 1_555 1_555
O4C Co1 1_555 1_555
C1 N1 1_555 1_555
C5 N1 1_555 1_555
C6 N2 1_555 1_555
C7 N3 1_555 1_555
C11 C12 1_555 1_555
C12 N2 1_555 1_555
C13 O2 1_555 1_555
C19 C20 1_555 1_555
O4 Co1C 1_555 1_555

#END
