
#######################################################################
#
#                 Cambridge Crystallographic Data Centre
#                                CCDC 
#
#######################################################################
#
# If this CIF has been generated from an entry in the Cambridge 
# Structural Database, then it will include bibliographic, chemical, 
# crystal, experimental, refinement or atomic coordinate data resulting 
# from the CCDC's data processing and validation procedures.
#
#######################################################################

data_TINREO
_symmetry_cell_setting           orthorhombic
_symmetry_space_group_name_H-M   'P c c n'
_symmetry_Int_Tables_number      56
_space_group_name_Hall           '-P 2ab 2ac'
loop_
_symmetry_equiv_pos_site_id
_symmetry_equiv_pos_as_xyz
1 x,y,z
2 1/2-x,1/2-y,z
3 1/2+x,-y,1/2-z
4 -x,1/2+y,1/2-z
5 -x,-y,-z
6 1/2+x,1/2+y,-z
7 1/2-x,y,1/2+z
8 x,1/2-y,1/2+z
_cell_length_a                   18.102(4)
_cell_length_b                   7.4538(19)
_cell_length_c                   15.089(4)
_cell_angle_alpha                90
_cell_angle_beta                 90
_cell_angle_gamma                90
_cell_volume                     2035.94
loop_
_atom_site_label
_atom_site_type_symbol
_atom_site_fract_x
_atom_site_fract_y
_atom_site_fract_z
Co1 Co 1.04346(3) 0.17886(7) 0.37080(4)
O1 O 0.94108(15) 0.2810(4) 0.38571(18)
O2 O 0.91508(16) 0.3204(4) 0.52828(18)
O3 O 0.66360(16) 0.5739(4) 0.61282(18)
O4 O 0.59267(16) 0.6600(4) 0.50529(18)
O5 O 0.72308(15) 0.5429(3) 0.22300(18)
H1 H 0.7601 0.5456 0.1917
O6 O 1.08354(15) 0.4366(4) 0.34307(17)
H2 H 1.1266 0.4413 0.3183
H3 H 1.0836 0.4966 0.3886
O7 O 1.03489(15) 0.1460(4) 0.23670(19)
H4 H 1.0238 0.2373 0.2012
H5 H 1.0084 0.0595 0.2259
O8 O 1.00636(15) -0.0888(4) 0.38236(17)
H6 H 1.0374 -0.1590 0.4108
H7 H 0.9690 -0.0914 0.4131
C1 C 0.8272(2) 0.4173(5) 0.4220(3)
C2 C 0.7768(2) 0.4667(5) 0.4871(3)
H8 H 0.7881 0.4493 0.5466
C3 C 0.7096(2) 0.5416(5) 0.4635(3)
C4 C 0.6928(2) 0.5694(5) 0.3739(3)
H9 H 0.6483 0.6223 0.3576
C5 C 0.7433(2) 0.5179(5) 0.3099(3)
C6 C 0.8096(2) 0.4427(6) 0.3326(3)
H10 H 0.8429 0.4080 0.2889
C7 C 0.9002(2) 0.3346(5) 0.4477(3)
C8 C 0.6541(2) 0.5946(6) 0.5305(3)
Co1E Co 0.54346(3) 0.67886(7) 0.62920(4)
O3E O 1.16360(16) 0.0739(4) 0.38718(18)
O4E O 1.09267(16) 0.1600(4) 0.49471(18)
loop_
_geom_bond_atom_site_label_1
_geom_bond_atom_site_label_2
_geom_bond_site_symmetry_1
_geom_bond_site_symmetry_2
Co1 O1 1_555 1_555
O1 C7 1_555 1_555
O2 C7 1_555 1_555
O3 C8 1_555 1_555
O4 C8 1_555 1_555
O5 H1 1_555 1_555
O6 Co1 1_555 1_555
H2 O6 1_555 1_555
H3 O6 1_555 1_555
O7 Co1 1_555 1_555
H4 O7 1_555 1_555
H5 O7 1_555 1_555
O8 Co1 1_555 1_555
H6 O8 1_555 1_555
H7 O8 1_555 1_555
C1 C2 1_555 1_555
C2 H8 1_555 1_555
C3 C2 1_555 1_555
C4 C3 1_555 1_555
H9 C4 1_555 1_555
C5 O5 1_555 1_555
C6 C1 1_555 1_555
H10 C6 1_555 1_555
C7 C1 1_555 1_555
C8 C3 1_555 1_555
Co1E O3 1_555 1_555
O3E Co1 1_555 1_555
O4E Co1 1_555 1_555
O4 Co1E 1_555 1_555
C4 C5 1_555 1_555
C5 C6 1_555 1_555

#END
