
#######################################################################
#
#                 Cambridge Crystallographic Data Centre
#                                CCDC 
#
#######################################################################
#
# If this CIF has been generated from an entry in the Cambridge 
# Structural Database, then it will include bibliographic, chemical, 
# crystal, experimental, refinement or atomic coordinate data resulting 
# from the CCDC's data processing and validation procedures.
#
#######################################################################

data_TINROY
_symmetry_cell_setting           monoclinic
_symmetry_space_group_name_H-M   'P 21/c'
_symmetry_Int_Tables_number      14
_space_group_name_Hall           '-P 2ybc'
loop_
_symmetry_equiv_pos_site_id
_symmetry_equiv_pos_as_xyz
1 x,y,z
2 -x,1/2+y,1/2-z
3 -x,-y,-z
4 x,1/2-y,1/2+z
_cell_length_a                   10.683(2)
_cell_length_b                   13.987(3)
_cell_length_c                   15.385(3)
_cell_angle_alpha                90
_cell_angle_beta                 102.07(3)
_cell_angle_gamma                90
_cell_volume                     2248.05
loop_
_atom_site_label
_atom_site_type_symbol
_atom_site_fract_x
_atom_site_fract_y
_atom_site_fract_z
Ag1 Ag 0.80506(3) 0.22447(2) 0.46567(3)
C9 C 0.8000(5) 0.4069(3) 0.3505(3)
H9 H 0.7853 0.3707 0.2986
C10 C 0.8194(5) 0.5016(3) 0.3547(3)
H10 H 0.8214 0.5424 0.3073
C11 C 0.8266(4) 0.4461(3) 0.4867(3)
H11 H 0.8346 0.4433 0.5480
C12 C 0.7291(3) 0.6783(2) 0.4694(2)
C13 C 0.7329(3) 0.7772(2) 0.4811(2)
C14 C 0.8609(3) 0.8280(2) 0.4959(3)
H12 H 0.9213 0.7942 0.5413
H13 H 0.8928 0.8257 0.4414
C15 C 0.6192(4) 0.8265(3) 0.4773(3)
H14 H 0.6211 0.8924 0.4857
C16 C 0.5030(4) 0.7791(3) 0.4613(4)
H15 H 0.4275 0.8132 0.4584
C17 C 0.4992(4) 0.6823(4) 0.4497(4)
H16 H 0.4211 0.6505 0.4390
C18 C 0.6116(4) 0.6316(3) 0.4540(3)
H17 H 0.6085 0.5656 0.4465
C19 C 0.8532(4) 0.6233(2) 0.4755(3)
H18 H 0.9071 0.6578 0.4426
H19 H 0.8978 0.6209 0.5372
N1 N 0.8051(3) 0.3716(2) 0.4339(2)
N2 N 0.8356(3) 0.5266(2) 0.4413(2)
N4 N 0.8549(3) 0.92730(19) 0.52284(19)
C20 C 0.8364(4) 1.0041(3) 0.4692(2)
H20 H 0.8298 1.0020 0.4080
N5 N 0.8289(3) 1.0823(2) 0.5148(2)
C21 C 0.8436(4) 1.0544(3) 0.6015(3)
H21 H 0.8426 1.0951 0.6492
C22 C 0.8597(4) 0.9588(3) 0.6074(3)
H22 H 0.8717 0.9219 0.6587
Ag1_2 Ag 0.80506(3) 1.22447(2) 0.46567(3)
N5_2 N 0.8289(3) 0.0823(2) 0.5148(2)
C1 C 0.7721(4) 0.4262(3) 0.7408(2)
C2 C 0.6586(4) 0.4087(3) 0.7712(3)
C3 C 0.5829(4) 0.4850(4) 0.7852(3)
C4 C 0.6187(5) 0.5765(3) 0.7683(3)
H1 H 0.5666 0.6271 0.7776
C5 C 0.7290(5) 0.5963(3) 0.7381(3)
C6 C 0.8072(4) 0.5209(3) 0.7249(2)
H2 H 0.8827 0.5327 0.7056
C7 C 0.4636(6) 0.4682(5) 0.8230(5)
H3 H 0.4524 0.4008 0.8305
H4 H 0.3901 0.4935 0.7828
H5 H 0.4733 0.4996 0.8795
C8 C 0.7649(7) 0.6982(4) 0.7215(4)
H6 H 0.7003 0.7408 0.7339
H7 H 0.7715 0.7052 0.6606
H8 H 0.8457 0.7134 0.7596
N3 N 0.6217(5) 0.3171(3) 0.7929(4)
O1 O 0.9699(4) 0.3667(3) 0.6837(2)
O2 O 0.7907(4) 0.2586(3) 0.6756(3)
O3 O 0.9261(3) 0.2952(2) 0.8160(2)
S1 S 0.87311(11) 0.32912(7) 0.72741(6)
H23 H 0.569(3) 0.2884(16) 0.819(3)
H24 H 0.642(6) 0.265(2) 0.769(4)
loop_
_geom_bond_atom_site_label_1
_geom_bond_atom_site_label_2
_geom_bond_site_symmetry_1
_geom_bond_site_symmetry_2
Ag1 N1 1_555 1_555
C1 C2 1_555 1_555
C2 C3 1_555 1_555
C3 C4 1_555 1_555
C4 H1 1_555 1_555
C5 C4 1_555 1_555
C6 C1 1_555 1_555
H2 C6 1_555 1_555
C7 C3 1_555 1_555
H3 C7 1_555 1_555
H4 C7 1_555 1_555
H5 C7 1_555 1_555
C8 C5 1_555 1_555
H6 C8 1_555 1_555
H7 C8 1_555 1_555
H8 C8 1_555 1_555
C9 H9 1_555 1_555
C10 C9 1_555 1_555
H10 C10 1_555 1_555
C11 H11 1_555 1_555
C12 C13 1_555 1_555
C13 C14 1_555 1_555
C14 H12 1_555 1_555
H13 C14 1_555 1_555
C15 C13 1_555 1_555
H14 C15 1_555 1_555
C16 C15 1_555 1_555
H15 C16 1_555 1_555
C17 C16 1_555 1_555
H16 C17 1_555 1_555
C18 C12 1_555 1_555
H17 C18 1_555 1_555
C19 C12 1_555 1_555
H18 C19 1_555 1_555
H19 C19 1_555 1_555
N1 C9 1_555 1_555
N2 C10 1_555 1_555
N3 C2 1_555 1_555
O1 S1 1_555 1_555
O2 S1 1_555 1_555
O3 S1 1_555 1_555
S1 C1 1_555 1_555
N4 C14 1_555 1_555
C20 N4 1_555 1_555
H20 C20 1_555 1_555
N5 C20 1_555 1_555
C21 N5 1_555 1_555
H21 C21 1_555 1_555
C22 N4 1_555 1_555
H22 C22 1_555 1_555
H23 N3 1_555 1_555
H24 N3 1_555 1_555
Ag1_2 N5 1_555 1_555
N5_2 Ag1 1_555 1_555
C5 C6 1_555 1_555
C11 N1 1_555 1_555
C11 N2 1_555 1_555
C17 C18 1_555 1_555
C19 N2 1_555 1_555
C21 C22 1_555 1_555

#END
