
#######################################################################
#
#                 Cambridge Crystallographic Data Centre
#                                CCDC 
#
#######################################################################
#
# If this CIF has been generated from an entry in the Cambridge 
# Structural Database, then it will include bibliographic, chemical, 
# crystal, experimental, refinement or atomic coordinate data resulting 
# from the CCDC's data processing and validation procedures.
#
#######################################################################

data_TINTEQ
_symmetry_cell_setting           monoclinic
_symmetry_space_group_name_H-M   'P 21/n'
_symmetry_Int_Tables_number      14
_space_group_name_Hall           '-P 2yn'
loop_
_symmetry_equiv_pos_site_id
_symmetry_equiv_pos_as_xyz
1 x,y,z
2 1/2-x,1/2+y,1/2-z
3 -x,-y,-z
4 1/2+x,1/2-y,1/2+z
_cell_length_a                   7.162(4)
_cell_length_b                   16.298(9)
_cell_length_c                   13.721(6)
_cell_angle_alpha                90
_cell_angle_beta                 103.26(2)
_cell_angle_gamma                90
_cell_volume                     1558.9
loop_
_atom_site_label
_atom_site_type_symbol
_atom_site_fract_x
_atom_site_fract_y
_atom_site_fract_z
Ag1 Ag -0.29399(9) 0.23016(5) 0.46242(6)
C1 C -0.8869(11) 0.3127(5) 0.4664(6)
C2 C -0.6937(10) 0.3119(5) 0.4708(6)
N1 N -0.6000(8) 0.2405(4) 0.4677(5)
N3 N -0.9901(10) 0.2414(5) 0.4624(5)
C8 C -0.5756(13) 0.3885(6) 0.4822(8)
H4 H -0.4447 0.3747 0.4834
H5 H -0.5818 0.4154 0.5436
H6 H -0.6243 0.4245 0.4268
C9 C -0.7001(13) 0.1707(5) 0.4620(7)
H7 H -0.6393 0.1207 0.4587
C11 C -0.8916(12) 0.1724(6) 0.4612(7)
H9 H -0.9561 0.1228 0.4598
C12 C -0.9974(14) 0.3922(6) 0.4655(8)
H10 H -1.1298 0.3800 0.4626
H11 H -0.9878 0.4240 0.4080
H12 H -0.9447 0.4227 0.5253
O4 O -0.3165(10) 0.0749(4) 0.4468(6)
H13 H -0.270(17) 0.050(7) 0.403(6)
H14 H -0.269(17) 0.050(7) 0.501(4)
Ag1_2 Ag -1.29399(9) 0.23016(5) 0.46242(6)
N3_2 N 0.0099(10) 0.2414(5) 0.4624(5)
Cl1 Cl -0.4029(3) 0.11290(13) 0.70107(19)
S1 S 0.0264(3) 0.03566(11) 0.70936(15)
Cl2 Cl 0.2908(3) 0.34574(12) 0.72206(17)
O1 O -0.0284(10) -0.0027(4) 0.7928(5)
O2 O 0.2262(10) 0.0319(4) 0.7124(6)
C3 C -0.2032(11) 0.1760(5) 0.7083(6)
C4 C -0.0839(11) 0.3161(5) 0.7147(6)
O3 O -0.0909(12) 0.0070(4) 0.6145(6)
C5 C -0.0228(10) 0.1426(4) 0.7134(6)
N2 N -0.1112(11) 0.3970(4) 0.7135(7)
H1 H -0.225(7) 0.401(8) 0.722(9)
H2 H -0.013(10) 0.414(7) 0.756(7)
C6 C 0.0991(10) 0.2810(4) 0.7199(6)
C7 C 0.1272(12) 0.1976(5) 0.7203(6)
H3 H 0.2505 0.1774 0.7253
C10 C -0.2334(12) 0.2593(5) 0.7078(6)
H8 H -0.3574 0.2787 0.7026
loop_
_geom_bond_atom_site_label_1
_geom_bond_atom_site_label_2
_geom_bond_site_symmetry_1
_geom_bond_site_symmetry_2
Ag1 N1 1_555 1_555
Cl1 C3 1_555 1_555
S1 O1 1_555 1_555
Cl2 C6 1_555 1_555
C1 C2 1_555 1_555
C2 N1 1_555 1_555
O2 S1 1_555 1_555
C3 C5 1_555 1_555
C4 N2 1_555 1_555
O3 S1 1_555 1_555
N1 C9 1_555 1_555
C5 S1 1_555 1_555
N2 H1 1_555 1_555
H2 N2 1_555 1_555
C6 C4 1_555 1_555
N3 C1 1_555 1_555
C7 C5 1_555 1_555
H3 C7 1_555 1_555
C8 C2 1_555 1_555
H4 C8 1_555 1_555
H5 C8 1_555 1_555
H6 C8 1_555 1_555
C9 H7 1_555 1_555
C10 C3 1_555 1_555
H8 C10 1_555 1_555
C11 N3 1_555 1_555
H9 C11 1_555 1_555
C12 C1 1_555 1_555
H10 C12 1_555 1_555
H11 C12 1_555 1_555
H12 C12 1_555 1_555
O4 Ag1 1_555 1_555
H13 O4 1_555 1_555
H14 O4 1_555 1_555
Ag1_2 N3 1_555 1_555
N3_2 Ag1 1_555 1_555
C4 C10 1_555 1_555
C6 C7 1_555 1_555
C9 C11 1_555 1_555

#END
