
#######################################################################
#
#                 Cambridge Crystallographic Data Centre
#                                CCDC 
#
#######################################################################
#
# If this CIF has been generated from an entry in the Cambridge 
# Structural Database, then it will include bibliographic, chemical, 
# crystal, experimental, refinement or atomic coordinate data resulting 
# from the CCDC's data processing and validation procedures.
#
#######################################################################

data_TIPBID
_symmetry_cell_setting           monoclinic
_symmetry_space_group_name_H-M   'P 21/n'
_symmetry_Int_Tables_number      14
_space_group_name_Hall           '-P 2yn'
loop_
_symmetry_equiv_pos_site_id
_symmetry_equiv_pos_as_xyz
1 x,y,z
2 1/2-x,1/2+y,1/2-z
3 -x,-y,-z
4 1/2+x,1/2-y,1/2+z
_cell_length_a                   13.3080(10)
_cell_length_b                   17.729(2)
_cell_length_c                   17.885(2)
_cell_angle_alpha                90
_cell_angle_beta                 94.730(10)
_cell_angle_gamma                90
_cell_volume                     4205.37
loop_
_atom_site_label
_atom_site_type_symbol
_atom_site_fract_x
_atom_site_fract_y
_atom_site_fract_z
Si1 Si 0.0311(1) 0.6581(1) 0.0540(1)
Si2 Si -0.0910(1) 0.6681(1) -0.0999(1)
O1 O -0.0346(3) 0.6924(3) -0.0188(3)
O2 O 0.0451(3) 0.5696(2) 0.0502(2)
O3 O -0.0853(3) 0.5810(3) -0.1134(2)
Li1 Li -0.0244(8) 0.4708(6) 0.0581(6)
Li2 Li 0.1432(8) 0.5150(7) 0.1200(7)
C1 C 0.1552(3) 0.7116(3) 0.0577(3)
C2 C 0.2116(4) 0.7230(3) 0.1257(2)
C3 C 0.3051(4) 0.7582(3) 0.1273(3)
C4 C 0.3422(3) 0.7820(3) 0.0609(4)
C5 C 0.2858(4) 0.7707(3) -0.0072(3)
C6 C 0.1923(4) 0.7355(3) -0.0087(2)
C7 C -0.0363(4) 0.6892(3) 0.1377(3)
C8 C -0.0667(5) 0.7640(3) 0.1407(4)
C9 C -0.1230(5) 0.7882(4) 0.1983(5)
C10 C -0.1489(4) 0.7375(5) 0.2528(4)
C11 C -0.1185(5) 0.6626(5) 0.2497(3)
C12 C -0.0622(5) 0.6385(3) 0.1921(3)
C13 C -0.0269(4) 0.7232(3) -0.1735(3)
C14 C 0.0264(4) 0.6859(3) -0.2260(3)
C15 C 0.0764(4) 0.7269(5) -0.2777(3)
C16 C 0.0732(5) 0.8053(5) -0.2770(4)
C17 C 0.0199(6) 0.8426(3) -0.2245(5)
C18 C -0.0301(5) 0.8015(3) -0.1727(4)
C19 C -0.2243(3) 0.7070(3) -0.0977(3)
C20 C -0.2622(4) 0.7255(3) -0.0300(3)
C21 C -0.3615(4) 0.7495(4) -0.0288(3)
C22 C -0.4229(3) 0.7551(4) -0.0953(4)
C23 C -0.3850(3) 0.7366(3) -0.1630(3)
C24 C -0.2857(4) 0.7126(3) -0.1642(3)
C25 C 0.3539(5) 0.5733(5) 0.0716(4)
C26 C 0.4590(5) 0.5696(4) 0.0710(4)
C27 C 0.5114(5) 0.5126(4) 0.1086(4)
C28 C 0.4562(6) 0.4626(5) 0.1464(6)
C29 C 0.3524(6) 0.4700(5) 0.1455(6)
N1 N 0.3004(4) 0.5252(4) 0.1081(4)
C30 C 0.7795(5) 0.5409(5) 0.0652(4)
C31 C 0.6793(5) 0.5546(4) 0.0704(4)
C32 C 0.6227(4) 0.5031(4) 0.1063(4)
C33 C 0.6723(6) 0.4420(5) 0.1360(5)
C34 C 0.7745(5) 0.4346(6) 0.1285(5)
N2 N 0.1714(4) 0.5192(4) -0.0930(3)
O4 O 0.1615(5) 0.5352(4) 0.2340(4)
C35 C 0.2288(11) 0.5836(9) 0.2745(8)
C36 C 0.2408(20) 0.5468(14) 0.3500(14)
C37 C 0.1974(22) 0.4879(15) 0.3424(18)
C38 C 0.1308(14) 0.4813(10) 0.2844(10)
H1 H 0.1868(5) 0.7070(5) 0.1702(3)
H2 H 0.3429(5) 0.7658(5) 0.1728(4)
H3 H 0.4048(4) 0.8056(5) 0.0619(5)
H4 H 0.3106(6) 0.7866(5) -0.0516(4)
H5 H 0.1546(5) 0.7279(5) -0.0542(3)
H6 H -0.0494(8) 0.7980(4) 0.1043(5)
H7 H -0.1433(8) 0.8383(4) 0.2003(6)
H8 H -0.1866(6) 0.7537(7) 0.2913(5)
H9 H -0.1358(8) 0.6287(6) 0.2861(4)
H10 H -0.0419(7) 0.5884(3) 0.1901(5)
H11 H 0.0285(6) 0.6334(3) -0.2265(5)
H12 H 0.1120(6) 0.7019(6) -0.3129(4)
H13 H 0.1066(7) 0.8327(6) -0.3116(5)
H14 H 0.0178(8) 0.8950(3) -0.2240(7)
H15 H -0.0657(7) 0.8265(5) -0.1376(5)
H16 H -0.2212(5) 0.7218(5) 0.0146(3)
H17 H -0.3869(6) 0.7619(5) 0.0166(4)
H18 H -0.4894(3) 0.7712(5) -0.0945(5)
H19 H -0.4261(5) 0.7403(5) -0.2076(4)
H20 H -0.2603(5) 0.7002(5) -0.2096(3)
H21 H 0.3200(5) 0.6119(5) 0.0449(4)
H22 H 0.4932(5) 0.6057(4) 0.0451(4)
H23 H 0.4886(6) 0.4232(5) 0.1730(6)
H24 H 0.3171(6) 0.4351(5) 0.1719(6)
H25 H 0.8159(5) 0.5763(5) 0.0402(4)
H26 H 0.6496(5) 0.5982(4) 0.0498(4)
H27 H 0.6381(6) 0.4055(5) 0.1611(5)
H28 H 0.8069(5) 0.3929(6) 0.1509(5)
H29 H 0.2927(11) 0.5864(9) 0.2521(8)
H30 H 0.2009(11) 0.6339(9) 0.2775(8)
H31 H 0.2113(20) 0.5778(14) 0.3871(14)
H32 H 0.3115(20) 0.5389(14) 0.3657(14)
H33 H 0.2474(22) 0.4484(15) 0.3391(18)
H34 H 0.1634(22) 0.4785(15) 0.3874(18)
H35 H 0.0633(14) 0.4920(10) 0.2983(10)
H36 H 0.1320(14) 0.4311(10) 0.2631(10)
Li1B Li 0.0244(8) 0.5292(6) -0.0581(6)
O2B O -0.0451(3) 0.4304(2) -0.0502(2)
O3B O 0.0853(3) 0.4190(3) 0.1134(2)
Li1_2 Li 0.9756(8) 0.4708(6) 0.0581(6)
N2B N 0.8286(4) 0.4808(4) 0.0930(3)
Li2B Li -0.1432(8) 0.4850(7) -0.1200(7)
loop_
_geom_bond_atom_site_label_1
_geom_bond_atom_site_label_2
_geom_bond_site_symmetry_1
_geom_bond_site_symmetry_2
Si1 O1 1_555 1_555
Si2 O1 1_555 1_555
O2 Si1 1_555 1_555
O3 Si2 1_555 1_555
Li1 O2 1_555 1_555
Li2 O2 1_555 1_555
C1 Si1 1_555 1_555
C2 C1 1_555 1_555
C3 C2 1_555 1_555
C4 C3 1_555 1_555
C5 C4 1_555 1_555
C6 C1 1_555 1_555
C7 Si1 1_555 1_555
C8 C7 1_555 1_555
C9 C8 1_555 1_555
C10 C9 1_555 1_555
C11 C10 1_555 1_555
C12 C7 1_555 1_555
C13 Si2 1_555 1_555
C14 C13 1_555 1_555
C15 C14 1_555 1_555
C16 C15 1_555 1_555
C17 C16 1_555 1_555
C18 C13 1_555 1_555
C19 Si2 1_555 1_555
C20 C19 1_555 1_555
C21 C20 1_555 1_555
C22 C21 1_555 1_555
C23 C22 1_555 1_555
C24 C19 1_555 1_555
C25 C26 1_555 1_555
C26 C27 1_555 1_555
C27 C28 1_555 1_555
C28 C29 1_555 1_555
C29 N1 1_555 1_555
N1 Li2 1_555 1_555
C30 C31 1_555 1_555
C31 C32 1_555 1_555
C32 C27 1_555 1_555
C33 C32 1_555 1_555
C34 C33 1_555 1_555
N2 Li1B 1_555 1_555
O4 Li2 1_555 1_555
C35 O4 1_555 1_555
C36 C35 1_555 1_555
C37 C36 1_555 1_555
C38 O4 1_555 1_555
H1 C2 1_555 1_555
H2 C3 1_555 1_555
H3 C4 1_555 1_555
H4 C5 1_555 1_555
H5 C6 1_555 1_555
H6 C8 1_555 1_555
H7 C9 1_555 1_555
H8 C10 1_555 1_555
H9 C11 1_555 1_555
H10 C12 1_555 1_555
H11 C14 1_555 1_555
H12 C15 1_555 1_555
H13 C16 1_555 1_555
H14 C17 1_555 1_555
H15 C18 1_555 1_555
H16 C20 1_555 1_555
H17 C21 1_555 1_555
H18 C22 1_555 1_555
H19 C23 1_555 1_555
H20 C24 1_555 1_555
H21 C25 1_555 1_555
H22 C26 1_555 1_555
H23 C28 1_555 1_555
H24 C29 1_555 1_555
H25 C30 1_555 1_555
H26 C31 1_555 1_555
H27 C33 1_555 1_555
H28 C34 1_555 1_555
H29 C35 1_555 1_555
H30 C35 1_555 1_555
H31 C36 1_555 1_555
H32 C36 1_555 1_555
H33 C37 1_555 1_555
H34 C37 1_555 1_555
H35 C38 1_555 1_555
H36 C38 1_555 1_555
Li1B O2 1_555 1_555
O2B Li1 1_555 1_555
O3B Li1 1_555 1_555
Li1_2 N2B 1_555 1_555
N2B C30 1_555 1_555
Li2B O3 1_555 1_555
O3 Li1B 1_555 1_555
Li1 Li1B 1_555 1_555
Li2 O3B 1_555 1_555
C5 C6 1_555 1_555
C11 C12 1_555 1_555
C17 C18 1_555 1_555
C23 C24 1_555 1_555
C25 N1 1_555 1_555
C34 N2B 1_555 1_555
C37 C38 1_555 1_555
Li1B O2B 1_555 1_555
O2B Li2B 1_555 1_555

#END
