
#######################################################################
#
#                 Cambridge Crystallographic Data Centre
#                                CCDC 
#
#######################################################################
#
# If this CIF has been generated from an entry in the Cambridge 
# Structural Database, then it will include bibliographic, chemical, 
# crystal, experimental, refinement or atomic coordinate data resulting 
# from the CCDC's data processing and validation procedures.
#
#######################################################################

data_TIPBEZ
_symmetry_cell_setting           monoclinic
_symmetry_space_group_name_H-M   'P 21'
_symmetry_Int_Tables_number      4
_space_group_name_Hall           'P 2yb'
loop_
_symmetry_equiv_pos_site_id
_symmetry_equiv_pos_as_xyz
1 x,y,z
2 -x,1/2+y,-z
_cell_length_a                   11.924(2)
_cell_length_b                   21.258(2)
_cell_length_c                   12.6570(10)
_cell_angle_alpha                90
_cell_angle_beta                 103.820(10)
_cell_angle_gamma                90
_cell_volume                     3115.42
loop_
_atom_site_label
_atom_site_type_symbol
_atom_site_fract_x
_atom_site_fract_y
_atom_site_fract_z
O1 O -0.0075(3) -0.2211(2) 0.5797(3)
O2 O -0.1089(3) -0.1894(2) 0.7371(3)
O3 O -0.2689(3) -0.1685(2) 0.5520(3)
O4 O -0.1281(3) -0.1699(2) 0.3726(3)
O5 O -0.2835(3) -0.1517(2) 0.1820(3)
O6 O -0.3930(3) -0.1269(2) 0.3378(3)
C1 C 0.0667(4) -0.2820(2) 0.7886(3)
C2 C 0.0063(4) -0.3068(3) 0.8603(4)
C3 C 0.0429(5) -0.3624(3) 0.9154(4)
C4 C 0.1399(5) -0.3934(2) 0.8988(4)
C5 C 0.2004(4) -0.3686(2) 0.8271(4)
C6 C 0.1638(4) -0.3130(2) 0.7720(4)
C7 C 0.1160(3) -0.1417(2) 0.7501(3)
C8 C 0.2245(4) -0.1473(2) 0.8205(4)
C9 C 0.2965(4) -0.0952(3) 0.8436(4)
C10 C 0.2600(6) -0.0374(3) 0.7963(5)
C11 C 0.1515(6) -0.0318(2) 0.7259(5)
C12 C 0.0795(4) -0.0839(3) 0.7028(4)
C13 C -0.2447(5) -0.0794(2) 0.7262(4)
C14 C -0.3314(4) -0.0392(4) 0.6718(4)
C15 C -0.3325(7) 0.0232(3) 0.7041(7)
C16 C -0.2469(9) 0.0455(2) 0.7907(8)
C17 C -0.1603(7) 0.0052(4) 0.8451(6)
C18 C -0.1592(4) -0.0572(4) 0.8128(5)
C19 C -0.3386(4) -0.2118(3) 0.7436(3)
C20 C -0.3935(5) -0.1863(3) 0.8190(4)
C21 C -0.4661(4) -0.2235(4) 0.8638(4)
C22 C -0.4839(4) -0.2862(3) 0.8333(5)
C23 C -0.4290(5) -0.3117(2) 0.7579(6)
C24 C -0.3563(5) -0.2745(3) 0.7130(4)
C25 C -0.1424(4) -0.2594(2) 0.1959(4)
C26 C -0.2058(4) -0.2771(3) 0.0932(4)
C27 C -0.1976(4) -0.3382(3) 0.0564(4)
C28 C -0.1260(5) -0.3815(2) 0.1222(5)
C29 C -0.0625(5) -0.3638(2) 0.2249(5)
C30 C -0.0707(4) -0.3027(2) 0.2617(3)
C31 C -0.0524(3) -0.1244(2) 0.1860(3)
C32 C -0.0035(4) -0.1462(3) 0.1036(4)
C33 C 0.0708(5) -0.1078(4) 0.0631(4)
C34 C 0.0961(4) -0.0476(3) 0.1049(6)
C35 C 0.0472(5) -0.0258(2) 0.1872(6)
C36 C -0.0271(5) -0.0642(2) 0.2278(4)
C37 C -0.4590(4) -0.0600(2) 0.1325(3)
C38 C -0.4067(3) -0.0384(2) 0.0523(4)
C39 C -0.4447(4) 0.0170(2) -0.0031(4)
C40 C -0.5349(5) 0.0508(2) 0.0217(4)
C41 C -0.5872(4) 0.0291(2) 0.1019(4)
C42 C -0.5492(4) -0.0263(2) 0.1573(3)
C43 C -0.5088(3) -0.2009(2) 0.1553(3)
C44 C -0.6237(4) -0.1905(2) 0.1027(4)
C45 C -0.6982(3) -0.2411(3) 0.0723(4)
C46 C -0.6578(6) -0.3022(3) 0.0944(5)
C47 C -0.5430(6) -0.3127(2) 0.1470(5)
C48 C -0.4685(4) -0.2620(2) 0.1774(4)
Li1 Li 0.0203(8) -0.1815(5) 0.4625(7)
Li2 Li -0.2402(9) -0.1168(5) 0.4275(8)
Li3 Li -0.4165(8) -0.1672(6) 0.4562(8)
Li4 Li -0.1606(9) -0.2230(6) 0.4936(8)
N1 N -0.5864(4) -0.1794(4) 0.4652(4)
N2 N -0.8076(4) -0.1805(3) 0.4491(4)
O7 O -0.2108(4) -0.0232(3) 0.4377(4)
O8 O -0.2185(5) -0.3163(3) 0.4846(5)
C49 C -0.6142(7) -0.2037(9) 0.5524(8)
C50 C -0.7451(6) -0.2053(8) 0.5447(8)
C51 C -0.6338(9) -0.1208(6) 0.4561(19)
C52 C -0.7665(8) -0.1188(5) 0.4451(17)
C53 C -0.6450(7) -0.2113(9) 0.3814(10)
C54 C -0.7786(7) -0.2130(8) 0.3642(9)
C55 C -0.1213(8) 0.0143(4) 0.5004(9)
C56 C -0.1557(10) 0.0810(6) 0.4813(11)
C57 C -0.2806(8) 0.0813(4) 0.4323(8)
C58 C -0.3027(9) 0.0173(4) 0.3853(9)
C59 C -0.1488(10) -0.3667(5) 0.5415(11)
C60 C -0.2261(16) -0.4174(6) 0.5428(18)
C61 C -0.3197(11) -0.3452(9) 0.4282(12)
C62 C -0.3309(15) -0.4079(9) 0.4660(20)
Si1 Si 0.0114(1) -0.2096(1) 0.7052(1)
Si2 Si -0.2381(1) -0.1634(1) 0.6811(1)
Si3 Si -0.1541(1) -0.1751(1) 0.2428(1)
Si4 Si -0.4064(1) -0.1342(1) 0.2115(1)
H1 H -0.0587(5) -0.2860(3) 0.8714(6)
H2 H 0.0024(7) -0.3790(4) 0.9634(6)
H3 H 0.1644(7) -0.4306(3) 0.9357(6)
H4 H 0.2653(5) -0.3894(3) 0.8160(6)
H5 H 0.2042(5) -0.2964(3) 0.7240(5)
H6 H 0.2489(6) -0.1860(3) 0.8522(5)
H7 H 0.3691(4) -0.0989(4) 0.8907(6)
H8 H 0.3082(7) -0.0025(3) 0.8117(7)
H9 H 0.1271(8) 0.0069(2) 0.6942(8)
H10 H 0.0069(5) -0.0802(4) 0.6556(6)
H11 H -0.3886(6) -0.0541(5) 0.6139(5)
H12 H -0.3905(9) 0.0501(5) 0.6677(9)
H13 H -0.2477(12) 0.0872(3) 0.8123(10)
H14 H -0.1030(8) 0.0201(6) 0.9030(7)
H15 H -0.1012(6) -0.0841(5) 0.8492(6)
H16 H -0.3816(7) -0.1443(3) 0.8395(6)
H17 H -0.5029(6) -0.2064(5) 0.9143(5)
H18 H -0.5325(6) -0.3110(4) 0.8633(7)
H19 H -0.4408(8) -0.3536(3) 0.7374(8)
H20 H -0.3196(7) -0.2916(3) 0.6626(6)
H21 H -0.2538(5) -0.2481(3) 0.0492(5)
H22 H -0.2401(6) -0.3500(4) -0.0122(4)
H23 H -0.1205(8) -0.4223(2) 0.0976(7)
H24 H -0.0146(6) -0.3928(3) 0.2689(7)
H25 H -0.0283(5) -0.2909(4) 0.3304(4)
H26 H -0.0205(7) -0.1864(3) 0.0757(6)
H27 H 0.1035(7) -0.1223(5) 0.0080(6)
H28 H 0.1458(6) -0.0219(4) 0.0777(8)
H29 H 0.0642(8) 0.0145(3) 0.2152(8)
H30 H -0.0598(7) -0.0496(3) 0.2829(6)
H31 H -0.3464(4) -0.0610(3) 0.0357(5)
H32 H -0.4097(6) 0.0315(3) -0.0568(5)
H33 H -0.5603(7) 0.0878(2) -0.0154(6)
H34 H -0.6475(5) 0.0517(3) 0.1184(6)
H35 H -0.5842(5) -0.0407(3) 0.2109(5)
H36 H -0.6506(5) -0.1496(3) 0.0879(5)
H37 H -0.7750(4) -0.2341(4) 0.0372(6)
H38 H -0.7077(7) -0.3361(3) 0.0741(6)
H39 H -0.5160(8) -0.3535(2) 0.1618(7)
H40 H -0.3916(4) -0.2691(3) 0.2126(5)
H41 H -0.5769(7) -0.1792(9) 0.6157(8)
H42 H -0.5842(7) -0.2462(9) 0.5631(8)
H43 H -0.7690(6) -0.2485(8) 0.5508(8)
H44 H -0.7613(9) -0.1818(8) 0.6050(8)
H45 H -0.6173(9) -0.1004(6) 0.3930(19)
H46 H -0.5963(9) -0.0966(6) 0.5196(19)
H47 H -0.7834(8) -0.0941(5) 0.5039(17)
H48 H -0.8045(8) -0.0992(5) 0.3767(17)
H49 H -0.6170(7) -0.2543(9) 0.3883(10)
H50 H -0.6276(7) -0.1939(9) 0.3163(10)
H51 H -0.8153(7) -0.1935(8) 0.2953(9)
H52 H -0.8051(7) -0.2562(8) 0.3631(9)
H53 H -0.0497(8) 0.0066(4) 0.4789(9)
H54 H -0.1095(8) 0.0042(4) 0.5770(9)
H55 H -0.1387(10) 0.1041(6) 0.5494(11)
H56 H -0.1142(10) 0.1005(6) 0.4326(11)
H57 H -0.3007(8) 0.1132(4) 0.3763(8)
H58 H -0.3240(8) 0.0887(4) 0.4868(8)
H59 H -0.3756(9) 0.0015(4) 0.3959(9)
H60 H -0.3074(9) 0.0186(4) 0.3077(9)
H61 H -0.0900(10) -0.3788(5) 0.5041(11)
H62 H -0.1113(10) -0.3541(5) 0.6151(11)
H63 H -0.1912(16) -0.4564(6) 0.5268(18)
H64 H -0.2407(16) -0.4210(6) 0.6147(18)
H65 H -0.3206(11) -0.3465(9) 0.3514(12)
H66 H -0.3853(11) -0.3204(9) 0.4365(12)
H67 H -0.3959(15) -0.4113(9) 0.4992(20)
H68 H -0.3404(15) -0.4381(9) 0.4069(20)
N2_2 N 0.1924(4) -0.1805(3) 0.4491(4)
Li1_2 Li -0.9797(8) -0.1815(5) 0.4625(7)
loop_
_geom_bond_atom_site_label_1
_geom_bond_atom_site_label_2
_geom_bond_site_symmetry_1
_geom_bond_site_symmetry_2
O1 Li1 1_555 1_555
O2 Si1 1_555 1_555
O3 Li2 1_555 1_555
O4 Li1 1_555 1_555
O5 Si3 1_555 1_555
O6 Li2 1_555 1_555
C1 C2 1_555 1_555
C2 C3 1_555 1_555
C3 C4 1_555 1_555
C4 C5 1_555 1_555
C5 C6 1_555 1_555
C6 C1 1_555 1_555
C7 C8 1_555 1_555
C8 C9 1_555 1_555
C9 C10 1_555 1_555
C10 C11 1_555 1_555
C11 C12 1_555 1_555
C12 C7 1_555 1_555
C13 C14 1_555 1_555
C14 C15 1_555 1_555
C15 C16 1_555 1_555
C16 C17 1_555 1_555
C17 C18 1_555 1_555
C18 C13 1_555 1_555
C19 C20 1_555 1_555
C20 C21 1_555 1_555
C21 C22 1_555 1_555
C22 C23 1_555 1_555
C23 C24 1_555 1_555
C24 C19 1_555 1_555
C25 C26 1_555 1_555
C26 C27 1_555 1_555
C27 C28 1_555 1_555
C28 C29 1_555 1_555
C29 C30 1_555 1_555
C30 C25 1_555 1_555
C31 C32 1_555 1_555
C32 C33 1_555 1_555
C33 C34 1_555 1_555
C34 C35 1_555 1_555
C35 C36 1_555 1_555
C36 C31 1_555 1_555
C37 C38 1_555 1_555
C38 C39 1_555 1_555
C39 C40 1_555 1_555
C40 C41 1_555 1_555
C41 C42 1_555 1_555
C42 C37 1_555 1_555
C43 C44 1_555 1_555
C44 C45 1_555 1_555
C45 C46 1_555 1_555
C46 C47 1_555 1_555
C47 C48 1_555 1_555
C48 C43 1_555 1_555
Li1 N2_2 1_555 1_555
Li2 O4 1_555 1_555
Li3 O3 1_555 1_555
Li4 O1 1_555 1_555
N1 Li3 1_555 1_555
N2 C50 1_555 1_555
O7 Li2 1_555 1_555
O8 Li4 1_555 1_555
C49 N1 1_555 1_555
C50 C49 1_555 1_555
C51 N1 1_555 1_555
C52 N2 1_555 1_555
C53 N1 1_555 1_555
C54 N2 1_555 1_555
C55 O7 1_555 1_555
C56 C55 1_555 1_555
C57 C56 1_555 1_555
C58 O7 1_555 1_555
C59 O8 1_555 1_555
C60 C59 1_555 1_555
C61 O8 1_555 1_555
C62 C60 1_555 1_555
Si1 O1 1_555 1_555
Si2 O2 1_555 1_555
Si3 O4 1_555 1_555
Si4 O5 1_555 1_555
H1 C2 1_555 1_555
H2 C3 1_555 1_555
H3 C4 1_555 1_555
H4 C5 1_555 1_555
H5 C6 1_555 1_555
H6 C8 1_555 1_555
H7 C9 1_555 1_555
H8 C10 1_555 1_555
H9 C11 1_555 1_555
H10 C12 1_555 1_555
H11 C14 1_555 1_555
H12 C15 1_555 1_555
H13 C16 1_555 1_555
H14 C17 1_555 1_555
H15 C18 1_555 1_555
H16 C20 1_555 1_555
H17 C21 1_555 1_555
H18 C22 1_555 1_555
H19 C23 1_555 1_555
H20 C24 1_555 1_555
H21 C26 1_555 1_555
H22 C27 1_555 1_555
H23 C28 1_555 1_555
H24 C29 1_555 1_555
H25 C30 1_555 1_555
H26 C32 1_555 1_555
H27 C33 1_555 1_555
H28 C34 1_555 1_555
H29 C35 1_555 1_555
H30 C36 1_555 1_555
H31 C38 1_555 1_555
H32 C39 1_555 1_555
H33 C40 1_555 1_555
H34 C41 1_555 1_555
H35 C42 1_555 1_555
H36 C44 1_555 1_555
H37 C45 1_555 1_555
H38 C46 1_555 1_555
H39 C47 1_555 1_555
H40 C48 1_555 1_555
H41 C49 1_555 1_555
H42 C49 1_555 1_555
H43 C50 1_555 1_555
H44 C50 1_555 1_555
H45 C51 1_555 1_555
H46 C51 1_555 1_555
H47 C52 1_555 1_555
H48 C52 1_555 1_555
H49 C53 1_555 1_555
H50 C53 1_555 1_555
H51 C54 1_555 1_555
H52 C54 1_555 1_555
H53 C55 1_555 1_555
H54 C55 1_555 1_555
H55 C56 1_555 1_555
H56 C56 1_555 1_555
H57 C57 1_555 1_555
H58 C57 1_555 1_555
H59 C58 1_555 1_555
H60 C58 1_555 1_555
H61 C59 1_555 1_555
H62 C59 1_555 1_555
H63 C60 1_555 1_555
H64 C60 1_555 1_555
H65 C61 1_555 1_555
H66 C61 1_555 1_555
H67 C62 1_555 1_555
H68 C62 1_555 1_555
Li1_2 N2 1_555 1_555
O3 Si2 1_555 1_555
O3 Li4 1_555 1_555
O4 Li4 1_555 1_555
O6 Li3 1_555 1_555
O6 Si4 1_555 1_555
C1 Si1 1_555 1_555
C7 Si1 1_555 1_555
C13 Si2 1_555 1_555
C19 Si2 1_555 1_555
C25 Si3 1_555 1_555
C31 Si3 1_555 1_555
C37 Si4 1_555 1_555
C43 Si4 1_555 1_555
C51 C52 1_555 1_555
C53 C54 1_555 1_555
C57 C58 1_555 1_555
C61 C62 1_555 1_555

#END
