
#######################################################################
#
#                 Cambridge Crystallographic Data Centre
#                                CCDC 
#
#######################################################################
#
# If this CIF has been generated from an entry in the Cambridge 
# Structural Database, then it will include bibliographic, chemical, 
# crystal, experimental, refinement or atomic coordinate data resulting 
# from the CCDC's data processing and validation procedures.
#
#######################################################################

data_TIPFEF
_symmetry_cell_setting           monoclinic
_symmetry_space_group_name_H-M   'C 2/c'
_symmetry_Int_Tables_number      15
_space_group_name_Hall           '-C 2yn'
loop_
_symmetry_equiv_pos_site_id
_symmetry_equiv_pos_as_xyz
1 x,y,z
2 -x,y,1/2-z
3 1/2+x,1/2+y,z
4 1/2-x,1/2+y,1/2-z
5 -x,-y,-z
6 x,-y,1/2+z
7 1/2-x,1/2-y,-z
8 1/2+x,1/2-y,1/2+z
_cell_length_a                   21.300(4)
_cell_length_b                   11.600(2)
_cell_length_c                   21.500(4)
_cell_angle_alpha                90
_cell_angle_beta                 118.70(3)
_cell_angle_gamma                90
_cell_volume                     4659.59
loop_
_atom_site_label
_atom_site_type_symbol
_atom_site_fract_x
_atom_site_fract_y
_atom_site_fract_z
N3 N 1.0000 0.0790(4) 0.7500
C25 C 1.0000 -0.0277(5) 0.7500
O5 O 1.0244(4) -0.1177(4) 0.7611(5)
C26 C 1.0614(7) 0.1542(10) 0.7828(13)
O5A O 0.9756(4) -0.1177(4) 0.7389(5)
C26A C 0.9386(7) 0.1542(10) 0.7172(13)
O6 O 1.0000 0.3442(4) 0.2500
Zn1 Zn 0.878170(14) 0.45522(2) 0.525749(14)
C1 C 0.96878(13) 0.0581(2) 0.56891(13)
H1 H 0.9182 0.0491 0.5448
O1 O 0.97746(10) 0.37042(15) 0.57400(11)
O2 O 0.82764(12) 0.47831(17) 0.42208(10)
C2 C 0.74868(14) 0.6544(2) 0.11445(14)
H2 H 0.7031 0.6900 0.0968
O3 O 0.74503(14) 0.5657(2) 0.44046(12)
O4 O 0.88156(10) 0.25650(17) 0.51857(10)
C3 C 1.01367(14) -0.03933(19) 0.59295(14)
C4 C 0.94932(14) 0.2705(2) 0.55578(13)
C5 C 0.77457(16) 0.5488(2) 0.40457(15)
C6 C 0.79221(13) 0.6351(2) 0.18782(13)
C7 C 0.88173(14) 0.5529(2) 0.16380(14)
H3 H 0.9274 0.5183 0.1800
C8 C 0.78209(13) 0.5968(2) 0.29550(12)
H4 H 0.8154 0.5356 0.3068
C9 C 0.75143(14) 0.6185(2) 0.33791(13)
C10 C 0.98249(13) -0.1570(2) 0.58071(13)
C11 C 0.77372(14) 0.6207(2) 0.06947(13)
H5 H 0.7445 0.6325 0.0200
C12 C 0.99911(13) 0.1677(2) 0.58079(13)
C13 C 0.86038(13) 0.5835(2) 0.21213(13)
H6 H 0.8908 0.5705 0.2613
C14 C 0.91171(14) -0.1777(2) 0.56845(14)
H7 H 0.8829 -0.1155 0.5690
N1 N 0.83922(12) 0.57066(19) 0.09313(11)
C15 C 0.76401(12) 0.6650(2) 0.23605(12)
C16 C 0.99183(14) -0.3612(2) 0.56770(14)
H8 H 1.0196 -0.4252 0.5676
C17 C 0.71616(13) 0.7583(2) 0.22061(13)
H9 H 0.7055 0.8067 0.1811
C18 C 1.02232(13) -0.2523(2) 0.58007(14)
H10 H 1.0699 -0.2426 0.5881
C19 C 0.88473(14) -0.2895(2) 0.55567(15)
H11 H 0.8370 -0.3019 0.5466
C20 C 0.68513(15) 0.7791(2) 0.26242(15)
H12 H 0.6525 0.8412 0.2518
C21 C 0.70191(15) 0.7086(2) 0.32045(14)
H13 H 0.6795 0.7216 0.3488
C22 C 1.08972(15) -0.0231(2) 0.62921(19)
H14 H 1.1201 -0.0885 0.6466
C23 C 1.07462(15) 0.1821(2) 0.61544(18)
H15 H 1.0944 0.2575 0.6223
C24 C 1.12015(16) 0.0865(3) 0.6396(2)
H16 H 1.1706 0.0959 0.6626
N2 N 0.92381(12) -0.38058(18) 0.55568(12)
Zn1_2 Zn 0.878170(14) -0.54478(2) 0.525749(14)
Zn1E Zn 0.878170(14) 0.54478(2) 0.025749(14)
N1E N 0.83922(12) 0.42934(19) 0.59313(11)
N2_2 N 0.92381(12) 0.61942(18) 0.55568(12)
loop_
_geom_bond_atom_site_label_1
_geom_bond_atom_site_label_2
_geom_bond_site_symmetry_1
_geom_bond_site_symmetry_2
Zn1 O1 1_555 1_555
C1 H1 1_555 1_555
O1 C4 1_555 1_555
O2 Zn1 1_555 1_555
C2 H2 1_555 1_555
O3 C5 1_555 1_555
O4 Zn1 1_555 1_555
C3 C1 1_555 1_555
C4 O4 1_555 1_555
C5 O2 1_555 1_555
C6 C2 1_555 1_555
C7 H3 1_555 1_555
C8 H4 1_555 1_555
C9 C5 1_555 1_555
C10 C3 1_555 1_555
C11 C2 1_555 1_555
H5 C11 1_555 1_555
C12 C1 1_555 1_555
C13 C6 1_555 1_555
H6 C13 1_555 1_555
C14 C10 1_555 1_555
H7 C14 1_555 1_555
N1 C7 1_555 1_555
C15 C6 1_555 1_555
C16 H8 1_555 1_555
C17 C15 1_555 1_555
H9 C17 1_555 1_555
C18 C10 1_555 1_555
H10 C18 1_555 1_555
C19 C14 1_555 1_555
H11 C19 1_555 1_555
C20 C17 1_555 1_555
H12 C20 1_555 1_555
C21 C9 1_555 1_555
H13 C21 1_555 1_555
C22 C3 1_555 1_555
H14 C22 1_555 1_555
C23 C12 1_555 1_555
H15 C23 1_555 1_555
C24 C22 1_555 1_555
H16 C24 1_555 1_555
N2 C16 1_555 1_555
N3 C25 1_555 1_555
C25 O5 1_555 1_555
O5 O5A 1_555 1_555
C26 N3 1_555 1_555
Zn1_2 N2 1_555 1_555
Zn1E N1 1_555 1_555
N1E Zn1 1_555 1_555
N2_2 Zn1 1_555 1_555
O5A C25 1_555 1_555
C26A N3 1_555 1_555
C4 C12 1_555 1_555
C7 C13 1_555 1_555
C8 C9 1_555 1_555
C8 C15 1_555 1_555
C11 N1 1_555 1_555
C16 C18 1_555 1_555
C19 N2 1_555 1_555
C20 C21 1_555 1_555
C23 C24 1_555 1_555

#END
