
#######################################################################
#
#                 Cambridge Crystallographic Data Centre
#                                CCDC 
#
#######################################################################
#
# If this CIF has been generated from an entry in the Cambridge 
# Structural Database, then it will include bibliographic, chemical, 
# crystal, experimental, refinement or atomic coordinate data resulting 
# from the CCDC's data processing and validation procedures.
#
#######################################################################

data_TIPFAA
_symmetry_cell_setting           monoclinic
_symmetry_space_group_name_H-M   'P 21/c'
_symmetry_Int_Tables_number      14
_space_group_name_Hall           '-P 2ybc'
loop_
_symmetry_equiv_pos_site_id
_symmetry_equiv_pos_as_xyz
1 x,y,z
2 -x,1/2+y,1/2-z
3 -x,-y,-z
4 x,1/2-y,1/2+z
_cell_length_a                   19.724(3)
_cell_length_b                   5.6139(11)
_cell_length_c                   9.0372(18)
_cell_angle_alpha                90
_cell_angle_beta                 97.616(2)
_cell_angle_gamma                90
_cell_volume                     991.849
loop_
_atom_site_label
_atom_site_type_symbol
_atom_site_fract_x
_atom_site_fract_y
_atom_site_fract_z
Ni1 Ni 0.0000 0.5000 0.5000
N1 N 0.08527(18) 0.3482(8) 0.4204(4)
H1 H 0.1170 0.3089 0.4975
H2 H 0.0728 0.2150 0.3683
N2 N 0.3207(2) 0.2013(10) 0.3808(5)
H3 H 0.3397 0.0766 0.3494
O1 O 0.01149(15) 0.7461(6) 0.3396(3)
O2 O 0.07096(15) 0.8160(7) 0.1518(3)
C1 C 0.0607(2) 0.7074(9) 0.2681(5)
C2 C 0.1135(2) 0.5215(11) 0.3245(5)
H4 H 0.1249 0.4346 0.2370
C3 C 0.1768(3) 0.6344(12) 0.3952(6)
H5 H 0.1694 0.6884 0.4938
H6 H 0.1853 0.7743 0.3375
C4 C 0.2533(3) 0.2782(14) 0.3365(6)
H7 H 0.2220 0.2016 0.2663
C5 C 0.2400(3) 0.4820(11) 0.4112(7)
C6 C 0.3012(2) 0.5362(11) 0.5021(6)
C7 C 0.3498(2) 0.3595(11) 0.4816(6)
C8 C 0.4167(3) 0.3702(15) 0.5587(7)
H8 H 0.4483 0.2513 0.5463
C9 C 0.4342(3) 0.5554(14) 0.6507(8)
H9 H 0.4789 0.5669 0.6982
C10 C 0.3882(3) 0.7258(15) 0.6757(8)
H10 H 0.4018 0.8477 0.7428
C11 C 0.3217(3) 0.7233(12) 0.6041(8)
H11 H 0.2909 0.8419 0.6225
Ni1C Ni 0.0000 1.0000 0.0000
Ni1C_2 Ni 0.0000 0.0000 1.0000
N1B N -0.08527(18) 0.6518(8) 0.5796(4)
H1B H -0.1170 0.6911 0.5025
H2B H -0.0728 0.7850 0.6317
N2B N -0.3207(2) 0.7987(10) 0.6192(5)
H3B H -0.3397 0.9234 0.6506
O1B O -0.01149(15) 0.2539(6) 0.6604(3)
O2B O -0.07096(15) 0.1840(7) 0.8482(3)
O2C O 0.07096(15) 0.6840(7) 0.6518(3)
O2A O -0.07096(15) 0.3160(7) 0.3482(3)
C1B C -0.0607(2) 0.2926(9) 0.7319(5)
C2B C -0.1135(2) 0.4785(11) 0.6755(5)
H4B H -0.1249 0.5654 0.7630
C3B C -0.1768(3) 0.3656(12) 0.6048(6)
H5B H -0.1694 0.3116 0.5062
H6B H -0.1853 0.2257 0.6625
C4B C -0.2533(3) 0.7218(14) 0.6635(6)
H7B H -0.2220 0.7984 0.7337
C5B C -0.2400(3) 0.5180(11) 0.5888(7)
C6B C -0.3012(2) 0.4638(11) 0.4979(6)
C7B C -0.3498(2) 0.6405(11) 0.5184(6)
C8B C -0.4167(3) 0.6298(15) 0.4413(7)
H8B H -0.4483 0.7487 0.4537
C9B C -0.4342(3) 0.4446(14) 0.3493(8)
H9B H -0.4789 0.4331 0.3018
C10B C -0.3882(3) 0.2742(15) 0.3243(8)
H10B H -0.4018 0.1523 0.2572
C11B C -0.3217(3) 0.2767(12) 0.3959(8)
H11B H -0.2909 0.1581 0.3775
loop_
_geom_bond_atom_site_label_1
_geom_bond_atom_site_label_2
_geom_bond_site_symmetry_1
_geom_bond_site_symmetry_2
Ni1 N1 1_555 1_555
N1 H1 1_555 1_555
H2 N1 1_555 1_555
N2 H3 1_555 1_555
O1 Ni1 1_555 1_555
O2 C1 1_555 1_555
C1 O1 1_555 1_555
C2 N1 1_555 1_555
H4 C2 1_555 1_555
C3 C2 1_555 1_555
H5 C3 1_555 1_555
H6 C3 1_555 1_555
C4 N2 1_555 1_555
H7 C4 1_555 1_555
C5 C3 1_555 1_555
C6 C5 1_555 1_555
C7 N2 1_555 1_555
C8 C7 1_555 1_555
H8 C8 1_555 1_555
C9 C8 1_555 1_555
H9 C9 1_555 1_555
C10 C9 1_555 1_555
H10 C10 1_555 1_555
C11 C6 1_555 1_555
H11 C11 1_555 1_555
Ni1C O2 1_555 1_555
Ni1C_2 O2B 1_555 1_555
N1B Ni1 1_555 1_555
H1B N1B 1_555 1_555
H2B N1B 1_555 1_555
N2B H3B 1_555 1_555
O1B Ni1 1_555 1_555
O2B C1B 1_555 1_555
O2C Ni1 1_555 1_555
O2A Ni1 1_555 1_555
C1B O1B 1_555 1_555
C2B N1B 1_555 1_555
H4B C2B 1_555 1_555
C3B C2B 1_555 1_555
H5B C3B 1_555 1_555
H6B C3B 1_555 1_555
C4B N2B 1_555 1_555
H7B C4B 1_555 1_555
C5B C3B 1_555 1_555
C6B C5B 1_555 1_555
C7B N2B 1_555 1_555
C8B C7B 1_555 1_555
H8B C8B 1_555 1_555
C9B C8B 1_555 1_555
H9B C9B 1_555 1_555
C10B C9B 1_555 1_555
H10B C10B 1_555 1_555
C11B C6B 1_555 1_555
H11B C11B 1_555 1_555
C1 C2 1_555 1_555
C4 C5 1_555 1_555
C6 C7 1_555 1_555
C10 C11 1_555 1_555
C1B C2B 1_555 1_555
C4B C5B 1_555 1_555
C6B C7B 1_555 1_555
C10B C11B 1_555 1_555

#END
