
#######################################################################
#
#                 Cambridge Crystallographic Data Centre
#                                CCDC 
#
#######################################################################
#
# If this CIF has been generated from an entry in the Cambridge 
# Structural Database, then it will include bibliographic, chemical, 
# crystal, experimental, refinement or atomic coordinate data resulting 
# from the CCDC's data processing and validation procedures.
#
#######################################################################

data_TIPKAF
_symmetry_cell_setting           rhombohedral
_symmetry_space_group_name_H-M   'R -3'
_symmetry_Int_Tables_number      148
_space_group_name_Hall           '-R 3'
loop_
_symmetry_equiv_pos_site_id
_symmetry_equiv_pos_as_xyz
1 x,y,z
2 -y,x-y,z
3 -x+y,-x,z
4 2/3+x,1/3+y,1/3+z
5 2/3-y,1/3+x-y,1/3+z
6 2/3-x+y,1/3-x,1/3+z
7 1/3+x,2/3+y,2/3+z
8 1/3-y,2/3+x-y,2/3+z
9 1/3-x+y,2/3-x,2/3+z
10 -x,-y,-z
11 y,-x+y,-z
12 x-y,x,-z
13 1/3-x,2/3-y,2/3-z
14 1/3+y,2/3-x+y,2/3-z
15 1/3+x-y,2/3+x,2/3-z
16 2/3-x,1/3-y,1/3-z
17 2/3+y,1/3-x+y,1/3-z
18 2/3+x-y,1/3+x,1/3-z
_cell_length_a                   23.6920(17)
_cell_length_b                   23.6920(17)
_cell_length_c                   13.3740(15)
_cell_angle_alpha                90
_cell_angle_beta                 90
_cell_angle_gamma                120.00
_cell_volume                     6501.23
loop_
_atom_site_label
_atom_site_type_symbol
_atom_site_fract_x
_atom_site_fract_y
_atom_site_fract_z
Ca1 Ca 0.71468(4) 0.11865(4) 0.78931(5)
O1 O 0.67095(15) 0.07988(16) 0.6196(2)
O2 O 0.63762(14) 0.14133(15) 0.6916(2)
O3 O 0.50849(14) -0.00318(14) 0.2133(2)
O4 O 0.57376(14) -0.02773(16) 0.2940(2)
O5 O 0.61175(15) 0.03396(17) 0.8443(3)
O6 O 0.74572(18) 0.03893(17) 0.7539(3)
O7 O 0.79362(18) 0.2028(2) 0.6759(3)
O8 O 0.72038(17) 0.21182(17) 0.8741(3)
N1 N 0.4822(2) 0.1536(2) 0.4435(3)
C1 C 0.63652(19) 0.10617(19) 0.6194(3)
C2 C 0.59331(18) 0.09670(18) 0.5313(3)
C3 C 0.5868(2) 0.0542(2) 0.4550(3)
C4 C 0.54650(18) 0.04520(18) 0.3740(3)
C5 C 0.51277(19) 0.0790(2) 0.3701(3)
C6 C 0.51896(19) 0.1215(2) 0.4453(3)
C7 C 0.5591(2) 0.1300(2) 0.5260(3)
C8 C 0.54204(19) 0.00138(18) 0.2894(3)
H1 H 0.607(2) 0.037(2) 0.458(3)
H2 H 0.562(2) 0.153(2) 0.572(4)
H3 H 0.489(2) 0.074(2) 0.323(4)
H4 H 0.446(7) 0.166(7) 0.399(11)
H5 H 0.504(3) 0.193(3) 0.467(5)
H6 H 0.609(3) -0.001(3) 0.865(5)
H7 H 0.571(3) 0.026(2) 0.816(4)
H8 H 0.764(3) 0.028(3) 0.803(4)
H9 H 0.725(3) 0.007(3) 0.718(4)
H10 H 0.8394 0.2352 0.7048
H11 H 0.7792 0.2279 0.6374
H12 H 0.7545 0.2411 0.9105
H13 H 0.6938 0.2279 0.8735
Ca1D Ca 0.54802(4) -0.07064(6) 0.12264(5)
O3H O 0.82166(20) 0.15818(14) 0.8800(2)
O4H O 0.73184(21) 0.09291(14) 0.9607(2)
O9 O 0.5545(5) 0.2704(5) 0.6464(14)
loop_
_geom_bond_atom_site_label_1
_geom_bond_atom_site_label_2
_geom_bond_site_symmetry_1
_geom_bond_site_symmetry_2
Ca1 O1 1_555 1_555
O1 C1 1_555 1_555
O2 Ca1 1_555 1_555
O3 C8 1_555 1_555
O4 C8 1_555 1_555
O5 Ca1 1_555 1_555
O6 Ca1 1_555 1_555
O7 Ca1 1_555 1_555
O8 Ca1 1_555 1_555
N1 C6 1_555 1_555
C1 O2 1_555 1_555
C2 C1 1_555 1_555
C3 C2 1_555 1_555
C4 C3 1_555 1_555
C5 C4 1_555 1_555
C6 C5 1_555 1_555
C7 C2 1_555 1_555
C8 C4 1_555 1_555
H1 C3 1_555 1_555
H2 C7 1_555 1_555
H3 C5 1_555 1_555
H4 N1 1_555 1_555
H5 N1 1_555 1_555
H6 O5 1_555 1_555
H7 O5 1_555 1_555
H8 O6 1_555 1_555
H9 O6 1_555 1_555
H10 O7 1_555 1_555
H11 O7 1_555 1_555
H12 O8 1_555 1_555
H13 O8 1_555 1_555
Ca1D O3 1_555 1_555
O3H Ca1 1_555 1_555
O4H Ca1 1_555 1_555
O4 Ca1D 1_555 1_555
C6 C7 1_555 1_555

#END
