
#######################################################################
#
#                 Cambridge Crystallographic Data Centre
#                                CCDC 
#
#######################################################################
#
# If this CIF has been generated from an entry in the Cambridge 
# Structural Database, then it will include bibliographic, chemical, 
# crystal, experimental, refinement or atomic coordinate data resulting 
# from the CCDC's data processing and validation procedures.
#
#######################################################################

data_TIPKOU
_symmetry_cell_setting           orthorhombic
_symmetry_space_group_name_H-M   'P b c n'
_symmetry_Int_Tables_number      60
_space_group_name_Hall           '-P 2n 2ab'
loop_
_symmetry_equiv_pos_site_id
_symmetry_equiv_pos_as_xyz
1 x,y,z
2 1/2-x,1/2-y,1/2+z
3 1/2+x,1/2-y,-z
4 -x,y,1/2-z
5 -x,-y,-z
6 1/2+x,1/2+y,1/2-z
7 1/2-x,1/2+y,z
8 x,-y,1/2+z
_cell_length_a                   30.9960(9)
_cell_length_b                   15.3604(5)
_cell_length_c                   15.6481(4)
_cell_angle_alpha                90
_cell_angle_beta                 90
_cell_angle_gamma                90
_cell_volume                     7450.23
loop_
_atom_site_label
_atom_site_type_symbol
_atom_site_fract_x
_atom_site_fract_y
_atom_site_fract_z
Pr1 Pr 0.802512(11) 0.80746(2) 0.36172(2)
O1 O 0.73027(18) 0.7428(3) 0.3725(3)
O2 O 0.87874(18) 0.7512(4) 0.3680(4)
O3 O 0.69449(19) 0.7671(4) 0.7296(3)
O4 O 0.74319(15) 0.4132(3) 0.2855(3)
O5 O 0.80448(15) 0.3410(3) -0.0785(3)
O6 O 0.65046(16) 0.4155(3) 0.3107(3)
O7 O 0.68654(19) 0.6647(3) 0.0174(3)
O8 O 0.71521(17) 0.5545(3) -0.0460(3)
Pr2 Pr 0.744568(11) 0.55997(2) 0.36464(2)
C1 C 0.7037(3) 0.7270(5) 0.4325(5)
H1 H 0.8952 0.7813 0.3346
H2 H 0.8794 0.6974 0.3517
O9 O 0.70301(17) 0.6513(3) 0.4634(3)
O10 O 0.80640(16) 0.4735(4) 0.2950(3)
O11 O 0.67441(16) 0.5507(3) 0.2944(3)
O12 O 0.7383(2) 0.8801(4) 0.7288(3)
O13 O 0.79658(18) 0.4633(3) -0.0100(3)
C2 C 0.6723(3) 0.7919(5) 0.4623(4)
C3 C 0.7818(2) 0.4233(4) 0.2572(4)
C4 C 0.6514(2) 0.4875(5) 0.2723(4)
H3 H 0.6447 0.7802 0.4356
H4 H 0.6817 0.8492 0.4437
C5 C 0.6663(2) 0.7932(4) 0.5598(4)
C6 C 0.7925(2) 0.3787(5) 0.1740(4)
C7 C 0.6215(2) 0.4963(5) 0.1967(4)
H5 H 0.6674 0.7328 0.5800
C8 C 0.7043(2) 0.8419(5) 0.5998(4)
C9 C 0.6225(2) 0.8293(5) 0.5822(4)
H6 H 0.7725 0.3987 0.1305
H7 H 0.7882 0.3165 0.1809
C10 C 0.8383(2) 0.3944(4) 0.1427(4)
H8 H 0.5938 0.5173 0.2172
H9 H 0.6168 0.4388 0.1728
C11 C 0.6365(2) 0.5565(4) 0.1245(4)
H10 H 0.7302 0.8255 0.5690
H11 H 0.6998 0.9036 0.5903
C12 C 0.7126(2) 0.8284(5) 0.6937(4)
C13 C 0.6063(3) 0.9027(6) 0.5441(6)
C14 C 0.5955(3) 0.7843(8) 0.6364(6)
H12 H 0.8430 0.4574 0.1408
C15 C 0.8447(2) 0.3584(4) 0.0513(4)
C16 C 0.8721(2) 0.3556(5) 0.2009(4)
H13 H 0.6400 0.6149 0.1487
C17 C 0.6803(2) 0.5284(4) 0.0887(4)
C18 C 0.6019(2) 0.5616(5) 0.0565(4)
H14 H 0.6240 0.9353 0.5084
C19 C 0.5642(3) 0.9291(7) 0.5576(7)
C20 C 0.5544(4) 0.8108(8) 0.6529(8)
H15 H 0.6057 0.7340 0.6627
H16 H 0.8737 0.3730 0.0328
H17 H 0.8428 0.2954 0.0537
C21 C 0.8137(2) 0.3902(4) -0.0147(4)
C22 C 0.8666(3) 0.2734(5) 0.2367(5)
C23 C 0.9090(3) 0.3999(7) 0.2195(6)
H18 H 0.7017 0.5304 0.1339
H19 H 0.6783 0.4687 0.0687
C24 C 0.6945(2) 0.5855(4) 0.0168(4)
C25 C 0.5764(3) 0.6347(7) 0.0499(5)
C26 C 0.5953(3) 0.4938(7) -0.0001(5)
H20 H 0.5536 0.9784 0.5303
C27 C 0.5382(3) 0.8825(9) 0.6114(8)
H21 H 0.5374 0.7805 0.6919
H22 H 0.8414 0.2425 0.2254
C28 C 0.8976(3) 0.2366(6) 0.2888(5)
C29 C 0.9400(3) 0.3652(8) 0.2747(8)
H23 H 0.9137 0.4542 0.1950
H24 H 0.5808 0.6808 0.0874
C30 C 0.5445(3) 0.6407(9) -0.0115(6)
C31 C 0.5628(4) 0.5003(9) -0.0623(6)
H25 H 0.6124 0.4441 0.0029
Cl1 Cl 0.48478(11) 0.9132(4) 0.6260(3)
H26 H 0.8938 0.1811 0.3113
C32 C 0.9337(4) 0.2825(8) 0.3066(6)
H27 H 0.9643 0.3972 0.2896
H28 H 0.5274 0.6903 -0.0156
C33 C 0.5385(3) 0.5726(10) -0.0660(6)
H29 H 0.5581 0.4549 -0.1005
Cl2 Cl 0.97242(15) 0.2389(4) 0.3747(3)
Cl3 Cl 0.49833(14) 0.5786(4) -0.1441(2)
Pr1G Pr 0.802512(11) 0.19254(2) -0.13828(2)
Pr1A Pr 0.697488(11) 0.69254(2) -0.13828(2)
Pr1A_2 Pr 0.697488(11) 0.69254(2) 0.86172(2)
Pr1F Pr 0.697488(11) 0.30746(2) 0.36172(2)
O3A O 0.80551(19) 0.7329(4) 0.2296(3)
O4F O 0.75681(15) 0.9132(3) 0.2855(3)
O5G O 0.80448(15) 0.6590(3) 0.4215(3)
O6F O 0.84954(16) 0.9155(3) 0.3107(3)
O7A O 0.81346(19) 0.8353(3) 0.5174(3)
O8G O 0.71521(17) 0.4455(3) 0.4540(3)
O8A O 0.78479(17) 0.9455(3) 0.4540(3)
Pr2G Pr 0.744568(11) 0.44003(2) -0.13536(2)
Pr2A Pr 0.755432(11) 0.94003(2) 0.86464(2)
O12A O 0.7617(2) 0.6199(4) 0.2288(3)
O13G O 0.79658(18) 0.5367(3) 0.4900(3)
O14 O 0.6171(3) 0.0730(6) 0.3363(9)
H30 H 0.6390 0.0447 0.3194
H31 H 0.5949 0.0405 0.3346
loop_
_geom_bond_atom_site_label_1
_geom_bond_atom_site_label_2
_geom_bond_site_symmetry_1
_geom_bond_site_symmetry_2
Pr1 O1 1_555 1_555
O1 C1 1_555 1_555
O2 Pr1 1_555 1_555
O3 C12 1_555 1_555
O4 Pr2 1_555 1_555
O5 C21 1_555 1_555
O6 C4 1_555 1_555
O7 C24 1_555 1_555
O8 C24 1_555 1_555
Pr2 O9 1_555 1_555
C1 O9 1_555 1_555
H1 O2 1_555 1_555
H2 O2 1_555 1_555
O10 Pr2 1_555 1_555
O11 Pr2 1_555 1_555
O12 C12 1_555 1_555
O13 C21 1_555 1_555
C2 C1 1_555 1_555
C3 O4 1_555 1_555
C4 O11 1_555 1_555
H3 C2 1_555 1_555
H4 C2 1_555 1_555
C5 C2 1_555 1_555
C6 C3 1_555 1_555
C7 C4 1_555 1_555
H5 C5 1_555 1_555
C8 C5 1_555 1_555
C9 C5 1_555 1_555
H6 C6 1_555 1_555
H7 C6 1_555 1_555
C10 C6 1_555 1_555
H8 C7 1_555 1_555
H9 C7 1_555 1_555
C11 C7 1_555 1_555
H10 C8 1_555 1_555
H11 C8 1_555 1_555
C12 C8 1_555 1_555
C13 C9 1_555 1_555
C14 C9 1_555 1_555
H12 C10 1_555 1_555
C15 C10 1_555 1_555
C16 C10 1_555 1_555
H13 C11 1_555 1_555
C17 C11 1_555 1_555
C18 C11 1_555 1_555
H14 C13 1_555 1_555
C19 C13 1_555 1_555
C20 C14 1_555 1_555
H15 C14 1_555 1_555
H16 C15 1_555 1_555
H17 C15 1_555 1_555
C21 C15 1_555 1_555
C22 C16 1_555 1_555
C23 C16 1_555 1_555
H18 C17 1_555 1_555
H19 C17 1_555 1_555
C24 C17 1_555 1_555
C25 C18 1_555 1_555
C26 C18 1_555 1_555
H20 C19 1_555 1_555
C27 C19 1_555 1_555
H21 C20 1_555 1_555
H22 C22 1_555 1_555
C28 C22 1_555 1_555
C29 C23 1_555 1_555
H23 C23 1_555 1_555
H24 C25 1_555 1_555
C30 C25 1_555 1_555
C31 C26 1_555 1_555
H25 C26 1_555 1_555
Cl1 C27 1_555 1_555
H26 C28 1_555 1_555
C32 C28 1_555 1_555
H27 C29 1_555 1_555
H28 C30 1_555 1_555
C33 C30 1_555 1_555
H29 C31 1_555 1_555
Cl2 C32 1_555 1_555
Cl3 C33 1_555 1_555
O14 H30 1_555 1_555
H31 O14 1_555 1_555
Pr1G O5 1_555 1_555
Pr1A O7 1_555 1_555
Pr1A_2 O3 1_555 1_555
Pr1F O4 1_555 1_555
O3A Pr1 1_555 1_555
O4F Pr1 1_555 1_555
O5G Pr1 1_555 1_555
O6F Pr1 1_555 1_555
O7A Pr1 1_555 1_555
O8G Pr2 1_555 1_555
O8A Pr1 1_555 1_555
Pr2G O5 1_555 1_555
Pr2A O12 1_555 1_555
O12A Pr2 1_555 1_555
O13G Pr2 1_555 1_555
O6 Pr1F 1_555 1_555
O8 Pr1A 1_555 1_555
O8 Pr2G 1_555 1_555
Pr2 O5G 1_555 1_555
O10 C3 1_555 1_555
O13 Pr2G 1_555 1_555
C20 C27 1_555 1_555
C29 C32 1_555 1_555
C31 C33 1_555 1_555
Pr1F O8G 1_555 1_555

#END
