
#######################################################################
#
#                 Cambridge Crystallographic Data Centre
#                                CCDC 
#
#######################################################################
#
# If this CIF has been generated from an entry in the Cambridge 
# Structural Database, then it will include bibliographic, chemical, 
# crystal, experimental, refinement or atomic coordinate data resulting 
# from the CCDC's data processing and validation procedures.
#
#######################################################################

data_TIPKAG
_symmetry_cell_setting           orthorhombic
_symmetry_space_group_name_H-M   'P b c n'
_symmetry_Int_Tables_number      60
_space_group_name_Hall           '-P 2n 2ab'
loop_
_symmetry_equiv_pos_site_id
_symmetry_equiv_pos_as_xyz
1 x,y,z
2 1/2-x,1/2-y,1/2+z
3 1/2+x,1/2-y,-z
4 -x,y,1/2-z
5 -x,-y,-z
6 1/2+x,1/2+y,1/2-z
7 1/2-x,1/2+y,z
8 x,-y,1/2+z
_cell_length_a                   31.1093(12)
_cell_length_b                   15.2317(11)
_cell_length_c                   15.2392(6)
_cell_angle_alpha                90
_cell_angle_beta                 90
_cell_angle_gamma                90
_cell_volume                     7221.06
loop_
_atom_site_label
_atom_site_type_symbol
_atom_site_fract_x
_atom_site_fract_y
_atom_site_fract_z
Yb1 Yb 0.800493(16) 0.80889(3) 0.35504(3)
Yb2 Yb 0.743075(16) 0.55526(3) 0.35576(3)
Cl1 Cl 0.48530(19) 0.9070(7) 0.6279(6)
Cl2 Cl 0.9663(3) 0.2379(7) 0.3743(6)
Cl3 Cl 0.4924(3) 0.5953(10) -0.1418(5)
O1 O 0.8014(3) 0.4821(7) 0.2811(6)
O2 O 0.7920(3) 0.4599(6) -0.0261(5)
O3 O 0.7133(3) 0.5473(7) -0.0560(6)
O4 O 0.6816(3) 0.6581(7) 0.0002(6)
O5 O 0.7334(3) 0.7852(7) 0.3952(9)
O6 O 0.7068(3) 0.6546(7) 0.4317(9)
O7 O 0.7411(3) 0.4191(7) 0.2780(5)
O8 O 0.7459(3) 0.8682(7) 0.7331(5)
O9 O 0.6990(3) 0.7621(6) 0.7267(6)
O10 O 0.6770(3) 0.5451(6) 0.2903(6)
O11 O 0.6534(3) 0.4074(6) 0.3024(6)
O12 O 0.7987(2) 0.3374(6) -0.0949(5)
O13 O 0.8716(3) 0.7523(7) 0.3613(6)
H1 H 0.8897 0.7857 0.3324
H2 H 0.8725 0.6997 0.3382
C1 C 0.7066(5) 0.7365(10) 0.4289(13)
C2 C 0.6680(5) 0.7986(12) 0.5561(9)
H3 H 0.6697 0.7379 0.5771
C3 C 0.6694(5) 0.7951(12) 0.4627(9)
H4 H 0.6729 0.8540 0.4397
H5 H 0.6423 0.7721 0.4410
C4 C 0.7072(5) 0.8511(13) 0.6010(9)
H6 H 0.7327 0.8424 0.5654
H7 H 0.7005 0.9133 0.6000
C5 C 0.7176(5) 0.8251(12) 0.6945(9)
C6 C 0.6242(6) 0.8338(19) 0.5841(13)
C7 C 0.6061(6) 0.9067(14) 0.5407(15)
H8 H 0.6229 0.9397 0.5024
C8 C 0.5631(6) 0.9298(17) 0.5550(17)
H9 H 0.5511 0.9772 0.5255
C9 C 0.5396(6) 0.8832(19) 0.6113(16)
C10 C 0.5571(7) 0.8146(18) 0.6591(13)
H10 H 0.5412 0.7855 0.7017
C11 C 0.5992(6) 0.7912(18) 0.6413(12)
H11 H 0.6106 0.7431 0.6706
C12 C 0.7778(3) 0.4260(8) 0.2485(8)
C13 C 0.7887(4) 0.3772(11) 0.1640(8)
H12 H 0.7843 0.3149 0.1737
H13 H 0.7688 0.3956 0.1186
C14 C 0.8344(4) 0.3910(9) 0.1306(7)
H14 H 0.8395 0.4544 0.1284
C15 C 0.8405(4) 0.3554(9) 0.0376(7)
H15 H 0.8691 0.3710 0.0181
H16 H 0.8390 0.2918 0.0401
C16 C 0.8087(4) 0.3867(8) -0.0309(7)
C17 C 0.8675(4) 0.3518(10) 0.1919(7)
C18 C 0.8613(6) 0.2717(11) 0.2316(10)
H17 H 0.8362 0.2405 0.2202
C19 C 0.8911(8) 0.2368(14) 0.2874(11)
H18 H 0.8859 0.1837 0.3155
C20 C 0.9282(8) 0.2804(18) 0.3011(16)
C21 C 0.9364(6) 0.3578(18) 0.2628(15)
H19 H 0.9619 0.3874 0.2741
C22 C 0.9060(5) 0.3931(13) 0.2059(11)
H20 H 0.9120 0.4455 0.1770
C23 C 0.6532(4) 0.4829(9) 0.2689(8)
C24 C 0.6208(4) 0.4964(10) 0.1968(8)
H21 H 0.5952 0.5224 0.2222
H22 H 0.6128 0.4393 0.1739
C25 C 0.6353(4) 0.5539(10) 0.1196(8)
H23 H 0.6402 0.6127 0.1436
C26 C 0.6775(4) 0.5246(10) 0.0792(9)
H24 H 0.6996 0.5257 0.1242
H25 H 0.6745 0.4644 0.0595
C27 C 0.6916(4) 0.5785(9) 0.0056(7)
C28 C 0.6001(6) 0.5629(16) 0.0532(11)
C29 C 0.5771(6) 0.6394(16) 0.0501(11)
H26 H 0.5832 0.6846 0.0892
C30 C 0.5441(6) 0.6495(16) -0.0124(11)
H27 H 0.5286 0.7016 -0.0162
C31 C 0.5354(6) 0.5812(16) -0.0668(11)
C32 C 0.5561(6) 0.5070(16) -0.0666(12)
H28 H 0.5482 0.4622 -0.1047
C33 C 0.5905(6) 0.4953(16) -0.0084(11)
H29 H 0.6067 0.4441 -0.0099
Yb1A Yb 0.699507(16) 0.69111(3) -0.14496(3)
Yb1A_2 Yb 0.699507(16) 0.69111(3) 0.85504(3)
Yb1F Yb 0.699507(16) 0.30889(3) 0.35504(3)
Yb1G Yb 0.800493(16) 0.19111(3) -0.14496(3)
Yb2A Yb 0.756925(16) 0.94474(3) 0.85576(3)
Yb2G Yb 0.743075(16) 0.44474(3) -0.14424(3)
O2G O 0.7920(3) 0.5401(6) 0.4739(5)
O3A O 0.7867(3) 0.9527(7) 0.4440(6)
O3G O 0.7133(3) 0.4527(7) 0.4440(6)
O4A O 0.8184(3) 0.8419(7) 0.5002(6)
O7F O 0.7589(3) 0.9191(7) 0.2780(5)
O8A O 0.7541(3) 0.6318(7) 0.2331(5)
O9A O 0.8010(3) 0.7379(6) 0.2267(6)
O11F O 0.8466(3) 0.9074(6) 0.3024(6)
O12G O 0.7987(2) 0.6626(6) 0.4051(5)
O14 O 0.8809(4) 0.5737(10) 0.3276(14)
H30 H 0.8567 0.5483 0.3292
H31 H 0.9008 0.5353 0.3270
loop_
_geom_bond_atom_site_label_1
_geom_bond_atom_site_label_2
_geom_bond_site_symmetry_1
_geom_bond_site_symmetry_2
Yb1 O5 1_555 1_555
Yb2 O1 1_555 1_555
Cl1 C9 1_555 1_555
Cl2 C20 1_555 1_555
Cl3 C31 1_555 1_555
O1 C12 1_555 1_555
O2 C16 1_555 1_555
O3 C27 1_555 1_555
O4 C27 1_555 1_555
O5 C1 1_555 1_555
O6 Yb2 1_555 1_555
O7 Yb2 1_555 1_555
O8 C5 1_555 1_555
O9 C5 1_555 1_555
O10 Yb2 1_555 1_555
O11 C23 1_555 1_555
O12 C16 1_555 1_555
O13 Yb1 1_555 1_555
H1 O13 1_555 1_555
H2 O13 1_555 1_555
C1 O6 1_555 1_555
C2 H3 1_555 1_555
C3 C1 1_555 1_555
H4 C3 1_555 1_555
H5 C3 1_555 1_555
C4 C2 1_555 1_555
H6 C4 1_555 1_555
H7 C4 1_555 1_555
C5 C4 1_555 1_555
C6 C2 1_555 1_555
C7 C6 1_555 1_555
H8 C7 1_555 1_555
C8 C7 1_555 1_555
H9 C8 1_555 1_555
C9 C8 1_555 1_555
C10 C9 1_555 1_555
H10 C10 1_555 1_555
C11 C6 1_555 1_555
H11 C11 1_555 1_555
C12 O7 1_555 1_555
C13 C12 1_555 1_555
H12 C13 1_555 1_555
H13 C13 1_555 1_555
C14 C13 1_555 1_555
H14 C14 1_555 1_555
C15 C14 1_555 1_555
H15 C15 1_555 1_555
H16 C15 1_555 1_555
C16 C15 1_555 1_555
C17 C14 1_555 1_555
C18 C17 1_555 1_555
H17 C18 1_555 1_555
C19 C18 1_555 1_555
H18 C19 1_555 1_555
C20 C19 1_555 1_555
C21 C20 1_555 1_555
H19 C21 1_555 1_555
C22 C17 1_555 1_555
H20 C22 1_555 1_555
C23 O10 1_555 1_555
C24 C23 1_555 1_555
H21 C24 1_555 1_555
H22 C24 1_555 1_555
C25 C24 1_555 1_555
H23 C25 1_555 1_555
C26 C25 1_555 1_555
H24 C26 1_555 1_555
H25 C26 1_555 1_555
C27 C26 1_555 1_555
C28 C25 1_555 1_555
C29 C28 1_555 1_555
H26 C29 1_555 1_555
C30 C29 1_555 1_555
H27 C30 1_555 1_555
C31 C30 1_555 1_555
C32 C31 1_555 1_555
H28 C32 1_555 1_555
C33 C28 1_555 1_555
H29 C33 1_555 1_555
O14 H30 1_555 1_555
H31 O14 1_555 1_555
Yb1A O3 1_555 1_555
Yb1A_2 O9 1_555 1_555
Yb1F O7 1_555 1_555
Yb1G O12 1_555 1_555
Yb2A O8 1_555 1_555
Yb2G O2 1_555 1_555
O2G Yb2 1_555 1_555
O3A Yb1 1_555 1_555
O3G Yb2 1_555 1_555
O4A Yb1 1_555 1_555
O7F Yb1 1_555 1_555
O8A Yb2 1_555 1_555
O9A Yb1 1_555 1_555
O11F Yb1 1_555 1_555
O12G Yb1 1_555 1_555
Yb2 O12G 1_555 1_555
O3 Yb2G 1_555 1_555
O4 Yb1A 1_555 1_555
O11 Yb1F 1_555 1_555
O12 Yb2G 1_555 1_555
C2 C3 1_555 1_555
C10 C11 1_555 1_555
C21 C22 1_555 1_555
C32 C33 1_555 1_555
Yb1F O3G 1_555 1_555

#END
