
#######################################################################
#
#                 Cambridge Crystallographic Data Centre
#                                CCDC 
#
#######################################################################
#
# If this CIF has been generated from an entry in the Cambridge 
# Structural Database, then it will include bibliographic, chemical, 
# crystal, experimental, refinement or atomic coordinate data resulting 
# from the CCDC's data processing and validation procedures.
#
#######################################################################

data_TIPKUA
_symmetry_cell_setting           orthorhombic
_symmetry_space_group_name_H-M   'P b c n'
_symmetry_Int_Tables_number      60
_space_group_name_Hall           '-P 2n 2ab'
loop_
_symmetry_equiv_pos_site_id
_symmetry_equiv_pos_as_xyz
1 x,y,z
2 1/2-x,1/2-y,1/2+z
3 1/2+x,1/2-y,-z
4 -x,y,1/2-z
5 -x,-y,-z
6 1/2+x,1/2+y,1/2-z
7 1/2-x,1/2+y,z
8 x,-y,1/2+z
_cell_length_a                   30.9858(7)
_cell_length_b                   15.2517(3)
_cell_length_c                   15.5793(3)
_cell_angle_alpha                90
_cell_angle_beta                 90
_cell_angle_gamma                90
_cell_volume                     7362.56
loop_
_atom_site_label
_atom_site_type_symbol
_atom_site_fract_x
_atom_site_fract_y
_atom_site_fract_z
Nd1 Nd 0.802143(8) 0.807730(15) 0.361561(14)
O1 O 0.73039(12) 0.7443(2) 0.3727(2)
O2 O 0.87792(11) 0.7516(2) 0.3683(2)
O3 O 0.69484(12) 0.7664(2) 0.7297(2)
O4 O 0.74267(10) 0.4134(2) 0.2848(2)
O5 O 0.80410(10) 0.3417(2) -0.08003(19)
O6 O 0.65104(11) 0.4155(2) 0.3108(2)
O7 O 0.68694(12) 0.6652(2) 0.0168(2)
O8 O 0.71505(11) 0.5540(2) -0.04724(19)
Nd2 Nd 0.744745(8) 0.559570(15) 0.364272(14)
C1 C 0.70418(18) 0.7257(4) 0.4323(3)
H1 H 0.8929 0.7714 0.3256
H2 H 0.8778 0.6952 0.3658
O9 O 0.70375(11) 0.6505(2) 0.4624(2)
O10 O 0.80650(11) 0.4731(2) 0.2949(2)
O11 O 0.67511(11) 0.5507(2) 0.2942(2)
O12 O 0.73836(13) 0.8801(3) 0.7290(2)
O13 O 0.79604(12) 0.4640(2) -0.0109(2)
C2 C 0.67224(18) 0.7909(3) 0.4621(3)
C3 C 0.78126(15) 0.4235(3) 0.2570(3)
C4 C 0.65198(15) 0.4877(3) 0.2726(3)
H3 H 0.6446 0.7781 0.4357
H4 H 0.6812 0.8486 0.4429
C5 C 0.66646(15) 0.7928(3) 0.5599(3)
C6 C 0.79230(15) 0.3795(3) 0.1739(3)
C7 C 0.62187(16) 0.4969(3) 0.1973(3)
H5 H 0.6678 0.7322 0.5807
C8 C 0.70433(15) 0.8426(3) 0.5995(3)
C9 C 0.62250(16) 0.8287(3) 0.5822(3)
H6 H 0.7723 0.3996 0.1303
H7 H 0.7880 0.3168 0.1806
C10 C 0.83798(15) 0.3951(3) 0.1420(2)
H8 H 0.5944 0.5187 0.2183
H9 H 0.6168 0.4390 0.1735
C11 C 0.63691(15) 0.5568(3) 0.1247(3)
H10 H 0.7303 0.8266 0.5684
H11 H 0.6996 0.9048 0.5901
C12 C 0.71263(16) 0.8288(3) 0.6932(3)
C13 C 0.60608(19) 0.9025(4) 0.5430(4)
C14 C 0.5959(2) 0.7842(5) 0.6386(4)
H12 H 0.8428 0.4585 0.1400
C15 C 0.84449(15) 0.3586(3) 0.0504(3)
C16 C 0.87156(15) 0.3558(3) 0.2003(3)
H13 H 0.6405 0.6157 0.1488
C17 C 0.68055(16) 0.5282(3) 0.0885(3)
C18 C 0.60231(17) 0.5622(3) 0.0562(3)
H14 H 0.6237 0.9351 0.5067
C19 C 0.5641(2) 0.9288(5) 0.5565(5)
C20 C 0.5543(2) 0.8103(6) 0.6530(5)
H15 H 0.6066 0.7353 0.6674
H16 H 0.8734 0.3734 0.0317
H17 H 0.8426 0.2952 0.0529
C21 C 0.81316(14) 0.3908(3) -0.0160(3)
C22 C 0.86646(18) 0.2740(3) 0.2372(3)
C23 C 0.90884(18) 0.4002(4) 0.2189(4)
H18 H 0.7020 0.5300 0.1338
H19 H 0.6785 0.4682 0.0683
C24 C 0.69483(14) 0.5860(3) 0.0161(3)
C25 C 0.57652(18) 0.6356(4) 0.0498(3)
C26 C 0.5958(2) 0.4941(5) -0.0006(4)
H20 H 0.5532 0.9779 0.5286
C27 C 0.5387(2) 0.8816(6) 0.6114(5)
H21 H 0.5368 0.7793 0.6910
H22 H 0.8411 0.2431 0.2273
C28 C 0.8977(2) 0.2372(4) 0.2881(3)
C29 C 0.9396(2) 0.3657(5) 0.2733(5)
H23 H 0.9135 0.4549 0.1942
H24 H 0.5806 0.6820 0.0876
C30 C 0.5450(2) 0.6412(6) -0.0114(4)
C31 C 0.5635(3) 0.5004(6) -0.0617(4)
H25 H 0.6131 0.4443 0.0021
Cl1 Cl 0.48478(7) 0.9114(2) 0.62576(19)
H26 H 0.8942 0.1808 0.3099
C32 C 0.9335(2) 0.2843(5) 0.3060(4)
H27 H 0.9641 0.3979 0.2873
H28 H 0.5282 0.6915 -0.0160
C33 C 0.5385(2) 0.5721(7) -0.0657(4)
H29 H 0.5590 0.4546 -0.1001
Cl2 Cl 0.97263(9) 0.2401(2) 0.37372(19)
Cl3 Cl 0.49840(8) 0.5779(2) -0.14375(14)
Nd1G Nd 0.802143(8) 0.192270(15) -0.138439(14)
Nd1A Nd 0.697857(8) 0.692270(15) -0.138439(14)
Nd1A_2 Nd 0.697857(8) 0.692270(15) 0.861561(14)
Nd1F Nd 0.697857(8) 0.307730(15) 0.361561(14)
O3A O 0.80516(12) 0.7336(2) 0.2297(2)
O4F O 0.75733(10) 0.9134(2) 0.2848(2)
O5G O 0.80410(10) 0.6583(2) 0.41997(19)
O6F O 0.84896(11) 0.9155(2) 0.3108(2)
O7A O 0.81306(12) 0.8348(2) 0.5168(2)
O8G O 0.71505(11) 0.4460(2) 0.45276(19)
O8A O 0.78495(11) 0.9460(2) 0.45276(19)
Nd2G Nd 0.744745(8) 0.440430(15) -0.135728(14)
Nd2A Nd 0.755255(8) 0.940430(15) 0.864272(14)
O12A O 0.76164(13) 0.6199(3) 0.2290(2)
O13G O 0.79604(12) 0.5360(2) 0.4891(2)
O14 O 0.61634(19) 0.0726(4) 0.3380(5)
H30 H 0.6059 0.0215 0.3327
H31 H 0.6292 0.0871 0.2919
loop_
_geom_bond_atom_site_label_1
_geom_bond_atom_site_label_2
_geom_bond_site_symmetry_1
_geom_bond_site_symmetry_2
Nd1 O1 1_555 1_555
O1 C1 1_555 1_555
O2 Nd1 1_555 1_555
O3 C12 1_555 1_555
O4 Nd2 1_555 1_555
O5 C21 1_555 1_555
O6 C4 1_555 1_555
O7 C24 1_555 1_555
O8 C24 1_555 1_555
Nd2 O9 1_555 1_555
C1 O9 1_555 1_555
H1 O2 1_555 1_555
H2 O2 1_555 1_555
O10 Nd2 1_555 1_555
O11 Nd2 1_555 1_555
O12 C12 1_555 1_555
O13 C21 1_555 1_555
C2 C1 1_555 1_555
C3 O4 1_555 1_555
C4 O11 1_555 1_555
H3 C2 1_555 1_555
H4 C2 1_555 1_555
C5 C2 1_555 1_555
C6 C3 1_555 1_555
C7 C4 1_555 1_555
H5 C5 1_555 1_555
C8 C5 1_555 1_555
C9 C5 1_555 1_555
H6 C6 1_555 1_555
H7 C6 1_555 1_555
C10 C6 1_555 1_555
H8 C7 1_555 1_555
H9 C7 1_555 1_555
C11 C7 1_555 1_555
H10 C8 1_555 1_555
H11 C8 1_555 1_555
C12 C8 1_555 1_555
C13 C9 1_555 1_555
C14 C9 1_555 1_555
H12 C10 1_555 1_555
C15 C10 1_555 1_555
C16 C10 1_555 1_555
H13 C11 1_555 1_555
C17 C11 1_555 1_555
C18 C11 1_555 1_555
H14 C13 1_555 1_555
C19 C13 1_555 1_555
C20 C14 1_555 1_555
H15 C14 1_555 1_555
H16 C15 1_555 1_555
H17 C15 1_555 1_555
C21 C15 1_555 1_555
C22 C16 1_555 1_555
C23 C16 1_555 1_555
H18 C17 1_555 1_555
H19 C17 1_555 1_555
C24 C17 1_555 1_555
C25 C18 1_555 1_555
C26 C18 1_555 1_555
H20 C19 1_555 1_555
C27 C19 1_555 1_555
H21 C20 1_555 1_555
H22 C22 1_555 1_555
C28 C22 1_555 1_555
C29 C23 1_555 1_555
H23 C23 1_555 1_555
H24 C25 1_555 1_555
C30 C25 1_555 1_555
C31 C26 1_555 1_555
H25 C26 1_555 1_555
Cl1 C27 1_555 1_555
H26 C28 1_555 1_555
C32 C28 1_555 1_555
H27 C29 1_555 1_555
H28 C30 1_555 1_555
C33 C30 1_555 1_555
H29 C31 1_555 1_555
Cl2 C32 1_555 1_555
Cl3 C33 1_555 1_555
O14 H30 1_555 1_555
H31 O14 1_555 1_555
Nd1G O5 1_555 1_555
Nd1A O7 1_555 1_555
Nd1A_2 O3 1_555 1_555
Nd1F O4 1_555 1_555
O3A Nd1 1_555 1_555
O4F Nd1 1_555 1_555
O5G Nd1 1_555 1_555
O6F Nd1 1_555 1_555
O7A Nd1 1_555 1_555
O8G Nd2 1_555 1_555
O8A Nd1 1_555 1_555
Nd2G O5 1_555 1_555
Nd2A O12 1_555 1_555
O12A Nd2 1_555 1_555
O13G Nd2 1_555 1_555
O6 Nd1F 1_555 1_555
O8 Nd1A 1_555 1_555
O8 Nd2G 1_555 1_555
Nd2 O5G 1_555 1_555
O10 C3 1_555 1_555
O13 Nd2G 1_555 1_555
C20 C27 1_555 1_555
C29 C32 1_555 1_555
C31 C33 1_555 1_555
Nd1F O8G 1_555 1_555

#END
