
#######################################################################
#
#                 Cambridge Crystallographic Data Centre
#                                CCDC 
#
#######################################################################
#
# If this CIF has been generated from an entry in the Cambridge 
# Structural Database, then it will include bibliographic, chemical, 
# crystal, experimental, refinement or atomic coordinate data resulting 
# from the CCDC's data processing and validation procedures.
#
#######################################################################

data_TIPLUB
_symmetry_cell_setting           orthorhombic
_symmetry_space_group_name_H-M   'P b c n'
_symmetry_Int_Tables_number      60
_space_group_name_Hall           '-P 2n 2ab'
loop_
_symmetry_equiv_pos_site_id
_symmetry_equiv_pos_as_xyz
1 x,y,z
2 1/2-x,1/2-y,1/2+z
3 1/2+x,1/2-y,-z
4 -x,y,1/2-z
5 -x,-y,-z
6 1/2+x,1/2+y,1/2-z
7 1/2-x,1/2+y,z
8 x,-y,1/2+z
_cell_length_a                   31.1122(7)
_cell_length_b                   15.2593(3)
_cell_length_c                   15.2753(3)
_cell_angle_alpha                90
_cell_angle_beta                 90
_cell_angle_gamma                90
_cell_volume                     7251.95
loop_
_atom_site_label
_atom_site_type_symbol
_atom_site_fract_x
_atom_site_fract_y
_atom_site_fract_z
Er1 Er 0.800791(12) 0.80936(2) 0.35688(2)
Er2 Er 0.742834(12) 0.55567(2) 0.35751(2)
Cl1 Cl 0.48512(13) 0.9070(5) 0.6282(4)
Cl2 Cl 0.9672(2) 0.2373(5) 0.3738(4)
Cl3 Cl 0.49351(18) 0.5942(7) -0.1422(3)
O1 O 0.80186(19) 0.4811(4) 0.2829(5)
O2 O 0.7924(2) 0.4606(4) -0.0223(4)
O3 O 0.7131(2) 0.5478(4) -0.0542(4)
O4 O 0.6824(2) 0.6592(4) 0.0042(4)
O5 O 0.7326(2) 0.7834(5) 0.3921(6)
O6 O 0.7063(2) 0.6570(5) 0.4350(6)
O7 O 0.74044(18) 0.4160(4) 0.2795(4)
O8 O 0.7458(2) 0.8693(4) 0.7324(4)
O9 O 0.6987(2) 0.7609(4) 0.7275(4)
O10 O 0.67623(19) 0.5458(4) 0.2917(4)
O11 O 0.65227(19) 0.4082(4) 0.3042(4)
O12 O 0.79911(17) 0.3380(4) -0.0931(3)
O13 O 0.8720(2) 0.7514(5) 0.3637(4)
H1 H 0.8890 0.7795 0.3279
H2 H 0.8720 0.6961 0.3489
C1 C 0.7063(3) 0.7368(8) 0.4309(9)
C2 C 0.6697(5) 0.7913(12) 0.4653(11)
H3 H 0.6719 0.8497 0.4406
H4 H 0.6429 0.7660 0.4449
C3 C 0.6679(4) 0.7988(10) 0.5578(8)
H5 H 0.6690 0.7388 0.5805
C4 C 0.7068(3) 0.8491(8) 0.6019(6)
H6 H 0.7323 0.8388 0.5668
H7 H 0.7008 0.9114 0.5996
C5 C 0.7170(3) 0.8255(6) 0.6950(6)
C6 C 0.6248(5) 0.8348(13) 0.5848(9)
C7 C 0.6052(4) 0.9063(9) 0.5430(11)
H8 H 0.6218 0.9389 0.5041
C8 C 0.5626(4) 0.9320(11) 0.5556(12)
H9 H 0.5507 0.9800 0.5270
C9 C 0.5395(4) 0.8814(13) 0.6132(11)
C10 C 0.5573(5) 0.8154(12) 0.6595(9)
H10 H 0.5416 0.7869 0.7028
C11 C 0.5996(5) 0.7904(13) 0.6419(8)
H11 H 0.6108 0.7416 0.6702
C12 C 0.7783(3) 0.4249(5) 0.2485(6)
C13 C 0.7892(3) 0.3784(7) 0.1655(6)
H12 H 0.7694 0.3977 0.1203
H13 H 0.7846 0.3162 0.1742
C14 C 0.8344(2) 0.3914(6) 0.1324(5)
H14 H 0.8397 0.4547 0.1297
C15 C 0.8402(3) 0.3549(6) 0.0396(5)
H15 H 0.8690 0.3695 0.0199
H16 H 0.8384 0.2915 0.0426
C16 C 0.8087(3) 0.3865(5) -0.0286(5)
C17 C 0.8678(3) 0.3522(6) 0.1936(5)
C18 C 0.8616(4) 0.2722(7) 0.2341(7)
H17 H 0.8362 0.2419 0.2246
C19 C 0.8922(5) 0.2366(9) 0.2881(8)
H18 H 0.8875 0.1825 0.3145
C20 C 0.9284(5) 0.2795(11) 0.3025(10)
C21 C 0.9359(4) 0.3594(11) 0.2643(12)
H19 H 0.9613 0.3894 0.2758
C22 C 0.9057(3) 0.3948(8) 0.2090(8)
H20 H 0.9111 0.4483 0.1819
C23 C 0.6523(3) 0.4834(6) 0.2699(6)
C24 C 0.6205(3) 0.4959(7) 0.1971(6)
H21 H 0.5944 0.5203 0.2218
H22 H 0.6134 0.4387 0.1735
C25 C 0.6348(3) 0.5542(6) 0.1219(6)
H23 H 0.6398 0.6127 0.1465
C26 C 0.6775(3) 0.5243(6) 0.0815(6)
H24 H 0.6995 0.5246 0.1266
H25 H 0.6744 0.4645 0.0610
C27 C 0.6919(3) 0.5795(5) 0.0082(5)
C28 C 0.5998(4) 0.5637(10) 0.0535(8)
C29 C 0.5770(4) 0.6397(11) 0.0500(8)
H26 H 0.5832 0.6849 0.0888
C30 C 0.5443(4) 0.6498(10) -0.0121(8)
H27 H 0.5292 0.7022 -0.0164
C31 C 0.5354(4) 0.5825(10) -0.0651(8)
C32 C 0.5565(4) 0.5089(11) -0.0647(8)
H28 H 0.5490 0.4646 -0.1035
C33 C 0.5906(4) 0.4962(11) -0.0056(8)
H29 H 0.6066 0.4447 -0.0059
Er1G Er 0.800791(12) 0.19064(2) -0.14312(2)
Er1A Er 0.699209(12) 0.69064(2) -0.14312(2)
Er1A_2 Er 0.699209(12) 0.69064(2) 0.85688(2)
Er1F Er 0.699209(12) 0.30936(2) 0.35688(2)
Er2G Er 0.742834(12) 0.44433(2) -0.14249(2)
Er2A Er 0.757166(12) 0.94433(2) 0.85751(2)
O2G O 0.7924(2) 0.5394(4) 0.4777(4)
O3G O 0.7131(2) 0.4522(4) 0.4458(4)
O3A O 0.7869(2) 0.9522(4) 0.4458(4)
O4A O 0.8176(2) 0.8408(4) 0.5042(4)
O7F O 0.75956(18) 0.9160(4) 0.2795(4)
O8A O 0.7542(2) 0.6307(4) 0.2324(4)
O9A O 0.8013(2) 0.7391(4) 0.2275(4)
O11F O 0.84773(19) 0.9082(4) 0.3042(4)
O12G O 0.79911(17) 0.6620(4) 0.4069(3)
O14 O 0.8804(3) 0.5727(7) 0.3313(9)
H30 H 0.8855 0.5191 0.3425
H31 H 0.9031 0.5970 0.3121
loop_
_geom_bond_atom_site_label_1
_geom_bond_atom_site_label_2
_geom_bond_site_symmetry_1
_geom_bond_site_symmetry_2
Er1 O5 1_555 1_555
Er2 O1 1_555 1_555
Cl1 C9 1_555 1_555
Cl2 C20 1_555 1_555
Cl3 C31 1_555 1_555
O1 C12 1_555 1_555
O2 C16 1_555 1_555
O3 C27 1_555 1_555
O4 C27 1_555 1_555
O5 C1 1_555 1_555
O6 Er2 1_555 1_555
O7 Er2 1_555 1_555
O8 C5 1_555 1_555
O9 C5 1_555 1_555
O10 Er2 1_555 1_555
O11 C23 1_555 1_555
O12 C16 1_555 1_555
O13 Er1 1_555 1_555
H1 O13 1_555 1_555
H2 O13 1_555 1_555
C1 O6 1_555 1_555
C2 C1 1_555 1_555
H3 C2 1_555 1_555
H4 C2 1_555 1_555
C3 C2 1_555 1_555
H5 C3 1_555 1_555
C4 C3 1_555 1_555
H6 C4 1_555 1_555
H7 C4 1_555 1_555
C5 C4 1_555 1_555
C6 C3 1_555 1_555
C7 C6 1_555 1_555
H8 C7 1_555 1_555
C8 C7 1_555 1_555
H9 C8 1_555 1_555
C9 C8 1_555 1_555
C10 C9 1_555 1_555
H10 C10 1_555 1_555
C11 C6 1_555 1_555
H11 C11 1_555 1_555
C12 O7 1_555 1_555
C13 C12 1_555 1_555
H12 C13 1_555 1_555
H13 C13 1_555 1_555
C14 C13 1_555 1_555
H14 C14 1_555 1_555
C15 C14 1_555 1_555
H15 C15 1_555 1_555
H16 C15 1_555 1_555
C16 C15 1_555 1_555
C17 C14 1_555 1_555
C18 C17 1_555 1_555
H17 C18 1_555 1_555
C19 C18 1_555 1_555
H18 C19 1_555 1_555
C20 C19 1_555 1_555
C21 C20 1_555 1_555
H19 C21 1_555 1_555
C22 C17 1_555 1_555
H20 C22 1_555 1_555
C23 O10 1_555 1_555
C24 C23 1_555 1_555
H21 C24 1_555 1_555
H22 C24 1_555 1_555
C25 C24 1_555 1_555
H23 C25 1_555 1_555
C26 C25 1_555 1_555
H24 C26 1_555 1_555
H25 C26 1_555 1_555
C27 C26 1_555 1_555
C28 C25 1_555 1_555
C29 C28 1_555 1_555
H26 C29 1_555 1_555
C30 C29 1_555 1_555
H27 C30 1_555 1_555
C31 C30 1_555 1_555
C32 C31 1_555 1_555
H28 C32 1_555 1_555
C33 C28 1_555 1_555
H29 C33 1_555 1_555
O14 H30 1_555 1_555
H31 O14 1_555 1_555
Er1G O12 1_555 1_555
Er1A O3 1_555 1_555
Er1A_2 O9 1_555 1_555
Er1F O7 1_555 1_555
Er2G O2 1_555 1_555
Er2A O8 1_555 1_555
O2G Er2 1_555 1_555
O3G Er2 1_555 1_555
O3A Er1 1_555 1_555
O4A Er1 1_555 1_555
O7F Er1 1_555 1_555
O8A Er2 1_555 1_555
O9A Er1 1_555 1_555
O11F Er1 1_555 1_555
O12G Er1 1_555 1_555
Er2 O12G 1_555 1_555
O3 Er2G 1_555 1_555
O4 Er1A 1_555 1_555
O11 Er1F 1_555 1_555
O12 Er2G 1_555 1_555
C10 C11 1_555 1_555
C21 C22 1_555 1_555
C32 C33 1_555 1_555
Er1F O3G 1_555 1_555

#END
