
#######################################################################
#
#                 Cambridge Crystallographic Data Centre
#                                CCDC 
#
#######################################################################
#
# If this CIF has been generated from an entry in the Cambridge 
# Structural Database, then it will include bibliographic, chemical, 
# crystal, experimental, refinement or atomic coordinate data resulting 
# from the CCDC's data processing and validation procedures.
#
#######################################################################

data_TIPLAH
_symmetry_cell_setting           orthorhombic
_symmetry_space_group_name_H-M   'P b c n'
_symmetry_Int_Tables_number      60
_space_group_name_Hall           '-P 2n 2ab'
loop_
_symmetry_equiv_pos_site_id
_symmetry_equiv_pos_as_xyz
1 x,y,z
2 1/2-x,1/2-y,1/2+z
3 1/2+x,1/2-y,-z
4 -x,y,1/2-z
5 -x,-y,-z
6 1/2+x,1/2+y,1/2-z
7 1/2-x,1/2+y,z
8 x,-y,1/2+z
_cell_length_a                   31.1071(7)
_cell_length_b                   15.2421(2)
_cell_length_c                   15.4939(3)
_cell_angle_alpha                90
_cell_angle_beta                 90
_cell_angle_gamma                90
_cell_volume                     7346.24
loop_
_atom_site_label
_atom_site_type_symbol
_atom_site_fract_x
_atom_site_fract_y
_atom_site_fract_z
Eu1 Eu 0.801810(9) 0.809160(17) 0.359525(17)
Eu2 Eu 0.743990(9) 0.558482(17) 0.361076(17)
Cl1 Cl 0.48454(9) 0.9088(3) 0.6266(3)
Cl2 Cl 0.97138(12) 0.2404(3) 0.3723(3)
Cl3 Cl 0.49610(11) 0.5814(3) -0.1430(2)
O1 O 0.73107(15) 0.7589(3) 0.3739(3)
O2 O 0.70473(15) 0.6537(3) 0.4517(3)
O3 O 0.69556(15) 0.7640(3) 0.7293(3)
O4 O 0.74081(16) 0.8758(3) 0.7297(3)
O5 O 0.80464(14) 0.4759(3) 0.2903(3)
O6 O 0.74131(12) 0.4167(3) 0.2817(3)
O7 O 0.79425(15) 0.4634(3) -0.0157(3)
O8 O 0.80178(12) 0.3411(2) -0.0855(2)
O9 O 0.67557(13) 0.5504(3) 0.2931(3)
O10 O 0.65106(13) 0.4138(3) 0.3090(3)
O11 O 0.68628(16) 0.6639(3) 0.0129(3)
O12 O 0.71418(14) 0.5515(3) -0.0510(2)
O13 O 0.87567(14) 0.7518(3) 0.3674(3)
H1 H 0.8924 0.7839 0.3364
H2 H 0.8765 0.6990 0.3482
C1 C 0.7047(2) 0.7330(5) 0.4290(5)
C2 C 0.6711(2) 0.7930(5) 0.4611(4)
H3 H 0.6438 0.7763 0.4359
H4 H 0.6777 0.8520 0.4416
C3 C 0.66651(19) 0.7939(4) 0.5594(4)
H5 H 0.6681 0.7331 0.5795
C4 C 0.7046(2) 0.8442(4) 0.5993(4)
H6 H 0.7302 0.8302 0.5663
H7 H 0.6993 0.9065 0.5923
C5 C 0.71409(19) 0.8273(4) 0.6928(3)
C6 C 0.6227(2) 0.8293(4) 0.5834(4)
C7 C 0.6057(2) 0.9033(5) 0.5437(5)
H8 H 0.6229 0.9367 0.5071
C8 C 0.5635(3) 0.9279(6) 0.5578(7)
H9 H 0.5524 0.9770 0.5301
C9 C 0.5386(3) 0.8807(7) 0.6119(6)
C10 C 0.5550(3) 0.8111(7) 0.6560(7)
H10 H 0.5383 0.7815 0.6964
C11 C 0.5967(2) 0.7852(6) 0.6399(5)
H11 H 0.6075 0.7362 0.6683
C12 C 0.77957(18) 0.4246(4) 0.2526(4)
C13 C 0.79091(19) 0.3789(4) 0.1700(4)
H12 H 0.7710 0.3978 0.1256
H13 H 0.7868 0.3163 0.1781
C14 C 0.83630(17) 0.3941(4) 0.1377(3)
H14 H 0.8411 0.4576 0.1355
C15 C 0.84263(19) 0.3578(4) 0.0457(4)
H15 H 0.8714 0.3728 0.0267
H16 H 0.8409 0.2943 0.0482
C16 C 0.81138(19) 0.3895(4) -0.0212(4)
C17 C 0.87007(19) 0.3552(4) 0.1968(4)
C18 C 0.8650(2) 0.2732(4) 0.2350(4)
H17 H 0.8399 0.2418 0.2249
C19 C 0.8961(3) 0.2373(5) 0.2873(5)
H18 H 0.8923 0.1817 0.3108
C20 C 0.9323(3) 0.2835(6) 0.3041(6)
C21 C 0.9387(3) 0.3643(7) 0.2694(7)
H19 H 0.9635 0.3958 0.2819
C22 C 0.9074(2) 0.3996(5) 0.2146(5)
H20 H 0.9120 0.4544 0.1898
C23 C 0.65177(19) 0.4873(4) 0.2716(4)
C24 C 0.6214(2) 0.4971(5) 0.1966(4)
H21 H 0.5944 0.5199 0.2182
H22 H 0.6157 0.4392 0.1732
C25 C 0.63651(19) 0.5562(4) 0.1229(4)
H23 H 0.6407 0.6150 0.1471
C26 C 0.6799(2) 0.5267(4) 0.0855(4)
H24 H 0.7015 0.5282 0.1307
H25 H 0.6775 0.4666 0.0654
C27 C 0.69425(19) 0.5837(4) 0.0123(4)
C28 C 0.6019(2) 0.5633(4) 0.0545(4)
C29 C 0.5766(2) 0.6375(6) 0.0490(5)
H26 H 0.5813 0.6838 0.0868
C30 C 0.5444(3) 0.6438(7) -0.0114(6)
H27 H 0.5278 0.6944 -0.0150
C31 C 0.5370(3) 0.5752(9) -0.0662(5)
C32 C 0.5615(3) 0.5019(8) -0.0633(6)
H28 H 0.5565 0.4562 -0.1018
C33 C 0.5939(3) 0.4953(6) -0.0027(5)
H29 H 0.6106 0.4447 -0.0003
Eu1G Eu 0.801810(9) 0.190840(17) -0.140475(17)
Eu1A Eu 0.698190(9) 0.690840(17) -0.140475(17)
Eu1A_2 Eu 0.698190(9) 0.690840(17) 0.859525(17)
Eu1F Eu 0.698190(9) 0.309160(17) 0.359525(17)
Eu2G Eu 0.743990(9) 0.441518(17) -0.138924(17)
Eu2A Eu 0.756010(9) 0.941518(17) 0.861076(17)
O3A O 0.80444(15) 0.7360(3) 0.2293(3)
O4A O 0.75919(16) 0.6242(3) 0.2297(3)
O6F O 0.75869(12) 0.9167(3) 0.2817(3)
O7G O 0.79425(15) 0.5366(3) 0.4843(3)
O8G O 0.80178(12) 0.6589(2) 0.4145(2)
O10F O 0.84894(13) 0.9138(3) 0.3090(3)
O11A O 0.81372(16) 0.8361(3) 0.5129(3)
O12G O 0.71418(14) 0.4485(3) 0.4490(2)
O12A O 0.78582(14) 0.9485(3) 0.4490(2)
O14 O 0.6173(2) 0.0715(5) 0.3382(6)
H30 H 0.6382 0.0367 0.3291
H31 H 0.6020 0.0764 0.2930
loop_
_geom_bond_atom_site_label_1
_geom_bond_atom_site_label_2
_geom_bond_site_symmetry_1
_geom_bond_site_symmetry_2
Eu1 O1 1_555 1_555
Eu2 O2 1_555 1_555
Cl1 C9 1_555 1_555
Cl2 C20 1_555 1_555
Cl3 C31 1_555 1_555
O1 C1 1_555 1_555
O2 C1 1_555 1_555
O3 C5 1_555 1_555
O4 C5 1_555 1_555
O5 Eu2 1_555 1_555
O6 Eu2 1_555 1_555
O7 C16 1_555 1_555
O8 C16 1_555 1_555
O9 Eu2 1_555 1_555
O10 C23 1_555 1_555
O11 C27 1_555 1_555
O12 C27 1_555 1_555
O13 Eu1 1_555 1_555
H1 O13 1_555 1_555
H2 O13 1_555 1_555
C1 C2 1_555 1_555
C2 H3 1_555 1_555
H4 C2 1_555 1_555
C3 C2 1_555 1_555
H5 C3 1_555 1_555
C4 C3 1_555 1_555
H6 C4 1_555 1_555
H7 C4 1_555 1_555
C5 C4 1_555 1_555
C6 C3 1_555 1_555
C7 C6 1_555 1_555
H8 C7 1_555 1_555
C8 C7 1_555 1_555
H9 C8 1_555 1_555
C9 C8 1_555 1_555
C10 C9 1_555 1_555
H10 C10 1_555 1_555
C11 C6 1_555 1_555
H11 C11 1_555 1_555
C12 O5 1_555 1_555
C13 C12 1_555 1_555
H12 C13 1_555 1_555
H13 C13 1_555 1_555
C14 C13 1_555 1_555
H14 C14 1_555 1_555
C15 C14 1_555 1_555
H15 C15 1_555 1_555
H16 C15 1_555 1_555
C16 C15 1_555 1_555
C17 C14 1_555 1_555
C18 C17 1_555 1_555
H17 C18 1_555 1_555
C19 C18 1_555 1_555
H18 C19 1_555 1_555
C20 C19 1_555 1_555
C21 C20 1_555 1_555
H19 C21 1_555 1_555
C22 C17 1_555 1_555
H20 C22 1_555 1_555
C23 O9 1_555 1_555
C24 C23 1_555 1_555
H21 C24 1_555 1_555
H22 C24 1_555 1_555
C25 C24 1_555 1_555
H23 C25 1_555 1_555
C26 C25 1_555 1_555
H24 C26 1_555 1_555
H25 C26 1_555 1_555
C27 C26 1_555 1_555
C28 C25 1_555 1_555
C29 C28 1_555 1_555
H26 C29 1_555 1_555
C30 C29 1_555 1_555
H27 C30 1_555 1_555
C31 C30 1_555 1_555
C32 C31 1_555 1_555
H28 C32 1_555 1_555
C33 C28 1_555 1_555
H29 C33 1_555 1_555
O14 H30 1_555 1_555
H31 O14 1_555 1_555
Eu1G O8 1_555 1_555
Eu1A O11 1_555 1_555
Eu1A_2 O3 1_555 1_555
Eu1F O6 1_555 1_555
Eu2G O7 1_555 1_555
Eu2A O4 1_555 1_555
O3A Eu1 1_555 1_555
O4A Eu2 1_555 1_555
O6F Eu1 1_555 1_555
O7G Eu2 1_555 1_555
O8G Eu1 1_555 1_555
O10F Eu1 1_555 1_555
O11A Eu1 1_555 1_555
O12G Eu2 1_555 1_555
O12A Eu1 1_555 1_555
Eu2 O8G 1_555 1_555
O6 C12 1_555 1_555
O8 Eu2G 1_555 1_555
O10 Eu1F 1_555 1_555
O12 Eu1A 1_555 1_555
O12 Eu2G 1_555 1_555
C10 C11 1_555 1_555
C21 C22 1_555 1_555
C32 C33 1_555 1_555
Eu1F O12G 1_555 1_555

#END
