
#######################################################################
#
#                 Cambridge Crystallographic Data Centre
#                                CCDC 
#
#######################################################################
#
# If this CIF has been generated from an entry in the Cambridge 
# Structural Database, then it will include bibliographic, chemical, 
# crystal, experimental, refinement or atomic coordinate data resulting 
# from the CCDC's data processing and validation procedures.
#
#######################################################################

data_TIPNOW
_symmetry_cell_setting           orthorhombic
_symmetry_space_group_name_H-M   'P b c n'
_symmetry_Int_Tables_number      60
_space_group_name_Hall           '-P 2n 2ab'
loop_
_symmetry_equiv_pos_site_id
_symmetry_equiv_pos_as_xyz
1 x,y,z
2 1/2-x,1/2-y,1/2+z
3 -x,y,1/2-z
4 1/2+x,1/2-y,-z
5 -x,-y,-z
6 1/2+x,1/2+y,1/2-z
7 x,-y,1/2+z
8 1/2-x,1/2+y,z
_cell_length_a                   10.558(4)
_cell_length_b                   10.522(4)
_cell_length_c                   33.768(9)
_cell_angle_alpha                90
_cell_angle_beta                 90
_cell_angle_gamma                90
_cell_volume                     3751.33
loop_
_atom_site_label
_atom_site_type_symbol
_atom_site_fract_x
_atom_site_fract_y
_atom_site_fract_z
O9 O 0.2127(4) 0.1967(4) 0.37933(13)
H17 H 0.2538 0.2556 0.3679
H18 H 0.2602 0.1324 0.3817
N3 N 0.5000 0.5000 0.5000
O12 O 0.5301(11) 0.4072(10) 0.4819(3)
O13 O 0.4766(13) 0.5052(9) 0.5344(3)
O14 O 0.4905(12) 0.6088(9) 0.4806(3)
O12D O 0.4699(11) 0.5928(10) 0.5181(3)
O13D O 0.5234(13) 0.4948(9) 0.4656(3)
O14D O 0.5095(12) 0.3912(9) 0.5194(3)
N4 N 0.0000 0.5319(7) 0.7500
O15 O 0.0009(12) 0.6411(8) 0.7650(2)
O16 O 0.0053(17) 0.5142(11) 0.7155(3)
O17 O -0.0157(15) 0.4407(11) 0.7740(3)
O15B O -0.0009(12) 0.6411(8) 0.7350(2)
O16B O -0.0053(17) 0.5142(11) 0.7845(3)
O17B O 0.0157(15) 0.4407(11) 0.7260(3)
Sm1 Sm 0.26736(2) 0.25775(2) 0.625287(8)
O1 O 0.4606(4) 0.3531(4) 0.59861(12)
O2 O 0.4638(4) 0.1664(4) 0.65282(11)
O3 O 0.0665(4) 0.1711(4) 0.59736(11)
O4 O 0.0717(4) 0.3558(4) 0.65144(11)
O5 O 0.3197(4) 0.3908(3) 0.68109(10)
O6 O 0.2963(4) 0.5974(4) 0.66911(10)
O7 O 0.3242(4) 0.1097(4) 0.57603(10)
O8 O 0.2874(4) -0.0989(4) 0.57392(10)
O10 O 0.3695(4) 0.6069(4) 0.85350(10)
N1 N 0.3626(4) 0.5834(4) 0.81514(12)
C1 C 0.3482(6) 0.6790(5) 0.7889(2)
H1 H 0.3476 0.7626 0.7979
C2 C 0.3346(6) 0.6549(5) 0.7494(2)
H2 H 0.3240 0.7224 0.7319
C3 C 0.3363(5) 0.5327(5) 0.73484(15)
C4 C 0.3552(5) 0.4357(5) 0.76226(15)
H3 H 0.3586 0.3519 0.75361
C5 C 0.3687(6) 0.4618(6) 0.8018(2)
H4 H 0.3822 0.3957 0.8196
C6 C 0.3175(5) 0.5050(4) 0.6917(2)
O11 O 0.3966(4) 0.0092(3) 0.39449(11)
N2 N 0.3782(5) 0.0078(4) 0.43318(13)
C7 C 0.3415(5) -0.1004(5) 0.45103(15)
H5 H 0.3305 -0.1740 0.43616
C8 C 0.3201(5) -0.1026(5) 0.49129(14)
H6 H 0.2963 -0.1782 0.50345
C9 C 0.3336(5) 0.0066(4) 0.51386(15)
C10 C 0.3734(5) 0.1167(5) 0.49486(14)
H7 H 0.3852 0.1911 0.50925
C11 C 0.3954(5) 0.1154(5) 0.4547(2)
H8 H 0.4223 0.1892 0.4421
C12 C 0.3130(5) 0.0054(4) 0.5582(2)
H9 H 0.4673 0.3726 0.5746
H10 H 0.5363 0.3342 0.6045
H11 H 0.4807 0.1445 0.6759
H12 H 0.4968 0.1180 0.6360
H13 H 0.0143 0.1466 0.6146
H14 H 0.0680 0.1250 0.5766
H15 H 0.0238 0.3918 0.6346
H16 H 0.0731 0.4019 0.6717
Sm1G Sm 0.23264(2) -0.24225(2) 0.625287(8)
Sm1G_2 Sm 0.23264(2) 0.75775(2) 0.625287(8)
O1G O 0.0394(4) -0.1469(4) 0.59861(12)
O2G O 0.0362(4) -0.3336(4) 0.65282(11)
O3G O 0.4335(4) -0.3289(4) 0.59736(11)
O4G O 0.4283(4) -0.1442(4) 0.65144(11)
O5G O 0.1803(4) -0.1092(3) 0.68109(10)
O6G O 0.2037(4) 0.0974(4) 0.66911(10)
O6_2 O 0.2963(4) -0.4026(4) 0.66911(10)
O7G O 0.1758(4) 0.6097(4) 0.57603(10)
O7G_2 O 0.1758(4) -0.3903(4) 0.57603(10)
O8G O 0.2126(4) 0.4011(4) 0.57392(10)
O10G O 0.1305(4) 0.1069(4) 0.85350(10)
N1G N 0.1374(4) 0.0834(4) 0.81514(12)
C1G C 0.1518(6) 0.1790(5) 0.7889(2)
H1G H 0.1524 0.2626 0.7979
C2G C 0.1654(6) 0.1549(5) 0.7494(2)
H2G H 0.1760 0.2224 0.7319
C3G C 0.1637(5) 0.0327(5) 0.73484(15)
C4G C 0.1448(5) -0.0643(5) 0.76226(15)
H3G H 0.1414 -0.1481 0.75361
C5G C 0.1313(6) -0.0382(6) 0.8018(2)
H4G H 0.1178 -0.1043 0.8196
C6G C 0.1825(5) 0.0050(4) 0.6917(2)
O11G O 0.1034(4) 0.5092(3) 0.39449(11)
N2G N 0.1218(5) 0.5078(4) 0.43318(13)
C7G C 0.1585(5) 0.3996(5) 0.45103(15)
H5G H 0.1695 0.3260 0.43616
C8G C 0.1799(5) 0.3974(5) 0.49129(14)
H6G H 0.2037 0.3218 0.50345
C9G C 0.1664(5) 0.5066(4) 0.51386(15)
C10G C 0.1266(5) 0.6167(5) 0.49486(14)
H7G H 0.1148 0.6911 0.50925
C11G C 0.1046(5) 0.6154(5) 0.4547(2)
H8G H 0.0777 0.6892 0.4421
C12G C 0.1870(5) 0.5054(4) 0.5582(2)
H9G H 0.0327 -0.1274 0.5746
H10G H -0.0363 -0.1658 0.6045
H11G H 0.0193 -0.3555 0.6759
H12G H 0.0032 -0.3820 0.6360
H13G H 0.4857 -0.3534 0.6146
H14G H 0.4320 -0.3750 0.5766
H15G H 0.4762 -0.1082 0.6346
H16G H 0.4269 -0.0981 0.6717
loop_
_geom_bond_atom_site_label_1
_geom_bond_atom_site_label_2
_geom_bond_site_symmetry_1
_geom_bond_site_symmetry_2
Sm1 O1 1_555 1_555
O1 H9 1_555 1_555
O2 Sm1 1_555 1_555
O3 Sm1 1_555 1_555
O4 Sm1 1_555 1_555
O5 Sm1 1_555 1_555
O6 C6 1_555 1_555
O7 Sm1 1_555 1_555
O8 C12 1_555 1_555
O9 H17 1_555 1_555
O10 N1 1_555 1_555
N1 C1 1_555 1_555
C1 H1 1_555 1_555
C2 C1 1_555 1_555
H2 C2 1_555 1_555
C3 C2 1_555 1_555
C4 C3 1_555 1_555
H3 C4 1_555 1_555
C5 N1 1_555 1_555
H4 C5 1_555 1_555
C6 O5 1_555 1_555
O11 N2 1_555 1_555
N2 C7 1_555 1_555
C7 H5 1_555 1_555
C8 C7 1_555 1_555
H6 C8 1_555 1_555
C9 C8 1_555 1_555
C10 C9 1_555 1_555
H7 C10 1_555 1_555
C11 N2 1_555 1_555
H8 C11 1_555 1_555
C12 O7 1_555 1_555
N3 O12 1_555 1_555
O12 O13D 1_555 1_555
O13 N3 1_555 1_555
O14 N3 1_555 1_555
N4 O15 1_555 1_555
O15 O15B 1_555 1_555
O16 N4 1_555 1_555
O17 N4 1_555 1_555
H10 O1 1_555 1_555
H11 O2 1_555 1_555
H12 O2 1_555 1_555
H13 O3 1_555 1_555
H14 O3 1_555 1_555
H15 O4 1_555 1_555
H16 O4 1_555 1_555
H18 O9 1_555 1_555
Sm1G O8 1_555 1_555
Sm1G_2 O6 1_555 1_555
O1G Sm1G 1_555 1_555
O2G Sm1G 1_555 1_555
O3G Sm1G 1_555 1_555
O4G Sm1G 1_555 1_555
O5G Sm1G 1_555 1_555
O6G Sm1 1_555 1_555
O6_2 Sm1G 1_555 1_555
O7G Sm1G_2 1_555 1_555
O7G_2 Sm1G 1_555 1_555
O8G Sm1 1_555 1_555
O10G N1G 1_555 1_555
N1G C1G 1_555 1_555
C1G H1G 1_555 1_555
C2G C1G 1_555 1_555
H2G C2G 1_555 1_555
C3G C2G 1_555 1_555
C4G C3G 1_555 1_555
H3G C4G 1_555 1_555
C5G N1G 1_555 1_555
H4G C5G 1_555 1_555
C6G O5G 1_555 1_555
O11G N2G 1_555 1_555
N2G C7G 1_555 1_555
C7G H5G 1_555 1_555
C8G C7G 1_555 1_555
H6G C8G 1_555 1_555
C9G C8G 1_555 1_555
C10G C9G 1_555 1_555
H7G C10G 1_555 1_555
C11G N2G 1_555 1_555
H8G C11G 1_555 1_555
C12G O7G 1_555 1_555
O12D N3 1_555 1_555
O13D N3 1_555 1_555
O14D N3 1_555 1_555
O15B N4 1_555 1_555
O16B N4 1_555 1_555
O17B N4 1_555 1_555
H9G O1G 1_555 1_555
H10G O1G 1_555 1_555
H11G O2G 1_555 1_555
H12G O2G 1_555 1_555
H13G O3G 1_555 1_555
H14G O3G 1_555 1_555
H15G O4G 1_555 1_555
H16G O4G 1_555 1_555
C3 C6 1_555 1_555
C4 C5 1_555 1_555
C9 C12 1_555 1_555
C10 C11 1_555 1_555
O12 O14D 1_555 1_555
O13 O12D 1_555 1_555
O13 O14D 1_555 1_555
O14 O12D 1_555 1_555
O14 O13D 1_555 1_555
O15 O16B 1_555 1_555
O16 O15B 1_555 1_555
O16 O17B 1_555 1_555
O17 O16B 1_555 1_555
O17 O17B 1_555 1_555
O6G C6G 1_555 1_555
O8G C12G 1_555 1_555
C3G C6G 1_555 1_555
C4G C5G 1_555 1_555
C9G C12G 1_555 1_555
C10G C11G 1_555 1_555

#END
