
#######################################################################
#
#                 Cambridge Crystallographic Data Centre
#                                CCDC 
#
#######################################################################
#
# If this CIF has been generated from an entry in the Cambridge 
# Structural Database, then it will include bibliographic, chemical, 
# crystal, experimental, refinement or atomic coordinate data resulting 
# from the CCDC's data processing and validation procedures.
#
#######################################################################

data_TIPRAL
_symmetry_cell_setting           triclinic
_symmetry_space_group_name_H-M   'P -1'
_symmetry_Int_Tables_number      2
_space_group_name_Hall           '-P 1'
loop_
_symmetry_equiv_pos_site_id
_symmetry_equiv_pos_as_xyz
1 x,y,z
2 -x,-y,-z
_cell_length_a                   5.194(3)
_cell_length_b                   7.4537(21)
_cell_length_c                   8.9007(18)
_cell_angle_alpha                67.07(2)
_cell_angle_beta                 77.26(3)
_cell_angle_gamma                74.46(4)
_cell_volume                     303.125
loop_
_atom_site_label
_atom_site_type_symbol
_atom_site_fract_x
_atom_site_fract_y
_atom_site_fract_z
Mn1 Mn 0.00000 0.00000 0.00000
O1 O -0.2644(3) 0.08393(19) 0.19483(15)
O2 O 1.80947(23) -0.87450(17) -0.46879(14)
O3 O 1.22981(24) -0.58884(18) -0.46475(15)
O4 O 1.1514(3) -0.62225(18) -0.80619(15)
O5 O 0.27426(25) -0.18393(20) 0.17426(14)
O6 O -0.18329(24) -0.26153(17) 0.06381(14)
C1 C 1.6016(3) -0.82010(23) -0.71815(19)
C2 C 1.6303(3) -0.79985(23) -0.56764(20)
C3 C 1.3703(3) -0.67175(23) -0.56486(20)
C4 C 1.3331(3) -0.68620(23) -0.71797(19)
H1 H 2.000 -1.000 -0.500
H2 H 1.000 -0.500 -0.500
H3 H 0.247 -0.169 0.279
H4 H 0.463 -0.215 0.138
H5 H -0.170 -0.303 -0.027
H6 H -0.089 -0.377 0.141
O1_2 O 1.7356(3) -0.91607(19) -0.80517(15)
Mn1_2 Mn 2.00000 -1.00000 -1.00000
O3A O 0.77019(24) -0.41116(18) -0.53525(15)
C3A C 0.6297(3) -0.32825(23) -0.43514(20)
C2A C 0.3697(3) -0.20015(23) -0.43236(20)
O2A O 0.19053(23) -0.12550(17) -0.53121(14)
H1_2 H 0.000 0.000 -0.500
C1A C 0.3984(3) -0.17990(23) -0.28185(19)
O1A O 0.2644(3) -0.08393(19) -0.19483(15)
C4A C 0.6669(3) -0.31380(23) -0.28203(19)
O4A O 0.8486(3) -0.37775(18) -0.19381(15)
O5A O -0.27426(25) 0.18393(20) -0.17426(14)
H3A H -0.247 0.169 -0.279
H4A H -0.463 0.215 -0.138
O6A O 0.18329(24) 0.26153(17) -0.06381(14)
H5A H 0.170 0.303 0.027
H6A H 0.089 0.377 -0.141
loop_
_geom_bond_atom_site_label_1
_geom_bond_atom_site_label_2
_geom_bond_site_symmetry_1
_geom_bond_site_symmetry_2
Mn1 O1 1_555 1_555
O2 C2 1_555 1_555
O3 C3 1_555 1_555
O4 C4 1_555 1_555
O5 Mn1 1_555 1_555
O6 Mn1 1_555 1_555
C1 C2 1_555 1_555
C2 C3 1_555 1_555
C3 C4 1_555 1_555
C4 C1 1_555 1_555
H1 O2 1_555 1_555
H2 O3 1_555 1_555
H3 O5 1_555 1_555
H4 O5 1_555 1_555
H5 O6 1_555 1_555
H6 O6 1_555 1_555
O1_2 C1 1_555 1_555
Mn1_2 O1_2 1_555 1_555
O3A H2 1_555 1_555
C3A O3A 1_555 1_555
C2A C3A 1_555 1_555
O2A C2A 1_555 1_555
H1_2 O2A 1_555 1_555
C1A C2A 1_555 1_555
O1A Mn1 1_555 1_555
C4A C3A 1_555 1_555
O4A C4A 1_555 1_555
O5A Mn1 1_555 1_555
H3A O5A 1_555 1_555
H4A O5A 1_555 1_555
O6A Mn1 1_555 1_555
H5A O6A 1_555 1_555
H6A O6A 1_555 1_555
C1A O1A 1_555 1_555
C1A C4A 1_555 1_555

#END
