
#######################################################################
#
#                 Cambridge Crystallographic Data Centre
#                                CCDC 
#
#######################################################################
#
# If this CIF has been generated from an entry in the Cambridge 
# Structural Database, then it will include bibliographic, chemical, 
# crystal, experimental, refinement or atomic coordinate data resulting 
# from the CCDC's data processing and validation procedures.
#
#######################################################################

data_TIPRIT01
_symmetry_cell_setting           cubic
_symmetry_space_group_name_H-M   'P n -3 n'
_symmetry_Int_Tables_number      222
_space_group_name_Hall           '-P 4a 2bc 3'
loop_
_symmetry_equiv_pos_site_id
_symmetry_equiv_pos_as_xyz
1 x,y,z
2 z,x,y
3 y,z,x
4 y,x,1/2-z
5 y,1/2-x,z
6 1/2-y,x,z
7 x,z,1/2-y
8 1/2-x,z,y
9 x,1/2-z,y
10 z,y,1/2-x
11 z,1/2-y,x
12 1/2-z,y,x
13 1/2-x,1/2-y,z
14 1/2-x,y,1/2-z
15 x,1/2-y,1/2-z
16 z,1/2-x,1/2-y
17 1/2-z,1/2-x,y
18 1/2-z,x,1/2-y
19 1/2-y,z,1/2-x
20 y,1/2-z,1/2-x
21 1/2-y,1/2-z,x
22 1/2-y,1/2-x,1/2-z
23 1/2-x,1/2-z,1/2-y
24 1/2-z,1/2-y,1/2-x
25 -x,-y,-z
26 -z,-x,-y
27 -y,-z,-x
28 -y,-x,1/2+z
29 -y,1/2+x,-z
30 1/2+y,-x,-z
31 -x,-z,1/2+y
32 1/2+x,-z,-y
33 -x,1/2+z,-y
34 -z,-y,1/2+x
35 -z,1/2+y,-x
36 1/2+z,-y,-x
37 1/2+x,1/2+y,-z
38 1/2+x,-y,1/2+z
39 -x,1/2+y,1/2+z
40 -z,1/2+x,1/2+y
41 1/2+z,1/2+x,-y
42 1/2+z,-x,1/2+y
43 1/2+y,-z,1/2+x
44 -y,1/2+z,1/2+x
45 1/2+y,1/2+z,-x
46 1/2+y,1/2+x,1/2+z
47 1/2+x,1/2+z,1/2+y
48 1/2+z,1/2+y,1/2+x
_cell_length_a                   16.3606(9)
_cell_length_b                   16.3606(9)
_cell_length_c                   16.3606(9)
_cell_angle_alpha                90
_cell_angle_beta                 90
_cell_angle_gamma                90
_cell_volume                     4379.23
loop_
_atom_site_label
_atom_site_type_symbol
_atom_site_fract_x
_atom_site_fract_y
_atom_site_fract_z
Fe1 Fe 0.498475(16) 0.498475(16) 0.2500
C1 C 0.30900(13) 0.48407(15) 0.22728(14)
O1 O 0.37958(10) 0.48778(12) 0.19866(10)
C2 C 0.50044(14) 0.69069(14) 0.22811(17)
O2 O 0.50261(12) 0.61950(10) 0.20032(11)
O3 O 0.46029(10) 0.53742(10) 0.36497(11)
H1 H 0.4137 0.5200 0.3818
H2 H 0.4700 0.5869 0.3797
C1I C 0.22728(14) 0.48407(15) 0.19100(13)
C1M C 0.19100(13) 0.48407(15) 0.27272(14)
C1K C 0.27272(14) 0.48407(15) 0.30900(13)
O1K O 0.30134(10) 0.48778(12) 0.37958(10)
O1M O 0.12042(10) 0.48778(12) 0.30134(10)
O1I O 0.19866(10) 0.48778(12) 0.12042(10)
C2DA C 0.49956(14) 0.77189(17) 0.19069(14)
C2N C 0.50044(14) 0.80931(14) 0.27189(17)
C2FA C 0.49956(14) 0.72811(17) 0.30931(14)
O2FA O 0.49739(12) 0.70032(11) 0.38050(10)
O2N O 0.50261(12) 0.88050(10) 0.29968(11)
O2DA O 0.49739(12) 0.79968(11) 0.11950(10)
O3C O 0.53742(10) 0.46029(10) 0.13503(11)
H1C H 0.5200 0.4137 0.1182
H2C H 0.5869 0.4700 0.1203
Fe1K Fe 0.2500 0.498475(16) 0.498475(16)
O3K O 0.13503(11) 0.53742(10) 0.46029(10)
H1K H 0.1182 0.5200 0.4137
H2K H 0.1203 0.5869 0.4700
O3A O 0.36497(11) 0.46029(10) 0.53742(10)
H1A H 0.3818 0.4137 0.5200
H2A H 0.3797 0.4700 0.5869
O1C O 0.48778(12) 0.37958(10) 0.30134(10)
O2C O 0.61950(10) 0.50261(12) 0.29968(11)
Fe1E Fe 0.001525(16) 0.498475(16) 0.2500
Fe1I Fe 0.2500 0.498475(16) 0.001525(16)
Fe1Z Fe 0.501525(16) 0.7500 0.501525(16)
Fe1D Fe 0.498475(16) 1.001525(16) 0.2500
Fe1QA Fe 0.501525(16) 0.7500 -0.001525(16)
O1A O 0.19866(10) 0.37958(10) 0.48778(12)
O2A O 0.20032(11) 0.50261(12) 0.61950(10)
O2K O 0.29968(11) 0.61950(10) 0.50261(12)
loop_
_geom_bond_atom_site_label_1
_geom_bond_atom_site_label_2
_geom_bond_site_symmetry_1
_geom_bond_site_symmetry_2
Fe1 O1 1_555 1_555
C1 O1 1_555 1_555
C2 O2 1_555 1_555
O2 Fe1 1_555 1_555
O3 Fe1 1_555 1_555
H1 O3 1_555 1_555
H2 O3 1_555 1_555
C1I C1 1_555 1_555
C1M C1I 1_555 1_555
C1K C1 1_555 1_555
O1K C1K 1_555 1_555
O1M C1M 1_555 1_555
O1I C1I 1_555 1_555
C2DA C2 1_555 1_555
C2N C2DA 1_555 1_555
C2FA C2 1_555 1_555
O2FA C2FA 1_555 1_555
O2N C2N 1_555 1_555
O2DA C2DA 1_555 1_555
O3C Fe1 1_555 1_555
H1C O3C 1_555 1_555
H2C O3C 1_555 1_555
Fe1K O1K 1_555 1_555
O3K Fe1K 1_555 1_555
H1K O3K 1_555 1_555
H2K O3K 1_555 1_555
O3A Fe1K 1_555 1_555
H1A O3A 1_555 1_555
H2A O3A 1_555 1_555
O1C Fe1 1_555 1_555
O2C Fe1 1_555 1_555
Fe1E O1M 1_555 1_555
Fe1I O1I 1_555 1_555
Fe1Z O2FA 1_555 1_555
Fe1D O2N 1_555 1_555
Fe1QA O2DA 1_555 1_555
O1A Fe1K 1_555 1_555
O2A Fe1K 1_555 1_555
O2K Fe1K 1_555 1_555
C1M C1K 1_555 1_555
C2N C2FA 1_555 1_555

#END
