
#######################################################################
#
#                 Cambridge Crystallographic Data Centre
#                                CCDC 
#
#######################################################################
#
# If this CIF has been generated from an entry in the Cambridge 
# Structural Database, then it will include bibliographic, chemical, 
# crystal, experimental, refinement or atomic coordinate data resulting 
# from the CCDC's data processing and validation procedures.
#
#######################################################################

data_TIPRIT
_symmetry_cell_setting           rhombohedral
_symmetry_space_group_name_H-M   'R -3'
_symmetry_Int_Tables_number      148
_space_group_name_Hall           '-R 3'
loop_
_symmetry_equiv_pos_site_id
_symmetry_equiv_pos_as_xyz
1 x,y,z
2 -y,x-y,z
3 -x+y,-x,z
4 1/3+x,2/3+y,2/3+z
5 1/3-y,2/3+x-y,2/3+z
6 1/3-x+y,2/3-x,2/3+z
7 2/3+x,1/3+y,1/3+z
8 2/3-y,1/3+x-y,1/3+z
9 2/3-x+y,1/3-x,1/3+z
10 -x,-y,-z
11 y,-x+y,-z
12 x-y,x,-z
13 2/3-x,1/3-y,1/3-z
14 2/3+y,1/3-x+y,1/3-z
15 2/3+x-y,1/3+x,1/3-z
16 1/3-x,2/3-y,2/3-z
17 1/3+y,2/3-x+y,2/3-z
18 1/3+x-y,2/3+x,2/3-z
_cell_length_a                   11.4395(19)
_cell_length_b                   11.4395(19)
_cell_length_c                   14.504(3)
_cell_angle_alpha                90
_cell_angle_beta                 90
_cell_angle_gamma                120
_cell_volume                     1643.74
loop_
_atom_site_label
_atom_site_type_symbol
_atom_site_fract_x
_atom_site_fract_y
_atom_site_fract_z
Fe1 Fe 0.00000 0.50000 0.50000
O1 O 0.1491(4) 0.6884(4) 0.44861(25)
O2 O 0.0127(4) 0.3904(5) 0.3842(3)
O3 O -0.1568(4) 0.4984(4) 0.4259(3)
C1 C 0.1578(6) 0.7675(6) 0.3857(4)
C2 C 0.0984(6) 0.3601(6) 0.3571(4)
H1 H -0.118 0.560 0.375
H2 H -0.224 0.500 0.464
C2B C 0.2617(8) 0.9016(6) 0.3571(4)
O2B O 0.3777(6) 0.9873(4) 0.3842(3)
Fe1B Fe 0.50000 1.00000 0.50000
O1B O 0.5393(6) 0.8509(4) 0.44861(25)
Fe1A Fe 0.50000 0.50000 0.50000
O1A O 0.3116(4) 0.4607(6) 0.44861(25)
C1A C 0.2325(6) 0.3903(8) 0.3857(4)
O1I O -0.1491(4) 0.3116(4) 0.55139(25)
O2I O -0.0127(4) 0.6096(5) 0.6158(3)
O3I O 0.1568(4) 0.5016(4) 0.5741(3)
H1I H 0.118 0.440 0.625
H2I H 0.224 0.500 0.536
C1P C 0.1008(6) 0.2764(8) 0.2810(4)
C2O C 0.2349(6) 0.3066(6) 0.3096(4)
O1K O 0.4607(6) 1.1491(4) 0.55139(25)
O2K O 0.6223(6) 1.0127(4) 0.6158(3)
O3B O 0.6552(6) 1.1568(4) 0.4259(3)
O3K O 0.3448(6) 0.8432(4) 0.5741(3)
C1O C 0.1755(6) 0.8992(6) 0.2810(4)
C2Q C 0.0716(8) 0.7651(6) 0.3096(4)
O2O O 0.3206(4) 0.2763(5) 0.2825(3)
O1P O 0.0217(4) 0.2060(6) 0.21806(25)
O2Q O -0.0444(6) 0.6794(4) 0.2825(3)
O1O O 0.1842(4) 0.9783(4) 0.21806(25)
H1B H 0.678 1.118 0.375
H2B H 0.724 1.224 0.464
H1K H 0.322 0.882 0.625
H2K H 0.276 0.776 0.536
Fe1C Fe 0.33333 0.16667 0.16667
Fe1D Fe -0.16667 0.16667 0.16667
Fe1E Fe -0.16667 0.66667 0.16667
Fe1C_2 Fe 0.33333 1.16667 0.16667
loop_
_geom_bond_atom_site_label_1
_geom_bond_atom_site_label_2
_geom_bond_site_symmetry_1
_geom_bond_site_symmetry_2
Fe1 O1 1_555 1_555
O1 C1 1_555 1_555
O2 Fe1 1_555 1_555
O3 Fe1 1_555 1_555
C1 C2B 1_555 1_555
C2 O2 1_555 1_555
H1 O3 1_555 1_555
H2 O3 1_555 1_555
C2B O2B 1_555 1_555
O2B Fe1B 1_555 1_555
Fe1B O1B 1_555 1_555
Fe1A O1A 1_555 1_555
O1A C1A 1_555 1_555
C1A C2 1_555 1_555
O1I Fe1 1_555 1_555
O2I Fe1 1_555 1_555
O3I Fe1 1_555 1_555
H1I O3I 1_555 1_555
H2I O3I 1_555 1_555
C1P C2 1_555 1_555
C2O C1A 1_555 1_555
O1K Fe1B 1_555 1_555
O2K Fe1B 1_555 1_555
O3B Fe1B 1_555 1_555
O3K Fe1B 1_555 1_555
C1O C2B 1_555 1_555
C2Q C1 1_555 1_555
O2O C2O 1_555 1_555
O1P C1P 1_555 1_555
O2Q C2Q 1_555 1_555
O1O C1O 1_555 1_555
H1B O3B 1_555 1_555
H2B O3B 1_555 1_555
H1K O3K 1_555 1_555
H2K O3K 1_555 1_555
Fe1C O2O 1_555 1_555
Fe1D O1P 1_555 1_555
Fe1E O2Q 1_555 1_555
Fe1C_2 O1O 1_555 1_555
C1P C2O 1_555 1_555
C1O C2Q 1_555 1_555

#END
