
#######################################################################
#
#                 Cambridge Crystallographic Data Centre
#                                CCDC 
#
#######################################################################
#
# If this CIF has been generated from an entry in the Cambridge 
# Structural Database, then it will include bibliographic, chemical, 
# crystal, experimental, refinement or atomic coordinate data resulting 
# from the CCDC's data processing and validation procedures.
#
#######################################################################

data_TIPROZ
_symmetry_cell_setting           cubic
_symmetry_space_group_name_H-M   'P n 3 n'
_symmetry_Int_Tables_number      222
_space_group_name_Hall           '-P 4a 2bc 3'
loop_
_symmetry_equiv_pos_site_id
_symmetry_equiv_pos_as_xyz
1 x,y,z
2 1/2-y,x,z
3 x,1/2-y,1/2-z
4 z,x,y
5 1/2-x,1/2-y,z
6 y,x,1/2-z
7 1/2-x,z,y
8 y,1/2-x,z
9 1/2-x,y,1/2-z
10 1/2-z,1/2-x,y
11 1/2-y,1/2-x,1/2-z
12 x,1/2-z,y
13 z,1/2-x,1/2-y
14 1/2-x,1/2-z,1/2-y
15 1/2-z,x,1/2-y
16 x,z,1/2-y
17 y,z,x
18 -z,1/2+y,-x
19 1/2-z,y,x
20 z,y,1/2-x
21 y,1/2-z,1/2-x
22 1/2-z,1/2-y,1/2-x
23 1/2-y,z,1/2-x
24 1/2-y,1/2-z,x
25 -x,-y,-z
26 1/2+y,-x,-z
27 -x,1/2+y,1/2+z
28 -z,-x,-y
29 1/2+x,1/2+y,-z
30 -y,-x,1/2+z
31 1/2+x,-z,-y
32 -y,1/2+x,-z
33 1/2+x,-y,1/2+z
34 1/2+z,1/2+x,-y
35 1/2+y,1/2+x,1/2+z
36 -x,1/2+z,-y
37 -z,1/2+x,1/2+y
38 1/2+x,1/2+z,1/2+y
39 1/2+z,-x,1/2+y
40 -x,-z,1/2+y
41 -y,-z,-x
42 z,1/2-y,x
43 1/2+z,-y,-x
44 -z,-y,1/2+x
45 -y,1/2+z,1/2+x
46 1/2+z,1/2+y,1/2+x
47 1/2+y,-z,1/2+x
48 1/2+y,1/2+z,-x
_cell_length_a                   16.255(3)
_cell_length_b                   16.255(3)
_cell_length_c                   16.255(3)
_cell_angle_alpha                90
_cell_angle_beta                 90
_cell_angle_gamma                90
_cell_volume                     4294.98
loop_
_atom_site_label
_atom_site_type_symbol
_atom_site_fract_x
_atom_site_fract_y
_atom_site_fract_z
Co1 Co 0.00201(8) 0.00201 0.25000
O1 O 0.1185(4) 0.0140(5) 0.3007(4)
O2 O -0.0035(5) -0.1195(4) 0.3001(4)
O3 O -0.0366(4) 0.0402(4) 0.3631(3)
C1 C 0.1918(4) 0.0165(6) 0.2704(5)
C2 C -0.0009(7) -0.1887(5) 0.2744(6)
H1 H -0.091(5) 0.058(6) 0.374(6)
H2 H 0.001(5) 0.104(7) 0.382(6)
C1R C 0.2296(5) 0.0165(6) 0.1918(4)
O1R O 0.1993(4) 0.0140(5) 0.1185(4)
C1H C 0.3082(4) 0.0165(6) 0.2296(5)
O1H O 0.3815(4) 0.0140(5) 0.1993(4)
C1S C 0.2704(5) 0.0165(6) 0.3082(4)
O1S O 0.3007(4) 0.0140(5) 0.3815(4)
C2IA C 0.0009(7) -0.2256(6) 0.1887(5)
O2IA O 0.0035(5) -0.1999(4) 0.1195(4)
C2B C -0.0009(7) -0.3113(5) 0.2256(6)
O2B O -0.0035(5) -0.3805(4) 0.1999(4)
C2MA C 0.0009(7) -0.2744(6) 0.3113(5)
O2MA O 0.0035(5) -0.3001(4) 0.3805(4)
O1E O 0.0140(5) 0.1185(4) 0.1993(4)
C1E C 0.0165(6) 0.1918(4) 0.2296(5)
C1T C 0.0165(6) 0.2296(5) 0.3082(4)
O1T O 0.0140(5) 0.1993(4) 0.3815(4)
C1G C 0.0165(6) 0.3082(4) 0.2704(5)
O1G O 0.0140(5) 0.3815(4) 0.3007(4)
C1P C 0.0165(6) 0.2704(5) 0.1918(4)
O1P O 0.0140(5) 0.3007(4) 0.1185(4)
O2E O -0.1195(4) -0.0035(5) 0.1999(4)
C2E C -0.1887(5) -0.0009(7) 0.2256(6)
C2LA C -0.2256(6) 0.0009(7) 0.3113(5)
O2LA O -0.1999(4) 0.0035(5) 0.3805(4)
C2A C -0.3113(5) -0.0009(7) 0.2744(6)
O2A O -0.3805(4) -0.0035(5) 0.3001(4)
C2AA C -0.2744(6) 0.0009(7) 0.1887(5)
O2AA O -0.3001(4) 0.0035(5) 0.1195(4)
O3E O 0.0402(4) -0.0366(4) 0.1369(3)
H1E H 0.058(6) -0.091(5) 0.126(6)
H2E H 0.104(7) 0.001(5) 0.118(6)
Co1R Co 0.25000 0.00201 0.00201(8)
Co1H Co 0.49799(8) 0.00201 0.25000
Co1S Co 0.25000 0.00201 0.49799(8)
O3R O 0.1369(3) 0.0402(4) -0.0366(4)
H1R H 0.126(6) 0.058(6) -0.091(5)
H2R H 0.118(6) 0.104(7) 0.001(5)
O3C O 0.3631(3) -0.0366(4) 0.0402(4)
H1C H 0.374(6) -0.091(5) 0.058(6)
H2C H 0.382(6) 0.001(5) 0.104(7)
O3H O 0.5366(4) 0.0402(4) 0.1369(3)
H1H H 0.591(5) 0.058(6) 0.126(6)
H2H H 0.499(5) 0.104(7) 0.118(6)
O3A O 0.4598(4) -0.0366(4) 0.3631(3)
H1A H 0.442(6) -0.091(5) 0.374(6)
H2A H 0.396(7) 0.001(5) 0.382(6)
O3S O 0.3631(3) 0.0402(4) 0.5366(4)
H1S H 0.374(6) 0.058(6) 0.591(5)
H2S H 0.382(6) 0.104(7) 0.499(5)
O3N O 0.1369(3) -0.0366(4) 0.4598(4)
H1N H 0.126(6) -0.091(5) 0.442(6)
H2N H 0.118(6) 0.001(5) 0.396(7)
Co1IA Co -0.00201(8) -0.25000 -0.00201
Co1B Co 0.00201(8) -0.50201 0.25000
Co1MA Co -0.00201(8) -0.25000 0.50201
Co1O Co 0.00201(8) 0.25000 0.49799
Co1B_2 Co 0.00201(8) 0.49799 0.25000
Co1K Co 0.00201(8) 0.25000 0.00201
Co1LA Co -0.25000 -0.00201(8) 0.50201
Co1A Co -0.50201 0.00201(8) 0.25000
Co1AA Co -0.25000 -0.00201(8) -0.00201
O1C O 0.3007(4) 0.1185(4) 0.0140(5)
O2C O 0.3001(4) -0.0035(5) -0.1195(4)
O2R O 0.1999(4) -0.1195(4) -0.0035(5)
O1A O 0.4860(5) 0.1185(4) 0.3007(4)
O2A_2 O 0.6195(4) -0.0035(5) 0.3001(4)
O2H O 0.5035(5) -0.1195(4) 0.1999(4)
O1N O 0.1993(4) 0.1185(4) 0.4860(5)
O2N O 0.1999(4) -0.0035(5) 0.6195(4)
O2S O 0.3001(4) -0.1195(4) 0.5035(5)
O4 O 0.25000 0.25000 0.7094(9)
O4B O 0.25000 0.25000 0.7906(9)
H3? H 0.308 0.300 0.687
loop_
_geom_bond_atom_site_label_1
_geom_bond_atom_site_label_2
_geom_bond_site_symmetry_1
_geom_bond_site_symmetry_2
Co1 O1 1_555 1_555
O1 C1 1_555 1_555
O2 Co1 1_555 1_555
O3 Co1 1_555 1_555
C1 C1R 1_555 1_555
C2 O2 1_555 1_555
H1 O3 1_555 1_555
H2 O3 1_555 1_555
C1R O1R 1_555 1_555
O1R Co1R 1_555 1_555
C1H C1R 1_555 1_555
O1H C1H 1_555 1_555
C1S C1 1_555 1_555
O1S C1S 1_555 1_555
C2IA C2 1_555 1_555
O2IA C2IA 1_555 1_555
C2B C2IA 1_555 1_555
O2B C2B 1_555 1_555
C2MA C2 1_555 1_555
O2MA C2MA 1_555 1_555
O1E Co1 1_555 1_555
C1E O1E 1_555 1_555
C1T C1E 1_555 1_555
O1T C1T 1_555 1_555
C1G C1T 1_555 1_555
O1G C1G 1_555 1_555
C1P C1E 1_555 1_555
O1P C1P 1_555 1_555
O2E Co1 1_555 1_555
C2E O2E 1_555 1_555
C2LA C2E 1_555 1_555
O2LA C2LA 1_555 1_555
C2A C2LA 1_555 1_555
O2A C2A 1_555 1_555
C2AA C2E 1_555 1_555
O2AA C2AA 1_555 1_555
O3E Co1 1_555 1_555
H1E O3E 1_555 1_555
H2E O3E 1_555 1_555
Co1R O3R 1_555 1_555
Co1H O1H 1_555 1_555
Co1S O1S 1_555 1_555
O3R H1R 1_555 1_555
H2R O3R 1_555 1_555
O3C Co1R 1_555 1_555
H1C O3C 1_555 1_555
H2C O3C 1_555 1_555
O3H Co1H 1_555 1_555
H1H O3H 1_555 1_555
H2H O3H 1_555 1_555
O3A Co1H 1_555 1_555
H1A O3A 1_555 1_555
H2A O3A 1_555 1_555
O3S Co1S 1_555 1_555
H1S O3S 1_555 1_555
H2S O3S 1_555 1_555
O3N Co1S 1_555 1_555
H1N O3N 1_555 1_555
H2N O3N 1_555 1_555
Co1IA O2IA 1_555 1_555
Co1B O2B 1_555 1_555
Co1MA O2MA 1_555 1_555
Co1O O1T 1_555 1_555
Co1B_2 O1G 1_555 1_555
Co1K O1P 1_555 1_555
Co1LA O2LA 1_555 1_555
Co1A O2A 1_555 1_555
Co1AA O2AA 1_555 1_555
O1C Co1R 1_555 1_555
O2C Co1R 1_555 1_555
O2R Co1R 1_555 1_555
O1A Co1H 1_555 1_555
O2A_2 Co1H 1_555 1_555
O2H Co1H 1_555 1_555
O1N Co1S 1_555 1_555
O2N Co1S 1_555 1_555
O2S Co1S 1_555 1_555
C1H C1S 1_555 1_555
C2B C2MA 1_555 1_555
C1G C1P 1_555 1_555
C2A C2AA 1_555 1_555

#END
