
#######################################################################
#
#                 Cambridge Crystallographic Data Centre
#                                CCDC 
#
#######################################################################
#
# If this CIF has been generated from an entry in the Cambridge 
# Structural Database, then it will include bibliographic, chemical, 
# crystal, experimental, refinement or atomic coordinate data resulting 
# from the CCDC's data processing and validation procedures.
#
#######################################################################

data_TIPSIU
_symmetry_cell_setting           triclinic
_symmetry_space_group_name_H-M   'P -1'
_symmetry_Int_Tables_number      2
_space_group_name_Hall           '-P 1'
loop_
_symmetry_equiv_pos_site_id
_symmetry_equiv_pos_as_xyz
1 x,y,z
2 -x,-y,-z
_cell_length_a                   13.6907(5)
_cell_length_b                   9.3327(4)
_cell_length_c                   7.0432(3)
_cell_angle_alpha                106.188(3)
_cell_angle_beta                 94.927(3)
_cell_angle_gamma                96.977(2)
_cell_volume                     851.043
loop_
_atom_site_label
_atom_site_type_symbol
_atom_site_fract_x
_atom_site_fract_y
_atom_site_fract_z
Pb1 Pb 0.8999(2) 0.9217(3) 0.1293(5)
Pb2 Pb 1.0662(2) 0.6751(3) 0.4103(4)
P1 P 1.1225(6) 1.1112(11) 0.4165(19)
P2 P 1.0938(6) 0.6853(10) -0.1113(16)
O1 O 1.0611(12) 1.0568(26) 0.2091(22)
O2 O 1.1071(13) 0.9891(21) 0.5245(32)
O3 O 1.0820(11) 1.2424(19) 0.5571(32)
O4 O 1.0330(13) 0.5681(18) -0.2934(24)
O5 O 1.0418(14) 0.7079(22) 0.0763(23)
O6 O 1.1234(11) 0.8351(16) -0.1567(22)
C1 C 1.2528(8) 1.1642(16) 0.3967(34)
C2 C 1.3002(10) 1.3126(15) 0.488(5)
C3 C 1.3036(12) 1.0600(23) 0.276(5)
C4 C 1.4043(10) 1.3417(25) 0.512(5)
C5 C 1.4027(14) 1.1064(29) 0.256(5)
C6 C 1.4556(9) 1.2415(28) 0.385(6)
C7 C 1.2079(7) 0.6157(20) -0.060(4)
C8 C 1.2988(8) 0.6960(34) -0.076(6)
C9 C 1.2078(12) 0.4996(29) 0.030(5)
C10 C 1.3875(8) 0.661(4) 0.001(6)
C11 C 1.2961(13) 0.471(14) 0.119(5)
C12 C 1.3863(11) 0.5395(34) 0.082(5)
O1A O 0.9389(12) 0.9432(26) -0.2091(22)
O2A O 0.8929(13) 1.0109(21) 0.4755(32)
O3A O 0.9180(11) 0.7576(19) 0.4429(32)
O6A O 0.8766(11) 1.1649(16) 0.1567(22)
O4_2 O 1.0330(13) 0.5681(18) 0.7066(24)
O4A O 0.9670(13) 0.4319(18) 0.2934(24)
O6_2 O 1.1234(11) 0.8351(16) 0.8433(22)
Pb1A Pb 1.1001(2) 1.0783(3) -0.1293(5)
Pb1A_2 Pb 1.1001(2) 1.0783(3) 0.8707(5)
Pb2A Pb 0.9338(2) 1.3249(3) 0.5897(4)
Pb2_2 Pb 1.0662(2) 0.6751(3) -0.5897(4)
Pb2A_2 Pb 0.9338(2) 0.3249(3) -0.4103(4)
loop_
_geom_bond_atom_site_label_1
_geom_bond_atom_site_label_2
_geom_bond_site_symmetry_1
_geom_bond_site_symmetry_2
Pb1 O1 1_555 1_555
Pb2 O2 1_555 1_555
P1 O1 1_555 1_555
P2 O4 1_555 1_555
O1 Pb1A 1_555 1_555
O2 P1 1_555 1_555
O3 P1 1_555 1_555
O4 Pb2_2 1_555 1_555
O5 Pb1 1_555 1_555
O6 P2 1_555 1_555
C1 P1 1_555 1_555
C2 C1 1_555 1_555
C3 C1 1_555 1_555
C4 C2 1_555 1_555
C5 C3 1_555 1_555
C6 C4 1_555 1_555
C7 P2 1_555 1_555
C8 C7 1_555 1_555
C9 C7 1_555 1_555
C10 C8 1_555 1_555
C11 C9 1_555 1_555
C12 C10 1_555 1_555
O1A Pb1 1_555 1_555
O2A Pb1 1_555 1_555
O3A Pb1 1_555 1_555
O6A Pb1 1_555 1_555
O4_2 Pb2 1_555 1_555
O4A Pb2 1_555 1_555
O6_2 Pb2 1_555 1_555
Pb1A O6 1_555 1_555
Pb1A_2 O2 1_555 1_555
Pb2A O3 1_555 1_555
Pb2_2 O6 1_555 1_555
Pb2A_2 O4 1_555 1_555
Pb2 O5 1_555 1_555
Pb2 O3A 1_555 1_555
P2 O5 1_555 1_555
O3 Pb1A_2 1_555 1_555
C5 C6 1_555 1_555
C11 C12 1_555 1_555
O1A Pb1A 1_555 1_555
O2A Pb2A 1_555 1_555
O6A Pb2A 1_555 1_555
O6_2 Pb1A_2 1_555 1_555

#END
