
#######################################################################
#
#                 Cambridge Crystallographic Data Centre
#                                CCDC 
#
#######################################################################
#
# If this CIF has been generated from an entry in the Cambridge 
# Structural Database, then it will include bibliographic, chemical, 
# crystal, experimental, refinement or atomic coordinate data resulting 
# from the CCDC's data processing and validation procedures.
#
#######################################################################

data_TIPZOI
_symmetry_cell_setting           monoclinic
_symmetry_space_group_name_H-M   'P 21/c'
_symmetry_Int_Tables_number      14
_space_group_name_Hall           '-P 2ybc'
loop_
_symmetry_equiv_pos_site_id
_symmetry_equiv_pos_as_xyz
1 x,y,z
2 -x,1/2+y,1/2-z
3 -x,-y,-z
4 x,1/2-y,1/2+z
_cell_length_a                   18.433(14)
_cell_length_b                   12.469(10)
_cell_length_c                   19.000(15)
_cell_angle_alpha                90
_cell_angle_beta                 97.69(3)
_cell_angle_gamma                90
_cell_volume                     4327.71
loop_
_atom_site_label
_atom_site_type_symbol
_atom_site_fract_x
_atom_site_fract_y
_atom_site_fract_z
Hg1 Hg 0.243741(13) 0.355173(17) 0.483013(12)
Hg2 Hg 0.005197(14) 0.18349(2) 0.491346(12)
I1 I 0.30684(2) 0.16563(3) 0.46096(2)
I2 I 0.09938(2) 0.40583(3) 0.46843(2)
I3 I 0.08999(2) 0.04480(3) 0.43521(2)
I4 I -0.12565(2) 0.27403(3) 0.46414(2)
N4 N 0.2737(2) 0.4639(3) 0.7056(2)
N5 N 0.2888(3) 0.4149(3) 0.5957(2)
N6 N 0.2936(2) 0.9517(3) 0.8012(2)
N7 N 0.2957(3) 1.0252(3) 0.9084(2)
N8 N -0.0217(2) 0.7279(3) 0.7761(2)
N9 N -0.0390(3) 0.7053(3) 0.8885(2)
C1 C 0.2042(3) 0.6155(4) 0.7500(2)
C2 C 0.2488(3) 0.7060(4) 0.7497(3)
C3 C 0.2168(3) 0.8066(4) 0.7384(2)
C4 C 0.1410(3) 0.8185(4) 0.7295(3)
C5 C 0.0967(3) 0.7270(4) 0.7262(3)
C6 C 0.1285(3) 0.6249(4) 0.7343(3)
C7 C 0.2398(3) 0.5068(4) 0.7658(2)
H1 H 0.2778 0.5134 0.8077
H2 H 0.2024 0.4555 0.7780
C8 C 0.2488(3) 0.4681(4) 0.6359(3)
H3 H 0.2058 0.5063 0.6174
C9 C 0.3450(3) 0.3714(4) 0.6425(3)
C10 C 0.3362(3) 0.4011(4) 0.7126(3)
C11 C 0.3846(3) 0.3675(4) 0.7703(3)
H4 H 0.3785 0.3889 0.8171
C12 C 0.4424(3) 0.3019(4) 0.7581(3)
H5 H 0.4760 0.2766 0.7968
C13 C 0.4510(3) 0.2727(4) 0.6879(3)
H6 H 0.4907 0.2274 0.6804
C14 C 0.4047(3) 0.3070(4) 0.6305(3)
H7 H 0.4124 0.2879 0.5837
C15 C 0.3315(3) 0.6955(4) 0.7597(3)
H8 H 0.3499 0.7101 0.7146
H9 H 0.3452 0.6225 0.7754
H10 H 0.3528 0.7470 0.7956
C16 C 0.2658(3) 0.9037(4) 0.7327(3)
H11 H 0.2378 0.9586 0.7028
H12 H 0.3079 0.8819 0.7086
C17 C 0.2565(3) 0.9754(4) 0.8560(3)
H13 H 0.2064 0.9575 0.8563
C18 C 0.3655(3) 1.0351(4) 0.8867(3)
C19 C 0.3644(3) 0.9917(4) 0.8194(3)
C20 C 0.4256(3) 0.9901(4) 0.7833(3)
H14 H 0.4245 0.9599 0.7373
C21 C 0.4878(3) 1.0359(5) 0.8196(4)
H15 H 0.5312 1.0379 0.7978
C22 C 0.4889(4) 1.0792(5) 0.8874(4)
H16 H 0.5333 1.1092 0.9101
C23 C 0.4292(3) 1.0804(4) 0.9225(3)
H17 H 0.4307 1.1103 0.9687
C24 C 0.1061(3) 0.9283(4) 0.7221(3)
H18 H 0.0868 0.9412 0.6722
H19 H 0.1428 0.9829 0.7382
H20 H 0.0660 0.9319 0.7511
C25 C 0.0142(3) 0.7381(4) 0.7115(3)
H21 H 0.0020 0.8089 0.6895
H22 H -0.0054 0.6822 0.6771
C26 C 0.0090(3) 0.7206(4) 0.8438(3)
H23 H 0.0602 0.7258 0.8583
C27 C -0.1055(3) 0.7020(4) 0.8468(3)
C28 C -0.0970(3) 0.7167(4) 0.7753(3)
C29 C -0.1543(3) 0.7182(4) 0.7213(3)
H24 H -0.1469 0.7301 0.6734
C30 C -0.2229(3) 0.7015(4) 0.7397(3)
H25 H -0.2640 0.7023 0.7038
C31 C -0.2337(3) 0.6832(4) 0.8108(3)
H26 H -0.2817 0.6700 0.8219
C32 C -0.1761(3) 0.6842(4) 0.8639(3)
H27 H -0.1837 0.6730 0.9118
C33 C 0.0800(3) 0.5252(4) 0.7258(3)
H28 H 0.0572 0.5144 0.7689
H29 H 0.1099 0.4625 0.7178
H30 H 0.0419 0.5348 0.6851
Hg1C Hg 0.243741(13) 1.144827(17) 0.983013(12)
Hg2A Hg -0.005197(14) 0.68349(2) 1.008654(12)
N7C N 0.2957(3) 0.4748(3) 0.4084(2)
N9A N 0.0390(3) 0.2053(3) 0.6115(2)
O2 O 0.4612(15) 0.779(3) 0.4491(17)
N1 N 0.3132(7) 0.7999(9) 0.5075(6)
C34 C 0.3355(5) 0.8600(8) 0.5643(5)
H31 H 0.3158 0.9305 0.5631
C36 C 0.2800(5) 0.8407(6) 0.4415(4)
H33 H 0.3072 0.8160 0.4037
H34 H 0.2803 0.9193 0.4431
H35 H 0.2293 0.8151 0.4322
C39 C 0.3890(11) 0.7455(16) 0.4864(11)
H42 H 0.4121 0.7151 0.5314
O1? O 0.3774(4) 0.8378(5) 0.6176(3)
N2? N 0.3369(8) 0.8212(11) 0.4997(7)
N3? N 0.4911(10) 0.9560(16) 0.5080(7)
C35? C 0.3355(5) 0.8600(8) 0.5643(5)
H32? H 0.2980 0.9104 0.5697
C37? C 0.2800(5) 0.8407(6) 0.4415(4)
H36? H 0.2569 0.7726 0.4255
H37? H 0.3011 0.8741 0.4023
H38? H 0.2432 0.8887 0.4572
C38? C 0.3268(8) 0.6890(9) 0.5177(11)
H39? H 0.3697 0.6685 0.4953
H40? H 0.2841 0.6482 0.4963
H41? H 0.3361 0.6735 0.5687
H43? H 0.4263 0.7801 0.4619
H44? H 0.3652 0.6882 0.4564
C40? C 0.4750(10) 0.842(2) 0.5007(13)
H45? H 0.4749 0.8072 0.5452
C41? C 0.4783(6) 0.9719(9) 0.4309(5)
H46? H 0.5246 0.9637 0.4113
H47? H 0.4588 1.0441 0.4204
H48? H 0.4431 0.9186 0.4094
loop_
_geom_bond_atom_site_label_1
_geom_bond_atom_site_label_2
_geom_bond_site_symmetry_1
_geom_bond_site_symmetry_2
Hg1 I1 1_555 1_555
Hg2 I2 1_555 1_555
I2 Hg1 1_555 1_555
I3 Hg2 1_555 1_555
I4 Hg2 1_555 1_555
O2 C39 1_555 1_555
N1 C34 1_555 1_555
N4 C7 1_555 1_555
N5 Hg1 1_555 1_555
N6 C16 1_555 1_555
N7 C17 1_555 1_555
N8 C25 1_555 1_555
N9 C26 1_555 1_555
C1 C2 1_555 1_555
C2 C3 1_555 1_555
C3 C4 1_555 1_555
C4 C5 1_555 1_555
C5 C6 1_555 1_555
C6 C1 1_555 1_555
C7 C1 1_555 1_555
H1 C7 1_555 1_555
H2 C7 1_555 1_555
C8 N4 1_555 1_555
H3 C8 1_555 1_555
C9 N5 1_555 1_555
C10 N4 1_555 1_555
C11 C10 1_555 1_555
H4 C11 1_555 1_555
C12 C11 1_555 1_555
H5 C12 1_555 1_555
C13 C12 1_555 1_555
H6 C13 1_555 1_555
C14 C9 1_555 1_555
H7 C14 1_555 1_555
C15 C2 1_555 1_555
H8 C15 1_555 1_555
H9 C15 1_555 1_555
H10 C15 1_555 1_555
C16 C3 1_555 1_555
H11 C16 1_555 1_555
H12 C16 1_555 1_555
C17 N6 1_555 1_555
H13 C17 1_555 1_555
C18 N7 1_555 1_555
C19 N6 1_555 1_555
C20 C19 1_555 1_555
H14 C20 1_555 1_555
C21 C20 1_555 1_555
H15 C21 1_555 1_555
C22 C21 1_555 1_555
H16 C22 1_555 1_555
C23 C18 1_555 1_555
H17 C23 1_555 1_555
C24 C4 1_555 1_555
H18 C24 1_555 1_555
H19 C24 1_555 1_555
H20 C24 1_555 1_555
C25 C5 1_555 1_555
H21 C25 1_555 1_555
H22 C25 1_555 1_555
C26 N8 1_555 1_555
H23 C26 1_555 1_555
C27 N9 1_555 1_555
C28 N8 1_555 1_555
C29 C28 1_555 1_555
H24 C29 1_555 1_555
C30 C29 1_555 1_555
H25 C30 1_555 1_555
C31 C30 1_555 1_555
H26 C31 1_555 1_555
C32 C27 1_555 1_555
H27 C32 1_555 1_555
C33 C6 1_555 1_555
H28 C33 1_555 1_555
H29 C33 1_555 1_555
H30 C33 1_555 1_555
C34 H31 1_555 1_555
C36 N1 1_555 1_555
H33 C36 1_555 1_555
H34 C36 1_555 1_555
H35 C36 1_555 1_555
C39 N1 1_555 1_555
H42 C39 1_555 1_555
Hg1C N7 1_555 1_555
Hg2A N9 1_555 1_555
N7C Hg1 1_555 1_555
N9A Hg2 1_555 1_555
N5 C8 1_555 1_555
C9 C10 1_555 1_555
C13 C14 1_555 1_555
C18 C19 1_555 1_555
C22 C23 1_555 1_555
C27 C28 1_555 1_555
C31 C32 1_555 1_555

#END
