
#######################################################################
#
#                 Cambridge Crystallographic Data Centre
#                                CCDC 
#
#######################################################################
#
# If this CIF has been generated from an entry in the Cambridge 
# Structural Database, then it will include bibliographic, chemical, 
# crystal, experimental, refinement or atomic coordinate data resulting 
# from the CCDC's data processing and validation procedures.
#
#######################################################################

data_TIQBEB
_symmetry_cell_setting           orthorhombic
_symmetry_space_group_name_H-M   'P 21 21 21'
_symmetry_Int_Tables_number      19
_space_group_name_Hall           'P 2ac 2ab'
loop_
_symmetry_equiv_pos_site_id
_symmetry_equiv_pos_as_xyz
1 x,y,z
2 1/2-x,-y,1/2+z
3 -x,1/2+y,1/2-z
4 1/2+x,1/2-y,-z
_cell_length_a                   14.1530(8)
_cell_length_b                   16.8171(8)
_cell_length_c                   21.3054(12)
_cell_angle_alpha                90
_cell_angle_beta                 90
_cell_angle_gamma                90
_cell_volume                     5070.95
loop_
_atom_site_label
_atom_site_type_symbol
_atom_site_fract_x
_atom_site_fract_y
_atom_site_fract_z
Zn1 Zn 0.97793(4) 0.24150(3) 0.23949(3)
O1 O 0.8730(2) 0.1669(2) 0.2057(2)
H1 H 0.9009(38) 0.1283(23) 0.1915(28)
H2 H 0.8276(29) 0.1855(33) 0.1871(26)
N1 N 1.0562(3) 0.3498(2) 0.2702(2)
C1 C 1.0091(3) 0.4124(3) 0.2336(2)
H3 H 1.0454(3) 0.4626(3) 0.2368(2)
H4 H 0.9449(3) 0.4219(3) 0.2505(2)
C2 C 1.0028(3) 0.3863(3) 0.1651(2)
N2 N 0.9797(3) 0.3099(2) 0.1575(2)
C3 C 0.9721(4) 0.2809(3) 0.0991(2)
H5 H 0.9544(4) 0.2269(3) 0.0934(2)
C4 C 0.9894(4) 0.3272(3) 0.0470(3)
H6 H 0.9844(4) 0.3051(3) 0.0061(3)
C5 C 1.0140(4) 0.4063(3) 0.0548(3)
H7 H 1.0267(4) 0.4390(3) 0.0195(3)
C6 C 1.0200(4) 0.4367(3) 0.1149(3)
H8 H 1.0354(4) 0.4910(3) 0.1217(3)
C7 C 1.0397(3) 0.3594(3) 0.3380(2)
H9 H 1.0408(3) 0.4167(3) 0.3487(2)
H10 H 1.0915(3) 0.3331(3) 0.3614(2)
C8 C 0.9467(3) 0.3244(3) 0.3584(2)
N3 N 0.9073(3) 0.2688(2) 0.3213(2)
C9 C 0.8275(3) 0.2325(3) 0.3407(2)
H11 H 0.7999(3) 0.1932(3) 0.3145(2)
C10 C 0.7845(3) 0.2501(3) 0.3968(2)
H12 H 0.7287(3) 0.2230(3) 0.4094(2)
C11 C 0.8241(4) 0.3077(3) 0.4342(3)
H13 H 0.7957(4) 0.3210(3) 0.4732(3)
C12 C 0.9064(4) 0.3468(3) 0.4148(3)
H14 H 0.9337(4) 0.3877(3) 0.4397(3)
C13 C 1.1584(3) 0.3419(3) 0.2544(2)
H15 H 1.1635(3) 0.3206(3) 0.2112(2)
H16 H 1.1866(3) 0.3020(3) 0.2830(2)
C14 C 1.2170(3) 0.4176(3) 0.2583(2)
C15 C 1.2417(3) 0.4563(3) 0.2038(2)
H17 H 1.2205(3) 0.4358(3) 0.1647(2)
C16 C 1.2968(3) 0.5247(3) 0.2045(2)
H18 H 1.3131(3) 0.5504(3) 0.1663(2)
C17 C 1.3280(3) 0.5554(3) 0.2612(2)
C18 C 1.3028(3) 0.5162(3) 0.3165(2)
H19 H 1.3233(3) 0.5369(3) 0.3557(2)
C19 C 1.2486(3) 0.4480(3) 0.3154(2)
H20 H 1.2329(3) 0.4218(3) 0.3535(2)
O2 O 1.4129(2) 0.6570(2) 0.2107(2)
C20 C 1.3908(3) 0.6271(3) 0.2627(3)
O3 O 1.4159(3) 0.6548(2) 0.3144(2)
Zn2 Zn 1.51223(4) 0.73711(3) 0.21360(3)
O4 O 1.6116(2) 0.6611(2) 0.1754(2)
H21 H 1.6631(24) 0.6656(37) 0.1584(28)
H22 H 1.5853(40) 0.6219(24) 0.1608(29)
N4 N 1.4390(3) -0.1521(2) 0.2476(2)
C21 C 1.4839(4) -0.0909(3) 0.2081(3)
H23 H 1.5500(4) -0.0824(3) 0.2218(3)
H24 H 1.4494(4) -0.0399(3) 0.2124(3)
C22 C 1.4821(3) -0.1181(3) 0.1404(2)
N5 N 1.5032(3) -0.1955(2) 0.1318(2)
C23 C 1.5025(4) -0.2244(3) 0.0735(3)
H25 H 1.5185(4) -0.2787(3) 0.0674(3)
C24 C 1.4796(4) -0.1792(3) 0.0215(3)
H26 H 1.4792(4) -0.2020(3) -0.0193(3)
C25 C 1.4577(4) -0.1008(3) 0.0305(3)
H27 H 1.4413(4) -0.0682(3) -0.0043(3)
C26 C 1.4595(4) -0.0692(3) 0.0905(3)
H28 H 1.4455(4) -0.0146(3) 0.0973(3)
C27 C 1.4646(4) -0.1419(3) 0.3152(3)
H29 H 1.4142(4) -0.1650(3) 0.3417(3)
H30 H 1.4690(4) -0.0845(3) 0.3250(3)
C28 C 1.5568(3) -0.1812(3) 0.3305(3)
N6 N 1.5922(3) -0.2349(2) 0.2906(2)
C29 C 1.6706(3) -0.2751(3) 0.3067(2)
H31 H 1.6948(3) -0.3139(3) 0.2785(2)
C30 C 1.7172(3) -0.2622(3) 0.3627(2)
H32 H 1.7729(3) -0.2911(3) 0.3728(2)
C31 C 1.6812(4) -0.2064(3) 0.4037(3)
H33 H 1.7119(4) -0.1965(3) 0.4425(3)
C32 C 1.6007(4) -0.1653(3) 0.3880(3)
H34 H 1.5752(4) -0.1267(3) 0.4158(3)
C33 C 1.3354(3) -0.1563(3) 0.2377(2)
H35 H 1.3098(3) -0.1983(3) 0.2655(2)
H36 H 1.3238(3) -0.1732(3) 0.1939(2)
C34 C 1.2801(3) -0.0807(3) 0.2495(2)
C35 C 1.2570(3) -0.0545(3) 0.3096(2)
H37 H 1.2783(3) -0.0834(3) 0.3452(2)
C36 C 1.2030(3) 0.0134(3) 0.3176(2)
H38 H 1.1869(3) 0.0300(3) 0.3588(2)
C37 C 1.1719(3) 0.0580(2) 0.2667(2)
C38 C 1.1945(3) 0.0324(2) 0.2067(2)
H39 H 1.1734(3) 0.0614(2) 0.1711(2)
C39 C 1.2479(3) -0.0356(3) 0.1989(2)
H40 H 1.2633(3) -0.0523(3) 0.1576(2)
C40 C 1.1101(3) 0.1290(3) 0.2766(2)
O5 O 1.0765(2) 0.1614(2) 0.2278(2)
O6 O 1.0933(3) 0.1537(2) 0.3315(2)
Zn2_2 Zn 1.51223(4) -0.26289(3) 0.21360(3)
N4_2 N 1.4390(3) 0.8479(2) 0.2476(2)
N5_2 N 1.5032(3) 0.8045(2) 0.1318(2)
N6_2 N 1.5922(3) 0.7651(2) 0.2906(2)
S1 S 0.65579(9) 0.37316(7) -0.00321(6)
O7 O 0.7037(3) 0.3013(2) 0.0142(2)
O8 O 0.6135(2) 0.3709(2) -0.0645(2)
O9 O 0.5991(3) 0.4088(2) 0.0451(2)
C41 C 0.7518(4) 0.4437(3) -0.0139(3)
F1 F 0.7995(3) 0.4551(2) 0.0390(2)
F2 F 0.8136(2) 0.4192(2) -0.0564(2)
F3 F 0.7199(3) 0.5139(2) -0.0325(2)
S2 S 0.33229(9) 0.59017(7) -0.00132(6)
O10 O 0.3894(3) 0.5352(2) -0.0355(2)
O11 O 0.2962(3) 0.6548(2) -0.0378(2)
O12 O 0.3679(3) 0.6124(2) 0.0598(2)
C42 C 0.2277(4) 0.5328(3) 0.0169(3)
F4 F 0.1673(2) 0.5729(2) 0.0538(2)
F5 F 0.1794(3) 0.5124(2) -0.0344(2)
F6 F 0.2490(3) 0.4660(2) 0.0477(2)
O13 O 1.2457(3) 0.1987(2) 0.4040(2)
H41 H 1.1983(32) 0.1828(40) 0.3858(31)
H42 H 1.2288(46) 0.2437(18) 0.4133(32)
O14 O 1.2638(3) 0.7263(3) 0.3691(2)
H43 H 1.2621(49) 0.7511(38) 0.4021(19)
H44 H 1.3090(34) 0.6971(35) 0.3617(34)
O15 O 0.5307(3) 0.5417(2) 0.1124(2)
H45 H 0.4857(35) 0.5639(37) 0.0957(32)
H46 H 0.5534(49) 0.5109(35) 0.0869(27)
O16 O 0.4583(3) 0.4383(2) -0.1306(2)
H47 H 0.5037(32) 0.4182(36) -0.1130(29)
H48 H 0.4344(45) 0.4600(35) -0.1002(21)
loop_
_geom_bond_atom_site_label_1
_geom_bond_atom_site_label_2
_geom_bond_site_symmetry_1
_geom_bond_site_symmetry_2
Zn1 O1 1_555 1_555
O1 H1 1_555 1_555
H2 O1 1_555 1_555
N1 Zn1 1_555 1_555
C1 N1 1_555 1_555
H3 C1 1_555 1_555
H4 C1 1_555 1_555
C2 C1 1_555 1_555
N2 Zn1 1_555 1_555
C3 N2 1_555 1_555
H5 C3 1_555 1_555
C4 C3 1_555 1_555
H6 C4 1_555 1_555
C5 C4 1_555 1_555
H7 C5 1_555 1_555
C6 C2 1_555 1_555
H8 C6 1_555 1_555
C7 N1 1_555 1_555
H9 C7 1_555 1_555
H10 C7 1_555 1_555
C8 C7 1_555 1_555
N3 Zn1 1_555 1_555
C9 N3 1_555 1_555
H11 C9 1_555 1_555
C10 C9 1_555 1_555
H12 C10 1_555 1_555
C11 C10 1_555 1_555
H13 C11 1_555 1_555
C12 C8 1_555 1_555
H14 C12 1_555 1_555
C13 N1 1_555 1_555
H15 C13 1_555 1_555
H16 C13 1_555 1_555
C14 C13 1_555 1_555
C15 C14 1_555 1_555
H17 C15 1_555 1_555
C16 C15 1_555 1_555
H18 C16 1_555 1_555
C17 C16 1_555 1_555
C18 C17 1_555 1_555
H19 C18 1_555 1_555
C19 C14 1_555 1_555
H20 C19 1_555 1_555
O2 C20 1_555 1_555
C20 C17 1_555 1_555
O3 C20 1_555 1_555
Zn2 O2 1_555 1_555
O4 Zn2 1_555 1_555
H21 O4 1_555 1_555
H22 O4 1_555 1_555
N4 C21 1_555 1_555
C21 H23 1_555 1_555
H24 C21 1_555 1_555
C22 C21 1_555 1_555
N5 C22 1_555 1_555
C23 N5 1_555 1_555
H25 C23 1_555 1_555
C24 C23 1_555 1_555
H26 C24 1_555 1_555
C25 C24 1_555 1_555
H27 C25 1_555 1_555
C26 C22 1_555 1_555
H28 C26 1_555 1_555
C27 N4 1_555 1_555
H29 C27 1_555 1_555
H30 C27 1_555 1_555
C28 C27 1_555 1_555
N6 C28 1_555 1_555
C29 N6 1_555 1_555
H31 C29 1_555 1_555
C30 C29 1_555 1_555
H32 C30 1_555 1_555
C31 C30 1_555 1_555
H33 C31 1_555 1_555
C32 C28 1_555 1_555
H34 C32 1_555 1_555
C33 N4 1_555 1_555
H35 C33 1_555 1_555
H36 C33 1_555 1_555
C34 C33 1_555 1_555
C35 C34 1_555 1_555
H37 C35 1_555 1_555
C36 C35 1_555 1_555
H38 C36 1_555 1_555
C37 C36 1_555 1_555
C38 C37 1_555 1_555
H39 C38 1_555 1_555
C39 C34 1_555 1_555
H40 C39 1_555 1_555
C40 C37 1_555 1_555
O5 Zn1 1_555 1_555
O6 C40 1_555 1_555
S1 O7 1_555 1_555
O8 S1 1_555 1_555
O9 S1 1_555 1_555
C41 S1 1_555 1_555
F1 C41 1_555 1_555
F2 C41 1_555 1_555
F3 C41 1_555 1_555
S2 O10 1_555 1_555
O11 S2 1_555 1_555
O12 S2 1_555 1_555
C42 S2 1_555 1_555
F4 C42 1_555 1_555
F5 C42 1_555 1_555
F6 C42 1_555 1_555
O13 H41 1_555 1_555
H42 O13 1_555 1_555
O14 H43 1_555 1_555
H44 O14 1_555 1_555
O15 H45 1_555 1_555
H46 O15 1_555 1_555
O16 H47 1_555 1_555
H48 O16 1_555 1_555
Zn2_2 N4 1_555 1_555
N4_2 Zn2 1_555 1_555
N5_2 Zn2 1_555 1_555
N6_2 Zn2 1_555 1_555
C2 N2 1_555 1_555
C5 C6 1_555 1_555
C8 N3 1_555 1_555
C11 C12 1_555 1_555
C18 C19 1_555 1_555
N5 Zn2_2 1_555 1_555
C25 C26 1_555 1_555
N6 Zn2_2 1_555 1_555
C31 C32 1_555 1_555
C38 C39 1_555 1_555
C40 O5 1_555 1_555

#END
