
#######################################################################
#
#                 Cambridge Crystallographic Data Centre
#                                CCDC 
#
#######################################################################
#
# If this CIF has been generated from an entry in the Cambridge 
# Structural Database, then it will include bibliographic, chemical, 
# crystal, experimental, refinement or atomic coordinate data resulting 
# from the CCDC's data processing and validation procedures.
#
#######################################################################

data_TIQDED
_symmetry_cell_setting           monoclinic
_symmetry_space_group_name_H-M   'C 2/c'
_symmetry_Int_Tables_number      15
_space_group_name_Hall           '-C 2yn'
loop_
_symmetry_equiv_pos_site_id
_symmetry_equiv_pos_as_xyz
1 x,y,z
2 1/2+x,1/2+y,z
3 -x,y,1/2-z
4 1/2-x,1/2+y,1/2-z
5 -x,-y,-z
6 1/2-x,1/2-y,-z
7 x,-y,1/2+z
8 1/2+x,1/2-y,1/2+z
_cell_length_a                   11.2155(2)
_cell_length_b                   9.2942(2)
_cell_length_c                   13.5112(3)
_cell_angle_alpha                90
_cell_angle_beta                 96.5100(10)
_cell_angle_gamma                90
_cell_volume                     1399.31
loop_
_atom_site_label
_atom_site_type_symbol
_atom_site_fract_x
_atom_site_fract_y
_atom_site_fract_z
C1 C 0.08600(19) 0.3025(3) 0.12540(17)
C2 C 0.12249(17) 0.1889(3) 0.05960(16)
C3 C 0.20506(19) 0.0826(3) 0.09636(19)
C4 C 0.2343(3) -0.0302(3) 0.0361(3)
H1 H 0.2868 -0.1020 0.0616
C5 C 0.1846(4) -0.0344(4) -0.0613(3)
H2 H 0.2044 -0.1098 -0.1016
C6 C 0.1057(3) 0.0707(4) -0.1014(2)
H3 H 0.0744 0.0670 -0.1681
C7 C 0.0742(2) 0.1812(3) -0.04100(18)
O1 O 0.00950(19) 0.3955(3) 0.09078(15)
O2 O 0.12829(16) 0.3069(3) 0.21652(14)
O3 O 0.25856(19) 0.0890(3) 0.19177(18)
O4 O -0.0044(2) 0.2823(3) -0.08164(16)
Pb1 Pb 0.0000 0.523936(14) 0.2500
H4 H 0.235(4) 0.171(2) 0.210(3)
H5 H -0.028(4) 0.331(5) -0.034(3)
C1B C -0.08600(19) 0.3025(3) 0.37460(17)
C2B C -0.12249(17) 0.1889(3) 0.44040(16)
C3B C -0.20506(19) 0.0826(3) 0.40364(19)
C4B C -0.2343(3) -0.0302(3) 0.4639(3)
H1B H -0.2868 -0.1020 0.4384
C5B C -0.1846(4) -0.0344(4) 0.5613(3)
H2B H -0.2044 -0.1098 0.6016
C6B C -0.1057(3) 0.0707(4) 0.6014(2)
H3B H -0.0744 0.0670 0.6681
C7B C -0.0742(2) 0.1812(3) 0.54100(18)
O1B O -0.00950(19) 0.3955(3) 0.40922(15)
O2B O -0.12829(16) 0.3069(3) 0.28348(14)
O3B O -0.25856(19) 0.0890(3) 0.30823(18)
O3A O -0.24144(19) 0.5890(3) 0.19177(18)
O3C O 0.24144(19) 0.5890(3) 0.30823(18)
O4B O 0.0044(2) 0.2823(3) 0.58164(16)
O4F O -0.0044(2) 0.7177(3) 0.41836(16)
O4D O 0.0044(2) 0.7177(3) 0.08164(16)
Pb1A Pb 0.5000 0.023936(14) 0.2500
Pb1F Pb 0.0000 0.476064(14) -0.2500
Pb1A_2 Pb -0.5000 0.023936(14) 0.2500
Pb1F_2 Pb 0.0000 0.476064(14) 0.7500
H4B H -0.235(4) 0.171(2) 0.290(3)
H4A H -0.265(4) 0.671(2) 0.210(3)
H4C H 0.265(4) 0.671(2) 0.290(3)
H5B H 0.028(4) 0.331(5) 0.534(3)
H5F H -0.028(4) 0.669(5) 0.466(3)
H5D H 0.028(4) 0.669(5) 0.034(3)
loop_
_geom_bond_atom_site_label_1
_geom_bond_atom_site_label_2
_geom_bond_site_symmetry_1
_geom_bond_site_symmetry_2
C1 C2 1_555 1_555
C2 C3 1_555 1_555
C3 C4 1_555 1_555
C4 H1 1_555 1_555
C5 C4 1_555 1_555
H2 C5 1_555 1_555
C6 C5 1_555 1_555
H3 C6 1_555 1_555
C7 C2 1_555 1_555
O1 C1 1_555 1_555
O2 C1 1_555 1_555
O3 C3 1_555 1_555
O4 C7 1_555 1_555
Pb1 O1 1_555 1_555
H4 O3 1_555 1_555
H5 O4 1_555 1_555
C1B C2B 1_555 1_555
C2B C3B 1_555 1_555
C3B C4B 1_555 1_555
C4B H1B 1_555 1_555
C5B C4B 1_555 1_555
H2B C5B 1_555 1_555
C6B C5B 1_555 1_555
H3B C6B 1_555 1_555
C7B C2B 1_555 1_555
O1B Pb1 1_555 1_555
O2B Pb1 1_555 1_555
O3B C3B 1_555 1_555
O3A Pb1 1_555 1_555
O3C Pb1 1_555 1_555
O4B C7B 1_555 1_555
O4F Pb1 1_555 1_555
O4D Pb1 1_555 1_555
Pb1A O3 1_555 1_555
Pb1F O4 1_555 1_555
Pb1A_2 O3B 1_555 1_555
Pb1F_2 O4B 1_555 1_555
H4B O3B 1_555 1_555
H4A O3A 1_555 1_555
H4C O3C 1_555 1_555
H5B O4B 1_555 1_555
H5F O4F 1_555 1_555
H5D O4D 1_555 1_555
C6 C7 1_555 1_555
O2 Pb1 1_555 1_555
C1B O1B 1_555 1_555
C1B O2B 1_555 1_555
C6B C7B 1_555 1_555

#END
