
#######################################################################
#
#                 Cambridge Crystallographic Data Centre
#                                CCDC 
#
#######################################################################
#
# If this CIF has been generated from an entry in the Cambridge 
# Structural Database, then it will include bibliographic, chemical, 
# crystal, experimental, refinement or atomic coordinate data resulting 
# from the CCDC's data processing and validation procedures.
#
#######################################################################

data_TIQGEG
_symmetry_cell_setting           monoclinic
_symmetry_space_group_name_H-M   'P 21/c'
_symmetry_Int_Tables_number      14
_space_group_name_Hall           '-P 2ybc'
loop_
_symmetry_equiv_pos_site_id
_symmetry_equiv_pos_as_xyz
1 x,y,z
2 -x,1/2+y,1/2-z
3 -x,-y,-z
4 x,1/2-y,1/2+z
_cell_length_a                   14.2604(2)
_cell_length_b                   10.1663(2)
_cell_length_c                   10.5637(2)
_cell_angle_alpha                90
_cell_angle_beta                 91.8030(10)
_cell_angle_gamma                90
_cell_volume                     1530.72
loop_
_atom_site_label
_atom_site_type_symbol
_atom_site_fract_x
_atom_site_fract_y
_atom_site_fract_z
Cu1 Cu 0.5000 1.0000 0.5000
Cu2 Cu 0.5000 1.0000 1.0000
O1 O 0.34366(12) 0.97825(17) 0.53733(18)
O2 O 0.49916(13) 0.98464(19) 0.6868(2)
O3 O 0.41871(12) 1.04445(19) 0.85600(19)
O4 O 0.12464(12) 1.07462(18) 0.76046(18)
O5 O 0.12910(12) 0.97364(17) 0.57099(18)
O6 O 0.13081(12) 0.72740(17) 0.73036(18)
O7 O 0.19016(12) 0.63898(18) 0.55445(19)
O8 O 0.40557(12) 0.63671(18) 0.5359(2)
O9 O 0.48698(12) 0.81212(19) 0.4806(2)
C1 C 0.33297(17) 1.0275(2) 0.6641(3)
H1 H 0.314(2) 1.124(3) 0.651(3)
C2 C 0.25598(16) 0.9422(3) 0.7203(3)
H2 H 0.261(2) 0.935(3) 0.807(3)
C3 C 0.27628(17) 0.8077(2) 0.6615(3)
H3 H 0.318(2) 0.763(3) 0.711(3)
C4 C 0.32423(17) 0.8382(2) 0.5369(3)
H4 H 0.281(2) 0.825(3) 0.461(3)
C5 C 0.42552(18) 1.0178(2) 0.7410(3)
C6 C 0.16057(17) 1.0004(2) 0.6799(3)
C7 C 0.19122(16) 0.7175(2) 0.6469(3)
C8 C 0.41338(17) 0.7563(3) 0.5175(3)
Cu3 Cu -0.00098(2) 1.15424(3) 0.76357(3)
Cu4 Cu 0.10132(2) 0.49776(3) 0.52568(3)
O10 O 0.00609(12) 1.11633(18) 0.94746(19)
O11 O 0.20379(13) 0.3706(2) 0.5056(2)
Cl1 Cl -0.07375(4) 0.89960(6) 0.73544(7)
H5 H 0.204(2) 0.337(3) 0.4267(19)
H6 H 0.2612(15) 0.386(3) 0.540(3)
H7 H 0.004(2) 1.169(4) 0.981(4)
O12 O -0.01864(12) 1.16662(18) 0.58118(19)
H8 H -0.065(2) 1.181(3) 0.580(4)
Cu5 Cu 0.0000 1.0000 0.5000
O14 O 0.38408(15) 1.1355(2) 1.1036(2)
H11 H 0.379(3) 1.125(3) 1.1956(19)
H12 H 0.423(3) 1.215(3) 1.099(4)
Cu2C Cu 0.5000 0.5000 0.5000
Cu2_2 Cu 0.5000 1.0000 0.0000
Cu2C_2 Cu 0.5000 1.5000 0.5000
O1B O 0.65634(12) 1.02175(17) 0.46267(18)
O2B O 0.50084(13) 1.01536(19) 0.3132(2)
O3B O 0.58129(12) 0.95555(19) 0.14400(19)
O3B_2 O 0.58129(12) 0.95555(19) 1.14400(19)
O4B O 0.87536(12) 0.92538(18) 0.23954(18)
O5B O 0.87090(12) 1.02636(17) 0.42901(18)
O5B_2 O -0.12910(12) 1.02636(17) 0.42901(18)
O6B O 0.86919(12) 1.27260(17) 0.26964(18)
O6A O -0.13081(12) 1.22740(17) 0.76964(18)
O6C O 1.13081(12) 0.77260(17) 0.23036(18)
O7B O 0.80984(12) 1.36102(18) 0.44555(19)
O8B O 0.59443(12) 1.36329(18) 0.4641(2)
O8C O 0.40557(12) 0.86329(18) 1.0359(2)
O8A O 0.59443(12) 1.13671(18) 0.9641(2)
O9B O 0.51302(12) 1.18788(19) 0.5194(2)
C1B C 0.66703(17) 0.9725(2) 0.3359(3)
H1B H 0.686(2) 0.876(3) 0.349(3)
C2B C 0.74402(16) 1.0578(3) 0.2797(3)
H2B H 0.739(2) 1.065(3) 0.193(3)
C3B C 0.72372(17) 1.1923(2) 0.3385(3)
H3B H 0.682(2) 1.237(3) 0.289(3)
C4B C 0.67577(17) 1.1618(2) 0.4631(3)
H4B H 0.719(2) 1.175(3) 0.539(3)
C5B C 0.57448(18) 0.9822(2) 0.2590(3)
C6B C 0.83943(17) 0.9996(2) 0.3201(3)
C7B C 0.80878(16) 1.2825(2) 0.3531(3)
C8B C 0.58662(17) 1.2437(3) 0.4825(3)
Cu3B Cu 1.00098(2) 0.84576(3) 0.23643(3)
Cu3A Cu 0.00098(2) 0.65424(3) 0.73643(3)
Cu3C Cu 0.99902(2) 1.34576(3) 0.26357(3)
Cu3A_2 Cu 0.00098(2) 1.65424(3) 0.73643(3)
Cu3C_2 Cu -0.00098(2) 0.34576(3) 0.26357(3)
Cu3B_2 Cu 0.00098(2) 0.84576(3) 0.23643(3)
Cu4B Cu 0.89868(2) 1.50224(3) 0.47432(3)
Cu4C Cu 0.10132(2) 1.00224(3) 1.02568(3)
Cu4A Cu -0.10132(2) 0.99776(3) 0.97432(3)
Cu4_2 Cu 0.10132(2) 1.49776(3) 0.52568(3)
Cu4B_2 Cu -0.10132(2) 0.50224(3) 0.47432(3)
O10C O 0.00609(12) 0.38367(18) 0.44746(19)
O10A O -0.00609(12) 0.61633(18) 0.55254(19)
O10B O 0.99391(12) 0.88367(18) 0.05254(19)
O10C_2 O 1.00609(12) 1.38367(18) 0.44746(19)
O10A_2 O 0.99391(12) 1.61633(18) 0.55254(19)
O11B O 0.79621(13) 1.6294(2) 0.4944(2)
Cl1A Cl 0.07375(4) 1.39960(6) 0.76456(7)
Cl1A_2 Cl 0.07375(4) 0.39960(6) 0.76456(7)
Cl1C Cl 0.92625(4) 0.60040(6) 0.23544(7)
Cl1B Cl 1.07375(4) 1.10040(6) 0.26456(7)
Cl1C_2 Cl 0.92625(4) 1.60040(6) 0.23544(7)
H5B H 0.796(2) 1.663(3) 0.5733(19)
H6B H 0.7388(15) 1.614(3) 0.460(3)
H7C H 0.004(2) 0.331(4) 0.481(4)
H7A H -0.004(2) 0.669(4) 0.519(4)
H7B H 0.996(2) 0.831(4) 0.019(4)
H7C_2 H 1.004(2) 1.331(4) 0.481(4)
H7A_2 H 0.996(2) 1.669(4) 0.519(4)
O12B O 0.01864(12) 0.83338(18) 0.41882(19)
O12B_2 O 1.01864(12) 0.83338(18) 0.41882(19)
H8B H 0.065(2) 0.819(3) 0.420(4)
H8B_2 H 1.065(2) 0.819(3) 0.420(4)
Cu5_2 Cu 1.0000 1.0000 0.5000
O14B O 0.61592(15) 0.8645(2) 0.8964(2)
H11B H 0.621(3) 0.875(3) 0.8044(19)
H12B H 0.577(3) 0.785(3) 0.901(4)
O13 O 0.28269(17) 0.1641(3) 0.3341(3)
H9 H 0.3081(19) 0.139(3) 0.242(2)
H10 H 0.2201(13) 0.134(3) 0.311(3)
loop_
_geom_bond_atom_site_label_1
_geom_bond_atom_site_label_2
_geom_bond_site_symmetry_1
_geom_bond_site_symmetry_2
Cu1 O1 1_555 1_555
Cu2 O3 1_555 1_555
O1 C1 1_555 1_555
O2 Cu1 1_555 1_555
O3 C5 1_555 1_555
O4 C6 1_555 1_555
O5 C6 1_555 1_555
O6 C7 1_555 1_555
O7 C7 1_555 1_555
O8 C8 1_555 1_555
O9 Cu1 1_555 1_555
C1 H1 1_555 1_555
C2 C1 1_555 1_555
H2 C2 1_555 1_555
C3 C2 1_555 1_555
H3 C3 1_555 1_555
C4 O1 1_555 1_555
H4 C4 1_555 1_555
C5 O2 1_555 1_555
C6 C2 1_555 1_555
C7 C3 1_555 1_555
C8 O9 1_555 1_555
Cu3 O4 1_555 1_555
Cu4 O7 1_555 1_555
O10 Cu3 1_555 1_555
O11 Cu4 1_555 1_555
Cl1 Cu3 1_555 1_555
H5 O11 1_555 1_555
H6 O11 1_555 1_555
H7 O10 1_555 1_555
O12 Cu3 1_555 1_555
H8 O12 1_555 1_555
Cu5 O5 1_555 1_555
O13 H9 1_555 1_555
H10 O13 1_555 1_555
O14 Cu2 1_555 1_555
H11 O14 1_555 1_555
H12 O14 1_555 1_555
Cu2C O8 1_555 1_555
Cu2_2 O3B 1_555 1_555
Cu2C_2 O8B 1_555 1_555
O1B Cu1 1_555 1_555
O2B Cu1 1_555 1_555
O3B C5B 1_555 1_555
O3B_2 Cu2 1_555 1_555
O4B C6B 1_555 1_555
O5B C6B 1_555 1_555
O5B_2 Cu5 1_555 1_555
O6B C7B 1_555 1_555
O6A Cu3 1_555 1_555
O6C Cu3B 1_555 1_555
O7B C7B 1_555 1_555
O8B C8B 1_555 1_555
O8C Cu2 1_555 1_555
O8A Cu2 1_555 1_555
O9B Cu1 1_555 1_555
C1B O1B 1_555 1_555
H1B C1B 1_555 1_555
C2B C1B 1_555 1_555
H2B C2B 1_555 1_555
C3B C2B 1_555 1_555
H3B C3B 1_555 1_555
C4B O1B 1_555 1_555
H4B C4B 1_555 1_555
C5B O2B 1_555 1_555
C6B C2B 1_555 1_555
C7B C3B 1_555 1_555
C8B O9B 1_555 1_555
Cu3B O4B 1_555 1_555
Cu3A O6 1_555 1_555
Cu3C O6B 1_555 1_555
Cu3A_2 Cl1A 1_555 1_555
Cu3C_2 O10C 1_555 1_555
Cu3B_2 O12B 1_555 1_555
Cu4B O7B 1_555 1_555
Cu4C O10 1_555 1_555
Cu4A O10 1_555 1_555
Cu4_2 Cl1A 1_555 1_555
Cu4B_2 O10C 1_555 1_555
O10C Cu4 1_555 1_555
O10A Cu4 1_555 1_555
O10B Cu3B 1_555 1_555
O10C_2 Cu3C 1_555 1_555
O10A_2 Cu4B 1_555 1_555
O11B Cu4B 1_555 1_555
Cl1A Cu3 1_555 1_555
Cl1A_2 Cu4 1_555 1_555
Cl1C Cu3B 1_555 1_555
Cl1B Cu3B 1_555 1_555
Cl1C_2 Cu3C 1_555 1_555
H5B O11B 1_555 1_555
H6B O11B 1_555 1_555
H7C O10C 1_555 1_555
H7A O10A 1_555 1_555
H7B O10B 1_555 1_555
H7C_2 O10C_2 1_555 1_555
H7A_2 O10A_2 1_555 1_555
O12B Cu5 1_555 1_555
O12B_2 Cu3B 1_555 1_555
H8B O12B 1_555 1_555
H8B_2 O12B_2 1_555 1_555
Cu5_2 O5B 1_555 1_555
O14B Cu2 1_555 1_555
H11B O14B 1_555 1_555
H12B O14B 1_555 1_555
C1 C5 1_555 1_555
C3 C4 1_555 1_555
C4 C8 1_555 1_555
Cl1 Cu3A 1_555 1_555
Cl1 Cu4A 1_555 1_555
O12 Cu5 1_555 1_555
C1B C5B 1_555 1_555
C3B C4B 1_555 1_555
C4B C8B 1_555 1_555
Cu3A O10A 1_555 1_555
Cu3A Cl1A_2 1_555 1_555
Cu3C Cl1B 1_555 1_555
Cu4B O10C_2 1_555 1_555
Cu4B Cl1C_2 1_555 1_555
Cu4B_2 O10A 1_555 1_555
O12B_2 Cu5_2 1_555 1_555

#END
