
#######################################################################
#
#                 Cambridge Crystallographic Data Centre
#                                CCDC 
#
#######################################################################
#
# If this CIF has been generated from an entry in the Cambridge 
# Structural Database, then it will include bibliographic, chemical, 
# crystal, experimental, refinement or atomic coordinate data resulting 
# from the CCDC's data processing and validation procedures.
#
#######################################################################

data_TIQGAC
_symmetry_cell_setting           monoclinic
_symmetry_space_group_name_H-M   'C 2/c'
_symmetry_Int_Tables_number      15
_space_group_name_Hall           '-C 2yn'
loop_
_symmetry_equiv_pos_site_id
_symmetry_equiv_pos_as_xyz
1 x,y,z
2 1/2+x,1/2+y,z
3 -x,y,1/2-z
4 1/2-x,1/2+y,1/2-z
5 -x,-y,-z
6 1/2-x,1/2-y,-z
7 x,-y,1/2+z
8 1/2+x,1/2-y,1/2+z
_cell_length_a                   21.4829(10)
_cell_length_b                   4.6185(2)
_cell_length_c                   8.8453(4)
_cell_angle_alpha                90
_cell_angle_beta                 100.3620(10)
_cell_angle_gamma                90
_cell_volume                     863.307
loop_
_atom_site_label
_atom_site_type_symbol
_atom_site_fract_x
_atom_site_fract_y
_atom_site_fract_z
Pb1 Pb 0.194281(11) 0.01333(5) 0.35207(3)
S1 S 0.10057(9) -0.4233(3) 0.55432(19)
F1 F 0.25172(19) 0.0413(9) 0.1246(4)
O1 O 0.1500(3) -0.6410(11) 0.5823(6)
O2 O 0.1034(3) -0.2486(12) 0.4169(6)
O3 O 0.0987(3) -0.2456(11) 0.6886(6)
C1 C 0.0281(4) -0.6085(16) 0.5152(8)
H1 H 0.0271 -0.7338 0.4240
H2 H 0.0238 -0.7338 0.6036
Pb1F Pb 0.194281(11) -0.01333(5) 0.85207(3)
Pb1F_2 Pb 0.194281(11) -0.01333(5) -0.14793(3)
Pb1C Pb 0.305719(11) 0.51333(5) 0.14793(3)
Pb1D Pb -0.194281(11) -1.01333(5) 0.64793(3)
Pb1B Pb -0.194281(11) -0.98667(5) 0.14793(3)
Pb1E Pb 0.305719(11) -0.51333(5) 0.64793(3)
S1D S -0.10057(9) -0.5767(3) 0.44568(19)
F1F F 0.25172(19) -0.0413(9) 0.6246(4)
F1C F 0.24828(19) -0.4587(9) 0.3754(4)
F1_2 F 0.25172(19) 0.0413(9) 1.1246(4)
F1E F 0.24828(19) 0.4587(9) 0.8754(4)
O1D O -0.1500(3) -0.3590(11) 0.4177(6)
O2D O -0.1034(3) -0.7514(12) 0.5831(6)
O2F O 0.1034(3) 0.2486(12) 0.9169(6)
O3D O -0.0987(3) -0.7544(11) 0.3114(6)
O3F O 0.0987(3) 0.2456(11) 0.1886(6)
C1D C -0.0281(4) -0.3915(16) 0.4848(8)
H1D H -0.0271 -0.2662 0.5760
H2D H -0.0238 -0.2662 0.3964
loop_
_geom_bond_atom_site_label_1
_geom_bond_atom_site_label_2
_geom_bond_site_symmetry_1
_geom_bond_site_symmetry_2
Pb1 F1 1_555 1_555
S1 O1 1_555 1_555
F1 Pb1F_2 1_555 1_555
O2 Pb1 1_555 1_555
O3 S1 1_555 1_555
C1 S1 1_555 1_555
H1 C1 1_555 1_555
H2 C1 1_555 1_555
Pb1F O3 1_555 1_555
Pb1C F1 1_555 1_555
Pb1D O2D 1_555 1_555
Pb1B O3D 1_555 1_555
Pb1E F1F 1_555 1_555
S1D O1D 1_555 1_555
F1F Pb1 1_555 1_555
F1C Pb1 1_555 1_555
F1_2 Pb1F 1_555 1_555
F1E Pb1F 1_555 1_555
O2D S1D 1_555 1_555
O2F Pb1F 1_555 1_555
O3D S1D 1_555 1_555
O3F Pb1 1_555 1_555
C1D C1 1_555 1_555
H1D C1D 1_555 1_555
H2D C1D 1_555 1_555
S1 O2 1_555 1_555
Pb1F F1F 1_555 1_555
Pb1E F1C 1_555 1_555
S1D C1D 1_555 1_555

#END
