
#######################################################################
#
#                 Cambridge Crystallographic Data Centre
#                                CCDC 
#
#######################################################################
#
# If this CIF has been generated from an entry in the Cambridge 
# Structural Database, then it will include bibliographic, chemical, 
# crystal, experimental, refinement or atomic coordinate data resulting 
# from the CCDC's data processing and validation procedures.
#
#######################################################################

data_TIQGEG01
_symmetry_cell_setting           monoclinic
_symmetry_space_group_name_H-M   'P 21/c'
_symmetry_Int_Tables_number      14
_space_group_name_Hall           '-P 2ybc'
loop_
_symmetry_equiv_pos_site_id
_symmetry_equiv_pos_as_xyz
1 x,y,z
2 -x,1/2+y,1/2-z
3 -x,-y,-z
4 x,1/2-y,1/2+z
_cell_length_a                   14.2238(3)
_cell_length_b                   10.1417(2)
_cell_length_c                   10.5474(3)
_cell_angle_alpha                90
_cell_angle_beta                 91.7950(10)
_cell_angle_gamma                90
_cell_volume                     1520.75
loop_
_atom_site_label
_atom_site_type_symbol
_atom_site_fract_x
_atom_site_fract_y
_atom_site_fract_z
Cu1 Cu 0.5000 0.0000 0.5000
Cu2 Cu 0.0000 0.0000 0.5000
Cu3 Cu -0.00095(2) 0.15424(3) 0.76354(2)
Cu4 Cu 0.10132(2) -0.50226(3) 0.52585(3)
Cu5 Cu 0.5000 0.0000 1.0000
Cl1 Cl 0.07395(4) 0.39967(6) 0.76468(5)
O1 O 0.34351(12) -0.02191(16) 0.53734(15)
O2 O 0.49896(13) -0.01526(18) 0.68695(17)
O3 O 0.41871(12) 0.04484(19) 0.85615(15)
O4 O 0.12478(12) 0.07504(17) 0.76045(15)
O5 O 0.12906(12) -0.02680(17) 0.57129(15)
O6 O 0.13090(12) -0.27266(17) 0.73046(15)
O7 O 0.19025(12) -0.36114(17) 0.55479(16)
O8 O 0.40551(13) -0.36352(18) 0.53572(17)
O9 O 0.48727(13) -0.18787(19) 0.48080(17)
O10 O -0.01860(13) 0.16676(18) 0.58132(16)
H1 H -0.064(2) 0.177(3) 0.575(3)
O11 O 0.00597(12) 0.11599(18) 0.94756(15)
H2 H 0.003(2) 0.177(4) 0.983(3)
O12 O 0.20363(13) -0.62959(19) 0.50547(17)
H3 H 0.2041(19) -0.670(3) 0.4279(19)
H4 H 0.2627(14) -0.617(3) 0.536(2)
O13 O 0.61549(15) -0.1361(2) 0.89621(19)
C1 C 0.33304(17) 0.0279(3) 0.6642(2)
H5 H 0.316(2) 0.122(3) 0.655(3)
C2 C 0.25601(17) -0.0574(2) 0.7201(2)
H6 H 0.260(2) -0.065(3) 0.801(3)
C3 C 0.27625(17) -0.1926(2) 0.6619(2)
H7 H 0.320(2) -0.237(3) 0.713(3)
C4 C 0.32430(17) -0.1618(2) 0.5370(2)
H8 H 0.282(2) -0.180(3) 0.462(3)
C5 C 0.42581(18) 0.0182(2) 0.7409(2)
C6 C 0.16090(18) 0.0004(2) 0.6804(2)
C7 C 0.19116(17) -0.2822(2) 0.6472(2)
C8 C 0.41376(18) -0.2436(3) 0.5177(2)
Cu2_2 Cu 1.0000 0.0000 0.5000
Cu3B Cu 1.00095(2) -0.15424(3) 0.23646(2)
Cu3A Cu 0.00095(2) 0.65424(3) 0.73646(2)
Cu3A_2 Cu 0.00095(2) -0.34576(3) 0.73646(2)
Cu3C Cu 0.99905(2) 0.34576(3) 0.26354(2)
Cu3B_2 Cu 0.00095(2) -0.15424(3) 0.23646(2)
Cu3C_2 Cu -0.00095(2) -0.65424(3) 0.26354(2)
Cu4B Cu 0.89868(2) 0.50226(3) 0.47415(3)
Cu4_2 Cu 0.10132(2) 0.49774(3) 0.52585(3)
Cu4C Cu 0.10132(2) 0.00226(3) 1.02585(3)
Cu4A Cu -0.10132(2) -0.00226(3) 0.97415(3)
Cu4B_2 Cu -0.10132(2) -0.49774(3) 0.47415(3)
Cu5C Cu 0.5000 -0.5000 0.5000
Cu5_2 Cu 0.5000 0.0000 0.0000
Cu5C_2 Cu 0.5000 0.5000 0.5000
Cl1A Cl -0.07395(4) -0.10033(6) 0.73532(5)
Cl1_2 Cl 0.07395(4) -0.60033(6) 0.76468(5)
Cl1C Cl 1.07395(4) 0.10033(6) 0.26468(5)
Cl1B Cl 0.92605(4) -0.39967(6) 0.23532(5)
Cl1B_2 Cl 0.92605(4) 0.60033(6) 0.23532(5)
O1B O 0.65649(12) 0.02191(16) 0.46266(15)
O2B O 0.50104(13) 0.01526(18) 0.31305(17)
O3B O 0.58129(12) -0.04484(19) 0.14385(15)
O3B_2 O 0.58129(12) -0.04484(19) 1.14385(15)
O4B O 0.87522(12) -0.07504(17) 0.23955(15)
O5B O 0.87094(12) 0.02680(17) 0.42871(15)
O5B_2 O -0.12906(12) 0.02680(17) 0.42871(15)
O6B O 0.86910(12) 0.27266(17) 0.26954(15)
O6A O -0.13090(12) 0.22734(17) 0.76954(15)
O6C O 1.13090(12) -0.22734(17) 0.23046(15)
O7B O 0.80975(12) 0.36114(17) 0.44521(16)
O8B O 0.59449(13) 0.36352(18) 0.46428(17)
O8C O 0.40551(13) -0.13648(18) 1.03572(17)
O8A O 0.59449(13) 0.13648(18) 0.96428(17)
O9B O 0.51273(13) 0.18787(19) 0.51920(17)
O10B O 0.01860(13) -0.16676(18) 0.41868(16)
O10B_2 O 1.01860(13) -0.16676(18) 0.41868(16)
H1B H 0.064(2) -0.177(3) 0.425(3)
H1B_2 H 1.064(2) -0.177(3) 0.425(3)
O11C O 0.00597(12) -0.61599(18) 0.44756(15)
O11A O -0.00597(12) -0.38401(18) 0.55244(15)
O11B O 0.99403(12) -0.11599(18) 0.05244(15)
O11C_2 O 1.00597(12) 0.38401(18) 0.44756(15)
O11A_2 O 0.99403(12) 0.61599(18) 0.55244(15)
H2C H 0.003(2) -0.677(4) 0.483(3)
H2A H -0.003(2) -0.323(4) 0.517(3)
H2B H 0.997(2) -0.177(4) 0.017(3)
H2C_2 H 1.003(2) 0.323(4) 0.483(3)
H2A_2 H 0.997(2) 0.677(4) 0.517(3)
O12B O 0.79637(13) 0.62959(19) 0.49453(17)
H3B H 0.7959(19) 0.670(3) 0.5721(19)
H4B H 0.7373(14) 0.617(3) 0.464(2)
O13B O 0.38451(15) 0.1361(2) 1.10379(19)
C1B C 0.66696(17) -0.0279(3) 0.3358(2)
H5B H 0.684(2) -0.122(3) 0.345(3)
C2B C 0.74399(17) 0.0574(2) 0.2799(2)
H6B H 0.740(2) 0.065(3) 0.199(3)
C3B C 0.72375(17) 0.1926(2) 0.3381(2)
H7B H 0.680(2) 0.237(3) 0.287(3)
C4B C 0.67570(17) 0.1618(2) 0.4630(2)
H8B H 0.718(2) 0.180(3) 0.538(3)
C5B C 0.57419(18) -0.0182(2) 0.2591(2)
C6B C 0.83910(18) -0.0004(2) 0.3196(2)
C7B C 0.80884(17) 0.2822(2) 0.3528(2)
C8B C 0.58624(18) 0.2436(3) 0.4823(2)
O14 O 0.71685(18) -0.3360(3) 0.1661(2)
H9 H 0.6902(17) -0.363(3) 0.260(2)
H10 H 0.7807(12) -0.356(3) 0.190(2)
loop_
_geom_bond_atom_site_label_1
_geom_bond_atom_site_label_2
_geom_bond_site_symmetry_1
_geom_bond_site_symmetry_2
Cu1 O1 1_555 1_555
Cu2 O5 1_555 1_555
Cu3 Cl1 1_555 1_555
Cu4 O7 1_555 1_555
Cu5 O3 1_555 1_555
Cl1 Cu3A 1_555 1_555
O1 C1 1_555 1_555
O2 Cu1 1_555 1_555
O3 C5 1_555 1_555
O4 Cu3 1_555 1_555
O5 C6 1_555 1_555
O6 C7 1_555 1_555
O7 C7 1_555 1_555
O8 C8 1_555 1_555
O9 Cu1 1_555 1_555
O10 Cu2 1_555 1_555
H1 O10 1_555 1_555
O11 Cu3 1_555 1_555
H2 O11 1_555 1_555
O12 Cu4 1_555 1_555
H3 O12 1_555 1_555
H4 O12 1_555 1_555
O13 Cu5 1_555 1_555
C1 H5 1_555 1_555
C2 C1 1_555 1_555
H6 C2 1_555 1_555
C3 C2 1_555 1_555
H7 C3 1_555 1_555
C4 O1 1_555 1_555
H8 C4 1_555 1_555
C5 O2 1_555 1_555
C6 O4 1_555 1_555
C7 C3 1_555 1_555
C8 O9 1_555 1_555
O14 H9 1_555 1_555
H10 O14 1_555 1_555
Cu2_2 O5B 1_555 1_555
Cu3B Cl1C 1_555 1_555
Cu3A_2 O6 1_555 1_555
Cu3C Cl1C 1_555 1_555
Cu3B_2 O10B 1_555 1_555
Cu3C_2 O11C 1_555 1_555
Cu4B Cl1B_2 1_555 1_555
Cu4_2 Cl1 1_555 1_555
Cu4C O11 1_555 1_555
Cu4A O11 1_555 1_555
Cu4B_2 O11C 1_555 1_555
Cu5C O8 1_555 1_555
Cu5_2 O3B 1_555 1_555
Cu5C_2 O8B 1_555 1_555
Cl1A Cu3 1_555 1_555
Cl1_2 Cu4 1_555 1_555
Cl1B Cu3B 1_555 1_555
Cl1B_2 Cu3C 1_555 1_555
O1B Cu1 1_555 1_555
O2B Cu1 1_555 1_555
O3B C5B 1_555 1_555
O3B_2 Cu5 1_555 1_555
O4B Cu3B 1_555 1_555
O5B C6B 1_555 1_555
O5B_2 Cu2 1_555 1_555
O6B Cu3C 1_555 1_555
O6A Cu3 1_555 1_555
O6C Cu3B 1_555 1_555
O7B Cu4B 1_555 1_555
O8B C8B 1_555 1_555
O8C Cu5 1_555 1_555
O8A Cu5 1_555 1_555
O9B Cu1 1_555 1_555
O10B Cu2 1_555 1_555
O10B_2 Cu2_2 1_555 1_555
H1B O10B 1_555 1_555
H1B_2 O10B_2 1_555 1_555
O11C Cu4 1_555 1_555
O11A Cu4 1_555 1_555
O11B Cu3B 1_555 1_555
O11C_2 Cu3C 1_555 1_555
O11A_2 Cu4B 1_555 1_555
H2C O11C 1_555 1_555
H2A O11A 1_555 1_555
H2B O11B 1_555 1_555
H2C_2 O11C_2 1_555 1_555
H2A_2 O11A_2 1_555 1_555
O12B Cu4B 1_555 1_555
H3B O12B 1_555 1_555
H4B O12B 1_555 1_555
O13B Cu5 1_555 1_555
C1B O1B 1_555 1_555
H5B C1B 1_555 1_555
C2B C1B 1_555 1_555
H6B C2B 1_555 1_555
C3B C2B 1_555 1_555
H7B C3B 1_555 1_555
C4B O1B 1_555 1_555
H8B C4B 1_555 1_555
C5B O2B 1_555 1_555
C6B O4B 1_555 1_555
C7B O6B 1_555 1_555
C8B O9B 1_555 1_555
Cu3 O10 1_555 1_555
C1 C5 1_555 1_555
C2 C6 1_555 1_555
C3 C4 1_555 1_555
C4 C8 1_555 1_555
Cu3B O10B_2 1_555 1_555
Cu3A_2 Cl1A 1_555 1_555
Cu3A_2 Cl1_2 1_555 1_555
Cu3A_2 O11A 1_555 1_555
Cu4B O11C_2 1_555 1_555
Cu4A Cl1A 1_555 1_555
Cu4B_2 O11A 1_555 1_555
O7B C7B 1_555 1_555
C1B C5B 1_555 1_555
C2B C6B 1_555 1_555
C3B C4B 1_555 1_555
C3B C7B 1_555 1_555
C4B C8B 1_555 1_555

#END
