
#######################################################################
#
#                 Cambridge Crystallographic Data Centre
#                                CCDC 
#
#######################################################################
#
# If this CIF has been generated from an entry in the Cambridge 
# Structural Database, then it will include bibliographic, chemical, 
# crystal, experimental, refinement or atomic coordinate data resulting 
# from the CCDC's data processing and validation procedures.
#
#######################################################################

data_TIQZUP01
_symmetry_cell_setting           monoclinic
_symmetry_space_group_name_H-M   'C 2/c'
_symmetry_Int_Tables_number      15
_space_group_name_Hall           '-C 2yn'
loop_
_symmetry_equiv_pos_site_id
_symmetry_equiv_pos_as_xyz
1 x,y,z
2 -x,y,1/2-z
3 1/2+x,1/2+y,z
4 1/2-x,1/2+y,1/2-z
5 -x,-y,-z
6 x,-y,1/2+z
7 1/2-x,1/2-y,-z
8 1/2+x,1/2-y,1/2+z
_cell_length_a                   13.0312(4)
_cell_length_b                   9.0707(2)
_cell_length_c                   14.7359(4)
_cell_angle_alpha                90
_cell_angle_beta                 104.609(2)
_cell_angle_gamma                90
_cell_volume                     1685.5
loop_
_atom_site_label
_atom_site_type_symbol
_atom_site_fract_x
_atom_site_fract_y
_atom_site_fract_z
Cu1 Cu 0.08883(3) 0.88144(3) 0.32078(2)
N1 N 0.10570(18) 1.0784(2) 0.37227(16)
C1 C 0.1370(2) 1.1714(3) 0.42492(19)
C2 C 0.1190(2) 0.8084(3) 0.21069(18)
N2 N 0.11224(16) 0.7562(2) 0.44459(14)
C3 C 0.1151(2) 0.8220(3) 0.52627(18)
H1 H 0.1061 0.9237 0.5271
C4 C 0.1240(2) 0.6084(3) 0.44679(18)
N3 N 0.1184(2) 0.5388(2) 0.36509(15)
H2 H 0.1250 0.4445 0.3640
H3 H 0.1082 0.5885 0.3139
C5 C 0.1432(2) 0.5966(3) 0.60502(19)
H4 H 0.1544 0.5424 0.6602
N4 N 0.14566(18) 0.7631(2) 0.14800(16)
C6 C 0.1306(2) 0.7457(3) 0.60916(18)
H5 H 0.1325 0.7934 0.6654
N5 N 0.14013(16) 0.5253(2) 0.52471(13)
Cu2 Cu 0.16938(3) 1.30243(3) 0.52849(2)
N4E N 0.14566(18) 1.2369(2) 0.64800(16)
N5_2 N 0.14013(16) 1.5253(2) 0.52471(13)
Cu2_2 Cu 0.16938(3) 0.30243(3) 0.52849(2)
Cu2E Cu 0.16938(3) 0.69757(3) 0.02849(2)
loop_
_geom_bond_atom_site_label_1
_geom_bond_atom_site_label_2
_geom_bond_site_symmetry_1
_geom_bond_site_symmetry_2
Cu1 N1 1_555 1_555
N1 C1 1_555 1_555
C1 Cu2 1_555 1_555
C2 Cu1 1_555 1_555
N2 Cu1 1_555 1_555
C3 N2 1_555 1_555
H1 C3 1_555 1_555
C4 N2 1_555 1_555
N3 C4 1_555 1_555
H2 N3 1_555 1_555
H3 N3 1_555 1_555
C5 H4 1_555 1_555
N4 C2 1_555 1_555
C6 C3 1_555 1_555
H5 C6 1_555 1_555
N5 C4 1_555 1_555
Cu2 N4E 1_555 1_555
N5_2 Cu2 1_555 1_555
Cu2_2 N5 1_555 1_555
Cu2E N4 1_555 1_555
C5 C6 1_555 1_555
C5 N5 1_555 1_555

#END
