
#######################################################################
#
#                 Cambridge Crystallographic Data Centre
#                                CCDC 
#
#######################################################################
#
# If this CIF has been generated from an entry in the Cambridge 
# Structural Database, then it will include bibliographic, chemical, 
# crystal, experimental, refinement or atomic coordinate data resulting 
# from the CCDC's data processing and validation procedures.
#
#######################################################################

data_TIRBUS
_symmetry_cell_setting           monoclinic
_symmetry_space_group_name_H-M   'C 2/c'
_symmetry_Int_Tables_number      15
_space_group_name_Hall           '-C 2yn'
loop_
_symmetry_equiv_pos_site_id
_symmetry_equiv_pos_as_xyz
1 x,y,z
2 1/2+x,1/2+y,z
3 -x,y,1/2-z
4 1/2-x,1/2+y,1/2-z
5 -x,-y,-z
6 1/2-x,1/2-y,-z
7 x,-y,1/2+z
8 1/2+x,1/2-y,1/2+z
_cell_length_a                   12.3183(2)
_cell_length_b                   10.4748(2)
_cell_length_c                   9.1013(2)
_cell_angle_alpha                90
_cell_angle_beta                 116.8540(10)
_cell_angle_gamma                90
_cell_volume                     1047.71
loop_
_atom_site_label
_atom_site_type_symbol
_atom_site_fract_x
_atom_site_fract_y
_atom_site_fract_z
Cu1 Cu 0.38713(3) 0.58943(2) 0.07197(3)
N1 N 0.35612(15) 0.51838(15) 0.2470(2)
C1 C 0.35862(17) 0.47395(18) 0.3645(2)
N2 N 0.45518(15) 0.76454(15) 0.1688(2)
C2 C 0.41366(18) 0.8735(2) 0.0941(2)
H1 H 0.3527 0.8713 -0.0172
C3 C 0.45391(18) 0.99511(18) 0.1687(2)
C4 C 0.40684(19) 1.1120(2) 0.0862(3)
H2 H 0.3443 1.1127 -0.0241
C5 C 0.45334(19) 1.22413(18) 0.1686(3)
H3 H 0.4220 1.3031 0.1147
Cu1F Cu 0.38713(3) 0.41057(2) -0.42803(3)
Cu1F_2 Cu 0.38713(3) 0.41057(2) 0.57197(3)
Cu1B Cu 0.61287(3) 0.58943(2) 0.42803(3)
N1F N 0.35612(15) 0.48162(15) -0.2530(2)
C1F C 0.35862(17) 0.52605(18) -0.1355(2)
C1_2 C 0.35862(17) 0.47395(18) -0.6355(2)
N2B N 0.54482(15) 0.76454(15) 0.3312(2)
N2F N 0.45518(15) 0.23546(15) -0.3312(2)
C2B C 0.58634(18) 0.8735(2) 0.4059(2)
H1B H 0.6473 0.8713 0.5172
C3B C 0.54609(18) 0.99511(18) 0.3313(2)
C4B C 0.59316(19) 1.1120(2) 0.4138(3)
H2B H 0.6557 1.1127 0.5241
C5B C 0.54666(19) 1.22413(18) 0.3314(3)
H3B H 0.5780 1.3031 0.3853
loop_
_geom_bond_atom_site_label_1
_geom_bond_atom_site_label_2
_geom_bond_site_symmetry_1
_geom_bond_site_symmetry_2
Cu1 N1 1_555 1_555
N1 C1 1_555 1_555
C1 Cu1F_2 1_555 1_555
N2 Cu1 1_555 1_555
C2 N2 1_555 1_555
H1 C2 1_555 1_555
C3 C2 1_555 1_555
C4 C3 1_555 1_555
H2 C4 1_555 1_555
C5 C4 1_555 1_555
H3 C5 1_555 1_555
Cu1F N1F 1_555 1_555
Cu1B N2B 1_555 1_555
N1F C1F 1_555 1_555
C1F Cu1 1_555 1_555
C1_2 Cu1F 1_555 1_555
N2B N2 1_555 1_555
N2F Cu1F 1_555 1_555
C2B N2B 1_555 1_555
H1B C2B 1_555 1_555
C3B C3 1_555 1_555
C4B C3B 1_555 1_555
H2B C4B 1_555 1_555
C5B C5 1_555 1_555
H3B C5B 1_555 1_555
C2B C3B 1_555 1_555
C4B C5B 1_555 1_555

#END
