
#######################################################################
#
#                 Cambridge Crystallographic Data Centre
#                                CCDC 
#
#######################################################################
#
# If this CIF has been generated from an entry in the Cambridge 
# Structural Database, then it will include bibliographic, chemical, 
# crystal, experimental, refinement or atomic coordinate data resulting 
# from the CCDC's data processing and validation procedures.
#
#######################################################################

data_TIRFUW
_symmetry_cell_setting           orthorhombic
_symmetry_space_group_name_H-M   'P m c 21'
_symmetry_Int_Tables_number      26
_space_group_name_Hall           'P 2c -2'
loop_
_symmetry_equiv_pos_site_id
_symmetry_equiv_pos_as_xyz
1 x,y,z
2 -x,-y,1/2+z
3 x,-y,1/2+z
4 -x,y,z
_cell_length_a                   12.3393(19)
_cell_length_b                   7.4473(12)
_cell_length_c                   6.0339(10)
_cell_angle_alpha                90
_cell_angle_beta                 90
_cell_angle_gamma                90
_cell_volume                     554.482
loop_
_atom_site_label
_atom_site_type_symbol
_atom_site_fract_x
_atom_site_fract_y
_atom_site_fract_z
In1 In 0.5000 0.158307(18) 0.98670(3)
O1 O 0.5000 -0.0886(3) 0.8218(3)
O2 O 0.68944(14) 0.1383(2) 1.0080(9)
O3 O 0.61259(12) 0.2641(3) 0.7233(4)
O4 O 0.5000 0.4387(3) 1.1065(5)
C1 C 0.69798(17) 0.2068(3) 0.8212(4)
C2 C 0.80361(16) 0.2274(3) 0.7063(4)
C3 C 0.80448(14) 0.3008(3) 0.4887(10)
H1 H 0.7394 0.3275 0.4183
C4 C 0.9001(2) 0.3322(3) 0.3833(5)
H2 H 0.8997 0.3797 0.2407
C5 C 1.0000 0.2934(3) 0.4879(13)
C6 C 1.0000 0.2155(4) 0.7036(5)
C7 C 0.89913(18) 0.1815(3) 0.8079(4)
H3 H 0.8977 0.1274 0.9469
H4 H 0.5000 -0.179(4) 0.895(7)
H5 H 0.4533(18) 0.506(3) 1.137(5)
In1A In 0.5000 -0.158307(18) 0.48670(3)
In1_2 In 1.5000 0.158307(18) 0.98670(3)
O1A O 0.5000 0.0886(3) 1.3218(3)
O2C O 1.31056(14) 0.1383(2) 1.0080(9)
O2C_2 O 0.31056(14) 0.1383(2) 1.0080(9)
O3C O 1.38741(12) 0.2641(3) 0.7233(4)
O3C_2 O 0.38741(12) 0.2641(3) 0.7233(4)
C1C C 1.30202(17) 0.2068(3) 0.8212(4)
C2C C 1.19639(16) 0.2274(3) 0.7063(4)
C3C C 1.19552(14) 0.3008(3) 0.4887(10)
H1C H 1.2606 0.3275 0.4183
C4C C 1.0999(2) 0.3322(3) 0.3833(5)
H2C H 1.1003 0.3797 0.2407
C7C C 1.10087(18) 0.1815(3) 0.8079(4)
H3C H 1.1023 0.1274 0.9469
H4A H 0.5000 0.179(4) 1.395(7)
H5C H 0.5467(18) 0.506(3) 1.137(5)
loop_
_geom_bond_atom_site_label_1
_geom_bond_atom_site_label_2
_geom_bond_site_symmetry_1
_geom_bond_site_symmetry_2
In1 O1 1_555 1_555
O1 H4 1_555 1_555
O2 In1 1_555 1_555
O3 In1 1_555 1_555
O4 In1 1_555 1_555
C1 O2 1_555 1_555
C2 C1 1_555 1_555
C3 C2 1_555 1_555
H1 C3 1_555 1_555
C4 C3 1_555 1_555
H2 C4 1_555 1_555
C5 C4 1_555 1_555
C6 C5 1_555 1_555
C7 C2 1_555 1_555
H3 C7 1_555 1_555
H5 O4 1_555 1_555
In1A O1 1_555 1_555
In1_2 O2C 1_555 1_555
O1A In1 1_555 1_555
O2C C1C 1_555 1_555
O2C_2 In1 1_555 1_555
O3C In1_2 1_555 1_555
O3C_2 In1 1_555 1_555
C1C O3C 1_555 1_555
C2C C1C 1_555 1_555
C3C C2C 1_555 1_555
H1C C3C 1_555 1_555
C4C C5 1_555 1_555
H2C C4C 1_555 1_555
C7C C6 1_555 1_555
H3C C7C 1_555 1_555
H4A O1A 1_555 1_555
H5C O4 1_555 1_555
O3 C1 1_555 1_555
C6 C7 1_555 1_555
C2C C7C 1_555 1_555
C3C C4C 1_555 1_555

#END
