
#######################################################################
#
#                 Cambridge Crystallographic Data Centre
#                                CCDC 
#
#######################################################################
#
# If this CIF has been generated from an entry in the Cambridge 
# Structural Database, then it will include bibliographic, chemical, 
# crystal, experimental, refinement or atomic coordinate data resulting 
# from the CCDC's data processing and validation procedures.
#
#######################################################################

data_TIRFIK
_symmetry_cell_setting           tetragonal
_symmetry_space_group_name_H-M   'P 42/n c m'
_symmetry_Int_Tables_number      138
_space_group_name_Hall           '-P 4ac 2ac'
loop_
_symmetry_equiv_pos_site_id
_symmetry_equiv_pos_as_xyz
1 x,y,z
2 1/2-y,x,1/2+z
3 y,1/2-x,1/2+z
4 1/2+y,1/2+x,-z
5 1/2-x,1/2-y,z
6 -x,1/2+y,1/2-z
7 1/2+x,-y,1/2-z
8 -y,-x,-z
9 -x,-y,-z
10 1/2+y,-x,1/2-z
11 -y,1/2+x,1/2-z
12 1/2-y,1/2-x,z
13 1/2+x,1/2+y,-z
14 x,1/2-y,1/2+z
15 1/2-x,y,1/2+z
16 y,x,z
_cell_length_a                   16.0978(8)
_cell_length_b                   16.0978(8)
_cell_length_c                   5.9217(6)
_cell_angle_alpha                90
_cell_angle_beta                 90
_cell_angle_gamma                90
_cell_volume                     1534.54
loop_
_atom_site_label
_atom_site_type_symbol
_atom_site_fract_x
_atom_site_fract_y
_atom_site_fract_z
In1 In 0.321367(7) 0.678633(7) 0.0000
O1 O 0.40660(8) 0.62594(8) 0.2352(2)
O2 O 0.2500 0.7500 -0.2500
O3 O 0.42570(8) 0.73835(8) 0.4517(2)
C1 C 0.56088(11) 0.56088(11) 0.3671(4)
H1 H 0.5300 0.5300 0.2644
C2 C 0.44795(11) 0.66963(11) 0.3721(3)
C3 C 0.65559(15) 0.65559(15) 0.6644(6)
H2 H 0.6879 0.6879 0.7604
C4 C 0.57902(13) 0.68370(12) 0.5925(4)
H3 H 0.5592 0.7346 0.6439
C5 C 0.53127(11) 0.63684(11) 0.4442(3)
In1O In 0.678633(7) 0.321367(7) 0.0000
In1C In 0.178633(7) 0.821367(7) 0.0000
In1M In 0.321367(7) 0.821367(7) -0.5000
In1N In 0.178633(7) 0.678633(7) -0.5000
In1M_2 In 0.321367(7) 0.821367(7) 0.5000
In1A In 0.821367(7) 0.321367(7) 0.5000
In1B In 0.678633(7) 0.178633(7) -0.5000
O1O O 0.62594(8) 0.40660(8) 0.2352(2)
O1G O 0.37406(8) 0.59340(8) -0.2352(2)
O1H O 0.59340(8) 0.37406(8) -0.2352(2)
O2C O 0.2500 0.7500 0.2500
O2A O 0.7500 0.2500 0.2500
O2O O 0.7500 0.2500 -0.2500
O3O O 0.73835(8) 0.42570(8) 0.4517(2)
O3G O 0.26165(8) 0.57430(8) -0.4517(2)
O3H O 0.57430(8) 0.26165(8) -0.4517(2)
O3M O 0.42570(8) 0.76165(8) -0.0483(2)
O3I O 0.23835(8) 0.57430(8) 0.0483(2)
O3A O 0.76165(8) 0.42570(8) -0.0483(2)
O3E O 0.57430(8) 0.23835(8) 0.0483(2)
C1H C 0.43912(11) 0.43912(11) -0.3671(4)
H1H H 0.4700 0.4700 -0.2644
C2O C 0.66963(11) 0.44795(11) 0.3721(3)
C2G C 0.33037(11) 0.55205(11) -0.3721(3)
C2H C 0.55205(11) 0.33037(11) -0.3721(3)
C3H C 0.34441(15) 0.34441(15) -0.6644(6)
H2H H 0.3121 0.3121 -0.7604
C4O C 0.68370(12) 0.57902(13) 0.5925(4)
C4G C 0.31630(12) 0.42098(13) -0.5925(4)
C4H C 0.42098(13) 0.31630(12) -0.5925(4)
H3O H 0.7346 0.5592 0.6439
H3G H 0.2654 0.4408 -0.6439
H3H H 0.4408 0.2654 -0.6439
C5O C 0.63684(11) 0.53127(11) 0.4442(3)
C5G C 0.36316(11) 0.46873(11) -0.4442(3)
C5H C 0.46873(11) 0.36316(11) -0.4442(3)
loop_
_geom_bond_atom_site_label_1
_geom_bond_atom_site_label_2
_geom_bond_site_symmetry_1
_geom_bond_site_symmetry_2
In1 O1 1_555 1_555
O1 C2 1_555 1_555
O2 In1 1_555 1_555
O3 C2 1_555 1_555
C1 H1 1_555 1_555
C2 C5 1_555 1_555
C3 H2 1_555 1_555
C4 C3 1_555 1_555
H3 C4 1_555 1_555
C5 C1 1_555 1_555
In1O O1O 1_555 1_555
In1C O2 1_555 1_555
In1M O2 1_555 1_555
In1N O2 1_555 1_555
In1M_2 O3 1_555 1_555
In1A O2A 1_555 1_555
In1B O2O 1_555 1_555
O1O C2O 1_555 1_555
O1G In1 1_555 1_555
O1H In1O 1_555 1_555
O2C In1 1_555 1_555
O2A In1O 1_555 1_555
O2O In1O 1_555 1_555
O3O In1A 1_555 1_555
O3G In1N 1_555 1_555
O3H In1B 1_555 1_555
O3M In1 1_555 1_555
O3I In1 1_555 1_555
O3A In1O 1_555 1_555
O3E In1O 1_555 1_555
C1H H1H 1_555 1_555
C2O O3O 1_555 1_555
C2G O1G 1_555 1_555
C2H O1H 1_555 1_555
C3H H2H 1_555 1_555
C4O C3 1_555 1_555
C4G C3H 1_555 1_555
C4H C3H 1_555 1_555
H3O C4O 1_555 1_555
H3G C4G 1_555 1_555
H3H C4H 1_555 1_555
C5O C1 1_555 1_555
C5G C1H 1_555 1_555
C5H C1H 1_555 1_555
C4 C5 1_555 1_555
In1C O2C 1_555 1_555
In1M_2 O2C 1_555 1_555
O3G C2G 1_555 1_555
O3H C2H 1_555 1_555
C2O C5O 1_555 1_555
C2G C5G 1_555 1_555
C2H C5H 1_555 1_555
C4O C5O 1_555 1_555
C4G C5G 1_555 1_555
C4H C5H 1_555 1_555

#END
