
#######################################################################
#
#                 Cambridge Crystallographic Data Centre
#                                CCDC 
#
#######################################################################
#
# If this CIF has been generated from an entry in the Cambridge 
# Structural Database, then it will include bibliographic, chemical, 
# crystal, experimental, refinement or atomic coordinate data resulting 
# from the CCDC's data processing and validation procedures.
#
#######################################################################

data_TIRLEM
_symmetry_cell_setting           triclinic
_symmetry_space_group_name_H-M   'P -1'
_symmetry_Int_Tables_number      2
_space_group_name_Hall           '-P 1'
loop_
_symmetry_equiv_pos_site_id
_symmetry_equiv_pos_as_xyz
1 x,y,z
2 -x,-y,-z
_cell_length_a                   11.351(3)
_cell_length_b                   11.391(3)
_cell_length_c                   11.480(3)
_cell_angle_alpha                112.838(4)
_cell_angle_beta                 90.696(4)
_cell_angle_gamma                99.328(4)
_cell_volume                     1345.3
loop_
_atom_site_label
_atom_site_type_symbol
_atom_site_fract_x
_atom_site_fract_y
_atom_site_fract_z
Mn1 Mn 0.5000 0.5000 0.5000
Mn2 Mn 0.61018(9) 0.54170(10) 0.82130(10)
S1 S 0.10227(16) 0.5123(2) 0.66875(18)
S2 S 0.57588(19) 0.97472(18) 0.66538(19)
O1 O 0.4152(4) 0.5196(5) 0.8190(5)
O2 O 0.3568(4) 0.5059(5) 0.6265(5)
O3 O -0.1963(4) 0.5574(5) 0.8334(5)
O4 O -0.1575(5) 0.4936(7) 0.6302(6)
O5 O 0.6129(5) 0.7278(5) 0.8173(5)
O6 O 0.5729(5) 0.7009(5) 0.6162(5)
H1 H 0.6054 0.7060 0.5510
O7 O 0.5891(5) 1.3483(5) 0.8347(5)
O8 O 0.5808(7) 1.2162(5) 0.6318(6)
O9 O 0.6142(4) 0.6235(5) 1.0290(5)
H2 H 0.5424 0.6466 1.0636
H3 H 0.6257 0.5595 1.0539
O10 O 0.6122(4) 0.4377(5) 0.6110(4)
H4 H 0.6183 0.3588 0.6008
H5 H 0.6944 0.4495 0.6026
C1 C 0.3395(6) 0.5194(7) 0.7367(7)
C2 C 0.2167(6) 0.5361(7) 0.7788(7)
C3 C 0.1782(6) 0.5667(8) 0.8969(7)
H6 H 0.2275 0.5823 0.9685
C4 C 0.0550(6) 0.5721(8) 0.8983(7)
H7 H 0.0148 0.5934 0.9717
C5 C 0.0018(6) 0.5435(7) 0.7838(7)
C6 C -0.1281(6) 0.5305(8) 0.7452(8)
C7 C 0.5923(6) 0.7674(7) 0.7337(8)
C8 C 0.5929(6) 0.9083(7) 0.7743(7)
C9 C 0.6042(8) 1.0008(8) 0.8945(8)
H8 H 0.6138 0.9835 0.9665
C10 C 0.5999(8) 1.1254(7) 0.8988(8)
H9 H 0.6059 1.1988 0.9737
C11 C 0.5863(6) 1.1265(7) 0.7828(7)
C12 C 0.5852(7) 1.2387(7) 0.7470(8)
Mn2A Mn 0.38982(9) 0.45830(10) 0.17870(10)
Mn2_2 Mn -0.38982(9) 0.54170(10) 0.82130(10)
Mn2_3 Mn 0.61018(9) 1.54170(10) 0.82130(10)
Mn2A_2 Mn 1.38982(9) 0.45830(10) 0.17870(10)
Mn2A_3 Mn 0.38982(9) -0.54170(10) 0.17870(10)
S1A S 0.89773(16) 0.4877(2) 0.33125(18)
S2A S 0.42412(19) 0.02528(18) 0.33462(19)
O1A O 0.5848(4) 0.4804(5) 0.1810(5)
O2A O 0.6432(4) 0.4941(5) 0.3735(5)
O3A O 1.1963(4) 0.4426(5) 0.1666(5)
O3_2 O 0.8037(4) 0.5574(5) 0.8334(5)
O3A_2 O 0.1963(4) 0.4426(5) 0.1666(5)
O4A O 1.1575(5) 0.5064(7) 0.3698(6)
O5A O 0.3871(5) 0.2722(5) 0.1827(5)
O6A O 0.4271(5) 0.2991(5) 0.3838(5)
H1A H 0.3946 0.2940 0.4490
O7A O 0.4109(5) -0.3483(5) 0.1653(5)
O7_2 O 0.5891(5) 0.3483(5) 0.8347(5)
O7A_2 O 0.4109(5) 0.6517(5) 0.1653(5)
O8A O 0.4192(7) -0.2162(5) 0.3682(6)
O9A O 0.3858(4) 0.3765(5) -0.0290(5)
H2A H 0.4576 0.3534 -0.0636
H3A H 0.3743 0.4405 -0.0539
O10A O 0.3878(4) 0.5623(5) 0.3890(4)
H4A H 0.3817 0.6412 0.3992
H5A H 0.3056 0.5505 0.3974
C1A C 0.6605(6) 0.4806(7) 0.2633(7)
C2A C 0.7833(6) 0.4639(7) 0.2212(7)
C3A C 0.8218(6) 0.4333(8) 0.1031(7)
H6A H 0.7725 0.4177 0.0315
C4A C 0.9450(6) 0.4279(8) 0.1017(7)
H7A H 0.9852 0.4066 0.0283
C5A C 0.9982(6) 0.4565(7) 0.2162(7)
C6A C 1.1281(6) 0.4695(8) 0.2548(8)
C7A C 0.4077(6) 0.2326(7) 0.2663(8)
C8A C 0.4071(6) 0.0917(7) 0.2257(7)
C9A C 0.3958(8) -0.0008(8) 0.1055(8)
H8A H 0.3862 0.0165 0.0335
C10A C 0.4001(8) -0.1254(7) 0.1012(8)
H9A H 0.3941 -0.1988 0.0263
C11A C 0.4137(6) -0.1265(7) 0.2172(7)
C12A C 0.4148(7) -0.2387(7) 0.2530(8)
O11 O 0.7748(18) 0.144(2) 0.458(2)
O15 O 0.919(3) 1.072(4) 1.035(3)
N1 N 0.0136(10) 0.1823(10) 0.5629(11)
C13 C 0.0148(9) 0.1828(11) 0.6833(11)
C14 C 0.1230(12) 0.1853(10) 0.7430(9)
H10 H 0.1251 0.1828 0.8230
C15 C 0.2281(8) 0.1914(10) 0.6831(14)
H11 H 0.3005 0.1931 0.7231
C16 C 0.2251(10) 0.1951(9) 0.5636(13)
H12 H 0.2954 0.1992 0.5235
C17 C 0.1169(14) 0.1926(11) 0.5038(9)
C18 C -0.1024(12) 0.1796(15) 0.7364(15)
H13 H -0.1109 0.2660 0.7906
H14 H -0.1079 0.1267 0.7845
H15 H -0.1649 0.1442 0.6686
C19 C 0.1087(18) 0.2066(17) 0.3804(15)
H16 H 0.1788 0.2636 0.3753
H17 H 0.0388 0.2419 0.3742
H18 H 0.1033 0.1233 0.3122
O12? O 0.8462(18) 0.2346(19) 0.453(2)
O13? O 0.740(3) 0.138(5) 0.296(7)
O14? O 0.750(4) 0.191(3) 0.380(3)
O16? O 0.952(3) 0.874(3) 0.959(3)
O17? O 0.843(4) 0.853(5) 0.994(4)
O18? O 0.883(3) 0.947(3) 0.989(3)
loop_
_geom_bond_atom_site_label_1
_geom_bond_atom_site_label_2
_geom_bond_site_symmetry_1
_geom_bond_site_symmetry_2
Mn1 O2 1_555 1_555
Mn2 O1 1_555 1_555
S1 C2 1_555 1_555
S2 C8 1_555 1_555
O1 C1 1_555 1_555
O2 C1 1_555 1_555
O3 C6 1_555 1_555
O4 C6 1_555 1_555
O5 Mn2 1_555 1_555
O6 Mn1 1_555 1_555
H1 O6 1_555 1_555
O7 C12 1_555 1_555
O8 C12 1_555 1_555
O9 Mn2 1_555 1_555
H2 O9 1_555 1_555
H3 O9 1_555 1_555
O10 Mn1 1_555 1_555
H4 O10 1_555 1_555
H5 O10 1_555 1_555
N1 C13 1_555 1_555
C1 C2 1_555 1_555
C2 C3 1_555 1_555
C3 H6 1_555 1_555
C4 C3 1_555 1_555
H7 C4 1_555 1_555
C5 S1 1_555 1_555
C6 C5 1_555 1_555
C7 O5 1_555 1_555
C8 C7 1_555 1_555
C9 C8 1_555 1_555
H8 C9 1_555 1_555
C10 C9 1_555 1_555
H9 C10 1_555 1_555
C11 S2 1_555 1_555
C12 C11 1_555 1_555
C13 C14 1_555 1_555
C14 H10 1_555 1_555
C15 C14 1_555 1_555
H11 C15 1_555 1_555
C16 C15 1_555 1_555
H12 C16 1_555 1_555
C17 N1 1_555 1_555
C18 C13 1_555 1_555
H13 C18 1_555 1_555
H14 C18 1_555 1_555
H15 C18 1_555 1_555
C19 C17 1_555 1_555
H16 C19 1_555 1_555
H17 C19 1_555 1_555
H18 C19 1_555 1_555
Mn2A O1A 1_555 1_555
Mn2_2 O3 1_555 1_555
Mn2_3 O7 1_555 1_555
Mn2A_2 O3A 1_555 1_555
Mn2A_3 O7A 1_555 1_555
S1A C2A 1_555 1_555
S2A C8A 1_555 1_555
O1A C1A 1_555 1_555
O2A Mn1 1_555 1_555
O3A C6A 1_555 1_555
O3_2 Mn2 1_555 1_555
O3A_2 Mn2A 1_555 1_555
O4A C6A 1_555 1_555
O5A Mn2A 1_555 1_555
O6A Mn1 1_555 1_555
H1A O6A 1_555 1_555
O7A C12A 1_555 1_555
O7_2 Mn2 1_555 1_555
O7A_2 Mn2A 1_555 1_555
O8A C12A 1_555 1_555
O9A Mn2A 1_555 1_555
H2A O9A 1_555 1_555
H3A O9A 1_555 1_555
O10A Mn1 1_555 1_555
H4A O10A 1_555 1_555
H5A O10A 1_555 1_555
C1A O2A 1_555 1_555
C2A C1A 1_555 1_555
C3A C2A 1_555 1_555
H6A C3A 1_555 1_555
C4A C3A 1_555 1_555
H7A C4A 1_555 1_555
C5A S1A 1_555 1_555
C6A C5A 1_555 1_555
C7A O5A 1_555 1_555
C8A C7A 1_555 1_555
C9A C8A 1_555 1_555
H8A C9A 1_555 1_555
C10A C9A 1_555 1_555
H9A C10A 1_555 1_555
C11A S2A 1_555 1_555
C12A C11A 1_555 1_555
Mn2 O10 1_555 1_555
O6 C7 1_555 1_555
C4 C5 1_555 1_555
C10 C11 1_555 1_555
C16 C17 1_555 1_555
Mn2A O10A 1_555 1_555
O6A C7A 1_555 1_555
C4A C5A 1_555 1_555
C10A C11A 1_555 1_555

#END
