
#######################################################################
#
#                 Cambridge Crystallographic Data Centre
#                                CCDC 
#
#######################################################################
#
# If this CIF has been generated from an entry in the Cambridge 
# Structural Database, then it will include bibliographic, chemical, 
# crystal, experimental, refinement or atomic coordinate data resulting 
# from the CCDC's data processing and validation procedures.
#
#######################################################################

data_TIRQOB
_symmetry_cell_setting           cubic
_symmetry_space_group_name_H-M   'I -4 3 d'
_symmetry_Int_Tables_number      220
_space_group_name_Hall           'I -4bd 2c 3'
loop_
_symmetry_equiv_pos_site_id
_symmetry_equiv_pos_as_xyz
1 x,y,z
2 1/2-x,-y,1/2+z
3 -x,1/2+y,1/2-z
4 1/2+x,1/2-y,-z
5 z,x,y
6 1/2+z,1/2-x,-y
7 1/2-z,-x,1/2+y
8 -z,1/2+x,1/2-y
9 y,z,x
10 -y,1/2+z,1/2-x
11 1/2+y,1/2-z,-x
12 1/2-y,-z,1/2+x
13 1/4+y,1/4+x,1/4+z
14 1/4-y,3/4-x,3/4+z
15 3/4+y,1/4-x,3/4-z
16 3/4-y,3/4+x,1/4-z
17 1/4+x,1/4+z,1/4+y
18 3/4-x,3/4+z,1/4-y
19 1/4-x,3/4-z,3/4+y
20 3/4+x,1/4-z,3/4-y
21 1/4+z,1/4+y,1/4+x
22 3/4+z,1/4-y,3/4-x
23 3/4-z,3/4+y,1/4-x
24 1/4-z,3/4-y,3/4+x
25 1/2+x,1/2+y,1/2+z
26 -x,1/2-y,z
27 1/2-x,y,-z
28 x,-y,1/2-z
29 1/2+z,1/2+x,1/2+y
30 z,-x,1/2-y
31 -z,1/2-x,y
32 1/2-z,x,-y
33 1/2+y,1/2+z,1/2+x
34 1/2-y,z,-x
35 y,-z,1/2-x
36 -y,1/2-z,x
37 3/4+y,3/4+x,3/4+z
38 3/4-y,1/4-x,1/4+z
39 1/4+y,3/4-x,1/4-z
40 1/4-y,1/4+x,3/4-z
41 3/4+x,3/4+z,3/4+y
42 1/4-x,1/4+z,3/4-y
43 3/4-x,1/4-z,1/4+y
44 1/4+x,3/4-z,1/4-y
45 3/4+z,3/4+y,3/4+x
46 1/4+z,3/4-y,1/4-x
47 1/4-z,1/4+y,3/4-x
48 3/4-z,1/4-y,1/4+x
_cell_length_a                   28.79(1)
_cell_length_b                   28.79(1)
_cell_length_c                   28.79(1)
_cell_angle_alpha                90
_cell_angle_beta                 90
_cell_angle_gamma                90
_cell_volume                     23863
loop_
_atom_site_label
_atom_site_type_symbol
_atom_site_fract_x
_atom_site_fract_y
_atom_site_fract_z
C1 C 0.1020(3) -0.1342(3) -0.0409(3)
C2 C 0.1210(3) -0.1715(3) -0.0676(3)
C3 C 0.0994(5) -0.1400(4) 0.0098(3)
H1 H 0.0910 -0.1150 0.0283
C4 C 0.1092(5) -0.1814(3) 0.0296(4)
H2 H 0.1056 -0.1853 0.0615
C5 C 0.1319(4) -0.2138(3) -0.0428(4)
H3 H 0.1443 -0.2391 -0.0586
C6 C 0.1240(6) -0.2164(4) 0.0034(4)
H4 H 0.1294 -0.2447 0.0180
Zn1 Zn 0.00289(3) 0.00289(3) 0.00289(3)
Zn2 Zn 0.10633(3) 0.02814(3) 0.02441(3)
O1 O 0.04157(15) 0.04157(15) 0.04157(15)
O2 O 0.0975(2) -0.01881(18) -0.03255(17)
C7 C 0.0699(3) -0.0524(3) -0.0375(2)
C8 C 0.1107(3) -0.1228(3) -0.1885(3)
H5 H 0.1233 -0.1466 -0.2065
C9 C 0.0730(3) -0.0502(3) -0.1382(3)
H6 H 0.0600 -0.0258 -0.1215
C10 C 0.1092(3) -0.1274(3) -0.1407(3)
C11 C 0.0886(3) -0.0938(2) -0.0635(3)
C12 C 0.0750(3) -0.0475(3) -0.1827(3)
H7 H 0.0639 -0.0212 -0.1979
C13 C 0.0906(3) -0.0907(3) -0.1134(3)
C14 C 0.0944(3) -0.0851(4) -0.2090(3)
H8 H 0.0956 -0.0828 -0.2412
C15 C 0.1252(3) -0.1685(3) -0.1165(3)
C16 C 0.1470(4) -0.2076(4) -0.1431(4)
O3 O 0.12308(19) -0.22717(19) -0.17437(19)
O4 O 0.1881(2) -0.2196(2) -0.1315(2)
O5 O 0.03169(19) -0.05544(19) -0.0202(2)
O6 O 0.1513(3) 0.0656(3) 0.0715(2)
C1D C -0.0409(3) 0.1020(3) -0.1342(3)
C1H C -0.1342(3) -0.0409(3) 0.1020(3)
C2D C -0.0676(3) 0.1210(3) -0.1715(3)
C2H C -0.1715(3) -0.0676(3) 0.1210(3)
C3D C 0.0098(3) 0.0994(5) -0.1400(4)
C3H C -0.1400(4) 0.0098(3) 0.0994(5)
H1D H 0.0283 0.0910 -0.1150
H1H H -0.1150 0.0283 0.0910
C4D C 0.0296(4) 0.1092(5) -0.1814(3)
C4H C -0.1814(3) 0.0296(4) 0.1092(5)
H2D H 0.0615 0.1056 -0.1853
H2H H -0.1853 0.0615 0.1056
C5D C -0.0428(4) 0.1319(4) -0.2138(3)
C5H C -0.2138(3) -0.0428(4) 0.1319(4)
H3D H -0.0586 0.1443 -0.2391
H3H H -0.2391 -0.0586 0.1443
C6D C 0.0034(4) 0.1240(6) -0.2164(4)
C6H C -0.2164(4) 0.0034(4) 0.1240(6)
H4D H 0.0180 0.1294 -0.2447
H4H H -0.2447 0.0180 0.1294
Zn2H Zn 0.02814(3) 0.02441(3) 0.10633(3)
Zn2D Zn 0.02441(3) 0.10633(3) 0.02814(3)
Zn2R Zn 0.14367(3) -0.27441(3) -0.22186(3)
Zn2W Zn 0.22559(3) -0.27814(3) -0.14367(3)
Zn2N Zn -0.22186(3) 0.14367(3) -0.27441(3)
Zn2S Zn -0.14367(3) 0.22559(3) -0.27814(3)
Zn2V Zn -0.27441(3) -0.22186(3) 0.14367(3)
Zn2O Zn -0.27814(3) -0.14367(3) 0.22559(3)
O2D O -0.03255(17) 0.0975(2) -0.01881(18)
O2H O -0.01881(18) -0.03255(17) 0.0975(2)
C7D C -0.0375(2) 0.0699(3) -0.0524(3)
C7H C -0.0524(3) -0.0375(2) 0.0699(3)
C8D C -0.1885(3) 0.1107(3) -0.1228(3)
C8H C -0.1228(3) -0.1885(3) 0.1107(3)
H5D H -0.2065 0.1233 -0.1466
H5H H -0.1466 -0.2065 0.1233
C9D C -0.1382(3) 0.0730(3) -0.0502(3)
C9H C -0.0502(3) -0.1382(3) 0.0730(3)
H6D H -0.1215 0.0600 -0.0258
H6H H -0.0258 -0.1215 0.0600
C10D C -0.1407(3) 0.1092(3) -0.1274(3)
C10H C -0.1274(3) -0.1407(3) 0.1092(3)
C11D C -0.0635(3) 0.0886(3) -0.0938(2)
C11H C -0.0938(2) -0.0635(3) 0.0886(3)
C12D C -0.1827(3) 0.0750(3) -0.0475(3)
C12H C -0.0475(3) -0.1827(3) 0.0750(3)
H7D H -0.1979 0.0639 -0.0212
H7H H -0.0212 -0.1979 0.0639
C13D C -0.1134(3) 0.0906(3) -0.0907(3)
C13H C -0.0907(3) -0.1134(3) 0.0906(3)
C14D C -0.2090(3) 0.0944(3) -0.0851(4)
C14H C -0.0851(4) -0.2090(3) 0.0944(3)
H8D H -0.2412 0.0956 -0.0828
H8H H -0.0828 -0.2412 0.0956
C15D C -0.1165(3) 0.1252(3) -0.1685(3)
C15H C -0.1685(3) -0.1165(3) 0.1252(3)
C16D C -0.1431(4) 0.1470(4) -0.2076(4)
C16H C -0.2076(4) -0.1431(4) 0.1470(4)
O3D O -0.17437(19) 0.12308(19) -0.22717(19)
O3H O -0.22717(19) -0.17437(19) 0.12308(19)
O3OA O 0.12692(19) 0.07563(19) -0.02283(19)
O3SA O 0.07563(19) -0.02283(19) 0.12692(19)
O3KA O -0.02283(19) 0.12692(19) 0.07563(19)
O4D O -0.1315(2) 0.1881(2) -0.2196(2)
O4H O -0.2196(2) -0.1315(2) 0.1881(2)
O4SA O 0.1185(2) -0.0304(2) 0.0619(2)
O4KA O -0.0304(2) 0.0619(2) 0.1185(2)
O4OA O 0.0619(2) 0.1185(2) -0.0304(2)
O5D O -0.0202(2) 0.03169(19) -0.05544(19)
O5H O -0.05544(19) -0.0202(2) 0.03169(19)
O6H O 0.0656(3) 0.0715(2) 0.1513(3)
O6D O 0.0715(2) 0.1513(3) 0.0656(3)
loop_
_geom_bond_atom_site_label_1
_geom_bond_atom_site_label_2
_geom_bond_site_symmetry_1
_geom_bond_site_symmetry_2
C1 C2 1_555 1_555
C2 C5 1_555 1_555
C3 C1 1_555 1_555
H1 C3 1_555 1_555
C4 C3 1_555 1_555
H2 C4 1_555 1_555
C5 H3 1_555 1_555
C6 C4 1_555 1_555
H4 C6 1_555 1_555
Zn1 O1 1_555 1_555
Zn2 O1 1_555 1_555
O1 Zn2H 1_555 1_555
O2 Zn2 1_555 1_555
C7 O2 1_555 1_555
C8 H5 1_555 1_555
C9 H6 1_555 1_555
C10 C8 1_555 1_555
C11 C1 1_555 1_555
C12 C9 1_555 1_555
H7 C12 1_555 1_555
C13 C9 1_555 1_555
C14 C8 1_555 1_555
H8 C14 1_555 1_555
C15 C2 1_555 1_555
C16 C15 1_555 1_555
O3 C16 1_555 1_555
O4 C16 1_555 1_555
O5 Zn1 1_555 1_555
O6 Zn2 1_555 1_555
C1D C2D 1_555 1_555
C1H C2H 1_555 1_555
C2D C5D 1_555 1_555
C2H C5H 1_555 1_555
C3D C1D 1_555 1_555
C3H C1H 1_555 1_555
H1D C3D 1_555 1_555
H1H C3H 1_555 1_555
C4D C3D 1_555 1_555
C4H C3H 1_555 1_555
H2D C4D 1_555 1_555
H2H C4H 1_555 1_555
C5D H3D 1_555 1_555
C5H H3H 1_555 1_555
C6D C4D 1_555 1_555
C6H C4H 1_555 1_555
H4D C6D 1_555 1_555
H4H C6H 1_555 1_555
Zn2H O2H 1_555 1_555
Zn2D O1 1_555 1_555
Zn2R O3 1_555 1_555
Zn2W O4 1_555 1_555
Zn2N O3D 1_555 1_555
Zn2S O4D 1_555 1_555
Zn2V O3H 1_555 1_555
Zn2O O4H 1_555 1_555
O2D Zn2D 1_555 1_555
O2H C7H 1_555 1_555
C7D O2D 1_555 1_555
C7H C11H 1_555 1_555
C8D H5D 1_555 1_555
C8H H5H 1_555 1_555
C9D H6D 1_555 1_555
C9H H6H 1_555 1_555
C10D C8D 1_555 1_555
C10H C8H 1_555 1_555
C11D C1D 1_555 1_555
C11H C1H 1_555 1_555
C12D C9D 1_555 1_555
C12H C9H 1_555 1_555
H7D C12D 1_555 1_555
H7H C12H 1_555 1_555
C13D C9D 1_555 1_555
C13H C9H 1_555 1_555
C14D C8D 1_555 1_555
C14H C8H 1_555 1_555
H8D C14D 1_555 1_555
H8H C14H 1_555 1_555
C15D C2D 1_555 1_555
C15H C2H 1_555 1_555
C16D C15D 1_555 1_555
C16H C15H 1_555 1_555
O3D C16D 1_555 1_555
O3H C16H 1_555 1_555
O3OA Zn2 1_555 1_555
O3SA Zn2H 1_555 1_555
O3KA Zn2D 1_555 1_555
O4D C16D 1_555 1_555
O4H C16H 1_555 1_555
O4SA Zn2 1_555 1_555
O4KA Zn2H 1_555 1_555
O4OA Zn2D 1_555 1_555
O5D Zn1 1_555 1_555
O5H Zn1 1_555 1_555
O6H Zn2H 1_555 1_555
O6D Zn2D 1_555 1_555
C5 C6 1_555 1_555
C7 C11 1_555 1_555
C7 O5 1_555 1_555
C10 C13 1_555 1_555
C10 C15 1_555 1_555
C11 C13 1_555 1_555
C12 C14 1_555 1_555
C5D C6D 1_555 1_555
C5H C6H 1_555 1_555
C7D C11D 1_555 1_555
C7D O5D 1_555 1_555
C7H O5H 1_555 1_555
C10D C13D 1_555 1_555
C10D C15D 1_555 1_555
C10H C13H 1_555 1_555
C10H C15H 1_555 1_555
C11D C13D 1_555 1_555
C11H C13H 1_555 1_555
C12D C14D 1_555 1_555
C12H C14H 1_555 1_555

#END
