
#######################################################################
#
#                 Cambridge Crystallographic Data Centre
#                                CCDC 
#
#######################################################################
#
# If this CIF has been generated from an entry in the Cambridge 
# Structural Database, then it will include bibliographic, chemical, 
# crystal, experimental, refinement or atomic coordinate data resulting 
# from the CCDC's data processing and validation procedures.
#
#######################################################################

data_TIRROC
_symmetry_cell_setting           monoclinic
_symmetry_space_group_name_H-M   'P 21/c'
_symmetry_Int_Tables_number      14
_space_group_name_Hall           '-P 2ybc'
loop_
_symmetry_equiv_pos_site_id
_symmetry_equiv_pos_as_xyz
1 x,y,z
2 -x,1/2+y,1/2-z
3 -x,-y,-z
4 x,1/2-y,1/2+z
_cell_length_a                   10.2656(10)
_cell_length_b                   18.1161(18)
_cell_length_c                   10.3473(10)
_cell_angle_alpha                90
_cell_angle_beta                 90.528(5)
_cell_angle_gamma                90
_cell_volume                     1924.23
loop_
_atom_site_label
_atom_site_type_symbol
_atom_site_fract_x
_atom_site_fract_y
_atom_site_fract_z
Cu1 Cu 0.77527(11) 0.05646(5) 0.29713(10)
Cu2 Cu 1.0000 0.0000 0.5000
C1 C 0.6089(10) 0.1843(4) 0.2201(8)
H1 H 0.6795 0.1936 0.1636
C2 C 0.4987(9) 0.2279(4) 0.2108(9)
H2 H 0.4936 0.2670 0.1497
C3 C 0.3964(10) 0.2134(5) 0.2924(10)
H3 H 0.3183 0.2413 0.2866
C4 C 0.4093(9) 0.1568(4) 0.3838(8)
H4 H 0.3406 0.1470 0.4423
C5 C 0.5214(9) 0.1154(4) 0.3888(8)
C6 C 0.5483(8) 0.0529(4) 0.4821(8)
H5 H 0.6277 0.0648 0.5349
C7 C 0.5602(9) -0.0282(4) 0.4285(8)
H6 H 0.6438 -0.0496 0.4616
C8 C 0.5507(9) -0.0441(4) 0.2838(9)
C9 C 0.4578(8) -0.0884(4) 0.2284(8)
H7 H 0.3862 -0.1054 0.2776
C10 C 0.4693(9) -0.1083(5) 0.0981(9)
H8 H 0.4063 -0.1391 0.0575
C11 C 0.5735(9) -0.0823(5) 0.0315(8)
H9 H 0.5859 -0.0968 -0.0557
C12 C 0.6601(9) -0.0355(4) 0.0897(8)
H10 H 0.7302 -0.0164 0.0406
N1 N 0.6193(7) 0.1288(3) 0.3071(7)
N2 N 0.6492(7) -0.0154(3) 0.2144(6)
N3 N 0.8900(7) 0.1186(4) 0.4091(7)
N4 N 0.8375(8) 0.1554(4) 0.4899(8)
N5 N 0.7906(9) 0.1919(5) 0.5674(8)
N6 N 0.9007(7) -0.0293(4) 0.3341(6)
N7 N 0.8550(7) -0.0916(5) 0.3339(6)
N8 N 0.8140(8) -0.1506(4) 0.3328(7)
N9 N 1.1637(8) 0.0171(5) 0.4080(8)
N10 N 1.1740(7) 0.0305(4) 0.2951(9)
N11 N 1.1927(10) 0.0435(5) 0.1882(10)
O1 O 0.8380(7) 0.0987(3) 0.1114(6)
C13 C 0.9420(10) 0.1333(5) 0.1001(9)
H11 H 0.9957 0.1393 0.1747
N12 N 0.9818(7) 0.1619(4) -0.0098(7)
C14 C 1.1032(10) 0.2044(6) -0.0167(10)
H12 H 1.1162 0.2214 -0.1056
H13 H 1.1766 0.1730 0.0096
H14 H 1.0981 0.2471 0.0412
C15 C 0.9046(11) 0.1545(6) -0.1248(9)
H15 H 0.9483 0.1792 -0.1966
H16 H 0.8191 0.1771 -0.1114
H17 H 0.8935 0.1021 -0.1452
Cu1B Cu 1.22473(11) -0.05646(5) 0.70287(10)
Cu1B_2 Cu 0.22473(11) -0.05646(5) 0.70287(10)
C1B C 0.3911(10) -0.1843(4) 0.7799(8)
H1B H 0.3205 -0.1936 0.8364
C2B C 0.5013(9) -0.2279(4) 0.7892(9)
H2B H 0.5064 -0.2670 0.8503
C3B C 0.6036(10) -0.2134(5) 0.7076(10)
H3B H 0.6817 -0.2413 0.7134
C4B C 0.5907(9) -0.1568(4) 0.6162(8)
H4B H 0.6594 -0.1470 0.5577
C5B C 0.4786(9) -0.1154(4) 0.6112(8)
C6B C 0.4517(8) -0.0529(4) 0.5179(8)
H5B H 0.3723 -0.0648 0.4651
C7B C 0.4398(9) 0.0282(4) 0.5715(8)
H6B H 0.3562 0.0496 0.5384
C8B C 0.4493(9) 0.0441(4) 0.7162(9)
C9B C 0.5422(8) 0.0884(4) 0.7716(8)
H7B H 0.6138 0.1054 0.7224
C10B C 0.5307(9) 0.1083(5) 0.9019(9)
H8B H 0.5937 0.1391 0.9425
C11B C 0.4265(9) 0.0823(5) 0.9685(8)
H9B H 0.4141 0.0968 1.0557
C12B C 0.3399(9) 0.0355(4) 0.9103(8)
H10B H 0.2698 0.0164 0.9594
N1B N 0.3807(7) -0.1288(3) 0.6929(7)
N1B_2 N 1.3807(7) -0.1288(3) 0.6929(7)
N2B N 0.3508(7) 0.0154(3) 0.7856(6)
N2B_2 N 1.3508(7) 0.0154(3) 0.7856(6)
N3B N 1.1100(7) -0.1186(4) 0.5909(7)
N4B N 1.1625(8) -0.1554(4) 0.5101(8)
N5B N 1.2094(9) -0.1919(5) 0.4326(8)
N6B N 1.0993(7) 0.0293(4) 0.6659(6)
N7B N 1.1450(7) 0.0916(5) 0.6661(6)
N8B N 1.1860(8) 0.1506(4) 0.6672(7)
N9B N 0.8363(8) -0.0171(5) 0.5920(8)
N10B N 0.8260(7) -0.0305(4) 0.7049(9)
N11B N 0.8073(10) -0.0435(5) 0.8118(10)
O1B O 1.1620(7) -0.0987(3) 0.8886(6)
C13B C 1.0580(10) -0.1333(5) 0.8999(9)
H11B H 1.0043 -0.1393 0.8253
N12B N 1.0182(7) -0.1619(4) 1.0098(7)
C14B C 0.8968(10) -0.2044(6) 1.0167(10)
H12B H 0.8838 -0.2214 1.1056
H13B H 0.8234 -0.1730 0.9904
H14B H 0.9019 -0.2471 0.9588
C15B C 1.0954(11) -0.1545(6) 1.1248(9)
H15B H 1.0517 -0.1792 1.1966
H16B H 1.1809 -0.1771 1.1114
H17B H 1.1065 -0.1021 1.1452
loop_
_geom_bond_atom_site_label_1
_geom_bond_atom_site_label_2
_geom_bond_site_symmetry_1
_geom_bond_site_symmetry_2
Cu1 N1 1_555 1_555
Cu2 N6 1_555 1_555
C1 H1 1_555 1_555
C2 C1 1_555 1_555
H2 C2 1_555 1_555
C3 C2 1_555 1_555
H3 C3 1_555 1_555
C4 C3 1_555 1_555
H4 C4 1_555 1_555
C5 C4 1_555 1_555
C6 C5 1_555 1_555
H5 C6 1_555 1_555
C7 C6 1_555 1_555
H6 C7 1_555 1_555
C8 C7 1_555 1_555
C9 C8 1_555 1_555
H7 C9 1_555 1_555
C10 C9 1_555 1_555
H8 C10 1_555 1_555
C11 C10 1_555 1_555
H9 C11 1_555 1_555
C12 C11 1_555 1_555
H10 C12 1_555 1_555
N1 C1 1_555 1_555
N2 Cu1 1_555 1_555
N3 Cu1 1_555 1_555
N4 N3 1_555 1_555
N5 N4 1_555 1_555
N6 Cu1 1_555 1_555
N7 N6 1_555 1_555
N8 N7 1_555 1_555
N9 Cu2 1_555 1_555
N10 N9 1_555 1_555
N11 N10 1_555 1_555
O1 Cu1 1_555 1_555
C13 O1 1_555 1_555
H11 C13 1_555 1_555
N12 C13 1_555 1_555
C14 N12 1_555 1_555
H12 C14 1_555 1_555
H13 C14 1_555 1_555
H14 C14 1_555 1_555
C15 N12 1_555 1_555
H15 C15 1_555 1_555
H16 C15 1_555 1_555
H17 C15 1_555 1_555
Cu1B N1B_2 1_555 1_555
Cu1B_2 N1B 1_555 1_555
C1B H1B 1_555 1_555
C2B C1B 1_555 1_555
H2B C2B 1_555 1_555
C3B C2B 1_555 1_555
H3B C3B 1_555 1_555
C4B C3B 1_555 1_555
H4B C4B 1_555 1_555
C5B C4B 1_555 1_555
C6B C7 1_555 1_555
H5B C6B 1_555 1_555
C7B C6 1_555 1_555
H6B C7B 1_555 1_555
C8B C7B 1_555 1_555
C9B C8B 1_555 1_555
H7B C9B 1_555 1_555
C10B C9B 1_555 1_555
H8B C10B 1_555 1_555
C11B C10B 1_555 1_555
H9B C11B 1_555 1_555
C12B C11B 1_555 1_555
H10B C12B 1_555 1_555
N1B C1B 1_555 1_555
N2B Cu1B_2 1_555 1_555
N2B_2 Cu1B 1_555 1_555
N3B Cu1B 1_555 1_555
N4B N3B 1_555 1_555
N5B N4B 1_555 1_555
N6B Cu2 1_555 1_555
N7B N6B 1_555 1_555
N8B N7B 1_555 1_555
N9B Cu2 1_555 1_555
N10B N9B 1_555 1_555
N11B N10B 1_555 1_555
O1B Cu1B 1_555 1_555
C13B O1B 1_555 1_555
H11B C13B 1_555 1_555
N12B C13B 1_555 1_555
C14B N12B 1_555 1_555
H12B C14B 1_555 1_555
H13B C14B 1_555 1_555
H14B C14B 1_555 1_555
C15B N12B 1_555 1_555
H15B C15B 1_555 1_555
H16B C15B 1_555 1_555
H17B C15B 1_555 1_555
C5 N1 1_555 1_555
C8 N2 1_555 1_555
C12 N2 1_555 1_555
Cu1B N6B 1_555 1_555
C5B C6B 1_555 1_555
C5B N1B 1_555 1_555
C6B C7B 1_555 1_555
C8B N2B 1_555 1_555
C12B N2B 1_555 1_555

#END
