
#######################################################################
#
#                 Cambridge Crystallographic Data Centre
#                                CCDC 
#
#######################################################################
#
# If this CIF has been generated from an entry in the Cambridge 
# Structural Database, then it will include bibliographic, chemical, 
# crystal, experimental, refinement or atomic coordinate data resulting 
# from the CCDC's data processing and validation procedures.
#
#######################################################################

data_TIRTEU
_symmetry_cell_setting           triclinic
_symmetry_space_group_name_H-M   'P -1'
_symmetry_Int_Tables_number      2
_space_group_name_Hall           '-P 1'
loop_
_symmetry_equiv_pos_site_id
_symmetry_equiv_pos_as_xyz
1 x,y,z
2 -x,-y,-z
_cell_length_a                   5.011(3)
_cell_length_b                   6.526(3)
_cell_length_c                   12.305(7)
_cell_angle_alpha                76.868(8)
_cell_angle_beta                 84.988(8)
_cell_angle_gamma                87.619(8)
_cell_volume                     390.277
loop_
_atom_site_label
_atom_site_type_symbol
_atom_site_fract_x
_atom_site_fract_y
_atom_site_fract_z
Ni1 Ni 0.0000 0.0000 0.5000
O1 O 1.0426(5) 0.9005(4) 0.1745(2)
O2 O 0.2326(4) 0.0946(4) 0.6106(2)
H1 H 0.3610 0.0215 0.6241
H2 H 0.1448 0.0862 0.6675
O3 O -0.2198(5) 0.2779(4) 0.4847(2)
H3 H -0.1403 0.3567 0.4379
H4 H -0.2461 0.3287 0.5363
O4 O 0.1938(5) 0.4726(4) 0.3574(2)
O5 O 0.2681(4) 0.1274(4) 0.36550(19)
O6 O 1.2350(5) 0.8198(4) 0.0219(2)
C1 C 0.9016(6) 0.4758(5) 0.0461(3)
C2 C 1.4516(6) 0.7517(5) -0.1471(3)
H5 H 1.5556 0.8698 -0.1553
C3 C 0.6729(7) 0.5530(5) 0.2138(3)
H6 H 0.6466 0.6383 0.2651
C4 C 0.3097(6) 0.3218(5) 0.3248(3)
C5 C 1.0455(7) 0.7815(5) 0.1121(3)
C6 C 0.8673(6) 0.6016(5) 0.1253(3)
C7 C 1.2628(6) 0.6977(5) -0.0575(3)
C8 C 0.5163(6) 0.3758(5) 0.2259(3)
Ni1_2 Ni 2.0000 1.0000 -0.5000
O1A O 0.9574(5) 0.0995(4) -0.1745(2)
O2A O -0.2326(4) -0.0946(4) 0.3894(2)
H1A H -0.3610 -0.0215 0.3759
H2A H -0.1448 -0.0862 0.3325
O3A O 0.2198(5) -0.2779(4) 0.5153(2)
H3A H 0.1403 -0.3567 0.5621
H4A H 0.2461 -0.3287 0.4637
O4A O 1.8062(5) 0.5274(4) -0.3574(2)
O5A O 1.7319(4) 0.8726(4) -0.36550(19)
O5A_2 O -0.2681(4) -0.1274(4) 0.63450(19)
O6A O 0.7650(5) 0.1802(4) -0.0219(2)
C1A C 1.0984(6) 0.5242(5) -0.0461(3)
C2A C 0.5484(6) 0.2483(5) 0.1471(3)
H5A H 0.4444 0.1302 0.1553
C3A C 1.3271(7) 0.4470(5) -0.2138(3)
H6A H 1.3534 0.3617 -0.2651
C4A C 1.6903(6) 0.6782(5) -0.3248(3)
C5A C 0.9545(7) 0.2185(5) -0.1121(3)
C6A C 1.1327(6) 0.3984(5) -0.1253(3)
C7A C 0.7372(6) 0.3023(5) 0.0575(3)
C8A C 1.4837(6) 0.6242(5) -0.2259(3)
loop_
_geom_bond_atom_site_label_1
_geom_bond_atom_site_label_2
_geom_bond_site_symmetry_1
_geom_bond_site_symmetry_2
Ni1 O2 1_555 1_555
O1 C5 1_555 1_555
O2 H1 1_555 1_555
H2 O2 1_555 1_555
O3 Ni1 1_555 1_555
H3 O3 1_555 1_555
H4 O3 1_555 1_555
O4 C4 1_555 1_555
O5 Ni1 1_555 1_555
O6 C5 1_555 1_555
C1 C6 1_555 1_555
C2 H5 1_555 1_555
C3 H6 1_555 1_555
C4 O5 1_555 1_555
C5 C6 1_555 1_555
C6 C3 1_555 1_555
C7 O6 1_555 1_555
C8 C3 1_555 1_555
Ni1_2 O5A 1_555 1_555
O1A C5A 1_555 1_555
O2A Ni1 1_555 1_555
H1A O2A 1_555 1_555
H2A O2A 1_555 1_555
O3A Ni1 1_555 1_555
H3A O3A 1_555 1_555
H4A O3A 1_555 1_555
O4A C4A 1_555 1_555
O5A C4A 1_555 1_555
O5A_2 Ni1 1_555 1_555
O6A C5A 1_555 1_555
C1A C1 1_555 1_555
C2A C8 1_555 1_555
H5A C2A 1_555 1_555
C3A H6A 1_555 1_555
C4A C8A 1_555 1_555
C5A C6A 1_555 1_555
C6A C1A 1_555 1_555
C7A C1 1_555 1_555
C8A C2 1_555 1_555
C2 C7 1_555 1_555
C4 C8 1_555 1_555
C7 C1A 1_555 1_555
O6A C7A 1_555 1_555
C2A C7A 1_555 1_555
C3A C6A 1_555 1_555
C3A C8A 1_555 1_555

#END
