
#######################################################################
#
#                 Cambridge Crystallographic Data Centre
#                                CCDC 
#
#######################################################################
#
# If this CIF has been generated from an entry in the Cambridge 
# Structural Database, then it will include bibliographic, chemical, 
# crystal, experimental, refinement or atomic coordinate data resulting 
# from the CCDC's data processing and validation procedures.
#
#######################################################################

data_TIRTAQ
_symmetry_cell_setting           monoclinic
_symmetry_space_group_name_H-M   'P 21/n'
_symmetry_Int_Tables_number      14
_space_group_name_Hall           '-P 2yn'
loop_
_symmetry_equiv_pos_site_id
_symmetry_equiv_pos_as_xyz
1 x,y,z
2 1/2-x,1/2+y,1/2-z
3 -x,-y,-z
4 1/2+x,1/2-y,1/2+z
_cell_length_a                   10.0725(7)
_cell_length_b                   9.8937(6)
_cell_length_c                   12.0531(8)
_cell_angle_alpha                90
_cell_angle_beta                 105.605(1)
_cell_angle_gamma                90
_cell_volume                     1156.87
loop_
_atom_site_label
_atom_site_type_symbol
_atom_site_fract_x
_atom_site_fract_y
_atom_site_fract_z
Zn1 Zn 0.02487(3) 0.63230(2) 0.22368(2)
Zn2 Zn 0.10742(3) 1.12339(2) 0.19629(2)
O1 O -0.11181(16) 0.77963(15) 0.20848(14)
O2 O 0.05959(17) 0.92587(17) 0.22596(15)
O3 O -0.17952(16) 0.91767(18) -0.06069(14)
O4 O -0.40579(18) 0.87354(19) -0.10738(15)
O5 O -0.10047(17) 1.47839(15) 0.17783(14)
O6 O 0.05937(17) 1.31785(17) 0.22986(14)
O7 O -0.21185(17) 1.37244(16) -0.18218(14)
O8 O -0.03452(17) 1.3197(2) -0.04158(15)
N1 N -0.10729(18) 1.12214(17) 0.11473(16)
H3 H -0.107(2) 1.106(2) 0.046(2)
C1 C -0.0662(2) 0.8968(2) 0.19992(18)
C2 C -0.1726(2) 1.0089(2) 0.15978(17)
H4 H -0.1961 1.0425 0.2286
C3 C -0.3064(2) 0.9587(2) 0.07781(19)
H5 H -0.3407 0.8839 0.1141
H6 H -0.3741 1.0307 0.0667
C4 C -0.2952(2) 0.9129(2) -0.03962(18)
C5 C -0.0598(2) 1.3575(2) 0.17912(19)
C6 C -0.1708(2) 1.2555(2) 0.11854(18)
H7 H -0.2357 1.2463 0.1658
C7 C -0.2525(2) 1.3073(2) 0.0000(2)
H8 H -0.3214 1.2408 -0.0360
H9 H -0.3000 1.3900 0.0095
C8 C -0.1606(2) 1.3341(2) -0.07712(19)
Zn1C Zn -0.47513(3) 0.86770(2) -0.27632(2)
Zn1_2 Zn 0.02487(3) 1.63230(2) 0.22368(2)
Zn1B Zn -0.02487(3) 1.36770(2) -0.22368(2)
Zn2B Zn -0.10742(3) 0.87661(2) -0.19629(2)
Zn2C Zn -0.39258(3) 1.37661(2) -0.30371(2)
O3B O 0.17952(16) 1.08233(18) 0.06069(14)
O4C O 0.09421(18) 0.62646(19) 0.39262(15)
O5_2 O -0.10047(17) 0.47839(15) 0.17783(14)
O7B O 0.21185(17) 0.62756(16) 0.18218(14)
O7C O 0.28815(17) 1.12756(16) 0.31782(14)
O8B O 0.03452(17) 0.6803(2) 0.04158(15)
O9 O -0.3945(7) -0.3856(6) 0.0497(6)
H1 H -0.338(7) -0.372(11) 0.014(7)
H2 H -0.463(5) -0.411(10) 0.004(6)
loop_
_geom_bond_atom_site_label_1
_geom_bond_atom_site_label_2
_geom_bond_site_symmetry_1
_geom_bond_site_symmetry_2
Zn1 O1 1_555 1_555
Zn2 O2 1_555 1_555
O1 C1 1_555 1_555
O2 C1 1_555 1_555
O3 C4 1_555 1_555
O4 C4 1_555 1_555
O5 C5 1_555 1_555
O6 Zn2 1_555 1_555
O7 C8 1_555 1_555
O8 C8 1_555 1_555
O9 H1 1_555 1_555
H2 O9 1_555 1_555
N1 Zn2 1_555 1_555
H3 N1 1_555 1_555
C1 C2 1_555 1_555
C2 N1 1_555 1_555
H4 C2 1_555 1_555
C3 C2 1_555 1_555
H5 C3 1_555 1_555
H6 C3 1_555 1_555
C4 C3 1_555 1_555
C5 O6 1_555 1_555
C6 N1 1_555 1_555
H7 C6 1_555 1_555
C7 C6 1_555 1_555
H8 C7 1_555 1_555
H9 C7 1_555 1_555
C8 C7 1_555 1_555
Zn1C O4 1_555 1_555
Zn1_2 O5 1_555 1_555
Zn1B O7 1_555 1_555
Zn2B O3 1_555 1_555
Zn2C O7 1_555 1_555
O3B Zn2 1_555 1_555
O4C Zn1 1_555 1_555
O5_2 Zn1 1_555 1_555
O7B Zn1 1_555 1_555
O7C Zn2 1_555 1_555
O8B Zn1 1_555 1_555
O8 Zn1B 1_555 1_555
C5 C6 1_555 1_555

#END
