
#######################################################################
#
#                 Cambridge Crystallographic Data Centre
#                                CCDC 
#
#######################################################################
#
# If this CIF has been generated from an entry in the Cambridge 
# Structural Database, then it will include bibliographic, chemical, 
# crystal, experimental, refinement or atomic coordinate data resulting 
# from the CCDC's data processing and validation procedures.
#
#######################################################################

data_TIRWOI
_symmetry_cell_setting           orthorhombic
_symmetry_space_group_name_H-M   'P b c n'
_symmetry_Int_Tables_number      60
_space_group_name_Hall           '-P 2n 2ab'
loop_
_symmetry_equiv_pos_site_id
_symmetry_equiv_pos_as_xyz
1 x,y,z
2 1/2-x,1/2-y,1/2+z
3 -x,y,1/2-z
4 1/2+x,1/2-y,-z
5 -x,-y,-z
6 1/2+x,1/2+y,1/2-z
7 x,-y,1/2+z
8 1/2-x,1/2+y,z
_cell_length_a                   8.731(3)
_cell_length_b                   21.569(7)
_cell_length_c                   15.400(5)
_cell_angle_alpha                90
_cell_angle_beta                 90
_cell_angle_gamma                90
_cell_volume                     2900.11
loop_
_atom_site_label
_atom_site_type_symbol
_atom_site_fract_x
_atom_site_fract_y
_atom_site_fract_z
Mn1 Mn 0.0000 0.23487(7) 0.2500
N1 N 0.0186(6) 0.2024(3) 0.1101(4)
C1 C 0.0955(12) 0.1700(5) -0.0585(6)
H1 H 0.1218 0.1592 -0.1151
C2 C 0.0519(8) 0.2466(4) 0.0512(5)
C3 C 0.0240(9) 0.1429(4) 0.0838(6)
H2 H 0.0037 0.1119 0.1242
C4 C 0.0940(10) 0.2310(5) -0.0330(5)
H3 H 0.1212 0.2619 -0.0722
C5 C 0.0580(12) 0.1259(5) 0.0001(6)
H4 H 0.0554 0.0844 -0.0161
C6 C 0.0415(8) 0.3108(4) 0.0831(5)
C7 C 0.0566(11) 0.3620(4) 0.0182(6)
C8 C 0.1739(13) 0.4038(5) 0.0269(7)
H5 H 0.2414 0.4016 0.0736
C9 C -0.0314(17) 0.4106(8) -0.1131(9)
H6 H -0.0956 0.4121 -0.1613
C10 C 0.085(2) 0.4540(7) -0.1010(13)
H7 H 0.0896 0.4875 -0.1390
C11 C -0.0468(13) 0.3655(5) -0.0511(7)
H8 H -0.1264 0.3370 -0.0551
C12 C 0.1892(19) 0.4504(7) -0.0376(12)
H9 H 0.2709 0.4781 -0.0358
N2 N 0.0201(7) 0.3179(3) 0.1643(4)
N3 N 0.2435(9) 0.2153(4) 0.2562(3)
C13 C 0.3684(14) 0.2215(7) 0.2526(4)
C14 C 0.0018(16) 0.3770(5) 0.2056(7)
H10 H 0.0851 0.4037 0.1871
H11 H -0.0927 0.3955 0.1848
N4 N 0.5000 0.239(2) 0.2500
N1B N -0.0186(6) 0.2024(3) 0.3899(4)
C1B C -0.0955(12) 0.1700(5) 0.5585(6)
H1B H -0.1218 0.1592 0.6151
C2B C -0.0519(8) 0.2466(4) 0.4488(5)
C3B C -0.0240(9) 0.1429(4) 0.4162(6)
H2B H -0.0037 0.1119 0.3758
C4B C -0.0940(10) 0.2310(5) 0.5330(5)
H3B H -0.1212 0.2619 0.5722
C5B C -0.0580(12) 0.1259(5) 0.4999(6)
H4B H -0.0554 0.0844 0.5161
C6B C -0.0415(8) 0.3108(4) 0.4169(5)
C7B C -0.0566(11) 0.3620(4) 0.4818(6)
C8B C -0.1739(13) 0.4038(5) 0.4731(7)
H5B H -0.2414 0.4016 0.4264
C9B C 0.0314(17) 0.4106(8) 0.6131(9)
H6B H 0.0956 0.4121 0.6613
C10B C -0.085(2) 0.4540(7) 0.6010(13)
H7B H -0.0896 0.4875 0.6390
C11B C 0.0468(13) 0.3655(5) 0.5511(7)
H8B H 0.1264 0.3370 0.5551
C12B C -0.1892(19) 0.4504(7) 0.5376(12)
H9B H -0.2709 0.4781 0.5358
N2B N -0.0201(7) 0.3179(3) 0.3357(4)
C14B C -0.0018(16) 0.3770(5) 0.2944(7)
H10B H -0.0851 0.4037 0.3129
H11B H 0.0927 0.3955 0.3152
N3B N 0.7565(9) 0.2153(4) 0.2438(3)
C13B C 0.6316(14) 0.2215(7) 0.2474(4)
Mn1_2 Mn 1.0000 0.23487(7) 0.2500
N3B_2 N -0.2435(9) 0.2153(4) 0.2438(3)
P1 P 0.0000 0.02373(18) 0.7500
F1 F 0.0042(12) 0.0213(5) 0.8507(6)
F2 F 0.1108(19) 0.0705(10) 0.7435(9)
F3 F -0.105(2) -0.0293(7) 0.7508(7)
F1B F -0.0042(12) 0.0213(5) 0.6493(6)
F2B F -0.1108(19) 0.0705(10) 0.7565(9)
F3B F 0.105(2) -0.0293(7) 0.7492(7)
loop_
_geom_bond_atom_site_label_1
_geom_bond_atom_site_label_2
_geom_bond_site_symmetry_1
_geom_bond_site_symmetry_2
Mn1 N1 1_555 1_555
N1 C2 1_555 1_555
C1 H1 1_555 1_555
C2 C4 1_555 1_555
C3 N1 1_555 1_555
H2 C3 1_555 1_555
C4 C1 1_555 1_555
H3 C4 1_555 1_555
C5 C1 1_555 1_555
H4 C5 1_555 1_555
C6 C2 1_555 1_555
C7 C6 1_555 1_555
C8 C7 1_555 1_555
H5 C8 1_555 1_555
C9 H6 1_555 1_555
C10 C9 1_555 1_555
H7 C10 1_555 1_555
C11 C7 1_555 1_555
H8 C11 1_555 1_555
C12 C8 1_555 1_555
H9 C12 1_555 1_555
N2 Mn1 1_555 1_555
N3 Mn1 1_555 1_555
C13 N3 1_555 1_555
C14 N2 1_555 1_555
H10 C14 1_555 1_555
H11 C14 1_555 1_555
N4 C13 1_555 1_555
P1 F1 1_555 1_555
F2 P1 1_555 1_555
F3 P1 1_555 1_555
N1B Mn1 1_555 1_555
C1B H1B 1_555 1_555
C2B N1B 1_555 1_555
C3B N1B 1_555 1_555
H2B C3B 1_555 1_555
C4B C1B 1_555 1_555
H3B C4B 1_555 1_555
C5B C1B 1_555 1_555
H4B C5B 1_555 1_555
C6B C2B 1_555 1_555
C7B C6B 1_555 1_555
C8B C7B 1_555 1_555
H5B C8B 1_555 1_555
C9B H6B 1_555 1_555
C10B C9B 1_555 1_555
H7B C10B 1_555 1_555
C11B C7B 1_555 1_555
H8B C11B 1_555 1_555
C12B C8B 1_555 1_555
H9B C12B 1_555 1_555
N2B Mn1 1_555 1_555
C14B C14 1_555 1_555
H10B C14B 1_555 1_555
H11B C14B 1_555 1_555
N3B C13B 1_555 1_555
C13B N4 1_555 1_555
Mn1_2 N3B 1_555 1_555
N3B_2 Mn1 1_555 1_555
F1B P1 1_555 1_555
F2B P1 1_555 1_555
F3B P1 1_555 1_555
C3 C5 1_555 1_555
C6 N2 1_555 1_555
C9 C11 1_555 1_555
C10 C12 1_555 1_555
C2B C4B 1_555 1_555
C3B C5B 1_555 1_555
C6B N2B 1_555 1_555
C9B C11B 1_555 1_555
C10B C12B 1_555 1_555
N2B C14B 1_555 1_555

#END
