
#######################################################################
#
#                 Cambridge Crystallographic Data Centre
#                                CCDC 
#
#######################################################################
#
# If this CIF has been generated from an entry in the Cambridge 
# Structural Database, then it will include bibliographic, chemical, 
# crystal, experimental, refinement or atomic coordinate data resulting 
# from the CCDC's data processing and validation procedures.
#
#######################################################################

data_TIRWUO
_symmetry_cell_setting           monoclinic
_symmetry_space_group_name_H-M   'P 21/c'
_symmetry_Int_Tables_number      14
_space_group_name_Hall           '-P 2ybc'
loop_
_symmetry_equiv_pos_site_id
_symmetry_equiv_pos_as_xyz
1 x,y,z
2 -x,1/2+y,1/2-z
3 -x,-y,-z
4 x,1/2-y,1/2+z
_cell_length_a                   18.4828(5)
_cell_length_b                   11.0510(3)
_cell_length_c                   15.2883(4)
_cell_angle_alpha                90
_cell_angle_beta                 108.719(2)
_cell_angle_gamma                90
_cell_volume                     2957.51
loop_
_atom_site_label
_atom_site_type_symbol
_atom_site_fract_x
_atom_site_fract_y
_atom_site_fract_z
Mn1 Mn 0.74445(3) 0.07338(6) 0.29307(4)
N1 N 0.60888(18) 0.0318(3) 0.2287(2)
N2 N 0.71883(18) -0.1073(3) 0.2083(2)
N3 N 0.85881(18) 0.1913(3) 0.3797(2)
N4 N 0.7000(2) 0.1833(4) 0.3885(2)
N5 N 0.6527(2) 0.2613(4) 0.5089(2)
N6 N 0.85619(19) 0.0085(4) 0.2669(2)
N7 N 0.7209(2) 0.3119(4) 0.6690(2)
O1 O 0.7687(2) -0.0664(3) 0.4057(2)
C1 C 0.7954(4) -0.0537(6) 0.4998(4)
H1 H 0.7995 -0.1319 0.5283
H2 H 0.7607 -0.0043 0.5193
H3 H 0.8448 -0.0159 0.5177
C2 C 0.6925(2) 0.2880(4) 0.5931(3)
C3 C 0.6513(2) -0.1442(4) 0.1669(3)
C4 C 0.6819(2) 0.2206(4) 0.4483(3)
C5 C 0.5875(2) -0.0713(4) 0.1795(3)
C6 C 0.9219(2) 0.0509(4) 0.3090(3)
C7 C 0.9263(2) 0.1537(4) 0.3731(2)
C8 C 0.9951(2) 0.0078(4) 0.2962(3)
C9 C 0.8597(2) 0.2885(4) 0.4322(3)
H4 H 0.8136 0.3162 0.4368
C10 C 0.6303(2) -0.2543(4) 0.1069(3)
C11 C 1.0277(3) 0.0691(5) 0.2405(3)
H5 H 1.0044 0.1388 0.2101
C12 C 0.8442(3) -0.0842(5) 0.1950(3)
H6 H 0.8919 -0.1259 0.2020
H7 H 0.8275 -0.0462 0.1346
C13 C 1.1302(3) -0.0725(5) 0.2732(4)
H8 H 1.1760 -0.0981 0.2664
C14 C 0.9937(3) 0.3096(5) 0.4755(3)
H9 H 1.0390 0.3480 0.5084
C15 C 0.5539(3) 0.1006(5) 0.2398(3)
H10 H 0.5677 0.1728 0.2721
C16 C 0.5125(2) -0.1057(5) 0.1448(3)
H11 H 0.4993 -0.1774 0.1117
C17 C 0.7852(2) -0.1735(5) 0.2020(3)
H12 H 0.7705 -0.2254 0.1480
H13 H 0.8060 -0.2238 0.2563
C18 C 0.9942(2) 0.2099(4) 0.4208(3)
H14 H 1.0401 0.1810 0.4162
C19 C 0.4776(3) 0.0714(5) 0.2064(4)
H15 H 0.4411 0.1229 0.2161
C20 C 0.6462(3) -0.3688(5) 0.1444(3)
H16 H 0.6715 -0.3781 0.2072
C21 C 1.0944(3) 0.0288(6) 0.2290(4)
H17 H 1.1155 0.0713 0.1906
C22 C 1.0977(3) -0.1354(5) 0.3273(4)
H18 H 1.1208 -0.2057 0.3566
C23 C 0.5933(3) -0.2428(5) 0.0126(3)
H19 H 0.5822 -0.1666 -0.0141
C24 C 0.9261(3) 0.3498(4) 0.4801(3)
H20 H 0.9240 0.4178 0.5149
C25 C 0.5729(3) -0.3467(6) -0.0418(4)
H21 H 0.5486 -0.3388 -0.1051
C26 C 0.4564(3) -0.0329(5) 0.1593(4)
H22 H 0.4052 -0.0555 0.1372
C27 C 0.6244(3) -0.4704(5) 0.0881(5)
H23 H 0.6348 -0.5474 0.1135
C28 C 1.0302(3) -0.0950(5) 0.3389(3)
H24 H 1.0086 -0.1386 0.3762
C29 C 0.5875(3) -0.4569(6) -0.0048(4)
H25 H 0.5727 -0.5249 -0.0421
Mn1C Mn 0.74445(3) 0.42662(6) 0.79307(4)
N7C N 0.7209(2) 0.1881(4) 0.1690(2)
Cl1 Cl 0.75336(7) 0.60018(13) 0.41900(9)
O2 O 0.7032(2) 0.6994(4) 0.3773(3)
O3 O 0.7253(3) 0.5399(5) 0.4820(3)
O4 O 0.7510(4) 0.5167(5) 0.3462(3)
O5 O 0.8251(2) 0.6445(6) 0.4624(4)
loop_
_geom_bond_atom_site_label_1
_geom_bond_atom_site_label_2
_geom_bond_site_symmetry_1
_geom_bond_site_symmetry_2
Mn1 N1 1_555 1_555
N1 C5 1_555 1_555
N2 Mn1 1_555 1_555
N3 Mn1 1_555 1_555
N4 Mn1 1_555 1_555
N5 C2 1_555 1_555
N6 Mn1 1_555 1_555
N7 C2 1_555 1_555
O1 Mn1 1_555 1_555
C1 O1 1_555 1_555
H1 C1 1_555 1_555
H2 C1 1_555 1_555
H3 C1 1_555 1_555
C3 N2 1_555 1_555
C4 N4 1_555 1_555
C5 C3 1_555 1_555
C6 N6 1_555 1_555
C7 N3 1_555 1_555
C8 C6 1_555 1_555
C9 N3 1_555 1_555
H4 C9 1_555 1_555
C10 C3 1_555 1_555
C11 C8 1_555 1_555
H5 C11 1_555 1_555
C12 N6 1_555 1_555
H6 C12 1_555 1_555
H7 C12 1_555 1_555
C13 H8 1_555 1_555
C14 H9 1_555 1_555
C15 N1 1_555 1_555
H10 C15 1_555 1_555
C16 C5 1_555 1_555
H11 C16 1_555 1_555
C17 N2 1_555 1_555
H12 C17 1_555 1_555
H13 C17 1_555 1_555
C18 C7 1_555 1_555
H14 C18 1_555 1_555
C19 C15 1_555 1_555
H15 C19 1_555 1_555
C20 C10 1_555 1_555
H16 C20 1_555 1_555
C21 C11 1_555 1_555
H17 C21 1_555 1_555
C22 C13 1_555 1_555
H18 C22 1_555 1_555
C23 C10 1_555 1_555
H19 C23 1_555 1_555
C24 C9 1_555 1_555
H20 C24 1_555 1_555
C25 C23 1_555 1_555
H21 C25 1_555 1_555
C26 C16 1_555 1_555
H22 C26 1_555 1_555
C27 C20 1_555 1_555
H23 C27 1_555 1_555
C28 C8 1_555 1_555
H24 C28 1_555 1_555
C29 C25 1_555 1_555
H25 C29 1_555 1_555
Cl1 O2 1_555 1_555
O3 Cl1 1_555 1_555
O4 Cl1 1_555 1_555
O5 Cl1 1_555 1_555
Mn1C N7 1_555 1_555
N7C Mn1 1_555 1_555
N5 C4 1_555 1_555
C6 C7 1_555 1_555
C12 C17 1_555 1_555
C13 C21 1_555 1_555
C14 C18 1_555 1_555
C14 C24 1_555 1_555
C19 C26 1_555 1_555
C22 C28 1_555 1_555
C27 C29 1_555 1_555

#END
