
#######################################################################
#
#                 Cambridge Crystallographic Data Centre
#                                CCDC 
#
#######################################################################
#
# If this CIF has been generated from an entry in the Cambridge 
# Structural Database, then it will include bibliographic, chemical, 
# crystal, experimental, refinement or atomic coordinate data resulting 
# from the CCDC's data processing and validation procedures.
#
#######################################################################

data_TIRWEY
_symmetry_cell_setting           monoclinic
_symmetry_space_group_name_H-M   'C 2/c'
_symmetry_Int_Tables_number      15
_space_group_name_Hall           '-C 2yn'
loop_
_symmetry_equiv_pos_site_id
_symmetry_equiv_pos_as_xyz
1 x,y,z
2 -x,y,1/2-z
3 1/2+x,1/2+y,z
4 1/2-x,1/2+y,1/2-z
5 -x,-y,-z
6 x,-y,1/2+z
7 1/2-x,1/2-y,-z
8 1/2+x,1/2-y,1/2+z
_cell_length_a                   16.1902(18)
_cell_length_b                   23.799(3)
_cell_length_c                   16.0948(18)
_cell_angle_alpha                90
_cell_angle_beta                 112.444(2)
_cell_angle_gamma                90
_cell_volume                     5731.75
loop_
_atom_site_label
_atom_site_type_symbol
_atom_site_fract_x
_atom_site_fract_y
_atom_site_fract_z
Co1 Co 0.23270(4) 0.35442(3) 0.59267(4)
N1 N 0.3004(3) 0.35770(15) 0.5108(3)
O1 O 0.1391(2) 0.29660(13) 0.5592(2)
N2 N 0.1754(3) 0.57020(16) 0.0970(2)
C1 C 0.0018(3) 0.26388(18) 0.4529(3)
C2 C 0.0814(3) 0.3018(2) 0.4792(4)
N3 N 0.1542(3) 0.47780(16) 0.1052(3)
O2 O 0.0874(2) 0.33725(16) 0.4252(2)
C3 C -0.0315(3) 0.24798(18) 0.5163(3)
H1 H -0.0024 0.2580 0.5763
N4 N 0.3313(3) 0.34356(16) 0.3883(3)
C4 C 0.2757(3) 0.33359(19) 0.4304(3)
H2 H 0.2244 0.3118 0.4057
C5 C 0.2410(4) 0.3398(2) 0.2240(4)
H3 H 0.2365 0.3202 0.1697
H4 H 0.1883 0.3306 0.2362
C6 C 0.0946(3) 0.5610(2) 0.1076(3)
C7 C 0.2074(3) 0.5189(2) 0.0962(3)
H5 H 0.2614 0.5120 0.0900
C8 C -0.0416(3) 0.24681(19) 0.3642(3)
H6 H -0.0189 0.2585 0.3220
C9 C 0.0802(3) 0.5035(2) 0.1123(3)
C10 C 0.4007(3) 0.3756(2) 0.4460(4)
C11 C -0.1513(3) 0.19890(19) 0.3995(4)
H7 H -0.2029 0.1772 0.3829
C12 C -0.1163(4) 0.21356(19) 0.3360(3)
C13 C 0.0056(4) 0.4826(2) 0.1225(3)
H8 H -0.0026 0.4441 0.1252
C14 C 0.4429(4) 0.4119(2) 0.5955(4)
H9 H 0.4320 0.4165 0.6477
C15 C 0.3825(3) 0.38351(19) 0.5234(3)
C16 C -0.0421(4) 0.5780(3) 0.1268(3)
C17 C -0.1089(3) 0.2168(2) 0.4884(3)
C18 C 0.3227(4) 0.3190(2) 0.3011(3)
H10 H 0.3196 0.2784 0.3046
H11 H 0.3756 0.3282 0.2893
C19 C 0.5206(4) 0.4337(2) 0.5898(5)
C20 C -0.0567(4) 0.5195(3) 0.1289(3)
N5 N -0.1446(4) 0.2005(2) 0.5541(4)
C21 C 0.4774(4) 0.3978(2) 0.4392(5)
H12 H 0.4882 0.3935 0.3869
C22 C 0.0329(4) 0.5985(2) 0.1157(3)
H13 H 0.0417 0.6370 0.1137
C23 C 0.2416(4) 0.4012(2) 0.2080(4)
H14 H 0.3008 0.4125 0.2128
H15 H 0.2279 0.4211 0.2538
C24 C 0.5373(4) 0.4266(3) 0.5124(6)
C25 C 0.1727(4) 0.4171(2) 0.1143(3)
H16 H 0.1174 0.3970 0.1035
H17 H 0.1950 0.4054 0.0690
O3 O -0.2186(4) 0.1787(3) 0.5285(4)
C26 C -0.1384(4) 0.4969(3) 0.1412(4)
H18 H -0.1912 0.5111 0.0943
H19 H -0.1382 0.4566 0.1385
H20 H -0.1377 0.5086 0.1985
O4 O -0.1004(4) 0.2085(3) 0.6327(4)
C27 C 0.6217(4) 0.4490(3) 0.5053(6)
H21 H 0.6266 0.4885 0.5181
H22 H 0.6195 0.4429 0.4455
H23 H 0.6725 0.4299 0.5477
C28 C -0.1089(4) 0.6197(3) 0.1380(4)
H24 H -0.1180 0.6113 0.1922
H25 H -0.0859 0.6572 0.1413
H26 H -0.1647 0.6168 0.0874
C29 C 0.5874(4) 0.4638(3) 0.6719(5)
H27 H 0.6350 0.4386 0.7045
H28 H 0.5577 0.4760 0.7102
H29 H 0.6115 0.4959 0.6526
O5 O -0.2065(3) 0.15412(17) 0.2227(3)
O6 O -0.1479(3) 0.22550(19) 0.1806(3)
C30 C -0.1586(4) 0.1950(2) 0.2383(3)
Co1E Co 0.23270(4) 0.64558(3) 0.09267(4)
Co1G Co -0.26730(4) 0.14558(3) 0.09267(4)
N2E N 0.1754(3) 0.42980(16) 0.5970(2)
O5G O 0.2935(3) 0.34588(17) 0.7227(3)
loop_
_geom_bond_atom_site_label_1
_geom_bond_atom_site_label_2
_geom_bond_site_symmetry_1
_geom_bond_site_symmetry_2
Co1 N1 1_555 1_555
N1 C4 1_555 1_555
O1 Co1 1_555 1_555
N2 C6 1_555 1_555
C1 C2 1_555 1_555
C2 O1 1_555 1_555
N3 C7 1_555 1_555
O2 C2 1_555 1_555
C3 C1 1_555 1_555
H1 C3 1_555 1_555
N4 C4 1_555 1_555
C4 H2 1_555 1_555
C5 H3 1_555 1_555
H4 C5 1_555 1_555
C6 C9 1_555 1_555
C7 N2 1_555 1_555
H5 C7 1_555 1_555
C8 C1 1_555 1_555
H6 C8 1_555 1_555
C9 N3 1_555 1_555
C10 N4 1_555 1_555
C11 H7 1_555 1_555
C12 C8 1_555 1_555
C13 C9 1_555 1_555
H8 C13 1_555 1_555
C14 H9 1_555 1_555
C15 N1 1_555 1_555
C16 C20 1_555 1_555
C17 C3 1_555 1_555
C18 N4 1_555 1_555
H10 C18 1_555 1_555
H11 C18 1_555 1_555
C19 C14 1_555 1_555
C20 C13 1_555 1_555
N5 C17 1_555 1_555
C21 C10 1_555 1_555
H12 C21 1_555 1_555
C22 C6 1_555 1_555
H13 C22 1_555 1_555
C23 C5 1_555 1_555
H14 C23 1_555 1_555
H15 C23 1_555 1_555
C24 C19 1_555 1_555
C25 N3 1_555 1_555
H16 C25 1_555 1_555
H17 C25 1_555 1_555
O3 N5 1_555 1_555
C26 C20 1_555 1_555
H18 C26 1_555 1_555
H19 C26 1_555 1_555
H20 C26 1_555 1_555
O4 N5 1_555 1_555
C27 C24 1_555 1_555
H21 C27 1_555 1_555
H22 C27 1_555 1_555
H23 C27 1_555 1_555
C28 C16 1_555 1_555
H24 C28 1_555 1_555
H25 C28 1_555 1_555
H26 C28 1_555 1_555
C29 C19 1_555 1_555
H27 C29 1_555 1_555
H28 C29 1_555 1_555
H29 C29 1_555 1_555
O5 C30 1_555 1_555
O6 C30 1_555 1_555
C30 C12 1_555 1_555
Co1E N2 1_555 1_555
Co1G O5 1_555 1_555
N2E Co1 1_555 1_555
O5G Co1 1_555 1_555
C5 C18 1_555 1_555
C10 C15 1_555 1_555
C11 C12 1_555 1_555
C11 C17 1_555 1_555
C14 C15 1_555 1_555
C16 C22 1_555 1_555
C21 C24 1_555 1_555
C23 C25 1_555 1_555

#END
