
#######################################################################
#
#                 Cambridge Crystallographic Data Centre
#                                CCDC 
#
#######################################################################
#
# If this CIF has been generated from an entry in the Cambridge 
# Structural Database, then it will include bibliographic, chemical, 
# crystal, experimental, refinement or atomic coordinate data resulting 
# from the CCDC's data processing and validation procedures.
#
#######################################################################

data_TIRWAU
_symmetry_cell_setting           triclinic
_symmetry_space_group_name_H-M   'P -1'
_symmetry_Int_Tables_number      2
_space_group_name_Hall           '-P 1'
loop_
_symmetry_equiv_pos_site_id
_symmetry_equiv_pos_as_xyz
1 x,y,z
2 -x,-y,-z
_cell_length_a                   7.1538(8)
_cell_length_b                   12.2333(13)
_cell_length_c                   15.2989(17)
_cell_angle_alpha                69.8510(10)
_cell_angle_beta                 83.0780(10)
_cell_angle_gamma                88.825(2)
_cell_volume                     1247.46
loop_
_atom_site_label
_atom_site_type_symbol
_atom_site_fract_x
_atom_site_fract_y
_atom_site_fract_z
Co1 Co 0.60920(6) 0.22592(4) 0.06906(3)
O1 O 0.6315(3) 0.83203(19) -0.04797(15)
O2 O 0.7850(4) 0.8855(2) 0.04874(18)
O3 O 0.4680(4) 0.2980(2) 0.19778(18)
O4 O 0.6491(3) 0.38587(19) 0.06557(16)
O5 O 0.3687(4) 0.5110(2) 0.42179(18)
O6 O 0.3803(4) 0.6985(2) 0.36814(18)
N1 N 0.7297(4) 0.0932(2) 0.16396(17)
N2 N 0.9494(4) -0.0322(2) 0.22184(18)
N3 N 1.1387(4) -0.1720(2) 0.17157(18)
N4 N 1.2171(4) -0.2300(2) 0.04989(17)
N5 N 0.4107(4) 0.6038(3) 0.3600(2)
C1 C 0.8990(5) 0.0553(3) 0.1482(2)
H1 H 0.9762 0.0861 0.0916
C2 C 0.6616(4) 0.0230(3) 0.2556(2)
C3 C 0.4882(5) 0.0225(3) 0.3088(2)
H2 H 0.3963 0.0755 0.2846
C4 C 0.4567(5) -0.0588(3) 0.3985(2)
C5 C 0.2661(5) -0.0640(4) 0.4550(3)
H3 H 0.1877 -0.0049 0.4193
H4 H 0.2818 -0.0512 0.5122
H5 H 0.2079 -0.1392 0.4694
C6 C 0.5988(5) -0.1370(3) 0.4366(2)
C7 C 0.5651(6) -0.2222(3) 0.5351(3)
H6 H 0.4728 -0.2797 0.5383
H7 H 0.5202 -0.1816 0.5769
H8 H 0.6808 -0.2595 0.5529
C8 C 0.7699(5) -0.1349(3) 0.3834(2)
H9 H 0.8643 -0.1854 0.4082
C9 C 0.7985(4) -0.0560(3) 0.2922(2)
C10 C 1.1281(5) -0.0910(3) 0.2229(2)
H10 H 1.1477 -0.1333 0.2874
H11 H 1.2288 -0.0330 0.1958
C11 C 1.2154(4) -0.1431(3) 0.0810(2)
H12 H 1.2622 -0.0689 0.0447
C12 C 1.1319(4) -0.3247(3) 0.1253(2)
C13 C 1.1008(4) -0.4387(3) 0.1331(2)
H13 H 1.1308 -0.4622 0.0816
C14 C 1.0250(4) -0.5176(3) 0.2181(2)
C15 C 0.9986(5) -0.6430(3) 0.2276(3)
H14 H 1.0237 -0.6507 0.1670
H15 H 0.8713 -0.6682 0.2536
H16 H 1.0838 -0.6901 0.2683
C16 C 0.9778(4) -0.4805(3) 0.2961(2)
C17 C 0.8990(6) -0.5659(3) 0.3906(3)
H17 H 0.9962 -0.6175 0.4174
H18 H 0.7970 -0.6102 0.3830
H19 H 0.8539 -0.5240 0.4314
C18 C 1.0035(4) -0.3655(3) 0.2877(2)
H20 H 0.9685 -0.3406 0.3382
C19 C 1.0827(4) -0.2881(3) 0.2019(2)
C20 C 0.5577(4) 0.4961(3) 0.1627(2)
C21 C 0.4876(4) 0.4983(3) 0.2510(2)
H21 H 0.4394 0.4307 0.2983
C22 C 0.4911(4) 0.6013(3) 0.2670(2)
C23 C 0.5623(4) 0.7043(3) 0.1993(2)
H22 H 0.5685 0.7723 0.2132
C24 C 0.6240(4) 0.7030(3) 0.1102(2)
C25 C 0.6231(4) 0.5996(3) 0.0926(2)
H23 H 0.6668 0.5992 0.0329
C26 C 0.5555(5) 0.3855(3) 0.1427(2)
C27 C 0.6868(4) 0.8164(3) 0.0324(2)
Co1A Co 0.39080(6) 0.77408(4) -0.06906(3)
Co1A_2 Co 1.39080(6) -0.22592(4) -0.06906(3)
O1A O 0.3685(3) 0.16797(19) 0.04797(15)
N4A N 0.7829(4) 0.2300(2) -0.04989(17)
loop_
_geom_bond_atom_site_label_1
_geom_bond_atom_site_label_2
_geom_bond_site_symmetry_1
_geom_bond_site_symmetry_2
Co1 O4 1_555 1_555
O1 C27 1_555 1_555
O2 C27 1_555 1_555
O3 C26 1_555 1_555
O4 C26 1_555 1_555
O5 N5 1_555 1_555
O6 N5 1_555 1_555
N1 Co1 1_555 1_555
N2 C1 1_555 1_555
N3 C10 1_555 1_555
N4 C11 1_555 1_555
N5 C22 1_555 1_555
C1 N1 1_555 1_555
H1 C1 1_555 1_555
C2 N1 1_555 1_555
C3 C2 1_555 1_555
H2 C3 1_555 1_555
C4 C3 1_555 1_555
C5 C4 1_555 1_555
H3 C5 1_555 1_555
H4 C5 1_555 1_555
H5 C5 1_555 1_555
C6 C4 1_555 1_555
C7 C6 1_555 1_555
H6 C7 1_555 1_555
H7 C7 1_555 1_555
H8 C7 1_555 1_555
C8 C6 1_555 1_555
H9 C8 1_555 1_555
C9 N2 1_555 1_555
C10 N2 1_555 1_555
H10 C10 1_555 1_555
H11 C10 1_555 1_555
C11 N3 1_555 1_555
H12 C11 1_555 1_555
C12 N4 1_555 1_555
C13 C12 1_555 1_555
H13 C13 1_555 1_555
C14 C13 1_555 1_555
C15 C14 1_555 1_555
H14 C15 1_555 1_555
H15 C15 1_555 1_555
H16 C15 1_555 1_555
C16 C14 1_555 1_555
C17 C16 1_555 1_555
H17 C17 1_555 1_555
H18 C17 1_555 1_555
H19 C17 1_555 1_555
C18 C16 1_555 1_555
H20 C18 1_555 1_555
C19 N3 1_555 1_555
C20 C21 1_555 1_555
C21 H21 1_555 1_555
C22 C21 1_555 1_555
C23 C22 1_555 1_555
H22 C23 1_555 1_555
C24 C23 1_555 1_555
C25 C20 1_555 1_555
H23 C25 1_555 1_555
C26 C20 1_555 1_555
C27 C24 1_555 1_555
Co1A O1 1_555 1_555
Co1A_2 N4 1_555 1_555
O1A Co1 1_555 1_555
N4A Co1 1_555 1_555
C2 C9 1_555 1_555
C8 C9 1_555 1_555
C12 C19 1_555 1_555
C18 C19 1_555 1_555
C24 C25 1_555 1_555

#END
