
#######################################################################
#
#                 Cambridge Crystallographic Data Centre
#                                CCDC 
#
#######################################################################
#
# If this CIF has been generated from an entry in the Cambridge 
# Structural Database, then it will include bibliographic, chemical, 
# crystal, experimental, refinement or atomic coordinate data resulting 
# from the CCDC's data processing and validation procedures.
#
#######################################################################

data_TIRXAT
_symmetry_cell_setting           monoclinic
_symmetry_space_group_name_H-M   'C 2/c'
_symmetry_Int_Tables_number      15
_space_group_name_Hall           '-C 2yn'
loop_
_symmetry_equiv_pos_site_id
_symmetry_equiv_pos_as_xyz
1 x,y,z
2 -x,y,1/2-z
3 1/2+x,1/2+y,z
4 1/2-x,1/2+y,1/2-z
5 -x,-y,-z
6 x,-y,1/2+z
7 1/2-x,1/2-y,-z
8 1/2+x,1/2-y,1/2+z
_cell_length_a                   24.652(6)
_cell_length_b                   8.269(2)
_cell_length_c                   13.319(3)
_cell_angle_alpha                90
_cell_angle_beta                 116.15(2)
_cell_angle_gamma                90
_cell_volume                     2437.14
loop_
_atom_site_label
_atom_site_type_symbol
_atom_site_fract_x
_atom_site_fract_y
_atom_site_fract_z
Cd1 Cd 0.7047(1) 1.4408(1) -0.1892(1)
S1 S 0.7439(1) 1.4621(1) 0.1012(1)
O1 O 0.7110(1) 1.4259(3) -0.3565(2)
O2 O 0.7048(1) 1.4247(3) -0.0163(2)
O3 O 0.7593(1) 1.3146(3) 0.1698(2)
O4 O 0.7996(1) 1.5435(3) 0.1108(2)
N1 N 0.5376(1) 1.1281(3) -0.3495(3)
C1 C 0.5953(2) 1.1705(4) -0.2947(3)
N2 N 0.6062(1) 1.3331(3) -0.2794(2)
C2 C 0.5517(2) 1.3968(4) -0.3291(3)
N3 N 0.5357(1) 1.5552(3) -0.3383(3)
C3 C 0.4769(2) 1.5850(4) -0.3927(3)
C4 C 0.4569(2) 1.7581(5) -0.4032(4)
C5 C 0.4332(2) 1.4636(4) -0.4403(3)
C6 C 0.4490(1) 1.3036(4) -0.4311(3)
C7 C 0.4080(2) 1.1640(5) -0.4785(4)
N4 N 0.5098(1) 1.2751(3) -0.3715(2)
O5 O 0.7924(1) 1.5841(3) -0.0980(2)
O6 O 0.6552(1) 1.6834(3) -0.2337(3)
O1E O 0.7110(1) 1.5741(3) 0.1435(2)
Cd1E Cd 0.7047(1) 1.5592(1) 0.3108(1)
Cd1F Cd 0.7953(1) 1.0592(1) 0.1892(1)
O3F O 0.7407(1) 1.1854(3) -0.1698(2)
loop_
_geom_bond_atom_site_label_1
_geom_bond_atom_site_label_2
_geom_bond_site_symmetry_1
_geom_bond_site_symmetry_2
Cd1 O1 1_555 1_555
S1 O2 1_555 1_555
O2 Cd1 1_555 1_555
O3 S1 1_555 1_555
O4 S1 1_555 1_555
N1 C1 1_555 1_555
C1 N2 1_555 1_555
N2 Cd1 1_555 1_555
C2 N2 1_555 1_555
N3 C2 1_555 1_555
C3 N3 1_555 1_555
C4 C3 1_555 1_555
C5 C3 1_555 1_555
C6 C5 1_555 1_555
C7 C6 1_555 1_555
N4 N1 1_555 1_555
O5 Cd1 1_555 1_555
O6 Cd1 1_555 1_555
O1E S1 1_555 1_555
Cd1E O1E 1_555 1_555
Cd1F O3 1_555 1_555
O3F Cd1 1_555 1_555
C2 N4 1_555 1_555
C6 N4 1_555 1_555

#END
