
#######################################################################
#
#                 Cambridge Crystallographic Data Centre
#                                CCDC 
#
#######################################################################
#
# If this CIF has been generated from an entry in the Cambridge 
# Structural Database, then it will include bibliographic, chemical, 
# crystal, experimental, refinement or atomic coordinate data resulting 
# from the CCDC's data processing and validation procedures.
#
#######################################################################

data_TIRXEZ
_symmetry_cell_setting           triclinic
_symmetry_space_group_name_H-M   'P -1'
_symmetry_Int_Tables_number      2
_space_group_name_Hall           '-P 1'
loop_
_symmetry_equiv_pos_site_id
_symmetry_equiv_pos_as_xyz
1 x,y,z
2 -x,-y,-z
_cell_length_a                   11.6252(2)
_cell_length_b                   13.4155(3)
_cell_length_c                   17.8075(4)
_cell_angle_alpha                103.3840(10)
_cell_angle_beta                 95.4850(10)
_cell_angle_gamma                90.8280(10)
_cell_volume                     2687.5
loop_
_atom_site_label
_atom_site_type_symbol
_atom_site_fract_x
_atom_site_fract_y
_atom_site_fract_z
Cd1 Cd 0.42927(2) 0.36571(2) 0.138834(14)
Cd2 Cd 0.5000 0.5000 0.0000
Cd3 Cd 0.64468(2) 0.21419(2) 0.039747(15)
Cd4 Cd 0.13071(2) 0.21401(2) 0.057535(14)
Cd5 Cd 0.0000 0.5000 0.0000
Cd6 Cd -0.09004(2) 0.37160(2) 0.129371(14)
O1 O 0.56782(19) 0.37696(18) 0.06368(13)
H1 H 0.6201 0.4114 0.0965
O2 O 0.07257(19) 0.37499(18) 0.06817(13)
H2 H 0.1209 0.4099 0.1037
O3 O 0.2844(2) 0.2835(2) 0.18429(18)
O4 O 0.2263(2) 0.1225(2) 0.13544(16)
O5 O 0.5227(2) 0.2009(2) 0.12979(14)
O6 O 0.5794(2) 0.0436(2) 0.08772(16)
O7 O 0.3108(2) 0.28103(19) 0.02355(13)
O8 O 0.3252(2) 0.4225(2) -0.02043(15)
O9 O 0.0980(2) 0.4546(2) -0.11226(14)
O10 O 0.2367(2) 0.5151(2) -0.16740(14)
O11 O 0.1583(2) 0.0739(2) -0.03927(15)
O12 O -0.0150(2) 0.1331(2) -0.05198(17)
O13 O 0.2054(2) -0.23040(19) -0.14960(14)
O14 O 0.0210(2) -0.2032(2) -0.13720(15)
O15 O 0.3242(3) 0.5016(2) 0.17377(16)
O16 O 0.4428(2) 0.5897(2) 0.11959(16)
O17 O 0.1287(2) 0.6091(2) 0.06992(15)
O18 O 0.2025(2) 0.69298(19) -0.00934(13)
O19 O 0.7511(2) 0.0879(2) -0.02550(16)
H3 H 0.7638 0.0414 -0.0007
H4 H 0.8151 0.1116 -0.0347
O20 O 0.4865(2) 0.1579(2) -0.05132(14)
H5 H 0.4247 0.1801 -0.0326
H6 H 0.4815 0.0928 -0.0628
N1 N -0.0020(3) 0.4318(3) 0.25880(18)
N2 N 0.4619(3) 0.5881(3) 0.73713(17)
C1 C 0.3850(3) 0.1542(3) 0.2347(2)
H7 H 0.4389 0.2127 0.2569
C2 C 0.4523(3) 0.0697(3) 0.1874(2)
H8 H 0.5039 0.0413 0.2225
H9 H 0.3984 0.0152 0.1586
C3 C 0.2917(3) 0.1889(3) 0.1810(2)
C4 C 0.5227(3) 0.1060(3) 0.1310(2)
C5 C 0.3330(4) 0.1239(4) 0.3009(2)
C6 C 0.3597(6) 0.1813(6) 0.3752(3)
H10 H 0.4093 0.2388 0.3836
C7 C 0.3152(8) 0.1564(8) 0.4376(4)
H11 H 0.3332 0.1968 0.4875
C8 C 0.2440(8) 0.0710(8) 0.4248(5)
H12 H 0.2145 0.0527 0.4667
C9 C 0.2153(6) 0.0124(7) 0.3520(5)
H13 H 0.1663 -0.0453 0.3441
C10 C 0.2600(5) 0.0393(5) 0.2890(4)
H14 H 0.2401 -0.0001 0.2390
C11 C 0.2370(3) 0.3364(3) -0.1679(2)
H15 H 0.3192 0.3430 -0.1747
C12 C 0.2244(3) 0.2785(3) -0.1045(2)
H16 H 0.1435 0.2733 -0.0964
H17 H 0.2514 0.2095 -0.1211
C13 C 0.2928(3) 0.3320(3) -0.0291(2)
C14 C 0.1895(3) 0.4424(3) -0.14606(19)
C15 C 0.1726(4) 0.2798(3) -0.2449(2)
C16 C 0.2240(8) 0.2560(6) -0.3077(4)
H18 H 0.3025 0.2728 -0.3050
C17 C 0.1632(11) 0.2035(8) -0.3828(6)
H19 H 0.1992 0.1900 -0.4284
C18 C 0.0611(12) 0.1787(7) -0.3813(6)
H20 H 0.0258 0.1356 -0.4265
C19 C -0.0073(9) 0.2061(6) -0.3219(5)
H21 H -0.0869 0.1933 -0.3274
C20 C 0.0561(6) 0.2558(5) -0.2515(4)
H22 H 0.0173 0.2732 -0.2073
C21 C 0.1311(3) -0.0767(3) -0.1797(2)
H23 H 0.2058 -0.0433 -0.1564
C22 C 0.0369(3) -0.0001(3) -0.1564(2)
H24 H 0.0260 0.0405 -0.1949
H25 H -0.0351 -0.0383 -0.1579
C23 C 0.0608(3) 0.0720(3) -0.0773(2)
C24 C 0.1188(3) -0.1745(3) -0.15192(18)
C25 C 0.1356(3) -0.1081(3) -0.2673(2)
C26 C 0.2305(5) -0.0860(5) -0.3003(3)
H26 H 0.2933 -0.0502 -0.2688
C27 C 0.2361(7) -0.1157(7) -0.3802(4)
H27 H 0.3029 -0.1009 -0.4010
C28 C 0.1455(7) -0.1657(6) -0.4275(3)
H28 H 0.1484 -0.1837 -0.4809
C29 C 0.0511(6) -0.1889(5) -0.3961(3)
H29 H -0.0113 -0.2246 -0.4282
C30 C 0.0454(4) -0.1604(4) -0.3161(3)
H30 H -0.0209 -0.1771 -0.2957
C31 C 0.2939(3) 0.6792(3) 0.1894(2)
H31 H 0.2193 0.6571 0.2027
C32 C 0.2695(3) 0.7382(3) 0.1265(2)
H32 H 0.2304 0.8003 0.1475
H33 H 0.3421 0.7579 0.1103
C33 C 0.3593(3) 0.5828(3) 0.1576(2)
C34 C 0.1952(3) 0.6748(3) 0.05660(19)
C35 C 0.3602(4) 0.7424(3) 0.2638(2)
C36 C 0.4487(5) 0.8107(4) 0.2629(3)
H34 H 0.4716 0.8180 0.2158
C37 C 0.5046(7) 0.8692(6) 0.3321(5)
H35 H 0.5638 0.9164 0.3318
C38 C 0.4691(10) 0.8553(8) 0.4030(5)
H36 H 0.5040 0.8946 0.4499
C39 C 0.3853(9) 0.7855(8) 0.4026(4)
H37 H 0.3640 0.7749 0.4493
C40 C 0.3306(5) 0.7292(5) 0.3332(3)
H38 H 0.2724 0.6812 0.3339
C41 C -0.0433(4) 0.5008(4) 0.3144(2)
H39 H -0.1151 0.5270 0.3038
C42 C 0.0150(4) 0.5361(4) 0.3873(2)
H40 H -0.0176 0.5852 0.4243
C43 C 0.1219(4) 0.4987(4) 0.4057(2)
C44 C 0.1630(4) 0.4273(5) 0.3477(3)
H41 H 0.2345 0.3995 0.3565
C45 C 0.1000(4) 0.3959(5) 0.2763(3)
H42 H 0.1308 0.3468 0.2384
C46 C 0.1829(4) 0.5346(4) 0.4836(2)
H43 H 0.1510 0.5885 0.5171
C47 C 0.2786(4) 0.4978(4) 0.5105(2)
H44 H 0.3105 0.4445 0.4765
C48 C 0.3404(4) 0.5318(4) 0.5886(2)
C49 C 0.3044(4) 0.6088(4) 0.6460(2)
H45 H 0.2383 0.6437 0.6359
C50 C 0.3658(3) 0.6346(3) 0.7188(2)
H46 H 0.3390 0.6865 0.7566
C51 C 0.4969(4) 0.5141(4) 0.6818(3)
H47 H 0.5637 0.4809 0.6934
C52 C 0.4404(5) 0.4833(4) 0.6082(3)
H48 H 0.4687 0.4306 0.5718
Cd1A Cd -0.42927(2) -0.36571(2) -0.138834(14)
Cd3A Cd -0.64468(2) -0.21419(2) -0.039747(15)
Cd4A Cd -0.13071(2) -0.21401(2) -0.057535(14)
Cd6A Cd 0.09004(2) -0.37160(2) -0.129371(14)
O1A O -0.56782(19) -0.37696(18) -0.06368(13)
H1A H -0.6201 -0.4114 -0.0965
O2A O -0.07257(19) -0.37499(18) -0.06817(13)
H2A H -0.1209 -0.4099 -0.1037
O3A O -0.2844(2) -0.2835(2) -0.18429(18)
O4A O -0.2263(2) -0.1225(2) -0.13544(16)
O5A O -0.5227(2) -0.2009(2) -0.12979(14)
O6A O -0.5794(2) -0.0436(2) -0.08772(16)
O7A O -0.3108(2) -0.28103(19) -0.02355(13)
O8A O -0.3252(2) -0.4225(2) 0.02043(15)
O9A O -0.0980(2) -0.4546(2) 0.11226(14)
O10A O -0.2367(2) -0.5151(2) 0.16740(14)
O11A O -0.1583(2) -0.0739(2) 0.03927(15)
O12A O 0.0150(2) -0.1331(2) 0.05198(17)
O13A O -0.2054(2) 0.23040(19) 0.14960(14)
O14A O -0.0210(2) 0.2032(2) 0.13720(15)
O15A O -0.3242(3) -0.5016(2) -0.17377(16)
O16A O -0.4428(2) -0.5897(2) -0.11959(16)
O17A O -0.1287(2) -0.6091(2) -0.06992(15)
O18A O -0.2025(2) -0.69298(19) 0.00934(13)
O19A O -0.7511(2) -0.0879(2) 0.02550(16)
H3A H -0.7638 -0.0414 0.0007
H4A H -0.8151 -0.1116 0.0347
O20A O -0.4865(2) -0.1579(2) 0.05132(14)
H5A H -0.4247 -0.1801 0.0326
H6A H -0.4815 -0.0928 0.0628
N1A N 0.0020(3) -0.4318(3) -0.25880(18)
N2A N -0.4619(3) -0.5881(3) -0.73713(17)
C1A C -0.3850(3) -0.1542(3) -0.2347(2)
H7A H -0.4389 -0.2127 -0.2569
C2A C -0.4523(3) -0.0697(3) -0.1874(2)
H8A H -0.5039 -0.0413 -0.2225
H9A H -0.3984 -0.0152 -0.1586
C3A C -0.2917(3) -0.1889(3) -0.1810(2)
C4A C -0.5227(3) -0.1060(3) -0.1310(2)
C5A C -0.3330(4) -0.1239(4) -0.3009(2)
C6A C -0.3597(6) -0.1813(6) -0.3752(3)
H10A H -0.4093 -0.2388 -0.3836
C7A C -0.3152(8) -0.1564(8) -0.4376(4)
H11A H -0.3332 -0.1968 -0.4875
C8A C -0.2440(8) -0.0710(8) -0.4248(5)
H12A H -0.2145 -0.0527 -0.4667
C9A C -0.2153(6) -0.0124(7) -0.3520(5)
H13A H -0.1663 0.0453 -0.3441
C10A C -0.2600(5) -0.0393(5) -0.2890(4)
H14A H -0.2401 0.0001 -0.2390
C11A C -0.2370(3) -0.3364(3) 0.1679(2)
H15A H -0.3192 -0.3430 0.1747
C12A C -0.2244(3) -0.2785(3) 0.1045(2)
H16A H -0.1435 -0.2733 0.0964
H17A H -0.2514 -0.2095 0.1211
C13A C -0.2928(3) -0.3320(3) 0.0291(2)
C14A C -0.1895(3) -0.4424(3) 0.14606(19)
C15A C -0.1726(4) -0.2798(3) 0.2449(2)
C16A C -0.2240(8) -0.2560(6) 0.3077(4)
H18A H -0.3025 -0.2728 0.3050
C17A C -0.1632(11) -0.2035(8) 0.3828(6)
H19A H -0.1992 -0.1900 0.4284
C18A C -0.0611(12) -0.1787(7) 0.3813(6)
H20A H -0.0258 -0.1356 0.4265
C19A C 0.0073(9) -0.2061(6) 0.3219(5)
H21A H 0.0869 -0.1933 0.3274
C20A C -0.0561(6) -0.2558(5) 0.2515(4)
H22A H -0.0173 -0.2732 0.2073
C21A C -0.1311(3) 0.0767(3) 0.1797(2)
H23A H -0.2058 0.0433 0.1564
C22A C -0.0369(3) 0.0001(3) 0.1564(2)
H24A H -0.0260 -0.0405 0.1949
H25A H 0.0351 0.0383 0.1579
C23A C -0.0608(3) -0.0720(3) 0.0773(2)
C24A C -0.1188(3) 0.1745(3) 0.15192(18)
C25A C -0.1356(3) 0.1081(3) 0.2673(2)
C26A C -0.2305(5) 0.0860(5) 0.3003(3)
H26A H -0.2933 0.0502 0.2688
C27A C -0.2361(7) 0.1157(7) 0.3802(4)
H27A H -0.3029 0.1009 0.4010
C28A C -0.1455(7) 0.1657(6) 0.4275(3)
H28A H -0.1484 0.1837 0.4809
C29A C -0.0511(6) 0.1889(5) 0.3961(3)
H29A H 0.0113 0.2246 0.4282
C30A C -0.0454(4) 0.1604(4) 0.3161(3)
H30A H 0.0209 0.1771 0.2957
C31A C -0.2939(3) -0.6792(3) -0.1894(2)
H31A H -0.2193 -0.6571 -0.2027
C32A C -0.2695(3) -0.7382(3) -0.1265(2)
H32A H -0.2304 -0.8003 -0.1475
H33A H -0.3421 -0.7579 -0.1103
C33A C -0.3593(3) -0.5828(3) -0.1576(2)
C34A C -0.1952(3) -0.6748(3) -0.05660(19)
C35A C -0.3602(4) -0.7424(3) -0.2638(2)
C36A C -0.4487(5) -0.8107(4) -0.2629(3)
H34A H -0.4716 -0.8180 -0.2158
C37A C -0.5046(7) -0.8692(6) -0.3321(5)
H35A H -0.5638 -0.9164 -0.3318
C38A C -0.4691(10) -0.8553(8) -0.4030(5)
H36A H -0.5040 -0.8946 -0.4499
C39A C -0.3853(9) -0.7855(8) -0.4026(4)
H37A H -0.3640 -0.7749 -0.4493
C40A C -0.3306(5) -0.7292(5) -0.3332(3)
H38A H -0.2724 -0.6812 -0.3339
C41A C 0.0433(4) -0.5008(4) -0.3144(2)
H39A H 0.1151 -0.5270 -0.3038
C42A C -0.0150(4) -0.5361(4) -0.3873(2)
H40A H 0.0176 -0.5852 -0.4243
C43A C -0.1219(4) -0.4987(4) -0.4057(2)
C44A C -0.1630(4) -0.4273(5) -0.3477(3)
H41A H -0.2345 -0.3995 -0.3565
C45A C -0.1000(4) -0.3959(5) -0.2763(3)
H42A H -0.1308 -0.3468 -0.2384
C46A C -0.1829(4) -0.5346(4) -0.4836(2)
H43A H -0.1510 -0.5885 -0.5171
C47A C -0.2786(4) -0.4978(4) -0.5105(2)
H44A H -0.3105 -0.4445 -0.4765
C48A C -0.3404(4) -0.5318(4) -0.5886(2)
C49A C -0.3044(4) -0.6088(4) -0.6460(2)
H45A H -0.2383 -0.6437 -0.6359
C50A C -0.3658(3) -0.6346(3) -0.7188(2)
H46A H -0.3390 -0.6865 -0.7566
C51A C -0.4969(4) -0.5141(4) -0.6818(3)
H47A H -0.5637 -0.4809 -0.6934
C52A C -0.4404(5) -0.4833(4) -0.6082(3)
H48A H -0.4687 -0.4306 -0.5718
Cd1_2 Cd -0.57073(2) -0.63429(2) -0.861166(14)
Cd1A_2 Cd 0.57073(2) 0.63429(2) 0.861166(14)
Cd2_2 Cd -0.5000 -0.5000 0.0000
Cd3_2 Cd -0.35532(2) -0.78581(2) 0.039747(15)
Cd3_3 Cd -0.35532(2) 0.21419(2) 0.039747(15)
Cd3A_2 Cd 0.35532(2) -0.21419(2) -0.039747(15)
Cd3A_3 Cd 0.35532(2) 0.78581(2) -0.039747(15)
Cd5_2 Cd 0.0000 -0.5000 0.0000
Cd6_2 Cd -0.09004(2) -0.62840(2) 0.129371(14)
Cd6A_2 Cd 0.09004(2) 0.62840(2) -0.129371(14)
O1A_2 O 0.43218(19) 0.62304(18) -0.06368(13)
O2A_2 O -0.07257(19) 0.62501(18) -0.06817(13)
O8A_2 O 0.6748(2) 0.5775(2) 0.02043(15)
O9_2 O 0.0980(2) -0.5454(2) -0.11226(14)
O9A_2 O -0.0980(2) 0.5454(2) 0.11226(14)
O10_2 O 0.2367(2) -0.4849(2) -0.16740(14)
O10A_2 O -0.2367(2) 0.4849(2) 0.16740(14)
O13_2 O -0.7946(2) -0.23040(19) -0.14960(14)
O13A_2 O 0.7946(2) 0.23040(19) 0.14960(14)
O16A_2 O 0.5572(2) 0.4103(2) -0.11959(16)
O17A_2 O -0.1287(2) 0.3909(2) -0.06992(15)
O18_2 O -0.7975(2) -0.30702(19) -0.00934(13)
O18_3 O 0.2025(2) -0.30702(19) -0.00934(13)
O18A_2 O -0.2025(2) 0.30702(19) 0.00934(13)
O18A_3 O 0.7975(2) 0.30702(19) 0.00934(13)
N2_2 N -0.5381(3) -0.4119(3) -0.26287(17)
N2A_2 N 0.5381(3) 0.4119(3) 0.26287(17)
loop_
_geom_bond_atom_site_label_1
_geom_bond_atom_site_label_2
_geom_bond_site_symmetry_1
_geom_bond_site_symmetry_2
Cd1 O1 1_555 1_555
Cd2 O1 1_555 1_555
Cd3 O1 1_555 1_555
Cd4 O2 1_555 1_555
Cd5 O2 1_555 1_555
Cd6 O2 1_555 1_555
O1 H1 1_555 1_555
O2 H2 1_555 1_555
O3 Cd1 1_555 1_555
O4 Cd4 1_555 1_555
O5 Cd1 1_555 1_555
O6 Cd3 1_555 1_555
O7 Cd1 1_555 1_555
O8 Cd2 1_555 1_555
O9 Cd5 1_555 1_555
O10 C14 1_555 1_555
O11 Cd4 1_555 1_555
O12 Cd4 1_555 1_555
O13 C24 1_555 1_555
O14 C24 1_555 1_555
O15 Cd1 1_555 1_555
O16 Cd2 1_555 1_555
O17 Cd5 1_555 1_555
O18 C34 1_555 1_555
O19 Cd3 1_555 1_555
H3 O19 1_555 1_555
H4 O19 1_555 1_555
O20 Cd3 1_555 1_555
H5 O20 1_555 1_555
H6 O20 1_555 1_555
N1 Cd6 1_555 1_555
N2 C50 1_555 1_555
C1 H7 1_555 1_555
C2 C1 1_555 1_555
H8 C2 1_555 1_555
H9 C2 1_555 1_555
C3 O3 1_555 1_555
C4 O5 1_555 1_555
C5 C1 1_555 1_555
C6 C5 1_555 1_555
H10 C6 1_555 1_555
C7 C6 1_555 1_555
H11 C7 1_555 1_555
C8 C7 1_555 1_555
H12 C8 1_555 1_555
C9 C8 1_555 1_555
H13 C9 1_555 1_555
C10 C5 1_555 1_555
H14 C10 1_555 1_555
C11 H15 1_555 1_555
C12 C11 1_555 1_555
H16 C12 1_555 1_555
H17 C12 1_555 1_555
C13 O7 1_555 1_555
C14 O9 1_555 1_555
C15 C11 1_555 1_555
C16 C15 1_555 1_555
H18 C16 1_555 1_555
C17 C16 1_555 1_555
H19 C17 1_555 1_555
C18 C17 1_555 1_555
H20 C18 1_555 1_555
C19 C18 1_555 1_555
H21 C19 1_555 1_555
C20 C15 1_555 1_555
H22 C20 1_555 1_555
C21 H23 1_555 1_555
C22 C21 1_555 1_555
H24 C22 1_555 1_555
H25 C22 1_555 1_555
C23 O11 1_555 1_555
C24 C21 1_555 1_555
C25 C21 1_555 1_555
C26 C25 1_555 1_555
H26 C26 1_555 1_555
C27 C26 1_555 1_555
H27 C27 1_555 1_555
C28 C27 1_555 1_555
H28 C28 1_555 1_555
C29 C28 1_555 1_555
H29 C29 1_555 1_555
C30 C25 1_555 1_555
H30 C30 1_555 1_555
C31 H31 1_555 1_555
C32 C31 1_555 1_555
H32 C32 1_555 1_555
H33 C32 1_555 1_555
C33 O15 1_555 1_555
C34 O17 1_555 1_555
C35 C31 1_555 1_555
C36 C35 1_555 1_555
H34 C36 1_555 1_555
C37 C36 1_555 1_555
H35 C37 1_555 1_555
C38 C37 1_555 1_555
H36 C38 1_555 1_555
C39 C38 1_555 1_555
H37 C39 1_555 1_555
C40 C35 1_555 1_555
H38 C40 1_555 1_555
C41 N1 1_555 1_555
H39 C41 1_555 1_555
C42 C41 1_555 1_555
H40 C42 1_555 1_555
C43 C42 1_555 1_555
C44 C43 1_555 1_555
H41 C44 1_555 1_555
C45 N1 1_555 1_555
H42 C45 1_555 1_555
C46 C43 1_555 1_555
H43 C46 1_555 1_555
C47 C46 1_555 1_555
H44 C47 1_555 1_555
C48 C47 1_555 1_555
C49 C48 1_555 1_555
H45 C49 1_555 1_555
C50 C49 1_555 1_555
H46 C50 1_555 1_555
C51 N2 1_555 1_555
H47 C51 1_555 1_555
C52 C48 1_555 1_555
H48 C52 1_555 1_555
Cd1A O1A 1_555 1_555
Cd3A O1A 1_555 1_555
Cd4A O14 1_555 1_555
Cd6A O13 1_555 1_555
O1A H1A 1_555 1_555
O2A Cd4A 1_555 1_555
H2A O2A 1_555 1_555
O3A Cd1A 1_555 1_555
O4A Cd4A 1_555 1_555
O5A Cd1A 1_555 1_555
O6A Cd3A 1_555 1_555
O7A Cd1A 1_555 1_555
O8A C13A 1_555 1_555
O9A C14A 1_555 1_555
O10A C14A 1_555 1_555
O11A Cd4A 1_555 1_555
O12A Cd4A 1_555 1_555
O13A Cd6 1_555 1_555
O14A Cd4 1_555 1_555
O15A Cd1A 1_555 1_555
O16A C33A 1_555 1_555
O17A C34A 1_555 1_555
O18A C34A 1_555 1_555
O19A Cd3A 1_555 1_555
H3A O19A 1_555 1_555
H4A O19A 1_555 1_555
O20A Cd3A 1_555 1_555
H5A O20A 1_555 1_555
H6A O20A 1_555 1_555
N1A Cd6A 1_555 1_555
N2A C50A 1_555 1_555
C1A H7A 1_555 1_555
C2A C1A 1_555 1_555
H8A C2A 1_555 1_555
H9A C2A 1_555 1_555
C3A O3A 1_555 1_555
C4A O5A 1_555 1_555
C5A C1A 1_555 1_555
C6A C5A 1_555 1_555
H10A C6A 1_555 1_555
C7A C6A 1_555 1_555
H11A C7A 1_555 1_555
C8A C7A 1_555 1_555
H12A C8A 1_555 1_555
C9A C8A 1_555 1_555
H13A C9A 1_555 1_555
C10A C5A 1_555 1_555
H14A C10A 1_555 1_555
C11A H15A 1_555 1_555
C12A C11A 1_555 1_555
H16A C12A 1_555 1_555
H17A C12A 1_555 1_555
C13A O7A 1_555 1_555
C14A C11A 1_555 1_555
C15A C11A 1_555 1_555
C16A C15A 1_555 1_555
H18A C16A 1_555 1_555
C17A C16A 1_555 1_555
H19A C17A 1_555 1_555
C18A C17A 1_555 1_555
H20A C18A 1_555 1_555
C19A C18A 1_555 1_555
H21A C19A 1_555 1_555
C20A C15A 1_555 1_555
H22A C20A 1_555 1_555
C21A H23A 1_555 1_555
C22A C21A 1_555 1_555
H24A C22A 1_555 1_555
H25A C22A 1_555 1_555
C23A O11A 1_555 1_555
C24A O13A 1_555 1_555
C25A C21A 1_555 1_555
C26A C25A 1_555 1_555
H26A C26A 1_555 1_555
C27A C26A 1_555 1_555
H27A C27A 1_555 1_555
C28A C27A 1_555 1_555
H28A C28A 1_555 1_555
C29A C28A 1_555 1_555
H29A C29A 1_555 1_555
C30A C25A 1_555 1_555
H30A C30A 1_555 1_555
C31A H31A 1_555 1_555
C32A C31A 1_555 1_555
H32A C32A 1_555 1_555
H33A C32A 1_555 1_555
C33A O15A 1_555 1_555
C34A C32A 1_555 1_555
C35A C31A 1_555 1_555
C36A C35A 1_555 1_555
H34A C36A 1_555 1_555
C37A C36A 1_555 1_555
H35A C37A 1_555 1_555
C38A C37A 1_555 1_555
H36A C38A 1_555 1_555
C39A C38A 1_555 1_555
H37A C39A 1_555 1_555
C40A C35A 1_555 1_555
H38A C40A 1_555 1_555
C41A N1A 1_555 1_555
H39A C41A 1_555 1_555
C42A C41A 1_555 1_555
H40A C42A 1_555 1_555
C43A C42A 1_555 1_555
C44A C43A 1_555 1_555
H41A C44A 1_555 1_555
C45A N1A 1_555 1_555
H42A C45A 1_555 1_555
C46A C43A 1_555 1_555
H43A C46A 1_555 1_555
C47A C46A 1_555 1_555
H44A C47A 1_555 1_555
C48A C47A 1_555 1_555
C49A C48A 1_555 1_555
H45A C49A 1_555 1_555
C50A C49A 1_555 1_555
H46A C50A 1_555 1_555
C51A N2A 1_555 1_555
H47A C51A 1_555 1_555
C52A C48A 1_555 1_555
H48A C52A 1_555 1_555
Cd1_2 N2A 1_555 1_555
Cd1A_2 N2 1_555 1_555
Cd2_2 O1A 1_555 1_555
Cd3_2 O18A 1_555 1_555
Cd3_3 O13A 1_555 1_555
Cd3A_2 O13 1_555 1_555
Cd3A_3 O18 1_555 1_555
Cd5_2 O2A 1_555 1_555
Cd6_2 O9A 1_555 1_555
Cd6A_2 O9 1_555 1_555
O1A_2 Cd2 1_555 1_555
O2A_2 Cd5 1_555 1_555
O8A_2 Cd2 1_555 1_555
O9_2 Cd6A 1_555 1_555
O9A_2 Cd5 1_555 1_555
O10_2 Cd6A 1_555 1_555
O10A_2 Cd6 1_555 1_555
O13_2 Cd3A 1_555 1_555
O13A_2 Cd3 1_555 1_555
O16A_2 Cd2 1_555 1_555
O17A_2 Cd5 1_555 1_555
O18_2 Cd3A 1_555 1_555
O18_3 Cd6A 1_555 1_555
O18A_2 Cd6 1_555 1_555
O18A_3 Cd3 1_555 1_555
N2_2 Cd1A 1_555 1_555
N2A_2 Cd1 1_555 1_555
Cd3 O5 1_555 1_555
Cd4 O3 1_555 1_555
Cd4 O7 1_555 1_555
Cd6 O14A 1_555 1_555
Cd6 O9A_2 1_555 1_555
O4 C3 1_555 1_555
O6 C4 1_555 1_555
O8 C13 1_555 1_555
O10 Cd6A_2 1_555 1_555
O12 C23 1_555 1_555
O14 Cd6A 1_555 1_555
O16 C33 1_555 1_555
O18 Cd6A_2 1_555 1_555
C1 C3 1_555 1_555
C2 C4 1_555 1_555
C9 C10 1_555 1_555
C11 C14 1_555 1_555
C12 C13 1_555 1_555
C19 C20 1_555 1_555
C22 C23 1_555 1_555
C29 C30 1_555 1_555
C31 C33 1_555 1_555
C32 C34 1_555 1_555
C39 C40 1_555 1_555
C44 C45 1_555 1_555
C51 C52 1_555 1_555
Cd3A O5A 1_555 1_555
Cd4A O3A 1_555 1_555
Cd4A O7A 1_555 1_555
Cd6A O2A 1_555 1_555
O4A C3A 1_555 1_555
O6A C4A 1_555 1_555
O8A Cd2_2 1_555 1_555
O9A Cd5_2 1_555 1_555
O10A Cd6_2 1_555 1_555
O12A C23A 1_555 1_555
O14A C24A 1_555 1_555
O16A Cd2_2 1_555 1_555
O17A Cd5_2 1_555 1_555
O18A Cd6_2 1_555 1_555
C1A C3A 1_555 1_555
C2A C4A 1_555 1_555
C9A C10A 1_555 1_555
C12A C13A 1_555 1_555
C19A C20A 1_555 1_555
C21A C24A 1_555 1_555
C22A C23A 1_555 1_555
C29A C30A 1_555 1_555
C31A C33A 1_555 1_555
C39A C40A 1_555 1_555
C44A C45A 1_555 1_555
C51A C52A 1_555 1_555
Cd3_3 O18A_2 1_555 1_555
Cd3A_2 O18_3 1_555 1_555
Cd3A_3 O1A_2 1_555 1_555
Cd5_2 O9_2 1_555 1_555
Cd6A_2 O2A_2 1_555 1_555

#END
