
#######################################################################
#
#                 Cambridge Crystallographic Data Centre
#                                CCDC 
#
#######################################################################
#
# If this CIF has been generated from an entry in the Cambridge 
# Structural Database, then it will include bibliographic, chemical, 
# crystal, experimental, refinement or atomic coordinate data resulting 
# from the CCDC's data processing and validation procedures.
#
#######################################################################

data_TIRXAV
_symmetry_cell_setting           triclinic
_symmetry_space_group_name_H-M   'P -1'
_symmetry_Int_Tables_number      2
_space_group_name_Hall           '-P 1'
loop_
_symmetry_equiv_pos_site_id
_symmetry_equiv_pos_as_xyz
1 x,y,z
2 -x,-y,-z
_cell_length_a                   12.4458(5)
_cell_length_b                   14.9543(5)
_cell_length_c                   17.5898(7)
_cell_angle_alpha                100.9880(10)
_cell_angle_beta                 91.0380(10)
_cell_angle_gamma                104.6390(10)
_cell_volume                     3101.86
loop_
_atom_site_label
_atom_site_type_symbol
_atom_site_fract_x
_atom_site_fract_y
_atom_site_fract_z
Cd1 Cd 0.27956(3) 0.37378(2) 0.346060(19)
Cd2 Cd 0.47219(3) 0.29026(2) 0.437090(19)
Cd3 Cd 0.38794(3) 0.03129(2) 0.438258(19)
Cd4 Cd 1.03167(3) 0.37559(2) 0.46239(2)
Cd5 Cd 0.90660(3) 0.19906(2) 0.57115(2)
N1 N 1.0368(4) 0.1861(3) 0.6613(2)
N2 N 1.3126(4) 0.3225(3) 1.2158(2)
O1 O 0.4198(3) 0.5043(3) 0.3600(2)
O2 O 0.5136(3) 0.3956(2) 0.3562(2)
O3 O 0.6114(3) 0.6010(2) 0.4989(2)
O4 O 0.7802(3) 0.5888(2) 0.52856(19)
O5 O 0.8450(4) 0.3300(3) 0.4459(3)
O6 O 0.7750(4) 0.1845(3) 0.4637(2)
O7 O 0.5131(5) 0.0479(3) 0.3489(3)
O8 O 0.5582(4) 0.2033(3) 0.3581(3)
O9 O 0.4373(3) 0.2029(2) 0.5292(2)
O10 O 0.5279(3) 0.0966(2) 0.53887(19)
O11 O 0.7924(3) 0.2580(2) 0.6555(2)
O12 O 0.7432(3) 0.1037(2) 0.6238(2)
O13 O 1.1775(3) 0.4617(3) 0.2942(2)
O14 O 1.0683(3) 0.3403(2) 0.33266(19)
O15 O 0.9986(4) 0.5103(3) 0.4226(2)
O16 O 0.9804(3) 0.6476(2) 0.4100(2)
O17 O 1.2513(3) 0.0923(2) 0.4010(2)
O18 O 1.2999(3) 0.2339(2) 0.36903(19)
O19 O 1.0306(4) 0.2112(2) 0.4587(2)
O20 O 0.9363(3) 0.0762(3) 0.4826(2)
O21 O 0.6324(4) 0.3734(3) 0.5110(2)
H1 H 0.6500 0.4331 0.5187
H2 H 0.6735 0.3454 0.5310
O22 O 0.2891(3) 0.0093(2) 0.54492(19)
H3 H 0.3206 0.0279 0.5904
H4 H 0.2199 -0.0173 0.5383
C1 C 0.6136(4) 0.5516(4) 0.3425(3)
H5 H 0.5995 0.6141 0.3560
C2 C 0.7145(4) 0.5519(4) 0.3938(3)
H6 H 0.7252 0.4888 0.3848
H7 H 0.7804 0.5936 0.3790
C3 C 0.5097(5) 0.4791(3) 0.3560(3)
C4 C 0.7018(4) 0.5834(3) 0.4792(3)
C5 C 0.6274(4) 0.5307(4) 0.2555(3)
C6 C 0.6965(6) 0.4783(5) 0.2215(3)
H8 H 0.7398 0.4546 0.2522
C7 C 0.7019(6) 0.4606(6) 0.1411(4)
H9 H 0.7508 0.4270 0.1188
C8 C 0.6363(6) 0.4920(5) 0.0945(3)
H10 H 0.6384 0.4782 0.0408
C9 C 0.5686(7) 0.5435(5) 0.1282(3)
H11 H 0.5254 0.5667 0.0970
C10 C 0.5619(6) 0.5624(5) 0.2073(3)
H12 H 0.5132 0.5967 0.2287
C11 C 0.6851(5) 0.1176(4) 0.3078(3)
H13 H 0.7089 0.0685 0.3282
C12 C 0.7747(5) 0.2099(4) 0.3363(3)
H14 H 0.8442 0.2027 0.3153
H15 H 0.7542 0.2591 0.3151
C13 C 0.5756(4) 0.1239(3) 0.3422(3)
C14 C 0.7951(5) 0.2431(4) 0.4238(4)
C15 C 0.6781(5) 0.0886(4) 0.2181(3)
C16 C 0.5900(7) 0.0980(7) 0.1733(4)
H16 H 0.5329 0.1209 0.1963
C17 C 0.5897(7) 0.0721(7) 0.0926(4)
H17 H 0.5316 0.0785 0.0618
C18 C 0.6698(6) 0.0387(6) 0.0588(4)
H18 H 0.6684 0.0221 0.0050
C19 C 0.7545(7) 0.0291(5) 0.1045(4)
H19 H 0.8105 0.0049 0.0814
C20 C 0.7585(6) 0.0545(5) 0.1837(4)
H20 H 0.8174 0.0481 0.2137
C21 C 0.6137(4) 0.1794(4) 0.6920(3)
H21 H 0.5718 0.1135 0.6874
C22 C 0.5468(5) 0.2269(3) 0.6476(3)
H22 H 0.5936 0.2881 0.6432
H23 H 0.4849 0.2376 0.6775
C23 C 0.7236(4) 0.1809(4) 0.6545(3)
C24 C 0.5012(4) 0.1718(3) 0.5666(3)
C25 C 0.6359(4) 0.2248(4) 0.7779(3)
C26 C 0.6127(6) 0.1668(5) 0.8305(4)
H24 H 0.5822 0.1023 0.8134
C27 C 0.6350(8) 0.2046(7) 0.9094(4)
H25 H 0.6200 0.1651 0.9450
C28 C 0.6790(7) 0.2994(7) 0.9349(4)
H26 H 0.6951 0.3240 0.9877
C29 C 0.6994(6) 0.3581(6) 0.8832(4)
H27 H 0.7271 0.4228 0.9010
C30 C 0.6788(5) 0.3214(5) 0.8041(4)
H28 H 0.6937 0.3612 0.7688
C31 C 0.9831(4) 0.4348(3) 0.2661(3)
H29 H 0.9153 0.4002 0.2859
C32 C 0.9957(5) 0.5412(3) 0.2930(3)
H30 H 1.0656 0.5762 0.2772
H31 H 0.9357 0.5586 0.2684
C33 C 1.0834(5) 0.4107(4) 0.3005(3)
C34 C 0.9932(4) 0.5667(4) 0.3801(3)
C35 C 0.9777(4) 0.4016(3) 0.1781(3)
C36 C 0.9125(5) 0.3116(4) 0.1443(3)
H32 H 0.8698 0.2748 0.1756
C37 C 0.9098(7) 0.2760(5) 0.0662(4)
H33 H 0.8671 0.2152 0.0451
C38 C 0.9712(6) 0.3313(5) 0.0186(3)
H34 H 0.9688 0.3082 -0.0345
C39 C 1.0357(6) 0.4204(5) 0.0509(3)
H35 H 1.0775 0.4577 0.0196
C40 C 1.0382(5) 0.4550(4) 0.1308(3)
H36 H 1.0819 0.5153 0.1521
C41 C 1.1166(4) 0.1316(3) 0.3247(3)
H37 H 1.0978 0.1912 0.3238
C42 C 1.0263(4) 0.0715(3) 0.3642(3)
H38 H 0.9597 0.0477 0.3292
H39 H 1.0506 0.0177 0.3737
C43 C 1.2310(4) 0.1541(3) 0.3693(3)
C44 C 0.9976(4) 0.1238(3) 0.4401(3)
C45 C 1.1214(4) 0.0821(3) 0.2413(3)
C46 C 1.0797(5) 0.1137(5) 0.1800(3)
H40 H 1.0530 0.1672 0.1901
C47 C 1.0779(6) 0.0656(6) 0.1042(3)
H41 H 1.0511 0.0871 0.0634
C48 C 1.1168(6) -0.0155(6) 0.0894(4)
H42 H 1.1146 -0.0486 0.0387
C49 C 1.1578(6) -0.0464(5) 0.1489(3)
H43 H 1.1837 -0.1003 0.1383
C50 C 1.1615(5) 0.0008(4) 0.2241(3)
H44 H 1.1906 -0.0208 0.2640
C51 C 1.0248(6) 0.2090(5) 0.7370(3)
H45 H 0.9580 0.2214 0.7522
C52 C 1.1051(6) 0.2156(5) 0.7942(3)
H46 H 1.0927 0.2339 0.8462
C53 C 1.2034(5) 0.1950(4) 0.7741(3)
C54 C 1.2157(5) 0.1690(4) 0.6964(3)
H47 H 1.2808 0.1538 0.6801
C55 C 1.1325(5) 0.1651(4) 0.6421(3)
H48 H 1.1432 0.1471 0.5898
C56 C 1.2969(6) 0.2012(5) 0.8338(3)
H49 H 1.3631 0.2465 0.8235
H50 H 1.3134 0.1403 0.8266
C57 C 1.2727(5) 0.2298(4) 0.9187(3)
H51 H 1.2548 0.2903 0.9262
H52 H 1.2080 0.1837 0.9301
C58 C 1.3700(5) 0.2371(5) 0.9751(3)
H53 H 1.3862 0.1761 0.9683
H54 H 1.4351 0.2815 0.9623
C59 C 1.3505(5) 0.2680(4) 1.0586(3)
C60 C 1.3035(10) 0.3383(7) 1.0848(4)
H55 H 1.2812 0.3703 1.0496
C61 C 1.2872(9) 0.3647(6) 1.1619(4)
H56 H 1.2564 0.4153 1.1767
C62 C 1.3606(9) 0.2547(7) 1.1924(4)
H57 H 1.3837 0.2246 1.2289
C63 C 1.3780(9) 0.2263(7) 1.1149(4)
H58 H 1.4101 0.1763 1.1011
Cd1_2 Cd 1.27956(3) 0.37378(2) 0.346060(19)
Cd1_3 Cd 1.27956(3) 0.37378(2) 1.346060(19)
Cd1A Cd 0.72044(3) 0.62622(2) 0.653940(19)
Cd2_2 Cd 1.47219(3) 0.29026(2) 0.437090(19)
Cd2A Cd 0.52781(3) 0.70974(2) 0.562910(19)
Cd3_2 Cd 1.38794(3) 0.03129(2) 0.438258(19)
Cd3A Cd 0.61206(3) -0.03129(2) 0.561742(19)
Cd4A Cd 0.96833(3) 0.62441(2) 0.53761(2)
Cd5A Cd 1.09340(3) 0.80094(2) 0.42885(2)
N2_2 N 0.3126(4) 0.3225(3) 0.2158(2)
O3A O 0.3886(3) 0.3990(2) 0.5011(2)
O4A O 0.2198(3) 0.4112(2) 0.47144(19)
O4A_2 O 1.2198(3) 0.4112(2) 0.47144(19)
O10A O 0.4721(3) -0.0966(2) 0.46113(19)
O12A O 0.2568(3) -0.1037(2) 0.3762(2)
O13_2 O 0.1775(3) 0.4617(3) 0.2942(2)
O14_2 O 0.0683(3) 0.3403(2) 0.33266(19)
O15A O 1.0014(4) 0.4897(3) 0.5774(2)
O16A O 1.0196(3) 0.3524(2) 0.5900(2)
O17_2 O 0.2513(3) 0.0923(2) 0.4010(2)
O18_2 O 0.2999(3) 0.2339(2) 0.36903(19)
loop_
_geom_bond_atom_site_label_1
_geom_bond_atom_site_label_2
_geom_bond_site_symmetry_1
_geom_bond_site_symmetry_2
Cd1 O1 1_555 1_555
Cd2 O2 1_555 1_555
Cd3 O7 1_555 1_555
Cd4 O5 1_555 1_555
Cd5 N1 1_555 1_555
N1 C51 1_555 1_555
N2 C61 1_555 1_555
O1 C3 1_555 1_555
O2 C3 1_555 1_555
O3 C4 1_555 1_555
O4 C4 1_555 1_555
O5 C14 1_555 1_555
O6 Cd5 1_555 1_555
O7 C13 1_555 1_555
O8 Cd2 1_555 1_555
O9 Cd2 1_555 1_555
O10 Cd3 1_555 1_555
O11 Cd5 1_555 1_555
O12 Cd5 1_555 1_555
O13 C33 1_555 1_555
O14 Cd4 1_555 1_555
O15 Cd4 1_555 1_555
O16 C34 1_555 1_555
O17 C43 1_555 1_555
O18 C43 1_555 1_555
O19 Cd4 1_555 1_555
O20 Cd5 1_555 1_555
O21 Cd2 1_555 1_555
H1 O21 1_555 1_555
H2 O21 1_555 1_555
O22 Cd3 1_555 1_555
H3 O22 1_555 1_555
H4 O22 1_555 1_555
C1 H5 1_555 1_555
C2 C1 1_555 1_555
H6 C2 1_555 1_555
H7 C2 1_555 1_555
C3 C1 1_555 1_555
C4 C2 1_555 1_555
C5 C1 1_555 1_555
C6 C5 1_555 1_555
H8 C6 1_555 1_555
C7 C6 1_555 1_555
H9 C7 1_555 1_555
C8 C7 1_555 1_555
H10 C8 1_555 1_555
C9 C8 1_555 1_555
H11 C9 1_555 1_555
C10 C5 1_555 1_555
H12 C10 1_555 1_555
C11 H13 1_555 1_555
C12 C11 1_555 1_555
H14 C12 1_555 1_555
H15 C12 1_555 1_555
C13 O8 1_555 1_555
C14 O6 1_555 1_555
C15 C11 1_555 1_555
C16 C15 1_555 1_555
H16 C16 1_555 1_555
C17 C16 1_555 1_555
H17 C17 1_555 1_555
C18 C17 1_555 1_555
H18 C18 1_555 1_555
C19 C18 1_555 1_555
H19 C19 1_555 1_555
C20 C15 1_555 1_555
H20 C20 1_555 1_555
C21 H21 1_555 1_555
C22 C21 1_555 1_555
H22 C22 1_555 1_555
H23 C22 1_555 1_555
C23 O11 1_555 1_555
C24 O9 1_555 1_555
C25 C21 1_555 1_555
C26 C25 1_555 1_555
H24 C26 1_555 1_555
C27 C26 1_555 1_555
H25 C27 1_555 1_555
C28 C27 1_555 1_555
H26 C28 1_555 1_555
C29 C28 1_555 1_555
H27 C29 1_555 1_555
C30 C25 1_555 1_555
H28 C30 1_555 1_555
C31 H29 1_555 1_555
C32 C31 1_555 1_555
H30 C32 1_555 1_555
H31 C32 1_555 1_555
C33 O14 1_555 1_555
C34 O15 1_555 1_555
C35 C31 1_555 1_555
C36 C35 1_555 1_555
H32 C36 1_555 1_555
C37 C36 1_555 1_555
H33 C37 1_555 1_555
C38 C37 1_555 1_555
H34 C38 1_555 1_555
C39 C38 1_555 1_555
H35 C39 1_555 1_555
C40 C35 1_555 1_555
H36 C40 1_555 1_555
C41 H37 1_555 1_555
C42 C41 1_555 1_555
H38 C42 1_555 1_555
H39 C42 1_555 1_555
C43 C41 1_555 1_555
C44 O19 1_555 1_555
C45 C41 1_555 1_555
C46 C45 1_555 1_555
H40 C46 1_555 1_555
C47 C46 1_555 1_555
H41 C47 1_555 1_555
C48 C47 1_555 1_555
H42 C48 1_555 1_555
C49 C48 1_555 1_555
H43 C49 1_555 1_555
C50 C45 1_555 1_555
H44 C50 1_555 1_555
C51 H45 1_555 1_555
C52 C51 1_555 1_555
H46 C52 1_555 1_555
C53 C52 1_555 1_555
C54 C53 1_555 1_555
H47 C54 1_555 1_555
C55 N1 1_555 1_555
H48 C55 1_555 1_555
C56 C53 1_555 1_555
H49 C56 1_555 1_555
H50 C56 1_555 1_555
C57 C56 1_555 1_555
H51 C57 1_555 1_555
H52 C57 1_555 1_555
C58 C57 1_555 1_555
H53 C58 1_555 1_555
H54 C58 1_555 1_555
C59 C58 1_555 1_555
C60 C59 1_555 1_555
H55 C60 1_555 1_555
C61 C60 1_555 1_555
H56 C61 1_555 1_555
C62 N2 1_555 1_555
H57 C62 1_555 1_555
C63 C59 1_555 1_555
H58 C63 1_555 1_555
Cd1_2 O13 1_555 1_555
Cd1_3 N2 1_555 1_555
Cd1A O4 1_555 1_555
Cd2_2 O18 1_555 1_555
Cd2A O3 1_555 1_555
Cd3_2 O17 1_555 1_555
Cd3A O10 1_555 1_555
Cd4A O4 1_555 1_555
Cd5A O16 1_555 1_555
N2_2 Cd1 1_555 1_555
O3A Cd2 1_555 1_555
O4A Cd1 1_555 1_555
O4A_2 Cd4 1_555 1_555
O10A Cd3 1_555 1_555
O12A Cd3 1_555 1_555
O13_2 Cd1 1_555 1_555
O14_2 Cd1 1_555 1_555
O15A Cd4 1_555 1_555
O16A Cd4 1_555 1_555
O17_2 Cd3 1_555 1_555
O18_2 Cd1 1_555 1_555
Cd2 O18_2 1_555 1_555
Cd3 O9 1_555 1_555
Cd5 O19 1_555 1_555
Cd5 O16A 1_555 1_555
O10 C24 1_555 1_555
O12 C23 1_555 1_555
O12 Cd3A 1_555 1_555
O14 Cd1_2 1_555 1_555
O15 Cd4A 1_555 1_555
O16 Cd4A 1_555 1_555
O18 Cd1_2 1_555 1_555
O20 C44 1_555 1_555
C9 C10 1_555 1_555
C11 C13 1_555 1_555
C12 C14 1_555 1_555
C19 C20 1_555 1_555
C21 C23 1_555 1_555
C22 C24 1_555 1_555
C29 C30 1_555 1_555
C31 C33 1_555 1_555
C32 C34 1_555 1_555
C39 C40 1_555 1_555
C42 C44 1_555 1_555
C49 C50 1_555 1_555
C54 C55 1_555 1_555
C62 C63 1_555 1_555
Cd1_2 O4A_2 1_555 1_555
Cd3A O10A 1_555 1_555
Cd4A O15A 1_555 1_555

#END
