
#######################################################################
#
#                 Cambridge Crystallographic Data Centre
#                                CCDC 
#
#######################################################################
#
# If this CIF has been generated from an entry in the Cambridge 
# Structural Database, then it will include bibliographic, chemical, 
# crystal, experimental, refinement or atomic coordinate data resulting 
# from the CCDC's data processing and validation procedures.
#
#######################################################################

data_TIRZID01
_symmetry_cell_setting           orthorhombic
_symmetry_space_group_name_H-M   'P b a n'
_symmetry_Int_Tables_number      50
_space_group_name_Hall           '-P 2ab 2b'
loop_
_symmetry_equiv_pos_site_id
_symmetry_equiv_pos_as_xyz
1 x,y,z
2 x,1/2-y,-z
3 1/2-x,y,-z
4 1/2-x,1/2-y,z
5 -x,-y,-z
6 -x,1/2+y,z
7 1/2+x,-y,z
8 1/2+x,1/2+y,-z
_cell_length_a                   11.94192(9)
_cell_length_b                   11.31702(7)
_cell_length_c                   3.58496(2)
_cell_angle_alpha                90
_cell_angle_beta                 90
_cell_angle_gamma                90
_cell_volume                     484.496
loop_
_atom_site_label
_atom_site_type_symbol
_atom_site_fract_x
_atom_site_fract_y
_atom_site_fract_z
Ni1 Ni 0.25000 0.25000 0.00000
Cl1 Cl 0.39009(14) 0.25000 0.50000
N1 N 0.25000 0.4395(5) 0.00000
C1 C 0.3457(4) 0.4981(4) 0.0854(16)
C2 C 0.3457(4) 0.6194(3) 0.0809(17)
C3 C 0.25000 0.6846(4) 0.00000
N1A N 0.25000 1.0605(5) 0.00000
C1A C 0.3457(4) 1.0019(4) -0.0854(16)
C2A C 0.3457(4) 0.8806(3) -0.0809(17)
C3A C 0.25000 0.8154(4) 0.00000
C1B C 0.1543(4) 0.4981(4) -0.0854(16)
C2B C 0.1543(4) 0.6194(3) -0.0809(17)
C1C C 0.1543(4) 1.0019(4) 0.0854(16)
C2C C 0.1543(4) 0.8806(3) 0.0809(17)
Cl1B Cl 0.10991(14) 0.25000 0.50000
Ni1_2 Ni 0.25000 0.25000 1.00000
Ni1_3 Ni 0.25000 1.25000 0.00000
Cl1_2 Cl 0.39009(14) 0.25000 -0.50000
Cl1B_2 Cl 0.10991(14) 0.25000 -0.50000
N1A_2 N 0.25000 0.0605(5) 0.00000
loop_
_geom_bond_atom_site_label_1
_geom_bond_atom_site_label_2
_geom_bond_site_symmetry_1
_geom_bond_site_symmetry_2
Ni1 Cl1 1_555 1_555
Cl1 Ni1_2 1_555 1_555
N1 Ni1 1_555 1_555
C1 N1 1_555 1_555
C2 C1 1_555 1_555
C3 C2 1_555 1_555
N1A C1A 1_555 1_555
C1A C2A 1_555 1_555
C2A C3A 1_555 1_555
C3A C3 1_555 1_555
C1B N1 1_555 1_555
C2B C3 1_555 1_555
C1C N1A 1_555 1_555
C2C C3A 1_555 1_555
Cl1B Ni1 1_555 1_555
Ni1_2 Cl1B 1_555 1_555
Ni1_3 N1A 1_555 1_555
Cl1_2 Ni1 1_555 1_555
Cl1B_2 Ni1 1_555 1_555
N1A_2 Ni1 1_555 1_555
C1B C2B 1_555 1_555
C1C C2C 1_555 1_555

#END
