
#######################################################################
#
#                 Cambridge Crystallographic Data Centre
#                                CCDC 
#
#######################################################################
#
# If this CIF has been generated from an entry in the Cambridge 
# Structural Database, then it will include bibliographic, chemical, 
# crystal, experimental, refinement or atomic coordinate data resulting 
# from the CCDC's data processing and validation procedures.
#
#######################################################################

data_TIRZOJ
_symmetry_cell_setting           orthorhombic
_symmetry_space_group_name_H-M   'C m m m'
_symmetry_Int_Tables_number      65
_space_group_name_Hall           '-C 2 2'
loop_
_symmetry_equiv_pos_site_id
_symmetry_equiv_pos_as_xyz
1 x,y,z
2 -x,-y,z
3 x,-y,-z
4 -x,y,-z
5 1/2+x,1/2+y,z
6 1/2-x,1/2-y,z
7 1/2+x,1/2-y,-z
8 1/2-x,1/2+y,-z
9 -x,-y,-z
10 x,y,-z
11 -x,y,z
12 x,-y,z
13 1/2-x,1/2-y,-z
14 1/2+x,1/2+y,-z
15 1/2-x,1/2+y,z
16 1/2+x,1/2-y,z
_cell_length_a                   12.3955(4)
_cell_length_b                   11.3298(3)
_cell_length_c                   3.7338(1)
_cell_angle_alpha                90
_cell_angle_beta                 90
_cell_angle_gamma                90
_cell_volume                     524.369
loop_
_atom_site_label
_atom_site_type_symbol
_atom_site_fract_x
_atom_site_fract_y
_atom_site_fract_z
Ni1 Ni 0.00000 0.0000 -2.00000
Br1 Br 0.1454(1) 0.0000 -1.50000
N1 N 0.00000 0.1885(3) -2.00000
C1 C 0.09641(4) 0.2493(3) -2.00000
C2 C 0.09632(4) 0.3724(2) -2.00000
C3 C 0.00000 0.4332(2) -2.00000
Ni1_2 Ni 0.00000 0.0000 -1.00000
Br1A Br -0.1454(1) 0.0000 -1.50000
Br1_2 Br 0.1454(1) 0.0000 -2.50000
Ni1_3 Ni 0.00000 0.0000 -3.00000
Br1A_2 Br -0.1454(1) 0.0000 -2.50000
C2C C -0.09632(4) 0.3724(2) -2.00000
C1C C -0.09641(4) 0.2493(3) -2.00000
C3A C 0.00000 0.5668(2) -2.00000
C2A C -0.09632(4) 0.6276(2) -2.00000
C1A C -0.09641(4) 0.7507(3) -2.00000
N1A N 0.00000 0.8115(3) -2.00000
Ni1_4 Ni 0.00000 1.0000 -2.00000
C1B C 0.09641(4) 0.7507(3) -2.00000
C2B C 0.09632(4) 0.6276(2) -2.00000
N1A_2 N 0.00000 -0.1885(3) -2.00000
loop_
_geom_bond_atom_site_label_1
_geom_bond_atom_site_label_2
_geom_bond_site_symmetry_1
_geom_bond_site_symmetry_2
Ni1 Br1 1_555 1_555
Br1 Ni1_2 1_555 1_555
N1 Ni1 1_555 1_555
C1 N1 1_555 1_555
C2 C1 1_555 1_555
C3 C2 1_555 1_555
Ni1_2 Br1A 1_555 1_555
Br1A Ni1 1_555 1_555
Br1_2 Ni1 1_555 1_555
Ni1_3 Br1_2 1_555 1_555
Br1A_2 Ni1 1_555 1_555
C2C C3 1_555 1_555
C1C N1 1_555 1_555
C3A C3 1_555 1_555
C2A C3A 1_555 1_555
C1A C2A 1_555 1_555
N1A C1A 1_555 1_555
Ni1_4 N1A 1_555 1_555
C1B N1A 1_555 1_555
C2B C3A 1_555 1_555
N1A_2 Ni1 1_555 1_555
Ni1_3 Br1A_2 1_555 1_555
C2C C1C 1_555 1_555
C1B C2B 1_555 1_555

#END
