
#######################################################################
#
#                 Cambridge Crystallographic Data Centre
#                                CCDC 
#
#######################################################################
#
# If this CIF has been generated from an entry in the Cambridge 
# Structural Database, then it will include bibliographic, chemical, 
# crystal, experimental, refinement or atomic coordinate data resulting 
# from the CCDC's data processing and validation procedures.
#
#######################################################################

data_TISBEC
_symmetry_cell_setting           monoclinic
_symmetry_space_group_name_H-M   'C 2/m'
_symmetry_Int_Tables_number      12
_space_group_name_Hall           '-C 2y'
loop_
_symmetry_equiv_pos_site_id
_symmetry_equiv_pos_as_xyz
1 x,y,z
2 -x,y,-z
3 1/2+x,1/2+y,z
4 1/2-x,1/2+y,-z
5 -x,-y,-z
6 x,-y,z
7 1/2-x,1/2-y,-z
8 1/2+x,1/2-y,z
_cell_length_a                   12.291(1)
_cell_length_b                   11.1302(9)
_cell_length_c                   3.9747(4)
_cell_angle_alpha                90
_cell_angle_beta                 99.653(4)
_cell_angle_gamma                90
_cell_volume                     536.045
loop_
_atom_site_label
_atom_site_type_symbol
_atom_site_fract_x
_atom_site_fract_y
_atom_site_fract_z
Cu1 Cu 0.0000 0.0000 0.0000
Br1 Br 0.1619(2) 0.0000 0.4497(6)
N1 N 0.0000 0.1867(6) 0.0000
C1 C 0.0903(3) 0.2475(6) -0.072(2)
C2 C 0.0876(4) 0.3722(6) -0.092(2)
C3 C 0.0000 0.4353(5) 0.0000
Br1A Br -0.1619(2) 0.0000 -0.4497(6)
C2A C -0.0876(4) 0.3722(6) 0.092(2)
C1A C -0.0903(3) 0.2475(6) 0.072(2)
C3D C 0.0000 0.5647(5) 0.0000
C2D C -0.0876(4) 0.6278(6) 0.092(2)
C1D C -0.0903(3) 0.7525(6) 0.072(2)
N1D N 0.0000 0.8133(6) 0.0000
Cu1D Cu 0.0000 1.0000 0.0000
C1E C 0.0903(3) 0.7525(6) -0.072(2)
C2E C 0.0876(4) 0.6278(6) -0.092(2)
N1D_2 N 0.0000 -0.1867(6) 0.0000
loop_
_geom_bond_atom_site_label_1
_geom_bond_atom_site_label_2
_geom_bond_site_symmetry_1
_geom_bond_site_symmetry_2
Cu1 Br1 1_555 1_555
N1 Cu1 1_555 1_555
C1 N1 1_555 1_555
C2 C1 1_555 1_555
C3 C2 1_555 1_555
Br1A Cu1 1_555 1_555
C2A C3 1_555 1_555
C1A N1 1_555 1_555
C3D C3 1_555 1_555
C2D C3D 1_555 1_555
C1D C2D 1_555 1_555
N1D C1D 1_555 1_555
Cu1D N1D 1_555 1_555
C1E N1D 1_555 1_555
C2E C3D 1_555 1_555
N1D_2 Cu1 1_555 1_555
C2A C1A 1_555 1_555
C1E C2E 1_555 1_555

#END
