
#######################################################################
#
#                 Cambridge Crystallographic Data Centre
#                                CCDC 
#
#######################################################################
#
# If this CIF has been generated from an entry in the Cambridge 
# Structural Database, then it will include bibliographic, chemical, 
# crystal, experimental, refinement or atomic coordinate data resulting 
# from the CCDC's data processing and validation procedures.
#
#######################################################################

data_TISBEE
_symmetry_cell_setting           monoclinic
_symmetry_space_group_name_H-M   'P 21/n'
_symmetry_Int_Tables_number      14
_space_group_name_Hall           '-P 2yn'
loop_
_symmetry_equiv_pos_site_id
_symmetry_equiv_pos_as_xyz
1 x,y,z
2 1/2-x,1/2+y,1/2-z
3 -x,-y,-z
4 1/2+x,1/2-y,1/2+z
_cell_length_a                   18.816(4)
_cell_length_b                   11.581(2)
_cell_length_c                   19.253(4)
_cell_angle_alpha                90
_cell_angle_beta                 94.168(4)
_cell_angle_gamma                90
_cell_volume                     4184.29
loop_
_atom_site_label
_atom_site_type_symbol
_atom_site_fract_x
_atom_site_fract_y
_atom_site_fract_z
Cd1 Cd 0.39920(7) 0.93265(9) 0.53444(7)
Cd2 Cd 0.35553(8) -0.05400(9) 0.01734(7)
I1 I 0.56449(7) 0.89414(10) 0.57195(6)
I2 I 0.25007(8) 0.94995(11) 0.50795(7)
I3 I 0.41380(7) 0.10130(10) -0.07769(6)
I4 I 0.20917(8) -0.05694(11) 0.00158(7)
O1 O 0.3894(6) 0.8000(8) 0.6317(6)
O2 O 0.3802(6) -0.1716(8) 0.1212(6)
N1 N 0.3892(8) 1.7769(10) 0.9618(7)
N2 N 0.5097(7) 1.4375(9) 0.8571(6)
N3 N 0.5143(7) 1.3441(10) 0.8136(6)
N4 N 0.4077(6) 1.4212(8) 0.7973(6)
N5 N 0.4122(7) 1.0746(9) 0.6231(7)
N6 N 0.2136(7) 1.3743(12) 0.7818(8)
N7 N 0.4104(7) 0.7705(10) 0.4604(7)
N8 N 0.5089(7) 0.4408(9) 0.3292(6)
N9 N 0.5036(7) 0.3488(9) 0.2830(7)
N10 N 0.4014(6) 0.4397(8) 0.2752(6)
N11 N 0.3825(8) 0.0883(9) 0.1038(6)
N12 N 0.2061(7) 0.4245(12) 0.2803(8)
C1 C 0.3650(9) 1.6420(12) 0.8716(9)
H1 H 0.3336 1.6177 0.8350
C2 C 0.3480(10) 1.7393(13) 0.9098(9)
H2 H 0.3058 1.7784 0.8975
C3 C 0.4469(10) 1.7189(13) 0.9759(9)
H3 H 0.4771 1.7434 1.0134
C4 C 0.4674(10) 1.6232(12) 0.9395(9)
H4 H 0.5104 1.5864 0.9518
C5 C 0.4241(9) 1.5839(12) 0.8861(8)
C6 C 0.4472(10) 1.4795(12) 0.8480(8)
C7 C 0.4520(9) 1.3357(12) 0.7781(8)
C8 C 0.4356(8) 1.2471(11) 0.7226(8)
C9 C 0.4674(8) 1.1398(11) 0.7335(8)
H5 H 0.4968 1.1228 0.7731
C10 C 0.4519(9) 1.0601(12) 0.6811(8)
H6 H 0.4721 0.9874 0.6879
C11 C 0.3823(8) 1.1779(11) 0.6149(8)
H7 H 0.3524 1.1924 0.5752
C12 C 0.3943(8) 1.2644(12) 0.6634(8)
H8 H 0.3735 1.3363 0.6551
C13 C 0.3368(9) 1.4351(12) 0.7734(8)
C14 C 0.2836(9) 1.3697(12) 0.8027(8)
H9 H 0.2975 1.3198 0.8390
C15 C 0.1967(9) 1.4513(13) 0.7312(9)
H10 H 0.1486 1.4597 0.7172
C16 C 0.2424(9) 1.5168(12) 0.6990(8)
H11 H 0.2264 1.5671 0.6637
C17 C 0.3135(9) 1.5084(12) 0.7192(8)
H12 H 0.3464 1.5519 0.6966
C18 C 0.3842(8) 0.6796(12) 0.3518(8)
H13 H 0.3579 0.6797 0.3091
C19 C 0.3766(9) 0.7677(12) 0.3976(8)
H14 H 0.3463 0.8284 0.3842
C20 C 0.4553(9) 0.6888(13) 0.4769(9)
H15 H 0.4798 0.6906 0.5206
C21 C 0.4684(9) 0.5974(12) 0.4316(8)
H16 H 0.5025 0.5416 0.4442
C22 C 0.4298(8) 0.5923(12) 0.3683(8)
C23 C 0.4460(9) 0.4920(12) 0.3249(8)
C24 C 0.4414(9) 0.3513(12) 0.2512(8)
C25 C 0.4180(8) 0.2628(12) 0.1983(8)
C26 C 0.4583(9) 0.1669(12) 0.1920(8)
H17 H 0.4997 0.1584 0.2210
C27 C 0.4408(9) 0.0838(12) 0.1454(9)
H18 H 0.4710 0.0207 0.1425
C28 C 0.3444(9) 0.1802(12) 0.1058(8)
H19 H 0.3047 0.1878 0.0744
C29 C 0.3605(9) 0.2689(12) 0.1533(8)
H20 H 0.3309 0.3332 0.1537
C30 C 0.3283(9) 0.4652(12) 0.2589(8)
C31 C 0.2757(9) 0.4090(12) 0.2944(8)
H21 H 0.2903 0.3581 0.3300
C32 C 0.1876(9) 0.4959(13) 0.2280(9)
H22 H 0.1393 0.5075 0.2167
C33 C 0.2357(9) 0.5546(12) 0.1890(8)
H23 H 0.2196 0.6043 0.1533
C34 C 0.3069(8) 0.5374(11) 0.2044(8)
H24 H 0.3403 0.5737 0.1786
Cd1B Cd 0.60080(7) 1.06735(9) 0.46556(7)
Cd2_2 Cd 0.35553(8) 1.94600(9) 1.01734(7)
I1B I 0.43551(7) 1.10586(10) 0.42805(6)
N1_2 N 0.3892(8) -0.2231(10) -0.0382(7)
loop_
_geom_bond_atom_site_label_1
_geom_bond_atom_site_label_2
_geom_bond_site_symmetry_1
_geom_bond_site_symmetry_2
Cd1 I1 1_555 1_555
Cd2 I3 1_555 1_555
I1 Cd1B 1_555 1_555
I2 Cd1 1_555 1_555
I4 Cd2 1_555 1_555
O1 Cd1 1_555 1_555
O2 Cd2 1_555 1_555
N1 C2 1_555 1_555
N2 N3 1_555 1_555
N3 C7 1_555 1_555
N4 C6 1_555 1_555
N5 Cd1 1_555 1_555
N6 C14 1_555 1_555
N7 Cd1 1_555 1_555
N8 N9 1_555 1_555
N9 C24 1_555 1_555
N10 C23 1_555 1_555
N11 Cd2 1_555 1_555
N12 C31 1_555 1_555
C1 H1 1_555 1_555
C2 C1 1_555 1_555
H2 C2 1_555 1_555
C3 N1 1_555 1_555
H3 C3 1_555 1_555
C4 C3 1_555 1_555
H4 C4 1_555 1_555
C5 C1 1_555 1_555
C6 N2 1_555 1_555
C7 N4 1_555 1_555
C8 C7 1_555 1_555
C9 C8 1_555 1_555
H5 C9 1_555 1_555
C10 N5 1_555 1_555
H6 C10 1_555 1_555
C11 N5 1_555 1_555
H7 C11 1_555 1_555
C12 C8 1_555 1_555
H8 C12 1_555 1_555
C13 N4 1_555 1_555
C14 C13 1_555 1_555
H9 C14 1_555 1_555
C15 N6 1_555 1_555
H10 C15 1_555 1_555
C16 C15 1_555 1_555
H11 C16 1_555 1_555
C17 C13 1_555 1_555
H12 C17 1_555 1_555
C18 H13 1_555 1_555
C19 N7 1_555 1_555
H14 C19 1_555 1_555
C20 N7 1_555 1_555
H15 C20 1_555 1_555
C21 C20 1_555 1_555
H16 C21 1_555 1_555
C22 C18 1_555 1_555
C23 N8 1_555 1_555
C24 N10 1_555 1_555
C25 C24 1_555 1_555
C26 C25 1_555 1_555
H17 C26 1_555 1_555
C27 N11 1_555 1_555
H18 C27 1_555 1_555
C28 N11 1_555 1_555
H19 C28 1_555 1_555
C29 C25 1_555 1_555
H20 C29 1_555 1_555
C30 N10 1_555 1_555
C31 C30 1_555 1_555
H21 C31 1_555 1_555
C32 N12 1_555 1_555
H22 C32 1_555 1_555
C33 C32 1_555 1_555
H23 C33 1_555 1_555
C34 C30 1_555 1_555
H24 C34 1_555 1_555
Cd1B I1B 1_555 1_555
Cd2_2 N1 1_555 1_555
I1B Cd1 1_555 1_555
N1_2 Cd2 1_555 1_555
C4 C5 1_555 1_555
C5 C6 1_555 1_555
C9 C10 1_555 1_555
C11 C12 1_555 1_555
C16 C17 1_555 1_555
C18 C19 1_555 1_555
C21 C22 1_555 1_555
C22 C23 1_555 1_555
C26 C27 1_555 1_555
C28 C29 1_555 1_555
C33 C34 1_555 1_555

#END
