
#######################################################################
#
#                 Cambridge Crystallographic Data Centre
#                                CCDC 
#
#######################################################################
#
# If this CIF has been generated from an entry in the Cambridge 
# Structural Database, then it will include bibliographic, chemical, 
# crystal, experimental, refinement or atomic coordinate data resulting 
# from the CCDC's data processing and validation procedures.
#
#######################################################################

data_TISBAY01
_symmetry_cell_setting           orthorhombic
_symmetry_space_group_name_H-M   'C m m m'
_symmetry_Int_Tables_number      65
_space_group_name_Hall           '-C 2 2'
loop_
_symmetry_equiv_pos_site_id
_symmetry_equiv_pos_as_xyz
1 x,y,z
2 -x,-y,z
3 x,-y,-z
4 -x,y,-z
5 1/2+x,1/2+y,z
6 1/2-x,1/2-y,z
7 1/2+x,1/2-y,-z
8 1/2-x,1/2+y,-z
9 -x,-y,-z
10 x,y,-z
11 -x,y,z
12 x,-y,z
13 1/2-x,1/2-y,-z
14 1/2+x,1/2+y,-z
15 1/2-x,1/2+y,z
16 1/2+x,1/2-y,z
_cell_length_a                   12.104(2)
_cell_length_b                   11.140(4)
_cell_length_c                   3.752(1)
_cell_angle_alpha                90
_cell_angle_beta                 90
_cell_angle_gamma                90
_cell_volume                     505.914
loop_
_atom_site_label
_atom_site_type_symbol
_atom_site_fract_x
_atom_site_fract_y
_atom_site_fract_z
Cu1 Cu 0.00000 0.0000 0.000
Cl1 Cl 0.1501(5) 0.0000 0.396(2)
N1 N 0.00000 0.1841(4) 0.000
C1 C 0.09873(5) 0.2460(4) 0.000
C2 C 0.09862(6) 0.3700(4) 0.000
C3 C 0.00000 0.4327(3) 0.000
Cl1A Cl -0.1501(5) 0.0000 0.396(2)
Cl1B Cl 0.1501(5) 0.0000 -0.396(2)
Cl1C Cl -0.1501(5) 0.0000 -0.396(2)
N1A N 0.00000 -0.1841(4) 0.000
Cl1B_2 Cl 0.1501(5) 0.0000 0.604(2)
C1C C -0.09873(5) 0.2460(4) 0.000
C2C C -0.09862(6) 0.3700(4) 0.000
C3A C 0.00000 0.5673(3) 0.000
loop_
_geom_bond_atom_site_label_1
_geom_bond_atom_site_label_2
_geom_bond_site_symmetry_1
_geom_bond_site_symmetry_2
Cu1 Cl1 1_555 1_555
Cl1 Cl1B_2 1_555 1_555
N1 Cu1 1_555 1_555
C1 N1 1_555 1_555
C2 C1 1_555 1_555
C3 C2 1_555 1_555
Cl1A Cu1 1_555 1_555
Cl1B Cu1 1_555 1_555
Cl1C Cu1 1_555 1_555
N1A Cu1 1_555 1_555
C1C N1 1_555 1_555
C2C C3 1_555 1_555
C3A C3 1_555 1_555
C1C C2C 1_555 1_555

#END
