
#######################################################################
#
#                 Cambridge Crystallographic Data Centre
#                                CCDC 
#
#######################################################################
#
# If this CIF has been generated from an entry in the Cambridge 
# Structural Database, then it will include bibliographic, chemical, 
# crystal, experimental, refinement or atomic coordinate data resulting 
# from the CCDC's data processing and validation procedures.
#
#######################################################################

data_TISDIJ
_symmetry_cell_setting           monoclinic
_symmetry_space_group_name_H-M   'P 21/c'
_symmetry_Int_Tables_number      14
_space_group_name_Hall           '-P 2ybc'
loop_
_symmetry_equiv_pos_site_id
_symmetry_equiv_pos_as_xyz
1 x,y,z
2 -x,1/2+y,1/2-z
3 -x,-y,-z
4 x,1/2-y,1/2+z
_cell_length_a                   13.419(7)
_cell_length_b                   10.143(5)
_cell_length_c                   11.526(8)
_cell_angle_alpha                90.00
_cell_angle_beta                 99.82(3)
_cell_angle_gamma                90.00
_cell_volume                     1545.81
loop_
_atom_site_label
_atom_site_type_symbol
_atom_site_fract_x
_atom_site_fract_y
_atom_site_fract_z
Na1 Na -0.49554(8) -0.36844(9) -0.57545(8)
N1 N -0.34509(15) -0.32607(18) -0.21532(15)
N2 N -0.35062(16) -0.2642(2) -0.10413(17)
H1 H -0.301(2) -0.208(3) -0.091(2)
N3 N -0.40302(14) -0.44216(18) -0.38850(16)
N4 N -0.29472(14) -0.44210(19) -0.36252(16)
B1 B -0.4334(2) -0.3703(3) -0.2966(2)
B2 B -0.2564(2) -0.3743(3) -0.2575(2)
C1 C -0.3313(2) -0.3608(2) -0.0087(2)
H2 H -0.3298 -0.3161 0.0670
H3 H -0.3850 -0.4273 -0.0194
H4 H -0.2660 -0.4037 -0.0097
C2 C -0.24427(19) -0.5186(3) -0.4410(2)
H5 H -0.2757 -0.5011 -0.5227
H6 H -0.1726 -0.4940 -0.4296
H7 H -0.2503 -0.6127 -0.4239
C3 C -0.54726(18) -0.3401(2) -0.28697(19)
C4 C -0.59753(19) -0.2285(2) -0.3388(2)
H8 H -0.5610 -0.1675 -0.3780
C5 C -0.6984(2) -0.2032(3) -0.3353(2)
H9 H -0.7295 -0.1261 -0.3717
C6 C -0.7536(2) -0.2891(3) -0.2796(2)
H10 H -0.8229 -0.2724 -0.2775
C7 C -0.7069(2) -0.3998(3) -0.2269(2)
H11 H -0.7444 -0.4601 -0.1882
C8 C -0.6059(2) -0.4242(3) -0.2297(2)
H12 H -0.5752 -0.5006 -0.1914
C9 C -0.14358(19) -0.3554(2) -0.1985(2)
C10 C -0.1085(2) -0.2330(3) -0.1502(2)
H13 H -0.1537 -0.1602 -0.1567
C11 C -0.0095(2) -0.2162(4) -0.0933(3)
H14 H 0.0121 -0.1329 -0.0606
C12 C 0.0573(2) -0.3198(4) -0.0841(3)
H15 H 0.1250 -0.3081 -0.0451
C13 C 0.0262(2) -0.4403(3) -0.1314(3)
H16 H 0.0724 -0.5119 -0.1254
C14 C -0.07254(19) -0.4569(3) -0.1878(2)
H17 H -0.0927 -0.5407 -0.2204
Na1B Na -0.50446(8) -0.63156(9) -0.42455(8)
Na1C Na -0.49554(8) -0.13156(9) -0.07545(8)
N2C N -0.35062(16) -0.2358(2) -0.60413(17)
H1C H -0.301(2) -0.292(3) -0.591(2)
N3B N -0.59698(14) -0.55784(18) -0.61150(16)
loop_
_geom_bond_atom_site_label_1
_geom_bond_atom_site_label_2
_geom_bond_site_symmetry_1
_geom_bond_site_symmetry_2
Na1 N3 1_555 1_555
N1 N2 1_555 1_555
N2 H1 1_555 1_555
N3 N4 1_555 1_555
N4 B2 1_555 1_555
B1 N1 1_555 1_555
B2 N1 1_555 1_555
C1 N2 1_555 1_555
H2 C1 1_555 1_555
H3 C1 1_555 1_555
H4 C1 1_555 1_555
C2 N4 1_555 1_555
H5 C2 1_555 1_555
H6 C2 1_555 1_555
H7 C2 1_555 1_555
C3 B1 1_555 1_555
C4 C3 1_555 1_555
H8 C4 1_555 1_555
C5 C4 1_555 1_555
H9 C5 1_555 1_555
C6 C5 1_555 1_555
H10 C6 1_555 1_555
C7 C6 1_555 1_555
H11 C7 1_555 1_555
C8 C3 1_555 1_555
H12 C8 1_555 1_555
C9 B2 1_555 1_555
C10 C9 1_555 1_555
H13 C10 1_555 1_555
C11 C10 1_555 1_555
H14 C11 1_555 1_555
C12 C11 1_555 1_555
H15 C12 1_555 1_555
C13 C12 1_555 1_555
H16 C13 1_555 1_555
C14 C9 1_555 1_555
H17 C14 1_555 1_555
Na1B N3 1_555 1_555
Na1C N2 1_555 1_555
N2C Na1 1_555 1_555
H1C N2C 1_555 1_555
N3B Na1 1_555 1_555
N3 B1 1_555 1_555
C7 C8 1_555 1_555
C13 C14 1_555 1_555
Na1B N3B 1_555 1_555

#END
