
#######################################################################
#
#                 Cambridge Crystallographic Data Centre
#                                CCDC 
#
#######################################################################
#
# If this CIF has been generated from an entry in the Cambridge 
# Structural Database, then it will include bibliographic, chemical, 
# crystal, experimental, refinement or atomic coordinate data resulting 
# from the CCDC's data processing and validation procedures.
#
#######################################################################

data_TISHOT
_symmetry_cell_setting           triclinic
_symmetry_space_group_name_H-M   'P -1'
_symmetry_Int_Tables_number      2
_space_group_name_Hall           '-P 1'
loop_
_symmetry_equiv_pos_site_id
_symmetry_equiv_pos_as_xyz
1 x,y,z
2 -x,-y,-z
_cell_length_a                   10.077(3)
_cell_length_b                   11.465(3)
_cell_length_c                   11.957(3)
_cell_angle_alpha                115.208(5)
_cell_angle_beta                 102.393(5)
_cell_angle_gamma                101.113(5)
_cell_volume                     1155.91
loop_
_atom_site_label
_atom_site_type_symbol
_atom_site_fract_x
_atom_site_fract_y
_atom_site_fract_z
Ag1 Ag 0.15345(6) 0.16039(5) -0.05039(5)
Ag2 Ag 0.34412(6) -0.02702(6) 0.07192(6)
F1 F 0.1558(6) 0.3189(5) 0.3322(6)
F2 F -0.0555(5) 0.2034(4) 0.2880(4)
F3 F -0.0001(6) 0.2438(5) 0.1450(5)
F4 F 0.3140(7) -0.4383(5) -0.3562(7)
F5 F 0.4904(8) -0.3222(5) -0.3712(6)
F6 F 0.5187(6) -0.3638(5) -0.2150(5)
O1 O 0.1638(5) 0.0826(4) 0.1075(4)
O2 O 0.2130(5) -0.1347(4) 0.1567(5)
O3 O 0.3490(5) -0.2146(4) -0.1177(5)
O4 O 0.3237(5) 0.0487(4) -0.0890(4)
N1 N 0.1867(7) 0.3740(6) -0.0051(6)
C1 C 0.0476(8) 0.2138(7) 0.2371(7)
C2 C 0.0969(7) 0.0881(6) 0.1860(6)
C3 C 0.0675(7) -0.0014(6) 0.2356(6)
H1 H 0.0010 0.0067 0.2793
C4 C 0.1339(7) -0.1053(6) 0.2232(6)
C5 C 0.1096(7) -0.1818(6) 0.2963(6)
C6 C 0.1983(8) -0.2580(6) 0.3064(7)
H2 H 0.2717 -0.2575 0.2707
C7 C 0.1797(9) -0.3343(7) 0.3681(7)
H3 H 0.2408 -0.3841 0.3748
C8 C 0.0699(10) -0.3367(8) 0.4202(7)
H4 H 0.0560 -0.3887 0.4613
C9 C -0.0189(9) -0.2614(8) 0.4106(7)
H5 H -0.0928 -0.2627 0.4456
C10 C 0.0005(8) -0.1849(7) 0.3504(6)
H6 H -0.0599 -0.1340 0.3454
C11 C 0.4299(10) -0.3322(8) -0.2877(8)
C12 C 0.3960(7) -0.2054(6) -0.2020(7)
C13 C 0.4170(7) -0.0993(6) -0.2338(6)
H7 H 0.4642 -0.1063 -0.2942
C14 C 0.3725(6) 0.0168(6) -0.1819(6)
C15 C 0.3893(6) 0.1088(6) -0.2407(6)
C16 C 0.4282(7) 0.2483(6) -0.1600(7)
H8 H 0.4425 0.2831 -0.0709
C17 C 0.4455(8) 0.3354(7) -0.2103(8)
H9 H 0.4749 0.4288 -0.1546
C18 C 0.4199(8) 0.2857(8) -0.3427(9)
H10 H 0.4302 0.3448 -0.3769
C19 C 0.3788(8) 0.1471(8) -0.4237(7)
H11 H 0.3608 0.1126 -0.5133
C20 C 0.3641(8) 0.0593(7) -0.3735(7)
H12 H 0.3370 -0.0340 -0.4292
C21 C 0.1713(10) 0.5638(7) -0.0647(8)
H13 H 0.2606 0.5995 -0.0732
H14 H 0.1527 0.6355 0.0028
H15 H 0.0952 0.5265 -0.1464
C22 C 0.1795(7) 0.4568(7) -0.0301(7)
Ag1A Ag -0.15345(6) -0.16039(5) 0.05039(5)
Ag2A Ag 0.65588(6) 0.02702(6) -0.07192(6)
C3A C -0.0675(7) 0.0014(6) -0.2356(6)
H1A H -0.0010 -0.0067 -0.2793
C13A C 0.5830(7) 0.0993(6) 0.2338(6)
H7A H 0.5358 0.1063 0.2942
loop_
_geom_bond_atom_site_label_1
_geom_bond_atom_site_label_2
_geom_bond_site_symmetry_1
_geom_bond_site_symmetry_2
Ag1 O1 1_555 1_555
Ag2 O1 1_555 1_555
F1 C1 1_555 1_555
F2 C1 1_555 1_555
F3 C1 1_555 1_555
F4 C11 1_555 1_555
F5 C11 1_555 1_555
F6 C11 1_555 1_555
O1 C2 1_555 1_555
O2 Ag2 1_555 1_555
O3 Ag2 1_555 1_555
O4 Ag1 1_555 1_555
N1 Ag1 1_555 1_555
C1 C2 1_555 1_555
C2 C3 1_555 1_555
C3 H1 1_555 1_555
C4 O2 1_555 1_555
C5 C4 1_555 1_555
C6 C5 1_555 1_555
H2 C6 1_555 1_555
C7 C6 1_555 1_555
H3 C7 1_555 1_555
C8 C7 1_555 1_555
H4 C8 1_555 1_555
C9 C8 1_555 1_555
H5 C9 1_555 1_555
C10 C5 1_555 1_555
H6 C10 1_555 1_555
C11 C12 1_555 1_555
C12 O3 1_555 1_555
C13 C12 1_555 1_555
H7 C13 1_555 1_555
C14 O4 1_555 1_555
C15 C14 1_555 1_555
C16 C15 1_555 1_555
H8 C16 1_555 1_555
C17 C16 1_555 1_555
H9 C17 1_555 1_555
C18 C17 1_555 1_555
H10 C18 1_555 1_555
C19 C18 1_555 1_555
H11 C19 1_555 1_555
C20 C15 1_555 1_555
H12 C20 1_555 1_555
C21 H13 1_555 1_555
H14 C21 1_555 1_555
H15 C21 1_555 1_555
C22 N1 1_555 1_555
Ag1A C3 1_555 1_555
Ag2A C13 1_555 1_555
C3A Ag1 1_555 1_555
H1A C3A 1_555 1_555
C13A Ag2 1_555 1_555
H7A C13A 1_555 1_555
Ag2 O4 1_555 1_555
C3 C4 1_555 1_555
C9 C10 1_555 1_555
C13 C14 1_555 1_555
C19 C20 1_555 1_555
C21 C22 1_555 1_555

#END
