
#######################################################################
#
#                 Cambridge Crystallographic Data Centre
#                                CCDC 
#
#######################################################################
#
# If this CIF has been generated from an entry in the Cambridge 
# Structural Database, then it will include bibliographic, chemical, 
# crystal, experimental, refinement or atomic coordinate data resulting 
# from the CCDC's data processing and validation procedures.
#
#######################################################################

data_TISHEJ
_symmetry_cell_setting           orthorhombic
_symmetry_space_group_name_H-M   'A b a 2'
_symmetry_Int_Tables_number      41
_space_group_name_Hall           'A 2 -2ab'
loop_
_symmetry_equiv_pos_site_id
_symmetry_equiv_pos_as_xyz
1 x,y,z
2 -x,-y,z
3 1/2+x,1/2-y,z
4 1/2-x,1/2+y,z
5 x,1/2+y,1/2+z
6 -x,1/2-y,1/2+z
7 1/2+x,-y,1/2+z
8 1/2-x,y,1/2+z
_cell_length_a                   15.4071(12)
_cell_length_b                   20.450(2)
_cell_length_c                   9.9044(10)
_cell_angle_alpha                90
_cell_angle_beta                 90
_cell_angle_gamma                90
_cell_volume                     3120.63
loop_
_atom_site_label
_atom_site_type_symbol
_atom_site_fract_x
_atom_site_fract_y
_atom_site_fract_z
Mn1 Mn 0.0000 0.5000 0.01838(9)
O1 O 0.07367(16) 0.56052(11) 0.1544(3)
O2 O -0.03296(17) 0.63228(14) 0.1540(3)
N1 N 0.50374(16) 0.92562(13) 0.8438(3)
N2 N 0.35492(17) 0.97237(13) 0.9511(3)
N3 N 0.20127(17) 0.83084(12) 0.6213(3)
H1 H 0.1465 0.8362 0.6337
N4 N 0.32560(17) 0.79167(13) 0.5355(3)
C1 C 0.5763(2) 0.90189(19) 0.7917(4)
H2 H 0.6285 0.9158 0.8291
C2 C 0.5800(3) 0.8581(2) 0.6860(5)
H3 H 0.6331 0.8433 0.6533
C3 C 0.5040(2) 0.8369(2) 0.6306(4)
H4 H 0.5046 0.8073 0.5594
C4 C 0.4256(2) 0.86005(15) 0.6812(4)
C5 C 0.3428(2) 0.83795(15) 0.6338(3)
C6 C 0.2672(2) 0.86237(15) 0.6885(3)
C7 C 0.2656(2) 0.90954(14) 0.7946(3)
C8 C 0.1908(2) 0.93740(16) 0.8511(4)
H5 H 0.1361 0.9265 0.8184
C9 C 0.1995(2) 0.98110(19) 0.9557(4)
H6 H 0.1508 1.0001 0.9948
C10 C 0.2820(2) 0.99658(15) 1.0024(5)
H7 H 0.2865 1.0257 1.0741
C11 C 0.4276(2) 0.90510(15) 0.7887(3)
C12 C 0.3474(2) 0.93014(14) 0.8466(3)
C13 C 0.23954(19) 0.78917(13) 0.5308(4)
C14 C 0.2290(2) 0.69209(17) 0.3820(4)
H8 H 0.2876 0.6842 0.3977
C15 C 0.1901(2) 0.74577(15) 0.4412(3)
C16 C 0.1026(2) 0.75741(15) 0.4143(4)
H9 H 0.0750 0.7932 0.4531
C17 C 0.1827(2) 0.64977(17) 0.2997(4)
H10 H 0.2102 0.6137 0.2619
C18 C 0.0951(2) 0.66106(16) 0.2732(3)
C19 C 0.0563(2) 0.71561(15) 0.3296(4)
H11 H -0.0016 0.7246 0.3107
C20 C 0.0415(2) 0.61541(15) 0.1871(3)
Mn1B Mn 0.5000 1.0000 1.01838(9)
Mn1B_2 Mn -0.5000 0.0000 1.01838(9)
O1A O -0.07367(16) 0.43948(11) 0.1544(3)
O2A O 0.03296(17) 0.36772(14) 0.1540(3)
N1A N -0.50374(16) 0.07438(13) 0.8438(3)
N1B N 0.00374(16) 0.57438(13) -0.1562(3)
N1C N -0.00374(16) 0.42562(13) -0.1562(3)
N2A N -0.35492(17) 0.02763(13) 0.9511(3)
N2B N -0.14508(17) 0.52763(13) -0.0489(3)
N2C N 0.14508(17) 0.47237(13) -0.0489(3)
N3A N -0.20127(17) 0.16916(12) 0.6213(3)
H1A H -0.1465 0.1638 0.6337
N4A N -0.32560(17) 0.20833(13) 0.5355(3)
C1A C -0.5763(2) 0.09811(19) 0.7917(4)
H2A H -0.6285 0.0842 0.8291
C2A C -0.5800(3) 0.1419(2) 0.6860(5)
H3A H -0.6331 0.1567 0.6533
C3A C -0.5040(2) 0.1631(2) 0.6306(4)
H4A H -0.5046 0.1927 0.5594
C4A C -0.4256(2) 0.13995(15) 0.6812(4)
C5A C -0.3428(2) 0.16205(15) 0.6338(3)
C6A C -0.2672(2) 0.13763(15) 0.6885(3)
C7A C -0.2656(2) 0.09046(14) 0.7946(3)
C8A C -0.1908(2) 0.06260(16) 0.8511(4)
H5A H -0.1361 0.0735 0.8184
C9A C -0.1995(2) 0.01890(19) 0.9557(4)
H6A H -0.1508 -0.0001 0.9948
C10A C -0.2820(2) 0.00342(15) 1.0024(5)
H7A H -0.2865 -0.0257 1.0741
C11A C -0.4276(2) 0.09490(15) 0.7887(3)
C12A C -0.3474(2) 0.06986(14) 0.8466(3)
C13A C -0.23954(19) 0.21083(13) 0.5308(4)
C14A C -0.2290(2) 0.30791(17) 0.3820(4)
H8A H -0.2876 0.3158 0.3977
C15A C -0.1901(2) 0.25423(15) 0.4412(3)
C16A C -0.1026(2) 0.24259(15) 0.4143(4)
H9A H -0.0750 0.2068 0.4531
C17A C -0.1827(2) 0.35023(17) 0.2997(4)
H10A H -0.2102 0.3863 0.2619
C18A C -0.0951(2) 0.33894(16) 0.2732(3)
C19A C -0.0563(2) 0.28439(15) 0.3296(4)
H11A H 0.0016 0.2754 0.3107
C20A C -0.0415(2) 0.38459(15) 0.1871(3)
loop_
_geom_bond_atom_site_label_1
_geom_bond_atom_site_label_2
_geom_bond_site_symmetry_1
_geom_bond_site_symmetry_2
Mn1 O1 1_555 1_555
O1 C20 1_555 1_555
O2 C20 1_555 1_555
N1 C1 1_555 1_555
N2 C10 1_555 1_555
N3 H1 1_555 1_555
N4 C5 1_555 1_555
C1 H2 1_555 1_555
C2 C1 1_555 1_555
H3 C2 1_555 1_555
C3 C2 1_555 1_555
H4 C3 1_555 1_555
C4 C3 1_555 1_555
C5 C4 1_555 1_555
C6 N3 1_555 1_555
C7 C6 1_555 1_555
C8 C7 1_555 1_555
H5 C8 1_555 1_555
C9 C8 1_555 1_555
H6 C9 1_555 1_555
C10 C9 1_555 1_555
H7 C10 1_555 1_555
C11 N1 1_555 1_555
C12 N2 1_555 1_555
C13 N3 1_555 1_555
C14 H8 1_555 1_555
C15 C13 1_555 1_555
C16 C15 1_555 1_555
H9 C16 1_555 1_555
C17 C14 1_555 1_555
H10 C17 1_555 1_555
C18 C17 1_555 1_555
C19 C16 1_555 1_555
H11 C19 1_555 1_555
C20 C18 1_555 1_555
Mn1B N1 1_555 1_555
Mn1B_2 N1A 1_555 1_555
O1A Mn1 1_555 1_555
O2A C20A 1_555 1_555
N1A C1A 1_555 1_555
N1B Mn1 1_555 1_555
N1C Mn1 1_555 1_555
N2A Mn1B_2 1_555 1_555
N2B Mn1 1_555 1_555
N2C Mn1 1_555 1_555
N3A H1A 1_555 1_555
N4A C5A 1_555 1_555
C1A H2A 1_555 1_555
C2A C1A 1_555 1_555
H3A C2A 1_555 1_555
C3A C2A 1_555 1_555
H4A C3A 1_555 1_555
C4A C3A 1_555 1_555
C5A C4A 1_555 1_555
C6A N3A 1_555 1_555
C7A C6A 1_555 1_555
C8A C7A 1_555 1_555
H5A C8A 1_555 1_555
C9A C8A 1_555 1_555
H6A C9A 1_555 1_555
C10A N2A 1_555 1_555
H7A C10A 1_555 1_555
C11A N1A 1_555 1_555
C12A N2A 1_555 1_555
C13A N3A 1_555 1_555
C14A H8A 1_555 1_555
C15A C13A 1_555 1_555
C16A C15A 1_555 1_555
H9A C16A 1_555 1_555
C17A C14A 1_555 1_555
H10A C17A 1_555 1_555
C18A C17A 1_555 1_555
C19A C16A 1_555 1_555
H11A C19A 1_555 1_555
C20A O1A 1_555 1_555
N2 Mn1B 1_555 1_555
N4 C13 1_555 1_555
C4 C11 1_555 1_555
C5 C6 1_555 1_555
C7 C12 1_555 1_555
C11 C12 1_555 1_555
C14 C15 1_555 1_555
C18 C19 1_555 1_555
N4A C13A 1_555 1_555
C4A C11A 1_555 1_555
C5A C6A 1_555 1_555
C7A C12A 1_555 1_555
C9A C10A 1_555 1_555
C11A C12A 1_555 1_555
C14A C15A 1_555 1_555
C18A C19A 1_555 1_555
C18A C20A 1_555 1_555

#END
