
#######################################################################
#
#                 Cambridge Crystallographic Data Centre
#                                CCDC 
#
#######################################################################
#
# If this CIF has been generated from an entry in the Cambridge 
# Structural Database, then it will include bibliographic, chemical, 
# crystal, experimental, refinement or atomic coordinate data resulting 
# from the CCDC's data processing and validation procedures.
#
#######################################################################

data_TISJUC
_symmetry_cell_setting           monoclinic
_symmetry_space_group_name_H-M   'P 21/c'
_symmetry_Int_Tables_number      14
_space_group_name_Hall           '-P 2ybc'
loop_
_symmetry_equiv_pos_site_id
_symmetry_equiv_pos_as_xyz
1 x,y,z
2 -x,1/2+y,1/2-z
3 -x,-y,-z
4 x,1/2-y,1/2+z
_cell_length_a                   10.673(2)
_cell_length_b                   14.657(3)
_cell_length_c                   18.405(4)
_cell_angle_alpha                90
_cell_angle_beta                 104.337(2)
_cell_angle_gamma                90
_cell_volume                     2789.5
loop_
_atom_site_label
_atom_site_type_symbol
_atom_site_fract_x
_atom_site_fract_y
_atom_site_fract_z
Co1 Co 0.62402(3) 0.92347(2) 0.839539(18)
N1 N 0.4763(2) 0.86223(14) 0.88008(11)
N2 N 0.5145(2) 1.03575(14) 0.85689(11)
O1 O 1.22858(17) 1.43592(12) 0.56353(10)
O2 O 1.24629(18) 1.30342(12) 0.62053(10)
O3 O 0.57143(17) 0.90145(12) 0.72256(9)
O4 O 0.73080(18) 0.99304(13) 0.77087(9)
O5 O 0.80129(16) 0.98262(12) 0.43977(9)
O6 O 0.78270(18) 1.23583(13) 0.32785(10)
C1 C 0.5311(3) 1.12207(18) 0.83754(16)
H1 H 0.5933 1.1343 0.8113
C2 C 0.4600(3) 1.1936(2) 0.85481(18)
H2 H 0.4721 1.2526 0.8392
C3 C 0.3712(3) 1.1763(2) 0.89537(18)
H3 H 0.3238 1.2238 0.9089
C4 C 0.3524(3) 1.08806(19) 0.91613(16)
H4 H 0.2924 1.0752 0.9438
C5 C 0.4244(2) 1.01890(17) 0.89510(13)
C6 C 0.4044(2) 0.92084(18) 0.90970(13)
C7 C 0.3163(3) 0.8904(2) 0.94828(15)
H5 H 0.2701 0.9318 0.9698
C8 C 0.2981(3) 0.7983(2) 0.95432(18)
H6 H 0.2391 0.7767 0.9799
C9 C 0.3673(3) 0.7385(2) 0.92241(19)
H7 H 0.3543 0.6759 0.9248
C10 C 0.4566(3) 0.77270(19) 0.88656(17)
H8 H 0.5051 0.7319 0.8661
C11 C 0.6634(2) 0.95222(17) 0.71489(14)
C12 C 0.6928(2) 0.96217(16) 0.64059(13)
C13 C 0.6151(3) 0.92357(17) 0.57626(14)
H9 H 0.5402 0.8929 0.5792
C14 C 0.6461(3) 0.92952(17) 0.50803(14)
H10 H 0.5922 0.9038 0.4654
C15 C 0.7582(2) 0.97423(16) 0.50354(13)
C16 C 0.8366(2) 1.01409(19) 0.56704(14)
H11 H 0.9116 1.0447 0.5641
C17 C 0.8032(3) 1.00824(19) 0.63425(14)
H12 H 0.8557 1.0358 0.6765
C18 C 0.7181(3) 0.95404(19) 0.36894(14)
H13 H 0.6344 0.9836 0.3604
H14 H 0.7054 0.8885 0.3682
C19 C 0.7857(2) 0.9819(2) 0.31066(13)
C20 C 0.8424(3) 0.9152(2) 0.27586(16)
H15 H 0.8331 0.8541 0.2873
C21 C 0.9114(3) 0.9374(3) 0.22532(19)
H16 H 0.9482 0.8917 0.2023
C22 C 0.9265(3) 1.0264(3) 0.20855(17)
H17 H 0.9748 1.0414 0.1746
C23 C 0.8696(3) 1.0960(3) 0.24221(16)
H18 H 0.8795 1.1567 0.2301
C24 C 0.7985(2) 1.0735(2) 0.29365(14)
C25 C 0.7283(3) 1.14659(19) 0.32642(16)
H19 H 0.6390 1.1488 0.2974
H20 H 0.7280 1.1293 0.3773
C26 C 0.8815(2) 1.25902(18) 0.38829(14)
C27 C 0.9519(2) 1.19730(18) 0.43911(14)
H21 H 0.9336 1.1353 0.4338
C28 C 1.0506(2) 1.22900(17) 0.49843(14)
H22 H 1.0974 1.1877 0.5331
C29 C 0.9083(2) 1.35136(18) 0.39672(14)
H23 H 0.8592 1.3930 0.3633
C30 C 1.0076(2) 1.38159(17) 0.45458(14)
H24 H 1.0266 1.4436 0.4590
C31 C 1.0798(2) 1.32100(17) 0.50641(13)
C32 C 1.1904(2) 1.35475(19) 0.56722(14)
Co1A Co 1.37598(3) 1.42347(2) 0.660461(18)
O1A O 0.77142(17) 0.93592(12) 0.93647(10)
O2A O 0.75371(18) 0.80342(12) 0.87947(10)
loop_
_geom_bond_atom_site_label_1
_geom_bond_atom_site_label_2
_geom_bond_site_symmetry_1
_geom_bond_site_symmetry_2
Co1 N1 1_555 1_555
N1 C6 1_555 1_555
N2 Co1 1_555 1_555
O1 C32 1_555 1_555
O2 C32 1_555 1_555
O3 Co1 1_555 1_555
O4 Co1 1_555 1_555
O5 C15 1_555 1_555
O6 C25 1_555 1_555
C1 N2 1_555 1_555
H1 C1 1_555 1_555
C2 C1 1_555 1_555
H2 C2 1_555 1_555
C3 C2 1_555 1_555
H3 C3 1_555 1_555
C4 C3 1_555 1_555
H4 C4 1_555 1_555
C5 N2 1_555 1_555
C6 C5 1_555 1_555
C7 C6 1_555 1_555
H5 C7 1_555 1_555
C8 C7 1_555 1_555
H6 C8 1_555 1_555
C9 C8 1_555 1_555
H7 C9 1_555 1_555
C10 N1 1_555 1_555
H8 C10 1_555 1_555
C11 O3 1_555 1_555
C12 C11 1_555 1_555
C13 C12 1_555 1_555
H9 C13 1_555 1_555
C14 C13 1_555 1_555
H10 C14 1_555 1_555
C15 C14 1_555 1_555
C16 C15 1_555 1_555
H11 C16 1_555 1_555
C17 C12 1_555 1_555
H12 C17 1_555 1_555
C18 O5 1_555 1_555
H13 C18 1_555 1_555
H14 C18 1_555 1_555
C19 C18 1_555 1_555
C20 C19 1_555 1_555
H15 C20 1_555 1_555
C21 C20 1_555 1_555
H16 C21 1_555 1_555
C22 C21 1_555 1_555
H17 C22 1_555 1_555
C23 C22 1_555 1_555
H18 C23 1_555 1_555
C24 C19 1_555 1_555
C25 C24 1_555 1_555
H19 C25 1_555 1_555
H20 C25 1_555 1_555
C26 O6 1_555 1_555
C27 C26 1_555 1_555
H21 C27 1_555 1_555
C28 C27 1_555 1_555
H22 C28 1_555 1_555
C29 C26 1_555 1_555
H23 C29 1_555 1_555
C30 C29 1_555 1_555
H24 C30 1_555 1_555
C31 C28 1_555 1_555
C32 C31 1_555 1_555
Co1A O1 1_555 1_555
O1A Co1 1_555 1_555
O2A Co1 1_555 1_555
O2 Co1A 1_555 1_555
O4 C11 1_555 1_555
C4 C5 1_555 1_555
C9 C10 1_555 1_555
C16 C17 1_555 1_555
C23 C24 1_555 1_555
C30 C31 1_555 1_555

#END
