
#######################################################################
#
#                 Cambridge Crystallographic Data Centre
#                                CCDC 
#
#######################################################################
#
# If this CIF has been generated from an entry in the Cambridge 
# Structural Database, then it will include bibliographic, chemical, 
# crystal, experimental, refinement or atomic coordinate data resulting 
# from the CCDC's data processing and validation procedures.
#
#######################################################################

data_TISLOX
_symmetry_cell_setting           orthorhombic
_symmetry_space_group_name_H-M   'A m a 2'
_symmetry_Int_Tables_number      40
_space_group_name_Hall           'A 2 -2a'
loop_
_symmetry_equiv_pos_site_id
_symmetry_equiv_pos_as_xyz
1 x,y,z
2 -x,-y,z
3 1/2+x,-y,z
4 1/2-x,y,z
5 x,1/2+y,1/2+z
6 -x,1/2-y,1/2+z
7 1/2+x,1/2-y,1/2+z
8 1/2-x,1/2+y,1/2+z
_cell_length_a                   7.3433(13)
_cell_length_b                   8.5921(15)
_cell_length_c                   12.889(2)
_cell_angle_alpha                90
_cell_angle_beta                 90
_cell_angle_gamma                90
_cell_volume                     813.223
loop_
_atom_site_label
_atom_site_type_symbol
_atom_site_fract_x
_atom_site_fract_y
_atom_site_fract_z
Cu1 Cu -0.2500 0.36292(6) -0.07142(6)
Cu2 Cu 0.0000 0.0000 -0.00747(4)
S1 S -0.2500 0.09797(12) -0.08493(9)
S2 S 0.0000 0.5000 -0.14129(12)
N1 N -0.2500 -0.0615(5) -0.4232(3)
N2 N 0.0000 0.5000 -0.3581(4)
C1 C -0.2500 -0.1620(6) -0.3436(4)
H1 H -0.2500 -0.2678 -0.3587
C2 C -0.2500 -0.1185(5) -0.2419(5)
H2 H -0.2500 -0.1936 -0.1900
C3 C -0.2500 0.0365(5) -0.2166(4)
C4 C -0.2500 0.1417(5) -0.2969(5)
H3 H -0.2500 0.2480 -0.2831
C5 C -0.2500 0.0890(5) -0.3981(5)
H4 H -0.2500 0.1621 -0.4513
C6 C 0.0000 0.5000 -0.2694(5)
Cu1A Cu 0.2500 0.63708(6) -0.07142(6)
Cu1D Cu -0.2500 -0.13708(6) -0.57142(6)
Cu2B Cu -0.5000 0.0000 -0.00747(4)
Cu2D Cu 0.0000 0.5000 -0.50747(4)
S1A S 0.2500 -0.09797(12) -0.08493(9)
S2B S -0.5000 0.5000 -0.14129(12)
N1D N -0.2500 0.4385(5) 0.0768(3)
N2D N 0.0000 0.0000 0.1419(4)
loop_
_geom_bond_atom_site_label_1
_geom_bond_atom_site_label_2
_geom_bond_site_symmetry_1
_geom_bond_site_symmetry_2
Cu1 S1 1_555 1_555
Cu2 S1 1_555 1_555
S1 C3 1_555 1_555
S2 Cu1 1_555 1_555
N1 C1 1_555 1_555
N2 C6 1_555 1_555
C1 H1 1_555 1_555
C2 C1 1_555 1_555
H2 C2 1_555 1_555
C3 C2 1_555 1_555
C4 C3 1_555 1_555
H3 C4 1_555 1_555
C5 N1 1_555 1_555
H4 C5 1_555 1_555
C6 S2 1_555 1_555
Cu1A S2 1_555 1_555
Cu1D N1 1_555 1_555
Cu2B S1 1_555 1_555
Cu2D N2 1_555 1_555
S1A Cu2 1_555 1_555
S2B Cu1 1_555 1_555
N1D Cu1 1_555 1_555
N2D Cu2 1_555 1_555
C4 C5 1_555 1_555

#END
