
#######################################################################
#
#                 Cambridge Crystallographic Data Centre
#                                CCDC 
#
#######################################################################
#
# If this CIF has been generated from an entry in the Cambridge 
# Structural Database, then it will include bibliographic, chemical, 
# crystal, experimental, refinement or atomic coordinate data resulting 
# from the CCDC's data processing and validation procedures.
#
#######################################################################

data_TISLIR
_symmetry_cell_setting           monoclinic
_symmetry_space_group_name_H-M   'P 21/c'
_symmetry_Int_Tables_number      14
_space_group_name_Hall           '-P 2ybc'
loop_
_symmetry_equiv_pos_site_id
_symmetry_equiv_pos_as_xyz
1 x,y,z
2 -x,1/2+y,1/2-z
3 -x,-y,-z
4 x,1/2-y,1/2+z
_cell_length_a                   8.5173(5)
_cell_length_b                   22.4055(14)
_cell_length_c                   9.7615(5)
_cell_angle_alpha                90
_cell_angle_beta                 92.285(2)
_cell_angle_gamma                90
_cell_volume                     1861.35
loop_
_atom_site_label
_atom_site_type_symbol
_atom_site_fract_x
_atom_site_fract_y
_atom_site_fract_z
Cd1 Cd 1.35750(3) 0.652180(12) 1.01774(3)
Cd2 Cd 0.67018(3) 0.602074(13) 0.27427(3)
Cd3 Cd 1.0000 0.5000 0.5000
Cl1 Cl 0.84096(14) 0.60780(5) 0.49143(12)
C1 C 1.1673(5) 0.5635(2) 0.2351(5)
H1 H 1.0727 0.5661 0.1845
C2 C 1.1693(5) 0.5852(2) 0.7455(5)
C3 C 1.3213(7) 0.5297(2) 0.8588(6)
C4 C 1.5557(6) 0.76538(19) 0.8938(5)
H2 H 1.6181 0.7673 0.9740
C5 C 1.3885(6) 0.7379(2) 0.7445(5)
H3 H 1.3099 0.7164 0.6976
C6 C 1.3346(5) 0.5438(2) 0.3904(5)
H4 H 1.3817 0.5300 0.4720
C7 C 1.7675(8) 0.6227(4) 0.8479(6)
H5 H 1.8733 0.6358 0.8351
H6 H 1.6954 0.6505 0.8049
H7 H 1.7523 0.5840 0.8076
C8 C 1.7389(6) 0.6195(2) 0.9983(5)
N1 N 1.4462(5) 0.72324(16) 0.8700(4)
N2 N 1.2711(5) 0.58601(16) 0.8526(4)
N3 N 1.1816(4) 0.53771(17) 0.3580(4)
N4 N 1.1566(4) 0.53201(15) 0.6869(4)
N5 N 1.3017(4) 0.58494(17) 0.1926(4)
N6 N 1.4124(4) 0.57165(17) 0.2937(4)
N7 N 1.5660(4) 0.80350(16) 0.7928(4)
N8 N 1.2558(5) 0.49555(17) 0.7611(4)
N9 N 1.4551(5) 0.78608(16) 0.6946(4)
O1 O 1.8458(4) 0.63159(18) 1.0847(4)
O2 O 1.6046(3) 0.60311(14) 1.0353(3)
O3 O 1.1084(4) 0.69666(17) 1.0382(4)
Cd1B Cd 0.64250(3) 0.347820(12) -0.01774(3)
Cd1_2 Cd 1.35750(3) 0.652180(12) 0.01774(3)
Cd1C Cd 1.35750(3) 0.847820(12) 0.51774(3)
Cd1B_2 Cd 0.64250(3) 0.347820(12) 0.98226(3)
Cd1C_2 Cd 1.35750(3) 0.847820(12) 1.51774(3)
Cd1_3 Cd 0.35750(3) 0.652180(12) 0.01774(3)
Cd2B Cd 1.32982(3) 0.397926(13) 0.72573(3)
Cd2_2 Cd 1.67018(3) 0.602074(13) 0.27427(3)
Cd2C Cd 1.67018(3) 0.897926(13) 0.77427(3)
Cd2_3 Cd 1.67018(3) 0.602074(13) 1.27427(3)
Cd2B_2 Cd 0.32982(3) 0.397926(13) 0.72573(3)
Cl1B Cl 1.15904(14) 0.39220(5) 0.50857(12)
C1B C 0.8327(5) 0.4365(2) 0.7649(5)
H1B H 0.9273 0.4339 0.8155
C2B C 0.8307(5) 0.4148(2) 0.2545(5)
C3B C 0.6787(7) 0.4703(2) 0.1412(6)
C4C C 1.5557(6) 0.73462(19) 1.3938(5)
H2C H 1.6181 0.7327 1.4740
C5C C 1.3885(6) 0.7621(2) 1.2445(5)
H3C H 1.3099 0.7836 1.1976
C6B C 0.6654(5) 0.4562(2) 0.6096(5)
H4B H 0.6183 0.4700 0.5280
C7_2 C 0.7675(8) 0.6227(4) -0.1521(6)
H5_2 H 0.8733 0.6358 -0.1649
H6_2 H 0.6954 0.6505 -0.1951
H7_2 H 0.7523 0.5840 -0.1924
C8_2 C 0.7389(6) 0.6195(2) -0.0017(5)
N1C N 1.4462(5) 0.77676(16) 1.3700(4)
N1B N 0.5538(5) 0.27676(16) 0.1300(4)
N2B N 0.7289(5) 0.41399(16) 0.1474(4)
N3B N 0.8184(4) 0.46229(17) 0.6420(4)
N4B N 0.8434(4) 0.46799(15) 0.3131(4)
N5B N 0.6983(4) 0.41506(17) 0.8074(4)
N5_2 N 1.3017(4) 0.58494(17) 1.1926(4)
N5B_2 N 0.6983(4) 0.41506(17) -0.1926(4)
N6B N 0.5876(4) 0.42835(17) 0.7063(4)
N6_2 N 0.4124(4) 0.57165(17) 0.2937(4)
N6B_2 N 1.5876(4) 0.42835(17) 0.7063(4)
N7C N 1.5660(4) 0.69650(16) 1.2928(4)
N7C_2 N 0.5660(4) 0.69650(16) 0.2928(4)
N7A N 1.4340(4) 0.30350(16) 0.7072(4)
N8B N 0.7442(5) 0.50445(17) 0.2389(4)
N9C N 1.4551(5) 0.71392(16) 1.1946(4)
N9A N 0.5449(5) 0.28608(16) -0.1946(4)
O1_2 O 0.8458(4) 0.63159(18) 0.0847(4)
O1B O 1.1542(4) 0.36841(18) 0.9153(4)
O2_2 O 0.6046(3) 0.60311(14) 0.0353(3)
O2B O 0.3954(3) 0.39689(14) -0.0353(3)
O2B_2 O 1.3954(3) 0.39689(14) 0.9647(3)
O3B O 0.8916(4) 0.30334(17) -0.0382(4)
O4 O 0.0591(13) 0.7902(4) -0.1289(11)
loop_
_geom_bond_atom_site_label_1
_geom_bond_atom_site_label_2
_geom_bond_site_symmetry_1
_geom_bond_site_symmetry_2
Cd1 N1 1_555 1_555
Cd2 Cl1 1_555 1_555
Cd3 Cl1 1_555 1_555
C1 H1 1_555 1_555
C2 N2 1_555 1_555
C3 N2 1_555 1_555
C4 H2 1_555 1_555
C5 H3 1_555 1_555
C6 H4 1_555 1_555
C7 H5 1_555 1_555
H6 C7 1_555 1_555
H7 C7 1_555 1_555
C8 C7 1_555 1_555
N1 C4 1_555 1_555
N2 Cd1 1_555 1_555
N3 Cd3 1_555 1_555
N4 Cd3 1_555 1_555
N5 C1 1_555 1_555
N6 C6 1_555 1_555
N7 C4 1_555 1_555
N8 C3 1_555 1_555
N9 C5 1_555 1_555
O1 C8 1_555 1_555
O2 Cd1 1_555 1_555
O3 Cd1 1_555 1_555
Cd1B N1B 1_555 1_555
Cd1_2 N5 1_555 1_555
Cd1C N9 1_555 1_555
Cd1B_2 N5B 1_555 1_555
Cd1C_2 N1C 1_555 1_555
Cd1_3 O2_2 1_555 1_555
Cd2B N8 1_555 1_555
Cd2_2 N6 1_555 1_555
Cd2C N7 1_555 1_555
Cd2_3 O1 1_555 1_555
Cd2B_2 N6B 1_555 1_555
Cl1B Cd3 1_555 1_555
C1B H1B 1_555 1_555
C2B N2B 1_555 1_555
C3B N2B 1_555 1_555
C4C H2C 1_555 1_555
C5C H3C 1_555 1_555
C6B H4B 1_555 1_555
C7_2 H5_2 1_555 1_555
H6_2 C7_2 1_555 1_555
H7_2 C7_2 1_555 1_555
C8_2 C7_2 1_555 1_555
N1C C4C 1_555 1_555
N2B Cd1B 1_555 1_555
N3B Cd3 1_555 1_555
N4B Cd3 1_555 1_555
N5B C1B 1_555 1_555
N5_2 Cd1 1_555 1_555
N5B_2 Cd1B 1_555 1_555
N6B C6B 1_555 1_555
N6_2 Cd2 1_555 1_555
N6B_2 Cd2B 1_555 1_555
N7C Cd2_3 1_555 1_555
N7C_2 Cd2 1_555 1_555
N7A Cd2B 1_555 1_555
N8B Cd2 1_555 1_555
N9C Cd1 1_555 1_555
N9A Cd1B 1_555 1_555
O1_2 Cd2 1_555 1_555
O1B Cd2B 1_555 1_555
O2_2 Cd2 1_555 1_555
O2B Cd1B 1_555 1_555
O2B_2 Cd2B 1_555 1_555
O3B Cd1B 1_555 1_555
C1 N3 1_555 1_555
C2 N4 1_555 1_555
C5 N1 1_555 1_555
C6 N3 1_555 1_555
C8 O2 1_555 1_555
N4 N8 1_555 1_555
N5 N6 1_555 1_555
N7 N9 1_555 1_555
O2 Cd2_3 1_555 1_555
Cd2B Cl1B 1_555 1_555
C1B N3B 1_555 1_555
C2B N4B 1_555 1_555
C3B N8B 1_555 1_555
C4C N7C 1_555 1_555
C5C N1C 1_555 1_555
C5C N9C 1_555 1_555
C6B N3B 1_555 1_555
C8_2 O1_2 1_555 1_555
C8_2 O2_2 1_555 1_555
N4B N8B 1_555 1_555
N5B N6B 1_555 1_555
N7C N9C 1_555 1_555

#END
