
#######################################################################
#
#                 Cambridge Crystallographic Data Centre
#                                CCDC 
#
#######################################################################
#
# If this CIF has been generated from an entry in the Cambridge 
# Structural Database, then it will include bibliographic, chemical, 
# crystal, experimental, refinement or atomic coordinate data resulting 
# from the CCDC's data processing and validation procedures.
#
#######################################################################

data_TISLEN
_symmetry_cell_setting           monoclinic
_symmetry_space_group_name_H-M   'P 21/c'
_symmetry_Int_Tables_number      14
_space_group_name_Hall           '-P 2ybc'
loop_
_symmetry_equiv_pos_site_id
_symmetry_equiv_pos_as_xyz
1 x,y,z
2 -x,1/2+y,1/2-z
3 -x,-y,-z
4 x,1/2-y,1/2+z
_cell_length_a                   6.8109(5)
_cell_length_b                   14.1240(15)
_cell_length_c                   8.1723(2)
_cell_angle_alpha                90
_cell_angle_beta                 111.186(7)
_cell_angle_gamma                90
_cell_volume                     733.018
loop_
_atom_site_label
_atom_site_type_symbol
_atom_site_fract_x
_atom_site_fract_y
_atom_site_fract_z
Cd1 Cd 0.29795(3) 0.278648(15) 0.16622(3)
Cd2 Cd 0.5000 0.5000 0.5000
Cl1 Cl 0.16794(11) 0.43246(6) 0.25448(10)
C1 C 0.3939(6) 0.4958(3) -0.0716(5)
H1 H 0.3757 0.5458 -0.1572
H2 H 0.2840 0.5019 -0.0230
C2 C 0.8058(5) 0.2477(2) 0.3930(4)
H3 H 0.8045 0.1887 0.3421
C3 C 0.0952(4) 0.6322(2) 0.4502(4)
H4 H 0.0120 0.5887 0.3692
C4 C 0.3794(5) 0.3986(2) -0.1599(4)
N1 N 0.0231(4) 0.71630(19) 0.4823(4)
N2 N 0.2962(4) 0.61754(18) 0.5453(3)
N3 N 0.6390(4) 0.30356(19) 0.3490(4)
O1 O 0.3165(3) 0.32824(16) -0.0971(3)
O2 O 0.5820(3) 0.60964(16) 0.2987(3)
Cd1B Cd 0.70205(3) 0.721352(15) 0.83378(3)
Cd1C Cd 0.29795(3) 0.221352(15) -0.33378(3)
Cd1A Cd 0.70205(3) 0.778648(15) 0.33378(3)
Cd1B_2 Cd 0.70205(3) 0.721352(15) -0.16622(3)
Cd1A_2 Cd -0.29795(3) 0.778648(15) 0.33378(3)
Cd1C_2 Cd 1.29795(3) 0.221352(15) 0.66622(3)
Cd2_2 Cd 0.5000 0.5000 -0.5000
Cl1B Cl 0.83206(11) 0.56754(6) 0.74552(10)
C1B C 0.6061(6) 0.5042(3) 0.0716(5)
H1B H 0.6243 0.4542 0.1572
H2B H 0.7160 0.4981 0.0230
C2B C 0.1942(5) 0.7523(2) 0.6070(4)
H3B H 0.1955 0.8113 0.6579
C3B C 0.9048(4) 0.3678(2) 0.5498(4)
H4B H 0.9880 0.4113 0.6308
C4B C 0.6206(5) 0.6014(2) 0.1599(4)
N1C N 1.0231(4) 0.78370(19) 0.9823(4)
N1A N -0.0231(4) 0.21630(19) 0.0177(4)
N1B N 0.9769(4) 0.28370(19) 0.5177(4)
N2B N 0.7038(4) 0.38246(18) 0.4547(3)
N3B N 0.3610(4) 0.69644(19) 0.6510(4)
O1B O 0.6835(3) 0.67176(16) 1.0971(3)
O1A O 0.6835(3) 0.82824(16) 0.5971(3)
O1B_2 O 0.6835(3) 0.67176(16) 0.0971(3)
O1C O 0.3165(3) 0.17176(16) 0.4029(3)
O2C O 0.5820(3) 0.89036(16) 0.7987(3)
O2A O 0.4180(3) 0.10964(16) 0.2013(3)
O2B O 0.4180(3) 0.39036(16) -0.2987(3)
O2B_2 O 0.4180(3) 0.39036(16) 0.7013(3)
loop_
_geom_bond_atom_site_label_1
_geom_bond_atom_site_label_2
_geom_bond_site_symmetry_1
_geom_bond_site_symmetry_2
Cd1 Cl1 1_555 1_555
Cd2 Cl1 1_555 1_555
C1 H1 1_555 1_555
H2 C1 1_555 1_555
C2 H3 1_555 1_555
C3 H4 1_555 1_555
C4 C1 1_555 1_555
N1 C3 1_555 1_555
N2 Cd2 1_555 1_555
N3 Cd1 1_555 1_555
O1 Cd1 1_555 1_555
O2 Cd2 1_555 1_555
Cd1B Cl1B 1_555 1_555
Cd1C O1 1_555 1_555
Cd1A O2 1_555 1_555
Cd1B_2 O1B_2 1_555 1_555
Cd1A_2 N1 1_555 1_555
Cd1C_2 N1B 1_555 1_555
Cd2_2 O2B 1_555 1_555
Cl1B Cd2 1_555 1_555
C1B C1 1_555 1_555
H1B C1B 1_555 1_555
H2B C1B 1_555 1_555
C2B N1 1_555 1_555
H3B C2B 1_555 1_555
C3B H4B 1_555 1_555
C4B O2 1_555 1_555
N1C Cd1B 1_555 1_555
N1A Cd1 1_555 1_555
N1B C2 1_555 1_555
N2B Cd2 1_555 1_555
N3B N2 1_555 1_555
O1B Cd1B 1_555 1_555
O1A Cd1B 1_555 1_555
O1B_2 Cd1A 1_555 1_555
O1C Cd1 1_555 1_555
O2C Cd1B 1_555 1_555
O2A Cd1 1_555 1_555
O2B C4 1_555 1_555
O2B_2 Cd2 1_555 1_555
C2 N3 1_555 1_555
C3 N2 1_555 1_555
C4 O1 1_555 1_555
N3 N2B 1_555 1_555
Cd1B N3B 1_555 1_555
Cd1C O2B 1_555 1_555
Cd1A O1A 1_555 1_555
C1B C4B 1_555 1_555
C2B N3B 1_555 1_555
C3B N1B 1_555 1_555
C3B N2B 1_555 1_555
C4B O1B_2 1_555 1_555

#END
