
#######################################################################
#
#                 Cambridge Crystallographic Data Centre
#                                CCDC 
#
#######################################################################
#
# If this CIF has been generated from an entry in the Cambridge 
# Structural Database, then it will include bibliographic, chemical, 
# crystal, experimental, refinement or atomic coordinate data resulting 
# from the CCDC's data processing and validation procedures.
#
#######################################################################

data_TISLAJ
_symmetry_cell_setting           orthorhombic
_symmetry_space_group_name_H-M   'P n a 21'
_symmetry_Int_Tables_number      33
_space_group_name_Hall           'P 2c -2n'
loop_
_symmetry_equiv_pos_site_id
_symmetry_equiv_pos_as_xyz
1 x,y,z
2 -x,-y,1/2+z
3 1/2+x,1/2-y,z
4 1/2-x,1/2+y,1/2+z
_cell_length_a                   9.7119(8)
_cell_length_b                   7.6320(5)
_cell_length_c                   13.4698(10)
_cell_angle_alpha                90
_cell_angle_beta                 90
_cell_angle_gamma                90
_cell_volume                     998.398
loop_
_atom_site_label
_atom_site_type_symbol
_atom_site_fract_x
_atom_site_fract_y
_atom_site_fract_z
Zn1 Zn 1.05814(2) 0.42177(3) -2.00155(2)
Zn2 Zn 1.25501(3) 1.01238(3) -1.72946(3)
C1 C 0.8960(3) 0.7232(3) -2.11038(19)
H1 H 0.8331 0.7362 -2.0588
C2 C 1.3062(3) 0.6517(4) -1.7916(2)
H2 H 1.3773 0.6445 -1.7456
C3 C 1.1428(3) 0.7478(3) -1.87684(17)
H3 H 1.0762 0.8211 -1.9040
C4 C 1.2789(2) 0.1794(3) -1.96559(15)
C5 C 1.3253(2) 0.2871(3) -2.05715(17)
C6 C 0.9991(2) 0.7559(3) -2.24633(16)
H4 H 1.0238 0.7956 -2.3091
N1 N 1.2699(3) 0.5206(3) -1.8491(2)
N2 N 0.9998(2) 0.6132(3) -2.10812(14)
N3 N 1.2306(2) 0.7977(3) -1.80567(14)
N4 N 1.06742(19) 0.6346(3) -2.19733(13)
N5 N 1.1607(2) 0.5839(3) -1.90415(15)
N6 N 0.8906(2) 0.8156(3) -2.19615(13)
O1 O 1.15797(17) 0.1923(2) -1.93794(12)
O2 O 1.44250(16) 0.2677(2) -2.08945(12)
O3 O 1.23336(15) 0.3875(2) -2.09283(12)
O4 O 1.37052(17) 0.0836(2) -1.92650(12)
Zn1B Zn 1.55814(2) 0.07823(3) -2.00155(2)
Zn2C Zn 1.24499(3) 0.51238(3) -2.22946(3)
Zn2A Zn 0.74499(3) 0.98762(3) -2.22946(3)
N4C N 1.43258(19) 1.1346(3) -1.69733(13)
N6A N 1.1094(2) 1.1844(3) -1.69615(13)
O2B O 0.94250(16) 0.2323(2) -2.08945(12)
O3C O 1.26664(15) 0.8875(2) -1.59283(12)
O4B O 0.87052(17) 0.4164(2) -1.92650(12)
loop_
_geom_bond_atom_site_label_1
_geom_bond_atom_site_label_2
_geom_bond_site_symmetry_1
_geom_bond_site_symmetry_2
Zn1 N2 1_555 1_555
Zn2 N3 1_555 1_555
C1 H1 1_555 1_555
C2 H2 1_555 1_555
C3 H3 1_555 1_555
C4 C5 1_555 1_555
C5 O2 1_555 1_555
C6 H4 1_555 1_555
N1 C2 1_555 1_555
N2 C1 1_555 1_555
N3 C2 1_555 1_555
N4 C6 1_555 1_555
N5 Zn1 1_555 1_555
N6 C1 1_555 1_555
O1 Zn1 1_555 1_555
O2 Zn1B 1_555 1_555
O3 Zn1 1_555 1_555
O4 C4 1_555 1_555
Zn1B O4 1_555 1_555
Zn2C N4 1_555 1_555
Zn2A N6 1_555 1_555
N4C Zn2 1_555 1_555
N6A Zn2 1_555 1_555
O2B Zn1 1_555 1_555
O3C Zn2 1_555 1_555
O4B Zn1 1_555 1_555
C3 N3 1_555 1_555
C3 N5 1_555 1_555
C4 O1 1_555 1_555
C5 O3 1_555 1_555
C6 N6 1_555 1_555
N1 N5 1_555 1_555
N2 N4 1_555 1_555
O3 Zn2C 1_555 1_555

#END
