
#######################################################################
#
#                 Cambridge Crystallographic Data Centre
#                                CCDC 
#
#######################################################################
#
# If this CIF has been generated from an entry in the Cambridge 
# Structural Database, then it will include bibliographic, chemical, 
# crystal, experimental, refinement or atomic coordinate data resulting 
# from the CCDC's data processing and validation procedures.
#
#######################################################################

data_TISMOZ
_symmetry_cell_setting           triclinic
_symmetry_space_group_name_H-M   'P -1'
_symmetry_Int_Tables_number      2
_space_group_name_Hall           '-P 1'
loop_
_symmetry_equiv_pos_site_id
_symmetry_equiv_pos_as_xyz
1 x,y,z
2 -x,-y,-z
_cell_length_a                   10.2619(5)
_cell_length_b                   10.9485(4)
_cell_length_c                   12.1380(6)
_cell_angle_alpha                97.356(4)
_cell_angle_beta                 111.722(4)
_cell_angle_gamma                98.361(4)
_cell_volume                     1228.65
loop_
_atom_site_label
_atom_site_type_symbol
_atom_site_fract_x
_atom_site_fract_y
_atom_site_fract_z
Zn1 Zn 0.16476(2) 0.18260(2) -0.10206(2)
C1 C 0.2524(2) 0.1731(2) 0.2500(2)
H1 H 0.2283 0.1841 0.3168
C2 C 0.3682(2) 0.13518(19) 0.13845(18)
H2 H 0.4376 0.1155 0.1111
C3 C 0.4987(2) 0.1319(2) 0.35757(19)
C4 C 0.5317(3) 0.2100(2) 0.4687(2)
C5 C 0.6430(3) 0.1940(3) 0.5698(2)
H3 H 0.6651 0.2443 0.6447
C6 C 0.7209(3) 0.1046(3) 0.5601(3)
H4 H 0.7949 0.0942 0.6288
C7 C 0.6910(3) 0.0308(3) 0.4508(3)
H5 H 0.7460 -0.0282 0.4449
C8 C 0.5781(3) 0.0436(2) 0.3480(2)
H6 H 0.5567 -0.0073 0.2735
C9 C 0.4368(3) 0.3462(3) 0.5776(2)
H7 H 0.5273 0.3959 0.6378
H8 H 0.4053 0.2767 0.6102
C10 C 0.3269(3) 0.4257(3) 0.5447(3)
H9 H 0.3219 0.4697 0.6171
H10 H 0.3523 0.4876 0.5016
C11 C 0.0853(3) 0.3973(2) 0.3989(2)
C12 C -0.0360(3) 0.3155(2) 0.3124(2)
C13 C -0.1468(3) 0.3600(2) 0.2353(2)
H11 H -0.2277 0.3037 0.1783
C14 C -0.1379(4) 0.4891(3) 0.2427(3)
H12 H -0.2110 0.5200 0.1896
C15 C -0.0192(4) 0.5698(3) 0.3299(3)
H13 H -0.0132 0.6562 0.3365
C16 C 0.0910(4) 0.5262(2) 0.4077(3)
H14 H 0.1699 0.5829 0.4667
C17 C -0.0917(2) 0.0953(2) 0.19652(18)
H15 H -0.1170 0.1139 0.1196
C18 C -0.0213(2) 0.1117(2) 0.38845(19)
H16 H 0.0116 0.1456 0.4706
C19 C -0.2008(2) 0.30228(18) -0.10666(17)
C20 C -0.3268(2) 0.24228(18) -0.10300(17)
H17 H -0.3390 0.1575 -0.0985
C21 C -0.4353(2) 0.30514(18) -0.10583(17)
C22 C -0.4149(2) 0.43292(19) -0.10934(18)
H18 H -0.4861 0.4769 -0.1102
C23 C -0.2885(2) 0.4942(2) -0.1116(2)
H19 H -0.2748 0.5798 -0.1129
C24 C -0.1819(2) 0.42980(19) -0.11187(18)
H20 H -0.0983 0.4714 -0.1155
C25 C -0.0896(2) 0.22682(19) -0.10801(18)
C26 C -0.5715(2) 0.23365(19) -0.10473(17)
N1 N 0.24466(19) 0.15762(16) 0.07106(14)
N2 N 0.1701(2) 0.18237(17) 0.14260(16)
N3 N 0.37944(19) 0.14504(16) 0.25379(15)
N4 N -0.0466(2) 0.18103(16) 0.30046(15)
N5 N -0.09430(18) -0.01683(16) 0.22018(15)
N6 N -0.0488(2) -0.00757(17) 0.34390(15)
O1 O 0.4526(2) 0.30035(17) 0.46837(14)
O2 O 0.19105(19) 0.34424(15) 0.46918(15)
O3 O 0.02197(15) 0.28493(14) -0.11664(13)
O4 O -0.11094(18) 0.11532(15) -0.10044(19)
O5 O -0.57630(17) 0.12433(14) -0.08677(15)
O6 O -0.67606(15) 0.28949(14) -0.12288(14)
Zn1_2 Zn -0.83524(2) 0.18260(2) -0.10206(2)
Zn1A Zn -0.16476(2) -0.18260(2) 0.10206(2)
N5A N 0.09430(18) 0.01683(16) -0.22018(15)
O6_2 O 0.32394(15) 0.28949(14) -0.12288(14)
loop_
_geom_bond_atom_site_label_1
_geom_bond_atom_site_label_2
_geom_bond_site_symmetry_1
_geom_bond_site_symmetry_2
Zn1 N1 1_555 1_555
C1 H1 1_555 1_555
C2 H2 1_555 1_555
C3 C4 1_555 1_555
C4 C5 1_555 1_555
C5 H3 1_555 1_555
C6 C5 1_555 1_555
H4 C6 1_555 1_555
C7 C6 1_555 1_555
H5 C7 1_555 1_555
C8 C3 1_555 1_555
H6 C8 1_555 1_555
C9 H7 1_555 1_555
H8 C9 1_555 1_555
C10 C9 1_555 1_555
H9 C10 1_555 1_555
H10 C10 1_555 1_555
C11 C12 1_555 1_555
C12 C13 1_555 1_555
C13 H11 1_555 1_555
C14 C13 1_555 1_555
H12 C14 1_555 1_555
C15 C14 1_555 1_555
H13 C15 1_555 1_555
C16 C11 1_555 1_555
H14 C16 1_555 1_555
C17 H15 1_555 1_555
C18 H16 1_555 1_555
C19 C20 1_555 1_555
C20 H17 1_555 1_555
C21 C20 1_555 1_555
C22 C21 1_555 1_555
H18 C22 1_555 1_555
C23 C22 1_555 1_555
H19 C23 1_555 1_555
C24 C19 1_555 1_555
H20 C24 1_555 1_555
C25 C19 1_555 1_555
C26 C21 1_555 1_555
N1 C2 1_555 1_555
N2 C1 1_555 1_555
N3 C1 1_555 1_555
N4 C12 1_555 1_555
N5 C17 1_555 1_555
N6 C18 1_555 1_555
O1 C4 1_555 1_555
O2 C10 1_555 1_555
O3 Zn1 1_555 1_555
O4 C25 1_555 1_555
O5 C26 1_555 1_555
O6 C26 1_555 1_555
Zn1_2 O6 1_555 1_555
Zn1A N5 1_555 1_555
N5A Zn1 1_555 1_555
O6_2 Zn1 1_555 1_555
C2 N3 1_555 1_555
C3 N3 1_555 1_555
C7 C8 1_555 1_555
C9 O1 1_555 1_555
C11 O2 1_555 1_555
C15 C16 1_555 1_555
C17 N4 1_555 1_555
C18 N4 1_555 1_555
C23 C24 1_555 1_555
C25 O3 1_555 1_555
N1 N2 1_555 1_555
N5 N6 1_555 1_555

#END
