
#######################################################################
#
#                 Cambridge Crystallographic Data Centre
#                                CCDC 
#
#######################################################################
#
# If this CIF has been generated from an entry in the Cambridge 
# Structural Database, then it will include bibliographic, chemical, 
# crystal, experimental, refinement or atomic coordinate data resulting 
# from the CCDC's data processing and validation procedures.
#
#######################################################################

data_TISMAK
_symmetry_cell_setting           monoclinic
_symmetry_space_group_name_H-M   'C 2/c'
_symmetry_Int_Tables_number      15
_space_group_name_Hall           '-C 2yn'
loop_
_symmetry_equiv_pos_site_id
_symmetry_equiv_pos_as_xyz
1 x,y,z
2 1/2+x,1/2+y,z
3 -x,y,1/2-z
4 1/2-x,1/2+y,1/2-z
5 -x,-y,-z
6 1/2-x,1/2-y,-z
7 x,-y,1/2+z
8 1/2+x,1/2-y,1/2+z
_cell_length_a                   14.2925(11)
_cell_length_b                   21.7939(17)
_cell_length_c                   19.6890(16)
_cell_angle_alpha                90
_cell_angle_beta                 100.709(2)
_cell_angle_gamma                90
_cell_volume                     6026.1
loop_
_atom_site_label
_atom_site_type_symbol
_atom_site_fract_x
_atom_site_fract_y
_atom_site_fract_z
Cu1 Cu 1.20316(5) 0.33932(4) 0.45789(4)
Cu2 Cu 1.15704(5) 0.72430(4) 0.07447(4)
Cu3 Cu 1.36436(6) 0.70132(4) 0.06388(4)
Cu4 Cu 1.34677(6) 0.63695(4) 0.24110(5)
Cu5 Cu 1.28218(6) 0.37488(4) 0.29361(4)
Cu6 Cu 1.53802(6) 0.87043(4) 0.33290(4)
Cu7 Cu 1.40089(7) 0.11950(4) 0.24558(6)
Cu8 Cu 1.5000 0.37952(5) 0.2500
S1 S 1.26479(10) 0.65462(7) 0.12219(8)
S2 S 1.06578(10) 0.29394(7) 0.41210(8)
S3 S 1.32288(10) 0.32588(7) 0.39899(8)
S4 S 1.5000 0.59574(11) 0.2500
S5 S 1.37651(10) 0.85092(7) 0.25598(8)
S6 S 1.25106(11) 0.59072(7) 0.30934(9)
S7 S 1.49091(13) 0.08390(8) 0.34546(10)
S8 S 1.36139(12) 0.33398(7) 0.20645(9)
N1 N 1.2108(3) 0.5830(2) 0.0125(3)
N2 N 1.0169(3) 0.2882(2) 0.5364(2)
N3 N 1.4466(3) 0.3519(2) 0.5148(3)
N4 N 1.3689(4) 0.7227(3) 0.2657(3)
N5 N 1.5000 0.4677(4) 0.2500
N6 N 1.2781(4) 0.4640(2) 0.2977(3)
N7 N 1.5157(4) -0.0433(2) 0.3400(3)
N8 N 1.3874(3) 0.2093(2) 0.2422(3)
C1 C 1.2359(4) 0.5831(3) 0.0812(3)
C2 C 1.2372(5) 0.5295(3) 0.1194(4)
H1 H 1.2558 0.5303 0.1673
C3 C 1.2107(6) 0.4756(3) 0.0861(4)
H2 H 1.2106 0.4394 0.1112
C4 C 1.1847(6) 0.4751(3) 0.0161(5)
H3 H 1.1655 0.4389 -0.0072
C5 C 1.1870(5) 0.5292(3) -0.0196(4)
H4 H 1.1715 0.5285 -0.0676
C6 C 0.9840(4) 0.2990(3) 0.4694(3)
C7 C 0.8885(4) 0.3105(3) 0.4451(3)
H5 H 0.8670 0.3185 0.3984
C8 C 0.8251(4) 0.3101(3) 0.4899(3)
H6 H 0.7608 0.3179 0.4740
C9 C 0.8587(5) 0.2980(3) 0.5582(3)
H7 H 0.8177 0.2967 0.5898
C10 C 0.9544(4) 0.2878(3) 0.5789(3)
H8 H 0.9772 0.2801 0.6255
C11 C 1.4219(4) 0.3655(3) 0.4478(3)
C12 C 1.4728(4) 0.4079(3) 0.4158(3)
H9 H 1.4542 0.4171 0.3691
C13 C 1.5511(5) 0.4355(4) 0.4550(4)
H10 H 1.5854 0.4647 0.4353
C14 C 1.5778(6) 0.4202(4) 0.5222(4)
H11 H 1.6322 0.4372 0.5488
C15 C 1.5241(5) 0.3794(4) 0.5506(4)
H12 H 1.5422 0.3701 0.5973
C16 C 1.3716(4) 0.7751(3) 0.2603(3)
C17 C 1.5000 0.5195(4) 0.2500
C18 C 1.2663(4) 0.5163(3) 0.3026(3)
C19 C 1.5029(4) 0.0088(3) 0.3395(3)
C20 C 1.3776(4) 0.2604(3) 0.2293(3)
Cu1B Cu 1.79684(5) 0.33932(4) 0.04211(4)
Cu1F Cu 1.20316(5) 0.66068(4) -0.04211(4)
Cu1D Cu 1.79684(5) 0.66068(4) 0.54211(4)
Cu2B Cu 1.84296(5) 0.72430(4) 0.42553(4)
Cu2C Cu 1.34296(5) 0.22430(4) 0.42553(4)
Cu2F Cu 1.15704(5) 0.27570(4) 0.57447(4)
Cu2A Cu 1.65704(5) 0.22430(4) 0.07447(4)
Cu3B Cu 1.63564(6) 0.70132(4) 0.43612(4)
Cu3C Cu 1.13564(6) 0.20132(4) 0.43612(4)
Cu3F Cu 1.36436(6) 0.29868(4) 0.56388(4)
Cu3D Cu 1.63564(6) 0.29868(4) -0.06388(4)
Cu3E Cu 1.13564(6) 0.79868(4) -0.06388(4)
Cu4B Cu 1.65323(6) 0.63695(4) 0.25890(5)
Cu4C Cu 1.15323(6) 0.13695(4) 0.25890(5)
Cu5B Cu 1.71782(6) 0.37488(4) 0.20639(4)
Cu5C Cu 1.21782(6) 0.87488(4) 0.20639(4)
Cu5C_2 Cu 1.21782(6) -0.12512(4) 0.20639(4)
Cu6C Cu 0.96198(6) 0.37043(4) 0.16710(4)
Cu6A Cu 1.03802(6) 0.37043(4) 0.33290(4)
Cu6B Cu 1.46198(6) 0.87043(4) 0.16710(4)
Cu6_2 Cu 1.53802(6) -0.12957(4) 0.33290(4)
Cu6B_2 Cu 1.46198(6) -0.12957(4) 0.16710(4)
Cu6G Cu 1.03802(6) 0.62957(4) -0.16710(4)
Cu7B Cu 1.59911(7) 0.11950(4) 0.25442(6)
Cu7C Cu 1.09911(7) 0.61950(4) 0.25442(6)
S1B S 1.73521(10) 0.65462(7) 0.37781(8)
S2F S 1.06578(10) 0.70606(7) -0.08790(8)
S2C S 1.43422(10) 0.79394(7) 0.08790(8)
S2A S 1.56578(10) 0.79394(7) 0.41210(8)
S2B S 1.93422(10) 0.29394(7) 0.08790(8)
S2B_2 S 0.93422(10) 0.29394(7) 0.08790(8)
S3B S 1.67712(10) 0.32588(7) 0.10101(8)
S3C S 1.17712(10) 0.82588(7) 0.10101(8)
S3A S 1.82288(10) 0.82588(7) 0.39899(8)
S5C S 1.12349(10) 0.35092(7) 0.24402(8)
S5B S 1.62349(10) 0.85092(7) 0.24402(8)
S5A S 1.87651(10) 0.35092(7) 0.25598(8)
S5A_2 S 0.87651(10) 0.35092(7) 0.25598(8)
S6C S 1.24894(11) 0.09072(7) 0.19066(9)
S6B S 1.74894(11) 0.59072(7) 0.19066(9)
S6A S 1.75106(11) 0.09072(7) 0.30934(9)
S7B S 1.50909(13) 0.08390(8) 0.15454(10)
S8B S 1.63861(12) 0.33398(7) 0.29355(9)
N1B N 1.7892(3) 0.5830(2) 0.4875(3)
N1F N 1.2108(3) 0.4170(2) 0.5125(3)
N1D N 1.7892(3) 0.4170(2) -0.0125(3)
N2F N 1.0169(3) 0.7118(2) 0.0364(2)
N2D N 1.9831(3) 0.7118(2) 0.4636(2)
N3B N 1.5534(3) 0.3519(2) -0.0148(3)
N3F N 1.4466(3) 0.6481(2) 0.0148(3)
N3D N 1.5534(3) 0.6481(2) 0.4852(3)
N4C N 1.1311(4) 0.2227(3) 0.2343(3)
N4B N 1.6311(4) 0.7227(3) 0.2343(3)
N6C N 1.2219(4) -0.0360(2) 0.2023(3)
N6B N 1.7219(4) 0.4640(2) 0.2023(3)
N7B N 1.4843(4) -0.0433(2) 0.1600(3)
N7_2 N 1.5157(4) 0.9567(2) 0.3400(3)
N7C N 0.9843(4) 0.4567(2) 0.1600(3)
N8B N 1.6126(3) 0.2093(2) 0.2578(3)
C1B C 1.7641(4) 0.5831(3) 0.4188(3)
C2B C 1.7628(5) 0.5295(3) 0.3806(4)
H1B H 1.7442 0.5303 0.3327
C3B C 1.7893(6) 0.4756(3) 0.4139(4)
H2B H 1.7894 0.4394 0.3888
C4B C 1.8153(6) 0.4751(3) 0.4839(5)
H3B H 1.8345 0.4389 0.5072
C5B C 1.8130(5) 0.5292(3) 0.5196(4)
H4B H 1.8285 0.5285 0.5676
C6F C 0.9840(4) 0.7010(3) -0.0306(3)
C7F C 0.8885(4) 0.6895(3) -0.0549(3)
H5F H 0.8670 0.6815 -0.1016
C8F C 0.8251(4) 0.6899(3) -0.0101(3)
H6F H 0.7608 0.6821 -0.0260
C9F C 0.8587(5) 0.7020(3) 0.0582(3)
H7F H 0.8177 0.7033 0.0898
C10F C 0.9544(4) 0.7122(3) 0.0789(3)
H8F H 0.9772 0.7199 0.1255
C11B C 1.5781(4) 0.3655(3) 0.0522(3)
C12B C 1.5272(4) 0.4079(3) 0.0842(3)
H9B H 1.5458 0.4171 0.1309
C13B C 1.4489(5) 0.4355(4) 0.0450(4)
H10B H 1.4146 0.4647 0.0647
C14B C 1.4222(6) 0.4202(4) -0.0222(4)
H11B H 1.3678 0.4372 -0.0488
C15B C 1.4759(5) 0.3794(4) -0.0506(4)
H12B H 1.4578 0.3701 -0.0973
C16C C 1.1284(4) 0.2751(3) 0.2397(3)
C18C C 1.2337(4) 0.0163(3) 0.1974(3)
C19B C 1.4971(4) 0.0088(3) 0.1605(3)
C20B C 1.6224(4) 0.2604(3) 0.2707(3)
loop_
_geom_bond_atom_site_label_1
_geom_bond_atom_site_label_2
_geom_bond_site_symmetry_1
_geom_bond_site_symmetry_2
Cu1 S2 1_555 1_555
Cu2 S1 1_555 1_555
Cu3 S1 1_555 1_555
Cu4 S1 1_555 1_555
Cu5 S3 1_555 1_555
Cu6 S5 1_555 1_555
Cu7 S7 1_555 1_555
Cu8 S8 1_555 1_555
S1 C1 1_555 1_555
S2 C6 1_555 1_555
S3 Cu1 1_555 1_555
S4 Cu4 1_555 1_555
S5 C16 1_555 1_555
S6 Cu4 1_555 1_555
S7 C19 1_555 1_555
S8 Cu5 1_555 1_555
N1 C1 1_555 1_555
N2 C6 1_555 1_555
N3 C11 1_555 1_555
N4 Cu4 1_555 1_555
N5 Cu8 1_555 1_555
N6 Cu5 1_555 1_555
N7 C19 1_555 1_555
N8 Cu7 1_555 1_555
C1 C2 1_555 1_555
C2 H1 1_555 1_555
C3 C2 1_555 1_555
H2 C3 1_555 1_555
C4 C3 1_555 1_555
H3 C4 1_555 1_555
C5 N1 1_555 1_555
H4 C5 1_555 1_555
C6 C7 1_555 1_555
C7 H5 1_555 1_555
C8 C7 1_555 1_555
H6 C8 1_555 1_555
C9 C8 1_555 1_555
H7 C9 1_555 1_555
C10 N2 1_555 1_555
H8 C10 1_555 1_555
C11 S3 1_555 1_555
C12 C11 1_555 1_555
H9 C12 1_555 1_555
C13 C12 1_555 1_555
H10 C13 1_555 1_555
C14 C13 1_555 1_555
H11 C14 1_555 1_555
C15 N3 1_555 1_555
H12 C15 1_555 1_555
C16 N4 1_555 1_555
C17 S4 1_555 1_555
C18 S6 1_555 1_555
C20 S8 1_555 1_555
Cu1B S2B 1_555 1_555
Cu1F N1 1_555 1_555
Cu1D N1B 1_555 1_555
Cu2B S1B 1_555 1_555
Cu2C S3 1_555 1_555
Cu2F N2 1_555 1_555
Cu2A S3B 1_555 1_555
Cu3B S1B 1_555 1_555
Cu3C S2 1_555 1_555
Cu3F N3 1_555 1_555
Cu3D N3B 1_555 1_555
Cu3E S2F 1_555 1_555
Cu4B S4 1_555 1_555
Cu4C S6C 1_555 1_555
Cu5B S3B 1_555 1_555
Cu5C S5 1_555 1_555
Cu5C_2 N6C 1_555 1_555
Cu6C S2B_2 1_555 1_555
Cu6A S2 1_555 1_555
Cu6B S5 1_555 1_555
Cu6_2 N7 1_555 1_555
Cu6B_2 N7B 1_555 1_555
Cu6G S2F 1_555 1_555
Cu7B S7 1_555 1_555
Cu7C S6 1_555 1_555
S1B Cu4B 1_555 1_555
S2F Cu1F 1_555 1_555
S2C Cu3 1_555 1_555
S2A Cu6 1_555 1_555
S3B Cu1B 1_555 1_555
S3C Cu2 1_555 1_555
S3A Cu2B 1_555 1_555
S5C Cu5 1_555 1_555
S5B Cu6 1_555 1_555
S5A Cu5B 1_555 1_555
S5A_2 Cu6C 1_555 1_555
S6C Cu7 1_555 1_555
S6B Cu4B 1_555 1_555
S6A Cu7B 1_555 1_555
S7B Cu7 1_555 1_555
S8B Cu8 1_555 1_555
N1B C1B 1_555 1_555
N1F Cu1 1_555 1_555
N1D Cu1B 1_555 1_555
N2F Cu2 1_555 1_555
N2D Cu2B 1_555 1_555
N3B C11B 1_555 1_555
N3F Cu3 1_555 1_555
N3D Cu3B 1_555 1_555
N4C Cu4C 1_555 1_555
N4B Cu4B 1_555 1_555
N6C C18C 1_555 1_555
N6B Cu5B 1_555 1_555
N7B C19B 1_555 1_555
N7_2 Cu6 1_555 1_555
N7C Cu6C 1_555 1_555
N8B Cu7B 1_555 1_555
C1B S1B 1_555 1_555
C2B C1B 1_555 1_555
H1B C2B 1_555 1_555
C3B C2B 1_555 1_555
H2B C3B 1_555 1_555
C4B C3B 1_555 1_555
H3B C4B 1_555 1_555
C5B N1B 1_555 1_555
H4B C5B 1_555 1_555
C6F S2F 1_555 1_555
C7F C6F 1_555 1_555
H5F C7F 1_555 1_555
C8F C7F 1_555 1_555
H6F C8F 1_555 1_555
C9F C8F 1_555 1_555
H7F C9F 1_555 1_555
C10F N2F 1_555 1_555
H8F C10F 1_555 1_555
C11B S3B 1_555 1_555
C12B C11B 1_555 1_555
H9B C12B 1_555 1_555
C13B C12B 1_555 1_555
H10B C13B 1_555 1_555
C14B C13B 1_555 1_555
H11B C14B 1_555 1_555
C15B N3B 1_555 1_555
H12B C15B 1_555 1_555
C16C S5C 1_555 1_555
C18C S6C 1_555 1_555
C19B S7B 1_555 1_555
C20B S8B 1_555 1_555
N5 C17 1_555 1_555
N6 C18 1_555 1_555
N8 C20 1_555 1_555
C4 C5 1_555 1_555
C9 C10 1_555 1_555
C14 C15 1_555 1_555
Cu3B S2A 1_555 1_555
Cu5B S8B 1_555 1_555
Cu5C S3C 1_555 1_555
Cu6C S5C 1_555 1_555
Cu6A S5C 1_555 1_555
Cu6A S5A_2 1_555 1_555
Cu6B S2C 1_555 1_555
Cu6B S5B 1_555 1_555
Cu7B S7B 1_555 1_555
N2F C6F 1_555 1_555
N4C C16C 1_555 1_555
N8B C20B 1_555 1_555
C4B C5B 1_555 1_555
C9F C10F 1_555 1_555
C14B C15B 1_555 1_555

#END
