
#######################################################################
#
#                 Cambridge Crystallographic Data Centre
#                                CCDC 
#
#######################################################################
#
# If this CIF has been generated from an entry in the Cambridge 
# Structural Database, then it will include bibliographic, chemical, 
# crystal, experimental, refinement or atomic coordinate data resulting 
# from the CCDC's data processing and validation procedures.
#
#######################################################################

data_TISMIS
_symmetry_cell_setting           orthorhombic
_symmetry_space_group_name_H-M   'P c c a'
_symmetry_Int_Tables_number      54
_space_group_name_Hall           '-P 2a 2ac'
loop_
_symmetry_equiv_pos_site_id
_symmetry_equiv_pos_as_xyz
1 x,y,z
2 1/2-x,-y,z
3 -x,y,1/2-z
4 1/2+x,-y,1/2-z
5 -x,-y,-z
6 1/2+x,y,-z
7 x,-y,1/2+z
8 1/2-x,y,1/2+z
_cell_length_a                   16.022(3)
_cell_length_b                   4.0404(7)
_cell_length_c                   25.154(4)
_cell_angle_alpha                90
_cell_angle_beta                 90
_cell_angle_gamma                90
_cell_volume                     1628.35
loop_
_atom_site_label
_atom_site_type_symbol
_atom_site_fract_x
_atom_site_fract_y
_atom_site_fract_z
Ag1 Ag 0.15322(5) 1.0845(3) 0.20799(3)
Ag2 Ag 0.2500 0.5000 0.06904(5)
S1 S 0.14034(13) 0.5711(6) 0.14393(9)
Cl1 Cl 0.2500 1.0000 0.28374(12)
Cl2 Cl 0.2500 0.0000 0.00784(13)
Cl3 Cl 0.0000 1.0542(8) 0.2500
N1 N -0.1241(6) 0.366(3) 0.0920(5)
H1 H -0.1779(14) 0.33(4) 0.081(3)
C1 C -0.1045(6) 0.524(3) 0.1390(4)
H2 H -0.1467 0.5919 0.1619
C2 C -0.0254(4) 0.5789(18) 0.1514(3)
H3 H -0.0145 0.6879 0.1832
C3 C 0.0397(5) 0.490(2) 0.1218(3)
C4 C 0.0225(6) 0.331(3) 0.0733(4)
H4 H 0.0659 0.2684 0.0510
C5 C -0.0576(6) 0.270(3) 0.0592(4)
H5 H -0.0687 0.1627 0.0273
Ag1A Ag 0.34678(5) -0.0845(3) 0.20799(3)
Ag1_2 Ag 0.15322(5) 0.0845(3) 0.20799(3)
Ag1A_2 Ag 0.34678(5) 0.9155(3) 0.20799(3)
Ag1B Ag -0.15322(5) 1.0845(3) 0.29201(3)
Ag2_2 Ag 0.2500 -0.5000 0.06904(5)
S1A S 0.35966(13) 0.4289(6) 0.14393(9)
S1_2 S 0.14034(13) 1.5711(6) 0.14393(9)
S1A_2 S 0.35966(13) -0.5711(6) 0.14393(9)
Cl1_2 Cl 0.2500 0.0000 0.28374(12)
Cl2_2 Cl 0.2500 1.0000 0.00784(13)
Cl3A Cl 0.5000 -0.0542(8) 0.2500
N1A N 0.6241(6) 0.634(3) 0.0920(5)
H1A H 0.6779(14) 0.67(4) 0.081(3)
C1A C 0.6045(6) 0.476(3) 0.1390(4)
H2A H 0.6467 0.4081 0.1619
C2A C 0.5254(4) 0.4211(18) 0.1514(3)
H3A H 0.5145 0.3121 0.1832
C3A C 0.4603(5) 0.510(2) 0.1218(3)
C4A C 0.4775(6) 0.669(3) 0.0733(4)
H4A H 0.4341 0.7316 0.0510
C5A C 0.5576(6) 0.730(3) 0.0592(4)
H5A H 0.5687 0.8373 0.0273
loop_
_geom_bond_atom_site_label_1
_geom_bond_atom_site_label_2
_geom_bond_site_symmetry_1
_geom_bond_site_symmetry_2
Ag1 S1 1_555 1_555
Ag2 S1 1_555 1_555
S1 C3 1_555 1_555
Cl1 Ag1 1_555 1_555
Cl2 Ag2 1_555 1_555
Cl3 Ag1 1_555 1_555
N1 H1 1_555 1_555
C1 N1 1_555 1_555
H2 C1 1_555 1_555
C2 C1 1_555 1_555
H3 C2 1_555 1_555
C3 C2 1_555 1_555
C4 C3 1_555 1_555
H4 C4 1_555 1_555
C5 N1 1_555 1_555
H5 C5 1_555 1_555
Ag1A S1A 1_555 1_555
Ag1_2 S1 1_555 1_555
Ag1A_2 Cl1 1_555 1_555
Ag1B Cl3 1_555 1_555
Ag2_2 Cl2 1_555 1_555
S1A Ag2 1_555 1_555
S1_2 Ag1 1_555 1_555
S1A_2 Ag1A 1_555 1_555
Cl1_2 Ag1A 1_555 1_555
Cl2_2 Ag2 1_555 1_555
Cl3A Ag1A 1_555 1_555
N1A H1A 1_555 1_555
C1A N1A 1_555 1_555
H2A C1A 1_555 1_555
C2A C1A 1_555 1_555
H3A C2A 1_555 1_555
C3A S1A 1_555 1_555
C4A C3A 1_555 1_555
H4A C4A 1_555 1_555
C5A N1A 1_555 1_555
H5A C5A 1_555 1_555
C4 C5 1_555 1_555
Ag1_2 Cl1_2 1_555 1_555
Ag1A_2 S1A 1_555 1_555
Ag2_2 S1A_2 1_555 1_555
C2A C3A 1_555 1_555
C4A C5A 1_555 1_555

#END
