
#######################################################################
#
#                 Cambridge Crystallographic Data Centre
#                                CCDC 
#
#######################################################################
#
# If this CIF has been generated from an entry in the Cambridge 
# Structural Database, then it will include bibliographic, chemical, 
# crystal, experimental, refinement or atomic coordinate data resulting 
# from the CCDC's data processing and validation procedures.
#
#######################################################################

data_TISMUF
_symmetry_cell_setting           monoclinic
_symmetry_space_group_name_H-M   'P 2/n'
_symmetry_Int_Tables_number      13
_space_group_name_Hall           '-P 2yac'
loop_
_symmetry_equiv_pos_site_id
_symmetry_equiv_pos_as_xyz
1 x,y,z
2 1/2-x,y,1/2-z
3 -x,-y,-z
4 1/2+x,-y,1/2+z
_cell_length_a                   17.6724(6)
_cell_length_b                   7.5085(2)
_cell_length_c                   21.7973(8)
_cell_angle_alpha                90
_cell_angle_beta                 103.479(4)
_cell_angle_gamma                90
_cell_volume                     2812.69
loop_
_atom_site_label
_atom_site_type_symbol
_atom_site_fract_x
_atom_site_fract_y
_atom_site_fract_z
Cd1 Cd 0.504306(13) 0.02958(3) 0.180712(11)
Cd2 Cd 0.493213(13) -0.51414(3) 0.260170(12)
C1 C 0.3944(2) -0.1388(5) -0.00304(18)
H1 H 0.3970 -0.1915 -0.0411
C2 C 0.3512(2) -0.0086(5) 0.06891(17)
H2 H 0.3188 0.0466 0.0912
C3 C 0.2516(2) -0.0705(5) -0.03206(17)
C4 C 0.1865(2) -0.1081(6) -0.00871(19)
C5 C 0.1141(3) -0.1060(6) -0.0501(2)
H3 H 0.0697 -0.1291 -0.0355
C6 C 0.1075(3) -0.0694(6) -0.1136(2)
H4 H 0.0587 -0.0686 -0.1412
C7 C 0.1722(3) -0.0346(6) -0.1357(2)
H5 H 0.1671 -0.0111 -0.1784
C8 C 0.2447(3) -0.0340(5) -0.09534(19)
H6 H 0.2886 -0.0094 -0.1104
C9 C 0.1466(3) -0.2381(9) 0.0815(2)
H7 H 0.1005 -0.2675 0.0492
H8 H 0.1307 -0.1686 0.1139
C10 C 0.1860(3) -0.4039(8) 0.1094(2)
H9 H 0.2378 -0.3757 0.1340
H10 H 0.1570 -0.4571 0.1374
C11 C 0.2580(3) -0.5393(6) 0.0389(2)
C12 C 0.2477(2) -0.5791(5) -0.02477(18)
C13 C 0.3113(3) -0.6129(6) -0.0495(2)
H11 H 0.3040 -0.6419 -0.0920
C14 C 0.3861(3) -0.6039(7) -0.0115(3)
H12 H 0.4292 -0.6266 -0.0279
C15 C 0.3952(3) -0.5605(6) 0.0515(3)
H13 H 0.4451 -0.5522 0.0772
C16 C 0.3333(3) -0.5297(6) 0.0764(2)
H14 H 0.3410 -0.5019 0.1190
C17 C 0.1493(2) -0.5248(5) -0.12467(19)
H15 H 0.1827 -0.4702 -0.1461
C18 C 0.1037(3) -0.6510(6) -0.05355(19)
H16 H 0.0999 -0.7013 -0.0154
C19 C 0.68103(17) -0.3948(4) 0.22405(15)
C20 C 0.68188(17) -0.5813(4) 0.22335(15)
C21 C 0.7500 -0.6704(6) 0.2500
H17 H 0.7500 -0.7943 0.2500
C22 C 0.7500 -0.3056(6) 0.2500
H18 H 0.7500 -0.1818 0.2500
C23 C 0.60750(19) -0.2899(4) 0.20011(15)
C24 C 0.61171(18) -0.6951(4) 0.19703(16)
C25 C 0.31861(18) -0.9010(4) 0.25045(15)
C26 C 0.31843(18) -1.0877(4) 0.24928(15)
C27 C 0.2500 -1.1760(6) 0.2500
H19 H 0.2500 -1.2999 0.2500
C28 C 0.2500 -0.8114(6) 0.2500
H20 H 0.2500 -0.6875 0.2500
C29 C 0.38858(18) -0.7876(4) 0.25122(17)
C30 C 0.39146(19) -1.1904(4) 0.24930(15)
N1 N 0.42511(17) -0.0355(4) 0.09065(14)
N2 N 0.45350(18) -0.1202(4) 0.04458(15)
N3 N 0.32771(18) -0.0716(4) 0.00958(14)
N4 N 0.17070(19) -0.5851(4) -0.06539(14)
N5 N 0.07543(19) -0.5526(4) -0.14840(15)
N6 N 0.0454(2) -0.6343(5) -0.10255(16)
O1 O 0.19968(18) -0.1370(5) 0.05453(14)
O2 O 0.1914(2) -0.5281(6) 0.06059(16)
O3 O 0.61467(13) -0.1250(3) 0.19533(12)
O4 O 0.54339(12) -0.3716(3) 0.18732(11)
O5 O 0.59672(14) -0.7489(3) 0.14282(11)
O6 O 0.57418(12) -0.7455(3) 0.23824(10)
O7 O 0.40687(13) -0.7556(3) 0.19982(11)
O8 O 0.42157(13) -0.7180(3) 0.30271(11)
O9 O 0.45479(12) -1.1085(3) 0.25583(11)
O10 O 0.38432(14) -1.3568(3) 0.24392(13)
C19A C 0.81897(17) -0.3948(4) 0.27595(15)
C20A C 0.81812(17) -0.5813(4) 0.27665(15)
C23A C 0.89250(19) -0.2899(4) 0.29989(15)
C24A C 0.88829(18) -0.6951(4) 0.30297(16)
O3A O 0.88533(13) -0.1250(3) 0.30467(12)
O4A O 0.95661(12) -0.3716(3) 0.31268(11)
O5A O 0.90328(14) -0.7489(3) 0.35718(11)
O6A O 0.92582(12) -0.7455(3) 0.26176(10)
C25A C 0.18139(18) -0.9010(4) 0.24955(15)
C26A C 0.18157(18) -1.0877(4) 0.25072(15)
C29A C 0.11142(18) -0.7876(4) 0.24878(17)
C30A C 0.10854(19) -1.1904(4) 0.25070(15)
O7A O 0.09313(13) -0.7556(3) 0.30018(11)
O8A O 0.07843(13) -0.7180(3) 0.19729(11)
O9A O 0.04521(12) -1.1085(3) 0.24417(11)
O10A O 0.11568(14) -1.3568(3) 0.25608(13)
Cd2A Cd 0.006787(13) -0.51414(3) 0.239830(12)
Cd1C Cd 1.004306(13) -1.02958(3) 0.680712(11)
C1C C 0.8944(2) -0.8612(5) 0.49696(18)
H1C H 0.8970 -0.8085 0.4589
C2C C 0.8512(2) -0.9914(5) 0.56891(17)
H2C H 0.8188 -1.0466 0.5912
C3C C 0.7516(2) -0.9295(5) 0.46794(17)
C4C C 0.6865(2) -0.8919(6) 0.49129(19)
C5C C 0.6141(3) -0.8940(6) 0.4499(2)
H3C H 0.5697 -0.8709 0.4645
C6C C 0.6075(3) -0.9306(6) 0.3864(2)
H4C H 0.5587 -0.9314 0.3588
C7C C 0.6722(3) -0.9654(6) 0.3643(2)
H5C H 0.6671 -0.9889 0.3216
C8C C 0.7447(3) -0.9660(5) 0.40466(19)
H6C H 0.7886 -0.9906 0.3896
C9C C 0.6466(3) -0.7619(9) 0.5815(2)
H7C H 0.6005 -0.7325 0.5492
H8C H 0.6307 -0.8314 0.6139
C10C C 0.6860(3) -0.5961(8) 0.6094(2)
H9C H 0.7378 -0.6243 0.6340
H10C H 0.6570 -0.5429 0.6374
C11C C 0.7580(3) -0.4607(6) 0.5389(2)
C12C C 0.7477(2) -0.4209(5) 0.47523(18)
C13C C 0.8113(3) -0.3871(6) 0.4505(2)
H11C H 0.8040 -0.3581 0.4080
C14C C 0.8861(3) -0.3961(7) 0.4885(3)
H12C H 0.9292 -0.3734 0.4721
C15C C 0.8952(3) -0.4395(6) 0.5515(3)
H13C H 0.9451 -0.4478 0.5772
C16C C 0.8333(3) -0.4703(6) 0.5764(2)
H14C H 0.8410 -0.4981 0.6190
C17C C 0.6493(2) -0.4752(5) 0.37533(19)
H15C H 0.6827 -0.5298 0.3539
C18C C 0.6037(3) -0.3490(6) 0.44645(19)
H16C H 0.5999 -0.2987 0.4846
N1C N 0.92511(17) -0.9645(4) 0.59065(14)
N2C N 0.95350(18) -0.8798(4) 0.54458(15)
N3C N 0.82771(18) -0.9284(4) 0.50958(14)
N4C N 0.67070(19) -0.4149(4) 0.43461(14)
N5C N 0.57543(19) -0.4474(4) 0.35160(15)
N6C N 0.5454(2) -0.3657(5) 0.39745(16)
O1C O 0.69968(18) -0.8630(5) 0.55453(14)
O2C O 0.6914(2) -0.4719(6) 0.56059(16)
Cd1_2 Cd 0.504306(13) -0.97042(3) 0.180712(11)
Cd1A Cd -0.004306(13) -0.97042(3) 0.319288(11)
Cd1A_2 Cd 0.995694(13) -0.97042(3) 0.319288(11)
Cd1A_3 Cd 0.995694(13) 0.02958(3) 0.319288(11)
Cd2_2 Cd 0.493213(13) -1.51414(3) 0.260170(12)
Cd2A_2 Cd 0.006787(13) -1.51414(3) 0.239830(12)
Cd2A_3 Cd 1.006787(13) -0.51414(3) 0.239830(12)
Cd2C Cd -0.006787(13) -0.48586(3) -0.239830(12)
N5B N -0.07543(19) -0.4474(4) 0.14840(15)
O3C O 1.11467(13) -0.8750(3) 0.69533(12)
O4A_2 O -0.04339(12) -0.3716(3) 0.31268(11)
O5_2 O 0.59672(14) 0.2511(3) 0.14282(11)
O5C O 1.09672(14) -1.2511(3) 0.64282(11)
O6_2 O 0.57418(12) 0.2545(3) 0.23824(10)
O6A_2 O -0.07418(12) -0.7455(3) 0.26176(10)
O6C O 1.07418(12) -1.2545(3) 0.73824(10)
O7_2 O 0.40687(13) 0.2444(3) 0.19982(11)
O7C O 0.90687(13) -1.2444(3) 0.69982(11)
O9_2 O 0.45479(12) -0.1085(3) 0.25583(11)
O9C O 0.95479(12) -0.8915(3) 0.75583(11)
O10_2 O 0.38432(14) -0.3568(3) 0.24392(13)
O10A_2 O 0.11568(14) -0.3568(3) 0.25608(13)
O11 O 0.4212(4) -0.8277(11) 0.4224(3)
loop_
_geom_bond_atom_site_label_1
_geom_bond_atom_site_label_2
_geom_bond_site_symmetry_1
_geom_bond_site_symmetry_2
Cd1 N1 1_555 1_555
Cd2 O4 1_555 1_555
C1 H1 1_555 1_555
C2 H2 1_555 1_555
C3 C4 1_555 1_555
C4 C5 1_555 1_555
C5 H3 1_555 1_555
C6 C5 1_555 1_555
H4 C6 1_555 1_555
C7 C6 1_555 1_555
H5 C7 1_555 1_555
C8 C3 1_555 1_555
H6 C8 1_555 1_555
C9 H7 1_555 1_555
H8 C9 1_555 1_555
C10 C9 1_555 1_555
H9 C10 1_555 1_555
H10 C10 1_555 1_555
C11 C12 1_555 1_555
C12 C13 1_555 1_555
C13 H11 1_555 1_555
C14 C13 1_555 1_555
H12 C14 1_555 1_555
C15 C14 1_555 1_555
H13 C15 1_555 1_555
C16 C11 1_555 1_555
H14 C16 1_555 1_555
C17 H15 1_555 1_555
C18 H16 1_555 1_555
C19 C20 1_555 1_555
C20 C21 1_555 1_555
C21 H17 1_555 1_555
C22 C19 1_555 1_555
H18 C22 1_555 1_555
C23 C19 1_555 1_555
C24 C20 1_555 1_555
C25 C26 1_555 1_555
C26 C27 1_555 1_555
C27 H19 1_555 1_555
C28 C25 1_555 1_555
H20 C28 1_555 1_555
C29 C25 1_555 1_555
C30 C26 1_555 1_555
N1 C2 1_555 1_555
N2 C1 1_555 1_555
N3 C1 1_555 1_555
N4 C12 1_555 1_555
N5 C17 1_555 1_555
N6 C18 1_555 1_555
O1 C4 1_555 1_555
O2 C10 1_555 1_555
O3 Cd1 1_555 1_555
O4 C23 1_555 1_555
O5 C24 1_555 1_555
O6 Cd2 1_555 1_555
O7 Cd2 1_555 1_555
O8 Cd2 1_555 1_555
O9 C30 1_555 1_555
O10 C30 1_555 1_555
C19A C22 1_555 1_555
C20A C21 1_555 1_555
C23A C19A 1_555 1_555
C24A C20A 1_555 1_555
O3A C23A 1_555 1_555
O4A C23A 1_555 1_555
O5A C24A 1_555 1_555
O6A C24A 1_555 1_555
C25A C28 1_555 1_555
C26A C27 1_555 1_555
C29A C25A 1_555 1_555
C30A C26A 1_555 1_555
O7A C29A 1_555 1_555
O8A C29A 1_555 1_555
O9A C30A 1_555 1_555
O10A C30A 1_555 1_555
Cd2A O7A 1_555 1_555
Cd1C N1C 1_555 1_555
C1C H1C 1_555 1_555
C2C H2C 1_555 1_555
C3C C4C 1_555 1_555
C4C C5C 1_555 1_555
C5C H3C 1_555 1_555
C6C C5C 1_555 1_555
H4C C6C 1_555 1_555
C7C C6C 1_555 1_555
H5C C7C 1_555 1_555
C8C C3C 1_555 1_555
H6C C8C 1_555 1_555
C9C H7C 1_555 1_555
H8C C9C 1_555 1_555
C10C C9C 1_555 1_555
H9C C10C 1_555 1_555
H10C C10C 1_555 1_555
C11C C12C 1_555 1_555
C12C C13C 1_555 1_555
C13C H11C 1_555 1_555
C14C C13C 1_555 1_555
H12C C14C 1_555 1_555
C15C C14C 1_555 1_555
H13C C15C 1_555 1_555
C16C C11C 1_555 1_555
H14C C16C 1_555 1_555
C17C H15C 1_555 1_555
C18C H16C 1_555 1_555
N1C C2C 1_555 1_555
N2C C1C 1_555 1_555
N3C C1C 1_555 1_555
N4C C12C 1_555 1_555
N5C Cd2 1_555 1_555
N6C C18C 1_555 1_555
O1C C4C 1_555 1_555
O2C C10C 1_555 1_555
Cd1_2 O5 1_555 1_555
Cd1A O7A 1_555 1_555
Cd1A_2 O5A 1_555 1_555
Cd1A_3 O3A 1_555 1_555
Cd2_2 O10 1_555 1_555
Cd2A_2 O10A 1_555 1_555
Cd2A_3 O4A 1_555 1_555
Cd2C N5 1_555 1_555
N5B Cd2A 1_555 1_555
O3C Cd1C 1_555 1_555
O4A_2 Cd2A 1_555 1_555
O5_2 Cd1 1_555 1_555
O5C Cd1C 1_555 1_555
O6_2 Cd1 1_555 1_555
O6A_2 Cd2A 1_555 1_555
O6C Cd1C 1_555 1_555
O7_2 Cd1 1_555 1_555
O7C Cd1C 1_555 1_555
O9_2 Cd1 1_555 1_555
O9C Cd1C 1_555 1_555
O10_2 Cd2 1_555 1_555
O10A_2 Cd2A 1_555 1_555
C2 N3 1_555 1_555
C3 N3 1_555 1_555
C7 C8 1_555 1_555
C9 O1 1_555 1_555
C11 O2 1_555 1_555
C15 C16 1_555 1_555
C17 N4 1_555 1_555
C18 N4 1_555 1_555
C23 O3 1_555 1_555
C24 O6 1_555 1_555
C29 O7 1_555 1_555
C29 O8 1_555 1_555
N1 N2 1_555 1_555
N5 N6 1_555 1_555
O6 Cd1_2 1_555 1_555
O7 Cd1_2 1_555 1_555
O9 Cd1_2 1_555 1_555
C19A C20A 1_555 1_555
O6A Cd1A_2 1_555 1_555
O6A Cd2A_3 1_555 1_555
C25A C26A 1_555 1_555
O8A Cd2A 1_555 1_555
O9A Cd1A 1_555 1_555
C2C N3C 1_555 1_555
C3C N3C 1_555 1_555
C7C C8C 1_555 1_555
C9C O1C 1_555 1_555
C11C O2C 1_555 1_555
C15C C16C 1_555 1_555
C17C N4C 1_555 1_555
C17C N5C 1_555 1_555
C18C N4C 1_555 1_555
N1C N2C 1_555 1_555
N5C N6C 1_555 1_555
Cd1A O6A_2 1_555 1_555

#END
