
#######################################################################
#
#                 Cambridge Crystallographic Data Centre
#                                CCDC 
#
#######################################################################
#
# If this CIF has been generated from an entry in the Cambridge 
# Structural Database, then it will include bibliographic, chemical, 
# crystal, experimental, refinement or atomic coordinate data resulting 
# from the CCDC's data processing and validation procedures.
#
#######################################################################

data_TISMIT
_symmetry_cell_setting           monoclinic
_symmetry_space_group_name_H-M   'P 21/n'
_symmetry_Int_Tables_number      14
_space_group_name_Hall           '-P 2yn'
loop_
_symmetry_equiv_pos_site_id
_symmetry_equiv_pos_as_xyz
1 x,y,z
2 1/2-x,1/2+y,1/2-z
3 -x,-y,-z
4 1/2+x,1/2-y,1/2+z
_cell_length_a                   11.6090(5)
_cell_length_b                   10.6201(4)
_cell_length_c                   21.7532(7)
_cell_angle_alpha                90
_cell_angle_beta                 100.085(3)
_cell_angle_gamma                90
_cell_volume                     2640.49
loop_
_atom_site_label
_atom_site_type_symbol
_atom_site_fract_x
_atom_site_fract_y
_atom_site_fract_z
Zn1 Zn 0.89302(3) 0.04202(3) 0.245624(14)
C1 C 1.0425(4) 0.2403(4) 0.1185(2)
H1 H 1.1014 0.2569 0.0957
C2 C 0.8920(3) 0.2603(3) 0.16044(13)
H2 H 0.8249 0.2922 0.1727
C3 C 0.9257(3) 0.4368(3) 0.09066(14)
C4 C 0.8123(3) 0.4612(3) 0.06146(14)
C5 C 0.7875(4) 0.5768(4) 0.03293(17)
H3 H 0.7118 0.5950 0.0130
C6 C 0.8748(5) 0.6647(4) 0.0341(2)
H4 H 0.8574 0.7429 0.0156
C7 C 0.9873(5) 0.6382(4) 0.0621(2)
H5 H 1.0460 0.6976 0.0617
C8 C 1.0134(4) 0.5244(4) 0.09067(17)
H6 H 1.0896 0.5063 0.1099
C9 C 0.6310(3) 0.4017(4) 0.08811(16)
H7 H 0.5881 0.4699 0.0648
H8 H 0.6578 0.4303 0.1305
C10 C 0.5531(3) 0.2909(4) 0.08851(14)
H9 H 0.5979 0.2181 0.1059
H10 H 0.4935 0.3081 0.1135
C11 C 0.4247(3) 0.1705(3) 0.01196(14)
C12 C 0.3882(3) 0.1453(3) -0.05145(13)
C13 C 0.3083(3) 0.0522(3) -0.07048(15)
H11 H 0.2854 0.0355 -0.1128
C14 C 0.2618(4) -0.0166(3) -0.02730(18)
H12 H 0.2072 -0.0796 -0.0402
C15 C 0.2966(4) 0.0083(4) 0.03514(18)
H13 H 0.2647 -0.0380 0.0643
C16 C 0.3775(3) 0.1001(3) 0.05533(15)
H14 H 0.4006 0.1152 0.0978
C17 C 0.3686(3) 0.2740(3) -0.14811(12)
H15 H 0.2891 0.2605 -0.1620
C18 C 0.5414(3) 0.2678(3) -0.09474(15)
H16 H 0.6047 0.2486 -0.0637
C19 C 0.5400(3) 0.0771(3) 0.24084(12)
C20 C 0.4766(3) 0.1830(3) 0.25156(13)
C21 C 0.3572(3) 0.1714(4) 0.24909(18)
H17 H 0.3132 0.2417 0.2557
C22 C 0.3026(3) 0.0561(4) 0.2369(2)
H18 H 0.2226 0.0491 0.2362
C23 C 0.3652(4) -0.0471(4) 0.22587(19)
H19 H 0.3279 -0.1239 0.2165
C24 C 0.4833(3) -0.0370(3) 0.22869(15)
H20 H 0.5263 -0.1082 0.2223
C25 C 0.6677(3) 0.0858(3) 0.23814(13)
C26 C 0.5341(3) 0.3091(3) 0.26795(14)
N1 N 0.9405(2) 0.1530(2) 0.17871(11)
N2 N 1.0378(3) 0.1391(3) 0.15144(16)
N3 N 0.9524(2) 0.3182(2) 0.12136(11)
N4 N 0.4320(2) 0.2233(2) -0.09586(10)
N5 N 0.4357(2) 0.3449(2) -0.17624(10)
N6 N 0.5480(2) 0.3401(3) -0.14192(12)
O1 O 0.7297(2) 0.3682(2) 0.05990(9)
O2 O 0.5004(2) 0.2677(2) 0.02493(9)
O3 O 0.7309(2) -0.0101(2) 0.25231(12)
O4 O 0.7068(2) 0.1854(2) 0.22110(10)
O5 O 0.50137(19) 0.39899(19) 0.22982(9)
O6 O 0.6051(2) 0.3235(2) 0.31660(10)
Zn1A Zn 0.60698(3) 0.54202(3) 0.254376(14)
Zn1C Zn 0.39302(3) 0.45798(3) -0.254376(14)
N5C N 0.9357(2) 0.1551(2) 0.32376(10)
O5A O 0.99863(19) -0.10101(19) 0.27018(9)
O7 O 0.3001(3) 0.4194(3) 0.13145(14)
O8 O 1.0856(9) 0.8971(7) 0.1102(4)
loop_
_geom_bond_atom_site_label_1
_geom_bond_atom_site_label_2
_geom_bond_site_symmetry_1
_geom_bond_site_symmetry_2
Zn1 N1 1_555 1_555
C1 H1 1_555 1_555
C2 H2 1_555 1_555
C3 C4 1_555 1_555
C4 C5 1_555 1_555
C5 H3 1_555 1_555
C6 C5 1_555 1_555
H4 C6 1_555 1_555
C7 C6 1_555 1_555
H5 C7 1_555 1_555
C8 C3 1_555 1_555
H6 C8 1_555 1_555
C9 H7 1_555 1_555
H8 C9 1_555 1_555
C10 C9 1_555 1_555
H9 C10 1_555 1_555
H10 C10 1_555 1_555
C11 C12 1_555 1_555
C12 C13 1_555 1_555
C13 H11 1_555 1_555
C14 C13 1_555 1_555
H12 C14 1_555 1_555
C15 C14 1_555 1_555
H13 C15 1_555 1_555
C16 C11 1_555 1_555
H14 C16 1_555 1_555
C17 H15 1_555 1_555
C18 H16 1_555 1_555
C19 C20 1_555 1_555
C20 C21 1_555 1_555
C21 H17 1_555 1_555
C22 C21 1_555 1_555
H18 C22 1_555 1_555
C23 C22 1_555 1_555
H19 C23 1_555 1_555
C24 C19 1_555 1_555
H20 C24 1_555 1_555
C25 C19 1_555 1_555
C26 C20 1_555 1_555
N1 C2 1_555 1_555
N2 C1 1_555 1_555
N3 C1 1_555 1_555
N4 C12 1_555 1_555
N5 C17 1_555 1_555
N6 C18 1_555 1_555
O1 C4 1_555 1_555
O2 C10 1_555 1_555
O3 Zn1 1_555 1_555
O4 C25 1_555 1_555
O5 C26 1_555 1_555
O6 C26 1_555 1_555
Zn1A O5 1_555 1_555
Zn1C N5 1_555 1_555
N5C Zn1 1_555 1_555
O5A Zn1 1_555 1_555
C2 N3 1_555 1_555
C3 N3 1_555 1_555
C7 C8 1_555 1_555
C9 O1 1_555 1_555
C11 O2 1_555 1_555
C15 C16 1_555 1_555
C17 N4 1_555 1_555
C18 N4 1_555 1_555
C23 C24 1_555 1_555
C25 O3 1_555 1_555
N1 N2 1_555 1_555
N5 N6 1_555 1_555

#END
