
#######################################################################
#
#                 Cambridge Crystallographic Data Centre
#                                CCDC 
#
#######################################################################
#
# If this CIF has been generated from an entry in the Cambridge 
# Structural Database, then it will include bibliographic, chemical, 
# crystal, experimental, refinement or atomic coordinate data resulting 
# from the CCDC's data processing and validation procedures.
#
#######################################################################

data_TISMEO
_symmetry_cell_setting           monoclinic
_symmetry_space_group_name_H-M   'C 2/m'
_symmetry_Int_Tables_number      12
_space_group_name_Hall           '-C 2y'
loop_
_symmetry_equiv_pos_site_id
_symmetry_equiv_pos_as_xyz
1 x,y,z
2 1/2+x,1/2+y,z
3 -x,y,-z
4 1/2-x,1/2+y,-z
5 -x,-y,-z
6 1/2-x,1/2-y,-z
7 x,-y,z
8 1/2+x,1/2-y,z
_cell_length_a                   22.106(2)
_cell_length_b                   4.1222(4)
_cell_length_c                   15.5059(15)
_cell_angle_alpha                90
_cell_angle_beta                 97.947(2)
_cell_angle_gamma                90
_cell_volume                     1399.41
loop_
_atom_site_label
_atom_site_type_symbol
_atom_site_fract_x
_atom_site_fract_y
_atom_site_fract_z
I1 I 0.26234(5) 0.0000 0.37475(8)
I2 I 0.09102(8) 0.0000 0.48049(12)
I3 I 0.09529(6) -1.0000 0.03099(9)
I4 I 0.26440(5) -0.5000 0.13044(8)
Cu1 Cu 0.20757(13) 0.0000 0.5173(2)
Cu2 Cu 0.14339(12) 0.0000 0.3352(2)
Cu3 Cu 0.14243(13) -0.5000 0.12612(18)
Cu4 Cu 0.21359(15) -1.0000 0.0355(2)
S1 S 0.11608(19) -0.5000 0.2636(3)
N1 N -0.0040(10) -0.5000 0.1792(15)
H1 H 0.0100 -0.5000 0.1302
C1 C 0.0361(8) -0.5000 0.2547(13)
C2 C 0.0121(10) -0.5000 0.3300(15)
H2 H 0.0382 -0.5000 0.3824
C3 C -0.0515(13) -0.5000 0.3317(19)
H3 H -0.0661 -0.5000 0.3852
C4 C -0.0890(11) -0.5000 0.2633(16)
H4 H -0.1308 -0.5000 0.2662
C5 C -0.0666(12) -0.5000 0.1795(19)
H5 H -0.0934 -0.5000 0.1277
I1E I 0.23766(5) -0.5000 0.62525(8)
I1E_2 I 0.23766(5) 0.5000 0.62525(8)
I3_2 I 0.09529(6) 0.0000 0.03099(9)
I4_2 I 0.26440(5) -1.5000 0.13044(8)
I4E I 0.23560(5) -1.0000 -0.13044(8)
Cu1E Cu 0.29243(13) -0.5000 0.4827(2)
Cu1E_2 Cu 0.29243(13) 0.5000 0.4827(2)
Cu2_2 Cu 0.14339(12) -1.0000 0.3352(2)
Cu3_2 Cu 0.14243(13) -1.5000 0.12612(18)
Cu4_2 Cu 0.21359(15) 0.0000 0.0355(2)
Cu4E Cu 0.28641(15) -0.5000 -0.0355(2)
S1_2 S 0.11608(19) 0.5000 0.2636(3)
loop_
_geom_bond_atom_site_label_1
_geom_bond_atom_site_label_2
_geom_bond_site_symmetry_1
_geom_bond_site_symmetry_2
I1 Cu1 1_555 1_555
I2 Cu1 1_555 1_555
I3 Cu3 1_555 1_555
I4 Cu3 1_555 1_555
Cu1 I1E 1_555 1_555
Cu2 I1 1_555 1_555
Cu3 S1 1_555 1_555
Cu4 I3 1_555 1_555
S1 Cu2 1_555 1_555
N1 H1 1_555 1_555
C1 S1 1_555 1_555
C2 C1 1_555 1_555
H2 C2 1_555 1_555
C3 C2 1_555 1_555
H3 C3 1_555 1_555
C4 C3 1_555 1_555
H4 C4 1_555 1_555
C5 N1 1_555 1_555
H5 C5 1_555 1_555
I1E Cu1E 1_555 1_555
I1E_2 Cu1 1_555 1_555
I3_2 Cu3 1_555 1_555
I4_2 Cu4 1_555 1_555
I4E Cu4 1_555 1_555
Cu1E I1 1_555 1_555
Cu1E_2 I1 1_555 1_555
Cu2_2 S1 1_555 1_555
Cu3_2 I3 1_555 1_555
Cu4_2 I4 1_555 1_555
Cu4E I4 1_555 1_555
S1_2 Cu2 1_555 1_555
I2 Cu2 1_555 1_555
I4 Cu4 1_555 1_555
N1 C1 1_555 1_555
C4 C5 1_555 1_555
I1E_2 Cu1E_2 1_555 1_555
I3_2 Cu4_2 1_555 1_555
I4_2 Cu3_2 1_555 1_555
I4E Cu4E 1_555 1_555

#END
