
#######################################################################
#
#                 Cambridge Crystallographic Data Centre
#                                CCDC 
#
#######################################################################
#
# If this CIF has been generated from an entry in the Cambridge 
# Structural Database, then it will include bibliographic, chemical, 
# crystal, experimental, refinement or atomic coordinate data resulting 
# from the CCDC's data processing and validation procedures.
#
#######################################################################

data_TISNUG
_symmetry_cell_setting           triclinic
_symmetry_space_group_name_H-M   'P -1'
_symmetry_Int_Tables_number      2
_space_group_name_Hall           '-P 1'
loop_
_symmetry_equiv_pos_site_id
_symmetry_equiv_pos_as_xyz
1 x,y,z
2 -x,-y,-z
_cell_length_a                   12.189(2)
_cell_length_b                   13.874(2)
_cell_length_c                   17.240(3)
_cell_angle_alpha                77.633(3)
_cell_angle_beta                 73.519(3)
_cell_angle_gamma                72.711(3)
_cell_volume                     2642.37
loop_
_atom_site_label
_atom_site_type_symbol
_atom_site_fract_x
_atom_site_fract_y
_atom_site_fract_z
C1 C 0.9278(3) 0.4734(3) 0.4266(2)
H1 H 0.9906 0.4359 0.4499
C2 C 0.8196(3) 0.5054(3) 0.4780(2)
H2 H 0.8107 0.4870 0.5342
C3 C 0.7230(3) 0.5649(3) 0.44757(19)
C4 C 0.7456(3) 0.5858(3) 0.3623(2)
H3 H 0.6851 0.6251 0.3376
C5 C 0.8559(3) 0.5493(3) 0.3145(2)
H4 H 0.8671 0.5644 0.2580
C6 C 0.6066(3) 0.6019(2) 0.4994(2)
C7 C 0.5936(3) 0.6193(3) 0.5773(2)
H5 H 0.6603 0.6056 0.5978
C8 C 0.4825(3) 0.6571(3) 0.6260(2)
H6 H 0.4759 0.6690 0.6784
C9 C 0.3823(3) 0.6771(3) 0.5972(2)
C10 C 0.3955(3) 0.6575(2) 0.5211(2)
H7 H 0.3284 0.6692 0.5015
C11 C 0.5059(3) 0.6206(3) 0.4710(2)
H8 H 0.5118 0.6086 0.4188
C12 C 0.2323(3) 0.6868(3) 0.7291(2)
C13 C 0.2771(3) 0.5860(3) 0.7615(2)
H9 H 0.3292 0.5404 0.7271
C14 C 0.2447(3) 0.5537(3) 0.8440(2)
H10 H 0.2761 0.4864 0.8643
C15 C 0.1669(3) 0.6186(3) 0.8977(2)
C16 C 0.1209(4) 0.7163(3) 0.8635(2)
H11 H 0.0666 0.7617 0.8972
C17 C 0.1522(4) 0.7489(3) 0.7812(2)
H12 H 0.1178 0.8153 0.7607
C18 C 0.1393(3) 0.5846(3) 0.9857(2)
C19 C 0.1383(3) 0.4854(3) 1.0205(2)
H13 H 0.1491 0.4372 0.9871
C20 C 0.1218(4) 0.4570(3) 1.1024(2)
H14 H 0.1257 0.3884 1.1219
C21 C 0.0970(4) 0.6148(4) 1.1249(2)
H15 H 0.0830 0.6612 1.1604
C22 C 0.1126(4) 0.6498(3) 1.0418(2)
H16 H 0.1048 0.7191 1.0237
C23 C 0.1907(3) 0.8004(3) 0.60363(19)
C24 C 0.0774(4) 0.7980(3) 0.6109(2)
H17 H 0.0492 0.7434 0.6428
C25 C 0.0034(3) 0.8777(3) 0.5707(3)
H18 H -0.0742 0.8747 0.5778
C26 C 0.0382(3) 0.9590(3) 0.52190(19)
C27 C 0.1552(3) 0.9590(3) 0.5142(2)
H19 H 0.1846 1.0125 0.4812
C28 C 0.2286(3) 0.8805(3) 0.5551(2)
H20 H 0.3060 0.8831 0.5489
C29 C 1.2793(4) 0.5542(3) 0.2706(3)
C30 C 1.3327(4) 0.6349(3) 0.2813(2)
C31 C 1.2660(3) 0.7085(3) 0.3339(2)
H21 H 1.1902 0.7056 0.3638
C32 C 1.3127(4) 0.7840(3) 0.3409(3)
H22 H 1.2683 0.8326 0.3749
C33 C 1.4249(4) 0.7876(3) 0.2975(3)
C34 C 1.4913(4) 0.7160(4) 0.2478(3)
H23 H 1.5675 0.7189 0.2189
C35 C 1.4462(4) 0.6397(3) 0.2401(2)
H24 H 1.4927 0.5908 0.2067
C36 C 1.4079(4) 0.9617(3) 0.3095(3)
C37 C 1.3336(4) 1.0085(4) 0.2569(3)
H25 H 1.3257 0.9722 0.2201
C38 C 1.2722(4) 1.1083(3) 0.2596(3)
H26 H 1.2224 1.1402 0.2245
C39 C 1.2843(3) 1.1614(3) 0.3142(3)
C40 C 1.3592(4) 1.1117(4) 0.3662(3)
H27 H 1.3669 1.1474 0.4035
C41 C 1.4220(4) 1.0120(4) 0.3644(3)
H28 H 1.4722 0.9800 0.3992
C42 C 1.2154(3) 1.2713(3) 0.3192(3)
N1 N 0.9484(2) 0.4927(2) 0.34542(17)
N2 N 0.2676(3) 0.7192(2) 0.64470(17)
N3 N 0.1011(3) 0.5171(3) 1.15608(18)
O1 O 1.1732(3) 0.5592(2) 0.30921(16)
O2 O 1.3388(3) 0.4939(2) 0.2229(2)
O3 O 1.1748(2) 1.31706(19) 0.25885(18)
O4 O 1.1974(2) 1.3094(2) 0.3817(2)
O5 O 1.4769(3) 0.8602(2) 0.3056(2)
Zn1 Zn 1.11730(4) 0.46137(3) 0.27361(2)
C1A C -0.9278(3) 1.5266(3) 0.5734(2)
H1A H -0.9906 1.5641 0.5501
C2A C -0.8196(3) 1.4946(3) 0.5220(2)
H2A H -0.8107 1.5130 0.4658
C3A C -0.7230(3) 1.4351(3) 0.55243(19)
C4A C -0.7456(3) 1.4142(3) 0.6377(2)
H3A H -0.6851 1.3749 0.6624
C5A C -0.8559(3) 1.4507(3) 0.6855(2)
H4A H -0.8671 1.4356 0.7420
C6A C -0.6066(3) 1.3981(2) 0.5006(2)
C7A C -0.5936(3) 1.3807(3) 0.4227(2)
H5A H -0.6603 1.3944 0.4022
C8A C -0.4825(3) 1.3429(3) 0.3740(2)
H6A H -0.4759 1.3310 0.3216
C9A C -0.3823(3) 1.3229(3) 0.4028(2)
C10A C -0.3955(3) 1.3425(2) 0.4789(2)
H7A H -0.3284 1.3308 0.4985
C11A C -0.5059(3) 1.3794(3) 0.5290(2)
H8A H -0.5118 1.3914 0.5812
C12A C -0.2323(3) 1.3132(3) 0.2709(2)
C13A C -0.2771(3) 1.4140(3) 0.2385(2)
H9A H -0.3292 1.4596 0.2729
C14A C -0.2447(3) 1.4463(3) 0.1560(2)
H10A H -0.2761 1.5136 0.1357
C15A C -0.1669(3) 1.3814(3) 0.1023(2)
C16A C -0.1209(4) 1.2837(3) 0.1365(2)
H11A H -0.0666 1.2383 0.1028
C17A C -0.1522(4) 1.2511(3) 0.2188(2)
H12A H -0.1178 1.1847 0.2393
C18A C -0.1393(3) 1.4154(3) 0.0143(2)
C19A C -0.1383(3) 1.5146(3) -0.0205(2)
H13A H -0.1491 1.5628 0.0129
C20A C -0.1218(4) 1.5430(3) -0.1024(2)
H14A H -0.1257 1.6116 -0.1219
C21A C -0.0970(4) 1.3852(4) -0.1249(2)
H15A H -0.0830 1.3388 -0.1604
C22A C -0.1126(4) 1.3502(3) -0.0418(2)
H16A H -0.1048 1.2809 -0.0237
C23A C -0.1907(3) 1.1996(3) 0.39637(19)
C24A C -0.0774(4) 1.2020(3) 0.3891(2)
H17A H -0.0492 1.2566 0.3572
C25A C -0.0034(3) 1.1223(3) 0.4293(3)
H18A H 0.0742 1.1253 0.4222
C26A C -0.0382(3) 1.0410(3) 0.47810(19)
C27A C -0.1552(3) 1.0410(3) 0.4858(2)
H19A H -0.1846 0.9875 0.5188
C28A C -0.2286(3) 1.1195(3) 0.4449(2)
H20A H -0.3060 1.1169 0.4511
N1A N -0.9484(2) 1.5073(2) 0.65458(17)
N2A N -0.2676(3) 1.2808(2) 0.35530(17)
N3A N -0.1011(3) 1.4829(3) -0.15608(18)
C29A C -1.2793(4) 1.4458(3) 0.7294(3)
C30A C -1.3327(4) 1.3651(3) 0.7187(2)
C31A C -1.2660(3) 1.2915(3) 0.6661(2)
H21A H -1.1902 1.2944 0.6362
C32A C -1.3127(4) 1.2160(3) 0.6591(3)
H22A H -1.2683 1.1674 0.6251
C33A C -1.4249(4) 1.2124(3) 0.7025(3)
C34A C -1.4913(4) 1.2840(4) 0.7522(3)
H23A H -1.5675 1.2811 0.7811
C35A C -1.4462(4) 1.3603(3) 0.7599(2)
H24A H -1.4927 1.4092 0.7933
C36A C -1.4079(4) 1.0383(3) 0.6905(3)
C37A C -1.3336(4) 0.9915(4) 0.7431(3)
H25A H -1.3257 1.0278 0.7799
C38A C -1.2722(4) 0.8917(3) 0.7404(3)
H26A H -1.2224 0.8598 0.7755
C39A C -1.2843(3) 0.8386(3) 0.6858(3)
C40A C -1.3592(4) 0.8883(4) 0.6338(3)
H27A H -1.3669 0.8526 0.5965
C41A C -1.4220(4) 0.9880(4) 0.6356(3)
H28A H -1.4722 1.0200 0.6008
C42A C -1.2154(3) 0.7287(3) 0.6808(3)
O1A O -1.1732(3) 1.4408(2) 0.69079(16)
O2A O -1.3388(3) 1.5061(2) 0.7771(2)
O3A O -1.1748(2) 0.68294(19) 0.74115(18)
O4A O -1.1974(2) 0.6906(2) 0.6183(2)
O5A O -1.4769(3) 1.1398(2) 0.6944(2)
Zn1A Zn -1.11730(4) 1.53863(3) 0.72639(2)
N3_2 N 1.1011(3) 0.5171(3) 0.15608(18)
N3A_2 N -1.1011(3) 1.4829(3) 0.84392(18)
O3_2 O 1.1748(2) 0.31706(19) 0.25885(18)
O3A_2 O -1.1748(2) 1.68294(19) 0.74115(18)
Zn1_2 Zn 0.11730(4) 0.46137(3) 1.27361(2)
Zn1_3 Zn 1.11730(4) 1.46137(3) 0.27361(2)
Zn1A_2 Zn -1.11730(4) 0.53863(3) 0.72639(2)
Zn1A_3 Zn -0.11730(4) 1.53863(3) -0.27361(2)
loop_
_geom_bond_atom_site_label_1
_geom_bond_atom_site_label_2
_geom_bond_site_symmetry_1
_geom_bond_site_symmetry_2
C1 H1 1_555 1_555
C2 C1 1_555 1_555
H2 C2 1_555 1_555
C3 C2 1_555 1_555
C4 C3 1_555 1_555
H3 C4 1_555 1_555
C5 C4 1_555 1_555
H4 C5 1_555 1_555
C6 C3 1_555 1_555
C7 C6 1_555 1_555
H5 C7 1_555 1_555
C8 C7 1_555 1_555
H6 C8 1_555 1_555
C9 C8 1_555 1_555
C10 C9 1_555 1_555
H7 C10 1_555 1_555
C11 C6 1_555 1_555
H8 C11 1_555 1_555
C12 C13 1_555 1_555
C13 H9 1_555 1_555
C14 C13 1_555 1_555
H10 C14 1_555 1_555
C15 C14 1_555 1_555
C16 C15 1_555 1_555
H11 C16 1_555 1_555
C17 C12 1_555 1_555
H12 C17 1_555 1_555
C18 C15 1_555 1_555
C19 C18 1_555 1_555
H13 C19 1_555 1_555
C20 C19 1_555 1_555
H14 C20 1_555 1_555
C21 H15 1_555 1_555
C22 C18 1_555 1_555
H16 C22 1_555 1_555
C23 C24 1_555 1_555
C24 H17 1_555 1_555
C25 C24 1_555 1_555
H18 C25 1_555 1_555
C26 C25 1_555 1_555
C27 C26 1_555 1_555
H19 C27 1_555 1_555
C28 C23 1_555 1_555
H20 C28 1_555 1_555
C29 C30 1_555 1_555
C30 C31 1_555 1_555
C31 H21 1_555 1_555
C32 C31 1_555 1_555
H22 C32 1_555 1_555
C33 C32 1_555 1_555
C34 C33 1_555 1_555
H23 C34 1_555 1_555
C35 C30 1_555 1_555
H24 C35 1_555 1_555
C36 C37 1_555 1_555
C37 H25 1_555 1_555
C38 C37 1_555 1_555
H26 C38 1_555 1_555
C39 C38 1_555 1_555
C40 C39 1_555 1_555
H27 C40 1_555 1_555
C41 C36 1_555 1_555
H28 C41 1_555 1_555
C42 C39 1_555 1_555
N1 C1 1_555 1_555
N2 C9 1_555 1_555
N3 C20 1_555 1_555
O1 C29 1_555 1_555
O2 C29 1_555 1_555
O3 C42 1_555 1_555
O4 C42 1_555 1_555
O5 C33 1_555 1_555
Zn1 N1 1_555 1_555
C1A H1A 1_555 1_555
C2A C1A 1_555 1_555
H2A C2A 1_555 1_555
C3A C2A 1_555 1_555
C4A C3A 1_555 1_555
H3A C4A 1_555 1_555
C5A C4A 1_555 1_555
H4A C5A 1_555 1_555
C6A C3A 1_555 1_555
C7A C6A 1_555 1_555
H5A C7A 1_555 1_555
C8A C7A 1_555 1_555
H6A C8A 1_555 1_555
C9A C8A 1_555 1_555
C10A C9A 1_555 1_555
H7A C10A 1_555 1_555
C11A C6A 1_555 1_555
H8A C11A 1_555 1_555
C12A C13A 1_555 1_555
C13A H9A 1_555 1_555
C14A C13A 1_555 1_555
H10A C14A 1_555 1_555
C15A C14A 1_555 1_555
C16A C15A 1_555 1_555
H11A C16A 1_555 1_555
C17A C12A 1_555 1_555
H12A C17A 1_555 1_555
C18A C15A 1_555 1_555
C19A C18A 1_555 1_555
H13A C19A 1_555 1_555
C20A C19A 1_555 1_555
H14A C20A 1_555 1_555
C21A H15A 1_555 1_555
C22A C18A 1_555 1_555
H16A C22A 1_555 1_555
C23A C24A 1_555 1_555
C24A H17A 1_555 1_555
C25A C24A 1_555 1_555
H18A C25A 1_555 1_555
C26A C26 1_555 1_555
C27A C26A 1_555 1_555
H19A C27A 1_555 1_555
C28A C23A 1_555 1_555
H20A C28A 1_555 1_555
N1A C1A 1_555 1_555
N2A C9A 1_555 1_555
N3A C20A 1_555 1_555
C29A C30A 1_555 1_555
C30A C31A 1_555 1_555
C31A H21A 1_555 1_555
C32A C31A 1_555 1_555
H22A C32A 1_555 1_555
C33A C32A 1_555 1_555
C34A C33A 1_555 1_555
H23A C34A 1_555 1_555
C35A C30A 1_555 1_555
H24A C35A 1_555 1_555
C36A C37A 1_555 1_555
C37A H25A 1_555 1_555
C38A C37A 1_555 1_555
H26A C38A 1_555 1_555
C39A C38A 1_555 1_555
C40A C39A 1_555 1_555
H27A C40A 1_555 1_555
C41A C36A 1_555 1_555
H28A C41A 1_555 1_555
C42A C39A 1_555 1_555
O1A C29A 1_555 1_555
O2A C29A 1_555 1_555
O3A C42A 1_555 1_555
O4A C42A 1_555 1_555
O5A C33A 1_555 1_555
Zn1A N1A 1_555 1_555
N3_2 Zn1 1_555 1_555
N3A_2 Zn1A 1_555 1_555
O3_2 Zn1 1_555 1_555
O3A_2 Zn1A 1_555 1_555
Zn1_2 N3 1_555 1_555
Zn1_3 O3 1_555 1_555
Zn1A_2 O3A 1_555 1_555
Zn1A_3 N3A 1_555 1_555
C5 N1 1_555 1_555
C10 C11 1_555 1_555
C12 N2 1_555 1_555
C16 C17 1_555 1_555
C21 C22 1_555 1_555
C21 N3 1_555 1_555
C23 N2 1_555 1_555
C27 C28 1_555 1_555
C34 C35 1_555 1_555
C36 O5 1_555 1_555
C40 C41 1_555 1_555
O1 Zn1 1_555 1_555
C5A N1A 1_555 1_555
C10A C11A 1_555 1_555
C12A N2A 1_555 1_555
C16A C17A 1_555 1_555
C21A C22A 1_555 1_555
C21A N3A 1_555 1_555
C23A N2A 1_555 1_555
C25A C26A 1_555 1_555
C27A C28A 1_555 1_555
C34A C35A 1_555 1_555
C36A O5A 1_555 1_555
C40A C41A 1_555 1_555
O1A Zn1A 1_555 1_555

#END
