
#######################################################################
#
#                 Cambridge Crystallographic Data Centre
#                                CCDC 
#
#######################################################################
#
# If this CIF has been generated from an entry in the Cambridge 
# Structural Database, then it will include bibliographic, chemical, 
# crystal, experimental, refinement or atomic coordinate data resulting 
# from the CCDC's data processing and validation procedures.
#
#######################################################################

data_TISNIU
_symmetry_cell_setting           monoclinic
_symmetry_space_group_name_H-M   'P 21/c'
_symmetry_Int_Tables_number      14
_space_group_name_Hall           '-P 2ybc'
loop_
_symmetry_equiv_pos_site_id
_symmetry_equiv_pos_as_xyz
1 x,y,z
2 -x,1/2+y,1/2-z
3 -x,-y,-z
4 x,1/2-y,1/2+z
_cell_length_a                   30.739(5)
_cell_length_b                   11.1193(17)
_cell_length_c                   16.729(3)
_cell_angle_alpha                90
_cell_angle_beta                 91.040(2)
_cell_angle_gamma                90
_cell_volume                     5716.97
loop_
_atom_site_label
_atom_site_type_symbol
_atom_site_fract_x
_atom_site_fract_y
_atom_site_fract_z
C1 C 0.72868(12) 1.1058(3) 1.0974(2)
C2 C 0.73583(12) 1.1346(3) 1.1766(2)
H1 H 0.7619 1.1130 1.2018
C3 C 0.70420(11) 1.1961(3) 1.2193(2)
H2 H 0.7088 1.2109 1.2735
C4 C 0.66662(12) 1.2350(3) 1.1831(2)
C5 C 0.66010(12) 1.2080(3) 1.1020(2)
H3 H 0.6345 1.2325 1.0763
C6 C 0.69050(12) 1.1467(3) 1.0599(2)
H4 H 0.6858 1.1320 1.0057
C7 C 0.61307(11) 1.4222(3) 1.3408(2)
H5 H 0.6218 1.4650 1.3862
C8 C 0.64472(12) 1.3645(3) 1.2974(2)
H6 H 0.6737 1.3687 1.3140
C9 C 0.63328(11) 1.3002(3) 1.2287(2)
C10 C 0.58963(12) 1.2980(3) 1.2083(2)
H7 H 0.5801 1.2564 1.1631
C11 C 0.56027(12) 1.3572(3) 1.2548(2)
H8 H 0.5310 1.3544 1.2399
C12 C 0.78677(11) 0.9542(3) 1.0949(2)
C13 C 0.83087(12) 0.9435(3) 1.0731(2)
H9 H 0.8423 0.9961 1.0356
C14 C 0.85707(12) 0.8558(3) 1.1068(2)
H10 H 0.8862 0.8498 1.0930
C15 C 0.83933(11) 0.7756(3) 1.1622(2)
C16 C 0.79662(12) 0.7883(3) 1.1841(2)
H11 H 0.7854 0.7386 1.2235
C17 C 0.77033(12) 0.8736(3) 1.1484(2)
H12 H 0.7410 0.8766 1.1608
C18 C 0.92526(13) 0.5296(3) 1.1833(3)
H13 H 0.9488 0.5016 1.1546
C19 C 0.90177(12) 0.6296(3) 1.1555(2)
H14 H 0.9096 0.6650 1.1075
C20 C 0.86778(11) 0.6767(3) 1.1967(2)
C21 C 0.85915(12) 0.6211(3) 1.2688(2)
H15 H 0.8370 0.6501 1.3006
C22 C 0.88317(12) 0.5234(3) 1.2935(2)
H16 H 0.8773 0.4901 1.3431
C23 C 0.75916(12) 1.0391(3) 0.9698(2)
C24 C 0.77613(12) 1.1307(3) 0.9257(2)
H17 H 0.7887 1.1970 0.9510
C25 C 0.77451(12) 1.1239(3) 0.8420(2)
H18 H 0.7859 1.1868 0.8124
C26 C 0.75692(12) 1.0292(3) 0.8034(2)
C27 C 0.73865(12) 0.9371(3) 0.8486(2)
H19 H 0.7261 0.8713 0.8228
C28 C 0.73900(12) 0.9421(3) 0.9314(2)
H20 H 0.7260 0.8816 0.9610
C29 C 0.75471(12) 1.0202(3) 0.7131(2)
C30 C 0.78821(13) 1.0719(3) 0.6696(2)
H21 H 0.8103 1.1142 0.6959
C31 C 0.78861(13) 1.0599(4) 0.5853(2)
H22 H 0.8111 1.0935 0.5562
C32 C 0.75583(13) 0.9988(3) 0.5471(2)
C33 C 0.72121(13) 0.9508(3) 0.5925(2)
H23 H 0.6982 0.9110 0.5671
C34 C 0.72209(12) 0.9637(3) 0.6745(2)
H24 H 0.6994 0.9322 0.7039
C35 C 0.71722(12) 0.9848(3) 0.4158(2)
C36 C 0.68437(12) 1.0649(3) 0.4322(2)
H25 H 0.6877 1.1188 0.4744
C37 C 0.64693(12) 1.0655(3) 0.3869(2)
H26 H 0.6246 1.1178 0.4007
C38 C 0.64095(11) 0.9903(3) 0.3205(2)
C39 C 0.67531(13) 0.9093(3) 0.3041(2)
H27 H 0.6727 0.8557 0.2616
C40 C 0.71182(12) 0.9098(3) 0.3502(2)
H28 H 0.7343 0.8576 0.3374
C41 C 0.52620(12) 1.0423(3) 0.2456(2)
H29 H 0.5005 1.0743 0.2650
C42 C 0.56213(11) 1.0361(3) 0.2960(2)
H30 H 0.5597 1.0611 0.3488
C43 C 0.60160(11) 0.9936(3) 0.2699(2)
C44 C 0.60110(12) 0.9565(3) 0.1904(2)
H31 H 0.6267 0.9277 0.1686
C45 C 0.56509(12) 0.9606(3) 0.1440(2)
H32 H 0.5663 0.9325 0.0918
C46 C 0.79482(12) 0.9524(3) 0.4290(2)
C47 C 0.81055(13) 1.0152(3) 0.3647(2)
H33 H 0.7941 1.0770 0.3422
C48 C 0.84996(13) 0.9876(3) 0.3337(3)
H34 H 0.8595 1.0306 0.2896
C49 C 0.87651(11) 0.8979(3) 0.3653(2)
C50 C 0.85993(13) 0.8309(3) 0.4281(2)
H35 H 0.8754 0.7648 0.4474
C51 C 0.82189(12) 0.8600(3) 0.4614(2)
H36 H 0.8130 0.8188 0.5067
C52 C 0.97696(13) 0.8993(3) 0.2347(2)
H37 H 0.9865 0.9398 0.1897
C53 C 0.93694(12) 0.9236(3) 0.2647(2)
H38 H 0.9199 0.9808 0.2382
C54 C 0.91967(12) 0.8690(3) 0.3319(2)
C55 C 0.94789(12) 0.7814(4) 0.3618(3)
H39 H 0.9393 0.7339 0.4045
C56 C 0.98776(13) 0.7638(4) 0.3302(3)
H40 H 1.0059 0.7074 0.3549
C57 C 0.57982(15) 1.7376(4) 1.4133(3)
H41 H 0.5994 1.7784 1.4466
C58 C 0.52987(12) 1.2888(4) 1.5088(2)
H42 H 0.5134 1.2480 1.5462
C59 C 0.95069(15) 0.3066(4) 1.4438(3)
H43 H 0.9633 0.2678 1.4877
C60 C 0.87698(15) 0.2018(4) 1.1579(3)
H44 H 0.8684 0.1811 1.1061
N1 N 0.76014(10) 1.0418(3) 1.05534(18)
N2 N 0.57192(9) 1.4200(3) 1.32196(18)
N3 N 0.91402(10) 0.4742(3) 1.2508(2)
N4 N 0.75631(10) 0.9840(3) 0.4627(2)
N5 N 0.52689(10) 1.0046(3) 0.1714(2)
N6 N 1.00218(10) 0.8181(3) 0.26991(19)
O1 O 0.56865(9) 1.6388(2) 1.43631(16)
O2 O 0.56863(10) 1.7907(3) 1.3517(2)
O3 O 0.52225(9) 1.3944(2) 1.49575(15)
O4 O 0.93457(9) 0.2466(3) 1.38972(19)
O5 O 0.95068(10) 0.4191(3) 1.44137(19)
O6 O 0.91551(9) 0.2071(3) 1.17511(19)
O7 O 0.84880(9) 0.2235(3) 1.20855(17)
O8 O 0.55865(9) 1.2346(3) 1.47379(17)
Zn1 Zn 0.527627(13) 1.50375(4) 1.40016(3)
Zn2 Zn 0.937369(14) 0.30371(4) 1.27051(3)
N5A N 0.47311(10) 1.5046(3) 1.3286(2)
N6A N 0.99782(10) 0.3181(3) 1.23009(19)
Zn1A Zn 0.472373(13) 1.00375(4) 0.09984(3)
Zn2A Zn 1.062631(14) 0.80371(4) 0.22949(3)
O9 O 0.8800(3) 0.1346(7) 0.5006(5)
H45 H 0.8862 0.0658 0.4819
H46 H 0.8836 0.1878 0.4648
O10 O 0.3851(2) 0.1747(7) 0.3892(5)
H47 H 0.4126 0.1724 0.3955
H48 H 0.3740 0.1114 0.4086
O11 O 0.3312(2) 0.1695(7) 0.9704(5)
H49 H 0.3358 0.1702 0.9204
H50 H 0.3419 0.1058 0.9909
O12 O 1.0000 0.0000 0.5000
H51 H 0.9913 -0.0114 0.5473
H51B H 1.0087 0.0114 0.4527
O13 O 0.5000 1.0000 0.5000
H52 H 0.5099 0.9318 0.5142
H52B H 0.4901 1.0682 0.4858
H53? H 0.4725 1.0007 0.5048
H54? H 0.9906 0.0673 0.4829
loop_
_geom_bond_atom_site_label_1
_geom_bond_atom_site_label_2
_geom_bond_site_symmetry_1
_geom_bond_site_symmetry_2
C1 C2 1_555 1_555
C2 H1 1_555 1_555
C3 C2 1_555 1_555
H2 C3 1_555 1_555
C4 C3 1_555 1_555
C5 C4 1_555 1_555
H3 C5 1_555 1_555
C6 C1 1_555 1_555
H4 C6 1_555 1_555
C7 H5 1_555 1_555
C8 C7 1_555 1_555
H6 C8 1_555 1_555
C9 C4 1_555 1_555
C10 C9 1_555 1_555
H7 C10 1_555 1_555
C11 C10 1_555 1_555
H8 C11 1_555 1_555
C12 C13 1_555 1_555
C13 H9 1_555 1_555
C14 C13 1_555 1_555
H10 C14 1_555 1_555
C15 C14 1_555 1_555
C16 C15 1_555 1_555
H11 C16 1_555 1_555
C17 C12 1_555 1_555
H12 C17 1_555 1_555
C18 H13 1_555 1_555
C19 C18 1_555 1_555
H14 C19 1_555 1_555
C20 C15 1_555 1_555
C21 C20 1_555 1_555
H15 C21 1_555 1_555
C22 C21 1_555 1_555
H16 C22 1_555 1_555
C23 C24 1_555 1_555
C24 H17 1_555 1_555
C25 C24 1_555 1_555
H18 C25 1_555 1_555
C26 C25 1_555 1_555
C27 C26 1_555 1_555
H19 C27 1_555 1_555
C28 C23 1_555 1_555
H20 C28 1_555 1_555
C29 C26 1_555 1_555
C30 C29 1_555 1_555
H21 C30 1_555 1_555
C31 C30 1_555 1_555
H22 C31 1_555 1_555
C32 C31 1_555 1_555
C33 C32 1_555 1_555
H23 C33 1_555 1_555
C34 C29 1_555 1_555
H24 C34 1_555 1_555
C35 C36 1_555 1_555
C36 H25 1_555 1_555
C37 C36 1_555 1_555
H26 C37 1_555 1_555
C38 C37 1_555 1_555
C39 C38 1_555 1_555
H27 C39 1_555 1_555
C40 C35 1_555 1_555
H28 C40 1_555 1_555
C41 H29 1_555 1_555
C42 C41 1_555 1_555
H30 C42 1_555 1_555
C43 C38 1_555 1_555
C44 C43 1_555 1_555
H31 C44 1_555 1_555
C45 C44 1_555 1_555
H32 C45 1_555 1_555
C46 C47 1_555 1_555
C47 H33 1_555 1_555
C48 C47 1_555 1_555
H34 C48 1_555 1_555
C49 C48 1_555 1_555
C50 C49 1_555 1_555
H35 C50 1_555 1_555
C51 C46 1_555 1_555
H36 C51 1_555 1_555
C52 H37 1_555 1_555
C53 C52 1_555 1_555
H38 C53 1_555 1_555
C54 C49 1_555 1_555
C55 C54 1_555 1_555
H39 C55 1_555 1_555
C56 C55 1_555 1_555
H40 C56 1_555 1_555
C57 H41 1_555 1_555
C58 H42 1_555 1_555
C59 H43 1_555 1_555
C60 H44 1_555 1_555
N1 C1 1_555 1_555
N2 C7 1_555 1_555
N3 C18 1_555 1_555
N4 C32 1_555 1_555
N5 C41 1_555 1_555
N6 C52 1_555 1_555
O1 C57 1_555 1_555
O2 C57 1_555 1_555
O3 C58 1_555 1_555
O4 C59 1_555 1_555
O5 C59 1_555 1_555
O6 C60 1_555 1_555
O7 C60 1_555 1_555
O8 C58 1_555 1_555
Zn1 N2 1_555 1_555
Zn2 N3 1_555 1_555
O9 H45 1_555 1_555
H46 O9 1_555 1_555
O10 H47 1_555 1_555
H48 O10 1_555 1_555
O11 H49 1_555 1_555
H50 O11 1_555 1_555
O12 H51 1_555 1_555
O13 H52 1_555 1_555
N5A Zn1 1_555 1_555
N6A Zn2 1_555 1_555
Zn1A N5 1_555 1_555
Zn2A N6 1_555 1_555
H51B O12 1_555 1_555
H52B O13 1_555 1_555
C5 C6 1_555 1_555
C8 C9 1_555 1_555
C11 N2 1_555 1_555
C12 N1 1_555 1_555
C16 C17 1_555 1_555
C19 C20 1_555 1_555
C22 N3 1_555 1_555
C23 N1 1_555 1_555
C27 C28 1_555 1_555
C33 C34 1_555 1_555
C35 N4 1_555 1_555
C39 C40 1_555 1_555
C42 C43 1_555 1_555
C45 N5 1_555 1_555
C46 N4 1_555 1_555
C50 C51 1_555 1_555
C53 C54 1_555 1_555
C56 N6 1_555 1_555
O1 Zn1 1_555 1_555
O3 Zn1 1_555 1_555
O4 Zn2 1_555 1_555
O6 Zn2 1_555 1_555

#END
