
#######################################################################
#
#                 Cambridge Crystallographic Data Centre
#                                CCDC 
#
#######################################################################
#
# If this CIF has been generated from an entry in the Cambridge 
# Structural Database, then it will include bibliographic, chemical, 
# crystal, experimental, refinement or atomic coordinate data resulting 
# from the CCDC's data processing and validation procedures.
#
#######################################################################

data_TISNOA
_symmetry_cell_setting           triclinic
_symmetry_space_group_name_H-M   'P -1'
_symmetry_Int_Tables_number      2
_space_group_name_Hall           '-P 1'
loop_
_symmetry_equiv_pos_site_id
_symmetry_equiv_pos_as_xyz
1 x,y,z
2 -x,-y,-z
_cell_length_a                   11.4023(10)
_cell_length_b                   13.7749(13)
_cell_length_c                   15.7837(14)
_cell_angle_alpha                105.578(2)
_cell_angle_beta                 105.825(2)
_cell_angle_gamma                92.342(2)
_cell_volume                     2280.02
loop_
_atom_site_label
_atom_site_type_symbol
_atom_site_fract_x
_atom_site_fract_y
_atom_site_fract_z
C1 C 0.2541(4) 0.4952(3) 0.4706(3)
H1 H 0.3086 0.4611 0.5041
C2 C 0.1937(4) 0.5654(3) 0.5171(3)
H2 H 0.2074 0.5770 0.5800
C3 C 0.1137(3) 0.6181(3) 0.4708(2)
C4 C 0.0973(3) 0.5946(3) 0.3776(2)
H3 H 0.0436 0.6281 0.3428
C5 C 0.1585(3) 0.5229(3) 0.3356(2)
H4 H 0.1433 0.5079 0.2722
C6 C 0.0491(3) 0.6964(3) 0.5185(2)
C7 C 0.0009(4) 0.6819(3) 0.5869(2)
H5 H 0.0100 0.6220 0.6032
C8 C -0.0596(3) 0.7534(3) 0.6306(2)
H6 H -0.0922 0.7412 0.6753
C9 C -0.0723(3) 0.8438(2) 0.6086(2)
C10 C -0.0237(3) 0.8603(3) 0.5414(2)
H7 H -0.0303 0.9213 0.5267
C11 C 0.0343(3) 0.7867(3) 0.4963(2)
H8 H 0.0642 0.7979 0.4501
C12 C -0.2029(3) 0.9818(2) 0.6132(2)
C13 C -0.2052(3) 1.0831(3) 0.6584(2)
H9 H -0.1582 1.1105 0.7194
C14 C -0.2765(3) 1.1432(3) 0.6137(2)
H10 H -0.2768 1.2106 0.6454
C15 C -0.3476(3) 1.1055(2) 0.5228(2)
C16 C -0.3446(3) 1.0041(3) 0.4783(2)
H11 H -0.3909 0.9768 0.4170
C17 C -0.2752(3) 0.9434(3) 0.5224(2)
H12 H -0.2765 0.8755 0.4911
C18 C -0.4211(3) 1.1707(2) 0.4750(2)
C19 C -0.4427(4) 1.2648(3) 0.5210(3)
H13 H -0.4111 1.2884 0.5847
C20 C -0.5100(4) 1.3243(3) 0.4744(3)
H14 H -0.5189 1.3885 0.5086
C21 C -0.5414(5) 1.2085(3) 0.3412(3)
H15 H -0.5763 1.1866 0.2777
C22 C -0.4717(5) 1.1450(3) 0.3814(3)
H16 H -0.4585 1.0838 0.3446
C23 C -0.0928(3) 0.9424(2) 0.7555(2)
C24 C 0.0262(3) 0.9399(2) 0.8035(2)
H17 H 0.0839 0.9238 0.7718
C25 C 0.0621(3) 0.9611(3) 0.8981(2)
H18 H 0.1434 0.9577 0.9287
C26 C -0.0200(3) 0.9871(2) 0.9486(2)
C27 C -0.1390(3) 0.9895(3) 0.8996(2)
H19 H -0.1961 1.0076 0.9315
C28 C -0.1771(3) 0.9662(3) 0.8049(2)
H20 H -0.2591 0.9665 0.7740
C29 C 0.1979(4) 0.2962(3) 0.1329(3)
C30 C 0.1970(3) 0.2455(3) 0.0350(2)
C31 C 0.1070(3) 0.2584(3) -0.0377(2)
H21 H 0.0420 0.2935 -0.0270
C32 C 0.1125(4) 0.2196(3) -0.1267(2)
H22 H 0.0522 0.2296 -0.1757
C33 C 0.2064(3) 0.1668(3) -0.1425(2)
C34 C 0.2962(4) 0.1494(3) -0.0712(2)
H23 H 0.3589 0.1116 -0.0825
C35 C 0.2900(4) 0.1902(3) 0.0179(2)
H24 H 0.3500 0.1800 0.0669
C36 C 0.3104(4) 0.2187(3) -0.2658(2)
C37 C 0.2570(4) 0.2875(3) -0.3070(3)
H25 H 0.1722 0.2829 -0.3307
C38 C 0.3364(5) 0.3671(4) -0.3123(3)
H26 H 0.3038 0.4148 -0.3412
C39 C 0.4608(4) 0.3729(3) -0.2747(3)
C40 C 0.5085(4) 0.3042(4) -0.2338(3)
H27 H 0.5929 0.3101 -0.2071
C41 C 0.4338(4) 0.2249(4) -0.2309(3)
H28 H 0.4681 0.1756 -0.2051
C42 C 0.5492(5) 0.4593(4) -0.2795(3)
O1 O 0.2944(3) 0.2920(2) 0.19388(17)
O2 O 0.1124(3) 0.3410(3) 0.1484(2)
O3 O 0.0964(3) 0.1116(2) -0.31926(16)
O4 O 0.2821(3) 0.0327(2) -0.2611(2)
O5 O 0.5057(3) 0.5088(2) -0.3299(2)
O6 O 0.6567(3) 0.4687(3) -0.2347(3)
N1 N -0.1289(2) 0.9196(2) 0.65814(17)
N2 N 0.2390(3) 0.4733(2) 0.38054(19)
N3 N -0.5626(2) 1.2983(2) 0.38608(17)
S1 S 0.21600(10) 0.11910(8) -0.25612(6)
Zn1 Zn 0.34795(3) 0.39021(3) 0.31315(2)
C1A C -0.2541(4) 1.5048(3) 1.5294(3)
H1A H -0.3086 1.5389 1.4959
C2A C -0.1937(4) 1.4346(3) 1.4829(3)
H2A H -0.2074 1.4230 1.4200
C3A C -0.1137(3) 1.3819(3) 1.5292(2)
C4A C -0.0973(3) 1.4054(3) 1.6224(2)
H3A H -0.0436 1.3719 1.6572
C5A C -0.1585(3) 1.4771(3) 1.6644(2)
H4A H -0.1433 1.4921 1.7278
C6A C -0.0491(3) 1.3036(3) 1.4815(2)
C7A C -0.0009(4) 1.3181(3) 1.4131(2)
H5A H -0.0100 1.3780 1.3968
C8A C 0.0596(3) 1.2466(3) 1.3694(2)
H6A H 0.0922 1.2588 1.3247
C9A C 0.0723(3) 1.1562(2) 1.3914(2)
C10A C 0.0237(3) 1.1397(3) 1.4586(2)
H7A H 0.0303 1.0787 1.4733
C11A C -0.0343(3) 1.2133(3) 1.5037(2)
H8A H -0.0642 1.2021 1.5499
C12A C 0.2029(3) 1.0182(2) 1.3868(2)
C13A C 0.2052(3) 0.9169(3) 1.3416(2)
H9A H 0.1582 0.8895 1.2806
C14A C 0.2765(3) 0.8568(3) 1.3863(2)
H10A H 0.2768 0.7894 1.3546
C15A C 0.3476(3) 0.8945(2) 1.4772(2)
C16A C 0.3446(3) 0.9959(3) 1.5217(2)
H11A H 0.3909 1.0232 1.5830
C17A C 0.2752(3) 1.0566(3) 1.4776(2)
H12A H 0.2765 1.1245 1.5089
C18A C 0.4211(3) 0.8293(2) 1.5250(2)
C19A C 0.4427(4) 0.7352(3) 1.4790(3)
H13A H 0.4111 0.7116 1.4153
C20A C 0.5100(4) 0.6757(3) 1.5256(3)
H14A H 0.5189 0.6115 1.4914
C21A C 0.5414(5) 0.7915(3) 1.6588(3)
H15A H 0.5763 0.8134 1.7223
C22A C 0.4717(5) 0.8550(3) 1.6186(3)
H16A H 0.4585 0.9162 1.6554
C23A C 0.0928(3) 1.0576(2) 1.2445(2)
C24A C -0.0262(3) 1.0601(2) 1.1965(2)
H17A H -0.0839 1.0762 1.2282
C25A C -0.0621(3) 1.0389(3) 1.1019(2)
H18A H -0.1434 1.0423 1.0713
C26A C 0.0200(3) 1.0129(2) 1.0514(2)
C27A C 0.1390(3) 1.0105(3) 1.1004(2)
H19A H 0.1961 0.9924 1.0685
C28A C 0.1771(3) 1.0338(3) 1.1951(2)
H20A H 0.2591 1.0335 1.2260
N1A N 0.1289(2) 1.0804(2) 1.34186(17)
N2A N -0.2390(3) 1.5267(2) 1.61946(19)
N3A N 0.5626(2) 0.7017(2) 1.61392(17)
C29A C -0.1979(4) 1.7038(3) 1.8671(3)
C30A C -0.1970(3) 1.7545(3) 1.9650(2)
C31A C -0.1070(3) 1.7416(3) 2.0377(2)
H21A H -0.0420 1.7065 2.0270
C32A C -0.1125(4) 1.7804(3) 2.1267(2)
H22A H -0.0522 1.7704 2.1757
C33A C -0.2064(3) 1.8332(3) 2.1425(2)
C34A C -0.2962(4) 1.8506(3) 2.0712(2)
H23A H -0.3589 1.8884 2.0825
C35A C -0.2900(4) 1.8098(3) 1.9821(2)
H24A H -0.3500 1.8200 1.9331
C36A C -0.3104(4) 1.7813(3) 2.2658(2)
C37A C -0.2570(4) 1.7125(3) 2.3070(3)
H25A H -0.1722 1.7171 2.3307
C38A C -0.3364(5) 1.6329(4) 2.3123(3)
H26A H -0.3038 1.5852 2.3412
C39A C -0.4608(4) 1.6271(3) 2.2747(3)
C40A C -0.5085(4) 1.6958(4) 2.2338(3)
H27A H -0.5929 1.6899 2.2071
C41A C -0.4338(4) 1.7751(4) 2.2309(3)
H28A H -0.4681 1.8244 2.2051
C42A C -0.5492(5) 1.5407(4) 2.2795(3)
O1A O -0.2944(3) 1.7080(2) 1.80612(17)
O2A O -0.1124(3) 1.6590(3) 1.8516(2)
O3A O -0.0964(3) 1.8884(2) 2.31926(16)
O4A O -0.2821(3) 1.9673(2) 2.2611(2)
O5A O -0.5057(3) 1.4912(2) 2.3299(2)
O6A O -0.6567(3) 1.5313(3) 2.2347(3)
S1A S -0.21600(10) 1.88090(8) 2.25612(6)
Zn1A Zn -0.34795(3) 1.60979(3) 1.68685(2)
O5_2 O -0.4943(3) 1.5088(2) 1.6701(2)
O5A_2 O 0.4943(3) 0.4912(2) 0.3299(2)
O6_2 O -0.3433(3) 1.4687(3) 1.7653(3)
O6A_2 O 0.3433(3) 0.5313(3) 0.2347(3)
N3_2 N 0.4374(2) 0.2983(2) 0.38608(17)
N3A_2 N -0.4374(2) 1.7017(2) 1.61392(17)
Zn1_2 Zn -0.65205(3) 1.39021(3) 0.31315(2)
Zn1_3 Zn -0.65205(3) 1.39021(3) 2.31315(2)
Zn1A_2 Zn 0.65205(3) 0.60979(3) -0.31315(2)
Zn1A_3 Zn 0.65205(3) 0.60979(3) 1.68685(2)
loop_
_geom_bond_atom_site_label_1
_geom_bond_atom_site_label_2
_geom_bond_site_symmetry_1
_geom_bond_site_symmetry_2
C1 H1 1_555 1_555
C2 C1 1_555 1_555
H2 C2 1_555 1_555
C3 C2 1_555 1_555
C4 C3 1_555 1_555
H3 C4 1_555 1_555
C5 C4 1_555 1_555
H4 C5 1_555 1_555
C6 C3 1_555 1_555
C7 C6 1_555 1_555
H5 C7 1_555 1_555
C8 C7 1_555 1_555
H6 C8 1_555 1_555
C9 C8 1_555 1_555
C10 C9 1_555 1_555
H7 C10 1_555 1_555
C11 C6 1_555 1_555
H8 C11 1_555 1_555
C12 C13 1_555 1_555
C13 H9 1_555 1_555
C14 C13 1_555 1_555
H10 C14 1_555 1_555
C15 C14 1_555 1_555
C16 C15 1_555 1_555
H11 C16 1_555 1_555
C17 C12 1_555 1_555
H12 C17 1_555 1_555
C18 C15 1_555 1_555
C19 C18 1_555 1_555
H13 C19 1_555 1_555
C20 C19 1_555 1_555
H14 C20 1_555 1_555
C21 H15 1_555 1_555
C22 C18 1_555 1_555
H16 C22 1_555 1_555
C23 C24 1_555 1_555
C24 H17 1_555 1_555
C25 C24 1_555 1_555
H18 C25 1_555 1_555
C26 C25 1_555 1_555
C27 C26 1_555 1_555
H19 C27 1_555 1_555
C28 C23 1_555 1_555
H20 C28 1_555 1_555
C29 C30 1_555 1_555
C30 C31 1_555 1_555
C31 H21 1_555 1_555
C32 C31 1_555 1_555
H22 C32 1_555 1_555
C33 C32 1_555 1_555
C34 C33 1_555 1_555
H23 C34 1_555 1_555
C35 C30 1_555 1_555
H24 C35 1_555 1_555
C36 C37 1_555 1_555
C37 H25 1_555 1_555
C38 C37 1_555 1_555
H26 C38 1_555 1_555
C39 C38 1_555 1_555
C40 C39 1_555 1_555
H27 C40 1_555 1_555
C41 C36 1_555 1_555
H28 C41 1_555 1_555
C42 C39 1_555 1_555
O1 C29 1_555 1_555
O2 C29 1_555 1_555
O3 S1 1_555 1_555
O4 S1 1_555 1_555
O5 C42 1_555 1_555
O6 C42 1_555 1_555
N1 C9 1_555 1_555
N2 C1 1_555 1_555
N3 C20 1_555 1_555
S1 C33 1_555 1_555
Zn1 O1 1_555 1_555
C1A H1A 1_555 1_555
C2A C1A 1_555 1_555
H2A C2A 1_555 1_555
C3A C2A 1_555 1_555
C4A C3A 1_555 1_555
H3A C4A 1_555 1_555
C5A C4A 1_555 1_555
H4A C5A 1_555 1_555
C6A C3A 1_555 1_555
C7A C6A 1_555 1_555
H5A C7A 1_555 1_555
C8A C7A 1_555 1_555
H6A C8A 1_555 1_555
C9A C8A 1_555 1_555
C10A C9A 1_555 1_555
H7A C10A 1_555 1_555
C11A C6A 1_555 1_555
H8A C11A 1_555 1_555
C12A C13A 1_555 1_555
C13A H9A 1_555 1_555
C14A C13A 1_555 1_555
H10A C14A 1_555 1_555
C15A C14A 1_555 1_555
C16A C15A 1_555 1_555
H11A C16A 1_555 1_555
C17A C12A 1_555 1_555
H12A C17A 1_555 1_555
C18A C15A 1_555 1_555
C19A C18A 1_555 1_555
H13A C19A 1_555 1_555
C20A C19A 1_555 1_555
H14A C20A 1_555 1_555
C21A H15A 1_555 1_555
C22A C18A 1_555 1_555
H16A C22A 1_555 1_555
C23A C24A 1_555 1_555
C24A H17A 1_555 1_555
C25A C24A 1_555 1_555
H18A C25A 1_555 1_555
C26A C26 1_555 1_555
C27A C26A 1_555 1_555
H19A C27A 1_555 1_555
C28A C23A 1_555 1_555
H20A C28A 1_555 1_555
N1A C9A 1_555 1_555
N2A C1A 1_555 1_555
N3A C20A 1_555 1_555
C29A C30A 1_555 1_555
C30A C31A 1_555 1_555
C31A H21A 1_555 1_555
C32A C31A 1_555 1_555
H22A C32A 1_555 1_555
C33A C32A 1_555 1_555
C34A C33A 1_555 1_555
H23A C34A 1_555 1_555
C35A C30A 1_555 1_555
H24A C35A 1_555 1_555
C36A C37A 1_555 1_555
C37A H25A 1_555 1_555
C38A C37A 1_555 1_555
H26A C38A 1_555 1_555
C39A C38A 1_555 1_555
C40A C39A 1_555 1_555
H27A C40A 1_555 1_555
C41A C36A 1_555 1_555
H28A C41A 1_555 1_555
C42A C39A 1_555 1_555
O1A C29A 1_555 1_555
O2A C29A 1_555 1_555
O3A S1A 1_555 1_555
O4A S1A 1_555 1_555
O5A C42A 1_555 1_555
O6A C42A 1_555 1_555
S1A C33A 1_555 1_555
Zn1A N2A 1_555 1_555
O5_2 Zn1A 1_555 1_555
O5A_2 Zn1 1_555 1_555
O6_2 Zn1A 1_555 1_555
O6A_2 Zn1 1_555 1_555
N3_2 Zn1 1_555 1_555
N3A_2 Zn1A 1_555 1_555
Zn1_2 N3 1_555 1_555
Zn1_3 O5A 1_555 1_555
Zn1A_2 O5 1_555 1_555
Zn1A_3 N3A 1_555 1_555
C5 N2 1_555 1_555
C10 C11 1_555 1_555
C12 N1 1_555 1_555
C16 C17 1_555 1_555
C21 C22 1_555 1_555
C21 N3 1_555 1_555
C23 N1 1_555 1_555
C27 C28 1_555 1_555
C34 C35 1_555 1_555
C36 S1 1_555 1_555
C40 C41 1_555 1_555
O6 Zn1A_2 1_555 1_555
N2 Zn1 1_555 1_555
C5A N2A 1_555 1_555
C10A C11A 1_555 1_555
C12A N1A 1_555 1_555
C16A C17A 1_555 1_555
C21A C22A 1_555 1_555
C21A N3A 1_555 1_555
C23A N1A 1_555 1_555
C25A C26A 1_555 1_555
C27A C28A 1_555 1_555
C34A C35A 1_555 1_555
C36A S1A 1_555 1_555
C40A C41A 1_555 1_555
O1A Zn1A 1_555 1_555
O6A Zn1_3 1_555 1_555

#END
