
#######################################################################
#
#                 Cambridge Crystallographic Data Centre
#                                CCDC 
#
#######################################################################
#
# If this CIF has been generated from an entry in the Cambridge 
# Structural Database, then it will include bibliographic, chemical, 
# crystal, experimental, refinement or atomic coordinate data resulting 
# from the CCDC's data processing and validation procedures.
#
#######################################################################

data_TISPIV
_symmetry_cell_setting           orthorhombic
_symmetry_space_group_name_H-M   'P c a 21'
_symmetry_Int_Tables_number      29
_space_group_name_Hall           'P 2c -2ac'
loop_
_symmetry_equiv_pos_site_id
_symmetry_equiv_pos_as_xyz
1 x,y,z
2 1/2-x,y,1/2+z
3 1/2+x,-y,z
4 -x,-y,1/2+z
_cell_length_a                   26.0623(6)
_cell_length_b                   10.1580(3)
_cell_length_c                   13.1579(3)
_cell_angle_alpha                90
_cell_angle_beta                 90
_cell_angle_gamma                90
_cell_volume                     3483.43
loop_
_atom_site_label
_atom_site_type_symbol
_atom_site_fract_x
_atom_site_fract_y
_atom_site_fract_z
Zn1 Zn 0.321964(11) 0.08978(3) 0.17116
N1 N 0.36155(9) -0.0321(2) 0.26957(18)
N2 N 0.39047(9) 0.1342(2) 0.10022(18)
N3 N 0.28440(8) 0.1642(2) 0.04597(17)
N4 N 0.25492(9) 0.0022(2) 0.21830(17)
C1 C 0.34057(12) -0.1071(3) 0.3458(2)
C2 C 0.37979(12) -0.1433(3) 0.4170(2)
C3 C 0.42445(12) -0.0896(3) 0.3837(2)
C4 C 0.41253(12) -0.0197(3) 0.2918(2)
C5 C 0.44840(11) 0.0487(3) 0.2314(2)
C6 C 0.43845(11) 0.1164(3) 0.1404(2)
C7 C 0.47555(11) 0.1810(3) 0.0797(2)
C8 C 0.45043(11) 0.2393(3) 0.0015(2)
C9 C 0.39690(11) 0.2093(3) 0.0140(2)
C10 C 0.35764(12) 0.2519(3) -0.0511(2)
C11 C 0.30549(12) 0.2264(3) -0.0366(2)
C12 C 0.26595(11) 0.2593(3) -0.1085(2)
C13 C 0.22069(12) 0.2192(3) -0.0695(2)
C14 C 0.23258(11) 0.1581(3) 0.0279(2)
C15 C 0.19793(11) 0.0959(3) 0.0905(2)
C16 C 0.20802(10) 0.0216(3) 0.1759(3)
C17 C 0.16999(11) -0.0555(3) 0.2292(2)
C18 C 0.19539(12) -0.1233(3) 0.3024(2)
C19 C 0.24863(12) -0.0874(3) 0.2953(2)
C20 C 0.28794(11) -0.1375(3) 0.3559(2)
C21 C 0.50274(12) 0.0513(3) 0.2662(2)
O1 O 0.53910(8) 0.0127(2) 0.21828(17)
O2 O 0.50732(8) 0.1074(2) 0.35836(16)
C22 C 0.55889(12) 0.1161(4) 0.3995(3)
C23 C 0.55617(15) 0.1921(4) 0.4965(3)
C24 C 0.37206(11) 0.3288(3) -0.1431(2)
C25 C 0.36078(13) 0.4608(4) -0.1522(3)
C26 C 0.37436(14) 0.5316(4) -0.2399(3)
C27 C 0.39956(12) 0.4702(4) -0.3196(3)
C28 C 0.40980(12) 0.3393(4) -0.3110(2)
C29 C 0.39706(12) 0.2686(3) -0.2243(2)
C30 C 0.41494(15) 0.5477(5) -0.4116(3)
C31 C 0.16874(12) 0.2339(3) -0.1132(2)
O3 O 0.17192(7) 0.25245(19) -0.22175(14)
C32 C 0.27353(11) -0.2327(3) 0.4384(2)
C33 C 0.29470(11) -0.3581(3) 0.4409(2)
C34 C 0.28151(12) -0.4446(3) 0.5176(3)
C35 C 0.24713(13) -0.4097(3) 0.5936(2)
C36 C 0.22566(12) -0.2853(3) 0.5901(2)
C37 C 0.23852(12) -0.1972(3) 0.5140(2)
C38 C 0.23407(12) -0.5058(3) 0.6769(3)
H1 H 0.375 -0.196 0.477
H2 H 0.457 -0.097 0.416
H3 H 0.171 0.331 -0.245
H4 H 0.512 0.183 0.091
H5 H 0.465 0.291 -0.052
H6 H 0.271 0.303 -0.172
H7 H 0.162 0.106 0.073
H8 H 0.134 -0.056 0.216
H9 H 0.180 -0.185 0.349
H10 H 0.572 0.029 0.413
H11 H 0.581 0.160 0.352
H12 H 0.590 0.199 0.526
H13 H 0.543 0.279 0.483
H14 H 0.534 0.148 0.543
H15 H 0.343 0.505 -0.098
H16 H 0.366 0.624 -0.245
H17 H 0.427 0.295 -0.366
H18 H 0.405 0.177 -0.220
H19 H 0.3989 0.5105 -0.4707
H20 H 0.45154 0.545 -0.4194
H21 H 0.4041 0.6374 -0.4036
H22 H 0.149 0.155 -0.100
H23 H 0.152 0.308 -0.082
H24 H 0.319 -0.384 0.389
H25 H 0.296 -0.531 0.518
H26 H 0.201 -0.260 0.641
H27 H 0.223 -0.112 0.512
H28 H 0.19750 -0.5104 0.6848
H29 H 0.2493 -0.4769 0.7395
H30 H 0.2471 -0.5913 0.6596
Zn1A Zn 0.178036(11) 0.08978(3) -0.32884
O3A O 0.32808(7) 0.25245(19) 0.27825(14)
H3A H 0.329 0.331 0.255
O4 O 0.90029 0.5610 0.2575
C39 C 0.90548 0.4435 0.1988
C40 C 0.95640 0.3880 0.2179
C41 C 0.97357 0.4572 0.3132
C42 C 0.94883 0.5874 0.3027
H31 H 0.880 0.381 0.219
H32 H 0.902 0.464 0.128
H33 H 0.955 0.294 0.227
H34 H 0.979 0.409 0.163
H35 H 1.010 0.464 0.318
H36 H 0.961 0.412 0.372
H37 H 0.969 0.643 0.259
H38 H 0.944 0.630 0.367
loop_
_geom_bond_atom_site_label_1
_geom_bond_atom_site_label_2
_geom_bond_site_symmetry_1
_geom_bond_site_symmetry_2
Zn1 N1 1_555 1_555
N1 C1 1_555 1_555
N2 Zn1 1_555 1_555
N3 Zn1 1_555 1_555
N4 Zn1 1_555 1_555
C1 C2 1_555 1_555
C2 C3 1_555 1_555
C3 C4 1_555 1_555
C4 N1 1_555 1_555
C5 C4 1_555 1_555
C6 N2 1_555 1_555
C7 C6 1_555 1_555
C8 C7 1_555 1_555
C9 N2 1_555 1_555
C10 C9 1_555 1_555
C11 N3 1_555 1_555
C12 C11 1_555 1_555
C13 C12 1_555 1_555
C14 N3 1_555 1_555
C15 C14 1_555 1_555
C16 N4 1_555 1_555
C17 C16 1_555 1_555
C18 C17 1_555 1_555
C19 N4 1_555 1_555
C20 C1 1_555 1_555
C21 C5 1_555 1_555
O1 C21 1_555 1_555
O2 C21 1_555 1_555
C22 O2 1_555 1_555
C23 C22 1_555 1_555
C24 C10 1_555 1_555
C25 C24 1_555 1_555
C26 C25 1_555 1_555
C27 C26 1_555 1_555
C28 C27 1_555 1_555
C29 C24 1_555 1_555
C30 C27 1_555 1_555
C31 C13 1_555 1_555
O3 C31 1_555 1_555
C32 C20 1_555 1_555
C33 C32 1_555 1_555
C34 C33 1_555 1_555
C35 C34 1_555 1_555
C36 C35 1_555 1_555
C37 C32 1_555 1_555
C38 C35 1_555 1_555
H1 C2 1_555 1_555
H2 C3 1_555 1_555
H3 O3 1_555 1_555
H4 C7 1_555 1_555
H5 C8 1_555 1_555
H6 C12 1_555 1_555
H7 C15 1_555 1_555
H8 C17 1_555 1_555
H9 C18 1_555 1_555
H10 C22 1_555 1_555
H11 C22 1_555 1_555
H12 C23 1_555 1_555
H13 C23 1_555 1_555
H14 C23 1_555 1_555
H15 C25 1_555 1_555
H16 C26 1_555 1_555
H17 C28 1_555 1_555
H18 C29 1_555 1_555
H19 C30 1_555 1_555
H20 C30 1_555 1_555
H21 C30 1_555 1_555
H22 C31 1_555 1_555
H23 C31 1_555 1_555
H24 C33 1_555 1_555
H25 C34 1_555 1_555
H26 C36 1_555 1_555
H27 C37 1_555 1_555
H28 C38 1_555 1_555
H29 C38 1_555 1_555
H30 C38 1_555 1_555
O4 C39 1_555 1_555
C39 C40 1_555 1_555
C40 C41 1_555 1_555
C41 C42 1_555 1_555
C42 O4 1_555 1_555
H31 C39 1_555 1_555
H32 C39 1_555 1_555
H33 C40 1_555 1_555
H34 C40 1_555 1_555
H35 C41 1_555 1_555
H36 C41 1_555 1_555
H37 C42 1_555 1_555
H38 C42 1_555 1_555
Zn1A O3 1_555 1_555
O3A Zn1 1_555 1_555
H3A O3A 1_555 1_555
C5 C6 1_555 1_555
C8 C9 1_555 1_555
C10 C11 1_555 1_555
C13 C14 1_555 1_555
C15 C16 1_555 1_555
C18 C19 1_555 1_555
C19 C20 1_555 1_555
C28 C29 1_555 1_555
C36 C37 1_555 1_555

#END
