
#######################################################################
#
#                 Cambridge Crystallographic Data Centre
#                                CCDC 
#
#######################################################################
#
# If this CIF has been generated from an entry in the Cambridge 
# Structural Database, then it will include bibliographic, chemical, 
# crystal, experimental, refinement or atomic coordinate data resulting 
# from the CCDC's data processing and validation procedures.
#
#######################################################################

data_TISRAO
_symmetry_cell_setting           monoclinic
_symmetry_space_group_name_H-M   'I 2/a'
_symmetry_Int_Tables_number      15
_space_group_name_Hall           '-I 2ya'
loop_
_symmetry_equiv_pos_site_id
_symmetry_equiv_pos_as_xyz
1 x,y,z
2 1/2-x,y,-z
3 1/2+x,1/2+y,1/2+z
4 -x,1/2+y,1/2-z
5 -x,-y,-z
6 1/2+x,-y,z
7 1/2-x,1/2-y,1/2-z
8 x,1/2-y,1/2+z
_cell_length_a                   18.011(4)
_cell_length_b                   5.840(1)
_cell_length_c                   22.205(6)
_cell_angle_alpha                90
_cell_angle_beta                 115.78(2)
_cell_angle_gamma                90
_cell_volume                     2103.15
loop_
_atom_site_label
_atom_site_type_symbol
_atom_site_fract_x
_atom_site_fract_y
_atom_site_fract_z
I1 I 0.84658(3) 0.06239(10) 0.33013(3)
I2 I 0.78792(3) 0.09940(10) 0.45907(3)
I3 I 0.95766(4) -0.34674(11) 0.4507(4)
Pd1 Pd 0.7500 -0.2500 0.2500
N1 N 0.6745(3) -0.2374(10) 0.2960(3)
C1 C 0.6176(4) -0.0750(14) 0.2812(4)
C2 C 0.5649(5) -0.0651(16) 0.3120(4)
C3 C 0.5720(5) -0.2260(16) 0.3592(4)
C4 C 0.6320(5) -0.3941(15) 0.3743(4)
C5 C 0.6812(5) -0.3942(14) 0.3419(4)
H1 H 0.6122 0.0529 0.2444
H2 H 0.5188 0.0678 0.2988
H3 H 0.5320 -0.2219 0.3840
H4 H 0.6395 -0.5234 0.4113
H5 H 0.7275 -0.5261 0.3538
I2A I 0.71208(3) 0.09940(10) 0.54093(3)
I1A I 0.65342(3) 0.06239(10) 0.66987(3)
I3D I 1.04234(4) -0.65326(11) 0.5493(4)
I1D I 1.15342(3) -1.06239(10) 0.66987(3)
I1F I 0.65342(3) -0.56239(10) 0.16987(3)
I2F I 0.71208(3) -0.59940(10) 0.04093(3)
I3F I 0.54234(4) -0.15326(11) 0.0493(4)
N1F N 0.8255(3) -0.2626(10) 0.2040(3)
C1F C 0.8824(4) -0.4250(14) 0.2188(4)
C2F C 0.9351(5) -0.4349(16) 0.1880(4)
C3F C 0.9280(5) -0.2740(16) 0.1408(4)
C4F C 0.8680(5) -0.1059(15) 0.1257(4)
C5F C 0.8188(5) -0.1058(14) 0.1581(4)
H5F H 0.7725 0.0261 0.1462
H4F H 0.8605 0.0234 0.0887
H3F H 0.9680 -0.2781 0.1160
H2F H 0.9812 -0.5678 0.2012
H1F H 0.8878 -0.5529 0.2556
loop_
_geom_bond_atom_site_label_1
_geom_bond_atom_site_label_2
_geom_bond_site_symmetry_1
_geom_bond_site_symmetry_2
I1 I2 1_555 1_555
I2 I2A 1_555 1_555
I3 I1 1_555 1_555
Pd1 I1 1_555 1_555
N1 Pd1 1_555 1_555
C1 N1 1_555 1_555
C2 C1 1_555 1_555
C3 C2 1_555 1_555
C4 C3 1_555 1_555
C5 N1 1_555 1_555
H1 C1 1_555 1_555
H2 C2 1_555 1_555
H3 C3 1_555 1_555
H4 C4 1_555 1_555
H5 C5 1_555 1_555
I2A I1A 1_555 1_555
I3D I3 1_555 1_555
I1D I3D 1_555 1_555
I1F Pd1 1_555 1_555
I2F I1F 1_555 1_555
I3F I1F 1_555 1_555
N1F Pd1 1_555 1_555
C1F N1F 1_555 1_555
C2F C1F 1_555 1_555
C3F C2F 1_555 1_555
C4F C3F 1_555 1_555
C5F N1F 1_555 1_555
H5F C5F 1_555 1_555
H4F C4F 1_555 1_555
H3F C3F 1_555 1_555
H2F C2F 1_555 1_555
H1F C1F 1_555 1_555
C4 C5 1_555 1_555
C4F C5F 1_555 1_555

#END
