
#######################################################################
#
#                 Cambridge Crystallographic Data Centre
#                                CCDC 
#
#######################################################################
#
# If this CIF has been generated from an entry in the Cambridge 
# Structural Database, then it will include bibliographic, chemical, 
# crystal, experimental, refinement or atomic coordinate data resulting 
# from the CCDC's data processing and validation procedures.
#
#######################################################################

data_TISSUJ01
_symmetry_cell_setting           monoclinic
_symmetry_space_group_name_H-M   'C 2/m'
_symmetry_Int_Tables_number      12
_space_group_name_Hall           '-C 2y'
loop_
_symmetry_equiv_pos_site_id
_symmetry_equiv_pos_as_xyz
1 x,y,z
2 -x,y,-z
3 1/2+x,1/2+y,z
4 1/2-x,1/2+y,-z
5 -x,-y,-z
6 x,-y,z
7 1/2-x,1/2-y,-z
8 1/2+x,1/2-y,z
_cell_length_a                   11.856(2)
_cell_length_b                   7.549(2)
_cell_length_c                   3.743(2)
_cell_angle_alpha                90
_cell_angle_beta                 93.15(3)
_cell_angle_gamma                90
_cell_volume                     334.496
loop_
_atom_site_label
_atom_site_type_symbol
_atom_site_fract_x
_atom_site_fract_y
_atom_site_fract_z
Cd1 Cd 0.0000 0.0000 -1.0000
Cl1 Cl 0.1539(1) 0.0000 -1.4731(3)
N1 N 0.0000 0.3160(4) -2.0000
C1 C -0.0906(2) 0.4088(4) -1.9153(8)
H1 H 0.1496(30) 0.3454(46) -1.8570(97)
Cl1A Cl -0.1539(1) 0.0000 -1.5269(3)
Cd1_2 Cd 0.0000 0.0000 -2.0000
Cl1A_2 Cl -0.1539(1) 0.0000 -2.5269(3)
Cl1_2 Cl 0.1539(1) 0.0000 -2.4731(3)
C1E C -0.0906(2) 0.5912(4) -1.9153(8)
N1D N 0.0000 0.6840(4) -2.0000
Cd1_3 Cd 0.0000 1.0000 -2.0000
C1D C 0.0906(2) 0.5912(4) -2.0847(8)
C1A C 0.0906(2) 0.4088(4) -2.0847(8)
H1E H 0.1496(30) 0.6546(46) -1.8570(97)
H1D H -0.1496(30) 0.6546(46) -2.1430(97)
H1A H -0.1496(30) 0.3454(46) -2.1430(97)
N1D_2 N 0.0000 -0.3160(4) -2.0000
loop_
_geom_bond_atom_site_label_1
_geom_bond_atom_site_label_2
_geom_bond_site_symmetry_1
_geom_bond_site_symmetry_2
Cd1 Cl1 1_555 1_555
Cl1 Cd1_2 1_555 1_555
N1 C1 1_555 1_555
C1 C1E 1_555 1_555
H1 C1A 1_555 1_555
Cl1A Cd1 1_555 1_555
Cd1_2 N1 1_555 1_555
Cl1A_2 Cd1_2 1_555 1_555
Cl1_2 Cd1_2 1_555 1_555
C1E N1D 1_555 1_555
N1D Cd1_3 1_555 1_555
C1D N1D 1_555 1_555
C1A N1 1_555 1_555
H1E C1D 1_555 1_555
H1D C1E 1_555 1_555
H1A C1 1_555 1_555
N1D_2 Cd1_2 1_555 1_555
Cl1A Cd1_2 1_555 1_555
C1D C1A 1_555 1_555

#END
