
#######################################################################
#
#                 Cambridge Crystallographic Data Centre
#                                CCDC 
#
#######################################################################
#
# If this CIF has been generated from an entry in the Cambridge 
# Structural Database, then it will include bibliographic, chemical, 
# crystal, experimental, refinement or atomic coordinate data resulting 
# from the CCDC's data processing and validation procedures.
#
#######################################################################

data_TISSUJ
_symmetry_cell_setting           monoclinic
_symmetry_space_group_name_H-M   'P 21/m'
_symmetry_Int_Tables_number      11
_space_group_name_Hall           '-P 2yb'
loop_
_symmetry_equiv_pos_site_id
_symmetry_equiv_pos_as_xyz
1 x,y,z
2 -x,1/2+y,-z
3 -x,-y,-z
4 x,1/2-y,z
_cell_length_a                   11.962(5)
_cell_length_b                   7.571(2)
_cell_length_c                   3.755(1)
_cell_angle_alpha                90
_cell_angle_beta                 92.77(3)
_cell_angle_gamma                90
_cell_volume                     339.672
loop_
_atom_site_label
_atom_site_type_symbol
_atom_site_fract_x
_atom_site_fract_y
_atom_site_fract_z
Cd1 Cd 0.74963(8) 0.75000 -0.49872(30)
Cl1 Cl 0.59738(21) 0.75000 -1.02300(92)
Cl2 Cl 0.90263(22) 0.75000 -0.97885(81)
N1 N 0.74951(54) 0.43396(55) -1.4971(19)
C1 C 0.83969(62) 0.33971(90) -1.5833(21)
H1 H 0.90397(62) 0.10076(90) -1.6448(21)
C2 C 0.65840(59) 0.15693(86) -1.4227(24)
H2 H 0.59356(59) 0.40342(86) -1.3698(24)
Cd1_2 Cd 0.74963(8) 0.75000 -1.49872(30)
Cl1_2 Cl 0.59738(21) 0.75000 -2.02300(92)
Cl2_2 Cl 0.90263(22) 0.75000 -1.97885(81)
C1C C 0.83969(62) 0.16029(90) -1.5833(21)
N1C N 0.74951(54) 0.06604(55) -1.4971(19)
Cd1_3 Cd 0.74963(8) -0.25000 -1.49872(30)
H1C H 0.90397(62) 0.39924(90) -1.6448(21)
C2C C 0.65840(59) 0.34307(86) -1.4227(24)
N1C_2 N 0.74951(54) 1.06604(55) -1.4971(19)
H2C H 0.59356(59) 0.09658(86) -1.3698(24)
loop_
_geom_bond_atom_site_label_1
_geom_bond_atom_site_label_2
_geom_bond_site_symmetry_1
_geom_bond_site_symmetry_2
Cd1 Cl1 1_555 1_555
Cl1 Cd1_2 1_555 1_555
Cl2 Cd1 1_555 1_555
N1 C1 1_555 1_555
C1 C1C 1_555 1_555
H1 C1C 1_555 1_555
C2 N1C 1_555 1_555
H2 C2C 1_555 1_555
Cd1_2 Cl2 1_555 1_555
Cl1_2 Cd1_2 1_555 1_555
Cl2_2 Cd1_2 1_555 1_555
C1C N1C 1_555 1_555
N1C Cd1_3 1_555 1_555
H1C C1 1_555 1_555
C2C N1 1_555 1_555
N1C_2 Cd1_2 1_555 1_555
H2C C2 1_555 1_555
N1 Cd1_2 1_555 1_555
C2 C2C 1_555 1_555

#END
