
#######################################################################
#
#                 Cambridge Crystallographic Data Centre
#                                CCDC 
#
#######################################################################
#
# If this CIF has been generated from an entry in the Cambridge 
# Structural Database, then it will include bibliographic, chemical, 
# crystal, experimental, refinement or atomic coordinate data resulting 
# from the CCDC's data processing and validation procedures.
#
#######################################################################

data_TISTEU
_symmetry_cell_setting           orthorhombic
_symmetry_space_group_name_H-M   'P m c m'
_symmetry_Int_Tables_number      51
_space_group_name_Hall           '-P 2c 2'
loop_
_symmetry_equiv_pos_site_id
_symmetry_equiv_pos_as_xyz
1 x,y,z
2 -x,-y,1/2+z
3 x,-y,-z
4 -x,y,1/2-z
5 -x,-y,-z
6 x,y,1/2-z
7 -x,y,z
8 x,-y,1/2+z
_cell_length_a                   3.576(1)
_cell_length_b                   7.066(4)
_cell_length_c                   12.169(1)
_cell_angle_alpha                90
_cell_angle_beta                 90
_cell_angle_gamma                90
_cell_volume                     307.486
loop_
_atom_site_label
_atom_site_type_symbol
_atom_site_fract_x
_atom_site_fract_y
_atom_site_fract_z
Zn1 Zn 0.00000 0.00000 -0.50000
Cl1 Cl 0.50000 -0.20993(18) -0.42718(10)
N1 N 0.00000 0.15800(61) -0.34738(34)
C1 C 0.00000 0.0705(11) -0.25000
H1 H 0.00000 -0.0611(11) -0.25000
C2 C 0.00000 0.34789(77) -0.15441(43)
H2 H 0.00000 0.41362(77) -0.08820(43)
C3 C 0.00000 0.4469(11) -0.25000
H3 H 0.00000 0.5785(11) -0.25000
Zn1_2 Zn 1.00000 0.00000 -0.50000
Cl1B Cl 0.50000 0.20993(18) -0.57282(10)
Cl1_2 Cl -0.50000 -0.20993(18) -0.42718(10)
Zn1_3 Zn -1.00000 0.00000 -0.50000
Cl1B_2 Cl -0.50000 0.20993(18) -0.57282(10)
N1C N 0.00000 0.15800(61) -0.15262(34)
Zn1A Zn 0.00000 0.00000 0.00000
C2C C 0.00000 0.34789(77) -0.34559(43)
H2C H 0.00000 0.41362(77) -0.41180(43)
N1B N 0.00000 -0.15800(61) -0.65262(34)
loop_
_geom_bond_atom_site_label_1
_geom_bond_atom_site_label_2
_geom_bond_site_symmetry_1
_geom_bond_site_symmetry_2
Zn1 Cl1 1_555 1_555
Cl1 Zn1_2 1_555 1_555
N1 Zn1 1_555 1_555
C1 N1 1_555 1_555
H1 C1 1_555 1_555
C2 H2 1_555 1_555
C3 C2 1_555 1_555
H3 C3 1_555 1_555
Zn1_2 Cl1B 1_555 1_555
Cl1B Zn1 1_555 1_555
Cl1_2 Zn1 1_555 1_555
Zn1_3 Cl1_2 1_555 1_555
Cl1B_2 Zn1 1_555 1_555
N1C C1 1_555 1_555
Zn1A N1C 1_555 1_555
C2C N1 1_555 1_555
H2C C2C 1_555 1_555
N1B Zn1 1_555 1_555
C2 N1C 1_555 1_555
C3 C2C 1_555 1_555
Zn1_3 Cl1B_2 1_555 1_555

#END
