
#######################################################################
#
#                 Cambridge Crystallographic Data Centre
#                                CCDC 
#
#######################################################################
#
# If this CIF has been generated from an entry in the Cambridge 
# Structural Database, then it will include bibliographic, chemical, 
# crystal, experimental, refinement or atomic coordinate data resulting 
# from the CCDC's data processing and validation procedures.
#
#######################################################################

data_TISVEY
_symmetry_cell_setting           monoclinic
_symmetry_space_group_name_H-M   'P 21/n'
_symmetry_Int_Tables_number      14
_space_group_name_Hall           '-P 2yn'
loop_
_symmetry_equiv_pos_site_id
_symmetry_equiv_pos_as_xyz
1 x,y,z
2 1/2-x,1/2+y,1/2-z
3 -x,-y,-z
4 1/2+x,1/2-y,1/2+z
_cell_length_a                   8.273(5)
_cell_length_b                   28.875(5)
_cell_length_c                   18.694(5)
_cell_angle_alpha                90
_cell_angle_beta                 95.048(5)
_cell_angle_gamma                90
_cell_volume                     4448.36
loop_
_atom_site_label
_atom_site_type_symbol
_atom_site_fract_x
_atom_site_fract_y
_atom_site_fract_z
Sn1 Sn 0.45338(6) 0.076552(17) 0.28580(3)
Sn2 Sn 0.51250(6) 0.199073(17) -0.09209(3)
O1 O 0.6871(6) 0.18263(18) -0.0047(3)
O2 O 0.9090(6) 0.22409(17) -0.0253(3)
O3 O 0.6102(6) 0.11256(17) 0.2200(3)
O4 O 0.8001(6) 0.11534(17) 0.3131(3)
N1 N 1.2349(7) 0.2173(2) 0.2264(3)
N2 N 1.7733(7) 0.2821(2) 0.3168(3)
C1 C 0.8309(9) 0.2001(2) 0.0127(4)
C2 C 0.7503(9) 0.1250(2) 0.2505(4)
C3 C 0.8928(8) 0.1878(2) 0.0889(4)
C4 C 0.7996(8) 0.1606(2) 0.1312(4)
H1 H 0.7025 0.1479 0.1114
C5 C 0.8516(8) 0.1523(2) 0.2031(4)
C6 C 0.9974(8) 0.1718(2) 0.2323(4)
H2 H 1.0306 0.1673 0.2806
C7 C 1.0944(8) 0.1982(2) 0.1897(4)
C8 C 1.0400(8) 0.2069(2) 0.1178(4)
H3 H 1.1012 0.2252 0.0894
C9 C 1.3591(9) 0.2245(2) 0.1950(4)
H4 H 1.3614 0.2174 0.1466
C10 C 1.5034(8) 0.2447(2) 0.2363(4)
C11 C 1.5034(8) 0.2503(2) 0.3100(4)
H5 H 1.4139 0.2416 0.3336
C12 C 1.6378(9) 0.2690(2) 0.3472(4)
H6 H 1.6360 0.2729 0.3965
C13 C 1.7728(9) 0.2768(2) 0.2451(4)
H7 H 1.8640 0.2857 0.2228
C14 C 1.6404(9) 0.2584(2) 0.2033(4)
H8 H 1.6434 0.2553 0.1539
C15 C 0.5242(9) 0.2734(3) -0.0782(4)
H9 H 0.6147 0.2847 -0.1030
H10 H 0.4263 0.2865 -0.1026
C16 C 0.5424(11) 0.2928(3) -0.0024(5)
H11 H 0.4548 0.2812 0.0238
H12 H 0.6438 0.2819 0.0218
C17 C 0.5404(11) 0.3453(3) -0.0006(5)
H13 H 0.4352 0.3562 -0.0207
H14 H 0.6214 0.3570 -0.0305
C18 C 0.5744(15) 0.3645(3) 0.0751(6)
H15 H 0.4956 0.3526 0.1051
H16 H 0.5680 0.3977 0.0738
H17 H 0.6811 0.3552 0.0943
C19 C 0.3330(10) 0.1565(3) -0.0450(5)
H18 H 0.2597 0.1771 -0.0226
H19 H 0.2698 0.1408 -0.0839
C20 C 0.3902(12) 0.1211(3) 0.0087(5)
H20 H 0.2956 0.1057 0.0248
H21 H 0.4438 0.1370 0.0499
C21 C 0.5036(13) 0.0844(3) -0.0142(6)
H22 H 0.4483 0.0661 -0.0525
H23 H 0.5964 0.0991 -0.0330
C22 C 0.5602(15) 0.0536(4) 0.0449(6)
H24 H 0.6140 0.0715 0.0832
H25 H 0.6347 0.0314 0.0282
H26 H 0.4693 0.0378 0.0620
C23 C 0.6328(9) 0.1720(3) -0.1794(4)
H27 H 0.5568 0.1525 -0.2083
H28 H 0.6613 0.1976 -0.2094
C24 C 0.7848(9) 0.1440(3) -0.1590(5)
H29 H 0.7561 0.1169 -0.1322
H30 H 0.8589 0.1625 -0.1278
C25 C 0.8716(9) 0.1283(3) -0.2238(5)
H31 H 0.8975 0.1555 -0.2511
H32 H 0.9733 0.1138 -0.2065
C26 C 0.7768(10) 0.0950(3) -0.2736(5)
H33 H 0.7496 0.0680 -0.2472
H34 H 0.8414 0.0861 -0.3115
H35 H 0.6791 0.1097 -0.2937
C27 C 0.2617(9) 0.0740(3) 0.2008(4)
H36 H 0.1701 0.0912 0.2161
H37 H 0.2983 0.0899 0.1596
C28 C 0.2020(10) 0.0263(3) 0.1766(4)
H38 H 0.1673 0.0097 0.2178
H39 H 0.2915 0.0092 0.1592
C29 C 0.0617(10) 0.0274(3) 0.1178(5)
H40 H 0.0921 0.0464 0.0783
H41 H -0.0322 0.0415 0.1366
C30 C 0.0166(13) -0.0214(3) 0.0898(6)
H42 H 0.1102 -0.0359 0.0727
H43 H -0.0679 -0.0193 0.0513
H44 H -0.0208 -0.0396 0.1281
C31 C 0.4441(9) 0.1307(2) 0.3632(4)
H45 H 0.5007 0.1574 0.3460
H46 H 0.3314 0.1396 0.3652
C32 C 0.5153(10) 0.1201(3) 0.4395(4)
H47 H 0.4492 0.0967 0.4602
H48 H 0.6236 0.1075 0.4378
C33 C 0.5238(12) 0.1626(3) 0.4870(5)
H49 H 0.4169 0.1766 0.4855
H50 H 0.5965 0.1850 0.4682
C34 C 0.5825(14) 0.1521(4) 0.5648(6)
H51 H 0.5110 0.1300 0.5839
H52 H 0.5832 0.1801 0.5925
H53 H 0.6902 0.1396 0.5670
C35 C 0.5904(9) 0.0143(3) 0.3051(4)
H54 H 0.6391 0.0150 0.3543
H55 H 0.5158 -0.0117 0.3010
C36 C 0.7247(10) 0.0054(3) 0.2556(5)
H56 H 0.8030 0.0304 0.2607
H57 H 0.6780 0.0051 0.2061
C37 C 0.8126(10) -0.0413(3) 0.2729(5)
H58 H 0.9060 -0.0431 0.2451
H59 H 0.8526 -0.0413 0.3232
C38 C 0.7102(10) -0.0840(3) 0.2579(6)
H60 H 0.6235 -0.0843 0.2888
H61 H 0.7762 -0.1111 0.2667
H62 H 0.6658 -0.0838 0.2087
Sn2C Sn 2.01250(6) 0.300927(17) 0.40791(3)
N2C N 0.2733(7) 0.2179(2) -0.1832(3)
N3 N 0.2552(7) 0.0356(2) 0.3665(3)
C39 C 0.0086(9) 0.0416(3) 0.4221(4)
H63 H -0.0914 0.0562 0.4230
C40 C 0.1098(9) 0.0541(3) 0.3713(4)
H64 H 0.0747 0.0769 0.3383
C41 C 0.0537(9) 0.0073(2) 0.4723(4)
C42 C 0.2069(11) -0.0120(3) 0.4666(5)
H65 H 0.2457 -0.0348 0.4987
C43 C 0.3003(10) 0.0025(3) 0.4141(5)
H66 H 0.4008 -0.0115 0.4113
N3B N -0.2552(7) -0.0356(2) 0.6335(3)
C39B C -0.0086(9) -0.0416(3) 0.5779(4)
H63B H 0.0914 -0.0562 0.5770
C40B C -0.1098(9) -0.0541(3) 0.6287(4)
H64B H -0.0747 -0.0769 0.6617
C41B C -0.0537(9) -0.0073(2) 0.5277(4)
C42B C -0.2069(11) 0.0120(3) 0.5334(5)
H65B H -0.2457 0.0348 0.5013
C43B C -0.3003(10) -0.0025(3) 0.5859(5)
H66B H -0.4008 0.0115 0.5887
loop_
_geom_bond_atom_site_label_1
_geom_bond_atom_site_label_2
_geom_bond_site_symmetry_1
_geom_bond_site_symmetry_2
Sn1 O3 1_555 1_555
Sn2 O1 1_555 1_555
O1 C1 1_555 1_555
O2 C1 1_555 1_555
O3 C2 1_555 1_555
O4 C2 1_555 1_555
N1 C7 1_555 1_555
N2 C12 1_555 1_555
C1 C3 1_555 1_555
C2 C5 1_555 1_555
C3 C4 1_555 1_555
C4 H1 1_555 1_555
C5 C4 1_555 1_555
C6 C5 1_555 1_555
H2 C6 1_555 1_555
C7 C6 1_555 1_555
C8 C3 1_555 1_555
H3 C8 1_555 1_555
C9 N1 1_555 1_555
H4 C9 1_555 1_555
C10 C9 1_555 1_555
C11 C10 1_555 1_555
H5 C11 1_555 1_555
C12 C11 1_555 1_555
H6 C12 1_555 1_555
C13 N2 1_555 1_555
H7 C13 1_555 1_555
C14 C10 1_555 1_555
H8 C14 1_555 1_555
C15 Sn2 1_555 1_555
H9 C15 1_555 1_555
H10 C15 1_555 1_555
C16 C15 1_555 1_555
H11 C16 1_555 1_555
H12 C16 1_555 1_555
C17 C16 1_555 1_555
H13 C17 1_555 1_555
H14 C17 1_555 1_555
C18 C17 1_555 1_555
H15 C18 1_555 1_555
H16 C18 1_555 1_555
H17 C18 1_555 1_555
C19 Sn2 1_555 1_555
H18 C19 1_555 1_555
H19 C19 1_555 1_555
C20 C19 1_555 1_555
H20 C20 1_555 1_555
H21 C20 1_555 1_555
C21 C20 1_555 1_555
H22 C21 1_555 1_555
H23 C21 1_555 1_555
C22 C21 1_555 1_555
H24 C22 1_555 1_555
H25 C22 1_555 1_555
H26 C22 1_555 1_555
C23 Sn2 1_555 1_555
H27 C23 1_555 1_555
H28 C23 1_555 1_555
C24 C23 1_555 1_555
H29 C24 1_555 1_555
H30 C24 1_555 1_555
C25 C24 1_555 1_555
H31 C25 1_555 1_555
H32 C25 1_555 1_555
C26 C25 1_555 1_555
H33 C26 1_555 1_555
H34 C26 1_555 1_555
H35 C26 1_555 1_555
C27 Sn1 1_555 1_555
H36 C27 1_555 1_555
H37 C27 1_555 1_555
C28 C27 1_555 1_555
H38 C28 1_555 1_555
H39 C28 1_555 1_555
C29 C28 1_555 1_555
H40 C29 1_555 1_555
H41 C29 1_555 1_555
C30 C29 1_555 1_555
H42 C30 1_555 1_555
H43 C30 1_555 1_555
H44 C30 1_555 1_555
C31 Sn1 1_555 1_555
H45 C31 1_555 1_555
H46 C31 1_555 1_555
C32 C31 1_555 1_555
H47 C32 1_555 1_555
H48 C32 1_555 1_555
C33 C32 1_555 1_555
H49 C33 1_555 1_555
H50 C33 1_555 1_555
C34 C33 1_555 1_555
H51 C34 1_555 1_555
H52 C34 1_555 1_555
H53 C34 1_555 1_555
C35 Sn1 1_555 1_555
H54 C35 1_555 1_555
H55 C35 1_555 1_555
C36 C35 1_555 1_555
H56 C36 1_555 1_555
H57 C36 1_555 1_555
C37 C36 1_555 1_555
H58 C37 1_555 1_555
H59 C37 1_555 1_555
C38 C37 1_555 1_555
H60 C38 1_555 1_555
H61 C38 1_555 1_555
H62 C38 1_555 1_555
N3 C40 1_555 1_555
C39 H63 1_555 1_555
C40 C39 1_555 1_555
H64 C40 1_555 1_555
C41 C39 1_555 1_555
C42 C41 1_555 1_555
H65 C42 1_555 1_555
C43 N3 1_555 1_555
H66 C43 1_555 1_555
Sn2C N2 1_555 1_555
N2C Sn2 1_555 1_555
N3B C40B 1_555 1_555
C39B H63B 1_555 1_555
C40B C39B 1_555 1_555
H64B C40B 1_555 1_555
C41B C41 1_555 1_555
C42B C41B 1_555 1_555
H65B C42B 1_555 1_555
C43B N3B 1_555 1_555
H66B C43B 1_555 1_555
C7 C8 1_555 1_555
C13 C14 1_555 1_555
C42 C43 1_555 1_555
C39B C41B 1_555 1_555
C42B C43B 1_555 1_555

#END
