
#######################################################################
#
#                 Cambridge Crystallographic Data Centre
#                                CCDC 
#
#######################################################################
#
# If this CIF has been generated from an entry in the Cambridge 
# Structural Database, then it will include bibliographic, chemical, 
# crystal, experimental, refinement or atomic coordinate data resulting 
# from the CCDC's data processing and validation procedures.
#
#######################################################################

data_TISWEZ
_symmetry_cell_setting           tetragonal
_symmetry_space_group_name_H-M   'I 41/a'
_symmetry_Int_Tables_number      88
_space_group_name_Hall           '-I 4ad'
loop_
_symmetry_equiv_pos_site_id
_symmetry_equiv_pos_as_xyz
1 x,y,z
2 1/2-x,-y,1/2+z
3 3/4-y,1/4+x,1/4+z
4 3/4+y,3/4-x,3/4+z
5 1/2+x,1/2+y,1/2+z
6 -x,1/2-y,z
7 1/4-y,3/4+x,3/4+z
8 1/4+y,1/4-x,1/4+z
9 -x,-y,-z
10 1/2+x,y,1/2-z
11 1/4+y,3/4-x,3/4-z
12 1/4-y,1/4+x,1/4-z
13 1/2-x,1/2-y,1/2-z
14 x,1/2+y,-z
15 3/4+y,1/4-x,1/4-z
16 3/4-y,3/4+x,3/4-z
_cell_length_a                   25.830(4)
_cell_length_b                   25.830(4)
_cell_length_c                   11.945(2)
_cell_angle_alpha                90
_cell_angle_beta                 90
_cell_angle_gamma                90
_cell_volume                     7969.57
loop_
_atom_site_label
_atom_site_type_symbol
_atom_site_fract_x
_atom_site_fract_y
_atom_site_fract_z
Gd1 Gd 0.29228(3) 0.81340(3) 0.75543(7)
Gd2 Gd 0.21795(3) 0.91917(3) 0.59671(6)
O1 O 0.1688(4) 0.7538(5) 0.6325(10)
O2 O 0.2741(5) 0.8982(5) 0.2543(10)
O3 O 0.2483(4) 0.8962(4) 0.7793(10)
O4 O 0.2500(4) 0.9301(4) 0.4167(9)
O5 O 0.2314(4) 0.9667(4) 0.8783(10)
O6 O 0.2164(4) 0.8254(4) 0.6332(9)
O7 O 0.2228(4) 0.7670(4) 0.8489(10)
N1 N 0.1732(5) 0.8640(5) 0.4492(12)
H1 H 0.147(7) 0.883(7) 0.419(16)
O8 O 0.3503(5) 0.8895(4) 0.4399(10)
O9 O 0.3063(4) 0.8702(5) 0.5954(10)
N2 N 0.2795(6) 0.8421(6) 0.9603(13)
H2 H 0.307(8) 0.831(8) 1.001(18)
C1 C 0.1495(6) 0.8166(7) 0.4983(15)
H3 H 0.1475 0.7900 0.4411
H4 H 0.1145 0.8244 0.5223
C2 C 0.2468(7) 0.8964(7) 0.3385(15)
C3 C 0.2506(6) 0.9233(6) 0.8696(14)
O10 O 0.3678(6) 0.8568(5) 0.8239(14)
C4 C 0.1796(6) 0.7963(6) 0.5959(14)
N3 N 0.3787(7) 0.7946(7) 0.6529(15)
H5 H 0.376(9) 0.763(9) 0.62(2)
C5 C 0.2791(7) 0.8996(7) 0.9650(16)
H6 H 0.3145 0.9121 0.9646
H7 H 0.2632 0.9105 1.0346
O11 O 0.1953(7) 0.7362(6) 1.0115(14)
C6 C 0.2097(6) 0.8520(6) 0.3593(14)
H8 H 0.1906 0.8446 0.2911
H9 H 0.2292 0.8212 0.3790
C7 C 0.3451(7) 0.8671(7) 0.5325(15)
C8 C 0.3912(9) 0.8327(9) 0.565(2)
H10 H 0.4031 0.8144 0.4987
H11 H 0.4193 0.8546 0.5906
C9 C 0.2318(7) 0.8218(8) 1.0122(17)
H12 H 0.2042 0.8470 1.0047
H13 H 0.2377 0.8158 1.0913
O12 O 0.4423(10) 0.8312(12) 0.911(3)
C10 C 0.2158(7) 0.7707(7) 0.9551(15)
C11 C 0.4097(11) 0.8317(11) 0.833(2)
C12 C 0.4202(8) 0.7907(9) 0.736(2)
H14 H 0.4534 0.7976 0.7015
H15 H 0.4211 0.7560 0.7676
Gd1L Gd 0.20772(3) 0.68660(3) 0.74457(7)
Gd2F Gd 0.33083(3) 0.96795(3) 0.34671(6)
Gd2G Gd 0.16917(3) 1.03205(3) 0.84671(6)
O1L O 0.3312(4) 0.7462(5) 0.8675(10)
O2G O 0.1482(5) 0.9759(5) 0.5043(10)
O4G O 0.1801(4) 1.0000(4) 0.6667(9)
O5F O 0.2833(4) 0.9814(4) 0.6283(10)
O7L O 0.2772(4) 0.7330(4) 0.6511(10)
O8G O 0.1395(4) 0.8997(5) 0.6899(10)
O13 O 0.4943(10) 0.5929(12) 0.9805(18)
H16 H 0.4848 0.5612 0.9904
H17 H 0.4793 0.6142 0.9388
O14 O 0.4287(5) 0.6145(6) 0.1472(13)
H18 H 0.4592 0.6118 0.1208
H19 H 0.4092 0.6381 0.1214
loop_
_geom_bond_atom_site_label_1
_geom_bond_atom_site_label_2
_geom_bond_site_symmetry_1
_geom_bond_site_symmetry_2
Gd1 O3 1_555 1_555
Gd2 O3 1_555 1_555
O1 C4 1_555 1_555
O2 C2 1_555 1_555
O3 C3 1_555 1_555
O4 Gd2 1_555 1_555
O5 C3 1_555 1_555
O6 Gd1 1_555 1_555
O7 Gd1 1_555 1_555
N1 Gd2 1_555 1_555
H1 N1 1_555 1_555
O8 C7 1_555 1_555
O9 Gd1 1_555 1_555
N2 Gd1 1_555 1_555
H2 N2 1_555 1_555
C1 N1 1_555 1_555
H3 C1 1_555 1_555
H4 C1 1_555 1_555
C2 O4 1_555 1_555
C3 C5 1_555 1_555
O10 Gd1 1_555 1_555
C4 O6 1_555 1_555
N3 Gd1 1_555 1_555
H5 N3 1_555 1_555
C5 N2 1_555 1_555
H6 C5 1_555 1_555
H7 C5 1_555 1_555
O11 C10 1_555 1_555
C6 N1 1_555 1_555
H8 C6 1_555 1_555
H9 C6 1_555 1_555
C7 O9 1_555 1_555
C8 N3 1_555 1_555
H10 C8 1_555 1_555
H11 C8 1_555 1_555
C9 N2 1_555 1_555
H12 C9 1_555 1_555
H13 C9 1_555 1_555
O12 C11 1_555 1_555
C10 O7 1_555 1_555
C11 O10 1_555 1_555
C12 N3 1_555 1_555
H14 C12 1_555 1_555
H15 C12 1_555 1_555
O13 H16 1_555 1_555
H17 O13 1_555 1_555
O14 H18 1_555 1_555
H19 O14 1_555 1_555
Gd1L O1 1_555 1_555
Gd2F O2 1_555 1_555
Gd2G O5 1_555 1_555
O1L Gd1 1_555 1_555
O2G Gd2 1_555 1_555
O4G Gd2 1_555 1_555
O5F Gd2 1_555 1_555
O7L Gd1 1_555 1_555
O8G Gd2 1_555 1_555
Gd2 O6 1_555 1_555
Gd2 O9 1_555 1_555
O4 Gd2F 1_555 1_555
O7 Gd1L 1_555 1_555
O8 Gd2F 1_555 1_555
C1 C4 1_555 1_555
C2 C6 1_555 1_555
C7 C8 1_555 1_555
C9 C10 1_555 1_555
C11 C12 1_555 1_555
Gd1L O7L 1_555 1_555
Gd2G O4G 1_555 1_555

#END
