
#######################################################################
#
#                 Cambridge Crystallographic Data Centre
#                                CCDC 
#
#######################################################################
#
# If this CIF has been generated from an entry in the Cambridge 
# Structural Database, then it will include bibliographic, chemical, 
# crystal, experimental, refinement or atomic coordinate data resulting 
# from the CCDC's data processing and validation procedures.
#
#######################################################################

data_TITBIJ
_symmetry_cell_setting           orthorhombic
_symmetry_space_group_name_H-M   'P c c n'
_symmetry_Int_Tables_number      56
_space_group_name_Hall           '-P 2ab 2ac'
loop_
_symmetry_equiv_pos_site_id
_symmetry_equiv_pos_as_xyz
1 x,y,z
2 1/2-x,1/2-y,z
3 -x,1/2+y,1/2-z
4 1/2+x,-y,1/2-z
5 -x,-y,-z
6 1/2+x,1/2+y,-z
7 x,1/2-y,1/2+z
8 1/2-x,y,1/2+z
_cell_length_a                   14.531(2)
_cell_length_b                   21.960(2)
_cell_length_c                   9.8361(14)
_cell_angle_alpha                90
_cell_angle_beta                 90
_cell_angle_gamma                90
_cell_volume                     3138.71
loop_
_atom_site_label
_atom_site_type_symbol
_atom_site_fract_x
_atom_site_fract_y
_atom_site_fract_z
Zn1 Zn 0.14161(4) 0.36740(2) 0.08943(6)
N1 N 0.0938(3) 0.2832(2) 0.0915(5)
C1 C -0.1385(3) 0.5675(2) 0.1883(5)
N2 N -0.1721(3) 0.61221(19) 0.1068(4)
O1 O 0.0522(3) 0.43027(17) 0.1301(4)
N3 N -0.2377(3) 0.64157(18) 0.1742(5)
C2 C -0.1000(4) 0.4873(3) 0.3925(6)
H1 H -0.0850 0.4602 0.4615
C3 C 0.0154(4) 0.4320(2) 0.2466(6)
N4 N -0.2467(3) 0.61733(18) 0.2985(5)
C4 C -0.0537(4) 0.4828(2) 0.2672(6)
C5 C -0.1843(4) 0.5705(2) 0.3109(6)
O2 O 0.0313(3) 0.3965(2) 0.3384(5)
C6 C -0.0712(3) 0.5222(2) 0.1643(6)
H2 H -0.0403 0.5196 0.0817
C7 C -0.1656(4) 0.5299(3) 0.4162(6)
H3 H -0.1966 0.5320 0.4988
N5 N 0.0642(6) 0.1917(2) 0.0239(8)
H4 H 0.0675 0.1582 -0.0211
C8 C 0.1162(5) 0.2399(3) 0.0055(9)
H5 H 0.1624 0.2430 -0.0595
C9 C 0.0271(6) 0.2593(4) 0.1662(10)
H6 H -0.0014 0.2786 0.2391
C10 C 0.0069(9) 0.2035(4) 0.1218(12)
H7 H -0.0392 0.1781 0.1545
Zn1C Zn -0.35839(4) 0.63260(2) 0.41057(6)
Zn1D Zn -0.14161(4) 0.63260(2) -0.08943(6)
N2D N 0.1721(3) 0.38779(19) -0.1068(4)
N4C N 0.2533(3) 0.38267(18) 0.2015(5)
N6 N -0.1943(15) 0.1256(7) 0.356(2)
C11 C -0.1782(11) 0.0826(9) 0.237(2)
H8 H -0.1251 0.0578 0.2555
H9 H -0.1681 0.1058 0.1559
H10 H -0.2311 0.0569 0.2256
C12 C -0.134(2) 0.1393(14) 0.451(4)
H11 H -0.1600 0.1692 0.5111
H12 H -0.0794 0.1554 0.4098
H13 H -0.1191 0.1033 0.5017
O3 O -0.285(3) 0.1760(13) 0.467(5)
C13 C -0.2871(19) 0.1643(11) 0.321(3)
H14 H -0.3232 0.1740 0.2457
loop_
_geom_bond_atom_site_label_1
_geom_bond_atom_site_label_2
_geom_bond_site_symmetry_1
_geom_bond_site_symmetry_2
Zn1 N1 1_555 1_555
N1 C8 1_555 1_555
C1 N2 1_555 1_555
N2 N3 1_555 1_555
O1 Zn1 1_555 1_555
N3 N4 1_555 1_555
C2 H1 1_555 1_555
C3 O1 1_555 1_555
N4 C5 1_555 1_555
C4 C2 1_555 1_555
C5 C1 1_555 1_555
O2 C3 1_555 1_555
C6 C1 1_555 1_555
H2 C6 1_555 1_555
C7 C2 1_555 1_555
H3 C7 1_555 1_555
N5 H4 1_555 1_555
C8 N5 1_555 1_555
H5 C8 1_555 1_555
C9 N1 1_555 1_555
H6 C9 1_555 1_555
C10 N5 1_555 1_555
H7 C10 1_555 1_555
N6 C11 1_555 1_555
C11 H8 1_555 1_555
H9 C11 1_555 1_555
H10 C11 1_555 1_555
C12 N6 1_555 1_555
H11 C12 1_555 1_555
H12 C12 1_555 1_555
H13 C12 1_555 1_555
O3 C13 1_555 1_555
C13 N6 1_555 1_555
H14 C13 1_555 1_555
Zn1C N4 1_555 1_555
Zn1D N2 1_555 1_555
N2D Zn1 1_555 1_555
N4C Zn1 1_555 1_555
C3 C4 1_555 1_555
C4 C6 1_555 1_555
C5 C7 1_555 1_555
C9 C10 1_555 1_555

#END
