
#######################################################################
#
#                 Cambridge Crystallographic Data Centre
#                                CCDC 
#
#######################################################################
#
# If this CIF has been generated from an entry in the Cambridge 
# Structural Database, then it will include bibliographic, chemical, 
# crystal, experimental, refinement or atomic coordinate data resulting 
# from the CCDC's data processing and validation procedures.
#
#######################################################################

data_TITBUV
_symmetry_cell_setting           monoclinic
_symmetry_space_group_name_H-M   'P 21'
_symmetry_Int_Tables_number      4
_space_group_name_Hall           'P 2yb'
loop_
_symmetry_equiv_pos_site_id
_symmetry_equiv_pos_as_xyz
1 x,y,z
2 -x,1/2+y,-z
_cell_length_a                   10.1264(10)
_cell_length_b                   15.0101(8)
_cell_length_c                   17.4862(18)
_cell_angle_alpha                90
_cell_angle_beta                 106.359(6)
_cell_angle_gamma                90
_cell_volume                     2550.27
loop_
_atom_site_label
_atom_site_type_symbol
_atom_site_fract_x
_atom_site_fract_y
_atom_site_fract_z
Zn1 Zn 1.09807(7) 1.55096(5) 0.84164(4)
Zn2 Zn 1.41104(7) 1.23888(5) 1.16927(4)
Zn3 Zn 1.22740(7) 1.58213(5) 1.54309(4)
N1 N 1.3553(6) 1.6435(4) 0.8469(4)
O1 O 1.4218(6) 1.3519(4) 1.1132(3)
N2 N 1.1530(6) 1.1547(4) 1.1766(4)
O2 O 1.0893(6) 1.4520(4) 0.9087(3)
N3 N 1.2998(5) 1.5824(4) 0.8860(3)
O3 O 0.8654(6) 1.1621(3) 0.5433(3)
N4 N 1.0143(6) 1.1524(4) 1.1384(3)
O4 O 0.9322(6) 1.2368(4) 0.4510(3)
O5 O 1.3205(6) 1.4807(4) 1.5123(3)
N5 N 1.2022(6) 1.2188(4) 1.1347(3)
N6 N 1.4905(6) 1.6459(5) 0.8763(3)
N7 N 1.0723(6) 1.5186(4) 0.7281(3)
C1 C 1.4061(6) 1.5431(5) 0.9417(4)
C2 C 1.5291(7) 1.5822(6) 0.9345(4)
N8 N 1.5775(6) 1.1635(4) 1.3149(3)
N9 N 1.6140(6) 1.1621(4) 1.3928(3)
N10 N 1.4793(6) 1.2265(4) 1.2853(3)
C3 C 0.9751(8) 1.4195(5) 0.9113(5)
C4 C 0.8533(7) 1.2431(7) 1.0300(6)
H1 H 0.7713 1.2160 1.0313
O6 O 1.6530(6) 1.3491(5) 1.1442(4)
C5 C 1.5385(8) 1.3804(5) 1.1077(4)
C6 C 1.1029(7) 1.2592(5) 1.0813(4)
N11 N 1.1299(5) 1.5710(4) 0.6828(3)
O7 O 0.8656(6) 1.4455(5) 0.8667(3)
C7 C 0.9783(8) 1.3504(5) 0.9747(4)
C8 C 1.4553(6) 1.2671(4) 1.3521(4)
C9 C 1.6581(8) 1.5500(7) 0.9834(5)
H2 H 1.7406 1.5750 0.9805
C10 C 1.0266(7) 1.3792(5) 0.5581(4)
H3 H 1.0449 1.3837 0.5090
C11 C 0.9808(7) 1.2172(5) 1.0845(4)
C12 C 0.9621(8) 1.3049(5) 0.5775(4)
C13 C 0.9185(7) 1.2314(5) 0.5169(4)
C14 C 1.4075(7) 1.4779(5) 0.9975(4)
H4 H 1.3261 1.4530 1.0023
C15 C 1.1046(7) 1.3261(5) 1.0243(4)
H5 H 1.1860 1.3520 1.0206
N12 N 1.1217(6) 1.5295(4) 0.6138(3)
C16 C 1.5327(7) 1.4508(6) 1.0457(4)
C17 C 0.8544(8) 1.3065(6) 0.9776(4)
H6 H 0.7717 1.3232 0.9414
C18 C 1.6568(8) 1.4847(6) 1.0324(5)
H7 H 1.7401 1.4589 1.0599
C19 C 1.0640(7) 1.4482(4) 0.6151(4)
C20 C 1.3672(7) 1.3356(5) 1.3609(4)
H8 H 1.3052 1.3604 1.3164
C21 C 1.2851(8) 1.4391(5) 1.4493(5)
C22 C 1.3728(8) 1.3650(5) 1.4333(5)
C23 C 1.5444(7) 1.2270(5) 1.4184(4)
C24 C 1.0265(7) 1.4430(5) 0.6853(4)
C25 C 0.9649(9) 1.3661(6) 0.7072(5)
H9 H 0.9500 1.3606 0.7571
C26 C 1.4636(9) 1.3267(6) 1.5017(5)
H10 H 1.4671 1.3497 1.5516
C27 C 1.5494(8) 1.2544(6) 1.4964(5)
H11 H 1.6057 1.2266 1.5413
O8 O 1.1795(9) 1.4552(6) 1.3931(4)
C28 C 0.9284(8) 1.3000(6) 0.6511(4)
H12 H 0.8804 1.2507 0.6614
Zn1A Zn 0.90193(7) 1.05096(5) 1.15836(4)
Zn2A Zn 1.58896(7) 1.73888(5) 0.83073(4)
Zn3_2 Zn 1.22740(7) 1.58213(5) 0.54309(4)
Zn3A Zn 0.77260(7) 1.08213(5) 0.45691(4)
Zn3A_2 Zn 1.77260(7) 1.08213(5) 1.45691(4)
O3A O 1.1346(6) 1.6621(3) 1.4567(3)
N4A N 0.9857(6) 1.6524(4) 0.8616(3)
N6A N 1.5095(6) 1.1459(5) 1.1237(3)
N9A N 1.3860(6) 1.6621(4) 1.6072(3)
N12_2 N 1.1217(6) 1.5295(4) 1.6138(3)
loop_
_geom_bond_atom_site_label_1
_geom_bond_atom_site_label_2
_geom_bond_site_symmetry_1
_geom_bond_site_symmetry_2
Zn1 O2 1_555 1_555
Zn2 O1 1_555 1_555
Zn3 O5 1_555 1_555
N1 N3 1_555 1_555
O1 C5 1_555 1_555
N2 N4 1_555 1_555
O2 C3 1_555 1_555
N3 Zn1 1_555 1_555
O3 C13 1_555 1_555
N4 C11 1_555 1_555
O4 C13 1_555 1_555
O5 C21 1_555 1_555
N5 Zn2 1_555 1_555
N6 N1 1_555 1_555
N7 Zn1 1_555 1_555
C1 N3 1_555 1_555
C2 N6 1_555 1_555
N8 N9 1_555 1_555
N9 C23 1_555 1_555
N10 Zn2 1_555 1_555
C3 O7 1_555 1_555
C4 H1 1_555 1_555
O6 C5 1_555 1_555
C5 C16 1_555 1_555
C6 N5 1_555 1_555
N11 N7 1_555 1_555
C7 C3 1_555 1_555
C8 N10 1_555 1_555
C9 C2 1_555 1_555
H2 C9 1_555 1_555
C10 H3 1_555 1_555
C11 C4 1_555 1_555
C12 C10 1_555 1_555
C13 C12 1_555 1_555
C14 C1 1_555 1_555
H4 C14 1_555 1_555
C15 C6 1_555 1_555
H5 C15 1_555 1_555
N12 N11 1_555 1_555
C16 C14 1_555 1_555
C17 C4 1_555 1_555
H6 C17 1_555 1_555
C18 C9 1_555 1_555
H7 C18 1_555 1_555
C19 C10 1_555 1_555
C20 C8 1_555 1_555
H8 C20 1_555 1_555
C21 C22 1_555 1_555
C22 C20 1_555 1_555
C23 C8 1_555 1_555
C24 N7 1_555 1_555
C25 C24 1_555 1_555
H9 C25 1_555 1_555
C26 C22 1_555 1_555
H10 C26 1_555 1_555
C27 C23 1_555 1_555
H11 C27 1_555 1_555
O8 C21 1_555 1_555
C28 C12 1_555 1_555
H12 C28 1_555 1_555
Zn1A N4 1_555 1_555
Zn2A N6 1_555 1_555
Zn3_2 N12 1_555 1_555
Zn3A O3 1_555 1_555
Zn3A_2 N9 1_555 1_555
O3A Zn3 1_555 1_555
N4A Zn1 1_555 1_555
N6A Zn2 1_555 1_555
N9A Zn3 1_555 1_555
N12_2 Zn3 1_555 1_555
N2 N5 1_555 1_555
C1 C2 1_555 1_555
N8 N10 1_555 1_555
C6 C11 1_555 1_555
C7 C15 1_555 1_555
C7 C17 1_555 1_555
N12 C19 1_555 1_555
C16 C18 1_555 1_555
C19 C24 1_555 1_555
C25 C28 1_555 1_555
C26 C27 1_555 1_555

#END
