
#######################################################################
#
#                 Cambridge Crystallographic Data Centre
#                                CCDC 
#
#######################################################################
#
# If this CIF has been generated from an entry in the Cambridge 
# Structural Database, then it will include bibliographic, chemical, 
# crystal, experimental, refinement or atomic coordinate data resulting 
# from the CCDC's data processing and validation procedures.
#
#######################################################################

data_TITBEF
_symmetry_cell_setting           orthorhombic
_symmetry_space_group_name_H-M   'P n a 21'
_symmetry_Int_Tables_number      33
_space_group_name_Hall           'P 2c -2n'
loop_
_symmetry_equiv_pos_site_id
_symmetry_equiv_pos_as_xyz
1 x,y,z
2 -x,-y,1/2+z
3 1/2-x,1/2+y,1/2+z
4 1/2+x,1/2-y,z
_cell_length_a                   16.6901(11)
_cell_length_b                   8.1097(13)
_cell_length_c                   20.2890(12)
_cell_angle_alpha                90
_cell_angle_beta                 90
_cell_angle_gamma                90
_cell_volume                     2746.15
loop_
_atom_site_label
_atom_site_type_symbol
_atom_site_fract_x
_atom_site_fract_y
_atom_site_fract_z
Zn1 Zn -0.07808(7) -0.4261(2) 0.59028(6)
Zn2 Zn -0.20595(7) -0.92690(19) 0.76466(6)
N1 N -0.1996(7) -0.7941(15) 0.6806(5)
O1 O 0.1837(4) -0.5052(10) 0.7640(5)
O2 O -0.4655(4) -1.0112(11) 0.5899(5)
O3 O -0.4726(4) -0.8989(12) 0.4900(4)
N2 N -0.0850(6) -0.2967(16) 0.6758(6)
C1 C -0.2140(6) -0.6924(16) 0.5817(7)
C2 C -0.2488(7) -0.6678(18) 0.5170(7)
H1 H -0.2249 -0.6032 0.4847
C3 C 0.1534(7) -0.4363(18) 0.8152(6)
C4 C -0.4382(7) -0.9254(18) 0.5434(6)
O4 O 0.1851(5) -0.4150(14) 0.8673(4)
N3 N -0.1404(7) -0.6871(17) 0.6691(5)
N4 N -0.1461(6) -0.6232(14) 0.6088(4)
C5 C -0.0708(7) -0.1977(18) 0.7775(7)
N5 N -0.1351(6) -0.1266(13) 0.7473(5)
C6 C 0.0363(8) -0.2566(16) 0.8504(7)
H2 H 0.0628 -0.2398 0.8902
C7 C -0.0357(8) -0.1749(18) 0.8378(6)
H3 H -0.0591 -0.1070 0.8693
N6 N -0.1632(6) -0.7979(13) 0.8382(5)
C8 C -0.2454(7) -0.7994(16) 0.6256(6)
N7 N -0.1116(7) -0.2783(17) 0.5173(6)
N8 N -0.1440(6) -0.1870(13) 0.6869(5)
C9 C -0.1027(9) -0.303(2) 0.4562(8)
H4 H -0.0847 -0.4011 0.4378
C10 C -0.3208(7) -0.7489(19) 0.5076(7)
H5 H -0.3473 -0.7350 0.4676
C11 C -0.3554(6) -0.8497(16) 0.5547(5)
C12 C -0.0390(8) -0.3050(17) 0.7310(6)
C13 C -0.1153(9) -0.6704(19) 0.8365(8)
H6 H -0.0940 -0.6267 0.7979
C14 C 0.0693(8) -0.3654(17) 0.8026(5)
C15 C -0.3185(6) -0.8809(18) 0.6152(6)
H7 H -0.3408 -0.9510 0.6464
C16 C 0.0339(7) -0.3898(18) 0.7432(6)
H8 H 0.0565 -0.4592 0.7118
C17 C -0.1756(9) -0.824(2) 0.9029(7)
H9 H -0.2056 -0.9103 0.9201
N9 N -0.1006(7) -0.6098(17) 0.8970(6)
H10 H -0.0721 -0.5245 0.9061
C18 C -0.1382(9) -0.706(2) 0.9399(8)
H11 H -0.1390 -0.6953 0.9855
N10 N -0.1221(8) -0.1704(18) 0.4221(6)
H12 H -0.1190 -0.1615 0.3799
C19 C -0.1469(10) -0.053(2) 0.4627(8)
H13 H -0.1641 0.0528 0.4521
C20 C -0.1413(10) -0.123(2) 0.5234(8)
H14 H -0.1555 -0.0728 0.5628
Zn1C Zn -0.57808(7) -1.0739(2) 0.59028(6)
Zn2_2 Zn -0.20595(7) 0.07310(19) 0.76466(6)
Zn2C Zn 0.29405(7) -0.57310(19) 0.76466(6)
O1C O -0.3163(4) -0.9948(10) 0.7640(5)
O2C O 0.0345(4) -0.4888(11) 0.5899(5)
N5_2 N -0.1351(6) -1.1266(13) 0.7473(5)
O5 O -0.1029(9) -0.1311(16) 0.2891(6)
N11 N -0.1109(11) -0.005(2) 0.1912(8)
C21 C -0.1287(12) -0.048(2) 0.2471(10)
C22 C -0.2094(11) 0.041(3) 0.2631(15)
H15 H -0.2490 0.0106 0.2310
H16 H -0.2016 0.1583 0.2621
H17 H -0.2274 0.0087 0.3062
C23 C -0.1404(16) 0.099(3) 0.1456(10)
H18 H -0.1886 0.1486 0.1619
H19 H -0.1521 0.0381 0.1060
H20 H -0.1016 0.1826 0.1361
C24 C -0.0298(11) -0.104(3) 0.1767(12)
H21 H -0.0398 -0.2201 0.1804
H22 H 0.0104 -0.0720 0.2080
H23 H -0.0115 -0.0791 0.1329
loop_
_geom_bond_atom_site_label_1
_geom_bond_atom_site_label_2
_geom_bond_site_symmetry_1
_geom_bond_site_symmetry_2
Zn1 N2 1_555 1_555
Zn2 N1 1_555 1_555
N1 N3 1_555 1_555
O1 C3 1_555 1_555
O2 C4 1_555 1_555
O3 C4 1_555 1_555
N2 N8 1_555 1_555
C1 C2 1_555 1_555
C2 H1 1_555 1_555
C3 O4 1_555 1_555
C4 C11 1_555 1_555
N3 N4 1_555 1_555
N4 Zn1 1_555 1_555
C5 N5 1_555 1_555
N5 N8 1_555 1_555
C6 H2 1_555 1_555
C7 C5 1_555 1_555
H3 C7 1_555 1_555
N6 Zn2 1_555 1_555
C8 N1 1_555 1_555
N7 Zn1 1_555 1_555
C9 N7 1_555 1_555
H4 C9 1_555 1_555
C10 C2 1_555 1_555
H5 C10 1_555 1_555
C11 C10 1_555 1_555
C12 N2 1_555 1_555
C13 N6 1_555 1_555
H6 C13 1_555 1_555
C14 C3 1_555 1_555
C15 C8 1_555 1_555
H7 C15 1_555 1_555
C16 C12 1_555 1_555
H8 C16 1_555 1_555
C17 N6 1_555 1_555
H9 C17 1_555 1_555
N9 C13 1_555 1_555
H10 N9 1_555 1_555
C18 C17 1_555 1_555
H11 C18 1_555 1_555
N10 C9 1_555 1_555
H12 N10 1_555 1_555
C19 N10 1_555 1_555
H13 C19 1_555 1_555
C20 N7 1_555 1_555
H14 C20 1_555 1_555
O5 C21 1_555 1_555
N11 C21 1_555 1_555
C21 C22 1_555 1_555
C22 H15 1_555 1_555
H16 C22 1_555 1_555
H17 C22 1_555 1_555
C23 N11 1_555 1_555
H18 C23 1_555 1_555
H19 C23 1_555 1_555
H20 C23 1_555 1_555
C24 N11 1_555 1_555
H21 C24 1_555 1_555
H22 C24 1_555 1_555
H23 C24 1_555 1_555
Zn1C O2 1_555 1_555
Zn2_2 N5 1_555 1_555
Zn2C O1 1_555 1_555
O1C Zn2 1_555 1_555
O2C Zn1 1_555 1_555
N5_2 Zn2 1_555 1_555
C1 N4 1_555 1_555
C1 C8 1_555 1_555
C5 C12 1_555 1_555
C6 C7 1_555 1_555
C6 C14 1_555 1_555
C11 C15 1_555 1_555
C14 C16 1_555 1_555
N9 C18 1_555 1_555
C19 C20 1_555 1_555

#END
