
#######################################################################
#
#                 Cambridge Crystallographic Data Centre
#                                CCDC 
#
#######################################################################
#
# If this CIF has been generated from an entry in the Cambridge 
# Structural Database, then it will include bibliographic, chemical, 
# crystal, experimental, refinement or atomic coordinate data resulting 
# from the CCDC's data processing and validation procedures.
#
#######################################################################

data_TITGOU
_symmetry_cell_setting           orthorhombic
_symmetry_space_group_name_H-M   'P b c a'
_symmetry_Int_Tables_number      61
_space_group_name_Hall           '-P 2ac 2ab'
loop_
_symmetry_equiv_pos_site_id
_symmetry_equiv_pos_as_xyz
1 x,y,z
2 1/2-x,-y,1/2+z
3 1/2+x,1/2-y,-z
4 -x,1/2+y,1/2-z
5 -x,-y,-z
6 1/2+x,y,1/2-z
7 1/2-x,1/2+y,z
8 x,1/2-y,1/2+z
_cell_length_a                   8.4693(6)
_cell_length_b                   14.3050(10)
_cell_length_c                   15.7364(14)
_cell_angle_alpha                90
_cell_angle_beta                 90
_cell_angle_gamma                90
_cell_volume                     1906.52
loop_
_atom_site_label
_atom_site_type_symbol
_atom_site_fract_x
_atom_site_fract_y
_atom_site_fract_z
C1 C 0.2744(3) 0.46717(16) 0.37833(14)
H1 H 0.2132 0.4203 0.3540
C2 C 0.4231(3) 0.48426(17) 0.34535(16)
H2 H 0.4615 0.4494 0.3000
C3 C 0.5134(3) 0.55463(18) 0.38150(16)
H3 H 0.6137 0.5677 0.3605
C4 C 0.4534(3) 0.60516(17) 0.44896(15)
H4 H 0.5130 0.6525 0.4737
C5 C 0.3027(3) 0.58475(16) 0.47973(14)
C6 C 0.2308(3) 0.63114(15) 0.55295(14)
C7 C 0.3056(3) 0.71238(16) 0.59564(15)
C8 C 0.3316(3) 0.71345(18) 0.68325(15)
H5 H 0.3011 0.6630 0.7167
C9 C 0.4032(3) 0.79023(18) 0.71963(16)
H6 H 0.4246 0.7915 0.7776
C10 C 0.4425(3) 0.86535(18) 0.66832(16)
H7 H 0.4894 0.9173 0.6934
C11 C 0.3498(3) 0.79123(16) 0.54981(15)
H8 H 0.3320 0.7914 0.4915
N1 N 0.2153(2) 0.51551(13) 0.44388(12)
N2 N 0.4163(2) 0.86698(14) 0.58457(13)
N3 N 0.0963(2) 0.59633(13) 0.57926(12)
O1 O 0.0264(2) 0.63158(13) 0.64500(11)
Cu1 Cu 0.0000 0.5000 0.5000
C1D C -0.2744(3) 0.53283(16) 0.62167(14)
H1D H -0.2132 0.5797 0.6460
C2D C -0.4231(3) 0.51574(17) 0.65465(16)
H2D H -0.4615 0.5506 0.7000
C3D C -0.5134(3) 0.44537(18) 0.61850(16)
H3D H -0.6137 0.4323 0.6395
C4D C -0.4534(3) 0.39484(17) 0.55104(15)
H4D H -0.5130 0.3475 0.5263
C5D C -0.3027(3) 0.41525(16) 0.52027(14)
C6D C -0.2308(3) 0.36886(15) 0.44705(14)
C7D C -0.3056(3) 0.28762(16) 0.40436(15)
C8D C -0.3316(3) 0.28655(18) 0.31675(15)
H5D H -0.3011 0.3370 0.2833
C9D C -0.4032(3) 0.20977(18) 0.28037(16)
H6D H -0.4246 0.2085 0.2224
C10D C -0.4425(3) 0.13465(18) 0.33168(16)
H7D H -0.4894 0.0827 0.3066
C11D C -0.3498(3) 0.20877(16) 0.45019(15)
H8D H -0.3320 0.2086 0.5085
N1D N -0.2153(2) 0.48449(13) 0.55612(12)
N2D N -0.4163(2) 0.13302(14) 0.41543(13)
N3D N -0.0963(2) 0.40367(13) 0.42074(12)
O1D O -0.0264(2) 0.36842(13) 0.35500(11)
N2B N -0.0837(2) 0.63302(14) 0.41543(13)
N2F N 0.0837(2) 0.36698(14) 0.58457(13)
Cu1B Cu -0.5000 0.0000 0.5000
Cu1B_2 Cu 0.5000 1.0000 0.5000
loop_
_geom_bond_atom_site_label_1
_geom_bond_atom_site_label_2
_geom_bond_site_symmetry_1
_geom_bond_site_symmetry_2
C1 H1 1_555 1_555
C2 C1 1_555 1_555
H2 C2 1_555 1_555
C3 C2 1_555 1_555
H3 C3 1_555 1_555
C4 C3 1_555 1_555
H4 C4 1_555 1_555
C5 C4 1_555 1_555
C6 C5 1_555 1_555
C7 C6 1_555 1_555
C8 C7 1_555 1_555
H5 C8 1_555 1_555
C9 C8 1_555 1_555
H6 C9 1_555 1_555
C10 C9 1_555 1_555
H7 C10 1_555 1_555
C11 C7 1_555 1_555
H8 C11 1_555 1_555
N1 C1 1_555 1_555
N2 C10 1_555 1_555
N3 C6 1_555 1_555
O1 N3 1_555 1_555
Cu1 N1 1_555 1_555
C1D H1D 1_555 1_555
C2D C1D 1_555 1_555
H2D C2D 1_555 1_555
C3D C2D 1_555 1_555
H3D C3D 1_555 1_555
C4D C3D 1_555 1_555
H4D C4D 1_555 1_555
C5D C4D 1_555 1_555
C6D C5D 1_555 1_555
C7D C6D 1_555 1_555
C8D C7D 1_555 1_555
H5D C8D 1_555 1_555
C9D C8D 1_555 1_555
H6D C9D 1_555 1_555
C10D C9D 1_555 1_555
H7D C10D 1_555 1_555
C11D C7D 1_555 1_555
H8D C11D 1_555 1_555
N1D Cu1 1_555 1_555
N2D C10D 1_555 1_555
N3D Cu1 1_555 1_555
O1D N3D 1_555 1_555
N2B Cu1 1_555 1_555
N2F Cu1 1_555 1_555
Cu1B N2D 1_555 1_555
Cu1B_2 N2 1_555 1_555
C5 N1 1_555 1_555
C11 N2 1_555 1_555
N3 Cu1 1_555 1_555
C1D N1D 1_555 1_555
C5D N1D 1_555 1_555
C6D N3D 1_555 1_555
C11D N2D 1_555 1_555

#END
