
#######################################################################
#
#                 Cambridge Crystallographic Data Centre
#                                CCDC 
#
#######################################################################
#
# If this CIF has been generated from an entry in the Cambridge 
# Structural Database, then it will include bibliographic, chemical, 
# crystal, experimental, refinement or atomic coordinate data resulting 
# from the CCDC's data processing and validation procedures.
#
#######################################################################

data_TITGUA
_symmetry_cell_setting           monoclinic
_symmetry_space_group_name_H-M   'P 21/n'
_symmetry_Int_Tables_number      14
_space_group_name_Hall           '-P 2yn'
loop_
_symmetry_equiv_pos_site_id
_symmetry_equiv_pos_as_xyz
1 x,y,z
2 1/2-x,1/2+y,1/2-z
3 -x,-y,-z
4 1/2+x,1/2-y,1/2+z
_cell_length_a                   11.6390(9)
_cell_length_b                   15.3802(12)
_cell_length_c                   14.9492(11)
_cell_angle_alpha                90
_cell_angle_beta                 99.3400(4)
_cell_angle_gamma                90
_cell_volume                     2640.58
loop_
_atom_site_label
_atom_site_type_symbol
_atom_site_fract_x
_atom_site_fract_y
_atom_site_fract_z
C1 C 0.1845(2) 0.26168(14) -0.14929(15)
H1 H 0.1852 0.3010 -0.1965
C2 C 0.1413(2) 0.28871(14) -0.07296(15)
H2 H 0.1113 0.3445 -0.0699
C3 C 0.1433(2) 0.23134(15) -0.00108(15)
H3 H 0.1128 0.2474 0.0503
C4 C 0.19167(19) 0.14947(14) -0.00748(14)
H4 H 0.1967 0.1107 0.0407
C5 C 0.23233(18) 0.12594(13) -0.08605(14)
C6 C 0.28755(18) 0.04167(14) -0.09779(14)
C7 C 0.30225(19) -0.02412(13) -0.02365(14)
C8 C 0.2349(2) -0.09922(14) -0.02995(14)
H5 H 0.1851 -0.1126 -0.0833
C9 C 0.24318(19) -0.15380(14) 0.04445(15)
H6 H 0.1965 -0.2032 0.0401
C10 C 0.38332(19) -0.06816(14) 0.12665(15)
H7 H 0.4362 -0.0582 0.1794
C11 C 0.37919(19) -0.00905(14) 0.05638(14)
H8 H 0.4269 0.0398 0.0625
C12 C 0.07231(19) 0.23678(14) -0.37455(15)
H9 H 0.0661 0.2643 -0.3201
C13 C -0.0013(2) 0.26301(14) -0.45282(15)
H10 H -0.0566 0.3061 -0.4504
C14 C 0.0095(2) 0.22386(15) -0.53415(15)
H11 H -0.0375 0.2412 -0.5875
C15 C 0.09126(19) 0.15824(14) -0.53545(15)
H12 H 0.1004 0.1314 -0.5896
C16 C 0.15915(18) 0.13353(14) -0.45417(14)
C17 C 0.24230(18) 0.06137(14) -0.44764(14)
C18 C 0.25620(19) 0.00430(14) -0.52504(14)
C19 C 0.35903(19) 0.00404(14) -0.56032(14)
H13 H 0.4181 0.0433 -0.5392
C20 C 0.37292(19) -0.05526(14) -0.62727(14)
H14 H 0.4428 -0.0553 -0.6498
C21 C 0.1896(2) -0.10978(15) -0.62919(15)
H15 H 0.1306 -0.1478 -0.6535
C22 C 0.1687(2) -0.05319(15) -0.56164(15)
H16 H 0.0974 -0.0536 -0.5411
N1 N 0.22549(16) 0.18128(11) -0.15804(12)
N2 N 0.31553(16) -0.13881(11) 0.12295(12)
N3 N 0.31993(16) 0.03087(11) -0.17570(12)
N4 N 0.15122(16) 0.17394(11) -0.37429(12)
N5 N 0.29058(16) -0.11271(11) -0.66137(12)
N6 N 0.29947(16) 0.04801(11) -0.36712(12)
O1 O 0.37357(14) -0.04362(10) -0.19169(10)
H17 H 0.381(2) -0.0334(17) -0.2642(17)
O2 O 0.37489(13) -0.01853(9) -0.35299(10)
Cu1 Cu 0.26954(2) 0.124749(16) -0.268979(16)
Cu2 Cu 0.31739(2) -0.204811(17) 0.242383(17)
I1 I 0.547438(12) -0.241628(9) 0.293874(9)
I2 I 0.168371(13) -0.327256(9) 0.240032(10)
N5_2 N 0.29058(16) -0.11271(11) 0.33863(12)
Cu1B Cu 0.73046(2) -0.124749(16) 0.268979(16)
Cu2_2 Cu 0.31739(2) -0.204811(17) -0.757617(17)
I1B I 0.452562(12) 0.241628(9) -0.293874(9)
C23 C 0.0661(3) 0.0066(2) 0.1699(2)
H18 H 0.1301 0.0443 0.1924
H19 H 0.0260 0.0288 0.1132
H20 H 0.0949 -0.0507 0.1609
C24 C -0.0111(3) 0.00300(18) 0.2328(2)
N7 N -0.0710(2) -0.0032(2) 0.2838(2)
loop_
_geom_bond_atom_site_label_1
_geom_bond_atom_site_label_2
_geom_bond_site_symmetry_1
_geom_bond_site_symmetry_2
C1 H1 1_555 1_555
C2 C1 1_555 1_555
H2 C2 1_555 1_555
C3 C2 1_555 1_555
H3 C3 1_555 1_555
C4 C3 1_555 1_555
H4 C4 1_555 1_555
C5 C4 1_555 1_555
C6 C5 1_555 1_555
C7 C6 1_555 1_555
C8 C7 1_555 1_555
H5 C8 1_555 1_555
C9 C8 1_555 1_555
H6 C9 1_555 1_555
C10 H7 1_555 1_555
C11 C7 1_555 1_555
H8 C11 1_555 1_555
C12 H9 1_555 1_555
C13 C12 1_555 1_555
H10 C13 1_555 1_555
C14 C13 1_555 1_555
H11 C14 1_555 1_555
C15 C14 1_555 1_555
H12 C15 1_555 1_555
C16 C15 1_555 1_555
C17 C16 1_555 1_555
C18 C17 1_555 1_555
C19 C18 1_555 1_555
H13 C19 1_555 1_555
C20 C19 1_555 1_555
H14 C20 1_555 1_555
C21 H15 1_555 1_555
C22 C18 1_555 1_555
H16 C22 1_555 1_555
N1 C1 1_555 1_555
N2 C9 1_555 1_555
N3 C6 1_555 1_555
N4 C12 1_555 1_555
N5 C20 1_555 1_555
N6 C17 1_555 1_555
O1 N3 1_555 1_555
H17 O1 1_555 1_555
O2 N6 1_555 1_555
Cu1 N1 1_555 1_555
Cu2 N2 1_555 1_555
I1 Cu2 1_555 1_555
I2 Cu2 1_555 1_555
C23 H18 1_555 1_555
H19 C23 1_555 1_555
H20 C23 1_555 1_555
C24 C23 1_555 1_555
N7 C24 1_555 1_555
N5_2 Cu2 1_555 1_555
Cu1B I1 1_555 1_555
Cu2_2 N5 1_555 1_555
I1B Cu1 1_555 1_555
C5 N1 1_555 1_555
C10 C11 1_555 1_555
C10 N2 1_555 1_555
C16 N4 1_555 1_555
C21 C22 1_555 1_555
C21 N5 1_555 1_555
N3 Cu1 1_555 1_555
N4 Cu1 1_555 1_555
N6 Cu1 1_555 1_555

#END
