
#######################################################################
#
#                 Cambridge Crystallographic Data Centre
#                                CCDC 
#
#######################################################################
#
# If this CIF has been generated from an entry in the Cambridge 
# Structural Database, then it will include bibliographic, chemical, 
# crystal, experimental, refinement or atomic coordinate data resulting 
# from the CCDC's data processing and validation procedures.
#
#######################################################################

data_TITHEL
_symmetry_cell_setting           monoclinic
_symmetry_space_group_name_H-M   'C 2/c'
_symmetry_Int_Tables_number      15
_space_group_name_Hall           '-C 2yn'
loop_
_symmetry_equiv_pos_site_id
_symmetry_equiv_pos_as_xyz
1 x,y,z
2 -x,y,1/2-z
3 1/2+x,1/2+y,z
4 1/2-x,1/2+y,1/2-z
5 -x,-y,-z
6 x,-y,1/2+z
7 1/2-x,1/2-y,-z
8 1/2+x,1/2-y,1/2+z
_cell_length_a                   12.6943(3)
_cell_length_b                   32.7813(7)
_cell_length_c                   24.8035(5)
_cell_angle_alpha                90
_cell_angle_beta                 97.313(2)
_cell_angle_gamma                90
_cell_volume                     10237.7
loop_
_atom_site_label
_atom_site_type_symbol
_atom_site_fract_x
_atom_site_fract_y
_atom_site_fract_z
C29 C 0.4804(14) 0.3497(5) 0.9620(5)
H24 H 0.5535 0.3507 0.9559
H25 H 0.4394 0.3362 0.9320
H26 H 0.4744 0.3349 0.9949
C30 C 0.4387(10) 0.3931(5) 0.9671(5)
H27 H 0.4432 0.4085 0.9341
H28 H 0.3654 0.3928 0.9744
C31 C 0.4647(11) 0.4478(5) 1.0225(8)
H29 H 0.3901 0.4455 1.0269
H30 H 0.4721 0.4668 0.9933
C32 C 0.5300(13) 0.4621(5) 1.0758(6)
H31 H 0.4833 0.4668 1.1027
H32 H 0.5665 0.4869 1.0694
H33 H 0.5809 0.4414 1.0885
O4 O 0.5060(7) 0.4100(3) 1.0115(4)
I1 I 0.62453(3) 0.351776(10) 0.818847(14)
Cu1 Cu 0.57520(5) 0.377483(19) 0.71531(3)
Cu2 Cu 0.57575(5) 0.431083(19) 0.79137(2)
N1 N 0.6637(4) 0.33915(14) 0.67611(18)
I2 I 0.63033(3) 0.453821(10) 0.696532(13)
N2 N 0.6612(3) 0.45876(12) 0.85466(17)
C1 C 0.7488(5) 0.35035(19) 0.6532(3)
C2 C 0.6363(5) 0.29972(16) 0.6737(2)
C3 C 0.6589(4) 0.44420(17) 0.9047(2)
C4 C 0.7205(5) 0.49197(16) 0.8500(2)
C5 C 0.8081(5) 0.3226(2) 0.6269(3)
H1 H 0.7694 0.3776 0.6549
H2 H 0.5781 0.2915 0.6904
C6 C 0.6909(5) 0.27029(17) 0.6475(2)
H3 H 0.6180 0.4211 0.9087
C7 C 0.7128(4) 0.46112(16) 0.9505(2)
C8 C 0.7772(5) 0.51107(16) 0.8936(2)
H4 H 0.7235 0.5026 0.8154
C9 C 0.7771(5) 0.28201(18) 0.6230(2)
H5 H 0.8680 0.3312 0.6121
H6 H 0.6693 0.2432 0.6467
H7 H 0.7085 0.4496 0.9845
C10 C 0.7744(4) 0.49576(15) 0.9458(2)
H8 H 0.8172 0.5342 0.8884
C11 C 0.8370(6) 0.2509(2) 0.5950(2)
C12 C 0.8298(4) 0.51684(16) 0.9947(2)
C13 C 0.7775(6) 0.21529(18) 0.5699(3)
N3 N 0.9376(6) 0.2595(2) 0.5943(3)
C14 C 0.8708(4) 0.49211(16) 1.0429(2)
N4 N 0.8360(4) 0.55630(14) 0.9892(2)
C15 C 0.8143(6) 0.1749(2) 0.5779(3)
C16 C 0.6806(6) 0.21980(18) 0.5390(2)
O1 O 0.9849(5) 0.23015(19) 0.5656(3)
C17 C 0.9216(4) 0.45529(18) 1.0369(2)
C18 C 0.8577(5) 0.50356(17) 1.0957(2)
O2 O 0.8878(4) 0.57693(13) 1.03219(18)
C19 C 0.7510(7) 0.1438(2) 0.5529(3)
H9 H 0.8785 0.1692 0.5990
H10 H 0.6510 0.2456 0.5334
C20 C 0.6262(6) 0.18575(17) 0.5158(3)
H11 H 1.0480 0.2356 0.5658
H12 H 0.9328 0.4465 1.0024
C21 C 0.9556(4) 0.43182(18) 1.0816(2)
C22 C 0.8911(5) 0.47781(17) 1.1384(2)
H13 H 0.8267 0.5285 1.1021
H14 H 0.8876 0.6014 1.0252
H15 H 0.7758 0.1173 0.5589
N5 N 0.6602(6) 0.14798(17) 0.5219(2)
H16 H 0.5614 0.1901 0.4945
H17 H 0.9909 0.4075 1.0764
N6 N 0.9405(3) 0.44223(14) 1.13243(17)
H18 H 0.8787 0.4855 1.1731
Cu3 Cu 0.98218(5) 0.40425(2) 1.19639(2)
Cu4 Cu 0.89875(5) 0.34390(2) 1.24504(3)
I3 I 0.98603(3) 0.327801(11) 1.155782(14)
I4 I 0.82216(3) 0.419772(10) 1.256952(13)
N7 N 0.7767(3) 0.30474(13) 1.24591(17)
C23 C 0.6999(4) 0.31423(16) 1.2765(2)
C24 C 0.7648(4) 0.26947(16) 1.2180(2)
H19 H 0.7068 0.3382 1.2968
C25 C 0.6123(4) 0.29043(15) 1.2793(2)
C26 C 0.6801(4) 0.24387(16) 1.2189(2)
H20 H 0.8173 0.2621 1.1969
H21 H 0.5616 0.2982 1.3013
C27 C 0.5991(4) 0.25460(15) 1.2494(2)
H22 H 0.6764 0.2196 1.1994
C28 C 0.5000 0.2305(2) 1.2500
N8 N 0.5000 0.1920(2) 1.2500
O3 O 0.5741(6) 0.1703(2) 1.2497(4)
H23 H 0.5544 0.1465 1.2494
Cu1A Cu 0.42480(5) 0.377483(19) 0.78469(3)
Cu2A Cu 0.42425(5) 0.431083(19) 0.70863(2)
I1A I 0.37547(3) 0.351776(10) 0.681153(14)
I2A I 0.36967(3) 0.453821(10) 0.803468(13)
N1A N 0.3363(4) 0.33915(14) 0.82389(18)
N2A N 0.3388(3) 0.45876(12) 0.64534(17)
C1A C 0.2512(5) 0.35035(19) 0.8468(3)
C2A C 0.3637(5) 0.29972(16) 0.8263(2)
C3A C 0.3411(4) 0.44420(17) 0.5953(2)
C4A C 0.2795(5) 0.49197(16) 0.6500(2)
C5A C 0.1919(5) 0.3226(2) 0.8731(3)
H1A H 0.2306 0.3776 0.8451
H2A H 0.4219 0.2915 0.8096
C6A C 0.3091(5) 0.27029(17) 0.8525(2)
H3A H 0.3820 0.4211 0.5913
C7A C 0.2872(4) 0.46112(16) 0.5495(2)
C8A C 0.2228(5) 0.51107(16) 0.6064(2)
H4A H 0.2765 0.5026 0.6846
C9A C 0.2229(5) 0.28201(18) 0.8770(2)
H5A H 0.1320 0.3312 0.8879
H6A H 0.3307 0.2432 0.8533
H7A H 0.2915 0.4496 0.5155
C10A C 0.2256(4) 0.49576(15) 0.5542(2)
H8A H 0.1828 0.5342 0.6116
C11A C 0.1630(6) 0.2509(2) 0.9050(2)
C12A C 0.1702(4) 0.51684(16) 0.5053(2)
C13A C 0.2225(6) 0.21529(18) 0.9301(3)
N3A N 0.0624(6) 0.2595(2) 0.9057(3)
C14A C 0.1292(4) 0.49211(16) 0.4571(2)
N4A N 0.1640(4) 0.55630(14) 0.5108(2)
C15A C 0.1857(6) 0.1749(2) 0.9221(3)
C16A C 0.3194(6) 0.21980(18) 0.9610(2)
O1A O 0.0151(5) 0.23015(19) 0.9344(3)
C17A C 0.0784(4) 0.45529(18) 0.4631(2)
C18A C 0.1423(5) 0.50356(17) 0.4043(2)
O2A O 0.1122(4) 0.57693(13) 0.46781(18)
C19A C 0.2490(7) 0.1438(2) 0.9471(3)
H9A H 0.1215 0.1692 0.9010
H10A H 0.3490 0.2456 0.9666
C20A C 0.3738(6) 0.18575(17) 0.9842(3)
H11A H -0.0480 0.2356 0.9342
H12A H 0.0672 0.4465 0.4976
C21A C 0.0444(4) 0.43182(18) 0.4184(2)
C22A C 0.1089(5) 0.47781(17) 0.3616(2)
H13A H 0.1733 0.5285 0.3979
H14A H 0.1124 0.6014 0.4748
H15A H 0.2242 0.1173 0.9411
N5A N 0.3398(6) 0.14798(17) 0.9781(2)
H16A H 0.4386 0.1901 1.0055
H17A H 0.0091 0.4075 0.4236
N6A N 0.0595(3) 0.44223(14) 0.36757(17)
H18A H 0.1213 0.4855 0.3269
Cu3A Cu 0.01782(5) 0.40425(2) 0.30361(2)
Cu3A_2 Cu 1.01782(5) 0.40425(2) 1.30361(2)
Cu4A Cu 1.10125(5) 0.34390(2) 1.25496(3)
I4A I 1.17784(3) 0.419772(10) 1.243048(13)
Cu4A_2 Cu 0.10125(5) 0.34390(2) 0.25496(3)
I3A I 0.01397(3) 0.327801(11) 0.344218(14)
I4A_2 I 0.17784(3) 0.419772(10) 0.243048(13)
Cu3_2 Cu -0.01782(5) 0.40425(2) 0.19639(2)
Cu4_2 Cu -0.10125(5) 0.34390(2) 0.24504(3)
I4_2 I -0.17784(3) 0.419772(10) 0.256952(13)
I3A_2 I 1.01397(3) 0.327801(11) 1.344218(14)
N7A N 0.2233(3) 0.30474(13) 0.25409(17)
I3_2 I -0.01397(3) 0.327801(11) 0.155782(14)
C27A C 0.4009(4) 0.25460(15) 1.2506(2)
C25A C 0.3877(4) 0.29043(15) 1.2207(2)
C26A C 0.3199(4) 0.24387(16) 1.2811(2)
C23A C 0.3001(4) 0.31423(16) 1.2235(2)
H21A H 0.4384 0.2982 1.1987
H22A H 0.3236 0.2196 1.3006
C24A C 0.2352(4) 0.26947(16) 1.2820(2)
H19A H 0.2932 0.3382 1.2032
N7A_2 N 0.2233(3) 0.30474(13) 1.25409(17)
H20A H 0.1827 0.2621 1.3031
Cu4A_3 Cu 0.10125(5) 0.34390(2) 1.25496(3)
loop_
_geom_bond_atom_site_label_1
_geom_bond_atom_site_label_2
_geom_bond_site_symmetry_1
_geom_bond_site_symmetry_2
I1 Cu1 1_555 1_555
Cu1 Cu2 1_555 1_555
Cu2 I1 1_555 1_555
N1 Cu1 1_555 1_555
I2 Cu1 1_555 1_555
N2 Cu2 1_555 1_555
C1 N1 1_555 1_555
C2 N1 1_555 1_555
C3 N2 1_555 1_555
C4 N2 1_555 1_555
C5 C1 1_555 1_555
H1 C1 1_555 1_555
H2 C2 1_555 1_555
C6 C2 1_555 1_555
H3 C3 1_555 1_555
C7 C3 1_555 1_555
C8 C4 1_555 1_555
H4 C4 1_555 1_555
C9 C5 1_555 1_555
H5 C5 1_555 1_555
H6 C6 1_555 1_555
H7 C7 1_555 1_555
C10 C7 1_555 1_555
H8 C8 1_555 1_555
C11 C9 1_555 1_555
C12 C10 1_555 1_555
C13 C11 1_555 1_555
N3 C11 1_555 1_555
C14 C12 1_555 1_555
N4 C12 1_555 1_555
C15 C13 1_555 1_555
C16 C13 1_555 1_555
O1 N3 1_555 1_555
C17 C14 1_555 1_555
C18 C14 1_555 1_555
O2 N4 1_555 1_555
C19 C15 1_555 1_555
H9 C15 1_555 1_555
H10 C16 1_555 1_555
C20 C16 1_555 1_555
H11 O1 1_555 1_555
H12 C17 1_555 1_555
C21 C17 1_555 1_555
C22 C18 1_555 1_555
H13 C18 1_555 1_555
H14 O2 1_555 1_555
H15 C19 1_555 1_555
N5 C19 1_555 1_555
H16 C20 1_555 1_555
H17 C21 1_555 1_555
N6 C21 1_555 1_555
H18 C22 1_555 1_555
Cu3 N6 1_555 1_555
Cu4 Cu3 1_555 1_555
I3 Cu3 1_555 1_555
I4 Cu3 1_555 1_555
N7 Cu4 1_555 1_555
C23 N7 1_555 1_555
C24 N7 1_555 1_555
H19 C23 1_555 1_555
C25 C23 1_555 1_555
C26 C24 1_555 1_555
H20 C24 1_555 1_555
H21 C25 1_555 1_555
C27 C25 1_555 1_555
H22 C26 1_555 1_555
C28 C27 1_555 1_555
N8 C28 1_555 1_555
O3 N8 1_555 1_555
H23 O3 1_555 1_555
C29 H24 1_555 1_555
H25 C29 1_555 1_555
H26 C29 1_555 1_555
C30 C29 1_555 1_555
H27 C30 1_555 1_555
H28 C30 1_555 1_555
C31 H29 1_555 1_555
H30 C31 1_555 1_555
C32 C31 1_555 1_555
H31 C32 1_555 1_555
H32 C32 1_555 1_555
H33 C32 1_555 1_555
O4 C30 1_555 1_555
Cu1A I1 1_555 1_555
Cu2A Cu1 1_555 1_555
I1A Cu1 1_555 1_555
I2A Cu2 1_555 1_555
N1A Cu1A 1_555 1_555
N2A Cu2A 1_555 1_555
C1A N1A 1_555 1_555
C2A N1A 1_555 1_555
C3A N2A 1_555 1_555
C4A N2A 1_555 1_555
C5A C1A 1_555 1_555
H1A C1A 1_555 1_555
H2A C2A 1_555 1_555
C6A C2A 1_555 1_555
H3A C3A 1_555 1_555
C7A C3A 1_555 1_555
C8A C4A 1_555 1_555
H4A C4A 1_555 1_555
C9A C5A 1_555 1_555
H5A C5A 1_555 1_555
H6A C6A 1_555 1_555
H7A C7A 1_555 1_555
C10A C7A 1_555 1_555
H8A C8A 1_555 1_555
C11A C9A 1_555 1_555
C12A C10A 1_555 1_555
C13A C11A 1_555 1_555
N3A C11A 1_555 1_555
C14A C12A 1_555 1_555
N4A C12A 1_555 1_555
C15A C13A 1_555 1_555
C16A C13A 1_555 1_555
O1A N3A 1_555 1_555
C17A C14A 1_555 1_555
C18A C14A 1_555 1_555
O2A N4A 1_555 1_555
C19A C15A 1_555 1_555
H9A C15A 1_555 1_555
H10A C16A 1_555 1_555
C20A C16A 1_555 1_555
H11A O1A 1_555 1_555
H12A C17A 1_555 1_555
C21A C17A 1_555 1_555
C22A C18A 1_555 1_555
H13A C18A 1_555 1_555
H14A O2A 1_555 1_555
H15A C19A 1_555 1_555
N5A C19A 1_555 1_555
H16A C20A 1_555 1_555
H17A C21A 1_555 1_555
N6A C21A 1_555 1_555
H18A C22A 1_555 1_555
Cu3A N6A 1_555 1_555
Cu3A_2 Cu3 1_555 1_555
Cu4A Cu3 1_555 1_555
I4A Cu3 1_555 1_555
Cu4A_2 Cu3A 1_555 1_555
I3A Cu3A 1_555 1_555
I4A_2 Cu3A 1_555 1_555
Cu3_2 Cu3A 1_555 1_555
Cu4_2 Cu3A 1_555 1_555
I4_2 Cu3A 1_555 1_555
I3A_2 Cu4 1_555 1_555
N7A Cu4A_2 1_555 1_555
I3_2 Cu4A_2 1_555 1_555
C27A C28 1_555 1_555
C25A C27A 1_555 1_555
C26A C27A 1_555 1_555
C23A C25A 1_555 1_555
H21A C25A 1_555 1_555
H22A C26A 1_555 1_555
C24A C26A 1_555 1_555
H19A C23A 1_555 1_555
N7A_2 C23A 1_555 1_555
H20A C24A 1_555 1_555
Cu4A_3 N7A_2 1_555 1_555
Cu1 Cu1A 1_555 1_555
Cu2 I2 1_555 1_555
Cu2 Cu1A 1_555 1_555
Cu2 Cu2A 1_555 1_555
I2 Cu2A 1_555 1_555
C6 C9 1_555 1_555
C8 C10 1_555 1_555
C20 N5 1_555 1_555
C22 N6 1_555 1_555
Cu4 I3 1_555 1_555
Cu4 I4 1_555 1_555
Cu4 Cu3A_2 1_555 1_555
Cu4 Cu4A 1_555 1_555
I3 Cu4A 1_555 1_555
I4 Cu3A_2 1_555 1_555
C26 C27 1_555 1_555
C31 O4 1_555 1_555
Cu1A Cu2A 1_555 1_555
Cu1A I1A 1_555 1_555
Cu1A I2A 1_555 1_555
Cu2A I1A 1_555 1_555
Cu2A I2A 1_555 1_555
C6A C9A 1_555 1_555
C8A C10A 1_555 1_555
C20A N5A 1_555 1_555
C22A N6A 1_555 1_555
Cu3A_2 Cu4A 1_555 1_555
Cu3A_2 I4A 1_555 1_555
Cu3A_2 I3A_2 1_555 1_555
Cu4A I4A 1_555 1_555
Cu4A I3A_2 1_555 1_555
Cu4A_2 I3A 1_555 1_555
Cu4A_2 I4A_2 1_555 1_555
Cu4A_2 Cu3_2 1_555 1_555
Cu4A_2 Cu4_2 1_555 1_555
I3A Cu4_2 1_555 1_555
I4A_2 Cu3_2 1_555 1_555
Cu3_2 Cu4_2 1_555 1_555
Cu3_2 I4_2 1_555 1_555
Cu3_2 I3_2 1_555 1_555
Cu4_2 I4_2 1_555 1_555
Cu4_2 I3_2 1_555 1_555
C24A N7A_2 1_555 1_555

#END
