
#######################################################################
#
#                 Cambridge Crystallographic Data Centre
#                                CCDC 
#
#######################################################################
#
# If this CIF has been generated from an entry in the Cambridge 
# Structural Database, then it will include bibliographic, chemical, 
# crystal, experimental, refinement or atomic coordinate data resulting 
# from the CCDC's data processing and validation procedures.
#
#######################################################################

data_TITJAJ
_symmetry_cell_setting           monoclinic
_symmetry_space_group_name_H-M   'P 21/n'
_symmetry_Int_Tables_number      14
_space_group_name_Hall           '-P 2yn'
loop_
_symmetry_equiv_pos_site_id
_symmetry_equiv_pos_as_xyz
1 x,y,z
2 1/2-x,1/2+y,1/2-z
3 -x,-y,-z
4 1/2+x,1/2-y,1/2+z
_cell_length_a                   8.9647(3)
_cell_length_b                   10.7915(4)
_cell_length_c                   18.1858(6)
_cell_angle_alpha                90
_cell_angle_beta                 96.909(2)
_cell_angle_gamma                90
_cell_volume                     1746.57
loop_
_atom_site_label
_atom_site_type_symbol
_atom_site_fract_x
_atom_site_fract_y
_atom_site_fract_z
Ag1 Ag 0.31985(3) 0.73888(3) 0.246442(15)
C1 C 0.1815(3) 0.9192(3) 0.46643(19)
C2 C 0.1213(4) 0.8638(3) 0.5247(2)
H1 H 0.0584 0.7928 0.5177
C3 C 0.1571(4) 0.9170(3) 0.5943(2)
H2 H 0.1181 0.8814 0.6358
C4 C 0.2475(4) 1.0197(3) 0.6045(2)
H3 H 0.2684 1.0540 0.6527
C5 C 0.3095(4) 1.0750(3) 0.5460(2)
H4 H 0.3721 1.1461 0.5532
C6 C 0.2756(3) 1.0215(3) 0.47699(19)
N1 N 0.3182(3) 1.0521(2) 0.40775(16)
C7 C 0.4209(3) 1.1484(3) 0.3900(2)
H5 H 0.4753 1.1189 0.3491
H6 H 0.4961 1.1625 0.4337
C8 C 0.3468(4) 1.2692(3) 0.3678(2)
H7 H 0.4036 1.3290 0.3447
C9 C 0.2051(4) 1.2991(3) 0.3783(2)
H8 H 0.1451 1.2416 0.4012
H9 H 0.1652 1.3777 0.3628
C10 C 0.2498(3) 0.9729(3) 0.3545(2)
O1 O 0.2618(2) 0.9744(2) 0.28774(14)
N2 N 0.1654(3) 0.8919(2) 0.39044(15)
C11 C 0.0672(3) 0.7995(3) 0.3516(2)
H10 H 0.0195 0.8356 0.3045
H11 H -0.0136 0.7787 0.3821
C12 C 0.1478(4) 0.6822(3) 0.33493(19)
H12 H 0.0949 0.6241 0.3023
C13 C 0.2891(4) 0.6543(3) 0.3630(2)
H13 H 0.3452 0.7104 0.3957
H14 H 0.3330 0.5785 0.3500
O2 O 0.5675(3) 0.7779(3) 0.27164(18)
H15 H 0.606(5) 0.817(4) 0.239(2)
H16 H 0.631(7) 0.710(5) 0.286(4)
Ag1A Ag 0.18015(3) 1.23888(3) 0.253558(15)
C8A C 0.1532(4) 0.7692(3) 0.1322(2)
C9A C 0.2949(4) 0.7991(3) 0.1217(2)
S1 S 0.25204(9) 0.50348(9) 0.65465(5)
O3 O 0.2107(3) 0.3798(3) 0.6722(2)
O4 O 0.1294(3) 0.5905(3) 0.65231(17)
O5 O 0.3942(3) 0.5421(3) 0.69134(15)
C14 C 0.2801(4) 0.4947(5) 0.5582(2)
F1 F 0.1568(3) 0.4647(4) 0.51649(17)
F2 F 0.3293(4) 0.6022(4) 0.53447(17)
F3 F 0.3856(3) 0.4111(3) 0.54794(15)
loop_
_geom_bond_atom_site_label_1
_geom_bond_atom_site_label_2
_geom_bond_site_symmetry_1
_geom_bond_site_symmetry_2
Ag1 O1 1_555 1_555
C1 C2 1_555 1_555
C2 H1 1_555 1_555
C3 C2 1_555 1_555
H2 C3 1_555 1_555
C4 C3 1_555 1_555
H3 C4 1_555 1_555
C5 C4 1_555 1_555
H4 C5 1_555 1_555
C6 C1 1_555 1_555
N1 C6 1_555 1_555
C7 N1 1_555 1_555
H5 C7 1_555 1_555
H6 C7 1_555 1_555
C8 C7 1_555 1_555
H7 C8 1_555 1_555
C9 C8 1_555 1_555
H8 C9 1_555 1_555
H9 C9 1_555 1_555
C10 N1 1_555 1_555
O1 C10 1_555 1_555
N2 C1 1_555 1_555
C11 N2 1_555 1_555
H10 C11 1_555 1_555
H11 C11 1_555 1_555
C12 Ag1 1_555 1_555
H12 C12 1_555 1_555
C13 Ag1 1_555 1_555
H13 C13 1_555 1_555
H14 C13 1_555 1_555
O2 Ag1 1_555 1_555
H15 O2 1_555 1_555
H16 O2 1_555 1_555
S1 O3 1_555 1_555
O4 S1 1_555 1_555
O5 S1 1_555 1_555
C14 S1 1_555 1_555
F1 C14 1_555 1_555
F2 C14 1_555 1_555
F3 C14 1_555 1_555
Ag1A C8 1_555 1_555
C8A Ag1 1_555 1_555
C9A Ag1 1_555 1_555
C5 C6 1_555 1_555
C9 Ag1A 1_555 1_555
C10 N2 1_555 1_555
C11 C12 1_555 1_555
C12 C13 1_555 1_555
C8A C9A 1_555 1_555

#END
