
#######################################################################
#
#                 Cambridge Crystallographic Data Centre
#                                CCDC 
#
#######################################################################
#
# If this CIF has been generated from an entry in the Cambridge 
# Structural Database, then it will include bibliographic, chemical, 
# crystal, experimental, refinement or atomic coordinate data resulting 
# from the CCDC's data processing and validation procedures.
#
#######################################################################

data_TITMOZ
_symmetry_cell_setting           triclinic
_symmetry_space_group_name_H-M   'P -1'
_symmetry_Int_Tables_number      2
_space_group_name_Hall           '-P 1'
loop_
_symmetry_equiv_pos_site_id
_symmetry_equiv_pos_as_xyz
1 x,y,z
2 -x,-y,-z
_cell_length_a                   6.6857(12)
_cell_length_b                   7.8251(18)
_cell_length_c                   9.9188(9)
_cell_angle_alpha                82.6561(10)
_cell_angle_beta                 84.0079(13)
_cell_angle_gamma                71.9520(17)
_cell_volume                     488.179
loop_
_atom_site_label
_atom_site_type_symbol
_atom_site_fract_x
_atom_site_fract_y
_atom_site_fract_z
N2 N 0.4757(13) 0.7636(12) 0.5189(9)
H4 H 0.5574 0.7319 0.5913
H5 H 0.5369 0.8236 0.4504
H6 H 0.4627 0.6624 0.4892
C8 C 0.2618(16) 0.8836(14) 0.5611(10)
H8 H 0.2188 0.8415 0.6549
C9 C 0.1014(16) 0.8816(14) 0.4648(11)
C10 C 0.1138(17) 0.9861(15) 0.5007(11)
N3 N 0.1232(14) 0.7948(12) 0.5459(9)
H14 H 0.0696 0.7862 0.6338
N2A N -0.4757(13) 1.2364(12) 0.4811(9)
H4A H -0.5574 1.2681 0.4087
H5A H -0.5369 1.1764 0.5496
H6A H -0.4627 1.3376 0.5108
C8A C -0.2618(16) 1.1164(14) 0.4389(10)
H8A H -0.2188 1.1585 0.3451
C9A C -0.1014(16) 1.1184(14) 0.5352(11)
C10A C -0.1138(17) 1.0139(15) 0.4993(11)
N3A N -0.1232(14) 1.2052(12) 0.4541(9)
H14A H -0.0696 1.2138 0.3662
O5 O 0.0811(17) 0.3649(16) 0.6306(12)
Cu1 Cu 0.0000 1.0000 1.0000
O1 O 0.1529(5) 1.0909(5) 0.8418(4)
O2 O 0.4743(6) 1.0337(6) 0.7330(4)
O3 O 0.7857(6) 0.6603(5) 0.7152(4)
O4 O 0.9507(6) 0.7923(5) 0.8365(4)
N1 N 0.2805(6) 0.8300(5) 1.0351(4)
C1 C 0.4291(7) 0.8457(6) 0.9349(5)
C2 C 0.6352(8) 0.7332(6) 0.9342(5)
C3 C 0.6889(8) 0.6039(6) 1.0472(5)
H1 H 0.8292 0.5260 1.0525
C4 C 0.5387(8) 0.5903(6) 1.1494(5)
H2 H 0.5743 0.5031 1.2259
C5 C 0.3353(8) 0.7039(6) 1.1406(5)
H3 H 0.2314 0.6924 1.2112
C6 C 0.3515(8) 1.0015(7) 0.8261(5)
C7 C 0.8024(7) 0.7337(7) 0.8180(5)
Cu1_2 Cu 1.0000 1.0000 1.0000
Cu1_3 Cu -1.0000 1.0000 1.0000
O1A O -0.1529(5) 0.9091(5) 1.1582(4)
O2A O -0.4743(6) 0.9663(6) 1.2670(4)
O3A O -0.7857(6) 1.3397(5) 1.2848(4)
O4A O -0.9507(6) 1.2077(5) 1.1635(4)
O4_2 O -0.0493(6) 0.7923(5) 0.8365(4)
O4A_2 O 0.0493(6) 1.2077(5) 1.1635(4)
N1A N -0.2805(6) 1.1700(5) 0.9649(4)
C1A C -0.4291(7) 1.1543(6) 1.0651(5)
C2A C -0.6352(8) 1.2668(6) 1.0658(5)
C3A C -0.6889(8) 1.3961(6) 0.9528(5)
H1A H -0.8292 1.4740 0.9475
C4A C -0.5387(8) 1.4097(6) 0.8506(5)
H2A H -0.5743 1.4969 0.7741
C5A C -0.3353(8) 1.2961(6) 0.8594(5)
H3A H -0.2314 1.3076 0.7888
C6A C -0.3515(8) 0.9985(7) 1.1739(5)
C7A C -0.8024(7) 1.2663(7) 1.1820(5)
H7? H 0.2673 1.0086 0.5610
H9? H 0.0884 0.7582 0.4704
H10? H 0.1506 0.9140 0.3702
H11? H -0.2226 0.9832 0.4550
H12? H -0.1467 1.0008 0.5990
H13? H -0.2596 1.2764 0.4603
H15? H -0.0461 1.2422 0.5083
O6? O 0.1490(17) 0.3949(16) 0.6312(13)
H16? H 0.1276 0.3321 0.7141
H17? H -0.0108 0.4794 0.6569
O7? O 0.4409(12) 0.4057(11) 0.4800(8)
H18? H 0.3664 0.3585 0.5422
H19? H 0.3701 0.3870 0.4201
loop_
_geom_bond_atom_site_label_1
_geom_bond_atom_site_label_2
_geom_bond_site_symmetry_1
_geom_bond_site_symmetry_2
Cu1 O1 1_555 1_555
O1 C6 1_555 1_555
O2 C6 1_555 1_555
O3 C7 1_555 1_555
O4 C7 1_555 1_555
N1 Cu1 1_555 1_555
C1 N1 1_555 1_555
C2 C1 1_555 1_555
C3 C2 1_555 1_555
H1 C3 1_555 1_555
C4 C3 1_555 1_555
H2 C4 1_555 1_555
C5 N1 1_555 1_555
H3 C5 1_555 1_555
C6 C1 1_555 1_555
C7 C2 1_555 1_555
N2 H4 1_555 1_555
H5 N2 1_555 1_555
H6 N2 1_555 1_555
C8 N2 1_555 1_555
H8 C8 1_555 1_555
C9 C8 1_555 1_555
C10 C8 1_555 1_555
N3 C8 1_555 1_555
H14 N3 1_555 1_555
Cu1_2 O4 1_555 1_555
Cu1_3 O4A 1_555 1_555
O1A Cu1 1_555 1_555
O2A C6A 1_555 1_555
O3A C7A 1_555 1_555
O4A C7A 1_555 1_555
O4_2 Cu1 1_555 1_555
O4A_2 Cu1 1_555 1_555
N1A Cu1 1_555 1_555
C1A N1A 1_555 1_555
C2A C1A 1_555 1_555
C3A C2A 1_555 1_555
H1A C3A 1_555 1_555
C4A C3A 1_555 1_555
H2A C4A 1_555 1_555
C5A N1A 1_555 1_555
H3A C5A 1_555 1_555
C6A O1A 1_555 1_555
C7A C2A 1_555 1_555
N2A H4A 1_555 1_555
H5A N2A 1_555 1_555
H6A N2A 1_555 1_555
C8A N2A 1_555 1_555
H8A C8A 1_555 1_555
C9A C10 1_555 1_555
C10A C9 1_555 1_555
N3A C8A 1_555 1_555
H14A N3A 1_555 1_555
C4 C5 1_555 1_555
C9 C10 1_555 1_555
C9 N3 1_555 1_555
C10 N3 1_555 1_555
C10 C10A 1_555 1_555
C1A C6A 1_555 1_555
C4A C5A 1_555 1_555
C8A C9A 1_555 1_555
C8A C10A 1_555 1_555
C9A C10A 1_555 1_555
C9A N3A 1_555 1_555
C10A N3A 1_555 1_555

#END
