
#######################################################################
#
#                 Cambridge Crystallographic Data Centre
#                                CCDC 
#
#######################################################################
#
# If this CIF has been generated from an entry in the Cambridge 
# Structural Database, then it will include bibliographic, chemical, 
# crystal, experimental, refinement or atomic coordinate data resulting 
# from the CCDC's data processing and validation procedures.
#
#######################################################################

data_TITNUG
_symmetry_cell_setting           monoclinic
_symmetry_space_group_name_H-M   'P 21/c'
_symmetry_Int_Tables_number      14
_space_group_name_Hall           '-P 2ybc'
loop_
_symmetry_equiv_pos_site_id
_symmetry_equiv_pos_as_xyz
1 x,y,z
2 -x,1/2+y,1/2-z
3 -x,-y,-z
4 x,1/2-y,1/2+z
_cell_length_a                   9.510(2)
_cell_length_b                   11.255(3)
_cell_length_c                   16.214(4)
_cell_angle_alpha                90
_cell_angle_beta                 107.019(3)
_cell_angle_gamma                90
_cell_volume                     1659.47
loop_
_atom_site_label
_atom_site_type_symbol
_atom_site_fract_x
_atom_site_fract_y
_atom_site_fract_z
Zn1 Zn 0.71408(5) 0.64023(4) 0.21196(3)
O1 O 0.9487(4) 0.4284(3) 0.2011(2)
O2 O 0.7705(4) 0.5388(3) 0.1179(2)
O3 O 0.6849(4) 0.5057(3) -0.0439(2)
H1 H 0.6873 0.5359 0.0025
O4 O 1.5187(4) -0.2597(3) -0.0536(2)
H2 H 1.5603 -0.2816 -0.0042
O5 O 1.5791(3) -0.2637(2) 0.10891(19)
O6 O 1.4725(4) -0.1395(3) 0.17841(18)
O7 O 0.5362(4) 0.5313(3) 0.2060(3)
O8 O 0.8865(4) 0.7510(3) 0.2132(3)
O9 O 0.6659(4) 0.7520(3) 0.3064(2)
O10 O 0.8398(4) 0.5403(3) 0.3147(2)
N1 N 1.0930(4) 0.1421(3) 0.0030(2)
N2 N 1.1233(4) 0.1052(3) -0.0637(2)
C1 C 0.8672(5) 0.4557(4) 0.1291(3)
C2 C 0.8783(5) 0.3916(3) 0.0511(3)
C3 C 0.7874(5) 0.4192(4) -0.0312(3)
C4 C 0.7972(5) 0.3553(4) -0.1026(3)
H3 H 0.7367 0.3751 -0.1571
C5 C 0.8949(5) 0.2633(4) -0.0935(3)
H4 H 0.8989 0.2196 -0.1414
C6 C 0.9877(5) 0.2357(3) -0.0127(3)
C7 C 0.9781(5) 0.2998(4) 0.0582(3)
H5 H 1.0406 0.2807 0.1123
C8 C 1.2236(4) 0.0099(3) -0.0537(3)
C9 C 1.2416(5) -0.0349(4) -0.1298(3)
H6 H 1.1871 -0.0025 -0.1822
C10 C 1.3378(6) -0.1259(4) -0.1296(3)
H7 H 1.3469 -0.1558 -0.1812
C11 C 1.4210(5) -0.1727(4) -0.0517(3)
C12 C 1.4032(4) -0.1293(4) 0.0259(2)
C13 C 1.3051(5) -0.0383(3) 0.0244(3)
H8 H 1.2936 -0.0093 0.0758
C14 C 1.4901(5) -0.1794(4) 0.1108(3)
H9 H 0.872(6) 0.496(5) 0.283(4)
H10 H 0.872(7) 0.779(5) 0.170(4)
H11 H 0.507(9) 0.504(6) 0.159(5)
H12 H 0.597(7) 0.802(5) 0.260(4)
H13 H 0.921(7) 0.796(6) 0.250(5)
H14 H 0.545(7) 0.488(5) 0.253(4)
H15 H 0.895(8) 0.580(6) 0.359(4)
H16 H 0.619(8) 0.703(6) 0.330(5)
Zn1_2 Zn 1.71408(5) -0.35977(4) 0.21196(3)
O5_2 O 0.5791(3) 0.7363(2) 0.10891(19)
loop_
_geom_bond_atom_site_label_1
_geom_bond_atom_site_label_2
_geom_bond_site_symmetry_1
_geom_bond_site_symmetry_2
Zn1 O2 1_555 1_555
O1 C1 1_555 1_555
O2 C1 1_555 1_555
O3 H1 1_555 1_555
O4 H2 1_555 1_555
O5 C14 1_555 1_555
O6 C14 1_555 1_555
O7 Zn1 1_555 1_555
O8 Zn1 1_555 1_555
O9 Zn1 1_555 1_555
O10 Zn1 1_555 1_555
N1 N2 1_555 1_555
N2 C8 1_555 1_555
C1 C2 1_555 1_555
C2 C3 1_555 1_555
C3 O3 1_555 1_555
C4 C3 1_555 1_555
H3 C4 1_555 1_555
C5 C4 1_555 1_555
H4 C5 1_555 1_555
C6 N1 1_555 1_555
C7 C2 1_555 1_555
H5 C7 1_555 1_555
C8 C9 1_555 1_555
C9 H6 1_555 1_555
C10 C9 1_555 1_555
H7 C10 1_555 1_555
C11 O4 1_555 1_555
C12 C11 1_555 1_555
C13 C8 1_555 1_555
H8 C13 1_555 1_555
C14 C12 1_555 1_555
H9 O10 1_555 1_555
H10 O8 1_555 1_555
H11 O7 1_555 1_555
H12 O9 1_555 1_555
H13 O8 1_555 1_555
H14 O7 1_555 1_555
H15 O10 1_555 1_555
H16 O9 1_555 1_555
Zn1_2 O5 1_555 1_555
O5_2 Zn1 1_555 1_555
C5 C6 1_555 1_555
C6 C7 1_555 1_555
C10 C11 1_555 1_555
C12 C13 1_555 1_555

#END
