
#######################################################################
#
#                 Cambridge Crystallographic Data Centre
#                                CCDC 
#
#######################################################################
#
# If this CIF has been generated from an entry in the Cambridge 
# Structural Database, then it will include bibliographic, chemical, 
# crystal, experimental, refinement or atomic coordinate data resulting 
# from the CCDC's data processing and validation procedures.
#
#######################################################################

data_TITPIW
_symmetry_cell_setting           triclinic
_symmetry_space_group_name_H-M   'P -1'
_symmetry_Int_Tables_number      2
_space_group_name_Hall           '-P 1'
loop_
_symmetry_equiv_pos_site_id
_symmetry_equiv_pos_as_xyz
1 x,y,z
2 -x,-y,-z
_cell_length_a                   7.3792(11)
_cell_length_b                   8.6946(12)
_cell_length_c                   11.9495(17)
_cell_angle_alpha                85.294(19)
_cell_angle_beta                 82.52(2)
_cell_angle_gamma                88.44(2)
_cell_volume                     757.477
loop_
_atom_site_label
_atom_site_type_symbol
_atom_site_fract_x
_atom_site_fract_y
_atom_site_fract_z
C1 C -0.0333(7) 0.3276(6) 0.8172(4)
C2 C 0.0773(7) 0.3784(6) 0.7048(4)
H1 H 0.2052 0.3511 0.7070
H2 H 0.0346 0.3267 0.6445
C3 C 0.1556(6) 0.6127(6) 0.5904(4)
C4 C 0.2445(6) 0.5368(5) 0.5016(4)
H3 H 0.2422 0.4298 0.5022
C5 C 0.3370(6) 0.6246(6) 0.4120(4)
C6 C 0.3419(6) 0.7843(6) 0.4103(4)
H4 H 0.4059 0.8411 0.3491
C7 C 0.2513(7) 0.8586(6) 0.4997(5)
C8 C 0.1596(7) 0.7715(6) 0.5901(4)
H5 H 0.0999 0.8201 0.6514
C9 C 0.2558(8) 1.0326(6) 0.5005(5)
H6 H 0.1448 1.0770 0.4773
H7 H 0.3583 1.0715 0.4492
H8 H 0.2671 1.0595 0.5756
C10 C 0.4195(7) 0.4039(5) 0.3083(4)
H9 H 0.2934 0.3767 0.3065
H10 H 0.4627 0.3468 0.3732
C11 C 0.5344(6) 0.3625(7) 0.2014(4)
Cd1 Cd -0.24893(5) 0.25748(4) 1.02124(3)
O1 O -0.1211(5) 0.4250(4) 0.8748(3)
O2 O -0.0333(5) 0.1860(4) 0.8455(3)
O3 O 0.0573(5) 0.5399(4) 0.6840(3)
O4 O 0.4307(5) 0.5637(4) 0.3184(3)
O5 O 0.6157(5) 0.4624(4) 0.1334(3)
O6 O 0.5458(5) 0.2198(4) 0.1862(3)
O7 O -0.4729(5) 0.2338(5) 0.9073(3)
H11 H -0.5520 0.1705 0.9401
H12 H -0.5233 0.3214 0.8950
O8 O -0.2346(5) -0.0167(4) 1.0480(3)
H13 H -0.1671 -0.0518 0.9923
H14 H -0.1896 -0.0430 1.1088
O9 O 0.0139(5) 0.2816(4) 1.0963(3)
H15 H 0.0262 0.3754 1.1086
H16 H 0.0093 0.2255 1.1580
Cd1_2 Cd 0.75107(5) 0.25748(4) 0.02124(3)
O5_2 O -0.3843(5) 0.4624(4) 1.1334(3)
O6_2 O -0.4542(5) 0.2198(4) 1.1862(3)
O10 O 0.2207(6) 0.0730(5) 0.1980(4)
H17 H 0.3344 0.0701 0.1748
H18 H 0.1737 -0.0127 0.1891
loop_
_geom_bond_atom_site_label_1
_geom_bond_atom_site_label_2
_geom_bond_site_symmetry_1
_geom_bond_site_symmetry_2
C1 C2 1_555 1_555
C2 H1 1_555 1_555
H2 C2 1_555 1_555
C3 C4 1_555 1_555
C4 H3 1_555 1_555
C5 C4 1_555 1_555
C6 C5 1_555 1_555
H4 C6 1_555 1_555
C7 C6 1_555 1_555
C8 C3 1_555 1_555
H5 C8 1_555 1_555
C9 C7 1_555 1_555
H6 C9 1_555 1_555
H7 C9 1_555 1_555
H8 C9 1_555 1_555
C10 H9 1_555 1_555
H10 C10 1_555 1_555
C11 C10 1_555 1_555
Cd1 O1 1_555 1_555
O1 C1 1_555 1_555
O2 C1 1_555 1_555
O3 C2 1_555 1_555
O4 C5 1_555 1_555
O5 C11 1_555 1_555
O6 C11 1_555 1_555
O7 Cd1 1_555 1_555
H11 O7 1_555 1_555
H12 O7 1_555 1_555
O8 Cd1 1_555 1_555
H13 O8 1_555 1_555
H14 O8 1_555 1_555
O9 Cd1 1_555 1_555
H15 O9 1_555 1_555
H16 O9 1_555 1_555
O10 H17 1_555 1_555
H18 O10 1_555 1_555
Cd1_2 O5 1_555 1_555
O5_2 Cd1 1_555 1_555
O6_2 Cd1 1_555 1_555
C3 O3 1_555 1_555
C7 C8 1_555 1_555
C10 O4 1_555 1_555
Cd1 O2 1_555 1_555
O6 Cd1_2 1_555 1_555

#END
