
#######################################################################
#
#                 Cambridge Crystallographic Data Centre
#                                CCDC 
#
#######################################################################
#
# If this CIF has been generated from an entry in the Cambridge 
# Structural Database, then it will include bibliographic, chemical, 
# crystal, experimental, refinement or atomic coordinate data resulting 
# from the CCDC's data processing and validation procedures.
#
#######################################################################

data_TIVCIK
_symmetry_cell_setting           monoclinic
_symmetry_space_group_name_H-M   'C 2/c'
_symmetry_Int_Tables_number      15
_space_group_name_Hall           '-C 2yn'
loop_
_symmetry_equiv_pos_site_id
_symmetry_equiv_pos_as_xyz
1 x,y,z
2 -x,y,1/2-z
3 1/2+x,1/2+y,z
4 1/2-x,1/2+y,1/2-z
5 -x,-y,-z
6 x,-y,1/2+z
7 1/2-x,1/2-y,-z
8 1/2+x,1/2-y,1/2+z
_cell_length_a                   15.723(3)
_cell_length_b                   13.899(3)
_cell_length_c                   10.423(2)
_cell_angle_alpha                90
_cell_angle_beta                 94.39(2)
_cell_angle_gamma                90
_cell_volume                     2271.1
loop_
_atom_site_label
_atom_site_type_symbol
_atom_site_fract_x
_atom_site_fract_y
_atom_site_fract_z
Bi1 Bi -0.10616(4) 0.11700(4) 0.48790(6)
O1 O -0.2624(7) 0.1447(9) 0.4537(11)
O2 O -0.1286(7) 0.2659(8) 0.6165(10)
O3 O 0.0366(7) 0.0733(8) 0.4165(11)
O4 O 0.0209(7) 0.2186(8) 0.4950(11)
O5 O -0.1442(7) 0.0045(8) 0.3319(10)
O6 O -0.2238(8) -0.0034(9) 0.1462(13)
O7 O -0.1201(7) 0.1944(7) 0.3123(10)
C1 C -0.2698(11) 0.2007(12) 0.2332(16)
C2 C -0.1803(10) 0.1549(12) 0.2181(15)
C3 C -0.1540(9) 0.1829(11) 0.0832(15)
C4 C 0.0667(9) 0.1543(12) 0.4434(15)
C5 C -0.3002(10) 0.1938(11) 0.3659(16)
C6 C -0.1845(11) 0.0431(12) 0.2312(17)
H1 H -0.3157 0.1649 0.1671
H2 H -0.2664 0.2758 0.2079
H3 H -0.1589 0.2601 0.0733
H4 H -0.1979 0.1489 0.0125
O2F O -0.3714(7) 0.2341(8) 0.3835(10)
Bi1F Bi -0.39384(4) 0.38300(4) 0.51210(6)
C4A C -0.0667(9) 0.1543(12) 0.0566(15)
O3A O -0.0366(7) 0.0733(8) 0.0835(11)
Bi1A Bi 0.10616(4) 0.11700(4) 0.01210(6)
O1A O 0.2624(7) 0.1447(9) 0.0463(11)
C5A C 0.3002(10) 0.1938(11) 0.1341(16)
O2G O 0.3714(7) 0.2341(8) 0.1165(10)
Bi1G Bi 0.39384(4) 0.38300(4) -0.01210(6)
O2A O 0.1286(7) 0.2659(8) -0.1165(10)
O4A O -0.0209(7) 0.2186(8) 0.0050(11)
O5A O 0.1442(7) 0.0045(8) 0.1681(10)
C6A C 0.1845(11) 0.0431(12) 0.2688(17)
O6A O 0.2238(8) -0.0034(9) 0.3538(13)
C2A C 0.1803(10) 0.1549(12) 0.2819(15)
O7A O 0.1201(7) 0.1944(7) 0.1877(10)
C1A C 0.2698(11) 0.2007(12) 0.2668(16)
H1A H 0.3157 0.1649 0.3329
H2A H 0.2664 0.2758 0.2921
C3A C 0.1540(9) 0.1829(11) 0.4168(15)
H3A H 0.1589 0.2601 0.4267
H4A H 0.1979 0.1489 0.4875
O8 O -0.0219(10) 0.4157(10) 0.8946(15)
Na1 Na 0.0000 0.2778(8) 0.7500
Na2 Na 0.1314(13) 0.4646(15) 0.0381(21)
O9 O 0.0000 0.1047(12) 0.7500
O10 O 0.0569(19) 0.3767(22) 0.1868(29)
O11 O 0.1725(20) 0.5656(23) -0.1156(31)
O12? O 0.3652(22) 0.9572(24) 0.0742(32)
O13? O 0.1176(16) 0.3906(18) 0.1704(23)
loop_
_geom_bond_atom_site_label_1
_geom_bond_atom_site_label_2
_geom_bond_site_symmetry_1
_geom_bond_site_symmetry_2
Bi1 O1 1_555 1_555
O1 C5 1_555 1_555
O2 Bi1 1_555 1_555
O3 Bi1 1_555 1_555
O4 Bi1 1_555 1_555
O5 Bi1 1_555 1_555
O6 C6 1_555 1_555
O7 Bi1 1_555 1_555
C1 C2 1_555 1_555
C2 O7 1_555 1_555
C3 C2 1_555 1_555
C4 O3 1_555 1_555
C5 C1 1_555 1_555
C6 O5 1_555 1_555
H1 C1 1_555 1_555
H2 C1 1_555 1_555
H3 C3 1_555 1_555
H4 C3 1_555 1_555
O2F C5 1_555 1_555
Bi1F O2F 1_555 1_555
C4A C3 1_555 1_555
O3A C4A 1_555 1_555
Bi1A O3A 1_555 1_555
O1A Bi1A 1_555 1_555
C5A O1A 1_555 1_555
O2G C5A 1_555 1_555
Bi1G O2G 1_555 1_555
O2A Bi1A 1_555 1_555
O4A C4A 1_555 1_555
O5A Bi1A 1_555 1_555
C6A O5A 1_555 1_555
O6A C6A 1_555 1_555
C2A C6A 1_555 1_555
O7A Bi1A 1_555 1_555
C1A C5A 1_555 1_555
H1A C1A 1_555 1_555
H2A C1A 1_555 1_555
C3A C4 1_555 1_555
H3A C3A 1_555 1_555
H4A C3A 1_555 1_555
O4 C4 1_555 1_555
C2 C6 1_555 1_555
Bi1A O4A 1_555 1_555
C2A O7A 1_555 1_555
C2A C1A 1_555 1_555
C2A C3A 1_555 1_555

#END
