
#######################################################################
#
#                 Cambridge Crystallographic Data Centre
#                                CCDC 
#
#######################################################################
#
# If this CIF has been generated from an entry in the Cambridge 
# Structural Database, then it will include bibliographic, chemical, 
# crystal, experimental, refinement or atomic coordinate data resulting 
# from the CCDC's data processing and validation procedures.
#
#######################################################################

data_TIVGIO
_symmetry_cell_setting           monoclinic
_symmetry_space_group_name_H-M   'P 21/m'
_symmetry_Int_Tables_number      11
_space_group_name_Hall           '-P 2yb'
loop_
_symmetry_equiv_pos_site_id
_symmetry_equiv_pos_as_xyz
1 x,y,z
2 -x,1/2+y,-z
3 -x,-y,-z
4 x,1/2-y,z
_cell_length_a                   8.785(2)
_cell_length_b                   27.148(5)
_cell_length_c                   10.048(2)
_cell_angle_alpha                90
_cell_angle_beta                 93.57(2)
_cell_angle_gamma                90
_cell_volume                     2391.75
loop_
_atom_site_label
_atom_site_type_symbol
_atom_site_fract_x
_atom_site_fract_y
_atom_site_fract_z
Cl2 Cl 0.3473(6) 0.2500 0.1587(5)
O4 O 0.220(2) 0.2500 0.060(1)
O5 O 0.486(2) 0.2500 0.090(2)
O6 O 0.343(1) 0.2080(4) 0.240(1)
O6C O 0.343(1) 0.2920(4) 0.240(1)
O7 O -0.171(4) 0.1953(16) 0.797(4)
C1 C -0.053(4) 0.2195(7) 0.792(4)
O7C O -0.171(4) 0.3047(16) 0.797(4)
C1C C -0.053(4) 0.2805(7) 0.792(4)
O8 O 0.366(1) -0.0390(4) 0.657(1)
O9 O 0.575(1) -0.0842(4) 0.629(1)
O10 O -0.216(1) -0.0240(4) 0.901(1)
O11 O -0.412(1) -0.0675(4) 0.974(1)
N1 N 0.235(1) -0.1144(4) 0.807(1)
N2 N -0.025(1) -0.1088(4) 0.908(1)
C2 C 0.444(2) -0.0777(6) 0.669(1)
C3 C 0.390(1) -0.1207(5) 0.747(1)
C4 C 0.203(2) -0.1604(5) 0.885(1)
C5 C 0.040(2) -0.1588(6) 0.926(2)
C6 C 0.231(2) -0.0721(5) 0.899(1)
C7 C 0.083(2) -0.0721(6) 0.970(1)
C8 C 0.109(2) -0.1079(6) 0.698(1)
C9 C -0.038(2) -0.0983(6) 0.760(1)
C10 C -0.179(2) -0.1084(5) 0.967(1)
C11 C -0.279(2) -0.0634(6) 0.945(1)
O12 O 0.465(1) 0.0735(4) 0.708(1)
O13 O 0.580(1) 0.1400(4) 0.803(1)
N3 N 0.367(1) 0.2030(4) 0.647(1)
C12 C 0.486(2) 0.1199(6) 0.727(2)
C13 C 0.362(2) 0.1474(5) 0.642(1)
C14 C 0.232(2) 0.2214(5) 0.560(1)
C15 C 0.510(2) 0.2220(5) 0.596(2)
C16 C 0.351(2) 0.2219(5) 0.787(1)
Cl3 Cl 0.0036(5) 0.0624(2) 0.6489(4)
O14 O 0.089(1) 0.0652(5) 0.533(1)
O15 O 0.077(2) 0.0299(6) 0.741(1)
O16 O -0.149(1) 0.0504(7) 0.617(1)
O17 O 0.008(2) 0.1106(5) 0.710(1)
Ag1 Ag 0.3490(2) 0.0231(1) 0.5080(1)
Ag2 Ag -0.4019(2) 0.0229(1) 0.8210(2)
H1 H 0.3853 -0.1492 0.6905
H2 H 0.4639 -0.1270 0.8191
H3 H 0.2735 -0.1624 0.9618
H4 H 0.2175 -0.1888 0.8302
H5 H -0.0211 -0.1822 0.8754
H6 H 0.0388 -0.1675 1.0189
H7 H 0.2398 -0.0422 0.8492
H8 H 0.3159 -0.0741 0.9637
H9 H 0.1027 -0.0797 1.0626
H10 H 0.0367 -0.0401 0.9632
H11 H 0.1010 -0.1369 0.6427
H12 H 0.1341 -0.0805 0.6425
H13 H -0.0672 -0.0646 0.7463
H14 H -0.1159 -0.1189 0.7187
H15 H -0.1633 -0.1134 1.0618
H16 H -0.2353 -0.1362 0.9317
H17 H 0.3707 0.1374 0.5509
H18 H 0.2646 0.1369 0.6684
H19 H 0.1392 0.2093 0.5937
H20 H 0.2387 0.2093 0.4707
H21 H 0.5192 0.2100 0.5067
H22 H 0.5950 0.2100 0.6509
H23 H 0.4347 0.2099 0.8442
H24 H 0.2580 0.2099 0.8194
O12C O 0.465(1) 0.4265(4) 0.708(1)
O13C O 0.580(1) 0.3600(4) 0.803(1)
N3C N 0.367(1) 0.2970(4) 0.647(1)
C12C C 0.486(2) 0.3801(6) 0.727(2)
C13C C 0.362(2) 0.3526(5) 0.642(1)
C14C C 0.232(2) 0.2786(5) 0.560(1)
C15C C 0.510(2) 0.2780(5) 0.596(2)
C16C C 0.351(2) 0.2781(5) 0.787(1)
H17C H 0.3707 0.3626 0.5509
H18C H 0.2646 0.3631 0.6684
H19C H 0.1392 0.2907 0.5937
H20C H 0.2387 0.2907 0.4707
H21C H 0.5192 0.2900 0.5067
H22C H 0.5950 0.2900 0.6509
H23C H 0.4347 0.2901 0.8442
H24C H 0.2580 0.2901 0.8194
O8B O 0.634(1) 0.0390(4) 0.343(1)
O9B O 0.425(1) 0.0842(4) 0.371(1)
O10B O 1.216(1) 0.0240(4) 0.099(1)
O11B O 1.412(1) 0.0675(4) 0.026(1)
N1B N 0.765(1) 0.1144(4) 0.193(1)
N2B N 1.025(1) 0.1088(4) 0.092(1)
C2B C 0.556(2) 0.0777(6) 0.331(1)
C3B C 0.610(1) 0.1207(5) 0.253(1)
C4B C 0.797(2) 0.1604(5) 0.115(1)
C5B C 0.960(2) 0.1588(6) 0.074(2)
C6B C 0.769(2) 0.0721(5) 0.101(1)
C7B C 0.917(2) 0.0721(6) 0.030(1)
C8B C 0.891(2) 0.1079(6) 0.302(1)
C9B C 1.038(2) 0.0983(6) 0.240(1)
C10B C 1.179(2) 0.1084(5) 0.033(1)
C11B C 1.279(2) 0.0634(6) 0.055(1)
Cl3B Cl 0.9964(5) -0.0624(2) 0.3511(4)
O14B O 0.911(1) -0.0652(5) 0.467(1)
O15B O 0.923(2) -0.0299(6) 0.259(1)
O16B O 1.149(1) -0.0504(7) 0.383(1)
O17B O 0.992(2) -0.1106(5) 0.290(1)
Ag1B Ag 0.6510(2) -0.0231(1) 0.4920(1)
Ag2B Ag 1.4019(2) -0.0229(1) 0.1790(2)
H1B H 0.6147 0.1492 0.3095
H2B H 0.5361 0.1270 0.1809
H3B H 0.7265 0.1624 0.0382
H4B H 0.7825 0.1888 0.1698
H5B H 1.0211 0.1822 0.1246
H6B H 0.9612 0.1675 -0.0189
H7B H 0.7602 0.0422 0.1508
H8B H 0.6841 0.0741 0.0363
H9B H 0.8973 0.0797 -0.0626
H10B H 0.9633 0.0401 0.0368
H11B H 0.8990 0.1369 0.3573
H12B H 0.8659 0.0805 0.3575
H13B H 1.0672 0.0646 0.2537
H14B H 1.1159 0.1189 0.2813
H15B H 1.1633 0.1134 -0.0618
H16B H 1.2353 0.1362 0.0683
O12_2 O -0.535(1) 0.0735(4) 0.708(1)
O12B O 0.535(1) -0.0735(4) 0.292(1)
O12B_2 O 1.535(1) -0.0735(4) 0.292(1)
Ag1C Ag 0.3490(2) 0.4769(1) 0.5080(1)
Ag2_2 Ag 0.5981(2) 0.0229(1) 0.8210(2)
Ag2C Ag 0.5981(2) 0.4771(1) 0.8210(2)
Cl1 Cl -0.1482(7) 0.2500 0.4252(6)
O1 O -0.290(2) 0.2500 0.349(1)
O2 O -0.028(2) 0.2500 0.338(2)
O3 O -0.137(1) 0.2077(4) 0.505(1)
O3C O -0.137(1) 0.2923(4) 0.505(1)
loop_
_geom_bond_atom_site_label_1
_geom_bond_atom_site_label_2
_geom_bond_site_symmetry_1
_geom_bond_site_symmetry_2
Cl1 O1 1_555 1_555
O2 Cl1 1_555 1_555
O3 Cl1 1_555 1_555
Cl2 O4 1_555 1_555
O5 Cl2 1_555 1_555
O6 Cl2 1_555 1_555
O7 C1 1_555 1_555
C1 C1C 1_555 1_555
O8 C2 1_555 1_555
O9 C2 1_555 1_555
O10 C11 1_555 1_555
O11 C11 1_555 1_555
N1 C3 1_555 1_555
N2 C5 1_555 1_555
C2 C3 1_555 1_555
C3 H1 1_555 1_555
C4 N1 1_555 1_555
C5 C4 1_555 1_555
C6 N1 1_555 1_555
C7 N2 1_555 1_555
C8 N1 1_555 1_555
C9 N2 1_555 1_555
C10 N2 1_555 1_555
C11 C10 1_555 1_555
O12 C12 1_555 1_555
O13 C12 1_555 1_555
N3 C13 1_555 1_555
C12 C13 1_555 1_555
C13 H17 1_555 1_555
C14 N3 1_555 1_555
C15 N3 1_555 1_555
C16 N3 1_555 1_555
Cl3 O14 1_555 1_555
O14 Ag1 1_555 1_555
O15 Cl3 1_555 1_555
O16 Cl3 1_555 1_555
O17 Cl3 1_555 1_555
Ag1 O8 1_555 1_555
Ag2 O10 1_555 1_555
H2 C3 1_555 1_555
H3 C4 1_555 1_555
H4 C4 1_555 1_555
H5 C5 1_555 1_555
H6 C5 1_555 1_555
H7 C6 1_555 1_555
H8 C6 1_555 1_555
H9 C7 1_555 1_555
H10 C7 1_555 1_555
H11 C8 1_555 1_555
H12 C8 1_555 1_555
H13 C9 1_555 1_555
H14 C9 1_555 1_555
H15 C10 1_555 1_555
H16 C10 1_555 1_555
H18 C13 1_555 1_555
H19 C14 1_555 1_555
H20 C14 1_555 1_555
H21 C15 1_555 1_555
H22 C15 1_555 1_555
H23 C16 1_555 1_555
H24 C16 1_555 1_555
O3C Cl1 1_555 1_555
O6C Cl2 1_555 1_555
O7C C1C 1_555 1_555
O12C C12C 1_555 1_555
O13C C12C 1_555 1_555
N3C C13C 1_555 1_555
C12C C13C 1_555 1_555
C13C H17C 1_555 1_555
C14C C14 1_555 1_555
C15C C15 1_555 1_555
C16C C16 1_555 1_555
H18C C13C 1_555 1_555
H19C C14C 1_555 1_555
H20C C14C 1_555 1_555
H21C C15C 1_555 1_555
H22C C15C 1_555 1_555
H23C C16C 1_555 1_555
H24C C16C 1_555 1_555
O8B C2B 1_555 1_555
O9B Ag1 1_555 1_555
O10B C11B 1_555 1_555
O11B C11B 1_555 1_555
N1B C3B 1_555 1_555
N2B C5B 1_555 1_555
C2B O9B 1_555 1_555
C3B C2B 1_555 1_555
C4B N1B 1_555 1_555
C5B C4B 1_555 1_555
C6B N1B 1_555 1_555
C7B N2B 1_555 1_555
C8B N1B 1_555 1_555
C9B N2B 1_555 1_555
C10B N2B 1_555 1_555
C11B C10B 1_555 1_555
Cl3B O14B 1_555 1_555
O14B Ag1B 1_555 1_555
O15B Cl3B 1_555 1_555
O16B Cl3B 1_555 1_555
O17B Cl3B 1_555 1_555
Ag1B O9 1_555 1_555
Ag2B O10B 1_555 1_555
H1B C3B 1_555 1_555
H2B C3B 1_555 1_555
H3B C4B 1_555 1_555
H4B C4B 1_555 1_555
H5B C5B 1_555 1_555
H6B C5B 1_555 1_555
H7B C6B 1_555 1_555
H8B C6B 1_555 1_555
H9B C7B 1_555 1_555
H10B C7B 1_555 1_555
H11B C8B 1_555 1_555
H12B C8B 1_555 1_555
H13B C9B 1_555 1_555
H14B C9B 1_555 1_555
H15B C10B 1_555 1_555
H16B C10B 1_555 1_555
O12_2 Ag2 1_555 1_555
O12B Ag1B 1_555 1_555
O12B_2 Ag2B 1_555 1_555
Ag1C O12C 1_555 1_555
Ag2_2 O12 1_555 1_555
Ag2C O12C 1_555 1_555
C6 C7 1_555 1_555
C8 C9 1_555 1_555
O12 Ag1 1_555 1_555
N3C C14C 1_555 1_555
N3C C15C 1_555 1_555
N3C C16C 1_555 1_555
O8B Ag1B 1_555 1_555
C6B C7B 1_555 1_555
C8B C9B 1_555 1_555

#END
