
#######################################################################
#
#                 Cambridge Crystallographic Data Centre
#                                CCDC 
#
#######################################################################
#
# If this CIF has been generated from an entry in the Cambridge 
# Structural Database, then it will include bibliographic, chemical, 
# crystal, experimental, refinement or atomic coordinate data resulting 
# from the CCDC's data processing and validation procedures.
#
#######################################################################

data_TIVJAJ
_symmetry_cell_setting           monoclinic
_symmetry_space_group_name_H-M   'I 2/a'
_symmetry_Int_Tables_number      15
_space_group_name_Hall           '-I 2ya'
loop_
_symmetry_equiv_pos_site_id
_symmetry_equiv_pos_as_xyz
1 x,y,z
2 1/2-x,y,-z
3 1/2+x,1/2+y,1/2+z
4 -x,1/2+y,1/2-z
5 -x,-y,-z
6 1/2+x,-y,z
7 1/2-x,1/2-y,1/2-z
8 x,1/2-y,1/2+z
_cell_length_a                   7.682(3)
_cell_length_b                   15.707(5)
_cell_length_c                   19.534(7)
_cell_angle_alpha                90
_cell_angle_beta                 91.22(2)
_cell_angle_gamma                90
_cell_volume                     2356.46
loop_
_atom_site_label
_atom_site_type_symbol
_atom_site_fract_x
_atom_site_fract_y
_atom_site_fract_z
O1 O 0.1423(5) 0.3800(2) 0.1428(2)
C1 C 0.2179(6) 0.4360(3) 0.1182(3)
N1 N 0.2965(6) 0.4930(3) 0.0924(3)
O2 O 0.4352(4) 0.2668(2) 0.2339(2)
C2 C 0.5657(6) 0.2891(3) 0.2095(2)
N2 N 0.6974(4) 0.3127(3) 0.1855(2)
O3 O -0.0476(4) 0.2187(2) 0.0972(2)
O4 O -0.4506(4) 0.3577(2) 0.0284(2)
O5 O 0.3501(4) 0.2220(2) 0.0804(2)
O6 O 0.4642(4) 0.1230(2) 0.0125(2)
C3 C 0.3811(5) 0.1455(3) 0.0632(2)
N3 N 0.2296(4) 0.1025(2) 0.1655(2)
C4 C 0.3106(5) 0.0768(3) 0.1091(2)
C5 C 0.3312(5) -0.0094(3) 0.0947(2)
N4 N 0.2739(5) -0.0699(2) 0.1373(2)
C6 C 0.1945(5) -0.0434(3) 0.1935(2)
C7 C 0.1722(5) 0.0418(3) 0.2075(2)
Mn1 Mn 0.1863(1) 0.2487 0.1673
Na1 Na -0.1614(2) 0.3597(1) 0.0858(1)
H1 H 0.3950(5) -0.0279(3) 0.0483(2)
H2 H 0.1466(5) -0.0901(3) 0.2291(2)
H3 H 0.1066(5) 0.0602(3) 0.2536(2)
H4 H -0.1066(61) 0.1728(24) 0.1174(25)
H5 H -0.0106(72) 0.1844(32) 0.0608(21)
H6 H -0.5170(58) 0.3097(22) 0.0406(26)
H7 H -0.5224(67) 0.3978(29) 0.0485(30)
Na1E Na 0.3386(2) 0.6403(1) 0.0858(1)
Na1_2 Na 0.8386(2) 0.3597(1) 0.0858(1)
Mn1F Mn 0.3137(1) 0.2513 0.3327
O2F O 0.0648(4) 0.2332(2) 0.2661(2)
Na1A Na -0.3386(2) 0.3597(1) -0.0858(1)
N1E N -0.2035(6) 0.5070(3) 0.0924(3)
N2_2 N -0.3026(4) 0.3127(3) 0.1855(2)
O4A O -0.0494(4) 0.3577(2) -0.0284(2)
H6A H 0.0170(58) 0.3097(22) -0.0406(26)
H7A H 0.0224(67) 0.3978(29) -0.0485(30)
loop_
_geom_bond_atom_site_label_1
_geom_bond_atom_site_label_2
_geom_bond_site_symmetry_1
_geom_bond_site_symmetry_2
O1 C1 1_555 1_555
C1 N1 1_555 1_555
N1 Na1E 1_555 1_555
O2 C2 1_555 1_555
C2 N2 1_555 1_555
N2 Na1_2 1_555 1_555
O3 Mn1 1_555 1_555
O4 Na1 1_555 1_555
O5 C3 1_555 1_555
O6 C3 1_555 1_555
C3 C4 1_555 1_555
N3 C4 1_555 1_555
C4 C5 1_555 1_555
C5 N4 1_555 1_555
N4 C6 1_555 1_555
C6 C7 1_555 1_555
C7 N3 1_555 1_555
Mn1 O1 1_555 1_555
Na1 O1 1_555 1_555
H1 C5 1_555 1_555
H2 C6 1_555 1_555
H3 C7 1_555 1_555
H4 O3 1_555 1_555
H5 O3 1_555 1_555
H6 O4 1_555 1_555
H7 O4 1_555 1_555
Mn1F O2 1_555 1_555
O2F Mn1 1_555 1_555
Na1A O4 1_555 1_555
N1E Na1 1_555 1_555
N2_2 Na1 1_555 1_555
O4A Na1 1_555 1_555
H6A O4A 1_555 1_555
H7A O4A 1_555 1_555
O2 Mn1 1_555 1_555
O3 Na1 1_555 1_555
O5 Mn1 1_555 1_555
N3 Mn1 1_555 1_555
Mn1F O2F 1_555 1_555
Na1A O4A 1_555 1_555

#END
