
#######################################################################
#
#                 Cambridge Crystallographic Data Centre
#                                CCDC 
#
#######################################################################
#
# If this CIF has been generated from an entry in the Cambridge 
# Structural Database, then it will include bibliographic, chemical, 
# crystal, experimental, refinement or atomic coordinate data resulting 
# from the CCDC's data processing and validation procedures.
#
#######################################################################

data_TIVKUF
_symmetry_cell_setting           triclinic
_symmetry_space_group_name_H-M   'P -1'
_symmetry_Int_Tables_number      2
_space_group_name_Hall           '-P 1'
loop_
_symmetry_equiv_pos_site_id
_symmetry_equiv_pos_as_xyz
1 x,y,z
2 -x,-y,-z
_cell_length_a                   8.1019(4)
_cell_length_b                   8.3122(5)
_cell_length_c                   10.3501(4)
_cell_angle_alpha                72.332(3)
_cell_angle_beta                 84.562(3)
_cell_angle_gamma                77.878(3)
_cell_volume                     648.977
loop_
_atom_site_label
_atom_site_type_symbol
_atom_site_fract_x
_atom_site_fract_y
_atom_site_fract_z
Cu1 Cu 0.59216(4) 0.14236(4) 0.28662(3)
V1 V 0.87679(6) 0.39002(6) 0.34998(5)
V2 V 0.26121(6) 0.27133(6) 0.52264(5)
O1 O 0.7741(3) 0.2421(3) 0.3367(2)
O2 O 0.9198(3) 0.5062(3) 0.1993(2)
O3 O 0.7425(3) 0.5317(3) 0.4394(2)
O4 O 0.4295(3) 0.2315(3) 0.4252(2)
O5 O 1.0722(3) 0.2916(3) 0.4405(2)
O6 O 0.7286(3) -0.1058(3) 0.3363(2)
N1 N 0.5900(3) 0.2590(3) 0.0777(2)
N2 N 0.3794(3) 0.0700(3) 0.2320(2)
C1 C 0.7065(4) 0.3461(4) 0.0041(3)
H1 H 0.7903 0.3671 0.0489
C2 C 0.7057(4) 0.4056(4) -0.1364(3)
H2 H 0.7869 0.4667 -0.1848
C3 C 0.5828(4) 0.3731(4) -0.2037(3)
H3 H 0.5811 0.4107 -0.2980
C4 C 0.4620(4) 0.2835(4) -0.1289(3)
H4 H 0.3787 0.2594 -0.1722
C5 C 0.4675(4) 0.2303(4) 0.0120(3)
C6 C 0.3397(4) 0.1390(4) 0.1003(3)
C7 C 0.1878(4) 0.1270(4) 0.0534(3)
H5 H 0.1610 0.1775 -0.0372
C8 C 0.0781(4) 0.0386(4) 0.1448(4)
H6 H -0.0237 0.0290 0.1160
C9 C 0.1209(4) -0.0351(4) 0.2786(3)
H7 H 0.0492 -0.0962 0.3409
C10 C 0.2718(4) -0.0166(4) 0.3187(3)
H8 H 0.3001 -0.0660 0.4091
V2A V 0.73879(6) 0.72867(6) 0.47736(5)
V2_2 V 1.26121(6) 0.27133(6) 0.52264(5)
V2A_2 V 0.73879(6) -0.27133(6) 0.47736(5)
O3A O 0.2575(3) 0.4683(3) 0.5606(2)
O5_2 O 0.0722(3) 0.2916(3) 0.4405(2)
O6A O 0.2714(3) 0.1058(3) 0.6637(2)
loop_
_geom_bond_atom_site_label_1
_geom_bond_atom_site_label_2
_geom_bond_site_symmetry_1
_geom_bond_site_symmetry_2
Cu1 O1 1_555 1_555
V1 O1 1_555 1_555
V2 O4 1_555 1_555
O2 V1 1_555 1_555
O3 V1 1_555 1_555
O4 Cu1 1_555 1_555
O5 V1 1_555 1_555
O6 Cu1 1_555 1_555
N1 Cu1 1_555 1_555
N2 Cu1 1_555 1_555
C1 N1 1_555 1_555
H1 C1 1_555 1_555
C2 C1 1_555 1_555
H2 C2 1_555 1_555
C3 C2 1_555 1_555
H3 C3 1_555 1_555
C4 C3 1_555 1_555
H4 C4 1_555 1_555
C5 N1 1_555 1_555
C6 N2 1_555 1_555
C7 C6 1_555 1_555
H5 C7 1_555 1_555
C8 C7 1_555 1_555
H6 C8 1_555 1_555
C9 C8 1_555 1_555
H7 C9 1_555 1_555
C10 N2 1_555 1_555
H8 C10 1_555 1_555
V2A O3 1_555 1_555
V2_2 O5 1_555 1_555
V2A_2 O6 1_555 1_555
O3A V2 1_555 1_555
O5_2 V2 1_555 1_555
O6A V2 1_555 1_555
C4 C5 1_555 1_555
C5 C6 1_555 1_555
C9 C10 1_555 1_555

#END
