
#######################################################################
#
#                 Cambridge Crystallographic Data Centre
#                                CCDC 
#
#######################################################################
#
# If this CIF has been generated from an entry in the Cambridge 
# Structural Database, then it will include bibliographic, chemical, 
# crystal, experimental, refinement or atomic coordinate data resulting 
# from the CCDC's data processing and validation procedures.
#
#######################################################################

data_TIVLER
_symmetry_cell_setting           monoclinic
_symmetry_space_group_name_H-M   'P 21/c'
_symmetry_Int_Tables_number      14
_space_group_name_Hall           '-P 2ybc'
loop_
_symmetry_equiv_pos_site_id
_symmetry_equiv_pos_as_xyz
1 x,y,z
2 -x,1/2+y,1/2-z
3 -x,-y,-z
4 x,1/2-y,1/2+z
_cell_length_a                   16.452(3)
_cell_length_b                   5.4949(11)
_cell_length_c                   17.295(4)
_cell_angle_alpha                90
_cell_angle_beta                 113.39(3)
_cell_angle_gamma                90
_cell_volume                     1435.02
loop_
_atom_site_label
_atom_site_type_symbol
_atom_site_fract_x
_atom_site_fract_y
_atom_site_fract_z
H1 H 1.083(2) -0.418(6) 0.066(2)
Co1 Co 1.0000 0.0000 0.0000
N1 N 0.95097(12) 0.0991(4) 0.09391(13)
N2 N 0.91238(17) 0.2953(5) 0.18654(17)
N3 N 0.87710(13) 0.0679(4) 0.17375(13)
O1 O 1.11074(10) 0.2329(3) 0.05241(11)
O2 O 1.20125(12) 0.0026(3) 0.15793(12)
O3 O 1.06593(11) -0.2873(3) 0.07999(12)
H2 H 1.1147 -0.2408 0.1132
C1 C 0.95636(17) 0.3032(5) 0.13837(18)
H3 H 0.9887 0.4386 0.1351
C2 C 0.90106(18) -0.0422(5) 0.11823(18)
H4 H 0.8847 -0.1999 0.0988
C3 C 0.81856(17) -0.0214(6) 0.21331(17)
H5 H 0.8256 0.0799 0.2615
H6 H 0.8354 -0.1862 0.2334
C4 C 0.72260(16) -0.0185(5) 0.15212(16)
C5 C 0.66730(18) 0.1677(6) 0.15189(19)
H7 H 0.6883 0.2911 0.1917
C6 C 0.58078(17) 0.1751(6) 0.09334(19)
H8 H 0.5447 0.3041 0.0945
C7 C 0.54633(15) -0.0061(4) 0.03270(16)
C8 C 0.60221(18) -0.1937(5) 0.0347(2)
H9 H 0.5814 -0.3188 -0.0045
C9 C 0.68903(18) -0.2014(6) 0.09380(19)
H10 H 0.7250 -0.3322 0.0940
C10 C 1.18683(14) 0.1777(4) 0.10931(15)
C11 C 1.26243(14) 0.3427(4) 0.11561(15)
C12 C 1.25050(16) 0.5317(5) 0.05898(17)
H11 H 1.1950 0.5576 0.0163
C13 C 1.32035(17) 0.6822(5) 0.06533(18)
H12 H 1.3115 0.8093 0.0273
C14 C 1.40269(18) 0.6438(6) 0.12778(18)
H13 H 1.4497 0.7445 0.1320
C15 C 1.41558(17) 0.4564(6) 0.18401(19)
H14 H 1.4714 0.4308 0.2263
C16 C 1.34609(16) 0.3055(5) 0.17825(17)
H15 H 1.3555 0.1787 0.2165
N1B N 0.04903(12) -0.0991(4) -0.09391(13)
N2B N 0.08762(17) -0.2953(5) -0.18654(17)
N3B N 0.12290(13) -0.0679(4) -0.17375(13)
C1B C 0.04364(17) -0.3032(5) -0.13837(18)
H3B H 0.0113 -0.4386 -0.1351
C2B C 0.09894(18) 0.0422(5) -0.11823(18)
H4B H 0.1153 0.1999 -0.0988
C3B C 0.18144(17) 0.0214(6) -0.21331(17)
H5B H 0.1744 -0.0799 -0.2615
H6B H 0.1646 0.1862 -0.2334
C4B C 0.27740(16) 0.0185(5) -0.15212(16)
C5B C 0.33270(18) -0.1677(6) -0.15189(19)
H7B H 0.3117 -0.2911 -0.1917
C6B C 0.41922(17) -0.1751(6) -0.09334(19)
H8B H 0.4553 -0.3041 -0.0945
C7B C 0.45367(15) 0.0061(4) -0.03270(16)
C8B C 0.39779(18) 0.1937(5) -0.0347(2)
H9B H 0.4186 0.3188 0.0045
C9B C 0.31097(18) 0.2014(6) -0.09380(19)
H10B H 0.2750 0.3322 -0.0940
O1B O 0.88926(10) -0.2329(3) -0.05241(11)
O2B O 0.79875(12) -0.0026(3) -0.15793(12)
C10B C 0.81317(14) -0.1777(4) -0.10931(15)
C11B C 0.73757(14) -0.3427(4) -0.11561(15)
C12B C 0.74950(16) -0.5317(5) -0.05898(17)
H11B H 0.8050 -0.5576 -0.0163
C13B C 0.67965(17) -0.6822(5) -0.06533(18)
H12B H 0.6885 -0.8093 -0.0273
C14B C 0.59731(18) -0.6438(6) -0.12778(18)
H13B H 0.5503 -0.7445 -0.1320
C15B C 0.58442(17) -0.4564(6) -0.18401(19)
H14B H 0.5286 -0.4308 -0.2263
C16B C 0.65391(16) -0.3055(5) -0.17825(17)
H15B H 0.6445 -0.1787 -0.2165
H1B H 0.917(2) 0.418(6) -0.066(2)
O3B O 0.93407(11) 0.2873(3) -0.07999(12)
H2B H 0.8853 0.2408 -0.1132
Co1_2 Co 0.0000 0.0000 0.0000
N1B_2 N 1.04903(12) -0.0991(4) -0.09391(13)
loop_
_geom_bond_atom_site_label_1
_geom_bond_atom_site_label_2
_geom_bond_site_symmetry_1
_geom_bond_site_symmetry_2
H1 O3 1_555 1_555
Co1 N1 1_555 1_555
N1 C1 1_555 1_555
N2 N3 1_555 1_555
N3 C2 1_555 1_555
O1 Co1 1_555 1_555
O2 C10 1_555 1_555
O3 Co1 1_555 1_555
H2 O3 1_555 1_555
C1 N2 1_555 1_555
H3 C1 1_555 1_555
C2 N1 1_555 1_555
H4 C2 1_555 1_555
C3 N3 1_555 1_555
H5 C3 1_555 1_555
H6 C3 1_555 1_555
C4 C3 1_555 1_555
C5 C4 1_555 1_555
H7 C5 1_555 1_555
C6 C5 1_555 1_555
H8 C6 1_555 1_555
C7 C6 1_555 1_555
C8 C7 1_555 1_555
H9 C8 1_555 1_555
C9 C4 1_555 1_555
H10 C9 1_555 1_555
C10 O1 1_555 1_555
C11 C10 1_555 1_555
C12 C11 1_555 1_555
H11 C12 1_555 1_555
C13 C12 1_555 1_555
H12 C13 1_555 1_555
C14 C13 1_555 1_555
H13 C14 1_555 1_555
C15 C14 1_555 1_555
H14 C15 1_555 1_555
C16 C11 1_555 1_555
H15 C16 1_555 1_555
N1B C1B 1_555 1_555
N2B N3B 1_555 1_555
N3B C2B 1_555 1_555
C1B N2B 1_555 1_555
H3B C1B 1_555 1_555
C2B N1B 1_555 1_555
H4B C2B 1_555 1_555
C3B N3B 1_555 1_555
H5B C3B 1_555 1_555
H6B C3B 1_555 1_555
C4B C3B 1_555 1_555
C5B C4B 1_555 1_555
H7B C5B 1_555 1_555
C6B C5B 1_555 1_555
H8B C6B 1_555 1_555
C7B C7 1_555 1_555
C8B C7B 1_555 1_555
H9B C8B 1_555 1_555
C9B C4B 1_555 1_555
H10B C9B 1_555 1_555
O1B Co1 1_555 1_555
O2B C10B 1_555 1_555
C10B O1B 1_555 1_555
C11B C10B 1_555 1_555
C12B C11B 1_555 1_555
H11B C12B 1_555 1_555
C13B C12B 1_555 1_555
H12B C13B 1_555 1_555
C14B C13B 1_555 1_555
H13B C14B 1_555 1_555
C15B C14B 1_555 1_555
H14B C15B 1_555 1_555
C16B C11B 1_555 1_555
H15B C16B 1_555 1_555
H1B O3B 1_555 1_555
O3B Co1 1_555 1_555
H2B O3B 1_555 1_555
Co1_2 N1B 1_555 1_555
N1B_2 Co1 1_555 1_555
C8 C9 1_555 1_555
C15 C16 1_555 1_555
C6B C7B 1_555 1_555
C8B C9B 1_555 1_555
C15B C16B 1_555 1_555

#END
