
#######################################################################
#
#                 Cambridge Crystallographic Data Centre
#                                CCDC 
#
#######################################################################
#
# If this CIF has been generated from an entry in the Cambridge 
# Structural Database, then it will include bibliographic, chemical, 
# crystal, experimental, refinement or atomic coordinate data resulting 
# from the CCDC's data processing and validation procedures.
#
#######################################################################

data_TIVLIU
_symmetry_cell_setting           triclinic
_symmetry_space_group_name_H-M   'P -1'
_symmetry_Int_Tables_number      2
_space_group_name_Hall           '-P 1'
loop_
_symmetry_equiv_pos_site_id
_symmetry_equiv_pos_as_xyz
1 x,y,z
2 -x,-y,-z
_cell_length_a                   9.6447(4)
_cell_length_b                   10.8758(4)
_cell_length_c                   11.1261(4)
_cell_angle_alpha                89.5990(10)
_cell_angle_beta                 65.6780(10)
_cell_angle_gamma                87.7040(10)
_cell_volume                     1062.57
loop_
_atom_site_label
_atom_site_type_symbol
_atom_site_fract_x
_atom_site_fract_y
_atom_site_fract_z
W1 W -0.16822(6) 0.48378(5) 0.71813(5)
W2 W 0.04436(6) 0.28893(4) 0.48641(5)
W3 W 0.19820(7) 0.52097(5) 0.56251(6)
O1 O 0.3406(12) 0.5370(9) 0.6104(10)
O3 O 0.0000 0.5000 0.5000
O5 O -0.2910(13) 0.4728(9) 0.8781(10)
O6 O 0.0733(12) 0.1321(8) 0.4791(10)
O7 O -0.1695(10) 0.6581(7) 0.6883(8)
O8 O -0.1267(11) 0.3132(7) 0.4390(9)
O9 O -0.1036(10) 0.3161(7) 0.6659(9)
O10 O -0.2972(10) 0.4735(8) 0.6245(8)
O11 O 0.0229(10) 0.5029(7) 0.7265(8)
O12 O 0.1922(10) 0.3449(7) 0.5447(9)
Cu2 Cu -0.5813(2) 0.51882(15) 0.8106(3)
N2 N -0.5878(13) 0.3443(10) 0.8160(13)
N3 N -0.5753(13) -0.3072(10) 0.8167(13)
C1 C -0.5771(13) 0.0871(11) 0.8163(13)
C3 C -0.5490(18) 0.1520(12) 0.7019(15)
H2 H -0.5253 0.1100 0.6229
C4 C -0.5059(17) -0.1190(12) 0.6997(14)
H3 H -0.4600 -0.0799 0.6190
C5 C -0.6136(16) 0.1551(12) 0.9312(14)
H4 H -0.6345 0.1149 1.0105
C6 C -0.5560(18) 0.2795(12) 0.7048(16)
H5 H -0.5381 0.3217 0.6271
C9 C -0.6189(17) 0.2804(13) 0.9283(15)
H8 H -0.6450 0.3238 1.0069
C10 C -0.6391(16) -0.1148(11) 0.9311(13)
H9 H -0.6832 -0.0729 1.0114
C11 C -0.5728(14) -0.0496(11) 0.8156(13)
C12 C -0.5077(17) -0.2454(12) 0.7044(15)
H10 H -0.4597 -0.2899 0.6260
C13 C -0.6404(17) -0.2414(12) 0.9279(16)
H11 H -0.6888 -0.2826 1.0069
W1A W 0.16822(6) 0.51622(5) 0.28187(5)
W2A W -0.04436(6) 0.71107(4) 0.51359(5)
W3A W -0.19820(7) 0.47903(5) 0.43749(6)
O1_2 O -0.6594(12) 0.5370(9) 0.6104(10)
O1A O -0.3406(12) 0.4630(9) 0.3896(10)
O5A O 0.2910(13) 0.5272(9) 0.1219(10)
O6A O -0.0733(12) 0.8679(8) 0.5209(10)
O7A O 0.1695(10) 0.3419(7) 0.3117(8)
O8A O 0.1267(11) 0.6868(7) 0.5610(9)
O9A O 0.1036(10) 0.6839(7) 0.3341(9)
O10A O 0.2972(10) 0.5265(8) 0.3755(8)
O10_2 O 0.7028(10) 0.4735(8) 0.6245(8)
O11A O -0.0229(10) 0.4971(7) 0.2735(8)
O12A O -0.1922(10) 0.6551(7) 0.4553(9)
Cu2_2 Cu 0.4187(2) 0.51882(15) 0.8106(3)
Cu2_3 Cu -0.5813(2) -0.48118(15) 0.8106(3)
Cu2A Cu 0.5813(2) 0.48118(15) 0.1894(3)
Cu2_4 Cu -0.5813(2) 1.51882(15) 0.8106(3)
Cu2A_2 Cu -0.4187(2) 0.48118(15) 0.1894(3)
N2_2 N -0.5878(13) 1.3443(10) 0.8160(13)
N2_3 N 0.4122(13) 0.3443(10) 0.8160(13)
N3_2 N -0.5753(13) 0.6928(10) 0.8167(13)
N3_3 N 0.4247(13) 0.6928(10) 0.8167(13)
C1_2 C -0.5771(13) 1.0871(11) 0.8163(13)
C3_2 C -0.5490(18) 1.1520(12) 0.7019(15)
H2_2 H -0.5253 1.1100 0.6229
C4_2 C -0.5059(17) 0.8810(12) 0.6997(14)
H3_2 H -0.4600 0.9201 0.6190
C5_2 C -0.6136(16) 1.1551(12) 0.9312(14)
H4_2 H -0.6345 1.1149 1.0105
C6_2 C -0.5560(18) 1.2795(12) 0.7048(16)
H5_2 H -0.5381 1.3217 0.6271
C9_2 C -0.6189(17) 1.2804(13) 0.9283(15)
H8_2 H -0.6450 1.3238 1.0069
C10_2 C -0.6391(16) 0.8852(11) 0.9311(13)
H9_2 H -0.6832 0.9271 1.0114
C11_2 C -0.5728(14) 0.9504(11) 0.8156(13)
C12_2 C -0.5077(17) 0.7546(12) 0.7044(15)
H10_2 H -0.4597 0.7101 0.6260
C13_2 C -0.6404(17) 0.7586(12) 0.9279(16)
H11_2 H -0.6888 0.7174 1.0069
O2 O 0.2035(17) -0.0461(15) 0.2455(14)
O4 O 0.2352(15) -0.0517(13) 0.5685(13)
Cu1 Cu 0.0000 0.5000 1.0000
N1 N 0.0105(15) 0.3252(10) 0.9973(12)
C2 C -0.020(2) 0.2625(13) 1.1075(15)
H1 H -0.0357 0.3060 1.1841
C7 C 0.0453(16) 0.1341(11) 0.8816(13)
H6 H 0.0721 0.0932 0.8016
C8 C 0.0450(16) 0.2608(11) 0.8857(15)
H7 H 0.0699 0.3036 0.8074
C14 C 0.0054(13) 0.0678(9) 0.9976(11)
C15 C -0.0282(19) 0.1363(12) 1.1142(13)
H12 H -0.0557 0.0967 1.1947
Cu1_2 Cu 0.0000 -0.5000 1.0000
N1A N -0.0105(15) -0.3252(10) 1.0027(12)
N1A_2 N -0.0105(15) 0.6748(10) 1.0027(12)
C2A C 0.020(2) -0.2625(13) 0.8925(15)
H1A H 0.0357 -0.3060 0.8159
C7A C -0.0453(16) -0.1341(11) 1.1184(13)
H6A H -0.0721 -0.0932 1.1984
C8A C -0.0450(16) -0.2608(11) 1.1143(15)
H7A H -0.0699 -0.3036 1.1926
C14A C -0.0054(13) -0.0678(9) 1.0024(11)
C15A C 0.0282(19) -0.1363(12) 0.8858(13)
H12A H 0.0557 -0.0967 0.8053
loop_
_geom_bond_atom_site_label_1
_geom_bond_atom_site_label_2
_geom_bond_site_symmetry_1
_geom_bond_site_symmetry_2
W1 O3 1_555 1_555
W2 O3 1_555 1_555
W3 O1 1_555 1_555
O1 Cu2_2 1_555 1_555
O3 W3 1_555 1_555
O5 W1 1_555 1_555
O6 W2 1_555 1_555
O7 W1 1_555 1_555
O8 W2 1_555 1_555
O9 W1 1_555 1_555
O10 W1 1_555 1_555
O11 W1 1_555 1_555
O12 W2 1_555 1_555
Cu1 N1 1_555 1_555
Cu2 O10 1_555 1_555
N1 C2 1_555 1_555
N2 Cu2 1_555 1_555
N3 C12 1_555 1_555
C1 C3 1_555 1_555
C2 H1 1_555 1_555
C3 H2 1_555 1_555
C4 H3 1_555 1_555
C5 C1 1_555 1_555
H4 C5 1_555 1_555
C6 N2 1_555 1_555
H5 C6 1_555 1_555
C7 H6 1_555 1_555
C8 N1 1_555 1_555
H7 C8 1_555 1_555
C9 N2 1_555 1_555
H8 C9 1_555 1_555
C10 H9 1_555 1_555
C11 C1 1_555 1_555
C12 C4 1_555 1_555
H10 C12 1_555 1_555
C13 N3 1_555 1_555
H11 C13 1_555 1_555
C14 C7 1_555 1_555
C15 C2 1_555 1_555
H12 C15 1_555 1_555
W1A O3 1_555 1_555
W2A O3 1_555 1_555
W3A O3 1_555 1_555
O1_2 Cu2 1_555 1_555
O1A W3A 1_555 1_555
O5A W1A 1_555 1_555
O6A W2A 1_555 1_555
O7A W2 1_555 1_555
O8A W3 1_555 1_555
O9A W1A 1_555 1_555
O10A W3 1_555 1_555
O10_2 Cu2_2 1_555 1_555
O11A W1A 1_555 1_555
O12A W2A 1_555 1_555
Cu1_2 N1A 1_555 1_555
Cu2_2 N2_3 1_555 1_555
Cu2_3 N3 1_555 1_555
Cu2A O10A 1_555 1_555
Cu2_4 N2_2 1_555 1_555
Cu2A_2 O1A 1_555 1_555
N1A C2A 1_555 1_555
N1A_2 Cu1 1_555 1_555
N2_2 C6_2 1_555 1_555
N3_2 Cu2 1_555 1_555
N3_3 Cu2_2 1_555 1_555
C1_2 C3_2 1_555 1_555
C2A H1A 1_555 1_555
C3_2 H2_2 1_555 1_555
C4_2 H3_2 1_555 1_555
C5_2 C1_2 1_555 1_555
H4_2 C5_2 1_555 1_555
C6_2 C3_2 1_555 1_555
H5_2 C6_2 1_555 1_555
C7A H6A 1_555 1_555
C8A N1A 1_555 1_555
H7A C8A 1_555 1_555
C9_2 N2_2 1_555 1_555
H8_2 C9_2 1_555 1_555
C10_2 H9_2 1_555 1_555
C11_2 C1_2 1_555 1_555
C12_2 N3_2 1_555 1_555
H10_2 C12_2 1_555 1_555
C13_2 N3_2 1_555 1_555
H11_2 C13_2 1_555 1_555
C14A C14 1_555 1_555
C15A C2A 1_555 1_555
H12A C15A 1_555 1_555
W2 O9 1_555 1_555
W3 O11 1_555 1_555
W3 O12 1_555 1_555
O7 W2A 1_555 1_555
O8 W3A 1_555 1_555
O10 W3A 1_555 1_555
C3 C6 1_555 1_555
C4 C11 1_555 1_555
C5 C9 1_555 1_555
C7 C8 1_555 1_555
C10 C11 1_555 1_555
C10 C13 1_555 1_555
C14 C15 1_555 1_555
W1A O7A 1_555 1_555
W1A O10A 1_555 1_555
W2A O8A 1_555 1_555
W2A O9A 1_555 1_555
W3A O11A 1_555 1_555
W3A O12A 1_555 1_555
C4_2 C11_2 1_555 1_555
C4_2 C12_2 1_555 1_555
C5_2 C9_2 1_555 1_555
C7A C8A 1_555 1_555
C7A C14A 1_555 1_555
C10_2 C11_2 1_555 1_555
C10_2 C13_2 1_555 1_555
C14A C15A 1_555 1_555

#END
