
#######################################################################
#
#                 Cambridge Crystallographic Data Centre
#                                CCDC 
#
#######################################################################
#
# If this CIF has been generated from an entry in the Cambridge 
# Structural Database, then it will include bibliographic, chemical, 
# crystal, experimental, refinement or atomic coordinate data resulting 
# from the CCDC's data processing and validation procedures.
#
#######################################################################

data_TIVPEV
_symmetry_cell_setting           monoclinic
_symmetry_space_group_name_H-M   'P 21/c'
_symmetry_Int_Tables_number      14
_space_group_name_Hall           '-P 2ybc'
loop_
_symmetry_equiv_pos_site_id
_symmetry_equiv_pos_as_xyz
1 x,y,z
2 -x,1/2+y,1/2-z
3 -x,-y,-z
4 x,1/2-y,1/2+z
_cell_length_a                   11.1761(3)
_cell_length_b                   11.8084(4)
_cell_length_c                   12.5239(4)
_cell_angle_alpha                90
_cell_angle_beta                 91.705(3)
_cell_angle_gamma                90
_cell_volume                     1652.07
loop_
_atom_site_label
_atom_site_type_symbol
_atom_site_fract_x
_atom_site_fract_y
_atom_site_fract_z
Cu1 Cu 0.500 1 0.000
Cu2 Cu 1 1 0.000
O1 O 0.660546 1.122275 -0.055674
O2 O 0.8563 1.093017 -0.059483
N1 N 0.635013 0.885365 -0.014898
N2 N 0.662101 0.776528 0.002103
N3 N 0.779756 0.764257 -0.001113
N4 N 0.828754 0.865156 -0.020203
N5 N 0.551522 1.011465 0.161136
N6 N 0.951407 0.995794 0.155954
C1 C 0.751496 1.063096 -0.049928
C2 C 0.738438 0.938095 -0.028351
C3 C 0.573554 0.923927 0.229766
C4 C 0.604489 0.946434 0.336136
C5 C 0.613983 1.055242 0.375647
C6 C 0.59078 1.141155 0.303314
C7 C 0.559841 1.120206 0.19675
C8 C 0.647079 1.083068 0.489744
C9 C 0.771572 1.041783 0.516297
C10 C 0.861412 1.118483 0.466835
C11 C 0.946316 1.108969 0.17617
C12 C 0.91707 1.146552 0.277272
C13 C 0.892711 1.073007 0.359325
C14 C 0.898826 0.959154 0.335357
C15 C 0.927886 0.920093 0.234585
H1 H 0.567779 0.847157 0.204918
H2 H 0.619768 0.884009 0.383719
H3 H 0.596187 1.218213 0.32741
H4 H 0.544433 1.182087 0.148563
H5 H 0.643546 1.16356 0.499946
H6 H 0.591625 1.047189 0.536069
H7 H 0.784449 1.041035 0.592423
H8 H 0.780957 0.966328 0.489266
H9 H 0.932269 1.12196 0.511963
H10 H 0.827926 1.192961 0.458715
H11 H 0.962845 1.162534 0.120862
H12 H 0.913711 1.226562 0.290442
H13 H 0.882446 0.904963 0.390164
H14 H 0.931331 0.840247 0.220581
O1B O 0.339454 0.877725 0.055674
O2B O 0.1437 0.906983 0.059483
N1B N 0.364987 1.114635 0.014898
N2B N 0.337899 1.223472 -0.002103
N3B N 0.220244 1.235743 0.001113
N4B N 0.171246 1.134844 0.020203
N5B N 0.448478 0.988535 -0.161136
N6B N 0.048593 1.004206 -0.155954
C1B C 0.248504 0.936904 0.049928
C2B C 0.261562 1.061905 0.028351
C3B C 0.426446 1.076073 -0.229766
C4B C 0.395511 1.053566 -0.336136
C5B C 0.386017 0.944758 -0.375647
C6B C 0.40922 0.858845 -0.303314
C7B C 0.440159 0.879794 -0.19675
C8B C 0.352921 0.916932 -0.489744
C9B C 0.228428 0.958217 -0.516297
C10B C 0.138588 0.881517 -0.466835
C11B C 0.053684 0.891031 -0.17617
C12B C 0.08293 0.853448 -0.277272
C13B C 0.107289 0.926993 -0.359325
C14B C 0.101174 1.040846 -0.335357
C15B C 0.072114 1.079907 -0.234585
H1B H 0.432221 1.152843 -0.204918
H2B H 0.380232 1.115991 -0.383719
H3B H 0.403813 0.781787 -0.32741
H4B H 0.455567 0.817913 -0.148563
H5B H 0.356454 0.83644 -0.499946
H6B H 0.408375 0.952811 -0.536069
H7B H 0.215551 0.958965 -0.592423
H8B H 0.219043 1.033672 -0.489266
H9B H 0.067731 0.87804 -0.511963
H10B H 0.172074 0.807039 -0.458715
H11B H 0.037155 0.837466 -0.120862
H12B H 0.086289 0.773438 -0.290442
H13B H 0.117554 1.095037 -0.390164
H14B H 0.068669 1.159753 -0.220581
Cu2_2 Cu 0 1 0.000
O2B_2 O 1.1437 0.906983 0.059483
N4B_2 N 1.171246 1.134844 0.020203
N6B_2 N 1.048593 1.004206 -0.155954
loop_
_geom_bond_atom_site_label_1
_geom_bond_atom_site_label_2
_geom_bond_site_symmetry_1
_geom_bond_site_symmetry_2
Cu1 O1 1_555 1_555
Cu2 O2 1_555 1_555
O1 C1 1_555 1_555
O2 C1 1_555 1_555
N1 Cu1 1_555 1_555
N2 N1 1_555 1_555
N3 N2 1_555 1_555
N4 Cu2 1_555 1_555
N5 Cu1 1_555 1_555
N6 Cu2 1_555 1_555
C1 C2 1_555 1_555
C2 N1 1_555 1_555
C3 N5 1_555 1_555
C4 C3 1_555 1_555
C5 C4 1_555 1_555
C6 C5 1_555 1_555
C7 N5 1_555 1_555
C8 C5 1_555 1_555
C9 C8 1_555 1_555
C10 C9 1_555 1_555
C11 N6 1_555 1_555
C12 C11 1_555 1_555
C13 C10 1_555 1_555
C14 C13 1_555 1_555
C15 N6 1_555 1_555
H1 C3 1_555 1_555
H2 C4 1_555 1_555
H3 C6 1_555 1_555
H4 C7 1_555 1_555
H5 C8 1_555 1_555
H6 C8 1_555 1_555
H7 C9 1_555 1_555
H8 C9 1_555 1_555
H9 C10 1_555 1_555
H10 C10 1_555 1_555
H11 C11 1_555 1_555
H12 C12 1_555 1_555
H13 C14 1_555 1_555
H14 C15 1_555 1_555
O1B Cu1 1_555 1_555
O2B C1B 1_555 1_555
N1B Cu1 1_555 1_555
N2B N1B 1_555 1_555
N3B N2B 1_555 1_555
N4B N3B 1_555 1_555
N5B Cu1 1_555 1_555
N6B C11B 1_555 1_555
C1B O1B 1_555 1_555
C2B N1B 1_555 1_555
C3B N5B 1_555 1_555
C4B C3B 1_555 1_555
C5B C4B 1_555 1_555
C6B C5B 1_555 1_555
C7B N5B 1_555 1_555
C8B C5B 1_555 1_555
C9B C8B 1_555 1_555
C10B C9B 1_555 1_555
C11B C12B 1_555 1_555
C12B C13B 1_555 1_555
C13B C10B 1_555 1_555
C14B C13B 1_555 1_555
C15B N6B 1_555 1_555
H1B C3B 1_555 1_555
H2B C4B 1_555 1_555
H3B C6B 1_555 1_555
H4B C7B 1_555 1_555
H5B C8B 1_555 1_555
H6B C8B 1_555 1_555
H7B C9B 1_555 1_555
H8B C9B 1_555 1_555
H9B C10B 1_555 1_555
H10B C10B 1_555 1_555
H11B C11B 1_555 1_555
H12B C12B 1_555 1_555
H13B C14B 1_555 1_555
H14B C15B 1_555 1_555
Cu2_2 O2B 1_555 1_555
O2B_2 Cu2 1_555 1_555
N4B_2 Cu2 1_555 1_555
N6B_2 Cu2 1_555 1_555
N3 N4 1_555 1_555
N4 C2 1_555 1_555
C6 C7 1_555 1_555
C12 C13 1_555 1_555
C14 C15 1_555 1_555
N4B C2B 1_555 1_555
N4B Cu2_2 1_555 1_555
N6B Cu2_2 1_555 1_555
C1B C2B 1_555 1_555
C6B C7B 1_555 1_555
C14B C15B 1_555 1_555

#END
