
#######################################################################
#
#                 Cambridge Crystallographic Data Centre
#                                CCDC 
#
#######################################################################
#
# If this CIF has been generated from an entry in the Cambridge 
# Structural Database, then it will include bibliographic, chemical, 
# crystal, experimental, refinement or atomic coordinate data resulting 
# from the CCDC's data processing and validation procedures.
#
#######################################################################

data_TIVPEV01
_symmetry_cell_setting           orthorhombic
_symmetry_space_group_name_H-M   'P n m a'
_symmetry_Int_Tables_number      62
_space_group_name_Hall           '-P 2ac 2n'
loop_
_symmetry_equiv_pos_site_id
_symmetry_equiv_pos_as_xyz
1 x,y,z
2 1/2-x,-y,1/2+z
3 -x,1/2+y,-z
4 1/2+x,1/2-y,1/2-z
5 -x,-y,-z
6 1/2+x,y,1/2-z
7 x,1/2-y,z
8 1/2-x,1/2+y,1/2+z
_cell_length_a                   12.5434(3)
_cell_length_b                   11.2251(2)
_cell_length_c                   11.9059(3)
_cell_angle_alpha                90
_cell_angle_beta                 90
_cell_angle_gamma                90
_cell_volume                     1676.36
loop_
_atom_site_label
_atom_site_type_symbol
_atom_site_fract_x
_atom_site_fract_y
_atom_site_fract_z
Cu1 Cu 0.500 0.000 0.500
O1 O 0.4418(3) -0.15163(8) 0.3904(3)
N1 N 0.4804(2) -0.15291(4) 0.6218(3)
N2 N 0.4978(3) -0.19105(4) 0.7264(3)
N3 N 0.338681 0.051668 0.506785
C1 C 0.4491(2) -0.25 0.4350(3)
C2 C 0.46988(16) -0.25 0.5591(3)
C3 C 0.266101 0.07023 0.424971
C4 C 0.161031 0.099807 0.45043
C5 C 0.136116 0.108869 0.563964
C6 C 0.210739 0.089802 0.648581
C7 C 0.314289 0.060462 0.616904
C8 C 0.02117 0.141331 0.597042
C9 C -0.0139(2) 0.250 0.5346(4)
H1 H 0.287293 0.06291 0.3478
H2 H 0.108759 0.113184 0.392901
H3 H 0.191413 0.096666 0.726331
H4 H 0.367923 0.046594 0.67292
H5 H -0.025409 0.076151 0.579237
H6 H 0.017907 0.156353 0.676346
H7 H 0.017503 0.250 0.461048
H8 H -0.090134 0.250 0.528059
O1F O 0.4418(3) -0.34837(8) 0.3904(3)
N1F N 0.4804(2) -0.34709(4) 0.6218(3)
N2F N 0.4978(3) -0.30895(4) 0.7264(3)
N3F N 0.338681 0.448332 0.506785
C3F C 0.266101 0.42977 0.424971
C4F C 0.161031 0.400193 0.45043
C5F C 0.136116 0.391131 0.563964
C6F C 0.210739 0.410198 0.648581
C7F C 0.314289 0.439538 0.616904
C8F C 0.02117 0.358669 0.597042
H1F H 0.287293 0.43709 0.3478
H2F H 0.108759 0.386816 0.392901
H3F H 0.191413 0.403334 0.726331
H4F H 0.367923 0.453406 0.67292
H5F H -0.025409 0.423849 0.579237
H6F H 0.017907 0.343647 0.676346
Cu1B Cu 0.500 -0.500 0.500
Cu1B_2 Cu 0.500 0.500 0.500
O1D O 0.5582(3) 0.15163(8) 0.6096(3)
N1D N 0.5196(2) 0.15291(4) 0.3782(3)
N3D N 0.661319 -0.051668 0.493215
loop_
_geom_bond_atom_site_label_1
_geom_bond_atom_site_label_2
_geom_bond_site_symmetry_1
_geom_bond_site_symmetry_2
Cu1 O1 1_555 1_555
O1 C1 1_555 1_555
N1 Cu1 1_555 1_555
N2 N1 1_555 1_555
N3 Cu1 1_555 1_555
C1 C2 1_555 1_555
C2 N1 1_555 1_555
C3 N3 1_555 1_555
C4 C3 1_555 1_555
C5 C4 1_555 1_555
C6 C5 1_555 1_555
C7 N3 1_555 1_555
C8 C5 1_555 1_555
C9 C8 1_555 1_555
H1 C3 1_555 1_555
H2 C4 1_555 1_555
H3 C6 1_555 1_555
H4 C7 1_555 1_555
H5 C8 1_555 1_555
H6 C8 1_555 1_555
H7 C9 1_555 1_555
H8 C9 1_555 1_555
O1F C1 1_555 1_555
N1F C2 1_555 1_555
N2F N2 1_555 1_555
N3F C3F 1_555 1_555
C3F C4F 1_555 1_555
C4F C5F 1_555 1_555
C5F C6F 1_555 1_555
C6F C7F 1_555 1_555
C7F N3F 1_555 1_555
C8F C9 1_555 1_555
H1F C3F 1_555 1_555
H2F C4F 1_555 1_555
H3F C6F 1_555 1_555
H4F C7F 1_555 1_555
H5F C8F 1_555 1_555
H6F C8F 1_555 1_555
Cu1B O1F 1_555 1_555
Cu1B_2 N3F 1_555 1_555
O1D Cu1 1_555 1_555
N1D Cu1 1_555 1_555
N3D Cu1 1_555 1_555
C6 C7 1_555 1_555
N1F N2F 1_555 1_555
N1F Cu1B 1_555 1_555
C5F C8F 1_555 1_555

#END
