
#######################################################################
#
#                 Cambridge Crystallographic Data Centre
#                                CCDC 
#
#######################################################################
#
# If this CIF has been generated from an entry in the Cambridge 
# Structural Database, then it will include bibliographic, chemical, 
# crystal, experimental, refinement or atomic coordinate data resulting 
# from the CCDC's data processing and validation procedures.
#
#######################################################################

data_TIVPUL
_symmetry_cell_setting           triclinic
_symmetry_space_group_name_H-M   'P -1'
_symmetry_Int_Tables_number      2
_space_group_name_Hall           '-P 1'
loop_
_symmetry_equiv_pos_site_id
_symmetry_equiv_pos_as_xyz
1 x,y,z
2 -x,-y,-z
_cell_length_a                   8.8876(6)
_cell_length_b                   9.8698(7)
_cell_length_c                   11.3149(6)
_cell_angle_alpha                75.320(5)
_cell_angle_beta                 73.151(6)
_cell_angle_gamma                68.201(4)
_cell_volume                     870.046
loop_
_atom_site_label
_atom_site_type_symbol
_atom_site_fract_x
_atom_site_fract_y
_atom_site_fract_z
Cu1 Cu 0.000 0.000 0.000
Cu2 Cu 0.000 0.000 0.500
O1 O -0.105453 -0.112276 -0.098469
O2 O -0.095376 -0.103909 -0.299619
C1 C -0.081471 -0.059938 -0.212402
C2 C -0.025231 0.067174 -0.24884
N1 N 0.004028 0.12768 -0.169374
N2 N 0.06062 0.233465 -0.238431
N3 N 0.066588 0.239611 -0.361904
N4 N 0.013877 0.137394 -0.367008
N5 N -0.223807 0.134475 0.05717
N6 N -0.215299 0.129309 0.472991
C3 C -0.357885 0.092418 0.103892
C4 C -0.51305 0.187962 0.150273
C5 C -0.535816 0.333117 0.153245
C6 C -0.398488 0.374244 0.106153
C7 C -0.246468 0.27392 0.059584
C8 C -0.707403 0.439868 0.202262
C9 C -0.780322 0.402509 0.342965
C10 C -0.70466 0.437206 0.429825
C11 C -0.531961 0.32968 0.443223
C12 C -0.507825 0.187243 0.508537
C13 C -0.352491 0.092578 0.521681
C14 C -0.237873 0.267973 0.410284
C15 C -0.390972 0.369277 0.394006
H1 H -0.347184 -0.008484 0.105722
H2 H -0.606313 0.152102 0.180877
H3 H -0.405594 0.474093 0.1047
H4 H -0.152205 0.308315 0.027194
H5 H -0.78388 0.445214 0.154933
H6 H -0.702592 0.538831 0.183524
H7 H -0.898091 0.451738 0.360109
H8 H -0.772588 0.299955 0.363643
H9 H -0.778219 0.440853 0.510886
H10 H -0.699698 0.536127 0.402702
H11 H -0.602049 0.153455 0.545746
H12 H -0.342878 -0.004998 0.568452
H13 H -0.14166 0.299135 0.374294
H14 H -0.398192 0.466974 0.348342
O1A O 0.105453 0.112276 0.098469
O2A O 0.095376 0.103909 0.299619
C1A C 0.081471 0.059938 0.212402
C2A C 0.025231 -0.067174 0.24884
N1A N -0.004028 -0.12768 0.169374
N2A N -0.06062 -0.233465 0.238431
N3A N -0.066588 -0.239611 0.361904
N4A N -0.013877 -0.137394 0.367008
N5A N 0.223807 -0.134475 -0.05717
N6A N 0.215299 -0.129309 -0.472991
C3A C 0.357885 -0.092418 -0.103892
C4A C 0.51305 -0.187962 -0.150273
C5A C 0.535816 -0.333117 -0.153245
C6A C 0.398488 -0.374244 -0.106153
C7A C 0.246468 -0.27392 -0.059584
C8A C 0.707403 -0.439868 -0.202262
C9A C 0.780322 -0.402509 -0.342965
C10A C 0.70466 -0.437206 -0.429825
C11A C 0.531961 -0.32968 -0.443223
C12A C 0.507825 -0.187243 -0.508537
C13A C 0.352491 -0.092578 -0.521681
C14A C 0.237873 -0.267973 -0.410284
C15A C 0.390972 -0.369277 -0.394006
H1A H 0.347184 0.008484 -0.105722
H2A H 0.606313 -0.152102 -0.180877
H3A H 0.405594 -0.474093 -0.1047
H4A H 0.152205 -0.308315 -0.027194
H5A H 0.78388 -0.445214 -0.154933
H6A H 0.702592 -0.538831 -0.183524
H7A H 0.898091 -0.451738 -0.360109
H8A H 0.772588 -0.299955 -0.363643
H9A H 0.778219 -0.440853 -0.510886
H10A H 0.699698 -0.536127 -0.402702
H11A H 0.602049 -0.153455 -0.545746
H12A H 0.342878 0.004998 -0.568452
H13A H 0.14166 -0.299135 -0.374294
H14A H 0.398192 -0.466974 -0.348342
Cu2_2 Cu 0.000 0.000 -0.500
O2_2 O -0.095376 -0.103909 0.700381
N4_2 N 0.013877 0.137394 0.632992
N6A_2 N 0.215299 -0.129309 0.527009
O3 O 0.195(3) 0.391(3) 0.894(2)
loop_
_geom_bond_atom_site_label_1
_geom_bond_atom_site_label_2
_geom_bond_site_symmetry_1
_geom_bond_site_symmetry_2
Cu1 O1 1_555 1_555
Cu2 N6 1_555 1_555
O1 C1 1_555 1_555
O2 C1 1_555 1_555
C1 C2 1_555 1_555
C2 N1 1_555 1_555
N1 Cu1 1_555 1_555
N2 N1 1_555 1_555
N3 N2 1_555 1_555
N4 C2 1_555 1_555
N5 Cu1 1_555 1_555
N6 C13 1_555 1_555
C3 N5 1_555 1_555
C4 C3 1_555 1_555
C5 C4 1_555 1_555
C6 C5 1_555 1_555
C7 N5 1_555 1_555
C8 C5 1_555 1_555
C9 C8 1_555 1_555
C10 C9 1_555 1_555
C11 C10 1_555 1_555
C12 C11 1_555 1_555
C13 C12 1_555 1_555
C14 N6 1_555 1_555
C15 C11 1_555 1_555
H1 C3 1_555 1_555
H2 C4 1_555 1_555
H3 C6 1_555 1_555
H4 C7 1_555 1_555
H5 C8 1_555 1_555
H6 C8 1_555 1_555
H7 C9 1_555 1_555
H8 C9 1_555 1_555
H9 C10 1_555 1_555
H10 C10 1_555 1_555
H11 C12 1_555 1_555
H12 C13 1_555 1_555
H13 C14 1_555 1_555
H14 C15 1_555 1_555
O1A Cu1 1_555 1_555
O2A Cu2 1_555 1_555
C1A O1A 1_555 1_555
C2A C1A 1_555 1_555
N1A Cu1 1_555 1_555
N2A N1A 1_555 1_555
N3A N2A 1_555 1_555
N4A Cu2 1_555 1_555
N5A Cu1 1_555 1_555
N6A C13A 1_555 1_555
C3A N5A 1_555 1_555
C4A C3A 1_555 1_555
C5A C4A 1_555 1_555
C6A C5A 1_555 1_555
C7A N5A 1_555 1_555
C8A C5A 1_555 1_555
C9A C8A 1_555 1_555
C10A C9A 1_555 1_555
C11A C10A 1_555 1_555
C12A C11A 1_555 1_555
C13A C12A 1_555 1_555
C14A N6A 1_555 1_555
C15A C11A 1_555 1_555
H1A C3A 1_555 1_555
H2A C4A 1_555 1_555
H3A C6A 1_555 1_555
H4A C7A 1_555 1_555
H5A C8A 1_555 1_555
H6A C8A 1_555 1_555
H7A C9A 1_555 1_555
H8A C9A 1_555 1_555
H9A C10A 1_555 1_555
H10A C10A 1_555 1_555
H11A C12A 1_555 1_555
H12A C13A 1_555 1_555
H13A C14A 1_555 1_555
H14A C15A 1_555 1_555
Cu2_2 O2 1_555 1_555
O2_2 Cu2 1_555 1_555
N4_2 Cu2 1_555 1_555
N6A_2 Cu2 1_555 1_555
N3 N4 1_555 1_555
N4 Cu2_2 1_555 1_555
C6 C7 1_555 1_555
C14 C15 1_555 1_555
O2A C1A 1_555 1_555
C2A N1A 1_555 1_555
C2A N4A 1_555 1_555
N3A N4A 1_555 1_555
N6A Cu2_2 1_555 1_555
C6A C7A 1_555 1_555
C14A C15A 1_555 1_555

#END
