
#######################################################################
#
#                 Cambridge Crystallographic Data Centre
#                                CCDC 
#
#######################################################################
#
# If this CIF has been generated from an entry in the Cambridge 
# Structural Database, then it will include bibliographic, chemical, 
# crystal, experimental, refinement or atomic coordinate data resulting 
# from the CCDC's data processing and validation procedures.
#
#######################################################################

data_TIVQOG
_symmetry_cell_setting           triclinic
_symmetry_space_group_name_H-M   'P -1'
_symmetry_Int_Tables_number      2
_space_group_name_Hall           '-P 1'
loop_
_symmetry_equiv_pos_site_id
_symmetry_equiv_pos_as_xyz
1 x,y,z
2 -x,-y,-z
_cell_length_a                   8.966(3)
_cell_length_b                   10.032(4)
_cell_length_c                   11.215(4)
_cell_angle_alpha                74.336(5)
_cell_angle_beta                 72.466(5)
_cell_angle_gamma                65.955(4)
_cell_volume                     865.771
loop_
_atom_site_label
_atom_site_type_symbol
_atom_site_fract_x
_atom_site_fract_y
_atom_site_fract_z
Cu1 Cu 0.0000 0.0000 0.0000
Cu2 Cu 0.0000 0.0000 0.5000
O1 O -0.1220(4) -0.1200(4) -0.0932(3)
O2 O -0.1206(4) -0.1213(4) -0.2903(3)
C1 C -0.0997(6) -0.0740(6) -0.2080(5)
C2 C -0.0354(6) 0.0486(5) -0.2530(4)
N1 N 0.0018(5) 0.1115(5) -0.1796(4)
N2 N 0.0630(5) 0.2112(5) -0.2547(4)
N3 N 0.0643(5) 0.2114(5) -0.3763(4)
N4 N 0.0035(5) 0.1112(5) -0.3735(4)
N5 N -0.2282(5) 0.1400(5) 0.0641(3)
N6 N -0.2275(5) 0.1430(4) 0.4800(4)
C3 C -0.3610(6) 0.0959(6) 0.1105(4)
H1 H -0.3453 -0.0040 0.1121
C4 C -0.5179(6) 0.1904(7) 0.1556(5)
H2 H -0.6093 0.1564 0.1856
C5 C -0.5434(7) 0.3365(6) 0.1574(5)
C6 C -0.4074(7) 0.3795(6) 0.1110(4)
H3 H -0.4192 0.4783 0.1101
C7 C -0.2538(6) 0.2801(6) 0.0656(4)
H4 H -0.1613 0.3127 0.0338
C8 C -0.7165(7) 0.4423(7) 0.2048(5)
H5 H -0.7927 0.4444 0.1557
H6 H -0.7123 0.5430 0.1873
C9 C -0.7905(6) 0.4057(6) 0.3456(4)
H7 H -0.9129 0.4603 0.3616
H8 H -0.7720 0.2986 0.3674
C10 C -0.7177(6) 0.4436(6) 0.4321(5)
H9 H -0.7142 0.5445 0.3986
H10 H -0.7939 0.4457 0.5170
C11 C -0.5447(6) 0.3387(5) 0.4472(5)
C12 C -0.5191(6) 0.1963(6) 0.5139(5)
H11 H -0.6110 0.1631 0.5495
C13 C -0.3635(6) 0.1040(6) 0.5285(5)
H12 H -0.3496 0.0071 0.5754
C14 C -0.2519(6) 0.2810(6) 0.4165(5)
H13 H -0.1580 0.3115 0.3818
C15 C -0.4054(6) 0.3802(6) 0.3990(5)
H14 H -0.4167 0.4775 0.3538
O1A O 0.1220(4) 0.1200(4) 0.0932(3)
O2A O 0.1206(4) 0.1213(4) 0.2903(3)
C1A C 0.0997(6) 0.0740(6) 0.2080(5)
C2A C 0.0354(6) -0.0486(5) 0.2530(4)
N1A N -0.0018(5) -0.1115(5) 0.1796(4)
N2A N -0.0630(5) -0.2112(5) 0.2547(4)
N3A N -0.0643(5) -0.2114(5) 0.3763(4)
N4A N -0.0035(5) -0.1112(5) 0.3735(4)
N5A N 0.2282(5) -0.1400(5) -0.0641(3)
N6A N 0.2275(5) -0.1430(4) -0.4800(4)
C3A C 0.3610(6) -0.0959(6) -0.1105(4)
H1A H 0.3453 0.0040 -0.1121
C4A C 0.5179(6) -0.1904(7) -0.1556(5)
H2A H 0.6093 -0.1564 -0.1856
C5A C 0.5434(7) -0.3365(6) -0.1574(5)
C6A C 0.4074(7) -0.3795(6) -0.1110(4)
H3A H 0.4192 -0.4783 -0.1101
C7A C 0.2538(6) -0.2801(6) -0.0656(4)
H4A H 0.1613 -0.3127 -0.0338
C8A C 0.7165(7) -0.4423(7) -0.2048(5)
H5A H 0.7927 -0.4444 -0.1557
H6A H 0.7123 -0.5430 -0.1873
C9A C 0.7905(6) -0.4057(6) -0.3456(4)
H7A H 0.9129 -0.4603 -0.3616
H8A H 0.7720 -0.2986 -0.3674
C10A C 0.7177(6) -0.4436(6) -0.4321(5)
H9A H 0.7142 -0.5445 -0.3986
H10A H 0.7939 -0.4457 -0.5170
C11A C 0.5447(6) -0.3387(5) -0.4472(5)
C12A C 0.5191(6) -0.1963(6) -0.5139(5)
H11A H 0.6110 -0.1631 -0.5495
C13A C 0.3635(6) -0.1040(6) -0.5285(5)
H12A H 0.3496 -0.0071 -0.5754
C14A C 0.2519(6) -0.2810(6) -0.4165(5)
H13A H 0.1580 -0.3115 -0.3818
C15A C 0.4054(6) -0.3802(6) -0.3990(5)
H14A H 0.4167 -0.4775 -0.3538
Cu2_2 Cu 0.0000 0.0000 -0.5000
O2_2 O -0.1206(4) -0.1213(4) 0.7097(3)
N4_2 N 0.0035(5) 0.1112(5) 0.6265(4)
N6A_2 N 0.2275(5) -0.1430(4) 0.5200(4)
C16 C -0.2323(10) -0.3859(9) 0.2339(6)
H15 H -0.3480 -0.3257 0.2677
H16 H -0.1569 -0.3750 0.2753
H17 H -0.2213 -0.4901 0.2503
C17 C -0.1883(9) -0.3362(8) 0.0968(6)
H18 H -0.1357 -0.2631 0.0871
H19 H -0.2965 -0.2791 0.0709
C18 C -0.0799(9) -0.4306(8) -0.0064(7)
H20 H -0.0459 -0.3617 -0.0812
H21 H -0.1561 -0.4633 -0.0298
C16A C 0.2323(10) -0.6141(9) -0.2339(6)
H15A H 0.3480 -0.6743 -0.2677
H16A H 0.1569 -0.6250 -0.2753
H17A H 0.2213 -0.5099 -0.2503
C17A C 0.1883(9) -0.6638(8) -0.0968(6)
H18A H 0.1357 -0.7369 -0.0871
H19A H 0.2965 -0.7209 -0.0709
C18A C 0.0799(9) -0.5694(8) 0.0064(7)
H20A H 0.0459 -0.6383 0.0812
H21A H 0.1561 -0.5367 0.0298
O3 O -0.5575(10) -0.2358(10) 0.1961(7)
loop_
_geom_bond_atom_site_label_1
_geom_bond_atom_site_label_2
_geom_bond_site_symmetry_1
_geom_bond_site_symmetry_2
Cu1 O1 1_555 1_555
Cu2 N6 1_555 1_555
O1 C1 1_555 1_555
O2 C1 1_555 1_555
C1 C2 1_555 1_555
C2 N1 1_555 1_555
N1 Cu1 1_555 1_555
N2 N1 1_555 1_555
N3 N2 1_555 1_555
N4 C2 1_555 1_555
N5 Cu1 1_555 1_555
N6 C13 1_555 1_555
C3 N5 1_555 1_555
H1 C3 1_555 1_555
C4 C3 1_555 1_555
H2 C4 1_555 1_555
C5 C4 1_555 1_555
C6 C5 1_555 1_555
H3 C6 1_555 1_555
C7 N5 1_555 1_555
H4 C7 1_555 1_555
C8 C5 1_555 1_555
H5 C8 1_555 1_555
H6 C8 1_555 1_555
C9 C8 1_555 1_555
H7 C9 1_555 1_555
H8 C9 1_555 1_555
C10 C9 1_555 1_555
H9 C10 1_555 1_555
H10 C10 1_555 1_555
C11 C10 1_555 1_555
C12 C11 1_555 1_555
H11 C12 1_555 1_555
C13 C12 1_555 1_555
H12 C13 1_555 1_555
C14 N6 1_555 1_555
H13 C14 1_555 1_555
C15 C11 1_555 1_555
H14 C15 1_555 1_555
C16 H15 1_555 1_555
H16 C16 1_555 1_555
H17 C16 1_555 1_555
C17 C16 1_555 1_555
H18 C17 1_555 1_555
H19 C17 1_555 1_555
C18 C17 1_555 1_555
H20 C18 1_555 1_555
H21 C18 1_555 1_555
O1A Cu1 1_555 1_555
O2A Cu2 1_555 1_555
C1A O1A 1_555 1_555
C2A C1A 1_555 1_555
N1A Cu1 1_555 1_555
N2A N1A 1_555 1_555
N3A N2A 1_555 1_555
N4A Cu2 1_555 1_555
N5A Cu1 1_555 1_555
N6A C13A 1_555 1_555
C3A N5A 1_555 1_555
H1A C3A 1_555 1_555
C4A C3A 1_555 1_555
H2A C4A 1_555 1_555
C5A C4A 1_555 1_555
C6A C5A 1_555 1_555
H3A C6A 1_555 1_555
C7A N5A 1_555 1_555
H4A C7A 1_555 1_555
C8A C5A 1_555 1_555
H5A C8A 1_555 1_555
H6A C8A 1_555 1_555
C9A C8A 1_555 1_555
H7A C9A 1_555 1_555
H8A C9A 1_555 1_555
C10A C9A 1_555 1_555
H9A C10A 1_555 1_555
H10A C10A 1_555 1_555
C11A C10A 1_555 1_555
C12A C11A 1_555 1_555
H11A C12A 1_555 1_555
C13A C12A 1_555 1_555
H12A C13A 1_555 1_555
C14A N6A 1_555 1_555
H13A C14A 1_555 1_555
C15A C11A 1_555 1_555
H14A C15A 1_555 1_555
Cu2_2 O2 1_555 1_555
O2_2 Cu2 1_555 1_555
N4_2 Cu2 1_555 1_555
N6A_2 Cu2 1_555 1_555
C16A H15A 1_555 1_555
H16A C16A 1_555 1_555
H17A C16A 1_555 1_555
C17A C16A 1_555 1_555
H18A C17A 1_555 1_555
H19A C17A 1_555 1_555
C18A C18 1_555 1_555
H20A C18A 1_555 1_555
H21A C18A 1_555 1_555
N3 N4 1_555 1_555
N4 Cu2_2 1_555 1_555
C6 C7 1_555 1_555
C14 C15 1_555 1_555
O2A C1A 1_555 1_555
C2A N1A 1_555 1_555
C2A N4A 1_555 1_555
N3A N4A 1_555 1_555
N6A Cu2_2 1_555 1_555
C6A C7A 1_555 1_555
C14A C15A 1_555 1_555
C17A C18A 1_555 1_555

#END
