
#######################################################################
#
#                 Cambridge Crystallographic Data Centre
#                                CCDC 
#
#######################################################################
#
# If this CIF has been generated from an entry in the Cambridge 
# Structural Database, then it will include bibliographic, chemical, 
# crystal, experimental, refinement or atomic coordinate data resulting 
# from the CCDC's data processing and validation procedures.
#
#######################################################################

data_TIVQAS
_symmetry_cell_setting           triclinic
_symmetry_space_group_name_H-M   'P -1'
_symmetry_Int_Tables_number      2
_space_group_name_Hall           '-P 1'
loop_
_symmetry_equiv_pos_site_id
_symmetry_equiv_pos_as_xyz
1 x,y,z
2 -x,-y,-z
_cell_length_a                   9.0102(8)
_cell_length_b                   10.0302(9)
_cell_length_c                   11.2964(8)
_cell_angle_alpha                73.969(6)
_cell_angle_beta                 72.081(7)
_cell_angle_gamma                65.936(4)
_cell_volume                     873.513
loop_
_atom_site_label
_atom_site_type_symbol
_atom_site_fract_x
_atom_site_fract_y
_atom_site_fract_z
Cu1 Cu 0.000 0.000 0.000
Cu2 Cu 0.000 0.000 0.500
O1 O -0.116019 -0.113836 0.211499
O2 O -0.113126 -0.121103 0.408159
N1 N 0.009398 0.111674 0.129744
N2 N 0.068354 0.215535 0.12563
N3 N 0.072572 0.215557 0.241598
N4 N 0.016311 0.111758 0.320709
N5 N 0.234204 -0.14339 0.022354
N6 N 0.234972 -0.132841 0.43703
C1 C -0.089757 -0.07333 0.294003
C2 C -0.021659 0.049554 0.250143
C3 C 0.359786 -0.087141 -0.029097
C4 C 0.52229 -0.176038 -0.019293
C5 C 0.556765 -0.32012 0.041947
C6 C 0.430871 -0.376343 0.093435
C7 C 0.268467 -0.287232 0.083512
C8 C 0.728137 -0.423938 0.057041
C9 C 0.77386(16) -0.38570(16) 0.15720(11)
C10 C 0.694156 -0.450582 0.285062
C11 C 0.246853 -0.273683 0.43851
C12 C 0.398196 -0.375304 0.3883
C13 C 0.535634 -0.334455 0.337266
C14 C 0.523578 -0.19336 0.335832
C15 C 0.372094 -0.091929 0.386103
H1 H 0.335657 0.013802 -0.072005
H2 H 0.610369 -0.136501 -0.055421
H3 H 0.454842 -0.477272 0.136358
H4 H 0.18028 -0.326639 0.119595
H5 H 0.806925 -0.414643 -0.021572
H6 H 0.729645 -0.523988 0.081329
H7 H 0.892793 -0.425538 0.147034
H8 H 0.73518 -0.279891 0.149591
H9 H 0.76903 -0.484824 0.340745
H10 H 0.669787 -0.532317 0.27785
H11 H 0.150563 -0.302294 0.474261
H12 H 0.406491 -0.474117 0.389357
H13 H 0.619777 -0.164613 0.300102
H14 H 0.36364 0.006916 0.385101
O1A O 0.116019 0.113836 -0.211499
O2A O 0.113126 0.121103 -0.408159
N1A N -0.009398 -0.111674 -0.129744
N2A N -0.068354 -0.215535 -0.12563
N3A N -0.072572 -0.215557 -0.241598
N4A N -0.016311 -0.111758 -0.320709
N5A N -0.234204 0.14339 -0.022354
N6A N -0.234972 0.132841 -0.43703
C1A C 0.089757 0.07333 -0.294003
C2A C 0.021659 -0.049554 -0.250143
C3A C -0.359786 0.087141 0.029097
C4A C -0.52229 0.176038 0.019293
C5A C -0.556765 0.32012 -0.041947
C6A C -0.430871 0.376343 -0.093435
C7A C -0.268467 0.287232 -0.083512
C8A C -0.728137 0.423938 -0.057041
C9A C -0.77386(16) 0.38570(16) -0.15720(11)
C10A C -0.694156 0.450582 -0.285062
C11A C -0.246853 0.273683 -0.43851
C12A C -0.398196 0.375304 -0.3883
C13A C -0.535634 0.334455 -0.337266
C14A C -0.523578 0.19336 -0.335832
C15A C -0.372094 0.091929 -0.386103
H1A H -0.335657 -0.013802 0.072005
H2A H -0.610369 0.136501 0.055421
H3A H -0.454842 0.477272 -0.136358
H4A H -0.18028 0.326639 -0.119595
H5A H -0.806925 0.414643 0.021572
H6A H -0.729645 0.523988 -0.081329
H7A H -0.892793 0.425538 -0.147034
H8A H -0.73518 0.279891 -0.149591
H9A H -0.76903 0.484824 -0.340745
H10A H -0.669787 0.532317 -0.27785
H11A H -0.150563 0.302294 -0.474261
H12A H -0.406491 0.474117 -0.389357
H13A H -0.619777 0.164613 -0.300102
H14A H -0.36364 -0.006916 -0.385101
Cu2_2 Cu 0.000 0.000 -0.500
O2A_2 O 0.113126 0.121103 0.591841
N4A_2 N -0.016311 -0.111758 0.679291
N6A_2 N -0.234972 0.132841 0.56297
O3 O -0.143(3) -0.433(3) 0.530(3)
O4 O 0.236(3) -0.648(2) 0.314(2)
loop_
_geom_bond_atom_site_label_1
_geom_bond_atom_site_label_2
_geom_bond_site_symmetry_1
_geom_bond_site_symmetry_2
Cu1 O1 1_555 1_555
Cu2 O2 1_555 1_555
O1 C1 1_555 1_555
O2 C1 1_555 1_555
N1 Cu1 1_555 1_555
N2 N1 1_555 1_555
N3 N2 1_555 1_555
N4 Cu2 1_555 1_555
N5 Cu1 1_555 1_555
N6 Cu2 1_555 1_555
C1 C2 1_555 1_555
C2 N1 1_555 1_555
C3 N5 1_555 1_555
C4 C3 1_555 1_555
C5 C4 1_555 1_555
C6 C5 1_555 1_555
C7 N5 1_555 1_555
C8 C5 1_555 1_555
C9 C8 1_555 1_555
C10 C9 1_555 1_555
C11 N6 1_555 1_555
C12 C11 1_555 1_555
C13 C10 1_555 1_555
C14 C13 1_555 1_555
C15 N6 1_555 1_555
H1 C3 1_555 1_555
H2 C4 1_555 1_555
H3 C6 1_555 1_555
H4 C7 1_555 1_555
H5 C8 1_555 1_555
H6 C8 1_555 1_555
H7 C9 1_555 1_555
H8 C9 1_555 1_555
H9 C10 1_555 1_555
H10 C10 1_555 1_555
H11 C11 1_555 1_555
H12 C12 1_555 1_555
H13 C14 1_555 1_555
H14 C15 1_555 1_555
O1A Cu1 1_555 1_555
O2A C1A 1_555 1_555
N1A Cu1 1_555 1_555
N2A N1A 1_555 1_555
N3A N2A 1_555 1_555
N4A N3A 1_555 1_555
N5A Cu1 1_555 1_555
N6A C11A 1_555 1_555
C1A O1A 1_555 1_555
C2A N1A 1_555 1_555
C3A N5A 1_555 1_555
C4A C3A 1_555 1_555
C5A C4A 1_555 1_555
C6A C5A 1_555 1_555
C7A N5A 1_555 1_555
C8A C5A 1_555 1_555
C9A C8A 1_555 1_555
C10A C9A 1_555 1_555
C11A C12A 1_555 1_555
C12A C13A 1_555 1_555
C13A C10A 1_555 1_555
C14A C13A 1_555 1_555
C15A N6A 1_555 1_555
H1A C3A 1_555 1_555
H2A C4A 1_555 1_555
H3A C6A 1_555 1_555
H4A C7A 1_555 1_555
H5A C8A 1_555 1_555
H6A C8A 1_555 1_555
H7A C9A 1_555 1_555
H8A C9A 1_555 1_555
H9A C10A 1_555 1_555
H10A C10A 1_555 1_555
H11A C11A 1_555 1_555
H12A C12A 1_555 1_555
H13A C14A 1_555 1_555
H14A C15A 1_555 1_555
Cu2_2 O2A 1_555 1_555
O2A_2 Cu2 1_555 1_555
N4A_2 Cu2 1_555 1_555
N6A_2 Cu2 1_555 1_555
N3 N4 1_555 1_555
N4 C2 1_555 1_555
C6 C7 1_555 1_555
C12 C13 1_555 1_555
C14 C15 1_555 1_555
N4A C2A 1_555 1_555
N4A Cu2_2 1_555 1_555
N6A Cu2_2 1_555 1_555
C1A C2A 1_555 1_555
C6A C7A 1_555 1_555
C14A C15A 1_555 1_555

#END
