
#######################################################################
#
#                 Cambridge Crystallographic Data Centre
#                                CCDC 
#
#######################################################################
#
# If this CIF has been generated from an entry in the Cambridge 
# Structural Database, then it will include bibliographic, chemical, 
# crystal, experimental, refinement or atomic coordinate data resulting 
# from the CCDC's data processing and validation procedures.
#
#######################################################################

data_TIVTAU
_symmetry_cell_setting           monoclinic
_symmetry_space_group_name_H-M   'P 21/c'
_symmetry_Int_Tables_number      14
_space_group_name_Hall           '-P 2ybc'
loop_
_symmetry_equiv_pos_site_id
_symmetry_equiv_pos_as_xyz
1 x,y,z
2 -x,1/2+y,1/2-z
3 -x,-y,-z
4 x,1/2-y,1/2+z
_cell_length_a                   8.3167(14)
_cell_length_b                   18.549(3)
_cell_length_c                   12.895(2)
_cell_angle_alpha                90
_cell_angle_beta                 93.107(4)
_cell_angle_gamma                90
_cell_volume                     1986.34
loop_
_atom_site_label
_atom_site_type_symbol
_atom_site_fract_x
_atom_site_fract_y
_atom_site_fract_z
Cu1 Cu 0.15914(5) 0.66804(2) 0.18628(3)
O1 O -0.0620(3) 0.70249(16) 0.1899(2)
O2 O 0.0856(5) 0.55259(16) 0.1397(3)
O3 O 0.3885(4) 0.6495(3) 0.1890(2)
O4 O 0.1810(4) 0.65733(15) 0.6648(2)
N1 N 0.1771(4) 0.60317(17) 0.5064(2)
H1 H 0.1822 0.5621 0.5374
C1 C 0.1627(4) 0.72363(19) 0.4029(2)
C2 C 0.1725(5) 0.6017(2) 0.4003(3)
C3 C 0.1744(4) 0.66372(19) 0.5699(3)
N2 N 0.1747(5) 0.53747(19) 0.3561(3)
H2 H 0.1729 0.5339 0.2895
H3 H 0.1780 0.4992 0.3938
N3 N 0.1674(4) 0.66194(15) 0.3434(2)
N4 N 0.1585(4) 0.79275(17) 0.3679(2)
H4 H 0.1563 0.8063 0.3040
C4 C 0.1642(4) 0.72715(19) 0.5090(3)
C5 C 0.1583(5) 0.8363(2) 0.4518(3)
H5 H 0.1555 0.8863 0.4486
N5 N 0.1626(4) 0.79893(17) 0.5390(2)
H6 H 0.447(4) 0.639(3) 0.1291(19)
H7 H 0.155(4) 0.521(2) 0.105(4)
H8 H -0.137(4) 0.697(2) 0.131(2)
H9 H -0.021(2) 0.536(2) 0.123(4)
H10 H -0.122(5) 0.681(2) 0.243(2)
H11 H 0.465(4) 0.641(3) 0.246(2)
Cu1C Cu 0.15914(5) 0.83196(2) 0.68628(3)
N5C N 0.1626(4) 0.70107(17) 0.0390(2)
S1 S 0.29760(13) 0.39640(6) 0.59736(8)
O5 O 0.2089(5) 0.33916(19) 0.6404(3)
O6 O 0.1973(4) 0.45434(18) 0.5566(3)
O7 O 0.4423(5) 0.4178(2) 0.6544(3)
C6 C 0.3699(6) 0.3563(3) 0.4796(4)
F1 F 0.2493(5) 0.3322(2) 0.4191(3)
F2 F 0.4498(4) 0.4048(2) 0.4280(3)
F3 F 0.4693(4) 0.3021(2) 0.5025(3)
O8 O 0.1932(9) 0.9789(4) 0.3114(5)
S2 S 0.32329(16) 0.39290(8) 0.02100(9)
C7 C 0.3512(8) 0.3793(4) 0.1593(4)
F4 F 0.4303(8) 0.3215(3) 0.1830(4)
F5 F 0.2132(6) 0.3792(4) 0.2039(3)
F6 F 0.4257(8) 0.4343(3) 0.2029(3)
O9 O 0.2319(6) 0.3302(3) -0.0120(4)
O10 O 0.2326(6) 0.4585(3) 0.0097(4)
O11 O 0.4817(6) 0.3963(3) -0.0132(4)
loop_
_geom_bond_atom_site_label_1
_geom_bond_atom_site_label_2
_geom_bond_site_symmetry_1
_geom_bond_site_symmetry_2
Cu1 O1 1_555 1_555
S1 O5 1_555 1_555
O1 H8 1_555 1_555
O2 Cu1 1_555 1_555
O3 Cu1 1_555 1_555
O4 C3 1_555 1_555
N1 H1 1_555 1_555
C1 N3 1_555 1_555
C2 N1 1_555 1_555
C3 N1 1_555 1_555
N2 C2 1_555 1_555
H2 N2 1_555 1_555
H3 N2 1_555 1_555
N3 Cu1 1_555 1_555
N4 C1 1_555 1_555
H4 N4 1_555 1_555
C4 C1 1_555 1_555
C5 N4 1_555 1_555
H5 C5 1_555 1_555
N5 C4 1_555 1_555
O6 S1 1_555 1_555
O7 S1 1_555 1_555
C6 S1 1_555 1_555
F1 C6 1_555 1_555
F2 C6 1_555 1_555
F3 C6 1_555 1_555
H6 O3 1_555 1_555
H7 O2 1_555 1_555
H9 O2 1_555 1_555
H10 O1 1_555 1_555
H11 O3 1_555 1_555
S2 C7 1_555 1_555
C7 F4 1_555 1_555
F5 C7 1_555 1_555
F6 C7 1_555 1_555
O9 S2 1_555 1_555
O10 S2 1_555 1_555
O11 S2 1_555 1_555
Cu1C N5 1_555 1_555
N5C Cu1 1_555 1_555
C2 N3 1_555 1_555
C3 C4 1_555 1_555
C5 N5 1_555 1_555

#END
