
#######################################################################
#
#                 Cambridge Crystallographic Data Centre
#                                CCDC 
#
#######################################################################
#
# If this CIF has been generated from an entry in the Cambridge 
# Structural Database, then it will include bibliographic, chemical, 
# crystal, experimental, refinement or atomic coordinate data resulting 
# from the CCDC's data processing and validation procedures.
#
#######################################################################

data_TIVWUR
_symmetry_cell_setting           monoclinic
_symmetry_space_group_name_H-M   'C 2/m'
_symmetry_Int_Tables_number      12
_space_group_name_Hall           '-C 2y'
loop_
_symmetry_equiv_pos_site_id
_symmetry_equiv_pos_as_xyz
1 x,y,z
2 1/2+x,1/2+y,z
3 -x,y,-z
4 1/2-x,1/2+y,-z
5 -x,-y,-z
6 1/2-x,1/2-y,-z
7 x,-y,z
8 1/2+x,1/2-y,z
_cell_length_a                   15.940(3)
_cell_length_b                   6.4354(13)
_cell_length_c                   7.9017(16)
_cell_angle_alpha                90
_cell_angle_beta                 116.468(3)
_cell_angle_gamma                90
_cell_volume                     725.599
loop_
_atom_site_label
_atom_site_type_symbol
_atom_site_fract_x
_atom_site_fract_y
_atom_site_fract_z
O1 O 0.64861(10) 0.0000 0.3450(2)
O2 O 0.47932(11) 0.0000 0.3183(2)
C1 C 0.58297(13) 0.0000 0.1785(3)
C2 C 0.59410(13) 0.0000 0.0137(3)
H1 H 0.6541 0.0000 0.0215
C3 C 0.48387(14) 0.0000 0.1638(3)
O3 O 0.83166(11) 0.0000 0.6966(2)
O4 O 0.83995(11) 0.0000 1.0368(2)
C4 C 0.99534(15) 0.0000 0.8126(3)
H2 H 0.9921 0.0000 0.6921
C5 C 0.91748(15) 0.0000 1.0303(3)
C6 C 0.91262(14) 0.0000 0.8324(3)
Li1 Li 0.6024(3) 0.0000 0.5499(5)
Li2 Li 0.7820(3) 0.0000 0.4278(5)
O5 O 0.68734(8) -0.25480(19) 0.69536(17)
H3 H 0.676(2) -0.308(5) 0.780(4)
H4 H 0.739(3) -0.183(6) 0.753(5)
O1D O 0.35139(10) 0.0000 -0.3450(2)
O2D O 0.52068(11) 0.0000 -0.3183(2)
O2D_2 O 0.52068(11) 0.0000 0.6817(2)
O2_2 O 0.47932(11) 0.0000 -0.6817(2)
C1D C 0.41703(13) 0.0000 -0.1785(3)
C2D C 0.40590(13) 0.0000 -0.0137(3)
H1D H 0.3459 0.0000 -0.0215
C3D C 0.51613(14) 0.0000 -0.1638(3)
O3D O 1.16834(11) 0.0000 1.3034(2)
O3D_2 O 0.16834(11) 0.0000 -0.6966(2)
O4D O 1.16005(11) 0.0000 0.9632(2)
C4D C 1.00466(15) 0.0000 1.1874(3)
H2D H 1.0079 0.0000 1.3079
C5D C 1.08252(15) 0.0000 0.9697(3)
C6D C 1.08738(14) 0.0000 1.1676(3)
Li1D Li 0.3976(3) 0.0000 -0.5499(5)
Li1D_2 Li 0.3976(3) 0.0000 0.4501(5)
Li1_2 Li 0.6024(3) 0.0000 -0.4501(5)
Li1E Li 0.8976(3) -0.5000 0.4501(5)
Li1E_2 Li 0.8976(3) 0.5000 0.4501(5)
Li2D Li 0.2180(3) 0.0000 -0.4278(5)
Li2E Li 0.7180(3) -0.5000 0.5722(5)
Li2D_2 Li 1.2180(3) 0.0000 1.5722(5)
Li2E_2 Li 0.7180(3) 0.5000 0.5722(5)
O5F O 0.68734(8) 0.25480(19) 0.69536(17)
O5E O 0.81266(8) -0.24520(19) 0.30464(17)
O5C O 0.81266(8) 0.24520(19) 0.30464(17)
O5D O 0.31266(8) 0.25480(19) -0.69536(17)
O5B O 0.31266(8) -0.25480(19) -0.69536(17)
O5A O 0.18734(8) 0.24520(19) -0.30464(17)
O5G O 0.18734(8) -0.24520(19) -0.30464(17)
H3F H 0.676(2) 0.308(5) 0.780(4)
H3E H 0.824(2) -0.192(5) 0.220(4)
H3C H 0.824(2) 0.192(5) 0.220(4)
H3D H 0.324(2) 0.308(5) -0.780(4)
H3B H 0.324(2) -0.308(5) -0.780(4)
H3A H 0.176(2) 0.192(5) -0.220(4)
H3G H 0.176(2) -0.192(5) -0.220(4)
H4F H 0.739(3) 0.183(6) 0.753(5)
H4E H 0.761(3) -0.317(6) 0.247(5)
H4C H 0.761(3) 0.317(6) 0.247(5)
H4D H 0.261(3) 0.183(6) -0.753(5)
H4B H 0.261(3) -0.183(6) -0.753(5)
H4A H 0.239(3) 0.317(6) -0.247(5)
H4G H 0.239(3) -0.317(6) -0.247(5)
loop_
_geom_bond_atom_site_label_1
_geom_bond_atom_site_label_2
_geom_bond_site_symmetry_1
_geom_bond_site_symmetry_2
O1 C1 1_555 1_555
O2 C3 1_555 1_555
C1 C2 1_555 1_555
C2 H1 1_555 1_555
C3 C1 1_555 1_555
O3 C6 1_555 1_555
O4 C5 1_555 1_555
C4 H2 1_555 1_555
C5 C6 1_555 1_555
C6 C4 1_555 1_555
Li1 O1 1_555 1_555
Li2 O1 1_555 1_555
O5 Li1 1_555 1_555
H3 O5 1_555 1_555
H4 O5 1_555 1_555
O1D C1D 1_555 1_555
O2D C3D 1_555 1_555
O2D_2 Li1 1_555 1_555
O2_2 Li1D 1_555 1_555
C1D C2D 1_555 1_555
C2D C3 1_555 1_555
H1D C2D 1_555 1_555
C3D C2 1_555 1_555
O3D C6D 1_555 1_555
O3D_2 Li2D 1_555 1_555
O4D C5D 1_555 1_555
C4D C5 1_555 1_555
H2D C4D 1_555 1_555
C5D C4 1_555 1_555
C6D C4D 1_555 1_555
Li1D O1D 1_555 1_555
Li1D_2 O2 1_555 1_555
Li1_2 O2D 1_555 1_555
Li1E O5E 1_555 1_555
Li1E_2 O5C 1_555 1_555
Li2D O1D 1_555 1_555
Li2E O5 1_555 1_555
Li2D_2 O3D 1_555 1_555
Li2E_2 O5F 1_555 1_555
O5F Li1 1_555 1_555
O5E Li2 1_555 1_555
O5C Li2 1_555 1_555
O5D Li1D 1_555 1_555
O5B Li1D 1_555 1_555
O5A Li2D 1_555 1_555
O5G Li2D 1_555 1_555
H3F O5F 1_555 1_555
H3E O5E 1_555 1_555
H3C O5C 1_555 1_555
H3D O5D 1_555 1_555
H3B O5B 1_555 1_555
H3A O5A 1_555 1_555
H3G O5G 1_555 1_555
H4F O5F 1_555 1_555
H4E O5E 1_555 1_555
H4C O5C 1_555 1_555
H4D O5D 1_555 1_555
H4B O5B 1_555 1_555
H4A O5A 1_555 1_555
H4G O5G 1_555 1_555
O2 Li1 1_555 1_555
O3 Li2 1_555 1_555
O2D Li1D 1_555 1_555
O2D_2 Li1D_2 1_555 1_555
O2_2 Li1_2 1_555 1_555
C1D C3D 1_555 1_555
C5D C6D 1_555 1_555

#END
