
#######################################################################
#
#                 Cambridge Crystallographic Data Centre
#                                CCDC 
#
#######################################################################
#
# If this CIF has been generated from an entry in the Cambridge 
# Structural Database, then it will include bibliographic, chemical, 
# crystal, experimental, refinement or atomic coordinate data resulting 
# from the CCDC's data processing and validation procedures.
#
#######################################################################

data_TIVXOM
_symmetry_cell_setting           rhombohedral
_symmetry_space_group_name_H-M   'R -3'
_symmetry_Int_Tables_number      148
_space_group_name_Hall           '-P 3*'
loop_
_symmetry_equiv_pos_site_id
_symmetry_equiv_pos_as_xyz
1 x,y,z
2 z,x,y
3 y,z,x
4 -x,-y,-z
5 -z,-x,-y
6 -y,-z,-x
_cell_length_a                   17.6984(14)
_cell_length_b                   17.6984(14)
_cell_length_c                   17.6984(14)
_cell_angle_alpha                116.66
_cell_angle_beta                 116.66
_cell_angle_gamma                116.66
_cell_volume                     2572.6
loop_
_atom_site_label
_atom_site_type_symbol
_atom_site_fract_x
_atom_site_fract_y
_atom_site_fract_z
Ag1 Ag 0.897731(18) 0.449452(15) 0.367637(17)
N1 N 1.06501(18) 0.81922(18) 0.53232(17)
N2 N 1.01529(17) 0.64796(18) 0.46427(17)
N3 N 0.76099(17) 0.75084(15) 0.25882(16)
N4 N 0.95509(18) 0.85188(16) 0.44023(16)
C1 C 1.1414(2) 0.8298(2) 0.5231(2)
H1 H 1.2029 0.8967 0.5418
C2 C 1.1097(2) 0.7249(2) 0.4821(2)
H2 H 1.1468 0.7069 0.4676
C3 C 0.9909(2) 0.7075(2) 0.4967(2)
C4 C 0.8967(3) 0.6604(3) 0.4972(3)
H3 H 0.8562 0.5794 0.4683
H4 H 0.9542 0.7396 0.5933
H5 H 0.8194 0.6320 0.4303
C5 C 0.8514(2) 0.8010(2) 0.2652(2)
H6 H 0.8322 0.7924 0.2015
C6 C 0.9727(2) 0.8649(2) 0.3767(2)
H7 H 1.0521 0.9088 0.4052
C7 C 0.8258(2) 0.78300(19) 0.3658(2)
C8 C 1.0625(2) 0.9079(2) 0.5674(2)
H8 H 1.0405 0.9124 0.6093
H9 H 1.1582 1.0060 0.6400
C9 C 0.7668(2) 0.7503(3) 0.4007(3)
H10 H 0.6729 0.7001 0.3320
H11 H 0.7576 0.6900 0.3959
H12 H 0.8314 0.8394 0.4971
Ag1C Ag 1.102269(18) 0.550548(15) 0.632363(17)
Ag1E Ag 0.550548(15) 0.632363(17) 0.102269(18)
N3D N 0.74118(16) 0.23901(17) 0.24916(15)
S1 S 1.02663(6) 0.42495(7) 0.27479(7)
O1 O 1.0534(2) 0.4440(2) 0.3733(2)
O2 O 1.1308(3) 0.5464(3) 0.3299(3)
O3 O 0.8929(3) 0.3557(3) 0.1684(3)
C10 C 1.0055(4) 0.3083(3) 0.1818(4)
F1 F 1.0616(5) 0.3188(5) 0.1473(5)
F2 F 0.8694(4) 0.1635(4) 0.0873(4)
F3 F 1.1106(5) 0.3354(5) 0.2869(5)
F4? F 0.9527(4) 0.2646(4) 0.0647(4)
F5? F 0.9769(7) 0.2252(6) 0.1844(7)
F6? F 1.1560(6) 0.4012(7) 0.2854(8)
loop_
_geom_bond_atom_site_label_1
_geom_bond_atom_site_label_2
_geom_bond_site_symmetry_1
_geom_bond_site_symmetry_2
Ag1 N2 1_555 1_555
S1 O1 1_555 1_555
N1 C1 1_555 1_555
N2 C2 1_555 1_555
N3 C5 1_555 1_555
N4 C6 1_555 1_555
C1 H1 1_555 1_555
C2 C1 1_555 1_555
H2 C2 1_555 1_555
C3 N1 1_555 1_555
C4 C3 1_555 1_555
H3 C4 1_555 1_555
H4 C4 1_555 1_555
H5 C4 1_555 1_555
C5 H6 1_555 1_555
C6 C5 1_555 1_555
H7 C6 1_555 1_555
C7 N3 1_555 1_555
C8 N1 1_555 1_555
H8 C8 1_555 1_555
H9 C8 1_555 1_555
C9 C7 1_555 1_555
H10 C9 1_555 1_555
H11 C9 1_555 1_555
H12 C9 1_555 1_555
O2 S1 1_555 1_555
O3 S1 1_555 1_555
C10 S1 1_555 1_555
F1 C10 1_555 1_555
F2 C10 1_555 1_555
F3 C10 1_555 1_555
Ag1C Ag1 1_555 1_555
Ag1E N3 1_555 1_555
N3D Ag1 1_555 1_555
N2 C3 1_555 1_555
N4 C7 1_555 1_555
N4 C8 1_555 1_555

#END
