
#######################################################################
#
#                 Cambridge Crystallographic Data Centre
#                                CCDC 
#
#######################################################################
#
# If this CIF has been generated from an entry in the Cambridge 
# Structural Database, then it will include bibliographic, chemical, 
# crystal, experimental, refinement or atomic coordinate data resulting 
# from the CCDC's data processing and validation procedures.
#
#######################################################################

data_TIVXED
_symmetry_cell_setting           triclinic
_symmetry_space_group_name_H-M   'P -1'
_symmetry_Int_Tables_number      2
_space_group_name_Hall           '-P 1'
loop_
_symmetry_equiv_pos_site_id
_symmetry_equiv_pos_as_xyz
1 x,y,z
2 -x,-y,-z
_cell_length_a                   6.9803(1)
_cell_length_b                   8.0918(1)
_cell_length_c                   9.3207(1)
_cell_angle_alpha                70.662(1)
_cell_angle_beta                 74.329(1)
_cell_angle_gamma                74.113(1)
_cell_volume                     468.351
loop_
_atom_site_label
_atom_site_type_symbol
_atom_site_fract_x
_atom_site_fract_y
_atom_site_fract_z
Ag1 Ag 0.52787(3) 0.35123(2) 0.701429(18)
O1 O 0.6944(3) 0.4009(2) -0.13545(17)
O2 O 0.3009(2) 0.1920(2) 0.9292(2)
O3 O 0.6031(3) 0.1734(2) 0.06441(18)
H1 H 0.387(4) 0.183(4) 0.980(3)
H2 H 0.320(5) 0.087(2) 0.924(4)
N1 N 0.7737(2) 0.25403(19) 0.25707(17)
N2 N 0.6753(2) 0.3520(2) 0.35644(18)
N3 N 0.6475(2) 0.2445(2) 0.49768(18)
C1 C 0.7276(3) 0.0724(2) 0.4908(2)
C2 C 0.7321(3) -0.0904(3) 0.6077(2)
H3 H 0.6765 -0.0946 0.7111
C3 C 0.8222(3) -0.2427(3) 0.5622(3)
H4 H 0.8259 -0.3531 0.6363
C4 C 0.9097(3) -0.2365(3) 0.4056(3)
H5 H 0.9711 -0.3432 0.3801
C5 C 0.9075(3) -0.0787(3) 0.2896(2)
H6 H 0.9663 -0.0753 0.1868
C6 C 0.8111(3) 0.0772(2) 0.3357(2)
C7 C 0.8180(3) 0.3409(2) 0.0914(2)
H7 H 0.9611 0.3018 0.0512
H8 H 0.7925 0.4691 0.0752
C8 C 0.6918(3) 0.3013(2) -0.0003(2)
Ag1_2 Ag 0.52787(3) 0.35123(2) -0.298571(18)
Ag1A Ag 0.47213(3) 0.64877(2) 0.298571(18)
O1_2 O 0.6944(3) 0.4009(2) 0.86455(17)
N2A N 0.3247(2) 0.6480(2) 0.64356(18)
loop_
_geom_bond_atom_site_label_1
_geom_bond_atom_site_label_2
_geom_bond_site_symmetry_1
_geom_bond_site_symmetry_2
Ag1 O2 1_555 1_555
O1 C8 1_555 1_555
O2 H1 1_555 1_555
O3 C8 1_555 1_555
H2 O2 1_555 1_555
N1 N2 1_555 1_555
N2 N3 1_555 1_555
N3 Ag1 1_555 1_555
C1 N3 1_555 1_555
C2 C1 1_555 1_555
H3 C2 1_555 1_555
C3 C2 1_555 1_555
H4 C3 1_555 1_555
C4 C3 1_555 1_555
H5 C4 1_555 1_555
C5 C4 1_555 1_555
H6 C5 1_555 1_555
C6 N1 1_555 1_555
C7 N1 1_555 1_555
H7 C7 1_555 1_555
H8 C7 1_555 1_555
C8 C7 1_555 1_555
Ag1_2 O1 1_555 1_555
Ag1A N2 1_555 1_555
O1_2 Ag1 1_555 1_555
N2A Ag1 1_555 1_555
C1 C6 1_555 1_555
C5 C6 1_555 1_555

#END
