
#######################################################################
#
#                 Cambridge Crystallographic Data Centre
#                                CCDC 
#
#######################################################################
#
# If this CIF has been generated from an entry in the Cambridge 
# Structural Database, then it will include bibliographic, chemical, 
# crystal, experimental, refinement or atomic coordinate data resulting 
# from the CCDC's data processing and validation procedures.
#
#######################################################################

data_TIVYUT
_symmetry_cell_setting           monoclinic
_symmetry_space_group_name_H-M   'P 21/c'
_symmetry_Int_Tables_number      14
_space_group_name_Hall           '-P 2ybc'
loop_
_symmetry_equiv_pos_site_id
_symmetry_equiv_pos_as_xyz
1 x,y,z
2 -x,1/2+y,1/2-z
3 -x,-y,-z
4 x,1/2-y,1/2+z
_cell_length_a                   14.949(4)
_cell_length_b                   13.373(4)
_cell_length_c                   22.736(6)
_cell_angle_alpha                90
_cell_angle_beta                 94.409(4)
_cell_angle_gamma                90
_cell_volume                     4531.77
loop_
_atom_site_label
_atom_site_type_symbol
_atom_site_fract_x
_atom_site_fract_y
_atom_site_fract_z
Nb1 Nb 0.40383(3) 0.09903(3) 0.462535(16)
Nb2 Nb 0.56178(3) 0.11656(3) 0.546370(16)
Nb3 Nb 0.57958(2) 0.02537(3) 0.430751(16)
Cl1 Cl 0.45923(7) 0.25303(8) 0.51245(5)
Cl2 Cl 0.66534(7) 0.16972(8) 0.47253(4)
Cl3 Cl 0.48008(7) 0.10733(8) 0.63640(4)
Cl4 Cl 0.48029(7) 0.14398(8) 0.37411(4)
Cl5 Cl 0.29256(7) 0.08394(8) 0.53693(5)
Cl6 Cl 0.31472(7) -0.02135(8) 0.40095(5)
Mn1 Mn 0.70547(4) 0.12776(5) 0.21807(3)
N1 N 0.7067(3) 0.0705(3) 0.31450(16)
N2 N 0.2520(3) 0.2672(3) 0.39801(19)
N3 N 0.6720(3) 0.3001(3) 0.62754(17)
N4 N 0.5869(2) 0.1870(3) 0.23497(15)
N5 N 0.7485(2) 0.2606(3) 0.24702(15)
C1 C 0.6664(3) 0.0538(3) 0.35401(19)
C2 C 0.3007(3) 0.2091(3) 0.4200(2)
C3 C 0.6332(3) 0.2422(3) 0.59858(19)
C4 C 0.5669(3) -0.0005(3) 0.1656(2)
C5 C 0.5461(3) -0.0795(3) 0.1263(2)
H1 H 0.5927 -0.1212 0.1141
C6 C 0.4586(3) -0.0971(4) 0.1052(2)
H2 H 0.4455 -0.1516 0.0791
C7 C 0.3899(3) -0.0370(4) 0.1213(2)
H3 H 0.3297 -0.0509 0.1071
C8 C 0.4084(3) 0.0426(4) 0.1579(2)
H4 H 0.3609 0.0846 0.1684
C9 C 0.4969(3) 0.0634(3) 0.1802(2)
C10 C 0.5107(3) 0.1510(4) 0.2164(2)
H5 H 0.4588 0.1850 0.2275
C11 C 0.5958(3) 0.2783(3) 0.2704(2)
H6 H 0.6060 0.2615 0.3128
H7 H 0.5406 0.3191 0.2646
C12 C 0.6755(3) 0.3354(3) 0.2498(2)
H8 H 0.6604 0.3654 0.2105
H9 H 0.6938 0.3894 0.2780
C13 C 0.8986(3) 0.1179(3) 0.23974(19)
C14 C 0.9745(3) 0.0578(4) 0.2456(2)
H10 H 0.9722 -0.0075 0.2291
C15 C 1.0531(3) 0.0909(4) 0.2749(2)
H11 H 1.1037 0.0477 0.2788
C16 C 1.0596(3) 0.1859(4) 0.2986(2)
H12 H 1.1145 0.2085 0.3179
C17 C 0.9862(3) 0.2470(4) 0.2940(2)
H13 H 0.9903 0.3122 0.3106
C18 C 0.9044(3) 0.2148(3) 0.2650(2)
C19 C 0.8297(3) 0.2828(3) 0.2646(2)
H14 H 0.8414 0.3490 0.2783
O1 O 0.6517(2) 0.0096(2) 0.18746(14)
O2 O 0.82473(19) 0.0836(2) 0.20895(13)
Nb1B Nb 0.59617(3) -0.09903(3) 0.537465(16)
Nb2B Nb 0.43822(3) -0.11656(3) 0.453630(16)
Nb3B Nb 0.42042(2) -0.02537(3) 0.569249(16)
Cl3B Cl 0.51992(7) -0.10733(8) 0.36360(4)
Cl5B Cl 0.70744(7) -0.08394(8) 0.46307(5)
Cl6B Cl 0.68528(7) 0.02135(8) 0.59905(5)
Mn1C Mn 0.70547(4) 0.37224(5) 0.71807(3)
N3C N 0.6720(3) 0.1999(3) 0.12754(17)
Mn2 Mn 0.93364(5) -0.00635(6) 0.06193(3)
N6 N 0.8604(3) -0.0980(3) 0.01036(17)
N7 N 0.8306(3) 0.0815(3) 0.04671(18)
C20 C 1.0336(3) -0.1855(4) 0.0538(2)
C21 C 1.1098(3) -0.2378(4) 0.0745(2)
H15 H 1.1616 -0.2020 0.0894
C22 C 1.1117(4) -0.3406(4) 0.0737(2)
H16 H 1.1640 -0.3750 0.0890
C23 C 1.0384(4) -0.3940(4) 0.0509(3)
H17 H 1.0404 -0.4650 0.0504
C24 C 0.9628(4) -0.3453(4) 0.0292(2)
H18 H 0.9127 -0.3829 0.0133
C25 C 0.9580(3) -0.2403(4) 0.0300(2)
C26 C 0.8775(3) -0.1916(4) 0.0051(2)
H19 H 0.8342 -0.2316 -0.0167
C27 C 0.7794(4) -0.0526(4) -0.0182(2)
H20 H 0.7317 -0.1035 -0.0249
H21 H 0.7923 -0.0239 -0.0568
C28 C 0.7492(3) 0.0293(4) 0.0222(2)
H22 H 0.7087 0.0767 -0.0002
H23 H 0.7167 0.0000 0.0544
C29 C 0.9838(4) 0.1895(4) 0.1088(2)
C30 C 1.0477(4) 0.2496(4) 0.1384(2)
H24 H 1.1028 0.2213 0.1540
C31 C 1.0319(5) 0.3509(4) 0.1455(3)
H25 H 1.0761 0.3913 0.1662
C32 C 0.9521(5) 0.3937(4) 0.1226(3)
H26 H 0.9416 0.4631 0.1276
C33 C 0.8897(4) 0.3358(4) 0.0931(3)
H27 H 0.8353 0.3655 0.0774
C34 C 0.9030(4) 0.2331(4) 0.0850(2)
C35 C 0.8313(4) 0.1767(4) 0.0553(2)
H28 H 0.7796 0.2130 0.0408
O3 O 1.0351(2) -0.0854(3) 0.05401(18)
O4 O 1.0020(2) 0.0917(2) 0.10228(15)
O5 O 0.8715(2) -0.0736(3) 0.13643(16)
H29 H 0.851(4) -0.036(4) 0.156(2)
H30 H 0.836(4) -0.113(4) 0.129(2)
O6 O 1.1735(3) 0.0069(3) 0.1630(2)
H31 H 1.187(6) 0.047(6) 0.180(4)
H32 H 1.126(5) 0.035(5) 0.149(3)
O7 O 1.2472(12) 0.1869(14) 0.1986(9)
C36 C 1.2678(19) 0.263(2) 0.1483(13)
O8 O 1.2777(8) 0.1208(10) 0.2656(6)
O9 O 1.2760(13) 0.3299(14) 0.2281(9)
O10? O 1.3150(10) 0.3104(11) 0.2597(7)
O11? O 1.2761(10) 0.1885(13) 0.2487(7)
loop_
_geom_bond_atom_site_label_1
_geom_bond_atom_site_label_2
_geom_bond_site_symmetry_1
_geom_bond_site_symmetry_2
Nb1 Nb2 1_555 1_555
Nb2 Nb3 1_555 1_555
Nb3 Nb1 1_555 1_555
Cl1 Nb1 1_555 1_555
Cl2 Nb2 1_555 1_555
Cl3 Nb2 1_555 1_555
Cl4 Nb1 1_555 1_555
Cl5 Nb1 1_555 1_555
Cl6 Nb1 1_555 1_555
Mn1 N1 1_555 1_555
N1 C1 1_555 1_555
N2 C2 1_555 1_555
N3 C3 1_555 1_555
N4 Mn1 1_555 1_555
N5 Mn1 1_555 1_555
C1 Nb3 1_555 1_555
C2 Nb1 1_555 1_555
C3 Nb2 1_555 1_555
C4 C5 1_555 1_555
C5 H1 1_555 1_555
C6 C5 1_555 1_555
H2 C6 1_555 1_555
C7 C6 1_555 1_555
H3 C7 1_555 1_555
C8 C7 1_555 1_555
H4 C8 1_555 1_555
C9 C4 1_555 1_555
C10 N4 1_555 1_555
H5 C10 1_555 1_555
C11 N4 1_555 1_555
H6 C11 1_555 1_555
H7 C11 1_555 1_555
C12 N5 1_555 1_555
H8 C12 1_555 1_555
H9 C12 1_555 1_555
C13 C14 1_555 1_555
C14 H10 1_555 1_555
C15 C14 1_555 1_555
H11 C15 1_555 1_555
C16 C15 1_555 1_555
H12 C16 1_555 1_555
C17 C16 1_555 1_555
H13 C17 1_555 1_555
C18 C13 1_555 1_555
C19 N5 1_555 1_555
H14 C19 1_555 1_555
O1 Mn1 1_555 1_555
O2 Mn1 1_555 1_555
Mn2 N6 1_555 1_555
N6 C26 1_555 1_555
N7 Mn2 1_555 1_555
C20 C21 1_555 1_555
C21 H15 1_555 1_555
C22 C21 1_555 1_555
H16 C22 1_555 1_555
C23 C22 1_555 1_555
H17 C23 1_555 1_555
C24 C23 1_555 1_555
H18 C24 1_555 1_555
C25 C20 1_555 1_555
C26 C25 1_555 1_555
H19 C26 1_555 1_555
C27 N6 1_555 1_555
H20 C27 1_555 1_555
H21 C27 1_555 1_555
C28 N7 1_555 1_555
H22 C28 1_555 1_555
H23 C28 1_555 1_555
C29 C30 1_555 1_555
C30 H24 1_555 1_555
C31 C30 1_555 1_555
H25 C31 1_555 1_555
C32 C31 1_555 1_555
H26 C32 1_555 1_555
C33 C32 1_555 1_555
H27 C33 1_555 1_555
C34 C29 1_555 1_555
C35 N7 1_555 1_555
H28 C35 1_555 1_555
O3 Mn2 1_555 1_555
O4 Mn2 1_555 1_555
O5 Mn2 1_555 1_555
H29 O5 1_555 1_555
H30 O5 1_555 1_555
O6 H31 1_555 1_555
H32 O6 1_555 1_555
O7 C36 1_555 1_555
Nb1B Nb2 1_555 1_555
Nb2B Nb1 1_555 1_555
Nb3B Nb1 1_555 1_555
Cl3B Nb3 1_555 1_555
Cl5B Nb3 1_555 1_555
Cl6B Nb2 1_555 1_555
Mn1C N3 1_555 1_555
N3C Mn1 1_555 1_555
Nb2 Cl1 1_555 1_555
Nb2 Nb3B 1_555 1_555
Nb3 Cl2 1_555 1_555
Nb3 Cl4 1_555 1_555
Nb3 Nb1B 1_555 1_555
Nb3 Nb2B 1_555 1_555
Cl3 Nb3B 1_555 1_555
Cl5 Nb3B 1_555 1_555
Cl6 Nb2B 1_555 1_555
C4 O1 1_555 1_555
C8 C9 1_555 1_555
C9 C10 1_555 1_555
C11 C12 1_555 1_555
C13 O2 1_555 1_555
C17 C18 1_555 1_555
C18 C19 1_555 1_555
C20 O3 1_555 1_555
C24 C25 1_555 1_555
C27 C28 1_555 1_555
C29 O4 1_555 1_555
C33 C34 1_555 1_555
C34 C35 1_555 1_555
Nb1B Nb2B 1_555 1_555
Nb1B Nb3B 1_555 1_555
Nb1B Cl5B 1_555 1_555
Nb1B Cl6B 1_555 1_555
Nb2B Nb3B 1_555 1_555
Nb2B Cl3B 1_555 1_555

#END
