
#######################################################################
#
#                 Cambridge Crystallographic Data Centre
#                                CCDC 
#
#######################################################################
#
# If this CIF has been generated from an entry in the Cambridge 
# Structural Database, then it will include bibliographic, chemical, 
# crystal, experimental, refinement or atomic coordinate data resulting 
# from the CCDC's data processing and validation procedures.
#
#######################################################################

data_TIVYIH
_symmetry_cell_setting           triclinic
_symmetry_space_group_name_H-M   'P -1'
_symmetry_Int_Tables_number      2
_space_group_name_Hall           '-P 1'
loop_
_symmetry_equiv_pos_site_id
_symmetry_equiv_pos_as_xyz
1 x,y,z
2 -x,-y,-z
_cell_length_a                   9.8134(9)
_cell_length_b                   10.3112(9)
_cell_length_c                   12.1302(11)
_cell_angle_alpha                98.5980(10)
_cell_angle_beta                 100.9510(10)
_cell_angle_gamma                94.8780(10)
_cell_volume                     1183.37
loop_
_atom_site_label
_atom_site_type_symbol
_atom_site_fract_x
_atom_site_fract_y
_atom_site_fract_z
Mn1 Mn 0.96773(4) 0.24434(4) 0.25748(3)
N1 N 1.38951(19) 0.28864(19) 0.19622(16)
N2 N 0.86052(19) 0.3257(2) -0.08706(16)
C1 C 1.2510(2) 0.2582(2) 0.16759(19)
H1 H 1.2031 0.2172 0.0954
N3 N 0.9017(2) 0.3175(2) 0.09638(16)
N4 N 1.19040(19) 0.29288(19) 0.25343(16)
C2 C 1.4928(2) 0.3920(2) 0.0568(2)
C3 C 1.4572(2) 0.3749(3) -0.0608(2)
H2 H 1.4282 0.2907 -0.1026
N5 N 0.04175(19) 0.1718(2) -0.58162(16)
C4 C 1.2979(3) 0.3497(2) 0.3414(2)
H3 H 1.2875 0.3846 0.4142
N6 N 0.19075(19) 0.08348(19) -0.46361(16)
O1 O 0.77724(19) 0.3039(2) 0.32858(17)
C5 C 0.4367(2) 0.0808(2) -0.36687(19)
C6 C 0.9052(3) 0.2554(3) -0.0059(2)
H4 H 0.9351 0.1725 -0.0201
N7 N 0.8728(3) -0.0158(2) 0.14669(18)
C7 C 1.4204(3) 0.3479(3) 0.3075(2)
H5 H 1.5085 0.3806 0.3512
C8 C 0.8267(2) 0.4404(3) -0.0333(2)
H6 H 0.7920 0.5093 -0.0672
O2 O 0.9972(2) 0.02965(19) 0.15558(16)
C9 C 1.5357(2) 0.5181(3) 0.1168(2)
H7 H 1.5601 0.5313 0.1959
C10 C 0.0386(3) 0.2247(3) -0.4716(2)
H8 H -0.0180 0.2881 -0.4506
C11 C 0.1348(2) 0.0876(2) -0.5719(2)
H9 H 0.1589 0.0365 -0.6336
N8 N 0.8261(2) 0.4216(3) 0.36473(18)
C12 C 0.7014(2) 0.2130(3) -0.26471(19)
O3 O 0.8319(2) -0.1320(2) 0.10703(18)
C13 C 0.2973(3) 0.0017(2) -0.4238(2)
H10 H 0.3102 -0.0608 -0.4881
H11 H 0.2649 -0.0483 -0.3702
C14 C 0.5233(3) 0.0312(3) -0.2849(2)
H12 H 0.4939 -0.0475 -0.2631
O4 O 0.94784(19) 0.45537(19) 0.35209(16)
C15 C 0.8534(2) 0.4343(3) 0.0786(2)
H13 H 0.8408 0.5004 0.1357
C16 C 0.1291(3) 0.1716(3) -0.3986(2)
H14 H 0.1466 0.1909 -0.3194
O5 O 0.7953(2) 0.0622(2) 0.18372(18)
C17 C 0.8449(3) 0.2831(3) -0.2104(2)
H15 H 0.9143 0.2245 -0.2241
H16 H 0.8618 0.3597 -0.2457
C18 C 0.6138(3) 0.2626(3) -0.3464(2)
H17 H 0.6427 0.3416 -0.3679
C19 C 1.4857(3) 0.2753(3) 0.1176(2)
H18 H 1.4550 0.1953 0.0620
H19 H 1.5783 0.2675 0.1598
O6 O 0.7571(2) 0.5006(2) 0.4072(2)
C20 C 0.4832(3) 0.1968(3) -0.3971(2)
H20 H 0.4259 0.2318 -0.4526
C21 C 0.6538(3) 0.0968(3) -0.2344(2)
H21 H 0.7109 0.0616 -0.1788
Mn1_2 Mn 1.96773(4) 0.24434(4) 1.25748(3)
Mn1_3 Mn -0.03227(4) 0.24434(4) -0.74252(3)
Mn1A Mn 2.03227(4) 0.75566(4) -0.25748(3)
N1A N 1.61049(19) 0.71136(19) -0.19622(16)
N2_2 N 1.86052(19) 0.3257(2) 0.91294(16)
C1A C 1.7490(2) 0.7418(2) -0.16759(19)
H1A H 1.7969 0.7828 -0.0954
N3_2 N 1.9017(2) 0.3175(2) 1.09638(16)
N4A N 1.80960(19) 0.70712(19) -0.25343(16)
N4_2 N 2.19040(19) 0.29288(19) 1.25343(16)
C2A C 1.5072(2) 0.6080(2) -0.0568(2)
C3A C 1.5428(2) 0.6251(3) 0.0608(2)
H2A H 1.5718 0.7093 0.1026
N5_2 N 1.04175(19) 0.1718(2) 0.41838(16)
N5_3 N 2.04175(19) 0.1718(2) 1.41838(16)
C4A C 1.7021(3) 0.6503(2) -0.3414(2)
H3A H 1.7125 0.6154 -0.4142
N6_2 N 1.19075(19) 0.08348(19) 0.53639(16)
O1_2 O 1.77724(19) 0.3039(2) 1.32858(17)
C5_2 C 1.4367(2) 0.0808(2) 0.63313(19)
C6_2 C 1.9052(3) 0.2554(3) 0.9941(2)
H4_2 H 1.9351 0.1725 0.9799
N7_2 N 1.8728(3) -0.0158(2) 1.14669(18)
C7A C 1.5796(3) 0.6521(3) -0.3075(2)
H5A H 1.4915 0.6194 -0.3512
C8_2 C 1.8267(2) 0.4404(3) 0.9667(2)
H6_2 H 1.7920 0.5093 0.9328
O2_2 O 1.9972(2) 0.02965(19) 1.15558(16)
C9A C 1.4643(2) 0.4819(3) -0.1168(2)
H7A H 1.4399 0.4687 -0.1959
C10_2 C 1.0386(3) 0.2247(3) 0.5284(2)
H8_2 H 0.9820 0.2881 0.5494
C11_2 C 1.1348(2) 0.0876(2) 0.4281(2)
H9_2 H 1.1589 0.0365 0.3664
N8_2 N 1.8261(2) 0.4216(3) 1.36473(18)
C12_2 C 1.7014(2) 0.2130(3) 0.73529(19)
O3_2 O 1.8319(2) -0.1320(2) 1.10703(18)
C13_2 C 1.2973(3) 0.0017(2) 0.5762(2)
H10_2 H 1.3102 -0.0608 0.5119
H11_2 H 1.2649 -0.0483 0.6298
C14_2 C 1.5233(3) 0.0312(3) 0.7151(2)
H12_2 H 1.4939 -0.0475 0.7369
O4_2 O 1.94784(19) 0.45537(19) 1.35209(16)
C15_2 C 1.8534(2) 0.4343(3) 1.0786(2)
H13_2 H 1.8408 0.5004 1.1357
C16_2 C 1.1291(3) 0.1716(3) 0.6014(2)
H14_2 H 1.1466 0.1909 0.6806
O5_2 O 1.7953(2) 0.0622(2) 1.18372(18)
C17_2 C 1.8449(3) 0.2831(3) 0.7896(2)
H15_2 H 1.9143 0.2245 0.7759
H16_2 H 1.8618 0.3597 0.7543
C18_2 C 1.6138(3) 0.2626(3) 0.6536(2)
H17_2 H 1.6427 0.3416 0.6321
C19A C 1.5143(3) 0.7247(3) -0.1176(2)
H18A H 1.5450 0.8047 -0.0620
H19A H 1.4217 0.7325 -0.1598
O6_2 O 1.7571(2) 0.5006(2) 1.4072(2)
C20_2 C 1.4832(3) 0.1968(3) 0.6029(2)
H20_2 H 1.4259 0.2318 0.5474
C21_2 C 1.6538(3) 0.0968(3) 0.7656(2)
H21_2 H 1.7109 0.0616 0.8212
loop_
_geom_bond_atom_site_label_1
_geom_bond_atom_site_label_2
_geom_bond_site_symmetry_1
_geom_bond_site_symmetry_2
Mn1 N3 1_555 1_555
N1 C1 1_555 1_555
N2 C6 1_555 1_555
C1 H1 1_555 1_555
N3 C6 1_555 1_555
N4 Mn1 1_555 1_555
C2 C3 1_555 1_555
C3 H2 1_555 1_555
N5 C10 1_555 1_555
C4 N4 1_555 1_555
H3 C4 1_555 1_555
N6 C11 1_555 1_555
O1 Mn1 1_555 1_555
C5 C13 1_555 1_555
C6 H4 1_555 1_555
N7 O2 1_555 1_555
C7 N1 1_555 1_555
H5 C7 1_555 1_555
C8 N2 1_555 1_555
H6 C8 1_555 1_555
O2 Mn1 1_555 1_555
C9 C2 1_555 1_555
H7 C9 1_555 1_555
C10 H8 1_555 1_555
C11 N5 1_555 1_555
H9 C11 1_555 1_555
N8 O1 1_555 1_555
C12 C17 1_555 1_555
O3 N7 1_555 1_555
C13 N6 1_555 1_555
H10 C13 1_555 1_555
H11 C13 1_555 1_555
C14 C5 1_555 1_555
H12 C14 1_555 1_555
O4 Mn1 1_555 1_555
C15 N3 1_555 1_555
H13 C15 1_555 1_555
C16 N6 1_555 1_555
H14 C16 1_555 1_555
O5 Mn1 1_555 1_555
C17 N2 1_555 1_555
H15 C17 1_555 1_555
H16 C17 1_555 1_555
C18 C12 1_555 1_555
H17 C18 1_555 1_555
C19 N1 1_555 1_555
H18 C19 1_555 1_555
H19 C19 1_555 1_555
O6 N8 1_555 1_555
C20 C5 1_555 1_555
H20 C20 1_555 1_555
C21 C12 1_555 1_555
H21 C21 1_555 1_555
Mn1_2 N3_2 1_555 1_555
Mn1_3 N5 1_555 1_555
Mn1A N4A 1_555 1_555
N1A C1A 1_555 1_555
N2_2 C6_2 1_555 1_555
C1A H1A 1_555 1_555
N3_2 C6_2 1_555 1_555
N4A C1A 1_555 1_555
N4_2 Mn1_2 1_555 1_555
C2A C3A 1_555 1_555
C3A C9 1_555 1_555
H2A C3A 1_555 1_555
N5_2 Mn1 1_555 1_555
N5_3 Mn1_2 1_555 1_555
C4A N4A 1_555 1_555
H3A C4A 1_555 1_555
N6_2 C11_2 1_555 1_555
O1_2 Mn1_2 1_555 1_555
C5_2 C13_2 1_555 1_555
C6_2 H4_2 1_555 1_555
N7_2 O2_2 1_555 1_555
C7A N1A 1_555 1_555
H5A C7A 1_555 1_555
C8_2 N2_2 1_555 1_555
H6_2 C8_2 1_555 1_555
O2_2 Mn1_2 1_555 1_555
C9A C3 1_555 1_555
H7A C9A 1_555 1_555
C10_2 N5_2 1_555 1_555
H8_2 C10_2 1_555 1_555
C11_2 N5_2 1_555 1_555
H9_2 C11_2 1_555 1_555
N8_2 O1_2 1_555 1_555
C12_2 C17_2 1_555 1_555
O3_2 N7_2 1_555 1_555
C13_2 N6_2 1_555 1_555
H10_2 C13_2 1_555 1_555
H11_2 C13_2 1_555 1_555
C14_2 C5_2 1_555 1_555
H12_2 C14_2 1_555 1_555
O4_2 Mn1_2 1_555 1_555
C15_2 N3_2 1_555 1_555
H13_2 C15_2 1_555 1_555
C16_2 N6_2 1_555 1_555
H14_2 C16_2 1_555 1_555
O5_2 Mn1_2 1_555 1_555
C17_2 N2_2 1_555 1_555
H15_2 C17_2 1_555 1_555
H16_2 C17_2 1_555 1_555
C18_2 C12_2 1_555 1_555
H17_2 C18_2 1_555 1_555
C19A N1A 1_555 1_555
H18A C19A 1_555 1_555
H19A C19A 1_555 1_555
O6_2 N8_2 1_555 1_555
C20_2 C5_2 1_555 1_555
H20_2 C20_2 1_555 1_555
C21_2 C12_2 1_555 1_555
H21_2 C21_2 1_555 1_555
C1 N4 1_555 1_555
C2 C19 1_555 1_555
C4 C7 1_555 1_555
N7 O5 1_555 1_555
C8 C15 1_555 1_555
C10 C16 1_555 1_555
N8 O4 1_555 1_555
C14 C21 1_555 1_555
C18 C20 1_555 1_555
C2A C9A 1_555 1_555
C2A C19A 1_555 1_555
C4A C7A 1_555 1_555
N7_2 O5_2 1_555 1_555
C8_2 C15_2 1_555 1_555
C10_2 C16_2 1_555 1_555
N8_2 O4_2 1_555 1_555
C14_2 C21_2 1_555 1_555
C18_2 C20_2 1_555 1_555

#END
