
#######################################################################
#
#                 Cambridge Crystallographic Data Centre
#                                CCDC 
#
#######################################################################
#
# If this CIF has been generated from an entry in the Cambridge 
# Structural Database, then it will include bibliographic, chemical, 
# crystal, experimental, refinement or atomic coordinate data resulting 
# from the CCDC's data processing and validation procedures.
#
#######################################################################

data_TIVYON
_symmetry_cell_setting           triclinic
_symmetry_space_group_name_H-M   'P -1'
_symmetry_Int_Tables_number      2
_space_group_name_Hall           '-P 1'
loop_
_symmetry_equiv_pos_site_id
_symmetry_equiv_pos_as_xyz
1 x,y,z
2 -x,-y,-z
_cell_length_a                   9.634(3)
_cell_length_b                   10.025(3)
_cell_length_c                   15.868(4)
_cell_angle_alpha                105.611(3)
_cell_angle_beta                 101.059(3)
_cell_angle_gamma                90.899(3)
_cell_volume                     1444.92
loop_
_atom_site_label
_atom_site_type_symbol
_atom_site_fract_x
_atom_site_fract_y
_atom_site_fract_z
C1 C -0.0306(5) -0.3341(5) -0.0470(3)
H1 H 0.0092 -0.3343 0.0112
C2 C -0.0986(5) -0.4459(5) -0.1119(3)
H2 H -0.1146 -0.5348 -0.1067
C3 C -0.0952(5) -0.2662(5) -0.1648(3)
H3 H -0.1097 -0.2116 -0.2042
C4 C -0.2290(5) -0.4797(6) -0.2705(3)
H4 H -0.2007 -0.5741 -0.2867
H5 H -0.2167 -0.4378 -0.3173
C5 C -0.3828(5) -0.4819(5) -0.2637(3)
C6 C -0.4491(5) -0.5948(5) -0.2526(3)
H6 H -0.3986 -0.6720 -0.2488
C7 C -0.4587(6) -0.3677(5) -0.2683(3)
H7 H -0.4141 -0.2891 -0.2746
C8 C -0.5902(5) -0.5965(6) -0.2471(3)
H8 H -0.6336 -0.6742 -0.2388
C9 C -0.6004(5) -0.3690(5) -0.2636(3)
H9 H -0.6506 -0.2915 -0.2673
C10 C -0.6677(5) -0.4838(5) -0.2537(3)
C11 C -0.8229(5) -0.4828(5) -0.2495(3)
H10 H -0.8319 -0.4417 -0.1882
H11 H -0.8690 -0.4253 -0.2853
C12 C -0.9198(6) -0.7080(6) -0.2328(4)
H12 H -0.9021 -0.6865 -0.1708
C13 C -0.9328(5) -0.6941(6) -0.3673(3)
H13 H -0.9265 -0.6592 -0.4152
C14 C -0.9750(6) -0.8301(6) -0.2900(4)
H14 H -1.0043 -0.9070 -0.2739
C15 C -0.3200(5) -0.1051(5) -0.0158(3)
H15 H -0.3294 -0.1418 -0.0772
C16 C -0.3670(6) -0.0565(6) 0.1153(4)
H16 H -0.4117 -0.0521 0.1629
C17 C -0.2393(6) 0.0033(5) 0.1195(4)
H17 H -0.1810 0.0581 0.1713
C18 C -0.5449(5) -0.2180(5) -0.0062(4)
H18 H -0.5804 -0.2202 -0.0681
H19 H -0.6174 -0.1830 0.0272
C19 C -0.5187(5) -0.3623(5) -0.0009(3)
C20 C -0.3877(5) -0.4137(5) 0.0021(4)
H20 H -0.3102 -0.3566 0.0029
C21 C -0.6313(5) -0.4491(6) -0.0040(4)
H21 H -0.7216 -0.4166 -0.0073
C22 C -1.6286(5) -0.5556(5) -0.4970(3)
H22 H -1.7171 -0.5931 -0.4961
C23 C -1.6124(5) -0.4188(5) -0.4937(3)
H23 H -1.6887 -0.3636 -0.4884
C24 C -1.5173(5) -0.6391(5) -0.5017(3)
C25 C -1.5398(5) -0.7879(5) -0.5008(4)
H24 H -1.5377 -0.7904 -0.4399
H25 H -1.6331 -0.8249 -0.5359
C26 C -1.3049(5) -0.8910(5) -0.4913(3)
H26 H -1.2742 -0.8528 -0.4300
C27 C -1.4366(6) -0.9448(5) -0.6229(4)
H27 H -1.5117 -0.9531 -0.6710
C28 C -1.3097(6) -0.9981(5) -0.6259(4)
H28 H -1.2828 -1.0502 -0.6775
N1 N -0.0292(4) -0.2212(4) -0.0799(3)
N2 N -0.1385(4) -0.4014(4) -0.1861(3)
N3 N -0.8945(4) -0.6215(4) -0.2814(3)
N4 N -0.9813(4) -0.8234(4) -0.3752(3)
N5 N -0.2076(4) -0.0281(4) 0.0365(3)
N6 N -0.4180(4) -0.1241(4) 0.0289(3)
N7 N -1.4339(4) -0.8765(4) -0.5361(3)
N8 N -1.2270(4) -0.9646(4) -0.5427(3)
N9 N 0.2090(5) -0.0868(5) 0.1574(3)
N10 N -0.9912(6) -0.7778(6) -0.6091(4)
O1 O -0.9245(4) -0.8533(4) -0.5681(3)
O2 O -1.0470(8) -0.8170(6) -0.6841(4)
O3 O -1.0112(9) -0.6622(7) -0.5729(4)
O4 O 0.2964(5) 0.0105(5) 0.1950(3)
O5 O 0.2373(5) -0.2035(5) 0.1546(4)
O6 O 0.0900(4) -0.0645(4) 0.1221(2)
Mn1 Mn 0.0000 0.0000 0.0000
Mn2 Mn -1.0000 -1.0000 -0.5000
C1A C 0.0306(5) 0.3341(5) 0.0470(3)
H1A H -0.0092 0.3343 -0.0112
C2A C 0.0986(5) 0.4459(5) 0.1119(3)
H2A H 0.1146 0.5348 0.1067
C3A C 0.0952(5) 0.2662(5) 0.1648(3)
H3A H 0.1097 0.2116 0.2042
C4A C 0.2290(5) 0.4797(6) 0.2705(3)
H4A H 0.2007 0.5741 0.2867
H5A H 0.2167 0.4378 0.3173
C5A C 0.3828(5) 0.4819(5) 0.2637(3)
C6A C 0.4491(5) 0.5948(5) 0.2526(3)
H6A H 0.3986 0.6720 0.2488
C7A C 0.4587(6) 0.3677(5) 0.2683(3)
H7A H 0.4141 0.2891 0.2746
C8A C 0.5902(5) 0.5965(6) 0.2471(3)
H8A H 0.6336 0.6742 0.2388
C9A C 0.6004(5) 0.3690(5) 0.2636(3)
H9A H 0.6506 0.2915 0.2673
C10A C 0.6677(5) 0.4838(5) 0.2537(3)
C11A C 0.8229(5) 0.4828(5) 0.2495(3)
H10A H 0.8319 0.4417 0.1882
H11A H 0.8690 0.4253 0.2853
C12A C 0.9198(6) 0.7080(6) 0.2328(4)
H12A H 0.9021 0.6865 0.1708
C13A C 0.9328(5) 0.6941(6) 0.3673(3)
H13A H 0.9265 0.6592 0.4152
C14A C 0.9750(6) 0.8301(6) 0.2900(4)
H14A H 1.0043 0.9070 0.2739
C15A C -0.6800(5) -0.8949(5) 0.0158(3)
H15A H -0.6706 -0.8582 0.0772
C16A C -0.6330(6) -0.9435(6) -0.1153(4)
H16A H -0.5883 -0.9479 -0.1629
C17A C -0.7607(6) -1.0033(5) -0.1195(4)
H17A H -0.8190 -1.0581 -0.1713
C18A C -0.4551(5) -0.7820(5) 0.0062(4)
H18A H -0.4196 -0.7798 0.0681
H19A H -0.3826 -0.8170 -0.0272
C19A C -0.4813(5) -0.6377(5) 0.0009(3)
C20A C -0.6123(5) -0.5863(5) -0.0021(4)
H20A H -0.6898 -0.6434 -0.0029
C21A C -0.3687(5) -0.5509(6) 0.0040(4)
H21A H -0.2784 -0.5834 0.0073
C22A C -1.3714(5) -0.4444(5) -0.5030(3)
H22A H -1.2829 -0.4069 -0.5039
C23A C -1.3876(5) -0.5812(5) -0.5063(3)
H23A H -1.3113 -0.6364 -0.5116
C24A C -1.4827(5) -0.3609(5) -0.4983(3)
C25A C -1.4602(5) -0.2121(5) -0.4992(4)
H24A H -1.4623 -0.2096 -0.5601
H25A H -1.3669 -0.1751 -0.4641
C26A C -1.6951(5) -0.1090(5) -0.5087(3)
H26A H -1.7258 -0.1472 -0.5700
C27A C -1.5634(6) -0.0552(5) -0.3771(4)
H27A H -1.4883 -0.0469 -0.3290
C28A C -1.6903(6) -0.0019(5) -0.3741(4)
H28A H -1.7172 0.0502 -0.3225
N1A N 0.0292(4) 0.2212(4) 0.0799(3)
N2A N 0.1385(4) 0.4014(4) 0.1861(3)
N3A N 0.8945(4) 0.6215(4) 0.2814(3)
N4A N 0.9813(4) 0.8234(4) 0.3752(3)
N4A_2 N -1.0187(4) -1.1766(4) -0.6248(3)
N5A N -0.7924(4) -0.9719(4) -0.0365(3)
N5A_2 N 0.2076(4) 0.0281(4) -0.0365(3)
N6A N -0.5820(4) -0.8759(4) -0.0289(3)
N7A N -1.5661(4) -0.1235(4) -0.4639(3)
N8A N -1.7730(4) -0.0354(4) -0.4573(3)
N8A_2 N -0.7730(4) -1.0354(4) -0.4573(3)
N9A N -0.2090(5) 0.0868(5) -0.1574(3)
N10A N -1.0088(6) -1.2222(6) -0.3909(4)
O1A O -1.0755(4) -1.1467(4) -0.4319(3)
O2A O -0.9530(8) -1.1830(6) -0.3159(4)
O3A O -0.9888(9) -1.3378(7) -0.4271(4)
O4A O -0.2964(5) -0.0105(5) -0.1950(3)
O5A O -0.2373(5) 0.2035(5) -0.1546(4)
O6A O -0.0900(4) 0.0645(4) -0.1221(2)
Mn1_2 Mn -1.0000 -1.0000 0.0000
Mn2_2 Mn -2.0000 0.0000 -0.5000
Mn2_3 Mn 1.0000 1.0000 0.5000
loop_
_geom_bond_atom_site_label_1
_geom_bond_atom_site_label_2
_geom_bond_site_symmetry_1
_geom_bond_site_symmetry_2
C1 H1 1_555 1_555
C2 C1 1_555 1_555
H2 C2 1_555 1_555
C3 H3 1_555 1_555
C4 H4 1_555 1_555
H5 C4 1_555 1_555
C5 C4 1_555 1_555
C6 C5 1_555 1_555
H6 C6 1_555 1_555
C7 C5 1_555 1_555
H7 C7 1_555 1_555
C8 C6 1_555 1_555
H8 C8 1_555 1_555
C9 C7 1_555 1_555
H9 C9 1_555 1_555
C10 C8 1_555 1_555
C11 C10 1_555 1_555
H10 C11 1_555 1_555
H11 C11 1_555 1_555
C12 H12 1_555 1_555
C13 H13 1_555 1_555
C14 C12 1_555 1_555
H14 C14 1_555 1_555
C15 H15 1_555 1_555
C16 H16 1_555 1_555
C17 C16 1_555 1_555
H17 C17 1_555 1_555
C18 H18 1_555 1_555
H19 C18 1_555 1_555
C19 C18 1_555 1_555
C20 C19 1_555 1_555
H20 C20 1_555 1_555
C21 C19 1_555 1_555
H21 C21 1_555 1_555
C22 H22 1_555 1_555
C23 C22 1_555 1_555
H23 C23 1_555 1_555
C24 C22 1_555 1_555
C25 C24 1_555 1_555
H24 C25 1_555 1_555
H25 C25 1_555 1_555
C26 H26 1_555 1_555
C27 H27 1_555 1_555
C28 C27 1_555 1_555
H28 C28 1_555 1_555
N1 C1 1_555 1_555
N2 C2 1_555 1_555
N3 C11 1_555 1_555
N4 C13 1_555 1_555
N5 C15 1_555 1_555
N6 C15 1_555 1_555
N7 C25 1_555 1_555
N8 C26 1_555 1_555
N9 O4 1_555 1_555
N10 O1 1_555 1_555
O1 Mn2 1_555 1_555
O2 N10 1_555 1_555
O3 N10 1_555 1_555
O5 N9 1_555 1_555
O6 N9 1_555 1_555
Mn1 N1 1_555 1_555
Mn2 N4 1_555 1_555
C1A H1A 1_555 1_555
C2A C1A 1_555 1_555
H2A C2A 1_555 1_555
C3A H3A 1_555 1_555
C4A H4A 1_555 1_555
H5A C4A 1_555 1_555
C5A C4A 1_555 1_555
C6A C5A 1_555 1_555
H6A C6A 1_555 1_555
C7A C5A 1_555 1_555
H7A C7A 1_555 1_555
C8A C6A 1_555 1_555
H8A C8A 1_555 1_555
C9A C7A 1_555 1_555
H9A C9A 1_555 1_555
C10A C8A 1_555 1_555
C11A C10A 1_555 1_555
H10A C11A 1_555 1_555
H11A C11A 1_555 1_555
C12A H12A 1_555 1_555
C13A H13A 1_555 1_555
C14A C12A 1_555 1_555
H14A C14A 1_555 1_555
C15A H15A 1_555 1_555
C16A H16A 1_555 1_555
C17A C16A 1_555 1_555
H17A C17A 1_555 1_555
C18A H18A 1_555 1_555
H19A C18A 1_555 1_555
C19A C18A 1_555 1_555
C20A C21 1_555 1_555
H20A C20A 1_555 1_555
C21A C20 1_555 1_555
H21A C21A 1_555 1_555
C22A H22A 1_555 1_555
C23A C24 1_555 1_555
H23A C23A 1_555 1_555
C24A C23 1_555 1_555
C25A C24A 1_555 1_555
H24A C25A 1_555 1_555
H25A C25A 1_555 1_555
C26A H26A 1_555 1_555
C27A H27A 1_555 1_555
C28A C27A 1_555 1_555
H28A C28A 1_555 1_555
N1A Mn1 1_555 1_555
N2A C2A 1_555 1_555
N3A C11A 1_555 1_555
N4A C13A 1_555 1_555
N4A_2 Mn2 1_555 1_555
N5A C15A 1_555 1_555
N5A_2 Mn1 1_555 1_555
N6A C15A 1_555 1_555
N7A C25A 1_555 1_555
N8A C26A 1_555 1_555
N8A_2 Mn2 1_555 1_555
N9A O4A 1_555 1_555
N10A O1A 1_555 1_555
O1A Mn2 1_555 1_555
O2A N10A 1_555 1_555
O3A N10A 1_555 1_555
O5A N9A 1_555 1_555
O6A Mn1 1_555 1_555
Mn1_2 N5A 1_555 1_555
Mn2_2 N8A 1_555 1_555
Mn2_3 N4A 1_555 1_555
C3 N1 1_555 1_555
C3 N2 1_555 1_555
C4 N2 1_555 1_555
C9 C10 1_555 1_555
C12 N3 1_555 1_555
C13 N3 1_555 1_555
C14 N4 1_555 1_555
C16 N6 1_555 1_555
C17 N5 1_555 1_555
C18 N6 1_555 1_555
C26 N7 1_555 1_555
C27 N7 1_555 1_555
C28 N8 1_555 1_555
N5 Mn1 1_555 1_555
N8 Mn2 1_555 1_555
O6 Mn1 1_555 1_555
C1A N1A 1_555 1_555
C3A N1A 1_555 1_555
C3A N2A 1_555 1_555
C4A N2A 1_555 1_555
C9A C10A 1_555 1_555
C12A N3A 1_555 1_555
C13A N3A 1_555 1_555
C14A N4A 1_555 1_555
C16A N6A 1_555 1_555
C17A N5A 1_555 1_555
C18A N6A 1_555 1_555
C19A C20A 1_555 1_555
C19A C21A 1_555 1_555
C22A C23A 1_555 1_555
C22A C24A 1_555 1_555
C26A N7A 1_555 1_555
C27A N7A 1_555 1_555
C28A N8A 1_555 1_555
N9A O6A 1_555 1_555

#END
