
#######################################################################
#
#                 Cambridge Crystallographic Data Centre
#                                CCDC 
#
#######################################################################
#
# If this CIF has been generated from an entry in the Cambridge 
# Structural Database, then it will include bibliographic, chemical, 
# crystal, experimental, refinement or atomic coordinate data resulting 
# from the CCDC's data processing and validation procedures.
#
#######################################################################

data_TIVZEE
_symmetry_cell_setting           orthorhombic
_symmetry_space_group_name_H-M   'P b c n'
_symmetry_Int_Tables_number      60
_space_group_name_Hall           '-P 2n 2ab'
loop_
_symmetry_equiv_pos_site_id
_symmetry_equiv_pos_as_xyz
1 x,y,z
2 1/2-x,1/2-y,1/2+z
3 -x,y,1/2-z
4 1/2+x,1/2-y,-z
5 -x,-y,-z
6 1/2+x,1/2+y,1/2-z
7 x,-y,1/2+z
8 1/2-x,1/2+y,z
_cell_length_a                   21.822(4)
_cell_length_b                   17.499(3)
_cell_length_c                   29.117(6)
_cell_angle_alpha                90
_cell_angle_beta                 90
_cell_angle_gamma                90
_cell_volume                     11118.7
loop_
_atom_site_label
_atom_site_type_symbol
_atom_site_fract_x
_atom_site_fract_y
_atom_site_fract_z
Nb1 Nb 0.558737(17) 0.58506(2) 0.022044(13)
Nb2 Nb 0.476210(17) 0.56644(2) -0.056430(13)
Nb3 Nb 0.570440(17) 0.45143(2) -0.037620(13)
Cl1 Cl 0.65277(5) 0.54287(6) -0.01799(4)
Cl2 Cl 0.54103(5) 0.67887(6) -0.04020(4)
Cl3 Cl 0.59732(5) 0.52187(6) 0.09178(4)
Cl4 Cl 0.48638(5) 0.65786(6) 0.07006(4)
Cl5 Cl 0.55529(5) 0.52109(7) -0.11014(4)
Cl6 Cl 0.38850(5) 0.63541(6) -0.02204(4)
Mn1 Mn 0.79168(3) 0.37515(4) -0.10760(2)
O1 O 0.79854(15) 0.48218(19) -0.11500(11)
O2 O 0.79289(14) 0.35339(18) -0.17055(10)
O5 O 0.89696(14) 0.3676(2) -0.10294(10)
N1 N 0.79277(18) 0.3844(2) -0.03980(14)
N3 N 0.79347(18) 0.2645(2) -0.09218(14)
N5 N 0.92546(17) 0.3675(2) -0.14332(13)
N8 N 0.68900(18) 0.3812(2) -0.10128(14)
N9 N 0.6542(2) 0.7229(2) 0.06227(15)
N10 N 0.4375(2) 0.6626(3) -0.15375(16)
C1 C 0.8211(2) 0.5312(3) -0.08516(18)
C2 C 0.8395(3) 0.6035(3) -0.1005(2)
H2 H 0.8349 0.6163 -0.1320
C3 C 0.8640(3) 0.6565(4) -0.0707(2)
H3 H 0.8755 0.7054 -0.0820
C4 C 0.8724(3) 0.6399(4) -0.0243(2)
H4 H 0.8910 0.6759 -0.0043
C5 C 0.8534(3) 0.5715(4) -0.0088(2)
H5 H 0.8569 0.5607 0.0231
C6 C 0.8285(2) 0.5154(3) -0.03789(17)
C7 C 0.8095(2) 0.4447(3) -0.01740(18)
H6 H 0.8092 0.4419 0.0152
C8 C 0.7693(3) 0.3152(3) -0.01714(18)
H7 H 0.7842 0.3132 0.0150
H8 H 0.7240 0.3163 -0.0166
C9 C 0.7905(3) 0.2469(3) -0.04238(18)
H9 H 0.8316 0.2316 -0.0312
H10 H 0.7619 0.2039 -0.0370
C10 C 0.8072(2) 0.2104(3) -0.12010(18)
H11 H 0.8087 0.1599 -0.1081
C11 C 0.8204(2) 0.2202(3) -0.16834(18)
C12 C 0.8445(3) 0.1571(3) -0.1923(2)
H12 H 0.8492 0.1094 -0.1772
C13 C 0.8615(3) 0.1648(3) -0.2382(2)
H13 H 0.8789 0.1228 -0.2541
C14 C 0.8530(2) 0.2327(3) -0.26005(18)
H14 H 0.8641 0.2372 -0.2915
C15 C 0.8289(2) 0.2949(3) -0.23774(16)
H15 H 0.8230 0.3414 -0.2540
C16 C 0.8130(2) 0.2905(3) -0.19150(17)
C33 C 0.9558(2) 0.3046(3) -0.15734(16)
H30 H 0.9569 0.2609 -0.1380
C34 C 0.9851(2) 0.3025(3) -0.19897(16)
H31 H 1.0060 0.2574 -0.2083
C35 C 0.98430(19) 0.3660(3) -0.22756(15)
C36 C 0.9527(2) 0.4299(3) -0.21249(16)
H32 H 0.9510 0.4742 -0.2313
C37 C 0.9235(2) 0.4300(3) -0.17051(16)
H33 H 0.9019 0.4742 -0.1606
C49 C 0.6481(2) 0.4013(3) -0.08060(16)
C50 C 0.6225(2) 0.6772(3) 0.04819(16)
C51 C 0.4510(2) 0.6338(3) -0.11985(17)
Nb1D Nb 0.441263(17) 0.41494(2) -0.022044(13)
Nb2D Nb 0.523790(17) 0.43356(2) 0.056430(13)
Nb3D Nb 0.429560(17) 0.54857(2) 0.037620(13)
Cl1D Cl 0.34723(5) 0.45713(6) 0.01799(4)
Cl2D Cl 0.45897(5) 0.32113(6) 0.04020(4)
Cl3D Cl 0.40268(5) 0.47813(6) -0.09178(4)
Cl4D Cl 0.51362(5) 0.34214(6) -0.07006(4)
Cl5D Cl 0.44471(5) 0.47891(7) 0.11014(4)
Cl6D Cl 0.61150(5) 0.36459(6) 0.02204(4)
Mn1D Mn 0.20832(3) 0.62485(4) 0.10760(2)
Mn1B Mn 1.20832(3) 0.37515(4) -0.39240(2)
O1D O 0.20146(15) 0.51782(19) 0.11500(11)
O2D O 0.20711(14) 0.64661(18) 0.17055(10)
O5B O 1.10304(14) 0.3676(2) -0.39706(10)
O5D O 0.10304(14) 0.6324(2) 0.10294(10)
N1D N 0.20723(18) 0.6156(2) 0.03980(14)
N3D N 0.20653(18) 0.7355(2) 0.09218(14)
N5B N 1.07454(17) 0.3675(2) -0.35668(13)
N8D N 0.31100(18) 0.6188(2) 0.10128(14)
N9D N 0.3458(2) 0.2771(2) -0.06227(15)
N10D N 0.5625(2) 0.3374(3) 0.15375(16)
C1D C 0.1789(2) 0.4688(3) 0.08516(18)
C2D C 0.1605(3) 0.3965(3) 0.1005(2)
H2D H 0.1651 0.3837 0.1320
C3D C 0.1360(3) 0.3435(4) 0.0707(2)
H3D H 0.1245 0.2946 0.0820
C4D C 0.1276(3) 0.3601(4) 0.0243(2)
H4D H 0.1090 0.3241 0.0043
C5D C 0.1466(3) 0.4285(4) 0.0088(2)
H5D H 0.1431 0.4393 -0.0231
C6D C 0.1715(2) 0.4846(3) 0.03789(17)
C7D C 0.1905(2) 0.5553(3) 0.01740(18)
H6D H 0.1908 0.5581 -0.0152
C8D C 0.2307(3) 0.6848(3) 0.01714(18)
H7D H 0.2158 0.6868 -0.0150
H8D H 0.2760 0.6837 0.0166
C9D C 0.2095(3) 0.7531(3) 0.04238(18)
H9D H 0.1684 0.7684 0.0312
H10D H 0.2381 0.7961 0.0370
C10D C 0.1928(2) 0.7896(3) 0.12010(18)
H11D H 0.1913 0.8401 0.1081
C11D C 0.1796(2) 0.7798(3) 0.16834(18)
C12D C 0.1555(3) 0.8429(3) 0.1923(2)
H12D H 0.1508 0.8906 0.1772
C13D C 0.1385(3) 0.8352(3) 0.2382(2)
H13D H 0.1211 0.8772 0.2541
C14D C 0.1470(2) 0.7673(3) 0.26005(18)
H14D H 0.1359 0.7628 0.2915
C15D C 0.1711(2) 0.7051(3) 0.23774(16)
H15D H 0.1770 0.6586 0.2540
C16D C 0.1870(2) 0.7095(3) 0.19150(17)
C33B C 1.0442(2) 0.3046(3) -0.34266(16)
H30B H 1.0431 0.2609 -0.3620
C34B C 1.0149(2) 0.3025(3) -0.30103(16)
H31B H 0.9940 0.2574 -0.2917
C35B C 1.01570(19) 0.3660(3) -0.27244(15)
C36B C 1.0473(2) 0.4299(3) -0.28751(16)
H32B H 1.0490 0.4742 -0.2687
C37B C 1.0765(2) 0.4300(3) -0.32949(16)
H33B H 1.0981 0.4742 -0.3394
C49D C 0.3519(2) 0.5987(3) 0.08060(16)
C50D C 0.3775(2) 0.3228(3) -0.04819(16)
C51D C 0.5490(2) 0.3662(3) 0.11985(17)
Mn2 Mn 0.15321(3) 0.57937(4) -0.18287(2)
O3 O 0.09544(14) 0.59465(18) -0.23029(11)
O4 O 0.12665(16) 0.47969(19) -0.16849(12)
O6 O 0.08965(16) 0.62888(19) -0.13121(11)
O8 O 0.22362(18) 0.5318(2) -0.23346(13)
H1 H 0.241(3) 0.489(4) -0.228(2)
N2 N 0.18884(18) 0.6817(2) -0.19283(13)
N4 N 0.22413(19) 0.5718(2) -0.13951(14)
N6 N 0.06388(18) 0.5935(2) -0.09596(14)
C17 C 0.1501(2) 0.4304(3) -0.13867(17)
C18 C 0.1196(3) 0.3613(3) -0.13184(19)
H16 H 0.0825 0.3521 -0.1479
C19 C 0.1415(3) 0.3063(3) -0.10259(19)
H17 H 0.1196 0.2599 -0.0985
C20 C 0.1956(3) 0.3184(3) -0.07907(18)
H18 H 0.2113 0.2801 -0.0592
C21 C 0.2263(3) 0.3856(3) -0.08452(18)
H19 H 0.2635 0.3936 -0.0683
C22 C 0.2043(2) 0.4431(3) -0.11357(16)
C23 C 0.2386(2) 0.5131(3) -0.11602(16)
H20 H 0.2753 0.5159 -0.0985
C24 C 0.2675(2) 0.6367(3) -0.1424(2)
H21 H 0.2996 0.6263 -0.1656
H22 H 0.2876 0.6452 -0.1123
C25 C 0.2305(2) 0.7061(3) -0.15593(18)
H23 H 0.2069 0.7254 -0.1293
H24 H 0.2579 0.7473 -0.1669
C26 C 0.1818(2) 0.7227(3) -0.22912(17)
H25 H 0.2074 0.7663 -0.2324
C27 C 0.1387(2) 0.7081(3) -0.26482(17)
C28 C 0.1359(3) 0.7607(3) -0.30094(19)
H26 H 0.1665 0.7992 -0.3033
C29 C 0.0897(3) 0.7579(3) -0.33312(19)
H27 H 0.0886 0.7935 -0.3577
C30 C 0.0448(3) 0.7020(3) -0.32896(18)
H28 H 0.0117 0.7013 -0.3501
C31 C 0.0474(2) 0.6480(3) -0.29518(16)
H29 H 0.0169 0.6092 -0.2939
C32 C 0.0944(2) 0.6490(3) -0.26218(16)
C38 C 0.0709(3) 0.6230(3) -0.05386(19)
H34 H 0.0933 0.6691 -0.0500
C39 C 0.0459(2) 0.5874(3) -0.01614(18)
H35 H 0.0516 0.6092 0.0135
C40 C 0.0127(2) 0.5206(3) -0.02054(17)
C41 C 0.0045(3) 0.4941(3) -0.06462(17)
H36 H -0.0194 0.4495 -0.0695
C42 C 0.0298(2) 0.5307(3) -0.10170(18)
H37 H 0.0231 0.5112 -0.1317
C48 C 0.2149(3) 0.5286(3) -0.28117(18)
H42 H 0.2230 0.4766 -0.2921
H43 H 0.2430 0.5643 -0.2963
H44 H 0.1725 0.5426 -0.2885
Mn2D Mn -0.15321(3) 0.42063(4) 0.18287(2)
O3D O -0.09544(14) 0.40535(18) 0.23029(11)
O4D O -0.12665(16) 0.52031(19) 0.16849(12)
O6D O -0.08965(16) 0.37112(19) 0.13121(11)
O8D O -0.22362(18) 0.4682(2) 0.23346(13)
H1D H -0.241(3) 0.511(4) 0.228(2)
N2D N -0.18884(18) 0.3183(2) 0.19283(13)
N4D N -0.22413(19) 0.4282(2) 0.13951(14)
N6D N -0.06388(18) 0.4065(2) 0.09596(14)
C17D C -0.1501(2) 0.5696(3) 0.13867(17)
C18D C -0.1196(3) 0.6387(3) 0.13184(19)
H16D H -0.0825 0.6479 0.1479
C19D C -0.1415(3) 0.6937(3) 0.10259(19)
H17D H -0.1196 0.7401 0.0985
C20D C -0.1956(3) 0.6816(3) 0.07907(18)
H18D H -0.2113 0.7199 0.0592
C21D C -0.2263(3) 0.6144(3) 0.08452(18)
H19D H -0.2635 0.6064 0.0683
C22D C -0.2043(2) 0.5569(3) 0.11357(16)
C23D C -0.2386(2) 0.4869(3) 0.11602(16)
H20D H -0.2753 0.4841 0.0985
C24D C -0.2675(2) 0.3633(3) 0.1424(2)
H21D H -0.2996 0.3737 0.1656
H22D H -0.2876 0.3548 0.1123
C25D C -0.2305(2) 0.2939(3) 0.15593(18)
H23D H -0.2069 0.2746 0.1293
H24D H -0.2579 0.2527 0.1669
C26D C -0.1818(2) 0.2773(3) 0.22912(17)
H25D H -0.2074 0.2337 0.2324
C27D C -0.1387(2) 0.2919(3) 0.26482(17)
C28D C -0.1359(3) 0.2393(3) 0.30094(19)
H26D H -0.1665 0.2008 0.3033
C29D C -0.0897(3) 0.2421(3) 0.33312(19)
H27D H -0.0886 0.2065 0.3577
C30D C -0.0448(3) 0.2980(3) 0.32896(18)
H28D H -0.0117 0.2987 0.3501
C31D C -0.0474(2) 0.3520(3) 0.29518(16)
H29D H -0.0169 0.3908 0.2939
C32D C -0.0944(2) 0.3510(3) 0.26218(16)
C38D C -0.0709(3) 0.3770(3) 0.05386(19)
H34D H -0.0933 0.3309 0.0500
C39D C -0.0459(2) 0.4126(3) 0.01614(18)
H35D H -0.0516 0.3908 -0.0135
C40D C -0.0127(2) 0.4794(3) 0.02054(17)
C41D C -0.0045(3) 0.5059(3) 0.06462(17)
H36D H 0.0194 0.5505 0.0695
C42D C -0.0298(2) 0.4693(3) 0.10170(18)
H37D H -0.0231 0.4888 0.1317
C48D C -0.2149(3) 0.4714(3) 0.28117(18)
H42D H -0.2230 0.5234 0.2921
H43D H -0.2430 0.4357 0.2963
H44D H -0.1725 0.4574 0.2885
O7 O 0.2138(2) 0.9087(2) -0.20793(16)
N7 N 0.1553(2) 0.9110(3) -0.21938(19)
C43 C 0.1376(4) 0.9372(4) -0.2601(3)
H38 H 0.1675 0.9571 -0.2806
C44 C 0.0770(4) 0.9364(4) -0.2732(3)
H39 H 0.0658 0.9533 -0.3031
C45 C 0.0324(3) 0.9111(4) -0.2433(2)
C46 C 0.0520(3) 0.8838(4) -0.2008(2)
H40 H 0.0228 0.8653 -0.1793
C47 C 0.1133(3) 0.8835(4) -0.1899(2)
H41 H 0.1262 0.8635 -0.1611
O7B O -0.2138(2) 0.9087(2) -0.29207(16)
N7B N -0.1553(2) 0.9110(3) -0.28062(19)
C43B C -0.1376(4) 0.9372(4) -0.2399(3)
H38B H -0.1675 0.9571 -0.2194
C44B C -0.0770(4) 0.9364(4) -0.2268(3)
H39B H -0.0658 0.9533 -0.1969
C45B C -0.0324(3) 0.9111(4) -0.2567(2)
C46B C -0.0520(3) 0.8838(4) -0.2992(2)
H40B H -0.0228 0.8653 -0.3207
C47B C -0.1133(3) 0.8835(4) -0.3101(2)
H41B H -0.1262 0.8635 -0.3389
loop_
_geom_bond_atom_site_label_1
_geom_bond_atom_site_label_2
_geom_bond_site_symmetry_1
_geom_bond_site_symmetry_2
Nb1 Nb2 1_555 1_555
Nb2 Nb3 1_555 1_555
Nb3 Nb1 1_555 1_555
Cl1 Nb1 1_555 1_555
Cl2 Nb1 1_555 1_555
Cl3 Nb1 1_555 1_555
Cl4 Nb1 1_555 1_555
Cl5 Nb2 1_555 1_555
Cl6 Nb2 1_555 1_555
Mn1 O1 1_555 1_555
Mn2 O3 1_555 1_555
O1 C1 1_555 1_555
O2 Mn1 1_555 1_555
O3 C32 1_555 1_555
O4 Mn2 1_555 1_555
O5 Mn1 1_555 1_555
O6 Mn2 1_555 1_555
O7 N7 1_555 1_555
O8 Mn2 1_555 1_555
H1 O8 1_555 1_555
N1 Mn1 1_555 1_555
N2 Mn2 1_555 1_555
N3 Mn1 1_555 1_555
N4 Mn2 1_555 1_555
N5 O5 1_555 1_555
N6 O6 1_555 1_555
N7 C43 1_555 1_555
N8 Mn1 1_555 1_555
N9 C50 1_555 1_555
N10 C51 1_555 1_555
C1 C2 1_555 1_555
C2 H2 1_555 1_555
C3 C2 1_555 1_555
H3 C3 1_555 1_555
C4 C3 1_555 1_555
H4 C4 1_555 1_555
C5 C4 1_555 1_555
H5 C5 1_555 1_555
C6 C1 1_555 1_555
C7 N1 1_555 1_555
H6 C7 1_555 1_555
C8 N1 1_555 1_555
H7 C8 1_555 1_555
H8 C8 1_555 1_555
C9 N3 1_555 1_555
H9 C9 1_555 1_555
H10 C9 1_555 1_555
C10 N3 1_555 1_555
H11 C10 1_555 1_555
C11 C10 1_555 1_555
C12 C11 1_555 1_555
H12 C12 1_555 1_555
C13 C12 1_555 1_555
H13 C13 1_555 1_555
C14 C13 1_555 1_555
H14 C14 1_555 1_555
C15 C14 1_555 1_555
H15 C15 1_555 1_555
C16 O2 1_555 1_555
C17 O4 1_555 1_555
C18 C17 1_555 1_555
H16 C18 1_555 1_555
C19 C18 1_555 1_555
H17 C19 1_555 1_555
C20 C19 1_555 1_555
H18 C20 1_555 1_555
C21 C20 1_555 1_555
H19 C21 1_555 1_555
C22 C17 1_555 1_555
C23 N4 1_555 1_555
H20 C23 1_555 1_555
C24 N4 1_555 1_555
H21 C24 1_555 1_555
H22 C24 1_555 1_555
C25 N2 1_555 1_555
H23 C25 1_555 1_555
H24 C25 1_555 1_555
C26 N2 1_555 1_555
H25 C26 1_555 1_555
C27 C26 1_555 1_555
C28 C27 1_555 1_555
H26 C28 1_555 1_555
C29 C28 1_555 1_555
H27 C29 1_555 1_555
C30 C29 1_555 1_555
H28 C30 1_555 1_555
C31 C30 1_555 1_555
H29 C31 1_555 1_555
C32 C27 1_555 1_555
C33 N5 1_555 1_555
H30 C33 1_555 1_555
C34 C33 1_555 1_555
H31 C34 1_555 1_555
C35 C34 1_555 1_555
C36 C35 1_555 1_555
H32 C36 1_555 1_555
C37 N5 1_555 1_555
H33 C37 1_555 1_555
C38 N6 1_555 1_555
H34 C38 1_555 1_555
C39 C38 1_555 1_555
H35 C39 1_555 1_555
C40 C39 1_555 1_555
C41 C40 1_555 1_555
H36 C41 1_555 1_555
C42 N6 1_555 1_555
H37 C42 1_555 1_555
C43 H38 1_555 1_555
C44 C43 1_555 1_555
H39 C44 1_555 1_555
C45 C44 1_555 1_555
C46 C45 1_555 1_555
H40 C46 1_555 1_555
C47 N7 1_555 1_555
H41 C47 1_555 1_555
C48 O8 1_555 1_555
H42 C48 1_555 1_555
H43 C48 1_555 1_555
H44 C48 1_555 1_555
C49 Nb3 1_555 1_555
C50 Nb1 1_555 1_555
C51 Nb2 1_555 1_555
Nb1D Nb2 1_555 1_555
Nb2D Nb1 1_555 1_555
Nb3D Nb1 1_555 1_555
Cl1D Nb1D 1_555 1_555
Cl2D Nb1D 1_555 1_555
Cl3D Nb2 1_555 1_555
Cl4D Nb3 1_555 1_555
Cl5D Nb2D 1_555 1_555
Cl6D Nb3 1_555 1_555
Mn1D O1D 1_555 1_555
Mn1B O5B 1_555 1_555
Mn2D O3D 1_555 1_555
O1D C1D 1_555 1_555
O2D Mn1D 1_555 1_555
O3D C32D 1_555 1_555
O4D Mn2D 1_555 1_555
O5B N5B 1_555 1_555
O5D Mn1D 1_555 1_555
O6D Mn2D 1_555 1_555
O7B N7B 1_555 1_555
O8D Mn2D 1_555 1_555
H1D O8D 1_555 1_555
N1D Mn1D 1_555 1_555
N2D Mn2D 1_555 1_555
N3D Mn1D 1_555 1_555
N4D Mn2D 1_555 1_555
N5B C33B 1_555 1_555
N6D O6D 1_555 1_555
N7B C43B 1_555 1_555
N8D Mn1D 1_555 1_555
N9D C50D 1_555 1_555
N10D C51D 1_555 1_555
C1D C2D 1_555 1_555
C2D H2D 1_555 1_555
C3D C2D 1_555 1_555
H3D C3D 1_555 1_555
C4D C3D 1_555 1_555
H4D C4D 1_555 1_555
C5D C4D 1_555 1_555
H5D C5D 1_555 1_555
C6D C1D 1_555 1_555
C7D N1D 1_555 1_555
H6D C7D 1_555 1_555
C8D N1D 1_555 1_555
H7D C8D 1_555 1_555
H8D C8D 1_555 1_555
C9D N3D 1_555 1_555
H9D C9D 1_555 1_555
H10D C9D 1_555 1_555
C10D N3D 1_555 1_555
H11D C10D 1_555 1_555
C11D C10D 1_555 1_555
C12D C11D 1_555 1_555
H12D C12D 1_555 1_555
C13D C12D 1_555 1_555
H13D C13D 1_555 1_555
C14D C13D 1_555 1_555
H14D C14D 1_555 1_555
C15D C14D 1_555 1_555
H15D C15D 1_555 1_555
C16D O2D 1_555 1_555
C17D O4D 1_555 1_555
C18D C17D 1_555 1_555
H16D C18D 1_555 1_555
C19D C18D 1_555 1_555
H17D C19D 1_555 1_555
C20D C19D 1_555 1_555
H18D C20D 1_555 1_555
C21D C20D 1_555 1_555
H19D C21D 1_555 1_555
C22D C17D 1_555 1_555
C23D N4D 1_555 1_555
H20D C23D 1_555 1_555
C24D N4D 1_555 1_555
H21D C24D 1_555 1_555
H22D C24D 1_555 1_555
C25D N2D 1_555 1_555
H23D C25D 1_555 1_555
H24D C25D 1_555 1_555
C26D N2D 1_555 1_555
H25D C26D 1_555 1_555
C27D C26D 1_555 1_555
C28D C27D 1_555 1_555
H26D C28D 1_555 1_555
C29D C28D 1_555 1_555
H27D C29D 1_555 1_555
C30D C29D 1_555 1_555
H28D C30D 1_555 1_555
C31D C30D 1_555 1_555
H29D C31D 1_555 1_555
C32D C27D 1_555 1_555
C33B H30B 1_555 1_555
C34B C33B 1_555 1_555
H31B C34B 1_555 1_555
C35B C35 1_555 1_555
C36B C35B 1_555 1_555
H32B C36B 1_555 1_555
C37B N5B 1_555 1_555
H33B C37B 1_555 1_555
C38D N6D 1_555 1_555
H34D C38D 1_555 1_555
C39D C38D 1_555 1_555
H35D C39D 1_555 1_555
C40D C40 1_555 1_555
C41D C40D 1_555 1_555
H36D C41D 1_555 1_555
C42D N6D 1_555 1_555
H37D C42D 1_555 1_555
C43B H38B 1_555 1_555
C44B C43B 1_555 1_555
H39B C44B 1_555 1_555
C45B C45 1_555 1_555
C46B C45B 1_555 1_555
H40B C46B 1_555 1_555
C47B N7B 1_555 1_555
H41B C47B 1_555 1_555
C48D O8D 1_555 1_555
H42D C48D 1_555 1_555
H43D C48D 1_555 1_555
H44D C48D 1_555 1_555
C49D Nb3D 1_555 1_555
C50D Nb1D 1_555 1_555
C51D Nb2D 1_555 1_555
Nb2 Cl2 1_555 1_555
Nb2 Nb3D 1_555 1_555
Nb3 Cl1 1_555 1_555
Nb3 Cl5 1_555 1_555
Nb3 Nb1D 1_555 1_555
Nb3 Nb2D 1_555 1_555
Cl3 Nb2D 1_555 1_555
Cl4 Nb3D 1_555 1_555
Cl6 Nb3D 1_555 1_555
N8 C49 1_555 1_555
C5 C6 1_555 1_555
C6 C7 1_555 1_555
C8 C9 1_555 1_555
C11 C16 1_555 1_555
C15 C16 1_555 1_555
C21 C22 1_555 1_555
C22 C23 1_555 1_555
C24 C25 1_555 1_555
C31 C32 1_555 1_555
C36 C37 1_555 1_555
C41 C42 1_555 1_555
C46 C47 1_555 1_555
Nb1D Nb2D 1_555 1_555
Nb1D Nb3D 1_555 1_555
Nb1D Cl3D 1_555 1_555
Nb1D Cl4D 1_555 1_555
Nb2D Nb3D 1_555 1_555
Nb2D Cl2D 1_555 1_555
Nb2D Cl6D 1_555 1_555
Nb3D Cl1D 1_555 1_555
Nb3D Cl5D 1_555 1_555
N8D C49D 1_555 1_555
C5D C6D 1_555 1_555
C6D C7D 1_555 1_555
C8D C9D 1_555 1_555
C11D C16D 1_555 1_555
C15D C16D 1_555 1_555
C21D C22D 1_555 1_555
C22D C23D 1_555 1_555
C24D C25D 1_555 1_555
C31D C32D 1_555 1_555
C34B C35B 1_555 1_555
C36B C37B 1_555 1_555
C39D C40D 1_555 1_555
C41D C42D 1_555 1_555
C44B C45B 1_555 1_555
C46B C47B 1_555 1_555

#END
