
#######################################################################
#
#                 Cambridge Crystallographic Data Centre
#                                CCDC 
#
#######################################################################
#
# If this CIF has been generated from an entry in the Cambridge 
# Structural Database, then it will include bibliographic, chemical, 
# crystal, experimental, refinement or atomic coordinate data resulting 
# from the CCDC's data processing and validation procedures.
#
#######################################################################

data_TIVZII
_symmetry_cell_setting           monoclinic
_symmetry_space_group_name_H-M   'P 21/n'
_symmetry_Int_Tables_number      14
_space_group_name_Hall           '-P 2yn'
loop_
_symmetry_equiv_pos_site_id
_symmetry_equiv_pos_as_xyz
1 x,y,z
2 1/2-x,1/2+y,1/2-z
3 -x,-y,-z
4 1/2+x,1/2-y,1/2+z
_cell_length_a                   11.3740(19)
_cell_length_b                   6.8092(11)
_cell_length_c                   12.029(2)
_cell_angle_alpha                90
_cell_angle_beta                 106.946(3)
_cell_angle_gamma                90
_cell_volume                     891.169
loop_
_atom_site_label
_atom_site_type_symbol
_atom_site_fract_x
_atom_site_fract_y
_atom_site_fract_z
C1 C 0.7770(2) 1.2911(4) 0.2574(2)
C2 C 0.6702(2) 1.2899(4) 0.1500(2)
C3 C 0.4806(2) 1.2283(4) 0.0614(2)
H1 H 0.3979 1.1961 0.0462
C4 C 0.6566(2) 1.3112(4) 0.0334(2)
C5 C 0.7408(2) 1.3661(4) -0.0354(2)
C6 C 0.6150(2) 1.4016(4) 0.5433(2)
H2 H 0.6699 1.4842 0.5153
H3 H 0.6635 1.2963 0.5887
C7 C 0.5584(2) 1.5230(4) 0.6209(2)
H4 H 0.6237 1.5790 0.6838
H5 H 0.5101 1.4374 0.6551
Fe1 Fe 0.57926(3) 1.10136(5) 0.33274(3)
N1 N 0.55872(18) 1.2385(3) 0.16641(17)
N2 N 0.53492(17) 1.2699(3) -0.02048(17)
H6 H 0.4998 1.2706 -0.0942
N3 N 0.52133(17) 1.3163(3) 0.44265(17)
H7 H 0.4716 1.2466 0.4752
O1 O 0.88290(15) 1.3366(3) 0.25190(14)
O2 O 0.75438(15) 1.2383(3) 0.34878(14)
O3 O 0.84274(15) 1.4445(3) 0.01564(15)
O4 O 0.70647(16) 1.3289(3) -0.14165(14)
O5 O 0.39334(17) 1.0032(3) 0.27367(19)
H8 H 0.373(3) 0.897(5) 0.235(3)
H9 H 0.344(3) 1.033(6) 0.298(3)
C1A C 0.7230(2) 0.7911(4) 0.2426(2)
C2A C 0.8298(2) 0.7899(4) 0.3500(2)
C3A C 1.0194(2) 0.7283(4) 0.4386(2)
H1A H 1.1021 0.6961 0.4538
C4A C 0.8434(2) 0.8112(4) 0.4666(2)
C5A C 0.7592(2) 0.8661(4) 0.5354(2)
C6B C 0.3850(2) 1.5984(4) 0.4567(2)
H2B H 0.3301 1.5158 0.4847
H3B H 0.3365 1.7037 0.4113
C7B C 0.4416(2) 1.4770(4) 0.3791(2)
H4B H 0.3763 1.4210 0.3162
H5B H 0.4899 1.5626 0.3449
Fe1A Fe 0.92074(3) 0.60136(5) 0.16726(3)
Fe1A_2 Fe 0.92074(3) 1.60136(5) 0.16726(3)
Fe1B Fe 0.42074(3) 1.89864(5) 0.66726(3)
N1A N 0.94128(18) 0.7385(3) 0.33359(17)
N2A N 0.96508(17) 0.7699(3) 0.52048(17)
H6A H 1.0002 0.7706 0.5942
N3B N 0.47867(17) 1.6837(3) 0.55735(17)
N3A N 0.97867(17) 0.8163(3) 0.05735(17)
H7B H 0.5284 1.7534 0.5248
H7A H 1.0284 0.7466 0.0248
O1A O 0.61710(15) 0.8366(3) 0.24810(14)
O1_2 O 0.88290(15) 0.3366(3) 0.25190(14)
O2A O 0.74562(15) 0.7383(3) 0.15122(14)
O3A O 0.65726(15) 0.9445(3) 0.48436(15)
O3_2 O 0.84274(15) 0.4445(3) 0.01564(15)
O4A O 0.79353(16) 0.8289(3) 0.64165(14)
O5A O 1.10666(17) 0.5032(3) 0.22633(19)
H8A H 1.127(3) 0.397(5) 0.265(3)
H9A H 1.156(3) 0.533(6) 0.202(3)
loop_
_geom_bond_atom_site_label_1
_geom_bond_atom_site_label_2
_geom_bond_site_symmetry_1
_geom_bond_site_symmetry_2
C1 C2 1_555 1_555
C2 C4 1_555 1_555
C3 H1 1_555 1_555
C4 C5 1_555 1_555
C5 O3 1_555 1_555
C6 H2 1_555 1_555
H3 C6 1_555 1_555
C7 C6 1_555 1_555
H4 C7 1_555 1_555
H5 C7 1_555 1_555
Fe1 N1 1_555 1_555
N1 C2 1_555 1_555
N2 C3 1_555 1_555
H6 N2 1_555 1_555
N3 C6 1_555 1_555
H7 N3 1_555 1_555
O1 C1 1_555 1_555
O2 C1 1_555 1_555
O3 Fe1A_2 1_555 1_555
O4 C5 1_555 1_555
O5 Fe1 1_555 1_555
H8 O5 1_555 1_555
H9 O5 1_555 1_555
C1A C2A 1_555 1_555
C2A C4A 1_555 1_555
C3A H1A 1_555 1_555
C4A C5A 1_555 1_555
C5A O3A 1_555 1_555
C6B H2B 1_555 1_555
H3B C6B 1_555 1_555
C7B N3 1_555 1_555
H4B C7B 1_555 1_555
H5B C7B 1_555 1_555
Fe1A N1A 1_555 1_555
Fe1A_2 O1 1_555 1_555
Fe1B N3B 1_555 1_555
N1A C2A 1_555 1_555
N2A C3A 1_555 1_555
H6A N2A 1_555 1_555
N3B C7 1_555 1_555
N3A Fe1A 1_555 1_555
H7B N3B 1_555 1_555
H7A N3A 1_555 1_555
O1A Fe1 1_555 1_555
O1_2 Fe1A 1_555 1_555
O2A C1A 1_555 1_555
O3A Fe1 1_555 1_555
O3_2 Fe1A 1_555 1_555
O4A C5A 1_555 1_555
O5A Fe1A 1_555 1_555
H8A O5A 1_555 1_555
H9A O5A 1_555 1_555
C3 N1 1_555 1_555
C4 N2 1_555 1_555
Fe1 N3 1_555 1_555
Fe1 O2 1_555 1_555
C1A O1A 1_555 1_555
C3A N1A 1_555 1_555
C4A N2A 1_555 1_555
C6B C7B 1_555 1_555
C6B N3B 1_555 1_555
Fe1A O2A 1_555 1_555

#END
