
#######################################################################
#
#                 Cambridge Crystallographic Data Centre
#                                CCDC 
#
#######################################################################
#
# If this CIF has been generated from an entry in the Cambridge 
# Structural Database, then it will include bibliographic, chemical, 
# crystal, experimental, refinement or atomic coordinate data resulting 
# from the CCDC's data processing and validation procedures.
#
#######################################################################

data_TIVZUU
_symmetry_cell_setting           monoclinic
_symmetry_space_group_name_H-M   'P 21/n'
_symmetry_Int_Tables_number      14
_space_group_name_Hall           '-P 2yn'
loop_
_symmetry_equiv_pos_site_id
_symmetry_equiv_pos_as_xyz
1 x,y,z
2 1/2-x,1/2+y,1/2-z
3 -x,-y,-z
4 1/2+x,1/2-y,1/2+z
_cell_length_a                   11.634(3)
_cell_length_b                   6.8989(19)
_cell_length_c                   12.185(4)
_cell_angle_alpha                90
_cell_angle_beta                 108.033(3)
_cell_angle_gamma                90
_cell_volume                     929.95
loop_
_atom_site_label
_atom_site_type_symbol
_atom_site_fract_x
_atom_site_fract_y
_atom_site_fract_z
Cd1 Cd 0.42284(5) 0.10900(7) 0.67077(4)
O1 O 0.3872(5) -0.1893(8) 0.7407(4)
O2 O 0.3419(5) -0.0601(8) 0.5062(5)
C1 C 0.2429(7) -0.1384(10) 0.4565(6)
C2 C 0.1773(7) -0.2243(10) 0.6407(6)
C3 C 0.2852(6) -0.2261(10) 0.7466(6)
C4 C 0.1621(7) -0.1957(11) 0.5253(6)
O3 O 0.2067(5) -0.1776(8) 0.3519(4)
O4 O 0.6236(6) 0.0217(10) 0.7454(6)
H1 H 0.6284 -0.0869 0.7738
N1 N 0.4821(6) 0.3217(10) 0.5567(6)
O5 O 0.2637(5) -0.2676(9) 0.8387(5)
N2 N 0.0423(6) -0.2287(9) 0.4706(5)
H2 H 0.0070 -0.2225 0.3974
N3 N 0.0668(6) -0.2700(9) 0.6526(5)
C5 C -0.0105(7) -0.2724(11) 0.5501(7)
H3 H -0.0922 -0.3009 0.5340
C6 C 0.3880(7) 0.3961(11) 0.4547(7)
H4 H 0.3314 0.4748 0.4793
H5 H 0.3438 0.2882 0.4100
C7 C 0.5567(8) 0.4827(12) 0.6207(7)
H6 H 0.6210 0.4304 0.6850
H7 H 0.5070 0.5655 0.6519
H8 H 0.673(9) 0.074(13) 0.724(9)
H9 H 0.525(9) 0.255(13) 0.543(8)
Cd1A Cd 0.07716(5) 0.60900(7) 0.82923(4)
Cd1A_2 Cd 0.07716(5) -0.39100(7) 0.82923(4)
Cd1B Cd 0.57716(5) 0.89100(7) 0.32923(4)
O1A O 0.1128(5) 0.3107(8) 0.7593(4)
O1A_2 O 0.1128(5) -0.6893(8) 0.7593(4)
O2A O 0.1581(5) 0.4399(8) 0.9938(5)
O2A_2 O 0.1581(5) -0.5601(8) 0.9938(5)
C1A C 0.2571(7) 0.3616(10) 1.0435(6)
C2A C 0.3227(7) 0.2757(10) 0.8593(6)
C3A C 0.2148(6) 0.2739(10) 0.7534(6)
C4A C 0.3379(7) 0.3043(11) 0.9747(6)
O3A O 0.2933(5) 0.3224(8) 1.1481(4)
O4A O -0.1236(6) -0.4783(10) 0.7546(6)
H1A H -0.1284 -0.5869 0.7262
N1B N 0.5179(6) 0.6783(10) 0.4433(6)
N1A N 0.0179(6) -0.1783(10) 0.9433(6)
O5A O 0.2363(5) 0.2324(9) 0.6613(5)
N2A N 0.4577(6) 0.2713(9) 1.0294(5)
H2A H 0.4930 0.2775 1.1026
N3A N 0.4332(6) 0.2300(9) 0.8474(5)
C5A C 0.5105(7) 0.2276(11) 0.9499(7)
H3A H 0.5922 0.1991 0.9660
C6B C 0.6120(7) 0.6039(11) 0.5453(7)
H4B H 0.6686 0.5252 0.5207
H5B H 0.6562 0.7118 0.5900
C7B C 0.4433(8) 0.5173(12) 0.3793(7)
H6B H 0.3790 0.5696 0.3150
H7B H 0.4930 0.4345 0.3481
H8A H -0.173(9) -0.426(13) 0.776(9)
H9B H 0.475(9) 0.745(13) 0.457(8)
H9A H -0.025(9) -0.245(13) 0.957(8)
loop_
_geom_bond_atom_site_label_1
_geom_bond_atom_site_label_2
_geom_bond_site_symmetry_1
_geom_bond_site_symmetry_2
Cd1 O1 1_555 1_555
O1 C3 1_555 1_555
O2 Cd1 1_555 1_555
C1 O2 1_555 1_555
C2 C3 1_555 1_555
C3 O5 1_555 1_555
C4 C1 1_555 1_555
O3 C1 1_555 1_555
O4 Cd1 1_555 1_555
H1 O4 1_555 1_555
N1 Cd1 1_555 1_555
O5 Cd1A_2 1_555 1_555
N2 C4 1_555 1_555
H2 N2 1_555 1_555
N3 C2 1_555 1_555
C5 N2 1_555 1_555
H3 C5 1_555 1_555
C6 N1 1_555 1_555
H4 C6 1_555 1_555
H5 C6 1_555 1_555
C7 N1 1_555 1_555
H6 C7 1_555 1_555
H7 C7 1_555 1_555
H8 O4 1_555 1_555
H9 N1 1_555 1_555
Cd1A O1A 1_555 1_555
Cd1A_2 N3 1_555 1_555
Cd1B N1B 1_555 1_555
O1A C3A 1_555 1_555
O1A_2 Cd1A_2 1_555 1_555
O2A Cd1A 1_555 1_555
O2A_2 Cd1A_2 1_555 1_555
C1A O2A 1_555 1_555
C2A C3A 1_555 1_555
C3A O5A 1_555 1_555
C4A C1A 1_555 1_555
O3A C1A 1_555 1_555
O4A Cd1A_2 1_555 1_555
H1A O4A 1_555 1_555
N1B C6B 1_555 1_555
N1A Cd1A_2 1_555 1_555
O5A Cd1 1_555 1_555
N2A C4A 1_555 1_555
H2A N2A 1_555 1_555
N3A Cd1 1_555 1_555
C5A N2A 1_555 1_555
H3A C5A 1_555 1_555
C6B C7 1_555 1_555
H4B C6B 1_555 1_555
H5B C6B 1_555 1_555
C7B C6 1_555 1_555
H6B C7B 1_555 1_555
H7B C7B 1_555 1_555
H8A O4A 1_555 1_555
H9B N1B 1_555 1_555
H9A N1A 1_555 1_555
C2 C4 1_555 1_555
N3 C5 1_555 1_555
C2A C4A 1_555 1_555
C2A N3A 1_555 1_555
N1B C7B 1_555 1_555
N3A C5A 1_555 1_555

#END
