
#######################################################################
#
#                 Cambridge Crystallographic Data Centre
#                                CCDC 
#
#######################################################################
#
# If this CIF has been generated from an entry in the Cambridge 
# Structural Database, then it will include bibliographic, chemical, 
# crystal, experimental, refinement or atomic coordinate data resulting 
# from the CCDC's data processing and validation procedures.
#
#######################################################################

data_TIVZOO
_symmetry_cell_setting           monoclinic
_symmetry_space_group_name_H-M   'P 21/n'
_symmetry_Int_Tables_number      14
_space_group_name_Hall           '-P 2yn'
loop_
_symmetry_equiv_pos_site_id
_symmetry_equiv_pos_as_xyz
1 x,y,z
2 1/2-x,1/2+y,1/2-z
3 -x,-y,-z
4 1/2+x,1/2-y,1/2+z
_cell_length_a                   11.4597(17)
_cell_length_b                   6.8693(10)
_cell_length_c                   12.1575(18)
_cell_angle_alpha                90
_cell_angle_beta                 107.328(3)
_cell_angle_gamma                90
_cell_volume                     913.605
loop_
_atom_site_label
_atom_site_type_symbol
_atom_site_fract_x
_atom_site_fract_y
_atom_site_fract_z
C1 C 0.2233(2) 0.2848(3) 0.2491(2)
C2 C 0.3299(2) 0.2837(3) 0.3556(2)
C3 C 0.5192(2) 0.2277(4) 0.4452(2)
H1 H 0.6018 0.1982 0.4610
C4 C 0.3441(2) 0.3077(4) 0.4714(2)
C5 C 0.2601(2) 0.3631(3) 0.5393(2)
C6 C 0.3871(2) 0.3978(4) -0.0441(2)
H2 H 0.3305 0.4774 -0.0182
H3 H 0.3413 0.2912 -0.0892
C7 C 0.4428(2) 0.5205(4) -0.1205(2)
H4 H 0.3775 0.5737 -0.1837
H5 H 0.4924 0.4374 -0.1531
Mn1 Mn 0.42126(3) 0.10113(6) 0.16840(3)
N1 N 0.44135(18) 0.2334(3) 0.34084(17)
N2 N 0.46484(18) 0.2698(3) 0.52562(17)
H6 H 0.4997 0.2725 0.5988
N3 N 0.48078(18) 0.3179(3) 0.05736(17)
H7 H 0.5317 0.2493 0.0270
O1 O 0.11813(15) 0.3287(3) 0.25397(14)
O2 O 0.24548(16) 0.2343(3) 0.15819(14)
O3 O 0.16004(15) 0.4435(3) 0.48852(14)
O4 O 0.29415(16) 0.3248(3) 0.64463(14)
O5 O 0.61205(16) 0.0076(3) 0.23087(17)
H8 H 0.6509 0.0579 0.1915
H9 H 0.635(3) -0.098(5) 0.267(3)
C1A C 0.2767(2) -0.2152(3) 0.2509(2)
C2A C 0.1701(2) -0.2163(3) 0.1444(2)
C3A C -0.0192(2) -0.2723(4) 0.0548(2)
H1A H -0.1018 -0.3018 0.0390
C4A C 0.1559(2) -0.1923(4) 0.0286(2)
C5A C 0.2399(2) -0.1369(3) -0.0393(2)
C6B C 0.6129(2) 0.6022(4) 0.0441(2)
H2B H 0.6695 0.5226 0.0182
H3B H 0.6587 0.7088 0.0892
C7B C 0.5572(2) 0.4795(4) 0.1205(2)
H4B H 0.6225 0.4263 0.1837
H5B H 0.5076 0.5626 0.1531
Mn1A Mn 0.07874(3) -0.39887(6) 0.33160(3)
Mn1A_2 Mn 0.07874(3) 0.60113(6) 0.33160(3)
Mn1B Mn 0.57874(3) 0.89887(6) -0.16840(3)
N1A N 0.05865(18) -0.2666(3) 0.15916(17)
N2A N 0.03516(18) -0.2302(3) -0.02562(17)
H6A H 0.0003 -0.2275 -0.0988
N3B N 0.51922(18) 0.6821(3) -0.05736(17)
N3A N 0.01922(18) -0.1821(3) 0.44264(17)
H7B H 0.4683 0.7507 -0.0270
H7A H -0.0317 -0.2507 0.4730
O1A O 0.38187(15) -0.1713(3) 0.24603(14)
O1_2 O 0.11813(15) -0.6713(3) 0.25397(14)
O2A O 0.25452(16) -0.2657(3) 0.34181(14)
O3A O 0.33996(15) -0.0565(3) 0.01148(14)
O3_2 O 0.16004(15) -0.5565(3) 0.48852(14)
O4A O 0.20585(16) -0.1752(3) -0.14463(14)
O5A O -0.11205(16) -0.4924(3) 0.26913(17)
H8A H -0.1509 -0.4421 0.3085
H9A H -0.135(3) -0.598(5) 0.233(3)
loop_
_geom_bond_atom_site_label_1
_geom_bond_atom_site_label_2
_geom_bond_site_symmetry_1
_geom_bond_site_symmetry_2
C1 C2 1_555 1_555
C2 C4 1_555 1_555
C3 H1 1_555 1_555
C4 C5 1_555 1_555
C5 O3 1_555 1_555
C6 H2 1_555 1_555
H3 C6 1_555 1_555
C7 C6 1_555 1_555
H4 C7 1_555 1_555
H5 C7 1_555 1_555
Mn1 N1 1_555 1_555
N1 C2 1_555 1_555
N2 C3 1_555 1_555
H6 N2 1_555 1_555
N3 C6 1_555 1_555
H7 N3 1_555 1_555
O1 C1 1_555 1_555
O2 C1 1_555 1_555
O3 Mn1A_2 1_555 1_555
O4 C5 1_555 1_555
O5 Mn1 1_555 1_555
H8 O5 1_555 1_555
H9 O5 1_555 1_555
C1A C2A 1_555 1_555
C2A C4A 1_555 1_555
C3A H1A 1_555 1_555
C4A C5A 1_555 1_555
C5A O3A 1_555 1_555
C6B H2B 1_555 1_555
H3B C6B 1_555 1_555
C7B N3 1_555 1_555
H4B C7B 1_555 1_555
H5B C7B 1_555 1_555
Mn1A N1A 1_555 1_555
Mn1A_2 O1 1_555 1_555
Mn1B N3B 1_555 1_555
N1A C2A 1_555 1_555
N2A C3A 1_555 1_555
H6A N2A 1_555 1_555
N3B C7 1_555 1_555
N3A Mn1A 1_555 1_555
H7B N3B 1_555 1_555
H7A N3A 1_555 1_555
O1A Mn1 1_555 1_555
O1_2 Mn1A 1_555 1_555
O2A C1A 1_555 1_555
O3A Mn1 1_555 1_555
O3_2 Mn1A 1_555 1_555
O4A C5A 1_555 1_555
O5A Mn1A 1_555 1_555
H8A O5A 1_555 1_555
H9A O5A 1_555 1_555
C3 N1 1_555 1_555
C4 N2 1_555 1_555
Mn1 N3 1_555 1_555
Mn1 O2 1_555 1_555
C1A O1A 1_555 1_555
C3A N1A 1_555 1_555
C4A N2A 1_555 1_555
C6B C7B 1_555 1_555
C6B N3B 1_555 1_555
Mn1A O2A 1_555 1_555

#END
