
#######################################################################
#
#                 Cambridge Crystallographic Data Centre
#                                CCDC 
#
#######################################################################
#
# If this CIF has been generated from an entry in the Cambridge 
# Structural Database, then it will include bibliographic, chemical, 
# crystal, experimental, refinement or atomic coordinate data resulting 
# from the CCDC's data processing and validation procedures.
#
#######################################################################

data_TIWPOG
_symmetry_cell_setting           monoclinic
_symmetry_space_group_name_H-M   'P 2/c'
_symmetry_Int_Tables_number      13
_space_group_name_Hall           '-P 2yc'
loop_
_symmetry_equiv_pos_site_id
_symmetry_equiv_pos_as_xyz
1 x,y,z
2 -x,y,1/2-z
3 -x,-y,-z
4 x,-y,1/2+z
_cell_length_a                   15.1476(16)
_cell_length_b                   9.9236(10)
_cell_length_c                   14.1593(15)
_cell_angle_alpha                90
_cell_angle_beta                 102.873(2)
_cell_angle_gamma                90
_cell_volume                     2074.91
loop_
_atom_site_label
_atom_site_type_symbol
_atom_site_fract_x
_atom_site_fract_y
_atom_site_fract_z
Sc1 Sc 0.72488(6) 0.22484(11) 0.01091(7)
S1 S 0.64904(9) 0.69588(14) -0.29105(10)
S2 S 0.75871(9) 0.17394(14) -0.22132(10)
N1 N 0.8791(3) 0.1733(5) 0.0739(3)
N2 N 0.8111(3) 0.4243(5) 0.0308(3)
O1 O 0.7185(3) 0.7240(4) -0.3483(3)
O2 O 0.5670(3) 0.7663(4) -0.3283(4)
O3 O 0.6898(3) 0.7135(4) -0.1896(3)
O4 O 0.7598(3) 0.1817(5) -0.1184(3)
O5 O 0.8433(3) 0.2176(5) -0.2396(4)
O6 O 0.7303(3) 0.0436(4) -0.2588(3)
O7 O 0.4179(3) 0.1706(4) -0.4389(3)
O8 O 0.3729(2) 0.3769(4) -0.4520(3)
O9 O 0.7141(3) 0.0205(4) 0.0510(3)
H1 H 0.7237 -0.0152 0.1073
H2 H 0.6839 -0.0462 0.0270
C1 C 0.6270(3) 0.5200(5) -0.3072(4)
C2 C 0.6933(4) 0.4282(6) -0.2654(4)
C3 C 0.6752(3) 0.2910(6) -0.2761(4)
C4 C 0.5919(4) 0.2451(6) -0.3283(4)
C5 C 0.5254(3) 0.3384(6) -0.3689(4)
C6 C 0.5429(4) 0.4757(6) -0.3589(4)
C7 C 0.4345(4) 0.2914(6) -0.4225(4)
C8 C 0.7781(4) 0.5471(6) 0.0117(4)
H3 H 0.7178 0.5559 -0.0205
C9 C 0.8281(4) 0.6632(7) 0.0370(5)
C10 C 0.9170(5) 0.6530(7) 0.0832(5)
C11 C 0.9559(4) 0.5266(7) 0.1026(4)
C12 C 0.9005(3) 0.4126(6) 0.0763(4)
C13 C 1.0476(4) 0.5046(7) 0.1496(5)
H4 H 1.0844 0.5787 0.1704
C14 C 1.0833(4) 0.3804(7) 0.1654(5)
H5 H 1.1445 0.3707 0.1943
C15 C 1.0299(4) 0.2652(6) 0.1389(4)
C16 C 0.9367(3) 0.2802(6) 0.0965(4)
C17 C 1.0629(4) 0.1347(7) 0.1537(5)
C18 C 1.0067(4) 0.0292(8) 0.1299(6)
C19 C 0.9152(4) 0.0522(7) 0.0899(5)
H6 H 0.576(3) 0.145(5) -0.335(3)
H7 H 0.498(3) 0.538(5) -0.384(3)
H8 H 1.026(4) -0.050(6) 0.137(4)
H9 H 0.881(5) -0.019(7) 0.079(5)
H10 H 1.111(4) 0.111(6) 0.177(4)
H11 H 0.807(4) 0.756(6) 0.032(4)
H12 H 0.950(4) 0.738(7) 0.101(5)
H13 H 0.753(4) 0.453(6) -0.230(4)
Sc1A Sc 0.27512(6) 0.22484(11) -0.51091(7)
Sc1C Sc 0.72488(6) 0.77516(11) -0.48909(7)
O1C O 0.7185(3) 0.2760(4) 0.1517(3)
O7A O 0.5821(3) 0.1706(4) -0.0611(3)
O8A O 0.6271(2) 0.3769(4) -0.0480(3)
O10 O 0.6087(3) 0.8405(5) 0.9478(3)
H14 H 0.6340 0.8489 0.9013
H15 H 0.5618 0.8720 0.9216
loop_
_geom_bond_atom_site_label_1
_geom_bond_atom_site_label_2
_geom_bond_site_symmetry_1
_geom_bond_site_symmetry_2
Sc1 N1 1_555 1_555
S1 O1 1_555 1_555
S2 O4 1_555 1_555
N1 C16 1_555 1_555
N2 Sc1 1_555 1_555
O1 Sc1C 1_555 1_555
O2 S1 1_555 1_555
O3 S1 1_555 1_555
O4 Sc1 1_555 1_555
O5 S2 1_555 1_555
O6 S2 1_555 1_555
O7 C7 1_555 1_555
O8 C7 1_555 1_555
O9 Sc1 1_555 1_555
H1 O9 1_555 1_555
H2 O9 1_555 1_555
C1 S1 1_555 1_555
C2 C1 1_555 1_555
C3 S2 1_555 1_555
C4 C3 1_555 1_555
C5 C4 1_555 1_555
C6 C1 1_555 1_555
C7 C5 1_555 1_555
C8 N2 1_555 1_555
H3 C8 1_555 1_555
C9 C8 1_555 1_555
C10 C9 1_555 1_555
C11 C10 1_555 1_555
C12 N2 1_555 1_555
C13 C11 1_555 1_555
H4 C13 1_555 1_555
C14 C13 1_555 1_555
H5 C14 1_555 1_555
C15 C14 1_555 1_555
C16 C12 1_555 1_555
C17 C15 1_555 1_555
C18 C17 1_555 1_555
C19 N1 1_555 1_555
H6 C4 1_555 1_555
H7 C6 1_555 1_555
H8 C18 1_555 1_555
H9 C19 1_555 1_555
H10 C17 1_555 1_555
H11 C9 1_555 1_555
H12 C10 1_555 1_555
H13 C2 1_555 1_555
O10 H14 1_555 1_555
H15 O10 1_555 1_555
Sc1A O7 1_555 1_555
O1C Sc1 1_555 1_555
O7A Sc1 1_555 1_555
O8A Sc1 1_555 1_555
O8 Sc1A 1_555 1_555
C2 C3 1_555 1_555
C5 C6 1_555 1_555
C11 C12 1_555 1_555
C15 C16 1_555 1_555
C18 C19 1_555 1_555

#END
