
#######################################################################
#
#                 Cambridge Crystallographic Data Centre
#                                CCDC 
#
#######################################################################
#
# If this CIF has been generated from an entry in the Cambridge 
# Structural Database, then it will include bibliographic, chemical, 
# crystal, experimental, refinement or atomic coordinate data resulting 
# from the CCDC's data processing and validation procedures.
#
#######################################################################

data_TIWPAS
_symmetry_cell_setting           triclinic
_symmetry_space_group_name_H-M   'P -1'
_symmetry_Int_Tables_number      2
_space_group_name_Hall           '-P 1'
loop_
_symmetry_equiv_pos_site_id
_symmetry_equiv_pos_as_xyz
1 x,y,z
2 -x,-y,-z
_cell_length_a                   7.7832(2)
_cell_length_b                   9.7208(2)
_cell_length_c                   11.6659(3)
_cell_angle_alpha                65.8740(10)
_cell_angle_beta                 80.7430(10)
_cell_angle_gamma                84.4430(10)
_cell_volume                     794.567
loop_
_atom_site_label
_atom_site_type_symbol
_atom_site_fract_x
_atom_site_fract_y
_atom_site_fract_z
C1 C 0.1371(4) 0.6183(4) 0.5774(3)
C2 C 0.2387(5) 0.5038(4) 0.5327(3)
C3 C 0.2596(5) 0.5290(4) 0.4051(3)
H1 H 0.2105 0.6155 0.3473
C4 C 0.3534(5) 0.4253(4) 0.3645(3)
C5 C 0.4224(5) 0.2931(4) 0.4485(3)
H2 H 0.4822 0.2222 0.4210
C6 C 0.3993(5) 0.2696(4) 0.5766(3)
C7 C 0.3111(5) 0.3738(4) 0.6188(3)
H3 H 0.3004 0.3572 0.7040
O1 O 0.2072(3) 0.4989(3) 0.1638(2)
O2 O 0.4918(4) 0.5953(3) 0.1383(3)
O3 O 0.4634(3) 0.3303(3) 0.1855(2)
O4 O 0.3883(3) 0.0710(3) 0.8078(2)
O5 O 0.6666(3) 0.1189(3) 0.6836(3)
O6 O 0.4625(4) -0.0158(3) 0.6371(3)
O7 O 0.0601(3) 0.7246(3) 0.4967(2)
O8 O 0.1358(4) 0.5975(3) 0.6901(2)
O9 O 0.1382(3) 0.1754(3) 0.2435(2)
H4 H 0.2309 0.1851 0.2384
O10 O -0.1526(3) 0.0146(3) 0.4676(2)
H5 H -0.2528 0.0250 0.4421
O11 O -0.3085(5) 0.1427(4) -0.0576(3)
H6 H -0.3248 0.0789 -0.0835
H7 H -0.3800 0.2326 -0.0808
O12 O -0.0362(4) -0.0875(3) 0.2530(3)
H8 H -0.0351 -0.1689 0.2591
O13 O -0.1822(3) 0.2336(3) 0.1397(2)
H9 H -0.2754 0.2591 0.1592
O14 O -0.1257(3) 0.5790(3) 0.0361(2)
H10 H -0.2272 0.5871 0.0466
O15 O -0.0778(4) -0.1206(3) 0.0236(3)
H11 H -0.1218 -0.1959 0.0505
S1 S 0.38417(11) 0.46397(10) 0.20011(8)
S2 S 0.48336(11) 0.09710(10) 0.68319(8)
Sc1 Sc -0.00116(9) 0.37336(8) 0.14810(6)
Sc2 Sc 0.07729(8) -0.03842(8) 0.38029(6)
Sc3 Sc -0.14801(9) 0.04515(9) 0.09335(7)
O4A O -0.3883(3) -0.0710(3) 0.1922(2)
O5A O 0.3334(3) -0.1189(3) 0.3164(3)
O7_2 O 0.0601(3) -0.2754(3) 0.4967(2)
O8A O -0.1358(4) 0.4025(3) 0.3099(2)
O10A O 0.1526(3) -0.0146(3) 0.5324(2)
O14A O 0.1257(3) 0.4210(3) -0.0361(2)
O15A O 0.0778(4) 0.1206(3) -0.0236(3)
Sc1A Sc 0.00116(9) 0.62664(8) -0.14810(6)
Sc1A_2 Sc 0.00116(9) 0.62664(8) 0.85190(6)
Sc2_2 Sc 0.07729(8) 0.96158(8) 0.38029(6)
Sc2A Sc -0.07729(8) 0.03842(8) 0.61971(6)
Sc2A_2 Sc 0.92271(8) 0.03842(8) 0.61971(6)
Sc3A Sc 0.14801(9) -0.04515(9) -0.09335(7)
Sc3A_2 Sc 0.14801(9) -0.04515(9) 0.90665(7)
loop_
_geom_bond_atom_site_label_1
_geom_bond_atom_site_label_2
_geom_bond_site_symmetry_1
_geom_bond_site_symmetry_2
C1 C2 1_555 1_555
C2 C3 1_555 1_555
C3 H1 1_555 1_555
C4 C3 1_555 1_555
C5 C4 1_555 1_555
H2 C5 1_555 1_555
C6 C5 1_555 1_555
C7 C2 1_555 1_555
H3 C7 1_555 1_555
O1 S1 1_555 1_555
O2 S1 1_555 1_555
O3 S1 1_555 1_555
O4 S2 1_555 1_555
O5 S2 1_555 1_555
O6 S2 1_555 1_555
O7 C1 1_555 1_555
O8 C1 1_555 1_555
O9 H4 1_555 1_555
O10 H5 1_555 1_555
O11 H6 1_555 1_555
H7 O11 1_555 1_555
O12 H8 1_555 1_555
O13 H9 1_555 1_555
O14 H10 1_555 1_555
O15 H11 1_555 1_555
S1 C4 1_555 1_555
S2 C6 1_555 1_555
Sc1 O1 1_555 1_555
Sc2 O9 1_555 1_555
Sc3 O11 1_555 1_555
O4A Sc3 1_555 1_555
O5A Sc2 1_555 1_555
O7_2 Sc2 1_555 1_555
O8A Sc1 1_555 1_555
O10A Sc2 1_555 1_555
O14A Sc1 1_555 1_555
O15A Sc3 1_555 1_555
Sc1A O14 1_555 1_555
Sc1A_2 O8 1_555 1_555
Sc2_2 O7 1_555 1_555
Sc2A O10 1_555 1_555
Sc2A_2 O5 1_555 1_555
Sc3A O15 1_555 1_555
Sc3A_2 O4 1_555 1_555
C6 C7 1_555 1_555
O9 Sc1 1_555 1_555
O10 Sc2 1_555 1_555
O12 Sc2 1_555 1_555
O12 Sc3 1_555 1_555
O13 Sc1 1_555 1_555
O13 Sc3 1_555 1_555
O14 Sc1 1_555 1_555
O15 Sc3 1_555 1_555
O10A Sc2A 1_555 1_555
O14A Sc1A 1_555 1_555
O15A Sc3A 1_555 1_555

#END
