
#######################################################################
#
#                 Cambridge Crystallographic Data Centre
#                                CCDC 
#
#######################################################################
#
# If this CIF has been generated from an entry in the Cambridge 
# Structural Database, then it will include bibliographic, chemical, 
# crystal, experimental, refinement or atomic coordinate data resulting 
# from the CCDC's data processing and validation procedures.
#
#######################################################################

data_TIWPEW
_symmetry_cell_setting           triclinic
_symmetry_space_group_name_H-M   'P -1'
_symmetry_Int_Tables_number      2
_space_group_name_Hall           '-P 1'
loop_
_symmetry_equiv_pos_site_id
_symmetry_equiv_pos_as_xyz
1 x,y,z
2 -x,-y,-z
_cell_length_a                   7.5148(12)
_cell_length_b                   9.5270(15)
_cell_length_c                   10.2296(16)
_cell_angle_alpha                69.198(2)
_cell_angle_beta                 85.365(3)
_cell_angle_gamma                82.458(3)
_cell_volume                     678.247
loop_
_atom_site_label
_atom_site_type_symbol
_atom_site_fract_x
_atom_site_fract_y
_atom_site_fract_z
H1 H 0.762(6) 0.161(5) -0.038(4)
H2 H 0.722(5) 0.060(4) 0.303(4)
Sc1 Sc 0.5000 0.0000 0.5000
Sc2 Sc 0.60086(8) 0.30097(7) 0.14369(6)
S1 S 0.81503(11) 0.07533(9) 0.69165(8)
S2 S 0.94067(11) 0.48909(10) 0.18804(8)
O1 O 0.5205(3) 0.6121(3) 0.7056(2)
O2 O 0.6375(4) 0.0991(3) 0.3093(2)
O3 O 0.8367(3) 0.3939(3) 0.1448(3)
C1 C 0.6042(4) 0.6515(4) 0.5894(3)
O4 O 0.7789(4) 0.2144(3) 0.0059(3)
H3 H 0.8767 0.2463 -0.0016
O5 O 0.6115(3) 0.7855(3) 0.5084(2)
O6 O 0.7218(3) 0.0063(3) 0.6138(2)
O7 O 0.7178(4) 0.0667(3) 0.8227(2)
C2 C 0.8662(4) 0.4522(4) 0.3635(3)
O8 O 0.8938(4) 0.6478(3) 0.1118(3)
H4 H 0.3639 0.1240 0.1042
O9 O 0.3995(3) 0.2126(3) 0.0693(3)
H5 H 0.3291 0.2824 0.0228
C3 C 0.7033(4) 0.5297(4) 0.5423(3)
C4 C 0.8823(4) 0.3036(4) 0.4531(3)
H6 H 0.9451 0.2282 0.4242
O10 O 1.1282(3) 0.4404(3) 0.1862(3)
C5 C 0.8038(4) 0.2683(4) 0.5863(3)
C6 C 0.7130(4) 0.3798(4) 0.6319(3)
H7 H 0.6593 0.3549 0.7212
O11 O 1.0000(3) 0.0177(3) 0.7061(3)
C7 C 0.7784(4) 0.5675(4) 0.4071(3)
H8 H 0.7702 0.6675 0.3469
O12 O 0.55(4) 0.50(4) -0.02(4)
O12A O 0.45(4) 0.50(4) 0.02(4)
H1A H 0.238(6) -0.161(5) 1.038(4)
H2A H 0.278(5) -0.060(4) 0.697(4)
Sc2A Sc 0.39914(8) -0.30097(7) 0.85631(6)
S1A S 0.18497(11) -0.07533(9) 0.30835(8)
S2A S 0.05933(11) -0.48909(10) 0.81196(8)
O1A O 0.4795(3) -0.6121(3) 0.2944(2)
O2A O 0.3625(4) -0.0991(3) 0.6907(2)
O3A O 0.1633(3) -0.3939(3) 0.8552(3)
C1A C 0.3958(4) -0.6515(4) 0.4106(3)
O4A O 0.2211(4) -0.2144(3) 0.9941(3)
H3A H 0.1233 -0.2463 1.0016
O5A O 0.3885(3) -0.7855(3) 0.4916(2)
O6A O 0.2782(3) -0.0063(3) 0.3862(2)
O7A O 0.2822(4) -0.0667(3) 0.1773(2)
C2A C 0.1338(4) -0.4522(4) 0.6365(3)
O8A O 0.1062(4) -0.6478(3) 0.8882(3)
H4A H 0.6361 -0.1240 0.8958
O9A O 0.6005(3) -0.2126(3) 0.9307(3)
H5A H 0.6709 -0.2824 0.9772
C3A C 0.2967(4) -0.5297(4) 0.4577(3)
C4A C 0.1177(4) -0.3036(4) 0.5469(3)
H6A H 0.0549 -0.2282 0.5758
O10A O -0.1282(3) -0.4404(3) 0.8138(3)
C5A C 0.1962(4) -0.2683(4) 0.4137(3)
C6A C 0.2870(4) -0.3798(4) 0.3681(3)
H7A H 0.3407 -0.3549 0.2788
O11A O 0.0000(3) -0.0177(3) 0.2939(3)
C7A C 0.2216(4) -0.5675(4) 0.5929(3)
H8A H 0.2298 -0.6675 0.6531
Sc1_2 Sc 0.5000 -1.0000 0.5000
Sc1_3 Sc 0.5000 1.0000 0.5000
Sc2_2 Sc 0.60086(8) -0.69903(7) 0.14369(6)
Sc2A_2 Sc 0.39914(8) 0.69903(7) -0.14369(6)
Sc2A_3 Sc 0.39914(8) 0.69903(7) 0.85631(6)
O1_2 O 0.5205(3) -0.3879(3) 0.7056(2)
O1A_2 O 0.4795(3) 0.3879(3) 0.2944(2)
O5_2 O 0.6115(3) -0.2145(3) 0.5084(2)
O5A_2 O 0.3885(3) 0.2145(3) 0.4916(2)
O12_2 O 0.55(4) -0.50(4) 0.98(4)
O12A_2 O 0.45(4) -0.50(4) 1.02(4)
loop_
_geom_bond_atom_site_label_1
_geom_bond_atom_site_label_2
_geom_bond_site_symmetry_1
_geom_bond_site_symmetry_2
H1 O4 1_555 1_555
H2 O2 1_555 1_555
Sc1 O2 1_555 1_555
Sc2 O2 1_555 1_555
S1 O6 1_555 1_555
S2 O3 1_555 1_555
O1 C1 1_555 1_555
O3 Sc2 1_555 1_555
C1 O5 1_555 1_555
O4 Sc2 1_555 1_555
H3 O4 1_555 1_555
O5 Sc1_3 1_555 1_555
O6 Sc1 1_555 1_555
O7 S1 1_555 1_555
C2 S2 1_555 1_555
O8 S2 1_555 1_555
H4 O9 1_555 1_555
O9 Sc2 1_555 1_555
H5 O9 1_555 1_555
C3 C1 1_555 1_555
C4 C2 1_555 1_555
H6 C4 1_555 1_555
O10 S2 1_555 1_555
C5 S1 1_555 1_555
C6 C3 1_555 1_555
H7 C6 1_555 1_555
O11 S1 1_555 1_555
C7 C2 1_555 1_555
H8 C7 1_555 1_555
O12 Sc2 1_555 1_555
O12A Sc2 1_555 1_555
H1A O4A 1_555 1_555
H2A O2A 1_555 1_555
Sc2A O2A 1_555 1_555
S1A O6A 1_555 1_555
S2A O3A 1_555 1_555
O1A C1A 1_555 1_555
O2A Sc1 1_555 1_555
O3A Sc2A 1_555 1_555
C1A O5A 1_555 1_555
O4A Sc2A 1_555 1_555
H3A O4A 1_555 1_555
O5A Sc1_2 1_555 1_555
O6A Sc1 1_555 1_555
O7A S1A 1_555 1_555
C2A S2A 1_555 1_555
O8A S2A 1_555 1_555
H4A O9A 1_555 1_555
O9A Sc2A 1_555 1_555
H5A O9A 1_555 1_555
C3A C1A 1_555 1_555
C4A C2A 1_555 1_555
H6A C4A 1_555 1_555
O10A S2A 1_555 1_555
C5A S1A 1_555 1_555
C6A C3A 1_555 1_555
H7A C6A 1_555 1_555
O11A S1A 1_555 1_555
C7A C2A 1_555 1_555
H8A C7A 1_555 1_555
Sc2_2 O1A 1_555 1_555
Sc2A_2 O12 1_555 1_555
Sc2A_3 O1 1_555 1_555
O1_2 Sc2A 1_555 1_555
O1A_2 Sc2 1_555 1_555
O5_2 Sc1 1_555 1_555
O5A_2 Sc1 1_555 1_555
O12_2 Sc2A 1_555 1_555
O12A_2 Sc2A 1_555 1_555
C3 C7 1_555 1_555
C4 C5 1_555 1_555
C5 C6 1_555 1_555
O12 O12A 1_555 1_555
O12A Sc2A_2 1_555 1_555
C3A C7A 1_555 1_555
C4A C5A 1_555 1_555
C5A C6A 1_555 1_555
O12_2 O12A_2 1_555 1_555

#END
