
#######################################################################
#
#                 Cambridge Crystallographic Data Centre
#                                CCDC 
#
#######################################################################
#
# If this CIF has been generated from an entry in the Cambridge 
# Structural Database, then it will include bibliographic, chemical, 
# crystal, experimental, refinement or atomic coordinate data resulting 
# from the CCDC's data processing and validation procedures.
#
#######################################################################

data_TIWREX
_symmetry_cell_setting           triclinic
_symmetry_space_group_name_H-M   'P -1'
_symmetry_Int_Tables_number      2
_space_group_name_Hall           '-P 1'
loop_
_symmetry_equiv_pos_site_id
_symmetry_equiv_pos_as_xyz
1 x,y,z
2 -x,-y,-z
_cell_length_a                   6.3707(16)
_cell_length_b                   7.4332(18)
_cell_length_c                   9.176(2)
_cell_angle_alpha                96.591(4)
_cell_angle_beta                 107.950(4)
_cell_angle_gamma                92.212(4)
_cell_volume                     409.384
loop_
_atom_site_label
_atom_site_type_symbol
_atom_site_fract_x
_atom_site_fract_y
_atom_site_fract_z
C1 C 0.3635(5) 0.7300(4) 0.7281(3)
C2 C 0.4343(5) 0.8711(4) 0.8694(3)
C3 C 0.2779(5) 0.9572(5) 0.9226(4)
H1 H 0.1280 0.9281 0.8710
C4 C 0.6561(5) 0.9140(5) 0.9481(4)
H2 H 0.7619 0.8556 0.9137
C5 C 0.1199(10) 0.6256(8) 0.1838(5)
H3 H -0.0216 0.6734 0.1450
H4 H 0.1068 0.4973 0.1502
H5 H 0.2249 0.6846 0.1454
Cu1 Cu 0.5000 0.5000 0.5000
Cu2 Cu 0.0000 0.5000 0.5000
N1 N 0.2591(4) 0.3492(3) 0.5382(3)
N2 N 0.2397(5) 0.1883(4) 0.4959(3)
N3 N 0.2220(7) 0.0356(5) 0.4572(6)
O1 O 0.5133(4) 0.6765(3) 0.6767(2)
O2 O 0.1617(4) 0.6812(3) 0.6742(2)
O3 O 0.1928(4) 0.6571(3) 0.3471(3)
H6 H 0.1985 0.7663 0.3758
C1A C 0.6365(5) 1.2700(4) 1.2719(3)
C2A C 0.5657(5) 1.1289(4) 1.1306(3)
C3A C 0.7221(5) 1.0428(5) 1.0774(4)
H1A H 0.8720 1.0719 1.1290
C4A C 0.3439(5) 1.0860(5) 1.0519(4)
H2A H 0.2381 1.1444 1.0863
C5A C 0.8801(10) 0.3744(8) 0.8162(5)
H3A H 1.0216 0.3266 0.8550
H4A H 0.8932 0.5027 0.8498
H5A H 0.7751 0.3154 0.8546
Cu1_2 Cu 0.5000 1.5000 1.5000
Cu2_2 Cu 1.0000 1.5000 1.5000
Cu2_3 Cu 1.0000 0.5000 0.5000
N1A N 0.7409(4) 0.6508(3) 0.4618(3)
N1A_2 N -0.2591(4) 0.6508(3) 0.4618(3)
N2A N 0.7603(5) 0.8117(4) 0.5041(3)
N3A N 0.7780(7) 0.9644(5) 0.5428(6)
O1A O 0.4867(4) 1.3235(3) 1.3233(2)
O1A_2 O 0.4867(4) 0.3235(3) 0.3233(2)
O2A O 0.8383(4) 1.3188(3) 1.3258(2)
O2A_2 O -0.1617(4) 0.3188(3) 0.3258(2)
O3A O 0.8072(4) 0.3429(3) 0.6529(3)
O3A_2 O -0.1928(4) 0.3429(3) 0.6529(3)
H6A H 0.8015 0.2337 0.6242
H6A_2 H -0.1985 0.2337 0.6242
loop_
_geom_bond_atom_site_label_1
_geom_bond_atom_site_label_2
_geom_bond_site_symmetry_1
_geom_bond_site_symmetry_2
C1 C2 1_555 1_555
C2 C3 1_555 1_555
C3 H1 1_555 1_555
C4 C2 1_555 1_555
H2 C4 1_555 1_555
C5 H3 1_555 1_555
H4 C5 1_555 1_555
H5 C5 1_555 1_555
Cu1 N1 1_555 1_555
Cu2 N1 1_555 1_555
N1 N2 1_555 1_555
N2 N3 1_555 1_555
O1 C1 1_555 1_555
O2 C1 1_555 1_555
O3 C5 1_555 1_555
H6 O3 1_555 1_555
C1A C2A 1_555 1_555
C2A C3A 1_555 1_555
C3A C4 1_555 1_555
H1A C3A 1_555 1_555
C4A C3 1_555 1_555
H2A C4A 1_555 1_555
C5A H3A 1_555 1_555
H4A C5A 1_555 1_555
H5A C5A 1_555 1_555
Cu1_2 O1A 1_555 1_555
Cu2_2 O2A 1_555 1_555
Cu2_3 N1A 1_555 1_555
N1A Cu1 1_555 1_555
N1A_2 Cu2 1_555 1_555
N2A N1A 1_555 1_555
N3A N2A 1_555 1_555
O1A C1A 1_555 1_555
O1A_2 Cu1 1_555 1_555
O2A C1A 1_555 1_555
O2A_2 Cu2 1_555 1_555
O3A Cu1 1_555 1_555
O3A_2 Cu2 1_555 1_555
H6A O3A 1_555 1_555
H6A_2 O3A_2 1_555 1_555
Cu1 O1 1_555 1_555
Cu1 O3 1_555 1_555
Cu2 O2 1_555 1_555
Cu2 O3 1_555 1_555
C2A C4A 1_555 1_555
C5A O3A 1_555 1_555
Cu2_3 O3A 1_555 1_555

#END
