
#######################################################################
#
#                 Cambridge Crystallographic Data Centre
#                                CCDC 
#
#######################################################################
#
# If this CIF has been generated from an entry in the Cambridge 
# Structural Database, then it will include bibliographic, chemical, 
# crystal, experimental, refinement or atomic coordinate data resulting 
# from the CCDC's data processing and validation procedures.
#
#######################################################################

data_TIWSUO
_symmetry_cell_setting           orthorhombic
_symmetry_space_group_name_H-M   'P b c a'
_symmetry_Int_Tables_number      61
_space_group_name_Hall           '-P 2ac 2ab'
loop_
_symmetry_equiv_pos_site_id
_symmetry_equiv_pos_as_xyz
1 x,y,z
2 1/2-x,-y,1/2+z
3 1/2+x,1/2-y,-z
4 -x,1/2+y,1/2-z
5 -x,-y,-z
6 1/2+x,y,1/2-z
7 1/2-x,1/2+y,z
8 x,1/2-y,1/2+z
_cell_length_a                   7.3883(13)
_cell_length_b                   15.627(3)
_cell_length_c                   15.832(3)
_cell_angle_alpha                90
_cell_angle_beta                 90
_cell_angle_gamma                90
_cell_volume                     1827.91
loop_
_atom_site_label
_atom_site_type_symbol
_atom_site_fract_x
_atom_site_fract_y
_atom_site_fract_z
Cd1 Cd 0.18613(6) 0.25490(3) -0.50161(3)
Cl1 Cl -0.05450(19) 0.13192(9) -0.49195(9)
Cl2 Cl -0.0731(2) 0.35774(10) -0.45705(9)
P1 P 0.4318(2) 0.20739(10) -0.31405(9)
N1 N 0.3667(7) 0.0771(4) -0.2000(3)
O1 O 0.4558(5) 0.2538(3) -0.2273(2)
O2 O 0.2595(5) 0.2405(3) -0.3548(2)
O3 O 0.6003(5) 0.2056(3) -0.3650(2)
C1 C 0.3776(8) 0.0979(4) -0.2834(4)
C2 C 0.3391(8) 0.0336(4) -0.3401(4)
H1 H 0.3466 0.0447 -0.3983
C3 C 0.2896(9) -0.0472(4) -0.3127(4)
H2 H 0.2629 -0.0901 -0.3523
C4 C 0.2792(9) -0.0649(4) -0.2272(4)
H3 H 0.2441 -0.1193 -0.2079
C5 C 0.3215(9) -0.0010(4) -0.1718(4)
H4 H 0.3190 -0.0119 -0.1135
H5 H 0.400(11) 0.112(6) -0.163(5)
Cd1B Cd -0.31387(6) 0.24510(3) -0.49839(3)
Cd1B_2 Cd 0.68613(6) 0.24510(3) -0.49839(3)
Cl1B Cl 0.44550(19) 0.36808(9) -0.50805(9)
Cl2B Cl 0.4269(2) 0.14226(10) -0.54295(9)
O3B O 0.1003(5) 0.2944(3) -0.6350(2)
loop_
_geom_bond_atom_site_label_1
_geom_bond_atom_site_label_2
_geom_bond_site_symmetry_1
_geom_bond_site_symmetry_2
Cd1 Cl1 1_555 1_555
Cl1 Cd1B 1_555 1_555
Cl2 Cd1 1_555 1_555
P1 O1 1_555 1_555
N1 C1 1_555 1_555
O2 Cd1 1_555 1_555
O3 P1 1_555 1_555
C1 P1 1_555 1_555
C2 C1 1_555 1_555
H1 C2 1_555 1_555
C3 C2 1_555 1_555
H2 C3 1_555 1_555
C4 C3 1_555 1_555
H3 C4 1_555 1_555
C5 N1 1_555 1_555
H4 C5 1_555 1_555
H5 N1 1_555 1_555
Cd1B Cl2 1_555 1_555
Cd1B_2 O3 1_555 1_555
Cl1B Cd1 1_555 1_555
Cl2B Cd1 1_555 1_555
O3B Cd1 1_555 1_555
P1 O2 1_555 1_555
C4 C5 1_555 1_555
Cd1B_2 Cl1B 1_555 1_555
Cd1B_2 Cl2B 1_555 1_555

#END
