
#######################################################################
#
#                 Cambridge Crystallographic Data Centre
#                                CCDC 
#
#######################################################################
#
# If this CIF has been generated from an entry in the Cambridge 
# Structural Database, then it will include bibliographic, chemical, 
# crystal, experimental, refinement or atomic coordinate data resulting 
# from the CCDC's data processing and validation procedures.
#
#######################################################################

data_TIWTEZ
_symmetry_cell_setting           triclinic
_symmetry_space_group_name_H-M   'P -1'
_symmetry_Int_Tables_number      2
_space_group_name_Hall           '-P 1'
loop_
_symmetry_equiv_pos_site_id
_symmetry_equiv_pos_as_xyz
1 x,y,z
2 -x,-y,-z
_cell_length_a                   9.1388(8)
_cell_length_b                   9.5668(8)
_cell_length_c                   12.2093(11)
_cell_angle_alpha                93.112(2)
_cell_angle_beta                 106.4150(10)
_cell_angle_gamma                117.7150(10)
_cell_volume                     884.521
loop_
_atom_site_label
_atom_site_type_symbol
_atom_site_fract_x
_atom_site_fract_y
_atom_site_fract_z
Ag1 Ag -0.66152(4) -0.50211(4) -0.49117(3)
Ag2 Ag -0.66530(5) -0.16098(4) -0.53978(4)
Ag3 Ag 0.04013(6) -0.13682(5) -0.48497(4)
S1 S -0.92092(13) -0.46988(12) -0.33448(9)
S2 S 0.42022(16) 0.10356(14) -0.23652(10)
P1 P -0.28235(13) -0.15034(11) -0.39120(9)
N1 N -0.3147(5) -0.0927(5) -0.1798(3)
O1 O -0.4827(4) -0.2406(3) -0.4447(3)
O2 O -0.1965(4) 0.0269(3) -0.3959(3)
O3 O -0.8691(5) -0.5758(4) -0.3793(3)
O4 O -0.8384(5) -0.3089(4) -0.3541(3)
O5 O -0.1988(4) -0.2383(3) -0.4304(3)
O6 O -1.1080(4) -0.5441(4) -0.3571(3)
O7 O 0.2486(5) 0.0756(5) -0.3017(4)
O8 O 0.5041(5) 0.0580(4) -0.3049(3)
O9 O 0.4401(7) 0.0556(5) -0.1269(4)
F1 F -0.8984(6) -0.5848(5) -0.1464(3)
F2 F -0.8642(6) -0.3473(6) -0.1206(3)
F3 F -0.6573(5) -0.3812(5) -0.1409(3)
F4 F 0.4992(5) 0.3855(4) -0.1273(3)
F5 F 0.7215(5) 0.3720(5) -0.1389(3)
F6 F 0.5478(5) 0.3887(4) -0.2891(3)
C1 C -0.2423(5) -0.1538(5) -0.2366(4)
C2 C -0.1480(6) -0.2203(6) -0.1749(4)
H1 H -0.0939 -0.2615 -0.2112
C3 C -0.1334(7) -0.2261(6) -0.0590(4)
H2 H -0.0709 -0.2727 -0.0171
C4 C -0.2112(7) -0.1630(6) -0.0056(4)
H3 H -0.2023 -0.1666 0.0727
C5 C -0.3009(7) -0.0952(7) -0.0678(4)
H4 H -0.3529 -0.0505 -0.0322
C6 C -0.8294(7) -0.4438(7) -0.1764(4)
C7 C 0.5538(7) 0.3242(6) -0.1959(4)
H5 H -0.371(8) -0.050(7) -0.219(5)
Ag1A Ag -0.33848(4) -0.49789(4) -0.50883(3)
Ag2A Ag -0.33470(5) 0.16098(4) -0.46022(4)
Ag2A_2 Ag -1.33470(5) -0.83902(4) -0.46022(4)
Ag3A Ag -0.04013(6) 0.13682(5) -0.51503(4)
O2A O 0.1965(4) -0.0269(3) -0.6041(3)
O2A_2 O -0.8035(4) -0.0269(3) -0.6041(3)
O5A O -0.8012(4) -0.7617(3) -0.5696(3)
O6A O -0.8920(4) -0.4559(4) -0.6429(3)
loop_
_geom_bond_atom_site_label_1
_geom_bond_atom_site_label_2
_geom_bond_site_symmetry_1
_geom_bond_site_symmetry_2
Ag1 O1 1_555 1_555
Ag2 O1 1_555 1_555
Ag3 O5 1_555 1_555
S1 O3 1_555 1_555
S2 O7 1_555 1_555
P1 O1 1_555 1_555
N1 C1 1_555 1_555
O2 P1 1_555 1_555
O3 Ag1 1_555 1_555
O4 S1 1_555 1_555
O5 P1 1_555 1_555
O6 S1 1_555 1_555
O7 Ag3 1_555 1_555
O8 S2 1_555 1_555
O9 S2 1_555 1_555
F1 C6 1_555 1_555
F2 C6 1_555 1_555
F3 C6 1_555 1_555
F4 C7 1_555 1_555
F5 C7 1_555 1_555
F6 C7 1_555 1_555
C1 P1 1_555 1_555
C2 C1 1_555 1_555
H1 C2 1_555 1_555
C3 C2 1_555 1_555
H2 C3 1_555 1_555
C4 C3 1_555 1_555
H3 C4 1_555 1_555
C5 N1 1_555 1_555
H4 C5 1_555 1_555
C6 S1 1_555 1_555
C7 S2 1_555 1_555
H5 N1 1_555 1_555
Ag1A O5 1_555 1_555
Ag2A O2 1_555 1_555
Ag2A_2 O6 1_555 1_555
Ag3A O2 1_555 1_555
O2A Ag3 1_555 1_555
O2A_2 Ag2 1_555 1_555
O5A Ag1 1_555 1_555
O6A Ag2 1_555 1_555
C4 C5 1_555 1_555

#END
