
#######################################################################
#
#                 Cambridge Crystallographic Data Centre
#                                CCDC 
#
#######################################################################
#
# If this CIF has been generated from an entry in the Cambridge 
# Structural Database, then it will include bibliographic, chemical, 
# crystal, experimental, refinement or atomic coordinate data resulting 
# from the CCDC's data processing and validation procedures.
#
#######################################################################

data_TIXBOR
_symmetry_cell_setting           monoclinic
_symmetry_space_group_name_H-M   'P 21/c'
_symmetry_Int_Tables_number      14
_space_group_name_Hall           '-P 2ybc'
loop_
_symmetry_equiv_pos_site_id
_symmetry_equiv_pos_as_xyz
1 x,y,z
2 -x,1/2+y,1/2-z
3 -x,-y,-z
4 x,1/2-y,1/2+z
_cell_length_a                   8.490(2)
_cell_length_b                   12.5492(7)
_cell_length_c                   19.442(4)
_cell_angle_alpha                90
_cell_angle_beta                 99.57(1)
_cell_angle_gamma                90
_cell_volume                     2042.58
loop_
_atom_site_label
_atom_site_type_symbol
_atom_site_fract_x
_atom_site_fract_y
_atom_site_fract_z
Sn1 Sn 0.02761(3) 0.15916(2) 0.28855(1)
O1 O -0.0942(3) 0.3051(2) 0.3100(2)
O2 O -0.3328(4) 0.2601(3) 0.2520(2)
O3 O 0.1868(3) 0.0146(2) 0.2666(2)
N1 N -0.2852(4) 0.5151(3) 0.2800(2)
C1 C 0.2191(5) 0.2084(3) 0.3684(2)
C2 C 0.2011(5) 0.2936(4) 0.4109(2)
C3 C 0.3135(6) 0.3169(4) 0.4694(2)
C4 C 0.4482(5) 0.2569(4) 0.4854(2)
C5 C 0.4701(5) 0.1728(4) 0.4442(2)
C6 C 0.3568(5) 0.1468(4) 0.3865(2)
C7 C -0.1227(5) 0.0498(3) 0.3293(2)
C8 C -0.1205(6) 0.0396(4) 0.4003(2)
C9 C -0.2217(6) -0.0302(5) 0.4263(3)
C10 C -0.3256(6) -0.0914(5) 0.3820(3)
C11 C -0.3278(6) -0.0849(4) 0.3113(3)
C12 C -0.2272(5) -0.0152(4) 0.2854(3)
C13 C -0.0251(5) 0.1791(4) 0.1780(2)
C14 C -0.0406(5) 0.0903(4) 0.1350(2)
C15 C -0.0877(6) 0.1022(5) 0.0639(3)
C16 C -0.1190(6) 0.2007(5) 0.0352(3)
C17 C -0.1059(7) 0.2894(5) 0.0771(3)
C18 C -0.0594(6) 0.2788(4) 0.1480(2)
C19 C -0.2408(5) 0.3200(3) 0.2872(2)
C20 C -0.3117(4) 0.4223(3) 0.3111(2)
C21 C -0.4129(5) 0.4206(4) 0.3597(2)
C22 C -0.4859(5) 0.5125(4) 0.3763(2)
C23 C -0.4621(5) 0.6054(4) 0.3419(2)
C24 C -0.3608(5) 0.6044(4) 0.2942(2)
O3A O -0.1868(3) 0.5146(2) 0.2334(2)
Sn1A Sn -0.02761(3) 0.65916(2) 0.21145(1)
loop_
_geom_bond_atom_site_label_1
_geom_bond_atom_site_label_2
_geom_bond_site_symmetry_1
_geom_bond_site_symmetry_2
Sn1 O1 1_555 1_555
O1 C19 1_555 1_555
O2 C19 1_555 1_555
O3 Sn1 1_555 1_555
N1 C20 1_555 1_555
C1 Sn1 1_555 1_555
C2 C1 1_555 1_555
C3 C2 1_555 1_555
C4 C3 1_555 1_555
C5 C4 1_555 1_555
C6 C1 1_555 1_555
C7 Sn1 1_555 1_555
C8 C7 1_555 1_555
C9 C8 1_555 1_555
C10 C9 1_555 1_555
C11 C10 1_555 1_555
C12 C7 1_555 1_555
C13 Sn1 1_555 1_555
C14 C13 1_555 1_555
C15 C14 1_555 1_555
C16 C15 1_555 1_555
C17 C16 1_555 1_555
C18 C13 1_555 1_555
C19 C20 1_555 1_555
C20 C21 1_555 1_555
C21 C22 1_555 1_555
C22 C23 1_555 1_555
C23 C24 1_555 1_555
C24 N1 1_555 1_555
O3A N1 1_555 1_555
Sn1A O3A 1_555 1_555
C5 C6 1_555 1_555
C11 C12 1_555 1_555
C17 C18 1_555 1_555

#END
