
#######################################################################
#
#                 Cambridge Crystallographic Data Centre
#                                CCDC 
#
#######################################################################
#
# If this CIF has been generated from an entry in the Cambridge 
# Structural Database, then it will include bibliographic, chemical, 
# crystal, experimental, refinement or atomic coordinate data resulting 
# from the CCDC's data processing and validation procedures.
#
#######################################################################

data_TIXBUX
_symmetry_cell_setting           monoclinic
_symmetry_space_group_name_H-M   'P 21/c'
_symmetry_Int_Tables_number      14
_space_group_name_Hall           '-P 2ybc'
loop_
_symmetry_equiv_pos_site_id
_symmetry_equiv_pos_as_xyz
1 x,y,z
2 -x,1/2+y,1/2-z
3 -x,-y,-z
4 x,1/2-y,1/2+z
_cell_length_a                   13.784(2)
_cell_length_b                   16.364(1)
_cell_length_c                   18.811(3)
_cell_angle_alpha                90
_cell_angle_beta                 95.935(7)
_cell_angle_gamma                90
_cell_volume                     4220.29
loop_
_atom_site_label
_atom_site_type_symbol
_atom_site_fract_x
_atom_site_fract_y
_atom_site_fract_z
Sn1 Sn 0.51595(4) 0.12961(4) 0.17034(3)
O1 O 0.4279(4) 0.0314(4) 0.2049(3)
O2 O 0.5444(5) -0.0246(4) 0.2811(4)
O3 O 0.3843(5) -0.2664(4) 0.3727(3)
N1 N 0.3545(6) -0.2059(4) 0.3295(4)
C1 C 0.5939(7) 0.0539(5) 0.1042(5)
C2 C 0.6115(9) 0.0802(8) 0.0386(5)
C3 C 0.657(1) 0.0319(8) -0.0073(7)
C4 C 0.6882(9) -0.0429(7) 0.0139(6)
C5 C 0.6716(9) -0.0726(7) 0.0788(7)
C6 C 0.6237(8) -0.0239(6) 0.1228(6)
C7 C 0.5656(7) 0.1729(5) 0.2742(5)
C8 C 0.6529(8) 0.1489(6) 0.3102(5)
C9 C 0.6843(9) 0.1806(7) 0.3769(6)
C10 C 0.629(1) 0.2344(7) 0.4080(6)
C11 C 0.544(1) 0.2597(7) 0.3737(6)
C12 C 0.5126(8) 0.2300(6) 0.3073(5)
C13 C 0.3858(7) 0.1884(5) 0.1243(5)
C14 C 0.2956(7) 0.1697(6) 0.1467(5)
C15 C 0.2110(8) 0.2036(6) 0.1130(6)
C16 C 0.2138(9) 0.2561(7) 0.0585(6)
C17 C 0.3023(9) 0.2766(7) 0.0364(6)
C18 C 0.3879(8) 0.2440(6) 0.0684(5)
C19 C 0.4599(6) -0.0216(5) 0.2511(5)
C20 C 0.3873(6) -0.0856(5) 0.2669(5)
C21 C 0.4151(6) -0.1460(5) 0.3150(5)
C22 C 0.2619(7) -0.2048(6) 0.2984(6)
C23 C 0.2307(7) -0.1461(6) 0.2506(6)
C24 C 0.2943(6) -0.0860(5) 0.2339(5)
O3A O 0.6157(5) 0.2336(4) 0.1273(3)
Sn1A Sn 0.48405(4) -0.37039(4) 0.32966(3)
Sn2 Sn 0.05399(4) 0.13094(4) 0.35045(3)
O4 O 0.1193(4) 0.2375(3) 0.3068(3)
O5 O -0.0286(4) 0.2712(3) 0.2570(3)
O6 O 0.0137(5) 0.5083(3) 0.1062(3)
N2 N 0.0753(5) 0.4599(4) 0.1462(4)
C25 C -0.0213(7) 0.1933(5) 0.4278(4)
C26 C -0.0561(7) 0.1527(6) 0.4840(4)
C27 C -0.1007(8) 0.1918(7) 0.5352(5)
C28 C -0.112(1) 0.2744(7) 0.5337(6)
C29 C -0.077(1) 0.3150(7) 0.4793(7)
C30 C -0.031(1) 0.2765(6) 0.4272(6)
C31 C 0.0035(6) 0.0829(5) 0.2485(4)
C32 C -0.0920(7) 0.0868(6) 0.2185(5)
C33 C -0.1196(8) 0.0481(6) 0.1531(5)
C34 C -0.0530(9) 0.007(7) 0.1191(5)
C35 C 0.0388(9) 0.0039(7) 0.1474(5)
C36 C 0.0690(7) 0.0405(6) 0.2111(5)
C37 C 0.1932(6) 0.0835(5) 0.3878(4)
C38 C 0.2767(7) 0.1094(6) 0.3626(5)
C39 C 0.3674(7) 0.0764(7) 0.3860(5)
C40 C 0.3745(8) 0.0156(7) 0.4361(6)
C41 C 0.2935(9) -0.0117(7) 0.4617(6)
C42 C 0.2033(8) 0.0214(7) 0.4382(6)
C43 C 0.0591(6) 0.2808(5) 0.2657(4)
C44 C 0.1051(6) 0.3487(4) 0.2260(4)
C45 C 0.0413(7) 0.3998(5) 0.1847(4)
C46 C 0.1717(7) 0.4709(5) 0.1450(5)
C47 C 0.2376(7) 0.4226(6) 0.1859(5)
C48 C 0.2033(6) 0.3604(5) 0.2266(4)
O6A O -0.0137(5) 0.0083(3) 0.3938(3)
Sn2A Sn -0.05399(4) 0.63094(4) 0.14955(3)
loop_
_geom_bond_atom_site_label_1
_geom_bond_atom_site_label_2
_geom_bond_site_symmetry_1
_geom_bond_site_symmetry_2
Sn1 O1 1_555 1_555
O1 C19 1_555 1_555
O2 C19 1_555 1_555
O3 N1 1_555 1_555
N1 C21 1_555 1_555
C1 Sn1 1_555 1_555
C2 C1 1_555 1_555
C3 C2 1_555 1_555
C4 C3 1_555 1_555
C5 C4 1_555 1_555
C6 C1 1_555 1_555
C7 Sn1 1_555 1_555
C8 C7 1_555 1_555
C9 C8 1_555 1_555
C10 C9 1_555 1_555
C11 C10 1_555 1_555
C12 C7 1_555 1_555
C13 Sn1 1_555 1_555
C14 C13 1_555 1_555
C15 C14 1_555 1_555
C16 C15 1_555 1_555
C17 C16 1_555 1_555
C18 C13 1_555 1_555
C19 C20 1_555 1_555
C20 C21 1_555 1_555
C22 N1 1_555 1_555
C23 C22 1_555 1_555
C24 C20 1_555 1_555
Sn2 O4 1_555 1_555
O4 C43 1_555 1_555
O5 C43 1_555 1_555
O6 N2 1_555 1_555
N2 C45 1_555 1_555
C25 Sn2 1_555 1_555
C26 C25 1_555 1_555
C27 C26 1_555 1_555
C28 C27 1_555 1_555
C29 C28 1_555 1_555
C30 C25 1_555 1_555
C31 Sn2 1_555 1_555
C32 C31 1_555 1_555
C33 C32 1_555 1_555
C34 C33 1_555 1_555
C35 C34 1_555 1_555
C36 C31 1_555 1_555
C37 Sn2 1_555 1_555
C38 C37 1_555 1_555
C39 C38 1_555 1_555
C40 C39 1_555 1_555
C41 C40 1_555 1_555
C42 C37 1_555 1_555
C43 C44 1_555 1_555
C44 C45 1_555 1_555
C46 N2 1_555 1_555
C47 C46 1_555 1_555
C48 C44 1_555 1_555
O3A Sn1 1_555 1_555
Sn1A O3 1_555 1_555
O6A Sn2 1_555 1_555
Sn2A O6 1_555 1_555
C5 C6 1_555 1_555
C11 C12 1_555 1_555
C17 C18 1_555 1_555
C23 C24 1_555 1_555
C29 C30 1_555 1_555
C35 C36 1_555 1_555
C41 C42 1_555 1_555
C47 C48 1_555 1_555

#END
