
#######################################################################
#
#                 Cambridge Crystallographic Data Centre
#                                CCDC 
#
#######################################################################
#
# If this CIF has been generated from an entry in the Cambridge 
# Structural Database, then it will include bibliographic, chemical, 
# crystal, experimental, refinement or atomic coordinate data resulting 
# from the CCDC's data processing and validation procedures.
#
#######################################################################

data_TIXBUZ
_symmetry_cell_setting           monoclinic
_symmetry_space_group_name_H-M   'C 2/c'
_symmetry_Int_Tables_number      15
_space_group_name_Hall           '-C 2yn'
loop_
_symmetry_equiv_pos_site_id
_symmetry_equiv_pos_as_xyz
1 x,y,z
2 -x,y,1/2-z
3 1/2+x,1/2+y,z
4 1/2-x,1/2+y,1/2-z
5 -x,-y,-z
6 x,-y,1/2+z
7 1/2-x,1/2-y,-z
8 1/2+x,1/2-y,1/2+z
_cell_length_a                   12.354(3)
_cell_length_b                   12.473(3)
_cell_length_c                   10.449(2)
_cell_angle_alpha                90
_cell_angle_beta                 116.92(3)
_cell_angle_gamma                90
_cell_volume                     1435.63
loop_
_atom_site_label
_atom_site_type_symbol
_atom_site_fract_x
_atom_site_fract_y
_atom_site_fract_z
Zn1 Zn 0.162446(17) 0.124055(15) 0.384591(19)
O1 O 0.33274(11) 0.17173(11) 0.47421(13)
N1 N 0.45250(12) 0.25251(11) 0.68055(15)
N2 N 0.14823(14) -0.06169(12) 0.70238(16)
N3 N 0.13879(16) -0.13501(12) 0.60028(18)
N4 N 0.13766(15) -0.08518(13) 0.49224(17)
N5 N 0.14622(14) 0.02278(12) 0.51871(16)
N6 N 0.1699(2) 0.12885(15) 0.7186(2)
H1 H 0.163(2) 0.181(2) 0.675(3)
H2 H 0.158(3) 0.1289(19) 0.792(3)
C1 C 0.41448(15) 0.16294(14) 0.60649(18)
C2 C 0.46141(15) 0.06008(14) 0.67573(19)
C3 C 0.42634(18) -0.03742(16) 0.6018(2)
H3 H 0.375(2) -0.0376(18) 0.497(3)
C4 C 0.4640(2) -0.13256(16) 0.6755(3)
H4 H 0.446(2) -0.198(2) 0.632(3)
C5 C 0.15410(15) 0.03475(14) 0.64959(19)
O1A O 0.66726(11) 0.17173(11) 1.02579(13)
N1A N 0.54750(12) 0.25251(11) 0.81945(15)
C1A C 0.58552(15) 0.16294(14) 0.89351(18)
C2A C 0.53859(15) 0.06008(14) 0.82427(19)
C3A C 0.57366(18) -0.03742(16) 0.8982(2)
H3A H 0.625(2) -0.0376(18) 1.003(3)
C4A C 0.5360(2) -0.13256(16) 0.8245(3)
H4A H 0.554(2) -0.198(2) 0.868(3)
Zn1A Zn 0.837554(17) 0.124055(15) 1.115409(19)
N2A N 0.85177(14) -0.06169(12) 0.79762(16)
N3A N 0.86121(16) -0.13501(12) 0.89972(18)
N4A N 0.86234(15) -0.08518(13) 1.00776(17)
N5A N 0.85378(14) 0.02278(12) 0.98129(16)
N6A N 0.8301(2) 0.12885(15) 0.7814(2)
H1A H 0.837(2) 0.181(2) 0.825(3)
H2A H 0.842(3) 0.1289(19) 0.708(3)
C5A C 0.84590(15) 0.03475(14) 0.85041(19)
Zn1D Zn 0.837554(17) -0.124055(15) 0.615409(19)
Zn1E Zn 0.162446(17) -0.124055(15) 0.884591(19)
Zn1F Zn 0.337554(17) 0.375945(15) 0.615409(19)
Zn1G Zn 0.662446(17) 0.375945(15) 0.884591(19)
N1F N 0.04750(12) 0.24749(11) 0.31945(15)
N1G N 0.95250(12) 0.24749(11) 1.18055(15)
N2D N 0.85177(14) 0.06169(12) 1.29762(16)
N2E N 0.14823(14) 0.06169(12) 0.20238(16)
loop_
_geom_bond_atom_site_label_1
_geom_bond_atom_site_label_2
_geom_bond_site_symmetry_1
_geom_bond_site_symmetry_2
Zn1 O1 1_555 1_555
O1 C1 1_555 1_555
N1 C1 1_555 1_555
N2 N3 1_555 1_555
N3 N4 1_555 1_555
N4 N5 1_555 1_555
N5 Zn1 1_555 1_555
N6 H1 1_555 1_555
H2 N6 1_555 1_555
C1 C2 1_555 1_555
C2 C3 1_555 1_555
C3 H3 1_555 1_555
C4 C3 1_555 1_555
H4 C4 1_555 1_555
C5 N2 1_555 1_555
O1A C1A 1_555 1_555
N1A N1 1_555 1_555
C1A N1A 1_555 1_555
C2A C2 1_555 1_555
C3A C2A 1_555 1_555
H3A C3A 1_555 1_555
C4A C4 1_555 1_555
H4A C4A 1_555 1_555
Zn1A O1A 1_555 1_555
N2A N3A 1_555 1_555
N3A N4A 1_555 1_555
N4A N5A 1_555 1_555
N5A Zn1A 1_555 1_555
N6A H1A 1_555 1_555
H2A N6A 1_555 1_555
C5A N2A 1_555 1_555
Zn1D N2A 1_555 1_555
Zn1E N2 1_555 1_555
Zn1F N1 1_555 1_555
Zn1G N1A 1_555 1_555
N1F Zn1 1_555 1_555
N1G Zn1A 1_555 1_555
N2D Zn1A 1_555 1_555
N2E Zn1 1_555 1_555
N5 C5 1_555 1_555
N6 C5 1_555 1_555
C1A C2A 1_555 1_555
C3A C4A 1_555 1_555
N5A C5A 1_555 1_555
N6A C5A 1_555 1_555

#END
