
#######################################################################
#
#                 Cambridge Crystallographic Data Centre
#                                CCDC 
#
#######################################################################
#
# If this CIF has been generated from an entry in the Cambridge 
# Structural Database, then it will include bibliographic, chemical, 
# crystal, experimental, refinement or atomic coordinate data resulting 
# from the CCDC's data processing and validation procedures.
#
#######################################################################

data_TIXBOT
_symmetry_cell_setting           monoclinic
_symmetry_space_group_name_H-M   'C 2/c'
_symmetry_Int_Tables_number      15
_space_group_name_Hall           '-C 2yn'
loop_
_symmetry_equiv_pos_site_id
_symmetry_equiv_pos_as_xyz
1 x,y,z
2 -x,y,1/2-z
3 1/2+x,1/2+y,z
4 1/2-x,1/2+y,1/2-z
5 -x,-y,-z
6 x,-y,1/2+z
7 1/2-x,1/2-y,-z
8 1/2+x,1/2-y,1/2+z
_cell_length_a                   13.7823(7)
_cell_length_b                   9.7678(7)
_cell_length_c                   20.5058(17)
_cell_angle_alpha                90
_cell_angle_beta                 96.553(4)
_cell_angle_gamma                90
_cell_volume                     2742.51
loop_
_atom_site_label
_atom_site_type_symbol
_atom_site_fract_x
_atom_site_fract_y
_atom_site_fract_z
Zn1 Zn 0.18655(2) 0.12655(3) 0.668482(15)
Zn2 Zn 0.0000 0.05438(5) 0.7500
N1 N 0.20105(17) 0.0475(3) 0.57963(12)
N2 N 0.12553(18) 0.0235(3) 0.52960(12)
H1 H 0.0685 0.0523 0.5361
N3 N 0.37744(16) 0.4462(2) 0.73074(13)
N4 N 0.29458(15) 0.4802(2) 0.76209(12)
N5 N 0.25921(16) 0.2985(2) 0.69756(12)
N6 N 0.1380(2) 0.3824(4) 0.75998(18)
H2 H 0.1204 0.4400 0.7881
H3 H 0.0980 0.3202 0.7440
N7 N 0.4118(2) 0.2838(4) 0.6526(2)
H4 H 0.4695 0.3163 0.6509
H5 H 0.3920 0.2148 0.6286
O1 O 0.35788(14) 0.0227(2) 0.61759(11)
O2 O 0.05792(16) -0.0604(3) 0.43304(11)
O3 O 0.04764(13) 0.1639(2) 0.67998(9)
C1 C 0.4012(2) -0.1096(4) 0.50107(18)
H6 H 0.4528 -0.0992 0.5341
C2 C 0.4164(3) -0.1701(5) 0.4433(2)
H7 H 0.4785 -0.2014 0.4374
C3 C 0.3399(3) -0.1860(5) 0.39263(19)
H8 H 0.3518 -0.2251 0.3530
C4 C 0.2476(3) -0.1435(4) 0.40173(17)
H9 H 0.1963 -0.1561 0.3687
C5 C 0.2308(2) -0.0818(3) 0.46042(15)
C6 C 0.3076(2) -0.0627(3) 0.51069(15)
C7 C 0.2901(2) 0.0043(3) 0.57179(14)
C8 C 0.1330(2) -0.0394(4) 0.47282(15)
C9 C 0.3523(2) 0.3411(3) 0.69286(16)
C10 C 0.22763(19) 0.3897(3) 0.74104(15)
Zn1A Zn -0.18655(2) 0.12655(3) 0.831518(15)
N1A N -0.20105(17) 0.0475(3) 0.92037(12)
N2A N -0.12553(18) 0.0235(3) 0.97040(12)
H1A H -0.0685 0.0523 0.9639
N3A N -0.37744(16) 0.4462(2) 0.76926(13)
N4A N -0.29458(15) 0.4802(2) 0.73791(12)
N5A N -0.25921(16) 0.2985(2) 0.80244(12)
N6A N -0.1380(2) 0.3824(4) 0.74002(18)
H2A H -0.1204 0.4400 0.7119
H3A H -0.0980 0.3202 0.7560
N7A N -0.4118(2) 0.2838(4) 0.8474(2)
H4A H -0.4695 0.3163 0.8491
H5A H -0.3920 0.2148 0.8714
O1A O -0.35788(14) 0.0227(2) 0.88241(11)
O2A O -0.05792(16) -0.0604(3) 1.06696(11)
O3A O -0.04764(13) 0.1639(2) 0.82002(9)
C1A C -0.4012(2) -0.1096(4) 0.99893(18)
H6A H -0.4528 -0.0992 0.9659
C2A C -0.4164(3) -0.1701(5) 1.0567(2)
H7A H -0.4785 -0.2014 1.0626
C3A C -0.3399(3) -0.1860(5) 1.10737(19)
H8A H -0.3518 -0.2251 1.1470
C4A C -0.2476(3) -0.1435(4) 1.09827(17)
H9A H -0.1963 -0.1561 1.1313
C5A C -0.2308(2) -0.0818(3) 1.03958(15)
C6A C -0.3076(2) -0.0627(3) 0.98931(15)
C7A C -0.2901(2) 0.0043(3) 0.92821(14)
C8A C -0.1330(2) -0.0394(4) 1.02718(15)
C9A C -0.3523(2) 0.3411(3) 0.80714(16)
C10A C -0.22763(19) 0.3897(3) 0.75896(15)
Zn1B Zn -0.31345(2) 0.62655(3) 0.668482(15)
Zn1C Zn 0.31345(2) 0.62655(3) 0.831518(15)
Zn2B Zn -0.5000 0.55438(5) 0.7500
Zn2B_2 Zn 0.5000 0.55438(5) 0.7500
N3B N -0.12256(16) -0.0538(2) 0.73074(13)
N3C N 0.12256(16) -0.0538(2) 0.76926(13)
N4B N -0.20542(15) -0.0198(2) 0.76209(12)
N4C N 0.20542(15) -0.0198(2) 0.73791(12)
loop_
_geom_bond_atom_site_label_1
_geom_bond_atom_site_label_2
_geom_bond_site_symmetry_1
_geom_bond_site_symmetry_2
Zn1 N1 1_555 1_555
Zn2 O3 1_555 1_555
N1 N2 1_555 1_555
N2 H1 1_555 1_555
N3 N4 1_555 1_555
N4 C10 1_555 1_555
N5 Zn1 1_555 1_555
N6 H2 1_555 1_555
H3 N6 1_555 1_555
N7 H4 1_555 1_555
H5 N7 1_555 1_555
O1 C7 1_555 1_555
O2 C8 1_555 1_555
O3 Zn1 1_555 1_555
C1 H6 1_555 1_555
C2 C1 1_555 1_555
H7 C2 1_555 1_555
C3 C2 1_555 1_555
H8 C3 1_555 1_555
C4 C3 1_555 1_555
H9 C4 1_555 1_555
C5 C4 1_555 1_555
C6 C1 1_555 1_555
C7 N1 1_555 1_555
C8 N2 1_555 1_555
C9 N3 1_555 1_555
C10 N5 1_555 1_555
Zn1A N1A 1_555 1_555
N1A N2A 1_555 1_555
N2A H1A 1_555 1_555
N3A N4A 1_555 1_555
N4A C10A 1_555 1_555
N5A Zn1A 1_555 1_555
N6A H2A 1_555 1_555
H3A N6A 1_555 1_555
N7A H4A 1_555 1_555
H5A N7A 1_555 1_555
O1A C7A 1_555 1_555
O2A C8A 1_555 1_555
O3A Zn2 1_555 1_555
C1A H6A 1_555 1_555
C2A C1A 1_555 1_555
H7A C2A 1_555 1_555
C3A C2A 1_555 1_555
H8A C3A 1_555 1_555
C4A C3A 1_555 1_555
H9A C4A 1_555 1_555
C5A C4A 1_555 1_555
C6A C1A 1_555 1_555
C7A N1A 1_555 1_555
C8A N2A 1_555 1_555
C9A N3A 1_555 1_555
C10A N5A 1_555 1_555
Zn1B N4A 1_555 1_555
Zn1C N4 1_555 1_555
Zn2B N3A 1_555 1_555
Zn2B_2 N3 1_555 1_555
N3B Zn2 1_555 1_555
N3C Zn2 1_555 1_555
N4B Zn1A 1_555 1_555
N4C Zn1 1_555 1_555
N5 C9 1_555 1_555
N6 C10 1_555 1_555
N7 C9 1_555 1_555
C5 C6 1_555 1_555
C5 C8 1_555 1_555
C6 C7 1_555 1_555
Zn1A O3A 1_555 1_555
N5A C9A 1_555 1_555
N6A C10A 1_555 1_555
N7A C9A 1_555 1_555
C5A C6A 1_555 1_555
C5A C8A 1_555 1_555
C6A C7A 1_555 1_555
N3B N4B 1_555 1_555
N3C N4C 1_555 1_555

#END
