
#######################################################################
#
#                 Cambridge Crystallographic Data Centre
#                                CCDC 
#
#######################################################################
#
# If this CIF has been generated from an entry in the Cambridge 
# Structural Database, then it will include bibliographic, chemical, 
# crystal, experimental, refinement or atomic coordinate data resulting 
# from the CCDC's data processing and validation procedures.
#
#######################################################################

data_TIXCEK
_symmetry_cell_setting           tetragonal
_symmetry_space_group_name_H-M   'I 41/a'
_symmetry_Int_Tables_number      88
_space_group_name_Hall           '-I 4ad'
loop_
_symmetry_equiv_pos_site_id
_symmetry_equiv_pos_as_xyz
1 x,y,z
2 1/2-x,-y,1/2+z
3 3/4-y,1/4+x,1/4+z
4 3/4+y,3/4-x,3/4+z
5 1/2+x,1/2+y,1/2+z
6 -x,1/2-y,z
7 1/4-y,3/4+x,3/4+z
8 1/4+y,1/4-x,1/4+z
9 -x,-y,-z
10 1/2+x,y,1/2-z
11 1/4+y,3/4-x,3/4-z
12 1/4-y,1/4+x,1/4-z
13 1/2-x,1/2-y,1/2-z
14 x,1/2+y,-z
15 3/4+y,1/4-x,1/4-z
16 3/4-y,3/4+x,3/4-z
_cell_length_a                   23.4346(12)
_cell_length_b                   23.4346(12)
_cell_length_c                   14.9150(15)
_cell_angle_alpha                90
_cell_angle_beta                 90
_cell_angle_gamma                90
_cell_volume                     8191.03
loop_
_atom_site_label
_atom_site_type_symbol
_atom_site_fract_x
_atom_site_fract_y
_atom_site_fract_z
Zn1 Zn 0.375758(14) 1.047272(15) 1.15967(2)
N1 N 0.35815(10) 0.96652(10) 1.19511(16)
N2 N 0.32072(10) 0.90392(10) 1.29173(15)
N3 N 0.19182(10) 0.87030(11) 0.88460(17)
N4 N 0.16938(10) 0.91103(10) 0.75414(15)
N5 N 0.45406(11) 0.93264(12) 0.77357(17)
H1 H 0.4290(18) 0.9327(18) 0.727(2)
N6 N 0.54150(10) 0.93725(11) 0.82949(16)
C1 C 0.34014(12) 0.91666(12) 1.04850(19)
C2 C 0.29085(12) 0.90662(13) 0.99919(19)
H2 H 0.2562 0.9024 1.0288
C3 C 0.29262(12) 0.90273(12) 0.90641(18)
C4 C 0.34505(12) 0.90698(12) 0.86329(19)
H3 H 0.3468 0.9023 0.8014
C5 C 0.39480(12) 0.91812(13) 0.91076(19)
C6 C 0.39145(12) 0.92347(12) 1.00375(19)
H4 H 0.4243 0.9318 1.0363
C7 C 0.33683(12) 0.92099(12) 1.14707(19)
C8 C 0.23973(12) 0.89811(12) 0.85370(18)
C9 C 0.44950(12) 0.92600(13) 0.86478(19)
C10 C 0.31406(13) 0.88357(13) 1.2066(2)
H5 H 0.2966 0.8492 1.1917
C11 C 0.34698(13) 0.95347(13) 1.2801(2)
H6 H 0.3568 0.9772 1.3276
C12 C 0.15127(13) 0.87926(13) 0.8226(2)
H7 H 0.1144 0.8648 0.8270
C13 C 0.22558(12) 0.92256(13) 0.77450(19)
H8 H 0.2502 0.9440 0.7390
C14 C 0.50961(13) 0.93953(14) 0.7569(2)
H9 H 0.5243 0.9453 0.6997
C15 C 0.50308(12) 0.92901(14) 0.8985(2)
H10 H 0.5125 0.9260 0.9589
Zn1A Zn 0.124242(14) 0.952728(15) 0.65967(2)
Zn1G Zn 0.297272(15) 0.874242(14) 1.40967(2)
Zn1H Zn 0.624242(14) 0.952728(15) 0.84033(2)
N2F N 0.34608(10) 1.07072(10) 1.04173(15)
N4A N 0.33062(10) 1.08897(10) 1.25414(15)
N6H N 0.45850(10) 1.06275(11) 1.17051(16)
loop_
_geom_bond_atom_site_label_1
_geom_bond_atom_site_label_2
_geom_bond_site_symmetry_1
_geom_bond_site_symmetry_2
Zn1 N1 1_555 1_555
N1 C7 1_555 1_555
N2 C10 1_555 1_555
N3 C8 1_555 1_555
N4 C12 1_555 1_555
N5 H1 1_555 1_555
N6 C14 1_555 1_555
C1 C2 1_555 1_555
C2 H2 1_555 1_555
C3 C2 1_555 1_555
C4 C3 1_555 1_555
H3 C4 1_555 1_555
C5 C4 1_555 1_555
C6 C1 1_555 1_555
H4 C6 1_555 1_555
C7 C1 1_555 1_555
C8 C3 1_555 1_555
C9 N5 1_555 1_555
C10 C7 1_555 1_555
H5 C10 1_555 1_555
C11 N1 1_555 1_555
H6 C11 1_555 1_555
C12 N3 1_555 1_555
H7 C12 1_555 1_555
C13 N4 1_555 1_555
H8 C13 1_555 1_555
C14 N5 1_555 1_555
H9 C14 1_555 1_555
C15 N6 1_555 1_555
H10 C15 1_555 1_555
Zn1A N4 1_555 1_555
Zn1G N2 1_555 1_555
Zn1H N6 1_555 1_555
N2F Zn1 1_555 1_555
N4A Zn1 1_555 1_555
N6H Zn1 1_555 1_555
N2 C11 1_555 1_555
C5 C6 1_555 1_555
C5 C9 1_555 1_555
C8 C13 1_555 1_555
C9 C15 1_555 1_555

#END
