
#######################################################################
#
#                 Cambridge Crystallographic Data Centre
#                                CCDC 
#
#######################################################################
#
# If this CIF has been generated from an entry in the Cambridge 
# Structural Database, then it will include bibliographic, chemical, 
# crystal, experimental, refinement or atomic coordinate data resulting 
# from the CCDC's data processing and validation procedures.
#
#######################################################################

data_TIXCIO
_symmetry_cell_setting           cubic
_symmetry_space_group_name_H-M   'P a -3'
_symmetry_Int_Tables_number      205
_space_group_name_Hall           '-P 2ac 2ab 3'
loop_
_symmetry_equiv_pos_site_id
_symmetry_equiv_pos_as_xyz
1 x,y,z
2 y,z,x
3 z,x,y
4 1/2+y,1/2-z,-x
5 1/2+z,1/2-x,-y
6 -z,1/2+x,1/2-y
7 -x,1/2+y,1/2-z
8 -y,1/2+z,1/2-x
9 1/2+x,1/2-y,-z
10 1/2-x,-y,1/2+z
11 1/2-y,-z,1/2+x
12 1/2-z,-x,1/2+y
13 -x,-y,-z
14 -y,-z,-x
15 -z,-x,-y
16 1/2-y,1/2+z,x
17 1/2-z,1/2+x,y
18 z,1/2-x,1/2+y
19 x,1/2-y,1/2+z
20 y,1/2-z,1/2+x
21 1/2-x,1/2+y,z
22 1/2+x,y,1/2-z
23 1/2+y,z,1/2-x
24 1/2+z,x,1/2-y
_cell_length_a                   17.542(5)
_cell_length_b                   17.542(5)
_cell_length_c                   17.542(5)
_cell_angle_alpha                90
_cell_angle_beta                 90
_cell_angle_gamma                90
_cell_volume                     5398.06
loop_
_atom_site_label
_atom_site_type_symbol
_atom_site_fract_x
_atom_site_fract_y
_atom_site_fract_z
Cd1 Cd 0.5000 0.5000 0.0000
N1 N 0.5416(4) 0.6522(4) 0.1997(3)
H1 H 0.5280 0.6706 0.2444
N2 N 0.5420(2) 0.5794(2) 0.0984(2)
C1 C 0.6447(3) 0.7467(3) 0.1728(3)
C2 C 0.6281(3) 0.7922(3) 0.2359(3)
H2 H 0.5858 0.7799 0.2674
C3 C 0.5979(3) 0.6801(3) 0.1542(3)
C4 C 0.5961(3) 0.6345(3) 0.0919(3)
H3 H 0.6286 0.6403 0.0490
C5 C 0.5105(4) 0.5915(4) 0.1644(4)
H4 H 0.4705 0.5614 0.1850
N1D N 0.6997(3) 0.9584(4) 0.3478(4)
H1D H 0.7444 0.9720 0.3294
N2D N 0.5984(2) 0.9580(2) 0.4206(2)
C1D C 0.6728(3) 0.8553(3) 0.2533(3)
C2D C 0.7359(3) 0.8719(3) 0.2078(3)
H2D H 0.7674 0.9142 0.2201
C3D C 0.6542(3) 0.9021(3) 0.3199(3)
C4D C 0.5919(3) 0.9039(3) 0.3655(3)
H3D H 0.5490 0.8714 0.3597
C5D C 0.6644(4) 0.9895(4) 0.4085(4)
H4D H 0.6850 1.0295 0.4386
N1J N 0.8478(4) 0.8003(3) 0.0416(4)
H1J H 0.8294 0.7556 0.0280
N2J N 0.9206(2) 0.9016(2) 0.0420(2)
C1J C 0.7533(3) 0.8272(3) 0.1447(3)
C2J C 0.7078(3) 0.7641(3) 0.1281(3)
H2J H 0.7201 0.7326 0.0858
C3J C 0.8199(3) 0.8458(3) 0.0979(3)
C4J C 0.8655(3) 0.9081(3) 0.0961(3)
H3J H 0.8597 0.9510 0.1286
C5J C 0.9085(4) 0.8356(4) 0.0105(4)
H4J H 0.9386 0.8150 -0.0295
N1V N 0.1522(4) 0.1997(3) -0.0416(4)
H1V H 0.1706 0.2444 -0.0280
N2V N 0.0794(2) 0.0984(2) -0.0420(2)
C1V C 0.2467(3) 0.1728(3) -0.1447(3)
C2V C 0.2922(3) 0.2359(3) -0.1281(3)
H2V H 0.2799 0.2674 -0.0858
C3V C 0.1801(3) 0.1542(3) -0.0979(3)
C4V C 0.1345(3) 0.0919(3) -0.0961(3)
H3V H 0.1403 0.0490 -0.1286
C5V C 0.0915(4) 0.1644(4) -0.0105(4)
H4V H 0.0614 0.1850 0.0295
N1L N 0.4584(4) 0.3478(4) -0.1997(3)
H1L H 0.4720 0.3294 -0.2444
N2L N 0.4580(2) 0.4206(2) -0.0984(2)
C1L C 0.3553(3) 0.2533(3) -0.1728(3)
C2L C 0.3719(3) 0.2078(3) -0.2359(3)
H2L H 0.4142 0.2201 -0.2674
C3L C 0.4021(3) 0.3199(3) -0.1542(3)
C4L C 0.4039(3) 0.3655(3) -0.0919(3)
H3L H 0.3714 0.3597 -0.0490
C5L C 0.4895(4) 0.4085(4) -0.1644(4)
H4L H 0.5295 0.4386 -0.1850
N1P N 0.3003(3) 0.0416(4) -0.3478(4)
H1P H 0.2556 0.0280 -0.3294
N2P N 0.4016(2) 0.0420(2) -0.4206(2)
C1P C 0.3272(3) 0.1447(3) -0.2533(3)
C2P C 0.2641(3) 0.1281(3) -0.2078(3)
H2P H 0.2326 0.0858 -0.2201
C3P C 0.3458(3) 0.0979(3) -0.3199(3)
C4P C 0.4081(3) 0.0961(3) -0.3655(3)
H3P H 0.4510 0.1286 -0.3597
C5P C 0.3356(4) 0.0105(4) -0.4085(4)
H4P H 0.3150 -0.0295 -0.4386
Cd1A Cd 0.5000 0.0000 -0.5000
Cd1A_2 Cd 0.5000 1.0000 0.5000
Cd1V Cd 0.0000 0.0000 0.0000
Cd1V_2 Cd 1.0000 1.0000 0.0000
N2W N 0.5984(2) 0.5420(2) -0.0794(2)
N2G N 0.4206(2) 0.5984(2) -0.0420(2)
N2K N 0.4016(2) 0.4580(2) 0.0794(2)
N2S N 0.5794(2) 0.4016(2) 0.0420(2)
Cl1 Cl 0.8390(11) 0.6004(10) 0.1789(12)
O1 O 0.837(2) 0.648(2) 0.2446(17)
O2 O 0.8615(14) 0.6451(13) 0.1145(17)
O3 O 0.7663(10) 0.5679(14) 0.1657(19)
O4 O 0.8935(12) 0.5410(15) 0.1897(18)
O5 O 0.6712(10) 0.5325(10) 0.2801(9)
O6? O 0.8138(18) 0.6862(18) 0.3138(18)
Cl2? Cl 0.8411(10) 0.5704(10) 0.1353(13)
O7? O 0.819(2) 0.553(2) 0.087(2)
O8? O 0.844(2) 0.523(2) 0.0696(19)
loop_
_geom_bond_atom_site_label_1
_geom_bond_atom_site_label_2
_geom_bond_site_symmetry_1
_geom_bond_site_symmetry_2
Cd1 N2 1_555 1_555
N1 H1 1_555 1_555
N2 C4 1_555 1_555
C1 C2 1_555 1_555
C2 H2 1_555 1_555
C3 N1 1_555 1_555
C4 C3 1_555 1_555
H3 C4 1_555 1_555
C5 N1 1_555 1_555
H4 C5 1_555 1_555
Cl1 O1 1_555 1_555
O2 Cl1 1_555 1_555
O3 Cl1 1_555 1_555
O4 Cl1 1_555 1_555
N1D H1D 1_555 1_555
N2D C4D 1_555 1_555
C1D C2 1_555 1_555
C2D C1D 1_555 1_555
H2D C2D 1_555 1_555
C3D N1D 1_555 1_555
C4D C3D 1_555 1_555
H3D C4D 1_555 1_555
C5D N1D 1_555 1_555
H4D C5D 1_555 1_555
N1J H1J 1_555 1_555
N2J C4J 1_555 1_555
C1J C2D 1_555 1_555
C2J C1 1_555 1_555
H2J C2J 1_555 1_555
C3J N1J 1_555 1_555
C4J C3J 1_555 1_555
H3J C4J 1_555 1_555
C5J N1J 1_555 1_555
H4J C5J 1_555 1_555
N1V H1V 1_555 1_555
N2V C4V 1_555 1_555
C1V C2V 1_555 1_555
C2V H2V 1_555 1_555
C3V N1V 1_555 1_555
C4V C3V 1_555 1_555
H3V C4V 1_555 1_555
C5V N1V 1_555 1_555
H4V C5V 1_555 1_555
N1L H1L 1_555 1_555
N2L Cd1 1_555 1_555
C1L C2V 1_555 1_555
C2L C1L 1_555 1_555
H2L C2L 1_555 1_555
C3L N1L 1_555 1_555
C4L N2L 1_555 1_555
H3L C4L 1_555 1_555
C5L N1L 1_555 1_555
H4L C5L 1_555 1_555
N1P H1P 1_555 1_555
N2P C4P 1_555 1_555
C1P C2L 1_555 1_555
C2P C1V 1_555 1_555
H2P C2P 1_555 1_555
C3P N1P 1_555 1_555
C4P C3P 1_555 1_555
H3P C4P 1_555 1_555
C5P N1P 1_555 1_555
H4P C5P 1_555 1_555
Cd1A N2P 1_555 1_555
Cd1A_2 N2D 1_555 1_555
Cd1V N2V 1_555 1_555
Cd1V_2 N2J 1_555 1_555
N2W Cd1 1_555 1_555
N2G Cd1 1_555 1_555
N2K Cd1 1_555 1_555
N2S Cd1 1_555 1_555
N2 C5 1_555 1_555
C1 C3 1_555 1_555
N2D C5D 1_555 1_555
C1D C3D 1_555 1_555
N2J C5J 1_555 1_555
C1J C2J 1_555 1_555
C1J C3J 1_555 1_555
N2V C5V 1_555 1_555
C1V C3V 1_555 1_555
N2L C5L 1_555 1_555
C1L C3L 1_555 1_555
C3L C4L 1_555 1_555
N2P C5P 1_555 1_555
C1P C2P 1_555 1_555
C1P C3P 1_555 1_555

#END
