
#######################################################################
#
#                 Cambridge Crystallographic Data Centre
#                                CCDC 
#
#######################################################################
#
# If this CIF has been generated from an entry in the Cambridge 
# Structural Database, then it will include bibliographic, chemical, 
# crystal, experimental, refinement or atomic coordinate data resulting 
# from the CCDC's data processing and validation procedures.
#
#######################################################################

data_TIXCAG
_symmetry_cell_setting           monoclinic
_symmetry_space_group_name_H-M   'C 2/m'
_symmetry_Int_Tables_number      12
_space_group_name_Hall           '-C 2y'
loop_
_symmetry_equiv_pos_site_id
_symmetry_equiv_pos_as_xyz
1 x,y,z
2 -x,y,-z
3 1/2+x,1/2+y,z
4 1/2-x,1/2+y,-z
5 -x,-y,-z
6 x,-y,z
7 1/2-x,1/2-y,-z
8 1/2+x,1/2-y,z
_cell_length_a                   18.923(4)
_cell_length_b                   11.121(2)
_cell_length_c                   15.759(3)
_cell_angle_alpha                90
_cell_angle_beta                 102.62(3)
_cell_angle_gamma                90
_cell_volume                     3236.24
loop_
_atom_site_label
_atom_site_type_symbol
_atom_site_fract_x
_atom_site_fract_y
_atom_site_fract_z
Zn1 Zn 0.76320(3) 0.14401(4) 0.90872(3)
Zn2 Zn 0.68795(2) 0.35791(4) 0.54514(3)
Zn3 Zn 0.58280(3) 0.5000 0.66639(4)
O1 O 0.83303(17) 0.2584(3) 0.97522(18)
O2 O 0.83934(17) 0.2582(3) 0.54853(18)
O3 O 0.4149(3) 0.5000 0.7929(3)
O4 O 0.3642(2) 0.5000 0.6172(3)
O5 O 0.5259(2) 0.5000 0.7691(3)
O6 O 0.4778(2) 0.5000 0.5999(3)
O7 O 0.6236(2) 0.5000 0.5543(2)
H1 H 0.595(4) 0.5000 0.512(4)
O8 O 0.8125(3) 0.0000 0.8867(3)
H2 H 0.843(4) 0.0000 0.872(5)
N1 N 0.68900(19) 0.3002(3) 0.6654(2)
N2 N 0.63779(19) 0.3482(3) 0.7100(2)
N3 N 0.7117(2) 0.2252(3) 0.8003(2)
N4 N 0.6160(3) 0.3189(5) 0.8509(3)
H3 H 0.5785 0.3647 0.8405
H4 H 0.6294 0.2849 0.9008
N5 N 0.7871(3) 0.1671(6) 0.7056(3)
H5 H 0.7987 0.1738 0.6560
H6 H 0.8120 0.1214 0.7451
N6 N 0.9407(6) 0.2551(5) 0.8817(7)
H7 H 0.9732 0.2258 0.8571
H8 H 0.9163 0.2083 0.9081
N7 N 0.79737(18) 0.4370(3) 1.0169(2)
N8 N 0.9890(5) 0.2577(5) 0.6109(6)
H9 H 1.0318 0.2297 0.6304
H10 H 0.9528 0.2094 0.5971
N9 N 0.78242(17) 0.4372(3) 0.5390(2)
C1 C 0.7305(3) 0.2279(4) 0.7214(3)
C2 C 0.6540(2) 0.3002(4) 0.7884(3)
C3 C 0.4577(3) 0.5000 0.7450(4)
C4 C 0.4286(3) 0.5000 0.6459(4)
C5 C 0.9701(4) 0.4386(7) 0.8351(5)
H11 H 0.9995 0.3977 0.8046
C6 C 0.9278(4) 0.3746(5) 0.8789(4)
C7 C 0.8822(2) 0.4361(4) 0.9229(3)
C8 C 0.8358(2) 0.3760(4) 0.9717(2)
C9 C 1.0416(3) 0.4373(7) 0.6266(4)
H12 H 1.0848 0.3952 0.6436
C10 C 0.9786(3) 0.3774(5) 0.6017(3)
C11 C 0.9123(2) 0.4366(4) 0.5755(2)
C12 C 0.8428(2) 0.3761(3) 0.5519(2)
O1E O 0.83303(17) 0.7416(3) 0.97522(18)
N6E N 0.9407(6) 0.7449(5) 0.8817(7)
H7E H 0.9732 0.7742 0.8571
H8E H 0.9163 0.7917 0.9081
N7E N 0.79737(18) 0.5630(3) 1.0169(2)
C5E C 0.9701(4) 0.5614(7) 0.8351(5)
H11E H 0.9995 0.6023 0.8046
C6E C 0.9278(4) 0.6254(5) 0.8789(4)
C7E C 0.8822(2) 0.5639(4) 0.9229(3)
C8E C 0.8358(2) 0.6240(4) 0.9717(2)
O2E O 0.83934(17) 0.7418(3) 0.54853(18)
N8E N 0.9890(5) 0.7423(5) 0.6109(6)
H9E H 1.0318 0.7703 0.6304
H10E H 0.9528 0.7906 0.5971
N9E N 0.78242(17) 0.5628(3) 0.5390(2)
C9E C 1.0416(3) 0.5627(7) 0.6266(4)
H12E H 1.0848 0.6048 0.6436
C10E C 0.9786(3) 0.6226(5) 0.6017(3)
C11E C 0.9123(2) 0.5634(4) 0.5755(2)
C12E C 0.8428(2) 0.6239(3) 0.5519(2)
Zn1E Zn 0.76320(3) -0.14401(4) 0.90872(3)
Zn2E Zn 0.68795(2) -0.35791(4) 0.54514(3)
N1E N 0.68900(19) -0.3002(3) 0.6654(2)
N2E N 0.63779(19) -0.3482(3) 0.7100(2)
N3E N 0.7117(2) -0.2252(3) 0.8003(2)
N4E N 0.6160(3) -0.3189(5) 0.8509(3)
H3E H 0.5785 -0.3647 0.8405
H4E H 0.6294 -0.2849 0.9008
N5E N 0.7871(3) -0.1671(6) 0.7056(3)
H5E H 0.7987 -0.1738 0.6560
H6E H 0.8120 -0.1214 0.7451
C1E C 0.7305(3) -0.2279(4) 0.7214(3)
C2E C 0.6540(2) -0.3002(4) 0.7884(3)
Zn1C Zn 0.73680(3) 0.64401(4) 1.09128(3)
Zn1E_2 Zn 0.76320(3) 0.85599(4) 0.90872(3)
Zn1F Zn 0.73680(3) 0.35599(4) 1.09128(3)
Zn2C Zn 0.81205(2) 0.85791(4) 0.45486(3)
Zn2E_2 Zn 0.68795(2) 0.64209(4) 0.54514(3)
Zn2F Zn 0.81205(2) 0.14209(4) 0.45486(3)
Zn3_2 Zn 0.58280(3) -0.5000 0.66639(4)
O1E_2 O 0.83303(17) -0.2584(3) 0.97522(18)
O2C O 0.66066(17) -0.2418(3) 0.45147(18)
O2F O 0.66066(17) 0.2418(3) 0.45147(18)
O7_2 O 0.6236(2) -0.5000 0.5543(2)
N2E_2 N 0.63779(19) 0.6518(3) 0.7100(2)
N7C N 0.70263(18) -0.0630(3) 0.9831(2)
N7F N 0.70263(18) 0.0630(3) 0.9831(2)
N9E_2 N 0.78242(17) -0.4372(3) 0.5390(2)
loop_
_geom_bond_atom_site_label_1
_geom_bond_atom_site_label_2
_geom_bond_site_symmetry_1
_geom_bond_site_symmetry_2
Zn1 O1 1_555 1_555
Zn2 O7 1_555 1_555
Zn3 O5 1_555 1_555
O1 C8 1_555 1_555
O2 C12 1_555 1_555
O3 C3 1_555 1_555
O4 C4 1_555 1_555
O5 C3 1_555 1_555
O6 Zn3 1_555 1_555
O7 Zn3 1_555 1_555
H1 O7 1_555 1_555
O8 Zn1 1_555 1_555
H2 O8 1_555 1_555
N1 Zn2 1_555 1_555
N2 Zn3 1_555 1_555
N3 Zn1 1_555 1_555
N4 H3 1_555 1_555
H4 N4 1_555 1_555
N5 H5 1_555 1_555
H6 N5 1_555 1_555
N6 H7 1_555 1_555
H8 N6 1_555 1_555
N7 C8 1_555 1_555
N8 H9 1_555 1_555
H10 N8 1_555 1_555
N9 Zn2 1_555 1_555
C1 N1 1_555 1_555
C2 N2 1_555 1_555
C3 C4 1_555 1_555
C4 O6 1_555 1_555
C5 H11 1_555 1_555
C6 N6 1_555 1_555
C7 C6 1_555 1_555
C8 C7 1_555 1_555
C9 H12 1_555 1_555
C10 N8 1_555 1_555
C11 C10 1_555 1_555
C12 N9 1_555 1_555
O1E C8E 1_555 1_555
N6E H7E 1_555 1_555
H8E N6E 1_555 1_555
N7E N7 1_555 1_555
C5E C5 1_555 1_555
H11E C5E 1_555 1_555
C6E N6E 1_555 1_555
C7E C7 1_555 1_555
C8E N7E 1_555 1_555
O2E C12E 1_555 1_555
N8E H9E 1_555 1_555
H10E N8E 1_555 1_555
N9E N9 1_555 1_555
C9E C9 1_555 1_555
H12E C9E 1_555 1_555
C10E N8E 1_555 1_555
C11E C11 1_555 1_555
C12E N9E 1_555 1_555
Zn1E O8 1_555 1_555
Zn2E N1E 1_555 1_555
N1E N2E 1_555 1_555
N2E C2E 1_555 1_555
N3E Zn1E 1_555 1_555
N4E H3E 1_555 1_555
H4E N4E 1_555 1_555
N5E H5E 1_555 1_555
H6E N5E 1_555 1_555
C1E N1E 1_555 1_555
C2E N3E 1_555 1_555
Zn1C N7E 1_555 1_555
Zn1E_2 O1E 1_555 1_555
Zn1F N7 1_555 1_555
Zn2C O2E 1_555 1_555
Zn2E_2 O7 1_555 1_555
Zn2F O2 1_555 1_555
Zn3_2 N2E 1_555 1_555
O1E_2 Zn1E 1_555 1_555
O2C Zn2E 1_555 1_555
O2F Zn2 1_555 1_555
O7_2 Zn2E 1_555 1_555
N2E_2 Zn3 1_555 1_555
N7C Zn1E 1_555 1_555
N7F Zn1 1_555 1_555
N9E_2 Zn2E 1_555 1_555
N1 N2 1_555 1_555
N3 C1 1_555 1_555
N3 C2 1_555 1_555
N4 C2 1_555 1_555
N5 C1 1_555 1_555
C5 C6 1_555 1_555
C9 C10 1_555 1_555
C11 C12 1_555 1_555
C5E C6E 1_555 1_555
C6E C7E 1_555 1_555
C7E C8E 1_555 1_555
N9E Zn2E_2 1_555 1_555
C9E C10E 1_555 1_555
C10E C11E 1_555 1_555
C11E C12E 1_555 1_555
N3E C1E 1_555 1_555
N4E C2E 1_555 1_555
N5E C1E 1_555 1_555
Zn3_2 O7_2 1_555 1_555
N7C N7F 1_555 1_555

#END
