
#######################################################################
#
#                 Cambridge Crystallographic Data Centre
#                                CCDC 
#
#######################################################################
#
# If this CIF has been generated from an entry in the Cambridge 
# Structural Database, then it will include bibliographic, chemical, 
# crystal, experimental, refinement or atomic coordinate data resulting 
# from the CCDC's data processing and validation procedures.
#
#######################################################################

data_TIXDUB
_symmetry_cell_setting           triclinic
_symmetry_space_group_name_H-M   'P -1'
_symmetry_Int_Tables_number      2
_space_group_name_Hall           '-P 1'
loop_
_symmetry_equiv_pos_site_id
_symmetry_equiv_pos_as_xyz
1 x,y,z
2 -x,-y,-z
_cell_length_a                   9.1374(6)
_cell_length_b                   11.7993(7)
_cell_length_c                   12.2790(6)
_cell_angle_alpha                87.214(4)
_cell_angle_beta                 85.536(5)
_cell_angle_gamma                75.414(5)
_cell_volume                     1276.73
loop_
_atom_site_label
_atom_site_type_symbol
_atom_site_fract_x
_atom_site_fract_y
_atom_site_fract_z
C1 C -0.1375(6) 0.2571(5) 0.6532(5)
C2 C -0.1698(7) 0.1885(5) 0.7392(5)
C3 C -0.0621(7) 0.0857(5) 0.7336(4)
C4 C 0.1631(6) 0.0125(4) 0.6012(4)
C5 C 0.4224(6) 0.0050(4) 0.6612(4)
C6 C 0.5195(7) 0.0750(5) 0.6415(5)
C7 C 0.4421(6) 0.1672(4) 0.5768(4)
C8 C 0.5005(5) 0.3518(4) -0.0635(4)
C9 C 0.5056(6) 0.4250(5) -0.1553(4)
C10 C 0.3921(6) 0.4129(4) -0.2158(4)
C11 C 0.1941(5) 0.2959(4) -0.1861(3)
C12 C -0.0643(6) 0.4128(4) -0.1172(5)
C13 C -0.1400(6) 0.4197(4) -0.0173(5)
C14 C -0.0457(5) 0.3464(4) 0.0517(4)
C15 C 0.2574(5) 0.2878(3) 0.2742(3)
C16 C 0.1833(5) 0.1824(3) 0.2671(3)
C17 C 0.5524(5) 0.0174(3) 0.0407(3)
C18 C -0.0536(5) 0.4916(3) 0.4564(3)
Cu1 Cu 0.12944(6) 0.26326(4) 0.48586(4)
Cu2 Cu 0.29325(6) 0.20945(4) 0.05030(4)
H1 H -0.1946 0.3324 0.6375
H2 H -0.2502 0.2082 0.7918
H3 H -0.0543 0.0210 0.7812
H4 H 0.1736 -0.0619 0.6408
H5 H 0.1506 0.0004 0.5253
H6 H 0.4395 -0.0640 0.7036
H7 H 0.6162 0.0637 0.6659
H8 H 0.4798 0.2307 0.5517
H9 H 0.5656 0.3422 -0.0073
H10 H 0.5724 0.4722 -0.1718
H11 H 0.3662 0.4507 -0.2824
H12 H 0.1638 0.3253 -0.2583
H13 H 0.2205 0.2110 -0.1865
H14 H -0.0987 0.4534 -0.1808
H15 H -0.2369 0.4653 0.0008
H16 H -0.0690 0.3346 0.1258
N1 N -0.0134(4) 0.2024(3) 0.5943(3)
N2 N 0.0306(4) 0.0961(3) 0.6459(3)
N3 N 0.3095(5) 0.1538(3) 0.5556(3)
N4 N 0.2977(4) 0.0530(3) 0.6086(3)
N5 N 0.3913(4) 0.2982(3) -0.0667(3)
N6 N 0.3245(4) 0.3360(3) -0.1613(3)
N7 N 0.0826(4) 0.2948(3) -0.0018(3)
N8 N 0.0698(4) 0.3362(3) -0.1063(3)
O1 O 0.2609(4) 0.3223(3) 0.3696(2)
O2 O 0.1205(4) 0.1491(3) 0.3512(2)
O3 O 0.3060(4) 0.3285(3) 0.1888(2)
O4 O 0.1922(4) 0.1392(2) 0.1745(2)
O5 O -0.1406(4) 0.5795(3) 0.4183(2)
O6 O -0.0471(4) 0.3878(3) 0.4333(3)
O7 O 0.5015(4) 0.1137(2) 0.0869(2)
O8 O 0.6764(4) -0.0513(3) 0.0545(3)
C17A C 0.4476(5) -0.0174(3) -0.0407(3)
O7A O 0.4985(4) -0.1137(2) -0.0869(2)
O8A O 0.3236(4) 0.0513(3) -0.0545(3)
C18A C 0.0536(5) 0.5084(3) 0.5436(3)
O5A O 0.1406(4) 0.4205(3) 0.5817(2)
O6A O 0.0471(4) 0.6122(3) 0.5667(3)
C1A C 0.1375(6) 0.7429(5) 0.3468(5)
C2A C 0.1698(7) 0.8115(5) 0.2608(5)
C3A C 0.0621(7) 0.9143(5) 0.2664(4)
C4A C -0.1631(6) 0.9875(4) 0.3988(4)
C5A C -0.4224(6) 0.9950(4) 0.3388(4)
C6A C -0.5195(7) 0.9250(5) 0.3585(5)
C7A C -0.4421(6) 0.8328(4) 0.4232(4)
C8A C -0.5005(5) 0.6482(4) 1.0635(4)
C9A C -0.5056(6) 0.5750(5) 1.1553(4)
C10A C -0.3921(6) 0.5871(4) 1.2158(4)
C11A C -0.1941(5) 0.7041(4) 1.1861(3)
C12A C 0.0643(6) 0.5872(4) 1.1172(5)
C13A C 0.1400(6) 0.5803(4) 1.0173(5)
C14A C 0.0457(5) 0.6536(4) 0.9483(4)
C15A C -0.2574(5) 0.7122(3) 0.7258(3)
C16A C -0.1833(5) 0.8176(3) 0.7329(3)
Cu1A Cu -0.12944(6) 0.73674(4) 0.51414(4)
Cu2A Cu -0.29325(6) 0.79055(4) 0.94970(4)
H1A H 0.1946 0.6676 0.3625
H2A H 0.2502 0.7918 0.2082
H3A H 0.0543 0.9790 0.2188
H4A H -0.1736 1.0619 0.3592
H5A H -0.1506 0.9996 0.4747
H6A H -0.4395 1.0640 0.2964
H7A H -0.6162 0.9363 0.3341
H8A H -0.4798 0.7693 0.4483
H9A H -0.5656 0.6578 1.0073
H10A H -0.5724 0.5278 1.1718
H11A H -0.3662 0.5493 1.2824
H12A H -0.1638 0.6747 1.2583
H13A H -0.2205 0.7890 1.1865
H14A H 0.0987 0.5466 1.1808
H15A H 0.2369 0.5347 0.9992
H16A H 0.0690 0.6654 0.8742
N1A N 0.0134(4) 0.7976(3) 0.4057(3)
N2A N -0.0306(4) 0.9039(3) 0.3541(3)
N3A N -0.3095(5) 0.8462(3) 0.4444(3)
N4A N -0.2977(4) 0.9470(3) 0.3914(3)
N5A N -0.3913(4) 0.7018(3) 1.0667(3)
N6A N -0.3245(4) 0.6640(3) 1.1613(3)
N7A N -0.0826(4) 0.7052(3) 1.0018(3)
N8A N -0.0698(4) 0.6638(3) 1.1063(3)
O1A O -0.2609(4) 0.6777(3) 0.6304(2)
O2A O -0.1205(4) 0.8509(3) 0.6488(2)
O3A O -0.3060(4) 0.6715(3) 0.8112(2)
O4A O -0.1922(4) 0.8608(2) 0.8255(2)
Cu2A_2 Cu 0.70675(6) -0.20945(4) -0.05030(4)
O7A_2 O -0.5015(4) 0.8863(2) 0.9131(2)
O8_2 O -0.3236(4) 0.9487(3) 1.0545(3)
H17 H 0.1969 0.6766 0.6384
H18 H 0.2541 0.7231 0.7284
O9 O 0.2636(8) 0.7143(6) 0.6598(7)
H19 H 0.3109 0.8473 0.8469
H20 H 0.1607 0.8983 0.8839
O10 O 0.2205(11) 0.8408(8) 0.8449(7)
H21 H 0.5670 0.3874 0.4021
H22 H 0.4112 0.4071 0.4016
O11 O 0.4823(8) 0.4368(7) 0.4174(5)
O12 O 0.0000 0.0000 0.0000
loop_
_geom_bond_atom_site_label_1
_geom_bond_atom_site_label_2
_geom_bond_site_symmetry_1
_geom_bond_site_symmetry_2
C1 C2 1_555 1_555
C2 C3 1_555 1_555
C3 H3 1_555 1_555
C4 H4 1_555 1_555
C5 C6 1_555 1_555
C6 C7 1_555 1_555
C7 H8 1_555 1_555
C8 C9 1_555 1_555
C9 C10 1_555 1_555
C10 H11 1_555 1_555
C11 H12 1_555 1_555
C12 C13 1_555 1_555
C13 C14 1_555 1_555
C14 H16 1_555 1_555
C15 C16 1_555 1_555
C16 O2 1_555 1_555
C17 O7 1_555 1_555
C18 O5 1_555 1_555
Cu1 N1 1_555 1_555
Cu2 N5 1_555 1_555
H1 C1 1_555 1_555
H2 C2 1_555 1_555
H5 C4 1_555 1_555
H6 C5 1_555 1_555
H7 C6 1_555 1_555
H9 C8 1_555 1_555
H10 C9 1_555 1_555
H13 C11 1_555 1_555
H14 C12 1_555 1_555
H15 C13 1_555 1_555
N1 C1 1_555 1_555
N2 C3 1_555 1_555
N3 C7 1_555 1_555
N4 C4 1_555 1_555
N5 C8 1_555 1_555
N6 C10 1_555 1_555
N7 C14 1_555 1_555
N8 C11 1_555 1_555
O1 C15 1_555 1_555
O2 Cu1 1_555 1_555
O3 C15 1_555 1_555
O4 C16 1_555 1_555
O5 Cu1A 1_555 1_555
O6 C18 1_555 1_555
O7 Cu2 1_555 1_555
O8 C17 1_555 1_555
H17 O9 1_555 1_555
H18 O9 1_555 1_555
H19 O10 1_555 1_555
H20 O10 1_555 1_555
H21 O11 1_555 1_555
H22 O11 1_555 1_555
C17A C17 1_555 1_555
O7A C17A 1_555 1_555
O8A Cu2 1_555 1_555
C18A C18 1_555 1_555
O5A Cu1 1_555 1_555
O6A C18A 1_555 1_555
C1A C2A 1_555 1_555
C2A C3A 1_555 1_555
C3A H3A 1_555 1_555
C4A H4A 1_555 1_555
C5A C6A 1_555 1_555
C6A C7A 1_555 1_555
C7A H8A 1_555 1_555
C8A C9A 1_555 1_555
C9A C10A 1_555 1_555
C10A H11A 1_555 1_555
C11A H12A 1_555 1_555
C12A C13A 1_555 1_555
C13A C14A 1_555 1_555
C14A H16A 1_555 1_555
C15A C16A 1_555 1_555
C16A O2A 1_555 1_555
Cu1A O6A 1_555 1_555
Cu2A N5A 1_555 1_555
H1A C1A 1_555 1_555
H2A C2A 1_555 1_555
H5A C4A 1_555 1_555
H6A C5A 1_555 1_555
H7A C6A 1_555 1_555
H9A C8A 1_555 1_555
H10A C9A 1_555 1_555
H13A C11A 1_555 1_555
H14A C12A 1_555 1_555
H15A C13A 1_555 1_555
N1A C1A 1_555 1_555
N2A C3A 1_555 1_555
N3A C7A 1_555 1_555
N4A C4A 1_555 1_555
N5A C8A 1_555 1_555
N6A C10A 1_555 1_555
N7A C14A 1_555 1_555
N8A C11A 1_555 1_555
O1A C15A 1_555 1_555
O2A Cu1A 1_555 1_555
O3A C15A 1_555 1_555
O4A C16A 1_555 1_555
Cu2A_2 O8 1_555 1_555
O7A_2 Cu2A 1_555 1_555
O8_2 Cu2A 1_555 1_555
C4 N2 1_555 1_555
C5 N4 1_555 1_555
C11 N6 1_555 1_555
C12 N8 1_555 1_555
Cu1 N3 1_555 1_555
Cu1 O1 1_555 1_555
Cu1 O6 1_555 1_555
Cu2 N7 1_555 1_555
Cu2 O3 1_555 1_555
Cu2 O4 1_555 1_555
N1 N2 1_555 1_555
N3 N4 1_555 1_555
N5 N6 1_555 1_555
N7 N8 1_555 1_555
C17A O8A 1_555 1_555
O7A Cu2A_2 1_555 1_555
C18A O5A 1_555 1_555
C4A N2A 1_555 1_555
C5A N4A 1_555 1_555
C11A N6A 1_555 1_555
C12A N8A 1_555 1_555
Cu1A N1A 1_555 1_555
Cu1A N3A 1_555 1_555
Cu1A O1A 1_555 1_555
Cu2A N7A 1_555 1_555
Cu2A O3A 1_555 1_555
Cu2A O4A 1_555 1_555
N1A N2A 1_555 1_555
N3A N4A 1_555 1_555
N5A N6A 1_555 1_555
N7A N8A 1_555 1_555

#END
