
#######################################################################
#
#                 Cambridge Crystallographic Data Centre
#                                CCDC 
#
#######################################################################
#
# If this CIF has been generated from an entry in the Cambridge 
# Structural Database, then it will include bibliographic, chemical, 
# crystal, experimental, refinement or atomic coordinate data resulting 
# from the CCDC's data processing and validation procedures.
#
#######################################################################

data_TIXDIP
_symmetry_cell_setting           monoclinic
_symmetry_space_group_name_H-M   'P 21/n'
_symmetry_Int_Tables_number      14
_space_group_name_Hall           '-P 2yn'
loop_
_symmetry_equiv_pos_site_id
_symmetry_equiv_pos_as_xyz
1 x,y,z
2 1/2-x,1/2+y,1/2-z
3 -x,-y,-z
4 1/2+x,1/2-y,1/2+z
_cell_length_a                   7.2518(2)
_cell_length_b                   8.3493(3)
_cell_length_c                   20.4560(7)
_cell_angle_alpha                90
_cell_angle_beta                 90.762(3)
_cell_angle_gamma                90
_cell_volume                     1238.45
loop_
_atom_site_label
_atom_site_type_symbol
_atom_site_fract_x
_atom_site_fract_y
_atom_site_fract_z
C1 C 0.3853(3) 0.6274(3) 0.28448(13)
C2 C 0.4472(3) 0.5922(3) 0.34696(14)
C3 C 0.3111(3) 0.5026(3) 0.37466(12)
C4 C 0.2936(5) 0.4288(4) 0.44098(15)
C5 C 0.1509(4) 0.4725(3) 0.07187(12)
C6 C 0.2914(4) 0.3935(3) 0.04021(13)
C7 C 0.4207(3) 0.3600(3) 0.08762(12)
C8 C 0.6043(4) 0.2799(4) 0.08494(15)
C9 C -0.2199(3) 0.8281(3) 0.22376(12)
C10 C -0.2553(3) 0.7600(3) 0.15402(12)
Cu1 Cu 0.04320(4) 0.60340(3) 0.201400(13)
H1 H 0.4501 0.6880 0.2543
H2 H 0.5585 0.6231 0.3662
H3 H 0.0763 0.4366 0.3356
H4 H 0.4124 0.4102 0.1806
H5 H 0.2574 0.5093 0.4718
H6 H 0.4101 0.3840 0.4543
H7 H 0.2021 0.3458 0.4394
H8 H 0.0443 0.5105 0.0514
H9 H 0.2969 0.3684 -0.0040
H10 H 0.6888 0.3330 0.1142
H11 H 0.6501 0.2854 0.0412
H12 H 0.5920 0.1698 0.0977
N1 N 0.2204(3) 0.5629(2) 0.27340(9)
N2 N 0.1775(3) 0.4879(2) 0.32954(9)
N3 N 0.1880(3) 0.4872(2) 0.13538(9)
N4 N 0.3552(3) 0.4171(2) 0.14364(10)
O1 O -0.1366(2) 0.6600(2) 0.13463(8)
O2 O -0.3896(3) 0.8062(3) 0.12290(10)
O3 O -0.0720(2) 0.77709(19) 0.25120(8)
O4 O -0.3306(2) 0.9217(2) 0.24703(9)
Cu1A Cu -0.54320(4) 1.10340(3) 0.298600(13)
O4A O -0.1694(2) 0.4217(2) 0.25297(9)
loop_
_geom_bond_atom_site_label_1
_geom_bond_atom_site_label_2
_geom_bond_site_symmetry_1
_geom_bond_site_symmetry_2
C1 C2 1_555 1_555
C2 C3 1_555 1_555
C3 C4 1_555 1_555
C4 H5 1_555 1_555
C5 C6 1_555 1_555
C6 C7 1_555 1_555
C7 C8 1_555 1_555
C8 H10 1_555 1_555
C9 C10 1_555 1_555
C10 O1 1_555 1_555
Cu1 N1 1_555 1_555
H1 C1 1_555 1_555
H2 C2 1_555 1_555
H3 N2 1_555 1_555
H4 N4 1_555 1_555
H6 C4 1_555 1_555
H7 C4 1_555 1_555
H8 C5 1_555 1_555
H9 C6 1_555 1_555
H11 C8 1_555 1_555
H12 C8 1_555 1_555
N1 C1 1_555 1_555
N2 C3 1_555 1_555
N3 C5 1_555 1_555
N4 C7 1_555 1_555
O1 Cu1 1_555 1_555
O2 C10 1_555 1_555
O3 C9 1_555 1_555
O4 C9 1_555 1_555
Cu1A O4 1_555 1_555
O4A Cu1 1_555 1_555
Cu1 N3 1_555 1_555
Cu1 O3 1_555 1_555
N1 N2 1_555 1_555
N3 N4 1_555 1_555

#END
