
#######################################################################
#
#                 Cambridge Crystallographic Data Centre
#                                CCDC 
#
#######################################################################
#
# If this CIF has been generated from an entry in the Cambridge 
# Structural Database, then it will include bibliographic, chemical, 
# crystal, experimental, refinement or atomic coordinate data resulting 
# from the CCDC's data processing and validation procedures.
#
#######################################################################

data_TIXDOV
_symmetry_cell_setting           monoclinic
_symmetry_space_group_name_H-M   'C 2/c'
_symmetry_Int_Tables_number      15
_space_group_name_Hall           '-C 2yn'
loop_
_symmetry_equiv_pos_site_id
_symmetry_equiv_pos_as_xyz
1 x,y,z
2 -x,y,1/2-z
3 1/2+x,1/2+y,z
4 1/2-x,1/2+y,1/2-z
5 -x,-y,-z
6 x,-y,1/2+z
7 1/2-x,1/2-y,-z
8 1/2+x,1/2-y,1/2+z
_cell_length_a                   15.9790(10)
_cell_length_b                   11.3100(8)
_cell_length_c                   8.5968(5)
_cell_angle_alpha                90
_cell_angle_beta                 94.620(6)
_cell_angle_gamma                90
_cell_volume                     1548.59
loop_
_atom_site_label
_atom_site_type_symbol
_atom_site_fract_x
_atom_site_fract_y
_atom_site_fract_z
C1 C 0.05422(19) 0.1539(2) 0.4689(3)
C2 C 0.1066(2) 0.0729(3) 0.5486(4)
C3 C 0.1879(2) 0.0585(3) 0.5098(4)
C4 C 0.21541(18) 0.1265(2) 0.3915(3)
C5 C 0.29079(19) 0.1410(3) 0.3182(3)
C6 C 0.27734(16) 0.2254(3) 0.2087(3)
C7 C 0.15766(15) 0.2079(2) 0.3186(3)
C8 C 0.04060(13) 0.52557(19) 0.4680(2)
Cu1 Cu 0.0000 0.34545(3) 0.2500
H1 H -0.0004 0.1614 0.4974
H2 H 0.0868 0.0280 0.6286
H3 H 0.1736 0.3207 0.1490
H4 H 0.2234 0.0040 0.5624
H5 H 0.3406 0.0997 0.3413
H6 H 0.3168 0.2520 0.1429
N1 N 0.07784(12) 0.22210(17) 0.3531(2)
N2 N 0.19597(12) 0.2665(2) 0.2091(2)
O1 O 0.06991(9) 0.47180(14) 0.35727(17)
O2 O 0.07098(9) 0.61582(14) 0.53255(17)
C8D C -0.04060(13) 0.47443(19) 0.5320(2)
O1D O -0.06991(9) 0.52820(14) 0.64273(17)
O2D O -0.07098(9) 0.38418(14) 0.46745(17)
C1A C -0.05422(19) 0.1539(2) 0.0311(3)
C2A C -0.1066(2) 0.0729(3) -0.0486(4)
C3A C -0.1879(2) 0.0585(3) -0.0098(4)
C4A C -0.21541(18) 0.1265(2) 0.1085(3)
C5A C -0.29079(19) 0.1410(3) 0.1818(3)
C6A C -0.27734(16) 0.2254(3) 0.2913(3)
C7A C -0.15766(15) 0.2079(2) 0.1814(3)
H1A H 0.0004 0.1614 0.0026
H2A H -0.0868 0.0280 -0.1286
H3A H -0.1736 0.3207 0.3510
H4A H -0.2234 0.0040 -0.0624
H5A H -0.3406 0.0997 0.1587
H6A H -0.3168 0.2520 0.3571
N1A N -0.07784(12) 0.22210(17) 0.1469(2)
N2A N -0.19597(12) 0.2665(2) 0.2909(2)
Cu1D Cu 0.0000 0.65455(3) 0.7500
O1A O -0.06991(9) 0.47180(14) 0.14273(17)
O2E O 0.07098(9) 0.38418(14) 0.03255(17)
loop_
_geom_bond_atom_site_label_1
_geom_bond_atom_site_label_2
_geom_bond_site_symmetry_1
_geom_bond_site_symmetry_2
C1 C2 1_555 1_555
C2 C3 1_555 1_555
C3 C4 1_555 1_555
C4 C5 1_555 1_555
C5 C6 1_555 1_555
C6 H6 1_555 1_555
C7 C4 1_555 1_555
C8 O1 1_555 1_555
Cu1 N1 1_555 1_555
H1 C1 1_555 1_555
H2 C2 1_555 1_555
H3 N2 1_555 1_555
H4 C3 1_555 1_555
H5 C5 1_555 1_555
N1 C1 1_555 1_555
N2 C6 1_555 1_555
O1 Cu1 1_555 1_555
O2 C8 1_555 1_555
C8D C8 1_555 1_555
O1D C8D 1_555 1_555
O2D Cu1 1_555 1_555
C1A C2A 1_555 1_555
C2A C3A 1_555 1_555
C3A C4A 1_555 1_555
C4A C5A 1_555 1_555
C5A C6A 1_555 1_555
C6A H6A 1_555 1_555
C7A C4A 1_555 1_555
H1A C1A 1_555 1_555
H2A C2A 1_555 1_555
H3A N2A 1_555 1_555
H4A C3A 1_555 1_555
H5A C5A 1_555 1_555
N1A Cu1 1_555 1_555
N2A C6A 1_555 1_555
Cu1D O2 1_555 1_555
O1A Cu1 1_555 1_555
O2E Cu1 1_555 1_555
C7 N1 1_555 1_555
C7 N2 1_555 1_555
C8D O2D 1_555 1_555
O1D Cu1D 1_555 1_555
C1A N1A 1_555 1_555
C7A N1A 1_555 1_555
C7A N2A 1_555 1_555

#END
