
#######################################################################
#
#                 Cambridge Crystallographic Data Centre
#                                CCDC 
#
#######################################################################
#
# If this CIF has been generated from an entry in the Cambridge 
# Structural Database, then it will include bibliographic, chemical, 
# crystal, experimental, refinement or atomic coordinate data resulting 
# from the CCDC's data processing and validation procedures.
#
#######################################################################

data_TIXFEN
_symmetry_cell_setting           triclinic
_symmetry_space_group_name_H-M   'P -1'
_symmetry_Int_Tables_number      2
_space_group_name_Hall           '-P 1'
loop_
_symmetry_equiv_pos_site_id
_symmetry_equiv_pos_as_xyz
1 x,y,z
2 -x,-y,-z
_cell_length_a                   7.6832(5)
_cell_length_b                   8.8480(6)
_cell_length_c                   10.4914(7)
_cell_angle_alpha                98.405(6)
_cell_angle_beta                 90.733(5)
_cell_angle_gamma                101.710(6)
_cell_volume                     690.207
loop_
_atom_site_label
_atom_site_type_symbol
_atom_site_fract_x
_atom_site_fract_y
_atom_site_fract_z
C1 C 0.5256(3) 0.7922(3) 0.2528(3)
C2 C 0.6181(4) 0.9402(3) 0.2508(3)
C3 C 0.5472(4) 1.0631(4) 0.3065(3)
C4 C 0.3878(4) 1.0332(3) 0.3629(3)
C5 C 0.3020(4) 0.8811(3) 0.3654(3)
C6 C 0.1265(4) 0.8429(3) 0.4277(4)
C7 C -0.0168(4) 0.7409(3) 0.3367(4)
C8 C 0.1661(4) 0.2983(3) 0.0808(3)
C9 C 0.1070(3) 0.2256(3) 0.2036(3)
C10 C 0.4445(3) 0.5227(3) 0.5586(3)
Cu1 Cu 0.25290(4) 0.53646(3) 0.31599(3)
Cu2 Cu 0.0000 0.0000 0.0000
H1 H 0.5723 0.7093 0.2127
H2 H 0.7273 0.9578 0.2123
H3 H -0.0422 0.5362 0.2339
H4 H -0.0532 0.5270 0.3701
H5 H 0.6072 1.1654 0.3057
H6 H 0.3370 1.1152 0.3998
H7 H 0.1417 0.7904 0.5008
H8 H 0.0893 0.9393 0.4600
H9 H -0.1318 0.7424 0.3733
H10 H -0.0158 0.7820 0.2559
H11 H -0.3488 0.0767 -0.0965
H12 H -0.2837 0.1867 0.0308
N1 N 0.3701(3) 0.7605(2) 0.3101(2)
N2 N 0.0087(3) 0.5791(3) 0.3120(3)
O1 O 0.1346(2) 0.3079(2) 0.31010(19)
O2 O 0.2436(3) 0.4367(2) 0.09514(19)
O3 O 0.0325(3) 0.0826(2) 0.18301(19)
O4 O 0.1281(3) 0.2079(2) -0.0242(2)
O5 O 0.2994(2) 0.5559(2) 0.53527(18)
O6 O 0.5090(2) 0.5221(2) 0.66912(18)
O7 O -0.2899(4) 0.0925(3) -0.0112(3)
C10A C 0.5555(3) 0.4773(3) 0.4414(3)
O5A O 0.7006(2) 0.4441(2) 0.46473(18)
O6A O 0.4910(2) 0.4779(2) 0.33088(18)
C1A C -0.5256(3) -0.7922(3) -0.2528(3)
C2A C -0.6181(4) -0.9402(3) -0.2508(3)
C3A C -0.5472(4) -1.0631(4) -0.3065(3)
C4A C -0.3878(4) -1.0332(3) -0.3629(3)
C5A C -0.3020(4) -0.8811(3) -0.3654(3)
C6A C -0.1265(4) -0.8429(3) -0.4277(4)
C7A C 0.0168(4) -0.7409(3) -0.3367(4)
C8A C -0.1661(4) -0.2983(3) -0.0808(3)
C9A C -0.1070(3) -0.2256(3) -0.2036(3)
Cu1A Cu -0.25290(4) -0.53646(3) -0.31599(3)
H1A H -0.5723 -0.7093 -0.2127
H2A H -0.7273 -0.9578 -0.2123
H3A H 0.0422 -0.5362 -0.2339
H4A H 0.0532 -0.5270 -0.3701
H5A H -0.6072 -1.1654 -0.3057
H6A H -0.3370 -1.1152 -0.3998
H7A H -0.1417 -0.7904 -0.5008
H8A H -0.0893 -0.9393 -0.4600
H9A H 0.1318 -0.7424 -0.3733
H10A H 0.0158 -0.7820 -0.2559
H11A H 0.3488 -0.0767 0.0965
H12A H 0.2837 -0.1867 -0.0308
N1A N -0.3701(3) -0.7605(2) -0.3101(2)
N2A N -0.0087(3) -0.5791(3) -0.3120(3)
O1A O -0.1346(2) -0.3079(2) -0.31010(19)
O2A O -0.2436(3) -0.4367(2) -0.09514(19)
O3A O -0.0325(3) -0.0826(2) -0.18301(19)
O4A O -0.1281(3) -0.2079(2) 0.0242(2)
O7A O 0.2899(4) -0.0925(3) 0.0112(3)
Cu1A_2 Cu 0.74710(4) 0.46354(3) 0.68401(3)
O5A_2 O -0.2994(2) -0.5559(2) -0.53527(18)
O6_2 O -0.4910(2) -0.4779(2) -0.33088(18)
H13 H -0.2751 0.4462 0.0496
H14 H -0.3788 0.4071 0.1705
O8 O -0.2845(3) 0.3947(2) 0.1131(2)
loop_
_geom_bond_atom_site_label_1
_geom_bond_atom_site_label_2
_geom_bond_site_symmetry_1
_geom_bond_site_symmetry_2
C1 C2 1_555 1_555
C2 C3 1_555 1_555
C3 C4 1_555 1_555
C4 C5 1_555 1_555
C5 C6 1_555 1_555
C6 C7 1_555 1_555
C7 H9 1_555 1_555
C8 C9 1_555 1_555
C9 O1 1_555 1_555
C10 O5 1_555 1_555
Cu1 N1 1_555 1_555
Cu2 O3 1_555 1_555
H1 C1 1_555 1_555
H2 C2 1_555 1_555
H3 N2 1_555 1_555
H4 N2 1_555 1_555
H5 C3 1_555 1_555
H6 C4 1_555 1_555
H7 C6 1_555 1_555
H8 C6 1_555 1_555
H10 C7 1_555 1_555
H11 O7 1_555 1_555
H12 O7 1_555 1_555
N1 C1 1_555 1_555
N2 C7 1_555 1_555
O1 Cu1 1_555 1_555
O2 C8 1_555 1_555
O3 C9 1_555 1_555
O4 C8 1_555 1_555
O5 Cu1 1_555 1_555
O6 C10 1_555 1_555
O7 Cu2 1_555 1_555
H13 O8 1_555 1_555
H14 O8 1_555 1_555
C10A C10 1_555 1_555
O5A C10A 1_555 1_555
O6A Cu1 1_555 1_555
C1A C2A 1_555 1_555
C2A C3A 1_555 1_555
C3A C4A 1_555 1_555
C4A C5A 1_555 1_555
C5A C6A 1_555 1_555
C6A C7A 1_555 1_555
C7A H9A 1_555 1_555
C8A C9A 1_555 1_555
C9A O1A 1_555 1_555
Cu1A N1A 1_555 1_555
H1A C1A 1_555 1_555
H2A C2A 1_555 1_555
H3A N2A 1_555 1_555
H4A N2A 1_555 1_555
H5A C3A 1_555 1_555
H6A C4A 1_555 1_555
H7A C6A 1_555 1_555
H8A C6A 1_555 1_555
H10A C7A 1_555 1_555
H11A O7A 1_555 1_555
H12A O7A 1_555 1_555
N1A C1A 1_555 1_555
N2A C7A 1_555 1_555
O1A Cu1A 1_555 1_555
O2A C8A 1_555 1_555
O3A Cu2 1_555 1_555
O4A Cu2 1_555 1_555
O7A Cu2 1_555 1_555
Cu1A_2 O6 1_555 1_555
O5A_2 Cu1A 1_555 1_555
O6_2 Cu1A 1_555 1_555
C5 N1 1_555 1_555
Cu1 N2 1_555 1_555
Cu1 O2 1_555 1_555
Cu2 O4 1_555 1_555
C10A O6A 1_555 1_555
O5A Cu1A_2 1_555 1_555
C5A N1A 1_555 1_555
C8A O4A 1_555 1_555
C9A O3A 1_555 1_555
Cu1A N2A 1_555 1_555
Cu1A O2A 1_555 1_555

#END
