
#######################################################################
#
#                 Cambridge Crystallographic Data Centre
#                                CCDC 
#
#######################################################################
#
# If this CIF has been generated from an entry in the Cambridge 
# Structural Database, then it will include bibliographic, chemical, 
# crystal, experimental, refinement or atomic coordinate data resulting 
# from the CCDC's data processing and validation procedures.
#
#######################################################################

data_TIXJOA
_symmetry_cell_setting           triclinic
_symmetry_space_group_name_H-M   'P -1'
_symmetry_Int_Tables_number      2
_space_group_name_Hall           '-P 1'
loop_
_symmetry_equiv_pos_site_id
_symmetry_equiv_pos_as_xyz
1 x,y,z
2 -x,-y,-z
_cell_length_a                   9.6598(18)
_cell_length_b                   10.660(2)
_cell_length_c                   20.077(4)
_cell_angle_alpha                93.212(11)
_cell_angle_beta                 97.418(11)
_cell_angle_gamma                90.266(13)
_cell_volume                     2046.73
loop_
_atom_site_label
_atom_site_type_symbol
_atom_site_fract_x
_atom_site_fract_y
_atom_site_fract_z
K1 K -0.3776(2) 0.26326(18) 0.27572(10)
Mg1 Mg -0.8837(3) 0.4403(2) 0.29103(12)
P1 P -0.6450(2) 0.45853(19) 0.24587(10)
P2 P 0.1494(2) 0.30969(18) 0.39570(10)
P3 P -0.1113(2) 0.3825(2) 0.21528(10)
O1 O -0.9187(6) 0.6149(5) 0.3313(3)
O2 O -0.4355(8) 0.0882(7) 0.1723(3)
C1 C -0.6633(7) 0.5677(7) 0.1787(4)
C2 C -0.6624(8) 0.6979(8) 0.1886(4)
H1 H -0.6469 0.7343 0.2333
C3 C -0.6831(9) 0.7752(8) 0.1364(5)
H2 H -0.6780 0.8637 0.1456
C4 C -0.7109(8) 0.7287(10) 0.0715(5)
H3 H -0.7271 0.7833 0.0356
C5 C -0.7150(9) 0.6018(10) 0.0594(4)
H4 H -0.7357 0.5675 0.0145
C6 C -0.6891(8) 0.5206(8) 0.1122(4)
H5 H -0.6892 0.4324 0.1024
C7 C -0.5313(7) 0.5468(7) 0.3133(4)
C8 C -0.5519(9) 0.5441(8) 0.3810(4)
H6 H -0.6300 0.4998 0.3927
C9 C -0.4594(9) 0.6055(8) 0.4313(4)
H7 H -0.4757 0.6017 0.4768
C10 C -0.3476(9) 0.6701(8) 0.4175(4)
H8 H -0.2849 0.7108 0.4525
C11 C -0.3267(9) 0.6757(9) 0.3506(4)
H9 H -0.2491 0.7219 0.3397
C12 C -0.4161(8) 0.6154(8) 0.2999(4)
H10 H -0.3989 0.6208 0.2546
C13 C 0.2474(8) 0.1663(6) 0.3795(4)
C14 C 0.2825(9) 0.0808(7) 0.4309(4)
H11 H 0.2500 0.0963 0.4733
C15 C 0.3610(10) -0.0223(8) 0.4211(5)
H12 H 0.3798 -0.0784 0.4562
C16 C 0.4149(8) -0.0473(8) 0.3605(5)
H13 H 0.4740 -0.1171 0.3550
C17 C 0.3806(9) 0.0307(8) 0.3093(4)
H14 H 0.4115 0.0127 0.2668
C18 C 0.2997(8) 0.1377(7) 0.3195(4)
H15 H 0.2801 0.1925 0.2839
C19 C -0.0260(8) 0.2580(7) 0.4057(3)
C20 C -0.1236(10) 0.3475(8) 0.4215(4)
H16 H -0.0958 0.4335 0.4260
C21 C -0.2582(10) 0.3169(9) 0.4309(4)
H17 H -0.3201 0.3813 0.4422
C22 C -0.3047(10) 0.1907(10) 0.4236(4)
H18 H -0.3975 0.1685 0.4296
C23 C -0.2103(9) 0.1008(8) 0.4076(4)
H19 H -0.2394 0.0151 0.4024
C24 C -0.0742(9) 0.1314(7) 0.3990(4)
H20 H -0.0122 0.0665 0.3884
C25 C -0.0431(8) 0.2496(7) 0.1676(4)
C26 C -0.0037(9) 0.1436(8) 0.2037(4)
H21 H -0.0122 0.1448 0.2504
C27 C 0.0476(10) 0.0366(8) 0.1725(5)
H22 H 0.0767 -0.0331 0.1981
C28 C 0.0557(11) 0.0322(8) 0.1050(5)
H23 H 0.0872 -0.0417 0.0832
C29 C 0.0182(10) 0.1351(8) 0.0686(4)
H24 H 0.0265 0.1328 0.0219
C30 C -0.0322(9) 0.2434(8) 0.0998(4)
H25 H -0.0592 0.3133 0.0739
C31 C -0.1509(8) 0.5000(7) 0.1529(4)
C32 C -0.0504(9) 0.5617(9) 0.1232(4)
H26 H 0.0446 0.5393 0.1337
C33 C -0.0838(10) 0.6551(9) 0.0787(5)
H27 H -0.0124 0.6961 0.0594
C34 C -0.2218(9) 0.6880(8) 0.0625(5)
H28 H -0.2455 0.7521 0.0322
C35 C -0.3238(9) 0.6285(9) 0.0902(5)
H29 H -0.4186 0.6512 0.0791
C36 C -0.2898(9) 0.5353(8) 0.1343(4)
H30 H -0.3624 0.4940 0.1527
C37 C -0.8821(15) 0.6667(9) 0.3992(5)
H31 H -0.7796 0.6778 0.4094
H32 H -0.9138 0.6096 0.4315
C38 C -0.9504(10) 0.7875(8) 0.4044(5)
H33 H -0.8922 0.8475 0.4356
H34 H -1.0424 0.7781 0.4204
C39 C -0.9667(10) 0.8304(7) 0.3345(4)
H35 H -0.8879 0.8863 0.3281
H36 H -1.0550 0.8768 0.3250
C40 C -0.9683(14) 0.7139(8) 0.2894(5)
H37 H -1.0642 0.6946 0.2672
H38 H -0.9068 0.7246 0.2542
C41 C -0.5326(19) 0.1416(17) 0.1165(10)
H39 H -0.5902 0.0745 0.0901
H40 H -0.5949 0.2048 0.1346
C42 C -0.454(2) 0.190(2) 0.0821(12)
H41 H -0.5086 0.2296 0.0445
H42 H -0.3939 0.1257 0.0645
H43 H -0.3956 0.2541 0.1097
C43 C -0.3514(11) -0.0150(10) 0.1512(5)
H44 H -0.2727 0.0170 0.1297
H45 H -0.4086 -0.0730 0.1182
C44 C -0.2959(13) -0.0843(12) 0.2146(6)
H46 H -0.2386 -0.1551 0.2020
H47 H -0.3747 -0.1155 0.2354
H48 H -0.2392 -0.0261 0.2467
Mg1_2 Mg 0.1163(3) 0.4403(2) 0.29103(12)
P2_2 P -0.8506(2) 0.30969(18) 0.39570(10)
P3_2 P -1.1113(2) 0.3825(2) 0.21528(10)
loop_
_geom_bond_atom_site_label_1
_geom_bond_atom_site_label_2
_geom_bond_site_symmetry_1
_geom_bond_site_symmetry_2
K1 P1 1_555 1_555
Mg1 P1 1_555 1_555
P1 C1 1_555 1_555
P2 C13 1_555 1_555
P3 K1 1_555 1_555
O1 Mg1 1_555 1_555
O2 K1 1_555 1_555
C1 C2 1_555 1_555
C2 H1 1_555 1_555
C3 C2 1_555 1_555
H2 C3 1_555 1_555
C4 C3 1_555 1_555
H3 C4 1_555 1_555
C5 C4 1_555 1_555
H4 C5 1_555 1_555
C6 C1 1_555 1_555
H5 C6 1_555 1_555
C7 P1 1_555 1_555
C8 C7 1_555 1_555
H6 C8 1_555 1_555
C9 C8 1_555 1_555
H7 C9 1_555 1_555
C10 C9 1_555 1_555
H8 C10 1_555 1_555
C11 C10 1_555 1_555
H9 C11 1_555 1_555
C12 C7 1_555 1_555
H10 C12 1_555 1_555
C13 C14 1_555 1_555
C14 H11 1_555 1_555
C15 C14 1_555 1_555
H12 C15 1_555 1_555
C16 C15 1_555 1_555
H13 C16 1_555 1_555
C17 C16 1_555 1_555
H14 C17 1_555 1_555
C18 C13 1_555 1_555
H15 C18 1_555 1_555
C19 P2 1_555 1_555
C20 C19 1_555 1_555
H16 C20 1_555 1_555
C21 K1 1_555 1_555
H17 C21 1_555 1_555
C22 K1 1_555 1_555
H18 C22 1_555 1_555
C23 C22 1_555 1_555
H19 C23 1_555 1_555
C24 C19 1_555 1_555
H20 C24 1_555 1_555
C25 P3 1_555 1_555
C26 C25 1_555 1_555
H21 C26 1_555 1_555
C27 C26 1_555 1_555
H22 C27 1_555 1_555
C28 C27 1_555 1_555
H23 C28 1_555 1_555
C29 C28 1_555 1_555
H24 C29 1_555 1_555
C30 C25 1_555 1_555
H25 C30 1_555 1_555
C31 P3 1_555 1_555
C32 C31 1_555 1_555
H26 C32 1_555 1_555
C33 C32 1_555 1_555
H27 C33 1_555 1_555
C34 C33 1_555 1_555
H28 C34 1_555 1_555
C35 C34 1_555 1_555
H29 C35 1_555 1_555
C36 C31 1_555 1_555
H30 C36 1_555 1_555
C37 O1 1_555 1_555
H31 C37 1_555 1_555
H32 C37 1_555 1_555
C38 C37 1_555 1_555
H33 C38 1_555 1_555
H34 C38 1_555 1_555
C39 C38 1_555 1_555
H35 C39 1_555 1_555
H36 C39 1_555 1_555
C40 O1 1_555 1_555
H37 C40 1_555 1_555
H38 C40 1_555 1_555
C41 O2 1_555 1_555
H39 C41 1_555 1_555
H40 C41 1_555 1_555
C42 C41 1_555 1_555
H41 C42 1_555 1_555
H42 C42 1_555 1_555
H43 C42 1_555 1_555
C43 O2 1_555 1_555
H44 C43 1_555 1_555
H45 C43 1_555 1_555
C44 C43 1_555 1_555
H46 C44 1_555 1_555
H47 C44 1_555 1_555
H48 C44 1_555 1_555
Mg1_2 P2 1_555 1_555
P2_2 Mg1 1_555 1_555
P3_2 Mg1 1_555 1_555
P3 Mg1_2 1_555 1_555
C5 C6 1_555 1_555
C11 C12 1_555 1_555
C17 C18 1_555 1_555
C20 C21 1_555 1_555
C21 C22 1_555 1_555
C23 C24 1_555 1_555
C29 C30 1_555 1_555
C35 C36 1_555 1_555
C39 C40 1_555 1_555

#END
