
#######################################################################
#
#                 Cambridge Crystallographic Data Centre
#                                CCDC 
#
#######################################################################
#
# If this CIF has been generated from an entry in the Cambridge 
# Structural Database, then it will include bibliographic, chemical, 
# crystal, experimental, refinement or atomic coordinate data resulting 
# from the CCDC's data processing and validation procedures.
#
#######################################################################

data_TIXJAM
_symmetry_cell_setting           orthorhombic
_symmetry_space_group_name_H-M   'P b c a'
_symmetry_Int_Tables_number      61
_space_group_name_Hall           '-P 2ac 2ab'
loop_
_symmetry_equiv_pos_site_id
_symmetry_equiv_pos_as_xyz
1 x,y,z
2 1/2-x,-y,1/2+z
3 -x,1/2+y,1/2-z
4 1/2+x,1/2-y,-z
5 -x,-y,-z
6 1/2+x,y,1/2-z
7 x,1/2-y,1/2+z
8 1/2-x,1/2+y,z
_cell_length_a                   20.0202(5)
_cell_length_b                   8.7848(2)
_cell_length_c                   39.2963(10)
_cell_angle_alpha                90
_cell_angle_beta                 90
_cell_angle_gamma                90
_cell_volume                     6911.18
loop_
_atom_site_label
_atom_site_type_symbol
_atom_site_fract_x
_atom_site_fract_y
_atom_site_fract_z
Mg1 Mg 0.75294(3) 0.16277(7) 1.003056(15)
P1 P 0.73202(2) 0.40993(5) 0.967822(12)
O1 O 0.66217(6) 0.11990(15) 1.02496(3)
C1 C 0.82653(10) 0.1743(2) 1.04231(5)
H1 H 0.8692 0.2094 1.0323
H2 H 0.8124 0.2508 1.0594
C2 C 0.83801(11) 0.0228(3) 1.06017(6)
H3 H 0.8732 0.0345 1.0773
H4 H 0.8516 -0.0538 1.0434
H5 H 0.7966 -0.0098 1.0713
C3 C 0.64748(9) 0.38967(19) 0.95034(5)
C4 C 0.63347(10) 0.2964(2) 0.92257(5)
H6 H 0.6693 0.2485 0.9109
C5 C 0.56859(10) 0.2718(3) 0.91156(6)
H7 H 0.5604 0.2081 0.8925
C6 C 0.51573(10) 0.3400(3) 0.92836(6)
H8 H 0.4712 0.3227 0.9210
C7 C 0.52821(10) 0.4331(2) 0.95584(6)
H9 H 0.4921 0.4804 0.9674
C8 C 0.59325(9) 0.4582(2) 0.96678(5)
H10 H 0.6011 0.5230 0.9857
C9 C 0.78699(9) 0.3950(2) 0.93061(5)
C10 C 0.84603(10) 0.3106(2) 0.93321(6)
H11 H 0.8562 0.2601 0.9539
C11 C 0.88992(11) 0.2995(3) 0.90609(7)
H12 H 0.9299 0.2423 0.9084
C12 C 0.87573(12) 0.3711(3) 0.87570(7)
H13 H 0.9056 0.3629 0.8570
C13 C 0.81776(12) 0.4548(3) 0.87265(6)
H14 H 0.8079 0.5043 0.8518
C14 C 0.77366(10) 0.4676(2) 0.89978(5)
H15 H 0.7341 0.5263 0.8973
C15 C 0.60153(10) 0.0721(3) 1.00799(6)
H16 H 0.6055 -0.0347 1.0002
H17 H 0.5925 0.1376 0.9880
C16 C 0.54675(13) 0.0871(4) 1.03360(7)
H18 H 0.5136 0.1635 1.0259
H19 H 0.5237 -0.0116 1.0366
C17 C 0.57768(11) 0.1359(3) 1.06599(6)
H20 H 0.5599 0.0758 1.0853
H21 H 0.5690 0.2452 1.0703
C18 C 0.65132(11) 0.1071(2) 1.06134(5)
H22 H 0.6781 0.1836 1.0738
H23 H 0.6636 0.0043 1.0696
Mg1G Mg 0.74706(3) 0.66277(7) 1.003056(15)
P1G P 0.76798(2) -0.09007(5) 0.967822(12)
Mg2 Mg 0.74470(3) 0.65933(7) 0.693934(16)
P2 P 0.76342(2) 0.41085(5) 0.729863(13)
O2 O 0.83991(6) 0.68225(15) 0.67678(3)
C19 C 0.68328(12) 0.6277(3) 0.64965(6)
H24 H 0.7054 0.6872 0.6315
H25 H 0.6891 0.5194 0.6433
C20 C 0.60967(13) 0.6588(3) 0.64532(7)
H26 H 0.5956 0.6271 0.6225
H27 H 0.6012 0.7679 0.6482
H28 H 0.5844 0.6016 0.6624
C21 C 0.71081(9) 0.4280(2) 0.76790(5)
C22 C 0.65668(10) 0.5277(2) 0.76747(6)
H29 H 0.6474 0.5842 0.7474
C23 C 0.61608(11) 0.5462(3) 0.79572(6)
H30 H 0.5796 0.6152 0.7949
C24 C 0.62824(11) 0.4653(3) 0.82491(6)
H31 H 0.6004 0.4782 0.8443
C25 C 0.68137(11) 0.3649(3) 0.82585(6)
H32 H 0.6898 0.3078 0.8459
C26 C 0.72260(10) 0.3465(2) 0.79775(5)
H33 H 0.7592 0.2778 0.7989
C27 C 0.84818(9) 0.43387(19) 0.74648(5)
C28 C 0.86268(10) 0.5196(2) 0.77538(5)
H34 H 0.8270 0.5603 0.7885
C29 C 0.92786(10) 0.5468(3) 0.78538(6)
H35 H 0.9365 0.6054 0.8052
C30 C 0.98057(10) 0.4890(3) 0.76661(6)
H36 H 1.0253 0.5091 0.7733
C31 C 0.96766(10) 0.4020(2) 0.73817(6)
H37 H 1.0036 0.3613 0.7253
C32 C 0.90198(10) 0.3737(2) 0.72828(6)
H38 H 0.8937 0.3125 0.7088
C33 C 0.86265(11) 0.6079(3) 0.64601(6)
H39 H 0.8477 0.6647 0.6256
H40 H 0.8452 0.5026 0.6447
C34 C 0.93782(11) 0.6079(3) 0.64853(6)
H41 H 0.9541 0.5190 0.6616
H42 H 0.9588 0.6075 0.6257
C35 C 0.95170(10) 0.7544(2) 0.66704(6)
H43 H 0.9509 0.8422 0.6512
H44 H 0.9956 0.7510 0.6787
C36 C 0.89513(10) 0.7639(2) 0.69252(5)
H45 H 0.9080 0.7155 0.7143
H46 H 0.8828 0.8712 0.6969
Mg2G Mg 0.75530(3) 0.15933(7) 0.693934(16)
P2G P 0.73658(2) 0.91085(5) 0.729863(13)
loop_
_geom_bond_atom_site_label_1
_geom_bond_atom_site_label_2
_geom_bond_site_symmetry_1
_geom_bond_site_symmetry_2
Mg1 P1 1_555 1_555
P1 C3 1_555 1_555
O1 Mg1 1_555 1_555
C1 Mg1 1_555 1_555
H1 C1 1_555 1_555
H2 C1 1_555 1_555
C2 C1 1_555 1_555
H3 C2 1_555 1_555
H4 C2 1_555 1_555
H5 C2 1_555 1_555
C3 C4 1_555 1_555
C4 H6 1_555 1_555
C5 C4 1_555 1_555
H7 C5 1_555 1_555
C6 C5 1_555 1_555
H8 C6 1_555 1_555
C7 C6 1_555 1_555
H9 C7 1_555 1_555
C8 C3 1_555 1_555
H10 C8 1_555 1_555
C9 P1 1_555 1_555
C10 C9 1_555 1_555
H11 C10 1_555 1_555
C11 C10 1_555 1_555
H12 C11 1_555 1_555
C12 C11 1_555 1_555
H13 C12 1_555 1_555
C13 C12 1_555 1_555
H14 C13 1_555 1_555
C14 C9 1_555 1_555
H15 C14 1_555 1_555
C15 O1 1_555 1_555
H16 C15 1_555 1_555
H17 C15 1_555 1_555
C16 C15 1_555 1_555
H18 C16 1_555 1_555
H19 C16 1_555 1_555
C17 C16 1_555 1_555
H20 C17 1_555 1_555
H21 C17 1_555 1_555
C18 O1 1_555 1_555
H22 C18 1_555 1_555
H23 C18 1_555 1_555
Mg2 P2 1_555 1_555
P2 C21 1_555 1_555
O2 Mg2 1_555 1_555
C19 Mg2 1_555 1_555
H24 C19 1_555 1_555
H25 C19 1_555 1_555
C20 C19 1_555 1_555
H26 C20 1_555 1_555
H27 C20 1_555 1_555
H28 C20 1_555 1_555
C21 C22 1_555 1_555
C22 H29 1_555 1_555
C23 C22 1_555 1_555
H30 C23 1_555 1_555
C24 C23 1_555 1_555
H31 C24 1_555 1_555
C25 C24 1_555 1_555
H32 C25 1_555 1_555
C26 C21 1_555 1_555
H33 C26 1_555 1_555
C27 P2 1_555 1_555
C28 C27 1_555 1_555
H34 C28 1_555 1_555
C29 C28 1_555 1_555
H35 C29 1_555 1_555
C30 C29 1_555 1_555
H36 C30 1_555 1_555
C31 C30 1_555 1_555
H37 C31 1_555 1_555
C32 C27 1_555 1_555
H38 C32 1_555 1_555
C33 O2 1_555 1_555
H39 C33 1_555 1_555
H40 C33 1_555 1_555
C34 C33 1_555 1_555
H41 C34 1_555 1_555
H42 C34 1_555 1_555
C35 C34 1_555 1_555
H43 C35 1_555 1_555
H44 C35 1_555 1_555
C36 O2 1_555 1_555
H45 C36 1_555 1_555
H46 C36 1_555 1_555
Mg1G P1 1_555 1_555
P1G Mg1 1_555 1_555
Mg2G P2 1_555 1_555
P2G Mg2 1_555 1_555
C7 C8 1_555 1_555
C13 C14 1_555 1_555
C17 C18 1_555 1_555
C25 C26 1_555 1_555
C31 C32 1_555 1_555
C35 C36 1_555 1_555

#END
