
#######################################################################
#
#                 Cambridge Crystallographic Data Centre
#                                CCDC 
#
#######################################################################
#
# If this CIF has been generated from an entry in the Cambridge 
# Structural Database, then it will include bibliographic, chemical, 
# crystal, experimental, refinement or atomic coordinate data resulting 
# from the CCDC's data processing and validation procedures.
#
#######################################################################

data_TIXKUI
_symmetry_cell_setting           trigonal
_symmetry_space_group_name_H-M   'P 31 2 1'
_symmetry_Int_Tables_number      152
_space_group_name_Hall           'P 31 2"'
loop_
_symmetry_equiv_pos_site_id
_symmetry_equiv_pos_as_xyz
1 x,y,z
2 -y,x-y,1/3+z
3 -x+y,-x,2/3+z
4 y,x,-z
5 x-y,-y,2/3-z
6 -x,-x+y,1/3-z
_cell_length_a                   16.6260(14)
_cell_length_b                   16.6260(14)
_cell_length_c                   23.983(2)
_cell_angle_alpha                90
_cell_angle_beta                 90
_cell_angle_gamma                120
_cell_volume                     5741.29
loop_
_atom_site_label
_atom_site_type_symbol
_atom_site_fract_x
_atom_site_fract_y
_atom_site_fract_z
Co1 Co 0.41897(2) 0.29857(2) -0.023166(12)
C1 C 0.46822(16) 0.42142(15) 0.08010(9)
C2 C 0.52084(17) 0.44894(16) 0.13452(10)
C3 C 0.55511(18) 0.39502(17) 0.15691(10)
H1 H 0.5490 0.3446 0.1367
C4 C 0.59780(18) 0.41413(17) 0.20821(10)
C5 C 0.60683(19) 0.49027(19) 0.23667(11)
H2 H 0.6348 0.5036 0.2716
C6 C 0.53065(18) 0.52382(16) 0.16463(9)
H3 H 0.5065 0.5596 0.1507
C7 C 0.57673(18) 0.54662(25) 0.21602(10)
C8 C 0.58727(19) 0.62860(26) 0.24722(10)
C9 C 0.6036(2) 0.70904(27) 0.22202(11)
H4 H 0.6104 0.7149 0.1835
C10 C 0.61005(19) 0.78177(25) 0.25347(11)
H5 H 0.6220 0.8359 0.2350
C11 C 0.5860(2) 0.70114(28) 0.33292(11)
H6 H 0.5799 0.6973 0.3715
C12 C 0.5797(2) 0.6266(3) 0.30516(11)
H7 H 0.5704 0.5744 0.3248
C13 C 0.6592(2) 0.28057(28) 0.30982(11)
H8 H 0.6608 0.2747 0.3483
C14 C 0.6326(2) 0.3410(3) 0.28945(12)
H9 H 0.6167 0.3742 0.3139
C15 C 0.62938(18) 0.35252(25) 0.23228(10)
C16 C 0.6553(2) 0.29992(27) 0.19991(10)
H10 H 0.6560 0.3049 0.1612
C17 C 0.6796(2) 0.24147(27) 0.22404(11)
H11 H 0.6951 0.2065 0.2008
C18 C 0.2653(2) 0.1695(2) -0.10105(11)
C19 C 0.22415(19) 0.08256(19) -0.13594(12)
C20 C 0.1320(2) 0.0409(3) -0.15139(17)
H12 H 0.0969 0.0680 -0.1412
C21 C 0.27215(19) 0.0407(2) -0.15154(12)
H13 H 0.3344 0.0675 -0.1416
N1 N 0.60015(14) 0.77854(19) 0.30839(8)
N2 N 0.68256(13) 0.23077(18) 0.27877(8)
O1 O 0.41117(12) 0.44869(12) 0.07371(7)
O2 O 0.48464(11) 0.37345(11) 0.04753(6)
O3 O 0.21414(14) 0.20050(17) -0.08795(10)
O4 O 0.34899(11) 0.20372(12) -0.08698(7)
O5 O 0.29203(12) 0.29203(12) 0.0000
H14 H 0.2608 0.2531 0.0289
C18D C 0.0958(3) -0.1695(2) -0.23228(11)
C19D C 0.14159(27) -0.08256(19) -0.19739(12)
C20D C 0.0911(4) -0.0409(3) -0.18194(17)
H12D H 0.0289 -0.0680 -0.1921
C21D C 0.23145(28) -0.0407(2) -0.18179(12)
H13D H 0.2669 -0.0675 -0.1917
O3D O 0.01364(22) -0.20050(17) -0.24538(10)
O4D O 0.14527(16) -0.20372(12) -0.24635(7)
H14C H 0.2531 0.2608 -0.0289
Co1C Co 0.29857(2) 0.41897(2) 0.023166(12)
C1C C 0.42142(15) 0.46822(16) -0.08010(9)
C2C C 0.44894(16) 0.52084(17) -0.13452(10)
C3C C 0.39502(17) 0.55511(18) -0.15691(10)
H1C H 0.3446 0.5490 -0.1367
C4C C 0.41413(17) 0.59780(18) -0.20821(10)
C5C C 0.49027(19) 0.60683(19) -0.23667(11)
H2C H 0.5036 0.6348 -0.2716
C6C C 0.52382(16) 0.53065(18) -0.16463(9)
H3C H 0.5596 0.5065 -0.1507
C7C C 0.54662(25) 0.57673(18) -0.21602(10)
C8C C 0.62860(26) 0.58727(19) -0.24722(10)
C9C C 0.70904(27) 0.6036(2) -0.22202(11)
H4C H 0.7149 0.6104 -0.1835
C10C C 0.78177(25) 0.61005(19) -0.25347(11)
H5C H 0.8359 0.6220 -0.2350
C11C C 0.70114(28) 0.5860(2) -0.33292(11)
H6C H 0.6973 0.5799 -0.3715
C12C C 0.6266(3) 0.5797(2) -0.30516(11)
H7C H 0.5744 0.5704 -0.3248
C13C C 0.28057(28) 0.6592(2) -0.30982(11)
H8C H 0.2747 0.6608 -0.3483
C14C C 0.3410(3) 0.6326(2) -0.28945(12)
H9C H 0.3742 0.6167 -0.3139
C15C C 0.35252(25) 0.62938(18) -0.23228(10)
C16C C 0.29992(27) 0.6553(2) -0.19991(10)
H10C H 0.3049 0.6560 -0.1612
C17C C 0.24147(27) 0.6796(2) -0.22404(11)
H11C H 0.2065 0.6951 -0.2008
N1C N 0.77854(19) 0.60015(14) -0.30839(8)
N2C N 0.23077(18) 0.68256(13) -0.27877(8)
O1C O 0.44869(12) 0.41117(12) -0.07371(7)
O2C O 0.37345(11) 0.48464(11) -0.04753(6)
Co1A Co 0.70143(2) 0.12040(3) 0.310167(12)
Co1B Co 0.87960(3) 0.58103(2) -0.356499(12)
Co1D Co 0.12040(3) -0.29857(2) -0.310167(12)
Co1D_2 Co 0.12040(3) 0.70143(2) -0.310167(12)
Co1E Co 0.58103(2) 0.87960(3) 0.356499(12)
N1B N 0.17839(24) 0.39985(14) -0.02494(8)
N1E N 0.39985(14) 0.17839(24) 0.02494(8)
N2B N 0.54821(22) 0.31744(13) -0.05456(8)
N2E N 0.31744(13) 0.54821(22) 0.05456(8)
O4C O 0.20372(12) 0.34899(11) 0.08698(7)
loop_
_geom_bond_atom_site_label_1
_geom_bond_atom_site_label_2
_geom_bond_site_symmetry_1
_geom_bond_site_symmetry_2
Co1 O2 1_555 1_555
C1 C2 1_555 1_555
C2 C3 1_555 1_555
C3 H1 1_555 1_555
C4 C3 1_555 1_555
C5 C4 1_555 1_555
H2 C5 1_555 1_555
C6 C2 1_555 1_555
H3 C6 1_555 1_555
C7 C5 1_555 1_555
C8 C7 1_555 1_555
C9 C8 1_555 1_555
H4 C9 1_555 1_555
C10 C9 1_555 1_555
H5 C10 1_555 1_555
C11 H6 1_555 1_555
C12 C8 1_555 1_555
H7 C12 1_555 1_555
C13 H8 1_555 1_555
C14 C13 1_555 1_555
H9 C14 1_555 1_555
C15 C4 1_555 1_555
C16 C15 1_555 1_555
H10 C16 1_555 1_555
C17 C16 1_555 1_555
H11 C17 1_555 1_555
C18 C19 1_555 1_555
C19 C20 1_555 1_555
C20 H12 1_555 1_555
C21 C19 1_555 1_555
H13 C21 1_555 1_555
N1 C10 1_555 1_555
N2 C13 1_555 1_555
O1 C1 1_555 1_555
O2 C1 1_555 1_555
O3 C18 1_555 1_555
O4 Co1 1_555 1_555
O5 Co1 1_555 1_555
H14 O5 1_555 1_555
C18D C19D 1_555 1_555
C19D C20D 1_555 1_555
C20D C20 1_555 1_555
H12D C20D 1_555 1_555
C21D C21 1_555 1_555
H13D C21D 1_555 1_555
O3D C18D 1_555 1_555
O4D C18D 1_555 1_555
H14C O5 1_555 1_555
Co1C O1 1_555 1_555
C1C C2C 1_555 1_555
C2C C3C 1_555 1_555
C3C H1C 1_555 1_555
C4C C3C 1_555 1_555
C5C C4C 1_555 1_555
H2C C5C 1_555 1_555
C6C C2C 1_555 1_555
H3C C6C 1_555 1_555
C7C C5C 1_555 1_555
C8C C7C 1_555 1_555
C9C C8C 1_555 1_555
H4C C9C 1_555 1_555
C10C C9C 1_555 1_555
H5C C10C 1_555 1_555
C11C H6C 1_555 1_555
C12C C8C 1_555 1_555
H7C C12C 1_555 1_555
C13C H8C 1_555 1_555
C14C C13C 1_555 1_555
H9C C14C 1_555 1_555
C15C C4C 1_555 1_555
C16C C15C 1_555 1_555
H10C C16C 1_555 1_555
C17C C16C 1_555 1_555
H11C C17C 1_555 1_555
N1C C10C 1_555 1_555
N2C C13C 1_555 1_555
O1C Co1 1_555 1_555
O2C Co1C 1_555 1_555
Co1A N2 1_555 1_555
Co1B N1C 1_555 1_555
Co1D O4D 1_555 1_555
Co1D_2 N2C 1_555 1_555
Co1E N1 1_555 1_555
N1B Co1C 1_555 1_555
N1E Co1 1_555 1_555
N2B Co1 1_555 1_555
N2E Co1C 1_555 1_555
O4C Co1C 1_555 1_555
C6 C7 1_555 1_555
C11 C12 1_555 1_555
C11 N1 1_555 1_555
C14 C15 1_555 1_555
C17 N2 1_555 1_555
C18 O4 1_555 1_555
O5 Co1C 1_555 1_555
C19D C21D 1_555 1_555
C1C O1C 1_555 1_555
C1C O2C 1_555 1_555
C6C C7C 1_555 1_555
C11C C12C 1_555 1_555
C11C N1C 1_555 1_555
C14C C15C 1_555 1_555
C17C N2C 1_555 1_555

#END
