
#######################################################################
#
#                 Cambridge Crystallographic Data Centre
#                                CCDC 
#
#######################################################################
#
# If this CIF has been generated from an entry in the Cambridge 
# Structural Database, then it will include bibliographic, chemical, 
# crystal, experimental, refinement or atomic coordinate data resulting 
# from the CCDC's data processing and validation procedures.
#
#######################################################################

data_TIXKER
_symmetry_cell_setting           monoclinic
_symmetry_space_group_name_H-M   'C 2/c'
_symmetry_Int_Tables_number      15
_space_group_name_Hall           '-C 2yn'
loop_
_symmetry_equiv_pos_site_id
_symmetry_equiv_pos_as_xyz
1 x,y,z
2 1/2+x,1/2+y,z
3 -x,y,1/2-z
4 1/2-x,1/2+y,1/2-z
5 -x,-y,-z
6 1/2-x,1/2-y,-z
7 x,-y,1/2+z
8 1/2+x,1/2-y,1/2+z
_cell_length_a                   25.6908(8)
_cell_length_b                   9.7787(3)
_cell_length_c                   7.6613(3)
_cell_angle_alpha                90
_cell_angle_beta                 101.421(2)
_cell_angle_gamma                90
_cell_volume                     1886.58
loop_
_atom_site_label
_atom_site_type_symbol
_atom_site_fract_x
_atom_site_fract_y
_atom_site_fract_z
Mn1 Mn 0.5000 0.0000 0.0000
C1 C 0.64186(5) 0.14641(12) 0.31586(16)
C2 C 0.74914(5) 0.14939(14) 0.32168(18)
C3 C 0.73002(6) 0.06517(15) 0.43914(19)
H1 H 0.7528 0.0091 0.5176
C4 C 0.66241(5) 0.23109(13) 0.19981(17)
H2 H 0.6397 0.2856 0.1190
C5 C 0.71663(5) 0.23434(14) 0.20449(18)
H3 H 0.7308 0.2927 0.1300
C6 C 0.67608(6) 0.06632(14) 0.43706(18)
H4 H 0.6626 0.0127 0.5180
N1 N 0.80650(5) 0.14592(14) 0.32117(18)
O1 O 0.82307(5) 0.22026(19) 0.21594(19)
O2 O 0.83463(5) 0.06921(15) 0.4254(2)
C7 C 0.58272(5) 0.13313(13) 0.30471(18)
O3 O 0.55362(4) 0.14785(11) 0.15383(13)
O4 O 0.5000 -0.11664(12) 0.2500
N2 N 0.5000 -0.25433(15) 0.2500
C8 C 0.54552(6) -0.32102(15) 0.2479(2)
H5 H 0.5766 -0.2725 0.2464
C9 C 0.54591(7) -0.46194(18) 0.2480(3)
H6 H 0.5774 -0.5087 0.2468
C10 C 0.5000 -0.5337(3) 0.2500
H7 H 0.5000 -0.6289 0.2500
O5 O 0.56837(4) 0.10539(12) 0.44794(13)
Mn1F Mn 0.5000 0.0000 0.5000
Mn1F_2 Mn 0.5000 0.0000 -0.5000
C1D C 0.35814(5) -0.14641(12) -0.31586(16)
C2D C 0.25086(5) -0.14939(14) -0.32168(18)
C3D C 0.26998(6) -0.06517(15) -0.43914(19)
H1D H 0.2472 -0.0091 -0.5176
C4D C 0.33759(5) -0.23109(13) -0.19981(17)
H2D H 0.3603 -0.2856 -0.1190
C5D C 0.28337(5) -0.23434(14) -0.20449(18)
H3D H 0.2692 -0.2927 -0.1300
C6D C 0.32392(6) -0.06632(14) -0.43706(18)
H4D H 0.3374 -0.0127 -0.5180
N1D N 0.19350(5) -0.14592(14) -0.32117(18)
O1D O 0.17693(5) -0.22026(19) -0.21594(19)
O2D O 0.16537(5) -0.06921(15) -0.4254(2)
C7D C 0.41728(5) -0.13313(13) -0.30471(18)
O3D O 0.44638(4) -0.14785(11) -0.15383(13)
O4F O 0.5000 0.11664(12) -0.2500
C8B C 0.45448(6) -0.32102(15) 0.2521(2)
H5B H 0.4234 -0.2725 0.2536
C9B C 0.45409(7) -0.46194(18) 0.2520(3)
H6B H 0.4226 -0.5087 0.2532
O5D O 0.43163(4) -0.10539(12) -0.44794(13)
O5F O 0.56837(4) -0.10539(12) -0.05206(13)
O5B O 0.43163(4) 0.10539(12) 0.05206(13)
loop_
_geom_bond_atom_site_label_1
_geom_bond_atom_site_label_2
_geom_bond_site_symmetry_1
_geom_bond_site_symmetry_2
Mn1 O3 1_555 1_555
C1 C4 1_555 1_555
C2 C3 1_555 1_555
C3 H1 1_555 1_555
C4 H2 1_555 1_555
C5 C2 1_555 1_555
H3 C5 1_555 1_555
C6 C1 1_555 1_555
H4 C6 1_555 1_555
N1 C2 1_555 1_555
O1 N1 1_555 1_555
O2 N1 1_555 1_555
C7 C1 1_555 1_555
O3 C7 1_555 1_555
O4 Mn1 1_555 1_555
N2 O4 1_555 1_555
C8 N2 1_555 1_555
H5 C8 1_555 1_555
C9 C8 1_555 1_555
H6 C9 1_555 1_555
C10 C9 1_555 1_555
H7 C10 1_555 1_555
O5 C7 1_555 1_555
Mn1F O4 1_555 1_555
Mn1F_2 O4F 1_555 1_555
C1D C4D 1_555 1_555
C2D C3D 1_555 1_555
C3D H1D 1_555 1_555
C4D H2D 1_555 1_555
C5D C2D 1_555 1_555
H3D C5D 1_555 1_555
C6D C1D 1_555 1_555
H4D C6D 1_555 1_555
N1D C2D 1_555 1_555
O1D N1D 1_555 1_555
O2D N1D 1_555 1_555
C7D C1D 1_555 1_555
O3D Mn1 1_555 1_555
O4F Mn1 1_555 1_555
C8B N2 1_555 1_555
H5B C8B 1_555 1_555
C9B C10 1_555 1_555
H6B C9B 1_555 1_555
O5D Mn1F_2 1_555 1_555
O5F Mn1 1_555 1_555
O5B Mn1 1_555 1_555
C3 C6 1_555 1_555
C4 C5 1_555 1_555
O5 Mn1F 1_555 1_555
C3D C6D 1_555 1_555
C4D C5D 1_555 1_555
C7D O3D 1_555 1_555
C7D O5D 1_555 1_555
C8B C9B 1_555 1_555

#END
