
#######################################################################
#
#                 Cambridge Crystallographic Data Centre
#                                CCDC 
#
#######################################################################
#
# If this CIF has been generated from an entry in the Cambridge 
# Structural Database, then it will include bibliographic, chemical, 
# crystal, experimental, refinement or atomic coordinate data resulting 
# from the CCDC's data processing and validation procedures.
#
#######################################################################

data_TIXLUJ
_symmetry_cell_setting           triclinic
_symmetry_space_group_name_H-M   'P -1'
_symmetry_Int_Tables_number      2
_space_group_name_Hall           '-P 1'
loop_
_symmetry_equiv_pos_site_id
_symmetry_equiv_pos_as_xyz
1 x,y,z
2 -x,-y,-z
_cell_length_a                   9.1235(11)
_cell_length_b                   10.5974(17)
_cell_length_c                   16.8529(17)
_cell_angle_alpha                98.9990(10)
_cell_angle_beta                 95.481(2)
_cell_angle_gamma                91.438(2)
_cell_volume                     1600.69
loop_
_atom_site_label
_atom_site_type_symbol
_atom_site_fract_x
_atom_site_fract_y
_atom_site_fract_z
Ni1 Ni 0.04436(11) 0.30704(9) 0.26791(6)
S1 S -0.0469(2) 0.13320(19) 0.34264(11)
N1 N -0.1755(6) 0.3577(6) 0.2508(4)
O1 O -0.0012(6) 0.1585(5) 0.1725(3)
C1 C -0.6413(9) 1.2640(7) 0.3489(5)
H1 H -0.6558 1.3135 0.3979
O2 O 0.0843(6) 0.4308(5) 0.3752(3)
H2 H 0.0796 0.4086 0.4213
H3 H 0.0979 0.5116 0.3824
N2 N 0.0962(7) 0.4423(6) 0.1985(4)
C2 C -0.5186(9) 1.2007(8) 0.3333(6)
H4 H -0.4354 1.1972 0.3692
O3 O -0.0426(10) -0.0483(7) 0.1261(4)
O4 O -0.0982(7) 0.3254(6) 0.4659(4)
N3 N 0.1483(7) 0.5317(8) 0.0945(4)
C3 C -0.6744(9) 1.1723(7) 0.2267(5)
H5 H -0.7162 1.1448 0.1741
N4 N -0.3821(7) 0.4556(6) 0.2633(4)
C4 C -0.4436(9) 1.0532(8) 0.2129(6)
H6 H -0.3421 1.0846 0.2263
H7 H -0.4670 1.0486 0.1551
N5 N -0.5395(7) 1.1428(6) 0.2548(4)
O5 O -0.0386(10) 0.3221(6) 0.5971(4)
C5 C -0.4589(8) 0.9204(7) 0.2344(5)
N6 N -0.7414(7) 1.2448(6) 0.2820(4)
C6 C -0.5735(9) 0.8847(8) 0.2762(5)
H8 H -0.6455 0.9422 0.2906
C7 C -0.5798(8) 0.7626(8) 0.2964(5)
H9 H -0.6541 0.7407 0.3264
N7 N 0.1761(7) 0.0157(7) 0.4097(4)
C8 C -0.4781(8) 0.6722(7) 0.2729(4)
C9 C -0.3576(8) 0.8316(7) 0.2114(5)
H10 H -0.2822 0.8538 0.1821
C10 C -0.3656(8) 0.7102(8) 0.2308(5)
H11 H -0.2943 0.6527 0.2154
C11 C -0.4887(9) 0.5425(7) 0.2986(5)
H12 H -0.4721 0.5525 0.3570
H13 H -0.5874 0.5055 0.2824
C12 C -0.2523(8) 0.4313(7) 0.3011(5)
H14 H -0.2206 0.4618 0.3549
C13 C -0.3904(9) 0.3953(8) 0.1875(5)
H15 H -0.4687 0.3944 0.1478
C14 C -0.2617(9) 0.3352(7) 0.1797(4)
H16 H -0.2366 0.2859 0.1327
C15 C 0.0706(10) 0.5702(9) 0.2123(5)
H17 H 0.0370 0.6130 0.2592
C16 C 0.1007(10) 0.6261(10) 0.1482(6)
H18 H 0.0906 0.7114 0.1425
C17 C 0.1445(9) 0.4246(9) 0.1256(5)
H19 H 0.1723 0.3462 0.0995
C18 C 0.1895(10) 0.5435(12) 0.0127(6)
H20 H 0.1667 0.6279 0.0008
H21 H 0.1320 0.4810 -0.0271
C19 C 0.3521(9) 0.5225(10) 0.0071(5)
C20 C 0.4544(11) 0.6177(10) 0.0308(6)
H22 H 0.4254 0.6984 0.0521
C21 C 0.6020(11) 0.5975(11) 0.0241(6)
H23 H 0.6712 0.6648 0.0405
C22 C -0.0302(11) 0.2829(8) 0.5249(5)
C23 C 0.0760(9) 0.1774(8) 0.5030(5)
C24 C 0.1790(11) 0.1506(10) 0.5641(5)
H24 H 0.1806 0.1961 0.6160
C25 C 0.2793(11) 0.0558(11) 0.5473(6)
H25 H 0.3487 0.0368 0.5873
C26 C 0.2723(10) -0.0094(9) 0.4689(6)
H26 H 0.3381 -0.0737 0.4572
C27 C 0.0817(8) 0.1071(7) 0.4259(4)
C28 C -0.0021(9) 0.0072(7) 0.2652(4)
H27 H 0.0984 -0.0166 0.2779
H28 H -0.0663 -0.0671 0.2653
C29 C -0.0168(9) 0.0430(9) 0.1818(5)
N2A N 0.9038(7) 0.5577(6) -0.1985(4)
N3A N 0.8517(7) 0.4683(8) -0.0945(4)
C15A C 0.9294(10) 0.4298(9) -0.2123(5)
H17A H 0.9630 0.3870 -0.2592
C16A C 0.8993(10) 0.3739(10) -0.1482(6)
H18A H 0.9094 0.2886 -0.1425
C17A C 0.8555(9) 0.5754(9) -0.1256(5)
H19A H 0.8277 0.6538 -0.0995
C18A C 0.8105(10) 0.4565(12) -0.0127(6)
H20A H 0.8333 0.3721 -0.0008
H21A H 0.8680 0.5190 0.0271
C19A C 0.6479(9) 0.4775(10) -0.0071(5)
C20A C 0.5456(11) 0.3823(10) -0.0308(6)
H22A H 0.5746 0.3016 -0.0521
C21A C 0.3980(11) 0.4025(11) -0.0241(6)
H23A H 0.3288 0.3352 -0.0405
Ni1A Ni 0.95564(11) 0.69296(9) -0.26791(6)
S1A S 1.0469(2) 0.86680(19) -0.34264(11)
N1A N 1.1755(6) 0.6423(6) -0.2508(4)
O1A O 1.0012(6) 0.8415(5) -0.1725(3)
C1A C 1.6413(9) -0.2640(7) -0.3489(5)
H1A H 1.6558 -0.3135 -0.3979
O2A O 0.9157(6) 0.5692(5) -0.3752(3)
H2A H 0.9204 0.5914 -0.4213
H3A H 0.9021 0.4884 -0.3824
C2A C 1.5186(9) -0.2007(8) -0.3333(6)
H4A H 1.4354 -0.1972 -0.3692
O3A O 1.0426(10) 1.0483(7) -0.1261(4)
O4A O 1.0982(7) 0.6746(6) -0.4659(4)
C3A C 1.6744(9) -0.1723(7) -0.2267(5)
H5A H 1.7162 -0.1448 -0.1741
N4A N 1.3821(7) 0.5444(6) -0.2633(4)
C4A C 1.4436(9) -0.0532(8) -0.2129(6)
H6A H 1.3421 -0.0846 -0.2263
H7A H 1.4670 -0.0486 -0.1551
N5A N 1.5395(7) -0.1428(6) -0.2548(4)
O5A O 1.0386(10) 0.6779(6) -0.5971(4)
C5A C 1.4589(8) 0.0796(7) -0.2344(5)
N6A N 1.7414(7) -0.2448(6) -0.2820(4)
C6A C 1.5735(9) 0.1153(8) -0.2762(5)
H8A H 1.6455 0.0578 -0.2906
C7A C 1.5798(8) 0.2374(8) -0.2964(5)
H9A H 1.6541 0.2593 -0.3264
N7A N 0.8239(7) 0.9843(7) -0.4097(4)
C8A C 1.4781(8) 0.3278(7) -0.2729(4)
C9A C 1.3576(8) 0.1684(7) -0.2114(5)
H10A H 1.2822 0.1462 -0.1821
C10A C 1.3656(8) 0.2898(8) -0.2308(5)
H11A H 1.2943 0.3473 -0.2154
C11A C 1.4887(9) 0.4575(7) -0.2986(5)
H12A H 1.4721 0.4475 -0.3570
H13A H 1.5874 0.4945 -0.2824
C12A C 1.2523(8) 0.5687(7) -0.3011(5)
H14A H 1.2206 0.5382 -0.3549
C13A C 1.3904(9) 0.6047(8) -0.1875(5)
H15A H 1.4687 0.6056 -0.1478
C14A C 1.2617(9) 0.6648(7) -0.1797(4)
H16A H 1.2366 0.7141 -0.1327
C22A C 1.0302(11) 0.7171(8) -0.5249(5)
C23A C 0.9240(9) 0.8226(8) -0.5030(5)
C24A C 0.8210(11) 0.8494(10) -0.5641(5)
H24A H 0.8194 0.8039 -0.6160
C25A C 0.7207(11) 0.9442(11) -0.5473(6)
H25A H 0.6513 0.9632 -0.5873
C26A C 0.7277(10) 1.0094(9) -0.4689(6)
H26A H 0.6619 1.0737 -0.4572
C27A C 0.9183(8) 0.8929(7) -0.4259(4)
C28A C 1.0021(9) 0.9928(7) -0.2652(4)
H27A H 0.9016 1.0166 -0.2779
H28A H 1.0663 1.0671 -0.2653
C29A C 1.0168(9) 0.9570(9) -0.1818(5)
Ni1_2 Ni -0.95564(11) 1.30704(9) 0.26791(6)
Ni1A_2 Ni 1.95564(11) -0.30704(9) -0.26791(6)
N6_2 N 0.2586(7) 0.2448(6) 0.2820(4)
N6A_2 N 0.7414(7) 0.7552(6) -0.2820(4)
O6 O 0.1068(16) 0.8518(13) -0.0039(7)
H29 H 0.0643 0.8475 -0.0515
H30 H 0.1963 0.8751 -0.0048
O7 O -0.3650(12) 0.4344(18) 0.4975(7)
H31 H -0.3328 0.4528 0.4548
H32 H -0.3467 0.3568 0.5000
loop_
_geom_bond_atom_site_label_1
_geom_bond_atom_site_label_2
_geom_bond_site_symmetry_1
_geom_bond_site_symmetry_2
Ni1 S1 1_555 1_555
S1 C27 1_555 1_555
N1 Ni1 1_555 1_555
O1 Ni1 1_555 1_555
C1 H1 1_555 1_555
O2 Ni1 1_555 1_555
H2 O2 1_555 1_555
H3 O2 1_555 1_555
N2 Ni1 1_555 1_555
C2 C1 1_555 1_555
H4 C2 1_555 1_555
O3 C29 1_555 1_555
O4 C22 1_555 1_555
N3 C16 1_555 1_555
C3 H5 1_555 1_555
N4 C11 1_555 1_555
C4 H6 1_555 1_555
H7 C4 1_555 1_555
N5 C2 1_555 1_555
O5 C22 1_555 1_555
C5 C4 1_555 1_555
N6 C1 1_555 1_555
C6 C5 1_555 1_555
H8 C6 1_555 1_555
C7 C6 1_555 1_555
H9 C7 1_555 1_555
N7 C26 1_555 1_555
C8 C7 1_555 1_555
C9 C5 1_555 1_555
H10 C9 1_555 1_555
C10 C8 1_555 1_555
H11 C10 1_555 1_555
C11 C8 1_555 1_555
H12 C11 1_555 1_555
H13 C11 1_555 1_555
C12 N1 1_555 1_555
H14 C12 1_555 1_555
C13 N4 1_555 1_555
H15 C13 1_555 1_555
C14 N1 1_555 1_555
H16 C14 1_555 1_555
C15 N2 1_555 1_555
H17 C15 1_555 1_555
C16 C15 1_555 1_555
H18 C16 1_555 1_555
C17 N2 1_555 1_555
H19 C17 1_555 1_555
C18 N3 1_555 1_555
H20 C18 1_555 1_555
H21 C18 1_555 1_555
C19 C18 1_555 1_555
C20 C19 1_555 1_555
H22 C20 1_555 1_555
C21 C20 1_555 1_555
H23 C21 1_555 1_555
C22 C23 1_555 1_555
C23 C24 1_555 1_555
C24 H24 1_555 1_555
C25 C24 1_555 1_555
H25 C25 1_555 1_555
C26 C25 1_555 1_555
H26 C26 1_555 1_555
C27 N7 1_555 1_555
C28 S1 1_555 1_555
H27 C28 1_555 1_555
H28 C28 1_555 1_555
C29 O1 1_555 1_555
O6 H29 1_555 1_555
H30 O6 1_555 1_555
O7 H31 1_555 1_555
H32 O7 1_555 1_555
N2A C15A 1_555 1_555
N3A C16A 1_555 1_555
C15A H17A 1_555 1_555
C16A C15A 1_555 1_555
H18A C16A 1_555 1_555
C17A N2A 1_555 1_555
H19A C17A 1_555 1_555
C18A N3A 1_555 1_555
H20A C18A 1_555 1_555
H21A C18A 1_555 1_555
C19A C21 1_555 1_555
C20A C19A 1_555 1_555
H22A C20A 1_555 1_555
C21A C19 1_555 1_555
H23A C21A 1_555 1_555
Ni1A N2A 1_555 1_555
S1A Ni1A 1_555 1_555
N1A Ni1A 1_555 1_555
O1A Ni1A 1_555 1_555
C1A H1A 1_555 1_555
O2A Ni1A 1_555 1_555
H2A O2A 1_555 1_555
H3A O2A 1_555 1_555
C2A C1A 1_555 1_555
H4A C2A 1_555 1_555
O3A C29A 1_555 1_555
O4A C22A 1_555 1_555
C3A H5A 1_555 1_555
N4A C11A 1_555 1_555
C4A H6A 1_555 1_555
H7A C4A 1_555 1_555
N5A C2A 1_555 1_555
O5A C22A 1_555 1_555
C5A C4A 1_555 1_555
N6A C1A 1_555 1_555
C6A C5A 1_555 1_555
H8A C6A 1_555 1_555
C7A C6A 1_555 1_555
H9A C7A 1_555 1_555
N7A C26A 1_555 1_555
C8A C7A 1_555 1_555
C9A C5A 1_555 1_555
H10A C9A 1_555 1_555
C10A C8A 1_555 1_555
H11A C10A 1_555 1_555
C11A C8A 1_555 1_555
H12A C11A 1_555 1_555
H13A C11A 1_555 1_555
C12A N1A 1_555 1_555
H14A C12A 1_555 1_555
C13A N4A 1_555 1_555
H15A C13A 1_555 1_555
C14A N1A 1_555 1_555
H16A C14A 1_555 1_555
C22A C23A 1_555 1_555
C23A C24A 1_555 1_555
C24A H24A 1_555 1_555
C25A C24A 1_555 1_555
H25A C25A 1_555 1_555
C26A C25A 1_555 1_555
H26A C26A 1_555 1_555
C27A S1A 1_555 1_555
C28A S1A 1_555 1_555
H27A C28A 1_555 1_555
H28A C28A 1_555 1_555
C29A O1A 1_555 1_555
Ni1_2 N6 1_555 1_555
Ni1A_2 N6A 1_555 1_555
N6_2 Ni1 1_555 1_555
N6A_2 Ni1A 1_555 1_555
N3 C17 1_555 1_555
C3 N5 1_555 1_555
C3 N6 1_555 1_555
N4 C12 1_555 1_555
C4 N5 1_555 1_555
C9 C10 1_555 1_555
C13 C14 1_555 1_555
C23 C27 1_555 1_555
C28 C29 1_555 1_555
N3A C17A 1_555 1_555
C18A C19A 1_555 1_555
C20A C21A 1_555 1_555
C3A N5A 1_555 1_555
C3A N6A 1_555 1_555
N4A C12A 1_555 1_555
C4A N5A 1_555 1_555
N7A C27A 1_555 1_555
C9A C10A 1_555 1_555
C13A C14A 1_555 1_555
C23A C27A 1_555 1_555
C28A C29A 1_555 1_555

#END
