
#######################################################################
#
#                 Cambridge Crystallographic Data Centre
#                                CCDC 
#
#######################################################################
#
# If this CIF has been generated from an entry in the Cambridge 
# Structural Database, then it will include bibliographic, chemical, 
# crystal, experimental, refinement or atomic coordinate data resulting 
# from the CCDC's data processing and validation procedures.
#
#######################################################################

data_TIXMEU
_symmetry_cell_setting           monoclinic
_symmetry_space_group_name_H-M   'C 2/c'
_symmetry_Int_Tables_number      15
_space_group_name_Hall           '-C 2yn'
loop_
_symmetry_equiv_pos_site_id
_symmetry_equiv_pos_as_xyz
1 x,y,z
2 -x,y,1/2-z
3 1/2+x,1/2+y,z
4 1/2-x,1/2+y,1/2-z
5 -x,-y,-z
6 x,-y,1/2+z
7 1/2-x,1/2-y,-z
8 1/2+x,1/2-y,1/2+z
_cell_length_a                   28.327(3)
_cell_length_b                   10.7619(11)
_cell_length_c                   16.2013(15)
_cell_angle_alpha                90
_cell_angle_beta                 99.994(2)
_cell_angle_gamma                90
_cell_volume                     4864.06
loop_
_atom_site_label
_atom_site_type_symbol
_atom_site_fract_x
_atom_site_fract_y
_atom_site_fract_z
Zn1 Zn 0.35730(2) 0.46893(6) 0.08399(4)
S1 S 0.31418(6) 0.08145(17) 0.02695(12)
N1 N 0.3860(2) 0.5403(5) 0.1973(3)
O1 O 0.36440(15) 0.2882(4) 0.0902(3)
C1 C 0.3640(3) 0.6042(6) 0.2483(4)
H1 H 0.3311 0.6171 0.2401
O2 O 0.44366(17) 0.3018(4) 0.1145(3)
N2 N 0.39273(19) 1.4456(4) 0.5015(3)
C2 C 0.4341(3) 0.5432(6) 0.2312(5)
H2 H 0.4585 0.5049 0.2090
N3 N 0.3947(2) 0.6481(5) 0.3129(3)
C3 C 0.4396(3) 0.6111(7) 0.3022(5)
H3 H 0.4684 0.6293 0.3372
O3 O 0.2170(4) -0.111(2) -0.1053(10)
N4 N 0.4076(2) 1.3317(5) 0.3962(3)
C4 C 0.3827(3) 0.7270(6) 0.3814(4)
H4 H 0.4037 0.7052 0.4333
H5 H 0.3500 0.7101 0.3884
O4 O 0.2115(3) 0.0225(8) -0.0316(6)
N5 N 0.3741(2) -0.1013(5) 0.0826(4)
C5 C 0.3878(3) 0.8628(6) 0.3650(4)
C6 C 0.3548(3) 0.9238(7) 0.3063(5)
H6 H 0.3294 0.8799 0.2755
C7 C 0.3592(3) 1.0493(6) 0.2930(5)
H7 H 0.3368 1.0888 0.2527
C8 C 0.3958(2) 1.1175(6) 0.3374(4)
C9 C 0.4294(3) 1.0565(6) 0.3955(4)
H8 H 0.4549 1.1009 0.4257
C10 C 0.4257(3) 0.9316(6) 0.4091(4)
H9 H 0.4488 0.8922 0.4482
C11 C 0.3994(3) 1.2565(6) 0.3193(4)
H10 H 0.4254 1.2702 0.2886
H11 H 0.3699 1.2836 0.2841
C12 C 0.3736(2) 1.3804(6) 0.4344(4)
H12 H 0.3409 1.3699 0.4164
C13 C 0.4412(2) 1.4372(6) 0.5055(4)
H13 H 0.4640 1.4741 0.5465
C14 C 0.4513(2) 1.3674(6) 0.4413(4)
H14 H 0.4815 1.3476 0.4299
C15 C 0.4063(2) 0.2410(6) 0.1049(4)
C16 C 0.4082(2) 0.1023(5) 0.1097(3)
C17 C 0.3703(2) 0.0235(6) 0.0781(4)
C18 C 0.4154(3) -0.1491(7) 0.1185(5)
H15 H 0.4178 -0.2352 0.1220
C19 C 0.4550(3) -0.0814(7) 0.1508(5)
H16 H 0.4836 -0.1193 0.1747
C20 C 0.4505(2) 0.0457(6) 0.1463(4)
H17 H 0.4767 0.0949 0.1684
C21 C 0.2871(3) -0.0610(8) -0.0159(6)
H18 H 0.3046 -0.0913 -0.0582
H19 H 0.2899 -0.1227 0.0283
C22 C 0.2361(4) -0.0480(12) -0.0538(8)
Zn1E Zn 0.35730(2) 1.53107(6) 0.58399(4)
Zn1F Zn 0.14270(2) 0.03107(6) -0.08399(4)
N2E N 0.39273(19) 0.5544(4) 0.0015(3)
O4F O 0.2885(3) 0.4775(8) 0.0316(6)
O5 O 0.2671(4) -0.3206(13) -0.1866(8)
H20 H 0.2512 -0.2739 -0.1626
H21 H 0.2920 -0.2827 -0.1970
O6 O 0.2666(6) 0.4114(16) -0.1699(10)
H22 H 0.2734 0.4124 -0.1154
H23 H 0.2675 0.5001 -0.1779
loop_
_geom_bond_atom_site_label_1
_geom_bond_atom_site_label_2
_geom_bond_site_symmetry_1
_geom_bond_site_symmetry_2
Zn1 N1 1_555 1_555
S1 C17 1_555 1_555
N1 C1 1_555 1_555
O1 Zn1 1_555 1_555
C1 H1 1_555 1_555
O2 C15 1_555 1_555
N2 C12 1_555 1_555
C2 N1 1_555 1_555
H2 C2 1_555 1_555
N3 C1 1_555 1_555
C3 C2 1_555 1_555
H3 C3 1_555 1_555
O3 C22 1_555 1_555
N4 C11 1_555 1_555
C4 N3 1_555 1_555
H4 C4 1_555 1_555
H5 C4 1_555 1_555
O4 C22 1_555 1_555
N5 C17 1_555 1_555
C5 C4 1_555 1_555
C6 C5 1_555 1_555
H6 C6 1_555 1_555
C7 C6 1_555 1_555
H7 C7 1_555 1_555
C8 C7 1_555 1_555
C9 C8 1_555 1_555
H8 C9 1_555 1_555
C10 C5 1_555 1_555
H9 C10 1_555 1_555
C11 C8 1_555 1_555
H10 C11 1_555 1_555
H11 C11 1_555 1_555
C12 N4 1_555 1_555
H12 C12 1_555 1_555
C13 N2 1_555 1_555
H13 C13 1_555 1_555
C14 N4 1_555 1_555
H14 C14 1_555 1_555
C15 O1 1_555 1_555
C16 C15 1_555 1_555
C17 C16 1_555 1_555
C18 N5 1_555 1_555
H15 C18 1_555 1_555
C19 C18 1_555 1_555
H16 C19 1_555 1_555
C20 C16 1_555 1_555
H17 C20 1_555 1_555
C21 S1 1_555 1_555
H18 C21 1_555 1_555
H19 C21 1_555 1_555
C22 C21 1_555 1_555
O5 H20 1_555 1_555
H21 O5 1_555 1_555
O6 H22 1_555 1_555
H23 O6 1_555 1_555
Zn1E N2 1_555 1_555
Zn1F O4 1_555 1_555
N2E Zn1 1_555 1_555
O4F Zn1 1_555 1_555
N3 C3 1_555 1_555
C9 C10 1_555 1_555
C13 C14 1_555 1_555
C19 C20 1_555 1_555

#END
