
#######################################################################
#
#                 Cambridge Crystallographic Data Centre
#                                CCDC 
#
#######################################################################
#
# If this CIF has been generated from an entry in the Cambridge 
# Structural Database, then it will include bibliographic, chemical, 
# crystal, experimental, refinement or atomic coordinate data resulting 
# from the CCDC's data processing and validation procedures.
#
#######################################################################

data_TIXMAQ
_symmetry_cell_setting           triclinic
_symmetry_space_group_name_H-M   'P -1'
_symmetry_Int_Tables_number      2
_space_group_name_Hall           '-P 1'
loop_
_symmetry_equiv_pos_site_id
_symmetry_equiv_pos_as_xyz
1 x,y,z
2 -x,-y,-z
_cell_length_a                   8.8471(8)
_cell_length_b                   11.0944(10)
_cell_length_c                   12.0063(11)
_cell_angle_alpha                74.9200(10)
_cell_angle_beta                 78.820(2)
_cell_angle_gamma                88.547(2)
_cell_volume                     1115.89
loop_
_atom_site_label
_atom_site_type_symbol
_atom_site_fract_x
_atom_site_fract_y
_atom_site_fract_z
Cd1 Cd -0.12502(2) 0.515544(19) 0.715190(17)
N1 N -0.2765(3) 0.3795(2) 0.6692(2)
O1 O 0.0665(3) 0.63327(19) 0.75391(18)
H1 H 0.1186 0.6925 0.7025
H2 H 0.0749 0.6403 0.8212
S1 S 0.13340(8) 0.36235(6) 0.70307(6)
O2 O -0.1287(3) 0.3878(2) 0.89981(18)
C1 C 0.0135(3) 0.1740(2) 0.6271(2)
N2 N -0.3371(3) 0.6223(2) 0.7796(2)
C2 C -0.0410(3) 0.0512(3) 0.6507(2)
H3 H -0.0736 0.0240 0.5920
O3 O -0.0066(4) 0.2964(2) 1.04415(18)
O4 O 0.0816(2) 0.36457(18) 0.47890(16)
N3 N -0.4108(3) 0.2923(2) 0.5735(2)
C3 C -0.0470(4) -0.0299(3) 0.7595(3)
H4 H -0.0813 -0.1122 0.7749
N4 N -0.5049(3) 0.7605(2) 0.8235(2)
C4 C -0.0007(4) 0.0139(3) 0.8453(3)
H5 H -0.0044 -0.0408 0.9191
O5 O -0.0053(3) 0.2036(2) 0.43012(19)
C5 C 0.0575(3) 0.2094(2) 0.7208(2)
N5 N 0.0492(3) 0.1316(2) 0.8274(2)
C6 C 0.1448(4) 0.3549(3) 0.8534(2)
H6 H 0.2045 0.2830 0.8824
H7 H 0.2005 0.4288 0.8541
C7 C -0.0111(4) 0.3455(3) 0.9389(3)
C8 C 0.0296(3) 0.2545(3) 0.5030(2)
C9 C -0.3070(4) 0.3817(3) 0.5658(3)
H8 H -0.2621 0.4383 0.4959
C10 C -0.3644(4) 0.2833(3) 0.7470(3)
H9 H -0.3655 0.2578 0.8274
C11 C -0.4499(4) 0.2306(3) 0.6891(3)
H10 H -0.5214 0.1649 0.7221
C12 C -0.4739(5) 0.2684(3) 0.4766(3)
H11 H -0.4077 0.3086 0.4023
H12 H -0.5752 0.3039 0.4768
C13 C -0.4860(4) 0.1284(3) 0.4881(3)
C14 C -0.3569(4) 0.0588(3) 0.4685(3)
H13 H -0.2595 0.0972 0.4472
C15 C -0.3643(4) 0.7416(3) 0.7643(3)
H14 H -0.2952 0.8053 0.7183
C16 C -0.4687(5) 0.5626(3) 0.8512(3)
H15 H -0.4848 0.4765 0.8765
C17 C -0.5708(5) 0.6469(4) 0.8792(3)
H16 H -0.6677 0.6303 0.9275
C18 C -0.5757(5) 0.8806(4) 0.8274(4)
H17 H -0.6868 0.8693 0.8412
H18 H -0.5441 0.9392 0.7511
C19 C -0.5361(4) 0.9374(3) 0.9201(3)
C20 C -0.4054(4) 0.9091(3) 0.9687(3)
H19 H -0.3407 0.8477 0.9484
C21 C -0.6299(4) 1.0292(3) 0.9532(3)
H20 H -0.7185 1.0496 0.9221
C22 C -0.6280(4) 0.0681(3) 0.5194(3)
H21 H -0.7161 0.1138 0.5329
N1A N -0.7235(3) -0.3795(2) 0.3308(2)
N3A N -0.5892(3) -0.2923(2) 0.4265(2)
C9A C -0.6930(4) -0.3817(3) 0.4342(3)
H8A H -0.7379 -0.4383 0.5041
C10A C -0.6356(4) -0.2833(3) 0.2530(3)
H9A H -0.6345 -0.2578 0.1726
C11A C -0.5501(4) -0.2306(3) 0.3109(3)
H10A H -0.4786 -0.1649 0.2779
C12A C -0.5261(5) -0.2684(3) 0.5234(3)
H11A H -0.5923 -0.3086 0.5977
H12A H -0.4248 -0.3039 0.5232
C13A C -0.5140(4) -0.1284(3) 0.5119(3)
C14A C -0.6431(4) -0.0588(3) 0.5315(3)
H13A H -0.7405 -0.0972 0.5528
C22A C -0.3720(4) -0.0681(3) 0.4806(3)
H21A H -0.2839 -0.1138 0.4671
N2A N -0.6629(3) 1.3777(2) 1.2204(2)
N4A N -0.4951(3) 1.2395(2) 1.1765(2)
C15A C -0.6357(4) 1.2584(3) 1.2357(3)
H14A H -0.7048 1.1947 1.2817
C16A C -0.5313(5) 1.4374(3) 1.1488(3)
H15A H -0.5152 1.5235 1.1235
C17A C -0.4292(5) 1.3531(4) 1.1208(3)
H16A H -0.3323 1.3697 1.0725
C18A C -0.4243(5) 1.1194(4) 1.1726(4)
H17A H -0.3132 1.1307 1.1588
H18A H -0.4559 1.0608 1.2489
C19A C -0.4639(4) 1.0626(3) 1.0799(3)
C20A C -0.5946(4) 1.0909(3) 1.0313(3)
H19A H -0.6593 1.1523 1.0516
C21A C -0.3701(4) 0.9708(3) 1.0468(3)
H20A H -0.2815 0.9504 1.0779
Cd1A Cd -0.87498(2) -0.515544(19) 0.284810(17)
O1A O -1.0665(3) -0.63327(19) 0.24609(18)
H1A H -1.1186 -0.6925 0.2975
H2A H -1.0749 -0.6403 0.1788
S1A S -1.13340(8) -0.36235(6) 0.29693(6)
O2A O -0.8713(3) -0.3878(2) 0.10019(18)
C1A C -1.0135(3) -0.1740(2) 0.3729(2)
C2A C -0.9590(3) -0.0512(3) 0.3493(2)
H3A H -0.9264 -0.0240 0.4080
O3A O -0.9934(4) -0.2964(2) -0.04415(18)
O4A O -1.0816(2) -0.36457(18) 0.52110(16)
C3A C -0.9530(4) 0.0299(3) 0.2405(3)
H4A H -0.9187 0.1122 0.2251
C4A C -0.9993(4) -0.0139(3) 0.1547(3)
H5A H -0.9956 0.0408 0.0809
O5A O -0.9947(3) -0.2036(2) 0.56988(19)
C5A C -1.0575(3) -0.2094(2) 0.2792(2)
N5A N -1.0492(3) -0.1316(2) 0.1726(2)
C6A C -1.1448(4) -0.3549(3) 0.1466(2)
H6A H -1.2045 -0.2830 0.1176
H7A H -1.2005 -0.4288 0.1459
C7A C -0.9889(4) -0.3455(3) 0.0611(3)
C8A C -1.0296(3) -0.2545(3) 0.4970(2)
Cd1_2 Cd -1.12502(2) -0.484456(19) 0.715190(17)
Cd1A_2 Cd -0.87498(2) 1.484456(19) 1.284810(17)
Cd1A_3 Cd 0.12502(2) 0.484456(19) 0.284810(17)
N2A_2 N -0.6629(3) -0.6223(2) 0.2204(2)
O4_2 O -0.9184(2) -0.63543(18) 0.47890(16)
O4A_2 O -0.0816(2) 0.63543(18) 0.52110(16)
loop_
_geom_bond_atom_site_label_1
_geom_bond_atom_site_label_2
_geom_bond_site_symmetry_1
_geom_bond_site_symmetry_2
Cd1 N1 1_555 1_555
N1 C9 1_555 1_555
O1 Cd1 1_555 1_555
H1 O1 1_555 1_555
H2 O1 1_555 1_555
S1 Cd1 1_555 1_555
O2 Cd1 1_555 1_555
C1 C2 1_555 1_555
N2 Cd1 1_555 1_555
C2 H3 1_555 1_555
O3 C7 1_555 1_555
O4 C8 1_555 1_555
N3 C9 1_555 1_555
C3 C2 1_555 1_555
H4 C3 1_555 1_555
N4 C15 1_555 1_555
C4 C3 1_555 1_555
H5 C4 1_555 1_555
O5 C8 1_555 1_555
C5 S1 1_555 1_555
N5 C4 1_555 1_555
C6 S1 1_555 1_555
H6 C6 1_555 1_555
H7 C6 1_555 1_555
C7 O2 1_555 1_555
C8 C1 1_555 1_555
C9 H8 1_555 1_555
C10 N1 1_555 1_555
H9 C10 1_555 1_555
C11 N3 1_555 1_555
H10 C11 1_555 1_555
C12 N3 1_555 1_555
H11 C12 1_555 1_555
H12 C12 1_555 1_555
C13 C12 1_555 1_555
C14 C13 1_555 1_555
H13 C14 1_555 1_555
C15 N2 1_555 1_555
H14 C15 1_555 1_555
C16 N2 1_555 1_555
H15 C16 1_555 1_555
C17 N4 1_555 1_555
H16 C17 1_555 1_555
C18 N4 1_555 1_555
H17 C18 1_555 1_555
H18 C18 1_555 1_555
C19 C18 1_555 1_555
C20 C19 1_555 1_555
H19 C20 1_555 1_555
C21 C19 1_555 1_555
H20 C21 1_555 1_555
C22 C13 1_555 1_555
H21 C22 1_555 1_555
N1A C9A 1_555 1_555
N3A C9A 1_555 1_555
C9A H8A 1_555 1_555
C10A N1A 1_555 1_555
H9A C10A 1_555 1_555
C11A N3A 1_555 1_555
H10A C11A 1_555 1_555
C12A N3A 1_555 1_555
H11A C12A 1_555 1_555
H12A C12A 1_555 1_555
C13A C12A 1_555 1_555
C14A C22 1_555 1_555
H13A C14A 1_555 1_555
C22A C14 1_555 1_555
H21A C22A 1_555 1_555
N2A C15A 1_555 1_555
N4A C15A 1_555 1_555
C15A H14A 1_555 1_555
C16A N2A 1_555 1_555
H15A C16A 1_555 1_555
C17A N4A 1_555 1_555
H16A C17A 1_555 1_555
C18A N4A 1_555 1_555
H17A C18A 1_555 1_555
H18A C18A 1_555 1_555
C19A C18A 1_555 1_555
C20A C21 1_555 1_555
H19A C20A 1_555 1_555
C21A C20 1_555 1_555
H20A C21A 1_555 1_555
Cd1A N1A 1_555 1_555
O1A Cd1A 1_555 1_555
H1A O1A 1_555 1_555
H2A O1A 1_555 1_555
S1A Cd1A 1_555 1_555
O2A Cd1A 1_555 1_555
C1A C2A 1_555 1_555
C2A H3A 1_555 1_555
O3A C7A 1_555 1_555
O4A C8A 1_555 1_555
C3A C2A 1_555 1_555
H4A C3A 1_555 1_555
C4A C3A 1_555 1_555
H5A C4A 1_555 1_555
O5A C8A 1_555 1_555
C5A S1A 1_555 1_555
N5A C4A 1_555 1_555
C6A S1A 1_555 1_555
H6A C6A 1_555 1_555
H7A C6A 1_555 1_555
C7A O2A 1_555 1_555
C8A C1A 1_555 1_555
Cd1_2 O4A 1_555 1_555
Cd1A_2 N2A 1_555 1_555
Cd1A_3 O4 1_555 1_555
N2A_2 Cd1A 1_555 1_555
O4_2 Cd1A 1_555 1_555
O4A_2 Cd1 1_555 1_555
C1 C5 1_555 1_555
C5 N5 1_555 1_555
C6 C7 1_555 1_555
C10 C11 1_555 1_555
C16 C17 1_555 1_555
C10A C11A 1_555 1_555
C13A C14A 1_555 1_555
C13A C22A 1_555 1_555
C16A C17A 1_555 1_555
C19A C20A 1_555 1_555
C19A C21A 1_555 1_555
C1A C5A 1_555 1_555
C5A N5A 1_555 1_555
C6A C7A 1_555 1_555

#END
