
#######################################################################
#
#                 Cambridge Crystallographic Data Centre
#                                CCDC 
#
#######################################################################
#
# If this CIF has been generated from an entry in the Cambridge 
# Structural Database, then it will include bibliographic, chemical, 
# crystal, experimental, refinement or atomic coordinate data resulting 
# from the CCDC's data processing and validation procedures.
#
#######################################################################

data_TIXMIW
_symmetry_cell_setting           monoclinic
_symmetry_space_group_name_H-M   'P 21/c'
_symmetry_Int_Tables_number      14
_space_group_name_Hall           '-P 2ybc'
loop_
_symmetry_equiv_pos_site_id
_symmetry_equiv_pos_as_xyz
1 x,y,z
2 -x,1/2+y,1/2-z
3 -x,-y,-z
4 x,1/2-y,1/2+z
_cell_length_a                   12.644(2)
_cell_length_b                   9.203(2)
_cell_length_c                   13.598(2)
_cell_angle_alpha                90
_cell_angle_beta                 115.21(1)
_cell_angle_gamma                90
_cell_volume                     1431.59
loop_
_atom_site_label
_atom_site_type_symbol
_atom_site_fract_x
_atom_site_fract_y
_atom_site_fract_z
O1 O 1.0562(2) -0.2119(2) 1.0526(2)
O2 O 1.0415(2) -0.2468(2) 1.2196(2)
O3 O 1.1651(2) -0.9446(2) 1.0078(2)
O4 O 1.4210(2) -0.8104(2) 1.3733(2)
O5 O 1.0529(2) -0.0477(2) 1.1872(2)
N1 N 1.2528(2) -0.9424(3) 1.1045(2)
N2 N 1.3693(2) -0.8825(3) 1.2799(2)
C1 C 1.0684(2) -0.2854(3) 1.1407(3)
C2 C 1.1221(2) -0.4321(3) 1.1517(2)
C3 C 1.1606(3) -0.5063(3) 1.2564(3)
C4 C 1.2113(3) -0.6393(3) 1.2683(3)
C5 C 1.2231(2) -0.7000(3) 1.1747(2)
C6 C 1.1838(2) -0.6265(3) 1.0684(3)
C7 C 1.1349(3) -0.4929(3) 1.0579(3)
C8 C 1.2790(2) -0.8396(3) 1.1867(2)
C9 C 1.3453(2) -1.0478(3) 1.1304(3)
C10 C 1.3994(3) -1.0357(3) 1.2651(3)
C11 C 1.3047(3) -1.1954(3) 1.0812(3)
C12 C 1.4147(3) -0.9857(4) 1.0724(3)
C13 C 1.3479(3) -1.1319(4) 1.3254(3)
C14 C 1.5216(3) -1.0541(4) 1.3204(3)
Mn1 Mn 1.0000 0.0000 1.0000
Mn1_2 Mn 1.0000 -1.0000 1.0000
O1B O 0.9438(2) -0.7881(2) 0.9474(2)
C1B C 0.9316(2) -0.7146(3) 0.8593(3)
O2B O 0.9585(2) -0.7532(2) 0.7804(2)
C2B C 0.8779(2) -0.5679(3) 0.8483(2)
C3B C 0.8394(3) -0.4937(3) 0.7436(3)
C4B C 0.7887(3) -0.3607(3) 0.7317(3)
C5B C 0.7769(2) -0.3000(3) 0.8253(2)
C6B C 0.8162(2) -0.3735(3) 0.9316(3)
C7B C 0.8651(3) -0.5071(3) 0.9421(3)
C8B C 0.7210(2) -0.1604(3) 0.8133(2)
N1B N 0.7472(2) -0.0576(3) 0.8955(2)
O3B O 0.8349(2) -0.0554(2) 0.9922(2)
O1B_2 O 0.9438(2) 0.2119(2) 0.9474(2)
O3_2 O 1.1651(2) 0.0554(2) 1.0078(2)
O5B O 0.9471(2) 0.0477(2) 0.8128(2)
C9B C 0.6547(2) 0.0478(3) 0.8696(3)
C10B C 0.6006(3) 0.0357(3) 0.7349(3)
N2B N 0.6307(2) -0.1175(3) 0.7201(2)
O4B O 0.5790(2) -0.1896(2) 0.6267(2)
C13B C 0.6521(3) 0.1319(4) 0.6746(3)
C14B C 0.4784(3) 0.0541(4) 0.6796(3)
C11B C 0.6953(3) 0.1954(3) 0.9188(3)
C12B C 0.5853(3) -0.0143(4) 0.9276(3)
loop_
_geom_bond_atom_site_label_1
_geom_bond_atom_site_label_2
_geom_bond_site_symmetry_1
_geom_bond_site_symmetry_2
O1 C1 1_555 1_555
O2 C1 1_555 1_555
O3 N1 1_555 1_555
O4 N2 1_555 1_555
O5 Mn1 1_555 1_555
N1 C8 1_555 1_555
N2 C8 1_555 1_555
C1 C2 1_555 1_555
C2 C3 1_555 1_555
C3 C4 1_555 1_555
C4 C5 1_555 1_555
C5 C6 1_555 1_555
C6 C7 1_555 1_555
C7 C2 1_555 1_555
C8 C5 1_555 1_555
C9 N1 1_555 1_555
C10 N2 1_555 1_555
C11 C9 1_555 1_555
C12 C9 1_555 1_555
C13 C10 1_555 1_555
C14 C10 1_555 1_555
Mn1 O1 1_555 1_555
Mn1_2 O3 1_555 1_555
O1B Mn1_2 1_555 1_555
C1B O1B 1_555 1_555
O2B C1B 1_555 1_555
C2B C1B 1_555 1_555
C3B C2B 1_555 1_555
C4B C3B 1_555 1_555
C5B C4B 1_555 1_555
C6B C5B 1_555 1_555
C7B C2B 1_555 1_555
C8B C5B 1_555 1_555
N1B C8B 1_555 1_555
O3B Mn1 1_555 1_555
O1B_2 Mn1 1_555 1_555
O3_2 Mn1 1_555 1_555
O5B Mn1 1_555 1_555
C9B N1B 1_555 1_555
C10B C9B 1_555 1_555
N2B C8B 1_555 1_555
O4B N2B 1_555 1_555
C13B C10B 1_555 1_555
C14B C10B 1_555 1_555
C11B C9B 1_555 1_555
C12B C9B 1_555 1_555
C9 C10 1_555 1_555
C6B C7B 1_555 1_555
N1B O3B 1_555 1_555
C10B N2B 1_555 1_555

#END
