
#######################################################################
#
#                 Cambridge Crystallographic Data Centre
#                                CCDC 
#
#######################################################################
#
# If this CIF has been generated from an entry in the Cambridge 
# Structural Database, then it will include bibliographic, chemical, 
# crystal, experimental, refinement or atomic coordinate data resulting 
# from the CCDC's data processing and validation procedures.
#
#######################################################################

data_TIXNOF
_symmetry_cell_setting           monoclinic
_symmetry_space_group_name_H-M   'C 2/c'
_symmetry_Int_Tables_number      15
_space_group_name_Hall           '-C 2yn'
loop_
_symmetry_equiv_pos_site_id
_symmetry_equiv_pos_as_xyz
1 x,y,z
2 -x,y,1/2-z
3 1/2+x,1/2+y,z
4 1/2-x,1/2+y,1/2-z
5 -x,-y,-z
6 x,-y,1/2+z
7 1/2-x,1/2-y,-z
8 1/2+x,1/2-y,1/2+z
_cell_length_a                   23.0358(18)
_cell_length_b                   11.6305(9)
_cell_length_c                   14.5521(12)
_cell_angle_alpha                90
_cell_angle_beta                 114.4920(10)
_cell_angle_gamma                90
_cell_volume                     3547.95
loop_
_atom_site_label
_atom_site_type_symbol
_atom_site_fract_x
_atom_site_fract_y
_atom_site_fract_z
Zn1 Zn 0.113676(13) 1.07517(2) 0.22613(2)
C1 C 0.60675(13) 0.6840(2) 0.7602(2)
H1 H 0.6441 0.6726 0.8180
C2 C 0.58326(12) 0.7944(2) 0.7369(2)
H2 H 0.6050 0.8555 0.7781
C3 C 0.52717(11) 0.81423(19) 0.65188(18)
C4 C 0.49779(12) 0.7183(2) 0.5939(2)
H3 H 0.4600 0.7266 0.5362
C5 C 0.52472(13) 0.6110(2) 0.6219(2)
H4 H 0.5044 0.5484 0.5817
C6 C 0.49909(11) 0.93032(18) 0.62350(19)
C7 C 0.53514(10) 1.0298(2) 0.66079(18)
H5 H 0.5778 1.0238 0.7057
C8 C 0.50791(11) 1.13787(19) 0.63154(18)
C9 C 0.44463(11) 1.1483(2) 0.56419(19)
H6 H 0.4267 1.2210 0.5453
C10 C 0.40749(11) 1.0507(2) 0.52441(19)
C11 C 0.43506(11) 0.9429(2) 0.55596(19)
H7 H 0.4102 0.8775 0.5314
C12 C 0.54851(11) 1.2437(2) 0.6696(2)
C13 C 0.24881(12) 0.9834(2) 0.3114(2)
H8 H 0.2309 0.9257 0.2638
C14 C 0.31250(12) 0.9743(2) 0.3772(2)
H9 H 0.3365 0.9117 0.3733
C15 C 0.34030(11) 1.0595(2) 0.4490(2)
C16 C 0.30270(13) 1.1540(2) 0.4454(2)
H10 H 0.3201 1.2160 0.4884
C17 C 0.23938(13) 1.1559(2) 0.3780(2)
H11 H 0.2148 1.2194 0.3779
C18 C 0.16011(18) 1.0998(3) 0.0675(2)
H12 H 0.1859 1.1536 0.1137
N1 N 0.57841(11) 0.59268(17) 0.70366(17)
N2 N 0.21180(10) 1.07109(18) 0.31308(18)
O1 O 0.52163(9) 1.34082(14) 0.65453(15)
O2 O 0.60758(8) 1.23377(17) 0.71271(16)
O3 O 0.12191(11) 1.0562(2) 0.08863(18)
O4 O 0.17157(16) 1.0849(3) -0.0088(2)
O5 O 0.10323(10) 1.09173(17) 0.36747(16)
H13 H 0.0647 1.1045 0.3577
H14 H 0.1189 1.0381 0.4089
Zn1G Zn 0.613676(13) 0.42483(2) 0.72613(2)
Zn1G_2 Zn 0.613676(13) 1.42483(2) 0.72613(2)
N1G N 0.07841(11) 0.90732(17) 0.20366(17)
O1G O 0.02163(9) 1.15918(14) 0.15453(15)
O2G O 0.10758(8) 1.26623(17) 0.21271(16)
O6 O 0.2884(4) 0.1942(9) 0.0406(7)
loop_
_geom_bond_atom_site_label_1
_geom_bond_atom_site_label_2
_geom_bond_site_symmetry_1
_geom_bond_site_symmetry_2
Zn1 N2 1_555 1_555
C1 H1 1_555 1_555
C2 C1 1_555 1_555
H2 C2 1_555 1_555
C3 C2 1_555 1_555
C4 C3 1_555 1_555
H3 C4 1_555 1_555
C5 C4 1_555 1_555
H4 C5 1_555 1_555
C6 C3 1_555 1_555
C7 C6 1_555 1_555
H5 C7 1_555 1_555
C8 C7 1_555 1_555
C9 C8 1_555 1_555
H6 C9 1_555 1_555
C10 C9 1_555 1_555
C11 C6 1_555 1_555
H7 C11 1_555 1_555
C12 C8 1_555 1_555
C13 H8 1_555 1_555
C14 C13 1_555 1_555
H9 C14 1_555 1_555
C15 C10 1_555 1_555
C16 C15 1_555 1_555
H10 C16 1_555 1_555
C17 C16 1_555 1_555
H11 C17 1_555 1_555
C18 H12 1_555 1_555
N1 C1 1_555 1_555
N2 C13 1_555 1_555
O1 C12 1_555 1_555
O2 C12 1_555 1_555
O3 Zn1 1_555 1_555
O4 C18 1_555 1_555
O5 Zn1 1_555 1_555
H13 O5 1_555 1_555
H14 O5 1_555 1_555
Zn1G N1 1_555 1_555
Zn1G_2 O1 1_555 1_555
N1G Zn1 1_555 1_555
O1G Zn1 1_555 1_555
O2G Zn1 1_555 1_555
C5 N1 1_555 1_555
C10 C11 1_555 1_555
C14 C15 1_555 1_555
C17 N2 1_555 1_555
C18 O3 1_555 1_555
O2 Zn1G_2 1_555 1_555

#END
