
#######################################################################
#
#                 Cambridge Crystallographic Data Centre
#                                CCDC 
#
#######################################################################
#
# If this CIF has been generated from an entry in the Cambridge 
# Structural Database, then it will include bibliographic, chemical, 
# crystal, experimental, refinement or atomic coordinate data resulting 
# from the CCDC's data processing and validation procedures.
#
#######################################################################

data_TIXPAT
_symmetry_cell_setting           monoclinic
_symmetry_space_group_name_H-M   'C 2/c'
_symmetry_Int_Tables_number      15
_space_group_name_Hall           '-C 2yn'
loop_
_symmetry_equiv_pos_site_id
_symmetry_equiv_pos_as_xyz
1 x,y,z
2 -x,y,1/2-z
3 1/2+x,1/2+y,z
4 1/2-x,1/2+y,1/2-z
5 -x,-y,-z
6 x,-y,1/2+z
7 1/2-x,1/2-y,-z
8 1/2+x,1/2-y,1/2+z
_cell_length_a                   18.601(3)
_cell_length_b                   13.5351(19)
_cell_length_c                   14.0326(19)
_cell_angle_alpha                90
_cell_angle_beta                 94.773(2)
_cell_angle_gamma                90
_cell_volume                     3520.69
loop_
_atom_site_label
_atom_site_type_symbol
_atom_site_fract_x
_atom_site_fract_y
_atom_site_fract_z
Co1 Co 0.32040(3) 0.12958(4) 0.64369(4)
C1 C 0.1840(2) 0.1307(3) 0.6245(3)
C2 C 0.1040(2) 0.1309(3) 0.6235(3)
C3 C 0.0671(2) 0.0423(3) 0.6251(3)
H1 H 0.0925 -0.0168 0.6245
C4 C -0.0079(2) 0.0402(3) 0.6278(3)
C5 C -0.0447(2) 0.1301(3) 0.6287(3)
H2 H -0.0947 0.1298 0.6299
C6 C -0.0085(2) 0.2205(3) 0.6277(3)
C7 C 0.0660(2) 0.2191(3) 0.6251(3)
H3 H 0.0910 0.2786 0.6243
C8 C -0.0523(3) 0.4911(3) 0.6155(4)
H4 H -0.0305 0.5485 0.5955
C9 C -0.0158(3) 0.4034(3) 0.6075(4)
H5 H 0.0298 0.4029 0.5849
C10 C -0.0475(2) 0.3156(3) 0.6336(3)
C11 C -0.1140(2) 0.3245(3) 0.6691(3)
H6 H -0.1375 0.2682 0.6882
C12 C -0.1462(3) 0.4156(3) 0.6769(3)
H7 H -0.1907 0.4187 0.7023
C13 C -0.1496(3) -0.1545(3) 0.6560(3)
H8 H -0.1971 -0.1572 0.6719
C14 C -0.1171(3) -0.0630(3) 0.6531(3)
H9 H -0.1429 -0.0064 0.6661
C15 C -0.0464(2) -0.0554(3) 0.6309(3)
C16 C -0.0124(2) -0.1440(3) 0.6134(3)
H10 H 0.0356 -0.1442 0.5992
C17 C -0.0493(3) -0.2313(3) 0.6171(3)
H11 H -0.0248 -0.2891 0.6043
C18 C 0.2318(3) 0.1504(3) 1.0026(3)
H12 H 0.2197 0.0838 1.0043
C19 C 0.2742(3) 0.1855(3) 0.9317(3)
C20 C 0.2919(3) 0.2856(3) 0.9300(3)
H13 H 0.3200 0.3095 0.8832
C21 C 0.2982(3) 0.1162(3) 0.8558(3)
N1 N -0.1161(2) 0.4997(2) 0.6493(2)
N2 N -0.1170(2) -0.2397(2) 0.6374(2)
O1 O 0.21701(15) 0.21225(18) 0.6153(2)
O2 O 0.21827(16) 0.05152(19) 0.6370(2)
O3 O 0.32105(19) 0.1581(2) 0.7843(2)
O4 O 0.2927(2) 0.0256(2) 0.8663(2)
O5 O 0.32692(16) 0.12024(19) 0.49284(19)
H14 H 0.2901 0.0898 0.4678
H15 H 0.3280 0.1782 0.4697
C18F C 0.2682(3) 0.3496(3) 0.9974(3)
H12F H 0.2803 0.4162 0.9957
C19F C 0.2258(3) 0.3145(3) 1.0683(3)
C20F C 0.2081(3) 0.2144(3) 1.0700(3)
H13F H 0.1800 0.1905 1.1168
C21F C 0.2018(3) 0.3838(3) 1.1442(3)
O3F O 0.17895(19) 0.3419(2) 1.2157(2)
O4F O 0.2073(2) 0.4744(2) 1.1337(2)
Co1F Co 0.17960(3) 0.37042(4) 1.35631(4)
C1F C 0.3160(2) 0.3693(3) 1.3755(3)
C2F C 0.3960(2) 0.3691(3) 1.3765(3)
C3F C 0.4329(2) 0.4577(3) 1.3749(3)
H1F H 0.4075 0.5168 1.3755
C4F C 0.5079(2) 0.4598(3) 1.3722(3)
C5F C 0.5447(2) 0.3699(3) 1.3713(3)
H2F H 0.5947 0.3702 1.3701
C6F C 0.5085(2) 0.2795(3) 1.3723(3)
C7F C 0.4340(2) 0.2809(3) 1.3749(3)
H3F H 0.4090 0.2214 1.3757
C8F C 0.5523(3) 0.0089(3) 1.3845(4)
H4F H 0.5305 -0.0485 1.4045
C9F C 0.5158(3) 0.0966(3) 1.3925(4)
H5F H 0.4702 0.0971 1.4151
C10F C 0.5475(2) 0.1844(3) 1.3664(3)
C11F C 0.6140(2) 0.1755(3) 1.3309(3)
H6F H 0.6375 0.2318 1.3118
C12F C 0.6462(3) 0.0844(3) 1.3231(3)
H7F H 0.6907 0.0813 1.2977
C13F C 0.6496(3) 0.6545(3) 1.3440(3)
H8F H 0.6971 0.6572 1.3281
C14F C 0.6171(3) 0.5630(3) 1.3469(3)
H9F H 0.6429 0.5064 1.3339
C15F C 0.5464(2) 0.5554(3) 1.3691(3)
C16F C 0.5124(2) 0.6440(3) 1.3866(3)
H10F H 0.4644 0.6442 1.4008
C17F C 0.5493(3) 0.7313(3) 1.3829(3)
H11F H 0.5248 0.7891 1.3957
N1F N 0.6161(2) 0.0003(2) 1.3507(2)
N2F N 0.6170(2) 0.7397(2) 1.3626(2)
O1F O 0.28299(15) 0.28775(18) 1.3847(2)
O2F O 0.28173(16) 0.44848(19) 1.3630(2)
O5F O 0.17308(16) 0.37976(19) 1.50716(19)
H14F H 0.2099 0.4102 1.5322
H15F H 0.1720 0.3218 1.5303
Co1B Co -0.17960(3) -0.37042(4) 0.64369(4)
Co1B_2 Co -0.17960(3) 0.62958(4) 0.64369(4)
Co1D Co 0.67960(3) -0.12958(4) 1.35631(4)
Co1D_2 Co 0.67960(3) 0.87042(4) 1.35631(4)
N1B N 0.3839(2) -0.0003(2) 0.6493(2)
N1D N 0.1161(2) 0.5003(2) 1.3507(2)
N2B N 0.3830(2) 0.2603(2) 0.6374(2)
N2D N 0.1170(2) 0.2397(2) 1.3626(2)
loop_
_geom_bond_atom_site_label_1
_geom_bond_atom_site_label_2
_geom_bond_site_symmetry_1
_geom_bond_site_symmetry_2
Co1 O1 1_555 1_555
C1 C2 1_555 1_555
C2 C3 1_555 1_555
C3 H1 1_555 1_555
C4 C3 1_555 1_555
C5 C4 1_555 1_555
H2 C5 1_555 1_555
C6 C5 1_555 1_555
C7 C2 1_555 1_555
H3 C7 1_555 1_555
C8 H4 1_555 1_555
C9 C8 1_555 1_555
H5 C9 1_555 1_555
C10 C6 1_555 1_555
C11 C10 1_555 1_555
H6 C11 1_555 1_555
C12 C11 1_555 1_555
H7 C12 1_555 1_555
C13 H8 1_555 1_555
C14 C13 1_555 1_555
H9 C14 1_555 1_555
C15 C4 1_555 1_555
C16 C15 1_555 1_555
H10 C16 1_555 1_555
C17 C16 1_555 1_555
H11 C17 1_555 1_555
C18 H12 1_555 1_555
C19 C18 1_555 1_555
C20 C19 1_555 1_555
H13 C20 1_555 1_555
C21 C19 1_555 1_555
N1 C8 1_555 1_555
N2 C13 1_555 1_555
O1 C1 1_555 1_555
O2 Co1 1_555 1_555
O3 Co1 1_555 1_555
O4 C21 1_555 1_555
O5 Co1 1_555 1_555
H14 O5 1_555 1_555
H15 O5 1_555 1_555
C18F C20 1_555 1_555
H12F C18F 1_555 1_555
C19F C18F 1_555 1_555
C20F C18 1_555 1_555
H13F C20F 1_555 1_555
C21F C19F 1_555 1_555
O3F C21F 1_555 1_555
O4F C21F 1_555 1_555
Co1F O3F 1_555 1_555
C1F C2F 1_555 1_555
C2F C3F 1_555 1_555
C3F H1F 1_555 1_555
C4F C3F 1_555 1_555
C5F C4F 1_555 1_555
H2F C5F 1_555 1_555
C6F C5F 1_555 1_555
C7F C2F 1_555 1_555
H3F C7F 1_555 1_555
C8F H4F 1_555 1_555
C9F C8F 1_555 1_555
H5F C9F 1_555 1_555
C10F C6F 1_555 1_555
C11F C10F 1_555 1_555
H6F C11F 1_555 1_555
C12F C11F 1_555 1_555
H7F C12F 1_555 1_555
C13F H8F 1_555 1_555
C14F C13F 1_555 1_555
H9F C14F 1_555 1_555
C15F C4F 1_555 1_555
C16F C15F 1_555 1_555
H10F C16F 1_555 1_555
C17F C16F 1_555 1_555
H11F C17F 1_555 1_555
N1F C8F 1_555 1_555
N2F C13F 1_555 1_555
O1F Co1F 1_555 1_555
O2F Co1F 1_555 1_555
O5F Co1F 1_555 1_555
H14F O5F 1_555 1_555
H15F O5F 1_555 1_555
Co1B N2 1_555 1_555
Co1B_2 N1 1_555 1_555
Co1D N1F 1_555 1_555
Co1D_2 N2F 1_555 1_555
N1B Co1 1_555 1_555
N1D Co1F 1_555 1_555
N2B Co1 1_555 1_555
N2D Co1F 1_555 1_555
C1 O2 1_555 1_555
C6 C7 1_555 1_555
C9 C10 1_555 1_555
C12 N1 1_555 1_555
C14 C15 1_555 1_555
C17 N2 1_555 1_555
C21 O3 1_555 1_555
C19F C20F 1_555 1_555
C1F O1F 1_555 1_555
C1F O2F 1_555 1_555
C6F C7F 1_555 1_555
C9F C10F 1_555 1_555
C12F N1F 1_555 1_555
C14F C15F 1_555 1_555
C17F N2F 1_555 1_555

#END
