
#######################################################################
#
#                 Cambridge Crystallographic Data Centre
#                                CCDC 
#
#######################################################################
#
# If this CIF has been generated from an entry in the Cambridge 
# Structural Database, then it will include bibliographic, chemical, 
# crystal, experimental, refinement or atomic coordinate data resulting 
# from the CCDC's data processing and validation procedures.
#
#######################################################################

data_TIXSOK
_symmetry_cell_setting           monoclinic
_symmetry_space_group_name_H-M   'C 2/c'
_symmetry_Int_Tables_number      15
_space_group_name_Hall           '-C 2yn'
loop_
_symmetry_equiv_pos_site_id
_symmetry_equiv_pos_as_xyz
1 x,y,z
2 -x,y,1/2-z
3 1/2+x,1/2+y,z
4 1/2-x,1/2+y,1/2-z
5 -x,-y,-z
6 x,-y,1/2+z
7 1/2-x,1/2-y,-z
8 1/2+x,1/2-y,1/2+z
_cell_length_a                   29.274(6)
_cell_length_b                   5.7060(11)
_cell_length_c                   16.852(3)
_cell_angle_alpha                90
_cell_angle_beta                 96.949(4)
_cell_angle_gamma                90
_cell_volume                     2794.24
loop_
_atom_site_label
_atom_site_type_symbol
_atom_site_fract_x
_atom_site_fract_y
_atom_site_fract_z
Cd1 Cd 0.0000 0.17649(8) 1.2500
C1 C 0.05935(18) -0.0278(9) 1.1142(3)
H1 H 0.0678 -0.1568 1.1465
C2 C 0.0520(2) 0.2078(11) 1.0131(3)
H2 H 0.0541 0.2759 0.9636
C3 C 0.0305(2) 0.2959(10) 1.0721(3)
H3 H 0.0145 0.4370 1.0694
C4 C 0.0961(2) -0.1701(10) 0.9963(3)
H4 H 0.0769 -0.2176 0.9480
H5 H 0.1029 -0.3088 1.0288
C5 C 0.14022(18) -0.0702(11) 0.9742(3)
H6 H 0.1335 0.0673 0.9410
H7 H 0.1594 -0.0215 1.0224
C6 C 0.1659(2) -0.2448(11) 0.9302(4)
H8 H 0.1727 -0.3827 0.9631
H9 H 0.1470 -0.2926 0.8816
C7 C 0.2329(2) -0.2599(10) 0.8670(3)
H10 H 0.2228 -0.4080 0.8498
C8 C 0.27591(18) -0.1717(10) 0.8436(3)
C9 C 0.29431(19) 0.0457(11) 0.8706(3)
C10 C 0.3349(2) 0.1221(11) 0.8454(4)
H11 H 0.3476 0.2641 0.8641
C11 C 0.3568(2) -0.0070(13) 0.7935(3)
H12 H 0.3839 0.0486 0.7766
C12 C 0.3390(2) -0.2200(13) 0.7659(4)
H13 H 0.3539 -0.3084 0.7305
C13 C 0.2995(2) -0.2990(11) 0.7911(4)
H14 H 0.2878 -0.4432 0.7727
N1 N 0.03525(14) 0.1496(7) 1.1371(2)
N2 N 0.07040(14) -0.0036(8) 1.0403(2)
N3 N 0.20897(17) -0.1414(8) 0.9100(3)
N4 N 0.04607(17) 0.4709(9) 1.3175(3)
N5 N 0.04846(14) 0.6754(9) 1.3072(2)
N6 N 0.05321(16) 0.8798(9) 1.3001(3)
O1 O 0.27288(19) 0.1802(8) 0.9206(3)
H15 H 0.2567 0.0973 0.9456
C1A C -0.05935(18) -0.0278(9) 1.3858(3)
H1A H -0.0678 -0.1568 1.3535
C2A C -0.0520(2) 0.2078(11) 1.4869(3)
H2A H -0.0541 0.2759 1.5364
C3A C -0.0305(2) 0.2959(10) 1.4279(3)
H3A H -0.0145 0.4370 1.4306
C4A C -0.0961(2) -0.1701(10) 1.5037(3)
H4A H -0.0769 -0.2176 1.5520
H5A H -0.1029 -0.3088 1.4712
C5A C -0.14022(18) -0.0702(11) 1.5258(3)
H6A H -0.1335 0.0673 1.5590
H7A H -0.1594 -0.0215 1.4776
C6A C -0.1659(2) -0.2448(11) 1.5698(4)
H8A H -0.1727 -0.3827 1.5369
H9A H -0.1470 -0.2926 1.6184
C7A C -0.2329(2) -0.2599(10) 1.6330(3)
H10A H -0.2228 -0.4080 1.6502
C8A C -0.27591(18) -0.1717(10) 1.6564(3)
C9A C -0.29431(19) 0.0457(11) 1.6294(3)
C10A C -0.3349(2) 0.1221(11) 1.6546(4)
H11A H -0.3476 0.2641 1.6359
C11A C -0.3568(2) -0.0070(13) 1.7065(3)
H12A H -0.3839 0.0486 1.7234
C12A C -0.3390(2) -0.2200(13) 1.7341(4)
H13A H -0.3539 -0.3084 1.7695
C13A C -0.2995(2) -0.2990(11) 1.7089(4)
H14A H -0.2878 -0.4432 1.7273
N1A N -0.03525(14) 0.1496(7) 1.3629(2)
N2A N -0.07040(14) -0.0036(8) 1.4597(2)
N3A N -0.20897(17) -0.1414(8) 1.5900(3)
N4A N -0.04607(17) 0.4709(9) 1.1825(3)
N5A N -0.04846(14) 0.6754(9) 1.1928(2)
N6A N -0.05321(16) 0.8798(9) 1.1999(3)
O1A O -0.27288(19) 0.1802(8) 1.5794(3)
H15A H -0.2567 0.0973 1.5544
Cd1_2 Cd 0.0000 1.17649(8) 1.2500
N6_2 N 0.05321(16) -0.1202(9) 1.3001(3)
N6A_2 N -0.05321(16) -0.1202(9) 1.1999(3)
loop_
_geom_bond_atom_site_label_1
_geom_bond_atom_site_label_2
_geom_bond_site_symmetry_1
_geom_bond_site_symmetry_2
Cd1 N1 1_555 1_555
C1 H1 1_555 1_555
C2 H2 1_555 1_555
C3 C2 1_555 1_555
H3 C3 1_555 1_555
C4 H4 1_555 1_555
H5 C4 1_555 1_555
C5 C4 1_555 1_555
H6 C5 1_555 1_555
H7 C5 1_555 1_555
C6 C5 1_555 1_555
H8 C6 1_555 1_555
H9 C6 1_555 1_555
C7 H10 1_555 1_555
C8 C7 1_555 1_555
C9 C8 1_555 1_555
C10 C9 1_555 1_555
H11 C10 1_555 1_555
C11 C10 1_555 1_555
H12 C11 1_555 1_555
C12 C11 1_555 1_555
H13 C12 1_555 1_555
C13 C8 1_555 1_555
H14 C13 1_555 1_555
N1 C1 1_555 1_555
N2 C1 1_555 1_555
N3 C6 1_555 1_555
N4 Cd1 1_555 1_555
N5 N4 1_555 1_555
N6 N5 1_555 1_555
O1 C9 1_555 1_555
H15 O1 1_555 1_555
C1A H1A 1_555 1_555
C2A H2A 1_555 1_555
C3A C2A 1_555 1_555
H3A C3A 1_555 1_555
C4A H4A 1_555 1_555
H5A C4A 1_555 1_555
C5A C4A 1_555 1_555
H6A C5A 1_555 1_555
H7A C5A 1_555 1_555
C6A C5A 1_555 1_555
H8A C6A 1_555 1_555
H9A C6A 1_555 1_555
C7A H10A 1_555 1_555
C8A C7A 1_555 1_555
C9A C8A 1_555 1_555
C10A C9A 1_555 1_555
H11A C10A 1_555 1_555
C11A C10A 1_555 1_555
H12A C11A 1_555 1_555
C12A C11A 1_555 1_555
H13A C12A 1_555 1_555
C13A C8A 1_555 1_555
H14A C13A 1_555 1_555
N1A Cd1 1_555 1_555
N2A C1A 1_555 1_555
N3A C6A 1_555 1_555
N4A Cd1 1_555 1_555
N5A N4A 1_555 1_555
N6A N5A 1_555 1_555
O1A C9A 1_555 1_555
H15A O1A 1_555 1_555
Cd1_2 N6 1_555 1_555
N6_2 Cd1 1_555 1_555
N6A_2 Cd1 1_555 1_555
C2 N2 1_555 1_555
C3 N1 1_555 1_555
C4 N2 1_555 1_555
C7 N3 1_555 1_555
C12 C13 1_555 1_555
C1A N1A 1_555 1_555
C2A N2A 1_555 1_555
C3A N1A 1_555 1_555
C4A N2A 1_555 1_555
C7A N3A 1_555 1_555
C12A C13A 1_555 1_555
N6A Cd1_2 1_555 1_555

#END
