
#######################################################################
#
#                 Cambridge Crystallographic Data Centre
#                                CCDC 
#
#######################################################################
#
# If this CIF has been generated from an entry in the Cambridge 
# Structural Database, then it will include bibliographic, chemical, 
# crystal, experimental, refinement or atomic coordinate data resulting 
# from the CCDC's data processing and validation procedures.
#
#######################################################################

data_TIXSUQ
_symmetry_cell_setting           monoclinic
_symmetry_space_group_name_H-M   'P 2/c'
_symmetry_Int_Tables_number      13
_space_group_name_Hall           '-P 2yc'
loop_
_symmetry_equiv_pos_site_id
_symmetry_equiv_pos_as_xyz
1 x,y,z
2 -x,y,1/2-z
3 -x,-y,-z
4 x,-y,1/2+z
_cell_length_a                   8.0234(9)
_cell_length_b                   8.7112(10)
_cell_length_c                   17.113(2)
_cell_angle_alpha                90
_cell_angle_beta                 96.263(2)
_cell_angle_gamma                90
_cell_volume                     1188.95
loop_
_atom_site_label
_atom_site_type_symbol
_atom_site_fract_x
_atom_site_fract_y
_atom_site_fract_z
Cd1 Cd 0.78868(4) 0.02639(4) 0.193737(18)
Br1 Br 0.5000 -0.09688(8) 0.2500
Br2 Br 0.71642(7) -0.10800(7) 0.05309(3)
Br3 Br 1.09352(5) 0.14489(6) 0.15368(3)
Br4 Br 1.0000 -0.22679(8) 0.2500
C1 C 0.5161(6) 0.2937(6) 0.1470(3)
H1 H 0.4321 0.2208 0.1362
C2 C 0.6418(6) 0.5145(6) 0.1626(3)
H2 H 0.6636 0.6193 0.1647
C3 C 0.7531(6) 0.4001(6) 0.1764(2)
H3 H 0.8674 0.4135 0.1907
C4 C 0.3292(6) 0.5255(6) 0.1290(3)
H4 H 0.3253 0.6102 0.1656
H5 H 0.2389 0.4553 0.1372
C5 C 0.3035(7) 0.5863(7) 0.0459(3)
H6 H 0.3960 0.6535 0.0370
H7 H 0.3034 0.5012 0.0093
C6 C 0.1427(8) 0.6725(9) 0.0304(3)
H8 H 0.1121 0.6799 -0.0259
H9 H 0.0547 0.6163 0.0527
N1 N 0.6743(4) 0.2611(4) 0.1664(2)
N2 N 0.4906(5) 0.4456(4) 0.1448(2)
N3 N 0.1551(9) 0.8277(6) 0.0644(3)
H10 H 0.1884 0.8215 0.1157
H11 H 0.0554 0.8733 0.0571
H12 H 0.2292 0.8823 0.0410
Cd1A Cd 0.21132(4) 0.02639(4) 0.306263(18)
Br2A Br 0.28358(7) -0.10800(7) 0.44691(3)
Br3A Br -0.09352(5) 0.14489(6) 0.34632(3)
C1A C 0.4839(6) 0.2937(6) 0.3530(3)
H1A H 0.5679 0.2208 0.3638
C2A C 0.3582(6) 0.5145(6) 0.3374(3)
H2A H 0.3364 0.6193 0.3353
C3A C 0.2469(6) 0.4001(6) 0.3236(2)
H3A H 0.1326 0.4135 0.3093
C4A C 0.6708(6) 0.5255(6) 0.3710(3)
H4A H 0.6747 0.6102 0.3344
H5A H 0.7611 0.4553 0.3628
C5A C 0.6965(7) 0.5863(7) 0.4541(3)
H6A H 0.6040 0.6535 0.4630
H7A H 0.6966 0.5012 0.4907
C6A C 0.8573(8) 0.6725(9) 0.4696(3)
H8A H 0.8879 0.6799 0.5259
H9A H 0.9453 0.6163 0.4473
N1A N 0.3257(4) 0.2611(4) 0.3336(2)
N2A N 0.5094(5) 0.4456(4) 0.3552(2)
N3A N 0.8449(9) 0.8277(6) 0.4356(3)
H10A H 0.8116 0.8215 0.3843
H11A H 0.9446 0.8733 0.4429
H12A H 0.7708 0.8823 0.4590
Cd1_2 Cd -0.21132(4) 0.02639(4) 0.193737(18)
Cd1A_2 Cd 1.21132(4) 0.02639(4) 0.306263(18)
Br3_2 Br 0.09352(5) 0.14489(6) 0.15368(3)
Br3A_2 Br 0.90648(5) 0.14489(6) 0.34632(3)
Br4_2 Br 0.0000 -0.22679(8) 0.2500
loop_
_geom_bond_atom_site_label_1
_geom_bond_atom_site_label_2
_geom_bond_site_symmetry_1
_geom_bond_site_symmetry_2
Cd1 Br1 1_555 1_555
Br1 Cd1A 1_555 1_555
Br2 Cd1 1_555 1_555
Br3 Cd1 1_555 1_555
Br4 Cd1 1_555 1_555
C1 H1 1_555 1_555
C2 H2 1_555 1_555
C3 C2 1_555 1_555
H3 C3 1_555 1_555
C4 H4 1_555 1_555
H5 C4 1_555 1_555
C5 C4 1_555 1_555
H6 C5 1_555 1_555
H7 C5 1_555 1_555
C6 C5 1_555 1_555
H8 C6 1_555 1_555
H9 C6 1_555 1_555
N1 Cd1 1_555 1_555
N2 C1 1_555 1_555
N3 C6 1_555 1_555
H10 N3 1_555 1_555
H11 N3 1_555 1_555
H12 N3 1_555 1_555
Cd1A Br2A 1_555 1_555
Br3A Cd1A 1_555 1_555
C1A H1A 1_555 1_555
C2A H2A 1_555 1_555
C3A C2A 1_555 1_555
H3A C3A 1_555 1_555
C4A H4A 1_555 1_555
H5A C4A 1_555 1_555
C5A C4A 1_555 1_555
H6A C5A 1_555 1_555
H7A C5A 1_555 1_555
C6A C5A 1_555 1_555
H8A C6A 1_555 1_555
H9A C6A 1_555 1_555
N1A Cd1A 1_555 1_555
N2A C1A 1_555 1_555
N3A C6A 1_555 1_555
H10A N3A 1_555 1_555
H11A N3A 1_555 1_555
H12A N3A 1_555 1_555
Cd1_2 Br3A 1_555 1_555
Cd1A_2 Br3 1_555 1_555
Br3_2 Cd1A 1_555 1_555
Br3A_2 Cd1 1_555 1_555
Br4_2 Cd1A 1_555 1_555
Br4 Cd1A_2 1_555 1_555
C1 N1 1_555 1_555
C2 N2 1_555 1_555
C3 N1 1_555 1_555
C4 N2 1_555 1_555
C1A N1A 1_555 1_555
C2A N2A 1_555 1_555
C3A N1A 1_555 1_555
C4A N2A 1_555 1_555
Cd1_2 Br3_2 1_555 1_555
Cd1_2 Br4_2 1_555 1_555
Cd1A_2 Br3A_2 1_555 1_555

#END
