
#######################################################################
#
#                 Cambridge Crystallographic Data Centre
#                                CCDC 
#
#######################################################################
#
# If this CIF has been generated from an entry in the Cambridge 
# Structural Database, then it will include bibliographic, chemical, 
# crystal, experimental, refinement or atomic coordinate data resulting 
# from the CCDC's data processing and validation procedures.
#
#######################################################################

data_TIXXOP
_symmetry_cell_setting           monoclinic
_symmetry_space_group_name_H-M   'P 21/c'
_symmetry_Int_Tables_number      14
_space_group_name_Hall           '-P 2ybc'
loop_
_symmetry_equiv_pos_site_id
_symmetry_equiv_pos_as_xyz
1 x,y,z
2 -x,1/2+y,1/2-z
3 -x,-y,-z
4 x,1/2-y,1/2+z
_cell_length_a                   11.6634(6)
_cell_length_b                   31.4028(11)
_cell_length_c                   9.3270(4)
_cell_angle_alpha                90
_cell_angle_beta                 109.747(5)
_cell_angle_gamma                90
_cell_volume                     3215.25
loop_
_atom_site_label
_atom_site_type_symbol
_atom_site_fract_x
_atom_site_fract_y
_atom_site_fract_z
C1 C 0.4192(4) 0.06197(14) 0.1099(5)
C2 C 0.3775(5) 0.03971(14) 0.2135(5)
H1 H 0.2991 0.0458 0.2185
C3 C 0.4489(5) 0.00936(15) 0.3075(5)
H2 H 0.4192 -0.0055 0.3765
C4 C 0.5652(5) -0.00007(14) 0.3031(5)
H3 H 0.6156 -0.0203 0.3717
C5 C 0.6056(4) 0.02023(14) 0.1985(5)
H4 H 0.6829 0.0130 0.1924
C6 C 0.5346(4) 0.05154(13) 0.1003(5)
C7 C 0.5788(4) 0.06926(14) -0.0130(5)
H5 H 0.6548 0.0593 -0.0162
C8 C 0.5752(5) 0.11175(14) -0.2223(5)
H6 H 0.5395 0.0957 -0.3185
H7 H 0.6642 0.1069 -0.1837
C9 C 0.5478(4) 0.15901(14) -0.2489(5)
H8 H 0.6045 0.1757 -0.1645
H9 H 0.5589 0.1679 -0.3451
C10 C 0.3230(5) 0.16134(15) -0.4091(5)
H10 H 0.2557 0.1816 -0.4194
H11 H 0.3573 0.1677 -0.4906
C11 C 0.2752(5) 0.11742(14) -0.4275(5)
H12 H 0.3330 0.0981 -0.4525
H13 H 0.1964 0.1163 -0.5123
C12 C 0.1368(4) 0.11097(13) -0.2673(5)
H14 H 0.0716 0.1067 -0.3667
H15 H 0.1235 0.0907 -0.1933
C13 C 0.1325(4) 0.15498(13) -0.2143(5)
H16 H 0.1238 0.1754 -0.2983
H17 H 0.0624 0.1586 -0.1783
C14 C 0.2464(4) 0.18575(13) 0.0225(5)
H18 H 0.1703 0.1970 0.0209
C15 C 0.3514(4) 0.19633(12) 0.1511(5)
C16 C 0.3354(4) 0.22201(12) 0.2642(5)
H19 H 0.2555 0.2304 0.2580
C17 C 0.4347(4) 0.23558(13) 0.3860(5)
H20 H 0.4230 0.2526 0.4643
C18 C 0.5508(4) 0.22414(13) 0.3925(5)
H21 H 0.6189 0.2334 0.4760
C19 C 0.5694(4) 0.19974(12) 0.2805(4)
H22 H 0.6503 0.1931 0.2857
C20 C 0.4701(4) 0.18421(13) 0.1572(5)
N1 N 0.5220(4) 0.09807(11) -0.1117(4)
N2 N 0.4196(4) 0.16721(11) -0.2573(4)
H23 H 0.4155 0.1953 -0.2279
N3 N 0.2580(3) 0.10317(11) -0.2829(4)
H24 H 0.2711 0.0739 -0.2754
N4 N 0.2462(3) 0.16245(11) -0.0902(4)
O1 O 0.3444(3) 0.09058(9) 0.0206(3)
O2 O 0.4951(3) 0.16053(9) 0.0554(3)
Fe1 Fe 0.38375(6) 0.129747(19) -0.10242(7)
C21 C -0.1069(4) 0.12285(12) 0.2245(4)
C22 C 0.0090(4) 0.12596(13) 0.1827(4)
C23 C -0.1366(4) 0.26058(12) 0.3856(5)
C24 C -0.0182(4) 0.23810(12) 0.4796(4)
C25 C 0.0542(4) 0.01389(12) 0.5415(5)
C26 C -0.0626(4) 0.00833(12) -0.0482(5)
O3 O -0.1654(2) 0.15626(8) 0.2216(3)
O4 O 0.0373(2) 0.16242(8) 0.1510(3)
O5 O -0.1344(2) 0.08644(8) 0.2588(3)
O6 O 0.0685(3) 0.09259(8) 0.1888(3)
O7 O -0.1793(2) 0.28658(8) 0.4569(3)
O8 O 0.0239(2) 0.24638(7) 0.6188(3)
O9 O -0.1797(2) 0.25130(7) 0.2467(3)
O10 O 0.0284(2) 0.21281(8) 0.4093(3)
O11 O 0.1016(3) 0.00773(8) 0.6838(3)
O12 O -0.0993(2) -0.00119(8) -0.1868(3)
O13 O 0.0887(2) 0.04109(8) 0.4660(3)
O14 O -0.1186(3) 0.03115(8) 0.0177(3)
Cr1 Cr -0.01676(5) 0.040324(16) 0.24173(6)
Cr2 Cr -0.07719(5) 0.208388(16) 0.18085(6)
C25B C -0.0542(4) -0.01389(12) 0.4585(5)
O13B O -0.0887(2) -0.04109(8) 0.5340(3)
O11B O -0.1016(3) -0.00773(8) 0.3162(3)
C26B C 0.0626(4) -0.00833(12) 0.0482(5)
O14B O 0.1186(3) -0.03115(8) -0.0177(3)
O12B O 0.0993(2) 0.00119(8) 0.1868(3)
C21B C 0.1069(4) -0.12285(12) -0.2245(4)
C22B C -0.0090(4) -0.12596(13) -0.1827(4)
C23B C 0.1366(4) -0.26058(12) -0.3856(5)
C24B C 0.0182(4) -0.23810(12) -0.4796(4)
O3B O 0.1654(2) -0.15626(8) -0.2216(3)
O4B O -0.0373(2) -0.16242(8) -0.1510(3)
O5B O 0.1344(2) -0.08644(8) -0.2588(3)
O6B O -0.0685(3) -0.09259(8) -0.1888(3)
O7B O 0.1793(2) -0.28658(8) -0.4569(3)
O8B O -0.0239(2) -0.24638(7) -0.6188(3)
O9B O 0.1797(2) -0.25130(7) -0.2467(3)
O10B O -0.0284(2) -0.21281(8) -0.4093(3)
Cr1B Cr 0.01676(5) -0.040324(16) -0.24173(6)
Cr2B Cr 0.07719(5) -0.208388(16) -0.18085(6)
O7A O 0.1793(2) -0.21342(8) 0.0431(3)
O7C O -0.1793(2) 0.21342(8) -0.0431(3)
O8A O -0.0239(2) -0.25362(7) -0.1188(3)
O8C O 0.0239(2) 0.25362(7) 0.1188(3)
O11_2 O 0.1016(3) 0.00773(8) -0.3162(3)
O13B_2 O -0.0887(2) -0.04109(8) -0.4660(3)
Cr1B_2 Cr 0.01676(5) -0.040324(16) 0.75827(6)
Cr2A Cr 0.07719(5) -0.291612(16) -0.68085(6)
Cr2C Cr -0.07719(5) 0.291612(16) 0.68085(6)
Cl1 Cl 0.80668(12) 0.15798(4) 0.58611(13)
Cl2 Cl 0.78918(12) 0.06609(4) 0.59370(14)
C27 C 0.7276(4) 0.11241(12) 0.4906(4)
H25 H 0.6403 0.1148 0.4793
H26 H 0.7338 0.1107 0.3875
Zn1? Zn -0.01676(5) 0.040324(16) 0.24173(6)
Zn2? Zn -0.07719(5) 0.208388(16) 0.18085(6)
loop_
_geom_bond_atom_site_label_1
_geom_bond_atom_site_label_2
_geom_bond_site_symmetry_1
_geom_bond_site_symmetry_2
C1 C2 1_555 1_555
C2 H1 1_555 1_555
C3 C2 1_555 1_555
H2 C3 1_555 1_555
C4 C3 1_555 1_555
H3 C4 1_555 1_555
C5 C4 1_555 1_555
H4 C5 1_555 1_555
C6 C1 1_555 1_555
C7 C6 1_555 1_555
H5 C7 1_555 1_555
C8 H6 1_555 1_555
H7 C8 1_555 1_555
C9 C8 1_555 1_555
H8 C9 1_555 1_555
H9 C9 1_555 1_555
C10 H10 1_555 1_555
H11 C10 1_555 1_555
C11 C10 1_555 1_555
H12 C11 1_555 1_555
H13 C11 1_555 1_555
C12 H14 1_555 1_555
H15 C12 1_555 1_555
C13 C12 1_555 1_555
H16 C13 1_555 1_555
H17 C13 1_555 1_555
C14 H18 1_555 1_555
C15 C14 1_555 1_555
C16 C15 1_555 1_555
H19 C16 1_555 1_555
C17 C16 1_555 1_555
H20 C17 1_555 1_555
C18 C17 1_555 1_555
H21 C18 1_555 1_555
C19 C18 1_555 1_555
H22 C19 1_555 1_555
C20 C15 1_555 1_555
N1 C7 1_555 1_555
N2 C9 1_555 1_555
H23 N2 1_555 1_555
N3 C11 1_555 1_555
H24 N3 1_555 1_555
N4 C13 1_555 1_555
O1 C1 1_555 1_555
O2 C20 1_555 1_555
Fe1 N1 1_555 1_555
C21 C22 1_555 1_555
C22 O4 1_555 1_555
C23 C24 1_555 1_555
C24 O8 1_555 1_555
C25 O11 1_555 1_555
C26 O12 1_555 1_555
O3 C21 1_555 1_555
O4 Cr2 1_555 1_555
O5 C21 1_555 1_555
O6 C22 1_555 1_555
O7 C23 1_555 1_555
O8 Cr2C 1_555 1_555
O9 C23 1_555 1_555
O10 C24 1_555 1_555
O11 Cr1B_2 1_555 1_555
O12 Cr1B 1_555 1_555
O13 C25 1_555 1_555
O14 C26 1_555 1_555
Cr1 O5 1_555 1_555
Cr2 O3 1_555 1_555
Cl1 C27 1_555 1_555
Cl2 C27 1_555 1_555
C27 H25 1_555 1_555
H26 C27 1_555 1_555
C25B C25 1_555 1_555
O13B C25B 1_555 1_555
O11B Cr1 1_555 1_555
C26B C26 1_555 1_555
O14B C26B 1_555 1_555
O12B Cr1 1_555 1_555
C21B C22B 1_555 1_555
C22B O4B 1_555 1_555
C23B C24B 1_555 1_555
C24B O8B 1_555 1_555
O3B C21B 1_555 1_555
O4B Cr2B 1_555 1_555
O5B C21B 1_555 1_555
O6B C22B 1_555 1_555
O7B C23B 1_555 1_555
O8B Cr2A 1_555 1_555
O9B C23B 1_555 1_555
O10B C24B 1_555 1_555
Cr1B O14B 1_555 1_555
Cr2B O3B 1_555 1_555
O7A Cr2B 1_555 1_555
O7C Cr2 1_555 1_555
O8A Cr2B 1_555 1_555
O8C Cr2 1_555 1_555
O11_2 Cr1B 1_555 1_555
O13B_2 Cr1B 1_555 1_555
Cr1B_2 O13B 1_555 1_555
Cr2A O7B 1_555 1_555
Cr2C O7 1_555 1_555
C5 C6 1_555 1_555
C8 N1 1_555 1_555
C10 N2 1_555 1_555
C12 N3 1_555 1_555
C14 N4 1_555 1_555
C19 C20 1_555 1_555
N2 Fe1 1_555 1_555
N3 Fe1 1_555 1_555
N4 Fe1 1_555 1_555
O1 Fe1 1_555 1_555
O2 Fe1 1_555 1_555
O6 Cr1 1_555 1_555
O9 Cr2 1_555 1_555
O10 Cr2 1_555 1_555
O13 Cr1 1_555 1_555
O14 Cr1 1_555 1_555
C25B O11B 1_555 1_555
C26B O12B 1_555 1_555
O5B Cr1B 1_555 1_555
O6B Cr1B 1_555 1_555
O9B Cr2B 1_555 1_555
O10B Cr2B 1_555 1_555

#END
