
#######################################################################
#
#                 Cambridge Crystallographic Data Centre
#                                CCDC 
#
#######################################################################
#
# If this CIF has been generated from an entry in the Cambridge 
# Structural Database, then it will include bibliographic, chemical, 
# crystal, experimental, refinement or atomic coordinate data resulting 
# from the CCDC's data processing and validation procedures.
#
#######################################################################

data_TIXXUV01
_symmetry_cell_setting           monoclinic
_symmetry_space_group_name_H-M   'P 21/c'
_symmetry_Int_Tables_number      14
_space_group_name_Hall           '-P 2ybc'
loop_
_symmetry_equiv_pos_site_id
_symmetry_equiv_pos_as_xyz
1 x,y,z
2 -x,1/2+y,1/2-z
3 -x,-y,-z
4 x,1/2-y,1/2+z
_cell_length_a                   11.7374(14)
_cell_length_b                   31.670(3)
_cell_length_c                   9.5800(9)
_cell_angle_alpha                90
_cell_angle_beta                 111.136(12)
_cell_angle_gamma                90
_cell_volume                     3321.54
loop_
_atom_site_label
_atom_site_type_symbol
_atom_site_fract_x
_atom_site_fract_y
_atom_site_fract_z
C1 C 0.9155(5) 0.05963(17) 1.1111(6)
C2 C 0.8715(5) 0.03703(15) 1.2066(5)
H1 H 0.7925 0.0431 1.2076
C3 C 0.9423(5) 0.00559(16) 1.3008(5)
H2 H 0.9105 -0.0101 1.3629
C4 C 1.0592(5) -0.00266(16) 1.3035(5)
H3 H 1.1093 -0.0228 1.3716
C5 C 1.1024(5) 0.01865(15) 1.2061(5)
H4 H 1.1813 0.0123 1.2057
C6 C 1.0313(5) 0.04944(15) 1.1084(5)
C7 C 1.0799(5) 0.06843(16) 1.0062(5)
H5 H 1.1563 0.0584 1.0065
C8 C 1.0841(5) 0.11374(15) 0.8126(5)
H6 H 1.0538 0.0978 0.7175
H7 H 1.1737 0.1101 0.8580
C9 C 1.0529(5) 0.16006(15) 0.7835(5)
H8 H 1.1057 0.1770 0.8691
H9 H 1.0681 0.1692 0.6929
C10 C 0.8307(5) 0.16039(17) 0.6109(6)
H10 H 0.7620 0.1803 0.5939
H11 H 0.8681 0.1663 0.5354
C11 C 0.7843(5) 0.11764(16) 0.5916(5)
H12 H 0.8445 0.0986 0.5736
H13 H 0.7076 0.1163 0.5031
C12 C 0.6388(5) 0.10996(17) 0.7335(6)
H14 H 0.6237 0.0886 0.8004
H15 H 0.5760 0.1063 0.6324
C13 C 0.6289(5) 0.15282(17) 0.7898(5)
H16 H 0.6167 0.1740 0.7097
H17 H 0.5588 0.1543 0.8239
C14 C 0.7407(5) 0.18299(15) 1.0251(5)
H18 H 0.6625 0.1919 1.0219
C15 C 0.8423(5) 0.19546(14) 1.1514(5)
C16 C 0.8231(5) 0.21993(14) 1.2633(5)
H19 H 0.7420 0.2257 1.2573
C17 C 0.9211(5) 0.23586(15) 1.3831(5)
H20 H 0.9074 0.2519 1.4593
C18 C 1.0382(5) 0.22798(15) 1.3892(5)
H21 H 1.1054 0.2390 1.4701
C19 C 1.0602(5) 0.20423(15) 1.2796(5)
H22 H 1.1418 0.2001 1.2848
C20 C 0.9639(5) 0.18638(15) 1.1619(5)
N1 N 1.0268(4) 0.09823(12) 0.9137(4)
N2 N 0.9225(4) 0.16731(13) 0.7621(4)
H23 H 0.9151 0.1952 0.7883
N3 N 0.7605(4) 0.10321(12) 0.7268(4)
H24 H 0.7745 0.0743 0.7345
N4 N 0.7438(4) 0.16100(13) 0.9153(4)
O1 O 0.8434(3) 0.08960(11) 1.0274(3)
O2 O 0.9920(3) 0.16234(10) 1.0664(3)
Fe1 Fe 0.88462(7) 0.12966(2) 0.91206(8)
C21 C 0.4808(4) 0.26214(14) 0.9936(5)
C22 C 0.3625(5) 0.23924(15) 0.9001(6)
C23 C 0.5106(4) 0.12691(16) 1.1962(5)
C24 C 0.3925(5) 0.12276(16) 1.2314(5)
C25 C 0.5629(4) -0.00912(15) 1.0485(5)
C26 C 0.4443(4) -0.01362(15) 1.4578(5)
O3 O 0.5271(3) 0.28650(10) 0.9258(3)
O4 O 0.3209(3) 0.24712(9) 0.7629(3)
O5 O 0.5222(3) 0.25506(9) 1.1320(3)
O6 O 0.3191(3) 0.21436(9) 0.9703(3)
O7 O 0.5369(3) 0.16314(10) 1.1672(3)
O8 O 0.3357(3) 0.15578(10) 1.2344(3)
O9 O 0.5672(3) 0.09343(10) 1.1968(3)
O10 O 0.3649(3) 0.08610(10) 1.2603(3)
O11 O 0.6001(3) -0.00030(9) 1.1861(3)
O12 O 0.6173(3) -0.03096(9) 0.9837(3)
O13 O 0.4000(3) -0.00844(9) 1.3185(3)
O14 O 0.4091(3) -0.03974(9) 1.5308(3)
Cr1 Cr 0.42281(7) 0.20951(2) 1.19671(7)
Cr2 Cr 0.48393(8) 0.03960(2) 1.24172(8)
C25B C 0.4371(4) 0.00912(15) 0.9515(5)
O11B O 0.3999(3) 0.00030(9) 0.8139(3)
O12B O 0.3827(3) 0.03096(9) 1.0163(3)
C26B C 0.5557(4) 0.01362(15) 1.5422(5)
O13B O 0.6000(3) 0.00844(9) 1.6815(3)
O14B O 0.5909(3) 0.03974(9) 1.4692(3)
C21B C 0.5192(4) -0.26214(14) 1.0064(5)
C22B C 0.6375(5) -0.23924(15) 1.0999(6)
C23B C 0.4894(4) -0.12691(16) 0.8038(5)
C24B C 0.6075(5) -0.12276(16) 0.7686(5)
O3B O 0.4729(3) -0.28650(10) 1.0742(3)
O4B O 0.6791(3) -0.24712(9) 1.2371(3)
O5B O 0.4778(3) -0.25506(9) 0.8680(3)
O6B O 0.6809(3) -0.21436(9) 1.0297(3)
O7B O 0.4631(3) -0.16314(10) 0.8328(3)
O8B O 0.6643(3) -0.15578(10) 0.7656(3)
O9B O 0.4328(3) -0.09343(10) 0.8032(3)
O10B O 0.6351(3) -0.08610(10) 0.7397(3)
Cr1B Cr 0.57719(7) -0.20951(2) 0.80329(7)
Cr2B Cr 0.51607(8) -0.03960(2) 0.75828(8)
O3A O 0.4729(3) -0.21350(10) 0.5742(3)
O3C O 0.5271(3) 0.21350(10) 1.4258(3)
O4A O 0.6791(3) -0.25288(9) 0.7371(3)
O4C O 0.3209(3) 0.25288(9) 1.2629(3)
O13B_2 O 0.6000(3) 0.00844(9) 0.6815(3)
O14_2 O 0.4091(3) -0.03974(9) 0.5308(3)
Cr1A Cr 0.57719(7) -0.29049(2) 1.30329(7)
Cr1C Cr 0.42281(7) 0.29049(2) 0.69671(7)
Cr2B_2 Cr 0.51607(8) -0.03960(2) 1.75828(8)
C27 C 0.2337(5) 0.11191(15) 1.4939(5)
H25 H 0.2553 0.1118 1.4020
Cl1 Cl 0.07400(13) 0.10840(4) 1.43819(13)
Cl2 Cl 0.28872(13) 0.15925(4) 1.59234(14)
Cl3 Cl 0.30315(14) 0.06851(4) 1.60323(15)
Mn1? Mn 0.42281(7) 0.20951(2) 1.19671(7)
Mn2? Mn 0.48393(8) 0.03960(2) 1.24172(8)
loop_
_geom_bond_atom_site_label_1
_geom_bond_atom_site_label_2
_geom_bond_site_symmetry_1
_geom_bond_site_symmetry_2
C1 C2 1_555 1_555
C2 H1 1_555 1_555
C3 C2 1_555 1_555
H2 C3 1_555 1_555
C4 C3 1_555 1_555
H3 C4 1_555 1_555
C5 C4 1_555 1_555
H4 C5 1_555 1_555
C6 C1 1_555 1_555
C7 C6 1_555 1_555
H5 C7 1_555 1_555
C8 H6 1_555 1_555
H7 C8 1_555 1_555
C9 C8 1_555 1_555
H8 C9 1_555 1_555
H9 C9 1_555 1_555
C10 H10 1_555 1_555
H11 C10 1_555 1_555
C11 C10 1_555 1_555
H12 C11 1_555 1_555
H13 C11 1_555 1_555
C12 H14 1_555 1_555
H15 C12 1_555 1_555
C13 C12 1_555 1_555
H16 C13 1_555 1_555
H17 C13 1_555 1_555
C14 H18 1_555 1_555
C15 C14 1_555 1_555
C16 C15 1_555 1_555
H19 C16 1_555 1_555
C17 C16 1_555 1_555
H20 C17 1_555 1_555
C18 C17 1_555 1_555
H21 C18 1_555 1_555
C19 C18 1_555 1_555
H22 C19 1_555 1_555
C20 C15 1_555 1_555
N1 C7 1_555 1_555
N2 C9 1_555 1_555
H23 N2 1_555 1_555
N3 C11 1_555 1_555
H24 N3 1_555 1_555
N4 C13 1_555 1_555
O1 C1 1_555 1_555
O2 C20 1_555 1_555
Fe1 N1 1_555 1_555
C21 C22 1_555 1_555
C22 O4 1_555 1_555
C23 C24 1_555 1_555
C24 O8 1_555 1_555
C25 O11 1_555 1_555
C26 O13 1_555 1_555
O3 C21 1_555 1_555
O4 Cr1C 1_555 1_555
O5 C21 1_555 1_555
O6 C22 1_555 1_555
O7 C23 1_555 1_555
O8 Cr1 1_555 1_555
O9 C23 1_555 1_555
O10 C24 1_555 1_555
O11 Cr2 1_555 1_555
O12 C25 1_555 1_555
O13 Cr2 1_555 1_555
O14 C26 1_555 1_555
Cr1 O5 1_555 1_555
Cr2 O9 1_555 1_555
C27 H25 1_555 1_555
Cl1 C27 1_555 1_555
Cl2 C27 1_555 1_555
Cl3 C27 1_555 1_555
C25B C25 1_555 1_555
O11B C25B 1_555 1_555
O12B Cr2 1_555 1_555
C26B C26 1_555 1_555
O13B C26B 1_555 1_555
O14B Cr2 1_555 1_555
C21B C22B 1_555 1_555
C22B O4B 1_555 1_555
C23B C24B 1_555 1_555
C24B O8B 1_555 1_555
O3B C21B 1_555 1_555
O4B Cr1A 1_555 1_555
O5B C21B 1_555 1_555
O6B C22B 1_555 1_555
O7B C23B 1_555 1_555
O8B Cr1B 1_555 1_555
O9B C23B 1_555 1_555
O10B C24B 1_555 1_555
Cr1B O5B 1_555 1_555
Cr2B O12 1_555 1_555
O3A Cr1B 1_555 1_555
O3C Cr1 1_555 1_555
O4A Cr1B 1_555 1_555
O4C Cr1 1_555 1_555
O13B_2 Cr2B 1_555 1_555
O14_2 Cr2B 1_555 1_555
Cr1A O3B 1_555 1_555
Cr1C O3 1_555 1_555
Cr2B_2 O14 1_555 1_555
C5 C6 1_555 1_555
C8 N1 1_555 1_555
C10 N2 1_555 1_555
C12 N3 1_555 1_555
C14 N4 1_555 1_555
C19 C20 1_555 1_555
N2 Fe1 1_555 1_555
N3 Fe1 1_555 1_555
N4 Fe1 1_555 1_555
O1 Fe1 1_555 1_555
O2 Fe1 1_555 1_555
O6 Cr1 1_555 1_555
O7 Cr1 1_555 1_555
O10 Cr2 1_555 1_555
C25B O12B 1_555 1_555
O11B Cr2B 1_555 1_555
C26B O14B 1_555 1_555
O13B Cr2B_2 1_555 1_555
O6B Cr1B 1_555 1_555
O7B Cr1B 1_555 1_555
O9B Cr2B 1_555 1_555
O10B Cr2B 1_555 1_555

#END
