
#######################################################################
#
#                 Cambridge Crystallographic Data Centre
#                                CCDC 
#
#######################################################################
#
# If this CIF has been generated from an entry in the Cambridge 
# Structural Database, then it will include bibliographic, chemical, 
# crystal, experimental, refinement or atomic coordinate data resulting 
# from the CCDC's data processing and validation procedures.
#
#######################################################################

data_TIXYEG01
_symmetry_cell_setting           monoclinic
_symmetry_space_group_name_H-M   'P 21/c'
_symmetry_Int_Tables_number      14
_space_group_name_Hall           '-P 2ybc'
loop_
_symmetry_equiv_pos_site_id
_symmetry_equiv_pos_as_xyz
1 x,y,z
2 -x,1/2+y,1/2-z
3 -x,-y,-z
4 x,1/2-y,1/2+z
_cell_length_a                   11.9224(5)
_cell_length_b                   31.8487(8)
_cell_length_c                   9.6032(3)
_cell_angle_alpha                90
_cell_angle_beta                 110.582(4)
_cell_angle_gamma                90
_cell_volume                     3413.71
loop_
_atom_site_label
_atom_site_type_symbol
_atom_site_fract_x
_atom_site_fract_y
_atom_site_fract_z
C2 C 0.4180(5) 0.05583(19) 0.6103(6)
C3 C 0.3775(5) 0.0312(2) 0.7047(6)
H2 H 0.2980 0.0348 0.7033
C4 C 0.4505(6) 0.00223(19) 0.7984(7)
H3 H 0.4215 -0.0136 0.8626
C5 C 0.5672(6) -0.00451(18) 0.8011(7)
H4 H 0.6181 -0.0242 0.8682
C6 C 0.6071(5) 0.01775(17) 0.7054(6)
H5 H 0.6857 0.0129 0.7054
C7 C 0.5336(5) 0.04787(17) 0.6066(6)
C8 C 0.5800(5) 0.06918(17) 0.5060(6)
H6 H 0.6558 0.0604 0.5046
C9 C 0.5830(6) 0.11690(19) 0.3190(7)
H7 H 0.5579 0.1011 0.2243
H8 H 0.6712 0.1150 0.3657
C10 C 0.5453(5) 0.16216(18) 0.2896(7)
H9 H 0.5932 0.1797 0.3748
H10 H 0.5599 0.1721 0.1997
C11 C 0.3312(7) 0.1593(3) 0.1158(8)
H11 H 0.2645 0.1797 0.0947
H12 H 0.3721 0.1644 0.0437
C12 C 0.2836(9) 0.1174(2) 0.0964(7)
H13 H 0.3420 0.0980 0.0781
H14 H 0.2089 0.1165 0.0082
C13 C 0.1380(6) 0.1085(2) 0.2414(10)
H15 H 0.0761 0.1061 0.1409
H16 H 0.1239 0.0859 0.3038
C14 C 0.1256(7) 0.1489(3) 0.3050(9)
H17 H 0.0582 0.1480 0.3426
H18 H 0.1087 0.1711 0.2281
C15 C 0.2330(5) 0.18092(17) 0.5349(6)
H19 H 0.1562 0.1890 0.5345
C16 C 0.3364(5) 0.19514(16) 0.6571(6)
C17 C 0.3172(5) 0.21941(17) 0.7686(7)
H20 H 0.2373 0.2245 0.7636
C18 C 0.4106(6) 0.23602(19) 0.8850(7)
H21 H 0.3958 0.2511 0.9621
C19 C 0.5282(6) 0.23035(18) 0.8878(7)
H22 H 0.5935 0.2426 0.9651
C20 C 0.5488(5) 0.20676(17) 0.7769(6)
H23 H 0.6284 0.2039 0.7777
C21 C 0.4546(5) 0.18712(16) 0.6643(6)
N1 N 0.5265(4) 0.09908(14) 0.4181(5)
N2 N 0.4162(4) 0.16617(15) 0.2673(5)
H24 H 0.4047 0.1936 0.2923
N3 N 0.2576(5) 0.10285(14) 0.2303(5)
H25 H 0.2718 0.0741 0.2368
N4 N 0.2377(4) 0.15824(15) 0.4272(5)
O1 O 0.3460(4) 0.08534(14) 0.5298(5)
O2 O 0.4814(3) 0.16295(13) 0.5700(4)
Fe1 Fe 0.38046(6) 0.12837(2) 0.41883(8)
C22 C -0.1374(4) 0.23993(14) 0.4263(5)
C23 C -0.0196(4) 0.26294(14) 0.5203(5)
C24 C -0.1077(4) 0.12247(15) 0.7429(5)
C25 C 0.0073(4) 0.12691(15) 0.7047(5)
C26 C -0.0545(4) -0.01401(14) 0.9567(5)
C27 C 0.0626(4) -0.00828(14) 0.5486(5)
O3 O -0.1780(3) 0.24801(11) 0.2903(4)
O4 O 0.0256(3) 0.28675(11) 0.4493(4)
O5 O -0.1797(3) 0.21496(11) 0.4956(4)
O6 O 0.0198(3) 0.25573(10) 0.6562(4)
O7 O -0.1618(3) 0.15492(12) 0.7528(4)
O8 O 0.0360(3) 0.16404(11) 0.6853(4)
O9 O -0.1367(3) 0.08560(11) 0.7638(4)
O10 O 0.0622(3) 0.09426(11) 0.6979(4)
O11 O -0.0986(3) -0.00864(11) 0.8192(4)
O12 O -0.0870(3) -0.04037(11) 1.0322(4)
O13 O 0.0984(3) 0.00113(11) 0.6838(4)
O14 O 0.1167(3) -0.03033(11) 0.4837(4)
Cr1 Cr -0.01821(7) 0.03995(2) 0.74138(8)
Mn1 Mn -0.07629(7) 0.20950(2) 0.72113(8)
C26B C 0.0545(4) 0.01401(14) 1.0433(5)
O11B O 0.0986(3) 0.00864(11) 1.1808(4)
O12B O 0.0870(3) 0.04037(11) 0.9678(4)
C27B C -0.0626(4) 0.00828(14) 0.4514(5)
O13B O -0.0984(3) -0.00113(11) 0.3162(4)
O14B O -0.1167(3) 0.03033(11) 0.5163(4)
C22B C 0.1374(4) -0.23993(14) 0.5737(5)
C23B C 0.0196(4) -0.26294(14) 0.4797(5)
C24B C 0.1077(4) -0.12247(15) 0.2571(5)
C25B C -0.0073(4) -0.12691(15) 0.2953(5)
O3B O 0.1780(3) -0.24801(11) 0.7097(4)
O4B O -0.0256(3) -0.28675(11) 0.5507(4)
O5B O 0.1797(3) -0.21496(11) 0.5044(4)
O6B O -0.0198(3) -0.25573(10) 0.3438(4)
O7B O 0.1618(3) -0.15492(12) 0.2472(4)
O8B O -0.0360(3) -0.16404(11) 0.3147(4)
O9B O 0.1367(3) -0.08560(11) 0.2362(4)
O10B O -0.0622(3) -0.09426(11) 0.3021(4)
Cr1B Cr 0.01821(7) -0.03995(2) 0.25862(8)
Mn1B Mn 0.07629(7) -0.20950(2) 0.27887(8)
O3A O 0.1780(3) -0.25199(11) 0.2097(4)
O3C O -0.1780(3) 0.25199(11) 0.7903(4)
O4A O -0.0256(3) -0.21325(11) 0.0507(4)
O4C O 0.0256(3) 0.21325(11) 0.9493(4)
O11B_2 O 0.0986(3) 0.00864(11) 0.1808(4)
O12_2 O -0.0870(3) -0.04037(11) 0.0322(4)
Cr1B_2 Cr 0.01821(7) -0.03995(2) 1.25862(8)
Mn1A Mn 0.07629(7) -0.29050(2) 0.77887(8)
Mn1C Mn -0.07629(7) 0.29050(2) 0.22113(8)
Br1 Br -0.21824(5) 0.165938(16) 1.11020(6)
C1 C -0.2708(5) 0.11421(15) 0.9985(6)
H1 H -0.2448 0.1150 0.9102
Br2 Br -0.44143(5) 0.108303(17) 0.92831(6)
Br3 Br -0.19517(5) 0.066968(17) 1.11901(6)
Mn2? Mn -0.01821(7) 0.03995(2) 0.74138(8)
Cr2? Cr -0.07629(7) 0.20950(2) 0.72113(8)
loop_
_geom_bond_atom_site_label_1
_geom_bond_atom_site_label_2
_geom_bond_site_symmetry_1
_geom_bond_site_symmetry_2
Br1 C1 1_555 1_555
C1 H1 1_555 1_555
Br2 C1 1_555 1_555
Br3 C1 1_555 1_555
C2 C3 1_555 1_555
C3 H2 1_555 1_555
C4 C3 1_555 1_555
H3 C4 1_555 1_555
C5 C4 1_555 1_555
H4 C5 1_555 1_555
C6 C5 1_555 1_555
H5 C6 1_555 1_555
C7 C2 1_555 1_555
C8 C7 1_555 1_555
H6 C8 1_555 1_555
C9 H7 1_555 1_555
H8 C9 1_555 1_555
C10 C9 1_555 1_555
H9 C10 1_555 1_555
H10 C10 1_555 1_555
C11 H11 1_555 1_555
H12 C11 1_555 1_555
C12 C11 1_555 1_555
H13 C12 1_555 1_555
H14 C12 1_555 1_555
C13 H15 1_555 1_555
H16 C13 1_555 1_555
C14 C13 1_555 1_555
H17 C14 1_555 1_555
H18 C14 1_555 1_555
C15 H19 1_555 1_555
C16 C15 1_555 1_555
C17 C16 1_555 1_555
H20 C17 1_555 1_555
C18 C17 1_555 1_555
H21 C18 1_555 1_555
C19 C18 1_555 1_555
H22 C19 1_555 1_555
C20 C19 1_555 1_555
H23 C20 1_555 1_555
C21 C16 1_555 1_555
N1 C8 1_555 1_555
N2 C10 1_555 1_555
H24 N2 1_555 1_555
N3 C12 1_555 1_555
H25 N3 1_555 1_555
N4 C14 1_555 1_555
O1 C2 1_555 1_555
O2 C21 1_555 1_555
Fe1 N1 1_555 1_555
C22 C23 1_555 1_555
C23 O4 1_555 1_555
C24 C25 1_555 1_555
C25 O8 1_555 1_555
C26 O11 1_555 1_555
C27 O13 1_555 1_555
O3 C22 1_555 1_555
O4 Mn1C 1_555 1_555
O5 C22 1_555 1_555
O6 C23 1_555 1_555
O7 C24 1_555 1_555
O8 Mn1 1_555 1_555
O9 C24 1_555 1_555
O10 C25 1_555 1_555
O11 Cr1 1_555 1_555
O12 C26 1_555 1_555
O13 Cr1 1_555 1_555
O14 C27 1_555 1_555
Cr1 O9 1_555 1_555
Mn1 O5 1_555 1_555
C26B C26 1_555 1_555
O11B C26B 1_555 1_555
O12B Cr1 1_555 1_555
C27B C27 1_555 1_555
O13B C27B 1_555 1_555
O14B Cr1 1_555 1_555
C22B C23B 1_555 1_555
C23B O4B 1_555 1_555
C24B C25B 1_555 1_555
C25B O8B 1_555 1_555
O3B C22B 1_555 1_555
O4B Mn1A 1_555 1_555
O5B C22B 1_555 1_555
O6B C23B 1_555 1_555
O7B C24B 1_555 1_555
O8B Mn1B 1_555 1_555
O9B C24B 1_555 1_555
O10B C25B 1_555 1_555
Cr1B O14 1_555 1_555
Mn1B O5B 1_555 1_555
O3A Mn1B 1_555 1_555
O3C Mn1 1_555 1_555
O4A Mn1B 1_555 1_555
O4C Mn1 1_555 1_555
O11B_2 Cr1B 1_555 1_555
O12_2 Cr1B 1_555 1_555
Cr1B_2 O12 1_555 1_555
Mn1A O3B 1_555 1_555
Mn1C O3 1_555 1_555
C6 C7 1_555 1_555
C9 N1 1_555 1_555
C11 N2 1_555 1_555
C13 N3 1_555 1_555
C15 N4 1_555 1_555
C20 C21 1_555 1_555
N2 Fe1 1_555 1_555
N3 Fe1 1_555 1_555
N4 Fe1 1_555 1_555
O1 Fe1 1_555 1_555
O2 Fe1 1_555 1_555
O6 Mn1 1_555 1_555
O7 Mn1 1_555 1_555
O10 Cr1 1_555 1_555
C26B O12B 1_555 1_555
O11B Cr1B_2 1_555 1_555
C27B O14B 1_555 1_555
O13B Cr1B 1_555 1_555
O6B Mn1B 1_555 1_555
O7B Mn1B 1_555 1_555
O9B Cr1B 1_555 1_555
O10B Cr1B 1_555 1_555

#END
