
#######################################################################
#
#                 Cambridge Crystallographic Data Centre
#                                CCDC 
#
#######################################################################
#
# If this CIF has been generated from an entry in the Cambridge 
# Structural Database, then it will include bibliographic, chemical, 
# crystal, experimental, refinement or atomic coordinate data resulting 
# from the CCDC's data processing and validation procedures.
#
#######################################################################

data_TIXYOQ01
_symmetry_cell_setting           monoclinic
_symmetry_space_group_name_H-M   'P 21/c'
_symmetry_Int_Tables_number      14
_space_group_name_Hall           '-P 2ybc'
loop_
_symmetry_equiv_pos_site_id
_symmetry_equiv_pos_as_xyz
1 x,y,z
2 -x,1/2+y,1/2-z
3 -x,-y,-z
4 x,1/2-y,1/2+z
_cell_length_a                   11.7115(4)
_cell_length_b                   31.9453(7)
_cell_length_c                   9.5068(3)
_cell_angle_alpha                90
_cell_angle_beta                 109.821(4)
_cell_angle_gamma                90
_cell_volume                     3346.04
loop_
_atom_site_label
_atom_site_type_symbol
_atom_site_fract_x
_atom_site_fract_y
_atom_site_fract_z
C2 C 0.0430(3) 0.18529(12) -0.1503(4)
C3 C -0.0539(4) 0.20113(13) -0.2710(4)
H3 H -0.1349 0.1950 -0.2774
C4 C -0.0337(4) 0.22542(12) -0.3803(5)
H4 H -0.1009 0.2356 -0.4608
C5 C 0.0839(4) 0.23516(12) -0.3742(5)
H5 H 0.0971 0.2514 -0.4509
C6 C 0.1808(4) 0.22094(12) -0.2557(5)
H6 H 0.2610 0.2279 -0.2505
C7 C 0.1633(3) 0.19615(12) -0.1418(4)
C8 C 0.2679(3) 0.18476(12) -0.0170(5)
H7 H 0.3446 0.1948 -0.0158
C9 C 0.3806(4) 0.15372(14) 0.2144(6)
H8 H 0.3923 0.1738 0.2974
H9 H 0.4498 0.1563 0.1774
C10 C 0.3721(4) 0.10984(14) 0.2665(6)
H10 H 0.3840 0.0897 0.1938
H11 H 0.4367 0.1051 0.3642
C11 C 0.2353(5) 0.11712(16) 0.4230(5)
H12 H 0.3142 0.1156 0.5054
H13 H 0.1775 0.0984 0.4481
C12 C 0.1882(5) 0.16174(16) 0.4072(5)
H14 H 0.1532 0.1677 0.4864
H15 H 0.2561 0.1814 0.4195
C13 C -0.0343(4) 0.16147(14) 0.2486(5)
H16 H -0.0894 0.1778 0.1641
H17 H -0.0454 0.1712 0.3419
C14 C -0.0643(5) 0.11526(15) 0.2257(5)
H18 H -0.0275 0.0998 0.3207
H19 H -0.1532 0.1110 0.1911
C15 C -0.0712(4) 0.07143(13) 0.0199(5)
H20 H -0.1454 0.0614 0.0269
C16 C -0.0295(4) 0.05359(13) -0.0930(5)
C17 C -0.1027(4) 0.02289(13) -0.1884(5)
H21 H -0.1790 0.0159 -0.1800
C18 C -0.0653(4) 0.00291(15) -0.2931(5)
H22 H -0.1165 -0.0171 -0.3588
C19 C 0.0490(5) 0.01219(16) -0.3024(5)
H23 H 0.0764 -0.0024 -0.3722
C20 C 0.1218(4) 0.04217(16) -0.2116(5)
H24 H 0.1986 0.0482 -0.2202
C21 C 0.0847(4) 0.06412(14) -0.1058(5)
N1 N -0.0142(3) 0.10026(10) 0.1124(4)
N2 N 0.0936(3) 0.16795(10) 0.2576(4)
H25 H 0.1001 0.1955 0.2294
N3 N 0.2504(3) 0.10291(10) 0.2818(4)
H26 H 0.2352 0.0743 0.2737
N4 N 0.2655(3) 0.16202(11) 0.0932(4)
O1 O 0.1608(3) 0.09191(10) -0.0214(3)
O2 O 0.0173(2) 0.16254(9) -0.0497(3)
Fe1 Fe 0.12622(5) 0.130732(17) 0.10344(6)
C22 C 0.5267(3) 0.26244(11) 0.0136(4)
C23 C 0.6459(3) 0.23982(11) 0.1071(4)
C24 C 0.4977(3) 0.12632(12) -0.1853(4)
C25 C 0.6148(3) 0.12238(11) -0.2255(4)
C26 C 0.4457(3) 0.01427(11) -0.5430(4)
C27 C 0.5643(3) 0.00788(11) 0.0485(4)
O3 O 0.4809(2) 0.28678(8) 0.0840(3)
O4 O 0.6886(2) 0.24876(8) 0.2429(3)
O5 O 0.4855(2) 0.25425(8) -0.1232(3)
O6 O 0.6886(2) 0.21434(8) 0.0373(3)
O7 O 0.4706(2) 0.16265(9) -0.1560(3)
O8 O 0.6724(2) 0.15506(9) -0.2242(3)
O9 O 0.4388(2) 0.09342(9) -0.1883(3)
O10 O 0.6413(3) 0.08619(9) -0.2553(3)
O11 O 0.4144(2) 0.04113(8) -0.4655(3)
O12 O 0.6202(3) 0.02942(8) -0.0167(3)
O13 O 0.3979(3) 0.00840(8) -0.6803(3)
O14 O 0.6001(2) -0.00256(8) 0.1837(3)
Cr1 Cr 0.58562(5) 0.208502(17) -0.18753(6)
Mn1 Mn 0.52068(5) 0.040394(17) -0.24011(6)
C26B C 0.5543(3) -0.01427(11) -0.4570(4)
O11B O 0.5856(2) -0.04113(8) -0.5345(3)
O13B O 0.6021(3) -0.00840(8) -0.3197(3)
C27B C 0.4357(3) -0.00788(11) -0.0485(4)
O12B O 0.3798(3) -0.02942(8) 0.0167(3)
O14B O 0.3999(2) 0.00256(8) -0.1837(3)
C22B C 0.4733(3) -0.26244(11) -1.0136(4)
C23B C 0.3541(3) -0.23982(11) -1.1071(4)
C24B C 0.5023(3) -0.12632(12) -0.8147(4)
C25B C 0.3852(3) -0.12238(11) -0.7745(4)
O3B O 0.5191(2) -0.28678(8) -1.0840(3)
O4B O 0.3114(2) -0.24876(8) -1.2429(3)
O5B O 0.5145(2) -0.25425(8) -0.8768(3)
O6B O 0.3114(2) -0.21434(8) -1.0373(3)
O7B O 0.5294(2) -0.16265(9) -0.8440(3)
O8B O 0.3276(2) -0.15506(9) -0.7758(3)
O9B O 0.5612(2) -0.09342(9) -0.8117(3)
O10B O 0.3587(3) -0.08619(9) -0.7447(3)
Cr1B Cr 0.41438(5) -0.208502(17) -0.81247(6)
Mn1B Mn 0.47932(5) -0.040394(17) -0.75989(6)
O3A O 0.5191(2) -0.21322(8) -0.5840(3)
O3C O 0.4809(2) 0.21322(8) -0.4160(3)
O4A O 0.3114(2) -0.25124(8) -0.7429(3)
O4C O 0.6886(2) 0.25124(8) -0.2571(3)
O12B_2 O 0.3798(3) -0.02942(8) -0.9833(3)
O14_2 O 0.6001(2) -0.00256(8) -0.8163(3)
Cr1A Cr 0.41438(5) -0.291498(17) -1.31247(6)
Cr1C Cr 0.58562(5) 0.291498(17) 0.31247(6)
Mn1B_2 Mn 0.47932(5) -0.040394(17) 0.24011(6)
Br1 Br 0.70953(4) 0.162323(12) -0.58877(5)
C1 C 0.7830(4) 0.11212(12) -0.4839(4)
H1 H 0.8718 0.1130 -0.4630
H2 H 0.7688 0.1106 -0.3872
Br2 Br 0.71577(4) 0.063343(12) -0.60130(5)
Mn2? Mn 0.58562(5) 0.208502(17) -0.18753(6)
Cr2? Cr 0.52068(5) 0.040394(17) -0.24011(6)
loop_
_geom_bond_atom_site_label_1
_geom_bond_atom_site_label_2
_geom_bond_site_symmetry_1
_geom_bond_site_symmetry_2
Br1 C1 1_555 1_555
C1 H1 1_555 1_555
H2 C1 1_555 1_555
Br2 C1 1_555 1_555
C2 C3 1_555 1_555
C3 H3 1_555 1_555
C4 C3 1_555 1_555
H4 C4 1_555 1_555
C5 C4 1_555 1_555
H5 C5 1_555 1_555
C6 C5 1_555 1_555
H6 C6 1_555 1_555
C7 C2 1_555 1_555
C8 C7 1_555 1_555
H7 C8 1_555 1_555
C9 H8 1_555 1_555
H9 C9 1_555 1_555
C10 C9 1_555 1_555
H10 C10 1_555 1_555
H11 C10 1_555 1_555
C11 H12 1_555 1_555
H13 C11 1_555 1_555
C12 C11 1_555 1_555
H14 C12 1_555 1_555
H15 C12 1_555 1_555
C13 H16 1_555 1_555
H17 C13 1_555 1_555
C14 C13 1_555 1_555
H18 C14 1_555 1_555
H19 C14 1_555 1_555
C15 H20 1_555 1_555
C16 C15 1_555 1_555
C17 C16 1_555 1_555
H21 C17 1_555 1_555
C18 C17 1_555 1_555
H22 C18 1_555 1_555
C19 C18 1_555 1_555
H23 C19 1_555 1_555
C20 C19 1_555 1_555
H24 C20 1_555 1_555
C21 C16 1_555 1_555
N1 C14 1_555 1_555
N2 C12 1_555 1_555
H25 N2 1_555 1_555
N3 C10 1_555 1_555
H26 N3 1_555 1_555
N4 C8 1_555 1_555
O1 C21 1_555 1_555
O2 C2 1_555 1_555
Fe1 N1 1_555 1_555
C22 C23 1_555 1_555
C23 O4 1_555 1_555
C24 C25 1_555 1_555
C25 O8 1_555 1_555
C26 O11 1_555 1_555
C27 O12 1_555 1_555
O3 C22 1_555 1_555
O4 Cr1C 1_555 1_555
O5 C22 1_555 1_555
O6 C23 1_555 1_555
O7 C24 1_555 1_555
O8 Cr1 1_555 1_555
O9 C24 1_555 1_555
O10 C25 1_555 1_555
O11 Mn1 1_555 1_555
O12 Mn1 1_555 1_555
O13 C26 1_555 1_555
O14 C27 1_555 1_555
Cr1 O5 1_555 1_555
Mn1 O9 1_555 1_555
C26B C26 1_555 1_555
O11B C26B 1_555 1_555
O13B Mn1 1_555 1_555
C27B C27 1_555 1_555
O12B C27B 1_555 1_555
O14B Mn1 1_555 1_555
C22B C23B 1_555 1_555
C23B O4B 1_555 1_555
C24B C25B 1_555 1_555
C25B O8B 1_555 1_555
O3B C22B 1_555 1_555
O4B Cr1A 1_555 1_555
O5B C22B 1_555 1_555
O6B C23B 1_555 1_555
O7B C24B 1_555 1_555
O8B Cr1B 1_555 1_555
O9B C24B 1_555 1_555
O10B C25B 1_555 1_555
Cr1B O5B 1_555 1_555
Mn1B O13 1_555 1_555
O3A Cr1B 1_555 1_555
O3C Cr1 1_555 1_555
O4A Cr1B 1_555 1_555
O4C Cr1 1_555 1_555
O12B_2 Mn1B 1_555 1_555
O14_2 Mn1B 1_555 1_555
Cr1A O3B 1_555 1_555
Cr1C O3 1_555 1_555
Mn1B_2 O14 1_555 1_555
C6 C7 1_555 1_555
C9 N4 1_555 1_555
C11 N3 1_555 1_555
C13 N2 1_555 1_555
C15 N1 1_555 1_555
C20 C21 1_555 1_555
N2 Fe1 1_555 1_555
N3 Fe1 1_555 1_555
N4 Fe1 1_555 1_555
O1 Fe1 1_555 1_555
O2 Fe1 1_555 1_555
O6 Cr1 1_555 1_555
O7 Cr1 1_555 1_555
O10 Mn1 1_555 1_555
C26B O13B 1_555 1_555
O11B Mn1B 1_555 1_555
C27B O14B 1_555 1_555
O12B Mn1B_2 1_555 1_555
O6B Cr1B 1_555 1_555
O7B Cr1B 1_555 1_555
O9B Mn1B 1_555 1_555
O10B Mn1B 1_555 1_555

#END
