
#######################################################################
#
#                 Cambridge Crystallographic Data Centre
#                                CCDC 
#
#######################################################################
#
# If this CIF has been generated from an entry in the Cambridge 
# Structural Database, then it will include bibliographic, chemical, 
# crystal, experimental, refinement or atomic coordinate data resulting 
# from the CCDC's data processing and validation procedures.
#
#######################################################################

data_TIYMAQ
_symmetry_cell_setting           triclinic
_symmetry_space_group_name_H-M   'P -1'
_symmetry_Int_Tables_number      2
_space_group_name_Hall           '-P 1'
loop_
_symmetry_equiv_pos_site_id
_symmetry_equiv_pos_as_xyz
1 x,y,z
2 -x,-y,-z
_cell_length_a                   7.9374(6)
_cell_length_b                   9.0362(7)
_cell_length_c                   10.5305(8)
_cell_angle_alpha                72.428(2)
_cell_angle_beta                 84.039(2)
_cell_angle_gamma                84.146(2)
_cell_volume                     714.162
loop_
_atom_site_label
_atom_site_type_symbol
_atom_site_fract_x
_atom_site_fract_y
_atom_site_fract_z
Nd1 Nd 0.25491(5) -0.45883(5) -0.52685(5)
O1 O 0.6119(8) -0.3496(8) -0.3705(7)
O2 O 0.3338(8) -0.3181(8) -0.3864(7)
O3 O 0.2233(7) 0.2826(7) -0.3566(7)
O4 O 0.4812(7) 0.3525(7) -0.3674(6)
O5 O 0.0091(7) -0.5366(7) -0.6254(6)
O6 O 0.1777(8) -0.3717(8) -0.7651(6)
O7 O 0.0777(8) -0.1909(8) -0.5774(7)
C1 C 0.4664(11) -0.2887(10) -0.3472(9)
C2 C 0.4548(10) -0.1779(10) -0.2624(8)
H1 H 0.4752 -0.2413 -0.1711
C3 C 0.2793(11) -0.0941(10) -0.2564(10)
H2 H 0.2559 -0.0260 -0.3444
H3 H 0.1941 -0.1695 -0.2281
C4 C 0.2708(12) 0.0030(10) -0.1564(9)
H4 H 0.2854 -0.0665 -0.0673
H5 H 0.1599 0.0588 -0.1554
C5 C 0.4078(11) 0.1188(10) -0.1944(8)
H6 H 0.4086 0.1605 -0.1187
C6 C 0.5856(11) 0.0369(10) -0.2099(10)
H7 H 0.6160 -0.0304 -0.1233
H8 H 0.6682 0.1145 -0.2418
C7 C 0.5921(11) -0.0594(10) -0.3069(9)
H9 H 0.5736 0.0088 -0.3959
H10 H 0.7034 -0.1142 -0.3100
C8 C 0.3701(11) 0.2575(9) -0.3147(8)
C9 C 0.0623(10) -0.4607(9) -0.7457(8)
C10 C -0.0146(11) -0.4878(11) -0.8617(8)
H11 H -0.1313 -0.5168 -0.8332
C11 C -0.0183(14) -0.3455(12) -0.9814(9)
H12 H 0.0956 -0.3113 -1.0066
H13 H -0.0895 -0.2621 -0.9583
C12 C 0.0872(14) -0.6213(11) -0.8996(10)
H14 H 0.2047 -0.5964 -0.9223
H15 H 0.0842 -0.7140 -0.8235
Nd1A Nd 0.74509(5) -0.54117(5) -0.47315(5)
Nd1A_2 Nd 0.74509(5) -1.54117(5) -0.47315(5)
Nd1_2 Nd 0.25491(5) -1.45883(5) -0.52685(5)
Nd1A_3 Nd -0.25491(5) -0.54117(5) -0.47315(5)
Nd1_3 Nd 0.25491(5) -0.45883(5) -1.52685(5)
Nd1A_4 Nd -0.25491(5) -0.54117(5) -1.47315(5)
Nd1_4 Nd 0.25491(5) 0.54117(5) -0.52685(5)
Nd1A_5 Nd 0.74509(5) 0.45883(5) -0.47315(5)
O1A O 0.3881(8) -0.6504(8) -0.6295(7)
O1_2 O 0.6119(8) -1.3496(8) -0.3705(7)
O1_3 O -0.3881(8) -0.3496(8) -1.3705(7)
O2_2 O 0.3338(8) -1.3181(8) -0.3864(7)
O2A O -0.3338(8) -0.6819(8) -1.6136(7)
O3_2 O 0.2233(7) -0.7174(7) -0.3566(7)
O3A O -0.2233(7) -0.2826(7) -1.6434(7)
O4A O 0.5188(7) -0.3525(7) -0.6326(6)
O4_2 O 0.4812(7) -0.6475(7) -0.3674(6)
O4A_2 O -0.4812(7) -0.3525(7) -1.6326(6)
O4_3 O -0.5188(7) -0.6475(7) -1.3674(6)
O5A O -0.0091(7) -0.4634(7) -1.3746(6)
O5A_2 O -0.0091(7) -0.4634(7) -0.3746(6)
O5_2 O 0.0091(7) -0.5366(7) -1.6254(6)
O6A O -0.1777(8) -0.6283(8) -1.2349(6)
O7A O -0.0777(8) -0.8091(8) -1.4226(7)
C1_2 C 0.4664(11) -1.2887(10) -0.3472(9)
C2_2 C 0.4548(10) -1.1779(10) -0.2624(8)
H1_2 H 0.4752 -1.2413 -0.1711
C3_2 C 0.2793(11) -1.0941(10) -0.2564(10)
H2_2 H 0.2559 -1.0260 -0.3444
H3_2 H 0.1941 -1.1695 -0.2281
C4_2 C 0.2708(12) -0.9970(10) -0.1564(9)
H4_2 H 0.2854 -1.0665 -0.0673
H5_2 H 0.1599 -0.9412 -0.1554
C5_2 C 0.4078(11) -0.8812(10) -0.1944(8)
H6_2 H 0.4086 -0.8395 -0.1187
C6_2 C 0.5856(11) -0.9631(10) -0.2099(10)
H7_2 H 0.6160 -1.0304 -0.1233
H8_2 H 0.6682 -0.8855 -0.2418
C7_2 C 0.5921(11) -1.0594(10) -0.3069(9)
H9_2 H 0.5736 -0.9912 -0.3959
H10_2 H 0.7034 -1.1142 -0.3100
C8_2 C 0.3701(11) -0.7425(9) -0.3147(8)
C9A C -0.0623(10) -0.5393(9) -1.2543(8)
C10A C 0.0146(11) -0.5122(11) -1.1383(8)
H11A H 0.1313 -0.4832 -1.1668
C11A C 0.0183(14) -0.6545(12) -1.0186(9)
H12A H -0.0956 -0.6887 -0.9934
H13A H 0.0895 -0.7379 -1.0417
C12A C -0.0872(14) -0.3787(11) -1.1004(10)
H14A H -0.2047 -0.4036 -1.0777
H15A H -0.0842 -0.2860 -1.1765
O8 O 0.505(4) -0.600(3) -1.079(3)
loop_
_geom_bond_atom_site_label_1
_geom_bond_atom_site_label_2
_geom_bond_site_symmetry_1
_geom_bond_site_symmetry_2
Nd1 O2 1_555 1_555
O1 C1 1_555 1_555
O2 C1 1_555 1_555
O3 C8 1_555 1_555
O4 C8 1_555 1_555
O5 Nd1 1_555 1_555
O6 Nd1 1_555 1_555
O7 Nd1 1_555 1_555
C1 C2 1_555 1_555
C2 H1 1_555 1_555
C3 C2 1_555 1_555
H2 C3 1_555 1_555
H3 C3 1_555 1_555
C4 C3 1_555 1_555
H4 C4 1_555 1_555
H5 C4 1_555 1_555
C5 C4 1_555 1_555
H6 C5 1_555 1_555
C6 C5 1_555 1_555
H7 C6 1_555 1_555
H8 C6 1_555 1_555
C7 C2 1_555 1_555
H9 C7 1_555 1_555
H10 C7 1_555 1_555
C8 C5 1_555 1_555
C9 O5 1_555 1_555
C10 C9 1_555 1_555
H11 C10 1_555 1_555
C11 C10 1_555 1_555
H12 C11 1_555 1_555
H13 C11 1_555 1_555
C12 C10 1_555 1_555
H14 C12 1_555 1_555
H15 C12 1_555 1_555
Nd1A O1 1_555 1_555
Nd1A_2 O1_2 1_555 1_555
Nd1_2 O2_2 1_555 1_555
Nd1A_3 O5 1_555 1_555
Nd1_3 O5A 1_555 1_555
Nd1A_4 O1_3 1_555 1_555
Nd1_4 O3 1_555 1_555
Nd1A_5 O4 1_555 1_555
O1A Nd1 1_555 1_555
O1_2 C1_2 1_555 1_555
O2_2 C1_2 1_555 1_555
O2A Nd1A_4 1_555 1_555
O3_2 Nd1 1_555 1_555
O3A Nd1A_4 1_555 1_555
O4A Nd1 1_555 1_555
O4_2 Nd1 1_555 1_555
O4A_2 Nd1A_4 1_555 1_555
O4_3 Nd1A_4 1_555 1_555
O5A Nd1A_4 1_555 1_555
O5A_2 Nd1 1_555 1_555
O5_2 Nd1_3 1_555 1_555
O6A Nd1A_4 1_555 1_555
O7A Nd1A_4 1_555 1_555
C1_2 C2_2 1_555 1_555
C2_2 H1_2 1_555 1_555
C3_2 C2_2 1_555 1_555
H2_2 C3_2 1_555 1_555
H3_2 C3_2 1_555 1_555
C4_2 C3_2 1_555 1_555
H4_2 C4_2 1_555 1_555
H5_2 C4_2 1_555 1_555
C5_2 C4_2 1_555 1_555
H6_2 C5_2 1_555 1_555
C6_2 C5_2 1_555 1_555
H7_2 C6_2 1_555 1_555
H8_2 C6_2 1_555 1_555
C7_2 C2_2 1_555 1_555
H9_2 C7_2 1_555 1_555
H10_2 C7_2 1_555 1_555
C8_2 O3_2 1_555 1_555
C9A O5A 1_555 1_555
C10A C9A 1_555 1_555
H11A C10A 1_555 1_555
C11A C12 1_555 1_555
H12A C11A 1_555 1_555
H13A C11A 1_555 1_555
C12A C11 1_555 1_555
H14A C12A 1_555 1_555
H15A C12A 1_555 1_555
O4 Nd1_4 1_555 1_555
O6 C9 1_555 1_555
C6 C7 1_555 1_555
Nd1A O4A 1_555 1_555
Nd1A O4_2 1_555 1_555
Nd1A_3 O5A_2 1_555 1_555
Nd1A_4 O5_2 1_555 1_555
O4_2 C8_2 1_555 1_555
O6A C9A 1_555 1_555
C5_2 C8_2 1_555 1_555
C6_2 C7_2 1_555 1_555
C10A C11A 1_555 1_555
C10A C12A 1_555 1_555

#END
