
#######################################################################
#
#                 Cambridge Crystallographic Data Centre
#                                CCDC 
#
#######################################################################
#
# If this CIF has been generated from an entry in the Cambridge 
# Structural Database, then it will include bibliographic, chemical, 
# crystal, experimental, refinement or atomic coordinate data resulting 
# from the CCDC's data processing and validation procedures.
#
#######################################################################

data_TIYMEU
_symmetry_cell_setting           orthorhombic
_symmetry_space_group_name_H-M   'P c c n'
_symmetry_Int_Tables_number      56
_space_group_name_Hall           '-P 2ab 2ac'
loop_
_symmetry_equiv_pos_site_id
_symmetry_equiv_pos_as_xyz
1 x,y,z
2 1/2-x,1/2-y,z
3 1/2+x,-y,1/2-z
4 -x,1/2+y,1/2-z
5 -x,-y,-z
6 1/2+x,1/2+y,-z
7 1/2-x,y,1/2+z
8 x,1/2-y,1/2+z
_cell_length_a                   36.7878(2)
_cell_length_b                   10.43930(10)
_cell_length_c                   16.1676(2)
_cell_angle_alpha                90
_cell_angle_beta                 90
_cell_angle_gamma                90
_cell_volume                     6208.99
loop_
_atom_site_label
_atom_site_type_symbol
_atom_site_fract_x
_atom_site_fract_y
_atom_site_fract_z
Sm1 Sm 0.371754(12) 0.22183(4) 0.27061(3)
O1 O 0.3288(2) 0.0615(7) 0.0731(5)
C1 C 0.3230(2) 0.0165(8) 0.1454(6)
Sm2 Sm 0.358970(12) 0.24783(4) 0.02607(3)
O2 O 0.34172(18) 0.0485(6) 0.2071(5)
C2 C 0.2929(2) -0.0808(9) 0.1556(7)
H1 H 0.3037 -0.1656 0.1470
O3 O 0.17433(16) 0.1922(6) 0.1540(4)
C3 C 0.2633(3) -0.0640(10) 0.0899(7)
H2 H 0.2483 -0.1404 0.0881
H3 H 0.2746 -0.0538 0.0361
O4 O 0.19185(18) 0.1966(6) 0.2836(4)
C4 C 0.2765(3) -0.0804(11) 0.2432(7)
H4 H 0.2628 -0.1588 0.2513
H5 H 0.2961 -0.0792 0.2833
O5 O 0.39921(17) 0.2929(6) 0.1480(4)
C5 C 0.2391(2) 0.0529(9) 0.1076(6)
H6 H 0.2535 0.1305 0.1031
H7 H 0.2198 0.0572 0.0666
O6 O 0.41837(19) 0.3647(7) 0.0274(4)
C6 C 0.2517(3) 0.0330(10) 0.2590(7)
H8 H 0.2661 0.1109 0.2602
H9 H 0.2402 0.0232 0.3127
O7 O 0.58220(19) 0.5476(6) 0.2346(4)
C7 C 0.2224(3) 0.0457(10) 0.1933(6)
H10 H 0.2083 -0.0340 0.1949
O8 O 0.56607(18) 0.7255(6) 0.1730(4)
C8 C 0.1955(2) 0.1540(8) 0.2107(5)
O9 O 0.36592(17) 0.3638(5) 0.3969(3)
C9 C 0.4219(2) 0.3591(9) 0.1052(6)
O10 O 0.3758(2) 0.4652(6) 0.2791(4)
C10 C 0.4531(3) 0.4240(10) 0.1497(7)
H11 H 0.4462 0.4334 0.2079
O11 O 0.35839(18) 1.1087(6) 0.3993(4)
C11 C 0.4601(3) 0.5588(10) 0.1148(9)
H12 H 0.4384 0.6107 0.1214
H13 H 0.4655 0.5529 0.0562
O12 O 0.3453(2) 1.0177(6) 0.5172(4)
C12 C 0.4876(3) 0.3446(10) 0.1465(8)
H14 H 0.4942 0.3296 0.0892
H15 H 0.4832 0.2621 0.1722
O13 O 0.4070(2) 0.0846(7) 0.0426(5)
C13 C 0.4925(3) 0.6237(10) 0.1605(10)
H16 H 0.4972 0.7068 0.1359
H17 H 0.4861 0.6368 0.2181
O14 O 0.2949(2) 0.2334(7) -0.0436(4)
C14 C 0.5191(3) 0.4110(10) 0.1906(7)
H18 H 0.5133 0.4191 0.2489
H19 H 0.5408 0.3586 0.1857
C15 C 0.5266(2) 0.5418(8) 0.1553(6)
H20 H 0.5315 0.5293 0.0962
C16 C 0.5598(2) 0.6095(9) 0.1910(6)
C17 C 0.3701(3) 0.4688(9) 0.3561(6)
C18 C 0.3665(3) 0.5965(8) 0.4010(5)
H21 H 0.3685 0.5808 0.4606
C19 C 0.3288(3) 0.6558(9) 0.3835(6)
H22 H 0.3259 0.6688 0.3245
H23 H 0.3099 0.5973 0.4018
C20 C 0.3967(3) 0.6900(9) 0.3753(7)
H24 H 0.4202 0.6533 0.3884
H25 H 0.3957 0.7040 0.3160
C21 C 0.3246(3) 0.7832(8) 0.4281(6)
H26 H 0.3259 0.7696 0.4874
H27 H 0.3010 0.8198 0.4155
C22 C 0.3923(3) 0.8182(9) 0.4204(7)
H28 H 0.4114 0.8765 0.4032
H29 H 0.3946 0.8048 0.4796
C23 C 0.3550(3) 0.8776(8) 0.4011(6)
H30 H 0.3532 0.8894 0.3411
C24 C 0.3518(2) 1.0061(8) 0.4412(6)
Sm1A Sm 0.128246(12) 0.27817(4) 0.27061(3)
Sm1C Sm 0.628246(12) 0.72183(4) 0.22939(3)
Sm1_2 Sm 0.371754(12) 1.22183(4) 0.27061(3)
Sm2A Sm 0.141030(12) 0.25217(4) 0.02607(3)
Sm2G Sm 0.358970(12) 0.25217(4) 0.52607(3)
Sm2G_2 Sm 0.358970(12) 1.25217(4) 0.52607(3)
O3A O 0.32567(16) 0.3078(6) 0.1540(4)
O4A O 0.30815(18) 0.3034(6) 0.2836(4)
O7C O 0.41780(19) 0.0476(6) 0.2654(4)
O8C O 0.43393(18) 0.2255(6) 0.3270(4)
O9G O 0.36592(17) 0.1362(5) -0.1031(3)
O11_2 O 0.35839(18) 0.1087(6) 0.3993(4)
O11G O 0.35839(18) 0.3913(6) -0.1007(4)
O12G O 0.3453(2) 0.4823(6) 0.0172(4)
O15 O 0.4108(2) -0.1368(7) 0.1384(5)
O16 O 0.4620(2) 0.0855(9) -0.0715(7)
O17 O 0.4695(3) 0.8481(12) 0.0179(8)
O18 O 0.3616(2) 0.6514(8) 0.1537(5)
loop_
_geom_bond_atom_site_label_1
_geom_bond_atom_site_label_2
_geom_bond_site_symmetry_1
_geom_bond_site_symmetry_2
Sm1 O2 1_555 1_555
O1 C1 1_555 1_555
C1 O2 1_555 1_555
Sm2 O1 1_555 1_555
C2 C1 1_555 1_555
H1 C2 1_555 1_555
O3 C8 1_555 1_555
C3 C2 1_555 1_555
H2 C3 1_555 1_555
H3 C3 1_555 1_555
O4 C8 1_555 1_555
C4 C2 1_555 1_555
H4 C4 1_555 1_555
H5 C4 1_555 1_555
O5 Sm1 1_555 1_555
C5 C3 1_555 1_555
H6 C5 1_555 1_555
H7 C5 1_555 1_555
O6 Sm2 1_555 1_555
C6 C4 1_555 1_555
H8 C6 1_555 1_555
H9 C6 1_555 1_555
O7 C16 1_555 1_555
C7 C5 1_555 1_555
H10 C7 1_555 1_555
O8 C16 1_555 1_555
C8 C7 1_555 1_555
O9 Sm1 1_555 1_555
C9 O5 1_555 1_555
O10 Sm1 1_555 1_555
C10 C9 1_555 1_555
H11 C10 1_555 1_555
O11 C24 1_555 1_555
C11 C10 1_555 1_555
H12 C11 1_555 1_555
H13 C11 1_555 1_555
O12 C24 1_555 1_555
C12 C10 1_555 1_555
H14 C12 1_555 1_555
H15 C12 1_555 1_555
O13 Sm2 1_555 1_555
C13 C11 1_555 1_555
H16 C13 1_555 1_555
H17 C13 1_555 1_555
O14 Sm2 1_555 1_555
C14 C12 1_555 1_555
H18 C14 1_555 1_555
H19 C14 1_555 1_555
C15 C13 1_555 1_555
H20 C15 1_555 1_555
C16 C15 1_555 1_555
C17 O9 1_555 1_555
C18 C17 1_555 1_555
H21 C18 1_555 1_555
C19 C18 1_555 1_555
H22 C19 1_555 1_555
H23 C19 1_555 1_555
C20 C18 1_555 1_555
H24 C20 1_555 1_555
H25 C20 1_555 1_555
C21 C19 1_555 1_555
H26 C21 1_555 1_555
H27 C21 1_555 1_555
C22 C20 1_555 1_555
H28 C22 1_555 1_555
H29 C22 1_555 1_555
C23 C21 1_555 1_555
H30 C23 1_555 1_555
C24 C23 1_555 1_555
Sm1A O3 1_555 1_555
Sm1C O7 1_555 1_555
Sm1_2 O11 1_555 1_555
Sm2A O3 1_555 1_555
Sm2G O9 1_555 1_555
Sm2G_2 O11 1_555 1_555
O3A Sm1 1_555 1_555
O4A Sm1 1_555 1_555
O7C Sm1 1_555 1_555
O8C Sm1 1_555 1_555
O9G Sm2 1_555 1_555
O11_2 Sm1 1_555 1_555
O11G Sm2 1_555 1_555
O12G Sm2 1_555 1_555
Sm2 O5 1_555 1_555
Sm2 O3A 1_555 1_555
O4 Sm1A 1_555 1_555
O6 C9 1_555 1_555
C6 C7 1_555 1_555
O8 Sm1C 1_555 1_555
O10 C17 1_555 1_555
O12 Sm2G_2 1_555 1_555
C14 C15 1_555 1_555
C22 C23 1_555 1_555
Sm2G O11_2 1_555 1_555

#END
