
#######################################################################
#
#                 Cambridge Crystallographic Data Centre
#                                CCDC 
#
#######################################################################
#
# If this CIF has been generated from an entry in the Cambridge 
# Structural Database, then it will include bibliographic, chemical, 
# crystal, experimental, refinement or atomic coordinate data resulting 
# from the CCDC's data processing and validation procedures.
#
#######################################################################

data_TIYYEG
_symmetry_cell_setting           monoclinic
_symmetry_space_group_name_H-M   'P 21/c'
_symmetry_Int_Tables_number      14
_space_group_name_Hall           '-P 2ybc'
loop_
_symmetry_equiv_pos_site_id
_symmetry_equiv_pos_as_xyz
1 x,y,z
2 -x,1/2+y,1/2-z
3 -x,-y,-z
4 x,1/2-y,1/2+z
_cell_length_a                   10.923(3)
_cell_length_b                   19.533(6)
_cell_length_c                   12.189(4)
_cell_angle_alpha                90
_cell_angle_beta                 113.330(4)
_cell_angle_gamma                90
_cell_volume                     2388
loop_
_atom_site_label
_atom_site_type_symbol
_atom_site_fract_x
_atom_site_fract_y
_atom_site_fract_z
Zn1 Zn 0.51034(6) 0.09351(3) 0.02017(5)
Zn2 Zn 0.24642(6) -0.01304(3) 0.13867(5)
C1 C 0.7825(11) 0.1943(6) 0.1339(11)
H1 H 0.7842 0.1897 0.0586
C2 C 0.8691(12) 0.2390(6) 0.2114(13)
H2 H 0.9267 0.2654 0.1896
C3 C 0.8679(12) 0.2435(6) 0.3241(13)
H3 H 0.9275 0.2724 0.3809
C4 C 0.7800(11) 0.2059(6) 0.3520(10)
H4 H 0.7768 0.2105 0.4268
C5 C 0.6940(9) 0.1602(5) 0.2685(9)
C6 C 0.5949(9) 0.1203(5) 0.2904(8)
C7 C 0.5789(11) 0.1051(6) 0.3946(9)
H5 H 0.6323 0.1190 0.4718
C8 C 0.4681(10) 0.0656(6) 0.3594(8)
H6 H 0.4320 0.0474 0.4105
C9 C 0.2660(9) 0.2061(5) -0.0362(9)
H7 H 0.2476 0.1822 0.0216
C10 C 0.2007(11) 0.2681(6) -0.0780(10)
H8 H 0.1402 0.2854 -0.0487
C11 C 0.2278(12) 0.3025(5) -0.1623(11)
H9 H 0.1870 0.3443 -0.1911
C12 C 0.3149(10) 0.2752(5) -0.2043(9)
H10 H 0.3317 0.2981 -0.2637
C13 C 0.3797(9) 0.2135(4) -0.1602(8)
C14 C 0.4748(8) 0.1818(4) -0.2001(7)
C15 C 0.5073(9) 0.1940(5) -0.2951(8)
H11 H 0.4718 0.2272 -0.3540
C16 C 0.6047(10) 0.1464(5) -0.2849(8)
H12 H 0.6472 0.1419 -0.3372
C17 C 1.0657(10) -0.0382(5) 0.2405(8)
C18 C 0.9626(9) -0.0472(4) 0.2919(7)
C19 C 1.0064(10) -0.0736(5) 0.4087(8)
H13 H 1.0957 -0.0854 0.4480
C20 C 0.9245(11) -0.0823(5) 0.4656(9)
H14 H 0.9571 -0.0998 0.5429
C21 C 0.7908(10) -0.0652(5) 0.4081(8)
H15 H 0.7335 -0.0699 0.4473
C22 C 0.7431(9) -0.0408(5) 0.2914(8)
H16 H 0.6527 -0.0311 0.2519
C23 C 0.8277(8) -0.0306(4) 0.2329(7)
C24 C 0.7723(9) -0.0040(4) 0.1097(8)
N1 N 0.6940(8) 0.1560(4) 0.1593(7)
N2 N 0.4960(8) 0.0914(3) 0.1998(6)
N3 N 0.4178(7) 0.0562(4) 0.2410(6)
N4 N 0.3527(7) 0.1800(3) -0.0752(7)
N5 N 0.5485(7) 0.1299(4) -0.1372(6)
N6 N 0.6278(8) 0.1085(4) -0.1902(6)
O1 O 0.1001(8) 0.0887(4) 0.0765(7)
O2 O 1.0628(7) -0.0783(4) 0.1570(6)
O3 O 1.1542(8) 0.0055(5) 0.2856(8)
O4 O 0.6483(6) -0.0060(3) 0.0487(6)
O5 O 0.8475(6) 0.0216(3) 0.0665(5)
Zn1B Zn 0.48966(6) -0.09351(3) -0.02017(5)
Zn2B Zn 0.75358(6) 0.01304(3) -0.13867(5)
Zn2_2 Zn 1.24642(6) -0.01304(3) 0.13867(5)
N6B N 0.3722(8) -0.1085(4) 0.1902(6)
O2_2 O 0.0628(7) -0.0783(4) 0.1570(6)
O3_2 O 0.1542(8) 0.0055(5) 0.2856(8)
O4B O 0.3517(6) 0.0060(3) -0.0487(6)
O5B O 0.1525(6) -0.0216(3) -0.0665(5)
loop_
_geom_bond_atom_site_label_1
_geom_bond_atom_site_label_2
_geom_bond_site_symmetry_1
_geom_bond_site_symmetry_2
Zn1 N1 1_555 1_555
Zn2 N3 1_555 1_555
C1 H1 1_555 1_555
C2 C1 1_555 1_555
H2 C2 1_555 1_555
C3 C2 1_555 1_555
H3 C3 1_555 1_555
C4 C3 1_555 1_555
H4 C4 1_555 1_555
C5 C4 1_555 1_555
C6 C5 1_555 1_555
C7 C6 1_555 1_555
H5 C7 1_555 1_555
C8 C7 1_555 1_555
H6 C8 1_555 1_555
C9 H7 1_555 1_555
C10 C9 1_555 1_555
H8 C10 1_555 1_555
C11 C10 1_555 1_555
H9 C11 1_555 1_555
C12 C11 1_555 1_555
H10 C12 1_555 1_555
C13 C12 1_555 1_555
C14 C13 1_555 1_555
C15 C14 1_555 1_555
H11 C15 1_555 1_555
C16 C15 1_555 1_555
H12 C16 1_555 1_555
C17 C18 1_555 1_555
C18 C19 1_555 1_555
C19 H13 1_555 1_555
C20 C19 1_555 1_555
H14 C20 1_555 1_555
C21 C20 1_555 1_555
H15 C21 1_555 1_555
C22 C21 1_555 1_555
H16 C22 1_555 1_555
C23 C18 1_555 1_555
C24 C23 1_555 1_555
N1 C1 1_555 1_555
N2 Zn1 1_555 1_555
N3 C8 1_555 1_555
N4 Zn1 1_555 1_555
N5 Zn1 1_555 1_555
N6 C16 1_555 1_555
O1 Zn2 1_555 1_555
O2 C17 1_555 1_555
O3 C17 1_555 1_555
O4 Zn1 1_555 1_555
O5 C24 1_555 1_555
Zn1B O4 1_555 1_555
Zn2B N6 1_555 1_555
Zn2_2 O2 1_555 1_555
N6B Zn2 1_555 1_555
O2_2 Zn2 1_555 1_555
O3_2 Zn2 1_555 1_555
O4B Zn1 1_555 1_555
O5B Zn2 1_555 1_555
C5 N1 1_555 1_555
C6 N2 1_555 1_555
C9 N4 1_555 1_555
C13 N4 1_555 1_555
C14 N5 1_555 1_555
C22 C23 1_555 1_555
C24 O4 1_555 1_555
N2 N3 1_555 1_555
N5 N6 1_555 1_555
O3 Zn2_2 1_555 1_555
O5 Zn2B 1_555 1_555
Zn1B O4B 1_555 1_555

#END
