
#######################################################################
#
#                 Cambridge Crystallographic Data Centre
#                                CCDC 
#
#######################################################################
#
# If this CIF has been generated from an entry in the Cambridge 
# Structural Database, then it will include bibliographic, chemical, 
# crystal, experimental, refinement or atomic coordinate data resulting 
# from the CCDC's data processing and validation procedures.
#
#######################################################################

data_TIYYOQ
_symmetry_cell_setting           triclinic
_symmetry_space_group_name_H-M   'P -1'
_symmetry_Int_Tables_number      2
_space_group_name_Hall           '-P 1'
loop_
_symmetry_equiv_pos_site_id
_symmetry_equiv_pos_as_xyz
1 x,y,z
2 -x,-y,-z
_cell_length_a                   7.4891(16)
_cell_length_b                   10.087(2)
_cell_length_c                   13.503(3)
_cell_angle_alpha                106.572(3)
_cell_angle_beta                 92.805(3)
_cell_angle_gamma                110.518(2)
_cell_volume                     902.972
loop_
_atom_site_label
_atom_site_type_symbol
_atom_site_fract_x
_atom_site_fract_y
_atom_site_fract_z
Zn1 Zn 0.60479(4) 0.60556(3) 0.71526(2)
C1 C 1.0405(4) 0.7900(4) 0.8068(2)
H1 H 1.0576 0.7763 0.7373
C2 C 1.1997(5) 0.8677(4) 0.8837(3)
H2 H 1.3219 0.9064 0.8666
C3 C 1.1764(5) 0.8876(4) 0.9861(3)
H3 H 1.2828 0.9387 1.0396
C4 C 0.9944(5) 0.8311(4) 1.0086(2)
H4 H 0.9757 0.8437 1.0777
C5 C 0.8391(4) 0.7555(3) 0.9282(2)
C6 C 0.6398(4) 0.6964(3) 0.9465(2)
C7 C 0.5638(5) 0.7053(4) 1.0393(3)
H5 H 0.6306 0.7535 1.1075
C8 C 0.3690(5) 0.6273(4) 1.0075(3)
H6 H 0.2765 0.6117 1.0510
C9 C 0.4911(5) 0.3177(3) 0.6605(3)
C10 C 0.4107(4) 0.1494(3) 0.6248(2)
C11 C 0.2646(4) 0.0685(3) 0.5393(2)
H7 H 0.2139 0.1180 0.5044
C12 C 0.1938(4) -0.0863(3) 0.5057(2)
H8 H 0.0941 -0.1405 0.4488
C13 C 0.2702(4) -0.1609(3) 0.5560(2)
H9 H 0.2221 -0.2649 0.5328
C14 C 0.4187(4) -0.0805(3) 0.6411(2)
C15 C 0.4861(4) 0.0746(3) 0.6755(2)
H10 H 0.5835 0.1291 0.7335
C16 C 0.5151(4) -0.1586(3) 0.6917(2)
N1 N 0.8614(3) 0.7329(3) 0.82714(18)
N2 N 0.4998(3) 0.6197(3) 0.86319(19)
N3 N 0.3355(4) 0.5775(3) 0.9029(2)
H11 H 0.2228 0.5249 0.8655
O1 O 0.6435(4) 0.3898(2) 0.7247(2)
O2 O 0.7656(4) 0.6192(3) 0.58991(19)
H12 H 0.8495 0.5858 0.5952
H13 H 0.725(5) 0.607(4) 0.536(3)
O3 O 0.4022(4) 0.3837(3) 0.6240(2)
O4 O 0.4444(3) -0.3009(2) 0.65893(16)
O5 O 0.6580(3) -0.0836(2) 0.76021(18)
Zn1_2 Zn 0.60479(4) -0.39444(3) 0.71526(2)
O4_2 O 0.4444(3) 0.6991(2) 0.65893(16)
O6 O 0.0493(4) 0.5027(3) 0.6109(2)
H14 H 0.038(5) 0.446(5) 0.657(3)
H15 H 0.167(7) 0.563(6) 0.626(4)
O7 O 1.0088(5) 0.0958(4) 0.7361(2)
H16 H 0.905(8) 0.022(6) 0.737(4)
H17 H 1.080(7) 0.067(6) 0.701(4)
O8 O 0.9859(5) 0.3743(4) 0.7802(3)
H18 H 0.883(5) 0.377(4) 0.773(3)
H19 H 0.990(7) 0.293(6) 0.764(4)
loop_
_geom_bond_atom_site_label_1
_geom_bond_atom_site_label_2
_geom_bond_site_symmetry_1
_geom_bond_site_symmetry_2
Zn1 N1 1_555 1_555
C1 H1 1_555 1_555
C2 C1 1_555 1_555
H2 C2 1_555 1_555
C3 C2 1_555 1_555
H3 C3 1_555 1_555
C4 C3 1_555 1_555
H4 C4 1_555 1_555
C5 C4 1_555 1_555
C6 C5 1_555 1_555
C7 C6 1_555 1_555
H5 C7 1_555 1_555
C8 C7 1_555 1_555
H6 C8 1_555 1_555
C9 C10 1_555 1_555
C10 C11 1_555 1_555
C11 H7 1_555 1_555
C12 C11 1_555 1_555
H8 C12 1_555 1_555
C13 C12 1_555 1_555
H9 C13 1_555 1_555
C14 C13 1_555 1_555
C15 C10 1_555 1_555
H10 C15 1_555 1_555
C16 C14 1_555 1_555
N1 C1 1_555 1_555
N2 Zn1 1_555 1_555
N3 C8 1_555 1_555
H11 N3 1_555 1_555
O1 Zn1 1_555 1_555
O2 Zn1 1_555 1_555
H12 O2 1_555 1_555
H13 O2 1_555 1_555
O3 Zn1 1_555 1_555
O4 C16 1_555 1_555
O5 C16 1_555 1_555
O6 H14 1_555 1_555
H15 O6 1_555 1_555
O7 H16 1_555 1_555
H17 O7 1_555 1_555
O8 H18 1_555 1_555
H19 O8 1_555 1_555
Zn1_2 O4 1_555 1_555
O4_2 Zn1 1_555 1_555
C5 N1 1_555 1_555
C6 N2 1_555 1_555
C9 O1 1_555 1_555
C9 O3 1_555 1_555
C14 C15 1_555 1_555
N2 N3 1_555 1_555

#END
