
#######################################################################
#
#                 Cambridge Crystallographic Data Centre
#                                CCDC 
#
#######################################################################
#
# If this CIF has been generated from an entry in the Cambridge 
# Structural Database, then it will include bibliographic, chemical, 
# crystal, experimental, refinement or atomic coordinate data resulting 
# from the CCDC's data processing and validation procedures.
#
#######################################################################

data_TIYYIK
_symmetry_cell_setting           triclinic
_symmetry_space_group_name_H-M   'P -1'
_symmetry_Int_Tables_number      2
_space_group_name_Hall           '-P 1'
loop_
_symmetry_equiv_pos_site_id
_symmetry_equiv_pos_as_xyz
1 x,y,z
2 -x,-y,-z
_cell_length_a                   11.3948(13)
_cell_length_b                   11.9842(14)
_cell_length_c                   14.1131(16)
_cell_angle_alpha                65.5110(10)
_cell_angle_beta                 67.0920(10)
_cell_angle_gamma                72.1660(10)
_cell_volume                     1591.23
loop_
_atom_site_label
_atom_site_type_symbol
_atom_site_fract_x
_atom_site_fract_y
_atom_site_fract_z
Cd1 Cd 0.42104(2) 0.89316(2) 0.48191(2)
Cd2 Cd 0.50526(3) 0.55537(2) 0.71444(2)
C1 C 0.2240(5) 1.1704(4) 0.4101(4)
H1 H 0.2754 1.1987 0.4299
C2 C 0.1268(6) 1.2544(4) 0.3689(4)
H2 H 0.1127 1.3377 0.3619
C3 C 0.0516(5) 1.2138(5) 0.3387(4)
H3 H -0.0134 1.2693 0.3098
C4 C 0.0731(4) 1.0901(4) 0.3516(4)
H4 H 0.0218 1.0602 0.3330
C5 C 0.1723(4) 1.0102(4) 0.3926(3)
C6 C 0.1989(4) 0.8763(4) 0.4113(3)
C7 C 0.1456(5) 0.8042(4) 0.3877(4)
H5 H 0.0823 0.8315 0.3530
C8 C 0.2070(5) 0.6836(4) 0.4270(4)
H6 H 0.1932 0.6129 0.4238
C9 C 0.6215(4) 0.2679(4) 0.8464(4)
H7 H 0.5903 0.2506 0.8029
C10 C 0.6719(6) 0.1713(8) 0.9141(6)
H8 H 0.6819 0.0908 0.9153
C11 C 0.7068(7) 0.1943(7) 0.9787(7)
H9 H 0.7378 0.1284 1.0325
C12 C 0.6999(4) 0.3079(5) 0.9710(4)
H10 H 0.7298 0.3211 1.0175
C13 C 0.6502(3) 0.4086(4) 0.8967(3)
C14 C 0.6370(4) 0.5367(4) 0.8881(3)
C15 C 0.6738(5) 0.5836(6) 0.9461(4)
H11 H 0.7148 0.5387 0.9998
C16 C 0.6327(6) 0.7220(7) 0.9030(6)
H12 H 0.6427 0.7830 0.9225
C17 C 0.3027(4) 0.7479(3) 0.7476(3)
C18 C 0.2028(3) 0.8515(3) 0.7801(3)
C19 C 0.0826(4) 0.8259(4) 0.8536(3)
H13 H 0.0637 0.7465 0.8785
C20 C -0.0089(4) 0.9176(5) 0.8898(4)
H14 H -0.0900 0.9004 0.9371
C21 C 0.0191(4) 1.0334(5) 0.8565(4)
H15 H -0.0428 1.0947 0.8814
C22 C 0.1401(4) 1.0598(4) 0.7853(4)
H16 H 0.1594 1.1383 0.7642
C23 C 0.2322(3) 0.9700(3) 0.7456(3)
C24 C 0.3617(4) 1.0049(3) 0.6725(3)
C25 C 0.6521(4) 0.5799(4) 0.2949(3)
C26 C 0.7744(4) 0.5989(3) 0.2981(3)
C27 C 0.8857(4) 0.5840(5) 0.2124(4)
H17 H 0.8794 0.5713 0.1540
C28 C 1.0036(4) 0.5877(5) 0.2132(4)
H18 H 1.0769 0.5773 0.1557
C29 C 1.0150(4) 0.6068(4) 0.2985(4)
H19 H 1.0956 0.6094 0.2986
C30 C 0.9061(4) 0.6220(4) 0.3842(3)
H20 H 0.9142 0.6340 0.4423
C31 C 0.7846(3) 0.6194(3) 0.3846(3)
C32 C 0.6664(3) 0.6459(3) 0.4747(3)
N1 N 0.2465(3) 1.0496(3) 0.4223(3)
N2 N 0.2862(3) 0.8042(3) 0.4627(3)
N3 N 0.2901(4) 0.6878(3) 0.4707(3)
H21 H 0.3400 0.6237 0.5003
N4 N 0.6081(3) 0.3885(3) 0.8304(3)
N5 N 0.5785(3) 0.6264(3) 0.8171(3)
N6 N 0.5714(4) 0.7374(4) 0.8205(3)
H22 H 0.5371 0.8071 0.7815
O1 O 0.2923(3) 0.6384(2) 0.8072(2)
O3 O 0.3994(2) 0.7746(2) 0.6631(2)
O4 O 0.3833(3) 1.0436(2) 0.5706(2)
O5 O 0.4404(3) 1.0019(3) 0.7141(3)
O6 O 0.5684(2) 0.7137(2) 0.4495(2)
O7 O 0.6782(3) 0.5959(3) 0.5698(2)
O8 O 0.5949(3) 0.4956(3) 0.3725(2)
O9 O 0.6190(4) 0.6380(4) 0.2124(3)
Cd1A Cd 0.57896(2) 1.10684(2) 0.51809(2)
Cd2A Cd 0.49474(3) 0.44463(2) 0.28556(2)
O4A O 0.6167(3) 0.9564(2) 0.4294(2)
O5A O 0.5596(3) 0.9981(3) 0.2859(3)
O8A O 0.4051(3) 0.5044(3) 0.6275(2)
O9A O 0.3810(4) 0.3620(4) 0.7876(3)
O2 O 0.3529(7) 0.1070(5) 0.8933(4)
loop_
_geom_bond_atom_site_label_1
_geom_bond_atom_site_label_2
_geom_bond_site_symmetry_1
_geom_bond_site_symmetry_2
Cd1 N1 1_555 1_555
Cd2 N4 1_555 1_555
C1 H1 1_555 1_555
C2 C1 1_555 1_555
H2 C2 1_555 1_555
C3 C2 1_555 1_555
H3 C3 1_555 1_555
C4 C3 1_555 1_555
H4 C4 1_555 1_555
C5 C4 1_555 1_555
C6 C5 1_555 1_555
C7 C6 1_555 1_555
H5 C7 1_555 1_555
C8 C7 1_555 1_555
H6 C8 1_555 1_555
C9 H7 1_555 1_555
C10 C9 1_555 1_555
H8 C10 1_555 1_555
C11 C10 1_555 1_555
H9 C11 1_555 1_555
C12 C11 1_555 1_555
H10 C12 1_555 1_555
C13 C12 1_555 1_555
C14 C13 1_555 1_555
C15 C14 1_555 1_555
H11 C15 1_555 1_555
C16 C15 1_555 1_555
H12 C16 1_555 1_555
C17 C18 1_555 1_555
C18 C19 1_555 1_555
C19 H13 1_555 1_555
C20 C19 1_555 1_555
H14 C20 1_555 1_555
C21 C20 1_555 1_555
H15 C21 1_555 1_555
C22 C21 1_555 1_555
H16 C22 1_555 1_555
C23 C18 1_555 1_555
C24 C23 1_555 1_555
C25 C26 1_555 1_555
C26 C27 1_555 1_555
C27 H17 1_555 1_555
C28 C27 1_555 1_555
H18 C28 1_555 1_555
C29 C28 1_555 1_555
H19 C29 1_555 1_555
C30 C29 1_555 1_555
H20 C30 1_555 1_555
C31 C26 1_555 1_555
C32 C31 1_555 1_555
N1 C1 1_555 1_555
N2 Cd1 1_555 1_555
N3 C8 1_555 1_555
H21 N3 1_555 1_555
N4 C9 1_555 1_555
N5 Cd2 1_555 1_555
N6 C16 1_555 1_555
H22 N6 1_555 1_555
O1 Cd2 1_555 1_555
O3 Cd1 1_555 1_555
O4 Cd1 1_555 1_555
O5 C24 1_555 1_555
O6 Cd1 1_555 1_555
O7 Cd2 1_555 1_555
O8 C25 1_555 1_555
O9 C25 1_555 1_555
Cd1A O4 1_555 1_555
Cd2A O8 1_555 1_555
O4A Cd1 1_555 1_555
O5A Cd1 1_555 1_555
O8A Cd2 1_555 1_555
O9A Cd2 1_555 1_555
Cd2 O3 1_555 1_555
C5 N1 1_555 1_555
C6 N2 1_555 1_555
C13 N4 1_555 1_555
C14 N5 1_555 1_555
C17 O1 1_555 1_555
C17 O3 1_555 1_555
C22 C23 1_555 1_555
C24 O4 1_555 1_555
C30 C31 1_555 1_555
C32 O6 1_555 1_555
C32 O7 1_555 1_555
N2 N3 1_555 1_555
N5 N6 1_555 1_555
O5 Cd1A 1_555 1_555
O9 Cd2A 1_555 1_555
Cd1A O4A 1_555 1_555

#END
