
#######################################################################
#
#                 Cambridge Crystallographic Data Centre
#                                CCDC 
#
#######################################################################
#
# If this CIF has been generated from an entry in the Cambridge 
# Structural Database, then it will include bibliographic, chemical, 
# crystal, experimental, refinement or atomic coordinate data resulting 
# from the CCDC's data processing and validation procedures.
#
#######################################################################

data_TIYYUW
_symmetry_cell_setting           triclinic
_symmetry_space_group_name_H-M   'P -1'
_symmetry_Int_Tables_number      2
_space_group_name_Hall           '-P 1'
loop_
_symmetry_equiv_pos_site_id
_symmetry_equiv_pos_as_xyz
1 x,y,z
2 -x,-y,-z
_cell_length_a                   8.8800(18)
_cell_length_b                   11.713(2)
_cell_length_c                   12.083(2)
_cell_angle_alpha                73.43(3)
_cell_angle_beta                 88.27(3)
_cell_angle_gamma                86.16(3)
_cell_volume                     1201.79
loop_
_atom_site_label
_atom_site_type_symbol
_atom_site_fract_x
_atom_site_fract_y
_atom_site_fract_z
Cd1 Cd -0.07812(3) 0.51595(2) 0.75424(2)
Cd2 Cd 0.03480(3) 0.82915(2) 0.52721(2)
C1 C -0.3705(5) 0.3925(4) 0.9017(4)
H1 H -0.2979 0.3333 0.9368
C2 C -0.5186(5) 0.3750(4) 0.9329(4)
H2 H -0.5455 0.3067 0.9891
C3 C -0.6262(5) 0.4606(4) 0.8794(4)
H3 H -0.7277 0.4503 0.8979
C4 C -0.5826(4) 0.5629(4) 0.7971(4)
H4 H -0.6543 0.6219 0.7601
C5 C -0.4307(4) 0.5756(3) 0.7714(3)
C6 C -0.3748(4) 0.6808(3) 0.6835(3)
C7 C -0.4511(4) 0.7793(3) 0.6104(3)
H5 H -0.5545 0.7984 0.6074
C8 C -0.3402(4) 0.8424(3) 0.5434(3)
H6 H -0.3569 0.9137 0.4856
C9 C 0.2943(5) 0.9412(4) 0.3273(3)
H7 H 0.2434 1.0138 0.3250
C10 C 0.4223(5) 0.9418(4) 0.2599(3)
H8 H 0.4591 1.0132 0.2155
C11 C 0.4944(5) 0.8337(4) 0.2601(3)
H9 H 0.5799 0.8312 0.2142
C12 C 0.4387(4) 0.7289(4) 0.3291(3)
H10 H 0.4860 0.6555 0.3293
C13 C 0.3109(4) 0.7340(3) 0.3984(3)
C14 C 0.2502(4) 0.6281(3) 0.4778(3)
C15 C 0.2893(4) 0.5063(3) 0.4988(3)
H11 H 0.3644 0.4706 0.4622
C16 C 0.1920(4) 0.4508(3) 0.5854(3)
H12 H 0.1906 0.3686 0.6176
C17 C 0.0361(5) 0.2673(4) 0.8754(5)
C18 C 0.1033(4) 0.1431(3) 0.8830(3)
C19 C 0.1855(5) 0.0782(4) 0.9780(3)
H13 H 0.1998 0.1105 1.0386
C20 C 0.2468(5) -0.0356(4) 0.9828(4)
H14 H 0.3027 -0.0788 1.0467
C21 C 0.2260(4) -0.0852(3) 0.8947(3)
H15 H 0.2671 -0.1615 0.8993
C22 C 0.1429(4) -0.0208(3) 0.7981(3)
C23 C 0.1176(4) -0.0760(3) 0.7037(3)
C24 C 0.0830(4) 0.0930(3) 0.7936(3)
H16 H 0.0280 0.1366 0.7293
H17 H 0.062(5) 0.670(4) 0.825(4)
H18 H -0.006(6) 0.620(5) 0.930(5)
N1 N -0.3245(3) 0.4903(3) 0.8234(3)
N2 N -0.2249(3) 0.6857(3) 0.6614(3)
N3 N -0.2033(3) 0.7864(3) 0.5733(3)
N4 N 0.2392(3) 0.8404(3) 0.3963(3)
N5 N 0.1358(3) 0.6422(3) 0.5499(3)
N6 N 0.0995(3) 0.5320(3) 0.6167(3)
O1 O -0.0461(4) 0.3161(3) 0.7884(3)
O2 O 0.0641(4) 0.3154(3) 0.9499(4)
O3 O 0.0632(3) -0.0118(2) 0.6085(2)
O4 O 0.1471(3) -0.1855(2) 0.7184(2)
O5 O 0.0370(4) 0.6096(3) 0.8698(3)
Cd2_2 Cd 0.03480(3) -0.17085(2) 0.52721(2)
Cd2A Cd -0.03480(3) 0.17085(2) 0.47279(2)
O3_2 O 0.0632(3) 0.9882(2) 0.6085(2)
O3A O -0.0632(3) 1.0118(2) 0.3915(2)
O4_2 O 0.1471(3) 0.8145(2) 0.7184(2)
loop_
_geom_bond_atom_site_label_1
_geom_bond_atom_site_label_2
_geom_bond_site_symmetry_1
_geom_bond_site_symmetry_2
Cd1 N1 1_555 1_555
Cd2 N3 1_555 1_555
C1 H1 1_555 1_555
C2 C1 1_555 1_555
H2 C2 1_555 1_555
C3 C2 1_555 1_555
H3 C3 1_555 1_555
C4 C3 1_555 1_555
H4 C4 1_555 1_555
C5 C4 1_555 1_555
C6 C5 1_555 1_555
C7 C6 1_555 1_555
H5 C7 1_555 1_555
C8 C7 1_555 1_555
H6 C8 1_555 1_555
C9 H7 1_555 1_555
C10 C9 1_555 1_555
H8 C10 1_555 1_555
C11 C10 1_555 1_555
H9 C11 1_555 1_555
C12 C11 1_555 1_555
H10 C12 1_555 1_555
C13 C12 1_555 1_555
C14 C13 1_555 1_555
C15 C14 1_555 1_555
H11 C15 1_555 1_555
C16 C15 1_555 1_555
H12 C16 1_555 1_555
C17 C18 1_555 1_555
C18 C19 1_555 1_555
C19 H13 1_555 1_555
C20 C19 1_555 1_555
H14 C20 1_555 1_555
C21 C20 1_555 1_555
H15 C21 1_555 1_555
C22 C21 1_555 1_555
C23 C22 1_555 1_555
C24 C18 1_555 1_555
H16 C24 1_555 1_555
H17 O5 1_555 1_555
H18 O5 1_555 1_555
N1 C1 1_555 1_555
N2 Cd1 1_555 1_555
N3 C8 1_555 1_555
N4 Cd2 1_555 1_555
N5 Cd2 1_555 1_555
N6 Cd1 1_555 1_555
O1 Cd1 1_555 1_555
O2 C17 1_555 1_555
O3 C23 1_555 1_555
O4 C23 1_555 1_555
O5 Cd1 1_555 1_555
Cd2_2 O3 1_555 1_555
Cd2A O3 1_555 1_555
O3_2 Cd2 1_555 1_555
O3A Cd2 1_555 1_555
O4_2 Cd2 1_555 1_555
C5 N1 1_555 1_555
C6 N2 1_555 1_555
C9 N4 1_555 1_555
C13 N4 1_555 1_555
C14 N5 1_555 1_555
C16 N6 1_555 1_555
C17 O1 1_555 1_555
C22 C24 1_555 1_555
N2 N3 1_555 1_555
N5 N6 1_555 1_555
O4 Cd2_2 1_555 1_555

#END
