
#######################################################################
#
#                 Cambridge Crystallographic Data Centre
#                                CCDC 
#
#######################################################################
#
# If this CIF has been generated from an entry in the Cambridge 
# Structural Database, then it will include bibliographic, chemical, 
# crystal, experimental, refinement or atomic coordinate data resulting 
# from the CCDC's data processing and validation procedures.
#
#######################################################################

data_TIYZIK
_symmetry_cell_setting           monoclinic
_symmetry_space_group_name_H-M   'P 21/c'
_symmetry_Int_Tables_number      14
_space_group_name_Hall           '-P 2ybc'
loop_
_symmetry_equiv_pos_site_id
_symmetry_equiv_pos_as_xyz
1 x,y,z
2 -x,1/2+y,1/2-z
3 -x,-y,-z
4 x,1/2-y,1/2+z
_cell_length_a                   9.014(2)
_cell_length_b                   12.273(2)
_cell_length_c                   17.835(2)
_cell_angle_alpha                90
_cell_angle_beta                 91.02(1)
_cell_angle_gamma                90
_cell_volume                     1972.75
loop_
_atom_site_label
_atom_site_type_symbol
_atom_site_fract_x
_atom_site_fract_y
_atom_site_fract_z
Cu1 Cu 0.62438(6) 0.05625(5) 0.00674(3)
Ag1 Ag 0.91234(5) 0.08159(4) 0.25736(2)
Ag2 Ag 0.85461(7) 0.12647(4) -0.24478(3)
C1 C 0.8011(6) 0.0746(4) -0.1401(3)
N1 N 0.7505(5) 0.0585(4) -0.0837(3)
C2 C 0.8132(6) 0.0466(4) 0.1552(3)
N2 N 0.7510(5) 0.0390(3) 0.0985(2)
Cu2 Cu 0.15129(7) 0.28689(5) 0.01479(3)
C8 C 0.0039(6) 0.3660(4) -0.1419(3)
N4 N 0.0589(5) 0.3392(4) -0.0868(3)
N5 N 0.0276(5) 0.3137(4) 0.1079(3)
C9 C -0.0365(7) 0.3340(5) 0.1599(4)
N6 N 0.3490(5) 0.2038(3) 0.0075(2)
C10 C 0.4449(6) 0.1415(4) 0.0069(3)
N7 N 0.2550(5) 0.4293(3) 0.0355(2)
C11 C 0.2466(7) 0.5168(5) -0.0084(3)
H6 H 0.1925(7) 0.5125(5) -0.0531(3)
C12 C 0.3157(8) 0.6138(5) 0.0103(4)
H7 H 0.3079(8) 0.6737(5) -0.0215(4)
C13 C 0.3952(8) 0.6206(5) 0.0756(4)
H8 H 0.4432(8) 0.6851(5) 0.0888(4)
C14 C 0.4039(7) 0.5322(5) 0.1215(4)
H9 H 0.4579(7) 0.5350(5) 0.1664(4)
C15 C 0.3303(7) 0.4382(5) 0.0998(4)
H10 H 0.3340(7) 0.3783(5) 0.1317(4)
N8 N 0.0503(5) 0.1424(3) 0.0025(3)
H11 H -0.0449(11) 0.1528(3) -0.0095(21)
H12 H 0.0936(27) 0.1049(13) -0.0338(14)
H13 H 0.0574(36) 0.1053(13) 0.0453(7)
Ag2C Ag -0.14539(7) 0.37353(4) 0.25522(3)
Ag1C Ag -0.08766(5) 0.41841(4) -0.24264(2)
C9C C 0.9635(7) 0.1660(5) -0.3401(4)
C8C C 1.0039(6) 0.1340(4) 0.3581(3)
N3 N -0.4216(5) 0.3212(4) -0.7608(3)
C3 C -0.4457(7) 0.2365(5) -0.8065(3)
H1 H -0.3754(7) 0.2216(5) -0.8426(3)
C4 C -0.5671(7) 0.1708(5) -0.8033(3)
H2 H -0.5768(7) 0.1110(5) -0.8350(3)
C5 C -0.6741(7) 0.1941(5) -0.7528(4)
H3 H -0.7593(7) 0.1517(5) -0.7503(4)
C6 C -0.6536(7) 0.2823(5) -0.7050(3)
H4 H -0.7237(7) 0.3000(5) -0.6693(3)
C7 C -0.5265(7) 0.3425(5) -0.7122(3)
H5 H -0.5133(7) 0.4023(5) -0.6808(3)
loop_
_geom_bond_atom_site_label_1
_geom_bond_atom_site_label_2
_geom_bond_site_symmetry_1
_geom_bond_site_symmetry_2
Cu1 N1 1_555 1_555
Ag1 C2 1_555 1_555
Ag2 C1 1_555 1_555
C1 N1 1_555 1_555
C2 N2 1_555 1_555
N2 Cu1 1_555 1_555
N3 C3 1_555 1_555
C3 H1 1_555 1_555
C4 C3 1_555 1_555
H2 C4 1_555 1_555
C5 C4 1_555 1_555
H3 C5 1_555 1_555
C6 C5 1_555 1_555
H4 C6 1_555 1_555
C7 N3 1_555 1_555
H5 C7 1_555 1_555
Cu2 N4 1_555 1_555
C8 N4 1_555 1_555
N5 Cu2 1_555 1_555
C9 N5 1_555 1_555
N6 Cu2 1_555 1_555
C10 Cu1 1_555 1_555
N7 Cu2 1_555 1_555
C11 N7 1_555 1_555
H6 C11 1_555 1_555
C12 C11 1_555 1_555
H7 C12 1_555 1_555
C13 C12 1_555 1_555
H8 C13 1_555 1_555
C14 C13 1_555 1_555
H9 C14 1_555 1_555
C15 N7 1_555 1_555
H10 C15 1_555 1_555
N8 Cu2 1_555 1_555
H11 N8 1_555 1_555
H12 N8 1_555 1_555
H13 N8 1_555 1_555
Ag2C C9 1_555 1_555
Ag1C C8 1_555 1_555
C9C Ag2 1_555 1_555
C8C Ag1 1_555 1_555
C6 C7 1_555 1_555
N6 C10 1_555 1_555
C14 C15 1_555 1_555

#END
