
#######################################################################
#
#                 Cambridge Crystallographic Data Centre
#                                CCDC 
#
#######################################################################
#
# If this CIF has been generated from an entry in the Cambridge 
# Structural Database, then it will include bibliographic, chemical, 
# crystal, experimental, refinement or atomic coordinate data resulting 
# from the CCDC's data processing and validation procedures.
#
#######################################################################

data_TIYZEG
_symmetry_cell_setting           monoclinic
_symmetry_space_group_name_H-M   'P 21/c'
_symmetry_Int_Tables_number      14
_space_group_name_Hall           '-P 2ybc'
loop_
_symmetry_equiv_pos_site_id
_symmetry_equiv_pos_as_xyz
1 x,y,z
2 -x,1/2+y,1/2-z
3 -x,-y,-z
4 x,1/2-y,1/2+z
_cell_length_a                   9.238(2)
_cell_length_b                   12.268(2)
_cell_length_c                   18.098(4)
_cell_angle_alpha                90
_cell_angle_beta                 91.41(3)
_cell_angle_gamma                90
_cell_volume                     2050.46
loop_
_atom_site_label
_atom_site_type_symbol
_atom_site_fract_x
_atom_site_fract_y
_atom_site_fract_z
Ag1 Ag 0.62558(14) 0.43759(10) 0.50856(7)
Ag2 Ag 0.8597(2) 0.37105(10) 0.25409(7)
Ag3 Ag 0.9163(2) 0.41383(10) 0.76005(7)
Cu1 Cu 0.1487(2) 0.21210(12) 0.51504(9)
C1 C 0.4408(18) 0.3508(12) 0.5059(8)
N1 N 0.3434(14) 0.2928(9) 0.5060(6)
C2 C -0.0357(20) 0.1681(12) 0.6583(9)
N2 N 0.0246(16) 0.1864(9) 0.6061(7)
C3 C 0.8050(18) 0.4212(12) 0.3585(8)
N3 N 0.7644(16) 0.4408(10) 0.4162(7)
C4 C 0.0063(19) 0.1350(11) 0.3609(9)
N4 N 0.0601(15) 0.1601(9) 0.4144(7)
C5 C 0.8213(19) 0.4518(12) 0.6609(8)
N5 N 0.7668(17) 0.4607(10) 0.6030(7)
N6 N 0.0526(12) 0.3547(8) 0.5015(7)
H1 H -0.0236(59) 0.3473(16) 0.4708(40)
H2 H 0.1147(33) 0.4020(21) 0.4826(46)
H3 H 0.0234(87) 0.3791(36) 0.5450(10)
N7 N 0.2495(12) 0.0703(8) 0.5346(6)
C6 C 0.2459(20) -0.0157(11) 0.4930(8)
H4 H 0.1920(20) -0.0120(11) 0.4490(8)
C7 C 0.3148(25) -0.1103(14) 0.5089(8)
H5 H 0.3074(25) -0.1686(14) 0.4762(8)
C8 C 0.3901(23) -0.1198(13) 0.5688(13)
H6 H 0.4426(23) -0.1831(13) 0.5786(13)
C9 C 0.3924(22) -0.0329(14) 0.6199(10)
H7 H 0.4375(22) -0.0380(14) 0.6663(10)
C10 C 0.3224(19) 0.0601(12) 0.5957(9)
H8 H 0.3285(19) 0.1210(12) 0.6262(9)
Ag2C Ag -0.1403(2) 0.12895(10) 0.75409(7)
C2C C 0.9643(20) 0.3319(12) 0.1583(9)
Ag3C Ag -0.0837(2) 0.08617(10) 0.26005(7)
C4C C 1.0063(19) 0.3650(11) 0.8609(9)
N8 N 0.5728(16) 0.3192(12) 0.2378(8)
C11 C 0.5447(23) 0.2323(14) 0.1929(9)
H9 H 0.6103(23) 0.2168(14) 0.1562(9)
C12 C 0.4277(23) 0.1674(13) 0.1983(10)
H10 H 0.4144(23) 0.1064(13) 0.1683(10)
C13 C 0.3487(22) 0.2828(14) 0.2924(11)
H11 H 0.2777(22) 0.3041(14) 0.3249(11)
C14 C 0.3307(21) 0.1958(17) 0.2496(10)
H12 H 0.2487(21) 0.1529(17) 0.2552(10)
C15 C 0.4746(21) 0.3402(13) 0.2872(10)
H13 H 0.4917(21) 0.3971(13) 0.3202(10)
loop_
_geom_bond_atom_site_label_1
_geom_bond_atom_site_label_2
_geom_bond_site_symmetry_1
_geom_bond_site_symmetry_2
Ag1 C1 1_555 1_555
Ag2 C3 1_555 1_555
Ag3 C5 1_555 1_555
Cu1 N1 1_555 1_555
C1 N1 1_555 1_555
C2 N2 1_555 1_555
N2 Cu1 1_555 1_555
C3 N3 1_555 1_555
N3 Ag1 1_555 1_555
C4 N4 1_555 1_555
N4 Cu1 1_555 1_555
C5 N5 1_555 1_555
N5 Ag1 1_555 1_555
N6 Cu1 1_555 1_555
H1 N6 1_555 1_555
H2 N6 1_555 1_555
H3 N6 1_555 1_555
N7 Cu1 1_555 1_555
C6 N7 1_555 1_555
H4 C6 1_555 1_555
C7 C6 1_555 1_555
H5 C7 1_555 1_555
C8 C7 1_555 1_555
H6 C8 1_555 1_555
C9 C8 1_555 1_555
H7 C9 1_555 1_555
C10 N7 1_555 1_555
H8 C10 1_555 1_555
N8 C11 1_555 1_555
C11 H9 1_555 1_555
C12 C11 1_555 1_555
H10 C12 1_555 1_555
C13 H11 1_555 1_555
C14 C12 1_555 1_555
H12 C14 1_555 1_555
C15 N8 1_555 1_555
H13 C15 1_555 1_555
Ag2C C2 1_555 1_555
C2C Ag2 1_555 1_555
Ag3C C4 1_555 1_555
C4C Ag3 1_555 1_555
C9 C10 1_555 1_555
C13 C14 1_555 1_555
C13 C15 1_555 1_555

#END
