
#######################################################################
#
#                 Cambridge Crystallographic Data Centre
#                                CCDC 
#
#######################################################################
#
# If this CIF has been generated from an entry in the Cambridge 
# Structural Database, then it will include bibliographic, chemical, 
# crystal, experimental, refinement or atomic coordinate data resulting 
# from the CCDC's data processing and validation procedures.
#
#######################################################################

data_TIZBOV
_symmetry_cell_setting           monoclinic
_symmetry_space_group_name_H-M   'P 21/c'
_symmetry_Int_Tables_number      14
_space_group_name_Hall           '-P 2ybc'
loop_
_symmetry_equiv_pos_site_id
_symmetry_equiv_pos_as_xyz
1 x,y,z
2 -x,1/2+y,1/2-z
3 -x,-y,-z
4 x,1/2-y,1/2+z
_cell_length_a                   14.655(4)
_cell_length_b                   10.777(3)
_cell_length_c                   12.870(4)
_cell_angle_alpha                90
_cell_angle_beta                 100.038(4)
_cell_angle_gamma                90
_cell_volume                     2001.53
loop_
_atom_site_label
_atom_site_type_symbol
_atom_site_fract_x
_atom_site_fract_y
_atom_site_fract_z
La1 La 0.72316(2) 0.19509(3) 0.35351(3)
Ag1 Ag 0.61691(7) 0.72580(8) 0.37700(8)
C1 C 0.5568(5) -0.0209(6) 0.3701(5)
C2 C 0.5646(4) 0.4238(6) 0.3760(5)
C3 C 0.5046(4) 0.3106(6) 0.3762(5)
C4 C 0.8212(4) 0.0401(6) 0.5857(4)
C5 C 0.8850(4) -0.0298(6) 0.3313(5)
C6 C 0.7660(4) 0.1444(6) 0.6216(5)
C7 C 0.5010(4) 0.0967(6) 0.3720(5)
C8 C 0.4077(5) 0.0950(8) 0.3712(6)
H1 H 0.3753 0.0205 0.3685
C9 C 0.3632(5) 0.2067(8) 0.3744(8)
H2 H 0.2997 0.2081 0.3740
C10 C 0.4115(5) 0.3167(8) 0.3783(7)
H3 H 0.3820 0.3925 0.3821
C11 C 0.8598(5) -0.0524(6) 0.6510(5)
H4 H 0.8541 -0.0522 0.7219
C12 C 0.9071(5) -0.1461(7) 0.6112(6)
H5 H 0.9332 -0.2106 0.6544
C13 C 0.8762(4) -0.0460(6) 0.4455(5)
N1 N 0.8280(3) 0.0428(5) 0.4838(4)
O1 O 0.6475(3) 0.4033(4) 0.3738(4)
O2 O 0.5286(3) 0.5283(5) 0.3759(4)
O3 O 0.7187(3) 0.2075(4) 0.5501(3)
O4 O 0.8441(3) 0.0628(5) 0.2841(3)
O5 O 0.9332(4) -0.1049(5) 0.2910(4)
O6 O 0.6414(3) -0.0070(4) 0.3710(4)
O7 O 0.5153(4) -0.1218(5) 0.3687(4)
O8 O 0.7720(3) 0.1612(4) 0.7177(3)
O9 O 0.8605(4) 0.3212(5) 0.4359(4)
H6 H 0.9018 0.2697 0.4629
H7 H 0.8411 0.3581 0.4862
O10 O 0.6397(3) 0.1352(5) 0.1729(4)
H8 H 0.5822 0.1203 0.1676
H9 H 0.6433 0.1617 0.1117
N2 N 0.5476(3) 0.2020(5) 0.3730(4)
C14 C 0.9156(5) -0.1431(7) 0.5056(5)
H10 H 0.9471 -0.2053 0.4764
O11 O 0.7490(5) 0.6202(7) 0.3786(7)
H11 H 0.7181 0.5598 0.3972
H12 H 0.8040 0.6010 0.4066
La1C La 0.72316(2) 0.30491(3) 0.85351(3)
Ag1_2 Ag 0.61691(7) -0.27420(8) 0.37700(8)
O7_2 O 0.5153(4) 0.8782(5) 0.3687(4)
O8C O 0.7720(3) 0.3388(4) 0.2177(3)
O12 O 0.9446(3) 0.3013(5) 0.6455(4)
H13 H 0.9876 0.2491 0.6649
H14 H 0.9026 0.2890 0.6824
O13 O -0.0038(6) 0.4523(8) 0.3823(6)
H15 H -0.0186 0.5271 0.3664
H16 H 0.0539 0.4447 0.3821
O14 O 0.7930(10) 0.5628(14) 0.5798(10)
H17 H 0.7770 0.6367 0.5622
H18 H 0.7649 0.5418 0.6296
loop_
_geom_bond_atom_site_label_1
_geom_bond_atom_site_label_2
_geom_bond_site_symmetry_1
_geom_bond_site_symmetry_2
La1 N1 1_555 1_555
Ag1 O2 1_555 1_555
C1 C7 1_555 1_555
C2 C3 1_555 1_555
C3 C10 1_555 1_555
C4 C6 1_555 1_555
C5 C13 1_555 1_555
C6 O3 1_555 1_555
C7 C8 1_555 1_555
C8 H1 1_555 1_555
C9 C8 1_555 1_555
H2 C9 1_555 1_555
C10 C9 1_555 1_555
H3 C10 1_555 1_555
C11 C4 1_555 1_555
H4 C11 1_555 1_555
C12 C11 1_555 1_555
H5 C12 1_555 1_555
C13 N1 1_555 1_555
N1 C4 1_555 1_555
O1 La1 1_555 1_555
O2 C2 1_555 1_555
O3 La1 1_555 1_555
O4 La1 1_555 1_555
O5 C5 1_555 1_555
O6 La1 1_555 1_555
O7 C1 1_555 1_555
O8 C6 1_555 1_555
O9 La1 1_555 1_555
H6 O9 1_555 1_555
H7 O9 1_555 1_555
O10 La1 1_555 1_555
H8 O10 1_555 1_555
H9 O10 1_555 1_555
N2 La1 1_555 1_555
C14 C12 1_555 1_555
H10 C14 1_555 1_555
O11 Ag1 1_555 1_555
H11 O11 1_555 1_555
H12 O11 1_555 1_555
O12 H13 1_555 1_555
H14 O12 1_555 1_555
O13 H15 1_555 1_555
H16 O13 1_555 1_555
O14 H17 1_555 1_555
H18 O14 1_555 1_555
La1C O8 1_555 1_555
Ag1_2 O7 1_555 1_555
O7_2 Ag1 1_555 1_555
O8C La1 1_555 1_555
C1 O6 1_555 1_555
C2 O1 1_555 1_555
C3 N2 1_555 1_555
C5 O4 1_555 1_555
C7 N2 1_555 1_555
C13 C14 1_555 1_555

#END
