
#######################################################################
#
#                 Cambridge Crystallographic Data Centre
#                                CCDC 
#
#######################################################################
#
# If this CIF has been generated from an entry in the Cambridge 
# Structural Database, then it will include bibliographic, chemical, 
# crystal, experimental, refinement or atomic coordinate data resulting 
# from the CCDC's data processing and validation procedures.
#
#######################################################################

data_TIZBIP
_symmetry_cell_setting           triclinic
_symmetry_space_group_name_H-M   'P -1'
_symmetry_Int_Tables_number      2
_space_group_name_Hall           '-P 1'
loop_
_symmetry_equiv_pos_site_id
_symmetry_equiv_pos_as_xyz
1 x,y,z
2 -x,-y,-z
_cell_length_a                   7.445(2)
_cell_length_b                   8.444(2)
_cell_length_c                   9.521(3)
_cell_angle_alpha                77.093(4)
_cell_angle_beta                 75.613(5)
_cell_angle_gamma                69.35(3)
_cell_volume                     536.405
loop_
_atom_site_label
_atom_site_type_symbol
_atom_site_fract_x
_atom_site_fract_y
_atom_site_fract_z
Tm1 Tm 0.17446(5) 0.86846(5) 0.20052(4)
O1 O 0.0556(10) 0.5866(8) 0.6415(6)
O2 O 0.0808(9) 0.7845(8) 0.4481(6)
O3 O 0.7356(10) 0.2254(8) 0.0213(7)
O4 O 0.8772(9) 0.0635(8) 0.2075(7)
N1 N 0.3527(10) 0.5686(9) 0.2903(7)
C1 C 0.1301(13) 0.6315(11) 0.5170(9)
C2 C 0.2955(12) 0.5038(10) 0.4312(9)
C3 C 0.4955(12) 0.4634(11) 0.2070(9)
H1 H 0.5329 0.5063 0.1093
C4 C 0.5910(11) 0.2957(11) 0.2561(9)
C5 C 0.5338(12) 0.2317(12) 0.4053(10)
H2 H 0.5968 0.1202 0.4446
C6 C 0.3826(13) 0.3385(12) 0.4907(10)
H3 H 0.3399 0.2987 0.5881
C7 C 0.7470(12) 0.1864(10) 0.1539(9)
O5 O 0.5107(9) 0.8296(8) 0.1442(6)
C8 C 0.5769(12) 0.9192(10) 0.0376(9)
O6 O 0.7514(8) 0.9012(8) -0.0227(7)
O7 O 0.2020(9) 1.0655(9) 0.3292(7)
H4 H 0.1272 1.0698 0.4087
H5 H 0.1632 1.1576 0.2774
O8 O -0.0332(10) 0.7170(9) 0.1992(8)
H6 H -0.0278 0.6190 0.2380
H7 H -0.1023 0.7447 0.1375
O5A O 0.4893(9) 1.1704(8) -0.1442(6)
C8A C 0.4231(12) 1.0808(10) -0.0376(9)
O6A O 0.2486(8) 1.0988(8) 0.0227(7)
Tm1A Tm 0.82554(5) 0.13154(5) -0.20052(4)
O1A O 0.9444(10) 0.4134(8) -0.6415(6)
O2A O 0.9192(9) 0.2155(8) -0.4481(6)
O3A O 0.2644(10) 0.7746(8) -0.0213(7)
O4A O 0.1228(9) 0.9365(8) -0.2075(7)
N1A N 0.6473(10) 0.4314(9) -0.2903(7)
C1A C 0.8699(13) 0.3685(11) -0.5170(9)
C2A C 0.7045(12) 0.4962(10) -0.4312(9)
C3A C 0.5045(12) 0.5366(11) -0.2070(9)
H1A H 0.4671 0.4937 -0.1093
C4A C 0.4090(11) 0.7043(11) -0.2561(9)
C5A C 0.4662(12) 0.7683(12) -0.4053(10)
H2A H 0.4032 0.8798 -0.4446
C6A C 0.6174(13) 0.6615(12) -0.4907(10)
H3A H 0.6601 0.7013 -0.5881
C7A C 0.2530(12) 0.8136(10) -0.1539(9)
O7A O 0.7980(9) -0.0655(9) -0.3292(7)
H4A H 0.8728 -0.0698 -0.4087
H5A H 0.8368 -0.1576 -0.2774
O8A O 1.0332(10) 0.2830(9) -0.1992(8)
H6A H 1.0278 0.3810 -0.2380
H7A H 1.1023 0.2553 -0.1375
Tm1_2 Tm 1.17446(5) -0.13154(5) 0.20052(4)
Tm1A_2 Tm -0.17446(5) 1.13154(5) -0.20052(4)
Tm1A_3 Tm 0.82554(5) 1.13154(5) -0.20052(4)
O4_2 O -0.1228(9) 1.0635(8) 0.2075(7)
O4A_2 O 1.1228(9) -0.0635(8) -0.2075(7)
O5A_2 O 0.4893(9) 0.1704(8) -0.1442(6)
O6_2 O 0.7514(8) -0.0988(8) -0.0227(7)
loop_
_geom_bond_atom_site_label_1
_geom_bond_atom_site_label_2
_geom_bond_site_symmetry_1
_geom_bond_site_symmetry_2
Tm1 O2 1_555 1_555
O1 C1 1_555 1_555
O2 C1 1_555 1_555
O3 C7 1_555 1_555
O4 C7 1_555 1_555
N1 Tm1 1_555 1_555
C1 C2 1_555 1_555
C2 N1 1_555 1_555
C3 N1 1_555 1_555
H1 C3 1_555 1_555
C4 C3 1_555 1_555
C5 C4 1_555 1_555
H2 C5 1_555 1_555
C6 C2 1_555 1_555
H3 C6 1_555 1_555
C7 C4 1_555 1_555
O5 Tm1 1_555 1_555
C8 O5 1_555 1_555
O6 C8 1_555 1_555
O7 Tm1 1_555 1_555
H4 O7 1_555 1_555
H5 O7 1_555 1_555
O8 Tm1 1_555 1_555
H6 O8 1_555 1_555
H7 O8 1_555 1_555
O5A C8A 1_555 1_555
C8A C8 1_555 1_555
O6A Tm1 1_555 1_555
Tm1A O3 1_555 1_555
O1A C1A 1_555 1_555
O2A Tm1A 1_555 1_555
O3A Tm1 1_555 1_555
O4A C7A 1_555 1_555
N1A Tm1A 1_555 1_555
C1A O2A 1_555 1_555
C2A N1A 1_555 1_555
C3A N1A 1_555 1_555
H1A C3A 1_555 1_555
C4A C3A 1_555 1_555
C5A C4A 1_555 1_555
H2A C5A 1_555 1_555
C6A C2A 1_555 1_555
H3A C6A 1_555 1_555
C7A O3A 1_555 1_555
O7A Tm1A 1_555 1_555
H4A O7A 1_555 1_555
H5A O7A 1_555 1_555
O8A Tm1A 1_555 1_555
H6A O8A 1_555 1_555
H7A O8A 1_555 1_555
Tm1_2 O4 1_555 1_555
Tm1A_2 O4A 1_555 1_555
Tm1A_3 O6 1_555 1_555
O4_2 Tm1 1_555 1_555
O4A_2 Tm1A 1_555 1_555
O5A_2 Tm1A 1_555 1_555
O6_2 Tm1A 1_555 1_555
C5 C6 1_555 1_555
O5A Tm1A_3 1_555 1_555
C8A O6A 1_555 1_555
C1A C2A 1_555 1_555
C4A C7A 1_555 1_555
C5A C6A 1_555 1_555

#END
