
#######################################################################
#
#                 Cambridge Crystallographic Data Centre
#                                CCDC 
#
#######################################################################
#
# If this CIF has been generated from an entry in the Cambridge 
# Structural Database, then it will include bibliographic, chemical, 
# crystal, experimental, refinement or atomic coordinate data resulting 
# from the CCDC's data processing and validation procedures.
#
#######################################################################

data_TIZDUC
_symmetry_cell_setting           monoclinic
_symmetry_space_group_name_H-M   'P 21/c'
_symmetry_Int_Tables_number      14
_space_group_name_Hall           '-P 2ybc'
loop_
_symmetry_equiv_pos_site_id
_symmetry_equiv_pos_as_xyz
1 x,y,z
2 -x,1/2+y,1/2-z
3 -x,-y,-z
4 x,1/2-y,1/2+z
_cell_length_a                   6.272(3)
_cell_length_b                   14.404(7)
_cell_length_c                   16.099(6)
_cell_angle_alpha                90
_cell_angle_beta                 105.868(15)
_cell_angle_gamma                90
_cell_volume                     1398.99
loop_
_atom_site_label
_atom_site_type_symbol
_atom_site_fract_x
_atom_site_fract_y
_atom_site_fract_z
Br1 Br -0.6683(3) 0.13693(15) 0.01051(15)
Cu1 Cu -0.2833(2) 0.19913(10) 0.02147(9)
N1 N 0.6706(16) 0.2276(6) 0.4059(6)
N2 N 0.7956(18) 0.4069(7) 0.4545(7)
H1 H 0.7321 0.4609 0.4669
H2 H 0.9469 0.4149 0.4695
N3 N 0.7371(18) 0.1729(7) 0.5754(7)
H3 H 0.8682 0.1677 0.6182
H4 H 0.6225 0.1650 0.6003
N4 N 0.1774(18) 0.1188(7) 0.2442(6)
N5 N -0.1119(17) 0.1442(7) 0.1346(7)
C1 C 0.770(2) 0.2852(9) 0.3503(8)
H5 H 0.7110 0.2663 0.2892
H6 H 0.9331 0.2767 0.3670
C2 C 0.714(2) 0.3862(10) 0.3613(8)
H7 H 0.7861 0.4271 0.3278
H8 H 0.5513 0.3959 0.3410
C3 C 0.806(2) 0.1410(8) 0.4383(9)
H9 H 0.7879 0.0958 0.3906
H10 H 0.9645 0.1572 0.4598
C4 C 0.726(2) 0.0991(8) 0.5097(8)
H11 H 0.5722 0.0765 0.4871
H12 H 0.8216 0.0461 0.5356
C5 C 0.434(2) 0.2022(9) 0.3633(8)
H13 H 0.3543 0.2580 0.3348
H14 H 0.3627 0.1825 0.4084
C6 C 0.406(2) 0.1257(9) 0.2972(9)
H15 H 0.5044 0.1380 0.2597
H16 H 0.4515 0.0659 0.3271
C7 C 0.091(2) 0.1670(9) 0.1726(8)
H17 H 0.1695 0.2135 0.1514
C8 C -0.165(2) 0.0720(8) 0.1842(8)
H18 H -0.3025 0.0401 0.1730
C9 C 0.018(2) 0.0565(9) 0.2514(9)
H19 H 0.0326 0.0108 0.2952
Cu1C Cu 0.7167(2) 0.30087(10) 0.52147(9)
N1C N -0.3294(16) 0.2724(6) -0.0941(6)
N2C N -0.2044(18) 0.0931(7) -0.0455(7)
H1C H -0.2679 0.0391 -0.0331
H2C H -0.0531 0.0851 -0.0305
N3C N -0.2629(18) 0.3271(7) 0.0754(7)
H3C H -0.1318 0.3323 0.1182
H4C H -0.3775 0.3350 0.1003
Br2 Br 0.2983(2) 0.10440(9) 0.64861(10)
loop_
_geom_bond_atom_site_label_1
_geom_bond_atom_site_label_2
_geom_bond_site_symmetry_1
_geom_bond_site_symmetry_2
Br1 Cu1 1_555 1_555
Cu1 N5 1_555 1_555
N1 C1 1_555 1_555
N2 H1 1_555 1_555
H2 N2 1_555 1_555
N3 H3 1_555 1_555
H4 N3 1_555 1_555
N4 C6 1_555 1_555
N5 C7 1_555 1_555
C1 H5 1_555 1_555
H6 C1 1_555 1_555
C2 N2 1_555 1_555
H7 C2 1_555 1_555
H8 C2 1_555 1_555
C3 N1 1_555 1_555
H9 C3 1_555 1_555
H10 C3 1_555 1_555
C4 N3 1_555 1_555
H11 C4 1_555 1_555
H12 C4 1_555 1_555
C5 N1 1_555 1_555
H13 C5 1_555 1_555
H14 C5 1_555 1_555
C6 C5 1_555 1_555
H15 C6 1_555 1_555
H16 C6 1_555 1_555
C7 N4 1_555 1_555
H17 C7 1_555 1_555
C8 N5 1_555 1_555
H18 C8 1_555 1_555
C9 N4 1_555 1_555
H19 C9 1_555 1_555
Cu1C N1 1_555 1_555
N1C Cu1 1_555 1_555
N2C Cu1 1_555 1_555
H1C N2C 1_555 1_555
H2C N2C 1_555 1_555
N3C Cu1 1_555 1_555
H3C N3C 1_555 1_555
H4C N3C 1_555 1_555
N2 Cu1C 1_555 1_555
N3 Cu1C 1_555 1_555
C1 C2 1_555 1_555
C3 C4 1_555 1_555
C8 C9 1_555 1_555

#END
