
#######################################################################
#
#                 Cambridge Crystallographic Data Centre
#                                CCDC 
#
#######################################################################
#
# If this CIF has been generated from an entry in the Cambridge 
# Structural Database, then it will include bibliographic, chemical, 
# crystal, experimental, refinement or atomic coordinate data resulting 
# from the CCDC's data processing and validation procedures.
#
#######################################################################

data_TIZDOW
_symmetry_cell_setting           orthorhombic
_symmetry_space_group_name_H-M   'P b c n'
_symmetry_Int_Tables_number      60
_space_group_name_Hall           '-P 2n 2ab'
loop_
_symmetry_equiv_pos_site_id
_symmetry_equiv_pos_as_xyz
1 x,y,z
2 1/2-x,1/2-y,1/2+z
3 -x,y,1/2-z
4 1/2+x,1/2-y,-z
5 -x,-y,-z
6 1/2+x,1/2+y,1/2-z
7 x,-y,1/2+z
8 1/2-x,1/2+y,z
_cell_length_a                   23.181(6)
_cell_length_b                   8.719(2)
_cell_length_c                   17.346(5)
_cell_angle_alpha                90
_cell_angle_beta                 90
_cell_angle_gamma                90
_cell_volume                     3505.89
loop_
_atom_site_label
_atom_site_type_symbol
_atom_site_fract_x
_atom_site_fract_y
_atom_site_fract_z
Cd1 Cd 0.32069(4) -0.18113(11) 0.08022(5)
Br2 Br 0.21731(8) -0.1408(3) 0.03665(10)
N1 N 0.1311(6) -0.5428(13) 0.5989(7)
H1 H 0.1557 -0.6224 0.5951
H2 H 0.1153 -0.5441 0.6463
N2 N 0.1327(4) -0.3643(11) 0.4532(5)
N3 N 0.1138(5) -0.1270(12) 0.5673(5)
H3 H 0.0824 -0.1491 0.5956
H4 H 0.1290 -0.0392 0.5855
N4 N 0.2466(4) -0.2286(11) 0.3133(5)
N5 N 0.2957(5) -0.2220(14) 0.2034(6)
C1 C 0.1099(6) -0.5210(15) 0.4612(8)
H5 H 0.1409 -0.5931 0.4513
H6 H 0.0806 -0.5369 0.4220
C2 C 0.0971(6) -0.1057(16) 0.4878(8)
H7 H 0.1279 -0.0525 0.4609
H8 H 0.0631 -0.0410 0.4860
C3 C 0.0842(7) -0.5564(18) 0.5382(8)
H9 H 0.0685 -0.6595 0.5382
H10 H 0.0532 -0.4851 0.5494
C4 C 0.0846(6) -0.2514(17) 0.4471(7)
H11 H 0.0774 -0.2297 0.3932
H12 H 0.0499 -0.2964 0.4686
C5 C 0.1701(6) -0.3614(15) 0.3834(6)
H13 H 0.1468 -0.3853 0.3385
H14 H 0.1993 -0.4403 0.3881
C6 C 0.1995(6) -0.2075(14) 0.3709(6)
H15 H 0.1718 -0.1329 0.3521
H16 H 0.2153 -0.1701 0.4191
C7 C 0.2432(7) -0.1898(16) 0.2386(6)
H17 H 0.2111 -0.1482 0.2144
C8 C 0.3002(6) -0.2847(15) 0.3304(7)
H18 H 0.3130 -0.3192 0.3781
C9 C 0.3309(6) -0.2801(16) 0.2639(8)
H19 H 0.3692 -0.3103 0.2587
Cd1A Cd 0.17931(4) -0.31887(11) 0.58022(5)
N1A N 0.3689(6) 0.0428(13) 0.0989(7)
H1A H 0.3443 0.1224 0.0951
H2A H 0.3847 0.0441 0.1463
N2A N 0.3673(4) -0.1357(11) -0.0468(5)
N3A N 0.3862(5) -0.3730(12) 0.0673(5)
H3A H 0.4176 -0.3509 0.0956
H4A H 0.3710 -0.4608 0.0855
Cd2 Cd 0.5000 -0.48891(15) -0.7500
Br1 Br 0.52146(10) -0.3116(2) -0.86300(11)
Br3 Br 0.41591(9) -0.6573(2) -0.78680(11)
Br1B Br 0.47854(10) -0.3116(2) -0.63700(11)
Br3B Br 0.58409(9) -0.6573(2) -0.71320(11)
H20 H 0.4366 -0.0568 -0.7284
H21 H 0.4679 -0.0703 -0.7963
O1 O 0.4411(15) -0.016(5) -0.7701(18)
loop_
_geom_bond_atom_site_label_1
_geom_bond_atom_site_label_2
_geom_bond_site_symmetry_1
_geom_bond_site_symmetry_2
Cd1 Br2 1_555 1_555
Cd2 Br1 1_555 1_555
Br3 Cd2 1_555 1_555
N1 H1 1_555 1_555
H2 N1 1_555 1_555
N2 C1 1_555 1_555
N3 H3 1_555 1_555
H4 N3 1_555 1_555
N4 C6 1_555 1_555
N5 Cd1 1_555 1_555
C1 H5 1_555 1_555
H6 C1 1_555 1_555
C2 N3 1_555 1_555
H7 C2 1_555 1_555
H8 C2 1_555 1_555
C3 N1 1_555 1_555
H9 C3 1_555 1_555
H10 C3 1_555 1_555
C4 N2 1_555 1_555
H11 C4 1_555 1_555
H12 C4 1_555 1_555
C5 N2 1_555 1_555
H13 C5 1_555 1_555
H14 C5 1_555 1_555
C6 C5 1_555 1_555
H15 C6 1_555 1_555
H16 C6 1_555 1_555
C7 N4 1_555 1_555
H17 C7 1_555 1_555
C8 N4 1_555 1_555
H18 C8 1_555 1_555
C9 N5 1_555 1_555
H19 C9 1_555 1_555
H20 O1 1_555 1_555
H21 O1 1_555 1_555
Cd1A N1 1_555 1_555
Br1B Cd2 1_555 1_555
Br3B Cd2 1_555 1_555
N1A Cd1 1_555 1_555
H1A N1A 1_555 1_555
H2A N1A 1_555 1_555
N2A Cd1 1_555 1_555
N3A Cd1 1_555 1_555
H3A N3A 1_555 1_555
H4A N3A 1_555 1_555
N2 Cd1A 1_555 1_555
N3 Cd1A 1_555 1_555
N5 C7 1_555 1_555
C1 C3 1_555 1_555
C2 C4 1_555 1_555
C8 C9 1_555 1_555

#END
