
#######################################################################
#
#                 Cambridge Crystallographic Data Centre
#                                CCDC 
#
#######################################################################
#
# If this CIF has been generated from an entry in the Cambridge 
# Structural Database, then it will include bibliographic, chemical, 
# crystal, experimental, refinement or atomic coordinate data resulting 
# from the CCDC's data processing and validation procedures.
#
#######################################################################

data_TIZDIR
_symmetry_cell_setting           triclinic
_symmetry_space_group_name_H-M   'P -1'
_symmetry_Int_Tables_number      2
_space_group_name_Hall           '-P 1'
loop_
_symmetry_equiv_pos_site_id
_symmetry_equiv_pos_as_xyz
1 x,y,z
2 -x,-y,-z
_cell_length_a                   10.6964(14)
_cell_length_b                   11.8816(15)
_cell_length_c                   12.1775(16)
_cell_angle_alpha                66.305(2)
_cell_angle_beta                 85.781(2)
_cell_angle_gamma                71.152(2)
_cell_volume                     1338.35
loop_
_atom_site_label
_atom_site_type_symbol
_atom_site_fract_x
_atom_site_fract_y
_atom_site_fract_z
C1 C 0.6576(5) 0.3045(5) -0.2562(5)
H1 H 0.5972 0.2766 -0.2809
C2 C 0.7405(5) 0.3836(5) -0.1670(4)
H2 H 0.7544 0.4219 -0.1177
C3 C 0.9642(5) 0.3449(7) -0.2518(5)
H3 H 1.0236 0.2568 -0.2292
H4 H 0.9868 0.3799 -0.1993
C4 C 0.9830(5) 0.4266(6) -0.3816(5)
C5 C 1.0420(6) 0.3680(6) -0.4555(6)
H5 H 1.0714 0.2779 -0.4266
C6 C 0.9407(7) 0.5591(7) -0.4259(6)
H6 H 0.9000 0.6008 -0.3762
C7 C 0.3164(5) 0.2549(5) -0.2181(4)
H7 H 0.3082 0.3191 -0.2953
C8 C 0.3655(4) 0.1500(4) -0.0334(4)
H8 H 0.3966 0.1218 0.0457
C9 C 0.2803(5) -0.0315(4) -0.0023(5)
H9 H 0.3154 -0.0643 0.0799
H10 H 0.3256 -0.0955 -0.0345
C10 C 0.1353(4) -0.0155(4) -0.0020(4)
C11 C 0.0530(5) 0.0476(6) 0.0629(5)
H11 H 0.0881 0.0806 0.1063
C12 C 0.0809(5) -0.0624(6) -0.0642(5)
H12 H 0.1343 -0.1052 -0.1086
C13 C 0.5147(4) 0.2903(4) 0.1591(4)
C14 C 0.5565(4) 0.2109(4) 0.2906(4)
C15 C 0.6285(5) 0.0809(4) 0.3298(4)
H13 H 0.6474 0.0413 0.2756
C16 C 0.6729(4) 0.0086(4) 0.4501(4)
H14 H 0.7248 -0.0781 0.4751
C17 C 0.6406(4) 0.0643(4) 0.5319(4)
C18 C 0.5627(5) 0.1930(5) 0.4937(4)
H15 H 0.5359 0.2303 0.5491
C19 C 0.5245(5) 0.2665(4) 0.3724(4)
H16 H 0.4766 0.3543 0.3465
C20 C 0.6836(5) -0.0123(5) 0.6631(4)
C21 C 0.8112(4) -0.1218(5) 0.6983(4)
C22 C 0.8227(5) -0.2336(4) 0.8014(4)
H17 H 0.7477 -0.2452 0.8420
C23 C 0.9444(5) -0.3274(5) 0.8441(4)
H18 H 0.9507 -0.4007 0.9143
C24 C 1.0565(5) -0.3142(4) 0.7844(4)
C25 C 1.0455(5) -0.2057(5) 0.6805(5)
H19 H 1.1205 -0.1964 0.6389
C26 C 0.9248(5) -0.1102(5) 0.6370(4)
H20 H 0.9192 -0.0377 0.5664
C27 C 1.1902(5) -0.4152(5) 0.8330(5)
Cd1 Cd 0.43728(3) 0.41400(3) -0.08642(3)
N1 N 0.6294(4) 0.3613(4) -0.1780(3)
N2 N 0.7768(5) 0.2913(5) -0.2951(4)
N3 N 0.8279(4) 0.3435(4) -0.2359(4)
N4 N 0.3725(4) 0.2566(4) -0.1226(3)
N5 N 0.2749(4) 0.1558(4) -0.1926(4)
N6 N 0.3080(3) 0.0889(4) -0.0726(3)
O1 O 0.6177(3) 0.0159(3) 0.7393(3)
O2 O 0.5160(4) 0.2325(3) 0.0945(3)
O3 O 0.4766(3) 0.4109(3) 0.1186(3)
O4 O 1.2098(3) -0.4814(4) 0.9437(3)
O5 O 1.2787(3) -0.4269(3) 0.7615(3)
C1A C 1.3424(5) 0.6955(5) -0.7438(5)
H1A H 1.4028 0.7234 -0.7191
C2A C 1.2595(5) 0.6164(5) -0.8330(4)
H2A H 1.2456 0.5781 -0.8823
C3A C 1.0358(5) 0.6551(7) -0.7482(5)
H3A H 0.9764 0.7432 -0.7708
H4A H 1.0132 0.6201 -0.8007
C4A C 1.0170(5) 0.5734(6) -0.6184(5)
C5A C 0.9580(6) 0.6320(6) -0.5445(6)
H5A H 0.9286 0.7221 -0.5734
C6A C 1.0593(7) 0.4409(7) -0.5741(6)
H6A H 1.1000 0.3992 -0.6238
N1A N 1.3706(4) 0.6387(4) -0.8220(3)
N2A N 1.2232(5) 0.7087(5) -0.7049(4)
N3A N 1.1721(4) 0.6565(4) -0.7641(4)
C7A C -0.3164(5) -0.2549(5) 0.2181(4)
H7A H -0.3082 -0.3191 0.2953
C8A C -0.3655(4) -0.1500(4) 0.0334(4)
H8A H -0.3966 -0.1218 -0.0457
C9A C -0.2803(5) 0.0315(4) 0.0023(5)
H9A H -0.3154 0.0643 -0.0799
H10A H -0.3256 0.0955 0.0345
C10A C -0.1353(4) 0.0155(4) 0.0020(4)
C11A C -0.0530(5) -0.0476(6) -0.0629(5)
H11A H -0.0881 -0.0806 -0.1063
C12A C -0.0809(5) 0.0624(6) 0.0642(5)
H12A H -0.1343 0.1052 0.1086
N4A N -0.3725(4) -0.2566(4) 0.1226(3)
N5A N -0.2749(4) -0.1558(4) 0.1926(4)
N6A N -0.3080(3) -0.0889(4) 0.0726(3)
C13A C -0.5147(4) -0.2903(4) -0.1591(4)
C14A C -0.5565(4) -0.2109(4) -0.2906(4)
C15A C -0.6285(5) -0.0809(4) -0.3298(4)
H13A H -0.6474 -0.0413 -0.2756
C16A C -0.6729(4) -0.0086(4) -0.4501(4)
H14A H -0.7248 0.0781 -0.4751
C17A C -0.6406(4) -0.0643(4) -0.5319(4)
C18A C -0.5627(5) -0.1930(5) -0.4937(4)
H15A H -0.5359 -0.2303 -0.5491
C19A C -0.5245(5) -0.2665(4) -0.3724(4)
H16A H -0.4766 -0.3543 -0.3465
C20A C -0.6836(5) 0.0123(5) -0.6631(4)
C21A C -0.8112(4) 0.1218(5) -0.6983(4)
C22A C -0.8227(5) 0.2336(4) -0.8014(4)
H17A H -0.7477 0.2452 -0.8420
C23A C -0.9444(5) 0.3274(5) -0.8441(4)
H18A H -0.9507 0.4007 -0.9143
C24A C -1.0565(5) 0.3142(4) -0.7844(4)
C25A C -1.0455(5) 0.2057(5) -0.6805(5)
H19A H -1.1205 0.1964 -0.6389
C26A C -0.9248(5) 0.1102(5) -0.6370(4)
H20A H -0.9192 0.0377 -0.5664
C27A C -1.1902(5) 0.4152(5) -0.8330(5)
Cd1A Cd -0.43728(3) -0.41400(3) 0.08642(3)
O1A O -0.6177(3) -0.0159(3) -0.7393(3)
O2A O -0.5160(4) -0.2325(3) -0.0945(3)
O3A O -0.4766(3) -0.4109(3) -0.1186(3)
O4A O -1.2098(3) 0.4814(4) -0.9437(3)
O5A O -1.2787(3) 0.4269(3) -0.7615(3)
Cd1_2 Cd -0.56272(3) -0.58600(3) -0.08642(3)
Cd1_3 Cd 1.43728(3) -0.58600(3) 0.91358(3)
Cd1A_2 Cd -1.43728(3) 0.58600(3) -0.91358(3)
Cd1A_3 Cd 0.56272(3) 0.58600(3) 0.08642(3)
Cd1A_4 Cd 1.56272(3) 0.58600(3) -0.91358(3)
N1A_2 N -0.6294(4) -0.3613(4) 0.1780(3)
O3_2 O -0.5234(3) -0.5891(3) 0.1186(3)
O3A_2 O 0.5234(3) 0.5891(3) -0.1186(3)
O4_2 O 0.2098(3) 0.5186(4) -0.0563(3)
O4A_2 O -0.2098(3) -0.5186(4) 0.0563(3)
O5_2 O 0.2787(3) 0.5731(3) -0.2385(3)
O5A_2 O -0.2787(3) -0.5731(3) 0.2385(3)
O6 O 0.3658(7) 0.4983(6) 0.5575(5)
H21 H 0.3516 0.5209 0.6164
H22 H 0.3064 0.5481 0.5009
loop_
_geom_bond_atom_site_label_1
_geom_bond_atom_site_label_2
_geom_bond_site_symmetry_1
_geom_bond_site_symmetry_2
C1 H1 1_555 1_555
C2 H2 1_555 1_555
C3 H3 1_555 1_555
H4 C3 1_555 1_555
C4 C3 1_555 1_555
C5 C4 1_555 1_555
H5 C5 1_555 1_555
C6 C4 1_555 1_555
H6 C6 1_555 1_555
C7 H7 1_555 1_555
C8 H8 1_555 1_555
C9 H9 1_555 1_555
H10 C9 1_555 1_555
C10 C9 1_555 1_555
C11 C10 1_555 1_555
H11 C11 1_555 1_555
C12 C10 1_555 1_555
H12 C12 1_555 1_555
C13 C14 1_555 1_555
C14 C15 1_555 1_555
C15 H13 1_555 1_555
C16 C15 1_555 1_555
H14 C16 1_555 1_555
C17 C16 1_555 1_555
C18 C17 1_555 1_555
H15 C18 1_555 1_555
C19 C14 1_555 1_555
H16 C19 1_555 1_555
C20 C17 1_555 1_555
C21 C20 1_555 1_555
C22 C21 1_555 1_555
H17 C22 1_555 1_555
C23 C22 1_555 1_555
H18 C23 1_555 1_555
C24 C23 1_555 1_555
C25 C24 1_555 1_555
H19 C25 1_555 1_555
C26 C21 1_555 1_555
H20 C26 1_555 1_555
C27 C24 1_555 1_555
Cd1 N1 1_555 1_555
N1 C1 1_555 1_555
N2 C1 1_555 1_555
N3 C2 1_555 1_555
N4 C7 1_555 1_555
N5 C7 1_555 1_555
N6 C8 1_555 1_555
O1 C20 1_555 1_555
O2 C13 1_555 1_555
O3 C13 1_555 1_555
O4 C27 1_555 1_555
O5 C27 1_555 1_555
O6 H21 1_555 1_555
H22 O6 1_555 1_555
C1A H1A 1_555 1_555
C2A H2A 1_555 1_555
C3A H3A 1_555 1_555
H4A C3A 1_555 1_555
C4A C3A 1_555 1_555
C5A C6 1_555 1_555
H5A C5A 1_555 1_555
C6A C5 1_555 1_555
H6A C6A 1_555 1_555
N1A C1A 1_555 1_555
N2A C1A 1_555 1_555
N3A C2A 1_555 1_555
C7A H7A 1_555 1_555
C8A H8A 1_555 1_555
C9A H9A 1_555 1_555
H10A C9A 1_555 1_555
C10A C9A 1_555 1_555
C11A C12 1_555 1_555
H11A C11A 1_555 1_555
C12A C11 1_555 1_555
H12A C12A 1_555 1_555
N4A C7A 1_555 1_555
N5A C7A 1_555 1_555
N6A C8A 1_555 1_555
C13A C14A 1_555 1_555
C14A C15A 1_555 1_555
C15A H13A 1_555 1_555
C16A C15A 1_555 1_555
H14A C16A 1_555 1_555
C17A C16A 1_555 1_555
C18A C17A 1_555 1_555
H15A C18A 1_555 1_555
C19A C14A 1_555 1_555
H16A C19A 1_555 1_555
C20A C17A 1_555 1_555
C21A C20A 1_555 1_555
C22A C21A 1_555 1_555
H17A C22A 1_555 1_555
C23A C22A 1_555 1_555
H18A C23A 1_555 1_555
C24A C23A 1_555 1_555
C25A C24A 1_555 1_555
H19A C25A 1_555 1_555
C26A C21A 1_555 1_555
H20A C26A 1_555 1_555
C27A C24A 1_555 1_555
Cd1A N4A 1_555 1_555
O1A C20A 1_555 1_555
O2A C13A 1_555 1_555
O3A C13A 1_555 1_555
O4A C27A 1_555 1_555
O5A C27A 1_555 1_555
Cd1_2 O3A 1_555 1_555
Cd1_3 O4 1_555 1_555
Cd1A_2 O4A 1_555 1_555
Cd1A_3 O3 1_555 1_555
Cd1A_4 N1A 1_555 1_555
N1A_2 Cd1A 1_555 1_555
O3_2 Cd1A 1_555 1_555
O3A_2 Cd1 1_555 1_555
O4_2 Cd1 1_555 1_555
O4A_2 Cd1A 1_555 1_555
O5_2 Cd1 1_555 1_555
O5A_2 Cd1A 1_555 1_555
C2 N1 1_555 1_555
C3 N3 1_555 1_555
C8 N4 1_555 1_555
C9 N6 1_555 1_555
C18 C19 1_555 1_555
C25 C26 1_555 1_555
Cd1 N4 1_555 1_555
Cd1 O2 1_555 1_555
Cd1 O3 1_555 1_555
N2 N3 1_555 1_555
N5 N6 1_555 1_555
O5 Cd1_3 1_555 1_555
C2A N1A 1_555 1_555
C3A N3A 1_555 1_555
C4A C5A 1_555 1_555
C4A C6A 1_555 1_555
N2A N3A 1_555 1_555
C8A N4A 1_555 1_555
C9A N6A 1_555 1_555
C10A C11A 1_555 1_555
C10A C12A 1_555 1_555
N5A N6A 1_555 1_555
C18A C19A 1_555 1_555
C25A C26A 1_555 1_555
Cd1A O2A 1_555 1_555
Cd1A O3A 1_555 1_555
O5A Cd1A_2 1_555 1_555
Cd1_2 O3_2 1_555 1_555
Cd1A_3 O3A_2 1_555 1_555

#END
