
#######################################################################
#
#                 Cambridge Crystallographic Data Centre
#                                CCDC 
#
#######################################################################
#
# If this CIF has been generated from an entry in the Cambridge 
# Structural Database, then it will include bibliographic, chemical, 
# crystal, experimental, refinement or atomic coordinate data resulting 
# from the CCDC's data processing and validation procedures.
#
#######################################################################

data_TIZFAK
_symmetry_cell_setting           monoclinic
_symmetry_space_group_name_H-M   'P 21/c'
_symmetry_Int_Tables_number      14
_space_group_name_Hall           '-P 2ybc'
loop_
_symmetry_equiv_pos_site_id
_symmetry_equiv_pos_as_xyz
1 x,y,z
2 -x,1/2+y,1/2-z
3 -x,-y,-z
4 x,1/2-y,1/2+z
_cell_length_a                   8.592(3)
_cell_length_b                   13.462(4)
_cell_length_c                   14.795(4)
_cell_angle_alpha                90
_cell_angle_beta                 118.874(14)
_cell_angle_gamma                90
_cell_volume                     1498.53
loop_
_atom_site_label
_atom_site_type_symbol
_atom_site_fract_x
_atom_site_fract_y
_atom_site_fract_z
Cu1 Cu -1.05782(3) 0.275740(16) 0.064280(16)
O1 O -0.8871(2) 0.14150(12) 0.03518(11)
O2 O -0.9649(3) 0.21259(12) -0.11128(14)
O3 O -0.7686(2) 0.09544(11) -0.05745(12)
N1 N -0.3026(2) 0.29285(11) 0.48595(12)
N2 N -0.8734(2) 0.14959(12) -0.04450(13)
N3 N -0.0279(2) 0.30304(12) 0.68689(12)
H1 H -0.0187 0.2606 0.7380
H2 H 0.0748 0.3400 0.7125
N5 N -0.1555(2) 0.12734(12) 0.44587(12)
H3 H -0.0801 0.1236 0.4181
H4 H -0.1632 0.0652 0.4693
N6 N -0.58082(19) 0.40455(11) 0.26617(12)
N7 N -0.8234(2) 0.34207(12) 0.13958(12)
C1 C -0.3434(3) 0.32176(15) 0.56928(16)
H5 H -0.3774 0.2622 0.5950
H6 H -0.4445 0.3688 0.5418
C2 C -0.1821(3) 0.36980(15) 0.65637(15)
H7 H -0.1589 0.4347 0.6337
H8 H -0.2027 0.3813 0.7159
C3 C -0.4225(3) 0.21312(14) 0.41831(17)
H9 H -0.5360 0.2425 0.3658
H10 H -0.4488 0.1655 0.4601
C4 C -0.3330(3) 0.15975(15) 0.36587(16)
H11 H -0.4047 0.1015 0.3274
H12 H -0.3219 0.2048 0.3164
C5 C -0.2895(2) 0.38030(13) 0.42772(14)
H13 H -0.2521 0.3557 0.3781
H14 H -0.1933 0.4238 0.4774
C6 C -0.4550(2) 0.44421(13) 0.36821(14)
H15 H -0.5167 0.4508 0.4097
H16 H -0.4177 0.5115 0.3594
C7 C -0.7491(2) 0.37646(13) 0.23483(14)
H17 H -0.8068 0.3808 0.2756
C8 C -0.6964(3) 0.34896(15) 0.10824(15)
H18 H -0.7121 0.3295 0.0426
C9 C -0.5457(3) 0.38785(15) 0.18593(15)
H19 H -0.4377 0.4010 0.1852
Cu1C Cu -0.05782(3) 0.224260(16) 0.564280(16)
N1C N -1.3026(2) 0.20715(11) -0.01405(12)
N3C N -1.0279(2) 0.19696(12) 0.18689(12)
H1C H -1.0187 0.2394 0.2380
H2C H -0.9252 0.1600 0.2125
N5C N -1.1555(2) 0.37266(12) -0.05413(12)
H3C H -1.0801 0.3764 -0.0819
H4C H -1.1632 0.4348 -0.0307
O4 O -0.2035(2) 0.10066(11) 0.64469(14)
O5 O -0.2324(3) -0.03666(14) 0.71033(18)
O6 O -0.1143(3) -0.03605(13) 0.61032(15)
N4 N -0.1839(2) 0.00838(13) 0.65459(14)
loop_
_geom_bond_atom_site_label_1
_geom_bond_atom_site_label_2
_geom_bond_site_symmetry_1
_geom_bond_site_symmetry_2
Cu1 O1 1_555 1_555
O1 N2 1_555 1_555
O2 N2 1_555 1_555
O3 N2 1_555 1_555
O4 N4 1_555 1_555
O5 N4 1_555 1_555
O6 N4 1_555 1_555
N1 C1 1_555 1_555
N3 H1 1_555 1_555
H2 N3 1_555 1_555
N5 H3 1_555 1_555
H4 N5 1_555 1_555
N6 C6 1_555 1_555
N7 Cu1 1_555 1_555
C1 H5 1_555 1_555
H6 C1 1_555 1_555
C2 N3 1_555 1_555
H7 C2 1_555 1_555
H8 C2 1_555 1_555
C3 N1 1_555 1_555
H9 C3 1_555 1_555
H10 C3 1_555 1_555
C4 N5 1_555 1_555
H11 C4 1_555 1_555
H12 C4 1_555 1_555
C5 N1 1_555 1_555
H13 C5 1_555 1_555
H14 C5 1_555 1_555
C6 C5 1_555 1_555
H15 C6 1_555 1_555
H16 C6 1_555 1_555
C7 N6 1_555 1_555
H17 C7 1_555 1_555
C8 N7 1_555 1_555
H18 C8 1_555 1_555
C9 N6 1_555 1_555
H19 C9 1_555 1_555
Cu1C N1 1_555 1_555
N1C Cu1 1_555 1_555
N3C Cu1 1_555 1_555
H1C N3C 1_555 1_555
H2C N3C 1_555 1_555
N5C Cu1 1_555 1_555
H3C N5C 1_555 1_555
H4C N5C 1_555 1_555
N3 Cu1C 1_555 1_555
N5 Cu1C 1_555 1_555
N7 C7 1_555 1_555
C1 C2 1_555 1_555
C3 C4 1_555 1_555
C8 C9 1_555 1_555

#END
