
#######################################################################
#
#                 Cambridge Crystallographic Data Centre
#                                CCDC 
#
#######################################################################
#
# If this CIF has been generated from an entry in the Cambridge 
# Structural Database, then it will include bibliographic, chemical, 
# crystal, experimental, refinement or atomic coordinate data resulting 
# from the CCDC's data processing and validation procedures.
#
#######################################################################

data_TIZGEQ
_symmetry_cell_setting           triclinic
_symmetry_space_group_name_H-M   'P -1'
_symmetry_Int_Tables_number      2
_space_group_name_Hall           '-P 1'
loop_
_symmetry_equiv_pos_site_id
_symmetry_equiv_pos_as_xyz
1 x,y,z
2 -x,-y,-z
_cell_length_a                   8.4192(9)
_cell_length_b                   10.3543(11)
_cell_length_c                   10.7432(11)
_cell_angle_alpha                75.194(9)
_cell_angle_beta                 77.337(9)
_cell_angle_gamma                87.947(9)
_cell_volume                     883.215
loop_
_atom_site_label
_atom_site_type_symbol
_atom_site_fract_x
_atom_site_fract_y
_atom_site_fract_z
C1 C 1.0147(3) 0.4511(2) 0.2273(2)
H1 H 0.9380 0.5087 0.1793
C2 C 1.0875(3) 0.5334(2) 0.3005(2)
H2 H 1.1588 0.4767 0.3532
H3 H 0.9991 0.5659 0.3617
C3 C 1.1859(3) 0.6520(2) 0.2038(2)
H4 H 1.2345 0.7031 0.2530
H5 H 1.1130 0.7119 0.1554
C4 C 1.3205(3) 0.6052(2) 0.1061(2)
H6 H 1.3807 0.6838 0.0424
H7 H 1.3982 0.5511 0.1539
C5 C 1.2506(3) 0.5227(2) 0.0325(2)
H8 H 1.3408 0.4884 -0.0258
H9 H 1.1837 0.5803 -0.0239
C6 C 1.1461(3) 0.4055(2) 0.1259(2)
H10 H 1.2163 0.3405 0.1722
H11 H 1.0939 0.3599 0.0742
C7 C 0.7326(3) 0.3683(2) 0.4301(2)
H12 H 0.6957 0.3025 0.5160
H13 H 0.7693 0.4503 0.4478
C8 C 0.5906(3) 0.4012(2) 0.3627(2)
H14 H 0.6284 0.4662 0.2764
H15 H 0.5060 0.4448 0.4170
C9 C 0.5147(3) 0.2806(2) 0.3405(2)
H16 H 0.4314 0.3120 0.2878
H17 H 0.6001 0.2362 0.2878
C10 C 0.4359(3) 0.1787(2) 0.4653(2)
H18 H 0.5101 0.1603 0.5274
H19 H 0.4156 0.0941 0.4440
C11 C 0.2187(3) 0.1523(2) 0.7158(2)
H20 H 0.1028 0.1637 0.7585
C12 C 0.3219(3) 0.2114(2) 0.7862(2)
H21 H 0.2988 0.3077 0.7751
H22 H 0.4384 0.2030 0.7468
C13 C 0.2872(3) 0.1404(2) 0.9332(2)
H23 H 0.3631 0.1755 0.9759
H24 H 0.1749 0.1594 0.9749
C14 C 0.3064(3) -0.0089(2) 0.9548(2)
H25 H 0.2749 -0.0524 1.0504
H26 H 0.4221 -0.0284 0.9235
C15 C 0.2023(3) -0.0666(2) 0.8824(2)
H27 H 0.0857 -0.0550 0.9194
H28 H 0.2218 -0.1635 0.8949
C16 C 0.2430(3) 0.0032(2) 0.7356(2)
H29 H 0.3574 -0.0137 0.6971
H30 H 0.1718 -0.0330 0.6899
Cu1 Cu 1.04542(4) 0.15621(3) 0.46813(3)
Br1 Br 0.82903(3) 0.02267(2) 0.64528(2)
S1 S 0.90342(8) 0.30074(6) 0.33246(6)
S2 S 0.24426(8) 0.24103(6) 0.54243(6)
Cu1_2 Cu 0.04542(4) 0.15621(3) 0.46813(3)
Cu1A Cu 0.95458(4) -0.15621(3) 0.53187(3)
Br1A Br 1.17097(3) -0.02267(2) 0.35472(2)
S2_2 S 1.24426(8) 0.24103(6) 0.54243(6)
loop_
_geom_bond_atom_site_label_1
_geom_bond_atom_site_label_2
_geom_bond_site_symmetry_1
_geom_bond_site_symmetry_2
C1 H1 1_555 1_555
C2 C1 1_555 1_555
H2 C2 1_555 1_555
H3 C2 1_555 1_555
C3 C2 1_555 1_555
H4 C3 1_555 1_555
H5 C3 1_555 1_555
C4 C3 1_555 1_555
H6 C4 1_555 1_555
H7 C4 1_555 1_555
C5 C4 1_555 1_555
H8 C5 1_555 1_555
H9 C5 1_555 1_555
C6 C1 1_555 1_555
H10 C6 1_555 1_555
H11 C6 1_555 1_555
C7 H12 1_555 1_555
H13 C7 1_555 1_555
C8 C7 1_555 1_555
H14 C8 1_555 1_555
H15 C8 1_555 1_555
C9 C8 1_555 1_555
H16 C9 1_555 1_555
H17 C9 1_555 1_555
C10 C9 1_555 1_555
H18 C10 1_555 1_555
H19 C10 1_555 1_555
C11 H20 1_555 1_555
C12 C11 1_555 1_555
H21 C12 1_555 1_555
H22 C12 1_555 1_555
C13 C12 1_555 1_555
H23 C13 1_555 1_555
H24 C13 1_555 1_555
C14 C13 1_555 1_555
H25 C14 1_555 1_555
H26 C14 1_555 1_555
C15 C14 1_555 1_555
H27 C15 1_555 1_555
H28 C15 1_555 1_555
C16 C11 1_555 1_555
H29 C16 1_555 1_555
H30 C16 1_555 1_555
Cu1 Br1 1_555 1_555
Br1 Cu1A 1_555 1_555
S1 C1 1_555 1_555
S2 C10 1_555 1_555
Cu1_2 S2 1_555 1_555
Cu1A Br1A 1_555 1_555
Br1A Cu1 1_555 1_555
S2_2 Cu1 1_555 1_555
C5 C6 1_555 1_555
C7 S1 1_555 1_555
C11 S2 1_555 1_555
C15 C16 1_555 1_555
Cu1 S1 1_555 1_555

#END
