
#######################################################################
#
#                 Cambridge Crystallographic Data Centre
#                                CCDC 
#
#######################################################################
#
# If this CIF has been generated from an entry in the Cambridge 
# Structural Database, then it will include bibliographic, chemical, 
# crystal, experimental, refinement or atomic coordinate data resulting 
# from the CCDC's data processing and validation procedures.
#
#######################################################################

data_TIZGAM
_symmetry_cell_setting           triclinic
_symmetry_space_group_name_H-M   'P -1'
_symmetry_Int_Tables_number      2
_space_group_name_Hall           '-P 1'
loop_
_symmetry_equiv_pos_site_id
_symmetry_equiv_pos_as_xyz
1 x,y,z
2 -x,-y,-z
_cell_length_a                   8.4382(12)
_cell_length_b                   10.4077(15)
_cell_length_c                   11.0484(16)
_cell_angle_alpha                74.799(2)
_cell_angle_beta                 77.137(2)
_cell_angle_gamma                87.550(2)
_cell_volume                     912.723
loop_
_atom_site_label
_atom_site_type_symbol
_atom_site_fract_x
_atom_site_fract_y
_atom_site_fract_z
C1 C 0.5147(4) 0.4482(3) 0.7302(3)
H1 H 0.4375 0.5068 0.6846
C2 C 0.6413(5) 0.3995(4) 0.6302(4)
H2 H 0.7131 0.3350 0.6743
H3 H 0.5856 0.3531 0.5834
C3 C 0.7439(5) 0.5151(4) 0.5344(4)
H4 H 0.8301 0.4796 0.4756
H5 H 0.6743 0.5730 0.4821
C4 C 0.8214(5) 0.5971(4) 0.6007(4)
H6 H 0.8805 0.6742 0.5359
H7 H 0.9009 0.5423 0.6449
C5 C 0.6935(5) 0.6465(4) 0.6983(4)
H8 H 0.6196 0.7075 0.6532
H9 H 0.7474 0.6969 0.7429
C6 C 0.5946(5) 0.5303(3) 0.7974(4)
H10 H 0.5099 0.5650 0.8578
H11 H 0.6669 0.4729 0.8474
C7 C 0.2319(4) 0.3755(3) 0.9296(3)
H12 H 0.1952 0.3141 1.0159
H13 H 0.2695 0.4595 0.9412
C8 C 0.0886(4) 0.4048(3) 0.8635(3)
H14 H 0.0035 0.4495 0.9146
H15 H 0.1256 0.4673 0.7778
C9 C 0.0139(4) 0.2812(3) 0.8468(3)
H16 H -0.0698 0.3097 0.7955
H17 H 0.0997 0.2356 0.7972
C10 C -0.0637(4) 0.1816(3) 0.9725(4)
H18 H 0.0108 0.1672 1.0324
H19 H -0.0811 0.0952 0.9553
C11 C -0.2830(4) 0.1512(3) 1.2160(3)
H20 H -0.3995 0.1600 1.2578
C12 C -0.2514(5) 0.0028(3) 1.2354(3)
H21 H -0.1359 -0.0110 1.1983
H22 H -0.3193 -0.0353 1.1905
C13 C -0.2916(5) -0.0677(4) 1.3784(4)
H23 H -0.2699 -0.1639 1.3904
H24 H -0.4085 -0.0575 1.4143
C14 C -0.1896(6) -0.0095(4) 1.4497(4)
H25 H -0.2207 -0.0536 1.5427
H26 H -0.0733 -0.0270 1.4190
C15 C -0.2139(6) 0.1401(4) 1.4284(4)
H27 H -0.1397 0.1762 1.4698
H28 H -0.3268 0.1568 1.4696
C16 C -0.1810(5) 0.2127(4) 1.2848(4)
H29 H -0.2076 0.3080 1.2746
H30 H -0.0642 0.2068 1.2457
Cu1 Cu 0.54500(5) 0.15633(4) 0.97251(4)
I1 I 0.31564(3) 0.01839(2) 1.15832(2)
S1 S 0.40132(10) 0.30173(8) 0.83875(8)
S2 S -0.25753(10) 0.24135(8) 1.04695(9)
Cu1_2 Cu -0.45500(5) 0.15633(4) 0.97251(4)
Cu1A Cu 0.45500(5) -0.15633(4) 1.02749(4)
I1A I 0.68436(3) -0.01839(2) 0.84168(2)
S2_2 S 0.74247(10) 0.24135(8) 1.04695(9)
loop_
_geom_bond_atom_site_label_1
_geom_bond_atom_site_label_2
_geom_bond_site_symmetry_1
_geom_bond_site_symmetry_2
C1 H1 1_555 1_555
C2 C1 1_555 1_555
H2 C2 1_555 1_555
H3 C2 1_555 1_555
C3 C2 1_555 1_555
H4 C3 1_555 1_555
H5 C3 1_555 1_555
C4 C3 1_555 1_555
H6 C4 1_555 1_555
H7 C4 1_555 1_555
C5 C4 1_555 1_555
H8 C5 1_555 1_555
H9 C5 1_555 1_555
C6 C1 1_555 1_555
H10 C6 1_555 1_555
H11 C6 1_555 1_555
C7 H12 1_555 1_555
H13 C7 1_555 1_555
C8 C7 1_555 1_555
H14 C8 1_555 1_555
H15 C8 1_555 1_555
C9 C8 1_555 1_555
H16 C9 1_555 1_555
H17 C9 1_555 1_555
C10 C9 1_555 1_555
H18 C10 1_555 1_555
H19 C10 1_555 1_555
C11 H20 1_555 1_555
C12 C11 1_555 1_555
H21 C12 1_555 1_555
H22 C12 1_555 1_555
C13 C12 1_555 1_555
H23 C13 1_555 1_555
H24 C13 1_555 1_555
C14 C13 1_555 1_555
H25 C14 1_555 1_555
H26 C14 1_555 1_555
C15 C14 1_555 1_555
H27 C15 1_555 1_555
H28 C15 1_555 1_555
C16 C11 1_555 1_555
H29 C16 1_555 1_555
H30 C16 1_555 1_555
Cu1 I1 1_555 1_555
I1 Cu1A 1_555 1_555
S1 C1 1_555 1_555
S2 C10 1_555 1_555
Cu1_2 S2 1_555 1_555
Cu1A I1A 1_555 1_555
I1A Cu1 1_555 1_555
S2_2 Cu1 1_555 1_555
C5 C6 1_555 1_555
C7 S1 1_555 1_555
C11 S2 1_555 1_555
C15 C16 1_555 1_555
Cu1 S1 1_555 1_555

#END
