
#######################################################################
#
#                 Cambridge Crystallographic Data Centre
#                                CCDC 
#
#######################################################################
#
# If this CIF has been generated from an entry in the Cambridge 
# Structural Database, then it will include bibliographic, chemical, 
# crystal, experimental, refinement or atomic coordinate data resulting 
# from the CCDC's data processing and validation procedures.
#
#######################################################################

data_TIZGUG
_symmetry_cell_setting           triclinic
_symmetry_space_group_name_H-M   'P -1'
_symmetry_Int_Tables_number      2
_space_group_name_Hall           '-P 1'
loop_
_symmetry_equiv_pos_site_id
_symmetry_equiv_pos_as_xyz
1 x,y,z
2 -x,-y,-z
_cell_length_a                   12.9206(2)
_cell_length_b                   14.3802(5)
_cell_length_c                   18.8502(6)
_cell_angle_alpha                81.248(3)
_cell_angle_beta                 81.038(2)
_cell_angle_gamma                84.245(2)
_cell_volume                     3408.81
loop_
_atom_site_label
_atom_site_type_symbol
_atom_site_fract_x
_atom_site_fract_y
_atom_site_fract_z
C1 C 1.0509(13) 0.5098(13) 0.4745(10)
C2 C 0.6744(16) 0.3338(13) 0.5721(12)
H1 H 0.6009 0.3311 0.5925
H2 H 0.7014 0.2718 0.5603
C3 C 0.6854(18) 0.4043(15) 0.5058(11)
H3 H 0.6352 0.3949 0.4747
H4 H 0.7555 0.3963 0.4792
C4 C 0.707(3) 0.664(2) 0.6928(17)
H5 H 0.6524 0.7013 0.7198
H6 H 0.7629 0.7039 0.6716
C5 C 0.748(3) 0.5855(18) 0.7425(15)
H7 H 0.8024 0.6072 0.7646
H8 H 0.6918 0.5665 0.7809
C6 C 0.593(3) 0.922(3) 0.6235(18)
H9 H 0.5715 0.9314 0.6738
H10 H 0.6355 0.8625 0.6237
C7 C 0.658(3) 0.993(3) 0.5914(19)
H11 H 0.7263 0.9644 0.5731
H12 H 0.6683 1.0308 0.6279
Ce1 Ce 0.91304(8) 0.71644(7) 0.44958(6)
Cu1 Cu 0.7224(2) 0.50097(17) 0.61987(13)
Cu2 Cu 0.5000 1.0000 0.5000
Ge1 Ge 0.76397(12) 0.76497(11) 0.25790(9)
N1 N 0.6660(12) 0.5018(11) 0.5265(9)
H13 H 0.6983 0.5433 0.4914
H14 H 0.5966 0.5191 0.5322
N2 N 0.7339(12) 0.3615(11) 0.6253(8)
H15 H 0.7081 0.3354 0.6702
H16 H 0.8019 0.3402 0.6160
N3 N 0.6645(14) 0.6313(13) 0.6362(9)
H17 H 0.6789 0.6711 0.5948
H18 H 0.5942 0.6321 0.6476
N4 N 0.7912(17) 0.5035(14) 0.7073(12)
H19 H 0.7802 0.4503 0.7386
H20 H 0.8609 0.5062 0.6942
N5 N 0.6171(14) 1.0540(14) 0.5330(10)
H21 H 0.5939 1.1108 0.5464
H22 H 0.6690 1.0631 0.4954
N6 N 0.5006(14) 0.9128(14) 0.5932(10)
H23 H 0.4995 0.8530 0.5848
H24 H 0.4430 0.9266 0.6244
O1 O 0.7243(9) 0.7207(9) 0.4863(6)
O2 O 0.8580(9) 0.8849(8) 0.4250(7)
O3 O 0.8698(9) 0.6003(9) 0.3833(7)
O4 O 1.0013(9) 0.7521(9) 0.3255(7)
O5 O 0.5128(9) 0.7549(10) 0.4992(7)
O6 O 0.6448(9) 0.8945(9) 0.4278(7)
O7 O 0.6247(9) 0.6466(8) 0.3933(6)
O8 O 0.7582(9) 0.6428(8) 0.2592(7)
O9 O 0.7550(11) 1.0563(9) 0.3862(7)
O10 O 0.6667(9) 0.9775(9) 0.2895(6)
O11 O 0.5329(9) 0.8100(8) 0.3508(6)
O12 O 0.8723(9) 0.9523(9) 0.2782(7)
O13 O 0.3528(9) 0.8077(9) 0.2839(7)
O14 O 0.4982(8) 0.9385(8) 0.2329(6)
O15 O 0.5304(9) 0.6732(8) 0.2772(6)
O16 O 0.6607(8) 0.8232(8) 0.2156(6)
O17 O 0.7820(9) 0.9809(8) 0.1635(6)
O18 O 0.5977(11) 1.1041(9) 0.1736(8)
O19 O 0.5009(9) 0.7947(9) 0.1593(7)
O20 O 0.6189(9) 0.9407(9) 0.1057(7)
O21 O 0.5972(10) 0.8088(11) 0.0147(7)
O22 O 0.7803(8) 0.8174(9) 0.0743(6)
O23 O 0.6676(9) 0.6761(8) 0.1269(6)
O24 O 0.9734(9) 0.7642(9) -0.0087(6)
O25 O 0.9497(9) 0.9023(9) 0.0863(6)
O26 O 0.8797(8) 0.7944(8) 0.2031(6)
O27 O 0.7605(11) 0.5002(10) 0.0903(8)
O28 O 0.8685(10) 0.6503(8) 0.1115(7)
O29 O 1.0435(9) 0.7294(9) 0.1262(7)
O30 O 0.8557(9) 0.4965(8) 0.2135(7)
O31 O 0.6458(9) 0.5246(8) 0.2264(7)
O32 O 0.9596(11) 0.4334(9) 0.3372(8)
O33 O 0.9826(9) 0.6158(9) 0.2495(7)
O34 O 0.7395(8) 0.4893(8) 0.3434(6)
O35 O 1.1739(9) 0.7016(10) 0.2312(7)
O36 O 1.0482(8) 0.8711(8) 0.2035(6)
O37 O 0.9791(10) 1.0556(9) 0.1538(7)
O38 O 0.5231(10) 0.4923(9) 0.3633(8)
O39 O 0.7552(8) 0.7960(8) 0.3437(6)
O40 O 1.0635(10) 0.5935(10) 0.4470(8)
O41 O 1.1155(10) 0.4401(10) 0.4625(7)
O42 O 0.9257(18) 0.744(2) 0.5792(10)
O43 O 1.0802(11) 0.7906(12) 0.4614(10)
W1 W 0.62184(5) 0.76308(5) 0.43276(4)
W2 W 0.76983(6) 0.94137(5) 0.36566(4)
W3 W 0.48886(5) 0.80512(5) 0.26422(4)
W4 W 0.63525(5) 0.98557(5) 0.19711(4)
W5 W 0.63242(5) 0.80624(5) 0.09931(4)
W6 W 0.92531(5) 0.77122(5) 0.08103(4)
W7 W 0.76239(6) 0.56918(5) 0.15671(4)
W8 W 0.88105(6) 0.53505(5) 0.30897(4)
W9 W 1.04136(5) 0.73444(5) 0.23524(4)
W10 W 0.61722(5) 0.56808(5) 0.31986(4)
W11 W 0.92603(5) 0.94793(5) 0.17821(4)
C1A C 0.9491(13) 0.4902(13) 0.5255(10)
O40A O 0.9365(10) 0.4065(10) 0.5530(8)
O41A O 0.8845(10) 0.5599(10) 0.5375(7)
C6A C 0.407(3) 1.078(3) 0.3765(18)
H9A H 0.4285 1.0686 0.3262
H10A H 0.3645 1.1375 0.3763
C7A C 0.342(3) 1.007(3) 0.4086(19)
H11A H 0.2737 1.0356 0.4269
H12A H 0.3317 0.9692 0.3721
Ce1A Ce 0.08696(8) 1.28356(7) 0.55042(6)
Ge1A Ge 0.23603(12) 1.23503(11) 0.74210(9)
N5A N 0.3829(14) 0.9460(14) 0.4670(10)
H21A H 0.4061 0.8892 0.4536
H22A H 0.3310 0.9369 0.5046
N6A N 0.4994(14) 1.0872(14) 0.4068(10)
H23A H 0.5005 1.1470 0.4152
H24A H 0.5570 1.0734 0.3756
O1A O 0.2757(9) 1.2793(9) 0.5137(6)
O2A O 0.1420(9) 1.1151(8) 0.5750(7)
O3A O 0.1302(9) 1.3997(9) 0.6167(7)
O4A O -0.0013(9) 1.2479(9) 0.6745(7)
O5A O 0.4872(9) 1.2451(10) 0.5008(7)
O6A O 0.3552(9) 1.1055(9) 0.5722(7)
O7A O 0.3753(9) 1.3534(8) 0.6067(6)
O8A O 0.2418(9) 1.3572(8) 0.7408(7)
O9A O 0.2450(11) 0.9437(9) 0.6138(7)
O10A O 0.3333(9) 1.0225(9) 0.7105(6)
O11A O 0.4671(9) 1.1900(8) 0.6492(6)
O12A O 0.1277(9) 1.0477(9) 0.7218(7)
O13A O 0.6472(9) 1.1923(9) 0.7161(7)
O14A O 0.5018(8) 1.0615(8) 0.7671(6)
O15A O 0.4696(9) 1.3268(8) 0.7228(6)
O16A O 0.3393(8) 1.1768(8) 0.7844(6)
O17A O 0.2180(9) 1.0191(8) 0.8365(6)
O18A O 0.4023(11) 0.8959(9) 0.8264(8)
O19A O 0.4991(9) 1.2053(9) 0.8407(7)
O20A O 0.3811(9) 1.0593(9) 0.8943(7)
O21A O 0.4028(10) 1.1912(11) 0.9853(7)
O22A O 0.2197(8) 1.1826(9) 0.9257(6)
O23A O 0.3324(9) 1.3239(8) 0.8731(6)
O24A O 0.0266(9) 1.2358(9) 1.0087(6)
O25A O 0.0503(9) 1.0977(9) 0.9137(6)
O26A O 0.1203(8) 1.2056(8) 0.7969(6)
O27A O 0.2395(11) 1.4998(10) 0.9097(8)
O28A O 0.1315(10) 1.3497(8) 0.8885(7)
O29A O -0.0435(9) 1.2706(9) 0.8738(7)
O30A O 0.1443(9) 1.5035(8) 0.7865(7)
O31A O 0.3542(9) 1.4754(8) 0.7736(7)
O32A O 0.0404(11) 1.5666(9) 0.6628(8)
O33A O 0.0174(9) 1.3842(9) 0.7505(7)
O34A O 0.2605(8) 1.5107(8) 0.6566(6)
O35A O -0.1739(9) 1.2984(10) 0.7688(7)
O36A O -0.0482(8) 1.1289(8) 0.7965(6)
O37A O 0.0209(10) 0.9444(9) 0.8462(7)
O38A O 0.4769(10) 1.5077(9) 0.6367(8)
O39A O 0.2448(8) 1.2040(8) 0.6563(6)
O42A O 0.0743(18) 1.256(2) 0.4208(10)
O43A O -0.0802(11) 1.2094(12) 0.5386(10)
W1A W 0.37816(5) 1.23692(5) 0.56724(4)
W2A W 0.23017(6) 1.05863(5) 0.63434(4)
W3A W 0.51114(5) 1.19488(5) 0.73578(4)
W4A W 0.36475(5) 1.01443(5) 0.80289(4)
W5A W 0.36758(5) 1.19376(5) 0.90069(4)
W6A W 0.07469(5) 1.22878(5) 0.91897(4)
W7A W 0.23761(6) 1.43082(5) 0.84329(4)
W8A W 0.11895(6) 1.46495(5) 0.69103(4)
W9A W -0.04136(5) 1.26556(5) 0.76476(4)
W10A W 0.38278(5) 1.43192(5) 0.68014(4)
W11A W 0.07397(5) 1.05207(5) 0.82179(4)
C2A C 1.3256(16) 0.6662(13) 0.4279(12)
H1A H 1.3991 0.6689 0.4075
H2A H 1.2986 0.7282 0.4397
C3A C 1.3146(18) 0.5957(15) 0.4942(11)
H3A H 1.3648 0.6051 0.5253
H4A H 1.2445 0.6037 0.5208
C4A C 1.293(3) 0.336(2) 0.3072(17)
H5A H 1.3476 0.2987 0.2802
H6A H 1.2371 0.2961 0.3284
C5A C 1.252(3) 0.4145(18) 0.2575(15)
H7A H 1.1976 0.3928 0.2354
H8A H 1.3082 0.4335 0.2191
Cu1A Cu 1.2776(2) 0.49903(17) 0.38013(13)
N1A N 1.3340(12) 0.4982(11) 0.4735(9)
H13A H 1.3017 0.4567 0.5086
H14A H 1.4034 0.4809 0.4678
N2A N 1.2661(12) 0.6385(11) 0.3747(8)
H15A H 1.2919 0.6646 0.3298
H16A H 1.1981 0.6598 0.3840
N3A N 1.3355(14) 0.3687(13) 0.3638(9)
H17A H 1.3211 0.3289 0.4052
H18A H 1.4058 0.3679 0.3524
N4A N 1.2088(17) 0.4965(14) 0.2927(12)
H19A H 1.2198 0.5497 0.2614
H20A H 1.1391 0.4938 0.3058
Ce1A_2 Ce 1.08696(8) 0.28356(7) 0.55042(6)
O40A_2 O -0.0635(10) 1.4065(10) 0.5530(8)
O41_2 O 0.1155(10) 1.4401(10) 0.4625(7)
K1 K 0.8172(5) 1.1994(5) 0.3568(4)
K2 K 0.9073(5) 0.3828(4) 0.0528(3)
O44 O 0.862(3) 0.445(4) -0.074(4)
O45 O 1.0000 0.5000 0.0000
O46 O 0.821(3) 1.211(2) 0.436(4)
O47 O 0.668(3) 1.281(3) 0.350(3)
C8 C 0.213(3) 1.160(2) 0.1688(19)
H25 H 0.2728 1.1983 0.1572
H26 H 0.1523 1.2003 0.1850
C9 C 0.231(4) 1.095(3) 0.222(3)
H27 H 0.1680 1.0955 0.2579
H28 H 0.2863 1.1152 0.2444
C10 C 0.303(2) 0.829(2) 0.0407(17)
H29 H 0.3705 0.8485 0.0153
H30 H 0.3035 0.7612 0.0425
C11 C 0.217(2) 0.877(2) 0.0017(14)
H31 H 0.2354 0.8728 -0.0497
H32 H 0.1533 0.8461 0.0194
Cu3 Cu 0.24128(19) 0.9877(2) 0.11039(14)
N7 N 0.1957(14) 1.1277(14) 0.1027(10)
H33 H 0.2340 1.1593 0.0642
H34 H 0.1275 1.1377 0.0970
N8 N 0.2591(16) 0.9994(16) 0.2112(10)
H35 H 0.2164 0.9617 0.2426
H36 H 0.3259 0.9818 0.2185
N9 N 0.2874(14) 0.8538(15) 0.1156(11)
H37 H 0.3479 0.8418 0.1345
H38 H 0.2385 0.8191 0.1439
N10 N 0.2004(16) 0.9771(15) 0.0127(12)
H39 H 0.1326 0.9979 0.0113
H40 H 0.2405 1.0121 -0.0227
O48 O 0.4163(11) 1.0200(12) 0.0738(9)
O49 O 0.0933(15) 0.9447(15) 0.3444(11)
O50 O 0.413(3) 0.595(2) 0.170(2)
loop_
_geom_bond_atom_site_label_1
_geom_bond_atom_site_label_2
_geom_bond_site_symmetry_1
_geom_bond_site_symmetry_2
C1 O40 1_555 1_555
C2 H1 1_555 1_555
H2 C2 1_555 1_555
C3 C2 1_555 1_555
H3 C3 1_555 1_555
H4 C3 1_555 1_555
C4 H5 1_555 1_555
H6 C4 1_555 1_555
C5 C4 1_555 1_555
H7 C5 1_555 1_555
H8 C5 1_555 1_555
C6 H9 1_555 1_555
H10 C6 1_555 1_555
C7 C6 1_555 1_555
H11 C7 1_555 1_555
H12 C7 1_555 1_555
Ce1 O1 1_555 1_555
Cu1 N1 1_555 1_555
Cu2 N5 1_555 1_555
Ge1 O8 1_555 1_555
N1 C3 1_555 1_555
H13 N1 1_555 1_555
H14 N1 1_555 1_555
N2 C2 1_555 1_555
H15 N2 1_555 1_555
H16 N2 1_555 1_555
N3 C4 1_555 1_555
H17 N3 1_555 1_555
H18 N3 1_555 1_555
N4 C5 1_555 1_555
H19 N4 1_555 1_555
H20 N4 1_555 1_555
N5 C7 1_555 1_555
H21 N5 1_555 1_555
H22 N5 1_555 1_555
N6 C6 1_555 1_555
H23 N6 1_555 1_555
H24 N6 1_555 1_555
O1 W1 1_555 1_555
O2 Ce1 1_555 1_555
O3 Ce1 1_555 1_555
O4 Ce1 1_555 1_555
O5 W1 1_555 1_555
O6 Cu2 1_555 1_555
O7 W1 1_555 1_555
O8 W7 1_555 1_555
O9 W2 1_555 1_555
O10 W2 1_555 1_555
O11 W1 1_555 1_555
O12 W2 1_555 1_555
O13 W3 1_555 1_555
O14 W3 1_555 1_555
O15 W3 1_555 1_555
O16 Ge1 1_555 1_555
O17 W4 1_555 1_555
O18 W4 1_555 1_555
O19 W3 1_555 1_555
O20 W4 1_555 1_555
O21 W5 1_555 1_555
O22 W5 1_555 1_555
O23 W5 1_555 1_555
O24 W6 1_555 1_555
O25 W6 1_555 1_555
O26 Ge1 1_555 1_555
O27 W7 1_555 1_555
O28 W6 1_555 1_555
O29 W6 1_555 1_555
O30 W7 1_555 1_555
O31 W7 1_555 1_555
O32 W8 1_555 1_555
O33 W8 1_555 1_555
O34 W8 1_555 1_555
O35 W9 1_555 1_555
O36 W9 1_555 1_555
O37 W11 1_555 1_555
O38 W10 1_555 1_555
O39 Ge1 1_555 1_555
O40 Ce1 1_555 1_555
O41 C1 1_555 1_555
O42 Ce1 1_555 1_555
O43 Ce1 1_555 1_555
W1 O6 1_555 1_555
W2 O2 1_555 1_555
W3 O11 1_555 1_555
W4 O10 1_555 1_555
W5 O16 1_555 1_555
W6 O22 1_555 1_555
W7 O23 1_555 1_555
W8 O3 1_555 1_555
W9 O4 1_555 1_555
W10 O7 1_555 1_555
W11 O12 1_555 1_555
C8 H25 1_555 1_555
H26 C8 1_555 1_555
C9 C8 1_555 1_555
H27 C9 1_555 1_555
H28 C9 1_555 1_555
C10 H29 1_555 1_555
H30 C10 1_555 1_555
C11 C10 1_555 1_555
H31 C11 1_555 1_555
H32 C11 1_555 1_555
Cu3 N7 1_555 1_555
N7 C8 1_555 1_555
H33 N7 1_555 1_555
H34 N7 1_555 1_555
N8 C9 1_555 1_555
H35 N8 1_555 1_555
H36 N8 1_555 1_555
N9 C10 1_555 1_555
H37 N9 1_555 1_555
H38 N9 1_555 1_555
N10 C11 1_555 1_555
H39 N10 1_555 1_555
H40 N10 1_555 1_555
O48 Cu3 1_555 1_555
C1A C1 1_555 1_555
O40A C1A 1_555 1_555
O41A Ce1 1_555 1_555
C6A H9A 1_555 1_555
H10A C6A 1_555 1_555
C7A C6A 1_555 1_555
H11A C7A 1_555 1_555
H12A C7A 1_555 1_555
Ce1A O1A 1_555 1_555
Ge1A O8A 1_555 1_555
N5A Cu2 1_555 1_555
H21A N5A 1_555 1_555
H22A N5A 1_555 1_555
N6A Cu2 1_555 1_555
H23A N6A 1_555 1_555
H24A N6A 1_555 1_555
O1A W1A 1_555 1_555
O2A Ce1A 1_555 1_555
O3A Ce1A 1_555 1_555
O4A Ce1A 1_555 1_555
O5A W1A 1_555 1_555
O6A Cu2 1_555 1_555
O7A W1A 1_555 1_555
O8A W7A 1_555 1_555
O9A W2A 1_555 1_555
O10A W2A 1_555 1_555
O11A W1A 1_555 1_555
O12A W2A 1_555 1_555
O13A W3A 1_555 1_555
O14A W3A 1_555 1_555
O15A W3A 1_555 1_555
O16A Ge1A 1_555 1_555
O17A W4A 1_555 1_555
O18A W4A 1_555 1_555
O19A W3A 1_555 1_555
O20A W4A 1_555 1_555
O21A W5A 1_555 1_555
O22A W5A 1_555 1_555
O23A W5A 1_555 1_555
O24A W6A 1_555 1_555
O25A W6A 1_555 1_555
O26A Ge1A 1_555 1_555
O27A W7A 1_555 1_555
O28A W6A 1_555 1_555
O29A W6A 1_555 1_555
O30A W7A 1_555 1_555
O31A W7A 1_555 1_555
O32A W8A 1_555 1_555
O33A W8A 1_555 1_555
O34A W8A 1_555 1_555
O35A W9A 1_555 1_555
O36A W9A 1_555 1_555
O37A W11A 1_555 1_555
O38A W10A 1_555 1_555
O39A Ge1A 1_555 1_555
O42A Ce1A 1_555 1_555
O43A Ce1A 1_555 1_555
W1A O6A 1_555 1_555
W2A O2A 1_555 1_555
W3A O11A 1_555 1_555
W4A O10A 1_555 1_555
W5A O16A 1_555 1_555
W6A O22A 1_555 1_555
W7A O23A 1_555 1_555
W8A O3A 1_555 1_555
W9A O4A 1_555 1_555
W10A O7A 1_555 1_555
W11A O12A 1_555 1_555
C2A H1A 1_555 1_555
H2A C2A 1_555 1_555
C3A C2A 1_555 1_555
H3A C3A 1_555 1_555
H4A C3A 1_555 1_555
C4A H5A 1_555 1_555
H6A C4A 1_555 1_555
C5A C4A 1_555 1_555
H7A C5A 1_555 1_555
H8A C5A 1_555 1_555
Cu1A O41 1_555 1_555
N1A C3A 1_555 1_555
H13A N1A 1_555 1_555
H14A N1A 1_555 1_555
N2A C2A 1_555 1_555
H15A N2A 1_555 1_555
H16A N2A 1_555 1_555
N3A C4A 1_555 1_555
H17A N3A 1_555 1_555
H18A N3A 1_555 1_555
N4A C5A 1_555 1_555
H19A N4A 1_555 1_555
H20A N4A 1_555 1_555
Ce1A_2 O41 1_555 1_555
O40A_2 Ce1A 1_555 1_555
O41_2 Ce1A 1_555 1_555
Cu1 N2 1_555 1_555
Cu1 N3 1_555 1_555
Cu1 N4 1_555 1_555
Cu1 O41A 1_555 1_555
Cu2 N6 1_555 1_555
O6 W2 1_555 1_555
O8 W8 1_555 1_555
O8 W10 1_555 1_555
O14 W4 1_555 1_555
O15 W10 1_555 1_555
O16 W3 1_555 1_555
O16 W4 1_555 1_555
O17 W11 1_555 1_555
O19 W5 1_555 1_555
O20 W5 1_555 1_555
O25 W11 1_555 1_555
O26 W6 1_555 1_555
O26 W9 1_555 1_555
O26 W11 1_555 1_555
O28 W7 1_555 1_555
O29 W9 1_555 1_555
O30 W8 1_555 1_555
O31 W10 1_555 1_555
O33 W9 1_555 1_555
O34 W10 1_555 1_555
O36 W11 1_555 1_555
O39 W1 1_555 1_555
O39 W2 1_555 1_555
Cu3 N8 1_555 1_555
Cu3 N9 1_555 1_555
Cu3 N10 1_555 1_555
C1A O41A 1_555 1_555
O40A Ce1A_2 1_555 1_555
C6A N6A 1_555 1_555
C7A N5A 1_555 1_555
O6A W2A 1_555 1_555
O8A W8A 1_555 1_555
O8A W10A 1_555 1_555
O14A W4A 1_555 1_555
O15A W10A 1_555 1_555
O16A W3A 1_555 1_555
O16A W4A 1_555 1_555
O17A W11A 1_555 1_555
O19A W5A 1_555 1_555
O20A W5A 1_555 1_555
O25A W11A 1_555 1_555
O26A W6A 1_555 1_555
O26A W9A 1_555 1_555
O26A W11A 1_555 1_555
O28A W7A 1_555 1_555
O29A W9A 1_555 1_555
O30A W8A 1_555 1_555
O31A W10A 1_555 1_555
O33A W9A 1_555 1_555
O34A W10A 1_555 1_555
O36A W11A 1_555 1_555
O39A W1A 1_555 1_555
O39A W2A 1_555 1_555
Cu1A N1A 1_555 1_555
Cu1A N2A 1_555 1_555
Cu1A N3A 1_555 1_555
Cu1A N4A 1_555 1_555

#END
