
#######################################################################
#
#                 Cambridge Crystallographic Data Centre
#                                CCDC 
#
#######################################################################
#
# If this CIF has been generated from an entry in the Cambridge 
# Structural Database, then it will include bibliographic, chemical, 
# crystal, experimental, refinement or atomic coordinate data resulting 
# from the CCDC's data processing and validation procedures.
#
#######################################################################

data_TIZLUL
_symmetry_cell_setting           monoclinic
_symmetry_space_group_name_H-M   'P 21/c'
_symmetry_Int_Tables_number      14
_space_group_name_Hall           '-P 2ybc'
loop_
_symmetry_equiv_pos_site_id
_symmetry_equiv_pos_as_xyz
1 x,y,z
2 -x,1/2+y,1/2-z
3 -x,-y,-z
4 x,1/2-y,1/2+z
_cell_length_a                   23.035(5)
_cell_length_b                   15.074(3)
_cell_length_c                   30.649(6)
_cell_angle_alpha                90
_cell_angle_beta                 130.111(7)
_cell_angle_gamma                90
_cell_volume                     8139.16
loop_
_atom_site_label
_atom_site_type_symbol
_atom_site_fract_x
_atom_site_fract_y
_atom_site_fract_z
O1 O 0.3981(2) 0.7538(3) 0.96992(18)
O2 O 0.3955(2) 0.7566(3) 1.08139(18)
O3 O 0.2369(2) 0.7333(3) 0.91659(17)
O4 O 0.3504(3) 0.8622(3) 0.9859(2)
O5 O 0.2870(2) 0.6228(3) 0.90368(17)
O6 O 0.4695(2) 0.6749(3) 1.07571(17)
O7 O 0.1691(2) 0.8354(3) 1.07503(19)
O8 O 0.2194(2) 0.9805(3) 1.04695(18)
O9 O 0.1400(3) 0.7454(4) 0.9463(2)
O10 O 0.3167(2) 0.9308(3) 1.0560(2)
O11 O 0.2515(3) 0.7846(3) 1.06752(19)
O12 O 0.0996(3) 0.9720(3) 0.92713(18)
O13 O 0.1922(3) 0.9081(3) 0.9365(2)
O14 O 0.2716(3) 0.6386(3) 1.0139(2)
O15 O 0.0628(3) 0.8102(3) 0.9541(2)
O16 O 0.0873(2) 1.1066(3) 0.98842(19)
O17 O 0.3469(2) 0.5486(3) 1.01435(18)
O18 O 0.1313(2) 1.0093(3) 1.08983(17)
O19 O 0.0323(2) 1.0303(3) 1.08494(17)
O20 O -0.0086(2) 1.1152(3) 0.98742(18)
O21 O 0.6246(2) 0.5401(3) 1.05733(17)
O22 O 0.4997(2) 0.4930(3) 1.05788(17)
O23 O 0.5812(2) 0.3839(3) 1.09082(17)
O24 O 0.5432(2) 0.6503(3) 1.02714(17)
Th1 Th 0.417796(13) 0.600760(15) 0.988219(9)
Th2 Th 0.268769(13) 0.794222(15) 1.000314(10)
Th3 Th 0.092797(13) 0.947195(16) 1.001705(10)
C1 C 0.2407(3) 0.6856(3) 0.88505(15)
C2 C 0.1897(3) 0.7076(4) 0.82375(18)
C3 C 0.1437(4) 0.7805(5) 0.8033(2)
C4 C 0.1890(4) 0.6552(5) 0.7864(2)
C5 C 0.1420(5) 0.6766(7) 0.7291(2)
C6 C 0.0965(5) 0.8016(6) 0.7456(3)
C7 C 0.0978(5) 0.7489(7) 0.7104(2)
H1 H 0.144033 0.817403 0.828984
H2 H 0.2211 0.603928 0.800264
H3 H 0.141107 0.640126 0.703015
H4 H 0.063767 0.852445 0.731069
H5 H 0.065857 0.763731 0.670631
C8 C 0.4595(9) 0.7333(6) 1.0999(5)
C9 C 0.5272(5) 0.7747(5) 1.1523(3)
C10 C 0.5981(4) 0.7568(7) 1.1706(3)
C11 C 0.5197(4) 0.8334(7) 1.1829(3)
C12 C 0.5831(6) 0.8731(8) 1.2315(4)
C13 C 0.6617(6) 0.7968(9) 1.2196(4)
C14 C 0.6518(8) 0.8545(9) 1.2483(4)
H6 H 0.603878 0.716211 1.149499
H7 H 0.470217 0.846626 1.170391
H8 H 0.57805 0.913671 1.253037
H9 H 0.71159 0.78391 1.23281
H10 H 0.695577 0.883042 1.281797
C15 C 0.3819(6) 0.8343(11) 0.9680(6)
C16 C 0.4011(5) 0.8963(6) 0.9417(4)
C17 C 0.3939(6) 0.9858(6) 0.9440(3)
C18 C 0.4279(6) 0.8644(6) 0.9153(4)
C19 C 0.4469(8) 0.9226(8) 0.8915(5)
C20 C 0.4130(7) 1.0441(8) 0.9198(5)
C21 C 0.4396(8) 1.0102(10) 0.8946(6)
H11 H 0.375558 1.008623 0.962331
H12 H 0.433281 0.801683 0.913554
H13 H 0.465218 0.900683 0.872916
H14 H 0.40759 1.107033 0.920999
H15 H 0.453615 1.050289 0.878459
C22 C 0.3019(8) 0.5644(11) 1.0230(5)
C23 C 0.2844(5) 0.4938(6) 1.0463(3)
C24 C 0.3196(5) 0.4131(6) 1.0608(4)
C25 C 0.2331(5) 0.5090(6) 1.0546(4)
C26 C 0.2176(7) 0.4432(8) 1.0772(5)
C27 C 0.3038(7) 0.3471(8) 1.0834(5)
C28 C 0.2533(8) 0.3649(10) 1.0913(6)
H16 H 0.355581 0.402026 1.055275
H17 H 0.208056 0.565416 1.044653
H18 H 0.181652 0.453448 1.082784
H19 H 0.328019 0.290194 1.093275
H20 H 0.242821 0.319777 1.107441
C29 C 0.0781(8) 0.7531(14) 0.9348(6)
C30 C 0.0190(5) 0.6876(7) 0.8951(3)
C31 C 0.0327(5) 0.6227(6) 0.8716(3)
C32 C -0.0507(5) 0.6902(6) 0.8820(4)
C33 C -0.1056(6) 0.6280(9) 0.8455(5)
C34 C -0.0228(7) 0.5603(9) 0.8348(4)
C35 C -0.0903(7) 0.5648(11) 0.8233(5)
H21 H 0.081012 0.620145 0.880571
H22 H -0.060923 0.735388 0.898317
H23 H -0.154172 0.629896 0.83612
H24 H -0.013545 0.51499 0.81794
H25 H -0.128493 0.52132 0.79842
C36 C 0.1396(8) 0.9633(14) 0.9136(5)
C37 C 0.1300(6) 1.0254(7) 0.8722(3)
C38 C 0.0699(6) 1.0827(6) 0.8419(3)
C39 C 0.1826(6) 1.0273(6) 0.8643(4)
C40 C 0.1742(8) 1.0864(9) 0.8261(5)
C41 C 0.0616(8) 1.1419(9) 0.8035(4)
C42 C 0.1148(9) 1.1421(12) 0.7972(5)
H26 H 0.03309 1.081949 0.847203
H27 H 0.225136 0.987502 0.885396
H28 H 0.210491 1.087655 0.820355
H29 H 0.019148 1.181809 0.781833
H30 H 0.109687 1.183574 0.771157
C43 C 0.2882(5) 0.9835(10) 1.0695(4)
C44 C 0.3375(4) 1.0506(5) 1.1140(3)
C45 C 0.3127(6) 1.0980(6) 1.1372(4)
C46 C 0.4099(6) 1.0650(6) 1.1334(4)
C47 C 0.4564(6) 1.1268(7) 1.1757(5)
C48 C 0.3597(7) 1.1603(8) 1.1797(5)
C49 C 0.4306(7) 1.1721(8) 1.1979(5)
H31 H 0.262484 1.088286 1.124117
H32 H 0.427954 1.031966 1.11745
H33 H 0.506677 1.137284 1.189106
H34 H 0.342298 1.194143 1.19589
H35 H 0.463541 1.214323 1.227653
C50 C 0.2230(11) 0.7851(6) 1.0908(5)
C51 C 0.2521(6) 0.7227(5) 1.1380(3)
C52 C 0.2203(5) 0.7189(7) 1.1632(3)
C53 C 0.3112(5) 0.6662(7) 1.1565(3)
C54 C 0.3377(7) 0.6068(8) 1.2001(4)
C55 C 0.2472(7) 0.6592(9) 1.2071(4)
C56 C 0.3051(9) 0.6043(8) 1.2239(5)
H36 H 0.179052 0.757811 1.150507
H37 H 0.333943 0.66811 1.13906
H38 H 0.379017 0.567658 1.213262
H39 H 0.225381 0.656717 1.225202
H40 H 0.323325 0.562314 1.253756
C57 C 0.1033(6) 1.0285(8) 1.1122(3)
C58 C 0.1523(5) 1.0511(6) 1.1733(2)
C59 C 0.1218(5) 1.0844(7) 1.1962(3)
C60 C 0.2297(5) 1.0373(7) 1.2084(3)
C61 C 0.2754(6) 1.0573(9) 1.2658(3)
C62 C 0.1681(7) 1.1045(8) 1.2540(4)
C63 C 0.2438(7) 1.0895(9) 1.2871(4)
H41 H 0.068074 1.094023 1.172147
H42 H 0.251723 1.013867 1.192891
H43 H 0.329269 1.048184 1.290302
H44 H 0.146977 1.128511 1.270084
H45 H 0.275858 1.102439 1.327115
C64 C 0.0366(7) 1.1506(8) 0.9826(6)
C65 C 0.0291(5) 1.2457(5) 0.9687(4)
C66 C -0.0199(6) 1.2983(5) 0.9680(4)
C67 C 0.0726(6) 1.2832(5) 0.9571(4)
C68 C 0.0664(8) 1.3726(6) 0.9450(5)
C69 C -0.0260(7) 1.3882(7) 0.9556(5)
C70 C 0.0180(8) 1.4226(7) 0.9449(6)
H46 H -0.050211 1.272841 0.976139
H47 H 0.107269 1.247037 0.957572
H48 H 0.096263 1.398816 0.936652
H49 H -0.060744 1.42514 0.954747
H50 H 0.014535 1.484828 0.93691
C71 C 0.605(5) 0.621(15) 1.0447(5)
C72 C 0.6562(19) 0.679(6) 1.0438(4)
C73 C 0.631(4) 0.759(4) 1.0163(4)
C74 C 0.730(4) 0.654(3) 1.0718(5)
C75 C 0.778(3) 0.709(8) 1.0717(6)
C76 C 0.679(5) 0.814(6) 1.0162(5)
C77 C 0.752(3) 0.787(10) 1.0445(6)
H51 H 0.57976 0.777236 0.99684
H52 H 0.748605 0.598079 1.091372
H53 H 0.82958 0.691586 1.090907
H54 H 0.661878 0.870092 0.996616
H55 H 0.785759 0.8256 1.045108
C78 C 0.5416(8) 0.4341(8) 1.0948(5)
C79 C 0.5491(5) 0.4259(6) 1.1462(3)
C80 C 0.5913(5) 0.3591(7) 1.1845(3)
C81 C 0.5145(5) 0.4867(7) 1.1566(3)
C82 C 0.5225(7) 0.4797(9) 1.2051(4)
C83 C 0.5991(7) 0.3522(9) 1.2333(5)
C84 C 0.5646(8) 0.4137(10) 1.2421(5)
H56 H 0.615751 0.316565 1.177737
H57 H 0.484834 0.534032 1.12998
H58 H 0.498248 0.521713 1.212363
H59 H 0.628256 0.305036 1.260137
H60 H 0.570488 0.409728 1.276069
O19B O -0.0323(2) 0.9697(3) 0.91506(17)
O20B O 0.0086(2) 0.8848(3) 1.01258(18)
O21B O 0.3754(2) 0.4599(3) 0.94267(17)
O23B O 0.4188(2) 0.6161(3) 0.90918(17)
Th1B Th 0.582204(13) 0.399240(15) 1.011781(9)
Th3B Th -0.092797(13) 1.052805(16) 0.998295(10)
loop_
_geom_bond_atom_site_label_1
_geom_bond_atom_site_label_2
_geom_bond_site_symmetry_1
_geom_bond_site_symmetry_2
O1 Th1 1_555 1_555
O2 Th2 1_555 1_555
O3 Th2 1_555 1_555
O4 Th2 1_555 1_555
O5 Th1 1_555 1_555
O6 Th1 1_555 1_555
O7 Th3 1_555 1_555
O8 Th3 1_555 1_555
O9 Th2 1_555 1_555
O10 Th2 1_555 1_555
O11 Th2 1_555 1_555
O12 Th3 1_555 1_555
O13 Th2 1_555 1_555
O14 Th2 1_555 1_555
O15 Th3 1_555 1_555
O16 Th3 1_555 1_555
O17 Th1 1_555 1_555
O18 Th3 1_555 1_555
O19 C57 1_555 1_555
O20 C64 1_555 1_555
O21 C71 1_555 1_555
O22 Th1 1_555 1_555
O23 C78 1_555 1_555
O24 Th1 1_555 1_555
Th1 O21B 1_555 1_555
Th3 O19B 1_555 1_555
C1 O3 1_555 1_555
C2 C1 1_555 1_555
C3 C2 1_555 1_555
C4 C2 1_555 1_555
C5 C4 1_555 1_555
C6 C3 1_555 1_555
C7 C5 1_555 1_555
H1 C3 1_555 1_555
H2 C4 1_555 1_555
H3 C5 1_555 1_555
H4 C6 1_555 1_555
H5 C7 1_555 1_555
C8 O2 1_555 1_555
C9 C8 1_555 1_555
C10 C9 1_555 1_555
C11 C9 1_555 1_555
C12 C11 1_555 1_555
C13 C10 1_555 1_555
C14 C12 1_555 1_555
H6 C10 1_555 1_555
H7 C11 1_555 1_555
H8 C12 1_555 1_555
H9 C13 1_555 1_555
H10 C14 1_555 1_555
C15 O1 1_555 1_555
C16 C15 1_555 1_555
C17 C16 1_555 1_555
C18 C16 1_555 1_555
C19 C18 1_555 1_555
C20 C17 1_555 1_555
C21 C19 1_555 1_555
H11 C17 1_555 1_555
H12 C18 1_555 1_555
H13 C19 1_555 1_555
H14 C20 1_555 1_555
H15 C21 1_555 1_555
C22 O14 1_555 1_555
C23 C22 1_555 1_555
C24 C23 1_555 1_555
C25 C23 1_555 1_555
C26 C25 1_555 1_555
C27 C24 1_555 1_555
C28 C26 1_555 1_555
H16 C24 1_555 1_555
H17 C25 1_555 1_555
H18 C26 1_555 1_555
H19 C27 1_555 1_555
H20 C28 1_555 1_555
C29 O9 1_555 1_555
C30 C29 1_555 1_555
C31 C30 1_555 1_555
C32 C30 1_555 1_555
C33 C32 1_555 1_555
C34 C31 1_555 1_555
C35 C33 1_555 1_555
H21 C31 1_555 1_555
H22 C32 1_555 1_555
H23 C33 1_555 1_555
H24 C34 1_555 1_555
H25 C35 1_555 1_555
C36 O12 1_555 1_555
C37 C36 1_555 1_555
C38 C37 1_555 1_555
C39 C37 1_555 1_555
C40 C39 1_555 1_555
C41 C38 1_555 1_555
C42 C40 1_555 1_555
H26 C38 1_555 1_555
H27 C39 1_555 1_555
H28 C40 1_555 1_555
H29 C41 1_555 1_555
H30 C42 1_555 1_555
C43 O8 1_555 1_555
C44 C43 1_555 1_555
C45 C44 1_555 1_555
C46 C44 1_555 1_555
C47 C46 1_555 1_555
C48 C45 1_555 1_555
C49 C47 1_555 1_555
H31 C45 1_555 1_555
H32 C46 1_555 1_555
H33 C47 1_555 1_555
H34 C48 1_555 1_555
H35 C49 1_555 1_555
C50 O7 1_555 1_555
C51 C50 1_555 1_555
C52 C51 1_555 1_555
C53 C51 1_555 1_555
C54 C53 1_555 1_555
C55 C52 1_555 1_555
C56 C54 1_555 1_555
H36 C52 1_555 1_555
H37 C53 1_555 1_555
H38 C54 1_555 1_555
H39 C55 1_555 1_555
H40 C56 1_555 1_555
C57 O18 1_555 1_555
C58 C57 1_555 1_555
C59 C58 1_555 1_555
C60 C58 1_555 1_555
C61 C60 1_555 1_555
C62 C59 1_555 1_555
C63 C61 1_555 1_555
H41 C59 1_555 1_555
H42 C60 1_555 1_555
H43 C61 1_555 1_555
H44 C62 1_555 1_555
H45 C63 1_555 1_555
C64 O16 1_555 1_555
C65 C64 1_555 1_555
C66 C65 1_555 1_555
C67 C65 1_555 1_555
C68 C67 1_555 1_555
C69 C66 1_555 1_555
C70 C68 1_555 1_555
H46 C66 1_555 1_555
H47 C67 1_555 1_555
H48 C68 1_555 1_555
H49 C69 1_555 1_555
H50 C70 1_555 1_555
C71 O24 1_555 1_555
C72 C71 1_555 1_555
C73 C72 1_555 1_555
C74 C72 1_555 1_555
C75 C74 1_555 1_555
C76 C73 1_555 1_555
C77 C75 1_555 1_555
H51 C73 1_555 1_555
H52 C74 1_555 1_555
H53 C75 1_555 1_555
H54 C76 1_555 1_555
H55 C77 1_555 1_555
C78 O22 1_555 1_555
C79 C78 1_555 1_555
C80 C79 1_555 1_555
C81 C79 1_555 1_555
C82 C81 1_555 1_555
C83 C80 1_555 1_555
C84 C82 1_555 1_555
H56 C80 1_555 1_555
H57 C81 1_555 1_555
H58 C82 1_555 1_555
H59 C83 1_555 1_555
H60 C84 1_555 1_555
O20B Th3 1_555 1_555
O23B Th1 1_555 1_555
Th1B O21 1_555 1_555
Th3B O19 1_555 1_555
O4 C15 1_555 1_555
O5 C1 1_555 1_555
O6 C8 1_555 1_555
O10 C43 1_555 1_555
O11 C50 1_555 1_555
O13 C36 1_555 1_555
O15 C29 1_555 1_555
O17 C22 1_555 1_555
O20 Th3B 1_555 1_555
O23 Th1B 1_555 1_555
C6 C7 1_555 1_555
C13 C14 1_555 1_555
C20 C21 1_555 1_555
C27 C28 1_555 1_555
C34 C35 1_555 1_555
C41 C42 1_555 1_555
C48 C49 1_555 1_555
C55 C56 1_555 1_555
C62 C63 1_555 1_555
C69 C70 1_555 1_555
C76 C77 1_555 1_555
C83 C84 1_555 1_555

#END
