
#######################################################################
#
#                 Cambridge Crystallographic Data Centre
#                                CCDC 
#
#######################################################################
#
# If this CIF has been generated from an entry in the Cambridge 
# Structural Database, then it will include bibliographic, chemical, 
# crystal, experimental, refinement or atomic coordinate data resulting 
# from the CCDC's data processing and validation procedures.
#
#######################################################################

data_TIZLOF
_symmetry_cell_setting           monoclinic
_symmetry_space_group_name_H-M   'P 21/c'
_symmetry_Int_Tables_number      14
_space_group_name_Hall           '-P 2ybc'
loop_
_symmetry_equiv_pos_site_id
_symmetry_equiv_pos_as_xyz
1 x,y,z
2 -x,1/2+y,1/2-z
3 -x,-y,-z
4 x,1/2-y,1/2+z
_cell_length_a                   23.0323(4)
_cell_length_b                   15.4985(3)
_cell_length_c                   25.4618(5)
_cell_angle_alpha                90
_cell_angle_beta                 116.781(1)
_cell_angle_gamma                90
_cell_volume                     8114.07
loop_
_atom_site_label
_atom_site_type_symbol
_atom_site_fract_x
_atom_site_fract_y
_atom_site_fract_z
Th1 Th 0.577288(11) 0.400716(16) 0.002621(12)
Th2 Th 0.726584(12) 0.204909(17) -0.001994(13)
Th3 Th 0.908678(12) 0.069720(19) -0.001425(13)
O1 O 0.6510(2) 0.1545(3) 0.0316(2)
O2 O 0.5696(3) 0.4228(4) 0.0923(2)
O3 O 0.8014(2) 0.1207(3) 0.0739(2)
O4 O 0.5011(3) 0.5270(4) 0.0810(2)
O5 O 0.5634(3) 0.2946(4) -0.0682(3)
O6 O 0.7446(2) 0.2872(3) 0.0835(2)
O7 O 0.7020(3) 0.3480(3) -0.0355(3)
O8 O 0.9765(3) 0.1275(4) -0.0409(3)
O9 O 0.8977(2) 0.0718(4) 0.0898(2)
O10 O 0.4720(2) 0.3424(3) -0.0180(3)
O11 O 0.7585(3) 0.1959(4) -0.0764(3)
O12 O 0.4072(3) 0.4506(3) -0.0247(2)
O13 O 0.6895(2) 0.4079(3) 0.0737(2)
O14 O 0.8048(2) 0.0174(3) -0.0244(2)
O15 O 0.8973(3) -0.0279(4) -0.0771(3)
O16 O 0.8353(2) 0.1408(4) -0.0941(2)
O17 O 0.6341(2) 0.4541(3) -0.0529(2)
O18 O 1.0631(3) 0.0720(4) -0.0406(3)
O19 O 0.7084(2) 0.0538(3) -0.0334(2)
O20 O 0.6016(2) 0.2640(3) 0.0499(2)
O21 O 0.9842(3) -0.0812(5) -0.0763(3)
C1 C 0.5454(3) 0.4768(5) 0.1131(3)
C2 C 1.0181(3) 0.1270(5) -0.0590(3)
O22 O 0.6223(3) 0.2034(4) -0.0892(3)
O23 O 0.9079(3) 0.2139(4) 0.0217(3)
C3 C 0.7396(3) 0.3629(5) 0.0997(3)
C4 C 0.4165(3) 0.3730(5) -0.0323(3)
O24 O 0.8306(3) 0.2806(4) 0.0322(3)
C5 C 0.8536(4) 0.0820(5) 0.1046(3)
C6 C 0.6795(4) 0.4194(5) -0.0583(3)
C7 C 0.7476(3) -0.0022(5) -0.0334(3)
C8 C 0.5705(3) 0.2438(5) -0.1026(3)
C9 C 0.7850(3) 0.1848(5) -0.1093(3)
C10 C 0.9251(4) -0.0790(5) -0.0953(3)
C11 C 0.6128(3) 0.1840(4) 0.0498(3)
C12 C 0.8856(4) 0.2789(5) 0.0342(3)
C13 C 0.7831(3) 0.2161(4) -0.2058(3)
C14 C 0.7565(5) 0.2557(6) -0.2602(4)
C15 C 0.7560(4) 0.2255(6) -0.1678(4)
C16 C 0.6732(5) 0.3158(8) -0.2387(6)
C17 C 0.7019(5) 0.3044(8) -0.2749(5)
C18 C 0.7012(5) 0.2750(8) -0.1847(6)
H1 H 0.821362 0.181217 -0.194189
H2 H 0.775589 0.249167 -0.28664
H3 H 0.635068 0.350954 -0.250406
H4 H 0.682746 0.332119 -0.312668
H5 H 0.681792 0.281307 -0.158555
C19 C 0.9193(5) 0.0055(7) 0.1989(5)
C20 C 0.9283(6) -0.0279(8) 0.2524(4)
C21 C 0.8623(6) 0.0459(9) 0.1618(5)
C22 C 0.8208(8) 0.0207(10) 0.2315(7)
C23 C 0.8783(7) -0.0188(10) 0.2669(6)
C24 C 0.8138(7) 0.0535(9) 0.1785(6)
H6 H 0.953516 0.000422 0.187463
H7 H 0.968034 -0.056276 0.278199
H8 H 0.786581 0.025542 0.243072
H9 H 0.883881 -0.041436 0.303987
H10 H 0.774057 0.082245 0.152948
C25 C 0.9841(5) 0.3550(7) 0.0497(5)
C26 C 1.0237(6) 0.4268(7) 0.0633(5)
C27 C 0.9247(6) 0.3575(8) 0.0503(6)
C28 C 0.9429(8) 0.5066(8) 0.0785(7)
C29 C 1.0014(7) 0.5008(9) 0.0772(7)
C30 C 0.9045(7) 0.4334(8) 0.0644(6)
H11 H 0.998263 0.302137 0.039516
H12 H 1.065201 0.42492 0.062934
H13 H 0.928879 0.5595 0.088796
H14 H 1.028246 0.551333 0.086587
H15 H 0.862952 0.43568 0.064538
C31 C 0.8524(6) 0.3550(6) 0.1796(5)
C32 C 0.9036(5) 0.3874(8) 0.2295(5)
C33 C 0.7944(6) 0.3984(9) 0.1519(6)
C34 C 0.8375(9) 0.5106(8) 0.2243(7)
C35 C 0.8942(7) 0.4649(9) 0.2502(6)
C36 C 0.7876(7) 0.4760(8) 0.1743(6)
H16 H 0.857526 0.300759 0.163903
H17 H 0.944018 0.356872 0.248931
H18 H 0.832474 0.564656 0.240202
H19 H 0.929303 0.488519 0.284742
H20 H 0.747286 0.506992 0.154912
C37 C 0.6285(5) 0.4527(7) 0.2145(5)
C38 C 0.6518(6) 0.4611(8) 0.2746(5)
C39 C 0.5680(6) 0.4824(9) 0.1759(5)
C40 C 0.5516(8) 0.5313(9) 0.2576(7)
C41 C 0.6121(7) 0.5007(10) 0.2941(6)
C42 C 0.5302(7) 0.5218(9) 0.1978(6)
H21 H 0.655264 0.425378 0.199319
H22 H 0.694039 0.440149 0.301502
H23 H 0.524903 0.558325 0.272932
H24 H 0.62765 0.507337 0.335789
H25 H 0.488019 0.543227 0.171007
C43 C 0.7705(5) -0.1559(8) -0.0434(5)
C44 C 0.7528(6) -0.2418(6) -0.0523(5)
C45 C 0.7284(7) -0.0935(8) -0.0429(6)
C46 C 0.6480(7) -0.2027(11) -0.0603(7)
C47 C 0.6916(8) -0.2623(9) -0.0604(6)
C48 C 0.6677(7) -0.1175(9) -0.0510(6)
H26 H 0.813225 -0.139462 -0.037454
H27 H 0.782155 -0.28535 -0.052859
H28 H 0.60522 -0.219347 -0.066412
H29 H 0.678539 -0.32174 -0.06649
H30 H 0.638216 -0.074212 -0.05027
C49 C 0.9185(5) -0.1913(8) -0.1628(5)
C50 C 0.8851(6) -0.2500(7) -0.2070(5)
C51 C 0.8866(7) -0.1370(8) -0.1418(6)
C52 C 0.7850(7) -0.1994(11) -0.2096(7)
C53 C 0.8190(7) -0.2521(9) -0.2290(6)
C54 C 0.8202(6) -0.1418(9) -0.1652(6)
H31 H 0.965039 -0.188441 -0.146325
H32 H 0.907445 -0.287825 -0.221761
H33 H 0.738486 -0.202351 -0.226313
H34 H 0.795049 -0.292702 -0.259622
H35 H 0.797747 -0.104409 -0.150416
C55 C 0.5296(5) 0.2042(8) -0.2073(5)
C56 C 0.4809(5) 0.2018(8) -0.2645(5)
C57 C 0.5185(6) 0.2354(9) -0.1621(5)
C58 C 0.4075(6) 0.2631(10) -0.2309(8)
C59 C 0.4210(7) 0.2315(9) -0.2742(6)
C60 C 0.4575(6) 0.2642(9) -0.1742(6)
H36 H 0.57219 0.183588 -0.198942
H37 H 0.488727 0.180169 -0.296012
H38 H 0.364872 0.283867 -0.239387
H39 H 0.386502 0.229993 -0.313682
H40 H 0.449342 0.285463 -0.142767
C61 C 0.5832(6) 0.0386(8) 0.0679(5)
C62 C 0.5534(7) -0.0178(7) 0.0902(5)
C63 C 0.5787(9) 0.1264(8) 0.0724(6)
C64 C 0.5134(8) 0.1042(12) 0.1227(6)
C65 C 0.5194(9) 0.0174(10) 0.1171(6)
C66 C 0.5441(8) 0.1584(10) 0.1000(6)
H41 H 0.607601 0.015879 0.048808
H42 H 0.556463 -0.079189 0.08686
H43 H 0.48883 0.12662 0.141653
H44 H 0.498561 -0.02094 0.133023
H45 H 0.541175 0.219703 0.10362
C67 C 0.3664(5) 0.2311(7) -0.0721(5)
C68 C 0.3136(6) 0.1762(7) -0.0970(5)
C69 C 0.3594(7) 0.3154(8) -0.0591(6)
C70 C 0.2447(7) 0.2924(12) -0.0959(7)
C71 C 0.2542(7) 0.2091(9) -0.1080(7)
C72 C 0.2988(6) 0.3451(10) -0.0709(6)
H46 H 0.408835 0.209945 -0.063643
H47 H 0.318523 0.117427 -0.106127
H48 H 0.202169 0.313409 -0.10456
H49 H 0.217043 0.171737 -0.125091
H50 H 0.293687 0.403795 -0.06153
C73 C 0.9641(4) 0.2455(8) -0.1274(5)
C74 C 0.9588(6) 0.3036(7) -0.1705(5)
C75 C 1.0158(7) 0.1896(8) -0.1027(6)
C76 C 1.0597(7) 0.2492(11) -0.1642(7)
C77 C 1.0074(7) 0.3034(9) -0.1874(6)
C78 C 1.0633(7) 0.1923(9) -0.1211(6)
H51 H 0.930892 0.244089 -0.11449
H52 H 0.922612 0.342403 -0.187842
H53 H 1.092743 0.250633 -0.177352
H54 H 1.004562 0.3436 -0.217132
H55 H 1.099739 0.153815 -0.10367
C79 C 0.7697(5) 0.4435(8) -0.0833(4)
C80 C 0.7974(6) 0.4833(10) -0.1150(5)
C81 C 0.7074(7) 0.4623(13) -0.0929(6)
C82 C 0.6981(8) 0.5630(10) -0.1678(6)
C83 C 0.7602(8) 0.5421(13) -0.1566(6)
C84 C 0.6720(7) 0.5215(11) -0.1353(5)
H56 H 0.794508 0.401763 -0.053841
H57 H 0.841057 0.470314 -0.108138
H58 H 0.673492 0.604954 -0.197233
H59 H 0.778721 0.570142 -0.179197
H60 H 0.62831 0.534461 -0.14251
Th1B Th 0.422712(11) 0.599284(16) -0.002621(12)
Th3B Th 1.091322(12) -0.069720(19) 0.001425(13)
O4B O 0.4989(3) 0.4730(4) -0.0810(2)
O12B O 0.5928(3) 0.5494(3) 0.0247(2)
O18B O 0.9369(3) -0.0720(4) 0.0406(3)
O21B O 1.0158(3) 0.0812(5) 0.0763(3)
loop_
_geom_bond_atom_site_label_1
_geom_bond_atom_site_label_2
_geom_bond_site_symmetry_1
_geom_bond_site_symmetry_2
Th1 O2 1_555 1_555
Th2 O1 1_555 1_555
Th3 O8 1_555 1_555
O1 C11 1_555 1_555
O2 C1 1_555 1_555
O3 Th2 1_555 1_555
O4 C1 1_555 1_555
O5 Th1 1_555 1_555
O6 Th2 1_555 1_555
O7 Th2 1_555 1_555
O8 C2 1_555 1_555
O9 Th3 1_555 1_555
O10 Th1 1_555 1_555
O11 Th2 1_555 1_555
O12 C4 1_555 1_555
O13 Th1 1_555 1_555
O14 Th3 1_555 1_555
O15 Th3 1_555 1_555
O16 Th3 1_555 1_555
O17 Th1 1_555 1_555
O18 C2 1_555 1_555
O19 Th2 1_555 1_555
O20 Th1 1_555 1_555
O21 C10 1_555 1_555
C1 C39 1_555 1_555
C2 C75 1_555 1_555
O22 Th2 1_555 1_555
O23 Th3 1_555 1_555
C3 O6 1_555 1_555
C4 O10 1_555 1_555
O24 Th2 1_555 1_555
C5 O3 1_555 1_555
C6 O7 1_555 1_555
C7 O14 1_555 1_555
C8 O5 1_555 1_555
C9 O11 1_555 1_555
C10 O15 1_555 1_555
C11 O20 1_555 1_555
C12 O23 1_555 1_555
C13 C14 1_555 1_555
C14 C17 1_555 1_555
C15 C9 1_555 1_555
C16 C17 1_555 1_555
C17 H4 1_555 1_555
C18 C15 1_555 1_555
H1 C13 1_555 1_555
H2 C14 1_555 1_555
H3 C16 1_555 1_555
H5 C18 1_555 1_555
C19 C20 1_555 1_555
C20 C23 1_555 1_555
C21 C5 1_555 1_555
C22 C23 1_555 1_555
C23 H9 1_555 1_555
C24 C21 1_555 1_555
H6 C19 1_555 1_555
H7 C20 1_555 1_555
H8 C22 1_555 1_555
H10 C24 1_555 1_555
C25 C26 1_555 1_555
C26 C29 1_555 1_555
C27 C12 1_555 1_555
C28 C29 1_555 1_555
C29 H14 1_555 1_555
C30 C27 1_555 1_555
H11 C25 1_555 1_555
H12 C26 1_555 1_555
H13 C28 1_555 1_555
H15 C30 1_555 1_555
C31 C32 1_555 1_555
C32 C35 1_555 1_555
C33 C3 1_555 1_555
C34 C35 1_555 1_555
C35 H19 1_555 1_555
C36 C33 1_555 1_555
H16 C31 1_555 1_555
H17 C32 1_555 1_555
H18 C34 1_555 1_555
H20 C36 1_555 1_555
C37 C38 1_555 1_555
C38 C41 1_555 1_555
C39 C37 1_555 1_555
C40 C41 1_555 1_555
C41 H24 1_555 1_555
C42 C39 1_555 1_555
H21 C37 1_555 1_555
H22 C38 1_555 1_555
H23 C40 1_555 1_555
H25 C42 1_555 1_555
C43 C44 1_555 1_555
C44 C47 1_555 1_555
C45 C7 1_555 1_555
C46 C47 1_555 1_555
C47 H29 1_555 1_555
C48 C45 1_555 1_555
H26 C43 1_555 1_555
H27 C44 1_555 1_555
H28 C46 1_555 1_555
H30 C48 1_555 1_555
C49 C50 1_555 1_555
C50 C53 1_555 1_555
C51 C10 1_555 1_555
C52 C53 1_555 1_555
C53 H34 1_555 1_555
C54 C51 1_555 1_555
H31 C49 1_555 1_555
H32 C50 1_555 1_555
H33 C52 1_555 1_555
H35 C54 1_555 1_555
C55 C56 1_555 1_555
C56 C59 1_555 1_555
C57 C8 1_555 1_555
C58 C59 1_555 1_555
C59 H39 1_555 1_555
C60 C57 1_555 1_555
H36 C55 1_555 1_555
H37 C56 1_555 1_555
H38 C58 1_555 1_555
H40 C60 1_555 1_555
C61 C62 1_555 1_555
C62 C65 1_555 1_555
C63 C11 1_555 1_555
C64 C65 1_555 1_555
C65 H44 1_555 1_555
C66 C63 1_555 1_555
H41 C61 1_555 1_555
H42 C62 1_555 1_555
H43 C64 1_555 1_555
H45 C66 1_555 1_555
C67 C68 1_555 1_555
C68 C71 1_555 1_555
C69 C4 1_555 1_555
C70 C71 1_555 1_555
C71 H49 1_555 1_555
C72 C69 1_555 1_555
H46 C67 1_555 1_555
H47 C68 1_555 1_555
H48 C70 1_555 1_555
H50 C72 1_555 1_555
C73 C74 1_555 1_555
C74 C77 1_555 1_555
C75 C73 1_555 1_555
C76 C77 1_555 1_555
C77 H54 1_555 1_555
C78 C75 1_555 1_555
H51 C73 1_555 1_555
H52 C74 1_555 1_555
H53 C76 1_555 1_555
H55 C78 1_555 1_555
C79 C80 1_555 1_555
C80 C83 1_555 1_555
C81 C6 1_555 1_555
C82 C83 1_555 1_555
C83 H59 1_555 1_555
C84 C81 1_555 1_555
H56 C79 1_555 1_555
H57 C80 1_555 1_555
H58 C82 1_555 1_555
H60 C84 1_555 1_555
Th1B O4 1_555 1_555
Th3B O18 1_555 1_555
O4B Th1 1_555 1_555
O12B Th1 1_555 1_555
O18B Th3 1_555 1_555
O21B Th3 1_555 1_555
O9 C5 1_555 1_555
O12 Th1B 1_555 1_555
O13 C3 1_555 1_555
O16 C9 1_555 1_555
O17 C6 1_555 1_555
O19 C7 1_555 1_555
O21 Th3B 1_555 1_555
O22 C8 1_555 1_555
O24 C12 1_555 1_555
C13 C15 1_555 1_555
C16 C18 1_555 1_555
C19 C21 1_555 1_555
C22 C24 1_555 1_555
C25 C27 1_555 1_555
C28 C30 1_555 1_555
C31 C33 1_555 1_555
C34 C36 1_555 1_555
C40 C42 1_555 1_555
C43 C45 1_555 1_555
C46 C48 1_555 1_555
C49 C51 1_555 1_555
C52 C54 1_555 1_555
C55 C57 1_555 1_555
C58 C60 1_555 1_555
C61 C63 1_555 1_555
C64 C66 1_555 1_555
C67 C69 1_555 1_555
C70 C72 1_555 1_555
C76 C78 1_555 1_555
C79 C81 1_555 1_555
C82 C84 1_555 1_555

#END
