
#######################################################################
#
#                 Cambridge Crystallographic Data Centre
#                                CCDC 
#
#######################################################################
#
# If this CIF has been generated from an entry in the Cambridge 
# Structural Database, then it will include bibliographic, chemical, 
# crystal, experimental, refinement or atomic coordinate data resulting 
# from the CCDC's data processing and validation procedures.
#
#######################################################################

data_TIZNIB
_symmetry_cell_setting           monoclinic
_symmetry_space_group_name_H-M   'P 21/c'
_symmetry_Int_Tables_number      14
_space_group_name_Hall           '-P 2ybc'
loop_
_symmetry_equiv_pos_site_id
_symmetry_equiv_pos_as_xyz
1 x,y,z
2 -x,1/2+y,1/2-z
3 -x,-y,-z
4 x,1/2-y,1/2+z
_cell_length_a                   7.2155(8)
_cell_length_b                   11.6633(12)
_cell_length_c                   18.314(2)
_cell_angle_alpha                90
_cell_angle_beta                 97.853(10)
_cell_angle_gamma                90
_cell_volume                     1526.79
loop_
_atom_site_label
_atom_site_type_symbol
_atom_site_fract_x
_atom_site_fract_y
_atom_site_fract_z
C1 C 1.6154(10) 0.4875(6) 0.5872(5)
H1 H 1.6651 0.5599 0.5987
C2 C 1.7081(10) 0.4132(6) 0.5448(4)
H2 H 1.8192 0.4370 0.5290
C3 C 1.4843(10) 0.2794(6) 0.5496(4)
H3 H 1.4345 0.2072 0.5378
C4 C 1.3912(10) 0.3534(6) 0.5912(4)
C5 C 1.2146(11) 0.3164(5) 0.6194(4)
C6 C 1.0047(10) 0.3867(6) 0.7079(4)
C7 C 0.8809(10) 0.2966(6) 0.7051(4)
H4 H 0.8947 0.2338 0.6751
C8 C 0.7325(10) 0.3000(6) 0.7482(4)
C9 C 0.5987(12) 0.2108(7) 0.7440(5)
H5 H 0.6080 0.1485 0.7131
C10 C 0.4543(13) 0.2167(8) 0.7858(5)
H6 H 0.3677 0.1573 0.7836
C11 C 0.4358(14) 0.3105(8) 0.8316(5)
H7 H 0.3361 0.3137 0.8589
C12 C 0.5643(12) 0.3980(7) 0.8365(5)
H8 H 0.5532 0.4595 0.8679
C13 C 0.7107(10) 0.3948(6) 0.7947(4)
C14 C 0.8459(11) 0.4836(6) 0.7976(4)
H9 H 0.8388 0.5451 0.8293
C15 C 0.9854(11) 0.4806(6) 0.7548(5)
H10 H 1.0696 0.5413 0.7564
N1 N 1.4588(9) 0.4568(5) 0.6112(4)
N2 N 1.6422(10) 0.3099(6) 0.5264(4)
N3 N 1.1527(8) 0.3932(5) 0.6656(4)
H11 H 1.2141 0.4566 0.6698
O1 O 1.1382(7) 0.2253(4) 0.6012(3)
Hg1 Hg 0.88739(4) 0.16858(2) 0.477975(16)
Cl1 Cl 0.7691(3) 0.01522(17) 0.53573(14)
Cl2 Cl 1.0125(3) 0.31275(19) 0.41448(14)
N2_2 N 0.6422(10) 0.3099(6) 0.5264(4)
Hg1_2 Hg 1.88739(4) 0.16858(2) 0.477975(16)
loop_
_geom_bond_atom_site_label_1
_geom_bond_atom_site_label_2
_geom_bond_site_symmetry_1
_geom_bond_site_symmetry_2
C1 H1 1_555 1_555
C2 C1 1_555 1_555
H2 C2 1_555 1_555
C3 H3 1_555 1_555
C4 C3 1_555 1_555
C5 C4 1_555 1_555
C6 C7 1_555 1_555
C7 H4 1_555 1_555
C8 C7 1_555 1_555
C9 C8 1_555 1_555
H5 C9 1_555 1_555
C10 C9 1_555 1_555
H6 C10 1_555 1_555
C11 C10 1_555 1_555
H7 C11 1_555 1_555
C12 C11 1_555 1_555
H8 C12 1_555 1_555
C13 C8 1_555 1_555
C14 C13 1_555 1_555
H9 C14 1_555 1_555
C15 C6 1_555 1_555
H10 C15 1_555 1_555
N1 C1 1_555 1_555
N2 C2 1_555 1_555
N3 C5 1_555 1_555
H11 N3 1_555 1_555
O1 C5 1_555 1_555
Hg1 O1 1_555 1_555
Cl1 Hg1 1_555 1_555
Cl2 Hg1 1_555 1_555
N2_2 Hg1 1_555 1_555
Hg1_2 N2 1_555 1_555
C3 N2 1_555 1_555
C4 N1 1_555 1_555
C6 N3 1_555 1_555
C12 C13 1_555 1_555
C14 C15 1_555 1_555

#END
