
#######################################################################
#
#                 Cambridge Crystallographic Data Centre
#                                CCDC 
#
#######################################################################
#
# If this CIF has been generated from an entry in the Cambridge 
# Structural Database, then it will include bibliographic, chemical, 
# crystal, experimental, refinement or atomic coordinate data resulting 
# from the CCDC's data processing and validation procedures.
#
#######################################################################

data_TIZPUP
_symmetry_cell_setting           monoclinic
_symmetry_space_group_name_H-M   'P 21/c'
_symmetry_Int_Tables_number      14
_space_group_name_Hall           '-P 2ybc'
loop_
_symmetry_equiv_pos_site_id
_symmetry_equiv_pos_as_xyz
1 x,y,z
2 -x,1/2+y,1/2-z
3 -x,-y,-z
4 x,1/2-y,1/2+z
_cell_length_a                   15.1098(19)
_cell_length_b                   9.1791(11)
_cell_length_c                   23.866(3)
_cell_angle_alpha                90
_cell_angle_beta                 101.424(3)
_cell_angle_gamma                90
_cell_volume                     3244.5
loop_
_atom_site_label
_atom_site_type_symbol
_atom_site_fract_x
_atom_site_fract_y
_atom_site_fract_z
Cu1 Cu 0.28682(3) 0.20245(5) 0.253606(16)
N1 N 0.1657(2) 0.1855(3) 0.27348(13)
N2 N 0.0295(2) 0.1024(3) 0.27088(13)
N3 N -0.4411(2) 0.1736(5) 0.25996(14)
N4 N -0.5889(2) 0.1776(3) 0.24165(13)
O1 O 0.24155(17) 0.1007(3) 0.18225(10)
O2 O 0.2320(2) 0.3186(3) 0.14106(12)
O3 O 0.0334(3) -0.0258(5) -0.11733(13)
O4 O 0.32635(17) 0.3331(3) 0.31733(10)
O5 O 0.35268(19) 0.1432(3) 0.37623(11)
O6 O 0.4180(2) 0.6543(4) 0.60217(12)
C1 C 0.2222(3) 0.1843(5) 0.13874(15)
C2 C 0.1851(3) 0.1106(5) 0.08271(15)
C3 C 0.1644(3) 0.1929(5) 0.03310(17)
H1 H 0.1774 0.2920 0.0341
C4 C 0.1248(3) 0.1276(5) -0.01748(17)
H2 H 0.1108 0.1829 -0.0507
C5 C 0.1057(3) -0.0200(5) -0.01930(17)
C6 C 0.1276(3) -0.1034(5) 0.03048(17)
H3 H 0.1157 -0.2029 0.0295
C7 C 0.1669(3) -0.0369(5) 0.08119(16)
H4 H 0.1813 -0.0917 0.1145
C8 C 0.0594(3) -0.0888(6) -0.0730(2)
H5 H 0.0495 -0.1887 -0.0725
C9 C 0.3448(2) 0.2755(4) 0.36710(14)
C10 C 0.3543(2) 0.3812(4) 0.41609(14)
C11 C 0.3229(3) 0.5228(4) 0.40673(15)
H6 H 0.2979 0.5532 0.3698
C12 C 0.3284(3) 0.6189(4) 0.45183(16)
H7 H 0.3053 0.7127 0.4457
C13 C 0.3688(3) 0.5741(4) 0.50633(15)
C14 C 0.4008(3) 0.4333(4) 0.51600(15)
H8 H 0.4273 0.4037 0.5528
C15 C 0.3933(3) 0.3368(4) 0.47106(16)
H9 H 0.4144 0.2419 0.4775
C16 C 0.3785(3) 0.6803(5) 0.55388(17)
H10 H 0.3529 0.7721 0.5463
C17 C 0.0974(2) 0.1104(4) 0.24333(15)
H11 H 0.0972 0.0692 0.2077
C18 C 0.0536(3) 0.1764(4) 0.32175(16)
H12 H 0.0191 0.1889 0.3496
C19 C 0.1378(3) 0.2269(4) 0.32274(16)
H13 H 0.1718 0.2814 0.3522
C20 C -0.0566(2) 0.0278(4) 0.25017(19)
H14 H -0.0666 -0.0427 0.2786
H15 H -0.0531 -0.0250 0.2155
C21 C -0.1355(2) 0.1314(4) 0.23814(16)
C22 C -0.2054(3) 0.1160(5) 0.26740(16)
H16 H -0.2025 0.0425 0.2945
C23 C -0.2791(3) 0.2075(6) 0.25715(17)
C24 C -0.2835(3) 0.3166(5) 0.21622(19)
H17 H -0.3328 0.3794 0.2091
C25 C -0.2146(3) 0.3320(5) 0.18592(19)
H18 H -0.2185 0.4030 0.1577
C26 C -0.1402(3) 0.2415(5) 0.19779(16)
H19 H -0.0929 0.2544 0.1786
C27 C -0.3493(3) 0.1916(10) 0.2931(2)
H20 H -0.3344 0.1079 0.3180
H21 H -0.3477 0.2772 0.3172
C28 C -0.5161(3) 0.2189(5) 0.27730(16)
H22 H -0.5161 0.2726 0.3103
C29 C -0.5587(3) 0.0993(5) 0.19942(19)
H23 H -0.5955 0.0551 0.1682
C30 C -0.4677(3) 0.0974(6) 0.21066(19)
H24 H -0.4305 0.0527 0.1890
Cu1_2 Cu -0.71318(3) 0.20245(5) 0.253606(16)
N4_2 N 0.4111(2) 0.1776(3) 0.24165(13)
O7 O 0.3498(3) 0.4472(5) 0.07575(17)
H25 H 0.3184 0.4233 0.0985
C31 C 0.4479(6) 0.4366(9) 0.1045(3)
H26 H 0.4851 0.4488 0.0765
H27 H 0.4593 0.3429 0.1223
H28 H 0.4618 0.5115 0.1330
O8 O 0.2751(3) -0.0029(4) 0.45997(14)
H29 H 0.2398 0.0636 0.4440
H30 H 0.3289 0.0295 0.4676
O9 O 0.0975(3) 0.5452(5) 0.96910(19)
H31 H 0.0670 0.4818 0.9831
H32 H 0.0954 0.5268 0.9340
O10 O 0.0810(3) 0.5226(5) 0.08541(16)
H33 H 0.1094 0.4828 0.1159
H34 H 0.1173 0.5747 0.0709
loop_
_geom_bond_atom_site_label_1
_geom_bond_atom_site_label_2
_geom_bond_site_symmetry_1
_geom_bond_site_symmetry_2
Cu1 N1 1_555 1_555
N1 C17 1_555 1_555
N2 C17 1_555 1_555
N3 C27 1_555 1_555
N4 C28 1_555 1_555
O1 Cu1 1_555 1_555
O2 C1 1_555 1_555
O3 C8 1_555 1_555
O4 Cu1 1_555 1_555
O5 C9 1_555 1_555
O6 C16 1_555 1_555
C1 O1 1_555 1_555
C2 C1 1_555 1_555
C3 C2 1_555 1_555
H1 C3 1_555 1_555
C4 C3 1_555 1_555
H2 C4 1_555 1_555
C5 C4 1_555 1_555
C6 C5 1_555 1_555
H3 C6 1_555 1_555
C7 C2 1_555 1_555
H4 C7 1_555 1_555
C8 C5 1_555 1_555
H5 C8 1_555 1_555
C9 O4 1_555 1_555
C10 C9 1_555 1_555
C11 C10 1_555 1_555
H6 C11 1_555 1_555
C12 C11 1_555 1_555
H7 C12 1_555 1_555
C13 C12 1_555 1_555
C14 C13 1_555 1_555
H8 C14 1_555 1_555
C15 C10 1_555 1_555
H9 C15 1_555 1_555
C16 C13 1_555 1_555
H10 C16 1_555 1_555
C17 H11 1_555 1_555
C18 N2 1_555 1_555
H12 C18 1_555 1_555
C19 N1 1_555 1_555
H13 C19 1_555 1_555
C20 N2 1_555 1_555
H14 C20 1_555 1_555
H15 C20 1_555 1_555
C21 C20 1_555 1_555
C22 C21 1_555 1_555
H16 C22 1_555 1_555
C23 C22 1_555 1_555
C24 C23 1_555 1_555
H17 C24 1_555 1_555
C25 C24 1_555 1_555
H18 C25 1_555 1_555
C26 C21 1_555 1_555
H19 C26 1_555 1_555
C27 C23 1_555 1_555
H20 C27 1_555 1_555
H21 C27 1_555 1_555
C28 N3 1_555 1_555
H22 C28 1_555 1_555
C29 N4 1_555 1_555
H23 C29 1_555 1_555
C30 N3 1_555 1_555
H24 C30 1_555 1_555
O7 H25 1_555 1_555
C31 O7 1_555 1_555
H26 C31 1_555 1_555
H27 C31 1_555 1_555
H28 C31 1_555 1_555
O8 H29 1_555 1_555
H30 O8 1_555 1_555
O9 H31 1_555 1_555
H32 O9 1_555 1_555
O10 H33 1_555 1_555
H34 O10 1_555 1_555
Cu1_2 N4 1_555 1_555
N4_2 Cu1 1_555 1_555
C6 C7 1_555 1_555
C14 C15 1_555 1_555
C18 C19 1_555 1_555
C25 C26 1_555 1_555
C29 C30 1_555 1_555

#END
