
#######################################################################
#
#                 Cambridge Crystallographic Data Centre
#                                CCDC 
#
#######################################################################
#
# If this CIF has been generated from an entry in the Cambridge 
# Structural Database, then it will include bibliographic, chemical, 
# crystal, experimental, refinement or atomic coordinate data resulting 
# from the CCDC's data processing and validation procedures.
#
#######################################################################

data_TIZPIC
_symmetry_cell_setting           monoclinic
_symmetry_space_group_name_H-M   'P 21/c'
_symmetry_Int_Tables_number      14
_space_group_name_Hall           '-P 2ybc'
loop_
_symmetry_equiv_pos_site_id
_symmetry_equiv_pos_as_xyz
1 x,y,z
2 -x,1/2+y,1/2-z
3 -x,-y,-z
4 x,1/2-y,1/2+z
_cell_length_a                   13.9838(18)
_cell_length_b                   21.694(3)
_cell_length_c                   11.6684(15)
_cell_angle_alpha                90
_cell_angle_beta                 93.150(2)
_cell_angle_gamma                90
_cell_volume                     3534.43
loop_
_atom_site_label
_atom_site_type_symbol
_atom_site_fract_x
_atom_site_fract_y
_atom_site_fract_z
Cu1 Cu 0.89451(12) 0.69316(7) 0.31532(14)
Cu2 Cu 0.38755(13) 0.80627(7) 0.18874(16)
Cu3 Cu 0.51865(7) 1.05333(4) 0.27155(9)
Cu4 Cu 0.95781(7) 0.94832(4) 0.24957(9)
O1 O 0.8621(5) 0.7924(3) 0.3899(5)
O2 O 1.0142(4) 0.7692(3) 0.2629(6)
O3 O 1.0205(5) 0.8686(3) 0.2149(5)
O4 O 0.4946(5) 0.8697(3) 0.2991(6)
O5 O 0.3492(5) 0.9159(3) 0.1619(7)
O6 O 0.4078(4) 1.0110(3) 0.1935(6)
O7 O 1.3598(5) 0.7084(3) 0.1048(5)
O8 O 1.5202(5) 0.7343(3) 0.2326(6)
O9 O 1.5472(4) 0.6329(3) 0.2606(5)
O10 O 1.0027(4) 0.6314(3) 0.2116(5)
O11 O 0.8815(5) 0.5841(3) 0.3609(6)
O12 O 0.9441(5) 0.4910(3) 0.3366(6)
O13 O 0.8264(6) 0.7252(4) 0.1333(6)
H1 H 0.7659 0.7280 0.1221
H2 H 0.8627 0.7339 0.0795
O14 O 0.7293(5) 0.6877(3) 0.3626(7)
H3 H 0.6851 0.6968 0.3126
H4 H 0.7153 0.6766 0.4295
O15 O 0.9964(6) 0.6880(3) 0.4851(6)
H5 H 0.9729 0.6847 0.5505
H6 H 1.0568 0.6896 0.4802
O16 O 0.4720(10) 0.8268(5) 0.0199(8)
H7 H 0.4417 0.8328 -0.0442
H8 H 0.5329 0.8279 0.0245
O17 O 0.2194(5) 0.8071(3) 0.1427(8)
H9 H 0.1984 0.8139 0.0741
H10 H 0.1805 0.8005 0.1948
O18 O 0.3381(6) 0.7669(4) 0.3644(6)
H11 H 0.3709 0.7392 0.3999
H12 H 0.2872 0.7805 0.3920
O19 O 0.6016(8) 1.0490(5) 0.1033(8)
H13 H 0.5952 1.0778 0.0541
H14 H 0.6378 1.0185 0.0909
O20 O 0.8442(6) 0.9521(4) 0.0913(7)
H15 H 0.8590 0.9686 0.0287
H16 H 0.7888 0.9366 0.0971
N1 N 0.8794(5) 0.8967(3) 0.3446(6)
N2 N 0.5512(5) 0.9696(3) 0.3239(6)
N3 N 1.3871(5) 0.6048(3) 0.1443(6)
N4 N 1.0637(5) 0.5326(3) 0.1925(6)
C1 C 0.9877(6) 0.8226(4) 0.2686(7)
C2 C 0.9036(5) 0.8374(4) 0.3428(7)
C3 C 0.7956(6) 0.9123(3) 0.4030(7)
C4 C 0.7945(6) 0.9108(4) 0.5217(7)
H17 H 0.8487 0.8986 0.5655
C5 C 0.7125(7) 0.9276(5) 0.5746(8)
H18 H 0.7116 0.9262 0.6542
C6 C 0.6314(6) 0.9466(4) 0.5100(8)
H19 H 0.5767 0.9586 0.5459
C7 C 0.6332(6) 0.9475(4) 0.3926(7)
C8 C 0.7157(6) 0.9308(4) 0.3378(8)
H20 H 0.7167 0.9321 0.2582
C9 C 0.4908(6) 0.9261(4) 0.2834(7)
C10 C 0.4090(6) 0.9536(4) 0.2073(7)
C11 C 1.4997(6) 0.6790(4) 0.2173(8)
C12 C 1.4084(6) 0.6647(4) 0.1477(7)
C13 C 1.2939(5) 0.5892(3) 0.0906(7)
C14 C 1.2759(6) 0.5916(4) -0.0261(7)
H21 H 1.3240 0.6031 -0.0737
C15 C 1.1850(7) 0.5768(5) -0.0729(8)
H22 H 1.1720 0.5794 -0.1518
C16 C 1.1138(7) 0.5581(4) -0.0022(8)
H23 H 1.0530 0.5484 -0.0332
C17 C 1.1343(6) 0.5541(3) 0.1148(7)
C18 C 1.2247(6) 0.5704(4) 0.1625(7)
H24 H 1.2378 0.5685 0.2415
C19 C 1.0057(6) 0.5750(4) 0.2324(7)
C20 C 0.9362(6) 0.5478(4) 0.3176(8)
Cu2_2 Cu 1.38755(13) 0.80627(7) 0.18874(16)
Cu3A Cu 1.48135(7) 0.55333(4) 0.22845(9)
Cu4A Cu 1.04219(7) 0.44832(4) 0.25043(9)
O7_2 O 0.3598(5) 0.7084(3) 0.1048(5)
O8_2 O 0.5202(5) 0.7343(3) 0.2326(6)
O9A O 0.4528(4) 1.1329(3) 0.2394(5)
O12A O 1.0559(5) 0.9910(3) 0.1634(6)
N3A N 0.6129(5) 1.1048(3) 0.3557(6)
N4A N 0.9363(5) 1.0326(3) 0.3075(6)
O21 O 0.6139(8) 0.7866(4) 0.4520(9)
O22 O 0.6822(8) 0.8078(5) 0.1595(13)
O23 O 0.1039(6) 0.7912(3) 0.5587(7)
O24 O 0.1809(8) 0.9294(5) 0.0154(9)
O25 O 0.8102(8) 0.1872(6) 0.1465(10)
O26 O 0.3775(9) 0.0757(6) 0.9804(9)
loop_
_geom_bond_atom_site_label_1
_geom_bond_atom_site_label_2
_geom_bond_site_symmetry_1
_geom_bond_site_symmetry_2
Cu1 O1 1_555 1_555
Cu2 O4 1_555 1_555
Cu3 O6 1_555 1_555
Cu4 O3 1_555 1_555
O1 C2 1_555 1_555
O2 Cu1 1_555 1_555
O3 C1 1_555 1_555
O4 C9 1_555 1_555
O5 Cu2 1_555 1_555
O6 C10 1_555 1_555
O7 C12 1_555 1_555
O8 C11 1_555 1_555
O9 C11 1_555 1_555
O10 Cu1 1_555 1_555
O11 Cu1 1_555 1_555
O12 C20 1_555 1_555
O13 Cu1 1_555 1_555
H1 O13 1_555 1_555
H2 O13 1_555 1_555
O14 Cu1 1_555 1_555
H3 O14 1_555 1_555
H4 O14 1_555 1_555
O15 Cu1 1_555 1_555
H5 O15 1_555 1_555
H6 O15 1_555 1_555
O16 Cu2 1_555 1_555
H7 O16 1_555 1_555
H8 O16 1_555 1_555
O17 Cu2 1_555 1_555
H9 O17 1_555 1_555
H10 O17 1_555 1_555
O18 Cu2 1_555 1_555
H11 O18 1_555 1_555
H12 O18 1_555 1_555
O19 Cu3 1_555 1_555
H13 O19 1_555 1_555
H14 O19 1_555 1_555
O20 Cu4 1_555 1_555
H15 O20 1_555 1_555
H16 O20 1_555 1_555
N1 Cu4 1_555 1_555
N2 Cu3 1_555 1_555
N3 C12 1_555 1_555
N4 C17 1_555 1_555
C1 O2 1_555 1_555
C2 N1 1_555 1_555
C3 N1 1_555 1_555
C4 C3 1_555 1_555
H17 C4 1_555 1_555
C5 C4 1_555 1_555
H18 C5 1_555 1_555
C6 C5 1_555 1_555
H19 C6 1_555 1_555
C7 N2 1_555 1_555
C8 C3 1_555 1_555
H20 C8 1_555 1_555
C9 N2 1_555 1_555
C10 O5 1_555 1_555
C11 C12 1_555 1_555
C13 N3 1_555 1_555
C14 C13 1_555 1_555
H21 C14 1_555 1_555
C15 C14 1_555 1_555
H22 C15 1_555 1_555
C16 C15 1_555 1_555
H23 C16 1_555 1_555
C17 C16 1_555 1_555
C18 C13 1_555 1_555
H24 C18 1_555 1_555
C19 O10 1_555 1_555
C20 O11 1_555 1_555
Cu2_2 O7 1_555 1_555
Cu3A O9 1_555 1_555
Cu4A O12 1_555 1_555
O7_2 Cu2 1_555 1_555
O8_2 Cu2 1_555 1_555
O9A Cu3 1_555 1_555
O12A Cu4 1_555 1_555
N3A Cu3 1_555 1_555
N4A Cu4 1_555 1_555
O8 Cu2_2 1_555 1_555
N3 Cu3A 1_555 1_555
N4 C19 1_555 1_555
N4 Cu4A 1_555 1_555
C1 C2 1_555 1_555
C6 C7 1_555 1_555
C7 C8 1_555 1_555
C9 C10 1_555 1_555
C17 C18 1_555 1_555
C19 C20 1_555 1_555

#END
