
#######################################################################
#
#                 Cambridge Crystallographic Data Centre
#                                CCDC 
#
#######################################################################
#
# If this CIF has been generated from an entry in the Cambridge 
# Structural Database, then it will include bibliographic, chemical, 
# crystal, experimental, refinement or atomic coordinate data resulting 
# from the CCDC's data processing and validation procedures.
#
#######################################################################

data_TIZQIE
_symmetry_cell_setting           triclinic
_symmetry_space_group_name_H-M   'P -1'
_symmetry_Int_Tables_number      2
_space_group_name_Hall           '-P 1'
loop_
_symmetry_equiv_pos_site_id
_symmetry_equiv_pos_as_xyz
1 x,y,z
2 -x,-y,-z
_cell_length_a                   7.832(4)
_cell_length_b                   8.407(5)
_cell_length_c                   10.143(6)
_cell_angle_alpha                84.772(8)
_cell_angle_beta                 83.075(7)
_cell_angle_gamma                80.351(7)
_cell_volume                     651.883
loop_
_atom_site_label
_atom_site_type_symbol
_atom_site_fract_x
_atom_site_fract_y
_atom_site_fract_z
Cu1 Cu 0.5000 0.5000 0.0000
O1 O 0.6951(3) 0.5103(2) 0.0968(2)
O2 O 0.5058(3) 0.6730(3) 0.2174(3)
O3 O 1.1919(5) 0.7915(4) 0.5594(3)
N1 N 0.4352(3) 0.3198(3) 0.1226(2)
N2 N 0.3081(3) 0.1166(3) 0.2047(2)
C1 C 0.6528(4) 0.6040(3) 0.1886(3)
C2 C 0.7966(4) 0.6275(3) 0.2642(3)
C3 C 0.9638(4) 0.5531(4) 0.2315(3)
H1 H 0.9881 0.4861 0.1613
C4 C 1.0948(4) 0.5766(4) 0.3009(3)
H2 H 1.2080 0.5259 0.2773
C5 C 1.0619(4) 0.6734(4) 0.4045(3)
C6 C 0.8958(5) 0.7475(5) 0.4363(4)
H3 H 0.8716 0.8151 0.5061
C7 C 0.7648(4) 0.7241(5) 0.3675(4)
H4 H 0.6518 0.7750 0.3915
C8 C 1.2029(5) 0.6972(5) 0.4780(4)
H5 H 1.3105 0.6331 0.4593
C9 C 0.5070(4) 0.2537(4) 0.2348(3)
H6 H 0.5964 0.2896 0.2705
C10 C 0.4288(4) 0.1296(4) 0.2851(3)
H7 H 0.4530 0.0640 0.3617
C11 C 0.3148(4) 0.2335(3) 0.1088(3)
H8 H 0.2432 0.2521 0.0403
C12 C 0.1901(4) -0.0046(4) 0.2230(3)
H9 H 0.2579 -0.1113 0.2370
H10 H 0.1094 0.0157 0.3022
C13 C 0.0910(4) -0.0027(3) 0.1087(3)
C14 C 0.1567(5) -0.0947(4) 0.0061(4)
H11 H 0.2640 -0.1611 0.0093
C15 C -0.0672(5) 0.0914(5) 0.1024(4)
H12 H -0.1153 0.1543 0.1725
N1A N -0.4352(3) -0.3198(3) -0.1226(2)
N2A N -0.3081(3) -0.1166(3) -0.2047(2)
C9A C -0.5070(4) -0.2537(4) -0.2348(3)
H6A H -0.5964 -0.2896 -0.2705
C10A C -0.4288(4) -0.1296(4) -0.2851(3)
H7A H -0.4530 -0.0640 -0.3617
C11A C -0.3148(4) -0.2335(3) -0.1088(3)
H8A H -0.2432 -0.2521 -0.0403
C12A C -0.1901(4) 0.0046(4) -0.2230(3)
H9A H -0.2579 0.1113 -0.2370
H10A H -0.1094 -0.0157 -0.3022
C13A C -0.0910(4) 0.0027(3) -0.1087(3)
C14A C -0.1567(5) 0.0947(4) -0.0061(4)
H11A H -0.2640 0.1611 -0.0093
C15A C 0.0672(5) -0.0914(5) -0.1024(4)
H12A H 0.1153 -0.1543 -0.1725
O1A O 0.3049(3) 0.4897(2) -0.0968(2)
O2A O 0.4942(3) 0.3270(3) -0.2174(3)
O3A O -0.1919(5) 0.2085(4) -0.5594(3)
C1A C 0.3472(4) 0.3960(3) -0.1886(3)
C2A C 0.2034(4) 0.3725(3) -0.2642(3)
C3A C 0.0362(4) 0.4469(4) -0.2315(3)
H1A H 0.0119 0.5139 -0.1613
C4A C -0.0948(4) 0.4234(4) -0.3009(3)
H2A H -0.2080 0.4741 -0.2773
C5A C -0.0619(4) 0.3266(4) -0.4045(3)
C6A C 0.1042(5) 0.2525(5) -0.4363(4)
H3A H 0.1284 0.1849 -0.5061
C7A C 0.2352(4) 0.2759(5) -0.3675(4)
H4A H 0.3482 0.2250 -0.3915
C8A C -0.2029(5) 0.3028(5) -0.4780(4)
H5A H -0.3105 0.3669 -0.4593
Cu1_2 Cu -0.5000 -0.5000 0.0000
N1A_2 N 0.5648(3) 0.6802(3) -0.1226(2)
loop_
_geom_bond_atom_site_label_1
_geom_bond_atom_site_label_2
_geom_bond_site_symmetry_1
_geom_bond_site_symmetry_2
Cu1 O1 1_555 1_555
O1 C1 1_555 1_555
O2 Cu1 1_555 1_555
O3 C8 1_555 1_555
N1 Cu1 1_555 1_555
N2 C10 1_555 1_555
C1 O2 1_555 1_555
C2 C1 1_555 1_555
C3 C2 1_555 1_555
H1 C3 1_555 1_555
C4 C3 1_555 1_555
H2 C4 1_555 1_555
C5 C4 1_555 1_555
C6 C5 1_555 1_555
H3 C6 1_555 1_555
C7 C2 1_555 1_555
H4 C7 1_555 1_555
C8 C5 1_555 1_555
H5 C8 1_555 1_555
C9 N1 1_555 1_555
H6 C9 1_555 1_555
C10 C9 1_555 1_555
H7 C10 1_555 1_555
C11 N1 1_555 1_555
H8 C11 1_555 1_555
C12 N2 1_555 1_555
H9 C12 1_555 1_555
H10 C12 1_555 1_555
C13 C12 1_555 1_555
C14 C13 1_555 1_555
H11 C14 1_555 1_555
C15 C13 1_555 1_555
H12 C15 1_555 1_555
N1A C9A 1_555 1_555
N2A C10A 1_555 1_555
C9A H6A 1_555 1_555
C10A C9A 1_555 1_555
H7A C10A 1_555 1_555
C11A N1A 1_555 1_555
H8A C11A 1_555 1_555
C12A N2A 1_555 1_555
H9A C12A 1_555 1_555
H10A C12A 1_555 1_555
C13A C12A 1_555 1_555
C14A C15 1_555 1_555
H11A C14A 1_555 1_555
C15A C14 1_555 1_555
H12A C15A 1_555 1_555
O1A Cu1 1_555 1_555
O2A Cu1 1_555 1_555
O3A C8A 1_555 1_555
C1A O1A 1_555 1_555
C2A C1A 1_555 1_555
C3A C2A 1_555 1_555
H1A C3A 1_555 1_555
C4A C3A 1_555 1_555
H2A C4A 1_555 1_555
C5A C4A 1_555 1_555
C6A C5A 1_555 1_555
H3A C6A 1_555 1_555
C7A C2A 1_555 1_555
H4A C7A 1_555 1_555
C8A C5A 1_555 1_555
H5A C8A 1_555 1_555
Cu1_2 N1A 1_555 1_555
N1A_2 Cu1 1_555 1_555
N2 C11 1_555 1_555
C6 C7 1_555 1_555
N2A C11A 1_555 1_555
C13A C14A 1_555 1_555
C13A C15A 1_555 1_555
O2A C1A 1_555 1_555
C6A C7A 1_555 1_555

#END
