
#######################################################################
#
#                 Cambridge Crystallographic Data Centre
#                                CCDC 
#
#######################################################################
#
# If this CIF has been generated from an entry in the Cambridge 
# Structural Database, then it will include bibliographic, chemical, 
# crystal, experimental, refinement or atomic coordinate data resulting 
# from the CCDC's data processing and validation procedures.
#
#######################################################################

data_TIZQEA
_symmetry_cell_setting           triclinic
_symmetry_space_group_name_H-M   'P -1'
_symmetry_Int_Tables_number      2
_space_group_name_Hall           '-P 1'
loop_
_symmetry_equiv_pos_site_id
_symmetry_equiv_pos_as_xyz
1 x,y,z
2 -x,-y,-z
_cell_length_a                   12.1079(8)
_cell_length_b                   12.6464(8)
_cell_length_c                   15.5101(10)
_cell_angle_alpha                81.140(2)
_cell_angle_beta                 67.910(2)
_cell_angle_gamma                62.6250(10)
_cell_volume                     1953.65
loop_
_atom_site_label
_atom_site_type_symbol
_atom_site_fract_x
_atom_site_fract_y
_atom_site_fract_z
Cu1 Cu 0.5000 1.0000 1.0000
Cu2 Cu 0.46836(5) 0.77333(5) 0.96723(4)
Cu3 Cu 0.28672(5) 0.95016(5) 1.17266(4)
O1 O 0.4463(4) 0.8728(3) 0.8566(2)
O2 O 0.4977(4) 1.0185(3) 0.8672(3)
O3 O 0.3799(5) 1.2358(5) 0.4475(3)
O4 O 0.3429(3) 1.1645(3) 1.0356(3)
O5 O 0.1911(3) 1.1174(3) 1.1422(3)
O6 O -0.1397(7) 1.7595(5) 1.1228(5)
O7 O 0.3865(3) 0.7862(3) 1.2052(2)
O8 O 0.5011(3) 0.6734(3) 1.0738(2)
O9 O 0.6498(5) 0.2827(4) 1.4581(3)
O10 O 0.1124(4) 0.8907(4) 1.1774(3)
O11 O 0.0322(7) 0.8109(5) 1.3040(4)
O12 O -0.0606(5) 0.9986(5) 1.2874(4)
O13 O 0.2641(4) 0.7500(4) 1.0007(3)
H1 H 0.1979 0.8182 1.0107
H2 H 0.2711 0.7163 0.9543
O14 O 0.3665(3) 0.9171(3) 1.0406(2)
H3 H 0.3127 0.9428 1.0112
N1 N 0.5873(4) 0.6338(3) 0.8820(3)
N2 N 0.7256(4) 0.5294(4) 0.7528(3)
N3 N 0.9263(4) 0.8753(4) 0.5729(3)
N4 N 0.7988(4) 0.9978(4) 0.6944(3)
N5 N 0.0285(5) 0.8990(5) 1.2557(4)
C1 C 0.4615(4) 0.9667(4) 0.8293(3)
C2 C 0.4303(4) 1.0183(4) 0.7430(3)
C3 C 0.3619(6) 0.9824(6) 0.7091(4)
H4 H 0.3346 0.9247 0.7398
C4 C 0.3343(7) 1.0319(6) 0.6302(5)
H5 H 0.2859 1.0090 0.6091
C5 C 0.3765(5) 1.1140(5) 0.5820(4)
C6 C 0.4439(6) 1.1525(5) 0.6167(4)
H6 H 0.4727 1.2088 0.5846
C7 C 0.4676(5) 1.1084(5) 0.6969(4)
H7 H 0.5081 1.1374 0.7212
C8 C 0.3537(7) 1.1621(7) 0.4940(5)
H8 H 0.3132 1.1299 0.4725
C9 C 0.2281(5) 1.1887(4) 1.0917(3)
C10 C 0.1266(5) 1.3161(4) 1.1001(3)
C11 C 0.1627(5) 1.4058(5) 1.0573(4)
H9 H 0.2495 1.3867 1.0178
C12 C 0.0707(6) 1.5219(5) 1.0731(4)
H10 H 0.0963 1.5819 1.0464
C13 C -0.0611(6) 1.5522(5) 1.1287(4)
C14 C -0.0993(5) 1.4619(5) 1.1711(4)
H11 H -0.1868 1.4809 1.2087
C15 C -0.1608(8) 1.6771(6) 1.1474(6)
H12 H -0.2481 1.6913 1.1817
C16 C 0.4616(4) 0.6908(4) 1.1603(3)
C17 C 0.5165(4) 0.5837(4) 1.2161(3)
C18 C 0.5939(5) 0.4706(4) 1.1763(4)
H13 H 0.6162 0.4603 1.1129
C19 C 0.6391(6) 0.3714(5) 1.2299(4)
H14 H 0.6890 0.2957 1.2024
C20 C 0.6100(6) 0.3856(5) 1.3226(4)
C21 C 0.5338(7) 0.4980(5) 1.3636(4)
H15 H 0.5154 0.5080 1.4265
C22 C 0.4854(7) 0.5949(5) 1.3120(4)
H16 H 0.4309 0.6696 1.3411
C23 C 0.6618(7) 0.2808(6) 1.3780(5)
H17 H 0.7078 0.2066 1.3481
C24 C 0.6405(5) 0.5147(4) 0.9022(4)
H18 H 0.6201 0.4841 0.9615
C25 C 0.7247(5) 0.4502(5) 0.8256(3)
H19 H 0.7738 0.3678 0.8211
C26 C 0.6406(5) 0.6378(5) 0.7909(4)
H20 H 0.6213 0.7076 0.7573
C27 C 0.8064(6) 0.5011(5) 0.6555(4)
H21 H 0.7531 0.5484 0.6177
H22 H 0.8349 0.4178 0.6434
C28 C 0.9272(5) 0.5240(5) 0.6272(3)
C29 C 1.0460(6) 0.4369(5) 0.6370(4)
H23 H 1.0501 0.3645 0.6631
C30 C 1.1548(6) 0.4569(5) 0.6089(5)
H24 H 1.2345 0.3970 0.6127
C31 C 1.1471(6) 0.5652(6) 0.5749(4)
H25 H 1.2210 0.5795 0.5598
C32 C 1.0342(6) 0.6542(5) 0.5623(3)
C33 C 0.9233(5) 0.6322(5) 0.5896(3)
H26 H 0.8452 0.6911 0.5826
C34 C 1.0317(6) 0.7699(5) 0.5169(4)
H27 H 1.1164 0.7697 0.5049
H28 H 1.0207 0.7742 0.4575
C35 C 0.8869(5) 0.8872(5) 0.6653(3)
H29 H 0.9173 0.8256 0.7043
C36 C 0.8627(5) 0.9855(5) 0.5398(4)
H30 H 0.8712 1.0054 0.4781
C37 C 0.7860(5) 1.0584(5) 0.6148(3)
H31 H 0.7314 1.1391 0.6131
C38 C -0.0055(5) 1.3450(5) 1.1563(4)
H32 H -0.0301 1.2847 1.1838
Cu2A Cu 0.53164(5) 1.22667(5) 1.03277(4)
Cu3A Cu 0.71328(5) 1.04984(5) 0.82734(4)
O1A O 0.5537(4) 1.1272(3) 1.1434(2)
O2A O 0.5023(4) 0.9815(3) 1.1328(3)
O3A O 0.6201(5) 0.7642(5) 1.5525(3)
O4A O 0.6571(3) 0.8355(3) 0.9644(3)
O5A O 0.8089(3) 0.8826(3) 0.8578(3)
O6A O 1.1397(7) 0.2405(5) 0.8772(5)
O7A O 0.6135(3) 1.2138(3) 0.7948(2)
O8A O 0.4989(3) 1.3266(3) 0.9262(2)
O9A O 0.3502(5) 1.7173(4) 0.5419(3)
O10A O 0.8876(4) 1.1093(4) 0.8226(3)
O11A O 0.9678(7) 1.1891(5) 0.6960(4)
O12A O 1.0606(5) 1.0014(5) 0.7126(4)
O13A O 0.7359(4) 1.2500(4) 0.9993(3)
H1A H 0.8021 1.1818 0.9893
H2A H 0.7289 1.2837 1.0457
O14A O 0.6335(3) 1.0829(3) 0.9594(2)
H3A H 0.6873 1.0572 0.9888
N1A N 0.4127(4) 1.3662(3) 1.1180(3)
N2A N 0.2744(4) 1.4706(4) 1.2472(3)
N3A N 0.0737(4) 1.1247(4) 1.4271(3)
N4A N 0.2012(4) 1.0022(4) 1.3056(3)
N5A N 0.9715(5) 1.1010(5) 0.7443(4)
C1A C 0.5385(4) 1.0333(4) 1.1707(3)
C2A C 0.5697(4) 0.9817(4) 1.2570(3)
C3A C 0.6381(6) 1.0176(6) 1.2909(4)
H4A H 0.6654 1.0753 1.2602
C4A C 0.6657(7) 0.9681(6) 1.3698(5)
H5A H 0.7141 0.9910 1.3909
C5A C 0.6235(5) 0.8860(5) 1.4180(4)
C6A C 0.5561(6) 0.8475(5) 1.3833(4)
H6A H 0.5273 0.7912 1.4154
C7A C 0.5324(5) 0.8916(5) 1.3031(4)
H7A H 0.4919 0.8626 1.2788
C8A C 0.6463(7) 0.8379(7) 1.5060(5)
H8A H 0.6868 0.8701 1.5275
C9A C 0.7719(5) 0.8113(4) 0.9083(3)
C10A C 0.8734(5) 0.6839(4) 0.8999(3)
C11A C 0.8373(5) 0.5942(5) 0.9427(4)
H9A H 0.7505 0.6133 0.9822
C12A C 0.9293(6) 0.4781(5) 0.9269(4)
H10A H 0.9037 0.4181 0.9536
C13A C 1.0611(6) 0.4478(5) 0.8713(4)
C14A C 1.0993(5) 0.5381(5) 0.8289(4)
H11A H 1.1868 0.5191 0.7913
C15A C 1.1608(8) 0.3229(6) 0.8526(6)
H12A H 1.2481 0.3087 0.8183
C16A C 0.5384(4) 1.3092(4) 0.8397(3)
C17A C 0.4835(4) 1.4163(4) 0.7839(3)
C18A C 0.4061(5) 1.5294(4) 0.8237(4)
H13A H 0.3838 1.5397 0.8871
C19A C 0.3609(6) 1.6286(5) 0.7701(4)
H14A H 0.3110 1.7043 0.7976
C20A C 0.3900(6) 1.6144(5) 0.6774(4)
C21A C 0.4662(7) 1.5020(5) 0.6364(4)
H15A H 0.4846 1.4920 0.5735
C22A C 0.5146(7) 1.4051(5) 0.6880(4)
H16A H 0.5691 1.3304 0.6589
C23A C 0.3382(7) 1.7192(6) 0.6220(5)
H17A H 0.2922 1.7934 0.6519
C24A C 0.3595(5) 1.4853(4) 1.0978(4)
H18A H 0.3799 1.5159 1.0385
C25A C 0.2753(5) 1.5498(5) 1.1744(3)
H19A H 0.2262 1.6322 1.1789
C26A C 0.3594(5) 1.3622(5) 1.2091(4)
H20A H 0.3787 1.2924 1.2427
C27A C 0.1936(6) 1.4989(5) 1.3445(4)
H21A H 0.2469 1.4516 1.3823
H22A H 0.1651 1.5822 1.3566
C28A C 0.0728(5) 1.4760(5) 1.3728(3)
C29A C -0.0460(6) 1.5631(5) 1.3630(4)
H23A H -0.0501 1.6355 1.3369
C30A C -0.1548(6) 1.5431(5) 1.3911(5)
H24A H -0.2345 1.6030 1.3873
C31A C -0.1471(6) 1.4348(6) 1.4251(4)
H25A H -0.2210 1.4205 1.4402
C32A C -0.0342(6) 1.3458(5) 1.4377(3)
C33A C 0.0767(5) 1.3678(5) 1.4104(3)
H26A H 0.1548 1.3089 1.4174
C34A C -0.0317(6) 1.2301(5) 1.4831(4)
H27A H -0.1164 1.2303 1.4951
H28A H -0.0207 1.2258 1.5425
C35A C 0.1131(5) 1.1128(5) 1.3347(3)
H29A H 0.0827 1.1744 1.2957
C36A C 0.1373(5) 1.0145(5) 1.4602(4)
H30A H 0.1288 0.9946 1.5219
C37A C 0.2140(5) 0.9416(5) 1.3852(3)
H31A H 0.2686 0.8609 1.3869
C38A C 1.0055(5) 0.6550(5) 0.8437(4)
H32A H 1.0301 0.7153 0.8162
O15 O 0.1513(4) 0.0394(4) 0.9709(3)
H33 H 0.1717 0.0970 0.9631
H34 H 0.1251 0.0380 0.9275
O16 O 0.9030(4) 0.1071(4) 0.1123(3)
H35 H 0.8769 0.1564 0.1554
H36 H 0.9814 0.0942 0.0767
loop_
_geom_bond_atom_site_label_1
_geom_bond_atom_site_label_2
_geom_bond_site_symmetry_1
_geom_bond_site_symmetry_2
Cu1 O2 1_555 1_555
Cu2 O1 1_555 1_555
Cu3 O5 1_555 1_555
O1 C1 1_555 1_555
O2 C1 1_555 1_555
O3 C8 1_555 1_555
O4 Cu1 1_555 1_555
O5 C9 1_555 1_555
O6 C15 1_555 1_555
O7 Cu3 1_555 1_555
O8 Cu2 1_555 1_555
O9 C23 1_555 1_555
O10 Cu3 1_555 1_555
O11 N5 1_555 1_555
O12 N5 1_555 1_555
O13 Cu2 1_555 1_555
H1 O13 1_555 1_555
H2 O13 1_555 1_555
O14 Cu1 1_555 1_555
H3 O14 1_555 1_555
N1 Cu2 1_555 1_555
N2 C25 1_555 1_555
N3 C34 1_555 1_555
N4 C35 1_555 1_555
N5 O10 1_555 1_555
C1 C2 1_555 1_555
C2 C3 1_555 1_555
C3 H4 1_555 1_555
C4 C3 1_555 1_555
H5 C4 1_555 1_555
C5 C4 1_555 1_555
C6 C5 1_555 1_555
H6 C6 1_555 1_555
C7 C2 1_555 1_555
H7 C7 1_555 1_555
C8 C5 1_555 1_555
H8 C8 1_555 1_555
C9 O4 1_555 1_555
C10 C9 1_555 1_555
C11 C10 1_555 1_555
H9 C11 1_555 1_555
C12 C11 1_555 1_555
H10 C12 1_555 1_555
C13 C12 1_555 1_555
C14 C13 1_555 1_555
H11 C14 1_555 1_555
C15 C13 1_555 1_555
H12 C15 1_555 1_555
C16 O7 1_555 1_555
C17 C16 1_555 1_555
C18 C17 1_555 1_555
H13 C18 1_555 1_555
C19 C18 1_555 1_555
H14 C19 1_555 1_555
C20 C19 1_555 1_555
C21 C20 1_555 1_555
H15 C21 1_555 1_555
C22 C17 1_555 1_555
H16 C22 1_555 1_555
C23 C20 1_555 1_555
H17 C23 1_555 1_555
C24 N1 1_555 1_555
H18 C24 1_555 1_555
C25 C24 1_555 1_555
H19 C25 1_555 1_555
C26 N1 1_555 1_555
H20 C26 1_555 1_555
C27 N2 1_555 1_555
H21 C27 1_555 1_555
H22 C27 1_555 1_555
C28 C27 1_555 1_555
C29 C28 1_555 1_555
H23 C29 1_555 1_555
C30 C29 1_555 1_555
H24 C30 1_555 1_555
C31 C30 1_555 1_555
H25 C31 1_555 1_555
C32 C31 1_555 1_555
C33 C28 1_555 1_555
H26 C33 1_555 1_555
C34 C32 1_555 1_555
H27 C34 1_555 1_555
H28 C34 1_555 1_555
C35 N3 1_555 1_555
H29 C35 1_555 1_555
C36 N3 1_555 1_555
H30 C36 1_555 1_555
C37 N4 1_555 1_555
H31 C37 1_555 1_555
C38 C10 1_555 1_555
H32 C38 1_555 1_555
O15 H33 1_555 1_555
H34 O15 1_555 1_555
O16 H35 1_555 1_555
H36 O16 1_555 1_555
Cu2A O4 1_555 1_555
Cu3A O2 1_555 1_555
O1A Cu2A 1_555 1_555
O2A Cu1 1_555 1_555
O3A C8A 1_555 1_555
O4A Cu1 1_555 1_555
O5A Cu3A 1_555 1_555
O6A C15A 1_555 1_555
O7A Cu3A 1_555 1_555
O8A Cu2A 1_555 1_555
O9A C23A 1_555 1_555
O10A Cu3A 1_555 1_555
O11A N5A 1_555 1_555
O12A N5A 1_555 1_555
O13A Cu2A 1_555 1_555
H1A O13A 1_555 1_555
H2A O13A 1_555 1_555
O14A Cu1 1_555 1_555
H3A O14A 1_555 1_555
N1A Cu2A 1_555 1_555
N2A C25A 1_555 1_555
N3A C34A 1_555 1_555
N4A Cu3 1_555 1_555
N5A O10A 1_555 1_555
C1A O1A 1_555 1_555
C2A C1A 1_555 1_555
C3A C2A 1_555 1_555
H4A C3A 1_555 1_555
C4A C3A 1_555 1_555
H5A C4A 1_555 1_555
C5A C4A 1_555 1_555
C6A C5A 1_555 1_555
H6A C6A 1_555 1_555
C7A C2A 1_555 1_555
H7A C7A 1_555 1_555
C8A C5A 1_555 1_555
H8A C8A 1_555 1_555
C9A O4A 1_555 1_555
C10A C9A 1_555 1_555
C11A C10A 1_555 1_555
H9A C11A 1_555 1_555
C12A C11A 1_555 1_555
H10A C12A 1_555 1_555
C13A C12A 1_555 1_555
C14A C13A 1_555 1_555
H11A C14A 1_555 1_555
C15A C13A 1_555 1_555
H12A C15A 1_555 1_555
C16A O7A 1_555 1_555
C17A C16A 1_555 1_555
C18A C17A 1_555 1_555
H13A C18A 1_555 1_555
C19A C18A 1_555 1_555
H14A C19A 1_555 1_555
C20A C19A 1_555 1_555
C21A C20A 1_555 1_555
H15A C21A 1_555 1_555
C22A C17A 1_555 1_555
H16A C22A 1_555 1_555
C23A C20A 1_555 1_555
H17A C23A 1_555 1_555
C24A N1A 1_555 1_555
H18A C24A 1_555 1_555
C25A C24A 1_555 1_555
H19A C25A 1_555 1_555
C26A N1A 1_555 1_555
H20A C26A 1_555 1_555
C27A N2A 1_555 1_555
H21A C27A 1_555 1_555
H22A C27A 1_555 1_555
C28A C27A 1_555 1_555
C29A C28A 1_555 1_555
H23A C29A 1_555 1_555
C30A C29A 1_555 1_555
H24A C30A 1_555 1_555
C31A C30A 1_555 1_555
H25A C31A 1_555 1_555
C32A C31A 1_555 1_555
C33A C28A 1_555 1_555
H26A C33A 1_555 1_555
C34A C32A 1_555 1_555
H27A C34A 1_555 1_555
H28A C34A 1_555 1_555
C35A N3A 1_555 1_555
H29A C35A 1_555 1_555
C36A N3A 1_555 1_555
H30A C36A 1_555 1_555
C37A N4A 1_555 1_555
H31A C37A 1_555 1_555
C38A C10A 1_555 1_555
H32A C38A 1_555 1_555
Cu2 O14 1_555 1_555
Cu2 O4A 1_555 1_555
Cu3 O14 1_555 1_555
Cu3 O2A 1_555 1_555
O8 C16 1_555 1_555
N2 C26 1_555 1_555
N4 Cu3A 1_555 1_555
C6 C7 1_555 1_555
C14 C38 1_555 1_555
C21 C22 1_555 1_555
C32 C33 1_555 1_555
C36 C37 1_555 1_555
Cu2A O14A 1_555 1_555
Cu3A O14A 1_555 1_555
O2A C1A 1_555 1_555
O5A C9A 1_555 1_555
O8A C16A 1_555 1_555
N2A C26A 1_555 1_555
N4A C35A 1_555 1_555
C6A C7A 1_555 1_555
C14A C38A 1_555 1_555
C21A C22A 1_555 1_555
C32A C33A 1_555 1_555
C36A C37A 1_555 1_555

#END
