
#######################################################################
#
#                 Cambridge Crystallographic Data Centre
#                                CCDC 
#
#######################################################################
#
# If this CIF has been generated from an entry in the Cambridge 
# Structural Database, then it will include bibliographic, chemical, 
# crystal, experimental, refinement or atomic coordinate data resulting 
# from the CCDC's data processing and validation procedures.
#
#######################################################################

data_TIZSOL
_symmetry_cell_setting           triclinic
_symmetry_space_group_name_H-M   'P -1'
_symmetry_Int_Tables_number      2
_space_group_name_Hall           '-P 1'
loop_
_symmetry_equiv_pos_site_id
_symmetry_equiv_pos_as_xyz
1 x,y,z
2 -x,-y,-z
_cell_length_a                   11.3701(2)
_cell_length_b                   11.6587(2)
_cell_length_c                   16.0520(3)
_cell_angle_alpha                81.5070(10)
_cell_angle_beta                 69.5600(10)
_cell_angle_gamma                87.7460(10)
_cell_volume                     1971.85
loop_
_atom_site_label
_atom_site_type_symbol
_atom_site_fract_x
_atom_site_fract_y
_atom_site_fract_z
C1 C 0.6614(3) 0.2471(3) -0.0818(2)
C2 C 0.6902(3) 0.1782(3) -0.1571(2)
C3 C 0.8109(3) 0.1463(3) -0.2050(2)
H1 H 0.8792 0.1716 -0.1930
C4 C 0.8286(3) 0.0772(3) -0.2702(2)
H2 H 0.9088 0.0539 -0.3023
C5 C 0.7260(3) 0.0425(3) -0.2876(2)
C6 C 0.5947(3) 0.1427(3) -0.1811(2)
H3 H 0.5139 0.1659 -0.1504
C7 C 0.7358(3) -0.0439(3) -0.3518(2)
H4 H 0.6898 -0.0182 -0.3926
C8 C 0.5625(4) -0.1752(4) -0.2717(3)
H5 H 0.5217 -0.1409 -0.2181
H6 H 0.5452 -0.2571 -0.2594
H7 H 0.5316 -0.1407 -0.3181
C9 C 0.8854(4) -0.1252(3) -0.4708(3)
H8 H 0.8502 -0.2019 -0.4484
H9 H 0.9745 -0.1301 -0.5003
H10 H 0.8484 -0.0873 -0.5128
C10 C 0.6708(3) 0.4437(3) 0.0979(2)
C11 C 0.6823(3) 0.4777(2) 0.1816(2)
C12 C 0.7394(3) 0.4056(3) 0.2323(2)
H11 H 0.7742 0.3360 0.2141
C13 C 0.7439(3) 0.4380(3) 0.3094(2)
H12 H 0.7811 0.3901 0.3446
C14 C 0.6933(3) 0.5419(3) 0.3349(2)
C15 C 0.6364(3) 0.5811(3) 0.2109(2)
H13 H 0.5993 0.6305 0.1765
C16 C 0.6946(3) 0.5721(3) 0.4231(2)
H14 H 0.6621 0.5028 0.4670
C17 C 0.5859(4) 0.6742(4) 0.5422(2)
H15 H 0.5499 0.6047 0.5820
H16 H 0.5290 0.7372 0.5570
H17 H 0.6638 0.6920 0.5486
C18 C 0.8794(4) 0.6860(4) 0.3595(3)
H18 H 0.9104 0.6627 0.3008
H19 H 0.9484 0.7103 0.3744
H20 H 0.8226 0.7493 0.3599
C19 C 0.2515(3) 0.6208(2) 0.37578(19)
C20 C 0.2176(3) 0.5328(2) 0.32953(18)
C21 C 0.1067(3) 0.4688(3) 0.3648(2)
H21 H 0.0468 0.4811 0.4194
C22 C 0.0868(3) 0.3868(3) 0.3177(2)
H22 H 0.0133 0.3423 0.3407
C23 C 0.1760(3) 0.3705(2) 0.23594(18)
C24 C 0.3014(3) 0.5107(2) 0.24753(19)
H23 H 0.3761 0.5534 0.2237
C25 C 0.1536(3) 0.2790(2) 0.18562(19)
H24 H 0.1357 0.2057 0.2268
C26 C 0.2656(4) 0.1580(3) 0.0777(2)
H25 H 0.2917 0.0960 0.1136
H26 H 0.3236 0.1660 0.0170
H27 H 0.1832 0.1409 0.0785
C27 C 0.0615(4) 0.4085(3) 0.0975(3)
H28 H 0.0697 0.4727 0.1263
H29 H -0.0115 0.4184 0.0804
H30 H 0.1347 0.4051 0.0450
C28 C 0.7182(3) 1.1564(2) 0.45908(19)
C29 C 0.7437(2) 1.0884(2) 0.38148(18)
C30 C 0.8515(3) 1.1056(3) 0.3067(2)
H31 H 0.9102 1.1615 0.3025
C31 C 0.8723(3) 1.0407(3) 0.2386(2)
H32 H 0.9447 1.0521 0.1881
C32 C 0.7838(3) 0.9578(2) 0.24622(19)
C33 C 0.6603(3) 1.0052(2) 0.38266(19)
H33 H 0.5864 0.9940 0.4320
C34 C 0.7988(3) 0.8810(3) 0.1758(2)
H34 H 0.7758 0.8024 0.2079
C35 C 0.7328(5) 1.0231(4) 0.0802(3)
H35 H 0.8192 1.0366 0.0431
H36 H 0.6816 1.0319 0.0432
H37 H 0.7077 1.0779 0.1221
C36 C 0.9518(4) 0.7862(4) 0.0690(3)
H38 H 0.9148 0.8023 0.0232
H39 H 1.0411 0.7805 0.0415
H40 H 0.9183 0.7143 0.1061
N1 N 0.6092(2) 0.0771(2) -0.24543(19)
N2 N 0.6418(2) 0.6152(2) 0.28540(17)
N3 N 0.2832(2) 0.4328(2) 0.20003(16)
N4 N 0.6782(2) 0.9393(2) 0.31771(16)
O1 O 0.5550(2) 0.2647(2) -0.03525(17)
O2 O 0.7608(2) 0.2854(2) -0.07169(17)
H41 H 0.7408 0.3092 -0.0231
O3 O 0.6912(2) -0.1560(2) -0.29977(17)
O4 O 0.8604(2) -0.0602(2) -0.39777(17)
O5 O 0.59561(19) 0.49589(18) 0.06569(13)
O6 O 0.7405(3) 0.3622(2) 0.06699(18)
O7 O 0.6084(2) 0.6572(2) 0.45122(15)
O8 O 0.8149(2) 0.5904(2) 0.42413(18)
O9 O 0.3567(2) 0.6604(2) 0.35057(16)
O10 O 0.15933(19) 0.6497(2) 0.44437(14)
H42 H 0.1852 0.6953 0.4685
O11 O 0.26303(18) 0.26399(17) 0.11350(13)
O12 O 0.04932(19) 0.30325(19) 0.15814(14)
O13 O 0.6152(2) 1.14268(19) 0.51986(14)
O14 O 0.80636(19) 1.22275(18) 0.45408(14)
O15 O 0.7176(2) 0.9085(2) 0.12801(17)
O16 O 0.9235(2) 0.8780(2) 0.12295(17)
Na1 Na 0.50962(10) 0.78250(10) 0.35587(8)
Na2 Na 0.43120(10) 0.38792(10) 0.05574(7)
O5A O 0.40439(19) 0.50411(18) -0.06569(13)
O13A O 0.3848(2) 0.85732(19) 0.48014(14)
Na1A Na 0.49038(10) 1.21750(10) 0.64413(8)
Na2A Na 0.56880(10) 0.61208(10) -0.05574(7)
loop_
_geom_bond_atom_site_label_1
_geom_bond_atom_site_label_2
_geom_bond_site_symmetry_1
_geom_bond_site_symmetry_2
C1 C2 1_555 1_555
C2 C3 1_555 1_555
C3 H1 1_555 1_555
C4 C3 1_555 1_555
H2 C4 1_555 1_555
C5 C4 1_555 1_555
C6 C2 1_555 1_555
H3 C6 1_555 1_555
C7 C5 1_555 1_555
H4 C7 1_555 1_555
C8 H5 1_555 1_555
H6 C8 1_555 1_555
H7 C8 1_555 1_555
C9 H8 1_555 1_555
H9 C9 1_555 1_555
H10 C9 1_555 1_555
C10 C11 1_555 1_555
C11 C12 1_555 1_555
C12 H11 1_555 1_555
C13 C12 1_555 1_555
H12 C13 1_555 1_555
C14 C13 1_555 1_555
C15 C11 1_555 1_555
H13 C15 1_555 1_555
C16 C14 1_555 1_555
H14 C16 1_555 1_555
C17 H15 1_555 1_555
H16 C17 1_555 1_555
H17 C17 1_555 1_555
C18 H18 1_555 1_555
H19 C18 1_555 1_555
H20 C18 1_555 1_555
C19 C20 1_555 1_555
C20 C21 1_555 1_555
C21 H21 1_555 1_555
C22 C21 1_555 1_555
H22 C22 1_555 1_555
C23 C22 1_555 1_555
C24 C20 1_555 1_555
H23 C24 1_555 1_555
C25 C23 1_555 1_555
H24 C25 1_555 1_555
C26 H25 1_555 1_555
H26 C26 1_555 1_555
H27 C26 1_555 1_555
C27 H28 1_555 1_555
H29 C27 1_555 1_555
H30 C27 1_555 1_555
C28 C29 1_555 1_555
C29 C30 1_555 1_555
C30 H31 1_555 1_555
C31 C30 1_555 1_555
H32 C31 1_555 1_555
C32 C31 1_555 1_555
C33 C29 1_555 1_555
H33 C33 1_555 1_555
C34 C32 1_555 1_555
H34 C34 1_555 1_555
C35 H35 1_555 1_555
H36 C35 1_555 1_555
H37 C35 1_555 1_555
C36 H38 1_555 1_555
H39 C36 1_555 1_555
H40 C36 1_555 1_555
N1 C5 1_555 1_555
N2 C14 1_555 1_555
N3 C23 1_555 1_555
N4 C32 1_555 1_555
O1 C1 1_555 1_555
O2 C1 1_555 1_555
H41 O2 1_555 1_555
O3 C7 1_555 1_555
O4 C7 1_555 1_555
O5 C10 1_555 1_555
O6 C10 1_555 1_555
O7 C16 1_555 1_555
O8 C16 1_555 1_555
O9 C19 1_555 1_555
O10 C19 1_555 1_555
H42 O10 1_555 1_555
O11 C25 1_555 1_555
O12 C25 1_555 1_555
O13 C28 1_555 1_555
O14 C28 1_555 1_555
O15 C34 1_555 1_555
O16 C34 1_555 1_555
Na1 N2 1_555 1_555
Na2 N3 1_555 1_555
O5A Na2 1_555 1_555
O13A Na1 1_555 1_555
Na1A O13 1_555 1_555
Na2A O5 1_555 1_555
C6 N1 1_555 1_555
C8 O3 1_555 1_555
C9 O4 1_555 1_555
C15 N2 1_555 1_555
C17 O7 1_555 1_555
C18 O8 1_555 1_555
C24 N3 1_555 1_555
C26 O11 1_555 1_555
C27 O12 1_555 1_555
C33 N4 1_555 1_555
C35 O15 1_555 1_555
C36 O16 1_555 1_555
N4 Na1 1_555 1_555
O1 Na2 1_555 1_555
O5 Na2 1_555 1_555
O7 Na1 1_555 1_555
O9 Na1 1_555 1_555
O11 Na2 1_555 1_555
O5A Na2A 1_555 1_555

#END
