
#######################################################################
#
#                 Cambridge Crystallographic Data Centre
#                                CCDC 
#
#######################################################################
#
# If this CIF has been generated from an entry in the Cambridge 
# Structural Database, then it will include bibliographic, chemical, 
# crystal, experimental, refinement or atomic coordinate data resulting 
# from the CCDC's data processing and validation procedures.
#
#######################################################################

data_TIZSEB
_symmetry_cell_setting           monoclinic
_symmetry_space_group_name_H-M   'P 21/c'
_symmetry_Int_Tables_number      14
_space_group_name_Hall           '-P 2ybc'
loop_
_symmetry_equiv_pos_site_id
_symmetry_equiv_pos_as_xyz
1 x,y,z
2 -x,1/2+y,1/2-z
3 -x,-y,-z
4 x,1/2-y,1/2+z
_cell_length_a                   12.9960(6)
_cell_length_b                   10.4510(5)
_cell_length_c                   18.1648(8)
_cell_angle_alpha                90
_cell_angle_beta                 97.0810(10)
_cell_angle_gamma                90
_cell_volume                     2448.35
loop_
_atom_site_label
_atom_site_type_symbol
_atom_site_fract_x
_atom_site_fract_y
_atom_site_fract_z
Co1 Co 0.47997(2) 0.73975(3) 0.191145(15)
O1 O 0.50276(12) 0.93473(14) 0.23983(8)
O2 O 0.35252(15) 0.62038(15) -0.01827(9)
O3 O 0.46548(12) 1.14146(14) 0.21655(8)
O4 O 0.43044(12) 0.62210(13) 0.09876(8)
N1 N 0.42734(12) 0.86643(14) 0.10721(9)
N2 N 0.32920(15) 0.73122(17) 0.23149(10)
N3 N 0.63689(14) 0.73897(16) 0.16157(10)
N4 N 0.97084(16) 0.64088(19) 0.05948(11)
N5 N -0.02627(17) 0.6107(2) 0.28601(13)
C1 C 1.0818(2) 0.8644(3) 0.0508(2)
H3 H 1.119(2) 0.937(3) 0.0503(16)
C2 C -0.1218(2) 0.6027(3) 0.3060(2)
H4 H -0.154(2) 0.529(3) 0.2926(15)
C3 C 0.9900(2) 0.8637(3) 0.08145(19)
H5 H 0.967(2) 0.936(3) 0.0990(15)
C4 C -0.1665(3) 0.6961(4) 0.34409(18)
H6 H -0.232(2) 0.691(3) 0.3549(15)
C5 C -0.1114(2) 0.8041(4) 0.36305(17)
H7 H -0.138(2) 0.872(3) 0.3886(15)
C6 C 1.0604(2) 0.6451(3) 0.03063(16)
H8 H 1.083(2) 0.565(3) 0.0112(15)
C7 C 0.1574(2) 0.6469(3) 0.22347(15)
H9 H 0.108(2) 0.593(2) 0.2016(13)
C8 C 1.1176(2) 0.7532(3) 0.02479(17)
H10 H 1.178(2) 0.749(2) 0.0032(15)
C9 C 0.66593(19) 0.6526(2) 0.11344(14)
H11 H 0.6143(19) 0.591(2) 0.0955(13)
C10 C 0.76209(19) 0.6522(2) 0.08944(15)
H12 H 0.7777(18) 0.591(2) 0.0565(12)
C11 C 0.3069(2) 0.8012(3) 0.28944(14)
H13 H 0.3609(19) 0.857(2) 0.3122(13)
C12 C 0.2117(2) 0.8001(3) 0.31520(14)
H14 H 0.2012(19) 0.848(2) 0.3553(13)
C13 C -0.0127(2) 0.8160(3) 0.34315(15)
H15 H 0.0268(19) 0.886(2) 0.3540(13)
C14 C 0.2540(2) 0.6540(2) 0.20091(14)
H16 H 0.2668(18) 0.604(2) 0.1613(13)
C15 C 0.70830(18) 0.8260(2) 0.18714(13)
H17 H 0.6872(16) 0.8850(19) 0.2215(11)
C16 C 0.80565(19) 0.8325(2) 0.16518(13)
H18 H 0.8517(18) 0.890(2) 0.1846(13)
C17 C 0.35982(19) 1.0299(2) -0.00531(13)
H19 H 0.3372(18) 1.086(2) -0.0447(13)
C18 C 0.39492(17) 1.0781(2) 0.06412(13)
H20 H 0.3969(15) 1.166(2) 0.0758(10)
C19 C 0.02763(18) 0.7167(2) 0.30501(12)
C20 C 0.13297(18) 0.7222(2) 0.28173(13)
C21 C 0.93613(19) 0.7507(2) 0.08475(14)
C22 C 0.83460(18) 0.7449(2) 0.11398(13)
C23 C 0.42842(15) 0.99272(18) 0.11964(11)
C24 C 0.46931(15) 1.0256(2) 0.19884(11)
C25 C 0.39239(15) 0.81967(19) 0.04056(11)
C26 C 0.39173(17) 0.6745(2) 0.03781(13)
C27 C 0.35824(18) 0.8995(2) -0.01776(13)
H21 H 0.3343(17) 0.865(2) -0.0631(12)
Co1A Co 0.52003(2) 1.23975(3) 0.308855(15)
O3A O 0.53452(12) 0.64146(14) 0.28345(8)
O5 O 0.3608(2) 0.3724(2) 0.10949(15)
H1 H 0.422(3) 0.375(4) 0.098(2)
H2 H 0.367(5) 0.442(6) 0.083(3)
loop_
_geom_bond_atom_site_label_1
_geom_bond_atom_site_label_2
_geom_bond_site_symmetry_1
_geom_bond_site_symmetry_2
Co1 O1 1_555 1_555
O1 C24 1_555 1_555
O2 C26 1_555 1_555
O3 C24 1_555 1_555
O4 Co1 1_555 1_555
O5 H1 1_555 1_555
H2 O5 1_555 1_555
N1 Co1 1_555 1_555
N2 Co1 1_555 1_555
N3 Co1 1_555 1_555
N4 C6 1_555 1_555
N5 C2 1_555 1_555
C1 H3 1_555 1_555
C2 H4 1_555 1_555
C3 C1 1_555 1_555
H5 C3 1_555 1_555
C4 C2 1_555 1_555
H6 C4 1_555 1_555
C5 C4 1_555 1_555
H7 C5 1_555 1_555
C6 H8 1_555 1_555
C7 H9 1_555 1_555
C8 C1 1_555 1_555
H10 C8 1_555 1_555
C9 N3 1_555 1_555
H11 C9 1_555 1_555
C10 C9 1_555 1_555
H12 C10 1_555 1_555
C11 N2 1_555 1_555
H13 C11 1_555 1_555
C12 C11 1_555 1_555
H14 C12 1_555 1_555
C13 C5 1_555 1_555
H15 C13 1_555 1_555
C14 N2 1_555 1_555
H16 C14 1_555 1_555
C15 N3 1_555 1_555
H17 C15 1_555 1_555
C16 C15 1_555 1_555
H18 C16 1_555 1_555
C17 H19 1_555 1_555
C18 C17 1_555 1_555
H20 C18 1_555 1_555
C19 N5 1_555 1_555
C20 C7 1_555 1_555
C21 N4 1_555 1_555
C22 C10 1_555 1_555
C23 N1 1_555 1_555
C24 C23 1_555 1_555
C25 N1 1_555 1_555
C26 O4 1_555 1_555
C27 C17 1_555 1_555
H21 C27 1_555 1_555
Co1A O3 1_555 1_555
O3A Co1 1_555 1_555
C3 C21 1_555 1_555
C6 C8 1_555 1_555
C7 C14 1_555 1_555
C12 C20 1_555 1_555
C13 C19 1_555 1_555
C16 C22 1_555 1_555
C18 C23 1_555 1_555
C19 C20 1_555 1_555
C21 C22 1_555 1_555
C25 C26 1_555 1_555
C25 C27 1_555 1_555

#END
