
#######################################################################
#
#                 Cambridge Crystallographic Data Centre
#                                CCDC 
#
#######################################################################
#
# If this CIF has been generated from an entry in the Cambridge 
# Structural Database, then it will include bibliographic, chemical, 
# crystal, experimental, refinement or atomic coordinate data resulting 
# from the CCDC's data processing and validation procedures.
#
#######################################################################

data_TIZSAX
_symmetry_cell_setting           monoclinic
_symmetry_space_group_name_H-M   'P 21/c'
_symmetry_Int_Tables_number      14
_space_group_name_Hall           '-P 2ybc'
loop_
_symmetry_equiv_pos_site_id
_symmetry_equiv_pos_as_xyz
1 x,y,z
2 -x,1/2+y,1/2-z
3 -x,-y,-z
4 x,1/2-y,1/2+z
_cell_length_a                   19.146(3)
_cell_length_b                   9.9436(14)
_cell_length_c                   18.194(3)
_cell_angle_alpha                90
_cell_angle_beta                 113.042(2)
_cell_angle_gamma                90
_cell_volume                     3187.43
loop_
_atom_site_label
_atom_site_type_symbol
_atom_site_fract_x
_atom_site_fract_y
_atom_site_fract_z
Co1 Co 0.451493(12) 0.24661(2) 0.267417(13)
N1 N 0.42232(7) 0.36631(14) 0.34441(8)
N2 N 0.56322(8) 0.22076(14) 0.35950(9)
N3 N 0.34174(9) 0.26658(15) 0.16857(10)
N4 N 0.06837(9) 0.15734(16) -0.00095(10)
N5 N 0.83717(9) 0.28904(19) 0.53655(10)
O1 O 0.39539(7) 0.11370(12) 0.31750(8)
O2 O 0.32701(8) 0.10394(15) 0.39287(9)
O3 O 0.51070(7) 0.65419(12) 0.31035(7)
O4 O 0.48512(7) 0.45278(12) 0.25163(7)
C1 C 0.48300(9) 0.53779(17) 0.30142(10)
C2 C -0.00390(11) 0.1558(2) -0.05255(12)
H1 H -0.0293(12) 0.070(2) -0.0561(12)
C3 C 0.44375(9) 0.49498(17) 0.35561(9)
C4 C 0.38754(9) 0.30861(19) 0.38682(10)
C5 C 0.37240(11) 0.3798(2) 0.44413(11)
H2 H 0.3481(11) 0.335(2) 0.4734(12)
C6 C 0.42958(11) 0.5728(2) 0.41140(11)
H3 H 0.4448(10) 0.655(2) 0.4146(11)
C7 C 0.39359(11) 0.5129(2) 0.45586(11)
H4 H 0.3833(12) 0.563(2) 0.4941(13)
C8 C -0.26821(13) 0.2275(3) -0.27904(14)
H5 H -0.3158(14) 0.217(2) -0.3168(15)
C9 C -0.23372(11) 0.1190(2) -0.23288(13)
H6 H -0.2555(11) 0.037(2) -0.2405(12)
C10 C -0.16136(11) 0.1306(2) -0.17386(12)
H7 H -0.1378(12) 0.059(2) -0.1405(12)
C11 C -0.12193(11) 0.25120(18) -0.15955(11)
C12 C 0.36761(9) 0.16222(19) 0.36481(11)
C13 C -0.15783(13) 0.3592(3) -0.20712(15)
H8 H -0.1331(14) 0.440(3) -0.1993(15)
C14 C -0.23063(14) 0.3475(3) -0.26563(16)
H9 H -0.2540(16) 0.426(3) -0.2964(17)
C15 C 0.71056(10) 0.20087(19) 0.47819(10)
C16 C 0.78886(10) 0.1939(2) 0.53984(10)
C17 C 0.64901(10) 0.1427(2) 0.48782(11)
H10 H 0.6546(12) 0.096(2) 0.5357(13)
C18 C 0.88551(11) 0.0936(2) 0.65313(12)
H11 H 0.9028(11) 0.026(2) 0.6909(12)
C19 C 0.57751(10) 0.1554(2) 0.42848(11)
H12 H 0.5368(11) 0.118(2) 0.4351(11)
C20 C 1.01713(10) 0.1921(2) 0.70872(10)
C21 C 0.93687(10) 0.1900(2) 0.65111(10)
C22 C 0.18806(11) 0.27177(19) 0.06333(11)
C23 C 0.62341(11) 0.2748(2) 0.35035(12)
H13 H 0.6142(11) 0.316(2) 0.3024(12)
C24 C 0.10649(11) 0.27348(19) 0.00974(12)
C25 C 1.16781(12) 0.2012(3) 0.81977(14)
H14 H 1.2156(14) 0.207(3) 0.8559(14)
C26 C 0.90823(12) 0.2849(2) 0.59087(13)
H15 H 0.9396(13) 0.354(2) 0.5882(14)
C27 C -0.00342(12) 0.3833(2) -0.08270(16)
H16 H -0.0291(16) 0.464(3) -0.1098(17)
C28 C 0.69592(11) 0.2680(2) 0.40647(12)
H17 H 0.7368(11) 0.306(2) 0.3985(11)
C29 C 1.11494(12) 0.1255(3) 0.83469(14)
H18 H 1.1280(13) 0.080(2) 0.8817(15)
C30 C 0.22939(11) 0.1531(2) 0.08062(12)
H19 H 0.2078(11) 0.076(2) 0.0601(12)
C31 C 1.04051(12) 0.1219(3) 0.78005(12)
H20 H 1.0065(14) 0.080(2) 0.7882(14)
C32 C 0.22700(11) 0.3877(2) 0.09885(14)
H21 H 0.2039(13) 0.464(2) 0.0895(13)
C33 C 0.30485(11) 0.1558(2) 0.13260(12)
H22 H 0.3344(11) 0.076(2) 0.1425(11)
C34 C -0.04329(11) 0.26362(18) -0.09805(12)
C35 C 0.30214(11) 0.3807(2) 0.15003(13)
H23 H 0.3291(14) 0.460(3) 0.1741(15)
C36 C 0.07073(12) 0.3889(2) -0.02860(15)
H24 H 0.0983(13) 0.476(3) -0.0183(13)
C37 C 1.07229(13) 0.2653(2) 0.69420(15)
H25 H 1.0594(12) 0.308(2) 0.6468(14)
C38 C 1.14689(13) 0.2692(3) 0.74924(16)
H26 H 1.1837(12) 0.313(2) 0.7367(13)
C39 C 0.81118(11) 0.0954(2) 0.59822(11)
H27 H 0.7793(11) 0.031(2) 0.5998(11)
Co1A Co 0.548507(12) 0.74661(2) 0.232583(13)
O3A O 0.48930(7) 0.15419(12) 0.18965(7)
O5 O 0.46611(13) -0.12230(19) 0.39753(14)
loop_
_geom_bond_atom_site_label_1
_geom_bond_atom_site_label_2
_geom_bond_site_symmetry_1
_geom_bond_site_symmetry_2
Co1 N1 1_555 1_555
N1 C3 1_555 1_555
N2 Co1 1_555 1_555
N3 Co1 1_555 1_555
N4 C2 1_555 1_555
N5 C16 1_555 1_555
O1 Co1 1_555 1_555
O2 C12 1_555 1_555
O3 C1 1_555 1_555
O4 Co1 1_555 1_555
C1 O4 1_555 1_555
C2 H1 1_555 1_555
C3 C1 1_555 1_555
C4 N1 1_555 1_555
C5 C4 1_555 1_555
H2 C5 1_555 1_555
C6 C3 1_555 1_555
H3 C6 1_555 1_555
C7 C5 1_555 1_555
H4 C7 1_555 1_555
C8 H5 1_555 1_555
C9 C8 1_555 1_555
H6 C9 1_555 1_555
C10 C9 1_555 1_555
H7 C10 1_555 1_555
C11 C10 1_555 1_555
C12 O1 1_555 1_555
C13 C11 1_555 1_555
H8 C13 1_555 1_555
C14 C8 1_555 1_555
H9 C14 1_555 1_555
C15 C16 1_555 1_555
C16 C39 1_555 1_555
C17 C15 1_555 1_555
H10 C17 1_555 1_555
C18 H11 1_555 1_555
C19 N2 1_555 1_555
H12 C19 1_555 1_555
C20 C21 1_555 1_555
C21 C18 1_555 1_555
C22 C24 1_555 1_555
C23 N2 1_555 1_555
H13 C23 1_555 1_555
C24 N4 1_555 1_555
C25 H14 1_555 1_555
C26 N5 1_555 1_555
H15 C26 1_555 1_555
C27 H16 1_555 1_555
C28 C15 1_555 1_555
H17 C28 1_555 1_555
C29 C25 1_555 1_555
H18 C29 1_555 1_555
C30 C22 1_555 1_555
H19 C30 1_555 1_555
C31 C20 1_555 1_555
H20 C31 1_555 1_555
C32 C22 1_555 1_555
H21 C32 1_555 1_555
C33 N3 1_555 1_555
H22 C33 1_555 1_555
C34 C2 1_555 1_555
C35 N3 1_555 1_555
H23 C35 1_555 1_555
C36 C24 1_555 1_555
H24 C36 1_555 1_555
C37 C20 1_555 1_555
H25 C37 1_555 1_555
C38 C25 1_555 1_555
H26 C38 1_555 1_555
C39 C18 1_555 1_555
H27 C39 1_555 1_555
Co1A O3 1_555 1_555
O3A Co1 1_555 1_555
C4 C12 1_555 1_555
C6 C7 1_555 1_555
C11 C34 1_555 1_555
C13 C14 1_555 1_555
C17 C19 1_555 1_555
C21 C26 1_555 1_555
C23 C28 1_555 1_555
C27 C34 1_555 1_555
C27 C36 1_555 1_555
C29 C31 1_555 1_555
C30 C33 1_555 1_555
C32 C35 1_555 1_555
C37 C38 1_555 1_555

#END
