
#######################################################################
#
#                 Cambridge Crystallographic Data Centre
#                                CCDC 
#
#######################################################################
#
# If this CIF has been generated from an entry in the Cambridge 
# Structural Database, then it will include bibliographic, chemical, 
# crystal, experimental, refinement or atomic coordinate data resulting 
# from the CCDC's data processing and validation procedures.
#
#######################################################################

data_TIZSIF
_symmetry_cell_setting           monoclinic
_symmetry_space_group_name_H-M   'P 21/c'
_symmetry_Int_Tables_number      14
_space_group_name_Hall           '-P 2ybc'
loop_
_symmetry_equiv_pos_site_id
_symmetry_equiv_pos_as_xyz
1 x,y,z
2 -x,1/2+y,1/2-z
3 -x,-y,-z
4 x,1/2-y,1/2+z
_cell_length_a                   17.658(4)
_cell_length_b                   10.454(2)
_cell_length_c                   38.572(9)
_cell_angle_alpha                90.00
_cell_angle_beta                 102.990(4)
_cell_angle_gamma                90.00
_cell_volume                     6938.05
loop_
_atom_site_label
_atom_site_type_symbol
_atom_site_fract_x
_atom_site_fract_y
_atom_site_fract_z
Co1 Co 0.45307(6) 0.15901(10) 0.22852(3)
Br1 Br 0.31860(7) 0.23982(16) 0.60688(3)
Br2 Br 0.69185(7) 0.22758(14) -0.12983(3)
O1 O 0.3630(4) 0.2854(5) 0.20369(15)
N1 N 0.3568(4) 0.0433(7) 0.21317(16)
O2 O 0.4945(3) -0.0393(5) 0.24163(13)
O3 O 0.2411(4) 0.2924(6) 0.17116(16)
N2 N 0.4321(4) 0.1722(6) 0.28108(17)
N3 N 0.4941(3) 0.1624(7) 0.18006(16)
C1 C 0.5005(5) 0.2767(9) 0.1660(2)
H1 H 0.4878 0.3489 0.1776
N4 N 0.4463(4) 0.1366(7) 0.41267(19)
N5 N 0.5547(4) 0.1019(7) 0.0598(2)
C2 C 0.3738(5) 0.2352(10) 0.4936(2)
C3 C 0.6077(5) 0.2214(8) 0.0163(2)
C4 C 0.6643(7) 0.2279(12) -0.0853(3)
C5 C 0.2942(6) -0.1573(8) 0.2158(2)
H2 H 0.2969 -0.2435 0.2219
C6 C 0.5449(5) 0.1884(9) 0.1161(2)
C7 C 0.4017(5) 0.2100(8) 0.3876(2)
C8 C 0.5139(5) 0.0614(8) 0.1625(2)
H3 H 0.5113 -0.0194 0.1723
C9 C 0.5377(5) 0.0698(9) 0.1312(2)
H4 H 0.5490 -0.0042 0.1199
C10 C 0.6255(5) 0.2253(9) -0.0192(2)
C11 C 0.3608(5) -0.0809(9) 0.22220(19)
C12 C 0.3400(5) 0.3071(9) 0.4297(2)
H5 H 0.3043 0.3650 0.4350
C13 C 0.4790(5) 0.1448(8) 0.3438(2)
H6 H 0.5185 0.1164 0.3624
C14 C 0.4359(5) 0.1509(9) 0.4456(2)
H7 H 0.4670 0.1007 0.4631
C15 C 0.2973(7) 0.2372(9) 0.1900(2)
C16 C 0.5690(5) 0.2019(9) 0.0817(2)
C17 C 0.3549(5) 0.2369(7) 0.3218(2)
H8 H 0.3086 0.2717 0.3251
C18 C 0.2892(5) 0.0962(9) 0.1978(2)
C19 C 0.3841(5) 0.2317(9) 0.4567(2)
C20 C 0.5254(5) 0.2927(8) 0.1347(2)
H9 H 0.5292 0.3747 0.1259
C21 C 0.4122(5) 0.1975(7) 0.3508(2)
C22 C 0.3437(6) 0.2385(14) 0.5619(3)
C23 C 0.6035(5) 0.3108(8) 0.0732(2)
H10 H 0.6134 0.3782 0.0894
C24 C 0.2216(5) 0.0271(10) 0.1909(2)
H11 H 0.1746 0.0657 0.1804
C25 C 0.5743(5) 0.1154(9) 0.0283(2)
H12 H 0.5643 0.0459 0.0129
C26 C 0.4011(5) 0.1405(10) 0.5183(3)
H13 H 0.4291 0.0728 0.5117
C27 C 0.3682(5) 0.2233(8) 0.2879(2)
H14 H 0.3300 0.2518 0.2687
C28 C 0.6961(6) 0.3148(10) -0.0599(3)
H15 H 0.7311 0.3752 -0.0646
C29 C 0.3311(6) 0.3323(10) 0.5049(2)
H16 H 0.3116 0.3980 0.4892
C30 C 0.2245(5) -0.1008(10) 0.2001(2)
H17 H 0.1791 -0.1491 0.1956
C31 C 0.3885(7) 0.1426(11) 0.5523(2)
H18 H 0.4100 0.0797 0.5686
C32 C 0.6764(6) 0.3134(9) -0.0272(2)
H19 H 0.6982 0.3738 -0.0102
C33 C 0.3488(5) 0.2968(8) 0.3956(2)
H20 H 0.3194 0.3478 0.3778
C34 C 0.5937(6) 0.1409(9) -0.0455(3)
H21 H 0.5577 0.0818 -0.0410
C35 C 0.6123(6) 0.1392(11) -0.0783(2)
H22 H 0.5902 0.0792 -0.0954
C36 C 0.4867(5) 0.1347(8) 0.3092(2)
H23 H 0.5324 0.0999 0.3051
C37 C 0.6235(5) 0.3211(8) 0.0407(2)
H24 H 0.6477 0.3950 0.0351
C38 C 0.3164(6) 0.3348(12) 0.5389(3)
H25 H 0.2882 0.4016 0.5457
O9 O 0.4501(3) -0.2342(5) 0.25191(13)
C77 C 0.4421(5) -0.1212(9) 0.23999(19)
Co1A Co 0.54693(6) -0.34099(10) 0.27148(3)
O9A O 0.5499(3) 0.2658(5) 0.24809(13)
Co2 Co 0.94648(6) 0.14114(10) 0.23793(3)
Br3 Br 0.82113(8) 0.01290(13) 0.61740(3)
Br4 Br 1.20100(7) -0.05896(14) -0.11310(3)
O4 O 0.9883(3) 0.3380(5) 0.24870(14)
N6 N 0.9832(4) 0.1347(8) 0.18826(17)
N7 N 0.8516(4) 0.2571(7) 0.21831(16)
N8 N 0.9265(4) 0.1243(6) 0.29062(17)
N9 N 0.9413(5) 0.1401(8) 0.4234(2)
C39 C 0.9775(5) 0.1409(8) 0.3543(2)
H26 H 1.0179 0.1661 0.3730
C40 C 0.8761(5) 0.0173(9) 0.5036(2)
C41 C 0.9822(5) 0.1575(8) 0.3196(2)
H27 H 1.0273 0.1947 0.3156
C42 C 1.0354(5) 0.0994(9) 0.1251(2)
O5 O 0.8564(3) 0.0111(5) 0.21702(15)
C43 C 0.7196(5) 0.2737(9) 0.1898(2)
H28 H 0.6729 0.2346 0.1791
C44 C 1.0629(5) 0.0748(10) 0.0928(2)
C45 C 0.9023(5) 0.0609(9) 0.3980(2)
C46 C 0.8626(5) 0.0719(8) 0.2976(2)
H29 H 0.8232 0.0479 0.2784
C47 C 0.7849(5) 0.2019(8) 0.2023(2)
C48 C 0.7244(5) 0.4068(10) 0.1932(2)
H30 H 0.6806 0.4571 0.1849
C49 C 0.9323(6) 0.1192(10) 0.4561(3)
H31 H 0.9603 0.1725 0.4737
C50 C 0.8862(5) 0.0271(9) 0.4673(2)
C51 C 1.0293(5) 0.2188(9) 0.1392(2)
H32 H 1.0428 0.2909 0.1278
C52 C 1.1285(5) 0.0150(10) -0.0053(2)
C53 C 1.0030(5) 0.2321(9) 0.1705(2)
H33 H 0.9992 0.3141 0.1793
C54 C 0.8463(6) 0.0141(11) 0.5724(2)
C55 C 0.8487(5) -0.0546(8) 0.4400(3)
H34 H 0.8183 -0.1216 0.4452
O6 O 0.7364(4) -0.0009(6) 0.18209(16)
C56 C 0.7919(7) 0.0560(8) 0.2001(2)
C57 C 0.8565(5) -0.0364(9) 0.4058(3)
H35 H 0.8307 -0.0902 0.3878
C58 C 1.1699(6) -0.0914(11) -0.0105(3)
H36 H 1.1838 -0.1508 0.0078
C59 C 0.9888(5) 0.0203(9) 0.1746(2)
H37 H 0.9741 -0.0495 0.1865
C60 C 1.1074(6) 0.0967(9) -0.0335(3)
H38 H 1.0780 0.1688 -0.0312
N10 N 1.0461(5) 0.1616(7) 0.0669(2)
C61 C 1.1689(6) -0.0305(13) -0.0702(3)
C62 C 0.8512(5) 0.0511(8) 0.3310(2)
H39 H 0.8051 0.0150 0.3342
C63 C 1.0144(5) -0.0038(9) 0.1442(2)
H40 H 1.0178 -0.0873 0.1364
C64 C 0.8233(6) -0.0684(10) 0.5131(3)
H41 H 0.7973 -0.1262 0.4962
C65 C 0.8982(7) 0.0963(11) 0.5640(3)
H42 H 0.9244 0.1533 0.5810
C66 C 1.1068(5) 0.0340(9) 0.0292(2)
C67 C 0.9104(6) 0.0851(8) 0.3606(2)
C68 C 1.1044(7) -0.0294(10) 0.0882(3)
H43 H 1.1175 -0.0886 0.1066
C69 C 1.1279(6) -0.0506(10) 0.0568(3)
H44 H 1.1579 -0.1219 0.0545
C70 C 0.8088(6) -0.0696(10) 0.5464(3)
H45 H 0.7731 -0.1277 0.5517
C71 C 1.1918(6) -0.1125(12) -0.0428(3)
H46 H 1.2221 -0.1832 -0.0454
C72 C 1.1285(7) 0.0749(12) -0.0654(3)
H47 H 1.1147 0.1338 -0.0838
C73 C 0.9128(6) 0.0968(10) 0.5303(3)
H48 H 0.9494 0.1541 0.5255
C74 C 1.0690(6) 0.1368(10) 0.0368(3)
H49 H 1.0571 0.1986 0.0190
C75 C 0.7942(5) 0.4633(8) 0.2089(2)
H50 H 0.7986 0.5518 0.2110
C76 C 0.8578(5) 0.3844(8) 0.22137(19)
O10 O 0.9516(3) 0.5443(5) 0.24256(13)
C78 C 0.9390(5) 0.4267(10) 0.2389(2)
Co2A Co 1.05352(6) 0.64114(10) 0.26207(3)
O10A O 1.0484(3) 0.0443(5) 0.25744(13)
O7 O 0.3313(4) 0.5338(6) 0.2255(2)
O8 O 0.8338(5) 0.7582(7) 0.2228(5)
loop_
_geom_bond_atom_site_label_1
_geom_bond_atom_site_label_2
_geom_bond_site_symmetry_1
_geom_bond_site_symmetry_2
Co1 O1 1_555 1_555
Br1 C22 1_555 1_555
Br2 C4 1_555 1_555
O1 C15 1_555 1_555
N1 Co1 1_555 1_555
O2 Co1 1_555 1_555
O3 C15 1_555 1_555
N2 Co1 1_555 1_555
N3 Co1 1_555 1_555
C1 N3 1_555 1_555
H1 C1 1_555 1_555
N4 C7 1_555 1_555
N5 C16 1_555 1_555
C2 C19 1_555 1_555
C3 C10 1_555 1_555
C4 C28 1_555 1_555
C5 H2 1_555 1_555
C6 C9 1_555 1_555
C7 C21 1_555 1_555
C8 N3 1_555 1_555
H3 C8 1_555 1_555
C9 C8 1_555 1_555
H4 C9 1_555 1_555
C10 C32 1_555 1_555
C11 N1 1_555 1_555
C12 H5 1_555 1_555
C13 H6 1_555 1_555
C14 N4 1_555 1_555
H7 C14 1_555 1_555
C15 C18 1_555 1_555
C16 C6 1_555 1_555
C17 H8 1_555 1_555
C18 N1 1_555 1_555
C19 C12 1_555 1_555
C20 C1 1_555 1_555
H9 C20 1_555 1_555
C21 C13 1_555 1_555
C22 C31 1_555 1_555
C23 C16 1_555 1_555
H10 C23 1_555 1_555
C24 C18 1_555 1_555
H11 C24 1_555 1_555
C25 N5 1_555 1_555
H12 C25 1_555 1_555
C26 C2 1_555 1_555
H13 C26 1_555 1_555
C27 N2 1_555 1_555
H14 C27 1_555 1_555
C28 H15 1_555 1_555
C29 C2 1_555 1_555
H16 C29 1_555 1_555
C30 C5 1_555 1_555
H17 C30 1_555 1_555
C31 C26 1_555 1_555
H18 C31 1_555 1_555
C32 C28 1_555 1_555
H19 C32 1_555 1_555
C33 C7 1_555 1_555
H20 C33 1_555 1_555
C34 C10 1_555 1_555
H21 C34 1_555 1_555
C35 C4 1_555 1_555
H22 C35 1_555 1_555
C36 N2 1_555 1_555
H23 C36 1_555 1_555
C37 C3 1_555 1_555
H24 C37 1_555 1_555
C38 C22 1_555 1_555
H25 C38 1_555 1_555
Co2 O4 1_555 1_555
Br3 C54 1_555 1_555
Br4 C61 1_555 1_555
O4 C78 1_555 1_555
N6 Co2 1_555 1_555
N7 Co2 1_555 1_555
N8 Co2 1_555 1_555
N9 C45 1_555 1_555
C39 H26 1_555 1_555
C40 C50 1_555 1_555
C41 N8 1_555 1_555
H27 C41 1_555 1_555
C42 C44 1_555 1_555
O5 Co2 1_555 1_555
C43 H28 1_555 1_555
C44 N10 1_555 1_555
C45 C57 1_555 1_555
C46 N8 1_555 1_555
H29 C46 1_555 1_555
C47 N7 1_555 1_555
C48 C43 1_555 1_555
H30 C48 1_555 1_555
C49 N9 1_555 1_555
H31 C49 1_555 1_555
C50 C49 1_555 1_555
C51 C42 1_555 1_555
H32 C51 1_555 1_555
C52 C58 1_555 1_555
C53 N6 1_555 1_555
H33 C53 1_555 1_555
C54 C65 1_555 1_555
C55 C50 1_555 1_555
H34 C55 1_555 1_555
O6 C56 1_555 1_555
C56 O5 1_555 1_555
C57 C55 1_555 1_555
H35 C57 1_555 1_555
C58 H36 1_555 1_555
C59 N6 1_555 1_555
H37 C59 1_555 1_555
C60 C52 1_555 1_555
H38 C60 1_555 1_555
N10 C74 1_555 1_555
C61 C71 1_555 1_555
C62 C46 1_555 1_555
H39 C62 1_555 1_555
C63 C42 1_555 1_555
H40 C63 1_555 1_555
C64 C40 1_555 1_555
H41 C64 1_555 1_555
C65 H42 1_555 1_555
C66 C52 1_555 1_555
C67 C39 1_555 1_555
C68 C44 1_555 1_555
H43 C68 1_555 1_555
C69 C66 1_555 1_555
H44 C69 1_555 1_555
C70 C54 1_555 1_555
H45 C70 1_555 1_555
C71 C58 1_555 1_555
H46 C71 1_555 1_555
C72 C60 1_555 1_555
H47 C72 1_555 1_555
C73 C40 1_555 1_555
H48 C73 1_555 1_555
C74 C66 1_555 1_555
H49 C74 1_555 1_555
C75 C48 1_555 1_555
H50 C75 1_555 1_555
C76 N7 1_555 1_555
O9 C77 1_555 1_555
C77 O2 1_555 1_555
O10 C78 1_555 1_555
C78 C76 1_555 1_555
Co1A O9 1_555 1_555
Co2A O10 1_555 1_555
O9A Co1 1_555 1_555
O10A Co2 1_555 1_555
C3 C25 1_555 1_555
C5 C11 1_555 1_555
C6 C20 1_555 1_555
C11 C77 1_555 1_555
C12 C33 1_555 1_555
C13 C36 1_555 1_555
C14 C19 1_555 1_555
C17 C21 1_555 1_555
C17 C27 1_555 1_555
C23 C37 1_555 1_555
C24 C30 1_555 1_555
C29 C38 1_555 1_555
C34 C35 1_555 1_555
C39 C41 1_555 1_555
C43 C47 1_555 1_555
C45 C67 1_555 1_555
C47 C56 1_555 1_555
C51 C53 1_555 1_555
C59 C63 1_555 1_555
C61 C72 1_555 1_555
C62 C67 1_555 1_555
C64 C70 1_555 1_555
C65 C73 1_555 1_555
C68 C69 1_555 1_555
C75 C76 1_555 1_555

#END
