
#######################################################################
#
#                 Cambridge Crystallographic Data Centre
#                                CCDC 
#
#######################################################################
#
# If this CIF has been generated from an entry in the Cambridge 
# Structural Database, then it will include bibliographic, chemical, 
# crystal, experimental, refinement or atomic coordinate data resulting 
# from the CCDC's data processing and validation procedures.
#
#######################################################################

data_TIZVED
_symmetry_cell_setting           monoclinic
_symmetry_space_group_name_H-M   'C c'
_symmetry_Int_Tables_number      9
_space_group_name_Hall           'C -2yc'
loop_
_symmetry_equiv_pos_site_id
_symmetry_equiv_pos_as_xyz
1 x,y,z
2 x,-y,1/2+z
3 1/2+x,1/2+y,z
4 1/2+x,1/2-y,1/2+z
_cell_length_a                   9.599(3)
_cell_length_b                   27.298(5)
_cell_length_c                   13.367(3)
_cell_angle_alpha                90
_cell_angle_beta                 105.45(2)
_cell_angle_gamma                90
_cell_volume                     3376.03
loop_
_atom_site_label
_atom_site_type_symbol
_atom_site_fract_x
_atom_site_fract_y
_atom_site_fract_z
O1 O 0.846(2) -0.0219(9) -0.319(2)
O2 O 1.045(2) 0.0294(8) -0.223(2)
C1 C 0.823(3) -0.0344(9) -0.221(2)
C2 C 0.975(2) -0.0180(7) -0.191(1)
C3 C 0.792(3) 0.024(1) -0.330(2)
C4 C 0.919(3) 0.0436(9) -0.326(2)
N1 N -0.066(3) -0.4197(4) -0.007(2)
N2 N 0.029(2) -0.1365(6) -0.077(2)
C5 C -0.046(2) -0.3790(4) -0.012(2)
C6 C -0.035(1) -0.3257(4) -0.026(1)
C7 C 0.052(2) -0.3103(6) -0.092(1)
C8 C 0.075(1) -0.2603(5) -0.101(1)
C9 C 0.001(2) -0.2281(5) -0.053(1)
C10 C -0.086(1) -0.2443(5) 0.010(1)
C11 C -0.105(1) -0.2940(5) 0.0241(9)
C12 C 0.017(2) -0.1754(6) -0.066(1)
C13 C 0.172(2) -0.2426(7) -0.165(1)
C14 C -0.195(2) -0.3107(7) 0.092(1)
H1 H 0.0916 -0.3352 -0.1320
H2 H -0.1336 -0.2210 0.0441
H3 H 0.2140 -0.2699 -0.1928
H4 H 0.1175 -0.2238 -0.2235
H5 H 0.2480 -0.2228 -0.1257
H6 H -0.2918 -0.2990 0.0659
H7 H -0.1567 -0.2991 0.1605
H8 H -0.1978 -0.3458 0.0930
Cu1 Cu 0.4291 -0.38661(3) -0.0185
N3 N 0.261(1) -0.4243(4) -0.1034(9)
N4 N -0.404(1) -0.5721(4) -0.4434(8)
N5 N 0.501(1) -0.3421(5) -0.113(1)
N6 N 0.870(1) -0.1570(4) -0.4164(8)
C15 C 0.171(1) -0.4450(5) -0.146(1)
C16 C 0.044(1) -0.4740(5) -0.212(1)
C17 C -0.030(1) -0.4533(5) -0.302(1)
C18 C -0.148(2) -0.4789(5) -0.369(1)
C19 C -0.186(1) -0.5237(6) -0.332(1)
C20 C -0.109(2) -0.5416(5) -0.230(1)
C21 C 0.010(1) -0.5168(5) -0.1728(8)
C22 C -0.300(2) -0.5502(5) -0.390(1)
C23 C -0.230(2) -0.4596(6) -0.471(1)
C24 C 0.091(1) -0.5369(5) -0.066(1)
C25 C 0.551(1) -0.3141(5) -0.160(1)
C26 C 0.625(1) -0.2800(5) -0.212(1)
C27 C 0.606(2) -0.2297(7) -0.198(1)
C28 C 0.671(1) -0.1955(5) -0.247(1)
C29 C 0.759(1) -0.2153(6) -0.309(1)
C30 C 0.767(2) -0.2649(5) -0.327(1)
C31 C 0.697(2) -0.2966(6) -0.276(1)
C32 C 0.822(2) -0.1809(6) -0.371(1)
C33 C 0.668(2) -0.1443(6) -0.231(1)
C34 C 0.718(2) -0.3543(6) -0.297(1)
H9 H -0.0034 -0.4247 -0.3261
H10 H -0.1373 -0.5680 -0.1780
H11 H -0.1710 -0.4238 -0.4880
H12 H -0.2792 -0.4567 -0.4563
H13 H -0.2323 -0.4827 -0.5324
H14 H 0.0326 -0.5397 -0.0227
H15 H 0.1308 -0.5689 -0.0766
H16 H 0.1724 -0.5159 -0.0378
H17 H 0.5516 -0.2216 -0.1527
H18 H 0.8207 -0.2771 -0.3661
H19 H 0.5617 -0.1353 -0.2499
H20 H 0.7120 -0.1263 -0.2693
H21 H 0.7001 -0.1374 -0.1581
H22 H 0.7618 -0.3700 -0.2261
H23 H 0.7685 -0.3619 -0.3396
H24 H 0.6206 -0.3698 -0.3157
N4A N 0.596(1) -0.4279(4) 0.0566(8)
Cu1A Cu -0.5709 -0.61339(3) -0.5185
N6C N 0.370(1) -0.3430(4) 0.0836(8)
Cu1C Cu 0.9291 -0.11339(3) -0.5185
F1 F -0.041(2) -0.6511(5) -0.004(2)
F2 F 0.039(1) -0.7227(4) 0.0486(8)
F3 F 0.045(1) -0.6590(4) 0.152(1)
F4 F 0.182(1) -0.6595(5) 0.038(1)
B1 B 0.065(2) -0.6731(8) 0.061(2)
loop_
_geom_bond_atom_site_label_1
_geom_bond_atom_site_label_2
_geom_bond_site_symmetry_1
_geom_bond_site_symmetry_2
F1 B1 1_555 1_555
F2 B1 1_555 1_555
F3 B1 1_555 1_555
F4 B1 1_555 1_555
O1 C1 1_555 1_555
O2 C2 1_555 1_555
C1 C2 1_555 1_555
C3 O1 1_555 1_555
C4 O2 1_555 1_555
N1 C5 1_555 1_555
N2 C12 1_555 1_555
C5 C6 1_555 1_555
C6 C7 1_555 1_555
C7 C8 1_555 1_555
C8 C9 1_555 1_555
C9 C10 1_555 1_555
C10 C11 1_555 1_555
C11 C6 1_555 1_555
C12 C9 1_555 1_555
C13 C8 1_555 1_555
C14 C11 1_555 1_555
H1 C7 1_555 1_555
H2 C10 1_555 1_555
H3 C13 1_555 1_555
H4 C13 1_555 1_555
H5 C13 1_555 1_555
H6 C14 1_555 1_555
H7 C14 1_555 1_555
H8 C14 1_555 1_555
Cu1 N3 1_555 1_555
N3 C15 1_555 1_555
N4 C22 1_555 1_555
N5 Cu1 1_555 1_555
N6 C32 1_555 1_555
C15 C16 1_555 1_555
C16 C17 1_555 1_555
C17 C18 1_555 1_555
C18 C19 1_555 1_555
C19 C20 1_555 1_555
C20 C21 1_555 1_555
C21 C16 1_555 1_555
C22 C19 1_555 1_555
C23 C18 1_555 1_555
C24 C21 1_555 1_555
C25 N5 1_555 1_555
C26 C25 1_555 1_555
C27 C26 1_555 1_555
C28 C27 1_555 1_555
C29 C28 1_555 1_555
C30 C29 1_555 1_555
C31 C26 1_555 1_555
C32 C29 1_555 1_555
C33 C28 1_555 1_555
C34 C31 1_555 1_555
H9 C17 1_555 1_555
H10 C20 1_555 1_555
H11 C23 1_555 1_555
H12 C23 1_555 1_555
H13 C23 1_555 1_555
H14 C24 1_555 1_555
H15 C24 1_555 1_555
H16 C24 1_555 1_555
H17 C27 1_555 1_555
H18 C30 1_555 1_555
H19 C33 1_555 1_555
H20 C33 1_555 1_555
H21 C33 1_555 1_555
H22 C34 1_555 1_555
H23 C34 1_555 1_555
H24 C34 1_555 1_555
N4A Cu1 1_555 1_555
Cu1A N4 1_555 1_555
N6C Cu1 1_555 1_555
Cu1C N6 1_555 1_555
C3 C4 1_555 1_555
C30 C31 1_555 1_555

#END
