
#######################################################################
#
#                 Cambridge Crystallographic Data Centre
#                                CCDC 
#
#######################################################################
#
# If this CIF has been generated from an entry in the Cambridge 
# Structural Database, then it will include bibliographic, chemical, 
# crystal, experimental, refinement or atomic coordinate data resulting 
# from the CCDC's data processing and validation procedures.
#
#######################################################################

data_TIZVIH
_symmetry_cell_setting           monoclinic
_symmetry_space_group_name_H-M   'C c'
_symmetry_Int_Tables_number      9
_space_group_name_Hall           'C -2yc'
loop_
_symmetry_equiv_pos_site_id
_symmetry_equiv_pos_as_xyz
1 x,y,z
2 x,-y,1/2+z
3 1/2+x,1/2+y,z
4 1/2+x,1/2-y,1/2+z
_cell_length_a                   9.590(7)
_cell_length_b                   27.429(3)
_cell_length_c                   13.416(4)
_cell_angle_alpha                90
_cell_angle_beta                 105.80(3)
_cell_angle_gamma                90
_cell_volume                     3395.67
loop_
_atom_site_label
_atom_site_type_symbol
_atom_site_fract_x
_atom_site_fract_y
_atom_site_fract_z
Cu1 Cu 0.8236 0.11447(3) 0.2254
N1 N 0.6580(8) 0.0756(3) 0.1419(8)
N2 N -0.007(1) -0.0741(4) -0.1981(8)
N3 N 0.895(1) 0.1599(4) 0.1291(8)
N4 N 1.265(1) 0.3431(4) -0.1733(8)
C1 C 0.565(1) 0.0544(4) 0.096(1)
C2 C 0.444(1) 0.0265(4) 0.0343(9)
C3 C 0.362(1) 0.0455(5) -0.061(1)
C4 C 0.243(1) 0.0209(4) -0.126(1)
C5 C 0.212(1) -0.0242(5) -0.086(1)
C6 C 0.286(1) -0.0419(4) 0.013(1)
C7 C 0.402(1) -0.0163(4) 0.0715(8)
C8 C 0.092(1) -0.0512(4) -0.1469(9)
C9 C 0.160(1) 0.0381(5) -0.228(1)
C10 C 0.486(1) -0.0370(5) 0.177(1)
C11 C 0.949(1) 0.1867(4) 0.087(1)
C12 C 1.019(1) 0.2196(4) 0.0330(9)
C13 C 1.003(1) 0.2701(5) 0.048(1)
C14 C 1.067(1) 0.3037(5) -0.0032(9)
C15 C 1.152(1) 0.2836(4) -0.064(1)
C16 C 1.162(1) 0.2357(5) -0.0806(9)
C17 C 1.091(2) 0.2011(5) -0.032(1)
C18 C 1.222(1) 0.3179(5) -0.124(1)
C19 C 1.065(2) 0.3578(5) 0.014(1)
C20 C 1.109(2) 0.1474(5) -0.049(1)
H1 H 0.3900 0.0752 -0.0808
H2 H 0.2466 -0.0636 0.0336
H3 H 0.2004 0.0696 -0.2377
H4 H 0.0640 0.0414 -0.2288
H5 H 0.1742 0.0164 -0.2782
H6 H 0.5904 -0.0429 0.1721
H7 H 0.4992 -0.0127 0.2294
H8 H 0.4541 -0.0657 0.1946
H9 H 0.9401 0.2816 0.0968
H10 H 1.2187 0.2203 -0.1296
H11 H 0.9971 0.3654 0.0518
H12 H 1.0194 0.3719 -0.0577
H13 H 1.1523 0.3707 0.0390
H14 H 1.0576 0.1280 -0.0181
H15 H 1.2085 0.1390 -0.0344
H16 H 1.0707 0.1422 -0.1271
N2A N 0.993(1) 0.0741(4) 0.3019(8)
N4C N 0.765(1) 0.1569(4) 0.3267(8)
Cu1A Cu -0.1764 -0.11447(3) -0.2746
Cu1C Cu 1.3236 0.38553(3) -0.2746
Cl1 Cl 0.4654(4) 0.1730(1) 0.8090(3)
O1 O 0.444(1) 0.2236(4) 0.7957(8)
O2 O 0.450(1) 0.1595(5) 0.908(1)
O3 O 0.348(2) 0.1495(5) 0.737(2)
O4 O 0.588(1) 0.1580(4) 0.785(1)
O5 O 0.808(3) -0.045(1) 0.413(2)
C21 C 0.934(2) -0.0305(6) 0.522(1)
C22 C 0.688(2) -0.0217(9) 0.412(2)
C23 C 0.872(2) 0.0176(8) 0.549(2)
C24 C 0.732(2) 0.0208(8) 0.426(2)
N5 N 0.332(2) 0.0799(3) 0.232(1)
N6 N 0.425(2) 0.3626(5) 0.168(1)
C25 C 0.348(2) 0.1201(4) 0.233(1)
C26 C 0.365(1) 0.1736(4) 0.2189(9)
C27 C 0.452(1) 0.1889(5) 0.154(1)
C28 C 0.471(1) 0.2398(5) 0.145(1)
C29 C 0.399(1) 0.2704(4) 0.194(1)
C30 C 0.315(1) 0.2548(5) 0.255(1)
C31 C 0.293(1) 0.2045(4) 0.2699(9)
C32 C 0.416(1) 0.3225(5) 0.181(1)
C33 C 0.575(2) 0.2572(6) 0.083(1)
C34 C 0.207(1) 0.1877(6) 0.340(1)
H17 H 0.5221 0.1680 0.1261
H18 H 0.2636 0.2777 0.2875
H19 H 0.6699 0.2458 0.1128
H20 H 0.5421 0.2472 0.0128
H21 H 0.5764 0.2925 0.0846
H22 H 0.1994 0.1532 0.3429
H23 H 0.1043 0.1996 0.3155
H24 H 0.2411 0.1999 0.4094
O6? O 0.938(2) -0.0364(8) 0.433(2)
O7? O 0.814(8) 0.035(3) 0.510(6)
loop_
_geom_bond_atom_site_label_1
_geom_bond_atom_site_label_2
_geom_bond_site_symmetry_1
_geom_bond_site_symmetry_2
Cu1 N1 1_555 1_555
N1 C1 1_555 1_555
N2 C8 1_555 1_555
N3 Cu1 1_555 1_555
N4 C18 1_555 1_555
C1 C2 1_555 1_555
C2 C3 1_555 1_555
C3 C4 1_555 1_555
C4 C5 1_555 1_555
C5 C6 1_555 1_555
C6 C7 1_555 1_555
C7 C2 1_555 1_555
C8 C5 1_555 1_555
C9 C4 1_555 1_555
C10 C7 1_555 1_555
C11 N3 1_555 1_555
C12 C11 1_555 1_555
C13 C12 1_555 1_555
C14 C13 1_555 1_555
C15 C14 1_555 1_555
C16 C15 1_555 1_555
C17 C12 1_555 1_555
C18 C15 1_555 1_555
C19 C14 1_555 1_555
C20 C17 1_555 1_555
H1 C3 1_555 1_555
H2 C6 1_555 1_555
H3 C9 1_555 1_555
H4 C9 1_555 1_555
H5 C9 1_555 1_555
H6 C10 1_555 1_555
H7 C10 1_555 1_555
H8 C10 1_555 1_555
H9 C13 1_555 1_555
H10 C16 1_555 1_555
H11 C19 1_555 1_555
H12 C19 1_555 1_555
H13 C19 1_555 1_555
H14 C20 1_555 1_555
H15 C20 1_555 1_555
H16 C20 1_555 1_555
Cl1 O1 1_555 1_555
O2 Cl1 1_555 1_555
O3 Cl1 1_555 1_555
O4 Cl1 1_555 1_555
O5 C21 1_555 1_555
C21 C23 1_555 1_555
C22 O5 1_555 1_555
C23 C24 1_555 1_555
C24 C22 1_555 1_555
N5 C25 1_555 1_555
N6 C32 1_555 1_555
C25 C26 1_555 1_555
C26 C27 1_555 1_555
C27 C28 1_555 1_555
C28 C29 1_555 1_555
C29 C30 1_555 1_555
C30 C31 1_555 1_555
C31 C26 1_555 1_555
C32 C29 1_555 1_555
C33 C28 1_555 1_555
C34 C31 1_555 1_555
H17 C27 1_555 1_555
H18 C30 1_555 1_555
H19 C33 1_555 1_555
H20 C33 1_555 1_555
H21 C33 1_555 1_555
H22 C34 1_555 1_555
H23 C34 1_555 1_555
H24 C34 1_555 1_555
N2A Cu1 1_555 1_555
N4C Cu1 1_555 1_555
Cu1A N2 1_555 1_555
Cu1C N4 1_555 1_555
C16 C17 1_555 1_555

#END
