
#######################################################################
#
#                 Cambridge Crystallographic Data Centre
#                                CCDC 
#
#######################################################################
#
# If this CIF has been generated from an entry in the Cambridge 
# Structural Database, then it will include bibliographic, chemical, 
# crystal, experimental, refinement or atomic coordinate data resulting 
# from the CCDC's data processing and validation procedures.
#
#######################################################################

data_TIZWOO
_symmetry_cell_setting           monoclinic
_symmetry_space_group_name_H-M   'P 21/c'
_symmetry_Int_Tables_number      14
_space_group_name_Hall           '-P 2ybc'
loop_
_symmetry_equiv_pos_site_id
_symmetry_equiv_pos_as_xyz
1 x,y,z
2 -x,1/2+y,1/2-z
3 -x,-y,-z
4 x,1/2-y,1/2+z
_cell_length_a                   15.117(4)
_cell_length_b                   18.634(3)
_cell_length_c                   8.856(3)
_cell_angle_alpha                90
_cell_angle_beta                 105.89(1)
_cell_angle_gamma                90
_cell_volume                     2399.33
loop_
_atom_site_label
_atom_site_type_symbol
_atom_site_fract_x
_atom_site_fract_y
_atom_site_fract_z
Mo1 Mo 0.55353(6) 0.03792(4) 0.0340(1)
Mo2 Mo 0.93720(6) 0.47504(5) -0.0008(1)
F1 F 0.3574(7) 0.1271(5) 0.334(1)
F2 F 0.4605(7) 0.0783(7) 0.5051(9)
F3 F 0.3366(7) 0.0243(6) 0.402(1)
F4 F 0.6469(7) -0.1961(6) 0.338(1)
F5 F 0.6840(9) -0.2083(6) 0.140(1)
F6 F 0.7578(7) -0.1429(5) 0.299(2)
F7 F 0.8358(5) 0.6869(4) 0.2049(9)
F8 F 0.8822(8) 0.7364(4) 0.029(1)
F9 F 0.9713(6) 0.7249(5) 0.260(1)
F10 F 1.1729(8) 0.3884(7) 0.488(1)
F11 F 1.0529(8) 0.4046(8) 0.529(1)
F12 F 1.145(1) 0.4862(6) 0.559(1)
O1 O 0.5087(5) 0.0704(4) 0.2314(8)
O2 O 0.6452(5) -0.0393(4) 0.1669(8)
O3 O 0.3947(5) -0.0109(4) 0.1592(8)
O4 O 0.5310(5) -0.1202(4) 0.0947(8)
O5 O 0.8880(5) 0.5700(4) 0.0808(8)
O6 O 0.9920(5) 0.4394(4) 0.2348(8)
O7 O 1.0212(5) 0.6225(4) 0.0834(8)
O8 O 1.1240(5) 0.4945(4) 0.2381(8)
O9 O 0.6736(6) 0.1426(5) 0.100(1)
O10 O 0.7895(6) 0.4048(5) 0.002(1)
C1 C 0.4376(7) 0.0389(6) 0.244(1)
C2 C 0.3960(8) 0.0679(7) 0.375(1)
C3 C 0.6125(7) -0.1022(6) 0.162(1)
C4 C 0.6771(9) -0.1615(6) 0.243(2)
C5 C 0.9414(8) 0.6226(6) 0.102(1)
C6 C 0.9082(9) 0.6938(6) 0.152(1)
C7 C 1.0719(8) 0.4576(6) 0.298(1)
C8 C 1.114(1) 0.4357(7) 0.470(1)
C9 C 0.7018(8) 0.2056(6) 0.079(1)
C10 C 0.7823(7) 0.2135(6) 0.021(1)
C11 C 0.8112(8) 0.2803(7) -0.001(2)
C12 C 0.7620(8) 0.3424(7) 0.029(2)
C13 C 0.6821(8) 0.3333(6) 0.085(2)
C14 C 0.6519(8) 0.2680(6) 0.113(1)
C15 C 0.830(1) 0.1468(7) -0.010(2)
C16 C 0.5688(8) 0.2568(7) 0.169(2)
H1 H 0.801 0.105 0.013
H2 H 0.831 0.144 -0.118
H3 H 0.893 0.146 0.053
H4 H 0.865 0.286 -0.041
H5 H 0.649 0.376 0.102
H6 H 0.558 0.207 0.181
H7 H 0.575 0.280 0.267
H8 H 0.515 0.276 0.095
Mo1B Mo 0.44647(6) -0.03792(4) -0.0340(1)
O3B O 0.6053(5) 0.0109(4) -0.1592(8)
O4B O 0.4690(5) 0.1202(4) -0.0947(8)
Mo2B Mo 1.06280(6) 0.52496(5) 0.0008(1)
O7B O 0.9788(5) 0.3775(4) -0.0834(8)
O8B O 0.8760(5) 0.5055(4) -0.2381(8)
loop_
_geom_bond_atom_site_label_1
_geom_bond_atom_site_label_2
_geom_bond_site_symmetry_1
_geom_bond_site_symmetry_2
Mo1 O1 1_555 1_555
Mo2 O5 1_555 1_555
F1 C2 1_555 1_555
F2 C2 1_555 1_555
F3 C2 1_555 1_555
F4 C4 1_555 1_555
F5 C4 1_555 1_555
F6 C4 1_555 1_555
F7 C6 1_555 1_555
F8 C6 1_555 1_555
F9 C6 1_555 1_555
F10 C8 1_555 1_555
F11 C8 1_555 1_555
F12 C8 1_555 1_555
O1 C1 1_555 1_555
O2 Mo1 1_555 1_555
O3 C1 1_555 1_555
O4 C3 1_555 1_555
O5 C5 1_555 1_555
O6 Mo2 1_555 1_555
O7 C5 1_555 1_555
O8 C7 1_555 1_555
O9 Mo1 1_555 1_555
O10 Mo2 1_555 1_555
C1 C2 1_555 1_555
C3 O2 1_555 1_555
C4 C3 1_555 1_555
C5 C6 1_555 1_555
C7 O6 1_555 1_555
C8 C7 1_555 1_555
C9 O9 1_555 1_555
C10 C9 1_555 1_555
C11 C10 1_555 1_555
C12 O10 1_555 1_555
C13 C12 1_555 1_555
C14 C9 1_555 1_555
C15 C10 1_555 1_555
C16 C14 1_555 1_555
H1 C15 1_555 1_555
H2 C15 1_555 1_555
H3 C15 1_555 1_555
H4 C11 1_555 1_555
H5 C13 1_555 1_555
H6 C16 1_555 1_555
H7 C16 1_555 1_555
H8 C16 1_555 1_555
Mo1B Mo1 1_555 1_555
O3B Mo1 1_555 1_555
O4B Mo1 1_555 1_555
Mo2B Mo2 1_555 1_555
O7B Mo2 1_555 1_555
O8B Mo2 1_555 1_555
O3 Mo1B 1_555 1_555
O4 Mo1B 1_555 1_555
O7 Mo2B 1_555 1_555
O8 Mo2B 1_555 1_555
C11 C12 1_555 1_555
C13 C14 1_555 1_555

#END
