
#######################################################################
#
#                 Cambridge Crystallographic Data Centre
#                                CCDC 
#
#######################################################################
#
# If this CIF has been generated from an entry in the Cambridge 
# Structural Database, then it will include bibliographic, chemical, 
# crystal, experimental, refinement or atomic coordinate data resulting 
# from the CCDC's data processing and validation procedures.
#
#######################################################################

data_TOBHEX
_symmetry_cell_setting           triclinic
_symmetry_space_group_name_H-M   'P -1'
_symmetry_Int_Tables_number      2
_space_group_name_Hall           '-P 1'
loop_
_symmetry_equiv_pos_site_id
_symmetry_equiv_pos_as_xyz
1 x,y,z
2 -x,-y,-z
_cell_length_a                   4.856(2)
_cell_length_b                   14.225(5)
_cell_length_c                   4.788(2)
_cell_angle_alpha                97.85(1)
_cell_angle_beta                 110.14(1)
_cell_angle_gamma                89.38(1)
_cell_volume                     307.372
loop_
_atom_site_label
_atom_site_type_symbol
_atom_site_fract_x
_atom_site_fract_y
_atom_site_fract_z
Cu1 Cu 0.000 0.0000 0.000
P1 P 0.489(2) 0.1372(4) -0.020(2)
O1 O 0.269(3) 0.1245(6) -0.369(2)
O2 O 0.379(3) 0.0828(6) 0.174(3)
O3 O 0.788(2) 0.1111(5) -0.030(3)
C1 C 0.498(3) 0.2652(4) 0.085(3)
C2 C 0.224(3) 0.3064(7) -0.060(5)
C3 C 0.226(3) 0.4050(8) -0.054(6)
C4 C 0.504(3) 0.4528(5) 0.051(4)
C5 C 0.732(3) 0.4004(7) -0.005(6)
C6 C 0.714(3) 0.3040(7) -0.030(6)
C4A C 0.496(3) 0.5472(5) -0.051(4)
C3A C 0.774(3) 0.5950(8) 0.054(6)
C2A C 0.776(3) 0.6936(7) 0.060(5)
C1A C 0.502(3) 0.7348(4) -0.085(3)
P1A P 0.511(2) 0.8628(4) 0.020(2)
O1A O 0.731(3) 0.8755(6) 0.369(2)
O2A O 0.621(3) 0.9172(6) -0.174(3)
O3A O 0.212(2) 0.8889(5) 0.030(3)
C6A C 0.286(3) 0.6960(7) 0.030(6)
C5A C 0.268(3) 0.5996(7) 0.005(6)
O2A_2 O -0.379(3) -0.0828(6) -0.174(3)
O3_2 O -0.212(2) 0.1111(5) -0.030(3)
O3A_2 O 0.212(2) -0.1111(5) 0.030(3)
Cu1_2 Cu 1.000 0.0000 0.000
Cu1_3 Cu 1.000 1.0000 0.000
Cu1_4 Cu 0.000 1.0000 0.000
loop_
_geom_bond_atom_site_label_1
_geom_bond_atom_site_label_2
_geom_bond_site_symmetry_1
_geom_bond_site_symmetry_2
Cu1 O2 1_555 1_555
P1 O1 1_555 1_555
O2 P1 1_555 1_555
O3 P1 1_555 1_555
C1 P1 1_555 1_555
C2 C1 1_555 1_555
C3 C2 1_555 1_555
C4 C3 1_555 1_555
C5 C4 1_555 1_555
C6 C1 1_555 1_555
C4A C4 1_555 1_555
C3A C4A 1_555 1_555
C2A C3A 1_555 1_555
C1A C2A 1_555 1_555
P1A C1A 1_555 1_555
O1A P1A 1_555 1_555
O2A P1A 1_555 1_555
O3A P1A 1_555 1_555
C6A C1A 1_555 1_555
C5A C4A 1_555 1_555
O2A_2 Cu1 1_555 1_555
O3_2 Cu1 1_555 1_555
O3A_2 Cu1 1_555 1_555
Cu1_2 O3 1_555 1_555
Cu1_3 O2A 1_555 1_555
Cu1_4 O3A 1_555 1_555
C5 C6 1_555 1_555
C6A C5A 1_555 1_555

#END
