
#######################################################################
#
#                 Cambridge Crystallographic Data Centre
#                                CCDC 
#
#######################################################################
#
# If this CIF has been generated from an entry in the Cambridge 
# Structural Database, then it will include bibliographic, chemical, 
# crystal, experimental, refinement or atomic coordinate data resulting 
# from the CCDC's data processing and validation procedures.
#
#######################################################################

data_TOBJIF
_symmetry_cell_setting           monoclinic
_symmetry_space_group_name_H-M   'P 2/c'
_symmetry_Int_Tables_number      13
_space_group_name_Hall           '-P 2yc'
loop_
_symmetry_equiv_pos_site_id
_symmetry_equiv_pos_as_xyz
1 x,y,z
2 -x,y,1/2-z
3 -x,-y,-z
4 x,-y,1/2+z
_cell_length_a                   11.642(3)
_cell_length_b                   10.284(5)
_cell_length_c                   19.916(3)
_cell_angle_alpha                90
_cell_angle_beta                 114.706(16)
_cell_angle_gamma                90
_cell_volume                     2166.21
loop_
_atom_site_label
_atom_site_type_symbol
_atom_site_fract_x
_atom_site_fract_y
_atom_site_fract_z
N1 N 0.5650(7) 1.3079(7) 0.3369(4)
C1 C 0.4963(7) 1.2027(8) 0.3333(4)
C2 C 0.6748(8) 1.3191(8) 0.3958(5)
Zn1 Zn 0.5000 0.45675(14) 0.2500
O1 O 0.6813(4) 0.4529(5) 0.2511(3)
H1 H 0.6796 0.4070 0.2051
H2 H 0.7128 0.5435 0.2499
N2 N 0.7422(6) 1.0707(6) 0.5819(4)
N3 N 0.7249(5) 0.8548(6) 0.5810(3)
H3 H 0.7288 0.7780 0.5969
N4 N 0.5575(6) 0.6078(6) 0.3357(4)
N5 N 0.9224(7) 0.9746(9) 0.8589(4)
C3 C 0.5293(8) 0.5989(8) 0.3955(5)
H4 H 0.4821 0.5278 0.3983
C4 C 0.5660(8) 0.6873(8) 0.4512(4)
H5 H 0.5468 0.6734 0.4915
C5 C 0.6314(7) 0.7974(8) 0.4485(4)
C6 C 0.6582(7) 0.8091(7) 0.3869(4)
H6 H 0.7028 0.8810 0.3823
C7 C 0.6194(7) 0.7160(8) 0.3329(4)
H7 H 0.6371 0.7285 0.2920
C8 C 0.6758(7) 0.8929(8) 0.5077(4)
C9 C 0.6874(7) 1.0259(8) 0.5098(4)
C10 C 0.6454(8) 1.1197(8) 0.4491(4)
C11 C 0.5346(7) 1.1071(7) 0.3875(4)
H8 H 0.4843 1.0341 0.3818
H9 H 0.4188 1.1932 0.2930
H10 H 0.7245 1.3922 0.3994
C12 C 0.7179(8) 1.2288(8) 0.4527(4)
H11 H 0.7949 1.2412 0.4931
C13 C 0.7649(7) 0.9633(9) 0.6225(4)
C14 C 0.8199(7) 0.9643(9) 0.7046(4)
C15 C 0.8497(8) 0.8523(8) 0.7464(5)
H12 H 0.8371 0.7711 0.7239
C16 C 0.8990(9) 0.8632(10) 0.8225(5)
H13 H 0.9168 0.7869 0.8500
C17 C 0.8945(9) 1.0820(9) 0.8178(6)
H14 H 0.9112 1.1619 0.8418
C18 C 0.8427(8) 1.0814(8) 0.7421(5)
H15 H 0.8228 1.1593 0.7160
N1A N 0.4350(7) 1.3079(7) 0.1631(4)
C1A C 0.5037(7) 1.2027(8) 0.1667(4)
C2A C 0.3252(8) 1.3191(8) 0.1042(5)
O1A O 0.3187(4) 0.4529(5) 0.2489(3)
H1A H 0.3204 0.4070 0.2949
H2A H 0.2872 0.5435 0.2501
N2A N 0.2578(6) 1.0707(6) -0.0819(4)
N3A N 0.2751(5) 0.8548(6) -0.0810(3)
H3A H 0.2712 0.7780 -0.0969
N4A N 0.4425(6) 0.6078(6) 0.1643(4)
N5A N 0.0776(7) 0.9746(9) -0.3589(4)
C3A C 0.4707(8) 0.5989(8) 0.1045(5)
H4A H 0.5179 0.5278 0.1017
C4A C 0.4340(8) 0.6873(8) 0.0488(4)
H5A H 0.4532 0.6734 0.0085
C5A C 0.3686(7) 0.7974(8) 0.0515(4)
C6A C 0.3418(7) 0.8091(7) 0.1131(4)
H6A H 0.2972 0.8810 0.1177
C7A C 0.3806(7) 0.7160(8) 0.1671(4)
H7A H 0.3629 0.7285 0.2080
C8A C 0.3242(7) 0.8929(8) -0.0077(4)
C9A C 0.3126(7) 1.0259(8) -0.0098(4)
C10A C 0.3546(8) 1.1197(8) 0.0509(4)
C11A C 0.4654(7) 1.1071(7) 0.1125(4)
H8A H 0.5157 1.0341 0.1182
H9A H 0.5812 1.1932 0.2070
H10A H 0.2755 1.3922 0.1006
C12A C 0.2821(8) 1.2288(8) 0.0473(4)
H11A H 0.2051 1.2412 0.0069
C13A C 0.2351(7) 0.9633(9) -0.1225(4)
C14A C 0.1801(7) 0.9643(9) -0.2046(4)
C15A C 0.1503(8) 0.8523(8) -0.2464(5)
H12A H 0.1629 0.7711 -0.2239
C16A C 0.1010(9) 0.8632(10) -0.3225(5)
H13A H 0.0832 0.7869 -0.3500
C17A C 0.1055(9) 1.0820(9) -0.3178(6)
H14A H 0.0888 1.1619 -0.3418
C18A C 0.1573(8) 1.0814(8) -0.2421(5)
H15A H 0.1772 1.1593 -0.2160
N1_2 N 0.5650(7) 0.3079(7) 0.3369(4)
N1A_2 N 0.4350(7) 0.3079(7) 0.1631(4)
Zn1_2 Zn 0.5000 1.45675(14) 0.2500
O2 O 0.7281(6) 0.6028(5) 0.6317(3)
O3 O 0.8950(6) 0.5796(6) 0.6054(4)
C19 C 0.8169(10) 0.5373(10) 0.6274(5)
C20 C 0.8297(9) 0.3964(9) 0.6510(5)
H16 H 0.7651 0.3752 0.6673
H17 H 0.9114 0.3825 0.6907
H18 H 0.8207 0.3419 0.6099
O4 O 0.1124(5) 0.4494(6) 0.6374(3)
O5 O 0.0603(7) 0.3166(8) 0.5076(4)
O6 O 0.0303(13) 0.0736(13) 0.5055(8)
loop_
_geom_bond_atom_site_label_1
_geom_bond_atom_site_label_2
_geom_bond_site_symmetry_1
_geom_bond_site_symmetry_2
N1 C1 1_555 1_555
C1 C11 1_555 1_555
C2 N1 1_555 1_555
Zn1 O1 1_555 1_555
O1 H1 1_555 1_555
H2 O1 1_555 1_555
N2 C9 1_555 1_555
N3 H3 1_555 1_555
N4 Zn1 1_555 1_555
N5 C16 1_555 1_555
C3 N4 1_555 1_555
H4 C3 1_555 1_555
C4 C3 1_555 1_555
H5 C4 1_555 1_555
C5 C4 1_555 1_555
C6 C5 1_555 1_555
H6 C6 1_555 1_555
C7 N4 1_555 1_555
H7 C7 1_555 1_555
C8 N3 1_555 1_555
C9 C8 1_555 1_555
C10 C9 1_555 1_555
C11 C10 1_555 1_555
H8 C11 1_555 1_555
H9 C1 1_555 1_555
H10 C2 1_555 1_555
C12 C2 1_555 1_555
H11 C12 1_555 1_555
C13 N2 1_555 1_555
C14 C13 1_555 1_555
C15 C14 1_555 1_555
H12 C15 1_555 1_555
C16 C15 1_555 1_555
H13 C16 1_555 1_555
C17 N5 1_555 1_555
H14 C17 1_555 1_555
C18 C14 1_555 1_555
H15 C18 1_555 1_555
O2 C19 1_555 1_555
O3 C19 1_555 1_555
C19 C20 1_555 1_555
C20 H16 1_555 1_555
H17 C20 1_555 1_555
H18 C20 1_555 1_555
N1A C1A 1_555 1_555
C1A C11A 1_555 1_555
C2A N1A 1_555 1_555
O1A Zn1 1_555 1_555
H1A O1A 1_555 1_555
H2A O1A 1_555 1_555
N2A C9A 1_555 1_555
N3A H3A 1_555 1_555
N4A Zn1 1_555 1_555
N5A C16A 1_555 1_555
C3A N4A 1_555 1_555
H4A C3A 1_555 1_555
C4A C3A 1_555 1_555
H5A C4A 1_555 1_555
C5A C4A 1_555 1_555
C6A C5A 1_555 1_555
H6A C6A 1_555 1_555
C7A N4A 1_555 1_555
H7A C7A 1_555 1_555
C8A N3A 1_555 1_555
C9A C8A 1_555 1_555
C10A C9A 1_555 1_555
C11A C10A 1_555 1_555
H8A C11A 1_555 1_555
H9A C1A 1_555 1_555
H10A C2A 1_555 1_555
C12A C2A 1_555 1_555
H11A C12A 1_555 1_555
C13A N2A 1_555 1_555
C14A C13A 1_555 1_555
C15A C14A 1_555 1_555
H12A C15A 1_555 1_555
C16A C15A 1_555 1_555
H13A C16A 1_555 1_555
C17A N5A 1_555 1_555
H14A C17A 1_555 1_555
C18A C14A 1_555 1_555
H15A C18A 1_555 1_555
N1_2 Zn1 1_555 1_555
N1A_2 Zn1 1_555 1_555
Zn1_2 N1 1_555 1_555
N3 C13 1_555 1_555
C5 C8 1_555 1_555
C6 C7 1_555 1_555
C10 C12 1_555 1_555
C17 C18 1_555 1_555
N1A Zn1_2 1_555 1_555
N3A C13A 1_555 1_555
C5A C8A 1_555 1_555
C6A C7A 1_555 1_555
C10A C12A 1_555 1_555
C17A C18A 1_555 1_555

#END
