
#######################################################################
#
#                 Cambridge Crystallographic Data Centre
#                                CCDC 
#
#######################################################################
#
# If this CIF has been generated from an entry in the Cambridge 
# Structural Database, then it will include bibliographic, chemical, 
# crystal, experimental, refinement or atomic coordinate data resulting 
# from the CCDC's data processing and validation procedures.
#
#######################################################################

data_TOBJEB
_symmetry_cell_setting           triclinic
_symmetry_space_group_name_H-M   'P -1'
_symmetry_Int_Tables_number      2
_space_group_name_Hall           '-P 1'
loop_
_symmetry_equiv_pos_site_id
_symmetry_equiv_pos_as_xyz
1 x,y,z
2 -x,-y,-z
_cell_length_a                   7.548(4)
_cell_length_b                   10.060(5)
_cell_length_c                   30.328(3)
_cell_angle_alpha                85.046(4)
_cell_angle_beta                 87.380(2)
_cell_angle_gamma                77.3180(10)
_cell_volume                     2237.47
loop_
_atom_site_label
_atom_site_type_symbol
_atom_site_fract_x
_atom_site_fract_y
_atom_site_fract_z
C1 C 0.2680(15) -0.0865(11) -0.0816(3)
H1 H 0.2568 -0.1554 -0.0991
C2 C 0.2443(14) -0.1066(10) -0.0372(3)
H2 H 0.2175 -0.1884 -0.0251
C3 C 0.3247(14) 0.1259(11) -0.0751(3)
H3 H 0.3564 0.2050 -0.0880
C4 C 0.2982(13) 0.1140(10) -0.0298(3)
H4 H 0.3061 0.1854 -0.0130
C5 C 0.2591(12) -0.0075(9) -0.0092(3)
C6 C 0.1837(11) -0.1145(8) 0.1047(2)
C7 C 0.2312(11) -0.0251(8) 0.0384(2)
C8 C 0.1935(11) 0.0196(8) 0.1077(2)
C9 C 0.1587(12) -0.2189(8) 0.1398(3)
C10 C 0.0732(12) -0.3244(9) 0.1323(3)
H5 H 0.0327 -0.3311 0.1042
C11 C 0.0495(12) -0.4179(8) 0.1664(3)
H6 H -0.0108 -0.4857 0.1608
C12 C 0.1947(12) -0.3186(8) 0.2145(3)
H7 H 0.2377 -0.3168 0.2426
C13 C 0.2229(12) -0.2193(9) 0.1820(3)
H8 H 0.2845 -0.1531 0.1885
C14 C 0.1693(12) 0.1044(8) 0.1458(3)
C15 C 0.0199(11) 0.1103(8) 0.1751(3)
H9 H -0.0630 0.0555 0.1725
C16 C -0.0015(12) 0.1992(8) 0.2081(3)
H10 H -0.1026 0.2044 0.2271
C17 C 0.2603(11) 0.2694(8) 0.1867(3)
H11 H 0.3443 0.3219 0.1910
C18 C 0.2899(12) 0.1863(8) 0.1525(3)
H12 H 0.3910 0.1846 0.1337
C19 C -0.0954(10) 0.7128(8) 0.3019(3)
H13 H -0.1450 0.7391 0.2741
C20 C -0.1361(11) 0.8041(8) 0.3342(3)
H14 H -0.2105 0.8899 0.3281
C21 C -0.0649(10) 0.7667(8) 0.3760(2)
C22 C 0.0829(11) 0.5524(8) 0.3488(3)
H15 H 0.1597 0.4669 0.3538
C23 C 0.0468(11) 0.6369(8) 0.3828(3)
H16 H 0.0967 0.6076 0.4104
C24 C -0.1085(11) 0.8566(8) 0.4128(2)
C25 C -0.1171(10) 0.9943(8) 0.4135(2)
C26 C -0.2042(11) 0.9124(8) 0.4786(2)
C27 C -0.2784(11) 0.9041(8) 0.5239(2)
C28 C -0.2926(13) 0.7782(9) 0.5452(3)
H17 H -0.2496 0.6978 0.5315
C29 C -0.3714(14) 0.7750(11) 0.5872(3)
H18 H -0.3780 0.6899 0.6010
C30 C -0.4202(12) 1.0040(10) 0.5887(3)
H19 H -0.4628 1.0824 0.6036
C31 C -0.3425(12) 1.0189(9) 0.5469(3)
H20 H -0.3333 1.1049 0.5344
C32 C -0.0749(10) 1.0953(8) 0.3797(2)
C33 C 0.0590(10) 1.0574(8) 0.3469(2)
H21 H 0.1253 0.9677 0.3470
C34 C 0.0911(10) 1.1546(7) 0.3144(2)
H22 H 0.1813 1.1277 0.2931
C35 C -0.1704(11) 1.2312(8) 0.3763(3)
H23 H -0.2619 1.2609 0.3971
C36 C -0.1312(11) 1.3204(8) 0.3431(3)
H24 H -0.1980 1.4100 0.3418
N1 N 0.1146(9) 0.2780(7) 0.2142(2)
N2 N 0.1080(9) -0.4174(6) 0.2071(2)
N3 N 0.3073(11) 0.0296(9) -0.1016(2)
N4 N 0.2088(10) -0.1409(7) 0.0607(2)
N5 N 0.2217(10) 0.0741(7) 0.0658(2)
H25 H 0.2316 0.1566 0.0584
N6 N 0.0123(9) 0.5878(6) 0.3085(2)
N7 N 0.0009(9) 1.2849(6) 0.3117(2)
N8 N -0.1625(9) 0.8074(7) 0.4535(2)
H26 H -0.1683 0.7242 0.4613
N9 N -0.1806(9) 1.0285(6) 0.4559(2)
N10 N -0.4383(11) 0.8839(9) 0.6093(2)
O1 O -0.2260(9) 0.4907(7) 0.2440(2)
H27 H -0.2819 0.4105 0.2508
H28 H -0.2885 0.5664 0.2618
O2 O 0.3425(8) 0.3900(6) 0.27694(19)
H29 H 0.4175 0.4049 0.2500
H30 H 0.3607 0.4516 0.2994
Zn1 Zn 0.06143(13) 0.43406(9) 0.26026(3)
N2_2 N 0.1080(9) 0.5826(6) 0.2071(2)
N7_2 N 0.0009(9) 0.2849(6) 0.3117(2)
Zn1_2 Zn 0.06143(13) -0.56594(9) 0.26026(3)
Zn1_3 Zn 0.06143(13) 1.43406(9) 0.26026(3)
N11 N 0.4697(11) 0.6458(9) 0.3360(3)
O3 O 0.5124(13) 0.5479(11) 0.3639(4)
O4 O 0.4862(10) 0.6224(9) 0.2967(3)
O5 O 0.4195(14) 0.7592(9) 0.3469(4)
N12 N -0.3907(19) 0.4706(14) 0.1374(5)
O6 O -0.368(2) 0.4044(15) 0.1734(5)
O7 O -0.455(3) 0.4202(18) 0.1097(5)
O8 O -0.303(8) 0.504(6) 0.093(2)
O9 O -0.2529(18) 1.3081(10) 0.4856(3)
O10 O 0.6690(12) 0.8416(9) 0.1895(2)
O11 O 0.067(4) 0.370(3) 0.0502(9)
O12 O 0.4524(11) 0.9385(8) 0.2607(3)
O13 O 0.5586(9) 0.1458(6) 0.3002(2)
O14 O -0.415(2) 0.6121(16) 0.4525(5)
O15 O -0.631(3) 0.5873(19) 0.0389(6)
O16 O 0.0000 0.5000 0.5000
O17? O -0.373(2) 0.5857(19) 0.1388(5)
O18? O -0.176(6) 0.493(4) 0.0401(12)
O19? O 0.213(3) 0.353(2) 0.0488(7)
loop_
_geom_bond_atom_site_label_1
_geom_bond_atom_site_label_2
_geom_bond_site_symmetry_1
_geom_bond_site_symmetry_2
C1 H1 1_555 1_555
C2 C1 1_555 1_555
H2 C2 1_555 1_555
C3 H3 1_555 1_555
C4 C3 1_555 1_555
H4 C4 1_555 1_555
C5 C2 1_555 1_555
C6 C8 1_555 1_555
C7 C5 1_555 1_555
C8 C14 1_555 1_555
C9 C6 1_555 1_555
C10 C9 1_555 1_555
H5 C10 1_555 1_555
C11 C10 1_555 1_555
H6 C11 1_555 1_555
C12 H7 1_555 1_555
C13 C9 1_555 1_555
H8 C13 1_555 1_555
C14 C15 1_555 1_555
C15 H9 1_555 1_555
C16 C15 1_555 1_555
H10 C16 1_555 1_555
C17 H11 1_555 1_555
C18 C14 1_555 1_555
H12 C18 1_555 1_555
C19 H13 1_555 1_555
C20 C19 1_555 1_555
H14 C20 1_555 1_555
C21 C20 1_555 1_555
C22 H15 1_555 1_555
C23 C21 1_555 1_555
H16 C23 1_555 1_555
C24 C21 1_555 1_555
C25 C24 1_555 1_555
C26 C27 1_555 1_555
C27 C28 1_555 1_555
C28 H17 1_555 1_555
C29 C28 1_555 1_555
H18 C29 1_555 1_555
C30 H19 1_555 1_555
C31 C27 1_555 1_555
H20 C31 1_555 1_555
C32 C25 1_555 1_555
C33 C32 1_555 1_555
H21 C33 1_555 1_555
C34 C33 1_555 1_555
H22 C34 1_555 1_555
C35 C32 1_555 1_555
H23 C35 1_555 1_555
C36 C35 1_555 1_555
H24 C36 1_555 1_555
N1 C16 1_555 1_555
N2 C11 1_555 1_555
N3 C1 1_555 1_555
N4 C6 1_555 1_555
N5 C7 1_555 1_555
H25 N5 1_555 1_555
N6 C19 1_555 1_555
N7 C34 1_555 1_555
N8 C24 1_555 1_555
H26 N8 1_555 1_555
N9 C25 1_555 1_555
N10 C29 1_555 1_555
O1 H27 1_555 1_555
H28 O1 1_555 1_555
O2 H29 1_555 1_555
H30 O2 1_555 1_555
Zn1 N1 1_555 1_555
N11 O3 1_555 1_555
O4 N11 1_555 1_555
O5 N11 1_555 1_555
N12 O6 1_555 1_555
O7 N12 1_555 1_555
O8 N12 1_555 1_555
N2_2 Zn1 1_555 1_555
N7_2 Zn1 1_555 1_555
Zn1_2 N2 1_555 1_555
Zn1_3 N7 1_555 1_555
C3 N3 1_555 1_555
C4 C5 1_555 1_555
C7 N4 1_555 1_555
C8 N5 1_555 1_555
C12 C13 1_555 1_555
C12 N2 1_555 1_555
C17 C18 1_555 1_555
C17 N1 1_555 1_555
C22 C23 1_555 1_555
C22 N6 1_555 1_555
C26 N8 1_555 1_555
C26 N9 1_555 1_555
C30 C31 1_555 1_555
C30 N10 1_555 1_555
C36 N7 1_555 1_555
N6 Zn1 1_555 1_555
O1 Zn1 1_555 1_555
O2 Zn1 1_555 1_555

#END
