
#######################################################################
#
#                 Cambridge Crystallographic Data Centre
#                                CCDC 
#
#######################################################################
#
# If this CIF has been generated from an entry in the Cambridge 
# Structural Database, then it will include bibliographic, chemical, 
# crystal, experimental, refinement or atomic coordinate data resulting 
# from the CCDC's data processing and validation procedures.
#
#######################################################################

data_TOBJUR
_symmetry_cell_setting           monoclinic
_symmetry_space_group_name_H-M   'P 21/c'
_symmetry_Int_Tables_number      14
_space_group_name_Hall           '-P 2ybc'
loop_
_symmetry_equiv_pos_site_id
_symmetry_equiv_pos_as_xyz
1 x,y,z
2 -x,1/2+y,1/2-z
3 -x,-y,-z
4 x,1/2-y,1/2+z
_cell_length_a                   6.4633(15)
_cell_length_b                   17.072(4)
_cell_length_c                   23.816(6)
_cell_angle_alpha                90
_cell_angle_beta                 90.602(3)
_cell_angle_gamma                90
_cell_volume                     2627.75
loop_
_atom_site_label
_atom_site_type_symbol
_atom_site_fract_x
_atom_site_fract_y
_atom_site_fract_z
Eu1 Eu 1.26189(5) 0.06280(2) 0.022773(15)
C1 C 1.2349(12) -0.0592(5) -0.0687(4)
C2 C 1.2717(12) -0.1056(5) -0.1175(3)
C3 C 1.4677(12) -0.1430(5) -0.1275(3)
C4 C 1.4863(12) -0.1872(6) -0.1769(4)
H1 H 1.6124 -0.2112 -0.1842
C5 C 1.3265(13) -0.1967(5) -0.2153(4)
C6 C 1.1366(14) -0.1606(6) -0.2056(4)
H2 H 1.0271 -0.1670 -0.2309
C7 C 1.1127(12) -0.1150(6) -0.1578(4)
H3 H 0.9872 -0.0897 -0.1523
C8 C 1.3562(12) -0.2487(6) -0.2652(4)
C9 C 1.1966(13) -0.2939(6) -0.2852(4)
H4 H 1.0684 -0.2910 -0.2679
C10 C 1.2216(12) -0.3443(5) -0.3308(4)
C11 C 1.4121(12) -0.3474(5) -0.3580(3)
C12 C 1.5724(13) -0.2989(6) -0.3380(4)
H5 H 1.6997 -0.2993 -0.3558
C13 C 1.5433(13) -0.2508(6) -0.2923(4)
H6 H 1.6515 -0.2194 -0.2796
C14 C 1.4464(12) -0.3991(5) -0.4065(3)
C15 C 1.026(2) 0.2204(7) -0.0336(5)
H7 H 1.1368 0.2244 -0.0579
C16 C 0.892(2) 0.3307(7) -0.0835(6)
H8 H 1.0225 0.3276 -0.1022
H9 H 0.8767 0.3816 -0.0669
H10 H 0.7819 0.3221 -0.1103
C17 C 0.6933(17) 0.2670(7) -0.0068(5)
H11 H 0.7055 0.2263 0.0208
H12 H 0.5783 0.2559 -0.0314
H13 H 0.6714 0.3163 0.0115
O1 O 1.0631(7) -0.0234(3) -0.0599(2)
O2 O 1.3759(8) -0.0491(3) -0.0308(2)
O3 O 1.6011(8) -0.3874(3) -0.4372(2)
O4 O 1.3156(8) -0.4546(3) -0.4146(2)
O5 O 1.6267(8) -0.1371(4) -0.0931(2)
O6 O 1.0565(9) -0.3884(5) -0.3461(3)
H14 H 1.0906 -0.4193 -0.3707
O7 O 1.0333(10) 0.1673(4) 0.0007(3)
N1 N 0.8830(17) 0.2707(6) -0.0395(5)
Eu1A Eu 1.73811(5) -0.43720(2) -0.522773(15)
Eu1B Eu 0.73811(5) -0.06280(2) -0.022773(15)
Eu1B_2 Eu 1.73811(5) -0.06280(2) -0.022773(15)
Eu1C Eu 1.26189(5) -0.56280(2) -0.477227(15)
O1B O 0.9369(7) 0.0234(3) 0.0599(2)
O2B O 1.6241(8) 0.0491(3) 0.0308(2)
O3A O 1.3989(8) 0.1126(3) -0.0628(2)
O4C O 1.3156(8) -0.0454(3) 0.0854(2)
O5B O 1.3733(8) 0.1371(4) 0.0931(2)
C18 C 1.717(6) -0.033(2) -0.2752(14)
H15 H 1.7786 -0.0246 -0.2403
C19 C 1.455(4) -0.025(2) -0.3480(9)
H16 H 1.5572 -0.0561 -0.3669
H17 H 1.4390 0.0241 -0.3666
H18 H 1.3251 -0.0528 -0.3486
C20 C 1.368(4) 0.0274(16) -0.2542(11)
H19 H 1.2462 0.0388 -0.2761
H20 H 1.4260 0.0754 -0.2400
H21 H 1.3326 -0.0059 -0.2233
O8 O 1.804(4) -0.0665(18) -0.3167(14)
N2 N 1.521(3) -0.0123(13) -0.2896(9)
C21 C 1.238(5) 0.367(3) 0.059(2)
H22 H 1.2994 0.3178 0.0601
C22 C 1.010(4) 0.4420(13) 0.0659(13)
H23 H 1.1171 0.4580 0.0408
H24 H 0.9945 0.4806 0.0949
H25 H 0.8818 0.4370 0.0454
C23 C 0.899(5) 0.337(2) 0.1298(16)
H26 H 0.9281 0.2848 0.1433
H27 H 0.7699 0.3363 0.1093
H28 H 0.8884 0.3719 0.1611
O9 O 1.349(7) 0.408(3) 0.026(3)
N3 N 1.067(3) 0.3628(13) 0.0925(10)
loop_
_geom_bond_atom_site_label_1
_geom_bond_atom_site_label_2
_geom_bond_site_symmetry_1
_geom_bond_site_symmetry_2
Eu1 O1 1_555 1_555
C1 C2 1_555 1_555
C2 C3 1_555 1_555
C3 C4 1_555 1_555
C4 H1 1_555 1_555
C5 C4 1_555 1_555
C6 C5 1_555 1_555
H2 C6 1_555 1_555
C7 C2 1_555 1_555
H3 C7 1_555 1_555
C8 C5 1_555 1_555
C9 C8 1_555 1_555
H4 C9 1_555 1_555
C10 C9 1_555 1_555
C11 C10 1_555 1_555
C12 C11 1_555 1_555
H5 C12 1_555 1_555
C13 C8 1_555 1_555
H6 C13 1_555 1_555
C14 C11 1_555 1_555
C15 H7 1_555 1_555
C16 H8 1_555 1_555
H9 C16 1_555 1_555
H10 C16 1_555 1_555
C17 H11 1_555 1_555
H12 C17 1_555 1_555
H13 C17 1_555 1_555
O1 C1 1_555 1_555
O2 Eu1 1_555 1_555
O3 C14 1_555 1_555
O4 C14 1_555 1_555
O5 C3 1_555 1_555
O6 C10 1_555 1_555
H14 O6 1_555 1_555
O7 Eu1 1_555 1_555
N1 C15 1_555 1_555
C18 H15 1_555 1_555
C19 H16 1_555 1_555
H17 C19 1_555 1_555
H18 C19 1_555 1_555
C20 H19 1_555 1_555
H20 C20 1_555 1_555
H21 C20 1_555 1_555
O8 C18 1_555 1_555
N2 C18 1_555 1_555
C21 H22 1_555 1_555
C22 H23 1_555 1_555
H24 C22 1_555 1_555
H25 C22 1_555 1_555
C23 H26 1_555 1_555
H27 C23 1_555 1_555
H28 C23 1_555 1_555
O9 C21 1_555 1_555
N3 C21 1_555 1_555
Eu1A O3 1_555 1_555
Eu1B O1 1_555 1_555
Eu1B_2 O2 1_555 1_555
Eu1C O4 1_555 1_555
O1B Eu1 1_555 1_555
O2B Eu1 1_555 1_555
O3A Eu1 1_555 1_555
O4C Eu1 1_555 1_555
O5B Eu1 1_555 1_555
C1 O2 1_555 1_555
C6 C7 1_555 1_555
C12 C13 1_555 1_555
C15 O7 1_555 1_555
C16 N1 1_555 1_555
C17 N1 1_555 1_555
O5 Eu1B_2 1_555 1_555
C19 N2 1_555 1_555
C20 N2 1_555 1_555
C22 N3 1_555 1_555
C23 N3 1_555 1_555
Eu1B O1B 1_555 1_555
Eu1B_2 O2B 1_555 1_555

#END
