
#######################################################################
#
#                 Cambridge Crystallographic Data Centre
#                                CCDC 
#
#######################################################################
#
# If this CIF has been generated from an entry in the Cambridge 
# Structural Database, then it will include bibliographic, chemical, 
# crystal, experimental, refinement or atomic coordinate data resulting 
# from the CCDC's data processing and validation procedures.
#
#######################################################################

data_TOBJAW
_symmetry_cell_setting           monoclinic
_symmetry_space_group_name_H-M   'P 21/n'
_symmetry_Int_Tables_number      14
_space_group_name_Hall           '-P 2yn'
loop_
_symmetry_equiv_pos_site_id
_symmetry_equiv_pos_as_xyz
1 x,y,z
2 1/2-x,1/2+y,1/2-z
3 -x,-y,-z
4 1/2+x,1/2-y,1/2+z
_cell_length_a                   13.8527(2)
_cell_length_b                   22.5008(7)
_cell_length_c                   21.8191(8)
_cell_angle_alpha                90
_cell_angle_beta                 96.580(3)
_cell_angle_gamma                90
_cell_volume                     6756.15
loop_
_atom_site_label
_atom_site_type_symbol
_atom_site_fract_x
_atom_site_fract_y
_atom_site_fract_z
C1 C 0.3049(4) 0.4259(2) 0.1406(2)
C2 C 0.3259(4) 0.4090(2) 0.0775(2)
C3 C 0.3955(4) 0.4401(3) 0.0509(3)
H1 H 0.4293 0.4707 0.0725
C4 C 0.4155(5) 0.4259(3) -0.0085(3)
H2 H 0.4631 0.4472 -0.0259
C5 C 0.3672(5) 0.3816(3) -0.0419(3)
C6 C 0.2992(6) 0.3506(3) -0.0142(3)
H3 H 0.2664 0.3196 -0.0358
C7 C 0.2772(5) 0.3635(3) 0.0448(2)
H4 H 0.2302 0.3417 0.0621
C8 C 0.3895(7) 0.3672(4) -0.1069(3)
H5 H 0.4098 0.3265 -0.1087
H6 H 0.4405 0.3927 -0.1176
H7 H 0.3322 0.3733 -0.1354
C9 C 0.4184(4) 0.5513(2) 0.2748(2)
C10 C 0.5085(4) 0.5868(2) 0.2799(2)
C11 C 0.5969(4) 0.5606(3) 0.3028(3)
H8 H 0.5989 0.5204 0.3130
C12 C 0.6806(5) 0.5936(3) 0.3102(3)
H9 H 0.7386 0.5757 0.3262
C13 C 0.6805(5) 0.6534(3) 0.2944(3)
C14 C 0.5941(4) 0.6786(3) 0.2706(3)
H10 H 0.5925 0.7184 0.2591
C15 C 0.5100(4) 0.6460(2) 0.2637(3)
H11 H 0.4524 0.6643 0.2476
C16 C 0.7733(5) 0.6894(4) 0.3053(4)
H12 H 0.7642 0.7270 0.2845
H13 H 0.8252 0.6682 0.2894
H14 H 0.7894 0.6960 0.3487
C17 C 0.3320(4) 0.7272(3) 0.1541(3)
C18 C 0.3746(4) 0.7327(2) 0.0949(2)
C19 C 0.4264(5) 0.7827(3) 0.0816(3)
H15 H 0.4340 0.8139 0.1097
C20 C 0.4672(5) 0.7866(3) 0.0263(3)
H16 H 0.5012 0.8206 0.0176
C21 C 0.4578(5) 0.7409(3) -0.0156(3)
C22 C 0.4053(5) 0.6921(3) -0.0019(3)
H17 H 0.3970 0.6611 -0.0301
C23 C 0.3645(5) 0.6876(3) 0.0524(3)
H18 H 0.3297 0.6537 0.0604
C24 C 0.5035(7) 0.7440(4) -0.0752(3)
H19 H 0.5306 0.7060 -0.0836
H20 H 0.5540 0.7734 -0.0715
H21 H 0.4549 0.7546 -0.1084
C25 C 0.2899(4) 0.3949(2) 0.3515(2)
C26 C 0.3184(4) 0.3575(2) 0.4064(2)
C27 C 0.3086(5) 0.3789(3) 0.4644(3)
H22 H 0.2852 0.4172 0.4689
C28 C 0.3330(6) 0.3441(3) 0.5159(3)
H23 H 0.3273 0.3597 0.5548
C29 C 0.3658(5) 0.2869(3) 0.5105(3)
C30 C 0.3781(5) 0.2658(3) 0.4526(3)
H24 H 0.4027 0.2278 0.4483
C31 C 0.3543(4) 0.3007(2) 0.4009(2)
H25 H 0.3625 0.2857 0.3621
C32 C 0.3894(6) 0.2477(3) 0.5677(3)
H26 H 0.4023 0.2724 0.6036
H27 H 0.4456 0.2239 0.5630
H28 H 0.3351 0.2223 0.5724
C33 C 0.0824(4) 0.7759(2) 0.2579(2)
C34 C -0.0177(4) 0.7831(2) 0.2281(2)
C35 C -0.0660(5) 0.8349(3) 0.2368(3)
H29 H -0.0364 0.8640 0.2628
C36 C -0.1578(6) 0.8444(4) 0.2074(4)
H30 H -0.1894 0.8800 0.2134
C37 C -0.2038(5) 0.8018(4) 0.1691(4)
C38 C -0.1543(5) 0.7502(4) 0.1608(3)
H31 H -0.1843 0.7207 0.1355
C39 C -0.0619(4) 0.7408(3) 0.1889(3)
H32 H -0.0292 0.7059 0.1814
C40 C -0.3065(6) 0.8119(5) 0.1373(5)
H33 H -0.3067 0.8079 0.0935
H34 H -0.3278 0.8512 0.1467
H35 H -0.3497 0.7831 0.1518
C41 C 0.0982(4) 0.5836(2) 0.3264(2)
C42 C 0.0341(4) 0.5525(2) 0.3654(2)
C43 C -0.0362(5) 0.5844(3) 0.3920(3)
H36 H -0.0412 0.6253 0.3862
C44 C -0.0984(5) 0.5558(4) 0.4267(3)
H37 H -0.1452 0.5778 0.4441
C45 C -0.0933(5) 0.4955(3) 0.4364(3)
C46 C -0.0223(5) 0.4639(3) 0.4109(3)
H38 H -0.0170 0.4231 0.4172
C47 C 0.0409(5) 0.4924(3) 0.3760(3)
H39 H 0.0887 0.4706 0.3594
C48 C -0.1626(5) 0.4639(4) 0.4741(3)
H40 H -0.1894 0.4920 0.5007
H41 H -0.1283 0.4335 0.4986
H42 H -0.2142 0.4463 0.4470
C49 C 0.0347(4) 0.3963(3) 0.2248(3)
C50 C -0.0703(4) 0.4102(2) 0.2115(2)
C51 C -0.1052(5) 0.4659(3) 0.2248(3)
H43 H -0.0645 0.4943 0.2452
C52 C -0.2030(5) 0.4785(3) 0.2067(3)
H44 H -0.2274 0.5154 0.2162
C53 C -0.2641(5) 0.4381(3) 0.1756(3)
C54 C -0.2284(5) 0.3826(3) 0.1648(3)
H45 H -0.2699 0.3540 0.1455
C55 C -0.1324(4) 0.3685(3) 0.1820(3)
H46 H -0.1094 0.3309 0.1737
C56 C -0.3693(5) 0.4546(4) 0.1534(4)
H47 H -0.3995 0.4709 0.1872
H48 H -0.4040 0.4197 0.1382
H49 H -0.3705 0.4836 0.1210
C57 C 0.0873(4) 0.5670(2) 0.1536(2)
C58 C 0.0181(4) 0.5315(2) 0.1118(2)
C59 C -0.0730(4) 0.5542(3) 0.0921(3)
H50 H -0.0890 0.5924 0.1037
C60 C -0.1402(5) 0.5209(3) 0.0556(3)
H51 H -0.2014 0.5366 0.0431
C61 C -0.1177(5) 0.4643(3) 0.0373(3)
C62 C -0.0264(5) 0.4420(3) 0.0558(3)
H52 H -0.0105 0.4041 0.0432
C63 C 0.0417(4) 0.4747(2) 0.0924(2)
H53 H 0.1031 0.4590 0.1041
C64 C -0.1926(5) 0.4270(3) -0.0016(3)
H54 H -0.1601 0.3973 -0.0233
H55 H -0.2305 0.4521 -0.0308
H56 H -0.2344 0.4081 0.0246
C65 C 0.3291(4) 0.7149(2) 0.3703(2)
C66 C 0.3513(4) 0.6720(2) 0.4208(2)
C67 C 0.3792(5) 0.6917(3) 0.4804(3)
H57 H 0.3812 0.7323 0.4885
C68 C 0.4040(5) 0.6526(3) 0.5275(3)
H58 H 0.4216 0.6670 0.5672
C69 C 0.4034(4) 0.5920(3) 0.5173(3)
C70 C 0.3746(4) 0.5723(3) 0.4583(3)
H59 H 0.3729 0.5316 0.4504
C71 C 0.3484(4) 0.6113(2) 0.4109(3)
H60 H 0.3284 0.5968 0.3716
C72 C 0.4347(6) 0.5499(3) 0.5700(3)
H61 H 0.5038 0.5524 0.5803
H62 H 0.4172 0.5100 0.5578
H63 H 0.4030 0.5607 0.6053
Sm1 Sm 0.204869(19) 0.640988(10) 0.239154(11)
Sm2 Sm 0.247655(18) 0.477166(10) 0.251356(11)
Sm3 Sm 0.282165(18) 0.806693(10) 0.279308(11)
O1 O 0.2392(3) 0.39776(15) 0.16682(15)
O2 O 0.3486(3) 0.46826(18) 0.16786(18)
O3 O 0.4185(3) 0.49858(17) 0.29158(18)
O4 O 0.3385(2) 0.57567(15) 0.25193(16)
O5 O 0.2850(3) 0.68050(18) 0.16290(19)
O6 O 0.3440(3) 0.7683(2) 0.19299(18)
O7 O 0.2908(3) 0.37445(14) 0.29678(14)
O8 O 0.2653(3) 0.44762(16) 0.35867(16)
O9 O 0.1154(3) 0.80769(16) 0.30229(17)
O10 O 0.1397(2) 0.73852(14) 0.23482(15)
O11 O 0.0900(3) 0.63750(16) 0.3154(2)
O12 O 0.1641(3) 0.55398(16) 0.30265(17)
O13 O 0.1684(2) 0.54455(15) 0.17555(16)
O14 O 0.0667(3) 0.61854(17) 0.1674(2)
O15 O 0.0931(3) 0.4370(2) 0.24686(18)
O16 O 0.0624(3) 0.34545(19) 0.2123(2)
O17 O 0.3002(3) 0.69764(15) 0.31549(15)
O18 O 0.3381(3) 0.76940(16) 0.37995(17)
Sm3A Sm 0.217835(18) 0.306693(10) 0.220692(11)
O1A O 0.2608(3) 0.89776(15) 0.33318(15)
O7A O 0.2092(3) 0.87445(14) 0.20322(14)
O16A O 0.4376(3) 0.84545(19) 0.2877(2)
loop_
_geom_bond_atom_site_label_1
_geom_bond_atom_site_label_2
_geom_bond_site_symmetry_1
_geom_bond_site_symmetry_2
C1 C2 1_555 1_555
C2 C3 1_555 1_555
C3 H1 1_555 1_555
C4 C3 1_555 1_555
H2 C4 1_555 1_555
C5 C4 1_555 1_555
C6 C5 1_555 1_555
H3 C6 1_555 1_555
C7 C2 1_555 1_555
H4 C7 1_555 1_555
C8 C5 1_555 1_555
H5 C8 1_555 1_555
H6 C8 1_555 1_555
H7 C8 1_555 1_555
C9 C10 1_555 1_555
C10 C11 1_555 1_555
C11 H8 1_555 1_555
C12 C11 1_555 1_555
H9 C12 1_555 1_555
C13 C12 1_555 1_555
C14 C13 1_555 1_555
H10 C14 1_555 1_555
C15 C10 1_555 1_555
H11 C15 1_555 1_555
C16 C13 1_555 1_555
H12 C16 1_555 1_555
H13 C16 1_555 1_555
H14 C16 1_555 1_555
C17 C18 1_555 1_555
C18 C19 1_555 1_555
C19 H15 1_555 1_555
C20 C19 1_555 1_555
H16 C20 1_555 1_555
C21 C20 1_555 1_555
C22 C21 1_555 1_555
H17 C22 1_555 1_555
C23 C18 1_555 1_555
H18 C23 1_555 1_555
C24 C21 1_555 1_555
H19 C24 1_555 1_555
H20 C24 1_555 1_555
H21 C24 1_555 1_555
C25 C26 1_555 1_555
C26 C27 1_555 1_555
C27 H22 1_555 1_555
C28 C27 1_555 1_555
H23 C28 1_555 1_555
C29 C28 1_555 1_555
C30 C29 1_555 1_555
H24 C30 1_555 1_555
C31 C26 1_555 1_555
H25 C31 1_555 1_555
C32 C29 1_555 1_555
H26 C32 1_555 1_555
H27 C32 1_555 1_555
H28 C32 1_555 1_555
C33 C34 1_555 1_555
C34 C35 1_555 1_555
C35 H29 1_555 1_555
C36 C35 1_555 1_555
H30 C36 1_555 1_555
C37 C36 1_555 1_555
C38 C37 1_555 1_555
H31 C38 1_555 1_555
C39 C34 1_555 1_555
H32 C39 1_555 1_555
C40 C37 1_555 1_555
H33 C40 1_555 1_555
H34 C40 1_555 1_555
H35 C40 1_555 1_555
C41 C42 1_555 1_555
C42 C43 1_555 1_555
C43 H36 1_555 1_555
C44 C43 1_555 1_555
H37 C44 1_555 1_555
C45 C44 1_555 1_555
C46 C45 1_555 1_555
H38 C46 1_555 1_555
C47 C42 1_555 1_555
H39 C47 1_555 1_555
C48 C45 1_555 1_555
H40 C48 1_555 1_555
H41 C48 1_555 1_555
H42 C48 1_555 1_555
C49 C50 1_555 1_555
C50 C51 1_555 1_555
C51 H43 1_555 1_555
C52 C51 1_555 1_555
H44 C52 1_555 1_555
C53 C52 1_555 1_555
C54 C53 1_555 1_555
H45 C54 1_555 1_555
C55 C50 1_555 1_555
H46 C55 1_555 1_555
C56 C53 1_555 1_555
H47 C56 1_555 1_555
H48 C56 1_555 1_555
H49 C56 1_555 1_555
C57 C58 1_555 1_555
C58 C59 1_555 1_555
C59 H50 1_555 1_555
C60 C59 1_555 1_555
H51 C60 1_555 1_555
C61 C60 1_555 1_555
C62 C61 1_555 1_555
H52 C62 1_555 1_555
C63 C58 1_555 1_555
H53 C63 1_555 1_555
C64 C61 1_555 1_555
H54 C64 1_555 1_555
H55 C64 1_555 1_555
H56 C64 1_555 1_555
C65 C66 1_555 1_555
C66 C67 1_555 1_555
C67 H57 1_555 1_555
C68 C67 1_555 1_555
H58 C68 1_555 1_555
C69 C68 1_555 1_555
C70 C69 1_555 1_555
H59 C70 1_555 1_555
C71 C66 1_555 1_555
H60 C71 1_555 1_555
C72 C69 1_555 1_555
H61 C72 1_555 1_555
H62 C72 1_555 1_555
H63 C72 1_555 1_555
Sm1 O4 1_555 1_555
Sm2 O1 1_555 1_555
Sm3 O6 1_555 1_555
O1 C1 1_555 1_555
O2 C1 1_555 1_555
O3 C9 1_555 1_555
O4 C9 1_555 1_555
O5 C17 1_555 1_555
O6 C17 1_555 1_555
O7 C25 1_555 1_555
O8 C25 1_555 1_555
O9 C33 1_555 1_555
O10 C33 1_555 1_555
O11 C41 1_555 1_555
O12 C41 1_555 1_555
O13 C57 1_555 1_555
O14 C57 1_555 1_555
O15 C49 1_555 1_555
O16 C49 1_555 1_555
O17 C65 1_555 1_555
O18 C65 1_555 1_555
Sm3A O1 1_555 1_555
O1A Sm3 1_555 1_555
O7A Sm3 1_555 1_555
O16A Sm3 1_555 1_555
C6 C7 1_555 1_555
C14 C15 1_555 1_555
C22 C23 1_555 1_555
C30 C31 1_555 1_555
C38 C39 1_555 1_555
C46 C47 1_555 1_555
C54 C55 1_555 1_555
C62 C63 1_555 1_555
C70 C71 1_555 1_555
Sm1 O5 1_555 1_555
Sm1 O10 1_555 1_555
Sm1 O11 1_555 1_555
Sm1 O12 1_555 1_555
Sm1 O13 1_555 1_555
Sm1 O14 1_555 1_555
Sm1 O17 1_555 1_555
Sm2 O2 1_555 1_555
Sm2 O3 1_555 1_555
Sm2 O4 1_555 1_555
Sm2 O7 1_555 1_555
Sm2 O8 1_555 1_555
Sm2 O12 1_555 1_555
Sm2 O13 1_555 1_555
Sm2 O15 1_555 1_555
Sm3 O9 1_555 1_555
Sm3 O10 1_555 1_555
Sm3 O17 1_555 1_555
Sm3 O18 1_555 1_555
O7 Sm3A 1_555 1_555
O16 Sm3A 1_555 1_555

#END
