
#######################################################################
#
#                 Cambridge Crystallographic Data Centre
#                                CCDC 
#
#######################################################################
#
# If this CIF has been generated from an entry in the Cambridge 
# Structural Database, then it will include bibliographic, chemical, 
# crystal, experimental, refinement or atomic coordinate data resulting 
# from the CCDC's data processing and validation procedures.
#
#######################################################################

data_TOBKAY
_symmetry_cell_setting           monoclinic
_symmetry_space_group_name_H-M   'P 21/c'
_symmetry_Int_Tables_number      14
_space_group_name_Hall           '-P 2ybc'
loop_
_symmetry_equiv_pos_site_id
_symmetry_equiv_pos_as_xyz
1 x,y,z
2 -x,1/2+y,1/2-z
3 -x,-y,-z
4 x,1/2-y,1/2+z
_cell_length_a                   6.4399(7)
_cell_length_b                   17.023(2)
_cell_length_c                   23.833(3)
_cell_angle_alpha                90
_cell_angle_beta                 90.792(2)
_cell_angle_gamma                90
_cell_volume                     2612.48
loop_
_atom_site_label
_atom_site_type_symbol
_atom_site_fract_x
_atom_site_fract_y
_atom_site_fract_z
Gd1 Gd 1.26297(6) 0.06312(2) 0.022158(16)
C1 C 1.2329(17) -0.0612(6) -0.0677(5)
C2 C 1.2705(15) -0.1075(6) -0.1167(4)
C3 C 1.4661(15) -0.1457(6) -0.1263(4)
C4 C 1.4844(14) -0.1894(6) -0.1755(4)
H1 H 1.6123 -0.2121 -0.1833
C5 C 1.3228(16) -0.2009(6) -0.2134(4)
C6 C 1.1329(16) -0.1630(6) -0.2030(4)
H2 H 1.0220 -0.1693 -0.2280
C7 C 1.1104(16) -0.1176(6) -0.1569(4)
H3 H 0.9845 -0.0921 -0.1515
C8 C 1.3557(15) -0.2515(7) -0.2637(4)
C9 C 1.1948(17) -0.2983(6) -0.2833(4)
H4 H 1.0666 -0.2970 -0.2658
C10 C 1.2248(16) -0.3475(6) -0.3291(4)
C11 C 1.4111(14) -0.3495(6) -0.3568(4)
C12 C 1.5715(15) -0.3017(6) -0.3372(4)
H5 H 1.6994 -0.3027 -0.3549
C13 C 1.5415(17) -0.2517(6) -0.2911(4)
H6 H 1.6482 -0.2187 -0.2790
C14 C 1.4468(14) -0.4004(6) -0.4067(4)
C15 C 1.025(2) 0.2190(9) -0.0339(7)
H7 H 1.1353 0.2223 -0.0587
C16 C 0.889(2) 0.3329(7) -0.0835(5)
H8 H 1.0197 0.3293 -0.1021
H9 H 0.8764 0.3838 -0.0664
H10 H 0.7779 0.3256 -0.1103
C17 C 0.693(2) 0.2669(8) -0.0061(6)
H11 H 0.7098 0.2262 0.0215
H12 H 0.5751 0.2551 -0.0298
H13 H 0.6711 0.3163 0.0124
N1 N 0.877(2) 0.2715(7) -0.0397(5)
O1 O 1.0609(9) -0.0251(4) -0.0597(2)
O2 O 1.3755(9) -0.0509(3) -0.0303(2)
O3 O 1.6029(9) -0.3878(4) -0.4373(2)
O4 O 1.3193(9) -0.4576(4) -0.4136(3)
O5 O 1.6287(9) -0.1389(4) -0.0923(3)
O6 O 1.0577(11) -0.3942(5) -0.3443(3)
H14 H 1.0930 -0.4250 -0.3688
O7 O 1.0337(11) 0.1664(4) 0.0007(3)
Gd1A Gd 1.73703(6) -0.43688(2) -0.522158(16)
Gd1B Gd 0.73703(6) -0.06312(2) -0.022158(16)
Gd1B_2 Gd 1.73703(6) -0.06312(2) -0.022158(16)
Gd1C Gd 1.26297(6) -0.56312(2) -0.477842(16)
O1B O 0.9391(9) 0.0251(4) 0.0597(2)
O2B O 1.6245(9) 0.0509(3) 0.0303(2)
O3A O 1.3971(9) 0.1122(4) -0.0627(2)
O4C O 1.3193(9) -0.0424(4) 0.0864(3)
O5B O 1.3713(9) 0.1389(4) 0.0923(3)
C18 C 1.453(4) -0.022(2) -0.3453(9)
H15 H 1.3259 -0.0093 -0.3619
C19 C 1.718(4) -0.0324(19) -0.2716(11)
H16 H 1.7917 -0.0553 -0.3023
H17 H 1.7039 -0.0706 -0.2423
H18 H 1.7934 0.0122 -0.2576
C20 C 1.360(5) 0.033(2) -0.2557(12)
H19 H 1.2365 0.0432 -0.2773
H20 H 1.4182 0.0814 -0.2423
H21 H 1.3271 -0.0001 -0.2243
N2 N 1.512(3) -0.0075(15) -0.2910(10)
O8 O 1.601(6) -0.053(4) -0.3680(14)
C21 C -0.015(5) 0.4447(15) 0.063(2)
H22 H 0.0653 0.4730 0.0361
H23 H -0.0294 0.4760 0.0963
H24 H -0.1494 0.4331 0.0475
C22 C -0.037(6) 0.322(2) 0.115(2)
H25 H 0.0456 0.2798 0.1301
H26 H -0.1508 0.2999 0.0932
H27 H -0.0901 0.3533 0.1445
C23 C 0.271(5) 0.356(2) 0.050(2)
H28 H 0.3474 0.3095 0.0507
N3 N 0.092(5) 0.371(2) 0.0776(17)
O9 O 0.315(11) 0.417(3) 0.022(3)
loop_
_geom_bond_atom_site_label_1
_geom_bond_atom_site_label_2
_geom_bond_site_symmetry_1
_geom_bond_site_symmetry_2
Gd1 O1 1_555 1_555
C1 C2 1_555 1_555
C2 C3 1_555 1_555
C3 C4 1_555 1_555
C4 H1 1_555 1_555
C5 C4 1_555 1_555
C6 C5 1_555 1_555
H2 C6 1_555 1_555
C7 C2 1_555 1_555
H3 C7 1_555 1_555
C8 C5 1_555 1_555
C9 C8 1_555 1_555
H4 C9 1_555 1_555
C10 C9 1_555 1_555
C11 C10 1_555 1_555
C12 C11 1_555 1_555
H5 C12 1_555 1_555
C13 C8 1_555 1_555
H6 C13 1_555 1_555
C14 C11 1_555 1_555
C15 H7 1_555 1_555
C16 H8 1_555 1_555
H9 C16 1_555 1_555
H10 C16 1_555 1_555
C17 H11 1_555 1_555
H12 C17 1_555 1_555
H13 C17 1_555 1_555
N1 C15 1_555 1_555
O1 C1 1_555 1_555
O2 Gd1 1_555 1_555
O3 C14 1_555 1_555
O4 C14 1_555 1_555
O5 C3 1_555 1_555
O6 C10 1_555 1_555
H14 O6 1_555 1_555
O7 Gd1 1_555 1_555
C18 H15 1_555 1_555
C19 H16 1_555 1_555
H17 C19 1_555 1_555
H18 C19 1_555 1_555
C20 H19 1_555 1_555
H20 C20 1_555 1_555
H21 C20 1_555 1_555
N2 C18 1_555 1_555
O8 C18 1_555 1_555
C21 H22 1_555 1_555
H23 C21 1_555 1_555
H24 C21 1_555 1_555
C22 H25 1_555 1_555
H26 C22 1_555 1_555
H27 C22 1_555 1_555
C23 H28 1_555 1_555
N3 C21 1_555 1_555
O9 C23 1_555 1_555
Gd1A O3 1_555 1_555
Gd1B O1 1_555 1_555
Gd1B_2 O2 1_555 1_555
Gd1C O4 1_555 1_555
O1B Gd1 1_555 1_555
O2B Gd1 1_555 1_555
O3A Gd1 1_555 1_555
O4C Gd1 1_555 1_555
O5B Gd1 1_555 1_555
C1 O2 1_555 1_555
C6 C7 1_555 1_555
C12 C13 1_555 1_555
C15 O7 1_555 1_555
C16 N1 1_555 1_555
C17 N1 1_555 1_555
O5 Gd1B_2 1_555 1_555
C19 N2 1_555 1_555
C20 N2 1_555 1_555
C22 N3 1_555 1_555
C23 N3 1_555 1_555
Gd1B O1B 1_555 1_555
Gd1B_2 O2B 1_555 1_555

#END
