
#######################################################################
#
#                 Cambridge Crystallographic Data Centre
#                                CCDC 
#
#######################################################################
#
# If this CIF has been generated from an entry in the Cambridge 
# Structural Database, then it will include bibliographic, chemical, 
# crystal, experimental, refinement or atomic coordinate data resulting 
# from the CCDC's data processing and validation procedures.
#
#######################################################################

data_TOBKEC
_symmetry_cell_setting           monoclinic
_symmetry_space_group_name_H-M   'P 21/c'
_symmetry_Int_Tables_number      14
_space_group_name_Hall           '-P 2ybc'
loop_
_symmetry_equiv_pos_site_id
_symmetry_equiv_pos_as_xyz
1 x,y,z
2 -x,1/2+y,1/2-z
3 -x,-y,-z
4 x,1/2-y,1/2+z
_cell_length_a                   6.3462(11)
_cell_length_b                   16.580(3)
_cell_length_c                   24.018(4)
_cell_angle_alpha                90
_cell_angle_beta                 90.683(2)
_cell_angle_gamma                90
_cell_volume                     2526.99
loop_
_atom_site_label
_atom_site_type_symbol
_atom_site_fract_x
_atom_site_fract_y
_atom_site_fract_z
Dy1 Dy 1.26239(6) 0.06217(3) 0.023206(17)
C1 C 1.2328(15) -0.0559(6) -0.0678(5)
C2 C 1.2732(15) -0.1009(6) -0.1188(4)
C3 C 1.4711(15) -0.1385(6) -0.1287(4)
C4 C 1.4939(15) -0.1822(7) -0.1792(4)
H1 H 1.6249 -0.2075 -0.1866
C5 C 1.3326(15) -0.1890(7) -0.2177(4)
C6 C 1.1398(15) -0.1497(7) -0.2076(5)
H2 H 1.0281 -0.1530 -0.2342
C7 C 1.1137(14) -0.1072(6) -0.1596(4)
H3 H 0.9830 -0.0809 -0.1536
C8 C 1.3593(15) -0.2385(7) -0.2687(4)
C9 C 1.1949(15) -0.2867(6) -0.2887(4)
H4 H 1.0616 -0.2843 -0.2712
C10 C 1.2225(14) -0.3376(6) -0.3333(4)
C11 C 1.4175(14) -0.3404(6) -0.3614(4)
C12 C 1.5777(15) -0.2905(7) -0.3418(4)
H5 H 1.7097 -0.2911 -0.3601
C13 C 1.5509(16) -0.2399(7) -0.2965(5)
H6 H 1.6633 -0.2061 -0.2844
C14 C 1.4517(14) -0.3956(6) -0.4088(4)
C15 C 1.0196(18) 0.2229(7) -0.0298(5)
H7 H 1.1349 0.2279 -0.0544
C16 C 0.869(2) 0.3372(7) -0.0782(5)
H8 H 0.9992 0.3350 -0.0995
H9 H 0.8571 0.3900 -0.0601
H10 H 0.7477 0.3292 -0.1034
C17 C 0.6816(16) 0.2709(8) -0.0011(5)
H11 H 0.6952 0.2272 0.0262
H12 H 0.5575 0.2614 -0.0248
H13 H 0.6658 0.3224 0.0185
O1 O 1.0594(9) -0.0190(4) -0.0597(3)
O2 O 1.3728(9) -0.0508(4) -0.0294(3)
O3 O 1.6093(9) -0.3832(4) -0.4403(3)
O4 O 1.3229(10) -0.4536(4) -0.4153(3)
O5 O 1.6339(10) -0.1367(4) -0.0936(3)
O6 O 1.0558(10) -0.3849(5) -0.3487(3)
H14 H 1.0943 -0.4180 -0.3730
O7 O 1.0290(11) 0.1680(4) 0.0045(3)
N1 N 0.8710(14) 0.2736(6) -0.0356(4)
Dy1A Dy 1.73761(6) -0.43783(3) -0.523206(17)
Dy1B Dy 0.73761(6) -0.06217(3) -0.023206(17)
Dy1B_2 Dy 1.73761(6) -0.06217(3) -0.023206(17)
Dy1C Dy 1.26239(6) -0.56217(3) -0.476794(17)
O1B O 0.9406(9) 0.0190(4) 0.0597(3)
O2B O 1.6272(9) 0.0508(4) 0.0294(3)
O3A O 1.3907(9) 0.1168(4) -0.0597(3)
O4C O 1.3229(10) -0.0464(4) 0.0847(3)
O5B O 1.3661(10) 0.1367(4) 0.0936(3)
C18 C 0.871(5) 0.341(2) 0.1360(13)
H15 H 0.9197 0.2895 0.1510
H16 H 0.7309 0.3343 0.1189
H17 H 0.8622 0.3808 0.1662
C19 C 0.949(6) 0.4473(18) 0.0697(15)
H18 H 1.0513 0.4654 0.0421
H19 H 0.9381 0.4878 0.0993
H20 H 0.8110 0.4401 0.0516
C20 C 1.187(6) 0.327(2) 0.0818(14)
H21 H 1.2370 0.2777 0.0977
O8 O 1.263(4) 0.3694(15) 0.0427(11)
N2 N 1.019(5) 0.3700(17) 0.0939(12)
C21 C 0.331(5) 0.0496(18) -0.2572(15)
H22 H 0.3813 0.0661 -0.2202
H23 H 0.2048 0.0162 -0.2536
H24 H 0.2976 0.0976 -0.2794
C22 C 0.416(5) -0.017(2) -0.3411(12)
H25 H 0.5222 -0.0480 -0.3611
H26 H 0.3864 0.0334 -0.3614
H27 H 0.2866 -0.0484 -0.3380
C23 C 0.685(6) -0.017(2) -0.2676(15)
H28 H 0.7287 -0.0040 -0.2307
O9 O 0.810(4) -0.0537(13) -0.2997(11)
N3 N 0.497(5) 0.0028(17) -0.2850(11)
loop_
_geom_bond_atom_site_label_1
_geom_bond_atom_site_label_2
_geom_bond_site_symmetry_1
_geom_bond_site_symmetry_2
Dy1 O1 1_555 1_555
C1 C2 1_555 1_555
C2 C3 1_555 1_555
C3 C4 1_555 1_555
C4 H1 1_555 1_555
C5 C4 1_555 1_555
C6 C5 1_555 1_555
H2 C6 1_555 1_555
C7 C2 1_555 1_555
H3 C7 1_555 1_555
C8 C5 1_555 1_555
C9 C8 1_555 1_555
H4 C9 1_555 1_555
C10 C9 1_555 1_555
C11 C10 1_555 1_555
C12 C11 1_555 1_555
H5 C12 1_555 1_555
C13 C8 1_555 1_555
H6 C13 1_555 1_555
C14 C11 1_555 1_555
C15 H7 1_555 1_555
C16 H8 1_555 1_555
H9 C16 1_555 1_555
H10 C16 1_555 1_555
C17 H11 1_555 1_555
H12 C17 1_555 1_555
H13 C17 1_555 1_555
O1 C1 1_555 1_555
O2 Dy1 1_555 1_555
O3 C14 1_555 1_555
O4 C14 1_555 1_555
O5 C3 1_555 1_555
O6 C10 1_555 1_555
H14 O6 1_555 1_555
O7 Dy1 1_555 1_555
N1 C15 1_555 1_555
C18 H15 1_555 1_555
H16 C18 1_555 1_555
H17 C18 1_555 1_555
C19 H18 1_555 1_555
H19 C19 1_555 1_555
H20 C19 1_555 1_555
C20 H21 1_555 1_555
O8 C20 1_555 1_555
N2 C18 1_555 1_555
C21 H22 1_555 1_555
H23 C21 1_555 1_555
H24 C21 1_555 1_555
C22 H25 1_555 1_555
H26 C22 1_555 1_555
H27 C22 1_555 1_555
C23 H28 1_555 1_555
O9 C23 1_555 1_555
N3 C21 1_555 1_555
Dy1A O3 1_555 1_555
Dy1B O1 1_555 1_555
Dy1B_2 O2 1_555 1_555
Dy1C O4 1_555 1_555
O1B Dy1 1_555 1_555
O2B Dy1 1_555 1_555
O3A Dy1 1_555 1_555
O4C Dy1 1_555 1_555
O5B Dy1 1_555 1_555
C1 O2 1_555 1_555
C6 C7 1_555 1_555
C12 C13 1_555 1_555
C15 O7 1_555 1_555
C16 N1 1_555 1_555
C17 N1 1_555 1_555
O5 Dy1B_2 1_555 1_555
C19 N2 1_555 1_555
C20 N2 1_555 1_555
C22 N3 1_555 1_555
C23 N3 1_555 1_555
Dy1B O1B 1_555 1_555
Dy1B_2 O2B 1_555 1_555

#END
