
#######################################################################
#
#                 Cambridge Crystallographic Data Centre
#                                CCDC 
#
#######################################################################
#
# If this CIF has been generated from an entry in the Cambridge 
# Structural Database, then it will include bibliographic, chemical, 
# crystal, experimental, refinement or atomic coordinate data resulting 
# from the CCDC's data processing and validation procedures.
#
#######################################################################

data_TOBNUU
_symmetry_cell_setting           monoclinic
_symmetry_space_group_name_H-M   'P 21/c'
_symmetry_Int_Tables_number      14
_space_group_name_Hall           '-P 2ybc'
loop_
_symmetry_equiv_pos_site_id
_symmetry_equiv_pos_as_xyz
1 x,y,z
2 -x,1/2+y,1/2-z
3 -x,-y,-z
4 x,1/2-y,1/2+z
_cell_length_a                   7.7197(17)
_cell_length_b                   25.646(6)
_cell_length_c                   11.445(2)
_cell_angle_alpha                90
_cell_angle_beta                 95.684(3)
_cell_angle_gamma                90
_cell_volume                     2254.73
loop_
_atom_site_label
_atom_site_type_symbol
_atom_site_fract_x
_atom_site_fract_y
_atom_site_fract_z
Gd1 Gd 0.75345(2) 0.501980(8) 0.574129(16)
O1 O 0.9665(4) 0.52846(14) 0.7208(3)
O2 O 1.1908(5) 0.52067(14) 0.6134(3)
O3 O 0.8511(4) 0.58040(13) 0.4964(3)
O4 O 1.0842(4) 0.57303(13) 0.3946(3)
O5 O 0.6072(4) 0.57155(13) 0.6716(3)
O6 O 0.4848(4) 0.55290(13) 0.4935(2)
N1 N 1.3676(5) 0.53963(15) 1.2405(3)
C1 C 0.5075(6) 0.58425(18) 0.5821(4)
C2 C 0.9606(6) 0.59796(18) 0.4321(4)
C3 C 1.2073(6) 0.5432(2) 0.9203(4)
H1 H 1.0910 0.5364 0.9292
C4 C 0.3667(7) 0.72221(19) 0.6627(4)
C5 C 0.8451(7) 0.6892(2) 0.4348(4)
H2 H 0.7659 0.6781 0.4857
C6 C 0.4341(7) 0.6688(2) 0.6617(4)
H3 H 0.4939 0.6570 0.7312
C7 C 1.2511(6) 0.54388(19) 0.8113(4)
H4 H 1.3640 0.5534 0.7986
C8 C 1.3224(6) 0.55200(19) 1.0284(4)
C9 C 0.7726(8) 0.7816(2) 0.4738(6)
H5 H 0.7220 0.7695 0.5390
C10 C 1.5195(6) 0.5655(2) 1.2392(4)
H6 H 1.5874 0.5703 1.3101
N2 N 0.3364(7) 0.80038(19) 0.7784(4)
C11 C 0.9503(7) 0.6539(2) 0.3963(5)
H7 H 1.0246 0.6649 0.3420
C12 C 0.4192(6) 0.6355(2) 0.5732(4)
H8 H 0.3521 0.6444 0.5041
C13 C 0.2839(7) 0.7472(2) 0.5650(4)
H9 H 0.2652 0.7298 0.4937
C14 C 0.8437(7) 0.7449(2) 0.4033(5)
C15 C 0.2294(8) 0.7983(2) 0.5747(5)
H10 H 0.1733 0.8155 0.5102
C16 C 1.4821(6) 0.5782(2) 1.0315(4)
H11 H 1.5217 0.5907 0.9627
N3 N 0.7710(7) 0.8333(2) 0.4554(5)
C17 C 0.3879(8) 0.7510(2) 0.7660(5)
H12 H 0.4425 0.7345 0.8321
C18 C 0.8422(8) 0.8500(2) 0.3614(6)
H13 H 0.8422 0.8856 0.3465
C19 C 1.5802(6) 0.5853(2) 1.1382(4)
H14 H 1.6855 0.6031 1.1421
C20 C 0.9162(8) 0.7645(2) 0.3054(5)
H15 H 0.9645 0.7418 0.2542
C21 C 0.9163(9) 0.8174(2) 0.2846(6)
H16 H 0.9653 0.8308 0.2200
C22 C 0.2599(8) 0.8233(2) 0.6821(5)
H17 H 0.2253 0.8578 0.6873
C23 C 1.1260(6) 0.52998(18) 0.7078(4)
C24 C 1.2735(6) 0.53395(19) 1.1353(4)
H18 H 1.1676 0.5166 1.1340
Gd1B Gd 1.24655(2) 0.498020(8) 0.425871(16)
Gd1B_2 Gd 0.24655(2) 0.498020(8) 0.425871(16)
Gd1B_3 Gd 1.24655(2) 0.498020(8) 1.425871(16)
O2B O 0.8092(5) 0.47933(14) 0.3866(3)
O4B O 0.9158(4) 0.42697(13) 0.6054(3)
O6B O 0.5152(4) 0.44710(13) 0.5065(2)
N1B N 0.6324(5) 0.46037(15) 0.7595(3)
loop_
_geom_bond_atom_site_label_1
_geom_bond_atom_site_label_2
_geom_bond_site_symmetry_1
_geom_bond_site_symmetry_2
Gd1 O1 1_555 1_555
O1 C23 1_555 1_555
O2 C23 1_555 1_555
O3 Gd1 1_555 1_555
O4 C2 1_555 1_555
O5 Gd1 1_555 1_555
O6 Gd1 1_555 1_555
N1 C10 1_555 1_555
C1 O5 1_555 1_555
C2 O3 1_555 1_555
C3 H1 1_555 1_555
C4 C6 1_555 1_555
C5 H2 1_555 1_555
C6 H3 1_555 1_555
C7 C3 1_555 1_555
H4 C7 1_555 1_555
C8 C3 1_555 1_555
C9 H5 1_555 1_555
C10 H6 1_555 1_555
N2 C17 1_555 1_555
C11 C2 1_555 1_555
H7 C11 1_555 1_555
C12 C1 1_555 1_555
H8 C12 1_555 1_555
C13 C4 1_555 1_555
H9 C13 1_555 1_555
C14 C5 1_555 1_555
C15 C13 1_555 1_555
H10 C15 1_555 1_555
C16 C8 1_555 1_555
H11 C16 1_555 1_555
N3 C9 1_555 1_555
C17 C4 1_555 1_555
H12 C17 1_555 1_555
C18 N3 1_555 1_555
H13 C18 1_555 1_555
C19 C10 1_555 1_555
H14 C19 1_555 1_555
C20 C14 1_555 1_555
H15 C20 1_555 1_555
C21 C18 1_555 1_555
H16 C21 1_555 1_555
C22 N2 1_555 1_555
H17 C22 1_555 1_555
C23 C7 1_555 1_555
C24 N1 1_555 1_555
H18 C24 1_555 1_555
Gd1B O2 1_555 1_555
Gd1B_2 O6 1_555 1_555
Gd1B_3 N1 1_555 1_555
O2B Gd1 1_555 1_555
O4B Gd1 1_555 1_555
O6B Gd1 1_555 1_555
N1B Gd1 1_555 1_555
O4 Gd1B 1_555 1_555
O6 C1 1_555 1_555
C5 C11 1_555 1_555
C6 C12 1_555 1_555
C8 C24 1_555 1_555
C9 C14 1_555 1_555
C15 C22 1_555 1_555
C16 C19 1_555 1_555
C20 C21 1_555 1_555
Gd1B_2 O6B 1_555 1_555

#END
