
#######################################################################
#
#                 Cambridge Crystallographic Data Centre
#                                CCDC 
#
#######################################################################
#
# If this CIF has been generated from an entry in the Cambridge 
# Structural Database, then it will include bibliographic, chemical, 
# crystal, experimental, refinement or atomic coordinate data resulting 
# from the CCDC's data processing and validation procedures.
#
#######################################################################

data_TOBPEG
_symmetry_cell_setting           monoclinic
_symmetry_space_group_name_H-M   'C 2/c'
_symmetry_Int_Tables_number      15
_space_group_name_Hall           '-C 2yn'
loop_
_symmetry_equiv_pos_site_id
_symmetry_equiv_pos_as_xyz
1 x,y,z
2 1/2+x,1/2+y,z
3 -x,y,1/2-z
4 1/2-x,1/2+y,1/2-z
5 -x,-y,-z
6 1/2-x,1/2-y,-z
7 x,-y,1/2+z
8 1/2+x,1/2-y,1/2+z
_cell_length_a                   28.274(3)
_cell_length_b                   17.8155(19)
_cell_length_c                   26.539(3)
_cell_angle_alpha                90
_cell_angle_beta                 106.603(2)
_cell_angle_gamma                90
_cell_volume                     12810.8
loop_
_atom_site_label
_atom_site_type_symbol
_atom_site_fract_x
_atom_site_fract_y
_atom_site_fract_z
Zn1 Zn 0.05843(3) 0.44305(5) -0.02060(3)
Zn2 Zn 0.19188(3) 0.31972(5) 0.00326(3)
Zn3 Zn 0.25950(4) 0.32075(5) 0.22849(4)
Zn4 Zn 0.26877(4) 0.06800(5) 0.24904(3)
Zn5 Zn 0.13032(4) 0.43133(5) 0.14854(3)
Zn6 Zn 0.33659(4) 0.19530(5) 0.15584(4)
P1 P 0.10167(8) 0.31969(11) 0.05598(8)
P2 P 0.22502(8) 0.16993(12) 0.15998(8)
P3 P 0.05639(8) 0.54600(12) 0.07894(8)
P4 P 0.15266(8) 0.70855(12) 0.22531(8)
P5 P 0.18135(8) 0.59029(11) -0.22962(8)
P6 P 0.14266(8) 0.42858(12) -0.08597(8)
P7 P 0.18899(8) 0.18338(11) -0.06795(8)
P8 P 0.25279(8) 0.02767(12) -0.16351(8)
O1 O 0.0581(2) 0.3453(3) 0.0112(2)
O2 O 0.1504(2) 0.3389(3) 0.0476(2)
O3 O 0.0993(2) 0.3445(3) 0.1095(2)
O4 O 0.2220(3) 0.2451(4) 0.1839(3)
O5 O 0.2715(2) 0.1531(4) 0.1452(2)
O6 O 0.2139(2) 0.1060(4) 0.1933(2)
O7 O 0.0734(3) 0.5164(4) 0.0344(3)
O8 O 0.0883(2) 0.5196(3) 0.1321(2)
O9 O 0.0023(2) 0.5334(4) 0.0728(3)
O10 O 0.1801(3) 0.6395(4) 0.2190(2)
O11 O 0.1291(3) 0.7048(5) 0.2694(2)
O12 O 0.1809(3) 0.7792(4) 0.2253(3)
O13 O 0.2206(2) 0.6490(4) -0.2250(2)
O14 O 0.2016(3) 0.5126(3) -0.2195(2)
O15 O 0.1396(2) 0.5987(4) -0.2783(2)
O16 O 0.1042(2) 0.4562(3) -0.0611(2)
O17 O 0.1894(2) 0.4001(3) -0.0470(2)
O18 O 0.1220(2) 0.3738(3) -0.1305(2)
O19 O 0.1680(2) 0.2231(3) -0.0291(2)
O20 O 0.1666(2) 0.2073(3) -0.1244(2)
O21 O 0.2445(2) 0.1839(4) -0.0530(2)
O22 O 0.2241(3) 0.0933(4) -0.1932(3)
O23 O 0.2400(2) -0.0441(4) -0.1951(2)
O24 O 0.3076(3) 0.0368(4) -0.1421(3)
N1 N 0.1248(3) 0.1743(4) 0.1000(2)
H13 H 0.1247 0.1989 0.1300
N2 N 0.1119(3) 0.6692(4) 0.1217(3)
H14 H 0.1259 0.6250 0.1355
N3 N 0.1283(2) 0.5543(4) -0.1567(2)
H15 H 0.1159 0.5223 -0.1841
N4 N 0.1772(3) 0.0468(4) -0.1175(3)
H16 H 0.1729 0.0819 -0.1434
C1 C 0.0927(3) 0.2185(4) 0.0541(3)
H17 H 0.0584 0.2086 0.0519
H18 H 0.0985 0.1996 0.0221
C2 C 0.1777(3) 0.1724(5) 0.0972(3)
H19 H 0.1832 0.2163 0.0780
H20 H 0.1817 0.1285 0.0771
C3 C 0.1053(4) 0.0946(5) 0.1033(4)
H21 H 0.1312 0.0665 0.1287
C4 C 0.0940(4) 0.0536(5) 0.0511(4)
H22 H 0.0675 0.0791 0.0254
H23 H 0.1230 0.0542 0.0384
C5 C 0.0793(6) -0.0258(7) 0.0573(6)
H24 H 0.1072 -0.0524 0.0803
H25 H 0.0707 -0.0504 0.0233
C6 C 0.0356(7) -0.0301(9) 0.0802(8)
H26 H 0.0288 -0.0822 0.0862
H27 H 0.0065 -0.0092 0.0553
C7 C 0.0465(6) 0.0135(9) 0.1324(7)
H28 H 0.0737 -0.0101 0.1583
H29 H 0.0177 0.0122 0.1454
C8 C 0.0600(5) 0.0971(7) 0.1241(5)
H30 H 0.0327 0.1218 0.0989
H31 H 0.0675 0.1244 0.1570
C9 C 0.0650(4) 0.6471(5) 0.0802(4)
H32 H 0.0667 0.6641 0.0460
H33 H 0.0370 0.6714 0.0876
C10 C 0.1009(3) 0.7087(5) 0.1661(3)
H34 H 0.0728 0.6848 0.1736
H35 H 0.0918 0.7602 0.1559
C11 C 0.1505(4) 0.7071(6) 0.1012(4)
H36 H 0.1792 0.7176 0.1313
C12 C 0.1330(5) 0.7805(6) 0.0741(4)
H37 H 0.1241 0.8149 0.0982
H38 H 0.1042 0.7724 0.0443
C13 C 0.1759(7) 0.8140(7) 0.0551(6)
H39 H 0.1652 0.8608 0.0367
H40 H 0.2038 0.8248 0.0853
C14 C 0.1913(7) 0.7602(10) 0.0194(7)
H41 H 0.2171 0.7827 0.0068
H42 H 0.1634 0.7495 -0.0109
C15 C 0.2103(6) 0.6868(9) 0.0486(7)
H43 H 0.2380 0.6971 0.0792
H44 H 0.2213 0.6528 0.0257
C16 C 0.1664(6) 0.6507(7) 0.0658(5)
H45 H 0.1390 0.6396 0.0351
H46 H 0.1771 0.6042 0.0847
C17 C 0.1567(3) 0.6152(4) -0.1761(3)
H47 H 0.1349 0.6580 -0.1871
H48 H 0.1838 0.6313 -0.1466
C18 C 0.1654(3) 0.5104(5) -0.1144(3)
H49 H 0.1913 0.4933 -0.1291
H50 H 0.1804 0.5448 -0.0860
C19 C 0.0841(3) 0.5844(5) -0.1393(3)
H51 H 0.0696 0.5412 -0.1262
C20 C 0.0446(3) 0.6152(6) -0.1861(3)
H52 H 0.0353 0.5777 -0.2136
H53 H 0.0569 0.6590 -0.2001
C21 C 0.0002(4) 0.6365(7) -0.1677(4)
H54 H -0.0129 0.5918 -0.1555
H55 H -0.0254 0.6570 -0.1970
C22 C 0.0133(4) 0.6929(6) -0.1241(4)
H56 H 0.0234 0.7394 -0.1370
H57 H -0.0154 0.7034 -0.1122
C23 C 0.0553(4) 0.6635(6) -0.0781(4)
H58 H 0.0433 0.6210 -0.0623
H59 H 0.0648 0.7024 -0.0516
C24 C 0.1000(3) 0.6396(6) -0.0943(3)
H60 H 0.1152 0.6831 -0.1052
H61 H 0.1239 0.6163 -0.0648
C25 C 0.1675(4) 0.0872(4) -0.0707(4)
H62 H 0.1846 0.0614 -0.0384
H63 H 0.1325 0.0865 -0.0740
C26 C 0.2302(4) 0.0214(5) -0.1056(3)
H64 H 0.2328 -0.0301 -0.0933
H65 H 0.2507 0.0523 -0.0777
C27 C 0.1407(5) -0.0153(6) -0.1402(4)
H66 H 0.1580 -0.0433 -0.1614
C28 C 0.1001(9) 0.0089(14) -0.1772(10)
H67 H 0.1094 0.0443 -0.2005
H68 H 0.0780 0.0341 -0.1607
C29 C 0.0719(8) -0.0655(11) -0.2115(8)
H69 H 0.0398 -0.0510 -0.2344
H70 H 0.0915 -0.0853 -0.2331
C30 C 0.0659(10) -0.1237(14) -0.1728(10)
H71 H 0.0347 -0.1139 -0.1657
H72 H 0.0628 -0.1719 -0.1905
C31 C 0.1004(8) -0.1317(12) -0.1258(8)
H73 H 0.1195 -0.1759 -0.1288
H74 H 0.0826 -0.1439 -0.1006
C32 C 0.1371(5) -0.0722(6) -0.1006(5)
H75 H 0.1269 -0.0481 -0.0726
H76 H 0.1692 -0.0950 -0.0853
Zn1D Zn -0.05843(3) 0.55695(5) 0.02060(3)
Zn2E Zn 0.30812(3) 0.18028(5) -0.00326(3)
Zn3C Zn 0.24050(4) 0.82075(5) 0.27151(4)
Zn3F Zn 0.25950(4) 0.67925(5) -0.27151(4)
Zn3E Zn 0.24050(4) 0.17925(5) -0.22849(4)
Zn4C Zn 0.23123(4) 0.56800(5) 0.25096(3)
Zn4E Zn 0.23123(4) 0.43200(5) -0.24904(3)
Zn4F Zn 0.26877(4) -0.06800(5) -0.25096(3)
Zn5F Zn 0.13032(4) 0.56867(5) -0.35146(3)
Zn5E Zn 0.36968(4) 0.06867(5) -0.14854(3)
Zn6C Zn 0.16341(4) 0.69530(5) 0.34416(4)
Zn6E Zn 0.16341(4) 0.30470(5) -0.15584(4)
O9D O -0.0023(2) 0.4666(4) -0.0728(3)
O10C O 0.3199(3) 0.1395(4) 0.2810(2)
O11C O 0.3709(3) 0.2048(5) 0.2306(2)
O12C O 0.3191(3) 0.2792(4) 0.2747(3)
O13F O 0.2206(2) 0.3510(4) 0.2750(2)
O14E O 0.2984(3) -0.0126(3) 0.2195(2)
O15F O 0.1396(2) 0.4013(4) 0.2217(2)
O18E O 0.3780(2) 0.1262(3) 0.1305(2)
O20E O 0.3334(2) 0.2927(3) 0.1244(2)
O21E O 0.2555(2) 0.3161(4) 0.0530(2)
O22E O 0.2759(3) 0.4067(4) 0.1932(3)
O23F O 0.2400(2) 0.0441(4) 0.3049(2)
O24E O 0.1924(3) 0.4632(4) 0.1421(3)
O25 O 0.1197(3) 0.2315(4) 0.2002(3)
H1 H 0.1146 0.2737 0.2126
H2 H 0.0951 0.2029 0.1979
O26 O 0.0834(3) 0.5411(5) 0.2591(3)
H3 H 0.0850 0.5885 0.2627
H4 H 0.0585 0.5247 0.2676
O27 O 0.2937(5) 0.4584(7) 0.3662(5)
H5 H 0.3024 0.5043 0.3690
H6 H 0.2698 0.4523 0.3792
O28 O 0.2772(5) 0.4943(7) 0.9622(5)
H7 H 0.2828 0.5396 0.9723
H8 H 0.2534 0.4771 0.9723
O29 O 0.1992(6) 0.2026(8) 0.3092(6)
H9 H 0.2050 0.1566 0.3050
H10 H 0.2110 0.2142 0.3415
O30 O 0.9924(7) 0.5914(11) 0.1771(7)
H11 H 0.9978 0.6347 0.1666
H12 H 1.0003 0.5909 0.2105
loop_
_geom_bond_atom_site_label_1
_geom_bond_atom_site_label_2
_geom_bond_site_symmetry_1
_geom_bond_site_symmetry_2
Zn1 O1 1_555 1_555
Zn2 O2 1_555 1_555
Zn3 O4 1_555 1_555
Zn4 O6 1_555 1_555
Zn5 O3 1_555 1_555
Zn6 O5 1_555 1_555
P1 O1 1_555 1_555
P2 O4 1_555 1_555
P3 O7 1_555 1_555
P4 O10 1_555 1_555
P5 O13 1_555 1_555
P6 O16 1_555 1_555
P7 O19 1_555 1_555
P8 O22 1_555 1_555
O2 P1 1_555 1_555
O3 P1 1_555 1_555
O5 P2 1_555 1_555
O6 P2 1_555 1_555
O7 Zn1 1_555 1_555
O8 Zn5 1_555 1_555
O9 P3 1_555 1_555
O10 Zn4C 1_555 1_555
O11 P4 1_555 1_555
O12 P4 1_555 1_555
O13 Zn3F 1_555 1_555
O14 P5 1_555 1_555
O15 P5 1_555 1_555
O16 Zn1 1_555 1_555
O17 Zn2 1_555 1_555
O18 P6 1_555 1_555
O19 Zn2 1_555 1_555
O20 P7 1_555 1_555
O21 P7 1_555 1_555
O22 Zn3E 1_555 1_555
O23 P8 1_555 1_555
O24 P8 1_555 1_555
O25 H1 1_555 1_555
H2 O25 1_555 1_555
O26 H3 1_555 1_555
H4 O26 1_555 1_555
O27 H5 1_555 1_555
H6 O27 1_555 1_555
O28 H7 1_555 1_555
H8 O28 1_555 1_555
O29 H9 1_555 1_555
H10 O29 1_555 1_555
O30 H11 1_555 1_555
H12 O30 1_555 1_555
N1 H13 1_555 1_555
N2 H14 1_555 1_555
N3 H15 1_555 1_555
N4 H16 1_555 1_555
C1 P1 1_555 1_555
H17 C1 1_555 1_555
H18 C1 1_555 1_555
C2 P2 1_555 1_555
H19 C2 1_555 1_555
H20 C2 1_555 1_555
C3 N1 1_555 1_555
H21 C3 1_555 1_555
C4 C3 1_555 1_555
H22 C4 1_555 1_555
H23 C4 1_555 1_555
C5 C4 1_555 1_555
H24 C5 1_555 1_555
H25 C5 1_555 1_555
C6 C5 1_555 1_555
H26 C6 1_555 1_555
H27 C6 1_555 1_555
C7 C6 1_555 1_555
H28 C7 1_555 1_555
H29 C7 1_555 1_555
C8 C3 1_555 1_555
H30 C8 1_555 1_555
H31 C8 1_555 1_555
C9 P3 1_555 1_555
H32 C9 1_555 1_555
H33 C9 1_555 1_555
C10 P4 1_555 1_555
H34 C10 1_555 1_555
H35 C10 1_555 1_555
C11 N2 1_555 1_555
H36 C11 1_555 1_555
C12 C11 1_555 1_555
H37 C12 1_555 1_555
H38 C12 1_555 1_555
C13 C12 1_555 1_555
H39 C13 1_555 1_555
H40 C13 1_555 1_555
C14 C13 1_555 1_555
H41 C14 1_555 1_555
H42 C14 1_555 1_555
C15 C14 1_555 1_555
H43 C15 1_555 1_555
H44 C15 1_555 1_555
C16 C11 1_555 1_555
H45 C16 1_555 1_555
H46 C16 1_555 1_555
C17 P5 1_555 1_555
H47 C17 1_555 1_555
H48 C17 1_555 1_555
C18 P6 1_555 1_555
H49 C18 1_555 1_555
H50 C18 1_555 1_555
C19 N3 1_555 1_555
H51 C19 1_555 1_555
C20 C19 1_555 1_555
H52 C20 1_555 1_555
H53 C20 1_555 1_555
C21 C20 1_555 1_555
H54 C21 1_555 1_555
H55 C21 1_555 1_555
C22 C21 1_555 1_555
H56 C22 1_555 1_555
H57 C22 1_555 1_555
C23 C22 1_555 1_555
H58 C23 1_555 1_555
H59 C23 1_555 1_555
C24 C19 1_555 1_555
H60 C24 1_555 1_555
H61 C24 1_555 1_555
C25 P7 1_555 1_555
H62 C25 1_555 1_555
H63 C25 1_555 1_555
C26 P8 1_555 1_555
H64 C26 1_555 1_555
H65 C26 1_555 1_555
C27 N4 1_555 1_555
H66 C27 1_555 1_555
C28 C27 1_555 1_555
H67 C28 1_555 1_555
H68 C28 1_555 1_555
C29 C28 1_555 1_555
H69 C29 1_555 1_555
H70 C29 1_555 1_555
C30 C29 1_555 1_555
H71 C30 1_555 1_555
H72 C30 1_555 1_555
C31 C30 1_555 1_555
H73 C31 1_555 1_555
H74 C31 1_555 1_555
C32 C27 1_555 1_555
H75 C32 1_555 1_555
H76 C32 1_555 1_555
Zn1D O9 1_555 1_555
Zn2E O21 1_555 1_555
Zn3C O12 1_555 1_555
Zn4E O14 1_555 1_555
Zn4F O23 1_555 1_555
Zn5F O15 1_555 1_555
Zn5E O24 1_555 1_555
Zn6C O11 1_555 1_555
Zn6E O18 1_555 1_555
O9D Zn1 1_555 1_555
O10C Zn4 1_555 1_555
O11C Zn6 1_555 1_555
O12C Zn3 1_555 1_555
O13F Zn3 1_555 1_555
O14E Zn4 1_555 1_555
O15F Zn5 1_555 1_555
O18E Zn6 1_555 1_555
O20E Zn6 1_555 1_555
O21E Zn2 1_555 1_555
O22E Zn3 1_555 1_555
O23F Zn4 1_555 1_555
O24E Zn5 1_555 1_555
P3 O8 1_555 1_555
P6 O17 1_555 1_555
O20 Zn6E 1_555 1_555
N1 C1 1_555 1_555
N1 C2 1_555 1_555
N2 C9 1_555 1_555
N2 C10 1_555 1_555
N3 C17 1_555 1_555
N3 C18 1_555 1_555
N4 C25 1_555 1_555
N4 C26 1_555 1_555
C7 C8 1_555 1_555
C15 C16 1_555 1_555
C23 C24 1_555 1_555
C31 C32 1_555 1_555

#END
