
#######################################################################
#
#                 Cambridge Crystallographic Data Centre
#                                CCDC 
#
#######################################################################
#
# If this CIF has been generated from an entry in the Cambridge 
# Structural Database, then it will include bibliographic, chemical, 
# crystal, experimental, refinement or atomic coordinate data resulting 
# from the CCDC's data processing and validation procedures.
#
#######################################################################

data_TOBQIL
_symmetry_cell_setting           monoclinic
_symmetry_space_group_name_H-M   'P 21/n'
_symmetry_Int_Tables_number      14
_space_group_name_Hall           '-P 2yn'
loop_
_symmetry_equiv_pos_site_id
_symmetry_equiv_pos_as_xyz
1 x,y,z
2 1/2-x,1/2+y,1/2-z
3 -x,-y,-z
4 1/2+x,1/2-y,1/2+z
_cell_length_a                   7.3551(16)
_cell_length_b                   9.606(2)
_cell_length_c                   22.972(5)
_cell_angle_alpha                90
_cell_angle_beta                 95.222(3)
_cell_angle_gamma                90
_cell_volume                     1616.31
loop_
_atom_site_label
_atom_site_type_symbol
_atom_site_fract_x
_atom_site_fract_y
_atom_site_fract_z
Cd1 Cd 0.75520(6) 0.79322(4) 0.069751(19)
C1 C 0.6675(9) 0.5036(8) 0.1362(3)
H1 H 0.6588 0.5625 0.1680
C2 C 0.6398(11) 0.3621(9) 0.1433(4)
H2 H 0.6149 0.3266 0.1794
C3 C 0.6495(11) 0.2765(9) 0.0971(5)
H3 H 0.6290 0.1815 0.1010
C4 C 0.6890(10) 0.3293(7) 0.0450(4)
H4 H 0.6958 0.2711 0.0129
C5 C 0.7192(8) 0.4707(6) 0.0402(3)
C6 C 0.7655(7) 0.5360(6) -0.0138(3)
C7 C 0.7892(8) 0.4811(8) -0.0690(3)
H5 H 0.7766 0.3887 -0.0808
C8 C 0.8344(9) 0.5911(8) -0.1017(3)
H6 H 0.8580 0.5885 -0.1408
C9 C 1.0889(8) 0.9440(7) 0.1162(2)
C10 C 1.2050(7) 0.9990(6) 0.1689(2)
C11 C 1.1149(10) 1.0770(7) 0.2082(3)
H7 H 0.9892 1.0894 0.2020
C12 C 1.2101(12) 1.1365(8) 0.2566(3)
H8 H 1.1490 1.1884 0.2829
C13 C 1.3949(12) 1.1185(8) 0.2655(3)
H9 H 1.4599 1.1599 0.2975
C14 C 1.4838(9) 1.0407(7) 0.2279(3)
H10 H 1.6090 1.0274 0.2352
C15 C 1.3919(8) 0.9806(6) 0.1790(2)
C16 C 1.4983(8) 0.9002(6) 0.1376(3)
N1 N 0.7061(6) 0.5580(5) 0.0855(2)
N2 N 0.7970(7) 0.6729(5) -0.0140(2)
N3 N 0.8390(7) 0.7029(6) -0.0680(2)
H11 H 0.8657 0.7850 -0.0795
O1 O 1.0447(7) 1.0278(5) 0.0764(2)
O2 O 0.7118(7) 0.9917(4) 0.0144(2)
O3 O 1.0331(6) 0.8220(4) 0.11749(19)
O4 O 1.6616(7) 0.8742(7) 0.1536(2)
O5 O 1.4294(6) 0.8667(5) 0.08902(18)
Cd1_2 Cd 1.75520(6) 0.79322(4) 0.069751(19)
O4_2 O 0.6616(7) 0.8742(7) 0.1536(2)
O5_2 O 0.4294(6) 0.8667(5) 0.08902(18)
loop_
_geom_bond_atom_site_label_1
_geom_bond_atom_site_label_2
_geom_bond_site_symmetry_1
_geom_bond_site_symmetry_2
Cd1 N1 1_555 1_555
C1 H1 1_555 1_555
C2 C1 1_555 1_555
H2 C2 1_555 1_555
C3 C2 1_555 1_555
H3 C3 1_555 1_555
C4 C3 1_555 1_555
H4 C4 1_555 1_555
C5 C4 1_555 1_555
C6 C5 1_555 1_555
C7 C6 1_555 1_555
H5 C7 1_555 1_555
C8 C7 1_555 1_555
H6 C8 1_555 1_555
C9 C10 1_555 1_555
C10 C11 1_555 1_555
C11 H7 1_555 1_555
C12 C11 1_555 1_555
H8 C12 1_555 1_555
C13 C12 1_555 1_555
H9 C13 1_555 1_555
C14 C13 1_555 1_555
H10 C14 1_555 1_555
C15 C10 1_555 1_555
C16 C15 1_555 1_555
N1 C1 1_555 1_555
N2 Cd1 1_555 1_555
N3 C8 1_555 1_555
H11 N3 1_555 1_555
O1 C9 1_555 1_555
O2 Cd1 1_555 1_555
O3 Cd1 1_555 1_555
O4 C16 1_555 1_555
O5 C16 1_555 1_555
Cd1_2 O4 1_555 1_555
O4_2 Cd1 1_555 1_555
O5_2 Cd1 1_555 1_555
C5 N1 1_555 1_555
C6 N2 1_555 1_555
C9 O3 1_555 1_555
C14 C15 1_555 1_555
N2 N3 1_555 1_555
O5 Cd1_2 1_555 1_555

#END
