
#######################################################################
#
#                 Cambridge Crystallographic Data Centre
#                                CCDC 
#
#######################################################################
#
# If this CIF has been generated from an entry in the Cambridge 
# Structural Database, then it will include bibliographic, chemical, 
# crystal, experimental, refinement or atomic coordinate data resulting 
# from the CCDC's data processing and validation procedures.
#
#######################################################################

data_TOBQEI
_symmetry_cell_setting           orthorhombic
_symmetry_space_group_name_H-M   'C m c a'
_symmetry_Int_Tables_number      64
_space_group_name_Hall           '-C 2bc 2'
loop_
_symmetry_equiv_pos_site_id
_symmetry_equiv_pos_as_xyz
1 x,y,z
2 1/2-x,-y,1/2+z
3 x,-y,-z
4 1/2-x,y,1/2-z
5 1/2+x,1/2+y,z
6 -x,1/2-y,1/2+z
7 1/2+x,1/2-y,-z
8 -x,1/2+y,1/2-z
9 -x,-y,-z
10 1/2+x,y,1/2-z
11 -x,y,z
12 1/2+x,-y,1/2+z
13 1/2-x,1/2-y,-z
14 x,1/2+y,1/2-z
15 1/2-x,1/2+y,z
16 x,1/2-y,1/2+z
_cell_length_a                   24.711(2)
_cell_length_b                   6.8871(4)
_cell_length_c                   10.9942(6)
_cell_angle_alpha                90
_cell_angle_beta                 90
_cell_angle_gamma                90
_cell_volume                     1871.07
loop_
_atom_site_label
_atom_site_type_symbol
_atom_site_fract_x
_atom_site_fract_y
_atom_site_fract_z
Mn1 Mn 0.5000 0.15687(7) 0.28458(4)
O1 O 0.5000 -0.1352(3) 0.38174(18)
O2 O 0.55905(8) 0.2518(3) 0.41732(15)
O3 O 0.56426(8) 0.5279(3) 0.31739(15)
C1 C 0.57739(9) 0.4200(4) 0.40342(18)
C2 C 0.61689(12) 0.5000 0.5000
C3 C 0.65148(11) 0.3336(4) 0.5511(3)
H1 H 0.6275 0.2357 0.5844
H2 H 0.6712 0.2745 0.4844
C4 C 0.69159(16) 0.3918(6) 0.6486(4)
H3 H 0.7114 0.2795 0.6749
H4 H 0.6725 0.4468 0.7164
H5 H 0.7163 0.4861 0.6162
H6 H 0.5285(9) -0.161(4) 0.426(2)
H6J H 0.4715(9) -0.161(4) 0.426(2)
O2B O 0.55905(8) 0.7482(3) 0.58268(15)
O3B O 0.56426(8) 0.4721(3) 0.68261(15)
C1B C 0.57739(9) 0.5800(4) 0.59658(18)
C3B C 0.65148(11) 0.6664(4) 0.4489(3)
H1B H 0.6275 0.7643 0.4156
H2B H 0.6712 0.7255 0.5156
C4B C 0.69159(16) 0.6082(6) 0.3514(4)
H3B H 0.7114 0.7205 0.3251
H4B H 0.6725 0.5532 0.2836
H5B H 0.7163 0.5139 0.3838
Mn1B Mn 0.5000 0.84313(7) 0.71542(4)
Mn1E Mn 0.5000 0.34313(7) 0.78458(4)
Mn1G Mn 0.5000 -0.34313(7) 0.21542(4)
Mn1G_2 Mn 0.5000 0.65687(7) 0.21542(4)
O1G O 0.5000 0.3648(3) 0.11826(18)
O2J O 0.44095(8) 0.2518(3) 0.41732(15)
O3G O 0.43574(8) 0.0279(3) 0.18261(15)
O3M O 0.56426(8) 0.0279(3) 0.18261(15)
loop_
_geom_bond_atom_site_label_1
_geom_bond_atom_site_label_2
_geom_bond_site_symmetry_1
_geom_bond_site_symmetry_2
Mn1 O1 1_555 1_555
O1 H6 1_555 1_555
O2 Mn1 1_555 1_555
O3 C1 1_555 1_555
C1 O2 1_555 1_555
C2 C1 1_555 1_555
C3 C2 1_555 1_555
H1 C3 1_555 1_555
H2 C3 1_555 1_555
C4 C3 1_555 1_555
H3 C4 1_555 1_555
H4 C4 1_555 1_555
H5 C4 1_555 1_555
H6J O1 1_555 1_555
O2B C1B 1_555 1_555
O3B C1B 1_555 1_555
C1B C2 1_555 1_555
C3B C2 1_555 1_555
H1B C3B 1_555 1_555
H2B C3B 1_555 1_555
C4B C3B 1_555 1_555
H3B C4B 1_555 1_555
H4B C4B 1_555 1_555
H5B C4B 1_555 1_555
Mn1B O2B 1_555 1_555
Mn1E O3B 1_555 1_555
Mn1G O1 1_555 1_555
Mn1G_2 O3 1_555 1_555
O1G Mn1 1_555 1_555
O2J Mn1 1_555 1_555
O3G Mn1 1_555 1_555
O3M Mn1 1_555 1_555
Mn1G_2 O1G 1_555 1_555

#END
