
#######################################################################
#
#                 Cambridge Crystallographic Data Centre
#                                CCDC 
#
#######################################################################
#
# If this CIF has been generated from an entry in the Cambridge 
# Structural Database, then it will include bibliographic, chemical, 
# crystal, experimental, refinement or atomic coordinate data resulting 
# from the CCDC's data processing and validation procedures.
#
#######################################################################

data_TOBQEH
_symmetry_cell_setting           triclinic
_symmetry_space_group_name_H-M   'P -1'
_symmetry_Int_Tables_number      2
_space_group_name_Hall           '-P 1'
loop_
_symmetry_equiv_pos_site_id
_symmetry_equiv_pos_as_xyz
1 x,y,z
2 -x,-y,-z
_cell_length_a                   11.4531(7)
_cell_length_b                   12.0064(7)
_cell_length_c                   12.3765(7)
_cell_angle_alpha                94.79
_cell_angle_beta                 115.9150(10)
_cell_angle_gamma                101.0780(10)
_cell_volume                     1474.95
loop_
_atom_site_label
_atom_site_type_symbol
_atom_site_fract_x
_atom_site_fract_y
_atom_site_fract_z
Nd1 Nd 0.53768(3) 0.83178(3) 0.47364(3)
O1 O 0.6594(4) 0.7368(3) 0.3579(4)
C1 C 0.7726(5) 0.7914(5) 0.4446(5)
Nd2 Nd 0.51157(3) 0.56943(3) 0.18084(3)
O2 O 0.7789(4) 0.8643(4) 0.5269(4)
C2 C 0.9022(5) 0.7729(5) 0.4502(6)
H1 H 0.8845 0.6940 0.4080
O3 O 1.3587(4) 0.7714(3) 0.5383(4)
C3 C 0.9501(5) 0.8582(5) 0.3838(5)
H2 H 0.9523 0.9356 0.4156
H3 H 0.8862 0.8396 0.2974
O4 O 1.3944(4) 0.9538(3) 0.5232(4)
C4 C 1.0897(6) 0.8564(5) 0.3982(5)
H4 H 1.0837 0.7845 0.3517
H5 H 1.1206 0.9194 0.3651
O5 O 0.3981(4) 0.6486(4) 0.3250(4)
C5 C 1.1918(5) 0.8679(5) 0.5323(5)
H6 H 1.2031 0.9438 0.5769
O6 O 0.2833(4) 0.5136(4) 0.1616(4)
C6 C 1.1407(6) 0.7757(6) 0.5889(6)
H7 H 1.1287 0.6997 0.5457
H8 H 1.2061 0.7835 0.6737
O7 O -0.2662(4) 0.5205(4) 0.2486(4)
C7 C 1.0084(6) 0.7874(6) 0.5817(6)
H9 H 1.0212 0.8630 0.6261
H10 H 0.9779 0.7295 0.6202
O8 O -0.3756(4) 0.4819(3) 0.0491(4)
C8 C 1.3222(5) 0.8634(5) 0.5336(5)
O9 O 0.6703(4) 0.9082(3) 0.6994(4)
C9 C 0.2878(6) 0.5812(5) 0.2473(5)
O10 O 0.7536(5) 0.7674(4) 0.7868(4)
C10 C 0.1577(5) 0.5788(5) 0.2527(5)
H11 H 0.1779 0.6293 0.3284
O11 O 0.5955(5) 0.6557(4) 0.5663(5)
C11 C 0.0639(6) 0.6244(5) 0.1433(6)
H12 H 0.1049 0.7050 0.1504
H13 H 0.0547 0.5820 0.0686
O12 O 0.3737(6) 0.8733(5) 0.2779(4)
C12 C -0.0748(5) 0.6138(5) 0.1333(6)
H14 H -0.1324 0.6319 0.0557
H15 H -0.0682 0.6701 0.1980
O13 O 0.5975(7) 0.4859(5) 0.3905(5)
C13 C -0.1393(5) 0.4928(5) 0.1424(5)
H16 H -0.1612 0.4387 0.0684
O14 O 0.4267(6) 0.3519(4) 0.1322(5)
C14 C -0.0445(6) 0.4527(7) 0.2517(7)
H17 H -0.0855 0.3739 0.2513
H18 H -0.0294 0.5009 0.3258
O15 O 0.4320(5) 0.7512(4) 0.1192(4)
C15 C 0.0900(6) 0.4574(6) 0.2527(7)
H19 H 0.1480 0.4316 0.3248
H20 H 0.0759 0.4056 0.1812
O16 O 0.6048(4) 0.7274(3) 0.0943(4)
C16 C -0.2677(5) 0.4965(5) 0.1467(5)
C17 C 0.7551(6) 0.8712(5) 0.7856(5)
C18 C 0.8676(6) 0.9613(6) 0.8925(6)
H21 H 0.8411 1.0343 0.8892
C19 C 0.9944(8) 0.9805(8) 0.8815(7)
H22 H 0.9789 1.0059 0.8051
H23 H 1.0194 0.9079 0.8793
C20 C 0.8907(8) 0.9301(8) 1.0131(7)
H24 H 0.9109 0.8552 1.0164
H25 H 0.8094 0.9241 1.0214
C21 C 0.5176(7) 0.7822(5) 0.0817(6)
C22 C 0.5171(7) 0.8862(6) 0.0212(7)
H26 H 0.5527 0.8726 -0.0363
C23 C 0.3826(8) 0.9034(6) -0.0509(8)
H27 H 0.3425 0.9152 0.0025
H28 H 0.3261 0.8346 -0.1125
C24 C 0.6114(8) 0.9928(6) 0.1131(8)
H29 H 0.7004 0.9802 0.1549
H30 H 0.5815 1.0083 0.1737
H31 H 0.427(5) 0.898(5) 0.250(5)
H32 H 0.370(6) 0.327(5) 0.135(5)
H33 H 0.553(6) 0.450(5) 0.398(5)
H34 H 0.399(7) 0.325(6) 0.069(6)
H35 H 0.635(6) 0.666(6) 0.614(5)
H36 H 0.655(7) 0.463(6) 0.404(7)
H37 H 0.356(7) 0.929(7) 0.262(7)
Nd1_2 Nd -0.46232(3) 0.83178(3) 0.47364(3)
Nd1_3 Nd 1.53768(3) 0.83178(3) 0.47364(3)
Nd1A Nd 1.46232(3) 1.16822(3) 0.52636(3)
Nd1A_2 Nd 1.46232(3) 1.16822(3) 1.52636(3)
Nd1A_3 Nd 0.46232(3) 1.16822(3) 0.52636(3)
O1_2 O -0.3406(4) 0.7368(3) 0.3579(4)
C1_2 C -0.2274(5) 0.7914(5) 0.4446(5)
Nd2_2 Nd -0.48843(3) 0.56943(3) 0.18084(3)
Nd2A Nd -0.51157(3) 0.43057(3) -0.18084(3)
Nd2A_2 Nd 0.48843(3) 1.43057(3) -0.18084(3)
Nd2_3 Nd 1.51157(3) 0.56943(3) 0.18084(3)
Nd2A_3 Nd 0.48843(3) 0.43057(3) -0.18084(3)
O2_2 O -0.2211(4) 0.8643(4) 0.5269(4)
C2_2 C -0.0978(5) 0.7729(5) 0.4502(6)
H1_2 H -0.1155 0.6940 0.4080
O3_2 O 0.3587(4) 0.7714(3) 0.5383(4)
O3_3 O -0.6413(4) 0.7714(3) 0.5383(4)
C3_2 C -0.0499(5) 0.8582(5) 0.3838(5)
H2_2 H -0.0477 0.9356 0.4156
H3_2 H -0.1138 0.8396 0.2974
O4_2 O 0.3944(4) 0.9538(3) 0.5232(4)
O4A O 0.6056(4) 1.0462(3) 0.4768(4)
O4_3 O -0.6056(4) 0.9538(3) 0.5232(4)
O4A_2 O -0.3944(4) 1.0462(3) 0.4768(4)
C4_2 C 0.0897(6) 0.8564(5) 0.3982(5)
H4_2 H 0.0837 0.7845 0.3517
H5_2 H 0.1206 0.9194 0.3651
O5_2 O 1.3981(4) 0.6486(4) 0.3250(4)
O5_3 O -0.6019(4) 0.6486(4) 0.3250(4)
C5_2 C 0.1918(5) 0.8679(5) 0.5323(5)
H6_2 H 0.2031 0.9438 0.5769
O6_2 O 1.2833(4) 0.5136(4) 0.1616(4)
O6_3 O -0.7167(4) 0.5136(4) 0.1616(4)
C6_2 C 0.1407(6) 0.7757(6) 0.5889(6)
H7_2 H 0.1287 0.6997 0.5457
H8_2 H 0.2061 0.7835 0.6737
O7_2 O 0.7338(4) 0.5205(4) 0.2486(4)
C7_2 C 0.0084(6) 0.7874(6) 0.5817(6)
H9_2 H 0.0212 0.8630 0.6261
H10_2 H -0.0221 0.7295 0.6202
O8_2 O 0.6244(4) 0.4819(3) 0.0491(4)
O8A O 0.3756(4) 0.5181(3) -0.0491(4)
O8A_2 O -0.6244(4) 0.5181(3) -0.0491(4)
C8_2 C 0.3222(5) 0.8634(5) 0.5336(5)
O9A O 1.3297(4) 1.0918(3) 1.3006(4)
O9_2 O -0.3297(4) 0.9082(3) 0.6994(4)
C9_2 C 1.2878(6) 0.5812(5) 0.2473(5)
O10A O 1.2464(5) 1.2326(4) 1.2132(4)
C10_2 C 1.1577(5) 0.5788(5) 0.2527(5)
H11_2 H 1.1779 0.6293 0.3284
O11_2 O -0.4045(5) 0.6557(4) 0.5663(5)
C11_2 C 1.0639(6) 0.6244(5) 0.1433(6)
H12_2 H 1.1049 0.7050 0.1504
H13_2 H 1.0547 0.5820 0.0686
O12_2 O -0.6263(6) 0.8733(5) 0.2779(4)
C12_2 C 0.9252(5) 0.6138(5) 0.1333(6)
H14_2 H 0.8676 0.6319 0.0557
H15_2 H 0.9318 0.6701 0.1980
O13_2 O -0.4025(7) 0.4859(5) 0.3905(5)
C13_2 C 0.8607(5) 0.4928(5) 0.1424(5)
H16_2 H 0.8388 0.4387 0.0684
O14_2 O -0.5733(6) 0.3519(4) 0.1322(5)
C14_2 C 0.9555(6) 0.4527(7) 0.2517(7)
H17_2 H 0.9145 0.3739 0.2513
H18_2 H 0.9706 0.5009 0.3258
O15A O 0.5680(5) 1.2488(4) -0.1192(4)
O15_2 O -0.5680(5) 0.7512(4) 0.1192(4)
C15_2 C 1.0900(6) 0.4574(6) 0.2527(7)
H19_2 H 1.1480 0.4316 0.3248
H20_2 H 1.0759 0.4056 0.1812
O16A O 0.3952(4) 1.2726(3) -0.0943(4)
O16_2 O -0.3952(4) 0.7274(3) 0.0943(4)
C16_2 C 0.7323(5) 0.4965(5) 0.1467(5)
C17A C 1.2449(6) 1.1288(5) 1.2144(5)
C18A C 1.1324(6) 1.0387(6) 1.1075(6)
H21A H 1.1589 0.9657 1.1108
C19A C 1.0056(8) 1.0195(8) 1.1185(7)
H22A H 1.0211 0.9941 1.1949
H23A H 0.9806 1.0921 1.1207
C20A C 1.1093(8) 1.0699(8) 0.9869(7)
H24A H 1.0891 1.1448 0.9836
H25A H 1.1906 1.0759 0.9786
C21A C 0.4824(7) 1.2178(5) -0.0817(6)
C22A C 0.4829(7) 1.1138(6) -0.0212(7)
H26A H 0.4473 1.1274 0.0363
C23A C 0.6174(8) 1.0966(6) 0.0509(8)
H27A H 0.6575 1.0848 -0.0025
H28A H 0.6739 1.1654 0.1125
C24A C 0.3886(8) 1.0072(6) -0.1131(8)
H29A H 0.2996 1.0198 -0.1549
H30A H 0.4185 0.9917 -0.1737
H31_2 H -0.573(5) 0.898(5) 0.250(5)
H32_2 H -0.630(6) 0.327(5) 0.135(5)
H33_2 H -0.447(6) 0.450(5) 0.398(5)
H34_2 H -0.601(7) 0.325(6) 0.069(6)
H35_2 H -0.365(6) 0.666(6) 0.614(5)
H36_2 H -0.345(7) 0.463(6) 0.404(7)
H37_2 H -0.644(7) 0.929(7) 0.262(7)
loop_
_geom_bond_atom_site_label_1
_geom_bond_atom_site_label_2
_geom_bond_site_symmetry_1
_geom_bond_site_symmetry_2
Nd1 O1 1_555 1_555
O1 C1 1_555 1_555
C1 O2 1_555 1_555
Nd2 O1 1_555 1_555
O2 Nd1 1_555 1_555
C2 C1 1_555 1_555
H1 C2 1_555 1_555
O3 C8 1_555 1_555
C3 C2 1_555 1_555
H2 C3 1_555 1_555
H3 C3 1_555 1_555
O4 C8 1_555 1_555
C4 C3 1_555 1_555
H4 C4 1_555 1_555
H5 C4 1_555 1_555
O5 Nd1 1_555 1_555
C5 C4 1_555 1_555
H6 C5 1_555 1_555
O6 Nd2 1_555 1_555
C6 C5 1_555 1_555
H7 C6 1_555 1_555
H8 C6 1_555 1_555
O7 C16 1_555 1_555
C7 C2 1_555 1_555
H9 C7 1_555 1_555
H10 C7 1_555 1_555
O8 C16 1_555 1_555
C8 C5 1_555 1_555
O9 Nd1 1_555 1_555
C9 O5 1_555 1_555
O10 C17 1_555 1_555
C10 C9 1_555 1_555
H11 C10 1_555 1_555
O11 Nd1 1_555 1_555
C11 C10 1_555 1_555
H12 C11 1_555 1_555
H13 C11 1_555 1_555
O12 Nd1 1_555 1_555
C12 C11 1_555 1_555
H14 C12 1_555 1_555
H15 C12 1_555 1_555
O13 Nd2 1_555 1_555
C13 C12 1_555 1_555
H16 C13 1_555 1_555
O14 Nd2 1_555 1_555
C14 C13 1_555 1_555
H17 C14 1_555 1_555
H18 C14 1_555 1_555
O15 Nd2 1_555 1_555
C15 C10 1_555 1_555
H19 C15 1_555 1_555
H20 C15 1_555 1_555
O16 Nd2 1_555 1_555
C16 C13 1_555 1_555
C17 O9 1_555 1_555
C18 C17 1_555 1_555
H21 C18 1_555 1_555
C19 C18 1_555 1_555
H22 C19 1_555 1_555
H23 C19 1_555 1_555
C20 C18 1_555 1_555
H24 C20 1_555 1_555
H25 C20 1_555 1_555
C21 O15 1_555 1_555
C22 C21 1_555 1_555
H26 C22 1_555 1_555
C23 C22 1_555 1_555
H27 C23 1_555 1_555
H28 C23 1_555 1_555
C24 C22 1_555 1_555
H29 C24 1_555 1_555
H30 C24 1_555 1_555
H31 O12 1_555 1_555
H32 O14 1_555 1_555
H33 O13 1_555 1_555
H34 O14 1_555 1_555
H35 O11 1_555 1_555
H36 O13 1_555 1_555
H37 O12 1_555 1_555
Nd1_2 O1_2 1_555 1_555
Nd1_3 O3 1_555 1_555
Nd1A O4 1_555 1_555
Nd1A_2 O9A 1_555 1_555
Nd1A_3 O4_2 1_555 1_555
O1_2 C1_2 1_555 1_555
C1_2 O2_2 1_555 1_555
Nd2_2 O7 1_555 1_555
Nd2A O8 1_555 1_555
Nd2A_2 O15A 1_555 1_555
Nd2_3 O5_2 1_555 1_555
Nd2A_3 O8_2 1_555 1_555
O2_2 Nd1_2 1_555 1_555
C2_2 C1_2 1_555 1_555
H1_2 C2_2 1_555 1_555
O3_2 Nd1 1_555 1_555
O3_3 Nd1_2 1_555 1_555
C3_2 C2_2 1_555 1_555
H2_2 C3_2 1_555 1_555
H3_2 C3_2 1_555 1_555
O4_2 Nd1 1_555 1_555
O4A Nd1 1_555 1_555
O4_3 Nd1_2 1_555 1_555
O4A_2 Nd1_2 1_555 1_555
C4_2 C3_2 1_555 1_555
H4_2 C4_2 1_555 1_555
H5_2 C4_2 1_555 1_555
O5_2 Nd1_3 1_555 1_555
O5_3 Nd1_2 1_555 1_555
C5_2 C4_2 1_555 1_555
H6_2 C5_2 1_555 1_555
O6_2 Nd2_3 1_555 1_555
O6_3 Nd2_2 1_555 1_555
C6_2 C5_2 1_555 1_555
H7_2 C6_2 1_555 1_555
H8_2 C6_2 1_555 1_555
O7_2 Nd2 1_555 1_555
C7_2 C2_2 1_555 1_555
H9_2 C7_2 1_555 1_555
H10_2 C7_2 1_555 1_555
O8_2 Nd2 1_555 1_555
O8A Nd2 1_555 1_555
O8A_2 Nd2_2 1_555 1_555
C8_2 O3_2 1_555 1_555
O9A C17A 1_555 1_555
O9_2 Nd1_2 1_555 1_555
C9_2 O5_2 1_555 1_555
O10A C17A 1_555 1_555
C10_2 C9_2 1_555 1_555
H11_2 C10_2 1_555 1_555
O11_2 Nd1_2 1_555 1_555
C11_2 C10_2 1_555 1_555
H12_2 C11_2 1_555 1_555
H13_2 C11_2 1_555 1_555
O12_2 Nd1_2 1_555 1_555
C12_2 C11_2 1_555 1_555
H14_2 C12_2 1_555 1_555
H15_2 C12_2 1_555 1_555
O13_2 Nd2_2 1_555 1_555
C13_2 C12_2 1_555 1_555
H16_2 C13_2 1_555 1_555
O14_2 Nd2_2 1_555 1_555
C14_2 C13_2 1_555 1_555
H17_2 C14_2 1_555 1_555
H18_2 C14_2 1_555 1_555
O15A C21A 1_555 1_555
O15_2 Nd2_2 1_555 1_555
C15_2 C10_2 1_555 1_555
H19_2 C15_2 1_555 1_555
H20_2 C15_2 1_555 1_555
O16A Nd2A_2 1_555 1_555
O16_2 Nd2_2 1_555 1_555
C16_2 O7_2 1_555 1_555
C17A C18A 1_555 1_555
C18A H21A 1_555 1_555
C19A C20 1_555 1_555
H22A C19A 1_555 1_555
H23A C19A 1_555 1_555
C20A C19 1_555 1_555
H24A C20A 1_555 1_555
H25A C20A 1_555 1_555
C21A O16A 1_555 1_555
C22A C21A 1_555 1_555
H26A C22A 1_555 1_555
C23A C24 1_555 1_555
H27A C23A 1_555 1_555
H28A C23A 1_555 1_555
C24A C23 1_555 1_555
H29A C24A 1_555 1_555
H30A C24A 1_555 1_555
H31_2 O12_2 1_555 1_555
H32_2 O14_2 1_555 1_555
H33_2 O13_2 1_555 1_555
H34_2 O14_2 1_555 1_555
H35_2 O11_2 1_555 1_555
H36_2 O13_2 1_555 1_555
H37_2 O12_2 1_555 1_555
Nd2 O5 1_555 1_555
O4 Nd1_3 1_555 1_555
O6 C9 1_555 1_555
C6 C7 1_555 1_555
O8 Nd2_2 1_555 1_555
C14 C15 1_555 1_555
O16 C21 1_555 1_555
Nd1A_3 O4A 1_555 1_555
O1_2 Nd2_2 1_555 1_555
Nd2_2 O5_3 1_555 1_555
Nd2A O8A_2 1_555 1_555
Nd2A_3 O8A 1_555 1_555
O4_2 C8_2 1_555 1_555
C5_2 C8_2 1_555 1_555
O6_2 C9_2 1_555 1_555
C6_2 C7_2 1_555 1_555
O8_2 C16_2 1_555 1_555
C13_2 C16_2 1_555 1_555
C14_2 C15_2 1_555 1_555
C18A C19A 1_555 1_555
C18A C20A 1_555 1_555
C22A C23A 1_555 1_555
C22A C24A 1_555 1_555

#END
