
#######################################################################
#
#                 Cambridge Crystallographic Data Centre
#                                CCDC 
#
#######################################################################
#
# If this CIF has been generated from an entry in the Cambridge 
# Structural Database, then it will include bibliographic, chemical, 
# crystal, experimental, refinement or atomic coordinate data resulting 
# from the CCDC's data processing and validation procedures.
#
#######################################################################

data_TOBSIO
_symmetry_cell_setting           triclinic
_symmetry_space_group_name_H-M   'P -1'
_symmetry_Int_Tables_number      2
_space_group_name_Hall           '-P 1'
loop_
_symmetry_equiv_pos_site_id
_symmetry_equiv_pos_as_xyz
1 x,y,z
2 -x,-y,-z
_cell_length_a                   12.2939(17)
_cell_length_b                   12.5135(9)
_cell_length_c                   13.2046(10)
_cell_angle_alpha                115.3190(10)
_cell_angle_beta                 96.9140(10)
_cell_angle_gamma                109.7950(10)
_cell_volume                     1641.61
loop_
_atom_site_label
_atom_site_type_symbol
_atom_site_fract_x
_atom_site_fract_y
_atom_site_fract_z
Cd1 Cd 0.533966(14) 0.635442(15) 0.633415(13)
Cd2 Cd 0.744319(15) 0.689330(16) 0.492853(14)
C1 C 0.8117(2) 0.8359(2) 0.7730(2)
C2 C 0.9080(2) 0.9178(2) 0.8921(2)
C3 C 0.8980(2) 1.0218(2) 0.9807(2)
H1 H 0.8294 1.0361 0.9681
C4 C 0.9902(2) 1.1052(2) 1.0885(2)
C5 C 0.9777(2) 1.2209(3) 1.1783(2)
C6 C 1.0737(2) 1.3554(3) 1.2213(2)
C7 C 1.1482(3) 1.3799(3) 1.1556(3)
H2 H 1.1402 1.3113 1.0841
C8 C 1.2344(3) 1.5057(4) 1.1956(4)
H3 H 1.2836 1.5218 1.1507
C9 C 1.2476(3) 1.6072(3) 1.3017(4)
H4 H 1.3060 1.6918 1.3286
C10 C 1.1748(3) 1.5840(3) 1.3682(3)
H5 H 1.1847 1.6531 1.4403
C11 C 1.0868(3) 1.4588(3) 1.3286(3)
H6 H 1.0369 1.4437 1.3733
C12 C 0.5213(2) 0.8073(2) 0.5580(2)
C13 C 0.5105(2) 0.9087(2) 0.5303(2)
C14 C 0.4512(2) 0.9843(2) 0.5860(2)
C15 C 0.4415(2) 1.0742(2) 0.5550(2)
H7 H 0.4020 1.1241 0.5918
C16 C 0.3922(2) 0.9705(2) 0.6766(2)
C17 C 0.4653(3) 1.0494(3) 0.8024(2)
C18 C 0.5907(3) 1.1207(3) 0.8384(3)
H8 H 0.6312 1.1174 0.7827
C19 C 0.6558(4) 1.1972(4) 0.9584(3)
H9 H 0.7399 1.2448 0.9833
C20 C 0.5947(5) 1.2019(4) 1.0398(3)
H10 H 0.6379 1.2538 1.1199
C21 C 0.4721(4) 1.1316(4) 1.0049(3)
H11 H 0.4323 1.1353 1.0610
C22 C 0.4063(3) 1.0549(3) 0.8865(3)
H12 H 0.3224 1.0068 0.8631
C23 C 0.4383(3) 0.4916(3) 0.7763(2)
C24 C 0.4697(2) 0.4946(3) 0.8919(2)
C25 C 0.3943(2) 0.3962(2) 0.9093(2)
C26 C 0.4251(2) 0.4036(3) 1.0182(2)
H13 H 0.3742 0.3391 1.0306
C27 C 0.2800(2) 0.2796(3) 0.8159(2)
C28 C 0.1611(3) 0.2836(3) 0.8224(2)
C29 C 0.0581(3) 0.1667(4) 0.7823(3)
H14 H 0.0643 0.0877 0.7527
C30 C -0.0527(3) 0.1680(5) 0.7864(4)
H15 H -0.1209 0.0904 0.7620
C31 C -0.0620(4) 0.2847(5) 0.8268(4)
H16 H -0.1374 0.2850 0.8279
C32 C 0.0374(4) 0.4001(5) 0.8655(4)
H17 H 0.0295 0.4781 0.8920
C33 C 0.1509(3) 0.4004(3) 0.8650(3)
H18 H 0.2194 0.4790 0.8932
O1 O 0.70424(16) 0.8102(2) 0.77178(17)
O2 O 0.85032(18) 0.8029(2) 0.68586(16)
O3 O 0.8868(2) 1.2031(2) 1.2086(2)
O4 O 0.46548(17) 0.78331(17) 0.62573(16)
O5 O 0.58261(19) 0.75066(19) 0.51225(18)
O6 O 0.28294(17) 0.9032(2) 0.64397(18)
O7 O 0.33718(18) 0.4058(2) 0.70339(16)
O8 O 0.5167(2) 0.5774(2) 0.76598(18)
O9 O 0.28449(19) 0.1816(2) 0.74390(18)
O10 O 0.62906(15) 0.52957(16) 0.51999(14)
H19 H 0.671(2) 0.506(3) 0.551(2)
O11 O 0.8862(2) 0.6088(2) 0.4494(2)
H20 H 0.8551 0.5270 0.4031
H21 H 0.9412 0.6454 0.4277
O12 O 0.8566(2) 0.8741(2) 0.4864(2)
H22 H 0.8340 0.8796 0.4262
H23 H 0.9286 0.8813 0.4892
C1A C 1.1883(2) 1.1641(2) 1.2270(2)
C2A C 1.0920(2) 1.0822(2) 1.1079(2)
C3A C 1.1020(2) 0.9782(2) 1.0193(2)
H1A H 1.1706 0.9639 1.0319
C4A C 1.0098(2) 0.8948(2) 0.9115(2)
C5A C 1.0223(2) 0.7791(3) 0.8217(2)
C6A C 0.9263(2) 0.6446(3) 0.7787(2)
C7A C 0.8518(3) 0.6201(3) 0.8444(3)
H2A H 0.8598 0.6887 0.9159
C8A C 0.7656(3) 0.4943(4) 0.8044(4)
H3A H 0.7164 0.4782 0.8493
C9A C 0.7524(3) 0.3928(3) 0.6983(4)
H4A H 0.6940 0.3082 0.6714
C10A C 0.8252(3) 0.4160(3) 0.6318(3)
H5A H 0.8153 0.3469 0.5597
C11A C 0.9132(3) 0.5412(3) 0.6714(3)
H6A H 0.9631 0.5563 0.6267
O1A O 1.29576(16) 1.1898(2) 1.22822(17)
O2A O 1.14968(18) 1.1971(2) 1.31414(16)
O3A O 1.1132(2) 0.7969(2) 0.7914(2)
C12A C 0.4787(2) 1.1927(2) 0.4420(2)
C13A C 0.4895(2) 1.0913(2) 0.4697(2)
C14A C 0.5488(2) 1.0157(2) 0.4140(2)
C15A C 0.5585(2) 0.9258(2) 0.4450(2)
H7A H 0.5980 0.8759 0.4082
C16A C 0.6078(2) 1.0295(2) 0.3234(2)
C17A C 0.5347(3) 0.9506(3) 0.1976(2)
C18A C 0.4093(3) 0.8793(3) 0.1616(3)
H8A H 0.3688 0.8826 0.2173
C19A C 0.3442(4) 0.8028(4) 0.0416(3)
H9A H 0.2601 0.7552 0.0167
C20A C 0.4053(5) 0.7981(4) -0.0398(3)
H10A H 0.3621 0.7462 -0.1199
C21A C 0.5279(4) 0.8684(4) -0.0049(3)
H11A H 0.5677 0.8647 -0.0610
C22A C 0.5937(3) 0.9451(3) 0.1135(3)
H12A H 0.6776 0.9932 0.1369
O4A O 0.53452(17) 1.21669(17) 0.37427(16)
O5A O 0.41739(19) 1.24934(19) 0.48775(18)
O6A O 0.71706(17) 1.0968(2) 0.35603(18)
C23A C 0.5617(3) 0.5084(3) 1.2237(2)
C24A C 0.5303(2) 0.5054(3) 1.1081(2)
C25A C 0.6057(2) 0.6038(2) 1.0907(2)
C26A C 0.5749(2) 0.5964(3) 0.9818(2)
H13A H 0.6258 0.6609 0.9694
C27A C 0.7200(2) 0.7204(3) 1.1841(2)
C28A C 0.8389(3) 0.7164(3) 1.1776(2)
C29A C 0.9419(3) 0.8333(4) 1.2177(3)
H14A H 0.9357 0.9123 1.2473
C30A C 1.0527(3) 0.8320(5) 1.2136(4)
H15A H 1.1209 0.9096 1.2380
C31A C 1.0620(4) 0.7153(5) 1.1732(4)
H16A H 1.1374 0.7150 1.1721
C32A C 0.9626(4) 0.5999(5) 1.1345(4)
H17A H 0.9705 0.5219 1.1080
C33A C 0.8491(3) 0.5996(3) 1.1350(3)
H18A H 0.7806 0.5210 1.1068
O7A O 0.66282(18) 0.5942(2) 1.29661(16)
O8A O 0.4833(2) 0.4226(2) 1.23402(18)
O9A O 0.71551(19) 0.8184(2) 1.25610(18)
Cd1A Cd 0.466034(14) 0.364558(15) 0.366585(13)
Cd2A Cd 0.255681(15) 0.310670(16) 0.507147(14)
O10A O 0.37094(15) 0.47043(16) 0.48001(14)
H19A H 0.329(2) 0.494(3) 0.449(2)
O11A O 0.1138(2) 0.3912(2) 0.5506(2)
H20A H 0.1449 0.4730 0.5969
H21A H 0.0588 0.3546 0.5723
O12A O 0.1434(2) 0.1259(2) 0.5136(2)
H22A H 0.1660 0.1204 0.5738
H23A H 0.0714 0.1187 0.5108
Cd1A_2 Cd 0.466034(14) 0.364558(15) 1.366585(13)
Cd1A_3 Cd 0.466034(14) 1.364558(15) 0.366585(13)
Cd1A_4 Cd 1.466034(14) 1.364558(15) 1.366585(13)
Cd2_2 Cd 0.744319(15) 0.689330(16) 1.492853(14)
Cd2A_2 Cd 0.255681(15) 1.310670(16) 0.507147(14)
Cd2A_3 Cd 1.255681(15) 1.310670(16) 1.507147(14)
O1A_2 O 0.29576(16) 0.1898(2) 0.22822(17)
O2A_2 O 0.14968(18) 0.1971(2) 0.31414(16)
O4A_2 O 0.53452(17) 0.21669(17) 0.37427(16)
O5A_2 O 0.41739(19) 0.24934(19) 0.48775(18)
O7A_2 O 0.66282(18) 0.5942(2) 0.29661(16)
O8A_2 O 0.4833(2) 0.4226(2) 0.23402(18)
O13 O 0.7670(2) 0.3447(2) 0.3350(2)
H24 H 0.7961 0.2936 0.2957
H25 H 0.7016 0.2995 0.3413
O15 O 0.0762(4) 0.8411(5) 0.4741(5)
O14? O 0.0568(8) 0.8727(11) 0.5760(13)
loop_
_geom_bond_atom_site_label_1
_geom_bond_atom_site_label_2
_geom_bond_site_symmetry_1
_geom_bond_site_symmetry_2
Cd1 O1 1_555 1_555
Cd2 O2 1_555 1_555
C1 C2 1_555 1_555
C2 C3 1_555 1_555
C3 H1 1_555 1_555
C4 C3 1_555 1_555
C5 C4 1_555 1_555
C6 C5 1_555 1_555
C7 C6 1_555 1_555
H2 C7 1_555 1_555
C8 C7 1_555 1_555
H3 C8 1_555 1_555
C9 C8 1_555 1_555
H4 C9 1_555 1_555
C10 C9 1_555 1_555
H5 C10 1_555 1_555
C11 C6 1_555 1_555
H6 C11 1_555 1_555
C12 C13 1_555 1_555
C13 C14 1_555 1_555
C14 C15 1_555 1_555
C15 H7 1_555 1_555
C16 C14 1_555 1_555
C17 C16 1_555 1_555
C18 C17 1_555 1_555
H8 C18 1_555 1_555
C19 C18 1_555 1_555
H9 C19 1_555 1_555
C20 C19 1_555 1_555
H10 C20 1_555 1_555
C21 C20 1_555 1_555
H11 C21 1_555 1_555
C22 C17 1_555 1_555
H12 C22 1_555 1_555
C23 C24 1_555 1_555
C24 C25 1_555 1_555
C25 C26 1_555 1_555
C26 H13 1_555 1_555
C27 C25 1_555 1_555
C28 C27 1_555 1_555
C29 C28 1_555 1_555
H14 C29 1_555 1_555
C30 C29 1_555 1_555
H15 C30 1_555 1_555
C31 C30 1_555 1_555
H16 C31 1_555 1_555
C32 C31 1_555 1_555
H17 C32 1_555 1_555
C33 C28 1_555 1_555
H18 C33 1_555 1_555
O1 C1 1_555 1_555
O2 C1 1_555 1_555
O3 C5 1_555 1_555
O4 Cd1 1_555 1_555
O5 Cd1 1_555 1_555
O6 C16 1_555 1_555
O7 C23 1_555 1_555
O8 Cd1 1_555 1_555
O9 C27 1_555 1_555
O10 Cd1 1_555 1_555
H19 O10 1_555 1_555
O11 Cd2 1_555 1_555
H20 O11 1_555 1_555
H21 O11 1_555 1_555
O12 Cd2 1_555 1_555
H22 O12 1_555 1_555
H23 O12 1_555 1_555
O13 H24 1_555 1_555
H25 O13 1_555 1_555
C1A C2A 1_555 1_555
C2A C4 1_555 1_555
C3A C2A 1_555 1_555
H1A C3A 1_555 1_555
C4A C2 1_555 1_555
C5A C4A 1_555 1_555
C6A C5A 1_555 1_555
C7A C6A 1_555 1_555
H2A C7A 1_555 1_555
C8A C7A 1_555 1_555
H3A C8A 1_555 1_555
C9A C8A 1_555 1_555
H4A C9A 1_555 1_555
C10A C9A 1_555 1_555
H5A C10A 1_555 1_555
C11A C6A 1_555 1_555
H6A C11A 1_555 1_555
O1A C1A 1_555 1_555
O2A C1A 1_555 1_555
O3A C5A 1_555 1_555
C12A C13A 1_555 1_555
C13A C15 1_555 1_555
C14A C13A 1_555 1_555
C15A C13 1_555 1_555
H7A C15A 1_555 1_555
C16A C14A 1_555 1_555
C17A C16A 1_555 1_555
C18A C17A 1_555 1_555
H8A C18A 1_555 1_555
C19A C18A 1_555 1_555
H9A C19A 1_555 1_555
C20A C19A 1_555 1_555
H10A C20A 1_555 1_555
C21A C20A 1_555 1_555
H11A C21A 1_555 1_555
C22A C17A 1_555 1_555
H12A C22A 1_555 1_555
O4A C12A 1_555 1_555
O5A C12A 1_555 1_555
O6A C16A 1_555 1_555
C23A C24A 1_555 1_555
C24A C26 1_555 1_555
C25A C24A 1_555 1_555
C26A C24 1_555 1_555
H13A C26A 1_555 1_555
C27A C25A 1_555 1_555
C28A C27A 1_555 1_555
C29A C28A 1_555 1_555
H14A C29A 1_555 1_555
C30A C29A 1_555 1_555
H15A C30A 1_555 1_555
C31A C30A 1_555 1_555
H16A C31A 1_555 1_555
C32A C31A 1_555 1_555
H17A C32A 1_555 1_555
C33A C28A 1_555 1_555
H18A C33A 1_555 1_555
O7A C23A 1_555 1_555
O8A C23A 1_555 1_555
O9A C27A 1_555 1_555
Cd1A O10 1_555 1_555
Cd2A O7 1_555 1_555
O10A Cd1 1_555 1_555
H19A O10A 1_555 1_555
O11A Cd2A 1_555 1_555
H20A O11A 1_555 1_555
H21A O11A 1_555 1_555
O12A Cd2A 1_555 1_555
H22A O12A 1_555 1_555
H23A O12A 1_555 1_555
Cd1A_2 O8A 1_555 1_555
Cd1A_3 O4A 1_555 1_555
Cd1A_4 O1A 1_555 1_555
Cd2_2 O7A 1_555 1_555
Cd2A_2 O5A 1_555 1_555
Cd2A_3 O2A 1_555 1_555
O1A_2 Cd1A 1_555 1_555
O2A_2 Cd2A 1_555 1_555
O4A_2 Cd1A 1_555 1_555
O5A_2 Cd1A 1_555 1_555
O7A_2 Cd2 1_555 1_555
O8A_2 Cd1A 1_555 1_555
Cd2 O5 1_555 1_555
Cd2 O10 1_555 1_555
C10 C11 1_555 1_555
C12 O4 1_555 1_555
C12 O5 1_555 1_555
C21 C22 1_555 1_555
C23 O8 1_555 1_555
C32 C33 1_555 1_555
C3A C4A 1_555 1_555
C10A C11A 1_555 1_555
C14A C15A 1_555 1_555
C21A C22A 1_555 1_555
O5A Cd1A_3 1_555 1_555
C25A C26A 1_555 1_555
C32A C33A 1_555 1_555
Cd1A O10A 1_555 1_555
Cd2A O10A 1_555 1_555
Cd2A O5A_2 1_555 1_555

#END
