
#######################################################################
#
#                 Cambridge Crystallographic Data Centre
#                                CCDC 
#
#######################################################################
#
# If this CIF has been generated from an entry in the Cambridge 
# Structural Database, then it will include bibliographic, chemical, 
# crystal, experimental, refinement or atomic coordinate data resulting 
# from the CCDC's data processing and validation procedures.
#
#######################################################################

data_TOBVUD
_symmetry_cell_setting           monoclinic
_symmetry_space_group_name_H-M   'P 21/c'
_symmetry_Int_Tables_number      14
_space_group_name_Hall           '-P 2ybc'
loop_
_symmetry_equiv_pos_site_id
_symmetry_equiv_pos_as_xyz
1 x,y,z
2 -x,1/2+y,1/2-z
3 -x,-y,-z
4 x,1/2-y,1/2+z
_cell_length_a                   10.893(2)
_cell_length_b                   7.3641(15)
_cell_length_c                   19.921(4)
_cell_angle_alpha                90
_cell_angle_beta                 92.16(3)
_cell_angle_gamma                90
_cell_volume                     1596.87
loop_
_atom_site_label
_atom_site_type_symbol
_atom_site_fract_x
_atom_site_fract_y
_atom_site_fract_z
Cu1 Cu 0.185891(16) 0.54227(3) 0.143877(8)
N1 N 0.33556(14) 0.44166(19) 0.09985(8)
N2 N 0.30720(13) 0.7345(2) 0.17034(7)
N3 N 0.07355(12) 0.33307(19) 0.11998(6)
C1 C 0.3407(2) 0.2864(3) 0.06508(10)
H1 H 0.2689 0.2203 0.0568
C2 C 0.4494(2) 0.2222(3) 0.04127(12)
H2 H 0.4503 0.1159 0.0160
C3 C 0.5559(2) 0.3150(4) 0.05486(12)
H3 H 0.6301 0.2712 0.0399
C4 C 0.55225(19) 0.4750(3) 0.09107(12)
H4 H 0.6239 0.5398 0.1010
C5 C 0.43951(16) 0.5374(2) 0.11240(9)
C6 C 0.42197(16) 0.7091(3) 0.14911(8)
C7 C 0.51259(19) 0.8387(3) 0.16095(11)
H5 H 0.5917 0.8200 0.1464
C8 C 0.4840(2) 0.9947(4) 0.19441(12)
H6 H 0.5443 1.0817 0.2034
C9 C 0.3663(3) 1.0226(3) 0.21470(12)
H7 H 0.3453 1.1293 0.2364
C10 C 0.27941(19) 0.8875(3) 0.20193(10)
H8 H 0.1997 0.9045 0.2158
C11 C 0.02412(15) 0.2394(2) 0.16987(8)
H9 H 0.0583 0.2521 0.2131
C12 C -0.07552(15) 0.1245(2) 0.15999(8)
C13 C -0.13179(15) 0.0400(2) 0.22053(8)
C14 C -0.12519(15) 0.1037(2) 0.09529(8)
H10 H -0.1919 0.0270 0.0871
C15 C -0.07437(14) 0.1985(2) 0.04290(7)
C16 C -0.13457(15) 0.1940(2) -0.02748(8)
C17 C 0.02497(15) 0.3100(2) 0.05734(7)
H11 H 0.0600 0.3722 0.0222
O1 O -0.08980(11) 0.10044(17) 0.27671(5)
O2 O -0.21343(12) -0.07584(19) 0.21306(6)
O3 O -0.08491(11) 0.29425(17) -0.07057(5)
O4 O -0.22800(13) 0.1007(2) -0.03567(6)
Cu1A Cu -0.185891(16) 0.04227(3) 0.356123(8)
Cu1B Cu -0.185891(16) 0.45773(3) -0.143877(8)
O1A O 0.08980(11) 0.60044(17) 0.22329(5)
O3B O 0.08491(11) 0.70575(17) 0.07057(5)
O5 O 0.16872(19) 0.3532(3) -0.11175(13)
H12 H 0.178(3) 0.309(5) -0.1514(18)
H13 H 0.110(3) 0.352(5) -0.1022(16)
loop_
_geom_bond_atom_site_label_1
_geom_bond_atom_site_label_2
_geom_bond_site_symmetry_1
_geom_bond_site_symmetry_2
Cu1 N1 1_555 1_555
N1 C1 1_555 1_555
N2 Cu1 1_555 1_555
N3 Cu1 1_555 1_555
C1 H1 1_555 1_555
C2 C1 1_555 1_555
H2 C2 1_555 1_555
C3 C2 1_555 1_555
H3 C3 1_555 1_555
C4 C3 1_555 1_555
H4 C4 1_555 1_555
C5 N1 1_555 1_555
C6 N2 1_555 1_555
C7 C6 1_555 1_555
H5 C7 1_555 1_555
C8 C7 1_555 1_555
H6 C8 1_555 1_555
C9 C8 1_555 1_555
H7 C9 1_555 1_555
C10 N2 1_555 1_555
H8 C10 1_555 1_555
C11 N3 1_555 1_555
H9 C11 1_555 1_555
C12 C11 1_555 1_555
C13 C12 1_555 1_555
C14 C12 1_555 1_555
H10 C14 1_555 1_555
C15 C14 1_555 1_555
C16 C15 1_555 1_555
C17 N3 1_555 1_555
H11 C17 1_555 1_555
O1 C13 1_555 1_555
O2 C13 1_555 1_555
O3 C16 1_555 1_555
O4 C16 1_555 1_555
O5 H12 1_555 1_555
H13 O5 1_555 1_555
Cu1A O1 1_555 1_555
Cu1B O3 1_555 1_555
O1A Cu1 1_555 1_555
O3B Cu1 1_555 1_555
C4 C5 1_555 1_555
C5 C6 1_555 1_555
C9 C10 1_555 1_555
C15 C17 1_555 1_555

#END
