
#######################################################################
#
#                 Cambridge Crystallographic Data Centre
#                                CCDC 
#
#######################################################################
#
# If this CIF has been generated from an entry in the Cambridge 
# Structural Database, then it will include bibliographic, chemical, 
# crystal, experimental, refinement or atomic coordinate data resulting 
# from the CCDC's data processing and validation procedures.
#
#######################################################################

data_TOBYEO
_symmetry_cell_setting           monoclinic
_symmetry_space_group_name_H-M   'C 2/c'
_symmetry_Int_Tables_number      15
_space_group_name_Hall           '-C 2yn'
loop_
_symmetry_equiv_pos_site_id
_symmetry_equiv_pos_as_xyz
1 x,y,z
2 -x,y,1/2-z
3 1/2+x,1/2+y,z
4 1/2-x,1/2+y,1/2-z
5 -x,-y,-z
6 x,-y,1/2+z
7 1/2-x,1/2-y,-z
8 1/2+x,1/2-y,1/2+z
_cell_length_a                   9.554(2)
_cell_length_b                   16.476(2)
_cell_length_c                   16.137(2)
_cell_angle_alpha                90
_cell_angle_beta                 96.97(2)
_cell_angle_gamma                90
_cell_volume                     2521.38
loop_
_atom_site_label
_atom_site_type_symbol
_atom_site_fract_x
_atom_site_fract_y
_atom_site_fract_z
Mn1 Mn 0.0000 -0.45321(4) 0.7500
F1 F -0.1217(3) -0.1824(1) 0.8266(2)
F2 F -0.3422(2) -0.1989(1) 0.8182(1)
F3 F -0.2094(3) -0.2511(1) 0.9188(1)
F4 F -0.5140(2) -0.3602(2) 0.5931(2)
F5 F -0.3895(2) -0.4453(2) 0.5404(1)
F6 F -0.4991(2) -0.4791(2) 0.6405(1)
O1 O -0.0929(2) -0.3514(1) 0.8133(1)
O2 O -0.2018(2) -0.4507(1) 0.6765(1)
N1 N -0.0693(3) -0.5418(1) 0.8438(1)
C1 C -0.2202(4) -0.2361(2) 0.8387(2)
C2 C -0.2020(3) -0.3132(2) 0.7881(2)
C3 C -0.3039(3) -0.3314(2) 0.7223(2)
C4 C -0.2987(3) -0.4001(2) 0.6740(2)
C5 C -0.4255(4) -0.4219(3) 0.6117(2)
C6 C 0.0128(4) -0.5659(2) 0.9119(2)
C7 C -0.0268(4) -0.6236(2) 0.9663(2)
C8 C -0.1564(3) -0.6612(2) 0.9509(2)
C9 C -0.2428(4) -0.6346(2) 0.8821(2)
C10 C -0.1971(4) -0.5762(2) 0.8303(2)
C11 C -0.1952(3) -0.7262(2) 1.0069(2)
O1A O 0.0929(2) -0.3514(1) 0.6867(1)
C2A C 0.2020(3) -0.3132(2) 0.7119(2)
C1A C 0.2202(4) -0.2361(2) 0.6613(2)
F1A F 0.1217(3) -0.1824(1) 0.6734(2)
F2A F 0.3422(2) -0.1989(1) 0.6818(1)
F3A F 0.2094(3) -0.2511(1) 0.5812(1)
C3A C 0.3039(3) -0.3314(2) 0.7777(2)
C4A C 0.2987(3) -0.4001(2) 0.8260(2)
O2A O 0.2018(2) -0.4507(1) 0.8235(1)
C11F C -0.3048(3) -0.7738(2) 0.9931(2)
C8F C -0.3436(3) -0.8388(2) 1.0491(2)
C7F C -0.4732(4) -0.8764(2) 1.0337(2)
C6F C -0.5128(4) -0.9341(2) 1.0881(2)
N1F N -0.4307(3) -0.9582(1) 1.1562(1)
Mn1F Mn -0.5000 -1.04679(4) 1.2500
C10F C -0.3029(4) -0.9238(2) 1.1697(2)
C9F C -0.2572(4) -0.8654(2) 1.1179(2)
N1A N 0.0693(3) -0.5418(1) 0.6562(1)
C5A C 0.4255(4) -0.4219(3) 0.8883(2)
F4A F 0.5140(2) -0.3602(2) 0.9069(2)
F5A F 0.3895(2) -0.4453(2) 0.9596(1)
F6A F 0.4991(2) -0.4791(2) 0.8595(1)
loop_
_geom_bond_atom_site_label_1
_geom_bond_atom_site_label_2
_geom_bond_site_symmetry_1
_geom_bond_site_symmetry_2
Mn1 O1 1_555 1_555
F1 C1 1_555 1_555
F2 C1 1_555 1_555
F3 C1 1_555 1_555
F4 C5 1_555 1_555
F5 C5 1_555 1_555
F6 C5 1_555 1_555
O1 C2 1_555 1_555
O2 Mn1 1_555 1_555
N1 Mn1 1_555 1_555
C1 C2 1_555 1_555
C2 C3 1_555 1_555
C3 C4 1_555 1_555
C4 O2 1_555 1_555
C5 C4 1_555 1_555
C6 N1 1_555 1_555
C7 C6 1_555 1_555
C8 C7 1_555 1_555
C9 C8 1_555 1_555
C10 N1 1_555 1_555
C11 C8 1_555 1_555
O1A Mn1 1_555 1_555
C2A O1A 1_555 1_555
C1A C2A 1_555 1_555
F1A C1A 1_555 1_555
F2A C1A 1_555 1_555
F3A C1A 1_555 1_555
C3A C2A 1_555 1_555
C4A C3A 1_555 1_555
O2A Mn1 1_555 1_555
C11F C11 1_555 1_555
C8F C11F 1_555 1_555
C7F C8F 1_555 1_555
C6F C7F 1_555 1_555
N1F C6F 1_555 1_555
Mn1F N1F 1_555 1_555
C10F N1F 1_555 1_555
C9F C8F 1_555 1_555
N1A Mn1 1_555 1_555
C5A C4A 1_555 1_555
F4A C5A 1_555 1_555
F5A C5A 1_555 1_555
F6A C5A 1_555 1_555
C9 C10 1_555 1_555
C4A O2A 1_555 1_555
C10F C9F 1_555 1_555

#END
