
#######################################################################
#
#                 Cambridge Crystallographic Data Centre
#                                CCDC 
#
#######################################################################
#
# If this CIF has been generated from an entry in the Cambridge 
# Structural Database, then it will include bibliographic, chemical, 
# crystal, experimental, refinement or atomic coordinate data resulting 
# from the CCDC's data processing and validation procedures.
#
#######################################################################

data_TOCFOG
_symmetry_cell_setting           triclinic
_symmetry_space_group_name_H-M   'P -1'
_symmetry_Int_Tables_number      2
_space_group_name_Hall           '-P 1'
loop_
_symmetry_equiv_pos_site_id
_symmetry_equiv_pos_as_xyz
1 x,y,z
2 -x,-y,-z
_cell_length_a                   8.2260(10)
_cell_length_b                   8.6740(10)
_cell_length_c                   12.973(2)
_cell_angle_alpha                87.020(10)
_cell_angle_beta                 75.130(10)
_cell_angle_gamma                70.600(10)
_cell_volume                     843.296
loop_
_atom_site_label
_atom_site_type_symbol
_atom_site_fract_x
_atom_site_fract_y
_atom_site_fract_z
Ag1 Ag 0.79004(2) 0.39694(2) 0.376961(14)
S1 S 1.03347(10) 0.14036(9) 0.20324(6)
S2 S 0.77376(8) 0.60377(8) 0.63397(5)
F1 F 0.5872(2) 0.4989(2) 0.79999(15)
F2 F 0.6387(3) 0.7183(3) 0.83270(15)
F3 F 0.4434(2) 0.7319(3) 0.7479(2)
O1 O 0.7135(3) 0.5119(3) 0.5715(2)
O2 O 1.0666(3) 0.4874(3) 0.3346(2)
O3 O 0.7645(3) 0.7653(2) 0.5988(2)
N1 N 0.7040(3) 0.6037(3) 0.2724(2)
N2 N 0.8053(3) 0.1545(3) 0.4415(2)
N3 N 1.1416(3) 0.0184(3) 0.0956(2)
C1 C 0.7897(4) 0.5849(3) 0.1673(2)
H1 H 0.8789(4) 0.4860(3) 0.1429(2)
C2 C 0.7515(4) 0.7043(4) 0.0950(2)
H2 H 0.8122(4) 0.6860(4) 0.0233(2)
C3 C 0.6220(4) 0.8511(4) 0.1309(2)
H3 H 0.5944(4) 0.9349(4) 0.0841(2)
C4 C 0.5334(4) 0.8724(4) 0.2375(2)
H4 H 0.4449(4) 0.9711(4) 0.2631(2)
C5 C 0.5764(3) 0.7465(3) 0.3067(2)
C6 C 0.4823(3) 0.7653(3) 0.4233(2)
H5 H 0.5293(3) 0.8302(3) 0.4588(2)
H6 H 0.5073(3) 0.6582(3) 0.4540(2)
C7 C 0.7185(3) 0.1537(3) 0.5556(2)
H7 H 0.7452(3) 0.0418(3) 0.5786(2)
H8 H 0.7651(3) 0.2116(3) 0.5965(2)
C8 C 0.8746(3) 0.0161(3) 0.3912(2)
H9 H 0.8621(3) -0.0756(3) 0.4284(2)
C9 C 0.9718(3) -0.0071(3) 0.2796(2)
C10 C 1.0396(4) -0.1497(3) 0.2190(2)
H10 H 1.0254(4) -0.2483(3) 0.2435(2)
C11 C 1.1333(4) -0.1285(4) 0.1154(2)
C12 C 1.2252(5) -0.2606(4) 0.0286(3)
H11 H 1.3516(6) -0.2955(33) 0.0205(21)
H12 H 1.1835(37) -0.3519(19) 0.0475(14)
H13 H 1.1991(41) -0.2187(14) -0.0374(7)
C13 C 0.6016(4) 0.6401(4) 0.7604(2)
O2A O 0.9334(3) 0.5126(3) 0.6654(2)
Ag1A Ag 1.20996(2) 0.60306(2) 0.623039(14)
O1A O 1.2865(3) 0.4881(3) 0.4285(2)
S2A S 1.22624(8) 0.39623(8) 0.36603(5)
C7A C 0.2815(3) 0.8463(3) 0.4444(2)
N2A N 0.1947(3) 0.8455(3) 0.5585(2)
Ag1A_2 Ag 0.20996(2) 0.60306(2) 0.623039(14)
O1A_2 O 0.2865(3) 0.4881(3) 0.4285(2)
O2A_2 O -0.0666(3) 0.5126(3) 0.6654(2)
N1A N 0.2960(3) 0.3963(3) 0.7276(2)
C1A C 0.2103(4) 0.4151(3) 0.8327(2)
H1A H 0.1211(4) 0.5140(3) 0.8571(2)
C2A C 0.2485(4) 0.2957(4) 0.9050(2)
H2A H 0.1878(4) 0.3140(4) 0.9767(2)
C3A C 0.3780(4) 0.1489(4) 0.8691(2)
H3A H 0.4056(4) 0.0651(4) 0.9159(2)
C4A C 0.4666(4) 0.1276(4) 0.7625(2)
H4A H 0.5551(4) 0.0289(4) 0.7369(2)
C5A C 0.4236(3) 0.2535(3) 0.6933(2)
C6A C 0.5177(3) 0.2347(3) 0.5767(2)
H5A H 0.4707(3) 0.1698(3) 0.5412(2)
H6A H 0.4927(3) 0.3418(3) 0.5460(2)
C8A C 0.1254(3) 0.9839(3) 0.6088(2)
H9A H 0.1379(3) 1.0756(3) 0.5716(2)
C9A C 0.0282(3) 1.0071(3) 0.7204(2)
S1A S -0.03347(10) 0.85964(9) 0.79676(6)
N3A N -0.1416(3) 0.9816(3) 0.9044(2)
C11A C -0.1333(4) 1.1285(4) 0.8846(2)
C10A C -0.0396(4) 1.1497(3) 0.7810(2)
H10A H -0.0254(4) 1.2483(3) 0.7565(2)
C12A C -0.2252(5) 1.2606(4) 0.9714(3)
H11A H -0.3516(6) 1.2955(33) 0.9795(21)
H12A H -0.1835(37) 1.3519(19) 0.9525(14)
H13A H -0.1991(41) 1.2187(14) 1.0374(7)
H7A H 0.2548(3) 0.9582(3) 0.4214(2)
H8A H 0.2349(3) 0.7884(3) 0.4035(2)
O3A O 1.2355(3) 0.2347(2) 0.4012(2)
C13A C 1.3984(4) 0.3599(4) 0.2396(2)
F1A F 1.4128(2) 0.5011(2) 0.20001(15)
F2A F 1.3613(3) 0.2817(3) 0.16730(15)
F3A F 1.5566(2) 0.2681(3) 0.2521(2)
loop_
_geom_bond_atom_site_label_1
_geom_bond_atom_site_label_2
_geom_bond_site_symmetry_1
_geom_bond_site_symmetry_2
Ag1 O1 1_555 1_555
S1 N3 1_555 1_555
S2 O1 1_555 1_555
F1 C13 1_555 1_555
F2 C13 1_555 1_555
F3 C13 1_555 1_555
O2 Ag1 1_555 1_555
O3 S2 1_555 1_555
N1 Ag1 1_555 1_555
N2 Ag1 1_555 1_555
N3 C11 1_555 1_555
C1 N1 1_555 1_555
H1 C1 1_555 1_555
C2 C1 1_555 1_555
H2 C2 1_555 1_555
C3 C2 1_555 1_555
H3 C3 1_555 1_555
C4 C3 1_555 1_555
H4 C4 1_555 1_555
C5 N1 1_555 1_555
C6 C5 1_555 1_555
H5 C6 1_555 1_555
H6 C6 1_555 1_555
C7 N2 1_555 1_555
H7 C7 1_555 1_555
H8 C7 1_555 1_555
C8 N2 1_555 1_555
H9 C8 1_555 1_555
C9 S1 1_555 1_555
C10 C9 1_555 1_555
H10 C10 1_555 1_555
C11 C10 1_555 1_555
C12 C11 1_555 1_555
H11 C12 1_555 1_555
H12 C12 1_555 1_555
H13 C12 1_555 1_555
C13 S2 1_555 1_555
O2A S2 1_555 1_555
Ag1A O2A 1_555 1_555
O1A Ag1A 1_555 1_555
S2A O2 1_555 1_555
C7A C6 1_555 1_555
N2A C7A 1_555 1_555
Ag1A_2 N2A 1_555 1_555
O1A_2 Ag1A_2 1_555 1_555
O2A_2 Ag1A_2 1_555 1_555
N1A Ag1A_2 1_555 1_555
C1A N1A 1_555 1_555
H1A C1A 1_555 1_555
C2A C1A 1_555 1_555
H2A C2A 1_555 1_555
C3A C2A 1_555 1_555
H3A C3A 1_555 1_555
C4A C3A 1_555 1_555
H4A C4A 1_555 1_555
C5A N1A 1_555 1_555
C6A C7 1_555 1_555
H5A C6A 1_555 1_555
H6A C6A 1_555 1_555
C8A N2A 1_555 1_555
H9A C8A 1_555 1_555
C9A C8A 1_555 1_555
S1A C9A 1_555 1_555
N3A S1A 1_555 1_555
C11A N3A 1_555 1_555
C10A C9A 1_555 1_555
H10A C10A 1_555 1_555
C12A C11A 1_555 1_555
H11A C12A 1_555 1_555
H12A C12A 1_555 1_555
H13A C12A 1_555 1_555
H7A C7A 1_555 1_555
H8A C7A 1_555 1_555
O3A S2A 1_555 1_555
C13A S2A 1_555 1_555
F1A C13A 1_555 1_555
F2A C13A 1_555 1_555
F3A C13A 1_555 1_555
C4 C5 1_555 1_555
C8 C9 1_555 1_555
O1A S2A 1_555 1_555
C4A C5A 1_555 1_555
C5A C6A 1_555 1_555
C11A C10A 1_555 1_555

#END
