
#######################################################################
#
#                 Cambridge Crystallographic Data Centre
#                                CCDC 
#
#######################################################################
#
# If this CIF has been generated from an entry in the Cambridge 
# Structural Database, then it will include bibliographic, chemical, 
# crystal, experimental, refinement or atomic coordinate data resulting 
# from the CCDC's data processing and validation procedures.
#
#######################################################################

data_TOCGID
_symmetry_cell_setting           orthorhombic
_symmetry_space_group_name_H-M   'P c c n'
_symmetry_Int_Tables_number      56
_space_group_name_Hall           '-P 2ab 2ac'
loop_
_symmetry_equiv_pos_site_id
_symmetry_equiv_pos_as_xyz
1 x,y,z
2 1/2-x,1/2-y,z
3 -x,1/2+y,1/2-z
4 1/2+x,-y,1/2-z
5 -x,-y,-z
6 1/2+x,1/2+y,-z
7 x,1/2-y,1/2+z
8 1/2-x,y,1/2+z
_cell_length_a                   30.971(3)
_cell_length_b                   12.8472(6)
_cell_length_c                   13.087(1)
_cell_angle_alpha                90
_cell_angle_beta                 90
_cell_angle_gamma                90
_cell_volume                     5207.19
loop_
_atom_site_label
_atom_site_type_symbol
_atom_site_fract_x
_atom_site_fract_y
_atom_site_fract_z
C1 C -0.321(17) 0.33(3) 1.18(4)
C2 C -0.350(17) 0.33(3) 1.10(5)
C3 C -0.364(8) 0.24(6) 1.056(19)
C4 C -0.349(17) 0.14(3) 1.10(4)
C5 C -0.319(17) 0.15(3) 1.18(4)
C6 C -0.383(7) 0.25(5) 0.95(2)
C7 C -0.403(13) 0.36(4) 0.83(4)
C8 C -0.409(14) 0.17(4) 0.83(4)
C9 C -0.410(16) 0.45(4) 0.78(4)
C10 C -0.385(10) 0.53(4) 0.80(3)
C11 C -0.389(12) 0.62(3) 0.75(4)
C12 C -0.440(11) 0.55(4) 0.67(3)
C13 C -0.434(14) 0.46(4) 0.71(4)
C14 C -0.425(12) 0.07(3) 0.78(3)
C15 C -0.410(10) -0.03(4) 0.81(3)
C16 C -0.416(14) -0.12(4) 0.75(3)
C17 C -0.449(10) -0.03(3) 0.64(3)
C18 C -0.442(11) 0.07(3) 0.69(3)
I1 I -0.250000 0.4242(17) 1.4251(18)
I2 I -0.3525(4) -0.262(3) 0.5083(10)
I3 I -0.4917(5) -0.257(3) 0.4722(9)
N1 N -0.304(5) 0.24(4) 1.222(12)
N2 N -0.386(11) 0.35(3) 0.90(3)
N3 N -0.418(5) 0.27(3) 0.776(13)
N4 N -0.393(12) 0.16(3) 0.91(3)
N5 N -0.436(9) -0.119(19) 0.68(3)
N6 N -0.416(11) 0.63(3) 0.69(3)
Zn1 Zn -0.250000 0.250000 1.345(6)
Zn2 Zn -0.4287(9) -0.244(5) 0.5969(16)
C1A C -0.179(17) 0.17(3) 1.18(4)
C2A C -0.150(17) 0.17(3) 1.10(5)
C3A C -0.136(8) 0.26(6) 1.056(19)
C4A C -0.151(17) 0.36(3) 1.10(4)
C5A C -0.181(17) 0.35(3) 1.18(4)
C6A C -0.117(7) 0.25(5) 0.95(2)
C7A C -0.097(13) 0.14(4) 0.83(4)
C8A C -0.091(14) 0.33(4) 0.83(4)
C9A C -0.090(16) 0.05(4) 0.78(4)
C10A C -0.115(10) -0.03(4) 0.80(3)
C11A C -0.111(12) -0.12(3) 0.75(4)
C12A C -0.060(11) -0.05(4) 0.67(3)
C13A C -0.066(14) 0.04(4) 0.71(4)
C14A C -0.075(12) 0.43(3) 0.78(3)
C15A C -0.090(10) 0.53(4) 0.81(3)
C16A C -0.084(14) 0.62(4) 0.75(3)
C17A C -0.051(10) 0.53(3) 0.64(3)
C18A C -0.058(11) 0.43(3) 0.69(3)
I1A I -0.250000 0.0758(17) 1.4251(18)
I2A I -0.1475(4) 0.762(3) 0.5083(10)
I3A I -0.0083(5) 0.757(3) 0.4722(9)
N1A N -0.196(5) 0.26(4) 1.222(12)
N2A N -0.114(11) 0.15(3) 0.90(3)
N3A N -0.082(5) 0.23(3) 0.776(13)
N4A N -0.107(12) 0.34(3) 0.91(3)
N5A N -0.064(9) 0.619(19) 0.68(3)
N6A N -0.084(11) -0.13(3) 0.69(3)
Zn2A Zn -0.0713(9) 0.744(5) 0.5969(16)
N6_2 N -0.416(11) -0.37(3) 0.69(3)
N6A_2 N -0.084(11) 0.87(3) 0.69(3)
Zn2_2 Zn -0.4287(9) 0.756(5) 0.5969(16)
Zn2A_2 Zn -0.0713(9) -0.256(5) 0.5969(16)
S1 S 0.240(6) -0.674(8) 0.165(7)
S2 S 0.258(7) -0.604(8) 0.294(8)
S3 S 0.236(5) -0.682(8) 0.408(6)
S1A S 0.260(6) -0.826(8) 0.165(7)
S2A S 0.242(7) -0.896(8) 0.294(8)
S3A S 0.264(5) -0.818(8) 0.408(6)
loop_
_geom_bond_atom_site_label_1
_geom_bond_atom_site_label_2
_geom_bond_site_symmetry_1
_geom_bond_site_symmetry_2
C1 C2 1_555 1_555
C2 C3 1_555 1_555
C3 C4 1_555 1_555
C4 C5 1_555 1_555
C5 N1 1_555 1_555
C6 C3 1_555 1_555
C7 C9 1_555 1_555
C8 C14 1_555 1_555
C9 C10 1_555 1_555
C10 C11 1_555 1_555
C11 N6 1_555 1_555
C12 C13 1_555 1_555
C13 C9 1_555 1_555
C14 C15 1_555 1_555
C15 C16 1_555 1_555
C16 N5 1_555 1_555
C17 C18 1_555 1_555
C18 C14 1_555 1_555
I1 Zn1 1_555 1_555
I2 Zn2 1_555 1_555
I3 Zn2 1_555 1_555
N1 C1 1_555 1_555
N2 C6 1_555 1_555
N3 C7 1_555 1_555
N4 C6 1_555 1_555
N5 C17 1_555 1_555
N6 C12 1_555 1_555
Zn1 N1 1_555 1_555
Zn2 N5 1_555 1_555
S1 S2 1_555 1_555
S2 S3 1_555 1_555
S3 S3A 1_555 1_555
C1A C2A 1_555 1_555
C2A C3A 1_555 1_555
C3A C4A 1_555 1_555
C4A C5A 1_555 1_555
C5A N1A 1_555 1_555
C6A C3A 1_555 1_555
C7A C9A 1_555 1_555
C8A C14A 1_555 1_555
C9A C10A 1_555 1_555
C10A C11A 1_555 1_555
C11A N6A 1_555 1_555
C12A C13A 1_555 1_555
C13A C9A 1_555 1_555
C14A C15A 1_555 1_555
C15A C16A 1_555 1_555
C16A N5A 1_555 1_555
C17A C18A 1_555 1_555
C18A C14A 1_555 1_555
I1A Zn1 1_555 1_555
I2A Zn2A 1_555 1_555
I3A Zn2A 1_555 1_555
N1A Zn1 1_555 1_555
N2A C6A 1_555 1_555
N3A C7A 1_555 1_555
N4A C6A 1_555 1_555
N5A C17A 1_555 1_555
N6A C12A 1_555 1_555
Zn2A N5A 1_555 1_555
N6_2 Zn2 1_555 1_555
N6A_2 Zn2A 1_555 1_555
Zn2_2 N6 1_555 1_555
Zn2A_2 N6A 1_555 1_555
S1A S1 1_555 1_555
S2A S1A 1_555 1_555
S3A S2A 1_555 1_555
C7 N2 1_555 1_555
C8 N3 1_555 1_555
C8 N4 1_555 1_555
C1A N1A 1_555 1_555
C7A N2A 1_555 1_555
C8A N3A 1_555 1_555
C8A N4A 1_555 1_555

#END
