
#######################################################################
#
#                 Cambridge Crystallographic Data Centre
#                                CCDC 
#
#######################################################################
#
# If this CIF has been generated from an entry in the Cambridge 
# Structural Database, then it will include bibliographic, chemical, 
# crystal, experimental, refinement or atomic coordinate data resulting 
# from the CCDC's data processing and validation procedures.
#
#######################################################################

data_TOCJAY
_symmetry_cell_setting           cubic
_symmetry_space_group_name_H-M   'I a -3 d'
_symmetry_Int_Tables_number      230
_space_group_name_Hall           '-I 4bd 2c 3'
loop_
_symmetry_equiv_pos_site_id
_symmetry_equiv_pos_as_xyz
1 x,y,z
2 1/2-x,-y,1/2+z
3 -x,1/2+y,1/2-z
4 1/2+x,1/2-y,-z
5 z,x,y
6 1/2+z,1/2-x,-y
7 1/2-z,-x,1/2+y
8 -z,1/2+x,1/2-y
9 y,z,x
10 -y,1/2+z,1/2-x
11 1/2+y,1/2-z,-x
12 1/2-y,-z,1/2+x
13 3/4+y,1/4+x,1/4-z
14 3/4-y,3/4-x,3/4-z
15 1/4+y,1/4-x,3/4+z
16 1/4-y,3/4+x,1/4+z
17 3/4+x,1/4+z,1/4-y
18 1/4-x,3/4+z,1/4+y
19 3/4-x,3/4-z,3/4-y
20 1/4+x,1/4-z,3/4+y
21 3/4+z,1/4+y,1/4-x
22 1/4+z,1/4-y,3/4+x
23 1/4-z,3/4+y,1/4+x
24 3/4-z,3/4-y,3/4-x
25 1/2+x,1/2+y,1/2+z
26 -x,1/2-y,z
27 1/2-x,y,-z
28 x,-y,1/2-z
29 1/2+z,1/2+x,1/2+y
30 z,-x,1/2-y
31 -z,1/2-x,y
32 1/2-z,x,-y
33 1/2+y,1/2+z,1/2+x
34 1/2-y,z,-x
35 y,-z,1/2-x
36 -y,1/2-z,x
37 1/4+y,3/4+x,3/4-z
38 1/4-y,1/4-x,1/4-z
39 3/4+y,3/4-x,1/4+z
40 3/4-y,1/4+x,3/4+z
41 1/4+x,3/4+z,3/4-y
42 3/4-x,1/4+z,3/4+y
43 1/4-x,1/4-z,1/4-y
44 3/4+x,3/4-z,1/4+y
45 1/4+z,3/4+y,3/4-x
46 3/4+z,3/4-y,1/4+x
47 3/4-z,1/4+y,3/4+x
48 1/4-z,1/4-y,1/4-x
49 -x,-y,-z
50 1/2+x,y,1/2-z
51 x,1/2-y,1/2+z
52 1/2-x,1/2+y,z
53 -z,-x,-y
54 1/2-z,1/2+x,y
55 1/2+z,x,1/2-y
56 z,1/2-x,1/2+y
57 -y,-z,-x
58 y,1/2-z,1/2+x
59 1/2-y,1/2+z,x
60 1/2+y,z,1/2-x
61 1/4-y,3/4-x,3/4+z
62 1/4+y,1/4+x,1/4+z
63 3/4-y,3/4+x,1/4-z
64 3/4+y,1/4-x,3/4-z
65 1/4-x,3/4-z,3/4+y
66 3/4+x,1/4-z,3/4-y
67 1/4+x,1/4+z,1/4+y
68 3/4-x,3/4+z,1/4-y
69 1/4-z,3/4-y,3/4+x
70 3/4-z,3/4+y,1/4-x
71 3/4+z,1/4-y,3/4-x
72 1/4+z,1/4+y,1/4+x
73 1/2-x,1/2-y,1/2-z
74 x,1/2+y,-z
75 1/2+x,-y,z
76 -x,y,1/2+z
77 1/2-z,1/2-x,1/2-y
78 -z,x,1/2+y
79 z,1/2+x,-y
80 1/2+z,-x,y
81 1/2-y,1/2-z,1/2-x
82 1/2+y,-z,x
83 -y,z,1/2+x
84 y,1/2+z,-x
85 3/4-y,1/4-x,1/4+z
86 3/4+y,3/4+x,3/4+z
87 1/4-y,1/4+x,3/4-z
88 1/4+y,3/4-x,1/4-z
89 3/4-x,1/4-z,1/4+y
90 1/4+x,3/4-z,1/4-y
91 3/4+x,3/4+z,3/4+y
92 1/4-x,1/4+z,3/4-y
93 3/4-z,1/4-y,1/4+x
94 1/4-z,1/4+y,3/4-x
95 1/4+z,3/4-y,1/4-x
96 3/4+z,3/4+y,3/4+x
_cell_length_a                   62.039(5)
_cell_length_b                   62.039(5)
_cell_length_c                   62.039(5)
_cell_angle_alpha                90
_cell_angle_beta                 90
_cell_angle_gamma                90
_cell_volume                     238778
loop_
_atom_site_label
_atom_site_type_symbol
_atom_site_fract_x
_atom_site_fract_y
_atom_site_fract_z
O1 O 0.43109(8) 0.19168(7) 0.13465(9)
C1 C 0.41599(14) 0.18801(16) 0.14738(15)
O2 O 0.40536(10) 0.20277(9) 0.15510(12)
C2 C 0.41049(13) 0.16474(13) 0.15292(14)
C3 C 0.42117(13) 0.14831(15) 0.14334(13)
H1 H 0.4324 0.1508 0.1337
C4 C 0.41439(11) 0.12675(17) 0.14863(12)
C5 C 0.38776(16) 0.13991(15) 0.17367(16)
H2 H 0.3765 0.1377 0.1832
C6 C 0.39447(15) 0.16008(14) 0.16807(15)
H3 H 0.3879 0.1717 0.1749
O3 O 0.40870(8) 0.23963(8) 0.11093(10)
C7 C 0.39650(16) 0.22938(17) 0.09915(16)
O4 O 0.39840(11) 0.20945(11) 0.09755(14)
C8 C 0.37882(13) 0.24106(18) 0.08579(12)
C9 C 0.37761(15) 0.26174(17) 0.08345(17)
H4 H 0.3880 0.2709 0.0892
C10 C 0.35910(19) 0.26997(18) 0.0714(2)
C11 C 0.3582(2) 0.28985(19) 0.0656(2)
H5 H 0.3693 0.2994 0.0689
C12 C 0.3405(2) 0.29643(17) 0.0544(2)
H6 H 0.3388 0.3111 0.0520
C13 C 0.32528(18) 0.2830(2) 0.0467(2)
C14 C 0.3286(2) 0.2627(2) 0.0474(2)
H7 H 0.3199 0.2529 0.0400
C15 C 0.3460(2) 0.2562(2) 0.0598(3)
C16 C 0.3460(2) 0.2356(2) 0.0645(3)
H8 H 0.3347 0.2267 0.0602
C17 C 0.36325(18) 0.22740(17) 0.0759(2)
H9 H 0.3647 0.2125 0.0772
O5 O 0.29363(13) 0.28475(14) 0.02567(16)
C18 C 0.3079(2) 0.2951(2) 0.0330(2)
O6 O 0.30958(11) 0.31490(13) 0.03036(14)
C19 C 0.46244(15) 0.27500(17) 0.14999(16)
N1 N 0.47030(10) 0.29621(10) 0.14845(11)
C20 C 0.48469(12) 0.29585(14) 0.16480(15)
H10 H 0.4931 0.3079 0.1676
N2 N 0.48692(11) 0.27820(11) 0.17705(11)
C21 C 0.47298(14) 0.26423(19) 0.16831(16)
N3 N 0.46924(10) 0.24358(11) 0.17490(10)
C22 C 0.45475(12) 0.23386(13) 0.16133(14)
H11 H 0.4520 0.2194 0.1642
N4 N 0.44419(10) 0.24199(11) 0.14492(12)
C23 C 0.44783(16) 0.26465(18) 0.13950(17)
N5 N 0.43646(9) 0.27364(9) 0.12329(10)
H12 H 0.4388 0.2868 0.1196
H13 H 0.4268 0.2662 0.1166
Zn1 Zn 0.429822(13) 0.220914(13) 0.124153(16)
Zn2 Zn 0.488472(16) 0.227435(15) 0.197075(16)
O7 O 0.5000 0.2500 0.21502(10)
O1U O 0.38465(9) 0.05832(7) 0.18109(8)
C1U C 0.39738(15) 0.06199(16) 0.16599(14)
O2U O 0.40510(12) 0.04723(9) 0.15536(10)
C2U C 0.40292(14) 0.08526(13) 0.16049(13)
C3U C 0.39334(13) 0.10169(15) 0.17117(13)
H1U H 0.3837 0.0992 0.1824
C4U C 0.39863(12) 0.12325(17) 0.16439(11)
C5U C 0.42367(16) 0.11009(15) 0.13776(16)
H2U H 0.4332 0.1123 0.1265
C6U C 0.41807(15) 0.08992(14) 0.14447(15)
H3U H 0.4249 0.0783 0.1379
O3U O 0.36093(10) 0.01037(8) 0.15870(8)
C7U C 0.34915(16) 0.02062(17) 0.14650(16)
O4U O 0.34755(14) 0.04055(11) 0.14840(11)
C8U C 0.33579(12) 0.00894(18) 0.12882(13)
C9U C 0.33345(17) -0.01174(17) 0.12761(15)
H4U H 0.3392 -0.0209 0.1380
C10U C 0.3214(2) -0.01997(18) 0.10910(19)
C11U C 0.3156(2) -0.03985(19) 0.1082(2)
H5U H 0.3189 -0.0494 0.1193
C12U C 0.3044(2) -0.04643(17) 0.0905(2)
H6U H 0.3020 -0.0611 0.0888
C13U C 0.2967(2) -0.0330(2) 0.07528(18)
C14U C 0.2974(2) -0.0127(2) 0.0786(2)
H7U H 0.2900 -0.0029 0.0699
C15U C 0.3098(3) -0.0062(2) 0.0960(2)
C16U C 0.3145(3) 0.0144(2) 0.0960(2)
H8U H 0.3102 0.0233 0.0847
C17U C 0.3259(2) 0.02260(17) 0.11325(18)
H9U H 0.3272 0.0375 0.1147
O5U O 0.27567(16) -0.03475(14) 0.04363(13)
C18U C 0.2830(2) -0.0451(2) 0.0579(2)
O6U O 0.28036(14) -0.06490(13) 0.05958(11)
C19U C 0.39999(16) -0.02500(17) 0.21244(15)
N1U N 0.39845(11) -0.04621(10) 0.22030(10)
C20U C 0.41480(15) -0.04585(14) 0.23469(12)
H10U H 0.4176 -0.0579 0.2431
N2U N 0.42705(11) -0.02820(11) 0.23692(11)
C21U C 0.41831(16) -0.01423(19) 0.22298(14)
N3U N 0.42490(10) 0.00642(11) 0.21924(10)
C22U C 0.41133(14) 0.01614(13) 0.20475(12)
H11U H 0.4142 0.0306 0.2020
N4U N 0.39492(12) 0.00801(11) 0.19419(10)
C23U C 0.38950(17) -0.01465(18) 0.19783(16)
N5U N 0.37329(10) -0.02364(9) 0.18646(9)
H12U H 0.3696 -0.0368 0.1888
H13U H 0.3666 -0.0162 0.1768
Zn1U Zn 0.374153(16) 0.029086(13) 0.179822(13)
Zn2U Zn 0.447075(16) 0.022565(15) 0.238472(16)
O5JB O 0.46525(14) 0.04363(13) 0.22433(16)
O5XB O 0.47433(16) 0.20637(13) 0.21525(14)
N1JB N 0.45379(10) 0.22030(10) 0.10155(11)
N1XB N 0.35155(11) 0.02970(10) 0.20379(10)
N2Y N 0.51308(11) 0.22180(11) 0.17705(11)
N2RA N 0.42705(11) 0.02820(11) 0.26308(11)
Zn1AB Zn 0.375847(16) -0.070178(13) 0.220914(13)
Zn1IC Zn 0.470914(13) 0.320178(13) 0.125847(16)
Zn2Y Zn 0.511528(16) 0.272565(15) 0.197075(16)
Zn2RA Zn 0.447075(16) -0.022565(15) 0.261528(16)
Zn2OB Zn 0.261528(16) -0.052925(16) 0.022565(15)
Zn2BC Zn 0.272565(15) 0.302925(16) 0.011528(16)
O7U O 0.46502(10) 0.0000 0.2500
loop_
_geom_bond_atom_site_label_1
_geom_bond_atom_site_label_2
_geom_bond_site_symmetry_1
_geom_bond_site_symmetry_2
O1 C1 1_555 1_555
C1 O2 1_555 1_555
C2 C1 1_555 1_555
C3 C2 1_555 1_555
H1 C3 1_555 1_555
C4 C3 1_555 1_555
C5 H2 1_555 1_555
C6 C2 1_555 1_555
H3 C6 1_555 1_555
O3 C7 1_555 1_555
C7 O4 1_555 1_555
C8 C7 1_555 1_555
C9 C8 1_555 1_555
H4 C9 1_555 1_555
C10 C9 1_555 1_555
C11 C10 1_555 1_555
H5 C11 1_555 1_555
C12 C11 1_555 1_555
H6 C12 1_555 1_555
C13 C12 1_555 1_555
C14 C13 1_555 1_555
H7 C14 1_555 1_555
C15 C10 1_555 1_555
C16 C15 1_555 1_555
H8 C16 1_555 1_555
C17 C8 1_555 1_555
H9 C17 1_555 1_555
O5 C18 1_555 1_555
C18 C13 1_555 1_555
O6 C18 1_555 1_555
C19 N1 1_555 1_555
N1 C20 1_555 1_555
C20 H10 1_555 1_555
N2 C20 1_555 1_555
C21 C19 1_555 1_555
N3 C21 1_555 1_555
C22 N3 1_555 1_555
H11 C22 1_555 1_555
N4 C22 1_555 1_555
C23 C19 1_555 1_555
N5 C23 1_555 1_555
H12 N5 1_555 1_555
H13 N5 1_555 1_555
Zn1 O1 1_555 1_555
Zn2 N3 1_555 1_555
O7 Zn2 1_555 1_555
O1U C1U 1_555 1_555
C1U O2U 1_555 1_555
C2U C1U 1_555 1_555
C3U C2U 1_555 1_555
H1U C3U 1_555 1_555
C4U C4 1_555 1_555
C5U C4 1_555 1_555
H2U C5U 1_555 1_555
C6U C2U 1_555 1_555
H3U C6U 1_555 1_555
O3U C7U 1_555 1_555
C7U O4U 1_555 1_555
C8U C7U 1_555 1_555
C9U C8U 1_555 1_555
H4U C9U 1_555 1_555
C10U C9U 1_555 1_555
C11U C10U 1_555 1_555
H5U C11U 1_555 1_555
C12U C11U 1_555 1_555
H6U C12U 1_555 1_555
C13U C12U 1_555 1_555
C14U C13U 1_555 1_555
H7U C14U 1_555 1_555
C15U C10U 1_555 1_555
C16U C15U 1_555 1_555
H8U C16U 1_555 1_555
C17U C8U 1_555 1_555
H9U C17U 1_555 1_555
O5U C18U 1_555 1_555
C18U C13U 1_555 1_555
O6U C18U 1_555 1_555
C19U N1U 1_555 1_555
N1U C20U 1_555 1_555
C20U H10U 1_555 1_555
N2U C20U 1_555 1_555
C21U C19U 1_555 1_555
N3U C21U 1_555 1_555
C22U N3U 1_555 1_555
H11U C22U 1_555 1_555
N4U C22U 1_555 1_555
C23U C19U 1_555 1_555
N5U C23U 1_555 1_555
H12U N5U 1_555 1_555
H13U N5U 1_555 1_555
Zn1U O1U 1_555 1_555
Zn2U N3U 1_555 1_555
O5JB Zn2U 1_555 1_555
O5XB Zn2 1_555 1_555
N1JB Zn1 1_555 1_555
N1XB Zn1U 1_555 1_555
N2Y Zn2 1_555 1_555
N2RA Zn2U 1_555 1_555
Zn1AB N1U 1_555 1_555
Zn1IC N1 1_555 1_555
Zn2Y N2 1_555 1_555
Zn2RA N2U 1_555 1_555
Zn2OB O5U 1_555 1_555
Zn2BC O5 1_555 1_555
O7U Zn2U 1_555 1_555
C5 C6 1_555 1_555
C5 C4U 1_555 1_555
O3 Zn1 1_555 1_555
C14 C15 1_555 1_555
C16 C17 1_555 1_555
N2 C21 1_555 1_555
N4 C23 1_555 1_555
N4 Zn1 1_555 1_555
O7 Zn2Y 1_555 1_555
C3U C4U 1_555 1_555
C5U C6U 1_555 1_555
O3U Zn1U 1_555 1_555
C14U C15U 1_555 1_555
C16U C17U 1_555 1_555
N2U C21U 1_555 1_555
N4U C23U 1_555 1_555
N4U Zn1U 1_555 1_555
Zn2RA O7U 1_555 1_555

#END
