
#######################################################################
#
#                 Cambridge Crystallographic Data Centre
#                                CCDC 
#
#######################################################################
#
# If this CIF has been generated from an entry in the Cambridge 
# Structural Database, then it will include bibliographic, chemical, 
# crystal, experimental, refinement or atomic coordinate data resulting 
# from the CCDC's data processing and validation procedures.
#
#######################################################################

data_TOCVIQ
_symmetry_cell_setting           monoclinic
_symmetry_space_group_name_H-M   'P 21/n'
_symmetry_Int_Tables_number      14
_space_group_name_Hall           '-P 2yn'
loop_
_symmetry_equiv_pos_site_id
_symmetry_equiv_pos_as_xyz
1 x,y,z
2 1/2-x,1/2+y,1/2-z
3 -x,-y,-z
4 1/2+x,1/2-y,1/2+z
_cell_length_a                   12.371(3)
_cell_length_b                   17.344(5)
_cell_length_c                   17.163(3)
_cell_angle_alpha                90
_cell_angle_beta                 102.87(2)
_cell_angle_gamma                90
_cell_volume                     3590.03
loop_
_atom_site_label
_atom_site_type_symbol
_atom_site_fract_x
_atom_site_fract_y
_atom_site_fract_z
Au1 Au 0.80645(5) 0.78741(3) 0.60831(3)
Au2 Au 0.87576(5) 0.62265(3) 0.67060(3)
Cl1 Cl 0.6570(3) 0.2288(2) 1.0036(2)
Cl2 Cl 0.6873(3) 0.6022(2) 0.6374(2)
P1 P 0.7352(3) 0.3568(2) 0.7924(2)
P2 P 1.0593(3) 0.6370(2) 0.7111(2)
N1 N 0.8011(8) 0.4786(6) 0.8895(6)
N2 N 1.0570(8) 0.5849(6) 0.8622(6)
C1 C 0.7313(9) 0.4596(7) 0.8115(7)
C2 C 0.874(1) 0.5447(8) 0.8880(7)
C3 C 0.971(1) 0.5249(7) 0.8506(7)
C4 C 0.872(1) 0.4175(7) 1.0570(7)
C5 C 0.797(1) 0.4872(7) 1.0357(7)
C6 C 0.731(1) 0.4859(8) 0.9496(7)
C7 C 1.121(1) 0.5830(8) 0.8008(7)
C8 C 0.876(1) 0.3399(8) 0.7824(8)
C9 C 0.910(1) 0.3646(9) 0.7136(9)
C10 C 1.023(2) 0.355(1) 0.714(1)
C11 C 1.095(1) 0.324(1) 0.778(2)
C12 C 1.062(1) 0.301(1) 0.844(1)
C13 C 0.952(1) 0.3095(9) 0.8438(9)
C14 C 0.648(1) 0.3442(8) 0.6938(7)
C15 C 0.629(1) 0.2712(8) 0.6623(9)
C16 C 0.563(1) 0.2593(8) 0.5863(9)
C17 C 0.514(1) 0.320(1) 0.5420(8)
C18 C 0.529(1) 0.3923(9) 0.5723(9)
C19 C 0.596(1) 0.4039(7) 0.6457(8)
C20 C 0.401(1) 0.2372(8) 0.7707(8)
C21 C 0.357(1) 0.2660(8) 0.6955(9)
C22 C 0.336(1) 0.3457(10) 0.685(1)
C23 C 0.360(1) 0.3943(8) 0.748(1)
C24 C 0.403(1) 0.367(1) 0.822(1)
C25 C 0.423(1) 0.2881(8) 0.8317(8)
C26 C 0.361(1) 0.1019(8) 0.8606(8)
C27 C 0.252(2) 0.116(1) 0.849(1)
C28 C 0.193(2) 0.085(2) 0.902(1)
C29 C 0.240(2) 0.045(1) 0.963(1)
C30 C 0.345(2) 0.030(2) 0.972(2)
C31 C 0.407(2) 0.062(2) 0.922(1)
H1 H 0.6565 0.4745 0.8099
H2 H 0.7568 0.4867 0.7707
H3 H 1.0970 0.4387 1.0581
H4 H 1.1671 0.4149 1.1412
H5 H 0.9960 0.5216 1.1258
H6 H 1.0567 0.4827 1.2048
H7 H 1.0814 0.5845 0.9798
H8 H 1.1743 0.6269 0.9492
H9 H 1.2545 0.5115 0.9308
H10 H 1.1594 0.4675 0.9570
H11 H 1.3178 0.5567 1.0563
H12 H 1.3096 0.4676 1.0601
H13 H 0.3076 0.1044 0.6774
H14 H 0.3709 0.0310 0.7139
H15 H 0.8580 0.3863 0.6685
H16 H 1.0496 0.3697 0.6683
H17 H 1.1711 0.3189 0.7767
H18 H 1.1136 0.2806 0.8893
H19 H 0.9283 0.2930 0.8902
H20 H 0.6615 0.2282 0.6925
H21 H 0.5529 0.2085 0.5648
H22 H 0.4687 0.3126 0.4905
H23 H 0.4939 0.4348 0.5427
H24 H 0.6069 0.4553 0.6644
H25 H 0.3394 0.2321 0.6510
H26 H 0.3070 0.3655 0.6329
H27 H 0.3434 0.4477 0.7396
H28 H 0.4195 0.4015 0.8664
H29 H 0.4543 0.2692 0.8840
H30 H 0.2150 0.1466 0.8052
H31 H 0.1158 0.0939 0.8938
H32 H 0.1995 0.0246 1.0002
H33 H 0.3814 -0.0012 1.0150
H34 H 0.4861 0.0591 0.9365
Au1A Au 0.69355(5) 0.28741(3) 0.89169(3)
Au2A Au 0.62424(5) 0.12265(3) 0.82940(3)
Cl2A Cl 0.8127(3) 0.1022(2) 0.8626(2)
P2A P 0.4407(3) 0.1370(2) 0.7889(2)
C7A C 0.379(1) 0.0830(8) 0.6992(7)
N2A N 0.4430(8) 0.0849(6) 0.6378(6)
N2B N 0.9430(8) 0.4151(6) 1.1378(6)
C3B C 1.029(1) 0.4751(7) 1.1494(7)
C2B C 1.126(1) 0.4553(8) 1.1120(7)
N1B N 1.1989(8) 0.5214(6) 1.1105(6)
C1B C 1.2687(9) 0.5404(7) 1.1885(7)
P1B P 1.2648(3) 0.6432(2) 1.2076(2)
Au1C Au 1.30645(5) 0.71259(3) 1.10831(3)
Au2C Au 1.37576(5) 0.87735(3) 1.17060(3)
Cl1B Cl 1.3430(3) 0.7712(2) 0.9964(2)
C8B C 1.124(1) 0.6601(8) 1.2176(8)
C9B C 1.090(1) 0.6354(9) 1.2864(9)
C10B C 0.977(2) 0.645(1) 1.286(1)
C11B C 0.905(1) 0.676(1) 1.222(2)
C12B C 0.938(1) 0.699(1) 1.156(1)
C13B C 1.048(1) 0.6905(9) 1.1562(9)
H19B H 1.0717 0.7070 1.1098
H18B H 0.8864 0.7194 1.1107
H17B H 0.8289 0.6811 1.2233
H16B H 0.9504 0.6303 1.3317
H15B H 1.1420 0.6137 1.3315
C14B C 1.352(1) 0.6558(8) 1.3062(7)
C15B C 1.371(1) 0.7288(8) 1.3377(9)
C16B C 1.437(1) 0.7407(8) 1.4137(9)
C17B C 1.486(1) 0.680(1) 1.4580(8)
C18B C 1.471(1) 0.6077(9) 1.4277(9)
C19B C 1.404(1) 0.5961(7) 1.3543(8)
H24B H 1.3931 0.5447 1.3356
H23B H 1.5061 0.5652 1.4573
H22B H 1.5313 0.6874 1.5095
H21B H 1.4471 0.7915 1.4352
H20B H 1.3385 0.7718 1.3075
H1B H 1.3435 0.5255 1.1901
H2B H 1.2432 0.5133 1.2293
C6B C 1.269(1) 0.5141(8) 1.0504(7)
C5B C 1.203(1) 0.5128(7) 0.9643(7)
C4B C 1.128(1) 0.5825(7) 0.9430(7)
C7B C 0.879(1) 0.4170(8) 1.1992(7)
H7B H 0.9186 0.4155 1.0202
H8B H 0.8257 0.3731 1.0508
H9B H 0.7455 0.4885 1.0692
H10B H 0.8406 0.5325 1.0430
H11B H 0.6822 0.4433 0.9437
H12B H 0.6904 0.5324 0.9399
H3B H 0.9030 0.5613 0.9419
H4B H 0.8329 0.5851 0.8588
H5B H 1.0040 0.4784 0.8742
H6B H 0.9433 0.5173 0.7952
H13A H 1.1924 0.6044 0.8226
H14A H 1.1291 0.5310 0.7861
C20A C 1.099(1) 0.7372(8) 0.7293(8)
C21A C 1.143(1) 0.7660(8) 0.8045(9)
C22A C 1.164(1) 0.8457(10) 0.815(1)
C23A C 1.140(1) 0.8943(8) 0.752(1)
C24A C 1.097(1) 0.867(1) 0.678(1)
C25A C 1.077(1) 0.7881(8) 0.6683(8)
H29A H 1.0457 0.7692 0.6160
H28A H 1.0805 0.9015 0.6336
H27A H 1.1566 0.9477 0.7604
H26A H 1.1930 0.8655 0.8671
H25A H 1.1606 0.7321 0.8490
C26A C 1.139(1) 0.6019(8) 0.6394(8)
C27A C 1.248(2) 0.616(1) 0.651(1)
C28A C 1.307(2) 0.585(2) 0.598(1)
C29A C 1.260(2) 0.545(1) 0.537(1)
C30A C 1.155(2) 0.530(2) 0.528(2)
C31A C 1.093(2) 0.562(2) 0.578(1)
H34A H 1.0139 0.5591 0.5635
H33A H 1.1186 0.4988 0.4850
H32A H 1.3005 0.5246 0.4998
H31A H 1.3842 0.5939 0.6062
H30A H 1.2850 0.6466 0.6948
O1 O 1.089(2) 0.071(1) 0.637(2)
N3 N 0.958(2) 0.1533(10) 0.612(1)
C32 C 1.033(2) 0.107(2) 0.584(2)
C33 C 0.949(2) 0.144(1) 0.692(1)
C34 C 0.874(2) 0.202(1) 0.557(1)
H35 H 1.0402 0.1083 0.5301
H36 H 0.8939 0.1794 0.7007
H37 H 0.9263 0.0931 0.6983
H38 H 1.0174 0.1550 0.7258
H39 H 0.8766 0.2523 0.5780
H40 H 0.8912 0.2024 0.5060
H41 H 0.8032 0.1798 0.5538
loop_
_geom_bond_atom_site_label_1
_geom_bond_atom_site_label_2
_geom_bond_site_symmetry_1
_geom_bond_site_symmetry_2
Au1 Au2 1_555 1_555
Au2 Cl2 1_555 1_555
Cl1 Au1A 1_555 1_555
P1 C1 1_555 1_555
P2 Au2 1_555 1_555
O1 C32 1_555 1_555
N1 C1 1_555 1_555
N2 C3 1_555 1_555
N3 C32 1_555 1_555
C1 H1 1_555 1_555
C2 N1 1_555 1_555
C3 C2 1_555 1_555
C4 C5 1_555 1_555
C5 C6 1_555 1_555
C6 N1 1_555 1_555
C7 P2 1_555 1_555
C8 P1 1_555 1_555
C9 C8 1_555 1_555
C10 C9 1_555 1_555
C11 C10 1_555 1_555
C12 C11 1_555 1_555
C13 C8 1_555 1_555
C14 P1 1_555 1_555
C15 C14 1_555 1_555
C16 C15 1_555 1_555
C17 C16 1_555 1_555
C18 C17 1_555 1_555
C19 C14 1_555 1_555
C20 C21 1_555 1_555
C21 C22 1_555 1_555
C22 C23 1_555 1_555
C23 C24 1_555 1_555
C24 C25 1_555 1_555
C25 C20 1_555 1_555
C26 C27 1_555 1_555
C27 C28 1_555 1_555
C28 C29 1_555 1_555
C29 C30 1_555 1_555
C30 C31 1_555 1_555
C31 C26 1_555 1_555
C32 H35 1_555 1_555
C33 N3 1_555 1_555
C34 N3 1_555 1_555
H2 C1 1_555 1_555
H3 C2B 1_555 1_555
H4 C2B 1_555 1_555
H5 C3B 1_555 1_555
H6 C3B 1_555 1_555
H7 C4B 1_555 1_555
H8 C4B 1_555 1_555
H9 C5B 1_555 1_555
H10 C5B 1_555 1_555
H11 C6B 1_555 1_555
H12 C6B 1_555 1_555
H13 C7A 1_555 1_555
H14 C7A 1_555 1_555
H15 C9 1_555 1_555
H16 C10 1_555 1_555
H17 C11 1_555 1_555
H18 C12 1_555 1_555
H19 C13 1_555 1_555
H20 C15 1_555 1_555
H21 C16 1_555 1_555
H22 C17 1_555 1_555
H23 C18 1_555 1_555
H24 C19 1_555 1_555
H25 C21 1_555 1_555
H26 C22 1_555 1_555
H27 C23 1_555 1_555
H28 C24 1_555 1_555
H29 C25 1_555 1_555
H30 C27 1_555 1_555
H31 C28 1_555 1_555
H32 C29 1_555 1_555
H33 C30 1_555 1_555
H34 C31 1_555 1_555
H36 C33 1_555 1_555
H37 C33 1_555 1_555
H38 C33 1_555 1_555
H39 C34 1_555 1_555
H40 C34 1_555 1_555
H41 C34 1_555 1_555
Au1A P1 1_555 1_555
Au2A Au1A 1_555 1_555
Cl2A Au2A 1_555 1_555
P2A C20 1_555 1_555
C7A P2A 1_555 1_555
N2A C7A 1_555 1_555
N2B C4 1_555 1_555
C3B N2B 1_555 1_555
C2B C3B 1_555 1_555
N1B C2B 1_555 1_555
C1B N1B 1_555 1_555
P1B C1B 1_555 1_555
Au1C P1B 1_555 1_555
Au2C Au1C 1_555 1_555
Cl1B Au1C 1_555 1_555
C8B P1B 1_555 1_555
C9B C8B 1_555 1_555
C10B C9B 1_555 1_555
C11B C10B 1_555 1_555
C12B C11B 1_555 1_555
C13B C8B 1_555 1_555
H19B C13B 1_555 1_555
H18B C12B 1_555 1_555
H17B C11B 1_555 1_555
H16B C10B 1_555 1_555
H15B C9B 1_555 1_555
C14B P1B 1_555 1_555
C15B C14B 1_555 1_555
C16B C15B 1_555 1_555
C17B C16B 1_555 1_555
C18B C17B 1_555 1_555
C19B C14B 1_555 1_555
H24B C19B 1_555 1_555
H23B C18B 1_555 1_555
H22B C17B 1_555 1_555
H21B C16B 1_555 1_555
H20B C15B 1_555 1_555
H1B C1B 1_555 1_555
H2B C1B 1_555 1_555
C6B N1B 1_555 1_555
C5B C6B 1_555 1_555
C4B N2 1_555 1_555
C7B N2B 1_555 1_555
H7B C4 1_555 1_555
H8B C4 1_555 1_555
H9B C5 1_555 1_555
H10B C5 1_555 1_555
H11B C6 1_555 1_555
H12B C6 1_555 1_555
H3B C2 1_555 1_555
H4B C2 1_555 1_555
H5B C3 1_555 1_555
H6B C3 1_555 1_555
H13A C7 1_555 1_555
H14A C7 1_555 1_555
C20A P2 1_555 1_555
C21A C20A 1_555 1_555
C22A C21A 1_555 1_555
C23A C22A 1_555 1_555
C24A C23A 1_555 1_555
C25A C20A 1_555 1_555
H29A C25A 1_555 1_555
H28A C24A 1_555 1_555
H27A C23A 1_555 1_555
H26A C22A 1_555 1_555
H25A C21A 1_555 1_555
C26A P2 1_555 1_555
C27A C26A 1_555 1_555
C28A C27A 1_555 1_555
C29A C28A 1_555 1_555
C30A C29A 1_555 1_555
C31A C26A 1_555 1_555
H34A C31A 1_555 1_555
H33A C30A 1_555 1_555
H32A C29A 1_555 1_555
H31A C28A 1_555 1_555
H30A C27A 1_555 1_555
N2 C7 1_555 1_555
C12 C13 1_555 1_555
C18 C19 1_555 1_555
C26 P2A 1_555 1_555
Au2A P2A 1_555 1_555
C12B C13B 1_555 1_555
C18B C19B 1_555 1_555
C5B C4B 1_555 1_555
C24A C25A 1_555 1_555
C30A C31A 1_555 1_555

#END
