
#######################################################################
#
#                 Cambridge Crystallographic Data Centre
#                                CCDC 
#
#######################################################################
#
# If this CIF has been generated from an entry in the Cambridge 
# Structural Database, then it will include bibliographic, chemical, 
# crystal, experimental, refinement or atomic coordinate data resulting 
# from the CCDC's data processing and validation procedures.
#
#######################################################################

data_TODJEB
_symmetry_cell_setting           monoclinic
_symmetry_space_group_name_H-M   'C 2'
_symmetry_Int_Tables_number      5
_space_group_name_Hall           'C 2y'
loop_
_symmetry_equiv_pos_site_id
_symmetry_equiv_pos_as_xyz
1 x,y,z
2 -x,y,-z
3 1/2+x,1/2+y,z
4 1/2-x,1/2+y,-z
_cell_length_a                   27.86(2)
_cell_length_b                   7.647(10)
_cell_length_c                   24.98(2)
_cell_angle_alpha                90
_cell_angle_beta                 103.64(2)
_cell_angle_gamma                90
_cell_volume                     5171.78
loop_
_atom_site_label
_atom_site_type_symbol
_atom_site_fract_x
_atom_site_fract_y
_atom_site_fract_z
Ca1 Ca 0.5000 -0.2856(2) 0.0000
O1 O 0.5806(1) -0.1660(6) 0.0523(2)
O2 O 0.5774(2) -0.4725(7) 0.0046(2)
O3 O 0.6483(2) -0.5554(7) 0.0615(2)
C1 C 0.6667(2) -0.1848(8) 0.0454(3)
C2 C 0.6580(3) -0.1213(11) -0.0077(3)
C3 C 0.6956(3) -0.0504(12) -0.0274(3)
C4 C 0.7424(3) -0.0444(13) 0.0049(4)
C5 C 0.7523(2) -0.1096(12) 0.0575(4)
C6 C 0.7137(3) -0.1788(12) 0.0778(3)
C7 C 0.6249(2) -0.2629(9) 0.0666(2)
C8 C 0.6131(2) -0.4412(9) 0.0405(3)
C9 C 0.6444(3) -0.7254(11) 0.0361(4)
O15 O 0.3749(2) -0.7136(14) 0.1032(2)
O16 O 0.4501(1) -0.7422(6) 0.1576(2)
O17 O 0.4770(2) -0.4171(7) 0.1484(2)
O18 O 0.5134(2) -0.4726(6) 0.0794(2)
O19 O 0.5485(1) -0.7962(6) 0.1674(2)
O20 O 0.6077(2) -0.9326(8) 0.1362(2)
O21 O 0.4793(2) -1.0731(7) 0.0608(2)
O22 O 0.5033(2) -1.1086(6) 0.1520(2)
C37 C 0.4012(2) -0.7404(10) 0.1478(2)
C38 C 0.5945(2) -0.8583(8) 0.1729(2)
C39 C 0.4716(2) -0.7060(8) 0.1119(2)
C40 C 0.5141(2) -0.8292(9) 0.1154(2)
C41 C 0.4892(2) -0.5153(8) 0.1133(2)
C42 C 0.4973(2) -1.0208(8) 0.1086(3)
C43 C 0.3832(2) -0.7820(9) 0.1978(3)
C44 C 0.3346(2) -0.8384(12) 0.1906(3)
C45 C 0.3168(3) -0.8851(12) 0.2360(3)
C46 C 0.3470(3) -0.8775(12) 0.2879(3)
C47 C 0.3948(3) -0.8197(12) 0.2958(3)
C48 C 0.4133(2) -0.7723(11) 0.2502(3)
C49 C 0.6269(2) -0.8151(9) 0.2272(3)
C50 C 0.6074(3) -0.7694(12) 0.2717(3)
C51 C 0.6400(3) -0.7279(15) 0.3216(3)
C52 C 0.6900(4) -0.7346(17) 0.3272(4)
C53 C 0.7084(3) -0.7791(18) 0.2826(4)
C54 C 0.6775(3) -0.8243(15) 0.2334(4)
H1 H 0.5858(1) -0.0536(6) 0.0689(2)
H2 H 0.6263(3) -0.1268(11) -0.0304(3)
H3 H 0.6892(3) -0.0060(12) -0.0631(3)
H4 H 0.7677(3) 0.0040(13) -0.0087(4)
H5 H 0.7843(2) -0.1077(12) 0.0794(4)
H6 H 0.7200(3) -0.2214(12) 0.1136(3)
H7 H 0.6351(2) -0.2753(9) 0.1067(2)
H8 H 0.6709(11) -0.7983(23) 0.0555(13)
H9 H 0.6464(19) -0.7139(13) -0.0016(7)
H10 H 0.6134(8) -0.7775(29) 0.0375(19)
H34 H 0.4907(2) -1.2631(6) 0.1496(2)
H35 H 0.4470(2) -0.7269(8) 0.0774(2)
H36 H 0.5304(2) -0.8004(9) 0.0857(2)
H37 H 0.3141(2) -0.8448(12) 0.1554(3)
H38 H 0.2843(3) -0.9218(12) 0.2312(3)
H39 H 0.3350(3) -0.9118(12) 0.3180(3)
H40 H 0.4148(3) -0.8121(12) 0.3312(3)
H41 H 0.4458(2) -0.7344(11) 0.2553(3)
H42 H 0.5735(3) -0.7664(12) 0.2682(3)
H43 H 0.6276(3) -0.6952(15) 0.3515(3)
H44 H 0.7114(4) -0.7092(17) 0.3610(4)
H45 H 0.7423(3) -0.7785(18) 0.2859(4)
H46 H 0.6904(3) -0.8610(15) 0.2043(4)
O1A O 0.4194(1) -0.1660(6) -0.0523(2)
O2A O 0.4226(2) -0.4725(7) -0.0046(2)
O18A O 0.4866(2) -0.4726(6) -0.0794(2)
O21A O 0.5207(2) -0.0731(7) -0.0608(2)
C7A C 0.3751(2) -0.2629(9) -0.0666(2)
H1A H 0.4142(1) -0.0536(6) -0.0689(2)
C8A C 0.3869(2) -0.4412(9) -0.0405(3)
C41A C 0.5108(2) -0.5153(8) -0.1133(2)
O21_2 O 0.4793(2) -0.0731(7) 0.0608(2)
C1A C 0.3333(2) -0.1848(8) -0.0454(3)
H7A H 0.3649(2) -0.2753(9) -0.1067(2)
O3A O 0.3517(2) -0.5554(7) -0.0615(2)
O17A O 0.5230(2) -0.4171(7) -0.1484(2)
C39A C 0.5284(2) -0.7060(8) -0.1119(2)
Ca1_2 Ca 0.5000 -1.2856(2) 0.0000
C2A C 0.3420(3) -0.1213(11) 0.0077(3)
C6A C 0.2863(3) -0.1788(12) -0.0778(3)
C9A C 0.3556(3) -0.7254(11) -0.0361(4)
O16A O 0.5499(1) -0.7422(6) -0.1576(2)
C40A C 0.4859(2) -0.8292(9) -0.1154(2)
H35A H 0.5530(2) -0.7269(8) -0.0774(2)
C3A C 0.3044(3) -0.0504(12) 0.0274(3)
H2A H 0.3737(3) -0.1268(11) 0.0304(3)
C5A C 0.2477(2) -0.1096(12) -0.0575(4)
H6A H 0.2800(3) -0.2214(12) -0.1136(3)
H8A H 0.3291(11) -0.7983(23) -0.0555(13)
H9A H 0.3536(19) -0.7139(13) 0.0016(7)
H10A H 0.3866(8) -0.7775(29) -0.0375(19)
C37A C 0.5988(2) -0.7404(10) -0.1478(2)
O19A O 0.4515(1) -0.7962(6) -0.1674(2)
C42A C 0.5027(2) -1.0208(8) -0.1086(3)
H36A H 0.4696(2) -0.8004(9) -0.0857(2)
C4A C 0.2576(3) -0.0444(13) -0.0049(4)
H3A H 0.3108(3) -0.0060(12) 0.0631(3)
H5A H 0.2157(2) -0.1077(12) -0.0794(4)
O15A O 0.6251(2) -0.7136(14) -0.1032(2)
C43A C 0.6168(2) -0.7820(9) -0.1978(3)
C38A C 0.4055(2) -0.8583(8) -0.1729(2)
O21A_2 O 0.5207(2) -1.0731(7) -0.0608(2)
O22A O 0.4967(2) -1.1086(6) -0.1520(2)
H4A H 0.2323(3) 0.0040(13) 0.0087(4)
C44A C 0.6654(2) -0.8384(12) -0.1906(3)
C48A C 0.5867(2) -0.7723(11) -0.2502(3)
O20A O 0.3923(2) -0.9326(8) -0.1362(2)
C49A C 0.3731(2) -0.8151(9) -0.2272(3)
H34A H 0.5093(2) -1.2631(6) -0.1496(2)
C45A C 0.6832(3) -0.8851(12) -0.2360(3)
H37A H 0.6859(2) -0.8448(12) -0.1554(3)
C47A C 0.6052(3) -0.8197(12) -0.2958(3)
H41A H 0.5542(2) -0.7344(11) -0.2553(3)
C50A C 0.3926(3) -0.7694(12) -0.2717(3)
C54A C 0.3225(3) -0.8243(15) -0.2334(4)
C46A C 0.6530(3) -0.8775(12) -0.2879(3)
H38A H 0.7157(3) -0.9218(12) -0.2312(3)
H40A H 0.5852(3) -0.8121(12) -0.3312(3)
C51A C 0.3600(3) -0.7279(15) -0.3216(3)
H42A H 0.4265(3) -0.7664(12) -0.2682(3)
C53A C 0.2916(3) -0.7791(18) -0.2826(4)
H46A H 0.3096(3) -0.8610(15) -0.2043(4)
H39A H 0.6650(3) -0.9118(12) -0.3180(3)
C52A C 0.3100(4) -0.7346(17) -0.3272(4)
H43A H 0.3724(3) -0.6952(15) -0.3515(3)
H45A H 0.2577(3) -0.7785(18) -0.2859(4)
H44A H 0.2886(4) -0.7092(17) -0.3610(4)
Ca2 Ca 0.0000 -0.2208(2) 0.5000
O4 O -0.0808(1) -0.0957(6) 0.4480(2)
O5 O -0.0775(2) -0.4073(7) 0.4927(2)
O6 O -0.1511(2) -0.4799(7) 0.4390(2)
C10 C -0.1650(2) -0.1045(9) 0.4613(3)
C11 C -0.2121(3) -0.0779(12) 0.4306(4)
C12 C -0.2484(3) -0.0088(13) 0.4543(4)
C13 C -0.2363(3) 0.0378(12) 0.5088(5)
C14 C -0.1886(3) 0.0115(3) 0.5405(4)
C15 C -0.1536(3) -0.0597(11) 0.5163(3)
C16 C -0.1262(2) -0.1864(9) 0.4356(3)
C17 C -0.1144(2) -0.3704(8) 0.4598(2)
C18 C -0.1458(3) -0.6538(11) 0.4612(4)
O7 O -0.0446(1) 0.2652(6) 0.3309(2)
O8 O -0.1037(2) 0.1166(8) 0.3585(2)
O9 O 0.0206(2) -0.0021(6) 0.4410(2)
O10 O 0.0016(2) -0.0421(6) 0.3496(2)
O11 O -0.0116(2) 0.5968(6) 0.4203(2)
O12 O 0.0289(2) 0.6521(7) 0.3546(2)
O13 O 0.0537(1) 0.3200(6) 0.3459(2)
O14 O 0.1269(2) 0.3953(10) 0.3987(2)
C19 C 0.0050(2) 0.0463(8) 0.3929(2)
C20 C -0.0125(2) 0.2380(9) 0.3846(2)
C21 C 0.0306(2) 0.3614(8) 0.3896(2)
C22 C 0.0139(2) 0.5540(8) 0.3872(2)
C23 C -0.0885(2) 0.1833(9) 0.3218(2)
C24 C 0.1026(2) 0.3389(10) 0.3558(3)
C25 C -0.1162(2) 0.1903(9) 0.2640(3)
C26 C -0.0957(3) 0.2561(12) 0.2225(3)
C27 C -0.1231(3) 0.2552(14) 0.1685(3)
C28 C -0.1705(3) 0.1900(13) 0.1556(3)
C29 C -0.1900(3) 0.1210(14) 0.1967(4)
C30 C -0.1641(3) 0.1208(12) 0.2505(3)
C31 C 0.1226(2) 0.2798(10) 0.3091(3)
C32 C 0.1735(3) 0.2771(14) 0.3169(3)
C33 C 0.1937(3) 0.2175(17) 0.2747(4)
C34 C 0.1638(3) 0.1554(15) 0.2261(3)
C35 C 0.1132(3) 0.1621(14) 0.2182(4)
C36 C 0.0929(3) 0.2208(12) 0.2606(3)
H11 H -0.0856(1) 0.0186(16) 0.4328(2)
H12 H -0.2199(3) -0.1064(12) 0.3933(4)
H13 H -0.2805(3) 0.0056(13) 0.4335(4)
H14 H -0.2601(3) 0.0873(12) 0.5247(5)
H15 H -0.1805(3) 0.0418(13) 0.5776(4)
H16 H -0.1217(3) -0.0779(11) 0.5374(3)
H17 H -0.1388(2) -0.1940(9) 0.3956(3)
H18 H -0.1713(14) -0.7271(23) 0.4401(16)
H19 H -0.1484(23) -0.6510(16) 0.4988(9)
H20 H -0.1141(10) -0.6997(32) 0.4595(24)
H22 H -0.0304(2) 0.2679(9) 0.4127(2)
H23 H 0.0541(2) 0.3404(8) 0.4249(2)
H24 H -0.0637(3) 0.3005(12) 0.2310(3)
H25 H -0.1093(3) 0.2989(14) 0.1407(3)
H26 H -0.1892(3) 0.1927(13) 0.1195(3)
H27 H -0.2216(3) 0.0732(14) 0.1877(4)
H28 H -0.1781(3) 0.0753(12) 0.2779(3)
H29 H 0.1938(3) 0.3147(14) 0.3500(3)
H30 H 0.2277(3) 0.2193(17) 0.2790(4)
H31 H 0.1779(3) 0.1093(15) 0.1989(3)
H32 H 0.0929(3) 0.1276(14) 0.1847(4)
H33 H 0.0588(3) 0.2200(12) 0.2561(3)
O4A O 0.0808(1) -0.0957(6) 0.5520(2)
O5A O 0.0775(2) -0.4073(7) 0.5073(2)
O9A O -0.0206(2) -0.0021(6) 0.5590(2)
O11A O 0.0116(2) -0.4032(6) 0.5797(2)
C16A C 0.1262(2) -0.1864(9) 0.5644(3)
H11A H 0.0856(1) 0.0186(16) 0.5672(2)
C17A C 0.1144(2) -0.3704(8) 0.5402(2)
C19A C -0.0050(2) 0.0463(8) 0.6071(2)
O11_2 O -0.0116(2) -0.4032(6) 0.4203(2)
C10A C 0.1650(2) -0.1045(9) 0.5387(3)
H17A H 0.1388(2) -0.1940(9) 0.6044(3)
O6A O 0.1511(2) -0.4799(7) 0.5610(2)
O10A O -0.0016(2) -0.0421(6) 0.6504(2)
C20A C 0.0125(2) 0.2380(9) 0.6154(2)
Ca2_2 Ca 0.0000 0.7792(2) 0.5000
C11A C 0.2121(3) -0.0779(12) 0.5694(4)
C15A C 0.1536(3) -0.0597(11) 0.4837(3)
C18A C 0.1458(3) -0.6538(11) 0.5388(4)
O7A O 0.0446(1) 0.2652(6) 0.6691(2)
C21A C -0.0306(2) 0.3614(8) 0.6104(2)
H22A H 0.0304(2) 0.2679(9) 0.5873(2)
C12A C 0.2484(3) -0.0088(13) 0.5457(4)
H12A H 0.2199(3) -0.1064(12) 0.6067(4)
C14A C 0.1886(3) 0.0115(3) 0.4595(4)
H16A H 0.1217(3) -0.0779(11) 0.4626(3)
H18A H 0.1713(14) -0.7271(23) 0.5599(16)
H19A H 0.1484(23) -0.6510(16) 0.5012(9)
H20A H 0.1141(10) -0.6997(32) 0.5405(24)
C23A C 0.0885(2) 0.1833(9) 0.6782(2)
O13A O -0.0537(1) 0.3200(6) 0.6541(2)
C22A C -0.0139(2) 0.5540(8) 0.6128(2)
H23A H -0.0541(2) 0.3404(8) 0.5751(2)
C13A C 0.2363(3) 0.0378(12) 0.4912(5)
H13A H 0.2805(3) 0.0056(13) 0.5665(4)
H15A H 0.1805(3) 0.0418(13) 0.4224(4)
O8A O 0.1037(2) 0.1166(8) 0.6415(2)
C25A C 0.1162(2) 0.1903(9) 0.7360(3)
C24A C -0.1026(2) 0.3389(10) 0.6442(3)
O11A_2 O 0.0116(2) 0.5968(6) 0.5797(2)
O12A O -0.0289(2) 0.6521(7) 0.6454(2)
H14A H 0.2601(3) 0.0873(12) 0.4753(5)
C26A C 0.0957(3) 0.2561(12) 0.7775(3)
C30A C 0.1641(3) 0.1208(12) 0.7495(3)
O14A O -0.1269(2) 0.3953(10) 0.6013(2)
C31A C -0.1226(2) 0.2798(10) 0.6909(3)
C27A C 0.1231(3) 0.2552(14) 0.8315(3)
H24A H 0.0637(3) 0.3005(12) 0.7690(3)
C29A C 0.1900(3) 0.1210(14) 0.8033(4)
H28A H 0.1781(3) 0.0753(12) 0.7221(3)
C32A C -0.1735(3) 0.2771(14) 0.6831(3)
C36A C -0.0929(3) 0.2208(12) 0.7394(3)
C28A C 0.1705(3) 0.1900(13) 0.8444(3)
H25A H 0.1093(3) 0.2989(14) 0.8593(3)
H27A H 0.2216(3) 0.0732(14) 0.8123(4)
C33A C -0.1937(3) 0.2175(17) 0.7253(4)
H29A H -0.1938(3) 0.3147(14) 0.6500(3)
C35A C -0.1132(3) 0.1621(14) 0.7818(4)
H33A H -0.0588(3) 0.2200(12) 0.7439(3)
H26A H 0.1892(3) 0.1927(13) 0.8805(3)
C34A C -0.1638(3) 0.1554(15) 0.7739(3)
H30A H -0.2277(3) 0.2193(17) 0.7210(4)
H32A H -0.0929(3) 0.1276(14) 0.8153(4)
H31A H -0.1779(3) 0.1093(15) 0.8011(3)
H21? H 0.0354(2) -0.1537(6) 0.3584(2)
loop_
_geom_bond_atom_site_label_1
_geom_bond_atom_site_label_2
_geom_bond_site_symmetry_1
_geom_bond_site_symmetry_2
Ca1 O1 1_555 1_555
O1 C7 1_555 1_555
O2 Ca1 1_555 1_555
O3 C8 1_555 1_555
C1 C2 1_555 1_555
C2 C3 1_555 1_555
C3 C4 1_555 1_555
C4 C5 1_555 1_555
C5 C6 1_555 1_555
C6 C1 1_555 1_555
C7 C1 1_555 1_555
C8 O2 1_555 1_555
C9 O3 1_555 1_555
Ca2 O4 1_555 1_555
O4 C16 1_555 1_555
O5 Ca2 1_555 1_555
O6 C17 1_555 1_555
C10 C11 1_555 1_555
C11 C12 1_555 1_555
C12 C13 1_555 1_555
C13 C14 1_555 1_555
C14 C15 1_555 1_555
C15 C10 1_555 1_555
C16 C10 1_555 1_555
C17 O5 1_555 1_555
C18 O6 1_555 1_555
O7 C20 1_555 1_555
O8 C23 1_555 1_555
O9 Ca2 1_555 1_555
O10 C19 1_555 1_555
O11 C22 1_555 1_555
O12 C22 1_555 1_555
O13 C21 1_555 1_555
O14 C24 1_555 1_555
C19 O9 1_555 1_555
C20 C19 1_555 1_555
C21 C20 1_555 1_555
C22 C21 1_555 1_555
C23 O7 1_555 1_555
C24 O13 1_555 1_555
C25 C23 1_555 1_555
C26 C25 1_555 1_555
C27 C26 1_555 1_555
C28 C27 1_555 1_555
C29 C28 1_555 1_555
C30 C25 1_555 1_555
C31 C24 1_555 1_555
C32 C31 1_555 1_555
C33 C32 1_555 1_555
C34 C33 1_555 1_555
C35 C34 1_555 1_555
C36 C31 1_555 1_555
O15 C37 1_555 1_555
O16 C37 1_555 1_555
O17 C41 1_555 1_555
O18 Ca1 1_555 1_555
O19 C38 1_555 1_555
O20 C38 1_555 1_555
O21 C42 1_555 1_555
O22 C42 1_555 1_555
C37 C43 1_555 1_555
C38 C49 1_555 1_555
C39 O16 1_555 1_555
C40 O19 1_555 1_555
C41 O18 1_555 1_555
C42 C40 1_555 1_555
C43 C44 1_555 1_555
C44 C45 1_555 1_555
C45 C46 1_555 1_555
C46 C47 1_555 1_555
C47 C48 1_555 1_555
C48 C43 1_555 1_555
C49 C50 1_555 1_555
C50 C51 1_555 1_555
C51 C52 1_555 1_555
C52 C53 1_555 1_555
C53 C54 1_555 1_555
C54 C49 1_555 1_555
H1 O1 1_555 1_555
H2 C2 1_555 1_555
H3 C3 1_555 1_555
H4 C4 1_555 1_555
H5 C5 1_555 1_555
H6 C6 1_555 1_555
H7 C7 1_555 1_555
H8 C9 1_555 1_555
H9 C9 1_555 1_555
H10 C9 1_555 1_555
H11 O4 1_555 1_555
H12 C11 1_555 1_555
H13 C12 1_555 1_555
H14 C13 1_555 1_555
H15 C14 1_555 1_555
H16 C15 1_555 1_555
H17 C16 1_555 1_555
H18 C18 1_555 1_555
H19 C18 1_555 1_555
H20 C18 1_555 1_555
H22 C20 1_555 1_555
H23 C21 1_555 1_555
H24 C26 1_555 1_555
H25 C27 1_555 1_555
H26 C28 1_555 1_555
H27 C29 1_555 1_555
H28 C30 1_555 1_555
H29 C32 1_555 1_555
H30 C33 1_555 1_555
H31 C34 1_555 1_555
H32 C35 1_555 1_555
H33 C36 1_555 1_555
H34 O22 1_555 1_555
H35 C39 1_555 1_555
H36 C40 1_555 1_555
H37 C44 1_555 1_555
H38 C45 1_555 1_555
H39 C46 1_555 1_555
H40 C47 1_555 1_555
H41 C48 1_555 1_555
H42 C50 1_555 1_555
H43 C51 1_555 1_555
H44 C52 1_555 1_555
H45 C53 1_555 1_555
H46 C54 1_555 1_555
O1A Ca1 1_555 1_555
O2A Ca1 1_555 1_555
O18A Ca1 1_555 1_555
O21A Ca1 1_555 1_555
O4A Ca2 1_555 1_555
O5A Ca2 1_555 1_555
O9A Ca2 1_555 1_555
O11A Ca2 1_555 1_555
C7A O1A 1_555 1_555
H1A O1A 1_555 1_555
C8A O2A 1_555 1_555
C41A O18A 1_555 1_555
C16A O4A 1_555 1_555
H11A O4A 1_555 1_555
C17A O5A 1_555 1_555
C19A O9A 1_555 1_555
O11_2 Ca2 1_555 1_555
O21_2 Ca1 1_555 1_555
C1A C7A 1_555 1_555
H7A C7A 1_555 1_555
O3A C8A 1_555 1_555
O17A C41A 1_555 1_555
C39A C41A 1_555 1_555
C10A C16A 1_555 1_555
H17A C16A 1_555 1_555
O6A C17A 1_555 1_555
O10A C19A 1_555 1_555
C20A C19A 1_555 1_555
Ca2_2 O11 1_555 1_555
Ca1_2 O21 1_555 1_555
C2A C1A 1_555 1_555
C6A C1A 1_555 1_555
C9A O3A 1_555 1_555
O16A C39A 1_555 1_555
C40A C39A 1_555 1_555
H35A C39A 1_555 1_555
C11A C10A 1_555 1_555
C15A C10A 1_555 1_555
C18A O6A 1_555 1_555
O7A C20A 1_555 1_555
C21A C20A 1_555 1_555
H22A C20A 1_555 1_555
C3A C2A 1_555 1_555
H2A C2A 1_555 1_555
C5A C6A 1_555 1_555
H6A C6A 1_555 1_555
H8A C9A 1_555 1_555
H9A C9A 1_555 1_555
H10A C9A 1_555 1_555
C37A O16A 1_555 1_555
O19A C40A 1_555 1_555
C42A C40A 1_555 1_555
H36A C40A 1_555 1_555
C12A C11A 1_555 1_555
H12A C11A 1_555 1_555
C14A C15A 1_555 1_555
H16A C15A 1_555 1_555
H18A C18A 1_555 1_555
H19A C18A 1_555 1_555
H20A C18A 1_555 1_555
C23A O7A 1_555 1_555
O13A C21A 1_555 1_555
C22A C21A 1_555 1_555
H23A C21A 1_555 1_555
C4A C3A 1_555 1_555
H3A C3A 1_555 1_555
H5A C5A 1_555 1_555
O15A C37A 1_555 1_555
C43A C37A 1_555 1_555
C38A O19A 1_555 1_555
O21A_2 Ca1_2 1_555 1_555
O22A C42A 1_555 1_555
C13A C12A 1_555 1_555
H13A C12A 1_555 1_555
H15A C14A 1_555 1_555
O8A C23A 1_555 1_555
C25A C23A 1_555 1_555
C24A O13A 1_555 1_555
O11A_2 Ca2_2 1_555 1_555
O12A C22A 1_555 1_555
H4A C4A 1_555 1_555
C44A C43A 1_555 1_555
C48A C43A 1_555 1_555
O20A C38A 1_555 1_555
C49A C38A 1_555 1_555
H34A O22A 1_555 1_555
H14A C13A 1_555 1_555
C26A C25A 1_555 1_555
C30A C25A 1_555 1_555
O14A C24A 1_555 1_555
C31A C24A 1_555 1_555
C45A C44A 1_555 1_555
H37A C44A 1_555 1_555
C47A C48A 1_555 1_555
H41A C48A 1_555 1_555
C50A C49A 1_555 1_555
C54A C49A 1_555 1_555
C27A C26A 1_555 1_555
H24A C26A 1_555 1_555
C29A C30A 1_555 1_555
H28A C30A 1_555 1_555
C32A C31A 1_555 1_555
C36A C31A 1_555 1_555
C46A C45A 1_555 1_555
H38A C45A 1_555 1_555
H40A C47A 1_555 1_555
C51A C50A 1_555 1_555
H42A C50A 1_555 1_555
C53A C54A 1_555 1_555
H46A C54A 1_555 1_555
C28A C27A 1_555 1_555
H25A C27A 1_555 1_555
H27A C29A 1_555 1_555
C33A C32A 1_555 1_555
H29A C32A 1_555 1_555
C35A C36A 1_555 1_555
H33A C36A 1_555 1_555
H39A C46A 1_555 1_555
C52A C51A 1_555 1_555
H43A C51A 1_555 1_555
H45A C53A 1_555 1_555
H26A C28A 1_555 1_555
C34A C33A 1_555 1_555
H30A C33A 1_555 1_555
H32A C35A 1_555 1_555
H44A C52A 1_555 1_555
H31A C34A 1_555 1_555
C7 C8 1_555 1_555
C16 C17 1_555 1_555
C29 C30 1_555 1_555
C35 C36 1_555 1_555
C39 C40 1_555 1_555
C39 C41 1_555 1_555
C7A C8A 1_555 1_555
C16A C17A 1_555 1_555
C5A C4A 1_555 1_555
C42A O21A_2 1_555 1_555
C14A C13A 1_555 1_555
C22A O11A_2 1_555 1_555
C47A C46A 1_555 1_555
C29A C28A 1_555 1_555
C53A C52A 1_555 1_555
C35A C34A 1_555 1_555

#END
