
#######################################################################
#
#                 Cambridge Crystallographic Data Centre
#                                CCDC 
#
#######################################################################
#
# If this CIF has been generated from an entry in the Cambridge 
# Structural Database, then it will include bibliographic, chemical, 
# crystal, experimental, refinement or atomic coordinate data resulting 
# from the CCDC's data processing and validation procedures.
#
#######################################################################

data_TODKUU
_symmetry_cell_setting           monoclinic
_symmetry_space_group_name_H-M   'P 21/c'
_symmetry_Int_Tables_number      14
_space_group_name_Hall           '-P 2ybc'
loop_
_symmetry_equiv_pos_site_id
_symmetry_equiv_pos_as_xyz
1 x,y,z
2 -x,1/2+y,1/2-z
3 -x,-y,-z
4 x,1/2-y,1/2+z
_cell_length_a                   15.0769(4)
_cell_length_b                   20.0774(7)
_cell_length_c                   13.7166(3)
_cell_angle_alpha                90
_cell_angle_beta                 103.7105(15)
_cell_angle_gamma                90
_cell_volume                     4033.77
loop_
_atom_site_label
_atom_site_type_symbol
_atom_site_fract_x
_atom_site_fract_y
_atom_site_fract_z
Cu1 Cu 0.24119(4) 0.24519(3) 0.51225(4)
O1 O 0.1476(3) 0.17418(19) 0.4858(3)
O2 O 0.3559(3) 0.1663(2) 0.5367(3)
O3 O 0.1274(3) 0.3285(2) 0.4792(3)
N1 N 0.2440(3) 0.2494(2) 0.3661(3)
N2 N 0.3342(3) 0.3178(2) 0.5367(3)
N3 N 0.2362(3) 0.2454(2) 0.6611(3)
H1 H 0.099(3) 0.171(3) 0.504(5)
H2 H 0.164(4) 0.1347(15) 0.476(5)
H3 H 0.401(3) 0.175(3) 0.512(5)
H4 H 0.367(4) 0.1284(18) 0.563(5)
H5 H 0.148(5) 0.3649(19) 0.504(5)
C1 C 0.0332(5) 0.3237(4) 0.4573(7)
C2 C 0.2263(4) 0.1943(3) 0.3057(4)
C3 C 0.2586(4) 0.3061(3) 0.3211(4)
C4 C 0.3308(4) 0.3688(3) 0.4748(4)
C5 C 0.3962(4) 0.3235(3) 0.6255(4)
H6 H 0.0135 0.2859 0.4122
H7 H 0.0063 0.3648 0.4246
H8 H 0.0132 0.3170 0.5195
H9 H 0.2156 0.1530 0.3347
C6 C 0.2233(4) 0.1964(3) 0.2062(4)
N4 N 0.2831(3) 0.3629(2) 0.3754(3)
C7 C 0.2521(4) 0.3086(3) 0.2166(4)
N5 N 0.3698(3) 0.4282(2) 0.4965(3)
C8 C 0.4430(4) 0.3814(3) 0.6539(4)
H10 H 0.4075 0.2863 0.6694
H11 H 0.2122 0.1566 0.1676
H12 H 0.2665 0.4005 0.3433
H13 H 0.2592 0.3501 0.1861
C9 C 0.4242(4) 0.4360(3) 0.5879(4)
H14 H 0.4867 0.3846 0.7162
C10 C 0.4607(6) 0.5034(4) 0.6165(5)
H15 H 0.4163 0.5368 0.5834
H16 H 0.5180 0.5093 0.5955
H17 H 0.4720 0.5086 0.6894
N3C N 0.2362(3) 0.2546(2) 0.1611(3)
Cu1C Cu 0.24119(4) 0.25481(3) 0.01225(4)
Cu2 Cu 0.21091(5) 0.74407(3) 0.35222(5)
O4 O 0.3197(3) 0.6650(3) 0.3799(3)
H18 H 0.326(5) 0.6226(15) 0.401(6)
H19 H 0.372(3) 0.680(3) 0.410(6)
O5 O 0.1129(3) 0.6763(2) 0.3244(3)
H20 H 0.1365 0.6327 0.3316
N6 N 0.2088(3) 0.7471(2) 0.4994(3)
N7 N 0.2035(3) 0.7511(2) 0.7007(3)
N8 N 0.2358(3) 0.8621(2) 0.5065(3)
H21 H 0.2110 0.8984 0.5243
N9 N 0.3231(4) 0.9309(3) 0.4372(3)
N10 N 0.2998(3) 0.8186(2) 0.3796(3)
C11 C 0.1976(4) 0.6916(3) 0.5510(4)
H22 H 0.1908 0.6501 0.5169
C12 C 0.1955(4) 0.6927(3) 0.6494(4)
H23 H 0.1885 0.6523 0.6827
C13 C 0.2141(4) 0.8063(3) 0.6515(4)
H24 H 0.2188 0.8479 0.6853
C14 C 0.2185(4) 0.8042(3) 0.5504(4)
C15 C 0.2876(4) 0.8699(3) 0.4377(4)
C16 C 0.3843(4) 0.9398(3) 0.3808(4)
C17 C 0.4113(4) 0.8867(3) 0.3298(4)
H25 H 0.4596 0.8917 0.2967
C18 C 0.3671(4) 0.8272(3) 0.3279(4)
H26 H 0.3829 0.7912 0.2905
C19 C 0.4186(5) 1.0089(3) 0.3769(5)
H27 H 0.4118 1.0334 0.4365
H28 H 0.3833 1.0311 0.3165
H29 H 0.4831 1.0076 0.3751
C20 C 0.0241(10) 0.6773(9) 0.2594(13)
H30 H -0.0098 0.7157 0.2756
H31 H -0.0082 0.6362 0.2682
H32 H 0.0292 0.6806 0.1897
Cl1 Cl -0.0025(3) 0.8313(2) 0.3368(4)
O6 O -0.0398(8) 0.7668(5) 0.2987(9)
O7 O -0.065(3) 0.8814(15) 0.289(4)
O8 O 0.0872(3) 0.8326(2) 0.3155(3)
O9 O 0.0115(3) 0.8273(3) 0.4454(3)
Cu2C Cu 0.21091(5) 0.75593(3) 0.85222(5)
N7C N 0.2035(3) 0.7489(2) 0.2007(3)
Cl2 Cl 0.51320(11) 0.25412(9) 0.39226(11)
O10 O 0.4680(12) 0.2977(12) 0.311(2)
O11 O 0.4467(12) 0.1983(13) 0.383(2)
O12 O 0.519(3) 0.2965(18) 0.479(3)
O13 O 0.594(5) 0.232(4) 0.364(7)
Cl3 Cl 0.16421(14) 1.00590(9) 0.14498(14)
O14 O 0.2430(13) 0.9673(10) 0.1895(14)
O15 O 0.0965(11) 1.0527(10) 0.1714(18)
O16 O 0.1906(9) 1.0492(6) 0.0696(10)
O17 O 0.095(4) 0.964(2) 0.094(3)
Cl4 Cl 0.31322(13) 0.50533(8) 0.18346(12)
O18 O 0.3617(5) 0.4525(3) 0.1520(6)
O19 O 0.3650(3) 0.5642(2) 0.1892(4)
O20 O 0.2979(5) 0.4876(4) 0.2777(5)
O21 O 0.2262(3) 0.5154(3) 0.1168(4)
O22 O 0.1824(4) 1.0554(2) 0.4236(4)
H33 H 0.1600 1.0270 0.4633
H34 H 0.2293 1.0291 0.4190
O23 O 0.1186(7) 0.5546(5) 0.3929(8)
H35 H 0.0858 0.5803 0.3511
C21 C 0.0965(11) 0.4832(6) 0.3612(14)
H36 H 0.0453 0.4823 0.3020
H37 H 0.0799 0.4588 0.4161
H38 H 0.1500 0.4623 0.3451
H39? H 0.1265 0.6351 0.3271
H40? H 0.0573 0.6883 0.3095
Cl5? Cl 0.0220(4) 0.8598(3) 0.3574(4)
O24? O 0.0519(9) 0.9249(6) 0.3854(10)
O25? O -0.063(3) 0.8579(17) 0.293(5)
O26? O 0.4429(14) 0.2814(14) 0.323(2)
O27? O 0.4815(14) 0.1874(15) 0.412(3)
O28? O 0.530(4) 0.275(2) 0.492(3)
O29? O 0.597(5) 0.245(4) 0.372(7)
O30? O 0.1981(14) 0.9653(11) 0.2331(16)
O31? O 0.2328(13) 1.0390(10) 0.1210(19)
O32? O 0.1376(11) 1.0513(8) 0.2088(12)
O33? O 0.111(4) 0.963(3) 0.073(4)
O34? O 0.1203(9) 0.5724(7) 0.2475(11)
H41? H 0.1139 0.5691 0.1849
C22? C 0.0982(18) 0.5154(10) 0.3055(18)
H42? H 0.0849 0.5316 0.3680
H43? H 0.1503 0.4848 0.3213
H44? H 0.0447 0.4920 0.2658
O35? O 0.2614(14) 0.5562(10) 0.4416(15)
loop_
_geom_bond_atom_site_label_1
_geom_bond_atom_site_label_2
_geom_bond_site_symmetry_1
_geom_bond_site_symmetry_2
Cu1 O1 1_555 1_555
O1 H1 1_555 1_555
O2 Cu1 1_555 1_555
O3 Cu1 1_555 1_555
N1 Cu1 1_555 1_555
N2 Cu1 1_555 1_555
N3 Cu1 1_555 1_555
H2 O1 1_555 1_555
H3 O2 1_555 1_555
H4 O2 1_555 1_555
H5 O3 1_555 1_555
C1 O3 1_555 1_555
C2 N1 1_555 1_555
C3 N1 1_555 1_555
C4 N2 1_555 1_555
C5 N2 1_555 1_555
H6 C1 1_555 1_555
H7 C1 1_555 1_555
H8 C1 1_555 1_555
H9 C2 1_555 1_555
C6 C2 1_555 1_555
N4 C3 1_555 1_555
C7 C3 1_555 1_555
N5 C4 1_555 1_555
C8 C5 1_555 1_555
H10 C5 1_555 1_555
H11 C6 1_555 1_555
H12 N4 1_555 1_555
H13 C7 1_555 1_555
C9 N5 1_555 1_555
H14 C8 1_555 1_555
C10 C9 1_555 1_555
H15 C10 1_555 1_555
H16 C10 1_555 1_555
H17 C10 1_555 1_555
Cu2 O4 1_555 1_555
O4 H18 1_555 1_555
H19 O4 1_555 1_555
O5 Cu2 1_555 1_555
H20 O5 1_555 1_555
N6 Cu2 1_555 1_555
N7 C12 1_555 1_555
N8 H21 1_555 1_555
N9 C15 1_555 1_555
N10 Cu2 1_555 1_555
C11 N6 1_555 1_555
H22 C11 1_555 1_555
C12 C11 1_555 1_555
H23 C12 1_555 1_555
C13 N7 1_555 1_555
H24 C13 1_555 1_555
C14 N6 1_555 1_555
C15 N8 1_555 1_555
C16 N9 1_555 1_555
C17 C16 1_555 1_555
H25 C17 1_555 1_555
C18 N10 1_555 1_555
H26 C18 1_555 1_555
C19 C16 1_555 1_555
H27 C19 1_555 1_555
H28 C19 1_555 1_555
H29 C19 1_555 1_555
C20 O5 1_555 1_555
H30 C20 1_555 1_555
H31 C20 1_555 1_555
H32 C20 1_555 1_555
Cl1 O6 1_555 1_555
O7 Cl1 1_555 1_555
O8 Cu2 1_555 1_555
O9 Cl1 1_555 1_555
Cl2 O10 1_555 1_555
O11 Cl2 1_555 1_555
O12 Cl2 1_555 1_555
O13 Cl2 1_555 1_555
Cl3 O14 1_555 1_555
O15 Cl3 1_555 1_555
O16 Cl3 1_555 1_555
O17 Cl3 1_555 1_555
Cl4 O18 1_555 1_555
O19 Cl4 1_555 1_555
O20 Cl4 1_555 1_555
O21 Cl4 1_555 1_555
O22 H33 1_555 1_555
H34 O22 1_555 1_555
O23 H35 1_555 1_555
C21 O23 1_555 1_555
H36 C21 1_555 1_555
H37 C21 1_555 1_555
H38 C21 1_555 1_555
N3C C6 1_555 1_555
Cu1C N3C 1_555 1_555
Cu2C N7 1_555 1_555
N7C Cu2 1_555 1_555
C4 N4 1_555 1_555
C7 N3C 1_555 1_555
C8 C9 1_555 1_555
N8 C14 1_555 1_555
N10 C15 1_555 1_555
C13 C14 1_555 1_555
C17 C18 1_555 1_555
Cl1 O8 1_555 1_555

#END
