
#######################################################################
#
#                 Cambridge Crystallographic Data Centre
#                                CCDC 
#
#######################################################################
#
# If this CIF has been generated from an entry in the Cambridge 
# Structural Database, then it will include bibliographic, chemical, 
# crystal, experimental, refinement or atomic coordinate data resulting 
# from the CCDC's data processing and validation procedures.
#
#######################################################################

data_TODKII
_symmetry_cell_setting           triclinic
_symmetry_space_group_name_H-M   'P -1'
_symmetry_Int_Tables_number      2
_space_group_name_Hall           '-P 1'
loop_
_symmetry_equiv_pos_site_id
_symmetry_equiv_pos_as_xyz
1 x,y,z
2 -x,-y,-z
_cell_length_a                   6.8829(14)
_cell_length_b                   10.916(2)
_cell_length_c                   13.941(3)
_cell_angle_alpha                101.31(3)
_cell_angle_beta                 103.97(3)
_cell_angle_gamma                96.41(3)
_cell_volume                     982.709
loop_
_atom_site_label
_atom_site_type_symbol
_atom_site_fract_x
_atom_site_fract_y
_atom_site_fract_z
N1 N 0.8124(10) 0.1911(6) 0.3325(5)
Cd1 Cd 0.67661(5) 0.41043(3) 0.45227(3)
N2 N 0.6659(7) 0.5706(5) 0.5933(4)
N3 N 0.7797(8) 0.5853(5) 0.6725(4)
N4 N 0.6767(9) 0.2517(6) 0.3206(5)
N5 N 0.8329(7) 0.5640(5) 0.3839(4)
C1 C 0.7685(9) 0.5959(7) 0.2963(5)
C2 C 0.5647(11) 0.5463(8) 0.2217(6)
H1 H 0.4712 0.5145 0.2567
H2 H 0.5129 0.6152 0.1948
N6 N 1.0288(7) 0.6296(4) 0.4286(3)
N7 N 1.4208(7) 0.7429(4) 0.4562(4)
N8 N 0.9153(7) 0.6778(5) 0.2827(4)
C3 C 1.0763(8) 0.6959(5) 0.3658(4)
C4 C 1.2754(8) 0.7741(5) 0.3867(4)
C5 C 1.6094(9) 0.8057(6) 0.4781(5)
H3 H 1.7114 0.7838 0.5258
C6 C 0.9099(11) 0.7229(8) 0.1910(6)
C7 C 1.5117(10) 0.9354(6) 0.3647(5)
H4 H 1.5434 1.0005 0.3341
C8 C 0.9138(15) 0.7977(10) 0.0146(7)
H5 H 0.9133 0.8228 -0.0454
C9 C 0.8072(13) 0.8166(9) 0.1719(6)
H6 H 0.7397 0.8551 0.2169
C10 C 1.3122(10) 0.8723(6) 0.3403(5)
H7 H 1.2079 0.8952 0.2946
C11 C 1.6590(9) 0.9013(6) 0.4333(5)
H8 H 1.7925 0.9424 0.4497
C12 C 1.0147(15) 0.7097(10) 0.0376(7)
H9 H 1.0864 0.6731 -0.0059
C13 C 1.0178(13) 0.6689(9) 0.1267(6)
H10 H 1.0917 0.6059 0.1427
C14 C 0.8058(16) 0.8554(10) 0.0780(8)
C15 C 0.5730(14) 0.4411(9) 0.1343(7)
H11 H 0.6412 0.4760 0.0908
H12 H 0.4374 0.4013 0.0962
H13 H 0.6456 0.3794 0.1606
C16 C 0.6978(18) 0.9623(12) 0.0583(9)
H14 H 0.7029 0.9771 -0.0068
H15 H 0.7621 1.0373 0.1102
H16 H 0.5588 0.9417 0.0587
N9 N 0.8953(10) 0.5969(8) 0.7506(5)
N10 N 0.9404(11) 0.1270(7) 0.3409(6)
Cd1A Cd 0.32339(5) 0.58957(3) 0.54773(3)
Cd1A_2 Cd 1.32339(5) 0.58957(3) 0.54773(3)
N2A N 0.3341(7) 0.4294(5) 0.4067(4)
N6A N 0.9712(7) 0.3704(4) 0.5714(3)
N7A N 0.5792(7) 0.2571(4) 0.5438(4)
O1 O 0.2577(13) 0.1014(8) 0.2139(7)
H17 H 0.318(18) 0.142(11) 0.183(9)
H18 H 0.35(2) 0.158(12) 0.252(12)
loop_
_geom_bond_atom_site_label_1
_geom_bond_atom_site_label_2
_geom_bond_site_symmetry_1
_geom_bond_site_symmetry_2
N1 N4 1_555 1_555
Cd1 N2 1_555 1_555
N2 N3 1_555 1_555
N3 N9 1_555 1_555
N4 Cd1 1_555 1_555
N5 Cd1 1_555 1_555
C1 N5 1_555 1_555
C2 C1 1_555 1_555
H1 C2 1_555 1_555
H2 C2 1_555 1_555
N6 N5 1_555 1_555
N7 C4 1_555 1_555
N8 C1 1_555 1_555
C3 N6 1_555 1_555
C4 C3 1_555 1_555
C5 N7 1_555 1_555
H3 C5 1_555 1_555
C6 N8 1_555 1_555
C7 H4 1_555 1_555
C8 H5 1_555 1_555
C9 C6 1_555 1_555
H6 C9 1_555 1_555
C10 C4 1_555 1_555
H7 C10 1_555 1_555
C11 C5 1_555 1_555
H8 C11 1_555 1_555
C12 C8 1_555 1_555
H9 C12 1_555 1_555
C13 C6 1_555 1_555
H10 C13 1_555 1_555
C14 C8 1_555 1_555
C15 C2 1_555 1_555
H11 C15 1_555 1_555
H12 C15 1_555 1_555
H13 C15 1_555 1_555
C16 C14 1_555 1_555
H14 C16 1_555 1_555
H15 C16 1_555 1_555
H16 C16 1_555 1_555
N10 N1 1_555 1_555
O1 H17 1_555 1_555
H18 O1 1_555 1_555
Cd1A N2 1_555 1_555
Cd1A_2 N6 1_555 1_555
N2A Cd1 1_555 1_555
N6A Cd1 1_555 1_555
N7A Cd1 1_555 1_555
N7 Cd1A_2 1_555 1_555
N8 C3 1_555 1_555
C7 C10 1_555 1_555
C7 C11 1_555 1_555
C9 C14 1_555 1_555
C12 C13 1_555 1_555
Cd1A N2A 1_555 1_555

#END
