
#######################################################################
#
#                 Cambridge Crystallographic Data Centre
#                                CCDC 
#
#######################################################################
#
# If this CIF has been generated from an entry in the Cambridge 
# Structural Database, then it will include bibliographic, chemical, 
# crystal, experimental, refinement or atomic coordinate data resulting 
# from the CCDC's data processing and validation procedures.
#
#######################################################################

data_TODLUV
_symmetry_cell_setting           monoclinic
_symmetry_space_group_name_H-M   'P 21/c'
_symmetry_Int_Tables_number      14
_space_group_name_Hall           '-P 2ybc'
loop_
_symmetry_equiv_pos_site_id
_symmetry_equiv_pos_as_xyz
1 x,y,z
2 -x,1/2+y,1/2-z
3 -x,-y,-z
4 x,1/2-y,1/2+z
_cell_length_a                   15.1501(13)
_cell_length_b                   8.2900(7)
_cell_length_c                   12.3879(11)
_cell_angle_alpha                90
_cell_angle_beta                 96.936(2)
_cell_angle_gamma                90
_cell_volume                     1544.46
loop_
_atom_site_label
_atom_site_type_symbol
_atom_site_fract_x
_atom_site_fract_y
_atom_site_fract_z
Ag1 Ag 1.08271(2) 0.42668(4) 0.97501(2)
S1 S 0.76232(8) 0.33620(12) 0.27351(7)
O1 O 0.8883(2) 0.5799(3) 0.8464(2)
O2 O 0.9989(2) 0.4112(3) 0.81849(19)
N1 N 0.6551(2) 0.3178(4) 0.0795(2)
N2 N 0.6434(3) 0.3882(5) -0.0212(3)
N3 N 0.7071(3) 0.4924(5) -0.0222(3)
N4 N 0.7620(2) 0.4911(4) 0.0755(2)
C1 C 0.9312(3) 0.4953(4) 0.7860(3)
C2 C 0.9003(3) 0.4942(4) 0.6663(2)
C3 C 0.9312(3) 0.3776(5) 0.5982(3)
H1 H 0.9694 0.2969 0.6278
C4 C 0.9052(3) 0.3816(5) 0.4862(3)
H2 H 0.9251 0.3021 0.4420
C5 C 0.8498(3) 0.5033(4) 0.4402(3)
C6 C 0.8172(3) 0.6176(4) 0.5071(3)
H3 H 0.7788 0.6976 0.4769
C7 C 0.8419(3) 0.6130(4) 0.6195(3)
H4 H 0.8193 0.6897 0.6636
C8 C 0.8253(3) 0.5159(5) 0.3169(3)
H5 H 0.8787 0.5223 0.2809
H6 H 0.7899 0.6117 0.2988
C9 C 0.7280(3) 0.3840(4) 0.1379(3)
C10 C 0.5951(3) 0.1960(5) 0.1099(3)
C11 C 0.6302(4) 0.0633(5) 0.1684(4)
H7 H 0.6912 0.0526 0.1866
C12 C 0.5722(5) -0.0535(7) 0.1991(5)
H8 H 0.5941 -0.1417 0.2403
C13 C 0.4812(5) -0.0378(8) 0.1679(5)
H9 H 0.4423 -0.1170 0.1864
C14 C 0.4501(4) 0.0925(8) 0.1110(4)
H10 H 0.3891 0.1017 0.0908
C15 C 0.5052(3) 0.2131(6) 0.0813(3)
H11 H 0.4821 0.3033 0.0431
Ag1B Ag 0.91729(2) 0.57332(4) 0.02499(2)
Ag1B_2 Ag 0.91729(2) 0.57332(4) 1.02499(2)
O1B O 1.1117(2) 0.4201(3) 1.1536(2)
N4B N 1.2380(2) 0.5089(4) 0.9245(2)
loop_
_geom_bond_atom_site_label_1
_geom_bond_atom_site_label_2
_geom_bond_site_symmetry_1
_geom_bond_site_symmetry_2
Ag1 O2 1_555 1_555
S1 C8 1_555 1_555
O1 C1 1_555 1_555
O2 C1 1_555 1_555
N1 N2 1_555 1_555
N2 N3 1_555 1_555
N3 N4 1_555 1_555
N4 C9 1_555 1_555
C1 C2 1_555 1_555
C2 C3 1_555 1_555
C3 H1 1_555 1_555
C4 C3 1_555 1_555
H2 C4 1_555 1_555
C5 C4 1_555 1_555
C6 C5 1_555 1_555
H3 C6 1_555 1_555
C7 C2 1_555 1_555
H4 C7 1_555 1_555
C8 C5 1_555 1_555
H5 C8 1_555 1_555
H6 C8 1_555 1_555
C9 S1 1_555 1_555
C10 N1 1_555 1_555
C11 C10 1_555 1_555
H7 C11 1_555 1_555
C12 C11 1_555 1_555
H8 C12 1_555 1_555
C13 C12 1_555 1_555
H9 C13 1_555 1_555
C14 C13 1_555 1_555
H10 C14 1_555 1_555
C15 C10 1_555 1_555
H11 C15 1_555 1_555
Ag1B N4 1_555 1_555
Ag1B_2 Ag1 1_555 1_555
O1B Ag1 1_555 1_555
N4B Ag1 1_555 1_555
O1 Ag1B_2 1_555 1_555
N1 C9 1_555 1_555
C6 C7 1_555 1_555
C14 C15 1_555 1_555

#END
