
#######################################################################
#
#                 Cambridge Crystallographic Data Centre
#                                CCDC 
#
#######################################################################
#
# If this CIF has been generated from an entry in the Cambridge 
# Structural Database, then it will include bibliographic, chemical, 
# crystal, experimental, refinement or atomic coordinate data resulting 
# from the CCDC's data processing and validation procedures.
#
#######################################################################

data_TODROV
_symmetry_cell_setting           monoclinic
_symmetry_space_group_name_H-M   'C 2/c'
_symmetry_Int_Tables_number      15
_space_group_name_Hall           '-C 2yn'
loop_
_symmetry_equiv_pos_site_id
_symmetry_equiv_pos_as_xyz
1 x,y,z
2 -x,y,1/2-z
3 1/2+x,1/2+y,z
4 1/2-x,1/2+y,1/2-z
5 -x,-y,-z
6 x,-y,1/2+z
7 1/2-x,1/2-y,-z
8 1/2+x,1/2-y,1/2+z
_cell_length_a                   20.084(4)
_cell_length_b                   18.534(4)
_cell_length_c                   13.831(4)
_cell_angle_alpha                90
_cell_angle_beta                 117.639(2)
_cell_angle_gamma                90
_cell_volume                     4560.91
loop_
_atom_site_label
_atom_site_type_symbol
_atom_site_fract_x
_atom_site_fract_y
_atom_site_fract_z
Tb1 Tb 0.14899(3) 0.18457(3) 0.27245(4)
S1 S 0.04676(17) 0.11939(17) -0.6010(2)
S2 S 0.1941(2) 0.2682(2) -0.2214(3)
O1 O -0.0354(4) 0.1192(4) -0.6596(6)
O2 O 0.1827(5) 0.2907(5) 0.3829(7)
N1 N 0.1302(5) 0.1691(5) 0.0808(8)
C1 C 0.0706(6) 0.1307(6) -0.4618(9)
C2 C 0.0944(7) 0.2195(6) 0.0038(9)
C3 C 0.1067(7) 0.1473(7) -0.2421(9)
N2 N 0.2010(6) 0.0724(6) 0.2397(8)
N3 N 0.0800(6) 0.2845(6) 0.1445(8)
O3 O 0.0762(5) 0.1833(5) -0.6308(7)
C4 C 0.1313(7) 0.1981(6) -0.2942(9)
C5 C 0.0493(7) 0.0797(7) -0.4102(9)
H1 H 0.0229 0.0393 -0.4487
C6 C 0.0667(7) 0.0875(7) -0.3008(10)
H2 H 0.0514 0.0526 -0.2671
C7 C 0.1570(6) 0.1100(6) 0.0521(9)
O4 O 0.2395(5) 0.2760(5) -0.2781(7)
O5 O 0.2592(5) 0.3397(5) 0.5450(7)
C8 C 0.2336(8) 0.2880(7) 0.4790(11)
C9 C 0.1491(7) 0.1016(7) -0.0515(9)
H3 H 0.1659 0.0597 -0.0700
O6 O 0.2373(7) 0.2430(8) -0.1126(8)
C10 C 0.1131(6) 0.1878(7) -0.4030(9)
H4 H 0.1303 0.2209 -0.4370
C11 C 0.0887(7) 0.2157(7) -0.0983(9)
H5 H 0.0666 0.2533 -0.1474
C12 C 0.0638(8) 0.2813(7) 0.0395(11)
C13 C 0.2401(8) 0.0257(7) 0.3213(11)
H6 H 0.2461 0.0367 0.3904
O7 O 0.0790(5) 0.0533(5) -0.6094(7)
C14 C 0.1954(6) 0.0561(7) 0.1381(9)
C15 C 0.1157(7) 0.1560(7) -0.1292(10)
O8 O 0.1476(7) 0.3303(6) -0.2337(13)
C16 C 0.2255(8) -0.0073(7) 0.1221(12)
H7 H 0.2195 -0.0184 0.0529
C17 C 0.0170(10) 0.3320(8) -0.0335(14)
H8 H 0.0059 0.3287 -0.1066
C18 C 0.2639(8) -0.0536(8) 0.2067(12)
H9 H 0.2846 -0.0957 0.1958
C19 C 0.2716(9) -0.0371(8) 0.3090(12)
H10 H 0.2975 -0.0679 0.3679
C20 C 0.0530(8) 0.3398(7) 0.1779(12)
H11 H 0.0667 0.3436 0.2518
C21 C 0.0067(11) 0.3904(9) 0.1091(14)
H12 H -0.0114 0.4272 0.1361
C22 C -0.0138(12) 0.3877(10) -0.0001(15)
H13 H -0.0465 0.4213 -0.0491
O2F O 0.3173(5) 0.2093(5) 0.6171(7)
O5F O 0.2408(5) 0.1603(5) 0.4550(7)
C8F C 0.2664(8) 0.2120(7) 0.5210(11)
Tb1A Tb -0.14899(3) 0.18457(3) -0.77245(4)
S1A S -0.04676(17) 0.11939(17) 0.1010(2)
S2A S -0.1941(2) 0.2682(2) -0.2786(3)
O1A O 0.0354(4) 0.1192(4) 0.1596(6)
N1A N -0.1302(5) 0.1691(5) -0.5808(8)
C1A C -0.0706(6) 0.1307(6) -0.0382(9)
C2A C -0.0944(7) 0.2195(6) -0.5038(9)
C3A C -0.1067(7) 0.1473(7) -0.2579(9)
N2A N -0.2010(6) 0.0724(6) -0.7397(8)
N3A N -0.0800(6) 0.2845(6) -0.6445(8)
O3A O -0.0762(5) 0.1833(5) 0.1308(7)
C4A C -0.1313(7) 0.1981(6) -0.2058(9)
C5A C -0.0493(7) 0.0797(7) -0.0898(9)
H1A H -0.0229 0.0393 -0.0513
C6A C -0.0667(7) 0.0875(7) -0.1992(10)
H2A H -0.0514 0.0526 -0.2329
C7A C -0.1570(6) 0.1100(6) -0.5521(9)
O4A O -0.2395(5) 0.2760(5) -0.2219(7)
C9A C -0.1491(7) 0.1016(7) -0.4485(9)
H3A H -0.1659 0.0597 -0.4300
O6A O -0.2373(7) 0.2430(8) -0.3874(8)
C10A C -0.1131(6) 0.1878(7) -0.0970(9)
H4A H -0.1303 0.2209 -0.0630
C11A C -0.0887(7) 0.2157(7) -0.4017(9)
H5A H -0.0666 0.2533 -0.3526
C12A C -0.0638(8) 0.2813(7) -0.5395(11)
C13A C -0.2401(8) 0.0257(7) -0.8213(11)
H6A H -0.2461 0.0367 -0.8904
O7A O -0.0790(5) 0.0533(5) 0.1094(7)
C14A C -0.1954(6) 0.0561(7) -0.6381(9)
C15A C -0.1157(7) 0.1560(7) -0.3708(10)
O8A O -0.1476(7) 0.3303(6) -0.2663(13)
C16A C -0.2255(8) -0.0073(7) -0.6221(12)
H7A H -0.2195 -0.0184 -0.5529
C17A C -0.0170(10) 0.3320(8) -0.4665(14)
H8A H -0.0059 0.3287 -0.3934
C18A C -0.2639(8) -0.0536(8) -0.7067(12)
H9A H -0.2846 -0.0957 -0.6958
C19A C -0.2716(9) -0.0371(8) -0.8090(12)
H10A H -0.2975 -0.0679 -0.8679
C20A C -0.0530(8) 0.3398(7) -0.6779(12)
H11A H -0.0667 0.3436 -0.7518
C21A C -0.0067(11) 0.3904(9) -0.6091(14)
H12A H 0.0114 0.4272 -0.6361
C22A C 0.0138(12) 0.3877(10) -0.4999(15)
H13A H 0.0465 0.4213 -0.4509
Tb1_2 Tb 0.14899(3) 0.18457(3) -0.72755(4)
Tb1A_2 Tb -0.14899(3) 0.18457(3) 0.22755(4)
Tb1F Tb 0.35101(3) 0.31543(3) -0.27245(4)
Tb1F_2 Tb 0.35101(3) 0.31543(3) 0.72755(4)
Tb1G Tb -0.35101(3) 0.31543(3) -0.22755(4)
O2A O -0.1827(5) 0.2907(5) -0.8829(7)
O3_2 O 0.0762(5) 0.1833(5) 0.3692(7)
O3A_2 O -0.0762(5) 0.1833(5) -0.8692(7)
O4F O 0.2605(5) 0.2240(5) 0.2781(7)
O4G O -0.2605(5) 0.2240(5) -0.7781(7)
O5G O -0.2408(5) 0.1603(5) -0.9550(7)
O9 O 0.159(3) 0.392(3) -0.057(5)
H14 H 0.1498 0.3825 -0.1212
H15 H 0.1814 0.3596 -0.0165
loop_
_geom_bond_atom_site_label_1
_geom_bond_atom_site_label_2
_geom_bond_site_symmetry_1
_geom_bond_site_symmetry_2
Tb1 O2 1_555 1_555
S1 O1 1_555 1_555
S2 C4 1_555 1_555
O1 Tb1A 1_555 1_555
O2 C8 1_555 1_555
N1 Tb1 1_555 1_555
C1 S1 1_555 1_555
C2 N1 1_555 1_555
C3 C4 1_555 1_555
N2 Tb1 1_555 1_555
N3 Tb1 1_555 1_555
O3 S1 1_555 1_555
C4 C10 1_555 1_555
C5 C1 1_555 1_555
H1 C5 1_555 1_555
C6 C3 1_555 1_555
H2 C6 1_555 1_555
C7 N1 1_555 1_555
O4 S2 1_555 1_555
O5 C8 1_555 1_555
C8 C8F 1_555 1_555
C9 C7 1_555 1_555
H3 C9 1_555 1_555
O6 S2 1_555 1_555
C10 C1 1_555 1_555
H4 C10 1_555 1_555
C11 C2 1_555 1_555
H5 C11 1_555 1_555
C12 C2 1_555 1_555
C13 N2 1_555 1_555
H6 C13 1_555 1_555
O7 S1 1_555 1_555
C14 N2 1_555 1_555
C15 C3 1_555 1_555
O8 S2 1_555 1_555
C16 C14 1_555 1_555
H7 C16 1_555 1_555
C17 C12 1_555 1_555
H8 C17 1_555 1_555
C18 C16 1_555 1_555
H9 C18 1_555 1_555
C19 C13 1_555 1_555
H10 C19 1_555 1_555
C20 N3 1_555 1_555
H11 C20 1_555 1_555
C21 C20 1_555 1_555
H12 C21 1_555 1_555
C22 C17 1_555 1_555
H13 C22 1_555 1_555
O9 H14 1_555 1_555
H15 O9 1_555 1_555
O2F C8F 1_555 1_555
O5F Tb1 1_555 1_555
C8F O5F 1_555 1_555
Tb1A N1A 1_555 1_555
S1A O1A 1_555 1_555
S2A C4A 1_555 1_555
O1A Tb1 1_555 1_555
N1A C2A 1_555 1_555
C1A S1A 1_555 1_555
C2A C11A 1_555 1_555
C3A C4A 1_555 1_555
N2A Tb1A 1_555 1_555
N3A Tb1A 1_555 1_555
O3A S1A 1_555 1_555
C4A C10A 1_555 1_555
C5A C1A 1_555 1_555
H1A C5A 1_555 1_555
C6A C3A 1_555 1_555
H2A C6A 1_555 1_555
C7A N1A 1_555 1_555
O4A S2A 1_555 1_555
C9A C7A 1_555 1_555
H3A C9A 1_555 1_555
O6A S2A 1_555 1_555
C10A C1A 1_555 1_555
H4A C10A 1_555 1_555
C11A H5A 1_555 1_555
C12A C2A 1_555 1_555
C13A N2A 1_555 1_555
H6A C13A 1_555 1_555
O7A S1A 1_555 1_555
C14A N2A 1_555 1_555
C15A C3A 1_555 1_555
O8A S2A 1_555 1_555
C16A C14A 1_555 1_555
H7A C16A 1_555 1_555
C17A C12A 1_555 1_555
H8A C17A 1_555 1_555
C18A C16A 1_555 1_555
H9A C18A 1_555 1_555
C19A C13A 1_555 1_555
H10A C19A 1_555 1_555
C20A N3A 1_555 1_555
H11A C20A 1_555 1_555
C21A C20A 1_555 1_555
H12A C21A 1_555 1_555
C22A C17A 1_555 1_555
H13A C22A 1_555 1_555
Tb1_2 O3 1_555 1_555
Tb1A_2 O3A 1_555 1_555
Tb1F O4 1_555 1_555
Tb1F_2 O5 1_555 1_555
Tb1G O4A 1_555 1_555
O2A Tb1A 1_555 1_555
O3_2 Tb1 1_555 1_555
O3A_2 Tb1A 1_555 1_555
O4F Tb1 1_555 1_555
O4G Tb1A 1_555 1_555
O5G Tb1A 1_555 1_555
N3 C12 1_555 1_555
C5 C6 1_555 1_555
C7 C14 1_555 1_555
C9 C15 1_555 1_555
C11 C15 1_555 1_555
C18 C19 1_555 1_555
C21 C22 1_555 1_555
O2F Tb1F_2 1_555 1_555
N3A C12A 1_555 1_555
C5A C6A 1_555 1_555
C7A C14A 1_555 1_555
C9A C15A 1_555 1_555
C11A C15A 1_555 1_555
C18A C19A 1_555 1_555
C21A C22A 1_555 1_555

#END
