
#######################################################################
#
#                 Cambridge Crystallographic Data Centre
#                                CCDC 
#
#######################################################################
#
# If this CIF has been generated from an entry in the Cambridge 
# Structural Database, then it will include bibliographic, chemical, 
# crystal, experimental, refinement or atomic coordinate data resulting 
# from the CCDC's data processing and validation procedures.
#
#######################################################################

data_TODRUB
_symmetry_cell_setting           monoclinic
_symmetry_space_group_name_H-M   'C 2/c'
_symmetry_Int_Tables_number      15
_space_group_name_Hall           '-C 2yn'
loop_
_symmetry_equiv_pos_site_id
_symmetry_equiv_pos_as_xyz
1 x,y,z
2 -x,y,1/2-z
3 1/2+x,1/2+y,z
4 1/2-x,1/2+y,1/2-z
5 -x,-y,-z
6 x,-y,1/2+z
7 1/2-x,1/2-y,-z
8 1/2+x,1/2-y,1/2+z
_cell_length_a                   20.010(3)
_cell_length_b                   18.516(2)
_cell_length_c                   13.7905(18)
_cell_angle_alpha                90
_cell_angle_beta                 117.896(2)
_cell_angle_gamma                90
_cell_volume                     4515.72
loop_
_atom_site_label
_atom_site_type_symbol
_atom_site_fract_x
_atom_site_fract_y
_atom_site_fract_z
Er1 Er 0.14937(2) 0.18630(2) 0.27210(3)
S1 S 0.04645(14) 0.11955(14) -0.60175(18)
S2 S 0.19537(18) 0.2679(2) -0.2201(2)
O1 O -0.0354(3) 0.1215(4) -0.6619(5)
O2 O 0.1823(4) 0.2910(3) 0.3813(5)
N1 N 0.1296(4) 0.1694(4) 0.0816(6)
C1 C 0.0697(5) 0.1315(6) -0.4613(7)
C2 C 0.0950(6) 0.2210(6) 0.0055(8)
C3 C 0.1073(5) 0.1472(6) -0.2400(7)
N2 N 0.2000(4) 0.0730(5) 0.2424(6)
N3 N 0.0796(5) 0.2846(5) 0.1468(6)
O3 O 0.0788(4) 0.1812(4) -0.6309(5)
C4 C 0.1307(5) 0.1980(5) -0.2931(7)
C5 C 0.0486(6) 0.0803(6) -0.4097(8)
H1 H 0.0221 0.0397 -0.4483
C6 C 0.0665(6) 0.0882(6) -0.2995(7)
H2 H 0.0508 0.0535 -0.2658
C7 C 0.1559(5) 0.1109(5) 0.0541(7)
O4 O 0.2411(4) 0.2738(4) -0.2760(5)
O5 O 0.2596(4) 0.3394(4) 0.5459(5)
C8 C 0.2340(6) 0.2873(5) 0.4792(8)
C9 C 0.1506(5) 0.1026(5) -0.0490(7)
H3 H 0.1696 0.0615 -0.0663
O6 O 0.2387(6) 0.2446(7) -0.1102(6)
C10 C 0.1134(5) 0.1889(5) -0.4031(7)
H4 H 0.1315 0.2216 -0.4366
C11 C 0.0898(6) 0.2175(6) -0.0977(7)
H5 H 0.0688 0.2555 -0.1469
C12 C 0.0626(6) 0.2825(6) 0.0391(8)
C13 C 0.2381(7) 0.0269(6) 0.3257(8)
H6 H 0.2436 0.0383 0.3947
O7 O 0.0768(4) 0.0524(4) -0.6098(5)
C14 C 0.1946(5) 0.0561(5) 0.1413(7)
C15 C 0.1161(5) 0.1572(6) -0.1266(7)
O8 O 0.1503(6) 0.3298(6) -0.2317(11)
C16 C 0.2242(6) -0.0066(6) 0.1272(8)
H7 H 0.2183 -0.0172 0.0577
C17 C 0.0171(8) 0.3341(7) -0.0338(10)
H8 H 0.0069 0.3313 -0.1068
C18 C 0.2623(7) -0.0552(7) 0.2103(9)
H9 H 0.2821 -0.0978 0.1986
C19 C 0.2697(7) -0.0373(6) 0.3132(8)
H10 H 0.2955 -0.0678 0.3729
C20 C 0.0532(7) 0.3410(7) 0.1792(10)
H11 H 0.0673 0.3448 0.2535
C21 C 0.0064(8) 0.3941(7) 0.1099(11)
H12 H -0.0114 0.4315 0.1365
C22 C -0.0132(10) 0.3894(8) -0.0018(12)
H13 H -0.0458 0.4228 -0.0522
O2F O 0.3177(4) 0.2090(3) 0.6187(5)
O5F O 0.2404(4) 0.1606(4) 0.4541(5)
C8F C 0.2660(6) 0.2127(5) 0.5208(8)
Er1A Er -0.14937(2) 0.18630(2) -0.77210(3)
S1A S -0.04645(14) 0.11955(14) 0.10175(18)
S2A S -0.19537(18) 0.2679(2) -0.2799(2)
O1A O 0.0354(3) 0.1215(4) 0.1619(5)
N1A N -0.1296(4) 0.1694(4) -0.5816(6)
C1A C -0.0697(5) 0.1315(6) -0.0387(7)
C2A C -0.0950(6) 0.2210(6) -0.5055(8)
C3A C -0.1073(5) 0.1472(6) -0.2600(7)
N2A N -0.2000(4) 0.0730(5) -0.7424(6)
N3A N -0.0796(5) 0.2846(5) -0.6468(6)
O3A O -0.0788(4) 0.1812(4) 0.1309(5)
C4A C -0.1307(5) 0.1980(5) -0.2069(7)
C5A C -0.0486(6) 0.0803(6) -0.0903(8)
H1A H -0.0221 0.0397 -0.0517
C6A C -0.0665(6) 0.0882(6) -0.2005(7)
H2A H -0.0508 0.0535 -0.2342
C7A C -0.1559(5) 0.1109(5) -0.5541(7)
O4A O -0.2411(4) 0.2738(4) -0.2240(5)
C9A C -0.1506(5) 0.1026(5) -0.4510(7)
H3A H -0.1696 0.0615 -0.4337
O6A O -0.2387(6) 0.2446(7) -0.3898(6)
C10A C -0.1134(5) 0.1889(5) -0.0969(7)
H4A H -0.1315 0.2216 -0.0634
C11A C -0.0898(6) 0.2175(6) -0.4023(7)
H5A H -0.0688 0.2555 -0.3531
C12A C -0.0626(6) 0.2825(6) -0.5391(8)
C13A C -0.2381(7) 0.0269(6) -0.8257(8)
H6A H -0.2436 0.0383 -0.8947
O7A O -0.0768(4) 0.0524(4) 0.1098(5)
C14A C -0.1946(5) 0.0561(5) -0.6413(7)
C15A C -0.1161(5) 0.1572(6) -0.3734(7)
O8A O -0.1503(6) 0.3298(6) -0.2683(11)
C16A C -0.2242(6) -0.0066(6) -0.6272(8)
H7A H -0.2183 -0.0172 -0.5577
C17A C -0.0171(8) 0.3341(7) -0.4662(10)
H8A H -0.0069 0.3313 -0.3932
C18A C -0.2623(7) -0.0552(7) -0.7103(9)
H9A H -0.2821 -0.0978 -0.6986
C19A C -0.2697(7) -0.0373(6) -0.8132(8)
H10A H -0.2955 -0.0678 -0.8729
C20A C -0.0532(7) 0.3410(7) -0.6792(10)
H11A H -0.0673 0.3448 -0.7535
C21A C -0.0064(8) 0.3941(7) -0.6099(11)
H12A H 0.0114 0.4315 -0.6365
C22A C 0.0132(10) 0.3894(8) -0.4982(12)
H13A H 0.0458 0.4228 -0.4478
Er1_2 Er 0.14937(2) 0.18630(2) -0.72790(3)
Er1A_2 Er -0.14937(2) 0.18630(2) 0.22790(3)
Er1F Er 0.35063(2) 0.31370(2) -0.27210(3)
Er1F_2 Er 0.35063(2) 0.31370(2) 0.72790(3)
Er1G Er -0.35063(2) 0.31370(2) -0.22790(3)
O2A O -0.1823(4) 0.2910(3) -0.8813(5)
O3_2 O 0.0788(4) 0.1812(4) 0.3691(5)
O3A_2 O -0.0788(4) 0.1812(4) -0.8691(5)
O4F O 0.2589(4) 0.2262(4) 0.2760(5)
O4G O -0.2589(4) 0.2262(4) -0.7760(5)
O5G O -0.2404(4) 0.1606(4) -0.9541(5)
O9 O 0.3348(15) -0.1123(15) 0.545(2)
loop_
_geom_bond_atom_site_label_1
_geom_bond_atom_site_label_2
_geom_bond_site_symmetry_1
_geom_bond_site_symmetry_2
Er1 O2 1_555 1_555
S1 O1 1_555 1_555
S2 C4 1_555 1_555
O1 Er1A 1_555 1_555
O2 C8 1_555 1_555
N1 Er1 1_555 1_555
C1 S1 1_555 1_555
C2 N1 1_555 1_555
C3 C4 1_555 1_555
N2 Er1 1_555 1_555
N3 Er1 1_555 1_555
O3 S1 1_555 1_555
C4 C10 1_555 1_555
C5 C1 1_555 1_555
H1 C5 1_555 1_555
C6 C3 1_555 1_555
H2 C6 1_555 1_555
C7 N1 1_555 1_555
O4 S2 1_555 1_555
O5 C8 1_555 1_555
C8 C8F 1_555 1_555
C9 C7 1_555 1_555
H3 C9 1_555 1_555
O6 S2 1_555 1_555
C10 C1 1_555 1_555
H4 C10 1_555 1_555
C11 C2 1_555 1_555
H5 C11 1_555 1_555
C12 C2 1_555 1_555
C13 N2 1_555 1_555
H6 C13 1_555 1_555
O7 S1 1_555 1_555
C14 N2 1_555 1_555
C15 C3 1_555 1_555
O8 S2 1_555 1_555
C16 C14 1_555 1_555
H7 C16 1_555 1_555
C17 C12 1_555 1_555
H8 C17 1_555 1_555
C18 C16 1_555 1_555
H9 C18 1_555 1_555
C19 C13 1_555 1_555
H10 C19 1_555 1_555
C20 N3 1_555 1_555
H11 C20 1_555 1_555
C21 C20 1_555 1_555
H12 C21 1_555 1_555
C22 C17 1_555 1_555
H13 C22 1_555 1_555
O2F C8F 1_555 1_555
O5F Er1 1_555 1_555
C8F O5F 1_555 1_555
Er1A N1A 1_555 1_555
S1A O1A 1_555 1_555
S2A C4A 1_555 1_555
O1A Er1 1_555 1_555
N1A C2A 1_555 1_555
C1A S1A 1_555 1_555
C2A C11A 1_555 1_555
C3A C4A 1_555 1_555
N2A Er1A 1_555 1_555
N3A Er1A 1_555 1_555
O3A S1A 1_555 1_555
C4A C10A 1_555 1_555
C5A C1A 1_555 1_555
H1A C5A 1_555 1_555
C6A C3A 1_555 1_555
H2A C6A 1_555 1_555
C7A N1A 1_555 1_555
O4A S2A 1_555 1_555
C9A C7A 1_555 1_555
H3A C9A 1_555 1_555
O6A S2A 1_555 1_555
C10A C1A 1_555 1_555
H4A C10A 1_555 1_555
C11A H5A 1_555 1_555
C12A C2A 1_555 1_555
C13A N2A 1_555 1_555
H6A C13A 1_555 1_555
O7A S1A 1_555 1_555
C14A N2A 1_555 1_555
C15A C3A 1_555 1_555
O8A S2A 1_555 1_555
C16A C14A 1_555 1_555
H7A C16A 1_555 1_555
C17A C12A 1_555 1_555
H8A C17A 1_555 1_555
C18A C16A 1_555 1_555
H9A C18A 1_555 1_555
C19A C13A 1_555 1_555
H10A C19A 1_555 1_555
C20A N3A 1_555 1_555
H11A C20A 1_555 1_555
C21A C20A 1_555 1_555
H12A C21A 1_555 1_555
C22A C17A 1_555 1_555
H13A C22A 1_555 1_555
Er1_2 O3 1_555 1_555
Er1A_2 O3A 1_555 1_555
Er1F O4 1_555 1_555
Er1F_2 O5 1_555 1_555
Er1G O4A 1_555 1_555
O2A Er1A 1_555 1_555
O3_2 Er1 1_555 1_555
O3A_2 Er1A 1_555 1_555
O4F Er1 1_555 1_555
O4G Er1A 1_555 1_555
O5G Er1A 1_555 1_555
N3 C12 1_555 1_555
C5 C6 1_555 1_555
C7 C14 1_555 1_555
C9 C15 1_555 1_555
C11 C15 1_555 1_555
C18 C19 1_555 1_555
C21 C22 1_555 1_555
O2F Er1F_2 1_555 1_555
N3A C12A 1_555 1_555
C5A C6A 1_555 1_555
C7A C14A 1_555 1_555
C9A C15A 1_555 1_555
C11A C15A 1_555 1_555
C18A C19A 1_555 1_555
C21A C22A 1_555 1_555

#END
