
#######################################################################
#
#                 Cambridge Crystallographic Data Centre
#                                CCDC 
#
#######################################################################
#
# If this CIF has been generated from an entry in the Cambridge 
# Structural Database, then it will include bibliographic, chemical, 
# crystal, experimental, refinement or atomic coordinate data resulting 
# from the CCDC's data processing and validation procedures.
#
#######################################################################

data_TODREL
_symmetry_cell_setting           monoclinic
_symmetry_space_group_name_H-M   'C 2/c'
_symmetry_Int_Tables_number      15
_space_group_name_Hall           '-C 2yn'
loop_
_symmetry_equiv_pos_site_id
_symmetry_equiv_pos_as_xyz
1 x,y,z
2 -x,y,1/2-z
3 1/2+x,1/2+y,z
4 1/2-x,1/2+y,1/2-z
5 -x,-y,-z
6 x,-y,1/2+z
7 1/2-x,1/2-y,-z
8 1/2+x,1/2-y,1/2+z
_cell_length_a                   20.199(4)
_cell_length_b                   18.625(3)
_cell_length_c                   13.918(3)
_cell_angle_alpha                90
_cell_angle_beta                 117.069(2)
_cell_angle_gamma                90
_cell_volume                     4662.48
loop_
_atom_site_label
_atom_site_type_symbol
_atom_site_fract_x
_atom_site_fract_y
_atom_site_fract_z
Nd1 Nd 0.14786(4) 0.18108(4) 0.27429(5)
S1 S 0.04837(19) 0.12177(19) -0.6002(2)
S2 S 0.1930(2) 0.2677(2) -0.2218(3)
O1 O -0.0317(4) 0.1123(4) -0.6545(6)
O2 O 0.1812(5) 0.2909(5) 0.3822(7)
N1 N 0.1293(5) 0.1682(5) 0.0778(7)
C1 C 0.0725(6) 0.1312(6) -0.4608(9)
C2 C 0.0942(7) 0.2183(6) 0.0017(10)
C3 C 0.1064(6) 0.1467(6) -0.2434(9)
N2 N 0.2035(5) 0.0693(5) 0.2352(8)
N3 N 0.0809(5) 0.2824(5) 0.1438(8)
O3 O 0.0690(5) 0.1909(5) -0.6318(6)
C4 C 0.1334(6) 0.1965(6) -0.2923(9)
C5 C 0.0514(6) 0.0802(6) -0.4098(9)
H1 H 0.0259 0.0398 -0.4478
C6 C 0.0676(7) 0.0879(6) -0.3004(9)
H2 H 0.0520 0.0531 -0.2672
C7 C 0.1556(6) 0.1094(7) 0.0497(9)
O4 O 0.2366(5) 0.2779(5) -0.2804(6)
O5 O 0.2586(5) 0.3414(4) 0.5402(7)
C8 C 0.2308(9) 0.2878(8) 0.4759(15)
C9 C 0.1485(6) 0.1021(6) -0.0560(9)
H3 H 0.1655 0.0608 -0.0752
O6 O 0.2376(5) 0.2417(6) -0.1150(7)
C10 C 0.1151(6) 0.1880(6) -0.4012(9)
H4 H 0.1321 0.2214 -0.4344
C11 C 0.0876(6) 0.2141(6) -0.1021(9)
H5 H 0.0639 0.2504 -0.1519
C12 C 0.0641(7) 0.2784(7) 0.0375(10)
C13 C 0.2397(8) 0.0235(7) 0.3142(11)
H6 H 0.2430 0.0325 0.3820
O7 O 0.0891(5) 0.0639(5) -0.6117(7)
C14 C 0.1953(7) 0.0533(7) 0.1343(10)
C15 C 0.1163(6) 0.1563(6) -0.1299(9)
O8 O 0.1449(6) 0.3282(5) -0.2335(9)
C16 C 0.2261(7) -0.0082(7) 0.1145(11)
H7 H 0.2201 -0.0179 0.0454
C17 C 0.0162(8) 0.3275(7) -0.0363(12)
H8 H 0.0042 0.3226 -0.1089
C18 C 0.2650(7) -0.0541(8) 0.1969(11)
H9 H 0.2858 -0.0956 0.1847
C19 C 0.2735(8) -0.0385(7) 0.2991(11)
H10 H 0.3012 -0.0686 0.3569
C20 C 0.0550(8) 0.3363(7) 0.1789(12)
H11 H 0.0691 0.3404 0.2523
C21 C 0.0075(9) 0.3865(9) 0.1085(13)
H12 H -0.0107 0.4231 0.1352
C22 C -0.0143(9) 0.3836(8) -0.0040(14)
H13 H -0.0467 0.4169 -0.0524
O2F O 0.3188(5) 0.2091(5) 0.6178(7)
O5F O 0.2414(5) 0.1586(4) 0.4598(7)
C8F C 0.2692(9) 0.2122(8) 0.5241(15)
Nd1A Nd -0.14786(4) 0.18108(4) -0.77429(5)
S1A S -0.04837(19) 0.12177(19) 0.1002(2)
S2A S -0.1930(2) 0.2677(2) -0.2782(3)
O1A O 0.0317(4) 0.1123(4) 0.1545(6)
N1A N -0.1293(5) 0.1682(5) -0.5778(7)
C1A C -0.0725(6) 0.1312(6) -0.0392(9)
C2A C -0.0942(7) 0.2183(6) -0.5017(10)
C3A C -0.1064(6) 0.1467(6) -0.2566(9)
N2A N -0.2035(5) 0.0693(5) -0.7352(8)
N3A N -0.0809(5) 0.2824(5) -0.6438(8)
O3A O -0.0690(5) 0.1909(5) 0.1318(6)
C4A C -0.1334(6) 0.1965(6) -0.2077(9)
C5A C -0.0514(6) 0.0802(6) -0.0902(9)
H1A H -0.0259 0.0398 -0.0522
C6A C -0.0676(7) 0.0879(6) -0.1996(9)
H2A H -0.0520 0.0531 -0.2328
C7A C -0.1556(6) 0.1094(7) -0.5497(9)
O4A O -0.2366(5) 0.2779(5) -0.2196(6)
C9A C -0.1485(6) 0.1021(6) -0.4440(9)
H3A H -0.1655 0.0608 -0.4248
O6A O -0.2376(5) 0.2417(6) -0.3850(7)
C10A C -0.1151(6) 0.1880(6) -0.0988(9)
H4A H -0.1321 0.2214 -0.0656
C11A C -0.0876(6) 0.2141(6) -0.3979(9)
H5A H -0.0639 0.2504 -0.3481
C12A C -0.0641(7) 0.2784(7) -0.5375(10)
C13A C -0.2397(8) 0.0235(7) -0.8142(11)
H6A H -0.2430 0.0325 -0.8820
O7A O -0.0891(5) 0.0639(5) 0.1117(7)
C14A C -0.1953(7) 0.0533(7) -0.6343(10)
C15A C -0.1163(6) 0.1563(6) -0.3701(9)
O8A O -0.1449(6) 0.3282(5) -0.2665(9)
C16A C -0.2261(7) -0.0082(7) -0.6145(11)
H7A H -0.2201 -0.0179 -0.5454
C17A C -0.0162(8) 0.3275(7) -0.4637(12)
H8A H -0.0042 0.3226 -0.3911
C18A C -0.2650(7) -0.0541(8) -0.6969(11)
H9A H -0.2858 -0.0956 -0.6847
C19A C -0.2735(8) -0.0385(7) -0.7991(11)
H10A H -0.3012 -0.0686 -0.8569
C20A C -0.0550(8) 0.3363(7) -0.6789(12)
H11A H -0.0691 0.3404 -0.7523
C21A C -0.0075(9) 0.3865(9) -0.6085(13)
H12A H 0.0107 0.4231 -0.6352
C22A C 0.0143(9) 0.3836(8) -0.4960(14)
H13A H 0.0467 0.4169 -0.4476
Nd1_2 Nd 0.14786(4) 0.18108(4) -0.72571(5)
Nd1A_2 Nd -0.14786(4) 0.18108(4) 0.22571(5)
Nd1F Nd 0.35214(4) 0.31892(4) -0.27429(5)
Nd1F_2 Nd 0.35214(4) 0.31892(4) 0.72571(5)
Nd1G Nd -0.35214(4) 0.31892(4) -0.22571(5)
O2A O -0.1812(5) 0.2909(5) -0.8822(7)
O3_2 O 0.0690(5) 0.1909(5) 0.3682(6)
O3A_2 O -0.0690(5) 0.1909(5) -0.8682(6)
O4F O 0.2634(5) 0.2221(5) 0.2804(6)
O4G O -0.2634(5) 0.2221(5) -0.7804(6)
O5G O -0.2414(5) 0.1586(4) -0.9598(7)
O9 O 0.3268(8) -0.1172(8) 0.5294(12)
loop_
_geom_bond_atom_site_label_1
_geom_bond_atom_site_label_2
_geom_bond_site_symmetry_1
_geom_bond_site_symmetry_2
Nd1 O2 1_555 1_555
S1 O1 1_555 1_555
S2 C4 1_555 1_555
O1 Nd1A 1_555 1_555
O2 C8 1_555 1_555
N1 Nd1 1_555 1_555
C1 S1 1_555 1_555
C2 N1 1_555 1_555
C3 C4 1_555 1_555
N2 Nd1 1_555 1_555
N3 Nd1 1_555 1_555
O3 S1 1_555 1_555
C4 C10 1_555 1_555
C5 C1 1_555 1_555
H1 C5 1_555 1_555
C6 C3 1_555 1_555
H2 C6 1_555 1_555
C7 N1 1_555 1_555
O4 S2 1_555 1_555
O5 C8 1_555 1_555
C8 C8F 1_555 1_555
C9 C7 1_555 1_555
H3 C9 1_555 1_555
O6 S2 1_555 1_555
C10 C1 1_555 1_555
H4 C10 1_555 1_555
C11 C2 1_555 1_555
H5 C11 1_555 1_555
C12 C2 1_555 1_555
C13 N2 1_555 1_555
H6 C13 1_555 1_555
O7 S1 1_555 1_555
C14 N2 1_555 1_555
C15 C3 1_555 1_555
O8 S2 1_555 1_555
C16 C14 1_555 1_555
H7 C16 1_555 1_555
C17 C12 1_555 1_555
H8 C17 1_555 1_555
C18 C16 1_555 1_555
H9 C18 1_555 1_555
C19 C13 1_555 1_555
H10 C19 1_555 1_555
C20 N3 1_555 1_555
H11 C20 1_555 1_555
C21 C20 1_555 1_555
H12 C21 1_555 1_555
C22 C17 1_555 1_555
H13 C22 1_555 1_555
O2F C8F 1_555 1_555
O5F Nd1 1_555 1_555
C8F O5F 1_555 1_555
Nd1A N1A 1_555 1_555
S1A O1A 1_555 1_555
S2A C4A 1_555 1_555
O1A Nd1 1_555 1_555
N1A C2A 1_555 1_555
C1A S1A 1_555 1_555
C2A C11A 1_555 1_555
C3A C4A 1_555 1_555
N2A Nd1A 1_555 1_555
N3A Nd1A 1_555 1_555
O3A S1A 1_555 1_555
C4A C10A 1_555 1_555
C5A C1A 1_555 1_555
H1A C5A 1_555 1_555
C6A C3A 1_555 1_555
H2A C6A 1_555 1_555
C7A N1A 1_555 1_555
O4A S2A 1_555 1_555
C9A C7A 1_555 1_555
H3A C9A 1_555 1_555
O6A S2A 1_555 1_555
C10A C1A 1_555 1_555
H4A C10A 1_555 1_555
C11A H5A 1_555 1_555
C12A C2A 1_555 1_555
C13A N2A 1_555 1_555
H6A C13A 1_555 1_555
O7A S1A 1_555 1_555
C14A N2A 1_555 1_555
C15A C3A 1_555 1_555
O8A S2A 1_555 1_555
C16A C14A 1_555 1_555
H7A C16A 1_555 1_555
C17A C12A 1_555 1_555
H8A C17A 1_555 1_555
C18A C16A 1_555 1_555
H9A C18A 1_555 1_555
C19A C13A 1_555 1_555
H10A C19A 1_555 1_555
C20A N3A 1_555 1_555
H11A C20A 1_555 1_555
C21A C20A 1_555 1_555
H12A C21A 1_555 1_555
C22A C17A 1_555 1_555
H13A C22A 1_555 1_555
Nd1_2 O3 1_555 1_555
Nd1A_2 O3A 1_555 1_555
Nd1F O4 1_555 1_555
Nd1F_2 O5 1_555 1_555
Nd1G O4A 1_555 1_555
O2A Nd1A 1_555 1_555
O3_2 Nd1 1_555 1_555
O3A_2 Nd1A 1_555 1_555
O4F Nd1 1_555 1_555
O4G Nd1A 1_555 1_555
O5G Nd1A 1_555 1_555
N3 C12 1_555 1_555
C5 C6 1_555 1_555
C7 C14 1_555 1_555
C9 C15 1_555 1_555
C11 C15 1_555 1_555
C18 C19 1_555 1_555
C21 C22 1_555 1_555
O2F Nd1F_2 1_555 1_555
N3A C12A 1_555 1_555
C5A C6A 1_555 1_555
C7A C14A 1_555 1_555
C9A C15A 1_555 1_555
C11A C15A 1_555 1_555
C18A C19A 1_555 1_555
C21A C22A 1_555 1_555

#END
