
#######################################################################
#
#                 Cambridge Crystallographic Data Centre
#                                CCDC 
#
#######################################################################
#
# If this CIF has been generated from an entry in the Cambridge 
# Structural Database, then it will include bibliographic, chemical, 
# crystal, experimental, refinement or atomic coordinate data resulting 
# from the CCDC's data processing and validation procedures.
#
#######################################################################

data_TODRAH
_symmetry_cell_setting           monoclinic
_symmetry_space_group_name_H-M   'C 2/c'
_symmetry_Int_Tables_number      15
_space_group_name_Hall           '-C 2yn'
loop_
_symmetry_equiv_pos_site_id
_symmetry_equiv_pos_as_xyz
1 x,y,z
2 -x,y,1/2-z
3 1/2+x,1/2+y,z
4 1/2-x,1/2+y,1/2-z
5 -x,-y,-z
6 x,-y,1/2+z
7 1/2-x,1/2-y,-z
8 1/2+x,1/2-y,1/2+z
_cell_length_a                   10.1484(14)
_cell_length_b                   21.509(3)
_cell_length_c                   25.374(3)
_cell_angle_alpha                90
_cell_angle_beta                 99.561(2)
_cell_angle_gamma                90
_cell_volume                     5461.75
loop_
_atom_site_label
_atom_site_type_symbol
_atom_site_fract_x
_atom_site_fract_y
_atom_site_fract_z
Gd1 Gd 0.61247(3) 0.067118(13) 0.527699(11)
O1 O 0.7576(4) 0.1560(2) 0.55872(17)
S1 S 0.88083(18) 0.19115(8) 0.56028(6)
O2 O 0.8603(6) 0.2568(2) 0.5674(2)
O3 O 0.9490(5) 0.1758(3) 0.51558(19)
C1 C 0.9895(6) 0.1659(3) 0.6189(2)
C2 C 1.0165(7) 0.2038(3) 0.6629(2)
C3 C 1.0491(7) 0.1087(3) 0.6192(2)
H1 H 0.9785 0.2432 0.6622
C4 C 1.1004(7) 0.1835(3) 0.7085(2)
H2 H 1.0322 0.0837 0.5890
C5 C 1.1343(7) 0.0876(3) 0.6641(2)
C6 C 1.1573(6) 0.1236(3) 0.7107(2)
H3 H 1.1193 0.2097 0.7380
S2 S 1.2211(2) 0.01570(9) 0.65820(8)
C7 C 1.2315(6) 0.1028(3) 0.7641(2)
O4 O 1.1758(7) -0.0280(2) 0.6922(2)
O5 O 1.3618(6) 0.0295(3) 0.6739(4)
O6 O 1.1857(10) -0.0011(3) 0.6031(3)
C8 C 1.3331(6) 0.1380(3) 0.7919(2)
C9 C 1.1886(7) 0.0513(3) 0.7894(3)
H4 H 1.3644 0.1727 0.7759
C10 C 1.3892(6) 0.1216(3) 0.8440(2)
C11 C 1.2482(6) 0.0377(3) 0.8411(2)
H5 H 1.1205 0.0263 0.7718
N1 N 1.3453(5) 0.0724(2) 0.8687(2)
C12 C 1.5052(6) 0.1564(3) 0.8750(2)
C13 C 1.2004(6) -0.0152(3) 0.8705(3)
N2 N 1.5333(5) 0.1436(2) 0.92776(19)
C14 C 1.5786(6) 0.1972(3) 0.8511(3)
N3 N 1.2272(6) -0.0121(3) 0.9241(2)
C15 C 1.1328(9) -0.0651(3) 0.8439(4)
O7 O 1.2012(6) 0.0709(2) 1.0213(2)
O8 O 1.4796(5) 0.1344(2) 1.04419(18)
O9 O 1.4350(4) -0.00641(18) 1.03839(16)
C16 C 1.6372(6) 0.1725(3) 0.9562(3)
H6 H 1.5565 0.2050 0.8146
C17 C 1.6865(7) 0.2270(3) 0.8811(3)
C18 C 1.1805(8) -0.0590(3) 0.9526(4)
H7 H 1.1151 -0.0658 0.8068
C19 C 1.0919(8) -0.1136(4) 0.8727(4)
H8 H 1.1497 0.0600 1.0429
H9 H 1.1701 0.1042 1.0061
H10 H 1.5513 0.1338 1.0669
H11 H 1.4388 0.1680 1.0486
H12 H 1.6024 0.0170 0.9362
H13 H 1.6562 0.1649 0.9927
C20 C 1.7191(7) 0.2135(3) 0.9342(3)
H14 H 1.7361 0.2559 0.8654
C21 C 1.1130(8) -0.1101(4) 0.9274(4)
H15 H 1.1941 -0.0566 0.9897
H16 H 1.0505 -0.1483 0.8553
H17 H 1.7938 0.2311 0.9551
H18 H 1.0826 -0.1415 0.9475
O1A O 1.2424(4) 0.1560(2) 0.94128(17)
Gd1A Gd 1.38753(3) 0.067118(13) 0.972301(11)
O9D O 1.5650(4) 0.00641(18) 0.96161(16)
Gd1E Gd 1.61247(3) -0.067118(13) 1.027699(11)
O10 O 0.4951(12) 0.0915(6) 0.3562(4)
O11 O 1.6147(19) 0.3012(8) 0.7444(6)
O12 O 0.7055(18) 0.3195(9) 0.6393(10)
O13 O 0.390(3) 0.1468(15) 0.2677(14)
loop_
_geom_bond_atom_site_label_1
_geom_bond_atom_site_label_2
_geom_bond_site_symmetry_1
_geom_bond_site_symmetry_2
Gd1 O1 1_555 1_555
O1 S1 1_555 1_555
S1 O2 1_555 1_555
O3 S1 1_555 1_555
C1 S1 1_555 1_555
C2 C1 1_555 1_555
C3 C1 1_555 1_555
H1 C2 1_555 1_555
C4 C2 1_555 1_555
H2 C3 1_555 1_555
C5 C3 1_555 1_555
C6 C4 1_555 1_555
H3 C4 1_555 1_555
S2 C5 1_555 1_555
C7 C6 1_555 1_555
O4 S2 1_555 1_555
O5 S2 1_555 1_555
O6 S2 1_555 1_555
C8 C7 1_555 1_555
C9 C7 1_555 1_555
H4 C8 1_555 1_555
C10 C8 1_555 1_555
C11 C9 1_555 1_555
H5 C9 1_555 1_555
N1 C10 1_555 1_555
C12 C10 1_555 1_555
C13 C11 1_555 1_555
N2 C12 1_555 1_555
C14 C12 1_555 1_555
N3 C13 1_555 1_555
C15 C13 1_555 1_555
O7 H8 1_555 1_555
O8 H10 1_555 1_555
O9 Gd1A 1_555 1_555
C16 N2 1_555 1_555
H6 C14 1_555 1_555
C17 C14 1_555 1_555
C18 N3 1_555 1_555
H7 C15 1_555 1_555
C19 C15 1_555 1_555
H9 O7 1_555 1_555
H11 O8 1_555 1_555
H12 O9D 1_555 1_555
H13 C16 1_555 1_555
C20 C16 1_555 1_555
H14 C17 1_555 1_555
C21 C18 1_555 1_555
H15 C18 1_555 1_555
H16 C19 1_555 1_555
H17 C20 1_555 1_555
H18 C21 1_555 1_555
O1A Gd1A 1_555 1_555
Gd1A N1 1_555 1_555
O9D Gd1A 1_555 1_555
Gd1E O9 1_555 1_555
C5 C6 1_555 1_555
C11 N1 1_555 1_555
N2 Gd1A 1_555 1_555
N3 Gd1A 1_555 1_555
O7 Gd1A 1_555 1_555
O8 Gd1A 1_555 1_555
C17 C20 1_555 1_555
C19 C21 1_555 1_555
O9D Gd1E 1_555 1_555

#END
