
#######################################################################
#
#                 Cambridge Crystallographic Data Centre
#                                CCDC 
#
#######################################################################
#
# If this CIF has been generated from an entry in the Cambridge 
# Structural Database, then it will include bibliographic, chemical, 
# crystal, experimental, refinement or atomic coordinate data resulting 
# from the CCDC's data processing and validation procedures.
#
#######################################################################

data_TODRIP
_symmetry_cell_setting           monoclinic
_symmetry_space_group_name_H-M   'C 2/c'
_symmetry_Int_Tables_number      15
_space_group_name_Hall           '-C 2yn'
loop_
_symmetry_equiv_pos_site_id
_symmetry_equiv_pos_as_xyz
1 x,y,z
2 -x,y,1/2-z
3 1/2+x,1/2+y,z
4 1/2-x,1/2+y,1/2-z
5 -x,-y,-z
6 x,-y,1/2+z
7 1/2-x,1/2-y,-z
8 1/2+x,1/2-y,1/2+z
_cell_length_a                   20.1864(16)
_cell_length_b                   18.5532(15)
_cell_length_c                   13.8708(11)
_cell_angle_alpha                90
_cell_angle_beta                 117.3370(10)
_cell_angle_gamma                90
_cell_volume                     4614.76
loop_
_atom_site_label
_atom_site_type_symbol
_atom_site_fract_x
_atom_site_fract_y
_atom_site_fract_z
Eu1 Eu 0.148429(13) 0.183483(14) 0.272681(17)
S1 S 0.04725(7) 0.12052(7) -0.60086(9)
S2 S 0.19352(9) 0.26853(9) -0.22231(11)
O1 O -0.03381(18) 0.1173(2) -0.6580(3)
O2 O 0.1825(2) 0.2909(2) 0.3832(3)
N1 N 0.1295(2) 0.1684(2) 0.0788(3)
C1 C 0.0713(3) 0.1317(3) -0.4612(4)
C2 C 0.0949(3) 0.2200(3) 0.0039(4)
C3 C 0.1061(3) 0.1476(3) -0.2436(4)
N2 N 0.2011(2) 0.0705(2) 0.2366(3)
N3 N 0.0808(3) 0.2846(3) 0.1438(4)
O3 O 0.0732(3) 0.1856(3) -0.6322(3)
C4 C 0.1316(3) 0.1974(3) -0.2946(4)
C5 C 0.0490(3) 0.0801(3) -0.4096(4)
H1 H 0.0216 0.0403 -0.4481
C6 C 0.0676(3) 0.0879(3) -0.3014(4)
H2 H 0.0539 0.0523 -0.2668
C7 C 0.1555(3) 0.1105(3) 0.0507(4)
O4 O 0.2391(2) 0.2764(3) -0.2781(3)
O5 O 0.2602(2) 0.3403(2) 0.5434(3)
C8 C 0.2338(3) 0.2882(3) 0.4792(4)
C9 C 0.1488(3) 0.1022(3) -0.0540(4)
H3 H 0.1663 0.0606 -0.0722
O6 O 0.2366(3) 0.2437(4) -0.1138(3)
C10 C 0.1135(3) 0.1892(3) -0.4038(4)
H4 H 0.1300 0.2228 -0.4377
C11 C 0.0882(3) 0.2154(3) -0.0999(4)
H5 H 0.0650 0.2522 -0.1497
C12 C 0.0630(3) 0.2817(3) 0.0384(4)
C13 C 0.2397(4) 0.0247(3) 0.3179(5)
H6 H 0.2457 0.0356 0.3869
O7 O 0.0822(3) 0.0564(3) -0.6105(3)
C14 C 0.1951(3) 0.0558(3) 0.1364(4)
C15 C 0.1162(3) 0.1557(3) -0.1292(4)
O8 O 0.1483(3) 0.3304(3) -0.2340(6)
C16 C 0.2253(3) -0.0069(3) 0.1187(4)
H7 H 0.2203 -0.0169 0.0500
C17 C 0.0162(5) 0.3310(4) -0.0347(6)
H8 H 0.0039 0.3269 -0.1078
C18 C 0.2626(4) -0.0541(4) 0.2023(5)
H9 H 0.2819 -0.0967 0.1901
C19 C 0.2711(4) -0.0382(4) 0.3035(6)
H10 H 0.2975 -0.0689 0.3616
C20 C 0.0537(4) 0.3398(4) 0.1761(5)
H11 H 0.0676 0.3434 0.2498
C21 C 0.0074(5) 0.3910(4) 0.1099(6)
H12 H -0.0102 0.4279 0.1375
C22 C -0.0131(6) 0.3872(4) 0.0005(7)
H13 H -0.0453 0.4209 -0.0480
O2F O 0.3175(2) 0.2091(2) 0.6168(3)
O5F O 0.2398(2) 0.1597(2) 0.4566(3)
C8F C 0.2662(3) 0.2118(3) 0.5208(4)
Eu1A Eu -0.148429(13) 0.183483(14) -0.772681(17)
S1A S -0.04725(7) 0.12052(7) 0.10086(9)
S2A S -0.19352(9) 0.26853(9) -0.27769(11)
O1A O 0.03381(18) 0.1173(2) 0.1580(3)
N1A N -0.1295(2) 0.1684(2) -0.5788(3)
C1A C -0.0713(3) 0.1317(3) -0.0388(4)
C2A C -0.0949(3) 0.2200(3) -0.5039(4)
C3A C -0.1061(3) 0.1476(3) -0.2564(4)
N2A N -0.2011(2) 0.0705(2) -0.7366(3)
N3A N -0.0808(3) 0.2846(3) -0.6438(4)
O3A O -0.0732(3) 0.1856(3) 0.1322(3)
C4A C -0.1316(3) 0.1974(3) -0.2054(4)
C5A C -0.0490(3) 0.0801(3) -0.0904(4)
H1A H -0.0216 0.0403 -0.0519
C6A C -0.0676(3) 0.0879(3) -0.1986(4)
H2A H -0.0539 0.0523 -0.2332
C7A C -0.1555(3) 0.1105(3) -0.5507(4)
O4A O -0.2391(2) 0.2764(3) -0.2219(3)
C9A C -0.1488(3) 0.1022(3) -0.4460(4)
H3A H -0.1663 0.0606 -0.4278
O6A O -0.2366(3) 0.2437(4) -0.3862(3)
C10A C -0.1135(3) 0.1892(3) -0.0962(4)
H4A H -0.1300 0.2228 -0.0623
C11A C -0.0882(3) 0.2154(3) -0.4001(4)
H5A H -0.0650 0.2522 -0.3503
C12A C -0.0630(3) 0.2817(3) -0.5384(4)
C13A C -0.2397(4) 0.0247(3) -0.8179(5)
H6A H -0.2457 0.0356 -0.8869
O7A O -0.0822(3) 0.0564(3) 0.1105(3)
C14A C -0.1951(3) 0.0558(3) -0.6364(4)
C15A C -0.1162(3) 0.1557(3) -0.3708(4)
O8A O -0.1483(3) 0.3304(3) -0.2660(6)
C16A C -0.2253(3) -0.0069(3) -0.6187(4)
H7A H -0.2203 -0.0169 -0.5500
C17A C -0.0162(5) 0.3310(4) -0.4653(6)
H8A H -0.0039 0.3269 -0.3922
C18A C -0.2626(4) -0.0541(4) -0.7023(5)
H9A H -0.2819 -0.0967 -0.6901
C19A C -0.2711(4) -0.0382(4) -0.8035(6)
H10A H -0.2975 -0.0689 -0.8616
C20A C -0.0537(4) 0.3398(4) -0.6761(5)
H11A H -0.0676 0.3434 -0.7498
C21A C -0.0074(5) 0.3910(4) -0.6099(6)
H12A H 0.0102 0.4279 -0.6375
C22A C 0.0131(6) 0.3872(4) -0.5005(7)
H13A H 0.0453 0.4209 -0.4520
Eu1_2 Eu 0.148429(13) 0.183483(14) -0.727319(17)
Eu1A_2 Eu -0.148429(13) 0.183483(14) 0.227319(17)
Eu1F Eu 0.351571(13) 0.316517(14) -0.272681(17)
Eu1F_2 Eu 0.351571(13) 0.316517(14) 0.727319(17)
Eu1G Eu -0.351571(13) 0.316517(14) -0.227319(17)
O2A O -0.1825(2) 0.2909(2) -0.8832(3)
O3_2 O 0.0732(3) 0.1856(3) 0.3678(3)
O3A_2 O -0.0732(3) 0.1856(3) -0.8678(3)
O4F O 0.2609(2) 0.2236(3) 0.2781(3)
O4G O -0.2609(2) 0.2236(3) -0.7781(3)
O5G O -0.2398(2) 0.1597(2) -0.9566(3)
O9 O 0.3221(6) -0.1213(7) 0.5258(9)
loop_
_geom_bond_atom_site_label_1
_geom_bond_atom_site_label_2
_geom_bond_site_symmetry_1
_geom_bond_site_symmetry_2
Eu1 O2 1_555 1_555
S1 O1 1_555 1_555
S2 C4 1_555 1_555
O1 Eu1A 1_555 1_555
O2 C8 1_555 1_555
N1 Eu1 1_555 1_555
C1 S1 1_555 1_555
C2 N1 1_555 1_555
C3 C4 1_555 1_555
N2 Eu1 1_555 1_555
N3 Eu1 1_555 1_555
O3 S1 1_555 1_555
C4 C10 1_555 1_555
C5 C1 1_555 1_555
H1 C5 1_555 1_555
C6 C3 1_555 1_555
H2 C6 1_555 1_555
C7 N1 1_555 1_555
O4 S2 1_555 1_555
O5 C8 1_555 1_555
C8 C8F 1_555 1_555
C9 C7 1_555 1_555
H3 C9 1_555 1_555
O6 S2 1_555 1_555
C10 C1 1_555 1_555
H4 C10 1_555 1_555
C11 C2 1_555 1_555
H5 C11 1_555 1_555
C12 C2 1_555 1_555
C13 N2 1_555 1_555
H6 C13 1_555 1_555
O7 S1 1_555 1_555
C14 N2 1_555 1_555
C15 C3 1_555 1_555
O8 S2 1_555 1_555
C16 C14 1_555 1_555
H7 C16 1_555 1_555
C17 C12 1_555 1_555
H8 C17 1_555 1_555
C18 C16 1_555 1_555
H9 C18 1_555 1_555
C19 C13 1_555 1_555
H10 C19 1_555 1_555
C20 N3 1_555 1_555
H11 C20 1_555 1_555
C21 C20 1_555 1_555
H12 C21 1_555 1_555
C22 C17 1_555 1_555
H13 C22 1_555 1_555
O2F C8F 1_555 1_555
O5F Eu1 1_555 1_555
C8F O5F 1_555 1_555
Eu1A N1A 1_555 1_555
S1A O1A 1_555 1_555
S2A C4A 1_555 1_555
O1A Eu1 1_555 1_555
N1A C2A 1_555 1_555
C1A S1A 1_555 1_555
C2A C11A 1_555 1_555
C3A C4A 1_555 1_555
N2A Eu1A 1_555 1_555
N3A Eu1A 1_555 1_555
O3A S1A 1_555 1_555
C4A C10A 1_555 1_555
C5A C1A 1_555 1_555
H1A C5A 1_555 1_555
C6A C3A 1_555 1_555
H2A C6A 1_555 1_555
C7A N1A 1_555 1_555
O4A S2A 1_555 1_555
C9A C7A 1_555 1_555
H3A C9A 1_555 1_555
O6A S2A 1_555 1_555
C10A C1A 1_555 1_555
H4A C10A 1_555 1_555
C11A H5A 1_555 1_555
C12A C2A 1_555 1_555
C13A N2A 1_555 1_555
H6A C13A 1_555 1_555
O7A S1A 1_555 1_555
C14A N2A 1_555 1_555
C15A C3A 1_555 1_555
O8A S2A 1_555 1_555
C16A C14A 1_555 1_555
H7A C16A 1_555 1_555
C17A C12A 1_555 1_555
H8A C17A 1_555 1_555
C18A C16A 1_555 1_555
H9A C18A 1_555 1_555
C19A C13A 1_555 1_555
H10A C19A 1_555 1_555
C20A N3A 1_555 1_555
H11A C20A 1_555 1_555
C21A C20A 1_555 1_555
H12A C21A 1_555 1_555
C22A C17A 1_555 1_555
H13A C22A 1_555 1_555
Eu1_2 O3 1_555 1_555
Eu1A_2 O3A 1_555 1_555
Eu1F O4 1_555 1_555
Eu1F_2 O5 1_555 1_555
Eu1G O4A 1_555 1_555
O2A Eu1A 1_555 1_555
O3_2 Eu1 1_555 1_555
O3A_2 Eu1A 1_555 1_555
O4F Eu1 1_555 1_555
O4G Eu1A 1_555 1_555
O5G Eu1A 1_555 1_555
N3 C12 1_555 1_555
C5 C6 1_555 1_555
C7 C14 1_555 1_555
C9 C15 1_555 1_555
C11 C15 1_555 1_555
C18 C19 1_555 1_555
C21 C22 1_555 1_555
O2F Eu1F_2 1_555 1_555
N3A C12A 1_555 1_555
C5A C6A 1_555 1_555
C7A C14A 1_555 1_555
C9A C15A 1_555 1_555
C11A C15A 1_555 1_555
C18A C19A 1_555 1_555
C21A C22A 1_555 1_555

#END
