
#######################################################################
#
#                 Cambridge Crystallographic Data Centre
#                                CCDC 
#
#######################################################################
#
# If this CIF has been generated from an entry in the Cambridge 
# Structural Database, then it will include bibliographic, chemical, 
# crystal, experimental, refinement or atomic coordinate data resulting 
# from the CCDC's data processing and validation procedures.
#
#######################################################################

data_TODSUC
_symmetry_cell_setting           monoclinic
_symmetry_space_group_name_H-M   'C 2/c'
_symmetry_Int_Tables_number      15
_space_group_name_Hall           '-C 2yn'
loop_
_symmetry_equiv_pos_site_id
_symmetry_equiv_pos_as_xyz
1 x,y,z
2 -x,y,1/2-z
3 1/2+x,1/2+y,z
4 1/2-x,1/2+y,1/2-z
5 -x,-y,-z
6 x,-y,1/2+z
7 1/2-x,1/2-y,-z
8 1/2+x,1/2-y,1/2+z
_cell_length_a                   19.408(6)
_cell_length_b                   13.692(4)
_cell_length_c                   23.830(7)
_cell_angle_alpha                90
_cell_angle_beta                 90.937(4)
_cell_angle_gamma                90
_cell_volume                     6331.6
loop_
_atom_site_label
_atom_site_type_symbol
_atom_site_fract_x
_atom_site_fract_y
_atom_site_fract_z
Yb1 Yb 1.258541(13) 0.61421(2) 0.856466(12)
O1 O 1.1874(2) 0.6254(3) 0.77721(19)
O2 O 1.2306(2) 0.5959(3) 0.94844(19)
O3 O 1.3601(3) 0.5961(5) 0.9028(3)
O4 O 1.1371(2) 0.5925(3) 0.8565(2)
O5 O 1.2182(2) 0.7676(3) 0.87300(19)
N1 N 1.2449(3) 0.4370(4) 0.8570(2)
N2 N 1.3246(2) 0.5283(4) 0.7841(2)
N3 N 1.3328(3) 0.7220(4) 0.7991(2)
C1 C 1.1334(3) 0.6115(4) 0.8058(3)
H1 H 1.2018 0.5615 0.9662
H2 H 1.2470 0.6382 0.9711
H3 H 1.3955 0.6321 0.9067
H4 H 1.3701 0.5402 0.9161
C2 C 1.2069(5) 0.3920(5) 0.8968(4)
C3 C 1.2760(3) 0.3796(4) 0.8189(3)
C4 C 1.3186(3) 0.4310(4) 0.7775(3)
C5 C 1.3653(3) 0.5767(5) 0.7481(3)
C6 C 1.3349(4) 0.8204(5) 0.8058(3)
C7 C 1.3706(3) 0.6849(5) 0.7569(3)
C8 C 1.0643(3) 0.6179(4) 0.7760(3)
C9 C 1.2018(4) 0.2930(6) 0.9006(4)
H5 H 1.1834 0.4302 0.9224
C10 C 1.2710(3) 0.2796(5) 0.8202(3)
C11 C 1.3498(3) 0.3818(5) 0.7339(3)
C12 C 1.3998(3) 0.5310(5) 0.7058(3)
C13 C 1.3735(4) 0.8812(5) 0.7730(4)
H6 H 1.3087 0.8481 0.8340
C14 C 1.4099(4) 0.7431(5) 0.7231(3)
C15 C 1.0582(3) 0.6188(4) 0.7185(3)
C16 C 1.0043(3) 0.6178(5) 0.8080(3)
H7 H 1.1768 0.2649 0.9293
C17 C 1.2333(4) 0.2352(5) 0.8623(3)
H8 H 1.2927 0.2419 0.7932
C18 C 1.3920(3) 0.4321(5) 0.6978(3)
H9 H 1.3424 0.3152 0.7290
H10 H 1.4283 0.5668 0.6825
C19 C 1.4118(4) 0.8435(5) 0.7306(3)
H11 H 1.3737 0.9481 0.7798
H12 H 1.4356 0.7147 0.6948
H13 H 1.0979 0.6203 0.6971
H14 H 1.0073 0.6169 0.8470
H15 H 1.2298 0.1676 0.8642
C20 C 1.4320(3) 0.3823(4) 0.6529(3)
H16 H 1.4379 0.8835 0.7076
C21 C 1.4038(3) 0.3356(5) 0.6061(3)
C22 C 1.5043(4) 0.3806(5) 0.6595(3)
S1 S 1.31350(8) 0.34003(13) 0.58998(7)
C23 C 1.4448(3) 0.2887(5) 0.5678(3)
C24 C 1.5454(3) 0.3340(6) 0.6209(3)
H17 H 1.5248 0.4113 0.6904
O6 O 1.2909(2) 0.4378(3) 0.6031(2)
O7 O 1.3065(2) 0.3131(4) 0.53196(19)
H18 H 1.4253 0.2587 0.5364
C25 C 1.5151(3) 0.2869(5) 0.5767(3)
H19 H 1.5931 0.3349 0.6251
S2 S 1.56740(10) 0.22565(16) 0.52646(9)
O8 O 1.5309(4) 0.1418(5) 0.5102(4)
O9 O 1.5723(4) 0.2936(6) 0.4800(3)
O10 O 1.6320(3) 0.2096(6) 0.5527(3)
C16A C 0.9957(3) 0.6178(5) 0.6920(3)
C15A C 0.9418(3) 0.6188(4) 0.7815(3)
C8A C 0.9357(3) 0.6179(4) 0.7240(3)
H14A H 0.9927 0.6169 0.6530
H13A H 0.9021 0.6203 0.8029
C1A C 0.8666(3) 0.6115(4) 0.6942(3)
O1A O 0.8126(2) 0.6254(3) 0.72279(19)
O4A O 0.8629(2) 0.5925(3) 0.6435(2)
O5C O 1.2818(2) 0.2676(3) 0.62700(19)
Yb1A Yb 0.741459(13) 0.61421(2) 0.643534(12)
Yb1C Yb 1.241459(13) 0.11421(2) 0.643534(12)
O2A O 0.7694(2) 0.5959(3) 0.55156(19)
O3A O 0.6399(3) 0.5961(5) 0.5972(3)
O5A O 0.7818(2) 0.7676(3) 0.62700(19)
N1A N 0.7551(3) 0.4370(4) 0.6430(2)
N2A N 0.6754(2) 0.5283(4) 0.7159(2)
N3A N 0.6672(3) 0.7220(4) 0.7009(2)
H1A H 0.7982 0.5615 0.5338
H2A H 0.7530 0.6382 0.5289
H3A H 0.6045 0.6321 0.5933
H4A H 0.6299 0.5402 0.5839
C2A C 0.7931(5) 0.3920(5) 0.6032(4)
C3A C 0.7240(3) 0.3796(4) 0.6811(3)
C4A C 0.6814(3) 0.4310(4) 0.7225(3)
C5A C 0.6347(3) 0.5767(5) 0.7519(3)
C6A C 0.6651(4) 0.8204(5) 0.6942(3)
C7A C 0.6294(3) 0.6849(5) 0.7431(3)
C9A C 0.7982(4) 0.2930(6) 0.5994(4)
H5A H 0.8166 0.4302 0.5776
C10A C 0.7290(3) 0.2796(5) 0.6798(3)
C11A C 0.6502(3) 0.3818(5) 0.7661(3)
C12A C 0.6002(3) 0.5310(5) 0.7942(3)
C13A C 0.6265(4) 0.8812(5) 0.7270(4)
H6A H 0.6913 0.8481 0.6660
C14A C 0.5901(4) 0.7431(5) 0.7769(3)
H7A H 0.8232 0.2649 0.5707
C17A C 0.7667(4) 0.2352(5) 0.6377(3)
H8A H 0.7073 0.2419 0.7068
C18A C 0.6080(3) 0.4321(5) 0.8022(3)
H9A H 0.6576 0.3152 0.7710
H10A H 0.5717 0.5668 0.8175
C19A C 0.5882(4) 0.8435(5) 0.7694(3)
H11A H 0.6263 0.9481 0.7202
H12A H 0.5644 0.7147 0.8052
H15A H 0.7702 0.1676 0.6358
C20A C 0.5680(3) 0.3823(4) 0.8471(3)
H16A H 0.5621 0.8835 0.7924
C21A C 0.5962(3) 0.3356(5) 0.8939(3)
C22A C 0.4957(4) 0.3806(5) 0.8405(3)
S1A S 0.68650(8) 0.34003(13) 0.91002(7)
C23A C 0.5552(3) 0.2887(5) 0.9322(3)
C24A C 0.4546(3) 0.3340(6) 0.8791(3)
H17A H 0.4752 0.4113 0.8096
O6A O 0.7091(2) 0.4378(3) 0.8969(2)
O5B O 0.7182(2) 0.2676(3) 0.87300(19)
O7A O 0.6935(2) 0.3131(4) 0.96804(19)
H18A H 0.5747 0.2587 0.9636
C25A C 0.4849(3) 0.2869(5) 0.9233(3)
H19A H 0.4069 0.3349 0.8749
Yb1B Yb 0.758541(13) 0.11421(2) 0.856466(12)
S2A S 0.43260(10) 0.22565(16) 0.97354(9)
O8A O 0.4691(4) 0.1418(5) 0.9898(4)
O9A O 0.4277(4) 0.2936(6) 1.0200(3)
O10A O 0.3680(3) 0.2096(6) 0.9473(3)
O11 O 1.4813(3) 0.6909(7) 0.8853(3)
O12 O 1.1005(4) 0.5515(6) 0.9815(3)
O13 O 0.8487(4) 0.5170(5) 0.8943(3)
O14 O 1.3691(5) 0.4782(6) 0.9956(3)
O15 O 1.4753(6) 0.8917(7) 0.8914(4)
loop_
_geom_bond_atom_site_label_1
_geom_bond_atom_site_label_2
_geom_bond_site_symmetry_1
_geom_bond_site_symmetry_2
Yb1 O1 1_555 1_555
O1 C1 1_555 1_555
O2 Yb1 1_555 1_555
O3 Yb1 1_555 1_555
O4 Yb1 1_555 1_555
O5 Yb1 1_555 1_555
N1 Yb1 1_555 1_555
N2 Yb1 1_555 1_555
N3 Yb1 1_555 1_555
C1 O4 1_555 1_555
H1 O2 1_555 1_555
H2 O2 1_555 1_555
H3 O3 1_555 1_555
H4 O3 1_555 1_555
C2 N1 1_555 1_555
C3 N1 1_555 1_555
C4 N2 1_555 1_555
C5 N2 1_555 1_555
C6 N3 1_555 1_555
C7 N3 1_555 1_555
C8 C1 1_555 1_555
C9 C2 1_555 1_555
H5 C2 1_555 1_555
C10 C3 1_555 1_555
C11 C4 1_555 1_555
C12 C5 1_555 1_555
C13 C6 1_555 1_555
H6 C6 1_555 1_555
C14 C7 1_555 1_555
C15 C8 1_555 1_555
C16 C8 1_555 1_555
H7 C9 1_555 1_555
C17 C9 1_555 1_555
H8 C10 1_555 1_555
C18 C11 1_555 1_555
H9 C11 1_555 1_555
H10 C12 1_555 1_555
C19 C13 1_555 1_555
H11 C13 1_555 1_555
H12 C14 1_555 1_555
H13 C15 1_555 1_555
H14 C16 1_555 1_555
H15 C17 1_555 1_555
C20 C18 1_555 1_555
H16 C19 1_555 1_555
C21 C20 1_555 1_555
C22 C20 1_555 1_555
S1 C21 1_555 1_555
C23 C21 1_555 1_555
C24 C22 1_555 1_555
H17 C22 1_555 1_555
O6 S1 1_555 1_555
O7 S1 1_555 1_555
H18 C23 1_555 1_555
C25 C23 1_555 1_555
H19 C24 1_555 1_555
S2 C25 1_555 1_555
O8 S2 1_555 1_555
O9 S2 1_555 1_555
O10 S2 1_555 1_555
C16A C15 1_555 1_555
C15A C16 1_555 1_555
C8A C16A 1_555 1_555
H14A C16A 1_555 1_555
H13A C15A 1_555 1_555
C1A C8A 1_555 1_555
O1A C1A 1_555 1_555
O4A C1A 1_555 1_555
O5C S1 1_555 1_555
Yb1A O1A 1_555 1_555
Yb1C O5C 1_555 1_555
O2A Yb1A 1_555 1_555
O3A Yb1A 1_555 1_555
O5A Yb1A 1_555 1_555
N1A Yb1A 1_555 1_555
N2A Yb1A 1_555 1_555
N3A Yb1A 1_555 1_555
H1A O2A 1_555 1_555
H2A O2A 1_555 1_555
H3A O3A 1_555 1_555
H4A O3A 1_555 1_555
C2A N1A 1_555 1_555
C3A N1A 1_555 1_555
C4A N2A 1_555 1_555
C5A N2A 1_555 1_555
C6A N3A 1_555 1_555
C7A N3A 1_555 1_555
C9A C2A 1_555 1_555
H5A C2A 1_555 1_555
C10A C3A 1_555 1_555
C11A C4A 1_555 1_555
C12A C5A 1_555 1_555
C13A C6A 1_555 1_555
H6A C6A 1_555 1_555
C14A C7A 1_555 1_555
H7A C9A 1_555 1_555
C17A C9A 1_555 1_555
H8A C10A 1_555 1_555
C18A C11A 1_555 1_555
H9A C11A 1_555 1_555
H10A C12A 1_555 1_555
C19A C13A 1_555 1_555
H11A C13A 1_555 1_555
H12A C14A 1_555 1_555
H15A C17A 1_555 1_555
C20A C18A 1_555 1_555
H16A C19A 1_555 1_555
C21A C20A 1_555 1_555
C22A C20A 1_555 1_555
S1A C21A 1_555 1_555
C23A C21A 1_555 1_555
C24A C22A 1_555 1_555
H17A C22A 1_555 1_555
O6A S1A 1_555 1_555
O5B S1A 1_555 1_555
O7A S1A 1_555 1_555
H18A C23A 1_555 1_555
C25A C23A 1_555 1_555
H19A C24A 1_555 1_555
Yb1B O5B 1_555 1_555
S2A C25A 1_555 1_555
O8A S2A 1_555 1_555
O9A S2A 1_555 1_555
O10A S2A 1_555 1_555
C3 C4 1_555 1_555
C5 C7 1_555 1_555
C10 C17 1_555 1_555
C12 C18 1_555 1_555
C14 C19 1_555 1_555
C24 C25 1_555 1_555
C15A C8A 1_555 1_555
O4A Yb1A 1_555 1_555
C3A C4A 1_555 1_555
C5A C7A 1_555 1_555
C10A C17A 1_555 1_555
C12A C18A 1_555 1_555
C14A C19A 1_555 1_555
C24A C25A 1_555 1_555

#END
