
#######################################################################
#
#                 Cambridge Crystallographic Data Centre
#                                CCDC 
#
#######################################################################
#
# If this CIF has been generated from an entry in the Cambridge 
# Structural Database, then it will include bibliographic, chemical, 
# crystal, experimental, refinement or atomic coordinate data resulting 
# from the CCDC's data processing and validation procedures.
#
#######################################################################

data_TODSOW
_symmetry_cell_setting           monoclinic
_symmetry_space_group_name_H-M   'P 21/c'
_symmetry_Int_Tables_number      14
_space_group_name_Hall           '-P 2ybc'
loop_
_symmetry_equiv_pos_site_id
_symmetry_equiv_pos_as_xyz
1 x,y,z
2 -x,1/2+y,1/2-z
3 -x,-y,-z
4 x,1/2-y,1/2+z
_cell_length_a                   8.983(2)
_cell_length_b                   21.722(5)
_cell_length_c                   13.532(3)
_cell_angle_alpha                90
_cell_angle_beta                 92.122(3)
_cell_angle_gamma                90
_cell_volume                     2638.67
loop_
_atom_site_label
_atom_site_type_symbol
_atom_site_fract_x
_atom_site_fract_y
_atom_site_fract_z
Lu1 Lu 0.06157(4) 0.864094(16) 0.00346(2)
S1 S 0.1829(2) 0.79090(10) -0.54966(15)
S2 S -0.1913(3) 0.91243(11) -0.80914(15)
N1 N -0.1666(7) 0.8078(3) -0.0569(5)
N2 N 0.2922(8) 0.8895(3) -0.0797(5)
N3 N 0.0492(8) 0.8475(3) -0.1770(5)
C1 C 0.2949(9) 0.8920(4) -0.1799(6)
C2 C 0.1532(9) 0.8730(3) -0.2336(6)
C3 C -0.0772(9) 0.8260(4) -0.2205(6)
C4 C 0.4189(10) 0.9056(5) -0.0295(7)
H1 H 0.4191 0.9052 0.0393
C5 C 0.4213(10) 0.9078(4) -0.2293(7)
H2 H 0.4202 0.9076 -0.2980
C6 C 0.1290(10) 0.8818(4) -0.3347(6)
H3 H 0.2005 0.9015 -0.3715
C7 C 0.5474(11) 0.9227(4) -0.0741(8)
H4 H 0.6322 0.9332 -0.0363
C8 C 0.5484(11) 0.9239(5) -0.1762(8)
H5 H 0.6338 0.9354 -0.2084
C9 C -0.1852(9) 0.7967(4) -0.1550(6)
O1 O -0.0944(7) 0.8729(2) -0.8695(4)
O2 O -0.3458(7) 0.8930(4) -0.8168(5)
O3 O -0.1681(8) 0.9762(3) -0.8267(5)
C10 C -0.1300(9) 0.8976(4) -0.6853(6)
O4 O 0.2995(6) 0.8231(3) -0.4923(4)
O5 O 0.1220(7) 0.7399(3) -0.4927(4)
O6 O 0.2245(7) 0.7721(3) -0.6476(4)
O7 O 0.1362(6) 0.9591(3) 0.0672(4)
C11 C 0.0633(8) 1.0060(4) 0.0400(6)
C12 C -0.2592(10) 0.7824(4) 0.0061(7)
H6 H -0.2455 0.7902 0.0733
C13 C -0.2985(10) 0.7581(4) -0.1926(7)
H7 H -0.3101 0.7505 -0.2601
C14 C -0.0018(10) 0.8612(4) -0.3803(6)
C15 C -0.1061(9) 0.8330(4) -0.3220(6)
H8 H -0.1954 0.8187 -0.3506
C16 C -0.0137(9) 0.8559(4) -0.6652(6)
H9 H 0.0329 0.8365 -0.7169
C17 C -0.3764(10) 0.7441(5) -0.0265(7)
H10 H -0.4414 0.7276 0.0184
C18 C -0.3938(11) 0.7313(5) -0.1253(8)
H11 H -0.4691 0.7049 -0.1477
C19 C 0.0319(9) 0.8436(4) -0.5675(6)
C20 C -0.2022(10) 0.9262(4) -0.6093(6)
H12 H -0.2804 0.9534 -0.6222
O8 O 0.0825(6) 1.0602(2) 0.0677(4)
C21 C -0.0384(9) 0.8724(4) -0.4890(6)
C22 C -0.1529(11) 0.9128(4) -0.5119(6)
H13 H -0.2001 0.9321 -0.4603
O9 O 0.2254(7) 0.8469(3) 0.1349(4)
H14 H 0.1707 0.8334 0.1805
H15 H 0.2778 0.8168 0.1159
O7B O -0.1362(6) 1.0409(3) -0.0672(4)
C11B C -0.0633(8) 0.9940(4) -0.0400(6)
O8B O -0.0825(6) 0.9398(2) -0.0677(4)
Lu1B Lu -0.06157(4) 1.135906(16) -0.00346(2)
S1B S -0.1829(2) 1.20910(10) 0.54966(15)
S2B S 0.1913(3) 1.08757(11) 0.80914(15)
N1B N 0.1666(7) 1.1922(3) 0.0569(5)
N2B N -0.2922(8) 1.1105(3) 0.0797(5)
N3B N -0.0492(8) 1.1525(3) 0.1770(5)
C1B C -0.2949(9) 1.1080(4) 0.1799(6)
C2B C -0.1532(9) 1.1270(3) 0.2336(6)
C3B C 0.0772(9) 1.1740(4) 0.2205(6)
C4B C -0.4189(10) 1.0944(5) 0.0295(7)
H1B H -0.4191 1.0948 -0.0393
C5B C -0.4213(10) 1.0922(4) 0.2293(7)
H2B H -0.4202 1.0924 0.2980
C6B C -0.1290(10) 1.1182(4) 0.3347(6)
H3B H -0.2005 1.0985 0.3715
C7B C -0.5474(11) 1.0773(4) 0.0741(8)
H4B H -0.6322 1.0668 0.0363
C8B C -0.5484(11) 1.0761(5) 0.1762(8)
H5B H -0.6338 1.0646 0.2084
C9B C 0.1852(9) 1.2033(4) 0.1550(6)
O1B O 0.0944(7) 1.1271(2) 0.8695(4)
O2B O 0.3458(7) 1.1070(4) 0.8168(5)
O3B O 0.1681(8) 1.0238(3) 0.8267(5)
C10B C 0.1300(9) 1.1024(4) 0.6853(6)
O4B O -0.2995(6) 1.1769(3) 0.4923(4)
O5B O -0.1220(7) 1.2601(3) 0.4927(4)
O6B O -0.2245(7) 1.2279(3) 0.6476(4)
C12B C 0.2592(10) 1.2176(4) -0.0061(7)
H6B H 0.2455 1.2098 -0.0733
C13B C 0.2985(10) 1.2419(4) 0.1926(7)
H7B H 0.3101 1.2495 0.2601
C14B C 0.0018(10) 1.1388(4) 0.3803(6)
C15B C 0.1061(9) 1.1670(4) 0.3220(6)
H8B H 0.1954 1.1813 0.3506
C16B C 0.0137(9) 1.1441(4) 0.6652(6)
H9B H -0.0329 1.1635 0.7169
C17B C 0.3764(10) 1.2559(5) 0.0265(7)
H10B H 0.4414 1.2724 -0.0184
C18B C 0.3938(11) 1.2687(5) 0.1253(8)
H11B H 0.4691 1.2951 0.1477
C19B C -0.0319(9) 1.1564(4) 0.5675(6)
C20B C 0.2022(10) 1.0738(4) 0.6093(6)
H12B H 0.2804 1.0466 0.6222
C21B C 0.0384(9) 1.1276(4) 0.4890(6)
C22B C 0.1529(11) 1.0872(4) 0.5119(6)
H13B H 0.2001 1.0679 0.4603
O9B O -0.2254(7) 1.1531(3) -0.1349(4)
H14B H -0.1707 1.1666 -0.1805
H15B H -0.2778 1.1832 -0.1159
Lu1_2 Lu 0.06157(4) 0.864094(16) -0.99654(2)
Lu1A Lu -0.06157(4) 1.364094(16) 0.49654(2)
Lu1B_2 Lu -0.06157(4) 1.135906(16) 0.99654(2)
Lu1C Lu 0.06157(4) 0.635906(16) -0.49654(2)
O1_2 O -0.0944(7) 0.8729(2) 0.1305(4)
O1B_2 O 0.0944(7) 1.1271(2) -0.1305(4)
O5A O -0.1220(7) 1.2399(3) -0.0073(4)
O5C O 0.1220(7) 0.7601(3) 0.0073(4)
O10 O 0.3808(8) 0.7442(3) 0.1772(5)
H16 H 0.4090 0.7077 0.1631
H17 H 0.3888 0.7480 0.2395
O11 O 0.3818(10) 0.9234(4) 0.2636(7)
H18 H 0.4634 0.9198 0.2325
H19 H 0.3140 0.9328 0.2229
O12 O 0.1516(14) 1.0062(5) 0.2879(10)
H20 H 0.1293 1.0444 0.2878
H21 H 0.0872 0.9875 0.3212
O13 O 0.3930(16) 0.9530(7) 0.4766(10)
H22 H 0.4187 0.9154 0.4805
H23 H 0.3039 0.9552 0.4976
loop_
_geom_bond_atom_site_label_1
_geom_bond_atom_site_label_2
_geom_bond_site_symmetry_1
_geom_bond_site_symmetry_2
Lu1 N1 1_555 1_555
S1 O4 1_555 1_555
S2 O1 1_555 1_555
N1 C9 1_555 1_555
N2 Lu1 1_555 1_555
N3 Lu1 1_555 1_555
C1 N2 1_555 1_555
C2 N3 1_555 1_555
C3 N3 1_555 1_555
C4 N2 1_555 1_555
H1 C4 1_555 1_555
C5 C1 1_555 1_555
H2 C5 1_555 1_555
C6 C2 1_555 1_555
H3 C6 1_555 1_555
C7 C4 1_555 1_555
H4 C7 1_555 1_555
C8 C5 1_555 1_555
H5 C8 1_555 1_555
C9 C3 1_555 1_555
O1 Lu1_2 1_555 1_555
O2 S2 1_555 1_555
O3 S2 1_555 1_555
C10 S2 1_555 1_555
O5 S1 1_555 1_555
O6 S1 1_555 1_555
O7 Lu1 1_555 1_555
C11 O7 1_555 1_555
C12 N1 1_555 1_555
H6 C12 1_555 1_555
C13 C9 1_555 1_555
H7 C13 1_555 1_555
C14 C6 1_555 1_555
C15 C3 1_555 1_555
H8 C15 1_555 1_555
C16 C10 1_555 1_555
H9 C16 1_555 1_555
C17 C12 1_555 1_555
H10 C17 1_555 1_555
C18 C13 1_555 1_555
H11 C18 1_555 1_555
C19 S1 1_555 1_555
C20 C10 1_555 1_555
H12 C20 1_555 1_555
O8 C11 1_555 1_555
C21 C14 1_555 1_555
C22 C20 1_555 1_555
H13 C22 1_555 1_555
O9 Lu1 1_555 1_555
H14 O9 1_555 1_555
H15 O9 1_555 1_555
O10 H16 1_555 1_555
H17 O10 1_555 1_555
O11 H18 1_555 1_555
H19 O11 1_555 1_555
O12 H20 1_555 1_555
H21 O12 1_555 1_555
O13 H22 1_555 1_555
H23 O13 1_555 1_555
O7B C11B 1_555 1_555
C11B C11 1_555 1_555
O8B Lu1 1_555 1_555
Lu1B O8 1_555 1_555
S1B O4B 1_555 1_555
S2B O1B 1_555 1_555
N1B Lu1B 1_555 1_555
N2B Lu1B 1_555 1_555
N3B Lu1B 1_555 1_555
C1B N2B 1_555 1_555
C2B N3B 1_555 1_555
C3B N3B 1_555 1_555
C4B N2B 1_555 1_555
H1B C4B 1_555 1_555
C5B C1B 1_555 1_555
H2B C5B 1_555 1_555
C6B C2B 1_555 1_555
H3B C6B 1_555 1_555
C7B C4B 1_555 1_555
H4B C7B 1_555 1_555
C8B C5B 1_555 1_555
H5B C8B 1_555 1_555
C9B N1B 1_555 1_555
O1B Lu1B_2 1_555 1_555
O2B S2B 1_555 1_555
O3B S2B 1_555 1_555
C10B S2B 1_555 1_555
O5B S1B 1_555 1_555
O6B S1B 1_555 1_555
C12B N1B 1_555 1_555
H6B C12B 1_555 1_555
C13B C9B 1_555 1_555
H7B C13B 1_555 1_555
C14B C6B 1_555 1_555
C15B C3B 1_555 1_555
H8B C15B 1_555 1_555
C16B C10B 1_555 1_555
H9B C16B 1_555 1_555
C17B C12B 1_555 1_555
H10B C17B 1_555 1_555
C18B C13B 1_555 1_555
H11B C18B 1_555 1_555
C19B S1B 1_555 1_555
C20B C10B 1_555 1_555
H12B C20B 1_555 1_555
C21B C14B 1_555 1_555
C22B C20B 1_555 1_555
H13B C22B 1_555 1_555
O9B Lu1B 1_555 1_555
H14B O9B 1_555 1_555
H15B O9B 1_555 1_555
Lu1A O5B 1_555 1_555
Lu1C O5 1_555 1_555
O1_2 Lu1 1_555 1_555
O1B_2 Lu1B 1_555 1_555
O5A Lu1B 1_555 1_555
O5C Lu1 1_555 1_555
C1 C2 1_555 1_555
C7 C8 1_555 1_555
C14 C15 1_555 1_555
C16 C19 1_555 1_555
C17 C18 1_555 1_555
C19 C21 1_555 1_555
C21 C22 1_555 1_555
O7B Lu1B 1_555 1_555
C11B O8B 1_555 1_555
C1B C2B 1_555 1_555
C3B C9B 1_555 1_555
C7B C8B 1_555 1_555
C14B C15B 1_555 1_555
C16B C19B 1_555 1_555
C17B C18B 1_555 1_555
C19B C21B 1_555 1_555
C21B C22B 1_555 1_555

#END
