
#######################################################################
#
#                 Cambridge Crystallographic Data Centre
#                                CCDC 
#
#######################################################################
#
# If this CIF has been generated from an entry in the Cambridge 
# Structural Database, then it will include bibliographic, chemical, 
# crystal, experimental, refinement or atomic coordinate data resulting 
# from the CCDC's data processing and validation procedures.
#
#######################################################################

data_TODSIQ
_symmetry_cell_setting           monoclinic
_symmetry_space_group_name_H-M   'P 21/c'
_symmetry_Int_Tables_number      14
_space_group_name_Hall           '-P 2ybc'
loop_
_symmetry_equiv_pos_site_id
_symmetry_equiv_pos_as_xyz
1 x,y,z
2 -x,1/2+y,1/2-z
3 -x,-y,-z
4 x,1/2-y,1/2+z
_cell_length_a                   8.9698(6)
_cell_length_b                   21.7582(15)
_cell_length_c                   13.4973(10)
_cell_angle_alpha                90
_cell_angle_beta                 92.1640(10)
_cell_angle_gamma                90
_cell_volume                     2632.34
loop_
_atom_site_label
_atom_site_type_symbol
_atom_site_fract_x
_atom_site_fract_y
_atom_site_fract_z
Yb1 Yb 0.061896(18) 0.864206(8) 0.003237(11)
S1 S 0.18291(11) 0.79039(5) -0.54967(7)
S2 S -0.18994(12) 0.91254(6) -0.80874(7)
N1 N -0.1655(4) 0.80884(16) -0.0579(2)
N2 N 0.2925(4) 0.88954(18) -0.0804(2)
N3 N 0.0484(4) 0.84728(16) -0.1772(2)
C1 C 0.2938(5) 0.8916(2) -0.1807(3)
C2 C 0.1517(5) 0.87337(19) -0.2338(3)
C3 C -0.0777(4) 0.82652(19) -0.2208(3)
C4 C 0.4179(5) 0.9060(3) -0.0298(4)
H1 H 0.4173 0.9062 0.0391
C5 C 0.4195(5) 0.9083(2) -0.2292(4)
H2 H 0.4181 0.9093 -0.2981
C6 C 0.1289(5) 0.8815(2) -0.3352(3)
H3 H 0.2007 0.9009 -0.3721
C7 C 0.5472(5) 0.9226(3) -0.0744(4)
H4 H 0.6321 0.9329 -0.0363
C8 C 0.5489(6) 0.9236(3) -0.1748(4)
H5 H 0.6352 0.9344 -0.2067
C9 C -0.1859(4) 0.7967(2) -0.1561(3)
O1 O -0.0946(4) 0.87269(14) -0.8692(2)
O2 O -0.3435(4) 0.8938(2) -0.8176(3)
O3 O -0.1649(5) 0.97643(17) -0.8249(3)
C10 C -0.1291(5) 0.8966(2) -0.6847(3)
O4 O 0.2992(3) 0.82237(15) -0.4922(2)
O5 O 0.1217(3) 0.73902(14) -0.4926(2)
O6 O 0.2251(4) 0.77169(16) -0.6472(2)
O7 O 0.1371(3) 0.95928(14) 0.0668(2)
C11 C 0.0637(4) 1.00578(19) 0.0394(3)
C12 C -0.2622(5) 0.7828(2) 0.0035(3)
H6 H -0.2506 0.7911 0.0709
C13 C -0.2983(5) 0.7585(2) -0.1922(4)
H7 H -0.3096 0.7509 -0.2599
C14 C -0.0019(5) 0.8605(2) -0.3807(3)
C15 C -0.1062(5) 0.8318(2) -0.3231(3)
H8 H -0.1941 0.8163 -0.3522
C16 C -0.0135(5) 0.85593(19) -0.6652(3)
H9 H 0.0339 0.8371 -0.7172
C17 C -0.3767(6) 0.7447(3) -0.0274(4)
H10 H -0.4411 0.7282 0.0180
C18 C -0.3942(5) 0.7316(3) -0.1263(4)
H11 H -0.4691 0.7051 -0.1491
C19 C 0.0320(4) 0.8432(2) -0.5675(3)
C20 C -0.2007(5) 0.9253(2) -0.6086(3)
H12 H -0.2773 0.9531 -0.6225
O8 O 0.0839(3) 1.05967(13) 0.0674(2)
C21 C -0.0391(5) 0.8714(2) -0.4889(3)
C22 C -0.1573(6) 0.9121(3) -0.5117(3)
H13 H -0.2073 0.9305 -0.4604
O9 O 0.2265(4) 0.84689(15) 0.1355(2)
H14 H 0.1717 0.8334 0.1810
H15 H 0.2789 0.8168 0.1164
O7B O -0.1371(3) 1.04072(14) -0.0668(2)
C11B C -0.0637(4) 0.99422(19) -0.0394(3)
O8B O -0.0839(3) 0.94033(13) -0.0674(2)
Yb1B Yb -0.061896(18) 1.135794(8) -0.003237(11)
S1B S -0.18291(11) 1.20961(5) 0.54967(7)
S2B S 0.18994(12) 1.08746(6) 0.80874(7)
N1B N 0.1655(4) 1.19116(16) 0.0579(2)
N2B N -0.2925(4) 1.11046(18) 0.0804(2)
N3B N -0.0484(4) 1.15272(16) 0.1772(2)
C1B C -0.2938(5) 1.1084(2) 0.1807(3)
C2B C -0.1517(5) 1.12663(19) 0.2338(3)
C3B C 0.0777(4) 1.17348(19) 0.2208(3)
C4B C -0.4179(5) 1.0940(3) 0.0298(4)
H1B H -0.4173 1.0938 -0.0391
C5B C -0.4195(5) 1.0917(2) 0.2292(4)
H2B H -0.4181 1.0907 0.2981
C6B C -0.1289(5) 1.1185(2) 0.3352(3)
H3B H -0.2007 1.0991 0.3721
C7B C -0.5472(5) 1.0774(3) 0.0744(4)
H4B H -0.6321 1.0671 0.0363
C8B C -0.5489(6) 1.0764(3) 0.1748(4)
H5B H -0.6352 1.0656 0.2067
C9B C 0.1859(4) 1.2033(2) 0.1561(3)
O1B O 0.0946(4) 1.12731(14) 0.8692(2)
O2B O 0.3435(4) 1.1062(2) 0.8176(3)
O3B O 0.1649(5) 1.02357(17) 0.8249(3)
C10B C 0.1291(5) 1.1034(2) 0.6847(3)
O4B O -0.2992(3) 1.17763(15) 0.4922(2)
O5B O -0.1217(3) 1.26098(14) 0.4926(2)
O6B O -0.2251(4) 1.22831(16) 0.6472(2)
C12B C 0.2622(5) 1.2172(2) -0.0035(3)
H6B H 0.2506 1.2089 -0.0709
C13B C 0.2983(5) 1.2415(2) 0.1922(4)
H7B H 0.3096 1.2491 0.2599
C14B C 0.0019(5) 1.1395(2) 0.3807(3)
C15B C 0.1062(5) 1.1682(2) 0.3231(3)
H8B H 0.1941 1.1837 0.3522
C16B C 0.0135(5) 1.14407(19) 0.6652(3)
H9B H -0.0339 1.1629 0.7172
C17B C 0.3767(6) 1.2553(3) 0.0274(4)
H10B H 0.4411 1.2718 -0.0180
C18B C 0.3942(5) 1.2684(3) 0.1263(4)
H11B H 0.4691 1.2949 0.1491
C19B C -0.0320(4) 1.1568(2) 0.5675(3)
C20B C 0.2007(5) 1.0747(2) 0.6086(3)
H12B H 0.2773 1.0469 0.6225
C21B C 0.0391(5) 1.1286(2) 0.4889(3)
C22B C 0.1573(6) 1.0879(3) 0.5117(3)
H13B H 0.2073 1.0695 0.4604
O9B O -0.2265(4) 1.15311(15) -0.1355(2)
H14B H -0.1717 1.1666 -0.1810
H15B H -0.2789 1.1832 -0.1164
Yb1_2 Yb 0.061896(18) 0.864206(8) -0.996763(11)
Yb1A Yb -0.061896(18) 1.364206(8) 0.496763(11)
Yb1B_2 Yb -0.061896(18) 1.135794(8) 0.996763(11)
Yb1C Yb 0.061896(18) 0.635794(8) -0.496763(11)
O1_2 O -0.0946(4) 0.87269(14) 0.1308(2)
O1B_2 O 0.0946(4) 1.12731(14) -0.1308(2)
O5A O -0.1217(3) 1.23902(14) -0.0074(2)
O5C O 0.1217(3) 0.76098(14) 0.0074(2)
O10 O 0.3831(4) 0.74439(18) 0.1792(3)
H16 H 0.4113 0.7079 0.1651
H17 H 0.3910 0.7483 0.2415
O11 O 0.3829(5) 0.9223(3) 0.2647(4)
H18 H 0.4645 0.9187 0.2336
H19 H 0.3151 0.9317 0.2239
O12 O 0.1492(6) 1.0075(3) 0.2887(5)
H20 H 0.1269 1.0456 0.2886
H21 H 0.0848 0.9888 0.3220
O13 O 0.3933(11) 0.9529(5) 0.4794(7)
H22 H 0.4190 0.9153 0.4834
H23 H 0.3042 0.9551 0.5005
loop_
_geom_bond_atom_site_label_1
_geom_bond_atom_site_label_2
_geom_bond_site_symmetry_1
_geom_bond_site_symmetry_2
Yb1 N1 1_555 1_555
S1 O4 1_555 1_555
S2 O1 1_555 1_555
N1 C9 1_555 1_555
N2 Yb1 1_555 1_555
N3 Yb1 1_555 1_555
C1 N2 1_555 1_555
C2 N3 1_555 1_555
C3 N3 1_555 1_555
C4 N2 1_555 1_555
H1 C4 1_555 1_555
C5 C1 1_555 1_555
H2 C5 1_555 1_555
C6 C2 1_555 1_555
H3 C6 1_555 1_555
C7 C4 1_555 1_555
H4 C7 1_555 1_555
C8 C5 1_555 1_555
H5 C8 1_555 1_555
C9 C3 1_555 1_555
O1 Yb1_2 1_555 1_555
O2 S2 1_555 1_555
O3 S2 1_555 1_555
C10 S2 1_555 1_555
O5 S1 1_555 1_555
O6 S1 1_555 1_555
O7 Yb1 1_555 1_555
C11 O7 1_555 1_555
C12 N1 1_555 1_555
H6 C12 1_555 1_555
C13 C9 1_555 1_555
H7 C13 1_555 1_555
C14 C6 1_555 1_555
C15 C3 1_555 1_555
H8 C15 1_555 1_555
C16 C10 1_555 1_555
H9 C16 1_555 1_555
C17 C12 1_555 1_555
H10 C17 1_555 1_555
C18 C13 1_555 1_555
H11 C18 1_555 1_555
C19 S1 1_555 1_555
C20 C10 1_555 1_555
H12 C20 1_555 1_555
O8 C11 1_555 1_555
C21 C14 1_555 1_555
C22 C20 1_555 1_555
H13 C22 1_555 1_555
O9 Yb1 1_555 1_555
H14 O9 1_555 1_555
H15 O9 1_555 1_555
O10 H16 1_555 1_555
H17 O10 1_555 1_555
O11 H18 1_555 1_555
H19 O11 1_555 1_555
O12 H20 1_555 1_555
H21 O12 1_555 1_555
O13 H22 1_555 1_555
H23 O13 1_555 1_555
O7B C11B 1_555 1_555
C11B C11 1_555 1_555
O8B Yb1 1_555 1_555
Yb1B O8 1_555 1_555
S1B O4B 1_555 1_555
S2B O1B 1_555 1_555
N1B Yb1B 1_555 1_555
N2B Yb1B 1_555 1_555
N3B Yb1B 1_555 1_555
C1B N2B 1_555 1_555
C2B N3B 1_555 1_555
C3B N3B 1_555 1_555
C4B N2B 1_555 1_555
H1B C4B 1_555 1_555
C5B C1B 1_555 1_555
H2B C5B 1_555 1_555
C6B C2B 1_555 1_555
H3B C6B 1_555 1_555
C7B C4B 1_555 1_555
H4B C7B 1_555 1_555
C8B C5B 1_555 1_555
H5B C8B 1_555 1_555
C9B N1B 1_555 1_555
O1B Yb1B_2 1_555 1_555
O2B S2B 1_555 1_555
O3B S2B 1_555 1_555
C10B S2B 1_555 1_555
O5B S1B 1_555 1_555
O6B S1B 1_555 1_555
C12B N1B 1_555 1_555
H6B C12B 1_555 1_555
C13B C9B 1_555 1_555
H7B C13B 1_555 1_555
C14B C6B 1_555 1_555
C15B C3B 1_555 1_555
H8B C15B 1_555 1_555
C16B C10B 1_555 1_555
H9B C16B 1_555 1_555
C17B C12B 1_555 1_555
H10B C17B 1_555 1_555
C18B C13B 1_555 1_555
H11B C18B 1_555 1_555
C19B S1B 1_555 1_555
C20B C10B 1_555 1_555
H12B C20B 1_555 1_555
C21B C14B 1_555 1_555
C22B C20B 1_555 1_555
H13B C22B 1_555 1_555
O9B Yb1B 1_555 1_555
H14B O9B 1_555 1_555
H15B O9B 1_555 1_555
Yb1A O5B 1_555 1_555
Yb1C O5 1_555 1_555
O1_2 Yb1 1_555 1_555
O1B_2 Yb1B 1_555 1_555
O5A Yb1B 1_555 1_555
O5C Yb1 1_555 1_555
C1 C2 1_555 1_555
C7 C8 1_555 1_555
C14 C15 1_555 1_555
C16 C19 1_555 1_555
C17 C18 1_555 1_555
C19 C21 1_555 1_555
C21 C22 1_555 1_555
O7B Yb1B 1_555 1_555
C11B O8B 1_555 1_555
C1B C2B 1_555 1_555
C3B C9B 1_555 1_555
C7B C8B 1_555 1_555
C14B C15B 1_555 1_555
C16B C19B 1_555 1_555
C17B C18B 1_555 1_555
C19B C21B 1_555 1_555
C21B C22B 1_555 1_555

#END
