
#######################################################################
#
#                 Cambridge Crystallographic Data Centre
#                                CCDC 
#
#######################################################################
#
# If this CIF has been generated from an entry in the Cambridge 
# Structural Database, then it will include bibliographic, chemical, 
# crystal, experimental, refinement or atomic coordinate data resulting 
# from the CCDC's data processing and validation procedures.
#
#######################################################################

data_TODTEN
_symmetry_cell_setting           triclinic
_symmetry_space_group_name_H-M   'P -1'
_symmetry_Int_Tables_number      2
_space_group_name_Hall           '-P 1'
loop_
_symmetry_equiv_pos_site_id
_symmetry_equiv_pos_as_xyz
1 x,y,z
2 -x,-y,-z
_cell_length_a                   10.744(3)
_cell_length_b                   11.964(3)
_cell_length_c                   12.004(6)
_cell_angle_alpha                109.647(4)
_cell_angle_beta                 103.175(4)
_cell_angle_gamma                109.375(3)
_cell_volume                     1266.86
loop_
_atom_site_label
_atom_site_type_symbol
_atom_site_fract_x
_atom_site_fract_y
_atom_site_fract_z
Dy1 Dy 0.03310(3) 0.46520(3) 0.18194(3)
O1 O -0.0927(6) 0.6761(5) 0.7491(5)
O2 O -0.1658(6) 0.4774(6) 0.0799(6)
O3 O -0.1005(6) 1.3230(5) 0.8217(5)
O4 O -0.0971(6) 1.2618(5) 0.9941(5)
N1 N -0.1731(7) 0.3545(6) 0.2393(6)
N2 N 0.0274(6) 0.6005(6) 0.3892(6)
N3 N 0.2740(7) 0.6335(6) 0.3633(6)
C1 C -0.2285(8) 0.5064(7) 0.0009(7)
C2 C -0.2672(9) 0.2259(8) 0.1683(8)
C3 C -0.2095(8) 0.4328(7) 0.3228(7)
C4 C 0.1385(9) 0.7209(7) 0.4690(7)
C5 C -0.0971(8) 0.5749(8) 0.4074(7)
C6 C 0.2760(8) 0.7402(7) 0.4543(7)
C7 C 0.3984(9) 0.6431(8) 0.3533(8)
O5 O -0.1848(6) 0.5339(5) -0.0789(5)
C8 C -0.3698(8) 0.5035(7) 0.0001(7)
C9 C -0.3988(10) 0.1729(9) 0.1745(9)
H1 H -0.2421 0.1703 0.1126
C10 C -0.3404(9) 0.3855(9) 0.3332(8)
C11 C 0.1231(9) 0.8186(8) 0.5610(7)
C12 C -0.1220(9) 0.6674(8) 0.4898(7)
C13 C 0.4011(9) 0.8563(8) 0.5321(8)
C14 C 0.5257(9) 0.7554(9) 0.4301(9)
H2 H 0.3989 0.5710 0.2919
C15 C -0.4235(8) 0.5722(8) -0.0508(8)
C16 C -0.4449(8) 0.4320(8) 0.0519(8)
H3 H -0.4610 0.0833 0.1242
C17 C -0.4370(9) 0.2543(8) 0.2560(8)
H4 H -0.3629 0.4414 0.3915
H5 H 0.2012 0.9003 0.6159
C18 C -0.0089(9) 0.7931(7) 0.5701(7)
H6 H -0.2123 0.6473 0.4925
H7 H 0.3993 0.9286 0.5919
C19 C 0.5281(10) 0.8640(9) 0.5204(9)
H8 H 0.6099 0.7576 0.4208
H9 H -0.3723 0.6216 -0.0847
H10 H -0.4078 0.3864 0.0877
H11 H -0.5269 0.2215 0.2592
C20 C -0.0350(9) 0.8972(7) 0.6574(7)
H12 H 0.6131 0.9408 0.5724
C21 C 0.0245(10) 1.0238(8) 0.6603(8)
C22 C -0.1172(8) 0.8804(7) 0.7305(7)
C23 C -0.0094(10) 1.1223(8) 0.7229(8)
H13 H 0.0873 1.0405 0.6194
S1 S -0.1954(2) 0.73278(19) 0.7486(2)
C24 C -0.1478(8) 0.9814(7) 0.7946(8)
C25 C -0.0974(8) 1.1011(7) 0.7871(7)
H14 H 0.0280 1.2037 0.7213
O6 O -0.2099(8) 0.7785(6) 0.8697(6)
O7 O -0.3277(6) 0.6475(6) 0.6383(7)
H15 H -0.2026 0.9693 0.8432
S2 S -0.1577(2) 1.21778(17) 0.85664(18)
O8 O -0.3104(6) 1.1488(6) 0.8035(6)
O2A O -0.8342(6) 0.5226(6) -0.0799(6)
C1A C -0.7715(8) 0.4936(7) -0.0009(7)
O5A O -0.8152(6) 0.4661(5) 0.0789(5)
C8A C -0.6302(8) 0.4965(7) -0.0001(7)
C15A C -0.5765(8) 0.4278(8) 0.0508(8)
C16A C -0.5551(8) 0.5680(8) -0.0519(8)
H9A H -0.6277 0.3784 0.0847
H10A H -0.5922 0.6136 -0.0877
Dy1A Dy -1.03310(3) 0.53480(3) -0.18194(3)
O1A O -0.9073(6) 0.3239(5) -0.7491(5)
O3A O -0.8995(6) -0.3230(5) -0.8217(5)
O4A O -0.9029(6) -0.2618(5) -0.9941(5)
N1A N -0.8269(7) 0.6455(6) -0.2393(6)
N2A N -1.0274(6) 0.3995(6) -0.3892(6)
N3A N -1.2740(7) 0.3665(6) -0.3633(6)
C2A C -0.7328(9) 0.7741(8) -0.1683(8)
C3A C -0.7905(8) 0.5672(7) -0.3228(7)
C4A C -1.1385(9) 0.2791(7) -0.4690(7)
C5A C -0.9029(8) 0.4251(8) -0.4074(7)
C6A C -1.2760(8) 0.2598(7) -0.4543(7)
C7A C -1.3984(9) 0.3569(8) -0.3533(8)
C9A C -0.6012(10) 0.8271(9) -0.1745(9)
H1A H -0.7579 0.8297 -0.1126
C10A C -0.6596(9) 0.6145(9) -0.3332(8)
C11A C -1.1231(9) 0.1814(8) -0.5610(7)
C12A C -0.8780(9) 0.3326(8) -0.4898(7)
C13A C -1.4011(9) 0.1437(8) -0.5321(8)
C14A C -1.5257(9) 0.2446(9) -0.4301(9)
H2A H -1.3989 0.4290 -0.2919
H3A H -0.5390 0.9167 -0.1242
C17A C -0.5630(9) 0.7457(8) -0.2560(8)
H4A H -0.6371 0.5586 -0.3915
H5A H -1.2012 0.0997 -0.6159
C18A C -0.9911(9) 0.2069(7) -0.5701(7)
H6A H -0.7877 0.3527 -0.4925
H7A H -1.3993 0.0714 -0.5919
C19A C -1.5281(10) 0.1360(9) -0.5204(9)
H8A H -1.6099 0.2424 -0.4208
H11A H -0.4731 0.7785 -0.2592
C20A C -0.9650(9) 0.1028(7) -0.6574(7)
H12A H -1.6131 0.0592 -0.5724
C21A C -1.0245(10) -0.0238(8) -0.6603(8)
C22A C -0.8828(8) 0.1196(7) -0.7305(7)
C23A C -0.9906(10) -0.1223(8) -0.7229(8)
H13A H -1.0873 -0.0405 -0.6194
S1A S -0.8046(2) 0.26722(19) -0.7486(2)
C24A C -0.8522(8) 0.0186(7) -0.7946(8)
C25A C -0.9026(8) -0.1011(7) -0.7871(7)
H14A H -1.0280 -0.2037 -0.7213
O6A O -0.7901(8) 0.2215(6) -0.8697(6)
O7A O -0.6723(6) 0.3525(6) -0.6383(7)
H15A H -0.7974 0.0307 -0.8432
S2A S -0.8423(2) -0.21778(17) -0.85664(18)
O8A O -0.6896(6) -0.1488(6) -0.8035(6)
Dy1_2 Dy -0.96690(3) -0.53480(3) -0.81806(3)
Dy1_3 Dy -0.96690(3) 0.46520(3) -0.81806(3)
Dy1_4 Dy -0.96690(3) 0.46520(3) 0.18194(3)
Dy1_5 Dy 0.03310(3) 1.46520(3) 1.18194(3)
Dy1A_2 Dy -1.03310(3) -0.46520(3) -1.18194(3)
Dy1A_3 Dy -0.03310(3) 0.53480(3) -0.18194(3)
Dy1A_4 Dy -0.03310(3) 0.53480(3) 0.81806(3)
Dy1A_5 Dy -0.03310(3) 1.53480(3) 0.81806(3)
O1_2 O -1.0927(6) 0.6761(5) -0.2509(5)
O1A_2 O 0.0927(6) 0.3239(5) 0.2509(5)
O3_2 O -1.1005(6) 0.3230(5) -0.1783(5)
O3A_2 O 0.1005(6) 0.6770(5) 0.1783(5)
O4_2 O -0.0971(6) 0.2618(5) -0.0059(5)
O4A_2 O -0.9029(6) 0.7382(5) 0.0059(5)
O5_2 O -1.1848(6) 0.5339(5) -0.0789(5)
O5A_2 O 0.1848(6) 0.4661(5) 0.0789(5)
O9 O 0.4017(9) 0.1195(8) 0.7782(9)
H16 H 0.4135 0.1990 0.8164
H17 H 0.4852 0.1237 0.7903
O10 O 0.2651(14) 0.0620(11) 0.9418(12)
H18 H 0.1837 0.0099 0.8851
H19 H 0.2603 0.1256 0.9967
loop_
_geom_bond_atom_site_label_1
_geom_bond_atom_site_label_2
_geom_bond_site_symmetry_1
_geom_bond_site_symmetry_2
Dy1 O2 1_555 1_555
O1 S1 1_555 1_555
O2 C1 1_555 1_555
O3 S2 1_555 1_555
O4 S2 1_555 1_555
N1 Dy1 1_555 1_555
N2 Dy1 1_555 1_555
N3 Dy1 1_555 1_555
C1 O5 1_555 1_555
C2 N1 1_555 1_555
C3 N1 1_555 1_555
C4 N2 1_555 1_555
C5 N2 1_555 1_555
C6 N3 1_555 1_555
C7 N3 1_555 1_555
O5 Dy1A_3 1_555 1_555
C8 C1 1_555 1_555
C9 C2 1_555 1_555
H1 C2 1_555 1_555
C10 C3 1_555 1_555
C11 C4 1_555 1_555
C12 C5 1_555 1_555
C13 C6 1_555 1_555
C14 C7 1_555 1_555
H2 C7 1_555 1_555
C15 C8 1_555 1_555
C16 C8 1_555 1_555
H3 C9 1_555 1_555
C17 C9 1_555 1_555
H4 C10 1_555 1_555
H5 C11 1_555 1_555
C18 C11 1_555 1_555
H6 C12 1_555 1_555
H7 C13 1_555 1_555
C19 C13 1_555 1_555
H8 C14 1_555 1_555
H9 C15 1_555 1_555
H10 C16 1_555 1_555
H11 C17 1_555 1_555
C20 C18 1_555 1_555
H12 C19 1_555 1_555
C21 C20 1_555 1_555
C22 C20 1_555 1_555
C23 C21 1_555 1_555
H13 C21 1_555 1_555
S1 C22 1_555 1_555
C24 C22 1_555 1_555
C25 C23 1_555 1_555
H14 C23 1_555 1_555
O6 S1 1_555 1_555
O7 S1 1_555 1_555
H15 C24 1_555 1_555
S2 C25 1_555 1_555
O8 S2 1_555 1_555
O9 H16 1_555 1_555
H17 O9 1_555 1_555
O10 H18 1_555 1_555
H19 O10 1_555 1_555
O2A C1A 1_555 1_555
C1A O5A 1_555 1_555
O5A Dy1_4 1_555 1_555
C8A C1A 1_555 1_555
C15A C16 1_555 1_555
C16A C15 1_555 1_555
H9A C15A 1_555 1_555
H10A C16A 1_555 1_555
Dy1A O2A 1_555 1_555
O1A S1A 1_555 1_555
O3A S2A 1_555 1_555
O4A S2A 1_555 1_555
N1A Dy1A 1_555 1_555
N2A Dy1A 1_555 1_555
N3A Dy1A 1_555 1_555
C2A N1A 1_555 1_555
C3A N1A 1_555 1_555
C4A N2A 1_555 1_555
C5A N2A 1_555 1_555
C6A N3A 1_555 1_555
C7A N3A 1_555 1_555
C9A C2A 1_555 1_555
H1A C2A 1_555 1_555
C10A C3A 1_555 1_555
C11A C4A 1_555 1_555
C12A C5A 1_555 1_555
C13A C6A 1_555 1_555
C14A C7A 1_555 1_555
H2A C7A 1_555 1_555
H3A C9A 1_555 1_555
C17A C9A 1_555 1_555
H4A C10A 1_555 1_555
H5A C11A 1_555 1_555
C18A C11A 1_555 1_555
H6A C12A 1_555 1_555
H7A C13A 1_555 1_555
C19A C13A 1_555 1_555
H8A C14A 1_555 1_555
H11A C17A 1_555 1_555
C20A C18A 1_555 1_555
H12A C19A 1_555 1_555
C21A C20A 1_555 1_555
C22A C20A 1_555 1_555
C23A C21A 1_555 1_555
H13A C21A 1_555 1_555
S1A C22A 1_555 1_555
C24A C22A 1_555 1_555
C25A C23A 1_555 1_555
H14A C23A 1_555 1_555
O6A S1A 1_555 1_555
O7A S1A 1_555 1_555
H15A C24A 1_555 1_555
S2A C25A 1_555 1_555
O8A S2A 1_555 1_555
Dy1_2 O3A 1_555 1_555
Dy1_3 O1A 1_555 1_555
Dy1_5 O4 1_555 1_555
Dy1A_2 O4A 1_555 1_555
Dy1A_4 O1 1_555 1_555
Dy1A_5 O3 1_555 1_555
O1_2 Dy1A 1_555 1_555
O1A_2 Dy1 1_555 1_555
O3_2 Dy1A 1_555 1_555
O3A_2 Dy1 1_555 1_555
O4_2 Dy1 1_555 1_555
O4A_2 Dy1A 1_555 1_555
O5_2 Dy1A 1_555 1_555
O5A_2 Dy1 1_555 1_555
C3 C5 1_555 1_555
C4 C6 1_555 1_555
C10 C17 1_555 1_555
C12 C18 1_555 1_555
C14 C19 1_555 1_555
C24 C25 1_555 1_555
C8A C15A 1_555 1_555
C8A C16A 1_555 1_555
C3A C5A 1_555 1_555
C4A C6A 1_555 1_555
C10A C17A 1_555 1_555
C12A C18A 1_555 1_555
C14A C19A 1_555 1_555
C24A C25A 1_555 1_555

#END
