
#######################################################################
#
#                 Cambridge Crystallographic Data Centre
#                                CCDC 
#
#######################################################################
#
# If this CIF has been generated from an entry in the Cambridge 
# Structural Database, then it will include bibliographic, chemical, 
# crystal, experimental, refinement or atomic coordinate data resulting 
# from the CCDC's data processing and validation procedures.
#
#######################################################################

data_TODTIR
_symmetry_cell_setting           triclinic
_symmetry_space_group_name_H-M   'P -1'
_symmetry_Int_Tables_number      2
_space_group_name_Hall           '-P 1'
loop_
_symmetry_equiv_pos_site_id
_symmetry_equiv_pos_as_xyz
1 x,y,z
2 -x,-y,-z
_cell_length_a                   10.7213(10)
_cell_length_b                   11.9418(11)
_cell_length_c                   11.9667(11)
_cell_angle_alpha                109.7400(10)
_cell_angle_beta                 103.1380(10)
_cell_angle_gamma                109.2170(10)
_cell_volume                     1259.12
loop_
_atom_site_label
_atom_site_type_symbol
_atom_site_fract_x
_atom_site_fract_y
_atom_site_fract_z
Er1 Er 0.03341(2) 0.46517(2) 0.18176(2)
O1 O 0.0917(4) 0.3238(4) 0.2504(3)
O2 O -0.1636(4) 0.4790(4) 0.0815(4)
O3 O 0.1016(4) 0.6764(4) 0.1794(4)
O4 O -0.0963(4) 0.2636(4) -0.0045(3)
O5 O 0.1829(4) 0.4639(4) 0.0778(3)
N1 N -0.1729(4) 0.3529(4) 0.2377(4)
N2 N 0.0290(4) 0.5998(4) 0.3870(4)
N3 N 0.2745(4) 0.6326(4) 0.3615(4)
C1 C -0.2280(5) 0.5065(5) 0.0024(5)
C2 C -0.2076(5) 0.4343(5) 0.3226(5)
C3 C -0.2662(6) 0.2266(6) 0.1684(6)
C4 C -0.0969(5) 0.5720(5) 0.4024(5)
C5 C 0.1397(5) 0.7203(5) 0.4687(5)
C6 C 0.3976(6) 0.6406(6) 0.3507(6)
C7 C 0.2781(5) 0.7388(5) 0.4525(5)
C8 C -0.3692(5) 0.5041(5) 0.0003(5)
C9 C -0.3410(6) 0.3858(6) 0.3327(5)
H1 H -0.2412 0.1708 0.1122
C10 C -0.3980(6) 0.1725(6) 0.1743(6)
C11 C -0.1191(6) 0.6672(5) 0.4905(5)
C12 C 0.1253(6) 0.8186(5) 0.5606(5)
C13 C 0.5270(6) 0.7511(6) 0.4266(6)
H2 H 0.3963 0.5675 0.2885
C14 C 0.4028(6) 0.8550(6) 0.5308(5)
C15 C -0.4230(5) 0.5745(6) -0.0501(5)
C16 C -0.4460(6) 0.4305(6) 0.0510(6)
H3 H -0.3645 0.4418 0.3903
C17 C -0.4366(6) 0.2541(6) 0.2560(6)
H4 H -0.4594 0.0827 0.1241
C18 C -0.0080(6) 0.7911(5) 0.5687(5)
H5 H -0.2082 0.6469 0.4962
H6 H 0.2030 0.9007 0.6154
C19 C 0.5286(6) 0.8617(6) 0.5162(6)
H7 H 0.6110 0.7512 0.4177
H8 H 0.4016 0.9272 0.5920
H9 H -0.3715 0.6249 -0.0831
H10 H -0.4090 0.3842 0.0860
H11 H -0.5264 0.2210 0.2596
C20 C -0.0324(6) 0.8974(5) 0.6573(5)
H12 H 0.6132 0.9394 0.5657
C21 C 0.0249(6) 1.0224(6) 0.6602(5)
C22 C -0.1152(5) 0.8812(5) 0.7310(5)
C23 C -0.0065(6) 1.1242(5) 0.7242(5)
H13 H 0.0865 1.0381 0.6177
C24 C -0.1461(5) 0.9823(5) 0.7960(5)
S1 S -0.19412(15) 0.73280(13) 0.74922(14)
C25 C -0.0960(5) 1.1019(5) 0.7887(5)
H14 H 0.0324 1.2059 0.7234
H15 H -0.2008 0.9702 0.8449
O6 O -0.3265(4) 0.6474(4) 0.6388(5)
O7 O -0.2097(5) 0.7784(4) 0.8705(4)
S2 S -0.15800(13) 1.21879(12) 0.85729(12)
O8 O -0.3113(4) 1.1485(4) 0.8042(4)
O5A O -0.1829(4) 0.5361(4) -0.0778(3)
Er1A Er -0.03341(2) 0.53483(2) -0.18176(2)
C16A C -0.5540(6) 0.5695(6) -0.0510(6)
C15A C -0.5770(5) 0.4255(6) 0.0501(5)
C8A C -0.6308(5) 0.4959(5) -0.0003(5)
H10A H -0.5910 0.6158 -0.0860
H9A H -0.6285 0.3751 0.0831
C1A C -0.7720(5) 0.4935(5) -0.0024(5)
O5_2 O -0.8171(4) 0.4639(4) 0.0778(3)
O2A O -0.8364(4) 0.5210(4) -0.0815(4)
O1A O -0.0917(4) 0.6762(4) 0.7496(3)
Er1A_2 Er -0.03341(2) 0.53483(2) 0.81824(2)
Er1_2 Er -0.96659(2) 0.46517(2) 0.18176(2)
Er1A_3 Er -1.03341(2) 0.53483(2) -0.18176(2)
O1A_2 O -1.0917(4) 0.6762(4) -0.2504(3)
O3A O -1.1016(4) 0.3236(4) -0.1794(4)
O4A O -0.9037(4) 0.7364(4) 0.0045(3)
O5A_2 O -1.1829(4) 0.5361(4) -0.0778(3)
N1A N -0.8271(4) 0.6471(4) -0.2377(4)
N2A N -1.0290(4) 0.4002(4) -0.3870(4)
N3A N -1.2745(4) 0.3674(4) -0.3615(4)
O3A_2 O -0.1016(4) 1.3236(4) 0.8206(4)
O4_2 O -0.0963(4) 1.2636(4) 0.9955(3)
C3A C -0.7338(6) 0.7734(6) -0.1684(6)
C2A C -0.7924(5) 0.5657(5) -0.3226(5)
C4A C -0.9031(5) 0.4280(5) -0.4024(5)
C5A C -1.1397(5) 0.2797(5) -0.4687(5)
C7A C -1.2781(5) 0.2612(5) -0.4525(5)
C6A C -1.3976(6) 0.3594(6) -0.3507(6)
Er1A_4 Er -0.03341(2) 1.53483(2) 0.81824(2)
Er1_3 Er 0.03341(2) 1.46517(2) 1.18176(2)
H1A H -0.7588 0.8292 -0.1122
C10A C -0.6020(6) 0.8275(6) -0.1743(6)
C9A C -0.6590(6) 0.6142(6) -0.3327(5)
C11A C -0.8809(6) 0.3328(5) -0.4905(5)
C12A C -1.1253(6) 0.1814(5) -0.5606(5)
C14A C -1.4028(6) 0.1450(6) -0.5308(5)
C13A C -1.5270(6) 0.2489(6) -0.4266(6)
H2A H -1.3963 0.4325 -0.2885
C17A C -0.5634(6) 0.7459(6) -0.2560(6)
H4A H -0.5406 0.9173 -0.1241
H3A H -0.6355 0.5582 -0.3903
C18A C -0.9920(6) 0.2089(5) -0.5687(5)
H5A H -0.7918 0.3531 -0.4962
H6A H -1.2030 0.0993 -0.6154
H8A H -1.4016 0.0728 -0.5920
C19A C -1.5286(6) 0.1383(6) -0.5162(6)
H7A H -1.6110 0.2488 -0.4177
H11A H -0.4736 0.7790 -0.2596
C20A C -0.9676(6) 0.1026(5) -0.6573(5)
H12A H -1.6132 0.0606 -0.5657
C21A C -1.0249(6) -0.0224(6) -0.6602(5)
C22A C -0.8848(5) 0.1188(5) -0.7310(5)
C23A C -0.9935(6) -0.1242(5) -0.7242(5)
H13A H -1.0865 -0.0381 -0.6177
C24A C -0.8539(5) 0.0177(5) -0.7960(5)
S1A S -0.80588(15) 0.26720(13) -0.74922(14)
H14A H -1.0324 -0.2059 -0.7234
C25A C -0.9040(5) -0.1019(5) -0.7887(5)
H15A H -0.7992 0.0298 -0.8449
O6A O -0.6735(4) 0.3526(4) -0.6388(5)
O1_2 O -0.9083(4) 0.3238(4) -0.7496(3)
O7A O -0.7903(5) 0.2216(4) -0.8705(4)
Er1_4 Er -0.96659(2) 0.46517(2) -0.81824(2)
S2A S -0.84200(13) -0.21879(12) -0.85729(12)
O3_2 O -0.8984(4) -0.3236(4) -0.8206(4)
O4A_2 O -0.9037(4) -0.2636(4) -0.9955(3)
O8A O -0.6887(4) -0.1485(4) -0.8042(4)
Er1_5 Er -0.96659(2) -0.53483(2) -0.81824(2)
Er1A_5 Er -1.03341(2) -0.46517(2) -1.18176(2)
O9 O 0.4010(6) 0.1184(6) 0.7780(6)
H16 H 0.4128 0.1979 0.8162
H17 H 0.4845 0.1226 0.7902
O10 O 0.2671(10) 0.0629(9) 0.9424(8)
H18 H 0.1857 0.0107 0.8856
H19 H 0.2623 0.1265 0.9973
loop_
_geom_bond_atom_site_label_1
_geom_bond_atom_site_label_2
_geom_bond_site_symmetry_1
_geom_bond_site_symmetry_2
Er1 O1 1_555 1_555
O2 Er1 1_555 1_555
O3 Er1 1_555 1_555
O4 Er1 1_555 1_555
O5 Er1 1_555 1_555
N1 Er1 1_555 1_555
N2 Er1 1_555 1_555
N3 Er1 1_555 1_555
C1 O2 1_555 1_555
C2 N1 1_555 1_555
C3 N1 1_555 1_555
C4 N2 1_555 1_555
C5 N2 1_555 1_555
C6 N3 1_555 1_555
C7 N3 1_555 1_555
C8 C1 1_555 1_555
C9 C2 1_555 1_555
H1 C3 1_555 1_555
C10 C3 1_555 1_555
C11 C4 1_555 1_555
C12 C5 1_555 1_555
C13 C6 1_555 1_555
H2 C6 1_555 1_555
C14 C7 1_555 1_555
C15 C8 1_555 1_555
C16 C8 1_555 1_555
H3 C9 1_555 1_555
C17 C9 1_555 1_555
H4 C10 1_555 1_555
C18 C11 1_555 1_555
H5 C11 1_555 1_555
H6 C12 1_555 1_555
C19 C13 1_555 1_555
H7 C13 1_555 1_555
H8 C14 1_555 1_555
H9 C15 1_555 1_555
H10 C16 1_555 1_555
H11 C17 1_555 1_555
C20 C18 1_555 1_555
H12 C19 1_555 1_555
C21 C20 1_555 1_555
C22 C20 1_555 1_555
C23 C21 1_555 1_555
H13 C21 1_555 1_555
C24 C22 1_555 1_555
S1 C22 1_555 1_555
C25 C23 1_555 1_555
H14 C23 1_555 1_555
H15 C24 1_555 1_555
O6 S1 1_555 1_555
O7 S1 1_555 1_555
S2 C25 1_555 1_555
O8 S2 1_555 1_555
O9 H16 1_555 1_555
H17 O9 1_555 1_555
O10 H18 1_555 1_555
H19 O10 1_555 1_555
O5A C1 1_555 1_555
Er1A O5A 1_555 1_555
C16A C15 1_555 1_555
C15A C16 1_555 1_555
C8A C16A 1_555 1_555
H10A C16A 1_555 1_555
H9A C15A 1_555 1_555
C1A C8A 1_555 1_555
O5_2 C1A 1_555 1_555
O2A C1A 1_555 1_555
O1A S1 1_555 1_555
Er1A_2 O1A 1_555 1_555
Er1_2 O5_2 1_555 1_555
Er1A_3 O2A 1_555 1_555
O1A_2 Er1A_3 1_555 1_555
O3A Er1A_3 1_555 1_555
O4A Er1A_3 1_555 1_555
O5A_2 Er1A_3 1_555 1_555
N1A Er1A_3 1_555 1_555
N2A Er1A_3 1_555 1_555
N3A Er1A_3 1_555 1_555
O3A_2 S2 1_555 1_555
O4_2 S2 1_555 1_555
C3A N1A 1_555 1_555
C2A N1A 1_555 1_555
C4A N2A 1_555 1_555
C5A N2A 1_555 1_555
C7A N3A 1_555 1_555
C6A N3A 1_555 1_555
Er1A_4 O3A_2 1_555 1_555
Er1_3 O4_2 1_555 1_555
H1A C3A 1_555 1_555
C10A C3A 1_555 1_555
C9A C2A 1_555 1_555
C11A C4A 1_555 1_555
C12A C5A 1_555 1_555
C14A C7A 1_555 1_555
C13A C6A 1_555 1_555
H2A C6A 1_555 1_555
C17A C10A 1_555 1_555
H4A C10A 1_555 1_555
H3A C9A 1_555 1_555
C18A C11A 1_555 1_555
H5A C11A 1_555 1_555
H6A C12A 1_555 1_555
H8A C14A 1_555 1_555
C19A C14A 1_555 1_555
H7A C13A 1_555 1_555
H11A C17A 1_555 1_555
C20A C18A 1_555 1_555
H12A C19A 1_555 1_555
C21A C20A 1_555 1_555
C22A C20A 1_555 1_555
C23A C21A 1_555 1_555
H13A C21A 1_555 1_555
C24A C22A 1_555 1_555
S1A C22A 1_555 1_555
H14A C23A 1_555 1_555
C25A C23A 1_555 1_555
H15A C24A 1_555 1_555
O6A S1A 1_555 1_555
O1_2 S1A 1_555 1_555
O7A S1A 1_555 1_555
Er1_4 O1_2 1_555 1_555
S2A C25A 1_555 1_555
O3_2 S2A 1_555 1_555
O4A_2 S2A 1_555 1_555
O8A S2A 1_555 1_555
Er1_5 O3_2 1_555 1_555
Er1A_5 O4A_2 1_555 1_555
C2 C4 1_555 1_555
C5 C7 1_555 1_555
C10 C17 1_555 1_555
C12 C18 1_555 1_555
C14 C19 1_555 1_555
C24 C25 1_555 1_555
C15A C8A 1_555 1_555
C2A C4A 1_555 1_555
C5A C7A 1_555 1_555
C9A C17A 1_555 1_555
C12A C18A 1_555 1_555
C13A C19A 1_555 1_555
C24A C25A 1_555 1_555

#END
