
#######################################################################
#
#                 Cambridge Crystallographic Data Centre
#                                CCDC 
#
#######################################################################
#
# If this CIF has been generated from an entry in the Cambridge 
# Structural Database, then it will include bibliographic, chemical, 
# crystal, experimental, refinement or atomic coordinate data resulting 
# from the CCDC's data processing and validation procedures.
#
#######################################################################

data_TODVIT
_symmetry_cell_setting           monoclinic
_symmetry_space_group_name_H-M   'C 2/c'
_symmetry_Int_Tables_number      15
_space_group_name_Hall           '-C 2yn'
loop_
_symmetry_equiv_pos_site_id
_symmetry_equiv_pos_as_xyz
1 x,y,z
2 -x,y,1/2-z
3 1/2+x,1/2+y,z
4 1/2-x,1/2+y,1/2-z
5 -x,-y,-z
6 x,-y,1/2+z
7 1/2-x,1/2-y,-z
8 1/2+x,1/2-y,1/2+z
_cell_length_a                   20.666(4)
_cell_length_b                   7.1240(14)
_cell_length_c                   15.446(3)
_cell_angle_alpha                90
_cell_angle_beta                 110.53(3)
_cell_angle_gamma                90
_cell_volume                     2129.6
loop_
_atom_site_label
_atom_site_type_symbol
_atom_site_fract_x
_atom_site_fract_y
_atom_site_fract_z
Cd1 Cd 0.0000 0.11447(4) -0.2500
C1 C -0.11786(15) 0.3081(4) -0.2970(2)
C2 C -0.17742(15) 0.4402(4) -0.3278(2)
C3 C -0.17757(18) 0.5945(5) -0.2734(2)
H1 H -0.1419 0.6092 -0.2169
C4 C -0.2292(2) 0.7262(6) -0.3010(3)
H2 H -0.2277 0.8305 -0.2642
C5 C -0.2832(2) 0.7035(6) -0.3835(3)
H3 H -0.3185 0.7919 -0.4019
C6 C -0.28509(19) 0.5511(6) -0.4388(3)
H4 H -0.3220 0.5354 -0.4940
C7 C -0.23187(17) 0.4203(5) -0.4120(2)
C8 C -0.04575(18) -0.1256(5) -0.1005(2)
H5 H -0.0783 -0.0306 -0.1095
C9 C -0.04659(17) -0.2716(5) -0.0429(2)
H6 H -0.0788 -0.2727 -0.0134
C10 C 0.00037(15) -0.4171(4) -0.02874(17)
C11 C 0.04866(19) -0.3991(5) -0.0715(2)
H7 H 0.0828 -0.4896 -0.0625
C12 C 0.04594(19) -0.2476(5) -0.1273(3)
H8 H 0.0792 -0.2389 -0.1550
N1 N -0.00082(14) -0.1130(3) -0.14415(17)
N2 N -0.2348(2) 0.2594(6) -0.4674(3)
O1 O -0.07829(14) 0.3113(5) -0.21543(17)
O2 O -0.10638(14) 0.2038(4) -0.35414(17)
C1F C -0.38214(15) 0.1919(4) -0.7030(2)
C2F C -0.32258(15) 0.0598(4) -0.6722(2)
C3F C -0.32243(18) -0.0945(5) -0.7266(2)
H1F H -0.3581 -0.1092 -0.7831
C4F C -0.2708(2) -0.2262(6) -0.6990(3)
H2F H -0.2723 -0.3305 -0.7358
C5F C -0.2168(2) -0.2035(6) -0.6165(3)
H3F H -0.1815 -0.2919 -0.5981
C6F C -0.21491(19) -0.0511(6) -0.5612(3)
H4F H -0.1780 -0.0354 -0.5060
C7F C -0.26813(17) 0.0797(5) -0.5880(2)
N2F N -0.2652(2) 0.2406(6) -0.5326(3)
O1F O -0.42171(14) 0.1887(5) -0.78457(17)
O2F O -0.39362(14) 0.2962(4) -0.64586(17)
C8D C 0.04575(18) -0.8744(5) 0.1005(2)
H5D H 0.0783 -0.9694 0.1095
C9D C 0.04659(17) -0.7284(5) 0.0429(2)
H6D H 0.0788 -0.7273 0.0134
C10D C -0.00037(15) -0.5829(4) 0.02874(17)
C11D C -0.04866(19) -0.6009(5) 0.0715(2)
H7D H -0.0828 -0.5104 0.0625
C12D C -0.04594(19) -0.7524(5) 0.1273(3)
H8D H -0.0792 -0.7611 0.1550
N1D N 0.00082(14) -0.8870(3) 0.14415(17)
Cd1D Cd 0.0000 -1.11447(4) 0.2500
Cd1F Cd -0.5000 0.38553(4) -0.7500
N1A N 0.00082(14) -0.1130(3) -0.35585(17)
O1A O 0.07829(14) 0.3113(5) -0.28457(17)
O2A O 0.10638(14) 0.2038(4) -0.14586(17)
loop_
_geom_bond_atom_site_label_1
_geom_bond_atom_site_label_2
_geom_bond_site_symmetry_1
_geom_bond_site_symmetry_2
Cd1 N1 1_555 1_555
C1 C2 1_555 1_555
C2 C3 1_555 1_555
C3 H1 1_555 1_555
C4 C3 1_555 1_555
H2 C4 1_555 1_555
C5 C4 1_555 1_555
H3 C5 1_555 1_555
C6 C5 1_555 1_555
H4 C6 1_555 1_555
C7 C2 1_555 1_555
C8 H5 1_555 1_555
C9 C8 1_555 1_555
H6 C9 1_555 1_555
C10 C9 1_555 1_555
C11 C10 1_555 1_555
H7 C11 1_555 1_555
C12 C11 1_555 1_555
H8 C12 1_555 1_555
N1 C8 1_555 1_555
N2 C7 1_555 1_555
O1 Cd1 1_555 1_555
O2 Cd1 1_555 1_555
C1F C2F 1_555 1_555
C2F C3F 1_555 1_555
C3F H1F 1_555 1_555
C4F C3F 1_555 1_555
H2F C4F 1_555 1_555
C5F C4F 1_555 1_555
H3F C5F 1_555 1_555
C6F C5F 1_555 1_555
H4F C6F 1_555 1_555
C7F C2F 1_555 1_555
N2F N2 1_555 1_555
O1F C1F 1_555 1_555
O2F C1F 1_555 1_555
C8D H5D 1_555 1_555
C9D C8D 1_555 1_555
H6D C9D 1_555 1_555
C10D C10 1_555 1_555
C11D C10D 1_555 1_555
H7D C11D 1_555 1_555
C12D C11D 1_555 1_555
H8D C12D 1_555 1_555
N1D C8D 1_555 1_555
Cd1D N1D 1_555 1_555
Cd1F O1F 1_555 1_555
N1A Cd1 1_555 1_555
O1A Cd1 1_555 1_555
O2A Cd1 1_555 1_555
C1 O1 1_555 1_555
C1 O2 1_555 1_555
C6 C7 1_555 1_555
C12 N1 1_555 1_555
C6F C7F 1_555 1_555
C7F N2F 1_555 1_555
O2F Cd1F 1_555 1_555
C9D C10D 1_555 1_555
C12D N1D 1_555 1_555

#END
