
#######################################################################
#
#                 Cambridge Crystallographic Data Centre
#                                CCDC 
#
#######################################################################
#
# If this CIF has been generated from an entry in the Cambridge 
# Structural Database, then it will include bibliographic, chemical, 
# crystal, experimental, refinement or atomic coordinate data resulting 
# from the CCDC's data processing and validation procedures.
#
#######################################################################

data_TODVUF
_symmetry_cell_setting           orthorhombic
_symmetry_space_group_name_H-M   'P 21 21 21'
_symmetry_Int_Tables_number      19
_space_group_name_Hall           'P 2ac 2ab'
loop_
_symmetry_equiv_pos_site_id
_symmetry_equiv_pos_as_xyz
1 x,y,z
2 1/2-x,-y,1/2+z
3 -x,1/2+y,1/2-z
4 1/2+x,1/2-y,-z
_cell_length_a                   11.624(2)
_cell_length_b                   13.338(3)
_cell_length_c                   16.603(3)
_cell_angle_alpha                90
_cell_angle_beta                 90
_cell_angle_gamma                90
_cell_volume                     2574.14
loop_
_atom_site_label
_atom_site_type_symbol
_atom_site_fract_x
_atom_site_fract_y
_atom_site_fract_z
Cd1 Cd 0.927224(17) 0.009109(17) 0.210761(13)
C1 C 0.7983(3) 0.1624(2) 0.1599(2)
C2 C 0.7244(3) 0.2380(2) 0.11763(19)
C3 C 0.7134(4) 0.2312(3) 0.0347(2)
H1 H 0.7576 0.1847 0.0068
C4 C 0.6381(4) 0.2918(3) -0.0075(2)
H2 H 0.6311 0.2852 -0.0630
C5 C 0.5744(4) 0.3610(3) 0.0323(3)
H3 H 0.5248 0.4028 0.0040
C6 C 0.5831(3) 0.3695(3) 0.1145(2)
H4 H 0.5390 0.4169 0.1415
C7 C 0.6568(3) 0.3084(3) 0.1574(2)
C8 C 0.7330(3) 0.3037(2) 0.36474(19)
C9 C 0.6490(3) 0.2456(3) 0.4008(2)
H5 H 0.5967 0.2107 0.3690
C10 C 0.6423(4) 0.2391(3) 0.4833(3)
H6 H 0.5850 0.2009 0.5075
C11 C 0.7208(4) 0.2894(3) 0.5294(2)
H7 H 0.7167 0.2849 0.5852
C12 C 0.8056(3) 0.3465(3) 0.4946(2)
H8 H 0.8581 0.3802 0.5271
C13 C 0.8137(3) 0.3544(2) 0.41135(19)
C14 C 0.9054(3) 0.4182(2) 0.3742(2)
C15 C 0.8695(3) -0.2234(3) 0.2490(2)
H9 H 0.9493 -0.2276 0.2514
C16 C 0.8076(3) -0.3080(3) 0.2638(2)
H10 H 0.8449 -0.3678 0.2760
C17 C 0.6881(3) -0.3043(3) 0.2605(2)
C18 C 0.6402(3) -0.2140(3) 0.2403(2)
H11 H 0.5607 -0.2087 0.2353
C19 C 0.7074(3) -0.1315(3) 0.2273(2)
H12 H 0.6720 -0.0708 0.2153
C20 C 0.6142(3) -0.3932(2) 0.2821(2)
H13 H 0.6487 -0.4539 0.2608
H14 H 0.5387 -0.3856 0.2580
C21 C 0.6022(3) -0.4022(2) 0.3736(2)
H15 H 0.6771 -0.4167 0.3966
H16 H 0.5768 -0.3383 0.3951
C22 C 0.5190(3) -0.4822(3) 0.39934(18)
H17 H 0.5443 -0.5456 0.3769
H18 H 0.4444 -0.4671 0.3761
C23 C 0.5043(2) -0.4949(3) 0.48882(17)
C24 C 0.5736(3) -0.4513(3) 0.5445(2)
H19 H 0.6344 -0.4111 0.5277
C25 C 0.5549(3) -0.4658(3) 0.6256(2)
H20 H 0.6045 -0.4348 0.6618
C26 C 0.4024(3) -0.5640(3) 0.6001(2)
H21 H 0.3415 -0.6033 0.6181
C27 C 0.4173(4) -0.5532(3) 0.5190(2)
H22 H 0.3677 -0.5858 0.4838
N1 N 0.6534(2) 0.3198(2) 0.24331(18)
N2 N 0.7448(2) 0.30238(19) 0.27715(18)
N3 N 0.8228(2) -0.13498(19) 0.23121(16)
N4 N 0.4706(2) -0.5213(2) 0.65475(16)
O1 O 0.9045(2) 0.16019(18) 0.14566(15)
O2 O 0.75058(19) 0.09952(16) 0.20489(18)
O3 O 0.88600(17) 0.45882(16) 0.30761(13)
O4 O 0.99975(19) 0.42730(19) 0.40957(14)
Cd1B Cd 1.072776(17) 0.509109(17) 0.289239(13)
Cd1C Cd 0.427224(17) -0.509109(17) 0.789239(13)
N4C N 0.9706(2) 0.0213(2) 0.34525(16)
O3B O 1.11400(17) -0.04118(16) 0.19239(13)
O4B O 1.00025(19) -0.07270(19) 0.09043(14)
loop_
_geom_bond_atom_site_label_1
_geom_bond_atom_site_label_2
_geom_bond_site_symmetry_1
_geom_bond_site_symmetry_2
Cd1 N3 1_555 1_555
C1 C2 1_555 1_555
C2 C3 1_555 1_555
C3 H1 1_555 1_555
C4 C3 1_555 1_555
H2 C4 1_555 1_555
C5 C4 1_555 1_555
H3 C5 1_555 1_555
C6 C5 1_555 1_555
H4 C6 1_555 1_555
C7 C2 1_555 1_555
C8 C9 1_555 1_555
C9 H5 1_555 1_555
C10 C9 1_555 1_555
H6 C10 1_555 1_555
C11 C10 1_555 1_555
H7 C11 1_555 1_555
C12 C11 1_555 1_555
H8 C12 1_555 1_555
C13 C8 1_555 1_555
C14 C13 1_555 1_555
C15 H9 1_555 1_555
C16 C15 1_555 1_555
H10 C16 1_555 1_555
C17 C16 1_555 1_555
C18 C17 1_555 1_555
H11 C18 1_555 1_555
C19 C18 1_555 1_555
H12 C19 1_555 1_555
C20 C17 1_555 1_555
H13 C20 1_555 1_555
H14 C20 1_555 1_555
C21 C20 1_555 1_555
H15 C21 1_555 1_555
H16 C21 1_555 1_555
C22 C21 1_555 1_555
H17 C22 1_555 1_555
H18 C22 1_555 1_555
C23 C22 1_555 1_555
C24 C23 1_555 1_555
H19 C24 1_555 1_555
C25 C24 1_555 1_555
H20 C25 1_555 1_555
C26 H21 1_555 1_555
C27 C23 1_555 1_555
H22 C27 1_555 1_555
N1 C7 1_555 1_555
N2 C8 1_555 1_555
N3 C15 1_555 1_555
N4 C25 1_555 1_555
O1 Cd1 1_555 1_555
O2 Cd1 1_555 1_555
O3 C14 1_555 1_555
O4 C14 1_555 1_555
Cd1B O3 1_555 1_555
Cd1C N4 1_555 1_555
N4C Cd1 1_555 1_555
O3B Cd1 1_555 1_555
O4B Cd1 1_555 1_555
C1 O1 1_555 1_555
C1 O2 1_555 1_555
C6 C7 1_555 1_555
C12 C13 1_555 1_555
C19 N3 1_555 1_555
C26 C27 1_555 1_555
C26 N4 1_555 1_555
N1 N2 1_555 1_555
O4 Cd1B 1_555 1_555

#END
