
#######################################################################
#
#                 Cambridge Crystallographic Data Centre
#                                CCDC 
#
#######################################################################
#
# If this CIF has been generated from an entry in the Cambridge 
# Structural Database, then it will include bibliographic, chemical, 
# crystal, experimental, refinement or atomic coordinate data resulting 
# from the CCDC's data processing and validation procedures.
#
#######################################################################

data_TODYIW
_symmetry_cell_setting           monoclinic
_symmetry_space_group_name_H-M   'P 21/n'
_symmetry_Int_Tables_number      14
_space_group_name_Hall           '-P 2yn'
loop_
_symmetry_equiv_pos_site_id
_symmetry_equiv_pos_as_xyz
1 x,y,z
2 1/2-x,1/2+y,1/2-z
3 -x,-y,-z
4 1/2+x,1/2-y,1/2+z
_cell_length_a                   16.408(5)
_cell_length_b                   23.207(7)
_cell_length_c                   16.670(5)
_cell_angle_alpha                90
_cell_angle_beta                 98.473(5)
_cell_angle_gamma                90
_cell_volume                     6278.33
loop_
_atom_site_label
_atom_site_type_symbol
_atom_site_fract_x
_atom_site_fract_y
_atom_site_fract_z
Cu1 Cu 0.66298(8) 0.35549(5) 0.59366(8)
Cu2 Cu 0.85411(8) 0.36991(5) 0.77948(8)
Cu3 Cu 0.70791(8) 0.36742(5) 0.94922(8)
Cu4 Cu 0.51586(8) 0.36550(5) 0.76184(8)
I1 I 0.51839(5) 0.33789(4) 0.46149(6)
I2 I 0.85776(6) 0.36210(4) 1.07819(6)
O1 O 0.6009(4) 0.3286(3) 0.6803(4)
O2 O 0.4776(5) 0.2579(3) 0.8428(5)
H1 H 0.4601 0.2262 0.8269
O3 O 0.7614(4) 0.3937(3) 0.6949(4)
O4 O 0.5734(5) 0.4647(3) 0.5484(5)
H2 H 0.5411 0.4395 0.5297
O5 O 0.7713(4) 0.3366(3) 0.8652(4)
O6 O 0.8986(4) 0.2565(3) 0.7145(5)
H3 H 0.8729 0.2541 0.6686
O7 O 0.6075(4) 0.3973(3) 0.8424(4)
O8 O 0.7849(5) 0.4823(3) 0.9847(6)
H4 H 0.8034 0.4622 1.0236
N1 N 0.7430(5) 0.3538(4) 0.5127(5)
N2 N 0.6929(5) 0.2749(4) 0.6012(5)
N3 N 0.6574(5) 0.2402(4) 0.6524(6)
N4 N 0.5230(5) 0.2810(4) 0.7880(5)
N5 N 0.9556(5) 0.3746(4) 0.8616(5)
N6 N 0.8631(5) 0.4520(3) 0.7886(6)
N7 N 0.8037(5) 0.4856(3) 0.7410(5)
N8 N 0.6391(5) 0.4399(4) 0.5980(5)
N9 N 0.6291(6) 0.3687(4) 1.0313(5)
N10 N 0.6801(5) 0.2860(4) 0.9502(5)
N11 N 0.7161(5) 0.2500(4) 0.9002(5)
N12 N 0.8501(5) 0.2829(3) 0.7645(5)
N13 N 0.4186(5) 0.3620(4) 0.6751(6)
N14 N 0.5029(5) 0.4462(3) 0.7381(5)
N15 N 0.5580(5) 0.4842(3) 0.7833(5)
N16 N 0.7224(5) 0.4526(4) 0.9361(6)
C1 C 0.7636(7) 0.3947(5) 0.4646(8)
H5 H 0.7476 0.4322 0.4745
C2 C 0.8069(9) 0.3862(6) 0.4010(9)
H6 H 0.8158 0.4163 0.3665
C3 C 0.8362(8) 0.3326(6) 0.3902(9)
H7 H 0.8670 0.3257 0.3486
C4 C 0.8200(7) 0.2879(6) 0.4417(8)
H8 H 0.8421 0.2514 0.4364
C5 C 0.7708(7) 0.2984(4) 0.5007(6)
C6 C 0.7438(6) 0.2559(5) 0.5561(8)
C7 C 0.7723(7) 0.1935(4) 0.5541(8)
H9 H 0.8292 0.1910 0.5775
H10 H 0.7657 0.1803 0.4990
H11 H 0.7398 0.1700 0.5847
C8 C 0.6113(6) 0.2737(5) 0.6917(7)
C9 C 0.5631(6) 0.2456(5) 0.7486(7)
C10 C 0.5617(7) 0.1815(5) 0.7581(8)
H12 H 0.5711 0.1719 0.8147
H13 H 0.6041 0.1646 0.7317
H14 H 0.5090 0.1669 0.7340
C11 C 0.9983(7) 0.3334(5) 0.9044(8)
H15 H 0.9797 0.2956 0.8978
C12 C 1.0683(9) 0.3441(6) 0.9578(9)
H16 H 1.0976 0.3141 0.9855
C13 C 1.0930(9) 0.3974(7) 0.9689(10)
H17 H 1.1402 0.4048 1.0057
C14 C 1.0521(7) 0.4428(5) 0.9285(8)
H18 H 1.0722 0.4802 0.9351
C15 C 0.9794(7) 0.4307(5) 0.8771(7)
C16 C 0.9268(7) 0.4742(5) 0.8301(7)
C17 C 0.9460(8) 0.5373(5) 0.8342(9)
H19 H 0.9930 0.5448 0.8076
H20 H 0.9578 0.5490 0.8899
H21 H 0.8994 0.5585 0.8077
C18 C 0.7542(6) 0.4504(5) 0.6963(6)
C19 C 0.6851(6) 0.4762(4) 0.6417(7)
C20 C 0.6707(7) 0.5402(4) 0.6425(7)
H22 H 0.6644 0.5547 0.5880
H23 H 0.7169 0.5587 0.6744
H24 H 0.6217 0.5480 0.6657
C21 C 0.6024(8) 0.4135(6) 1.0746(8)
H25 H 0.6211 0.4504 1.0658
C22 C 0.5490(10) 0.4062(8) 1.1310(9)
H26 H 0.5299 0.4379 1.1566
C23 C 0.5244(10) 0.3512(8) 1.1487(10)
H27 H 0.4923 0.3446 1.1893
C24 C 0.5495(7) 0.3074(6) 1.1041(8)
H28 H 0.5314 0.2702 1.1128
C25 C 0.6006(6) 0.3157(6) 1.0465(7)
C26 C 0.6300(7) 0.2689(5) 0.9986(7)
C27 C 0.6025(7) 0.2078(5) 1.0038(8)
H29 H 0.6306 0.1840 0.9695
H30 H 0.5441 0.2054 0.9865
H31 H 0.6150 0.1946 1.0589
C28 C 0.7617(6) 0.2814(5) 0.8605(7)
C29 C 0.8104(6) 0.2499(4) 0.8057(7)
C30 C 0.8122(7) 0.1867(4) 0.7996(7)
H32 H 0.8026 0.1755 0.7435
H33 H 0.7701 0.1705 0.8271
H34 H 0.8651 0.1727 0.8242
C31 C 0.3810(7) 0.3154(5) 0.6389(8)
H35 H 0.3979 0.2790 0.6581
C32 C 0.3174(7) 0.3196(6) 0.5737(7)
H36 H 0.2920 0.2867 0.5497
C33 C 0.2937(8) 0.3731(6) 0.5463(8)
H37 H 0.2516 0.3772 0.5028
C34 C 0.3314(8) 0.4209(6) 0.5824(8)
H38 H 0.3143 0.4575 0.5645
C35 C 0.3949(6) 0.4143(5) 0.6455(7)
C36 C 0.4413(6) 0.4641(4) 0.6879(6)
C37 C 0.4218(7) 0.5242(4) 0.6661(7)
H39 H 0.4650 0.5487 0.6920
H40 H 0.3706 0.5346 0.6835
H41 H 0.4172 0.5286 0.6083
C38 C 0.6087(6) 0.4528(4) 0.8337(6)
C39 C 0.6756(6) 0.4844(4) 0.8873(7)
C40 C 0.6847(7) 0.5484(5) 0.8824(8)
H42 H 0.6735 0.5656 0.9321
H43 H 0.6465 0.5630 0.8379
H44 H 0.7399 0.5577 0.8743
Cu5 Cu 1.26160(11) 0.38335(8) 0.80933(11)
Cu6 Cu 1.11434(11) 0.38298(8) 0.71881(12)
I3 I 1.39977(5) 0.38462(4) 0.90106(5)
I4 I 0.97111(5) 0.37794(4) 0.63715(6)
I5 I 1.18739(7) 0.28875(5) 0.76692(8)
I6 I 1.19067(7) 0.47820(5) 0.75773(8)
Cu4_2 Cu 1.51586(8) 0.36550(5) 0.76184(8)
I3_2 I 0.39977(5) 0.38462(4) 0.90106(5)
C41 C 0.9081(8) 0.5423(5) 0.5600(9)
C42 C 0.9913(10) 0.5461(7) 0.5949(11)
H45 H 1.0111 0.5086 0.6126
H46 H 0.9964 0.5719 0.6404
H47 H 1.0232 0.5605 0.5554
N17 N 0.8438(10) 0.5284(6) 0.5427(10)
loop_
_geom_bond_atom_site_label_1
_geom_bond_atom_site_label_2
_geom_bond_site_symmetry_1
_geom_bond_site_symmetry_2
Cu1 I1 1_555 1_555
Cu2 O3 1_555 1_555
Cu3 I2 1_555 1_555
Cu4 O1 1_555 1_555
O1 Cu1 1_555 1_555
O2 H1 1_555 1_555
O3 Cu1 1_555 1_555
O4 H2 1_555 1_555
O5 Cu2 1_555 1_555
O6 H3 1_555 1_555
O7 Cu3 1_555 1_555
O8 H4 1_555 1_555
N1 Cu1 1_555 1_555
N2 Cu1 1_555 1_555
N3 N2 1_555 1_555
N4 Cu4 1_555 1_555
N5 Cu2 1_555 1_555
N6 Cu2 1_555 1_555
N7 N6 1_555 1_555
N8 Cu1 1_555 1_555
N9 Cu3 1_555 1_555
N10 Cu3 1_555 1_555
N11 N10 1_555 1_555
N12 Cu2 1_555 1_555
N13 Cu4 1_555 1_555
N14 Cu4 1_555 1_555
N15 N14 1_555 1_555
N16 Cu3 1_555 1_555
C1 N1 1_555 1_555
H5 C1 1_555 1_555
C2 C1 1_555 1_555
H6 C2 1_555 1_555
C3 C2 1_555 1_555
H7 C3 1_555 1_555
C4 C3 1_555 1_555
H8 C4 1_555 1_555
C5 N1 1_555 1_555
C6 N2 1_555 1_555
C7 C6 1_555 1_555
H9 C7 1_555 1_555
H10 C7 1_555 1_555
H11 C7 1_555 1_555
C8 O1 1_555 1_555
C9 N4 1_555 1_555
C10 C9 1_555 1_555
H12 C10 1_555 1_555
H13 C10 1_555 1_555
H14 C10 1_555 1_555
C11 N5 1_555 1_555
H15 C11 1_555 1_555
C12 C11 1_555 1_555
H16 C12 1_555 1_555
C13 C12 1_555 1_555
H17 C13 1_555 1_555
C14 C13 1_555 1_555
H18 C14 1_555 1_555
C15 N5 1_555 1_555
C16 N6 1_555 1_555
C17 C16 1_555 1_555
H19 C17 1_555 1_555
H20 C17 1_555 1_555
H21 C17 1_555 1_555
C18 O3 1_555 1_555
C19 N8 1_555 1_555
C20 C19 1_555 1_555
H22 C20 1_555 1_555
H23 C20 1_555 1_555
H24 C20 1_555 1_555
C21 N9 1_555 1_555
H25 C21 1_555 1_555
C22 C21 1_555 1_555
H26 C22 1_555 1_555
C23 C22 1_555 1_555
H27 C23 1_555 1_555
C24 C23 1_555 1_555
H28 C24 1_555 1_555
C25 N9 1_555 1_555
C26 N10 1_555 1_555
C27 C26 1_555 1_555
H29 C27 1_555 1_555
H30 C27 1_555 1_555
H31 C27 1_555 1_555
C28 O5 1_555 1_555
C29 N12 1_555 1_555
C30 C29 1_555 1_555
H32 C30 1_555 1_555
H33 C30 1_555 1_555
H34 C30 1_555 1_555
C31 N13 1_555 1_555
H35 C31 1_555 1_555
C32 C31 1_555 1_555
H36 C32 1_555 1_555
C33 C32 1_555 1_555
H37 C33 1_555 1_555
C34 C33 1_555 1_555
H38 C34 1_555 1_555
C35 N13 1_555 1_555
C36 N14 1_555 1_555
C37 C36 1_555 1_555
H39 C37 1_555 1_555
H40 C37 1_555 1_555
H41 C37 1_555 1_555
C38 O7 1_555 1_555
C39 N16 1_555 1_555
C40 C39 1_555 1_555
H42 C40 1_555 1_555
H43 C40 1_555 1_555
H44 C40 1_555 1_555
Cu5 Cu6 1_555 1_555
Cu6 I4 1_555 1_555
I3 Cu5 1_555 1_555
I4 Cu2 1_555 1_555
I5 Cu5 1_555 1_555
I6 Cu5 1_555 1_555
C41 C42 1_555 1_555
C42 H45 1_555 1_555
H46 C42 1_555 1_555
H47 C42 1_555 1_555
N17 C41 1_555 1_555
Cu4_2 I3 1_555 1_555
I3_2 Cu4 1_555 1_555
Cu3 O5 1_555 1_555
Cu4 O7 1_555 1_555
O2 N4 1_555 1_555
O4 N8 1_555 1_555
O6 N12 1_555 1_555
O8 N16 1_555 1_555
N3 C8 1_555 1_555
N7 C18 1_555 1_555
N11 C28 1_555 1_555
N15 C38 1_555 1_555
C4 C5 1_555 1_555
C5 C6 1_555 1_555
C8 C9 1_555 1_555
C14 C15 1_555 1_555
C15 C16 1_555 1_555
C18 C19 1_555 1_555
C24 C25 1_555 1_555
C25 C26 1_555 1_555
C28 C29 1_555 1_555
C34 C35 1_555 1_555
C35 C36 1_555 1_555
C38 C39 1_555 1_555
Cu6 I5 1_555 1_555
Cu6 I6 1_555 1_555

#END
