
#######################################################################
#
#                 Cambridge Crystallographic Data Centre
#                                CCDC 
#
#######################################################################
#
# If this CIF has been generated from an entry in the Cambridge 
# Structural Database, then it will include bibliographic, chemical, 
# crystal, experimental, refinement or atomic coordinate data resulting 
# from the CCDC's data processing and validation procedures.
#
#######################################################################

data_TOFKOQ
_symmetry_cell_setting           monoclinic
_symmetry_space_group_name_H-M   'C 2/c'
_symmetry_Int_Tables_number      15
_space_group_name_Hall           '-C 2yn'
loop_
_symmetry_equiv_pos_site_id
_symmetry_equiv_pos_as_xyz
1 x,y,z
2 -x,y,1/2-z
3 1/2+x,1/2+y,z
4 1/2-x,1/2+y,1/2-z
5 -x,-y,-z
6 x,-y,1/2+z
7 1/2-x,1/2-y,-z
8 1/2+x,1/2-y,1/2+z
_cell_length_a                   16.432(3)
_cell_length_b                   14.317(3)
_cell_length_c                   24.711(5)
_cell_angle_alpha                90
_cell_angle_beta                 99.87(3)
_cell_angle_gamma                90
_cell_volume                     5727.39
loop_
_atom_site_label
_atom_site_type_symbol
_atom_site_fract_x
_atom_site_fract_y
_atom_site_fract_z
Cd1 Cd -0.14695(3) 0.73300(4) -0.02553(3)
O1 O -0.0350(3) 0.8189(4) -0.0119(3)
O2 O -0.0041(4) 0.7198(4) -0.0735(2)
O3 O 0.3120(3) 1.0915(4) -0.0708(2)
O4 O 0.2214(3) 1.1628(3) -0.0307(2)
N1 N -0.0874(4) 0.6445(5) 0.0515(3)
N2 N 0.2918(4) 0.6748(4) 0.4002(3)
N3 N 0.1204(7) 0.0606(7) 0.2495(5)
N4 N 0.1065(5) 0.5540(6) 0.2280(3)
C1 C -0.0614(6) 0.6852(6) 0.0989(5)
H1 H -0.0753 0.7477 0.1023
C2 C -0.0153(6) 0.6430(6) 0.1440(4)
H2 H -0.0006 0.6758 0.1767
C3 C 0.0088(5) 0.5515(6) 0.1401(3)
C4 C -0.0185(6) 0.5074(6) 0.0898(4)
H3 H -0.0044 0.4454 0.0849
C5 C -0.0655(6) 0.5550(6) 0.0479(4)
H4 H -0.0832 0.5236 0.0150
C6 C 0.0602(5) 0.5022(6) 0.1873(3)
C7 C 0.0607(5) 0.4048(6) 0.1904(4)
H5 H 0.0290 0.3696 0.1629
C8 C 0.1096(5) 0.3605(7) 0.2351(3)
C9 C 0.1557(5) 0.4158(6) 0.2745(3)
H6 H 0.1894 0.3873 0.3039
C10 C 0.1536(5) 0.5091(6) 0.2718(4)
C11 C 0.2018(5) 0.5668(6) 0.3163(3)
C12 C 0.2082(6) 0.6621(7) 0.3113(4)
H7 H 0.1828 0.6921 0.2795
C13 C 0.2526(6) 0.7128(6) 0.3540(4)
H8 H 0.2551 0.7773 0.3502
C14 C 0.2867(6) 0.5841(6) 0.4037(4)
H9 H 0.3143 0.5554 0.4353
C15 C 0.2434(6) 0.5284(6) 0.3637(4)
H10 H 0.2424 0.4641 0.3689
C16 C 0.1123(6) 0.2586(7) 0.2402(3)
C17 C 0.1591(8) 0.2144(10) 0.2846(4)
H11 H 0.1900 0.2495 0.3125
C18 C 0.1600(10) 0.1182(12) 0.2876(5)
H12 H 0.1907 0.0913 0.3188
C19 C 0.0747(7) 0.1031(8) 0.2079(5)
H13 H 0.0437 0.0659 0.1811
C20 C 0.0692(6) 0.1995(7) 0.2008(4)
H14 H 0.0366 0.2244 0.1697
C21 C 0.0077(5) 0.7929(5) -0.0471(3)
C22 C 0.0729(5) 0.8632(5) -0.0565(3)
C23 C 0.0496(5) 0.9545(5) -0.0562(3)
H15 H -0.0052 0.9688 -0.0547
C24 C 0.1061(5) 1.0275(5) -0.0580(3)
H16 H 0.0887 1.0892 -0.0573
C25 C 0.1876(5) 1.0080(5) -0.0610(3)
C26 C 0.2136(5) 0.9147(5) -0.0651(3)
C27 C 0.1557(5) 0.8400(5) -0.0632(3)
C28 C 0.1826(5) 0.7458(5) -0.0653(3)
H17 H 0.1456 0.6973 -0.0634
C29 C 0.2617(6) 0.7264(6) -0.0701(3)
H18 H 0.2786 0.6646 -0.0716
C30 C 0.3184(5) 0.7987(6) -0.0727(4)
H19 H 0.3725 0.7841 -0.0761
C31 C 0.2959(5) 0.8890(6) -0.0703(3)
H20 H 0.3348 0.9355 -0.0721
C32 C 0.2448(5) 1.0918(5) -0.0535(3)
Cd1B Cd 0.35305(3) 1.23300(4) -0.02553(3)
Cd1D Cd 0.14695(3) 1.26700(4) 0.02553(3)
Cd1G Cd 0.35305(3) 0.76700(4) 0.47447(3)
O3B O -0.1880(3) 0.5915(4) -0.0708(2)
O4B O -0.2786(3) 0.6628(3) -0.0307(2)
O4D O -0.2214(3) 0.8372(3) 0.0307(2)
N2G N -0.2082(4) 0.8252(4) -0.0998(3)
O5 O 0.0000 0.817(4) 0.2500
H21 H 0.0278 0.8487 0.2731
H21A H -0.0278 0.8487 0.2269
O6 O 0.1317(17) 0.874(2) 0.2456(11)
H22 H 0.1373 0.8519 0.2145
H23 H 0.1711 0.8895 0.2710
loop_
_geom_bond_atom_site_label_1
_geom_bond_atom_site_label_2
_geom_bond_site_symmetry_1
_geom_bond_site_symmetry_2
Cd1 O1 1_555 1_555
O1 C21 1_555 1_555
O2 Cd1 1_555 1_555
O3 C32 1_555 1_555
O4 C32 1_555 1_555
N1 Cd1 1_555 1_555
N2 C13 1_555 1_555
N3 C18 1_555 1_555
N4 C6 1_555 1_555
C1 N1 1_555 1_555
H1 C1 1_555 1_555
C2 C1 1_555 1_555
H2 C2 1_555 1_555
C3 C2 1_555 1_555
C4 C3 1_555 1_555
H3 C4 1_555 1_555
C5 N1 1_555 1_555
H4 C5 1_555 1_555
C6 C3 1_555 1_555
C7 C6 1_555 1_555
H5 C7 1_555 1_555
C8 C7 1_555 1_555
C9 C8 1_555 1_555
H6 C9 1_555 1_555
C10 N4 1_555 1_555
C11 C10 1_555 1_555
C12 C11 1_555 1_555
H7 C12 1_555 1_555
C13 C12 1_555 1_555
H8 C13 1_555 1_555
C14 N2 1_555 1_555
H9 C14 1_555 1_555
C15 C11 1_555 1_555
H10 C15 1_555 1_555
C16 C8 1_555 1_555
C17 C16 1_555 1_555
H11 C17 1_555 1_555
C18 C17 1_555 1_555
H12 C18 1_555 1_555
C19 N3 1_555 1_555
H13 C19 1_555 1_555
C20 C16 1_555 1_555
H14 C20 1_555 1_555
C21 O2 1_555 1_555
C22 C21 1_555 1_555
C23 C22 1_555 1_555
H15 C23 1_555 1_555
C24 C23 1_555 1_555
H16 C24 1_555 1_555
C25 C24 1_555 1_555
C26 C25 1_555 1_555
C27 C22 1_555 1_555
C28 C27 1_555 1_555
H17 C28 1_555 1_555
C29 C28 1_555 1_555
H18 C29 1_555 1_555
C30 C29 1_555 1_555
H19 C30 1_555 1_555
C31 C26 1_555 1_555
H20 C31 1_555 1_555
C32 C25 1_555 1_555
O5 H21 1_555 1_555
O6 H22 1_555 1_555
H23 O6 1_555 1_555
Cd1B O3 1_555 1_555
Cd1D O4 1_555 1_555
Cd1G N2 1_555 1_555
O3B Cd1 1_555 1_555
O4B Cd1 1_555 1_555
O4D Cd1 1_555 1_555
N2G Cd1 1_555 1_555
H21A O5 1_555 1_555
O4 Cd1B 1_555 1_555
C4 C5 1_555 1_555
C9 C10 1_555 1_555
C14 C15 1_555 1_555
C19 C20 1_555 1_555
C26 C27 1_555 1_555
C30 C31 1_555 1_555

#END
