
#######################################################################
#
#                 Cambridge Crystallographic Data Centre
#                                CCDC 
#
#######################################################################
#
# If this CIF has been generated from an entry in the Cambridge 
# Structural Database, then it will include bibliographic, chemical, 
# crystal, experimental, refinement or atomic coordinate data resulting 
# from the CCDC's data processing and validation procedures.
#
#######################################################################

data_TOFLAD
_symmetry_cell_setting           monoclinic
_symmetry_space_group_name_H-M   'P 21/c'
_symmetry_Int_Tables_number      14
_space_group_name_Hall           '-P 2ybc'
loop_
_symmetry_equiv_pos_site_id
_symmetry_equiv_pos_as_xyz
1 x,y,z
2 -x,1/2+y,1/2-z
3 -x,-y,-z
4 x,1/2-y,1/2+z
_cell_length_a                   18.666(4)
_cell_length_b                   13.998(3)
_cell_length_c                   27.179(8)
_cell_angle_alpha                90
_cell_angle_beta                 131.032(19)
_cell_angle_gamma                90
_cell_volume                     5356.97
loop_
_atom_site_label
_atom_site_type_symbol
_atom_site_fract_x
_atom_site_fract_y
_atom_site_fract_z
C1 C 0.4015(6) 0.9454(6) 0.9275(4)
H1 H 0.3990 0.9798 0.9556
C2 C 0.3975(7) 0.9943(6) 0.8831(4)
H2 H 0.3898 1.0602 0.8803
C3 C 0.4043(7) 0.9492(7) 0.8429(5)
C4 C 0.4169(9) 0.8543(8) 0.8509(6)
H3 H 0.4253 0.8198 0.8258
C5 C 0.4177(10) 0.8066(7) 0.8962(6)
H4 H 0.4248 0.7406 0.8998
C6 C 0.3956(6) 1.0010(7) 0.7902(5)
C7 C 0.3981(6) 1.0973(7) 0.7880(4)
H5 H 0.4077 1.1332 0.8206
C8 C 0.3865(6) 1.1445(8) 0.7374(4)
C9 C 0.3788(6) 1.0891(7) 0.6929(4)
H6 H 0.3723 1.1181 0.6593
C10 C 0.3727(6) 0.9314(7) 0.6491(4)
C11 C 0.3691(8) 0.9722(7) 0.6006(5)
H7 H 0.3658 1.0383 0.5958
C12 C 0.3703(7) 0.9153(6) 0.5595(4)
H8 H 0.3663 0.9447 0.5270
C13 C 0.3751(6) 0.8335(7) 0.6510(4)
H9 H 0.3738 0.8015 0.6804
C14 C 0.3796(6) 0.7817(6) 0.6096(4)
H10 H 0.3848 0.7156 0.6139
C15 C 0.3848(7) 1.2497(8) 0.7317(5)
C16 C 0.3806(8) 1.3103(8) 0.7713(5)
H11 H 0.3799 1.2844 0.8025
C17 C 0.3778(9) 1.4079(9) 0.7637(7)
H12 H 0.3767 1.4462 0.7912
C18 C 0.3818(10) 1.3958(12) 0.6843(7)
H13 H 0.3838 1.4247 0.6543
C19 C 0.3851(8) 1.2971(11) 0.6871(5)
H14 H 0.3875 1.2625 0.6590
C20 C 0.2273(8) 0.9721(7) 0.9998(6)
H15 H 0.2673 1.0122 1.0376
H16 H 0.1871 0.9345 1.0027
H17 H 0.1887 1.0110 0.9613
C21 C 0.2875(7) 0.9073(6) 0.9963(4)
C22 C 0.5782(5) 0.6867(6) 1.0776(4)
C23 C 0.6721(5) 0.6317(5) 1.1210(3)
C24 C 0.7543(5) 0.6758(5) 1.1737(3)
H18 H 0.7525 0.7400 1.1816
C25 C 0.8391(5) 0.6269(5) 1.2149(4)
C26 C 0.8421(5) 0.5333(5) 1.2007(3)
H19 H 0.8991 0.4998 1.2281
C27 C 0.7625(5) 0.4881(5) 1.1468(3)
C28 C 0.6766(5) 0.5382(5) 1.1066(3)
H20 H 0.6222 0.5086 1.0700
C29 C 0.9308(5) 0.6742(6) 1.2712(4)
C30 C 0.7694(6) 0.3878(5) 1.1307(4)
C31 C 0.1224(7) 0.7171(7) 0.9791(5)
H21 H 0.1257 0.7830 0.9844
C32 C 0.1262(6) 0.6622(7) 1.0220(4)
H22 H 0.1324 0.6911 1.0555
C33 C 0.1207(5) 0.5645(6) 1.0163(4)
C34 C 0.1095(6) 0.5280(6) 0.9637(4)
H23 H 0.1033 0.4625 0.9564
C35 C 0.1074(6) 0.5885(7) 0.9219(4)
H24 H 0.1010 0.5618 0.8878
C36 C 0.1238(5) 0.5069(7) 1.0625(4)
C37 C 0.1301(5) 0.5455(6) 1.1098(3)
H25 H 0.1329 0.6116 1.1144
C38 C 0.1325(6) 0.4896(7) 1.1512(4)
C39 C 0.1309(5) 0.3931(6) 1.1479(4)
H26 H 0.1337 0.3565 1.1777
C40 C 0.1251(6) 0.3500(7) 1.1001(4)
C41 C 0.1370(6) 0.5390(6) 1.2018(4)
C42 C 0.1625(8) 0.6347(7) 1.2183(6)
H27 H 0.1791 0.6699 1.1981
C43 C 0.1633(9) 0.6778(8) 1.2645(6)
H28 H 0.1847 0.7406 1.2758
C44 C 0.1144(7) 0.5455(6) 1.2792(5)
H29 H 0.0974 0.5127 1.3000
C45 C 0.1150(7) 0.4950(6) 1.2358(4)
H30 H 0.1004 0.4302 1.2294
C46 C 0.1197(5) 0.2426(4) 1.0931(4)
C47 C 0.1386(6) 0.1856(5) 1.1423(3)
H31 H 0.1534 0.2136 1.1790
C48 C 0.1352(6) 0.0867(5) 1.1366(4)
H32 H 0.1479 0.0485 1.1695
N1 N 0.1130(6) 0.0448(4) 1.0816(5)
C49 C 0.0941(6) 0.1018(7) 1.0324(4)
H33 H 0.0793 0.0738 0.9956
C50 C 0.0975(6) 0.2008(7) 1.0381(3)
H34 H 0.0848 0.2389 1.0052
C51 C 0.3805(6) 0.9947(8) 0.6966(4)
Cd1 Cd 0.39886(4) 0.76300(4) 1.00104(3)
Cd2 Cd 0.11916(4) 0.77715(4) 0.86077(3)
N2 N 0.4087(5) 0.8516(6) 0.9336(3)
N3 N 0.3768(5) 0.8221(5) 0.5642(3)
N4 N 0.1143(4) 0.6822(5) 0.9290(3)
N5 N 0.1362(5) 0.6370(5) 1.2935(3)
N6 N 0.3764(9) 1.4506(9) 0.7193(7)
N7 N 0.3864(5) 0.9472(6) 0.7437(4)
N8 N 0.1217(5) 0.4077(7) 1.0565(4)
O1 O 0.5093(4) 0.6450(4) 1.0270(3)
O2 O 0.5729(4) 0.7682(4) 1.0935(3)
O3 O 0.8506(4) 0.3518(4) 1.1687(3)
O4 O 0.6980(4) 0.3485(4) 1.0819(3)
O5 O 0.9402(4) 0.7617(4) 1.2721(3)
O6 O 0.9970(4) 0.6206(4) 1.3163(3)
O7 O 0.2488(4) 0.8484(4) 0.9505(3)
O8 O 0.3752(5) 0.9093(4) 1.0394(3)
Cd1B Cd 0.60114(4) 0.23700(4) 0.99896(3)
Cd1C Cd 0.39886(4) 0.73700(4) 0.50104(3)
Cd2B Cd 0.88084(4) 0.22285(4) 1.13923(3)
Cd2C Cd 0.11916(4) 0.72285(4) 1.36077(3)
Cd2C_2 Cd 1.11916(4) 0.72285(4) 1.36077(3)
N3C N 0.3768(5) 0.6779(5) 1.0642(3)
N5C N 0.1362(5) 0.8630(5) 0.7935(3)
O3B O 0.1494(4) 0.6482(4) 0.8313(3)
O4B O 0.3020(4) 0.6515(4) 0.9181(3)
O5C O -0.0598(4) 0.7383(4) 0.7721(3)
O6C O -0.0030(4) 0.8794(4) 0.8163(3)
loop_
_geom_bond_atom_site_label_1
_geom_bond_atom_site_label_2
_geom_bond_site_symmetry_1
_geom_bond_site_symmetry_2
C1 H1 1_555 1_555
C2 C1 1_555 1_555
H2 C2 1_555 1_555
C3 C2 1_555 1_555
C4 C3 1_555 1_555
H3 C4 1_555 1_555
C5 C4 1_555 1_555
H4 C5 1_555 1_555
C6 C3 1_555 1_555
C7 C6 1_555 1_555
H5 C7 1_555 1_555
C8 C7 1_555 1_555
C9 C8 1_555 1_555
H6 C9 1_555 1_555
C10 C11 1_555 1_555
C11 H7 1_555 1_555
C12 C11 1_555 1_555
H8 C12 1_555 1_555
C13 C10 1_555 1_555
H9 C13 1_555 1_555
C14 C13 1_555 1_555
H10 C14 1_555 1_555
C15 C8 1_555 1_555
C16 C15 1_555 1_555
H11 C16 1_555 1_555
C17 C16 1_555 1_555
H12 C17 1_555 1_555
C18 H13 1_555 1_555
C19 C15 1_555 1_555
H14 C19 1_555 1_555
C20 H15 1_555 1_555
H16 C20 1_555 1_555
H17 C20 1_555 1_555
C21 C20 1_555 1_555
C22 C23 1_555 1_555
C23 C24 1_555 1_555
C24 H18 1_555 1_555
C25 C24 1_555 1_555
C26 C25 1_555 1_555
H19 C26 1_555 1_555
C27 C26 1_555 1_555
C28 C23 1_555 1_555
H20 C28 1_555 1_555
C29 C25 1_555 1_555
C30 C27 1_555 1_555
C31 H21 1_555 1_555
C32 C31 1_555 1_555
H22 C32 1_555 1_555
C33 C32 1_555 1_555
C34 C33 1_555 1_555
H23 C34 1_555 1_555
C35 C34 1_555 1_555
H24 C35 1_555 1_555
C36 C33 1_555 1_555
C37 C36 1_555 1_555
H25 C37 1_555 1_555
C38 C37 1_555 1_555
C39 C38 1_555 1_555
H26 C39 1_555 1_555
C40 C39 1_555 1_555
C41 C38 1_555 1_555
C42 C41 1_555 1_555
H27 C42 1_555 1_555
C43 C42 1_555 1_555
H28 C43 1_555 1_555
C44 H29 1_555 1_555
C45 C41 1_555 1_555
H30 C45 1_555 1_555
C46 C40 1_555 1_555
C47 C46 1_555 1_555
H31 C47 1_555 1_555
C48 C47 1_555 1_555
H32 C48 1_555 1_555
N1 C48 1_555 1_555
C49 N1 1_555 1_555
H33 C49 1_555 1_555
C50 C46 1_555 1_555
H34 C50 1_555 1_555
C51 C9 1_555 1_555
Cd1 N2 1_555 1_555
Cd2 N4 1_555 1_555
N2 C1 1_555 1_555
N3 C12 1_555 1_555
N4 C31 1_555 1_555
N5 C43 1_555 1_555
N6 C17 1_555 1_555
N7 C6 1_555 1_555
N8 C36 1_555 1_555
O1 C22 1_555 1_555
O2 C22 1_555 1_555
O3 C30 1_555 1_555
O4 C30 1_555 1_555
O5 C29 1_555 1_555
O6 C29 1_555 1_555
O7 C21 1_555 1_555
O8 C21 1_555 1_555
Cd1B O4 1_555 1_555
Cd1C N3 1_555 1_555
Cd2B O3 1_555 1_555
Cd2C N5 1_555 1_555
Cd2C_2 O5 1_555 1_555
N3C Cd1 1_555 1_555
N5C Cd2 1_555 1_555
O3B Cd2 1_555 1_555
O4B Cd1 1_555 1_555
O5C Cd2 1_555 1_555
O6C Cd2 1_555 1_555
C5 N2 1_555 1_555
C10 C51 1_555 1_555
C14 N3 1_555 1_555
C18 C19 1_555 1_555
C18 N6 1_555 1_555
C27 C28 1_555 1_555
C35 N4 1_555 1_555
C40 N8 1_555 1_555
C44 C45 1_555 1_555
C44 N5 1_555 1_555
C49 C50 1_555 1_555
C51 N7 1_555 1_555
Cd1 O1 1_555 1_555
Cd1 O2 1_555 1_555
Cd1 O7 1_555 1_555
Cd1 O8 1_555 1_555
Cd2 O7 1_555 1_555
O6 Cd2C_2 1_555 1_555

#END
