
#######################################################################
#
#                 Cambridge Crystallographic Data Centre
#                                CCDC 
#
#######################################################################
#
# If this CIF has been generated from an entry in the Cambridge 
# Structural Database, then it will include bibliographic, chemical, 
# crystal, experimental, refinement or atomic coordinate data resulting 
# from the CCDC's data processing and validation procedures.
#
#######################################################################

data_TOFLOR
_symmetry_cell_setting           triclinic
_symmetry_space_group_name_H-M   'P -1'
_symmetry_Int_Tables_number      2
_space_group_name_Hall           '-P 1'
loop_
_symmetry_equiv_pos_site_id
_symmetry_equiv_pos_as_xyz
1 x,y,z
2 -x,-y,-z
_cell_length_a                   7.318(2)
_cell_length_b                   9.429(3)
_cell_length_c                   12.717(3)
_cell_angle_alpha                68.584(2)
_cell_angle_beta                 85.087(3)
_cell_angle_gamma                76.652(3)
_cell_volume                     794.835
loop_
_atom_site_label
_atom_site_type_symbol
_atom_site_fract_x
_atom_site_fract_y
_atom_site_fract_z
Zn1 Zn 0.11413(3) 1.13187(2) 0.129081(17)
O1 O 0.07261(19) 0.72262(16) -0.01682(12)
O2 O 0.30252(19) 0.85420(16) -0.05488(12)
O3 O 0.12387(19) 0.91086(15) 0.15848(12)
O4 O 0.3905(2) 0.89910(17) 0.23461(13)
O5 O 0.6153(3) 0.3236(2) 0.48447(14)
O6 O 0.6647(3) 0.15773(19) 0.40072(16)
O7 O 0.31997(19) 1.20156(17) 0.02125(11)
H1 H 0.2973 1.2023 -0.0434
H2 H 0.4369 1.1687 0.0351
N1 N 0.6005(3) 0.2874(2) 0.40323(15)
N2 N 0.0851(2) 1.21467(17) 0.25639(13)
C1 C 0.3186(2) 0.6306(2) 0.11306(15)
C2 C 0.3530(2) 0.6728(2) 0.20305(15)
C3 C 0.4476(3) 0.5604(2) 0.29824(16)
H3 H 0.4721 0.5868 0.3585
C4 C 0.5047(3) 0.4080(2) 0.30129(16)
C5 C 0.4743(3) 0.3636(2) 0.21340(17)
H4 H 0.5168 0.2610 0.2172
C6 C 0.3789(3) 0.4758(2) 0.11953(16)
H5 H 0.3545 0.4479 0.0600
C7 C 0.2247(3) 0.7488(2) 0.00516(15)
C8 C 0.2873(3) 0.8389(2) 0.19953(15)
C9 C 0.0000(3) 1.3651(2) 0.23483(16)
H6 H -0.0498 1.4243 0.1632
C10 C -0.0167(3) 1.4354(2) 0.31427(16)
H7 H -0.0760 1.5399 0.2957
C11 C 0.0555(3) 1.3495(2) 0.42227(16)
C12 C 0.1416(3) 1.1934(2) 0.44419(17)
H8 H 0.1905 1.1312 0.5155
C13 C 0.1546(3) 1.1310(2) 0.36075(16)
H9 H 0.2138 1.0268 0.3772
C14 C 0.0467(4) 1.4161(2) 0.51451(18)
H10 H -0.0187 1.3553 0.5787
H11 H 0.1740 1.4020 0.5385
N2A N -0.0851(2) 1.78533(17) 0.74361(13)
C9A C 0.0000(3) 1.6349(2) 0.76517(16)
H6A H 0.0498 1.5757 0.8368
C10A C 0.0167(3) 1.5646(2) 0.68573(16)
H7A H 0.0760 1.4601 0.7043
C11A C -0.0555(3) 1.6505(2) 0.57773(16)
C12A C -0.1416(3) 1.8066(2) 0.55581(17)
H8A H -0.1905 1.8688 0.4845
C13A C -0.1546(3) 1.8690(2) 0.63925(16)
H9A H -0.2138 1.9732 0.6228
C14A C -0.0467(4) 1.5839(2) 0.48549(18)
H10A H 0.0187 1.6447 0.4213
H11A H -0.1740 1.5980 0.4615
Zn1A Zn -0.11413(3) 0.86813(2) -0.129081(17)
O1A O -0.07261(19) 1.27738(16) 0.01682(12)
O2A O -0.30252(19) 1.14580(16) 0.05488(12)
O3A O -0.12387(19) 1.08914(15) -0.15848(12)
O4A O -0.3905(2) 1.10090(17) -0.23461(13)
O5A O -0.6153(3) 1.6764(2) -0.48447(14)
O6A O -0.6647(3) 1.84227(19) -0.40072(16)
O7A O -0.31997(19) 0.79844(17) -0.02125(11)
H1A H -0.2973 0.7977 0.0434
H2A H -0.4369 0.8313 -0.0351
N1A N -0.6005(3) 1.7126(2) -0.40323(15)
C1A C -0.3186(2) 1.3694(2) -0.11306(15)
C2A C -0.3530(2) 1.3272(2) -0.20305(15)
C3A C -0.4476(3) 1.4396(2) -0.29824(16)
H3A H -0.4721 1.4132 -0.3585
C4A C -0.5047(3) 1.5920(2) -0.30129(16)
C5A C -0.4743(3) 1.6364(2) -0.21340(17)
H4A H -0.5168 1.7390 -0.2172
C6A C -0.3789(3) 1.5242(2) -0.11953(16)
H5A H -0.3545 1.5521 -0.0600
C7A C -0.2247(3) 1.2512(2) -0.00516(15)
C8A C -0.2873(3) 1.1611(2) -0.19953(15)
Zn1A_2 Zn -0.11413(3) 1.86813(2) 0.870919(17)
N2A_2 N -0.0851(2) 0.78533(17) -0.25639(13)
O8 O 0.2333(2) 0.20403(17) 0.81700(13)
H12 H 0.3368 0.1579 0.7971
H13 H 0.1564 0.1437 0.8371
loop_
_geom_bond_atom_site_label_1
_geom_bond_atom_site_label_2
_geom_bond_site_symmetry_1
_geom_bond_site_symmetry_2
Zn1 O3 1_555 1_555
O1 C7 1_555 1_555
O2 C7 1_555 1_555
O3 C8 1_555 1_555
O4 C8 1_555 1_555
O5 N1 1_555 1_555
O6 N1 1_555 1_555
O7 Zn1 1_555 1_555
H1 O7 1_555 1_555
H2 O7 1_555 1_555
N1 C4 1_555 1_555
N2 Zn1 1_555 1_555
C1 C2 1_555 1_555
C2 C3 1_555 1_555
C3 H3 1_555 1_555
C4 C3 1_555 1_555
C5 C4 1_555 1_555
H4 C5 1_555 1_555
C6 C1 1_555 1_555
H5 C6 1_555 1_555
C7 C1 1_555 1_555
C8 C2 1_555 1_555
C9 N2 1_555 1_555
H6 C9 1_555 1_555
C10 C9 1_555 1_555
H7 C10 1_555 1_555
C11 C10 1_555 1_555
C12 C11 1_555 1_555
H8 C12 1_555 1_555
C13 N2 1_555 1_555
H9 C13 1_555 1_555
C14 C11 1_555 1_555
H10 C14 1_555 1_555
H11 C14 1_555 1_555
O8 H12 1_555 1_555
H13 O8 1_555 1_555
N2A C9A 1_555 1_555
C9A H6A 1_555 1_555
C10A C9A 1_555 1_555
H7A C10A 1_555 1_555
C11A C10A 1_555 1_555
C12A C11A 1_555 1_555
H8A C12A 1_555 1_555
C13A N2A 1_555 1_555
H9A C13A 1_555 1_555
C14A C14 1_555 1_555
H10A C14A 1_555 1_555
H11A C14A 1_555 1_555
Zn1A O1 1_555 1_555
O1A Zn1 1_555 1_555
O2A C7A 1_555 1_555
O3A Zn1A 1_555 1_555
O4A C8A 1_555 1_555
O5A N1A 1_555 1_555
O6A N1A 1_555 1_555
O7A Zn1A 1_555 1_555
H1A O7A 1_555 1_555
H2A O7A 1_555 1_555
N1A C4A 1_555 1_555
C1A C2A 1_555 1_555
C2A C3A 1_555 1_555
C3A H3A 1_555 1_555
C4A C3A 1_555 1_555
C5A C4A 1_555 1_555
H4A C5A 1_555 1_555
C6A C1A 1_555 1_555
H5A C6A 1_555 1_555
C7A O1A 1_555 1_555
C8A O3A 1_555 1_555
Zn1A_2 N2A 1_555 1_555
N2A_2 Zn1A 1_555 1_555
C5 C6 1_555 1_555
C12 C13 1_555 1_555
C11A C14A 1_555 1_555
C12A C13A 1_555 1_555
C1A C7A 1_555 1_555
C2A C8A 1_555 1_555
C5A C6A 1_555 1_555

#END
