
#######################################################################
#
#                 Cambridge Crystallographic Data Centre
#                                CCDC 
#
#######################################################################
#
# If this CIF has been generated from an entry in the Cambridge 
# Structural Database, then it will include bibliographic, chemical, 
# crystal, experimental, refinement or atomic coordinate data resulting 
# from the CCDC's data processing and validation procedures.
#
#######################################################################

data_TOFMEI
_symmetry_cell_setting           monoclinic
_symmetry_space_group_name_H-M   'P 21'
_symmetry_Int_Tables_number      4
_space_group_name_Hall           'P 2yb'
loop_
_symmetry_equiv_pos_site_id
_symmetry_equiv_pos_as_xyz
1 x,y,z
2 -x,1/2+y,-z
_cell_length_a                   8.762(5)
_cell_length_b                   17.118(5)
_cell_length_c                   9.854(5)
_cell_angle_alpha                90
_cell_angle_beta                 108.920(5)
_cell_angle_gamma                90
_cell_volume                     1398.13
loop_
_atom_site_label
_atom_site_type_symbol
_atom_site_fract_x
_atom_site_fract_y
_atom_site_fract_z
Mn1 Mn 0.96292(3) 0.26118(2) 0.66688(3)
Mn2 Mn 0.62336(3) 0.26203(3) 0.80215(3)
S1 S 0.54049(6) 0.25787(5) 0.19909(5)
S2 S 1.11007(8) 0.01921(4) 0.96796(8)
O1 O 0.72492(16) 0.26036(17) 0.50782(15)
O2 O 0.51138(18) 0.26882(16) 0.58579(15)
O3 O 0.4458(2) 0.23609(13) -0.1153(2)
O4 O 0.1929(2) 0.27478(15) -0.16513(17)
O5 O 0.7394(3) 0.15948(14) 0.8663(3)
O6 O 0.9491(3) 0.15591(13) 0.7834(2)
O7 O 1.3152(2) -0.12232(13) 1.0943(2)
O8 O 1.1496(2) -0.17349(12) 1.1941(2)
N1 N 1.0562(2) 0.18321(14) 0.5326(2)
N2 N 1.2235(2) 0.10189(15) 0.4787(2)
N3 N 1.9567(2) -0.13607(13) 0.4341(2)
N4 N 1.7909(2) -0.05397(14) 0.4878(2)
C1 C 0.5777(2) 0.2651(2) 0.4895(2)
C2 C 0.4657(2) 0.2666(2) 0.3391(2)
C3 C 0.3010(3) 0.2721(2) 0.2930(2)
H1 H 0.2395 0.2764 0.3539
C4 C 0.2351(2) 0.2702(2) 0.1410(2)
H2 H 0.1253 0.2740 0.0912
C5 C 0.3496(2) 0.2624(2) 0.07608(19)
C6 C 0.3263(2) 0.25756(18) -0.0800(2)
C7 C 0.8675(3) 0.13101(16) 0.8571(3)
C8 C 0.9228(3) 0.05897(16) 0.9425(3)
C9 C 0.8356(3) 0.01560(18) 1.0064(3)
H3 H 0.7317 0.0286 1.0040
C10 C 0.9182(3) -0.05084(17) 1.0763(3)
H4 H 0.8753 -0.0868 1.1248
C11 C 1.0691(3) -0.05657(17) 1.0647(3)
C12 C 1.1856(3) -0.12016(15) 1.1209(3)
C13 C 0.9817(3) 0.1516(2) 0.3985(3)
H5 H 0.8771 0.1629 0.3406
C14 C 1.0820(3) 0.1023(2) 0.3639(3)
H6 H 1.0606 0.0740 0.2792
C15 C 1.2016(3) 0.15260(17) 0.5759(3)
H7 H 1.2799 0.1644 0.6629
C16 C 1.3687(3) 0.06059(17) 0.4871(3)
C17 C 1.4143(3) 0.06109(17) 0.3640(3)
H8 H 1.3510 0.0876 0.2830
C18 C 1.5530(3) 0.02257(18) 0.3602(3)
C19 C 1.5985(4) 0.0264(2) 0.2256(3)
H9 H 1.5471 -0.0156 0.1627
H10 H 1.7134 0.0217 0.2498
H11 H 1.5639 0.0754 0.1783
C20 C 1.6439(3) -0.01493(17) 0.4844(3)
C21 C 1.5988(3) -0.01578(18) 0.6058(3)
H12 H 1.6631 -0.0421 0.6866
C22 C 1.4595(3) 0.02166(18) 0.6114(3)
C23 C 1.4142(4) 0.0171(2) 0.7468(3)
H13 H 1.4492 0.0638 0.8023
H14 H 1.4653 -0.0275 0.8020
H15 H 1.2992 0.0122 0.7219
C24 C 1.8061(3) -0.11492(17) 0.4079(3)
H16 H 1.7193 -0.1395 0.3410
C25 C 1.9435(4) -0.0347(2) 0.5725(4)
H17 H 1.9734 0.0053 0.6397
C26 C 2.0418(3) -0.0864(3) 0.5379(4)
H18 H 2.1533 -0.0875 0.5799
Mn1_2 Mn -0.03708(3) 0.26118(2) -0.33312(3)
Mn1A Mn 1.03708(3) -0.23882(2) 1.33312(3)
Mn1A_2 Mn 2.03708(3) -0.23882(2) 0.33312(3)
Mn2_2 Mn 0.62336(3) 0.26203(3) -0.19785(3)
Mn2A Mn 1.37664(3) -0.23797(3) 1.19785(3)
O3_2 O 0.4458(2) 0.23609(13) 0.8847(2)
O4_2 O 1.1929(2) 0.27478(15) 0.83487(17)
O7A O 0.6848(2) 0.37768(13) 0.9057(2)
O8A O 0.8504(2) 0.32651(12) 0.8059(2)
N3A N 1.0433(2) 0.36393(13) 0.5659(2)
loop_
_geom_bond_atom_site_label_1
_geom_bond_atom_site_label_2
_geom_bond_site_symmetry_1
_geom_bond_site_symmetry_2
Mn1 O1 1_555 1_555
Mn2 O2 1_555 1_555
S1 C2 1_555 1_555
S2 C8 1_555 1_555
O1 C1 1_555 1_555
O2 C1 1_555 1_555
O3 C6 1_555 1_555
O4 C6 1_555 1_555
O5 Mn2 1_555 1_555
O6 Mn1 1_555 1_555
O7 C12 1_555 1_555
O8 C12 1_555 1_555
N1 Mn1 1_555 1_555
N2 C14 1_555 1_555
N3 C24 1_555 1_555
N4 C20 1_555 1_555
C1 C2 1_555 1_555
C2 C3 1_555 1_555
C3 H1 1_555 1_555
C4 C3 1_555 1_555
H2 C4 1_555 1_555
C5 S1 1_555 1_555
C6 C5 1_555 1_555
C7 O5 1_555 1_555
C8 C7 1_555 1_555
C9 C8 1_555 1_555
H3 C9 1_555 1_555
C10 C9 1_555 1_555
H4 C10 1_555 1_555
C11 S2 1_555 1_555
C12 C11 1_555 1_555
C13 N1 1_555 1_555
H5 C13 1_555 1_555
C14 C13 1_555 1_555
H6 C14 1_555 1_555
C15 N1 1_555 1_555
H7 C15 1_555 1_555
C16 N2 1_555 1_555
C17 C16 1_555 1_555
H8 C17 1_555 1_555
C18 C17 1_555 1_555
C19 C18 1_555 1_555
H9 C19 1_555 1_555
H10 C19 1_555 1_555
H11 C19 1_555 1_555
C20 C18 1_555 1_555
C21 C20 1_555 1_555
H12 C21 1_555 1_555
C22 C16 1_555 1_555
C23 C22 1_555 1_555
H13 C23 1_555 1_555
H14 C23 1_555 1_555
H15 C23 1_555 1_555
C24 N4 1_555 1_555
H16 C24 1_555 1_555
C25 N4 1_555 1_555
H17 C25 1_555 1_555
C26 N3 1_555 1_555
H18 C26 1_555 1_555
Mn1_2 O4 1_555 1_555
Mn1A O8 1_555 1_555
Mn1A_2 N3 1_555 1_555
Mn2_2 O3 1_555 1_555
Mn2A O7 1_555 1_555
O3_2 Mn2 1_555 1_555
O4_2 Mn1 1_555 1_555
O7A Mn2 1_555 1_555
O8A Mn1 1_555 1_555
N3A Mn1 1_555 1_555
Mn2 O8A 1_555 1_555
O6 C7 1_555 1_555
O8 Mn2A 1_555 1_555
N2 C15 1_555 1_555
C4 C5 1_555 1_555
C10 C11 1_555 1_555
C21 C22 1_555 1_555
C25 C26 1_555 1_555

#END
