
#######################################################################
#
#                 Cambridge Crystallographic Data Centre
#                                CCDC 
#
#######################################################################
#
# If this CIF has been generated from an entry in the Cambridge 
# Structural Database, then it will include bibliographic, chemical, 
# crystal, experimental, refinement or atomic coordinate data resulting 
# from the CCDC's data processing and validation procedures.
#
#######################################################################

data_TOFMAC
_symmetry_cell_setting           monoclinic
_symmetry_space_group_name_H-M   'P 21/a'
_symmetry_Int_Tables_number      14
_space_group_name_Hall           '-P 2yab'
loop_
_symmetry_equiv_pos_site_id
_symmetry_equiv_pos_as_xyz
1 x,y,z
2 1/2-x,1/2+y,-z
3 -x,-y,-z
4 1/2+x,1/2-y,z
_cell_length_a                   18.549(5)
_cell_length_b                   12.672(4)
_cell_length_c                   22.401(3)
_cell_angle_alpha                90
_cell_angle_beta                 90.15(2)
_cell_angle_gamma                90
_cell_volume                     5265.4
loop_
_atom_site_label
_atom_site_type_symbol
_atom_site_fract_x
_atom_site_fract_y
_atom_site_fract_z
Sn1 Sn -0.16190(5) 0.23911(8) -0.02328(4)
Cl1 Cl -0.1556(2) 0.4098(3) -0.0757(2)
Cl2 Cl -0.0718(2) 0.1591(4) -0.0893(2)
S1 S -0.1006(2) 0.0193(3) 0.0502(2)
S2 S -0.2040(2) -0.1119(3) -0.0725(2)
O1 O -0.1659(5) 0.0772(8) 0.0265(4)
O2 O -0.2456(6) -0.2053(8) -0.0496(5)
C1 C -0.1162(8) -0.117(1) 0.0279(7)
C2 C -0.1120(8) -0.126(1) -0.0412(7)
C5 C -0.1180(8) 0.002(1) 0.1273(7)
C6 C -0.1868(9) -0.004(1) 0.1477(8)
C7 C -0.200(1) -0.020(2) 0.2097(8)
C8 C -0.140(1) -0.030(2) 0.2481(9)
C9 C -0.072(1) -0.022(2) 0.2260(9)
C10 C -0.0583(9) -0.004(2) 0.1645(8)
C11 C -0.1781(8) -0.144(1) -0.1474(7)
C12 C -0.1939(9) -0.247(2) -0.1672(8)
C13 C -0.168(1) -0.270(2) -0.2285(9)
C14 C -0.130(1) -0.196(2) -0.2595(9)
C15 C -0.118(1) -0.098(2) -0.2385(9)
C16 C -0.1435(9) -0.069(1) -0.1800(8)
C17 C -0.2558(8) 0.186(1) -0.0672(6)
C18 C -0.2682(8) 0.221(1) -0.1249(7)
C19 C -0.332(1) 0.193(1) -0.1537(8)
C20 C -0.384(1) 0.127(1) -0.1252(8)
C21 C -0.3689(9) 0.089(1) -0.0681(7)
C22 C -0.3041(8) 0.119(1) -0.0384(7)
C23 C -0.0873(7) 0.289(1) 0.0449(6)
C24 C -0.1023(8) 0.266(1) 0.1048(7)
C25 C -0.0501(9) 0.299(1) 0.1487(8)
C26 C 0.0091(9) 0.355(1) 0.1299(8)
C27 C 0.0218(9) 0.378(1) 0.0714(8)
C28 C -0.0263(8) 0.342(1) 0.0265(7)
O2A O -0.2544(6) 0.2947(8) 0.0496(5)
Sn1A Sn -0.33810(5) -0.26089(8) 0.02328(4)
Sn2 Sn -0.33803(5) 0.23918(8) -0.52324(4)
Cl3 Cl -0.3445(2) 0.4096(3) -0.5757(2)
Cl4 Cl -0.4287(2) 0.1591(4) -0.5892(2)
S3 S -0.3996(2) 0.0193(3) -0.4498(2)
S4 S -0.2963(2) -0.1114(3) -0.5723(2)
O3 O -0.3329(5) 0.0764(8) -0.4736(4)
O4 O -0.2560(6) -0.2062(9) -0.5495(5)
C3 C -0.3857(8) -0.116(1) -0.4727(7)
C4 C -0.3887(8) -0.126(1) -0.5411(7)
C29 C -0.3827(7) 0.000(1) -0.3719(7)
C30 C -0.4431(9) -0.004(2) -0.3360(8)
C31 C -0.428(1) -0.024(2) -0.2741(9)
C32 C -0.358(1) -0.029(2) -0.2524(9)
C33 C -0.300(1) -0.020(2) -0.2909(9)
C34 C -0.3108(9) -0.005(1) -0.3531(8)
C35 C -0.3213(8) -0.147(1) -0.6475(7)
C36 C -0.3069(9) -0.247(2) -0.6678(8)
C37 C -0.334(1) -0.268(2) -0.7295(9)
C38 C -0.371(1) -0.193(2) -0.7598(9)
C39 C -0.380(1) -0.097(2) -0.7389(9)
C40 C -0.3574(9) -0.068(1) -0.6800(8)
C41 C -0.2443(7) 0.187(1) -0.5675(6)
C42 C -0.2315(8) 0.223(1) -0.6243(7)
C43 C -0.168(1) 0.195(1) -0.6536(8)
C44 C -0.1162(9) 0.128(1) -0.6256(8)
C45 C -0.1317(9) 0.091(1) -0.5685(8)
C46 C -0.1960(8) 0.118(1) -0.5389(7)
C47 C -0.4118(8) 0.288(1) -0.4556(6)
C48 C -0.4725(8) 0.343(1) -0.4729(7)
C49 C -0.5202(9) 0.378(1) -0.4289(8)
C50 C -0.510(1) 0.354(1) -0.3696(8)
C51 C -0.450(1) 0.298(1) -0.3519(8)
C52 C -0.3992(8) 0.265(1) -0.3959(6)
O4A O -0.2440(6) 0.2938(9) -0.4505(5)
Sn2A Sn -0.16197(5) -0.26082(8) -0.47676(4)
loop_
_geom_bond_atom_site_label_1
_geom_bond_atom_site_label_2
_geom_bond_site_symmetry_1
_geom_bond_site_symmetry_2
Sn1 Cl1 1_555 1_555
Sn2 Cl3 1_555 1_555
Cl2 Sn1 1_555 1_555
Cl4 Sn2 1_555 1_555
S1 O1 1_555 1_555
S2 O2 1_555 1_555
S3 O3 1_555 1_555
S4 O4 1_555 1_555
O1 Sn1 1_555 1_555
O2 Sn1A 1_555 1_555
O3 Sn2 1_555 1_555
O4 Sn2A 1_555 1_555
C1 S1 1_555 1_555
C2 S2 1_555 1_555
C3 S3 1_555 1_555
C4 S4 1_555 1_555
C5 S1 1_555 1_555
C6 C5 1_555 1_555
C7 C6 1_555 1_555
C8 C7 1_555 1_555
C9 C8 1_555 1_555
C10 C5 1_555 1_555
C11 S2 1_555 1_555
C12 C11 1_555 1_555
C13 C12 1_555 1_555
C14 C13 1_555 1_555
C15 C14 1_555 1_555
C16 C11 1_555 1_555
C17 Sn1 1_555 1_555
C18 C17 1_555 1_555
C19 C18 1_555 1_555
C20 C19 1_555 1_555
C21 C20 1_555 1_555
C22 C17 1_555 1_555
C23 Sn1 1_555 1_555
C24 C23 1_555 1_555
C25 C24 1_555 1_555
C26 C25 1_555 1_555
C27 C26 1_555 1_555
C28 C23 1_555 1_555
C29 S3 1_555 1_555
C30 C29 1_555 1_555
C31 C30 1_555 1_555
C32 C31 1_555 1_555
C33 C32 1_555 1_555
C34 C29 1_555 1_555
C35 S4 1_555 1_555
C36 C35 1_555 1_555
C37 C36 1_555 1_555
C38 C37 1_555 1_555
C39 C38 1_555 1_555
C40 C35 1_555 1_555
C41 Sn2 1_555 1_555
C42 C41 1_555 1_555
C43 C42 1_555 1_555
C44 C43 1_555 1_555
C45 C44 1_555 1_555
C46 C41 1_555 1_555
C47 Sn2 1_555 1_555
C48 C47 1_555 1_555
C49 C48 1_555 1_555
C50 C49 1_555 1_555
C51 C50 1_555 1_555
C52 C47 1_555 1_555
O2A Sn1 1_555 1_555
O4A Sn2 1_555 1_555
C1 C2 1_555 1_555
C3 C4 1_555 1_555
C9 C10 1_555 1_555
C15 C16 1_555 1_555
C21 C22 1_555 1_555
C27 C28 1_555 1_555
C33 C34 1_555 1_555
C39 C40 1_555 1_555
C45 C46 1_555 1_555
C51 C52 1_555 1_555

#END
