
#######################################################################
#
#                 Cambridge Crystallographic Data Centre
#                                CCDC 
#
#######################################################################
#
# If this CIF has been generated from an entry in the Cambridge 
# Structural Database, then it will include bibliographic, chemical, 
# crystal, experimental, refinement or atomic coordinate data resulting 
# from the CCDC's data processing and validation procedures.
#
#######################################################################

data_TOFMIM
_symmetry_cell_setting           triclinic
_symmetry_space_group_name_H-M   'P -1'
_symmetry_Int_Tables_number      2
_space_group_name_Hall           '-P 1'
loop_
_symmetry_equiv_pos_site_id
_symmetry_equiv_pos_as_xyz
1 x,y,z
2 -x,-y,-z
_cell_length_a                   8.536(5)
_cell_length_b                   11.402(7)
_cell_length_c                   15.099(9)
_cell_angle_alpha                91.470(8)
_cell_angle_beta                 101.496(7)
_cell_angle_gamma                111.362(7)
_cell_volume                     1333.34
loop_
_atom_site_label
_atom_site_type_symbol
_atom_site_fract_x
_atom_site_fract_y
_atom_site_fract_z
Mn1 Mn -0.01685(4) 0.12702(3) 0.626346(19)
O1 O -0.1096(2) 0.11331(16) -0.23856(10)
O2 O 0.1505(2) 0.05575(14) 0.44565(10)
O3 O 0.1136(2) 0.20720(15) 0.52474(10)
N1 N -0.3737(2) 0.30424(17) 0.50693(13)
O4 O 0.0656(2) 0.29729(17) -0.26825(10)
O5 O 0.1071(3) 0.43444(17) 0.14787(11)
N2 N 0.2089(2) 0.08857(19) 0.70827(12)
N3 N 0.3839(2) 0.0551(2) 0.82407(12)
C1 C 0.1178(3) 0.2286(2) 0.37025(13)
N4 N -0.2275(3) 0.18686(18) 0.55855(13)
C2 C -0.0117(3) 0.2273(2) -0.21466(14)
C3 C 0.2257(3) 0.0551(2) 0.79122(15)
H1 H 0.1386 0.0339 0.8233
C4 C 0.4450(3) 0.0258(2) 0.91403(14)
C5 C 0.3664(3) 0.1122(2) 0.68732(15)
H2 H 0.3939 0.1388 0.6327
C6 C -0.4368(3) 0.4059(2) 0.50213(16)
C7 C 0.5135(3) 0.0808(3) 1.07657(15)
C8 C -0.5786(3) 0.5209(2) 0.57039(17)
C9 C 0.1712(3) 0.1968(2) 0.29525(14)
H3 H 0.2095 0.1302 0.2954
C10 C 0.1267(3) 0.1576(2) 0.45284(13)
C11 C -0.5124(3) 0.4263(2) 0.57021(17)
H4 H -0.5194 0.3752 0.6175
C12 C 0.0183(3) 0.2817(2) -0.11841(14)
C13 C 0.0567(3) 0.3255(2) 0.36780(14)
H5 H 0.0217 0.3478 0.4180
C14 C 0.1066(3) 0.3600(2) 0.21917(14)
C15 C 0.0787(4) 0.3787(2) 0.06042(15)
C16 C -0.4252(4) 0.2021(2) 0.44413(19)
H6 H -0.5066 0.1845 0.3895
C17 C -0.2545(3) 0.2906(2) 0.57465(16)
H7 H -0.1983 0.3478 0.6265
C18 C 0.1678(3) 0.2638(2) 0.22009(15)
H8 H 0.2066 0.2439 0.1706
C19 C 0.4753(3) 0.0911(3) 0.75730(15)
H9 H 0.5886 0.0992 0.7599
C20 C -0.0765(3) 0.2123(3) -0.06006(15)
H10 H -0.1604 0.1322 -0.0810
C21 C 0.0469(3) 0.3902(2) 0.29157(14)
H11 H 0.0009 0.4528 0.2893
C22 C 0.4562(3) 0.1039(3) 0.98784(15)
H12 H 0.4250 0.1735 0.9786
C23 C 0.1426(4) 0.3998(3) -0.08600(16)
H13 H 0.2061 0.4475 -0.1250
C24 C -0.3345(4) 0.1318(2) 0.47708(19)
H14 H -0.3439 0.0558 0.4480
C25 C 0.1749(4) 0.4489(3) 0.00377(17)
H15 H 0.2603 0.5282 0.0252
C26 C -0.0479(4) 0.2609(3) 0.02944(16)
H16 H -0.1135 0.2145 0.0681
C27 C -0.6684(5) 0.5356(3) 0.6434(2)
H17 H -0.5870 0.5964 0.6920
H18 H -0.7167 0.4555 0.6663
H19 H -0.7591 0.5644 0.6186
C28 C 0.5323(6) 0.1709(4) 1.1560(2)
H20 H 0.4410 0.1331 1.1869
H21 H 0.5263 0.2481 1.1347
H22 H 0.6417 0.1890 1.1972
N1A N -0.6263(2) 0.69576(17) 0.49307(13)
N4A N -0.7725(3) 0.81314(18) 0.44145(13)
C6A C -0.5632(3) 0.5941(2) 0.49787(16)
C8A C -0.4214(3) 0.4791(2) 0.42961(17)
C11A C -0.4876(3) 0.5737(2) 0.42979(17)
H4A H -0.4806 0.6248 0.3825
C16A C -0.5748(4) 0.7979(2) 0.55587(19)
H6A H -0.4934 0.8155 0.6105
C17A C -0.7455(3) 0.7094(2) 0.42535(16)
H7A H -0.8017 0.6522 0.3735
C24A C -0.6655(4) 0.8682(2) 0.52292(19)
H14A H -0.6561 0.9442 0.5520
C27A C -0.3316(5) 0.4644(3) 0.3566(2)
H17A H -0.4130 0.4036 0.3080
H18A H -0.2833 0.5445 0.3337
H19A H -0.2409 0.4356 0.3814
N2A N 0.7911(2) -0.08857(19) 1.29173(12)
N3A N 0.6161(2) -0.0551(2) 1.17593(12)
C3A C 0.7743(3) -0.0551(2) 1.20878(15)
H1A H 0.8614 -0.0339 1.1767
C4A C 0.5550(3) -0.0258(2) 1.08597(14)
C5A C 0.6336(3) -0.1122(2) 1.31268(15)
H2A H 0.6061 -0.1388 1.3673
C7A C 0.4865(3) -0.0808(3) 0.92343(15)
C19A C 0.5247(3) -0.0911(3) 1.24270(15)
H9A H 0.4114 -0.0992 1.2401
C22A C 0.5438(3) -0.1039(3) 1.01216(15)
H12A H 0.5750 -0.1735 1.0214
C28A C 0.4677(6) -0.1709(4) 0.8440(2)
H20A H 0.5590 -0.1331 0.8131
H21A H 0.4737 -0.2481 0.8653
H22A H 0.3583 -0.1890 0.8028
Mn1A Mn -0.98315(4) 0.87298(3) 0.373654(19)
O1A O -0.8904(2) 0.88669(16) 1.23856(10)
O2A O -1.1505(2) 0.94425(14) 0.55435(10)
O3A O -1.1136(2) 0.79280(15) 0.47526(10)
O4A O -1.0656(2) 0.70271(17) 1.26825(10)
O5A O -1.1071(3) 0.56556(17) 0.85213(11)
C1A C -1.1178(3) 0.7714(2) 0.62975(13)
C2A C -0.9883(3) 0.7727(2) 1.21466(14)
C9A C -1.1712(3) 0.8032(2) 0.70475(14)
H3A H -1.2095 0.8698 0.7046
C10A C -1.1267(3) 0.8424(2) 0.54716(13)
C12A C -1.0183(3) 0.7183(2) 1.11841(14)
C13A C -1.0567(3) 0.6745(2) 0.63220(14)
H5A H -1.0217 0.6522 0.5820
C14A C -1.1066(3) 0.6400(2) 0.78083(14)
C15A C -1.0787(4) 0.6213(2) 0.93958(15)
C18A C -1.1678(3) 0.7362(2) 0.77991(15)
H8A H -1.2066 0.7561 0.8294
C20A C -0.9235(3) 0.7877(3) 1.06006(15)
H10A H -0.8396 0.8678 1.0810
C21A C -1.0469(3) 0.6098(2) 0.70843(14)
H11A H -1.0009 0.5472 0.7107
C23A C -1.1426(4) 0.6002(3) 1.08600(16)
H13A H -1.2061 0.5525 1.1250
C25A C -1.1749(4) 0.5511(3) 0.99623(17)
H15A H -1.2603 0.4718 0.9748
C26A C -0.9521(4) 0.7391(3) 0.97056(16)
H16A H -0.8865 0.7855 0.9319
Mn1_2 Mn -1.01685(4) 1.12702(3) 0.626346(19)
Mn1_3 Mn -0.01685(4) 0.12702(3) -0.373654(19)
Mn1A_2 Mn -0.98315(4) 0.87298(3) 1.373654(19)
Mn1A_3 Mn 0.01685(4) -0.12702(3) 0.373654(19)
Mn1A_4 Mn 1.01685(4) -0.12702(3) 1.373654(19)
O1_2 O -0.1096(2) 0.11331(16) 0.76144(10)
O1A_2 O -0.8904(2) 0.88669(16) 0.23856(10)
O2_2 O -0.8495(2) 1.05575(14) 0.44565(10)
O2A_2 O -0.1505(2) -0.05575(14) 0.55435(10)
O4_2 O 0.0656(2) 0.29729(17) 0.73175(10)
O4A_2 O -1.0656(2) 0.70271(17) 0.26825(10)
N2A_2 N -1.2089(2) 0.91143(19) 0.29173(12)
loop_
_geom_bond_atom_site_label_1
_geom_bond_atom_site_label_2
_geom_bond_site_symmetry_1
_geom_bond_site_symmetry_2
Mn1 O3 1_555 1_555
O1 C2 1_555 1_555
O2 C10 1_555 1_555
O3 C10 1_555 1_555
N1 C6 1_555 1_555
O4 C2 1_555 1_555
O5 C14 1_555 1_555
N2 Mn1 1_555 1_555
N3 C3 1_555 1_555
C1 C9 1_555 1_555
N4 Mn1 1_555 1_555
C2 C12 1_555 1_555
C3 N2 1_555 1_555
H1 C3 1_555 1_555
C4 N3 1_555 1_555
C5 N2 1_555 1_555
H2 C5 1_555 1_555
C6 C11 1_555 1_555
C7 C22 1_555 1_555
C8 C11 1_555 1_555
C9 H3 1_555 1_555
C10 C1 1_555 1_555
C11 H4 1_555 1_555
C12 C20 1_555 1_555
C13 C1 1_555 1_555
H5 C13 1_555 1_555
C14 C18 1_555 1_555
C15 O5 1_555 1_555
C16 N1 1_555 1_555
H6 C16 1_555 1_555
C17 N1 1_555 1_555
H7 C17 1_555 1_555
C18 C9 1_555 1_555
H8 C18 1_555 1_555
C19 N3 1_555 1_555
H9 C19 1_555 1_555
C20 H10 1_555 1_555
C21 C13 1_555 1_555
H11 C21 1_555 1_555
C22 C4 1_555 1_555
H12 C22 1_555 1_555
C23 C12 1_555 1_555
H13 C23 1_555 1_555
C24 N4 1_555 1_555
H14 C24 1_555 1_555
C25 C15 1_555 1_555
H15 C25 1_555 1_555
C26 C15 1_555 1_555
H16 C26 1_555 1_555
C27 C8 1_555 1_555
H17 C27 1_555 1_555
H18 C27 1_555 1_555
H19 C27 1_555 1_555
C28 C7 1_555 1_555
H20 C28 1_555 1_555
H21 C28 1_555 1_555
H22 C28 1_555 1_555
N1A C6A 1_555 1_555
N4A C17A 1_555 1_555
C6A C8 1_555 1_555
C8A C6 1_555 1_555
C11A C6A 1_555 1_555
H4A C11A 1_555 1_555
C16A N1A 1_555 1_555
H6A C16A 1_555 1_555
C17A N1A 1_555 1_555
H7A C17A 1_555 1_555
C24A N4A 1_555 1_555
H14A C24A 1_555 1_555
C27A C8A 1_555 1_555
H17A C27A 1_555 1_555
H18A C27A 1_555 1_555
H19A C27A 1_555 1_555
N2A C3A 1_555 1_555
N3A C3A 1_555 1_555
C3A H1A 1_555 1_555
C4A C7 1_555 1_555
C5A N2A 1_555 1_555
H2A C5A 1_555 1_555
C7A C4 1_555 1_555
C19A N3A 1_555 1_555
H9A C19A 1_555 1_555
C22A C4A 1_555 1_555
H12A C22A 1_555 1_555
C28A C7A 1_555 1_555
H20A C28A 1_555 1_555
H21A C28A 1_555 1_555
H22A C28A 1_555 1_555
Mn1A N4A 1_555 1_555
O1A C2A 1_555 1_555
O2A C10A 1_555 1_555
O3A Mn1A 1_555 1_555
O4A C2A 1_555 1_555
O5A C14A 1_555 1_555
C1A C9A 1_555 1_555
C2A C12A 1_555 1_555
C9A H3A 1_555 1_555
C10A O3A 1_555 1_555
C12A C20A 1_555 1_555
C13A C1A 1_555 1_555
H5A C13A 1_555 1_555
C14A C18A 1_555 1_555
C15A O5A 1_555 1_555
C18A C9A 1_555 1_555
H8A C18A 1_555 1_555
C20A H10A 1_555 1_555
C21A C13A 1_555 1_555
H11A C21A 1_555 1_555
C23A C12A 1_555 1_555
H13A C23A 1_555 1_555
C25A C15A 1_555 1_555
H15A C25A 1_555 1_555
C26A C15A 1_555 1_555
H16A C26A 1_555 1_555
Mn1_2 O2A 1_555 1_555
Mn1_3 O1 1_555 1_555
Mn1A_2 O1A 1_555 1_555
Mn1A_3 O2 1_555 1_555
Mn1A_4 N2A 1_555 1_555
O1_2 Mn1 1_555 1_555
O1A_2 Mn1A 1_555 1_555
O2_2 Mn1A 1_555 1_555
O2A_2 Mn1 1_555 1_555
O4_2 Mn1 1_555 1_555
O4A_2 Mn1A 1_555 1_555
N2A_2 Mn1A 1_555 1_555
O4 Mn1_3 1_555 1_555
N4 C17 1_555 1_555
C5 C19 1_555 1_555
C14 C21 1_555 1_555
C16 C24 1_555 1_555
C20 C26 1_555 1_555
C23 C25 1_555 1_555
C8A C11A 1_555 1_555
C16A C24A 1_555 1_555
N3A C4A 1_555 1_555
C5A C19A 1_555 1_555
C7A C22A 1_555 1_555
O4A Mn1A_2 1_555 1_555
C1A C10A 1_555 1_555
C14A C21A 1_555 1_555
C20A C26A 1_555 1_555
C23A C25A 1_555 1_555

#END
