
#######################################################################
#
#                 Cambridge Crystallographic Data Centre
#                                CCDC 
#
#######################################################################
#
# If this CIF has been generated from an entry in the Cambridge 
# Structural Database, then it will include bibliographic, chemical, 
# crystal, experimental, refinement or atomic coordinate data resulting 
# from the CCDC's data processing and validation procedures.
#
#######################################################################

data_TOFPIP
_symmetry_cell_setting           monoclinic
_symmetry_space_group_name_H-M   'P 21/c'
_symmetry_Int_Tables_number      14
_space_group_name_Hall           '-P 2ybc'
loop_
_symmetry_equiv_pos_site_id
_symmetry_equiv_pos_as_xyz
1 x,y,z
2 -x,1/2+y,1/2-z
3 -x,-y,-z
4 x,1/2-y,1/2+z
_cell_length_a                   8.1427(3)
_cell_length_b                   17.9620(6)
_cell_length_c                   11.9259(4)
_cell_angle_alpha                90
_cell_angle_beta                 101.585(3)
_cell_angle_gamma                90
_cell_volume                     1708.74
loop_
_atom_site_label
_atom_site_type_symbol
_atom_site_fract_x
_atom_site_fract_y
_atom_site_fract_z
Cd1 Cd 0.23902(3) 0.540589(14) 0.57627(2)
N1 N 0.1541(4) 0.52007(17) 0.7446(3)
O1 O 0.3729(4) 0.61936(16) 0.4707(3)
O2 O 0.3434(4) 0.66612(17) 0.6350(2)
O3 O 0.9647(3) 0.91286(14) 0.0065(2)
O4 O 0.7460(3) 0.95979(16) 0.0627(2)
O5 O 0.3831(5) 0.8112(2) 0.6626(4)
H1 H 0.3596 0.7695 0.6826
O6 O 0.4982(3) 0.48552(18) 0.6683(3)
H2 H 0.5892 0.4996 0.6404
H3 H 0.4334 0.4504 0.6326
C1 C 0.4825(5) 0.7408(2) 0.5183(3)
C2 C 0.4714(5) 0.8054(3) 0.5793(3)
C3 C 0.5499(5) 0.8697(2) 0.5518(4)
H4 H 0.5400 0.9139 0.5907
C4 C 0.6426(5) 0.8680(2) 0.4664(4)
H5 H 0.6937 0.9115 0.4483
C5 C 0.6612(4) 0.8032(2) 0.4075(3)
C6 C 0.5774(5) 0.7400(2) 0.4336(3)
H6 H 0.5850 0.6962 0.3934
C7 C 0.3944(5) 0.6706(2) 0.5424(4)
C8 C 0.7699(5) 0.7996(2) 0.3214(3)
C9 C 0.7642(4) 0.8551(2) 0.2392(3)
H7 H 0.6921 0.8953 0.2388
C10 C 0.8652(4) 0.85150(19) 0.1571(3)
C11 C 0.9734(5) 0.7915(2) 0.1586(4)
H8 H 1.0394 0.7876 0.1036
C12 C 0.9821(7) 0.7380(3) 0.2416(5)
H9 H 1.0581 0.6991 0.2449
C13 C 0.8797(6) 0.7413(2) 0.3203(4)
H10 H 0.8847 0.7034 0.3739
C14 C 0.8596(4) 0.9109(2) 0.0705(3)
C15 C 0.0449(6) 0.4674(2) 0.7560(4)
H11 H 0.0100 0.4350 0.6950
C16 C -0.0199(6) 0.4578(2) 0.8531(4)
H12 H -0.0971 0.4202 0.8565
C17 C 0.0308(4) 0.5047(2) 0.9455(3)
C18 C 0.1430(5) 0.5601(3) 0.9326(3)
H13 H 0.1801 0.5935 0.9919
C19 C 0.1990(5) 0.5659(3) 0.8327(3)
H14 H 0.2732 0.6042 0.8259
N1B N -0.1541(4) 0.47993(17) 1.2554(3)
C15B C -0.0449(6) 0.5326(2) 1.2440(4)
H11B H -0.0100 0.5650 1.3050
C16B C 0.0199(6) 0.5422(2) 1.1469(4)
H12B H 0.0971 0.5798 1.1435
C17B C -0.0308(4) 0.4953(2) 1.0545(3)
C18B C -0.1430(5) 0.4399(3) 1.0674(3)
H13B H -0.1801 0.4065 1.0081
C19B C -0.1990(5) 0.4341(3) 1.1673(3)
H14B H -0.2732 0.3958 1.1741
Cd1B Cd -0.23902(3) 0.459411(14) 1.42373(2)
O1B O -0.3729(4) 0.38064(16) 1.5293(3)
O2B O -0.3434(4) 0.33388(17) 1.3650(2)
O3B O -0.9647(3) 0.08714(14) 1.9935(2)
O4B O -0.7460(3) 0.04021(16) 1.9373(2)
O5B O -0.3831(5) 0.1888(2) 1.3374(4)
H1B H -0.3596 0.2305 1.3174
O6B O -0.4982(3) 0.51448(18) 1.3317(3)
H2B H -0.5892 0.5004 1.3596
H3B H -0.4334 0.5496 1.3674
C1B C -0.4825(5) 0.2592(2) 1.4817(3)
C2B C -0.4714(5) 0.1946(3) 1.4207(3)
C3B C -0.5499(5) 0.1303(2) 1.4482(4)
H4B H -0.5400 0.0861 1.4093
C4B C -0.6426(5) 0.1320(2) 1.5336(4)
H5B H -0.6937 0.0885 1.5517
C5B C -0.6612(4) 0.1968(2) 1.5925(3)
C6B C -0.5774(5) 0.2600(2) 1.5664(3)
H6B H -0.5850 0.3038 1.6066
C7B C -0.3944(5) 0.3294(2) 1.4576(4)
C8B C -0.7699(5) 0.2004(2) 1.6786(3)
C9B C -0.7642(4) 0.1449(2) 1.7608(3)
H7B H -0.6921 0.1047 1.7612
C10B C -0.8652(4) 0.14850(19) 1.8429(3)
C11B C -0.9734(5) 0.2085(2) 1.8414(4)
H8B H -1.0394 0.2124 1.8964
C12B C -0.9821(7) 0.2620(3) 1.7584(5)
H9B H -1.0581 0.3009 1.7551
C13B C -0.8797(6) 0.2587(2) 1.6797(4)
H10B H -0.8847 0.2966 1.6261
C14B C -0.8596(4) 0.0891(2) 1.9295(3)
Cd1A Cd -1.23902(3) 0.040589(14) 1.92373(2)
Cd1A_2 Cd 0.76098(3) 1.040589(14) -0.07627(2)
Cd1C Cd -0.76098(3) -0.040589(14) 2.07627(2)
Cd1C_2 Cd 1.23902(3) 0.959411(14) 0.07627(2)
O3A O 0.0353(3) 0.41286(14) 1.4935(2)
O3C O -0.0353(3) 0.58714(14) 0.5065(2)
O4A O 0.2540(3) 0.45979(16) 0.4373(2)
O4C O -0.2540(3) 0.54021(16) 1.5627(2)
loop_
_geom_bond_atom_site_label_1
_geom_bond_atom_site_label_2
_geom_bond_site_symmetry_1
_geom_bond_site_symmetry_2
Cd1 N1 1_555 1_555
N1 C15 1_555 1_555
O1 Cd1 1_555 1_555
O2 Cd1 1_555 1_555
O3 C14 1_555 1_555
O4 C14 1_555 1_555
O5 H1 1_555 1_555
O6 Cd1 1_555 1_555
H2 O6 1_555 1_555
H3 O6 1_555 1_555
C1 C2 1_555 1_555
C2 O5 1_555 1_555
C3 C2 1_555 1_555
H4 C3 1_555 1_555
C4 C3 1_555 1_555
H5 C4 1_555 1_555
C5 C4 1_555 1_555
C6 C1 1_555 1_555
H6 C6 1_555 1_555
C7 O1 1_555 1_555
C8 C5 1_555 1_555
C9 C8 1_555 1_555
H7 C9 1_555 1_555
C10 C9 1_555 1_555
C11 C10 1_555 1_555
H8 C11 1_555 1_555
C12 C11 1_555 1_555
H9 C12 1_555 1_555
C13 C8 1_555 1_555
H10 C13 1_555 1_555
C14 C10 1_555 1_555
C15 H11 1_555 1_555
C16 C15 1_555 1_555
H12 C16 1_555 1_555
C17 C16 1_555 1_555
C18 C17 1_555 1_555
H13 C18 1_555 1_555
C19 N1 1_555 1_555
H14 C19 1_555 1_555
N1B C15B 1_555 1_555
C15B H11B 1_555 1_555
C16B C15B 1_555 1_555
H12B C16B 1_555 1_555
C17B C17 1_555 1_555
C18B C17B 1_555 1_555
H13B C18B 1_555 1_555
C19B N1B 1_555 1_555
H14B C19B 1_555 1_555
Cd1B N1B 1_555 1_555
O1B Cd1B 1_555 1_555
O2B Cd1B 1_555 1_555
O3B C14B 1_555 1_555
O4B C14B 1_555 1_555
O5B H1B 1_555 1_555
O6B Cd1B 1_555 1_555
H2B O6B 1_555 1_555
H3B O6B 1_555 1_555
C1B C2B 1_555 1_555
C2B O5B 1_555 1_555
C3B C2B 1_555 1_555
H4B C3B 1_555 1_555
C4B C3B 1_555 1_555
H5B C4B 1_555 1_555
C5B C4B 1_555 1_555
C6B C1B 1_555 1_555
H6B C6B 1_555 1_555
C7B O1B 1_555 1_555
C8B C5B 1_555 1_555
C9B C8B 1_555 1_555
H7B C9B 1_555 1_555
C10B C9B 1_555 1_555
C11B C10B 1_555 1_555
H8B C11B 1_555 1_555
C12B C11B 1_555 1_555
H9B C12B 1_555 1_555
C13B C8B 1_555 1_555
H10B C13B 1_555 1_555
C14B C10B 1_555 1_555
Cd1A O3B 1_555 1_555
Cd1A_2 O4 1_555 1_555
Cd1C O4B 1_555 1_555
Cd1C_2 O3 1_555 1_555
O3A Cd1B 1_555 1_555
O3C Cd1 1_555 1_555
O4A Cd1 1_555 1_555
O4C Cd1B 1_555 1_555
O2 C7 1_555 1_555
C1 C7 1_555 1_555
C5 C6 1_555 1_555
C12 C13 1_555 1_555
C18 C19 1_555 1_555
C16B C17B 1_555 1_555
C18B C19B 1_555 1_555
O2B C7B 1_555 1_555
C1B C7B 1_555 1_555
C5B C6B 1_555 1_555
C12B C13B 1_555 1_555

#END
