
#######################################################################
#
#                 Cambridge Crystallographic Data Centre
#                                CCDC 
#
#######################################################################
#
# If this CIF has been generated from an entry in the Cambridge 
# Structural Database, then it will include bibliographic, chemical, 
# crystal, experimental, refinement or atomic coordinate data resulting 
# from the CCDC's data processing and validation procedures.
#
#######################################################################

data_TOFQOW
_symmetry_cell_setting           monoclinic
_symmetry_space_group_name_H-M   'P 21/c'
_symmetry_Int_Tables_number      14
_space_group_name_Hall           '-P 2ybc'
loop_
_symmetry_equiv_pos_site_id
_symmetry_equiv_pos_as_xyz
1 x,y,z
2 -x,1/2+y,1/2-z
3 -x,-y,-z
4 x,1/2-y,1/2+z
_cell_length_a                   12.244(2)
_cell_length_b                   20.491(4)
_cell_length_c                   8.9728(18)
_cell_angle_alpha                90
_cell_angle_beta                 100.81(3)
_cell_angle_gamma                90
_cell_volume                     2211.25
loop_
_atom_site_label
_atom_site_type_symbol
_atom_site_fract_x
_atom_site_fract_y
_atom_site_fract_z
N1 N 0.8568(7) -0.1929(3) -0.2576(11)
N2 N 0.8758(4) -0.1401(2) -0.2311(6)
N3 N 1.0093(6) -0.1535(3) 0.1718(8)
Mn1 Mn 0.98153(5) 0.03385(3) 0.31838(6)
Mn2 Mn 0.57825(5) 0.04573(3) -0.10269(7)
Mn3 Mn 0.85680(5) -0.01541(3) -0.04545(6)
O1 O 0.4154(2) 0.04293(13) -0.0270(3)
N4 N 1.1992(3) 0.03912(18) 0.5573(4)
O2 O 0.8249(2) 0.04795(13) 0.1440(3)
N5 N 0.4800(3) 0.13323(16) -0.2018(4)
O3 O 0.6662(2) 0.10376(14) 0.0837(3)
N6 N 0.7294(3) 0.04121(19) -0.1909(4)
C1 C 0.7612(3) 0.0953(2) 0.1596(4)
N7 N 0.9047(3) 0.13061(16) 0.3648(3)
C2 C 0.3433(3) 0.08670(19) -0.0704(4)
O4 O 0.4998(3) -0.01199(16) -0.3045(4)
N8 N 1.1013(3) 0.02975(18) 0.5382(4)
C3 C 0.3775(3) 0.13934(19) -0.1712(4)
C4 C 0.8044(3) 0.14432(19) 0.2811(4)
C5 C 0.5128(4) 0.1769(2) -0.2953(5)
H1 H 0.5840 0.1732 -0.3165
N9 N 1.2931(3) 0.0473(2) 0.5772(5)
C6 C 0.3063(4) 0.1885(2) -0.2306(5)
H2 H 0.2360 0.1921 -0.2061
C7 C 0.7913(5) 0.2435(2) 0.4121(6)
H3 H 0.7529 0.2812 0.4284
C8 C 0.9469(4) 0.1736(2) 0.4715(5)
H4 H 1.0158 0.1647 0.5313
C9 C 0.4463(4) 0.2268(2) -0.3610(6)
H5 H 0.4715 0.2560 -0.4265
C10 C 0.7460(4) 0.1996(2) 0.3008(5)
H6 H 0.6769 0.2075 0.2402
C11 C 0.8937(4) 0.2306(2) 0.4980(6)
H7 H 0.9268 0.2597 0.5727
C12 C 0.3419(4) 0.2328(3) -0.3279(6)
H8 H 0.2952 0.2663 -0.3706
O5 O 0.2489(2) 0.08921(14) -0.0394(3)
N10 N 0.7336(3) 0.06646(19) -0.3092(5)
N11 N 1.0037(2) -0.03886(15) 0.1387(3)
N12 N 0.9001(3) -0.08542(18) -0.2049(4)
N13 N 1.0101(3) -0.0996(2) 0.1595(4)
N14 N 0.7366(4) 0.0918(3) -0.4223(6)
C13 C 0.5273(4) -0.0772(3) -0.3335(6)
H9 H 0.4825 -0.0915 -0.4272
H10 H 0.5137 -0.1047 -0.2523
H11 H 0.6045 -0.0796 -0.3407
Mn1B Mn 1.01847(5) -0.03385(3) -0.31838(6)
Mn1B_2 Mn 1.01847(5) -0.03385(3) 0.68162(6)
Mn2B Mn 0.42175(5) -0.04573(3) 0.10269(7)
Mn3B Mn 0.14320(5) 0.01541(3) 0.04545(6)
Mn3B_2 Mn 1.14320(5) 0.01541(3) 0.04545(6)
O1B O 0.5846(2) -0.04293(13) 0.0270(3)
N8B N 0.8987(3) -0.02975(18) 0.4618(4)
O5B O 0.7511(2) -0.08921(14) 0.0394(3)
N11B N 0.9963(2) 0.03886(15) -0.1387(3)
N12B N 1.0999(3) 0.08542(18) 0.2049(4)
loop_
_geom_bond_atom_site_label_1
_geom_bond_atom_site_label_2
_geom_bond_site_symmetry_1
_geom_bond_site_symmetry_2
N1 N2 1_555 1_555
N2 N12 1_555 1_555
N3 N13 1_555 1_555
Mn1 O2 1_555 1_555
Mn2 O1 1_555 1_555
Mn3 O2 1_555 1_555
O1 C2 1_555 1_555
N4 N8 1_555 1_555
O2 C1 1_555 1_555
N5 Mn2 1_555 1_555
O3 Mn2 1_555 1_555
N6 Mn2 1_555 1_555
C1 O3 1_555 1_555
N7 Mn1 1_555 1_555
C2 C3 1_555 1_555
O4 Mn2 1_555 1_555
N8 Mn1 1_555 1_555
C3 N5 1_555 1_555
C4 C1 1_555 1_555
C5 N5 1_555 1_555
H1 C5 1_555 1_555
N9 N4 1_555 1_555
C6 C3 1_555 1_555
H2 C6 1_555 1_555
C7 H3 1_555 1_555
C8 N7 1_555 1_555
H4 C8 1_555 1_555
C9 C5 1_555 1_555
H5 C9 1_555 1_555
C10 C4 1_555 1_555
H6 C10 1_555 1_555
C11 C7 1_555 1_555
H7 C11 1_555 1_555
C12 C6 1_555 1_555
H8 C12 1_555 1_555
O5 C2 1_555 1_555
N10 N6 1_555 1_555
N11 Mn1 1_555 1_555
N12 Mn3 1_555 1_555
N13 N11 1_555 1_555
N14 N10 1_555 1_555
C13 O4 1_555 1_555
H9 C13 1_555 1_555
H10 C13 1_555 1_555
H11 C13 1_555 1_555
Mn1B N12 1_555 1_555
Mn1B_2 N8 1_555 1_555
Mn2B O1 1_555 1_555
Mn3B O5 1_555 1_555
Mn3B_2 N11 1_555 1_555
O1B Mn2 1_555 1_555
N8B Mn1 1_555 1_555
O5B Mn3 1_555 1_555
N11B Mn3 1_555 1_555
N12B Mn1 1_555 1_555
Mn3 N6 1_555 1_555
Mn3 N11 1_555 1_555
N7 C4 1_555 1_555
C7 C10 1_555 1_555
C8 C11 1_555 1_555
C9 C12 1_555 1_555
Mn1B N11B 1_555 1_555
Mn1B_2 N8B 1_555 1_555
Mn2B O1B 1_555 1_555
Mn3B_2 N11B 1_555 1_555
Mn3B_2 N12B 1_555 1_555

#END
