
#######################################################################
#
#                 Cambridge Crystallographic Data Centre
#                                CCDC 
#
#######################################################################
#
# If this CIF has been generated from an entry in the Cambridge 
# Structural Database, then it will include bibliographic, chemical, 
# crystal, experimental, refinement or atomic coordinate data resulting 
# from the CCDC's data processing and validation procedures.
#
#######################################################################

data_TOFTUF01
_symmetry_cell_setting           monoclinic
_symmetry_space_group_name_H-M   'P 21/c'
_symmetry_Int_Tables_number      14
_space_group_name_Hall           '-P 2ybc'
loop_
_symmetry_equiv_pos_site_id
_symmetry_equiv_pos_as_xyz
1 x,y,z
2 -x,1/2+y,1/2-z
3 -x,-y,-z
4 x,1/2-y,1/2+z
_cell_length_a                   9.2296(16)
_cell_length_b                   10.4754(18)
_cell_length_c                   12.200(2)
_cell_angle_alpha                90
_cell_angle_beta                 102.392(2)
_cell_angle_gamma                90
_cell_volume                     1152.06
loop_
_atom_site_label
_atom_site_type_symbol
_atom_site_fract_x
_atom_site_fract_y
_atom_site_fract_z
Cu1 Cu 0.48187(5) 1.03746(5) 0.37690(4)
C1 C 0.2354(4) 1.0837(4) 0.4934(3)
C2 C 0.1801(4) 1.0923(4) 0.5907(3)
H1 H 0.2370 1.0629 0.6583
C3 C 0.0423(5) 1.1436(4) 0.5880(4)
H2 H 0.0071 1.1465 0.6539
C4 C -0.0462(5) 1.1913(4) 0.4897(4)
H3 H -0.1380 1.2279 0.4896
C5 C 0.0060(4) 1.1825(4) 0.3927(4)
H4 H -0.0529 1.2120 0.3259
C6 C 0.1467(4) 1.1300(4) 0.3915(3)
C7 C 0.1872(4) 1.1248(4) 0.2851(3)
H5 H 0.1131 1.1462 0.2233
C8 C 0.3239(4) 1.0917(4) 0.1475(3)
N1 N 0.3143(4) 1.0938(3) 0.2636(3)
O1 O 0.3701(3) 1.0310(3) 0.4965(2)
O2 O 0.6178(3) 1.1482(3) 0.3108(2)
S1 S 0.58422(11) 1.23093(9) 0.20930(8)
C9 C 0.2172(5) 1.0284(4) 0.0692(4)
H6 H 0.1411 0.9849 0.0923
C10 C 0.2231(5) 1.0296(4) -0.0438(3)
H7 H 0.1500 0.9887 -0.0964
C11 C 0.3369(5) 1.0913(4) -0.0772(3)
H8 H 0.3401 1.0924 -0.1529
C12 C 0.4472(5) 1.1521(4) -0.0003(3)
H9 H 0.5240 1.1936 -0.0242
C13 C 0.4428(4) 1.1508(4) 0.1123(3)
O3 O 0.5197(3) 1.3524(3) 0.2318(2)
O4 O 0.7099(3) 1.2446(3) 0.1593(3)
Cu1A Cu 0.51813(5) 1.53746(5) 0.12310(4)
Cu1B Cu 0.51813(5) 0.96254(5) 0.62310(4)
O1B O 0.6299(3) 0.9690(3) 0.5035(2)
O3A O 0.4803(3) 0.8524(3) 0.2682(2)
loop_
_geom_bond_atom_site_label_1
_geom_bond_atom_site_label_2
_geom_bond_site_symmetry_1
_geom_bond_site_symmetry_2
Cu1 N1 1_555 1_555
C1 C2 1_555 1_555
C2 H1 1_555 1_555
C3 C2 1_555 1_555
H2 C3 1_555 1_555
C4 C3 1_555 1_555
H3 C4 1_555 1_555
C5 C4 1_555 1_555
H4 C5 1_555 1_555
C6 C1 1_555 1_555
C7 C6 1_555 1_555
H5 C7 1_555 1_555
C8 N1 1_555 1_555
N1 C7 1_555 1_555
O1 Cu1 1_555 1_555
O2 Cu1 1_555 1_555
S1 O2 1_555 1_555
C9 C8 1_555 1_555
H6 C9 1_555 1_555
C10 C9 1_555 1_555
H7 C10 1_555 1_555
C11 C10 1_555 1_555
H8 C11 1_555 1_555
C12 C11 1_555 1_555
H9 C12 1_555 1_555
C13 C8 1_555 1_555
O3 S1 1_555 1_555
O4 S1 1_555 1_555
Cu1A O3 1_555 1_555
Cu1B O1 1_555 1_555
O1B Cu1 1_555 1_555
O3A Cu1 1_555 1_555
C1 O1 1_555 1_555
C5 C6 1_555 1_555
S1 C13 1_555 1_555
C12 C13 1_555 1_555
Cu1B O1B 1_555 1_555

#END
