
#######################################################################
#
#                 Cambridge Crystallographic Data Centre
#                                CCDC 
#
#######################################################################
#
# If this CIF has been generated from an entry in the Cambridge 
# Structural Database, then it will include bibliographic, chemical, 
# crystal, experimental, refinement or atomic coordinate data resulting 
# from the CCDC's data processing and validation procedures.
#
#######################################################################

data_TOFVAN
_symmetry_cell_setting           monoclinic
_symmetry_space_group_name_H-M   'C 2/c'
_symmetry_Int_Tables_number      15
_space_group_name_Hall           '-C 2yn'
loop_
_symmetry_equiv_pos_site_id
_symmetry_equiv_pos_as_xyz
1 x,y,z
2 -x,y,1/2-z
3 1/2+x,1/2+y,z
4 1/2-x,1/2+y,1/2-z
5 -x,-y,-z
6 x,-y,1/2+z
7 1/2-x,1/2-y,-z
8 1/2+x,1/2-y,1/2+z
_cell_length_a                   26.7568(10)
_cell_length_b                   11.8511(4)
_cell_length_c                   14.5953(6)
_cell_angle_alpha                90
_cell_angle_beta                 120.085(2)
_cell_angle_gamma                90
_cell_volume                     4004.64
loop_
_atom_site_label
_atom_site_type_symbol
_atom_site_fract_x
_atom_site_fract_y
_atom_site_fract_z
C1 C 0.13998(12) 0.8586(2) 0.1687(2)
C2 C 0.09187(14) 0.9190(3) 0.0956(3)
H1 H 0.0600 0.8814 0.0424
C3 C 0.09161(16) 1.0345(3) 0.1025(3)
H2 H 0.0593 1.0753 0.0545
C4 C 0.13929(17) 1.0902(3) 0.1805(3)
H3 H 0.1391 1.1685 0.1841
C5 C 0.18745(13) 1.0307(2) 0.2533(2)
H4 H 0.2192 1.0688 0.3062
C6 C 0.18814(11) 0.9135(2) 0.2469(2)
C7 C 0.28803(11) 0.8915(2) 0.3472(2)
H5 H 0.2884 0.9531 0.3081
C8 C 0.34263(11) 0.8514(2) 0.4277(2)
C9 C 0.39260(14) 0.8943(3) 0.4308(3)
H6 H 0.3886 0.9464 0.3800
C10 C 0.44625(15) 0.8616(3) 0.5059(3)
H7 H 0.4787 0.8876 0.5047
C11 C 0.45185(15) 0.7880(3) 0.5851(3)
H8 H 0.4885 0.7674 0.6386
C12 C 0.40482(13) 0.7461(3) 0.5855(3)
H9 H 0.4099 0.6967 0.6391
C13 C 0.34909(11) 0.7752(2) 0.5077(2)
C14 C 0.19155(13) 0.4774(2) 0.4050(2)
H10 H 0.1554 0.5115 0.3698
C15 C 0.19498(14) 0.3655(2) 0.4339(3)
H11 H 0.1616 0.3269 0.4198
C16 C 0.24744(14) 0.31032(19) 0.4833(2)
C17 C 0.29526(14) 0.3741(2) 0.5034(3)
H12 H 0.3317 0.3411 0.5363
C18 C 0.28900(13) 0.4860(2) 0.4748(3)
H13 H 0.3220 0.5271 0.4906
N1 N 0.23764(9) 0.85085(16) 0.32246(16)
N2 N 0.23798(10) 0.53892(17) 0.42559(19)
O1 O 0.30398(8) 0.73172(15) 0.50964(14)
O2 O 0.15448(9) 0.67118(17) 0.26537(16)
O3 O 0.08162(10) 0.6763(2) 0.0829(2)
O4 O 0.18299(11) 0.67886(18) 0.1337(2)
S1 S 0.13908(3) 0.70926(5) 0.15804(6)
Cu1 Cu 0.23112(2) 0.70467(2) 0.38512(2)
C14F C 0.30845(13) 0.0226(2) 0.5950(2)
H10F H 0.3446 -0.0115 0.6302
C15F C 0.30502(14) 0.1345(2) 0.5661(3)
H11F H 0.3384 0.1731 0.5802
C16F C 0.25256(14) 0.18968(19) 0.5167(2)
C17F C 0.20474(14) 0.1259(2) 0.4966(3)
H12F H 0.1683 0.1589 0.4637
C18F C 0.21100(13) 0.0140(2) 0.5252(3)
H13F H 0.1780 -0.0271 0.5094
N2F N 0.26202(10) -0.03892(17) 0.57441(19)
C1F C 0.36002(12) -0.3586(2) 0.8313(2)
C2F C 0.40813(14) -0.4190(3) 0.9044(3)
H1F H 0.4400 -0.3814 0.9576
C3F C 0.40839(16) -0.5345(3) 0.8975(3)
H2F H 0.4407 -0.5753 0.9455
C4F C 0.36071(17) -0.5902(3) 0.8195(3)
H3F H 0.3609 -0.6685 0.8159
C5F C 0.31255(13) -0.5307(2) 0.7467(2)
H4F H 0.2808 -0.5688 0.6938
C6F C 0.31186(11) -0.4135(2) 0.7531(2)
C7F C 0.21197(11) -0.3915(2) 0.6528(2)
H5F H 0.2116 -0.4531 0.6919
C8F C 0.15737(11) -0.3514(2) 0.5723(2)
C9F C 0.10740(14) -0.3943(3) 0.5692(3)
H6F H 0.1114 -0.4464 0.6200
C10F C 0.05375(15) -0.3616(3) 0.4941(3)
H7F H 0.0213 -0.3876 0.4953
C11F C 0.04815(15) -0.2880(3) 0.4149(3)
H8F H 0.0115 -0.2674 0.3614
C12F C 0.09518(13) -0.2461(3) 0.4145(3)
H9F H 0.0901 -0.1967 0.3609
C13F C 0.15091(11) -0.2752(2) 0.4923(2)
N1F N 0.26236(9) -0.35085(16) 0.67754(16)
O1F O 0.19602(8) -0.23172(15) 0.49036(14)
O2F O 0.34552(9) -0.17118(17) 0.73463(16)
O3F O 0.41838(10) -0.1763(2) 0.9171(2)
O4F O 0.31701(11) -0.17886(18) 0.8663(2)
S1F S 0.36092(3) -0.20926(5) 0.84196(6)
Cu1F Cu 0.26888(2) -0.20467(2) 0.61488(2)
O1_2 O 0.30398(8) -0.26828(15) 0.50964(14)
O1F_2 O 0.19602(8) 0.76828(15) 0.49036(14)
Cu1_2 Cu 0.23112(2) -0.29533(2) 0.38512(2)
Cu1F_2 Cu 0.26888(2) 0.79533(2) 0.61488(2)
loop_
_geom_bond_atom_site_label_1
_geom_bond_atom_site_label_2
_geom_bond_site_symmetry_1
_geom_bond_site_symmetry_2
C1 C2 1_555 1_555
C2 H1 1_555 1_555
C3 C2 1_555 1_555
H2 C3 1_555 1_555
C4 C3 1_555 1_555
H3 C4 1_555 1_555
C5 C4 1_555 1_555
H4 C5 1_555 1_555
C6 C1 1_555 1_555
C7 H5 1_555 1_555
C8 C7 1_555 1_555
C9 C8 1_555 1_555
H6 C9 1_555 1_555
C10 C9 1_555 1_555
H7 C10 1_555 1_555
C11 C10 1_555 1_555
H8 C11 1_555 1_555
C12 C11 1_555 1_555
H9 C12 1_555 1_555
C13 C8 1_555 1_555
C14 H10 1_555 1_555
C15 C14 1_555 1_555
H11 C15 1_555 1_555
C16 C15 1_555 1_555
C17 C16 1_555 1_555
H12 C17 1_555 1_555
C18 C17 1_555 1_555
H13 C18 1_555 1_555
N1 C6 1_555 1_555
N2 C14 1_555 1_555
O1 C13 1_555 1_555
O2 S1 1_555 1_555
O3 S1 1_555 1_555
O4 S1 1_555 1_555
S1 C1 1_555 1_555
Cu1 N1 1_555 1_555
C14F H10F 1_555 1_555
C15F C14F 1_555 1_555
H11F C15F 1_555 1_555
C16F C16 1_555 1_555
C17F C16F 1_555 1_555
H12F C17F 1_555 1_555
C18F C17F 1_555 1_555
H13F C18F 1_555 1_555
N2F C14F 1_555 1_555
C1F C2F 1_555 1_555
C2F H1F 1_555 1_555
C3F C2F 1_555 1_555
H2F C3F 1_555 1_555
C4F C3F 1_555 1_555
H3F C4F 1_555 1_555
C5F C4F 1_555 1_555
H4F C5F 1_555 1_555
C6F C1F 1_555 1_555
C7F H5F 1_555 1_555
C8F C7F 1_555 1_555
C9F C8F 1_555 1_555
H6F C9F 1_555 1_555
C10F C9F 1_555 1_555
H7F C10F 1_555 1_555
C11F C10F 1_555 1_555
H8F C11F 1_555 1_555
C12F C11F 1_555 1_555
H9F C12F 1_555 1_555
C13F C8F 1_555 1_555
N1F C6F 1_555 1_555
O1F C13F 1_555 1_555
O2F S1F 1_555 1_555
O3F S1F 1_555 1_555
O4F S1F 1_555 1_555
S1F C1F 1_555 1_555
Cu1F N2F 1_555 1_555
O1_2 Cu1F 1_555 1_555
O1F_2 Cu1 1_555 1_555
Cu1_2 O1F 1_555 1_555
Cu1F_2 O1 1_555 1_555
C5 C6 1_555 1_555
C7 N1 1_555 1_555
C12 C13 1_555 1_555
C18 N2 1_555 1_555
N2 Cu1 1_555 1_555
O1 Cu1 1_555 1_555
O2 Cu1 1_555 1_555
C15F C16F 1_555 1_555
C18F N2F 1_555 1_555
C5F C6F 1_555 1_555
C7F N1F 1_555 1_555
C12F C13F 1_555 1_555
N1F Cu1F 1_555 1_555
O1F Cu1F 1_555 1_555
O2F Cu1F 1_555 1_555
O1_2 Cu1_2 1_555 1_555
O1F_2 Cu1F_2 1_555 1_555

#END
