
#######################################################################
#
#                 Cambridge Crystallographic Data Centre
#                                CCDC 
#
#######################################################################
#
# If this CIF has been generated from an entry in the Cambridge 
# Structural Database, then it will include bibliographic, chemical, 
# crystal, experimental, refinement or atomic coordinate data resulting 
# from the CCDC's data processing and validation procedures.
#
#######################################################################

data_TOFVER
_symmetry_cell_setting           triclinic
_symmetry_space_group_name_H-M   'P -1'
_symmetry_Int_Tables_number      2
_space_group_name_Hall           '-P 1'
loop_
_symmetry_equiv_pos_site_id
_symmetry_equiv_pos_as_xyz
1 x,y,z
2 -x,-y,-z
_cell_length_a                   9.1553(5)
_cell_length_b                   9.3047(5)
_cell_length_c                   11.9765(7)
_cell_angle_alpha                95.3840(10)
_cell_angle_beta                 111.2200(10)
_cell_angle_gamma                104.6500(10)
_cell_volume                     900.504
loop_
_atom_site_label
_atom_site_type_symbol
_atom_site_fract_x
_atom_site_fract_y
_atom_site_fract_z
Cd1 Cd 0.919396(18) 0.486216(17) 0.320594(13)
S1 S 1.40702(7) 0.32875(6) 0.42725(5)
O1 O 1.6694(2) 0.3717(2) 0.32911(16)
N1 N 0.8132(2) 0.5310(2) 0.11980(16)
C1 C 0.7491(2) 0.7324(2) 0.21471(19)
O2 O 1.8703(2) 0.3622(2) 0.49345(16)
N2 N 0.8387(2) 0.7081(2) 0.32514(16)
C2 C 0.8546(3) 0.7968(3) 0.4248(2)
H1 H 0.9142 0.7793 0.5008
O3 O 1.1162(2) 0.38706(19) 0.31461(16)
C3 C 0.7859(3) 0.9153(3) 0.4211(2)
H2 H 0.8019 0.9764 0.4932
O4 O 0.8798(2) 0.2175(2) 0.1985(2)
C4 C 0.6954(3) 0.9404(3) 0.3108(2)
H3 H 0.6485 1.0185 0.3068
N3 N 1.3606(3) 0.0586(2) 0.3019(2)
C5 C 0.6734(3) 0.8471(3) 0.2031(2)
C6 C 0.5787(3) 0.8648(3) 0.0836(2)
H4 H 0.5247 0.9380 0.0761
C7 C 0.5656(3) 0.7784(3) -0.0181(2)
H5 H 0.5029 0.7924 -0.0946
C8 C 0.6474(3) 0.6648(3) -0.0098(2)
C9 C 0.6459(3) 0.5775(3) -0.1131(2)
H6 H 0.5893 0.5914 -0.1911
C10 C 0.7276(4) 0.4733(3) -0.0978(2)
H7 H 0.7306 0.4173 -0.1650
C11 C 0.8078(3) 0.4507(3) 0.0204(2)
H8 H 0.8595 0.3759 0.0293
C12 C 0.7367(3) 0.6395(2) 0.10619(19)
C13 C 1.0318(3) 0.2562(3) 0.2507(2)
C14 C 1.1202(3) 0.1429(2) 0.2401(2)
C15 C 1.0320(3) 0.0082(3) 0.1542(2)
H9 H 0.9214 -0.0097 0.1049
C16 C 1.1080(3) -0.0992(3) 0.1418(3)
H10 H 1.0506 -0.1894 0.0839
C17 C 1.2701(3) -0.0689(3) 0.2171(3)
H11 H 1.3210 -0.1416 0.2088
C18 C 1.2872(3) 0.1632(2) 0.3131(2)
C19 C 1.6028(3) 0.2946(3) 0.4948(2)
H12 H 1.6558 0.3460 0.5801
H13 H 1.5827 0.1866 0.4924
C20 C 1.7200(3) 0.3459(2) 0.4340(2)
Cd1_2 Cd 1.919396(18) 0.486216(17) 0.320594(13)
Cd1A Cd 2.080604(18) 0.513784(17) 0.679406(13)
O1_2 O 0.6694(2) 0.3717(2) 0.32911(16)
O2_2 O 0.8703(2) 0.3622(2) 0.49345(16)
O2A O 1.1297(2) 0.6378(2) 0.50655(16)
loop_
_geom_bond_atom_site_label_1
_geom_bond_atom_site_label_2
_geom_bond_site_symmetry_1
_geom_bond_site_symmetry_2
Cd1 N1 1_555 1_555
S1 C18 1_555 1_555
O1 C20 1_555 1_555
N1 C11 1_555 1_555
C1 N2 1_555 1_555
O2 C20 1_555 1_555
N2 Cd1 1_555 1_555
C2 N2 1_555 1_555
H1 C2 1_555 1_555
O3 Cd1 1_555 1_555
C3 C2 1_555 1_555
H2 C3 1_555 1_555
O4 Cd1 1_555 1_555
C4 C3 1_555 1_555
H3 C4 1_555 1_555
N3 C17 1_555 1_555
C5 C1 1_555 1_555
C6 C5 1_555 1_555
H4 C6 1_555 1_555
C7 C6 1_555 1_555
H5 C7 1_555 1_555
C8 C7 1_555 1_555
C9 C8 1_555 1_555
H6 C9 1_555 1_555
C10 C9 1_555 1_555
H7 C10 1_555 1_555
C11 C10 1_555 1_555
H8 C11 1_555 1_555
C12 N1 1_555 1_555
C13 O3 1_555 1_555
C14 C13 1_555 1_555
C15 C14 1_555 1_555
H9 C15 1_555 1_555
C16 C15 1_555 1_555
H10 C16 1_555 1_555
C17 C16 1_555 1_555
H11 C17 1_555 1_555
C18 N3 1_555 1_555
C19 S1 1_555 1_555
H12 C19 1_555 1_555
H13 C19 1_555 1_555
C20 C19 1_555 1_555
Cd1_2 O1 1_555 1_555
Cd1A O2 1_555 1_555
O1_2 Cd1 1_555 1_555
O2_2 Cd1 1_555 1_555
O2A Cd1 1_555 1_555
C1 C12 1_555 1_555
O2 Cd1_2 1_555 1_555
O4 C13 1_555 1_555
C4 C5 1_555 1_555
C8 C12 1_555 1_555
C14 C18 1_555 1_555

#END
