
#######################################################################
#
#                 Cambridge Crystallographic Data Centre
#                                CCDC 
#
#######################################################################
#
# If this CIF has been generated from an entry in the Cambridge 
# Structural Database, then it will include bibliographic, chemical, 
# crystal, experimental, refinement or atomic coordinate data resulting 
# from the CCDC's data processing and validation procedures.
#
#######################################################################

data_TOFWAO
_symmetry_cell_setting           monoclinic
_symmetry_space_group_name_H-M   'P 21/n'
_symmetry_Int_Tables_number      14
_space_group_name_Hall           '-P 2yn'
loop_
_symmetry_equiv_pos_site_id
_symmetry_equiv_pos_as_xyz
1 x,y,z
2 1/2-x,1/2+y,1/2-z
3 -x,-y,-z
4 1/2+x,1/2-y,1/2+z
_cell_length_a                   10.2673(14)
_cell_length_b                   19.738(4)
_cell_length_c                   25.678(4)
_cell_angle_alpha                90
_cell_angle_beta                 95.643(5)
_cell_angle_gamma                90
_cell_volume                     5178.58
loop_
_atom_site_label
_atom_site_type_symbol
_atom_site_fract_x
_atom_site_fract_y
_atom_site_fract_z
C1 C 0.9905(12) 0.1840(5) 0.4249(5)
C2 C 0.9320(11) 0.2456(7) 0.4106(4)
C3 C 0.9385(14) 0.2991(5) 0.4460(6)
H1 H 0.8985 0.3412 0.4362
C4 C 1.0035(15) 0.2909(8) 0.4957(5)
C5 C 1.0620(12) 0.2293(10) 0.5100(4)
H2 H 1.1064 0.2237 0.5439
C6 C 1.0555(11) 0.1758(7) 0.4746(6)
Re1 Re 1.13989(8) 0.11173(4) 0.33239(3)
Cl1 Cl 1.1839(4) 0.0079(3) 0.38523(19)
S1 S 0.8490(7) -0.0404(4) 0.0793(2)
S2 S 1.0213(7) 0.3563(3) 0.5417(2)
O1 O 1.3684(16) 0.1864(9) 0.3914(7)
O2 O 0.8893(18) -0.1092(9) 0.0756(6)
O3 O 0.7100(17) -0.0304(10) 0.0652(6)
O4 O 1.3266(17) 0.0673(9) 0.2513(7)
O5 O 0.9217(16) 0.3446(8) 0.5749(8)
O6 O 1.1557(17) 0.3500(8) 0.5677(6)
N1 N 0.9913(17) 0.1311(8) 0.3864(6)
O7 O 1.0023(14) 0.4191(7) 0.5130(5)
C7 C 1.282(3) 0.1555(13) 0.3690(9)
N2 N 0.9664(15) 0.0568(7) 0.2994(6)
C8 C 0.9375(17) 0.0306(10) 0.2461(8)
O8 O 1.1101(18) 0.2436(10) 0.2684(7)
C9 C 0.8663(19) 0.0739(11) 0.2107(8)
C10 C 0.811(3) 0.1417(12) 0.2240(9)
H3 H 0.8502 0.1538 0.26
C11 C 0.668(3) 0.1422(13) 0.2251(9)
H4 H 0.6259 0.1292 0.1906
H5 H 0.6393 0.1878 0.2338
H6 H 0.6433 0.11 0.2514
C12 C 0.856(3) 0.1977(11) 0.1856(9)
H7 H 0.8035 0.1939 0.1517
H8 H 0.9484 0.1914 0.1809
H9 H 0.8427 0.2427 0.2005
C13 C 0.839(2) 0.0504(12) 0.1602(9)
H10 H 0.7899 0.0781 0.1352
C14 C 0.882(2) -0.0131(13) 0.1449(7)
O9 O 0.924(2) 0.0010(11) 0.0524(7)
C15 C 0.9537(18) -0.0538(11) 0.1814(8)
H11 H 0.9819 -0.0973 0.1713
C16 C 0.9844(17) -0.0315(9) 0.2327(8)
C17 C 1.060(2) -0.0789(10) 0.2708(7)
H12 H 1.08 -0.0535 0.3043
C18 C 1.188(2) -0.1033(12) 0.2538(10)
H13 H 1.1713 -0.1335 0.2236
H14 H 1.2366 -0.1279 0.2826
H15 H 1.2397 -0.0643 0.2441
C19 C 0.976(2) -0.1403(12) 0.2827(9)
H16 H 0.8979 -0.1248 0.2982
H17 H 1.0272 -0.1703 0.3073
H18 H 0.9502 -0.1649 0.2502
C20 C 0.880(2) 0.0487(10) 0.3316(9)
C21 C 0.756(2) 0.0139(11) 0.3287(10)
C22 C 0.685(3) -0.0303(12) 0.2956(8)
H19 H 0.7191 -0.0456 0.2647
C23 C 0.562(2) -0.0528(11) 0.3074(11)
H20 H 0.5138 -0.0825 0.2834
C24 C 0.508(2) -0.0343(13) 0.3507(13)
H21 H 0.4251 -0.052 0.3574
C25 C 0.574(3) 0.0112(12) 0.3864(10)
C26 C 0.698(2) 0.0348(11) 0.3749(10)
C27 C 0.777(3) 0.0807(12) 0.4061(10)
C28 C 0.728(2) 0.1044(10) 0.4511(10)
H22 H 0.7763 0.1358 0.4735
C29 C 0.603(3) 0.0796(13) 0.4625(8)
H23 H 0.5699 0.0952 0.4937
C30 C 0.529(2) 0.0366(12) 0.4327(11)
H24 H 0.4458 0.023 0.4426
C31 C 0.893(2) 0.0905(10) 0.3801(8)
C32 C 0.853(2) 0.2558(11) 0.3564(7)
H25 H 0.8793 0.2194 0.3325
C33 C 0.884(2) 0.3254(11) 0.3319(8)
H26 H 0.8436 0.3617 0.3509
H27 H 0.848 0.3262 0.2951
H28 H 0.9785 0.332 0.3344
C34 C 0.707(2) 0.2490(11) 0.3598(9)
H29 H 0.6791 0.2819 0.385
H30 H 0.6873 0.203 0.3713
H31 H 0.66 0.2575 0.3253
C35 C 1.114(2) 0.1943(15) 0.2928(10)
C36 C 1.262(2) 0.0835(11) 0.2809(10)
Na1 Na 0.9916(12) -0.0945(6) -0.0112(4)
C37 C 1.045(2) 0.0777(11) 0.5378(9)
H32 H 1.0816 0.0329 0.547
H33 H 0.9512 0.0734 0.527
H34 H 1.0582 0.1077 0.5683
C38 C 1.114(2) 0.1074(12) 0.4930(8)
H35 H 1.1016 0.0752 0.4628
C39 C 1.256(3) 0.1109(13) 0.5105(9)
H36 H 1.2708 0.1428 0.5397
H37 H 1.3039 0.1263 0.4814
H38 H 1.2877 0.0659 0.5219
Na2 Na 0.6559(9) 0.0102(4) -0.0230(3)
O10 O 0.5289(17) 0.0347(8) -0.1010(6)
C40 C 0.522(3) 0.0070(13) -0.1504(11)
H39 H 0.4555 0.031 -0.1734
H40 H 0.4982 -0.041 -0.1487
H41 H 0.6071 0.0112 -0.1643
O11 O 0.7941(18) -0.0732(10) -0.0659(7)
C41 C 0.819(3) -0.073(2) -0.1223(15)
H42 H 0.7535 -0.0441 -0.142
H43 H 0.8123 -0.1191 -0.1361
H44 H 0.9065 -0.0549 -0.1257
O12 O 1.2038(19) -0.1049(13) 0.0363(12)
C42 C 1.221(3) -0.1504(18) 0.0812(13)
H45 H 1.1383 -0.1738 0.0852
H46 H 1.2474 -0.1243 0.1129
H47 H 1.2887 -0.1839 0.0756
O7A O 0.4977(14) -0.0809(7) -0.0130(5)
O7C O 0.5023(14) 0.0809(7) 0.0130(5)
O9B O 1.076(2) -0.0010(11) -0.0524(7)
Na1B Na 1.0084(12) 0.0945(6) 0.0112(4)
Na2A Na 0.8441(9) 0.5102(4) 0.5230(3)
Na2B Na 1.3441(9) -0.0102(4) 0.0230(3)
Na2C Na 1.1559(9) 0.4898(4) 0.4770(3)
O12B O 0.7962(19) 0.1049(13) -0.0363(12)
loop_
_geom_bond_atom_site_label_1
_geom_bond_atom_site_label_2
_geom_bond_site_symmetry_1
_geom_bond_site_symmetry_2
C1 C2 1_555 1_555
C2 C3 1_555 1_555
C3 H1 1_555 1_555
C4 C3 1_555 1_555
C5 C4 1_555 1_555
H2 C5 1_555 1_555
C6 C1 1_555 1_555
Re1 Cl1 1_555 1_555
S1 O2 1_555 1_555
S2 C4 1_555 1_555
O1 C7 1_555 1_555
O2 Na1 1_555 1_555
O3 S1 1_555 1_555
O4 C36 1_555 1_555
O5 S2 1_555 1_555
O6 S2 1_555 1_555
N1 C1 1_555 1_555
O7 S2 1_555 1_555
C7 Re1 1_555 1_555
N2 Re1 1_555 1_555
C8 N2 1_555 1_555
O8 C35 1_555 1_555
C9 C8 1_555 1_555
C10 C9 1_555 1_555
H3 C10 1_555 1_555
C11 C10 1_555 1_555
H4 C11 1_555 1_555
H5 C11 1_555 1_555
H6 C11 1_555 1_555
C12 C10 1_555 1_555
H7 C12 1_555 1_555
H8 C12 1_555 1_555
H9 C12 1_555 1_555
C13 C9 1_555 1_555
H10 C13 1_555 1_555
C14 S1 1_555 1_555
O9 S1 1_555 1_555
C15 C14 1_555 1_555
H11 C15 1_555 1_555
C16 C8 1_555 1_555
C17 C16 1_555 1_555
H12 C17 1_555 1_555
C18 C17 1_555 1_555
H13 C18 1_555 1_555
H14 C18 1_555 1_555
H15 C18 1_555 1_555
C19 C17 1_555 1_555
H16 C19 1_555 1_555
H17 C19 1_555 1_555
H18 C19 1_555 1_555
C20 N2 1_555 1_555
C21 C20 1_555 1_555
C22 C21 1_555 1_555
H19 C22 1_555 1_555
C23 C22 1_555 1_555
H20 C23 1_555 1_555
C24 C23 1_555 1_555
H21 C24 1_555 1_555
C25 C24 1_555 1_555
C26 C21 1_555 1_555
C27 C26 1_555 1_555
C28 C27 1_555 1_555
H22 C28 1_555 1_555
C29 C28 1_555 1_555
H23 C29 1_555 1_555
C30 C25 1_555 1_555
H24 C30 1_555 1_555
C31 N1 1_555 1_555
C32 C2 1_555 1_555
H25 C32 1_555 1_555
C33 C32 1_555 1_555
H26 C33 1_555 1_555
H27 C33 1_555 1_555
H28 C33 1_555 1_555
C34 C32 1_555 1_555
H29 C34 1_555 1_555
H30 C34 1_555 1_555
H31 C34 1_555 1_555
C35 Re1 1_555 1_555
C36 Re1 1_555 1_555
Na1 O9 1_555 1_555
C37 H32 1_555 1_555
H33 C37 1_555 1_555
H34 C37 1_555 1_555
C38 C6 1_555 1_555
H35 C38 1_555 1_555
C39 C38 1_555 1_555
H36 C39 1_555 1_555
H37 C39 1_555 1_555
H38 C39 1_555 1_555
Na2 O3 1_555 1_555
O10 Na2 1_555 1_555
C40 O10 1_555 1_555
H39 C40 1_555 1_555
H40 C40 1_555 1_555
H41 C40 1_555 1_555
O11 Na1 1_555 1_555
C41 O11 1_555 1_555
H42 C41 1_555 1_555
H43 C41 1_555 1_555
H44 C41 1_555 1_555
O12 Na1 1_555 1_555
C42 O12 1_555 1_555
H45 C42 1_555 1_555
H46 C42 1_555 1_555
H47 C42 1_555 1_555
O7A Na2 1_555 1_555
O7C Na2 1_555 1_555
O9B Na1 1_555 1_555
Na1B O9 1_555 1_555
Na2A O7 1_555 1_555
Na2B O12 1_555 1_555
Na2C O7 1_555 1_555
O12B Na2 1_555 1_555
C5 C6 1_555 1_555
Re1 N1 1_555 1_555
C13 C14 1_555 1_555
C15 C16 1_555 1_555
C20 C31 1_555 1_555
C25 C26 1_555 1_555
C27 C31 1_555 1_555
C29 C30 1_555 1_555
C37 C38 1_555 1_555
Na2 O11 1_555 1_555
O9B Na1B 1_555 1_555
Na1B O12B 1_555 1_555

#END
