
#######################################################################
#
#                 Cambridge Crystallographic Data Centre
#                                CCDC 
#
#######################################################################
#
# If this CIF has been generated from an entry in the Cambridge 
# Structural Database, then it will include bibliographic, chemical, 
# crystal, experimental, refinement or atomic coordinate data resulting 
# from the CCDC's data processing and validation procedures.
#
#######################################################################

data_TOGCUN
_symmetry_cell_setting           rhombohedral
_symmetry_space_group_name_H-M   'R -3'
_symmetry_Int_Tables_number      148
_space_group_name_Hall           '-R 3'
loop_
_symmetry_equiv_pos_site_id
_symmetry_equiv_pos_as_xyz
1 x,y,z
2 -y,x-y,z
3 -x+y,-x,z
4 1/3+x,2/3+y,2/3+z
5 1/3-y,2/3+x-y,2/3+z
6 1/3-x+y,2/3-x,2/3+z
7 2/3+x,1/3+y,1/3+z
8 2/3-y,1/3+x-y,1/3+z
9 2/3-x+y,1/3-x,1/3+z
10 -x,-y,-z
11 y,-x+y,-z
12 x-y,x,-z
13 2/3-x,1/3-y,1/3-z
14 2/3+y,1/3-x+y,1/3-z
15 2/3+x-y,1/3+x,1/3-z
16 1/3-x,2/3-y,2/3-z
17 1/3+y,2/3-x+y,2/3-z
18 1/3+x-y,2/3+x,2/3-z
_cell_length_a                   13.7831(7)
_cell_length_b                   13.7831(7)
_cell_length_c                   17.777(2)
_cell_angle_alpha                90
_cell_angle_beta                 90
_cell_angle_gamma                120.00
_cell_volume                     2924.71
loop_
_atom_site_label
_atom_site_type_symbol
_atom_site_fract_x
_atom_site_fract_y
_atom_site_fract_z
Mn1 Mn 0.0000 0.0000 0.0000
N1 N -0.5159(3) -0.2253(3) 0.5931(5)
C1 C -0.4052(4) -0.1903(4) 0.6107(4)
C2 C -0.3404(4) -0.1400(4) 0.5502(6)
N2 N -0.4082(3) -0.1433(3) 0.4944(4)
C3 C -0.5122(4) -0.1951(4) 0.5236(6)
C4 C -0.3785(4) -0.1082(5) 0.4162(6)
C5 C -0.3489(4) -0.1853(5) 0.3718(6)
H1 H 0.2000(4) -0.1796(4) 0.6569(4)
H2 H 0.1088(4) -0.1542(4) 0.5475(6)
H3 H -0.5753(4) -0.2079(4) 0.4965(6)
H4 H 0.1071(4) -0.3337(5) 0.3918(6)
H5 H 0.0325(4) -0.2824(5) 0.4152(6)
H6 H 0.2607(4) -0.1519(5) 0.3718(6)
H7 H 0.1873(4) -0.0997(5) 0.3964(6)
Mn1C Mn -0.6667 -0.3333 0.6667
C5O C -0.3178(4) -0.1480(5) 0.2949(6)
C4O C -0.2882(4) -0.2251(5) 0.2505(6)
N2O N -0.2585(3) -0.1900(3) 0.1723(4)
C2O C -0.3263(4) -0.1933(4) 0.1165(6)
C1O C -0.2615(4) -0.1430(4) 0.0560(4)
N1O N -0.1508(3) -0.1080(3) 0.0736(5)
N1P N 0.1080(3) -0.0427(4) 0.0736(5)
C1P C 0.1430(4) -0.1184(6) 0.0560(4)
C2P C 0.1933(4) -0.1329(6) 0.1165(6)
N2P N 0.1900(3) -0.0684(4) 0.1723(4)
C3P C 0.1382(4) -0.0162(6) 0.1431(6)
H3P H 0.1254(4) 0.0341(6) 0.1702(6)
C4P C 0.2251(5) -0.0630(6) 0.2505(6)
C5P C 0.1480(5) -0.1697(6) 0.2949(6)
C5A C 0.1853(5) -0.1636(6) 0.3718(6)
C4A C 0.1082(5) -0.2703(6) 0.4162(6)
N2A N 0.1433(3) -0.2649(4) 0.4944(4)
C2A C 0.1400(4) -0.2004(6) 0.5502(6)
C1A C 0.1903(4) -0.2149(6) 0.6107(4)
N1A N 0.2253(3) -0.2906(4) 0.5931(5)
Mn1C_2 Mn 0.3333 -0.3333 0.6667
C3A C 0.1951(4) -0.3171(6) 0.5236(6)
H3A H 0.2079(4) -0.3674(6) 0.4965(6)
H6O H 0.0726(4) -0.1814(5) 0.2949(6)
H7O H 0.1460(4) -0.2336(5) 0.2703(6)
H4O H 0.2262(4) 0.0004(5) 0.2749(6)
H5O H 0.3008(4) -0.0509(5) 0.2515(6)
H2O H 0.2245(4) -0.1791(4) 0.1192(6)
H1O H 0.1333(4) -0.1537(4) 0.0098(4)
N1Q N 0.0427(4) 0.1508(3) 0.0736(5)
N1F N 0.1508(3) 0.1080(3) -0.0736(5)
N1G N -0.1080(3) 0.0427(4) -0.0736(5)
N1H N -0.0427(4) -0.1508(3) -0.0736(5)
C3O C -0.1545(4) -0.1382(4) 0.1431(6)
H3O H -0.0914(4) -0.1254(4) 0.1702(6)
H1Q H -0.2871(6) -0.1333(4) 0.0098(4)
H2Q H -0.4037(6) -0.2245(4) 0.1192(6)
H4Q H -0.2259(6) -0.2262(4) 0.2749(6)
H5Q H -0.3518(6) -0.3008(4) 0.2515(6)
H6Q H -0.2541(6) -0.0726(4) 0.2949(6)
H7Q H -0.3797(6) -0.1460(4) 0.2703(6)
H6B H -0.4126(6) -0.2607(4) 0.3718(6)
H7B H -0.2870(6) -0.1873(4) 0.3964(6)
H4B H -0.4408(6) -0.1071(4) 0.3918(6)
H5B H -0.3149(6) -0.0325(4) 0.4152(6)
H2B H -0.2630(6) -0.1088(4) 0.5475(6)
H1B H -0.3796(6) -0.2000(4) 0.6569(4)
C1Q C 0.1184(6) 0.2615(4) 0.0560(4)
C3Q C 0.0162(6) 0.1545(4) 0.1431(6)
C2Q C 0.1329(6) 0.3263(4) 0.1165(6)
H1P H 0.1537(4) 0.2871(6) 0.0098(4)
N2Q N 0.0684(4) 0.2585(3) 0.1723(4)
H3Q H -0.0341(6) 0.0914(4) 0.1702(6)
H2P H 0.1791(4) 0.4037(6) 0.1192(6)
C4Q C 0.0630(6) 0.2882(4) 0.2505(6)
C5Q C 0.1697(6) 0.3178(4) 0.2949(6)
H4P H -0.0004(5) 0.2259(6) 0.2749(6)
H5P H 0.0509(5) 0.3518(6) 0.2515(6)
C5B C 0.1636(6) 0.3489(4) 0.3718(6)
H6P H 0.1814(5) 0.2541(6) 0.2949(6)
H7P H 0.2336(5) 0.3797(6) 0.2703(6)
C4B C 0.2703(6) 0.3785(4) 0.4162(6)
H6A H 0.1519(5) 0.4126(6) 0.3718(6)
H7A H 0.0997(5) 0.2870(6) 0.3964(6)
N2B N 0.2649(4) 0.4082(3) 0.4944(4)
H4A H 0.3337(5) 0.4408(6) 0.3918(6)
H5A H 0.2824(5) 0.3149(6) 0.4152(6)
C2B C 0.2004(6) 0.3404(4) 0.5502(6)
C3B C 0.3171(6) 0.5122(4) 0.5236(6)
C1B C 0.2149(6) 0.4052(4) 0.6107(4)
H2A H 0.1542(4) 0.2630(6) 0.5475(6)
N1B N 0.2906(4) 0.5159(3) 0.5931(5)
H3B H 0.3674(6) 0.5753(4) 0.4965(6)
H1A H 0.1796(4) 0.3796(6) 0.6569(4)
Mn1C_3 Mn 0.3333 0.6667 0.6667
F1 F -1.0000 -1.0000 0.2934(19)
F2 F -1.0377(5) -1.1043(4) 0.3751(7)
B1 B -1.0000 -1.0000 0.3634(14)
F2B F -1.0666(6) -0.9623(5) 0.3751(7)
F2A F -0.8957(4) -0.9334(6) 0.3751(7)
loop_
_geom_bond_atom_site_label_1
_geom_bond_atom_site_label_2
_geom_bond_site_symmetry_1
_geom_bond_site_symmetry_2
Mn1 N1O 1_555 1_555
N1 C1 1_555 1_555
C1 C2 1_555 1_555
C2 N2 1_555 1_555
N2 C3 1_555 1_555
C3 N1 1_555 1_555
C4 N2 1_555 1_555
C5 C4 1_555 1_555
F1 B1 1_555 1_555
F2 B1 1_555 1_555
B1 F2B 1_555 1_555
H1 C1A 1_555 1_555
H2 C2A 1_555 1_555
H3 C3 1_555 1_555
H4 C4A 1_555 1_555
H5 C4A 1_555 1_555
H6 C5A 1_555 1_555
H7 C5A 1_555 1_555
Mn1C N1 1_555 1_555
C5O C5 1_555 1_555
C4O C5O 1_555 1_555
N2O C4O 1_555 1_555
C2O N2O 1_555 1_555
C1O C2O 1_555 1_555
N1O C1O 1_555 1_555
N1P Mn1 1_555 1_555
C1P N1P 1_555 1_555
C2P C1P 1_555 1_555
N2P C2P 1_555 1_555
C3P N1P 1_555 1_555
H3P C3P 1_555 1_555
C4P N2P 1_555 1_555
C5P C4P 1_555 1_555
C5A C5P 1_555 1_555
C4A C5A 1_555 1_555
N2A C4A 1_555 1_555
C2A N2A 1_555 1_555
C1A C2A 1_555 1_555
N1A C1A 1_555 1_555
Mn1C_2 N1A 1_555 1_555
C3A N2A 1_555 1_555
H3A C3A 1_555 1_555
H6O C5P 1_555 1_555
H7O C5P 1_555 1_555
H4O C4P 1_555 1_555
H5O C4P 1_555 1_555
H2O C2P 1_555 1_555
H1O C1P 1_555 1_555
N1Q Mn1 1_555 1_555
N1F Mn1 1_555 1_555
N1G Mn1 1_555 1_555
N1H Mn1 1_555 1_555
C3O N2O 1_555 1_555
H3O C3O 1_555 1_555
H1Q C1O 1_555 1_555
H2Q C2O 1_555 1_555
H4Q C4O 1_555 1_555
H5Q C4O 1_555 1_555
H6Q C5O 1_555 1_555
H7Q C5O 1_555 1_555
H6B C5 1_555 1_555
H7B C5 1_555 1_555
H4B C4 1_555 1_555
H5B C4 1_555 1_555
H2B C2 1_555 1_555
H1B C1 1_555 1_555
F2A B1 1_555 1_555
C1Q N1Q 1_555 1_555
C3Q N1Q 1_555 1_555
C2Q C1Q 1_555 1_555
H1P C1Q 1_555 1_555
N2Q C3Q 1_555 1_555
H3Q C3Q 1_555 1_555
H2P C2Q 1_555 1_555
C4Q N2Q 1_555 1_555
C5Q C4Q 1_555 1_555
H4P C4Q 1_555 1_555
H5P C4Q 1_555 1_555
C5B C5Q 1_555 1_555
H6P C5Q 1_555 1_555
H7P C5Q 1_555 1_555
C4B C5B 1_555 1_555
H6A C5B 1_555 1_555
H7A C5B 1_555 1_555
N2B C4B 1_555 1_555
H4A C4B 1_555 1_555
H5A C4B 1_555 1_555
C2B N2B 1_555 1_555
C3B N2B 1_555 1_555
C1B C2B 1_555 1_555
H2A C2B 1_555 1_555
N1B C3B 1_555 1_555
H3B C3B 1_555 1_555
H1A C1B 1_555 1_555
Mn1C_3 N1B 1_555 1_555
N1O C3O 1_555 1_555
N2P C3P 1_555 1_555
N1A C3A 1_555 1_555
C2Q N2Q 1_555 1_555
C1B N1B 1_555 1_555

#END
