
#######################################################################
#
#                 Cambridge Crystallographic Data Centre
#                                CCDC 
#
#######################################################################
#
# If this CIF has been generated from an entry in the Cambridge 
# Structural Database, then it will include bibliographic, chemical, 
# crystal, experimental, refinement or atomic coordinate data resulting 
# from the CCDC's data processing and validation procedures.
#
#######################################################################

data_TOGFUS
_symmetry_cell_setting           triclinic
_symmetry_space_group_name_H-M   'P -1'
_symmetry_Int_Tables_number      2
_space_group_name_Hall           '-P 1'
loop_
_symmetry_equiv_pos_site_id
_symmetry_equiv_pos_as_xyz
1 x,y,z
2 -x,-y,-z
_cell_length_a                   8.702(2)
_cell_length_b                   15.104(4)
_cell_length_c                   15.364(4)
_cell_angle_alpha                92.643(4)
_cell_angle_beta                 97.709(4)
_cell_angle_gamma                94.703(4)
_cell_volume                     1991.04
loop_
_atom_site_label
_atom_site_type_symbol
_atom_site_fract_x
_atom_site_fract_y
_atom_site_fract_z
Mn1 Mn 0.09919(9) 0.18888(5) 0.16475(5)
O1 O 0.3188(4) 0.1407(2) 0.1597(3)
N1 N 0.5307(5) 0.2996(3) 0.2753(3)
C1 C 0.6081(7) 0.2929(4) 0.2058(4)
H1 H 0.6379 0.2376 0.1893
Mn2 Mn 0.46473(9) 0.18533(5) 0.35766(5)
O2 O 0.4917(5) 0.0868(3) 0.2600(3)
N2 N 0.3914(5) 0.3106(3) 0.4196(3)
C2 C 0.6455(9) 0.3652(5) 0.1575(4)
H2 H 0.7019 0.3586 0.1106
O3 O 0.0320(5) 0.0881(3) 0.2470(3)
N3 N 0.1862(5) 0.3169(3) 0.1086(3)
C3 C 0.5981(9) 0.4460(5) 0.1799(4)
H3 H 0.6188 0.4947 0.1470
O4 O 0.2246(4) 0.1402(2) 0.3519(3)
N4 N 0.0472(5) 0.3056(3) 0.2539(3)
C4 C 0.5177(8) 0.4557(4) 0.2529(4)
O5 O 0.0112(4) -0.1129(3) -0.0410(3)
N5 N 0.4948(9) 0.6120(4) 0.2346(5)
C5 C 0.4652(8) 0.5403(4) 0.2820(5)
O6 O 0.1511(5) -0.2043(3) -0.1027(3)
N6 N 0.3323(9) 0.6218(4) 0.3818(5)
C6 C 0.4457(12) 0.6872(5) 0.2640(7)
H4 H 0.4672 0.7389 0.2356
O7 O 0.6604(5) -0.1810(3) 0.1037(3)
H5 H 0.7423 -0.1489 0.1126
N7 N 0.1147(9) 0.6303(4) 0.0995(5)
C7 C 0.3644(12) 0.6921(5) 0.3349(8)
H6 H 0.3302 0.7465 0.3509
N8 N -0.0440(9) 0.6172(4) 0.2473(5)
C8 C 0.3842(8) 0.5443(4) 0.3546(5)
C9 C 0.3580(7) 0.4656(4) 0.4044(4)
O8 O -0.2174(5) -0.1813(3) 0.3708(3)
H7 H -0.2898 -0.1496 0.3659
C10 C 0.2834(9) 0.4661(5) 0.4794(5)
H8 H 0.2460 0.5181 0.4996
O9 O 0.2807(5) -0.2002(3) 0.5792(3)
C11 C 0.2655(9) 0.3898(6) 0.5231(5)
H9 H 0.2178 0.3896 0.5738
O10 O 0.4502(4) -0.1111(3) 0.5262(3)
C12 C 0.3192(7) 0.3134(5) 0.4908(4)
H10 H 0.3044 0.2614 0.5199
C13 C 0.4090(6) 0.3854(4) 0.3762(4)
C14 C 0.4882(7) 0.3798(4) 0.2984(4)
C15 C 0.2608(8) 0.3204(5) 0.0397(4)
H11 H 0.2951 0.2683 0.0175
C16 C 0.2905(10) 0.3996(5) -0.0017(5)
H12 H 0.3454 0.3999 -0.0497
C17 C 0.2383(9) 0.4760(5) 0.0291(5)
H13 H 0.2561 0.5289 0.0019
C18 C 0.0963(8) 0.5524(4) 0.1391(5)
C19 C 0.0554(13) 0.6982(5) 0.1362(7)
H14 H 0.0680 0.7533 0.1122
C20 C -0.0247(12) 0.6926(5) 0.2086(7)
H15 H -0.0654 0.7429 0.2300
C21 C 0.0190(8) 0.5467(4) 0.2136(5)
C22 C 0.0022(7) 0.4625(4) 0.2555(4)
C23 C -0.0689(9) 0.4521(5) 0.3312(5)
H16 H -0.1075 0.5006 0.3578
C24 C -0.0815(9) 0.3709(5) 0.3660(4)
H17 H -0.1264 0.3638 0.4172
C25 C -0.0259(7) 0.2980(4) 0.3238(4)
H18 H -0.0411 0.2421 0.3458
C26 C 0.0596(7) 0.3866(3) 0.2190(3)
C27 C 0.1360(7) 0.3931(4) 0.1412(4)
C28 C 0.1571(8) 0.4741(4) 0.1022(4)
C29 C 0.4056(6) 0.0821(3) 0.1853(3)
C30 C 0.5384(6) -0.0495(4) 0.1397(3)
H19 H 0.6246 -0.0291 0.1803
C31 C 0.4106(6) 0.0000(3) 0.1276(3)
C32 C 0.2820(6) -0.0290(3) 0.0668(3)
H20 H 0.1980 0.0053 0.0574
C33 C 0.4079(6) -0.1601(4) 0.0319(4)
H21 H 0.4062 -0.2143 0.0003
C34 C 0.5378(6) -0.1295(4) 0.0912(4)
C35 C 0.2802(6) -0.1103(3) 0.0196(3)
C36 C 0.1404(6) -0.1452(4) -0.0449(3)
C37 C 0.3113(6) -0.1422(3) 0.5276(3)
C38 C 0.1826(6) -0.1095(4) 0.4656(3)
C39 C 0.0397(6) -0.1590(4) 0.4469(4)
H22 H 0.0241 -0.2128 0.4729
C40 C -0.0807(6) -0.1295(4) 0.3897(4)
C41 C -0.0561(6) -0.0497(4) 0.3503(3)
H23 H -0.1355 -0.0297 0.3115
C42 C 0.0876(6) 0.0008(3) 0.3687(3)
C43 C 0.2069(6) -0.0289(3) 0.4275(3)
H24 H 0.3019 0.0051 0.4409
C44 C 0.1183(6) 0.0822(3) 0.3202(3)
Mn1A Mn -0.09919(9) -0.18888(5) -0.16475(5)
Mn2A Mn 0.53527(9) -0.18533(5) 0.64234(5)
O5A O -0.0112(4) 0.1129(3) 0.0410(3)
O6A O -0.1511(5) 0.2043(3) 0.1027(3)
O9A O 0.7193(5) 0.2002(3) 0.4208(3)
O10A O 0.5498(4) 0.1111(3) 0.4738(3)
O11 O 0.9334(5) -0.0832(3) 0.1335(3)
H25 H 1.0067 -0.0643 0.1740
H26 H 0.9285 -0.0452 0.0944
O12 O -0.4606(5) -0.0838(3) 0.3531(3)
H27 H -0.4899 -0.0359 0.3319
H28 H -0.5351 -0.1080 0.3766
loop_
_geom_bond_atom_site_label_1
_geom_bond_atom_site_label_2
_geom_bond_site_symmetry_1
_geom_bond_site_symmetry_2
Mn1 O1 1_555 1_555
O1 C29 1_555 1_555
N1 C1 1_555 1_555
C1 H1 1_555 1_555
Mn2 N1 1_555 1_555
O2 Mn2 1_555 1_555
N2 Mn2 1_555 1_555
C2 C1 1_555 1_555
H2 C2 1_555 1_555
O3 Mn1 1_555 1_555
N3 Mn1 1_555 1_555
C3 C2 1_555 1_555
H3 C3 1_555 1_555
O4 Mn2 1_555 1_555
N4 Mn1 1_555 1_555
C4 C3 1_555 1_555
O5 C36 1_555 1_555
N5 C5 1_555 1_555
C5 C4 1_555 1_555
O6 C36 1_555 1_555
N6 C7 1_555 1_555
C6 N5 1_555 1_555
H4 C6 1_555 1_555
O7 H5 1_555 1_555
N7 C18 1_555 1_555
C7 C6 1_555 1_555
H6 C7 1_555 1_555
N8 C20 1_555 1_555
C8 C5 1_555 1_555
C9 C8 1_555 1_555
O8 H7 1_555 1_555
C10 C9 1_555 1_555
H8 C10 1_555 1_555
O9 C37 1_555 1_555
C11 C10 1_555 1_555
H9 C11 1_555 1_555
O10 C37 1_555 1_555
C12 N2 1_555 1_555
H10 C12 1_555 1_555
C13 N2 1_555 1_555
C14 N1 1_555 1_555
C15 N3 1_555 1_555
H11 C15 1_555 1_555
C16 C15 1_555 1_555
H12 C16 1_555 1_555
C17 C16 1_555 1_555
H13 C17 1_555 1_555
C18 C21 1_555 1_555
C19 N7 1_555 1_555
H14 C19 1_555 1_555
C20 C19 1_555 1_555
H15 C20 1_555 1_555
C21 N8 1_555 1_555
C22 C21 1_555 1_555
C23 C22 1_555 1_555
H16 C23 1_555 1_555
C24 C23 1_555 1_555
H17 C24 1_555 1_555
C25 N4 1_555 1_555
H18 C25 1_555 1_555
C26 N4 1_555 1_555
C27 N3 1_555 1_555
C28 C17 1_555 1_555
C29 O2 1_555 1_555
C30 H19 1_555 1_555
C31 C29 1_555 1_555
C32 C31 1_555 1_555
H20 C32 1_555 1_555
C33 H21 1_555 1_555
C34 O7 1_555 1_555
C35 C32 1_555 1_555
C36 C35 1_555 1_555
C37 C38 1_555 1_555
C38 C39 1_555 1_555
C39 H22 1_555 1_555
C40 O8 1_555 1_555
C41 C40 1_555 1_555
H23 C41 1_555 1_555
C42 C41 1_555 1_555
C43 C38 1_555 1_555
H24 C43 1_555 1_555
C44 O3 1_555 1_555
O11 H25 1_555 1_555
H26 O11 1_555 1_555
O12 H27 1_555 1_555
H28 O12 1_555 1_555
Mn1A O5 1_555 1_555
Mn2A O9 1_555 1_555
O5A Mn1 1_555 1_555
O6A Mn1 1_555 1_555
O9A Mn2 1_555 1_555
O10A Mn2 1_555 1_555
O4 C44 1_555 1_555
C4 C14 1_555 1_555
O6 Mn1A 1_555 1_555
N6 C8 1_555 1_555
C9 C13 1_555 1_555
C11 C12 1_555 1_555
O10 Mn2A 1_555 1_555
C13 C14 1_555 1_555
C18 C28 1_555 1_555
C22 C26 1_555 1_555
C24 C25 1_555 1_555
C26 C27 1_555 1_555
C27 C28 1_555 1_555
C30 C31 1_555 1_555
C30 C34 1_555 1_555
C33 C34 1_555 1_555
C33 C35 1_555 1_555
C39 C40 1_555 1_555
C42 C43 1_555 1_555
C42 C44 1_555 1_555

#END
