
#######################################################################
#
#                 Cambridge Crystallographic Data Centre
#                                CCDC 
#
#######################################################################
#
# If this CIF has been generated from an entry in the Cambridge 
# Structural Database, then it will include bibliographic, chemical, 
# crystal, experimental, refinement or atomic coordinate data resulting 
# from the CCDC's data processing and validation procedures.
#
#######################################################################

data_TOGGAZ
_symmetry_cell_setting           monoclinic
_symmetry_space_group_name_H-M   'C 2/c'
_symmetry_Int_Tables_number      15
_space_group_name_Hall           '-C 2yn'
loop_
_symmetry_equiv_pos_site_id
_symmetry_equiv_pos_as_xyz
1 x,y,z
2 -x,y,1/2-z
3 1/2+x,1/2+y,z
4 1/2-x,1/2+y,1/2-z
5 -x,-y,-z
6 x,-y,1/2+z
7 1/2-x,1/2-y,-z
8 1/2+x,1/2-y,1/2+z
_cell_length_a                   23.5386(5)
_cell_length_b                   12.1231(3)
_cell_length_c                   14.6018(5)
_cell_angle_alpha                90
_cell_angle_beta                 90.235(3)
_cell_angle_gamma                90
_cell_volume                     4166.75
loop_
_atom_site_label
_atom_site_type_symbol
_atom_site_fract_x
_atom_site_fract_y
_atom_site_fract_z
Mn1 Mn 0.071711(14) 0.02611(3) 0.66748(2)
S1 S 0.26505(3) -0.12540(5) 0.48939(6)
O1 O 0.10961(8) -0.01824(19) 0.54297(16)
N1 N 0.02356(7) 0.18411(15) 0.63784(13)
C1 C 0.05137(9) 0.28019(18) 0.65600(15)
N2 N 0.03603(9) 0.58248(17) 0.64115(16)
S2 S 0.26945(3) 0.12015(5) 0.54990(6)
O2 O 0.17762(11) -0.07269(19) 0.63781(15)
C2 C -0.02832(9) 0.1906(2) 0.60094(17)
H1 H -0.0476 0.1256 0.5873
S3 S 0.34965(3) 0.30231(5) 0.60501(6)
N3 N 0.14751(9) 0.56642(18) 0.71142(16)
O3 O 0.41795(7) 0.45565(15) 0.70244(13)
C3 C -0.05479(10) 0.2908(2) 0.58210(19)
H2 H -0.0912 0.2920 0.5570
O4 O 0.50131(7) 0.42287(14) 0.63582(14)
N4 N 0.12958(8) 0.16844(16) 0.70777(13)
C4 C -0.02703(10) 0.3880(2) 0.60073(18)
H3 H -0.0442 0.4553 0.5880
C5 C 0.02754(9) 0.38414(19) 0.63907(16)
N5 N 0.35473(9) -0.00290(18) 0.51832(18)
N6 N 0.37714(8) 0.09769(18) 0.54543(17)
C6 C 0.06013(10) 0.48324(19) 0.65915(16)
C7 C 0.06806(12) 0.6694(2) 0.6566(2)
H4 H 0.0532 0.7389 0.6444
C8 C 0.12328(12) 0.6618(2) 0.6903(2)
H5 H 0.1440 0.7264 0.6984
C9 C 0.11537(10) 0.47562(19) 0.69505(17)
C10 C 0.14018(9) 0.36763(19) 0.71328(16)
C11 C 0.19519(10) 0.3534(2) 0.75010(19)
H6 H 0.2174 0.4145 0.7644
C12 C 0.21553(10) 0.2494(2) 0.76457(19)
H7 H 0.2517 0.2392 0.7889
C13 C 0.18184(10) 0.1586(2) 0.74266(18)
H8 H 0.1963 0.0883 0.7528
C14 C 0.10886(9) 0.27178(19) 0.69360(15)
C15 C 0.15813(12) -0.0571(2) 0.5605(2)
C16 C 0.19214(10) -0.0839(2) 0.47478(19)
H9 H 0.1743(10) -0.146(2) 0.4475(18)
H10 H 0.1893(11) -0.025(2) 0.4348(19)
C17 C 0.29998(10) -0.00362(19) 0.51791(18)
C18 C 0.33825(9) 0.1690(2) 0.56420(17)
C19 C 0.42631(10) 0.3046(2) 0.59929(18)
H11 H 0.4414 0.2373 0.6258
H12 H 0.4380 0.3078 0.5357
C20 C 0.45014(10) 0.40320(19) 0.65035(17)
Mn1B Mn 0.571711(14) 0.52611(3) 0.66748(2)
Mn1C Mn 0.428289(14) 0.52611(3) 0.83252(2)
O3C O 0.08205(7) -0.04435(15) 0.79756(13)
O4B O 0.00131(7) -0.07713(14) 0.63582(14)
loop_
_geom_bond_atom_site_label_1
_geom_bond_atom_site_label_2
_geom_bond_site_symmetry_1
_geom_bond_site_symmetry_2
Mn1 O1 1_555 1_555
S1 C16 1_555 1_555
O1 C15 1_555 1_555
N1 Mn1 1_555 1_555
C1 N1 1_555 1_555
N2 C6 1_555 1_555
S2 C17 1_555 1_555
O2 C15 1_555 1_555
C2 N1 1_555 1_555
H1 C2 1_555 1_555
S3 C18 1_555 1_555
N3 C8 1_555 1_555
O3 C20 1_555 1_555
C3 C2 1_555 1_555
H2 C3 1_555 1_555
O4 C20 1_555 1_555
N4 Mn1 1_555 1_555
C4 C3 1_555 1_555
H3 C4 1_555 1_555
C5 C1 1_555 1_555
N5 N6 1_555 1_555
N6 C18 1_555 1_555
C6 C5 1_555 1_555
C7 N2 1_555 1_555
H4 C7 1_555 1_555
C8 C7 1_555 1_555
H5 C8 1_555 1_555
C9 N3 1_555 1_555
C10 C9 1_555 1_555
C11 C10 1_555 1_555
H6 C11 1_555 1_555
C12 C11 1_555 1_555
H7 C12 1_555 1_555
C13 N4 1_555 1_555
H8 C13 1_555 1_555
C14 C1 1_555 1_555
C15 C16 1_555 1_555
C16 H9 1_555 1_555
H10 C16 1_555 1_555
C17 S1 1_555 1_555
C18 S2 1_555 1_555
C19 S3 1_555 1_555
H11 C19 1_555 1_555
H12 C19 1_555 1_555
C20 C19 1_555 1_555
Mn1B O4 1_555 1_555
Mn1C O3 1_555 1_555
O3C Mn1 1_555 1_555
O4B Mn1 1_555 1_555
N4 C14 1_555 1_555
C4 C5 1_555 1_555
N5 C17 1_555 1_555
C6 C9 1_555 1_555
C10 C14 1_555 1_555
C12 C13 1_555 1_555

#END
