
#######################################################################
#
#                 Cambridge Crystallographic Data Centre
#                                CCDC 
#
#######################################################################
#
# If this CIF has been generated from an entry in the Cambridge 
# Structural Database, then it will include bibliographic, chemical, 
# crystal, experimental, refinement or atomic coordinate data resulting 
# from the CCDC's data processing and validation procedures.
#
#######################################################################

data_TOGLIM
_symmetry_cell_setting           triclinic
_symmetry_space_group_name_H-M   'P -1'
_symmetry_Int_Tables_number      2
_space_group_name_Hall           '-P 1'
loop_
_symmetry_equiv_pos_site_id
_symmetry_equiv_pos_as_xyz
1 x,y,z
2 -x,-y,-z
_cell_length_a                   14.0816(9)
_cell_length_b                   16.7303(11)
_cell_length_c                   21.2221(14)
_cell_angle_alpha                75.7960(10)
_cell_angle_beta                 76.2310(10)
_cell_angle_gamma                81.0660(10)
_cell_volume                     4682.58
loop_
_atom_site_label
_atom_site_type_symbol
_atom_site_fract_x
_atom_site_fract_y
_atom_site_fract_z
Nd1 Nd 0.314155(15) 0.418548(12) 0.041038(10)
Nd2 Nd 0.322541(14) 1.074081(12) 0.468541(10)
O1 O 0.3334(2) 0.49782(17) -0.06897(13)
O2 O 0.4548(2) 0.5592(2) -0.14018(14)
O3 O 0.2487(2) 0.17903(18) -0.46189(14)
O4 O 0.4090(2) 0.16697(18) -0.49373(14)
O5 O 0.2920(2) 0.46205(17) 0.14875(13)
O6 O 0.3488(2) 0.55577(17) 0.06078(13)
O7 O 0.3071(2) 0.92590(17) 0.46125(14)
O8 O 0.2798(2) 1.02457(16) 0.37594(13)
O9 O 0.35872(18) 0.99374(16) 0.57045(12)
O10 O 0.51249(19) 0.95713(16) 0.58284(13)
O11 O 0.2405(2) 1.32264(17) 0.99426(14)
O12 O 0.4016(2) 1.31508(19) 0.97685(14)
O13 O 0.4885(2) 0.40153(19) 0.04392(14)
H1 H 0.537(2) 0.404(3) 0.0072(14)
H2 H 0.510(3) 0.416(2) 0.0756(16)
N1 N 0.3225(2) 0.2765(2) 0.12962(16)
N2 N 0.1499(2) 0.36481(19) 0.11844(15)
N3 N 0.0651(3) 0.2504(2) 0.18277(18)
N4 N -0.0232(3) 0.3736(2) 0.13632(18)
N5 N -0.1096(4) 0.1814(3) 0.2314(3)
N6 N 0.1491(2) 0.5187(2) 0.04211(16)
N7 N 0.1442(2) 1.03702(19) 0.53169(15)
N8 N 0.1699(2) 1.16656(18) 0.42758(14)
N9 N -0.0019(2) 1.1950(2) 0.43777(17)
N10 N 0.1046(2) 1.2737(2) 0.34892(17)
N11 N -0.0552(3) 1.3687(2) 0.3084(2)
N12 N 0.3526(2) 1.2053(2) 0.36972(16)
C1 C 0.3905(3) 0.5127(2) -0.12560(19)
C2 C 0.3774(3) 0.4717(2) -0.17794(18)
C3 C 0.2929(3) 0.4334(2) -0.17073(19)
H3 H 0.2427 0.4346 -0.1334
C4 C 0.2829(3) 0.3940(2) -0.2179(2)
H4 H 0.2254 0.3700 -0.2126
C5 C 0.3570(3) 0.3894(2) -0.27363(19)
C6 C 0.4398(3) 0.4285(3) -0.2808(2)
H5 H 0.4901 0.4272 -0.3180
C7 C 0.4493(3) 0.4692(3) -0.2341(2)
H6 H 0.5055 0.4956 -0.2406
C8 C 0.3488(3) 0.3433(3) -0.3230(2)
C9 C 0.2618(3) 0.3436(3) -0.3429(2)
H7 H 0.2058 0.3756 -0.3260
C10 C 0.2571(3) 0.2978(3) -0.3870(2)
H8 H 0.1976 0.2991 -0.3992
C11 C 0.3379(3) 0.2498(3) -0.4139(2)
C12 C 0.4249(3) 0.2490(3) -0.3951(2)
H9 H 0.4808 0.2176 -0.4128
C13 C 0.4298(3) 0.2947(3) -0.3500(2)
H10 H 0.4891 0.2928 -0.3374
C14 C 0.3309(3) 0.1965(2) -0.4594(2)
C15 C 0.4089(3) 0.2364(3) 0.1392(2)
H11 H 0.4656 0.2591 0.1135
C16 C 0.4191(4) 0.1636(3) 0.1846(3)
H12 H 0.4813 0.1376 0.1889
C17 C 0.3379(4) 0.1298(3) 0.2234(3)
H13 H 0.3433 0.0816 0.2560
C18 C 0.2455(4) 0.1686(3) 0.2134(2)
H14 H 0.1882 0.1455 0.2375
C19 C 0.2417(3) 0.2420(3) 0.1669(2)
C20 C 0.1468(3) 0.2880(3) 0.1557(2)
C21 C -0.0179(3) 0.2963(3) 0.1695(2)
C22 C 0.0628(3) 0.4059(3) 0.1113(2)
C23 C -0.1119(4) 0.2580(3) 0.1918(2)
C24 C -0.1942(5) 0.1459(5) 0.2499(3)
H15 H -0.1948 0.0934 0.2775
C25 C -0.2802(5) 0.1827(4) 0.2303(3)
H16 H -0.3369 0.1555 0.2443
C26 C -0.2802(4) 0.2592(4) 0.1901(3)
H17 H -0.3368 0.2855 0.1756
C27 C -0.1943(4) 0.2978(3) 0.1710(3)
H18 H -0.1932 0.3508 0.1441
C28 C 0.0618(3) 0.4935(3) 0.0733(2)
C29 C -0.0248(4) 0.5439(3) 0.0723(3)
H19 H -0.0844 0.5236 0.0944
C30 C -0.0220(4) 0.6239(3) 0.0386(3)
H20 H -0.0798 0.6591 0.0374
C31 C 0.0675(4) 0.6527(3) 0.0060(3)
H21 H 0.0717 0.7074 -0.0171
C32 C 0.1501(4) 0.5972(3) 0.0092(2)
H22 H 0.2105 0.6159 -0.0131
C33 C 0.3183(3) 0.5336(3) 0.1231(2)
C34 C 0.3121(3) 0.5940(2) 0.1663(2)
C35 C 0.2841(3) 0.5710(3) 0.2343(2)
H23 H 0.2691 0.5170 0.2537
C36 C 0.2777(3) 0.6256(3) 0.2740(2)
H24 H 0.2599 0.6078 0.3199
C37 C 0.2974(3) 0.7067(3) 0.2471(2)
C38 C 0.3247(4) 0.7305(3) 0.1777(2)
H25 H 0.3373 0.7849 0.1578
C39 C 0.3328(4) 0.6740(3) 0.1389(2)
H26 H 0.3529 0.6905 0.0930
C40 C 0.2903(3) 0.7683(3) 0.2889(2)
C41 C 0.3065(3) 0.7431(3) 0.3535(2)
H27 H 0.3180 0.6869 0.3718
C42 C 0.3056(3) 0.8008(2) 0.3908(2)
H28 H 0.3174 0.7827 0.4336
C43 C 0.2874(3) 0.8852(2) 0.36515(19)
C44 C 0.2682(3) 0.9094(3) 0.3016(2)
H29 H 0.2537 0.9654 0.2840
C45 C 0.2702(3) 0.8523(3) 0.2638(2)
H30 H 0.2578 0.8704 0.2212
C46 C 0.2913(3) 0.9485(3) 0.4033(2)
C47 C 0.1335(3) 0.9743(3) 0.5842(2)
H31 H 0.1898 0.9411 0.5941
C48 C 0.0450(3) 0.9553(3) 0.6248(2)
H32 H 0.0414 0.9105 0.6610
C49 C -0.0389(3) 1.0043(3) 0.6106(2)
H33 H -0.1004 0.9935 0.6372
C50 C -0.0294(3) 1.0696(3) 0.5561(2)
H34 H -0.0847 1.1034 0.5452
C51 C 0.0630(3) 1.0845(2) 0.51757(19)
C52 C 0.0778(3) 1.1519(2) 0.45800(19)
C53 C 0.0149(3) 1.2539(2) 0.3826(2)
C54 C 0.1788(3) 1.2293(2) 0.37417(19)
C55 C -0.0716(3) 1.3015(3) 0.3572(2)
C56 C -0.1330(4) 1.4124(3) 0.2872(3)
H35 H -0.1233 1.4605 0.2544
C57 C -0.2280(4) 1.3904(3) 0.3114(3)
H36 H -0.2802 1.4228 0.2947
C58 C -0.2438(3) 1.3206(3) 0.3600(3)
H37 H -0.3065 1.3038 0.3767
C59 C -0.1637(3) 1.2752(3) 0.3838(2)
H38 H -0.1720 1.2277 0.4174
C60 C 0.2800(3) 1.2521(2) 0.34249(19)
C61 C 0.2960(3) 1.3182(3) 0.2901(2)
H39 H 0.2437 1.3483 0.2722
C62 C 0.3893(3) 1.3398(3) 0.2641(2)
H40 H 0.4020 1.3843 0.2282
C63 C 0.4640(3) 1.2937(3) 0.2927(2)
H41 H 0.5282 1.3074 0.2768
C64 C 0.4433(3) 1.2276(3) 0.3446(2)
H42 H 0.4947 1.1969 0.3631
C65 C 0.4258(3) 0.9879(2) 0.60162(18)
C66 C 0.4026(3) 1.0201(2) 0.66385(18)
C67 C 0.3106(3) 1.0594(3) 0.68570(19)
H43 H 0.2594 1.0601 0.6647
C68 C 0.2948(3) 1.0979(3) 0.7392(2)
H44 H 0.2330 1.1246 0.7531
C69 C 0.3683(3) 1.0974(3) 0.7719(2)
C70 C 0.4585(3) 1.0550(3) 0.7510(2)
H45 H 0.5087 1.0518 0.7733
C71 C 0.4756(3) 1.0172(3) 0.69772(19)
H46 H 0.5370 0.9895 0.6846
C72 C 0.3558(3) 1.1451(3) 0.8240(2)
C73 C 0.2665(3) 1.1587(3) 0.8658(2)
H47 H 0.2124 1.1356 0.8625
C74 C 0.2561(3) 1.2061(3) 0.9125(2)
H48 H 0.1947 1.2155 0.9395
C75 C 0.3346(3) 1.2393(3) 0.9195(2)
C76 C 0.4234(3) 1.2274(3) 0.8779(2)
H49 H 0.4772 1.2508 0.8814
C77 C 0.4342(3) 1.1809(3) 0.8306(2)
H50 H 0.4953 1.1734 0.8028
C78 C 0.3254(3) 1.2950(3) 0.9665(2)
Nd1_2 Nd 0.314155(15) 1.418548(12) 1.041038(10)
Nd2_2 Nd 0.322541(14) 0.074081(12) -0.531459(10)
Nd2A Nd 0.677459(14) 0.925919(12) 0.531459(10)
O3_2 O 0.2487(2) 1.17903(18) 0.53811(14)
O4_2 O 0.4090(2) 1.16697(18) 0.50627(14)
O10A O 0.48751(19) 1.04287(16) 0.41716(13)
O11_2 O 0.2405(2) 0.32264(17) -0.00574(14)
O12_2 O 0.4016(2) 0.31508(19) -0.02315(14)
loop_
_geom_bond_atom_site_label_1
_geom_bond_atom_site_label_2
_geom_bond_site_symmetry_1
_geom_bond_site_symmetry_2
Nd1 O1 1_555 1_555
Nd2 O7 1_555 1_555
O1 C1 1_555 1_555
O2 C1 1_555 1_555
O3 C14 1_555 1_555
O4 C14 1_555 1_555
O5 Nd1 1_555 1_555
O6 Nd1 1_555 1_555
O7 C46 1_555 1_555
O8 Nd2 1_555 1_555
O9 Nd2 1_555 1_555
O10 C65 1_555 1_555
O11 C78 1_555 1_555
O12 C78 1_555 1_555
O13 Nd1 1_555 1_555
H1 O13 1_555 1_555
H2 O13 1_555 1_555
N1 Nd1 1_555 1_555
N2 Nd1 1_555 1_555
N3 C20 1_555 1_555
N4 C21 1_555 1_555
N5 C23 1_555 1_555
N6 Nd1 1_555 1_555
N7 Nd2 1_555 1_555
N8 Nd2 1_555 1_555
N9 C52 1_555 1_555
N10 C53 1_555 1_555
N11 C55 1_555 1_555
N12 Nd2 1_555 1_555
C1 C2 1_555 1_555
C2 C3 1_555 1_555
C3 H3 1_555 1_555
C4 C3 1_555 1_555
H4 C4 1_555 1_555
C5 C4 1_555 1_555
C6 C5 1_555 1_555
H5 C6 1_555 1_555
C7 C2 1_555 1_555
H6 C7 1_555 1_555
C8 C5 1_555 1_555
C9 C8 1_555 1_555
H7 C9 1_555 1_555
C10 C9 1_555 1_555
H8 C10 1_555 1_555
C11 C10 1_555 1_555
C12 C11 1_555 1_555
H9 C12 1_555 1_555
C13 C8 1_555 1_555
H10 C13 1_555 1_555
C14 C11 1_555 1_555
C15 N1 1_555 1_555
H11 C15 1_555 1_555
C16 C15 1_555 1_555
H12 C16 1_555 1_555
C17 C16 1_555 1_555
H13 C17 1_555 1_555
C18 C17 1_555 1_555
H14 C18 1_555 1_555
C19 N1 1_555 1_555
C20 N2 1_555 1_555
C21 N3 1_555 1_555
C22 N2 1_555 1_555
C23 C21 1_555 1_555
C24 N5 1_555 1_555
H15 C24 1_555 1_555
C25 C24 1_555 1_555
H16 C25 1_555 1_555
C26 C25 1_555 1_555
H17 C26 1_555 1_555
C27 C23 1_555 1_555
H18 C27 1_555 1_555
C28 N6 1_555 1_555
C29 C28 1_555 1_555
H19 C29 1_555 1_555
C30 C29 1_555 1_555
H20 C30 1_555 1_555
C31 C30 1_555 1_555
H21 C31 1_555 1_555
C32 N6 1_555 1_555
H22 C32 1_555 1_555
C33 O5 1_555 1_555
C34 C33 1_555 1_555
C35 C34 1_555 1_555
H23 C35 1_555 1_555
C36 C35 1_555 1_555
H24 C36 1_555 1_555
C37 C36 1_555 1_555
C38 C37 1_555 1_555
H25 C38 1_555 1_555
C39 C34 1_555 1_555
H26 C39 1_555 1_555
C40 C37 1_555 1_555
C41 C40 1_555 1_555
H27 C41 1_555 1_555
C42 C41 1_555 1_555
H28 C42 1_555 1_555
C43 C42 1_555 1_555
C44 C43 1_555 1_555
H29 C44 1_555 1_555
C45 C40 1_555 1_555
H30 C45 1_555 1_555
C46 O8 1_555 1_555
C47 N7 1_555 1_555
H31 C47 1_555 1_555
C48 C47 1_555 1_555
H32 C48 1_555 1_555
C49 C48 1_555 1_555
H33 C49 1_555 1_555
C50 C49 1_555 1_555
H34 C50 1_555 1_555
C51 N7 1_555 1_555
C52 N8 1_555 1_555
C53 N9 1_555 1_555
C54 N8 1_555 1_555
C55 C53 1_555 1_555
C56 N11 1_555 1_555
H35 C56 1_555 1_555
C57 C56 1_555 1_555
H36 C57 1_555 1_555
C58 C57 1_555 1_555
H37 C58 1_555 1_555
C59 C55 1_555 1_555
H38 C59 1_555 1_555
C60 N12 1_555 1_555
C61 C60 1_555 1_555
H39 C61 1_555 1_555
C62 C61 1_555 1_555
H40 C62 1_555 1_555
C63 C62 1_555 1_555
H41 C63 1_555 1_555
C64 N12 1_555 1_555
H42 C64 1_555 1_555
C65 O9 1_555 1_555
C66 C65 1_555 1_555
C67 C66 1_555 1_555
H43 C67 1_555 1_555
C68 C67 1_555 1_555
H44 C68 1_555 1_555
C69 C68 1_555 1_555
C70 C69 1_555 1_555
H45 C70 1_555 1_555
C71 C66 1_555 1_555
H46 C71 1_555 1_555
C72 C69 1_555 1_555
C73 C72 1_555 1_555
H47 C73 1_555 1_555
C74 C73 1_555 1_555
H48 C74 1_555 1_555
C75 C74 1_555 1_555
C76 C75 1_555 1_555
H49 C76 1_555 1_555
C77 C72 1_555 1_555
H50 C77 1_555 1_555
C78 C75 1_555 1_555
Nd1_2 O11 1_555 1_555
Nd2_2 O3 1_555 1_555
Nd2A O10 1_555 1_555
O3_2 Nd2 1_555 1_555
O4_2 Nd2 1_555 1_555
O10A Nd2 1_555 1_555
O11_2 Nd1 1_555 1_555
O12_2 Nd1 1_555 1_555
O4 Nd2_2 1_555 1_555
O6 C33 1_555 1_555
O12 Nd1_2 1_555 1_555
N4 C22 1_555 1_555
N10 C54 1_555 1_555
C6 C7 1_555 1_555
C12 C13 1_555 1_555
C18 C19 1_555 1_555
C19 C20 1_555 1_555
C22 C28 1_555 1_555
C26 C27 1_555 1_555
C31 C32 1_555 1_555
C38 C39 1_555 1_555
C43 C46 1_555 1_555
C44 C45 1_555 1_555
C50 C51 1_555 1_555
C51 C52 1_555 1_555
C54 C60 1_555 1_555
C58 C59 1_555 1_555
C63 C64 1_555 1_555
C70 C71 1_555 1_555
C76 C77 1_555 1_555

#END
