
#######################################################################
#
#                 Cambridge Crystallographic Data Centre
#                                CCDC 
#
#######################################################################
#
# If this CIF has been generated from an entry in the Cambridge 
# Structural Database, then it will include bibliographic, chemical, 
# crystal, experimental, refinement or atomic coordinate data resulting 
# from the CCDC's data processing and validation procedures.
#
#######################################################################

data_TOGLUY
_symmetry_cell_setting           triclinic
_symmetry_space_group_name_H-M   'P -1'
_symmetry_Int_Tables_number      2
_space_group_name_Hall           '-P 1'
loop_
_symmetry_equiv_pos_site_id
_symmetry_equiv_pos_as_xyz
1 x,y,z
2 -x,-y,-z
_cell_length_a                   14.0463(12)
_cell_length_b                   16.5927(14)
_cell_length_c                   21.1733(18)
_cell_angle_alpha                75.7250(10)
_cell_angle_beta                 76.3480(10)
_cell_angle_gamma                80.8100(10)
_cell_volume                     4620.21
loop_
_atom_site_label
_atom_site_type_symbol
_atom_site_fract_x
_atom_site_fract_y
_atom_site_fract_z
Eu1 Eu 0.313528(11) 0.418949(9) 0.040607(7)
Eu2 Eu 0.322389(10) 1.074684(9) 0.468220(7)
O1 O 0.33313(17) 0.49721(14) -0.06773(11)
O2 O 0.4576(2) 0.55697(19) -0.13883(12)
O3 O 0.24764(16) 0.17886(15) -0.46257(12)
O4 O 0.40860(16) 0.16769(15) -0.49575(11)
O5 O 0.29167(17) 0.46132(14) 0.14706(11)
O6 O 0.34803(17) 0.55612(14) 0.05912(11)
O7 O 0.30852(18) 0.92728(14) 0.46149(11)
O8 O 0.28023(16) 1.02715(14) 0.37586(11)
O9 O 0.35997(15) 0.99534(13) 0.56818(10)
O10 O 0.51471(15) 0.95858(14) 0.58104(10)
O11 O 0.23970(16) 1.32500(15) 0.99420(11)
O12 O 0.40121(16) 1.31616(16) 0.97695(12)
O13 O 0.48501(16) 0.40296(15) 0.04323(11)
H1 H 0.531(2) 0.407(2) 0.0075(12)
H2 H 0.507(2) 0.422(2) 0.0723(14)
N1 N 0.3243(2) 0.27715(17) 0.12677(13)
N2 N 0.15112(19) 0.36621(17) 0.11604(13)
N3 N 0.0669(2) 0.2511(2) 0.17983(15)
N4 N -0.0222(2) 0.3763(2) 0.13329(16)
N5 N -0.1053(3) 0.1792(3) 0.2240(2)
N6 N 0.1520(2) 0.52122(17) 0.03990(13)
N7 N 0.14794(18) 1.03603(16) 0.53250(13)
N8 N 0.17183(18) 1.16577(15) 0.42756(12)
N9 N -0.00079(19) 1.19463(17) 0.43743(14)
N10 N 0.1054(2) 1.27369(17) 0.34822(14)
N11 N -0.0552(2) 1.3689(2) 0.30714(16)
N12 N 0.35417(18) 1.20373(16) 0.36951(13)
C1 C 0.3912(2) 0.5112(2) -0.12408(15)
C2 C 0.3769(2) 0.47044(19) -0.17638(14)
C3 C 0.2924(2) 0.4330(2) -0.16966(16)
H3 H 0.2420 0.4346 -0.1324
C4 C 0.2823(2) 0.3936(2) -0.21753(16)
H4 H 0.2245 0.3699 -0.2124
C5 C 0.3567(2) 0.3886(2) -0.27318(16)
C6 C 0.4410(2) 0.4265(2) -0.27955(17)
H5 H 0.4921 0.4239 -0.3163
C7 C 0.4503(2) 0.4674(2) -0.23292(16)
H6 H 0.5067 0.4936 -0.2392
C8 C 0.3495(2) 0.3421(2) -0.32285(16)
C9 C 0.2613(3) 0.3453(2) -0.34384(19)
H7 H 0.2060 0.3789 -0.3274
C10 C 0.2556(3) 0.2995(2) -0.38841(19)
H8 H 0.1959 0.3012 -0.4008
C11 C 0.3377(2) 0.2504(2) -0.41536(16)
C12 C 0.4252(2) 0.2472(2) -0.39501(18)
H9 H 0.4808 0.2144 -0.4121
C13 C 0.4302(3) 0.2924(2) -0.34958(19)
H10 H 0.4896 0.2895 -0.3365
C14 C 0.3304(3) 0.1966(2) -0.46075(17)
C15 C 0.4123(3) 0.2362(2) 0.1356(2)
H11 H 0.4689 0.2581 0.1087
C16 C 0.4223(3) 0.1635(3) 0.1826(2)
H12 H 0.4846 0.1382 0.1884
C17 C 0.3396(3) 0.1286(3) 0.2209(2)
H13 H 0.3451 0.0794 0.2529
C18 C 0.2487(3) 0.1673(2) 0.2112(2)
H14 H 0.1915 0.1441 0.2356
C19 C 0.2439(3) 0.2418(2) 0.16439(17)
C20 C 0.1480(2) 0.2884(2) 0.15356(16)
C21 C -0.0165(3) 0.2968(3) 0.16667(18)
C22 C 0.0635(2) 0.4086(2) 0.10902(17)
C23 C -0.1102(3) 0.2581(3) 0.1880(2)
C24 C -0.1893(4) 0.1429(4) 0.2414(3)
H15 H -0.1889 0.0886 0.2671
C25 C -0.2766(4) 0.1818(4) 0.2231(3)
H16 H -0.3328 0.1538 0.2360
C26 C -0.2793(3) 0.2601(3) 0.1868(2)
H17 H -0.3371 0.2873 0.1738
C27 C -0.1946(3) 0.2999(3) 0.1691(2)
H18 H -0.1950 0.3547 0.1444
C28 C 0.0629(3) 0.4964(2) 0.07144(17)
C29 C -0.0231(3) 0.5484(3) 0.0706(2)
H19 H -0.0832 0.5285 0.0925
C30 C -0.0196(3) 0.6301(3) 0.0368(3)
H20 H -0.0772 0.6664 0.0355
C31 C 0.0708(3) 0.6579(3) 0.0050(2)
H21 H 0.0756 0.7133 -0.0175
C32 C 0.1546(3) 0.6007(2) 0.00744(19)
H22 H 0.2154 0.6189 -0.0147
C33 C 0.3179(2) 0.5335(2) 0.12129(16)
C34 C 0.3108(2) 0.5936(2) 0.16529(16)
C35 C 0.2833(3) 0.5696(2) 0.23360(16)
H23 H 0.2697 0.5149 0.2531
C36 C 0.2758(3) 0.6256(2) 0.27339(17)
H24 H 0.2572 0.6081 0.3194
C37 C 0.2953(2) 0.7080(2) 0.24609(17)
C38 C 0.3226(3) 0.7315(2) 0.17769(18)
H25 H 0.3355 0.7863 0.1581
C39 C 0.3314(3) 0.6749(2) 0.13745(18)
H26 H 0.3512 0.6919 0.0915
C40 C 0.2886(2) 0.7693(2) 0.28830(17)
C41 C 0.3058(2) 0.7441(2) 0.35330(17)
H27 H 0.3180 0.6874 0.3715
C42 C 0.3050(2) 0.8017(2) 0.39099(17)
H28 H 0.3167 0.7834 0.4339
C43 C 0.2869(2) 0.8864(2) 0.36502(16)
C44 C 0.2660(3) 0.9120(2) 0.30171(17)
H29 H 0.2510 0.9686 0.2843
C45 C 0.2671(3) 0.8543(2) 0.26427(17)
H30 H 0.2531 0.8729 0.2219
C46 C 0.2917(2) 0.9501(2) 0.40335(16)
C47 C 0.1387(2) 0.9724(2) 0.58519(17)
H31 H 0.1954 0.9390 0.5950
C48 C 0.0495(3) 0.9536(2) 0.62583(18)
H32 H 0.0461 0.9088 0.6624
C49 C -0.0348(3) 1.0025(3) 0.61116(19)
H33 H -0.0962 0.9911 0.6377
C50 C -0.0270(2) 1.0684(2) 0.55667(18)
H34 H -0.0830 1.1021 0.5459
C51 C 0.0652(2) 1.0837(2) 0.51822(16)
C52 C 0.0785(2) 1.15185(19) 0.45828(15)
C53 C 0.0160(2) 1.2537(2) 0.38204(17)
C54 C 0.1806(2) 1.22835(19) 0.37393(16)
C55 C -0.0710(2) 1.3008(2) 0.35595(18)
C56 C -0.1337(3) 1.4125(3) 0.2851(2)
H35 H -0.1238 1.4604 0.2516
C57 C -0.2273(3) 1.3914(3) 0.3084(2)
H36 H -0.2794 1.4241 0.2911
C58 C -0.2433(3) 1.3206(3) 0.3582(2)
H37 H -0.3063 1.3041 0.3748
C59 C -0.1637(3) 1.2745(2) 0.3830(2)
H38 H -0.1722 1.2270 0.4170
C60 C 0.2816(2) 1.2512(2) 0.34189(16)
C61 C 0.2973(3) 1.3176(2) 0.28876(17)
H39 H 0.2450 1.3481 0.2705
C62 C 0.3922(3) 1.3385(2) 0.26289(18)
H40 H 0.4054 1.3828 0.2265
C63 C 0.4661(3) 1.2924(2) 0.29213(19)
H41 H 0.5304 1.3061 0.2766
C64 C 0.4452(2) 1.2257(2) 0.34455(18)
H42 H 0.4967 1.1945 0.3634
C65 C 0.4274(2) 0.98881(18) 0.59987(14)
C66 C 0.4033(2) 1.01983(18) 0.66287(14)
C67 C 0.3114(2) 1.0590(2) 0.68557(16)
H43 H 0.2603 1.0606 0.6641
C68 C 0.2942(2) 1.0957(2) 0.73948(17)
H44 H 0.2315 1.1213 0.7539
C69 C 0.3686(2) 1.0953(2) 0.77260(16)
C70 C 0.4601(2) 1.0525(2) 0.75103(17)
H45 H 0.5109 1.0492 0.7732
C71 C 0.4763(2) 1.0152(2) 0.69763(16)
H46 H 0.5376 0.9864 0.6847
C72 C 0.3559(2) 1.1428(2) 0.82510(17)
C73 C 0.2667(3) 1.1554(2) 0.86826(19)
H47 H 0.2128 1.1314 0.8655
C74 C 0.2559(3) 1.2028(2) 0.91525(18)
H48 H 0.1951 1.2103 0.9436
C75 C 0.3342(2) 1.2391(2) 0.92040(17)
C76 C 0.4234(3) 1.2273(2) 0.87770(19)
H49 H 0.4771 1.2514 0.8806
C77 C 0.4341(3) 1.1805(3) 0.83099(19)
H50 H 0.4950 1.1738 0.8026
C78 C 0.3248(2) 1.2960(2) 0.96707(16)
Eu1_2 Eu 0.313528(11) 1.418949(9) 1.040607(7)
Eu2_2 Eu 0.322389(10) 0.074684(9) -0.531780(7)
Eu2A Eu 0.677611(10) 0.925316(9) 0.531780(7)
O3_2 O 0.24764(16) 1.17886(15) 0.53743(12)
O4_2 O 0.40860(16) 1.16769(15) 0.50425(11)
O10A O 0.48529(15) 1.04142(14) 0.41896(10)
O11_2 O 0.23970(16) 0.32500(15) -0.00580(11)
O12_2 O 0.40121(16) 0.31616(16) -0.02305(12)
loop_
_geom_bond_atom_site_label_1
_geom_bond_atom_site_label_2
_geom_bond_site_symmetry_1
_geom_bond_site_symmetry_2
Eu1 O1 1_555 1_555
Eu2 O7 1_555 1_555
O1 C1 1_555 1_555
O2 C1 1_555 1_555
O3 C14 1_555 1_555
O4 C14 1_555 1_555
O5 Eu1 1_555 1_555
O6 Eu1 1_555 1_555
O7 C46 1_555 1_555
O8 Eu2 1_555 1_555
O9 Eu2 1_555 1_555
O10 C65 1_555 1_555
O11 C78 1_555 1_555
O12 C78 1_555 1_555
O13 Eu1 1_555 1_555
H1 O13 1_555 1_555
H2 O13 1_555 1_555
N1 Eu1 1_555 1_555
N2 Eu1 1_555 1_555
N3 C20 1_555 1_555
N4 C21 1_555 1_555
N5 C23 1_555 1_555
N6 Eu1 1_555 1_555
N7 Eu2 1_555 1_555
N8 Eu2 1_555 1_555
N9 C52 1_555 1_555
N10 C53 1_555 1_555
N11 C55 1_555 1_555
N12 Eu2 1_555 1_555
C1 C2 1_555 1_555
C2 C3 1_555 1_555
C3 H3 1_555 1_555
C4 C3 1_555 1_555
H4 C4 1_555 1_555
C5 C4 1_555 1_555
C6 C5 1_555 1_555
H5 C6 1_555 1_555
C7 C2 1_555 1_555
H6 C7 1_555 1_555
C8 C5 1_555 1_555
C9 C8 1_555 1_555
H7 C9 1_555 1_555
C10 C9 1_555 1_555
H8 C10 1_555 1_555
C11 C10 1_555 1_555
C12 C11 1_555 1_555
H9 C12 1_555 1_555
C13 C8 1_555 1_555
H10 C13 1_555 1_555
C14 C11 1_555 1_555
C15 N1 1_555 1_555
H11 C15 1_555 1_555
C16 C15 1_555 1_555
H12 C16 1_555 1_555
C17 C16 1_555 1_555
H13 C17 1_555 1_555
C18 C17 1_555 1_555
H14 C18 1_555 1_555
C19 N1 1_555 1_555
C20 N2 1_555 1_555
C21 N3 1_555 1_555
C22 N2 1_555 1_555
C23 C21 1_555 1_555
C24 N5 1_555 1_555
H15 C24 1_555 1_555
C25 C24 1_555 1_555
H16 C25 1_555 1_555
C26 C25 1_555 1_555
H17 C26 1_555 1_555
C27 C23 1_555 1_555
H18 C27 1_555 1_555
C28 N6 1_555 1_555
C29 C28 1_555 1_555
H19 C29 1_555 1_555
C30 C29 1_555 1_555
H20 C30 1_555 1_555
C31 C30 1_555 1_555
H21 C31 1_555 1_555
C32 N6 1_555 1_555
H22 C32 1_555 1_555
C33 O5 1_555 1_555
C34 C33 1_555 1_555
C35 C34 1_555 1_555
H23 C35 1_555 1_555
C36 C35 1_555 1_555
H24 C36 1_555 1_555
C37 C36 1_555 1_555
C38 C37 1_555 1_555
H25 C38 1_555 1_555
C39 C34 1_555 1_555
H26 C39 1_555 1_555
C40 C37 1_555 1_555
C41 C40 1_555 1_555
H27 C41 1_555 1_555
C42 C41 1_555 1_555
H28 C42 1_555 1_555
C43 C42 1_555 1_555
C44 C43 1_555 1_555
H29 C44 1_555 1_555
C45 C40 1_555 1_555
H30 C45 1_555 1_555
C46 O8 1_555 1_555
C47 N7 1_555 1_555
H31 C47 1_555 1_555
C48 C47 1_555 1_555
H32 C48 1_555 1_555
C49 C48 1_555 1_555
H33 C49 1_555 1_555
C50 C49 1_555 1_555
H34 C50 1_555 1_555
C51 N7 1_555 1_555
C52 N8 1_555 1_555
C53 N9 1_555 1_555
C54 N8 1_555 1_555
C55 C53 1_555 1_555
C56 N11 1_555 1_555
H35 C56 1_555 1_555
C57 C56 1_555 1_555
H36 C57 1_555 1_555
C58 C57 1_555 1_555
H37 C58 1_555 1_555
C59 C55 1_555 1_555
H38 C59 1_555 1_555
C60 N12 1_555 1_555
C61 C60 1_555 1_555
H39 C61 1_555 1_555
C62 C61 1_555 1_555
H40 C62 1_555 1_555
C63 C62 1_555 1_555
H41 C63 1_555 1_555
C64 N12 1_555 1_555
H42 C64 1_555 1_555
C65 O9 1_555 1_555
C66 C65 1_555 1_555
C67 C66 1_555 1_555
H43 C67 1_555 1_555
C68 C67 1_555 1_555
H44 C68 1_555 1_555
C69 C68 1_555 1_555
C70 C69 1_555 1_555
H45 C70 1_555 1_555
C71 C66 1_555 1_555
H46 C71 1_555 1_555
C72 C69 1_555 1_555
C73 C72 1_555 1_555
H47 C73 1_555 1_555
C74 C73 1_555 1_555
H48 C74 1_555 1_555
C75 C74 1_555 1_555
C76 C75 1_555 1_555
H49 C76 1_555 1_555
C77 C72 1_555 1_555
H50 C77 1_555 1_555
C78 C75 1_555 1_555
Eu1_2 O11 1_555 1_555
Eu2_2 O3 1_555 1_555
Eu2A O10 1_555 1_555
O3_2 Eu2 1_555 1_555
O4_2 Eu2 1_555 1_555
O10A Eu2 1_555 1_555
O11_2 Eu1 1_555 1_555
O12_2 Eu1 1_555 1_555
O4 Eu2_2 1_555 1_555
O6 C33 1_555 1_555
O12 Eu1_2 1_555 1_555
N4 C22 1_555 1_555
N10 C54 1_555 1_555
C6 C7 1_555 1_555
C12 C13 1_555 1_555
C18 C19 1_555 1_555
C19 C20 1_555 1_555
C22 C28 1_555 1_555
C26 C27 1_555 1_555
C31 C32 1_555 1_555
C38 C39 1_555 1_555
C43 C46 1_555 1_555
C44 C45 1_555 1_555
C50 C51 1_555 1_555
C51 C52 1_555 1_555
C54 C60 1_555 1_555
C58 C59 1_555 1_555
C63 C64 1_555 1_555
C70 C71 1_555 1_555
C76 C77 1_555 1_555

#END
