
#######################################################################
#
#                 Cambridge Crystallographic Data Centre
#                                CCDC 
#
#######################################################################
#
# If this CIF has been generated from an entry in the Cambridge 
# Structural Database, then it will include bibliographic, chemical, 
# crystal, experimental, refinement or atomic coordinate data resulting 
# from the CCDC's data processing and validation procedures.
#
#######################################################################

data_TOGLEG
_symmetry_cell_setting           triclinic
_symmetry_space_group_name_H-M   'P -1'
_symmetry_Int_Tables_number      2
_space_group_name_Hall           '-P 1'
loop_
_symmetry_equiv_pos_site_id
_symmetry_equiv_pos_as_xyz
1 x,y,z
2 -x,-y,-z
_cell_length_a                   7.761(2)
_cell_length_b                   8.867(2)
_cell_length_c                   11.921(2)
_cell_angle_alpha                78.35(3)
_cell_angle_beta                 76.43(3)
_cell_angle_gamma                66.70(3)
_cell_volume                     726.936
loop_
_atom_site_label
_atom_site_type_symbol
_atom_site_fract_x
_atom_site_fract_y
_atom_site_fract_z
Cu1 Cu 0.1941(1) 0.0254(1) 0.3884(1)
Cu2 Cu 0.4332(1) 0.0222(1) 0.1562(1)
Cl1 Cl 0.6598(2) -0.1761(1) 0.0540(1)
Cl2 Cl -0.1863(2) 0.1719(1) 0.4617(1)
Cl3 Cl 0.2444(2) -0.1329(1) 0.2422(1)
N1 N 0.5927(5) 0.1478(4) 0.1671(3)
C1 C 0.7792(6) 0.1135(6) 0.1228(4)
C2 C 0.8709(7) 0.2183(7) 0.1244(5)
C3 C 0.7676(7) 0.3629(7) 0.1722(4)
C4 C 0.5748(7) 0.4015(6) 0.2164(5)
C5 C 0.4942(6) 0.2857(5) 0.2165(4)
C6 C 0.2874(5) 0.3093(5) 0.2772(4)
C7 C 0.2670(6) 0.3044(5) 0.4073(4)
C8 C 0.2656(7) 0.4341(6) 0.4581(4)
C9 C 0.2534(7) 0.4151(6) 0.5760(5)
C10 C 0.2428(8) 0.2711(7) 0.6427(4)
C11 C 0.2403(7) 0.1508(6) 0.5882(4)
N2 N 0.2502(5) 0.1677(5) 0.4723(3)
O1 O 0.2407(4) 0.1832(4) 0.2529(3)
O2 O 0.1590(4) 0.4672(3) 0.2414(3)
C12 C 0.1742(7) 0.5159(6) 0.1185(4)
H1 H 0.8507 0.0124 0.0889
H2 H 1.0037 0.1906 0.0925
H3 H 0.8284 0.4372 0.1754
H4 H 0.4988 0.5051 0.2461
H5 H 0.2731 0.5338 0.4114
H6 H 0.2522 0.5025 0.6128
H7 H 0.2372 0.2561 0.7254
H8 H 0.2313 0.0510 0.6339
H9 H 0.0813 0.6245 0.1034
H10 H 0.1522 0.4388 0.0829
H11 H 0.2995 0.5171 0.0868
Cl2A Cl 0.1863(2) -0.1719(1) 0.5383(1)
Cu2A Cu 0.5668(1) -0.0222(1) -0.1562(1)
Cl1A Cl 0.3402(2) 0.1761(1) -0.0540(1)
loop_
_geom_bond_atom_site_label_1
_geom_bond_atom_site_label_2
_geom_bond_site_symmetry_1
_geom_bond_site_symmetry_2
Cu1 Cl2 1_555 1_555
Cu2 Cl1 1_555 1_555
Cl1 Cu2A 1_555 1_555
Cl3 Cu1 1_555 1_555
N1 Cu2 1_555 1_555
C1 N1 1_555 1_555
C2 C1 1_555 1_555
C3 C2 1_555 1_555
C4 C3 1_555 1_555
C5 N1 1_555 1_555
C6 C5 1_555 1_555
C7 C6 1_555 1_555
C8 C7 1_555 1_555
C9 C8 1_555 1_555
C10 C9 1_555 1_555
C11 C10 1_555 1_555
N2 Cu1 1_555 1_555
O1 Cu1 1_555 1_555
O2 C6 1_555 1_555
C12 O2 1_555 1_555
H1 C1 1_555 1_555
H2 C2 1_555 1_555
H3 C3 1_555 1_555
H4 C4 1_555 1_555
H5 C8 1_555 1_555
H6 C9 1_555 1_555
H7 C10 1_555 1_555
H8 C11 1_555 1_555
H9 C12 1_555 1_555
H10 C12 1_555 1_555
H11 C12 1_555 1_555
Cl2A Cu1 1_555 1_555
Cu2A Cl1A 1_555 1_555
Cl1A Cu2 1_555 1_555
Cu2 Cl3 1_555 1_555
Cu2 O1 1_555 1_555
C4 C5 1_555 1_555
C6 O1 1_555 1_555
C7 N2 1_555 1_555
C11 N2 1_555 1_555

#END
