
#######################################################################
#
#                 Cambridge Crystallographic Data Centre
#                                CCDC 
#
#######################################################################
#
# If this CIF has been generated from an entry in the Cambridge 
# Structural Database, then it will include bibliographic, chemical, 
# crystal, experimental, refinement or atomic coordinate data resulting 
# from the CCDC's data processing and validation procedures.
#
#######################################################################

data_TOGMEJ
_symmetry_cell_setting           triclinic
_symmetry_space_group_name_H-M   'P -1'
_symmetry_Int_Tables_number      2
_space_group_name_Hall           '-P 1'
loop_
_symmetry_equiv_pos_site_id
_symmetry_equiv_pos_as_xyz
1 x,y,z
2 -x,-y,-z
_cell_length_a                   14.0070(14)
_cell_length_b                   16.5418(16)
_cell_length_c                   21.155(2)
_cell_angle_alpha                76.007(2)
_cell_angle_beta                 76.418(2)
_cell_angle_gamma                80.918(2)
_cell_volume                     4596.56
loop_
_atom_site_label
_atom_site_type_symbol
_atom_site_fract_x
_atom_site_fract_y
_atom_site_fract_z
Tb1 Tb 0.313694(17) 0.418016(15) 0.040817(12)
Tb2 Tb 0.322767(17) 1.075535(15) 0.467425(12)
O1 O 0.3341(3) 0.4945(2) -0.06610(17)
O2 O 0.4567(3) 0.5566(3) -0.13752(19)
O3 O 0.2487(3) 0.1780(2) -0.46327(18)
O4 O 0.4083(2) 0.1682(2) -0.49692(18)
O5 O 0.2930(3) 0.4600(2) 0.14627(17)
O6 O 0.3486(2) 0.5543(2) 0.05947(17)
O7 O 0.3097(3) 0.9292(2) 0.46104(18)
O8 O 0.2811(2) 1.0285(2) 0.37551(17)
O9 O 0.3611(2) 0.9975(2) 0.56606(16)
O10 O 0.5161(2) 0.9586(2) 0.58045(16)
O11 O 0.2391(3) 1.3262(2) 0.99380(18)
O12 O 0.4007(3) 1.3162(2) 0.97718(18)
O13 O 0.4831(2) 0.4032(2) 0.04244(19)
H1 H 0.535(3) 0.408(3) 0.0073(18)
H2 H 0.523(3) 0.412(3) 0.067(2)
N1 N 0.3264(3) 0.2773(3) 0.1258(2)
N2 N 0.1526(3) 0.3650(3) 0.1166(2)
N3 N 0.0689(3) 0.2505(3) 0.1795(2)
N4 N -0.0210(3) 0.3752(3) 0.1335(2)
N5 N -0.1045(4) 0.1777(4) 0.2240(3)
N6 N 0.1536(3) 0.5198(3) 0.0404(2)
N7 N 0.1492(3) 1.0365(3) 0.5313(2)
N8 N 0.1727(3) 1.1653(2) 0.42722(19)
N9 N 0.0004(3) 1.1942(3) 0.4373(2)
N10 N 0.1071(3) 1.2725(3) 0.3479(2)
N11 N -0.0541(3) 1.3684(3) 0.3072(2)
N12 N 0.3557(3) 1.2025(3) 0.3693(2)
C1 C 0.3917(4) 0.5104(3) -0.1231(3)
C2 C 0.3766(4) 0.4704(3) -0.1758(2)
C3 C 0.2922(4) 0.4332(3) -0.1705(3)
H3 H 0.2413 0.4350 -0.1335
C4 C 0.2812(4) 0.3939(3) -0.2182(2)
H4 H 0.2231 0.3704 -0.2134
C5 C 0.3567(4) 0.3891(3) -0.2737(3)
C6 C 0.4401(4) 0.4272(3) -0.2795(3)
H5 H 0.4909 0.4256 -0.3166
C7 C 0.4506(4) 0.4677(3) -0.2320(3)
H6 H 0.5075 0.4933 -0.2378
C8 C 0.3484(4) 0.3427(3) -0.3235(3)
C9 C 0.2612(4) 0.3457(3) -0.3443(3)
H7 H 0.2056 0.3790 -0.3275
C10 C 0.2557(4) 0.3001(3) -0.3896(3)
H8 H 0.1961 0.3021 -0.4024
C11 C 0.3379(4) 0.2512(3) -0.4164(3)
C12 C 0.4247(4) 0.2490(3) -0.3963(3)
H9 H 0.4808 0.2168 -0.4137
C13 C 0.4294(4) 0.2942(3) -0.3506(3)
H10 H 0.4889 0.2919 -0.3376
C14 C 0.3312(4) 0.1971(3) -0.4625(3)
C15 C 0.4140(4) 0.2367(4) 0.1342(3)
H11 H 0.4707 0.2590 0.1077
C16 C 0.4240(5) 0.1634(4) 0.1804(3)
H12 H 0.4868 0.1379 0.1851
C17 C 0.3436(4) 0.1279(4) 0.2192(3)
H13 H 0.3499 0.0791 0.2515
C18 C 0.2506(4) 0.1673(4) 0.2090(3)
H14 H 0.1933 0.1435 0.2326
C19 C 0.2461(4) 0.2416(3) 0.1634(3)
C20 C 0.1500(4) 0.2881(3) 0.1528(3)
C21 C -0.0145(4) 0.2965(4) 0.1657(3)
C22 C 0.0658(4) 0.4075(4) 0.1091(3)
C23 C -0.1087(5) 0.2570(5) 0.1883(3)
C24 C -0.1881(6) 0.1409(6) 0.2416(4)
H15 H -0.1871 0.0865 0.2671
C25 C -0.2764(6) 0.1798(5) 0.2237(4)
H16 H -0.3329 0.1519 0.2371
C26 C -0.2791(5) 0.2590(5) 0.1864(4)
H17 H -0.3368 0.2860 0.1730
C27 C -0.1945(4) 0.2987(5) 0.1687(3)
H18 H -0.1948 0.3533 0.1437
C28 C 0.0659(4) 0.4957(4) 0.0713(3)
C29 C -0.0210(5) 0.5481(4) 0.0707(3)
H19 H -0.0812 0.5284 0.0928
C30 C -0.0168(5) 0.6291(4) 0.0373(3)
H20 H -0.0746 0.6654 0.0362
C31 C 0.0739(5) 0.6577(4) 0.0047(3)
H21 H 0.0791 0.7131 -0.0177
C32 C 0.1551(4) 0.5997(4) 0.0075(3)
H22 H 0.2162 0.6173 -0.0152
C33 C 0.3186(4) 0.5326(3) 0.1216(3)
C34 C 0.3114(4) 0.5926(3) 0.1650(3)
C35 C 0.2841(4) 0.5689(3) 0.2328(3)
H23 H 0.2701 0.5142 0.2522
C36 C 0.2769(4) 0.6250(3) 0.2729(3)
H24 H 0.2587 0.6073 0.3188
C37 C 0.2961(4) 0.7075(3) 0.2461(3)
C38 C 0.3233(4) 0.7312(4) 0.1777(3)
H25 H 0.3361 0.7861 0.1581
C39 C 0.3317(4) 0.6742(3) 0.1376(3)
H26 H 0.3512 0.6912 0.0917
C40 C 0.2894(4) 0.7695(3) 0.2887(3)
C41 C 0.3060(4) 0.7444(4) 0.3526(3)
H27 H 0.3176 0.6875 0.3706
C42 C 0.3059(4) 0.8022(3) 0.3905(3)
H28 H 0.3181 0.7841 0.4333
C43 C 0.2872(4) 0.8881(3) 0.3639(3)
C44 C 0.2660(4) 0.9121(3) 0.3013(3)
H29 H 0.2503 0.9687 0.2839
C45 C 0.2675(4) 0.8547(3) 0.2637(3)
H30 H 0.2538 0.8729 0.2213
C46 C 0.2917(4) 0.9518(3) 0.4029(3)
C47 C 0.1411(4) 0.9732(3) 0.5840(3)
H31 H 0.1981 0.9403 0.5939
C48 C 0.0512(4) 0.9543(4) 0.6248(3)
H32 H 0.0480 0.9091 0.6610
C49 C -0.0332(4) 1.0031(4) 0.6110(3)
H33 H -0.0943 0.9923 0.6383
C50 C -0.0259(4) 1.0686(4) 0.5559(3)
H34 H -0.0821 1.1018 0.5448
C51 C 0.0680(4) 1.0838(3) 0.5172(3)
C52 C 0.0805(4) 1.1507(3) 0.4582(3)
C53 C 0.0171(4) 1.2527(3) 0.3820(3)
C54 C 0.1816(4) 1.2281(3) 0.3730(3)
C55 C -0.0705(4) 1.3006(4) 0.3553(3)
C56 C -0.1322(4) 1.4118(4) 0.2854(3)
H35 H -0.1225 1.4598 0.2521
C57 C -0.2278(5) 1.3898(4) 0.3097(3)
H36 H -0.2805 1.4221 0.2927
C58 C -0.2428(4) 1.3199(4) 0.3587(3)
H37 H -0.3059 1.3033 0.3755
C59 C -0.1630(4) 1.2738(4) 0.3832(3)
H38 H -0.1711 1.2264 0.4173
C60 C 0.2834(4) 1.2499(3) 0.3418(3)
C61 C 0.3003(4) 1.3162(3) 0.2883(3)
H39 H 0.2482 1.3463 0.2695
C62 C 0.3945(4) 1.3374(4) 0.2630(3)
H40 H 0.4080 1.3819 0.2270
C63 C 0.4684(4) 1.2908(3) 0.2927(3)
H41 H 0.5331 1.3039 0.2772
C64 C 0.4468(4) 1.2255(3) 0.3447(3)
H42 H 0.4981 1.1950 0.3642
C65 C 0.4280(4) 0.9894(3) 0.5980(2)
C66 C 0.4026(3) 1.0207(3) 0.6611(2)
C67 C 0.3102(4) 1.0605(3) 0.6839(2)
H43 H 0.2590 1.0618 0.6624
C68 C 0.2929(4) 1.0978(3) 0.7372(3)
H44 H 0.2306 1.1247 0.7508
C69 C 0.3675(4) 1.0959(3) 0.7715(3)
C70 C 0.4572(4) 1.0516(3) 0.7512(3)
H45 H 0.5069 1.0464 0.7748
C71 C 0.4750(4) 1.0153(3) 0.6976(3)
H46 H 0.5366 0.9864 0.6852
C72 C 0.3551(4) 1.1424(4) 0.8245(3)
C73 C 0.2644(4) 1.1563(4) 0.8669(3)
H47 H 0.2098 1.1334 0.8636
C74 C 0.2552(4) 1.2037(4) 0.9136(3)
H48 H 0.1944 1.2115 0.9419
C75 C 0.3340(4) 1.2397(3) 0.9192(3)
C76 C 0.4225(4) 1.2262(4) 0.8782(3)
H49 H 0.4769 1.2486 0.8826
C77 C 0.4335(4) 1.1803(4) 0.8308(3)
H50 H 0.4944 1.1742 0.8021
C78 C 0.3242(4) 1.2964(3) 0.9667(3)
Tb1_2 Tb 0.313694(17) 1.418016(15) 1.040817(12)
Tb2_2 Tb 0.322767(17) 0.075535(15) -0.532575(12)
Tb2A Tb 0.677233(17) 0.924465(15) 0.532575(12)
O3_2 O 0.2487(3) 1.1780(2) 0.53673(18)
O4_2 O 0.4083(2) 1.1682(2) 0.50308(18)
O10A O 0.4839(2) 1.0414(2) 0.41955(16)
O11_2 O 0.2391(3) 0.3262(2) -0.00620(18)
O12_2 O 0.4007(3) 0.3162(2) -0.02282(18)
loop_
_geom_bond_atom_site_label_1
_geom_bond_atom_site_label_2
_geom_bond_site_symmetry_1
_geom_bond_site_symmetry_2
Tb1 O1 1_555 1_555
Tb2 O7 1_555 1_555
O1 C1 1_555 1_555
O2 C1 1_555 1_555
O3 C14 1_555 1_555
O4 C14 1_555 1_555
O5 Tb1 1_555 1_555
O6 Tb1 1_555 1_555
O7 C46 1_555 1_555
O8 Tb2 1_555 1_555
O9 Tb2 1_555 1_555
O10 C65 1_555 1_555
O11 C78 1_555 1_555
O12 C78 1_555 1_555
O13 Tb1 1_555 1_555
H1 O13 1_555 1_555
H2 O13 1_555 1_555
N1 Tb1 1_555 1_555
N2 Tb1 1_555 1_555
N3 C20 1_555 1_555
N4 C21 1_555 1_555
N5 C23 1_555 1_555
N6 Tb1 1_555 1_555
N7 Tb2 1_555 1_555
N8 Tb2 1_555 1_555
N9 C52 1_555 1_555
N10 C53 1_555 1_555
N11 C55 1_555 1_555
N12 Tb2 1_555 1_555
C1 C2 1_555 1_555
C2 C3 1_555 1_555
C3 H3 1_555 1_555
C4 C3 1_555 1_555
H4 C4 1_555 1_555
C5 C4 1_555 1_555
C6 C5 1_555 1_555
H5 C6 1_555 1_555
C7 C2 1_555 1_555
H6 C7 1_555 1_555
C8 C5 1_555 1_555
C9 C8 1_555 1_555
H7 C9 1_555 1_555
C10 C9 1_555 1_555
H8 C10 1_555 1_555
C11 C10 1_555 1_555
C12 C11 1_555 1_555
H9 C12 1_555 1_555
C13 C8 1_555 1_555
H10 C13 1_555 1_555
C14 C11 1_555 1_555
C15 N1 1_555 1_555
H11 C15 1_555 1_555
C16 C15 1_555 1_555
H12 C16 1_555 1_555
C17 C16 1_555 1_555
H13 C17 1_555 1_555
C18 C17 1_555 1_555
H14 C18 1_555 1_555
C19 N1 1_555 1_555
C20 N2 1_555 1_555
C21 N3 1_555 1_555
C22 N2 1_555 1_555
C23 C21 1_555 1_555
C24 N5 1_555 1_555
H15 C24 1_555 1_555
C25 C24 1_555 1_555
H16 C25 1_555 1_555
C26 C25 1_555 1_555
H17 C26 1_555 1_555
C27 C23 1_555 1_555
H18 C27 1_555 1_555
C28 N6 1_555 1_555
C29 C28 1_555 1_555
H19 C29 1_555 1_555
C30 C29 1_555 1_555
H20 C30 1_555 1_555
C31 C30 1_555 1_555
H21 C31 1_555 1_555
C32 N6 1_555 1_555
H22 C32 1_555 1_555
C33 O5 1_555 1_555
C34 C33 1_555 1_555
C35 C34 1_555 1_555
H23 C35 1_555 1_555
C36 C35 1_555 1_555
H24 C36 1_555 1_555
C37 C36 1_555 1_555
C38 C37 1_555 1_555
H25 C38 1_555 1_555
C39 C34 1_555 1_555
H26 C39 1_555 1_555
C40 C37 1_555 1_555
C41 C40 1_555 1_555
H27 C41 1_555 1_555
C42 C41 1_555 1_555
H28 C42 1_555 1_555
C43 C42 1_555 1_555
C44 C43 1_555 1_555
H29 C44 1_555 1_555
C45 C40 1_555 1_555
H30 C45 1_555 1_555
C46 O8 1_555 1_555
C47 N7 1_555 1_555
H31 C47 1_555 1_555
C48 C47 1_555 1_555
H32 C48 1_555 1_555
C49 C48 1_555 1_555
H33 C49 1_555 1_555
C50 C49 1_555 1_555
H34 C50 1_555 1_555
C51 N7 1_555 1_555
C52 N8 1_555 1_555
C53 N9 1_555 1_555
C54 N8 1_555 1_555
C55 C53 1_555 1_555
C56 N11 1_555 1_555
H35 C56 1_555 1_555
C57 C56 1_555 1_555
H36 C57 1_555 1_555
C58 C57 1_555 1_555
H37 C58 1_555 1_555
C59 C55 1_555 1_555
H38 C59 1_555 1_555
C60 N12 1_555 1_555
C61 C60 1_555 1_555
H39 C61 1_555 1_555
C62 C61 1_555 1_555
H40 C62 1_555 1_555
C63 C62 1_555 1_555
H41 C63 1_555 1_555
C64 N12 1_555 1_555
H42 C64 1_555 1_555
C65 O9 1_555 1_555
C66 C65 1_555 1_555
C67 C66 1_555 1_555
H43 C67 1_555 1_555
C68 C67 1_555 1_555
H44 C68 1_555 1_555
C69 C68 1_555 1_555
C70 C69 1_555 1_555
H45 C70 1_555 1_555
C71 C66 1_555 1_555
H46 C71 1_555 1_555
C72 C69 1_555 1_555
C73 C72 1_555 1_555
H47 C73 1_555 1_555
C74 C73 1_555 1_555
H48 C74 1_555 1_555
C75 C74 1_555 1_555
C76 C75 1_555 1_555
H49 C76 1_555 1_555
C77 C72 1_555 1_555
H50 C77 1_555 1_555
C78 C75 1_555 1_555
Tb1_2 O11 1_555 1_555
Tb2_2 O3 1_555 1_555
Tb2A O10 1_555 1_555
O3_2 Tb2 1_555 1_555
O4_2 Tb2 1_555 1_555
O10A Tb2 1_555 1_555
O11_2 Tb1 1_555 1_555
O12_2 Tb1 1_555 1_555
O4 Tb2_2 1_555 1_555
O6 C33 1_555 1_555
O12 Tb1_2 1_555 1_555
N4 C22 1_555 1_555
N10 C54 1_555 1_555
C6 C7 1_555 1_555
C12 C13 1_555 1_555
C18 C19 1_555 1_555
C19 C20 1_555 1_555
C22 C28 1_555 1_555
C26 C27 1_555 1_555
C31 C32 1_555 1_555
C38 C39 1_555 1_555
C43 C46 1_555 1_555
C44 C45 1_555 1_555
C50 C51 1_555 1_555
C51 C52 1_555 1_555
C54 C60 1_555 1_555
C58 C59 1_555 1_555
C63 C64 1_555 1_555
C70 C71 1_555 1_555
C76 C77 1_555 1_555

#END
