
#######################################################################
#
#                 Cambridge Crystallographic Data Centre
#                                CCDC 
#
#######################################################################
#
# If this CIF has been generated from an entry in the Cambridge 
# Structural Database, then it will include bibliographic, chemical, 
# crystal, experimental, refinement or atomic coordinate data resulting 
# from the CCDC's data processing and validation procedures.
#
#######################################################################

data_TOGMAF
_symmetry_cell_setting           triclinic
_symmetry_space_group_name_H-M   'P -1'
_symmetry_Int_Tables_number      2
_space_group_name_Hall           '-P 1'
loop_
_symmetry_equiv_pos_site_id
_symmetry_equiv_pos_as_xyz
1 x,y,z
2 -x,-y,-z
_cell_length_a                   14.018(2)
_cell_length_b                   16.567(2)
_cell_length_c                   21.174(3)
_cell_angle_alpha                75.785(3)
_cell_angle_beta                 76.417(3)
_cell_angle_gamma                80.836(3)
_cell_volume                     4606.47
loop_
_atom_site_label
_atom_site_type_symbol
_atom_site_fract_x
_atom_site_fract_y
_atom_site_fract_z
Gd1 Gd 0.313855(17) 0.418711(14) 0.040543(11)
Gd2 Gd 0.322463(16) 1.075044(14) 0.468015(11)
O1 O 0.3335(3) 0.4961(2) -0.06723(16)
O2 O 0.4571(3) 0.5567(3) -0.13856(19)
O3 O 0.2488(3) 0.1791(2) -0.46281(19)
O4 O 0.4085(3) 0.1679(2) -0.49611(18)
O5 O 0.2924(3) 0.4612(2) 0.14632(17)
O6 O 0.3485(3) 0.5561(2) 0.05901(17)
O7 O 0.3094(3) 0.9281(2) 0.46084(18)
O8 O 0.2807(2) 1.0283(2) 0.37551(17)
O9 O 0.3603(2) 0.9965(2) 0.56731(16)
O10 O 0.5153(2) 0.9589(2) 0.58071(16)
O11 O 0.2393(3) 1.3256(2) 0.99339(18)
O12 O 0.4014(3) 1.3161(2) 0.97698(18)
O13 O 0.4840(3) 0.4032(2) 0.04294(18)
H1 H 0.533(3) 0.403(3) 0.0065(17)
H2 H 0.516(3) 0.421(3) 0.068(2)
N1 N 0.3250(3) 0.2775(3) 0.1264(2)
N2 N 0.1518(3) 0.3656(3) 0.1161(2)
N3 N 0.0684(3) 0.2516(3) 0.1792(2)
N4 N -0.0216(3) 0.3752(3) 0.1332(2)
N5 N -0.1041(5) 0.1782(4) 0.2226(3)
N6 N 0.1526(3) 0.5209(3) 0.0402(2)
N7 N 0.1480(3) 1.0365(3) 0.5320(2)
N8 N 0.1721(3) 1.1663(2) 0.4274(2)
N9 N 0.0004(3) 1.1946(3) 0.4370(2)
N10 N 0.1064(3) 1.2733(3) 0.3479(2)
N11 N -0.0548(3) 1.3695(3) 0.3073(2)
N12 N 0.3553(3) 1.2034(3) 0.3694(2)
C1 C 0.3902(4) 0.5113(3) -0.1231(2)
C2 C 0.3774(4) 0.4709(3) -0.1767(2)
C3 C 0.2923(4) 0.4334(3) -0.1698(3)
H3 H 0.2421 0.4351 -0.1325
C4 C 0.2814(4) 0.3938(3) -0.2177(3)
H4 H 0.2234 0.3702 -0.2128
C5 C 0.3564(4) 0.3890(3) -0.2730(2)
C6 C 0.4405(4) 0.4268(3) -0.2792(3)
H5 H 0.4914 0.4244 -0.3161
C7 C 0.4507(4) 0.4676(3) -0.2324(2)
H6 H 0.5076 0.4932 -0.2383
C8 C 0.3489(4) 0.3425(3) -0.3231(3)
C9 C 0.2613(4) 0.3457(4) -0.3443(3)
H7 H 0.2058 0.3794 -0.3281
C10 C 0.2560(4) 0.2999(4) -0.3885(3)
H8 H 0.1960 0.3014 -0.4007
C11 C 0.3373(4) 0.2514(3) -0.4158(3)
C12 C 0.4243(4) 0.2474(3) -0.3951(3)
H9 H 0.4796 0.2140 -0.4119
C13 C 0.4301(4) 0.2927(4) -0.3492(3)
H10 H 0.4895 0.2895 -0.3359
C14 C 0.3311(4) 0.1966(4) -0.4613(3)
C15 C 0.4130(4) 0.2361(4) 0.1352(3)
H11 H 0.4698 0.2577 0.1082
C16 C 0.4231(5) 0.1641(4) 0.1816(3)
H12 H 0.4856 0.1393 0.1876
C17 C 0.3425(5) 0.1290(4) 0.2188(3)
H13 H 0.3484 0.0795 0.2506
C18 C 0.2502(4) 0.1677(4) 0.2091(3)
H14 H 0.1931 0.1438 0.2329
C19 C 0.2460(4) 0.2418(3) 0.1638(3)
C20 C 0.1486(4) 0.2882(3) 0.1529(3)
C21 C -0.0171(4) 0.2986(4) 0.1664(3)
C22 C 0.0654(4) 0.4079(4) 0.1092(3)
C23 C -0.1100(5) 0.2584(4) 0.1873(3)
C24 C -0.1858(7) 0.1396(6) 0.2391(4)
H15 H -0.1833 0.0840 0.2622
C25 C -0.2754(6) 0.1800(5) 0.2228(4)
H16 H -0.3316 0.1519 0.2369
C26 C -0.2806(6) 0.2609(5) 0.1860(4)
H17 H -0.3386 0.2884 0.1733
C27 C -0.1948(5) 0.2987(5) 0.1693(3)
H18 H -0.1950 0.3536 0.1449
C28 C 0.0652(4) 0.4970(4) 0.0712(3)
C29 C -0.0221(5) 0.5495(4) 0.0709(3)
H19 H -0.0820 0.5289 0.0925
C30 C -0.0200(5) 0.6303(4) 0.0394(4)
H20 H -0.0776 0.6670 0.0401
C31 C 0.0727(5) 0.6583(4) 0.0051(3)
H21 H 0.0773 0.7134 -0.0185
C32 C 0.1559(4) 0.6015(4) 0.0076(3)
H22 H 0.2170 0.6197 -0.0142
C33 C 0.3179(3) 0.5316(3) 0.1208(2)
C34 C 0.3113(4) 0.5923(3) 0.1651(3)
C35 C 0.2836(4) 0.5699(3) 0.2331(3)
H23 H 0.2692 0.5154 0.2528
C36 C 0.2767(4) 0.6259(3) 0.2728(3)
H24 H 0.2587 0.6081 0.3188
C37 C 0.2958(4) 0.7081(3) 0.2461(3)
C38 C 0.3231(4) 0.7314(4) 0.1780(3)
H25 H 0.3363 0.7863 0.1585
C39 C 0.3315(4) 0.6747(3) 0.1374(3)
H26 H 0.3508 0.6921 0.0915
C40 C 0.2880(4) 0.7700(3) 0.2878(3)
C41 C 0.3062(4) 0.7432(3) 0.3534(3)
H27 H 0.3187 0.6864 0.3714
C42 C 0.3054(4) 0.8019(3) 0.3907(3)
H28 H 0.3170 0.7839 0.4337
C43 C 0.2875(4) 0.8872(3) 0.3643(3)
C44 C 0.2663(4) 0.9123(3) 0.3012(3)
H29 H 0.2515 0.9689 0.2836
C45 C 0.2670(4) 0.8541(3) 0.2642(3)
H30 H 0.2527 0.8726 0.2219
C46 C 0.2918(4) 0.9509(3) 0.4026(3)
C47 C 0.1394(4) 0.9728(3) 0.5845(3)
H31 H 0.1965 0.9398 0.5942
C48 C 0.0505(4) 0.9531(4) 0.6254(3)
H32 H 0.0482 0.9075 0.6613
C49 C -0.0354(4) 1.0017(4) 0.6124(3)
H33 H -0.0965 0.9909 0.6397
C50 C -0.0265(4) 1.0689(4) 0.5557(3)
H34 H -0.0822 1.1026 0.5442
C51 C 0.0660(4) 1.0834(3) 0.5180(3)
C52 C 0.0786(4) 1.1522(3) 0.4579(2)
C53 C 0.0167(4) 1.2534(3) 0.3818(3)
C54 C 0.1799(4) 1.2287(3) 0.3740(2)
C55 C -0.0712(4) 1.3014(3) 0.3555(3)
C56 C -0.1322(4) 1.4126(4) 0.2848(3)
H35 H -0.1221 1.4599 0.2507
C57 C -0.2270(5) 1.3912(4) 0.3092(3)
H36 H -0.2793 1.4242 0.2923
C58 C -0.2437(5) 1.3207(4) 0.3590(3)
H37 H -0.3068 1.3045 0.3763
C59 C -0.1619(4) 1.2747(4) 0.3822(3)
H38 H -0.1693 1.2263 0.4155
C60 C 0.2823(4) 1.2507(3) 0.3423(3)
C61 C 0.2995(4) 1.3171(3) 0.2880(3)
H39 H 0.2474 1.3470 0.2690
C62 C 0.3930(4) 1.3385(4) 0.2627(3)
H40 H 0.4060 1.3833 0.2267
C63 C 0.4674(4) 1.2919(4) 0.2920(3)
H41 H 0.5320 1.3050 0.2764
C64 C 0.4456(4) 1.2257(3) 0.3444(3)
H42 H 0.4971 1.1947 0.3634
C65 C 0.4278(3) 0.9888(3) 0.5989(2)
C66 C 0.4027(3) 1.0203(3) 0.6627(2)
C67 C 0.3106(3) 1.0598(3) 0.6847(2)
H43 H 0.2593 1.0615 0.6633
C68 C 0.2949(4) 1.0966(3) 0.7387(3)
H44 H 0.2324 1.1227 0.7530
C69 C 0.3685(4) 1.0959(3) 0.7719(3)
C70 C 0.4591(4) 1.0522(3) 0.7509(3)
H45 H 0.5100 1.0481 0.7733
C71 C 0.4743(4) 1.0149(3) 0.6975(2)
H46 H 0.5351 0.9852 0.6849
C72 C 0.3557(4) 1.1427(4) 0.8248(3)
C73 C 0.2649(4) 1.1560(4) 0.8674(3)
H47 H 0.2104 1.1333 0.8637
C74 C 0.2549(4) 1.2027(4) 0.9151(3)
H48 H 0.1946 1.2092 0.9442
C75 C 0.3347(4) 1.2398(3) 0.9199(3)
C76 C 0.4227(4) 1.2267(4) 0.8780(3)
H49 H 0.4768 1.2502 0.8813
C77 C 0.4339(4) 1.1797(4) 0.8312(3)
H50 H 0.4951 1.1725 0.8032
C78 C 0.3248(4) 1.2959(3) 0.9663(3)
Gd1_2 Gd 0.313855(17) 1.418711(14) 1.040543(11)
Gd2_2 Gd 0.322463(16) 0.075044(14) -0.531985(11)
Gd2A Gd 0.677537(16) 0.924956(14) 0.531985(11)
O3_2 O 0.2488(3) 1.1791(2) 0.53719(19)
O4_2 O 0.4085(3) 1.1679(2) 0.50389(18)
O10A O 0.4847(2) 1.0411(2) 0.41929(16)
O11_2 O 0.2393(3) 0.3256(2) -0.00661(18)
O12_2 O 0.4014(3) 0.3161(2) -0.02302(18)
loop_
_geom_bond_atom_site_label_1
_geom_bond_atom_site_label_2
_geom_bond_site_symmetry_1
_geom_bond_site_symmetry_2
Gd1 O1 1_555 1_555
Gd2 O7 1_555 1_555
O1 C1 1_555 1_555
O2 C1 1_555 1_555
O3 C14 1_555 1_555
O4 C14 1_555 1_555
O5 Gd1 1_555 1_555
O6 Gd1 1_555 1_555
O7 C46 1_555 1_555
O8 Gd2 1_555 1_555
O9 Gd2 1_555 1_555
O10 C65 1_555 1_555
O11 C78 1_555 1_555
O12 C78 1_555 1_555
O13 Gd1 1_555 1_555
H1 O13 1_555 1_555
H2 O13 1_555 1_555
N1 Gd1 1_555 1_555
N2 Gd1 1_555 1_555
N3 C20 1_555 1_555
N4 C21 1_555 1_555
N5 C23 1_555 1_555
N6 Gd1 1_555 1_555
N7 Gd2 1_555 1_555
N8 Gd2 1_555 1_555
N9 C52 1_555 1_555
N10 C53 1_555 1_555
N11 C55 1_555 1_555
N12 Gd2 1_555 1_555
C1 C2 1_555 1_555
C2 C3 1_555 1_555
C3 H3 1_555 1_555
C4 C3 1_555 1_555
H4 C4 1_555 1_555
C5 C4 1_555 1_555
C6 C5 1_555 1_555
H5 C6 1_555 1_555
C7 C2 1_555 1_555
H6 C7 1_555 1_555
C8 C5 1_555 1_555
C9 C8 1_555 1_555
H7 C9 1_555 1_555
C10 C9 1_555 1_555
H8 C10 1_555 1_555
C11 C10 1_555 1_555
C12 C11 1_555 1_555
H9 C12 1_555 1_555
C13 C8 1_555 1_555
H10 C13 1_555 1_555
C14 C11 1_555 1_555
C15 N1 1_555 1_555
H11 C15 1_555 1_555
C16 C15 1_555 1_555
H12 C16 1_555 1_555
C17 C16 1_555 1_555
H13 C17 1_555 1_555
C18 C17 1_555 1_555
H14 C18 1_555 1_555
C19 N1 1_555 1_555
C20 N2 1_555 1_555
C21 N3 1_555 1_555
C22 N2 1_555 1_555
C23 C21 1_555 1_555
C24 N5 1_555 1_555
H15 C24 1_555 1_555
C25 C24 1_555 1_555
H16 C25 1_555 1_555
C26 C25 1_555 1_555
H17 C26 1_555 1_555
C27 C23 1_555 1_555
H18 C27 1_555 1_555
C28 N6 1_555 1_555
C29 C28 1_555 1_555
H19 C29 1_555 1_555
C30 C29 1_555 1_555
H20 C30 1_555 1_555
C31 C30 1_555 1_555
H21 C31 1_555 1_555
C32 N6 1_555 1_555
H22 C32 1_555 1_555
C33 O5 1_555 1_555
C34 C33 1_555 1_555
C35 C34 1_555 1_555
H23 C35 1_555 1_555
C36 C35 1_555 1_555
H24 C36 1_555 1_555
C37 C36 1_555 1_555
C38 C37 1_555 1_555
H25 C38 1_555 1_555
C39 C34 1_555 1_555
H26 C39 1_555 1_555
C40 C37 1_555 1_555
C41 C40 1_555 1_555
H27 C41 1_555 1_555
C42 C41 1_555 1_555
H28 C42 1_555 1_555
C43 C42 1_555 1_555
C44 C43 1_555 1_555
H29 C44 1_555 1_555
C45 C40 1_555 1_555
H30 C45 1_555 1_555
C46 O8 1_555 1_555
C47 N7 1_555 1_555
H31 C47 1_555 1_555
C48 C47 1_555 1_555
H32 C48 1_555 1_555
C49 C48 1_555 1_555
H33 C49 1_555 1_555
C50 C49 1_555 1_555
H34 C50 1_555 1_555
C51 N7 1_555 1_555
C52 N8 1_555 1_555
C53 N9 1_555 1_555
C54 N8 1_555 1_555
C55 C53 1_555 1_555
C56 N11 1_555 1_555
H35 C56 1_555 1_555
C57 C56 1_555 1_555
H36 C57 1_555 1_555
C58 C57 1_555 1_555
H37 C58 1_555 1_555
C59 C55 1_555 1_555
H38 C59 1_555 1_555
C60 N12 1_555 1_555
C61 C60 1_555 1_555
H39 C61 1_555 1_555
C62 C61 1_555 1_555
H40 C62 1_555 1_555
C63 C62 1_555 1_555
H41 C63 1_555 1_555
C64 N12 1_555 1_555
H42 C64 1_555 1_555
C65 O9 1_555 1_555
C66 C65 1_555 1_555
C67 C66 1_555 1_555
H43 C67 1_555 1_555
C68 C67 1_555 1_555
H44 C68 1_555 1_555
C69 C68 1_555 1_555
C70 C69 1_555 1_555
H45 C70 1_555 1_555
C71 C66 1_555 1_555
H46 C71 1_555 1_555
C72 C69 1_555 1_555
C73 C72 1_555 1_555
H47 C73 1_555 1_555
C74 C73 1_555 1_555
H48 C74 1_555 1_555
C75 C74 1_555 1_555
C76 C75 1_555 1_555
H49 C76 1_555 1_555
C77 C72 1_555 1_555
H50 C77 1_555 1_555
C78 C75 1_555 1_555
Gd1_2 O11 1_555 1_555
Gd2_2 O3 1_555 1_555
Gd2A O10 1_555 1_555
O3_2 Gd2 1_555 1_555
O4_2 Gd2 1_555 1_555
O10A Gd2 1_555 1_555
O11_2 Gd1 1_555 1_555
O12_2 Gd1 1_555 1_555
O4 Gd2_2 1_555 1_555
O6 C33 1_555 1_555
O12 Gd1_2 1_555 1_555
N4 C22 1_555 1_555
N10 C54 1_555 1_555
C6 C7 1_555 1_555
C12 C13 1_555 1_555
C18 C19 1_555 1_555
C19 C20 1_555 1_555
C22 C28 1_555 1_555
C26 C27 1_555 1_555
C31 C32 1_555 1_555
C38 C39 1_555 1_555
C43 C46 1_555 1_555
C44 C45 1_555 1_555
C50 C51 1_555 1_555
C51 C52 1_555 1_555
C54 C60 1_555 1_555
C58 C59 1_555 1_555
C63 C64 1_555 1_555
C70 C71 1_555 1_555
C76 C77 1_555 1_555

#END
