
#######################################################################
#
#                 Cambridge Crystallographic Data Centre
#                                CCDC 
#
#######################################################################
#
# If this CIF has been generated from an entry in the Cambridge 
# Structural Database, then it will include bibliographic, chemical, 
# crystal, experimental, refinement or atomic coordinate data resulting 
# from the CCDC's data processing and validation procedures.
#
#######################################################################

data_TOGPEM
_symmetry_cell_setting           monoclinic
_symmetry_space_group_name_H-M   'P 21/n'
_symmetry_Int_Tables_number      14
_space_group_name_Hall           '-P 2yn'
loop_
_symmetry_equiv_pos_site_id
_symmetry_equiv_pos_as_xyz
1 x,y,z
2 1/2-x,1/2+y,1/2-z
3 -x,-y,-z
4 1/2+x,1/2-y,1/2+z
_cell_length_a                   10.8861(17)
_cell_length_b                   16.587(2)
_cell_length_c                   12.105(2)
_cell_angle_alpha                90
_cell_angle_beta                 112.746(7)
_cell_angle_gamma                90
_cell_volume                     2015.78
loop_
_atom_site_label
_atom_site_type_symbol
_atom_site_fract_x
_atom_site_fract_y
_atom_site_fract_z
Zn1 Zn 0.34166(2) 0.221000(15) 0.23533(2)
O1 O 0.53064(17) 0.23262(11) 0.26082(15)
O2 O 0.47149(18) 0.19869(14) 0.07051(16)
O3 O 0.8047(2) 0.24952(13) -0.12217(16)
O4 O 0.9076(2) 0.36563(12) -0.06605(17)
O5 O 0.97502(18) 0.37175(13) 0.37441(15)
H1 H 0.9647 0.3544 0.4337
N1 N 0.23825(19) 0.13144(12) 0.12611(17)
N2 N 0.20115(19) 0.02402(12) 0.01148(16)
N3 N 0.2966(2) -0.08157(13) -0.50780(19)
N4 N 0.2394(2) -0.17679(12) -0.64398(17)
C1 C 0.5528(2) 0.22844(14) 0.1647(2)
C2 C 0.6812(2) 0.26377(13) 0.16828(19)
C3 C 0.7092(2) 0.26367(13) 0.06486(19)
H2 H 0.6516 0.2384 -0.0044
C4 C 0.8235(2) 0.30156(13) 0.06609(18)
C5 C 0.8484(2) 0.30691(14) -0.04764(19)
C6 C 0.9123(2) 0.33704(14) 0.17037(19)
H3 H 0.9892 0.3617 0.1710
C7 C 0.8857(2) 0.33549(14) 0.27384(19)
C8 C 0.7693(2) 0.29999(14) 0.27232(19)
H4 H 0.7504 0.3005 0.3409
C9 C 0.1239(2) 0.14291(16) 0.0256(2)
H5 H 0.0711 0.1890 0.0089
C10 C 0.1003(3) 0.07705(17) -0.0451(2)
H6 H 0.0293 0.0693 -0.1179
C11 C 0.2811(2) 0.05971(15) 0.1127(2)
H7 H 0.3584 0.0364 0.1674
C12 C 0.2168(3) -0.05871(16) -0.0276(2)
H8 H 0.1634 -0.0957 -0.0027
H9 H 0.3092 -0.0750 0.0111
C13 C 0.1747(3) -0.06386(15) -0.1621(2)
C14 C 0.2651(2) -0.04935(15) -0.2151(2)
H10 H 0.3520 -0.0347 -0.1676
C15 C 0.2274(3) -0.05647(15) -0.3380(2)
C16 C 0.0965(3) -0.07644(18) -0.4087(2)
H11 H 0.0694 -0.0804 -0.4913
C17 C 0.0069(3) -0.0904(2) -0.3558(3)
H12 H -0.0808 -0.1035 -0.4034
C18 C 0.0454(3) -0.0853(2) -0.2331(3)
H13 H -0.0155 -0.0962 -0.1983
C19 C 0.3315(3) -0.04310(19) -0.3910(3)
H14 H 0.3421 0.0144 -0.3993
H15 H 0.4162 -0.0643 -0.3363
C20 C 0.2840(3) -0.04569(16) -0.6133(2)
H16 H 0.2970 0.0085 -0.6253
C21 C 0.2487(3) -0.10500(16) -0.6967(2)
H17 H 0.2332 -0.0981 -0.7772
C22 C 0.2702(3) -0.15959(15) -0.5300(2)
H18 H 0.2731 -0.1974 -0.4723
Zn1A Zn 0.15834(2) -0.279000(15) -0.73533(2)
Zn1C Zn 0.84166(2) 0.279000(15) -0.26467(2)
O3C O 0.3047(2) 0.25048(13) 0.37783(16)
N4A N 0.2606(2) 0.32321(12) 0.14398(17)
loop_
_geom_bond_atom_site_label_1
_geom_bond_atom_site_label_2
_geom_bond_site_symmetry_1
_geom_bond_site_symmetry_2
Zn1 O1 1_555 1_555
O1 C1 1_555 1_555
O2 C1 1_555 1_555
O3 C5 1_555 1_555
O4 C5 1_555 1_555
O5 H1 1_555 1_555
N1 Zn1 1_555 1_555
N2 C10 1_555 1_555
N3 C19 1_555 1_555
N4 C21 1_555 1_555
C1 C2 1_555 1_555
C2 C3 1_555 1_555
C3 H2 1_555 1_555
C4 C3 1_555 1_555
C5 C4 1_555 1_555
C6 C4 1_555 1_555
H3 C6 1_555 1_555
C7 O5 1_555 1_555
C8 C2 1_555 1_555
H4 C8 1_555 1_555
C9 N1 1_555 1_555
H5 C9 1_555 1_555
C10 C9 1_555 1_555
H6 C10 1_555 1_555
C11 N1 1_555 1_555
H7 C11 1_555 1_555
C12 N2 1_555 1_555
H8 C12 1_555 1_555
H9 C12 1_555 1_555
C13 C12 1_555 1_555
C14 C13 1_555 1_555
H10 C14 1_555 1_555
C15 C14 1_555 1_555
C16 C15 1_555 1_555
H11 C16 1_555 1_555
C17 C16 1_555 1_555
H12 C17 1_555 1_555
C18 C13 1_555 1_555
H13 C18 1_555 1_555
C19 C15 1_555 1_555
H14 C19 1_555 1_555
H15 C19 1_555 1_555
C20 N3 1_555 1_555
H16 C20 1_555 1_555
C21 C20 1_555 1_555
H17 C21 1_555 1_555
C22 N3 1_555 1_555
H18 C22 1_555 1_555
Zn1A N4 1_555 1_555
Zn1C O3 1_555 1_555
O3C Zn1 1_555 1_555
N4A Zn1 1_555 1_555
N2 C11 1_555 1_555
N4 C22 1_555 1_555
C6 C7 1_555 1_555
C7 C8 1_555 1_555
C17 C18 1_555 1_555

#END
