
#######################################################################
#
#                 Cambridge Crystallographic Data Centre
#                                CCDC 
#
#######################################################################
#
# If this CIF has been generated from an entry in the Cambridge 
# Structural Database, then it will include bibliographic, chemical, 
# crystal, experimental, refinement or atomic coordinate data resulting 
# from the CCDC's data processing and validation procedures.
#
#######################################################################

data_TOGTEQ
_symmetry_cell_setting           triclinic
_symmetry_space_group_name_H-M   'P -1'
_symmetry_Int_Tables_number      2
_space_group_name_Hall           '-P 1'
loop_
_symmetry_equiv_pos_site_id
_symmetry_equiv_pos_as_xyz
1 x,y,z
2 -x,-y,-z
_cell_length_a                   9.919(4)
_cell_length_b                   10.581(5)
_cell_length_c                   11.778(5)
_cell_angle_alpha                93.218(5)
_cell_angle_beta                 108.581(5)
_cell_angle_gamma                99.020(5)
_cell_volume                     1149.76
loop_
_atom_site_label
_atom_site_type_symbol
_atom_site_fract_x
_atom_site_fract_y
_atom_site_fract_z
I1 I 0.46879(3) 0.70195(3) 0.54241(3)
I2 I 0.88676(3) 0.97711(3) 0.67829(3)
Zn1 Zn 0.69260(5) 0.82491(4) 0.50738(4)
S1 S 0.84511(12) 1.27430(12) -0.07646(11)
S2 S 0.67429(12) 1.36578(12) -0.12108(11)
N1 N 0.5933(3) 1.2110(3) 0.0306(3)
N2 N 0.8966(3) 1.4180(3) 0.1345(3)
N3 N 1.0855(4) 1.3204(3) 0.1034(3)
C1 C 0.4932(4) 1.1636(4) 0.0786(4)
N4 N 0.4293(4) 1.3354(4) -0.0870(4)
C2 C 0.5539(4) 1.2915(4) -0.0492(4)
C3 C 0.9529(4) 1.3479(4) 0.0709(4)
C4 C 0.3593(5) 1.2008(5) 0.0457(4)
H1 H 0.2897 1.1686 0.0793
C5 C 0.3329(5) 1.2872(6) -0.0386(5)
H2 H 0.2432 1.3124 -0.0621
C6 C 0.5362(4) 1.0759(4) 0.1730(3)
C7 C 0.4380(4) 1.0075(4) 0.2177(4)
H3 H 0.3402 1.0106 0.1847
C8 C 0.9856(4) 1.4700(4) 0.2451(4)
C9 C 1.1263(4) 1.4478(4) 0.2868(4)
H4 H 1.1888 1.4833 0.3629
C10 C 1.1704(5) 1.3720(4) 0.2127(4)
H5 H 1.2643 1.3560 0.2405
C11 C 0.6805(4) 1.0635(4) 0.2238(4)
H6 H 0.7509 1.1053 0.1953
C12 C 0.9217(4) 1.5478(4) 0.3149(3)
C13 C 0.7743(4) 1.5246(4) 0.2950(4)
H7 H 0.7145 1.4569 0.2388
C14 C 1.0053(4) 1.6494(4) 0.4014(4)
H8 H 1.1051 1.6676 0.4194
C15 C 0.4838(4) 0.9350(4) 0.3104(4)
H9 H 0.4152 0.8907 0.3394
C16 C 0.7170(4) 0.9888(5) 0.3163(5)
H10 H 0.8138 0.9822 0.3498
N5 N 0.6221(3) 0.9249(3) 0.3613(3)
C17 C 0.7165(4) 1.6005(4) 0.3573(4)
H11 H 0.6172 1.5819 0.3427
C18 C 0.9393(4) 1.7226(4) 0.4601(4)
H12 H 0.9964 1.7905 0.5172
N6 N 0.7950(3) 1.7001(3) 0.4381(3)
Zn1_2 Zn 0.69260(5) 1.82491(4) 0.50738(4)
N6_2 N 0.7950(3) 0.7001(3) 0.4381(3)
loop_
_geom_bond_atom_site_label_1
_geom_bond_atom_site_label_2
_geom_bond_site_symmetry_1
_geom_bond_site_symmetry_2
I1 Zn1 1_555 1_555
I2 Zn1 1_555 1_555
Zn1 N5 1_555 1_555
S1 S2 1_555 1_555
S2 C2 1_555 1_555
N1 C1 1_555 1_555
N2 C3 1_555 1_555
N3 C3 1_555 1_555
C1 C4 1_555 1_555
N4 C2 1_555 1_555
C2 N1 1_555 1_555
C3 S1 1_555 1_555
C4 H1 1_555 1_555
C5 N4 1_555 1_555
H2 C5 1_555 1_555
C6 C1 1_555 1_555
C7 C6 1_555 1_555
H3 C7 1_555 1_555
C8 N2 1_555 1_555
C9 C8 1_555 1_555
H4 C9 1_555 1_555
C10 N3 1_555 1_555
H5 C10 1_555 1_555
C11 C6 1_555 1_555
H6 C11 1_555 1_555
C12 C8 1_555 1_555
C13 C12 1_555 1_555
H7 C13 1_555 1_555
C14 C12 1_555 1_555
H8 C14 1_555 1_555
C15 C7 1_555 1_555
H9 C15 1_555 1_555
C16 C11 1_555 1_555
H10 C16 1_555 1_555
N5 C15 1_555 1_555
C17 C13 1_555 1_555
H11 C17 1_555 1_555
C18 C14 1_555 1_555
H12 C18 1_555 1_555
N6 C17 1_555 1_555
Zn1_2 N6 1_555 1_555
N6_2 Zn1 1_555 1_555
C4 C5 1_555 1_555
C9 C10 1_555 1_555
C16 N5 1_555 1_555
C18 N6 1_555 1_555

#END
