
#######################################################################
#
#                 Cambridge Crystallographic Data Centre
#                                CCDC 
#
#######################################################################
#
# If this CIF has been generated from an entry in the Cambridge 
# Structural Database, then it will include bibliographic, chemical, 
# crystal, experimental, refinement or atomic coordinate data resulting 
# from the CCDC's data processing and validation procedures.
#
#######################################################################

data_TOGWUH01
_symmetry_cell_setting           monoclinic
_symmetry_space_group_name_H-M   'P 21/n'
_symmetry_Int_Tables_number      14
_space_group_name_Hall           '-P 2yn'
loop_
_symmetry_equiv_pos_site_id
_symmetry_equiv_pos_as_xyz
1 x,y,z
2 1/2-x,1/2+y,1/2-z
3 -x,-y,-z
4 1/2+x,1/2-y,1/2+z
_cell_length_a                   23.090(7)
_cell_length_b                   13.376(4)
_cell_length_c                   23.093(6)
_cell_angle_alpha                90
_cell_angle_beta                 107.06(2)
_cell_angle_gamma                90
_cell_volume                     6818.48
loop_
_atom_site_label
_atom_site_type_symbol
_atom_site_fract_x
_atom_site_fract_y
_atom_site_fract_z
Sr1 Sr 0.7957(1) -0.4306(1) -0.2434(1)
Sr2 Sr 0.7991(1) -0.7169(1) -0.3051(1)
Sr3 Sr 0.7461(1) -0.2034(1) -0.0076(1)
Sr4 Sr 0.8077(1) -0.1962(1) 0.1776(1)
Sr5 Sr 0.7440(1) 0.0509(1) 0.2469(1)
Sr6 Sr 0.9967(1) -0.7896(1) -0.2363(1)
O1 O 0.7647(3) -0.6049(5) -0.2288(3)
O2 O 0.7204(4) -0.7496(5) -0.2292(3)
O3 O 0.7426(4) -0.5522(6) -0.1224(4)
O4 O 0.8670(3) -0.5630(5) -0.2719(3)
O5 O 0.9623(3) -0.6164(5) -0.2557(4)
O6 O 0.9022(3) -0.3717(5) -0.2644(4)
O7 O 0.7960(3) -0.3258(5) -0.1500(3)
O8 O 0.8082(4) -0.3149(6) -0.0503(3)
O9 O 0.8774(4) -0.4728(6) -0.1329(3)
O10 O 0.7467(3) -0.6032(5) -0.3973(3)
O11 O 0.7449(4) -0.4569(6) -0.3508(3)
O12 O 0.6876(3) -0.5240(5) -0.5046(3)
O13 O 0.7337(3) -0.1105(5) 0.0861(3)
O14 O 0.7263(4) 0.0313(6) 0.1353(3)
O15 O 0.6722(3) -0.0308(6) -0.0199(3)
O16 O 1.1580(3) -0.6770(5) -0.2651(3)
O17 O 1.0675(3) -0.7490(5) -0.2974(3)
O18 O 1.1207(4) -0.5091(6) -0.3207(4)
O19 O 0.7480(3) -0.3587(5) 0.1493(3)
O20 O 0.7275(4) -0.3514(6) 0.0492(3)
O21 O 0.6865(4) -0.5300(5) 0.1413(3)
O22 O 0.7313(3) -0.1400(5) 0.2357(3)
O23 O 0.7045(4) -0.2910(5) 0.2601(4)
O24 O 0.6744(4) -0.0521(5) 0.3095(4)
O25 O 0.9102(3) -0.2828(5) 0.1552(3)
O26 O 0.8419(3) -0.2131(6) 0.0787(3)
O27 O 1.0004(3) -0.2374(6) 0.1090(3)
O28 O 0.6089(3) -0.3012(5) -0.2790(3)
O29 O 0.6886(3) -0.3963(5) -0.2479(3)
O30 O 0.5385(3) -0.4564(5) -0.3273(3)
O31 O 1.0880(3) -0.9148(5) -0.2003(3)
O32 O 1.1572(3) -0.9777(5) -0.2403(3)
O33 O 0.9974(3) -0.9930(6) -0.2878(4)
O34 O 0.9194(3) -0.8189(7) -0.3367(3)
O35 O 0.8363(3) -0.7537(6) -0.3965(3)
O36 O 0.8810(4) -0.7457(7) -0.4889(4)
C1 C 0.7382(5) -0.667(7) -0.2038(5)
C2 C 0.7288(5) -0.6453(8) -0.1460(4)
C3 C 0.7092(7) -0.7042(10) -0.1080(5)
C4 C 0.7124(8) -0.6437(11) -0.0568(7)
C5 C 0.7327(8) -0.5509(12) -0.0660(6)
C6 C 0.9237(4) -0.5487(7) -0.2622(4)
C7 C 0.9467(5) -0.4467(8) -0.2572(5)
C8 C 1.0006(6) -0.4040(11) -0.2498(8)
C9 C 0.9919(7) -0.2973(11) -0.2498(9)
C10 C 0.9323(6) -0.2813(10) -0.2573(8)
C11 C 0.8203(4) -0.3498(8) -0.0956(4)
C12 C 0.8662(5) -0.4289(9) -0.0833(4)
C13 C 0.8999(7) -0.4707(11) -0.0323(7)
C14 C 0.9346(9) -0.5488(15) -0.0496(7)
C15 C 0.9196(7) -0.5487(12) -0.1112(6)
C16 C 0.7325(5) -0.5124(7) -0.3959(4)
C17 C 0.6984(5) -0.4655(8) -0.4538(4)
C18 C 0.6734(5) -0.3750(9) -0.4678(5)
C19 C 0.6441(6) -0.3751(9) -0.5330(5)
C20 C 0.6542(5) -0.4677(9) -0.5532(5)
C21 C 0.7162(5) -0.0220(9) 0.0889(5)
C22 C 0.6815(5) 0.0260(8) 0.0324(4)
C23 C 0.6531(7) 0.1158(10) 0.0178(7)
C24 C 0.6251(6) 0.1143(13) -0.0470(7)
C25 C 0.6386(6) 0.0238(12) -0.0668(6)
C26 C 1.1036(4) -0.6792(7) -0.2949(4)
C27 C 1.0806(4) -0.5889(8) -0.3327(5)
C28 C 1.0307(6) -0.5675(13) -0.3759(7)
C29 C 1.0353(8) -0.4667(13) -0.3961(8)
C30 C 1.0922(7) -0.4349(11) -0.3591(8)
C31 C 0.7229(5) -0.3912(8) 0.0959(4)
C32 C 0.6840(5) -0.4804(8) 0.0884(5)
C33 C 0.6461(5) -0.5256(9) 0.0415(5)
C34 C 0.6236(6) -0.6126(10) 0.0656(6)
C35 C 0.6475(6) -0.6085(10) 0.1263(6)
C36 C 0.7079(5) -0.1977(10) 0.2657(5)
C37 C 0.6800(5) -0.1528(9) 0.3102(5)
C38 C 0.6621(9) -0.1939(11) 0.3551(8)
C39 C 0.6419(11) -0.1108(13) 0.3838(10)
C40 C 0.6516(7) -0.0292(10) 0.3575(7)
C41 C 0.8941(4) -0.2418(7) 0.1042(4)
C42 C 0.9415(4) -0.2155(9) 0.0748(5)
C43 C 0.9402(6) -0.1716(11) 0.0216(5)
C44 C 1.0031(6) -0.1612(11) 0.0228(5)
C45 C 1.0369(5) -0.2017(11) 0.0757(5)
C46 C 0.6353(4) -0.3838(8) -0.2757(4)
C47 C 0.5997(4) -0.4704(8) -0.3070(5)
C48 C 0.6147(5) -0.5612(9) -0.3241(5)
C49 C 0.5579(6) -0.6088(9) -0.3562(6)
C50 C 0.5224(6) -0.5416(10) -0.3558(6)
C51 C 1.1026(5) -0.9681(7) -0.2383(4)
C52 C 1.0563(5) -1.0209(8) -0.2836(5)
C53 C 1.0543(7) -1.0863(12) -0.3285(7)
C54 C 0.9891(8) -1.1035(14) -0.3612(8)
C55 C 0.9582(7) -1.0449(12) -0.3334(6)
C56 C 0.8888(4) -0.7858(8) -0.3852(4)
C57 C 0.9146(5) -0.7882(10) -0.4356(4)
C58 C 0.9671(6) -0.8269(17) -0.4422(8)
C59 C 0.9643(8) -0.8058(24) -0.5035(8)
C60 C 0.9123(8) -0.7606(18) -0.5308(7)
Sr2A Sr 0.7009(1) -0.2169(1) -0.1949(1)
O2A O 0.7796(4) -0.2496(5) -0.2708(3)
Sr1A Sr 0.7043(1) -0.9306(1) -0.2566(1)
Sr3A Sr 0.7539(1) -0.7034(1) -0.4924(1)
O7A O 0.7040(3) -0.8258(5) -0.3500(3)
O28A O 0.8911(3) -0.8012(5) -0.2210(3)
O29A O 0.8114(3) -0.8963(5) -0.2521(3)
C46A C 0.8647(4) -0.8838(8) -0.2243(4)
O10A O 0.7533(3) -0.1032(5) -0.1027(3)
O12A O 0.8124(3) -0.0240(5) 0.0046(3)
O35A O 0.6637(3) -0.2537(6) -0.1035(3)
O36A O 0.6190(4) -0.2457(7) -0.0111(4)
Sr5A Sr 0.7560(1) -0.4491(1) 0.2531(1)
Sr6B Sr 1.0033(1) -0.2104(1) 0.2363(1)
O16B O 0.8420(3) -0.3230(5) 0.2651(3)
O31B O 0.9120(3) -0.0852(5) 0.2003(3)
O32B O 0.8428(3) -0.0223(5) 0.2403(3)
C51B C 0.8974(5) -0.0319(7) 0.2383(4)
Sr4A Sr 0.6923(1) 0.3038(1) 0.3224(1)
O16C O 0.6580(3) 0.1770(5) 0.2349(3)
O18C O 0.6207(4) 0.0091(6) 0.1793(4)
O19A O 0.7520(3) 0.1413(5) 0.3507(3)
O21A O 0.8135(4) -0.0300(5) 0.3587(3)
O23A O 0.7955(4) 0.2090(5) 0.2399(4)
Sr4B Sr 1.1923(1) -0.8038(1) -0.1776(1)
O25B O 1.0898(3) -0.7172(5) -0.1552(3)
O27B O 0.9996(3) -0.7626(6) -0.1090(3)
O30A O 0.9615(3) -0.9564(5) -0.1727(3)
Sr5C Sr 1.2440(1) -0.5509(1) -0.2531(1)
Sr6A Sr 0.5033(1) -0.2896(1) -0.2637(1)
Sr5B Sr 1.2560(1) -1.0509(1) -0.2469(1)
Sr1A_2 Sr 0.7043(1) 0.0694(1) -0.2566(1)
O1A O 0.7353(3) -0.1049(5) -0.2712(3)
O4A O 0.6330(3) -0.0630(5) -0.2281(3)
C1A C 0.7618(5) -0.167(7) -0.2962(5)
Sr2A_2 Sr 0.7009(1) -1.2169(1) -0.1949(1)
O1A_2 O 0.7353(3) -1.1049(5) -0.2712(3)
O4A_2 O 0.6330(3) -1.0630(5) -0.2281(3)
O6A O 0.5978(3) -0.8717(5) -0.2356(4)
O9A O 0.6226(4) -0.9728(6) -0.3671(3)
O11A O 0.7551(4) -0.9569(6) -0.1492(3)
Sr4A_2 Sr 0.6923(1) -0.6962(1) -0.6776(1)
O8A O 0.6918(4) -0.8149(6) -0.4497(3)
O13A O 0.7663(3) -0.6105(5) -0.5861(3)
O15A O 0.8278(3) -0.5308(6) -0.4801(3)
O20A O 0.7725(4) -0.8514(6) -0.5492(3)
O26A O 0.6581(3) -0.7131(6) -0.5787(3)
C11A C 0.6797(4) -0.8498(8) -0.4044(4)
C47A C 0.9003(4) -0.9704(8) -0.1930(5)
C16A C 0.7675(5) -0.0124(7) -0.1041(4)
C17A C 0.8016(5) 0.0345(8) -0.0462(4)
C20A C 0.8458(5) 0.0323(9) 0.0532(5)
C56A C 0.6112(4) -0.2858(8) -0.1148(4)
C57A C 0.5854(5) -0.2882(10) -0.0644(4)
C60A C 0.5877(8) -0.2606(18) 0.0308(7)
Sr4A_3 Sr 0.6923(1) -0.6962(1) 0.3224(1)
O14A O 0.7737(4) -0.4687(6) 0.3647(3)
O18B O 0.8793(4) -0.4909(6) 0.3207(4)
O22A O 0.7687(3) -0.6400(5) 0.2643(3)
O24A O 0.8256(4) -0.5521(5) 0.1905(4)
O32C O 0.6572(3) -0.5223(5) 0.2597(3)
Sr2B Sr 1.2009(1) -0.2831(1) 0.3051(1)
O5B O 1.0377(3) -0.3836(5) 0.2557(4)
O17B O 0.9325(3) -0.2510(5) 0.2974(3)
O28C O 1.1089(3) -0.1988(5) 0.2210(3)
O30C O 1.0385(3) -0.0436(5) 0.1727(3)
O33B O 1.0026(3) -0.0070(6) 0.2878(4)
O34B O 1.0806(3) -0.1811(7) 0.3367(3)
C26B C 0.8964(4) -0.3208(7) 0.2949(4)
C52B C 0.9437(5) 0.0209(8) 0.2836(5)
Sr3A_2 Sr 0.7539(1) 0.2966(1) 0.5076(1)
Sr5A_2 Sr 0.7560(1) 0.5509(1) 0.2531(1)
Sr6C Sr 0.4967(1) 0.2896(1) 0.2637(1)
O13A_2 O 0.7663(3) 0.3895(5) 0.4139(3)
O22A_2 O 0.7687(3) 0.3600(5) 0.2643(3)
O25A O 0.5898(3) 0.2172(5) 0.3448(3)
O26A_2 O 0.6581(3) 0.2869(6) 0.4213(3)
O31C O 0.5880(3) 0.4148(5) 0.2997(3)
O32C_2 O 0.6572(3) 0.4777(5) 0.2597(3)
C41A C 0.6059(4) 0.2582(7) 0.3958(4)
C51C C 0.6026(5) 0.4681(7) 0.2617(4)
C26C C 0.6036(4) 0.1792(7) 0.2051(4)
C27C C 0.5806(4) 0.0889(8) 0.1673(5)
C30C C 0.5922(7) -0.0651(11) 0.1409(8)
C31A C 0.7771(5) 0.1088(8) 0.4041(4)
C32A C 0.8160(5) 0.0196(8) 0.4116(5)
C35A C 0.8525(6) -0.1085(10) 0.3737(6)
C36A C 0.7921(5) 0.3023(10) 0.2343(5)
Sr3B Sr 1.2539(1) -0.7966(1) 0.0076(1)
O13B O 1.2663(3) -0.8895(5) -0.0861(3)
O19B O 1.2520(3) -0.6413(5) -0.1493(3)
O22B O 1.2687(3) -0.8600(5) -0.2357(3)
O26B O 1.1581(3) -0.7869(6) -0.0787(3)
C41B C 1.1059(4) -0.7582(7) -0.1042(4)
C42B C 1.0585(4) -0.7845(9) -0.0748(5)
C45B C 0.9631(5) -0.7983(11) -0.0757(5)
C50A C 0.9776(6) -1.0416(10) -0.1442(6)
Sr4C Sr 1.3077(1) -0.3038(1) -0.3224(1)
O14C O 1.2263(4) -0.5313(6) -0.3647(3)
O21B O 1.3135(4) -0.4700(5) -0.1413(3)
O22C O 1.2313(3) -0.3600(5) -0.2643(3)
O23B O 1.2955(4) -0.7090(5) -0.2601(4)
O24C O 1.1744(4) -0.4479(5) -0.1905(4)
O32A O 1.3428(3) -0.4777(5) -0.2597(3)
Sr4C_2 Sr 0.3077(1) -0.3038(1) -0.3224(1)
O5A O 0.5377(3) -0.1164(5) -0.2443(4)
O17A O 0.4325(3) -0.2490(5) -0.2026(3)
O25C O 0.4102(3) -0.2172(5) -0.3448(3)
O27C O 0.5004(3) -0.2626(6) -0.3910(3)
O31A O 0.4120(3) -0.4148(5) -0.2997(3)
O33A O 0.5026(3) -0.4930(6) -0.2122(4)
O34A O 0.5806(3) -0.3189(7) -0.1633(3)
Sr4C_3 Sr 1.3077(1) -1.3038(1) -0.3224(1)
O14B O 1.2737(4) -1.0313(6) -0.1353(3)
O16A O 1.3420(3) -1.1770(5) -0.2349(3)
O18A O 1.3793(4) -1.0091(6) -0.1793(4)
O19C O 1.2480(3) -1.1413(5) -0.3507(3)
O21C O 1.1865(4) -0.9700(5) -0.3587(3)
O23C O 1.2045(4) -1.2090(5) -0.2399(4)
O24B O 1.3256(4) -0.9479(5) -0.3095(4)
Sr2_2 Sr 0.7991(1) 0.2831(1) -0.3051(1)
O2_2 O 0.7204(4) 0.2504(5) -0.2292(3)
O6A_2 O 0.5978(3) 0.1283(5) -0.2356(4)
O7A_2 O 0.7040(3) 0.1742(5) -0.3500(3)
O9A_2 O 0.6226(4) 0.0272(6) -0.3671(3)
O11A_2 O 0.7551(4) 0.0431(6) -0.1492(3)
O29A_2 O 0.8114(3) 0.1037(5) -0.2521(3)
C6A C 0.5763(4) -0.0487(7) -0.2378(4)
C2A C 0.7712(5) -0.1453(8) -0.3540(4)
Sr1_2 Sr 0.7957(1) -1.4306(1) -0.2434(1)
Sr3_2 Sr 0.7461(1) -1.2034(1) -0.0076(1)
Sr6A_2 Sr 0.5033(1) -1.2896(1) -0.2637(1)
O2A_2 O 0.7796(4) -1.2496(5) -0.2708(3)
O7_2 O 0.7960(3) -1.3258(5) -0.1500(3)
O10A_2 O 0.7533(3) -1.1032(5) -0.1027(3)
O28_2 O 0.6089(3) -1.3012(5) -0.2790(3)
O29_2 O 0.6886(3) -1.3963(5) -0.2479(3)
O35A_2 O 0.6637(3) -1.2537(6) -0.1035(3)
C1A_2 C 0.7618(5) -1.167(7) -0.2962(5)
C46_2 C 0.6353(4) -1.3838(8) -0.2757(4)
C6A_2 C 0.5763(4) -1.0487(7) -0.2378(4)
C7A C 0.5533(5) -0.9467(8) -0.2428(5)
C10A C 0.5677(6) -0.7813(10) -0.2427(8)
C12A C 0.6338(5) -0.9289(9) -0.4167(4)
C15A C 0.5804(7) -1.0487(12) -0.3888(6)
C16A_2 C 0.7675(5) -1.0124(7) -0.1041(4)
Sr5_2 Sr 0.7440(1) -0.9491(1) -0.7531(1)
Sr5A_3 Sr 0.7560(1) -0.4491(1) -0.7469(1)
Sr6C_2 Sr 0.4967(1) -0.7104(1) -0.7363(1)
O16C_2 O 0.6580(3) -0.8230(5) -0.7651(3)
O19A_2 O 0.7520(3) -0.8587(5) -0.6493(3)
O22A_3 O 0.7687(3) -0.6400(5) -0.7357(3)
O25A_2 O 0.5898(3) -0.7828(5) -0.6552(3)
O31C_2 O 0.5880(3) -0.5852(5) -0.7003(3)
O32C_3 O 0.6572(3) -0.5223(5) -0.7403(3)
C41A_2 C 0.6059(4) -0.7418(7) -0.6042(4)
C51C_2 C 0.6026(5) -0.5319(7) -0.7383(4)
C21A C 0.7838(5) -0.5220(9) -0.5889(5)
C22A C 0.8185(5) -0.4740(8) -0.5324(4)
C25A C 0.8614(6) -0.4762(12) -0.4332(6)
C31A_2 C 0.7771(5) -0.8912(8) -0.5959(4)
C48A C 0.8853(5) -1.0612(9) -0.1759(5)
C18A C 0.8266(5) 0.1250(9) -0.0322(5)
C19A C 0.8559(6) 0.1249(9) 0.0330(5)
C58A C 0.5329(6) -0.3269(17) -0.0578(8)
C59A C 0.5357(8) -0.3058(24) 0.0035(8)
Sr3A_3 Sr 0.7539(1) -0.7034(1) 0.5076(1)
Sr5_3 Sr 0.7440(1) -0.9491(1) 0.2469(1)
Sr6C_3 Sr 0.4967(1) -0.7104(1) 0.2637(1)
O13A_3 O 0.7663(3) -0.6105(5) 0.4139(3)
O16C_3 O 0.6580(3) -0.8230(5) 0.2349(3)
O19A_3 O 0.7520(3) -0.8587(5) 0.3507(3)
O25A_3 O 0.5898(3) -0.7828(5) 0.3448(3)
O26A_3 O 0.6581(3) -0.7131(6) 0.4213(3)
O31C_3 O 0.5880(3) -0.5852(5) 0.2997(3)
C41A_3 C 0.6059(4) -0.7418(7) 0.3958(4)
C51C_3 C 0.6026(5) -0.5319(7) 0.2617(4)
C21A_2 C 0.7838(5) -0.5220(9) 0.4111(5)
C27B C 0.9194(4) -0.4111(8) 0.3327(5)
C30B C 0.9078(7) -0.5651(11) 0.3591(8)
C36A_2 C 0.7921(5) -0.6977(10) 0.2343(5)
C37A C 0.8200(5) -0.6528(9) 0.1898(5)
C40A C 0.8484(7) -0.5292(10) 0.1425(7)
Sr1B Sr 1.2043(1) -0.5694(1) 0.2434(1)
Sr1C Sr 1.2957(1) -0.0694(1) 0.2566(1)
Sr3C Sr 1.2461(1) -0.2966(1) 0.4924(1)
O1B O 1.2353(3) -0.3951(5) 0.2288(3)
O2B O 1.2796(4) -0.2504(5) 0.2292(3)
O4B O 1.1330(3) -0.4370(5) 0.2719(3)
O7C O 1.2960(3) -0.1742(5) 0.3500(3)
O10B O 1.2533(3) -0.3968(5) 0.3973(3)
O29C O 1.1886(3) -0.1037(5) 0.2521(3)
O35B O 1.1637(3) -0.2463(6) 0.3965(3)
C1B C 1.2618(5) -0.333(7) 0.2038(5)
C46C C 1.1353(4) -0.1162(8) 0.2243(4)
C6B C 1.0763(4) -0.4513(7) 0.2622(4)
C47C C 1.0997(4) -0.0296(8) 0.1930(5)
C50C C 1.0224(6) 0.0416(10) 0.1442(6)
C55B C 1.0418(7) 0.0449(12) 0.3334(6)
C56B C 1.1112(4) -0.2142(8) 0.3852(4)
C53B C 0.9457(7) 0.0863(12) 0.3285(7)
Sr2_3 Sr 0.7991(1) 0.2831(1) 0.6949(1)
O8A_2 O 0.6918(4) 0.1851(6) 0.5503(3)
O10_2 O 0.7467(3) 0.3968(5) 0.6027(3)
O12_2 O 0.6876(3) 0.4760(5) 0.4954(3)
O15A_2 O 0.8278(3) 0.4692(6) 0.5199(3)
O20A_2 O 0.7725(4) 0.1486(6) 0.4508(3)
O35_2 O 0.8363(3) 0.2463(6) 0.6035(3)
O36_2 O 0.8810(4) 0.2543(7) 0.5111(4)
Sr4_2 Sr 0.8077(1) 0.8038(1) 0.1776(1)
O14A_2 O 0.7737(4) 0.5313(6) 0.3647(3)
O16B_2 O 0.8420(3) 0.6770(5) 0.2651(3)
O18B_2 O 0.8793(4) 0.5091(6) 0.3207(4)
O19_2 O 0.7480(3) 0.6413(5) 0.1493(3)
O21_2 O 0.6865(4) 0.4700(5) 0.1413(3)
O23_2 O 0.7045(4) 0.7090(5) 0.2601(4)
O24A_2 O 0.8256(4) 0.4479(5) 0.1905(4)
Sr2C Sr 0.2991(1) 0.2169(1) 0.1949(1)
O5C O 0.4623(3) 0.1164(5) 0.2443(4)
O17C O 0.5675(3) 0.2490(5) 0.2026(3)
O27A O 0.4996(3) 0.2626(6) 0.3910(3)
O28B O 0.3911(3) 0.3012(5) 0.2790(3)
O30B O 0.4615(3) 0.4564(5) 0.3273(3)
O33C O 0.4974(3) 0.4930(6) 0.2122(4)
O34C O 0.4194(3) 0.3189(7) 0.1633(3)
C21A_3 C 0.7838(5) 0.4780(9) 0.4111(5)
C42A C 0.5585(4) 0.2845(9) 0.4252(5)
C52C C 0.5563(5) 0.5209(8) 0.2164(5)
C28C C 0.5307(6) 0.0675(13) 0.1241(7)
C29C C 0.5353(8) -0.0333(13) 0.1039(8)
C33A C 0.8539(5) -0.0256(9) 0.4585(5)
C34A C 0.8764(6) -0.1126(10) 0.4344(6)
C37A_2 C 0.8200(5) 0.3472(9) 0.1898(5)
Sr2C_2 Sr 1.2991(1) -0.7831(1) 0.1949(1)
O8B O 1.1918(4) -0.6851(6) 0.0503(3)
O10C O 1.2467(3) -0.8968(5) 0.1027(3)
O12C O 1.1876(3) -0.9760(5) -0.0046(3)
O15B O 1.3278(3) -0.9692(6) 0.0199(3)
O20B O 1.2725(4) -0.6486(6) -0.0492(3)
O35C O 1.3363(3) -0.7463(6) 0.1035(3)
O36C O 1.3810(4) -0.7543(7) 0.0111(4)
C21B C 1.2838(5) -0.9780(9) -0.0889(5)
C31B C 1.2771(5) -0.6088(8) -0.0959(4)
C36B C 1.2921(5) -0.8023(10) -0.2657(5)
C43B C 1.0598(6) -0.8284(11) -0.0216(5)
C44B C 0.9969(6) -0.8388(11) -0.0228(5)
C49A C 0.9421(6) -1.1088(9) -0.1438(6)
Sr3C_2 Sr 1.2461(1) -0.2966(1) -0.5076(1)
Sr5B_2 Sr 1.2560(1) -0.0509(1) -0.2469(1)
Sr6A_3 Sr 1.5033(1) -0.2896(1) -0.2637(1)
O13C O 1.2337(3) -0.3895(5) -0.4139(3)
O16A_2 O 1.3420(3) -0.1770(5) -0.2349(3)
O19C_2 O 1.2480(3) -0.1413(5) -0.3507(3)
O25C_2 O 1.4102(3) -0.2172(5) -0.3448(3)
O26C O 1.3419(3) -0.2869(6) -0.4213(3)
O31A_2 O 1.4120(3) -0.4148(5) -0.2997(3)
C41C C 1.3941(4) -0.2582(7) -0.3958(4)
C51A C 1.3974(5) -0.4681(7) -0.2617(4)
C21C C 1.2162(5) -0.4780(9) -0.4111(5)
C32B C 1.3160(5) -0.5196(8) -0.0884(5)
C35B C 1.3525(6) -0.3915(10) -0.1263(6)
C36C C 1.2079(5) -0.3023(10) -0.2343(5)
C37C C 1.1800(5) -0.3472(9) -0.1898(5)
C40C C 1.1516(7) -0.4708(10) -0.1425(7)
Sr3C_3 Sr 0.2461(1) -0.2966(1) -0.5076(1)
Sr5B_3 Sr 0.2560(1) -0.0509(1) -0.2469(1)
Sr5C_2 Sr 0.2440(1) -0.5509(1) -0.2531(1)
O13C_2 O 0.2337(3) -0.3895(5) -0.4139(3)
O16A_3 O 0.3420(3) -0.1770(5) -0.2349(3)
O19C_3 O 0.2480(3) -0.1413(5) -0.3507(3)
O22C_2 O 0.2313(3) -0.3600(5) -0.2643(3)
O26C_2 O 0.3419(3) -0.2869(6) -0.4213(3)
O32A_2 O 0.3428(3) -0.4777(5) -0.2597(3)
C41C_2 C 0.3941(4) -0.2582(7) -0.3958(4)
C51A_2 C 0.3974(5) -0.4681(7) -0.2617(4)
C26A C 0.3964(4) -0.1792(7) -0.2051(4)
C42C C 0.4415(4) -0.2845(9) -0.4252(5)
C45C C 0.5369(5) -0.2983(11) -0.4243(5)
C52A C 0.4437(5) -0.5209(8) -0.2164(5)
C55A C 0.5418(7) -0.5449(12) -0.1666(6)
Sr3C_4 Sr 1.2461(1) -1.2966(1) -0.5076(1)
Sr5C_3 Sr 1.2440(1) -1.5509(1) -0.2531(1)
Sr6A_4 Sr 1.5033(1) -1.2896(1) -0.2637(1)
O13C_3 O 1.2337(3) -1.3895(5) -0.4139(3)
O22C_3 O 1.2313(3) -1.3600(5) -0.2643(3)
O25C_3 O 1.4102(3) -1.2172(5) -0.3448(3)
O26C_3 O 1.3419(3) -1.2869(6) -0.4213(3)
O31A_3 O 1.4120(3) -1.4148(5) -0.2997(3)
O32A_3 O 1.3428(3) -1.4777(5) -0.2597(3)
C41C_3 C 1.3941(4) -1.2582(7) -0.3958(4)
C51A_3 C 1.3974(5) -1.4681(7) -0.2617(4)
C26A_2 C 1.3964(4) -1.1792(7) -0.2051(4)
C27A C 1.4194(4) -1.0889(8) -0.1673(5)
C30A C 1.4078(7) -0.9349(11) -0.1409(8)
C31C C 1.2229(5) -1.1088(8) -0.4041(4)
C32C C 1.1840(5) -1.0196(8) -0.4116(5)
C35C C 1.1475(6) -0.8915(10) -0.3737(6)
C36C_2 C 1.2079(5) -1.3023(10) -0.2343(5)
C37B C 1.3200(5) -0.8472(9) -0.3102(5)
C40B C 1.3484(7) -0.9708(10) -0.3575(7)
loop_
_geom_bond_atom_site_label_1
_geom_bond_atom_site_label_2
_geom_bond_site_symmetry_1
_geom_bond_site_symmetry_2
Sr1 O1 1_555 1_555
Sr2 O1 1_555 1_555
Sr3 O8 1_555 1_555
Sr4 O13 1_555 1_555
Sr5 O14 1_555 1_555
Sr6 O5 1_555 1_555
O1 C1 1_555 1_555
O2 Sr2 1_555 1_555
O3 C2 1_555 1_555
O4 Sr1 1_555 1_555
O5 C6 1_555 1_555
O6 Sr1 1_555 1_555
O7 Sr1 1_555 1_555
O8 C11 1_555 1_555
O9 Sr1 1_555 1_555
O10 Sr2 1_555 1_555
O11 Sr1 1_555 1_555
O12 C17 1_555 1_555
O13 Sr3 1_555 1_555
O14 C21 1_555 1_555
O15 Sr3 1_555 1_555
O16 C26 1_555 1_555
O17 Sr6 1_555 1_555
O18 C27 1_555 1_555
O19 Sr4 1_555 1_555
O20 Sr3 1_555 1_555
O21 C32 1_555 1_555
O22 Sr4 1_555 1_555
O23 C36 1_555 1_555
O24 Sr5 1_555 1_555
O25 Sr4 1_555 1_555
O26 Sr3 1_555 1_555
O27 C42 1_555 1_555
O28 C46 1_555 1_555
O29 Sr1 1_555 1_555
O30 C47 1_555 1_555
O31 Sr6 1_555 1_555
O32 C51 1_555 1_555
O33 Sr6 1_555 1_555
O34 Sr6 1_555 1_555
O35 Sr2 1_555 1_555
O36 C57 1_555 1_555
C1 O2 1_555 1_555
C2 C1 1_555 1_555
C3 C2 1_555 1_555
C4 C3 1_555 1_555
C5 O3 1_555 1_555
C6 O4 1_555 1_555
C7 O6 1_555 1_555
C8 C7 1_555 1_555
C9 C8 1_555 1_555
C10 O6 1_555 1_555
C11 O7 1_555 1_555
C12 O9 1_555 1_555
C13 C12 1_555 1_555
C14 C13 1_555 1_555
C15 O9 1_555 1_555
C16 O10 1_555 1_555
C17 C16 1_555 1_555
C18 C17 1_555 1_555
C19 C18 1_555 1_555
C20 O12 1_555 1_555
C21 O13 1_555 1_555
C22 O15 1_555 1_555
C23 C22 1_555 1_555
C24 C23 1_555 1_555
C25 O15 1_555 1_555
C26 O17 1_555 1_555
C27 C26 1_555 1_555
C28 C27 1_555 1_555
C29 C28 1_555 1_555
C30 O18 1_555 1_555
C31 O19 1_555 1_555
C32 C31 1_555 1_555
C33 C32 1_555 1_555
C34 C33 1_555 1_555
C35 O21 1_555 1_555
C36 O22 1_555 1_555
C37 O24 1_555 1_555
C38 C37 1_555 1_555
C39 C38 1_555 1_555
C40 O24 1_555 1_555
C41 O25 1_555 1_555
C42 C41 1_555 1_555
C43 C42 1_555 1_555
C44 C43 1_555 1_555
C45 O27 1_555 1_555
C46 O29 1_555 1_555
C47 C46 1_555 1_555
C48 C47 1_555 1_555
C49 C48 1_555 1_555
C50 O30 1_555 1_555
C51 O31 1_555 1_555
C52 O33 1_555 1_555
C53 C52 1_555 1_555
C54 C53 1_555 1_555
C55 O33 1_555 1_555
C56 O34 1_555 1_555
C57 C56 1_555 1_555
C58 C57 1_555 1_555
C59 C58 1_555 1_555
C60 O36 1_555 1_555
Sr2A O7 1_555 1_555
O2A Sr1 1_555 1_555
Sr1A O2 1_555 1_555
Sr3A O10 1_555 1_555
O7A Sr2 1_555 1_555
O28A Sr2 1_555 1_555
O29A Sr2 1_555 1_555
C46A O28A 1_555 1_555
O10A Sr3 1_555 1_555
O12A Sr3 1_555 1_555
O35A Sr3 1_555 1_555
O36A Sr3 1_555 1_555
Sr5A O19 1_555 1_555
Sr6B O25 1_555 1_555
O16B Sr4 1_555 1_555
O31B Sr4 1_555 1_555
O32B Sr4 1_555 1_555
C51B O31B 1_555 1_555
Sr4A O16C 1_555 1_555
O16C Sr5 1_555 1_555
O18C Sr5 1_555 1_555
O19A Sr5 1_555 1_555
O21A Sr5 1_555 1_555
O23A Sr5 1_555 1_555
Sr4B O16 1_555 1_555
O25B Sr6 1_555 1_555
O27B Sr6 1_555 1_555
O30A Sr6 1_555 1_555
Sr5C O16 1_555 1_555
Sr6A O28 1_555 1_555
Sr5B O32 1_555 1_555
Sr1A_2 O1A 1_555 1_555
O1A Sr2A 1_555 1_555
O4A Sr2A 1_555 1_555
C1A O2A 1_555 1_555
Sr2A_2 O1A_2 1_555 1_555
O1A_2 Sr1A 1_555 1_555
O4A_2 Sr1A 1_555 1_555
O6A Sr1A 1_555 1_555
O9A Sr1A 1_555 1_555
O11A Sr1A 1_555 1_555
Sr4A_2 O13A 1_555 1_555
O8A Sr3A 1_555 1_555
O13A Sr3A 1_555 1_555
O15A Sr3A 1_555 1_555
O20A Sr3A 1_555 1_555
O26A Sr3A 1_555 1_555
C11A O7A 1_555 1_555
C47A C46A 1_555 1_555
C16A O10A 1_555 1_555
C17A O12A 1_555 1_555
C20A O12A 1_555 1_555
C56A O35A 1_555 1_555
C57A O36A 1_555 1_555
C60A O36A 1_555 1_555
Sr4A_3 O22A 1_555 1_555
O14A Sr5A 1_555 1_555
O18B Sr5A 1_555 1_555
O22A Sr5A 1_555 1_555
O24A Sr5A 1_555 1_555
O32C Sr5A 1_555 1_555
Sr2B O28C 1_555 1_555
O5B Sr6B 1_555 1_555
O17B Sr6B 1_555 1_555
O28C Sr6B 1_555 1_555
O30C Sr6B 1_555 1_555
O33B Sr6B 1_555 1_555
O34B Sr6B 1_555 1_555
C26B O16B 1_555 1_555
C52B C51B 1_555 1_555
Sr3A_2 O13A_2 1_555 1_555
Sr5A_2 O22A_2 1_555 1_555
Sr6C O25A 1_555 1_555
O13A_2 Sr4A 1_555 1_555
O22A_2 Sr4A 1_555 1_555
O25A Sr4A 1_555 1_555
O26A_2 Sr4A 1_555 1_555
O31C Sr4A 1_555 1_555
O32C_2 Sr4A 1_555 1_555
C41A O25A 1_555 1_555
C51C O31C 1_555 1_555
C26C O16C 1_555 1_555
C27C O18C 1_555 1_555
C30C O18C 1_555 1_555
C31A O19A 1_555 1_555
C32A O21A 1_555 1_555
C35A O21A 1_555 1_555
C36A O23A 1_555 1_555
Sr3B O13B 1_555 1_555
O13B Sr4B 1_555 1_555
O19B Sr4B 1_555 1_555
O22B Sr4B 1_555 1_555
O26B Sr4B 1_555 1_555
C41B O25B 1_555 1_555
C42B O27B 1_555 1_555
C45B O27B 1_555 1_555
C50A O30A 1_555 1_555
Sr4C O22C 1_555 1_555
O14C Sr5C 1_555 1_555
O21B Sr5C 1_555 1_555
O22C Sr5C 1_555 1_555
O23B Sr5C 1_555 1_555
O24C Sr5C 1_555 1_555
O32A Sr5C 1_555 1_555
Sr4C_2 O25C 1_555 1_555
O5A Sr6A 1_555 1_555
O17A Sr6A 1_555 1_555
O25C Sr6A 1_555 1_555
O27C Sr6A 1_555 1_555
O31A Sr6A 1_555 1_555
O33A Sr6A 1_555 1_555
O34A Sr6A 1_555 1_555
Sr4C_3 O16A 1_555 1_555
O14B Sr5B 1_555 1_555
O16A Sr5B 1_555 1_555
O18A Sr5B 1_555 1_555
O19C Sr5B 1_555 1_555
O21C Sr5B 1_555 1_555
O23C Sr5B 1_555 1_555
O24B Sr5B 1_555 1_555
Sr2_2 O2_2 1_555 1_555
O2_2 Sr1A_2 1_555 1_555
O6A_2 Sr1A_2 1_555 1_555
O7A_2 Sr1A_2 1_555 1_555
O9A_2 Sr1A_2 1_555 1_555
O11A_2 Sr1A_2 1_555 1_555
O29A_2 Sr1A_2 1_555 1_555
C6A O4A 1_555 1_555
C2A C1A 1_555 1_555
Sr1_2 O2A_2 1_555 1_555
Sr3_2 O10A_2 1_555 1_555
Sr6A_2 O28_2 1_555 1_555
O2A_2 Sr2A_2 1_555 1_555
O7_2 Sr2A_2 1_555 1_555
O10A_2 Sr2A_2 1_555 1_555
O28_2 Sr2A_2 1_555 1_555
O29_2 Sr2A_2 1_555 1_555
O35A_2 Sr2A_2 1_555 1_555
C1A_2 O1A_2 1_555 1_555
C46_2 O28_2 1_555 1_555
C6A_2 O4A_2 1_555 1_555
C7A O6A 1_555 1_555
C10A O6A 1_555 1_555
C12A O9A 1_555 1_555
C15A O9A 1_555 1_555
C16A_2 O11A 1_555 1_555
Sr5_2 O16C_2 1_555 1_555
Sr5A_3 O22A_3 1_555 1_555
Sr6C_2 O25A_2 1_555 1_555
O16C_2 Sr4A_2 1_555 1_555
O19A_2 Sr4A_2 1_555 1_555
O22A_3 Sr4A_2 1_555 1_555
O25A_2 Sr4A_2 1_555 1_555
O31C_2 Sr4A_2 1_555 1_555
O32C_3 Sr4A_2 1_555 1_555
C41A_2 O26A 1_555 1_555
C51C_2 O31C_2 1_555 1_555
C21A O13A 1_555 1_555
C22A O15A 1_555 1_555
C25A O15A 1_555 1_555
C31A_2 O20A 1_555 1_555
C48A C47A 1_555 1_555
C18A C17A 1_555 1_555
C19A C20A 1_555 1_555
C58A C57A 1_555 1_555
C59A C60A 1_555 1_555
Sr3A_3 O13A_3 1_555 1_555
Sr5_3 O16C_3 1_555 1_555
Sr6C_3 O25A_3 1_555 1_555
O13A_3 Sr4A_3 1_555 1_555
O16C_3 Sr4A_3 1_555 1_555
O19A_3 Sr4A_3 1_555 1_555
O25A_3 Sr4A_3 1_555 1_555
O26A_3 Sr4A_3 1_555 1_555
O31C_3 Sr4A_3 1_555 1_555
C41A_3 O25A_3 1_555 1_555
C51C_3 O32C 1_555 1_555
C21A_2 O14A 1_555 1_555
C27B O18B 1_555 1_555
C30B O18B 1_555 1_555
C36A_2 O22A 1_555 1_555
C37A O24A 1_555 1_555
C40A O24A 1_555 1_555
Sr1B O1B 1_555 1_555
Sr1C O2B 1_555 1_555
Sr3C O10B 1_555 1_555
O1B Sr2B 1_555 1_555
O2B Sr2B 1_555 1_555
O4B Sr2B 1_555 1_555
O7C Sr2B 1_555 1_555
O10B Sr2B 1_555 1_555
O29C Sr2B 1_555 1_555
O35B Sr2B 1_555 1_555
C1B O1B 1_555 1_555
C46C O28C 1_555 1_555
C6B O5B 1_555 1_555
C47C O30C 1_555 1_555
C50C O30C 1_555 1_555
C55B O33B 1_555 1_555
C56B O34B 1_555 1_555
C53B C52B 1_555 1_555
Sr2_3 O10_2 1_555 1_555
O8A_2 Sr3A_2 1_555 1_555
O10_2 Sr3A_2 1_555 1_555
O12_2 Sr3A_2 1_555 1_555
O15A_2 Sr3A_2 1_555 1_555
O20A_2 Sr3A_2 1_555 1_555
O35_2 Sr3A_2 1_555 1_555
O36_2 Sr3A_2 1_555 1_555
Sr4_2 O16B_2 1_555 1_555
O14A_2 Sr5A_2 1_555 1_555
O16B_2 Sr5A_2 1_555 1_555
O18B_2 Sr5A_2 1_555 1_555
O19_2 Sr5A_2 1_555 1_555
O21_2 Sr5A_2 1_555 1_555
O23_2 Sr5A_2 1_555 1_555
O24A_2 Sr5A_2 1_555 1_555
Sr2C O28B 1_555 1_555
O5C Sr6C 1_555 1_555
O17C Sr6C 1_555 1_555
O27A Sr6C 1_555 1_555
O28B Sr6C 1_555 1_555
O30B Sr6C 1_555 1_555
O33C Sr6C 1_555 1_555
O34C Sr6C 1_555 1_555
C21A_3 O13A_2 1_555 1_555
C42A C41A 1_555 1_555
C52C C51C 1_555 1_555
C28C C27C 1_555 1_555
C29C C30C 1_555 1_555
C33A C32A 1_555 1_555
C34A C35A 1_555 1_555
C37A_2 C36A 1_555 1_555
Sr2C_2 O10C 1_555 1_555
O8B Sr3B 1_555 1_555
O10C Sr3B 1_555 1_555
O12C Sr3B 1_555 1_555
O15B Sr3B 1_555 1_555
O20B Sr3B 1_555 1_555
O35C Sr3B 1_555 1_555
O36C Sr3B 1_555 1_555
C21B O13B 1_555 1_555
C31B O19B 1_555 1_555
C36B O22B 1_555 1_555
C43B C42B 1_555 1_555
C44B C45B 1_555 1_555
C49A C50A 1_555 1_555
Sr3C_2 O13C 1_555 1_555
Sr5B_2 O16A_2 1_555 1_555
Sr6A_3 O25C_2 1_555 1_555
O13C Sr4C 1_555 1_555
O16A_2 Sr4C 1_555 1_555
O19C_2 Sr4C 1_555 1_555
O25C_2 Sr4C 1_555 1_555
O26C Sr4C 1_555 1_555
O31A_2 Sr4C 1_555 1_555
C41C O25C_2 1_555 1_555
C51A O32A 1_555 1_555
C21C O14C 1_555 1_555
C32B O21B 1_555 1_555
C35B O21B 1_555 1_555
C36C O22C 1_555 1_555
C37C O24C 1_555 1_555
C40C O24C 1_555 1_555
Sr3C_3 O13C_2 1_555 1_555
Sr5B_3 O16A_3 1_555 1_555
Sr5C_2 O22C_2 1_555 1_555
O13C_2 Sr4C_2 1_555 1_555
O16A_3 Sr4C_2 1_555 1_555
O19C_3 Sr4C_2 1_555 1_555
O22C_2 Sr4C_2 1_555 1_555
O26C_2 Sr4C_2 1_555 1_555
O32A_2 Sr4C_2 1_555 1_555
C41C_2 O25C 1_555 1_555
C51A_2 O31A 1_555 1_555
C26A O17A 1_555 1_555
C42C O27C 1_555 1_555
C45C O27C 1_555 1_555
C52A O33A 1_555 1_555
C55A O33A 1_555 1_555
Sr3C_4 O13C_3 1_555 1_555
Sr5C_3 O22C_3 1_555 1_555
Sr6A_4 O25C_3 1_555 1_555
O13C_3 Sr4C_3 1_555 1_555
O22C_3 Sr4C_3 1_555 1_555
O25C_3 Sr4C_3 1_555 1_555
O26C_3 Sr4C_3 1_555 1_555
O31A_3 Sr4C_3 1_555 1_555
O32A_3 Sr4C_3 1_555 1_555
C41C_3 O25C_3 1_555 1_555
C51A_3 O31A_3 1_555 1_555
C26A_2 O16A 1_555 1_555
C27A O18A 1_555 1_555
C30A O18A 1_555 1_555
C31C O19C 1_555 1_555
C32C O21C 1_555 1_555
C35C O21C 1_555 1_555
C36C_2 O23C 1_555 1_555
C37B O24B 1_555 1_555
C40B O24B 1_555 1_555
Sr2 O4 1_555 1_555
Sr4 O26 1_555 1_555
Sr5 O22 1_555 1_555
Sr5 O32B 1_555 1_555
Sr6 O28A 1_555 1_555
O11 C16 1_555 1_555
O12 Sr3A 1_555 1_555
O18 Sr5C 1_555 1_555
O20 C31 1_555 1_555
O21 Sr5A 1_555 1_555
O23 Sr5A 1_555 1_555
O26 C41 1_555 1_555
O27 Sr6B 1_555 1_555
O28 Sr2A 1_555 1_555
O29 Sr2A 1_555 1_555
O30 Sr6A 1_555 1_555
O31 Sr4B 1_555 1_555
O32 Sr4B 1_555 1_555
O35 C56 1_555 1_555
O35 Sr3A 1_555 1_555
O36 Sr3A 1_555 1_555
C4 C5 1_555 1_555
C6 C7 1_555 1_555
C9 C10 1_555 1_555
C11 C12 1_555 1_555
C14 C15 1_555 1_555
C19 C20 1_555 1_555
C21 C22 1_555 1_555
C24 C25 1_555 1_555
C29 C30 1_555 1_555
C34 C35 1_555 1_555
C36 C37 1_555 1_555
C39 C40 1_555 1_555
C44 C45 1_555 1_555
C49 C50 1_555 1_555
C51 C52 1_555 1_555
C54 C55 1_555 1_555
C59 C60 1_555 1_555
Sr2A O2A 1_555 1_555
Sr2A O10A 1_555 1_555
Sr2A O35A 1_555 1_555
Sr1A O7A 1_555 1_555
Sr1A O29A 1_555 1_555
O29A C46A 1_555 1_555
Sr5A O16B 1_555 1_555
Sr6B O31B 1_555 1_555
O32B C51B 1_555 1_555
Sr4A O19A 1_555 1_555
Sr4B O25B 1_555 1_555
O30A C47A 1_555 1_555
Sr5C O19B 1_555 1_555
Sr5B O22B 1_555 1_555
Sr1A_2 O4A 1_555 1_555
O1A C1A 1_555 1_555
Sr2A_2 O4A_2 1_555 1_555
Sr4A_2 O26A 1_555 1_555
O8A C11A 1_555 1_555
C11A C12A 1_555 1_555
C16A O11A_2 1_555 1_555
C16A C17A 1_555 1_555
C56A O34A 1_555 1_555
C56A C57A 1_555 1_555
Sr4A_3 O32C 1_555 1_555
O17B C26B 1_555 1_555
O33B C52B 1_555 1_555
C26B C27B 1_555 1_555
Sr3A_2 O26A_2 1_555 1_555
Sr5A_2 O32C_2 1_555 1_555
Sr6C O31C 1_555 1_555
O22A_2 C36A 1_555 1_555
O26A_2 C41A 1_555 1_555
O32C_2 C51C 1_555 1_555
C26C O17C 1_555 1_555
C26C C27C 1_555 1_555
C31A O20A_2 1_555 1_555
C31A C32A 1_555 1_555
Sr3B O26B 1_555 1_555
O26B C41B 1_555 1_555
C41B C42B 1_555 1_555
Sr4C O32A 1_555 1_555
O23B C36B 1_555 1_555
Sr4C_2 O31A 1_555 1_555
O5A C6A 1_555 1_555
Sr4C_3 O19C 1_555 1_555
O14B C21B 1_555 1_555
Sr2_2 O7A_2 1_555 1_555
Sr2_2 O29A_2 1_555 1_555
Sr1_2 O7_2 1_555 1_555
Sr1_2 O29_2 1_555 1_555
Sr3_2 O35A_2 1_555 1_555
O2A_2 C1A_2 1_555 1_555
O10A_2 C16A_2 1_555 1_555
O29_2 C46_2 1_555 1_555
C6A_2 C7A 1_555 1_555
Sr5_2 O19A_2 1_555 1_555
Sr5A_3 O32C_3 1_555 1_555
Sr6C_2 O31C_2 1_555 1_555
O19A_2 C31A_2 1_555 1_555
O25A_2 C41A_2 1_555 1_555
O32C_3 C51C_2 1_555 1_555
C21A C22A 1_555 1_555
C48A C49A 1_555 1_555
C18A C19A 1_555 1_555
C58A C59A 1_555 1_555
Sr3A_3 O26A_3 1_555 1_555
Sr5_3 O19A_3 1_555 1_555
Sr6C_3 O31C_3 1_555 1_555
O13A_3 C21A_2 1_555 1_555
O26A_3 C41A_3 1_555 1_555
O31C_3 C51C_3 1_555 1_555
C36A_2 C37A 1_555 1_555
Sr1B O4B 1_555 1_555
Sr1C O7C 1_555 1_555
Sr1C O29C 1_555 1_555
Sr3C O35B 1_555 1_555
O2B C1B 1_555 1_555
O4B C6B 1_555 1_555
O29C C46C 1_555 1_555
O35B C56B 1_555 1_555
C46C C47C 1_555 1_555
Sr2_3 O35_2 1_555 1_555
Sr4_2 O19_2 1_555 1_555
O14A_2 C21A_3 1_555 1_555
O24A_2 C37A_2 1_555 1_555
O27A C42A 1_555 1_555
O33C C52C 1_555 1_555
C28C C29C 1_555 1_555
C33A C34A 1_555 1_555
Sr2C_2 O35C 1_555 1_555
O20B C31B 1_555 1_555
C31B C32B 1_555 1_555
C36B C37B 1_555 1_555
C43B C44B 1_555 1_555
Sr3C_2 O26C 1_555 1_555
Sr5B_2 O19C_2 1_555 1_555
Sr6A_3 O31A_2 1_555 1_555
O13C C21C 1_555 1_555
O26C C41C 1_555 1_555
O31A_2 C51A 1_555 1_555
C36C C37C 1_555 1_555
Sr3C_3 O26C_2 1_555 1_555
Sr5B_3 O19C_3 1_555 1_555
Sr5C_2 O32A_2 1_555 1_555
O16A_3 C26A 1_555 1_555
O26C_2 C41C_2 1_555 1_555
O32A_2 C51A_2 1_555 1_555
C41C_2 C42C 1_555 1_555
C51A_2 C52A 1_555 1_555
Sr3C_4 O26C_3 1_555 1_555
Sr5C_3 O32A_3 1_555 1_555
Sr6A_4 O31A_3 1_555 1_555
O22C_3 C36C_2 1_555 1_555
O26C_3 C41C_3 1_555 1_555
O32A_3 C51A_3 1_555 1_555
C26A_2 C27A 1_555 1_555
C31C C32C 1_555 1_555

#END
