
#######################################################################
#
#                 Cambridge Crystallographic Data Centre
#                                CCDC 
#
#######################################################################
#
# If this CIF has been generated from an entry in the Cambridge 
# Structural Database, then it will include bibliographic, chemical, 
# crystal, experimental, refinement or atomic coordinate data resulting 
# from the CCDC's data processing and validation procedures.
#
#######################################################################

data_TOGWUH
_symmetry_cell_setting           monoclinic
_symmetry_space_group_name_H-M   'P 21/n'
_symmetry_Int_Tables_number      14
_space_group_name_Hall           '-P 2yn'
loop_
_symmetry_equiv_pos_site_id
_symmetry_equiv_pos_as_xyz
1 x,y,z
2 1/2-x,1/2+y,1/2-z
3 -x,-y,-z
4 1/2+x,1/2-y,1/2+z
_cell_length_a                   23.024(3)
_cell_length_b                   13.343(3)
_cell_length_c                   23.035(3)
_cell_angle_alpha                90
_cell_angle_beta                 107.00(3)
_cell_angle_gamma                90
_cell_volume                     6767.35
loop_
_atom_site_label
_atom_site_type_symbol
_atom_site_fract_x
_atom_site_fract_y
_atom_site_fract_z
Sr1 Sr 0.50349(4) 0.28931(7) 0.23724(4)
Sr2 Sr 0.70084(4) 0.21774(7) 0.30545(4)
Sr3 Sr 0.30829(4) 0.30282(7) 0.17811(4)
Sr4 Sr 0.24677(4) 0.29600(8) -0.00719(4)
Sr5 Sr 0.70488(4) -0.06801(7) 0.24356(4)
Sr6 Sr 0.24435(5) 0.54988(7) 0.24711(5)
O1 O 0.7544(4) -0.0421(6) 0.3499(3)
O2 O 0.7520(3) 0.1039(5) 0.3970(3)
C1 C 0.7678(5) 0.0158(9) 0.3974(5)
C2 C 0.8023(5) -0.0315(8) 0.4532(5)
O3 O 0.8130(3) 0.0245(5) 0.5044(3)
C3 C 0.8459(5) -0.0321(8) 0.5526(5)
H1 H 0.8602(5) -0.0107(8) 0.5927(5)
C4 C 0.8541(5) -0.1233(9) 0.5322(5)
H2 H 0.8733(5) -0.1772(9) 0.5557(5)
C5 C 0.8288(5) -0.1227(8) 0.4699(5)
H3 H 0.8296(5) -0.1754(8) 0.4438(5)
O4 O 0.5391(3) 0.1130(5) 0.2566(4)
O5 O 0.6327(3) 0.0618(5) 0.2722(3)
C6 C 0.5769(6) 0.0505(9) 0.2620(5)
C7 C 0.5549(5) -0.0511(9) 0.2579(5)
O6 O 0.5981(3) -0.1284(6) 0.2620(4)
C8 C 0.5673(6) -0.2154(10) 0.2601(6)
H4 H 0.5852(6) -0.2783(10) 0.2626(6)
C9 C 0.5110(5) -0.2018(9) 0.2545(5)
H5 H 0.4821(5) -0.2513(9) 0.2530(5)
C10 C 0.5006(6) -0.0939(9) 0.2508(5)
H6 H 0.4637(6) -0.0612(9) 0.2447(5)
O7 O 0.6081(3) 0.3015(5) 0.2208(3)
O8 O 0.6898(3) 0.3963(5) 0.2540(3)
C11 C 0.6373(5) 0.3879(8) 0.2240(4)
C12 C 0.5993(4) 0.4697(7) 0.1935(4)
O9 O 0.5377(3) 0.4572(5) 0.1729(3)
C13 C 0.5145(5) 0.5441(9) 0.1443(5)
H7 H 0.4734(5) 0.5569(9) 0.1264(5)
C14 C 0.5582(6) 0.6060(10) 0.1460(6)
H8 H 0.5539(6) 0.6708(10) 0.1305(6)
C15 C 0.6131(5) 0.5583(8) 0.1751(5)
H9 H 0.6519(5) 0.5839(8) 0.1806(5)
O10 O 0.3430(3) 0.2879(5) 0.0804(3)
O11 O 0.4113(3) 0.2181(5) 0.1563(3)
C16 C 0.3951(5) 0.2591(8) 0.1053(5)
C17 C 0.4409(5) 0.2821(8) 0.0756(5)
O12 O 0.5011(3) 0.2621(5) 0.1096(3)
C18 C 0.5357(5) 0.2969(9) 0.0750(5)
H10 H 0.5779(5) 0.2921(9) 0.0864(5)
C19 C 0.5028(5) 0.3388(8) 0.0229(5)
H11 H 0.5162(5) 0.3689(8) -0.0073(5)
C20 C 0.4414(5) 0.3254(8) 0.0253(5)
H12 H 0.4068(5) 0.3451(8) -0.0051(5)
O13 O 0.7354(3) 0.1048(5) 0.2296(3)
O14 O 0.7790(4) 0.2490(6) 0.2282(4)
C21 C 0.7599(5) 0.1663(9) 0.2039(5)
C22 C 0.7736(5) 0.1474(9) 0.1493(5)
O15 O 0.7587(4) 0.0545(6) 0.1227(4)
C23 C 0.7649(6) 0.0547(10) 0.0674(6)
H13 H 0.7559(6) 0.0021(10) 0.0397(6)
C24 C 0.7861(6) 0.1421(10) 0.0592(6)
H14 H 0.7972(6) 0.1610(10) 0.0250(6)
C25 C 0.7898(5) 0.2024(10) 0.1082(5)
H15 H 0.8014(5) 0.2695(10) 0.1121(5)
O16 O 0.7954(3) 0.3261(5) 0.3506(3)
O17 O 0.8069(4) 0.3135(6) 0.4484(3)
C26 C 0.8187(5) 0.3499(8) 0.4048(5)
C27 C 0.8680(5) 0.4287(9) 0.4159(5)
O18 O 0.8773(4) 0.4744(6) 0.3670(3)
C28 C 0.9160(6) 0.5481(10) 0.3885(6)
H16 H 0.9295(6) 0.5938(10) 0.3649(6)
C29 C 0.9333(6) 0.5473(10) 0.4512(6)
H17 H 0.9613(6) 0.5894(10) 0.4772(6)
C30 C 0.9000(5) 0.4697(9) 0.4673(6)
H18 H 0.9003(5) 0.4510(9) 0.5063(6)
O19 O 0.5793(3) 0.3172(6) 0.3359(3)
O20 O 0.6649(3) 0.2527(6) 0.3979(3)
C31 C 0.6105(5) 0.2882(8) 0.3860(4)
C32 C 0.5864(5) 0.2853(9) 0.4365(5)
O21 O 0.6186(4) 0.2476(6) 0.4896(4)
C33 C 0.5870(7) 0.2569(11) 0.5299(6)
H19 H 0.5987(7) 0.2297(11) 0.5687(6)
C34 C 0.5367(6) 0.3101(10) 0.5069(5)
H20 H 0.5102(6) 0.3341(10) 0.5274(5)
C35 C 0.5319(6) 0.3228(10) 0.4434(6)
H21 H 0.4995(6) 0.3500(10) 0.4135(6)
O22 O 0.2319(3) 0.3603(5) 0.2358(3)
O23 O 0.2050(4) 0.2056(6) 0.2600(4)
C36 C 0.2085(5) 0.3001(9) 0.2646(5)
C37 C 0.1810(6) 0.3485(9) 0.3104(6)
O24 O 0.1752(3) 0.4478(5) 0.3102(4)
C38 C 0.1496(6) 0.4670(10) 0.3547(5)
H22 H 0.1395(6) 0.5311(10) 0.3643(5)
C39 C 0.1408(6) 0.3873(10) 0.3825(6)
H23 H 0.1260(6) 0.3829(10) 0.4160(6)
C40 C 0.1587(6) 0.3077(10) 0.3505(5)
H24 H 0.1552(6) 0.2395(10) 0.3570(5)
O25 O 0.2265(4) 0.5279(6) 0.1368(4)
O26 O 0.2350(3) 0.3887(5) 0.0867(3)
C41 C 0.2171(5) 0.4804(9) 0.0894(5)
C42 C 0.1818(5) 0.5240(9) 0.0330(5)
O27 O 0.1726(3) 0.4680(5) -0.0186(3)
C43 C 0.1373(5) 0.5236(9) -0.0668(5)
H25 H 0.1237(5) 0.5026(9) -0.1070(5)
C44 C 0.1262(5) 0.6105(9) -0.0462(5)
H26 H 0.1045(5) 0.6626(9) -0.0695(5)
C45 C 0.1536(5) 0.6122(9) 0.0198(5)
H27 H 0.1517(5) 0.6634(9) 0.0466(5)
O28 O 0.2286(4) 0.1466(6) 0.0489(3)
O29 O 0.2474(3) 0.1409(5) 0.1496(3)
C46 C 0.2229(5) 0.1115(8) 0.0948(6)
C47 C 0.1853(5) 0.0157(8) 0.0892(5)
O30 O 0.1863(3) -0.0321(5) 0.1417(3)
C48 C 0.1467(6) -0.1104(9) 0.1244(5)
H28 H 0.1378(6) -0.1564(9) 0.1509(5)
C49 C 0.1226(5) -0.1115(9) 0.0647(5)
H29 H 0.0960(5) -0.1585(9) 0.0412(5)
C50 C 0.1468(5) -0.0246(9) 0.0447(5)
H30 H 0.1359(5) -0.0010(9) 0.0050(5)
O31 O 0.3436(3) 0.4762(5) 0.2403(3)
O32 O 0.4111(3) 0.4149(4) 0.2016(3)
C51 C 0.3957(5) 0.4661(8) 0.2367(5)
C52 C 0.4440(5) 0.5201(9) 0.2849(5)
O33 O 0.5015(3) 0.4915(5) 0.2872(3)
C53 C 0.5413(6) 0.5409(9) 0.3361(5)
H31 H 0.5832(6) 0.5321(9) 0.3495(5)
C54 C 0.5104(6) 0.6011(10) 0.3599(6)
H32 H 0.5257(6) 0.6459(10) 0.3917(6)
C55 C 0.4472(6) 0.5842(10) 0.3269(5)
H33 H 0.4142(6) 0.6152(10) 0.3349(5)
O34 O 0.4323(3) 0.2482(5) 0.2981(3)
O35 O 0.3410(3) 0.1764(4) 0.2634(3)
C56 C 0.3953(5) 0.1770(8) 0.2932(5)
C57 C 0.4193(5) 0.0890(9) 0.3338(5)
O36 O 0.3798(4) 0.0100(6) 0.3226(4)
C58 C 0.4066(6) -0.0655(11) 0.3612(6)
H34 H 0.3900(6) -0.1286(11) 0.3628(6)
C59 C 0.4602(7) -0.0344(11) 0.3960(6)
H35 H 0.4867(7) -0.0704(11) 0.4273(6)
C60 C 0.4704(6) 0.0684(10) 0.3761(6)
H36 H 0.5046(6) 0.1087(10) 0.3900(6)
O2C O 0.2520(3) 0.3961(5) -0.1030(3)
O3C O 0.3130(3) 0.4755(5) 0.0044(3)
O17C O 0.3069(4) 0.1865(6) -0.0516(3)
O20C O 0.1649(3) 0.2473(6) -0.1021(3)
O21C O 0.1186(4) 0.2524(6) -0.0104(4)
O8A O 0.8102(3) -0.1037(5) 0.2460(3)
O14A O 0.7210(4) -0.2510(6) 0.2718(4)
O16A O 0.7046(3) -0.1739(5) 0.1494(3)
O18A O 0.6227(4) -0.0256(6) 0.1330(3)
O23A O 0.2950(4) 0.7056(6) 0.2400(4)
O29A O 0.2526(3) 0.6409(5) 0.3504(3)
O30A O 0.3137(3) 0.4679(5) 0.3583(3)
O35A O 0.1590(3) 0.6764(4) 0.2366(3)
O36A O 0.1202(4) 0.5100(6) 0.1774(4)
Sr4C Sr 0.74677(4) 0.20400(8) 0.49281(4)
Sr5A Sr 0.79512(4) 0.43199(7) 0.25644(4)
Sr6A Sr 0.25565(5) 0.04988(7) 0.25289(5)
loop_
_geom_bond_atom_site_label_1
_geom_bond_atom_site_label_2
_geom_bond_site_symmetry_1
_geom_bond_site_symmetry_2
Sr1 O4 1_555 1_555
Sr2 O2 1_555 1_555
Sr3 O10 1_555 1_555
Sr4 O10 1_555 1_555
Sr5 O1 1_555 1_555
Sr6 O22 1_555 1_555
O1 C1 1_555 1_555
O2 C1 1_555 1_555
C1 C2 1_555 1_555
C2 O3 1_555 1_555
O3 C3 1_555 1_555
C3 H1 1_555 1_555
C4 C3 1_555 1_555
H2 C4 1_555 1_555
C5 C2 1_555 1_555
H3 C5 1_555 1_555
O4 C6 1_555 1_555
O5 Sr2 1_555 1_555
C6 O5 1_555 1_555
C7 C6 1_555 1_555
O6 Sr5 1_555 1_555
C8 O6 1_555 1_555
H4 C8 1_555 1_555
C9 C8 1_555 1_555
H5 C9 1_555 1_555
C10 C7 1_555 1_555
H6 C10 1_555 1_555
O7 Sr1 1_555 1_555
O8 Sr2 1_555 1_555
C11 O7 1_555 1_555
C12 C11 1_555 1_555
O9 Sr1 1_555 1_555
C13 O9 1_555 1_555
H7 C13 1_555 1_555
C14 C13 1_555 1_555
H8 C14 1_555 1_555
C15 C12 1_555 1_555
H9 C15 1_555 1_555
O10 C16 1_555 1_555
O11 Sr1 1_555 1_555
C16 O11 1_555 1_555
C17 C16 1_555 1_555
O12 Sr1 1_555 1_555
C18 O12 1_555 1_555
H10 C18 1_555 1_555
C19 C18 1_555 1_555
H11 C19 1_555 1_555
C20 C17 1_555 1_555
H12 C20 1_555 1_555
O13 Sr2 1_555 1_555
O14 Sr2 1_555 1_555
C21 O13 1_555 1_555
C22 C21 1_555 1_555
O15 C22 1_555 1_555
C23 O15 1_555 1_555
H13 C23 1_555 1_555
C24 C23 1_555 1_555
H14 C24 1_555 1_555
C25 C22 1_555 1_555
H15 C25 1_555 1_555
O16 Sr2 1_555 1_555
O17 C26 1_555 1_555
C26 O16 1_555 1_555
C27 C26 1_555 1_555
O18 C27 1_555 1_555
C28 O18 1_555 1_555
H16 C28 1_555 1_555
C29 C28 1_555 1_555
H17 C29 1_555 1_555
C30 C27 1_555 1_555
H18 C30 1_555 1_555
O19 Sr1 1_555 1_555
O20 Sr2 1_555 1_555
C31 O19 1_555 1_555
C32 C31 1_555 1_555
O21 C32 1_555 1_555
C33 O21 1_555 1_555
H19 C33 1_555 1_555
C34 C33 1_555 1_555
H20 C34 1_555 1_555
C35 C32 1_555 1_555
H21 C35 1_555 1_555
O22 Sr3 1_555 1_555
O23 C36 1_555 1_555
C36 O22 1_555 1_555
C37 C36 1_555 1_555
O24 Sr6 1_555 1_555
C38 O24 1_555 1_555
H22 C38 1_555 1_555
C39 C38 1_555 1_555
H23 C39 1_555 1_555
C40 C37 1_555 1_555
H24 C40 1_555 1_555
O25 Sr6 1_555 1_555
O26 Sr3 1_555 1_555
C41 O25 1_555 1_555
C42 C41 1_555 1_555
O27 Sr4 1_555 1_555
C43 O27 1_555 1_555
H25 C43 1_555 1_555
C44 C43 1_555 1_555
H26 C44 1_555 1_555
C45 C42 1_555 1_555
H27 C45 1_555 1_555
O28 Sr4 1_555 1_555
O29 Sr3 1_555 1_555
C46 O28 1_555 1_555
C47 C46 1_555 1_555
O30 C47 1_555 1_555
C48 O30 1_555 1_555
H28 C48 1_555 1_555
C49 C48 1_555 1_555
H29 C49 1_555 1_555
C50 C47 1_555 1_555
H30 C50 1_555 1_555
O31 Sr3 1_555 1_555
O32 Sr1 1_555 1_555
C51 O31 1_555 1_555
C52 C51 1_555 1_555
O33 Sr1 1_555 1_555
C53 O33 1_555 1_555
H31 C53 1_555 1_555
C54 C53 1_555 1_555
H32 C54 1_555 1_555
C55 C52 1_555 1_555
H33 C55 1_555 1_555
O34 Sr1 1_555 1_555
O35 Sr3 1_555 1_555
C56 O34 1_555 1_555
C57 C56 1_555 1_555
O36 C57 1_555 1_555
C58 O36 1_555 1_555
H34 C58 1_555 1_555
C59 C58 1_555 1_555
H35 C59 1_555 1_555
C60 C57 1_555 1_555
H36 C60 1_555 1_555
O2C Sr4 1_555 1_555
O3C Sr4 1_555 1_555
O17C Sr4 1_555 1_555
O20C Sr4 1_555 1_555
O21C Sr4 1_555 1_555
O8A Sr5 1_555 1_555
O14A Sr5 1_555 1_555
O16A Sr5 1_555 1_555
O18A Sr5 1_555 1_555
O23A Sr6 1_555 1_555
O29A Sr6 1_555 1_555
O30A Sr6 1_555 1_555
O35A Sr6 1_555 1_555
O36A Sr6 1_555 1_555
Sr4C O2 1_555 1_555
Sr5A O8 1_555 1_555
Sr6A O23 1_555 1_555
Sr2 O7 1_555 1_555
Sr3 O11 1_555 1_555
Sr3 O32 1_555 1_555
Sr4 O26 1_555 1_555
Sr5 O5 1_555 1_555
Sr5 O13 1_555 1_555
Sr6 O31 1_555 1_555
O3 Sr4C 1_555 1_555
C4 C5 1_555 1_555
C7 O6 1_555 1_555
C9 C10 1_555 1_555
O8 C11 1_555 1_555
C12 O9 1_555 1_555
C14 C15 1_555 1_555
C17 O12 1_555 1_555
C19 C20 1_555 1_555
O14 C21 1_555 1_555
O14 Sr5A 1_555 1_555
C24 C25 1_555 1_555
O16 Sr5A 1_555 1_555
O17 Sr4C 1_555 1_555
O18 Sr5A 1_555 1_555
C29 C30 1_555 1_555
O20 C31 1_555 1_555
O20 Sr4C 1_555 1_555
O21 Sr4C 1_555 1_555
C34 C35 1_555 1_555
C37 O24 1_555 1_555
C39 C40 1_555 1_555
O26 C41 1_555 1_555
C42 O27 1_555 1_555
C44 C45 1_555 1_555
O29 C46 1_555 1_555
O29 Sr6A 1_555 1_555
O30 Sr6A 1_555 1_555
C49 C50 1_555 1_555
O32 C51 1_555 1_555
C52 O33 1_555 1_555
C54 C55 1_555 1_555
O35 C56 1_555 1_555
O35 Sr6A 1_555 1_555
O36 Sr6A 1_555 1_555
C59 C60 1_555 1_555

#END
