
#######################################################################
#
#                 Cambridge Crystallographic Data Centre
#                                CCDC 
#
#######################################################################
#
# If this CIF has been generated from an entry in the Cambridge 
# Structural Database, then it will include bibliographic, chemical, 
# crystal, experimental, refinement or atomic coordinate data resulting 
# from the CCDC's data processing and validation procedures.
#
#######################################################################

data_TOHHUV
_symmetry_cell_setting           monoclinic
_symmetry_space_group_name_H-M   'P 21/c'
_symmetry_Int_Tables_number      14
_space_group_name_Hall           '-P 2ybc'
loop_
_symmetry_equiv_pos_site_id
_symmetry_equiv_pos_as_xyz
1 x,y,z
2 -x,1/2+y,1/2-z
3 -x,-y,-z
4 x,1/2-y,1/2+z
_cell_length_a                   9.500(8)
_cell_length_b                   14.127(8)
_cell_length_c                   10.217(8)
_cell_angle_alpha                90
_cell_angle_beta                 92.99(3)
_cell_angle_gamma                90
_cell_volume                     1369.32
loop_
_atom_site_label
_atom_site_type_symbol
_atom_site_fract_x
_atom_site_fract_y
_atom_site_fract_z
Cd1 Cd 0.144493(18) 0.455482(11) 0.042520(19)
O1 O 0.0179(2) 0.44333(14) 0.2203(2)
O2 O -0.1924(2) 0.50481(15) 0.1617(2)
O3 O -0.0013(2) 0.15915(13) 0.4582(2)
O4 O -0.2100(2) 0.10079(12) 0.3922(2)
N1 N 0.4475(2) 0.23539(14) 0.1599(2)
N2 N 0.3256(2) 0.35923(14) 0.0927(2)
C1 C 0.4953(3) 0.07062(17) 0.0955(3)
C2 C 0.5747(3) -0.01046(18) 0.1182(3)
H1 H 0.6262 -0.0180 0.1986
C3 C 0.4211(3) 0.08061(18) -0.0237(3)
H2 H 0.3672 0.1355 -0.0408
C4 C 0.4848(3) 0.14086(18) 0.2061(3)
H3 H 0.4135 0.1189 0.2651
H4 H 0.5754 0.1435 0.2564
C5 C 0.3210(3) 0.27734(17) 0.1540(3)
C6 C 0.4646(3) 0.36954(18) 0.0557(3)
H5 H 0.4996 0.4212 0.0094
C7 C 0.5394(3) 0.2945(2) 0.0966(3)
H6 H 0.6356 0.2836 0.0849
C8 C 0.1950(3) 0.2366(2) 0.2104(4)
H7 H 0.1166 0.2801 0.1975
H8 H 0.2137 0.2258 0.3034
H9 H 0.1717 0.1770 0.1674
C9 C -0.1070(3) 0.46436(16) 0.2412(3)
C10 C -0.1579(3) 0.44195(17) 0.3758(3)
H10 H -0.2612 0.4411 0.3706
H11 H -0.1277 0.4928 0.4361
C11 C -0.1048(3) 0.34775(17) 0.4324(3)
H12 H -0.0018 0.3455 0.4301
H13 H -0.1293 0.3431 0.5242
C12 C -0.1679(3) 0.26412(17) 0.3563(3)
H14 H -0.1422 0.2695 0.2650
H15 H -0.2708 0.2684 0.3570
C13 C -0.1231(3) 0.16686(18) 0.4069(3)
N1B N 0.5525(2) -0.23539(14) -0.1599(2)
N2B N 0.6744(2) -0.35923(14) -0.0927(2)
C1B C 0.5047(3) -0.07062(17) -0.0955(3)
C2B C 0.4253(3) 0.01046(18) -0.1182(3)
H1B H 0.3738 0.0180 -0.1986
C3B C 0.5789(3) -0.08061(18) 0.0237(3)
H2B H 0.6328 -0.1355 0.0408
C4B C 0.5152(3) -0.14086(18) -0.2061(3)
H3B H 0.5865 -0.1189 -0.2651
H4B H 0.4246 -0.1435 -0.2564
C5B C 0.6790(3) -0.27734(17) -0.1540(3)
C6B C 0.5354(3) -0.36954(18) -0.0557(3)
H5B H 0.5004 -0.4212 -0.0094
C7B C 0.4606(3) -0.2945(2) -0.0966(3)
H6B H 0.3644 -0.2836 -0.0849
C8B C 0.8050(3) -0.2366(2) -0.2104(4)
H7B H 0.8834 -0.2801 -0.1975
H8B H 0.7863 -0.2258 -0.3034
H9B H 0.8283 -0.1770 -0.1674
Cd1B Cd -0.144493(18) 0.544518(11) -0.042520(19)
O1B O -0.0179(2) 0.55667(14) -0.2203(2)
O2B O 0.1924(2) 0.49519(15) -0.1617(2)
O3B O 0.0013(2) 0.84085(13) -0.4582(2)
O4B O 0.2100(2) 0.89921(12) -0.3922(2)
C9B C 0.1070(3) 0.53564(16) -0.2412(3)
C10B C 0.1579(3) 0.55805(17) -0.3758(3)
H10B H 0.2612 0.5589 -0.3706
H11B H 0.1277 0.5072 -0.4361
C11B C 0.1048(3) 0.65225(17) -0.4324(3)
H12B H 0.0018 0.6545 -0.4301
H13B H 0.1293 0.6569 -0.5242
C12B C 0.1679(3) 0.73588(17) -0.3563(3)
H14B H 0.1422 0.7305 -0.2650
H15B H 0.2708 0.7316 -0.3570
C13B C 0.1231(3) 0.83314(18) -0.4069(3)
Cd1A Cd -0.144493(18) -0.044518(11) 0.457480(19)
Cd1A_2 Cd -0.144493(18) 0.955482(11) -0.542520(19)
Cd1B_2 Cd 0.855507(18) -0.455482(11) -0.042520(19)
Cd1C Cd 0.144493(18) 0.044518(11) 0.542520(19)
Cd1C_2 Cd 0.144493(18) 1.044518(11) -0.457480(19)
O3A O 0.0013(2) 0.65915(13) 0.0418(2)
O3C O -0.0013(2) 0.34085(13) -0.0418(2)
O4A O 0.2100(2) 0.60079(12) 0.1078(2)
O4C O -0.2100(2) 0.39921(12) -0.1078(2)
N2B_2 N -0.3256(2) 0.64077(14) -0.0927(2)
loop_
_geom_bond_atom_site_label_1
_geom_bond_atom_site_label_2
_geom_bond_site_symmetry_1
_geom_bond_site_symmetry_2
Cd1 O1 1_555 1_555
O1 C9 1_555 1_555
O2 C9 1_555 1_555
O3 C13 1_555 1_555
O4 C13 1_555 1_555
N1 C4 1_555 1_555
N2 Cd1 1_555 1_555
C1 C2 1_555 1_555
C2 H1 1_555 1_555
C3 C1 1_555 1_555
H2 C3 1_555 1_555
C4 C1 1_555 1_555
H3 C4 1_555 1_555
H4 C4 1_555 1_555
C5 N1 1_555 1_555
C6 N2 1_555 1_555
H5 C6 1_555 1_555
C7 N1 1_555 1_555
H6 C7 1_555 1_555
C8 C5 1_555 1_555
H7 C8 1_555 1_555
H8 C8 1_555 1_555
H9 C8 1_555 1_555
C9 C10 1_555 1_555
C10 H10 1_555 1_555
H11 C10 1_555 1_555
C11 C10 1_555 1_555
H12 C11 1_555 1_555
H13 C11 1_555 1_555
C12 C11 1_555 1_555
H14 C12 1_555 1_555
H15 C12 1_555 1_555
C13 C12 1_555 1_555
N1B C4B 1_555 1_555
N2B C5B 1_555 1_555
C1B C2B 1_555 1_555
C2B C3 1_555 1_555
H1B C2B 1_555 1_555
C3B C2 1_555 1_555
H2B C3B 1_555 1_555
C4B C1B 1_555 1_555
H3B C4B 1_555 1_555
H4B C4B 1_555 1_555
C5B N1B 1_555 1_555
C6B N2B 1_555 1_555
H5B C6B 1_555 1_555
C7B N1B 1_555 1_555
H6B C7B 1_555 1_555
C8B C5B 1_555 1_555
H7B C8B 1_555 1_555
H8B C8B 1_555 1_555
H9B C8B 1_555 1_555
Cd1B O2 1_555 1_555
O1B Cd1B 1_555 1_555
O2B Cd1 1_555 1_555
O3B C13B 1_555 1_555
O4B C13B 1_555 1_555
C9B O1B 1_555 1_555
C10B C9B 1_555 1_555
H10B C10B 1_555 1_555
H11B C10B 1_555 1_555
C11B C10B 1_555 1_555
H12B C11B 1_555 1_555
H13B C11B 1_555 1_555
C12B C11B 1_555 1_555
H14B C12B 1_555 1_555
H15B C12B 1_555 1_555
C13B C12B 1_555 1_555
Cd1A O4 1_555 1_555
Cd1A_2 O3B 1_555 1_555
Cd1B_2 N2B 1_555 1_555
Cd1C O3 1_555 1_555
Cd1C_2 O4B 1_555 1_555
O3A Cd1B 1_555 1_555
O3C Cd1 1_555 1_555
O4A Cd1 1_555 1_555
O4C Cd1B 1_555 1_555
N2B_2 Cd1B 1_555 1_555
N2 C5 1_555 1_555
C6 C7 1_555 1_555
C1B C3B 1_555 1_555
C6B C7B 1_555 1_555
O2B C9B 1_555 1_555

#END
