
#######################################################################
#
#                 Cambridge Crystallographic Data Centre
#                                CCDC 
#
#######################################################################
#
# If this CIF has been generated from an entry in the Cambridge 
# Structural Database, then it will include bibliographic, chemical, 
# crystal, experimental, refinement or atomic coordinate data resulting 
# from the CCDC's data processing and validation procedures.
#
#######################################################################

data_TOHHIJ
_symmetry_cell_setting           monoclinic
_symmetry_space_group_name_H-M   'P 21/c'
_symmetry_Int_Tables_number      14
_space_group_name_Hall           '-P 2ybc'
loop_
_symmetry_equiv_pos_site_id
_symmetry_equiv_pos_as_xyz
1 x,y,z
2 -x,1/2+y,1/2-z
3 -x,-y,-z
4 x,1/2-y,1/2+z
_cell_length_a                   11.0462(8)
_cell_length_b                   11.4711(5)
_cell_length_c                   14.6042(9)
_cell_angle_alpha                90
_cell_angle_beta                 102.636(7)
_cell_angle_gamma                90
_cell_volume                     1805.71
loop_
_atom_site_label
_atom_site_type_symbol
_atom_site_fract_x
_atom_site_fract_y
_atom_site_fract_z
Se1 Se 0.34420(11) 1.31710(8) 0.66794(8)
Co1 Co 0.5000 1.0000 0.5000
N1 N 0.4129(7) 0.8477(6) 0.5433(5)
C1 C 0.2250(8) 0.4820(8) 0.2645(7)
H1 H 0.2662 0.4334 0.2304
C2 C 0.0852(11) 0.5330(11) 0.1128(8)
H2 H 0.1408 0.4807 0.0912
H3 H 0.0882 0.6082 0.0845
H4 H 0.0022 0.5029 0.0958
C3 C 0.3844(9) 0.8254(8) 0.6266(7)
H5 H 0.4071 0.8750 0.6778
N2 N 0.3108(7) 0.6859(6) 0.5420(5)
N3 N -0.3333(7) 0.5299(6) 0.1061(5)
C4 C 0.0300(12) 0.6976(12) 0.4235(9)
H6 H 0.0481 0.7783 0.4149
H7 H 0.0556 0.6778 0.4887
H8 H -0.0576 0.6846 0.4028
C5 C 0.2673(8) 0.4898(8) 0.3607(7)
C6 C 0.3836(10) 0.4227(9) 0.4040(8)
H9 H 0.3992 0.3650 0.3604
H10 H 0.3727 0.3851 0.4604
H11 H 0.4526 0.4754 0.4188
C7 C -0.0542(10) 0.6811(9) 0.2179(9)
H12 H -0.0774 0.7380 0.2601
H13 H -0.0345 0.7227 0.1651
N4 N -0.1826(8) 0.5108(7) 0.2363(6)
C8 C 0.1231(9) 0.5444(8) 0.2176(7)
C9 C 0.0991(9) 0.6224(8) 0.3667(7)
C10 C 0.0600(9) 0.6143(8) 0.2691(7)
C11 C 0.4021(8) 1.1876(8) 0.6247(6)
N5 N 0.3221(8) 0.7285(7) 0.6301(5)
N6 N -0.1589(7) 0.6020(7) 0.1839(6)
C12 C 0.2045(8) 0.5605(7) 0.4123(7)
N7 N 0.4346(8) 1.1041(7) 0.5948(6)
C13 C 0.2504(9) 0.5723(8) 0.5165(7)
H14 H 0.1811 0.5639 0.5469
H15 H 0.3091 0.5103 0.5390
C14 C -0.2493(8) 0.6127(8) 0.1078(7)
H16 H -0.2531 0.6701 0.0623
C15 C 0.3654(8) 0.7567(7) 0.4928(6)
H17 H 0.3699 0.7443 0.4307
C16 C -0.2871(9) 0.4703(8) 0.1867(7)
H18 H -0.3269 0.4057 0.2051
Se1B Se 0.65580(11) 0.68290(8) 0.33206(8)
N1B N 0.5871(7) 1.1523(6) 0.4567(5)
C1B C 0.7750(8) 1.5180(8) 0.7355(7)
H1B H 0.7338 1.5666 0.7696
C2B C 0.9148(11) 1.4670(11) 0.8872(8)
H2B H 0.8592 1.5193 0.9088
H3B H 0.9118 1.3918 0.9155
H4B H 0.9978 1.4971 0.9042
C3B C 0.6156(9) 1.1746(8) 0.3734(7)
H5B H 0.5929 1.1250 0.3222
N2B N 0.6892(7) 1.3141(6) 0.4580(5)
N3B N 1.3333(7) 1.4701(6) 0.8939(5)
C4B C 0.9700(12) 1.3024(12) 0.5765(9)
H6B H 0.9519 1.2217 0.5851
H7B H 0.9444 1.3222 0.5113
H8B H 1.0576 1.3154 0.5972
C5B C 0.7327(8) 1.5102(8) 0.6393(7)
C6B C 0.6164(10) 1.5773(9) 0.5960(8)
H9B H 0.6008 1.6350 0.6396
H10B H 0.6273 1.6149 0.5396
H11B H 0.5474 1.5246 0.5812
C7B C 1.0542(10) 1.3189(9) 0.7821(9)
H12B H 1.0774 1.2620 0.7399
H13B H 1.0345 1.2773 0.8349
N4B N 1.1826(8) 1.4892(7) 0.7637(6)
C8B C 0.8769(9) 1.4556(8) 0.7824(7)
C9B C 0.9009(9) 1.3776(8) 0.6333(7)
C10B C 0.9400(9) 1.3857(8) 0.7309(7)
C11B C 0.5979(8) 0.8124(8) 0.3753(6)
N5B N 0.6779(8) 1.2715(7) 0.3699(5)
N6B N 1.1589(7) 1.3980(7) 0.8161(6)
C12B C 0.7955(8) 1.4395(7) 0.5877(7)
N7B N 0.5654(8) 0.8959(7) 0.4052(6)
C13B C 0.7496(9) 1.4277(8) 0.4835(7)
H14B H 0.8189 1.4361 0.4531
H15B H 0.6909 1.4897 0.4610
C14B C 1.2493(8) 1.3873(8) 0.8922(7)
H16B H 1.2531 1.3299 0.9377
C15B C 0.6346(8) 1.2433(7) 0.5072(6)
H17B H 0.6301 1.2557 0.5693
C16B C 1.2871(9) 1.5297(8) 0.8133(7)
H18B H 1.3269 1.5943 0.7949
Co1A Co -0.5000 0.5000 0.0000
Co1A_2 Co 1.5000 1.5000 1.0000
N3A N 0.3333(7) 1.0299(6) 0.3939(5)
N3C N 0.6667(7) 0.9701(6) 0.6061(5)
loop_
_geom_bond_atom_site_label_1
_geom_bond_atom_site_label_2
_geom_bond_site_symmetry_1
_geom_bond_site_symmetry_2
Se1 C11 1_555 1_555
Co1 N1 1_555 1_555
N1 C3 1_555 1_555
C1 H1 1_555 1_555
C2 H2 1_555 1_555
H3 C2 1_555 1_555
H4 C2 1_555 1_555
C3 H5 1_555 1_555
N2 N5 1_555 1_555
N3 C14 1_555 1_555
C4 H6 1_555 1_555
H7 C4 1_555 1_555
H8 C4 1_555 1_555
C5 C1 1_555 1_555
C6 C5 1_555 1_555
H9 C6 1_555 1_555
H10 C6 1_555 1_555
H11 C6 1_555 1_555
C7 H12 1_555 1_555
H13 C7 1_555 1_555
N4 N6 1_555 1_555
C8 C1 1_555 1_555
C9 C4 1_555 1_555
C10 C7 1_555 1_555
C11 N7 1_555 1_555
N5 C3 1_555 1_555
N6 C7 1_555 1_555
C12 C5 1_555 1_555
N7 Co1 1_555 1_555
C13 N2 1_555 1_555
H14 C13 1_555 1_555
H15 C13 1_555 1_555
C14 N6 1_555 1_555
H16 C14 1_555 1_555
C15 N1 1_555 1_555
H17 C15 1_555 1_555
C16 N3 1_555 1_555
H18 C16 1_555 1_555
Se1B C11B 1_555 1_555
N1B Co1 1_555 1_555
C1B H1B 1_555 1_555
C2B H2B 1_555 1_555
H3B C2B 1_555 1_555
H4B C2B 1_555 1_555
C3B N1B 1_555 1_555
H5B C3B 1_555 1_555
N2B N5B 1_555 1_555
N3B C14B 1_555 1_555
C4B H6B 1_555 1_555
H7B C4B 1_555 1_555
H8B C4B 1_555 1_555
C5B C1B 1_555 1_555
C6B C5B 1_555 1_555
H9B C6B 1_555 1_555
H10B C6B 1_555 1_555
H11B C6B 1_555 1_555
C7B H12B 1_555 1_555
H13B C7B 1_555 1_555
N4B N6B 1_555 1_555
C8B C1B 1_555 1_555
C9B C4B 1_555 1_555
C10B C7B 1_555 1_555
C11B N7B 1_555 1_555
N5B C3B 1_555 1_555
N6B C7B 1_555 1_555
C12B C5B 1_555 1_555
N7B Co1 1_555 1_555
C13B N2B 1_555 1_555
H14B C13B 1_555 1_555
H15B C13B 1_555 1_555
C14B N6B 1_555 1_555
H16B C14B 1_555 1_555
C15B N1B 1_555 1_555
H17B C15B 1_555 1_555
C16B N3B 1_555 1_555
H18B C16B 1_555 1_555
Co1A N3 1_555 1_555
Co1A_2 N3B 1_555 1_555
N3A Co1 1_555 1_555
N3C Co1 1_555 1_555
C2 C8 1_555 1_555
N2 C15 1_555 1_555
N4 C16 1_555 1_555
C8 C10 1_555 1_555
C9 C10 1_555 1_555
C9 C12 1_555 1_555
C12 C13 1_555 1_555
C2B C8B 1_555 1_555
N2B C15B 1_555 1_555
N4B C16B 1_555 1_555
C8B C10B 1_555 1_555
C9B C10B 1_555 1_555
C9B C12B 1_555 1_555
C12B C13B 1_555 1_555

#END
