
#######################################################################
#
#                 Cambridge Crystallographic Data Centre
#                                CCDC 
#
#######################################################################
#
# If this CIF has been generated from an entry in the Cambridge 
# Structural Database, then it will include bibliographic, chemical, 
# crystal, experimental, refinement or atomic coordinate data resulting 
# from the CCDC's data processing and validation procedures.
#
#######################################################################

data_TOHJEH
_symmetry_cell_setting           monoclinic
_symmetry_space_group_name_H-M   'P 21/c'
_symmetry_Int_Tables_number      14
_space_group_name_Hall           '-P 2ybc'
loop_
_symmetry_equiv_pos_site_id
_symmetry_equiv_pos_as_xyz
1 x,y,z
2 -x,1/2+y,1/2-z
3 -x,-y,-z
4 x,1/2-y,1/2+z
_cell_length_a                   14.700(3)
_cell_length_b                   7.1567(14)
_cell_length_c                   19.598(4)
_cell_angle_alpha                90
_cell_angle_beta                 108.57(3)
_cell_angle_gamma                90
_cell_volume                     1954.43
loop_
_atom_site_label
_atom_site_type_symbol
_atom_site_fract_x
_atom_site_fract_y
_atom_site_fract_z
C1 C 0.1254(3) 0.2113(6) 0.1974(2)
C2 C 0.2147(3) 0.3117(6) 0.1983(2)
C3 C 0.2938(3) 0.2002(7) 0.2006(3)
H1 H 0.2900 0.0706 0.2019
C4 C 0.3790(3) 0.2889(7) 0.2008(3)
H2 H 0.4325 0.2167 0.2031
C5 C 0.3852(4) 0.4783(8) 0.1978(3)
H3 H 0.4419 0.5343 0.1970
C6 C 0.3074(3) 0.5862(8) 0.1962(3)
H4 H 0.3125 0.7156 0.1951
C7 C 0.2212(3) 0.5067(7) 0.1961(2)
C8 C 0.1386(3) 0.6278(6) 0.1957(2)
C9 C 0.1634(3) 0.7184(6) 0.3519(2)
C10 C 0.2365(3) 0.8713(8) 0.3813(3)
H5 H 0.2437 0.9420 0.3411
H6 H 0.2115 0.9558 0.4097
C11 C 0.3525(4) 0.7618(7) 0.4974(3)
C12 C 0.4586(3) 0.7310(8) 0.5248(3)
C13 C 0.5180(4) 0.6824(8) 0.5918(3)
H7 H 0.4939 0.6580 0.6294
C14 C 0.6157(4) 0.6709(8) 0.6015(3)
H8 H 0.6576 0.6384 0.6465
C15 C 0.6515(4) 0.7067(7) 0.5461(4)
H9 H 0.7172 0.6959 0.5540
C16 C 0.5915(3) 0.7585(8) 0.4786(3)
H10 H 0.6158 0.7837 0.4411
C17 C 0.4943(3) 0.7715(7) 0.4689(3)
C18 C 0.4125(3) 0.8169(6) 0.4038(3)
N1 N 0.3308(3) 0.8088(5) 0.4255(2)
Nd1 Nd 0.011334(15) 0.42018(3) 0.296378(12)
O1 O 0.1092(2) 0.1821(4) 0.25729(16)
O2 O 0.0732(2) 0.1382(5) 0.13987(17)
O3 O 0.0607(2) 0.5562(4) 0.19824(17)
O4 O 0.1478(2) 0.8026(5) 0.1936(2)
O5 O 0.0796(2) 0.7788(5) 0.31777(17)
O6 O 0.1820(2) 0.5508(5) 0.3597(2)
O7 O 0.2954(3) 0.7455(7) 0.5295(2)
O8 O 0.4127(3) 0.8596(7) 0.3443(2)
O9 O 0.0717(3) 0.2894(6) 0.4159(2)
H11 H 0.0640 0.1828 0.4324
H12 H 0.0802 0.3818 0.4443
Nd1A Nd -0.011334(15) -0.07982(3) 0.203622(12)
Nd1A_2 Nd -0.011334(15) 0.92018(3) 0.203622(12)
O1A O -0.1092(2) 0.6821(4) 0.24271(16)
O2A O -0.0732(2) 0.6382(5) 0.36013(17)
O3A O -0.0607(2) 0.0562(4) 0.30176(17)
O4A O -0.1478(2) 0.3026(5) 0.3064(2)
O5A O -0.0796(2) 0.2788(5) 0.18223(17)
O10 O 0.0562(4) 0.9329(7) 0.4581(3)
H13 H 0.0474 0.9181 0.4985
H14 H 0.0186 0.8759 0.4220
O11 O 0.1316(5) 0.5341(11) 0.5261(3)
H15 H 0.1747 0.4477 0.5354
H16 H 0.1116 0.5231 0.5622
loop_
_geom_bond_atom_site_label_1
_geom_bond_atom_site_label_2
_geom_bond_site_symmetry_1
_geom_bond_site_symmetry_2
C1 C2 1_555 1_555
C2 C3 1_555 1_555
C3 H1 1_555 1_555
C4 C3 1_555 1_555
H2 C4 1_555 1_555
C5 C4 1_555 1_555
H3 C5 1_555 1_555
C6 C5 1_555 1_555
H4 C6 1_555 1_555
C7 C2 1_555 1_555
C8 C7 1_555 1_555
C9 C10 1_555 1_555
C10 H5 1_555 1_555
H6 C10 1_555 1_555
C11 C12 1_555 1_555
C12 C13 1_555 1_555
C13 H7 1_555 1_555
C14 C13 1_555 1_555
H8 C14 1_555 1_555
C15 C14 1_555 1_555
H9 C15 1_555 1_555
C16 C15 1_555 1_555
H10 C16 1_555 1_555
C17 C12 1_555 1_555
C18 C17 1_555 1_555
N1 C10 1_555 1_555
Nd1 O1 1_555 1_555
O1 C1 1_555 1_555
O2 C1 1_555 1_555
O3 C8 1_555 1_555
O4 C8 1_555 1_555
O5 C9 1_555 1_555
O6 C9 1_555 1_555
O7 C11 1_555 1_555
O8 C18 1_555 1_555
O9 Nd1 1_555 1_555
H11 O9 1_555 1_555
H12 O9 1_555 1_555
O10 H13 1_555 1_555
H14 O10 1_555 1_555
O11 H15 1_555 1_555
H16 O11 1_555 1_555
Nd1A O1 1_555 1_555
Nd1A_2 O3 1_555 1_555
O1A Nd1 1_555 1_555
O2A Nd1 1_555 1_555
O3A Nd1 1_555 1_555
O4A Nd1 1_555 1_555
O5A Nd1 1_555 1_555
C6 C7 1_555 1_555
C11 N1 1_555 1_555
C16 C17 1_555 1_555
C18 N1 1_555 1_555
Nd1 O3 1_555 1_555
Nd1 O5 1_555 1_555
Nd1 O6 1_555 1_555
O2 Nd1A 1_555 1_555
O4 Nd1A_2 1_555 1_555
O5 Nd1A_2 1_555 1_555
Nd1A O3A 1_555 1_555
Nd1A O5A 1_555 1_555
Nd1A_2 O1A 1_555 1_555

#END
