
#######################################################################
#
#                 Cambridge Crystallographic Data Centre
#                                CCDC 
#
#######################################################################
#
# If this CIF has been generated from an entry in the Cambridge 
# Structural Database, then it will include bibliographic, chemical, 
# crystal, experimental, refinement or atomic coordinate data resulting 
# from the CCDC's data processing and validation procedures.
#
#######################################################################

data_TOHJIL
_symmetry_cell_setting           triclinic
_symmetry_space_group_name_H-M   'P -1'
_symmetry_Int_Tables_number      2
_space_group_name_Hall           '-P 1'
loop_
_symmetry_equiv_pos_site_id
_symmetry_equiv_pos_as_xyz
1 x,y,z
2 -x,-y,-z
_cell_length_a                   9.8792(15)
_cell_length_b                   12.0798(18)
_cell_length_c                   12.2591(18)
_cell_angle_alpha                109.808(2)
_cell_angle_beta                 100.045(2)
_cell_angle_gamma                102.515(2)
_cell_volume                     1293.87
loop_
_atom_site_label
_atom_site_type_symbol
_atom_site_fract_x
_atom_site_fract_y
_atom_site_fract_z
U1 U 0.89620(5) 0.17411(4) 0.52161(4)
U2 U 1.13682(5) 0.33724(4) 0.98842(4)
U3 U 0.5000 0.5000 0.5000
P1 P 0.7428(4) 0.3379(3) 0.3662(3)
P2 P 1.0171(4) 0.5425(3) 0.2085(3)
P3 P 1.0355(4) 0.0474(3) 0.7283(3)
P4 P 0.7228(4) -0.2415(3) 0.7794(3)
O1 O 0.6466(11) 0.2306(9) 0.2511(9)
H1 H 0.5622 0.2290 0.2457
O2 O 0.6586(9) 0.3872(8) 0.4525(7)
O3 O 0.8625(9) 0.2965(8) 0.4216(8)
O4 O 1.1289(9) 0.5056(7) 0.1429(7)
O5 O 0.8873(10) 0.5488(8) 0.1244(8)
O6 O 1.0937(10) 0.6673(8) 0.3091(7)
O7 O 1.1331(9) 0.1696(8) 0.8259(7)
O8 O 0.9214(9) 0.0655(8) 0.6396(7)
O9 O 1.1327(9) -0.0195(7) 0.6639(7)
O10 O 0.6204(10) -0.1692(9) 0.8226(9)
O11 O 0.6436(9) -0.3720(8) 0.6886(7)
O12 O 0.8281(10) -0.2414(8) 0.8865(8)
O13 O 1.0835(9) 0.2215(8) 0.5464(7)
O14 O 0.7089(10) 0.1156(8) 0.4983(7)
O15 O 1.3263(9) 0.4016(7) 1.0191(7)
O16 O 0.9472(9) 0.2802(8) 0.9564(8)
O17 O 0.4196(10) 0.3965(8) 0.5592(8)
C1 C 0.8295(15) 0.4567(11) 0.3256(12)
H2 H 0.7574 0.4708 0.2714
H3 H 0.8703 0.5320 0.3975
C2 C 0.9498(15) 0.4314(12) 0.2646(11)
H4 H 0.9128 0.3510 0.1987
H5 H 1.0285 0.4288 0.3225
C3 C 0.9434(14) -0.0442(11) 0.7989(12)
H6 H 1.0142 -0.0633 0.8493
H7 H 0.8958 0.0045 0.8507
C4 C 0.8339(16) -0.1623(12) 0.7107(11)
H8 H 0.8835 -0.2165 0.6678
H9 H 0.7725 -0.1443 0.6521
U1A U 0.10380(5) -0.17411(4) 0.47839(4)
U2A U -0.13682(5) -0.33724(4) 0.01158(4)
P1A P 0.2572(4) -0.3379(3) 0.6338(3)
P2A P -0.0171(4) -0.5425(3) 0.7915(3)
P3A P -0.0355(4) -0.0474(3) 0.2717(3)
P4A P 0.2772(4) 0.2415(3) 0.2206(3)
O1A O 0.3534(11) -0.2306(9) 0.7489(9)
H1A H 0.4378 -0.2290 0.7543
O2A O 0.3414(9) -0.3872(8) 0.5475(7)
O3A O 0.1375(9) -0.2965(8) 0.5784(8)
O4A O -0.1289(9) -0.5056(7) 0.8571(7)
O5A O 0.1127(10) -0.5488(8) 0.8756(8)
O6A O -0.0937(10) -0.6673(8) 0.6909(7)
O7A O -0.1331(9) -0.1696(8) 0.1741(7)
O8A O 0.0786(9) -0.0655(8) 0.3604(7)
O9A O -0.1327(9) 0.0195(7) 0.3361(7)
O10A O 0.3796(10) 0.1692(9) 0.1774(9)
O11A O 0.3564(9) 0.3720(8) 0.3114(7)
O12A O 0.1719(10) 0.2414(8) 0.1135(8)
O13A O -0.0835(9) -0.2215(8) 0.4536(7)
O14A O 0.2911(10) -0.1156(8) 0.5017(7)
O15A O -0.3263(9) -0.4016(7) -0.0191(7)
O16A O 0.0528(9) -0.2802(8) 0.0436(8)
C1A C 0.1705(15) -0.4567(11) 0.6744(12)
H2A H 0.2426 -0.4708 0.7286
H3A H 0.1297 -0.5320 0.6025
C2A C 0.0502(15) -0.4314(12) 0.7354(11)
H4A H 0.0872 -0.3510 0.8013
H5A H -0.0285 -0.4288 0.6775
C3A C 0.0566(14) 0.0442(11) 0.2011(12)
H6A H -0.0142 0.0633 0.1507
H7A H 0.1042 -0.0045 0.1493
C4A C 0.1661(16) 0.1623(12) 0.2893(11)
H8A H 0.1165 0.2165 0.3322
H9A H 0.2275 0.1443 0.3479
O17A O 0.5804(10) 0.6035(8) 0.4408(8)
U1_2 U -0.10380(5) -0.82589(4) 0.52161(4)
U1_3 U -0.10380(5) 0.17411(4) 0.52161(4)
U1A_2 U 1.10380(5) -0.17411(4) 0.47839(4)
U1A_3 U 1.10380(5) 0.82589(4) 0.47839(4)
U2_2 U 0.13682(5) -0.66276(4) 0.98842(4)
U2_3 U 0.13682(5) 0.33724(4) -0.01158(4)
U2_4 U 1.13682(5) 0.33724(4) -0.01158(4)
U2A_2 U -0.13682(5) -0.33724(4) 1.01158(4)
U2A_3 U 0.86318(5) -0.33724(4) 1.01158(4)
U2A_4 U 0.86318(5) 0.66276(4) 0.01158(4)
U3_2 U 0.5000 -0.5000 0.5000
O2A_2 O 0.3414(9) 0.6128(8) 0.5475(7)
O4_2 O 1.1289(9) 0.5056(7) 1.1429(7)
O4A_2 O -0.1289(9) -0.5056(7) -0.1429(7)
O5_2 O -0.1127(10) -0.4512(8) 0.1244(8)
O5A_2 O 1.1127(10) 0.4512(8) 0.8756(8)
O6_2 O 0.0937(10) -0.3327(8) 0.3091(7)
O6A_2 O 0.9063(10) 0.3327(8) 0.6909(7)
O9_2 O 0.1327(9) -0.0195(7) 0.6639(7)
O9A_2 O 0.8673(9) 0.0195(7) 0.3361(7)
O11_2 O 0.6436(9) 0.6280(8) 0.6886(7)
O12_2 O -0.1719(10) -0.2414(8) -0.1135(8)
O12A_2 O 1.1719(10) 0.2414(8) 1.1135(8)
O18 O -0.296(2) 0.0765(15) 0.0278(15)
N1 N -0.5836(13) 0.1299(12) -0.2392(11)
H10 H -0.6724 0.0737 -0.2661
N2 N -0.3404(13) 0.2788(11) -0.1685(11)
H11 H -0.2513 0.3344 -0.1422
C5 C -0.5387(16) 0.1801(14) -0.1073(13)
H12 H -0.5175 0.1180 -0.0794
H13 H -0.6149 0.2059 -0.0752
C6 C -0.4049(18) 0.2898(14) -0.0654(13)
H14 H -0.4303 0.3661 -0.0396
H15 H -0.3364 0.2903 0.0020
C7 C -0.4770(16) 0.0672(15) -0.2859(16)
H16 H -0.4896 -0.0096 -0.2742
H17 H -0.4925 0.0485 -0.3713
C8 C -0.3287(15) 0.1510(14) -0.2191(14)
H18 H -0.2670 0.1458 -0.2730
H19 H -0.2881 0.1283 -0.1548
C9 C -0.5886(16) 0.2290(16) -0.2861(17)
H20 H -0.6408 0.2816 -0.2449
H21 H -0.6361 0.1930 -0.3717
C10 C -0.4345(15) 0.3021(14) -0.2625(14)
H22 H -0.4045 0.2779 -0.3362
H23 H -0.4260 0.3893 -0.2353
loop_
_geom_bond_atom_site_label_1
_geom_bond_atom_site_label_2
_geom_bond_site_symmetry_1
_geom_bond_site_symmetry_2
U1 O3 1_555 1_555
U2 O7 1_555 1_555
U3 O2 1_555 1_555
P1 O1 1_555 1_555
P2 O4 1_555 1_555
P3 O7 1_555 1_555
P4 O10 1_555 1_555
O1 H1 1_555 1_555
O2 P1 1_555 1_555
O3 P1 1_555 1_555
O4 U2_4 1_555 1_555
O5 P2 1_555 1_555
O6 P2 1_555 1_555
O8 U1 1_555 1_555
O9 P3 1_555 1_555
O11 P4 1_555 1_555
O12 P4 1_555 1_555
O13 U1 1_555 1_555
O14 U1 1_555 1_555
O15 U2 1_555 1_555
O16 U2 1_555 1_555
O17 U3 1_555 1_555
C1 P1 1_555 1_555
H2 C1 1_555 1_555
H3 C1 1_555 1_555
C2 P2 1_555 1_555
H4 C2 1_555 1_555
H5 C2 1_555 1_555
C3 P3 1_555 1_555
H6 C3 1_555 1_555
H7 C3 1_555 1_555
C4 P4 1_555 1_555
H8 C4 1_555 1_555
H9 C4 1_555 1_555
N1 H10 1_555 1_555
N2 H11 1_555 1_555
C5 N1 1_555 1_555
H12 C5 1_555 1_555
H13 C5 1_555 1_555
C6 N2 1_555 1_555
H14 C6 1_555 1_555
H15 C6 1_555 1_555
C7 N1 1_555 1_555
H16 C7 1_555 1_555
H17 C7 1_555 1_555
C8 N2 1_555 1_555
H18 C8 1_555 1_555
H19 C8 1_555 1_555
C9 N1 1_555 1_555
H20 C9 1_555 1_555
H21 C9 1_555 1_555
C10 N2 1_555 1_555
H22 C10 1_555 1_555
H23 C10 1_555 1_555
U1A O3A 1_555 1_555
U2A O7A 1_555 1_555
P1A O1A 1_555 1_555
P2A O4A 1_555 1_555
P3A O7A 1_555 1_555
P4A O10A 1_555 1_555
O1A H1A 1_555 1_555
O2A P1A 1_555 1_555
O3A P1A 1_555 1_555
O4A U2A_2 1_555 1_555
O5A P2A 1_555 1_555
O6A P2A 1_555 1_555
O8A U1A 1_555 1_555
O9A P3A 1_555 1_555
O11A U3 1_555 1_555
O12A P4A 1_555 1_555
O13A U1A 1_555 1_555
O14A U1A 1_555 1_555
O15A U2A 1_555 1_555
O16A U2A 1_555 1_555
C1A P1A 1_555 1_555
H2A C1A 1_555 1_555
H3A C1A 1_555 1_555
C2A P2A 1_555 1_555
H4A C2A 1_555 1_555
H5A C2A 1_555 1_555
C3A P3A 1_555 1_555
H6A C3A 1_555 1_555
H7A C3A 1_555 1_555
C4A P4A 1_555 1_555
H8A C4A 1_555 1_555
H9A C4A 1_555 1_555
O17A U3 1_555 1_555
U1_2 O6A 1_555 1_555
U1_3 O9A 1_555 1_555
U1A_2 O9 1_555 1_555
U1A_3 O6 1_555 1_555
U2_2 O5A 1_555 1_555
U2_3 O12A 1_555 1_555
U2A_3 O12 1_555 1_555
U2A_4 O5 1_555 1_555
U3_2 O11 1_555 1_555
O2A_2 U3 1_555 1_555
O4_2 U2 1_555 1_555
O4A_2 U2A 1_555 1_555
O5_2 U2A 1_555 1_555
O5A_2 U2 1_555 1_555
O6_2 U1A 1_555 1_555
O6A_2 U1 1_555 1_555
O9_2 U1A 1_555 1_555
O9A_2 U1 1_555 1_555
O11_2 U3 1_555 1_555
O12_2 U2A 1_555 1_555
O12A_2 U2 1_555 1_555
P3 O8 1_555 1_555
C1 C2 1_555 1_555
C3 C4 1_555 1_555
C5 C6 1_555 1_555
C7 C8 1_555 1_555
C9 C10 1_555 1_555
P3A O8A 1_555 1_555
P4A O11A 1_555 1_555
O2A U3_2 1_555 1_555
C1A C2A 1_555 1_555
C3A C4A 1_555 1_555

#END
