
#######################################################################
#
#                 Cambridge Crystallographic Data Centre
#                                CCDC 
#
#######################################################################
#
# If this CIF has been generated from an entry in the Cambridge 
# Structural Database, then it will include bibliographic, chemical, 
# crystal, experimental, refinement or atomic coordinate data resulting 
# from the CCDC's data processing and validation procedures.
#
#######################################################################

data_TOHJOR
_symmetry_cell_setting           triclinic
_symmetry_space_group_name_H-M   'P -1'
_symmetry_Int_Tables_number      2
_space_group_name_Hall           '-P 1'
loop_
_symmetry_equiv_pos_site_id
_symmetry_equiv_pos_as_xyz
1 x,y,z
2 -x,-y,-z
_cell_length_a                   18.4571(2)
_cell_length_b                   20.7783(3)
_cell_length_c                   21.6407(3)
_cell_angle_alpha                66.9300(10)
_cell_angle_beta                 72.8220(10)
_cell_angle_gamma                88.8650(10)
_cell_volume                     7251.46
loop_
_atom_site_label
_atom_site_type_symbol
_atom_site_fract_x
_atom_site_fract_y
_atom_site_fract_z
Ag1 Ag -0.46698(4) 1.05327(4) 0.86749(4)
Ag2 Ag -0.47729(4) 0.80241(4) 0.39362(4)
Ag3 Ag -0.47141(4) 0.68828(4) 0.60795(3)
Ag4 Ag -0.51936(4) 0.43819(4) 0.12516(3)
Ag5 Ag -0.95476(4) 0.59535(4) 0.32830(3)
Ag6 Ag -0.00853(4) 1.00547(4) 0.70161(3)
O1 O -0.4219(3) 0.9792(3) 0.7438(3)
O2 O -0.4491(3) 0.8365(3) 0.4980(3)
O3 O -0.1925(3) 0.9039(3) 0.5054(3)
O4 O -0.5100(3) 0.7822(3) 0.2121(3)
O5 O -0.7389(3) 0.6180(3) 0.2483(3)
O6 O -0.4976(3) 0.6152(3) -0.0206(3)
O7 O -0.5455(3) 0.4815(3) 0.2986(3)
O8 O -0.4904(3) 0.6668(3) 0.5012(3)
O9 O -0.7352(3) 0.6548(3) 0.4666(3)
O10 O -0.4524(3) 0.7074(3) 0.7871(3)
O11 O -0.2278(3) 0.8862(3) 0.7541(2)
O12 O -0.4855(3) 0.9190(3) 0.9828(3)
O13 O 0.1103(5) 0.9836(7) 0.6213(4)
H1 H 0.1039 0.9940 0.5818
H2 H 0.1570 0.9899 0.6157
N1 N -0.5911(4) 1.0492(4) 0.8953(3)
N2 N -0.5256(4) 0.9863(5) 0.7118(4)
H3 H -0.5493 0.9774 0.6857
N3 N -0.5957(3) 0.8109(3) 0.3989(3)
N4 N -0.5337(4) 0.9081(3) 0.5223(3)
H4 H -0.5492 0.9346 0.5459
N5 N -0.0484(4) 1.0526(5) 0.6117(4)
N6 N -0.1886(4) 0.8952(4) 0.6116(4)
H5 H -0.2149 0.8930 0.6536
N7 N -0.3544(3) 0.8146(3) 0.3456(3)
N8 N -0.3987(4) 0.7373(4) 0.1838(3)
H6 H -0.3755 0.7069 0.1678
N9 N -0.9930(3) 0.6443(4) 0.2381(3)
N10 N -0.7418(3) 0.6398(3) 0.1381(3)
H7 H -0.7147 0.6502 0.0938
N11 N -0.3604(4) 0.5527(3) -0.1675(3)
N12 N -0.3846(3) 0.6597(3) -0.0259(3)
H8 H -0.3596 0.6781 -0.0068
N13 N -0.3952(4) 0.4471(3) 0.0947(3)
N14 N -0.4250(4) 0.5217(4) 0.2772(4)
H9 H -0.3945 0.5478 0.2847
N15 N -0.3505(4) 0.6995(4) 0.5952(3)
N16 N -0.4027(4) 0.5938(4) 0.4780(3)
H10 H -0.3882 0.5645 0.4574
N17 N -0.9197(3) 0.5270(3) 0.4161(3)
N18 N -0.7458(3) 0.6384(3) 0.3723(3)
H11 H -0.7258 0.6214 0.3403
N19 N -0.5962(4) 0.6810(3) 0.6426(3)
N20 N -0.5630(4) 0.7563(3) 0.8099(3)
H12 H -0.5878 0.7856 0.8265
N21 N 0.0180(4) 0.9523(4) 0.7988(3)
N22 N -0.2244(4) 0.8473(4) 0.8659(3)
H13 H -0.2522 0.8325 0.9106
N23 N -0.6571(3) 0.9301(3) 1.1718(3)
N24 N -0.5906(4) 0.8535(4) 1.0011(3)
H14 H -0.6102 0.8198 0.9939
C1 C -0.3584(4) 0.4097(4) 0.0582(4)
H15 H -0.3877 0.3822 0.0460
C2 C -0.2815(5) 0.4098(5) 0.0385(4)
H16 H -0.2577 0.3827 0.0131
C3 C -0.2381(5) 0.4496(5) 0.0557(4)
H17 H -0.1841 0.4507 0.0421
C4 C -0.2748(5) 0.4871(5) 0.0925(4)
H18 H -0.2461 0.5141 0.1056
C5 C -0.3524(4) 0.4864(4) 0.1109(4)
C6 C -0.3932(5) 0.5235(4) 0.1563(4)
H19 H -0.4466 0.5262 0.1559
H20 H -0.3682 0.5722 0.1365
C7 C -0.3922(5) 0.4850(5) 0.2325(4)
H21 H -0.4208 0.4377 0.2531
H22 H -0.3388 0.4785 0.2321
C8 C -0.5004(5) 0.5171(4) 0.3073(4)
C9 C -0.5291(4) 0.5562(4) 0.3543(4)
C10 C -0.6026(4) 0.5764(4) 0.3640(4)
H23 H -0.6338 0.5660 0.3405
C11 C -0.3283(5) 0.7113(4) 0.6439(4)
H24 H -0.3665 0.7093 0.6854
C12 C -0.2540(5) 0.7260(5) 0.6371(5)
H25 H -0.2410 0.7334 0.6734
C13 C -0.1987(5) 0.7298(5) 0.5779(5)
H26 H -0.1465 0.7401 0.5717
C14 C -0.2207(5) 0.7182(5) 0.5265(4)
H27 H -0.1833 0.7219 0.4840
C15 C -0.2960(4) 0.7016(4) 0.5373(4)
C16 C -0.3222(4) 0.6840(4) 0.4856(4)
H28 H -0.2783 0.6925 0.4428
H29 H -0.3607 0.7153 0.4712
C17 C -0.3562(4) 0.6083(4) 0.5171(4)
H30 H -0.3144 0.5777 0.5181
H31 H -0.3885 0.5960 0.5665
C18 C -0.4668(4) 0.6243(4) 0.4733(3)
C19 C -0.5125(4) 0.6060(4) 0.4339(3)
C20 C -0.4832(4) 0.5709(4) 0.3904(3)
H32 H -0.4332 0.5570 0.3849
C21 C -0.9281(5) 0.4589(5) 0.4292(5)
H33 H -0.9484 0.4450 0.4003
C22 C -0.9079(5) 0.4078(5) 0.4837(6)
H34 H -0.9147 0.3593 0.4930
C23 C -0.8767(6) 0.4311(6) 0.5249(5)
H35 H -0.8613 0.3982 0.5625
C24 C -0.8693(5) 0.4995(5) 0.5102(5)
H36 H -0.8477 0.5151 0.5373
C25 C -0.8921(4) 0.5486(5) 0.4565(4)
C26 C -0.8839(5) 0.6243(5) 0.4409(4)
H37 H -0.8759 0.6300 0.4818
H38 H -0.9320 0.6438 0.4351
C27 C -0.8173(4) 0.6674(5) 0.3738(4)
H39 H -0.8304 0.6701 0.3317
H40 H -0.8113 0.7159 0.3707
C28 C -0.7079(4) 0.6360(4) 0.4174(4)
C29 C -0.6305(4) 0.6111(4) 0.4067(4)
C30 C -0.5852(4) 0.6262(4) 0.4409(3)
H41 H -0.6045 0.6510 0.4700
C31 C -0.6365(5) 0.6448(4) 0.6218(4)
H42 H -0.6100 0.6183 0.5968
C32 C -0.7132(5) 0.6443(5) 0.6347(4)
H43 H -0.7390 0.6194 0.6174
C33 C -0.7533(5) 0.6806(5) 0.6734(5)
H44 H -0.8071 0.6802 0.6845
C34 C -0.7117(5) 0.7172(5) 0.6949(4)
H45 H -0.7376 0.7429 0.7211
C35 C -0.6335(4) 0.7177(4) 0.6794(4)
C36 C -0.5890(5) 0.7575(4) 0.7039(4)
H46 H -0.6057 0.8051 0.6942
H47 H -0.5340 0.7629 0.6776
C37 C -0.6014(5) 0.7185(5) 0.7823(4)
H48 H -0.6568 0.7107 0.8079
H49 H -0.5824 0.6718 0.7913
C38 C -0.4915(5) 0.7478(4) 0.8107(4)
C39 C -0.4567(4) 0.7885(4) 0.8402(3)
C40 C -0.3794(4) 0.8059(4) 0.8166(4)
H50 H -0.3486 0.7944 0.7794
C41 C -0.6954(5) 0.9661(4) 1.2081(4)
H51 H -0.6674 1.0008 1.2129
C42 C -0.7726(5) 0.9555(4) 1.2385(4)
H52 H -0.7976 0.9820 1.2641
C43 C -0.8134(5) 0.9060(5) 1.2315(4)
H53 H -0.8674 0.8980 1.2515
C44 C -0.7743(5) 0.8678(4) 1.1946(4)
H54 H -0.8014 0.8326 1.1896
C45 C -0.6975(4) 0.8806(4) 1.1657(4)
C46 C -0.6544(5) 0.8424(4) 1.1232(4)
H55 H -0.6836 0.7965 1.1381
H56 H -0.6048 0.8332 1.1320
C47 C -0.6407(5) 0.8855(5) 1.0438(4)
H57 H -0.6902 0.8893 1.0342
H58 H -0.6178 0.9337 1.0304
C48 C -0.5154(5) 0.8735(4) 0.9722(4)
C49 C -0.4690(4) 0.8448(4) 0.9217(4)
C50 C -0.5025(4) 0.8083(4) 0.8929(4)
H59 H -0.5563 0.7969 0.9092
C51 C 0.0920(5) 0.9524(5) 0.7929(5)
H60 H 0.1279 0.9793 0.7481
C52 C 0.1191(5) 0.9159(6) 0.8481(5)
H61 H 0.1723 0.9161 0.8414
C53 C 0.0687(6) 0.8802(6) 0.9112(5)
H62 H 0.0855 0.8562 0.9510
C54 C -0.0061(5) 0.8784(5) 0.9183(5)
H63 H -0.0418 0.8513 0.9632
C55 C -0.0321(5) 0.9146(4) 0.8624(4)
C56 C -0.1167(4) 0.9130(5) 0.8690(4)
H64 H -0.1470 0.9035 0.9184
H65 H -0.1269 0.9595 0.8381
C57 C -0.1411(4) 0.8568(5) 0.8486(4)
H66 H -0.1171 0.8705 0.7973
H67 H -0.1232 0.8117 0.8740
C58 C -0.2601(4) 0.8594(4) 0.8184(4)
C59 C -0.3452(4) 0.8405(4) 0.8466(3)
C60 C -0.3904(4) 0.8597(4) 0.8987(4)
H68 H -0.3673 0.8834 0.9189
C61 C -0.0436(6) 1.1214(7) 0.5784(5)
H69 H -0.0278 1.1482 0.6000
C62 C -0.0589(6) 1.1599(7) 0.5152(6)
H70 H -0.0527 1.2098 0.4928
C63 C -0.0849(6) 1.1157(7) 0.4883(5)
H71 H -0.0991 1.1363 0.4465
C64 C -0.0901(5) 1.0447(6) 0.5210(4)
H72 H -0.1078 1.0164 0.5018
C65 C -0.0697(5) 1.0125(6) 0.5824(4)
C66 C -0.0701(5) 0.9377(5) 0.6199(4)
H73 H -0.0978 0.9248 0.6705
H74 H -0.0167 0.9274 0.6161
C67 C -0.1050(5) 0.8909(6) 0.5955(5)
H75 H -0.0812 0.9057 0.5439
H76 H -0.0954 0.8417 0.6196
C68 C -0.2252(5) 0.9022(5) 0.5653(4)
C69 C -0.3093(5) 0.9063(4) 0.5878(4)
C70 C -0.3466(4) 0.9300(4) 0.6406(4)
H77 H -0.3177 0.9425 0.6647
C71 C -0.6271(5) 1.0796(5) 0.9378(4)
H78 H -0.5970 1.1019 0.9541
C72 C -0.7023(5) 1.0812(5) 0.9592(4)
H79 H -0.7244 1.1042 0.9894
C73 C -0.7466(5) 1.0497(5) 0.9373(5)
H80 H -0.8002 1.0512 0.9503
C74 C -0.7125(5) 1.0159(6) 0.8966(6)
H81 H -0.7423 0.9924 0.8810
C75 C -0.6340(5) 1.0152(5) 0.8771(5)
C76 C -0.5941(6) 0.9721(5) 0.8314(5)
H82 H -0.5512 0.9492 0.8468
H83 H -0.6312 0.9356 0.8358
C77 C -0.5663(6) 1.0256(5) 0.7581(5)
H84 H -0.5303 1.0627 0.7543
H85 H -0.6095 1.0479 0.7427
C78 C -0.4573(5) 0.9656(5) 0.7096(4)
C79 C -0.4225(4) 0.9355(4) 0.6577(4)
C80 C -0.4642(4) 0.9157(4) 0.6231(4)
H86 H -0.5178 0.9177 0.6359
C81 C -0.6167(5) 0.8066(4) 0.3454(4)
H87 H -0.5797 0.7975 0.3094
C82 C -0.6886(5) 0.8147(5) 0.3416(4)
H88 H -0.7017 0.8116 0.3035
C83 C -0.7428(5) 0.8278(5) 0.3944(5)
H89 H -0.7933 0.8342 0.3925
C84 C -0.7224(5) 0.8314(5) 0.4507(5)
H90 H -0.7587 0.8397 0.4876
C85 C -0.6479(4) 0.8225(4) 0.4508(4)
C86 C -0.6193(5) 0.8295(4) 0.5066(4)
H91 H -0.6629 0.8224 0.5493
H92 H -0.5847 0.7932 0.5201
C87 C -0.5776(5) 0.9013(4) 0.4780(4)
H93 H -0.5423 0.9121 0.4299
H94 H -0.6149 0.9365 0.4741
C88 C -0.4725(4) 0.8762(4) 0.5281(4)
C89 C -0.4290(4) 0.8929(4) 0.5693(4)
C90 C -0.3519(5) 0.8884(4) 0.5520(4)
H95 H -0.3274 0.8731 0.5157
C91 C -0.3138(5) 0.8546(4) 0.3618(4)
H96 H -0.3398 0.8780 0.3904
C92 C -0.2356(5) 0.8627(5) 0.3383(5)
H97 H -0.2082 0.8921 0.3501
C93 C -0.1968(5) 0.8285(5) 0.2977(5)
H98 H -0.1426 0.8337 0.2807
C94 C -0.2392(5) 0.7864(5) 0.2824(4)
H99 H -0.2139 0.7609 0.2558
C95 C -0.3171(4) 0.7807(4) 0.3050(4)
C96 C -0.3644(5) 0.7375(4) 0.2858(4)
H100 H -0.4186 0.7310 0.3148
H101 H -0.3461 0.6905 0.2946
C97 C -0.3561(5) 0.7771(4) 0.2073(4)
H102 H -0.3754 0.8236 0.1993
H103 H -0.3015 0.7852 0.1790
C98 C -0.4708(5) 0.7451(5) 0.1858(4)
C99 C -0.5052(4) 0.7045(4) 0.1534(4)
C100 C -0.5833(4) 0.6838(4) 0.1830(4)
H104 H -0.6112 0.6918 0.2235
C101 C -0.3370(5) 0.5450(4) -0.2301(4)
H105 H -0.3745 0.5398 -0.2503
C102 C -0.2633(5) 0.5446(5) -0.2645(4)
H106 H -0.2498 0.5396 -0.3082
C103 C -0.2083(5) 0.5512(5) -0.2366(5)
H107 H -0.1559 0.5514 -0.2601
C104 C -0.2321(5) 0.5578(5) -0.1720(4)
H108 H -0.1950 0.5615 -0.1506
C105 C -0.3073(4) 0.5591(4) -0.1387(4)
C106 C -0.3341(5) 0.5714(4) -0.0721(4)
H109 H -0.2968 0.5564 -0.0459
H110 H -0.3836 0.5427 -0.0417
C107 C -0.3434(4) 0.6477(4) -0.0884(4)
H111 H -0.2924 0.6749 -0.1098
H112 H -0.3712 0.6653 -0.1235
C108 C -0.4603(4) 0.6430(4) 0.0026(4)
C109 C -0.5006(4) 0.6588(4) 0.0676(3)
C110 C -0.4644(4) 0.6928(4) 0.0957(4)
H113 H -0.4113 0.7080 0.0749
C111 C -1.0666(5) 0.6348(5) 0.2464(5)
H114 H -1.0999 0.6073 0.2924
C112 C -1.0970(5) 0.6619(5) 0.1933(5)
H115 H -1.1499 0.6523 0.2015
C113 C -1.0510(5) 0.7029(6) 0.1283(5)
H116 H -1.0713 0.7234 0.0902
C114 C -0.9729(5) 0.7152(5) 0.1171(5)
H117 H -0.9395 0.7439 0.0715
C115 C -0.9456(4) 0.6849(4) 0.1735(4)
C116 C -0.8611(4) 0.6937(4) 0.1644(4)
H118 H -0.8543 0.6996 0.2057
H119 H -0.8360 0.7364 0.1215
C117 C -0.8243(4) 0.6291(4) 0.1579(4)
H120 H -0.8440 0.5880 0.2036
H121 H -0.8386 0.6188 0.1218
C118 C -0.7050(4) 0.6346(4) 0.1844(4)
C119 C -0.6205(4) 0.6519(4) 0.1541(3)
C120 C -0.5789(4) 0.6388(4) 0.0959(4)
H122 H -0.6037 0.6165 0.0756
Ag1A Ag -0.53302(4) 0.94673(4) 1.13251(4)
Ag4A Ag -0.48064(4) 0.56181(4) -0.12516(3)
N11A N -0.6396(4) 0.4473(3) 0.1675(3)
N23A N -0.3429(3) 1.0699(3) 0.8282(3)
Cl1 Cl 0.00672(16) 0.22723(16) 0.67659(19)
O14 O 0.0262(8) 0.2548(7) 0.6016(7)
O15 O 0.0112(4) 0.1539(4) 0.7017(4)
O16 O -0.0650(4) 0.2439(4) 0.7059(5)
O17 O 0.0642(6) 0.2675(6) 0.6784(7)
Cl2 Cl 0.73722(11) 0.54461(11) 0.35434(10)
O18 O 0.6735(3) 0.4993(3) 0.4124(3)
O19 O 0.8001(3) 0.5054(3) 0.3435(4)
O20 O 0.7135(5) 0.5735(5) 0.2929(5)
O21 O 0.7593(3) 0.6009(3) 0.3695(3)
Cl3 Cl 0.23051(13) 0.28336(13) 0.95181(11)
O22 O 0.2660(4) 0.3246(4) 0.8804(3)
O23 O 0.1845(6) 0.2283(5) 0.9568(6)
O24 O 0.2836(4) 0.2492(5) 0.9859(3)
O25 O 0.1828(9) 0.3180(8) 0.9824(6)
Cl4 Cl 0.68692(13) 0.04764(14) 0.34745(12)
O26 O 0.7455(5) 0.0107(5) 0.3504(8)
O27 O 0.6991(6) 0.1019(5) 0.3632(7)
O28 O 0.6160(3) 0.0052(3) 0.3935(3)
O29 O 0.6817(7) 0.0789(9) 0.2818(5)
Cl5 Cl 0.74016(12) 0.21915(11) 0.04650(11)
O30 O 0.7053(4) 0.1940(4) 0.1205(3)
O31 O 0.6846(3) 0.2560(3) 0.0129(3)
O32 O 0.8057(3) 0.2672(3) 0.0234(4)
O33 O 0.7604(4) 0.1612(4) 0.0272(4)
Cl6 Cl -1.1012(3) 0.7231(3) 0.7574(3)
O34 O -1.0767(13) 0.6581(8) 0.8086(15)
O35 O -1.0447(9) 0.7888(6) 0.7335(8)
O36 O -1.1696(8) 0.7333(7) 0.7870(10)
O37 O -1.0992(5) 0.7113(5) 0.7028(4)
Cl7 Cl 0.0985(2) 0.9100(3) 0.0760(2)
Cl8 Cl -0.0649(3) 0.8991(4) 0.0975(3)
C121 C 0.0013(9) 0.8987(11) 0.1323(8)
H123 H -0.0067 0.8535 0.1739
H124 H -0.0050 0.9367 0.1497
O38 O 0.0382(8) 0.5217(7) 0.1230(11)
H125 H 0.0275 0.5095 0.1668
H126 H 0.0549 0.5646 0.1019
O39 O -0.1073(8) 0.4809(8) 0.1511(8)
H127 H -0.1517 0.4901 0.1669
H128 H -0.0820 0.4805 0.1778
O40 O -0.9017(11) 0.7551(13) 0.8010(14)
H129 H -0.8925 0.7466 0.7607
H130 H -0.9120 0.7169 0.8370
O41 O 0.0391(10) 0.6334(10) 0.6401(8)
H131 H 0.0422 0.6700 0.6473
H132 H 0.0013 0.6059 0.6714
O42 O -0.1496(11) 1.1513(11) 0.3444(12)
H133 H -0.1213 1.1758 0.3032
H134 H -0.1891 1.1710 0.3536
O43 O -0.9576(11) 0.6811(11) 0.9391(11)
H135 H -1.0094 0.6678 0.9417
H136 H -0.9548 0.7277 0.9401
loop_
_geom_bond_atom_site_label_1
_geom_bond_atom_site_label_2
_geom_bond_site_symmetry_1
_geom_bond_site_symmetry_2
Ag1 N1 1_555 1_555
Ag2 N3 1_555 1_555
Ag3 O8 1_555 1_555
Ag4 N13 1_555 1_555
Ag5 N9 1_555 1_555
Ag6 O13 1_555 1_555
O1 C78 1_555 1_555
O2 C88 1_555 1_555
O3 C68 1_555 1_555
O4 C98 1_555 1_555
O5 C118 1_555 1_555
O6 C108 1_555 1_555
O7 C8 1_555 1_555
O8 C18 1_555 1_555
O9 C28 1_555 1_555
O10 C38 1_555 1_555
O11 C58 1_555 1_555
O12 C48 1_555 1_555
O13 H1 1_555 1_555
H2 O13 1_555 1_555
N1 C71 1_555 1_555
N2 H3 1_555 1_555
N3 C81 1_555 1_555
N4 H4 1_555 1_555
N5 Ag6 1_555 1_555
N6 H5 1_555 1_555
N7 Ag2 1_555 1_555
N8 H6 1_555 1_555
N9 C111 1_555 1_555
N10 H7 1_555 1_555
N11 C101 1_555 1_555
N12 H8 1_555 1_555
N13 C1 1_555 1_555
N14 H9 1_555 1_555
N15 Ag3 1_555 1_555
N16 H10 1_555 1_555
N17 Ag5 1_555 1_555
N18 H11 1_555 1_555
N19 Ag3 1_555 1_555
N20 H12 1_555 1_555
N21 Ag6 1_555 1_555
N22 H13 1_555 1_555
N23 C41 1_555 1_555
N24 H14 1_555 1_555
C1 H15 1_555 1_555
C2 C1 1_555 1_555
H16 C2 1_555 1_555
C3 C2 1_555 1_555
H17 C3 1_555 1_555
C4 C3 1_555 1_555
H18 C4 1_555 1_555
C5 N13 1_555 1_555
C6 C5 1_555 1_555
H19 C6 1_555 1_555
H20 C6 1_555 1_555
C7 N14 1_555 1_555
H21 C7 1_555 1_555
H22 C7 1_555 1_555
C8 N14 1_555 1_555
C9 C8 1_555 1_555
C10 C9 1_555 1_555
H23 C10 1_555 1_555
C11 N15 1_555 1_555
H24 C11 1_555 1_555
C12 C11 1_555 1_555
H25 C12 1_555 1_555
C13 C12 1_555 1_555
H26 C13 1_555 1_555
C14 C13 1_555 1_555
H27 C14 1_555 1_555
C15 N15 1_555 1_555
C16 C15 1_555 1_555
H28 C16 1_555 1_555
H29 C16 1_555 1_555
C17 N16 1_555 1_555
H30 C17 1_555 1_555
H31 C17 1_555 1_555
C18 N16 1_555 1_555
C19 C18 1_555 1_555
C20 C9 1_555 1_555
H32 C20 1_555 1_555
C21 N17 1_555 1_555
H33 C21 1_555 1_555
C22 C21 1_555 1_555
H34 C22 1_555 1_555
C23 C22 1_555 1_555
H35 C23 1_555 1_555
C24 C23 1_555 1_555
H36 C24 1_555 1_555
C25 N17 1_555 1_555
C26 C25 1_555 1_555
H37 C26 1_555 1_555
H38 C26 1_555 1_555
C27 N18 1_555 1_555
H39 C27 1_555 1_555
H40 C27 1_555 1_555
C28 N18 1_555 1_555
C29 C10 1_555 1_555
C30 C19 1_555 1_555
H41 C30 1_555 1_555
C31 N19 1_555 1_555
H42 C31 1_555 1_555
C32 C31 1_555 1_555
H43 C32 1_555 1_555
C33 C32 1_555 1_555
H44 C33 1_555 1_555
C34 C33 1_555 1_555
H45 C34 1_555 1_555
C35 N19 1_555 1_555
C36 C35 1_555 1_555
H46 C36 1_555 1_555
H47 C36 1_555 1_555
C37 N20 1_555 1_555
H48 C37 1_555 1_555
H49 C37 1_555 1_555
C38 N20 1_555 1_555
C39 C38 1_555 1_555
C40 C39 1_555 1_555
H50 C40 1_555 1_555
C41 H51 1_555 1_555
C42 C41 1_555 1_555
H52 C42 1_555 1_555
C43 C42 1_555 1_555
H53 C43 1_555 1_555
C44 C43 1_555 1_555
H54 C44 1_555 1_555
C45 N23 1_555 1_555
C46 C45 1_555 1_555
H55 C46 1_555 1_555
H56 C46 1_555 1_555
C47 N24 1_555 1_555
H57 C47 1_555 1_555
H58 C47 1_555 1_555
C48 N24 1_555 1_555
C49 C48 1_555 1_555
C50 C39 1_555 1_555
H59 C50 1_555 1_555
C51 N21 1_555 1_555
H60 C51 1_555 1_555
C52 C51 1_555 1_555
H61 C52 1_555 1_555
C53 C52 1_555 1_555
H62 C53 1_555 1_555
C54 C53 1_555 1_555
H63 C54 1_555 1_555
C55 N21 1_555 1_555
C56 C55 1_555 1_555
H64 C56 1_555 1_555
H65 C56 1_555 1_555
C57 N22 1_555 1_555
H66 C57 1_555 1_555
H67 C57 1_555 1_555
C58 N22 1_555 1_555
C59 C40 1_555 1_555
C60 C49 1_555 1_555
H68 C60 1_555 1_555
C61 N5 1_555 1_555
H69 C61 1_555 1_555
C62 C61 1_555 1_555
H70 C62 1_555 1_555
C63 C62 1_555 1_555
H71 C63 1_555 1_555
C64 C63 1_555 1_555
H72 C64 1_555 1_555
C65 N5 1_555 1_555
C66 C65 1_555 1_555
H73 C66 1_555 1_555
H74 C66 1_555 1_555
C67 N6 1_555 1_555
H75 C67 1_555 1_555
H76 C67 1_555 1_555
C68 N6 1_555 1_555
C69 C68 1_555 1_555
C70 C69 1_555 1_555
H77 C70 1_555 1_555
C71 H78 1_555 1_555
C72 C71 1_555 1_555
H79 C72 1_555 1_555
C73 C72 1_555 1_555
H80 C73 1_555 1_555
C74 C73 1_555 1_555
H81 C74 1_555 1_555
C75 N1 1_555 1_555
C76 C75 1_555 1_555
H82 C76 1_555 1_555
H83 C76 1_555 1_555
C77 N2 1_555 1_555
H84 C77 1_555 1_555
H85 C77 1_555 1_555
C78 N2 1_555 1_555
C79 C70 1_555 1_555
C80 C79 1_555 1_555
H86 C80 1_555 1_555
C81 H87 1_555 1_555
C82 C81 1_555 1_555
H88 C82 1_555 1_555
C83 C82 1_555 1_555
H89 C83 1_555 1_555
C84 C83 1_555 1_555
H90 C84 1_555 1_555
C85 N3 1_555 1_555
C86 C85 1_555 1_555
H91 C86 1_555 1_555
H92 C86 1_555 1_555
C87 N4 1_555 1_555
H93 C87 1_555 1_555
H94 C87 1_555 1_555
C88 N4 1_555 1_555
C89 C80 1_555 1_555
C90 C69 1_555 1_555
H95 C90 1_555 1_555
C91 N7 1_555 1_555
H96 C91 1_555 1_555
C92 C91 1_555 1_555
H97 C92 1_555 1_555
C93 C92 1_555 1_555
H98 C93 1_555 1_555
C94 C93 1_555 1_555
H99 C94 1_555 1_555
C95 N7 1_555 1_555
C96 C95 1_555 1_555
H100 C96 1_555 1_555
H101 C96 1_555 1_555
C97 N8 1_555 1_555
H102 C97 1_555 1_555
H103 C97 1_555 1_555
C98 N8 1_555 1_555
C99 C98 1_555 1_555
C100 C99 1_555 1_555
H104 C100 1_555 1_555
C101 H105 1_555 1_555
C102 C101 1_555 1_555
H106 C102 1_555 1_555
C103 C102 1_555 1_555
H107 C103 1_555 1_555
C104 C103 1_555 1_555
H108 C104 1_555 1_555
C105 N11 1_555 1_555
C106 C105 1_555 1_555
H109 C106 1_555 1_555
H110 C106 1_555 1_555
C107 N12 1_555 1_555
H111 C107 1_555 1_555
H112 C107 1_555 1_555
C108 N12 1_555 1_555
C109 C108 1_555 1_555
C110 C99 1_555 1_555
H113 C110 1_555 1_555
C111 H114 1_555 1_555
C112 C111 1_555 1_555
H115 C112 1_555 1_555
C113 C112 1_555 1_555
H116 C113 1_555 1_555
C114 C113 1_555 1_555
H117 C114 1_555 1_555
C115 N9 1_555 1_555
C116 C115 1_555 1_555
H118 C116 1_555 1_555
H119 C116 1_555 1_555
C117 N10 1_555 1_555
H120 C117 1_555 1_555
H121 C117 1_555 1_555
C118 N10 1_555 1_555
C119 C100 1_555 1_555
C120 C109 1_555 1_555
H122 C120 1_555 1_555
Cl1 O14 1_555 1_555
O15 Cl1 1_555 1_555
O16 Cl1 1_555 1_555
O17 Cl1 1_555 1_555
Cl2 O18 1_555 1_555
O19 Cl2 1_555 1_555
O20 Cl2 1_555 1_555
O21 Cl2 1_555 1_555
Cl3 O22 1_555 1_555
O23 Cl3 1_555 1_555
O24 Cl3 1_555 1_555
O25 Cl3 1_555 1_555
Cl4 O26 1_555 1_555
O27 Cl4 1_555 1_555
O28 Cl4 1_555 1_555
O29 Cl4 1_555 1_555
Cl5 O30 1_555 1_555
O31 Cl5 1_555 1_555
O32 Cl5 1_555 1_555
O33 Cl5 1_555 1_555
Cl6 O34 1_555 1_555
O35 Cl6 1_555 1_555
O36 Cl6 1_555 1_555
O37 Cl6 1_555 1_555
Cl7 C121 1_555 1_555
Cl8 C121 1_555 1_555
C121 H123 1_555 1_555
H124 C121 1_555 1_555
O38 H125 1_555 1_555
H126 O38 1_555 1_555
O39 H127 1_555 1_555
H128 O39 1_555 1_555
O40 H129 1_555 1_555
H130 O40 1_555 1_555
O41 H131 1_555 1_555
H132 O41 1_555 1_555
O42 H133 1_555 1_555
H134 O42 1_555 1_555
O43 H135 1_555 1_555
H136 O43 1_555 1_555
Ag1A N23 1_555 1_555
Ag4A N11 1_555 1_555
N11A Ag4 1_555 1_555
N23A Ag1 1_555 1_555
C4 C5 1_555 1_555
C6 C7 1_555 1_555
C14 C15 1_555 1_555
C16 C17 1_555 1_555
C19 C20 1_555 1_555
C24 C25 1_555 1_555
C26 C27 1_555 1_555
C28 C29 1_555 1_555
C29 C30 1_555 1_555
C34 C35 1_555 1_555
C36 C37 1_555 1_555
C44 C45 1_555 1_555
C46 C47 1_555 1_555
C49 C50 1_555 1_555
C54 C55 1_555 1_555
C56 C57 1_555 1_555
C58 C59 1_555 1_555
C59 C60 1_555 1_555
C64 C65 1_555 1_555
C66 C67 1_555 1_555
C74 C75 1_555 1_555
C76 C77 1_555 1_555
C78 C79 1_555 1_555
C84 C85 1_555 1_555
C86 C87 1_555 1_555
C88 C89 1_555 1_555
C89 C90 1_555 1_555
C94 C95 1_555 1_555
C96 C97 1_555 1_555
C104 C105 1_555 1_555
C106 C107 1_555 1_555
C109 C110 1_555 1_555
C114 C115 1_555 1_555
C116 C117 1_555 1_555
C118 C119 1_555 1_555
C119 C120 1_555 1_555

#END
