
#######################################################################
#
#                 Cambridge Crystallographic Data Centre
#                                CCDC 
#
#######################################################################
#
# If this CIF has been generated from an entry in the Cambridge 
# Structural Database, then it will include bibliographic, chemical, 
# crystal, experimental, refinement or atomic coordinate data resulting 
# from the CCDC's data processing and validation procedures.
#
#######################################################################

data_TOHLIN
_symmetry_cell_setting           triclinic
_symmetry_space_group_name_H-M   'P -1'
_symmetry_Int_Tables_number      2
_space_group_name_Hall           '-P 1'
loop_
_symmetry_equiv_pos_site_id
_symmetry_equiv_pos_as_xyz
1 x,y,z
2 -x,-y,-z
_cell_length_a                   9.2202(4)
_cell_length_b                   9.3654(4)
_cell_length_c                   10.4641(5)
_cell_angle_alpha                91.568(4)
_cell_angle_beta                 94.240(4)
_cell_angle_gamma                91.571(4)
_cell_volume                     900.381
loop_
_atom_site_label
_atom_site_type_symbol
_atom_site_fract_x
_atom_site_fract_y
_atom_site_fract_z
Co1 Co 0.5000 0.5000 0.0000
S1 S 0.74025(8) 0.05127(8) -0.02669(6)
O1 O -0.17313(19) 0.3085(2) 0.37155(15)
N1 N 0.6014(2) 0.3121(3) -0.0530(2)
N2 N 0.1322(2) 0.2496(2) 0.84566(17)
N3 N 0.2963(2) 0.4010(2) 0.93397(18)
N4 N 0.0566(2) 0.3617(3) 0.8902(2)
N5 N 0.4697(2) 0.4098(2) 0.18526(19)
N6 N 0.3849(2) 0.2547(2) 0.31378(19)
N7 N 0.4046(3) 0.3772(3) 0.3858(2)
C1 C 0.4253(3) 0.2754(3) 0.1962(2)
H1 H 0.4227 0.2056 0.1311
C2 C 0.3190(3) 0.1248(3) 0.3623(2)
H2 H 0.3902 0.0795 0.4197
H3 H 0.2925 0.0585 0.2911
C3 C 0.3088(3) 0.0426(3) 0.6267(2)
H4 H 0.3270 -0.0415 0.5765
H5 H 0.2856 0.0157 0.7108
H6 H 0.3940 0.1045 0.6333
C4 C -0.1919(3) 0.2605(3) 0.6332(2)
H7 H -0.2278 0.1790 0.6763
H8 H -0.2660 0.2916 0.5718
H9 H -0.1662 0.3365 0.6949
C5 C -0.1639(3) 0.4617(3) 0.3763(2)
H10 H -0.2392 0.4983 0.3190
H11 H -0.0706 0.4933 0.3509
H12 H -0.1757 0.4960 0.4621
C6 C 0.2736(3) 0.2761(3) 0.8727(2)
H13 H 0.3466 0.2152 0.8515
C7 C 0.1816(3) 0.1206(3) 0.5622(2)
C8 C 0.0581(3) 0.1312(3) 0.7709(2)
H14 H -0.0419 0.1223 0.7934
H15 H 0.1056 0.0428 0.7916
C9 C 0.0662(3) 0.2171(3) 0.3682(2)
C10 C 0.0629(3) 0.2506(3) 0.2275(2)
H16 H 0.1091 0.3424 0.2178
H17 H -0.0362 0.2518 0.1923
H18 H 0.1137 0.1788 0.1829
C11 C 0.1849(3) 0.1549(3) 0.4332(2)
C12 C 0.6593(3) 0.2031(3) -0.0425(2)
C13 C -0.0592(3) 0.2203(3) 0.5652(2)
C14 C 0.1600(3) 0.4483(3) 0.9423(2)
H19 H 0.1410 0.5352 0.9819
C15 C 0.0602(3) 0.1553(3) 0.6283(2)
C16 C -0.0531(3) 0.2483(3) 0.4362(2)
C17 C 0.4551(3) 0.4671(3) 0.3040(2)
H20 H 0.4788 0.5623 0.3259
S1A S 0.25975(8) 0.94873(8) 0.02669(6)
O1A O 1.17313(19) 0.6915(2) -0.37155(15)
N1A N 0.3986(2) 0.6879(3) 0.0530(2)
N2A N 0.8678(2) 0.7504(2) -0.84566(17)
N3A N 0.7037(2) 0.5990(2) -0.93397(18)
N4A N 0.9434(2) 0.6383(3) -0.8902(2)
N5A N 0.5303(2) 0.5902(2) -0.18526(19)
N6A N 0.6151(2) 0.7453(2) -0.31378(19)
N7A N 0.5954(3) 0.6228(3) -0.3858(2)
C1A C 0.5747(3) 0.7246(3) -0.1962(2)
H1A H 0.5773 0.7944 -0.1311
C2A C 0.6810(3) 0.8752(3) -0.3623(2)
H2A H 0.6098 0.9205 -0.4197
H3A H 0.7075 0.9415 -0.2911
C3A C 0.6912(3) 0.9574(3) -0.6267(2)
H4A H 0.6730 1.0415 -0.5765
H5A H 0.7144 0.9843 -0.7108
H6A H 0.6060 0.8955 -0.6333
C4A C 1.1919(3) 0.7395(3) -0.6332(2)
H7A H 1.2278 0.8210 -0.6763
H8A H 1.2660 0.7084 -0.5718
H9A H 1.1662 0.6635 -0.6949
C5A C 1.1639(3) 0.5383(3) -0.3763(2)
H10A H 1.2392 0.5017 -0.3190
H11A H 1.0706 0.5067 -0.3509
H12A H 1.1757 0.5040 -0.4621
C6A C 0.7264(3) 0.7239(3) -0.8727(2)
H13A H 0.6534 0.7848 -0.8515
C7A C 0.8184(3) 0.8794(3) -0.5622(2)
C8A C 0.9419(3) 0.8688(3) -0.7709(2)
H14A H 1.0419 0.8777 -0.7934
H15A H 0.8944 0.9572 -0.7916
C9A C 0.9338(3) 0.7829(3) -0.3682(2)
C10A C 0.9371(3) 0.7494(3) -0.2275(2)
H16A H 0.8909 0.6576 -0.2178
H17A H 1.0362 0.7482 -0.1923
H18A H 0.8863 0.8212 -0.1829
C11A C 0.8151(3) 0.8451(3) -0.4332(2)
C12A C 0.3407(3) 0.7969(3) 0.0425(2)
C13A C 1.0592(3) 0.7797(3) -0.5652(2)
C14A C 0.8400(3) 0.5517(3) -0.9423(2)
H19A H 0.8590 0.4648 -0.9819
C15A C 0.9398(3) 0.8447(3) -0.6283(2)
C16A C 1.0531(3) 0.7517(3) -0.4362(2)
C17A C 0.5449(3) 0.5329(3) -0.3040(2)
H20A H 0.5212 0.4377 -0.3259
Co1_2 Co 0.5000 0.5000 -1.0000
Co1_3 Co 0.5000 0.5000 1.0000
N3_2 N 0.2963(2) 0.4010(2) -0.06603(18)
N3A_2 N 0.7037(2) 0.5990(2) 0.06603(18)
loop_
_geom_bond_atom_site_label_1
_geom_bond_atom_site_label_2
_geom_bond_site_symmetry_1
_geom_bond_site_symmetry_2
Co1 N1 1_555 1_555
S1 C12 1_555 1_555
O1 C5 1_555 1_555
N1 C12 1_555 1_555
N2 N4 1_555 1_555
N3 C6 1_555 1_555
N4 C14 1_555 1_555
N5 Co1 1_555 1_555
N6 N7 1_555 1_555
N7 C17 1_555 1_555
C1 N5 1_555 1_555
H1 C1 1_555 1_555
C2 N6 1_555 1_555
H2 C2 1_555 1_555
H3 C2 1_555 1_555
C3 H4 1_555 1_555
H5 C3 1_555 1_555
H6 C3 1_555 1_555
C4 H7 1_555 1_555
H8 C4 1_555 1_555
H9 C4 1_555 1_555
C5 H10 1_555 1_555
H11 C5 1_555 1_555
H12 C5 1_555 1_555
C6 N2 1_555 1_555
H13 C6 1_555 1_555
C7 C3 1_555 1_555
C8 N2 1_555 1_555
H14 C8 1_555 1_555
H15 C8 1_555 1_555
C9 C10 1_555 1_555
C10 H16 1_555 1_555
H17 C10 1_555 1_555
H18 C10 1_555 1_555
C11 C2 1_555 1_555
C13 C4 1_555 1_555
C14 N3 1_555 1_555
H19 C14 1_555 1_555
C15 C7 1_555 1_555
C16 O1 1_555 1_555
C17 N5 1_555 1_555
H20 C17 1_555 1_555
S1A C12A 1_555 1_555
O1A C5A 1_555 1_555
N1A Co1 1_555 1_555
N2A N4A 1_555 1_555
N3A C6A 1_555 1_555
N4A C14A 1_555 1_555
N5A Co1 1_555 1_555
N6A N7A 1_555 1_555
N7A C17A 1_555 1_555
C1A N5A 1_555 1_555
H1A C1A 1_555 1_555
C2A N6A 1_555 1_555
H2A C2A 1_555 1_555
H3A C2A 1_555 1_555
C3A H4A 1_555 1_555
H5A C3A 1_555 1_555
H6A C3A 1_555 1_555
C4A H7A 1_555 1_555
H8A C4A 1_555 1_555
H9A C4A 1_555 1_555
C5A H10A 1_555 1_555
H11A C5A 1_555 1_555
H12A C5A 1_555 1_555
C6A N2A 1_555 1_555
H13A C6A 1_555 1_555
C7A C3A 1_555 1_555
C8A N2A 1_555 1_555
H14A C8A 1_555 1_555
H15A C8A 1_555 1_555
C9A C10A 1_555 1_555
C10A H16A 1_555 1_555
H17A C10A 1_555 1_555
H18A C10A 1_555 1_555
C11A C2A 1_555 1_555
C12A N1A 1_555 1_555
C13A C4A 1_555 1_555
C14A N3A 1_555 1_555
H19A C14A 1_555 1_555
C15A C7A 1_555 1_555
C16A O1A 1_555 1_555
C17A N5A 1_555 1_555
H20A C17A 1_555 1_555
Co1_2 N3A 1_555 1_555
Co1_3 N3 1_555 1_555
N3_2 Co1 1_555 1_555
N3A_2 Co1 1_555 1_555
N6 C1 1_555 1_555
C7 C11 1_555 1_555
C8 C15 1_555 1_555
C9 C11 1_555 1_555
C9 C16 1_555 1_555
C13 C15 1_555 1_555
C13 C16 1_555 1_555
N6A C1A 1_555 1_555
C7A C11A 1_555 1_555
C8A C15A 1_555 1_555
C9A C11A 1_555 1_555
C9A C16A 1_555 1_555
C13A C15A 1_555 1_555
C13A C16A 1_555 1_555

#END
