
#######################################################################
#
#                 Cambridge Crystallographic Data Centre
#                                CCDC 
#
#######################################################################
#
# If this CIF has been generated from an entry in the Cambridge 
# Structural Database, then it will include bibliographic, chemical, 
# crystal, experimental, refinement or atomic coordinate data resulting 
# from the CCDC's data processing and validation procedures.
#
#######################################################################

data_TOHLEJ
_symmetry_cell_setting           triclinic
_symmetry_space_group_name_H-M   'P -1'
_symmetry_Int_Tables_number      2
_space_group_name_Hall           '-P 1'
loop_
_symmetry_equiv_pos_site_id
_symmetry_equiv_pos_as_xyz
1 x,y,z
2 -x,-y,-z
_cell_length_a                   9.1645(8)
_cell_length_b                   9.4590(9)
_cell_length_c                   10.6691(8)
_cell_angle_alpha                92.657(7)
_cell_angle_beta                 93.704(7)
_cell_angle_gamma                92.592(7)
_cell_volume                     920.869
loop_
_atom_site_label
_atom_site_type_symbol
_atom_site_fract_x
_atom_site_fract_y
_atom_site_fract_z
Se1 Se 1.25299(4) 0.04743(4) 0.48050(3)
Co1 Co 1.0000 0.5000 0.5000
O1 O 0.3238(2) 0.3062(3) -0.1279(2)
N1 N 0.6306(3) 0.2518(3) 0.3379(2)
N2 N 0.7950(3) 0.4003(3) 0.4322(2)
N3 N 0.9672(3) 0.4141(3) -0.3193(2)
N4 N 0.8837(3) 0.2621(3) -0.1912(2)
N5 N 0.5539(3) 0.3621(3) 0.3819(3)
N6 N 0.9007(3) 0.3864(3) -0.1212(3)
N7 N 1.1018(3) 0.3120(3) 0.4476(3)
C1 C 0.5590(3) 0.1594(3) 0.1215(3)
C2 C 0.4443(3) 0.2490(4) -0.0664(3)
C3 C 1.1611(3) 0.2085(4) 0.4590(3)
C4 C 0.6583(3) 0.4481(4) 0.4377(3)
H1 H 0.6396 0.5343 0.4775
C5 C 0.4390(3) 0.2204(4) 0.0605(3)
C6 C 0.8098(3) 0.0517(4) 0.1177(3)
H2 H 0.8945 0.1157 0.1284
H3 H 0.8311 -0.0292 0.0656
H4 H 0.7840 0.0214 0.1984
C7 C 0.7719(3) 0.2766(4) 0.3680(3)
H5 H 0.8448 0.2161 0.3471
C8 C 0.6852(3) 0.1617(4) -0.0707(3)
C9 C 0.6830(3) 0.1264(4) 0.0559(3)
C10 C 0.5565(3) 0.1333(4) 0.2602(3)
H6 H 0.4559 0.1215 0.2824
H7 H 0.6048 0.0465 0.2775
C11 C 0.5655(3) 0.2198(4) -0.1337(3)
C12 C 0.9501(4) 0.4748(4) -0.2030(3)
H8 H 0.9715 0.5706 -0.1829
C13 C 0.8204(3) 0.1337(4) -0.1415(3)
H9 H 0.8931 0.0933 -0.0854
H10 H 0.7944 0.0648 -0.2105
C14 C 0.9243(3) 0.2803(4) -0.3069(3)
H11 H 0.9229 0.2091 -0.3702
C15 C 0.3049(3) 0.2567(4) 0.1285(3)
H12 H 0.2675 0.1743 0.1673
H13 H 0.2313 0.2884 0.0694
H14 H 0.3306 0.3306 0.1918
C16 C 0.5618(4) 0.2541(4) -0.2713(3)
H15 H 0.4620 0.2561 -0.3042
H16 H 0.6107 0.1829 -0.3174
H17 H 0.6105 0.3449 -0.2792
C17 C 0.3332(4) 0.4581(4) -0.1230(3)
H18 H 0.2567 0.4921 -0.1779
H19 H 0.4266 0.4905 -0.1495
H20 H 0.3225 0.4935 -0.0385
O1A O 1.6762(2) 0.6938(3) 0.1279(2)
N1A N 1.3694(3) 0.7482(3) -0.3379(2)
N2A N 1.2050(3) 0.5997(3) -0.4322(2)
N3A N 1.0328(3) 0.5859(3) 0.3193(2)
N4A N 1.1163(3) 0.7379(3) 0.1912(2)
N5A N 1.4461(3) 0.6379(3) -0.3819(3)
N6A N 1.0993(3) 0.6136(3) 0.1212(3)
C1A C 1.4410(3) 0.8406(3) -0.1215(3)
C2A C 1.5557(3) 0.7510(4) 0.0664(3)
C4A C 1.3417(3) 0.5519(4) -0.4377(3)
H1A H 1.3604 0.4657 -0.4775
C5A C 1.5610(3) 0.7796(4) -0.0605(3)
C6A C 1.1902(3) 0.9483(4) -0.1177(3)
H2A H 1.1055 0.8843 -0.1284
H3A H 1.1689 1.0292 -0.0656
H4A H 1.2160 0.9786 -0.1984
C7A C 1.2281(3) 0.7234(4) -0.3680(3)
H5A H 1.1552 0.7839 -0.3471
C8A C 1.3148(3) 0.8383(4) 0.0707(3)
C9A C 1.3170(3) 0.8736(4) -0.0559(3)
C10A C 1.4435(3) 0.8667(4) -0.2602(3)
H6A H 1.5441 0.8785 -0.2824
H7A H 1.3952 0.9535 -0.2775
C11A C 1.4345(3) 0.7802(4) 0.1337(3)
C12A C 1.0499(4) 0.5252(4) 0.2030(3)
H8A H 1.0285 0.4294 0.1829
C13A C 1.1796(3) 0.8663(4) 0.1415(3)
H9A H 1.1069 0.9067 0.0854
H10A H 1.2056 0.9352 0.2105
C14A C 1.0757(3) 0.7197(4) 0.3069(3)
H11A H 1.0771 0.7909 0.3702
C15A C 1.6951(3) 0.7433(4) -0.1285(3)
H12A H 1.7325 0.8257 -0.1673
H13A H 1.7687 0.7116 -0.0694
H14A H 1.6694 0.6694 -0.1918
C16A C 1.4382(4) 0.7459(4) 0.2713(3)
H15A H 1.5380 0.7439 0.3042
H16A H 1.3893 0.8171 0.3174
H17A H 1.3895 0.6551 0.2792
C17A C 1.6668(4) 0.5419(4) 0.1230(3)
H18A H 1.7433 0.5079 0.1779
H19A H 1.5734 0.5095 0.1495
H20A H 1.6775 0.5065 0.0385
Se1A Se 0.74701(4) 0.95257(4) 0.51950(3)
N7A N 0.8982(3) 0.6880(3) 0.5524(3)
C3A C 0.8389(3) 0.7915(4) 0.5410(3)
Co1_2 Co 1.0000 0.5000 -0.5000
N2A_2 N 1.2050(3) 0.5997(3) 0.5678(2)
N3_2 N 0.9672(3) 0.4141(3) 0.6807(2)
loop_
_geom_bond_atom_site_label_1
_geom_bond_atom_site_label_2
_geom_bond_site_symmetry_1
_geom_bond_site_symmetry_2
Se1 C3 1_555 1_555
Co1 N2 1_555 1_555
O1 C2 1_555 1_555
N1 N5 1_555 1_555
N2 C4 1_555 1_555
N3 C12 1_555 1_555
N4 N6 1_555 1_555
N5 C4 1_555 1_555
N6 C12 1_555 1_555
N7 Co1 1_555 1_555
C1 C5 1_555 1_555
C2 C5 1_555 1_555
C3 N7 1_555 1_555
C4 H1 1_555 1_555
C5 C15 1_555 1_555
C6 H2 1_555 1_555
H3 C6 1_555 1_555
H4 C6 1_555 1_555
C7 N1 1_555 1_555
H5 C7 1_555 1_555
C8 C9 1_555 1_555
C9 C1 1_555 1_555
C10 N1 1_555 1_555
H6 C10 1_555 1_555
H7 C10 1_555 1_555
C11 C2 1_555 1_555
C12 H8 1_555 1_555
C13 N4 1_555 1_555
H9 C13 1_555 1_555
H10 C13 1_555 1_555
C14 N3 1_555 1_555
H11 C14 1_555 1_555
C15 H12 1_555 1_555
H13 C15 1_555 1_555
H14 C15 1_555 1_555
C16 C11 1_555 1_555
H15 C16 1_555 1_555
H16 C16 1_555 1_555
H17 C16 1_555 1_555
C17 O1 1_555 1_555
H18 C17 1_555 1_555
H19 C17 1_555 1_555
H20 C17 1_555 1_555
O1A C2A 1_555 1_555
N1A N5A 1_555 1_555
N2A C4A 1_555 1_555
N3A Co1 1_555 1_555
N4A N6A 1_555 1_555
N5A C4A 1_555 1_555
N6A C12A 1_555 1_555
C1A C5A 1_555 1_555
C2A C5A 1_555 1_555
C4A H1A 1_555 1_555
C5A C15A 1_555 1_555
C6A H2A 1_555 1_555
H3A C6A 1_555 1_555
H4A C6A 1_555 1_555
C7A N1A 1_555 1_555
H5A C7A 1_555 1_555
C8A C9A 1_555 1_555
C9A C1A 1_555 1_555
C10A N1A 1_555 1_555
H6A C10A 1_555 1_555
H7A C10A 1_555 1_555
C11A C2A 1_555 1_555
C12A N3A 1_555 1_555
H8A C12A 1_555 1_555
C13A N4A 1_555 1_555
H9A C13A 1_555 1_555
H10A C13A 1_555 1_555
C14A N3A 1_555 1_555
H11A C14A 1_555 1_555
C15A H12A 1_555 1_555
H13A C15A 1_555 1_555
H14A C15A 1_555 1_555
C16A C11A 1_555 1_555
H15A C16A 1_555 1_555
H16A C16A 1_555 1_555
H17A C16A 1_555 1_555
C17A O1A 1_555 1_555
H18A C17A 1_555 1_555
H19A C17A 1_555 1_555
H20A C17A 1_555 1_555
Se1A C3A 1_555 1_555
N7A Co1 1_555 1_555
C3A N7A 1_555 1_555
Co1_2 N3 1_555 1_555
N2A_2 Co1 1_555 1_555
N3_2 Co1 1_555 1_555
N2 C7 1_555 1_555
N4 C14 1_555 1_555
C1 C10 1_555 1_555
C6 C9 1_555 1_555
C8 C11 1_555 1_555
C8 C13 1_555 1_555
N2A C7A 1_555 1_555
N2A Co1_2 1_555 1_555
N4A C14A 1_555 1_555
C1A C10A 1_555 1_555
C6A C9A 1_555 1_555
C8A C11A 1_555 1_555
C8A C13A 1_555 1_555

#END
