
#######################################################################
#
#                 Cambridge Crystallographic Data Centre
#                                CCDC 
#
#######################################################################
#
# If this CIF has been generated from an entry in the Cambridge 
# Structural Database, then it will include bibliographic, chemical, 
# crystal, experimental, refinement or atomic coordinate data resulting 
# from the CCDC's data processing and validation procedures.
#
#######################################################################

data_TOHPUD
_symmetry_cell_setting           monoclinic
_symmetry_space_group_name_H-M   'P 21/c'
_symmetry_Int_Tables_number      14
_space_group_name_Hall           '-P 2ybc'
loop_
_symmetry_equiv_pos_site_id
_symmetry_equiv_pos_as_xyz
1 x,y,z
2 -x,1/2+y,1/2-z
3 -x,-y,-z
4 x,1/2-y,1/2+z
_cell_length_a                   9.0190(5)
_cell_length_b                   20.6228(5)
_cell_length_c                   11.8189(5)
_cell_angle_alpha                90
_cell_angle_beta                 103.837(6)
_cell_angle_gamma                90
_cell_volume                     2134.49
loop_
_atom_site_label
_atom_site_type_symbol
_atom_site_fract_x
_atom_site_fract_y
_atom_site_fract_z
Pb1 Pb 0.51704(5) 0.569786(14) 0.64941(3)
S1 S 0.7728(3) 0.42762(9) 0.6044(2)
S2 S 0.5021(4) 0.19620(11) 0.6807(2)
O1 O 0.6288(7) 0.4632(2) 0.5843(5)
O2 O 0.9001(8) 0.4650(3) 0.6720(6)
O3 O 0.7967(8) 0.4029(3) 0.4950(5)
O4 O 0.5913(10) 0.1364(3) 0.7016(6)
O5 O 0.3962(9) 0.1992(3) 0.7555(7)
O6 O 0.4337(11) 0.2069(3) 0.5583(6)
O7 O 0.5485(9) 0.3214(3) 0.5440(5)
H1 H 0.490(10) 0.289(3) 0.525(8)
O8 O 0.8160(10) 0.5932(4) 0.6703(9)
H2 H 0.861(3) 0.558(2) 0.697(12)
N1 N 0.6394(10) 0.5204(4) 0.8423(7)
N2 N 0.3727(9) 0.4732(3) 0.7075(6)
C1 C 0.7550(11) 0.3597(4) 0.6919(7)
C2 C 0.6420(11) 0.3134(4) 0.6495(7)
C3 C 0.6358(12) 0.2588(4) 0.7217(7)
C4 C 0.7356(13) 0.2548(4) 0.8306(8)
H3 H 0.7274 0.2196 0.8779
C5 C 0.8463(14) 0.3007(5) 0.8718(8)
C6 C 0.8506(12) 0.3528(4) 0.7995(8)
H4 H 0.9228 0.3850 0.8256
C7 C 0.9556(18) 0.2948(6) 0.9923(10)
H5 H 1.0583 0.2904 0.9838
H6 H 0.9290 0.2573 1.0314
H7 H 0.9479 0.3329 1.0372
C8 C 0.7533(15) 0.5485(6) 0.9149(10)
H8 H 0.7912 0.5870 0.8921
C9 C 0.8216(15) 0.5234(6) 1.0260(10)
H9 H 0.9023 0.5449 1.0756
C10 C 0.7658(16) 0.4668(6) 1.0586(10)
H10 H 0.8092 0.4481 1.1305
C11 C 0.6448(16) 0.4382(6) 0.9834(10)
H11 H 0.6044 0.4000 1.0052
C12 C 0.5813(12) 0.4649(4) 0.8756(8)
C13 C 0.4517(12) 0.4359(4) 0.7975(8)
C14 C 0.3989(14) 0.3728(4) 0.8100(9)
H12 H 0.4517 0.3463 0.8700
C15 C 0.2715(13) 0.3504(5) 0.7349(10)
H13 H 0.2384 0.3083 0.7427
C16 C 0.1911(13) 0.3890(5) 0.6479(10)
H14 H 0.1011 0.3746 0.5980
C17 C 0.2482(13) 0.4502(5) 0.6367(9)
H15 H 0.1961 0.4764 0.5762
C18 C 0.9147(18) 0.6452(6) 0.6714(11)
H16 H 1.0093 0.6296 0.6577
H17 H 0.9339 0.6663 0.7458
H18 H 0.8691 0.6754 0.6114
Pb1A Pb 0.48296(5) 0.069786(14) 0.85059(3)
Pb1B Pb 0.48296(5) 0.430214(14) 0.35059(3)
O1B O 0.3712(7) 0.5368(2) 0.4157(5)
O4A O 0.4087(10) 0.6364(3) 0.7984(6)
O5A O 0.6038(9) 0.6992(3) 0.7445(7)
loop_
_geom_bond_atom_site_label_1
_geom_bond_atom_site_label_2
_geom_bond_site_symmetry_1
_geom_bond_site_symmetry_2
Pb1 O1 1_555 1_555
S1 O1 1_555 1_555
S2 O4 1_555 1_555
O1 Pb1B 1_555 1_555
O2 S1 1_555 1_555
O3 S1 1_555 1_555
O4 Pb1A 1_555 1_555
O5 S2 1_555 1_555
O6 S2 1_555 1_555
O7 H1 1_555 1_555
O8 Pb1 1_555 1_555
H2 O8 1_555 1_555
N1 Pb1 1_555 1_555
N2 Pb1 1_555 1_555
C1 S1 1_555 1_555
C2 O7 1_555 1_555
C3 S2 1_555 1_555
C4 C3 1_555 1_555
H3 C4 1_555 1_555
C5 C4 1_555 1_555
C6 C1 1_555 1_555
H4 C6 1_555 1_555
C7 C5 1_555 1_555
H5 C7 1_555 1_555
H6 C7 1_555 1_555
H7 C7 1_555 1_555
C8 N1 1_555 1_555
H8 C8 1_555 1_555
C9 C8 1_555 1_555
H9 C9 1_555 1_555
C10 C9 1_555 1_555
H10 C10 1_555 1_555
C11 C10 1_555 1_555
H11 C11 1_555 1_555
C12 N1 1_555 1_555
C13 N2 1_555 1_555
C14 C13 1_555 1_555
H12 C14 1_555 1_555
C15 C14 1_555 1_555
H13 C15 1_555 1_555
C16 C15 1_555 1_555
H14 C16 1_555 1_555
C17 N2 1_555 1_555
H15 C17 1_555 1_555
C18 O8 1_555 1_555
H16 C18 1_555 1_555
H17 C18 1_555 1_555
H18 C18 1_555 1_555
Pb1A O5 1_555 1_555
Pb1B O1B 1_555 1_555
O1B Pb1 1_555 1_555
O4A Pb1 1_555 1_555
O5A Pb1 1_555 1_555
C1 C2 1_555 1_555
C2 C3 1_555 1_555
C5 C6 1_555 1_555
C11 C12 1_555 1_555
C12 C13 1_555 1_555
C16 C17 1_555 1_555

#END
