
#######################################################################
#
#                 Cambridge Crystallographic Data Centre
#                                CCDC 
#
#######################################################################
#
# If this CIF has been generated from an entry in the Cambridge 
# Structural Database, then it will include bibliographic, chemical, 
# crystal, experimental, refinement or atomic coordinate data resulting 
# from the CCDC's data processing and validation procedures.
#
#######################################################################

data_TOHQEO
_symmetry_cell_setting           monoclinic
_symmetry_space_group_name_H-M   'P 21/n'
_symmetry_Int_Tables_number      14
_space_group_name_Hall           '-P 2yn'
loop_
_symmetry_equiv_pos_site_id
_symmetry_equiv_pos_as_xyz
1 x,y,z
2 1/2-x,1/2+y,1/2-z
3 -x,-y,-z
4 1/2+x,1/2-y,1/2+z
_cell_length_a                   16.2387(9)
_cell_length_b                   18.6701(10)
_cell_length_c                   21.6565(11)
_cell_angle_alpha                90
_cell_angle_beta                 106.1380(10)
_cell_angle_gamma                90
_cell_volume                     6307.05
loop_
_atom_site_label
_atom_site_type_symbol
_atom_site_fract_x
_atom_site_fract_y
_atom_site_fract_z
C1 C 0.5978(2) 0.0667(2) 0.27381(16)
C2 C 0.6810(2) 0.0939(2) 0.31488(16)
C3 C 0.7569(2) 0.0618(2) 0.31252(19)
H1 H 0.7549 0.0210 0.2876
C4 C 0.8348(2) 0.0889(2) 0.34621(18)
H2 H 0.8848 0.0659 0.3441
C5 C 0.8404(2) 0.15031(19) 0.38344(15)
C6 C 0.7648(2) 0.18052(19) 0.38850(16)
H3 H 0.7667 0.2199 0.4151
C7 C 0.6866(2) 0.1527(2) 0.35436(16)
H4 H 0.6365 0.1742 0.3581
C8 C 0.9911(2) 0.1691(2) 0.38692(16)
C9 C 0.9831(2) 0.1841(3) 0.32403(19)
H5 H 0.9319 0.2027 0.2983
C10 C 1.0507(2) 0.1720(3) 0.29840(18)
H6 H 1.0439 0.1818 0.2552
C11 C 1.1275(2) 0.1459(2) 0.33511(17)
C12 C 1.1354(2) 0.1352(3) 0.39898(18)
H7 H 1.1879 0.1204 0.4258
C13 C 1.0684(2) 0.1455(3) 0.42424(18)
H8 H 1.0754 0.1363 0.4676
C14 C 1.1980(2) 0.1277(2) 0.30697(17)
C15 C 1.1838(3) 0.1080(3) 0.24473(19)
H9 H 1.1284 0.1092 0.2174
C16 C 1.2502(2) 0.0861(3) 0.22134(19)
H10 H 1.2373 0.0722 0.1785
C17 C 1.3463(2) 0.1094(2) 0.31401(18)
H11 H 1.4031 0.1128 0.3385
C18 C 1.2826(2) 0.1316(2) 0.34128(18)
H12 H 1.2975 0.1492 0.3831
C19 C 0.93380(19) 0.22987(18) 0.46573(15)
C20 C 0.9835(2) 0.29012(19) 0.46495(15)
H13 H 1.0094 0.2964 0.4320
C21 C 0.9945(2) 0.34055(18) 0.51287(15)
H14 H 1.0286 0.3804 0.5125
C22 C 0.95517(19) 0.33267(18) 0.56188(14)
C23 C 0.9073(2) 0.27151(19) 0.56234(15)
H15 H 0.8817 0.2648 0.5954
C24 C 0.8966(2) 0.22082(19) 0.51528(15)
H16 H 0.8643 0.1801 0.5166
C25 C 0.9616(2) 0.39048(18) 0.61006(15)
C26 C 0.8470(2) 0.56244(18) 0.60946(15)
C27 C 0.76671(19) 0.59862(18) 0.57190(14)
C28 C 0.7670(2) 0.6661(2) 0.54640(16)
H17 H 0.8191 0.6889 0.5501
C29 C 0.6916(2) 0.7008(2) 0.51535(17)
H18 H 0.6932 0.7471 0.4999
C30 C 0.6132(2) 0.66626(19) 0.50725(16)
C31 C 0.6130(2) 0.5977(2) 0.53154(17)
H19 H 0.5612 0.5736 0.5257
C32 C 0.6881(2) 0.56480(19) 0.56417(16)
H20 H 0.6864 0.5193 0.5813
C33 C 0.4622(2) 0.6836(2) 0.50066(17)
C34 C 0.4695(2) 0.6890(2) 0.56537(18)
H21 H 0.5191 0.7077 0.5932
C35 C 0.4029(2) 0.6666(2) 0.58872(17)
H22 H 0.4092 0.6692 0.6327
C36 C 0.3271(2) 0.64041(19) 0.54865(16)
C37 C 0.3194(2) 0.6386(2) 0.48277(17)
H23 H 0.2683 0.6230 0.4545
C38 C 0.3862(2) 0.6596(2) 0.45889(18)
H24 H 0.3802 0.6577 0.4149
C39 C 0.2573(2) 0.61448(18) 0.57452(16)
C40 C 0.2484(2) 0.6373(2) 0.63306(16)
H25 H 0.2881 0.6692 0.6577
C41 C 0.1819(2) 0.61348(19) 0.65536(16)
H26 H 0.1776 0.6305 0.6947
C42 C 0.1977(2) 0.5648(2) 0.54266(16)
H27 H 0.2013 0.5460 0.5037
C43 C 0.1333(2) 0.54283(18) 0.56789(16)
H28 H 0.0944 0.5091 0.5451
C44 C 0.5244(2) 0.7485(2) 0.42507(17)
C45 C 0.5714(2) 0.7419(2) 0.38121(16)
H29 H 0.6105 0.7047 0.3854
C46 C 0.5610(2) 0.78981(19) 0.33126(16)
H30 H 0.5940 0.7845 0.3026
C47 C 0.5029(2) 0.84548(18) 0.32264(15)
C48 C 0.4555(2) 0.8511(2) 0.36662(18)
H31 H 0.4155 0.8878 0.3620
C49 C 0.4660(2) 0.8042(2) 0.41662(18)
H32 H 0.4333 0.8097 0.4454
C50 C 0.4931(2) 0.89797(19) 0.26964(16)
Co1 Co 1.02315(2) 0.53723(2) 0.658818(18)
Co2 Co 0.92695(2) 0.45554(2) 0.720332(18)
N1 N 1.3303(2) 0.08377(17) 0.25541(14)
N2 N 0.12314(15) 0.56698(14) 0.62309(12)
N3 N 0.92114(16) 0.18015(17) 0.41445(13)
N4 N 0.53435(16) 0.70052(17) 0.47727(14)
O1 O 0.92621(14) 0.37984(12) 0.65436(10)
O2 O 0.99981(15) 0.44712(12) 0.60294(11)
O3 O 0.52965(15) 0.08808(14) 0.28488(11)
O4 O 0.60095(16) 0.02472(15) 0.22946(11)
O5 O 0.84016(13) 0.51123(13) 0.64525(10)
O6 O 0.91773(13) 0.58561(13) 0.60332(10)
O7 O 0.44484(15) 0.95086(13) 0.26959(12)
O8 O 0.53389(16) 0.88734(13) 0.22878(11)
Co1_2 Co 0.02315(2) 0.53723(2) 0.658818(18)
Co1C Co 0.52315(2) -0.03723(2) 0.158818(18)
Co1C_2 Co 0.52315(2) 0.96277(2) 0.158818(18)
Co2C Co 0.42695(2) 0.04446(2) 0.220332(18)
Co2C_2 Co 0.42695(2) 1.04446(2) 0.220332(18)
Co2C_3 Co 1.42695(2) 0.04446(2) 0.220332(18)
N1C N 0.8303(2) 0.41623(17) 0.75541(14)
N2_2 N 1.12314(15) 0.56698(14) 0.62309(12)
O3C O 1.02965(15) 0.41192(14) 0.78488(11)
O4C O 1.10095(16) 0.47528(15) 0.72946(11)
O7C O 0.94484(15) 0.54914(13) 0.76959(12)
O8C O 1.03389(16) 0.61266(13) 0.72878(11)
C51 C 0.3518(9) 0.4493(6) 0.6644(6)
H33 H 0.3616 0.3987 0.6698
H34 H 0.3180 0.4589 0.6213
H35 H 0.3219 0.4659 0.6942
C52 C 0.4634(10) 0.5251(5) 0.7360(5)
H36 H 0.5101 0.5562 0.7351
H37 H 0.4818 0.4916 0.7707
H38 H 0.4166 0.5531 0.7420
C53 C 0.4671(9) 0.4729(6) 0.6270(5)
H39 H 0.4331 0.4496 0.5909
N5 N 0.4361(7) 0.4874(4) 0.6769(4)
O9 O 0.5368(5) 0.4898(6) 0.6293(5)
loop_
_geom_bond_atom_site_label_1
_geom_bond_atom_site_label_2
_geom_bond_site_symmetry_1
_geom_bond_site_symmetry_2
C1 C2 1_555 1_555
C2 C3 1_555 1_555
C3 H1 1_555 1_555
C4 C3 1_555 1_555
H2 C4 1_555 1_555
C5 C4 1_555 1_555
C6 C5 1_555 1_555
H3 C6 1_555 1_555
C7 C2 1_555 1_555
H4 C7 1_555 1_555
C8 C9 1_555 1_555
C9 H5 1_555 1_555
C10 C9 1_555 1_555
H6 C10 1_555 1_555
C11 C10 1_555 1_555
C12 C11 1_555 1_555
H7 C12 1_555 1_555
C13 C8 1_555 1_555
H8 C13 1_555 1_555
C14 C11 1_555 1_555
C15 C14 1_555 1_555
H9 C15 1_555 1_555
C16 C15 1_555 1_555
H10 C16 1_555 1_555
C17 H11 1_555 1_555
C18 C14 1_555 1_555
H12 C18 1_555 1_555
C19 C20 1_555 1_555
C20 H13 1_555 1_555
C21 C20 1_555 1_555
H14 C21 1_555 1_555
C22 C21 1_555 1_555
C23 C22 1_555 1_555
H15 C23 1_555 1_555
C24 C19 1_555 1_555
H16 C24 1_555 1_555
C25 C22 1_555 1_555
C26 C27 1_555 1_555
C27 C28 1_555 1_555
C28 H17 1_555 1_555
C29 C28 1_555 1_555
H18 C29 1_555 1_555
C30 C29 1_555 1_555
C31 C30 1_555 1_555
H19 C31 1_555 1_555
C32 C27 1_555 1_555
H20 C32 1_555 1_555
C33 C34 1_555 1_555
C34 H21 1_555 1_555
C35 C34 1_555 1_555
H22 C35 1_555 1_555
C36 C35 1_555 1_555
C37 C36 1_555 1_555
H23 C37 1_555 1_555
C38 C33 1_555 1_555
H24 C38 1_555 1_555
C39 C36 1_555 1_555
C40 C39 1_555 1_555
H25 C40 1_555 1_555
C41 C40 1_555 1_555
H26 C41 1_555 1_555
C42 C39 1_555 1_555
H27 C42 1_555 1_555
C43 C42 1_555 1_555
H28 C43 1_555 1_555
C44 C45 1_555 1_555
C45 H29 1_555 1_555
C46 C45 1_555 1_555
H30 C46 1_555 1_555
C47 C46 1_555 1_555
C48 C47 1_555 1_555
H31 C48 1_555 1_555
C49 C44 1_555 1_555
H32 C49 1_555 1_555
C50 C47 1_555 1_555
Co1 Co2 1_555 1_555
Co2 O1 1_555 1_555
N1 C16 1_555 1_555
N2 C41 1_555 1_555
N3 C5 1_555 1_555
N4 C30 1_555 1_555
O1 C25 1_555 1_555
O2 C25 1_555 1_555
O3 C1 1_555 1_555
O4 C1 1_555 1_555
O5 C26 1_555 1_555
O6 C26 1_555 1_555
O7 C50 1_555 1_555
O8 C50 1_555 1_555
C51 H33 1_555 1_555
H34 C51 1_555 1_555
H35 C51 1_555 1_555
C52 H36 1_555 1_555
H37 C52 1_555 1_555
H38 C52 1_555 1_555
C53 H39 1_555 1_555
N5 C51 1_555 1_555
O9 C53 1_555 1_555
Co1_2 N2 1_555 1_555
Co1C O4 1_555 1_555
Co1C_2 O8 1_555 1_555
Co2C O3 1_555 1_555
Co2C_2 O7 1_555 1_555
Co2C_3 N1 1_555 1_555
N1C Co2 1_555 1_555
N2_2 Co1 1_555 1_555
O3C Co2 1_555 1_555
O4C Co1 1_555 1_555
O7C Co2 1_555 1_555
O8C Co1 1_555 1_555
C6 C7 1_555 1_555
C8 N3 1_555 1_555
C12 C13 1_555 1_555
C17 C18 1_555 1_555
C17 N1 1_555 1_555
C19 N3 1_555 1_555
C23 C24 1_555 1_555
C31 C32 1_555 1_555
C33 N4 1_555 1_555
C37 C38 1_555 1_555
C43 N2 1_555 1_555
C44 N4 1_555 1_555
C48 C49 1_555 1_555
Co1 O2 1_555 1_555
Co1 O6 1_555 1_555
Co2 O5 1_555 1_555
C52 N5 1_555 1_555
C53 N5 1_555 1_555
Co1C Co2C 1_555 1_555
Co1C_2 Co2C_2 1_555 1_555

#END
