
#######################################################################
#
#                 Cambridge Crystallographic Data Centre
#                                CCDC 
#
#######################################################################
#
# If this CIF has been generated from an entry in the Cambridge 
# Structural Database, then it will include bibliographic, chemical, 
# crystal, experimental, refinement or atomic coordinate data resulting 
# from the CCDC's data processing and validation procedures.
#
#######################################################################

data_TOHQAJ
_symmetry_cell_setting           orthorhombic
_symmetry_space_group_name_H-M   'P 21 21 21'
_symmetry_Int_Tables_number      19
_space_group_name_Hall           'P 2ac 2ab'
loop_
_symmetry_equiv_pos_site_id
_symmetry_equiv_pos_as_xyz
1 x,y,z
2 1/2-x,-y,1/2+z
3 1/2+x,1/2-y,-z
4 -x,1/2+y,1/2-z
_cell_length_a                   11.192(7)
_cell_length_b                   11.952(8)
_cell_length_c                   12.538(8)
_cell_angle_alpha                90
_cell_angle_beta                 90
_cell_angle_gamma                90
_cell_volume                     1677.17
loop_
_atom_site_label
_atom_site_type_symbol
_atom_site_fract_x
_atom_site_fract_y
_atom_site_fract_z
V1 V -0.13390(6) -0.16992(6) -0.49225(6)
V2 V -0.41830(5) -0.12879(5) -0.49540(6)
Co1 Co -0.06927(5) -0.04485(5) -0.23281(5)
C1 C 0.1740(4) -0.0610(5) -0.3467(4)
H1 H 0.1483 -0.1169 -0.3928
C2 C 0.2839(4) -0.0169(4) -0.3447(4)
H2 H 0.3477 -0.0367 -0.3883
C3 C 0.1751(4) 0.0631(4) -0.2242(4)
H3 H 0.1519 0.1102 -0.1689
C4 C 0.3879(4) 0.1326(5) -0.2393(4)
H4 H 0.4566 0.0851 -0.2259
H5 H 0.3701 0.1728 -0.1740
C5 C 0.4184(5) 0.2140(5) -0.3239(5)
H6 H 0.3601 0.2740 -0.3229
H7 H 0.4129 0.1771 -0.3926
C6 C 0.5420(5) 0.2640(5) -0.3125(5)
H8 H 0.5458 0.3045 -0.2455
H9 H 0.5997 0.2035 -0.3088
C7 C 0.5772(7) 0.3402(5) -0.3990(5)
H10 H 0.5342 0.4102 -0.3909
H11 H 0.6619 0.3564 -0.3925
C8 C 0.5975(5) 0.2070(5) -0.5508(5)
H12 H 0.6597 0.1651 -0.5220
C9 C 0.4616(7) 0.2638(5) -0.6535(5)
H13 H 0.4101 0.2692 -0.7115
C10 C 0.4646(7) 0.3347(5) -0.5690(5)
H14 H 0.4159 0.3967 -0.5577
N1 N 0.1052(3) -0.0104(3) -0.2697(3)
N2 N 0.2847(3) 0.0617(3) -0.2676(3)
N3 N 0.5545(5) 0.2964(4) -0.5034(4)
N4 N 0.5483(4) 0.1818(4) -0.6391(4)
O1 O -0.0944(3) -0.1267(3) -0.3730(3)
O2 O -0.1209(3) -0.0668(3) -0.5765(3)
O3 O -0.2867(2) -0.2131(2) -0.4891(3)
O4 O -0.0445(2) -0.2856(3) -0.5339(2)
O5 O -0.4089(3) -0.0315(3) -0.4052(2)
O6 O -0.4316(3) -0.0715(3) -0.6143(2)
O7 O -0.2445(3) -0.0012(5) -0.2456(3)
H15 H -0.285(5) -0.014(7) -0.301(3)
H16 H -0.292(5) 0.002(7) -0.193(3)
V2B V 0.08170(5) -0.37121(5) -0.50460(6)
Co1A Co -0.43073(5) 0.04485(5) -0.73281(5)
Co1A_2 Co 0.56927(5) 0.04485(5) -0.73281(5)
N4A N -0.0483(4) -0.1818(4) -0.1391(4)
O4B O -0.5445(2) -0.2144(3) -0.4661(2)
O6A O -0.0684(3) 0.0715(3) -0.1143(2)
loop_
_geom_bond_atom_site_label_1
_geom_bond_atom_site_label_2
_geom_bond_site_symmetry_1
_geom_bond_site_symmetry_2
V1 O1 1_555 1_555
V2 O3 1_555 1_555
Co1 N1 1_555 1_555
C1 H1 1_555 1_555
C2 C1 1_555 1_555
H2 C2 1_555 1_555
C3 H3 1_555 1_555
C4 H4 1_555 1_555
H5 C4 1_555 1_555
C5 C4 1_555 1_555
H6 C5 1_555 1_555
H7 C5 1_555 1_555
C6 C5 1_555 1_555
H8 C6 1_555 1_555
H9 C6 1_555 1_555
C7 C6 1_555 1_555
H10 C7 1_555 1_555
H11 C7 1_555 1_555
C8 H12 1_555 1_555
C9 H13 1_555 1_555
C10 C9 1_555 1_555
H14 C10 1_555 1_555
N1 C1 1_555 1_555
N2 C2 1_555 1_555
N3 C7 1_555 1_555
N4 C8 1_555 1_555
O1 Co1 1_555 1_555
O2 V1 1_555 1_555
O3 V1 1_555 1_555
O4 V1 1_555 1_555
O5 V2 1_555 1_555
O6 V2 1_555 1_555
O7 Co1 1_555 1_555
H15 O7 1_555 1_555
H16 O7 1_555 1_555
V2B O4 1_555 1_555
Co1A O6 1_555 1_555
Co1A_2 N4 1_555 1_555
N4A Co1 1_555 1_555
O4B V2 1_555 1_555
O6A Co1 1_555 1_555
C3 N1 1_555 1_555
C3 N2 1_555 1_555
C4 N2 1_555 1_555
C8 N3 1_555 1_555
C9 N4 1_555 1_555
C10 N3 1_555 1_555

#END
