
#######################################################################
#
#                 Cambridge Crystallographic Data Centre
#                                CCDC 
#
#######################################################################
#
# If this CIF has been generated from an entry in the Cambridge 
# Structural Database, then it will include bibliographic, chemical, 
# crystal, experimental, refinement or atomic coordinate data resulting 
# from the CCDC's data processing and validation procedures.
#
#######################################################################

data_TOHQAK
_symmetry_cell_setting           orthorhombic
_symmetry_space_group_name_H-M   'I b c a'
_symmetry_Int_Tables_number      73
_space_group_name_Hall           '-I 2b 2c'
loop_
_symmetry_equiv_pos_site_id
_symmetry_equiv_pos_as_xyz
1 x,y,z
2 -x,1/2-y,z
3 x,-y,1/2-z
4 1/2-x,y,-z
5 1/2+x,1/2+y,1/2+z
6 1/2-x,-y,1/2+z
7 1/2+x,1/2-y,-z
8 -x,1/2+y,1/2-z
9 -x,-y,-z
10 x,1/2+y,-z
11 -x,y,1/2+z
12 1/2+x,-y,z
13 1/2-x,1/2-y,1/2-z
14 1/2+x,y,1/2-z
15 1/2-x,1/2+y,z
16 x,1/2-y,1/2+z
_cell_length_a                   12.6444(4)
_cell_length_b                   13.6451(5)
_cell_length_c                   22.6766(7)
_cell_angle_alpha                90
_cell_angle_beta                 90
_cell_angle_gamma                90
_cell_volume                     3912.49
loop_
_atom_site_label
_atom_site_type_symbol
_atom_site_fract_x
_atom_site_fract_y
_atom_site_fract_z
Pb1 Pb 0.45442(3) 0.38178(4) 0.446585(18)
Pb2 Pb 0.7500 0.34234(5) 0.5000
S1 S 0.3361(2) 0.4024(2) 0.57893(11)
O1 O 0.3479(6) 0.3210(7) 0.5369(3)
O2 O 0.3526(6) 0.4960(7) 0.5491(3)
O3 O 0.2395(6) 0.3960(7) 0.6120(3)
O4 O 0.5692(6) 0.3910(7) 0.5525(3)
O5 O 0.5481(7) 0.3630(9) 0.8257(4)
O6 O 0.3819(8) 0.3710(9) 0.8057(3)
O7 O 0.6079(6) 0.2813(7) 0.4322(3)
H1 H 0.620(9) 0.277(10) 0.3955(11)
N1 N 0.4753(8) 0.3691(9) 0.7900(4)
C1 C 0.4404(8) 0.3882(10) 0.6293(4)
C2 C 0.5465(9) 0.3852(10) 0.6079(5)
C3 C 0.6271(10) 0.3778(11) 0.6508(5)
H2 H 0.6973 0.3758 0.6386
C4 C 0.6047(9) 0.3734(11) 0.7106(5)
H3 H 0.6588 0.3672 0.7381
C5 C 0.4996(9) 0.3784(10) 0.7286(4)
C6 C 0.4164(9) 0.3856(10) 0.6882(5)
H4 H 0.3466 0.3886 0.7011
Pb1A Pb 0.54558(3) 0.11822(4) 0.446585(18)
S1A S 0.6639(2) 0.0976(2) 0.57893(11)
O1A O 0.6521(6) 0.1790(7) 0.5369(3)
O2A O 0.6474(6) 0.0040(7) 0.5491(3)
O3A O 0.7605(6) 0.1040(7) 0.6120(3)
O4A O 0.4308(6) 0.1090(7) 0.5525(3)
O5A O 0.4519(7) 0.1370(9) 0.8257(4)
O6A O 0.6181(8) 0.1290(9) 0.8057(3)
O7A O 0.3921(6) 0.2187(7) 0.4322(3)
H1A H 0.380(9) 0.223(10) 0.3955(11)
N1A N 0.5247(8) 0.1309(9) 0.7900(4)
C1A C 0.5596(8) 0.1118(10) 0.6293(4)
C2A C 0.4535(9) 0.1148(10) 0.6079(5)
C3A C 0.3729(10) 0.1222(11) 0.6508(5)
H2A H 0.3027 0.1242 0.6386
C4A C 0.3953(9) 0.1266(11) 0.7106(5)
H3A H 0.3412 0.1328 0.7381
C5A C 0.5004(9) 0.1216(10) 0.7286(4)
C6A C 0.5836(9) 0.1144(10) 0.6882(5)
H4A H 0.6534 0.1114 0.7011
Pb1C Pb 0.04558(3) 0.38178(4) 0.553415(18)
Pb1F Pb 0.95442(3) 0.11822(4) 0.553415(18)
Pb1J Pb 0.54558(3) 0.38178(4) 0.946585(18)
Pb1O Pb 0.45442(3) 0.11822(4) 0.946585(18)
Pb2A Pb 0.2500 0.15766(5) 0.5000
Pb2H Pb 0.2500 0.65766(5) 0.5000
Pb2I Pb 0.7500 -0.15766(5) 0.5000
O1F O 0.8479(6) 0.1790(7) 0.4631(3)
O2H O 0.6474(6) 0.5040(7) 0.4509(3)
O2K O 0.8526(6) 0.5040(7) 0.5491(3)
O3C O 0.2605(6) 0.3960(7) 0.3880(3)
O3F O 0.7395(6) 0.1040(7) 0.3880(3)
O4C O 0.9308(6) 0.3910(7) 0.4475(3)
O5J O 0.4519(7) 0.3630(9) 0.3257(4)
O5O O 0.5481(7) 0.1370(9) 0.3257(4)
O7C O 0.8921(6) 0.2813(7) 0.5678(3)
loop_
_geom_bond_atom_site_label_1
_geom_bond_atom_site_label_2
_geom_bond_site_symmetry_1
_geom_bond_site_symmetry_2
Pb1 O1 1_555 1_555
Pb2 O4 1_555 1_555
S1 O1 1_555 1_555
O1 Pb2A 1_555 1_555
O2 S1 1_555 1_555
O3 S1 1_555 1_555
O4 Pb1 1_555 1_555
O5 N1 1_555 1_555
O6 N1 1_555 1_555
O7 Pb1 1_555 1_555
H1 O7 1_555 1_555
N1 C5 1_555 1_555
C1 S1 1_555 1_555
C2 O4 1_555 1_555
C3 C2 1_555 1_555
H2 C3 1_555 1_555
C4 C3 1_555 1_555
H3 C4 1_555 1_555
C5 C4 1_555 1_555
C6 C1 1_555 1_555
H4 C6 1_555 1_555
Pb1A O7 1_555 1_555
S1A O1A 1_555 1_555
O1A Pb2 1_555 1_555
O2A S1A 1_555 1_555
O3A S1A 1_555 1_555
O4A Pb1A 1_555 1_555
O5A N1A 1_555 1_555
O6A N1A 1_555 1_555
O7A Pb1 1_555 1_555
H1A O7A 1_555 1_555
N1A C5A 1_555 1_555
C1A S1A 1_555 1_555
C2A O4A 1_555 1_555
C3A C2A 1_555 1_555
H2A C3A 1_555 1_555
C4A C3A 1_555 1_555
H3A C4A 1_555 1_555
C5A C4A 1_555 1_555
C6A C1A 1_555 1_555
H4A C6A 1_555 1_555
Pb1C O3 1_555 1_555
Pb1F O3A 1_555 1_555
Pb1J O5 1_555 1_555
Pb1O O5A 1_555 1_555
Pb2A O4A 1_555 1_555
Pb2H O2 1_555 1_555
Pb2I O2A 1_555 1_555
O1F Pb2 1_555 1_555
O2H Pb2 1_555 1_555
O2K Pb2 1_555 1_555
O3C Pb1 1_555 1_555
O3F Pb1A 1_555 1_555
O4C Pb2 1_555 1_555
O5J Pb1 1_555 1_555
O5O Pb1A 1_555 1_555
O7C Pb2 1_555 1_555
Pb2 O7 1_555 1_555
C1 C2 1_555 1_555
C5 C6 1_555 1_555
Pb1A O1A 1_555 1_555
Pb1A O7A 1_555 1_555
O7A Pb2A 1_555 1_555
C1A C2A 1_555 1_555
C5A C6A 1_555 1_555
Pb1F O1F 1_555 1_555
Pb1F O7C 1_555 1_555

#END
