
#######################################################################
#
#                 Cambridge Crystallographic Data Centre
#                                CCDC 
#
#######################################################################
#
# If this CIF has been generated from an entry in the Cambridge 
# Structural Database, then it will include bibliographic, chemical, 
# crystal, experimental, refinement or atomic coordinate data resulting 
# from the CCDC's data processing and validation procedures.
#
#######################################################################

data_TOHQUE
_symmetry_cell_setting           monoclinic
_symmetry_space_group_name_H-M   'P 21/c'
_symmetry_Int_Tables_number      14
_space_group_name_Hall           '-P 2ybc'
loop_
_symmetry_equiv_pos_site_id
_symmetry_equiv_pos_as_xyz
1 x,y,z
2 -x,1/2+y,1/2-z
3 -x,-y,-z
4 x,1/2-y,1/2+z
_cell_length_a                   14.379(11)
_cell_length_b                   14.822(11)
_cell_length_c                   17.497(13)
_cell_angle_alpha                90
_cell_angle_beta                 108.401(8)
_cell_angle_gamma                90
_cell_volume                     3538.39
loop_
_atom_site_label
_atom_site_type_symbol
_atom_site_fract_x
_atom_site_fract_y
_atom_site_fract_z
Cd1 Cd -0.00570(2) 0.91312(2) 0.07393(2)
Cd2 Cd 0.85641(3) 0.86641(3) 0.84389(2)
O1 O -0.1595(3) 0.8970(3) 0.0935(2)
O2 O -0.1581(3) 0.8719(3) -0.0299(2)
O3 O -0.5370(4) 0.9142(5) 0.1204(3)
O4 O -0.9849(3) 0.8631(4) -0.1512(3)
O5 O -0.9429(3) 0.9351(3) -0.0339(2)
O6 O 0.1447(3) 0.9748(3) 0.1497(2)
O7 O 0.0755(3) 0.8960(4) 0.2235(3)
O8 O 0.3259(4) 0.8521(6) 0.5373(3)
O9 O 0.6996(3) 0.8463(3) 0.7538(2)
O10 O 0.8180(3) 0.8682(3) 0.7019(3)
N1 N 0.0340(3) 0.7609(3) 0.0878(3)
N2 N 0.1269(4) 0.2907(3) 0.1414(3)
C1 C -0.2047(3) 0.8798(3) 0.0211(3)
C2 C -0.3139(4) 0.8704(3) -0.0079(4)
C3 C -0.3690(4) 0.8871(4) 0.0438(4)
H1 H -0.3383 0.9019 0.0975
C4 C -0.4727(4) 0.8809(4) 0.0127(3)
C5 C -0.5182(4) 0.8577(4) -0.0696(4)
C6 C -0.4636(4) 0.8400(6) -0.1203(4)
H2 H -0.4938 0.8240 -0.1739
C7 C -0.3614(4) 0.8471(5) -0.0885(4)
H3 H -0.3238 0.8359 -0.1220
C8 C -0.5486(4) 0.8967(5) 0.0515(4)
C9 C -0.6437(4) 0.8840(4) -0.0141(4)
C10 C -0.6266(4) 0.8597(4) -0.0848(4)
C11 C -0.7004(4) 0.8405(5) -0.1552(4)
H4 H -0.6871 0.8223 -0.2015
C12 C -0.7960(4) 0.8498(5) -0.1532(4)
H5 H -0.8479 0.8367 -0.1993
C13 C -0.8162(4) 0.8786(4) -0.0833(4)
C14 C -0.7404(4) 0.8948(4) -0.0123(4)
H6 H -0.7530 0.9122 0.0346
C15 C -0.9217(3) 0.8924(3) -0.0900(3)
C16 C 0.1486(4) 0.9308(4) 0.2148(3)
C17 C 0.2492(4) 0.9203(4) 0.2766(3)
C18 C 0.2559(4) 0.8970(4) 0.3550(4)
H7 H 0.2000 0.8881 0.3700
C19 C 0.3498(4) 0.8872(4) 0.4108(3)
C20 C 0.4334(4) 0.8997(4) 0.3870(4)
C21 C 0.4267(5) 0.9205(5) 0.3088(4)
H8 H 0.4825 0.9268 0.2931
C22 C 0.3328(4) 0.9319(5) 0.2537(4)
H9 H 0.3261 0.9475 0.2007
C23 C 0.3797(5) 0.8671(5) 0.4970(4)
C24 C 0.4890(4) 0.8680(4) 0.5251(4)
C25 C 0.5210(4) 0.8866(4) 0.4590(4)
C26 C 0.6205(4) 0.8921(5) 0.4677(4)
H10 H 0.6423 0.9032 0.4239
C27 C 0.6862(4) 0.8803(5) 0.5450(4)
H11 H 0.7531 0.8838 0.5524
C28 C 0.6553(4) 0.8634(4) 0.6118(3)
C29 C 0.5543(4) 0.8567(4) 0.6014(4)
H12 H 0.5322 0.8449 0.6450
C30 C 0.7284(4) 0.8581(4) 0.6937(3)
C31 C -0.0152(4) 0.7084(4) 0.1241(4)
H13 H -0.0652 0.7341 0.1400
C32 C 0.0048(4) 0.6177(4) 0.1390(4)
H14 H -0.0310 0.5842 0.1650
C33 C 0.0774(4) 0.5764(4) 0.1155(4)
C34 C 0.1301(6) 0.6314(4) 0.0797(5)
H15 H 0.1818 0.6077 0.0649
C35 C 0.1056(5) 0.7210(5) 0.0662(5)
H16 H 0.1407 0.7559 0.0406
C36 C 0.0976(5) 0.4777(4) 0.1266(4)
C37 C 0.0798(9) 0.4288(5) 0.1875(6)
H17 H 0.0577 0.4579 0.2256
C38 C 0.0945(9) 0.3374(5) 0.1920(6)
H18 H 0.0808 0.3063 0.2334
C39 C 0.1474(5) 0.3374(4) 0.0844(4)
H19 H 0.1720 0.3065 0.0487
C40 C 0.1345(5) 0.4290(4) 0.0748(4)
H20 H 0.1504 0.4583 0.0336
Cd1_2 Cd -1.00570(2) 0.91312(2) 0.07393(2)
Cd1B Cd -0.99430(2) 1.08688(2) -0.07393(2)
Cd2_2 Cd -1.14359(3) 0.86641(3) -0.15611(2)
Cd2_3 Cd -0.14359(3) 0.86641(3) -0.15611(2)
Cd2B Cd 0.14359(3) 0.13359(3) 0.15611(2)
Cd2B_2 Cd 0.14359(3) 1.13359(3) 0.15611(2)
O2_2 O 0.8419(3) 0.8719(3) 0.9701(2)
O4_2 O 1.0151(3) 0.8631(4) 0.8488(3)
O5_2 O 0.0571(3) 0.9351(3) -0.0339(2)
O5B O -0.0571(3) 1.0649(3) 0.0339(2)
O6B O 0.8553(3) 1.0252(3) 0.8503(2)
N2B N 0.8731(4) 0.7093(3) 0.8586(3)
O11 O -0.3687(16) 0.8497(15) 0.2641(12)
loop_
_geom_bond_atom_site_label_1
_geom_bond_atom_site_label_2
_geom_bond_site_symmetry_1
_geom_bond_site_symmetry_2
Cd1 O1 1_555 1_555
Cd2 O9 1_555 1_555
O1 C1 1_555 1_555
O2 Cd1 1_555 1_555
O3 C8 1_555 1_555
O4 C15 1_555 1_555
O5 C15 1_555 1_555
O6 Cd1 1_555 1_555
O7 Cd1 1_555 1_555
O8 C23 1_555 1_555
O9 C30 1_555 1_555
O10 Cd2 1_555 1_555
N1 Cd1 1_555 1_555
N2 C38 1_555 1_555
C1 O2 1_555 1_555
C2 C1 1_555 1_555
C3 C2 1_555 1_555
H1 C3 1_555 1_555
C4 C3 1_555 1_555
C5 C4 1_555 1_555
C6 C5 1_555 1_555
H2 C6 1_555 1_555
C7 C2 1_555 1_555
H3 C7 1_555 1_555
C8 C4 1_555 1_555
C9 C8 1_555 1_555
C10 C5 1_555 1_555
C11 C10 1_555 1_555
H4 C11 1_555 1_555
C12 C11 1_555 1_555
H5 C12 1_555 1_555
C13 C12 1_555 1_555
C14 C9 1_555 1_555
H6 C14 1_555 1_555
C15 C13 1_555 1_555
C16 O6 1_555 1_555
C17 C16 1_555 1_555
C18 C17 1_555 1_555
H7 C18 1_555 1_555
C19 C18 1_555 1_555
C20 C19 1_555 1_555
C21 C20 1_555 1_555
H8 C21 1_555 1_555
C22 C17 1_555 1_555
H9 C22 1_555 1_555
C23 C19 1_555 1_555
C24 C23 1_555 1_555
C25 C20 1_555 1_555
C26 C25 1_555 1_555
H10 C26 1_555 1_555
C27 C26 1_555 1_555
H11 C27 1_555 1_555
C28 C27 1_555 1_555
C29 C24 1_555 1_555
H12 C29 1_555 1_555
C30 O10 1_555 1_555
C31 N1 1_555 1_555
H13 C31 1_555 1_555
C32 C31 1_555 1_555
H14 C32 1_555 1_555
C33 C32 1_555 1_555
C34 C33 1_555 1_555
H15 C34 1_555 1_555
C35 N1 1_555 1_555
H16 C35 1_555 1_555
C36 C33 1_555 1_555
C37 C36 1_555 1_555
H17 C37 1_555 1_555
C38 C37 1_555 1_555
H18 C38 1_555 1_555
C39 N2 1_555 1_555
H19 C39 1_555 1_555
C40 C36 1_555 1_555
H20 C40 1_555 1_555
Cd1_2 O5 1_555 1_555
Cd1B O5 1_555 1_555
Cd2_2 O4 1_555 1_555
Cd2_3 O2 1_555 1_555
Cd2B N2 1_555 1_555
Cd2B_2 O6 1_555 1_555
O2_2 Cd2 1_555 1_555
O4_2 Cd2 1_555 1_555
O5_2 Cd1 1_555 1_555
O5B Cd1 1_555 1_555
O6B Cd2 1_555 1_555
N2B Cd2 1_555 1_555
O7 C16 1_555 1_555
C6 C7 1_555 1_555
C9 C10 1_555 1_555
C13 C14 1_555 1_555
C21 C22 1_555 1_555
C24 C25 1_555 1_555
C28 C29 1_555 1_555
C28 C30 1_555 1_555
C34 C35 1_555 1_555
C39 C40 1_555 1_555

#END
