
#######################################################################
#
#                 Cambridge Crystallographic Data Centre
#                                CCDC 
#
#######################################################################
#
# If this CIF has been generated from an entry in the Cambridge 
# Structural Database, then it will include bibliographic, chemical, 
# crystal, experimental, refinement or atomic coordinate data resulting 
# from the CCDC's data processing and validation procedures.
#
#######################################################################

data_TOHRIT
_symmetry_cell_setting           monoclinic
_symmetry_space_group_name_H-M   'P 21/c'
_symmetry_Int_Tables_number      14
_space_group_name_Hall           '-P 2ybc'
loop_
_symmetry_equiv_pos_site_id
_symmetry_equiv_pos_as_xyz
1 x,y,z
2 -x,1/2+y,1/2-z
3 -x,-y,-z
4 x,1/2-y,1/2+z
_cell_length_a                   10.2333(8)
_cell_length_b                   13.4578(12)
_cell_length_c                   20.3897(18)
_cell_angle_alpha                90
_cell_angle_beta                 100.625(4)
_cell_angle_gamma                90
_cell_volume                     2759.88
loop_
_atom_site_label
_atom_site_type_symbol
_atom_site_fract_x
_atom_site_fract_y
_atom_site_fract_z
Tb1 Tb 0.91100(2) 0.843270(17) 0.159432(10)
O1 O 0.7960(4) 1.0007(3) 0.13574(18)
O2 O 0.7880(4) 0.9388(3) 0.23417(19)
O3 O 1.0343(4) 1.1827(3) 0.3839(2)
O4 O 0.8717(4) 1.2458(3) 0.30873(19)
O5 O 0.7726(4) 0.8201(3) 0.04440(19)
O6 O 0.6857(4) 0.7695(4) 0.1272(2)
O7 O 0.5820(5) 0.7441(5) 0.0254(3)
O8 O 1.0283(4) 0.9110(3) 0.07852(19)
O9 O 1.0664(4) 0.9523(3) 0.2223(2)
O10 O 0.8851(4) 0.7342(3) 0.24677(18)
C1 C 0.6406(5) 1.1174(4) 0.2656(3)
C2 C 0.6645(5) 1.0903(4) 0.2023(3)
C3 C 0.5937(6) 1.1376(4) 0.1456(3)
H1 H 0.6134 1.1224 0.1040
C4 C 0.4947(7) 1.2066(5) 0.1497(3)
H2 H 0.4462 1.2357 0.1114
C5 C 0.4700(6) 1.2314(5) 0.2130(4)
H3 H 0.4033 1.2768 0.2170
C6 C 0.5433(6) 1.1893(5) 0.2691(3)
H4 H 0.5280 1.2091 0.3108
C7 C 0.7040(5) 1.0704(4) 0.3303(2)
C8 C 0.8265(5) 1.0985(4) 0.3697(2)
C9 C 0.8672(6) 1.0524(4) 0.4319(3)
H5 H 0.9491 1.0690 0.4576
C10 C 0.7872(7) 0.9823(5) 0.4560(3)
H6 H 0.8140 0.9548 0.4982
C11 C 0.6688(7) 0.9539(5) 0.4171(3)
H7 H 0.6162 0.9061 0.4325
C12 C 0.6280(6) 0.9967(5) 0.3549(3)
H8 H 0.5483 0.9763 0.3287
C13 C 0.7553(5) 1.0063(4) 0.1906(2)
C14 C 0.9156(5) 1.1796(4) 0.3521(3)
C15 C 1.1483(5) 0.9266(4) 0.0763(3)
C16 C 1.3779(7) 0.9224(7) 0.1029(4)
H9 H 1.4346 0.8678 0.0947
H10 H 1.4246 0.9623 0.1395
C17 C 1.3358(6) 0.9854(6) 0.0400(3)
H11 H 1.3703 1.0525 0.0465
H12 H 1.3655 0.9560 0.0019
C18 C 1.1490(5) 0.9535(4) 0.2759(3)
C19 C 1.2800(7) 1.0157(6) 0.3715(3)
H13 H 1.2376 1.0379 0.4077
H14 H 1.3663 1.0472 0.3755
C20 C 1.2917(7) 0.9032(6) 0.3705(3)
H15 H 1.3817 0.8829 0.3682
H16 H 1.2665 0.8740 0.4098
C21 C 0.9183(5) 0.7348(4) 0.3094(2)
C22 C 0.9519(10) 0.7869(6) 0.4188(3)
H17 H 0.8819 0.7873 0.4450
H18 H 1.0202 0.8340 0.4377
C23 C 1.0098(10) 0.6827(6) 0.4156(3)
H19 H 1.1052 0.6825 0.4311
H20 H 0.9690 0.6359 0.4419
N1 N 1.2547(5) 0.8871(5) 0.1168(3)
H21 H 1.2487 0.8448 0.1478
N2 N 1.1920(5) 0.9842(5) 0.0317(3)
H22 H 1.1404 1.0171 0.0013
N3 N 1.1975(7) 1.0357(4) 0.3072(3)
H23 H 1.1817 1.0944 0.2910
N4 N 1.1998(7) 0.8743(4) 0.3106(3)
H24 H 1.1806 0.8138 0.2991
N5 N 0.8995(6) 0.8095(4) 0.3490(2)
H25 H 0.8612 0.8645 0.3352
N6 N 0.9765(9) 0.6597(4) 0.3457(3)
H26 H 0.9927 0.6033 0.3290
N7 N 0.6783(5) 0.7776(4) 0.0645(2)
Tb1A Tb 1.08900(2) 1.343270(17) 0.340568(10)
O3A O 0.9657(4) 0.6827(3) 0.1161(2)
O4A O 1.1283(4) 0.7458(3) 0.19127(19)
loop_
_geom_bond_atom_site_label_1
_geom_bond_atom_site_label_2
_geom_bond_site_symmetry_1
_geom_bond_site_symmetry_2
Tb1 O1 1_555 1_555
O1 C13 1_555 1_555
O2 Tb1 1_555 1_555
O3 C14 1_555 1_555
O4 C14 1_555 1_555
O5 Tb1 1_555 1_555
O6 Tb1 1_555 1_555
O7 N7 1_555 1_555
O8 Tb1 1_555 1_555
O9 Tb1 1_555 1_555
O10 Tb1 1_555 1_555
C1 C2 1_555 1_555
C2 C3 1_555 1_555
C3 H1 1_555 1_555
C4 C3 1_555 1_555
H2 C4 1_555 1_555
C5 C4 1_555 1_555
H3 C5 1_555 1_555
C6 C1 1_555 1_555
H4 C6 1_555 1_555
C7 C1 1_555 1_555
C8 C7 1_555 1_555
C9 C8 1_555 1_555
H5 C9 1_555 1_555
C10 C9 1_555 1_555
H6 C10 1_555 1_555
C11 C10 1_555 1_555
H7 C11 1_555 1_555
C12 C7 1_555 1_555
H8 C12 1_555 1_555
C13 O2 1_555 1_555
C14 C8 1_555 1_555
C15 O8 1_555 1_555
C16 H9 1_555 1_555
H10 C16 1_555 1_555
C17 C16 1_555 1_555
H11 C17 1_555 1_555
H12 C17 1_555 1_555
C18 O9 1_555 1_555
C19 H13 1_555 1_555
H14 C19 1_555 1_555
C20 C19 1_555 1_555
H15 C20 1_555 1_555
H16 C20 1_555 1_555
C21 O10 1_555 1_555
C22 H17 1_555 1_555
H18 C22 1_555 1_555
C23 C22 1_555 1_555
H19 C23 1_555 1_555
H20 C23 1_555 1_555
N1 C15 1_555 1_555
H21 N1 1_555 1_555
N2 C15 1_555 1_555
H22 N2 1_555 1_555
N3 C18 1_555 1_555
H23 N3 1_555 1_555
N4 C18 1_555 1_555
H24 N4 1_555 1_555
N5 C21 1_555 1_555
H25 N5 1_555 1_555
N6 C21 1_555 1_555
H26 N6 1_555 1_555
N7 O5 1_555 1_555
Tb1A O3 1_555 1_555
O3A Tb1 1_555 1_555
O4A Tb1 1_555 1_555
O4 Tb1A 1_555 1_555
O6 N7 1_555 1_555
C2 C13 1_555 1_555
C5 C6 1_555 1_555
C11 C12 1_555 1_555
C16 N1 1_555 1_555
C17 N2 1_555 1_555
C19 N3 1_555 1_555
C20 N4 1_555 1_555
C22 N5 1_555 1_555
C23 N6 1_555 1_555

#END
