
#######################################################################
#
#                 Cambridge Crystallographic Data Centre
#                                CCDC 
#
#######################################################################
#
# If this CIF has been generated from an entry in the Cambridge 
# Structural Database, then it will include bibliographic, chemical, 
# crystal, experimental, refinement or atomic coordinate data resulting 
# from the CCDC's data processing and validation procedures.
#
#######################################################################

data_TOHRUF
_symmetry_cell_setting           monoclinic
_symmetry_space_group_name_H-M   'C 2/c'
_symmetry_Int_Tables_number      15
_space_group_name_Hall           '-C 2yn'
loop_
_symmetry_equiv_pos_site_id
_symmetry_equiv_pos_as_xyz
1 x,y,z
2 -x,y,1/2-z
3 1/2+x,1/2+y,z
4 1/2-x,1/2+y,1/2-z
5 -x,-y,-z
6 x,-y,1/2+z
7 1/2-x,1/2-y,-z
8 1/2+x,1/2-y,1/2+z
_cell_length_a                   14.290(2)
_cell_length_b                   8.3056(9)
_cell_length_c                   9.4673(14)
_cell_angle_alpha                90
_cell_angle_beta                 118.197(5)
_cell_angle_gamma                90
_cell_volume                     990.301
loop_
_atom_site_label
_atom_site_type_symbol
_atom_site_fract_x
_atom_site_fract_y
_atom_site_fract_z
Ni1 Ni 0.0000 0.04147(4) -0.2500
N1 N 0.16384(16) 0.0434(2) -0.1806(3)
N2 N 0.23900(18) -0.0410(3) -0.0545(3)
N3 N 0.33170(18) -0.0128(3) -0.0400(3)
C1 C 0.21513(18) 0.1245(3) -0.2413(3)
H1 H 0.1845 0.1932 -0.3292
O1 O 0.46624(14) 0.2778(2) 0.0825(2)
O2 O 0.53204(12) 0.3695(2) -0.0749(2)
N4 N 0.31836(15) 0.0923(2) -0.1561(2)
C2 C 0.47318(16) 0.2804(3) -0.0439(3)
C3 C 0.40800(18) 0.1552(3) -0.1730(3)
H2 H 0.3816 0.2042 -0.2779
H3 H 0.4540 0.0665 -0.1667
N1A N -0.16384(16) 0.0434(2) -0.3194(3)
N2A N -0.23900(18) -0.0410(3) -0.4455(3)
N3A N -0.33170(18) -0.0128(3) -0.4600(3)
C1A C -0.21513(18) 0.1245(3) -0.2587(3)
H1A H -0.1845 0.1932 -0.1708
O1A O -0.46624(14) 0.2778(2) -0.5825(2)
O2A O -0.53204(12) 0.3695(2) -0.4251(2)
N4A N -0.31836(15) 0.0923(2) -0.3439(2)
C2A C -0.47318(16) 0.2804(3) -0.4561(3)
C3A C -0.40800(18) 0.1552(3) -0.3270(3)
H2A H -0.3816 0.2042 -0.2221
H3A H -0.4540 0.0665 -0.3333
Ni1B Ni -0.5000 0.54147(4) -0.2500
Ni1B_2 Ni 0.5000 0.54147(4) -0.2500
Ni1F Ni -0.5000 0.45853(4) -0.7500
Ni1F_2 Ni 0.5000 0.45853(4) 0.2500
O1F O 0.03376(14) 0.2222(2) -0.0825(2)
O1G O -0.03376(14) 0.2222(2) -0.4175(2)
O2B O 0.03204(12) -0.1305(2) -0.0749(2)
O2C O -0.03204(12) -0.1305(2) -0.4251(2)
loop_
_geom_bond_atom_site_label_1
_geom_bond_atom_site_label_2
_geom_bond_site_symmetry_1
_geom_bond_site_symmetry_2
Ni1 N1 1_555 1_555
N1 N2 1_555 1_555
N2 N3 1_555 1_555
N3 N4 1_555 1_555
C1 N1 1_555 1_555
H1 C1 1_555 1_555
O1 C2 1_555 1_555
O2 C2 1_555 1_555
N4 C1 1_555 1_555
C2 C3 1_555 1_555
C3 N4 1_555 1_555
H2 C3 1_555 1_555
H3 C3 1_555 1_555
N1A Ni1 1_555 1_555
N2A N1A 1_555 1_555
N3A N2A 1_555 1_555
C1A N1A 1_555 1_555
H1A C1A 1_555 1_555
O1A C2A 1_555 1_555
O2A C2A 1_555 1_555
N4A N3A 1_555 1_555
C2A C3A 1_555 1_555
C3A N4A 1_555 1_555
H2A C3A 1_555 1_555
H3A C3A 1_555 1_555
Ni1B O2A 1_555 1_555
Ni1B_2 O2 1_555 1_555
Ni1F O1A 1_555 1_555
Ni1F_2 O1 1_555 1_555
O1F Ni1 1_555 1_555
O1G Ni1 1_555 1_555
O2B Ni1 1_555 1_555
O2C Ni1 1_555 1_555
C1A N4A 1_555 1_555

#END
