
#######################################################################
#
#                 Cambridge Crystallographic Data Centre
#                                CCDC 
#
#######################################################################
#
# If this CIF has been generated from an entry in the Cambridge 
# Structural Database, then it will include bibliographic, chemical, 
# crystal, experimental, refinement or atomic coordinate data resulting 
# from the CCDC's data processing and validation procedures.
#
#######################################################################

data_TOHROZ
_symmetry_cell_setting           triclinic
_symmetry_space_group_name_H-M   'P -1'
_symmetry_Int_Tables_number      2
_space_group_name_Hall           '-P 1'
loop_
_symmetry_equiv_pos_site_id
_symmetry_equiv_pos_as_xyz
1 x,y,z
2 -x,-y,-z
_cell_length_a                   11.3948(5)
_cell_length_b                   12.4683(6)
_cell_length_c                   12.4935(6)
_cell_angle_alpha                90.320(4)
_cell_angle_beta                 92.468(4)
_cell_angle_gamma                105.618(4)
_cell_volume                     1707.6
loop_
_atom_site_label
_atom_site_type_symbol
_atom_site_fract_x
_atom_site_fract_y
_atom_site_fract_z
Sb1 Sb 0.63954(4) 0.24645(4) 0.70604(4)
Sb2 Sb 0.35186(4) 0.24925(3) 0.49558(4)
Sb3 Sb 0.36201(4) 0.25322(4) 0.19106(4)
Sb4 Sb 0.65051(4) 0.25125(3) 0.00830(4)
Mn1 Mn 0.49778(9) 0.49361(8) 0.64851(8)
Mn2 Mn 0.50415(9) 0.00673(8) 0.14796(8)
Mn3 Mn 0.35063(10) 0.24192(9) 0.79106(10)
Mn4 Mn 0.64863(10) 0.26084(9) 0.30159(10)
S1 S 0.56376(15) 0.37876(13) 0.80513(14)
S2 S 0.28621(15) 0.35377(14) 0.63558(14)
S3 S 0.55918(15) 0.36873(14) 0.49621(14)
S4 S 0.44604(15) 0.10992(13) 0.68715(14)
S5 S 0.71417(15) 0.14680(14) 0.86009(14)
S6 S 0.28717(15) 0.35146(14) 0.34204(14)
S7 S 0.43689(16) 0.12245(13) 0.29721(14)
S8 S 0.55453(15) 0.39116(13) 0.19004(14)
S9 S 0.44261(15) 0.13281(14) -0.00886(14)
S10 S 0.71489(16) 0.14713(14) 0.15205(14)
N1 N 0.2345(5) 0.2918(5) 0.9133(4)
N2 N 0.1720(5) 0.1084(5) 0.7884(5)
C1 C 0.2677(7) 0.3861(6) 0.9736(6)
H1 H 0.3448 0.4341 0.9659
C2 C 0.1937(9) 0.4148(7) 1.0456(7)
H2 H 0.2199 0.4814 1.0845
C3 C 0.0805(9) 0.3441(8) 1.0597(7)
H3 H 0.0287 0.3620 1.1081
C4 C 0.0453(7) 0.2463(7) 1.0009(6)
H4 H -0.0308 0.1969 1.0097
C5 C 0.1239(6) 0.2214(6) 0.9280(5)
C6 C 0.0898(6) 0.1202(6) 0.8588(6)
C7 C -0.0212(7) 0.0400(7) 0.8639(7)
H5 H -0.0771 0.0470 0.9137
C8 C -0.0474(8) -0.0504(7) 0.7940(8)
H6 H -0.1213 -0.1047 0.7963
C9 C 0.0355(8) -0.0595(7) 0.7215(8)
H7 H 0.0184 -0.1190 0.6728
C10 C 0.1447(7) 0.0206(6) 0.7218(7)
H8 H 0.2020 0.0134 0.6735
N3 N 0.7607(5) 0.2072(4) 0.4308(4)
N4 N 0.8304(6) 0.3894(5) 0.3120(5)
C11 C 0.7213(7) 0.1135(6) 0.4888(6)
H9 H 0.6421 0.0690 0.4755
C12 C 0.7942(8) 0.0821(7) 0.5663(7)
H10 H 0.7657 0.0164 0.6035
C13 C 0.9085(9) 0.1487(8) 0.5875(7)
H11 H 0.9580 0.1297 0.6412
C14 C 0.9519(8) 0.2448(8) 0.5298(7)
H12 H 1.0304 0.2905 0.5435
C15 C 0.8749(6) 0.2710(5) 0.4507(5)
C16 C 0.9140(6) 0.3695(6) 0.3819(6)
C17 C 1.0332(7) 0.4367(7) 0.3876(8)
H13 H 1.0901 0.4234 0.4377
C18 C 1.0653(8) 0.5234(8) 0.3174(9)
H14 H 1.1455 0.5674 0.3179
C19 C 0.9796(8) 0.5449(7) 0.2469(9)
H15 H 0.9994 0.6047 0.2007
C20 C 0.8626(8) 0.4750(6) 0.2464(7)
H16 H 0.8039 0.4883 0.1982
Sb4_2 Sb 0.65051(4) 0.25125(3) 1.00830(4)
Mn1A Mn 0.50222(9) 0.50639(8) 0.35149(8)
Mn2A Mn 0.49585(9) -0.00673(8) -0.14796(8)
Mn2A_2 Mn 0.49585(9) -0.00673(8) 0.85204(8)
S3A S 0.44082(15) 0.63127(14) 0.50379(14)
S4A S 0.55396(15) -0.10992(13) 0.31285(14)
S5_2 S 0.71417(15) 0.14680(14) -0.13991(14)
S5A S 0.28583(15) -0.14680(14) 0.13991(14)
S6A S 0.71283(15) 0.64854(14) 0.65796(14)
S8A S 0.44547(15) 0.60884(13) 0.80996(14)
S9A S 0.55739(15) -0.13281(14) 0.00886(14)
loop_
_geom_bond_atom_site_label_1
_geom_bond_atom_site_label_2
_geom_bond_site_symmetry_1
_geom_bond_site_symmetry_2
Sb1 S1 1_555 1_555
Sb2 S2 1_555 1_555
Sb3 S6 1_555 1_555
Sb4 S9 1_555 1_555
Mn1 S1 1_555 1_555
Mn2 S7 1_555 1_555
Mn3 S1 1_555 1_555
Mn4 S7 1_555 1_555
S2 Mn1 1_555 1_555
S3 Sb2 1_555 1_555
S4 Sb1 1_555 1_555
S5 Sb1 1_555 1_555
S6 Sb2 1_555 1_555
S7 Sb3 1_555 1_555
S8 Sb3 1_555 1_555
S9 Mn2 1_555 1_555
S10 Sb4 1_555 1_555
N1 Mn3 1_555 1_555
N2 Mn3 1_555 1_555
C1 N1 1_555 1_555
H1 C1 1_555 1_555
C2 C1 1_555 1_555
H2 C2 1_555 1_555
C3 C2 1_555 1_555
H3 C3 1_555 1_555
C4 C3 1_555 1_555
H4 C4 1_555 1_555
C5 N1 1_555 1_555
C6 N2 1_555 1_555
C7 C6 1_555 1_555
H5 C7 1_555 1_555
C8 C7 1_555 1_555
H6 C8 1_555 1_555
C9 C8 1_555 1_555
H7 C9 1_555 1_555
C10 N2 1_555 1_555
H8 C10 1_555 1_555
N3 Mn4 1_555 1_555
N4 Mn4 1_555 1_555
C11 N3 1_555 1_555
H9 C11 1_555 1_555
C12 C11 1_555 1_555
H10 C12 1_555 1_555
C13 C12 1_555 1_555
H11 C13 1_555 1_555
C14 C13 1_555 1_555
H12 C14 1_555 1_555
C15 N3 1_555 1_555
C16 N4 1_555 1_555
C17 C16 1_555 1_555
H13 C17 1_555 1_555
C18 C17 1_555 1_555
H14 C18 1_555 1_555
C19 C18 1_555 1_555
H15 C19 1_555 1_555
C20 N4 1_555 1_555
H16 C20 1_555 1_555
Sb4_2 S5 1_555 1_555
Mn1A S3 1_555 1_555
Mn2A S9 1_555 1_555
Mn2A_2 S4 1_555 1_555
S3A Mn1 1_555 1_555
S4A Mn2 1_555 1_555
S5_2 Sb4 1_555 1_555
S5A Mn2 1_555 1_555
S6A Mn1 1_555 1_555
S8A Mn1 1_555 1_555
S9A Mn2 1_555 1_555
Mn1 S3 1_555 1_555
Mn2 S10 1_555 1_555
Mn3 S2 1_555 1_555
Mn3 S4 1_555 1_555
Mn4 S8 1_555 1_555
Mn4 S10 1_555 1_555
S5 Mn2A_2 1_555 1_555
S6 Mn1A 1_555 1_555
S8 Mn1A 1_555 1_555
C4 C5 1_555 1_555
C5 C6 1_555 1_555
C9 C10 1_555 1_555
C14 C15 1_555 1_555
C15 C16 1_555 1_555
C19 C20 1_555 1_555
Mn1A S3A 1_555 1_555
Mn2A S5_2 1_555 1_555
Mn2A S9A 1_555 1_555

#END
