
#######################################################################
#
#                 Cambridge Crystallographic Data Centre
#                                CCDC 
#
#######################################################################
#
# If this CIF has been generated from an entry in the Cambridge 
# Structural Database, then it will include bibliographic, chemical, 
# crystal, experimental, refinement or atomic coordinate data resulting 
# from the CCDC's data processing and validation procedures.
#
#######################################################################

data_TOHRAL
_symmetry_cell_setting           triclinic
_symmetry_space_group_name_H-M   'P -1'
_symmetry_Int_Tables_number      2
_space_group_name_Hall           '-P 1'
loop_
_symmetry_equiv_pos_site_id
_symmetry_equiv_pos_as_xyz
1 x,y,z
2 -x,-y,-z
_cell_length_a                   12.850(4)
_cell_length_b                   13.752(4)
_cell_length_c                   29.081(10)
_cell_angle_alpha                99.731(5)
_cell_angle_beta                 92.479(5)
_cell_angle_gamma                114.719(3)
_cell_volume                     4563.54
loop_
_atom_site_label
_atom_site_type_symbol
_atom_site_fract_x
_atom_site_fract_y
_atom_site_fract_z
C1 C 0.8801(9) 0.8589(8) 0.4072(3)
C2 C 0.8343(9) 0.7492(9) 0.3899(4)
C3 C 0.8853(9) 0.6870(9) 0.4068(4)
C4 C 0.9789(10) 0.7373(9) 0.4412(3)
H1 H 1.0135 0.6952 0.4523
C5 C 1.0238(9) 0.8495(8) 0.4601(4)
H2 H 1.0870 0.8834 0.4845
C6 C 0.9742(9) 0.9109(9) 0.4425(4)
H3 H 1.0042 0.9874 0.4545
C7 C 0.8386(10) 0.9335(9) 0.3869(4)
C8 C 0.7333(9) 0.6946(8) 0.3506(4)
C9 C 0.8410(11) 0.5670(9) 0.3904(4)
C10 C 0.7780(10) 0.9220(9) 0.1801(4)
C11 C 0.6924(11) 0.8190(9) 0.1589(4)
C12 C 0.6843(9) 0.7813(10) 0.1108(4)
C13 C 0.7588(9) 0.8496(8) 0.0832(4)
H4 H 0.7534 0.8245 0.0503
C14 C 0.8393(10) 0.9531(10) 0.1050(4)
H5 H 0.8889 1.0005 0.0870
C15 C 0.8480(11) 0.9885(11) 0.1537(4)
H6 H 0.9035 1.0600 0.1684
C16 C 0.7809(9) 0.9655(9) 0.2328(3)
C17 C 0.6201(11) 0.7380(10) 0.1869(4)
C18 C 0.6006(10) 0.6656(9) 0.0851(4)
C19 C 0.3805(11) 0.9519(10) 0.3418(4)
C20 C 0.3084(10) 0.8283(11) 0.3333(4)
C21 C 0.1902(11) 0.7993(11) 0.3297(5)
C22 C 0.1386(11) 0.8661(9) 0.3410(5)
H7 H 0.0581 0.8365 0.3434
C23 C 0.2030(9) 0.9767(10) 0.3489(4)
H8 H 0.1684 1.0258 0.3547
C24 C 0.3210(10) 1.0145(10) 0.3480(4)
H9 H 0.3649 1.0913 0.3521
C25 C 0.5092(10) 0.9918(10) 0.3446(4)
C26 C 0.3641(9) 0.7587(10) 0.3221(4)
C27 C 0.1053(12) 0.6774(10) 0.3199(4)
C28 C 0.6421(11) 0.2144(10) 0.2111(4)
C29 C 0.5989(8) 0.2647(8) 0.1848(4)
C30 C 0.5693(9) 0.2248(9) 0.1346(4)
C31 C 0.5851(11) 0.1307(10) 0.1142(4)
H10 H 0.5729 0.1064 0.0810
C32 C 0.6162(10) 0.0785(10) 0.1410(4)
H11 H 0.6104 0.0083 0.1274
C33 C 0.6570(10) 0.1197(9) 0.1881(4)
H12 H 0.6939 0.0870 0.2050
C34 C 0.6891(10) 0.2508(10) 0.2622(4)
C35 C 0.5770(9) 0.3580(9) 0.2079(4)
C36 C 0.5299(9) 0.2827(11) 0.1034(4)
C37 C 0.1114(9) 0.3275(10) 0.0972(4)
C38 C 0.1023(10) 0.3696(10) 0.1434(4)
C39 C -0.0018(11) 0.3496(9) 0.1569(4)
C40 C -0.0988(10) 0.2961(10) 0.1224(4)
H13 H -0.1707 0.2939 0.1302
C41 C -0.0938(9) 0.2506(10) 0.0812(4)
H14 H -0.1638 0.2047 0.0611
C42 C 0.0099(10) 0.2657(10) 0.0646(4)
H15 H 0.0131 0.2362 0.0330
C43 C 0.2235(11) 0.3451(11) 0.0806(4)
C44 C 0.2117(9) 0.4277(8) 0.1776(3)
C45 C -0.0131(9) 0.3945(10) 0.2061(4)
C46 C 0.3402(9) 0.2768(9) 0.4072(4)
C47 C 0.2709(9) 0.3043(8) 0.3780(4)
C48 C 0.1570(10) 0.2768(9) 0.3860(4)
C49 C 0.1133(11) 0.2212(9) 0.4221(4)
H16 H 0.0353 0.2021 0.4272
C50 C 0.1812(9) 0.1937(9) 0.4501(4)
H17 H 0.1506 0.1559 0.4745
C51 C 0.2963(10) 0.2225(10) 0.4423(4)
H18 H 0.3442 0.2041 0.4615
C52 C 0.4619(8) 0.3029(8) 0.4016(4)
C53 C 0.3233(9) 0.3690(8) 0.3412(4)
C54 C 0.0806(8) 0.3094(8) 0.3582(3)
O1 O 0.8432(7) 1.0165(6) 0.4118(3)
O2 O 0.7917(6) 0.9051(6) 0.3428(3)
O3 O 0.6324(6) 0.6803(7) 0.3611(3)
O4 O 0.7500(6) 0.6550(7) 0.3094(3)
O5 O 0.7283(6) 0.5082(6) 0.3790(3)
O6 O 0.9068(6) 0.5210(6) 0.3909(2)
O7 O 0.8804(6) 1.0366(6) 0.2549(3)
O8 O 0.6924(7) 0.9328(6) 0.2505(3)
O9 O 0.6702(7) 0.7054(6) 0.2145(2)
O10 O 0.5166(7) 0.7167(7) 0.1827(3)
O11 O 0.5880(7) 0.5920(6) 0.1066(3)
O12 O 0.5480(7) 0.6481(6) 0.0498(3)
O13 O 0.5619(7) 1.1003(6) 0.3538(3)
O14 O 0.5596(7) 0.9354(7) 0.3260(3)
O15 O 0.4146(6) 0.7312(6) 0.3534(3)
O16 O 0.3600(6) 0.7189(6) 0.2774(3)
O17 O 0.1469(6) 0.6010(7) 0.3261(2)
O18 O 0.0097(6) 0.6471(6) 0.3005(3)
O19 O 0.7510(6) 0.2188(6) 0.2809(2)
O20 O 0.6508(7) 0.3165(6) 0.2863(3)
O21 O 0.6602(6) 0.4570(6) 0.2144(3)
O22 O 0.4768(6) 0.3381(6) 0.2190(2)
O23 O 0.5043(7) 0.3578(5) 0.1187(3)
O24 O 0.5260(6) 0.2553(6) 0.0603(2)
O25 O 0.2395(7) 0.2768(6) 0.0494(3)
O26 O 0.3109(6) 0.4366(5) 0.0974(2)
O27 O 0.2668(6) 0.3731(6) 0.1905(3)
O28 O 0.2491(6) 0.5283(6) 0.1932(2)
O29 O 0.0524(7) 0.3846(7) 0.2394(3)
O30 O -0.0885(7) 0.4291(6) 0.2172(2)
O31 O -0.0282(7) 0.2601(6) 0.3599(3)
O32 O 0.1278(6) 0.3992(6) 0.3436(3)
O33 O 0.2977(6) 0.3228(6) 0.2972(3)
O34 O 0.3952(6) 0.4678(7) 0.3544(3)
O35 O 0.4961(6) 0.3060(6) 0.3580(2)
O36 O 0.5344(7) 0.3113(7) 0.4321(3)
O37 O 0.4724(6) 0.5596(6) 0.2648(2)
Pb1 Pb 0.57821(3) 0.74355(3) 0.290653(14)
Pb2 Pb 0.55481(4) 0.46974(4) 0.303003(14)
Pb3 Pb 0.47121(4) 0.50746(3) 0.185842(14)
Pb4 Pb 0.28810(3) 0.51077(3) 0.281369(14)
Pb5 Pb 0.76803(4) 1.06115(3) 0.326860(15)
Pb6 Pb 0.68364(4) 0.31603(3) 0.370894(15)
Pb7 Pb 0.46080(4) 0.41829(4) 0.049351(15)
Pb8 Pb -0.02753(3) 0.43431(3) 0.310736(14)
O6_2 O -0.0932(6) 0.5210(6) 0.3909(2)
O12A O 0.4520(7) 0.3519(6) -0.0498(3)
O13_2 O 0.5619(7) 0.1003(6) 0.3538(3)
O19_2 O 0.7510(6) 1.2188(6) 0.2809(2)
O31_2 O 0.9718(7) 1.2601(6) 0.3599(3)
Pb5_2 Pb -0.23197(4) 0.06115(3) 0.326860(15)
Pb5_3 Pb 0.76803(4) 0.06115(3) 0.326860(15)
Pb6_2 Pb 0.68364(4) 1.31603(3) 0.370894(15)
Pb7A Pb 0.53920(4) 0.58171(4) -0.049351(15)
Pb8_2 Pb 0.97247(3) 0.43431(3) 0.310736(14)
C55 C 0.5389(10) 0.5873(9) 0.4558(4)
H19 H 0.4849 0.5097 0.4504
H20 H 0.5623 0.6165 0.4896
H21 H 0.6072 0.5954 0.4401
C56 C 0.3554(9) 0.6192(9) 0.4434(3)
H22 H 0.3417 0.5907 0.4723
H23 H 0.3045 0.5627 0.4167
H24 H 0.3392 0.6834 0.4463
N1 N 0.4792(7) 0.6512(8) 0.4354(3)
H25 H 0.5210 0.7245 0.4483
H26 H 0.4826 0.6423 0.4035
C57 C 0.1914(8) 0.7390(8) 0.1928(3)
H27 H 0.1685 0.7843 0.1760
H28 H 0.1889 0.7597 0.2266
H29 H 0.1382 0.6618 0.1813
C58 C 0.3894(10) 0.8732(9) 0.1942(4)
H30 H 0.4166 0.8988 0.2279
H31 H 0.3463 0.9122 0.1845
H32 H 0.4559 0.8872 0.1766
N2 N 0.3150(8) 0.7569(8) 0.1845(3)
H33 H 0.3414 0.7234 0.2039
H34 H 0.3154 0.7265 0.1538
C59 C 0.2400(10) 0.1179(9) 0.1643(4)
H35 H 0.1615 0.1011 0.1510
H36 H 0.2482 0.0497 0.1626
H37 H 0.2959 0.1645 0.1463
C60 C 0.2906(10) 0.1040(9) 0.2411(4)
H38 H 0.3503 0.0852 0.2279
H39 H 0.2214 0.0367 0.2414
H40 H 0.3194 0.1463 0.2734
N3 N 0.2604(9) 0.1724(8) 0.2110(3)
H41 H 0.1957 0.1798 0.2198
H42 H 0.3205 0.2410 0.2150
C61 C 0.8730(9) 0.6208(9) 0.1821(3)
H43 H 0.9183 0.6812 0.1670
H44 H 0.7943 0.5817 0.1654
H45 H 0.9091 0.5703 0.1809
C62 C 0.9336(9) 0.7920(10) 0.2442(3)
H46 H 0.9060 0.8235 0.2213
H47 H 1.0168 0.8154 0.2443
H48 H 0.9181 0.8173 0.2756
N4 N 0.8691(9) 0.6639(8) 0.2305(3)
H49 H 0.9019 0.6349 0.2497
H50 H 0.7931 0.6419 0.2356
C63 C 0.6939(8) 0.1502(9) 0.4688(4)
H51 H 0.7770 0.1934 0.4787
H52 H 0.6529 0.1941 0.4800
H53 H 0.6794 0.1291 0.4344
C64 C 0.6201(10) -0.0498(9) 0.4581(4)
H54 H 0.6263 -0.0541 0.4254
C65 C 0.6531(10) 0.0677(9) 0.5442(3)
H55 H 0.5744 0.0325 0.5522
H56 H 0.6856 0.1467 0.5567
H57 H 0.7011 0.0376 0.5580
N5 N 0.6503(8) 0.0461(8) 0.4900(3)
O38 O 0.5818(6) -0.1342(6) 0.4778(2)
C66 C 0.6821(12) 0.0089(11) 0.9955(4)
H58 H 0.7074 -0.0280 1.0165
H59 H 0.6034 -0.0396 0.9803
H60 H 0.6833 0.0762 1.0138
C67 C 0.8533(12) 0.0043(12) 0.9594(5)
H61 H 0.8256 -0.0712 0.9419
H62 H 0.8839 0.0099 0.9917
H63 H 0.9144 0.0532 0.9440
C68 C 0.7566(10) 0.1024(9) 0.9280(4)
H64 H 0.7146 0.1445 0.9355
N6 N 0.7585(8) 0.0354(8) 0.9602(3)
O39 O 0.8022(7) 0.1126(6) 0.8919(3)
C69 C 0.0211(11) 0.3292(11) 0.9354(4)
H65 H -0.0457 0.3453 0.9314
H66 H 0.0021 0.2693 0.9524
H67 H 0.0414 0.3076 0.9045
C70 C 0.0967(10) 0.5222(10) 0.9716(5)
H68 H 0.0445 0.5356 0.9524
C71 C 0.2333(10) 0.4397(8) 0.9827(3)
H69 H 0.2809 0.5164 0.9977
H70 H 0.2721 0.4169 0.9577
H71 H 0.2221 0.3940 1.0062
N7 N 0.1195(10) 0.4271(9) 0.9623(4)
O40 O 0.1541(9) 0.5818(8) 1.0075(3)
O41 O 0.903(2) 0.313(2) 0.4125(9)
H72 H 0.9041 0.3713 0.4065
H73 H 0.9676 0.3112 0.4084
O42 O 0.0000 0.5000 0.5000
O43 O 0.5681(18) 0.196(2) 0.9631(8)
H74 H 0.5828 0.2594 0.9585
H75 H 0.5673 0.1960 0.9923
H76? H 0.0284 0.5239 0.4761
H77? H 0.0169 0.4482 0.5040
loop_
_geom_bond_atom_site_label_1
_geom_bond_atom_site_label_2
_geom_bond_site_symmetry_1
_geom_bond_site_symmetry_2
C1 C2 1_555 1_555
C2 C3 1_555 1_555
C3 C4 1_555 1_555
C4 H1 1_555 1_555
C5 C4 1_555 1_555
H2 C5 1_555 1_555
C6 C1 1_555 1_555
H3 C6 1_555 1_555
C7 C1 1_555 1_555
C8 C2 1_555 1_555
C9 C3 1_555 1_555
C10 C11 1_555 1_555
C11 C12 1_555 1_555
C12 C13 1_555 1_555
C13 H4 1_555 1_555
C14 C13 1_555 1_555
H5 C14 1_555 1_555
C15 C10 1_555 1_555
H6 C15 1_555 1_555
C16 C10 1_555 1_555
C17 C11 1_555 1_555
C18 C12 1_555 1_555
C19 C20 1_555 1_555
C20 C21 1_555 1_555
C21 C22 1_555 1_555
C22 H7 1_555 1_555
C23 C22 1_555 1_555
H8 C23 1_555 1_555
C24 C19 1_555 1_555
H9 C24 1_555 1_555
C25 C19 1_555 1_555
C26 C20 1_555 1_555
C27 C21 1_555 1_555
C28 C29 1_555 1_555
C29 C30 1_555 1_555
C30 C31 1_555 1_555
C31 H10 1_555 1_555
C32 C31 1_555 1_555
H11 C32 1_555 1_555
C33 C28 1_555 1_555
H12 C33 1_555 1_555
C34 C28 1_555 1_555
C35 C29 1_555 1_555
C36 C30 1_555 1_555
C37 C38 1_555 1_555
C38 C39 1_555 1_555
C39 C40 1_555 1_555
C40 H13 1_555 1_555
C41 C40 1_555 1_555
H14 C41 1_555 1_555
C42 C37 1_555 1_555
H15 C42 1_555 1_555
C43 C37 1_555 1_555
C44 C38 1_555 1_555
C45 C39 1_555 1_555
C46 C47 1_555 1_555
C47 C48 1_555 1_555
C48 C49 1_555 1_555
C49 H16 1_555 1_555
C50 C49 1_555 1_555
H17 C50 1_555 1_555
C51 C46 1_555 1_555
H18 C51 1_555 1_555
C52 C46 1_555 1_555
C53 C47 1_555 1_555
C54 C48 1_555 1_555
O1 C7 1_555 1_555
O2 C7 1_555 1_555
O3 C8 1_555 1_555
O4 C8 1_555 1_555
O5 C9 1_555 1_555
O6 C9 1_555 1_555
O7 C16 1_555 1_555
O8 C16 1_555 1_555
O9 C17 1_555 1_555
O10 C17 1_555 1_555
O11 C18 1_555 1_555
O12 C18 1_555 1_555
O13 C25 1_555 1_555
O14 C25 1_555 1_555
O15 C26 1_555 1_555
O16 C26 1_555 1_555
O17 C27 1_555 1_555
O18 C27 1_555 1_555
O19 C34 1_555 1_555
O20 C34 1_555 1_555
O21 C35 1_555 1_555
O22 C35 1_555 1_555
O23 C36 1_555 1_555
O24 C36 1_555 1_555
O25 C43 1_555 1_555
O26 C43 1_555 1_555
O27 C44 1_555 1_555
O28 C44 1_555 1_555
O29 C45 1_555 1_555
O30 C45 1_555 1_555
O31 C54 1_555 1_555
O32 C54 1_555 1_555
O33 C53 1_555 1_555
O34 C53 1_555 1_555
O35 C52 1_555 1_555
O36 C52 1_555 1_555
O37 Pb1 1_555 1_555
Pb1 O2 1_555 1_555
Pb2 O3 1_555 1_555
Pb3 O9 1_555 1_555
Pb4 O16 1_555 1_555
Pb5 O1 1_555 1_555
Pb6 O5 1_555 1_555
Pb7 O11 1_555 1_555
Pb8 O17 1_555 1_555
C55 H19 1_555 1_555
H20 C55 1_555 1_555
H21 C55 1_555 1_555
C56 H22 1_555 1_555
H23 C56 1_555 1_555
H24 C56 1_555 1_555
N1 C55 1_555 1_555
H25 N1 1_555 1_555
H26 N1 1_555 1_555
C57 H27 1_555 1_555
H28 C57 1_555 1_555
H29 C57 1_555 1_555
C58 H30 1_555 1_555
H31 C58 1_555 1_555
H32 C58 1_555 1_555
N2 C57 1_555 1_555
H33 N2 1_555 1_555
H34 N2 1_555 1_555
C59 H35 1_555 1_555
H36 C59 1_555 1_555
H37 C59 1_555 1_555
C60 H38 1_555 1_555
H39 C60 1_555 1_555
H40 C60 1_555 1_555
N3 C59 1_555 1_555
H41 N3 1_555 1_555
H42 N3 1_555 1_555
C61 H43 1_555 1_555
H44 C61 1_555 1_555
H45 C61 1_555 1_555
C62 H46 1_555 1_555
H47 C62 1_555 1_555
H48 C62 1_555 1_555
N4 C61 1_555 1_555
H49 N4 1_555 1_555
H50 N4 1_555 1_555
C63 H51 1_555 1_555
H52 C63 1_555 1_555
H53 C63 1_555 1_555
C64 H54 1_555 1_555
C65 H55 1_555 1_555
H56 C65 1_555 1_555
H57 C65 1_555 1_555
N5 C63 1_555 1_555
O38 C64 1_555 1_555
C66 H58 1_555 1_555
H59 C66 1_555 1_555
H60 C66 1_555 1_555
C67 H61 1_555 1_555
H62 C67 1_555 1_555
H63 C67 1_555 1_555
C68 H64 1_555 1_555
N6 C66 1_555 1_555
O39 C68 1_555 1_555
C69 H65 1_555 1_555
H66 C69 1_555 1_555
H67 C69 1_555 1_555
C70 H68 1_555 1_555
C71 H69 1_555 1_555
H70 C71 1_555 1_555
H71 C71 1_555 1_555
N7 C69 1_555 1_555
O40 C70 1_555 1_555
O41 H72 1_555 1_555
H73 O41 1_555 1_555
O43 H74 1_555 1_555
H75 O43 1_555 1_555
O6_2 Pb8 1_555 1_555
O12A Pb7 1_555 1_555
O13_2 Pb6 1_555 1_555
O19_2 Pb5 1_555 1_555
O31_2 Pb5 1_555 1_555
Pb5_2 O31 1_555 1_555
Pb5_3 O19 1_555 1_555
Pb6_2 O13 1_555 1_555
Pb7A O12 1_555 1_555
Pb8_2 O6 1_555 1_555
C5 C6 1_555 1_555
C14 C15 1_555 1_555
C23 C24 1_555 1_555
C32 C33 1_555 1_555
C41 C42 1_555 1_555
C50 C51 1_555 1_555
O2 Pb5 1_555 1_555
O3 Pb1 1_555 1_555
O4 Pb2 1_555 1_555
O5 Pb2 1_555 1_555
O7 Pb5 1_555 1_555
O8 Pb1 1_555 1_555
O8 Pb5 1_555 1_555
O9 Pb1 1_555 1_555
O10 Pb3 1_555 1_555
O12 Pb7 1_555 1_555
O14 Pb1 1_555 1_555
O14 Pb5 1_555 1_555
O15 Pb1 1_555 1_555
O16 Pb1 1_555 1_555
O17 Pb4 1_555 1_555
O18 Pb8 1_555 1_555
O20 Pb2 1_555 1_555
O20 Pb6 1_555 1_555
O21 Pb3 1_555 1_555
O22 Pb2 1_555 1_555
O22 Pb3 1_555 1_555
O23 Pb3 1_555 1_555
O23 Pb7 1_555 1_555
O24 Pb7 1_555 1_555
O25 Pb7 1_555 1_555
O26 Pb7 1_555 1_555
O27 Pb3 1_555 1_555
O27 Pb4 1_555 1_555
O28 Pb4 1_555 1_555
O29 Pb4 1_555 1_555
O29 Pb8 1_555 1_555
O30 Pb8 1_555 1_555
O32 Pb4 1_555 1_555
O32 Pb8 1_555 1_555
O33 Pb4 1_555 1_555
O34 Pb2 1_555 1_555
O34 Pb4 1_555 1_555
O35 Pb2 1_555 1_555
O35 Pb6 1_555 1_555
O36 Pb6 1_555 1_555
O37 Pb2 1_555 1_555
O37 Pb3 1_555 1_555
O37 Pb4 1_555 1_555
C56 N1 1_555 1_555
C58 N2 1_555 1_555
C60 N3 1_555 1_555
C62 N4 1_555 1_555
C64 N5 1_555 1_555
C65 N5 1_555 1_555
C67 N6 1_555 1_555
C68 N6 1_555 1_555
C70 N7 1_555 1_555
C71 N7 1_555 1_555
O12A Pb7A 1_555 1_555

#END
