
#######################################################################
#
#                 Cambridge Crystallographic Data Centre
#                                CCDC 
#
#######################################################################
#
# If this CIF has been generated from an entry in the Cambridge 
# Structural Database, then it will include bibliographic, chemical, 
# crystal, experimental, refinement or atomic coordinate data resulting 
# from the CCDC's data processing and validation procedures.
#
#######################################################################

data_TOHREP
_symmetry_cell_setting           monoclinic
_symmetry_space_group_name_H-M   'P 21/c'
_symmetry_Int_Tables_number      14
_space_group_name_Hall           '-P 2ybc'
loop_
_symmetry_equiv_pos_site_id
_symmetry_equiv_pos_as_xyz
1 x,y,z
2 -x,1/2+y,1/2-z
3 -x,-y,-z
4 x,1/2-y,1/2+z
_cell_length_a                   10.2029(4)
_cell_length_b                   13.3685(5)
_cell_length_c                   20.3275(8)
_cell_angle_alpha                90
_cell_angle_beta                 100.830(2)
_cell_angle_gamma                90
_cell_volume                     2723.24
loop_
_atom_site_label
_atom_site_type_symbol
_atom_site_fract_x
_atom_site_fract_y
_atom_site_fract_z
Eu1 Eu 0.909635(11) 0.841931(8) 0.158945(6)
O1 O 0.7935(2) 1.00161(14) 0.13565(9)
O2 O 0.7879(2) 0.93937(14) 0.23464(10)
O3 O 1.03450(19) 1.17960(14) 0.38421(11)
O4 O 0.87238(18) 1.24278(13) 0.30935(9)
O5 O 0.7701(2) 0.81822(16) 0.04334(10)
O6 O 0.6823(2) 0.76872(17) 0.12556(10)
O7 O 0.5785(3) 0.7440(3) 0.02365(14)
O8 O 1.02863(18) 0.90999(15) 0.07754(10)
O9 O 1.0698(2) 0.95088(15) 0.22191(11)
O10 O 0.8826(2) 0.73210(13) 0.24706(9)
C1 C 0.6407(2) 1.11684(18) 0.26603(13)
C2 C 0.6639(2) 1.08993(17) 0.20271(13)
C3 C 0.5914(3) 1.1368(2) 0.14614(15)
H1 H 0.6095 1.1211 0.1042
C4 C 0.4927(3) 1.2063(2) 0.15107(17)
H2 H 0.4436 1.2356 0.1128
C5 C 0.4684(3) 1.2313(2) 0.21350(19)
H3 H 0.4019 1.2772 0.2174
C6 C 0.5426(3) 1.1884(2) 0.27021(17)
H4 H 0.5271 1.2074 0.3121
C7 C 0.7038(2) 1.06898(18) 0.33029(13)
C8 C 0.8258(2) 1.09630(17) 0.37021(12)
C9 C 0.8663(3) 1.0500(2) 0.43213(14)
H5 H 0.9483 1.0670 0.4582
C10 C 0.7877(3) 0.9794(2) 0.45565(15)
H6 H 0.8154 0.9505 0.4976
C11 C 0.6685(3) 0.9525(3) 0.41676(17)
H7 H 0.6148 0.9050 0.4322
C12 C 0.6281(3) 0.9957(2) 0.35483(16)
H8 H 0.5479 0.9754 0.3285
C13 C 0.7551(2) 1.00596(18) 0.19121(13)
C14 C 0.9159(2) 1.17707(18) 0.35251(13)
C15 C 1.1490(3) 0.92514(19) 0.07541(13)
C16 C 1.3779(3) 0.9220(3) 0.1032(2)
H9 H 1.4370 0.8680 0.0960
H10 H 1.4220 0.9630 0.1402
C17 C 1.3360(3) 0.9841(3) 0.03998(18)
H11 H 1.3721 1.0514 0.0458
H12 H 1.3647 0.9532 0.0019
C18 C 1.1501(3) 0.95227(19) 0.27600(14)
C19 C 1.2804(4) 1.0132(3) 0.37202(17)
H13 H 1.2368 1.0353 0.4080
H14 H 1.3671 1.0449 0.3768
C20 C 1.2921(4) 0.8997(3) 0.37078(18)
H15 H 1.3822 0.8792 0.3682
H16 H 1.2672 0.8700 0.4102
C21 C 0.9175(3) 0.73316(18) 0.30912(13)
C22 C 0.9527(5) 0.7861(3) 0.41827(16)
H17 H 0.8828 0.7857 0.4447
H18 H 1.0203 0.8344 0.4371
C23 C 1.0124(5) 0.6824(3) 0.41503(18)
H19 H 1.1085 0.6836 0.4297
H20 H 0.9740 0.6350 0.4421
N1 N 1.2536(2) 0.8844(2) 0.11549(15)
H21 H 1.2471 0.8402 0.1455
N2 N 1.1924(2) 0.9847(2) 0.03185(14)
H22 H 1.1409 1.0196 0.0022
N3 N 1.2004(3) 1.0333(2) 0.30811(15)
H23 H 1.1863 1.0926 0.2920
N4 N 1.1994(3) 0.8723(2) 0.31096(16)
H24 H 1.1786 0.8116 0.2993
N5 N 0.8996(3) 0.8076(2) 0.34903(13)
H25 H 0.8606 0.8628 0.3352
N6 N 0.9767(4) 0.6588(2) 0.34540(15)
H26 H 0.9924 0.6018 0.3289
N7 N 0.6744(2) 0.77643(19) 0.06293(12)
Eu1A Eu 1.090365(11) 1.341931(8) 0.341055(6)
O3A O 0.96550(19) 0.67960(14) 0.11579(11)
O4A O 1.12762(18) 0.74278(13) 0.19065(9)
loop_
_geom_bond_atom_site_label_1
_geom_bond_atom_site_label_2
_geom_bond_site_symmetry_1
_geom_bond_site_symmetry_2
Eu1 O1 1_555 1_555
O1 C13 1_555 1_555
O2 Eu1 1_555 1_555
O3 C14 1_555 1_555
O4 C14 1_555 1_555
O5 Eu1 1_555 1_555
O6 Eu1 1_555 1_555
O7 N7 1_555 1_555
O8 Eu1 1_555 1_555
O9 Eu1 1_555 1_555
O10 Eu1 1_555 1_555
C1 C2 1_555 1_555
C2 C3 1_555 1_555
C3 H1 1_555 1_555
C4 C3 1_555 1_555
H2 C4 1_555 1_555
C5 C4 1_555 1_555
H3 C5 1_555 1_555
C6 C1 1_555 1_555
H4 C6 1_555 1_555
C7 C1 1_555 1_555
C8 C7 1_555 1_555
C9 C8 1_555 1_555
H5 C9 1_555 1_555
C10 C9 1_555 1_555
H6 C10 1_555 1_555
C11 C10 1_555 1_555
H7 C11 1_555 1_555
C12 C7 1_555 1_555
H8 C12 1_555 1_555
C13 O2 1_555 1_555
C14 C8 1_555 1_555
C15 O8 1_555 1_555
C16 H9 1_555 1_555
H10 C16 1_555 1_555
C17 C16 1_555 1_555
H11 C17 1_555 1_555
H12 C17 1_555 1_555
C18 O9 1_555 1_555
C19 H13 1_555 1_555
H14 C19 1_555 1_555
C20 C19 1_555 1_555
H15 C20 1_555 1_555
H16 C20 1_555 1_555
C21 O10 1_555 1_555
C22 H17 1_555 1_555
H18 C22 1_555 1_555
C23 C22 1_555 1_555
H19 C23 1_555 1_555
H20 C23 1_555 1_555
N1 C15 1_555 1_555
H21 N1 1_555 1_555
N2 C15 1_555 1_555
H22 N2 1_555 1_555
N3 C18 1_555 1_555
H23 N3 1_555 1_555
N4 C18 1_555 1_555
H24 N4 1_555 1_555
N5 C21 1_555 1_555
H25 N5 1_555 1_555
N6 C21 1_555 1_555
H26 N6 1_555 1_555
N7 O5 1_555 1_555
Eu1A O3 1_555 1_555
O3A Eu1 1_555 1_555
O4A Eu1 1_555 1_555
O4 Eu1A 1_555 1_555
O6 N7 1_555 1_555
C2 C13 1_555 1_555
C5 C6 1_555 1_555
C11 C12 1_555 1_555
C16 N1 1_555 1_555
C17 N2 1_555 1_555
C19 N3 1_555 1_555
C20 N4 1_555 1_555
C22 N5 1_555 1_555
C23 N6 1_555 1_555

#END
