
#######################################################################
#
#                 Cambridge Crystallographic Data Centre
#                                CCDC 
#
#######################################################################
#
# If this CIF has been generated from an entry in the Cambridge 
# Structural Database, then it will include bibliographic, chemical, 
# crystal, experimental, refinement or atomic coordinate data resulting 
# from the CCDC's data processing and validation procedures.
#
#######################################################################

data_TOHVUJ
_symmetry_cell_setting           monoclinic
_symmetry_space_group_name_H-M   'C 2/c'
_symmetry_Int_Tables_number      15
_space_group_name_Hall           '-C 2yn'
loop_
_symmetry_equiv_pos_site_id
_symmetry_equiv_pos_as_xyz
1 x,y,z
2 -x,y,1/2-z
3 1/2+x,1/2+y,z
4 1/2-x,1/2+y,1/2-z
5 -x,-y,-z
6 x,-y,1/2+z
7 1/2-x,1/2-y,-z
8 1/2+x,1/2-y,1/2+z
_cell_length_a                   23.367(5)
_cell_length_b                   11.476(2)
_cell_length_c                   11.949(2)
_cell_angle_alpha                90
_cell_angle_beta                 120.19(3)
_cell_angle_gamma                90
_cell_volume                     2769.63
loop_
_atom_site_label
_atom_site_type_symbol
_atom_site_fract_x
_atom_site_fract_y
_atom_site_fract_z
Ho1 Ho 0.5000 0.56370(4) 0.7500
O1 O 0.6419(3) 0.3447(5) 0.9036(6)
O2 O 0.5966(2) 0.4939(4) 0.7648(5)
O3 O 0.9915(2) 0.1587(4) 0.5653(4)
O4 O 0.9522(3) 0.3001(5) 0.4134(6)
O5 O 0.4622(2) 0.4137(4) 0.5946(5)
H1 H 0.4896 0.3749 0.5826
H2 H 0.4211 0.3984 0.5505
N1 N 0.9158(3) 0.2305(5) 0.6551(6)
C1 C 0.8756(4) 0.2595(7) 0.7000(8)
H3 H 0.8836 0.2263 0.7775
C2 C 0.8228(3) 0.3359(6) 0.6382(7)
C3 C 0.8126(4) 0.3858(7) 0.5224(8)
H4 H 0.7776 0.4371 0.4766
C4 C 0.8544(4) 0.3586(7) 0.4771(7)
H5 H 0.8485 0.3921 0.4012
C5 C 0.9063(4) 0.2794(6) 0.5470(6)
C6 C 0.7804(4) 0.2938(8) 0.7882(8)
H6 H 0.8130 0.2372 0.8280
C7 C 0.7776(4) 0.3597(7) 0.6880(7)
C8 C 0.7288(4) 0.4440(7) 0.6336(8)
H7 H 0.7265 0.4907 0.5678
C9 C 0.6837(4) 0.4611(7) 0.6736(8)
H8 H 0.6513 0.5180 0.6343
C10 C 0.6865(3) 0.3936(6) 0.7725(7)
C11 C 0.7357(4) 0.3110(8) 0.8297(8)
H9 H 0.7388 0.2661 0.8974
C12 C 0.6377(4) 0.4112(7) 0.8166(7)
C13 C 0.9535(4) 0.2432(6) 0.5030(7)
O1A O 0.3581(3) 0.3447(5) 0.5964(6)
O2A O 0.4034(2) 0.4939(4) 0.7352(5)
O3A O 0.0085(2) 0.1587(4) 0.9347(4)
O4A O 0.0478(3) 0.3001(5) 1.0866(6)
O5A O 0.5378(2) 0.4137(4) 0.9054(5)
H1A H 0.5104 0.3749 0.9174
H2A H 0.5789 0.3984 0.9495
N1A N 0.0842(3) 0.2305(5) 0.8449(6)
C1A C 0.1244(4) 0.2595(7) 0.8000(8)
H3A H 0.1164 0.2263 0.7225
C2A C 0.1772(3) 0.3359(6) 0.8618(7)
C3A C 0.1874(4) 0.3858(7) 0.9776(8)
H4A H 0.2224 0.4371 1.0234
C4A C 0.1456(4) 0.3586(7) 1.0229(7)
H5A H 0.1515 0.3921 1.0988
C5A C 0.0937(4) 0.2794(6) 0.9530(6)
C6A C 0.2196(4) 0.2938(8) 0.7118(8)
H6A H 0.1870 0.2372 0.6720
C7A C 0.2224(4) 0.3597(7) 0.8120(7)
C8A C 0.2712(4) 0.4440(7) 0.8664(8)
H7A H 0.2735 0.4907 0.9322
C9A C 0.3163(4) 0.4611(7) 0.8264(8)
H8A H 0.3487 0.5180 0.8657
C10A C 0.3135(3) 0.3936(6) 0.7275(7)
C11A C 0.2643(4) 0.3110(8) 0.6703(8)
H9A H 0.2612 0.2661 0.6026
C12A C 0.3623(4) 0.4112(7) 0.6834(7)
C13A C 0.0465(4) 0.2432(6) 0.9970(7)
Ho1B Ho 0.0000 0.06370(4) 0.7500
Ho1B_2 Ho 1.0000 0.06370(4) 0.7500
O3B O 0.4915(2) 0.6587(4) 0.5653(4)
O3C O 0.5085(2) 0.6587(4) 0.9347(4)
N1B N 0.4158(3) 0.7305(5) 0.6551(6)
N1C N 0.5842(3) 0.7305(5) 0.8449(6)
N2 N 1.0000 0.6664(8) 0.7500
H10 H 0.9879 0.7125 0.7954
C14 C 0.9428(5) 0.5940(9) 0.6592(10)
H11 H 0.9529 0.5554 0.5999
H12 H 0.9046 0.6428 0.6118
H13 H 0.9338 0.5369 0.7070
H10A H 1.0121 0.7125 0.7046
C14A C 1.0572(5) 0.5940(9) 0.8408(10)
H11A H 1.0471 0.5554 0.9001
H12A H 1.0954 0.6428 0.8882
H13A H 1.0662 0.5369 0.7930
H14? H 0.9879 0.7125 0.7954
loop_
_geom_bond_atom_site_label_1
_geom_bond_atom_site_label_2
_geom_bond_site_symmetry_1
_geom_bond_site_symmetry_2
Ho1 O2 1_555 1_555
O1 C12 1_555 1_555
O2 C12 1_555 1_555
O3 C13 1_555 1_555
O4 C13 1_555 1_555
O5 Ho1 1_555 1_555
H1 O5 1_555 1_555
H2 O5 1_555 1_555
N1 C1 1_555 1_555
C1 H3 1_555 1_555
C2 C1 1_555 1_555
C3 C2 1_555 1_555
H4 C3 1_555 1_555
C4 C3 1_555 1_555
H5 C4 1_555 1_555
C5 N1 1_555 1_555
C6 H6 1_555 1_555
C7 C2 1_555 1_555
C8 C7 1_555 1_555
H7 C8 1_555 1_555
C9 C8 1_555 1_555
H8 C9 1_555 1_555
C10 C9 1_555 1_555
C11 C6 1_555 1_555
H9 C11 1_555 1_555
C12 C10 1_555 1_555
C13 C5 1_555 1_555
N2 H10 1_555 1_555
C14 N2 1_555 1_555
H11 C14 1_555 1_555
H12 C14 1_555 1_555
H13 C14 1_555 1_555
O1A C12A 1_555 1_555
O2A Ho1 1_555 1_555
O3A C13A 1_555 1_555
O4A C13A 1_555 1_555
O5A Ho1 1_555 1_555
H1A O5A 1_555 1_555
H2A O5A 1_555 1_555
N1A C1A 1_555 1_555
C1A H3A 1_555 1_555
C2A C1A 1_555 1_555
C3A C2A 1_555 1_555
H4A C3A 1_555 1_555
C4A C3A 1_555 1_555
H5A C4A 1_555 1_555
C5A N1A 1_555 1_555
C6A H6A 1_555 1_555
C7A C2A 1_555 1_555
C8A C7A 1_555 1_555
H7A C8A 1_555 1_555
C9A C8A 1_555 1_555
H8A C9A 1_555 1_555
C10A C9A 1_555 1_555
C11A C6A 1_555 1_555
H9A C11A 1_555 1_555
C12A O2A 1_555 1_555
C13A C5A 1_555 1_555
Ho1B O3A 1_555 1_555
Ho1B_2 O3 1_555 1_555
O3B Ho1 1_555 1_555
O3C Ho1 1_555 1_555
N1B Ho1 1_555 1_555
N1C Ho1 1_555 1_555
H10A N2 1_555 1_555
C14A N2 1_555 1_555
H11A C14A 1_555 1_555
H12A C14A 1_555 1_555
H13A C14A 1_555 1_555
N1 Ho1B_2 1_555 1_555
C4 C5 1_555 1_555
C6 C7 1_555 1_555
C10 C11 1_555 1_555
N1A Ho1B 1_555 1_555
C4A C5A 1_555 1_555
C6A C7A 1_555 1_555
C10A C11A 1_555 1_555
C10A C12A 1_555 1_555

#END
