
#######################################################################
#
#                 Cambridge Crystallographic Data Centre
#                                CCDC 
#
#######################################################################
#
# If this CIF has been generated from an entry in the Cambridge 
# Structural Database, then it will include bibliographic, chemical, 
# crystal, experimental, refinement or atomic coordinate data resulting 
# from the CCDC's data processing and validation procedures.
#
#######################################################################

data_TOHVAP
_symmetry_cell_setting           orthorhombic
_symmetry_space_group_name_H-M   'P 21 21 2'
_symmetry_Int_Tables_number      18
_space_group_name_Hall           'P 2 2ab'
loop_
_symmetry_equiv_pos_site_id
_symmetry_equiv_pos_as_xyz
1 x,y,z
2 -x,-y,z
3 1/2-x,1/2+y,-z
4 1/2+x,1/2-y,-z
_cell_length_a                   20.9357(8)
_cell_length_b                   26.7045(11)
_cell_length_c                   12.3348(5)
_cell_angle_alpha                90
_cell_angle_beta                 90
_cell_angle_gamma                90
_cell_volume                     6896.11
loop_
_atom_site_label
_atom_site_type_symbol
_atom_site_fract_x
_atom_site_fract_y
_atom_site_fract_z
Zn1 Zn -0.50403(5) 0.22133(4) -0.62013(7)
Zn2 Zn 0.0000 0.5000 0.07853(11)
Zn3 Zn 0.5000 0.5000 0.83042(13)
N1 N 0.4433(4) 0.5413(4) 0.9268(7)
N2 N 0.4012(4) 0.5800(4) 1.0652(7)
N3 N -0.0703(3) 0.4732(3) -0.0130(6)
N4 N -0.1242(4) 0.4297(3) -0.1323(7)
N5 N -0.4440(3) 0.2611(3) -0.5248(7)
N6 N -0.4039(3) 0.3152(3) -0.4129(6)
N7 N 0.0711(3) 0.6904(3) 1.5270(6)
N8 N 0.1233(4) 0.6654(4) 1.3856(7)
C1 C -0.0748(5) 0.2368(4) -1.2142(10)
C2 C -0.1129(4) 0.1976(3) -1.1581(9)
C3 C -0.1330(4) 0.2051(4) -1.0517(8)
H1 H -0.1224 0.2346 -1.0156
C4 C -0.1677(4) 0.1696(4) -1.0013(8)
H2 H -0.1798 0.1747 -0.9296
C5 C -0.1862(4) 0.1255(3) -1.0528(8)
C6 C -0.1663(4) 0.1179(3) -1.1568(9)
H3 H -0.1776 0.0885 -1.1922
C7 C -0.1297(4) 0.1529(3) -1.2107(8)
H4 H -0.1163 0.1469 -1.2814
C8 C -0.2234(4) 0.0869(4) -0.9922(8)
C9 C -0.2715(4) 0.1019(3) -0.9124(7)
C10 C -0.2814(4) 0.0751(3) -0.8176(8)
H5 H -0.2567 0.0469 -0.8035
C11 C -0.3261(5) 0.0892(4) -0.7459(8)
H6 H -0.3313 0.0706 -0.6827
C12 C -0.3650(4) 0.1305(3) -0.7628(7)
C13 C -0.3556(4) 0.1569(3) -0.8555(8)
H7 H -0.3815 0.1844 -0.8702
C14 C -0.3082(4) 0.1438(3) -0.9290(8)
H8 H -0.3014 0.1635 -0.9900
C15 C -0.4151(4) 0.1453(4) -0.6843(9)
C16 C -0.3787(4) 0.2529(3) -0.5155(9)
H9 H -0.3557 0.2282 -0.5515
C17 C -0.3547(4) 0.2856(4) -0.4481(8)
H10 H -0.3121 0.2883 -0.4276
C18 C -0.4566(4) 0.2977(4) -0.4591(9)
C19 C -0.5203(5) 0.3209(5) -0.4447(12)
H11 H -0.5520 0.3009 -0.4805
H12 H -0.5201 0.3539 -0.4755
H13 H -0.5301 0.3230 -0.3688
C20 C -0.3998(5) 0.3574(4) -0.3350(10)
H14 H -0.4165 0.3875 -0.3687
H15 H -0.4260 0.3500 -0.2721
C21 C -0.3335(5) 0.3666(4) -0.2996(9)
C22 C -0.2974(6) 0.4010(4) -0.3571(8)
C23 C -0.2363(6) 0.4130(4) -0.3266(8)
C24 C -0.2090(5) 0.3870(4) -0.2429(9)
C25 C -0.2429(5) 0.3524(4) -0.1786(8)
C26 C -0.3074(4) 0.3417(3) -0.2104(8)
C27 C -0.3447(6) 0.3042(4) -0.1495(10)
H16 H -0.3165 0.2851 -0.1040
H17 H -0.3659 0.2822 -0.1994
H18 H -0.3759 0.3209 -0.1054
C28 C -0.2144(6) 0.3278(5) -0.0847(10)
H19 H -0.2104 0.2926 -0.0988
H20 H -0.2412 0.3328 -0.0224
H21 H -0.1729 0.3418 -0.0711
C29 C -0.2006(8) 0.4549(5) -0.3856(12)
H22 H -0.1571 0.4558 -0.3611
H23 H -0.2208 0.4864 -0.3703
H24 H -0.2016 0.4488 -0.4622
C30 C -0.3278(8) 0.4269(6) -0.4606(11)
H25 H -0.3367 0.4019 -0.5145
H26 H -0.2983 0.4510 -0.4896
H27 H -0.3667 0.4434 -0.4406
C31 C -0.1379(5) 0.3947(5) -0.2207(10)
H28 H -0.1189 0.3625 -0.2034
H29 H -0.1177 0.4069 -0.2863
C32 C -0.1683(4) 0.4571(4) -0.0720(9)
H30 H -0.2125 0.4573 -0.0810
C33 C -0.1349(4) 0.4830(3) 0.0014(8)
H31 H -0.1521 0.5041 0.0537
C34 C -0.0664(4) 0.4402(4) -0.0925(8)
C35 C -0.0065(5) 0.4186(4) -0.1395(8)
H32 H 0.0299 0.4349 -0.1081
H33 H -0.0063 0.4235 -0.2166
H34 H -0.0047 0.3834 -0.1239
C36 C 0.0620(6) 0.4119(6) 0.1634(9)
C37 C 0.1121(5) 0.3933(4) 0.2347(9)
C38 C 0.1318(5) 0.4174(4) 0.3252(9)
H35 H 0.1135 0.4481 0.3421
C39 C 0.1787(4) 0.3977(4) 0.3950(9)
H36 H 0.1900 0.4148 0.4579
C40 C 0.2074(5) 0.3535(4) 0.3693(12)
C41 C 0.1859(6) 0.3285(5) 0.2730(13)
H37 H 0.2055 0.2986 0.2537
C42 C 0.1392(7) 0.3459(5) 0.2100(12)
H38 H 0.1246 0.3274 0.1511
C43 C 0.2539(6) 0.3319(4) 0.4331(13)
C44 C 0.2946(3) 0.3588(3) 0.5045(6)
C45 C 0.3078(4) 0.3335(3) 0.6003(8)
H39 H 0.2915 0.3015 0.6116
C46 C 0.3454(4) 0.3560(4) 0.6794(6)
H40 H 0.3543 0.3390 0.7436
C47 C 0.3698(3) 0.4038(4) 0.6627(6)
C48 C 0.3566(4) 0.4291(2) 0.5668(7)
H41 H 0.3729 0.4611 0.5556
C49 C 0.3190(4) 0.4066(3) 0.4877(6)
H42 H 0.3101 0.4236 0.4236
C50 C 0.4128(9) 0.4301(8) 0.7466(16)
C51 C 0.3802(5) 0.5466(3) 0.9103(8)
H43 H 0.3578 0.5356 0.8497
C52 C 0.3551(5) 0.5703(4) 0.9956(9)
H44 H 0.3122 0.5787 1.0044
C53 C 0.4563(6) 0.5643(5) 1.0174(10)
C54 C 0.5204(6) 0.5688(7) 1.0666(12)
H45 H 0.5518 0.5561 1.0171
H46 H 0.5217 0.5499 1.1327
H47 H 0.5292 0.6034 1.0820
C55 C 0.3970(6) 0.6014(6) 1.1802(11)
H48 H 0.4125 0.5769 1.2319
H49 H 0.4234 0.6311 1.1858
C56 C 0.3297(5) 0.6142(5) 1.2052(9)
C57 C 0.2905(7) 0.5765(4) 1.2371(9)
C58 C 0.2263(7) 0.5878(5) 1.2623(9)
C59 C 0.2066(5) 0.6361(5) 1.2512(8)
C60 C 0.2467(6) 0.6733(3) 1.2212(8)
C61 C 0.3099(5) 0.6625(4) 1.2003(8)
C62 C 0.3155(8) 0.5235(4) 1.2508(14)
H50 H 0.3312 0.5114 1.1825
H51 H 0.2815 0.5022 1.2754
H52 H 0.3494 0.5233 1.3031
C63 C 0.1785(8) 0.5493(6) 1.2982(16)
H53 H 0.1475 0.5647 1.3448
H54 H 0.2000 0.5230 1.3368
H55 H 0.1574 0.5355 1.2358
C64 C 0.2228(8) 0.7283(4) 1.2101(13)
H56 H 0.2359 0.7472 1.2724
H57 H 0.1771 0.7286 1.2051
H58 H 0.2407 0.7430 1.1459
C65 C 0.3545(8) 0.7051(5) 1.1656(12)
H59 H 0.3297 0.7319 1.1354
H60 H 0.3840 0.6929 1.1121
H61 H 0.3777 0.7171 1.2275
C66 C 0.1348(6) 0.6491(6) 1.2737(12)
H62 H 0.1216 0.6755 1.2246
H63 H 0.1088 0.6199 1.2587
C67 C 0.1674(5) 0.6763(5) 1.4644(9)
H64 H 0.2116 0.6732 1.4586
C68 C 0.1355(4) 0.6919(4) 1.5493(8)
H65 H 0.1536 0.7024 1.6143
C69 C 0.0664(5) 0.6733(4) 1.4281(8)
C70 C 0.0038(6) 0.6650(5) 1.3706(9)
H66 H -0.0293 0.6595 1.4231
H67 H 0.0072 0.6362 1.3243
H68 H -0.0064 0.6939 1.3277
O1 O -0.4245(4) 0.1231(3) -0.6009(7)
O2 O -0.4452(3) 0.1864(3) -0.7104(6)
O3 O -0.0713(4) 0.2791(3) -1.1773(8)
O4 O -0.0496(3) 0.2248(3) -1.3017(6)
O5 O -0.2154(4) 0.0427(3) -1.0140(7)
O6 O 0.0350(6) 0.3869(4) 0.0986(8)
O7 O 0.0493(4) 0.4585(4) 0.1769(6)
O8 O 0.4373(5) 0.4702(4) 0.7218(10)
O9 O 0.4268(9) 0.3979(7) 0.8277(12)
O10 O 0.2649(5) 0.2854(4) 0.4198(10)
Zn1A Zn 0.50403(5) 0.77867(4) -0.62013(7)
N3A N 0.0703(3) 0.5268(3) -0.0130(6)
N4A N 0.1242(4) 0.5703(3) -0.1323(7)
N5A N 0.4440(3) 0.7389(3) -0.5248(7)
N6A N 0.4039(3) 0.6848(3) -0.4129(6)
C1A C 0.0748(5) 0.7632(4) -1.2142(10)
C2A C 0.1129(4) 0.8024(3) -1.1581(9)
C3A C 0.1330(4) 0.7949(4) -1.0517(8)
H1A H 0.1224 0.7654 -1.0156
C4A C 0.1677(4) 0.8304(4) -1.0013(8)
H2A H 0.1798 0.8253 -0.9296
C5A C 0.1862(4) 0.8745(3) -1.0528(8)
C6A C 0.1663(4) 0.8821(3) -1.1568(9)
H3A H 0.1776 0.9115 -1.1922
C7A C 0.1297(4) 0.8471(3) -1.2107(8)
H4A H 0.1163 0.8531 -1.2814
C8A C 0.2234(4) 0.9131(4) -0.9922(8)
C9A C 0.2715(4) 0.8981(3) -0.9124(7)
C10A C 0.2814(4) 0.9249(3) -0.8176(8)
H5A H 0.2567 0.9531 -0.8035
C11A C 0.3261(5) 0.9108(4) -0.7459(8)
H6A H 0.3313 0.9294 -0.6827
C12A C 0.3650(4) 0.8695(3) -0.7628(7)
C13A C 0.3556(4) 0.8431(3) -0.8555(8)
H7A H 0.3815 0.8156 -0.8702
C14A C 0.3082(4) 0.8562(3) -0.9290(8)
H8A H 0.3014 0.8365 -0.9900
C15A C 0.4151(4) 0.8547(4) -0.6843(9)
C16A C 0.3787(4) 0.7471(3) -0.5155(9)
H9A H 0.3557 0.7718 -0.5515
C17A C 0.3547(4) 0.7144(4) -0.4481(8)
H10A H 0.3121 0.7117 -0.4276
C18A C 0.4566(4) 0.7023(4) -0.4591(9)
C19A C 0.5203(5) 0.6791(5) -0.4447(12)
H11A H 0.5520 0.6991 -0.4805
H12A H 0.5201 0.6461 -0.4755
H13A H 0.5301 0.6770 -0.3688
C20A C 0.3998(5) 0.6426(4) -0.3350(10)
H14A H 0.4165 0.6125 -0.3687
H15A H 0.4260 0.6500 -0.2721
C21A C 0.3335(5) 0.6334(4) -0.2996(9)
C22A C 0.2974(6) 0.5990(4) -0.3571(8)
C23A C 0.2363(6) 0.5870(4) -0.3266(8)
C24A C 0.2090(5) 0.6130(4) -0.2429(9)
C25A C 0.2429(5) 0.6476(4) -0.1786(8)
C26A C 0.3074(4) 0.6583(3) -0.2104(8)
C27A C 0.3447(6) 0.6958(4) -0.1495(10)
H16A H 0.3165 0.7149 -0.1040
H17A H 0.3659 0.7178 -0.1994
H18A H 0.3759 0.6791 -0.1054
C28A C 0.2144(6) 0.6722(5) -0.0847(10)
H19A H 0.2104 0.7074 -0.0988
H20A H 0.2412 0.6672 -0.0224
H21A H 0.1729 0.6582 -0.0711
C29A C 0.2006(8) 0.5451(5) -0.3856(12)
H22A H 0.1571 0.5442 -0.3611
H23A H 0.2208 0.5136 -0.3703
H24A H 0.2016 0.5512 -0.4622
C30A C 0.3278(8) 0.5731(6) -0.4606(11)
H25A H 0.3367 0.5981 -0.5145
H26A H 0.2983 0.5490 -0.4896
H27A H 0.3667 0.5566 -0.4406
C31A C 0.1379(5) 0.6053(5) -0.2207(10)
H28A H 0.1189 0.6375 -0.2034
H29A H 0.1177 0.5931 -0.2863
C32A C 0.1683(4) 0.5429(4) -0.0720(9)
H30A H 0.2125 0.5427 -0.0810
C33A C 0.1349(4) 0.5170(3) 0.0014(8)
H31A H 0.1521 0.4959 0.0537
C34A C 0.0664(4) 0.5598(4) -0.0925(8)
C35A C 0.0065(5) 0.5814(4) -0.1395(8)
H32A H -0.0299 0.5651 -0.1081
H33A H 0.0063 0.5765 -0.2166
H34A H 0.0047 0.6166 -0.1239
C36A C -0.0620(6) 0.5881(6) 0.1634(9)
C37A C -0.1121(5) 0.6067(4) 0.2347(9)
C38A C -0.1318(5) 0.5826(4) 0.3252(9)
H35A H -0.1135 0.5519 0.3421
C39A C -0.1787(4) 0.6023(4) 0.3950(9)
H36A H -0.1900 0.5852 0.4579
C40A C -0.2074(5) 0.6465(4) 0.3693(12)
C41A C -0.1859(6) 0.6715(5) 0.2730(13)
H37A H -0.2055 0.7014 0.2537
C42A C -0.1392(7) 0.6541(5) 0.2100(12)
H38A H -0.1246 0.6726 0.1511
C43A C -0.2539(6) 0.6681(4) 0.4331(13)
C44A C -0.2946(3) 0.6412(3) 0.5045(6)
C45A C -0.3078(4) 0.6665(3) 0.6003(8)
H39A H -0.2915 0.6985 0.6116
C46A C -0.3454(4) 0.6440(4) 0.6794(6)
H40A H -0.3543 0.6610 0.7436
C47A C -0.3698(3) 0.5962(4) 0.6627(6)
C48A C -0.3566(4) 0.5709(2) 0.5668(7)
H41A H -0.3729 0.5389 0.5556
C49A C -0.3190(4) 0.5934(3) 0.4877(6)
H42A H -0.3101 0.5764 0.4236
C50A C -0.4128(9) 0.5699(8) 0.7466(16)
O1A O 0.4245(4) 0.8769(3) -0.6009(7)
O2A O 0.4452(3) 0.8136(3) -0.7104(6)
O3A O 0.0713(4) 0.7209(3) -1.1773(8)
O4A O 0.0496(3) 0.7752(3) -1.3017(6)
O5A O 0.2154(4) 0.9573(3) -1.0140(7)
O6A O -0.0350(6) 0.6131(4) 0.0986(8)
O7A O -0.0493(4) 0.5415(4) 0.1769(6)
O8A O -0.4373(5) 0.5298(4) 0.7218(10)
O9A O -0.4268(9) 0.6021(7) 0.8277(12)
O10A O -0.2649(5) 0.7146(4) 0.4198(10)
N1B N -0.9433(4) 0.0413(4) 0.0732(7)
N2B N -0.9012(4) 0.0800(4) -0.0652(7)
N7B N -0.5711(3) 0.1904(3) -0.5270(6)
N8B N -0.6233(4) 0.1654(4) -0.3856(7)
C51B C -0.8802(5) 0.0466(3) 0.0897(8)
H43B H -0.8578 0.0356 0.1503
C52B C -0.8551(5) 0.0703(4) 0.0044(9)
H44B H -0.8122 0.0787 -0.0044
C53B C -0.9563(6) 0.0643(5) -0.0174(10)
C54B C -1.0204(6) 0.0688(7) -0.0666(12)
H45B H -1.0518 0.0561 -0.0171
H46B H -1.0217 0.0499 -0.1327
H47B H -1.0292 0.1034 -0.0820
C55B C -0.8970(6) 0.1014(6) -0.1802(11)
H48B H -0.9125 0.0769 -0.2319
H49B H -0.9234 0.1311 -0.1858
C56B C -0.8297(5) 0.1142(5) -0.2052(9)
C57B C -0.7905(7) 0.0765(4) -0.2371(9)
C58B C -0.7263(7) 0.0878(5) -0.2623(9)
C59B C -0.7066(5) 0.1361(5) -0.2512(8)
C60B C -0.7467(6) 0.1733(3) -0.2212(8)
C61B C -0.8099(5) 0.1625(4) -0.2003(8)
C62B C -0.8155(8) 0.0235(4) -0.2508(14)
H50B H -0.8312 0.0114 -0.1825
H51B H -0.7815 0.0022 -0.2754
H52B H -0.8494 0.0233 -0.3031
C63B C -0.6785(8) 0.0493(6) -0.2982(16)
H53B H -0.6475 0.0647 -0.3448
H54B H -0.7000 0.0230 -0.3368
H55B H -0.6574 0.0355 -0.2358
C64B C -0.7228(8) 0.2283(4) -0.2101(13)
H56B H -0.7359 0.2472 -0.2724
H57B H -0.6771 0.2286 -0.2051
H58B H -0.7407 0.2430 -0.1459
C65B C -0.8545(8) 0.2051(5) -0.1656(12)
H59B H -0.8297 0.2319 -0.1354
H60B H -0.8840 0.1929 -0.1121
H61B H -0.8777 0.2171 -0.2275
C66B C -0.6348(6) 0.1491(6) -0.2737(12)
H62B H -0.6216 0.1755 -0.2246
H63B H -0.6088 0.1199 -0.2587
C67B C -0.6674(5) 0.1763(5) -0.4644(9)
H64B H -0.7116 0.1732 -0.4586
C68B C -0.6355(4) 0.1919(4) -0.5493(8)
H65B H -0.6536 0.2024 -0.6143
C69B C -0.5664(5) 0.1733(4) -0.4281(8)
C70B C -0.5038(6) 0.1650(5) -0.3706(9)
H66B H -0.4707 0.1595 -0.4231
H67B H -0.5072 0.1362 -0.3243
H68B H -0.4936 0.1939 -0.3277
Zn1B Zn 0.00403(5) 0.72133(4) -1.37987(7)
Zn1B_2 Zn 0.00403(5) 0.72133(4) 1.62013(7)
Zn1C Zn -0.00403(5) 0.27867(4) -1.37987(7)
Zn3_2 Zn -0.5000 0.5000 0.83042(13)
Zn3B Zn -1.0000 0.0000 0.16958(13)
N1A N 0.5567(4) 0.4587(4) 0.9268(7)
N7C N 0.5711(3) 0.8096(3) -0.5270(6)
O4B O 0.5496(3) 0.7248(3) -0.6983(6)
O4C O -0.5496(3) 0.2752(3) -0.6983(6)
O8A_2 O 0.5627(5) 0.5298(4) 0.7218(10)
O11 O 0.5194(7) 0.7945(5) 0.9589(11)
H69 H 0.5385 0.7918 1.0213
H70 H 0.5066 0.8243 0.9460
loop_
_geom_bond_atom_site_label_1
_geom_bond_atom_site_label_2
_geom_bond_site_symmetry_1
_geom_bond_site_symmetry_2
Zn1 N5 1_555 1_555
Zn2 N3 1_555 1_555
Zn3 N1 1_555 1_555
N1 C51 1_555 1_555
N2 C52 1_555 1_555
N3 C33 1_555 1_555
N4 C31 1_555 1_555
N5 C16 1_555 1_555
N6 C17 1_555 1_555
N7 C68 1_555 1_555
N8 C66 1_555 1_555
C1 C2 1_555 1_555
C2 C3 1_555 1_555
C3 H1 1_555 1_555
C4 C3 1_555 1_555
H2 C4 1_555 1_555
C5 C4 1_555 1_555
C6 C5 1_555 1_555
H3 C6 1_555 1_555
C7 C2 1_555 1_555
H4 C7 1_555 1_555
C8 C5 1_555 1_555
C9 C8 1_555 1_555
C10 C9 1_555 1_555
H5 C10 1_555 1_555
C11 C10 1_555 1_555
H6 C11 1_555 1_555
C12 C11 1_555 1_555
C13 C12 1_555 1_555
H7 C13 1_555 1_555
C14 C9 1_555 1_555
H8 C14 1_555 1_555
C15 C12 1_555 1_555
C16 H9 1_555 1_555
C17 C16 1_555 1_555
H10 C17 1_555 1_555
C18 N5 1_555 1_555
C19 C18 1_555 1_555
H11 C19 1_555 1_555
H12 C19 1_555 1_555
H13 C19 1_555 1_555
C20 N6 1_555 1_555
H14 C20 1_555 1_555
H15 C20 1_555 1_555
C21 C20 1_555 1_555
C22 C21 1_555 1_555
C23 C22 1_555 1_555
C24 C23 1_555 1_555
C25 C24 1_555 1_555
C26 C21 1_555 1_555
C27 C26 1_555 1_555
H16 C27 1_555 1_555
H17 C27 1_555 1_555
H18 C27 1_555 1_555
C28 C25 1_555 1_555
H19 C28 1_555 1_555
H20 C28 1_555 1_555
H21 C28 1_555 1_555
C29 C23 1_555 1_555
H22 C29 1_555 1_555
H23 C29 1_555 1_555
H24 C29 1_555 1_555
C30 C22 1_555 1_555
H25 C30 1_555 1_555
H26 C30 1_555 1_555
H27 C30 1_555 1_555
C31 C24 1_555 1_555
H28 C31 1_555 1_555
H29 C31 1_555 1_555
C32 N4 1_555 1_555
H30 C32 1_555 1_555
C33 C32 1_555 1_555
H31 C33 1_555 1_555
C34 N3 1_555 1_555
C35 C34 1_555 1_555
H32 C35 1_555 1_555
H33 C35 1_555 1_555
H34 C35 1_555 1_555
C36 C37 1_555 1_555
C37 C38 1_555 1_555
C38 H35 1_555 1_555
C39 C38 1_555 1_555
H36 C39 1_555 1_555
C40 C39 1_555 1_555
C41 C40 1_555 1_555
H37 C41 1_555 1_555
C42 C37 1_555 1_555
H38 C42 1_555 1_555
C43 C40 1_555 1_555
C44 C43 1_555 1_555
C45 C44 1_555 1_555
H39 C45 1_555 1_555
C46 C45 1_555 1_555
H40 C46 1_555 1_555
C47 C46 1_555 1_555
C48 C47 1_555 1_555
H41 C48 1_555 1_555
C49 C44 1_555 1_555
H42 C49 1_555 1_555
C50 C47 1_555 1_555
C51 H43 1_555 1_555
C52 C51 1_555 1_555
H44 C52 1_555 1_555
C53 N1 1_555 1_555
C54 C53 1_555 1_555
H45 C54 1_555 1_555
H46 C54 1_555 1_555
H47 C54 1_555 1_555
C55 N2 1_555 1_555
H48 C55 1_555 1_555
H49 C55 1_555 1_555
C56 C55 1_555 1_555
C57 C56 1_555 1_555
C58 C57 1_555 1_555
C59 C58 1_555 1_555
C60 C59 1_555 1_555
C61 C56 1_555 1_555
C62 C57 1_555 1_555
H50 C62 1_555 1_555
H51 C62 1_555 1_555
H52 C62 1_555 1_555
C63 C58 1_555 1_555
H53 C63 1_555 1_555
H54 C63 1_555 1_555
H55 C63 1_555 1_555
C64 C60 1_555 1_555
H56 C64 1_555 1_555
H57 C64 1_555 1_555
H58 C64 1_555 1_555
C65 C61 1_555 1_555
H59 C65 1_555 1_555
H60 C65 1_555 1_555
H61 C65 1_555 1_555
C66 C59 1_555 1_555
H62 C66 1_555 1_555
H63 C66 1_555 1_555
C67 N8 1_555 1_555
H64 C67 1_555 1_555
C68 C67 1_555 1_555
H65 C68 1_555 1_555
C69 N7 1_555 1_555
C70 C69 1_555 1_555
H66 C70 1_555 1_555
H67 C70 1_555 1_555
H68 C70 1_555 1_555
O1 C15 1_555 1_555
O2 Zn1 1_555 1_555
O3 C1 1_555 1_555
O4 C1 1_555 1_555
O5 C8 1_555 1_555
O6 C36 1_555 1_555
O7 Zn2 1_555 1_555
O8 Zn3 1_555 1_555
O9 C50 1_555 1_555
O10 C43 1_555 1_555
O11 H69 1_555 1_555
H70 O11 1_555 1_555
Zn1A N5A 1_555 1_555
N3A Zn2 1_555 1_555
N4A C31A 1_555 1_555
N5A C16A 1_555 1_555
N6A C17A 1_555 1_555
C1A C2A 1_555 1_555
C2A C3A 1_555 1_555
C3A H1A 1_555 1_555
C4A C3A 1_555 1_555
H2A C4A 1_555 1_555
C5A C4A 1_555 1_555
C6A C5A 1_555 1_555
H3A C6A 1_555 1_555
C7A C2A 1_555 1_555
H4A C7A 1_555 1_555
C8A C5A 1_555 1_555
C9A C8A 1_555 1_555
C10A C9A 1_555 1_555
H5A C10A 1_555 1_555
C11A C10A 1_555 1_555
H6A C11A 1_555 1_555
C12A C11A 1_555 1_555
C13A C12A 1_555 1_555
H7A C13A 1_555 1_555
C14A C9A 1_555 1_555
H8A C14A 1_555 1_555
C15A C12A 1_555 1_555
C16A H9A 1_555 1_555
C17A C16A 1_555 1_555
H10A C17A 1_555 1_555
C18A N5A 1_555 1_555
C19A C18A 1_555 1_555
H11A C19A 1_555 1_555
H12A C19A 1_555 1_555
H13A C19A 1_555 1_555
C20A N6A 1_555 1_555
H14A C20A 1_555 1_555
H15A C20A 1_555 1_555
C21A C20A 1_555 1_555
C22A C21A 1_555 1_555
C23A C22A 1_555 1_555
C24A C23A 1_555 1_555
C25A C24A 1_555 1_555
C26A C21A 1_555 1_555
C27A C26A 1_555 1_555
H16A C27A 1_555 1_555
H17A C27A 1_555 1_555
H18A C27A 1_555 1_555
C28A C25A 1_555 1_555
H19A C28A 1_555 1_555
H20A C28A 1_555 1_555
H21A C28A 1_555 1_555
C29A C23A 1_555 1_555
H22A C29A 1_555 1_555
H23A C29A 1_555 1_555
H24A C29A 1_555 1_555
C30A C22A 1_555 1_555
H25A C30A 1_555 1_555
H26A C30A 1_555 1_555
H27A C30A 1_555 1_555
C31A C24A 1_555 1_555
H28A C31A 1_555 1_555
H29A C31A 1_555 1_555
C32A N4A 1_555 1_555
H30A C32A 1_555 1_555
C33A N3A 1_555 1_555
H31A C33A 1_555 1_555
C34A N3A 1_555 1_555
C35A C34A 1_555 1_555
H32A C35A 1_555 1_555
H33A C35A 1_555 1_555
H34A C35A 1_555 1_555
C36A C37A 1_555 1_555
C37A C38A 1_555 1_555
C38A H35A 1_555 1_555
C39A C38A 1_555 1_555
H36A C39A 1_555 1_555
C40A C39A 1_555 1_555
C41A C40A 1_555 1_555
H37A C41A 1_555 1_555
C42A C37A 1_555 1_555
H38A C42A 1_555 1_555
C43A C40A 1_555 1_555
C44A C43A 1_555 1_555
C45A C44A 1_555 1_555
H39A C45A 1_555 1_555
C46A C45A 1_555 1_555
H40A C46A 1_555 1_555
C47A C46A 1_555 1_555
C48A C47A 1_555 1_555
H41A C48A 1_555 1_555
C49A C44A 1_555 1_555
H42A C49A 1_555 1_555
C50A C47A 1_555 1_555
O1A C15A 1_555 1_555
O2A Zn1A 1_555 1_555
O3A C1A 1_555 1_555
O4A C1A 1_555 1_555
O5A C8A 1_555 1_555
O6A C36A 1_555 1_555
O7A Zn2 1_555 1_555
O8A C50A 1_555 1_555
O9A C50A 1_555 1_555
O10A C43A 1_555 1_555
N1B C51B 1_555 1_555
N2B C52B 1_555 1_555
N7B Zn1 1_555 1_555
N8B C66B 1_555 1_555
C51B H43B 1_555 1_555
C52B C51B 1_555 1_555
H44B C52B 1_555 1_555
C53B N1B 1_555 1_555
C54B C53B 1_555 1_555
H45B C54B 1_555 1_555
H46B C54B 1_555 1_555
H47B C54B 1_555 1_555
C55B N2B 1_555 1_555
H48B C55B 1_555 1_555
H49B C55B 1_555 1_555
C56B C55B 1_555 1_555
C57B C56B 1_555 1_555
C58B C57B 1_555 1_555
C59B C58B 1_555 1_555
C60B C59B 1_555 1_555
C61B C56B 1_555 1_555
C62B C57B 1_555 1_555
H50B C62B 1_555 1_555
H51B C62B 1_555 1_555
H52B C62B 1_555 1_555
C63B C58B 1_555 1_555
H53B C63B 1_555 1_555
H54B C63B 1_555 1_555
H55B C63B 1_555 1_555
C64B C60B 1_555 1_555
H56B C64B 1_555 1_555
H57B C64B 1_555 1_555
H58B C64B 1_555 1_555
C65B C61B 1_555 1_555
H59B C65B 1_555 1_555
H60B C65B 1_555 1_555
H61B C65B 1_555 1_555
C66B C59B 1_555 1_555
H62B C66B 1_555 1_555
H63B C66B 1_555 1_555
C67B N8B 1_555 1_555
H64B C67B 1_555 1_555
C68B N7B 1_555 1_555
H65B C68B 1_555 1_555
C69B N7B 1_555 1_555
C70B C69B 1_555 1_555
H66B C70B 1_555 1_555
H67B C70B 1_555 1_555
H68B C70B 1_555 1_555
Zn1B O4A 1_555 1_555
Zn1B_2 N7 1_555 1_555
Zn1C O4 1_555 1_555
Zn3_2 O8A 1_555 1_555
Zn3B N1B 1_555 1_555
N1A Zn3 1_555 1_555
N7C Zn1A 1_555 1_555
O4B Zn1A 1_555 1_555
O4C Zn1 1_555 1_555
O8A_2 Zn3 1_555 1_555
N2 C53 1_555 1_555
N4 C34 1_555 1_555
N6 C18 1_555 1_555
N8 C69 1_555 1_555
C6 C7 1_555 1_555
C13 C14 1_555 1_555
C15 O2 1_555 1_555
C25 C26 1_555 1_555
C36 O7 1_555 1_555
C41 C42 1_555 1_555
C48 C49 1_555 1_555
C50 O8 1_555 1_555
C60 C61 1_555 1_555
N4A C34A 1_555 1_555
N6A C18A 1_555 1_555
C6A C7A 1_555 1_555
C13A C14A 1_555 1_555
C15A O2A 1_555 1_555
C25A C26A 1_555 1_555
C32A C33A 1_555 1_555
C36A O7A 1_555 1_555
C41A C42A 1_555 1_555
C48A C49A 1_555 1_555
N2B C53B 1_555 1_555
N8B C69B 1_555 1_555
C60B C61B 1_555 1_555
C67B C68B 1_555 1_555

#END
