
#######################################################################
#
#                 Cambridge Crystallographic Data Centre
#                                CCDC 
#
#######################################################################
#
# If this CIF has been generated from an entry in the Cambridge 
# Structural Database, then it will include bibliographic, chemical, 
# crystal, experimental, refinement or atomic coordinate data resulting 
# from the CCDC's data processing and validation procedures.
#
#######################################################################

data_TOHWEU
_symmetry_cell_setting           monoclinic
_symmetry_space_group_name_H-M   'C 2/c'
_symmetry_Int_Tables_number      15
_space_group_name_Hall           '-C 2yn'
loop_
_symmetry_equiv_pos_site_id
_symmetry_equiv_pos_as_xyz
1 x,y,z
2 -x,y,1/2-z
3 1/2+x,1/2+y,z
4 1/2-x,1/2+y,1/2-z
5 -x,-y,-z
6 x,-y,1/2+z
7 1/2-x,1/2-y,-z
8 1/2+x,1/2-y,1/2+z
_cell_length_a                   23.700(5)
_cell_length_b                   11.490(2)
_cell_length_c                   11.984(2)
_cell_angle_alpha                90
_cell_angle_beta                 119.99(3)
_cell_angle_gamma                90
_cell_volume                     2826.47
loop_
_atom_site_label
_atom_site_type_symbol
_atom_site_fract_x
_atom_site_fract_y
_atom_site_fract_z
O1 O 0.0094(3) 0.1684(5) 0.0810(4)
C1 C 0.0484(4) 0.2506(7) 0.0975(7)
O2 O 0.4019(3) 0.4914(5) 1.0707(5)
C2 C 0.3618(4) 0.4087(7) 1.0399(7)
C3 C 0.3126(4) 0.3920(7) 0.8973(7)
C4 C 0.2640(5) 0.3099(9) 0.8575(8)
H1 H 0.2606 0.2648 0.9183
Pr1 Pr 0.0000 0.06421(5) 0.2500
C5 C 0.1473(4) 0.3626(8) 0.2690(7)
H2 H 0.1531 0.3976 0.2056
C6 C 0.1894(4) 0.3876(9) 0.3979(8)
H3 H 0.2245 0.4376 0.4215
O3 O 0.0400(3) -0.0903(5) 0.1678(5)
H4 H 0.0108 -0.1335 0.0964
H5 H 0.0844 -0.1060 0.2079
C7 C 0.2238(4) 0.3604(7) 0.6330(7)
C8 C 0.1271(4) 0.2611(8) 0.4500(7)
H6 H 0.1200 0.2251 0.5115
N1 N 0.0859(3) 0.2356(6) 0.3243(6)
O4 O 0.3569(3) 0.3419(6) 1.1187(5)
O5 O 0.0510(3) 0.3070(6) 0.0107(5)
C9 C 0.0965(4) 0.2851(7) 0.2354(6)
C10 C 0.1789(4) 0.3374(7) 0.4924(6)
C11 C 0.2721(4) 0.4436(8) 0.6754(8)
H7 H 0.2754 0.4902 0.6155
C12 C 0.3160(4) 0.4594(7) 0.8067(7)
H8 H 0.3480 0.5164 0.8328
C13 C 0.2195(5) 0.2937(10) 0.7258(8)
H9 H 0.1869 0.2380 0.7002
O1A O -0.0094(3) 0.1684(5) 0.4190(4)
C1A C -0.0484(4) 0.2506(7) 0.4025(7)
O2A O -0.4019(3) 0.4914(5) -0.5707(5)
C2A C -0.3618(4) 0.4087(7) -0.5399(7)
C3A C -0.3126(4) 0.3920(7) -0.3973(7)
C4A C -0.2640(5) 0.3099(9) -0.3575(8)
H1A H -0.2606 0.2648 -0.4183
C5A C -0.1473(4) 0.3626(8) 0.2310(7)
H2A H -0.1531 0.3976 0.2944
C6A C -0.1894(4) 0.3876(9) 0.1021(8)
H3A H -0.2245 0.4376 0.0785
O3A O -0.0400(3) -0.0903(5) 0.3322(5)
H4A H -0.0108 -0.1335 0.4036
H5A H -0.0844 -0.1060 0.2921
C7A C -0.2238(4) 0.3604(7) -0.1330(7)
C8A C -0.1271(4) 0.2611(8) 0.0500(7)
H6A H -0.1200 0.2251 -0.0115
N1A N -0.0859(3) 0.2356(6) 0.1757(6)
O4A O -0.3569(3) 0.3419(6) -0.6187(5)
O5A O -0.0510(3) 0.3070(6) 0.4893(5)
C9A C -0.0965(4) 0.2851(7) 0.2646(6)
C10A C -0.1789(4) 0.3374(7) 0.0076(6)
C11A C -0.2721(4) 0.4436(8) -0.1754(8)
H7A H -0.2754 0.4902 -0.1155
C12A C -0.3160(4) 0.4594(7) -0.3067(7)
H8A H -0.3480 0.5164 -0.3328
C13A C -0.2195(5) 0.2937(10) -0.2258(8)
H9A H -0.1869 0.2380 -0.2002
O2B O -0.0981(3) -0.0086(5) 0.0707(5)
O2C O 0.0981(3) -0.0086(5) 0.4293(5)
Pr1B Pr -0.5000 0.56421(5) -0.7500
Pr1B_2 Pr 0.5000 0.56421(5) 1.2500
N2 N 1.0000 0.6613(10) 0.2500
H10 H 1.0121 0.7075 0.3190
C14 C 0.9437(7) 0.5897(11) 0.2294(13)
H11 H 0.9283 0.5451 0.1518
H12 H 0.9095 0.6396 0.2220
H13 H 0.9568 0.5380 0.3012
H10A H 0.9879 0.7075 0.1810
C14A C 1.0563(7) 0.5897(11) 0.2706(13)
H11A H 1.0717 0.5451 0.3482
H12A H 1.0905 0.6396 0.2780
H13A H 1.0432 0.5380 0.1988
H14? H 1.0121 0.7075 0.3190
loop_
_geom_bond_atom_site_label_1
_geom_bond_atom_site_label_2
_geom_bond_site_symmetry_1
_geom_bond_site_symmetry_2
O1 C1 1_555 1_555
C1 O5 1_555 1_555
O2 C2 1_555 1_555
C2 C3 1_555 1_555
C3 C4 1_555 1_555
C4 H1 1_555 1_555
Pr1 O1 1_555 1_555
C5 H2 1_555 1_555
C6 C5 1_555 1_555
H3 C6 1_555 1_555
O3 Pr1 1_555 1_555
H4 O3 1_555 1_555
H5 O3 1_555 1_555
C7 C10 1_555 1_555
C8 H6 1_555 1_555
N1 Pr1 1_555 1_555
O4 C2 1_555 1_555
C9 C1 1_555 1_555
C10 C6 1_555 1_555
C11 C7 1_555 1_555
H7 C11 1_555 1_555
C12 C3 1_555 1_555
H8 C12 1_555 1_555
C13 C4 1_555 1_555
H9 C13 1_555 1_555
N2 H10 1_555 1_555
C14 N2 1_555 1_555
H11 C14 1_555 1_555
H12 C14 1_555 1_555
H13 C14 1_555 1_555
O1A Pr1 1_555 1_555
C1A O1A 1_555 1_555
O2A C2A 1_555 1_555
C2A C3A 1_555 1_555
C3A C4A 1_555 1_555
C4A H1A 1_555 1_555
C5A H2A 1_555 1_555
C6A C5A 1_555 1_555
H3A C6A 1_555 1_555
O3A Pr1 1_555 1_555
H4A O3A 1_555 1_555
H5A O3A 1_555 1_555
C7A C10A 1_555 1_555
C8A H6A 1_555 1_555
N1A Pr1 1_555 1_555
O4A C2A 1_555 1_555
O5A C1A 1_555 1_555
C9A C1A 1_555 1_555
C10A C6A 1_555 1_555
C11A C7A 1_555 1_555
H7A C11A 1_555 1_555
C12A C3A 1_555 1_555
H8A C12A 1_555 1_555
C13A C4A 1_555 1_555
H9A C13A 1_555 1_555
O2B Pr1 1_555 1_555
O2C Pr1 1_555 1_555
Pr1B O2A 1_555 1_555
Pr1B_2 O2 1_555 1_555
H10A N2 1_555 1_555
C14A N2 1_555 1_555
H11A C14A 1_555 1_555
H12A C14A 1_555 1_555
H13A C14A 1_555 1_555
C5 C9 1_555 1_555
C7 C13 1_555 1_555
C8 N1 1_555 1_555
C8 C10 1_555 1_555
N1 C9 1_555 1_555
C11 C12 1_555 1_555
C5A C9A 1_555 1_555
C7A C13A 1_555 1_555
C8A N1A 1_555 1_555
C8A C10A 1_555 1_555
N1A C9A 1_555 1_555
C11A C12A 1_555 1_555

#END
