
#######################################################################
#
#                 Cambridge Crystallographic Data Centre
#                                CCDC 
#
#######################################################################
#
# If this CIF has been generated from an entry in the Cambridge 
# Structural Database, then it will include bibliographic, chemical, 
# crystal, experimental, refinement or atomic coordinate data resulting 
# from the CCDC's data processing and validation procedures.
#
#######################################################################

data_TOHXUL
_symmetry_cell_setting           monoclinic
_symmetry_space_group_name_H-M   'P 21/c'
_symmetry_Int_Tables_number      14
_space_group_name_Hall           '-P 2ybc'
loop_
_symmetry_equiv_pos_site_id
_symmetry_equiv_pos_as_xyz
1 x,y,z
2 -x,1/2+y,1/2-z
3 -x,-y,-z
4 x,1/2-y,1/2+z
_cell_length_a                   10.273(3)
_cell_length_b                   14.745(4)
_cell_length_c                   28.119(7)
_cell_angle_alpha                90
_cell_angle_beta                 97.584(3)
_cell_angle_gamma                90
_cell_volume                     4222.08
loop_
_atom_site_label
_atom_site_type_symbol
_atom_site_fract_x
_atom_site_fract_y
_atom_site_fract_z
Gd1 Gd 0.59617(7) 0.63276(5) 0.08476(3)
S1 S 0.6954(4) 0.6416(3) 0.19575(14)
O1 O 0.4289(11) 0.5927(8) 0.1311(4)
O2 O 0.4111(11) 0.5617(8) 0.0352(4)
O3 O 0.8298(10) 0.6391(7) 0.0895(4)
O4 O 0.7520(11) 0.7743(7) 0.0759(4)
C1 C 0.9841(15) 0.7523(10) 0.0756(5)
O5 O 0.6619(11) 0.4821(8) 0.0651(4)
C2 C 0.7816(16) 0.1714(11) 0.0598(6)
O6 O 0.5734(11) 0.3814(8) 0.1088(4)
C3 C 0.7017(16) 0.2419(10) 0.0675(5)
H1 H 0.6168 0.2295 0.0737
C4 C 0.8476(15) 0.7206(10) 0.0810(5)
N1 N 0.9460(13) 0.2769(9) 0.0498(5)
O7 O 0.6426(12) 0.7149(8) 0.1628(4)
O8 O 0.8241(12) 0.6662(9) 0.2202(4)
C5 C 0.8710(16) 0.3498(11) 0.0565(6)
N2 N 0.0661(13) 0.6971(9) 0.1987(5)
O9 O 0.6986(11) 0.5612(8) 0.1649(4)
C6 C 0.7338(16) 0.0744(11) 0.0634(6)
C7 C 0.2657(16) 0.6413(11) 0.1776(6)
C8 C 0.7420(14) 0.3321(10) 0.0666(5)
C9 C 0.9117(16) 0.1896(11) 0.0528(6)
C10 C 1.0780(15) 0.6874(11) 0.0687(5)
H2 H 1.0543 0.6265 0.0668
C11 C 0.1393(16) 0.6228(12) 0.1884(6)
C12 C 1.0180(16) 0.8428(11) 0.0780(6)
H3 H 0.9555 0.8870 0.0817
C13 C 0.6536(16) 0.4055(11) 0.0813(6)
O10 O 0.6155(12) 0.0660(9) 0.0663(4)
O11 O 0.8098(13) 0.0098(9) 0.0669(5)
C14 C 0.2382(16) 0.8015(11) 0.1928(6)
C15 C 0.3126(16) 0.7264(11) 0.1813(6)
H4 H 0.3989 0.7363 0.1759
C16 C 0.1088(16) 0.7854(11) 0.2001(6)
O12 O 0.3308(11) 0.4867(8) 0.1695(4)
C17 C 0.3450(15) 0.5654(11) 0.1579(6)
Gd2 Gd 0.39851(7) 0.34198(5) 0.14984(3)
O13 O 0.5790(13) 0.4170(9) 0.2010(5)
O14 O 0.6057(11) 0.6253(8) 0.2314(4)
O15 O 0.3807(14) 0.3237(10) 0.2355(5)
C18 C 1.2405(15) 0.8019(11) 0.0686(6)
C19 C 1.1474(16) 0.8667(12) 0.0749(6)
H5 H 1.1718 0.9275 0.0771
C20 C 1.2038(16) 0.7115(11) 0.0646(6)
H6 H 1.2650 0.6675 0.0591
O16 O 1.4671(11) 0.7628(8) 0.0690(4)
C21 C 1.3819(15) 0.8260(11) 0.0686(6)
O17 O 1.4151(12) 0.9082(9) 0.0690(4)
O18 O 0.2479(11) 0.2002(8) 0.1685(4)
O19 O 0.1613(12) 0.3314(8) 0.1474(4)
C22 C 0.0162(16) 0.2208(11) 0.1723(6)
C23 C -0.0790(16) 0.2884(11) 0.1749(6)
H7 H -0.0566 0.3493 0.1730
C24 C -0.0159(16) 0.1318(11) 0.1763(6)
H8 H 0.0480 0.0874 0.1756
C25 C 0.1503(15) 0.2526(10) 0.1622(5)
C26 C -0.2398(15) 0.1741(11) 0.1825(6)
C27 C -0.2045(17) 0.2643(12) 0.1803(6)
H9 H -0.2671 0.3091 0.1825
C28 C -0.1444(17) 0.1070(12) 0.1816(6)
H10 H -0.1662 0.0462 0.1845
O20 O -0.4677(12) 0.2103(8) 0.1735(4)
C29 C -0.3822(15) 0.1500(11) 0.1834(6)
S2 S 0.3029(4) 0.3332(3) 0.03981(14)
O21 O 0.3578(11) 0.2602(8) 0.0723(4)
O22 O 0.3881(10) 0.3496(7) 0.0022(4)
O23 O 0.3038(11) 0.4141(8) 0.0718(4)
O24 O 0.1702(12) 0.3117(9) 0.0177(4)
Cd1 Cd -0.63113(11) 0.07518(8) 0.19086(4)
Cd2 Cd 0.63803(12) 0.90525(8) 0.07127(5)
O25 O 0.6752(13) 0.9017(10) 0.1529(5)
H11 H 0.713(17) 0.853(6) 0.163(6)
H12 H 0.692(18) 0.939(8) 0.176(4)
O26 O 0.6082(14) 0.8872(10) -0.0088(5)
O27 O 0.4176(12) 0.9024(9) 0.1976(4)
O28 O 0.2205(13) 0.9623(9) 0.1934(5)
C30 C 0.2938(16) 0.8965(12) 0.1952(6)
O29 O -0.4104(11) 0.0703(8) 0.1943(4)
O30 O -0.6679(13) 0.0653(9) 0.1095(5)
C31 C 0.9291(18) 0.4399(12) 0.0529(7)
H13 H 1.0226 0.4343 0.0541
H14 H 0.9095 0.4769 0.0791
H15 H 0.8933 0.4676 0.0231
C32 C 1.0188(18) 0.1230(13) 0.0463(7)
H16 H 1.0851 0.1525 0.0308
H17 H 0.9825 0.0732 0.0268
H18 H 1.0571 0.1006 0.0770
C33 C 0.0054(18) 0.8512(12) 0.2089(6)
H19 H -0.0251 0.8826 0.1796
H20 H 0.0410 0.8941 0.2328
H21 H -0.0665 0.8194 0.2199
C34 C 0.0731(19) 0.5354(13) 0.1875(7)
H22 H -0.0172 0.5443 0.1918
H23 H 0.1152 0.4980 0.2130
H24 H 0.0778 0.5062 0.1573
H25 H 0.398(17) 0.268(3) 0.233(6)
H26 H 0.438(14) 0.344(10) 0.257(5)
H27 H 0.568(19) 0.439(10) 0.228(3)
H28 H 0.386(17) 0.552(12) 0.0056(13)
H29 H 0.372(16) 0.522(9) 0.050(5)
H30 H -0.711(16) 0.081(10) 0.083(3)
H31 H 0.540(11) 0.908(11) -0.026(5)
H32 H 0.583(19) 0.462(7) 0.183(4)
H33 H -0.656(19) 0.008(3) 0.107(6)
H34 H 0.627(17) 0.839(7) -0.023(6)
Gd1_2 Gd 1.59617(7) 0.63276(5) 0.08476(3)
Gd1B Gd 0.40383(7) 0.36724(5) -0.08476(3)
O10_2 O 0.6155(12) 1.0660(9) 0.0663(4)
O11_2 O 0.8098(13) 1.0098(9) 0.0669(5)
Gd2_2 Gd -0.60149(7) 0.34198(5) 0.14984(3)
O14A O -0.6057(11) 0.1253(8) 0.2686(4)
O16_2 O 0.4671(11) 0.7628(8) 0.0690(4)
O17_2 O 0.4151(12) 0.9082(9) 0.0690(4)
O18_2 O -0.7521(11) 0.2002(8) 0.1685(4)
O20_2 O 0.5323(12) 0.2103(8) 0.1735(4)
O22B O 0.6119(10) 0.6504(7) -0.0022(4)
Cd1_2 Cd 0.36887(11) 0.07518(8) 0.19086(4)
Cd1_3 Cd 0.36887(11) 1.07518(8) 0.19086(4)
Cd1A Cd 0.63113(11) 0.57518(8) 0.30914(4)
Cd2_2 Cd 0.63803(12) -0.09475(8) 0.07127(5)
Cd2_3 Cd 1.63803(12) 0.90525(8) 0.07127(5)
O27_2 O -0.5824(12) -0.0976(9) 0.1976(4)
O28_2 O -0.7795(13) -0.0377(9) 0.1934(5)
loop_
_geom_bond_atom_site_label_1
_geom_bond_atom_site_label_2
_geom_bond_site_symmetry_1
_geom_bond_site_symmetry_2
Gd1 O1 1_555 1_555
S1 O7 1_555 1_555
O1 C17 1_555 1_555
O2 Gd1 1_555 1_555
O3 Gd1 1_555 1_555
O4 Gd1 1_555 1_555
C1 C4 1_555 1_555
O5 Gd1 1_555 1_555
C2 C3 1_555 1_555
O6 C13 1_555 1_555
C3 H1 1_555 1_555
C4 O3 1_555 1_555
N1 C5 1_555 1_555
O7 Gd1 1_555 1_555
O8 S1 1_555 1_555
C5 C8 1_555 1_555
N2 C11 1_555 1_555
O9 Gd1 1_555 1_555
C6 C2 1_555 1_555
C7 C11 1_555 1_555
C8 C3 1_555 1_555
C9 C2 1_555 1_555
C10 C1 1_555 1_555
H2 C10 1_555 1_555
C11 C34 1_555 1_555
C12 C1 1_555 1_555
H3 C12 1_555 1_555
C13 O5 1_555 1_555
O10 C6 1_555 1_555
O11 C6 1_555 1_555
C14 C15 1_555 1_555
C15 C7 1_555 1_555
H4 C15 1_555 1_555
C16 N2 1_555 1_555
O12 C17 1_555 1_555
C17 C7 1_555 1_555
Gd2 O6 1_555 1_555
O13 Gd2 1_555 1_555
O14 S1 1_555 1_555
O15 Gd2 1_555 1_555
C18 C19 1_555 1_555
C19 C12 1_555 1_555
H5 C19 1_555 1_555
C20 C10 1_555 1_555
H6 C20 1_555 1_555
O16 C21 1_555 1_555
C21 C18 1_555 1_555
O17 C21 1_555 1_555
O18 Gd2 1_555 1_555
O19 Gd2 1_555 1_555
C22 C23 1_555 1_555
C23 H7 1_555 1_555
C24 C22 1_555 1_555
H8 C24 1_555 1_555
C25 O18 1_555 1_555
C26 C27 1_555 1_555
C27 C23 1_555 1_555
H9 C27 1_555 1_555
C28 C24 1_555 1_555
H10 C28 1_555 1_555
O20 C29 1_555 1_555
C29 C26 1_555 1_555
S2 O21 1_555 1_555
O21 Gd2 1_555 1_555
O22 S2 1_555 1_555
O23 Gd2 1_555 1_555
O24 S2 1_555 1_555
Cd1 O20 1_555 1_555
Cd2 O4 1_555 1_555
O25 Cd2 1_555 1_555
H11 O25 1_555 1_555
H12 O25 1_555 1_555
O26 Cd2 1_555 1_555
O27 C30 1_555 1_555
O28 C30 1_555 1_555
C30 C14 1_555 1_555
O29 C29 1_555 1_555
O30 Cd1 1_555 1_555
C31 C5 1_555 1_555
H13 C31 1_555 1_555
H14 C31 1_555 1_555
H15 C31 1_555 1_555
C32 C9 1_555 1_555
H16 C32 1_555 1_555
H17 C32 1_555 1_555
H18 C32 1_555 1_555
C33 C16 1_555 1_555
H19 C33 1_555 1_555
H20 C33 1_555 1_555
H21 C33 1_555 1_555
C34 H22 1_555 1_555
H23 C34 1_555 1_555
H24 C34 1_555 1_555
H25 O15 1_555 1_555
H26 O15 1_555 1_555
H27 O13 1_555 1_555
H28 O2 1_555 1_555
H29 O2 1_555 1_555
H30 O30 1_555 1_555
H31 O26 1_555 1_555
H32 O13 1_555 1_555
H33 O30 1_555 1_555
H34 O26 1_555 1_555
Gd1_2 O16 1_555 1_555
Gd1B O22 1_555 1_555
O10_2 Cd2 1_555 1_555
O11_2 Cd2 1_555 1_555
Gd2_2 O20 1_555 1_555
O14A Cd1 1_555 1_555
O16_2 Gd1 1_555 1_555
O17_2 Cd2 1_555 1_555
O18_2 Cd1 1_555 1_555
O20_2 Gd2 1_555 1_555
O22B Gd1 1_555 1_555
Cd1_2 O18 1_555 1_555
Cd1_3 O27 1_555 1_555
Cd1A O14 1_555 1_555
Cd2_2 O10 1_555 1_555
Cd2_3 O16 1_555 1_555
O27_2 Cd1 1_555 1_555
O28_2 Cd1 1_555 1_555
S1 O9 1_555 1_555
O4 C4 1_555 1_555
N1 C9 1_555 1_555
C8 C13 1_555 1_555
O11 Cd2_2 1_555 1_555
C14 C16 1_555 1_555
O12 Gd2 1_555 1_555
C18 C20 1_555 1_555
O17 Cd2_3 1_555 1_555
O19 C25 1_555 1_555
C22 C25 1_555 1_555
C26 C28 1_555 1_555
S2 O23 1_555 1_555
Cd1 O29 1_555 1_555
Cd2 O16_2 1_555 1_555
O28 Cd1_3 1_555 1_555
Gd2_2 O18_2 1_555 1_555
O20_2 Cd1_2 1_555 1_555

#END
