
#######################################################################
#
#                 Cambridge Crystallographic Data Centre
#                                CCDC 
#
#######################################################################
#
# If this CIF has been generated from an entry in the Cambridge 
# Structural Database, then it will include bibliographic, chemical, 
# crystal, experimental, refinement or atomic coordinate data resulting 
# from the CCDC's data processing and validation procedures.
#
#######################################################################

data_TOHXOF
_symmetry_cell_setting           monoclinic
_symmetry_space_group_name_H-M   'P 21/c'
_symmetry_Int_Tables_number      14
_space_group_name_Hall           '-P 2ybc'
loop_
_symmetry_equiv_pos_site_id
_symmetry_equiv_pos_as_xyz
1 x,y,z
2 -x,1/2+y,1/2-z
3 -x,-y,-z
4 x,1/2-y,1/2+z
_cell_length_a                   10.282(2)
_cell_length_b                   14.741(3)
_cell_length_c                   28.128(6)
_cell_angle_alpha                90
_cell_angle_beta                 97.691(3)
_cell_angle_gamma                90
_cell_volume                     4224.92
loop_
_atom_site_label
_atom_site_type_symbol
_atom_site_fract_x
_atom_site_fract_y
_atom_site_fract_z
Eu1 Eu 0.40383(4) -0.13306(3) 0.415023(16)
Cd1 Cd 0.36181(7) -0.40554(5) 0.42863(3)
S1 S 0.3044(2) -0.14163(16) 0.30397(8)
C1 C 0.8613(10) -0.1246(7) 0.3124(3)
O1 O 0.5729(6) -0.0931(5) 0.3689(2)
O2 O 0.5900(6) -0.0616(4) 0.4647(2)
O3 O 0.1685(6) -0.1395(5) 0.4103(3)
C2 C 0.3476(9) 0.0950(6) 0.4188(3)
C3 C 0.2178(9) 0.3300(6) 0.4395(3)
O4 O 0.3248(8) -0.4020(5) 0.3478(3)
C4 C 0.1317(9) 0.1508(6) 0.4437(3)
O5 O 0.3383(7) 0.0177(4) 0.4350(2)
C5 C 0.8927(9) -0.2848(7) 0.3002(3)
C6 C 0.0161(9) -0.2526(6) 0.4243(3)
O6 O 0.2486(6) -0.2746(4) 0.4237(2)
O7 O 0.3931(7) -0.1251(5) 0.2677(2)
O8 O 0.3581(7) -0.2154(5) 0.3366(2)
O9 O 0.3003(7) -0.0613(4) 0.3351(2)
C7 C 0.1513(9) -0.2213(6) 0.4191(3)
C8 C -0.2032(9) -0.2123(7) 0.4352(3)
H1 H -0.2645 -0.1680 0.4402
N1 N 0.0538(7) 0.2231(5) 0.4502(3)
C9 C 0.7348(9) -0.1419(6) 0.3226(3)
C10 C 0.2977(9) 0.2584(6) 0.4323(3)
H2 H 0.3829 0.2707 0.4266
C11 C 0.2587(9) 0.1689(6) 0.4331(3)
C12 C -0.1476(9) -0.3674(7) 0.4254(3)
H3 H -0.1712 -0.4283 0.4236
C13 C 0.6529(8) -0.0664(6) 0.3424(3)
C14 C -0.2413(8) -0.3026(6) 0.4317(3)
N2 N 0.9342(7) -0.1970(5) 0.3016(3)
C15 C 0.9946(11) -0.3518(7) 0.2909(4)
H4 H 1.0644 -0.3212 0.2780
H5 H 0.9563 -0.3964 0.2684
H6 H 1.0289 -0.3812 0.3205
C16 C 0.0907(9) 0.3106(6) 0.4478(3)
C17 C 0.9285(11) -0.0362(7) 0.3128(5)
H7 H 1.0217 -0.0456 0.3165
H8 H 0.9062 -0.0003 0.3390
H9 H 0.9014 -0.0052 0.2831
O10 O 0.3917(8) -0.3872(6) 0.5085(3)
O11 O 0.1759(7) -0.1646(6) 0.2793(3)
C18 C 0.7638(9) -0.3015(6) 0.3075(3)
C19 C 0.0709(10) 0.0598(7) 0.4471(4)
H10 H -0.0227 0.0661 0.4443
H11 H 0.1028 0.0328 0.4775
H12 H 0.0933 0.0219 0.4217
C20 C -0.0766(9) -0.1874(6) 0.4315(3)
H13 H -0.0527 -0.1265 0.4338
C21 C -0.0202(8) -0.3429(7) 0.4220(3)
H14 H 0.0418 -0.3873 0.4182
C22 C -0.0175(10) 0.3771(7) 0.4538(4)
H15 H -0.0483 0.4044 0.4234
H16 H 0.0155 0.4234 0.4762
H17 H -0.0886 0.3458 0.4656
O12 O 0.4261(6) 0.1192(4) 0.3912(2)
O13 O 0.6707(7) 0.0122(4) 0.3301(2)
Eu2 Eu 0.60200(4) 0.15824(3) 0.350097(16)
O14 O 0.4215(7) 0.0817(5) 0.2995(2)
O15 O 0.6192(9) 0.1761(6) 0.2636(3)
S2 S 0.6973(2) 0.16658(16) 0.46047(8)
O16 O 0.6968(7) 0.0858(4) 0.4285(2)
O17 O 0.6424(7) 0.2413(5) 0.4278(2)
O18 O 0.8301(7) 0.1882(5) 0.4823(2)
C23 C 0.6877(9) -0.2277(6) 0.3192(3)
H18 H 0.6019 -0.2382 0.3249
O19 O 0.5820(7) -0.4018(5) 0.3023(3)
C24 C 0.7066(9) -0.3963(6) 0.3054(3)
O20 O 0.7812(8) -0.4630(5) 0.3070(3)
C25 C 0.2662(10) 0.4257(7) 0.4358(3)
O21 O 0.3856(7) 0.4345(4) 0.4339(3)
O22 O 0.1901(7) 0.4896(5) 0.4339(3)
C26 C -0.3820(9) -0.3263(6) 0.4316(3)
O23 O -0.4670(6) -0.2643(5) 0.4307(2)
O24 O -0.4146(6) -0.4090(5) 0.4313(3)
C27 C 0.8512(9) 0.2478(6) 0.3377(3)
O25 O 0.8395(7) 0.1684(5) 0.3526(3)
C28 C 0.9846(9) 0.2787(6) 0.3284(3)
O26 O 0.7530(6) 0.2989(5) 0.3314(2)
C29 C 1.0792(9) 0.2129(7) 0.3253(3)
H19 H 1.0573 0.1519 0.3273
C30 C 1.2054(9) 0.2368(7) 0.3193(3)
H20 H 1.2673 0.1918 0.3166
C31 C 1.0173(10) 0.3698(7) 0.3236(4)
H21 H 0.9533 0.4144 0.3235
C32 C 1.2407(9) 0.3262(6) 0.3174(3)
C33 C 1.1446(9) 0.3937(7) 0.3188(3)
H22 H 1.1670 0.4546 0.3166
C34 C 1.3821(9) 0.3507(6) 0.3164(3)
O27 O 1.4678(6) 0.2904(5) 0.3261(2)
O28 O 1.4103(7) 0.4300(5) 0.3058(3)
O29 O 0.6122(6) 0.1507(5) 0.4979(2)
Cd2 Cd 1.63164(7) 0.42480(5) 0.30922(2)
O30 O 1.6694(8) 0.4361(5) 0.3906(3)
H23 H 0.609(10) 0.2332(12) 0.260(4)
H24 H 0.553(7) 0.153(6) 0.247(4)
H25 H 0.415(11) 0.064(7) 0.2705(13)
H26 H 0.370(9) 0.047(6) 0.313(3)
H27 H 0.623(11) -0.019(5) 0.450(3)
H28 H 0.600(11) -0.046(6) 0.4939(10)
H29 H 0.324(12) -0.433(5) 0.3224(19)
H30 H 0.320(12) -0.3471(19) 0.339(3)
H31 H 0.369(9) -0.337(4) 0.520(4)
H32 H 0.473(3) -0.393(7) 0.519(4)
H33 H 1.622(10) 0.477(5) 0.401(3)
H34 H 1.670(11) 0.392(5) 0.410(3)
Eu1_2 Eu -0.59617(4) -0.13306(3) 0.415023(16)
Eu1B Eu 0.59617(4) 0.13306(3) 0.584977(16)
Cd1_2 Cd -0.63819(7) -0.40554(5) 0.42863(3)
Cd1_3 Cd 0.36181(7) 0.59446(5) 0.42863(3)
O7A O 1.6069(7) 0.3749(5) 0.2323(2)
Eu2_2 Eu 1.60200(4) 0.15824(3) 0.350097(16)
O19_2 O 1.5820(7) 0.5982(5) 0.3023(3)
O20_2 O 1.7812(8) 0.5370(5) 0.3070(3)
O21_2 O 0.3856(7) -0.5655(4) 0.4339(3)
O22_2 O 0.1901(7) -0.5104(5) 0.4339(3)
O23_2 O 0.5330(6) -0.2643(5) 0.4307(2)
O24_2 O 0.5854(6) -0.4090(5) 0.4313(3)
O26_2 O 1.7530(6) 0.2989(5) 0.3314(2)
O27_2 O 0.4678(6) 0.2904(5) 0.3261(2)
O29B O 0.3878(6) -0.1507(5) 0.5021(2)
Cd2_2 Cd 0.63164(7) -0.57520(5) 0.30922(2)
Cd2_3 Cd 0.63164(7) 0.42480(5) 0.30922(2)
Cd2A Cd 0.36836(7) -0.07520(5) 0.19078(2)
loop_
_geom_bond_atom_site_label_1
_geom_bond_atom_site_label_2
_geom_bond_site_symmetry_1
_geom_bond_site_symmetry_2
Eu1 O1 1_555 1_555
Cd1 O4 1_555 1_555
S1 O7 1_555 1_555
C1 C9 1_555 1_555
O1 C13 1_555 1_555
O2 Eu1 1_555 1_555
O3 Eu1 1_555 1_555
C2 O5 1_555 1_555
C3 C10 1_555 1_555
O4 H29 1_555 1_555
C4 N1 1_555 1_555
O5 Eu1 1_555 1_555
C5 N2 1_555 1_555
C6 C7 1_555 1_555
O6 Eu1 1_555 1_555
O7 Cd2A 1_555 1_555
O8 Eu1 1_555 1_555
O9 Eu1 1_555 1_555
C7 O3 1_555 1_555
C8 H1 1_555 1_555
N1 C16 1_555 1_555
C9 C13 1_555 1_555
C10 H2 1_555 1_555
C11 C2 1_555 1_555
C12 H3 1_555 1_555
C13 O13 1_555 1_555
C14 C8 1_555 1_555
N2 C1 1_555 1_555
C15 C5 1_555 1_555
H4 C15 1_555 1_555
H5 C15 1_555 1_555
H6 C15 1_555 1_555
C16 C3 1_555 1_555
C17 C1 1_555 1_555
H7 C17 1_555 1_555
H8 C17 1_555 1_555
H9 C17 1_555 1_555
O10 Cd1 1_555 1_555
O11 S1 1_555 1_555
C18 C5 1_555 1_555
C19 C4 1_555 1_555
H10 C19 1_555 1_555
H11 C19 1_555 1_555
H12 C19 1_555 1_555
C20 C6 1_555 1_555
H13 C20 1_555 1_555
C21 C6 1_555 1_555
H14 C21 1_555 1_555
C22 C16 1_555 1_555
H15 C22 1_555 1_555
H16 C22 1_555 1_555
H17 C22 1_555 1_555
O12 C2 1_555 1_555
O13 Eu2 1_555 1_555
Eu2 O12 1_555 1_555
O14 Eu2 1_555 1_555
O15 Eu2 1_555 1_555
S2 O16 1_555 1_555
O16 Eu2 1_555 1_555
O17 Eu2 1_555 1_555
O18 S2 1_555 1_555
C23 C9 1_555 1_555
H18 C23 1_555 1_555
O19 C24 1_555 1_555
C24 C18 1_555 1_555
O20 C24 1_555 1_555
C25 C3 1_555 1_555
O21 C25 1_555 1_555
O22 C25 1_555 1_555
C26 C14 1_555 1_555
O23 C26 1_555 1_555
O24 C26 1_555 1_555
C27 O25 1_555 1_555
O25 Eu2 1_555 1_555
C28 C27 1_555 1_555
O26 Eu2 1_555 1_555
C29 C28 1_555 1_555
H19 C29 1_555 1_555
C30 C29 1_555 1_555
H20 C30 1_555 1_555
C31 C28 1_555 1_555
H21 C31 1_555 1_555
C32 C30 1_555 1_555
C33 C31 1_555 1_555
H22 C33 1_555 1_555
C34 C32 1_555 1_555
O27 C34 1_555 1_555
O28 C34 1_555 1_555
O29 S2 1_555 1_555
Cd2 O27 1_555 1_555
O30 Cd2 1_555 1_555
H23 O15 1_555 1_555
H24 O15 1_555 1_555
H25 O14 1_555 1_555
H26 O14 1_555 1_555
H27 O2 1_555 1_555
H28 O2 1_555 1_555
H30 O4 1_555 1_555
H31 O10 1_555 1_555
H32 O10 1_555 1_555
H33 O30 1_555 1_555
H34 O30 1_555 1_555
Eu1_2 O23 1_555 1_555
Eu1B O29 1_555 1_555
Cd1_2 O23 1_555 1_555
Cd1_3 O21 1_555 1_555
O7A Cd2 1_555 1_555
Eu2_2 O27 1_555 1_555
O19_2 Cd2 1_555 1_555
O20_2 Cd2 1_555 1_555
O21_2 Cd1 1_555 1_555
O22_2 Cd1 1_555 1_555
O23_2 Eu1 1_555 1_555
O24_2 Cd1 1_555 1_555
O26_2 Cd2 1_555 1_555
O27_2 Eu2 1_555 1_555
O29B Eu1 1_555 1_555
Cd2_2 O19 1_555 1_555
Cd2_3 O26 1_555 1_555
Cd1 O6 1_555 1_555
Cd1 O23_2 1_555 1_555
S1 O8 1_555 1_555
S1 O9 1_555 1_555
C4 C11 1_555 1_555
O6 C7 1_555 1_555
C8 C20 1_555 1_555
C10 C11 1_555 1_555
C12 C14 1_555 1_555
C12 C21 1_555 1_555
C18 C23 1_555 1_555
S2 O17 1_555 1_555
O20 Cd2_2 1_555 1_555
O22 Cd1_3 1_555 1_555
O24 Cd1_2 1_555 1_555
C27 O26 1_555 1_555
C32 C33 1_555 1_555
O28 Cd2 1_555 1_555
Eu2_2 O26_2 1_555 1_555
O27_2 Cd2_3 1_555 1_555

#END
