
#######################################################################
#
#                 Cambridge Crystallographic Data Centre
#                                CCDC 
#
#######################################################################
#
# If this CIF has been generated from an entry in the Cambridge 
# Structural Database, then it will include bibliographic, chemical, 
# crystal, experimental, refinement or atomic coordinate data resulting 
# from the CCDC's data processing and validation procedures.
#
#######################################################################

data_TOHYOF
_symmetry_cell_setting           monoclinic
_symmetry_space_group_name_H-M   'P 21/c'
_symmetry_Int_Tables_number      14
_space_group_name_Hall           '-P 2ybc'
loop_
_symmetry_equiv_pos_site_id
_symmetry_equiv_pos_as_xyz
1 x,y,z
2 -x,1/2+y,1/2-z
3 -x,-y,-z
4 x,1/2-y,1/2+z
_cell_length_a                   12.375(3)
_cell_length_b                   23.376(5)
_cell_length_c                   8.5893(17)
_cell_angle_alpha                90
_cell_angle_beta                 104.46(3)
_cell_angle_gamma                90
_cell_volume                     2405.99
loop_
_atom_site_label
_atom_site_type_symbol
_atom_site_fract_x
_atom_site_fract_y
_atom_site_fract_z
N4 N 0.1266(8) 0.1189(4) 0.0757(10)
C13 C 0.0322(12) 0.0864(6) 0.082(2)
H13 H -0.0109 0.1067 0.1426
H14 H 0.0556 0.0503 0.1326
H15 H -0.0124 0.0800 -0.0253
C14 C 0.205(2) 0.0885(12) -0.026(3)
H16 H 0.2681 0.1127 -0.0257
H17 H 0.1630 0.0826 -0.1351
H18 H 0.2311 0.0523 0.0217
Cd1 Cd 0.23929(4) 0.21877(2) 0.45246(6)
O1 O 0.0941(6) -0.0615(3) 0.3462(11)
O2 O 0.2484(7) -0.2172(3) 0.6289(12)
O3 O 0.4432(5) -0.0519(3) 0.6732(10)
O4 O 0.2164(8) 0.1419(3) 0.6167(10)
O5 O 0.2556(6) 0.1185(3) 0.3939(9)
O6 O -0.1043(7) -0.2155(3) 0.1088(12)
O7 O -0.0486(7) -0.2909(3) 0.2438(13)
O8 O 0.7069(5) -0.2265(2) 0.7854(8)
O9 O 0.5944(6) -0.2376(4) 0.9374(9)
N1 N 0.1669(5) -0.1399(3) 0.4864(9)
N2 N 0.3454(5) -0.1349(2) 0.6548(8)
N3 N 0.2704(5) -0.0562(3) 0.5039(9)
C1 C 0.1707(7) -0.0836(3) 0.4384(11)
C2 C 0.2534(6) -0.1675(3) 0.5929(10)
C3 C 0.3569(6) -0.0786(3) 0.6114(11)
C4 C 0.0627(6) -0.1732(4) 0.4238(11)
H1 H -0.0001 -0.1473 0.3907
H2 H 0.0491 -0.1978 0.5078
C5 C 0.0739(9) -0.2089(5) 0.2827(17)
H3 H 0.1335 -0.2366 0.3178
H4 H 0.0931 -0.1845 0.2023
C6 C -0.0339(7) -0.2399(5) 0.2099(12)
C7 C 0.4372(6) -0.1629(4) 0.7733(9)
H5 H 0.4074 -0.1941 0.8241
H6 H 0.4709 -0.1355 0.8562
C8 C 0.5242(6) -0.1854(4) 0.6970(9)
H7 H 0.5590 -0.1535 0.6555
H8 H 0.4890 -0.2096 0.6069
C9 C 0.6134(7) -0.2194(3) 0.8128(10)
C10 C 0.2797(8) 0.0051(4) 0.4650(11)
H9 H 0.2426 0.0115 0.3528
H10 H 0.3578 0.0149 0.4805
C11 C 0.2287(9) 0.0432(4) 0.5679(12)
H11 H 0.2681 0.0381 0.6798
H12 H 0.1516 0.0322 0.5563
C12 C 0.2333(7) 0.1054(3) 0.5234(10)
Cd1A Cd -0.23929(4) -0.28123(2) 0.04754(6)
Cd1B Cd 0.76071(4) -0.21877(2) 0.54754(6)
Cd1A_2 Cd 0.76071(4) -0.28123(2) 1.04754(6)
O6A O 0.1043(7) 0.2845(3) 0.3912(12)
O7A O 0.0486(7) 0.2091(3) 0.2562(13)
O8B O 0.2931(5) 0.2265(2) 0.2146(8)
O8A O 0.2931(5) 0.2735(2) 0.7146(8)
O9A O 0.4056(6) 0.2624(4) 0.5626(9)
loop_
_geom_bond_atom_site_label_1
_geom_bond_atom_site_label_2
_geom_bond_site_symmetry_1
_geom_bond_site_symmetry_2
Cd1 O4 1_555 1_555
O1 C1 1_555 1_555
O2 C2 1_555 1_555
O3 C3 1_555 1_555
O4 C12 1_555 1_555
O5 Cd1 1_555 1_555
O6 C6 1_555 1_555
O7 C6 1_555 1_555
O8 C9 1_555 1_555
O9 C9 1_555 1_555
N1 C1 1_555 1_555
N2 C2 1_555 1_555
N3 C1 1_555 1_555
N4 C13 1_555 1_555
C2 N1 1_555 1_555
C3 N2 1_555 1_555
C4 N1 1_555 1_555
H1 C4 1_555 1_555
H2 C4 1_555 1_555
C5 C4 1_555 1_555
H3 C5 1_555 1_555
H4 C5 1_555 1_555
C6 C5 1_555 1_555
C7 N2 1_555 1_555
H5 C7 1_555 1_555
H6 C7 1_555 1_555
C8 C7 1_555 1_555
H7 C8 1_555 1_555
H8 C8 1_555 1_555
C9 C8 1_555 1_555
C10 N3 1_555 1_555
H9 C10 1_555 1_555
H10 C10 1_555 1_555
C11 C10 1_555 1_555
H11 C11 1_555 1_555
H12 C11 1_555 1_555
C12 O5 1_555 1_555
C13 H13 1_555 1_555
H14 C13 1_555 1_555
H15 C13 1_555 1_555
C14 N4 1_555 1_555
H16 C14 1_555 1_555
H17 C14 1_555 1_555
H18 C14 1_555 1_555
Cd1A O6 1_555 1_555
Cd1B O8 1_555 1_555
Cd1A_2 O8 1_555 1_555
O6A Cd1 1_555 1_555
O7A Cd1 1_555 1_555
O8B Cd1 1_555 1_555
O8A Cd1 1_555 1_555
O9A Cd1 1_555 1_555
O7 Cd1A 1_555 1_555
O9 Cd1A_2 1_555 1_555
N3 C3 1_555 1_555
C11 C12 1_555 1_555

#END
