
#######################################################################
#
#                 Cambridge Crystallographic Data Centre
#                                CCDC 
#
#######################################################################
#
# If this CIF has been generated from an entry in the Cambridge 
# Structural Database, then it will include bibliographic, chemical, 
# crystal, experimental, refinement or atomic coordinate data resulting 
# from the CCDC's data processing and validation procedures.
#
#######################################################################

data_TOHYAS
_symmetry_cell_setting           monoclinic
_symmetry_space_group_name_H-M   'P 21/c'
_symmetry_Int_Tables_number      14
_space_group_name_Hall           '-P 2ybc'
loop_
_symmetry_equiv_pos_site_id
_symmetry_equiv_pos_as_xyz
1 x,y,z
2 -x,1/2+y,1/2-z
3 -x,-y,-z
4 x,1/2-y,1/2+z
_cell_length_a                   10.3162(18)
_cell_length_b                   14.780(3)
_cell_length_c                   28.196(5)
_cell_angle_alpha                90
_cell_angle_beta                 97.431(2)
_cell_angle_gamma                90
_cell_volume                     4263.03
loop_
_atom_site_label
_atom_site_type_symbol
_atom_site_fract_x
_atom_site_fract_y
_atom_site_fract_z
Tb1 Tb 0.60145(5) 0.84283(3) 0.350348(18)
Tb2 Tb 0.40454(4) 1.13226(3) 0.415549(18)
C1 C 0.1332(9) 0.8500(7) 0.4434(3)
O1 O 0.5724(6) 1.0935(5) 0.3692(2)
O2 O 0.3396(7) 0.9821(5) 0.4350(3)
C2 C 0.3482(9) 0.9040(6) 0.4178(3)
C3 C 0.6521(9) 1.0675(7) 0.3418(4)
N1 N 0.0556(7) 0.7779(5) 0.4499(3)
N2 N 0.9330(8) 1.1962(6) 0.3015(3)
O3 O 0.6698(7) 0.9879(5) 0.3305(3)
C4 C 0.2585(9) 0.8321(7) 0.4327(4)
C5 C 0.2175(9) 0.6698(6) 0.4398(3)
O4 O 0.4265(6) 0.8810(5) 0.3905(3)
C6 C 0.8618(10) 1.1234(7) 0.3119(4)
C7 C -0.0173(10) 0.6231(7) 0.4533(4)
H1 H -0.0882 0.6536 0.4656
H2 H 0.0162 0.5764 0.4752
H3 H -0.0480 0.5967 0.4229
C8 C 0.2986(9) 0.7410(6) 0.4320(3)
H4 H 0.3832 0.7283 0.4260
C9 C 0.0892(8) 0.6897(7) 0.4477(3)
C10 C 0.7349(9) 1.1409(7) 0.3221(3)
C11 C 0.0721(11) 0.9392(8) 0.4470(4)
H5 H -0.0211 0.9335 0.4397
H6 H 0.1040 0.9801 0.4248
H7 H 0.0934 0.9621 0.4789
C12 C 0.6876(10) 1.2285(8) 0.3180(4)
H8 H 0.6013 1.2392 0.3227
O5 O 0.7518(6) 0.7003(5) 0.3310(3)
O6 O 0.8362(7) 0.8313(5) 0.3523(3)
C13 C 0.7642(10) 1.3016(7) 0.3071(3)
C14 C 0.7052(11) 1.3953(8) 0.3049(4)
O7 O 0.7808(7) 1.4610(5) 0.3059(3)
O8 O 0.5841(8) 1.4027(6) 0.3020(3)
C15 C 0.8927(9) 1.2827(7) 0.3001(4)
C16 C 0.9948(11) 1.3528(8) 0.2913(4)
H9 H 1.0336 1.3774 0.3213
H10 H 0.9539 1.4005 0.2716
H11 H 1.0612 1.3248 0.2754
C17 C 0.2691(10) 0.5743(7) 0.4362(4)
O9 O 0.3880(7) 0.5650(5) 0.4335(3)
O10 O 0.1916(7) 0.5090(5) 0.4333(3)
S1 S 0.6964(2) 0.83364(18) 0.45992(9)
O11 O 0.6954(7) 0.9142(5) 0.4286(2)
O12 O 0.6420(7) 0.7600(5) 0.4273(3)
O13 O 0.6120(6) 0.8487(5) 0.4977(3)
O14 O 0.8281(7) 0.8115(6) 0.4814(3)
S2 S 0.3052(2) 1.14180(18) 0.30465(9)
O15 O 0.3595(6) 1.2142(5) 0.3375(2)
O16 O 0.3008(7) 1.0604(5) 0.3351(3)
O17 O 0.3958(7) 1.1262(6) 0.2683(3)
O18 O 0.1777(7) 1.1658(6) 0.2807(3)
O19 O 0.4229(8) 0.9171(6) 0.2999(3)
O20 O 0.5877(7) 1.0626(5) 0.4642(2)
O21 O 0.6201(10) 0.8262(6) 0.2645(3)
O22 O 0.2491(6) 1.2749(5) 0.4240(3)
O23 O 0.1721(6) 1.1384(5) 0.4111(3)
C18 C -0.0192(9) 1.3426(7) 0.4222(3)
H12 H 0.0427 1.3870 0.4186
C19 C 0.1535(8) 1.2194(7) 0.4193(3)
C20 C -0.1472(9) 1.3668(7) 0.4255(4)
H13 H -0.1711 1.4275 0.4241
C21 C -0.0745(9) 1.1867(7) 0.4312(4)
H14 H -0.0502 1.1261 0.4331
C22 C 0.0173(9) 1.2510(7) 0.4244(3)
C23 C -0.2401(9) 1.3009(7) 0.4308(3)
C24 C -0.2027(9) 1.2100(7) 0.4353(4)
H15 H -0.2630 1.1659 0.4411
C25 C 0.9838(9) 0.7217(7) 0.3281(3)
C26 C 1.0775(9) 0.7889(7) 0.3251(3)
H16 H 1.0551 0.8496 0.3271
C27 C 0.8478(9) 0.7529(7) 0.3371(4)
C28 C 1.0176(10) 0.6306(8) 0.3233(4)
H17 H 0.9543 0.5859 0.3238
C29 C 1.2393(9) 0.6752(7) 0.3173(4)
C30 C 1.2042(9) 0.7646(8) 0.3191(4)
H18 H 1.2660 0.8094 0.3163
C31 C 1.1438(9) 0.6069(8) 0.3180(4)
H19 H 1.1661 0.5464 0.3149
C32 C 1.3820(10) 0.6516(7) 0.3164(3)
C33 C 0.9289(11) 1.0361(8) 0.3129(5)
H20 H 1.0206 1.0448 0.3227
H21 H 0.9161 1.0096 0.2816
H22 H 0.8938 0.9965 0.3351
O24 O 1.4101(7) 0.5714(5) 0.3061(3)
O25 O 1.4690(7) 0.7123(5) 0.3265(3)
Cd1 Cd 0.36271(7) 1.40507(5) 0.42855(3)
O26 O 0.3224(9) 1.4002(6) 0.3465(3)
O27 O 0.3918(8) 1.3866(6) 0.5093(3)
H23 H 0.470(4) 1.370(7) 0.508(5)
H24 H 0.346(8) 1.339(4) 0.507(5)
C34 C -0.3834(9) 1.3244(7) 0.4311(4)
O28 O -0.4656(6) 1.2622(5) 0.4307(3)
O29 O -0.4145(6) 1.4067(5) 0.4309(3)
Cd2 Cd 1.63034(7) 0.57486(5) 0.30843(3)
O30 O 1.6678(9) 0.5639(6) 0.3900(3)
H25 H 1.681(13) 0.607(5) 0.410(3)
H26 H 1.649(12) 0.518(4) 0.406(3)
H27 H 0.376(10) 0.963(5) 0.303(3)
H28 H 0.432(12) 0.917(7) 0.2704(12)
H29 H 0.626(10) 0.7691(15) 0.262(4)
H30 H 0.544(5) 0.840(6) 0.251(4)
H31 H 0.585(10) 1.062(8) 0.4941(8)
H32 H 0.648(9) 1.026(7) 0.460(3)
H33 H 0.336(10) 1.4569(14) 0.347(4)
H34 H 0.384(8) 1.377(6) 0.334(4)
Tb1_2 Tb 1.60145(5) 0.84283(3) 0.350348(18)
Tb2_2 Tb -0.59546(4) 1.13226(3) 0.415549(18)
Tb2B Tb 0.59546(4) 0.86774(3) 0.584451(18)
O5_2 O 1.7518(6) 0.7003(5) 0.3310(3)
O7_2 O 1.7808(7) 0.4610(5) 0.3059(3)
O8_2 O 1.5841(8) 0.4027(6) 0.3020(3)
O9_2 O 0.3880(7) 1.5650(5) 0.4335(3)
O10_2 O 0.1916(7) 1.5090(5) 0.4333(3)
O13B O 0.3880(6) 1.1513(5) 0.5023(3)
O17A O 1.6042(7) 0.6262(6) 0.2317(3)
O25_2 O 0.4690(7) 0.7123(5) 0.3265(3)
Cd1_2 Cd -0.63729(7) 1.40507(5) 0.42855(3)
Cd1_3 Cd 0.36271(7) 0.40507(5) 0.42855(3)
O28_2 O 0.5344(6) 1.2622(5) 0.4307(3)
O29_2 O 0.5855(6) 1.4067(5) 0.4309(3)
Cd2_2 Cd 0.63034(7) 0.57486(5) 0.30843(3)
Cd2_3 Cd 0.63034(7) 1.57486(5) 0.30843(3)
Cd2A Cd 0.36966(7) 1.07486(5) 0.19157(3)
loop_
_geom_bond_atom_site_label_1
_geom_bond_atom_site_label_2
_geom_bond_site_symmetry_1
_geom_bond_site_symmetry_2
Tb1 O3 1_555 1_555
Tb2 O1 1_555 1_555
C1 N1 1_555 1_555
O1 C3 1_555 1_555
O2 Tb2 1_555 1_555
C2 O2 1_555 1_555
C3 O3 1_555 1_555
N1 C9 1_555 1_555
N2 C6 1_555 1_555
C4 C1 1_555 1_555
C5 C8 1_555 1_555
O4 Tb1 1_555 1_555
C6 C10 1_555 1_555
C7 H1 1_555 1_555
H2 C7 1_555 1_555
H3 C7 1_555 1_555
C8 C4 1_555 1_555
H4 C8 1_555 1_555
C9 C5 1_555 1_555
C10 C3 1_555 1_555
C11 C1 1_555 1_555
H5 C11 1_555 1_555
H6 C11 1_555 1_555
H7 C11 1_555 1_555
C12 C10 1_555 1_555
H8 C12 1_555 1_555
O5 Tb1 1_555 1_555
O6 Tb1 1_555 1_555
C13 C12 1_555 1_555
C14 C13 1_555 1_555
O7 C14 1_555 1_555
O8 C14 1_555 1_555
C15 N2 1_555 1_555
C16 C15 1_555 1_555
H9 C16 1_555 1_555
H10 C16 1_555 1_555
H11 C16 1_555 1_555
C17 C5 1_555 1_555
O9 C17 1_555 1_555
O10 C17 1_555 1_555
S1 O11 1_555 1_555
O11 Tb1 1_555 1_555
O12 Tb1 1_555 1_555
O13 S1 1_555 1_555
O14 S1 1_555 1_555
S2 O15 1_555 1_555
O15 Tb2 1_555 1_555
O16 Tb2 1_555 1_555
O17 S2 1_555 1_555
O18 S2 1_555 1_555
O19 Tb1 1_555 1_555
O20 Tb2 1_555 1_555
O21 Tb1 1_555 1_555
O22 Tb2 1_555 1_555
O23 Tb2 1_555 1_555
C18 H12 1_555 1_555
C19 O22 1_555 1_555
C20 C18 1_555 1_555
H13 C20 1_555 1_555
C21 H14 1_555 1_555
C22 C18 1_555 1_555
C23 C20 1_555 1_555
C24 C21 1_555 1_555
H15 C24 1_555 1_555
C25 C26 1_555 1_555
C26 H16 1_555 1_555
C27 O5 1_555 1_555
C28 C25 1_555 1_555
H17 C28 1_555 1_555
C29 C30 1_555 1_555
C30 C26 1_555 1_555
H18 C30 1_555 1_555
C31 C28 1_555 1_555
H19 C31 1_555 1_555
C32 C29 1_555 1_555
C33 C6 1_555 1_555
H20 C33 1_555 1_555
H21 C33 1_555 1_555
H22 C33 1_555 1_555
O24 C32 1_555 1_555
O25 C32 1_555 1_555
Cd1 O22 1_555 1_555
O26 Cd1 1_555 1_555
O27 Cd1 1_555 1_555
H23 O27 1_555 1_555
H24 O27 1_555 1_555
C34 C23 1_555 1_555
O28 C34 1_555 1_555
O29 C34 1_555 1_555
Cd2 O24 1_555 1_555
O30 Cd2 1_555 1_555
H25 O30 1_555 1_555
H26 O30 1_555 1_555
H27 O19 1_555 1_555
H28 O19 1_555 1_555
H29 O21 1_555 1_555
H30 O21 1_555 1_555
H31 O20 1_555 1_555
H32 O20 1_555 1_555
H33 O26 1_555 1_555
H34 O26 1_555 1_555
Tb1_2 O25 1_555 1_555
Tb2_2 O28 1_555 1_555
Tb2B O13 1_555 1_555
O5_2 Cd2 1_555 1_555
O7_2 Cd2 1_555 1_555
O8_2 Cd2 1_555 1_555
O9_2 Cd1 1_555 1_555
O10_2 Cd1 1_555 1_555
O13B Tb2 1_555 1_555
O17A Cd2 1_555 1_555
O25_2 Tb1 1_555 1_555
Cd1_2 O28 1_555 1_555
Cd1_3 O9 1_555 1_555
O28_2 Tb2 1_555 1_555
O29_2 Cd1 1_555 1_555
Cd2_2 O5 1_555 1_555
Cd2_3 O7 1_555 1_555
Cd2A O17 1_555 1_555
C2 C4 1_555 1_555
C2 O4 1_555 1_555
C7 C9 1_555 1_555
O6 C27 1_555 1_555
C13 C15 1_555 1_555
O8 Cd2_3 1_555 1_555
O10 Cd1_3 1_555 1_555
S1 O12 1_555 1_555
S2 O16 1_555 1_555
O23 C19 1_555 1_555
C19 C22 1_555 1_555
C21 C22 1_555 1_555
C23 C24 1_555 1_555
C25 C27 1_555 1_555
C29 C31 1_555 1_555
O25 Cd2 1_555 1_555
Cd1 O28_2 1_555 1_555
O29 Cd1_2 1_555 1_555
Tb1_2 O5_2 1_555 1_555
O25_2 Cd2_2 1_555 1_555

#END
