
#######################################################################
#
#                 Cambridge Crystallographic Data Centre
#                                CCDC 
#
#######################################################################
#
# If this CIF has been generated from an entry in the Cambridge 
# Structural Database, then it will include bibliographic, chemical, 
# crystal, experimental, refinement or atomic coordinate data resulting 
# from the CCDC's data processing and validation procedures.
#
#######################################################################

data_TOHYIA
_symmetry_cell_setting           monoclinic
_symmetry_space_group_name_H-M   'C 2/c'
_symmetry_Int_Tables_number      15
_space_group_name_Hall           '-C 2yn'
loop_
_symmetry_equiv_pos_site_id
_symmetry_equiv_pos_as_xyz
1 x,y,z
2 -x,y,1/2-z
3 1/2+x,1/2+y,z
4 1/2-x,1/2+y,1/2-z
5 -x,-y,-z
6 x,-y,1/2+z
7 1/2-x,1/2-y,-z
8 1/2+x,1/2-y,1/2+z
_cell_length_a                   14.5248(13)
_cell_length_b                   10.6579(10)
_cell_length_c                   40.206(4)
_cell_angle_alpha                90
_cell_angle_beta                 97.5880(10)
_cell_angle_gamma                90
_cell_volume                     6169.54
loop_
_atom_site_label
_atom_site_type_symbol
_atom_site_fract_x
_atom_site_fract_y
_atom_site_fract_z
Eu1 Eu 0.987229(19) 0.47199(3) 0.451341(7)
Eu2 Eu 0.315354(19) 0.53100(3) 0.252570(7)
C1 C 0.7130(4) 0.4340(6) 0.37526(15)
C2 C 1.3212(4) 0.6039(6) 0.49907(15)
H1 H 1.2989 0.6557 0.4812
C3 C 0.5287(4) 0.5068(6) 0.30199(15)
C4 C 0.0080(4) 0.4119(6) 0.29602(16)
H2 H -0.0075 0.4587 0.2766
C5 C 1.2674(4) 0.5036(5) 0.50746(15)
O1 O 0.4424(3) 0.4986(4) 0.29519(11)
O2 O 1.1594(2) 0.5004(3) 0.45785(7)
O3 O 1.0334(2) 0.2906(3) 0.42370(7)
H3 H 1.0484 0.2910 0.4040
H4 H 1.0484 0.2182 0.4315
C6 C 1.1720(4) 0.4898(5) 0.48868(15)
C7 C 0.0982(4) 0.4149(7) 0.31232(17)
O4 O 0.8462(3) 0.4609(5) 0.41650(11)
C8 C -0.0357(4) 0.2795(6) 0.33901(16)
O5 O 0.2505(3) 0.4151(4) 0.29646(11)
C9 C 0.1722(5) 0.4710(8) 0.29454(19)
C10 C 1.4429(4) 0.5397(6) 0.54131(16)
C11 C 0.5769(4) 0.4438(6) 0.33346(16)
C12 C 1.4072(4) 0.6273(6) 0.51692(15)
O6 O 0.1565(3) 0.5643(5) 0.27624(12)
N1 N 0.0487(4) 0.2923(5) 0.35648(12)
N2 N 1.3928(3) 0.4370(5) 0.54785(13)
C13 C -0.0592(4) 0.3402(6) 0.30835(16)
C14 C 0.8078(4) 0.4883(6) 0.38705(16)
N3 N 0.5932(4) 0.2819(6) 0.37488(15)
C15 C 1.3052(4) 0.4215(6) 0.53267(15)
C16 C 0.5444(5) 0.3370(7) 0.34798(19)
C17 C 1.2540(4) 0.3096(6) 0.54374(17)
H5 H 1.2966 0.2412 0.5487
H6 H 1.2061 0.2853 0.5261
H7 H 1.2264 0.3308 0.5634
C18 C 0.6756(4) 0.3280(7) 0.38841(16)
C19 C 0.6621(3) 0.4910(4) 0.34752(10)
H8 H 0.6858 0.5621 0.3383
O7 O 0.3874(3) 0.3182(4) 0.24388(10)
H9 H 0.3517 0.3442 0.2576
H10 H 0.3576 0.2566 0.2344
C20 C 0.4569(5) 0.2699(8) 0.3342(2)
H11 H 0.4630 0.1822 0.3395
H12 H 0.4460 0.2804 0.3103
H13 H 0.4056 0.3041 0.3440
C21 C -0.1040(5) 0.1989(7) 0.35436(16)
H14 H -0.0943 0.1124 0.3491
H15 H -0.1661 0.2230 0.3455
H16 H -0.0951 0.2097 0.3783
O8 O 0.8434(2) 0.5543(3) 0.36668(8)
O9 O 1.0167(2) 0.5571(3) 0.39828(8)
H17 H 0.9639 0.5608 0.3862
H18 H 1.0381 0.6305 0.3985
C22 C 0.1157(4) 0.3569(7) 0.34381(16)
C23 C 0.7221(3) 0.2522(5) 0.41732(14)
H19 H 0.6797 0.1899 0.4234
H20 H 0.7402 0.3065 0.4361
H21 H 0.7762 0.2119 0.4109
O10 O 0.2271(3) 0.6654(4) 0.20950(10)
H22 H 0.2398 0.7411 0.2052
H23 H 0.1965 0.6374 0.1916
C24 C 0.2058(5) 0.3676(7) 0.36673(17)
H24 H 0.1934 0.3812 0.3893
H25 H 0.2410 0.4369 0.3598
H26 H 0.2408 0.2916 0.3658
C25 C -0.1530(5) 0.3295(7) 0.28817(19)
O11 O -0.2025(4) 0.4240(5) 0.28416(14)
O12 O -0.1776(3) 0.2267(5) 0.27577(13)
O13 O 0.5801(3) 0.5658(4) 0.28459(10)
O14 O 1.1033(3) 0.4672(4) 0.50519(10)
C26 C 1.4544(4) 0.7497(6) 0.51087(15)
O15 O 1.4887(3) 0.8097(4) 0.53616(10)
O16 O 1.4503(3) 0.7846(4) 0.48094(11)
C27 C 1.5376(4) 0.5493(7) 0.56141(17)
H27 H 1.5324 0.5884 0.5826
H28 H 1.5773 0.5987 0.5493
H29 H 1.5634 0.4668 0.5652
Eu1B Eu 1.487229(19) 0.97199(3) 0.451341(7)
Eu1D Eu 1.012771(19) 0.52801(3) 0.548659(7)
Eu1F Eu 1.512771(19) 1.02801(3) 0.548659(7)
Eu2A Eu -0.315354(19) 0.53100(3) 0.247430(7)
Eu2A_2 Eu 0.684646(19) 0.53100(3) 0.247430(7)
Eu2B Eu -0.184646(19) 0.03100(3) 0.252570(7)
O11A O 0.2025(4) 0.4240(5) 0.21584(14)
O12B O 0.3224(3) 0.7267(5) 0.27577(13)
O13A O 0.4199(3) 0.5658(4) 0.21541(10)
O14D O 0.8967(3) 0.5328(4) 0.49481(10)
O15F O 1.0113(3) 0.6903(4) 0.46384(10)
O16B O 0.9503(3) 0.2846(4) 0.48094(11)
loop_
_geom_bond_atom_site_label_1
_geom_bond_atom_site_label_2
_geom_bond_site_symmetry_1
_geom_bond_site_symmetry_2
Eu1 O2 1_555 1_555
Eu2 O1 1_555 1_555
C1 C14 1_555 1_555
C2 H1 1_555 1_555
C3 O1 1_555 1_555
C4 H2 1_555 1_555
C5 C2 1_555 1_555
O2 C6 1_555 1_555
O3 Eu1 1_555 1_555
H3 O3 1_555 1_555
H4 O3 1_555 1_555
C6 C5 1_555 1_555
C7 C4 1_555 1_555
O4 Eu1 1_555 1_555
C8 N1 1_555 1_555
O5 Eu2 1_555 1_555
C9 C7 1_555 1_555
C10 C12 1_555 1_555
C11 C3 1_555 1_555
C12 C2 1_555 1_555
O6 Eu2 1_555 1_555
N1 C22 1_555 1_555
N2 C10 1_555 1_555
C13 C4 1_555 1_555
C14 O4 1_555 1_555
N3 C16 1_555 1_555
C15 C5 1_555 1_555
C16 C11 1_555 1_555
C17 C15 1_555 1_555
H5 C17 1_555 1_555
H6 C17 1_555 1_555
H7 C17 1_555 1_555
C18 C1 1_555 1_555
C19 C1 1_555 1_555
H8 C19 1_555 1_555
O7 Eu2 1_555 1_555
H9 O7 1_555 1_555
H10 O7 1_555 1_555
C20 C16 1_555 1_555
H11 C20 1_555 1_555
H12 C20 1_555 1_555
H13 C20 1_555 1_555
C21 C8 1_555 1_555
H14 C21 1_555 1_555
H15 C21 1_555 1_555
H16 C21 1_555 1_555
O8 C14 1_555 1_555
O9 Eu1 1_555 1_555
H17 O9 1_555 1_555
H18 O9 1_555 1_555
C22 C7 1_555 1_555
C23 C18 1_555 1_555
H19 C23 1_555 1_555
H20 C23 1_555 1_555
H21 C23 1_555 1_555
O10 Eu2 1_555 1_555
H22 O10 1_555 1_555
H23 O10 1_555 1_555
C24 C22 1_555 1_555
H24 C24 1_555 1_555
H25 C24 1_555 1_555
H26 C24 1_555 1_555
C25 C13 1_555 1_555
O11 C25 1_555 1_555
O12 C25 1_555 1_555
O13 C3 1_555 1_555
O14 Eu1 1_555 1_555
C26 C12 1_555 1_555
O15 C26 1_555 1_555
O16 C26 1_555 1_555
C27 C10 1_555 1_555
H27 C27 1_555 1_555
H28 C27 1_555 1_555
H29 C27 1_555 1_555
Eu1B O16 1_555 1_555
Eu1D O14 1_555 1_555
Eu1F O15 1_555 1_555
Eu2A O11 1_555 1_555
Eu2A_2 O13 1_555 1_555
Eu2B O12 1_555 1_555
O11A Eu2 1_555 1_555
O12B Eu2 1_555 1_555
O13A Eu2 1_555 1_555
O14D Eu1 1_555 1_555
O15F Eu1 1_555 1_555
O16B Eu1 1_555 1_555
C6 O14 1_555 1_555
C8 C13 1_555 1_555
O5 C9 1_555 1_555
C9 O6 1_555 1_555
C11 C19 1_555 1_555
N2 C15 1_555 1_555
N3 C18 1_555 1_555
Eu1D O14D 1_555 1_555

#END
