
#######################################################################
#
#                 Cambridge Crystallographic Data Centre
#                                CCDC 
#
#######################################################################
#
# If this CIF has been generated from an entry in the Cambridge 
# Structural Database, then it will include bibliographic, chemical, 
# crystal, experimental, refinement or atomic coordinate data resulting 
# from the CCDC's data processing and validation procedures.
#
#######################################################################

data_TOHYEW
_symmetry_cell_setting           monoclinic
_symmetry_space_group_name_H-M   'P 21/c'
_symmetry_Int_Tables_number      14
_space_group_name_Hall           '-P 2ybc'
loop_
_symmetry_equiv_pos_site_id
_symmetry_equiv_pos_as_xyz
1 x,y,z
2 -x,1/2+y,1/2-z
3 -x,-y,-z
4 x,1/2-y,1/2+z
_cell_length_a                   10.279(3)
_cell_length_b                   14.740(4)
_cell_length_c                   28.020(7)
_cell_angle_alpha                90
_cell_angle_beta                 97.274(3)
_cell_angle_gamma                90
_cell_volume                     4211.21
loop_
_atom_site_label
_atom_site_type_symbol
_atom_site_fract_x
_atom_site_fract_y
_atom_site_fract_z
Dy1 Dy 0.59539(7) 0.63205(5) 0.08441(3)
S1 S 0.6951(4) 0.6408(3) 0.19514(13)
O1 O 0.4304(10) 0.5923(7) 0.1306(4)
O2 O 0.4143(11) 0.5625(8) 0.0357(4)
H1 H 0.3817 0.5614 0.0058
H2 H 0.3716 0.5276 0.0532
O3 O 0.8271(12) 0.6387(8) 0.0884(4)
O4 O 0.7498(11) 0.7744(8) 0.0753(4)
C1 C 0.9805(15) 0.7508(10) 0.0756(5)
O5 O 0.6611(11) 0.4827(8) 0.0651(4)
C2 C 0.7809(17) 0.1693(11) 0.0604(6)
O6 O 0.5709(11) 0.3804(8) 0.1088(4)
C3 C 0.7014(16) 0.2410(10) 0.0675(5)
H3 H 0.6159 0.2292 0.0733
C4 C 0.8461(15) 0.7202(10) 0.0800(5)
N1 N 0.9449(14) 0.2777(9) 0.0497(5)
O7 O 0.6416(12) 0.7143(8) 0.1619(4)
O8 O 0.8232(13) 0.6650(9) 0.2193(4)
C5 C 0.8669(16) 0.3492(11) 0.0564(5)
N2 N 0.0677(14) 0.6958(10) 0.1980(5)
O9 O 0.6998(12) 0.5605(8) 0.1644(4)
C6 C 0.7323(18) 0.0744(12) 0.0634(6)
C7 C 0.2672(15) 0.6397(10) 0.1773(5)
C8 C 0.7427(15) 0.3317(10) 0.0665(5)
C9 C 0.9107(16) 0.1887(11) 0.0522(5)
C10 C 1.0745(16) 0.6853(11) 0.0687(5)
H4 H 1.0508 0.6245 0.0665
C11 C 0.1418(16) 0.6228(11) 0.1876(5)
C12 C 1.0197(16) 0.8416(11) 0.0777(5)
H5 H 0.9577 0.8862 0.0814
C13 C 0.6535(15) 0.4048(10) 0.0807(5)
O10 O 0.6137(13) 0.0652(9) 0.0662(4)
O11 O 0.8093(13) 0.0093(9) 0.0666(5)
C14 C 0.2363(16) 0.8010(11) 0.1931(5)
C15 C 0.3140(17) 0.7256(11) 0.1818(5)
H6 H 0.4008 0.7360 0.1772
C16 C 0.1090(17) 0.7826(11) 0.2003(6)
O12 O 0.3304(11) 0.4854(8) 0.1695(4)
C17 C 0.3466(15) 0.5654(10) 0.1580(5)
Dy2 Dy 0.39873(7) 0.34228(5) 0.14958(3)
O13 O 0.5772(12) 0.4158(8) 0.2000(4)
H7 H 0.5548 0.4279 0.2284
H8 H 0.5980 0.4668 0.1869
O14 O 0.6050(12) 0.6257(8) 0.2311(4)
O15 O 0.3809(14) 0.3249(10) 0.2341(5)
H9 H 0.3752 0.2686 0.2440
H10 H 0.4617 0.3322 0.2539
C18 C 1.2402(16) 0.7992(11) 0.0685(5)
C19 C 1.1473(16) 0.8671(12) 0.0746(5)
H11 H 1.1717 0.9279 0.0766
C20 C 1.2002(16) 0.7098(11) 0.0651(5)
H12 H 1.2610 0.6651 0.0603
O16 O 1.4658(11) 0.7605(8) 0.0693(4)
C21 C 1.3824(16) 0.8232(11) 0.0687(5)
O17 O 1.4153(12) 0.9060(8) 0.0695(4)
O18 O 0.2494(12) 0.1989(8) 0.1688(4)
O19 O 0.1643(13) 0.3305(9) 0.1480(4)
C22 C 0.0165(17) 0.2225(11) 0.1717(6)
C23 C -0.0775(15) 0.2888(11) 0.1740(5)
H13 H -0.0550 0.3495 0.1712
C24 C -0.0181(17) 0.1318(11) 0.1769(5)
H14 H 0.0453 0.0868 0.1769
C25 C 0.1504(16) 0.2524(11) 0.1632(5)
C26 C -0.2408(16) 0.1766(11) 0.1825(5)
C27 C -0.2044(18) 0.2660(12) 0.1804(6)
H15 H -0.2655 0.3115 0.1834
C28 C -0.1465(16) 0.1083(11) 0.1821(5)
H16 H -0.1694 0.0478 0.1854
O20 O -0.4690(12) 0.2124(8) 0.1724(4)
C29 C -0.3841(17) 0.1525(11) 0.1834(6)
S2 S 0.3031(4) 0.3339(3) 0.04004(13)
O21 O 0.3588(12) 0.2596(8) 0.0730(4)
O22 O 0.3885(11) 0.3484(7) 0.0022(4)
O23 O 0.3049(11) 0.4150(8) 0.0718(4)
O24 O 0.1715(12) 0.3109(8) 0.0189(4)
Cd1 Cd -0.63116(11) 0.07459(8) 0.19135(4)
Cd2 Cd 0.63746(12) 0.90522(8) 0.07126(5)
O25 O 0.6772(13) 0.9018(10) 0.1532(4)
H17 H 0.6291 0.9435 0.1668
H18 H 0.6586 0.8461 0.1561
O26 O 0.6079(14) 0.8853(9) -0.0089(5)
H19 H 0.6702 0.9126 -0.0229
H20 H 0.5317 0.9082 -0.0219
O27 O 0.4183(12) 0.9018(8) 0.1983(4)
O28 O 0.2211(13) 0.9613(9) 0.1936(4)
C30 C 0.2953(16) 0.8954(11) 0.1951(5)
O29 O -0.4114(12) 0.0728(9) 0.1934(4)
O30 O -0.6668(12) 0.0627(9) 0.1094(4)
H21 H -0.7044 0.1125 0.0996
H22 H -0.6243 0.0154 0.0989
C31 C 0.9294(18) 0.4402(12) 0.0533(6)
H23 H 1.0230 0.4343 0.0601
H24 H 0.8984 0.4804 0.0764
H25 H 0.9071 0.4645 0.0216
C32 C 1.0193(18) 0.1229(12) 0.0468(6)
H26 H 1.0859 0.1526 0.0314
H27 H 0.9849 0.0724 0.0275
H28 H 1.0564 0.1016 0.0779
C33 C 0.0064(18) 0.8515(13) 0.2082(6)
H29 H -0.0297 0.8769 0.1779
H30 H 0.0453 0.8988 0.2288
H31 H -0.0622 0.8228 0.2230
C34 C 0.0715(19) 0.5339(13) 0.1874(7)
H32 H -0.0214 0.5444 0.1841
H33 H 0.0982 0.5024 0.2170
H34 H 0.0925 0.4978 0.1609
Dy1_2 Dy 1.59539(7) 0.63205(5) 0.08441(3)
Dy1B Dy 0.40461(7) 0.36795(5) -0.08441(3)
O10_2 O 0.6137(13) 1.0652(9) 0.0662(4)
O11_2 O 0.8093(13) 1.0093(9) 0.0666(5)
Dy2_2 Dy -0.60127(7) 0.34228(5) 0.14958(3)
O14A O -0.6050(12) 0.1257(8) 0.2689(4)
O16_2 O 0.4658(11) 0.7605(8) 0.0693(4)
O17_2 O 0.4153(12) 0.9060(8) 0.0695(4)
O18_2 O -0.7506(12) 0.1989(8) 0.1688(4)
O20_2 O 0.5310(12) 0.2124(8) 0.1724(4)
O22B O 0.6115(11) 0.6516(7) -0.0022(4)
Cd1_2 Cd 0.36884(11) 0.07459(8) 0.19135(4)
Cd1_3 Cd 0.36884(11) 1.07459(8) 0.19135(4)
Cd1A Cd 0.63116(11) 0.57459(8) 0.30865(4)
Cd2_2 Cd 0.63746(12) -0.09478(8) 0.07126(5)
Cd2_3 Cd 1.63746(12) 0.90522(8) 0.07126(5)
O27_2 O -0.5817(12) -0.0982(8) 0.1983(4)
O28_2 O -0.7789(13) -0.0387(9) 0.1936(4)
loop_
_geom_bond_atom_site_label_1
_geom_bond_atom_site_label_2
_geom_bond_site_symmetry_1
_geom_bond_site_symmetry_2
Dy1 O1 1_555 1_555
S1 O7 1_555 1_555
O1 C17 1_555 1_555
O2 Dy1 1_555 1_555
H1 O2 1_555 1_555
H2 O2 1_555 1_555
O3 Dy1 1_555 1_555
O4 Dy1 1_555 1_555
C1 C4 1_555 1_555
O5 Dy1 1_555 1_555
C2 C3 1_555 1_555
O6 C13 1_555 1_555
C3 H3 1_555 1_555
C4 O3 1_555 1_555
N1 C5 1_555 1_555
O7 Dy1 1_555 1_555
O8 S1 1_555 1_555
C5 C8 1_555 1_555
N2 C11 1_555 1_555
O9 Dy1 1_555 1_555
C6 C2 1_555 1_555
C7 C11 1_555 1_555
C8 C3 1_555 1_555
C9 C2 1_555 1_555
C10 C1 1_555 1_555
H4 C10 1_555 1_555
C11 C34 1_555 1_555
C12 C1 1_555 1_555
H5 C12 1_555 1_555
C13 O5 1_555 1_555
O10 C6 1_555 1_555
O11 C6 1_555 1_555
C14 C15 1_555 1_555
C15 C7 1_555 1_555
H6 C15 1_555 1_555
C16 N2 1_555 1_555
O12 C17 1_555 1_555
C17 C7 1_555 1_555
Dy2 O6 1_555 1_555
O13 Dy2 1_555 1_555
H7 O13 1_555 1_555
H8 O13 1_555 1_555
O14 S1 1_555 1_555
O15 Dy2 1_555 1_555
H9 O15 1_555 1_555
H10 O15 1_555 1_555
C18 C19 1_555 1_555
C19 C12 1_555 1_555
H11 C19 1_555 1_555
C20 C10 1_555 1_555
H12 C20 1_555 1_555
O16 C21 1_555 1_555
C21 C18 1_555 1_555
O17 C21 1_555 1_555
O18 Dy2 1_555 1_555
O19 Dy2 1_555 1_555
C22 C23 1_555 1_555
C23 H13 1_555 1_555
C24 C22 1_555 1_555
H14 C24 1_555 1_555
C25 O18 1_555 1_555
C26 C27 1_555 1_555
C27 C23 1_555 1_555
H15 C27 1_555 1_555
C28 C24 1_555 1_555
H16 C28 1_555 1_555
O20 C29 1_555 1_555
C29 C26 1_555 1_555
S2 O21 1_555 1_555
O21 Dy2 1_555 1_555
O22 S2 1_555 1_555
O23 Dy2 1_555 1_555
O24 S2 1_555 1_555
Cd1 O20 1_555 1_555
Cd2 O4 1_555 1_555
O25 Cd2 1_555 1_555
H17 O25 1_555 1_555
H18 O25 1_555 1_555
O26 Cd2 1_555 1_555
H19 O26 1_555 1_555
H20 O26 1_555 1_555
O27 C30 1_555 1_555
O28 C30 1_555 1_555
C30 C14 1_555 1_555
O29 C29 1_555 1_555
O30 Cd1 1_555 1_555
H21 O30 1_555 1_555
H22 O30 1_555 1_555
C31 C5 1_555 1_555
H23 C31 1_555 1_555
H24 C31 1_555 1_555
H25 C31 1_555 1_555
C32 C9 1_555 1_555
H26 C32 1_555 1_555
H27 C32 1_555 1_555
H28 C32 1_555 1_555
C33 C16 1_555 1_555
H29 C33 1_555 1_555
H30 C33 1_555 1_555
H31 C33 1_555 1_555
C34 H32 1_555 1_555
H33 C34 1_555 1_555
H34 C34 1_555 1_555
Dy1_2 O16 1_555 1_555
Dy1B O22 1_555 1_555
O10_2 Cd2 1_555 1_555
O11_2 Cd2 1_555 1_555
Dy2_2 O20 1_555 1_555
O14A Cd1 1_555 1_555
O16_2 Dy1 1_555 1_555
O17_2 Cd2 1_555 1_555
O18_2 Cd1 1_555 1_555
O20_2 Dy2 1_555 1_555
O22B Dy1 1_555 1_555
Cd1_2 O18 1_555 1_555
Cd1_3 O27 1_555 1_555
Cd1A O14 1_555 1_555
Cd2_2 O10 1_555 1_555
Cd2_3 O16 1_555 1_555
O27_2 Cd1 1_555 1_555
O28_2 Cd1 1_555 1_555
S1 O9 1_555 1_555
O4 C4 1_555 1_555
N1 C9 1_555 1_555
C8 C13 1_555 1_555
O11 Cd2_2 1_555 1_555
C14 C16 1_555 1_555
O12 Dy2 1_555 1_555
C18 C20 1_555 1_555
O17 Cd2_3 1_555 1_555
O19 C25 1_555 1_555
C22 C25 1_555 1_555
C26 C28 1_555 1_555
S2 O23 1_555 1_555
Cd1 O29 1_555 1_555
Cd2 O16_2 1_555 1_555
O28 Cd1_3 1_555 1_555
Dy2_2 O18_2 1_555 1_555
O20_2 Cd1_2 1_555 1_555

#END
