
#######################################################################
#
#                 Cambridge Crystallographic Data Centre
#                                CCDC 
#
#######################################################################
#
# If this CIF has been generated from an entry in the Cambridge 
# Structural Database, then it will include bibliographic, chemical, 
# crystal, experimental, refinement or atomic coordinate data resulting 
# from the CCDC's data processing and validation procedures.
#
#######################################################################

data_TOHZOH
_symmetry_cell_setting           monoclinic
_symmetry_space_group_name_H-M   'C 2/c'
_symmetry_Int_Tables_number      15
_space_group_name_Hall           '-C 2yn'
loop_
_symmetry_equiv_pos_site_id
_symmetry_equiv_pos_as_xyz
1 x,y,z
2 -x,y,1/2-z
3 1/2+x,1/2+y,z
4 1/2-x,1/2+y,1/2-z
5 -x,-y,-z
6 x,-y,1/2+z
7 1/2-x,1/2-y,-z
8 1/2+x,1/2-y,1/2+z
_cell_length_a                   23.560(5)
_cell_length_b                   11.451(2)
_cell_length_c                   11.957(2)
_cell_angle_alpha                90
_cell_angle_beta                 120.22(3)
_cell_angle_gamma                90
_cell_volume                     2787.43
loop_
_atom_site_label
_atom_site_type_symbol
_atom_site_fract_x
_atom_site_fract_y
_atom_site_fract_z
O1 O 0.09735(14) 0.0067(3) 0.2654(3)
C1 C 0.1387(2) 0.0902(4) 0.3181(5)
C2 C 0.1871(2) 0.1052(4) 0.2728(4)
C3 C 0.2358(3) 0.1898(6) 0.3292(6)
Eu1 Eu 0.5000 0.43590(3) 0.2500
O2 O 0.49057(15) 0.3367(3) 0.0631(3)
O3 O 0.5382(2) 0.5878(4) 0.4076(4)
N1 N 0.41504(18) 0.2667(3) 0.1547(4)
C4 C 0.3212(2) 0.1621(4) 0.1349(4)
C5 C 0.3536(3) 0.1404(5) -0.0246(5)
C6 C 0.4047(2) 0.2172(4) 0.0445(4)
O4 O 0.14192(17) 0.1564(3) 0.4032(4)
O5 O 0.45027(19) 0.1975(3) -0.0898(4)
C7 C 0.2284(3) 0.0553(5) 0.1328(6)
C8 C 0.2768(2) 0.1398(4) 0.1875(4)
C9 C 0.3740(2) 0.2391(5) 0.1977(5)
C10 C 0.4521(2) 0.2523(4) 0.0009(4)
C11 C 0.1838(3) 0.0397(5) 0.1742(6)
C12 C 0.3116(3) 0.1143(5) 0.0214(5)
C13 C 0.2804(3) 0.2052(6) 0.2887(5)
H1 H 0.529(2) 0.608(4) 0.454(4)
H2 H 0.272(3) 0.069(4) -0.035(6)
H3 H 0.348(3) 0.098(5) -0.097(5)
H4 H 0.569(3) 0.605(6) 0.422(6)
H5 H 0.152(3) -0.012(6) 0.129(6)
H6 H 0.386(3) 0.267(5) 0.282(6)
H7 H 0.223(3) 0.012(6) 0.057(6)
H8 H 0.314(3) 0.266(6) 0.334(6)
H9 H 0.242(3) 0.232(6) 0.403(6)
O1A O 0.90265(14) 0.0067(3) 0.2346(3)
C1A C 0.8613(2) 0.0902(4) 0.1819(5)
C2A C 0.8129(2) 0.1052(4) 0.2272(4)
C3A C 0.7642(3) 0.1898(6) 0.1708(6)
O2A O 0.50943(15) 0.3367(3) 0.4369(3)
O3A O 0.4618(2) 0.5878(4) 0.0924(4)
N1A N 0.58496(18) 0.2667(3) 0.3453(4)
C4A C 0.6788(2) 0.1621(4) 0.3651(4)
C5A C 0.6464(3) 0.1404(5) 0.5246(5)
C6A C 0.5953(2) 0.2172(4) 0.4555(4)
O4A O 0.85808(17) 0.1564(3) 0.0968(4)
O5A O 0.54973(19) 0.1975(3) 0.5898(4)
C7A C 0.7716(3) 0.0553(5) 0.3672(6)
C8A C 0.7232(2) 0.1398(4) 0.3125(4)
C9A C 0.6260(2) 0.2391(5) 0.3023(5)
C10A C 0.5479(2) 0.2523(4) 0.4991(4)
C11A C 0.8162(3) 0.0397(5) 0.3258(6)
C12A C 0.6884(3) 0.1143(5) 0.4786(5)
C13A C 0.7196(3) 0.2052(6) 0.2113(5)
H1A H 0.471(2) 0.608(4) 0.046(4)
H2A H 0.728(3) 0.069(4) 0.535(6)
H3A H 0.652(3) 0.098(5) 0.597(5)
H4A H 0.431(3) 0.605(6) 0.078(6)
H5A H 0.848(3) -0.012(6) 0.371(6)
H6A H 0.614(3) 0.267(5) 0.218(6)
H7A H 0.777(3) 0.012(6) 0.443(6)
H8A H 0.686(3) 0.266(6) 0.166(6)
H9A H 0.758(3) 0.232(6) 0.097(6)
O1B O 0.59735(14) 0.5067(3) 0.2654(3)
O1C O 0.40265(14) 0.5067(3) 0.2346(3)
Eu1B Eu 0.0000 -0.06410(3) 0.2500
Eu1B_2 Eu 1.0000 -0.06410(3) 0.2500
C14 C 0.4428(4) 0.9062(6) 0.1567(7)
H10 H 0.4271 0.9522 0.2026
H11 H 0.4085 0.8549 0.0975
H12 H 0.4557 0.9568 0.1094
N2 N 0.5000 0.8361(5) 0.2500
H13 H 0.4874 0.7897 0.2944
H13A H 0.5126 0.7897 0.2056
C14A C 0.5572(4) 0.9062(6) 0.3433(7)
H10A H 0.5729 0.9522 0.2974
H11A H 0.5915 0.8549 0.4025
H12A H 0.5443 0.9568 0.3906
H14? H 0.4874 0.7897 0.2944
loop_
_geom_bond_atom_site_label_1
_geom_bond_atom_site_label_2
_geom_bond_site_symmetry_1
_geom_bond_site_symmetry_2
O1 C1 1_555 1_555
C1 C2 1_555 1_555
C2 C3 1_555 1_555
C3 C13 1_555 1_555
Eu1 O2 1_555 1_555
O2 C10 1_555 1_555
O3 Eu1 1_555 1_555
N1 Eu1 1_555 1_555
C4 C8 1_555 1_555
C5 C6 1_555 1_555
C6 N1 1_555 1_555
O4 C1 1_555 1_555
O5 C10 1_555 1_555
C7 C8 1_555 1_555
C8 C13 1_555 1_555
C9 N1 1_555 1_555
C10 C6 1_555 1_555
C11 C2 1_555 1_555
C12 C4 1_555 1_555
C13 H8 1_555 1_555
H1 O3 1_555 1_555
H2 C12 1_555 1_555
H3 C5 1_555 1_555
H4 O3 1_555 1_555
H5 C11 1_555 1_555
H6 C9 1_555 1_555
H7 C7 1_555 1_555
H9 C3 1_555 1_555
C14 H10 1_555 1_555
H11 C14 1_555 1_555
H12 C14 1_555 1_555
N2 C14 1_555 1_555
H13 N2 1_555 1_555
O1A C1A 1_555 1_555
C1A C2A 1_555 1_555
C2A C3A 1_555 1_555
C3A C13A 1_555 1_555
O2A Eu1 1_555 1_555
O3A Eu1 1_555 1_555
N1A Eu1 1_555 1_555
C4A C8A 1_555 1_555
C5A C6A 1_555 1_555
C6A N1A 1_555 1_555
O4A C1A 1_555 1_555
O5A C10A 1_555 1_555
C7A C8A 1_555 1_555
C8A C13A 1_555 1_555
C9A N1A 1_555 1_555
C10A O2A 1_555 1_555
C11A C2A 1_555 1_555
C12A C4A 1_555 1_555
C13A H8A 1_555 1_555
H1A O3A 1_555 1_555
H2A C12A 1_555 1_555
H3A C5A 1_555 1_555
H4A O3A 1_555 1_555
H5A C11A 1_555 1_555
H6A C9A 1_555 1_555
H7A C7A 1_555 1_555
H9A C3A 1_555 1_555
O1B Eu1 1_555 1_555
O1C Eu1 1_555 1_555
Eu1B O1 1_555 1_555
Eu1B_2 O1A 1_555 1_555
H13A N2 1_555 1_555
C14A N2 1_555 1_555
H10A C14A 1_555 1_555
H11A C14A 1_555 1_555
H12A C14A 1_555 1_555
C4 C9 1_555 1_555
C5 C12 1_555 1_555
C7 C11 1_555 1_555
C4A C9A 1_555 1_555
C5A C12A 1_555 1_555
C6A C10A 1_555 1_555
C7A C11A 1_555 1_555

#END
