
#######################################################################
#
#                 Cambridge Crystallographic Data Centre
#                                CCDC 
#
#######################################################################
#
# If this CIF has been generated from an entry in the Cambridge 
# Structural Database, then it will include bibliographic, chemical, 
# crystal, experimental, refinement or atomic coordinate data resulting 
# from the CCDC's data processing and validation procedures.
#
#######################################################################

data_TOHZEX
_symmetry_cell_setting           monoclinic
_symmetry_space_group_name_H-M   'C 2/c'
_symmetry_Int_Tables_number      15
_space_group_name_Hall           '-C 2yn'
loop_
_symmetry_equiv_pos_site_id
_symmetry_equiv_pos_as_xyz
1 x,y,z
2 -x,y,1/2-z
3 1/2+x,1/2+y,z
4 1/2-x,1/2+y,1/2-z
5 -x,-y,-z
6 x,-y,1/2+z
7 1/2-x,1/2-y,-z
8 1/2+x,1/2-y,1/2+z
_cell_length_a                   23.716(5)
_cell_length_b                   11.432(2)
_cell_length_c                   11.955(2)
_cell_angle_alpha                90
_cell_angle_beta                 120.05(3)
_cell_angle_gamma                90
_cell_volume                     2805.59
loop_
_atom_site_label
_atom_site_type_symbol
_atom_site_fract_x
_atom_site_fract_y
_atom_site_fract_z
Nd1 Nd 0.5000 0.435490(18) 0.7500
O1 O 0.55156(14) 0.1941(2) 1.0921(3)
O2 O 0.51005(10) 0.33163(19) 0.9385(2)
O3 O 0.90208(10) 0.0086(2) 0.7337(2)
O4 O 0.85770(13) 0.1583(2) 0.5964(3)
O5 O 0.53877(12) 0.5918(2) 0.9107(2)
N1 N 0.58610(13) 0.2637(2) 0.8471(3)
C1 C 0.59657(14) 0.2143(3) 0.9568(3)
C2 C 0.64782(18) 0.1389(3) 1.0269(3)
H1 H 0.6540 0.1058 1.1033
C3 C 0.68969(18) 0.1134(3) 0.9817(3)
H2 H 0.7250 0.0639 1.0286
C4 C 0.67929(15) 0.1616(3) 0.8658(3)
C5 C 0.62648(17) 0.2361(3) 0.8032(3)
H3 H 0.6185 0.2691 0.7255
C6 C 0.72384(14) 0.1397(3) 0.8139(3)
C7 C 0.77212(19) 0.0559(3) 0.8680(4)
H4 H 0.7750 0.0091 0.9343
C8 C 0.81615(17) 0.0401(3) 0.8261(4)
H5 H 0.8483 -0.0168 0.8646
C9 C 0.81291(14) 0.1076(3) 0.7277(3)
C10 C 0.7643(2) 0.1902(4) 0.6711(4)
H6 H 0.7610 0.2359 0.6038
C11 C 0.72035(19) 0.2055(4) 0.7133(4)
H7 H 0.6876 0.2612 0.6733
C12 C 0.54934(15) 0.2482(3) 1.0012(3)
C13 C 0.86128(15) 0.0916(3) 0.6819(3)
H8 H 0.530(2) 0.619(4) 0.965(4)
H9 H 0.5755(13) 0.618(5) 0.929(5)
O1A O 0.44844(14) 0.1941(2) 0.4079(3)
O2A O 0.48995(10) 0.33163(19) 0.5615(2)
O3A O 0.09792(10) 0.0086(2) 0.7663(2)
O4A O 0.14230(13) 0.1583(2) 0.9036(3)
O5A O 0.46123(12) 0.5918(2) 0.5893(2)
N1A N 0.41390(13) 0.2637(2) 0.6529(3)
C1A C 0.40343(14) 0.2143(3) 0.5432(3)
C2A C 0.35218(18) 0.1389(3) 0.4731(3)
H1A H 0.3460 0.1058 0.3967
C3A C 0.31031(18) 0.1134(3) 0.5183(3)
H2A H 0.2750 0.0639 0.4714
C4A C 0.32071(15) 0.1616(3) 0.6342(3)
C5A C 0.37352(17) 0.2361(3) 0.6968(3)
H3A H 0.3815 0.2691 0.7745
C6A C 0.27616(14) 0.1397(3) 0.6861(3)
C7A C 0.22788(19) 0.0559(3) 0.6320(4)
H4A H 0.2250 0.0091 0.5657
C8A C 0.18385(17) 0.0401(3) 0.6739(4)
H5A H 0.1517 -0.0168 0.6354
C9A C 0.18709(14) 0.1076(3) 0.7723(3)
C10A C 0.2357(2) 0.1902(4) 0.8289(4)
H6A H 0.2390 0.2359 0.8962
C11A C 0.27965(19) 0.2055(4) 0.7867(4)
H7A H 0.3124 0.2612 0.8267
C12A C 0.45066(15) 0.2482(3) 0.4988(3)
C13A C 0.13872(15) 0.0916(3) 0.8181(3)
H8A H 0.470(2) 0.619(4) 0.535(4)
H9A H 0.4245(13) 0.618(5) 0.571(5)
Nd1B Nd 0.0000 -0.064510(18) 0.7500
Nd1B_2 Nd 1.0000 -0.064510(18) 0.7500
O3B O 0.40208(10) 0.5086(2) 0.7337(2)
O3C O 0.59792(10) 0.5086(2) 0.7663(2)
N2 N 1.0000 0.3384(4) 0.7500
H10 H 0.9873 0.2919 0.7942
C14 C 0.9439(3) 0.4085(4) 0.6574(6)
H11 H 0.9313 0.4610 0.7036
H12 H 0.9082 0.3576 0.6042
H13 H 0.9557 0.4527 0.6039
H10A H 1.0127 0.2919 0.7058
C14A C 1.0561(3) 0.4085(4) 0.8426(6)
H11A H 1.0687 0.4610 0.7964
H12A H 1.0918 0.3576 0.8958
H13A H 1.0443 0.4527 0.8961
H14? H 0.9873 0.2919 0.7942
loop_
_geom_bond_atom_site_label_1
_geom_bond_atom_site_label_2
_geom_bond_site_symmetry_1
_geom_bond_site_symmetry_2
Nd1 O2 1_555 1_555
O1 C12 1_555 1_555
O2 C12 1_555 1_555
O3 C13 1_555 1_555
O4 C13 1_555 1_555
O5 Nd1 1_555 1_555
N1 Nd1 1_555 1_555
C1 N1 1_555 1_555
C2 C1 1_555 1_555
H1 C2 1_555 1_555
C3 C2 1_555 1_555
H2 C3 1_555 1_555
C4 C3 1_555 1_555
C5 N1 1_555 1_555
H3 C5 1_555 1_555
C6 C4 1_555 1_555
C7 C6 1_555 1_555
H4 C7 1_555 1_555
C8 C7 1_555 1_555
H5 C8 1_555 1_555
C9 C8 1_555 1_555
C10 C9 1_555 1_555
H6 C10 1_555 1_555
C11 C6 1_555 1_555
H7 C11 1_555 1_555
C12 C1 1_555 1_555
C13 C9 1_555 1_555
H8 O5 1_555 1_555
H9 O5 1_555 1_555
N2 H10 1_555 1_555
C14 N2 1_555 1_555
H11 C14 1_555 1_555
H12 C14 1_555 1_555
H13 C14 1_555 1_555
O1A C12A 1_555 1_555
O2A Nd1 1_555 1_555
O3A C13A 1_555 1_555
O4A C13A 1_555 1_555
O5A Nd1 1_555 1_555
N1A Nd1 1_555 1_555
C1A N1A 1_555 1_555
C2A C1A 1_555 1_555
H1A C2A 1_555 1_555
C3A C2A 1_555 1_555
H2A C3A 1_555 1_555
C4A C3A 1_555 1_555
C5A N1A 1_555 1_555
H3A C5A 1_555 1_555
C6A C4A 1_555 1_555
C7A C6A 1_555 1_555
H4A C7A 1_555 1_555
C8A C7A 1_555 1_555
H5A C8A 1_555 1_555
C9A C8A 1_555 1_555
C10A C9A 1_555 1_555
H6A C10A 1_555 1_555
C11A C6A 1_555 1_555
H7A C11A 1_555 1_555
C12A O2A 1_555 1_555
C13A C9A 1_555 1_555
H8A O5A 1_555 1_555
H9A O5A 1_555 1_555
Nd1B O3A 1_555 1_555
Nd1B_2 O3 1_555 1_555
O3B Nd1 1_555 1_555
O3C Nd1 1_555 1_555
H10A N2 1_555 1_555
C14A N2 1_555 1_555
H11A C14A 1_555 1_555
H12A C14A 1_555 1_555
H13A C14A 1_555 1_555
C4 C5 1_555 1_555
C10 C11 1_555 1_555
C1A C12A 1_555 1_555
C4A C5A 1_555 1_555
C10A C11A 1_555 1_555

#END
