
#######################################################################
#
#                 Cambridge Crystallographic Data Centre
#                                CCDC 
#
#######################################################################
#
# If this CIF has been generated from an entry in the Cambridge 
# Structural Database, then it will include bibliographic, chemical, 
# crystal, experimental, refinement or atomic coordinate data resulting 
# from the CCDC's data processing and validation procedures.
#
#######################################################################

data_TOHZAT
_symmetry_cell_setting           monoclinic
_symmetry_space_group_name_H-M   'C 2/c'
_symmetry_Int_Tables_number      15
_space_group_name_Hall           '-C 2yn'
loop_
_symmetry_equiv_pos_site_id
_symmetry_equiv_pos_as_xyz
1 x,y,z
2 -x,y,1/2-z
3 1/2+x,1/2+y,z
4 1/2-x,1/2+y,1/2-z
5 -x,-y,-z
6 x,-y,1/2+z
7 1/2-x,1/2-y,-z
8 1/2+x,1/2-y,1/2+z
_cell_length_a                   23.375(8)
_cell_length_b                   11.460(2)
_cell_length_c                   11.940(2)
_cell_angle_alpha                90
_cell_angle_beta                 120.54(4)
_cell_angle_gamma                90
_cell_volume                     2754.75
loop_
_atom_site_label
_atom_site_type_symbol
_atom_site_fract_x
_atom_site_fract_y
_atom_site_fract_z
H1 H 0.256(7) 0.284(12) 0.411(14)
C1 C 0.0460(5) 0.2429(9) -0.4032(9)
Er1 Er 0.0000 0.06386(6) -0.2500
O1 O -0.0371(4) -0.0825(6) -0.1695(7)
H2 H -0.0758 -0.1229 -0.2251
H3 H -0.0132 -0.1010 -0.0815
O2 O 0.4040(3) 0.4954(6) 0.5733(6)
O3 O 0.0089(4) 0.1569(6) -0.4164(6)
O4 O 0.0474(5) 0.2978(8) -0.4909(7)
N1 N 0.0832(4) 0.2298(8) -0.1768(8)
O5 O 0.3588(4) 0.3451(7) 0.6200(7)
C2 C 0.0934(5) 0.2788(9) -0.2647(9)
C3 C 0.3632(5) 0.4133(9) 0.5421(9)
C4 C 0.2222(5) 0.3582(10) 0.1333(10)
C5 C 0.2708(6) 0.4440(11) 0.1747(10)
C6 C 0.1437(6) 0.3576(10) -0.2336(11)
C7 C 0.3141(5) 0.3948(10) 0.4001(10)
C8 C 0.1772(5) 0.3363(9) -0.0065(9)
C9 C 0.1260(6) 0.2601(12) -0.0489(10)
C10 C 0.2196(7) 0.2939(14) 0.2279(10)
C11 C 0.1876(6) 0.3840(11) -0.1010(11)
C12 C 0.3152(6) 0.4619(10) 0.3072(11)
C13 C 0.2650(7) 0.3088(14) 0.3593(12)
H4 H 0.219(5) 0.439(9) -0.088(10)
H5 H 0.350(5) 0.521(9) 0.318(9)
H6 H 0.192(5) 0.222(10) 0.200(10)
H7 H 0.271(7) 0.491(14) 0.118(15)
H8 H 0.121(5) 0.220(9) -0.003(10)
H9 H 0.146(10) 0.388(17) -0.30(2)
H1A H -0.256(7) 0.284(12) -0.911(14)
C1A C -0.0460(5) 0.2429(9) -0.0968(9)
O1A O 0.0371(4) -0.0825(6) -0.3305(7)
H2A H 0.0758 -0.1229 -0.2749
H3A H 0.0132 -0.1010 -0.4185
O2A O -0.4040(3) 0.4954(6) -1.0733(6)
O3A O -0.0089(4) 0.1569(6) -0.0836(6)
O4A O -0.0474(5) 0.2978(8) -0.0091(7)
N1A N -0.0832(4) 0.2298(8) -0.3232(8)
O5A O -0.3588(4) 0.3451(7) -1.1200(7)
C2A C -0.0934(5) 0.2788(9) -0.2353(9)
C3A C -0.3632(5) 0.4133(9) -1.0421(9)
C4A C -0.2222(5) 0.3582(10) -0.6333(10)
C5A C -0.2708(6) 0.4440(11) -0.6747(10)
C6A C -0.1437(6) 0.3576(10) -0.2664(11)
C7A C -0.3141(5) 0.3948(10) -0.9001(10)
C8A C -0.1772(5) 0.3363(9) -0.4935(9)
C9A C -0.1260(6) 0.2601(12) -0.4511(10)
C10A C -0.2196(7) 0.2939(14) -0.7279(10)
C11A C -0.1876(6) 0.3840(11) -0.3990(11)
C12A C -0.3152(6) 0.4619(10) -0.8072(11)
C13A C -0.2650(7) 0.3088(14) -0.8593(12)
H4A H -0.219(5) 0.439(9) -0.412(10)
H5A H -0.350(5) 0.521(9) -0.818(9)
H6A H -0.192(5) 0.222(10) -0.700(10)
H7A H -0.271(7) 0.491(14) -0.618(15)
H8A H -0.121(5) 0.220(9) -0.497(10)
H9A H -0.146(10) 0.388(17) -0.20(2)
Er1B Er -0.5000 0.56386(6) -1.2500
Er1B_2 Er 0.5000 0.56386(6) 0.7500
O2B O -0.0960(3) -0.0046(6) -0.4267(6)
O2C O 0.0960(3) -0.0046(6) -0.0733(6)
N2 N 0.0000 0.6668(12) 0.7500
H10 H 0.0114 0.7132 0.8191
C14 C 0.0578(8) 0.5973(14) 0.7750(15)
H11 H 0.0707 0.5479 0.8490
H12 H 0.0940 0.6483 0.7920
H13 H 0.0468 0.5500 0.7002
H10A H -0.0114 0.7132 0.6809
C14A C -0.0578(8) 0.5973(14) 0.7250(15)
H11A H -0.0707 0.5479 0.6510
H12A H -0.0940 0.6483 0.7080
H13A H -0.0468 0.5500 0.7998
H14? H 0.0114 0.7132 0.8191
loop_
_geom_bond_atom_site_label_1
_geom_bond_atom_site_label_2
_geom_bond_site_symmetry_1
_geom_bond_site_symmetry_2
H1 C13 1_555 1_555
C1 O3 1_555 1_555
Er1 O1 1_555 1_555
O1 H2 1_555 1_555
H3 O1 1_555 1_555
O2 C3 1_555 1_555
O3 Er1 1_555 1_555
O4 C1 1_555 1_555
N1 Er1 1_555 1_555
O5 C3 1_555 1_555
C2 C1 1_555 1_555
C3 C7 1_555 1_555
C4 C5 1_555 1_555
C5 C12 1_555 1_555
C6 C2 1_555 1_555
C7 C12 1_555 1_555
C8 C4 1_555 1_555
C9 N1 1_555 1_555
C10 C4 1_555 1_555
C11 C6 1_555 1_555
C12 H5 1_555 1_555
C13 C7 1_555 1_555
H4 C11 1_555 1_555
H6 C10 1_555 1_555
H7 C5 1_555 1_555
H8 C9 1_555 1_555
H9 C6 1_555 1_555
N2 H10 1_555 1_555
C14 N2 1_555 1_555
H11 C14 1_555 1_555
H12 C14 1_555 1_555
H13 C14 1_555 1_555
H1A C13A 1_555 1_555
C1A O3A 1_555 1_555
O1A Er1 1_555 1_555
H2A O1A 1_555 1_555
H3A O1A 1_555 1_555
O2A C3A 1_555 1_555
O3A Er1 1_555 1_555
O4A C1A 1_555 1_555
N1A Er1 1_555 1_555
O5A C3A 1_555 1_555
C2A C1A 1_555 1_555
C3A C7A 1_555 1_555
C4A C5A 1_555 1_555
C5A C12A 1_555 1_555
C6A C2A 1_555 1_555
C7A C12A 1_555 1_555
C8A C4A 1_555 1_555
C9A N1A 1_555 1_555
C10A C4A 1_555 1_555
C11A C6A 1_555 1_555
C12A H5A 1_555 1_555
C13A C7A 1_555 1_555
H4A C11A 1_555 1_555
H6A C10A 1_555 1_555
H7A C5A 1_555 1_555
H8A C9A 1_555 1_555
H9A C6A 1_555 1_555
Er1B O2A 1_555 1_555
Er1B_2 O2 1_555 1_555
O2B Er1 1_555 1_555
O2C Er1 1_555 1_555
H10A N2 1_555 1_555
C14A N2 1_555 1_555
H11A C14A 1_555 1_555
H12A C14A 1_555 1_555
H13A C14A 1_555 1_555
N1 C2 1_555 1_555
C8 C9 1_555 1_555
C8 C11 1_555 1_555
C10 C13 1_555 1_555
N1A C2A 1_555 1_555
C8A C9A 1_555 1_555
C8A C11A 1_555 1_555
C10A C13A 1_555 1_555

#END
