
#######################################################################
#
#                 Cambridge Crystallographic Data Centre
#                                CCDC 
#
#######################################################################
#
# If this CIF has been generated from an entry in the Cambridge 
# Structural Database, then it will include bibliographic, chemical, 
# crystal, experimental, refinement or atomic coordinate data resulting 
# from the CCDC's data processing and validation procedures.
#
#######################################################################

data_TOHZUN
_symmetry_cell_setting           monoclinic
_symmetry_space_group_name_H-M   'C 2/c'
_symmetry_Int_Tables_number      15
_space_group_name_Hall           '-C 2yn'
loop_
_symmetry_equiv_pos_site_id
_symmetry_equiv_pos_as_xyz
1 x,y,z
2 -x,y,1/2-z
3 1/2+x,1/2+y,z
4 1/2-x,1/2+y,1/2-z
5 -x,-y,-z
6 x,-y,1/2+z
7 1/2-x,1/2-y,-z
8 1/2+x,1/2-y,1/2+z
_cell_length_a                   22.613(4)
_cell_length_b                   11.387(2)
_cell_length_c                   11.942(2)
_cell_angle_alpha                90
_cell_angle_beta                 120.83(3)
_cell_angle_gamma                90
_cell_volume                     2640.47
loop_
_atom_site_label
_atom_site_type_symbol
_atom_site_fract_x
_atom_site_fract_y
_atom_site_fract_z
Gd1 Gd 0.5000 0.43593(2) 0.2500
O1 O 0.49088(14) 0.3376(3) 0.0635(3)
O2 O 0.46192(19) 0.5873(3) 0.0923(4)
O3 O 0.09704(14) 0.0063(3) 0.2648(3)
N1 N 0.41518(17) 0.2676(3) 0.1552(3)
O4 O 0.14190(18) 0.1563(3) 0.4029(3)
O5 O 0.45055(19) 0.1981(3) -0.0892(4)
C1 C 0.1381(2) 0.0899(4) 0.3167(4)
C2 C 0.3216(2) 0.1629(4) 0.1351(4)
C3 C 0.2283(3) 0.0553(4) 0.1324(6)
C4 C 0.4048(2) 0.2176(4) 0.0454(4)
C5 C 0.3747(2) 0.2394(4) 0.1988(5)
C6 C 0.2769(2) 0.1397(4) 0.1870(4)
C7 C 0.4524(2) 0.2529(4) 0.0015(4)
C8 C 0.2363(3) 0.1895(5) 0.3304(5)
C9 C 0.1872(2) 0.1065(4) 0.2729(4)
C10 C 0.3536(3) 0.1405(4) -0.0250(5)
C11 C 0.1840(3) 0.0395(5) 0.1736(5)
C12 C 0.3113(3) 0.1147(5) 0.0198(5)
C13 C 0.2805(3) 0.2055(5) 0.2886(5)
H1 H 0.347(3) 0.106(5) -0.098(5)
H2 H 0.283(3) 0.060(5) -0.023(6)
H3 H 0.154(3) -0.017(5) 0.133(6)
H4 H 0.383(3) 0.273(4) 0.279(5)
H5 H 0.229(3) 0.006(5) 0.073(5)
H6 H 0.236(3) 0.241(5) 0.401(6)
H7 H 0.430(4) 0.612(6) 0.083(7)
H8 H 0.467(3) 0.606(5) 0.041(6)
H9 H 0.312(4) 0.278(6) 0.327(7)
O1A O 0.50912(14) 0.3376(3) 0.4365(3)
O2A O 0.53808(19) 0.5873(3) 0.4077(4)
O3A O 0.90296(14) 0.0063(3) 0.2352(3)
N1A N 0.58482(17) 0.2676(3) 0.3448(3)
O4A O 0.85810(18) 0.1563(3) 0.0971(3)
O5A O 0.54945(19) 0.1981(3) 0.5892(4)
C1A C 0.8619(2) 0.0899(4) 0.1833(4)
C2A C 0.6784(2) 0.1629(4) 0.3649(4)
C3A C 0.7717(3) 0.0553(4) 0.3676(6)
C4A C 0.5952(2) 0.2176(4) 0.4546(4)
C5A C 0.6253(2) 0.2394(4) 0.3012(5)
C6A C 0.7231(2) 0.1397(4) 0.3130(4)
C7A C 0.5476(2) 0.2529(4) 0.4985(4)
C8A C 0.7637(3) 0.1895(5) 0.1696(5)
C9A C 0.8128(2) 0.1065(4) 0.2271(4)
C10A C 0.6464(3) 0.1405(4) 0.5250(5)
C11A C 0.8160(3) 0.0395(5) 0.3264(5)
C12A C 0.6887(3) 0.1147(5) 0.4802(5)
C13A C 0.7195(3) 0.2055(5) 0.2114(5)
H1A H 0.653(3) 0.106(5) 0.598(5)
H2A H 0.717(3) 0.060(5) 0.523(6)
H3A H 0.846(3) -0.017(5) 0.367(6)
H4A H 0.617(3) 0.273(4) 0.221(5)
H5A H 0.771(3) 0.006(5) 0.427(5)
H6A H 0.764(3) 0.241(5) 0.099(6)
H7A H 0.570(4) 0.612(6) 0.417(7)
H8A H 0.533(3) 0.606(5) 0.459(6)
H9A H 0.688(4) 0.278(6) 0.173(7)
Gd1B Gd 0.0000 -0.06407(2) 0.2500
Gd1B_2 Gd 1.0000 -0.06407(2) 0.2500
O3B O 0.59704(14) 0.5063(3) 0.2648(3)
O3C O 0.40296(14) 0.5063(3) 0.2352(3)
C14 C 0.5567(4) 0.9063(6) 0.3418(7)
H10 H 0.5711 0.9572 0.2962
H11 H 0.5942 0.8561 0.3994
H12 H 0.5428 0.9527 0.3916
N2 N 0.5000 0.8362(5) 0.2500
H13 H 0.4861 0.7897 0.2931
H13A H 0.5139 0.7897 0.2069
C14A C 0.4433(4) 0.9063(6) 0.1582(7)
H10A H 0.4289 0.9572 0.2038
H11A H 0.4058 0.8561 0.1006
H12A H 0.4572 0.9527 0.1084
H14? H 0.4861 0.7897 0.2931
loop_
_geom_bond_atom_site_label_1
_geom_bond_atom_site_label_2
_geom_bond_site_symmetry_1
_geom_bond_site_symmetry_2
Gd1 O1 1_555 1_555
O1 C7 1_555 1_555
O2 Gd1 1_555 1_555
O3 C1 1_555 1_555
N1 Gd1 1_555 1_555
O4 C1 1_555 1_555
O5 C7 1_555 1_555
C1 C9 1_555 1_555
C2 C5 1_555 1_555
C3 C6 1_555 1_555
C4 N1 1_555 1_555
C5 N1 1_555 1_555
C6 C2 1_555 1_555
C7 C4 1_555 1_555
C8 C9 1_555 1_555
C9 C11 1_555 1_555
C10 C4 1_555 1_555
C11 C3 1_555 1_555
C12 C2 1_555 1_555
C13 C6 1_555 1_555
H1 C10 1_555 1_555
H2 C12 1_555 1_555
H3 C11 1_555 1_555
H4 C5 1_555 1_555
H5 C3 1_555 1_555
H6 C8 1_555 1_555
H7 O2 1_555 1_555
H8 O2 1_555 1_555
H9 C13 1_555 1_555
C14 H10 1_555 1_555
H11 C14 1_555 1_555
H12 C14 1_555 1_555
N2 C14 1_555 1_555
H13 N2 1_555 1_555
O1A Gd1 1_555 1_555
O2A Gd1 1_555 1_555
O3A C1A 1_555 1_555
N1A Gd1 1_555 1_555
O4A C1A 1_555 1_555
O5A C7A 1_555 1_555
C1A C9A 1_555 1_555
C2A C5A 1_555 1_555
C3A C6A 1_555 1_555
C4A N1A 1_555 1_555
C5A N1A 1_555 1_555
C6A C2A 1_555 1_555
C7A O1A 1_555 1_555
C8A C9A 1_555 1_555
C9A C11A 1_555 1_555
C10A C4A 1_555 1_555
C11A C3A 1_555 1_555
C12A C2A 1_555 1_555
C13A C6A 1_555 1_555
H1A C10A 1_555 1_555
H2A C12A 1_555 1_555
H3A C11A 1_555 1_555
H4A C5A 1_555 1_555
H5A C3A 1_555 1_555
H6A C8A 1_555 1_555
H7A O2A 1_555 1_555
H8A O2A 1_555 1_555
H9A C13A 1_555 1_555
Gd1B O3 1_555 1_555
Gd1B_2 O3A 1_555 1_555
O3B Gd1 1_555 1_555
O3C Gd1 1_555 1_555
H13A N2 1_555 1_555
C14A N2 1_555 1_555
H10A C14A 1_555 1_555
H11A C14A 1_555 1_555
H12A C14A 1_555 1_555
C8 C13 1_555 1_555
C10 C12 1_555 1_555
C4A C7A 1_555 1_555
C8A C13A 1_555 1_555
C10A C12A 1_555 1_555

#END
