
#######################################################################
#
#                 Cambridge Crystallographic Data Centre
#                                CCDC 
#
#######################################################################
#
# If this CIF has been generated from an entry in the Cambridge 
# Structural Database, then it will include bibliographic, chemical, 
# crystal, experimental, refinement or atomic coordinate data resulting 
# from the CCDC's data processing and validation procedures.
#
#######################################################################

data_TOHZIB
_symmetry_cell_setting           monoclinic
_symmetry_space_group_name_H-M   'C 2/c'
_symmetry_Int_Tables_number      15
_space_group_name_Hall           '-C 2yn'
loop_
_symmetry_equiv_pos_site_id
_symmetry_equiv_pos_as_xyz
1 x,y,z
2 -x,y,1/2-z
3 1/2+x,1/2+y,z
4 1/2-x,1/2+y,1/2-z
5 -x,-y,-z
6 x,-y,1/2+z
7 1/2-x,1/2-y,-z
8 1/2+x,1/2-y,1/2+z
_cell_length_a                   23.563(8)
_cell_length_b                   11.397(2)
_cell_length_c                   11.927(2)
_cell_angle_alpha                90
_cell_angle_beta                 120.09(4)
_cell_angle_gamma                90
_cell_volume                     2771.33
loop_
_atom_site_label
_atom_site_type_symbol
_atom_site_fract_x
_atom_site_fract_y
_atom_site_fract_z
Sm1 Sm 0.0000 0.06442(2) 0.2500
O1 O 0.00944(13) 0.1652(2) 0.4370(3)
O2 O -0.0380(2) -0.0893(3) 0.0913(4)
O3 O 0.40271(13) 0.4920(3) 0.2353(3)
N1 N 0.08537(16) 0.2344(3) 0.3458(3)
O4 O 0.35783(17) 0.3428(3) 0.0967(3)
O5 O 0.05032(18) 0.3039(3) 0.5905(3)
C1 C 0.3616(2) 0.4092(4) 0.1826(4)
C2 C 0.22358(19) 0.3603(4) 0.3134(4)
C3 C 0.09556(19) 0.2834(4) 0.4556(4)
C4 C 0.17895(19) 0.3377(4) 0.3655(4)
C5 C 0.1469(2) 0.3604(4) 0.5255(4)
H1 H 0.1529 0.3944 0.6015
C6 C 0.1259(2) 0.2621(4) 0.3026(4)
H2 H 0.1182 0.2285 0.2252
C7 C 0.3163(2) 0.4599(4) 0.3258(5)
H3 H 0.3488 0.5166 0.3648
C8 C 0.2720(2) 0.4447(4) 0.3681(5)
H4 H 0.2748 0.4918 0.4343
C9 C 0.0483(2) 0.2495(4) 0.4995(4)
C10 C 0.31329(19) 0.3932(4) 0.2276(4)
C11 C 0.2639(2) 0.3105(5) 0.1707(5)
H5 H 0.2605 0.2648 0.1030
C12 C 0.1889(2) 0.3855(5) 0.4802(5)
H6 H 0.2244 0.4352 0.5273
C13 C 0.2201(3) 0.2950(5) 0.2129(5)
H7 H 0.1872 0.2391 0.1727
H8 H -0.029(2) -0.109(4) 0.041(5)
H9 H -0.066(2) -0.105(4) 0.082(5)
O1A O -0.00944(13) 0.1652(2) 0.0630(3)
O2A O 0.0380(2) -0.0893(3) 0.4087(4)
O3A O -0.40271(13) 0.4920(3) 0.2647(3)
N1A N -0.08537(16) 0.2344(3) 0.1542(3)
O4A O -0.35783(17) 0.3428(3) 0.4033(3)
O5A O -0.05032(18) 0.3039(3) -0.0905(3)
C1A C -0.3616(2) 0.4092(4) 0.3174(4)
C2A C -0.22358(19) 0.3603(4) 0.1866(4)
C3A C -0.09556(19) 0.2834(4) 0.0444(4)
C4A C -0.17895(19) 0.3377(4) 0.1345(4)
C5A C -0.1469(2) 0.3604(4) -0.0255(4)
H1A H -0.1529 0.3944 -0.1015
C6A C -0.1259(2) 0.2621(4) 0.1974(4)
H2A H -0.1182 0.2285 0.2748
C7A C -0.3163(2) 0.4599(4) 0.1742(5)
H3A H -0.3488 0.5166 0.1352
C8A C -0.2720(2) 0.4447(4) 0.1319(5)
H4A H -0.2748 0.4918 0.0657
C9A C -0.0483(2) 0.2495(4) 0.0005(4)
C10A C -0.31329(19) 0.3932(4) 0.2724(4)
C11A C -0.2639(2) 0.3105(5) 0.3293(5)
H5A H -0.2605 0.2648 0.3970
C12A C -0.1889(2) 0.3855(5) 0.0198(5)
H6A H -0.2244 0.4352 -0.0273
C13A C -0.2201(3) 0.2950(5) 0.2871(5)
H7A H -0.1872 0.2391 0.3273
H8A H 0.029(2) -0.109(4) 0.459(5)
H9A H 0.066(2) -0.105(4) 0.418(5)
Sm1B Sm -0.5000 0.56442(2) 0.2500
Sm1B_2 Sm 0.5000 0.56442(2) 0.2500
O3B O -0.09729(13) -0.0080(3) 0.2353(3)
O3C O 0.09729(13) -0.0080(3) 0.2647(3)
N2 N 0.0000 0.6626(5) 0.2500
H10 H -0.0126 0.7091 0.2946
C14 C 0.0566(3) 0.5920(6) 0.3425(7)
H11 H 0.0466 0.5548 0.4029
H12 H 0.0941 0.6419 0.3885
H13 H 0.0658 0.5331 0.2963
H10A H 0.0126 0.7091 0.2054
C14A C -0.0566(3) 0.5920(6) 0.1575(7)
H11A H -0.0466 0.5548 0.0971
H12A H -0.0941 0.6419 0.1115
H13A H -0.0658 0.5331 0.2037
H14? H -0.0126 0.7091 0.2946
loop_
_geom_bond_atom_site_label_1
_geom_bond_atom_site_label_2
_geom_bond_site_symmetry_1
_geom_bond_site_symmetry_2
Sm1 O1 1_555 1_555
O1 C9 1_555 1_555
O2 Sm1 1_555 1_555
O3 C1 1_555 1_555
N1 Sm1 1_555 1_555
O4 C1 1_555 1_555
O5 C9 1_555 1_555
C1 C10 1_555 1_555
C2 C4 1_555 1_555
C3 N1 1_555 1_555
C4 C6 1_555 1_555
C5 C3 1_555 1_555
H1 C5 1_555 1_555
C6 N1 1_555 1_555
H2 C6 1_555 1_555
C7 H3 1_555 1_555
C8 C2 1_555 1_555
H4 C8 1_555 1_555
C9 C3 1_555 1_555
C10 C7 1_555 1_555
C11 C10 1_555 1_555
H5 C11 1_555 1_555
C12 C4 1_555 1_555
H6 C12 1_555 1_555
C13 C2 1_555 1_555
H7 C13 1_555 1_555
H8 O2 1_555 1_555
H9 O2 1_555 1_555
N2 H10 1_555 1_555
C14 N2 1_555 1_555
H11 C14 1_555 1_555
H12 C14 1_555 1_555
H13 C14 1_555 1_555
O1A Sm1 1_555 1_555
O2A Sm1 1_555 1_555
O3A C1A 1_555 1_555
N1A Sm1 1_555 1_555
O4A C1A 1_555 1_555
O5A C9A 1_555 1_555
C1A C10A 1_555 1_555
C2A C4A 1_555 1_555
C3A N1A 1_555 1_555
C4A C6A 1_555 1_555
C5A C3A 1_555 1_555
H1A C5A 1_555 1_555
C6A N1A 1_555 1_555
H2A C6A 1_555 1_555
C7A H3A 1_555 1_555
C8A C2A 1_555 1_555
H4A C8A 1_555 1_555
C9A O1A 1_555 1_555
C10A C7A 1_555 1_555
C11A C10A 1_555 1_555
H5A C11A 1_555 1_555
C12A C4A 1_555 1_555
H6A C12A 1_555 1_555
C13A C2A 1_555 1_555
H7A C13A 1_555 1_555
H8A O2A 1_555 1_555
H9A O2A 1_555 1_555
Sm1B O3A 1_555 1_555
Sm1B_2 O3 1_555 1_555
O3B Sm1 1_555 1_555
O3C Sm1 1_555 1_555
H10A N2 1_555 1_555
C14A N2 1_555 1_555
H11A C14A 1_555 1_555
H12A C14A 1_555 1_555
H13A C14A 1_555 1_555
C5 C12 1_555 1_555
C7 C8 1_555 1_555
C11 C13 1_555 1_555
C3A C9A 1_555 1_555
C5A C12A 1_555 1_555
C7A C8A 1_555 1_555
C11A C13A 1_555 1_555

#END
