
#######################################################################
#
#                 Cambridge Crystallographic Data Centre
#                                CCDC 
#
#######################################################################
#
# If this CIF has been generated from an entry in the Cambridge 
# Structural Database, then it will include bibliographic, chemical, 
# crystal, experimental, refinement or atomic coordinate data resulting 
# from the CCDC's data processing and validation procedures.
#
#######################################################################

data_TOJBUR
_symmetry_cell_setting           monoclinic
_symmetry_space_group_name_H-M   'P 21'
_symmetry_Int_Tables_number      4
_space_group_name_Hall           'P 2yb'
loop_
_symmetry_equiv_pos_site_id
_symmetry_equiv_pos_as_xyz
1 x,y,z
2 -x,1/2+y,-z
_cell_length_a                   14.3207(4)
_cell_length_b                   20.1562(5)
_cell_length_c                   17.2196(5)
_cell_angle_alpha                90
_cell_angle_beta                 96.450(3)
_cell_angle_gamma                90
_cell_volume                     4938.99
loop_
_atom_site_label
_atom_site_type_symbol
_atom_site_fract_x
_atom_site_fract_y
_atom_site_fract_z
Cd1 Cd 0.51193(4) 0.24888(2) 0.50052(3)
O1 O 0.5990(4) 0.1622(3) 0.5765(3)
O2 O 0.6151(3) 0.3314(2) 0.5300(2)
O3 O 0.4433(3) 0.1488(2) 0.4306(2)
N1 N 0.4289(4) 0.2124(3) 0.5969(3)
N2 N 0.5965(4) 0.2162(3) 0.4025(3)
O4 O 0.3890(3) 0.3086(2) 0.4387(2)
C1 C 0.5629(5) 0.1360(4) 0.6440(4)
C2 C 0.6166(5) 0.3513(3) 0.6008(4)
C3 C 0.3427(5) 0.2291(3) 0.6243(3)
C4 C 0.4679(5) 0.1690(3) 0.6487(3)
C5 C 0.3946(5) 0.3413(3) 0.3764(4)
H1 H 0.6055 0.1474 0.6906
C6 C 0.5509(6) 0.0616(4) 0.6394(5)
C7 C 0.6944(5) 0.3992(3) 0.6319(3)
O5 O 0.5579(3) 0.3320(2) 0.6454(2)
C8 C 0.2773(5) 0.2752(3) 0.5973(3)
C9 C 0.3356(5) 0.1942(3) 0.6933(4)
N3 N 0.4168(4) 0.1566(3) 0.7069(3)
O6 O 0.4596(3) 0.3334(2) 0.3343(2)
C10 C 0.3179(5) 0.3902(3) 0.3505(3)
H2 H 0.6110 0.0411 0.6371
H3 H 0.5098 0.0503 0.5934
H4 H 0.5243 0.0461 0.6848
C11 C 0.6885(5) 0.4334(4) 0.7017(4)
C12 C 0.7684(5) 0.4085(3) 0.5881(4)
H5 H 0.2829 0.2987 0.5515
C13 C 0.2015(5) 0.2862(3) 0.6403(4)
C14 C 0.2596(5) 0.2037(3) 0.7367(4)
H6 H 0.4313 0.1302 0.7457
C15 C 0.2462(5) 0.4009(3) 0.3971(4)
C16 C 0.3206(5) 0.4260(4) 0.2808(4)
C17 C 0.7532(5) 0.4793(3) 0.7304(3)
H7 H 0.6382 0.4244 0.7299
H8 H 0.7716 0.3866 0.5410
C18 C 0.8387(5) 0.4530(3) 0.6186(4)
C19 C 0.1933(5) 0.2493(4) 0.7086(4)
C20 C 0.1274(5) 0.3358(3) 0.6135(4)
H9 H 0.2543 0.1802 0.7825
C21 C 0.1787(5) 0.4481(3) 0.3729(4)
H10 H 0.2436 0.3772 0.4431
C22 C 0.2557(5) 0.4720(3) 0.2560(4)
H11 H 0.3692 0.4177 0.2506
C23 C 0.8285(5) 0.4884(3) 0.6863(3)
H12 H 0.7477 0.5030 0.7760
N4 N 0.9208(4) 0.4729(3) 0.5890(3)
H13 H 0.1413 0.2561 0.7355
O7 O 0.1379(3) 0.3664(2) 0.5491(3)
O8 O 0.0605(3) 0.3454(2) 0.6512(2)
N5 N 0.1014(4) 0.4715(3) 0.4088(3)
C24 C 0.1824(5) 0.4830(3) 0.3037(3)
H14 H 0.2588 0.4955 0.2099
N6 N 0.9056(4) 0.5312(3) 0.6978(3)
Cd2 Cd 1.01476(4) 0.42985(3) 0.50251(4)
C25 C 0.9585(5) 0.5187(3) 0.6371(4)
C26 C 0.0622(5) 0.5172(3) 0.3618(4)
N7 N 0.1080(4) 0.5267(3) 0.2976(3)
H15 H 0.9176 0.5595 0.7350
O9 O 1.1050(4) 0.5081(3) 0.5962(4)
C27 C 1.0464(5) 0.5552(4) 0.6253(4)
O10 O -0.0707(5) 0.5234(3) 0.4295(4)
O11 O -0.0885(3) 0.3475(2) 0.4697(2)
C28 C -0.0194(5) 0.5605(4) 0.3795(4)
H16 H 0.0934 0.5547 0.2604
H17 H 1.0301 0.5875 0.5835
C29 C 1.0904(5) 0.5926(4) 0.6942(5)
C30 C -0.0927(5) 0.3292(3) 0.3976(4)
C31 C -0.0761(5) 0.5889(4) 0.3110(4)
H18 H 0.0079 0.5980 0.4103
H19 H 1.1454 0.6152 0.6807
H20 H 1.1078 0.5624 0.7364
H21 H 1.0464 0.6245 0.7100
C32 C -0.1705(5) 0.2853(3) 0.3659(4)
O12 O -0.0319(3) 0.3485(3) 0.3553(3)
H22 H -0.1034 0.5537 0.2783
H23 H -0.1252 0.6159 0.3279
H24 H -0.0367 0.6156 0.2819
C33 C -0.1701(5) 0.2574(4) 0.2901(4)
C34 C -0.2453(5) 0.2720(3) 0.4095(4)
C35 C -0.2428(5) 0.2178(3) 0.2565(4)
H25 H -0.1195 0.2660 0.2622
H26 H -0.2458 0.2889 0.4597
C36 C -0.3180(5) 0.2330(3) 0.3759(3)
C37 C -0.3165(5) 0.2062(3) 0.2996(3)
H27 H -0.2418 0.1998 0.2069
N8 N -0.4006(4) 0.1735(3) 0.2840(3)
C38 C -0.4495(5) 0.1808(3) 0.3456(3)
H28 H -0.4188 0.1520 0.2419
C39 C -0.5472(5) 0.1575(3) 0.3492(4)
H29 H -0.5894 0.1936 0.3300
C40 C -0.5749(6) 0.0970(4) 0.3004(4)
H30 H -0.5349 0.0605 0.3180
H31 H -0.6390 0.0858 0.3055
H32 H -0.5682 0.1062 0.2466
Cd2_2 Cd 0.01476(4) 0.42985(3) 0.50251(4)
N4_2 N -0.0792(4) 0.4729(3) 0.5890(3)
O9_2 O 0.1050(4) 0.5081(3) 0.5962(4)
N2_2 N -0.4035(4) 0.2162(3) 0.4025(3)
Cd1_2 Cd -0.48807(4) 0.24888(2) 0.50052(3)
O3_2 O -0.5567(3) 0.1488(2) 0.4306(2)
Cd3 Cd 0.00905(4) 0.49828(2) 1.00566(2)
Cd4 Cd 0.51141(4) 0.67983(3) 1.01544(2)
C41 C 0.8384(5) 0.4438(3) 1.2030(4)
C42 C 0.7627(5) 0.4529(3) 1.2465(4)
H33 H 0.7592 0.4301 1.2931
C43 C 0.6932(5) 0.4968(4) 1.2181(3)
H34 H 0.6414 0.5027 1.2454
C44 C 0.6987(5) 0.5330(3) 1.1486(4)
C45 C 0.7746(5) 0.5229(3) 1.1051(4)
H35 H 0.7786 0.5461 1.0589
C46 C 0.8429(5) 0.4782(3) 1.1321(3)
C47 C 0.9685(5) 0.4185(3) 1.1541(4)
C48 C 1.0604(5) 0.3853(3) 1.1466(4)
H36 H 1.1036 0.3935 1.1939
C49 C 1.0463(5) 0.3098(4) 1.1350(5)
H37 H 1.1059 0.2891 1.1308
H38 H 1.0050 0.3019 1.0881
H39 H 1.0193 0.2916 1.1789
C50 C 0.6227(5) 0.5793(3) 1.1211(4)
C51 C 0.3359(5) 0.7012(3) 1.1315(4)
C52 C 0.2655(5) 0.6561(3) 1.1004(4)
H40 H 0.2702 0.6334 1.0540
C53 C 0.1893(5) 0.6474(3) 1.1424(3)
C54 C 0.1810(5) 0.6814(4) 1.2122(3)
H41 H 0.1297 0.6724 1.2393
C55 C 0.2459(5) 0.7274(3) 1.2421(3)
H42 H 0.2393 0.7508 1.2877
C56 C 0.3237(5) 0.7371(3) 1.1990(3)
C57 C 0.4545(5) 0.7665(3) 1.1528(4)
C58 C 0.5427(5) 0.8041(4) 1.1408(4)
H43 H 0.5254 0.8376 1.1006
C59 C 0.5861(5) 0.8393(3) 1.2105(4)
H44 H 0.6411 0.8624 1.1980
H45 H 0.6035 0.8079 1.2515
H46 H 0.5421 0.8705 1.2275
C60 C 0.1115(5) 0.5990(3) 1.1110(4)
C61 C 0.1788(5) 0.4850(3) 0.8794(3)
C62 C 0.2503(5) 0.5263(3) 0.9144(3)
H47 H 0.2484 0.5433 0.9644
C63 C 0.3246(5) 0.5409(3) 0.8709(3)
C64 C 0.3271(5) 0.5125(3) 0.7953(4)
H48 H 0.3780 0.5219 0.7679
C65 C 0.2565(5) 0.4715(4) 0.7611(4)
H49 H 0.2581 0.4539 0.7113
C66 C 0.1839(5) 0.4582(3) 0.8045(4)
C67 C 0.0490(5) 0.4315(3) 0.8496(4)
C68 C -0.0484(5) 0.4077(3) 0.8526(4)
H50 H -0.0909 0.4439 0.8342
C69 C -0.0750(6) 0.3475(4) 0.8014(4)
H51 H -0.1393 0.3358 0.8055
H52 H -0.0350 0.3109 0.8185
H53 H -0.0675 0.3578 0.7480
C70 C 0.4006(5) 0.5876(3) 0.9034(4)
C71 C -0.3218(5) 0.7349(3) 0.8158(3)
C72 C -0.2517(5) 0.7245(3) 0.7675(3)
H54 H -0.2495 0.7485 0.7215
C73 C -0.1861(5) 0.6774(4) 0.7908(3)
H55 H -0.1388 0.6687 0.7593
C74 C -0.1873(5) 0.6413(3) 0.8609(3)
C75 C -0.2574(5) 0.6523(3) 0.9089(3)
H56 H -0.2582 0.6291 0.9555
C76 C -0.3265(5) 0.6990(3) 0.8853(4)
C77 C -0.4419(5) 0.7680(3) 0.8762(4)
C78 C -0.5216(5) 0.8117(4) 0.8946(4)
H57 H -0.4923 0.8498 0.9232
C79 C -0.5810(5) 0.8397(4) 0.8271(4)
H58 H -0.6291 0.8669 0.8453
H59 H -0.6096 0.8043 0.7956
H60 H -0.5431 0.8662 0.7965
C80 C -0.1093(5) 0.5927(3) 0.8848(4)
O13 O 0.6347(4) 0.6149(2) 1.0608(3)
O14 O 0.5507(3) 0.5846(2) 1.1564(2)
O15 O 1.0979(4) 0.4142(3) 1.0805(3)
O16 O 0.1103(3) 0.5814(2) 1.0391(3)
O17 O 0.0539(4) 0.5796(2) 1.1551(3)
O18 O 0.6017(4) 0.7581(3) 1.1088(3)
O19 O 0.4515(3) 0.6137(2) 0.8590(2)
O20 O 0.4088(3) 0.5985(2) 0.9769(2)
O21 O -0.0572(3) 0.3977(2) 0.9335(2)
O22 O -0.1159(3) 0.5575(2) 0.9458(2)
O23 O -0.0437(3) 0.5871(2) 0.8427(3)
O24 O -0.5701(4) 0.7770(3) 0.9488(3)
N9 N 0.9268(4) 0.4609(3) 1.1025(3)
N10 N 0.9187(4) 0.4072(3) 1.2141(3)
H61 H 0.9347 0.3813 1.2530
N11 N 0.4008(4) 0.7783(3) 1.2116(3)
H62 H 0.4127 0.8061 1.2494
N12 N 0.4180(4) 0.7206(3) 1.1035(3)
N13 N 0.0996(4) 0.4243(3) 0.7875(3)
H63 H 0.0824 0.4027 0.7453
N14 N 0.0935(4) 0.4681(3) 0.9056(3)
N15 N -0.3972(4) 0.7782(3) 0.8106(3)
H64 H -0.4130 0.8060 0.7736
N16 N -0.4021(4) 0.7227(2) 0.9216(3)
Cd3_2 Cd 1.00905(4) 0.49828(2) 1.00566(2)
Cd4_2 Cd -0.48859(4) 0.67983(3) 1.01544(2)
O15_2 O 0.0979(4) 0.4142(3) 1.0805(3)
O24_2 O 0.4299(4) 0.7770(3) 0.9488(3)
N9_2 N -0.0732(4) 0.4609(3) 1.1025(3)
N16_2 N 0.5979(4) 0.7227(2) 0.9216(3)
C81 C -0.2920(5) 0.4107(4) 0.9480(4)
C82 C -0.3813(5) 0.5050(4) 0.9135(4)
H65 H -0.4047 0.5110 0.8589
H66 H -0.3788 0.5478 0.9395
C83 C -0.4426(6) 0.4560(4) 0.9533(5)
H67 H -0.4533 0.4709 1.0051
H68 H -0.5026 0.4487 0.9222
O25 O -0.2276(4) 0.3718(3) 0.9606(3)
N17 N -0.2886(5) 0.4729(3) 0.9219(4)
H69 H -0.2379 0.4920 0.9112
N18 N -0.3837(4) 0.3962(3) 0.9567(4)
H70 H -0.4043 0.3568 0.9634
C84 C 0.3114(5) 0.5261(3) 0.5544(4)
C85 C 0.4623(5) 0.4812(3) 0.5485(4)
H71 H 0.5211 0.4858 0.5820
H72 H 0.4755 0.4700 0.4960
C86 C 0.3980(5) 0.4289(4) 0.5808(4)
H73 H 0.3980 0.3876 0.5519
H74 H 0.4164 0.4203 0.6358
O26 O 0.2487(4) 0.5659(3) 0.5441(3)
N19 N 0.3078(4) 0.4615(3) 0.5684(3)
H75 H 0.2556 0.4406 0.5700
N20 N 0.4052(4) 0.5413(3) 0.5490(4)
H76 H 0.4269 0.5809 0.5463
C87 C 0.0427(5) 0.2307(3) 0.9486(4)
H77 H -0.0185 0.2352 0.9187
H78 H 0.0345 0.2186 1.0019
C88 C 0.1043(5) 0.1794(4) 0.9109(4)
H79 H 0.1054 0.1371 0.9377
H80 H 0.0827 0.1728 0.8560
C89 C 0.1902(5) 0.2763(3) 0.9375(4)
O27 O 0.2544(3) 0.3160(2) 0.9444(3)
N21 N 0.1947(4) 0.2110(3) 0.9211(3)
H81 H 0.2465 0.1903 0.9173
N22 N 0.0970(4) 0.2906(3) 0.9460(3)
H82 H 0.0747 0.3300 0.9493
C90 C 0.0654(6) 0.2042(4) 0.4601(5)
H83 H 0.0591 0.2216 0.5117
H84 H 0.0035 0.1975 0.4320
C91 C 0.1274(5) 0.2503(4) 0.4138(4)
H85 H 0.1021 0.2533 0.3593
H86 H 0.1316 0.2945 0.4361
C92 C 0.2146(6) 0.1533(4) 0.4501(5)
O28 O 0.2762(4) 0.1156(3) 0.4627(3)
N23 N 0.1211(5) 0.1428(4) 0.4641(5)
H87 H 0.0987 0.1045 0.4740
N24 N 0.2180(5) 0.2179(3) 0.4224(4)
H88 H 0.2689 0.2368 0.4115
O29 O -0.2443(4) 0.2755(3) 1.0724(3)
O30 O -0.1165(4) 0.1700(3) 1.0873(3)
O31 O 0.6016(4) 0.0020(3) 0.9077(3)
O32 O 0.2780(3) 0.3932(2) 1.0776(3)
O33 O 0.9046(4) 0.2581(3) 0.5937(3)
O34 O 0.7824(3) 0.1486(2) 0.5830(3)
O35 O 0.6190(4) 0.4181(3) 0.4018(3)
O36 O 0.7451(4) 0.5270(3) 0.4179(3)
loop_
_geom_bond_atom_site_label_1
_geom_bond_atom_site_label_2
_geom_bond_site_symmetry_1
_geom_bond_site_symmetry_2
Cd1 O1 1_555 1_555
O1 C1 1_555 1_555
O2 Cd1 1_555 1_555
O3 Cd1 1_555 1_555
N1 Cd1 1_555 1_555
N2 Cd1 1_555 1_555
O4 Cd1 1_555 1_555
C1 C4 1_555 1_555
C2 O2 1_555 1_555
C3 N1 1_555 1_555
C4 N1 1_555 1_555
C5 O4 1_555 1_555
H1 C1 1_555 1_555
C6 C1 1_555 1_555
C7 C2 1_555 1_555
O5 C2 1_555 1_555
C8 C3 1_555 1_555
C9 C3 1_555 1_555
N3 C4 1_555 1_555
O6 C5 1_555 1_555
C10 C5 1_555 1_555
H2 C6 1_555 1_555
H3 C6 1_555 1_555
H4 C6 1_555 1_555
C11 C7 1_555 1_555
C12 C7 1_555 1_555
H5 C8 1_555 1_555
C13 C8 1_555 1_555
C14 C9 1_555 1_555
H6 N3 1_555 1_555
C15 C10 1_555 1_555
C16 C10 1_555 1_555
C17 C11 1_555 1_555
H7 C11 1_555 1_555
H8 C12 1_555 1_555
C18 C12 1_555 1_555
C19 C13 1_555 1_555
C20 C13 1_555 1_555
H9 C14 1_555 1_555
C21 C15 1_555 1_555
H10 C15 1_555 1_555
C22 C16 1_555 1_555
H11 C16 1_555 1_555
C23 C17 1_555 1_555
H12 C17 1_555 1_555
N4 C18 1_555 1_555
H13 C19 1_555 1_555
O7 C20 1_555 1_555
O8 C20 1_555 1_555
N5 C21 1_555 1_555
C24 C21 1_555 1_555
H14 C22 1_555 1_555
N6 C23 1_555 1_555
Cd2 N4 1_555 1_555
C25 N4 1_555 1_555
C26 N5 1_555 1_555
N7 C24 1_555 1_555
H15 N6 1_555 1_555
O9 Cd2 1_555 1_555
C27 C25 1_555 1_555
O10 C28 1_555 1_555
O11 C30 1_555 1_555
C28 C26 1_555 1_555
H16 N7 1_555 1_555
H17 C27 1_555 1_555
C29 C27 1_555 1_555
C30 C32 1_555 1_555
C31 C28 1_555 1_555
H18 C28 1_555 1_555
H19 C29 1_555 1_555
H20 C29 1_555 1_555
H21 C29 1_555 1_555
C32 C33 1_555 1_555
O12 C30 1_555 1_555
H22 C31 1_555 1_555
H23 C31 1_555 1_555
H24 C31 1_555 1_555
C33 C35 1_555 1_555
C34 C32 1_555 1_555
C35 C37 1_555 1_555
H25 C33 1_555 1_555
H26 C34 1_555 1_555
C36 C34 1_555 1_555
C37 C36 1_555 1_555
H27 C35 1_555 1_555
N8 C37 1_555 1_555
C38 N8 1_555 1_555
H28 N8 1_555 1_555
C39 C38 1_555 1_555
H29 C39 1_555 1_555
C40 C39 1_555 1_555
H30 C40 1_555 1_555
H31 C40 1_555 1_555
H32 C40 1_555 1_555
Cd3 O16 1_555 1_555
Cd4 O13 1_555 1_555
C41 C42 1_555 1_555
C42 H33 1_555 1_555
C43 C42 1_555 1_555
H34 C43 1_555 1_555
C44 C43 1_555 1_555
C45 C44 1_555 1_555
H35 C45 1_555 1_555
C46 C41 1_555 1_555
C47 C48 1_555 1_555
C48 H36 1_555 1_555
C49 C48 1_555 1_555
H37 C49 1_555 1_555
H38 C49 1_555 1_555
H39 C49 1_555 1_555
C50 C44 1_555 1_555
C51 C52 1_555 1_555
C52 H40 1_555 1_555
C53 C52 1_555 1_555
C54 C53 1_555 1_555
H41 C54 1_555 1_555
C55 C54 1_555 1_555
H42 C55 1_555 1_555
C56 C51 1_555 1_555
C57 C58 1_555 1_555
C58 H43 1_555 1_555
C59 C58 1_555 1_555
H44 C59 1_555 1_555
H45 C59 1_555 1_555
H46 C59 1_555 1_555
C60 C53 1_555 1_555
C61 C62 1_555 1_555
C62 H47 1_555 1_555
C63 C62 1_555 1_555
C64 C63 1_555 1_555
H48 C64 1_555 1_555
C65 C64 1_555 1_555
H49 C65 1_555 1_555
C66 C61 1_555 1_555
C67 C68 1_555 1_555
C68 H50 1_555 1_555
C69 C68 1_555 1_555
H51 C69 1_555 1_555
H52 C69 1_555 1_555
H53 C69 1_555 1_555
C70 C63 1_555 1_555
C71 C72 1_555 1_555
C72 H54 1_555 1_555
C73 C72 1_555 1_555
H55 C73 1_555 1_555
C74 C73 1_555 1_555
C75 C74 1_555 1_555
H56 C75 1_555 1_555
C76 C71 1_555 1_555
C77 C78 1_555 1_555
C78 H57 1_555 1_555
C79 C78 1_555 1_555
H58 C79 1_555 1_555
H59 C79 1_555 1_555
H60 C79 1_555 1_555
C80 C74 1_555 1_555
O13 C50 1_555 1_555
O14 C50 1_555 1_555
O15 C48 1_555 1_555
O16 C60 1_555 1_555
O17 C60 1_555 1_555
O18 Cd4 1_555 1_555
O19 C70 1_555 1_555
O20 Cd4 1_555 1_555
O21 Cd3 1_555 1_555
O22 Cd3 1_555 1_555
O23 C80 1_555 1_555
O24 C78 1_555 1_555
N9 C46 1_555 1_555
N10 C41 1_555 1_555
H61 N10 1_555 1_555
N11 C56 1_555 1_555
H62 N11 1_555 1_555
N12 Cd4 1_555 1_555
N13 C66 1_555 1_555
H63 N13 1_555 1_555
N14 Cd3 1_555 1_555
N15 C71 1_555 1_555
H64 N15 1_555 1_555
N16 C76 1_555 1_555
C81 O25 1_555 1_555
C82 H65 1_555 1_555
H66 C82 1_555 1_555
C83 C82 1_555 1_555
H67 C83 1_555 1_555
H68 C83 1_555 1_555
N17 C81 1_555 1_555
H69 N17 1_555 1_555
N18 C81 1_555 1_555
H70 N18 1_555 1_555
C84 O26 1_555 1_555
C85 H71 1_555 1_555
H72 C85 1_555 1_555
C86 C85 1_555 1_555
H73 C86 1_555 1_555
H74 C86 1_555 1_555
N19 C84 1_555 1_555
H75 N19 1_555 1_555
N20 C84 1_555 1_555
H76 N20 1_555 1_555
C87 H77 1_555 1_555
H78 C87 1_555 1_555
C88 C87 1_555 1_555
H79 C88 1_555 1_555
H80 C88 1_555 1_555
C89 O27 1_555 1_555
N21 C88 1_555 1_555
H81 N21 1_555 1_555
N22 C87 1_555 1_555
H82 N22 1_555 1_555
C90 H83 1_555 1_555
H84 C90 1_555 1_555
C91 C90 1_555 1_555
H85 C91 1_555 1_555
H86 C91 1_555 1_555
C92 O28 1_555 1_555
N23 C90 1_555 1_555
H87 N23 1_555 1_555
N24 C91 1_555 1_555
H88 N24 1_555 1_555
Cd2_2 O7 1_555 1_555
N4_2 Cd2_2 1_555 1_555
O9_2 Cd2_2 1_555 1_555
N2_2 C36 1_555 1_555
Cd1_2 N2_2 1_555 1_555
O3_2 C39 1_555 1_555
Cd3_2 O15 1_555 1_555
Cd4_2 O24 1_555 1_555
O15_2 Cd3 1_555 1_555
O24_2 Cd4 1_555 1_555
N9_2 Cd3 1_555 1_555
N16_2 Cd4 1_555 1_555
C9 N3 1_555 1_555
C14 C19 1_555 1_555
C18 C23 1_555 1_555
C22 C24 1_555 1_555
N5 Cd2_2 1_555 1_555
N6 C25 1_555 1_555
C26 N7 1_555 1_555
O9 C27 1_555 1_555
O10 Cd2_2 1_555 1_555
O11 Cd2_2 1_555 1_555
C38 N2_2 1_555 1_555
C45 C46 1_555 1_555
C47 N9 1_555 1_555
C47 N10 1_555 1_555
C51 N12 1_555 1_555
C55 C56 1_555 1_555
C57 N11 1_555 1_555
C57 N12 1_555 1_555
C58 O18 1_555 1_555
C61 N14 1_555 1_555
C65 C66 1_555 1_555
C67 N13 1_555 1_555
C67 N14 1_555 1_555
C68 O21 1_555 1_555
C70 O20 1_555 1_555
C75 C76 1_555 1_555
C77 N15 1_555 1_555
C77 N16 1_555 1_555
C80 O22 1_555 1_555
N9 Cd3_2 1_555 1_555
N16 Cd4_2 1_555 1_555
C82 N17 1_555 1_555
C83 N18 1_555 1_555
C85 N20 1_555 1_555
C86 N19 1_555 1_555
C89 N21 1_555 1_555
C89 N22 1_555 1_555
C92 N23 1_555 1_555
C92 N24 1_555 1_555
Cd1_2 O3_2 1_555 1_555

#END
