
#######################################################################
#
#                 Cambridge Crystallographic Data Centre
#                                CCDC 
#
#######################################################################
#
# If this CIF has been generated from an entry in the Cambridge 
# Structural Database, then it will include bibliographic, chemical, 
# crystal, experimental, refinement or atomic coordinate data resulting 
# from the CCDC's data processing and validation procedures.
#
#######################################################################

data_TOJDAY
_symmetry_cell_setting           trigonal
_symmetry_space_group_name_H-M   'P -3'
_symmetry_Int_Tables_number      147
_space_group_name_Hall           '-P 3'
loop_
_symmetry_equiv_pos_site_id
_symmetry_equiv_pos_as_xyz
1 x,y,z
2 -y,x-y,z
3 -x+y,-x,z
4 -x,-y,-z
5 y,-x+y,-z
6 x-y,x,-z
_cell_length_a                   13.6564(4)
_cell_length_b                   13.6564(4)
_cell_length_c                   6.1296(2)
_cell_angle_alpha                90
_cell_angle_beta                 90
_cell_angle_gamma                120
_cell_volume                     990
loop_
_atom_site_label
_atom_site_type_symbol
_atom_site_fract_x
_atom_site_fract_y
_atom_site_fract_z
Mn1 Mn 0.0000 0.0000 0.5000
O1 O 0.10531(15) 0.15388(15) 0.3163(3)
N1 N 0.07991(17) 0.23494(17) 0.2778(3)
C1 C -0.0209(3) 0.2099(2) 0.1992(4)
H1 H -0.0753 0.1346 0.1758
C2 C -0.0458(3) 0.2933(2) 0.1523(5)
H2 H -0.1172 0.2742 0.1006
C3 C 0.0361(3) 0.4070(2) 0.1819(4)
C4 C 0.0125(3) 0.5000(3) 0.1210(5)
H3 H 0.0774 0.5723 0.1593
H4 H -0.0516 0.4913 0.2047
C5 C 0.1381(3) 0.4284(2) 0.2670(5)
H5 H 0.1945 0.5028 0.2912
C6 C 0.1582(3) 0.3427(2) 0.3166(5)
H6 H 0.2270 0.3593 0.3782
Mn1_2 Mn 0.0000 1.0000 -0.5000
Mn1_3 Mn -1.0000 -1.0000 -0.5000
Mn1_4 Mn 1.0000 0.0000 -0.5000
O1C O -0.10531(15) 0.84612(15) -0.3163(3)
O1A O -0.15388(15) -0.04857(21) 0.3163(3)
O1D O -0.84612(15) -0.95143(21) -0.3163(3)
O1B O 0.04857(21) -0.10531(15) 0.3163(3)
O1E O 0.95143(21) 0.10531(15) -0.3163(3)
O1C_2 O -0.10531(15) -0.15388(15) 0.6837(3)
O1D_2 O 0.15388(15) 0.04857(21) 0.6837(3)
O1E_2 O -0.04857(21) 0.10531(15) 0.6837(3)
N1C N -0.07991(17) 0.76506(17) -0.2778(3)
N1A N -0.23494(17) -0.15503(24) 0.2778(3)
N1D N -0.76506(17) -0.84497(24) -0.2778(3)
N1B N 0.15503(24) -0.07991(17) 0.2778(3)
N1E N 0.84497(24) 0.07991(17) -0.2778(3)
C1C C 0.0209(3) 0.7901(2) -0.1992(4)
C1A C -0.2099(2) -0.2308(4) 0.1992(4)
C1D C -0.7901(2) -0.7692(4) -0.1992(4)
C1B C 0.2308(4) 0.0209(3) 0.1992(4)
C1E C 0.7692(4) -0.0209(3) -0.1992(4)
H1C H 0.0753 0.8654 -0.1758
H1A H -0.1346 -0.2099 0.1758
H1D H -0.8654 -0.7901 -0.1758
H1B H 0.2099 0.0753 0.1758
H1E H 0.7901 -0.0753 -0.1758
C2C C 0.0458(3) 0.7067(2) -0.1523(5)
C2A C -0.2933(2) -0.3391(4) 0.1523(5)
C2D C -0.7067(2) -0.6609(4) -0.1523(5)
C2B C 0.3391(4) 0.0458(3) 0.1523(5)
C2E C 0.6609(4) -0.0458(3) -0.1523(5)
H2C H 0.1172 0.7258 -0.1006
H2A H -0.2742 -0.3914 0.1006
H2D H -0.7258 -0.6086 -0.1006
H2B H 0.3914 0.1172 0.1006
H2E H 0.6086 -0.1172 -0.1006
C3C C -0.0361(3) 0.5930(2) -0.1819(4)
C3A C -0.4070(2) -0.3709(4) 0.1819(4)
C3D C -0.5930(2) -0.6291(4) -0.1819(4)
C3B C 0.3709(4) -0.0361(3) 0.1819(4)
C3E C 0.6291(4) 0.0361(3) -0.1819(4)
C4C C -0.0125(3) 0.5000(3) -0.1210(5)
C4A C -0.5000(3) -0.4875(4) 0.1210(5)
C4D C -0.5000(3) -0.5125(4) -0.1210(5)
C4B C 0.4875(4) -0.0125(3) 0.1210(5)
C4E C 0.5125(4) 0.0125(3) -0.1210(5)
H3C H -0.0774 0.4277 -0.1593
H3A H -0.5723 -0.4949 0.1593
H3D H -0.4277 -0.5051 -0.1593
H3B H 0.4949 -0.0774 0.1593
H3E H 0.5051 0.0774 -0.1593
H4C H 0.0516 0.5087 -0.2047
H4A H -0.4913 -0.5429 0.2047
H4D H -0.5087 -0.4571 -0.2047
H4B H 0.5429 0.0516 0.2047
H4E H 0.4571 -0.0516 -0.2047
C5C C -0.1381(3) 0.5716(2) -0.2670(5)
C5A C -0.4284(2) -0.2903(4) 0.2670(5)
C5D C -0.5716(2) -0.7097(4) -0.2670(5)
C5B C 0.2903(4) -0.1381(3) 0.2670(5)
C5E C 0.7097(4) 0.1381(3) -0.2670(5)
H5C H -0.1945 0.4972 -0.2912
H5A H -0.5028 -0.3083 0.2912
H5D H -0.4972 -0.6917 -0.2912
H5B H 0.3083 -0.1945 0.2912
H5E H 0.6917 0.1945 -0.2912
C6C C -0.1582(3) 0.6573(2) -0.3166(5)
C6A C -0.3427(2) -0.1845(4) 0.3166(5)
C6D C -0.6573(2) -0.8155(4) -0.3166(5)
C6B C 0.1845(4) -0.1582(3) 0.3166(5)
C6E C 0.8155(4) 0.1582(3) -0.3166(5)
H6C H -0.2270 0.6407 -0.3782
H6A H -0.3593 -0.1323 0.3782
H6D H -0.6407 -0.8677 -0.3782
H6B H 0.1323 -0.2270 0.3782
H6E H 0.8677 0.2270 -0.3782
Cl1 Cl 0.3333 0.6667 0.7384(4)
O2 O 0.4329(5) 0.7483(6) 0.6564(14)
O3 O 0.3333 0.6667 0.9518(15)
O2A O 0.2517(6) 0.6846(8) 0.6564(14)
O2B O 0.3154(8) 0.5671(5) 0.6564(14)
loop_
_geom_bond_atom_site_label_1
_geom_bond_atom_site_label_2
_geom_bond_site_symmetry_1
_geom_bond_site_symmetry_2
Mn1 O1 1_555 1_555
Cl1 O2 1_555 1_555
O1 N1 1_555 1_555
O3 Cl1 1_555 1_555
N1 C1 1_555 1_555
C1 H1 1_555 1_555
C2 C1 1_555 1_555
H2 C2 1_555 1_555
C3 C2 1_555 1_555
C4 C3 1_555 1_555
H3 C4 1_555 1_555
H4 C4 1_555 1_555
C5 C3 1_555 1_555
H5 C5 1_555 1_555
C6 N1 1_555 1_555
H6 C6 1_555 1_555
Mn1_2 O1C 1_555 1_555
Mn1_3 O1D 1_555 1_555
Mn1_4 O1E 1_555 1_555
O1C N1C 1_555 1_555
O1A Mn1 1_555 1_555
O1D N1D 1_555 1_555
O1B Mn1 1_555 1_555
O1E N1E 1_555 1_555
O1C_2 Mn1 1_555 1_555
O1D_2 Mn1 1_555 1_555
O1E_2 Mn1 1_555 1_555
O2A Cl1 1_555 1_555
O2B Cl1 1_555 1_555
N1C C1C 1_555 1_555
N1A O1A 1_555 1_555
N1D C1D 1_555 1_555
N1B O1B 1_555 1_555
N1E C1E 1_555 1_555
C1C H1C 1_555 1_555
C1A N1A 1_555 1_555
C1D H1D 1_555 1_555
C1B N1B 1_555 1_555
C1E H1E 1_555 1_555
H1A C1A 1_555 1_555
H1B C1B 1_555 1_555
C2C C1C 1_555 1_555
C2A C1A 1_555 1_555
C2D C1D 1_555 1_555
C2B C1B 1_555 1_555
C2E C1E 1_555 1_555
H2C C2C 1_555 1_555
H2A C2A 1_555 1_555
H2D C2D 1_555 1_555
H2B C2B 1_555 1_555
H2E C2E 1_555 1_555
C3C C2C 1_555 1_555
C3A C2A 1_555 1_555
C3D C2D 1_555 1_555
C3B C2B 1_555 1_555
C3E C2E 1_555 1_555
C4C C4 1_555 1_555
C4A C3A 1_555 1_555
C4D C3D 1_555 1_555
C4B C3B 1_555 1_555
C4E C3E 1_555 1_555
H3C C4C 1_555 1_555
H3A C4A 1_555 1_555
H3D C4D 1_555 1_555
H3B C4B 1_555 1_555
H3E C4E 1_555 1_555
H4C C4C 1_555 1_555
H4A C4A 1_555 1_555
H4D C4D 1_555 1_555
H4B C4B 1_555 1_555
H4E C4E 1_555 1_555
C5C C3C 1_555 1_555
C5A C3A 1_555 1_555
C5D C3D 1_555 1_555
C5B C3B 1_555 1_555
C5E C3E 1_555 1_555
H5C C5C 1_555 1_555
H5A C5A 1_555 1_555
H5D C5D 1_555 1_555
H5B C5B 1_555 1_555
H5E C5E 1_555 1_555
C6C N1C 1_555 1_555
C6A N1A 1_555 1_555
C6D N1D 1_555 1_555
C6B N1B 1_555 1_555
C6E N1E 1_555 1_555
H6C C6C 1_555 1_555
H6A C6A 1_555 1_555
H6D C6D 1_555 1_555
H6B C6B 1_555 1_555
H6E C6E 1_555 1_555
C5 C6 1_555 1_555
C3C C4C 1_555 1_555
C4A C4D 1_555 1_555
C4B C4E 1_555 1_555
C5C C6C 1_555 1_555
C5A C6A 1_555 1_555
C5D C6D 1_555 1_555
C5B C6B 1_555 1_555
C5E C6E 1_555 1_555

#END
