
#######################################################################
#
#                 Cambridge Crystallographic Data Centre
#                                CCDC 
#
#######################################################################
#
# If this CIF has been generated from an entry in the Cambridge 
# Structural Database, then it will include bibliographic, chemical, 
# crystal, experimental, refinement or atomic coordinate data resulting 
# from the CCDC's data processing and validation procedures.
#
#######################################################################

data_TOJDOM
_symmetry_cell_setting           monoclinic
_symmetry_space_group_name_H-M   'P 21/n'
_symmetry_Int_Tables_number      14
_space_group_name_Hall           '-P 2yn'
loop_
_symmetry_equiv_pos_site_id
_symmetry_equiv_pos_as_xyz
1 x,y,z
2 1/2-x,1/2+y,1/2-z
3 -x,-y,-z
4 1/2+x,1/2-y,1/2+z
_cell_length_a                   9.7203(1)
_cell_length_b                   25.4382(4)
_cell_length_c                   14.5710(2)
_cell_angle_alpha                90
_cell_angle_beta                 93.702(1)
_cell_angle_gamma                90
_cell_volume                     3595.41
loop_
_atom_site_label
_atom_site_type_symbol
_atom_site_fract_x
_atom_site_fract_y
_atom_site_fract_z
Co1 Co 0.0000 0.0000 0.5000
N1 N 0.16112(15) 0.09790(5) 0.57097(8)
N2 N 0.76466(14) 0.07212(5) 0.55498(8)
N3 N 0.01825(14) 0.03633(5) 0.30937(8)
O1 O 0.07339(13) 0.05951(4) 0.58902(7)
O2 O 0.80481(12) 0.02337(4) 0.53645(7)
O3 O 0.00698(12) 0.05427(4) 0.39482(6)
C1 C 0.26472(18) 0.09020(7) 0.51613(10)
H1 H 0.2760 0.0576 0.4888
C2 C 0.35417(18) 0.13039(7) 0.50028(11)
H2 H 0.4243 0.1247 0.4610
C3 C 0.34303(18) 0.17921(6) 0.54114(11)
C4 C 0.2350(2) 0.18521(7) 0.59621(12)
H3 H 0.2224 0.2174 0.6249
C5 C 0.1449(2) 0.14489(7) 0.61003(12)
H4 H 0.0717 0.1503 0.6470
C6 C 0.44529(19) 0.22251(6) 0.52843(12)
H5 H 0.3999 0.2561 0.5354
H6 H 0.4755 0.2208 0.4664
C7 C 0.57228(19) 0.21969(6) 0.59694(12)
H7 H 0.6323 0.2493 0.5868
H8 H 0.5428 0.2222 0.6591
C8 C 0.65088(17) 0.16951(6) 0.58685(11)
C9 C 0.7257(2) 0.15977(7) 0.51168(12)
H9 H 0.7384 0.1868 0.4701
C10 C 0.78181(19) 0.11158(7) 0.49620(11)
H10 H 0.8319 0.1062 0.4448
C11 C 0.6442(2) 0.12873(7) 0.64827(11)
H11 H 0.6003 0.1339 0.7024
C12 C 0.70084(19) 0.08066(7) 0.63163(11)
H12 H 0.6946 0.0537 0.6743
C13 C -0.09376(19) 0.02043(8) 0.26015(11)
H13 H -0.1787 0.0208 0.2860
C14 C -0.0849(2) 0.00357(8) 0.17166(12)
H14 H -0.1641 -0.0078 0.1382
C15 C 0.03919(19) 0.00314(6) 0.13112(10)
C16 C 0.0509(2) -0.01238(8) 0.03257(11)
H15 H 0.1425 -0.0034 0.0149
H16 H 0.0411 -0.0502 0.0276
C17 C 0.15221(18) 0.01986(7) 0.18460(10)
H17 H 0.2382 0.0202 0.1601
C18 C 0.14049(17) 0.03599(6) 0.27273(10)
H18 H 0.2186 0.0469 0.3078
Co1_2 Co 1.0000 0.0000 0.5000
Co1_3 Co 0.0000 0.0000 -0.5000
Co1_4 Co -1.0000 0.0000 0.5000
N1_2 N -0.83888(15) 0.09790(5) 0.57097(8)
N2_2 N -0.23534(14) 0.07212(5) 0.55498(8)
N3B N -0.01825(14) -0.03633(5) -0.30937(8)
O1_2 O -0.92661(13) 0.05951(4) 0.58902(7)
O1B O -0.07339(13) -0.05951(4) 0.41098(7)
O2_2 O -0.19519(12) 0.02337(4) 0.53645(7)
O2B O 0.19519(12) -0.02337(4) 0.46355(7)
O3B O -0.00698(12) -0.05427(4) -0.39482(6)
O3B_2 O -0.00698(12) -0.05427(4) 0.60518(6)
C1_2 C -0.73528(18) 0.09020(7) 0.51613(10)
H1_2 H -0.7240 0.0576 0.4888
C2_2 C -0.64583(18) 0.13039(7) 0.50028(11)
H2_2 H -0.5757 0.1247 0.4610
C3_2 C -0.65697(18) 0.17921(6) 0.54114(11)
C4_2 C -0.7650(2) 0.18521(7) 0.59621(12)
H3_2 H -0.7776 0.2174 0.6249
C5_2 C -0.8551(2) 0.14489(7) 0.61003(12)
H4_2 H -0.9283 0.1503 0.6470
C6_2 C -0.55471(19) 0.22251(6) 0.52843(12)
H5_2 H -0.6001 0.2561 0.5354
H6_2 H -0.5245 0.2208 0.4664
C7_2 C -0.42772(19) 0.21969(6) 0.59694(12)
H7_2 H -0.3677 0.2493 0.5868
H8_2 H -0.4572 0.2222 0.6591
C8_2 C -0.34912(17) 0.16951(6) 0.58685(11)
C9_2 C -0.2743(2) 0.15977(7) 0.51168(12)
H9_2 H -0.2616 0.1868 0.4701
C10_2 C -0.21819(19) 0.11158(7) 0.49620(11)
H10_2 H -0.1681 0.1062 0.4448
C11_2 C -0.3558(2) 0.12873(7) 0.64827(11)
H11_2 H -0.3997 0.1339 0.7024
C12_2 C -0.29916(19) 0.08066(7) 0.63163(11)
H12_2 H -0.3054 0.0537 0.6743
C13B C 0.09376(19) -0.02043(8) -0.26015(11)
H13B H 0.1787 -0.0208 -0.2860
C14B C 0.0849(2) -0.00357(8) -0.17166(12)
H14B H 0.1641 0.0078 -0.1382
C15B C -0.03919(19) -0.00314(6) -0.13112(10)
C16B C -0.0509(2) 0.01238(8) -0.03257(11)
H15B H -0.1425 0.0034 -0.0149
H16B H -0.0411 0.0502 -0.0276
C17B C -0.15221(18) -0.01986(7) -0.18460(10)
H17B H -0.2382 -0.0202 -0.1601
C18B C -0.14049(17) -0.03599(6) -0.27273(10)
H18B H -0.2186 -0.0469 -0.3078
B1 B 0.4939(2) 0.14585(8) 0.14476(13)
C19 C 0.56397(18) 0.18997(7) 0.21501(10)
C20 C 0.4991(2) 0.23560(7) 0.24346(11)
H19 H 0.4067 0.2409 0.2251
C21 C 0.5675(3) 0.27333(8) 0.29812(13)
H20 H 0.5201 0.3028 0.3167
C22 C 0.7047(3) 0.26730(9) 0.32484(13)
H21 H 0.7506 0.2925 0.3615
C23 C 0.7728(2) 0.22369(9) 0.29674(12)
H22 H 0.8662 0.2195 0.3134
C24 C 0.70364(19) 0.18605(8) 0.24396(11)
H23 H 0.7521 0.1565 0.2267
C25 C 0.52289(17) 0.08601(7) 0.18402(12)
C26 C 0.51199(19) 0.04141(8) 0.12815(14)
H24 H 0.4934 0.0458 0.0652
C27 C 0.5278(2) -0.00948(8) 0.16269(19)
H25 H 0.5217 -0.0382 0.1230
C28 C 0.5524(2) -0.01700(9) 0.2555(2)
H26 H 0.5642 -0.0508 0.2791
C29 C 0.5594(2) 0.02526(10) 0.31305(16)
H27 H 0.5731 0.0202 0.3762
C30 C 0.54627(19) 0.07539(8) 0.27796(12)
H28 H 0.5533 0.1036 0.3187
C31 C 0.32574(18) 0.14957(6) 0.13334(12)
C32 C 0.25049(19) 0.14262(7) 0.04958(13)
H29 H 0.2981 0.1383 -0.0032
C33 C 0.1079(2) 0.14193(7) 0.04165(16)
H30 H 0.0622 0.1377 -0.0159
C34 C 0.0337(2) 0.14734(7) 0.11745(19)
H31 H -0.0621 0.1466 0.1120
C35 C 0.1025(2) 0.15390(7) 0.20176(17)
H32 H 0.0534 0.1577 0.2541
C36 C 0.24565(19) 0.15491(6) 0.20891(13)
H33 H 0.2902 0.1594 0.2668
C37 C 0.56422(17) 0.15823(7) 0.04676(11)
C38 C 0.66368(19) 0.12779(8) 0.00665(12)
H34 H 0.6894 0.0959 0.0340
C39 C 0.7256(2) 0.14287(9) -0.07185(14)
H35 H 0.7908 0.1211 -0.0962
C40 C 0.6922(2) 0.18920(11) -0.11378(13)
H36 H 0.7337 0.1992 -0.1668
C41 C 0.5963(2) 0.22119(9) -0.07682(13)
H37 H 0.5736 0.2533 -0.1042
C42 C 0.5334(2) 0.20542(8) 0.00150(12)
H38 H 0.4676 0.2274 0.0248
loop_
_geom_bond_atom_site_label_1
_geom_bond_atom_site_label_2
_geom_bond_site_symmetry_1
_geom_bond_site_symmetry_2
Co1 O1 1_555 1_555
B1 C19 1_555 1_555
N1 O1 1_555 1_555
N2 O2 1_555 1_555
N3 O3 1_555 1_555
O2 Co1_2 1_555 1_555
O3 Co1 1_555 1_555
C1 N1 1_555 1_555
H1 C1 1_555 1_555
C2 C1 1_555 1_555
H2 C2 1_555 1_555
C3 C2 1_555 1_555
C4 C3 1_555 1_555
H3 C4 1_555 1_555
C5 N1 1_555 1_555
H4 C5 1_555 1_555
C6 C3 1_555 1_555
H5 C6 1_555 1_555
H6 C6 1_555 1_555
C7 C6 1_555 1_555
H7 C7 1_555 1_555
H8 C7 1_555 1_555
C8 C7 1_555 1_555
C9 C8 1_555 1_555
H9 C9 1_555 1_555
C10 N2 1_555 1_555
H10 C10 1_555 1_555
C11 C8 1_555 1_555
H11 C11 1_555 1_555
C12 N2 1_555 1_555
H12 C12 1_555 1_555
C13 N3 1_555 1_555
H13 C13 1_555 1_555
C14 C13 1_555 1_555
H14 C14 1_555 1_555
C15 C14 1_555 1_555
C16 C15 1_555 1_555
H15 C16 1_555 1_555
H16 C16 1_555 1_555
C17 C15 1_555 1_555
H17 C17 1_555 1_555
C18 N3 1_555 1_555
H18 C18 1_555 1_555
C19 C20 1_555 1_555
C20 H19 1_555 1_555
C21 C20 1_555 1_555
H20 C21 1_555 1_555
C22 C21 1_555 1_555
H21 C22 1_555 1_555
C23 C22 1_555 1_555
H22 C23 1_555 1_555
C24 C19 1_555 1_555
H23 C24 1_555 1_555
C25 B1 1_555 1_555
C26 C25 1_555 1_555
H24 C26 1_555 1_555
C27 C26 1_555 1_555
H25 C27 1_555 1_555
C28 C27 1_555 1_555
H26 C28 1_555 1_555
C29 C28 1_555 1_555
H27 C29 1_555 1_555
C30 C25 1_555 1_555
H28 C30 1_555 1_555
C31 B1 1_555 1_555
C32 C31 1_555 1_555
H29 C32 1_555 1_555
C33 C32 1_555 1_555
H30 C33 1_555 1_555
C34 C33 1_555 1_555
H31 C34 1_555 1_555
C35 C34 1_555 1_555
H32 C35 1_555 1_555
C36 C31 1_555 1_555
H33 C36 1_555 1_555
C37 B1 1_555 1_555
C38 C37 1_555 1_555
H34 C38 1_555 1_555
C39 C38 1_555 1_555
H35 C39 1_555 1_555
C40 C39 1_555 1_555
H36 C40 1_555 1_555
C41 C40 1_555 1_555
H37 C41 1_555 1_555
C42 C37 1_555 1_555
H38 C42 1_555 1_555
Co1_3 O3B 1_555 1_555
Co1_4 O1_2 1_555 1_555
N1_2 O1_2 1_555 1_555
N2_2 O2_2 1_555 1_555
N3B O3B 1_555 1_555
O1B Co1 1_555 1_555
O2_2 Co1 1_555 1_555
O2B Co1 1_555 1_555
O3B_2 Co1 1_555 1_555
C1_2 N1_2 1_555 1_555
H1_2 C1_2 1_555 1_555
C2_2 C1_2 1_555 1_555
H2_2 C2_2 1_555 1_555
C3_2 C2_2 1_555 1_555
C4_2 C3_2 1_555 1_555
H3_2 C4_2 1_555 1_555
C5_2 N1_2 1_555 1_555
H4_2 C5_2 1_555 1_555
C6_2 C3_2 1_555 1_555
H5_2 C6_2 1_555 1_555
H6_2 C6_2 1_555 1_555
C7_2 C6_2 1_555 1_555
H7_2 C7_2 1_555 1_555
H8_2 C7_2 1_555 1_555
C8_2 C7_2 1_555 1_555
C9_2 C8_2 1_555 1_555
H9_2 C9_2 1_555 1_555
C10_2 N2_2 1_555 1_555
H10_2 C10_2 1_555 1_555
C11_2 C8_2 1_555 1_555
H11_2 C11_2 1_555 1_555
C12_2 N2_2 1_555 1_555
H12_2 C12_2 1_555 1_555
C13B N3B 1_555 1_555
H13B C13B 1_555 1_555
C14B C13B 1_555 1_555
H14B C14B 1_555 1_555
C15B C14B 1_555 1_555
C16B C16 1_555 1_555
H15B C16B 1_555 1_555
H16B C16B 1_555 1_555
C17B C15B 1_555 1_555
H17B C17B 1_555 1_555
C18B N3B 1_555 1_555
H18B C18B 1_555 1_555
C4 C5 1_555 1_555
C9 C10 1_555 1_555
C11 C12 1_555 1_555
C17 C18 1_555 1_555
C23 C24 1_555 1_555
C29 C30 1_555 1_555
C35 C36 1_555 1_555
C41 C42 1_555 1_555
C4_2 C5_2 1_555 1_555
C9_2 C10_2 1_555 1_555
C11_2 C12_2 1_555 1_555
C15B C16B 1_555 1_555
C17B C18B 1_555 1_555

#END
