
#######################################################################
#
#                 Cambridge Crystallographic Data Centre
#                                CCDC 
#
#######################################################################
#
# If this CIF has been generated from an entry in the Cambridge 
# Structural Database, then it will include bibliographic, chemical, 
# crystal, experimental, refinement or atomic coordinate data resulting 
# from the CCDC's data processing and validation procedures.
#
#######################################################################

data_TOJDIG
_symmetry_cell_setting           monoclinic
_symmetry_space_group_name_H-M   'P 21/n'
_symmetry_Int_Tables_number      14
_space_group_name_Hall           '-P 2yn'
loop_
_symmetry_equiv_pos_site_id
_symmetry_equiv_pos_as_xyz
1 x,y,z
2 1/2-x,1/2+y,1/2-z
3 -x,-y,-z
4 1/2+x,1/2-y,1/2+z
_cell_length_a                   9.9989(1)
_cell_length_b                   23.9270(3)
_cell_length_c                   15.1820(3)
_cell_angle_alpha                90
_cell_angle_beta                 91.3545(5)
_cell_angle_gamma                90
_cell_volume                     3631.18
loop_
_atom_site_label
_atom_site_type_symbol
_atom_site_fract_x
_atom_site_fract_y
_atom_site_fract_z
Mn1 Mn 0.0000 0.5000 0.0000
O1 O 0.18969(11) 0.52973(6) -0.04445(7)
O2 O 0.96418(11) 0.57677(5) 0.06432(8)
O3 O -0.11407(11) 0.52368(5) -0.12113(6)
N1 N 0.24328(13) 0.57240(7) 0.00137(9)
N2 N 0.85978(14) 0.61115(6) 0.06694(9)
N3 N -0.08872(13) 0.51102(5) -0.20439(8)
C1 C 0.33192(17) 0.56237(8) 0.06609(13)
H1 H 0.3563 0.5258 0.0796
C2 C 0.38706(19) 0.60563(8) 0.11254(13)
H2 H 0.4484 0.5978 0.1579
C3 C 0.35557(16) 0.66008(8) 0.09488(11)
C4 C 0.26242(19) 0.66847(9) 0.02830(14)
H3 H 0.2363 0.7047 0.0140
C5 C 0.20738(18) 0.62467(9) -0.01743(13)
H4 H 0.1442 0.6314 -0.0621
C6 C 0.42660(18) 0.70825(8) 0.13936(13)
H5 H 0.4615 0.6964 0.1965
H6 H 0.3638 0.7385 0.1484
C7 C 0.54206(18) 0.72911(7) 0.08284(13)
H7 H 0.5074 0.7380 0.0243
H8 H 0.5781 0.7632 0.1085
C8 C 0.65277(17) 0.68706(7) 0.07551(12)
C9 C 0.66389(18) 0.65131(8) 0.00543(12)
H9 H 0.6004 0.6527 -0.0403
C10 C 0.76687(18) 0.61362(8) 0.00148(12)
H10 H 0.7725 0.5897 -0.0466
C11 C 0.74935(19) 0.68244(8) 0.14107(13)
H11 H 0.7451 0.7058 0.1899
C12 C 0.85089(19) 0.64478(8) 0.13656(13)
H12 H 0.9143 0.6425 0.1822
C13 C -0.19149(17) 0.50405(7) -0.26152(11)
H13 H -0.2788 0.5074 -0.2424
C14 C -0.16829(19) 0.49201(8) -0.34844(11)
H14 H -0.2403 0.4873 -0.3876
C15 C -0.03998(19) 0.48688(8) -0.37808(11)
C16 C -0.0122(2) 0.47487(9) -0.47401(11)
H15 H 0.0652 0.4506 -0.4770
H16 H -0.0880 0.4550 -0.4999
C17 C 0.06258(18) 0.49563(8) -0.31799(11)
H17 H 0.1506 0.4935 -0.3362
C18 C 0.03737(17) 0.50752(7) -0.23146(10)
H18 H 0.1081 0.5132 -0.1916
Mn1_2 Mn 1.0000 0.5000 0.0000
Mn1_3 Mn 0.0000 0.5000 -1.0000
Mn1_4 Mn -1.0000 0.5000 0.0000
O1_2 O -0.81031(11) 0.52973(6) -0.04445(7)
O1B O -0.18969(11) 0.47027(6) 0.04445(7)
O2_2 O -0.03582(11) 0.57677(5) 0.06432(8)
O2B O 0.03582(11) 0.42323(5) -0.06432(8)
O3B O 0.11407(11) 0.47632(5) -0.87887(6)
O3B_2 O 0.11407(11) 0.47632(5) 0.12113(6)
N1_2 N -0.75672(13) 0.57240(7) 0.00137(9)
N2_2 N -0.14022(14) 0.61115(6) 0.06694(9)
N3B N 0.08872(13) 0.48898(5) -0.79561(8)
C1_2 C -0.66808(17) 0.56237(8) 0.06609(13)
H1_2 H -0.6437 0.5258 0.0796
C2_2 C -0.61294(19) 0.60563(8) 0.11254(13)
H2_2 H -0.5516 0.5978 0.1579
C3_2 C -0.64443(16) 0.66008(8) 0.09488(11)
C4_2 C -0.73758(19) 0.66847(9) 0.02830(14)
H3_2 H -0.7637 0.7047 0.0140
C5_2 C -0.79262(18) 0.62467(9) -0.01743(13)
H4_2 H -0.8558 0.6314 -0.0621
C6_2 C -0.57340(18) 0.70825(8) 0.13936(13)
H5_2 H -0.5385 0.6964 0.1965
H6_2 H -0.6362 0.7385 0.1484
C7_2 C -0.45794(18) 0.72911(7) 0.08284(13)
H7_2 H -0.4926 0.7380 0.0243
H8_2 H -0.4219 0.7632 0.1085
C8_2 C -0.34723(17) 0.68706(7) 0.07551(12)
C9_2 C -0.33611(18) 0.65131(8) 0.00543(12)
H9_2 H -0.3996 0.6527 -0.0403
C10_2 C -0.23313(18) 0.61362(8) 0.00148(12)
H10_2 H -0.2275 0.5897 -0.0466
C11_2 C -0.25065(19) 0.68244(8) 0.14107(13)
H11_2 H -0.2549 0.7058 0.1899
C12_2 C -0.14911(19) 0.64478(8) 0.13656(13)
H12_2 H -0.0857 0.6425 0.1822
C13B C 0.19149(17) 0.49595(7) -0.73848(11)
H13B H 0.2788 0.4926 -0.7576
C14B C 0.16829(19) 0.50799(8) -0.65156(11)
H14B H 0.2403 0.5127 -0.6124
C15B C 0.03998(19) 0.51312(8) -0.62192(11)
C16B C 0.0122(2) 0.52513(9) -0.52599(11)
H15B H -0.0652 0.5494 -0.5230
H16B H 0.0880 0.5450 -0.5001
C17B C -0.06258(18) 0.50437(8) -0.68201(11)
H17B H -0.1506 0.5065 -0.6638
C18B C -0.03737(17) 0.49248(7) -0.76854(10)
H18B H -0.1081 0.4868 -0.8084
B1 B 0.48036(18) 0.64478(9) -0.33259(13)
C19 C 0.64461(15) 0.64699(7) -0.33499(11)
C20 C 0.71606(16) 0.64616(7) -0.41266(13)
H19 H 0.6690 0.6476 -0.4662
C21 C 0.85458(19) 0.64336(8) -0.41334(16)
H20 H 0.8983 0.6431 -0.4667
C22 C 0.9270(2) 0.64103(8) -0.3363(2)
H21 H 1.0198 0.6391 -0.3370
C23 C 0.8624(2) 0.64155(8) -0.25787(18)
H22 H 0.9111 0.6399 -0.2050
C24 C 0.72357(17) 0.64451(8) -0.25753(13)
H23 H 0.6813 0.6449 -0.2036
C25 C 0.44849(15) 0.57832(7) -0.31264(11)
C26 C 0.41212(15) 0.55717(8) -0.23121(11)
H24 H 0.3993 0.5822 -0.1853
C27 C 0.39407(17) 0.50065(9) -0.21517(13)
H25 H 0.3703 0.4886 -0.1594
C28 C 0.41109(17) 0.46254(9) -0.28123(14)
H26 H 0.3974 0.4247 -0.2712
C29 C 0.44862(19) 0.48103(9) -0.36239(13)
H27 H 0.4616 0.4557 -0.4078
C30 C 0.46705(17) 0.53738(9) -0.37644(12)
H28 H 0.4935 0.5488 -0.4319
C31 C 0.41432(16) 0.66591(8) -0.42708(11)
C32 C 0.31336(19) 0.63935(9) -0.47396(13)
H29 H 0.2802 0.6059 -0.4521
C33 C 0.2588(2) 0.65993(12) -0.55191(16)
H30 H 0.1903 0.6405 -0.5810
C34 C 0.3056(3) 0.70890(13) -0.58624(15)
H31 H 0.2711 0.7224 -0.6395
C35 C 0.4030(2) 0.73752(10) -0.54155(15)
H32 H 0.4343 0.7713 -0.5634
C36 C 0.45550(18) 0.71624(8) -0.46331(13)
H33 H 0.5216 0.7366 -0.4335
C37 C 0.41632(16) 0.68630(7) -0.25930(11)
C38 C 0.48291(19) 0.73152(9) -0.21982(12)
H34 H 0.5730 0.7368 -0.2311
C39 C 0.4195(2) 0.76892(9) -0.16430(14)
H35 H 0.4677 0.7982 -0.1388
C40 C 0.2866(3) 0.76269(10) -0.14713(13)
H36 H 0.2440 0.7876 -0.1100
C41 C 0.2169(2) 0.71928(10) -0.18546(13)
H37 H 0.1261 0.7150 -0.1752
C42 C 0.28121(17) 0.68214(8) -0.23904(12)
H38 H 0.2321 0.6526 -0.2631
loop_
_geom_bond_atom_site_label_1
_geom_bond_atom_site_label_2
_geom_bond_site_symmetry_1
_geom_bond_site_symmetry_2
Mn1 O1 1_555 1_555
O1 N1 1_555 1_555
O2 N2 1_555 1_555
O3 Mn1 1_555 1_555
N1 C1 1_555 1_555
N2 C10 1_555 1_555
N3 O3 1_555 1_555
B1 C19 1_555 1_555
C1 H1 1_555 1_555
C2 C1 1_555 1_555
H2 C2 1_555 1_555
C3 C2 1_555 1_555
C4 C3 1_555 1_555
H3 C4 1_555 1_555
C5 N1 1_555 1_555
H4 C5 1_555 1_555
C6 C3 1_555 1_555
H5 C6 1_555 1_555
H6 C6 1_555 1_555
C7 C6 1_555 1_555
H7 C7 1_555 1_555
H8 C7 1_555 1_555
C8 C7 1_555 1_555
C9 C8 1_555 1_555
H9 C9 1_555 1_555
C10 C9 1_555 1_555
H10 C10 1_555 1_555
C11 C8 1_555 1_555
H11 C11 1_555 1_555
C12 N2 1_555 1_555
H12 C12 1_555 1_555
C13 N3 1_555 1_555
H13 C13 1_555 1_555
C14 C13 1_555 1_555
H14 C14 1_555 1_555
C15 C14 1_555 1_555
C16 C15 1_555 1_555
H15 C16 1_555 1_555
H16 C16 1_555 1_555
C17 C15 1_555 1_555
H17 C17 1_555 1_555
C18 N3 1_555 1_555
H18 C18 1_555 1_555
C19 C20 1_555 1_555
C20 H19 1_555 1_555
C21 C20 1_555 1_555
H20 C21 1_555 1_555
C22 C21 1_555 1_555
H21 C22 1_555 1_555
C23 C22 1_555 1_555
H22 C23 1_555 1_555
C24 C19 1_555 1_555
H23 C24 1_555 1_555
C25 B1 1_555 1_555
C26 C25 1_555 1_555
H24 C26 1_555 1_555
C27 C26 1_555 1_555
H25 C27 1_555 1_555
C28 C27 1_555 1_555
H26 C28 1_555 1_555
C29 C28 1_555 1_555
H27 C29 1_555 1_555
C30 C25 1_555 1_555
H28 C30 1_555 1_555
C31 B1 1_555 1_555
C32 C31 1_555 1_555
H29 C32 1_555 1_555
C33 C32 1_555 1_555
H30 C33 1_555 1_555
C34 C33 1_555 1_555
H31 C34 1_555 1_555
C35 C34 1_555 1_555
H32 C35 1_555 1_555
C36 C31 1_555 1_555
H33 C36 1_555 1_555
C37 B1 1_555 1_555
C38 C37 1_555 1_555
H34 C38 1_555 1_555
C39 C38 1_555 1_555
H35 C39 1_555 1_555
C40 C39 1_555 1_555
H36 C40 1_555 1_555
C41 C40 1_555 1_555
H37 C41 1_555 1_555
C42 C37 1_555 1_555
H38 C42 1_555 1_555
Mn1_2 O2 1_555 1_555
Mn1_3 O3B 1_555 1_555
Mn1_4 O1_2 1_555 1_555
O1_2 N1_2 1_555 1_555
O1B Mn1 1_555 1_555
O2_2 Mn1 1_555 1_555
O2B Mn1 1_555 1_555
O3B N3B 1_555 1_555
O3B_2 Mn1 1_555 1_555
N1_2 C1_2 1_555 1_555
N2_2 O2_2 1_555 1_555
N3B C13B 1_555 1_555
C1_2 H1_2 1_555 1_555
C2_2 C1_2 1_555 1_555
H2_2 C2_2 1_555 1_555
C3_2 C2_2 1_555 1_555
C4_2 C3_2 1_555 1_555
H3_2 C4_2 1_555 1_555
C5_2 N1_2 1_555 1_555
H4_2 C5_2 1_555 1_555
C6_2 C3_2 1_555 1_555
H5_2 C6_2 1_555 1_555
H6_2 C6_2 1_555 1_555
C7_2 C6_2 1_555 1_555
H7_2 C7_2 1_555 1_555
H8_2 C7_2 1_555 1_555
C8_2 C7_2 1_555 1_555
C9_2 C8_2 1_555 1_555
H9_2 C9_2 1_555 1_555
C10_2 N2_2 1_555 1_555
H10_2 C10_2 1_555 1_555
C11_2 C8_2 1_555 1_555
H11_2 C11_2 1_555 1_555
C12_2 N2_2 1_555 1_555
H12_2 C12_2 1_555 1_555
C13B H13B 1_555 1_555
C14B C13B 1_555 1_555
H14B C14B 1_555 1_555
C15B C14B 1_555 1_555
C16B C16 1_555 1_555
H15B C16B 1_555 1_555
H16B C16B 1_555 1_555
C17B C15B 1_555 1_555
H17B C17B 1_555 1_555
C18B N3B 1_555 1_555
H18B C18B 1_555 1_555
C4 C5 1_555 1_555
C11 C12 1_555 1_555
C17 C18 1_555 1_555
C23 C24 1_555 1_555
C29 C30 1_555 1_555
C35 C36 1_555 1_555
C41 C42 1_555 1_555
C4_2 C5_2 1_555 1_555
C9_2 C10_2 1_555 1_555
C11_2 C12_2 1_555 1_555
C15B C16B 1_555 1_555
C17B C18B 1_555 1_555

#END
