
#######################################################################
#
#                 Cambridge Crystallographic Data Centre
#                                CCDC 
#
#######################################################################
#
# If this CIF has been generated from an entry in the Cambridge 
# Structural Database, then it will include bibliographic, chemical, 
# crystal, experimental, refinement or atomic coordinate data resulting 
# from the CCDC's data processing and validation procedures.
#
#######################################################################

data_TOJDEC
_symmetry_cell_setting           triclinic
_symmetry_space_group_name_H-M   'P -1'
_symmetry_Int_Tables_number      2
_space_group_name_Hall           '-P 1'
loop_
_symmetry_equiv_pos_site_id
_symmetry_equiv_pos_as_xyz
1 x,y,z
2 -x,-y,-z
_cell_length_a                   5.8754(2)
_cell_length_b                   13.3670(3)
_cell_length_c                   14.6338(4)
_cell_angle_alpha                114.664(2)
_cell_angle_beta                 99.7320(10)
_cell_angle_gamma                95.8000(10)
_cell_volume                     1010.34
loop_
_atom_site_label
_atom_site_type_symbol
_atom_site_fract_x
_atom_site_fract_y
_atom_site_fract_z
Cu1 Cu 0.0000 0.0000 0.0000
O1 O 0.1445(3) -0.10273(14) 0.04684(13)
O2 O -0.0686(3) 0.09170(14) 0.13281(12)
O4 O 0.4098(5) 0.1113(2) 0.0540(2)
N1 N 0.0174(4) -0.20132(17) 0.03001(15)
N2 N -0.0517(4) 0.05685(18) 0.20753(15)
C1 C -0.1035(5) -0.2753(2) -0.0646(2)
H1 H -0.1022 -0.2591 -0.1205
C2 C -0.2292(5) -0.3751(2) -0.0795(2)
H2 H -0.3124 -0.4263 -0.1457
C3 C -0.2345(5) -0.4010(2) 0.0030(2)
C4 C -0.3802(6) -0.5081(2) -0.0111(3)
H3 H -0.2975 -0.5347 0.0350
H4 H -0.4000 -0.5649 -0.0815
C5 C -0.1063(6) -0.3223(3) 0.0985(2)
H5 H -0.1057 -0.3363 0.1557
C6 C 0.0201(5) -0.2243(2) 0.1113(2)
H6 H 0.1087 -0.1730 0.1765
C7 C -0.2446(6) -0.0007(3) 0.2141(2)
H7 H -0.3861 -0.0187 0.1660
C8 C -0.2306(7) -0.0322(3) 0.2918(2)
H8 H -0.3642 -0.0725 0.2956
C9 C -0.0232(8) -0.0059(3) 0.3653(2)
C10 C -0.0046(12) -0.0399(3) 0.4523(3)
H9 H -0.1386 -0.0989 0.4341
H10 H 0.1354 -0.0721 0.4555
C11 C 0.1682(7) 0.0547(3) 0.3562(2)
H11 H 0.3107 0.0750 0.4043
C12 C 0.1512(6) 0.0858(2) 0.2764(2)
H12 H 0.2817 0.1268 0.2711
H19 H 0.452(6) 0.164(3) 0.115(3)
H20 H 0.521(8) 0.101(4) 0.036(3)
Cu1_2 Cu -1.0000 -1.0000 0.0000
Cu1_3 Cu 0.0000 0.0000 1.0000
O1A O -1.1445(3) -0.89727(14) -0.04684(13)
O1A_2 O -0.1445(3) 0.10273(14) -0.04684(13)
O2A O 0.0686(3) -0.09170(14) 0.86719(12)
O2A_2 O 0.0686(3) -0.09170(14) -0.13281(12)
O4A O -0.4098(5) -0.1113(2) -0.0540(2)
N1A N -1.0174(4) -0.79868(17) -0.03001(15)
N2A N 0.0517(4) -0.05685(18) 0.79247(15)
C1A C -0.8965(5) -0.7247(2) 0.0646(2)
H1A H -0.8978 -0.7409 0.1205
C2A C -0.7708(5) -0.6249(2) 0.0795(2)
H2A H -0.6876 -0.5737 0.1457
C3A C -0.7655(5) -0.5990(2) -0.0030(2)
C4A C -0.6198(6) -0.4919(2) 0.0111(3)
H3A H -0.7025 -0.4653 -0.0350
H4A H -0.6000 -0.4351 0.0815
C5A C -0.8937(6) -0.6777(3) -0.0985(2)
H5A H -0.8943 -0.6637 -0.1557
C6A C -1.0201(5) -0.7757(2) -0.1113(2)
H6A H -1.1087 -0.8270 -0.1765
C7A C 0.2446(6) 0.0007(3) 0.7859(2)
H7A H 0.3861 0.0187 0.8340
C8A C 0.2306(7) 0.0322(3) 0.7082(2)
H8A H 0.3642 0.0725 0.7044
C9A C 0.0232(8) 0.0059(3) 0.6347(2)
C10A C 0.0046(12) 0.0399(3) 0.5477(3)
H9A H 0.1386 0.0989 0.5659
H10A H -0.1354 0.0721 0.5445
C11A C -0.1682(7) -0.0547(3) 0.6438(2)
H11A H -0.3107 -0.0750 0.5957
C12A C -0.1512(6) -0.0858(2) 0.7236(2)
H12A H -0.2817 -0.1268 0.7289
H19A H -0.452(6) -0.164(3) -0.115(3)
H20A H -0.521(8) -0.101(4) -0.036(3)
Cl1 Cl 0.3877(2) -0.28628(10) 0.33507(7)
O5 O 0.3614(8) -0.2091(4) 0.2965(4)
O6 O 0.5714(11) -0.3438(7) 0.3062(5)
O7 O 0.1870(9) -0.3664(4) 0.2958(3)
O8 O 0.4471(9) -0.2359(3) 0.4403(2)
O3 O -0.4761(4) 0.2579(2) 0.25799(19)
N3 N -0.2601(5) 0.3034(2) 0.3146(2)
C13 C -0.1806(6) 0.2837(3) 0.3965(3)
H13 H -0.2784 0.2355 0.4106
C14 C 0.0360(6) 0.3317(3) 0.4581(3)
H14 H 0.0849 0.3162 0.5139
C15 C 0.1881(6) 0.4043(3) 0.4396(2)
C16 C 0.4284(6) 0.4580(3) 0.5117(3)
H15 H 0.5163 0.3994 0.5083
H16 H 0.4092 0.4957 0.5819
C17 C 0.1037(6) 0.4233(3) 0.3557(3)
H17 H 0.1995 0.4708 0.3401
C18 C -0.1201(7) 0.3732(3) 0.2942(3)
H18 H -0.1739 0.3879 0.2384
O3A O 1.4761(4) 0.7421(2) 0.74201(19)
N3A N 1.2601(5) 0.6966(2) 0.6854(2)
C13A C 1.1806(6) 0.7163(3) 0.6035(3)
H13A H 1.2784 0.7645 0.5894
C14A C 0.9640(6) 0.6683(3) 0.5419(3)
H14A H 0.9151 0.6838 0.4861
C15A C 0.8119(6) 0.5957(3) 0.5604(2)
C16A C 0.5716(6) 0.5420(3) 0.4883(3)
H15A H 0.4837 0.6006 0.4917
H16A H 0.5908 0.5043 0.4181
C17A C 0.8963(6) 0.5767(3) 0.6443(3)
H17A H 0.8005 0.5292 0.6599
C18A C 1.1201(7) 0.6268(3) 0.7058(3)
H18A H 1.1739 0.6121 0.7616
loop_
_geom_bond_atom_site_label_1
_geom_bond_atom_site_label_2
_geom_bond_site_symmetry_1
_geom_bond_site_symmetry_2
Cu1 O1 1_555 1_555
Cl1 O5 1_555 1_555
O1 N1 1_555 1_555
O2 Cu1 1_555 1_555
O3 N3 1_555 1_555
O4 Cu1 1_555 1_555
O6 Cl1 1_555 1_555
O7 Cl1 1_555 1_555
O8 Cl1 1_555 1_555
N1 C1 1_555 1_555
N2 O2 1_555 1_555
N3 C13 1_555 1_555
C1 H1 1_555 1_555
C2 C1 1_555 1_555
H2 C2 1_555 1_555
C3 C2 1_555 1_555
C4 C3 1_555 1_555
H3 C4 1_555 1_555
H4 C4 1_555 1_555
C5 C3 1_555 1_555
H5 C5 1_555 1_555
C6 N1 1_555 1_555
H6 C6 1_555 1_555
C7 N2 1_555 1_555
H7 C7 1_555 1_555
C8 C7 1_555 1_555
H8 C8 1_555 1_555
C9 C8 1_555 1_555
C10 C9 1_555 1_555
H9 C10 1_555 1_555
H10 C10 1_555 1_555
C11 C9 1_555 1_555
H11 C11 1_555 1_555
C12 N2 1_555 1_555
H12 C12 1_555 1_555
C13 H13 1_555 1_555
C14 C13 1_555 1_555
H14 C14 1_555 1_555
C15 C14 1_555 1_555
C16 C15 1_555 1_555
H15 C16 1_555 1_555
H16 C16 1_555 1_555
C17 C15 1_555 1_555
H17 C17 1_555 1_555
C18 N3 1_555 1_555
H18 C18 1_555 1_555
H19 O4 1_555 1_555
H20 O4 1_555 1_555
Cu1_2 O1A 1_555 1_555
Cu1_3 O2A 1_555 1_555
O1A N1A 1_555 1_555
O1A_2 Cu1 1_555 1_555
O2A N2A 1_555 1_555
O2A_2 Cu1 1_555 1_555
O3A N3A 1_555 1_555
O4A Cu1 1_555 1_555
N1A C1A 1_555 1_555
N2A C7A 1_555 1_555
N3A C13A 1_555 1_555
C1A H1A 1_555 1_555
C2A C1A 1_555 1_555
H2A C2A 1_555 1_555
C3A C2A 1_555 1_555
C4A C4 1_555 1_555
H3A C4A 1_555 1_555
H4A C4A 1_555 1_555
C5A C3A 1_555 1_555
H5A C5A 1_555 1_555
C6A N1A 1_555 1_555
H6A C6A 1_555 1_555
C7A H7A 1_555 1_555
C8A C7A 1_555 1_555
H8A C8A 1_555 1_555
C9A C8A 1_555 1_555
C10A C10 1_555 1_555
H9A C10A 1_555 1_555
H10A C10A 1_555 1_555
C11A C9A 1_555 1_555
H11A C11A 1_555 1_555
C12A N2A 1_555 1_555
H12A C12A 1_555 1_555
C13A H13A 1_555 1_555
C14A C13A 1_555 1_555
H14A C14A 1_555 1_555
C15A C14A 1_555 1_555
C16A C16 1_555 1_555
H15A C16A 1_555 1_555
H16A C16A 1_555 1_555
C17A C15A 1_555 1_555
H17A C17A 1_555 1_555
C18A N3A 1_555 1_555
H18A C18A 1_555 1_555
H19A O4A 1_555 1_555
H20A O4A 1_555 1_555
C5 C6 1_555 1_555
C11 C12 1_555 1_555
C17 C18 1_555 1_555
C3A C4A 1_555 1_555
C5A C6A 1_555 1_555
C9A C10A 1_555 1_555
C11A C12A 1_555 1_555
C15A C16A 1_555 1_555
C17A C18A 1_555 1_555

#END
