
#######################################################################
#
#                 Cambridge Crystallographic Data Centre
#                                CCDC 
#
#######################################################################
#
# If this CIF has been generated from an entry in the Cambridge 
# Structural Database, then it will include bibliographic, chemical, 
# crystal, experimental, refinement or atomic coordinate data resulting 
# from the CCDC's data processing and validation procedures.
#
#######################################################################

data_TOJGAB
_symmetry_cell_setting           orthorhombic
_symmetry_space_group_name_H-M   'P 21 21 21'
_symmetry_Int_Tables_number      19
_space_group_name_Hall           'P 2ac 2ab'
loop_
_symmetry_equiv_pos_site_id
_symmetry_equiv_pos_as_xyz
1 x,y,z
2 1/2-x,-y,1/2+z
3 -x,1/2+y,1/2-z
4 1/2+x,1/2-y,-z
_cell_length_a                   8.4723(17)
_cell_length_b                   9.6587(19)
_cell_length_c                   21.283(4)
_cell_angle_alpha                90
_cell_angle_beta                 90
_cell_angle_gamma                90
_cell_volume                     1741.62
loop_
_atom_site_label
_atom_site_type_symbol
_atom_site_fract_x
_atom_site_fract_y
_atom_site_fract_z
Ag1 Ag 0.84105(4) 0.75497(4) 0.283809(14)
Ag2 Ag 1.05579(4) 1.11614(4) 0.527370(16)
C1 C 0.9647(5) 0.9484(5) 0.40102(19)
H1 H 0.9149 1.0273 0.3857
C2 C 1.0513(4) 0.7447(5) 0.40679(16)
H2 H 1.0765 0.6529 0.3981
C3 C 1.1852(4) 0.7634(5) 0.51274(16)
H3 H 1.2532 0.8373 0.5275
H4 H 1.2520 0.6871 0.4996
C4 C 1.0805(5) 0.7154(4) 0.56664(17)
C5 C 1.0103(5) 0.5857(4) 0.5640(2)
H5 H 1.0294 0.5274 0.5301
C6 C 0.9119(5) 0.5437(5) 0.6120(2)
H6 H 0.8621 0.4581 0.6095
C7 C 0.8865(5) 0.6267(5) 0.66359(19)
H7 H 0.8202 0.5969 0.6957
C8 C 0.9601(4) 0.7555(5) 0.66772(16)
C9 C 1.0557(5) 0.7995(4) 0.61910(16)
H8 H 1.1040 0.8859 0.6213
C10 C 0.9377(5) 0.8432(4) 0.72582(17)
H9 H 0.9947 0.9295 0.7208
H10 H 0.8266 0.8651 0.7305
C11 C 0.9183(4) 0.7400(5) 0.83534(16)
H11 H 0.8115 0.7562 0.8424
C12 C 1.1544(5) 0.6805(4) 0.84557(19)
H12 H 1.2467 0.6457 0.8632
N1 N 1.0390(4) 0.9452(3) 0.45515(14)
N2 N 0.9670(4) 0.8270(4) 0.36954(15)
N3 N 1.0943(4) 0.8130(3) 0.45840(14)
N4 N 0.9938(3) 0.7725(3) 0.78307(14)
N5 N 1.0145(4) 0.6815(3) 0.87608(15)
N6 N 1.1478(3) 0.7334(4) 0.78859(14)
N7 N 1.0700(5) 0.9448(4) 0.20835(17)
O4 O 1.0584(4) 0.8160(3) 0.20447(17)
O5 O 0.9494(4) 1.0186(3) 0.20927(18)
O6 O 1.2031(4) 0.9998(3) 0.21081(15)
Ag1C Ag 1.34105(4) 0.74503(4) 0.716191(14)
Ag1B Ag 1.15895(4) 1.25497(4) 0.216191(14)
Ag2B Ag 0.94421(4) 0.61614(4) 0.972630(16)
N5B N 0.9855(4) 1.1815(3) 0.62392(15)
N6C N 0.6478(3) 0.7666(4) 0.21141(14)
O6B O 0.7969(4) 0.4998(3) 0.28919(15)
N8 N 0.9188(5) 0.3479(4) 0.44469(16)
O1 O 0.8296(4) 0.2491(4) 0.45849(17)
O2 O 0.8582(4) 0.4600(3) 0.42834(16)
O3 O 1.0633(4) 0.3339(4) 0.44913(16)
loop_
_geom_bond_atom_site_label_1
_geom_bond_atom_site_label_2
_geom_bond_site_symmetry_1
_geom_bond_site_symmetry_2
Ag1 N2 1_555 1_555
Ag2 N1 1_555 1_555
C1 H1 1_555 1_555
C2 H2 1_555 1_555
C3 H3 1_555 1_555
H4 C3 1_555 1_555
C4 C3 1_555 1_555
C5 C4 1_555 1_555
H5 C5 1_555 1_555
C6 C5 1_555 1_555
H6 C6 1_555 1_555
C7 C6 1_555 1_555
H7 C7 1_555 1_555
C8 C7 1_555 1_555
C9 C4 1_555 1_555
H8 C9 1_555 1_555
C10 C8 1_555 1_555
H9 C10 1_555 1_555
H10 C10 1_555 1_555
C11 H11 1_555 1_555
C12 H12 1_555 1_555
N1 C1 1_555 1_555
N2 C1 1_555 1_555
N3 C2 1_555 1_555
N4 C10 1_555 1_555
N5 C11 1_555 1_555
N6 C12 1_555 1_555
N7 O4 1_555 1_555
N8 O1 1_555 1_555
O2 N8 1_555 1_555
O3 N8 1_555 1_555
O4 Ag1 1_555 1_555
O5 N7 1_555 1_555
O6 N7 1_555 1_555
Ag1C N6 1_555 1_555
Ag1B O6 1_555 1_555
Ag2B N5 1_555 1_555
N5B Ag2 1_555 1_555
N6C Ag1 1_555 1_555
O6B Ag1 1_555 1_555
C2 N2 1_555 1_555
C3 N3 1_555 1_555
C8 C9 1_555 1_555
C11 N4 1_555 1_555
C12 N5 1_555 1_555
N1 N3 1_555 1_555
N4 N6 1_555 1_555

#END
