
#######################################################################
#
#                 Cambridge Crystallographic Data Centre
#                                CCDC 
#
#######################################################################
#
# If this CIF has been generated from an entry in the Cambridge 
# Structural Database, then it will include bibliographic, chemical, 
# crystal, experimental, refinement or atomic coordinate data resulting 
# from the CCDC's data processing and validation procedures.
#
#######################################################################

data_TOJGIJ
_symmetry_cell_setting           orthorhombic
_symmetry_space_group_name_H-M   'C c c a'
_symmetry_Int_Tables_number      68
_space_group_name_Hall           '-C 2a 2bc'
loop_
_symmetry_equiv_pos_site_id
_symmetry_equiv_pos_as_xyz
1 x,y,z
2 1/2+x,1/2+y,z
3 -x,1/2-y,z
4 x,1/2-y,1/2-z
5 -x,y,1/2-z
6 1/2-x,-y,z
7 1/2+x,-y,1/2-z
8 1/2-x,1/2+y,1/2-z
9 -x,-y,-z
10 1/2-x,1/2-y,-z
11 x,1/2+y,-z
12 -x,1/2+y,1/2+z
13 x,-y,1/2+z
14 1/2+x,y,-z
15 1/2-x,y,1/2+z
16 1/2+x,1/2-y,1/2+z
_cell_length_a                   35.560(8)
_cell_length_b                   25.360(10)
_cell_length_c                   24.868(5)
_cell_angle_alpha                90
_cell_angle_beta                 90
_cell_angle_gamma                90
_cell_volume                     22426
loop_
_atom_site_label
_atom_site_type_symbol
_atom_site_fract_x
_atom_site_fract_y
_atom_site_fract_z
F1 F 0.2328(3) 0.2634(5) 0.7817(5)
F8 F 0.2632(12) 0.241(2) 0.7013(13)
F9 F 0.2569(8) 0.2079(12) 0.7731(16)
Si2 Si 0.275(3) 0.2500 0.7500
F1C F 0.2328(3) 0.2366(5) 0.7183(5)
F8C F 0.2632(12) 0.259(2) 0.7987(13)
F9C F 0.2569(8) 0.2921(12) 0.7269(16)
Ag1 Ag 0.47988(6) 0.04292(8) 0.04570(8)
Ag2 Ag 0.30600(7) 0.15600(8) 0.15767(8)
Ag3 Ag 0.29194(5) -0.00271(8) -0.00684(8)
C1 C 0.3559(6) -0.0465(8) 0.2529(8)
C2 C 0.3314(6) -0.0778(11) 0.2216(9)
C3 C 0.3462(6) -0.1147(7) 0.1856(8)
C4 C 0.3836(6) -0.1195(7) 0.1804(7)
C5 C 0.4074(5) -0.0878(7) 0.2109(7)
C6 C 0.3926(6) -0.0496(7) 0.2447(8)
C7 C 0.3402(8) -0.0100(8) 0.2942(9)
H1 H 0.3204 -0.0279 0.3138
H2 H 0.3598 -0.0008 0.3196
C8 C 0.2887(6) -0.0733(12) 0.2281(10)
H3 H 0.2783 -0.0564 0.1970
H4 H 0.2831 -0.0529 0.2596
H5 H 0.2781 -0.1080 0.2317
C9 C 0.3191(7) -0.1465(9) 0.1543(10)
H6 H 0.3322 -0.1763 0.1385
H7 H 0.3001 -0.1603 0.1785
C10 C 0.4000(7) -0.1588(9) 0.1413(9)
H8 H 0.4070 -0.1903 0.1603
H9 H 0.4218 -0.1438 0.1245
H10 H 0.3816 -0.1672 0.1144
C11 C 0.4491(5) -0.0992(7) 0.2087(8)
H11 H 0.4602 -0.0933 0.2439
H12 H 0.4531 -0.1359 0.1991
C12 C 0.4189(8) -0.0141(9) 0.2735(10)
H13 H 0.4120 0.0219 0.2668
H14 H 0.4440 -0.0202 0.2609
H15 H 0.4176 -0.0211 0.3114
C13 C 0.5124(6) -0.0377(11) 0.1247(11)
H16 H 0.5366 -0.0312 0.1123
C14 C 0.4551(6) -0.0328(8) 0.1343(8)
H17 H 0.4299 -0.0238 0.1309
C15 C 0.3263(7) 0.0595(9) 0.2239(8)
H18 H 0.3378 0.0440 0.1943
C16 C 0.2994(7) 0.1089(9) 0.2710(10)
H19 H 0.2866 0.1385 0.2832
C17 C 0.3126(6) -0.0776(9) 0.0838(9)
H20 H 0.3361 -0.0617 0.0867
C18 C 0.2588(7) -0.1038(13) 0.0579(13)
H21 H 0.2372 -0.1067 0.0371
C19 C 0.3577(7) 0.2531(8) -0.0423(9)
C20 C 0.3346(7) 0.2266(8) -0.0762(9)
C21 C 0.3491(6) 0.1919(8) -0.1117(8)
C22 C 0.3871(6) 0.1844(8) -0.1169(8)
C23 C 0.4126(6) 0.2133(8) -0.0818(8)
C24 C 0.3962(6) 0.2449(7) -0.0442(8)
C25 C 0.3420(8) 0.2938(7) -0.0058(9)
H22 H 0.3615 0.3192 0.0025
H23 H 0.3220 0.3123 -0.0244
C26 C 0.2928(6) 0.2306(10) -0.0713(10)
H24 H 0.2812 0.2139 -0.1017
H25 H 0.2855 0.2670 -0.0701
H26 H 0.2847 0.2133 -0.0389
C27 C 0.3238(6) 0.1609(8) -0.1486(8)
H27 H 0.3053 0.1844 -0.1645
H28 H 0.3386 0.1458 -0.1775
C28 C 0.4053(7) 0.1450(9) -0.1553(9)
H29 H 0.3948 0.1493 -0.1906
H30 H 0.4007 0.1098 -0.1428
H31 H 0.4319 0.1512 -0.1566
C29 C 0.4529(6) 0.2111(8) -0.0902(8)
H32 H 0.4579 0.2066 -0.1283
H33 H 0.4639 0.2443 -0.0791
C30 C 0.4195(8) 0.2736(9) -0.0044(10)
H34 H 0.4441 0.2581 -0.0029
H35 H 0.4079 0.2714 0.0304
H36 H 0.4216 0.3099 -0.0149
C31 C 0.3001(7) 0.2729(10) 0.1148(10)
H37 H 0.2859 0.2831 0.1444
C32 C 0.3287(7) 0.2252(8) 0.0628(8)
H38 H 0.3400 0.1965 0.0459
C33 C 0.2612(6) 0.0668(8) -0.1051(10)
H39 H 0.2381 0.0496 -0.1067
C34 C 0.3156(6) 0.0922(7) -0.0783(9)
H40 H 0.3377 0.0970 -0.0589
C35 C 0.4556(7) 0.1342(9) -0.0269(9)
H41 H 0.4306 0.1325 -0.0163
C36 C 0.5135(8) 0.1209(10) -0.0348(11)
H42 H 0.5370 0.1057 -0.0303
N1 N 0.4675(5) -0.0647(7) 0.1687(8)
N2 N 0.5043(6) -0.0694(8) 0.1623(8)
N3 N 0.4808(5) -0.0144(8) 0.1051(8)
N4 N 0.4828(5) 0.1027(7) -0.0108(8)
N5 N 0.5076(5) 0.1625(7) -0.0658(8)
N6 N 0.4704(5) 0.1689(6) -0.0609(7)
N7 N 0.3276(5) 0.2729(6) 0.0428(7)
N8 N 0.3098(6) 0.3046(8) 0.0771(9)
N9 N 0.3126(6) 0.2232(7) 0.1071(7)
N10 N 0.3099(7) 0.1047(9) 0.2223(8)
N11 N 0.3073(6) 0.0704(9) 0.3028(8)
N12 N 0.3250(5) 0.0381(6) 0.2706(7)
N13 N 0.3009(5) -0.1176(8) 0.1125(7)
N14 N 0.2864(6) -0.0635(8) 0.0506(8)
N15 N 0.2668(6) -0.1342(8) 0.0946(10)
N16 N 0.2889(5) 0.0558(8) -0.0684(8)
N17 N 0.3049(5) 0.1197(6) -0.1201(7)
N18 N 0.2712(5) 0.1034(7) -0.1365(7)
Ag1H Ag 0.52012(6) -0.04292(8) -0.04570(8)
Ag2H Ag 0.69400(7) -0.15600(8) -0.15767(8)
Ag3H Ag 0.70806(5) 0.00271(8) 0.00684(8)
Ag3E Ag 0.20806(5) 0.00271(8) -0.00684(8)
Ag3M Ag 0.79194(5) -0.00271(8) 0.00684(8)
C1H C 0.6441(6) 0.0465(8) -0.2529(8)
C2H C 0.6686(6) 0.0778(11) -0.2216(9)
C3H C 0.6538(6) 0.1147(7) -0.1856(8)
C4H C 0.6164(6) 0.1195(7) -0.1804(7)
C5H C 0.5926(5) 0.0878(7) -0.2109(7)
C6H C 0.6074(6) 0.0496(7) -0.2447(8)
C7H C 0.6598(8) 0.0100(8) -0.2942(9)
H1H H 0.6796 0.0279 -0.3138
H2H H 0.6402 0.0008 -0.3196
C8H C 0.7113(6) 0.0733(12) -0.2281(10)
H3H H 0.7217 0.0564 -0.1970
H4H H 0.7169 0.0529 -0.2596
H5H H 0.7219 0.1080 -0.2317
C9H C 0.6809(7) 0.1465(9) -0.1543(10)
H6H H 0.6678 0.1763 -0.1385
H7H H 0.6999 0.1603 -0.1785
C10H C 0.6000(7) 0.1588(9) -0.1413(9)
H8H H 0.5930 0.1903 -0.1603
H9H H 0.5782 0.1438 -0.1245
H10H H 0.6184 0.1672 -0.1144
C11H C 0.5509(5) 0.0992(7) -0.2087(8)
H11H H 0.5398 0.0933 -0.2439
H12H H 0.5469 0.1359 -0.1991
C12H C 0.5811(8) 0.0141(9) -0.2735(10)
H13H H 0.5880 -0.0219 -0.2668
H14H H 0.5560 0.0202 -0.2609
H15H H 0.5824 0.0211 -0.3114
C13H C 0.4876(6) 0.0377(11) -0.1247(11)
H16H H 0.4634 0.0312 -0.1123
C14H C 0.5449(6) 0.0328(8) -0.1343(8)
H17H H 0.5701 0.0238 -0.1309
C15H C 0.6737(7) -0.0595(9) -0.2239(8)
H18H H 0.6622 -0.0440 -0.1943
C16H C 0.7006(7) -0.1089(9) -0.2710(10)
H19H H 0.7134 -0.1385 -0.2832
C17H C 0.6874(6) 0.0776(9) -0.0838(9)
H20H H 0.6639 0.0617 -0.0867
C18H C 0.7412(7) 0.1038(13) -0.0579(13)
H21H H 0.7628 0.1067 -0.0371
C19H C 0.6423(7) -0.2531(8) 0.0423(9)
C20H C 0.6654(7) -0.2266(8) 0.0762(9)
C21H C 0.6509(6) -0.1919(8) 0.1117(8)
C22H C 0.6129(6) -0.1844(8) 0.1169(8)
C23H C 0.5874(6) -0.2133(8) 0.0818(8)
C24H C 0.6038(6) -0.2449(7) 0.0442(8)
C25H C 0.6580(8) -0.2938(7) 0.0058(9)
H22H H 0.6385 -0.3192 -0.0025
H23H H 0.6780 -0.3123 0.0244
C26H C 0.7072(6) -0.2306(10) 0.0713(10)
H24H H 0.7188 -0.2139 0.1017
H25H H 0.7145 -0.2670 0.0701
H26H H 0.7153 -0.2133 0.0389
C27H C 0.6762(6) -0.1609(8) 0.1486(8)
H27H H 0.6947 -0.1844 0.1645
H28H H 0.6614 -0.1458 0.1775
C28H C 0.5947(7) -0.1450(9) 0.1553(9)
H29H H 0.6052 -0.1493 0.1906
H30H H 0.5993 -0.1098 0.1428
H31H H 0.5681 -0.1512 0.1566
C29H C 0.5471(6) -0.2111(8) 0.0902(8)
H32H H 0.5421 -0.2066 0.1283
H33H H 0.5361 -0.2443 0.0791
C30H C 0.5805(8) -0.2736(9) 0.0044(10)
H34H H 0.5559 -0.2581 0.0029
H35H H 0.5921 -0.2714 -0.0304
H36H H 0.5784 -0.3099 0.0149
C31H C 0.6999(7) -0.2729(10) -0.1148(10)
H37H H 0.7141 -0.2831 -0.1444
C32H C 0.6713(7) -0.2252(8) -0.0628(8)
H38H H 0.6600 -0.1965 -0.0459
C33H C 0.7388(6) -0.0668(8) 0.1051(10)
H39H H 0.7619 -0.0496 0.1067
C34H C 0.6844(6) -0.0922(7) 0.0783(9)
H40H H 0.6623 -0.0970 0.0589
C35H C 0.5444(7) -0.1342(9) 0.0269(9)
H41H H 0.5694 -0.1325 0.0163
C36H C 0.4865(8) -0.1209(10) 0.0348(11)
H42H H 0.4630 -0.1057 0.0303
N1H N 0.5325(5) 0.0647(7) -0.1687(8)
N2H N 0.4957(6) 0.0694(8) -0.1623(8)
N3H N 0.5192(5) 0.0144(8) -0.1051(8)
N4H N 0.5172(5) -0.1027(7) 0.0108(8)
N5H N 0.4924(5) -0.1625(7) 0.0658(8)
N6H N 0.5296(5) -0.1689(6) 0.0609(7)
N7H N 0.6724(5) -0.2729(6) -0.0428(7)
N8H N 0.6902(6) -0.3046(8) -0.0771(9)
N9H N 0.6874(6) -0.2232(7) -0.1071(7)
N10H N 0.6901(7) -0.1047(9) -0.2223(8)
N11H N 0.6927(6) -0.0704(9) -0.3028(8)
N12H N 0.6750(5) -0.0381(6) -0.2706(7)
N13H N 0.6991(5) 0.1176(8) -0.1125(7)
N14H N 0.7136(6) 0.0635(8) -0.0506(8)
N15H N 0.7332(6) 0.1342(8) -0.0946(10)
N16H N 0.7111(5) -0.0558(8) 0.0684(8)
N17H N 0.6951(5) -0.1197(6) 0.1201(7)
N18H N 0.7288(5) -0.1034(7) 0.1365(7)
F2 F 0.3680(6) 0.0194(8) 0.1110(7)
F3 F 0.3224(5) 0.0744(11) 0.0683(11)
F4 F 0.3604(6) 0.0232(7) 0.0183(7)
F5 F 0.3702(6) 0.1116(7) 0.1116(7)
F6 F 0.4107(5) 0.0612(10) 0.0628(8)
F7 F 0.3688(8) 0.1121(8) 0.0205(9)
Si1 Si 0.3674(2) 0.0674(3) 0.0655(3)
O1 O 0.4002(9) 0.0191(14) 0.9199(13)
O2 O 0.3940(9) 0.9244(10) 0.0212(12)
O3 O 0.500(2) 0.2192(15) 0.7788(15)
O4 O 0.3305(14) 0.9208(14) 0.9245(17)
loop_
_geom_bond_atom_site_label_1
_geom_bond_atom_site_label_2
_geom_bond_site_symmetry_1
_geom_bond_site_symmetry_2
F1 Si2 1_555 1_555
Ag1 N3 1_555 1_555
Ag2 N9 1_555 1_555
Ag3 N14 1_555 1_555
C1 C2 1_555 1_555
C2 C3 1_555 1_555
C3 C4 1_555 1_555
C4 C5 1_555 1_555
C5 C6 1_555 1_555
C6 C1 1_555 1_555
C7 C1 1_555 1_555
H1 C7 1_555 1_555
H2 C7 1_555 1_555
C8 C2 1_555 1_555
H3 C8 1_555 1_555
H4 C8 1_555 1_555
H5 C8 1_555 1_555
C9 C3 1_555 1_555
H6 C9 1_555 1_555
H7 C9 1_555 1_555
C10 C4 1_555 1_555
H8 C10 1_555 1_555
H9 C10 1_555 1_555
H10 C10 1_555 1_555
C11 C5 1_555 1_555
H11 C11 1_555 1_555
H12 C11 1_555 1_555
C12 C6 1_555 1_555
H13 C12 1_555 1_555
H14 C12 1_555 1_555
H15 C12 1_555 1_555
C13 H16 1_555 1_555
C14 H17 1_555 1_555
C15 H18 1_555 1_555
C16 H19 1_555 1_555
C17 H20 1_555 1_555
C18 H21 1_555 1_555
C19 C20 1_555 1_555
C20 C21 1_555 1_555
C21 C22 1_555 1_555
C22 C23 1_555 1_555
C23 C24 1_555 1_555
C24 C19 1_555 1_555
C25 C19 1_555 1_555
H22 C25 1_555 1_555
H23 C25 1_555 1_555
C26 C20 1_555 1_555
H24 C26 1_555 1_555
H25 C26 1_555 1_555
H26 C26 1_555 1_555
C27 C21 1_555 1_555
H27 C27 1_555 1_555
H28 C27 1_555 1_555
C28 C22 1_555 1_555
H29 C28 1_555 1_555
H30 C28 1_555 1_555
H31 C28 1_555 1_555
C29 C23 1_555 1_555
H32 C29 1_555 1_555
H33 C29 1_555 1_555
C30 C24 1_555 1_555
H34 C30 1_555 1_555
H35 C30 1_555 1_555
H36 C30 1_555 1_555
C31 H37 1_555 1_555
C32 H38 1_555 1_555
C33 H39 1_555 1_555
C34 H40 1_555 1_555
C35 H41 1_555 1_555
C36 H42 1_555 1_555
F2 Si1 1_555 1_555
F3 Si1 1_555 1_555
F4 Si1 1_555 1_555
F5 Si1 1_555 1_555
F6 Si1 1_555 1_555
F7 Si1 1_555 1_555
F8 Si2 1_555 1_555
F9 Si2 1_555 1_555
N1 C11 1_555 1_555
N2 C13 1_555 1_555
N3 C13 1_555 1_555
N4 Ag1 1_555 1_555
N5 C36 1_555 1_555
N6 C29 1_555 1_555
N7 C25 1_555 1_555
N8 C31 1_555 1_555
N9 C31 1_555 1_555
N10 Ag2 1_555 1_555
N11 C16 1_555 1_555
N12 C7 1_555 1_555
N13 C9 1_555 1_555
N14 C17 1_555 1_555
N15 C18 1_555 1_555
N16 Ag3 1_555 1_555
N17 C27 1_555 1_555
N18 C33 1_555 1_555
Si2 F1C 1_555 1_555
Ag1H Ag1 1_555 1_555
Ag2H N9H 1_555 1_555
Ag3H Ag3M 1_555 1_555
Ag3E Ag3 1_555 1_555
C1H C2H 1_555 1_555
C2H C3H 1_555 1_555
C3H C4H 1_555 1_555
C4H C5H 1_555 1_555
C5H C6H 1_555 1_555
C6H C1H 1_555 1_555
C7H C1H 1_555 1_555
H1H C7H 1_555 1_555
H2H C7H 1_555 1_555
C8H C2H 1_555 1_555
H3H C8H 1_555 1_555
H4H C8H 1_555 1_555
H5H C8H 1_555 1_555
C9H C3H 1_555 1_555
H6H C9H 1_555 1_555
H7H C9H 1_555 1_555
C10H C4H 1_555 1_555
H8H C10H 1_555 1_555
H9H C10H 1_555 1_555
H10H C10H 1_555 1_555
C11H C5H 1_555 1_555
H11H C11H 1_555 1_555
H12H C11H 1_555 1_555
C12H C6H 1_555 1_555
H13H C12H 1_555 1_555
H14H C12H 1_555 1_555
H15H C12H 1_555 1_555
C13H H16H 1_555 1_555
C14H H17H 1_555 1_555
C15H H18H 1_555 1_555
C16H H19H 1_555 1_555
C17H H20H 1_555 1_555
C18H H21H 1_555 1_555
C19H C20H 1_555 1_555
C20H C21H 1_555 1_555
C21H C22H 1_555 1_555
C22H C23H 1_555 1_555
C23H C24H 1_555 1_555
C24H C19H 1_555 1_555
C25H C19H 1_555 1_555
H22H C25H 1_555 1_555
H23H C25H 1_555 1_555
C26H C20H 1_555 1_555
H24H C26H 1_555 1_555
H25H C26H 1_555 1_555
H26H C26H 1_555 1_555
C27H C21H 1_555 1_555
H27H C27H 1_555 1_555
H28H C27H 1_555 1_555
C28H C22H 1_555 1_555
H29H C28H 1_555 1_555
H30H C28H 1_555 1_555
H31H C28H 1_555 1_555
C29H C23H 1_555 1_555
H32H C29H 1_555 1_555
H33H C29H 1_555 1_555
C30H C24H 1_555 1_555
H34H C30H 1_555 1_555
H35H C30H 1_555 1_555
H36H C30H 1_555 1_555
C31H H37H 1_555 1_555
C32H H38H 1_555 1_555
C33H H39H 1_555 1_555
C34H H40H 1_555 1_555
C35H H41H 1_555 1_555
C36H H42H 1_555 1_555
F8C Si2 1_555 1_555
F9C Si2 1_555 1_555
N1H C11H 1_555 1_555
N2H C13H 1_555 1_555
N3H Ag1H 1_555 1_555
N4H Ag1H 1_555 1_555
N5H C36H 1_555 1_555
N6H C29H 1_555 1_555
N7H C25H 1_555 1_555
N8H C31H 1_555 1_555
N9H C31H 1_555 1_555
N10H Ag2H 1_555 1_555
N11H C16H 1_555 1_555
N12H C7H 1_555 1_555
N13H C9H 1_555 1_555
N14H Ag3H 1_555 1_555
N15H C18H 1_555 1_555
N16H Ag3H 1_555 1_555
N17H C27H 1_555 1_555
N18H C33H 1_555 1_555
C14 N1 1_555 1_555
C14 N3 1_555 1_555
C15 N10 1_555 1_555
C15 N12 1_555 1_555
C16 N10 1_555 1_555
C17 N13 1_555 1_555
C18 N14 1_555 1_555
C32 N7 1_555 1_555
C32 N9 1_555 1_555
C33 N16 1_555 1_555
C34 N16 1_555 1_555
C34 N17 1_555 1_555
C35 N4 1_555 1_555
C35 N6 1_555 1_555
C36 N4 1_555 1_555
N1 N2 1_555 1_555
N5 N6 1_555 1_555
N7 N8 1_555 1_555
N11 N12 1_555 1_555
N13 N15 1_555 1_555
N17 N18 1_555 1_555
C13H N3H 1_555 1_555
C14H N1H 1_555 1_555
C14H N3H 1_555 1_555
C15H N10H 1_555 1_555
C15H N12H 1_555 1_555
C16H N10H 1_555 1_555
C17H N13H 1_555 1_555
C17H N14H 1_555 1_555
C18H N14H 1_555 1_555
C32H N7H 1_555 1_555
C32H N9H 1_555 1_555
C33H N16H 1_555 1_555
C34H N16H 1_555 1_555
C34H N17H 1_555 1_555
C35H N4H 1_555 1_555
C35H N6H 1_555 1_555
C36H N4H 1_555 1_555
N1H N2H 1_555 1_555
N5H N6H 1_555 1_555
N7H N8H 1_555 1_555
N11H N12H 1_555 1_555
N13H N15H 1_555 1_555
N17H N18H 1_555 1_555

#END
