
#######################################################################
#
#                 Cambridge Crystallographic Data Centre
#                                CCDC 
#
#######################################################################
#
# If this CIF has been generated from an entry in the Cambridge 
# Structural Database, then it will include bibliographic, chemical, 
# crystal, experimental, refinement or atomic coordinate data resulting 
# from the CCDC's data processing and validation procedures.
#
#######################################################################

data_TOJGEF
_symmetry_cell_setting           triclinic
_symmetry_space_group_name_H-M   'P -1'
_symmetry_Int_Tables_number      2
_space_group_name_Hall           '-P 1'
loop_
_symmetry_equiv_pos_site_id
_symmetry_equiv_pos_as_xyz
1 x,y,z
2 -x,-y,-z
_cell_length_a                   4.4484(9)
_cell_length_b                   7.2739(15)
_cell_length_c                   12.024(2)
_cell_angle_alpha                84.31(3)
_cell_angle_beta                 87.70(3)
_cell_angle_gamma                81.05(3)
_cell_volume                     382.312
loop_
_atom_site_label
_atom_site_type_symbol
_atom_site_fract_x
_atom_site_fract_y
_atom_site_fract_z
N4 N 0.0000 0.0000 0.5000
O1 O 0.0607(14) 0.0604(14) 0.5756(8)
O2 O 0.142(2) 0.1057(13) 0.4364(11)
O1A O -0.0607(14) -0.0604(14) 0.4244(8)
O2A O -0.142(2) -0.1057(13) 0.5636(11)
Ag1 Ag 1.0000 0.5000 0.5000
C1 C 0.5132(7) 0.6952(5) 0.3309(3)
H1 H 0.4995 0.8080 0.3625
C2 C 0.6312(10) 0.4168(6) 0.2951(4)
H2 H 0.7240 0.2927 0.2999
C3 C 0.1539(7) 0.8042(5) 0.1721(3)
H3 H 0.0371 0.8938 0.2179
H4 H 0.0122 0.7400 0.1373
C4 C 0.3308(7) 0.9069(5) 0.0819(3)
C5 C 0.3866(8) 1.0860(5) 0.0937(3)
H5 H 0.3106 1.1452 0.1563
C6 C 0.4444(8) 0.8226(5) -0.0126(3)
H6 H 0.4070 0.7028 -0.0218
N1 N 0.6890(6) 0.5387(4) 0.3666(2)
N2 N 0.4339(8) 0.4882(5) 0.2187(3)
N3 N 0.3590(6) 0.6678(4) 0.2432(2)
Ag1_2 Ag 0.0000 1.5000 -0.5000
C1A C 0.4868(7) 1.3048(5) -0.3309(3)
H1A H 0.5005 1.1920 -0.3625
C2A C 0.3688(10) 1.5832(6) -0.2951(4)
H2A H 0.2760 1.7073 -0.2999
C3A C 0.8461(7) 1.1958(5) -0.1721(3)
H3A H 0.9629 1.1062 -0.2179
H4A H 0.9878 1.2600 -0.1373
C4A C 0.6692(7) 1.0931(5) -0.0819(3)
C5A C 0.6134(8) 0.9140(5) -0.0937(3)
H5A H 0.6894 0.8548 -0.1563
C6A C 0.5556(8) 1.1774(5) 0.0126(3)
H6A H 0.5930 1.2972 0.0218
N1A N 0.3110(6) 1.4613(4) -0.3666(2)
N1A_2 N 1.3110(6) 0.4613(4) 0.6334(2)
N2A N 0.5661(8) 1.5118(5) -0.2187(3)
N3A N 0.6410(6) 1.3322(4) -0.2432(2)
loop_
_geom_bond_atom_site_label_1
_geom_bond_atom_site_label_2
_geom_bond_site_symmetry_1
_geom_bond_site_symmetry_2
Ag1 N1 1_555 1_555
C1 H1 1_555 1_555
C2 H2 1_555 1_555
C3 H3 1_555 1_555
H4 C3 1_555 1_555
C4 C3 1_555 1_555
C5 C4 1_555 1_555
H5 C5 1_555 1_555
C6 C4 1_555 1_555
H6 C6 1_555 1_555
N1 C1 1_555 1_555
N2 C2 1_555 1_555
N3 C1 1_555 1_555
N4 O1 1_555 1_555
O2 N4 1_555 1_555
Ag1_2 N1A 1_555 1_555
C1A H1A 1_555 1_555
C2A H2A 1_555 1_555
C3A H3A 1_555 1_555
H4A C3A 1_555 1_555
C4A C3A 1_555 1_555
C5A C6 1_555 1_555
H5A C5A 1_555 1_555
C6A C5 1_555 1_555
H6A C6A 1_555 1_555
N1A C1A 1_555 1_555
N1A_2 Ag1 1_555 1_555
N2A C2A 1_555 1_555
N3A C1A 1_555 1_555
O1A N4 1_555 1_555
O2A N4 1_555 1_555
C2 N1 1_555 1_555
C3 N3 1_555 1_555
N2 N3 1_555 1_555
C2A N1A 1_555 1_555
C3A N3A 1_555 1_555
C4A C5A 1_555 1_555
C4A C6A 1_555 1_555
N2A N3A 1_555 1_555

#END
