
#######################################################################
#
#                 Cambridge Crystallographic Data Centre
#                                CCDC 
#
#######################################################################
#
# If this CIF has been generated from an entry in the Cambridge 
# Structural Database, then it will include bibliographic, chemical, 
# crystal, experimental, refinement or atomic coordinate data resulting 
# from the CCDC's data processing and validation procedures.
#
#######################################################################

data_TOJGEF01
_symmetry_cell_setting           triclinic
_symmetry_space_group_name_H-M   'P -1'
_symmetry_Int_Tables_number      2
_space_group_name_Hall           '-P 1'
loop_
_symmetry_equiv_pos_site_id
_symmetry_equiv_pos_as_xyz
1 x,y,z
2 -x,-y,-z
_cell_length_a                   7.2504(15)
_cell_length_b                   11.968(2)
_cell_length_c                   4.4289(9)
_cell_angle_alpha                92.17(3)
_cell_angle_beta                 98.90(3)
_cell_angle_gamma                84.48(3)
_cell_volume                     377.817
loop_
_atom_site_label
_atom_site_type_symbol
_atom_site_fract_x
_atom_site_fract_y
_atom_site_fract_z
N4 N 0.5000 0.5000 0.0000
O1 O 0.611(2) 0.5464(18) -0.073(2)
O2 O 0.499(2) 0.4029(10) 0.045(3)
O3 O 0.3829(14) 0.5657(13) 0.167(3)
O1A O 0.389(2) 0.4536(18) 0.073(2)
O2A O 0.501(2) 0.5971(10) -0.045(3)
O3A O 0.6171(14) 0.4343(13) -0.167(3)
Ag1 Ag -1.0000 1.5000 0.0000
N1 N -0.9611(4) 1.3668(2) 0.3115(6)
N2 N -1.0118(5) 1.2185(3) 0.5661(8)
N3 N -0.8325(4) 1.2429(2) 0.6403(6)
C1 C -1.0831(6) 1.2960(3) 0.3671(9)
H1 H -1.2075 1.3011 0.2733
C2 C -0.8041(5) 1.3306(3) 0.4877(7)
H2 H -0.6907 1.3622 0.5019
C3 C -0.6951(5) 1.1725(3) 0.8455(7)
H3 H -0.6047 1.2191 0.9595
H4 H -0.7585 1.1382 0.9907
C4 C -0.5933(5) 1.0815(3) 0.6703(7)
C5 C -0.4141(6) 1.0937(3) 0.6139(8)
H5 H -0.356(5) 1.155(4) 0.680(9)
C6 C -0.6775(6) 0.9877(3) 0.5548(8)
H6 H -0.794(5) 0.978(3) 0.587(7)
Ag1_2 Ag 0.0000 0.5000 1.0000
N1A N -0.0389(4) 0.6332(2) 0.6885(6)
N1A_2 N -1.0389(4) 1.6332(2) -0.3115(6)
N2A N 0.0118(5) 0.7815(3) 0.4339(8)
N3A N -0.1675(4) 0.7571(2) 0.3597(6)
C1A C 0.0831(6) 0.7040(3) 0.6329(9)
H1A H 0.2075 0.6989 0.7267
C2A C -0.1959(5) 0.6694(3) 0.5123(7)
H2A H -0.3093 0.6378 0.4981
C3A C -0.3049(5) 0.8275(3) 0.1545(7)
H3A H -0.3953 0.7809 0.0405
H4A H -0.2415 0.8618 0.0093
C4A C -0.4067(5) 0.9185(3) 0.3297(7)
C5A C -0.5859(6) 0.9063(3) 0.3861(8)
H5A H -0.644(5) 0.845(4) 0.320(9)
C6A C -0.3225(6) 1.0123(3) 0.4452(8)
H6A H -0.206(5) 1.022(3) 0.413(7)
loop_
_geom_bond_atom_site_label_1
_geom_bond_atom_site_label_2
_geom_bond_site_symmetry_1
_geom_bond_site_symmetry_2
Ag1 N1 1_555 1_555
N1 C1 1_555 1_555
N2 N3 1_555 1_555
N3 C2 1_555 1_555
N4 O1 1_555 1_555
C1 N2 1_555 1_555
H1 C1 1_555 1_555
C2 N1 1_555 1_555
H2 C2 1_555 1_555
C3 N3 1_555 1_555
H3 C3 1_555 1_555
H4 C3 1_555 1_555
C4 C3 1_555 1_555
C5 C4 1_555 1_555
H5 C5 1_555 1_555
C6 C4 1_555 1_555
H6 C6 1_555 1_555
O1 O2A 1_555 1_555
O2 N4 1_555 1_555
O3 N4 1_555 1_555
Ag1_2 N1A 1_555 1_555
N1A C1A 1_555 1_555
N1A_2 Ag1 1_555 1_555
N2A N3A 1_555 1_555
N3A C2A 1_555 1_555
C1A N2A 1_555 1_555
H1A C1A 1_555 1_555
C2A N1A 1_555 1_555
H2A C2A 1_555 1_555
C3A N3A 1_555 1_555
H3A C3A 1_555 1_555
H4A C3A 1_555 1_555
C4A C3A 1_555 1_555
C5A C6 1_555 1_555
H5A C5A 1_555 1_555
C6A C5 1_555 1_555
H6A C6A 1_555 1_555
O1A N4 1_555 1_555
O2A N4 1_555 1_555
O3A N4 1_555 1_555
O1 O3A 1_555 1_555
O2 O1A 1_555 1_555
O2 O3A 1_555 1_555
O3 O1A 1_555 1_555
O3 O2A 1_555 1_555
C4A C5A 1_555 1_555
C4A C6A 1_555 1_555

#END
