
#######################################################################
#
#                 Cambridge Crystallographic Data Centre
#                                CCDC 
#
#######################################################################
#
# If this CIF has been generated from an entry in the Cambridge 
# Structural Database, then it will include bibliographic, chemical, 
# crystal, experimental, refinement or atomic coordinate data resulting 
# from the CCDC's data processing and validation procedures.
#
#######################################################################

data_TOJGIK
_symmetry_cell_setting           monoclinic
_symmetry_space_group_name_H-M   'P 21/c'
_symmetry_Int_Tables_number      14
_space_group_name_Hall           '-P 2ybc'
loop_
_symmetry_equiv_pos_site_id
_symmetry_equiv_pos_as_xyz
1 x,y,z
2 -x,1/2+y,1/2-z
3 -x,-y,-z
4 x,1/2-y,1/2+z
_cell_length_a                   3.52320(10)
_cell_length_b                   10.3370(3)
_cell_length_c                   25.0518(9)
_cell_angle_alpha                90
_cell_angle_beta                 90.229(2)
_cell_angle_gamma                90
_cell_volume                     912.362
loop_
_atom_site_label
_atom_site_type_symbol
_atom_site_fract_x
_atom_site_fract_y
_atom_site_fract_z
Cu1 Cu 0.5000 0.0000 0.0000
C1 C 0.4046(7) 0.3555(2) 0.07992(10)
C2 C 0.5318(8) 0.3133(2) 0.12947(10)
H1 H 0.5920 0.2247 0.1350
C3 C 0.5699(7) 0.4009(2) 0.17050(11)
H2 H 0.6529 0.3730 0.2047
N1 N 0.4885(8) 0.5266(2) 0.16176(9)
H3 H 0.500(12) 0.583(3) 0.1879(14)
C4 C 0.3675(8) 0.5711(2) 0.11432(11)
H4 H 0.3144 0.6605 0.1098
C5 C 0.3206(8) 0.4873(2) 0.07247(11)
H5 H 0.2325 0.5178 0.0389
C6 C 0.3554(7) 0.2601(2) 0.03434(11)
O1 O 0.4968(6) 0.14955(14) 0.04465(7)
O2 O 0.1855(5) 0.29449(16) -0.00656(8)
O3 O 0.8938(6) 0.07510(18) -0.04707(8)
H6 H 0.907(10) 0.054(3) -0.0798(15)
H7 H 0.965(12) 0.147(3) -0.0405(15)
C1B C 0.5954(7) -0.3555(2) -0.07992(10)
C2B C 0.4682(8) -0.3133(2) -0.12947(10)
H1B H 0.4080 -0.2247 -0.1350
C3B C 0.4301(7) -0.4009(2) -0.17050(11)
H2B H 0.3471 -0.3730 -0.2047
N1B N 0.5115(8) -0.5266(2) -0.16176(9)
H3B H 0.500(12) -0.583(3) -0.1879(14)
C4B C 0.6325(8) -0.5711(2) -0.11432(11)
H4B H 0.6856 -0.6605 -0.1098
C5B C 0.6794(8) -0.4873(2) -0.07247(11)
H5B H 0.7675 -0.5178 -0.0389
C6B C 0.6446(7) -0.2601(2) -0.03434(11)
O1B O 0.5032(6) -0.14955(14) -0.04465(7)
O2B O 0.8145(5) -0.29449(16) 0.00656(8)
O3B O 0.1062(6) -0.07510(18) 0.04707(8)
H6B H 0.093(10) -0.054(3) 0.0798(15)
H7B H 0.035(12) -0.147(3) 0.0405(15)
Cu1_2 Cu -0.5000 0.0000 0.0000
Cu1_3 Cu 1.5000 0.0000 0.0000
O3_2 O -0.1062(6) 0.07510(18) -0.04707(8)
O3B_2 O 1.1062(6) -0.07510(18) 0.04707(8)
N2 N 0.0545(6) 0.4019(2) 0.32387(9)
O4 O 0.1630(7) 0.30716(17) 0.35009(8)
O5 O -0.0856(7) 0.49855(15) 0.34706(9)
O6 O 0.0805(6) 0.40258(19) 0.27389(8)
O7 O 0.6124(7) 0.65726(19) 0.25232(9)
H8 H 0.744(10) 0.611(3) 0.2738(14)
H9 H 0.720(9) 0.721(3) 0.2460(13)
loop_
_geom_bond_atom_site_label_1
_geom_bond_atom_site_label_2
_geom_bond_site_symmetry_1
_geom_bond_site_symmetry_2
Cu1 O1 1_555 1_555
C1 C2 1_555 1_555
C2 H1 1_555 1_555
C3 C2 1_555 1_555
H2 C3 1_555 1_555
N1 C3 1_555 1_555
H3 N1 1_555 1_555
C4 N1 1_555 1_555
H4 C4 1_555 1_555
C5 C1 1_555 1_555
H5 C5 1_555 1_555
C6 C1 1_555 1_555
O1 C6 1_555 1_555
O2 C6 1_555 1_555
O3 Cu1 1_555 1_555
H6 O3 1_555 1_555
H7 O3 1_555 1_555
N2 O4 1_555 1_555
O5 N2 1_555 1_555
O6 N2 1_555 1_555
O7 H8 1_555 1_555
H9 O7 1_555 1_555
C1B C2B 1_555 1_555
C2B H1B 1_555 1_555
C3B C2B 1_555 1_555
H2B C3B 1_555 1_555
N1B C3B 1_555 1_555
H3B N1B 1_555 1_555
C4B N1B 1_555 1_555
H4B C4B 1_555 1_555
C5B C1B 1_555 1_555
H5B C5B 1_555 1_555
C6B C1B 1_555 1_555
O1B Cu1 1_555 1_555
O2B C6B 1_555 1_555
O3B Cu1 1_555 1_555
H6B O3B 1_555 1_555
H7B O3B 1_555 1_555
Cu1_2 O3B 1_555 1_555
Cu1_3 O3 1_555 1_555
O3_2 Cu1 1_555 1_555
O3B_2 Cu1 1_555 1_555
C4 C5 1_555 1_555
C4B C5B 1_555 1_555
C6B O1B 1_555 1_555
Cu1_2 O3_2 1_555 1_555
Cu1_3 O3B_2 1_555 1_555

#END
