
#######################################################################
#
#                 Cambridge Crystallographic Data Centre
#                                CCDC 
#
#######################################################################
#
# If this CIF has been generated from an entry in the Cambridge 
# Structural Database, then it will include bibliographic, chemical, 
# crystal, experimental, refinement or atomic coordinate data resulting 
# from the CCDC's data processing and validation procedures.
#
#######################################################################

data_TOJHIL
_symmetry_cell_setting           monoclinic
_symmetry_space_group_name_H-M   'P 21/c'
_symmetry_Int_Tables_number      14
_space_group_name_Hall           '-P 2ybc'
loop_
_symmetry_equiv_pos_site_id
_symmetry_equiv_pos_as_xyz
1 x,y,z
2 -x,1/2+y,1/2-z
3 -x,-y,-z
4 x,1/2-y,1/2+z
_cell_length_a                   12.5978(6)
_cell_length_b                   7.7295(3)
_cell_length_c                   13.0446(6)
_cell_angle_alpha                90
_cell_angle_beta                 96.358(2)
_cell_angle_gamma                90
_cell_volume                     1262.4
loop_
_atom_site_label
_atom_site_type_symbol
_atom_site_fract_x
_atom_site_fract_y
_atom_site_fract_z
Y1 Y 0.48043(3) 0.07617(5) 0.68656(3)
O1 O 0.3308(6) -0.0954(9) 0.5922(6)
H1 H 0.3319 -0.0964 0.5266
H2 H 0.3239 -0.2005 0.6070
O2 O 0.8330(7) 0.1300(12) 0.8757(9)
O3 O 0.6745(6) -0.2415(10) 0.8419(6)
O4 O 0.6284(6) 0.0368(11) 0.8295(6)
O5 O 1.4062(5) -0.1329(10) 0.8081(5)
O6 O 1.3411(6) -0.3654(10) 0.8765(6)
O7 O 0.4552(5) 0.2675(9) 0.8408(5)
O8 O 0.4576(7) 0.3346(14) 1.0039(6)
C1 C 0.9374(9) 0.1868(15) 0.8753(9)
C2 C 1.0241(9) 0.0817(12) 0.8649(10)
H3 H 1.0153 -0.0376 0.8593
C3 C 1.1247(9) 0.1548(15) 0.8628(8)
C4 C 1.1389(10) 0.3347(16) 0.8754(10)
H4 H 1.2065 0.3839 0.8779
C5 C 1.0493(13) 0.4371(15) 0.8840(12)
H5 H 1.0576 0.5564 0.8898
C6 C 0.9505(10) 0.3680(15) 0.8842(10)
H6 H 0.8919 0.4390 0.8901
C7 C 0.8129(8) -0.0472(12) 0.8686(9)
H7 H 0.8395 -0.1021 0.9332
H8 H 0.8510 -0.0960 0.8148
C8 C 0.6948(8) -0.0858(10) 0.8448(7)
C9 C 1.2212(9) 0.0508(13) 0.8488(9)
H9 H 1.2798 0.1090 0.8281
C10 C 1.2301(8) -0.1182(15) 0.8636(9)
H10 H 1.1730 -0.1806 0.8841
C11 C 1.3318(7) -0.2094(12) 0.8473(7)
C12 C 0.4534(8) 0.2276(13) 0.9334(7)
Y1_2 Y 1.48043(3) 0.07617(5) 0.68656(3)
Y1A Y 0.51957(3) -0.42383(5) 0.81344(3)
Y1A_2 Y 0.51957(3) 0.57617(5) 0.81344(3)
Y1A_3 Y 1.51957(3) -0.42383(5) 0.81344(3)
Y1C Y 0.48043(3) 0.42383(5) 1.18656(3)
O3A O 0.3255(6) 0.2585(10) 0.6581(6)
O5_2 O 0.4062(5) -0.1329(10) 0.8081(5)
O5A O 0.5938(5) 0.3671(10) 0.6919(5)
O6A O 0.6589(6) 0.1346(10) 0.6235(6)
O7A O 0.5448(5) -0.2325(9) 0.6592(5)
O8C O 0.4576(7) 0.1654(14) 0.5039(6)
loop_
_geom_bond_atom_site_label_1
_geom_bond_atom_site_label_2
_geom_bond_site_symmetry_1
_geom_bond_site_symmetry_2
Y1 O1 1_555 1_555
O1 H1 1_555 1_555
H2 O1 1_555 1_555
O2 C1 1_555 1_555
O3 C8 1_555 1_555
O4 Y1 1_555 1_555
O5 C11 1_555 1_555
O6 C11 1_555 1_555
O7 Y1 1_555 1_555
O8 C12 1_555 1_555
C1 C2 1_555 1_555
C2 H3 1_555 1_555
C3 C2 1_555 1_555
C4 C3 1_555 1_555
H4 C4 1_555 1_555
C5 C4 1_555 1_555
H5 C5 1_555 1_555
C6 C1 1_555 1_555
H6 C6 1_555 1_555
C7 O2 1_555 1_555
H7 C7 1_555 1_555
H8 C7 1_555 1_555
C8 O4 1_555 1_555
C9 C3 1_555 1_555
H9 C9 1_555 1_555
C10 C9 1_555 1_555
H10 C10 1_555 1_555
C11 C10 1_555 1_555
C12 O7 1_555 1_555
Y1_2 O5 1_555 1_555
Y1A O3 1_555 1_555
Y1A_2 O7 1_555 1_555
Y1A_3 O5 1_555 1_555
Y1C O8 1_555 1_555
O3A Y1 1_555 1_555
O5_2 Y1 1_555 1_555
O5A Y1 1_555 1_555
O6A Y1 1_555 1_555
O7A Y1 1_555 1_555
O8C Y1 1_555 1_555
O6 Y1A_3 1_555 1_555
C5 C6 1_555 1_555
C7 C8 1_555 1_555
Y1A O5_2 1_555 1_555
Y1A O7A 1_555 1_555
Y1A_2 O5A 1_555 1_555

#END
