
#######################################################################
#
#                 Cambridge Crystallographic Data Centre
#                                CCDC 
#
#######################################################################
#
# If this CIF has been generated from an entry in the Cambridge 
# Structural Database, then it will include bibliographic, chemical, 
# crystal, experimental, refinement or atomic coordinate data resulting 
# from the CCDC's data processing and validation procedures.
#
#######################################################################

data_TOJHAD
_symmetry_cell_setting           monoclinic
_symmetry_space_group_name_H-M   'P 21/c'
_symmetry_Int_Tables_number      14
_space_group_name_Hall           '-P 2ybc'
loop_
_symmetry_equiv_pos_site_id
_symmetry_equiv_pos_as_xyz
1 x,y,z
2 -x,1/2+y,1/2-z
3 -x,-y,-z
4 x,1/2-y,1/2+z
_cell_length_a                   12.6198(7)
_cell_length_b                   7.7332(4)
_cell_length_c                   13.0407(7)
_cell_angle_alpha                90
_cell_angle_beta                 96.457(2)
_cell_angle_gamma                90
_cell_volume                     1264.59
loop_
_atom_site_label
_atom_site_type_symbol
_atom_site_fract_x
_atom_site_fract_y
_atom_site_fract_z
Nd1 Nd 0.480262(8) 0.076408(13) 0.686773(8)
O1 O 0.33181(13) -0.0974(2) 0.59263(13)
H1 H 0.3329 -0.0983 0.5270
H2 H 0.3250 -0.2025 0.6074
O2 O 0.83349(15) 0.1295(3) 0.8744(2)
O3 O 0.67499(13) -0.2438(2) 0.84220(14)
O4 O 0.62918(13) 0.0345(2) 0.82949(13)
O5 O 1.40616(12) -0.1341(2) 0.80711(12)
O6 O 1.34044(12) -0.3643(2) 0.87635(13)
O7 O 0.45549(12) 0.26778(19) 0.84006(11)
O8 O 0.45743(15) 0.3319(3) 1.00451(14)
C1 C 0.9383(2) 0.1874(3) 0.8755(2)
C2 C 1.0254(2) 0.0818(3) 0.8660(2)
H3 H 1.0166 -0.0374 0.8609
C3 C 1.1264(2) 0.1545(3) 0.8639(2)
C4 C 1.1385(2) 0.3333(4) 0.8752(2)
H4 H 1.2057 0.3832 0.8760
C5 C 1.0512(3) 0.4353(3) 0.8852(3)
H5 H 1.0601 0.5543 0.8923
C6 C 0.9513(3) 0.3660(4) 0.8847(2)
H6 H 0.8928 0.4371 0.8905
C7 C 0.81294(18) -0.0465(3) 0.8683(2)
H7 H 0.8400 -0.1005 0.9331
H8 H 0.8506 -0.0962 0.8145
C8 C 0.69553(17) -0.0856(3) 0.84533(17)
C9 C 1.2212(2) 0.0510(3) 0.8503(2)
H9 H 1.2797 0.1094 0.8299
C10 C 1.23103(19) -0.1178(3) 0.8644(2)
H10 H 1.1742 -0.1804 0.8852
C11 C 1.33125(17) -0.2094(3) 0.84771(16)
C12 C 0.45284(18) 0.2270(3) 0.93408(17)
Nd1_2 Nd 1.480262(8) 0.076408(13) 0.686773(8)
Nd1A Nd 0.519738(8) -0.423592(13) 0.813227(8)
Nd1A_2 Nd 0.519738(8) 0.576408(13) 0.813227(8)
Nd1A_3 Nd 1.519738(8) -0.423592(13) 0.813227(8)
Nd1C Nd 0.480262(8) 0.423592(13) 1.186773(8)
O3A O 0.32501(13) 0.2562(2) 0.65780(14)
O5_2 O 0.40616(12) -0.1341(2) 0.80711(12)
O5A O 0.59384(12) 0.3659(2) 0.69289(12)
O6A O 0.65956(12) 0.1357(2) 0.62365(13)
O7A O 0.54451(12) -0.23222(19) 0.65994(11)
O8C O 0.45743(15) 0.1681(3) 0.50451(14)
loop_
_geom_bond_atom_site_label_1
_geom_bond_atom_site_label_2
_geom_bond_site_symmetry_1
_geom_bond_site_symmetry_2
Nd1 O1 1_555 1_555
O1 H1 1_555 1_555
H2 O1 1_555 1_555
O2 C1 1_555 1_555
O3 C8 1_555 1_555
O4 Nd1 1_555 1_555
O5 C11 1_555 1_555
O6 C11 1_555 1_555
O7 Nd1 1_555 1_555
O8 C12 1_555 1_555
C1 C2 1_555 1_555
C2 H3 1_555 1_555
C3 C2 1_555 1_555
C4 C3 1_555 1_555
H4 C4 1_555 1_555
C5 C4 1_555 1_555
H5 C5 1_555 1_555
C6 C1 1_555 1_555
H6 C6 1_555 1_555
C7 O2 1_555 1_555
H7 C7 1_555 1_555
H8 C7 1_555 1_555
C8 O4 1_555 1_555
C9 C3 1_555 1_555
H9 C9 1_555 1_555
C10 C9 1_555 1_555
H10 C10 1_555 1_555
C11 C10 1_555 1_555
C12 O7 1_555 1_555
Nd1_2 O5 1_555 1_555
Nd1A O3 1_555 1_555
Nd1A_2 O7 1_555 1_555
Nd1A_3 O5 1_555 1_555
Nd1C O8 1_555 1_555
O3A Nd1 1_555 1_555
O5_2 Nd1 1_555 1_555
O5A Nd1 1_555 1_555
O6A Nd1 1_555 1_555
O7A Nd1 1_555 1_555
O8C Nd1 1_555 1_555
O6 Nd1A_3 1_555 1_555
C5 C6 1_555 1_555
C7 C8 1_555 1_555
Nd1A O5_2 1_555 1_555
Nd1A O7A 1_555 1_555
Nd1A_2 O5A 1_555 1_555

#END
