
#######################################################################
#
#                 Cambridge Crystallographic Data Centre
#                                CCDC 
#
#######################################################################
#
# If this CIF has been generated from an entry in the Cambridge 
# Structural Database, then it will include bibliographic, chemical, 
# crystal, experimental, refinement or atomic coordinate data resulting 
# from the CCDC's data processing and validation procedures.
#
#######################################################################

data_TOJJIN
_symmetry_cell_setting           monoclinic
_symmetry_space_group_name_H-M   'C 2/c'
_symmetry_Int_Tables_number      15
_space_group_name_Hall           '-C 2yn'
loop_
_symmetry_equiv_pos_site_id
_symmetry_equiv_pos_as_xyz
1 x,y,z
2 -x,y,1/2-z
3 1/2+x,1/2+y,z
4 1/2-x,1/2+y,1/2-z
5 -x,-y,-z
6 x,-y,1/2+z
7 1/2-x,1/2-y,-z
8 1/2+x,1/2-y,1/2+z
_cell_length_a                   23.577(5)
_cell_length_b                   11.491(2)
_cell_length_c                   11.968(2)
_cell_angle_alpha                90
_cell_angle_beta                 120.39(3)
_cell_angle_gamma                90
_cell_volume                     2796.91
loop_
_atom_site_label
_atom_site_type_symbol
_atom_site_fract_x
_atom_site_fract_y
_atom_site_fract_z
Tb1 Tb 0.0000 0.06382(3) 0.2500
O1 O 0.00891(19) 0.1604(3) 0.4355(4)
O2 O -0.0380(2) -0.0861(3) 0.0930(4)
H1 H -0.0208 -0.0955 0.0461
H2 H -0.0689 -0.1308 0.0837
O3 O 0.40342(18) 0.4943(4) 0.2357(4)
C1 C 0.2717(3) 0.4448(5) 0.3681(7)
H3 H 0.2750 0.4904 0.4354
N1 N 0.0846(2) 0.2314(4) 0.3446(4)
C2 C 0.3155(3) 0.4616(5) 0.3248(6)
H4 H 0.3473 0.5194 0.3626
C3 C 0.1451(3) 0.3590(6) 0.5226(6)
H5 H 0.1506 0.3932 0.5979
C4 C 0.3626(3) 0.4108(5) 0.1838(6)
O4 O 0.3583(2) 0.3439(4) 0.0969(5)
C5 C 0.1782(3) 0.3373(5) 0.3636(6)
C6 C 0.0468(3) 0.2455(5) 0.4967(6)
O5 O 0.0481(2) 0.3006(4) 0.5874(5)
C7 C 0.0940(3) 0.2816(5) 0.4533(5)
C8 C 0.1255(3) 0.2600(6) 0.3014(6)
H6 H 0.1182 0.2259 0.2248
C9 C 0.2226(3) 0.3603(5) 0.3118(5)
C10 C 0.2198(3) 0.2952(7) 0.2121(6)
H7 H 0.1873 0.2387 0.1725
C11 C 0.1879(3) 0.3850(6) 0.4786(6)
H8 H 0.2232 0.4346 0.5263
C12 C 0.3132(3) 0.3946(5) 0.2270(5)
C13 C 0.2636(3) 0.3114(7) 0.1696(7)
H9 H 0.2600 0.2664 0.1018
O1A O -0.00891(19) 0.1604(3) 0.0645(4)
O2A O 0.0380(2) -0.0861(3) 0.4070(4)
H1A H 0.0208 -0.0955 0.4539
H2A H 0.0689 -0.1308 0.4163
O3A O -0.40342(18) 0.4943(4) 0.2643(4)
C1A C -0.2717(3) 0.4448(5) 0.1319(7)
H3A H -0.2750 0.4904 0.0646
N1A N -0.0846(2) 0.2314(4) 0.1554(4)
C2A C -0.3155(3) 0.4616(5) 0.1752(6)
H4A H -0.3473 0.5194 0.1374
C3A C -0.1451(3) 0.3590(6) -0.0226(6)
H5A H -0.1506 0.3932 -0.0979
C4A C -0.3626(3) 0.4108(5) 0.3162(6)
O4A O -0.3583(2) 0.3439(4) 0.4031(5)
C5A C -0.1782(3) 0.3373(5) 0.1364(6)
C6A C -0.0468(3) 0.2455(5) 0.0033(6)
O5A O -0.0481(2) 0.3006(4) -0.0874(5)
C7A C -0.0940(3) 0.2816(5) 0.0467(5)
C8A C -0.1255(3) 0.2600(6) 0.1986(6)
H6A H -0.1182 0.2259 0.2752
C9A C -0.2226(3) 0.3603(5) 0.1882(5)
C10A C -0.2198(3) 0.2952(7) 0.2879(6)
H7A H -0.1873 0.2387 0.3275
C11A C -0.1879(3) 0.3850(6) 0.0214(6)
H8A H -0.2232 0.4346 -0.0263
C12A C -0.3132(3) 0.3946(5) 0.2730(5)
C13A C -0.2636(3) 0.3114(7) 0.3304(7)
H9A H -0.2600 0.2664 0.3982
Tb1B Tb -0.5000 0.56382(3) 0.2500
Tb1B_2 Tb 0.5000 0.56382(3) 0.2500
O3B O -0.09658(18) -0.0057(4) 0.2357(4)
O3C O 0.09658(18) -0.0057(4) 0.2643(4)
C14 C 0.0570(5) 0.5929(7) 0.3417(9)
H10 H 0.0455 0.5489 0.3956
H11 H 0.0937 0.6425 0.3950
H12 H 0.0686 0.5406 0.2939
N2 N 0.0000 0.6652(7) 0.2500
H13 H 0.0121 0.7113 0.2049
H13A H -0.0121 0.7113 0.2951
C14A C -0.0570(5) 0.5929(7) 0.1583(9)
H10A H -0.0455 0.5489 0.1044
H11A H -0.0937 0.6425 0.1050
H12A H -0.0686 0.5406 0.2061
H14? H 0.0121 0.7113 0.2049
loop_
_geom_bond_atom_site_label_1
_geom_bond_atom_site_label_2
_geom_bond_site_symmetry_1
_geom_bond_site_symmetry_2
Tb1 O1 1_555 1_555
O1 C6 1_555 1_555
O2 Tb1 1_555 1_555
H1 O2 1_555 1_555
H2 O2 1_555 1_555
O3 C4 1_555 1_555
C1 H3 1_555 1_555
N1 Tb1 1_555 1_555
C2 C1 1_555 1_555
H4 C2 1_555 1_555
C3 H5 1_555 1_555
C4 O4 1_555 1_555
C5 C8 1_555 1_555
C6 O5 1_555 1_555
C7 N1 1_555 1_555
C8 N1 1_555 1_555
H6 C8 1_555 1_555
C9 C1 1_555 1_555
C10 C9 1_555 1_555
H7 C10 1_555 1_555
C11 C3 1_555 1_555
H8 C11 1_555 1_555
C12 C2 1_555 1_555
C13 C10 1_555 1_555
H9 C13 1_555 1_555
C14 H10 1_555 1_555
H11 C14 1_555 1_555
H12 C14 1_555 1_555
N2 C14 1_555 1_555
H13 N2 1_555 1_555
O1A Tb1 1_555 1_555
O2A Tb1 1_555 1_555
H1A O2A 1_555 1_555
H2A O2A 1_555 1_555
O3A C4A 1_555 1_555
C1A H3A 1_555 1_555
N1A Tb1 1_555 1_555
C2A C1A 1_555 1_555
H4A C2A 1_555 1_555
C3A H5A 1_555 1_555
C4A O4A 1_555 1_555
C5A C8A 1_555 1_555
C6A O1A 1_555 1_555
O5A C6A 1_555 1_555
C7A N1A 1_555 1_555
C8A N1A 1_555 1_555
H6A C8A 1_555 1_555
C9A C1A 1_555 1_555
C10A C9A 1_555 1_555
H7A C10A 1_555 1_555
C11A C3A 1_555 1_555
H8A C11A 1_555 1_555
C12A C2A 1_555 1_555
C13A C10A 1_555 1_555
H9A C13A 1_555 1_555
Tb1B O3A 1_555 1_555
Tb1B_2 O3 1_555 1_555
O3B Tb1 1_555 1_555
O3C Tb1 1_555 1_555
H13A N2 1_555 1_555
C14A N2 1_555 1_555
H10A C14A 1_555 1_555
H11A C14A 1_555 1_555
H12A C14A 1_555 1_555
C3 C7 1_555 1_555
C4 C12 1_555 1_555
C5 C9 1_555 1_555
C5 C11 1_555 1_555
C6 C7 1_555 1_555
C12 C13 1_555 1_555
C3A C7A 1_555 1_555
C4A C12A 1_555 1_555
C5A C9A 1_555 1_555
C5A C11A 1_555 1_555
C6A C7A 1_555 1_555
C12A C13A 1_555 1_555

#END
