
#######################################################################
#
#                 Cambridge Crystallographic Data Centre
#                                CCDC 
#
#######################################################################
#
# If this CIF has been generated from an entry in the Cambridge 
# Structural Database, then it will include bibliographic, chemical, 
# crystal, experimental, refinement or atomic coordinate data resulting 
# from the CCDC's data processing and validation procedures.
#
#######################################################################

data_TOJPOZ
_symmetry_cell_setting           monoclinic
_symmetry_space_group_name_H-M   'C 2/c'
_symmetry_Int_Tables_number      15
_space_group_name_Hall           '-C 2yn'
loop_
_symmetry_equiv_pos_site_id
_symmetry_equiv_pos_as_xyz
1 x,y,z
2 -x,y,1/2-z
3 1/2+x,1/2+y,z
4 1/2-x,1/2+y,1/2-z
5 -x,-y,-z
6 x,-y,1/2+z
7 1/2-x,1/2-y,-z
8 1/2+x,1/2-y,1/2+z
_cell_length_a                   28.162(12)
_cell_length_b                   7.011(3)
_cell_length_c                   16.602(7)
_cell_angle_alpha                90
_cell_angle_beta                 125.162(4)
_cell_angle_gamma                90
_cell_volume                     2679.82
loop_
_atom_site_label
_atom_site_type_symbol
_atom_site_fract_x
_atom_site_fract_y
_atom_site_fract_z
Sm1 Sm 0.28959(2) 0.61244(8) 0.13725(4)
O1 O 0.2116(3) 0.3928(11) 0.0292(6)
O2 O 0.2050(3) 0.7843(11) 0.0064(5)
O3 O 0.2345(3) 0.6955(14) 0.1982(6)
O4 O 0.2967(3) 0.9189(10) 0.1497(5)
O5 O 0.1802(3) 0.1557(11) -0.0809(6)
O6 O 0.1231(3) 0.7955(13) -0.1410(5)
N1 N -0.1224(4) 0.7980(16) -0.1750(7)
O7 O 0.1907(4) 0.8461(12) 0.2548(6)
C1 C 0.2190(5) 0.2651(15) -0.0134(8)
C2 C 0.1501(5) 0.7756(15) -0.0484(8)
C3 C 0.1909(5) 0.7651(16) 0.1872(8)
H1 H 0.2794 0.9810 0.0959
H2 H 0.3077 0.9984 0.1959
C4 C 0.1167(5) 0.7577(15) -0.0068(7)
C5 C 0.1342(4) 0.7543(15) 0.0896(7)
N2 N 0.0565(4) 0.7588(13) -0.0683(7)
N3 N 0.0842(4) 0.7550(13) 0.0854(6)
C6 C 0.0392(5) 0.7560(14) -0.0096(7)
H3 H 0.0821 0.7549 0.1351
C7 C -0.0215(5) 0.7570(15) -0.0417(8)
C8 C -0.0376(5) 0.7319(19) 0.0219(9)
C9 C -0.0658(5) 0.7916(18) -0.1405(8)
H4 H -0.0091 0.7141 0.0887
C10 C -0.0947(5) 0.7329(19) -0.0120(9)
H5 H -0.0558 0.8109 -0.1845
H6 H -0.1056 0.7153 0.0308
C11 C -0.1359(5) 0.7608(17) -0.1118(8)
H7 H -0.1750 0.7532 -0.1359
O1F O 0.2884(3) 0.1072(11) -0.0292(6)
O5F O 0.3198(3) 0.3443(11) 0.0809(6)
C1F C 0.2810(5) 0.2349(15) 0.0134(8)
Sm1F Sm 0.21041(2) -0.11244(8) -0.13725(4)
O2F O 0.2950(3) -0.2843(11) -0.0064(5)
O3F O 0.2655(3) -0.1955(14) -0.1982(6)
O4F O 0.2033(3) -0.4189(10) -0.1497(5)
O6F O 0.3769(3) -0.2955(13) 0.1410(5)
N1F N 0.6224(4) -0.2980(16) 0.1750(7)
O7F O 0.3093(4) -0.3461(12) -0.2548(6)
C2F C 0.3499(5) -0.2756(15) 0.0484(8)
C3F C 0.3091(5) -0.2651(16) -0.1872(8)
H1F H 0.2206 -0.4810 -0.0959
H2F H 0.1923 -0.4984 -0.1959
C4F C 0.3833(5) -0.2577(15) 0.0068(7)
C5F C 0.3658(4) -0.2543(15) -0.0896(7)
N2F N 0.4435(4) -0.2588(13) 0.0683(7)
N3F N 0.4158(4) -0.2550(13) -0.0854(6)
C6F C 0.4608(5) -0.2560(14) 0.0096(7)
H3F H 0.4179 -0.2549 -0.1351
C7F C 0.5215(5) -0.2570(15) 0.0417(8)
C8F C 0.5376(5) -0.2319(19) -0.0219(9)
C9F C 0.5658(5) -0.2916(18) 0.1405(8)
H4F H 0.5091 -0.2141 -0.0887
C10F C 0.5947(5) -0.2329(19) 0.0120(9)
H5F H 0.5558 -0.3109 0.1845
H6F H 0.6056 -0.2153 -0.0308
C11F C 0.6359(5) -0.2608(17) 0.1118(8)
H7F H 0.6750 -0.2532 0.1359
Sm1_2 Sm 0.28959(2) -0.38756(8) 0.13725(4)
Sm1A Sm 0.71041(2) -0.38756(8) 0.36275(4)
Sm1C Sm 0.21041(2) 1.11244(8) 0.36275(4)
Sm1E Sm 0.28959(2) -0.61244(8) -0.36275(4)
Sm1F_2 Sm 0.21041(2) 0.88756(8) -0.13725(4)
Sm1G Sm -0.21041(2) 0.88756(8) -0.36275(4)
O2_2 O 0.2050(3) -0.2157(11) 0.0064(5)
O2F_2 O 0.2950(3) 0.7157(11) -0.0064(5)
O6_2 O 0.1231(3) -0.2045(13) -0.1410(5)
O6F_2 O 0.3769(3) 0.7045(13) 0.1410(5)
N1A N 0.1224(4) -0.2020(16) -0.3250(7)
N1G N 0.3776(4) 0.7020(16) 0.3250(7)
O7C O 0.3093(4) 0.3461(12) 0.2452(6)
O7E O 0.1907(4) 0.1539(12) -0.2452(6)
O8 O 1.0000 0.543(2) 0.7500
H8 H 0.9933 0.5365 0.6932
H8A H 1.0067 0.5365 0.8068
O9 O 0.0880(4) 0.6539(14) 0.2560(7)
H9 H 0.1143 0.6360 0.3168
H10 H 0.0750 0.5453 0.2294
O10 O 0.0000 0.028(4) 0.7500
H11? H -0.0314 -0.0348 0.7135
H12? H 0.0165 0.0340 0.7204
H13? H 1.0366 0.5432 0.7923
loop_
_geom_bond_atom_site_label_1
_geom_bond_atom_site_label_2
_geom_bond_site_symmetry_1
_geom_bond_site_symmetry_2
Sm1 O1 1_555 1_555
O1 C1 1_555 1_555
O2 Sm1 1_555 1_555
O3 Sm1 1_555 1_555
O4 Sm1 1_555 1_555
O5 C1 1_555 1_555
O6 C2 1_555 1_555
N1 C9 1_555 1_555
O7 C3 1_555 1_555
C1 C1F 1_555 1_555
C2 O2 1_555 1_555
C3 O3 1_555 1_555
H1 O4 1_555 1_555
H2 O4 1_555 1_555
C4 C2 1_555 1_555
C5 C3 1_555 1_555
N2 C4 1_555 1_555
N3 C5 1_555 1_555
C6 N2 1_555 1_555
H3 N3 1_555 1_555
C7 C6 1_555 1_555
C8 C7 1_555 1_555
C9 C7 1_555 1_555
H4 C8 1_555 1_555
C10 C8 1_555 1_555
H5 C9 1_555 1_555
H6 C10 1_555 1_555
C11 N1 1_555 1_555
H7 C11 1_555 1_555
O8 H8 1_555 1_555
O9 H9 1_555 1_555
H10 O9 1_555 1_555
O1F C1F 1_555 1_555
O5F Sm1 1_555 1_555
C1F O5F 1_555 1_555
Sm1F O5 1_555 1_555
O2F Sm1F 1_555 1_555
O3F Sm1F 1_555 1_555
O4F Sm1F 1_555 1_555
O6F C2F 1_555 1_555
N1F C9F 1_555 1_555
O7F C3F 1_555 1_555
C2F O2F 1_555 1_555
C3F O3F 1_555 1_555
H1F O4F 1_555 1_555
H2F O4F 1_555 1_555
C4F C2F 1_555 1_555
C5F C3F 1_555 1_555
N2F C4F 1_555 1_555
N3F C5F 1_555 1_555
C6F N2F 1_555 1_555
H3F N3F 1_555 1_555
C7F C6F 1_555 1_555
C8F C7F 1_555 1_555
C9F C7F 1_555 1_555
H4F C8F 1_555 1_555
C10F C8F 1_555 1_555
H5F C9F 1_555 1_555
H6F C10F 1_555 1_555
C11F N1F 1_555 1_555
H7F C11F 1_555 1_555
Sm1_2 O2F 1_555 1_555
Sm1A N1F 1_555 1_555
Sm1C O7 1_555 1_555
Sm1E O7F 1_555 1_555
Sm1F_2 O2 1_555 1_555
Sm1G N1 1_555 1_555
O2_2 Sm1F 1_555 1_555
O2F_2 Sm1 1_555 1_555
O6_2 Sm1F 1_555 1_555
O6F_2 Sm1 1_555 1_555
N1A Sm1F 1_555 1_555
N1G Sm1 1_555 1_555
O7C Sm1 1_555 1_555
O7E Sm1F 1_555 1_555
H8A O8 1_555 1_555
O6 Sm1F_2 1_555 1_555
C4 C5 1_555 1_555
N3 C6 1_555 1_555
C10 C11 1_555 1_555
O1F Sm1F 1_555 1_555
O6F Sm1_2 1_555 1_555
C4F C5F 1_555 1_555
N3F C6F 1_555 1_555
C10F C11F 1_555 1_555
Sm1_2 O2_2 1_555 1_555
Sm1F_2 O2F_2 1_555 1_555

#END
