
#######################################################################
#
#                 Cambridge Crystallographic Data Centre
#                                CCDC 
#
#######################################################################
#
# If this CIF has been generated from an entry in the Cambridge 
# Structural Database, then it will include bibliographic, chemical, 
# crystal, experimental, refinement or atomic coordinate data resulting 
# from the CCDC's data processing and validation procedures.
#
#######################################################################

data_TOJSUG
_symmetry_cell_setting           triclinic
_symmetry_space_group_name_H-M   'P 1'
_symmetry_Int_Tables_number      1
_space_group_name_Hall           'P 1'
loop_
_symmetry_equiv_pos_site_id
_symmetry_equiv_pos_as_xyz
1 x,y,z
_cell_length_a                   12.994(7)
_cell_length_b                   13.634(4)
_cell_length_c                   12.801(7)
_cell_angle_alpha                101.49(4)
_cell_angle_beta                 114.98(4)
_cell_angle_gamma                105.42(4)
_cell_volume                     1851.51
loop_
_atom_site_label
_atom_site_type_symbol
_atom_site_fract_x
_atom_site_fract_y
_atom_site_fract_z
Ag1 Ag 0.2781(2) 1.0406(2) 0.5685(2)
Ni1 Ni 0.358 0.929 1.074
S1 S 0.3483(5) 1.0061(5) 0.8482(4)
S2 S 0.2851(5) 0.9791(5) 1.2923(4)
N1 N 0.307(1) 0.773(1) 1.060(1)
N2 N 0.530(1) 0.941(1) 1.125(1)
N3 N 0.415(1) 1.091(1) 1.098(1)
N4 N 0.185(1) 0.910(1) 1.012(1)
N5 N 0.309(1) 0.895(1) 0.876(1)
N6 N 0.393(1) 0.972(1) 1.265(1)
N7 N 0.276(2) 0.949(1) 0.700(2)
N8 N 0.367(1) 1.026(1) 0.445(1)
C1 C 0.200(2) 0.718(2) 1.056(2)
C2 C 0.227(2) 0.654(2) 1.136(2)
C3 C 0.340(2) 0.663(2) 1.184(2)
C4 C 0.395(2) 0.741(2) 1.125(2)
C5 C 0.507(2) 0.758(2) 1.130(2)
C6 C 0.555(2) 0.851(2) 1.101(2)
C7 C 0.645(2) 0.863(2) 1.055(2)
C8 C 0.680(2) 0.975(2) 1.068(2)
C9 C 0.610(1) 1.025(1) 1.114(1)
C10 C 0.626(2) 1.127(1) 1.155(2)
C11 C 0.536(2) 1.160(2) 1.168(2)
C12 C 0.544(2) 1.261(2) 1.242(2)
C13 C 0.429(2) 1.253(2) 1.210(2)
C14 C 0.349(2) 1.145(2) 1.114(2)
C15 C 0.219(2) 1.100(2) 1.037(2)
C16 C 0.140(2) 0.989(1) 0.971(2)
C17 C 0.019(2) 0.933(2) 0.873(2)
C18 C -0.023(2) 0.825(2) 0.855(2)
C19 C 0.082(2) 0.816(1) 0.949(2)
C20 C 0.088(2) 0.724(2) 0.984(2)
C21 C 0.134(2) 0.595(2) 1.172(2)
C22 C 0.132(2) 0.680(2) 1.275(2)
C23 C 0.419(2) 0.633(2) 1.287(2)
C24 C 0.499(2) 0.722(2) 1.400(2)
C25 C 0.683(2) 0.788(2) 1.009(2)
C26 C 0.580(3) 0.707(3) 0.879(3)
C27 C 0.763(2) 1.027(2) 1.019(2)
C28 C 0.685(3) 1.031(2) 0.896(3)
C29 C 0.660(2) 1.355(2) 1.349(2)
C30 C 0.700(2) 1.332(2) 1.475(2)
C31 C 0.392(2) 1.323(2) 1.268(2)
C32 C 0.332(2) 1.279(2) 1.340(3)
C33 C -0.048(2) 0.985(2) 0.779(2)
C34 C 0.024(2) 1.011(2) 0.709(2)
C35 C -0.144(2) 0.743(2) 0.757(2)
C36 C -0.141(3) 0.687(2) 0.645(3)
C37 C 0.588(2) 0.701(2) 1.177(2)
C38 C 0.537(2) 0.581(2) 1.108(2)
C39 C 0.617(2) 0.531(2) 1.154(2)
C40 C 0.729(2) 0.586(2) 1.248(2)
C41 C 0.781(2) 0.698(2) 1.309(2)
C42 C 0.708(2) 0.755(2) 1.271(2)
C43 C 0.746(2) 1.218(2) 1.192(2)
C44 C 0.747(2) 1.293(2) 1.134(2)
C45 C 0.858(2) 1.374(2) 1.172(2)
C46 C 0.968(2) 1.383(2) 1.265(2)
C47 C 0.966(2) 1.308(2) 1.317(2)
C48 C 0.855(2) 1.225(2) 1.280(2)
C49 C 0.157(2) 1.178(2) 1.023(2)
C50 C 0.191(2) 1.265(2) 0.982(2)
C51 C 0.136(2) 1.336(2) 0.975(2)
C52 C 0.037(2) 1.324(2) 0.996(2)
C53 C 0.008(2) 1.239(2) 1.040(2)
C54 C 0.063(2) 1.171(2) 1.052(2)
C55 C -0.027(2) 0.629(2) 0.939(2)
C56 C -0.047(2) 0.536(2) 0.865(2)
C57 C -0.153(2) 0.443(2) 0.822(2)
C58 C -0.235(2) 0.452(2) 0.861(2)
C59 C -0.219(2) 0.542(2) 0.932(2)
C60 C -0.112(2) 0.637(2) 0.979(2)
C61 C 0.214(2) 0.842(2) 0.662(2)
C62 C 0.242(2) 0.807(2) 0.774(2)
C63 C 0.191(2) 0.699(2) 0.758(2)
C64 C 0.114(2) 0.625(2) 0.644(2)
C65 C 0.088(2) 0.654(2) 0.533(2)
C66 C 0.139(2) 0.765(2) 0.551(2)
C67 C 0.506(2) 1.015(1) 1.383(2)
C68 C 0.475(2) 1.042(2) 1.481(2)
C69 C 0.587(2) 1.097(2) 1.617(2)
C70 C 0.689(2) 1.103(2) 1.630(2)
C71 C 0.711(2) 1.056(2) 1.517(2)
C72 C 0.622(2) 1.026(2) 1.408(2)
N8_2 N 0.367(1) 1.026(1) 1.445(1)
Ag1_2 Ag 0.2781(2) 1.0406(2) 1.5685(2)
Cl1 Cl 0.4364(5) 1.2668(5) -0.1924(5)
O1 O 0.501(2) 1.377(2) -0.146(2)
O2 O 0.345(3) 1.239(2) -0.307(3)
O3 O 0.342(2) 1.216(2) -0.190(3)
O4 O 0.516(1) 1.210(1) -0.175(1)
Cl2 Cl 0.0194(6) 1.0082(6) 0.3528(6)
O5 O -0.084(2) 1.013(2) 0.361(2)
O6 O 0.115(2) 1.103(2) 0.430(2)
O7 O -0.018(3) 0.994(3) 0.229(2)
O8 O 0.071(2) 0.943(2) 0.402(2)
Cl3 Cl 0.2421(7) 1.4483(7) -0.2205(7)
Cl4 Cl -0.0138(7) 1.3043(7) -0.3728(7)
C73 C 0.136(3) 1.320(3) -0.313(2)
Cl5 Cl 0.5489(8) 1.5155(8) -0.3947(7)
Cl6 Cl 0.3157(8) 1.5287(9) -0.4629(8)
C74 C 0.414(3) 1.481(4) -0.401(6)
loop_
_geom_bond_atom_site_label_1
_geom_bond_atom_site_label_2
_geom_bond_site_symmetry_1
_geom_bond_site_symmetry_2
Ag1 N7 1_555 1_555
Ni1 N1 1_555 1_555
Cl1 O1 1_555 1_555
Cl2 O5 1_555 1_555
Cl3 C73 1_555 1_555
Cl4 C73 1_555 1_555
Cl5 C74 1_555 1_555
Cl6 C74 1_555 1_555
S1 N5 1_555 1_555
S2 N6 1_555 1_555
O2 Cl1 1_555 1_555
O3 Cl1 1_555 1_555
O4 Cl1 1_555 1_555
O6 Cl2 1_555 1_555
O7 Cl2 1_555 1_555
O8 Cl2 1_555 1_555
N1 C1 1_555 1_555
N2 Ni1 1_555 1_555
N3 Ni1 1_555 1_555
N4 Ni1 1_555 1_555
N5 Ni1 1_555 1_555
N6 Ni1 1_555 1_555
N7 S1 1_555 1_555
N8 Ag1 1_555 1_555
C1 C2 1_555 1_555
C2 C3 1_555 1_555
C3 C4 1_555 1_555
C4 N1 1_555 1_555
C5 C4 1_555 1_555
C6 N2 1_555 1_555
C7 C6 1_555 1_555
C8 C7 1_555 1_555
C9 N2 1_555 1_555
C10 C9 1_555 1_555
C11 N3 1_555 1_555
C12 C11 1_555 1_555
C13 C12 1_555 1_555
C14 N3 1_555 1_555
C15 C14 1_555 1_555
C16 N4 1_555 1_555
C17 C16 1_555 1_555
C18 C17 1_555 1_555
C19 N4 1_555 1_555
C20 C1 1_555 1_555
C21 C2 1_555 1_555
C22 C21 1_555 1_555
C23 C3 1_555 1_555
C24 C23 1_555 1_555
C25 C7 1_555 1_555
C26 C25 1_555 1_555
C27 C8 1_555 1_555
C28 C27 1_555 1_555
C29 C12 1_555 1_555
C30 C29 1_555 1_555
C31 C13 1_555 1_555
C32 C31 1_555 1_555
C33 C17 1_555 1_555
C34 C33 1_555 1_555
C35 C18 1_555 1_555
C36 C35 1_555 1_555
C37 C5 1_555 1_555
C38 C37 1_555 1_555
C39 C38 1_555 1_555
C40 C39 1_555 1_555
C41 C40 1_555 1_555
C42 C37 1_555 1_555
C43 C10 1_555 1_555
C44 C43 1_555 1_555
C45 C44 1_555 1_555
C46 C45 1_555 1_555
C47 C46 1_555 1_555
C48 C43 1_555 1_555
C49 C15 1_555 1_555
C50 C49 1_555 1_555
C51 C50 1_555 1_555
C52 C51 1_555 1_555
C53 C52 1_555 1_555
C54 C49 1_555 1_555
C55 C20 1_555 1_555
C56 C55 1_555 1_555
C57 C56 1_555 1_555
C58 C57 1_555 1_555
C59 C58 1_555 1_555
C60 C55 1_555 1_555
C61 N7 1_555 1_555
C62 N5 1_555 1_555
C63 C62 1_555 1_555
C64 C63 1_555 1_555
C65 C64 1_555 1_555
C66 C61 1_555 1_555
C67 N6 1_555 1_555
C68 C67 1_555 1_555
C69 C68 1_555 1_555
C70 C69 1_555 1_555
C71 C70 1_555 1_555
C72 C67 1_555 1_555
N8_2 S2 1_555 1_555
Ag1_2 N8_2 1_555 1_555
C5 C6 1_555 1_555
C8 C9 1_555 1_555
C10 C11 1_555 1_555
C13 C14 1_555 1_555
C15 C16 1_555 1_555
C18 C19 1_555 1_555
C19 C20 1_555 1_555
C41 C42 1_555 1_555
C47 C48 1_555 1_555
C53 C54 1_555 1_555
C59 C60 1_555 1_555
C61 C62 1_555 1_555
C65 C66 1_555 1_555
C68 N8_2 1_555 1_555
C71 C72 1_555 1_555

#END
