
#######################################################################
#
#                 Cambridge Crystallographic Data Centre
#                                CCDC 
#
#######################################################################
#
# If this CIF has been generated from an entry in the Cambridge 
# Structural Database, then it will include bibliographic, chemical, 
# crystal, experimental, refinement or atomic coordinate data resulting 
# from the CCDC's data processing and validation procedures.
#
#######################################################################

data_TOJVIZ
_symmetry_cell_setting           monoclinic
_symmetry_space_group_name_H-M   'C c'
_symmetry_Int_Tables_number      9
_space_group_name_Hall           'C -2yc'
loop_
_symmetry_equiv_pos_site_id
_symmetry_equiv_pos_as_xyz
1 x,y,z
2 x,-y,1/2+z
3 1/2+x,1/2+y,z
4 1/2+x,1/2-y,1/2+z
_cell_length_a                   17.280(3)
_cell_length_b                   14.802(3)
_cell_length_c                   14.365(2)
_cell_angle_alpha                90
_cell_angle_beta                 116.308(5)
_cell_angle_gamma                90
_cell_volume                     3293.7
loop_
_atom_site_label
_atom_site_type_symbol
_atom_site_fract_x
_atom_site_fract_y
_atom_site_fract_z
Co1 Co 0.19139(5) 0.48307(4) 0.15761(7)
Co2 Co 0.20085(6) 0.49848(8) 0.41458(8)
O1 O -0.4864(3) 0.4185(5) -0.4394(5)
O2 O 0.1265(3) 0.4832(3) -0.0053(3)
N1 N -0.4030(4) 0.4278(5) -0.3797(5)
N2 N 0.0417(3) 0.4737(3) -0.0602(4)
C1 C -0.3533(2) 0.3519(2) -0.3534(3)
H1 H -0.3782 0.2954 -0.3761
C2 C -0.2650(2) 0.3597(2) -0.2923(3)
H2 H -0.2304 0.3084 -0.2767
C3 C -0.2269(2) 0.4441(2) -0.2538(3)
C4 C -0.2826(2) 0.5173(2) -0.2819(3)
H3 H -0.2602 0.5745 -0.2588
C5 C -0.3690(2) 0.5082(2) -0.3424(3)
H4 H -0.4045 0.5587 -0.3578
C6 C 0.0078(2) 0.3912(2) -0.0855(3)
H5 H 0.0439 0.3412 -0.0614
C7 C -0.0786(2) 0.3781(2) -0.1461(3)
H6 H -0.1013 0.3200 -0.1608
C8 C -0.1331(4) 0.4549(5) -0.1863(5)
C9 C -0.0953(3) 0.5398(3) -0.1588(4)
H7 H -0.1288 0.5914 -0.1841
C10 C -0.0088(3) 0.5478(3) -0.0946(4)
H8 H 0.0154 0.6048 -0.0744
O3 O 0.1398(3) 0.6071(4) 0.3236(4)
O4 O 0.1076(3) 0.5819(4) 0.1574(4)
O5 O -0.2053(3) 0.9135(4) 0.0110(4)
O6 O -0.2276(3) 0.8830(3) 0.1500(4)
C11 C -0.0254(2) 0.9168(2) 0.2763(3)
H9 H -0.0718 0.9565 0.2546
C12 C 0.0496(2) 0.9388(2) 0.3595(3)
H10 H 0.0539 0.9927 0.3947
C13 C 0.1204(2) 0.8803(2) 0.3923(3)
H11 H 0.1720 0.8966 0.4484
C14 C 0.1153(2) 0.7989(2) 0.3433(3)
H12 H 0.1627 0.7603 0.3675
C15 C 0.0364(4) 0.7731(4) 0.2542(5)
C16 C -0.0348(4) 0.8331(4) 0.2206(5)
C17 C -0.1127(4) 0.8108(5) 0.1328(5)
C18 C -0.1168(3) 0.7339(3) 0.0781(4)
H13 H -0.1673 0.7197 0.0194
C19 C -0.0459(3) 0.6772(3) 0.1098(4)
H14 H -0.0497 0.6259 0.0704
C20 C 0.0291(4) 0.6936(4) 0.1967(5)
C21 C 0.0989(4) 0.6209(4) 0.2289(5)
C22 C -0.1884(4) 0.8750(4) 0.0951(5)
O7 O 0.2664(3) 0.3922(4) 0.5066(4)
O8 O 0.2812(3) 0.4197(3) 0.6669(4)
O9 O 0.6105(3) 0.0894(4) 0.8184(4)
O10 O 0.6087(3) 0.1128(4) 0.6654(4)
C23 C 0.4057(2) 0.0686(2) 0.5893(3)
H15 H 0.4516 0.0283 0.6092
C24 C 0.3245(2) 0.0408(2) 0.5218(3)
H16 H 0.3150 -0.0186 0.4982
C25 C 0.2555(2) 0.1023(2) 0.4883(3)
H17 H 0.2010 0.0842 0.4398
C26 C 0.2676(2) 0.1875(2) 0.5259(3)
H18 H 0.2210 0.2269 0.5038
C27 C 0.3485(4) 0.2171(5) 0.5964(5)
C28 C 0.4207(4) 0.1558(5) 0.6285(5)
C29 C 0.5042(4) 0.1841(5) 0.7036(5)
C30 C 0.51569(14) 0.26569(15) 0.75349(17)
H19 H 0.5689 0.2806 0.8076
C31 C 0.44479(14) 0.32736(15) 0.72116(17)
H20 H 0.4528 0.3830 0.7542
C32 C 0.36570(14) 0.30661(15) 0.64309(17)
C33 C 0.29887(14) 0.37710(15) 0.60317(17)
C34 C 0.58147(14) 0.12385(15) 0.73145(17)
O11 O 0.27541(14) 0.47725(15) 0.32516(17)
H21 H 0.3197 0.5233 0.3438
H22 H 0.3037 0.4188 0.3427
Co1A Co 0.19139(5) 0.51693(4) 0.65761(7)
Co1B Co -0.30861(5) 0.98307(4) 0.15761(7)
Co1C Co 0.69139(5) 0.01693(4) 0.65761(7)
Co2A Co 0.20085(6) 0.50152(8) -0.08542(8)
Co2C Co -0.29915(6) 1.00152(8) -0.08542(8)
Co2C_2 Co 0.70085(6) 0.00152(8) 0.91458(8)
O2A O 0.1265(3) 0.5168(3) 0.4947(3)
O5C O 0.2947(3) 0.5865(4) 0.5110(4)
O6B O 0.2724(3) 0.3830(3) 0.1500(4)
O8A O 0.2812(3) 0.5803(3) 0.1669(4)
O9C O 0.1105(3) 0.4106(4) 0.3184(4)
O10C O 0.1087(3) 0.3872(4) 0.1654(4)
O12 O 0.42675(14) 0.56896(15) 0.44502(17)
H23 H 0.4348 0.6135 0.4857
H24 H 0.4621 0.5269 0.4771
O13 O 0.36918(14) 0.32646(15) 0.40661(17)
H25 H 0.3289 0.3109 0.4219
H26 H 0.4160 0.3006 0.4471
O14 O 0.29762(14) 0.75387(15) 0.31024(17)
H27 H 0.3247 0.7048 0.3153
H28 H 0.2507 0.7523 0.2546
loop_
_geom_bond_atom_site_label_1
_geom_bond_atom_site_label_2
_geom_bond_site_symmetry_1
_geom_bond_site_symmetry_2
Co1 O2 1_555 1_555
Co2 O3 1_555 1_555
O1 N1 1_555 1_555
O2 N2 1_555 1_555
N1 C1 1_555 1_555
N2 C6 1_555 1_555
C1 H1 1_555 1_555
C2 C1 1_555 1_555
H2 C2 1_555 1_555
C3 C2 1_555 1_555
C4 C3 1_555 1_555
H3 C4 1_555 1_555
C5 N1 1_555 1_555
H4 C5 1_555 1_555
C6 H5 1_555 1_555
C7 C6 1_555 1_555
H6 C7 1_555 1_555
C8 C3 1_555 1_555
C9 C8 1_555 1_555
H7 C9 1_555 1_555
C10 N2 1_555 1_555
H8 C10 1_555 1_555
O3 C21 1_555 1_555
O4 Co1 1_555 1_555
O5 C22 1_555 1_555
O6 C22 1_555 1_555
C11 H9 1_555 1_555
C12 C11 1_555 1_555
H10 C12 1_555 1_555
C13 C12 1_555 1_555
H11 C13 1_555 1_555
C14 C13 1_555 1_555
H12 C14 1_555 1_555
C15 C14 1_555 1_555
C16 C11 1_555 1_555
C17 C16 1_555 1_555
C18 C17 1_555 1_555
H13 C18 1_555 1_555
C19 C18 1_555 1_555
H14 C19 1_555 1_555
C20 C15 1_555 1_555
C21 O4 1_555 1_555
C22 C17 1_555 1_555
O7 Co2 1_555 1_555
O8 C33 1_555 1_555
O9 C34 1_555 1_555
O10 C34 1_555 1_555
C23 H15 1_555 1_555
C24 C23 1_555 1_555
H16 C24 1_555 1_555
C25 C24 1_555 1_555
H17 C25 1_555 1_555
C26 C25 1_555 1_555
H18 C26 1_555 1_555
C27 C26 1_555 1_555
C28 C23 1_555 1_555
C29 C28 1_555 1_555
C30 C29 1_555 1_555
H19 C30 1_555 1_555
C31 C30 1_555 1_555
H20 C31 1_555 1_555
C32 C27 1_555 1_555
C33 O7 1_555 1_555
C34 C29 1_555 1_555
O11 Co1 1_555 1_555
H21 O11 1_555 1_555
H22 O11 1_555 1_555
O12 H23 1_555 1_555
H24 O12 1_555 1_555
O13 H25 1_555 1_555
H26 O13 1_555 1_555
O14 H27 1_555 1_555
H28 O14 1_555 1_555
Co1A O8 1_555 1_555
Co1B O6 1_555 1_555
Co1C O10 1_555 1_555
Co2A O2 1_555 1_555
Co2C O5 1_555 1_555
Co2C_2 O9 1_555 1_555
O2A Co2 1_555 1_555
O5C Co2 1_555 1_555
O6B Co1 1_555 1_555
O8A Co1 1_555 1_555
O9C Co2 1_555 1_555
O10C Co1 1_555 1_555
Co2 O11 1_555 1_555
C4 C5 1_555 1_555
C7 C8 1_555 1_555
C9 C10 1_555 1_555
C15 C16 1_555 1_555
C19 C20 1_555 1_555
C20 C21 1_555 1_555
C27 C28 1_555 1_555
C31 C32 1_555 1_555
C32 C33 1_555 1_555
Co1A O2A 1_555 1_555

#END
