
#######################################################################
#
#                 Cambridge Crystallographic Data Centre
#                                CCDC 
#
#######################################################################
#
# If this CIF has been generated from an entry in the Cambridge 
# Structural Database, then it will include bibliographic, chemical, 
# crystal, experimental, refinement or atomic coordinate data resulting 
# from the CCDC's data processing and validation procedures.
#
#######################################################################

data_TOJVUJ
_symmetry_cell_setting           orthorhombic
_symmetry_space_group_name_H-M   'P n n m'
_symmetry_Int_Tables_number      58
_space_group_name_Hall           '-P 2 2n'
loop_
_symmetry_equiv_pos_site_id
_symmetry_equiv_pos_as_xyz
1 x,y,z
2 -x,-y,z
3 1/2+x,1/2-y,1/2-z
4 1/2-x,1/2+y,1/2-z
5 -x,-y,-z
6 x,y,-z
7 1/2-x,1/2+y,1/2+z
8 1/2+x,1/2-y,1/2+z
_cell_length_a                   19.2991(6)
_cell_length_b                   4.8232(2)
_cell_length_c                   5.6545(2)
_cell_angle_alpha                90
_cell_angle_beta                 90
_cell_angle_gamma                90
_cell_volume                     526.34
loop_
_atom_site_label
_atom_site_type_symbol
_atom_site_fract_x
_atom_site_fract_y
_atom_site_fract_z
P1 P 0.3352(1) 1.0828(5) 0.5000
O1 O 0.3060(2) 0.9358(8) 0.2738(6)
O2 O 0.3242(2) 1.4070(11) 0.5000
O3 O 0.1568(2) 0.9628(9) 0.5000
C1 C 0.4284(2) 1.0188(13) 0.5000
C2 C 0.4682(2) 1.0774(19) 0.2970(6)
Zn1 Zn 0.2365(1) 0.6400(3) 0.5000
O1E O 0.3060(2) 0.9358(8) 0.7262(6)
C2A C 0.5318(2) 0.9226(19) 0.2970(6)
C1A C 0.5716(2) 0.9812(13) 0.5000
P1A P 0.6648(1) 0.9172(5) 0.5000
O1A O 0.6940(2) 1.0642(8) 0.2738(6)
O1D O 0.6940(2) 1.0642(8) 0.7262(6)
O2A O 0.6758(2) 0.5930(11) 0.5000
C2D C 0.5318(2) 0.9226(19) 0.7030(6)
C2E C 0.4682(2) 1.0774(19) 0.7030(6)
Zn1A Zn 0.7635(1) 1.3600(3) 0.5000
O3A O 0.8432(2) 1.0372(9) 0.5000
Zn1C Zn 0.2635(1) 1.1400(3) 0.0000
Zn1_2 Zn 0.2365(1) 1.6400(3) 0.5000
O1C O 0.1940(2) 0.4358(8) 0.2262(6)
O1F O 0.1940(2) 0.4358(8) 0.7738(6)
O2_2 O 0.3242(2) 0.4070(11) 0.5000
Zn1C_2 Zn 0.2635(1) 1.1400(3) 1.0000
Zn1B Zn 0.7365(1) 0.8600(3) 0.0000
Zn1B_2 Zn 0.7365(1) 0.8600(3) 1.0000
Zn1A_2 Zn 0.7635(1) 0.3600(3) 0.5000
O1B O 0.8060(2) 1.5642(8) 0.2262(6)
O1G O 0.8060(2) 1.5642(8) 0.7738(6)
O2A_2 O 0.6758(2) 1.5930(11) 0.5000
loop_
_geom_bond_atom_site_label_1
_geom_bond_atom_site_label_2
_geom_bond_site_symmetry_1
_geom_bond_site_symmetry_2
P1 O1 1_555 1_555
O1 Zn1 1_555 1_555
O2 P1 1_555 1_555
O3 Zn1 1_555 1_555
C1 P1 1_555 1_555
C2 C1 1_555 1_555
Zn1 O1E 1_555 1_555
O1E P1 1_555 1_555
C2A C2 1_555 1_555
C1A C2A 1_555 1_555
P1A C1A 1_555 1_555
O1A P1A 1_555 1_555
O1D P1A 1_555 1_555
O2A P1A 1_555 1_555
C2D C1A 1_555 1_555
C2E C1 1_555 1_555
Zn1A O1A 1_555 1_555
O3A Zn1A 1_555 1_555
Zn1C O1 1_555 1_555
Zn1_2 O2 1_555 1_555
O1C Zn1 1_555 1_555
O1F Zn1 1_555 1_555
O2_2 Zn1 1_555 1_555
Zn1C_2 O1E 1_555 1_555
Zn1B O1A 1_555 1_555
Zn1B_2 O1D 1_555 1_555
Zn1A_2 O2A 1_555 1_555
O1B Zn1A 1_555 1_555
O1G Zn1A 1_555 1_555
O2A_2 Zn1A 1_555 1_555
O1D Zn1A 1_555 1_555
C2D C2E 1_555 1_555

#END
