
#######################################################################
#
#                 Cambridge Crystallographic Data Centre
#                                CCDC 
#
#######################################################################
#
# If this CIF has been generated from an entry in the Cambridge 
# Structural Database, then it will include bibliographic, chemical, 
# crystal, experimental, refinement or atomic coordinate data resulting 
# from the CCDC's data processing and validation procedures.
#
#######################################################################

data_TOJWAQ
_symmetry_cell_setting           triclinic
_symmetry_space_group_name_H-M   'P -1'
_symmetry_Int_Tables_number      2
_space_group_name_Hall           '-P 1'
loop_
_symmetry_equiv_pos_site_id
_symmetry_equiv_pos_as_xyz
1 x,y,z
2 -x,-y,-z
_cell_length_a                   9.5097(3)
_cell_length_b                   5.0074(2)
_cell_length_c                   14.2109(4)
_cell_angle_alpha                92.797(3)
_cell_angle_beta                 99.725(3)
_cell_angle_gamma                92.033(3)
_cell_volume                     665.531
loop_
_atom_site_label
_atom_site_type_symbol
_atom_site_fract_x
_atom_site_fract_y
_atom_site_fract_z
Zn1 Zn 0.1830(4) 0.112(1) -0.0523(2)
P1 P 0.3281(6) 0.579(1) 0.8703(3)
P2 P 0.1595(7) -0.118(1) 0.1462(3)
O1 O 0.4856(10) 0.757(2) 0.8975(7)
O2 O 0.3350(11) 1.376(2) 0.9463(6)
O3 O 0.2137(10) 0.771(2) 0.8856(7)
O4 O 0.2524(11) -0.384(2) 0.1339(6)
O5 O 0.1869(12) 0.103(2) 0.0875(6)
O6 O 0.0039(9) -0.239(2) 0.1203(6)
C1 C 0.2963(10) 0.464(2) 0.7471(3)
C2 C 0.1833(11) 0.560(3) 0.6842(4)
C3 C 0.1847(15) 0.526(3) 0.5868(4)
C4 C 0.2705(14) 0.338(2) 0.5542(4)
C5 C 0.3445(14) 0.172(2) 0.6189(5)
C6 C 0.3685(14) 0.252(3) 0.7151(5)
C7 C 0.1950(7) -0.009(2) 0.2708(5)
C8 C 0.3302(7) 0.098(3) 0.3105(5)
C9 C 0.3579(10) 0.160(3) 0.4082(5)
C10 C 0.2452(13) 0.218(3) 0.4544(5)
C11 C 0.1066(11) 0.175(3) 0.4065(5)
C12 C 0.0825(8) 0.029(3) 0.3196(6)
Zn1A Zn -0.1830(4) -0.112(1) 0.0523(2)
Zn1_2 Zn 0.1830(4) 1.112(1) 0.9477(2)
O5_2 O 0.1869(12) 1.103(2) 1.0875(6)
O6A O -0.0039(9) 1.239(2) 0.8797(6)
O2_2 O 0.3350(11) 0.376(2) 0.9463(6)
Zn1_3 Zn 0.1830(4) 0.112(1) 0.9477(2)
loop_
_geom_bond_atom_site_label_1
_geom_bond_atom_site_label_2
_geom_bond_site_symmetry_1
_geom_bond_site_symmetry_2
Zn1 O5 1_555 1_555
P1 O1 1_555 1_555
P2 O4 1_555 1_555
O2 Zn1_2 1_555 1_555
O3 P1 1_555 1_555
O5 P2 1_555 1_555
O6 P2 1_555 1_555
C1 P1 1_555 1_555
C2 C1 1_555 1_555
C3 C2 1_555 1_555
C4 C3 1_555 1_555
C5 C4 1_555 1_555
C6 C1 1_555 1_555
C7 P2 1_555 1_555
C8 C7 1_555 1_555
C9 C8 1_555 1_555
C10 C4 1_555 1_555
C11 C10 1_555 1_555
C12 C7 1_555 1_555
Zn1A O6 1_555 1_555
Zn1_2 O3 1_555 1_555
O5_2 Zn1_2 1_555 1_555
O6A Zn1_2 1_555 1_555
O2_2 P1 1_555 1_555
Zn1_3 O2_2 1_555 1_555
C5 C6 1_555 1_555
C9 C10 1_555 1_555
C11 C12 1_555 1_555

#END
