
#######################################################################
#
#                 Cambridge Crystallographic Data Centre
#                                CCDC 
#
#######################################################################
#
# If this CIF has been generated from an entry in the Cambridge 
# Structural Database, then it will include bibliographic, chemical, 
# crystal, experimental, refinement or atomic coordinate data resulting 
# from the CCDC's data processing and validation procedures.
#
#######################################################################

data_TOJXUM
_symmetry_cell_setting           monoclinic
_symmetry_space_group_name_H-M   'P 21/c'
_symmetry_Int_Tables_number      14
_space_group_name_Hall           '-P 2ybc'
loop_
_symmetry_equiv_pos_site_id
_symmetry_equiv_pos_as_xyz
1 x,y,z
2 -x,1/2+y,1/2-z
3 -x,-y,-z
4 x,1/2-y,1/2+z
_cell_length_a                   9.433(2)
_cell_length_b                   25.245(6)
_cell_length_c                   14.080(3)
_cell_angle_alpha                90
_cell_angle_beta                 97.096(9)
_cell_angle_gamma                90
_cell_volume                     3327.27
loop_
_atom_site_label
_atom_site_type_symbol
_atom_site_fract_x
_atom_site_fract_y
_atom_site_fract_z
Cd1 Cd 0.45289(8) 0.83497(3) 0.76723(6)
C1 C 0.7619(12) 0.8173(5) 0.6108(8)
C2 C 0.9005(13) 0.8347(4) 0.6346(8)
H1 H 0.9197 0.8709 0.6364
C3 C 1.0143(12) 0.7981(5) 0.6564(7)
C4 C 0.9867(13) 0.7443(5) 0.6498(8)
H2 H 1.0604 0.7200 0.6630
C5 C 0.8488(12) 0.7274(5) 0.6235(8)
C6 C 0.7349(13) 0.7641(5) 0.6046(8)
H3 H 0.6420 0.7520 0.5881
C7 C 0.6436(14) 0.8558(7) 0.6014(9)
C8 C 1.1645(15) 0.8160(5) 0.6890(9)
C9 C 0.4854(14) 0.7069(5) 0.8134(9)
H4 H 0.3866 0.7077 0.7984
C10 C 0.5519(19) 0.6576(5) 0.8324(11)
H5 H 0.4968 0.6269 0.8283
C11 C 0.6925(18) 0.6540(5) 0.8564(9)
H6 H 0.7362 0.6213 0.8683
C12 C 0.7750(14) 0.7020(5) 0.8633(8)
C13 C 0.9221(14) 0.7033(6) 0.8945(10)
H7 H 0.9692 0.6716 0.9106
C14 C 0.9967(16) 0.7482(6) 0.9018(9)
H8 H 1.0945 0.7473 0.9213
C15 C 0.9240(13) 0.8002(5) 0.8789(8)
C16 C 0.9971(15) 0.8450(6) 0.8891(10)
H9 H 1.0940 0.8448 0.9118
C17 C 0.9243(16) 0.8932(6) 0.8647(10)
H10 H 0.9726 0.9254 0.8677
C18 C 0.7774(13) 0.8905(5) 0.8359(8)
H11 H 0.7281 0.9219 0.8213
C19 C 0.7779(12) 0.7995(5) 0.8523(7)
C20 C 0.7006(12) 0.7503(4) 0.8427(7)
C21 C 0.3738(12) 0.8130(5) 0.9897(9)
H12 H 0.3953 0.7781 0.9762
C22 C 0.3284(18) 0.8237(7) 1.0747(11)
H13 H 0.3210 0.7966 1.1186
C23 C 0.2932(17) 0.8743(8) 1.0960(11)
H14 H 0.2608 0.8821 1.1542
C24 C 0.3073(14) 0.9160(5) 1.0265(9)
C25 C 0.271(2) 0.9712(7) 1.0432(11)
H15 H 0.2305 0.9799 1.0981
C26 C 0.293(2) 1.0078(6) 0.9846(14)
H16 H 0.2764 1.0430 0.9989
C27 C 0.3469(16) 0.9936(6) 0.8932(11)
C28 C 0.363(2) 1.0323(5) 0.8202(14)
H17 H 0.3397 1.0676 0.8289
C29 C 0.414(2) 1.0167(6) 0.7385(12)
H18 H 0.4235 1.0411 0.6903
C30 C 0.4511(15) 0.9641(4) 0.7272(10)
H19 H 0.4902 0.9544 0.6723
C31 C 0.3776(13) 0.9405(4) 0.8754(9)
C32 C 0.3590(13) 0.9013(5) 0.9459(8)
N1 N 0.8174(15) 0.6715(4) 0.6128(9)
N2 N 0.5546(9) 0.7514(3) 0.8156(6)
N3 N 0.7043(10) 0.8454(4) 0.8283(7)
N4 N 0.3896(10) 0.8498(4) 0.9244(6)
N5 N 0.4326(10) 0.9263(3) 0.7933(6)
O1 O 0.5211(10) 0.8409(4) 0.6168(7)
O2 O 0.6677(11) 0.9014(4) 0.5776(9)
O3 O 1.2575(9) 0.7831(3) 0.7186(6)
O4 O 1.1924(10) 0.8649(4) 0.6904(8)
O5 O 0.7030(14) 0.6569(4) 0.5827(11)
O6 O 0.9145(15) 0.6404(4) 0.6298(11)
Cd1_2 Cd 1.45289(8) 0.83497(3) 0.76723(6)
O3_2 O 0.2575(9) 0.7831(3) 0.7186(6)
loop_
_geom_bond_atom_site_label_1
_geom_bond_atom_site_label_2
_geom_bond_site_symmetry_1
_geom_bond_site_symmetry_2
Cd1 N2 1_555 1_555
C1 C2 1_555 1_555
C2 H1 1_555 1_555
C3 C2 1_555 1_555
C4 C3 1_555 1_555
H2 C4 1_555 1_555
C5 C4 1_555 1_555
C6 C1 1_555 1_555
H3 C6 1_555 1_555
C7 C1 1_555 1_555
C8 C3 1_555 1_555
C9 H4 1_555 1_555
C10 C9 1_555 1_555
H5 C10 1_555 1_555
C11 C10 1_555 1_555
H6 C11 1_555 1_555
C12 C11 1_555 1_555
C13 C12 1_555 1_555
H7 C13 1_555 1_555
C14 C13 1_555 1_555
H8 C14 1_555 1_555
C15 C14 1_555 1_555
C16 C15 1_555 1_555
H9 C16 1_555 1_555
C17 C16 1_555 1_555
H10 C17 1_555 1_555
C18 C17 1_555 1_555
H11 C18 1_555 1_555
C19 C15 1_555 1_555
C20 C12 1_555 1_555
C21 H12 1_555 1_555
C22 C21 1_555 1_555
H13 C22 1_555 1_555
C23 C22 1_555 1_555
H14 C23 1_555 1_555
C24 C23 1_555 1_555
C25 C24 1_555 1_555
H15 C25 1_555 1_555
C26 C25 1_555 1_555
H16 C26 1_555 1_555
C27 C26 1_555 1_555
C28 C27 1_555 1_555
H17 C28 1_555 1_555
C29 C28 1_555 1_555
H18 C29 1_555 1_555
C30 C29 1_555 1_555
H19 C30 1_555 1_555
C31 C27 1_555 1_555
C32 C24 1_555 1_555
N1 C5 1_555 1_555
N2 C9 1_555 1_555
N3 Cd1 1_555 1_555
N4 Cd1 1_555 1_555
N5 Cd1 1_555 1_555
O1 Cd1 1_555 1_555
O2 C7 1_555 1_555
O3 C8 1_555 1_555
O4 C8 1_555 1_555
O5 N1 1_555 1_555
O6 N1 1_555 1_555
Cd1_2 O3 1_555 1_555
O3_2 Cd1 1_555 1_555
C5 C6 1_555 1_555
C7 O1 1_555 1_555
C18 N3 1_555 1_555
C19 C20 1_555 1_555
C19 N3 1_555 1_555
C20 N2 1_555 1_555
C21 N4 1_555 1_555
C30 N5 1_555 1_555
C31 C32 1_555 1_555
C31 N5 1_555 1_555
C32 N4 1_555 1_555

#END
