
#######################################################################
#
#                 Cambridge Crystallographic Data Centre
#                                CCDC 
#
#######################################################################
#
# If this CIF has been generated from an entry in the Cambridge 
# Structural Database, then it will include bibliographic, chemical, 
# crystal, experimental, refinement or atomic coordinate data resulting 
# from the CCDC's data processing and validation procedures.
#
#######################################################################

data_TOJXOG
_symmetry_cell_setting           triclinic
_symmetry_space_group_name_H-M   'P -1'
_symmetry_Int_Tables_number      2
_space_group_name_Hall           '-P 1'
loop_
_symmetry_equiv_pos_site_id
_symmetry_equiv_pos_as_xyz
1 x,y,z
2 -x,-y,-z
_cell_length_a                   9.104(2)
_cell_length_b                   11.923(3)
_cell_length_c                   12.196(3)
_cell_angle_alpha                79.858(4)
_cell_angle_beta                 74.196(4)
_cell_angle_gamma                84.990(5)
_cell_volume                     1252.81
loop_
_atom_site_label
_atom_site_type_symbol
_atom_site_fract_x
_atom_site_fract_y
_atom_site_fract_z
C1 C 0.4002(4) 0.4100(3) 0.2077(3)
C2 C 0.4764(4) 0.3651(3) 0.3032(3)
H1 H 0.4969 0.4296 0.3346
H2 H 0.5743 0.3293 0.2694
C3 C 0.3465(5) 0.1574(3) 0.3483(4)
C4 C 0.2382(6) 0.0784(4) 0.4106(4)
H3 H 0.1842 0.0829 0.4864
C5 C 0.2146(7) -0.0068(4) 0.3553(5)
H4 H 0.1436 -0.0605 0.3971
C6 C 0.3868(6) 0.0587(4) 0.1907(4)
H5 H 0.4383 0.0528 0.1147
C7 C 0.4208(5) 0.1456(4) 0.2367(4)
H6 H 0.4940 0.1968 0.1928
C8 C 0.1609(5) 0.6776(3) 0.1430(3)
C9 C 0.1043(5) 0.7779(3) 0.2050(3)
H7 H 0.0518 0.8327 0.1584
H8 H 0.1916 0.8144 0.2121
C10 C 0.0961(5) 0.6722(3) 0.4302(3)
C11 C 0.0218(5) 0.6253(4) 0.5410(3)
H9 H -0.0842 0.6314 0.5662
C12 C 0.1057(5) 0.5694(4) 0.6137(4)
H10 H 0.0528 0.5384 0.6880
C13 C 0.3257(5) 0.6029(4) 0.4783(4)
H11 H 0.4318 0.5960 0.4558
C14 C 0.2527(5) 0.6603(4) 0.3979(4)
H12 H 0.3081 0.6900 0.3239
C15 C -0.0642(4) 0.3151(3) 0.1253(3)
C16 C -0.0199(4) 0.2125(3) 0.2038(3)
H13 H 0.0464 0.1620 0.1555
H14 H 0.0402 0.2386 0.2483
C17 C -0.2131(5) 0.0365(3) 0.2220(4)
C18 C -0.2931(5) -0.0588(4) 0.2810(4)
H15 H -0.3238 -0.0714 0.3613
C19 C -0.3268(6) -0.1351(4) 0.2191(5)
H16 H -0.3778 -0.1999 0.2605
C20 C -0.2200(5) -0.0294(4) 0.0498(4)
H17 H -0.1961 -0.0170 -0.0304
C21 C -0.1778(5) 0.0516(3) 0.1038(4)
H18 H -0.1262 0.1153 0.0601
Ce1 Ce 0.26073(2) 0.490681(17) 0.009610(17)
N1 N 0.2556(4) 0.5566(3) 0.5856(3)
N2 N 0.2847(6) -0.0186(4) 0.2472(5)
N3 N -0.2915(5) -0.1224(3) 0.1052(4)
O1 O 0.2614(3) 0.4055(2) 0.2216(2)
O2 O 0.4886(3) 0.4538(2) 0.1127(2)
O3 O 0.0676(3) 0.6080(2) 0.1413(2)
O4 O 0.2998(3) 0.6676(2) 0.0933(2)
O5 O -0.1982(3) 0.3298(2) 0.1179(2)
O6 O 0.0406(3) 0.3790(2) 0.0705(2)
O7 O 0.2344(3) 0.4342(2) -0.1776(2)
H19 H 0.1769 0.3796 -0.1709
H20 H 0.3146 0.4352 -0.2332
O8 O 0.3912(3) 0.2972(2) -0.0151(2)
H21 H 0.4735 0.2946 -0.0684
H22 H 0.3349 0.2407 -0.0033
S1 S 0.37390(12) 0.26553(9) 0.41947(9)
S2 S -0.02210(12) 0.74182(9) 0.34560(9)
S3 S -0.17019(14) 0.13022(9) 0.30267(9)
Ce1A Ce 0.73927(2) 0.509319(17) -0.009610(17)
Ce1A_2 Ce -0.26073(2) 0.509319(17) -0.009610(17)
O2A O 0.5114(3) 0.5462(2) -0.1127(2)
O5A O 0.1982(3) 0.6702(2) -0.1179(2)
loop_
_geom_bond_atom_site_label_1
_geom_bond_atom_site_label_2
_geom_bond_site_symmetry_1
_geom_bond_site_symmetry_2
C1 C2 1_555 1_555
C2 H1 1_555 1_555
H2 C2 1_555 1_555
C3 C4 1_555 1_555
C4 H3 1_555 1_555
C5 C4 1_555 1_555
H4 C5 1_555 1_555
C6 H5 1_555 1_555
C7 C3 1_555 1_555
H6 C7 1_555 1_555
C8 C9 1_555 1_555
C9 H7 1_555 1_555
H8 C9 1_555 1_555
C10 C11 1_555 1_555
C11 H9 1_555 1_555
C12 C11 1_555 1_555
H10 C12 1_555 1_555
C13 H11 1_555 1_555
C14 C10 1_555 1_555
H12 C14 1_555 1_555
C15 C16 1_555 1_555
C16 H13 1_555 1_555
H14 C16 1_555 1_555
C17 C18 1_555 1_555
C18 H15 1_555 1_555
C19 C18 1_555 1_555
H16 C19 1_555 1_555
C20 H17 1_555 1_555
C21 C17 1_555 1_555
H18 C21 1_555 1_555
Ce1 O1 1_555 1_555
N1 C12 1_555 1_555
N2 C5 1_555 1_555
N3 C19 1_555 1_555
O1 C1 1_555 1_555
O2 C1 1_555 1_555
O3 C8 1_555 1_555
O4 C8 1_555 1_555
O5 C15 1_555 1_555
O6 C15 1_555 1_555
O7 Ce1 1_555 1_555
H19 O7 1_555 1_555
H20 O7 1_555 1_555
O8 Ce1 1_555 1_555
H21 O8 1_555 1_555
H22 O8 1_555 1_555
S1 C2 1_555 1_555
S2 C9 1_555 1_555
S3 C16 1_555 1_555
Ce1A O2 1_555 1_555
Ce1A_2 O5 1_555 1_555
O2A Ce1 1_555 1_555
O5A Ce1 1_555 1_555
C3 S1 1_555 1_555
C6 C7 1_555 1_555
C6 N2 1_555 1_555
C10 S2 1_555 1_555
C13 C14 1_555 1_555
C13 N1 1_555 1_555
C17 S3 1_555 1_555
C20 C21 1_555 1_555
C20 N3 1_555 1_555
Ce1 O2 1_555 1_555
Ce1 O3 1_555 1_555
Ce1 O4 1_555 1_555
Ce1 O6 1_555 1_555
Ce1A O2A 1_555 1_555

#END
