
#######################################################################
#
#                 Cambridge Crystallographic Data Centre
#                                CCDC 
#
#######################################################################
#
# If this CIF has been generated from an entry in the Cambridge 
# Structural Database, then it will include bibliographic, chemical, 
# crystal, experimental, refinement or atomic coordinate data resulting 
# from the CCDC's data processing and validation procedures.
#
#######################################################################

data_TOJXIA
_symmetry_cell_setting           triclinic
_symmetry_space_group_name_H-M   'P -1'
_symmetry_Int_Tables_number      2
_space_group_name_Hall           '-P 1'
loop_
_symmetry_equiv_pos_site_id
_symmetry_equiv_pos_as_xyz
1 x,y,z
2 -x,-y,-z
_cell_length_a                   9.1144(4)
_cell_length_b                   11.8566(5)
_cell_length_c                   12.2068(5)
_cell_angle_alpha                79.7780(10)
_cell_angle_beta                 74.1300(10)
_cell_angle_gamma                84.8300(10)
_cell_volume                     1247.51
loop_
_atom_site_label
_atom_site_type_symbol
_atom_site_fract_x
_atom_site_fract_y
_atom_site_fract_z
C1 C 0.2802(5) 0.4711(4) 0.5486(4)
H1 H 0.3039 0.4834 0.4684
C2 C 0.3208(4) 0.5531(3) 0.6013(3)
H2 H 0.3721 0.6171 0.5572
C3 C 0.2841(4) 0.5387(3) 0.7201(3)
C4 C 0.2047(5) 0.4417(3) 0.7805(4)
H3 H 0.1740 0.4295 0.8607
C5 C 0.1725(5) 0.3639(3) 0.7189(5)
H4 H 0.1215 0.2988 0.7604
C6 C 0.4813(4) 0.7139(3) 0.7021(3)
H5 H 0.5410 0.7387 0.7475
H6 H 0.5464 0.6610 0.6558
C7 C 0.6601(4) 1.1721(3) 0.6414(3)
C8 C 0.6011(4) 1.2741(3) 0.7031(3)
H7 H 0.6876 1.3123 0.7094
H8 H 0.5472 1.3282 0.6567
C9 C 0.5956(4) 1.1698(3) 0.9299(3)
C10 C 0.9050(3) 0.9101(3) 0.7052(3)
C11 C 0.9805(4) 0.8641(3) 0.8014(3)
H9 H 1.0773 0.8264 0.7683
H10 H 1.0026 0.9287 0.8323
C12 C 0.7541(4) 1.1573(3) 0.8967(3)
H11 H 0.8087 1.1853 0.8219
C13 C 0.8285(5) 1.1024(4) 0.9769(4)
H12 H 0.9346 1.0966 0.9539
C14 C 0.6070(5) 1.0698(3) 1.1147(3)
H13 H 0.5548 1.0399 1.1895
C15 C 0.5226(4) 1.1240(3) 1.0423(3)
H14 H 0.4168 1.1302 1.0683
C16 C 0.7366(5) 0.5766(4) 0.9113(4)
H15 H 0.6836 0.5822 0.9871
C17 C 0.8444(4) 0.6559(3) 0.8485(3)
C18 C 0.9183(4) 0.6439(3) 0.7361(3)
H16 H 0.9909 0.6953 0.6913
C19 C 0.4448(3) 0.8185(2) 0.6202(3)
C20 C 0.7101(6) 0.4894(4) 0.8587(5)
H17 H 0.6392 0.4358 0.9016
C21 C 0.8827(5) 0.5547(4) 0.6917(4)
H18 H 0.9336 0.5477 0.6158
Eu1 Eu 0.765430(15) 0.989350(12) 0.510980(12)
N1 N 0.2099(4) 0.3760(3) 0.6042(4)
N2 N 0.7594(4) 1.0566(3) 1.0856(3)
N3 N 0.7806(6) 0.4775(4) 0.7495(5)
O1 O 0.7659(2) 0.9062(2) 0.71671(19)
O2 O 0.9928(2) 0.95507(19) 0.60972(19)
O3 O 0.5684(2) 1.10008(19) 0.63993(19)
O4 O 0.7997(3) 1.1637(2) 0.5909(2)
O5 O 0.5565(3) 0.8774(2) 0.5645(2)
O6 O 0.7392(3) 0.9315(2) 0.3279(2)
H19 H 0.6388 0.9043 0.3410
H20 H 0.7544 0.9967 0.2675
O7 O 0.8915(3) 0.79962(18) 0.4893(2)
H21 H 0.8389 0.7598 0.4506
H22 H 0.9955 0.8087 0.4447
O8 O 0.3110(2) 0.83938(19) 0.6112(2)
S1 S 0.87439(10) 0.76568(8) 0.91862(7)
S2 S 0.47594(10) 1.23765(8) 0.84479(8)
S3 S 0.32573(12) 0.63521(8) 0.80045(8)
Eu1A Eu 1.234570(15) 1.010650(12) 0.489020(12)
Eu1A_2 Eu 0.234570(15) 1.010650(12) 0.489020(12)
O2A O 1.0072(2) 1.04493(19) 0.39028(19)
O8A O 0.6890(2) 1.16062(19) 0.3888(2)
loop_
_geom_bond_atom_site_label_1
_geom_bond_atom_site_label_2
_geom_bond_site_symmetry_1
_geom_bond_site_symmetry_2
C1 H1 1_555 1_555
C2 C1 1_555 1_555
H2 C2 1_555 1_555
C3 C2 1_555 1_555
C4 C3 1_555 1_555
H3 C4 1_555 1_555
C5 C4 1_555 1_555
H4 C5 1_555 1_555
C6 H5 1_555 1_555
H6 C6 1_555 1_555
C7 C8 1_555 1_555
C8 H7 1_555 1_555
H8 C8 1_555 1_555
C9 C12 1_555 1_555
C10 C11 1_555 1_555
C11 H9 1_555 1_555
H10 C11 1_555 1_555
C12 H11 1_555 1_555
C13 C12 1_555 1_555
H12 C13 1_555 1_555
C14 H13 1_555 1_555
C15 C9 1_555 1_555
H14 C15 1_555 1_555
C16 H15 1_555 1_555
C17 C16 1_555 1_555
C18 C17 1_555 1_555
H16 C18 1_555 1_555
C19 C6 1_555 1_555
C20 C16 1_555 1_555
H17 C20 1_555 1_555
C21 C18 1_555 1_555
H18 C21 1_555 1_555
Eu1 O1 1_555 1_555
N1 C1 1_555 1_555
N2 C13 1_555 1_555
N3 C20 1_555 1_555
O1 C10 1_555 1_555
O2 C10 1_555 1_555
O3 C7 1_555 1_555
O4 C7 1_555 1_555
O5 C19 1_555 1_555
O6 Eu1 1_555 1_555
H19 O6 1_555 1_555
H20 O6 1_555 1_555
O7 Eu1 1_555 1_555
H21 O7 1_555 1_555
H22 O7 1_555 1_555
O8 C19 1_555 1_555
S1 C11 1_555 1_555
S2 C8 1_555 1_555
S3 C3 1_555 1_555
Eu1A O2 1_555 1_555
Eu1A_2 O8 1_555 1_555
O2A Eu1 1_555 1_555
O8A Eu1 1_555 1_555
C5 N1 1_555 1_555
C6 S3 1_555 1_555
C9 S2 1_555 1_555
C14 C15 1_555 1_555
C14 N2 1_555 1_555
C17 S1 1_555 1_555
C21 N3 1_555 1_555
Eu1 O2 1_555 1_555
Eu1 O3 1_555 1_555
Eu1 O4 1_555 1_555
Eu1 O5 1_555 1_555
Eu1A O2A 1_555 1_555

#END
