
#######################################################################
#
#                 Cambridge Crystallographic Data Centre
#                                CCDC 
#
#######################################################################
#
# If this CIF has been generated from an entry in the Cambridge 
# Structural Database, then it will include bibliographic, chemical, 
# crystal, experimental, refinement or atomic coordinate data resulting 
# from the CCDC's data processing and validation procedures.
#
#######################################################################

data_TOJXAS
_symmetry_cell_setting           triclinic
_symmetry_space_group_name_H-M   'P -1'
_symmetry_Int_Tables_number      2
_space_group_name_Hall           '-P 1'
loop_
_symmetry_equiv_pos_site_id
_symmetry_equiv_pos_as_xyz
1 x,y,z
2 -x,-y,-z
_cell_length_a                   9.109(3)
_cell_length_b                   11.881(3)
_cell_length_c                   12.196(3)
_cell_angle_alpha                79.855(5)
_cell_angle_beta                 74.159(5)
_cell_angle_gamma                84.977(5)
_cell_volume                     1248.84
loop_
_atom_site_label
_atom_site_type_symbol
_atom_site_fract_x
_atom_site_fract_y
_atom_site_fract_z
C1 C 0.2820(10) 0.5382(7) 0.7217(7)
C2 C 0.2031(10) 0.4425(7) 0.7828(8)
H1 H 0.1715 0.4309 0.8630
C3 C 0.1728(10) 0.3646(7) 0.7207(10)
H2 H 0.1220 0.2995 0.7621
C4 C 0.2811(11) 0.4685(8) 0.5479(9)
H3 H 0.3051 0.4794 0.4677
C5 C 0.3219(9) 0.5522(7) 0.6025(7)
H4 H 0.3746 0.6157 0.5589
C6 C 0.4804(9) 0.7140(7) 0.7040(7)
H5 H 0.5396 0.7393 0.7495
H6 H 0.5467 0.6627 0.6565
C7 C 0.4407(9) 0.8177(7) 0.6242(7)
C8 C 0.4050(7) 0.8294(6) 0.0692(6)
C9 C 0.4782(9) 0.8745(7) -0.0428(6)
H7 H 0.5841 0.8679 -0.0685
C10 C 0.3952(9) 0.9287(7) -0.1158(7)
H8 H 0.4477 0.9571 -0.1911
C11 C 0.1736(10) 0.8963(8) 0.0233(8)
H9 H 0.0676 0.9030 0.0467
C12 C 0.2473(9) 0.8395(7) 0.1022(6)
H10 H 0.1927 0.8085 0.1760
C13 C 0.3952(9) 0.7243(6) 0.2964(6)
H11 H 0.3072 0.6884 0.2895
H12 H 0.4472 0.6689 0.3429
C14 C 0.3401(7) 0.8258(6) 0.3585(6)
C15 C 0.1548(9) 1.3409(7) 0.1501(6)
C16 C 0.2601(11) 1.4198(7) 0.0870(8)
H13 H 0.3113 1.4140 0.0108
C17 C 0.2895(14) 1.5091(9) 0.1388(10)
H14 H 0.3599 1.5628 0.0954
C18 C 0.1130(11) 1.4426(9) 0.3096(10)
H15 H 0.0602 1.4491 0.3852
C19 C 0.0794(9) 1.3540(7) 0.2629(7)
H16 H 0.0061 1.3028 0.3069
C20 C 0.0203(7) 1.1343(6) 0.1969(5)
H17 H -0.0782 1.1699 0.2298
H18 H 0.0017 1.0688 0.1657
C21 C 0.0991(7) 1.0911(6) 0.2945(5)
N1 N 0.2107(9) 0.3758(6) 0.6062(8)
N2 N 0.2429(8) 0.9435(6) -0.0860(6)
N3 N 0.2164(13) 1.5197(8) 0.2533(11)
Nd1 Nd 0.23688(3) 1.00996(3) 0.48958(3)
O1 O 0.3070(5) 0.8364(4) 0.6139(4)
O2 O 0.5471(6) 0.8797(5) 0.5680(4)
O3 O 0.2008(5) 0.8336(4) 0.4075(4)
O4 O 0.4321(5) 0.8935(4) 0.3571(4)
O5 O 0.2349(5) 1.0950(4) 0.2811(4)
O6 O 0.0109(5) 1.0469(4) 0.3900(4)
O7 O 0.1090(6) 1.1970(4) 0.5076(5)
H19 H 0.1219 1.2220 0.5749
H20 H 0.0021 1.1918 0.5146
O8 O 0.2634(5) 1.0685(5) 0.6764(4)
H21 H 0.3637 1.0960 0.6635
H22 H 0.2482 1.0035 0.7368
S1 S 0.3279(2) 0.63232(16) 0.80172(16)
S2 S 0.5228(2) 0.75994(17) 0.15403(15)
S3 S 0.1259(2) 1.23456(16) 0.08080(14)
Nd1A Nd 0.76312(3) 0.99004(3) 0.51042(3)
Nd1A_2 Nd -0.23688(3) 0.99004(3) 0.51042(3)
O2A O 0.4529(6) 1.1203(5) 0.4320(4)
O6A O -0.0109(5) 0.9531(4) 0.6100(4)
loop_
_geom_bond_atom_site_label_1
_geom_bond_atom_site_label_2
_geom_bond_site_symmetry_1
_geom_bond_site_symmetry_2
C1 C2 1_555 1_555
C2 H1 1_555 1_555
C3 C2 1_555 1_555
H2 C3 1_555 1_555
C4 H3 1_555 1_555
C5 C1 1_555 1_555
H4 C5 1_555 1_555
C6 H5 1_555 1_555
H6 C6 1_555 1_555
C7 C6 1_555 1_555
C8 C9 1_555 1_555
C9 H7 1_555 1_555
C10 C9 1_555 1_555
H8 C10 1_555 1_555
C11 H9 1_555 1_555
C12 C8 1_555 1_555
H10 C12 1_555 1_555
C13 H11 1_555 1_555
H12 C13 1_555 1_555
C14 C13 1_555 1_555
C15 C16 1_555 1_555
C16 H13 1_555 1_555
C17 C16 1_555 1_555
H14 C17 1_555 1_555
C18 H15 1_555 1_555
C19 C15 1_555 1_555
H16 C19 1_555 1_555
C20 H17 1_555 1_555
H18 C20 1_555 1_555
C21 C20 1_555 1_555
N1 C3 1_555 1_555
N2 C10 1_555 1_555
N3 C17 1_555 1_555
Nd1 O1 1_555 1_555
O1 C7 1_555 1_555
O2 C7 1_555 1_555
O3 C14 1_555 1_555
O4 C14 1_555 1_555
O5 C21 1_555 1_555
O6 C21 1_555 1_555
O7 Nd1 1_555 1_555
H19 O7 1_555 1_555
H20 O7 1_555 1_555
O8 Nd1 1_555 1_555
H21 O8 1_555 1_555
H22 O8 1_555 1_555
S1 C1 1_555 1_555
S2 C8 1_555 1_555
S3 C15 1_555 1_555
Nd1A O2 1_555 1_555
Nd1A_2 O6 1_555 1_555
O2A Nd1 1_555 1_555
O6A Nd1 1_555 1_555
C4 C5 1_555 1_555
C4 N1 1_555 1_555
C6 S1 1_555 1_555
C11 C12 1_555 1_555
C11 N2 1_555 1_555
C13 S2 1_555 1_555
C18 C19 1_555 1_555
C18 N3 1_555 1_555
C20 S3 1_555 1_555
Nd1 O3 1_555 1_555
Nd1 O4 1_555 1_555
Nd1 O5 1_555 1_555
Nd1 O6 1_555 1_555
Nd1A_2 O6A 1_555 1_555

#END
