
#######################################################################
#
#                 Cambridge Crystallographic Data Centre
#                                CCDC 
#
#######################################################################
#
# If this CIF has been generated from an entry in the Cambridge 
# Structural Database, then it will include bibliographic, chemical, 
# crystal, experimental, refinement or atomic coordinate data resulting 
# from the CCDC's data processing and validation procedures.
#
#######################################################################

data_TOJXEW
_symmetry_cell_setting           triclinic
_symmetry_space_group_name_H-M   'P -1'
_symmetry_Int_Tables_number      2
_space_group_name_Hall           '-P 1'
loop_
_symmetry_equiv_pos_site_id
_symmetry_equiv_pos_as_xyz
1 x,y,z
2 -x,-y,-z
_cell_length_a                   9.1084(5)
_cell_length_b                   11.8411(6)
_cell_length_c                   12.1998(7)
_cell_angle_alpha                79.7540(10)
_cell_angle_beta                 74.1620(10)
_cell_angle_gamma                84.8070(10)
_cell_volume                     1244.43
loop_
_atom_site_label
_atom_site_type_symbol
_atom_site_fract_x
_atom_site_fract_y
_atom_site_fract_z
C1 C 0.4038(5) 0.8309(3) 0.5708(3)
C2 C 0.2459(5) 0.8428(4) 0.6038(4)
H1 H 0.1916 0.8146 0.6787
C3 C 0.1704(5) 0.8975(4) 0.5232(4)
H2 H 0.0642 0.9026 0.5461
C4 C 0.3916(5) 0.9302(4) 0.3856(4)
H3 H 0.4436 0.9603 0.3107
C5 C 0.4764(5) 0.8760(4) 0.4573(3)
H4 H 0.5822 0.8692 0.4306
C6 C 0.3988(5) 0.7264(3) 0.7966(3)
H5 H 0.3124 0.6882 0.7901
H6 H 0.4527 0.6722 0.8431
C7 C 0.3391(4) 0.8278(3) 0.8590(3)
C8 C 0.1567(5) 1.3440(3) 0.6508(3)
C9 C 0.2643(6) 1.4240(4) 0.5880(4)
H7 H 0.3175 1.4189 0.5122
C10 C 0.2895(7) 1.5104(5) 0.6409(5)
H8 H 0.3599 1.5642 0.5977
C11 C 0.1176(6) 1.4454(4) 0.8087(4)
H9 H 0.0670 1.4521 0.8847
C12 C 0.0821(5) 1.3568(4) 0.7638(4)
H10 H 0.0089 1.3057 0.8084
C13 C 0.0191(4) 1.1360(3) 0.6986(3)
H11 H -0.0780 1.1738 0.7315
H12 H -0.0027 1.0711 0.6679
C14 C 0.0950(4) 1.0904(3) 0.7952(3)
C15 C 0.7161(4) 1.4610(3) 0.7799(4)
C16 C 0.6790(5) 1.4470(4) 0.8986(4)
H13 H 0.6273 1.3830 0.9426
C17 C 0.7192(5) 1.5288(4) 0.9520(4)
H14 H 0.6947 1.5167 1.0322
C18 C 0.8265(6) 1.6361(4) 0.7821(5)
H15 H 0.8764 1.7018 0.7408
C19 C 0.7953(5) 1.5584(4) 0.7196(4)
H16 H 0.8263 1.5709 0.6394
C20 C 0.5185(4) 1.2858(3) 0.7984(3)
H17 H 0.4585 1.2612 0.7531
H18 H 0.4538 1.3391 0.8447
C21 C 0.5546(4) 1.1808(3) 0.8807(3)
Gd1 Gd 0.234041(18) 1.010803(13) 0.988895(13)
N1 N 0.2395(4) 0.9434(3) 0.4146(3)
N2 N 0.2207(6) 1.5233(4) 0.7501(5)
N3 N 0.7909(5) 1.6239(3) 0.8957(4)
O1 O 0.4316(3) 0.9003(2) 0.8600(2)
O2 O 0.2005(3) 0.8368(2) 0.9098(2)
O3 O 0.2340(3) 1.0939(2) 0.7839(2)
O4 O 0.0069(3) 1.0444(2) 0.8907(2)
O5 O 0.4412(3) 1.1223(2) 0.9362(2)
O6 O 0.6879(3) 1.1589(2) 0.8898(2)
O7 O 0.2601(3) 1.0683(2) 1.1714(2)
H19 H 0.3634 1.0886 1.1606
H20 H 0.2355 1.0050 1.2335
O8 O 0.1089(3) 1.1997(2) 1.0101(2)
H21 H 0.1543 1.2361 1.0564
H22 H 0.0022 1.1911 1.0471
S1 S 0.52407(12) 0.76287(9) 0.65537(8)
S2 S 0.12565(12) 1.23431(9) 0.58155(8)
S3 S 0.67441(13) 1.36417(9) 0.69994(9)
Gd1A Gd -0.234041(18) 0.989197(13) 1.011105(13)
Gd1A_2 Gd 0.765959(18) 0.989197(13) 1.011105(13)
O4A O -0.0069(3) 0.9556(2) 1.1093(2)
O6A O 0.3121(3) 0.8411(2) 1.1102(2)
loop_
_geom_bond_atom_site_label_1
_geom_bond_atom_site_label_2
_geom_bond_site_symmetry_1
_geom_bond_site_symmetry_2
C1 C2 1_555 1_555
C2 H1 1_555 1_555
C3 C2 1_555 1_555
H2 C3 1_555 1_555
C4 H3 1_555 1_555
C5 C1 1_555 1_555
H4 C5 1_555 1_555
C6 H5 1_555 1_555
H6 C6 1_555 1_555
C7 C6 1_555 1_555
C8 C9 1_555 1_555
C9 H7 1_555 1_555
C10 C9 1_555 1_555
H8 C10 1_555 1_555
C11 H9 1_555 1_555
C12 C8 1_555 1_555
H10 C12 1_555 1_555
C13 H11 1_555 1_555
H12 C13 1_555 1_555
C14 C13 1_555 1_555
C15 C16 1_555 1_555
C16 H13 1_555 1_555
C17 C16 1_555 1_555
H14 C17 1_555 1_555
C18 H15 1_555 1_555
C19 C15 1_555 1_555
H16 C19 1_555 1_555
C20 H17 1_555 1_555
H18 C20 1_555 1_555
C21 C20 1_555 1_555
Gd1 O1 1_555 1_555
N1 C3 1_555 1_555
N2 C10 1_555 1_555
N3 C17 1_555 1_555
O1 C7 1_555 1_555
O2 C7 1_555 1_555
O3 C14 1_555 1_555
O4 C14 1_555 1_555
O5 C21 1_555 1_555
O6 C21 1_555 1_555
O7 Gd1 1_555 1_555
H19 O7 1_555 1_555
H20 O7 1_555 1_555
O8 Gd1 1_555 1_555
H21 O8 1_555 1_555
H22 O8 1_555 1_555
S1 C1 1_555 1_555
S2 C8 1_555 1_555
S3 C15 1_555 1_555
Gd1A O4 1_555 1_555
Gd1A_2 O6 1_555 1_555
O4A Gd1 1_555 1_555
O6A Gd1 1_555 1_555
C4 C5 1_555 1_555
C4 N1 1_555 1_555
C6 S1 1_555 1_555
C11 C12 1_555 1_555
C11 N2 1_555 1_555
C13 S2 1_555 1_555
C18 C19 1_555 1_555
C18 N3 1_555 1_555
C20 S3 1_555 1_555
Gd1 O2 1_555 1_555
Gd1 O3 1_555 1_555
Gd1 O4 1_555 1_555
Gd1 O5 1_555 1_555
Gd1A O4A 1_555 1_555

#END
