
#######################################################################
#
#                 Cambridge Crystallographic Data Centre
#                                CCDC 
#
#######################################################################
#
# If this CIF has been generated from an entry in the Cambridge 
# Structural Database, then it will include bibliographic, chemical, 
# crystal, experimental, refinement or atomic coordinate data resulting 
# from the CCDC's data processing and validation procedures.
#
#######################################################################

data_TOJYEX01
_symmetry_cell_setting           monoclinic
_symmetry_space_group_name_H-M   'C 2/c'
_symmetry_Int_Tables_number      15
_space_group_name_Hall           '-C 2yn'
loop_
_symmetry_equiv_pos_site_id
_symmetry_equiv_pos_as_xyz
1 x,y,z
2 -x,y,1/2-z
3 1/2+x,1/2+y,z
4 1/2-x,1/2+y,1/2-z
5 -x,-y,-z
6 x,-y,1/2+z
7 1/2-x,1/2-y,-z
8 1/2+x,1/2-y,1/2+z
_cell_length_a                   20.776(4)
_cell_length_b                   21.441(4)
_cell_length_c                   8.2660(17)
_cell_angle_alpha                90
_cell_angle_beta                 103.94(3)
_cell_angle_gamma                90
_cell_volume                     3573.71
loop_
_atom_site_label
_atom_site_type_symbol
_atom_site_fract_x
_atom_site_fract_y
_atom_site_fract_z
Sm1 Sm 0.0000 0.20641(2) 0.7500
Sm2 Sm 0.0000 0.28693(2) 0.2500
O1 O 0.0507(3) 0.1479(3) 0.5795(7)
O2 O 0.0696(3) 0.2088(2) 0.3778(7)
O3 O 0.0595(3) 0.2463(3) 0.0471(7)
O4 O 0.0957(3) 0.1637(3) -0.0570(7)
O5 O 0.0340(3) 0.3549(3) 0.4988(7)
O6 O 0.0664(3) 0.2896(2) 0.7115(7)
C1 C 0.0717(4) 0.1566(4) 0.4500(9)
C2 C 0.0997(4) 0.1010(4) 0.3809(10)
C3 C 0.0705(5) 0.0434(4) 0.3985(11)
H1 H 0.0340 0.0418 0.4451
C4 C 0.0948(6) -0.0106(4) 0.3481(12)
H2 H 0.0750 -0.0487 0.3608
C5 C 0.1484(6) -0.0084(5) 0.2790(11)
H3 H 0.1650 -0.0448 0.2430
C6 C 0.1774(5) 0.0479(5) 0.2632(12)
H4 H 0.2147 0.0484 0.2194
C7 C 0.1542(4) 0.1042(4) 0.3090(10)
C8 C 0.1910(4) 0.1616(4) 0.2945(10)
C9 C 0.2548(5) 0.1680(5) 0.3969(12)
H5 H 0.2710 0.1377 0.4768
C10 C 0.2938(5) 0.2178(5) 0.3824(14)
H6 H 0.3359 0.2209 0.4529
C11 C 0.2722(5) 0.2637(6) 0.2657(14)
H7 H 0.2996 0.2971 0.2555
C12 C 0.2084(5) 0.2593(5) 0.1633(10)
H8 H 0.1926 0.2902 0.0849
C13 C 0.1687(4) 0.2091(4) 0.1778(11)
C14 C 0.1034(4) 0.2052(4) 0.0510(10)
C15 C 0.0564(4) 0.3429(3) 0.6499(10)
C16 C 0.0779(4) 0.3973(3) 0.7700(9)
C17 C 0.1438(4) 0.3978(4) 0.8573(10)
H9 H 0.1715 0.3649 0.8458
C18 C 0.1689(5) 0.4476(5) 0.9620(12)
H10 H 0.2131 0.4478 1.0206
C19 C 0.1282(5) 0.4962(4) 0.9784(11)
H11 H 0.1452 0.5300 1.0458
C20 C 0.0622(5) 0.4954(4) 0.8956(11)
H12 H 0.0348 0.5282 0.9097
C21 C 0.0358(5) 0.4454(3) 0.7900(10)
O7 O 0.0919(4) 0.3610(3) 0.2356(8)
H13 H 0.1218 0.3708 0.3270
H14 H 0.1034 0.3561 0.1493
Sm1_2 Sm 0.0000 0.20641(2) -0.2500
Sm1_3 Sm 0.0000 0.20641(2) 1.7500
Sm2_2 Sm 0.0000 0.28693(2) 1.2500
O1_2 O 0.0507(3) 0.1479(3) 1.5795(7)
O1A O -0.0507(3) 0.1479(3) 0.9205(7)
O2_2 O 0.0696(3) 0.2088(2) 1.3778(7)
O2A O -0.0696(3) 0.2088(2) 0.1222(7)
O3_2 O 0.0595(3) 0.2463(3) 1.0471(7)
O3A O -0.0595(3) 0.2463(3) 0.4529(7)
O4_2 O 0.0957(3) 0.1637(3) 0.9430(7)
O4A O -0.0957(3) 0.1637(3) 0.5570(7)
O5A O -0.0340(3) 0.3549(3) 1.0012(7)
O5A_2 O -0.0340(3) 0.3549(3) 0.0012(7)
O6A O -0.0664(3) 0.2896(2) 0.7885(7)
C1_2 C 0.0717(4) 0.1566(4) 1.4500(9)
C2_2 C 0.0997(4) 0.1010(4) 1.3809(10)
C3_2 C 0.0705(5) 0.0434(4) 1.3985(11)
H1_2 H 0.0340 0.0418 1.4451
C4_2 C 0.0948(6) -0.0106(4) 1.3481(12)
H2_2 H 0.0750 -0.0487 1.3608
C5_2 C 0.1484(6) -0.0084(5) 1.2790(11)
H3_2 H 0.1650 -0.0448 1.2430
C6_2 C 0.1774(5) 0.0479(5) 1.2632(12)
H4_2 H 0.2147 0.0484 1.2194
C7_2 C 0.1542(4) 0.1042(4) 1.3090(10)
C8_2 C 0.1910(4) 0.1616(4) 1.2945(10)
C9_2 C 0.2548(5) 0.1680(5) 1.3969(12)
H5_2 H 0.2710 0.1377 1.4768
C10_2 C 0.2938(5) 0.2178(5) 1.3824(14)
H6_2 H 0.3359 0.2209 1.4529
C11_2 C 0.2722(5) 0.2637(6) 1.2657(14)
H7_2 H 0.2996 0.2971 1.2555
C12_2 C 0.2084(5) 0.2593(5) 1.1633(10)
H8_2 H 0.1926 0.2902 1.0849
C13_2 C 0.1687(4) 0.2091(4) 1.1778(11)
C14_2 C 0.1034(4) 0.2052(4) 1.0510(10)
C15A C -0.0564(4) 0.3429(3) 0.8501(10)
C16A C -0.0779(4) 0.3973(3) 0.7300(9)
C17A C -0.1438(4) 0.3978(4) 0.6427(10)
H9A H -0.1715 0.3649 0.6542
C18A C -0.1689(5) 0.4476(5) 0.5380(12)
H10A H -0.2131 0.4478 0.4794
C19A C -0.1282(5) 0.4962(4) 0.5216(11)
H11A H -0.1452 0.5300 0.4542
C20A C -0.0622(5) 0.4954(4) 0.6044(11)
H12A H -0.0348 0.5282 0.5903
C21A C -0.0358(5) 0.4454(3) 0.7100(10)
O7A O -0.0919(4) 0.3610(3) 0.2644(8)
H13A H -0.1218 0.3708 0.1730
H14A H -0.1034 0.3561 0.3507
loop_
_geom_bond_atom_site_label_1
_geom_bond_atom_site_label_2
_geom_bond_site_symmetry_1
_geom_bond_site_symmetry_2
Sm1 O1 1_555 1_555
Sm2 O2 1_555 1_555
O1 C1 1_555 1_555
O2 C1 1_555 1_555
O3 Sm2 1_555 1_555
O4 C14 1_555 1_555
O5 Sm2 1_555 1_555
O6 Sm1 1_555 1_555
C1 C2 1_555 1_555
C2 C3 1_555 1_555
C3 H1 1_555 1_555
C4 C3 1_555 1_555
H2 C4 1_555 1_555
C5 C4 1_555 1_555
H3 C5 1_555 1_555
C6 C5 1_555 1_555
H4 C6 1_555 1_555
C7 C2 1_555 1_555
C8 C7 1_555 1_555
C9 C8 1_555 1_555
H5 C9 1_555 1_555
C10 C9 1_555 1_555
H6 C10 1_555 1_555
C11 C10 1_555 1_555
H7 C11 1_555 1_555
C12 C11 1_555 1_555
H8 C12 1_555 1_555
C13 C8 1_555 1_555
C14 O3 1_555 1_555
C15 O5 1_555 1_555
C16 C15 1_555 1_555
C17 C16 1_555 1_555
H9 C17 1_555 1_555
C18 C17 1_555 1_555
H10 C18 1_555 1_555
C19 C18 1_555 1_555
H11 C19 1_555 1_555
C20 C19 1_555 1_555
H12 C20 1_555 1_555
C21 C16 1_555 1_555
O7 Sm2 1_555 1_555
H13 O7 1_555 1_555
H14 O7 1_555 1_555
Sm1_2 O3 1_555 1_555
Sm1_3 O1_2 1_555 1_555
Sm2_2 O2_2 1_555 1_555
O1_2 C1_2 1_555 1_555
O1A Sm1 1_555 1_555
O2_2 C1_2 1_555 1_555
O2A Sm2 1_555 1_555
O3_2 Sm1 1_555 1_555
O3A Sm1 1_555 1_555
O4_2 Sm1 1_555 1_555
O4A Sm1 1_555 1_555
O5A Sm2_2 1_555 1_555
O5A_2 Sm2 1_555 1_555
O6A Sm1 1_555 1_555
C1_2 C2_2 1_555 1_555
C2_2 C3_2 1_555 1_555
C3_2 H1_2 1_555 1_555
C4_2 C3_2 1_555 1_555
H2_2 C4_2 1_555 1_555
C5_2 C4_2 1_555 1_555
H3_2 C5_2 1_555 1_555
C6_2 C5_2 1_555 1_555
H4_2 C6_2 1_555 1_555
C7_2 C2_2 1_555 1_555
C8_2 C7_2 1_555 1_555
C9_2 C8_2 1_555 1_555
H5_2 C9_2 1_555 1_555
C10_2 C9_2 1_555 1_555
H6_2 C10_2 1_555 1_555
C11_2 C10_2 1_555 1_555
H7_2 C11_2 1_555 1_555
C12_2 C11_2 1_555 1_555
H8_2 C12_2 1_555 1_555
C13_2 C8_2 1_555 1_555
C14_2 O3_2 1_555 1_555
C15A O5A 1_555 1_555
C16A C15A 1_555 1_555
C17A C16A 1_555 1_555
H9A C17A 1_555 1_555
C18A C17A 1_555 1_555
H10A C18A 1_555 1_555
C19A C18A 1_555 1_555
H11A C19A 1_555 1_555
C20A C19A 1_555 1_555
H12A C20A 1_555 1_555
C21A C21 1_555 1_555
O7A Sm2 1_555 1_555
H13A O7A 1_555 1_555
H14A O7A 1_555 1_555
Sm2 O3A 1_555 1_555
O4 Sm1_2 1_555 1_555
O6 C15 1_555 1_555
C6 C7 1_555 1_555
C12 C13 1_555 1_555
C13 C14 1_555 1_555
C20 C21 1_555 1_555
Sm2_2 O3_2 1_555 1_555
O4_2 C14_2 1_555 1_555
O6A C15A 1_555 1_555
C6_2 C7_2 1_555 1_555
C12_2 C13_2 1_555 1_555
C13_2 C14_2 1_555 1_555
C16A C21A 1_555 1_555
C20A C21A 1_555 1_555

#END
