
#######################################################################
#
#                 Cambridge Crystallographic Data Centre
#                                CCDC 
#
#######################################################################
#
# If this CIF has been generated from an entry in the Cambridge 
# Structural Database, then it will include bibliographic, chemical, 
# crystal, experimental, refinement or atomic coordinate data resulting 
# from the CCDC's data processing and validation procedures.
#
#######################################################################

data_TOJYEX
_symmetry_cell_setting           monoclinic
_symmetry_space_group_name_H-M   'C 2/c'
_symmetry_Int_Tables_number      15
_space_group_name_Hall           '-C 2yn'
loop_
_symmetry_equiv_pos_site_id
_symmetry_equiv_pos_as_xyz
1 x,y,z
2 1/2+x,1/2+y,z
3 -x,y,1/2-z
4 1/2-x,1/2+y,1/2-z
5 -x,-y,-z
6 1/2-x,1/2-y,-z
7 x,-y,1/2+z
8 1/2+x,1/2-y,1/2+z
_cell_length_a                   20.960(2)
_cell_length_b                   21.450(2)
_cell_length_c                   8.2778(8)
_cell_angle_alpha                90
_cell_angle_beta                 103.818(5)
_cell_angle_gamma                90
_cell_volume                     3613.93
loop_
_atom_site_label
_atom_site_type_symbol
_atom_site_fract_x
_atom_site_fract_y
_atom_site_fract_z
O1 O 0.06640(10) 0.28958(8) 0.7110(3)
C1 C 0.05675(13) 0.34325(11) 0.6505(3)
O2 O 0.03352(10) 0.35485(8) 0.4989(2)
Sm1 Sm 0.0000 0.287031(8) 0.2500
O3 O 0.06948(10) 0.20864(8) 0.3784(2)
C2 C 0.15378(14) 0.10412(13) 0.3096(3)
C3 C 0.17789(18) 0.04780(15) 0.2622(4)
H1 H 0.2147 0.0485 0.2178
C4 C 0.1489(2) -0.00845(16) 0.2795(4)
H2 H 0.1658 -0.0450 0.2459
C5 C 0.0948(2) -0.01078(15) 0.3463(4)
H3 H 0.0744 -0.0486 0.3558
C6 C 0.07129(19) 0.04351(13) 0.3989(4)
H4 H 0.0356 0.0418 0.4473
C7 C 0.09964(14) 0.10100(12) 0.3814(3)
C8 C 0.07151(13) 0.15657(12) 0.4498(3)
O4 O 0.05105(11) 0.14773(9) 0.5792(2)
Sm2 Sm 0.0000 0.206510(8) 0.7500
C9 C 0.10368(14) 0.20508(12) 0.0512(3)
C10 C 0.16831(14) 0.20918(13) 0.1770(3)
C11 C 0.20893(15) 0.25943(16) 0.1651(4)
H5 H 0.1936 0.2909 0.0885
C12 C 0.19130(13) 0.16179(13) 0.2941(3)
C13 C 0.25460(15) 0.16812(16) 0.3967(4)
H6 H 0.2702 0.1377 0.4765
C14 C 0.29427(16) 0.21787(18) 0.3831(4)
H7 H 0.3361 0.2208 0.4530
C15 C 0.27206(17) 0.26312(19) 0.2664(4)
H8 H 0.2992 0.2963 0.2549
C16 C 0.06236(16) 0.49506(13) 0.8962(4)
H9 H 0.0354 0.5280 0.9105
C17 C 0.07803(13) 0.39668(11) 0.7696(3)
C18 C 0.03554(14) 0.44536(11) 0.7908(3)
C19 C 0.14386(15) 0.39803(13) 0.8578(3)
H10 H 0.1713 0.3650 0.8468
C20 C 0.12774(17) 0.49602(15) 0.9786(4)
H11 H 0.1443 0.5296 1.0467
C21 C 0.16915(17) 0.44741(15) 0.9612(4)
H12 H 0.2132 0.4479 1.0180
O5 O 0.05913(9) 0.24627(8) 0.0473(2)
O6 O 0.09637(10) 0.16364(9) -0.0572(2)
O7 O 0.09256(13) 0.36030(12) 0.2365(3)
H13 H 0.095(2) 0.3968(11) 0.268(6)
H14 H 0.120(4) 0.355(5) 0.178(12)
O1B O -0.06640(10) 0.28958(8) 0.7890(3)
C1B C -0.05675(13) 0.34325(11) 0.8495(3)
O2B O -0.03352(10) 0.35485(8) 1.0011(2)
O2B_2 O -0.03352(10) 0.35485(8) 0.0011(2)
Sm1_2 Sm 0.0000 0.287031(8) 1.2500
O3B O -0.06948(10) 0.20864(8) 0.1216(2)
C2B C -0.15378(14) 0.10412(13) 0.1904(3)
C3B C -0.17789(18) 0.04780(15) 0.2378(4)
H1B H -0.2147 0.0485 0.2822
C4B C -0.1489(2) -0.00845(16) 0.2205(4)
H2B H -0.1658 -0.0450 0.2541
C5B C -0.0948(2) -0.01078(15) 0.1537(4)
H3B H -0.0744 -0.0486 0.1442
C6B C -0.07129(19) 0.04351(13) 0.1011(4)
H4B H -0.0356 0.0418 0.0527
C7B C -0.09964(14) 0.10100(12) 0.1186(3)
C8B C -0.07151(13) 0.15657(12) 0.0502(3)
O4B O -0.05105(11) 0.14773(9) -0.0792(2)
O4B_2 O -0.05105(11) 0.14773(9) 0.9208(2)
Sm2_2 Sm 0.0000 0.206510(8) -0.2500
C9B C -0.10368(14) 0.20508(12) 0.4488(3)
C10B C -0.16831(14) 0.20918(13) 0.3230(3)
C11B C -0.20893(15) 0.25943(16) 0.3349(4)
H5B H -0.1936 0.2909 0.4115
C12B C -0.19130(13) 0.16179(13) 0.2059(3)
C13B C -0.25460(15) 0.16812(16) 0.1033(4)
H6B H -0.2702 0.1377 0.0235
C14B C -0.29427(16) 0.21787(18) 0.1169(4)
H7B H -0.3361 0.2208 0.0470
C15B C -0.27206(17) 0.26312(19) 0.2336(4)
H8B H -0.2992 0.2963 0.2451
C16B C -0.06236(16) 0.49506(13) 0.6038(4)
H9B H -0.0354 0.5280 0.5895
C17B C -0.07803(13) 0.39668(11) 0.7304(3)
C18B C -0.03554(14) 0.44536(11) 0.7092(3)
C19B C -0.14386(15) 0.39803(13) 0.6422(3)
H10B H -0.1713 0.3650 0.6532
C20B C -0.12774(17) 0.49602(15) 0.5214(4)
H11B H -0.1443 0.5296 0.4533
C21B C -0.16915(17) 0.44741(15) 0.5388(4)
H12B H -0.2132 0.4479 0.4820
O5B O -0.05913(9) 0.24627(8) 0.4527(2)
O5_2 O 0.05913(9) 0.24627(8) 1.0473(2)
O6B O -0.09637(10) 0.16364(9) 0.5572(2)
O6_2 O 0.09637(10) 0.16364(9) 0.9428(2)
O7B O -0.09256(13) 0.36030(12) 0.2635(3)
H13B H -0.095(2) 0.3968(11) 0.232(6)
H14B H -0.120(4) 0.355(5) 0.322(12)
loop_
_geom_bond_atom_site_label_1
_geom_bond_atom_site_label_2
_geom_bond_site_symmetry_1
_geom_bond_site_symmetry_2
O1 C1 1_555 1_555
C1 O2 1_555 1_555
O2 Sm1 1_555 1_555
Sm1 O3 1_555 1_555
O3 C8 1_555 1_555
C2 C3 1_555 1_555
C3 H1 1_555 1_555
C4 C3 1_555 1_555
H2 C4 1_555 1_555
C5 C4 1_555 1_555
H3 C5 1_555 1_555
C6 C5 1_555 1_555
H4 C6 1_555 1_555
C7 C2 1_555 1_555
C8 C7 1_555 1_555
O4 C8 1_555 1_555
Sm2 O1 1_555 1_555
C9 C10 1_555 1_555
C10 C11 1_555 1_555
C11 H5 1_555 1_555
C12 C2 1_555 1_555
C13 C12 1_555 1_555
H6 C13 1_555 1_555
C14 C13 1_555 1_555
H7 C14 1_555 1_555
C15 C11 1_555 1_555
H8 C15 1_555 1_555
C16 H9 1_555 1_555
C17 C1 1_555 1_555
C18 C16 1_555 1_555
C19 C17 1_555 1_555
H10 C19 1_555 1_555
C20 C16 1_555 1_555
H11 C20 1_555 1_555
C21 C19 1_555 1_555
H12 C21 1_555 1_555
O5 Sm1 1_555 1_555
O6 C9 1_555 1_555
O7 Sm1 1_555 1_555
H13 O7 1_555 1_555
H14 O7 1_555 1_555
O1B Sm2 1_555 1_555
C1B O1B 1_555 1_555
O2B C1B 1_555 1_555
O2B_2 Sm1 1_555 1_555
Sm1_2 O2B 1_555 1_555
O3B Sm1 1_555 1_555
C2B C3B 1_555 1_555
C3B H1B 1_555 1_555
C4B C3B 1_555 1_555
H2B C4B 1_555 1_555
C5B C4B 1_555 1_555
H3B C5B 1_555 1_555
C6B C5B 1_555 1_555
H4B C6B 1_555 1_555
C7B C2B 1_555 1_555
C8B O3B 1_555 1_555
O4B C8B 1_555 1_555
O4B_2 Sm2 1_555 1_555
Sm2_2 O5 1_555 1_555
C9B C10B 1_555 1_555
C10B C11B 1_555 1_555
C11B H5B 1_555 1_555
C12B C2B 1_555 1_555
C13B C12B 1_555 1_555
H6B C13B 1_555 1_555
C14B C13B 1_555 1_555
H7B C14B 1_555 1_555
C15B C11B 1_555 1_555
H8B C15B 1_555 1_555
C16B H9B 1_555 1_555
C17B C1B 1_555 1_555
C18B C18 1_555 1_555
C19B C17B 1_555 1_555
H10B C19B 1_555 1_555
C20B C16B 1_555 1_555
H11B C20B 1_555 1_555
C21B C19B 1_555 1_555
H12B C21B 1_555 1_555
O5B Sm1 1_555 1_555
O5_2 Sm2 1_555 1_555
O6B Sm2 1_555 1_555
O6_2 Sm2 1_555 1_555
O7B Sm1 1_555 1_555
H13B O7B 1_555 1_555
H14B O7B 1_555 1_555
C6 C7 1_555 1_555
O4 Sm2 1_555 1_555
Sm2 O5B 1_555 1_555
C9 O5 1_555 1_555
C10 C12 1_555 1_555
C14 C15 1_555 1_555
C17 C18 1_555 1_555
C20 C21 1_555 1_555
O6 Sm2_2 1_555 1_555
Sm1_2 O5_2 1_555 1_555
C6B C7B 1_555 1_555
C7B C8B 1_555 1_555
O4B Sm2_2 1_555 1_555
C9B O5B 1_555 1_555
C9B O6B 1_555 1_555
C10B C12B 1_555 1_555
C14B C15B 1_555 1_555
C16B C18B 1_555 1_555
C17B C18B 1_555 1_555
C20B C21B 1_555 1_555

#END
