
#######################################################################
#
#                 Cambridge Crystallographic Data Centre
#                                CCDC 
#
#######################################################################
#
# If this CIF has been generated from an entry in the Cambridge 
# Structural Database, then it will include bibliographic, chemical, 
# crystal, experimental, refinement or atomic coordinate data resulting 
# from the CCDC's data processing and validation procedures.
#
#######################################################################

data_TOJYAT
_symmetry_cell_setting           triclinic
_symmetry_space_group_name_H-M   'P -1'
_symmetry_Int_Tables_number      2
_space_group_name_Hall           '-P 1'
loop_
_symmetry_equiv_pos_site_id
_symmetry_equiv_pos_as_xyz
1 x,y,z
2 -x,-y,-z
_cell_length_a                   10.206(3)
_cell_length_b                   14.423(5)
_cell_length_c                   14.435(5)
_cell_angle_alpha                67.528(12)
_cell_angle_beta                 78.542(9)
_cell_angle_gamma                69.747(10)
_cell_volume                     1836.7
loop_
_atom_site_label
_atom_site_type_symbol
_atom_site_fract_x
_atom_site_fract_y
_atom_site_fract_z
Cd1 Cd -0.17930(8) 0.18010(6) 0.59377(7)
Cd2 Cd -0.96453(8) 0.17520(6) 0.80822(7)
O1 O -0.2522(8) 0.0323(7) 0.6217(8)
O2 O -0.4163(8) 0.1858(7) 0.5845(8)
O3 O -0.9225(8) 0.1896(7) 0.6380(6)
O4 O -0.9638(8) 0.0604(7) 0.6128(8)
O5 O -0.0767(8) 0.0489(7) 0.8640(8)
O6 O -0.2182(8) 0.1821(6) 0.7566(6)
O7 O -0.7269(9) 0.1899(8) 0.8143(8)
O8 O -0.7698(8) 0.0387(7) 0.8618(7)
O9 O -0.5911(11) -0.2749(7) 0.6747(9)
O10 O -0.3837(10) -0.2680(8) 0.6188(11)
O11 O -0.4049(12) -0.2839(8) 1.0253(10)
O12 O -0.1874(11) -0.2877(8) 0.9936(9)
N1 N -0.5054(9) -0.2285(7) 0.6438(9)
N2 N -0.3129(11) -0.2397(8) 0.9895(9)
N3 N -0.1106(10) 0.2341(8) 0.4211(7)
N4 N -0.2576(10) 0.3632(7) 0.5303(8)
N5 N -1.1085(10) 0.2351(8) 0.9359(8)
N6 N -1.0352(9) 0.3560(7) 0.7480(8)
C1 C -0.4879(10) 0.0367(9) 0.6163(8)
C2 C -0.4416(11) -0.0723(9) 0.6271(9)
H1 H -0.3474 -0.1112 0.6300
C3 C -0.5466(11) -0.1168(8) 0.6330(9)
C4 C -0.6884(11) -0.0625(9) 0.6319(9)
H2 H -0.7542 -0.0958 0.6368
C5 C -0.7301(11) 0.0422(9) 0.6234(9)
C6 C -0.6279(11) 0.0910(9) 0.6169(8)
H3 H -0.6563 0.1609 0.6129
C7 C -0.3797(11) 0.0883(10) 0.6073(9)
C8 C -0.8841(10) 0.1037(8) 0.6251(9)
C9 C -0.2975(10) 0.0329(8) 0.8570(8)
C10 C -0.4378(10) 0.0875(8) 0.8371(8)
H4 H -0.4654 0.1598 0.8042
C11 C -0.5359(10) 0.0315(9) 0.8675(8)
C12 C -0.4965(11) -0.0741(10) 0.9163(9)
H5 H -0.5618 -0.1111 0.9357
C13 C -0.3554(11) -0.1267(9) 0.9371(8)
C14 C -0.2574(11) -0.0760(9) 0.9107(8)
H6 H -0.1656 -0.1121 0.9276
C15 C -0.1875(11) 0.0919(9) 0.8245(9)
C16 C -0.6879(11) 0.0932(9) 0.8457(8)
C17 C -0.0286(15) 0.1716(12) 0.3733(11)
H7 H 0.0102 0.1008 0.4092
C18 C 0.003(2) 0.2101(16) 0.2661(14)
H8 H 0.0622 0.1655 0.2326
C19 C -0.0554(19) 0.3104(17) 0.2168(12)
H9 H -0.0378 0.3354 0.1473
C20 C -0.1427(17) 0.3811(13) 0.2645(13)
C21 C -0.203(2) 0.4932(15) 0.2168(15)
H10 H -0.1897 0.5218 0.1472
C22 C -0.2745(18) 0.5565(13) 0.2669(16)
H11 H -0.3114 0.6278 0.2322
C23 C -0.2970(15) 0.5164(11) 0.3757(15)
C24 C -0.3621(17) 0.5782(12) 0.441(2)
H12 H -0.3962 0.6509 0.4119
C25 C -0.3749(14) 0.5356(14) 0.540(2)
H13 H -0.4206 0.5772 0.5794
C26 C -0.3186(14) 0.4264(13) 0.5844(15)
H14 H -0.3239 0.3969 0.6542
C27 C -0.2423(12) 0.4069(9) 0.4280(11)
C28 C -0.1677(13) 0.3382(10) 0.3707(10)
C29 C -1.1513(15) 0.1764(11) 1.0243(10)
H15 H -1.1187 0.1037 1.0406
C30 C -1.241(2) 0.2166(15) 1.0932(12)
H16 H -1.2673 0.1717 1.1547
C31 C -1.2930(19) 0.3256(15) 1.0705(13)
H17 H -1.3520 0.3547 1.1169
C32 C -1.2529(16) 0.3902(12) 0.9747(12)
C33 C -1.2990(18) 0.5055(13) 0.9467(13)
H18 H -1.3594 0.5379 0.9902
C34 C -1.2526(18) 0.5617(13) 0.8584(15)
H19 H -1.2771 0.6341 0.8428
C35 C -1.1660(15) 0.5171(10) 0.7850(12)
C36 C -1.1240(14) 0.5754(10) 0.6870(11)
H20 H -1.1520 0.6484 0.6655
C37 C -1.0418(14) 0.5237(11) 0.6239(12)
H21 H -1.0144 0.5617 0.5590
C38 C -0.9990(14) 0.4134(11) 0.6570(10)
H22 H -0.9431 0.3797 0.6131
C39 C -1.1178(12) 0.4055(10) 0.8116(10)
C40 C -1.1604(12) 0.3428(9) 0.9101(10)
Cd1_2 Cd -1.17930(8) 0.18010(6) 0.59377(7)
Cd2_2 Cd 0.03547(8) 0.17520(6) 0.80822(7)
O4_2 O 0.0362(8) 0.0604(7) 0.6128(8)
O5_2 O -1.0767(8) 0.0489(7) 0.8640(8)
loop_
_geom_bond_atom_site_label_1
_geom_bond_atom_site_label_2
_geom_bond_site_symmetry_1
_geom_bond_site_symmetry_2
Cd1 O1 1_555 1_555
Cd2 O3 1_555 1_555
O1 C7 1_555 1_555
O2 Cd1 1_555 1_555
O3 C8 1_555 1_555
O4 C8 1_555 1_555
O5 C15 1_555 1_555
O6 Cd1 1_555 1_555
O7 Cd2 1_555 1_555
O8 Cd2 1_555 1_555
O9 N1 1_555 1_555
O10 N1 1_555 1_555
O11 N2 1_555 1_555
O12 N2 1_555 1_555
N1 C3 1_555 1_555
N2 C13 1_555 1_555
N3 Cd1 1_555 1_555
N4 Cd1 1_555 1_555
N5 Cd2 1_555 1_555
N6 Cd2 1_555 1_555
C1 C2 1_555 1_555
C2 H1 1_555 1_555
C3 C2 1_555 1_555
C4 C3 1_555 1_555
H2 C4 1_555 1_555
C5 C4 1_555 1_555
C6 C1 1_555 1_555
H3 C6 1_555 1_555
C7 O2 1_555 1_555
C8 C5 1_555 1_555
C9 C10 1_555 1_555
C10 H4 1_555 1_555
C11 C10 1_555 1_555
C12 C11 1_555 1_555
H5 C12 1_555 1_555
C13 C12 1_555 1_555
C14 C9 1_555 1_555
H6 C14 1_555 1_555
C15 O6 1_555 1_555
C16 O7 1_555 1_555
C17 N3 1_555 1_555
H7 C17 1_555 1_555
C18 C17 1_555 1_555
H8 C18 1_555 1_555
C19 C18 1_555 1_555
H9 C19 1_555 1_555
C20 C19 1_555 1_555
C21 C20 1_555 1_555
H10 C21 1_555 1_555
C22 C21 1_555 1_555
H11 C22 1_555 1_555
C23 C22 1_555 1_555
C24 C23 1_555 1_555
H12 C24 1_555 1_555
C25 C24 1_555 1_555
H13 C25 1_555 1_555
C26 N4 1_555 1_555
H14 C26 1_555 1_555
C27 N4 1_555 1_555
C28 N3 1_555 1_555
C29 N5 1_555 1_555
H15 C29 1_555 1_555
C30 C29 1_555 1_555
H16 C30 1_555 1_555
C31 C30 1_555 1_555
H17 C31 1_555 1_555
C32 C31 1_555 1_555
C33 C32 1_555 1_555
H18 C33 1_555 1_555
C34 C33 1_555 1_555
H19 C34 1_555 1_555
C35 C34 1_555 1_555
C36 C35 1_555 1_555
H20 C36 1_555 1_555
C37 C36 1_555 1_555
H21 C37 1_555 1_555
C38 N6 1_555 1_555
H22 C38 1_555 1_555
C39 N6 1_555 1_555
C40 N5 1_555 1_555
Cd1_2 O4 1_555 1_555
Cd2_2 O5 1_555 1_555
O4_2 Cd1 1_555 1_555
O5_2 Cd2 1_555 1_555
O8 C16 1_555 1_555
C1 C7 1_555 1_555
C5 C6 1_555 1_555
C9 C15 1_555 1_555
C11 C16 1_555 1_555
C13 C14 1_555 1_555
C20 C28 1_555 1_555
C23 C27 1_555 1_555
C25 C26 1_555 1_555
C27 C28 1_555 1_555
C32 C40 1_555 1_555
C35 C39 1_555 1_555
C37 C38 1_555 1_555
C39 C40 1_555 1_555

#END
