
#######################################################################
#
#                 Cambridge Crystallographic Data Centre
#                                CCDC 
#
#######################################################################
#
# If this CIF has been generated from an entry in the Cambridge 
# Structural Database, then it will include bibliographic, chemical, 
# crystal, experimental, refinement or atomic coordinate data resulting 
# from the CCDC's data processing and validation procedures.
#
#######################################################################

data_TOKBIF
_symmetry_cell_setting           monoclinic
_symmetry_space_group_name_H-M   'P 21/n'
_symmetry_Int_Tables_number      14
_space_group_name_Hall           '-P 2yn'
loop_
_symmetry_equiv_pos_site_id
_symmetry_equiv_pos_as_xyz
1 x,y,z
2 1/2-x,1/2+y,1/2-z
3 -x,-y,-z
4 1/2+x,1/2-y,1/2+z
_cell_length_a                   10.2100(17)
_cell_length_b                   17.054(3)
_cell_length_c                   11.1836(18)
_cell_angle_alpha                90
_cell_angle_beta                 95.296(2)
_cell_angle_gamma                90
_cell_volume                     1938.99
loop_
_atom_site_label
_atom_site_type_symbol
_atom_site_fract_x
_atom_site_fract_y
_atom_site_fract_z
Zn1 Zn 0.69608(4) 0.36862(2) 1.06970(3)
O1 O 0.4944(4) 0.3868(2) 0.9574(4)
O2 O 0.5052(4) 0.2940(2) 1.0917(3)
O3 O 0.2907(5) 0.1506(2) 0.7530(4)
O4 O 0.2356(6) 0.0425(3) 0.8403(4)
O5 O 0.6820(4) 0.4975(2) 1.1164(4)
H1 H 0.6584 0.5042 1.1857
H2 H 0.6700 0.5387 1.0759
N1 N 0.7805(4) 0.2536(3) 0.9966(4)
N2 N 0.8425(5) 0.3990(3) 0.9307(4)
C1 C 0.7466(7) 0.1821(4) 1.0340(6)
H3 H 0.6836 0.1785 1.0888
C2 C 0.8003(8) 0.1144(4) 0.9952(7)
H4 H 0.7757 0.0658 1.0236
C3 C 0.8927(8) 0.1203(4) 0.9122(7)
H5 H 0.9315 0.0754 0.8841
C4 C 0.9262(6) 0.1925(4) 0.8721(6)
H6 H 0.9876 0.1969 0.8160
C5 C 0.8681(5) 0.2600(3) 0.9157(4)
C6 C 0.9002(5) 0.3396(3) 0.8782(4)
C7 C 0.9905(6) 0.3535(4) 0.7918(6)
H7 H 1.0322 0.3122 0.7563
C8 C 1.0141(6) 0.4295(4) 0.7623(5)
H8 H 1.0727 0.4400 0.7055
C9 C 0.9541(7) 0.4900(4) 0.8140(6)
H9 H 0.9710 0.5415 0.7932
C10 C 0.8675(7) 0.4732(4) 0.8979(6)
H10 H 0.8250 0.5143 0.9331
C11 C 0.4429(5) 0.3314(3) 1.0092(4)
C12 C 0.3050(5) 0.3074(4) 0.9648(6)
H11 H 0.3073 0.2842 0.8858
H12 H 0.2515 0.3543 0.9553
C13 C 0.2372(5) 0.2504(3) 1.0421(5)
C14 C 0.1482(6) 0.2771(5) 1.1188(6)
H13 H 0.1331 0.3309 1.1219
C15 C 0.0817(7) 0.2300(7) 1.1895(6)
H14 H 0.0218 0.2507 1.2388
C16 C 0.1058(8) 0.1481(7) 1.1865(7)
H15 H 0.0621 0.1138 1.2339
C17 C 0.1956(7) 0.1205(4) 1.1117(6)
H16 H 0.2120 0.0669 1.1093
C18 C 0.2622(5) 0.1699(3) 1.0400(4)
C19 C 0.3574(7) 0.1366(3) 0.9605(5)
H17 H 0.4038 0.0930 1.0009
H18 H 0.4218 0.1762 0.9448
C20 C 0.2868(6) 0.1080(3) 0.8402(5)
Zn1C Zn 0.19608(4) 0.13138(2) 0.56970(3)
O3C O 0.7907(5) 0.3494(2) 1.2530(4)
loop_
_geom_bond_atom_site_label_1
_geom_bond_atom_site_label_2
_geom_bond_site_symmetry_1
_geom_bond_site_symmetry_2
Zn1 O1 1_555 1_555
O1 C11 1_555 1_555
O2 Zn1 1_555 1_555
O3 C20 1_555 1_555
O4 C20 1_555 1_555
O5 Zn1 1_555 1_555
H1 O5 1_555 1_555
H2 O5 1_555 1_555
N1 Zn1 1_555 1_555
N2 Zn1 1_555 1_555
C1 N1 1_555 1_555
H3 C1 1_555 1_555
C2 C1 1_555 1_555
H4 C2 1_555 1_555
C3 C2 1_555 1_555
H5 C3 1_555 1_555
C4 C3 1_555 1_555
H6 C4 1_555 1_555
C5 N1 1_555 1_555
C6 N2 1_555 1_555
C7 C6 1_555 1_555
H7 C7 1_555 1_555
C8 C7 1_555 1_555
H8 C8 1_555 1_555
C9 C8 1_555 1_555
H9 C9 1_555 1_555
C10 N2 1_555 1_555
H10 C10 1_555 1_555
C11 O2 1_555 1_555
C12 C11 1_555 1_555
H11 C12 1_555 1_555
H12 C12 1_555 1_555
C13 C12 1_555 1_555
C14 C13 1_555 1_555
H13 C14 1_555 1_555
C15 C14 1_555 1_555
H14 C15 1_555 1_555
C16 C15 1_555 1_555
H15 C16 1_555 1_555
C17 C16 1_555 1_555
H16 C17 1_555 1_555
C18 C13 1_555 1_555
C19 C18 1_555 1_555
H17 C19 1_555 1_555
H18 C19 1_555 1_555
C20 C19 1_555 1_555
Zn1C O3 1_555 1_555
O3C Zn1 1_555 1_555
C4 C5 1_555 1_555
C5 C6 1_555 1_555
C9 C10 1_555 1_555
C17 C18 1_555 1_555

#END
