
#######################################################################
#
#                 Cambridge Crystallographic Data Centre
#                                CCDC 
#
#######################################################################
#
# If this CIF has been generated from an entry in the Cambridge 
# Structural Database, then it will include bibliographic, chemical, 
# crystal, experimental, refinement or atomic coordinate data resulting 
# from the CCDC's data processing and validation procedures.
#
#######################################################################

data_TOKBEB
_symmetry_cell_setting           monoclinic
_symmetry_space_group_name_H-M   'P 21/c'
_symmetry_Int_Tables_number      14
_space_group_name_Hall           '-P 2ybc'
loop_
_symmetry_equiv_pos_site_id
_symmetry_equiv_pos_as_xyz
1 x,y,z
2 -x,1/2+y,1/2-z
3 -x,-y,-z
4 x,1/2-y,1/2+z
_cell_length_a                   10.8191(2)
_cell_length_b                   14.4432(4)
_cell_length_c                   10.2735(3)
_cell_angle_alpha                90
_cell_angle_beta                 98.5040(10)
_cell_angle_gamma                90
_cell_volume                     1587.71
loop_
_atom_site_label
_atom_site_type_symbol
_atom_site_fract_x
_atom_site_fract_y
_atom_site_fract_z
Cd1 Cd 0.346644(13) 0.392669(10) 0.055347(14)
C1 C 0.50329(18) 0.23849(13) 0.22684(19)
C2 C 0.57434(18) 0.19272(14) 0.3321(2)
C3 C 0.6509(2) 0.33105(16) 0.4141(2)
H1 H 0.7048 0.3652 0.4748
C4 C 0.5728(2) 0.37778(15) 0.3172(2)
H2 H 0.5707 0.4422 0.3179
C5 C 0.43188(19) 0.18747(13) 0.10968(19)
C6 C 0.56298(19) 0.09010(14) 0.36120(19)
C7 C 0.1948(2) 0.42505(18) -0.2402(2)
H3 H 0.2758 0.4307 -0.2593
C8 C 0.0962(3) 0.4352(2) -0.3407(3)
H4 H 0.1103 0.4453 -0.4267
C9 C -0.0230(3) 0.4302(2) -0.3112(3)
H5 H -0.0910 0.4390 -0.3767
C10 C -0.0413(2) 0.41189(18) -0.1834(3)
H6 H -0.1218 0.4084 -0.1621
C11 C 0.0612(2) 0.39889(14) -0.0874(2)
C12 C 0.0492(2) 0.37229(15) 0.0508(2)
C13 C -0.0668(2) 0.3560(2) 0.0892(3)
H7 H -0.1397 0.3626 0.0295
C14 C -0.0719(3) 0.3301(2) 0.2173(3)
H8 H -0.1486 0.3195 0.2451
C15 C 0.0370(3) 0.32003(18) 0.3036(3)
H9 H 0.0350 0.3032 0.3907
C16 C 0.1492(3) 0.33528(16) 0.2590(2)
H10 H 0.2230 0.3269 0.3168
O1 O 0.36431(15) 0.23492(11) 0.02478(16)
O3 O 0.44974(17) 0.10257(9) 0.10672(16)
O4 O 0.46278(13) 0.06441(10) 0.39495(14)
O5 O 0.65638(14) 0.03913(10) 0.35480(17)
N1 N 0.50048(16) 0.33137(12) 0.22274(16)
N2 N 0.65200(16) 0.23908(13) 0.42394(19)
N3 N 0.17825(16) 0.40728(12) -0.11568(18)
N4 N 0.15584(17) 0.36169(13) 0.13524(18)
Cd1C Cd 0.346644(13) 0.107331(10) 0.555347(14)
Cd1A Cd 0.653356(13) -0.107331(10) 0.444653(14)
O4C O 0.46278(13) 0.43559(10) -0.10505(14)
O5A O 0.34362(14) 0.53913(10) 0.14520(17)
O2 O 0.29359(19) 0.00916(14) -0.0853(2)
H11 H 0.347(2) 0.039(2) -0.034(3)
H12 H 0.331(3) -0.005(2) -0.147(2)
loop_
_geom_bond_atom_site_label_1
_geom_bond_atom_site_label_2
_geom_bond_site_symmetry_1
_geom_bond_site_symmetry_2
Cd1 O1 1_555 1_555
C1 C2 1_555 1_555
C2 C6 1_555 1_555
C3 H1 1_555 1_555
C4 C3 1_555 1_555
H2 C4 1_555 1_555
C5 C1 1_555 1_555
C6 O4 1_555 1_555
C7 H3 1_555 1_555
C8 C7 1_555 1_555
H4 C8 1_555 1_555
C9 C8 1_555 1_555
H5 C9 1_555 1_555
C10 C9 1_555 1_555
H6 C10 1_555 1_555
C11 C10 1_555 1_555
C12 C11 1_555 1_555
C13 C12 1_555 1_555
H7 C13 1_555 1_555
C14 C13 1_555 1_555
H8 C14 1_555 1_555
C15 C14 1_555 1_555
H9 C15 1_555 1_555
C16 C15 1_555 1_555
H10 C16 1_555 1_555
O1 C5 1_555 1_555
O2 H11 1_555 1_555
H12 O2 1_555 1_555
O3 C5 1_555 1_555
O4 Cd1C 1_555 1_555
O5 C6 1_555 1_555
N1 Cd1 1_555 1_555
N2 C2 1_555 1_555
N3 Cd1 1_555 1_555
N4 Cd1 1_555 1_555
Cd1A O5 1_555 1_555
O4C Cd1 1_555 1_555
O5A Cd1 1_555 1_555
C1 N1 1_555 1_555
C3 N2 1_555 1_555
C4 N1 1_555 1_555
C7 N3 1_555 1_555
C11 N3 1_555 1_555
C12 N4 1_555 1_555
C16 N4 1_555 1_555

#END
