
#######################################################################
#
#                 Cambridge Crystallographic Data Centre
#                                CCDC 
#
#######################################################################
#
# If this CIF has been generated from an entry in the Cambridge 
# Structural Database, then it will include bibliographic, chemical, 
# crystal, experimental, refinement or atomic coordinate data resulting 
# from the CCDC's data processing and validation procedures.
#
#######################################################################

data_TOKCEC
_symmetry_cell_setting           monoclinic
_symmetry_space_group_name_H-M   'C 2/c'
_symmetry_Int_Tables_number      15
_space_group_name_Hall           '-C 2yn'
loop_
_symmetry_equiv_pos_site_id
_symmetry_equiv_pos_as_xyz
1 x,y,z
2 1/2+x,1/2+y,z
3 -x,y,1/2-z
4 1/2-x,1/2+y,1/2-z
5 -x,-y,-z
6 1/2-x,1/2-y,-z
7 x,-y,1/2+z
8 1/2+x,1/2-y,1/2+z
_cell_length_a                   18.317(4)
_cell_length_b                   7.9741(17)
_cell_length_c                   26.272(5)
_cell_angle_alpha                90
_cell_angle_beta                 102.499(3)
_cell_angle_gamma                90
_cell_volume                     3746.38
loop_
_atom_site_label
_atom_site_type_symbol
_atom_site_fract_x
_atom_site_fract_y
_atom_site_fract_z
Co1 Co 0.5000 0.27780(9) 0.7500
O4 O 0.5000 0.5393(5) 0.7500
H1 H 0.4745 0.5735 0.7699
O5 O 0.5000 0.0194(5) 0.7500
H2 H 0.4797 -0.0149 0.7729
N1 N 0.44752(17) 0.2863(4) 0.66834(11)
N2 N 0.42314(18) 0.2653(5) 0.58127(12)
N3 N 0.36577(17) 0.3434(4) 0.59697(11)
N4 N 0.12720(16) 0.6105(4) 0.45423(11)
N5 N 0.29657(16) 0.7215(4) 0.30667(11)
N6 N 0.27755(18) 0.8455(5) 0.27052(12)
N7 N 0.39002(16) 0.7324(4) 0.26727(11)
C1 C 0.4697(2) 0.2343(6) 0.62525(15)
H3 H 0.5150 0.1800 0.6268
C2 C 0.3819(2) 0.3546(5) 0.64847(14)
H4 H 0.3510 0.4040 0.6681
C3 C 0.24803(19) 0.5235(5) 0.47769(13)
C4 C 0.30978(19) 0.4541(5) 0.51139(13)
H5 H 0.3550 0.4406 0.5012
C5 C 0.3019(2) 0.4059(5) 0.56037(13)
C6 C 0.2341(2) 0.4185(5) 0.57580(15)
H6 H 0.2303 0.3815 0.6087
C7 C 0.1725(2) 0.4852(5) 0.54261(15)
H7 H 0.1270 0.4944 0.5527
C8 C 0.1798(2) 0.5387(5) 0.49367(14)
C9 C 0.23562(19) 0.5890(5) 0.42545(13)
C10 C 0.2810(2) 0.6144(5) 0.39017(13)
H8 H 0.3311 0.5829 0.3983
C11 C 0.2505(2) 0.6867(5) 0.34296(14)
C12 C 0.1754(2) 0.7320(5) 0.32956(15)
H9 H 0.1560 0.7774 0.2968
C13 C 0.1297(2) 0.7104(5) 0.36407(15)
H10 H 0.0797 0.7418 0.3554
C14 C 0.16028(19) 0.6404(5) 0.41237(13)
C15 C 0.0486(2) 0.6284(6) 0.45396(16)
H11 H 0.0329 0.5329 0.4718
H12 H 0.0206 0.6256 0.4181
C16 C 0.0290(3) 0.7848(7) 0.4789(2)
H13 H -0.0239 0.7874 0.4772
H14 H 0.0430 0.8804 0.4609
H15 H 0.0553 0.7876 0.5147
C17 C 0.3362(2) 0.8465(6) 0.24836(16)
H16 H 0.3400 0.9204 0.2217
C18 C 0.3624(2) 0.6564(5) 0.30391(14)
H17 H 0.3859 0.5694 0.3248
Co1F Co 0.5000 0.72220(9) 0.2500
Co1F_2 Co 0.5000 0.72220(9) 1.2500
H1B H 0.5255 0.5735 0.7301
H2B H 0.5203 -0.0149 0.7271
N1F N 0.44752(17) 0.7137(4) 1.16834(11)
N1B N 0.55248(17) 0.2863(4) 0.83166(11)
N2F N 0.42314(18) 0.7347(5) 1.08127(12)
N3F N 0.36577(17) 0.6566(4) 1.09697(11)
N4F N 0.12720(16) 0.3895(4) 0.95423(11)
N5F N 0.29657(16) 0.2785(4) 0.80667(11)
N6F N 0.27755(18) 0.1545(5) 0.77052(12)
N7F N 0.39002(16) 0.2676(4) 0.76727(11)
N7D N 0.60998(16) 0.2676(4) 0.73273(11)
C1F C 0.4697(2) 0.7657(6) 1.12525(15)
H3F H 0.5150 0.8200 1.1268
C2F C 0.3819(2) 0.6454(5) 1.14847(14)
H4F H 0.3510 0.5960 1.1681
C3F C 0.24803(19) 0.4765(5) 0.97769(13)
C4F C 0.30978(19) 0.5459(5) 1.01139(13)
H5F H 0.3550 0.5594 1.0012
C5F C 0.3019(2) 0.5941(5) 1.06037(13)
C6F C 0.2341(2) 0.5815(5) 1.07580(15)
H6F H 0.2303 0.6185 1.1087
C7F C 0.1725(2) 0.5148(5) 1.04261(15)
H7F H 0.1270 0.5056 1.0527
C8F C 0.1798(2) 0.4613(5) 0.99367(14)
C9F C 0.23562(19) 0.4110(5) 0.92545(13)
C10F C 0.2810(2) 0.3856(5) 0.89017(13)
H8F H 0.3311 0.4171 0.8983
C11F C 0.2505(2) 0.3133(5) 0.84296(14)
C12F C 0.1754(2) 0.2680(5) 0.82956(15)
H9F H 0.1560 0.2226 0.7968
C13F C 0.1297(2) 0.2896(5) 0.86407(15)
H10F H 0.0797 0.2582 0.8554
C14F C 0.16028(19) 0.3596(5) 0.91237(13)
C15F C 0.0486(2) 0.3716(6) 0.95396(16)
H11F H 0.0329 0.4671 0.9718
H12F H 0.0206 0.3744 0.9181
C16F C 0.0290(3) 0.2152(7) 0.9789(2)
H13F H -0.0239 0.2126 0.9772
H14F H 0.0430 0.1196 0.9609
H15F H 0.0553 0.2124 1.0147
C17F C 0.3362(2) 0.1535(6) 0.74836(16)
H16F H 0.3400 0.0796 0.7217
C18F C 0.3624(2) 0.3436(5) 0.80391(14)
H17F H 0.3859 0.4306 0.8248
O1 O 0.4348(2) 0.7767(4) 0.79813(14)
O2 O 0.3935(3) 0.6888(6) 0.86277(17)
O3 O 0.39981(19) 0.9480(5) 0.85062(13)
N8 N 0.4087(2) 0.8016(5) 0.83741(14)
loop_
_geom_bond_atom_site_label_1
_geom_bond_atom_site_label_2
_geom_bond_site_symmetry_1
_geom_bond_site_symmetry_2
Co1 O4 1_555 1_555
O1 N8 1_555 1_555
O2 N8 1_555 1_555
O3 N8 1_555 1_555
O4 H1 1_555 1_555
O5 Co1 1_555 1_555
H2 O5 1_555 1_555
N1 Co1 1_555 1_555
N2 N3 1_555 1_555
N3 C2 1_555 1_555
N4 C8 1_555 1_555
N5 N6 1_555 1_555
N6 C17 1_555 1_555
N7 C17 1_555 1_555
C1 N1 1_555 1_555
H3 C1 1_555 1_555
C2 N1 1_555 1_555
H4 C2 1_555 1_555
C3 C4 1_555 1_555
C4 H5 1_555 1_555
C5 N3 1_555 1_555
C6 C5 1_555 1_555
H6 C6 1_555 1_555
C7 C6 1_555 1_555
H7 C7 1_555 1_555
C8 C3 1_555 1_555
C9 C3 1_555 1_555
C10 C9 1_555 1_555
H8 C10 1_555 1_555
C11 N5 1_555 1_555
C12 C11 1_555 1_555
H9 C12 1_555 1_555
C13 C12 1_555 1_555
H10 C13 1_555 1_555
C14 N4 1_555 1_555
C15 N4 1_555 1_555
H11 C15 1_555 1_555
H12 C15 1_555 1_555
C16 C15 1_555 1_555
H13 C16 1_555 1_555
H14 C16 1_555 1_555
H15 C16 1_555 1_555
C17 H16 1_555 1_555
C18 N5 1_555 1_555
H17 C18 1_555 1_555
Co1F N7 1_555 1_555
Co1F_2 N1F 1_555 1_555
H1B O4 1_555 1_555
H2B O5 1_555 1_555
N1F C1F 1_555 1_555
N1B Co1 1_555 1_555
N2F N3F 1_555 1_555
N3F C2F 1_555 1_555
N4F C8F 1_555 1_555
N5F N6F 1_555 1_555
N6F C17F 1_555 1_555
N7F Co1 1_555 1_555
N7D Co1 1_555 1_555
C1F N2F 1_555 1_555
H3F C1F 1_555 1_555
C2F N1F 1_555 1_555
H4F C2F 1_555 1_555
C3F C4F 1_555 1_555
C4F H5F 1_555 1_555
C5F N3F 1_555 1_555
C6F C5F 1_555 1_555
H6F C6F 1_555 1_555
C7F C6F 1_555 1_555
H7F C7F 1_555 1_555
C8F C3F 1_555 1_555
C9F C3F 1_555 1_555
C10F C9F 1_555 1_555
H8F C10F 1_555 1_555
C11F N5F 1_555 1_555
C12F C11F 1_555 1_555
H9F C12F 1_555 1_555
C13F C12F 1_555 1_555
H10F C13F 1_555 1_555
C14F N4F 1_555 1_555
C15F N4F 1_555 1_555
H11F C15F 1_555 1_555
H12F C15F 1_555 1_555
C16F C15F 1_555 1_555
H13F C16F 1_555 1_555
H14F C16F 1_555 1_555
H15F C16F 1_555 1_555
C17F N7F 1_555 1_555
H16F C17F 1_555 1_555
C18F N5F 1_555 1_555
H17F C18F 1_555 1_555
N2 C1 1_555 1_555
N7 C18 1_555 1_555
C4 C5 1_555 1_555
C7 C8 1_555 1_555
C9 C14 1_555 1_555
C10 C11 1_555 1_555
C13 C14 1_555 1_555
N7F C18F 1_555 1_555
C4F C5F 1_555 1_555
C7F C8F 1_555 1_555
C9F C14F 1_555 1_555
C10F C11F 1_555 1_555
C13F C14F 1_555 1_555

#END
