
#######################################################################
#
#                 Cambridge Crystallographic Data Centre
#                                CCDC 
#
#######################################################################
#
# If this CIF has been generated from an entry in the Cambridge 
# Structural Database, then it will include bibliographic, chemical, 
# crystal, experimental, refinement or atomic coordinate data resulting 
# from the CCDC's data processing and validation procedures.
#
#######################################################################

data_TOKCUT
_symmetry_cell_setting           monoclinic
_symmetry_space_group_name_H-M   'C 2/c'
_symmetry_Int_Tables_number      15
_space_group_name_Hall           '-C 2yn'
loop_
_symmetry_equiv_pos_site_id
_symmetry_equiv_pos_as_xyz
1 x,y,z
2 -x,y,1/2-z
3 1/2+x,1/2+y,z
4 1/2-x,1/2+y,1/2-z
5 -x,-y,-z
6 x,-y,1/2+z
7 1/2-x,1/2-y,-z
8 1/2+x,1/2-y,1/2+z
_cell_length_a                   16.6490(8)
_cell_length_b                   6.4457(3)
_cell_length_c                   11.5438(6)
_cell_angle_alpha                90
_cell_angle_beta                 116.772(2)
_cell_angle_gamma                90
_cell_volume                     1106.02
loop_
_atom_site_label
_atom_site_type_symbol
_atom_site_fract_x
_atom_site_fract_y
_atom_site_fract_z
Sn1 Sn 0.5000 0.13504(3) 0.2500
C1 C 0.35701(18) 0.1258(3) 0.1538(3)
H1 H 0.3343 0.2589 0.1703
H2 H 0.3376 0.1174 0.0593
C2 C 0.31172(17) -0.0495(4) 0.1905(3)
H3 H 0.3245 -0.0336 0.2825
H4 H 0.3374 -0.1836 0.1816
C3 C 0.21034(18) -0.0522(5) 0.1060(3)
H5 H 0.1845 0.0790 0.1163
H6 H 0.1839 -0.1675 0.1325
H7 H 0.1974 -0.0698 0.0150
O1 O 0.50631(12) -0.1538(2) 0.38012(17)
C4 C 0.50270(17) -0.1155(3) 0.4836(2)
O2 O 0.50337(11) -0.2472(3) 0.56400(15)
O3 O 0.5000 0.4860(4) 0.2500
H8 H 0.5017 0.5767 0.3170
O1D O 0.49369(12) 0.1538(2) 0.61988(17)
C4D C 0.49730(17) 0.1155(3) 0.5164(2)
O2D O 0.49663(11) 0.2472(3) 0.43600(15)
H8A H 0.4983 0.5767 0.1830
C1A C 0.64299(18) 0.1258(3) 0.3462(3)
H1A H 0.6657 0.2589 0.3297
H2A H 0.6624 0.1174 0.4407
C2A C 0.68828(17) -0.0495(4) 0.3095(3)
H3A H 0.6755 -0.0336 0.2175
H4A H 0.6626 -0.1836 0.3184
C3A C 0.78966(18) -0.0522(5) 0.3940(3)
H5A H 0.8155 0.0790 0.3837
H6A H 0.8161 -0.1675 0.3675
H7A H 0.8026 -0.0698 0.4850
Sn1D Sn 0.5000 -0.13504(3) 0.7500
O1A O 0.49369(12) -0.1538(2) 0.11988(17)
O2E O 0.50337(11) 0.2472(3) 0.06400(15)
loop_
_geom_bond_atom_site_label_1
_geom_bond_atom_site_label_2
_geom_bond_site_symmetry_1
_geom_bond_site_symmetry_2
Sn1 C1 1_555 1_555
C1 H1 1_555 1_555
H2 C1 1_555 1_555
C2 C1 1_555 1_555
H3 C2 1_555 1_555
H4 C2 1_555 1_555
C3 C2 1_555 1_555
H5 C3 1_555 1_555
H6 C3 1_555 1_555
H7 C3 1_555 1_555
O1 Sn1 1_555 1_555
C4 O1 1_555 1_555
O2 C4 1_555 1_555
O3 Sn1 1_555 1_555
H8 O3 1_555 1_555
O1D C4D 1_555 1_555
C4D C4 1_555 1_555
O2D Sn1 1_555 1_555
H8A O3 1_555 1_555
C1A Sn1 1_555 1_555
H1A C1A 1_555 1_555
H2A C1A 1_555 1_555
C2A C1A 1_555 1_555
H3A C2A 1_555 1_555
H4A C2A 1_555 1_555
C3A C2A 1_555 1_555
H5A C3A 1_555 1_555
H6A C3A 1_555 1_555
H7A C3A 1_555 1_555
Sn1D O2 1_555 1_555
O1A Sn1 1_555 1_555
O2E Sn1 1_555 1_555
O1D Sn1D 1_555 1_555
C4D O2D 1_555 1_555

#END
