
#######################################################################
#
#                 Cambridge Crystallographic Data Centre
#                                CCDC 
#
#######################################################################
#
# If this CIF has been generated from an entry in the Cambridge 
# Structural Database, then it will include bibliographic, chemical, 
# crystal, experimental, refinement or atomic coordinate data resulting 
# from the CCDC's data processing and validation procedures.
#
#######################################################################

data_TOKCON
_symmetry_cell_setting           triclinic
_symmetry_space_group_name_H-M   'P -1'
_symmetry_Int_Tables_number      2
_space_group_name_Hall           '-P 1'
loop_
_symmetry_equiv_pos_site_id
_symmetry_equiv_pos_as_xyz
1 x,y,z
2 -x,-y,-z
_cell_length_a                   10.0618(3)
_cell_length_b                   10.1653(3)
_cell_length_c                   27.0304(11)
_cell_angle_alpha                87.163(1)
_cell_angle_beta                 85.001(1)
_cell_angle_gamma                66.509(1)
_cell_volume                     2525.6
loop_
_atom_site_label
_atom_site_type_symbol
_atom_site_fract_x
_atom_site_fract_y
_atom_site_fract_z
Cd1 Cd 0.5000 0.0000 0.0000
Cd2 Cd 0.0000 0.5000 0.5000
O1 O 0.3460(6) -0.1203(6) 0.0086(2)
H1 H 0.3454 -0.1900 0.0278
H2 H 0.2884 -0.1118 -0.0131
O2 O -0.1216(6) 0.3462(6) 0.5004(2)
H3 H -0.1082 0.3017 0.4730
H4 H -0.2117 0.3834 0.5072
N1 N 0.3004(7) 0.2155(7) 0.0113(2)
N2 N 0.0329(7) 0.4706(7) 0.4130(2)
C1 C 0.1756(9) 0.2138(9) 0.0360(3)
H5 H 0.1650 0.1248 0.0382
C2 C 0.0667(9) 0.3284(9) 0.0576(3)
H6 H -0.0160 0.3170 0.0736
C3 C 0.0737(9) 0.4624(9) 0.0566(3)
C4 C 0.1981(9) 0.4690(9) 0.0313(3)
H7 H 0.2094 0.5576 0.0286
C5 C 0.3048(9) 0.3478(9) 0.0101(3)
H8 H 0.3877 0.3574 -0.0065
C6 C -0.0347(9) 0.5862(9) 0.0839(3)
H9 H -0.1276 0.5737 0.0889
H10 H -0.0518 0.6745 0.0636
C7 C 0.0128(9) 0.6049(9) 0.1346(3)
H11 H 0.1061 0.6168 0.1298
H12 H -0.0607 0.6929 0.1502
C8 C 0.0311(10) 0.4762(9) 0.1694(3)
H13 H 0.1180 0.3924 0.1574
H14 H -0.0545 0.4516 0.1686
C9 C 0.0473(10) 0.5069(9) 0.2231(3)
H15 H 0.1307 0.5349 0.2237
H16 H -0.0413 0.5883 0.2356
C10 C 0.0710(10) 0.3759(9) 0.2574(3)
H17 H -0.0020 0.3368 0.2517
H18 H 0.1684 0.3007 0.2485
C11 C 0.0598(10) 0.4099(9) 0.3123(3)
C12 C 0.1818(10) 0.3809(9) 0.3390(3)
H19 H 0.2769 0.3403 0.3231
C13 C 0.1614(9) 0.4124(8) 0.3887(3)
H20 H 0.2450 0.3909 0.4066
C14 C -0.0851(9) 0.5015(9) 0.3870(3)
H21 H -0.1787 0.5442 0.4040
C15 C -0.0759(10) 0.4739(9) 0.3371(3)
H22 H -0.1615 0.4986 0.3201
N3 N 0.5191(8) -0.0094(8) 0.0862(2)
N4 N 0.7871(7) -0.3004(6) 0.4863(2)
C16 C 0.5874(9) -0.1351(9) 0.1092(3)
H23 H 0.6121 -0.2209 0.0914
C17 C 0.6240(10) -0.1453(10) 0.1584(3)
H24 H 0.6703 -0.2368 0.1736
C18 C 0.5927(10) -0.0224(10) 0.1847(3)
C19 C 0.5167(10) 0.1083(10) 0.1611(3)
H25 H 0.4871 0.1955 0.1784
C20 C 0.4851(10) 0.1102(10) 0.1130(3)
H26 H 0.4364 0.2006 0.0974
C21 C 0.6337(10) -0.0278(11) 0.2377(3)
H27 H 0.7225 -0.1151 0.2425
H28 H 0.6561 0.0565 0.2432
C22 C 0.5147(10) -0.0287(11) 0.2752(3)
H29 H 0.5032 -0.1204 0.2728
H30 H 0.4224 0.0498 0.2667
C23 C 0.5406(9) -0.0109(10) 0.3284(3)
H31 H 0.5551 0.0793 0.3307
H32 H 0.6309 -0.0912 0.3374
C24 C 0.4158(9) -0.0072(9) 0.3655(3)
H33 H 0.4124 -0.1034 0.3675
H34 H 0.3230 0.0614 0.3533
C25 C 0.4299(9) 0.0364(9) 0.4179(3)
H35 H 0.4452 0.1270 0.4156
H36 H 0.3382 0.0543 0.4385
C26 C 0.5540(9) -0.0769(9) 0.4432(3)
C27 C 0.5365(9) -0.1941(9) 0.4666(3)
H37 H 0.4445 -0.2005 0.4685
C28 C 0.6524(9) -0.3010(9) 0.4870(3)
H38 H 0.6373 -0.3803 0.5026
C29 C 0.8012(9) -0.1840(9) 0.4630(3)
H39 H 0.8939 -0.1793 0.4608
C30 C 0.6890(9) -0.0734(9) 0.4424(3)
H40 H 0.7050 0.0062 0.4276
O2A O 0.1216(6) 0.6538(6) 0.4996(2)
H3A H 0.1082 0.6983 0.5270
H4A H 0.2117 0.6166 0.4928
N1A N -0.3004(7) 0.7845(7) 0.9887(2)
N2A N -0.0329(7) 0.5294(7) 0.5870(2)
C1A C -0.1756(9) 0.7862(9) 0.9640(3)
H5A H -0.1650 0.8752 0.9618
C2A C -0.0667(9) 0.6716(9) 0.9424(3)
H6A H 0.0160 0.6830 0.9264
C3A C -0.0737(9) 0.5376(9) 0.9434(3)
C4A C -0.1981(9) 0.5310(9) 0.9687(3)
H7A H -0.2094 0.4424 0.9714
C5A C -0.3048(9) 0.6522(9) 0.9899(3)
H8A H -0.3877 0.6426 1.0065
C6A C 0.0347(9) 0.4138(9) 0.9161(3)
H9A H 0.1276 0.4263 0.9111
H10A H 0.0518 0.3255 0.9364
C7A C -0.0128(9) 0.3951(9) 0.8654(3)
H11A H -0.1061 0.3832 0.8702
H12A H 0.0607 0.3071 0.8498
C8A C -0.0311(10) 0.5238(9) 0.8306(3)
H13A H -0.1180 0.6076 0.8426
H14A H 0.0545 0.5484 0.8314
C9A C -0.0473(10) 0.4931(9) 0.7769(3)
H15A H -0.1307 0.4651 0.7763
H16A H 0.0413 0.4117 0.7644
C10A C -0.0710(10) 0.6241(9) 0.7426(3)
H17A H 0.0020 0.6632 0.7483
H18A H -0.1684 0.6993 0.7515
C11A C -0.0598(10) 0.5901(9) 0.6877(3)
C12A C -0.1818(10) 0.6191(9) 0.6610(3)
H19A H -0.2769 0.6597 0.6769
C13A C -0.1614(9) 0.5876(8) 0.6113(3)
H20A H -0.2450 0.6091 0.5934
C14A C 0.0851(9) 0.4985(9) 0.6130(3)
H21A H 0.1787 0.4558 0.5960
C15A C 0.0759(10) 0.5261(9) 0.6629(3)
H22A H 0.1615 0.5014 0.6799
N3A N 0.4809(8) 0.0094(8) -0.0862(2)
N4A N 0.2129(7) 0.3004(6) -0.4863(2)
C16A C 0.4126(9) 0.1351(9) -0.1092(3)
H23A H 0.3879 0.2209 -0.0914
C17A C 0.3760(10) 0.1453(10) -0.1584(3)
H24A H 0.3297 0.2368 -0.1736
C18A C 0.4073(10) 0.0224(10) -0.1847(3)
C19A C 0.4833(10) -0.1083(10) -0.1611(3)
H25A H 0.5129 -0.1955 -0.1784
C20A C 0.5149(10) -0.1102(10) -0.1130(3)
H26A H 0.5636 -0.2006 -0.0974
C21A C 0.3663(10) 0.0278(11) -0.2377(3)
H27A H 0.2775 0.1151 -0.2425
H28A H 0.3439 -0.0565 -0.2432
C22A C 0.4853(10) 0.0287(11) -0.2752(3)
H29A H 0.4968 0.1204 -0.2728
H30A H 0.5776 -0.0498 -0.2667
C23A C 0.4594(9) 0.0109(10) -0.3284(3)
H31A H 0.4449 -0.0793 -0.3307
H32A H 0.3691 0.0912 -0.3374
C24A C 0.5842(9) 0.0072(9) -0.3655(3)
H33A H 0.5876 0.1034 -0.3675
H34A H 0.6770 -0.0614 -0.3533
C25A C 0.5701(9) -0.0364(9) -0.4179(3)
H35A H 0.5548 -0.1270 -0.4156
H36A H 0.6618 -0.0543 -0.4385
C26A C 0.4460(9) 0.0769(9) -0.4432(3)
C27A C 0.4635(9) 0.1941(9) -0.4666(3)
H37A H 0.5555 0.2005 -0.4685
C28A C 0.3476(9) 0.3010(9) -0.4870(3)
H38A H 0.3627 0.3803 -0.5026
C29A C 0.1988(9) 0.1840(9) -0.4630(3)
H39A H 0.1061 0.1793 -0.4608
C30A C 0.3110(9) 0.0734(9) -0.4424(3)
H40A H 0.2950 -0.0062 -0.4276
O1A O 0.6540(6) 0.1203(6) -0.0086(2)
H1A H 0.6546 0.1900 -0.0278
H2A H 0.7116 0.1118 0.0131
Cd1_2 Cd -0.5000 1.0000 1.0000
Cd2_2 Cd 0.0000 0.5000 -0.5000
Cd2_3 Cd 1.0000 -0.5000 0.5000
N1A_2 N 0.6996(7) -0.2155(7) -0.0113(2)
N4_2 N -0.2129(7) 0.6996(6) 0.4863(2)
N4A_2 N 0.2129(7) 0.3004(6) 0.5137(2)
N5 N -0.0493(8) 1.1537(9) 0.4252(3)
N6 N -0.1723(9) 1.0904(9) 0.0658(3)
C31 C -0.1172(10) 1.1686(10) 0.3835(4)
H41 H -0.1875 1.2604 0.3752
C32 C -0.0885(10) 1.0542(10) 0.3516(3)
H42 H -0.1425 1.0686 0.3232
C33 C 0.0188(9) 0.9194(9) 0.3613(3)
C34 C 0.0963(9) 0.9043(9) 0.4046(3)
H43 H 0.1717 0.8157 0.4129
C35 C 0.0566(10) 1.0247(10) 0.4341(3)
H44 H 0.1086 1.0150 0.4627
C36 C 0.0541(10) 0.7921(9) 0.3294(3)
H45 H -0.0241 0.8133 0.3066
H46 H 0.0564 0.7095 0.3508
C37 C 0.1996(10) 0.7500(9) 0.2985(3)
H47 H 0.2780 0.7279 0.3212
H48 H 0.2185 0.6617 0.2802
C38 C 0.2050(10) 0.8652(11) 0.2619(3)
H49 H 0.3044 0.8338 0.2455
H50 H 0.1855 0.9536 0.2803
C39 C 0.0965(10) 0.9005(10) 0.2218(3)
H51 H -0.0037 0.9424 0.2376
H52 H 0.1091 0.8110 0.2053
C40 C 0.1180(11) 1.0081(10) 0.1822(3)
H53 H 0.1001 1.0996 0.1983
H54 H 0.2196 0.9686 0.1676
C41 C 0.0166(9) 1.0358(9) 0.1418(3)
C42 C -0.1188(10) 1.1552(10) 0.1427(4)
H55 H -0.1468 1.2201 0.1694
C43 C -0.2088(11) 1.1779(10) 0.1058(4)
H56 H -0.3002 1.2572 0.1078
C44 C -0.0463(10) 0.9765(9) 0.0655(3)
H57 H -0.0214 0.9120 0.0387
C45 C 0.0528(10) 0.9460(9) 0.1029(3)
H58 H 0.1424 0.8646 0.1007
Cl1 Cl 0.5093(2) 0.4849(2) 0.40637(8)
O3 O 0.3649(6) 0.5756(7) 0.4264(2)
O4 O 0.5991(7) 0.4198(8) 0.4469(3)
O5 O 0.5694(8) 0.5707(8) 0.3756(2)
O6 O 0.4995(7) 0.3747(7) 0.3767(2)
Cl2 Cl 0.4508(3) 0.5691(2) 0.11401(9)
O7 O 0.4223(8) 0.4435(7) 0.1242(3)
O8 O 0.3993(8) 0.6319(8) 0.0671(3)
O9 O 0.3709(9) 0.6750(9) 0.1517(3)
O10 O 0.6020(7) 0.5384(7) 0.1153(3)
C46 C 0.6037(12) 0.5405(12) 0.2465(4)
H59 H 0.5424 0.6134 0.2239
H60 H 0.7062 0.5157 0.2356
H61 H 0.5840 0.5783 0.2802
C47 C 0.5708(14) 0.4094(12) 0.2460(4)
H62 H 0.4658 0.4369 0.2550
H63 H 0.5916 0.3719 0.2119
O11 O 0.6511(11) 0.2977(9) 0.2790(3)
H64 H 0.6325 0.3277 0.3082
loop_
_geom_bond_atom_site_label_1
_geom_bond_atom_site_label_2
_geom_bond_site_symmetry_1
_geom_bond_site_symmetry_2
Cd1 O1 1_555 1_555
Cd2 O2 1_555 1_555
O1 H1 1_555 1_555
H2 O1 1_555 1_555
O2 H3 1_555 1_555
H4 O2 1_555 1_555
N1 Cd1 1_555 1_555
N2 Cd2 1_555 1_555
C1 N1 1_555 1_555
H5 C1 1_555 1_555
C2 C1 1_555 1_555
H6 C2 1_555 1_555
C3 C2 1_555 1_555
C4 C3 1_555 1_555
H7 C4 1_555 1_555
C5 N1 1_555 1_555
H8 C5 1_555 1_555
C6 C3 1_555 1_555
H9 C6 1_555 1_555
H10 C6 1_555 1_555
C7 C6 1_555 1_555
H11 C7 1_555 1_555
H12 C7 1_555 1_555
C8 C7 1_555 1_555
H13 C8 1_555 1_555
H14 C8 1_555 1_555
C9 C8 1_555 1_555
H15 C9 1_555 1_555
H16 C9 1_555 1_555
C10 C9 1_555 1_555
H17 C10 1_555 1_555
H18 C10 1_555 1_555
C11 C10 1_555 1_555
C12 C11 1_555 1_555
H19 C12 1_555 1_555
C13 N2 1_555 1_555
H20 C13 1_555 1_555
C14 N2 1_555 1_555
H21 C14 1_555 1_555
C15 C11 1_555 1_555
H22 C15 1_555 1_555
N3 Cd1 1_555 1_555
N4 C28 1_555 1_555
C16 N3 1_555 1_555
H23 C16 1_555 1_555
C17 C16 1_555 1_555
H24 C17 1_555 1_555
C18 C17 1_555 1_555
C19 C18 1_555 1_555
H25 C19 1_555 1_555
C20 N3 1_555 1_555
H26 C20 1_555 1_555
C21 C18 1_555 1_555
H27 C21 1_555 1_555
H28 C21 1_555 1_555
C22 C21 1_555 1_555
H29 C22 1_555 1_555
H30 C22 1_555 1_555
C23 C22 1_555 1_555
H31 C23 1_555 1_555
H32 C23 1_555 1_555
C24 C23 1_555 1_555
H33 C24 1_555 1_555
H34 C24 1_555 1_555
C25 C24 1_555 1_555
H35 C25 1_555 1_555
H36 C25 1_555 1_555
C26 C25 1_555 1_555
C27 C26 1_555 1_555
H37 C27 1_555 1_555
C28 C27 1_555 1_555
H38 C28 1_555 1_555
C29 N4 1_555 1_555
H39 C29 1_555 1_555
C30 C26 1_555 1_555
H40 C30 1_555 1_555
N5 C31 1_555 1_555
N6 C43 1_555 1_555
C31 H41 1_555 1_555
C32 C31 1_555 1_555
H42 C32 1_555 1_555
C33 C32 1_555 1_555
C34 C33 1_555 1_555
H43 C34 1_555 1_555
C35 N5 1_555 1_555
H44 C35 1_555 1_555
C36 C33 1_555 1_555
H45 C36 1_555 1_555
H46 C36 1_555 1_555
C37 C36 1_555 1_555
H47 C37 1_555 1_555
H48 C37 1_555 1_555
C38 C37 1_555 1_555
H49 C38 1_555 1_555
H50 C38 1_555 1_555
C39 C38 1_555 1_555
H51 C39 1_555 1_555
H52 C39 1_555 1_555
C40 C39 1_555 1_555
H53 C40 1_555 1_555
H54 C40 1_555 1_555
C41 C40 1_555 1_555
C42 C41 1_555 1_555
H55 C42 1_555 1_555
C43 C42 1_555 1_555
H56 C43 1_555 1_555
C44 N6 1_555 1_555
H57 C44 1_555 1_555
C45 C41 1_555 1_555
H58 C45 1_555 1_555
Cl1 O3 1_555 1_555
O4 Cl1 1_555 1_555
O5 Cl1 1_555 1_555
O6 Cl1 1_555 1_555
Cl2 O7 1_555 1_555
O8 Cl2 1_555 1_555
O9 Cl2 1_555 1_555
O10 Cl2 1_555 1_555
C46 H59 1_555 1_555
H60 C46 1_555 1_555
H61 C46 1_555 1_555
C47 C46 1_555 1_555
H62 C47 1_555 1_555
H63 C47 1_555 1_555
O11 C47 1_555 1_555
H64 O11 1_555 1_555
O2A Cd2 1_555 1_555
H3A O2A 1_555 1_555
H4A O2A 1_555 1_555
N1A C1A 1_555 1_555
N2A Cd2 1_555 1_555
C1A H5A 1_555 1_555
C2A C1A 1_555 1_555
H6A C2A 1_555 1_555
C3A C2A 1_555 1_555
C4A C3A 1_555 1_555
H7A C4A 1_555 1_555
C5A N1A 1_555 1_555
H8A C5A 1_555 1_555
C6A C3A 1_555 1_555
H9A C6A 1_555 1_555
H10A C6A 1_555 1_555
C7A C6A 1_555 1_555
H11A C7A 1_555 1_555
H12A C7A 1_555 1_555
C8A C7A 1_555 1_555
H13A C8A 1_555 1_555
H14A C8A 1_555 1_555
C9A C8A 1_555 1_555
H15A C9A 1_555 1_555
H16A C9A 1_555 1_555
C10A C9A 1_555 1_555
H17A C10A 1_555 1_555
H18A C10A 1_555 1_555
C11A C10A 1_555 1_555
C12A C11A 1_555 1_555
H19A C12A 1_555 1_555
C13A N2A 1_555 1_555
H20A C13A 1_555 1_555
C14A N2A 1_555 1_555
H21A C14A 1_555 1_555
C15A C11A 1_555 1_555
H22A C15A 1_555 1_555
N3A Cd1 1_555 1_555
N4A C28A 1_555 1_555
C16A N3A 1_555 1_555
H23A C16A 1_555 1_555
C17A C16A 1_555 1_555
H24A C17A 1_555 1_555
C18A C17A 1_555 1_555
C19A C18A 1_555 1_555
H25A C19A 1_555 1_555
C20A N3A 1_555 1_555
H26A C20A 1_555 1_555
C21A C18A 1_555 1_555
H27A C21A 1_555 1_555
H28A C21A 1_555 1_555
C22A C21A 1_555 1_555
H29A C22A 1_555 1_555
H30A C22A 1_555 1_555
C23A C22A 1_555 1_555
H31A C23A 1_555 1_555
H32A C23A 1_555 1_555
C24A C23A 1_555 1_555
H33A C24A 1_555 1_555
H34A C24A 1_555 1_555
C25A C24A 1_555 1_555
H35A C25A 1_555 1_555
H36A C25A 1_555 1_555
C26A C25A 1_555 1_555
C27A C26A 1_555 1_555
H37A C27A 1_555 1_555
C28A C27A 1_555 1_555
H38A C28A 1_555 1_555
C29A N4A 1_555 1_555
H39A C29A 1_555 1_555
C30A C26A 1_555 1_555
H40A C30A 1_555 1_555
O1A Cd1 1_555 1_555
H1A O1A 1_555 1_555
H2A O1A 1_555 1_555
Cd1_2 N1A 1_555 1_555
Cd2_2 N4A 1_555 1_555
Cd2_3 N4 1_555 1_555
N1A_2 Cd1 1_555 1_555
N4_2 Cd2 1_555 1_555
N4A_2 Cd2 1_555 1_555
C4 C5 1_555 1_555
C12 C13 1_555 1_555
C14 C15 1_555 1_555
C19 C20 1_555 1_555
C29 C30 1_555 1_555
C34 C35 1_555 1_555
C44 C45 1_555 1_555
C4A C5A 1_555 1_555
C12A C13A 1_555 1_555
C14A C15A 1_555 1_555
C19A C20A 1_555 1_555
C29A C30A 1_555 1_555

#END
