
#######################################################################
#
#                 Cambridge Crystallographic Data Centre
#                                CCDC 
#
#######################################################################
#
# If this CIF has been generated from an entry in the Cambridge 
# Structural Database, then it will include bibliographic, chemical, 
# crystal, experimental, refinement or atomic coordinate data resulting 
# from the CCDC's data processing and validation procedures.
#
#######################################################################

data_TOKDED
_symmetry_cell_setting           monoclinic
_symmetry_space_group_name_H-M   'P 21/c'
_symmetry_Int_Tables_number      14
_space_group_name_Hall           '-P 2ybc'
loop_
_symmetry_equiv_pos_site_id
_symmetry_equiv_pos_as_xyz
1 x,y,z
2 -x,1/2+y,1/2-z
3 -x,-y,-z
4 x,1/2-y,1/2+z
_cell_length_a                   16.655(3)
_cell_length_b                   12.245(2)
_cell_length_c                   30.400(6)
_cell_angle_alpha                90
_cell_angle_beta                 92.057(2)
_cell_angle_gamma                90
_cell_volume                     6195.8
loop_
_atom_site_label
_atom_site_type_symbol
_atom_site_fract_x
_atom_site_fract_y
_atom_site_fract_z
Cd1 Cd 0.240426(19) 0.21881(3) 0.245950(11)
Cd2 Cd 0.849740(18) 0.27736(3) 0.463300(11)
Cd3 Cd 0.349670(18) 0.76803(3) 0.464150(11)
C1 C 0.1637(2) 0.3953(3) 0.35576(14)
C2 C 0.0918(2) 0.3626(3) 0.37287(14)
H1 H 0.0601 0.3119 0.3575
C3 C 0.0659(2) 0.4036(3) 0.41227(14)
C4 C 0.1150(2) 0.4753(3) 0.43603(14)
H2 H 0.0994 0.5002 0.4633
C5 C 0.1877(2) 0.5107(3) 0.41938(14)
C6 C 0.2108(2) 0.4715(3) 0.37897(14)
H3 H 0.2582 0.4963 0.3672
C7 C 0.1938(3) 0.3414(4) 0.31529(15)
C8 C -0.0139(3) 0.3680(4) 0.42930(15)
C9 C 0.2404(3) 0.5892(4) 0.44467(15)
C10 C 0.3209(2) 0.3664(4) 0.13110(14)
C11 C 0.3945(2) 0.3349(4) 0.11490(14)
H4 H 0.4225 0.2770 0.1280
C12 C 0.4265(2) 0.3890(4) 0.07950(14)
C13 C 0.3836(2) 0.4727(4) 0.05894(14)
H5 H 0.4045 0.5081 0.0348
C14 C 0.3086(2) 0.5042(4) 0.07441(14)
C15 C 0.2786(2) 0.4513(4) 0.11075(14)
H6 H 0.2296 0.4730 0.1216
C16 C 0.2909(3) 0.3116(4) 0.17134(14)
C17 C 0.5084(3) 0.3546(4) 0.06470(16)
C18 C 0.2605(3) 0.5951(4) 0.05331(16)
C19 C 0.7208(3) 0.3602(5) 0.38914(18)
H7 H 0.7154 0.2892 0.3786
C20 C 0.7043(3) 0.5348(5) 0.3969(2)
H8 H 0.6862 0.6062 0.3934
C21 C 0.7600(3) 0.4987(5) 0.42636(18)
H9 H 0.7876 0.5422 0.4469
C22 C 0.6178(4) 0.4460(6) 0.3368(2)
H10 H 0.6254 0.5096 0.3184
H11 H 0.5649 0.4509 0.3490
C23 C 0.6226(4) 0.3458(6) 0.3096(2)
C24 C 0.6692(5) 0.3445(8) 0.2734(3)
H12 H 0.6964 0.4077 0.2658
C25 C 0.6767(7) 0.2543(10) 0.2483(3)
H13 H 0.7091 0.2558 0.2241
C26 C 0.6370(6) 0.1615(9) 0.2585(4)
H14 H 0.6421 0.1001 0.2408
C27 C 0.5890(4) 0.1561(8) 0.2946(4)
C28 C 0.5823(4) 0.2523(7) 0.3202(3)
H15 H 0.5500 0.2520 0.3445
C29 C 0.5465(4) 0.0562(7) 0.3067(4)
H16 H 0.5637 0.0350 0.3364
H17 H 0.5610 -0.0022 0.2870
C30 C 0.4143(3) 0.1302(5) 0.2773(2)
H18 H 0.4363 0.1743 0.2559
C31 C 0.3305(4) 0.0496(6) 0.3169(2)
H19 H 0.2827 0.0259 0.3286
C32 C 0.4042(5) 0.0183(6) 0.3304(2)
H20 H 0.4167 -0.0299 0.3533
C33 C 0.0185(3) -0.2748(4) 0.45773(17)
H21 H 0.0177 -0.3507 0.4592
C34 C -0.0080(3) -0.1109(5) 0.4370(2)
H22 H -0.0290 -0.0506 0.4220
C35 C 0.0450(3) -0.1093(5) 0.47143(19)
H23 H 0.0663 -0.0463 0.4844
C36 C -0.0697(3) -0.2620(5) 0.39048(16)
H24 H -0.0844 -0.3369 0.3967
H25 H -0.1189 -0.2206 0.3855
C37 C -0.0217(3) -0.2592(4) 0.34941(16)
C38 C 0.0382(3) -0.3343(4) 0.34291(19)
H26 H 0.0484 -0.3886 0.3638
C39 C 0.0833(3) -0.3299(5) 0.30583(19)
H27 H 0.1239 -0.3807 0.3018
C40 C 0.0682(3) -0.2503(4) 0.27478(18)
H28 H 0.0980 -0.2481 0.2495
C41 C 0.0085(3) -0.1731(4) 0.28102(16)
C42 C -0.0358(3) -0.1783(4) 0.31833(16)
H29 H -0.0757 -0.1266 0.3227
C43 C -0.0130(3) -0.0882(4) 0.24637(17)
H30 H -0.0485 -0.0347 0.2589
H31 H -0.0422 -0.1235 0.2221
C44 C 0.0941(3) 0.0529(4) 0.24799(16)
H32 H 0.0792 0.0850 0.2742
C45 C 0.1548(3) 0.0186(4) 0.18885(16)
H33 H 0.1907 0.0233 0.1662
C46 C 0.0948(3) -0.0548(4) 0.19114(18)
H34 H 0.0820 -0.1099 0.1710
C47 C 0.2452(3) 0.9613(4) 0.43028(18)
H35 H 0.2719 1.0002 0.4526
C48 C 0.1612(3) 0.9199(5) 0.37653(19)
H36 H 0.1201 0.9227 0.3550
C49 C 0.2096(3) 0.8352(5) 0.38592(17)
H37 H 0.2077 0.7682 0.3715
C50 C 0.1478(3) 1.1105(4) 0.4093(2)
H38 H 0.0968 1.1042 0.4236
H39 H 0.1380 1.1421 0.3804
C51 C 0.2037(3) 1.1826(4) 0.4362(2)
C52 C 0.1953(3) 1.1976(4) 0.4808(2)
H40 H 0.1506 1.1694 0.4944
C53 C 0.2529(4) 1.2542(5) 0.5054(2)
H41 H 0.2474 1.2621 0.5355
C54 C 0.3185(4) 1.2990(5) 0.4858(2)
H42 H 0.3567 1.3379 0.5025
C55 C 0.3270(3) 1.2858(4) 0.4413(2)
C56 C 0.2699(3) 1.2275(4) 0.41728(19)
H43 H 0.2763 1.2183 0.3872
C57 C 0.3921(3) 1.3409(6) 0.4167(2)
H44 H 0.4004 1.3003 0.3899
H45 H 0.3737 1.4134 0.4083
C58 C 0.5098(4) 1.2747(5) 0.4635(2)
H46 H 0.4932 1.2026 0.4659
C59 C 0.5779(3) 1.4182(5) 0.47011(19)
H47 H 0.6186 1.4669 0.4782
C60 C 0.5127(3) 1.4430(5) 0.4446(2)
H48 H 0.5004 1.5105 0.4322
N1 N 0.7702(2) 0.3889(4) 0.42167(13)
N2 N 0.6795(2) 0.4455(4) 0.37305(14)
N3 N 0.4575(3) 0.0693(4) 0.3048(2)
N4 N 0.3366(2) 0.1220(4) 0.28317(14)
N5 N 0.0629(2) -0.2121(4) 0.48453(13)
N6 N -0.0249(2) -0.2168(4) 0.42851(13)
N7 N 0.0567(2) -0.0316(3) 0.22916(13)
N8 N 0.1545(2) 0.0854(3) 0.22507(12)
N9 N 0.2625(2) 0.8616(4) 0.41978(14)
N10 N 0.1843(2) 1.0019(4) 0.40510(14)
N11 N 0.4690(3) 1.3513(4) 0.44066(16)
N12 N 0.5753(2) 1.3129(4) 0.48204(15)
O1 O 0.2551(2) 0.3749(3) 0.29743(11)
O2 O 0.15603(19) 0.2595(3) 0.30073(11)
O3 O -0.04537(17) 0.4238(3) 0.45817(10)
O4 O -0.04457(18) 0.2820(3) 0.41342(11)
O5 O 0.21670(19) 0.6325(3) 0.47861(11)
O6 O 0.30822(18) 0.6107(3) 0.42896(11)
O7 O 0.22961(19) 0.3474(3) 0.18918(11)
O8 O 0.3275(2) 0.2304(3) 0.18654(12)
O9 O 0.5380(2) 0.2692(3) 0.08115(13)
O10 O 0.54356(18) 0.4094(3) 0.03693(11)
O11 O 0.2849(2) 0.6399(3) 0.02008(12)
O12 O 0.1964(2) 0.6227(3) 0.07058(13)
Cd2B Cd 0.150260(18) -0.27736(3) 0.536700(11)
Cd2_2 Cd -0.150260(18) 0.27736(3) 0.463300(11)
Cd2B_2 Cd 0.150260(18) 0.72264(3) 0.536700(11)
Cd2A Cd 0.150260(18) 0.77736(3) 0.036700(11)
Cd3B Cd 0.650330(18) 1.23197(3) 0.535850(11)
Cd3A Cd 0.650330(18) 0.26803(3) 0.035850(11)
Cd3C Cd 0.349670(18) 0.73197(3) -0.035850(11)
N5B N 0.9371(2) 0.2121(4) 0.51547(13)
N12B N 0.4247(2) 0.6871(4) 0.51796(15)
O3_2 O 0.95463(17) 0.4238(3) 0.45817(10)
O4_2 O 0.95543(18) 0.2820(3) 0.41342(11)
O5B O 0.78330(19) 0.3675(3) 0.52139(11)
O9A O 0.4620(2) 0.7692(3) 0.41885(13)
O10A O 0.45644(18) 0.9094(3) 0.46307(11)
O11C O 0.2849(2) 0.8601(3) 0.52008(12)
O12A O 0.8036(2) 0.1227(3) 0.42942(13)
O13 O 0.4214(2) 0.4272(4) 0.30743(17)
H51 H 0.3720 0.4361 0.3001
H52 H 0.4191 0.4810 0.3248
O14 O 0.5876(4) 0.1175(6) 0.1435(2)
H49 H 0.5469 0.1447 0.1569
H53 H 0.5664 0.1643 0.1253
O15 O 0.1748(3) 0.5612(5) 0.2058(2)
H55 H 0.1701 0.6134 0.1870
H56 H 0.2246 0.5507 0.2112
O16 O 0.9649(3) 0.1132(5) 0.3499(2)
H50 H 0.9283 0.0886 0.3660
H54 H 0.9640 0.1628 0.3303
loop_
_geom_bond_atom_site_label_1
_geom_bond_atom_site_label_2
_geom_bond_site_symmetry_1
_geom_bond_site_symmetry_2
Cd1 N4 1_555 1_555
Cd2 N1 1_555 1_555
Cd3 N9 1_555 1_555
C1 C2 1_555 1_555
C2 H1 1_555 1_555
C3 C2 1_555 1_555
C4 C3 1_555 1_555
H2 C4 1_555 1_555
C5 C4 1_555 1_555
C6 C1 1_555 1_555
H3 C6 1_555 1_555
C7 C1 1_555 1_555
C8 C3 1_555 1_555
C9 C5 1_555 1_555
C10 C11 1_555 1_555
C11 H4 1_555 1_555
C12 C11 1_555 1_555
C13 C12 1_555 1_555
H5 C13 1_555 1_555
C14 C13 1_555 1_555
C15 C10 1_555 1_555
H6 C15 1_555 1_555
C16 C10 1_555 1_555
C17 C12 1_555 1_555
C18 C14 1_555 1_555
C19 H7 1_555 1_555
C20 H8 1_555 1_555
C21 C20 1_555 1_555
H9 C21 1_555 1_555
C22 H10 1_555 1_555
H11 C22 1_555 1_555
C23 C22 1_555 1_555
C24 C23 1_555 1_555
H12 C24 1_555 1_555
C25 C24 1_555 1_555
H13 C25 1_555 1_555
C26 C25 1_555 1_555
H14 C26 1_555 1_555
C27 C26 1_555 1_555
C28 C23 1_555 1_555
H15 C28 1_555 1_555
C29 C27 1_555 1_555
H16 C29 1_555 1_555
H17 C29 1_555 1_555
C30 H18 1_555 1_555
C31 H19 1_555 1_555
C32 C31 1_555 1_555
H20 C32 1_555 1_555
C33 H21 1_555 1_555
C34 H22 1_555 1_555
C35 C34 1_555 1_555
H23 C35 1_555 1_555
C36 H24 1_555 1_555
H25 C36 1_555 1_555
C37 C36 1_555 1_555
C38 C37 1_555 1_555
H26 C38 1_555 1_555
C39 C38 1_555 1_555
H27 C39 1_555 1_555
C40 C39 1_555 1_555
H28 C40 1_555 1_555
C41 C40 1_555 1_555
C42 C37 1_555 1_555
H29 C42 1_555 1_555
C43 C41 1_555 1_555
H30 C43 1_555 1_555
H31 C43 1_555 1_555
C44 H32 1_555 1_555
C45 H33 1_555 1_555
C46 C45 1_555 1_555
H34 C46 1_555 1_555
C47 H35 1_555 1_555
C48 H36 1_555 1_555
C49 C48 1_555 1_555
H37 C49 1_555 1_555
C50 H38 1_555 1_555
H39 C50 1_555 1_555
C51 C50 1_555 1_555
C52 C51 1_555 1_555
H40 C52 1_555 1_555
C53 C52 1_555 1_555
H41 C53 1_555 1_555
C54 C53 1_555 1_555
H42 C54 1_555 1_555
C55 C54 1_555 1_555
C56 C51 1_555 1_555
H43 C56 1_555 1_555
C57 C55 1_555 1_555
H44 C57 1_555 1_555
H45 C57 1_555 1_555
C58 H46 1_555 1_555
C59 H47 1_555 1_555
C60 C59 1_555 1_555
H48 C60 1_555 1_555
N1 C19 1_555 1_555
N2 C19 1_555 1_555
N3 C29 1_555 1_555
N4 C30 1_555 1_555
N5 C33 1_555 1_555
N6 C33 1_555 1_555
N7 C43 1_555 1_555
N8 Cd1 1_555 1_555
N9 C47 1_555 1_555
N10 C47 1_555 1_555
N11 C57 1_555 1_555
N12 C58 1_555 1_555
O1 Cd1 1_555 1_555
O2 Cd1 1_555 1_555
O3 C8 1_555 1_555
O4 C8 1_555 1_555
O5 C9 1_555 1_555
O6 Cd3 1_555 1_555
O7 Cd1 1_555 1_555
O8 Cd1 1_555 1_555
O9 C17 1_555 1_555
O10 C17 1_555 1_555
O11 C18 1_555 1_555
O12 C18 1_555 1_555
O13 H51 1_555 1_555
O14 H49 1_555 1_555
O15 H55 1_555 1_555
O16 H50 1_555 1_555
H52 O13 1_555 1_555
H53 O14 1_555 1_555
H54 O16 1_555 1_555
H56 O15 1_555 1_555
Cd2B N5 1_555 1_555
Cd2_2 O3 1_555 1_555
Cd2B_2 O5 1_555 1_555
Cd2A O12 1_555 1_555
Cd3B N12 1_555 1_555
Cd3A O9 1_555 1_555
Cd3C O11 1_555 1_555
N5B Cd2 1_555 1_555
N12B Cd3 1_555 1_555
O3_2 Cd2 1_555 1_555
O4_2 Cd2 1_555 1_555
O5B Cd2 1_555 1_555
O9A Cd3 1_555 1_555
O10A Cd3 1_555 1_555
O11C Cd3 1_555 1_555
O12A Cd2 1_555 1_555
C5 C6 1_555 1_555
C7 O1 1_555 1_555
C7 O2 1_555 1_555
C9 O6 1_555 1_555
C14 C15 1_555 1_555
C16 O7 1_555 1_555
C16 O8 1_555 1_555
C20 N2 1_555 1_555
C21 N1 1_555 1_555
C22 N2 1_555 1_555
C27 C28 1_555 1_555
C30 N3 1_555 1_555
C31 N4 1_555 1_555
C32 N3 1_555 1_555
C34 N6 1_555 1_555
C35 N5 1_555 1_555
C36 N6 1_555 1_555
C41 C42 1_555 1_555
C44 N7 1_555 1_555
C44 N8 1_555 1_555
C45 N8 1_555 1_555
C46 N7 1_555 1_555
C48 N10 1_555 1_555
C49 N9 1_555 1_555
C50 N10 1_555 1_555
C55 C56 1_555 1_555
C58 N11 1_555 1_555
C59 N12 1_555 1_555
C60 N11 1_555 1_555
O4 Cd2_2 1_555 1_555
O10 Cd3A 1_555 1_555

#END
