
#######################################################################
#
#                 Cambridge Crystallographic Data Centre
#                                CCDC 
#
#######################################################################
#
# If this CIF has been generated from an entry in the Cambridge 
# Structural Database, then it will include bibliographic, chemical, 
# crystal, experimental, refinement or atomic coordinate data resulting 
# from the CCDC's data processing and validation procedures.
#
#######################################################################

data_TOKGAB
_symmetry_cell_setting           monoclinic
_symmetry_space_group_name_H-M   'P 21/a'
_symmetry_Int_Tables_number      14
_space_group_name_Hall           '-P 2yab'
loop_
_symmetry_equiv_pos_site_id
_symmetry_equiv_pos_as_xyz
1 x,y,z
2 1/2-x,1/2+y,-z
3 -x,-y,-z
4 1/2+x,1/2-y,z
_cell_length_a                   16.647(2)
_cell_length_b                   4.1826(2)
_cell_length_c                   12.8187(15)
_cell_angle_alpha                90
_cell_angle_beta                 105.786(11)
_cell_angle_gamma                90
_cell_volume                     858.875
loop_
_atom_site_label
_atom_site_type_symbol
_atom_site_fract_x
_atom_site_fract_y
_atom_site_fract_z
I1 I 0.1360(1) -0.9271(2) 0.0207(1)
Cu1 Cu 0.2382(1) -0.4243(6) 0.0726(1)
N1 N 0.2905(7) -0.4787(30) 0.2281(9)
C1 C 0.3244(8) -0.5668(42) 0.3121(11)
N2 N 0.3556(7) -0.6493(31) 0.4154(9)
C2 C 0.4224(8) -0.8181(34) 0.4518(10)
C3 C 0.4750(8) -0.9435(35) 0.3870(9)
S1 S 0.4555(2) -0.9132(11) 0.2501(2)
C4 C 0.5442(9) -1.1212(40) 0.2508(10)
C5 C 0.5883(9) -1.2196(40) 0.3509(11)
C6 C 0.4511(8) -0.8774(29) 0.5691(10)
C7 C 0.6681(9) -1.4007(42) 0.3692(13)
H1 H 0.572 -1.188 0.186
H2 H 0.693 -1.459 0.456
H3 H 0.657 -1.629 0.324
H4 H 0.715 -1.265 0.343
C6B C 0.5489(8) -1.1226(29) 0.4309(10)
C2B C 0.5776(8) -1.1819(34) 0.5482(10)
N2B N 0.6444(7) -1.3507(31) 0.5846(9)
C1B C 0.6756(8) -1.4332(42) 0.6879(11)
N1B N 0.7095(7) -1.5213(30) 0.7719(9)
C3B C 0.5250(8) -1.0565(35) 0.6130(9)
S1B S 0.5445(2) -1.0868(11) 0.7499(2)
C4B C 0.4558(9) -0.8788(40) 0.7492(10)
C5B C 0.4117(9) -0.7804(40) 0.6491(11)
C7B C 0.3319(9) -0.5993(42) 0.6308(13)
H2B H 0.307 -0.541 0.544
H3B H 0.343 -0.371 0.676
H4B H 0.285 -0.735 0.657
H1B H 0.428 -0.812 0.814
I1_2 I 0.1360(1) 0.0729(2) 0.0207(1)
Cu1_2 Cu 0.2382(1) 0.5757(6) 0.0726(1)
Cu1_3 Cu 0.2382(1) -1.4243(6) 0.0726(1)
Cu1A Cu 0.2618(1) -0.9243(6) -0.0726(1)
I1A I 0.3640(1) -0.4271(2) -0.0207(1)
Cu1B Cu 0.7618(1) -1.5757(6) 0.9274(1)
Cu1A_2 Cu 0.2618(1) 0.0757(6) -0.0726(1)
I1_3 I 0.1360(1) 1.0729(2) 0.0207(1)
I1A_2 I 0.3640(1) 0.5729(2) -0.0207(1)
N1_2 N 0.2905(7) 0.5213(30) 0.2281(9)
loop_
_geom_bond_atom_site_label_1
_geom_bond_atom_site_label_2
_geom_bond_site_symmetry_1
_geom_bond_site_symmetry_2
I1 Cu1 1_555 1_555
Cu1 N1 1_555 1_555
N1 C1 1_555 1_555
C1 N2 1_555 1_555
N2 C2 1_555 1_555
C2 C3 1_555 1_555
C3 S1 1_555 1_555
S1 C4 1_555 1_555
C4 C5 1_555 1_555
C5 C7 1_555 1_555
C6 C2 1_555 1_555
C7 H2 1_555 1_555
H1 C4 1_555 1_555
H3 C7 1_555 1_555
H4 C7 1_555 1_555
C6B C3 1_555 1_555
C2B C6B 1_555 1_555
N2B C2B 1_555 1_555
C1B N2B 1_555 1_555
N1B C1B 1_555 1_555
C3B C6 1_555 1_555
S1B C3B 1_555 1_555
C4B S1B 1_555 1_555
C5B C6 1_555 1_555
C7B C5B 1_555 1_555
H2B C7B 1_555 1_555
H3B C7B 1_555 1_555
H4B C7B 1_555 1_555
H1B C4B 1_555 1_555
I1_2 Cu1 1_555 1_555
Cu1_2 I1_2 1_555 1_555
Cu1_3 I1 1_555 1_555
Cu1A I1 1_555 1_555
I1A Cu1 1_555 1_555
Cu1B N1B 1_555 1_555
Cu1A_2 I1_2 1_555 1_555
I1_3 Cu1_2 1_555 1_555
I1A_2 Cu1_2 1_555 1_555
N1_2 Cu1_2 1_555 1_555
C5 C6B 1_555 1_555
C2B C3B 1_555 1_555
C4B C5B 1_555 1_555
Cu1A I1A 1_555 1_555
I1A Cu1A_2 1_555 1_555
Cu1A_2 I1A_2 1_555 1_555

#END
