
#######################################################################
#
#                 Cambridge Crystallographic Data Centre
#                                CCDC 
#
#######################################################################
#
# If this CIF has been generated from an entry in the Cambridge 
# Structural Database, then it will include bibliographic, chemical, 
# crystal, experimental, refinement or atomic coordinate data resulting 
# from the CCDC's data processing and validation procedures.
#
#######################################################################

data_TOKGOQ
_symmetry_cell_setting           triclinic
_symmetry_space_group_name_H-M   'P -1'
_symmetry_Int_Tables_number      2
_space_group_name_Hall           '-P 1'
loop_
_symmetry_equiv_pos_site_id
_symmetry_equiv_pos_as_xyz
1 x,y,z
2 -x,-y,-z
_cell_length_a                   7.1154(14)
_cell_length_b                   7.4240(15)
_cell_length_c                   8.8217(18)
_cell_angle_alpha                109.36(3)
_cell_angle_beta                 95.13(3)
_cell_angle_gamma                90.52(3)
_cell_volume                     437.52
loop_
_atom_site_label
_atom_site_type_symbol
_atom_site_fract_x
_atom_site_fract_y
_atom_site_fract_z
Cu1 Cu 0.0000 0.0000 1.0000
Cu2 Cu 0.74125(8) 0.29824(8) 0.90495(7)
Cu3 Cu 0.5000 0.0000 1.0000
P1 P 0.23609(16) 0.27571(17) 0.86360(14)
S1 S 0.27971(17) 0.12811(17) 0.34278(13)
O1 O 0.4229(5) 0.2029(5) 0.9141(4)
O2 O 0.0725(5) 0.2198(5) 0.9435(4)
O3 O 0.2471(5) 0.4903(5) 0.8969(4)
O4 O 0.2741(5) -0.0795(5) 0.3083(4)
O5 O 0.0986(5) 0.1922(5) 0.2926(4)
O6 O 0.4367(6) 0.1923(5) 0.2729(4)
O7 O -0.2452(4) 0.1253(5) 1.0373(4)
O9 O 0.7548(7) 0.4590(6) 0.7704(5)
C1 C 0.1843(7) 0.1692(7) 0.6495(6)
H1 H 0.1825 0.0312 0.6212
H2 H 0.0594 0.2044 0.6184
C2 C 0.3276(7) 0.2304(7) 0.5550(5)
H3 H 0.4522 0.1949 0.5865
H4 H 0.3297 0.3685 0.5843
Cu1_2 Cu 0.0000 0.0000 0.0000
Cu1_3 Cu 0.0000 0.0000 2.0000
Cu2A Cu -0.74125(8) -0.29824(8) 1.09505(7)
Cu2_2 Cu -0.25875(8) 0.29824(8) 0.90495(7)
Cu2A_2 Cu 0.25875(8) 0.70176(8) 1.09505(7)
Cu2A_3 Cu 0.25875(8) -0.29824(8) 0.09505(7)
Cu2A_4 Cu 0.25875(8) -0.29824(8) 1.09505(7)
Cu2_3 Cu -0.25875(8) -0.70176(8) 0.90495(7)
Cu2_4 Cu -0.25875(8) 0.29824(8) 1.90495(7)
Cu3_2 Cu 0.5000 0.0000 0.0000
Cu3_3 Cu -0.5000 0.0000 1.0000
Cu3_4 Cu -0.5000 0.0000 2.0000
P1A P -0.23609(16) -0.27571(17) 1.13640(14)
S1A S -0.27971(17) -0.12811(17) 1.65722(13)
O1A O -0.4229(5) -0.2029(5) 1.0859(4)
O1A_2 O 0.5771(5) -0.2029(5) 1.0859(4)
O2A O -0.0725(5) -0.2198(5) 1.0565(4)
O2_2 O 1.0725(5) 0.2198(5) 0.9435(4)
O2A_2 O -1.0725(5) -0.2198(5) 1.0565(4)
O3A O -0.2471(5) -0.4903(5) 1.1031(4)
O3A_2 O 0.7529(5) 0.5097(5) 1.1031(4)
O3_2 O -0.7529(5) -0.5097(5) 0.8969(4)
O4A O -0.2741(5) 0.0795(5) 1.6917(4)
O4A_2 O 0.7259(5) 0.0795(5) 0.6917(4)
O4_2 O -0.7259(5) -0.0795(5) 1.3083(4)
O5A O -0.0986(5) -0.1922(5) 1.7074(4)
O5_2 O 0.0986(5) 0.1922(5) 1.2926(4)
O5A_2 O -0.0986(5) -0.1922(5) 0.7074(4)
O6A O -0.4367(6) -0.1923(5) 1.7271(4)
O6_2 O 0.4367(6) 0.1923(5) 1.2729(4)
O6A_2 O 0.5633(6) -0.1923(5) 0.7271(4)
O7A O 0.2452(4) -0.1253(5) 0.9627(4)
O7_2 O 0.7548(4) 0.1253(5) 1.0373(4)
O7A_2 O -0.7548(4) -0.1253(5) 0.9627(4)
O9A O -0.7548(7) -0.4590(6) 1.2296(5)
C1A C -0.1843(7) -0.1692(7) 1.3505(6)
H1A H -0.1825 -0.0312 1.3788
H2A H -0.0594 -0.2044 1.3816
C2A C -0.3276(7) -0.2304(7) 1.4450(5)
H3A H -0.4522 -0.1949 1.4135
H4A H -0.3297 -0.3685 1.4157
O8 O 0.2193(8) 0.6524(9) 0.5476(7)
loop_
_geom_bond_atom_site_label_1
_geom_bond_atom_site_label_2
_geom_bond_site_symmetry_1
_geom_bond_site_symmetry_2
Cu1 O2 1_555 1_555
Cu2 O1 1_555 1_555
Cu3 O1 1_555 1_555
P1 O1 1_555 1_555
S1 O4 1_555 1_555
O2 P1 1_555 1_555
O3 P1 1_555 1_555
O4 Cu2A_3 1_555 1_555
O5 S1 1_555 1_555
O6 S1 1_555 1_555
O7 Cu1 1_555 1_555
O9 Cu2 1_555 1_555
C1 P1 1_555 1_555
H1 C1 1_555 1_555
H2 C1 1_555 1_555
C2 S1 1_555 1_555
H3 C2 1_555 1_555
H4 C2 1_555 1_555
Cu1_2 O5 1_555 1_555
Cu1_3 O5A 1_555 1_555
Cu2A O1A 1_555 1_555
Cu2_2 O2 1_555 1_555
Cu2A_2 O3 1_555 1_555
Cu2A_4 O1A_2 1_555 1_555
Cu2_3 O3A 1_555 1_555
Cu2_4 O4A 1_555 1_555
Cu3_2 O6 1_555 1_555
Cu3_3 O7 1_555 1_555
Cu3_4 O6A 1_555 1_555
P1A O1A 1_555 1_555
S1A O4A 1_555 1_555
O1A Cu3_3 1_555 1_555
O1A_2 Cu3 1_555 1_555
O2A Cu1 1_555 1_555
O2_2 Cu2 1_555 1_555
O2A_2 Cu2A 1_555 1_555
O3A P1A 1_555 1_555
O3A_2 Cu2 1_555 1_555
O3_2 Cu2A 1_555 1_555
O4A_2 Cu2 1_555 1_555
O4_2 Cu2A 1_555 1_555
O5A S1A 1_555 1_555
O5_2 Cu1 1_555 1_555
O5A_2 Cu1 1_555 1_555
O6A S1A 1_555 1_555
O6_2 Cu3 1_555 1_555
O6A_2 Cu3 1_555 1_555
O7A Cu1 1_555 1_555
O7_2 Cu2 1_555 1_555
O7A_2 Cu2A 1_555 1_555
O9A Cu2A 1_555 1_555
C1A P1A 1_555 1_555
H1A C1A 1_555 1_555
H2A C1A 1_555 1_555
C2A S1A 1_555 1_555
H3A C2A 1_555 1_555
H4A C2A 1_555 1_555
Cu3 O7A 1_555 1_555
Cu3 O7_2 1_555 1_555
O7 Cu2_2 1_555 1_555
C1 C2 1_555 1_555
Cu2A_4 O2A 1_555 1_555
Cu2A_4 O7A 1_555 1_555
Cu3_3 O7A_2 1_555 1_555
P1A O2A 1_555 1_555
C1A C2A 1_555 1_555

#END
