
#######################################################################
#
#                 Cambridge Crystallographic Data Centre
#                                CCDC 
#
#######################################################################
#
# If this CIF has been generated from an entry in the Cambridge 
# Structural Database, then it will include bibliographic, chemical, 
# crystal, experimental, refinement or atomic coordinate data resulting 
# from the CCDC's data processing and validation procedures.
#
#######################################################################

data_TOKHAD
_symmetry_cell_setting           triclinic
_symmetry_space_group_name_H-M   'P -1'
_symmetry_Int_Tables_number      2
_space_group_name_Hall           '-P 1'
loop_
_symmetry_equiv_pos_site_id
_symmetry_equiv_pos_as_xyz
1 x,y,z
2 -x,-y,-z
_cell_length_a                   5.5089(11)
_cell_length_b                   8.3129(17)
_cell_length_c                   9.5576(19)
_cell_angle_alpha                75.62(3)
_cell_angle_beta                 78.01(3)
_cell_angle_gamma                83.88(3)
_cell_volume                     414.028
loop_
_atom_site_label
_atom_site_type_symbol
_atom_site_fract_x
_atom_site_fract_y
_atom_site_fract_z
Cu1 Cu 0.07249(9) 0.41656(6) 0.36959(5)
Cu2 Cu 0.5000 0.5000 0.5000
Cu3 Cu 1.0000 0.5000 0.0000
Cu4 Cu 0.5000 0.5000 0.0000
P1 P 0.68691(19) 0.25805(11) 0.28694(10)
S1 S 0.63684(19) -0.20927(11) 0.16520(10)
O1 O 0.4787(5) 0.3270(3) 0.3936(3)
O2 O 0.7142(5) 0.3744(3) 0.1298(3)
O3 O 0.9392(6) 0.2320(3) 0.3325(3)
O4 O 0.3644(6) -0.1915(4) 0.1870(3)
O5 O 0.7440(7) -0.2547(4) 0.0248(3)
O6 O 0.7263(6) -0.3234(4) 0.2900(3)
O7 O 0.1954(5) 0.5133(3) 0.1492(3)
O8 O 0.1798(5) 0.5909(3) 0.4448(3)
H1 H 0.215(12) 0.684(8) 0.361(7)
C1 C 0.5870(8) 0.0621(5) 0.2797(4)
H2 H 0.5960 -0.0168 0.3724
H3 H 0.4144 0.0765 0.2686
C2 C 0.7403(8) -0.0110(5) 0.1544(4)
H4 H 0.9147 -0.0213 0.1615
H5 H 0.7227 0.0627 0.0605
Cu1A Cu 0.92751(9) 0.58344(6) 0.63041(5)
Cu1A_2 Cu -0.07249(9) 0.58344(6) 0.63041(5)
Cu1_2 Cu 1.07249(9) 0.41656(6) 0.36959(5)
Cu1_3 Cu 1.07249(9) -0.58344(6) 0.36959(5)
Cu1A_3 Cu -0.07249(9) 1.58344(6) 0.63041(5)
Cu2_2 Cu 0.5000 -0.5000 0.5000
Cu2_3 Cu 0.5000 1.5000 0.5000
Cu3_2 Cu 0.0000 0.5000 0.0000
Cu3_3 Cu 1.0000 -0.5000 0.0000
Cu3_4 Cu 0.0000 0.5000 1.0000
Cu3_5 Cu 0.0000 1.5000 1.0000
Cu4_2 Cu 1.5000 0.5000 0.0000
Cu4_3 Cu 0.5000 -0.5000 0.0000
Cu4_4 Cu 0.5000 0.5000 1.0000
Cu4_5 Cu 0.5000 1.5000 1.0000
P1A P 0.31309(19) 0.74195(11) 0.71306(10)
S1A S 0.36316(19) 1.20927(11) 0.83480(10)
O1A O 0.5213(5) 0.6730(3) 0.6064(3)
O2A O 0.2858(5) 0.6256(3) 0.8702(3)
O2A_2 O 1.2858(5) 0.6256(3) -0.1298(3)
O2A_3 O 0.2858(5) 0.6256(3) -0.1298(3)
O3A O 0.0608(6) 0.7680(3) 0.6675(3)
O3_2 O -0.0608(6) 0.2320(3) 0.3325(3)
O3A_2 O 1.0608(6) 0.7680(3) 0.6675(3)
O4A O 0.6356(6) 1.1915(4) 0.8130(3)
O5A O 0.2560(7) 1.2547(4) 0.9752(3)
O5_2 O 0.7440(7) 0.7453(4) 0.0248(3)
O5A_2 O 1.2560(7) 0.2547(4) -0.0248(3)
O5A_3 O 0.2560(7) 0.2547(4) -0.0248(3)
O6A O 0.2737(6) 1.3234(4) 0.7100(3)
O6_2 O -0.2737(6) 0.6766(4) 0.2900(3)
O6_3 O 0.7263(6) 0.6766(4) 0.2900(3)
O6A_2 O 0.2737(6) 0.3234(4) 0.7100(3)
O6A_3 O 1.2737(6) 0.3234(4) 0.7100(3)
O7_2 O 1.1954(5) 0.5133(3) 0.1492(3)
O7A O 0.8046(5) 0.4867(3) -0.1492(3)
O7A_2 O 0.8046(5) 0.4867(3) 0.8508(3)
O8A O 0.8202(5) 0.4091(3) 0.5552(3)
O8A_2 O -0.1798(5) 0.4091(3) 0.5552(3)
O8_2 O 1.1798(5) 0.5909(3) 0.4448(3)
H1A H 0.785(12) 0.316(8) 0.639(7)
H1A_2 H -0.215(12) 0.316(8) 0.639(7)
H1_2 H 1.215(12) 0.684(8) 0.361(7)
C1A C 0.4130(8) 0.9379(5) 0.7203(4)
H2A H 0.4040 1.0168 0.6276
H3A H 0.5856 0.9235 0.7314
C2A C 0.2597(8) 1.0110(5) 0.8456(4)
H4A H 0.0853 1.0213 0.8385
H5A H 0.2773 0.9373 0.9395
loop_
_geom_bond_atom_site_label_1
_geom_bond_atom_site_label_2
_geom_bond_site_symmetry_1
_geom_bond_site_symmetry_2
Cu1 O1 1_555 1_555
Cu2 O1 1_555 1_555
Cu3 O2 1_555 1_555
Cu4 O2 1_555 1_555
P1 O1 1_555 1_555
S1 O4 1_555 1_555
O2 P1 1_555 1_555
O3 P1 1_555 1_555
O5 S1 1_555 1_555
O6 S1 1_555 1_555
O7 Cu1 1_555 1_555
O8 Cu1 1_555 1_555
H1 O8 1_555 1_555
C1 P1 1_555 1_555
H2 C1 1_555 1_555
H3 C1 1_555 1_555
C2 S1 1_555 1_555
H4 C2 1_555 1_555
H5 C2 1_555 1_555
Cu1A O1A 1_555 1_555
Cu1A_2 O8 1_555 1_555
Cu1_2 O3 1_555 1_555
Cu1_3 O6 1_555 1_555
Cu1A_3 O6A 1_555 1_555
Cu2_2 O6 1_555 1_555
Cu2_3 O6A 1_555 1_555
Cu3_2 O7 1_555 1_555
Cu3_3 O5 1_555 1_555
Cu3_4 O2A 1_555 1_555
Cu3_5 O5A 1_555 1_555
Cu4_2 O2A_2 1_555 1_555
Cu4_3 O5 1_555 1_555
Cu4_4 O2A 1_555 1_555
Cu4_5 O5A 1_555 1_555
P1A O1A 1_555 1_555
S1A O4A 1_555 1_555
O1A Cu2 1_555 1_555
O2A P1A 1_555 1_555
O2A_2 Cu3 1_555 1_555
O2A_3 Cu4 1_555 1_555
O3A Cu1A_2 1_555 1_555
O3_2 Cu1 1_555 1_555
O3A_2 Cu1A 1_555 1_555
O5A S1A 1_555 1_555
O5_2 Cu3 1_555 1_555
O5A_2 Cu3 1_555 1_555
O5A_3 Cu4 1_555 1_555
O6A S1A 1_555 1_555
O6_2 Cu1 1_555 1_555
O6_3 Cu2 1_555 1_555
O6A_2 Cu2 1_555 1_555
O6A_3 Cu1A 1_555 1_555
O7_2 Cu3 1_555 1_555
O7A Cu3 1_555 1_555
O7A_2 Cu1A 1_555 1_555
O8A Cu2 1_555 1_555
O8A_2 Cu1 1_555 1_555
O8_2 Cu1A 1_555 1_555
H1A O8A 1_555 1_555
H1A_2 O8A_2 1_555 1_555
H1_2 O8_2 1_555 1_555
C1A P1A 1_555 1_555
H2A C1A 1_555 1_555
H3A C1A 1_555 1_555
C2A S1A 1_555 1_555
H4A C2A 1_555 1_555
H5A C2A 1_555 1_555
Cu2 O8 1_555 1_555
Cu4 O7 1_555 1_555
Cu4 O5_2 1_555 1_555
Cu4 O7A 1_555 1_555
C1 C2 1_555 1_555
Cu1A O8A 1_555 1_555
Cu1A_2 O6A_2 1_555 1_555
Cu1A_2 O8A_2 1_555 1_555
Cu1_2 O6_3 1_555 1_555
Cu1_2 O7_2 1_555 1_555
Cu1_2 O8A 1_555 1_555
Cu1_2 O8_2 1_555 1_555
Cu3_2 O2A_3 1_555 1_555
Cu3_2 O5A_3 1_555 1_555
Cu4_2 O5A_2 1_555 1_555
Cu4_2 O7_2 1_555 1_555
Cu4_4 O7A_2 1_555 1_555
P1A O3A 1_555 1_555
C1A C2A 1_555 1_555

#END
