
#######################################################################
#
#                 Cambridge Crystallographic Data Centre
#                                CCDC 
#
#######################################################################
#
# If this CIF has been generated from an entry in the Cambridge 
# Structural Database, then it will include bibliographic, chemical, 
# crystal, experimental, refinement or atomic coordinate data resulting 
# from the CCDC's data processing and validation procedures.
#
#######################################################################

data_TOKLIP
_symmetry_cell_setting           monoclinic
_symmetry_space_group_name_H-M   'P 21/c'
_symmetry_Int_Tables_number      14
_space_group_name_Hall           '-P 2ybc'
loop_
_symmetry_equiv_pos_site_id
_symmetry_equiv_pos_as_xyz
1 x,y,z
2 -x,1/2+y,1/2-z
3 -x,-y,-z
4 x,1/2-y,1/2+z
_cell_length_a                   7.775(5)
_cell_length_b                   20.688(10)
_cell_length_c                   10.602(4)
_cell_angle_alpha                90
_cell_angle_beta                 108.28(3)
_cell_angle_gamma                90
_cell_volume                     1619.26
loop_
_atom_site_label
_atom_site_type_symbol
_atom_site_fract_x
_atom_site_fract_y
_atom_site_fract_z
Mn1 Mn 0.34566(4) 0.373769(15) 0.60163(3)
Mn2 Mn 0.0000 0.5000 0.5000
O1 O 0.2158(3) 0.24199(11) 0.4275(2)
H1 H 0.1625 0.2712 0.3784
O2 O 0.5092(3) 0.50762(8) 0.79021(18)
H2 H 0.4268 0.5219 0.7275
O3 O 0.1603(3) 0.36134(10) 0.7079(2)
O4 O 0.0538(3) 0.46155(10) 0.69816(19)
O5 O -0.1170(2) 0.58748(8) 0.55875(16)
O6 O -0.0934(3) 0.65724(12) 0.7236(2)
O7 O -0.2683(2) 0.45640(8) 0.43816(16)
O8 O -0.4960(2) 0.40998(8) 0.48708(17)
N1 N 0.3354(3) 0.26813(10) 0.5415(2)
N2 N 0.5527(3) 0.31699(9) 0.75819(19)
N3 N 0.5202(3) 0.44177(9) 0.77714(19)
C1 C 0.4014(6) 0.15448(16) 0.6012(4)
H3 H 0.3136 0.1464 0.5161
H4 H 0.3608 0.1356 0.6696
H5 H 0.5153 0.1357 0.6037
C2 C 0.4241(4) 0.22583(12) 0.6232(3)
C3 C 0.5538(4) 0.25229(12) 0.7460(3)
C4 C 0.6724(5) 0.21495(16) 0.8445(3)
H6 H 0.6721 0.1702 0.8359
C5 C 0.7878(5) 0.24342(18) 0.9524(4)
H7 H 0.8688 0.2183 1.0170
C6 C 0.7865(4) 0.30933(15) 0.9674(3)
H8 H 0.8645 0.3293 1.0421
C7 C 0.6645(3) 0.34552(13) 0.8670(3)
C8 C 0.6467(3) 0.41656(12) 0.8724(2)
C9 C 0.7693(5) 0.45561(15) 0.9841(3)
H9 H 0.7971 0.4960 0.9501
H10 H 0.8794 0.4321 1.0242
H11 H 0.7100 0.4638 1.0494
C10 C 0.0790(4) 0.40628(15) 0.7429(3)
H12 H 0.033(4) 0.3969(7) 0.818(2)
C11 C -0.0661(5) 0.60512(17) 0.6784(3)
H13 H 0.008(4) 0.5732(8) 0.7411(11)
C12 C -0.3486(3) 0.43666(13) 0.5172(2)
H14 H -0.282(2) 0.4430(12) 0.6119(8)
Mn1B Mn -0.34566(4) 0.626231(15) 0.39837(3)
Mn1_2 Mn -0.65434(4) 0.373769(15) 0.60163(3)
Mn1B_2 Mn 0.65434(4) 0.626231(15) 0.39837(3)
O1B O -0.2158(3) 0.75801(11) 0.5725(2)
H1B H -0.1625 0.7288 0.6216
O2B O -0.5092(3) 0.49238(8) 0.20979(18)
H2B H -0.4268 0.4781 0.2725
O3B O -0.1603(3) 0.63866(10) 0.2921(2)
O4B O -0.0538(3) 0.53845(10) 0.30184(19)
O5B O 0.1170(2) 0.41252(8) 0.44125(16)
O6B O 0.0934(3) 0.34276(12) 0.2764(2)
O7B O 0.2683(2) 0.54360(8) 0.56184(16)
O8B O 0.4960(2) 0.59002(8) 0.51292(17)
O8_2 O 0.5040(2) 0.40998(8) 0.48708(17)
O8B_2 O -0.5040(2) 0.59002(8) 0.51292(17)
N1B N -0.3354(3) 0.73187(10) 0.4585(2)
N2B N -0.5527(3) 0.68301(9) 0.24181(19)
N3B N -0.5202(3) 0.55823(9) 0.22286(19)
C1B C -0.4014(6) 0.84552(16) 0.3988(4)
H3B H -0.3136 0.8536 0.4839
H4B H -0.3608 0.8644 0.3304
H5B H -0.5153 0.8643 0.3963
C2B C -0.4241(4) 0.77417(12) 0.3768(3)
C3B C -0.5538(4) 0.74771(12) 0.2540(3)
C4B C -0.6724(5) 0.78505(16) 0.1555(3)
H6B H -0.6721 0.8298 0.1641
C5B C -0.7878(5) 0.75658(18) 0.0476(4)
H7B H -0.8688 0.7817 -0.0170
C6B C -0.7865(4) 0.69067(15) 0.0326(3)
H8B H -0.8645 0.6707 -0.0421
C7B C -0.6645(3) 0.65448(13) 0.1330(3)
C8B C -0.6467(3) 0.58344(12) 0.1276(2)
C9B C -0.7693(5) 0.54439(15) 0.0159(3)
H9B H -0.7971 0.5040 0.0499
H10B H -0.8794 0.5679 -0.0242
H11B H -0.7100 0.5362 -0.0494
C10B C -0.0790(4) 0.59372(15) 0.2571(3)
H12B H -0.033(4) 0.6031(7) 0.182(2)
C11B C 0.0661(5) 0.39488(17) 0.3216(3)
H13B H -0.008(4) 0.4268(8) 0.2589(11)
C12B C 0.3486(3) 0.56334(13) 0.4828(2)
H14B H 0.282(2) 0.5570(12) 0.3881(8)
loop_
_geom_bond_atom_site_label_1
_geom_bond_atom_site_label_2
_geom_bond_site_symmetry_1
_geom_bond_site_symmetry_2
Mn1 O3 1_555 1_555
Mn2 O4 1_555 1_555
O1 H1 1_555 1_555
O2 H2 1_555 1_555
O3 C10 1_555 1_555
O4 C10 1_555 1_555
O5 Mn2 1_555 1_555
O6 C11 1_555 1_555
O7 Mn2 1_555 1_555
O8 C12 1_555 1_555
N1 Mn1 1_555 1_555
N2 Mn1 1_555 1_555
N3 Mn1 1_555 1_555
C1 H3 1_555 1_555
H4 C1 1_555 1_555
H5 C1 1_555 1_555
C2 N1 1_555 1_555
C3 N2 1_555 1_555
C4 C3 1_555 1_555
H6 C4 1_555 1_555
C5 C4 1_555 1_555
H7 C5 1_555 1_555
C6 C5 1_555 1_555
H8 C6 1_555 1_555
C7 N2 1_555 1_555
C8 N3 1_555 1_555
C9 C8 1_555 1_555
H9 C9 1_555 1_555
H10 C9 1_555 1_555
H11 C9 1_555 1_555
C10 H12 1_555 1_555
C11 O5 1_555 1_555
H13 C11 1_555 1_555
C12 O7 1_555 1_555
H14 C12 1_555 1_555
Mn1B O5 1_555 1_555
Mn1_2 O8 1_555 1_555
Mn1B_2 O8B 1_555 1_555
O1B H1B 1_555 1_555
O2B H2B 1_555 1_555
O3B Mn1B 1_555 1_555
O4B Mn2 1_555 1_555
O5B Mn1 1_555 1_555
O6B C11B 1_555 1_555
O7B Mn2 1_555 1_555
O8B C12B 1_555 1_555
O8_2 Mn1 1_555 1_555
O8B_2 Mn1B 1_555 1_555
N1B Mn1B 1_555 1_555
N2B Mn1B 1_555 1_555
N3B Mn1B 1_555 1_555
C1B H3B 1_555 1_555
H4B C1B 1_555 1_555
H5B C1B 1_555 1_555
C2B N1B 1_555 1_555
C3B N2B 1_555 1_555
C4B C3B 1_555 1_555
H6B C4B 1_555 1_555
C5B C4B 1_555 1_555
H7B C5B 1_555 1_555
C6B C5B 1_555 1_555
H8B C6B 1_555 1_555
C7B N2B 1_555 1_555
C8B N3B 1_555 1_555
C9B C8B 1_555 1_555
H9B C9B 1_555 1_555
H10B C9B 1_555 1_555
H11B C9B 1_555 1_555
C10B O3B 1_555 1_555
H12B C10B 1_555 1_555
C11B O5B 1_555 1_555
H13B C11B 1_555 1_555
C12B O7B 1_555 1_555
H14B C12B 1_555 1_555
Mn2 O5B 1_555 1_555
O1 N1 1_555 1_555
O2 N3 1_555 1_555
C1 C2 1_555 1_555
C2 C3 1_555 1_555
C6 C7 1_555 1_555
C7 C8 1_555 1_555
O1B N1B 1_555 1_555
O2B N3B 1_555 1_555
O4B C10B 1_555 1_555
C1B C2B 1_555 1_555
C2B C3B 1_555 1_555
C6B C7B 1_555 1_555
C7B C8B 1_555 1_555

#END
