
#######################################################################
#
#                 Cambridge Crystallographic Data Centre
#                                CCDC 
#
#######################################################################
#
# If this CIF has been generated from an entry in the Cambridge 
# Structural Database, then it will include bibliographic, chemical, 
# crystal, experimental, refinement or atomic coordinate data resulting 
# from the CCDC's data processing and validation procedures.
#
#######################################################################

data_TOKMOX
_symmetry_cell_setting           monoclinic
_symmetry_space_group_name_H-M   'P 21/n'
_symmetry_Int_Tables_number      14
_space_group_name_Hall           '-P 2yn'
loop_
_symmetry_equiv_pos_site_id
_symmetry_equiv_pos_as_xyz
1 x,y,z
2 1/2-x,1/2+y,1/2-z
3 -x,-y,-z
4 1/2+x,1/2-y,1/2+z
_cell_length_a                   10.3834(4)
_cell_length_b                   6.8070(3)
_cell_length_c                   25.4684(10)
_cell_angle_alpha                90
_cell_angle_beta                 96.25
_cell_angle_gamma                90
_cell_volume                     1789.4
loop_
_atom_site_label
_atom_site_type_symbol
_atom_site_fract_x
_atom_site_fract_y
_atom_site_fract_z
Cd1 Cd 0.601890(16) 0.18001(2) 0.685949(6)
Cd2 Cd 0.390776(16) 0.70764(3) 0.651295(6)
S1 S 0.27429(5) 0.21743(9) 0.64832(2)
S2 S 0.67723(5) 0.66974(8) 0.69726(2)
N1 N 0.44948(19) 0.7270(3) 0.56638(8)
N2 N 0.20235(19) 0.7331(3) 0.59359(8)
N3 N 0.2592(2) 0.8090(3) 0.38031(7)
N4 N 0.0594(2) 0.7924(3) 0.40354(8)
O1 O 0.58301(18) 0.5079(3) 0.68323(8)
O2 O 0.49751(19) 0.1449(3) 0.76084(8)
O3 O 0.60030(17) 0.8466(3) 0.67964(7)
O4 O 0.78942(18) 0.6502(3) 0.66842(7)
O5 O 0.71269(17) 0.6759(3) 0.75420(7)
O6 O 0.30858(18) 0.4096(3) 0.67238(8)
O7 O 0.39487(15) 0.0985(3) 0.64630(6)
O8 O 0.20842(18) 0.2379(3) 0.59487(7)
O9 O 0.18897(17) 0.1138(3) 0.68196(7)
O10 O 0.3347(2) 0.8155(3) 0.72889(8)
C1 C 0.5711(2) 0.7256(4) 0.55442(10)
C2 C 0.6020(2) 0.7453(4) 0.50293(10)
C3 C 0.5044(2) 0.7651(4) 0.46254(10)
C4 C 0.3752(2) 0.7658(3) 0.47373(9)
C5 C 0.3513(2) 0.7467(3) 0.52710(9)
C6 C 0.2191(2) 0.7450(3) 0.54171(9)
C7 C 0.0833(3) 0.7255(4) 0.60768(10)
C8 C -0.0274(3) 0.7295(4) 0.57096(11)
C9 C -0.0129(2) 0.7455(4) 0.51851(10)
C10 C 0.1128(2) 0.7545(4) 0.50257(9)
C11 C 0.1413(2) 0.7744(4) 0.44925(9)
C12 C 0.2652(2) 0.7831(3) 0.43466(9)
C13 C 0.1341(3) 0.8137(4) 0.36404(10)
H1 H 0.6380 0.7109 0.5816
H2 H 0.6881 0.7450 0.4960
H3 H 0.5238 0.7780 0.4279
H4 H 0.0728 0.7173 0.6434
H5 H -0.1096 0.7214 0.5822
H6 H -0.0852 0.7504 0.4935
H7 H 0.1011 0.8301 0.3289
H8 H 0.270(2) 0.889(4) 0.7207(11)
H9 H 0.324(3) 0.746(4) 0.7555(9)
H10 H 0.557(2) 0.138(4) 0.7860(9)
H11 H 0.455(2) 0.038(3) 0.7583(11)
H12 H -0.0272(18) 0.803(5) 0.4018(13)
Cd1_2 Cd 0.601890(16) 1.18001(2) 0.685949(6)
Cd1A Cd 0.898110(16) 0.68001(2) 0.814051(6)
Cd1B Cd 0.398110(16) 0.81999(2) 0.314051(6)
Cd2_2 Cd 0.390776(16) -0.29236(3) 0.651295(6)
N3B N 0.7408(2) 0.1910(3) 0.61969(7)
O3_2 O 0.60030(17) -0.1534(3) 0.67964(7)
O5A O 0.78731(17) 0.1759(3) 0.74580(7)
O7_2 O 0.39487(15) 1.0985(3) 0.64630(6)
loop_
_geom_bond_atom_site_label_1
_geom_bond_atom_site_label_2
_geom_bond_site_symmetry_1
_geom_bond_site_symmetry_2
Cd1 O1 1_555 1_555
Cd2 N1 1_555 1_555
S1 O6 1_555 1_555
S2 O1 1_555 1_555
N1 C1 1_555 1_555
N2 Cd2 1_555 1_555
N3 C12 1_555 1_555
N4 C11 1_555 1_555
O1 Cd2 1_555 1_555
O2 Cd1 1_555 1_555
O3 Cd2 1_555 1_555
O4 S2 1_555 1_555
O5 S2 1_555 1_555
O6 Cd2 1_555 1_555
O7 Cd1 1_555 1_555
O8 S1 1_555 1_555
O9 S1 1_555 1_555
O10 Cd2 1_555 1_555
C1 C2 1_555 1_555
C2 C3 1_555 1_555
C3 C4 1_555 1_555
C4 C5 1_555 1_555
C5 N1 1_555 1_555
C6 N2 1_555 1_555
C7 N2 1_555 1_555
C8 C7 1_555 1_555
C9 C8 1_555 1_555
C10 C6 1_555 1_555
C11 C10 1_555 1_555
C12 C4 1_555 1_555
C13 N3 1_555 1_555
H1 C1 1_555 1_555
H2 C2 1_555 1_555
H3 C3 1_555 1_555
H4 C7 1_555 1_555
H5 C8 1_555 1_555
H6 C9 1_555 1_555
H7 C13 1_555 1_555
H8 O10 1_555 1_555
H9 O10 1_555 1_555
H10 O2 1_555 1_555
H11 O2 1_555 1_555
H12 N4 1_555 1_555
Cd1_2 O3 1_555 1_555
Cd1A O5 1_555 1_555
Cd1B N3 1_555 1_555
Cd2_2 O7 1_555 1_555
N3B Cd1 1_555 1_555
O3_2 Cd1 1_555 1_555
O5A Cd1 1_555 1_555
O7_2 Cd2 1_555 1_555
S1 O7 1_555 1_555
S2 O3 1_555 1_555
N4 C13 1_555 1_555
C5 C6 1_555 1_555
C9 C10 1_555 1_555
C11 C12 1_555 1_555
Cd1_2 O7_2 1_555 1_555
Cd2_2 O3_2 1_555 1_555

#END
