
#######################################################################
#
#                 Cambridge Crystallographic Data Centre
#                                CCDC 
#
#######################################################################
#
# If this CIF has been generated from an entry in the Cambridge 
# Structural Database, then it will include bibliographic, chemical, 
# crystal, experimental, refinement or atomic coordinate data resulting 
# from the CCDC's data processing and validation procedures.
#
#######################################################################

data_TOKPAK01
_symmetry_cell_setting           monoclinic
_symmetry_space_group_name_H-M   'C 2/c'
_symmetry_Int_Tables_number      15
_space_group_name_Hall           '-C 2yn'
loop_
_symmetry_equiv_pos_site_id
_symmetry_equiv_pos_as_xyz
1 x,y,z
2 -x,y,1/2-z
3 1/2+x,1/2+y,z
4 1/2-x,1/2+y,1/2-z
5 -x,-y,-z
6 x,-y,1/2+z
7 1/2-x,1/2-y,-z
8 1/2+x,1/2-y,1/2+z
_cell_length_a                   16.650(4)
_cell_length_b                   11.066(3)
_cell_length_c                   14.340(4)
_cell_angle_alpha                90
_cell_angle_beta                 116.42(2)
_cell_angle_gamma                90
_cell_volume                     2366.18
loop_
_atom_site_label
_atom_site_type_symbol
_atom_site_fract_x
_atom_site_fract_y
_atom_site_fract_z
Cu1 Cu 0.00000 0.10051(4) 0.2500
O1 O -0.10205(16) 0.1044(2) 0.11067(18)
N1 N 0.00000 0.2810(3) 0.2500
N2 N 0.00000 0.9194(3) 0.2500
C1 C 0.0750(2) 0.3435(3) 0.2722(3)
C2 C 0.0774(2) 0.4673(3) 0.2723(3)
C3 C 0.00000 0.5333(4) 0.2500
C4 C 0.00000 0.6689(4) 0.2500
C5 C -0.0745(2) 0.7330(3) 0.2397(3)
C6 C -0.0720(2) 0.8571(3) 0.2399(3)
H1 H -0.1571 0.0900 0.0979
H2 H -0.0993 0.0586 0.0666
H3 H 0.1245 0.3023 0.2799
H4 H 0.1303 0.4978 0.2917
H5 H -0.1320 0.6980 0.2359
H6 H -0.1236 0.8990 0.2342
C2A C -0.0774(2) 0.4673(3) 0.2277(3)
C1A C -0.0750(2) 0.3435(3) 0.2278(3)
H3A H -0.1245 0.3023 0.2201
H4A H -0.1303 0.4978 0.2083
C6A C 0.0720(2) 0.8571(3) 0.2601(3)
C5A C 0.0745(2) 0.7330(3) 0.2603(3)
H5A H 0.1320 0.6980 0.2641
H6A H 0.1236 0.8990 0.2658
O1A O 0.10205(16) 0.1044(2) 0.38933(18)
H1A H 0.1571 0.0900 0.4021
H2A H 0.0993 0.0586 0.4334
N2_2 N 0.00000 -0.0806(3) 0.2500
Cu1_2 Cu 0.00000 1.10051(4) 0.2500
N3 N -0.2717(2) 0.0634(3) 0.0663(3)
C7 C -0.3304(3) 0.1511(4) 0.0552(4)
C8 C -0.4191(3) 0.1311(4) 0.0289(3)
C9 C -0.4523(2) 0.0133(3) 0.0135(3)
C10 C -0.3923(3) -0.0776(4) 0.0235(4)
C11 C -0.3042(3) -0.0481(4) 0.0490(4)
H7 H -0.2976 0.2339 0.0632
H8 H -0.4586 0.1960 0.0231
H9 H -0.4153 -0.1640 -0.0002
H10 H -0.2727 -0.1124 0.0445
C9D C -0.5477(2) -0.0133(3) -0.0135(3)
C8D C -0.5809(3) -0.1311(4) -0.0289(3)
C7D C -0.6696(3) -0.1511(4) -0.0552(4)
N3D N -0.7283(2) -0.0634(3) -0.0663(3)
C11D C -0.6958(3) 0.0481(4) -0.0490(4)
C10D C -0.6077(3) 0.0776(4) -0.0235(4)
H9D H -0.5847 0.1640 0.0002
H10D H -0.7273 0.1124 -0.0445
H7D H -0.7024 -0.2339 -0.0632
H8D H -0.5414 -0.1960 -0.0231
Cl1 Cl 0.14927(7) 0.08481(8) 0.11557(8)
O2 O 0.0810(6) 0.1054(12) 0.1442(8)
O4 O 0.1935(11) -0.0235(17) 0.1421(17)
O6 O 0.1199(9) 0.1158(10) 0.0108(9)
O8 O 0.2180(9) 0.1725(16) 0.1742(11)
O3? O 0.1183(6) 0.1101(11) 0.1906(7)
O5? O 0.1651(13) -0.0428(16) 0.1184(15)
O7? O 0.0750(9) 0.0996(14) 0.0145(10)
O9? O 0.2156(9) 0.1587(13) 0.1202(12)
loop_
_geom_bond_atom_site_label_1
_geom_bond_atom_site_label_2
_geom_bond_site_symmetry_1
_geom_bond_site_symmetry_2
Cu1 O1 1_555 1_555
O1 H1 1_555 1_555
N1 Cu1 1_555 1_555
N2 C6 1_555 1_555
N3 C7 1_555 1_555
C1 N1 1_555 1_555
C2 C1 1_555 1_555
C3 C2 1_555 1_555
C4 C3 1_555 1_555
C5 C4 1_555 1_555
C6 C5 1_555 1_555
C7 C8 1_555 1_555
C8 C9 1_555 1_555
C9 C10 1_555 1_555
C10 C11 1_555 1_555
C11 N3 1_555 1_555
Cl1 O2 1_555 1_555
O4 Cl1 1_555 1_555
O6 Cl1 1_555 1_555
O8 Cl1 1_555 1_555
H2 O1 1_555 1_555
H3 C1 1_555 1_555
H4 C2 1_555 1_555
H5 C5 1_555 1_555
H6 C6 1_555 1_555
H7 C7 1_555 1_555
H8 C8 1_555 1_555
H9 C10 1_555 1_555
H10 C11 1_555 1_555
C2A C3 1_555 1_555
C1A N1 1_555 1_555
H3A C1A 1_555 1_555
H4A C2A 1_555 1_555
C6A N2 1_555 1_555
C5A C4 1_555 1_555
H5A C5A 1_555 1_555
H6A C6A 1_555 1_555
C9D C9 1_555 1_555
C8D C9D 1_555 1_555
C7D C8D 1_555 1_555
N3D C7D 1_555 1_555
C11D N3D 1_555 1_555
C10D C9D 1_555 1_555
H9D C10D 1_555 1_555
H10D C11D 1_555 1_555
H7D C7D 1_555 1_555
H8D C8D 1_555 1_555
O1A Cu1 1_555 1_555
H1A O1A 1_555 1_555
H2A O1A 1_555 1_555
N2_2 Cu1 1_555 1_555
Cu1_2 N2 1_555 1_555
C2A C1A 1_555 1_555
C6A C5A 1_555 1_555
C11D C10D 1_555 1_555

#END
