
#######################################################################
#
#                 Cambridge Crystallographic Data Centre
#                                CCDC 
#
#######################################################################
#
# If this CIF has been generated from an entry in the Cambridge 
# Structural Database, then it will include bibliographic, chemical, 
# crystal, experimental, refinement or atomic coordinate data resulting 
# from the CCDC's data processing and validation procedures.
#
#######################################################################

data_TOKQUH
_symmetry_cell_setting           triclinic
_symmetry_space_group_name_H-M   'P -1'
_symmetry_Int_Tables_number      2
_space_group_name_Hall           '-P 1'
loop_
_symmetry_equiv_pos_site_id
_symmetry_equiv_pos_as_xyz
1 x,y,z
2 -x,-y,-z
_cell_length_a                   10.269(2)
_cell_length_b                   11.696(3)
_cell_length_c                   17.101(4)
_cell_angle_alpha                73.414(3)
_cell_angle_beta                 84.529(3)
_cell_angle_gamma                73.546(3)
_cell_volume                     1887.63
loop_
_atom_site_label
_atom_site_type_symbol
_atom_site_fract_x
_atom_site_fract_y
_atom_site_fract_z
Mn1 Mn -0.01837(4) -0.16168(4) 0.15946(3)
Mn2 Mn 0.42889(4) 0.20738(4) 0.49878(3)
S1 S 0.29346(8) 0.41149(9) 0.71164(5)
S2 S 0.03974(9) -0.50564(10) 0.39811(5)
O1 O -0.3271(2) 0.2013(2) 0.52045(14)
O2 O -0.3909(2) 0.1433(2) 0.42279(14)
O3 O 0.1592(2) 0.2209(3) 0.52068(16)
O4 O 0.3058(2) 0.1421(2) 0.43583(14)
O5 O -0.0323(2) -0.0585(2) 0.24656(13)
O6 O 0.1436(2) 0.0227(3) 0.21514(14)
O7 O -0.2396(2) -0.1658(2) 0.15586(13)
O8 O -0.1575(2) -0.0328(2) 0.06178(13)
O9 O 0.1417(2) -0.0852(2) 0.10014(13)
H1 H 0.1471 -0.0410 0.0516
H2 H 0.1432 -0.0428 0.1328
O10 O 0.4772(2) 0.0418(2) 0.60027(13)
H3 H 0.4246 -0.0008 0.5964
H4 H 0.5578 0.0023 0.5911
N1 N 0.3675(2) 0.3167(2) 0.59279(14)
N2 N 0.3939(2) 0.4029(2) 0.42927(14)
N3 N 0.3264(2) 0.6028(2) 0.42609(15)
H5 H 0.2985 0.6681 0.4432
N4 N 0.0625(3) -0.3226(3) 0.10512(15)
N5 N 0.0173(2) -0.3336(2) 0.26580(14)
N6 N 0.1404(3) -0.5266(3) 0.12420(18)
H6 H 0.1634 -0.6043 0.1491
C1 C 0.3472(3) 0.2883(3) 0.67154(18)
H7 H 0.3611 0.2069 0.7034
C2 C 0.2993(3) 0.5089(3) 0.61677(19)
H8 H 0.2783 0.5947 0.6050
C3 C 0.3388(3) 0.4430(3) 0.56082(18)
C4 C 0.3535(3) 0.4847(3) 0.47238(17)
C5 C 0.3952(3) 0.4733(3) 0.34839(18)
C6 C 0.3518(3) 0.5992(3) 0.34574(19)
C7 C 0.3387(3) 0.6919(4) 0.2725(2)
H9 H 0.3089 0.7754 0.2708
C8 C 0.3721(4) 0.6529(4) 0.2028(2)
H10 H 0.3632 0.7120 0.1526
C9 C 0.4311(3) 0.4362(4) 0.27742(19)
H11 H 0.4622 0.3528 0.2787
C10 C 0.4189(4) 0.5280(4) 0.2048(2)
H12 H 0.4424 0.5061 0.1561
C11 C -0.2995(3) 0.1609(3) 0.45855(19)
C12 C -0.1567(3) 0.1349(3) 0.42611(17)
C13 C -0.0559(3) 0.1625(3) 0.45988(17)
H13 H -0.0769 0.1971 0.5037
C14 C 0.0764(3) 0.1390(3) 0.42912(16)
C15 C -0.1246(3) 0.0810(3) 0.36136(17)
H14 H -0.1914 0.0601 0.3395
C16 C 0.0070(3) 0.0585(3) 0.32932(17)
C17 C 0.1068(3) 0.0875(3) 0.36365(17)
H15 H 0.1949 0.0723 0.3425
C18 C 0.0419(3) 0.0030(3) 0.25844(18)
C19 C 0.1867(3) 0.1696(3) 0.46565(18)
C20 C -0.2525(3) -0.0824(3) 0.09066(18)
C21 C -0.3815(3) -0.0394(3) 0.04449(18)
C22 C -0.4191(3) 0.0789(3) -0.00834(19)
H16 H -0.3647 0.1323 -0.0138
C23 C -0.4633(3) -0.1179(4) 0.05295(19)
H17 H -0.4394 -0.1970 0.0886
C24 C 0.1945(5) -0.5241(5) -0.0239(3)
H18 H 0.2261 -0.6093 -0.0164
C25 C 0.1901(6) -0.4424(6) -0.0998(3)
H19 H 0.2193 -0.4731 -0.1448
C26 C 0.1431(6) -0.3150(5) -0.1115(3)
H20 H 0.1424 -0.2628 -0.1640
C27 C 0.0980(5) -0.2643(5) -0.0477(2)
H21 H 0.0669 -0.1790 -0.0557
C28 C 0.1007(4) -0.3461(4) 0.0298(2)
C29 C 0.1498(4) -0.4739(4) 0.0409(2)
C30 C 0.0882(3) -0.4330(3) 0.15847(19)
C31 C 0.0645(3) -0.4444(3) 0.24518(19)
C32 C 0.0831(3) -0.5472(4) 0.3093(2)
H22 H 0.1147 -0.6282 0.3055
C33 C -0.0005(3) -0.3534(3) 0.34477(18)
H23 H -0.0324 -0.2896 0.3698
O7A O -0.7604(2) 0.1658(2) -0.15586(13)
O8A O -0.8425(2) 0.0328(2) -0.06178(13)
C20A C -0.7475(3) 0.0824(3) -0.09066(18)
C21A C -0.6185(3) 0.0394(3) -0.04449(18)
C22A C -0.5809(3) -0.0789(3) 0.00834(19)
H16A H -0.6353 -0.1323 0.0138
C23A C -0.5367(3) 0.1179(4) -0.05295(19)
H17A H -0.5606 0.1970 -0.0886
Mn1A Mn -0.98163(4) 0.16168(4) -0.15946(3)
Mn2A Mn -1.42889(4) -0.20738(4) -0.49878(3)
S1A S -1.29346(8) -0.41149(9) -0.71164(5)
S2A S -1.03974(9) 0.50564(10) -0.39811(5)
O1A O -0.6729(2) -0.2013(2) -0.52045(14)
O2A O -0.6091(2) -0.1433(2) -0.42279(14)
O3A O -1.1592(2) -0.2209(3) -0.52068(16)
O4A O -1.3058(2) -0.1421(2) -0.43583(14)
O5A O -0.9677(2) 0.0585(2) -0.24656(13)
O6A O -1.1436(2) -0.0227(3) -0.21514(14)
O9A O -1.1417(2) 0.0852(2) -0.10014(13)
H1A H -1.1471 0.0410 -0.0516
H2A H -1.1432 0.0428 -0.1328
O10A O -1.4772(2) -0.0418(2) -0.60027(13)
H3A H -1.4246 0.0008 -0.5964
H4A H -1.5578 -0.0023 -0.5911
N1A N -1.3675(2) -0.3167(2) -0.59279(14)
N2A N -1.3939(2) -0.4029(2) -0.42927(14)
N3A N -1.3264(2) -0.6028(2) -0.42609(15)
H5A H -1.2985 -0.6681 -0.4432
N4A N -1.0625(3) 0.3226(3) -0.10512(15)
N5A N -1.0173(2) 0.3336(2) -0.26580(14)
N6A N -1.1404(3) 0.5266(3) -0.12420(18)
H6A H -1.1634 0.6043 -0.1491
C1A C -1.3472(3) -0.2883(3) -0.67154(18)
H7A H -1.3611 -0.2069 -0.7034
C2A C -1.2993(3) -0.5089(3) -0.61677(19)
H8A H -1.2783 -0.5947 -0.6050
C3A C -1.3388(3) -0.4430(3) -0.56082(18)
C4A C -1.3535(3) -0.4847(3) -0.47238(17)
C5A C -1.3952(3) -0.4733(3) -0.34839(18)
C6A C -1.3518(3) -0.5992(3) -0.34574(19)
C7A C -1.3387(3) -0.6919(4) -0.2725(2)
H9A H -1.3089 -0.7754 -0.2708
C8A C -1.3721(4) -0.6529(4) -0.2028(2)
H10A H -1.3632 -0.7120 -0.1526
C9A C -1.4311(3) -0.4362(4) -0.27742(19)
H11A H -1.4622 -0.3528 -0.2787
C10A C -1.4189(4) -0.5280(4) -0.2048(2)
H12A H -1.4424 -0.5061 -0.1561
C11A C -0.7005(3) -0.1609(3) -0.45855(19)
C12A C -0.8433(3) -0.1349(3) -0.42611(17)
C13A C -0.9441(3) -0.1625(3) -0.45988(17)
H13A H -0.9231 -0.1971 -0.5037
C14A C -1.0764(3) -0.1390(3) -0.42912(16)
C15A C -0.8754(3) -0.0810(3) -0.36136(17)
H14A H -0.8086 -0.0601 -0.3395
C16A C -1.0070(3) -0.0585(3) -0.32932(17)
C17A C -1.1068(3) -0.0875(3) -0.36365(17)
H15A H -1.1949 -0.0723 -0.3425
C18A C -1.0419(3) -0.0030(3) -0.25844(18)
C19A C -1.1867(3) -0.1696(3) -0.46565(18)
C24A C -1.1945(5) 0.5241(5) 0.0239(3)
H18A H -1.2261 0.6093 0.0164
C25A C -1.1901(6) 0.4424(6) 0.0998(3)
H19A H -1.2193 0.4731 0.1448
C26A C -1.1431(6) 0.3150(5) 0.1115(3)
H20A H -1.1424 0.2628 0.1640
C27A C -1.0980(5) 0.2643(5) 0.0477(2)
H21A H -1.0669 0.1790 0.0557
C28A C -1.1007(4) 0.3461(4) -0.0298(2)
C29A C -1.1498(4) 0.4739(4) -0.0409(2)
C30A C -1.0882(3) 0.4330(3) -0.15847(19)
C31A C -1.0645(3) 0.4444(3) -0.24518(19)
C32A C -1.0831(3) 0.5472(4) -0.3093(2)
H22A H -1.1147 0.6282 -0.3055
C33A C -0.9995(3) 0.3534(3) -0.34477(18)
H23A H -0.9676 0.2896 -0.3698
Mn2_2 Mn -0.57111(4) 0.20738(4) 0.49878(3)
Mn2A_2 Mn -0.42889(4) -0.20738(4) -0.49878(3)
O2_2 O 0.6091(2) 0.1433(2) 0.42279(14)
O2A_2 O -1.6091(2) -0.1433(2) -0.42279(14)
O11 O 0.2483(4) 0.2225(3) 0.1867(2)
H24 H 0.2056 0.1672 0.1973
C34 C 0.3750(8) 0.1724(9) 0.1619(6)
H25 H 0.3691 0.0971 0.1509
H26 H 0.3854 0.2281 0.1089
C35 C 0.4896(10) 0.1425(12) 0.1942(7)
H27 H 0.5459 0.1906 0.1602
H28 H 0.5319 0.0561 0.2001
H29 H 0.4784 0.1581 0.2469
loop_
_geom_bond_atom_site_label_1
_geom_bond_atom_site_label_2
_geom_bond_site_symmetry_1
_geom_bond_site_symmetry_2
Mn1 O5 1_555 1_555
Mn2 O4 1_555 1_555
S1 C1 1_555 1_555
S2 C32 1_555 1_555
O1 C11 1_555 1_555
O2 C11 1_555 1_555
O3 C19 1_555 1_555
O4 C19 1_555 1_555
O5 C18 1_555 1_555
O6 C18 1_555 1_555
O7 Mn1 1_555 1_555
O8 Mn1 1_555 1_555
O9 Mn1 1_555 1_555
H1 O9 1_555 1_555
H2 O9 1_555 1_555
O10 Mn2 1_555 1_555
H3 O10 1_555 1_555
H4 O10 1_555 1_555
N1 Mn2 1_555 1_555
N2 Mn2 1_555 1_555
N3 H5 1_555 1_555
N4 Mn1 1_555 1_555
N5 Mn1 1_555 1_555
N6 H6 1_555 1_555
C1 N1 1_555 1_555
H7 C1 1_555 1_555
C2 S1 1_555 1_555
H8 C2 1_555 1_555
C3 N1 1_555 1_555
C4 N2 1_555 1_555
C5 N2 1_555 1_555
C6 N3 1_555 1_555
C7 C6 1_555 1_555
H9 C7 1_555 1_555
C8 C7 1_555 1_555
H10 C8 1_555 1_555
C9 C5 1_555 1_555
H11 C9 1_555 1_555
C10 C8 1_555 1_555
H12 C10 1_555 1_555
C11 C12 1_555 1_555
C12 C13 1_555 1_555
C13 H13 1_555 1_555
C14 C13 1_555 1_555
C15 C12 1_555 1_555
H14 C15 1_555 1_555
C16 C15 1_555 1_555
C17 C14 1_555 1_555
H15 C17 1_555 1_555
C18 C16 1_555 1_555
C19 C14 1_555 1_555
C20 O7 1_555 1_555
C21 C20 1_555 1_555
C22 C21 1_555 1_555
H16 C22 1_555 1_555
C23 C21 1_555 1_555
H17 C23 1_555 1_555
C24 H18 1_555 1_555
C25 C24 1_555 1_555
H19 C25 1_555 1_555
C26 C25 1_555 1_555
H20 C26 1_555 1_555
C27 C26 1_555 1_555
H21 C27 1_555 1_555
C28 N4 1_555 1_555
C29 N6 1_555 1_555
C30 N4 1_555 1_555
C31 N5 1_555 1_555
C32 C31 1_555 1_555
H22 C32 1_555 1_555
C33 S2 1_555 1_555
H23 C33 1_555 1_555
O11 H24 1_555 1_555
C34 O11 1_555 1_555
H25 C34 1_555 1_555
H26 C34 1_555 1_555
C35 C34 1_555 1_555
H27 C35 1_555 1_555
H28 C35 1_555 1_555
H29 C35 1_555 1_555
O7A C20A 1_555 1_555
O8A C20A 1_555 1_555
C20A C21A 1_555 1_555
C21A C22A 1_555 1_555
C22A C23 1_555 1_555
H16A C22A 1_555 1_555
C23A C22 1_555 1_555
H17A C23A 1_555 1_555
Mn1A O7A 1_555 1_555
Mn2A O4A 1_555 1_555
S1A C1A 1_555 1_555
S2A C32A 1_555 1_555
O1A C11A 1_555 1_555
O2A C11A 1_555 1_555
O3A C19A 1_555 1_555
O4A C19A 1_555 1_555
O5A Mn1A 1_555 1_555
O6A C18A 1_555 1_555
O9A Mn1A 1_555 1_555
H1A O9A 1_555 1_555
H2A O9A 1_555 1_555
O10A Mn2A 1_555 1_555
H3A O10A 1_555 1_555
H4A O10A 1_555 1_555
N1A Mn2A 1_555 1_555
N2A Mn2A 1_555 1_555
N3A H5A 1_555 1_555
N4A Mn1A 1_555 1_555
N5A Mn1A 1_555 1_555
N6A H6A 1_555 1_555
C1A N1A 1_555 1_555
H7A C1A 1_555 1_555
C2A S1A 1_555 1_555
H8A C2A 1_555 1_555
C3A N1A 1_555 1_555
C4A N2A 1_555 1_555
C5A N2A 1_555 1_555
C6A N3A 1_555 1_555
C7A C6A 1_555 1_555
H9A C7A 1_555 1_555
C8A C7A 1_555 1_555
H10A C8A 1_555 1_555
C9A C5A 1_555 1_555
H11A C9A 1_555 1_555
C10A C8A 1_555 1_555
H12A C10A 1_555 1_555
C11A C12A 1_555 1_555
C12A C13A 1_555 1_555
C13A H13A 1_555 1_555
C14A C13A 1_555 1_555
C15A C12A 1_555 1_555
H14A C15A 1_555 1_555
C16A C15A 1_555 1_555
C17A C14A 1_555 1_555
H15A C17A 1_555 1_555
C18A O5A 1_555 1_555
C19A C14A 1_555 1_555
C24A H18A 1_555 1_555
C25A C24A 1_555 1_555
H19A C25A 1_555 1_555
C26A C25A 1_555 1_555
H20A C26A 1_555 1_555
C27A C26A 1_555 1_555
H21A C27A 1_555 1_555
C28A N4A 1_555 1_555
C29A N6A 1_555 1_555
C30A N4A 1_555 1_555
C31A N5A 1_555 1_555
C32A C31A 1_555 1_555
H22A C32A 1_555 1_555
C33A S2A 1_555 1_555
H23A C33A 1_555 1_555
Mn2_2 O2 1_555 1_555
Mn2A_2 O2A 1_555 1_555
O2_2 Mn2 1_555 1_555
O2A_2 Mn2A 1_555 1_555
O8 C20 1_555 1_555
N3 C4 1_555 1_555
N5 C33 1_555 1_555
N6 C30 1_555 1_555
C2 C3 1_555 1_555
C3 C4 1_555 1_555
C5 C6 1_555 1_555
C9 C10 1_555 1_555
C16 C17 1_555 1_555
C24 C29 1_555 1_555
C27 C28 1_555 1_555
C28 C29 1_555 1_555
C30 C31 1_555 1_555
O8A Mn1A 1_555 1_555
C21A C23A 1_555 1_555
N3A C4A 1_555 1_555
N5A C33A 1_555 1_555
N6A C30A 1_555 1_555
C2A C3A 1_555 1_555
C3A C4A 1_555 1_555
C5A C6A 1_555 1_555
C9A C10A 1_555 1_555
C16A C17A 1_555 1_555
C16A C18A 1_555 1_555
C24A C29A 1_555 1_555
C27A C28A 1_555 1_555
C28A C29A 1_555 1_555
C30A C31A 1_555 1_555

#END
