
#######################################################################
#
#                 Cambridge Crystallographic Data Centre
#                                CCDC 
#
#######################################################################
#
# If this CIF has been generated from an entry in the Cambridge 
# Structural Database, then it will include bibliographic, chemical, 
# crystal, experimental, refinement or atomic coordinate data resulting 
# from the CCDC's data processing and validation procedures.
#
#######################################################################

data_TOKQIV
_symmetry_cell_setting           triclinic
_symmetry_space_group_name_H-M   'P 1'
_symmetry_Int_Tables_number      1
_space_group_name_Hall           'P 1'
loop_
_symmetry_equiv_pos_site_id
_symmetry_equiv_pos_as_xyz
1 x,y,z
_cell_length_a                   9.0363(15)
_cell_length_b                   9.1349(16)
_cell_length_c                   10.1304(17)
_cell_angle_alpha                76.551(2)
_cell_angle_beta                 77.815(2)
_cell_angle_gamma                74.030(2)
_cell_volume                     772.168
loop_
_atom_site_label
_atom_site_type_symbol
_atom_site_fract_x
_atom_site_fract_y
_atom_site_fract_z
O1 O 0.6068(6) 0.5976(7) 1.1051(6)
O2 O 0.7245(7) 0.8348(7) 0.3219(6)
Mn1 Mn 0.75193(5) 0.47190(5) 0.25734(5)
Mn2 Mn 0.57954(5) -0.04750(6) 0.17004(5)
S1 S 0.1171(3) -0.2279(3) 0.4065(3)
S2 S 1.2149(3) 0.6548(3) 0.0185(3)
O3 O 0.5863(6) 0.3319(6) 0.3357(6)
O4 O 0.8289(6) 0.2876(6) 0.1298(6)
O5 O 0.7495(7) 0.0959(7) 0.0905(6)
O6 O 0.5016(6) 0.1455(6) 0.2905(6)
O7 O 0.6616(6) 0.6066(6) 0.4108(6)
O8 O 0.6668(6) 0.8221(7) 1.0145(6)
N1 N 0.3494(8) -0.1206(8) 0.2713(7)
N2 N 0.3931(8) 0.0994(8) 0.0437(8)
N3 N 0.1386(7) 0.1751(7) 0.0194(7)
H1 H 0.0399 0.1815 0.0359
N4 N 1.1895(7) 0.2556(8) 0.4116(8)
H2 H 1.2876 0.2522 0.3948
N5 N 0.9448(7) 0.3256(7) 0.3828(7)
N6 N 0.9839(8) 0.5517(8) 0.1514(8)
C1 C 0.7341(7) 0.1973(8) 0.1535(7)
C2 C 0.5934(8) 0.2247(7) 0.2722(7)
C3 C 0.5469(9) 0.8379(9) 0.7744(8)
H3 H 0.6071 0.9133 0.7668
H4 H 0.4412 0.8789 0.8167
C4 C 0.5455(8) 0.8105(9) 0.6292(7)
H5 H 0.4824 0.7377 0.6363
H6 H 0.5002 0.9074 0.5728
C5 C 0.7131(8) 0.7460(8) 0.5622(7)
H7 H 0.775(10) 0.821(8) 0.552(9)
C6 C 0.7016(8) 0.7233(9) 0.4171(7)
C7 C 0.7857(9) 0.5935(10) 0.6511(8)
H8 H 0.7302 0.5159 0.6527
H9 H 0.8933 0.5571 0.6107
C8 C 0.7799(9) 0.6121(9) 0.7946(8)
H10 H 0.8513 0.6746 0.7939
H11 H 0.8157 0.5110 0.8495
C9 C 0.6294(8) 0.7003(9) 1.0013(7)
C10 C 0.6171(8) 0.6880(8) 0.8628(8)
H12 H 0.550(10) 0.617(8) 0.873(9)
C11 C 0.8435(10) 0.1544(11) 0.6011(9)
H13 H 0.7381 0.1816 0.5938
C12 C 0.9553(7) 0.2212(8) 0.4971(8)
C13 C 1.1139(9) 0.1695(10) 0.5223(9)
C14 C 1.0529(12) 0.0039(12) 0.7242(11)
H14 H 1.0845 -0.0739 0.7971
C15 C 0.8995(13) 0.0485(12) 0.7118(12)
H15 H 0.8290 0.0062 0.7807
C16 C 1.1585(12) 0.0664(12) 0.6369(10)
H16 H 1.2610 0.0413 0.6526
C17 C 1.0841(9) 0.3439(8) 0.3361(8)
C18 C 1.1153(8) 0.4594(8) 0.2097(7)
C19 C 1.2474(10) 0.5009(10) 0.1534(9)
H17 H 1.3433 0.4541 0.1824
C20 C 1.0244(9) 0.6535(8) 0.0549(9)
H18 H 0.9519 0.7258 0.0052
C21 C 0.3139(9) -0.2314(10) 0.3770(10)
H19 H 0.3862 -0.3016 0.4282
C22 C 0.0826(10) -0.0767(11) 0.2780(10)
H20 H -0.0147 -0.0273 0.2529
C23 C 0.2210(9) -0.0362(8) 0.2146(8)
C24 C 0.2484(7) 0.0814(8) 0.0970(8)
C25 C 0.3725(9) 0.2167(8) -0.0796(8)
C26 C 0.2199(9) 0.2574(10) -0.0911(9)
C27 C 0.4839(11) 0.2739(11) -0.1686(11)
H21 H 0.5864 0.2470 -0.1524
C28 C 0.4396(10) 0.3752(11) -0.2861(11)
H22 H 0.5134 0.4172 -0.3512
C29 C 0.2833(13) 0.4149(12) -0.3076(11)
H23 H 0.2568 0.4771 -0.3899
C30 C 0.1651(12) 0.3618(11) -0.2059(11)
H24 H 0.0601 0.3937 -0.2147
O1_2 O 0.6068(6) 0.5976(7) 0.1051(6)
O2_2 O 0.7245(7) -0.1652(7) 0.3219(6)
Mn1_2 Mn 0.75193(5) 0.47190(5) 1.25734(5)
Mn2_2 Mn 0.57954(5) 0.95250(6) 0.17004(5)
Mn2_3 Mn 0.57954(5) 0.95250(6) 1.17004(5)
O8_2 O 0.6668(6) -0.1779(7) 0.0145(6)
loop_
_geom_bond_atom_site_label_1
_geom_bond_atom_site_label_2
_geom_bond_site_symmetry_1
_geom_bond_site_symmetry_2
O1 C9 1_555 1_555
O2 C6 1_555 1_555
Mn1 O3 1_555 1_555
Mn2 O5 1_555 1_555
S1 C21 1_555 1_555
S2 C19 1_555 1_555
O3 C2 1_555 1_555
O4 Mn1 1_555 1_555
O5 C1 1_555 1_555
O6 Mn2 1_555 1_555
O7 Mn1 1_555 1_555
O8 C9 1_555 1_555
N1 Mn2 1_555 1_555
N2 Mn2 1_555 1_555
N3 H1 1_555 1_555
N4 H2 1_555 1_555
N5 Mn1 1_555 1_555
N6 Mn1 1_555 1_555
C1 O4 1_555 1_555
C2 O6 1_555 1_555
C3 H3 1_555 1_555
H4 C3 1_555 1_555
C4 C3 1_555 1_555
H5 C4 1_555 1_555
H6 C4 1_555 1_555
C5 C4 1_555 1_555
H7 C5 1_555 1_555
C6 O7 1_555 1_555
C7 C5 1_555 1_555
H8 C7 1_555 1_555
H9 C7 1_555 1_555
C8 C7 1_555 1_555
H10 C8 1_555 1_555
H11 C8 1_555 1_555
C9 C10 1_555 1_555
C10 C3 1_555 1_555
H12 C10 1_555 1_555
C11 H13 1_555 1_555
C12 N5 1_555 1_555
C13 N4 1_555 1_555
C14 H14 1_555 1_555
C15 C11 1_555 1_555
H15 C15 1_555 1_555
C16 C13 1_555 1_555
H16 C16 1_555 1_555
C17 N4 1_555 1_555
C18 N6 1_555 1_555
C19 C18 1_555 1_555
H17 C19 1_555 1_555
C20 S2 1_555 1_555
H18 C20 1_555 1_555
C21 N1 1_555 1_555
H19 C21 1_555 1_555
C22 S1 1_555 1_555
H20 C22 1_555 1_555
C23 N1 1_555 1_555
C24 N2 1_555 1_555
C25 N2 1_555 1_555
C26 N3 1_555 1_555
C27 C25 1_555 1_555
H21 C27 1_555 1_555
C28 C27 1_555 1_555
H22 C28 1_555 1_555
C29 C28 1_555 1_555
H23 C29 1_555 1_555
C30 C26 1_555 1_555
H24 C30 1_555 1_555
O1_2 Mn1 1_555 1_555
O2_2 Mn2 1_555 1_555
Mn1_2 O1 1_555 1_555
Mn2_2 O2 1_555 1_555
Mn2_3 O8 1_555 1_555
O8_2 Mn2 1_555 1_555
N3 C24 1_555 1_555
N5 C17 1_555 1_555
N6 C20 1_555 1_555
C1 C2 1_555 1_555
C5 C6 1_555 1_555
C8 C10 1_555 1_555
C11 C12 1_555 1_555
C12 C13 1_555 1_555
C14 C15 1_555 1_555
C14 C16 1_555 1_555
C17 C18 1_555 1_555
C22 C23 1_555 1_555
C23 C24 1_555 1_555
C25 C26 1_555 1_555
C29 C30 1_555 1_555

#END
