
#######################################################################
#
#                 Cambridge Crystallographic Data Centre
#                                CCDC 
#
#######################################################################
#
# If this CIF has been generated from an entry in the Cambridge 
# Structural Database, then it will include bibliographic, chemical, 
# crystal, experimental, refinement or atomic coordinate data resulting 
# from the CCDC's data processing and validation procedures.
#
#######################################################################

data_TOKRES
_symmetry_cell_setting           orthorhombic
_symmetry_space_group_name_H-M   'P 21 21 21'
_symmetry_Int_Tables_number      19
_space_group_name_Hall           'P 2ac 2ab'
loop_
_symmetry_equiv_pos_site_id
_symmetry_equiv_pos_as_xyz
1 x,y,z
2 1/2-x,-y,1/2+z
3 -x,1/2+y,1/2-z
4 1/2+x,1/2-y,-z
_cell_length_a                   9.714(2)
_cell_length_b                   12.582(3)
_cell_length_c                   15.724(4)
_cell_angle_alpha                90
_cell_angle_beta                 90
_cell_angle_gamma                90
_cell_volume                     1921.81
loop_
_atom_site_label
_atom_site_type_symbol
_atom_site_fract_x
_atom_site_fract_y
_atom_site_fract_z
Zn1 Zn 0.17485(8) 0.42398(7) 0.90171(5)
C1 C 0.2806(7) 0.5715(7) 0.7547(4)
N1 N 1.0711(5) 0.4838(5) 0.6026(4)
N2 N 1.2238(6) 0.5038(5) 0.4979(4)
C2 C 0.3850(7) 0.5718(7) 0.6944(4)
N3 N 0.4505(6) 0.4755(5) 0.7020(4)
C3 C 0.1922(8) 0.6565(6) 0.7636(4)
H1 H 0.1241 0.6571 0.8051
C4 C 1.1218(7) 0.5473(6) 0.5412(4)
H2 H 1.0882 0.6151 0.5303
C5 C 1.2422(7) 0.4040(6) 0.5337(4)
C6 C 1.3352(9) 0.3221(6) 0.5166(5)
H3 H 1.4000 0.3284 0.4733
C7 C 1.1450(6) 0.3909(5) 0.5993(5)
C8 C 0.5706(7) 0.4400(7) 0.6527(5)
H4 H 0.5569 0.4580 0.5933
H5 H 0.5784 0.3633 0.6568
C9 C 0.7031(7) 0.4904(6) 0.6836(4)
H6 H 0.7218 0.4671 0.7413
H7 H 0.6930 0.5671 0.6842
C10 C 0.9553(7) 0.5093(7) 0.6576(5)
H8 H 0.9444 0.5858 0.6602
H9 H 0.9745 0.4840 0.7146
C11 C 1.3281(11) 0.2319(7) 0.5657(5)
H10 H 1.3888 0.1763 0.5550
C12 C 0.8231(7) 0.4599(7) 0.6264(4)
H11 H 0.8047 0.4836 0.5688
H12 H 0.8327 0.3831 0.6255
C13 C 1.2331(10) 0.2215(7) 0.6307(6)
H13 H 1.2328 0.1597 0.6632
C14 C 0.4060(9) 0.6570(7) 0.6399(5)
H14 H 0.4781 0.6582 0.6009
C15 C 0.3146(9) 0.7387(6) 0.6469(5)
H15 H 0.3225 0.7956 0.6095
C16 C 0.2090(9) 0.7411(7) 0.7079(5)
H16 H 0.1503 0.7994 0.7110
Cl1 Cl 0.2213(2) 0.25138(16) 0.91039(16)
C17 C 1.1383(9) 0.3006(8) 0.6488(5)
H17 H 1.0737 0.2933 0.6920
N4 N 0.2852(6) 0.4759(5) 0.7988(4)
Cl2 Cl -0.04422(18) 0.47468(18) 0.89990(15)
C18 C 0.3875(7) 0.4220(7) 0.7649(5)
H18 H 0.4134 0.3543 0.7825
Zn1A Zn 1.32515(8) 0.57602(7) 0.40171(5)
N2A N 0.2762(6) 0.4962(5) 0.9979(4)
loop_
_geom_bond_atom_site_label_1
_geom_bond_atom_site_label_2
_geom_bond_site_symmetry_1
_geom_bond_site_symmetry_2
Zn1 Cl1 1_555 1_555
C1 C2 1_555 1_555
N1 C4 1_555 1_555
N2 C4 1_555 1_555
C2 N3 1_555 1_555
N3 C8 1_555 1_555
C3 C1 1_555 1_555
H1 C3 1_555 1_555
C4 H2 1_555 1_555
C5 N2 1_555 1_555
C6 C5 1_555 1_555
H3 C6 1_555 1_555
C7 N1 1_555 1_555
C8 H4 1_555 1_555
H5 C8 1_555 1_555
C9 C8 1_555 1_555
H6 C9 1_555 1_555
H7 C9 1_555 1_555
C10 N1 1_555 1_555
H8 C10 1_555 1_555
H9 C10 1_555 1_555
C11 C6 1_555 1_555
H10 C11 1_555 1_555
C12 C9 1_555 1_555
H11 C12 1_555 1_555
H12 C12 1_555 1_555
C13 C11 1_555 1_555
H13 C13 1_555 1_555
C14 C2 1_555 1_555
H14 C14 1_555 1_555
C15 C14 1_555 1_555
H15 C15 1_555 1_555
C16 C3 1_555 1_555
H16 C16 1_555 1_555
C17 C7 1_555 1_555
H17 C17 1_555 1_555
N4 Zn1 1_555 1_555
Cl2 Zn1 1_555 1_555
C18 N3 1_555 1_555
H18 C18 1_555 1_555
Zn1A N2 1_555 1_555
N2A Zn1 1_555 1_555
C1 N4 1_555 1_555
C5 C7 1_555 1_555
C10 C12 1_555 1_555
C13 C17 1_555 1_555
C15 C16 1_555 1_555
N4 C18 1_555 1_555

#END
