
#######################################################################
#
#                 Cambridge Crystallographic Data Centre
#                                CCDC 
#
#######################################################################
#
# If this CIF has been generated from an entry in the Cambridge 
# Structural Database, then it will include bibliographic, chemical, 
# crystal, experimental, refinement or atomic coordinate data resulting 
# from the CCDC's data processing and validation procedures.
#
#######################################################################

data_TOKRES01
_symmetry_cell_setting           orthorhombic
_symmetry_space_group_name_H-M   'P 21 21 21'
_symmetry_Int_Tables_number      19
_space_group_name_Hall           'P 2ac 2ab'
loop_
_symmetry_equiv_pos_site_id
_symmetry_equiv_pos_as_xyz
1 x,y,z
2 1/2-x,-y,1/2+z
3 -x,1/2+y,1/2-z
4 1/2+x,1/2-y,-z
_cell_length_a                   9.6625(4)
_cell_length_b                   12.5258(5)
_cell_length_c                   15.6325(6)
_cell_angle_alpha                90
_cell_angle_beta                 90
_cell_angle_gamma                90
_cell_volume                     1892.01
loop_
_atom_site_label
_atom_site_type_symbol
_atom_site_fract_x
_atom_site_fract_y
_atom_site_fract_z
C1 C 0.8215(3) 1.0402(3) 0.87356(18)
H1 H 0.8028 1.0164 0.9314
H2 H 0.8315 1.1173 0.8746
Zn1 Zn 0.17471(3) 1.07603(2) 0.59829(2)
C2 C 0.3869(3) 1.0784(3) 0.73529(18)
H3 H 0.4126 1.1466 0.7180
C3 C 0.3854(3) 0.9282(3) 0.80527(18)
C4 C 0.2808(3) 0.9283(2) 0.74393(17)
C5 C 0.1910(3) 0.8430(2) 0.73631(19)
H4 H 0.1213 0.8423 0.6953
C6 C 0.2090(3) 0.7587(3) 0.7919(2)
H5 H 0.1497 0.7004 0.7888
C7 C 0.3140(4) 0.7592(3) 0.8526(2)
H6 H 0.3227 0.7010 0.8892
C8 C 0.4053(3) 0.8424(3) 0.8605(2)
H7 H 0.4765 0.8415 0.9006
C9 C 0.5700(3) 1.0608(3) 0.8471(2)
H8 H 0.5560 1.0431 0.9069
H9 H 0.5778 1.1378 0.8426
C10 C 0.7018(3) 1.0104(2) 0.81653(19)
H10 H 0.7208 1.0337 0.7585
H11 H 0.6912 0.9334 0.8159
C11 C 0.9543(3) 0.9903(3) 0.8423(2)
H12 H 0.9428 0.9135 0.8395
H13 H 0.9739 1.0159 0.7850
C12 C 1.1220(3) 0.9526(2) 0.95893(18)
H14 H 1.0886 0.8844 0.9703
C13 C 1.1449(3) 1.1092(2) 0.9003(2)
C14 C 1.2413(3) 1.0968(2) 0.96556(17)
C15 C 1.3345(4) 1.1765(2) 0.9838(2)
H15 H 1.3989 1.1693 1.0277
C16 C 1.3287(4) 1.2670(3) 0.9350(2)
H16 H 1.3905 1.3223 0.9457
C17 C 1.2327(4) 1.2780(3) 0.8698(2)
H17 H 1.2320 1.3410 0.8383
C18 C 1.1392(3) 1.2004(3) 0.8499(2)
H18 H 1.0758 1.2080 0.8055
N1 N 0.2847(2) 1.02500(19) 0.70080(16)
N2 N 0.4504(2) 1.0251(2) 0.79780(16)
N3 N 1.2239(2) 0.99622(19) 1.00151(16)
N4 N 1.0707(2) 1.0152(2) 0.89771(17)
Cl1 Cl 0.22075(10) 1.24908(6) 0.58987(7)
Cl2 Cl -0.04430(7) 1.02528(7) 0.60011(6)
Zn1A Zn 1.32529(3) 0.92397(2) 1.09829(2)
N3A N 0.2761(2) 1.00378(19) 0.50151(16)
loop_
_geom_bond_atom_site_label_1
_geom_bond_atom_site_label_2
_geom_bond_site_symmetry_1
_geom_bond_site_symmetry_2
C1 H1 1_555 1_555
H2 C1 1_555 1_555
Zn1 N1 1_555 1_555
C2 H3 1_555 1_555
C3 C4 1_555 1_555
C4 C5 1_555 1_555
C5 H4 1_555 1_555
C6 C5 1_555 1_555
H5 C6 1_555 1_555
C7 C6 1_555 1_555
H6 C7 1_555 1_555
C8 C3 1_555 1_555
H7 C8 1_555 1_555
C9 H8 1_555 1_555
H9 C9 1_555 1_555
C10 C1 1_555 1_555
H10 C10 1_555 1_555
H11 C10 1_555 1_555
C11 C1 1_555 1_555
H12 C11 1_555 1_555
H13 C11 1_555 1_555
C12 H14 1_555 1_555
C13 C14 1_555 1_555
C14 C15 1_555 1_555
C15 H15 1_555 1_555
C16 C15 1_555 1_555
H16 C16 1_555 1_555
C17 C16 1_555 1_555
H17 C17 1_555 1_555
C18 C13 1_555 1_555
H18 C18 1_555 1_555
N1 C2 1_555 1_555
N2 C2 1_555 1_555
N3 C12 1_555 1_555
N4 C11 1_555 1_555
Cl1 Zn1 1_555 1_555
Cl2 Zn1 1_555 1_555
Zn1A N3 1_555 1_555
N3A Zn1 1_555 1_555
C3 N2 1_555 1_555
C4 N1 1_555 1_555
C7 C8 1_555 1_555
C9 C10 1_555 1_555
C9 N2 1_555 1_555
C12 N4 1_555 1_555
C13 N4 1_555 1_555
C14 N3 1_555 1_555
C17 C18 1_555 1_555

#END
