
#######################################################################
#
#                 Cambridge Crystallographic Data Centre
#                                CCDC 
#
#######################################################################
#
# If this CIF has been generated from an entry in the Cambridge 
# Structural Database, then it will include bibliographic, chemical, 
# crystal, experimental, refinement or atomic coordinate data resulting 
# from the CCDC's data processing and validation procedures.
#
#######################################################################

data_TOKVUM
_symmetry_cell_setting           monoclinic
_symmetry_space_group_name_H-M   'C 2/c'
_symmetry_Int_Tables_number      15
_space_group_name_Hall           '-C 2yn'
loop_
_symmetry_equiv_pos_site_id
_symmetry_equiv_pos_as_xyz
1 x,y,z
2 -x,y,1/2-z
3 1/2+x,1/2+y,z
4 1/2-x,1/2+y,1/2-z
5 -x,-y,-z
6 x,-y,1/2+z
7 1/2-x,1/2-y,-z
8 1/2+x,1/2-y,1/2+z
_cell_length_a                   17.239(7)
_cell_length_b                   15.262(6)
_cell_length_c                   18.774(7)
_cell_angle_alpha                90
_cell_angle_beta                 93.069(8)
_cell_angle_gamma                90
_cell_volume                     4932.39
loop_
_atom_site_label
_atom_site_type_symbol
_atom_site_fract_x
_atom_site_fract_y
_atom_site_fract_z
C1 C 0.3069(3) 0.6309(4) 0.3093(3)
H1 H 0.3222 0.6855 0.2932
C2 C 0.2540(3) 0.6273(4) 0.3625(3)
C3 C 0.2334(4) 0.5450(4) 0.3878(3)
H2 H 0.1995 0.5398 0.4245
C4 C 0.2641(4) 0.4718(4) 0.3575(4)
H3 H 0.2505 0.4164 0.3731
C5 C 0.3151(3) 0.4806(4) 0.3042(3)
H4 H 0.3353 0.4304 0.2841
C6 C 0.2223(3) 0.7078(4) 0.3917(3)
C7 C 0.1565(3) 0.7921(4) 0.4516(3)
C8 C 0.1003(3) 0.8283(4) 0.4999(3)
C9 C 0.0487(5) 0.7707(5) 0.5302(4)
H5 H 0.0499 0.7111 0.5199
C10 C -0.0027(5) 0.8028(5) 0.5745(4)
H6 H -0.0387 0.7641 0.5920
C11 C 0.0423(3) 0.9409(4) 0.5668(3)
H7 H 0.0409 0.9997 0.5799
C12 C 0.0955(3) 0.9149(4) 0.5182(3)
H8 H 0.1277 0.9560 0.4982
C13 C 0.2698(4) 0.5756(5) 0.1024(4)
C14 C 0.1889(4) 0.5562(4) 0.0722(4)
C15 C 0.1485(4) 0.4879(5) 0.0996(4)
H9 H 0.1711 0.4549 0.1368
C16 C 0.0749(4) 0.4674(6) 0.0729(4)
H10 H 0.0478 0.4224 0.0939
C17 C 0.0399(3) 0.5122(4) 0.0153(3)
C18 C 0.0810(4) 0.5815(4) -0.0125(4)
H11 H 0.0599 0.6125 -0.0516
C19 C 0.1529(4) 0.6048(4) 0.0172(4)
H12 H 0.1777 0.6540 0.0002
C20 C 0.5000 0.7477(5) 0.2500
C21 C 0.5000 0.8469(5) 0.2500
C22 C 0.4340(3) 0.8923(4) 0.2262(3)
H13 H 0.3894 0.8622 0.2103
C23 C 0.4351(4) 0.9830(4) 0.2263(3)
H14 H 0.3909 1.0133 0.2098
C24 C 0.5000 1.0296(5) 0.2500
C25 C 0.5000 1.1278(5) 0.2500
C26 C 0.5246(5) 1.1732(4) 0.3112(4)
H15 H 0.5413 1.1432 0.3524
C27 C 0.5237(4) 1.2640(4) 0.3099(3)
H16 H 0.5397 1.2940 0.3512
C28 C 0.5000 1.3123(5) 0.2500
C29 C 0.5000 1.4101(5) 0.2500
Cd1 Cd 0.41247(2) 0.57743(3) 0.18298(2)
N1 N 0.3365(3) 0.5595(3) 0.2803(3)
N2 N 0.1697(3) 0.7082(3) 0.4428(2)
N3 N 0.2422(3) 0.7861(4) 0.3689(3)
N4 N 0.1992(3) 0.8399(4) 0.4086(3)
H17 H 0.1994 0.8962 0.4064
N5 N -0.0060(3) 0.8863(4) 0.5953(3)
O1 O 0.2936(3) 0.6534(3) 0.1091(3)
O2 O 0.3120(2) 0.5133(3) 0.1206(2)
O3 O 0.4383(2) 0.7101(3) 0.2289(2)
O4 O 0.5272(2) 1.4475(2) 0.3052(2)
C13D C -0.2698(4) 0.4244(5) -0.1024(4)
C14D C -0.1889(4) 0.4438(4) -0.0722(4)
C15D C -0.1485(4) 0.5121(5) -0.0996(4)
H9D H -0.1711 0.5451 -0.1368
C16D C -0.0749(4) 0.5326(6) -0.0729(4)
H10D H -0.0478 0.5776 -0.0939
C17D C -0.0399(3) 0.4878(4) -0.0153(3)
C18D C -0.0810(4) 0.4185(4) 0.0125(4)
H11D H -0.0599 0.3875 0.0516
C19D C -0.1529(4) 0.3952(4) -0.0172(4)
H12D H -0.1777 0.3460 -0.0002
O1D O -0.2936(3) 0.3466(3) -0.1091(3)
O2D O -0.3120(2) 0.4867(3) -0.1206(2)
C22A C 0.5660(3) 0.8923(4) 0.2738(3)
H13A H 0.6106 0.8622 0.2897
C23A C 0.5649(4) 0.9830(4) 0.2737(3)
H14A H 0.6091 1.0133 0.2902
C26A C 0.4754(5) 1.1732(4) 0.1888(4)
H15A H 0.4587 1.1432 0.1476
C27A C 0.4763(4) 1.2640(4) 0.1901(3)
H16A H 0.4603 1.2940 0.1488
O3A O 0.5617(2) 0.7101(3) 0.2711(2)
O4A O 0.4728(2) 1.4475(2) 0.1948(2)
C1A C 0.6931(3) 0.6309(4) 0.1907(3)
H1A H 0.6778 0.6855 0.2068
C2A C 0.7460(3) 0.6273(4) 0.1375(3)
C3A C 0.7666(4) 0.5450(4) 0.1122(3)
H2A H 0.8005 0.5398 0.0755
C4A C 0.7359(4) 0.4718(4) 0.1425(4)
H3A H 0.7495 0.4164 0.1269
C5A C 0.6849(3) 0.4806(4) 0.1958(3)
H4A H 0.6647 0.4304 0.2159
C6A C 0.7777(3) 0.7078(4) 0.1083(3)
C7A C 0.8435(3) 0.7921(4) 0.0484(3)
C8A C 0.8997(3) 0.8283(4) 0.0001(3)
C9A C 0.9513(5) 0.7707(5) -0.0302(4)
H5A H 0.9501 0.7111 -0.0199
C10A C 1.0027(5) 0.8028(5) -0.0745(4)
H6A H 1.0387 0.7641 -0.0920
C11A C 0.9577(3) 0.9409(4) -0.0668(3)
H7A H 0.9591 0.9997 -0.0799
C12A C 0.9045(3) 0.9149(4) -0.0182(3)
H8A H 0.8723 0.9560 0.0018
Cd1A Cd 0.58753(2) 0.57743(3) 0.31702(2)
N1A N 0.6635(3) 0.5595(3) 0.2197(3)
N2A N 0.8303(3) 0.7082(3) 0.0572(2)
N3A N 0.7578(3) 0.7861(4) 0.1311(3)
N4A N 0.8008(3) 0.8399(4) 0.0914(3)
H17A H 0.8006 0.8962 0.0936
N5A N 1.0060(3) 0.8863(4) -0.0953(3)
Cd1_2 Cd 0.41247(2) 1.57743(3) 0.18298(2)
Cd1A_2 Cd 0.58753(2) 1.57743(3) 0.31702(2)
Cd1D Cd -0.41247(2) 0.42257(3) -0.18298(2)
Cd1F Cd 1.08753(2) 0.92257(3) -0.18298(2)
Cd1G Cd -0.08753(2) 0.92257(3) 0.68298(2)
N5F N 0.5060(3) 0.6137(4) 0.4047(3)
N5G N 0.4940(3) 0.6137(4) 0.0953(3)
O1A O 0.7064(3) 0.6534(3) 0.3909(3)
O2A O 0.6880(2) 0.5133(3) 0.3794(2)
O4_2 O 0.5272(2) 0.4475(2) 0.3052(2)
O4A_2 O 0.4728(2) 0.4475(2) 0.1948(2)
O5 O 0.3123(7) 0.2706(6) 0.3349(6)
O6 O 0.1173(7) 0.1430(8) 0.5399(7)
loop_
_geom_bond_atom_site_label_1
_geom_bond_atom_site_label_2
_geom_bond_site_symmetry_1
_geom_bond_site_symmetry_2
C1 H1 1_555 1_555
C2 C1 1_555 1_555
C3 C2 1_555 1_555
H2 C3 1_555 1_555
C4 C3 1_555 1_555
H3 C4 1_555 1_555
C5 C4 1_555 1_555
H4 C5 1_555 1_555
C6 C2 1_555 1_555
C7 C8 1_555 1_555
C8 C9 1_555 1_555
C9 H5 1_555 1_555
C10 C9 1_555 1_555
H6 C10 1_555 1_555
C11 H7 1_555 1_555
C12 C8 1_555 1_555
H8 C12 1_555 1_555
C13 C14 1_555 1_555
C14 C15 1_555 1_555
C15 H9 1_555 1_555
C16 C15 1_555 1_555
H10 C16 1_555 1_555
C17 C16 1_555 1_555
C18 C17 1_555 1_555
H11 C18 1_555 1_555
C19 C14 1_555 1_555
H12 C19 1_555 1_555
C20 C21 1_555 1_555
C21 C22 1_555 1_555
C22 H13 1_555 1_555
C23 C22 1_555 1_555
H14 C23 1_555 1_555
C24 C23 1_555 1_555
C25 C24 1_555 1_555
C26 C25 1_555 1_555
H15 C26 1_555 1_555
C27 C26 1_555 1_555
H16 C27 1_555 1_555
C28 C27 1_555 1_555
C29 C28 1_555 1_555
Cd1 N1 1_555 1_555
N1 C1 1_555 1_555
N2 C6 1_555 1_555
N3 C6 1_555 1_555
N4 C7 1_555 1_555
H17 N4 1_555 1_555
N5 C10 1_555 1_555
O1 C13 1_555 1_555
O2 C13 1_555 1_555
O3 C20 1_555 1_555
O4 C29 1_555 1_555
C13D C14D 1_555 1_555
C14D C15D 1_555 1_555
C15D H9D 1_555 1_555
C16D C15D 1_555 1_555
H10D C16D 1_555 1_555
C17D C17 1_555 1_555
C18D C17D 1_555 1_555
H11D C18D 1_555 1_555
C19D C14D 1_555 1_555
H12D C19D 1_555 1_555
O1D C13D 1_555 1_555
O2D C13D 1_555 1_555
C22A C21 1_555 1_555
H13A C22A 1_555 1_555
C23A C24 1_555 1_555
H14A C23A 1_555 1_555
C26A C25 1_555 1_555
H15A C26A 1_555 1_555
C27A C28 1_555 1_555
H16A C27A 1_555 1_555
O3A C20 1_555 1_555
O4A C29 1_555 1_555
C1A H1A 1_555 1_555
C2A C1A 1_555 1_555
C3A C2A 1_555 1_555
H2A C3A 1_555 1_555
C4A C3A 1_555 1_555
H3A C4A 1_555 1_555
C5A C4A 1_555 1_555
H4A C5A 1_555 1_555
C6A C2A 1_555 1_555
C7A C8A 1_555 1_555
C8A C9A 1_555 1_555
C9A H5A 1_555 1_555
C10A C9A 1_555 1_555
H6A C10A 1_555 1_555
C11A H7A 1_555 1_555
C12A C8A 1_555 1_555
H8A C12A 1_555 1_555
Cd1A O3A 1_555 1_555
N1A C1A 1_555 1_555
N2A C6A 1_555 1_555
N3A C6A 1_555 1_555
N4A C7A 1_555 1_555
H17A N4A 1_555 1_555
N5A C10A 1_555 1_555
Cd1_2 O4A 1_555 1_555
Cd1A_2 O4 1_555 1_555
Cd1D O1D 1_555 1_555
Cd1F N5A 1_555 1_555
Cd1G N5 1_555 1_555
N5F Cd1A 1_555 1_555
N5G Cd1 1_555 1_555
O1A Cd1A 1_555 1_555
O2A Cd1A 1_555 1_555
O4_2 Cd1A 1_555 1_555
O4A_2 Cd1 1_555 1_555
C5 N1 1_555 1_555
C7 N2 1_555 1_555
C11 C12 1_555 1_555
C11 N5 1_555 1_555
C18 C19 1_555 1_555
Cd1 O1 1_555 1_555
Cd1 O2 1_555 1_555
Cd1 O3 1_555 1_555
N3 N4 1_555 1_555
C16D C17D 1_555 1_555
C18D C19D 1_555 1_555
O2D Cd1D 1_555 1_555
C22A C23A 1_555 1_555
C26A C27A 1_555 1_555
C5A N1A 1_555 1_555
C7A N2A 1_555 1_555
C11A C12A 1_555 1_555
C11A N5A 1_555 1_555
Cd1A N1A 1_555 1_555
N3A N4A 1_555 1_555

#END
