
#######################################################################
#
#                 Cambridge Crystallographic Data Centre
#                                CCDC 
#
#######################################################################
#
# If this CIF has been generated from an entry in the Cambridge 
# Structural Database, then it will include bibliographic, chemical, 
# crystal, experimental, refinement or atomic coordinate data resulting 
# from the CCDC's data processing and validation procedures.
#
#######################################################################

data_TOKXAU
_symmetry_cell_setting           monoclinic
_symmetry_space_group_name_H-M   'C 2/c'
_symmetry_Int_Tables_number      15
_space_group_name_Hall           '-C 2yn'
loop_
_symmetry_equiv_pos_site_id
_symmetry_equiv_pos_as_xyz
1 x,y,z
2 -x,y,1/2-z
3 1/2+x,1/2+y,z
4 1/2-x,1/2+y,1/2-z
5 -x,-y,-z
6 x,-y,1/2+z
7 1/2-x,1/2-y,-z
8 1/2+x,1/2-y,1/2+z
_cell_length_a                   24.162(8)
_cell_length_b                   11.989(4)
_cell_length_c                   10.372(3)
_cell_angle_alpha                90
_cell_angle_beta                 111.622(5)
_cell_angle_gamma                90
_cell_volume                     2793.13
loop_
_atom_site_label
_atom_site_type_symbol
_atom_site_fract_x
_atom_site_fract_y
_atom_site_fract_z
Ni1 Ni 0.2500 0.2500 0.0000
O1 O 0.30186(7) 0.18633(15) 0.18959(17)
O2 O 0.29163(12) 0.3113(2) 0.3356(2)
O3 O 0.5000 -0.1037(3) 0.7500
O4 O 0.27014(8) 0.10593(16) -0.08548(18)
H1 H 0.2554 0.1231 -0.1711
H2 H 0.2592 0.0428 -0.0654
N1 N 0.17249(9) 0.17997(18) 0.0173(2)
C1 C 0.31538(11) 0.2276(2) 0.3076(3)
C2 C 0.36375(11) 0.1686(2) 0.4235(3)
C3 C 0.38530(12) 0.0670(2) 0.4005(3)
H3 H 0.3702 0.0349 0.3128
C4 C 0.42899(12) 0.0127(2) 0.5067(3)
H4 H 0.4424 -0.0567 0.4908
C5 C 0.45320(12) 0.0608(2) 0.6377(3)
C6 C 0.43205(13) 0.1625(3) 0.6608(3)
H5 H 0.4480 0.1953 0.7480
C7 C 0.38722(14) 0.2163(3) 0.5550(3)
H6 H 0.3728 0.2845 0.5718
C8 C 0.5000 -0.0023(3) 0.7500
C9 C 0.17456(13) 0.0900(3) 0.0938(3)
H7 H 0.2112 0.0559 0.1389
C10 C 0.12482(14) 0.0447(3) 0.1094(4)
H8 H 0.1287 -0.0184 0.1642
C11 C 0.06975(13) 0.0921(3) 0.0446(3)
C12 C 0.06752(12) 0.1852(3) -0.0351(3)
H9 H 0.0313 0.2202 -0.0818
C13 C 0.11914(12) 0.2265(2) -0.0456(3)
H10 H 0.1165 0.2899 -0.0992
C14 C 0.01429(14) 0.0424(3) 0.0564(4)
H11 H 0.0246 0.0068 0.1462
H12 H -0.0140 0.1015 0.0503
O1A O 0.69814(7) 0.18633(15) 1.31041(17)
O2A O 0.70837(12) 0.3113(2) 1.1644(2)
C1A C 0.68462(11) 0.2276(2) 1.1924(3)
C2A C 0.63625(11) 0.1686(2) 1.0765(3)
C3A C 0.61470(12) 0.0670(2) 1.0995(3)
H3A H 0.6298 0.0349 1.1872
C4A C 0.57101(12) 0.0127(2) 0.9933(3)
H4A H 0.5576 -0.0567 1.0092
C5A C 0.54680(12) 0.0608(2) 0.8623(3)
C6A C 0.56795(13) 0.1625(3) 0.8392(3)
H5A H 0.5520 0.1953 0.7520
C7A C 0.61278(14) 0.2163(3) 0.9450(3)
H6A H 0.6272 0.2845 0.9282
N1D N -0.17249(9) -0.17997(18) -0.0173(2)
C9D C -0.17456(13) -0.0900(3) -0.0938(3)
H7D H -0.2112 -0.0559 -0.1389
C10D C -0.12482(14) -0.0447(3) -0.1094(4)
H8D H -0.1287 0.0184 -0.1642
C11D C -0.06975(13) -0.0921(3) -0.0446(3)
C12D C -0.06752(12) -0.1852(3) 0.0351(3)
H9D H -0.0313 -0.2202 0.0818
C13D C -0.11914(12) -0.2265(2) 0.0456(3)
H10D H -0.1165 -0.2899 0.0992
C14D C -0.01429(14) -0.0424(3) -0.0564(4)
H11D H -0.0246 -0.0068 -0.1462
H12D H 0.0140 -0.1015 -0.0503
O4F O 0.22986(8) 0.39407(16) 0.08548(18)
H1F H 0.2446 0.3769 0.1711
H2F H 0.2408 0.4572 0.0654
Ni1A Ni 0.7500 0.2500 1.5000
Ni1B Ni -0.2500 -0.2500 0.0000
O1F O 0.19814(7) 0.31367(15) -0.18959(17)
N1F N 0.32751(9) 0.32003(18) -0.0173(2)
O5 O 0.26917(17) 0.3967(2) 0.5520(4)
H13 H 0.2541 0.3832 0.4605
H14 H 0.2719 0.3400 0.6041
loop_
_geom_bond_atom_site_label_1
_geom_bond_atom_site_label_2
_geom_bond_site_symmetry_1
_geom_bond_site_symmetry_2
Ni1 O1 1_555 1_555
O1 C1 1_555 1_555
O2 C1 1_555 1_555
O3 C8 1_555 1_555
O4 Ni1 1_555 1_555
H1 O4 1_555 1_555
H2 O4 1_555 1_555
N1 Ni1 1_555 1_555
C1 C2 1_555 1_555
C2 C3 1_555 1_555
C3 H3 1_555 1_555
C4 C3 1_555 1_555
H4 C4 1_555 1_555
C5 C4 1_555 1_555
C6 C5 1_555 1_555
H5 C6 1_555 1_555
C7 C2 1_555 1_555
H6 C7 1_555 1_555
C8 C5 1_555 1_555
C9 N1 1_555 1_555
H7 C9 1_555 1_555
C10 C9 1_555 1_555
H8 C10 1_555 1_555
C11 C10 1_555 1_555
C12 C11 1_555 1_555
H9 C12 1_555 1_555
C13 N1 1_555 1_555
H10 C13 1_555 1_555
C14 C11 1_555 1_555
H11 C14 1_555 1_555
H12 C14 1_555 1_555
O5 H13 1_555 1_555
H14 O5 1_555 1_555
O1A C1A 1_555 1_555
O2A C1A 1_555 1_555
C1A C2A 1_555 1_555
C2A C3A 1_555 1_555
C3A H3A 1_555 1_555
C4A C3A 1_555 1_555
H4A C4A 1_555 1_555
C5A C8 1_555 1_555
C6A C5A 1_555 1_555
H5A C6A 1_555 1_555
C7A C2A 1_555 1_555
H6A C7A 1_555 1_555
N1D C9D 1_555 1_555
C9D H7D 1_555 1_555
C10D C9D 1_555 1_555
H8D C10D 1_555 1_555
C11D C10D 1_555 1_555
C12D C11D 1_555 1_555
H9D C12D 1_555 1_555
C13D N1D 1_555 1_555
H10D C13D 1_555 1_555
C14D C14 1_555 1_555
H11D C14D 1_555 1_555
H12D C14D 1_555 1_555
O4F Ni1 1_555 1_555
H1F O4F 1_555 1_555
H2F O4F 1_555 1_555
Ni1A O1A 1_555 1_555
Ni1B N1D 1_555 1_555
O1F Ni1 1_555 1_555
N1F Ni1 1_555 1_555
C6 C7 1_555 1_555
C12 C13 1_555 1_555
C4A C5A 1_555 1_555
C6A C7A 1_555 1_555
C11D C14D 1_555 1_555
C12D C13D 1_555 1_555

#END
