
#######################################################################
#
#                 Cambridge Crystallographic Data Centre
#                                CCDC 
#
#######################################################################
#
# If this CIF has been generated from an entry in the Cambridge 
# Structural Database, then it will include bibliographic, chemical, 
# crystal, experimental, refinement or atomic coordinate data resulting 
# from the CCDC's data processing and validation procedures.
#
#######################################################################

data_TOKYOI
_symmetry_cell_setting           monoclinic
_symmetry_space_group_name_H-M   'C 2/c'
_symmetry_Int_Tables_number      15
_space_group_name_Hall           '-C 2yn'
loop_
_symmetry_equiv_pos_site_id
_symmetry_equiv_pos_as_xyz
1 x,y,z
2 -x,y,1/2-z
3 1/2+x,1/2+y,z
4 1/2-x,1/2+y,1/2-z
5 -x,-y,-z
6 x,-y,1/2+z
7 1/2-x,1/2-y,-z
8 1/2+x,1/2-y,1/2+z
_cell_length_a                   13.403(3)
_cell_length_b                   10.052(2)
_cell_length_c                   8.915(2)
_cell_angle_alpha                90
_cell_angle_beta                 98.671(3)
_cell_angle_gamma                90
_cell_volume                     1187.36
loop_
_atom_site_label
_atom_site_type_symbol
_atom_site_fract_x
_atom_site_fract_y
_atom_site_fract_z
Ni1 Ni 0.5000 0.65236(14) 0.2500
O1 O 0.4166(4) 0.6259(6) 0.0352(6)
N1 N 0.5985(5) 0.7856(8) 0.1840(8)
C1 C 0.5913(12) 0.8476(13) 0.0517(18)
H1 H 0.5368 0.8427 -0.0262
C2 C 0.6777(14) 0.9203(18) 0.049(2)
H2 H 0.6942 0.9709 -0.0312
C3 C 0.4522(5) 0.5359(8) -0.0381(7)
C4 C 0.6868(6) 0.8176(9) 0.2545(8)
H3 H 0.7136 0.7805 0.3475
N2 N 0.7342(6) 0.9030(9) 0.1879(9)
H4 H 0.7901 0.9417 0.2229
O2 O 0.4174(4) 0.5008(6) -0.1698(5)
Ni1D Ni 0.5000 0.34764(14) -0.2500
O1D O 0.5834(4) 0.3741(6) -0.0352(6)
O1A O 0.5834(4) 0.6259(6) 0.4648(6)
N1A N 0.4015(5) 0.7856(8) 0.3160(8)
C1A C 0.4087(12) 0.8476(13) 0.4483(18)
H1A H 0.4632 0.8427 0.5262
C2A C 0.3223(14) 0.9203(18) 0.451(2)
H2A H 0.3058 0.9709 0.5312
C3D C 0.5478(5) 0.4641(8) 0.0381(7)
C4A C 0.3132(6) 0.8176(9) 0.2455(8)
H3A H 0.2864 0.7805 0.1525
N2A N 0.2658(6) 0.9030(9) 0.3121(9)
H4A H 0.2099 0.9417 0.2771
O2D O 0.5826(4) 0.4992(6) 0.1698(5)
O2E O 0.4174(4) 0.4992(6) 0.3302(5)
loop_
_geom_bond_atom_site_label_1
_geom_bond_atom_site_label_2
_geom_bond_site_symmetry_1
_geom_bond_site_symmetry_2
Ni1 O1 1_555 1_555
O1 C3 1_555 1_555
N1 Ni1 1_555 1_555
C1 N1 1_555 1_555
H1 C1 1_555 1_555
C2 C1 1_555 1_555
H2 C2 1_555 1_555
C3 O2 1_555 1_555
C4 N1 1_555 1_555
H3 C4 1_555 1_555
N2 C2 1_555 1_555
H4 N2 1_555 1_555
O2 Ni1D 1_555 1_555
Ni1D O1D 1_555 1_555
O1D C3D 1_555 1_555
O1A Ni1 1_555 1_555
N1A Ni1 1_555 1_555
C1A N1A 1_555 1_555
H1A C1A 1_555 1_555
C2A C1A 1_555 1_555
H2A C2A 1_555 1_555
C3D C3 1_555 1_555
C4A N1A 1_555 1_555
H3A C4A 1_555 1_555
N2A C2A 1_555 1_555
H4A N2A 1_555 1_555
O2D Ni1 1_555 1_555
O2E Ni1 1_555 1_555
C4 N2 1_555 1_555
C3D O2D 1_555 1_555
C4A N2A 1_555 1_555

#END
