
#######################################################################
#
#                 Cambridge Crystallographic Data Centre
#                                CCDC 
#
#######################################################################
#
# If this CIF has been generated from an entry in the Cambridge 
# Structural Database, then it will include bibliographic, chemical, 
# crystal, experimental, refinement or atomic coordinate data resulting 
# from the CCDC's data processing and validation procedures.
#
#######################################################################

data_TOKZEZ
_symmetry_cell_setting           orthorhombic
_symmetry_space_group_name_H-M   'F d d 2'
_symmetry_Int_Tables_number      43
_space_group_name_Hall           'F 2 -2d'
loop_
_symmetry_equiv_pos_site_id
_symmetry_equiv_pos_as_xyz
1 x,y,z
2 -x,-y,z
3 1/4-x,1/4+y,1/4+z
4 1/4+x,1/4-y,1/4+z
5 x,1/2+y,1/2+z
6 -x,1/2-y,1/2+z
7 1/4-x,3/4+y,3/4+z
8 1/4+x,3/4-y,3/4+z
9 1/2+x,y,1/2+z
10 1/2-x,-y,1/2+z
11 3/4-x,1/4+y,3/4+z
12 3/4+x,1/4-y,3/4+z
13 1/2+x,1/2+y,z
14 1/2-x,1/2-y,z
15 3/4-x,3/4+y,1/4+z
16 3/4+x,3/4-y,1/4+z
_cell_length_a                   24.563(5)
_cell_length_b                   36.363(7)
_cell_length_c                   11.253(2)
_cell_angle_alpha                90
_cell_angle_beta                 90
_cell_angle_gamma                90
_cell_volume                     10051
loop_
_atom_site_label
_atom_site_type_symbol
_atom_site_fract_x
_atom_site_fract_y
_atom_site_fract_z
Tl1 Tl 0.293194(8) 0.215262(5) 0.12468(3)
K1 K 0.31083(4) 0.28571(3) -0.37502(15)
O1 O 0.2500 0.2500 -0.2218(4)
N1 N 0.29009(17) 0.26587(13) -0.0407(4)
C1 C 0.2500 0.2500 -0.1055(7)
O2 O 0.2500 0.2500 0.4672(5)
C2 C 0.3364(2) 0.27904(14) -0.1019(5)
N2 N 0.2839(2) 0.27130(14) 0.2864(4)
C3 C 0.3460(2) 0.31772(13) -0.1064(5)
C4 C 0.3918(2) 0.33080(16) -0.1668(5)
H1 H 0.3983 0.3565 -0.1702
C5 C 0.4279(2) 0.30729(16) -0.2216(5)
H2 H 0.4586 0.3167 -0.2630
C6 C 0.4189(2) 0.26994(15) -0.2156(5)
H3 H 0.4439 0.2538 -0.2534
C7 C 0.3745(2) 0.25510(13) -0.1561(4)
C8 C 0.3063(2) 0.34399(15) -0.0496(5)
H4 H 0.2911 0.3315 0.0223
C9 C 0.3317(4) 0.38049(19) -0.0082(8)
H5 H 0.3596 0.3755 0.0519
H6 H 0.3033 0.3962 0.0261
H7 H 0.3484 0.3930 -0.0762
C10 C 0.2599(3) 0.35155(18) -0.1314(11)
H8 H 0.2725 0.3667 -0.1979
H9 H 0.2312 0.3646 -0.0882
H10 H 0.2455 0.3283 -0.1620
C11 C 0.3670(2) 0.21353(13) -0.1548(4)
H11 H 0.3331 0.2081 -0.1090
C12 C 0.4138(3) 0.19410(16) -0.0922(5)
H12 H 0.4479 0.1993 -0.1343
H13 H 0.4072 0.1675 -0.0919
H14 H 0.4166 0.2030 -0.0102
C13 C 0.3594(2) 0.19807(15) -0.2794(5)
H15 H 0.3295 0.2110 -0.3190
H16 H 0.3509 0.1718 -0.2743
H17 H 0.3931 0.2015 -0.3250
C14 C 0.2500 0.2500 0.3551(8)
C15 C 0.3200(2) 0.29482(14) 0.3493(4)
C16 C 0.3748(2) 0.28422(13) 0.3713(6)
C17 C 0.4087(2) 0.30845(16) 0.4340(5)
H18 H 0.4453 0.3015 0.4495
C18 C 0.3906(2) 0.34185(16) 0.4736(6)
H19 H 0.4145 0.3576 0.5162
C19 C 0.3381(3) 0.35263(15) 0.4518(5)
H20 H 0.3262 0.3760 0.4790
C20 C 0.3017(2) 0.32994(14) 0.3901(5)
C21 C 0.3967(3) 0.24823(17) 0.3268(5)
H21 H 0.3650 0.2315 0.3134
C22 C 0.4251(3) 0.2538(2) 0.2070(6)
H22 H 0.3983 0.2618 0.1478
H23 H 0.4416 0.2306 0.1814
H24 H 0.4534 0.2726 0.2151
C23 C 0.4357(3) 0.22898(19) 0.4143(6)
H25 H 0.4679 0.2444 0.4268
H26 H 0.4468 0.2052 0.3814
H27 H 0.4170 0.2251 0.4903
C24 C 0.2441(2) 0.34389(14) 0.3718(8)
H28 H 0.2234 0.3244 0.3283
C25 C 0.2447(4) 0.3776(3) 0.2951(10)
H29 H 0.2079 0.3824 0.2652
H30 H 0.2695 0.3737 0.2279
H31 H 0.2572 0.3987 0.3419
C26 C 0.2146(3) 0.3514(3) 0.4849(7)
H32 H 0.2328 0.3715 0.5275
H33 H 0.2146 0.3293 0.5344
H34 H 0.1770 0.3586 0.4672
Tl1M Tl 0.206806(8) 0.284738(5) 0.12468(3)
K1M K 0.18917(4) 0.21429(3) -0.37502(15)
K1M_2 K 0.18917(4) 0.21429(3) 0.62498(15)
K1_2 K 0.31083(4) 0.28571(3) 0.62498(15)
N1M N 0.20991(17) 0.23413(13) -0.0407(4)
O2_2 O 0.2500 0.2500 -0.5328(5)
C2M C 0.1636(2) 0.22096(14) -0.1019(5)
N2M N 0.2161(2) 0.22870(14) 0.2864(4)
C3M C 0.1540(2) 0.18228(13) -0.1064(5)
C4M C 0.1082(2) 0.16920(16) -0.1668(5)
H1M H 0.1017 0.1435 -0.1702
C5M C 0.0721(2) 0.19271(16) -0.2216(5)
H2M H 0.0414 0.1833 -0.2630
C6M C 0.0811(2) 0.23006(15) -0.2156(5)
H3M H 0.0561 0.2462 -0.2534
C7M C 0.1255(2) 0.24490(13) -0.1561(4)
C8M C 0.1937(2) 0.15601(15) -0.0496(5)
H4M H 0.2089 0.1685 0.0223
C9M C 0.1683(4) 0.11951(19) -0.0082(8)
H5M H 0.1404 0.1245 0.0519
H6M H 0.1967 0.1038 0.0261
H7M H 0.1516 0.1070 -0.0762
C10M C 0.2401(3) 0.14845(18) -0.1314(11)
H8M H 0.2275 0.1333 -0.1979
H9M H 0.2688 0.1354 -0.0882
H10M H 0.2545 0.1717 -0.1620
C11M C 0.1330(2) 0.28647(13) -0.1548(4)
H11M H 0.1669 0.2919 -0.1090
C12M C 0.0862(3) 0.30590(16) -0.0922(5)
H12M H 0.0521 0.3007 -0.1343
H13M H 0.0928 0.3325 -0.0919
H14M H 0.0834 0.2970 -0.0102
C13M C 0.1406(2) 0.30193(15) -0.2794(5)
H15M H 0.1705 0.2890 -0.3190
H16M H 0.1491 0.3282 -0.2743
H17M H 0.1069 0.2985 -0.3250
C15M C 0.1800(2) 0.20518(14) 0.3493(4)
C15_2 C 0.3200(2) 0.29482(14) -0.6507(4)
C15M_2 C 0.1800(2) 0.20518(14) -0.6507(4)
C16M C 0.1252(2) 0.21578(13) 0.3713(6)
C16_2 C 0.3748(2) 0.28422(13) -0.6287(6)
C16M_2 C 0.1252(2) 0.21578(13) -0.6287(6)
C17M C 0.0913(2) 0.19155(16) 0.4340(5)
C17_2 C 0.4087(2) 0.30845(16) -0.5660(5)
C17M_2 C 0.0913(2) 0.19155(16) -0.5660(5)
H18M H 0.0547 0.1985 0.4495
H18_2 H 0.4453 0.3015 -0.5505
H18M_2 H 0.0547 0.1985 -0.5505
C18M C 0.1094(2) 0.15815(16) 0.4736(6)
C18_2 C 0.3906(2) 0.34185(16) -0.5264(6)
C18M_2 C 0.1094(2) 0.15815(16) -0.5264(6)
H19M H 0.0855 0.1424 0.5162
H19_2 H 0.4145 0.3576 -0.4838
H19M_2 H 0.0855 0.1424 -0.4838
C19M C 0.1619(3) 0.14737(15) 0.4518(5)
C19_2 C 0.3381(3) 0.35263(15) -0.5482(5)
C19M_2 C 0.1619(3) 0.14737(15) -0.5482(5)
H20M H 0.1738 0.1240 0.4790
H20_2 H 0.3262 0.3760 -0.5210
H20M_2 H 0.1738 0.1240 -0.5210
C20M C 0.1983(2) 0.17006(14) 0.3901(5)
C20_2 C 0.3017(2) 0.32994(14) -0.6099(5)
C20M_2 C 0.1983(2) 0.17006(14) -0.6099(5)
C21M C 0.1033(3) 0.25177(17) 0.3268(5)
H21M H 0.1350 0.2685 0.3134
C22M C 0.0749(3) 0.2462(2) 0.2070(6)
H22M H 0.1017 0.2382 0.1478
H23M H 0.0584 0.2694 0.1814
H24M H 0.0466 0.2274 0.2151
C23M C 0.0643(3) 0.27102(19) 0.4143(6)
H25M H 0.0321 0.2556 0.4268
H26M H 0.0532 0.2948 0.3814
H27M H 0.0830 0.2749 0.4903
C24M C 0.2559(2) 0.15611(14) 0.3718(8)
H28M H 0.2766 0.1756 0.3283
C25M C 0.2553(4) 0.1224(3) 0.2951(10)
H29M H 0.2921 0.1176 0.2652
H30M H 0.2305 0.1263 0.2279
H31M H 0.2428 0.1013 0.3419
C26M C 0.2854(3) 0.1486(3) 0.4849(7)
H32M H 0.2672 0.1285 0.5275
H33M H 0.2854 0.1707 0.5344
H34M H 0.3230 0.1414 0.4672
loop_
_geom_bond_atom_site_label_1
_geom_bond_atom_site_label_2
_geom_bond_site_symmetry_1
_geom_bond_site_symmetry_2
Tl1 N1 1_555 1_555
K1 O1 1_555 1_555
O1 C1 1_555 1_555
N1 C1 1_555 1_555
C1 N1M 1_555 1_555
O2 C14 1_555 1_555
C2 K1 1_555 1_555
N2 Tl1 1_555 1_555
C3 K1 1_555 1_555
C4 K1 1_555 1_555
H1 C4 1_555 1_555
C5 K1 1_555 1_555
H2 C5 1_555 1_555
C6 K1 1_555 1_555
H3 C6 1_555 1_555
C7 K1 1_555 1_555
C8 C3 1_555 1_555
H4 C8 1_555 1_555
C9 C8 1_555 1_555
H5 C9 1_555 1_555
H6 C9 1_555 1_555
H7 C9 1_555 1_555
C10 C8 1_555 1_555
H8 C10 1_555 1_555
H9 C10 1_555 1_555
H10 C10 1_555 1_555
C11 C7 1_555 1_555
H11 C11 1_555 1_555
C12 C11 1_555 1_555
H12 C12 1_555 1_555
H13 C12 1_555 1_555
H14 C12 1_555 1_555
C13 C11 1_555 1_555
H15 C13 1_555 1_555
H16 C13 1_555 1_555
H17 C13 1_555 1_555
C14 N2 1_555 1_555
C15 N2 1_555 1_555
C16 C15 1_555 1_555
C17 C16 1_555 1_555
H18 C17 1_555 1_555
C18 C17 1_555 1_555
H19 C18 1_555 1_555
C19 C18 1_555 1_555
H20 C19 1_555 1_555
C20 C15 1_555 1_555
C21 C16 1_555 1_555
H21 C21 1_555 1_555
C22 C21 1_555 1_555
H22 C22 1_555 1_555
H23 C22 1_555 1_555
H24 C22 1_555 1_555
C23 C21 1_555 1_555
H25 C23 1_555 1_555
H26 C23 1_555 1_555
H27 C23 1_555 1_555
C24 C20 1_555 1_555
H28 C24 1_555 1_555
C25 C24 1_555 1_555
H29 C25 1_555 1_555
H30 C25 1_555 1_555
H31 C25 1_555 1_555
C26 C24 1_555 1_555
H32 C26 1_555 1_555
H33 C26 1_555 1_555
H34 C26 1_555 1_555
Tl1M Tl1 1_555 1_555
K1M O1 1_555 1_555
K1M_2 O2 1_555 1_555
K1_2 O2 1_555 1_555
N1M Tl1M 1_555 1_555
O2_2 K1 1_555 1_555
C2M K1M 1_555 1_555
N2M Tl1 1_555 1_555
C3M K1M 1_555 1_555
C4M K1M 1_555 1_555
H1M C4M 1_555 1_555
C5M K1M 1_555 1_555
H2M C5M 1_555 1_555
C6M K1M 1_555 1_555
H3M C6M 1_555 1_555
C7M K1M 1_555 1_555
C8M C3M 1_555 1_555
H4M C8M 1_555 1_555
C9M C8M 1_555 1_555
H5M C9M 1_555 1_555
H6M C9M 1_555 1_555
H7M C9M 1_555 1_555
C10M C8M 1_555 1_555
H8M C10M 1_555 1_555
H9M C10M 1_555 1_555
H10M C10M 1_555 1_555
C11M C7M 1_555 1_555
H11M C11M 1_555 1_555
C12M C11M 1_555 1_555
H12M C12M 1_555 1_555
H13M C12M 1_555 1_555
H14M C12M 1_555 1_555
C13M C11M 1_555 1_555
H15M C13M 1_555 1_555
H16M C13M 1_555 1_555
H17M C13M 1_555 1_555
C15M K1M_2 1_555 1_555
C15_2 K1 1_555 1_555
C15M_2 K1M 1_555 1_555
C16M K1M_2 1_555 1_555
C16_2 K1 1_555 1_555
C16M_2 K1M 1_555 1_555
C17M K1M_2 1_555 1_555
C17_2 K1 1_555 1_555
C17M_2 K1M 1_555 1_555
H18M C17M 1_555 1_555
H18_2 C17_2 1_555 1_555
H18M_2 C17M_2 1_555 1_555
C18M K1M_2 1_555 1_555
C18_2 K1 1_555 1_555
C18M_2 K1M 1_555 1_555
H19M C18M 1_555 1_555
H19_2 C18_2 1_555 1_555
H19M_2 C18M_2 1_555 1_555
C19M K1M_2 1_555 1_555
C19_2 K1 1_555 1_555
C19M_2 K1M 1_555 1_555
H20M C19M 1_555 1_555
H20_2 C19_2 1_555 1_555
H20M_2 C19M_2 1_555 1_555
C20M K1M_2 1_555 1_555
C20_2 K1 1_555 1_555
C20M_2 K1M 1_555 1_555
C21M C16M 1_555 1_555
H21M C21M 1_555 1_555
C22M C21M 1_555 1_555
H22M C22M 1_555 1_555
H23M C22M 1_555 1_555
H24M C22M 1_555 1_555
C23M C21M 1_555 1_555
H25M C23M 1_555 1_555
H26M C23M 1_555 1_555
H27M C23M 1_555 1_555
C24M C20M 1_555 1_555
H28M C24M 1_555 1_555
C25M C24M 1_555 1_555
H29M C25M 1_555 1_555
H30M C25M 1_555 1_555
H31M C25M 1_555 1_555
C26M C24M 1_555 1_555
H32M C26M 1_555 1_555
H33M C26M 1_555 1_555
H34M C26M 1_555 1_555
N1 C2 1_555 1_555
C2 C3 1_555 1_555
C2 C7 1_555 1_555
N2 Tl1M 1_555 1_555
C3 C4 1_555 1_555
C4 C5 1_555 1_555
C5 C6 1_555 1_555
C6 C7 1_555 1_555
C14 N2M 1_555 1_555
C15 K1_2 1_555 1_555
C16 K1_2 1_555 1_555
C17 K1_2 1_555 1_555
C18 K1_2 1_555 1_555
C19 C20 1_555 1_555
C19 K1_2 1_555 1_555
C20 K1_2 1_555 1_555
Tl1M N2M 1_555 1_555
K1M O2_2 1_555 1_555
N1M C2M 1_555 1_555
C2M C3M 1_555 1_555
C2M C7M 1_555 1_555
N2M C15M 1_555 1_555
C3M C4M 1_555 1_555
C4M C5M 1_555 1_555
C5M C6M 1_555 1_555
C6M C7M 1_555 1_555
C15M C16M 1_555 1_555
C15M C20M 1_555 1_555
C15_2 C16_2 1_555 1_555
C15_2 C20_2 1_555 1_555
C15M_2 C16M_2 1_555 1_555
C15M_2 C20M_2 1_555 1_555
C16M C17M 1_555 1_555
C16_2 C17_2 1_555 1_555
C16M_2 C17M_2 1_555 1_555
C17M C18M 1_555 1_555
C17_2 C18_2 1_555 1_555
C17M_2 C18M_2 1_555 1_555
C18M C19M 1_555 1_555
C18_2 C19_2 1_555 1_555
C18M_2 C19M_2 1_555 1_555
C19M C20M 1_555 1_555
C19_2 C20_2 1_555 1_555
C19M_2 C20M_2 1_555 1_555

#END
