
#######################################################################
#
#                 Cambridge Crystallographic Data Centre
#                                CCDC 
#
#######################################################################
#
# If this CIF has been generated from an entry in the Cambridge 
# Structural Database, then it will include bibliographic, chemical, 
# crystal, experimental, refinement or atomic coordinate data resulting 
# from the CCDC's data processing and validation procedures.
#
#######################################################################

data_TOLDII
_symmetry_cell_setting           orthorhombic
_symmetry_space_group_name_H-M   'P b c n'
_symmetry_Int_Tables_number      60
_space_group_name_Hall           '-P 2n 2ab'
loop_
_symmetry_equiv_pos_site_id
_symmetry_equiv_pos_as_xyz
1 x,y,z
2 1/2-x,1/2-y,1/2+z
3 -x,y,1/2-z
4 1/2+x,1/2-y,-z
5 -x,-y,-z
6 1/2+x,1/2+y,1/2-z
7 x,-y,1/2+z
8 1/2-x,1/2+y,z
_cell_length_a                   24.958(4)
_cell_length_b                   24.637(4)
_cell_length_c                   8.1686(12)
_cell_angle_alpha                90
_cell_angle_beta                 90
_cell_angle_gamma                90
_cell_volume                     5022.79
loop_
_atom_site_label
_atom_site_type_symbol
_atom_site_fract_x
_atom_site_fract_y
_atom_site_fract_z
Mn1 Mn 0.0000 0.23060(5) 0.2500
N1 N -0.0499(2) 0.2978(2) 0.3692(8)
N2 N -0.16019(17) 0.51360(17) 0.6481(6)
N3 N -0.19253(18) 0.47632(18) 0.7217(6)
N4 N -0.28283(17) 0.50826(18) 0.7265(6)
N5 N -0.31449(18) 0.46719(18) 0.6713(7)
N6 N -0.44787(19) 0.6663(2) 0.3726(8)
N7 N 0.0527(3) 0.2292(3) 0.4732(14)
N8 N 0.1053(5) 0.2010(5) 0.6936(15)
N9 N 0.1849(5) 0.2431(4) 0.807(2)
C1 C -0.0989(3) 0.3791(3) 0.3432(10)
H1 H -0.1124 0.4060 0.2749
C2 C -0.0725(3) 0.3348(3) 0.2764(11)
H2 H -0.0708 0.3311 0.1632
C3 C -0.0554(3) 0.3020(3) 0.5306(11)
H3 H -0.0396 0.2756 0.5962
C4 C -0.0828(3) 0.3428(3) 0.6045(11)
H4 H -0.0864 0.3434 0.7178
C5 C -0.1051(2) 0.3834(2) 0.5101(8)
C6 C -0.1351(2) 0.4290(2) 0.5833(8)
C7 C -0.1786(2) 0.4257(2) 0.6843(8)
C8 C -0.2088(3) 0.3781(3) 0.7468(11)
H5 H -0.2461 0.3823 0.7212
H6 H -0.1955 0.3457 0.6963
H7 H -0.2045 0.3757 0.8633
C9 C -0.1251(2) 0.4847(2) 0.5644(7)
C10 C -0.0801(2) 0.5111(3) 0.4779(9)
H8 H -0.0507 0.5164 0.5519
H9 H -0.0687 0.4887 0.3882
H10 H -0.0920 0.5456 0.4369
C11 C -0.2359(2) 0.4952(3) 0.8217(8)
H11 H -0.2450 0.4673 0.9010
H12 H -0.2245 0.5271 0.8815
C12 C -0.3543(2) 0.4916(2) 0.5928(8)
C13 C -0.3974(3) 0.4580(3) 0.5198(10)
H13 H -0.4268 0.4555 0.5951
H14 H -0.4094 0.4744 0.4198
H15 H -0.3839 0.4223 0.4973
C14 C -0.3480(2) 0.5483(2) 0.5961(8)
C15 C -0.3019(2) 0.5576(2) 0.6821(8)
C16 C -0.2742(3) 0.6074(3) 0.7347(10)
H16 H -0.2366 0.6042 0.7114
H17 H -0.2887 0.6379 0.6767
H18 H -0.2793 0.6125 0.8502
C17 C -0.3826(2) 0.5888(2) 0.5185(8)
C18 C -0.4379(2) 0.5872(3) 0.5335(10)
H19 H -0.4542 0.5599 0.5942
C19 C -0.4681(2) 0.6258(2) 0.4589(11)
H20 H -0.5051 0.6235 0.4691
C20 C -0.3957(2) 0.6681(2) 0.3578(10)
H21 H -0.3807 0.6961 0.2965
C21 C -0.3618(2) 0.6309(2) 0.4278(9)
H22 H -0.3249 0.6342 0.4140
C22 C 0.0759(4) 0.2204(4) 0.5596(15)
C23 C 0.1477(6) 0.2277(5) 0.7513(19)
Mn1E Mn -0.5000 0.73060(5) 0.2500
Mn1E_2 Mn 0.5000 -0.26940(5) 0.2500
N1E N 0.4501(2) -0.2022(2) 0.1308(8)
N1B N 0.0499(2) 0.2978(2) 0.1308(8)
N2E N 0.33981(17) 0.01360(17) -0.1481(6)
N3E N 0.30747(18) -0.02368(18) -0.2217(6)
N4E N 0.21717(17) 0.00826(18) -0.2265(6)
N5E N 0.18551(18) -0.03281(18) -0.1713(7)
N6E N 0.05213(19) 0.1663(2) 0.1274(8)
N6G N -0.05213(19) 0.1663(2) 0.3726(8)
N7B N -0.0527(3) 0.2292(3) 0.0268(14)
N8B N -0.1053(5) 0.2010(5) -0.1936(15)
N9B N -0.1849(5) 0.2431(4) -0.307(2)
C1E C 0.4011(3) -0.1209(3) 0.1568(10)
H1E H 0.3876 -0.0940 0.2251
C2E C 0.4275(3) -0.1652(3) 0.2236(11)
H2E H 0.4292 -0.1689 0.3368
C3E C 0.4446(3) -0.1980(3) -0.0306(11)
H3E H 0.4604 -0.2244 -0.0962
C4E C 0.4172(3) -0.1572(3) -0.1045(11)
H4E H 0.4136 -0.1566 -0.2178
C5E C 0.3949(2) -0.1166(2) -0.0101(8)
C6E C 0.3649(2) -0.0710(2) -0.0833(8)
C7E C 0.3214(2) -0.0743(2) -0.1843(8)
C8E C 0.2912(3) -0.1219(3) -0.2468(11)
H5E H 0.2539 -0.1177 -0.2212
H6E H 0.3045 -0.1543 -0.1963
H7E H 0.2955 -0.1243 -0.3633
C9E C 0.3749(2) -0.0153(2) -0.0644(7)
C10E C 0.4199(2) 0.0111(3) 0.0221(9)
H8E H 0.4493 0.0164 -0.0519
H9E H 0.4313 -0.0113 0.1118
H10E H 0.4080 0.0456 0.0631
C11E C 0.2641(2) -0.0048(3) -0.3217(8)
H11E H 0.2550 -0.0327 -0.4010
H12E H 0.2755 0.0271 -0.3815
C12E C 0.1457(2) -0.0084(2) -0.0928(8)
C13E C 0.1026(3) -0.0420(3) -0.0198(10)
H13E H 0.0732 -0.0445 -0.0951
H14E H 0.0906 -0.0256 0.0802
H15E H 0.1161 -0.0777 0.0027
C14E C 0.1520(2) 0.0483(2) -0.0961(8)
C15E C 0.1981(2) 0.0576(2) -0.1821(8)
C16E C 0.2258(3) 0.1074(3) -0.2347(10)
H16E H 0.2634 0.1042 -0.2114
H17E H 0.2113 0.1379 -0.1767
H18E H 0.2207 0.1125 -0.3502
C17E C 0.1174(2) 0.0888(2) -0.0185(8)
C18E C 0.0621(2) 0.0872(3) -0.0335(10)
H19E H 0.0458 0.0599 -0.0942
C19E C 0.0319(2) 0.1258(2) 0.0411(11)
H20E H -0.0051 0.1235 0.0309
C20E C 0.1043(2) 0.1681(2) 0.1422(10)
H21E H 0.1193 0.1961 0.2035
C21E C 0.1382(2) 0.1309(2) 0.0722(9)
H22E H 0.1751 0.1342 0.0860
C22B C -0.0759(4) 0.2204(4) -0.0596(15)
C23B C -0.1477(6) 0.2277(5) -0.2513(19)
O1 O 0.2997(12) 0.2368(13) 0.684(6)
H23 H 0.2774 0.2594 0.6452
H24 H 0.3011 0.2242 0.7950
loop_
_geom_bond_atom_site_label_1
_geom_bond_atom_site_label_2
_geom_bond_site_symmetry_1
_geom_bond_site_symmetry_2
Mn1 N1 1_555 1_555
N1 C2 1_555 1_555
N2 N3 1_555 1_555
N3 C7 1_555 1_555
N4 N5 1_555 1_555
N5 C12 1_555 1_555
N6 C19 1_555 1_555
N7 Mn1 1_555 1_555
N8 C22 1_555 1_555
N9 C23 1_555 1_555
C1 H1 1_555 1_555
C2 C1 1_555 1_555
H2 C2 1_555 1_555
C3 N1 1_555 1_555
H3 C3 1_555 1_555
C4 C3 1_555 1_555
H4 C4 1_555 1_555
C5 C1 1_555 1_555
C6 C5 1_555 1_555
C7 C6 1_555 1_555
C8 C7 1_555 1_555
H5 C8 1_555 1_555
H6 C8 1_555 1_555
H7 C8 1_555 1_555
C9 N2 1_555 1_555
C10 C9 1_555 1_555
H8 C10 1_555 1_555
H9 C10 1_555 1_555
H10 C10 1_555 1_555
C11 N3 1_555 1_555
H11 C11 1_555 1_555
H12 C11 1_555 1_555
C12 C13 1_555 1_555
C13 H13 1_555 1_555
H14 C13 1_555 1_555
H15 C13 1_555 1_555
C14 C12 1_555 1_555
C15 N4 1_555 1_555
C16 C15 1_555 1_555
H16 C16 1_555 1_555
H17 C16 1_555 1_555
H18 C16 1_555 1_555
C17 C14 1_555 1_555
C18 C17 1_555 1_555
H19 C18 1_555 1_555
C19 C18 1_555 1_555
H20 C19 1_555 1_555
C20 N6 1_555 1_555
H21 C20 1_555 1_555
C21 C17 1_555 1_555
H22 C21 1_555 1_555
C22 N7 1_555 1_555
C23 N8 1_555 1_555
O1 H23 1_555 1_555
H24 O1 1_555 1_555
Mn1E N6 1_555 1_555
Mn1E_2 N1E 1_555 1_555
N1E C2E 1_555 1_555
N1B Mn1 1_555 1_555
N2E N3E 1_555 1_555
N3E C7E 1_555 1_555
N4E N5E 1_555 1_555
N5E C12E 1_555 1_555
N6E Mn1 1_555 1_555
N6G Mn1 1_555 1_555
N7B Mn1 1_555 1_555
N8B C22B 1_555 1_555
N9B C23B 1_555 1_555
C1E H1E 1_555 1_555
C2E C1E 1_555 1_555
H2E C2E 1_555 1_555
C3E N1E 1_555 1_555
H3E C3E 1_555 1_555
C4E C3E 1_555 1_555
H4E C4E 1_555 1_555
C5E C1E 1_555 1_555
C6E C5E 1_555 1_555
C7E C6E 1_555 1_555
C8E C7E 1_555 1_555
H5E C8E 1_555 1_555
H6E C8E 1_555 1_555
H7E C8E 1_555 1_555
C9E N2E 1_555 1_555
C10E C9E 1_555 1_555
H8E C10E 1_555 1_555
H9E C10E 1_555 1_555
H10E C10E 1_555 1_555
C11E N3E 1_555 1_555
H11E C11E 1_555 1_555
H12E C11E 1_555 1_555
C12E C13E 1_555 1_555
C13E H13E 1_555 1_555
H14E C13E 1_555 1_555
H15E C13E 1_555 1_555
C14E C12E 1_555 1_555
C15E N4E 1_555 1_555
C16E C15E 1_555 1_555
H16E C16E 1_555 1_555
H17E C16E 1_555 1_555
H18E C16E 1_555 1_555
C17E C14E 1_555 1_555
C18E C17E 1_555 1_555
H19E C18E 1_555 1_555
C19E N6E 1_555 1_555
H20E C19E 1_555 1_555
C20E N6E 1_555 1_555
H21E C20E 1_555 1_555
C21E C17E 1_555 1_555
H22E C21E 1_555 1_555
C22B N7B 1_555 1_555
C23B N8B 1_555 1_555
N4 C11 1_555 1_555
C4 C5 1_555 1_555
C6 C9 1_555 1_555
C14 C15 1_555 1_555
C20 C21 1_555 1_555
N4E C11E 1_555 1_555
C4E C5E 1_555 1_555
C6E C9E 1_555 1_555
C14E C15E 1_555 1_555
C18E C19E 1_555 1_555
C20E C21E 1_555 1_555

#END
