
#######################################################################
#
#                 Cambridge Crystallographic Data Centre
#                                CCDC 
#
#######################################################################
#
# If this CIF has been generated from an entry in the Cambridge 
# Structural Database, then it will include bibliographic, chemical, 
# crystal, experimental, refinement or atomic coordinate data resulting 
# from the CCDC's data processing and validation procedures.
#
#######################################################################

data_TOLFEG
_symmetry_cell_setting           triclinic
_symmetry_space_group_name_H-M   'P 1'
_symmetry_Int_Tables_number      1
_space_group_name_Hall           'P 1'
loop_
_symmetry_equiv_pos_site_id
_symmetry_equiv_pos_as_xyz
1 x,y,z
_cell_length_a                   10.2047(9)
_cell_length_b                   11.3457(9)
_cell_length_c                   11.5102(10)
_cell_angle_alpha                89.2990(10)
_cell_angle_beta                 77.7050(10)
_cell_angle_gamma                82.6040(10)
_cell_volume                     1291.09
loop_
_atom_site_label
_atom_site_type_symbol
_atom_site_fract_x
_atom_site_fract_y
_atom_site_fract_z
Ag1 Ag 0.77842(9) 0.63518(8) 0.20104(7)
Ag2 Ag 1.34678(11) 1.37948(11) -0.11460(9)
Ag3 Ag 0.27444(12) -0.16639(11) 0.46750(10)
N1 N 0.3723(14) 0.0073(11) 0.3932(11)
N2 N 0.7499(9) 0.4164(8) 0.2084(8)
N3 N 0.7528(9) 0.3641(8) 0.0999(7)
N4 N 0.7418(10) 0.5153(9) -0.0470(8)
N5 N 0.7013(11) 0.6160(9) 0.0240(9)
N6 N 0.3673(12) 0.7626(11) -0.3854(10)
N7 N 1.2241(13) 1.2312(10) -0.0147(11)
N8 N 0.8229(8) 0.8991(7) 0.2968(8)
N9 N 0.8221(9) 0.8462(8) 0.1924(8)
N10 N 0.8395(9) 0.7469(8) 0.4432(8)
N11 N 0.8677(10) 0.6470(9) 0.3739(8)
N12 N 1.2277(12) 0.4767(10) 0.7562(9)
N13 N 0.1663(12) -0.1854(11) 0.3304(10)
N14 N 0.1805(11) -0.2661(10) 0.1297(9)
N15 N 0.0524(11) -0.4248(10) 0.0850(9)
N16 N 1.4152(11) 1.4409(11) 0.0369(11)
N17 N 1.3902(11) 1.5180(11) 0.2392(10)
N18 N 1.5034(11) 1.6785(10) 0.3019(9)
N19 N 1.4625(19) 1.2342(17) -0.2737(17)
N20 N 1.669(2) 1.114(2) -0.337(2)
N21 N 1.889(3) 1.120(2) -0.274(3)
C1 C 0.5501(16) 0.1304(13) 0.4004(14)
H1 H 0.6132 0.1520 0.4410
C2 C 0.4582(18) 0.0486(15) 0.4479(16)
H2 H 0.4590 0.0220 0.5245
C3 C 0.371(2) 0.0458(18) 0.2883(15)
H3 H 0.3132 0.0162 0.2467
C4 C 0.4510(19) 0.1295(16) 0.2330(15)
H4 H 0.4441 0.1537 0.1568
C5 C 0.5392(11) 0.1770(10) 0.2869(10)
C6 C 0.6275(12) 0.2608(10) 0.2328(10)
C7 C 0.6817(10) 0.2693(9) 0.1123(9)
C8 C 0.6738(17) 0.1943(13) 0.0108(11)
H5 H 0.5905 0.2188 -0.0141
H6 H 0.6770 0.1127 0.0344
H7 H 0.7486 0.2026 -0.0539
C9 C 0.6735(11) 0.3539(9) 0.2884(10)
C10 C 0.6432(15) 0.3918(12) 0.4139(11)
H8 H 0.6839 0.4622 0.4216
H9 H 0.6788 0.3296 0.4603
H10 H 0.5470 0.4083 0.4419
C11 C 0.8312(12) 0.4196(10) -0.0060(10)
H11 H 0.9072 0.4514 0.0148
H12 H 0.8661 0.3604 -0.0688
C12 C 0.6859(12) 0.5218(12) -0.1450(10)
C13 C 0.7118(16) 0.4244(13) -0.2318(12)
H13 H 0.7658 0.4480 -0.3051
H14 H 0.6274 0.4051 -0.2456
H15 H 0.7592 0.3561 -0.2019
C14 C 0.6048(11) 0.6323(10) -0.1354(10)
C15 C 0.6197(11) 0.6861(10) -0.0304(9)
C16 C 0.5558(15) 0.8022(11) 0.0204(12)
H16 H 0.4618 0.7984 0.0538
H17 H 0.5639 0.8607 -0.0408
H18 H 0.5996 0.8237 0.0816
C17 C 0.5223(12) 0.6779(10) -0.2201(10)
C18 C 0.3951(14) 0.7371(12) -0.1819(12)
H19 H 0.3581 0.7487 -0.1011
C19 C 0.3204(14) 0.7805(12) -0.2682(11)
H20 H 0.2352 0.8232 -0.2422
C20 C 0.4934(15) 0.7048(13) -0.4197(11)
H21 H 0.5294 0.6931 -0.5007
C21 C 0.5715(14) 0.6622(12) -0.3411(11)
H22 H 0.6579 0.6225 -0.3694
C22 C 1.0312(14) 1.1943(10) 0.1325(11)
H23 H 0.9605 1.2257 0.1935
C23 C 1.1199(15) 1.2643(12) 0.0736(13)
H24 H 1.1065 1.3438 0.0975
C24 C 1.2441(18) 1.1131(13) -0.0409(15)
H25 H 1.3200 1.0832 -0.0977
C25 C 1.1553(16) 1.0333(12) 0.0142(14)
H26 H 1.1700 0.9534 -0.0079
C26 C 1.0462(11) 1.0775(9) 0.1016(9)
C27 C 0.9503(10) 0.9962(9) 0.1628(10)
C28 C 0.9023(13) 0.9055(12) 0.1091(11)
C29 C 0.9168(16) 0.8727(12) -0.0185(11)
H27 H 0.9558 0.7911 -0.0317
H28 H 0.9744 0.9227 -0.0675
H29 H 0.8294 0.8832 -0.0385
C30 C 0.9011(11) 0.9876(9) 0.2829(10)
C31 C 0.9296(15) 1.0537(13) 0.3844(12)
H30 H 0.9747 0.9992 0.4321
H31 H 0.8460 1.0910 0.4321
H32 H 0.9863 1.1132 0.3541
C32 C 0.7601(11) 0.8474(10) 0.4041(10)
H33 H 0.6758 0.8228 0.3933
H34 H 0.7379 0.9079 0.4665
C33 C 0.9538(11) 0.5754(9) 0.4220(10)
C34 C 1.0071(16) 0.4532(12) 0.3689(13)
H35 H 0.9496 0.4315 0.3188
H36 H 1.0085 0.3967 0.4315
H37 H 1.0971 0.4537 0.3225
C35 C 0.9781(11) 0.6273(11) 0.5243(9)
C36 C 0.9026(14) 0.7367(11) 0.5343(11)
C37 C 0.8892(19) 0.8346(13) 0.6247(13)
H38 H 0.9125 0.9062 0.5848
H39 H 0.9488 0.8121 0.6777
H40 H 0.7976 0.8479 0.6694
C38 C 1.0650(12) 0.5750(11) 0.6052(10)
C39 C 1.1943(11) 0.5141(13) 0.5598(10)
H41 H 1.2294 0.5057 0.4784
C40 C 1.2651(13) 0.4685(14) 0.6396(12)
H42 H 1.3498 0.4266 0.6090
C41 C 1.1112(16) 0.5372(14) 0.7948(11)
H43 H 1.0829 0.5467 0.8769
C42 C 1.0243(14) 0.5890(12) 0.7272(10)
H44 H 0.9415 0.6317 0.7620
C43 C 0.1709(11) -0.2272(10) 0.2429(12)
C44 C 0.1101(13) -0.3523(12) 0.1111(10)
C45 C 1.4087(11) 1.4804(11) 0.1325(12)
C46 C 1.4536(13) 1.6030(12) 0.2687(10)
C47 C 1.561(2) 1.1806(17) -0.2951(17)
C48 C 1.775(3) 1.127(2) -0.312(2)
Ag2_2 Ag 1.34678(11) 0.37948(11) 0.88540(9)
Ag3_2 Ag 0.27444(12) 0.83361(11) -0.53250(10)
N6_2 N 0.3673(12) -0.2374(11) 0.6146(10)
N12_2 N 1.2277(12) 1.4767(10) -0.2438(9)
loop_
_geom_bond_atom_site_label_1
_geom_bond_atom_site_label_2
_geom_bond_site_symmetry_1
_geom_bond_site_symmetry_2
Ag1 N2 1_555 1_555
Ag2 N7 1_555 1_555
Ag3 N1 1_555 1_555
N1 C2 1_555 1_555
N2 N3 1_555 1_555
N3 C7 1_555 1_555
N4 N5 1_555 1_555
N5 Ag1 1_555 1_555
N6 C19 1_555 1_555
N7 C23 1_555 1_555
N8 N9 1_555 1_555
N9 Ag1 1_555 1_555
N10 N11 1_555 1_555
N11 Ag1 1_555 1_555
N12 C40 1_555 1_555
N13 Ag3 1_555 1_555
N14 C43 1_555 1_555
N15 C44 1_555 1_555
N16 Ag2 1_555 1_555
N17 C45 1_555 1_555
N18 C46 1_555 1_555
N19 Ag2 1_555 1_555
N20 C47 1_555 1_555
N21 C48 1_555 1_555
C1 H1 1_555 1_555
C2 C1 1_555 1_555
H2 C2 1_555 1_555
C3 N1 1_555 1_555
H3 C3 1_555 1_555
C4 C3 1_555 1_555
H4 C4 1_555 1_555
C5 C1 1_555 1_555
C6 C5 1_555 1_555
C7 C6 1_555 1_555
C8 C7 1_555 1_555
H5 C8 1_555 1_555
H6 C8 1_555 1_555
H7 C8 1_555 1_555
C9 N2 1_555 1_555
C10 C9 1_555 1_555
H8 C10 1_555 1_555
H9 C10 1_555 1_555
H10 C10 1_555 1_555
C11 N3 1_555 1_555
H11 C11 1_555 1_555
H12 C11 1_555 1_555
C12 N4 1_555 1_555
C13 C12 1_555 1_555
H13 C13 1_555 1_555
H14 C13 1_555 1_555
H15 C13 1_555 1_555
C14 C12 1_555 1_555
C15 N5 1_555 1_555
C16 C15 1_555 1_555
H16 C16 1_555 1_555
H17 C16 1_555 1_555
H18 C16 1_555 1_555
C17 C14 1_555 1_555
C18 C17 1_555 1_555
H19 C18 1_555 1_555
C19 C18 1_555 1_555
H20 C19 1_555 1_555
C20 N6 1_555 1_555
H21 C20 1_555 1_555
C21 C17 1_555 1_555
H22 C21 1_555 1_555
C22 H23 1_555 1_555
C23 C22 1_555 1_555
H24 C23 1_555 1_555
C24 N7 1_555 1_555
H25 C24 1_555 1_555
C25 C24 1_555 1_555
H26 C25 1_555 1_555
C26 C22 1_555 1_555
C27 C26 1_555 1_555
C28 N9 1_555 1_555
C29 C28 1_555 1_555
H27 C29 1_555 1_555
H28 C29 1_555 1_555
H29 C29 1_555 1_555
C30 N8 1_555 1_555
C31 C30 1_555 1_555
H30 C31 1_555 1_555
H31 C31 1_555 1_555
H32 C31 1_555 1_555
C32 N8 1_555 1_555
H33 C32 1_555 1_555
H34 C32 1_555 1_555
C33 N11 1_555 1_555
C34 C33 1_555 1_555
H35 C34 1_555 1_555
H36 C34 1_555 1_555
H37 C34 1_555 1_555
C35 C33 1_555 1_555
C36 N10 1_555 1_555
C37 C36 1_555 1_555
H38 C37 1_555 1_555
H39 C37 1_555 1_555
H40 C37 1_555 1_555
C38 C35 1_555 1_555
C39 C38 1_555 1_555
H41 C39 1_555 1_555
C40 C39 1_555 1_555
H42 C40 1_555 1_555
C41 N12 1_555 1_555
H43 C41 1_555 1_555
C42 C38 1_555 1_555
H44 C42 1_555 1_555
C43 N13 1_555 1_555
C44 N14 1_555 1_555
C45 N16 1_555 1_555
C46 N17 1_555 1_555
C47 N19 1_555 1_555
C48 N20 1_555 1_555
Ag2_2 N12 1_555 1_555
Ag3_2 N6 1_555 1_555
N6_2 Ag3 1_555 1_555
N12_2 Ag2 1_555 1_555
N4 C11 1_555 1_555
N10 C32 1_555 1_555
C4 C5 1_555 1_555
C6 C9 1_555 1_555
C14 C15 1_555 1_555
C20 C21 1_555 1_555
C25 C26 1_555 1_555
C27 C28 1_555 1_555
C27 C30 1_555 1_555
C35 C36 1_555 1_555
C41 C42 1_555 1_555

#END
