
#######################################################################
#
#                 Cambridge Crystallographic Data Centre
#                                CCDC 
#
#######################################################################
#
# If this CIF has been generated from an entry in the Cambridge 
# Structural Database, then it will include bibliographic, chemical, 
# crystal, experimental, refinement or atomic coordinate data resulting 
# from the CCDC's data processing and validation procedures.
#
#######################################################################

data_TOLFOQ
_symmetry_cell_setting           orthorhombic
_symmetry_space_group_name_H-M   'P b c n'
_symmetry_Int_Tables_number      60
_space_group_name_Hall           '-P 2n 2ab'
loop_
_symmetry_equiv_pos_site_id
_symmetry_equiv_pos_as_xyz
1 x,y,z
2 1/2-x,1/2-y,1/2+z
3 -x,y,1/2-z
4 1/2+x,1/2-y,-z
5 -x,-y,-z
6 1/2+x,1/2+y,1/2-z
7 x,-y,1/2+z
8 1/2-x,1/2+y,z
_cell_length_a                   24.758(2)
_cell_length_b                   24.387(2)
_cell_length_c                   8.2917(7)
_cell_angle_alpha                90
_cell_angle_beta                 90
_cell_angle_gamma                90
_cell_volume                     5006.31
loop_
_atom_site_label
_atom_site_type_symbol
_atom_site_fract_x
_atom_site_fract_y
_atom_site_fract_z
Co1 Co 0.5000 0.73208(3) -0.2500
S1 S 0.63097(14) 0.72016(15) -0.6717(4)
N1 N 0.54965(14) 0.67027(15) -0.1334(5)
N2 N 0.71570(14) 0.50924(15) 0.2237(4)
N3 N 0.68401(15) 0.46753(15) 0.1699(5)
N4 N 0.80709(15) 0.47659(15) 0.2184(4)
N5 N 0.83899(14) 0.51448(14) 0.1452(4)
N6 N 0.95233(15) 0.29629(15) -0.1361(5)
N7 N 0.55161(18) 0.73187(16) -0.4465(6)
C1 C 0.61620(17) 0.59077(18) 0.0140(6)
C2 C 0.55992(18) 0.59028(19) 0.0308(7)
H1 H 0.5433 0.5632 0.0923
C3 C 0.52919(18) 0.6299(2) -0.0437(7)
H2 H 0.4919 0.6284 -0.0308
C4 C 0.60326(18) 0.67109(19) -0.1447(6)
H3 H 0.6190 0.6995 -0.2028
C5 C 0.63677(19) 0.63281(19) -0.0764(6)
H4 H 0.6739 0.6354 -0.0918
C6 C 0.65071(18) 0.54964(18) 0.0913(5)
C7 C 0.69748(18) 0.55918(18) 0.1780(6)
C8 C 0.7252(2) 0.6103(2) 0.2295(7)
H5 H 0.7290 0.6104 0.3447
H6 H 0.7042 0.6415 0.1966
H7 H 0.7603 0.6121 0.1804
C9 C 0.64423(18) 0.49205(19) 0.0909(6)
C10 C 0.6011(2) 0.4584(2) 0.0149(7)
H8 H 0.6148 0.4223 -0.0069
H9 H 0.5899 0.4752 -0.0842
H10 H 0.5708 0.4558 0.0868
C11 C 0.76270(17) 0.4958(2) 0.3193(6)
H11 H 0.7533 0.4675 0.3967
H12 H 0.7742 0.5280 0.3788
C12 C 0.87461(18) 0.48535(18) 0.0613(5)
C13 C 0.91892(17) 0.5134(2) -0.0275(6)
H13 H 0.9058 0.5474 -0.0708
H14 H 0.9312 0.4903 -0.1139
H15 H 0.9483 0.5205 0.0449
C14 C 0.86545(18) 0.42837(18) 0.0806(5)
C15 C 0.82191(18) 0.42486(18) 0.1835(6)
C16 C 0.7931(2) 0.3758(2) 0.2478(7)
H16 H 0.8006 0.3721 0.3609
H17 H 0.8052 0.3437 0.1919
H18 H 0.7549 0.3802 0.2322
C17 C 0.89555(18) 0.38299(18) 0.0074(6)
C18 C 0.90252(19) 0.37976(18) -0.1566(6)
H19 H 0.8883 0.4069 -0.2231
C19 C 0.9304(2) 0.33661(19) -0.2226(6)
H20 H 0.9341 0.3354 -0.3341
C20 C 0.9450(2) 0.2991(2) 0.0225(7)
H21 H 0.9590 0.2710 0.0858
C21 C 0.9179(2) 0.3411(2) 0.0987(6)
H22 H 0.9146 0.3413 0.2105
C22 C 0.5849(3) 0.7277(2) -0.5363(7)
Co1E Co 1.0000 0.23208(3) -0.2500
Co1E_2 Co 0.0000 1.23208(3) -0.2500
S1B S 0.36903(14) 0.72016(15) 0.1717(4)
N1E N 0.04965(14) 1.17027(15) -0.3666(5)
N1B N 0.45035(14) 0.67027(15) -0.3666(5)
N2E N 0.21570(14) 1.00924(15) -0.7237(4)
N3E N 0.18401(15) 0.96753(15) -0.6699(5)
N4E N 0.30709(15) 0.97659(15) -0.7184(4)
N5E N 0.33899(14) 1.01448(14) -0.6452(4)
N6E N 0.45233(15) 0.79629(15) -0.3639(5)
N6G N 0.54767(15) 0.79629(15) -0.1361(5)
N7B N 0.44839(18) 0.73187(16) -0.0535(6)
C1E C 0.11620(17) 1.09077(18) -0.5140(6)
C2E C 0.05992(18) 1.09028(19) -0.5308(7)
H1E H 0.0433 1.0632 -0.5923
C3E C 0.02919(18) 1.1299(2) -0.4563(7)
H2E H -0.0081 1.1284 -0.4692
C4E C 0.10326(18) 1.17109(19) -0.3553(6)
H3E H 0.1190 1.1995 -0.2972
C5E C 0.13677(19) 1.13281(19) -0.4236(6)
H4E H 0.1739 1.1354 -0.4082
C6E C 0.15071(18) 1.04964(18) -0.5913(5)
C7E C 0.19748(18) 1.05918(18) -0.6780(6)
C8E C 0.2252(2) 1.1103(2) -0.7295(7)
H5E H 0.2290 1.1104 -0.8447
H6E H 0.2042 1.1415 -0.6966
H7E H 0.2603 1.1121 -0.6804
C9E C 0.14423(18) 0.99205(19) -0.5909(6)
C10E C 0.1011(2) 0.9584(2) -0.5149(7)
H8E H 0.1148 0.9223 -0.4931
H9E H 0.0899 0.9752 -0.4158
H10E H 0.0708 0.9558 -0.5868
C11E C 0.26270(17) 0.9958(2) -0.8193(6)
H11E H 0.2533 0.9675 -0.8967
H12E H 0.2742 1.0280 -0.8788
C12E C 0.37461(18) 0.98535(18) -0.5613(5)
C13E C 0.41892(17) 1.0134(2) -0.4725(6)
H13E H 0.4058 1.0474 -0.4292
H14E H 0.4312 0.9903 -0.3861
H15E H 0.4483 1.0205 -0.5449
C14E C 0.36545(18) 0.92837(18) -0.5806(5)
C15E C 0.32191(18) 0.92486(18) -0.6835(6)
C16E C 0.2931(2) 0.8758(2) -0.7478(7)
H16E H 0.3006 0.8721 -0.8609
H17E H 0.3052 0.8437 -0.6919
H18E H 0.2549 0.8802 -0.7322
C17E C 0.39555(18) 0.88299(18) -0.5074(6)
C18E C 0.40252(19) 0.87976(18) -0.3434(6)
H19E H 0.3883 0.9069 -0.2769
C19E C 0.4304(2) 0.83661(19) -0.2774(6)
H20E H 0.4341 0.8354 -0.1659
C20E C 0.4450(2) 0.7991(2) -0.5225(7)
H21E H 0.4590 0.7710 -0.5858
C21E C 0.4179(2) 0.8411(2) -0.5987(6)
H22E H 0.4146 0.8413 -0.7105
C22B C 0.4151(3) 0.7277(2) 0.0363(7)
loop_
_geom_bond_atom_site_label_1
_geom_bond_atom_site_label_2
_geom_bond_site_symmetry_1
_geom_bond_site_symmetry_2
Co1 N1 1_555 1_555
S1 C22 1_555 1_555
N1 C3 1_555 1_555
N2 N3 1_555 1_555
N3 C9 1_555 1_555
N4 N5 1_555 1_555
N5 C12 1_555 1_555
N6 C19 1_555 1_555
N7 Co1 1_555 1_555
C1 C2 1_555 1_555
C2 H1 1_555 1_555
C3 C2 1_555 1_555
H2 C3 1_555 1_555
C4 N1 1_555 1_555
H3 C4 1_555 1_555
C5 C1 1_555 1_555
H4 C5 1_555 1_555
C6 C1 1_555 1_555
C7 N2 1_555 1_555
C8 C7 1_555 1_555
H5 C8 1_555 1_555
H6 C8 1_555 1_555
H7 C8 1_555 1_555
C9 C6 1_555 1_555
C10 C9 1_555 1_555
H8 C10 1_555 1_555
H9 C10 1_555 1_555
H10 C10 1_555 1_555
C11 N2 1_555 1_555
H11 C11 1_555 1_555
H12 C11 1_555 1_555
C12 C13 1_555 1_555
C13 H13 1_555 1_555
H14 C13 1_555 1_555
H15 C13 1_555 1_555
C14 C12 1_555 1_555
C15 N4 1_555 1_555
C16 C15 1_555 1_555
H16 C16 1_555 1_555
H17 C16 1_555 1_555
H18 C16 1_555 1_555
C17 C14 1_555 1_555
C18 C17 1_555 1_555
H19 C18 1_555 1_555
C19 C18 1_555 1_555
H20 C19 1_555 1_555
C20 N6 1_555 1_555
H21 C20 1_555 1_555
C21 C17 1_555 1_555
H22 C21 1_555 1_555
C22 N7 1_555 1_555
Co1E N6 1_555 1_555
Co1E_2 N1E 1_555 1_555
S1B C22B 1_555 1_555
N1E C3E 1_555 1_555
N1B Co1 1_555 1_555
N2E N3E 1_555 1_555
N3E C9E 1_555 1_555
N4E N5E 1_555 1_555
N5E C12E 1_555 1_555
N6E Co1 1_555 1_555
N6G Co1 1_555 1_555
N7B Co1 1_555 1_555
C1E C2E 1_555 1_555
C2E H1E 1_555 1_555
C3E C2E 1_555 1_555
H2E C3E 1_555 1_555
C4E N1E 1_555 1_555
H3E C4E 1_555 1_555
C5E C1E 1_555 1_555
H4E C5E 1_555 1_555
C6E C1E 1_555 1_555
C7E N2E 1_555 1_555
C8E C7E 1_555 1_555
H5E C8E 1_555 1_555
H6E C8E 1_555 1_555
H7E C8E 1_555 1_555
C9E C6E 1_555 1_555
C10E C9E 1_555 1_555
H8E C10E 1_555 1_555
H9E C10E 1_555 1_555
H10E C10E 1_555 1_555
C11E N2E 1_555 1_555
H11E C11E 1_555 1_555
H12E C11E 1_555 1_555
C12E C13E 1_555 1_555
C13E H13E 1_555 1_555
H14E C13E 1_555 1_555
H15E C13E 1_555 1_555
C14E C12E 1_555 1_555
C15E N4E 1_555 1_555
C16E C15E 1_555 1_555
H16E C16E 1_555 1_555
H17E C16E 1_555 1_555
H18E C16E 1_555 1_555
C17E C14E 1_555 1_555
C18E C17E 1_555 1_555
H19E C18E 1_555 1_555
C19E N6E 1_555 1_555
H20E C19E 1_555 1_555
C20E N6E 1_555 1_555
H21E C20E 1_555 1_555
C21E C17E 1_555 1_555
H22E C21E 1_555 1_555
C22B N7B 1_555 1_555
N4 C11 1_555 1_555
C4 C5 1_555 1_555
C6 C7 1_555 1_555
C14 C15 1_555 1_555
C20 C21 1_555 1_555
N4E C11E 1_555 1_555
C4E C5E 1_555 1_555
C6E C7E 1_555 1_555
C14E C15E 1_555 1_555
C18E C19E 1_555 1_555
C20E C21E 1_555 1_555

#END
