
#######################################################################
#
#                 Cambridge Crystallographic Data Centre
#                                CCDC 
#
#######################################################################
#
# If this CIF has been generated from an entry in the Cambridge 
# Structural Database, then it will include bibliographic, chemical, 
# crystal, experimental, refinement or atomic coordinate data resulting 
# from the CCDC's data processing and validation procedures.
#
#######################################################################

data_TOLFUW
_symmetry_cell_setting           orthorhombic
_symmetry_space_group_name_H-M   'P b c a'
_symmetry_Int_Tables_number      61
_space_group_name_Hall           '-P 2ac 2ab'
loop_
_symmetry_equiv_pos_site_id
_symmetry_equiv_pos_as_xyz
1 x,y,z
2 1/2-x,-y,1/2+z
3 -x,1/2+y,1/2-z
4 1/2+x,1/2-y,-z
5 -x,-y,-z
6 1/2+x,y,1/2-z
7 x,1/2-y,1/2+z
8 1/2-x,1/2+y,z
_cell_length_a                   24.263(5)
_cell_length_b                   16.387(4)
_cell_length_c                   24.450(5)
_cell_angle_alpha                90
_cell_angle_beta                 90
_cell_angle_gamma                90
_cell_volume                     9721.27
loop_
_atom_site_label
_atom_site_type_symbol
_atom_site_fract_x
_atom_site_fract_y
_atom_site_fract_z
Cu1 Cu 0.73192(2) 0.37975(3) 0.49910(2)
S1 S 0.79629(9) 0.16069(14) 0.62106(11)
S2 S 0.80363(11) 0.58703(15) 0.38174(13)
N1 N 0.29271(14) 0.4351(2) 0.95636(14)
N2 N 0.51363(15) 0.5651(2) 0.83968(15)
N3 N 0.47639(15) 0.6088(2) 0.80908(15)
N4 N 0.51027(15) 0.6057(2) 0.71711(14)
N5 N 0.46824(15) 0.5815(2) 0.68365(15)
N6 N 0.67328(14) 0.4321(2) 0.54765(14)
N7 N 0.67225(14) 0.3257(2) 0.45334(14)
N8 N 0.49965(14) 0.1503(2) 0.29396(14)
N9 N 0.46005(15) 0.1838(2) 0.32648(15)
N10 N 0.46582(15) 0.1416(2) 0.20193(14)
N11 N 0.50576(15) 0.1718(2) 0.16778(15)
N12 N 0.29258(14) 0.3246(2) 0.04720(14)
N13 N 0.72909(18) 0.2584(3) 0.55792(18)
N14 N 0.72718(18) 0.4970(3) 0.43824(18)
C1 C 0.33898(19) 0.5541(3) 0.9236(2)
H1 H 0.3404 0.6107 0.9216
C2 C 0.29595(19) 0.5163(3) 0.95086(19)
H2 H 0.2683 0.5484 0.9659
C3 C 0.33201(19) 0.3900(3) 0.9330(2)
H3 H 0.3301 0.3335 0.9361
C4 C 0.37489(19) 0.4235(3) 0.9049(2)
H4 H 0.4013 0.3897 0.8891
C5 C 0.37962(18) 0.5078(3) 0.89945(17)
C6 C 0.42617(18) 0.5434(3) 0.86874(18)
C7 C 0.48319(18) 0.5252(3) 0.87611(17)
C8 C 0.5108(2) 0.4757(3) 0.9189(2)
H5 H 0.5492 0.4704 0.9103
H6 H 0.4942 0.4226 0.9203
H7 H 0.5068 0.5021 0.9537
C9 C 0.42379(18) 0.5973(3) 0.82558(18)
C10 C 0.3763(2) 0.6367(4) 0.7988(2)
H8 H 0.3783 0.6946 0.8043
H9 H 0.3428 0.6162 0.8145
H10 H 0.3770 0.6249 0.7604
C11 C 0.4968(2) 0.6559(3) 0.76384(18)
H11 H 0.5294 0.6855 0.7753
H12 H 0.4691 0.6956 0.7533
C12 C 0.56037(18) 0.5806(3) 0.69964(17)
C13 C 0.61165(19) 0.6023(3) 0.7287(2)
H13 H 0.6141 0.6606 0.7320
H14 H 0.6428 0.5823 0.7085
H15 H 0.6114 0.5782 0.7644
C14 C 0.55083(17) 0.5382(3) 0.65154(17)
C15 C 0.49281(18) 0.5419(3) 0.64291(18)
C16 C 0.4591(2) 0.5066(3) 0.5980(2)
H16 H 0.4217 0.4999 0.6103
H17 H 0.4739 0.4546 0.5877
H18 H 0.4597 0.5427 0.5671
C17 C 0.59236(18) 0.5004(3) 0.61558(18)
C18 C 0.63447(18) 0.4516(3) 0.63615(18)
H19 H 0.6364 0.4409 0.6735
C19 C 0.67324(19) 0.4192(3) 0.60140(19)
H20 H 0.7008 0.3866 0.6162
C20 C 0.63306(18) 0.4792(3) 0.52764(18)
H21 H 0.6325 0.4894 0.4902
C21 C 0.59253(19) 0.5132(3) 0.55952(18)
H22 H 0.5652 0.5450 0.5435
C22 C 0.59055(18) 0.2465(3) 0.44557(18)
H23 H 0.5633 0.2162 0.4630
C23 C 0.63172(18) 0.2814(3) 0.47574(18)
H24 H 0.6316 0.2741 0.5135
C24 C 0.67169(18) 0.3348(3) 0.39876(18)
H25 H 0.6995 0.3651 0.3823
C25 C 0.63150(18) 0.3010(3) 0.36632(18)
H26 H 0.6328 0.3087 0.3287
C26 C 0.58912(17) 0.2558(3) 0.38889(17)
C27 C 0.54530(17) 0.2189(3) 0.35563(17)
C28 C 0.55174(17) 0.1709(3) 0.30940(17)
C29 C 0.6006(2) 0.1406(3) 0.2804(2)
H27 H 0.6036 0.0827 0.2855
H28 H 0.6329 0.1669 0.2946
H29 H 0.5971 0.1524 0.2421
C30 C 0.48824(18) 0.2245(3) 0.36470(18)
C31 C 0.4576(2) 0.2673(3) 0.40909(19)
H30 H 0.4219 0.2832 0.3959
H31 H 0.4778 0.3150 0.4201
H32 H 0.4534 0.2313 0.4398
C32 C 0.48249(19) 0.0969(3) 0.24971(17)
H33 H 0.5127 0.0609 0.2402
H34 H 0.4520 0.0633 0.2621
C33 C 0.47815(18) 0.2134(3) 0.12977(17)
C34 C 0.5078(2) 0.2509(3) 0.0834(2)
H35 H 0.5466 0.2525 0.0913
H36 H 0.4945 0.3054 0.0778
H37 H 0.5017 0.2192 0.0509
C35 C 0.42054(18) 0.2100(3) 0.13949(17)
C36 C 0.41422(17) 0.1631(3) 0.18611(18)
C37 C 0.3644(2) 0.1371(4) 0.2168(2)
H38 H 0.3585 0.0798 0.2113
H39 H 0.3330 0.1670 0.2038
H40 H 0.3696 0.1478 0.2551
C38 C 0.37632(18) 0.2487(3) 0.10721(18)
C39 C 0.37680(19) 0.3321(3) 0.09717(19)
H41 H 0.4055 0.3642 0.1104
C40 C 0.33500(18) 0.3670(3) 0.06779(19)
H42 H 0.3361 0.4230 0.0618
C41 C 0.2918(2) 0.2442(3) 0.0571(2)
H43 H 0.2626 0.2135 0.0434
C42 C 0.3323(2) 0.2049(3) 0.0867(2)
H44 H 0.3299 0.1490 0.0927
C43 C 0.7563(2) 0.2176(3) 0.5840(2)
C44 C 0.7576(2) 0.5346(3) 0.4144(2)
Cu1E Cu 0.23192(2) 0.37975(3) 0.00090(2)
Cu1E_2 Cu 0.23192(2) 0.37975(3) 1.00090(2)
N1E N 0.79271(14) 0.4351(2) 0.54364(14)
N12E N 0.79258(14) 0.3246(2) 0.45280(14)
O1 O 0.2549(5) 0.8292(7) 0.8007(4)
O2 O 0.2370(4) 0.0030(6) 0.8004(3)
O3 O 0.2580(4) 0.7520(8) 0.2056(5)
O4 O 0.2470(5) 0.9195(7) 0.2011(3)
loop_
_geom_bond_atom_site_label_1
_geom_bond_atom_site_label_2
_geom_bond_site_symmetry_1
_geom_bond_site_symmetry_2
Cu1 N6 1_555 1_555
S1 C43 1_555 1_555
S2 C44 1_555 1_555
N1 C2 1_555 1_555
N2 N3 1_555 1_555
N3 C9 1_555 1_555
N4 N5 1_555 1_555
N5 C15 1_555 1_555
N6 C19 1_555 1_555
N7 Cu1 1_555 1_555
N8 N9 1_555 1_555
N9 C30 1_555 1_555
N10 N11 1_555 1_555
N11 C33 1_555 1_555
N12 C40 1_555 1_555
N13 Cu1 1_555 1_555
N14 Cu1 1_555 1_555
C1 H1 1_555 1_555
C2 C1 1_555 1_555
H2 C2 1_555 1_555
C3 N1 1_555 1_555
H3 C3 1_555 1_555
C4 C3 1_555 1_555
H4 C4 1_555 1_555
C5 C1 1_555 1_555
C6 C5 1_555 1_555
C7 N2 1_555 1_555
C8 C7 1_555 1_555
H5 C8 1_555 1_555
H6 C8 1_555 1_555
H7 C8 1_555 1_555
C9 C6 1_555 1_555
C10 C9 1_555 1_555
H8 C10 1_555 1_555
H9 C10 1_555 1_555
H10 C10 1_555 1_555
C11 N3 1_555 1_555
H11 C11 1_555 1_555
H12 C11 1_555 1_555
C12 N4 1_555 1_555
C13 C12 1_555 1_555
H13 C13 1_555 1_555
H14 C13 1_555 1_555
H15 C13 1_555 1_555
C14 C12 1_555 1_555
C15 C14 1_555 1_555
C16 C15 1_555 1_555
H16 C16 1_555 1_555
H17 C16 1_555 1_555
H18 C16 1_555 1_555
C17 C14 1_555 1_555
C18 C17 1_555 1_555
H19 C18 1_555 1_555
C19 C18 1_555 1_555
H20 C19 1_555 1_555
C20 N6 1_555 1_555
H21 C20 1_555 1_555
C21 C17 1_555 1_555
H22 C21 1_555 1_555
C22 H23 1_555 1_555
C23 N7 1_555 1_555
H24 C23 1_555 1_555
C24 N7 1_555 1_555
H25 C24 1_555 1_555
C25 C24 1_555 1_555
H26 C25 1_555 1_555
C26 C22 1_555 1_555
C27 C26 1_555 1_555
C28 N8 1_555 1_555
C29 C28 1_555 1_555
H27 C29 1_555 1_555
H28 C29 1_555 1_555
H29 C29 1_555 1_555
C30 C27 1_555 1_555
C31 C30 1_555 1_555
H30 C31 1_555 1_555
H31 C31 1_555 1_555
H32 C31 1_555 1_555
C32 N8 1_555 1_555
H33 C32 1_555 1_555
H34 C32 1_555 1_555
C33 C34 1_555 1_555
C34 H35 1_555 1_555
H36 C34 1_555 1_555
H37 C34 1_555 1_555
C35 C33 1_555 1_555
C36 N10 1_555 1_555
C37 C36 1_555 1_555
H38 C37 1_555 1_555
H39 C37 1_555 1_555
H40 C37 1_555 1_555
C38 C35 1_555 1_555
C39 C38 1_555 1_555
H41 C39 1_555 1_555
C40 C39 1_555 1_555
H42 C40 1_555 1_555
C41 N12 1_555 1_555
H43 C41 1_555 1_555
C42 C38 1_555 1_555
H44 C42 1_555 1_555
C43 N13 1_555 1_555
C44 N14 1_555 1_555
Cu1E N12 1_555 1_555
Cu1E_2 N1 1_555 1_555
N1E Cu1 1_555 1_555
N12E Cu1 1_555 1_555
N4 C11 1_555 1_555
N10 C32 1_555 1_555
C4 C5 1_555 1_555
C6 C7 1_555 1_555
C20 C21 1_555 1_555
C22 C23 1_555 1_555
C25 C26 1_555 1_555
C27 C28 1_555 1_555
C35 C36 1_555 1_555
C41 C42 1_555 1_555

#END
