
#######################################################################
#
#                 Cambridge Crystallographic Data Centre
#                                CCDC 
#
#######################################################################
#
# If this CIF has been generated from an entry in the Cambridge 
# Structural Database, then it will include bibliographic, chemical, 
# crystal, experimental, refinement or atomic coordinate data resulting 
# from the CCDC's data processing and validation procedures.
#
#######################################################################

data_TOLHAE
_symmetry_cell_setting           monoclinic
_symmetry_space_group_name_H-M   'P 21/c'
_symmetry_Int_Tables_number      14
_space_group_name_Hall           '-P 2ybc'
loop_
_symmetry_equiv_pos_site_id
_symmetry_equiv_pos_as_xyz
1 x,y,z
2 -x,1/2+y,1/2-z
3 -x,-y,-z
4 x,1/2-y,1/2+z
_cell_length_a                   11.414(4)
_cell_length_b                   16.924(5)
_cell_length_c                   23.486(7)
_cell_angle_alpha                90
_cell_angle_beta                 99.533(4)
_cell_angle_gamma                90
_cell_volume                     4474.15
loop_
_atom_site_label
_atom_site_type_symbol
_atom_site_fract_x
_atom_site_fract_y
_atom_site_fract_z
Ni1 Ni 1.17583(7) 0.25339(5) 0.32544(3)
O1 O 1.0401(4) 0.2863(3) 0.2646(2)
O2 O 1.0868(4) 0.4083(3) 0.2426(2)
O3 O 0.2644(5) 0.4000(3) -0.0930(3)
O4 O 0.3149(4) 0.2791(3) -0.1162(2)
O5 O 1.0876(4) 0.1473(3) 0.3289(2)
H1 H 1.0801 0.1334 0.2937
H2 H 1.1338 0.1112 0.3446
O6 O 1.2586(4) 0.3639(2) 0.3238(2)
H3 H 1.2868 0.3695 0.3593
H4 H 1.2116 0.3862 0.2967
N1 N 1.0879(4) 0.2956(3) 0.3905(2)
N2 N 0.7763(5) 0.4474(3) 0.5632(3)
N3 N 0.8628(5) 0.4253(3) 0.6064(2)
N4 N 0.5828(5) 0.4389(3) 0.5897(2)
N5 N 0.5041(5) 0.4077(3) 0.5457(3)
N6 N 0.2660(4) 0.2871(3) 0.7604(2)
C1 C 0.9691(5) 0.3542(4) 0.4764(3)
C2 C 0.9881(6) 0.3995(4) 0.4310(3)
H5 H 0.9612 0.4515 0.4283
C3 C 1.0464(6) 0.3697(4) 0.3891(3)
H6 H 1.0576 0.4022 0.3585
C4 C 1.0696(6) 0.2521(4) 0.4354(3)
H7 H 1.0980 0.2005 0.4375
C5 C 1.0123(6) 0.2776(4) 0.4785(3)
H8 H 1.0024 0.2442 0.5088
C6 C 0.9057(6) 0.3863(4) 0.5207(3)
C7 C 0.7982(6) 0.4252(4) 0.5106(3)
C8 C 0.7132(7) 0.4395(5) 0.4564(3)
H9 H 0.6336 0.4299 0.4630
H10 H 0.7310 0.4045 0.4268
H11 H 0.7200 0.4932 0.4443
C9 C 0.9414(6) 0.3866(4) 0.5806(3)
C10 C 1.0524(7) 0.3541(5) 0.6150(3)
H12 H 1.1157 0.3915 0.6153
H13 H 1.0729 0.3056 0.5979
H14 H 1.0401 0.3443 0.6538
C11 C 0.6742(6) 0.4898(4) 0.5755(3)
H15 H 0.6990 0.5255 0.6075
H16 H 0.6419 0.5214 0.5421
C12 C 0.5571(6) 0.4203(4) 0.6418(3)
C13 C 0.6336(7) 0.4445(5) 0.6959(3)
H17 H 0.7140 0.4500 0.6893
H18 H 0.6304 0.4050 0.7250
H19 H 0.6062 0.4940 0.7086
C14 C 0.4575(6) 0.3735(4) 0.6317(3)
C15 C 0.4287(6) 0.3667(4) 0.5710(3)
C16 C 0.3292(6) 0.3265(5) 0.5350(4)
H20 H 0.3300 0.3384 0.4951
H21 H 0.2557 0.3442 0.5454
H22 H 0.3367 0.2705 0.5409
C17 C 0.3929(6) 0.3423(4) 0.6750(3)
C18 C 0.3772(6) 0.3880(4) 0.7231(3)
H23 H 0.4090 0.4386 0.7276
C19 C 0.3152(6) 0.3582(4) 0.7636(3)
H24 H 0.3073 0.3898 0.7951
C20 C 0.2797(6) 0.2443(4) 0.7145(3)
H25 H 0.2447 0.1946 0.7106
C21 C 0.3424(6) 0.2688(4) 0.6725(3)
H26 H 0.3505 0.2351 0.6421
C22 C 1.0230(6) 0.3488(4) 0.2354(3)
C23 C 0.9217(6) 0.3467(4) 0.1874(3)
C24 C 0.8835(7) 0.4140(4) 0.1586(4)
H27 H 0.9229 0.4614 0.1684
C25 C 0.7884(8) 0.4124(4) 0.1157(4)
H28 H 0.7622 0.4595 0.0976
C26 C 0.7281(7) 0.3425(4) 0.0976(4)
C27 C 0.7672(7) 0.2744(4) 0.1276(4)
H29 H 0.7288 0.2267 0.1176
C28 C 0.8625(7) 0.2766(4) 0.1721(3)
H30 H 0.8873 0.2304 0.1920
C29 C 0.6254(7) 0.3419(4) 0.0507(4)
C30 C 0.5425(8) 0.4006(5) 0.0445(4)
H31 H 0.5501 0.4415 0.0713
C31 C 0.4495(8) 0.4012(5) 0.0005(4)
H32 H 0.3950 0.4425 -0.0027
C32 C 0.4353(6) 0.3415(4) -0.0392(3)
C33 C 0.5156(7) 0.2814(5) -0.0330(4)
H33 H 0.5055 0.2396 -0.0591
C34 C 0.6108(7) 0.2812(4) 0.0108(4)
H34 H 0.6657 0.2402 0.0137
C35 C 0.3313(6) 0.3409(4) -0.0866(3)
Ni1C Ni 0.17583(7) 0.24661(5) -0.17456(3)
Ni1C_2 Ni 0.17583(7) 0.24661(5) 0.82544(3)
O4C O 1.3149(4) 0.2209(3) 0.3838(2)
N6C N 1.2660(4) 0.2129(3) 0.2604(2)
O7 O 0.0346(7) 0.5611(3) 0.2635(3)
H35 H 0.0611 0.5177 0.2532
H36 H 0.0830 0.5992 0.2613
O8 O 0.4872(6) 0.3706(5) 0.3068(4)
N7 N 0.6627(6) 0.3106(4) 0.3075(4)
C36 C 0.5425(7) 0.3092(5) 0.3177(4)
H37 H 0.5088 0.2646 0.3316
C37 C 0.7368(9) 0.2412(6) 0.3190(7)
H38 H 0.7056 0.2076 0.3458
H39 H 0.8162 0.2569 0.3352
H40 H 0.7379 0.2130 0.2836
C38 C 0.7102(10) 0.3806(6) 0.2845(8)
H41 H 0.6506 0.4039 0.2558
H42 H 0.7780 0.3665 0.2673
H43 H 0.7337 0.4178 0.3151
O9 O 0.1595(15) 0.1341(13) 0.5740(8)
H44 H 0.1510 0.0853 0.5660
H45 H 0.2174 0.1577 0.5628
O10? O 0.186(2) 0.0121(13) 0.5848(12)
H46? H 0.1818 -0.0335 0.5693
H47? H 0.2179 0.0151 0.6201
loop_
_geom_bond_atom_site_label_1
_geom_bond_atom_site_label_2
_geom_bond_site_symmetry_1
_geom_bond_site_symmetry_2
Ni1 O1 1_555 1_555
O1 C22 1_555 1_555
O2 C22 1_555 1_555
O3 C35 1_555 1_555
O4 C35 1_555 1_555
O5 Ni1 1_555 1_555
H1 O5 1_555 1_555
H2 O5 1_555 1_555
O6 Ni1 1_555 1_555
H3 O6 1_555 1_555
H4 O6 1_555 1_555
N1 Ni1 1_555 1_555
N2 N3 1_555 1_555
N3 C9 1_555 1_555
N4 N5 1_555 1_555
N5 C15 1_555 1_555
N6 C19 1_555 1_555
C1 C2 1_555 1_555
C2 H5 1_555 1_555
C3 N1 1_555 1_555
H6 C3 1_555 1_555
C4 N1 1_555 1_555
H7 C4 1_555 1_555
C5 C1 1_555 1_555
H8 C5 1_555 1_555
C6 C1 1_555 1_555
C7 N2 1_555 1_555
C8 C7 1_555 1_555
H9 C8 1_555 1_555
H10 C8 1_555 1_555
H11 C8 1_555 1_555
C9 C6 1_555 1_555
C10 C9 1_555 1_555
H12 C10 1_555 1_555
H13 C10 1_555 1_555
H14 C10 1_555 1_555
C11 N2 1_555 1_555
H15 C11 1_555 1_555
H16 C11 1_555 1_555
C12 N4 1_555 1_555
C13 C12 1_555 1_555
H17 C13 1_555 1_555
H18 C13 1_555 1_555
H19 C13 1_555 1_555
C14 C12 1_555 1_555
C15 C14 1_555 1_555
C16 C15 1_555 1_555
H20 C16 1_555 1_555
H21 C16 1_555 1_555
H22 C16 1_555 1_555
C17 C14 1_555 1_555
C18 C17 1_555 1_555
H23 C18 1_555 1_555
C19 C18 1_555 1_555
H24 C19 1_555 1_555
C20 N6 1_555 1_555
H25 C20 1_555 1_555
C21 C17 1_555 1_555
H26 C21 1_555 1_555
C22 C23 1_555 1_555
C23 C24 1_555 1_555
C24 H27 1_555 1_555
C25 C24 1_555 1_555
H28 C25 1_555 1_555
C26 C25 1_555 1_555
C27 C26 1_555 1_555
H29 C27 1_555 1_555
C28 C23 1_555 1_555
H30 C28 1_555 1_555
C29 C26 1_555 1_555
C30 C29 1_555 1_555
H31 C30 1_555 1_555
C31 C30 1_555 1_555
H32 C31 1_555 1_555
C32 C31 1_555 1_555
C33 C32 1_555 1_555
H33 C33 1_555 1_555
C34 C29 1_555 1_555
H34 C34 1_555 1_555
C35 C32 1_555 1_555
O7 H35 1_555 1_555
H36 O7 1_555 1_555
O8 C36 1_555 1_555
N7 C36 1_555 1_555
C36 H37 1_555 1_555
C37 N7 1_555 1_555
H38 C37 1_555 1_555
H39 C37 1_555 1_555
H40 C37 1_555 1_555
C38 N7 1_555 1_555
H41 C38 1_555 1_555
H42 C38 1_555 1_555
H43 C38 1_555 1_555
O9 H44 1_555 1_555
H45 O9 1_555 1_555
Ni1C O4 1_555 1_555
Ni1C_2 N6 1_555 1_555
O4C Ni1 1_555 1_555
N6C Ni1 1_555 1_555
N4 C11 1_555 1_555
C2 C3 1_555 1_555
C4 C5 1_555 1_555
C6 C7 1_555 1_555
C20 C21 1_555 1_555
C27 C28 1_555 1_555
C33 C34 1_555 1_555

#END
