
#######################################################################
#
#                 Cambridge Crystallographic Data Centre
#                                CCDC 
#
#######################################################################
#
# If this CIF has been generated from an entry in the Cambridge 
# Structural Database, then it will include bibliographic, chemical, 
# crystal, experimental, refinement or atomic coordinate data resulting 
# from the CCDC's data processing and validation procedures.
#
#######################################################################

data_TOLHEI
_symmetry_cell_setting           monoclinic
_symmetry_space_group_name_H-M   'P 21/n'
_symmetry_Int_Tables_number      14
_space_group_name_Hall           '-P 2yn'
loop_
_symmetry_equiv_pos_site_id
_symmetry_equiv_pos_as_xyz
1 x,y,z
2 1/2-x,1/2+y,1/2-z
3 -x,-y,-z
4 1/2+x,1/2-y,1/2+z
_cell_length_a                   10.9672(12)
_cell_length_b                   10.8989(12)
_cell_length_c                   39.656(4)
_cell_angle_alpha                90
_cell_angle_beta                 93.2940(10)
_cell_angle_gamma                90
_cell_volume                     4732.27
loop_
_atom_site_label
_atom_site_type_symbol
_atom_site_fract_x
_atom_site_fract_y
_atom_site_fract_z
Zn1 Zn 0.58906(7) 0.26937(7) 0.140041(18)
Zn2 Zn 0.60978(7) 0.27393(7) 0.215182(18)
O1 O 0.4235(5) 0.2785(6) 0.20105(14)
O2 O 0.4047(5) 0.2699(5) 0.14492(14)
O3 O -0.2273(5) 0.2684(5) 0.15384(14)
O4 O -0.2073(5) 0.2714(5) 0.20966(14)
O5 O 0.5879(5) 0.4512(4) 0.15210(12)
O6 O 0.6116(5) 0.4576(4) 0.20847(13)
O7 O 0.6063(6) 1.0955(5) 0.20132(13)
O8 O 0.5901(5) 1.0855(5) 0.14565(13)
N1 N 0.5980(5) 0.2882(6) 0.08927(14)
N2 N 0.6689(8) 0.4225(9) -0.06503(17)
N3 N 0.5961(9) 0.3252(10) -0.07340(19)
N4 N 0.8159(7) 0.4548(8) -0.10758(17)
N5 N 0.9265(8) 0.4742(9) -0.09201(19)
N6 N 1.0789(6) 0.2578(6) -0.23578(15)
C1 C 0.6243(12) 0.2088(11) 0.0345(2)
H1 H 0.6355 0.1401 0.0211
C2 C 0.6147(11) 0.1961(9) 0.0692(2)
H2 H 0.6205 0.1177 0.0784
C3 C 0.5914(8) 0.3995(8) 0.0753(2)
H3 H 0.5805 0.4666 0.0893
C4 C 0.5999(8) 0.4205(9) 0.0409(2)
H4 H 0.5938 0.4999 0.0324
C5 C 0.6171(8) 0.3253(8) 0.01994(18)
C6 C 0.6280(8) 0.3432(9) -0.01644(19)
C7 C 0.6894(9) 0.4384(9) -0.0312(2)
C8 C 0.5697(11) 0.2767(11) -0.0437(2)
C9 C 0.7655(14) 0.5406(12) -0.0167(3)
H5 H 0.8397 0.5459 -0.0283
H6 H 0.7845 0.5256 0.0068
H7 H 0.7213 0.6164 -0.0194
C10 C 0.4845(18) 0.1706(17) -0.0432(3)
H8 H 0.4711 0.1385 -0.0657
H9 H 0.4081 0.1969 -0.0350
H10 H 0.5193 0.1079 -0.0286
C11 C 0.7067(11) 0.4992(11) -0.0922(2)
H11 H 0.7220 0.5814 -0.0836
H12 H 0.6405 0.5041 -0.1095
C12 C 1.0060(9) 0.4348(11) -0.1139(2)
C13 C 0.9436(8) 0.3843(10) -0.14280(19)
C14 C 0.8206(8) 0.4002(9) -0.1385(2)
C15 C 1.1406(10) 0.4398(15) -0.1055(3)
H13 H 1.1568 0.4932 -0.0865
H14 H 1.1812 0.4706 -0.1246
H15 H 1.1702 0.3590 -0.1000
C16 C 0.7106(9) 0.3736(12) -0.1607(3)
H16 H 0.6579 0.3191 -0.1493
H17 H 0.7345 0.3358 -0.1811
H18 H 0.6680 0.4488 -0.1660
C17 C 0.9963(7) 0.3350(9) -0.17360(19)
C18 C 1.0806(8) 0.4028(9) -0.1903(2)
H19 H 1.1121 0.4752 -0.1810
C19 C 1.1177(8) 0.3620(7) -0.22134(19)
H20 H 1.1727 0.4099 -0.2326
C20 C 1.0016(10) 0.1917(10) -0.2191(2)
H21 H 0.9755 0.1171 -0.2283
C21 C 0.9577(10) 0.2271(9) -0.1889(2)
H22 H 0.9012 0.1778 -0.1787
C22 C 0.2252(6) 0.2724(7) 0.17553(19)
C23 C 0.1509(7) 0.2675(8) 0.1467(2)
H23 H 0.1847 0.2649 0.1258
C24 C 0.0245(7) 0.2663(8) 0.1487(2)
H24 H -0.0254 0.2638 0.1289
C25 C -0.0274(6) 0.2688(7) 0.17924(18)
C26 C 0.0487(7) 0.2731(10) 0.2082(2)
H25 H 0.0153 0.2745 0.2292
C27 C 0.1729(7) 0.2751(10) 0.2062(2)
H26 H 0.2228 0.2784 0.2260
C28 C 0.3618(7) 0.2727(7) 0.1735(2)
C29 C -0.1652(6) 0.2696(7) 0.18105(19)
C30 C 0.5995(6) 0.6447(6) 0.17853(17)
C31 C 0.6036(7) 0.7132(7) 0.20788(18)
H27 H 0.6062 0.6738 0.2287
C32 C 0.6039(7) 0.8397(7) 0.20642(18)
H28 H 0.6070 0.8851 0.2263
C33 C 0.5997(6) 0.8992(6) 0.17572(17)
C34 C 0.5951(7) 0.8302(7) 0.14634(18)
H29 H 0.5914 0.8693 0.1255
C35 C 0.5959(7) 0.7039(6) 0.14784(18)
H30 H 0.5939 0.6584 0.1280
C36 C 0.5994(7) 0.5069(6) 0.17985(19)
C37 C 0.5992(6) 1.0376(6) 0.17415(18)
Zn1_2 Zn -0.41094(7) 0.26937(7) 0.140041(18)
Zn1_3 Zn 0.58906(7) 1.26937(7) 0.140041(18)
Zn2_2 Zn -0.39022(7) 0.27393(7) 0.215182(18)
Zn2_3 Zn 0.60978(7) 1.27393(7) 0.215182(18)
Zn2C Zn 1.10978(7) 0.22607(7) -0.284818(18)
O3_2 O 0.7727(5) 0.2684(5) 0.15384(14)
O4_2 O 0.7927(5) 0.2714(5) 0.20966(14)
O7_2 O 0.6063(6) 0.0955(5) 0.20132(13)
O8_2 O 0.5901(5) 0.0855(5) 0.14565(13)
N6C N 0.5789(6) 0.2422(6) 0.26422(15)
O9 O 0.322(3) 0.019(3) 0.1021(9)
O10 O 0.871(4) 0.975(4) 0.1080(12)
O11 O 0.712(4) 0.027(4) 0.7949(10)
O12 O 0.011(4) 0.720(4) 0.9477(10)
loop_
_geom_bond_atom_site_label_1
_geom_bond_atom_site_label_2
_geom_bond_site_symmetry_1
_geom_bond_site_symmetry_2
Zn1 O2 1_555 1_555
Zn2 O1 1_555 1_555
O1 C28 1_555 1_555
O2 C28 1_555 1_555
O3 C29 1_555 1_555
O4 C29 1_555 1_555
O5 Zn1 1_555 1_555
O6 Zn2 1_555 1_555
O7 C37 1_555 1_555
O8 C37 1_555 1_555
N1 Zn1 1_555 1_555
N2 N3 1_555 1_555
N3 C8 1_555 1_555
N4 N5 1_555 1_555
N5 C12 1_555 1_555
N6 C19 1_555 1_555
C1 H1 1_555 1_555
C2 N1 1_555 1_555
H2 C2 1_555 1_555
C3 N1 1_555 1_555
H3 C3 1_555 1_555
C4 C3 1_555 1_555
H4 C4 1_555 1_555
C5 C1 1_555 1_555
C6 C5 1_555 1_555
C7 N2 1_555 1_555
C8 C6 1_555 1_555
C9 C7 1_555 1_555
H5 C9 1_555 1_555
H6 C9 1_555 1_555
H7 C9 1_555 1_555
C10 C8 1_555 1_555
H8 C10 1_555 1_555
H9 C10 1_555 1_555
H10 C10 1_555 1_555
C11 N2 1_555 1_555
H11 C11 1_555 1_555
H12 C11 1_555 1_555
C12 C13 1_555 1_555
C13 C14 1_555 1_555
C14 N4 1_555 1_555
C15 C12 1_555 1_555
H13 C15 1_555 1_555
H14 C15 1_555 1_555
H15 C15 1_555 1_555
C16 C14 1_555 1_555
H16 C16 1_555 1_555
H17 C16 1_555 1_555
H18 C16 1_555 1_555
C17 C13 1_555 1_555
C18 C17 1_555 1_555
H19 C18 1_555 1_555
C19 C18 1_555 1_555
H20 C19 1_555 1_555
C20 N6 1_555 1_555
H21 C20 1_555 1_555
C21 C17 1_555 1_555
H22 C21 1_555 1_555
C22 C23 1_555 1_555
C23 H23 1_555 1_555
C24 C23 1_555 1_555
H24 C24 1_555 1_555
C25 C24 1_555 1_555
C26 C25 1_555 1_555
H25 C26 1_555 1_555
C27 C22 1_555 1_555
H26 C27 1_555 1_555
C28 C22 1_555 1_555
C29 C25 1_555 1_555
C30 C31 1_555 1_555
C31 H27 1_555 1_555
C32 C31 1_555 1_555
H28 C32 1_555 1_555
C33 C32 1_555 1_555
C34 C33 1_555 1_555
H29 C34 1_555 1_555
C35 C30 1_555 1_555
H30 C35 1_555 1_555
C36 O5 1_555 1_555
C37 C33 1_555 1_555
Zn1_2 O3 1_555 1_555
Zn1_3 O8 1_555 1_555
Zn2_2 O4 1_555 1_555
Zn2_3 O7 1_555 1_555
Zn2C N6 1_555 1_555
O3_2 Zn1 1_555 1_555
O4_2 Zn2 1_555 1_555
O7_2 Zn2 1_555 1_555
O8_2 Zn1 1_555 1_555
N6C Zn2 1_555 1_555
O6 C36 1_555 1_555
N4 C11 1_555 1_555
C1 C2 1_555 1_555
C4 C5 1_555 1_555
C6 C7 1_555 1_555
C20 C21 1_555 1_555
C26 C27 1_555 1_555
C30 C36 1_555 1_555
C34 C35 1_555 1_555

#END
