
#######################################################################
#
#                 Cambridge Crystallographic Data Centre
#                                CCDC 
#
#######################################################################
#
# If this CIF has been generated from an entry in the Cambridge 
# Structural Database, then it will include bibliographic, chemical, 
# crystal, experimental, refinement or atomic coordinate data resulting 
# from the CCDC's data processing and validation procedures.
#
#######################################################################

data_TOLJOU
_symmetry_cell_setting           triclinic
_symmetry_space_group_name_H-M   'P -1'
_symmetry_Int_Tables_number      2
_space_group_name_Hall           '-P 1'
loop_
_symmetry_equiv_pos_site_id
_symmetry_equiv_pos_as_xyz
1 x,y,z
2 -x,-y,-z
_cell_length_a                   7.1291(2)
_cell_length_b                   7.3784(3)
_cell_length_c                   10.5042(3)
_cell_angle_alpha                95.049(2)
_cell_angle_beta                 102.162(2)
_cell_angle_gamma                97.027(3)
_cell_volume                     532.378
loop_
_atom_site_label
_atom_site_type_symbol
_atom_site_fract_x
_atom_site_fract_y
_atom_site_fract_z
Zn1 Zn 0.0000 0.0000 0.0000
O1 O 0.0346(3) 0.2802(3) -0.0169(3)
H1 H 0.1243 0.3320 0.0377
H2 H -0.0746 0.3242 -0.0612
O2 O 0.2385(3) -0.0297(3) -0.0843(2)
H3 H 0.3073 0.0672 -0.0755
H4 H 0.2914 -0.1155 -0.0483
N1 N 0.1811(4) 0.0344(4) 0.1960(3)
C1 C 0.1207(5) -0.0487(6) 0.2915(4)
H5 H -0.0094 -0.0988 0.2762
C2 C 0.3668(5) 0.1119(5) 0.2245(3)
H6 H 0.4116 0.1772 0.1625
C3 C 0.4948(5) 0.1007(5) 0.3396(3)
H7 H 0.6234 0.1545 0.3529
C4 C 0.4324(5) 0.0086(5) 0.4373(3)
C5 C 0.2374(5) -0.0650(6) 0.4100(4)
H8 H 0.1864 -0.1250 0.4721
Zn1_2 Zn 1.0000 0.0000 1.0000
O1A O -0.0346(3) -0.2802(3) 0.0169(3)
H1A H -0.1243 -0.3320 -0.0377
H2A H 0.0746 -0.3242 0.0612
O2A O -0.2385(3) 0.0297(3) 0.0843(2)
H3A H -0.3073 -0.0672 0.0755
H4A H -0.2914 0.1155 0.0483
N1A N 0.8189(4) -0.0344(4) 0.8040(3)
N1A_2 N -0.1811(4) -0.0344(4) -0.1960(3)
C1A C 0.8793(5) 0.0487(6) 0.7085(4)
H5A H 1.0094 0.0988 0.7238
C2A C 0.6332(5) -0.1119(5) 0.7755(3)
H6A H 0.5884 -0.1772 0.8375
C3A C 0.5052(5) -0.1007(5) 0.6604(3)
H7A H 0.3766 -0.1545 0.6471
C4A C 0.5676(5) -0.0086(5) 0.5627(3)
C5A C 0.7626(5) 0.0650(6) 0.5900(4)
H8A H 0.8136 0.1250 0.5279
O3 O 0.4651(3) 0.7440(4) 0.0399(3)
O4 O 0.2750(4) 0.5759(4) 0.1419(2)
C6 C 0.4382(5) 0.6398(5) 0.1251(3)
C7 C 0.6208(6) 0.5935(6) 0.2069(4)
H9 H 0.7222 0.5779 0.1659
C8 C 0.6488(6) 0.5734(6) 0.3313(4)
H10 H 0.5451 0.5843 0.3710
C9 C 0.8301(6) 0.5349(5) 0.4150(4)
C10 C 0.9779(6) 0.4667(6) 0.3668(4)
H11 H 0.9650 0.4434 0.2767
C11 C 0.8571(6) 0.5668(6) 0.5496(4)
H12 H 0.7606 0.6124 0.5848
O3A O 1.5349(3) 0.2560(4) 0.9601(3)
O4A O 1.7250(4) 0.4241(4) 0.8581(2)
C6A C 1.5618(5) 0.3602(5) 0.8749(3)
C7A C 1.3792(6) 0.4065(6) 0.7931(4)
H9A H 1.2778 0.4221 0.8341
C8A C 1.3512(6) 0.4266(6) 0.6687(4)
H10A H 1.4549 0.4157 0.6290
C9A C 1.1699(6) 0.4651(5) 0.5850(4)
C10A C 1.0221(6) 0.5333(6) 0.6332(4)
H11A H 1.0350 0.5566 0.7233
C11A C 1.1429(6) 0.4332(6) 0.4504(4)
H12A H 1.2394 0.3876 0.4152
loop_
_geom_bond_atom_site_label_1
_geom_bond_atom_site_label_2
_geom_bond_site_symmetry_1
_geom_bond_site_symmetry_2
Zn1 O1 1_555 1_555
O1 H1 1_555 1_555
H2 O1 1_555 1_555
O2 Zn1 1_555 1_555
H3 O2 1_555 1_555
H4 O2 1_555 1_555
N1 Zn1 1_555 1_555
C1 N1 1_555 1_555
H5 C1 1_555 1_555
C2 N1 1_555 1_555
H6 C2 1_555 1_555
C3 C2 1_555 1_555
H7 C3 1_555 1_555
C4 C3 1_555 1_555
C5 C1 1_555 1_555
H8 C5 1_555 1_555
O3 C6 1_555 1_555
O4 C6 1_555 1_555
C6 C7 1_555 1_555
C7 H9 1_555 1_555
C8 C7 1_555 1_555
H10 C8 1_555 1_555
C9 C8 1_555 1_555
C10 C9 1_555 1_555
H11 C10 1_555 1_555
C11 C9 1_555 1_555
H12 C11 1_555 1_555
Zn1_2 N1A 1_555 1_555
O1A Zn1 1_555 1_555
H1A O1A 1_555 1_555
H2A O1A 1_555 1_555
O2A Zn1 1_555 1_555
H3A O2A 1_555 1_555
H4A O2A 1_555 1_555
N1A C1A 1_555 1_555
N1A_2 Zn1 1_555 1_555
C1A H5A 1_555 1_555
C2A N1A 1_555 1_555
H6A C2A 1_555 1_555
C3A C2A 1_555 1_555
H7A C3A 1_555 1_555
C4A C4 1_555 1_555
C5A C1A 1_555 1_555
H8A C5A 1_555 1_555
O3A C6A 1_555 1_555
O4A C6A 1_555 1_555
C6A C7A 1_555 1_555
C7A H9A 1_555 1_555
C8A C7A 1_555 1_555
H10A C8A 1_555 1_555
C9A C8A 1_555 1_555
C10A C11 1_555 1_555
H11A C10A 1_555 1_555
C11A C10 1_555 1_555
H12A C11A 1_555 1_555
C4 C5 1_555 1_555
C3A C4A 1_555 1_555
C4A C5A 1_555 1_555
C9A C10A 1_555 1_555
C9A C11A 1_555 1_555

#END
