
#######################################################################
#
#                 Cambridge Crystallographic Data Centre
#                                CCDC 
#
#######################################################################
#
# If this CIF has been generated from an entry in the Cambridge 
# Structural Database, then it will include bibliographic, chemical, 
# crystal, experimental, refinement or atomic coordinate data resulting 
# from the CCDC's data processing and validation procedures.
#
#######################################################################

data_TOLLAI
_symmetry_cell_setting           monoclinic
_symmetry_space_group_name_H-M   'C 2/c'
_symmetry_Int_Tables_number      15
_space_group_name_Hall           '-C 2yn'
loop_
_symmetry_equiv_pos_site_id
_symmetry_equiv_pos_as_xyz
1 x,y,z
2 -x,y,1/2-z
3 1/2+x,1/2+y,z
4 1/2-x,1/2+y,1/2-z
5 -x,-y,-z
6 x,-y,1/2+z
7 1/2-x,1/2-y,-z
8 1/2+x,1/2-y,1/2+z
_cell_length_a                   24.140(7)
_cell_length_b                   20.884(7)
_cell_length_c                   15.462(2)
_cell_angle_alpha                90
_cell_angle_beta                 127.464(12)
_cell_angle_gamma                90
_cell_volume                     6187.18
loop_
_atom_site_label
_atom_site_type_symbol
_atom_site_fract_x
_atom_site_fract_y
_atom_site_fract_z
Hg2 Hg 0.016179(16) 1.286870(19) 0.23026(3)
Cl5 Cl 0.0000 1.17296(12) 0.2500
Cl6 Cl 0.03612(9) 1.26284(10) 0.09398(15)
Cl7 Cl 0.10411(6) 1.34615(9) 0.36256(13)
Hg2A Hg -0.016179(16) 1.286870(19) 0.26974(3)
Cl6A Cl -0.03612(9) 1.26284(10) 0.40602(15)
Cl7A Cl -0.10411(6) 1.34615(9) 0.13744(13)
La1 La 0.120982(9) 1.256353(10) 0.885661(16)
N1 N 0.02271(18) 1.45278(18) 0.4167(3)
H1 H 0.0254 1.4749 0.3724
N2 N -0.02810(16) 1.05289(17) 1.0667(3)
H2 H -0.0299 1.0306 1.1116
N3 N 0.17524(16) 1.20171(17) 0.5213(2)
H3 H 0.1581 1.1916 0.4554
O1 O 0.06663(11) 1.31982(13) 0.71413(19)
O2 O -0.04805(10) 1.33966(13) 0.61346(19)
O3 O 0.03295(11) 1.19541(13) 0.8832(2)
O4 O -0.08032(11) 1.17646(12) 0.75796(19)
O5 O 0.21787(11) 1.25207(12) 0.87034(19)
O6 O 0.32315(11) 1.23864(13) 0.91635(19)
C1 C 0.07946(18) 1.4025(2) 0.5861(3)
H4 H 0.1206 1.3914 0.6533
C2 C 0.0807(2) 1.4371(2) 0.5105(4)
H5 H 0.1232 1.4492 0.5269
C3 C -0.0405(2) 1.4365(2) 0.3853(3)
H6 H -0.0806 1.4474 0.3167
C4 C -0.04426(19) 1.4031(2) 0.4576(3)
H7 H -0.0877 1.3923 0.4389
C5 C 0.01591(16) 1.38518(18) 0.5587(3)
C6 C 0.01107(17) 1.34432(18) 0.6357(3)
C7 C -0.08321(17) 1.09123(18) 0.8915(3)
H8 H -0.1224 1.0929 0.8189
C8 C -0.08424(19) 1.0561(2) 0.9656(3)
H9 H -0.1246 1.0347 0.9440
C9 C 0.0315(2) 1.0819(2) 1.1043(3)
H10 H 0.0704 1.0776 1.1768
C10 C 0.03424(18) 1.1185(2) 1.0331(3)
H11 H 0.0753 1.1396 1.0574
C11 C -0.02363(15) 1.12389(16) 0.9258(3)
C12 C -0.02263(16) 1.16827(17) 0.8493(3)
C13 C 0.27081(17) 1.2047(2) 0.7061(3)
H12 H 0.3180 1.1977 0.7613
C14 C 0.2425(2) 1.1917(2) 0.5991(3)
H13 H 0.2707 1.1760 0.5816
C15 C 0.1332(2) 1.2267(2) 0.5405(3)
H14 H 0.0865 1.2344 0.4833
C16 C 0.15927(18) 1.24117(19) 0.6463(3)
H15 H 0.1306 1.2595 0.6608
C17 C 0.22857(16) 1.22811(17) 0.7304(3)
C18 C 0.25912(17) 1.24088(17) 0.8490(3)
O9 O 0.18630(11) 1.36317(12) 0.9541(2)
H16 H 0.2264 1.3581 0.9751
O10 O 0.17316(11) 1.14310(11) 0.96874(19)
H17 H 0.1834 1.1409 1.0299
La1A La -0.120982(9) 1.256353(10) 0.614339(16)
La1F La 0.379018(9) 1.243647(10) 1.114339(16)
N1A N -0.02271(18) 1.45278(18) 1.0833(3)
H1A H -0.0254 1.4749 1.1276
N2A N 0.02810(16) 1.05289(17) 0.4333(3)
H2A H 0.0299 1.0306 0.3884
N3F N 0.32476(16) 1.29829(17) 1.4787(2)
H3F H 0.3419 1.3084 1.5446
O1A O -0.06663(11) 1.31982(13) 0.78587(19)
O2A O 0.04805(10) 1.33966(13) 0.88654(19)
O3A O -0.03295(11) 1.19541(13) 0.6168(2)
O4A O 0.08032(11) 1.17646(12) 0.74204(19)
O5F O 0.28213(11) 1.24793(12) 1.12966(19)
O5A O -0.21787(11) 1.25207(12) 0.62966(19)
O6F O 0.17685(11) 1.26136(13) 1.08365(19)
O6G O -0.17685(11) 1.26136(13) 0.41635(19)
C1A C -0.07946(18) 1.4025(2) 0.9139(3)
H4A H -0.1206 1.3914 0.8467
C2A C -0.0807(2) 1.4371(2) 0.9895(4)
H5A H -0.1232 1.4492 0.9731
C3A C 0.0405(2) 1.4365(2) 1.1147(3)
H6A H 0.0806 1.4474 1.1833
C4A C 0.04426(19) 1.4031(2) 1.0424(3)
H7A H 0.0877 1.3923 1.0611
C5A C -0.01591(16) 1.38518(18) 0.9413(3)
C6A C -0.01107(17) 1.34432(18) 0.8643(3)
C7A C 0.08321(17) 1.09123(18) 0.6085(3)
H8A H 0.1224 1.0929 0.6811
C8A C 0.08424(19) 1.0561(2) 0.5344(3)
H9A H 0.1246 1.0347 0.5560
C9A C -0.0315(2) 1.0819(2) 0.3957(3)
H10A H -0.0704 1.0776 0.3232
C10A C -0.03424(18) 1.1185(2) 0.4669(3)
H11A H -0.0753 1.1396 0.4426
C11A C 0.02363(15) 1.12389(16) 0.5742(3)
C12A C 0.02263(16) 1.16827(17) 0.6507(3)
C13F C 0.22919(17) 1.2953(2) 1.2939(3)
H12F H 0.1820 1.3023 1.2387
C14F C 0.2575(2) 1.3083(2) 1.4009(3)
H13F H 0.2293 1.3240 1.4184
C15F C 0.3668(2) 1.2733(2) 1.4595(3)
H14F H 0.4135 1.2656 1.5167
C16F C 0.34073(18) 1.25883(19) 1.3537(3)
H15F H 0.3694 1.2405 1.3392
C17F C 0.27143(16) 1.27189(17) 1.2696(3)
C18F C 0.24088(17) 1.25912(17) 1.1510(3)
O9A O -0.18630(11) 1.36317(12) 0.5459(2)
H16A H -0.2264 1.3581 0.5249
O10A O -0.17316(11) 1.14310(11) 0.53126(19)
H17A H -0.1834 1.1409 0.4701
O7 O 0.21859(15) 1.10195(13) 1.1684(2)
H19 H 0.2313(7) 1.0645(2) 1.178(5)
O8 O 0.07717(10) 1.47476(14) 0.82395(19)
H18 H 0.1013(2) 1.4816(13) 0.8041(5)
Hg1 Hg 0.215877(8) 0.972135(9) 0.920140(13)
Cl1 Cl 0.19967(6) 0.86199(6) 0.84952(9)
Cl2 Cl 0.27346(5) 0.97715(6) 1.11632(8)
Cl3 Cl 0.26652(5) 1.03975(6) 0.85332(9)
Cl4 Cl 0.09363(4) 1.01691(5) 0.83159(7)
loop_
_geom_bond_atom_site_label_1
_geom_bond_atom_site_label_2
_geom_bond_site_symmetry_1
_geom_bond_site_symmetry_2
Hg1 Cl1 1_555 1_555
Hg2 Cl5 1_555 1_555
La1 O1 1_555 1_555
Cl2 Hg1 1_555 1_555
Cl3 Hg1 1_555 1_555
Cl4 Hg1 1_555 1_555
Cl5 Hg2A 1_555 1_555
Cl6 Hg2 1_555 1_555
Cl7 Hg2 1_555 1_555
N1 H1 1_555 1_555
N2 H2 1_555 1_555
N3 H3 1_555 1_555
O1 C6 1_555 1_555
O2 C6 1_555 1_555
O3 La1 1_555 1_555
O4 C12 1_555 1_555
O5 La1 1_555 1_555
O6 C18 1_555 1_555
C1 H4 1_555 1_555
C2 N1 1_555 1_555
H5 C2 1_555 1_555
C3 N1 1_555 1_555
H6 C3 1_555 1_555
C4 C3 1_555 1_555
H7 C4 1_555 1_555
C5 C1 1_555 1_555
C6 C5 1_555 1_555
C7 H8 1_555 1_555
C8 N2 1_555 1_555
H9 C8 1_555 1_555
C9 N2 1_555 1_555
H10 C9 1_555 1_555
C10 C9 1_555 1_555
H11 C10 1_555 1_555
C11 C7 1_555 1_555
C12 O3 1_555 1_555
C13 H12 1_555 1_555
C14 N3 1_555 1_555
H13 C14 1_555 1_555
C15 N3 1_555 1_555
H14 C15 1_555 1_555
C16 C15 1_555 1_555
H15 C16 1_555 1_555
C17 C13 1_555 1_555
C18 O5 1_555 1_555
O7 H19 1_555 1_555
O8 H18 1_555 1_555
O9 La1 1_555 1_555
H16 O9 1_555 1_555
O10 La1 1_555 1_555
H17 O10 1_555 1_555
Hg2A Hg2 1_555 1_555
La1A O2 1_555 1_555
La1F O6 1_555 1_555
Cl6A Hg2A 1_555 1_555
Cl7A Hg2 1_555 1_555
N1A H1A 1_555 1_555
N2A H2A 1_555 1_555
N3F H3F 1_555 1_555
O1A La1A 1_555 1_555
O2A La1 1_555 1_555
O3A La1A 1_555 1_555
O4A La1 1_555 1_555
O5F La1F 1_555 1_555
O5A La1A 1_555 1_555
O6F La1 1_555 1_555
O6G La1A 1_555 1_555
C1A H4A 1_555 1_555
C2A N1A 1_555 1_555
H5A C2A 1_555 1_555
C3A N1A 1_555 1_555
H6A C3A 1_555 1_555
C4A C3A 1_555 1_555
H7A C4A 1_555 1_555
C5A C1A 1_555 1_555
C6A O1A 1_555 1_555
C7A H8A 1_555 1_555
C8A N2A 1_555 1_555
H9A C8A 1_555 1_555
C9A N2A 1_555 1_555
H10A C9A 1_555 1_555
C10A C9A 1_555 1_555
H11A C10A 1_555 1_555
C11A C7A 1_555 1_555
C12A O3A 1_555 1_555
C13F H12F 1_555 1_555
C14F N3F 1_555 1_555
H13F C14F 1_555 1_555
C15F N3F 1_555 1_555
H14F C15F 1_555 1_555
C16F C15F 1_555 1_555
H15F C16F 1_555 1_555
C17F C13F 1_555 1_555
C18F O5F 1_555 1_555
O9A La1A 1_555 1_555
H16A O9A 1_555 1_555
O10A La1A 1_555 1_555
H17A O10A 1_555 1_555
Cl7 Hg2A 1_555 1_555
O4 La1A 1_555 1_555
C1 C2 1_555 1_555
C4 C5 1_555 1_555
C7 C8 1_555 1_555
C10 C11 1_555 1_555
C11 C12 1_555 1_555
C13 C14 1_555 1_555
C16 C17 1_555 1_555
C17 C18 1_555 1_555
Hg2A Cl7A 1_555 1_555
O2A C6A 1_555 1_555
O4A C12A 1_555 1_555
O6F C18F 1_555 1_555
C1A C2A 1_555 1_555
C4A C5A 1_555 1_555
C5A C6A 1_555 1_555
C7A C8A 1_555 1_555
C10A C11A 1_555 1_555
C11A C12A 1_555 1_555
C13F C14F 1_555 1_555
C16F C17F 1_555 1_555
C17F C18F 1_555 1_555

#END
