
#######################################################################
#
#                 Cambridge Crystallographic Data Centre
#                                CCDC 
#
#######################################################################
#
# If this CIF has been generated from an entry in the Cambridge 
# Structural Database, then it will include bibliographic, chemical, 
# crystal, experimental, refinement or atomic coordinate data resulting 
# from the CCDC's data processing and validation procedures.
#
#######################################################################

data_TOLMEN
_symmetry_cell_setting           monoclinic
_symmetry_space_group_name_H-M   'C 2/c'
_symmetry_Int_Tables_number      15
_space_group_name_Hall           '-C 2yn'
loop_
_symmetry_equiv_pos_site_id
_symmetry_equiv_pos_as_xyz
1 x,y,z
2 -x,y,1/2-z
3 1/2+x,1/2+y,z
4 1/2-x,1/2+y,1/2-z
5 -x,-y,-z
6 x,-y,1/2+z
7 1/2-x,1/2-y,-z
8 1/2+x,1/2-y,1/2+z
_cell_length_a                   23.351(2)
_cell_length_b                   11.6537(12)
_cell_length_c                   21.140(2)
_cell_angle_alpha                90
_cell_angle_beta                 121.500(2)
_cell_angle_gamma                90
_cell_volume                     4905.01
loop_
_atom_site_label
_atom_site_type_symbol
_atom_site_fract_x
_atom_site_fract_y
_atom_site_fract_z
Mn1 Mn 0.028746(12) 0.70533(2) 0.184758(13)
C1 C 0.09978(9) 0.51994(19) 0.13495(10)
H1 H 0.1131 0.4863 0.1805
C2 C 0.12040(11) 0.4696(2) 0.09003(12)
H2 H 0.1467 0.4037 0.1054
C3 C 0.10150(11) 0.5183(2) 0.02390(12)
H3 H 0.1149 0.4857 -0.0065
C4 C 0.06215(10) 0.6169(2) 0.00111(10)
C5 C 0.04010(11) 0.6733(3) -0.06801(11)
H4 H 0.0540 0.6456 -0.0991
C6 C -0.00029(11) 0.7655(3) -0.08878(11)
H5 H -0.0144 0.7998 -0.1343
C7 C -0.02206(10) 0.8119(2) -0.04225(10)
C8 C -0.06495(12) 0.9046(3) -0.06174(12)
H6 H -0.0803 0.9410 -0.1070
C9 C -0.08510(12) 0.9435(3) -0.01509(13)
H7 H -0.1151 1.0044 -0.0288
C10 C -0.05952(10) 0.8897(2) 0.05307(12)
H8 H -0.0721 0.9174 0.0853
C11 C 0.00029(9) 0.76224(19) 0.02710(9)
C12 C 0.04295(8) 0.66231(18) 0.04915(9)
C13 C 0.16700(8) 0.00432(17) 0.25275(9)
C14 C 0.20344(8) -0.02778(18) 0.22023(10)
H9 H 0.2024 -0.1038 0.2062
C15 C 0.24065(9) 0.0501(2) 0.20850(11)
H10 H 0.2653 0.0268 0.1877
C16 C 0.24147(10) 0.1623(2) 0.22743(12)
H11 H 0.2671 0.2153 0.2198
C17 C 0.20424(9) 0.19787(19) 0.25797(11)
H12 H 0.2048 0.2746 0.2705
C18 C 0.16609(8) 0.11902(17) 0.26990(9)
C19 C 0.12608(8) -0.08523(17) 0.26271(10)
C20 C 0.17024(8) 0.39968(17) 0.37145(9)
C21 C 0.16104(8) 0.51162(16) 0.38848(9)
C22 C 0.20980(9) 0.5604(2) 0.45450(10)
H13 H 0.2033 0.6341 0.4665
C23 C 0.26843(10) 0.5016(2) 0.50344(11)
H14 H 0.3008 0.5353 0.5478
C24 C 0.27757(10) 0.3940(2) 0.48536(11)
H15 H 0.3171 0.3548 0.5172
C25 C 0.22916(9) 0.34185(19) 0.42060(10)
H16 H 0.2360 0.2676 0.4098
C26 C 0.09893(8) 0.57996(16) 0.33671(9)
N1 N 0.06201(7) 0.61357(14) 0.11539(7)
N2 N -0.01830(7) 0.80119(15) 0.07439(8)
O1 O 0.11209(6) -0.17489(12) 0.22462(8)
O2 O 0.10719(6) -0.06283(12) 0.30676(7)
O3 O 0.0000 0.81451(14) 0.2500
H17 H 0.0321(4) 0.8592(8) 0.2706(9)
O4 O 0.08293(6) 0.58302(12) 0.27004(6)
O5 O 0.06871(6) 0.62717(13) 0.36382(7)
S1 S 0.10461(2) 0.33718(5) 0.28778(3)
S2 S 0.11449(2) 0.16396(5) 0.30538(3)
Mn1A Mn -0.028746(12) 0.70533(2) 0.315242(13)
Mn1_2 Mn 0.028746(12) -0.29467(2) 0.184758(13)
Mn1A_2 Mn -0.028746(12) -0.29467(2) 0.315242(13)
C1A C -0.09978(9) 0.51994(19) 0.36505(10)
H1A H -0.1131 0.4863 0.3195
C2A C -0.12040(11) 0.4696(2) 0.40997(12)
H2A H -0.1467 0.4037 0.3946
C3A C -0.10150(11) 0.5183(2) 0.47610(12)
H3A H -0.1149 0.4857 0.5065
C4A C -0.06215(10) 0.6169(2) 0.49889(10)
C5A C -0.04010(11) 0.6733(3) 0.56801(11)
H4A H -0.0540 0.6456 0.5991
C6A C 0.00029(11) 0.7655(3) 0.58878(11)
H5A H 0.0144 0.7998 0.6343
C7A C 0.02206(10) 0.8119(2) 0.54225(10)
C8A C 0.06495(12) 0.9046(3) 0.56174(12)
H6A H 0.0803 0.9410 0.6070
C9A C 0.08510(12) 0.9435(3) 0.51509(13)
H7A H 0.1151 1.0044 0.5288
C10A C 0.05952(10) 0.8897(2) 0.44693(12)
H8A H 0.0721 0.9174 0.4147
C11A C -0.00029(9) 0.76224(19) 0.47290(9)
C12A C -0.04295(8) 0.66231(18) 0.45085(9)
C13A C -0.16700(8) 0.00432(17) 0.24725(9)
C14A C -0.20344(8) -0.02778(18) 0.27977(10)
H9A H -0.2024 -0.1038 0.2938
C15A C -0.24065(9) 0.0501(2) 0.29150(11)
H10A H -0.2653 0.0268 0.3123
C16A C -0.24147(10) 0.1623(2) 0.27257(12)
H11A H -0.2671 0.2153 0.2802
C17A C -0.20424(9) 0.19787(19) 0.24203(11)
H12A H -0.2048 0.2746 0.2295
C18A C -0.16609(8) 0.11902(17) 0.23010(9)
C19A C -0.12608(8) -0.08523(17) 0.23729(10)
C20A C -0.17024(8) 0.39968(17) 0.12855(9)
C21A C -0.16104(8) 0.51162(16) 0.11152(9)
C22A C -0.20980(9) 0.5604(2) 0.04550(10)
H13A H -0.2033 0.6341 0.0335
C23A C -0.26843(10) 0.5016(2) -0.00344(11)
H14A H -0.3008 0.5353 -0.0478
C24A C -0.27757(10) 0.3940(2) 0.01464(11)
H15A H -0.3171 0.3548 -0.0172
C25A C -0.22916(9) 0.34185(19) 0.07940(10)
H16A H -0.2360 0.2676 0.0902
C26A C -0.09893(8) 0.57996(16) 0.16329(9)
N1A N -0.06201(7) 0.61357(14) 0.38461(7)
N2A N 0.01830(7) 0.80119(15) 0.42561(8)
O1A O -0.11209(6) -0.17489(12) 0.27538(8)
O1_2 O 0.11209(6) 0.82511(12) 0.22462(8)
O1A_2 O -0.11209(6) 0.82511(12) 0.27538(8)
O2A O -0.10719(6) -0.06283(12) 0.19324(7)
H17A H -0.0321(4) 0.8592(8) 0.2294(9)
O4A O -0.08293(6) 0.58302(12) 0.22996(6)
O5A O -0.06871(6) 0.62717(13) 0.13618(7)
S1A S -0.10461(2) 0.33718(5) 0.21222(3)
S2A S -0.11449(2) 0.16396(5) 0.19462(3)
loop_
_geom_bond_atom_site_label_1
_geom_bond_atom_site_label_2
_geom_bond_site_symmetry_1
_geom_bond_site_symmetry_2
Mn1 N1 1_555 1_555
C1 H1 1_555 1_555
C2 C1 1_555 1_555
H2 C2 1_555 1_555
C3 C2 1_555 1_555
H3 C3 1_555 1_555
C4 C3 1_555 1_555
C5 C4 1_555 1_555
H4 C5 1_555 1_555
C6 C5 1_555 1_555
H5 C6 1_555 1_555
C7 C6 1_555 1_555
C8 C7 1_555 1_555
H6 C8 1_555 1_555
C9 C8 1_555 1_555
H7 C9 1_555 1_555
C10 C9 1_555 1_555
H8 C10 1_555 1_555
C11 C7 1_555 1_555
C12 C4 1_555 1_555
C13 C14 1_555 1_555
C14 H9 1_555 1_555
C15 C14 1_555 1_555
H10 C15 1_555 1_555
C16 C15 1_555 1_555
H11 C16 1_555 1_555
C17 C16 1_555 1_555
H12 C17 1_555 1_555
C18 C13 1_555 1_555
C19 C13 1_555 1_555
C20 C21 1_555 1_555
C21 C22 1_555 1_555
C22 H13 1_555 1_555
C23 C22 1_555 1_555
H14 C23 1_555 1_555
C24 C23 1_555 1_555
H15 C24 1_555 1_555
C25 C20 1_555 1_555
H16 C25 1_555 1_555
C26 C21 1_555 1_555
N1 C1 1_555 1_555
N2 Mn1 1_555 1_555
O1 C19 1_555 1_555
O2 C19 1_555 1_555
O3 Mn1 1_555 1_555
H17 O3 1_555 1_555
O4 Mn1 1_555 1_555
O5 C26 1_555 1_555
S1 C20 1_555 1_555
S2 C18 1_555 1_555
Mn1A O3 1_555 1_555
Mn1_2 O1 1_555 1_555
Mn1A_2 O1A 1_555 1_555
C1A H1A 1_555 1_555
C2A C1A 1_555 1_555
H2A C2A 1_555 1_555
C3A C2A 1_555 1_555
H3A C3A 1_555 1_555
C4A C3A 1_555 1_555
C5A C4A 1_555 1_555
H4A C5A 1_555 1_555
C6A C5A 1_555 1_555
H5A C6A 1_555 1_555
C7A C6A 1_555 1_555
C8A C7A 1_555 1_555
H6A C8A 1_555 1_555
C9A C8A 1_555 1_555
H7A C9A 1_555 1_555
C10A C9A 1_555 1_555
H8A C10A 1_555 1_555
C11A C7A 1_555 1_555
C12A C4A 1_555 1_555
C13A C14A 1_555 1_555
C14A H9A 1_555 1_555
C15A C14A 1_555 1_555
H10A C15A 1_555 1_555
C16A C15A 1_555 1_555
H11A C16A 1_555 1_555
C17A C16A 1_555 1_555
H12A C17A 1_555 1_555
C18A C13A 1_555 1_555
C19A C13A 1_555 1_555
C20A C21A 1_555 1_555
C21A C22A 1_555 1_555
C22A H13A 1_555 1_555
C23A C22A 1_555 1_555
H14A C23A 1_555 1_555
C24A C23A 1_555 1_555
H15A C24A 1_555 1_555
C25A C20A 1_555 1_555
H16A C25A 1_555 1_555
C26A C21A 1_555 1_555
N1A Mn1A 1_555 1_555
N2A Mn1A 1_555 1_555
O1A C19A 1_555 1_555
O1_2 Mn1 1_555 1_555
O1A_2 Mn1A 1_555 1_555
O2A C19A 1_555 1_555
H17A O3 1_555 1_555
O4A Mn1A 1_555 1_555
O5A Mn1 1_555 1_555
S1A C20A 1_555 1_555
S2A C18A 1_555 1_555
C10 N2 1_555 1_555
C11 C12 1_555 1_555
C11 N2 1_555 1_555
C12 N1 1_555 1_555
C17 C18 1_555 1_555
C24 C25 1_555 1_555
C26 O4 1_555 1_555
O5 Mn1A 1_555 1_555
S1 S2 1_555 1_555
C1A N1A 1_555 1_555
C10A N2A 1_555 1_555
C11A C12A 1_555 1_555
C11A N2A 1_555 1_555
C12A N1A 1_555 1_555
C17A C18A 1_555 1_555
C24A C25A 1_555 1_555
C26A O4A 1_555 1_555
C26A O5A 1_555 1_555
S1A S2A 1_555 1_555

#END
