
#######################################################################
#
#                 Cambridge Crystallographic Data Centre
#                                CCDC 
#
#######################################################################
#
# If this CIF has been generated from an entry in the Cambridge 
# Structural Database, then it will include bibliographic, chemical, 
# crystal, experimental, refinement or atomic coordinate data resulting 
# from the CCDC's data processing and validation procedures.
#
#######################################################################

data_TOLMUE
_symmetry_cell_setting           monoclinic
_symmetry_space_group_name_H-M   'P 21/n'
_symmetry_Int_Tables_number      14
_space_group_name_Hall           '-P 2yn'
loop_
_symmetry_equiv_pos_site_id
_symmetry_equiv_pos_as_xyz
1 x,y,z
2 1/2-x,1/2+y,1/2-z
3 -x,-y,-z
4 1/2+x,1/2-y,1/2+z
_cell_length_a                   10.0037(5)
_cell_length_b                   15.4731(8)
_cell_length_c                   11.1313(6)
_cell_angle_alpha                90
_cell_angle_beta                 92.1400(10)
_cell_angle_gamma                90
_cell_volume                     1721.79
loop_
_atom_site_label
_atom_site_type_symbol
_atom_site_fract_x
_atom_site_fract_y
_atom_site_fract_z
Ni1 Ni 0.39362(5) 0.01488(3) 0.41420(4)
Br1 Br 0.21440(5) 0.05304(3) 0.27029(5)
O1 O 0.5363(3) 0.0925(2) 0.3497(3)
O2 O 0.7029(3) 0.07111(19) 0.4839(3)
O3 O 0.8613(3) 0.3947(2) 0.0416(3)
O4 O 1.0263(3) 0.4153(2) 0.1771(3)
C1 C 0.6487(4) 0.1088(2) 0.3955(3)
C2 C 0.9208(4) 0.3799(2) 0.1386(4)
C3 C 0.7260(4) 0.1805(2) 0.3385(3)
C4 C 0.8414(4) 0.1628(3) 0.2799(4)
H1 H 0.8761 0.1071 0.2809
C5 C 0.9075(4) 0.2292(3) 0.2183(4)
H2 H 0.9853 0.2164 0.1786
C6 C 0.8596(4) 0.3110(2) 0.2158(3)
C7 C 0.7458(4) 0.3334(3) 0.2833(3)
C8 C 0.6982(4) 0.4183(3) 0.2914(4)
H3 H 0.7400 0.4619 0.2493
C9 C 0.5918(5) 0.4387(3) 0.3599(5)
H4 H 0.5639 0.4957 0.3667
C10 C 0.5254(5) 0.3727(3) 0.4196(4)
H5 H 0.4523 0.3863 0.4652
C11 C 0.5656(4) 0.2891(3) 0.4123(4)
H6 H 0.5193 0.2464 0.4522
C12 C 0.6777(4) 0.2663(2) 0.3441(3)
Ni1A Ni 1.10638(5) 0.51488(3) 0.08580(4)
Ni1B Ni 0.60638(5) -0.01488(3) 0.58580(4)
Ni1C Ni 0.89362(5) 0.48512(3) -0.08580(4)
O2B O 0.2971(3) -0.07111(19) 0.5161(3)
O3C O 0.3613(3) 0.1053(2) 0.5416(3)
O4A O 0.4737(3) -0.0847(2) 0.3229(3)
C13 C 0.2947(11) 0.3001(8) 0.2018(11)
H7 H 0.2552 0.2487 0.2332
H8 H 0.2287 0.3314 0.1546
H9 H 0.3276 0.3357 0.2671
N1 N 0.4082(6) 0.2758(6) 0.1245(5)
N2 N 0.5333(6) 0.1911(6) 0.0405(5)
C14 C 0.4335(9) 0.1981(7) 0.1121(8)
H10 H 0.3890 0.1525 0.1476
C15 C 0.4954(6) 0.3352(5) 0.0593(6)
H11 H 0.4976 0.3951 0.0536
C16 C 0.5712(7) 0.2725(5) 0.0105(6)
H12 H 0.6421 0.2840 -0.0387
C17 C 0.5898(10) 0.1095(7) 0.0031(8)
H13 H 0.6712 0.0969 0.0498
H14 H 0.6103 0.1114 -0.0813
C18 C 0.4837(12) 0.0413(4) 0.0251(9)
H15 H 0.4736 0.0350 0.1110
H16 H 0.3987 0.0607 -0.0100
C13B C 0.7053(11) -0.3001(8) -0.2018(11)
H7B H 0.7448 -0.2487 -0.2332
H8B H 0.7713 -0.3314 -0.1546
H9B H 0.6724 -0.3357 -0.2671
N1B N 0.5918(6) -0.2758(6) -0.1245(5)
N2B N 0.4667(6) -0.1911(6) -0.0405(5)
C14B C 0.5665(9) -0.1981(7) -0.1121(8)
H10B H 0.6110 -0.1525 -0.1476
C15B C 0.5046(6) -0.3352(5) -0.0593(6)
H11B H 0.5024 -0.3951 -0.0536
C16B C 0.4288(7) -0.2725(5) -0.0105(6)
H12B H 0.3579 -0.2840 0.0387
C17B C 0.4102(10) -0.1095(7) -0.0031(8)
H13B H 0.3288 -0.0969 -0.0498
H14B H 0.3897 -0.1114 0.0813
C18B C 0.5163(12) -0.0413(4) -0.0251(9)
H15B H 0.5264 -0.0350 -0.1110
H16B H 0.6013 -0.0607 0.0100
C19? C 0.5174(12) 0.4333(7) 0.0321(12)
H17? H 0.5925 0.4398 -0.0183
H18? H 0.5343 0.4639 0.1061
H19? H 0.4387 0.4564 -0.0083
N3? N 0.4954(6) 0.3352(5) 0.0593(6)
C20? C 0.4082(6) 0.2758(6) 0.1245(5)
H20? H 0.3394 0.2953 0.1714
loop_
_geom_bond_atom_site_label_1
_geom_bond_atom_site_label_2
_geom_bond_site_symmetry_1
_geom_bond_site_symmetry_2
Ni1 Br1 1_555 1_555
O1 Ni1 1_555 1_555
O2 C1 1_555 1_555
O3 C2 1_555 1_555
O4 C2 1_555 1_555
C1 O1 1_555 1_555
C2 C6 1_555 1_555
C3 C1 1_555 1_555
C4 C3 1_555 1_555
H1 C4 1_555 1_555
C5 C4 1_555 1_555
H2 C5 1_555 1_555
C6 C5 1_555 1_555
C7 C6 1_555 1_555
C8 C7 1_555 1_555
H3 C8 1_555 1_555
C9 C8 1_555 1_555
H4 C9 1_555 1_555
C10 C9 1_555 1_555
H5 C10 1_555 1_555
C11 C10 1_555 1_555
H6 C11 1_555 1_555
C12 C3 1_555 1_555
C13 H7 1_555 1_555
H8 C13 1_555 1_555
H9 C13 1_555 1_555
N1 C13 1_555 1_555
N2 C14 1_555 1_555
C14 N1 1_555 1_555
H10 C14 1_555 1_555
C15 N1 1_555 1_555
H11 C15 1_555 1_555
C16 N2 1_555 1_555
H12 C16 1_555 1_555
C17 N2 1_555 1_555
H13 C17 1_555 1_555
H14 C17 1_555 1_555
C18 C17 1_555 1_555
H15 C18 1_555 1_555
H16 C18 1_555 1_555
Ni1A O4 1_555 1_555
Ni1B O2 1_555 1_555
Ni1C O3 1_555 1_555
O2B Ni1 1_555 1_555
O3C Ni1 1_555 1_555
O4A Ni1 1_555 1_555
C13B H7B 1_555 1_555
H8B C13B 1_555 1_555
H9B C13B 1_555 1_555
N1B C13B 1_555 1_555
N2B C14B 1_555 1_555
C14B N1B 1_555 1_555
H10B C14B 1_555 1_555
C15B N1B 1_555 1_555
H11B C15B 1_555 1_555
C16B N2B 1_555 1_555
H12B C16B 1_555 1_555
C17B N2B 1_555 1_555
H13B C17B 1_555 1_555
H14B C17B 1_555 1_555
C18B C18 1_555 1_555
H15B C18B 1_555 1_555
H16B C18B 1_555 1_555
C7 C12 1_555 1_555
C11 C12 1_555 1_555
C15 C16 1_555 1_555
C15B C16B 1_555 1_555
C17B C18B 1_555 1_555

#END
