
#######################################################################
#
#                 Cambridge Crystallographic Data Centre
#                                CCDC 
#
#######################################################################
#
# If this CIF has been generated from an entry in the Cambridge 
# Structural Database, then it will include bibliographic, chemical, 
# crystal, experimental, refinement or atomic coordinate data resulting 
# from the CCDC's data processing and validation procedures.
#
#######################################################################

data_TOLNIT
_symmetry_cell_setting           monoclinic
_symmetry_space_group_name_H-M   'P 21/n'
_symmetry_Int_Tables_number      14
_space_group_name_Hall           '-P 2yn'
loop_
_symmetry_equiv_pos_site_id
_symmetry_equiv_pos_as_xyz
1 x,y,z
2 1/2-x,1/2+y,1/2-z
3 -x,-y,-z
4 1/2+x,1/2-y,1/2+z
_cell_length_a                   13.688(8)
_cell_length_b                   13.190(7)
_cell_length_c                   23.337(13)
_cell_angle_alpha                90
_cell_angle_beta                 96.326(9)
_cell_angle_gamma                90
_cell_volume                     4187.72
loop_
_atom_site_label
_atom_site_type_symbol
_atom_site_fract_x
_atom_site_fract_y
_atom_site_fract_z
Cu1 Cu 0.76152(6) 1.15669(6) 0.77083(4)
S1 S 0.68380(16) 0.90128(16) 0.63561(11)
N1 N 0.8280(4) 1.2034(4) 0.7023(3)
N2 N 0.9137(4) 1.1959(4) 0.6283(3)
N3 N 0.8004(4) 0.6363(4) 0.6563(3)
N4 N 0.8922(4) 0.6670(4) 0.5856(3)
N5 N 0.6305(4) 1.2055(4) 0.7340(3)
N6 N 0.4763(4) 1.1983(4) 0.6942(3)
N7 N 0.6024(4) 0.6351(4) 0.6881(3)
N8 N 0.4479(4) 0.6669(4) 0.6588(3)
N9 N 0.7420(4) 1.0017(5) 0.7388(3)
C1 C 0.8609(5) 1.1450(5) 0.6637(3)
C2 C 0.9138(6) 1.2955(6) 0.6441(4)
C3 C 0.8621(6) 1.2988(5) 0.6915(3)
C4 C 0.9589(5) 1.1572(5) 0.5777(3)
C5 C 0.9557(5) 1.0407(5) 0.5739(3)
C6 C 1.0257(5) 0.9836(6) 0.6069(3)
C7 C 1.0263(5) 0.8781(6) 0.6007(4)
C8 C 0.9560(5) 0.8335(5) 0.5596(3)
C9 C 0.8800(5) 0.8911(5) 0.5294(3)
C10 C 0.8818(5) 0.9963(5) 0.5369(3)
C11 C 1.0987(5) 1.0322(6) 0.6514(4)
C12 C 1.1001(6) 0.8131(6) 0.6356(4)
C13 C 0.7993(6) 0.8425(6) 0.4907(3)
C14 C 0.7990(5) 1.0577(6) 0.5063(3)
C15 C 0.9561(6) 0.7190(5) 0.5499(4)
C16 C 0.8535(5) 0.7049(6) 0.6316(3)
C17 C 0.8626(6) 0.5673(5) 0.5798(3)
C18 C 0.8058(6) 0.5493(6) 0.6239(4)
C19 C 0.5583(5) 1.1468(6) 0.7131(3)
C20 C 0.4973(6) 1.3012(6) 0.7056(4)
C21 C 0.5902(6) 1.3023(6) 0.7296(4)
C22 C 0.3810(5) 1.1583(5) 0.6676(3)
C23 C 0.3822(5) 1.0458(5) 0.6645(4)
C24 C 0.4114(5) 0.9968(5) 0.6150(3)
C25 C 0.4021(5) 0.8918(5) 0.6096(3)
C26 C 0.3676(5) 0.8351(5) 0.6547(3)
C27 C 0.3483(5) 0.8811(5) 0.7071(3)
C28 C 0.3530(5) 0.9870(6) 0.7106(3)
C29 C 0.4550(6) 1.0558(6) 0.5690(4)
C30 C 0.4320(6) 0.8405(6) 0.5566(4)
C31 C 0.3220(6) 0.8193(6) 0.7559(4)
C32 C 0.3282(6) 1.0401(6) 0.7653(3)
C33 C 0.3554(5) 0.7230(5) 0.6472(4)
C34 C 0.5320(5) 0.7048(5) 0.6832(3)
C35 C 0.4652(5) 0.5673(6) 0.6476(4)
C36 C 0.5607(5) 0.5501(6) 0.6652(4)
C37 C 0.7174(5) 0.9597(6) 0.6972(4)
H1 H 0.8488 1.0741 0.6610
H2 H 0.9433 1.3507 0.6263
H3 H 0.8515 1.3579 0.7133
H4 H 1.0282 1.1800 0.5803
H5 H 0.9238 1.1862 0.5421
H6 H 1.1655 1.0199 0.6415
H7 H 1.0917 1.0030 0.6894
H8 H 1.0865 1.1054 0.6523
H9 H 1.1399 0.7766 0.6098
H10 H 1.0659 0.7641 0.6579
H11 H 1.1429 0.8558 0.6620
H12 H 0.8105 0.7691 0.4895
H13 H 0.7983 0.8705 0.4517
H14 H 0.7362 0.8558 0.5053
H15 H 0.7982 1.1252 0.5238
H16 H 0.7363 1.0236 0.5098
H17 H 0.8086 1.0643 0.4655
H18 H 0.9343 0.7045 0.5089
H19 H 1.0239 0.6929 0.5587
H20 H 0.8630 0.7727 0.6449
H21 H 0.8781 0.5205 0.5512
H22 H 0.7751 0.4867 0.6309
H23 H 0.5632 1.0751 0.7115
H24 H 0.4545 1.3574 0.6979
H25 H 0.6248 1.3621 0.7422
H26 H 0.3666 1.1865 0.6283
H27 H 0.3282 1.1803 0.6906
H28 H 0.4147 1.0462 0.5321
H29 H 0.5219 1.0317 0.5660
H30 H 0.4567 1.1280 0.5791
H31 H 0.3849 0.8576 0.5233
H32 H 0.4328 0.7669 0.5624
H33 H 0.4977 0.8636 0.5497
H34 H 0.2505 0.8198 0.7564
H35 H 0.3535 0.8476 0.7921
H36 H 0.3444 0.7494 0.7516
H37 H 0.2581 1.0573 0.7613
H38 H 0.3673 1.1022 0.7712
H39 H 0.3432 0.9948 0.7984
H40 H 0.3086 0.6983 0.6735
H41 H 0.3265 0.7088 0.6072
H42 H 0.5408 0.7731 0.6957
H43 H 0.4189 0.5194 0.6306
H44 H 0.5936 0.4873 0.6620
Cu1A Cu 0.73848(6) 0.65669(6) 0.72917(4)
N3A N 0.6996(4) 1.1363(4) 0.8437(3)
N7A N 0.8976(4) 1.1351(4) 0.8119(3)
S2 S 0.89331(15) 0.53739(18) 0.42268(9)
N10 N 0.7066(6) 0.6176(6) 0.3915(4)
C38 C 0.7828(7) 0.5864(6) 0.4041(4)
O1 O 0.5617(19) 0.654(4) 0.4657(15)
C39 C 0.615(4) 0.638(4) 0.521(2)
O3 O 0.3686(10) 0.6445(9) 0.4519(5)
C41 C 0.3420(10) 0.7231(11) 0.4117(6)
O5 O 0.2040(15) 0.670(3) 0.5163(11)
O2? O 0.5607(19) 0.668(4) 0.4619(15)
C40? C 0.598(4) 0.621(4) 0.515(3)
O4? O 0.394(3) 0.578(3) 0.4738(17)
C42? C 0.347(5) 0.619(5) 0.4213(19)
O6? O 0.213(5) 0.661(8) 0.502(4)
loop_
_geom_bond_atom_site_label_1
_geom_bond_atom_site_label_2
_geom_bond_site_symmetry_1
_geom_bond_site_symmetry_2
Cu1 N1 1_555 1_555
S1 C37 1_555 1_555
N1 C1 1_555 1_555
N2 C1 1_555 1_555
N3 C16 1_555 1_555
N4 C15 1_555 1_555
N5 Cu1 1_555 1_555
N6 C19 1_555 1_555
N7 C34 1_555 1_555
N8 C33 1_555 1_555
N9 Cu1 1_555 1_555
C1 H1 1_555 1_555
C2 N2 1_555 1_555
C3 N1 1_555 1_555
C4 N2 1_555 1_555
C5 C4 1_555 1_555
C6 C5 1_555 1_555
C7 C6 1_555 1_555
C8 C7 1_555 1_555
C9 C8 1_555 1_555
C10 C5 1_555 1_555
C11 C6 1_555 1_555
C12 C7 1_555 1_555
C13 C9 1_555 1_555
C14 C10 1_555 1_555
C15 C8 1_555 1_555
C16 N4 1_555 1_555
C17 N4 1_555 1_555
C18 N3 1_555 1_555
C19 N5 1_555 1_555
C20 N6 1_555 1_555
C21 N5 1_555 1_555
C22 N6 1_555 1_555
C23 C22 1_555 1_555
C24 C23 1_555 1_555
C25 C24 1_555 1_555
C26 C25 1_555 1_555
C27 C26 1_555 1_555
C28 C23 1_555 1_555
C29 C24 1_555 1_555
C30 C25 1_555 1_555
C31 C27 1_555 1_555
C32 C28 1_555 1_555
C33 C26 1_555 1_555
C34 N8 1_555 1_555
C35 N8 1_555 1_555
C36 N7 1_555 1_555
C37 N9 1_555 1_555
H2 C2 1_555 1_555
H3 C3 1_555 1_555
H4 C4 1_555 1_555
H5 C4 1_555 1_555
H6 C11 1_555 1_555
H7 C11 1_555 1_555
H8 C11 1_555 1_555
H9 C12 1_555 1_555
H10 C12 1_555 1_555
H11 C12 1_555 1_555
H12 C13 1_555 1_555
H13 C13 1_555 1_555
H14 C13 1_555 1_555
H15 C14 1_555 1_555
H16 C14 1_555 1_555
H17 C14 1_555 1_555
H18 C15 1_555 1_555
H19 C15 1_555 1_555
H20 C16 1_555 1_555
H21 C17 1_555 1_555
H22 C18 1_555 1_555
H23 C19 1_555 1_555
H24 C20 1_555 1_555
H25 C21 1_555 1_555
H26 C22 1_555 1_555
H27 C22 1_555 1_555
H28 C29 1_555 1_555
H29 C29 1_555 1_555
H30 C29 1_555 1_555
H31 C30 1_555 1_555
H32 C30 1_555 1_555
H33 C30 1_555 1_555
H34 C31 1_555 1_555
H35 C31 1_555 1_555
H36 C31 1_555 1_555
H37 C32 1_555 1_555
H38 C32 1_555 1_555
H39 C32 1_555 1_555
H40 C33 1_555 1_555
H41 C33 1_555 1_555
H42 C34 1_555 1_555
H43 C35 1_555 1_555
H44 C36 1_555 1_555
S2 C38 1_555 1_555
N10 C38 1_555 1_555
O1 C39 1_555 1_555
O3 C41 1_555 1_555
Cu1A N3 1_555 1_555
N3A Cu1 1_555 1_555
N7A Cu1 1_555 1_555
N7 Cu1A 1_555 1_555
C2 C3 1_555 1_555
C9 C10 1_555 1_555
C17 C18 1_555 1_555
C20 C21 1_555 1_555
C27 C28 1_555 1_555
C35 C36 1_555 1_555

#END
