
#######################################################################
#
#                 Cambridge Crystallographic Data Centre
#                                CCDC 
#
#######################################################################
#
# If this CIF has been generated from an entry in the Cambridge 
# Structural Database, then it will include bibliographic, chemical, 
# crystal, experimental, refinement or atomic coordinate data resulting 
# from the CCDC's data processing and validation procedures.
#
#######################################################################

data_TOLQIW
_symmetry_cell_setting           monoclinic
_symmetry_space_group_name_H-M   'P 21/c'
_symmetry_Int_Tables_number      14
_space_group_name_Hall           '-P 2ybc'
loop_
_symmetry_equiv_pos_site_id
_symmetry_equiv_pos_as_xyz
1 x,y,z
2 -x,1/2+y,1/2-z
3 -x,-y,-z
4 x,1/2-y,1/2+z
_cell_length_a                   11.0648(16)
_cell_length_b                   12.6093(17)
_cell_length_c                   15.0869(17)
_cell_angle_alpha                90
_cell_angle_beta                 119.371(8)
_cell_angle_gamma                90
_cell_volume                     1834.35
loop_
_atom_site_label
_atom_site_type_symbol
_atom_site_fract_x
_atom_site_fract_y
_atom_site_fract_z
N1 N -0.5896(3) 0.9504(2) 0.1237(2)
C1 C -0.5020(4) 1.0042(3) 0.2041(3)
C2 C -0.5522(4) 0.8459(3) 0.1485(3)
Co1 Co 0.28796(5) 1.01663(3) 0.97460(3)
O1 O 0.3589(2) 0.90939(18) 0.90901(17)
O2 O 0.5811(2) 0.85810(17) 0.99709(17)
O3 O 0.1025(2) 0.6350(2) 0.62555(17)
O4 O 0.1331(2) 0.46528(19) 0.67417(17)
O5 O 0.1292(3) 0.9037(2) 0.9541(2)
H1 H 0.120(4) 0.893(3) 1.012(4)
H2 H 0.057(4) 0.927(3) 0.914(3)
O6 O 0.1789(3) 1.1230(2) 1.0254(2)
H3 H 0.104(5) 1.129(3) 0.982(3)
H4 H 0.168(4) 1.097(3) 1.076(3)
N2 N 0.1635(3) 1.0764(2) 0.8262(2)
N3 N 0.0080(3) 1.0797(2) 0.66291(19)
N4 N -0.4091(3) 0.9405(2) 0.2784(2)
C3 C 0.0822(3) 1.0191(3) 0.7463(2)
H5 H 0.0764 0.9456 0.7469
C4 C 0.1408(4) 1.1789(3) 0.7919(3)
H6 H 0.1848 1.2379 0.8318
C5 C 0.0463(4) 1.1825(3) 0.6928(3)
H7 H 0.0134 1.2428 0.6524
C6 C -0.0938(4) 1.0428(3) 0.5647(2)
C7 C -0.1294(4) 0.9381(3) 0.5476(3)
H8 H -0.0835 0.8895 0.6001
C8 C -0.2320(4) 0.9029(3) 0.4541(3)
H9 H -0.2558 0.8314 0.4442
C9 C -0.2992(3) 0.9742(3) 0.3753(2)
C10 C -0.2598(4) 1.0793(3) 0.3914(3)
H10 H -0.3018 1.1275 0.3381
C11 C -0.1582(4) 1.1136(3) 0.4860(3)
H11 H -0.1335 1.1849 0.4964
H12 H -0.5036 1.0776 0.2093
C12 C -0.4420(4) 0.8385(3) 0.2429(3)
H13 H -0.3974 0.7768 0.2770
H14 H -0.5968 0.7884 0.1062
C13 C 0.4535(4) 0.8414(3) 0.9435(2)
C14 C 0.4133(3) 0.7277(3) 0.9155(2)
C15 C 0.4907(3) 0.6490(3) 0.9836(2)
H15 H 0.5661 0.6681 1.0457
C16 C 0.4588(3) 0.5419(2) 0.9619(2)
C17 C 0.3496(3) 0.5167(3) 0.8656(2)
H16 H 0.3284 0.4457 0.8482
C18 C 0.2718(3) 0.5937(3) 0.7951(2)
C19 C 0.3021(3) 0.7000(3) 0.8219(2)
H17 H 0.2475 0.7527 0.7768
C20 C 0.1606(4) 0.5624(3) 0.6904(3)
O1B O 0.6411(2) 0.09061(18) 1.09099(17)
O2B O 0.4189(2) 0.14190(17) 1.00291(17)
O3B O 0.8975(2) 0.3650(2) 1.37445(17)
O4B O 0.8669(2) 0.53472(19) 1.32583(17)
C13B C 0.5465(4) 0.1586(3) 1.0565(2)
C14B C 0.5867(3) 0.2723(3) 1.0845(2)
C15B C 0.5093(3) 0.3510(3) 1.0164(2)
H15B H 0.4339 0.3319 0.9543
C16B C 0.5412(3) 0.4581(2) 1.0381(2)
C17B C 0.6504(3) 0.4833(3) 1.1344(2)
H16B H 0.6716 0.5543 1.1518
C18B C 0.7282(3) 0.4063(3) 1.2049(2)
C19B C 0.6979(3) 0.3000(3) 1.1781(2)
H17B H 0.7525 0.2473 1.2232
C20B C 0.8394(4) 0.4376(3) 1.3096(3)
N1B N 1.5896(3) 0.0496(2) 1.8763(2)
C1B C 1.5020(4) -0.0042(3) 1.7959(3)
C2B C 1.5522(4) 0.1541(3) 1.8515(3)
Co1B Co 0.71204(5) -0.01663(3) 1.02540(3)
O5B O 0.8708(3) 0.0963(2) 1.0459(2)
H1B H 0.880(4) 0.107(3) 0.988(4)
H2B H 0.943(4) 0.073(3) 1.086(3)
O6B O 0.8211(3) -0.1230(2) 0.9746(2)
H3B H 0.896(5) -0.129(3) 1.018(3)
H4B H 0.832(4) -0.097(3) 0.924(3)
N2B N 0.8365(3) -0.0764(2) 1.1738(2)
N3B N 0.9920(3) -0.0797(2) 1.33709(19)
N4B N 1.4091(3) 0.0595(2) 1.7216(2)
C3B C 0.9178(3) -0.0191(3) 1.2537(2)
H5B H 0.9236 0.0544 1.2531
C4B C 0.8592(4) -0.1789(3) 1.2081(3)
H6B H 0.8152 -0.2379 1.1682
C5B C 0.9537(4) -0.1825(3) 1.3072(3)
H7B H 0.9866 -0.2428 1.3476
C6B C 1.0938(4) -0.0428(3) 1.4353(2)
C7B C 1.1294(4) 0.0619(3) 1.4524(3)
H8B H 1.0835 0.1105 1.3999
C8B C 1.2320(4) 0.0971(3) 1.5459(3)
H9B H 1.2558 0.1686 1.5558
C9B C 1.2992(3) 0.0258(3) 1.6247(2)
C10B C 1.2598(4) -0.0793(3) 1.6086(3)
H10B H 1.3018 -0.1275 1.6619
C11B C 1.1582(4) -0.1136(3) 1.5140(3)
H11B H 1.1335 -0.1849 1.5036
H12B H 1.5036 -0.0776 1.7907
C12B C 1.4420(4) 0.1615(3) 1.7571(3)
H13B H 1.3974 0.2232 1.7230
H14B H 1.5968 0.2116 1.8938
N1_2 N 0.4104(3) 0.9504(2) 1.1237(2)
N1B_2 N 0.5896(3) 0.0496(2) 0.8763(2)
Co1_2 Co -0.71204(5) 1.01663(3) -0.02540(3)
Co1_3 Co 0.28796(5) 0.01663(3) 0.97460(3)
Co1B_2 Co 0.71204(5) 0.98337(3) 1.02540(3)
Co1B_3 Co 1.71204(5) -0.01663(3) 2.02540(3)
O2_2 O 0.5811(2) -0.14190(17) 0.99709(17)
O2B_2 O 0.4189(2) 1.14190(17) 1.00291(17)
loop_
_geom_bond_atom_site_label_1
_geom_bond_atom_site_label_2
_geom_bond_site_symmetry_1
_geom_bond_site_symmetry_2
N1 C1 1_555 1_555
C1 N4 1_555 1_555
C2 N1 1_555 1_555
Co1 O1 1_555 1_555
O1 C13 1_555 1_555
O2 C13 1_555 1_555
O3 C20 1_555 1_555
O4 C20 1_555 1_555
O5 Co1 1_555 1_555
H1 O5 1_555 1_555
H2 O5 1_555 1_555
O6 Co1 1_555 1_555
H3 O6 1_555 1_555
H4 O6 1_555 1_555
N2 Co1 1_555 1_555
N3 C3 1_555 1_555
N4 C9 1_555 1_555
C3 N2 1_555 1_555
H5 C3 1_555 1_555
C4 N2 1_555 1_555
H6 C4 1_555 1_555
C5 N3 1_555 1_555
H7 C5 1_555 1_555
C6 N3 1_555 1_555
C7 C6 1_555 1_555
H8 C7 1_555 1_555
C8 C7 1_555 1_555
H9 C8 1_555 1_555
C9 C8 1_555 1_555
C10 C9 1_555 1_555
H10 C10 1_555 1_555
C11 C6 1_555 1_555
H11 C11 1_555 1_555
H12 C1 1_555 1_555
C12 C2 1_555 1_555
H13 C12 1_555 1_555
H14 C2 1_555 1_555
C13 C14 1_555 1_555
C14 C15 1_555 1_555
C15 H15 1_555 1_555
C16 C15 1_555 1_555
C17 C16 1_555 1_555
H16 C17 1_555 1_555
C18 C17 1_555 1_555
C19 C14 1_555 1_555
H17 C19 1_555 1_555
C20 C18 1_555 1_555
O1B C13B 1_555 1_555
O2B C13B 1_555 1_555
O3B C20B 1_555 1_555
O4B C20B 1_555 1_555
C13B C14B 1_555 1_555
C14B C15B 1_555 1_555
C15B H15B 1_555 1_555
C16B C16 1_555 1_555
C17B C16B 1_555 1_555
H16B C17B 1_555 1_555
C18B C17B 1_555 1_555
C19B C14B 1_555 1_555
H17B C19B 1_555 1_555
C20B C18B 1_555 1_555
N1B C1B 1_555 1_555
C1B N4B 1_555 1_555
C2B N1B 1_555 1_555
Co1B O1B 1_555 1_555
O5B Co1B 1_555 1_555
H1B O5B 1_555 1_555
H2B O5B 1_555 1_555
O6B Co1B 1_555 1_555
H3B O6B 1_555 1_555
H4B O6B 1_555 1_555
N2B Co1B 1_555 1_555
N3B C3B 1_555 1_555
N4B C9B 1_555 1_555
C3B N2B 1_555 1_555
H5B C3B 1_555 1_555
C4B N2B 1_555 1_555
H6B C4B 1_555 1_555
C5B N3B 1_555 1_555
H7B C5B 1_555 1_555
C6B N3B 1_555 1_555
C7B C6B 1_555 1_555
H8B C7B 1_555 1_555
C8B C7B 1_555 1_555
H9B C8B 1_555 1_555
C9B C8B 1_555 1_555
C10B C9B 1_555 1_555
H10B C10B 1_555 1_555
C11B C6B 1_555 1_555
H11B C11B 1_555 1_555
H12B C1B 1_555 1_555
C12B C2B 1_555 1_555
H13B C12B 1_555 1_555
H14B C2B 1_555 1_555
N1_2 Co1 1_555 1_555
N1B_2 Co1B 1_555 1_555
Co1_2 N1 1_555 1_555
Co1_3 O2B 1_555 1_555
Co1B_2 O2 1_555 1_555
Co1B_3 N1B 1_555 1_555
O2_2 Co1B 1_555 1_555
O2B_2 Co1 1_555 1_555
N4 C12 1_555 1_555
C4 C5 1_555 1_555
C10 C11 1_555 1_555
C18 C19 1_555 1_555
C15B C16B 1_555 1_555
C18B C19B 1_555 1_555
N4B C12B 1_555 1_555
C4B C5B 1_555 1_555
C10B C11B 1_555 1_555

#END
