
#######################################################################
#
#                 Cambridge Crystallographic Data Centre
#                                CCDC 
#
#######################################################################
#
# If this CIF has been generated from an entry in the Cambridge 
# Structural Database, then it will include bibliographic, chemical, 
# crystal, experimental, refinement or atomic coordinate data resulting 
# from the CCDC's data processing and validation procedures.
#
#######################################################################

data_TOLQAN
_symmetry_cell_setting           monoclinic
_symmetry_space_group_name_H-M   'P 21/c'
_symmetry_Int_Tables_number      14
_space_group_name_Hall           '-P 2ybc'
loop_
_symmetry_equiv_pos_site_id
_symmetry_equiv_pos_as_xyz
1 x,y,z
2 -x,1/2+y,1/2-z
3 -x,-y,-z
4 x,1/2-y,1/2+z
_cell_length_a                   4.8268(3)
_cell_length_b                   13.1717(8)
_cell_length_c                   7.9423(6)
_cell_angle_alpha                90
_cell_angle_beta                 96.363(7)
_cell_angle_gamma                90
_cell_volume                     501.838
loop_
_atom_site_label
_atom_site_type_symbol
_atom_site_fract_x
_atom_site_fract_y
_atom_site_fract_z
C1 C 0.0446(3) -0.38216(9) -0.28937(16)
O1 O -0.1494(2) -0.51849(8) -0.16827(13)
O2 O -0.2829(2) -0.36700(7) -0.10408(13)
K1 K -0.65484(7) -0.64082(2) -0.26194(4)
N1 N 0.2230(2) -0.43798(8) -0.36466(14)
N2 N 0.3546(3) -0.36875(9) -0.44949(16)
N3 N 0.2542(3) -0.27674(9) -0.42410(15)
N4 N 0.0541(2) -0.28382(8) -0.32080(15)
N5 N -0.1422(2) -0.42545(9) -0.17961(14)
O1_2 O -1.1494(2) -0.51849(8) -0.16827(13)
O2A O -0.7171(2) -0.86700(7) -0.39592(13)
O2B O -0.7171(2) -0.63300(7) 0.10408(13)
K1_2 K 0.34516(7) -0.64082(2) -0.26194(4)
K1B K 0.65484(7) -0.35918(2) -0.73806(4)
K1A K -0.34516(7) -0.14082(2) -0.23806(4)
K1A_2 K 0.65484(7) -0.14082(2) -0.23806(4)
K1B_2 K -0.34516(7) -0.35918(2) 0.26194(4)
N1_2 N -0.7770(2) -0.43798(8) -0.36466(14)
N2B N -0.3546(3) -0.63125(9) -0.55051(16)
N3A N -0.2542(3) -0.77674(9) -0.07590(15)
N4A N -1.0541(2) -0.78382(8) -0.17920(15)
loop_
_geom_bond_atom_site_label_1
_geom_bond_atom_site_label_2
_geom_bond_site_symmetry_1
_geom_bond_site_symmetry_2
C1 N1 1_555 1_555
O1 K1 1_555 1_555
O2 N5 1_555 1_555
K1 O1_2 1_555 1_555
N1 N2 1_555 1_555
N2 N3 1_555 1_555
N3 N4 1_555 1_555
N4 C1 1_555 1_555
N5 C1 1_555 1_555
O2A K1 1_555 1_555
O2B K1 1_555 1_555
K1_2 O1 1_555 1_555
K1B N2 1_555 1_555
K1A O2 1_555 1_555
K1A_2 N3 1_555 1_555
K1B_2 O2 1_555 1_555
N1_2 K1 1_555 1_555
N2B K1 1_555 1_555
N3A K1 1_555 1_555
N4A K1 1_555 1_555
O1 N5 1_555 1_555
N1 K1_2 1_555 1_555
N4 K1A 1_555 1_555

#END
