
#######################################################################
#
#                 Cambridge Crystallographic Data Centre
#                                CCDC 
#
#######################################################################
#
# If this CIF has been generated from an entry in the Cambridge 
# Structural Database, then it will include bibliographic, chemical, 
# crystal, experimental, refinement or atomic coordinate data resulting 
# from the CCDC's data processing and validation procedures.
#
#######################################################################

data_TOLQOC
_symmetry_cell_setting           monoclinic
_symmetry_space_group_name_H-M   'C 2/c'
_symmetry_Int_Tables_number      15
_space_group_name_Hall           '-C 2yn'
loop_
_symmetry_equiv_pos_site_id
_symmetry_equiv_pos_as_xyz
1 x,y,z
2 -x,y,1/2-z
3 1/2+x,1/2+y,z
4 1/2-x,1/2+y,1/2-z
5 -x,-y,-z
6 x,-y,1/2+z
7 1/2-x,1/2-y,-z
8 1/2+x,1/2-y,1/2+z
_cell_length_a                   24.343(9)
_cell_length_b                   12.291(4)
_cell_length_c                   18.868(8)
_cell_angle_alpha                90
_cell_angle_beta                 121.369(10)
_cell_angle_gamma                90
_cell_volume                     4820.14
loop_
_atom_site_label
_atom_site_type_symbol
_atom_site_fract_x
_atom_site_fract_y
_atom_site_fract_z
Ni1 Ni 0.26657(3) 0.29503(5) 0.36729(4)
N1 N 0.20249(18) 0.4164(3) 0.3533(2)
N2 N 0.12343(18) 0.5039(3) 0.3525(2)
N3 N -0.08437(18) 0.5866(3) 0.3953(2)
N4 N -0.16676(19) 0.6732(3) 0.3868(3)
N5 N 0.2217(2) 0.2814(3) 0.2387(3)
N6 N 0.2116(2) 0.2629(4) 0.1161(2)
O1 O 0.32568(19) 0.4084(3) 0.3582(3)
O2 O 0.3959(3) 0.4548(6) 0.4872(4)
O3 O 0.20762(17) 0.1813(3) 0.3765(2)
O4 O 0.1383(3) 0.0439(4) 0.3307(4)
O5 O 0.31838(19) 0.3064(3) 0.4975(2)
H1 H 0.3391 0.3616 0.5001
H2 H 0.2952 0.3237 0.5155
C1 C 0.1580(2) 0.4102(4) 0.3734(3)
H3 H 0.1514 0.3504 0.3982
C2 C 0.1950(2) 0.5170(4) 0.3168(3)
H4 H 0.2195 0.5431 0.2957
C3 C 0.1467(2) 0.5717(4) 0.3163(3)
H5 H 0.1321 0.6412 0.2956
C4 C 0.0701(2) 0.5248(4) 0.3637(3)
C5 C 0.0593(2) 0.6292(4) 0.3791(3)
H6 H 0.0860 0.6856 0.3822
C6 C 0.0080(2) 0.6496(4) 0.3899(3)
H7 H 0.0001 0.7200 0.4006
C7 C 0.0315(2) 0.4403(4) 0.3591(3)
H8 H 0.0395 0.3699 0.3488
H9 H -0.0460 0.4040 0.3672
H10 H -0.0992 0.4475 0.4427
H11 H -0.1885 0.5435 0.4362
H12 H -0.1105 0.7405 0.3510
C8 C -0.0196(2) 0.4608(4) 0.3700(3)
C9 C -0.0313(2) 0.5652(4) 0.3849(3)
C10 C -0.1122(3) 0.5182(4) 0.4238(3)
C11 C -0.1616(3) 0.5714(5) 0.4195(3)
C12 C -0.1192(2) 0.6799(4) 0.3731(3)
C13 C 0.2508(3) 0.2911(4) 0.1967(3)
H13 H 0.2930 0.3144 0.2195
C14 C 0.1600(3) 0.2461(5) 0.1812(3)
H14 H 0.1278 0.2327 0.1926
C15 C 0.1536(3) 0.2341(5) 0.1062(4)
H15 H 0.1171 0.2110 0.0574
C16 C 0.2305(2) 0.2569(4) 0.0559(3)
C17 C 0.2705(3) 0.3343(4) 0.0559(3)
H16 H 0.2844 0.3914 0.0938
C18 C 0.2093(3) 0.1719(4) 0.0006(3)
H17 H 0.1820 0.1194 0.0010
C19 C 0.3733(4) 0.4575(6) 0.4097(6)
H18 H 0.3947 0.5002 0.3909
C20 C 0.1802(3) 0.1001(5) 0.3309(4)
H19 H 0.1927 0.0808 0.2937
N5F N 0.2783(2) 0.2186(3) -0.2387(3)
N6F N 0.2884(2) 0.2371(4) -0.1161(2)
C13F C 0.2492(3) 0.2089(4) -0.1967(3)
H13F H 0.2070 0.1856 -0.2195
C14F C 0.3400(3) 0.2539(5) -0.1812(3)
H14F H 0.3722 0.2673 -0.1926
C15F C 0.3464(3) 0.2659(5) -0.1062(4)
H15F H 0.3829 0.2890 -0.0574
C16F C 0.2695(2) 0.2431(4) -0.0559(3)
C17F C 0.2295(3) 0.1657(4) -0.0559(3)
H16F H 0.2156 0.1086 -0.0938
C18F C 0.2907(3) 0.3281(4) -0.0006(3)
H17F H 0.3180 0.3806 -0.0010
Ni1F Ni 0.23343(3) 0.20497(5) -0.36729(4)
N1F N 0.29751(18) 0.0836(3) -0.3533(2)
N2F N 0.37657(18) -0.0039(3) -0.3525(2)
N3F N 0.58437(18) -0.0866(3) -0.3953(2)
N4F N 0.66676(19) -0.1732(3) -0.3868(3)
O1F O 0.17432(19) 0.0916(3) -0.3582(3)
O2F O 0.1041(3) 0.0452(6) -0.4872(4)
O3F O 0.29238(17) 0.3187(3) -0.3765(2)
O4F O 0.3617(3) 0.4561(4) -0.3307(4)
O5F O 0.18162(19) 0.1936(3) -0.4975(2)
H1F H 0.1609 0.1384 -0.5001
H2F H 0.2048 0.1763 -0.5155
C1F C 0.3420(2) 0.0898(4) -0.3734(3)
H3F H 0.3486 0.1496 -0.3982
C2F C 0.3050(2) -0.0170(4) -0.3168(3)
H4F H 0.2805 -0.0431 -0.2957
C3F C 0.3533(2) -0.0717(4) -0.3163(3)
H5F H 0.3679 -0.1412 -0.2956
C4F C 0.4299(2) -0.0248(4) -0.3637(3)
C5F C 0.4407(2) -0.1292(4) -0.3791(3)
H6F H 0.4140 -0.1856 -0.3822
C6F C 0.4920(2) -0.1496(4) -0.3899(3)
H7F H 0.4999 -0.2200 -0.4006
C7F C 0.4685(2) 0.0597(4) -0.3591(3)
H8F H 0.4605 0.1301 -0.3488
H9F H 0.5460 0.0960 -0.3672
H10F H 0.5992 0.0525 -0.4427
H11F H 0.6885 -0.0435 -0.4362
H12F H 0.6105 -0.2405 -0.3510
C8F C 0.5196(2) 0.0392(4) -0.3700(3)
C9F C 0.5313(2) -0.0652(4) -0.3849(3)
C10F C 0.6122(3) -0.0182(4) -0.4238(3)
C11F C 0.6616(3) -0.0714(5) -0.4195(3)
C12F C 0.6192(2) -0.1799(4) -0.3731(3)
C19F C 0.1267(4) 0.0425(6) -0.4097(6)
H18F H 0.1053 -0.0002 -0.3909
C20F C 0.3198(3) 0.3999(5) -0.3309(4)
H19F H 0.3073 0.4192 -0.2937
Ni1B Ni -0.23343(3) 0.79503(5) 0.36729(4)
Ni1D Ni 0.73343(3) -0.29503(5) -0.36729(4)
N4B N 0.33324(19) 0.1732(3) 0.3868(3)
N4D N 0.16676(19) 0.3268(3) -0.3868(3)
O6 O 0.4145(3) 0.3495(5) 0.2536(4)
H20 H 0.3954 0.4083 0.2412
H21 H 0.4290 0.3415 0.2233
O7 O 0.4555(3) 0.4038(6) 0.1214(5)
H22 H 0.4376 0.4612 0.0953
H23 H 0.4971 0.4166 0.1526
O8 O -0.0085(8) 0.1891(13) 0.4164(12)
H24 H 0.0242 0.1555 0.4518
H25 H -0.0117 0.1776 0.3716
loop_
_geom_bond_atom_site_label_1
_geom_bond_atom_site_label_2
_geom_bond_site_symmetry_1
_geom_bond_site_symmetry_2
Ni1 N1 1_555 1_555
N1 C1 1_555 1_555
N2 C1 1_555 1_555
N3 C9 1_555 1_555
N4 C11 1_555 1_555
N5 Ni1 1_555 1_555
N6 C13 1_555 1_555
O1 Ni1 1_555 1_555
O2 C19 1_555 1_555
O3 Ni1 1_555 1_555
O4 C20 1_555 1_555
O5 Ni1 1_555 1_555
H1 O5 1_555 1_555
H2 O5 1_555 1_555
C1 H3 1_555 1_555
C2 N1 1_555 1_555
H4 C2 1_555 1_555
C3 N2 1_555 1_555
H5 C3 1_555 1_555
C4 N2 1_555 1_555
C5 C4 1_555 1_555
H6 C5 1_555 1_555
C6 C5 1_555 1_555
H7 C6 1_555 1_555
C7 C4 1_555 1_555
H8 C7 1_555 1_555
H9 C8 1_555 1_555
H10 C10 1_555 1_555
H11 C11 1_555 1_555
H12 C12 1_555 1_555
C8 C7 1_555 1_555
C9 C6 1_555 1_555
C10 N3 1_555 1_555
C11 C10 1_555 1_555
C12 N3 1_555 1_555
C13 N5 1_555 1_555
H13 C13 1_555 1_555
C14 N5 1_555 1_555
H14 C14 1_555 1_555
C15 N6 1_555 1_555
H15 C15 1_555 1_555
C16 N6 1_555 1_555
C17 C16 1_555 1_555
H16 C17 1_555 1_555
C18 C16 1_555 1_555
H17 C18 1_555 1_555
C19 O1 1_555 1_555
H18 C19 1_555 1_555
C20 O3 1_555 1_555
H19 C20 1_555 1_555
O6 H20 1_555 1_555
H21 O6 1_555 1_555
O7 H22 1_555 1_555
H23 O7 1_555 1_555
O8 H24 1_555 1_555
H25 O8 1_555 1_555
N5F C13F 1_555 1_555
N6F C13F 1_555 1_555
C13F H13F 1_555 1_555
C14F N5F 1_555 1_555
H14F C14F 1_555 1_555
C15F N6F 1_555 1_555
H15F C15F 1_555 1_555
C16F N6F 1_555 1_555
C17F C18 1_555 1_555
H16F C17F 1_555 1_555
C18F C17 1_555 1_555
H17F C18F 1_555 1_555
Ni1F N5F 1_555 1_555
N1F Ni1F 1_555 1_555
N2F C1F 1_555 1_555
N3F C9F 1_555 1_555
N4F C11F 1_555 1_555
O1F Ni1F 1_555 1_555
O2F C19F 1_555 1_555
O3F Ni1F 1_555 1_555
O4F C20F 1_555 1_555
O5F Ni1F 1_555 1_555
H1F O5F 1_555 1_555
H2F O5F 1_555 1_555
C1F N1F 1_555 1_555
H3F C1F 1_555 1_555
C2F N1F 1_555 1_555
H4F C2F 1_555 1_555
C3F N2F 1_555 1_555
H5F C3F 1_555 1_555
C4F N2F 1_555 1_555
C5F C4F 1_555 1_555
H6F C5F 1_555 1_555
C6F C5F 1_555 1_555
H7F C6F 1_555 1_555
C7F C4F 1_555 1_555
H8F C7F 1_555 1_555
H9F C8F 1_555 1_555
H10F C10F 1_555 1_555
H11F C11F 1_555 1_555
H12F C12F 1_555 1_555
C8F C7F 1_555 1_555
C9F C6F 1_555 1_555
C10F N3F 1_555 1_555
C11F C10F 1_555 1_555
C12F N3F 1_555 1_555
C19F O1F 1_555 1_555
H18F C19F 1_555 1_555
C20F O3F 1_555 1_555
H19F C20F 1_555 1_555
Ni1B N4 1_555 1_555
Ni1D N4F 1_555 1_555
N4B Ni1 1_555 1_555
N4D Ni1F 1_555 1_555
N4 C12 1_555 1_555
C2 C3 1_555 1_555
C8 C9 1_555 1_555
C14 C15 1_555 1_555
C14F C15F 1_555 1_555
C16F C17F 1_555 1_555
C16F C18F 1_555 1_555
N4F C12F 1_555 1_555
C2F C3F 1_555 1_555
C8F C9F 1_555 1_555

#END
