
#######################################################################
#
#                 Cambridge Crystallographic Data Centre
#                                CCDC 
#
#######################################################################
#
# If this CIF has been generated from an entry in the Cambridge 
# Structural Database, then it will include bibliographic, chemical, 
# crystal, experimental, refinement or atomic coordinate data resulting 
# from the CCDC's data processing and validation procedures.
#
#######################################################################

data_TOLQES
_symmetry_cell_setting           triclinic
_symmetry_space_group_name_H-M   'P -1'
_symmetry_Int_Tables_number      2
_space_group_name_Hall           '-P 1'
loop_
_symmetry_equiv_pos_site_id
_symmetry_equiv_pos_as_xyz
1 x,y,z
2 -x,-y,-z
_cell_length_a                   8.1587(9)
_cell_length_b                   9.3411(12)
_cell_length_c                   12.7338(12)
_cell_angle_alpha                105.254(2)
_cell_angle_beta                 98.139(2)
_cell_angle_gamma                107.777(2)
_cell_volume                     865.165
loop_
_atom_site_label
_atom_site_type_symbol
_atom_site_fract_x
_atom_site_fract_y
_atom_site_fract_z
Ni1 Ni 0.28768(10) 0.45233(9) 0.46343(6)
O1 O 0.5134(5) 0.5755(4) 0.4230(3)
O2 O 0.6801(6) 0.7754(5) 0.3766(4)
O3 O 0.1311(5) 0.5293(5) 0.3694(3)
O4 O -0.0042(6) 0.6036(5) 0.2430(4)
O5 O 0.0774(5) 0.3293(5) 0.5170(3)
H1 H 0.0152 0.3732 0.5471
H2 H 0.1156 0.2894 0.5604
N1 N 0.3193(6) -0.3404(5) -0.4097(4)
N2 N 0.3045(6) -0.1774(6) -0.2525(4)
N3 N 0.2396(6) 0.2352(6) 0.3413(4)
N4 N 0.2255(6) 0.0558(6) 0.1848(4)
C1 C 0.5475(8) 0.6584(7) 0.3577(4)
C2 C 0.4291(8) 0.5915(7) 0.2397(5)
C3 C 0.5261(9) 0.5758(8) 0.1562(5)
H3 H 0.6492 0.6129 0.1788
C4 C 0.4463(8) 0.5076(7) 0.0425(5)
C5 C 0.2601(8) 0.4568(7) 0.0088(5)
H4 H 0.2020 0.4096 -0.0668
C6 C 0.1638(9) 0.4782(8) 0.0907(5)
H5 H 0.0414 0.4487 0.0677
C7 C 0.2437(8) 0.5418(7) 0.2048(5)
C8 C 0.1153(8) 0.5593(7) 0.2788(5)
C9 C 0.2742(8) 0.2112(7) 0.2420(5)
H6 H 0.3264 0.2923 0.2143
C10 C 0.1651(8) 0.0847(7) 0.3480(5)
H7 H 0.1272 0.0634 0.4097
C11 C 0.1548(8) -0.0285(8) 0.2517(5)
H8 H 0.1099 -0.1383 0.2349
C12 C 0.2420(8) -0.0074(7) 0.0725(5)
C13 C 0.2133(8) 0.0670(7) -0.0051(5)
H9 H 0.1808 0.1557 0.0152
C14 C 0.2326(8) 0.0112(7) -0.1120(5)
H10 H 0.2144 0.0626 -0.1636
C15 C 0.2792(8) -0.1216(7) -0.1426(5)
C16 C 0.3057(8) -0.1980(7) -0.0662(5)
H11 H 0.3368 -0.2875 -0.0869
C17 C 0.2857(8) -0.1409(7) 0.0418(5)
H12 H 0.3019 -0.1929 0.0932
C18 C 0.2827(8) -0.3277(7) -0.3108(5)
H13 H 0.2460 -0.4131 -0.2842
C19 C 0.3657(9) -0.1878(7) -0.4150(5)
H14 H 0.3991 -0.1587 -0.4754
C20 C 0.3558(9) -0.0874(7) -0.3212(5)
H15 H 0.3788 0.0209 -0.3054
O1A O 0.4866(5) 0.4245(4) -0.4230(3)
O2A O 0.3199(6) 0.2246(5) -0.3766(4)
O3A O 0.8689(5) 0.4707(5) -0.3694(3)
O4A O 1.0042(6) 0.3964(5) -0.2430(4)
C1A C 0.4525(8) 0.3416(7) -0.3577(4)
C2A C 0.5709(8) 0.4085(7) -0.2397(5)
C3A C 0.4739(9) 0.4242(8) -0.1562(5)
H3A H 0.3508 0.3871 -0.1788
C4A C 0.5537(8) 0.4924(7) -0.0425(5)
C5A C 0.7399(8) 0.5432(7) -0.0088(5)
H4A H 0.7980 0.5904 0.0668
C6A C 0.8362(9) 0.5218(8) -0.0907(5)
H5A H 0.9586 0.5513 -0.0677
C7A C 0.7563(8) 0.4582(7) -0.2048(5)
C8A C 0.8847(8) 0.4407(7) -0.2788(5)
Ni1A Ni 0.71232(10) 0.54767(9) -0.46343(6)
O5A O 0.9226(5) 0.6707(5) -0.5170(3)
H1A H 0.9848 0.6268 -0.5471
H2A H 0.8844 0.7106 -0.5604
N1A N 0.6807(6) 1.3404(5) 0.4097(4)
N2A N 0.6955(6) 1.1774(6) 0.2525(4)
N3A N 0.7604(6) 0.7648(6) -0.3413(4)
N4A N 0.7745(6) 0.9442(6) -0.1848(4)
C9A C 0.7258(8) 0.7888(7) -0.2420(5)
H6A H 0.6736 0.7077 -0.2143
C10A C 0.8349(8) 0.9153(7) -0.3480(5)
H7A H 0.8728 0.9366 -0.4097
C11A C 0.8452(8) 1.0285(8) -0.2517(5)
H8A H 0.8901 1.1383 -0.2349
C12A C 0.7580(8) 1.0074(7) -0.0725(5)
C13A C 0.7867(8) 0.9330(7) 0.0051(5)
H9A H 0.8192 0.8443 -0.0152
C14A C 0.7674(8) 0.9888(7) 0.1120(5)
H10A H 0.7856 0.9374 0.1636
C15A C 0.7208(8) 1.1216(7) 0.1426(5)
C16A C 0.6943(8) 1.1980(7) 0.0662(5)
H11A H 0.6632 1.2875 0.0869
C17A C 0.7143(8) 1.1409(7) -0.0418(5)
H12A H 0.6981 1.1929 -0.0932
C18A C 0.7173(8) 1.3277(7) 0.3108(5)
H13A H 0.7540 1.4131 0.2842
C19A C 0.6343(9) 1.1878(7) 0.4150(5)
H14A H 0.6009 1.1587 0.4754
C20A C 0.6442(9) 1.0874(7) 0.3212(5)
H15A H 0.6212 0.9791 0.3054
Ni1_2 Ni 0.28768(10) -0.54767(9) -0.53657(6)
Ni1_3 Ni 0.28768(10) 0.45233(9) -0.53657(6)
Ni1A_2 Ni 0.71232(10) 0.54767(9) 0.53657(6)
Ni1A_3 Ni 0.71232(10) 1.54767(9) 0.53657(6)
O1_2 O 0.5134(5) 0.5755(4) -0.5770(3)
O1A_2 O 0.4866(5) 0.4245(4) 0.5770(3)
N1_2 N 0.3193(6) 0.6596(5) 0.5903(4)
N1A_2 N 0.6807(6) 0.3404(5) -0.5903(4)
loop_
_geom_bond_atom_site_label_1
_geom_bond_atom_site_label_2
_geom_bond_site_symmetry_1
_geom_bond_site_symmetry_2
Ni1 O1 1_555 1_555
O1 C1 1_555 1_555
O2 C1 1_555 1_555
O3 Ni1 1_555 1_555
O4 C8 1_555 1_555
O5 Ni1 1_555 1_555
H1 O5 1_555 1_555
H2 O5 1_555 1_555
N1 C18 1_555 1_555
N2 C15 1_555 1_555
N3 Ni1 1_555 1_555
N4 C9 1_555 1_555
C1 C2 1_555 1_555
C2 C3 1_555 1_555
C3 H3 1_555 1_555
C4 C3 1_555 1_555
C5 C4 1_555 1_555
H4 C5 1_555 1_555
C6 C5 1_555 1_555
H5 C6 1_555 1_555
C7 C2 1_555 1_555
C8 O3 1_555 1_555
C9 N3 1_555 1_555
H6 C9 1_555 1_555
C10 N3 1_555 1_555
H7 C10 1_555 1_555
C11 N4 1_555 1_555
H8 C11 1_555 1_555
C12 N4 1_555 1_555
C13 C12 1_555 1_555
H9 C13 1_555 1_555
C14 C13 1_555 1_555
H10 C14 1_555 1_555
C15 C14 1_555 1_555
C16 C15 1_555 1_555
H11 C16 1_555 1_555
C17 C12 1_555 1_555
H12 C17 1_555 1_555
C18 N2 1_555 1_555
H13 C18 1_555 1_555
C19 N1 1_555 1_555
H14 C19 1_555 1_555
C20 N2 1_555 1_555
H15 C20 1_555 1_555
O1A C1A 1_555 1_555
O2A C1A 1_555 1_555
O3A C8A 1_555 1_555
O4A C8A 1_555 1_555
C1A C2A 1_555 1_555
C2A C3A 1_555 1_555
C3A H3A 1_555 1_555
C4A C4 1_555 1_555
C5A C4A 1_555 1_555
H4A C5A 1_555 1_555
C6A C5A 1_555 1_555
H5A C6A 1_555 1_555
C7A C2A 1_555 1_555
C8A C7A 1_555 1_555
Ni1A O1A 1_555 1_555
O5A Ni1A 1_555 1_555
H1A O5A 1_555 1_555
H2A O5A 1_555 1_555
N1A C18A 1_555 1_555
N2A C15A 1_555 1_555
N3A Ni1A 1_555 1_555
N4A C9A 1_555 1_555
C9A N3A 1_555 1_555
H6A C9A 1_555 1_555
C10A N3A 1_555 1_555
H7A C10A 1_555 1_555
C11A N4A 1_555 1_555
H8A C11A 1_555 1_555
C12A N4A 1_555 1_555
C13A C12A 1_555 1_555
H9A C13A 1_555 1_555
C14A C13A 1_555 1_555
H10A C14A 1_555 1_555
C15A C14A 1_555 1_555
C16A C15A 1_555 1_555
H11A C16A 1_555 1_555
C17A C12A 1_555 1_555
H12A C17A 1_555 1_555
C18A N2A 1_555 1_555
H13A C18A 1_555 1_555
C19A N1A 1_555 1_555
H14A C19A 1_555 1_555
C20A N2A 1_555 1_555
H15A C20A 1_555 1_555
Ni1_2 N1 1_555 1_555
Ni1_3 O1A 1_555 1_555
Ni1A_2 Ni1 1_555 1_555
Ni1A_3 N1A 1_555 1_555
O1_2 Ni1A 1_555 1_555
O1A_2 Ni1 1_555 1_555
N1_2 Ni1 1_555 1_555
N1A_2 Ni1A 1_555 1_555
O1 Ni1A_2 1_555 1_555
C6 C7 1_555 1_555
C7 C8 1_555 1_555
C10 C11 1_555 1_555
C16 C17 1_555 1_555
C19 C20 1_555 1_555
O3A Ni1A 1_555 1_555
C3A C4A 1_555 1_555
C6A C7A 1_555 1_555
Ni1A Ni1_3 1_555 1_555
C10A C11A 1_555 1_555
C16A C17A 1_555 1_555
C19A C20A 1_555 1_555
Ni1_3 O1_2 1_555 1_555
Ni1A_2 O1A_2 1_555 1_555

#END
