
#######################################################################
#
#                 Cambridge Crystallographic Data Centre
#                                CCDC 
#
#######################################################################
#
# If this CIF has been generated from an entry in the Cambridge 
# Structural Database, then it will include bibliographic, chemical, 
# crystal, experimental, refinement or atomic coordinate data resulting 
# from the CCDC's data processing and validation procedures.
#
#######################################################################

data_TOLWOI
_symmetry_cell_setting           trigonal
_symmetry_space_group_name_H-M   'P 31 2 1'
_symmetry_Int_Tables_number      152
_space_group_name_Hall           'P 31 2"'
loop_
_symmetry_equiv_pos_site_id
_symmetry_equiv_pos_as_xyz
1 x,y,z
2 -y,x-y,1/3+z
3 -x+y,-x,2/3+z
4 x-y,-y,2/3-z
5 -x,-x+y,1/3-z
6 y,x,-z
_cell_length_a                   13.9670(5)
_cell_length_b                   13.9670(5)
_cell_length_c                   34.8930(11)
_cell_angle_alpha                90
_cell_angle_beta                 90
_cell_angle_gamma                120
_cell_volume                     5894.88
loop_
_atom_site_label
_atom_site_type_symbol
_atom_site_fract_x
_atom_site_fract_y
_atom_site_fract_z
Cu1 Cu 0.72562(6) 0.10584(6) 0.65873(2)
Cu2 Cu 0.46930(6) 0.22077(7) 0.58792(2)
O1 O 0.7624(4) 0.0874(4) 0.60751(13)
N1 N 0.4221(4) 0.2544(4) 0.63623(13)
O2 O 0.3204(4) 0.1060(4) 0.57839(14)
O3 O 0.7033(4) 0.1447(4) 0.70865(13)
O4 O 0.6142(4) 0.3462(4) 0.59337(14)
C1 C 0.4914(5) 0.0437(5) 0.66643(16)
N2 N 0.3269(4) 0.2428(4) 0.64278(14)
O5 O 0.5247(4) 0.1806(4) 0.54115(11)
N3 N 0.5841(4) 0.0859(4) 0.64093(12)
O6 O 0.1406(3) 0.2493(4) 0.65367(14)
N4 N 0.5640(4) 0.1081(4) 0.60765(13)
C2 C 0.6365(5) 0.1320(6) 0.57804(17)
O7 O 0.8515(5) 0.3025(5) 0.64582(19)
C3 C 0.2420(5) 0.1849(5) 0.61873(18)
C4 C 0.0328(5) 0.0374(6) 0.58193(19)
C5 C 0.6047(5) 0.1630(6) 0.54289(17)
C6 C 0.5048(5) 0.0554(5) 0.70604(16)
O8 O 0.1747(4) -0.1703(6) 0.62321(17)
C7 C 0.4974(5) 0.2971(5) 0.66767(17)
C8 C 0.2385(5) 0.1126(6) 0.58895(19)
O9 O 0.6137(5) 0.1291(6) 0.76165(14)
O10 O 0.1010(4) -0.1831(7) 0.67990(18)
C9 C 0.6125(6) 0.3542(5) 0.66234(19)
C10 C 0.3869(5) -0.0173(5) 0.65092(17)
H1 H 0.3786 -0.0260 0.6245
C11 C 0.4538(6) 0.2752(5) 0.70407(17)
H2 H 0.3776 0.2373 0.7074
C12 C 0.2934(5) -0.0661(6) 0.6744(2)
C13 C 0.1825(5) -0.1440(7) 0.6576(2)
C14 C 0.5243(7) 0.3099(6) 0.7365(2)
C15 C 0.6687(6) 0.3859(6) 0.6238(2)
C16 C 0.4091(6) 0.0094(6) 0.72832(18)
H3 H 0.4163 0.0194 0.7547
C17 C 0.6788(6) 0.3862(6) 0.6946(2)
H4 H 0.7551 0.4233 0.6916
C18 C 0.6151(6) 0.1146(5) 0.72666(18)
C19 C 0.3060(5) -0.0494(6) 0.71330(19)
H5 H 0.2443 -0.0781 0.7292
O11 O 0.5420(8) 0.3106(7) 0.80259(17)
H6 H 0.5089 0.2901 0.8230
C20 C 0.6679(7) 0.1793(8) 0.50691(19)
H7 H 0.6664 0.2369 0.4918
H8 H 0.6323 0.1115 0.4920
O12 O 0.7700(4) 0.4510(6) 0.62357(19)
C21 C 0.1423(5) 0.1903(6) 0.6279(2)
O13 O 0.3749(7) 0.2207(9) 0.77874(19)
C22 C 0.7298(6) 0.1143(6) 0.57796(17)
C23 C 0.7930(7) 0.1333(9) 0.5419(2)
H9 H 0.8699 0.1606 0.5485
H10 H 0.7660 0.0626 0.5292
C24 C 0.0422(8) 0.1303(9) 0.6040(3)
H11 H -0.0219 0.1032 0.6206
H12 H 0.0397 0.1826 0.5863
C25 C 0.7883(8) 0.2111(11) 0.5143(2)
C26 C 0.1336(7) 0.0424(8) 0.5673(3)
H13 H 0.1445 0.0692 0.5411
H14 H 0.1212 -0.0323 0.5665
C27 C -0.0691(7) -0.0299(9) 0.5587(3)
H15 H -0.1294 -0.0245 0.5696
H16 H -0.0869 -0.1057 0.5587
H17 H -0.0566 -0.0027 0.5329
C28 C 0.8476(10) 0.2138(12) 0.4771(3)
H18 H 0.8418 0.2628 0.4592
H19 H 0.8140 0.1408 0.4664
H20 H 0.9241 0.2395 0.4824
C29 C 0.4724(9) 0.2776(8) 0.7751(2)
C30 C 0.6369(7) 0.3657(7) 0.7302(2)
H21 H 0.6847 0.3895 0.7511
C31 C 0.8540(9) 0.3309(10) 0.5318(3)
H22 H 0.8182 0.3341 0.5549
H23 H 0.8556 0.3833 0.5136
H24 H 0.9282 0.3484 0.5376
C32 C 0.0053(12) -0.0505(11) 0.6163(4)
H25 H -0.0604 -0.0630 0.6294
H26 H 0.0660 -0.0217 0.6340
H27 H -0.0061 -0.1190 0.6058
O14 O 0.4210(8) 0.3291(8) 0.5455(2)
H28 H 0.470(9) 0.351(12) 0.526(3)
H29 H 0.4360 0.3949 0.5576
H30 H 0.8195 0.2902 0.6719
H31 H 0.8505 0.3601 0.6334
H32 H 0.341(10) 0.309(5) 0.652(3)
Cu1D Cu 0.27438(6) 0.38022(8) 0.67460(2)
O6D O 0.8594(3) 0.1087(5) 0.67966(14)
loop_
_geom_bond_atom_site_label_1
_geom_bond_atom_site_label_2
_geom_bond_site_symmetry_1
_geom_bond_site_symmetry_2
Cu1 O1 1_555 1_555
Cu2 N1 1_555 1_555
O1 C22 1_555 1_555
N1 N2 1_555 1_555
O2 Cu2 1_555 1_555
O3 Cu1 1_555 1_555
O4 Cu2 1_555 1_555
C1 N3 1_555 1_555
N2 C3 1_555 1_555
O5 Cu2 1_555 1_555
N3 Cu1 1_555 1_555
O6 C21 1_555 1_555
N4 Cu2 1_555 1_555
C2 N4 1_555 1_555
O7 Cu1 1_555 1_555
C3 C8 1_555 1_555
C4 C24 1_555 1_555
C5 O5 1_555 1_555
C6 C1 1_555 1_555
O8 C13 1_555 1_555
C7 N1 1_555 1_555
C8 O2 1_555 1_555
O9 C18 1_555 1_555
O10 C13 1_555 1_555
C9 C7 1_555 1_555
C10 C1 1_555 1_555
H1 C10 1_555 1_555
C11 C7 1_555 1_555
H2 C11 1_555 1_555
C12 C10 1_555 1_555
C13 C12 1_555 1_555
C14 C11 1_555 1_555
C15 O4 1_555 1_555
C16 C6 1_555 1_555
H3 C16 1_555 1_555
C17 C9 1_555 1_555
H4 C17 1_555 1_555
C18 O3 1_555 1_555
C19 C12 1_555 1_555
H5 C19 1_555 1_555
O11 H6 1_555 1_555
C20 C5 1_555 1_555
H7 C20 1_555 1_555
H8 C20 1_555 1_555
O12 C15 1_555 1_555
C21 C3 1_555 1_555
O13 C29 1_555 1_555
C22 C2 1_555 1_555
C23 C22 1_555 1_555
H9 C23 1_555 1_555
H10 C23 1_555 1_555
C24 C21 1_555 1_555
H11 C24 1_555 1_555
H12 C24 1_555 1_555
C25 C20 1_555 1_555
C26 C4 1_555 1_555
H13 C26 1_555 1_555
H14 C26 1_555 1_555
C27 C4 1_555 1_555
H15 C27 1_555 1_555
H16 C27 1_555 1_555
H17 C27 1_555 1_555
C28 C25 1_555 1_555
H18 C28 1_555 1_555
H19 C28 1_555 1_555
H20 C28 1_555 1_555
C29 C14 1_555 1_555
C30 C14 1_555 1_555
H21 C30 1_555 1_555
C31 C25 1_555 1_555
H22 C31 1_555 1_555
H23 C31 1_555 1_555
H24 C31 1_555 1_555
C32 C4 1_555 1_555
H25 C32 1_555 1_555
H26 C32 1_555 1_555
H27 C32 1_555 1_555
O14 Cu2 1_555 1_555
H28 O14 1_555 1_555
H29 O14 1_555 1_555
H30 O7 1_555 1_555
H31 O7 1_555 1_555
H32 N2 1_555 1_555
Cu1D O6 1_555 1_555
O6D Cu1 1_555 1_555
N3 N4 1_555 1_555
C2 C5 1_555 1_555
C6 C18 1_555 1_555
C8 C26 1_555 1_555
C9 C15 1_555 1_555
C16 C19 1_555 1_555
C17 C30 1_555 1_555
O11 C29 1_555 1_555
C23 C25 1_555 1_555

#END
