
#######################################################################
#
#                 Cambridge Crystallographic Data Centre
#                                CCDC 
#
#######################################################################
#
# If this CIF has been generated from an entry in the Cambridge 
# Structural Database, then it will include bibliographic, chemical, 
# crystal, experimental, refinement or atomic coordinate data resulting 
# from the CCDC's data processing and validation procedures.
#
#######################################################################

data_TOLYAV
_symmetry_cell_setting           monoclinic
_symmetry_space_group_name_H-M   'C 2/c'
_symmetry_Int_Tables_number      15
_space_group_name_Hall           '-C 2yn'
loop_
_symmetry_equiv_pos_site_id
_symmetry_equiv_pos_as_xyz
1 x,y,z
2 -x,y,1/2-z
3 1/2+x,1/2+y,z
4 1/2-x,1/2+y,1/2-z
5 -x,-y,-z
6 x,-y,1/2+z
7 1/2-x,1/2-y,-z
8 1/2+x,1/2-y,1/2+z
_cell_length_a                   28.601(5)
_cell_length_b                   7.295(5)
_cell_length_c                   18.789(5)
_cell_angle_alpha                90
_cell_angle_beta                 130.971(5)
_cell_angle_gamma                90
_cell_volume                     2959.93
loop_
_atom_site_label
_atom_site_type_symbol
_atom_site_fract_x
_atom_site_fract_y
_atom_site_fract_z
C1 C 1.0660(2) -0.2878(6) 1.0355(4)
C2 C 0.74425(19) 0.0282(5) 0.5332(3)
C3 C 0.79171(18) 0.0163(6) 0.5314(3)
H1 H 0.8320 0.0446 0.5851
Pb1 Pb 0.794883(6) 0.30205(2) 0.789842(10)
N1 N 0.87937(14) -0.1164(5) 0.8802(2)
O1 O 1.09000(17) -0.2759(6) 1.0000(3)
O2 O 0.80670(15) 0.1834(4) 0.6786(2)
N2 N 0.72137(15) -0.0706(5) 0.3715(2)
O3 O 0.82410(12) -0.0436(4) 0.8371(2)
C4 C 0.9096(2) -0.2016(6) 0.9635(4)
H2 H 0.8902 -0.2199 0.9877
C5 C 0.77979(19) -0.0369(6) 0.4509(3)
H3 H 0.8122 -0.0498 0.4511
C6 C 0.9986(2) -0.2423(6) 0.9771(4)
C7 C 0.7559(2) 0.1033(6) 0.6179(3)
O4 O 0.71414(14) 0.0867(5) 0.6222(2)
O5 O 0.70956(13) -0.1047(4) 0.29159(19)
C8 C 0.6742(2) -0.0660(6) 0.3713(3)
H4 H 0.6343 -0.0954 0.3167
C9 C 0.90495(19) -0.1053(7) 0.8406(3)
H5 H 0.8823 -0.0560 0.7805
O6 O 1.09434(15) -0.3307(5) 1.1198(3)
C10 C 0.9690(2) -0.2613(7) 1.0124(4)
H6 H 0.9901 -0.3161 1.0709
C11 C 0.9641(2) -0.1662(6) 0.8883(3)
H7 H 0.9814 -0.1560 0.8604
C12 C 0.6849(2) -0.0177(6) 0.4519(3)
H8 H 0.6523 -0.0159 0.4518
Pb1F Pb 0.705117(6) 0.19795(2) 0.210158(10)
Pb1D Pb 1.205117(6) -0.30205(2) 1.210158(10)
O5F O 0.79044(13) 0.6047(4) 0.70841(19)
O6D O 0.90566(15) 0.3307(5) 0.8802(3)
O7 O 0.5575(4) 0.337(2) 0.8270(7)
O8 O 0.9396(6) 0.7874(15) 0.2278(8)
O9? O 0.9776(11) 0.465(4) 0.1896(14)
loop_
_geom_bond_atom_site_label_1
_geom_bond_atom_site_label_2
_geom_bond_site_symmetry_1
_geom_bond_site_symmetry_2
C1 O1 1_555 1_555
C2 C3 1_555 1_555
C3 H1 1_555 1_555
Pb1 O2 1_555 1_555
N1 O3 1_555 1_555
O2 C7 1_555 1_555
N2 C5 1_555 1_555
O3 Pb1 1_555 1_555
C4 N1 1_555 1_555
H2 C4 1_555 1_555
C5 C3 1_555 1_555
H3 C5 1_555 1_555
C6 C1 1_555 1_555
C7 C2 1_555 1_555
O4 C7 1_555 1_555
O5 N2 1_555 1_555
C8 N2 1_555 1_555
H4 C8 1_555 1_555
C9 N1 1_555 1_555
H5 C9 1_555 1_555
O6 C1 1_555 1_555
C10 C4 1_555 1_555
H6 C10 1_555 1_555
C11 C6 1_555 1_555
H7 C11 1_555 1_555
C12 C2 1_555 1_555
H8 C12 1_555 1_555
Pb1F O5 1_555 1_555
Pb1D O6 1_555 1_555
O5F Pb1 1_555 1_555
O6D Pb1 1_555 1_555
C6 C10 1_555 1_555
C8 C12 1_555 1_555
C9 C11 1_555 1_555

#END
