
#######################################################################
#
#                 Cambridge Crystallographic Data Centre
#                                CCDC 
#
#######################################################################
#
# If this CIF has been generated from an entry in the Cambridge 
# Structural Database, then it will include bibliographic, chemical, 
# crystal, experimental, refinement or atomic coordinate data resulting 
# from the CCDC's data processing and validation procedures.
#
#######################################################################

data_TOLYEZ
_symmetry_cell_setting           triclinic
_symmetry_space_group_name_H-M   'P -1'
_symmetry_Int_Tables_number      2
_space_group_name_Hall           '-P 1'
loop_
_symmetry_equiv_pos_site_id
_symmetry_equiv_pos_as_xyz
1 x,y,z
2 -x,-y,-z
_cell_length_a                   7.1828(6)
_cell_length_b                   8.3690(8)
_cell_length_c                   9.7794(9)
_cell_angle_alpha                110.925(1)
_cell_angle_beta                 90.643(1)
_cell_angle_gamma                112.354(1)
_cell_volume                     500.421
loop_
_atom_site_label
_atom_site_type_symbol
_atom_site_fract_x
_atom_site_fract_y
_atom_site_fract_z
Pb1 Pb 0.27320(3) 0.10651(3) 0.47297(2)
O1 O 0.4673(9) -0.1095(8) 0.3495(5)
O2 O 0.3466(9) -0.5913(7) -0.3283(6)
O3 O 0.0966(11) -0.7960(8) -0.2634(7)
O4 O 0.1734(11) 0.2233(12) 0.2783(9)
O5 O -0.0537(11) 0.2081(10) 0.4222(9)
O6 O -0.1053(12) 0.2439(15) 0.2190(11)
O7 O 0.5937(11) 0.3129(10) 0.4323(8)
H1 H 0.6838 0.2710 0.4036
H2 H 0.6182 0.4118 0.4166
N1 N 0.4035(9) -0.2332(8) 0.2077(6)
N2 N 0.0056(11) 0.2247(11) 0.3058(10)
C1 C 0.4908(12) -0.1795(10) 0.1015(8)
H3 H 0.5885 -0.0578 0.1265
C2 C 0.4349(12) -0.3054(10) -0.0447(8)
H4 H 0.4934 -0.2691 -0.1190
C3 C 0.2882(11) -0.4894(9) -0.0797(7)
C4 C 0.2012(11) -0.5368(10) 0.0332(8)
H5 H 0.1011 -0.6565 0.0120
C5 C 0.2633(11) -0.4055(10) 0.1779(8)
H6 H 0.2070 -0.4377 0.2545
C6 C 0.2331(12) -0.6364(10) -0.2369(8)
Pb1A Pb 0.72680(3) -0.10651(3) 0.52703(2)
Pb1_2 Pb 0.27320(3) -0.89349(3) -0.52703(2)
O1A O 0.5327(9) 0.1095(8) 0.6505(5)
O2_2 O 0.3466(9) 0.4087(7) 0.6717(6)
loop_
_geom_bond_atom_site_label_1
_geom_bond_atom_site_label_2
_geom_bond_site_symmetry_1
_geom_bond_site_symmetry_2
Pb1 O1 1_555 1_555
O1 N1 1_555 1_555
O2 C6 1_555 1_555
O3 C6 1_555 1_555
O4 Pb1 1_555 1_555
O5 N2 1_555 1_555
O6 N2 1_555 1_555
O7 Pb1 1_555 1_555
H1 O7 1_555 1_555
H2 O7 1_555 1_555
N1 C1 1_555 1_555
N2 O4 1_555 1_555
C1 H3 1_555 1_555
C2 C1 1_555 1_555
H4 C2 1_555 1_555
C3 C2 1_555 1_555
C4 C3 1_555 1_555
H5 C4 1_555 1_555
C5 N1 1_555 1_555
H6 C5 1_555 1_555
C6 C3 1_555 1_555
Pb1A O1 1_555 1_555
Pb1_2 O2 1_555 1_555
O1A Pb1 1_555 1_555
O2_2 Pb1 1_555 1_555
C4 C5 1_555 1_555
Pb1A O1A 1_555 1_555

#END
