
#######################################################################
#
#                 Cambridge Crystallographic Data Centre
#                                CCDC 
#
#######################################################################
#
# If this CIF has been generated from an entry in the Cambridge 
# Structural Database, then it will include bibliographic, chemical, 
# crystal, experimental, refinement or atomic coordinate data resulting 
# from the CCDC's data processing and validation procedures.
#
#######################################################################

data_TOLYID
_symmetry_cell_setting           orthorhombic
_symmetry_space_group_name_H-M   'P b c n'
_symmetry_Int_Tables_number      60
_space_group_name_Hall           '-P 2n 2ab'
loop_
_symmetry_equiv_pos_site_id
_symmetry_equiv_pos_as_xyz
1 x,y,z
2 1/2-x,1/2-y,1/2+z
3 -x,y,1/2-z
4 1/2+x,1/2-y,-z
5 -x,-y,-z
6 1/2+x,1/2+y,1/2-z
7 x,-y,1/2+z
8 1/2-x,1/2+y,z
_cell_length_a                   13.0592(8)
_cell_length_b                   7.1478(4)
_cell_length_c                   17.3911(11)
_cell_angle_alpha                90
_cell_angle_beta                 90
_cell_angle_gamma                90
_cell_volume                     1623.36
loop_
_atom_site_label
_atom_site_type_symbol
_atom_site_fract_x
_atom_site_fract_y
_atom_site_fract_z
Pb1 Pb 0.842043(12) 0.70981(3) 0.227374(9)
N1 N 0.6659(3) 0.5816(5) 0.0950(2)
O1 O 0.7142(2) 0.5108(5) 0.15636(17)
O2 O 0.5274(3) 0.6999(5) -0.16509(17)
O3 O 0.4149(3) 0.8382(5) -0.08962(19)
C1 C 0.5804(4) 0.6834(6) 0.1052(2)
H1 H 0.5574 0.7109 0.1546
C2 C 0.5274(4) 0.7460(6) 0.0425(3)
H2 H 0.4686 0.8175 0.0494
C3 C 0.5601(4) 0.7047(6) -0.0308(2)
C4 C 0.6522(3) 0.6041(8) -0.0391(3)
H3 H 0.6781 0.5785 -0.0878
C5 C 0.7028(4) 0.5446(7) 0.0247(2)
H4 H 0.7636 0.4778 0.0195
C6 C 0.4969(4) 0.7551(6) -0.1001(2)
Cl1 Cl 0.84533(10) 0.3564(2) 0.30263(8)
Pb1G Pb 0.657957(12) 0.20981(3) 0.227374(9)
Pb1A Pb 0.657957(12) 0.79019(3) -0.272626(9)
Pb1C Pb 0.342043(12) 0.79019(3) -0.227374(9)
O1G O 0.7858(2) 1.0108(5) 0.15636(17)
O2A O 0.9726(3) 0.8001(5) 0.33491(17)
O2C O 1.0274(3) 0.8001(5) 0.16509(17)
O3C O 0.9149(3) 0.6618(5) 0.08962(19)
Cl1G Cl 0.65467(10) 0.8564(2) 0.30263(8)
loop_
_geom_bond_atom_site_label_1
_geom_bond_atom_site_label_2
_geom_bond_site_symmetry_1
_geom_bond_site_symmetry_2
Pb1 O1 1_555 1_555
N1 O1 1_555 1_555
O1 Pb1G 1_555 1_555
O2 C6 1_555 1_555
O3 C6 1_555 1_555
C1 N1 1_555 1_555
H1 C1 1_555 1_555
C2 C1 1_555 1_555
H2 C2 1_555 1_555
C3 C2 1_555 1_555
C4 C3 1_555 1_555
H3 C4 1_555 1_555
C5 N1 1_555 1_555
H4 C5 1_555 1_555
C6 C3 1_555 1_555
Cl1 Pb1 1_555 1_555
Pb1G Cl1 1_555 1_555
Pb1A O2 1_555 1_555
Pb1C O2 1_555 1_555
O1G Pb1 1_555 1_555
O2A Pb1 1_555 1_555
O2C Pb1 1_555 1_555
O3C Pb1 1_555 1_555
Cl1G Pb1 1_555 1_555
O3 Pb1C 1_555 1_555
C4 C5 1_555 1_555

#END
