
#######################################################################
#
#                 Cambridge Crystallographic Data Centre
#                                CCDC 
#
#######################################################################
#
# If this CIF has been generated from an entry in the Cambridge 
# Structural Database, then it will include bibliographic, chemical, 
# crystal, experimental, refinement or atomic coordinate data resulting 
# from the CCDC's data processing and validation procedures.
#
#######################################################################

data_TOMCEE
_symmetry_cell_setting           monoclinic
_symmetry_space_group_name_H-M   'P 21'
_symmetry_Int_Tables_number      4
_space_group_name_Hall           'P 2yb'
loop_
_symmetry_equiv_pos_site_id
_symmetry_equiv_pos_as_xyz
1 x,y,z
2 -x,1/2+y,-z
_cell_length_a                   5.0875(10)
_cell_length_b                   10.437(2)
_cell_length_c                   9.5129(19)
_cell_angle_alpha                90
_cell_angle_beta                 90.683(4)
_cell_angle_gamma                90
_cell_volume                     505.082
loop_
_atom_site_label
_atom_site_type_symbol
_atom_site_fract_x
_atom_site_fract_y
_atom_site_fract_z
Mn1 Mn 0.14473(19) 0.26057(12) 0.46101(11)
P1 P 0.3630(4) -0.03169(19) 0.4583(2)
O1 O 0.4525(14) 0.0995(6) 0.5106(7)
O2 O -0.0818(13) 0.1543(6) 0.6425(6)
H1 H -0.2420 0.1774 0.6399
H2 H -0.0723 0.0737 0.6304
O3 O 0.6016(11) -0.1137(5) 0.4218(6)
O4 O 0.1710(12) -0.0858(6) 0.5584(6)
N1 N 0.2401(14) 0.3173(7) 0.2142(8)
N2 N -0.0244(15) 0.0943(7) 0.3164(9)
H3 H -0.1670 0.0581 0.3573
C1 C 0.4317(19) 0.3980(9) 0.1704(11)
H4 H 0.5262 0.4483 0.2339
C2 C 0.481(2) 0.4028(9) 0.0270(11)
H5 H 0.6075 0.4596 -0.0057
C3 C 0.3481(18) 0.3250(9) -0.0689(8)
H6 H 0.3929 0.3236 -0.1634
C4 C 0.1570(19) 0.2537(17) -0.0210(9)
H7 H 0.0544 0.2079 -0.0850
C5 C 0.1011(19) 0.2435(10) 0.1199(12)
C6 C -0.103(2) 0.1521(10) 0.1727(9)
H8 H -0.1279 0.0835 0.1049
H9 H -0.2695 0.1969 0.1814
C7 C 0.1816(16) -0.0045(9) 0.2939(11)
H10 H 0.3013 0.0241 0.2217
H11 H 0.1005 -0.0838 0.2625
Mn1A Mn 0.85527(19) -0.23943(12) 0.53899(11)
Mn1A_2 Mn -0.14473(19) -0.23943(12) 0.53899(11)
O3A O 0.3984(11) 0.3863(5) 0.5782(6)
O4A O -0.1710(12) 0.4142(6) 0.4416(6)
loop_
_geom_bond_atom_site_label_1
_geom_bond_atom_site_label_2
_geom_bond_site_symmetry_1
_geom_bond_site_symmetry_2
Mn1 O1 1_555 1_555
P1 O1 1_555 1_555
O2 Mn1 1_555 1_555
H1 O2 1_555 1_555
H2 O2 1_555 1_555
O3 P1 1_555 1_555
O4 P1 1_555 1_555
N1 Mn1 1_555 1_555
N2 Mn1 1_555 1_555
H3 N2 1_555 1_555
C1 N1 1_555 1_555
H4 C1 1_555 1_555
C2 C1 1_555 1_555
H5 C2 1_555 1_555
C3 C2 1_555 1_555
H6 C3 1_555 1_555
C4 C3 1_555 1_555
H7 C4 1_555 1_555
C5 N1 1_555 1_555
C6 N2 1_555 1_555
H8 C6 1_555 1_555
H9 C6 1_555 1_555
C7 P1 1_555 1_555
H10 C7 1_555 1_555
H11 C7 1_555 1_555
Mn1A O3 1_555 1_555
Mn1A_2 O4 1_555 1_555
O3A Mn1 1_555 1_555
O4A Mn1 1_555 1_555
N2 C7 1_555 1_555
C4 C5 1_555 1_555
C5 C6 1_555 1_555

#END
