
#######################################################################
#
#                 Cambridge Crystallographic Data Centre
#                                CCDC 
#
#######################################################################
#
# If this CIF has been generated from an entry in the Cambridge 
# Structural Database, then it will include bibliographic, chemical, 
# crystal, experimental, refinement or atomic coordinate data resulting 
# from the CCDC's data processing and validation procedures.
#
#######################################################################

data_TOMCUU
_symmetry_cell_setting           monoclinic
_symmetry_space_group_name_H-M   'P 21/n'
_symmetry_Int_Tables_number      14
_space_group_name_Hall           '-P 2yn'
loop_
_symmetry_equiv_pos_site_id
_symmetry_equiv_pos_as_xyz
1 x,y,z
2 1/2-x,1/2+y,1/2-z
3 -x,-y,-z
4 1/2+x,1/2-y,1/2+z
_cell_length_a                   14.5410(3)
_cell_length_b                   19.3159(5)
_cell_length_c                   14.9197(3)
_cell_angle_alpha                90
_cell_angle_beta                 94.1540(10)
_cell_angle_gamma                90
_cell_volume                     4179.52
loop_
_atom_site_label
_atom_site_type_symbol
_atom_site_fract_x
_atom_site_fract_y
_atom_site_fract_z
W1 W 0.350791(9) 0.743222(6) 0.385527(9)
C1 C 0.4138(2) 0.74763(17) 0.2588(2)
N1 N 0.44871(19) 0.75048(16) 0.19251(19)
C2 C 0.3164(2) 0.84155(18) 0.3241(2)
N2 N 0.2970(2) 0.89291(16) 0.2893(2)
C3 C 0.4971(2) 0.74710(17) 0.4169(2)
N3 N 0.5754(2) 0.74939(17) 0.4328(2)
C4 C 0.3840(3) 0.82242(19) 0.4845(3)
N4 N 0.4020(3) 0.86335(18) 0.5379(2)
C5 C 0.3595(3) 0.69219(19) 0.5146(3)
N5 N 0.3684(3) 0.6644(2) 0.5825(2)
C6 C 0.2245(2) 0.76634(17) 0.4455(2)
N6 N 0.1556(2) 0.77820(15) 0.47648(19)
N7 N 0.3809(2) 0.63269(14) 0.35813(19)
C7 C 0.4549(3) 0.59806(18) 0.3948(3)
H1 H 0.4991 0.6222 0.4307
C8 C 0.4675(3) 0.52802(19) 0.3810(3)
H2 H 0.5200 0.5057 0.4060
C9 C 0.4011(3) 0.4917(2) 0.3295(3)
H3 H 0.4071 0.4443 0.3210
C10 C 0.3261(3) 0.5266(2) 0.2913(3)
H4 H 0.2806 0.5030 0.2566
C11 C 0.3185(3) 0.59704(19) 0.3045(3)
C12 C 0.2426(3) 0.63842(19) 0.2616(2)
C13 C 0.1791(3) 0.6118(2) 0.1965(3)
H5 H 0.1836 0.5659 0.1785
C14 C 0.1102(3) 0.6527(2) 0.1587(3)
H6 H 0.0678 0.6353 0.1146
C15 C 0.1048(3) 0.7204(2) 0.1873(3)
H7 H 0.0582 0.7492 0.1630
C16 C 0.1693(2) 0.7452(2) 0.2523(2)
H8 H 0.1646 0.7908 0.2715
N8 N 0.2385(2) 0.70559(15) 0.28870(19)
Mn1 Mn 0.54611(3) 0.73751(3) 0.07941(3)
N9 N 0.6108(2) 0.66279(14) 0.15175(19)
C17 C 0.6952(3) 0.69031(19) 0.1997(3)
H9 H 0.7460 0.6883 0.1612
H10 H 0.7112 0.6627 0.2529
C18 C 0.6783(3) 0.76464(19) 0.2265(2)
H11 H 0.6376 0.7662 0.2753
H12 H 0.7360 0.7869 0.2464
N10 N 0.6352(2) 0.80029(14) 0.14618(18)
C19 C 0.6503(3) 0.86526(18) 0.1308(2)
C20 C 0.7070(3) 0.90898(19) 0.1983(3)
H13 H 0.6956 0.8945 0.2581
H14 H 0.6902 0.9568 0.1905
H15 H 0.7713 0.9034 0.1893
C21 C 0.6153(3) 0.89756(17) 0.0469(2)
C22 C 0.6574(3) 0.95997(19) 0.0192(3)
H16 H 0.7051 0.9792 0.0560
C23 C 0.6302(3) 0.99224(19) -0.0591(3)
H17 H 0.6593 1.0329 -0.0748
C24 C 0.5578(3) 0.96480(18) -0.1173(3)
C25 C 0.5292(3) 0.9957(2) -0.2002(3)
H18 H 0.5559 1.0371 -0.2166
C26 C 0.4629(3) 0.9657(2) -0.2570(3)
H19 H 0.4457 0.9864 -0.3119
C27 C 0.4207(3) 0.9041(2) -0.2329(3)
H20 H 0.3761 0.8837 -0.2723
C28 C 0.4447(3) 0.87340(18) -0.1515(2)
H21 H 0.4149 0.8332 -0.1352
C29 C 0.5138(2) 0.90235(17) -0.0928(2)
C30 C 0.5431(2) 0.86913(17) -0.0086(2)
O1 O 0.49720(16) 0.81273(11) 0.01163(16)
O2 O 0.46205(17) 0.67380(11) 0.02677(16)
C31 C 0.4438(3) 0.61102(17) 0.0547(2)
C32 C 0.3545(3) 0.58363(17) 0.0258(2)
C33 C 0.2866(3) 0.62530(18) -0.0209(2)
H22 H 0.3010 0.6705 -0.0362
C34 C 0.2001(3) 0.6000(2) -0.0437(3)
H23 H 0.1556 0.6285 -0.0724
C35 C 0.1787(3) 0.5312(2) -0.0236(3)
H24 H 0.1201 0.5140 -0.0396
C36 C 0.2434(3) 0.4893(2) 0.0192(3)
H25 H 0.2286 0.4435 0.0308
C37 C 0.3320(3) 0.51407(19) 0.0461(2)
C38 C 0.3997(3) 0.47251(19) 0.0947(3)
H26 H 0.3874 0.4261 0.1056
C39 C 0.4809(3) 0.50003(18) 0.1249(3)
H27 H 0.5229 0.4721 0.1580
C40 C 0.5058(3) 0.57011(18) 0.1084(2)
C41 C 0.5925(3) 0.59677(18) 0.1495(2)
C42 C 0.6621(3) 0.5460(2) 0.1926(3)
H28 H 0.7233 0.5632 0.1867
H29 H 0.6550 0.5019 0.1632
H30 H 0.6519 0.5409 0.2551
N6C N 0.6556(2) 0.72180(15) -0.02352(19)
Mn1C Mn 0.04611(3) 0.76249(3) 0.57941(3)
C43 C 0.0485(3) 0.1781(2) 0.6954(3)
H31 H 0.0653 0.2231 0.7184
H32 H 0.0035 0.1827 0.6455
H33 H 0.1022 0.1552 0.6759
O3 O 0.0116(2) 0.13898(16) 0.7629(2)
H34 H 0.0447 0.1426 0.8095
C44 C 0.2666(3) 0.8235(2) 1.0448(3)
H35 H 0.2340 0.7802 1.0421
H36 H 0.2682 0.8416 1.1048
H37 H 0.3284 0.8164 1.0281
C45 C 0.2200(3) 0.8722(2) 0.9833(3)
N11 N 0.1836(3) 0.9103(2) 0.9347(4)
loop_
_geom_bond_atom_site_label_1
_geom_bond_atom_site_label_2
_geom_bond_site_symmetry_1
_geom_bond_site_symmetry_2
W1 C1 1_555 1_555
C1 N1 1_555 1_555
N1 Mn1 1_555 1_555
C2 W1 1_555 1_555
N2 C2 1_555 1_555
C3 W1 1_555 1_555
N3 C3 1_555 1_555
C4 W1 1_555 1_555
N4 C4 1_555 1_555
C5 W1 1_555 1_555
N5 C5 1_555 1_555
C6 W1 1_555 1_555
N6 C6 1_555 1_555
N7 W1 1_555 1_555
C7 N7 1_555 1_555
H1 C7 1_555 1_555
C8 C7 1_555 1_555
H2 C8 1_555 1_555
C9 C8 1_555 1_555
H3 C9 1_555 1_555
C10 C9 1_555 1_555
H4 C10 1_555 1_555
C11 N7 1_555 1_555
C12 C11 1_555 1_555
C13 C12 1_555 1_555
H5 C13 1_555 1_555
C14 C13 1_555 1_555
H6 C14 1_555 1_555
C15 C14 1_555 1_555
H7 C15 1_555 1_555
C16 C15 1_555 1_555
H8 C16 1_555 1_555
N8 W1 1_555 1_555
Mn1 N9 1_555 1_555
N9 C17 1_555 1_555
C17 H9 1_555 1_555
H10 C17 1_555 1_555
C18 C17 1_555 1_555
H11 C18 1_555 1_555
H12 C18 1_555 1_555
N10 Mn1 1_555 1_555
C19 N10 1_555 1_555
C20 C19 1_555 1_555
H13 C20 1_555 1_555
H14 C20 1_555 1_555
H15 C20 1_555 1_555
C21 C19 1_555 1_555
C22 C21 1_555 1_555
H16 C22 1_555 1_555
C23 C22 1_555 1_555
H17 C23 1_555 1_555
C24 C23 1_555 1_555
C25 C24 1_555 1_555
H18 C25 1_555 1_555
C26 C25 1_555 1_555
H19 C26 1_555 1_555
C27 C26 1_555 1_555
H20 C27 1_555 1_555
C28 C27 1_555 1_555
H21 C28 1_555 1_555
C29 C24 1_555 1_555
C30 C21 1_555 1_555
O1 Mn1 1_555 1_555
O2 Mn1 1_555 1_555
C31 O2 1_555 1_555
C32 C31 1_555 1_555
C33 C32 1_555 1_555
H22 C33 1_555 1_555
C34 C33 1_555 1_555
H23 C34 1_555 1_555
C35 C34 1_555 1_555
H24 C35 1_555 1_555
C36 C35 1_555 1_555
H25 C36 1_555 1_555
C37 C32 1_555 1_555
C38 C37 1_555 1_555
H26 C38 1_555 1_555
C39 C38 1_555 1_555
H27 C39 1_555 1_555
C40 C31 1_555 1_555
C41 N9 1_555 1_555
C42 C41 1_555 1_555
H28 C42 1_555 1_555
H29 C42 1_555 1_555
H30 C42 1_555 1_555
C43 H31 1_555 1_555
H32 C43 1_555 1_555
H33 C43 1_555 1_555
O3 C43 1_555 1_555
H34 O3 1_555 1_555
C44 H35 1_555 1_555
H36 C44 1_555 1_555
H37 C44 1_555 1_555
C45 C44 1_555 1_555
N11 C45 1_555 1_555
N6C Mn1 1_555 1_555
Mn1C N6 1_555 1_555
C10 C11 1_555 1_555
C12 N8 1_555 1_555
C16 N8 1_555 1_555
C18 N10 1_555 1_555
C28 C29 1_555 1_555
C29 C30 1_555 1_555
C30 O1 1_555 1_555
C36 C37 1_555 1_555
C39 C40 1_555 1_555
C40 C41 1_555 1_555

#END
