
#######################################################################
#
#                 Cambridge Crystallographic Data Centre
#                                CCDC 
#
#######################################################################
#
# If this CIF has been generated from an entry in the Cambridge 
# Structural Database, then it will include bibliographic, chemical, 
# crystal, experimental, refinement or atomic coordinate data resulting 
# from the CCDC's data processing and validation procedures.
#
#######################################################################

data_TOMCII
_symmetry_cell_setting           orthorhombic
_symmetry_space_group_name_H-M   'P 21 21 21'
_symmetry_Int_Tables_number      19
_space_group_name_Hall           'P 2ac 2ab'
loop_
_symmetry_equiv_pos_site_id
_symmetry_equiv_pos_as_xyz
1 x,y,z
2 1/2-x,-y,1/2+z
3 -x,1/2+y,1/2-z
4 1/2+x,1/2-y,-z
_cell_length_a                   5.1070(12)
_cell_length_b                   10.461(3)
_cell_length_c                   18.714(5)
_cell_angle_alpha                90
_cell_angle_beta                 90
_cell_angle_gamma                90
_cell_volume                     999.783
loop_
_atom_site_label
_atom_site_type_symbol
_atom_site_fract_x
_atom_site_fract_y
_atom_site_fract_z
Cd1 Cd 0.15549(6) 0.03234(3) 0.769210(16)
P1 P 0.3560(2) 0.32683(10) 0.77311(6)
O1 O 0.4472(7) 0.1953(3) 0.74781(18)
O2 O -0.0947(7) 0.1425(4) 0.67790(17)
H1 H -0.0122 0.2090 0.6647
H2 H -0.2385 0.1627 0.6938
O3 O 0.5837(7) 0.4117(3) 0.79401(18)
O4 O 0.1661(7) 0.3857(3) 0.72008(16)
N1 N 0.2257(7) -0.0168(4) 0.8948(2)
N2 N -0.0249(7) 0.1971(4) 0.8417(2)
H3 H -0.1603 0.2338 0.8177
C1 C 0.3975(10) -0.1010(5) 0.9234(3)
H4 H 0.5100 -0.1451 0.8931
C2 C 0.4119(12) -0.1239(6) 0.9956(3)
H5 H 0.5348 -0.1808 1.0138
C3 C 0.2417(13) -0.0612(6) 1.0406(3)
H6 H 0.2450 -0.0766 1.0895
C4 C 0.0669(11) 0.0245(6) 1.0120(3)
H7 H -0.0486 0.0686 1.0415
C5 C 0.0643(9) 0.0448(5) 0.9390(2)
C6 C -0.1260(9) 0.1392(5) 0.9067(3)
H8 H -0.2891 0.0957 0.8960
H9 H -0.1631 0.2058 0.9413
C7 C 0.1755(10) 0.2948(4) 0.8548(2)
H10 H 0.2950 0.2654 0.8916
H11 H 0.0929 0.3728 0.8715
Cd1B Cd 0.84451(6) 0.53234(3) 0.730790(16)
Cd1B_2 Cd -0.15549(6) 0.53234(3) 0.730790(16)
O3B O 0.4163(7) -0.0883(3) 0.70599(18)
O4B O -0.1661(7) -0.1143(3) 0.77992(16)
loop_
_geom_bond_atom_site_label_1
_geom_bond_atom_site_label_2
_geom_bond_site_symmetry_1
_geom_bond_site_symmetry_2
Cd1 O1 1_555 1_555
P1 O1 1_555 1_555
O2 Cd1 1_555 1_555
H1 O2 1_555 1_555
H2 O2 1_555 1_555
O3 P1 1_555 1_555
O4 P1 1_555 1_555
N1 Cd1 1_555 1_555
N2 Cd1 1_555 1_555
H3 N2 1_555 1_555
C1 N1 1_555 1_555
H4 C1 1_555 1_555
C2 C1 1_555 1_555
H5 C2 1_555 1_555
C3 C2 1_555 1_555
H6 C3 1_555 1_555
C4 C3 1_555 1_555
H7 C4 1_555 1_555
C5 N1 1_555 1_555
C6 N2 1_555 1_555
H8 C6 1_555 1_555
H9 C6 1_555 1_555
C7 P1 1_555 1_555
H10 C7 1_555 1_555
H11 C7 1_555 1_555
Cd1B O3 1_555 1_555
Cd1B_2 O4 1_555 1_555
O3B Cd1 1_555 1_555
O4B Cd1 1_555 1_555
N2 C7 1_555 1_555
C4 C5 1_555 1_555
C5 C6 1_555 1_555

#END
