
#######################################################################
#
#                 Cambridge Crystallographic Data Centre
#                                CCDC 
#
#######################################################################
#
# If this CIF has been generated from an entry in the Cambridge 
# Structural Database, then it will include bibliographic, chemical, 
# crystal, experimental, refinement or atomic coordinate data resulting 
# from the CCDC's data processing and validation procedures.
#
#######################################################################

data_TOMDAB
_symmetry_cell_setting           monoclinic
_symmetry_space_group_name_H-M   'C 2/c'
_symmetry_Int_Tables_number      15
_space_group_name_Hall           '-C 2yn'
loop_
_symmetry_equiv_pos_site_id
_symmetry_equiv_pos_as_xyz
1 x,y,z
2 -x,y,1/2-z
3 1/2+x,1/2+y,z
4 1/2-x,1/2+y,1/2-z
5 -x,-y,-z
6 x,-y,1/2+z
7 1/2-x,1/2-y,-z
8 1/2+x,1/2-y,1/2+z
_cell_length_a                   39.3224(8)
_cell_length_b                   10.6638(2)
_cell_length_c                   22.0184(5)
_cell_angle_alpha                90
_cell_angle_beta                 121.6070(10)
_cell_angle_gamma                90
_cell_volume                     7863.31
loop_
_atom_site_label
_atom_site_type_symbol
_atom_site_fract_x
_atom_site_fract_y
_atom_site_fract_z
W1 W 0.137410(5) -0.481100(15) 0.451940(9)
Mn1 Mn 0.112360(18) -0.42731(6) 0.17406(3)
N1 N 0.10970(11) -0.4513(3) 0.2816(2)
N2 N 0.14506(10) -0.5804(3) 0.19781(17)
N3 N 0.07608(10) -0.4059(3) 0.40684(18)
N4 N 0.11460(12) -0.5802(4) 0.5686(2)
N5 N 0.14037(11) -0.2729(3) 0.44483(18)
N6 N 0.08405(13) -0.7334(4) 0.3743(2)
N7 N 0.19027(14) -0.7387(4) 0.5194(2)
N8 N 0.16506(10) -0.3472(3) 0.23151(18)
N9 N 0.21762(13) -0.4548(4) 0.4418(2)
N10 N 0.20980(14) -0.3938(5) 0.6115(2)
C1 C 0.03985(16) -0.9832(4) -0.0173(3)
H1 H 0.0139 -1.0038 -0.0530
C2 C 0.17147(13) -0.2352(4) 0.2581(2)
H2 H 0.1980 -0.2115 0.2880
C3 C 0.09398(12) -0.7149(4) 0.1082(2)
C4 C 0.10152(13) -0.1666(4) 0.1967(2)
C5 C 0.19506(17) -0.0001(4) 0.3382(3)
H3 H 0.2147 -0.0602 0.3498
C6 C 0.18697(12) -0.5601(4) 0.2567(2)
H4 H 0.1870 -0.5568 0.3012
C7 C 0.19838(12) -0.4322(4) 0.2449(2)
H5 H 0.1993 -0.4353 0.2013
C8 C 0.08671(12) -0.8348(4) 0.0719(2)
C9 C 0.01585(13) -0.7798(4) 0.0012(2)
H6 H -0.0101 -0.8000 -0.0345
C10 C 0.15508(15) -0.0259(4) 0.2843(2)
C11 C 0.04719(13) -0.8664(4) 0.0177(2)
C12 C 0.11669(15) -0.9230(4) 0.0875(3)
H7 H 0.1430 -0.9043 0.1224
C13 C 0.10830(16) -1.0360(5) 0.0529(3)
H8 H 0.1288 -1.0930 0.0651
C14 C 0.21736(12) -0.6587(4) 0.2663(2)
H9 H 0.2103 -0.7389 0.2776
H10 H 0.2171 -0.6680 0.2222
C15 C 0.02272(13) -0.6695(4) 0.0358(2)
H11 H 0.0014 -0.6161 0.0239
C16 C 0.25887(14) -0.6205(5) 0.3260(3)
H12 H 0.2599 -0.6223 0.3709
H13 H 0.2781 -0.6809 0.3289
C17 C 0.14210(14) -0.1450(4) 0.2462(2)
C18 C 0.13378(12) -0.6853(4) 0.1653(2)
H14 H 0.1530 -0.7480 0.1797
C19 C 0.23980(13) -0.3941(4) 0.3063(3)
H15 H 0.2396 -0.3868 0.3500
H16 H 0.2471 -0.3133 0.2962
C20 C 0.27015(15) -0.4938(5) 0.3152(3)
H17 H 0.2721 -0.4944 0.2730
H18 H 0.2962 -0.4723 0.3557
C21 C 0.12612(16) 0.0693(4) 0.2675(3)
C22 C 0.08598(17) 0.0424(4) 0.2170(3)
H19 H 0.0669 0.1039 0.2063
C23 C 0.07401(15) -0.0690(4) 0.1834(3)
H20 H 0.0470 -0.0821 0.1507
C24 C 0.20515(18) 0.1127(5) 0.3733(3)
H21 H 0.2315 0.1271 0.4095
C25 C 0.1769(2) 0.2054(5) 0.3560(3)
H22 H 0.1844 0.2819 0.3798
C26 C 0.06980(16) -1.0661(5) 0.0001(3)
H23 H 0.0644 -1.1427 -0.0234
C27 C 0.13817(19) 0.1845(4) 0.3041(3)
H24 H 0.1193 0.2473 0.2926
C28 C 0.10563(15) -0.2095(4) 0.4094(2)
C29 C 0.04396(15) -0.4744(5) 0.3934(3)
H25 H 0.0480 -0.5562 0.4106
C30 C 0.13977(19) -0.0151(5) 0.4303(3)
H26 H 0.1395 0.0716 0.4252
C31 C 0.17546(17) -0.0785(5) 0.4677(3)
H27 H 0.1995 -0.0350 0.4889
C32 C 0.06952(14) -0.2844(4) 0.3856(2)
C33 C 0.17515(15) -0.2067(4) 0.4733(3)
H28 H 0.1993 -0.2496 0.4972
C34 C 0.00562(16) -0.4292(6) 0.3558(3)
H29 H -0.0158 -0.4799 0.3467
C35 C 0.03102(15) -0.2363(5) 0.3470(3)
H30 H 0.0270 -0.1535 0.3314
C36 C -0.00049(16) -0.3089(6) 0.3320(3)
H31 H -0.0263 -0.2768 0.3055
C37 C 0.10475(17) -0.0804(5) 0.4008(3)
H32 H 0.0805 -0.0385 0.3750
C38 C 0.11800(12) -0.4605(4) 0.3394(2)
C39 C 0.18965(14) -0.4659(4) 0.4448(2)
C40 C 0.17219(15) -0.6483(4) 0.4962(2)
C41 C 0.10264(14) -0.6460(4) 0.4004(2)
C42 C 0.12184(13) -0.5448(4) 0.5278(2)
C43 C 0.18413(14) -0.4272(4) 0.5573(2)
O1 O 0.06550(8) -0.5241(3) 0.12085(16)
O2 O 0.08672(8) -0.2714(2) 0.16015(15)
C44 C 0.06178(12) -0.6336(4) 0.0897(2)
Mn1E Mn 0.112360(18) -0.57269(6) 0.67406(3)
N4E N 0.11460(12) -0.4198(4) 0.0686(2)
O3 O 0.0000 -0.808(3) 0.2500
O4? O 0.0000 -0.9358(13) 0.2500
loop_
_geom_bond_atom_site_label_1
_geom_bond_atom_site_label_2
_geom_bond_site_symmetry_1
_geom_bond_site_symmetry_2
W1 N3 1_555 1_555
Mn1 N1 1_555 1_555
N1 C38 1_555 1_555
N2 Mn1 1_555 1_555
N3 C29 1_555 1_555
N4 C42 1_555 1_555
N5 W1 1_555 1_555
N6 C41 1_555 1_555
N7 C40 1_555 1_555
N8 Mn1 1_555 1_555
N9 C39 1_555 1_555
N10 C43 1_555 1_555
C1 H1 1_555 1_555
C2 N8 1_555 1_555
H2 C2 1_555 1_555
C3 C8 1_555 1_555
C4 C17 1_555 1_555
C5 H3 1_555 1_555
C6 N2 1_555 1_555
H4 C6 1_555 1_555
C7 N8 1_555 1_555
H5 C7 1_555 1_555
C8 C11 1_555 1_555
C9 H6 1_555 1_555
C10 C5 1_555 1_555
C11 C1 1_555 1_555
C12 C8 1_555 1_555
H7 C12 1_555 1_555
C13 C12 1_555 1_555
H8 C13 1_555 1_555
C14 C6 1_555 1_555
H9 C14 1_555 1_555
H10 C14 1_555 1_555
C15 C9 1_555 1_555
H11 C15 1_555 1_555
C16 C14 1_555 1_555
H12 C16 1_555 1_555
H13 C16 1_555 1_555
C17 C2 1_555 1_555
C18 N2 1_555 1_555
H14 C18 1_555 1_555
C19 C7 1_555 1_555
H15 C19 1_555 1_555
H16 C19 1_555 1_555
C20 C16 1_555 1_555
H17 C20 1_555 1_555
H18 C20 1_555 1_555
C21 C10 1_555 1_555
C22 C21 1_555 1_555
H19 C22 1_555 1_555
C23 C4 1_555 1_555
H20 C23 1_555 1_555
C24 C5 1_555 1_555
H21 C24 1_555 1_555
C25 C24 1_555 1_555
H22 C25 1_555 1_555
C26 C1 1_555 1_555
H23 C26 1_555 1_555
C27 C21 1_555 1_555
H24 C27 1_555 1_555
C28 N5 1_555 1_555
C29 H25 1_555 1_555
C30 H26 1_555 1_555
C31 C30 1_555 1_555
H27 C31 1_555 1_555
C32 N3 1_555 1_555
C33 N5 1_555 1_555
H28 C33 1_555 1_555
C34 C29 1_555 1_555
H29 C34 1_555 1_555
C35 C32 1_555 1_555
H30 C35 1_555 1_555
C36 C34 1_555 1_555
H31 C36 1_555 1_555
C37 C28 1_555 1_555
H32 C37 1_555 1_555
C38 W1 1_555 1_555
C39 W1 1_555 1_555
C40 W1 1_555 1_555
C41 W1 1_555 1_555
C42 W1 1_555 1_555
C43 W1 1_555 1_555
O1 Mn1 1_555 1_555
O2 Mn1 1_555 1_555
C44 C3 1_555 1_555
Mn1E N4 1_555 1_555
N4E Mn1 1_555 1_555
C3 C18 1_555 1_555
C4 O2 1_555 1_555
C6 C7 1_555 1_555
C9 C11 1_555 1_555
C10 C17 1_555 1_555
C13 C26 1_555 1_555
C15 C44 1_555 1_555
C19 C20 1_555 1_555
C22 C23 1_555 1_555
C25 C27 1_555 1_555
C28 C32 1_555 1_555
C30 C37 1_555 1_555
C31 C33 1_555 1_555
C35 C36 1_555 1_555
O1 C44 1_555 1_555

#END
