
#######################################################################
#
#                 Cambridge Crystallographic Data Centre
#                                CCDC 
#
#######################################################################
#
# If this CIF has been generated from an entry in the Cambridge 
# Structural Database, then it will include bibliographic, chemical, 
# crystal, experimental, refinement or atomic coordinate data resulting 
# from the CCDC's data processing and validation procedures.
#
#######################################################################

data_TOMJIP
_symmetry_cell_setting           monoclinic
_symmetry_space_group_name_H-M   'C 2/c'
_symmetry_Int_Tables_number      15
_space_group_name_Hall           '-C 2yn'
loop_
_symmetry_equiv_pos_site_id
_symmetry_equiv_pos_as_xyz
1 x,y,z
2 -x,y,1/2-z
3 1/2+x,1/2+y,z
4 1/2-x,1/2+y,1/2-z
5 -x,-y,-z
6 x,-y,1/2+z
7 1/2-x,1/2-y,-z
8 1/2+x,1/2-y,1/2+z
_cell_length_a                   22.7458(14)
_cell_length_b                   16.6276(10)
_cell_length_c                   22.4826(15)
_cell_angle_alpha                90
_cell_angle_beta                 114.619(6)
_cell_angle_gamma                90
_cell_volume                     7730.15
loop_
_atom_site_label
_atom_site_type_symbol
_atom_site_fract_x
_atom_site_fract_y
_atom_site_fract_z
Nd1 Nd 0.386372(15) 0.84250(2) 0.486046(16)
S1 S 0.40507(13) 0.53690(14) 0.53239(14)
O1 O 0.3890(2) 0.6957(3) 0.4761(2)
O2 O 0.3512(2) 0.8082(3) 0.3729(2)
F1 F 0.3326(4) 0.6878(4) 0.2371(3)
F2 F 0.2661(3) 0.7778(4) 0.2432(2)
F3 F 0.3604(3) 0.8129(3) 0.2560(2)
C1 C 0.4235(6) 0.4400(6) 0.5267(8)
H1 H 0.4331 0.4018 0.5595
C2 C 0.4223(6) 0.4264(7) 0.4662(8)
H2 H 0.4284 0.3754 0.4528
C3 C 0.4107(5) 0.4966(6) 0.4238(6)
H3 H 0.4106 0.4981 0.3825
C4 C 0.3999(4) 0.5603(5) 0.4573(5)
C5 C 0.3846(4) 0.6467(5) 0.4333(4)
C6 C 0.3672(5) 0.6663(5) 0.3672(5)
H4 H 0.3660 0.6253 0.3386
C7 C 0.3523(4) 0.7414(6) 0.3435(4)
C8 C 0.3278(6) 0.7556(6) 0.2701(5)
S2 S 0.32388(10) 0.90812(15) 0.67280(9)
O3 O 0.34758(19) 0.9134(3) 0.55773(19)
O4 O 0.3182(2) 0.9571(3) 0.42968(19)
F4 F 0.2854(3) 1.1060(3) 0.3686(2)
F5 F 0.2040(3) 1.1096(4) 0.3926(2)
F6 F 0.2117(2) 1.0196(3) 0.3292(2)
C9 C 0.2888(4) 0.9524(6) 0.7166(4)
H5 H 0.2930 0.9339 0.7573
C10 C 0.2535(5) 1.0179(7) 0.6868(5)
H6 H 0.2307 1.0481 0.7049
C11 C 0.2544(4) 1.0368(5) 0.6248(4)
H7 H 0.2344 1.0805 0.5983
C12 C 0.2910(3) 0.9771(5) 0.6117(3)
C13 C 0.3059(3) 0.9664(4) 0.5533(3)
C14 C 0.2725(4) 1.0127(4) 0.4972(3)
H8 H 0.2424 1.0502 0.4977
C15 C 0.2825(4) 1.0047(4) 0.4419(3)
C16 C 0.2443(4) 1.0604(5) 0.3833(4)
S3 S 0.5515(2) 0.8059(2) 0.3898(2)
O5 O 0.4840(3) 0.8093(3) 0.4708(3)
O6 O 0.4730(2) 0.7944(3) 0.5881(2)
F7 F 0.6271(3) 0.7654(4) 0.7071(3)
F8 F 0.5453(3) 0.8043(5) 0.7163(3)
F9 F 0.5487(4) 0.6871(4) 0.6891(3)
C17 C 0.6271(6) 0.7988(7) 0.3877(7)
H9 H 0.6359 0.8062 0.3512
C18 C 0.6680(9) 0.7816(10) 0.4451(9)
H10 H 0.7104 0.7702 0.4519
C19 C 0.6523(5) 0.7796(6) 0.4952(6)
H11 H 0.6803 0.7703 0.5386
C20 C 0.5834(4) 0.7943(5) 0.4705(5)
C21 C 0.5427(5) 0.7963(4) 0.5056(5)
C22 C 0.5689(4) 0.7870(5) 0.5735(5)
H12 H 0.6136 0.7831 0.5961
C23 C 0.5326(4) 0.7835(4) 0.6078(4)
C24 C 0.5655(5) 0.7647(6) 0.6786(6)
N1 N 0.4729(2) 0.9600(3) 0.5583(2)
N2 N 0.5618(2) 1.0444(3) 0.5716(2)
N3 N 0.3338(2) 0.7491(3) 0.5558(2)
N4 N 0.2407(2) 0.6954(3) 0.5647(2)
C25 C 0.5094(3) 1.0008(4) 0.5360(3)
C26 C 0.4902(3) 0.9630(4) 0.6232(3)
H13 H 0.4647 0.9367 0.6405
C27 C 0.5433(3) 1.0033(4) 0.6641(3)
H14 H 0.5553 1.0038 0.7090
C28 C 0.5796(3) 1.0441(4) 0.6363(3)
H15 H 0.6168 1.0715 0.6634
C29 C 0.2710(3) 0.7347(4) 0.5330(3)
C30 C 0.3691(3) 0.7189(4) 0.6148(3)
H16 H 0.4136 0.7265 0.6322
C31 C 0.3445(3) 0.6778(4) 0.6512(3)
H17 H 0.3710 0.6569 0.6920
C32 C 0.2787(3) 0.6687(4) 0.6248(3)
H18 H 0.2598 0.6432 0.6493
Nd1D Nd 0.613628(15) 1.15750(2) 0.513954(16)
Nd1F Nd 0.113628(15) 0.65750(2) 0.513954(16)
S1D S 0.59493(13) 1.46310(14) 0.46761(14)
O1D O 0.6110(2) 1.3043(3) 0.5239(2)
O2D O 0.6488(2) 1.1918(3) 0.6271(2)
F1D F 0.6674(4) 1.3122(4) 0.7629(3)
F2D F 0.7339(3) 1.2222(4) 0.7568(2)
F3D F 0.6396(3) 1.1871(3) 0.7440(2)
C1D C 0.5765(6) 1.5600(6) 0.4733(8)
H1D H 0.5669 1.5982 0.4405
C2D C 0.5777(6) 1.5736(7) 0.5338(8)
H2D H 0.5716 1.6246 0.5472
C3D C 0.5893(5) 1.5034(6) 0.5762(6)
H3D H 0.5894 1.5019 0.6175
C4D C 0.6001(4) 1.4397(5) 0.5427(5)
C5D C 0.6154(4) 1.3533(5) 0.5667(4)
C6D C 0.6328(5) 1.3337(5) 0.6328(5)
H4D H 0.6340 1.3747 0.6614
C7D C 0.6477(4) 1.2586(6) 0.6565(4)
C8D C 0.6722(6) 1.2444(6) 0.7299(5)
S2D S 0.67612(10) 1.09188(15) 0.32720(9)
O3D O 0.65242(19) 1.0866(3) 0.44227(19)
O4D O 0.6818(2) 1.0429(3) 0.57032(19)
F4D F 0.7146(3) 0.8940(3) 0.6314(2)
F5D F 0.7960(3) 0.8904(4) 0.6074(2)
F6D F 0.7883(2) 0.9804(3) 0.6708(2)
C9D C 0.7112(4) 1.0476(6) 0.2834(4)
H5D H 0.7070 1.0661 0.2427
C10D C 0.7465(5) 0.9821(7) 0.3132(5)
H6D H 0.7693 0.9519 0.2951
C11D C 0.7456(4) 0.9632(5) 0.3752(4)
H7D H 0.7656 0.9195 0.4017
C12D C 0.7090(3) 1.0229(5) 0.3883(3)
C13D C 0.6941(3) 1.0336(4) 0.4467(3)
C14D C 0.7275(4) 0.9873(4) 0.5028(3)
H8D H 0.7576 0.9498 0.5023
C15D C 0.7175(4) 0.9953(4) 0.5581(3)
C16D C 0.7557(4) 0.9396(5) 0.6167(4)
S3D S 0.4485(2) 1.1941(2) 0.6102(2)
O5D O 0.5160(3) 1.1907(3) 0.5292(3)
O6D O 0.5270(2) 1.2056(3) 0.4119(2)
F7D F 0.3729(3) 1.2346(4) 0.2929(3)
F8D F 0.4547(3) 1.1957(5) 0.2837(3)
F9D F 0.4513(4) 1.3129(4) 0.3109(3)
C17D C 0.3729(6) 1.2012(7) 0.6123(7)
H9D H 0.3641 1.1938 0.6488
C18D C 0.3320(9) 1.2184(10) 0.5549(9)
H10D H 0.2896 1.2298 0.5481
C19D C 0.3477(5) 1.2204(6) 0.5048(6)
H11D H 0.3197 1.2297 0.4614
C20D C 0.4166(4) 1.2057(5) 0.5295(5)
C21D C 0.4573(5) 1.2037(4) 0.4944(5)
C22D C 0.4311(4) 1.2130(5) 0.4265(5)
H12D H 0.3864 1.2169 0.4039
C23D C 0.4674(4) 1.2165(4) 0.3922(4)
C24D C 0.4345(5) 1.2353(6) 0.3214(6)
N1D N 0.5271(2) 1.0400(3) 0.4417(2)
N2D N 0.4382(2) 0.9556(3) 0.4284(2)
N3F N 0.1662(2) 0.7509(3) 0.4442(2)
N3D N 0.6662(2) 1.2509(3) 0.4442(2)
N4F N 0.2593(2) 0.8046(3) 0.4353(2)
N4B N 0.7407(2) 1.1954(3) 0.5647(2)
C25D C 0.4906(3) 0.9992(4) 0.4640(3)
C26D C 0.5098(3) 1.0370(4) 0.3768(3)
H13D H 0.5353 1.0633 0.3595
C27D C 0.4567(3) 0.9967(4) 0.3359(3)
H14D H 0.4447 0.9962 0.2910
C28D C 0.4204(3) 0.9559(4) 0.3637(3)
H15D H 0.3832 0.9285 0.3366
C29F C 0.2290(3) 0.7653(4) 0.4670(3)
C30F C 0.1309(3) 0.7811(4) 0.3852(3)
H16F H 0.0864 0.7735 0.3678
C31F C 0.1555(3) 0.8222(4) 0.3488(3)
H17F H 0.1290 0.8431 0.3080
C32F C 0.2213(3) 0.8313(4) 0.3752(3)
H18F H 0.2402 0.8568 0.3507
loop_
_geom_bond_atom_site_label_1
_geom_bond_atom_site_label_2
_geom_bond_site_symmetry_1
_geom_bond_site_symmetry_2
Nd1 O1 1_555 1_555
S1 C1 1_555 1_555
O1 C5 1_555 1_555
O2 Nd1 1_555 1_555
F1 C8 1_555 1_555
F2 C8 1_555 1_555
F3 C8 1_555 1_555
C1 H1 1_555 1_555
C2 C1 1_555 1_555
H2 C2 1_555 1_555
C3 C2 1_555 1_555
H3 C3 1_555 1_555
C4 S1 1_555 1_555
C5 C4 1_555 1_555
C6 C5 1_555 1_555
H4 C6 1_555 1_555
C7 O2 1_555 1_555
C8 C7 1_555 1_555
S2 C9 1_555 1_555
O3 Nd1 1_555 1_555
O4 Nd1 1_555 1_555
F4 C16 1_555 1_555
F5 C16 1_555 1_555
F6 C16 1_555 1_555
C9 H5 1_555 1_555
C10 C9 1_555 1_555
H6 C10 1_555 1_555
C11 C10 1_555 1_555
H7 C11 1_555 1_555
C12 S2 1_555 1_555
C13 O3 1_555 1_555
C14 C13 1_555 1_555
H8 C14 1_555 1_555
C15 O4 1_555 1_555
C16 C15 1_555 1_555
S3 C17 1_555 1_555
O5 Nd1 1_555 1_555
O6 Nd1 1_555 1_555
F7 C24 1_555 1_555
F8 C24 1_555 1_555
F9 C24 1_555 1_555
C17 H9 1_555 1_555
C18 C17 1_555 1_555
H10 C18 1_555 1_555
C19 C18 1_555 1_555
H11 C19 1_555 1_555
C20 S3 1_555 1_555
C21 O5 1_555 1_555
C22 C21 1_555 1_555
H12 C22 1_555 1_555
C23 O6 1_555 1_555
C24 C23 1_555 1_555
N1 Nd1 1_555 1_555
N2 C25 1_555 1_555
N3 Nd1 1_555 1_555
N4 C29 1_555 1_555
C25 N1 1_555 1_555
C26 N1 1_555 1_555
H13 C26 1_555 1_555
C27 C26 1_555 1_555
H14 C27 1_555 1_555
C28 N2 1_555 1_555
H15 C28 1_555 1_555
C29 N3 1_555 1_555
C30 N3 1_555 1_555
H16 C30 1_555 1_555
C31 C30 1_555 1_555
H17 C31 1_555 1_555
C32 N4 1_555 1_555
H18 C32 1_555 1_555
Nd1D N2 1_555 1_555
Nd1F N4 1_555 1_555
S1D C1D 1_555 1_555
O1D Nd1D 1_555 1_555
O2D Nd1D 1_555 1_555
F1D C8D 1_555 1_555
F2D C8D 1_555 1_555
F3D C8D 1_555 1_555
C1D H1D 1_555 1_555
C2D C1D 1_555 1_555
H2D C2D 1_555 1_555
C3D C2D 1_555 1_555
H3D C3D 1_555 1_555
C4D S1D 1_555 1_555
C5D O1D 1_555 1_555
C6D C5D 1_555 1_555
H4D C6D 1_555 1_555
C7D O2D 1_555 1_555
C8D C7D 1_555 1_555
S2D C9D 1_555 1_555
O3D Nd1D 1_555 1_555
O4D Nd1D 1_555 1_555
F4D C16D 1_555 1_555
F5D C16D 1_555 1_555
F6D C16D 1_555 1_555
C9D H5D 1_555 1_555
C10D C9D 1_555 1_555
H6D C10D 1_555 1_555
C11D C10D 1_555 1_555
H7D C11D 1_555 1_555
C12D S2D 1_555 1_555
C13D O3D 1_555 1_555
C14D C13D 1_555 1_555
H8D C14D 1_555 1_555
C15D O4D 1_555 1_555
C16D C15D 1_555 1_555
S3D C17D 1_555 1_555
O5D Nd1D 1_555 1_555
O6D Nd1D 1_555 1_555
F7D C24D 1_555 1_555
F8D C24D 1_555 1_555
F9D C24D 1_555 1_555
C17D H9D 1_555 1_555
C18D C17D 1_555 1_555
H10D C18D 1_555 1_555
C19D C18D 1_555 1_555
H11D C19D 1_555 1_555
C20D S3D 1_555 1_555
C21D O5D 1_555 1_555
C22D C21D 1_555 1_555
H12D C22D 1_555 1_555
C23D O6D 1_555 1_555
C24D C23D 1_555 1_555
N1D Nd1D 1_555 1_555
N2D Nd1 1_555 1_555
N3F Nd1F 1_555 1_555
N3D Nd1D 1_555 1_555
N4F Nd1 1_555 1_555
N4B Nd1D 1_555 1_555
C25D C25 1_555 1_555
C26D N1D 1_555 1_555
H13D C26D 1_555 1_555
C27D C26D 1_555 1_555
H14D C27D 1_555 1_555
C28D N2D 1_555 1_555
H15D C28D 1_555 1_555
C29F C29 1_555 1_555
C30F N3F 1_555 1_555
H16F C30F 1_555 1_555
C31F C30F 1_555 1_555
H17F C31F 1_555 1_555
C32F N4F 1_555 1_555
H18F C32F 1_555 1_555
C3 C4 1_555 1_555
C6 C7 1_555 1_555
C11 C12 1_555 1_555
C12 C13 1_555 1_555
C14 C15 1_555 1_555
C19 C20 1_555 1_555
C20 C21 1_555 1_555
C22 C23 1_555 1_555
C27 C28 1_555 1_555
C31 C32 1_555 1_555
C3D C4D 1_555 1_555
C4D C5D 1_555 1_555
C6D C7D 1_555 1_555
C11D C12D 1_555 1_555
C12D C13D 1_555 1_555
C14D C15D 1_555 1_555
C19D C20D 1_555 1_555
C20D C21D 1_555 1_555
C22D C23D 1_555 1_555
N1D C25D 1_555 1_555
N2D C25D 1_555 1_555
N3F C29F 1_555 1_555
N4F C29F 1_555 1_555
C27D C28D 1_555 1_555
C31F C32F 1_555 1_555

#END
