
#######################################################################
#
#                 Cambridge Crystallographic Data Centre
#                                CCDC 
#
#######################################################################
#
# If this CIF has been generated from an entry in the Cambridge 
# Structural Database, then it will include bibliographic, chemical, 
# crystal, experimental, refinement or atomic coordinate data resulting 
# from the CCDC's data processing and validation procedures.
#
#######################################################################

data_TOMTIA
_symmetry_cell_setting           orthorhombic
_symmetry_space_group_name_H-M   'P b c a'
_symmetry_Int_Tables_number      61
_space_group_name_Hall           '-P 2ac 2ab'
loop_
_symmetry_equiv_pos_site_id
_symmetry_equiv_pos_as_xyz
1 x,y,z
2 1/2-x,-y,1/2+z
3 -x,1/2+y,1/2-z
4 1/2+x,1/2-y,-z
5 -x,-y,-z
6 1/2+x,y,1/2-z
7 x,1/2-y,1/2+z
8 1/2-x,1/2+y,z
_cell_length_a                   15.6072(11)
_cell_length_b                   10.7546(5)
_cell_length_c                   23.6570(15)
_cell_angle_alpha                90
_cell_angle_beta                 90
_cell_angle_gamma                90
_cell_volume                     3970.81
loop_
_atom_site_label
_atom_site_type_symbol
_atom_site_fract_x
_atom_site_fract_y
_atom_site_fract_z
Eu1 Eu 0.04431(5) 0.34066(6) 0.39659(2)
Te1 Te -0.03330(6) 0.79979(7) 0.38723(3)
Te2 Te 0.02946(6) 0.62737(8) 0.46371(3)
Te3 Te 0.09784(6) 0.87306(8) 0.31679(3)
N1 N -0.0442(8) 0.1813(9) 0.3307(4)
N2 N 0.0634(7) 0.4977(9) 0.3069(4)
N3 N 0.4356(7) 0.6161(10) 0.4483(4)
N4 N 0.2066(7) 0.3959(11) 0.4332(4)
N5 N 0.1630(7) 0.2342(10) 0.3237(4)
N6 N -0.1150(7) 0.4307(9) 0.3699(4)
C1 C 0.1733(9) 0.3960(11) 0.2477(5)
H1 H 0.235 0.392 0.2435
H2 H 0.1496 0.4165 0.2109
C2 C -0.1921(10) 0.3558(13) 0.3875(5)
H3 H -0.1891 0.3399 0.4278
H4 H -0.2435 0.4042 0.3804
C3 C 0.3448(9) 0.5868(11) 0.4586(5)
H5 H 0.3192 0.6552 0.4794
H6 H 0.3157 0.5811 0.4225
C4 C 0.2369(9) 0.4246(12) 0.4907(5)
H7 H 0.2318 0.3509 0.5141
H8 H 0.2009 0.4888 0.5069
C5 C -0.1989(9) 0.2343(13) 0.3568(5)
H9 H -0.2056 0.2505 0.3167
H10 H -0.2498 0.191 0.3696
C6 C 0.1407(10) 0.2645(12) 0.2645(4)
H11 H 0.0789 0.2611 0.2599
H12 H 0.1658 0.2031 0.2395
C7 C 0.1525(9) 0.5006(12) 0.2876(4)
H13 H 0.1901 0.4956 0.3202
H14 H 0.1633 0.5792 0.2689
C8 C -0.1205(9) 0.1498(12) 0.3657(5)
H15 H -0.1042 0.1534 0.4052
H16 H -0.1372 0.0648 0.3575
C9 C 0.3292(9) 0.4682(12) 0.4910(5)
H17 H 0.3471 0.4804 0.5299
H18 H 0.3648 0.4031 0.475
Te1D Te 0.03330(6) 0.20021(7) 0.61277(3)
Te2D Te -0.02946(6) 0.37263(8) 0.53629(3)
Te3D Te -0.09784(6) 0.12694(8) 0.68321(3)
Eu1D Eu -0.04431(5) 0.65934(6) 0.60341(2)
N1D N 0.0442(8) 0.8187(9) 0.6693(4)
N2D N -0.0634(7) 0.5023(9) 0.6931(4)
N3D N -0.4356(7) 0.3839(10) 0.5517(4)
N4D N -0.2066(7) 0.6041(11) 0.5668(4)
N5D N -0.1630(7) 0.7658(10) 0.6763(4)
N6D N 0.1150(7) 0.5693(9) 0.6301(4)
C1D C -0.1733(9) 0.6040(11) 0.7523(5)
H1D H -0.235 0.608 0.7565
H2D H -0.1496 0.5835 0.7891
C2D C 0.1921(10) 0.6442(13) 0.6125(5)
H3D H 0.1891 0.6601 0.5722
H4D H 0.2435 0.5958 0.6196
C3D C -0.3448(9) 0.4132(11) 0.5414(5)
H5D H -0.3192 0.3448 0.5206
H6D H -0.3157 0.4189 0.5775
C4D C -0.2369(9) 0.5754(12) 0.5093(5)
H7D H -0.2318 0.6491 0.4859
H8D H -0.2009 0.5112 0.4931
C5D C 0.1989(9) 0.7657(13) 0.6432(5)
H9D H 0.2056 0.7495 0.6833
H10D H 0.2498 0.809 0.6304
C6D C -0.1407(10) 0.7355(12) 0.7355(4)
H11D H -0.0789 0.7389 0.7401
H12D H -0.1658 0.7969 0.7605
C7D C -0.1525(9) 0.4994(12) 0.7124(4)
H13D H -0.1901 0.5044 0.6798
H14D H -0.1633 0.4208 0.7311
C8D C 0.1205(9) 0.8502(12) 0.6343(5)
H15D H 0.1042 0.8466 0.5948
H16D H 0.1372 0.9352 0.6425
C9D C -0.3292(9) 0.5318(12) 0.5090(5)
H17D H -0.3471 0.5196 0.4701
H18D H -0.3648 0.5969 0.525
Eu1C Eu -0.45569(5) 0.15934(6) 0.60341(2)
Eu1G Eu 0.45569(5) 0.84066(6) 0.39659(2)
N3C N -0.0644(7) 0.8839(10) 0.5517(4)
N3G N 0.0644(7) 0.1161(10) 0.4483(4)
loop_
_geom_bond_atom_site_label_1
_geom_bond_atom_site_label_2
_geom_bond_site_symmetry_1
_geom_bond_site_symmetry_2
Eu1 Te2 1_555 1_555
Te1 Te2 1_555 1_555
Te2 Eu1D 1_555 1_555
Te3 Te1 1_555 1_555
N1 Eu1 1_555 1_555
N2 Eu1 1_555 1_555
N3 C3 1_555 1_555
N4 Eu1 1_555 1_555
N5 Eu1 1_555 1_555
N6 Eu1 1_555 1_555
C1 H1 1_555 1_555
H2 C1 1_555 1_555
C2 N6 1_555 1_555
H3 C2 1_555 1_555
H4 C2 1_555 1_555
C3 H5 1_555 1_555
H6 C3 1_555 1_555
C4 N4 1_555 1_555
H7 C4 1_555 1_555
H8 C4 1_555 1_555
C5 C2 1_555 1_555
H9 C5 1_555 1_555
H10 C5 1_555 1_555
C6 N5 1_555 1_555
H11 C6 1_555 1_555
H12 C6 1_555 1_555
C7 N2 1_555 1_555
H13 C7 1_555 1_555
H14 C7 1_555 1_555
C8 N1 1_555 1_555
H15 C8 1_555 1_555
H16 C8 1_555 1_555
C9 C3 1_555 1_555
H17 C9 1_555 1_555
H18 C9 1_555 1_555
Te1D Te2D 1_555 1_555
Te2D Eu1 1_555 1_555
Te3D Te1D 1_555 1_555
Eu1D Te2D 1_555 1_555
N1D Eu1D 1_555 1_555
N2D Eu1D 1_555 1_555
N3D C3D 1_555 1_555
N4D Eu1D 1_555 1_555
N5D Eu1D 1_555 1_555
N6D Eu1D 1_555 1_555
C1D H1D 1_555 1_555
H2D C1D 1_555 1_555
C2D N6D 1_555 1_555
H3D C2D 1_555 1_555
H4D C2D 1_555 1_555
C3D H5D 1_555 1_555
H6D C3D 1_555 1_555
C4D N4D 1_555 1_555
H7D C4D 1_555 1_555
H8D C4D 1_555 1_555
C5D C2D 1_555 1_555
H9D C5D 1_555 1_555
H10D C5D 1_555 1_555
C6D N5D 1_555 1_555
H11D C6D 1_555 1_555
H12D C6D 1_555 1_555
C7D N2D 1_555 1_555
H13D C7D 1_555 1_555
H14D C7D 1_555 1_555
C8D N1D 1_555 1_555
H15D C8D 1_555 1_555
H16D C8D 1_555 1_555
C9D C3D 1_555 1_555
H17D C9D 1_555 1_555
H18D C9D 1_555 1_555
Eu1C N3D 1_555 1_555
Eu1G N3 1_555 1_555
N3C Eu1D 1_555 1_555
N3G Eu1 1_555 1_555
C1 C6 1_555 1_555
C1 C7 1_555 1_555
C4 C9 1_555 1_555
C5 C8 1_555 1_555
C1D C6D 1_555 1_555
C1D C7D 1_555 1_555
C4D C9D 1_555 1_555
C5D C8D 1_555 1_555

#END
