
#######################################################################
#
#                 Cambridge Crystallographic Data Centre
#                                CCDC 
#
#######################################################################
#
# If this CIF has been generated from an entry in the Cambridge 
# Structural Database, then it will include bibliographic, chemical, 
# crystal, experimental, refinement or atomic coordinate data resulting 
# from the CCDC's data processing and validation procedures.
#
#######################################################################

data_TONBOO
_symmetry_cell_setting           monoclinic
_symmetry_space_group_name_H-M   'P 21/n'
_symmetry_Int_Tables_number      14
_space_group_name_Hall           '-P 2yn'
loop_
_symmetry_equiv_pos_site_id
_symmetry_equiv_pos_as_xyz
1 x,y,z
2 1/2-x,1/2+y,1/2-z
3 -x,-y,-z
4 1/2+x,1/2-y,1/2+z
_cell_length_a                   11.3972(2)
_cell_length_b                   18.9914(4)
_cell_length_c                   11.8255(2)
_cell_angle_alpha                90
_cell_angle_beta                 118.0382(7)
_cell_angle_gamma                90
_cell_volume                     2259.2
loop_
_atom_site_label
_atom_site_type_symbol
_atom_site_fract_x
_atom_site_fract_y
_atom_site_fract_z
Co1 Co 0.5000 0.5000 0.5000
O1 O 0.69502(16) 0.48563(9) 0.65659(17)
Co2 Co 0.68371(3) 0.494322(17) 0.83204(3)
O2 O 0.57457(16) 0.58388(9) 0.80500(17)
C1 C 0.4824(2) 0.60430(12) 0.6988(2)
O3 O 0.45694(17) 0.58075(9) 0.59015(17)
C2 C 0.3940(2) 0.66278(12) 0.7002(2)
C3 C 0.4014(2) 0.68558(13) 0.8131(2)
C4 C 0.3196(2) 0.74089(13) 0.8163(2)
C5 C 0.2262(2) 0.77173(13) 0.6994(2)
C6 C 0.2196(2) 0.74673(13) 0.5835(2)
C7 C 0.3006(2) 0.69435(13) 0.5839(2)
C8 C 0.1436(2) 0.82629(13) 0.7027(3)
C9 C 0.1531(2) 0.85066(13) 0.8160(2)
C10 C 0.0616(2) 0.90720(13) 0.8183(2)
O4 O -0.02188(17) 0.93226(9) 0.71088(17)
O5 O 0.07310(17) 0.92327(9) 0.92548(17)
C11 C 0.2487(2) 0.82029(14) 0.9320(3)
C12 C 0.3284(3) 0.76705(14) 0.9328(3)
O6 O 0.79777(17) 0.39680(9) 0.88271(18)
C13 C 0.7569(3) 0.34506(14) 0.8102(3)
N1 N 0.8159(2) 0.28285(12) 0.8367(2)
C14 C 0.9388(3) 0.27271(16) 0.9551(3)
C15 C 0.7663(3) 0.22541(17) 0.7455(3)
O7 O 0.84695(17) 0.54887(10) 0.81115(18)
C16 C 0.8043(2) 0.52043(13) 0.7037(3)
C17 C 0.8851(2) 0.52357(13) 0.6341(2)
C18 C 0.8619(2) 0.47803(14) 0.5372(3)
C19 C 0.9460(2) 0.47611(14) 0.4781(3)
C20 C 0.9257(2) 0.42795(14) 0.3788(3)
C21 C 0.9934(2) 0.57161(14) 0.6768(3)
N2 N 0.7796(2) 0.50661(11) 1.0327(2)
C22 C 0.6829(3) 0.49858(17) 1.0829(3)
C23 C 0.8554(3) 0.57311(15) 1.0774(3)
H1 H 0.4617 0.6646 0.8885
H2 H 0.1610 0.7665 0.5052
H3 H 0.2954 0.6788 0.5074
H4 H 0.0817 0.8470 0.6269
H5 H 0.2586 0.8369 1.0082
H6 H 0.3873 0.7475 1.0093
H7 H 0.6767 0.3481 0.7290
H8 H 0.9493 0.2246 0.9856
H9 H 1.0141 0.2850 0.9392
H10 H 0.9383 0.3032 1.0206
H11 H 0.7596 0.1833 0.7889
H12 H 0.8264 0.2173 0.7121
H13 H 0.6799 0.2387 0.6731
H14 H 0.7923 0.4472 0.5087
H15 H 0.8555 0.3958 0.3509
H16 H 1.0079 0.6036 0.7421
H17 H 0.8387 0.4693 1.0645
H18 H 0.6462 0.4509 1.0617
H19 H 0.7277 0.5041 1.1772
H20 H 0.6158 0.5348 1.0440
H21 H 0.9279 0.5720 1.0541
H22 H 0.8914 0.5751 1.1695
H23 H 0.7911 0.6114 1.0356
Co1A Co 0.0000 1.0000 1.0000
Co1_2 Co 1.5000 0.5000 0.5000
Co1A_2 Co 1.0000 0.0000 0.0000
O1B O 1.30498(16) 0.51437(9) 0.34341(17)
O1B_2 O 0.30498(16) 0.51437(9) 0.34341(17)
Co2B Co 1.31629(3) 0.505678(17) 0.16796(3)
Co2A Co -0.18371(3) 0.994322(17) 0.66796(3)
Co2B_2 Co 0.31629(3) 0.505678(17) 0.16796(3)
Co2C Co 1.18371(3) 0.005678(17) 0.33204(3)
O2B O 0.42543(16) 0.41612(9) 0.19500(17)
O2B_2 O 1.42543(16) 0.41612(9) 0.19500(17)
C1B C 0.5176(2) 0.39570(12) 0.3012(2)
O3B O 0.54306(17) 0.41925(9) 0.40985(17)
C2B C 0.6060(2) 0.33722(12) 0.2998(2)
C3B C 0.5986(2) 0.31442(13) 0.1869(2)
C4B C 0.6804(2) 0.25911(13) 0.1837(2)
C5B C 0.7738(2) 0.22827(13) 0.3006(2)
C6B C 0.7804(2) 0.25327(13) 0.4165(2)
C7B C 0.6994(2) 0.30565(13) 0.4161(2)
C8B C 0.8564(2) 0.17371(13) 0.2973(3)
C9B C 0.8469(2) 0.14934(13) 0.1840(2)
C10B C 0.9384(2) 0.09280(13) 0.1817(2)
O4B O 1.02188(17) 0.06774(9) 0.28912(17)
O4A O 0.52188(17) 0.43226(9) 0.78912(17)
O4C O 1.47812(17) 0.56774(9) 0.21088(17)
O5B O 0.92690(17) 0.07673(9) 0.07452(17)
O5A O 0.42690(17) 0.42327(9) 0.57452(17)
O5C O 0.57310(17) 0.57673(9) 0.42548(17)
C11B C 0.7513(2) 0.17971(14) 0.0680(3)
C12B C 0.6716(3) 0.23295(14) 0.0672(3)
O6B O 1.20223(17) 0.60320(9) 0.11729(18)
C13B C 1.2431(3) 0.65494(14) 0.1898(3)
N1B N 1.1841(2) 0.71715(12) 0.1633(2)
C14B C 1.0612(3) 0.72729(16) 0.0449(3)
C15B C 1.2337(3) 0.77459(17) 0.2545(3)
O7B O 1.15305(17) 0.45113(10) 0.18885(18)
C16B C 1.1957(2) 0.47957(13) 0.2963(3)
C17B C 1.1149(2) 0.47643(13) 0.3659(2)
C18B C 1.1381(2) 0.52197(14) 0.4628(3)
C19B C 1.0540(2) 0.52389(14) 0.5219(3)
C20B C 1.0743(2) 0.57205(14) 0.6212(3)
C21B C 1.0066(2) 0.42839(14) 0.3232(3)
N2B N 1.2204(2) 0.49339(11) -0.0327(2)
C22B C 1.3171(3) 0.50142(17) -0.0829(3)
C23B C 1.1446(3) 0.42689(15) -0.0774(3)
H1B H 0.5383 0.3354 0.1115
H2B H 0.8390 0.2335 0.4948
H3B H 0.7046 0.3212 0.4926
H4B H 0.9183 0.1530 0.3731
H5B H 0.7414 0.1631 -0.0082
H6B H 0.6127 0.2525 -0.0093
H7B H 1.3233 0.6519 0.2710
H8B H 1.0507 0.7754 0.0144
H9B H 0.9859 0.7150 0.0608
H10B H 1.0617 0.6968 -0.0206
H11B H 1.2404 0.8167 0.2111
H12B H 1.1736 0.7827 0.2879
H13B H 1.3201 0.7613 0.3269
H14B H 1.2077 0.5528 0.4913
H15B H 1.1445 0.6042 0.6491
H16B H 0.9921 0.3964 0.2579
H17B H 1.1613 0.5307 -0.0645
H18B H 1.3538 0.5491 -0.0617
H19B H 1.2723 0.4959 -0.1772
H20B H 1.3842 0.4652 -0.0440
H21B H 1.0721 0.4280 -0.0541
H22B H 1.1086 0.4249 -0.1695
H23B H 1.2089 0.3886 -0.0356
loop_
_geom_bond_atom_site_label_1
_geom_bond_atom_site_label_2
_geom_bond_site_symmetry_1
_geom_bond_site_symmetry_2
Co1 O1 1_555 1_555
O1 Co2 1_555 1_555
Co2 O2 1_555 1_555
O2 C1 1_555 1_555
C1 O3 1_555 1_555
O3 Co1 1_555 1_555
C2 C1 1_555 1_555
C3 C2 1_555 1_555
C4 C3 1_555 1_555
C5 C4 1_555 1_555
C6 C5 1_555 1_555
C7 C2 1_555 1_555
C8 C5 1_555 1_555
C9 C8 1_555 1_555
C10 C9 1_555 1_555
O4 C10 1_555 1_555
O5 C10 1_555 1_555
C11 C9 1_555 1_555
C12 C4 1_555 1_555
O6 Co2 1_555 1_555
C13 O6 1_555 1_555
N1 C13 1_555 1_555
C14 N1 1_555 1_555
C15 N1 1_555 1_555
O7 Co2 1_555 1_555
C16 O1 1_555 1_555
C17 C16 1_555 1_555
C18 C17 1_555 1_555
C19 C18 1_555 1_555
C20 C19 1_555 1_555
C21 C17 1_555 1_555
N2 Co2 1_555 1_555
C22 N2 1_555 1_555
C23 N2 1_555 1_555
H1 C3 1_555 1_555
H2 C6 1_555 1_555
H3 C7 1_555 1_555
H4 C8 1_555 1_555
H5 C11 1_555 1_555
H6 C12 1_555 1_555
H7 C13 1_555 1_555
H8 C14 1_555 1_555
H9 C14 1_555 1_555
H10 C14 1_555 1_555
H11 C15 1_555 1_555
H12 C15 1_555 1_555
H13 C15 1_555 1_555
H14 C18 1_555 1_555
H15 C20 1_555 1_555
H16 C21 1_555 1_555
H17 N2 1_555 1_555
H18 C22 1_555 1_555
H19 C22 1_555 1_555
H20 C22 1_555 1_555
H21 C23 1_555 1_555
H22 C23 1_555 1_555
H23 C23 1_555 1_555
Co1A O5 1_555 1_555
Co1_2 O1B 1_555 1_555
Co1A_2 O5B 1_555 1_555
O1B Co2B 1_555 1_555
O1B_2 Co1 1_555 1_555
Co2B O2B_2 1_555 1_555
Co2A O4 1_555 1_555
Co2B_2 O1B_2 1_555 1_555
Co2C O4B 1_555 1_555
O2B Co2B_2 1_555 1_555
C1B O2B 1_555 1_555
O3B Co1 1_555 1_555
C2B C1B 1_555 1_555
C3B C2B 1_555 1_555
C4B C3B 1_555 1_555
C5B C4B 1_555 1_555
C6B C5B 1_555 1_555
C7B C2B 1_555 1_555
C8B C5B 1_555 1_555
C9B C8B 1_555 1_555
C10B C9B 1_555 1_555
O4B C10B 1_555 1_555
O4A Co2 1_555 1_555
O4C Co2B 1_555 1_555
O5B C10B 1_555 1_555
O5A Co1 1_555 1_555
O5C Co1 1_555 1_555
C11B C9B 1_555 1_555
C12B C4B 1_555 1_555
O6B Co2B 1_555 1_555
C13B O6B 1_555 1_555
N1B C13B 1_555 1_555
C14B N1B 1_555 1_555
C15B N1B 1_555 1_555
O7B Co2B 1_555 1_555
C16B O1B 1_555 1_555
C17B C16B 1_555 1_555
C18B C17B 1_555 1_555
C19B C19 1_555 1_555
C20B C21 1_555 1_555
C21B C20 1_555 1_555
N2B Co2B 1_555 1_555
C22B N2B 1_555 1_555
C23B N2B 1_555 1_555
H1B C3B 1_555 1_555
H2B C6B 1_555 1_555
H3B C7B 1_555 1_555
H4B C8B 1_555 1_555
H5B C11B 1_555 1_555
H6B C12B 1_555 1_555
H7B C13B 1_555 1_555
H8B C14B 1_555 1_555
H9B C14B 1_555 1_555
H10B C14B 1_555 1_555
H11B C15B 1_555 1_555
H12B C15B 1_555 1_555
H13B C15B 1_555 1_555
H14B C18B 1_555 1_555
H15B C20B 1_555 1_555
H16B C21B 1_555 1_555
H17B N2B 1_555 1_555
H18B C22B 1_555 1_555
H19B C22B 1_555 1_555
H20B C22B 1_555 1_555
H21B C23B 1_555 1_555
H22B C23B 1_555 1_555
H23B C23B 1_555 1_555
C6 C7 1_555 1_555
C11 C12 1_555 1_555
O7 C16 1_555 1_555
C1B O3B 1_555 1_555
C6B C7B 1_555 1_555
C11B C12B 1_555 1_555
O7B C16B 1_555 1_555
C17B C21B 1_555 1_555
C18B C19B 1_555 1_555
C19B C20B 1_555 1_555

#END
