
#######################################################################
#
#                 Cambridge Crystallographic Data Centre
#                                CCDC 
#
#######################################################################
#
# If this CIF has been generated from an entry in the Cambridge 
# Structural Database, then it will include bibliographic, chemical, 
# crystal, experimental, refinement or atomic coordinate data resulting 
# from the CCDC's data processing and validation procedures.
#
#######################################################################

data_TONBUU
_symmetry_cell_setting           monoclinic
_symmetry_space_group_name_H-M   'P 21/n'
_symmetry_Int_Tables_number      14
_space_group_name_Hall           '-P 2yn'
loop_
_symmetry_equiv_pos_site_id
_symmetry_equiv_pos_as_xyz
1 x,y,z
2 1/2-x,1/2+y,1/2-z
3 -x,-y,-z
4 1/2+x,1/2-y,1/2+z
_cell_length_a                   17.8669(6)
_cell_length_b                   14.1157(6)
_cell_length_c                   19.8394(7)
_cell_angle_alpha                90
_cell_angle_beta                 91.256(3)
_cell_angle_gamma                90
_cell_volume                     5002.37
loop_
_atom_site_label
_atom_site_type_symbol
_atom_site_fract_x
_atom_site_fract_y
_atom_site_fract_z
Ni1 Ni 0.24806(5) 0.05190(6) 0.42907(4)
O1 O 0.2616(3) 0.0102(3) 0.3319(2)
C1 C 0.2581(4) -0.0667(5) 0.3026(4)
O2 O 0.2430(3) -0.1484(3) 0.3269(2)
Ni2 Ni 0.20257(5) -0.18403(6) 0.41592(4)
O3 O 0.2633(3) -0.0854(3) 0.4666(2)
C2 C 0.3184(4) -0.1425(5) 0.4806(3)
O4 O 0.3154(3) -0.2255(3) 0.4569(2)
C3 C 0.3820(4) -0.1084(5) 0.5233(3)
C4 C 0.3676(4) -0.0333(5) 0.5685(4)
C5 C 0.4248(4) 0.0078(6) 0.6067(4)
C6 C 0.4977(4) -0.0259(6) 0.5984(4)
C7 C 0.5119(4) -0.0990(5) 0.5534(4)
C8 C 0.4539(4) -0.1410(5) 0.5159(4)
C9 C 0.5935(4) -0.1228(5) 0.5380(4)
O5 O 0.6419(3) -0.0734(3) 0.5676(2)
O6 O 0.6040(3) -0.1882(4) 0.4955(2)
Ni3 Ni 0.69737(5) -0.20592(7) 0.44362(5)
O7 O 0.2369(3) 0.0938(3) 0.5305(2)
C10 C 0.1841(4) 0.1142(5) 0.5705(4)
O8 O 0.1883(3) 0.1873(3) 0.6057(3)
C11 C 0.1216(4) 0.0440(5) 0.5760(3)
C12 C 0.0483(4) 0.0735(5) 0.5897(3)
C13 C -0.0095(4) 0.0061(5) 0.5869(3)
C14 C 0.0072(4) -0.0893(5) 0.5739(3)
C15 C 0.0799(4) -0.1176(5) 0.5635(3)
C16 C 0.1376(4) -0.0508(5) 0.5640(4)
C17 C 0.0951(4) -0.2198(5) 0.5456(4)
O9 O 0.1596(3) -0.2348(3) 0.5159(2)
O10 O 0.0506(3) -0.2814(4) 0.5578(3)
C18 C -0.0911(4) 0.0352(5) 0.5893(3)
O11 O -0.1032(3) 0.1229(3) 0.5993(2)
O12 O -0.1374(3) -0.0291(3) 0.5815(2)
O13 O 0.2512(3) -0.2201(3) 0.0161(2)
C19 C 0.2651(4) -0.2364(5) 0.0785(4)
O14 O 0.2694(3) -0.3145(3) 0.1080(2)
C20 C 0.2768(4) -0.1474(5) 0.1216(3)
C21 C 0.2928(4) -0.0623(5) 0.0887(4)
C22 C 0.3000(4) 0.0196(5) 0.1267(4)
C23 C 0.2907(4) 0.0183(5) 0.1952(4)
C24 C 0.2738(4) -0.0664(5) 0.2273(3)
C25 C 0.2672(4) -0.1490(5) 0.1891(4)
C26 C 0.3156(4) 0.1111(5) 0.0897(4)
O15 O 0.3212(3) 0.1864(3) 0.1227(2)
O16 O 0.3203(3) 0.1049(3) 0.0252(2)
O17 O 0.3489(3) 0.1396(4) 0.6397(2)
C27 C 0.4085(5) 0.0909(6) 0.6521(4)
O18 O 0.4538(4) 0.1088(6) 0.6983(4)
O19 O 0.6619(3) -0.3355(4) 0.4074(3)
C28 C 0.6371(5) -0.3914(6) 0.4497(5)
N1 N 0.6334(5) -0.4838(5) 0.4439(4)
C29 C 0.6040(6) -0.5446(8) 0.4953(5)
C30 C 0.6636(8) -0.5299(9) 0.3849(7)
H1 H 0.3181 -0.0101 0.5725
H2 H 0.5384 0.0017 0.6236
H3 H 0.4634 -0.1920 0.4851
H4 H 0.0379 0.1371 0.6006
H5 H -0.0319 -0.1351 0.5728
H6 H 0.1873 -0.0710 0.5563
H7 H 0.2970 -0.0603 0.0412
H8 H 0.2960 0.0745 0.2207
H9 H 0.2548 -0.2062 0.2108
H10 H 0.6361 -0.6008 0.5012
H11 H 0.5529 -0.5665 0.4820
H12 H 0.6011 -0.5105 0.5387
H13 H 0.6397 -0.5907 0.3763
H14 H 0.6560 -0.4903 0.3451
H15 H 0.7172 -0.5415 0.3904
H35 H 0.6200 -0.3653 0.4907
Ni1B Ni 0.75194(5) -0.05190(6) 0.57093(4)
Ni1B_2 Ni -0.24806(5) -0.05190(6) 0.57093(4)
Ni1A Ni 0.25194(5) -0.44810(6) 0.07093(4)
Ni2B Ni -0.20257(5) 0.18403(6) 0.58408(4)
Ni2A Ni 0.29743(5) 0.31597(6) 0.08408(4)
O5B O 0.3581(3) 0.0734(3) 0.4324(2)
Ni3B Ni 0.30263(5) 0.20592(7) 0.55638(5)
Ni3C Ni 0.19737(5) -0.29408(7) -0.05638(5)
O7B O 0.7631(3) -0.0938(3) 0.4695(2)
O8B O 0.8117(3) -0.1873(3) 0.3943(3)
O11B O 0.1032(3) -0.1229(3) 0.4007(2)
O12B O 0.1374(3) 0.0291(3) 0.4185(2)
O13C O 0.7512(3) -0.2799(3) 0.5161(2)
O14A O 0.2306(3) 0.1855(3) 0.3920(2)
O15A O 0.1788(3) -0.3136(3) 0.3773(2)
O17B O 0.6511(3) -0.1396(4) 0.3603(2)
N2 N 0.0626(4) 0.1714(6) 0.2247(4)
C31 C 0.1026(9) 0.2208(10) 0.1737(6)
C32 C -0.0106(7) 0.1331(10) 0.2001(9)
C33 C 0.1092(8) 0.0932(10) 0.2527(6)
C34 C 0.0481(8) 0.2407(12) 0.2824(7)
H16 H 0.1535 0.2332 0.1894
H17 H 0.0776 0.2797 0.1636
H18 H 0.1038 0.1813 0.1338
H19 H -0.0406 0.1102 0.2369
H20 H -0.0368 0.1813 0.1756
H21 H -0.0015 0.0793 0.1696
H22 H 0.0789 0.0543 0.2815
H23 H 0.1507 0.1196 0.2803
H24 H 0.1288 0.0574 0.2167
H25 H 0.0214 0.2108 0.3179
H26 H 0.0949 0.2659 0.2995
H27 H 0.0179 0.2937 0.2647
C35 C 0.0964(5) 0.7046(7) 0.2135(5)
N3 N 0.0588(5) 0.7914(6) 0.1983(4)
C36 C 0.0696(7) 0.8372(9) 0.1412(6)
O20 O 0.0404(5) 0.9149(6) 0.1252(4)
C37 C 0.0072(8) 0.8278(10) 0.2484(6)
H28 H 0.1203 0.7078 0.2613
H29 H 0.1374 0.6936 0.1784
H30 H 0.0584 0.6491 0.2112
H31 H 0.1030 0.8100 0.1082
H32 H -0.0124 0.8904 0.2355
H33 H 0.0316 0.8337 0.2917
H34 H -0.0361 0.7857 0.2529
loop_
_geom_bond_atom_site_label_1
_geom_bond_atom_site_label_2
_geom_bond_site_symmetry_1
_geom_bond_site_symmetry_2
Ni1 O1 1_555 1_555
O1 C1 1_555 1_555
C1 O2 1_555 1_555
O2 Ni2 1_555 1_555
Ni2 O3 1_555 1_555
O3 Ni1 1_555 1_555
C2 O3 1_555 1_555
O4 Ni2 1_555 1_555
C3 C2 1_555 1_555
C4 C3 1_555 1_555
C5 C4 1_555 1_555
C6 C5 1_555 1_555
C7 C6 1_555 1_555
C8 C3 1_555 1_555
C9 C7 1_555 1_555
O5 C9 1_555 1_555
O6 C9 1_555 1_555
Ni3 O6 1_555 1_555
O7 Ni1 1_555 1_555
C10 O7 1_555 1_555
O8 C10 1_555 1_555
C11 C10 1_555 1_555
C12 C11 1_555 1_555
C13 C12 1_555 1_555
C14 C13 1_555 1_555
C15 C14 1_555 1_555
C16 C11 1_555 1_555
C17 C15 1_555 1_555
O9 Ni2 1_555 1_555
O10 C17 1_555 1_555
C18 C13 1_555 1_555
O11 C18 1_555 1_555
O12 C18 1_555 1_555
O13 C19 1_555 1_555
C19 O14 1_555 1_555
O14 Ni1A 1_555 1_555
C20 C19 1_555 1_555
C21 C20 1_555 1_555
C22 C21 1_555 1_555
C23 C22 1_555 1_555
C24 C1 1_555 1_555
C25 C20 1_555 1_555
C26 C22 1_555 1_555
O15 C26 1_555 1_555
O16 C26 1_555 1_555
O17 C27 1_555 1_555
C27 C5 1_555 1_555
O18 C27 1_555 1_555
O19 Ni3 1_555 1_555
C28 O19 1_555 1_555
N1 C28 1_555 1_555
C29 N1 1_555 1_555
C30 N1 1_555 1_555
N2 C31 1_555 1_555
C31 H16 1_555 1_555
C32 N2 1_555 1_555
C33 N2 1_555 1_555
C34 N2 1_555 1_555
C35 N3 1_555 1_555
N3 C36 1_555 1_555
C36 O20 1_555 1_555
C37 N3 1_555 1_555
H1 C4 1_555 1_555
H2 C6 1_555 1_555
H3 C8 1_555 1_555
H4 C12 1_555 1_555
H5 C14 1_555 1_555
H6 C16 1_555 1_555
H7 C21 1_555 1_555
H8 C23 1_555 1_555
H9 C25 1_555 1_555
H10 C29 1_555 1_555
H11 C29 1_555 1_555
H12 C29 1_555 1_555
H13 C30 1_555 1_555
H14 C30 1_555 1_555
H15 C30 1_555 1_555
H17 C31 1_555 1_555
H18 C31 1_555 1_555
H19 C32 1_555 1_555
H20 C32 1_555 1_555
H21 C32 1_555 1_555
H22 C33 1_555 1_555
H23 C33 1_555 1_555
H24 C33 1_555 1_555
H25 C34 1_555 1_555
H26 C34 1_555 1_555
H27 C34 1_555 1_555
H28 C35 1_555 1_555
H29 C35 1_555 1_555
H30 C35 1_555 1_555
H31 C36 1_555 1_555
H32 C37 1_555 1_555
H33 C37 1_555 1_555
H34 C37 1_555 1_555
H35 C28 1_555 1_555
Ni1B O5 1_555 1_555
Ni1B_2 O12 1_555 1_555
Ni2B O11 1_555 1_555
Ni2A O15 1_555 1_555
O5B Ni1 1_555 1_555
Ni3B O7 1_555 1_555
Ni3C O13 1_555 1_555
O7B Ni3 1_555 1_555
O8B Ni3 1_555 1_555
O11B Ni2 1_555 1_555
O12B Ni1 1_555 1_555
O13C Ni3 1_555 1_555
O14A Ni1 1_555 1_555
O15A Ni2 1_555 1_555
O17B Ni3 1_555 1_555
C2 O4 1_555 1_555
C7 C8 1_555 1_555
O8 Ni3B 1_555 1_555
C15 C16 1_555 1_555
C17 O9 1_555 1_555
C23 C24 1_555 1_555
C24 C25 1_555 1_555
O17 Ni3B 1_555 1_555
Ni1B O7B 1_555 1_555

#END
