
#######################################################################
#
#                 Cambridge Crystallographic Data Centre
#                                CCDC 
#
#######################################################################
#
# If this CIF has been generated from an entry in the Cambridge 
# Structural Database, then it will include bibliographic, chemical, 
# crystal, experimental, refinement or atomic coordinate data resulting 
# from the CCDC's data processing and validation procedures.
#
#######################################################################

data_TONDOR
_symmetry_cell_setting           monoclinic
_symmetry_space_group_name_H-M   'P 21/c'
_symmetry_Int_Tables_number      14
_space_group_name_Hall           '-P 2ybc'
loop_
_symmetry_equiv_pos_site_id
_symmetry_equiv_pos_as_xyz
1 x,y,z
2 -x,1/2+y,1/2-z
3 -x,-y,-z
4 x,1/2-y,1/2+z
_cell_length_a                   13.095(5)
_cell_length_b                   13.001(5)
_cell_length_c                   13.439(5)
_cell_angle_alpha                90
_cell_angle_beta                 106.17(1)
_cell_angle_gamma                90
_cell_volume                     2197.45
loop_
_atom_site_label
_atom_site_type_symbol
_atom_site_fract_x
_atom_site_fract_y
_atom_site_fract_z
Cu1 Cu 0.40066(5) 0.95863(4) 0.02355(4)
Cu2 Cu 0.38229(5) 0.50513(5) -0.05649(4)
O1 O 0.4465(3) 1.0598(2) -0.0623(3)
O2 O 0.4841(3) 0.5537(3) 0.0668(3)
C1 C 0.0768(4) 1.0371(4) -0.0778(4)
H1 H 0.0041 1.0241 -0.0982
N1 N 0.2596(3) 0.5551(3) -0.0093(3)
N2 N 0.3872(3) 0.6135(3) -0.3490(3)
N3 N 0.3772(4) 0.8200(3) -0.0886(3)
N4 N 0.2970(3) 0.4301(3) -0.1770(3)
C2 C 0.3840(4) 0.7457(4) -0.1310(4)
C3 C 0.3891(4) 0.6380(4) -0.2665(4)
C4 C 0.1688(4) 0.5723(4) 0.1080(4)
N5 N 0.3919(4) 0.6536(3) -0.1701(3)
N6 N 0.2322(3) 1.1136(3) -0.0470(3)
N7 N 0.2641(3) 0.5518(3) 0.0940(3)
C5 C 0.1574(4) 0.9664(4) -0.0354(4)
C6 C 0.1258(4) 1.1297(4) -0.0837(4)
C7 C 0.1012(4) 0.5938(4) 0.0111(4)
H2 H 0.0299 0.6122 -0.0040
C8 C 0.3633(4) 0.5221(4) 0.1702(4)
H3 H 0.3764 0.4496 0.1625
H4 H 0.3561 0.5327 0.2394
C9 C 0.0798(4) 1.2324(4) -0.1226(4)
H5 H 0.1363 1.2812 -0.1160
H6 H 0.0336 1.2551 -0.0827
H7 H 0.0401 1.2266 -0.1942
N8 N 0.2531(3) 1.0118(3) -0.0162(3)
C10 C 0.3194(4) 1.1851(4) -0.0332(4)
H8 H 0.3587 1.1876 0.0395
H9 H 0.2915 1.2533 -0.0537
C11 C 0.1464(4) 0.8557(4) -0.0113(5)
H10 H 0.2156 0.8262 0.0170
H11 H 0.1103 0.8198 -0.0737
H12 H 0.1061 0.8497 0.0381
C12 C 0.1221(5) 0.5990(5) -0.1736(4)
H13 H 0.1792 0.5862 -0.2038
H14 H 0.0982 0.6688 -0.1874
H15 H 0.0644 0.5529 -0.2029
N9 N 0.1755(5) 0.1705(4) -0.3803(5)
C13 C 0.2422(5) 0.3883(4) -0.2457(4)
C14 C 0.1605(4) 0.5825(4) -0.0589(4)
N10 N 0.1723(4) 0.3511(4) -0.3271(4)
C15 C 0.1482(5) 0.5696(5) 0.2114(4)
H16 H 0.2126 0.5522 0.2633
H17 H 0.0948 0.5190 0.2111
H18 H 0.1240 0.6360 0.2265
C16 C 0.1791(5) 0.2540(4) -0.3520(4)
C17 C 0.3943(4) 1.1543(4) -0.0969(4)
H19 H 0.4471 1.2079 -0.0919
H20 H 0.3542 1.1479 -0.1691
C18 C 0.4565(4) 0.5837(4) 0.1576(4)
H21 H 0.4386 0.6563 0.1534
H22 H 0.5170 0.5734 0.2176
Cu1B Cu 0.59934(5) 1.04137(4) -0.02355(4)
Cu1C Cu 0.40066(5) 0.54137(4) -0.47645(4)
Cu2B Cu 0.61771(5) 0.49487(5) 0.05649(4)
O1B O 0.5535(3) 0.9402(2) 0.0623(3)
O2B O 0.5159(3) 0.4463(3) -0.0668(3)
N2C N 0.3872(3) 0.8865(3) 0.1510(3)
loop_
_geom_bond_atom_site_label_1
_geom_bond_atom_site_label_2
_geom_bond_site_symmetry_1
_geom_bond_site_symmetry_2
Cu1 O1 1_555 1_555
Cu2 O2 1_555 1_555
O1 C17 1_555 1_555
O2 C18 1_555 1_555
C1 H1 1_555 1_555
N1 Cu2 1_555 1_555
N2 C3 1_555 1_555
N3 Cu1 1_555 1_555
N4 Cu2 1_555 1_555
C2 N3 1_555 1_555
C3 N5 1_555 1_555
C4 N7 1_555 1_555
N5 Cu2 1_555 1_555
N6 C6 1_555 1_555
N7 N1 1_555 1_555
C5 C1 1_555 1_555
C6 C1 1_555 1_555
C7 C4 1_555 1_555
H2 C7 1_555 1_555
C8 N7 1_555 1_555
H3 C8 1_555 1_555
H4 C8 1_555 1_555
C9 C6 1_555 1_555
H5 C9 1_555 1_555
H6 C9 1_555 1_555
H7 C9 1_555 1_555
N8 Cu1 1_555 1_555
C10 N6 1_555 1_555
H8 C10 1_555 1_555
H9 C10 1_555 1_555
C11 C5 1_555 1_555
H10 C11 1_555 1_555
H11 C11 1_555 1_555
H12 C11 1_555 1_555
C12 H13 1_555 1_555
H14 C12 1_555 1_555
H15 C12 1_555 1_555
N9 C16 1_555 1_555
C13 N4 1_555 1_555
C14 N1 1_555 1_555
N10 C13 1_555 1_555
C15 C4 1_555 1_555
H16 C15 1_555 1_555
H17 C15 1_555 1_555
H18 C15 1_555 1_555
C16 N10 1_555 1_555
C17 C10 1_555 1_555
H19 C17 1_555 1_555
H20 C17 1_555 1_555
C18 C8 1_555 1_555
H21 C18 1_555 1_555
H22 C18 1_555 1_555
Cu1B O1 1_555 1_555
Cu1C N2 1_555 1_555
Cu2B O2 1_555 1_555
O1B Cu1 1_555 1_555
O2B Cu2 1_555 1_555
N2C Cu1 1_555 1_555
C2 N5 1_555 1_555
N6 N8 1_555 1_555
C5 N8 1_555 1_555
C7 C14 1_555 1_555
C12 C14 1_555 1_555
Cu1B O1B 1_555 1_555
Cu2B O2B 1_555 1_555

#END
