
#######################################################################
#
#                 Cambridge Crystallographic Data Centre
#                                CCDC 
#
#######################################################################
#
# If this CIF has been generated from an entry in the Cambridge 
# Structural Database, then it will include bibliographic, chemical, 
# crystal, experimental, refinement or atomic coordinate data resulting 
# from the CCDC's data processing and validation procedures.
#
#######################################################################

data_TONDEH
_symmetry_cell_setting           monoclinic
_symmetry_space_group_name_H-M   'P 21/n'
_symmetry_Int_Tables_number      14
_space_group_name_Hall           '-P 2yn'
loop_
_symmetry_equiv_pos_site_id
_symmetry_equiv_pos_as_xyz
1 x,y,z
2 1/2-x,1/2+y,1/2-z
3 -x,-y,-z
4 1/2+x,1/2-y,1/2+z
_cell_length_a                   9.2753(6)
_cell_length_b                   22.6255(17)
_cell_length_c                   13.3340(8)
_cell_angle_alpha                90
_cell_angle_beta                 110.287(2)
_cell_angle_gamma                90
_cell_volume                     2624.67
loop_
_atom_site_label
_atom_site_type_symbol
_atom_site_fract_x
_atom_site_fract_y
_atom_site_fract_z
Cu1 Cu 0.55915(9) 0.05632(4) 0.82591(7)
Cu2 Cu 0.83531(9) 0.11318(4) 0.96860(7)
Cl1 Cl 0.3856(2) 0.16783(9) 0.60070(16)
C1 C 0.8366(8) 0.0587(3) 0.7585(6)
H1 H 0.9056 0.0266 0.7954
C2 C 0.9326(8) 0.1091(3) 0.7369(6)
H2 H 0.8657 0.1423 0.7065
H3 H 1.0076 0.1219 0.8043
C3 C 1.0158(9) 0.0914(4) 0.6615(7)
H4 H 1.0901 0.0606 0.6944
H5 H 1.0710 0.1252 0.6482
C4 C 0.9022(10) 0.0689(4) 0.5558(6)
H6 H 0.8345 0.1008 0.5193
H7 H 0.9578 0.0555 0.5103
C5 C 0.8087(9) 0.0188(3) 0.5750(6)
H8 H 0.8756 -0.0146 0.6039
H9 H 0.7330 0.0068 0.5074
C6 C 0.7270(8) 0.0357(3) 0.6519(5)
H10 H 0.6550 0.0676 0.6185
C7 C 0.6158(9) -0.0685(3) 0.6210(6)
H11 H 0.6636 -0.0824 0.5748
C8 C 0.5121(10) -0.0991(4) 0.6542(7)
H12 H 0.4759 -0.1374 0.6355
C9 C 0.4740(9) -0.0613(3) 0.7205(6)
H13 H 0.4059 -0.0702 0.7556
C10 C 0.5271(7) 0.1442(3) 0.9882(5)
H14 H 0.4932 0.1135 1.0268
C11 C 0.3865(7) 0.1748(3) 0.9100(5)
H15 H 0.4200 0.2031 0.8680
H16 H 0.3230 0.1455 0.8614
C12 C 0.2905(8) 0.2066(3) 0.9648(6)
H17 H 0.2053 0.2265 0.9116
H18 H 0.2486 0.1782 1.0018
C13 C 0.3868(9) 0.2512(3) 1.0435(7)
H19 H 0.3252 0.2695 1.0807
H20 H 0.4192 0.2819 1.0052
C14 C 0.5279(8) 0.2229(3) 1.1246(6)
H21 H 0.4959 0.1954 1.1687
H22 H 0.5905 0.2532 1.1709
C15 C 0.6236(7) 0.1899(3) 1.0686(5)
H23 H 0.6602 0.2192 1.0288
C16 C 0.8074(9) 0.1658(3) 1.2550(6)
H24 H 0.7542 0.1833 1.2950
C17 C 0.9485(9) 0.1389(4) 1.2954(6)
H25 H 1.0081 0.1337 1.3670
C18 C 0.9829(9) 0.1216(4) 1.2086(6)
H26 H 1.0735 0.1027 1.2120
C19 C 0.7710(12) 0.2370(4) 0.8279(7)
H27 H 0.8055 0.2762 0.8205
H28 H 0.6726 0.2390 0.8366
H29 H 0.7622 0.2144 0.7652
C20 C 0.3154(7) 0.0223(3) 0.9216(6)
C21 C 0.1374(8) 0.0493(3) 0.9931(6)
N1 N 0.5471(6) -0.0095(2) 0.7286(5)
N2 N 0.6353(6) -0.0151(2) 0.6674(4)
N3 N 0.8687(6) 0.1353(3) 1.1173(5)
N4 N 0.7598(6) 0.1627(2) 1.1485(4)
N5 N 0.2419(7) 0.0125(3) 0.9865(5)
N6 N 0.3874(7) 0.0265(3) 0.8655(5)
N7 N 0.0434(6) 0.0794(3) 1.0041(5)
O1 O 0.7575(5) 0.0794(2) 0.8246(3)
O2 O 0.6157(5) 0.1178(2) 0.9323(4)
O3 O 0.8809(6) 0.2089(2) 0.9208(5)
H30 H 0.9277 0.2280 0.9776
O4 O 0.5033(8) 0.1816(3) 0.5582(6)
O5 O 0.4128(7) 0.1124(3) 0.6530(5)
O6 O 0.3809(9) 0.2128(3) 0.6733(5)
O7 O 0.2406(7) 0.1652(3) 0.5148(5)
Cu2_2 Cu -0.16469(9) 0.11318(4) 0.96860(7)
N7_2 N 1.0434(6) 0.0794(3) 1.0041(5)
loop_
_geom_bond_atom_site_label_1
_geom_bond_atom_site_label_2
_geom_bond_site_symmetry_1
_geom_bond_site_symmetry_2
Cu1 N1 1_555 1_555
Cu2 N3 1_555 1_555
Cl1 O4 1_555 1_555
C1 H1 1_555 1_555
C2 C1 1_555 1_555
H2 C2 1_555 1_555
H3 C2 1_555 1_555
C3 C2 1_555 1_555
H4 C3 1_555 1_555
H5 C3 1_555 1_555
C4 C3 1_555 1_555
H6 C4 1_555 1_555
H7 C4 1_555 1_555
C5 C4 1_555 1_555
H8 C5 1_555 1_555
H9 C5 1_555 1_555
C6 C1 1_555 1_555
H10 C6 1_555 1_555
C7 H11 1_555 1_555
C8 C7 1_555 1_555
H12 C8 1_555 1_555
C9 C8 1_555 1_555
H13 C9 1_555 1_555
C10 H14 1_555 1_555
C11 C10 1_555 1_555
H15 C11 1_555 1_555
H16 C11 1_555 1_555
C12 C11 1_555 1_555
H17 C12 1_555 1_555
H18 C12 1_555 1_555
C13 C12 1_555 1_555
H19 C13 1_555 1_555
H20 C13 1_555 1_555
C14 C13 1_555 1_555
H21 C14 1_555 1_555
H22 C14 1_555 1_555
C15 C10 1_555 1_555
H23 C15 1_555 1_555
C16 H24 1_555 1_555
C17 C16 1_555 1_555
H25 C17 1_555 1_555
C18 C17 1_555 1_555
H26 C18 1_555 1_555
C19 H27 1_555 1_555
H28 C19 1_555 1_555
H29 C19 1_555 1_555
C20 N5 1_555 1_555
C21 N5 1_555 1_555
N1 C9 1_555 1_555
N2 C6 1_555 1_555
N3 C18 1_555 1_555
N4 C15 1_555 1_555
N6 Cu1 1_555 1_555
N7 C21 1_555 1_555
O1 Cu1 1_555 1_555
O2 Cu1 1_555 1_555
O3 Cu2 1_555 1_555
H30 O3 1_555 1_555
O5 Cu1 1_555 1_555
O6 Cl1 1_555 1_555
O7 Cl1 1_555 1_555
Cu2_2 N7 1_555 1_555
N7_2 Cu2 1_555 1_555
Cu2 O1 1_555 1_555
Cu2 O2 1_555 1_555
Cl1 O5 1_555 1_555
C1 O1 1_555 1_555
C5 C6 1_555 1_555
C7 N2 1_555 1_555
C10 O2 1_555 1_555
C14 C15 1_555 1_555
C16 N4 1_555 1_555
C19 O3 1_555 1_555
C20 N6 1_555 1_555
N1 N2 1_555 1_555
N3 N4 1_555 1_555

#END
