
#######################################################################
#
#                 Cambridge Crystallographic Data Centre
#                                CCDC 
#
#######################################################################
#
# If this CIF has been generated from an entry in the Cambridge 
# Structural Database, then it will include bibliographic, chemical, 
# crystal, experimental, refinement or atomic coordinate data resulting 
# from the CCDC's data processing and validation procedures.
#
#######################################################################

data_TONFOS
_symmetry_cell_setting           triclinic
_symmetry_space_group_name_H-M   'P -1'
_symmetry_Int_Tables_number      2
_space_group_name_Hall           '-P 1'
loop_
_symmetry_equiv_pos_site_id
_symmetry_equiv_pos_as_xyz
1 x,y,z
2 -x,-y,-z
_cell_length_a                   10.3930(5)
_cell_length_b                   11.0290(5)
_cell_length_c                   12.0990(5)
_cell_angle_alpha                110.625(1)
_cell_angle_beta                 105.671(1)
_cell_angle_gamma                93.457(1)
_cell_volume                     1230.97
loop_
_atom_site_label
_atom_site_type_symbol
_atom_site_fract_x
_atom_site_fract_y
_atom_site_fract_z
Cd1 Cd 0.69744(2) 0.47669(2) 0.092072(19)
O1 O 0.3565(2) 0.1164(2) 0.4976(2)
O2 O 0.2395(3) 0.2861(2) 0.4780(2)
O3 O 0.5349(2) 0.5222(2) 0.1836(2)
N1 N 0.7712(3) 0.3489(2) 0.2158(2)
C1 C 0.3741(3) 0.4102(3) 0.2359(3)
O4 O -0.1578(3) -0.3408(3) 0.2307(2)
C2 C 0.4173(3) 0.4592(3) 0.1485(3)
C3 C 0.7328(3) 0.2180(3) 0.1584(3)
N2 N 0.5969(3) 0.2557(3) -0.0204(3)
C4 C 0.0649(3) -0.2216(3) 0.3103(3)
C5 C 0.2542(3) 0.0079(3) 0.4376(3)
N3 N 0.6388(3) 0.0528(3) -0.0665(3)
C6 C 0.1174(3) 0.0142(3) 0.4128(3)
H1 H 0.0885 0.0949 0.4382
C7 C 0.1971(3) 0.3462(4) 0.3070(3)
H2 H 0.1057 0.3343 0.3009
C8 C 0.6579(3) 0.1742(3) 0.0248(3)
O5 O 0.3304(3) 0.4338(3) 0.0459(3)
C9 C 0.4676(3) 0.3846(3) 0.3273(3)
H3 H 0.5594 0.3997 0.3356
C10 C 0.8303(3) 0.4012(3) 0.3391(3)
H4 H 0.8563 0.4920 0.3783
C11 C 0.8590(4) -0.0258(3) -0.0287(3)
C12 C 0.7559(4) 0.1365(3) 0.2238(3)
H5 H 0.7306 0.0458 0.1828
C13 C 0.3218(4) 0.2380(3) 0.5597(3)
H6 H 0.4042 0.3019 0.6092
H7 H 0.2747 0.2278 0.6158
C14 C 0.2914(3) 0.3225(3) 0.3983(3)
C15 C 0.8545(4) 0.3261(4) 0.4107(3)
H8 H 0.8946 0.3651 0.4964
C16 C 0.0240(3) -0.1016(3) 0.3495(3)
H9 H -0.0682 -0.0981 0.3331
C17 C 0.2963(3) -0.1119(3) 0.4011(4)
H10 H 0.3884 -0.1159 0.4198
C18 C 0.2379(3) 0.3876(3) 0.2245(3)
H11 H 0.1736 0.4004 0.1612
C19 C 0.4274(3) 0.3372(3) 0.4063(3)
H12 H 0.4905 0.3155 0.4641
C20 C 0.9192(4) 0.0621(4) -0.0652(3)
H13 H 0.8654 0.1044 -0.1095
C21 C 0.2024(4) -0.2252(3) 0.3371(4)
H14 H 0.2315 -0.3057 0.3113
C22 C 0.7072(4) -0.0597(3) -0.0629(4)
H15 H 0.6731 -0.1313 -0.1438
H16 H 0.6853 -0.0900 -0.0029
C23 C 0.5352(4) 0.1846(4) -0.1451(3)
H17 H 0.4834 0.2167 -0.2009
C24 C 0.5615(4) 0.0613(4) -0.1740(3)
H18 H 0.5324 -0.0059 -0.2525
C25 C 0.8173(4) 0.1920(4) 0.3512(3)
H19 H 0.8334 0.1386 0.3965
C26 C -0.0381(4) -0.3460(4) 0.2384(4)
C27 C 0.9419(4) -0.0878(4) 0.0370(3)
H20 H 0.9032 -0.1475 0.0622
O6 O 0.0018(6) -0.4464(4) 0.1896(8)
O7 O 0.8691(6) 0.3800(5) -0.0025(5)
H21 H 0.884(6) 0.429(5) -0.042(6)
H22 H 0.825(3) 0.305(3) -0.059(5)
Cd1_2 Cd -0.30256(2) -0.52331(2) 0.092072(19)
Cd1A Cd 0.30256(2) 0.52331(2) -0.092072(19)
Cd1A_2 Cd 1.30256(2) -0.47669(2) -0.092072(19)
Cd1A_3 Cd 1.30256(2) 1.52331(2) -0.092072(19)
O1A O 0.6435(2) 0.8836(2) -0.4976(2)
O2A O 0.7605(3) 0.7139(2) -0.4780(2)
O3A O 0.4651(2) 0.4778(2) -0.1836(2)
N1A N 1.2288(3) -0.3489(2) -0.2158(2)
N1A_2 N 0.2288(3) 0.6511(2) -0.2158(2)
C1A C 0.6259(3) 0.5898(3) -0.2359(3)
O4_2 O 0.8422(3) 0.6592(3) 0.2307(2)
O4A O 0.1578(3) 0.3408(3) -0.2307(2)
O4A_2 O 1.1578(3) 1.3408(3) -0.2307(2)
C2A C 0.5827(3) 0.5408(3) -0.1485(3)
C3A C 1.2672(3) -0.2180(3) -0.1584(3)
N2A N 1.4031(3) -0.2557(3) 0.0204(3)
N2A_2 N 0.4031(3) 0.7443(3) 0.0204(3)
C4A C 0.9351(3) 1.2216(3) -0.3103(3)
C5A C 0.7458(3) 0.9921(3) -0.4376(3)
N3A N 1.3612(3) -0.0528(3) 0.0665(3)
C6A C 0.8826(3) 0.9858(3) -0.4128(3)
H1A H 0.9115 0.9051 -0.4382
C7A C 0.8029(3) 0.6538(4) -0.3070(3)
H2A H 0.8943 0.6657 -0.3009
C8A C 1.3421(3) -0.1742(3) -0.0248(3)
O5A O 0.6696(3) 0.5662(3) -0.0459(3)
C9A C 0.5324(3) 0.6154(3) -0.3273(3)
H3A H 0.4406 0.6003 -0.3356
C10A C 1.1697(3) -0.4012(3) -0.3391(3)
H4A H 1.1437 -0.4920 -0.3783
C11A C 1.1410(4) 0.0258(3) 0.0287(3)
C12A C 1.2441(4) -0.1365(3) -0.2238(3)
H5A H 1.2694 -0.0458 -0.1828
C13A C 0.6782(4) 0.7620(3) -0.5597(3)
H6A H 0.5958 0.6981 -0.6092
H7A H 0.7253 0.7722 -0.6158
C14A C 0.7086(3) 0.6775(3) -0.3983(3)
C15A C 1.1455(4) -0.3261(4) -0.4107(3)
H8A H 1.1054 -0.3651 -0.4964
C16A C 0.9760(3) 1.1016(3) -0.3495(3)
H9A H 1.0682 1.0981 -0.3331
C17A C 0.7037(3) 1.1119(3) -0.4011(4)
H10A H 0.6116 1.1159 -0.4198
C18A C 0.7621(3) 0.6124(3) -0.2245(3)
H11A H 0.8264 0.5996 -0.1612
C19A C 0.5726(3) 0.6628(3) -0.4063(3)
H12A H 0.5095 0.6845 -0.4641
C20A C 1.0808(4) -0.0621(4) 0.0652(3)
H13A H 1.1346 -0.1044 0.1095
C21A C 0.7976(4) 1.2252(3) -0.3371(4)
H14A H 0.7685 1.3057 -0.3113
C22A C 1.2928(4) 0.0597(3) 0.0629(4)
H15A H 1.3269 0.1313 0.1438
H16A H 1.3147 0.0900 0.0029
C23A C 1.4648(4) -0.1846(4) 0.1451(3)
H17A H 1.5166 -0.2167 0.2009
C24A C 1.4385(4) -0.0613(4) 0.1740(3)
H18A H 1.4676 0.0059 0.2525
C25A C 1.1827(4) -0.1920(4) -0.3512(3)
H19A H 1.1666 -0.1386 -0.3965
C26A C 1.0381(4) 1.3460(4) -0.2384(4)
C27A C 1.0581(4) 0.0878(4) -0.0370(3)
H20A H 1.0968 0.1475 -0.0622
O6A O 0.9982(6) 1.4464(4) -0.1896(8)
O7A O 0.1309(6) 0.6200(5) 0.0025(5)
H21A H 0.116(6) 0.571(5) 0.042(6)
H22A H 0.175(3) 0.695(3) 0.059(5)
loop_
_geom_bond_atom_site_label_1
_geom_bond_atom_site_label_2
_geom_bond_site_symmetry_1
_geom_bond_site_symmetry_2
Cd1 O3 1_555 1_555
O1 C5 1_555 1_555
O2 C13 1_555 1_555
O3 C2 1_555 1_555
N1 Cd1 1_555 1_555
C1 C2 1_555 1_555
O4 C26 1_555 1_555
C2 O5 1_555 1_555
C3 N1 1_555 1_555
N2 Cd1 1_555 1_555
C4 C16 1_555 1_555
C5 C6 1_555 1_555
N3 C8 1_555 1_555
C6 H1 1_555 1_555
C7 H2 1_555 1_555
C8 C3 1_555 1_555
O5 Cd1A 1_555 1_555
C9 C1 1_555 1_555
H3 C9 1_555 1_555
C10 N1 1_555 1_555
H4 C10 1_555 1_555
C11 C20 1_555 1_555
C12 C3 1_555 1_555
H5 C12 1_555 1_555
C13 O1 1_555 1_555
H6 C13 1_555 1_555
H7 C13 1_555 1_555
C14 O2 1_555 1_555
C15 C10 1_555 1_555
H8 C15 1_555 1_555
C16 C6 1_555 1_555
H9 C16 1_555 1_555
C17 C5 1_555 1_555
H10 C17 1_555 1_555
C18 C1 1_555 1_555
H11 C18 1_555 1_555
C19 C9 1_555 1_555
H12 C19 1_555 1_555
C20 H13 1_555 1_555
C21 C4 1_555 1_555
H14 C21 1_555 1_555
C22 N3 1_555 1_555
H15 C22 1_555 1_555
H16 C22 1_555 1_555
C23 N2 1_555 1_555
H17 C23 1_555 1_555
C24 N3 1_555 1_555
H18 C24 1_555 1_555
C25 C12 1_555 1_555
H19 C25 1_555 1_555
C26 C4 1_555 1_555
C27 C11 1_555 1_555
H20 C27 1_555 1_555
O6 C26 1_555 1_555
O7 Cd1 1_555 1_555
H21 O7 1_555 1_555
H22 O7 1_555 1_555
Cd1_2 O4 1_555 1_555
Cd1A O3A 1_555 1_555
Cd1A_2 N1A 1_555 1_555
Cd1A_3 O4A_2 1_555 1_555
O1A C5A 1_555 1_555
O2A C13A 1_555 1_555
O3A C2A 1_555 1_555
N1A C3A 1_555 1_555
N1A_2 Cd1A 1_555 1_555
C1A C2A 1_555 1_555
O4_2 Cd1 1_555 1_555
O4A Cd1A 1_555 1_555
O4A_2 C26A 1_555 1_555
C2A O5A 1_555 1_555
C3A C8A 1_555 1_555
N2A Cd1A_2 1_555 1_555
N2A_2 Cd1A 1_555 1_555
C4A C16A 1_555 1_555
C5A C6A 1_555 1_555
N3A C8A 1_555 1_555
C6A H1A 1_555 1_555
C7A H2A 1_555 1_555
C8A N2A 1_555 1_555
O5A Cd1 1_555 1_555
C9A C1A 1_555 1_555
H3A C9A 1_555 1_555
C10A N1A 1_555 1_555
H4A C10A 1_555 1_555
C11A C20A 1_555 1_555
C12A C3A 1_555 1_555
H5A C12A 1_555 1_555
C13A O1A 1_555 1_555
H6A C13A 1_555 1_555
H7A C13A 1_555 1_555
C14A O2A 1_555 1_555
C15A C10A 1_555 1_555
H8A C15A 1_555 1_555
C16A C6A 1_555 1_555
H9A C16A 1_555 1_555
C17A C5A 1_555 1_555
H10A C17A 1_555 1_555
C18A C1A 1_555 1_555
H11A C18A 1_555 1_555
C19A C9A 1_555 1_555
H12A C19A 1_555 1_555
C20A C27 1_555 1_555
H13A C20A 1_555 1_555
C21A C4A 1_555 1_555
H14A C21A 1_555 1_555
C22A N3A 1_555 1_555
H15A C22A 1_555 1_555
H16A C22A 1_555 1_555
C23A N2A 1_555 1_555
H17A C23A 1_555 1_555
C24A N3A 1_555 1_555
H18A C24A 1_555 1_555
C25A C12A 1_555 1_555
H19A C25A 1_555 1_555
C26A C4A 1_555 1_555
C27A C20 1_555 1_555
H20A C27A 1_555 1_555
O6A C26A 1_555 1_555
O7A Cd1A 1_555 1_555
H21A O7A 1_555 1_555
H22A O7A 1_555 1_555
N2 C8 1_555 1_555
C7 C14 1_555 1_555
C7 C18 1_555 1_555
C11 C22 1_555 1_555
C14 C19 1_555 1_555
C15 C25 1_555 1_555
C17 C21 1_555 1_555
C23 C24 1_555 1_555
C7A C14A 1_555 1_555
C7A C18A 1_555 1_555
C11A C22A 1_555 1_555
C11A C27A 1_555 1_555
C14A C19A 1_555 1_555
C15A C25A 1_555 1_555
C17A C21A 1_555 1_555
C23A C24A 1_555 1_555

#END
