
#######################################################################
#
#                 Cambridge Crystallographic Data Centre
#                                CCDC 
#
#######################################################################
#
# If this CIF has been generated from an entry in the Cambridge 
# Structural Database, then it will include bibliographic, chemical, 
# crystal, experimental, refinement or atomic coordinate data resulting 
# from the CCDC's data processing and validation procedures.
#
#######################################################################

data_TONGAF
_symmetry_cell_setting           triclinic
_symmetry_space_group_name_H-M   'P -1'
_symmetry_Int_Tables_number      2
_space_group_name_Hall           '-P 1'
loop_
_symmetry_equiv_pos_site_id
_symmetry_equiv_pos_as_xyz
1 x,y,z
2 -x,-y,-z
_cell_length_a                   8.2200(3)
_cell_length_b                   12.4460(5)
_cell_length_c                   13.5470(5)
_cell_angle_alpha                98.6910(6)
_cell_angle_beta                 98.826(1)
_cell_angle_gamma                109.260(1)
_cell_volume                     1262.29
loop_
_atom_site_label
_atom_site_type_symbol
_atom_site_fract_x
_atom_site_fract_y
_atom_site_fract_z
Zn1 Zn 0.52081(2) 0.391133(14) 0.083678(13)
O1 O -0.15269(14) -0.03705(9) -0.43731(8)
O2 O -0.82093(16) -0.31993(10) -0.46286(9)
O3 O 0.36695(16) 0.32946(10) -0.05265(9)
N1 N 0.86679(17) 0.20486(11) 0.05800(10)
C1 C 0.9653(2) 0.12881(14) 0.08032(12)
H1 H 0.9302 0.0952 0.1373
H2 H 1.0904 0.1755 0.1009
C2 C 0.28563(19) 0.35401(13) -0.12733(12)
C3 C -1.1679(2) -0.39763(13) -0.26780(12)
N2 N 0.59687(18) 0.01668(12) 0.11374(11)
O4 O -1.30079(18) -0.50023(12) -0.14820(11)
O5 O -0.49037(16) -0.20826(10) -0.50626(9)
O6 O 0.29334(15) 0.45417(10) -0.13718(9)
C4 C 0.9352(2) 0.03124(14) -0.01040(12)
H3 H 0.9506 0.0631 -0.0708
H4 H 0.8151 -0.0241 -0.0233
C5 C 0.1605(2) 0.14003(13) -0.20672(12)
H5 H 0.2297 0.1285 -0.1512
C6 C -0.05271(19) 0.06225(13) -0.36639(11)
O7 O -1.38420(16) -0.35689(11) -0.18781(9)
C7 C 0.0546(2) 0.04628(13) -0.28390(12)
H6 H 0.0546 -0.0279 -0.2811
C8 C -0.9299(2) -0.34904(13) -0.39672(12)
C9 C 0.9233(2) 0.29257(14) 0.00656(13)
H7 H 1.0197 0.3082 -0.0244
C10 C 0.1650(2) 0.25258(13) -0.21101(11)
N3 N 0.68660(17) 0.30261(11) 0.06334(10)
C11 C 0.0578(2) 0.26737(13) -0.29371(12)
H8 H 0.0599 0.3418 -0.2973
C12 C -1.1729(2) -0.32020(14) -0.33211(12)
H9 H -1.2561 -0.2846 -0.3319
C13 C -0.3910(2) -0.15326(15) -0.57335(12)
H10 H -0.4694 -0.1535 -0.6347
H11 H -0.3154 -0.1945 -0.5930
C14 C 0.6139(2) 0.12889(13) 0.14296(11)
C15 C 0.7221(2) 0.21265(13) 0.09081(11)
C16 C -0.0525(2) 0.17330(13) -0.37117(12)
H12 H -0.1251 0.1843 -0.4254
C17 C -1.0415(2) -0.44908(13) -0.26875(12)
H13 H -1.0367 -0.5005 -0.2262
C18 C -0.5940(2) -0.32721(15) -0.54897(13)
H14 H -0.5184 -0.3701 -0.5647
H15 H -0.6750 -0.3343 -0.6118
C19 C -0.2813(2) -0.03023(14) -0.51788(12)
H16 H -0.2237 0.0138 -0.5642
H17 H -0.3549 0.0080 -0.4900
C20 C -0.9216(2) -0.42516(14) -0.33228(13)
H18 H -0.8370 -0.4597 -0.3316
C21 C -1.0556(2) -0.29600(14) -0.39596(13)
H19 H -1.0604 -0.2444 -0.4384
C22 C 0.5299(2) 0.16592(14) 0.21566(12)
H20 H 0.5491 0.2446 0.2364
C23 C 0.3920(2) -0.03282(15) 0.22352(14)
H21 H 0.3140 -0.0905 0.2477
C24 C 0.8119(2) 0.35188(14) 0.00952(13)
H22 H 0.8185 0.4156 -0.0199
C25 C -1.2923(2) -0.42319(14) -0.19634(12)
C26 C 0.4857(2) -0.06128(14) 0.15359(13)
H23 H 0.4705 -0.1394 0.1331
C27 C 0.4171(2) 0.08333(16) 0.25649(13)
H24 H 0.3594 0.1057 0.3052
C28 C -0.6954(2) -0.37579(14) -0.47209(13)
H25 H -0.7556 -0.4595 -0.4951
H26 H -0.6159 -0.3602 -0.4065
Zn1A Zn 0.47919(2) 0.608867(14) -0.083678(13)
Zn1A_2 Zn -1.52081(2) -0.391133(14) -0.083678(13)
Zn1A_3 Zn 1.47919(2) -0.391133(14) -0.083678(13)
Zn1_2 Zn 2.52081(2) 1.391133(14) 0.083678(13)
O1A O 1.15269(14) 1.03705(9) 0.43731(8)
O2A O 1.82093(16) 1.31993(10) 0.46286(9)
O3A O 0.63305(16) 0.67054(10) 0.05265(9)
N1A N 1.13321(17) -0.20486(11) -0.05800(10)
C1A C 1.0347(2) -0.12881(14) -0.08032(12)
H1A H 1.0698 -0.0952 -0.1373
H2A H 0.9096 -0.1755 -0.1009
C2A C 0.71437(19) 0.64599(13) 0.12733(12)
C3A C 2.1679(2) 1.39763(13) 0.26780(12)
N2A N 1.40313(18) -0.01668(12) -0.11374(11)
O4A O 2.30079(18) 1.50023(12) 0.14820(11)
O5A O 1.49037(16) 1.20826(10) 0.50626(9)
O6A O 0.70666(15) 0.54583(10) 0.13718(9)
C4A C 1.0648(2) -0.03124(14) 0.01040(12)
H3A H 1.0494 -0.0631 0.0708
H4A H 1.1849 0.0241 0.0233
C5A C 0.8395(2) 0.85997(13) 0.20672(12)
H5A H 0.7703 0.8715 0.1512
C6A C 1.05271(19) 0.93775(13) 0.36639(11)
O7A O 2.38420(16) 1.35689(11) 0.18781(9)
O7A_2 O 0.38420(16) 0.35689(11) 0.18781(9)
O7_2 O 0.61580(16) 0.64311(11) -0.18781(9)
C7A C 0.9454(2) 0.95372(13) 0.28390(12)
H6A H 0.9454 1.0279 0.2811
C8A C 1.9299(2) 1.34904(13) 0.39672(12)
C9A C 1.0767(2) -0.29257(14) -0.00656(13)
H7A H 0.9803 -0.3082 0.0244
C10A C 0.8350(2) 0.74742(13) 0.21101(11)
N3A N 1.31340(17) -0.30261(11) -0.06334(10)
N3A_2 N 0.31340(17) 0.69739(11) -0.06334(10)
C11A C 0.9422(2) 0.73263(13) 0.29371(12)
H8A H 0.9401 0.6582 0.2973
C12A C 2.1729(2) 1.32020(14) 0.33211(12)
H9A H 2.2561 1.2846 0.3319
C13A C 1.3910(2) 1.15326(15) 0.57335(12)
H10A H 1.4694 1.1535 0.6347
H11A H 1.3154 1.1945 0.5930
C14A C 1.3861(2) -0.12889(13) -0.14296(11)
C15A C 1.2779(2) -0.21265(13) -0.09081(11)
C16A C 1.0525(2) 0.82670(13) 0.37117(12)
H12A H 1.1251 0.8157 0.4254
C17A C 2.0415(2) 1.44908(13) 0.26875(12)
H13A H 2.0367 1.5005 0.2262
C18A C 1.5940(2) 1.32721(15) 0.54897(13)
H14A H 1.5184 1.3701 0.5647
H15A H 1.6750 1.3343 0.6118
C19A C 1.2813(2) 1.03023(14) 0.51788(12)
H16A H 1.2237 0.9862 0.5642
H17A H 1.3549 0.9920 0.4900
C20A C 1.9216(2) 1.42516(14) 0.33228(13)
H18A H 1.8370 1.4597 0.3316
C21A C 2.0556(2) 1.29600(14) 0.39596(13)
H19A H 2.0604 1.2444 0.4384
C22A C 1.4701(2) -0.16592(14) -0.21566(12)
H20A H 1.4509 -0.2446 -0.2364
C23A C 1.6080(2) 0.03282(15) -0.22352(14)
H21A H 1.6860 0.0905 -0.2477
C24A C 1.1881(2) -0.35188(14) -0.00952(13)
H22A H 1.1815 -0.4156 0.0199
C25A C 2.2923(2) 1.42319(14) 0.19634(12)
C26A C 1.5143(2) 0.06128(14) -0.15359(13)
H23A H 1.5295 0.1394 -0.1331
C27A C 1.5829(2) -0.08333(16) -0.25649(13)
H24A H 1.6406 -0.1057 -0.3052
C28A C 1.6954(2) 1.37579(14) 0.47209(13)
H25A H 1.7556 1.4595 0.4951
H26A H 1.6159 1.3602 0.4065
loop_
_geom_bond_atom_site_label_1
_geom_bond_atom_site_label_2
_geom_bond_site_symmetry_1
_geom_bond_site_symmetry_2
Zn1 O3 1_555 1_555
O1 C6 1_555 1_555
O2 C8 1_555 1_555
O3 C2 1_555 1_555
N1 C1 1_555 1_555
C1 H1 1_555 1_555
H2 C1 1_555 1_555
C2 O6 1_555 1_555
C3 C12 1_555 1_555
N2 C14 1_555 1_555
O4 C25 1_555 1_555
O5 C13 1_555 1_555
O6 Zn1A 1_555 1_555
C4 C1 1_555 1_555
H3 C4 1_555 1_555
H4 C4 1_555 1_555
C5 H5 1_555 1_555
C6 C7 1_555 1_555
O7 C25 1_555 1_555
C7 C5 1_555 1_555
H6 C7 1_555 1_555
C8 C20 1_555 1_555
C9 N1 1_555 1_555
H7 C9 1_555 1_555
C10 C2 1_555 1_555
N3 Zn1 1_555 1_555
C11 C10 1_555 1_555
H8 C11 1_555 1_555
C12 H9 1_555 1_555
C13 H10 1_555 1_555
H11 C13 1_555 1_555
C14 C15 1_555 1_555
C15 N1 1_555 1_555
C16 C6 1_555 1_555
H12 C16 1_555 1_555
C17 C3 1_555 1_555
H13 C17 1_555 1_555
C18 O5 1_555 1_555
H14 C18 1_555 1_555
H15 C18 1_555 1_555
C19 O1 1_555 1_555
H16 C19 1_555 1_555
H17 C19 1_555 1_555
C20 C17 1_555 1_555
H18 C20 1_555 1_555
C21 C8 1_555 1_555
H19 C21 1_555 1_555
C22 C14 1_555 1_555
H20 C22 1_555 1_555
C23 H21 1_555 1_555
C24 C9 1_555 1_555
H22 C24 1_555 1_555
C25 C3 1_555 1_555
C26 N2 1_555 1_555
H23 C26 1_555 1_555
C27 C22 1_555 1_555
H24 C27 1_555 1_555
C28 O2 1_555 1_555
H25 C28 1_555 1_555
H26 C28 1_555 1_555
Zn1A O3A 1_555 1_555
Zn1A_2 O7 1_555 1_555
Zn1A_3 N3A 1_555 1_555
Zn1_2 O7A 1_555 1_555
O1A C6A 1_555 1_555
O2A C8A 1_555 1_555
O3A C2A 1_555 1_555
N1A C1A 1_555 1_555
C1A H1A 1_555 1_555
H2A C1A 1_555 1_555
C2A O6A 1_555 1_555
C3A C12A 1_555 1_555
N2A C14A 1_555 1_555
O4A C25A 1_555 1_555
O5A C13A 1_555 1_555
O6A Zn1 1_555 1_555
C4A C4 1_555 1_555
H3A C4A 1_555 1_555
H4A C4A 1_555 1_555
C5A H5A 1_555 1_555
C6A C7A 1_555 1_555
O7A C25A 1_555 1_555
O7A_2 Zn1 1_555 1_555
O7_2 Zn1A 1_555 1_555
C7A C5A 1_555 1_555
H6A C7A 1_555 1_555
C8A C20A 1_555 1_555
C9A N1A 1_555 1_555
H7A C9A 1_555 1_555
C10A C2A 1_555 1_555
N3A C15A 1_555 1_555
N3A_2 Zn1A 1_555 1_555
C11A C10A 1_555 1_555
H8A C11A 1_555 1_555
C12A H9A 1_555 1_555
C13A H10A 1_555 1_555
H11A C13A 1_555 1_555
C14A C15A 1_555 1_555
C15A N1A 1_555 1_555
C16A C6A 1_555 1_555
H12A C16A 1_555 1_555
C17A C3A 1_555 1_555
H13A C17A 1_555 1_555
C18A O5A 1_555 1_555
H14A C18A 1_555 1_555
H15A C18A 1_555 1_555
C19A O1A 1_555 1_555
H16A C19A 1_555 1_555
H17A C19A 1_555 1_555
C20A C17A 1_555 1_555
H18A C20A 1_555 1_555
C21A C8A 1_555 1_555
H19A C21A 1_555 1_555
C22A C14A 1_555 1_555
H20A C22A 1_555 1_555
C23A H21A 1_555 1_555
C24A C9A 1_555 1_555
H22A C24A 1_555 1_555
C25A C3A 1_555 1_555
C26A N2A 1_555 1_555
H23A C26A 1_555 1_555
C27A C22A 1_555 1_555
H24A C27A 1_555 1_555
C28A O2A 1_555 1_555
H25A C28A 1_555 1_555
H26A C28A 1_555 1_555
C5 C10 1_555 1_555
N3 C15 1_555 1_555
N3 C24 1_555 1_555
C11 C16 1_555 1_555
C12 C21 1_555 1_555
C13 C19 1_555 1_555
C18 C28 1_555 1_555
C23 C26 1_555 1_555
C23 C27 1_555 1_555
C1A C4A 1_555 1_555
C5A C10A 1_555 1_555
N3A C24A 1_555 1_555
C11A C16A 1_555 1_555
C12A C21A 1_555 1_555
C13A C19A 1_555 1_555
C18A C28A 1_555 1_555
C23A C26A 1_555 1_555
C23A C27A 1_555 1_555

#END
