
#######################################################################
#
#                 Cambridge Crystallographic Data Centre
#                                CCDC 
#
#######################################################################
#
# If this CIF has been generated from an entry in the Cambridge 
# Structural Database, then it will include bibliographic, chemical, 
# crystal, experimental, refinement or atomic coordinate data resulting 
# from the CCDC's data processing and validation procedures.
#
#######################################################################

data_TONJEN
_symmetry_cell_setting           triclinic
_symmetry_space_group_name_H-M   'P -1'
_symmetry_Int_Tables_number      2
_space_group_name_Hall           '-P 1'
loop_
_symmetry_equiv_pos_site_id
_symmetry_equiv_pos_as_xyz
1 x,y,z
2 -x,-y,-z
_cell_length_a                   9.382(2)
_cell_length_b                   11.204(3)
_cell_length_c                   12.243(3)
_cell_angle_alpha                67.981(6)
_cell_angle_beta                 85.397(6)
_cell_angle_gamma                71.885(6)
_cell_volume                     1132.97
loop_
_atom_site_label
_atom_site_type_symbol
_atom_site_fract_x
_atom_site_fract_y
_atom_site_fract_z
U1 U 0.44250(3) 0.46856(3) 0.26314(3)
P1 P 0.3966(2) 0.3676(2) 0.58817(18)
P2 P 0.5932(2) 0.6381(2) -0.01554(18)
O1 O 0.3092(6) 0.6302(5) 0.2151(5)
O2 O 0.5691(6) 0.3020(5) 0.3132(5)
O3 O 0.6011(6) 0.5563(5) 0.1160(4)
O4 O 0.3612(6) 0.4362(5) 0.4563(4)
O5 O 0.4053(6) 0.4604(6) 0.6492(5)
O6 O 0.5678(9) 0.1341(8) 0.5703(6)
H1 H 0.5798 0.1612 0.4990
O7 O 0.6180(6) 0.5567(6) -0.0935(5)
O8 O 0.3714(8) 0.8440(7) 0.0113(7)
H2 H 0.3492 0.7986 0.0763
N1 N 0.2280(7) 0.3657(7) 0.3034(6)
N2 N 0.0838(7) 0.2325(7) 0.3757(6)
C1 C 0.2548(8) 0.2885(8) 0.6544(7)
C2 C 0.1197(9) 0.3272(9) 0.5957(7)
H3 H 0.1049 0.3913 0.5193
C3 C 0.0040(10) 0.2741(10) 0.6464(9)
H4 H -0.0866 0.3018 0.6049
C4 C 0.0268(11) 0.1812(10) 0.7575(10)
H5 H -0.0502 0.1460 0.7931
C5 C 0.1611(12) 0.1376(10) 0.8192(9)
H6 H 0.1750 0.0716 0.8947
C6 C 0.2761(10) 0.1916(10) 0.7692(8)
H7 H 0.3663 0.1637 0.8114
C7 C 0.5736(10) 0.2344(11) 0.6154(9)
H8 H 0.6526 0.2728 0.5780
H9 H 0.5974 0.1918 0.6996
C8 C 0.7349(9) 0.7232(9) -0.0471(7)
C9 C 0.7132(11) 0.8539(9) -0.1266(8)
H10 H 0.6183 0.9054 -0.1615
C10 C 0.8291(11) 0.9090(10) -0.1549(9)
H11 H 0.8127 0.9959 -0.2108
C11 C 0.9683(10) 0.8374(10) -0.1017(9)
H12 H 1.0463 0.8756 -0.1194
C12 C 0.9912(11) 0.7066(11) -0.0208(9)
H13 H 1.0857 0.6565 0.0154
C13 C 0.8759(9) 0.6505(10) 0.0063(8)
H14 H 0.8928 0.5628 0.0610
C14 C 0.4112(9) 0.7650(9) -0.0607(9)
H15 H 0.4133 0.8238 -0.1421
H16 H 0.3357 0.7209 -0.0560
C15 C 0.0788(9) 0.4411(9) 0.2735(7)
H17 H 0.0448 0.5331 0.2290
C16 C -0.0088(10) 0.3616(9) 0.3182(7)
H18 H -0.1130 0.3886 0.3117
C17 C 0.2253(9) 0.2428(9) 0.3623(7)
H19 H 0.3111 0.1697 0.3922
C18 C 0.0424(9) 0.1135(9) 0.4397(8)
C19 C -0.0796(9) 0.0969(9) 0.4013(8)
H20 H -0.1336 0.1629 0.3337
C20 C -0.1248(9) -0.0156(9) 0.4608(8)
H21 H -0.2091 -0.0255 0.4344
N1A N -0.2280(7) -0.3657(7) 0.6966(6)
N2A N -0.0838(7) -0.2325(7) 0.6243(6)
C15A C -0.0788(9) -0.4411(9) 0.7265(7)
H17A H -0.0448 -0.5331 0.7710
C16A C 0.0088(10) -0.3616(9) 0.6818(7)
H18A H 0.1130 -0.3886 0.6883
C17A C -0.2253(9) -0.2428(9) 0.6377(7)
H19A H -0.3111 -0.1697 0.6078
C18A C -0.0424(9) -0.1135(9) 0.5603(8)
C19A C 0.0796(9) -0.0969(9) 0.5987(8)
H20A H 0.1336 -0.1629 0.6663
C20A C 0.1248(9) 0.0156(9) 0.5392(8)
H21A H 0.2091 0.0255 0.5656
U1A U -0.44250(3) -0.46856(3) 0.73686(3)
P1A P -0.3966(2) -0.3676(2) 0.41183(18)
P2A P -0.5932(2) -0.6381(2) 1.01554(18)
O1A O -0.3092(6) -0.6302(5) 0.7849(5)
O2A O -0.5691(6) -0.3020(5) 0.6868(5)
O3A O -0.6011(6) -0.5563(5) 0.8840(4)
O4A O -0.3612(6) -0.4362(5) 0.5437(4)
O5A O -0.4053(6) -0.4604(6) 0.3508(5)
O6A O -0.5678(9) -0.1341(8) 0.4297(6)
H1A H -0.5798 -0.1612 0.5010
O7A O -0.6180(6) -0.5567(6) 1.0935(5)
O8A O -0.3714(8) -0.8440(7) 0.9887(7)
H2A H -0.3492 -0.7986 0.9237
C1A C -0.2548(8) -0.2885(8) 0.3456(7)
C2A C -0.1197(9) -0.3272(9) 0.4043(7)
H3A H -0.1049 -0.3913 0.4807
C3A C -0.0040(10) -0.2741(10) 0.3536(9)
H4A H 0.0866 -0.3018 0.3951
C4A C -0.0268(11) -0.1812(10) 0.2425(10)
H5A H 0.0502 -0.1460 0.2069
C5A C -0.1611(12) -0.1376(10) 0.1808(9)
H6A H -0.1750 -0.0716 0.1053
C6A C -0.2761(10) -0.1916(10) 0.2308(8)
H7A H -0.3663 -0.1637 0.1886
C7A C -0.5736(10) -0.2344(11) 0.3846(9)
H8A H -0.6526 -0.2728 0.4220
H9A H -0.5974 -0.1918 0.3004
C8A C -0.7349(9) -0.7232(9) 1.0471(7)
C9A C -0.7132(11) -0.8539(9) 1.1266(8)
H10A H -0.6183 -0.9054 1.1615
C10A C -0.8291(11) -0.9090(10) 1.1549(9)
H11A H -0.8127 -0.9959 1.2108
C11A C -0.9683(10) -0.8374(10) 1.1017(9)
H12A H -1.0463 -0.8756 1.1194
C12A C -0.9912(11) -0.7066(11) 1.0208(9)
H13A H -1.0857 -0.6565 0.9846
C13A C -0.8759(9) -0.6505(10) 0.9937(8)
H14A H -0.8928 -0.5628 0.9390
C14A C -0.4112(9) -0.7650(9) 1.0607(9)
H15A H -0.4133 -0.8238 1.1421
H16A H -0.3357 -0.7209 1.0560
U1_2 U -0.55750(3) -0.53144(3) 0.26314(3)
U1_3 U -0.55750(3) -0.53144(3) 1.26314(3)
U1A_2 U 0.55750(3) 0.53144(3) -0.26314(3)
U1A_3 U 0.55750(3) 0.53144(3) 0.73686(3)
O5_2 O -0.5947(6) -0.5396(6) 0.6492(5)
O5A_2 O 0.5947(6) 0.5396(6) 0.3508(5)
O7_2 O -0.3820(6) -0.4433(6) 0.9065(5)
O7A_2 O 0.3820(6) 0.4433(6) 0.0935(5)
loop_
_geom_bond_atom_site_label_1
_geom_bond_atom_site_label_2
_geom_bond_site_symmetry_1
_geom_bond_site_symmetry_2
U1 O1 1_555 1_555
P1 O4 1_555 1_555
P2 O3 1_555 1_555
O2 U1 1_555 1_555
O3 U1 1_555 1_555
O4 U1 1_555 1_555
O5 P1 1_555 1_555
O6 H1 1_555 1_555
O7 P2 1_555 1_555
O8 H2 1_555 1_555
N1 U1 1_555 1_555
N2 C16 1_555 1_555
C1 P1 1_555 1_555
C2 C1 1_555 1_555
H3 C2 1_555 1_555
C3 C2 1_555 1_555
H4 C3 1_555 1_555
C4 C3 1_555 1_555
H5 C4 1_555 1_555
C5 C4 1_555 1_555
H6 C5 1_555 1_555
C6 C1 1_555 1_555
H7 C6 1_555 1_555
C7 P1 1_555 1_555
H8 C7 1_555 1_555
H9 C7 1_555 1_555
C8 P2 1_555 1_555
C9 C8 1_555 1_555
H10 C9 1_555 1_555
C10 C9 1_555 1_555
H11 C10 1_555 1_555
C11 C10 1_555 1_555
H12 C11 1_555 1_555
C12 C11 1_555 1_555
H13 C12 1_555 1_555
C13 C8 1_555 1_555
H14 C13 1_555 1_555
C14 P2 1_555 1_555
H15 C14 1_555 1_555
H16 C14 1_555 1_555
C15 N1 1_555 1_555
H17 C15 1_555 1_555
C16 C15 1_555 1_555
H18 C16 1_555 1_555
C17 N1 1_555 1_555
H19 C17 1_555 1_555
C18 N2 1_555 1_555
C19 C18 1_555 1_555
H20 C19 1_555 1_555
C20 C19 1_555 1_555
H21 C20 1_555 1_555
N1A C15A 1_555 1_555
N2A C16A 1_555 1_555
C15A H17A 1_555 1_555
C16A C15A 1_555 1_555
H18A C16A 1_555 1_555
C17A N1A 1_555 1_555
H19A C17A 1_555 1_555
C18A C20 1_555 1_555
C19A C18A 1_555 1_555
H20A C19A 1_555 1_555
C20A C18 1_555 1_555
H21A C20A 1_555 1_555
U1A N1A 1_555 1_555
P1A O4A 1_555 1_555
P2A O3A 1_555 1_555
O1A U1A 1_555 1_555
O2A U1A 1_555 1_555
O3A U1A 1_555 1_555
O4A U1A 1_555 1_555
O5A P1A 1_555 1_555
O6A H1A 1_555 1_555
O7A P2A 1_555 1_555
O8A H2A 1_555 1_555
C1A P1A 1_555 1_555
C2A C1A 1_555 1_555
H3A C2A 1_555 1_555
C3A C2A 1_555 1_555
H4A C3A 1_555 1_555
C4A C3A 1_555 1_555
H5A C4A 1_555 1_555
C5A C4A 1_555 1_555
H6A C5A 1_555 1_555
C6A C1A 1_555 1_555
H7A C6A 1_555 1_555
C7A P1A 1_555 1_555
H8A C7A 1_555 1_555
H9A C7A 1_555 1_555
C8A P2A 1_555 1_555
C9A C8A 1_555 1_555
H10A C9A 1_555 1_555
C10A C9A 1_555 1_555
H11A C10A 1_555 1_555
C11A C10A 1_555 1_555
H12A C11A 1_555 1_555
C12A C11A 1_555 1_555
H13A C12A 1_555 1_555
C13A C8A 1_555 1_555
H14A C13A 1_555 1_555
C14A P2A 1_555 1_555
H15A C14A 1_555 1_555
H16A C14A 1_555 1_555
U1_2 O5A 1_555 1_555
U1_3 O7A 1_555 1_555
U1A_2 O7 1_555 1_555
U1A_3 O5 1_555 1_555
O5_2 U1A 1_555 1_555
O5A_2 U1 1_555 1_555
O7_2 U1A 1_555 1_555
O7A_2 U1 1_555 1_555
O6 C7 1_555 1_555
O8 C14 1_555 1_555
N2 C17 1_555 1_555
C5 C6 1_555 1_555
C12 C13 1_555 1_555
N2A C17A 1_555 1_555
N2A C18A 1_555 1_555
C19A C20A 1_555 1_555
O6A C7A 1_555 1_555
O8A C14A 1_555 1_555
C5A C6A 1_555 1_555
C12A C13A 1_555 1_555

#END
