
#######################################################################
#
#                 Cambridge Crystallographic Data Centre
#                                CCDC 
#
#######################################################################
#
# If this CIF has been generated from an entry in the Cambridge 
# Structural Database, then it will include bibliographic, chemical, 
# crystal, experimental, refinement or atomic coordinate data resulting 
# from the CCDC's data processing and validation procedures.
#
#######################################################################

data_TONJUD
_symmetry_cell_setting           triclinic
_symmetry_space_group_name_H-M   'P -1'
_symmetry_Int_Tables_number      2
_space_group_name_Hall           '-P 1'
loop_
_symmetry_equiv_pos_site_id
_symmetry_equiv_pos_as_xyz
1 x,y,z
2 -x,-y,-z
_cell_length_a                   8.946(6)
_cell_length_b                   11.706(7)
_cell_length_c                   13.404(8)
_cell_angle_alpha                87.195(10)
_cell_angle_beta                 76.239(12)
_cell_angle_gamma                85.236(12)
_cell_volume                     1358.07
loop_
_atom_site_label
_atom_site_type_symbol
_atom_site_fract_x
_atom_site_fract_y
_atom_site_fract_z
U1 U 1.00397(4) 0.24661(3) 0.41849(3)
P1 P 0.9614(3) -0.05086(19) 0.35332(18)
O1 O 1.2063(7) 0.2441(5) 0.3837(5)
O2 O 0.8019(8) 0.2567(5) 0.4470(5)
O3 O 0.9873(8) -0.1266(5) 0.4428(5)
O4 O 1.0200(8) 0.0670(5) 0.3471(5)
O5 O 1.0070(12) -0.2356(7) 0.2401(6)
H1 H 1.0066 -0.2687 0.2955
O6 O 1.0030(8) 0.3682(5) 0.5648(5)
O7 O 1.0052(8) 0.5461(5) 0.6209(5)
N1 N 1.0070(10) 0.2783(6) 0.2276(6)
N2 N 0.9270(10) 0.3132(7) 0.0833(6)
C1 C 0.7621(12) -0.0398(8) 0.3512(8)
C2 C 0.6998(14) 0.0549(10) 0.3041(11)
H2 H 0.7631 0.1120 0.2730
C3 C 0.5469(17) 0.0655(13) 0.3028(14)
H3 H 0.5086 0.1282 0.2687
C4 C 0.4512(16) -0.0133(14) 0.3498(12)
H4 H 0.3468 -0.0033 0.3505
C5 C 0.5068(16) -0.1075(13) 0.3962(12)
H5 H 0.4406 -0.1627 0.4276
C6 C 0.6666(15) -0.1220(12) 0.3970(10)
H6 H 0.7052 -0.1868 0.4284
C7 C 1.0651(14) -0.1239(9) 0.2393(8)
H7 H 1.0512 -0.0797 0.1786
H8 H 1.1744 -0.1322 0.2376
C8 C 1.0018(12) 0.4768(8) 0.5539(7)
C9 C 0.8972(12) 0.3297(7) 0.1862(7)
H9 H 0.8106 0.3718 0.2230
C10 C 1.1142(12) 0.2248(8) 0.1460(7)
C11 C 1.2522(13) 0.1589(9) 0.1447(9)
H10 H 1.2883 0.1454 0.2041
C12 C 1.3326(17) 0.1149(12) 0.0528(10)
H11 H 1.4253 0.0711 0.0492
C13 C 1.2762(16) 0.1356(11) -0.0354(10)
H12 H 1.3319 0.1032 -0.0963
C14 C 1.1443(14) 0.2003(9) -0.0364(9)
H13 H 1.1086 0.2134 -0.0960
C15 C 1.0657(12) 0.2460(8) 0.0560(7)
C16 C 0.8286(12) 0.3538(9) 0.0166(7)
C17 C 0.8870(13) 0.4201(10) -0.0687(8)
H14 H 0.9865 0.4436 -0.0790
C18 C 0.8009(13) 0.4526(10) -0.1399(8)
H15 H 0.8454 0.4937 -0.1991
C19 C 0.6491(13) 0.4246(9) -0.1241(8)
C20 C 0.5887(14) 0.3631(11) -0.0348(10)
H16 H 0.4859 0.3460 -0.0205
C21 C 0.6783(14) 0.3264(11) 0.0335(9)
H17 H 0.6360 0.2826 0.0916
C22 C 0.5551(13) 0.4541(9) -0.2031(8)
C23 C 0.5879(13) 0.5490(11) -0.2685(9)
H18 H 0.6634 0.5958 -0.2610
C24 C 0.5090(15) 0.5742(12) -0.3444(10)
H19 H 0.5310 0.6386 -0.3872
C25 C 0.3990(15) 0.5062(12) -0.3578(10)
H20 H 0.3475 0.5234 -0.4099
C26 C 0.3644(16) 0.4104(12) -0.2922(12)
H21 H 0.2893 0.3637 -0.3005
C27 C 0.4416(17) 0.3852(11) -0.2152(11)
H22 H 0.4177 0.3219 -0.1713
O6A O 0.9970(8) 0.6318(5) 0.4352(5)
O7A O 0.9948(8) 0.4539(5) 0.3791(5)
C8A C 0.9982(12) 0.5232(8) 0.4461(7)
U1A U 0.99603(4) -0.24661(3) 0.58151(3)
P1A P 1.0386(3) 0.05086(19) 0.64668(18)
O1A O 0.7937(7) -0.2441(5) 0.6163(5)
O2A O 1.1981(8) -0.2567(5) 0.5530(5)
O3A O 1.0127(8) 0.1266(5) 0.5572(5)
O4A O 0.9800(8) -0.0670(5) 0.6529(5)
O5A O 0.9930(12) 0.2356(7) 0.7599(6)
H1A H 0.9934 0.2687 0.7045
N1A N 0.9930(10) -0.2783(6) 0.7724(6)
N2A N 1.0730(10) -0.3132(7) 0.9167(6)
C1A C 1.2379(12) 0.0398(8) 0.6488(8)
C2A C 1.3002(14) -0.0549(10) 0.6959(11)
H2A H 1.2369 -0.1120 0.7270
C3A C 1.4531(17) -0.0655(13) 0.6972(14)
H3A H 1.4914 -0.1282 0.7313
C4A C 1.5488(16) 0.0133(14) 0.6502(12)
H4A H 1.6532 0.0033 0.6495
C5A C 1.4932(16) 0.1075(13) 0.6038(12)
H5A H 1.5594 0.1627 0.5724
C6A C 1.3334(15) 0.1220(12) 0.6030(10)
H6A H 1.2948 0.1868 0.5716
C7A C 0.9349(14) 0.1239(9) 0.7607(8)
H7A H 0.9488 0.0797 0.8214
H8A H 0.8256 0.1322 0.7624
C9A C 1.1028(12) -0.3297(7) 0.8138(7)
H9A H 1.1894 -0.3718 0.7770
C10A C 0.8858(12) -0.2248(8) 0.8540(7)
C11A C 0.7478(13) -0.1589(9) 0.8553(9)
H10A H 0.7117 -0.1454 0.7959
C12A C 0.6674(17) -0.1149(12) 0.9472(10)
H11A H 0.5747 -0.0711 0.9508
C13A C 0.7238(16) -0.1356(11) 1.0354(10)
H12A H 0.6681 -0.1032 1.0963
C14A C 0.8557(14) -0.2003(9) 1.0364(9)
H13A H 0.8914 -0.2134 1.0960
C15A C 0.9343(12) -0.2460(8) 0.9440(7)
C16A C 1.1714(12) -0.3538(9) 0.9834(7)
C17A C 1.1130(13) -0.4201(10) 1.0687(8)
H14A H 1.0135 -0.4436 1.0790
C18A C 1.1991(13) -0.4526(10) 1.1399(8)
H15A H 1.1546 -0.4937 1.1991
C19A C 1.3509(13) -0.4246(9) 1.1241(8)
C20A C 1.4113(14) -0.3631(11) 1.0348(10)
H16A H 1.5141 -0.3460 1.0205
C21A C 1.3217(14) -0.3264(11) 0.9665(9)
H17A H 1.3640 -0.2826 0.9084
C22A C 1.4449(13) -0.4541(9) 1.2031(8)
C23A C 1.4121(13) -0.5490(11) 1.2685(9)
H18A H 1.3366 -0.5958 1.2610
C24A C 1.4910(15) -0.5742(12) 1.3444(10)
H19A H 1.4690 -0.6386 1.3872
C25A C 1.6010(15) -0.5062(12) 1.3578(10)
H20A H 1.6525 -0.5234 1.4099
C26A C 1.6356(16) -0.4104(12) 1.2922(12)
H21A H 1.7107 -0.3637 1.3005
C27A C 1.5584(17) -0.3852(11) 1.2152(11)
H22A H 1.5823 -0.3219 1.1713
U1A_2 U 0.99603(4) 0.75339(3) 0.58151(3)
O6A_2 O 0.9970(8) -0.3682(5) 0.4352(5)
O7_2 O 1.0052(8) -0.4539(5) 0.6209(5)
loop_
_geom_bond_atom_site_label_1
_geom_bond_atom_site_label_2
_geom_bond_site_symmetry_1
_geom_bond_site_symmetry_2
U1 O1 1_555 1_555
P1 O3 1_555 1_555
O2 U1 1_555 1_555
O3 U1A 1_555 1_555
O4 U1 1_555 1_555
O5 H1 1_555 1_555
O6 U1 1_555 1_555
O7 C8 1_555 1_555
N1 U1 1_555 1_555
N2 C9 1_555 1_555
C1 P1 1_555 1_555
C2 C1 1_555 1_555
H2 C2 1_555 1_555
C3 C2 1_555 1_555
H3 C3 1_555 1_555
C4 C3 1_555 1_555
H4 C4 1_555 1_555
C5 C4 1_555 1_555
H5 C5 1_555 1_555
C6 C1 1_555 1_555
H6 C6 1_555 1_555
C7 P1 1_555 1_555
H7 C7 1_555 1_555
H8 C7 1_555 1_555
C8 O6 1_555 1_555
C9 N1 1_555 1_555
H9 C9 1_555 1_555
C10 N1 1_555 1_555
C11 C10 1_555 1_555
H10 C11 1_555 1_555
C12 C11 1_555 1_555
H11 C12 1_555 1_555
C13 C12 1_555 1_555
H12 C13 1_555 1_555
C14 C13 1_555 1_555
H13 C14 1_555 1_555
C15 N2 1_555 1_555
C16 N2 1_555 1_555
C17 C16 1_555 1_555
H14 C17 1_555 1_555
C18 C17 1_555 1_555
H15 C18 1_555 1_555
C19 C18 1_555 1_555
C20 C19 1_555 1_555
H16 C20 1_555 1_555
C21 C16 1_555 1_555
H17 C21 1_555 1_555
C22 C19 1_555 1_555
C23 C22 1_555 1_555
H18 C23 1_555 1_555
C24 C23 1_555 1_555
H19 C24 1_555 1_555
C25 C24 1_555 1_555
H20 C25 1_555 1_555
C26 C25 1_555 1_555
H21 C26 1_555 1_555
C27 C22 1_555 1_555
H22 C27 1_555 1_555
O6A C8A 1_555 1_555
O7A U1 1_555 1_555
C8A C8 1_555 1_555
U1A O1A 1_555 1_555
P1A O3A 1_555 1_555
O2A U1A 1_555 1_555
O3A U1 1_555 1_555
O4A U1A 1_555 1_555
O5A H1A 1_555 1_555
N1A U1A 1_555 1_555
N2A C9A 1_555 1_555
C1A P1A 1_555 1_555
C2A C1A 1_555 1_555
H2A C2A 1_555 1_555
C3A C2A 1_555 1_555
H3A C3A 1_555 1_555
C4A C3A 1_555 1_555
H4A C4A 1_555 1_555
C5A C4A 1_555 1_555
H5A C5A 1_555 1_555
C6A C1A 1_555 1_555
H6A C6A 1_555 1_555
C7A P1A 1_555 1_555
H7A C7A 1_555 1_555
H8A C7A 1_555 1_555
C9A N1A 1_555 1_555
H9A C9A 1_555 1_555
C10A N1A 1_555 1_555
C11A C10A 1_555 1_555
H10A C11A 1_555 1_555
C12A C11A 1_555 1_555
H11A C12A 1_555 1_555
C13A C12A 1_555 1_555
H12A C13A 1_555 1_555
C14A C13A 1_555 1_555
H13A C14A 1_555 1_555
C15A N2A 1_555 1_555
C16A N2A 1_555 1_555
C17A C16A 1_555 1_555
H14A C17A 1_555 1_555
C18A C17A 1_555 1_555
H15A C18A 1_555 1_555
C19A C18A 1_555 1_555
C20A C19A 1_555 1_555
H16A C20A 1_555 1_555
C21A C16A 1_555 1_555
H17A C21A 1_555 1_555
C22A C19A 1_555 1_555
C23A C22A 1_555 1_555
H18A C23A 1_555 1_555
C24A C23A 1_555 1_555
H19A C24A 1_555 1_555
C25A C24A 1_555 1_555
H20A C25A 1_555 1_555
C26A C25A 1_555 1_555
H21A C26A 1_555 1_555
C27A C22A 1_555 1_555
H22A C27A 1_555 1_555
U1A_2 O7 1_555 1_555
O6A_2 U1A 1_555 1_555
O7_2 U1A 1_555 1_555
P1 O4 1_555 1_555
O5 C7 1_555 1_555
C5 C6 1_555 1_555
C10 C15 1_555 1_555
C14 C15 1_555 1_555
C20 C21 1_555 1_555
C26 C27 1_555 1_555
O6A U1A_2 1_555 1_555
O7A C8A 1_555 1_555
P1A O4A 1_555 1_555
O5A C7A 1_555 1_555
C5A C6A 1_555 1_555
C10A C15A 1_555 1_555
C14A C15A 1_555 1_555
C20A C21A 1_555 1_555
C26A C27A 1_555 1_555

#END
