
#######################################################################
#
#                 Cambridge Crystallographic Data Centre
#                                CCDC 
#
#######################################################################
#
# If this CIF has been generated from an entry in the Cambridge 
# Structural Database, then it will include bibliographic, chemical, 
# crystal, experimental, refinement or atomic coordinate data resulting 
# from the CCDC's data processing and validation procedures.
#
#######################################################################

data_TONJIQ
_symmetry_cell_setting           monoclinic
_symmetry_space_group_name_H-M   'P 21/c'
_symmetry_Int_Tables_number      14
_space_group_name_Hall           '-P 2ybc'
loop_
_symmetry_equiv_pos_site_id
_symmetry_equiv_pos_as_xyz
1 x,y,z
2 -x,1/2+y,1/2-z
3 -x,-y,-z
4 x,1/2-y,1/2+z
_cell_length_a                   16.5112(11)
_cell_length_b                   14.4610(8)
_cell_length_c                   22.8777(16)
_cell_angle_alpha                90
_cell_angle_beta                 103.144(3)
_cell_angle_gamma                90
_cell_volume                     5319.37
loop_
_atom_site_label
_atom_site_type_symbol
_atom_site_fract_x
_atom_site_fract_y
_atom_site_fract_z
Au1 Au 0.13955(2) -0.31246(2) 0.802881(13)
Au2 Au -0.11588(2) -0.02084(2) 0.720260(13)
P1 P 0.04007(13) -0.31089(12) 0.85719(8)
P2 P -0.04679(14) -0.02222(13) 0.81822(9)
C1 C 0.2246(5) -0.2956(6) 0.7531(4)
C2 C 0.2723(6) -0.2805(8) 0.7237(4)
C3 C -0.1686(5) -0.0331(5) 0.6320(3)
C4 C -0.1884(6) -0.0446(6) 0.5801(3)
C5 C 0.4466(7) -0.2540(12) 0.6189(5)
N1 N 0.4030(8) -0.1776(9) 0.6274(5)
C6 C 0.3460(7) -0.1860(9) 0.6619(6)
H1 H 0.3149 -0.1346 0.6676
C7 C 0.3334(6) -0.2684(8) 0.6884(4)
C8 C 0.3822(8) -0.3392(9) 0.6779(6)
H2 H 0.3771 -0.3953 0.6966
C9 C 0.4354(7) -0.3352(9) 0.6439(6)
H3 H 0.4649 -0.3874 0.6372
C10 C 0.5092(8) -0.2457(11) 0.5802(6)
N2 N 0.5464(12) -0.3208(13) 0.5700(9)
C11 C 0.6092(15) -0.3131(19) 0.5294(11)
H4 H 0.6362 -0.3614 0.5149
C12 C 0.6162(15) -0.229(2) 0.5202(11)
H5 H 0.6632 -0.2208 0.5049
C13 C 0.5841(16) -0.153(2) 0.5238(11)
H6 H 0.5949 -0.0980 0.5060
C14 C 0.5247(13) -0.1680(15) 0.5626(9)
H7 H 0.4979 -0.1169 0.5742
C15 C -0.2521(6) -0.1207(7) 0.3995(4)
N3 N -0.1941(6) -0.1726(7) 0.4379(4)
C16 C -0.1738(6) -0.1436(8) 0.4956(4)
H8 H -0.1343 -0.1774 0.5227
C17 C -0.2079(6) -0.0677(6) 0.5167(4)
C18 C -0.2649(7) -0.0180(7) 0.4740(5)
H9 H -0.2887 0.0351 0.4857
C19 C -0.2862(7) -0.0446(7) 0.4167(4)
H10 H -0.3246 -0.0104 0.3890
C20 C -0.2759(6) -0.1547(8) 0.3358(4)
N4 N -0.3290(9) -0.1010(9) 0.2964(5)
C21 C -0.3515(12) -0.1363(14) 0.2367(6)
H11 H -0.3904 -0.1039 0.2082
C22 C -0.3198(11) -0.2122(15) 0.2202(7)
H12 H -0.3334 -0.2319 0.1804
C23 C -0.2671(9) -0.2606(15) 0.2622(7)
H13 H -0.2447 -0.3151 0.2511
C24 C -0.2455(7) -0.2337(10) 0.3194(5)
H14 H -0.2095 -0.2696 0.3476
C25 C 0.0177(5) -0.1249(5) 0.8363(3)
H15 H 0.0563 -0.1273 0.8101
H16 H 0.0502 -0.1195 0.8772
C26 C -0.0317(5) -0.2160(5) 0.8302(3)
H17 H -0.0593 -0.2262 0.7885
H18 H -0.0739 -0.2128 0.8536
C27 C -0.0259(5) -0.4116(5) 0.8553(3)
C28 C -0.0198(6) -0.4685(6) 0.9040(4)
H19 H 0.0175 -0.4539 0.9398
C29 C -0.0680(7) -0.5472(6) 0.9009(5)
H20 H -0.0642 -0.5843 0.9346
C30 C -0.1203(7) -0.5698(7) 0.8488(5)
H21 H -0.1510 -0.6243 0.8460
C31 C -0.1289(7) -0.5116(7) 0.7985(5)
H22 H -0.1666 -0.5260 0.7629
C32 C -0.0810(6) -0.4333(6) 0.8027(4)
H23 H -0.0860 -0.3947 0.7696
C33 C 0.0813(5) -0.2835(5) 0.9356(3)
C34 C 0.1641(7) -0.2882(8) 0.9593(4)
H24 H 0.1991 -0.3099 0.9357
C35 C 0.1984(8) -0.2609(10) 1.0186(5)
H25 H 0.2554 -0.2654 1.0345
C36 C 0.1467(8) -0.2276(8) 1.0527(4)
H26 H 0.1689 -0.2069 1.0916
C37 C 0.0628(9) -0.2245(7) 1.0302(4)
H27 H 0.0280 -0.2035 1.0541
C38 C 0.0292(7) -0.2531(6) 0.9713(4)
H28 H -0.0280 -0.2517 0.9562
C39 C -0.1105(6) -0.0241(5) 0.8723(4)
C40 C -0.0762(7) -0.0421(8) 0.9327(4)
H29 H -0.0189 -0.0490 0.9457
C41 C -0.1256(9) -0.0498(9) 0.9735(5)
H30 H -0.1013 -0.0626 1.0135
C42 C -0.2093(11) -0.0388(10) 0.9563(7)
H31 H -0.2429 -0.0451 0.9836
C43 C -0.2427(10) -0.0181(13) 0.8975(9)
H32 H -0.2997 -0.0084 0.8854
C44 C -0.1941(7) -0.0110(9) 0.8545(6)
H33 H -0.2187 0.0025 0.8147
C45 C 0.0268(6) 0.0724(5) 0.8391(3)
C46 C 0.1107(6) 0.0600(6) 0.8568(4)
H34 H 0.1314 0.0001 0.8625
C47 C 0.1658(7) 0.1327(7) 0.8666(5)
H35 H 0.2228 0.1220 0.8774
C48 C 0.1351(8) 0.2222(7) 0.8602(4)
H36 H 0.1714 0.2723 0.8666
C49 C 0.0525(8) 0.2362(6) 0.8445(4)
H37 H 0.0326 0.2966 0.8407
C50 C -0.0046(4) 0.1632(4) 0.8338(2)
H38 H -0.0616 0.1743 0.8235
Au1A Au -0.13955(2) 0.18754(2) 0.697119(13)
Au2A Au 0.11588(2) -0.52084(2) 0.779740(13)
C51 C 0.3798(4) -0.0998(4) 0.3484(2)
Cl1 Cl 0.3909(4) -0.1041(4) 0.4238(2)
Cl2 Cl 0.4042(4) 0.0050(4) 0.3243(2)
C52 C 0.5222(4) -0.3144(4) 0.2998(2)
Cl3 Cl 0.5629(4) -0.3160(4) 0.3750(2)
Cl4 Cl 0.5217(4) -0.4242(4) 0.2739(2)
C53 C 0.3202(4) -0.3435(4) 0.3939(2)
Cl5 Cl 0.3464(4) -0.3914(4) 0.4636(2)
Cl6 Cl 0.3143(4) -0.4327(4) 0.3451(2)
Cl7? Cl 0.4727(4) -0.0705(4) 0.3331(2)
Cl8? Cl 0.5179(4) -0.2245(4) 0.3466(2)
Cl9? Cl 0.5318(4) -0.4129(4) 0.3415(2)
loop_
_geom_bond_atom_site_label_1
_geom_bond_atom_site_label_2
_geom_bond_site_symmetry_1
_geom_bond_site_symmetry_2
Au1 P1 1_555 1_555
Au2 P2 1_555 1_555
P1 C26 1_555 1_555
P2 C25 1_555 1_555
C1 Au1 1_555 1_555
C2 C1 1_555 1_555
C3 Au2 1_555 1_555
C4 C3 1_555 1_555
C5 N1 1_555 1_555
N1 C6 1_555 1_555
C6 H1 1_555 1_555
C7 C2 1_555 1_555
C8 C7 1_555 1_555
H2 C8 1_555 1_555
C9 C5 1_555 1_555
H3 C9 1_555 1_555
C10 C5 1_555 1_555
N2 C10 1_555 1_555
C11 N2 1_555 1_555
H4 C11 1_555 1_555
C12 C11 1_555 1_555
H5 C12 1_555 1_555
C13 C12 1_555 1_555
H6 C13 1_555 1_555
C14 C10 1_555 1_555
H7 C14 1_555 1_555
C15 N3 1_555 1_555
N3 C16 1_555 1_555
C16 H8 1_555 1_555
C17 C4 1_555 1_555
C18 C17 1_555 1_555
H9 C18 1_555 1_555
C19 C15 1_555 1_555
H10 C19 1_555 1_555
C20 C15 1_555 1_555
N4 C20 1_555 1_555
C21 N4 1_555 1_555
H11 C21 1_555 1_555
C22 C21 1_555 1_555
H12 C22 1_555 1_555
C23 C22 1_555 1_555
H13 C23 1_555 1_555
C24 C20 1_555 1_555
H14 C24 1_555 1_555
C25 H15 1_555 1_555
H16 C25 1_555 1_555
C26 C25 1_555 1_555
H17 C26 1_555 1_555
H18 C26 1_555 1_555
C27 P1 1_555 1_555
C28 C27 1_555 1_555
H19 C28 1_555 1_555
C29 C28 1_555 1_555
H20 C29 1_555 1_555
C30 C29 1_555 1_555
H21 C30 1_555 1_555
C31 C30 1_555 1_555
H22 C31 1_555 1_555
C32 C27 1_555 1_555
H23 C32 1_555 1_555
C33 P1 1_555 1_555
C34 C33 1_555 1_555
H24 C34 1_555 1_555
C35 C34 1_555 1_555
H25 C35 1_555 1_555
C36 C35 1_555 1_555
H26 C36 1_555 1_555
C37 C36 1_555 1_555
H27 C37 1_555 1_555
C38 C33 1_555 1_555
H28 C38 1_555 1_555
C39 P2 1_555 1_555
C40 C39 1_555 1_555
H29 C40 1_555 1_555
C41 C40 1_555 1_555
H30 C41 1_555 1_555
C42 C41 1_555 1_555
H31 C42 1_555 1_555
C43 C42 1_555 1_555
H32 C43 1_555 1_555
C44 C39 1_555 1_555
H33 C44 1_555 1_555
C45 P2 1_555 1_555
C46 C45 1_555 1_555
H34 C46 1_555 1_555
C47 C46 1_555 1_555
H35 C47 1_555 1_555
C48 C47 1_555 1_555
H36 C48 1_555 1_555
C49 C48 1_555 1_555
H37 C49 1_555 1_555
C50 C45 1_555 1_555
H38 C50 1_555 1_555
C51 Cl1 1_555 1_555
Cl2 C51 1_555 1_555
C52 Cl3 1_555 1_555
Cl4 C52 1_555 1_555
C53 Cl5 1_555 1_555
Cl6 C53 1_555 1_555
Au1A Au2 1_555 1_555
Au2A Au1 1_555 1_555
C6 C7 1_555 1_555
C8 C9 1_555 1_555
C13 C14 1_555 1_555
C16 C17 1_555 1_555
C18 C19 1_555 1_555
C23 C24 1_555 1_555
C31 C32 1_555 1_555
C37 C38 1_555 1_555
C43 C44 1_555 1_555
C49 C50 1_555 1_555

#END
