
#######################################################################
#
#                 Cambridge Crystallographic Data Centre
#                                CCDC 
#
#######################################################################
#
# If this CIF has been generated from an entry in the Cambridge 
# Structural Database, then it will include bibliographic, chemical, 
# crystal, experimental, refinement or atomic coordinate data resulting 
# from the CCDC's data processing and validation procedures.
#
#######################################################################

data_TONJOX
_symmetry_cell_setting           monoclinic
_symmetry_space_group_name_H-M   'P 21/n'
_symmetry_Int_Tables_number      14
_space_group_name_Hall           '-P 2yn'
loop_
_symmetry_equiv_pos_site_id
_symmetry_equiv_pos_as_xyz
1 x,y,z
2 1/2-x,1/2+y,1/2-z
3 -x,-y,-z
4 1/2+x,1/2-y,1/2+z
_cell_length_a                   21.949(6)
_cell_length_b                   17.918(4)
_cell_length_c                   24.002(6)
_cell_angle_alpha                90
_cell_angle_beta                 113.989(4)
_cell_angle_gamma                90
_cell_volume                     8624.2
loop_
_atom_site_label
_atom_site_type_symbol
_atom_site_fract_x
_atom_site_fract_y
_atom_site_fract_z
U1 U 1.11941(2) 1.09359(2) 0.730857(19)
U2 U 0.87834(2) 0.93335(2) 0.769362(19)
U3 U 0.65241(2) 1.06154(2) 0.79225(2)
U4 U 0.34554(2) 0.96545(2) 0.70529(2)
P1 P 1.27652(15) 1.14712(16) 0.72886(14)
P2 P 0.86269(15) 0.76464(17) 0.67189(14)
P3 P 0.72040(14) 0.87941(16) 0.76918(13)
P4 P 0.83880(15) 1.07113(17) 0.86699(13)
P5 P 0.36347(15) 0.76284(17) 0.67057(14)
P6 P 0.15840(15) 0.95110(17) 0.63622(13)
O1 O 1.1804(4) 1.0421(4) 0.7891(3)
O2 O 1.0569(4) 1.1454(4) 0.6731(4)
O3 O 1.0394(4) 0.9882(4) 0.7049(3)
O4 O 1.0489(4) 1.0892(4) 0.7883(3)
O5 O 1.2015(3) 1.1528(4) 0.7099(3)
O6 O 1.2976(4) 1.0846(4) 0.7003(4)
O7 O 1.3013(7) 1.1907(9) 0.8410(6)
H1 H 1.2605 1.1917 0.8281
O8 O 0.9602(4) 1.0385(4) 0.7978(3)
O9 O 0.9509(4) 0.9386(4) 0.7145(4)
O10 O 0.9385(4) 0.8811(4) 0.8275(4)
O11 O 0.8180(4) 0.9854(4) 0.7100(3)
O12 O 0.8504(4) 0.8302(4) 0.7053(3)
O13 O 0.8647(4) 1.0076(4) 0.8420(3)
O14 O 0.8490(4) 0.6897(4) 0.6936(3)
O15 O 0.9678(5) 0.7143(6) 0.6523(5)
H2 H 0.9582 0.6739 0.6626
O16 O 0.9544(6) 1.1406(7) 0.8904(5)
H3 H 0.9733 1.1691 0.8758
O17 O 0.7660(4) 1.0882(4) 0.8341(3)
O18 O 0.6539(4) 1.0434(4) 0.8642(4)
O19 O 0.6480(4) 1.0785(5) 0.7185(4)
O20 O 0.6995(4) 0.9431(4) 0.7975(4)
O21 O 0.7954(3) 0.8711(4) 0.7885(3)
O22 O 0.6959(7) 0.8395(8) 0.6581(6)
H4 H 0.7203 0.8095 0.6830
O23 O 0.5660(4) 0.9640(4) 0.7459(4)
O24 O 0.5361(4) 1.1005(4) 0.7678(4)
O25 O 0.4319(4) 1.0640(5) 0.7492(5)
O26 O 0.4616(4) 0.9274(5) 0.7275(5)
O27 O 0.3413(4) 0.9818(4) 0.6327(4)
O28 O 0.3538(4) 0.9513(5) 0.7801(4)
O29 O 0.2321(4) 0.9388(4) 0.6689(3)
O30 O 0.3469(4) 0.8363(4) 0.6896(4)
O31 O 0.4641(7) 0.8034(8) 0.6516(6)
H5 H 0.4641 0.8410 0.6711
O32 O 0.3549(4) 0.6974(4) 0.7059(3)
O33 O 0.1307(4) 1.0203(4) 0.6541(3)
O34 O 0.0455(6) 0.8801(6) 0.6220(5)
H6 H 0.0360 0.9110 0.6424
C1 C 1.0020(6) 1.0427(6) 0.7756(5)
C2 C 0.9972(6) 0.9834(6) 0.7281(5)
C3 C 0.4886(6) 1.0528(7) 0.7544(6)
C4 C 0.5070(7) 0.9736(7) 0.7408(6)
C5 C 1.3195(7) 1.1381(8) 0.8114(5)
H7 H 1.3100 1.0894 0.8236
H8 H 1.3672 1.1414 0.8229
C6 C 1.2995(5) 1.2362(6) 0.7094(5)
C7 C 1.3562(6) 1.2421(7) 0.6951(5)
H9 H 1.3819 1.2004 0.6963
C8 C 1.3717(7) 1.3099(8) 0.6798(6)
H10 H 1.4088 1.3143 0.6706
C9 C 1.3340(7) 1.3732(8) 0.6774(5)
H11 H 1.3455 1.4192 0.6665
C10 C 1.2795(7) 1.3665(7) 0.6915(6)
H12 H 1.2540 1.4084 0.6903
C11 C 1.2621(6) 1.2986(6) 0.7074(5)
H13 H 1.2251 1.2948 0.7168
C12 C 0.9500(6) 0.7702(8) 0.6812(6)
H14 H 0.9570 0.8178 0.6654
H15 H 0.9789 0.7686 0.7243
C13 C 0.8125(6) 0.7769(8) 0.5926(5)
C14 C 0.7939(8) 0.8480(10) 0.5695(7)
H16 H 0.8087 0.8888 0.5954
C15 C 0.7528(11) 0.8598(14) 0.5069(9)
H17 H 0.7373 0.9070 0.4915
C16 C 0.7372(10) 0.7977(16) 0.4703(9)
H18 H 0.7132 0.8043 0.4286
C17 C 0.7538(11) 0.7309(16) 0.4902(10)
H19 H 0.7403 0.6908 0.4633
C18 C 0.7930(9) 0.7181(10) 0.5540(7)
H20 H 0.8049 0.6699 0.5685
C19 C 0.6756(8) 0.8909(8) 0.6869(6)
H21 H 0.6280 0.8857 0.6755
H22 H 0.6838 0.9403 0.6750
C20 C 0.6929(6) 0.7936(6) 0.7873(5)
C21 C 0.6385(7) 0.7881(7) 0.8040(6)
H23 H 0.6158 0.8307 0.8068
C22 C 0.6192(7) 0.7195(8) 0.8160(5)
H24 H 0.5816 0.7158 0.8246
C23 C 0.6536(7) 0.6567(8) 0.8159(5)
H25 H 0.6402 0.6112 0.8259
C24 C 0.7068(7) 0.6588(7) 0.8016(6)
H26 H 0.7300 0.6154 0.8017
C25 C 0.7263(6) 0.7266(7) 0.7867(5)
H27 H 0.7625 0.7280 0.7759
C26 C 0.8849(6) 1.1552(7) 0.8641(6)
H28 H 0.8713 1.1708 0.8221
H29 H 0.8748 1.1953 0.8862
C27 C 0.8585(6) 1.0518(6) 0.9459(5)
C28 C 0.8118(9) 1.0460(13) 0.9675(7)
H30 H 0.7679 1.0565 0.9415
C29 C 0.8258(13) 1.0247(13) 1.0283(11)
H31 H 0.7922 1.0136 1.0412
C30 C 0.8928(10) 1.0212(10) 1.0675(8)
H32 H 0.9048 1.0154 1.1091
C31 C 0.9394(11) 1.0259(12) 1.0467(7)
H33 H 0.9838 1.0188 1.0732
C32 C 0.9236(8) 1.0416(11) 0.9851(7)
H34 H 0.9572 1.0449 0.9710
C33 C 0.4512(8) 0.7496(10) 0.6752(8)
H35 H 0.4827 0.7456 0.7174
H36 H 0.4537 0.7044 0.6540
C34 C 0.3129(6) 0.7451(8) 0.5922(6)
C35 C 0.2924(8) 0.8044(11) 0.5512(7)
H37 H 0.3028 0.8535 0.5639
C36 C 0.2550(11) 0.7861(18) 0.4889(10)
H38 H 0.2418 0.8253 0.4611
C37 C 0.2377(12) 0.7193(18) 0.4678(10)
H39 H 0.2113 0.7099 0.4269
C38 C 0.2609(9) 0.6647(15) 0.5095(9)
H40 H 0.2507 0.6158 0.4958
C39 C 0.2988(8) 0.6751(10) 0.5711(7)
H41 H 0.3141 0.6345 0.5973
C40 C 0.1155(6) 0.8697(8) 0.6467(6)
H42 H 0.1259 0.8272 0.6271
H43 H 0.1314 0.8589 0.6899
C41 C 0.1370(5) 0.9545(5) 0.5549(3)
C42 C 0.0701(4) 0.9494(6) 0.5153(5)
H44 H 0.0377 0.9443 0.5308
C43 C 0.0516(5) 0.9517(7) 0.4527(4)
H45 H 0.0069 0.9483 0.4262
C44 C 0.1000(7) 0.9592(6) 0.4296(3)
H46 H 0.0877 0.9608 0.3877
C45 C 0.1669(6) 0.9643(7) 0.4692(5)
H47 H 0.1993 0.9693 0.4538
C46 C 0.1854(4) 0.9620(7) 0.5319(5)
H48 H 0.2301 0.9654 0.5583
U1_2 U 0.11941(2) 1.09359(2) 0.730857(19)
U1A U 0.38059(2) 0.59359(2) 0.769143(19)
U3A U 0.84759(2) 0.56154(2) 0.70775(2)
U4_2 U 1.34554(2) 0.96545(2) 0.70529(2)
O6_2 O 0.2976(4) 1.0846(4) 0.7003(4)
O14A O 0.6510(4) 1.1897(4) 0.8064(3)
O32A O 1.1451(4) 1.1974(4) 0.7941(3)
O33_2 O 1.1307(4) 1.0203(4) 0.6541(3)
N1 N 0.9031(6) 0.6995(8) -0.0342(6)
N2 N 0.8725(6) 0.7959(8) -0.0946(7)
H49 H 0.8550 0.8230 -0.1268
C47 C 0.9192(9) 0.7643(10) 0.0005(9)
H50 H 0.9384 0.7670 0.0428
C48 C 0.9018(11) 0.8221(12) -0.0383(9)
H51 H 0.9091 0.8722 -0.0275
C49 C 0.8741(7) 0.7218(10) -0.0940(7)
H52 H 0.8583 0.6906 -0.1279
C50 C 0.9115(8) 0.6245(9) -0.0135(7)
C51 C 0.8665(9) 0.5716(10) -0.0483(8)
H53 H 0.8314 0.5849 -0.0847
C52 C 0.8746(8) 0.4973(9) -0.0280(7)
H54 H 0.8440 0.4615 -0.0508
C53 C 0.9281(8) 0.4761(9) 0.0265(6)
C54 C 0.9716(8) 0.5343(9) 0.0584(6)
H55 H 1.0078 0.5227 0.0945
C55 C 0.9634(8) 0.6072(9) 0.0389(6)
H56 H 0.9931 0.6439 0.0615
C56 C 0.9387(7) 0.3994(8) 0.0462(6)
C57 C 0.9142(8) 0.3396(10) 0.0048(7)
H57 H 0.8884 0.3491 -0.0362
C58 C 0.9285(9) 0.2674(9) 0.0251(7)
H58 H 0.9132 0.2287 -0.0030
C59 C 0.9644(8) 0.2506(10) 0.0851(7)
H59 H 0.9716 0.2014 0.0984
C60 C 0.9892(9) 0.3079(10) 0.1247(7)
H60 H 1.0159 0.2978 0.1655
C61 C 0.9756(9) 0.3797(10) 0.1059(7)
H61 H 0.9920 0.4175 0.1348
N3 N 0.9072(6) 0.7256(8) 0.4781(6)
N4 N 0.8809(8) 0.8291(11) 0.4273(8)
H62 H 0.8637 0.8604 0.3978
C62 C 0.9303(9) 0.7838(11) 0.5173(7)
H63 H 0.9534 0.7792 0.5594
C63 C 0.9154(11) 0.8485(12) 0.4873(10)
H64 H 0.9262 0.8963 0.5034
C64 C 0.8777(10) 0.7583(13) 0.4214(8)
H65 H 0.8586 0.7328 0.3846
C65 C 0.9134(8) 0.6477(10) 0.4941(7)
C66 C 0.8719(11) 0.5967(13) 0.4591(9)
H66 H 0.8378 0.6116 0.4226
C67 C 0.8772(12) 0.5210(12) 0.4751(9)
H67 H 0.8443 0.4885 0.4506
C68 C 0.9286(9) 0.4929(12) 0.5249(8)
C69 C 0.9748(10) 0.5449(11) 0.5598(7)
H68 H 1.0105 0.5291 0.5949
C70 C 0.9698(9) 0.6216(12) 0.5440(7)
H69 H 1.0036 0.6545 0.5666
C71 C 0.9375(9) 0.4129(11) 0.5421(9)
C72 C 0.9045(9) 0.3607(12) 0.4992(9)
H70 H 0.8746 0.3747 0.4604
C73 C 0.9167(10) 0.2861(11) 0.5149(9)
H71 H 0.8955 0.2501 0.4854
C74 C 0.9581(11) 0.2637(12) 0.5713(12)
H72 H 0.9648 0.2131 0.5803
C75 C 0.9903(11) 0.3155(14) 0.6152(10)
H73 H 1.0193 0.3009 0.6542
C76 C 0.9785(10) 0.3900(13) 0.6003(8)
H74 H 0.9986 0.4258 0.6302
loop_
_geom_bond_atom_site_label_1
_geom_bond_atom_site_label_2
_geom_bond_site_symmetry_1
_geom_bond_site_symmetry_2
U1 O1 1_555 1_555
U2 O8 1_555 1_555
U3 O17 1_555 1_555
U4 O25 1_555 1_555
P1 O5 1_555 1_555
P2 O12 1_555 1_555
P3 O20 1_555 1_555
P4 O13 1_555 1_555
P5 O30 1_555 1_555
P6 O29 1_555 1_555
O2 U1 1_555 1_555
O3 U1 1_555 1_555
O4 U1 1_555 1_555
O5 U1 1_555 1_555
O6 P1 1_555 1_555
O7 H1 1_555 1_555
O8 C1 1_555 1_555
O9 U2 1_555 1_555
O10 U2 1_555 1_555
O11 U2 1_555 1_555
O12 U2 1_555 1_555
O13 U2 1_555 1_555
O14 P2 1_555 1_555
O15 H2 1_555 1_555
O16 H3 1_555 1_555
O17 P4 1_555 1_555
O18 U3 1_555 1_555
O19 U3 1_555 1_555
O20 U3 1_555 1_555
O21 U2 1_555 1_555
O22 H4 1_555 1_555
O23 U3 1_555 1_555
O24 U3 1_555 1_555
O25 C3 1_555 1_555
O26 U4 1_555 1_555
O27 U4 1_555 1_555
O28 U4 1_555 1_555
O29 U4 1_555 1_555
O30 U4 1_555 1_555
O31 H5 1_555 1_555
O32 P5 1_555 1_555
O33 P6 1_555 1_555
O34 H6 1_555 1_555
C1 O4 1_555 1_555
C2 O3 1_555 1_555
C3 O24 1_555 1_555
C4 O23 1_555 1_555
C5 P1 1_555 1_555
H7 C5 1_555 1_555
H8 C5 1_555 1_555
C6 P1 1_555 1_555
C7 C6 1_555 1_555
H9 C7 1_555 1_555
C8 C7 1_555 1_555
H10 C8 1_555 1_555
C9 C8 1_555 1_555
H11 C9 1_555 1_555
C10 C9 1_555 1_555
H12 C10 1_555 1_555
C11 C6 1_555 1_555
H13 C11 1_555 1_555
C12 P2 1_555 1_555
H14 C12 1_555 1_555
H15 C12 1_555 1_555
C13 P2 1_555 1_555
C14 C13 1_555 1_555
H16 C14 1_555 1_555
C15 C14 1_555 1_555
H17 C15 1_555 1_555
C16 C15 1_555 1_555
H18 C16 1_555 1_555
C17 C16 1_555 1_555
H19 C17 1_555 1_555
C18 C13 1_555 1_555
H20 C18 1_555 1_555
C19 P3 1_555 1_555
H21 C19 1_555 1_555
H22 C19 1_555 1_555
C20 P3 1_555 1_555
C21 C20 1_555 1_555
H23 C21 1_555 1_555
C22 C21 1_555 1_555
H24 C22 1_555 1_555
C23 C22 1_555 1_555
H25 C23 1_555 1_555
C24 C23 1_555 1_555
H26 C24 1_555 1_555
C25 C20 1_555 1_555
H27 C25 1_555 1_555
C26 P4 1_555 1_555
H28 C26 1_555 1_555
H29 C26 1_555 1_555
C27 P4 1_555 1_555
C28 C27 1_555 1_555
H30 C28 1_555 1_555
C29 C28 1_555 1_555
H31 C29 1_555 1_555
C30 C29 1_555 1_555
H32 C30 1_555 1_555
C31 C30 1_555 1_555
H33 C31 1_555 1_555
C32 C27 1_555 1_555
H34 C32 1_555 1_555
C33 P5 1_555 1_555
H35 C33 1_555 1_555
H36 C33 1_555 1_555
C34 P5 1_555 1_555
C35 C34 1_555 1_555
H37 C35 1_555 1_555
C36 C35 1_555 1_555
H38 C36 1_555 1_555
C37 C36 1_555 1_555
H39 C37 1_555 1_555
C38 C37 1_555 1_555
H40 C38 1_555 1_555
C39 C34 1_555 1_555
H41 C39 1_555 1_555
C40 P6 1_555 1_555
H42 C40 1_555 1_555
H43 C40 1_555 1_555
C41 P6 1_555 1_555
C42 C41 1_555 1_555
H44 C42 1_555 1_555
C43 C42 1_555 1_555
H45 C43 1_555 1_555
C44 C43 1_555 1_555
H46 C44 1_555 1_555
C45 C44 1_555 1_555
H47 C45 1_555 1_555
C46 C41 1_555 1_555
H48 C46 1_555 1_555
N1 C47 1_555 1_555
N2 H49 1_555 1_555
C47 H50 1_555 1_555
C48 N2 1_555 1_555
H51 C48 1_555 1_555
C49 N1 1_555 1_555
H52 C49 1_555 1_555
C50 N1 1_555 1_555
C51 C50 1_555 1_555
H53 C51 1_555 1_555
C52 C51 1_555 1_555
H54 C52 1_555 1_555
C53 C52 1_555 1_555
C54 C53 1_555 1_555
H55 C54 1_555 1_555
C55 C50 1_555 1_555
H56 C55 1_555 1_555
C56 C53 1_555 1_555
C57 C56 1_555 1_555
H57 C57 1_555 1_555
C58 C57 1_555 1_555
H58 C58 1_555 1_555
C59 C58 1_555 1_555
H59 C59 1_555 1_555
C60 C59 1_555 1_555
H60 C60 1_555 1_555
C61 C56 1_555 1_555
H61 C61 1_555 1_555
N3 C62 1_555 1_555
N4 H62 1_555 1_555
C62 H63 1_555 1_555
C63 N4 1_555 1_555
H64 C63 1_555 1_555
C64 N3 1_555 1_555
H65 C64 1_555 1_555
C65 N3 1_555 1_555
C66 C65 1_555 1_555
H66 C66 1_555 1_555
C67 C66 1_555 1_555
H67 C67 1_555 1_555
C68 C67 1_555 1_555
C69 C68 1_555 1_555
H68 C69 1_555 1_555
C70 C65 1_555 1_555
H69 C70 1_555 1_555
C71 C68 1_555 1_555
C72 C71 1_555 1_555
H70 C72 1_555 1_555
C73 C72 1_555 1_555
H71 C73 1_555 1_555
C74 C73 1_555 1_555
H72 C74 1_555 1_555
C75 C74 1_555 1_555
H73 C75 1_555 1_555
C76 C71 1_555 1_555
H74 C76 1_555 1_555
U1_2 O33 1_555 1_555
U1A O32 1_555 1_555
U3A O14 1_555 1_555
U4_2 O6 1_555 1_555
O6_2 U4 1_555 1_555
O14A U3 1_555 1_555
O32A U1 1_555 1_555
O33_2 U1 1_555 1_555
P3 O21 1_555 1_555
O7 C5 1_555 1_555
O9 C2 1_555 1_555
O15 C12 1_555 1_555
O16 C26 1_555 1_555
O22 C19 1_555 1_555
O26 C4 1_555 1_555
O31 C33 1_555 1_555
O34 C40 1_555 1_555
C1 C2 1_555 1_555
C3 C4 1_555 1_555
C10 C11 1_555 1_555
C17 C18 1_555 1_555
C24 C25 1_555 1_555
C31 C32 1_555 1_555
C38 C39 1_555 1_555
C45 C46 1_555 1_555
N2 C49 1_555 1_555
C47 C48 1_555 1_555
C54 C55 1_555 1_555
C60 C61 1_555 1_555
N4 C64 1_555 1_555
C62 C63 1_555 1_555
C69 C70 1_555 1_555
C75 C76 1_555 1_555

#END
