
#######################################################################
#
#                 Cambridge Crystallographic Data Centre
#                                CCDC 
#
#######################################################################
#
# If this CIF has been generated from an entry in the Cambridge 
# Structural Database, then it will include bibliographic, chemical, 
# crystal, experimental, refinement or atomic coordinate data resulting 
# from the CCDC's data processing and validation procedures.
#
#######################################################################

data_TONJIR
_symmetry_cell_setting           monoclinic
_symmetry_space_group_name_H-M   'P 21/m'
_symmetry_Int_Tables_number      11
_space_group_name_Hall           '-P 2yb'
loop_
_symmetry_equiv_pos_site_id
_symmetry_equiv_pos_as_xyz
1 x,y,z
2 -x,1/2+y,-z
3 -x,-y,-z
4 x,1/2-y,z
_cell_length_a                   10.5513(7)
_cell_length_b                   17.4551(11)
_cell_length_c                   11.0376(7)
_cell_angle_alpha                90
_cell_angle_beta                 118.4590(10)
_cell_angle_gamma                90
_cell_volume                     1787.19
loop_
_atom_site_label
_atom_site_type_symbol
_atom_site_fract_x
_atom_site_fract_y
_atom_site_fract_z
U1 U 0.72366(3) 0.099904(18) 0.94987(3)
P1 P 0.9375(4) 0.2500 0.8908(5)
P2 P 0.8593(4) 0.2500 1.2196(3)
O1 O 0.8600(7) 0.0314(4) 1.0292(6)
O2 O 0.5783(6) 0.1628(3) 0.8619(6)
O3 O 0.5382(6) -0.0014(3) 0.8634(6)
O4 O 0.3785(6) -0.0683(4) 0.8957(6)
O5 O 0.8320(7) 0.1775(4) 1.1415(6)
O6 O 0.8676(7) 0.1768(4) 0.8987(7)
O7 O 0.716(3) 0.1878(10) 1.331(2)
H1 H 0.7127 0.1531 1.2791
O8 O 1.046(3) 0.1944(15) 0.739(3)
H2 H 1.0209 0.1821 0.6590
N1 N 0.7027(8) 0.0544(5) 0.7250(7)
N2 N 0.7976(8) 0.0359(5) 0.5882(7)
C1 C 0.6060(12) 0.0771(8) 0.5981(11)
H3 H 0.5142 0.0956 0.5730
C2 C 0.8159(10) 0.0303(5) 0.7160(9)
H4 H 0.8993 0.0116 0.7902
C3 C 0.6648(13) 0.0686(9) 0.5104(11)
H5 H 0.6228 0.0822 0.4178
C4 C 0.9012(10) 0.0184(6) 0.5426(9)
C5 C 0.8566(10) -0.0004(6) 0.4089(9)
H6 H 0.7586 -0.0002 0.3465
C6 C 1.0460(11) 0.0199(6) 0.6365(9)
H7 H 1.0773 0.0337 0.7278
C7 C 0.4762(9) -0.0207(5) 0.9311(8)
C8 C 0.956(3) 0.2500 0.741(2)
C9 C 1.1145(19) 0.2500 1.0461(18)
C10 C 1.1832(19) 0.1799(10) 1.1055(18)
H8 H 1.1391 0.1332 1.0688
C11 C 1.330(2) 0.1834(12) 1.230(2)
H9 H 1.3810 0.1381 1.2656
C12 C 1.391(3) 0.2500 1.291(3)
H10 H 1.4741 0.2500 1.3761
C13 C 0.733(3) 0.2500 1.285(2)
C14 C 1.0310(15) 0.2500 1.3571(15)
C15 C 1.1040(17) 0.1866(8) 1.4200(18)
H11 H 1.0606 0.1398 1.3834
C16 C 1.302(2) 0.2500 1.593(3)
H12 H 1.3887 0.2500 1.6748
C17 C 1.2407(19) 0.1848(10) 1.5367(18)
H13 H 1.2870 0.1385 1.5727
O6C O 0.8676(7) 0.3232(4) 0.8987(7)
O8C O 1.046(3) 0.3056(15) 0.739(3)
H2C H 1.0209 0.3179 0.6590
C10C C 1.1832(19) 0.3201(10) 1.1055(18)
H8C H 1.1391 0.3668 1.0688
C11C C 1.330(2) 0.3166(12) 1.230(2)
H9C H 1.3810 0.3619 1.2656
O5C O 0.8320(7) 0.3225(4) 1.1415(6)
O7C O 0.716(3) 0.3122(10) 1.331(2)
H1C H 0.7127 0.3469 1.2791
C15C C 1.1040(17) 0.3134(8) 1.4200(18)
H11C H 1.0606 0.3602 1.3834
C17C C 1.2407(19) 0.3152(10) 1.5367(18)
H13C H 1.2870 0.3615 1.5727
O3B O 0.4618(6) 0.0014(3) 1.1366(6)
O4B O 0.6215(6) 0.0683(4) 1.1043(6)
C7B C 0.5238(9) 0.0207(5) 1.0689(8)
N1B N 1.2973(8) -0.0544(5) 0.2750(7)
N2B N 1.2024(8) -0.0359(5) 0.4118(7)
C1B C 1.3940(12) -0.0771(8) 0.4019(11)
H3B H 1.4858 -0.0956 0.4270
C2B C 1.1841(10) -0.0303(5) 0.2840(9)
H4B H 1.1007 -0.0116 0.2098
C3B C 1.3352(13) -0.0686(9) 0.4896(11)
H5B H 1.3772 -0.0822 0.5822
C4B C 1.0988(10) -0.0184(6) 0.4574(9)
C5B C 1.1434(10) 0.0004(6) 0.5911(9)
H6B H 1.2414 0.0002 0.6535
C6B C 0.9540(11) -0.0199(6) 0.3635(9)
H7B H 0.9227 -0.0337 0.2722
U1B U 0.27634(3) -0.099904(18) 1.05013(3)
O1B O 0.1400(7) -0.0314(4) 0.9708(6)
O2B O 0.4217(6) -0.1628(3) 1.1381(6)
U1B_2 U 1.27634(3) -0.099904(18) 0.05013(3)
U1C U 0.72366(3) 0.400096(18) 0.94987(3)
O5B O 0.1680(7) -0.1775(4) 0.8585(6)
O6B O 0.1324(7) -0.1768(4) 1.1013(7)
N1B_2 N 0.2973(8) -0.0544(5) 1.2750(7)
loop_
_geom_bond_atom_site_label_1
_geom_bond_atom_site_label_2
_geom_bond_site_symmetry_1
_geom_bond_site_symmetry_2
U1 O1 1_555 1_555
P1 O6 1_555 1_555
P2 O5 1_555 1_555
O2 U1 1_555 1_555
O3 U1 1_555 1_555
O4 C7 1_555 1_555
O5 U1 1_555 1_555
O6 U1 1_555 1_555
O7 H1 1_555 1_555
O8 H2 1_555 1_555
N1 U1 1_555 1_555
N2 C2 1_555 1_555
C1 N1 1_555 1_555
H3 C1 1_555 1_555
C2 N1 1_555 1_555
H4 C2 1_555 1_555
C3 N2 1_555 1_555
H5 C3 1_555 1_555
C4 N2 1_555 1_555
C5 C4 1_555 1_555
H6 C5 1_555 1_555
C6 C4 1_555 1_555
H7 C6 1_555 1_555
C7 O3 1_555 1_555
C8 P1 1_555 1_555
C9 P1 1_555 1_555
C10 C9 1_555 1_555
H8 C10 1_555 1_555
C11 C10 1_555 1_555
H9 C11 1_555 1_555
C12 C11 1_555 1_555
H10 C12 1_555 1_555
C13 P2 1_555 1_555
C14 P2 1_555 1_555
C15 C14 1_555 1_555
H11 C15 1_555 1_555
C16 H12 1_555 1_555
C17 C15 1_555 1_555
H13 C17 1_555 1_555
O6C P1 1_555 1_555
O8C C8 1_555 1_555
H2C O8C 1_555 1_555
C10C C9 1_555 1_555
H8C C10C 1_555 1_555
C11C C12 1_555 1_555
H9C C11C 1_555 1_555
O5C P2 1_555 1_555
O7C C13 1_555 1_555
H1C O7C 1_555 1_555
C15C C14 1_555 1_555
H11C C15C 1_555 1_555
C17C C16 1_555 1_555
H13C C17C 1_555 1_555
O3B C7B 1_555 1_555
O4B U1 1_555 1_555
C7B C7 1_555 1_555
N1B C1B 1_555 1_555
N2B C2B 1_555 1_555
C1B H3B 1_555 1_555
C2B N1B 1_555 1_555
H4B C2B 1_555 1_555
C3B N2B 1_555 1_555
H5B C3B 1_555 1_555
C4B N2B 1_555 1_555
C5B C6 1_555 1_555
H6B C5B 1_555 1_555
C6B C5 1_555 1_555
H7B C6B 1_555 1_555
U1B O4 1_555 1_555
O1B U1B 1_555 1_555
O2B U1B 1_555 1_555
U1B_2 N1B 1_555 1_555
U1C O6C 1_555 1_555
O5B U1B 1_555 1_555
O6B U1B 1_555 1_555
N1B_2 U1B 1_555 1_555
O7 C13 1_555 1_555
O8 C8 1_555 1_555
C1 C3 1_555 1_555
C16 C17 1_555 1_555
C10C C11C 1_555 1_555
O5C U1C 1_555 1_555
C15C C17C 1_555 1_555
O3B U1B 1_555 1_555
O4B C7B 1_555 1_555
C1B C3B 1_555 1_555
C4B C5B 1_555 1_555
C4B C6B 1_555 1_555

#END
