
#######################################################################
#
#                 Cambridge Crystallographic Data Centre
#                                CCDC 
#
#######################################################################
#
# If this CIF has been generated from an entry in the Cambridge 
# Structural Database, then it will include bibliographic, chemical, 
# crystal, experimental, refinement or atomic coordinate data resulting 
# from the CCDC's data processing and validation procedures.
#
#######################################################################

data_TONKEN
_symmetry_cell_setting           tetragonal
_symmetry_space_group_name_H-M   'I 41/a c d'
_symmetry_Int_Tables_number      142
_space_group_name_Hall           '-I 4bd 2c'
loop_
_symmetry_equiv_pos_site_id
_symmetry_equiv_pos_as_xyz
1 x,y,z
2 1/4-y,3/4+x,1/4+z
3 1/2-x,-y,1/2+z
4 1/4+y,1/4-x,3/4+z
5 x,-y,1/2-z
6 1/4+y,3/4+x,3/4-z
7 1/2-x,y,-z
8 1/4-y,1/4-x,1/4-z
9 1/2+x,1/2+y,1/2+z
10 3/4-y,1/4+x,3/4+z
11 -x,1/2-y,z
12 3/4+y,3/4-x,1/4+z
13 1/2+x,1/2-y,-z
14 3/4+y,1/4+x,1/4-z
15 -x,1/2+y,1/2-z
16 3/4-y,3/4-x,3/4-z
17 -x,-y,-z
18 3/4+y,1/4-x,3/4-z
19 1/2+x,y,1/2-z
20 3/4-y,3/4+x,1/4-z
21 -x,y,1/2+z
22 3/4-y,1/4-x,1/4+z
23 1/2+x,-y,z
24 3/4+y,3/4+x,3/4+z
25 1/2-x,1/2-y,1/2-z
26 1/4+y,3/4-x,1/4-z
27 x,1/2+y,-z
28 1/4-y,1/4+x,3/4-z
29 1/2-x,1/2+y,z
30 1/4-y,3/4-x,3/4+z
31 x,1/2-y,1/2+z
32 1/4+y,1/4+x,1/4+z
_cell_length_a                   19.659(3)
_cell_length_b                   19.659(3)
_cell_length_c                   36.149(7)
_cell_angle_alpha                90
_cell_angle_beta                 90
_cell_angle_gamma                90
_cell_volume                     13970.7
loop_
_atom_site_label
_atom_site_type_symbol
_atom_site_fract_x
_atom_site_fract_y
_atom_site_fract_z
In1 In 0.22141(2) 0.47141(2) 0.1250
O1 O 0.2306(3) 0.3506(3) 0.13284(12)
O2 O 0.2172(2) 0.3987(2) 0.07975(12)
O3 O 0.2761(3) 0.0410(2) 0.07807(14)
O4 O 0.2698(3) 0.0903(3) 0.13276(13)
C1 C 0.2490(4) 0.2210(3) 0.02035(19)
C2 C 0.2592(4) 0.1614(4) 0.04048(19)
H1 H 0.2668 0.1198 0.0277
C3 C 0.2585(4) 0.1616(4) 0.07858(19)
C4 C 0.2481(4) 0.2204(3) 0.09825(19)
H2 H 0.2481 0.2197 0.1245
C5 C 0.2374(4) 0.2809(3) 0.07936(19)
C6 C 0.2382(4) 0.2810(4) 0.0405(2)
H3 H 0.2312 0.3226 0.0276
C7 C 0.2296(4) 0.3468(4) 0.0986(2)
C8 C 0.2701(4) 0.0949(4) 0.09757(19)
In1F In 0.27859(2) 0.47141(2) -0.1250
In1S In 0.27859(2) -0.02859(2) 0.1250
In1W In 0.22141(2) -0.02859(2) -0.1250
O1F O 0.2694(3) 0.3506(3) -0.13284(12)
O1M O 0.1006(3) 0.4806(3) 0.11716(12)
O2F O 0.2828(2) 0.3987(2) -0.07975(12)
O2M O 0.1487(2) 0.4672(2) 0.17025(12)
O3F O 0.2239(3) 0.0410(2) -0.07807(14)
O3Y O 0.2910(2) 0.4739(3) 0.17193(14)
O3BA O 0.2239(3) 0.5410(2) 0.07807(14)
O4F O 0.2302(3) 0.0903(3) -0.13276(13)
O4Y O 0.3403(3) 0.4802(3) 0.11724(13)
O4BA O 0.2302(3) 0.5903(3) 0.13276(13)
C1F C 0.2510(4) 0.2210(3) -0.02035(19)
C2F C 0.2408(4) 0.1614(4) -0.04048(19)
H1F H 0.2332 0.1198 -0.0277
C3F C 0.2415(4) 0.1616(4) -0.07858(19)
C4F C 0.2519(4) 0.2204(3) -0.09825(19)
H2F H 0.2519 0.2197 -0.1245
C5F C 0.2626(4) 0.2809(3) -0.07936(19)
C6F C 0.2618(4) 0.2810(4) -0.0405(2)
H3F H 0.2688 0.3226 -0.0276
C7F C 0.2704(4) 0.3468(4) -0.0986(2)
C8F C 0.2299(4) 0.0949(4) -0.09757(19)
loop_
_geom_bond_atom_site_label_1
_geom_bond_atom_site_label_2
_geom_bond_site_symmetry_1
_geom_bond_site_symmetry_2
In1 O1 1_555 1_555
O1 C7 1_555 1_555
O2 In1 1_555 1_555
O3 C8 1_555 1_555
O4 C8 1_555 1_555
C1 C2 1_555 1_555
C2 H1 1_555 1_555
C3 C2 1_555 1_555
C4 C3 1_555 1_555
H2 C4 1_555 1_555
C5 C4 1_555 1_555
C6 C1 1_555 1_555
H3 C6 1_555 1_555
C7 O2 1_555 1_555
C8 C3 1_555 1_555
In1F O1F 1_555 1_555
In1S O3 1_555 1_555
In1W O3F 1_555 1_555
O1F C7F 1_555 1_555
O1M In1 1_555 1_555
O2F In1F 1_555 1_555
O2M In1 1_555 1_555
O3F C8F 1_555 1_555
O3Y In1 1_555 1_555
O3BA In1 1_555 1_555
O4F In1W 1_555 1_555
O4Y In1 1_555 1_555
O4BA In1 1_555 1_555
C1F C1 1_555 1_555
C2F C1F 1_555 1_555
H1F C2F 1_555 1_555
C3F C2F 1_555 1_555
C4F C3F 1_555 1_555
H2F C4F 1_555 1_555
C5F C4F 1_555 1_555
C6F C1F 1_555 1_555
H3F C6F 1_555 1_555
C7F O2F 1_555 1_555
C8F O4F 1_555 1_555
O4 In1S 1_555 1_555
C5 C6 1_555 1_555
C5 C7 1_555 1_555
C3F C8F 1_555 1_555
C5F C6F 1_555 1_555
C5F C7F 1_555 1_555

#END
