
#######################################################################
#
#                 Cambridge Crystallographic Data Centre
#                                CCDC 
#
#######################################################################
#
# If this CIF has been generated from an entry in the Cambridge 
# Structural Database, then it will include bibliographic, chemical, 
# crystal, experimental, refinement or atomic coordinate data resulting 
# from the CCDC's data processing and validation procedures.
#
#######################################################################

data_TONLIT
_symmetry_cell_setting           orthorhombic
_symmetry_space_group_name_H-M   'P b c a'
_symmetry_Int_Tables_number      61
_space_group_name_Hall           '-P 2ac 2ab'
loop_
_symmetry_equiv_pos_site_id
_symmetry_equiv_pos_as_xyz
1 x,y,z
2 1/2-x,-y,1/2+z
3 -x,1/2+y,1/2-z
4 1/2+x,1/2-y,-z
5 -x,-y,-z
6 1/2+x,y,1/2-z
7 x,1/2-y,1/2+z
8 1/2-x,1/2+y,z
_cell_length_a                   21.9035(6)
_cell_length_b                   14.5496(4)
_cell_length_c                   27.9653(6)
_cell_angle_alpha                90
_cell_angle_beta                 90
_cell_angle_gamma                90
_cell_volume                     8912.18
loop_
_atom_site_label
_atom_site_type_symbol
_atom_site_fract_x
_atom_site_fract_y
_atom_site_fract_z
Cd1 Cd 1.05904(2) 0.33788(3) -0.025598(15)
Cd2 Cd 0.93467(2) 0.22070(4) -0.219657(14)
Cd3 Cd 1.00214(2) 0.18173(3) -0.111209(15)
C1 C 1.1599(3) 0.2860(4) -0.1533(2)
C2 C 1.1282(3) 0.2661(4) -0.1955(2)
C3 C 1.1608(3) 0.2571(4) -0.2374(2)
C4 C 1.2235(3) 0.2683(5) -0.2393(2)
H1 H 1.2445 0.2620 -0.2680
C5 C 1.2542(3) 0.2895(6) -0.1969(2)
H2 H 1.2962 0.2993 -0.1974
C6 C 1.2228(3) 0.2961(5) -0.1542(2)
H3 H 1.2439 0.3073 -0.1260
C7 C 1.1279(3) 0.2981(4) -0.1065(2)
C8 C 1.0605(3) 0.2557(5) -0.1996(2)
C9 C 1.1142(3) 0.2859(4) -0.31388(18)
C10 C 1.1034(3) 0.2460(5) -0.35791(19)
H4 H 1.1078 0.1830 -0.3622
C11 C 1.0856(3) 0.3021(5) -0.3956(2)
C12 C 1.0778(3) 0.3936(5) -0.3884(2)
H5 H 1.0656 0.4307 -0.4138
C13 C 1.0876(3) 0.4327(4) -0.34376(19)
C14 C 1.1064(3) 0.3776(4) -0.30615(19)
H6 H 1.1136 0.4028 -0.2761
C15 C 1.0759(3) 0.2586(5) -0.4436(2)
C16 C 1.0785(3) 0.5348(4) -0.3371(2)
C17 C 0.8670(3) 0.2941(4) -0.0499(2)
C18 C 0.8375(3) 0.2820(4) -0.0942(2)
C19 C 0.7748(3) 0.2730(6) -0.0952(2)
H7 H 0.7548 0.2685 -0.1244
C20 C 0.7412(3) 0.2708(6) -0.0535(3)
H8 H 0.6990 0.2641 -0.0547
C21 C 0.7702(3) 0.2784(5) -0.0098(2)
H9 H 0.7478 0.2752 0.0185
C22 C 0.8309(3) 0.2904(4) -0.0084(2)
C23 C 0.9351(3) 0.3090(5) -0.0422(2)
C24 C 0.8728(3) 0.2769(4) -0.1400(2)
C25 C 0.8800(3) 0.2350(4) 0.0619(2)
C26 C 0.8926(3) 0.2547(5) 0.1091(2)
H10 H 0.8888 0.3146 0.1205
C27 C 0.9110(3) 0.1848(5) 0.1397(2)
C28 C 0.9176(3) 0.0963(5) 0.1225(2)
H11 H 0.9288 0.0491 0.1431
C29 C 0.9076(3) 0.0780(5) 0.0744(2)
C30 C 0.8873(3) 0.1473(4) 0.04376(19)
H12 H 0.8789 0.1348 0.0118
C31 C 0.9193(3) 0.2080(5) 0.1919(2)
C32 C 0.9162(3) -0.0175(5) 0.0565(2)
O1 O 1.1563(2) 0.3068(4) -0.06884(15)
O2 O 1.0872(3) 0.4831(4) -0.03270(19)
H13 H 1.079(4) 0.538(3) -0.024(3)
H14 H 1.107(4) 0.492(6) -0.0584(18)
O3 O 1.0687(2) 0.3005(3) -0.10639(14)
O4 O 1.0294(2) 0.3179(4) -0.21725(17)
O5 O 1.0369(2) 0.1783(4) -0.18791(16)
O6 O 1.1303(2) 0.2245(3) -0.27778(13)
O7 O 1.0650(2) 0.1750(3) -0.44570(15)
O8 O 1.0798(2) 0.3066(3) -0.48117(15)
O9 O 1.0663(2) 0.5789(3) -0.37458(17)
O10 O 1.0845(2) 0.5690(3) -0.29639(15)
O11 O 0.93020(19) 0.2909(3) -0.13956(15)
O12 O 0.8452(2) 0.2542(4) -0.17683(14)
O13 O 0.9686(2) 0.2387(3) -0.04221(13)
O14 O 0.9543(2) 0.3853(4) -0.03359(17)
O15 O 0.8604(2) 0.3088(3) 0.03465(14)
O16 O 0.9077(3) -0.0265(4) 0.01062(17)
H15 H 0.911(5) -0.088(7) 0.003(3)
O17 O 0.9278(2) -0.0812(4) 0.08272(17)
O18 O 0.9134(2) 0.1484(4) 0.22258(15)
O19 O 0.9309(3) 0.2909(4) 0.20176(18)
Cd1F Cd 1.05904(2) 0.16212(3) -0.525598(15)
Cd2B Cd 1.06533(2) 0.72070(4) -0.280343(14)
Cd2F Cd 0.93467(2) 0.27930(4) 0.280343(14)
Cd3B Cd 0.99786(2) 0.68173(3) -0.388791(15)
Cd3D Cd 0.99786(2) -0.18173(3) 0.111209(15)
O7F O 1.0650(2) 0.3250(3) 0.05430(15)
O8F O 1.0798(2) 0.1934(3) 0.01883(15)
O9B O 0.9337(2) 0.0789(3) -0.12542(17)
O10B O 0.9155(2) 0.0690(3) -0.20361(15)
O17D O 1.0722(2) 0.0812(4) -0.08272(17)
O18F O 0.9134(2) 0.3516(4) -0.27742(15)
O19F O 0.9309(3) 0.2091(4) -0.29824(18)
C33 C 0.7970(4) 0.5173(7) -0.1336(3)
C34 C 0.7550(7) 0.5138(12) -0.1762(4)
H16 H 0.7787 0.5045 -0.2048
H17 H 0.7330 0.5706 -0.1786
H18 H 0.7267 0.4639 -0.1725
C35 C 0.7089(4) 0.5304(8) -0.0811(4)
H19 H 0.6861 0.5278 -0.1104
H20 H 0.6989 0.5859 -0.0643
H21 H 0.6987 0.4783 -0.0616
C36 C 0.8141(4) 0.5322(7) -0.0503(3)
H22 H 0.8560 0.5316 -0.0605
H23 H 0.8064 0.4798 -0.0304
H24 H 0.8063 0.5874 -0.0325
O20 O 0.8529(3) 0.5104(5) -0.1393(2)
N1 N 0.7744(3) 0.5291(5) -0.0918(3)
C37 C 1.2047(5) 0.5263(6) -0.1205(3)
C38 C 1.2493(5) 0.5218(8) -0.0797(3)
H25 H 1.2274 0.5150 -0.0501
H26 H 1.2730 0.5773 -0.0788
H27 H 1.2760 0.4701 -0.0840
C39 C 1.1817(4) 0.5334(7) -0.2032(3)
H28 H 1.1410 0.5346 -0.1906
H29 H 1.1874 0.4786 -0.2217
H30 H 1.1881 0.5863 -0.2232
C40 C 1.2916(4) 0.5350(7) -0.1755(3)
H31 H 1.3159 0.5365 -0.1469
H32 H 1.3005 0.5881 -0.1946
H33 H 1.3010 0.4804 -0.1934
O21 O 1.1483(2) 0.5190(4) -0.11396(17)
N2 N 1.2266(3) 0.5348(5) -0.1628(3)
C41 C 1.0011(4) 0.5116(9) -0.1415(4)
H34 H 0.9978 0.4721 -0.1141
H35 H 0.9878 0.5724 -0.1331
H36 H 1.0428 0.5137 -0.1519
C42 C 0.9674(5) 0.5344(7) -0.2232(3)
H37 H 0.9421 0.5092 -0.2481
H38 H 1.0090 0.5362 -0.2339
H39 H 0.9540 0.5955 -0.2158
N3 N 0.9629(3) 0.4760(5) -0.1801(3)
H40 H 0.9238 0.4740 -0.1702
H41 H 0.9746 0.4184 -0.1873
loop_
_geom_bond_atom_site_label_1
_geom_bond_atom_site_label_2
_geom_bond_site_symmetry_1
_geom_bond_site_symmetry_2
Cd1 O1 1_555 1_555
Cd2 O4 1_555 1_555
Cd3 O3 1_555 1_555
C1 C2 1_555 1_555
C2 C3 1_555 1_555
C3 C4 1_555 1_555
C4 H1 1_555 1_555
C5 C4 1_555 1_555
H2 C5 1_555 1_555
C6 C1 1_555 1_555
H3 C6 1_555 1_555
C7 C1 1_555 1_555
C8 C2 1_555 1_555
C9 C10 1_555 1_555
C10 H4 1_555 1_555
C11 C10 1_555 1_555
C12 C11 1_555 1_555
H5 C12 1_555 1_555
C13 C12 1_555 1_555
C14 C9 1_555 1_555
H6 C14 1_555 1_555
C15 C11 1_555 1_555
C16 C13 1_555 1_555
C17 C18 1_555 1_555
C18 C19 1_555 1_555
C19 H7 1_555 1_555
C20 C19 1_555 1_555
H8 C20 1_555 1_555
C21 C20 1_555 1_555
H9 C21 1_555 1_555
C22 C17 1_555 1_555
C23 C17 1_555 1_555
C24 C18 1_555 1_555
C25 C26 1_555 1_555
C26 H10 1_555 1_555
C27 C26 1_555 1_555
C28 C27 1_555 1_555
H11 C28 1_555 1_555
C29 C28 1_555 1_555
C30 C25 1_555 1_555
H12 C30 1_555 1_555
C31 C27 1_555 1_555
C32 C29 1_555 1_555
O1 C7 1_555 1_555
O2 Cd1 1_555 1_555
H13 O2 1_555 1_555
H14 O2 1_555 1_555
O3 Cd1 1_555 1_555
O4 C8 1_555 1_555
O5 Cd2 1_555 1_555
O6 C3 1_555 1_555
O7 C15 1_555 1_555
O8 C15 1_555 1_555
O9 C16 1_555 1_555
O10 C16 1_555 1_555
O11 Cd2 1_555 1_555
O12 Cd2 1_555 1_555
O13 Cd1 1_555 1_555
O14 Cd1 1_555 1_555
O15 C22 1_555 1_555
O16 C32 1_555 1_555
H15 O16 1_555 1_555
O17 C32 1_555 1_555
O18 C31 1_555 1_555
O19 C31 1_555 1_555
C33 C34 1_555 1_555
C34 H16 1_555 1_555
H17 C34 1_555 1_555
H18 C34 1_555 1_555
C35 H19 1_555 1_555
H20 C35 1_555 1_555
H21 C35 1_555 1_555
C36 H22 1_555 1_555
H23 C36 1_555 1_555
H24 C36 1_555 1_555
O20 C33 1_555 1_555
N1 C33 1_555 1_555
C37 C38 1_555 1_555
C38 H25 1_555 1_555
H26 C38 1_555 1_555
H27 C38 1_555 1_555
C39 H28 1_555 1_555
H29 C39 1_555 1_555
H30 C39 1_555 1_555
C40 H31 1_555 1_555
H32 C40 1_555 1_555
H33 C40 1_555 1_555
O21 C37 1_555 1_555
N2 C37 1_555 1_555
C41 H34 1_555 1_555
H35 C41 1_555 1_555
H36 C41 1_555 1_555
C42 H37 1_555 1_555
H38 C42 1_555 1_555
H39 C42 1_555 1_555
N3 C41 1_555 1_555
H40 N3 1_555 1_555
H41 N3 1_555 1_555
Cd1F O7 1_555 1_555
Cd2B O10 1_555 1_555
Cd2F O18 1_555 1_555
Cd3B O9 1_555 1_555
Cd3D O17 1_555 1_555
O7F Cd1 1_555 1_555
O8F Cd1 1_555 1_555
O9B Cd3 1_555 1_555
O10B Cd2 1_555 1_555
O17D Cd3 1_555 1_555
O18F Cd2 1_555 1_555
O19F Cd2 1_555 1_555
Cd3 O5 1_555 1_555
Cd3 O11 1_555 1_555
Cd3 O13 1_555 1_555
C5 C6 1_555 1_555
C7 O3 1_555 1_555
C8 O5 1_555 1_555
C9 O6 1_555 1_555
C13 C14 1_555 1_555
C21 C22 1_555 1_555
C23 O13 1_555 1_555
C23 O14 1_555 1_555
C24 O11 1_555 1_555
C24 O12 1_555 1_555
C25 O15 1_555 1_555
C29 C30 1_555 1_555
O8 Cd1F 1_555 1_555
O19 Cd2F 1_555 1_555
C35 N1 1_555 1_555
C36 N1 1_555 1_555
C39 N2 1_555 1_555
C40 N2 1_555 1_555
C42 N3 1_555 1_555

#END
