
#######################################################################
#
#                 Cambridge Crystallographic Data Centre
#                                CCDC 
#
#######################################################################
#
# If this CIF has been generated from an entry in the Cambridge 
# Structural Database, then it will include bibliographic, chemical, 
# crystal, experimental, refinement or atomic coordinate data resulting 
# from the CCDC's data processing and validation procedures.
#
#######################################################################

data_TONMAM
_symmetry_cell_setting           triclinic
_symmetry_space_group_name_H-M   'P -1'
_symmetry_Int_Tables_number      2
_space_group_name_Hall           '-P 1'
loop_
_symmetry_equiv_pos_site_id
_symmetry_equiv_pos_as_xyz
1 x,y,z
2 -x,-y,-z
_cell_length_a                   10.2726(4)
_cell_length_b                   13.3346(5)
_cell_length_c                   15.2745(6)
_cell_angle_alpha                100.554(4)
_cell_angle_beta                 107.524(4)
_cell_angle_gamma                99.341(3)
_cell_volume                     1907.96
loop_
_atom_site_label
_atom_site_type_symbol
_atom_site_fract_x
_atom_site_fract_y
_atom_site_fract_z
Ba1 Ba 1.52788(3) 0.820198(19) 0.490161(17)
Ba2 Ba 1.08845(3) 0.92503(2) 0.391523(17)
C1 C 1.3534(6) 0.6828(5) 0.6406(5)
C2 C 1.3630(7) 0.7458(5) 0.7394(4)
H1 H 1.3755 0.8190 0.7407
H2 H 1.2781 0.7220 0.7513
H3 H 1.4413 0.7353 0.7872
C3 C 1.3272(8) 0.5283(6) 0.7071(5)
H4 H 1.3319 0.5797 0.7616
H5 H 1.4042 0.4949 0.7236
H6 H 1.2403 0.4766 0.6858
C4 C 1.3306(9) 0.5186(6) 0.5389(5)
H7 H 1.3384 0.5644 0.4981
H8 H 1.2433 0.4670 0.5101
H9 H 1.4071 0.4841 0.5485
C5 C 0.7827(4) 0.6179(3) -0.0770(3)
C6 C 1.1533(4) 0.7599(3) -0.0200(3)
C7 C 0.7596(4) 0.6957(3) -0.1241(3)
H10 H 0.7682 0.7637 -0.0910
C8 C 1.0948(4) 0.7363(3) -0.1188(3)
C9 C 0.7234(4) 0.6706(3) -0.2220(3)
C10 C 0.7732(4) 0.5176(3) -0.1244(3)
H11 H 0.7930 0.4670 -0.0910
C11 C 1.1367(4) 0.9396(3) -0.0136(3)
H12 H 1.1509 1.0075 0.0220
C12 C 0.7340(4) 0.4920(3) -0.2222(3)
C13 C 1.0569(4) 0.8146(3) -0.1635(3)
H13 H 1.0184 0.7990 -0.2292
C14 C 1.0761(4) 0.9153(3) -0.1110(3)
C15 C 1.1757(4) 0.8625(3) 0.0302(3)
C16 C 0.9146(4) 0.7025(3) 0.2103(3)
C17 C 0.7096(4) 0.5693(3) -0.2704(3)
H14 H 0.6837 0.5527 -0.3361
C18 C 1.4588(4) 0.9506(3) 0.2541(3)
C19 C 1.0748(4) 0.6297(3) -0.1793(3)
C20 C 0.5762(5) 0.6330(4) 0.0039(3)
H15 H 0.5479 0.6084 -0.0615
C21 C 1.3696(4) 0.9502(3) 0.3167(3)
C22 C 0.7156(4) 0.6551(3) 0.0581(3)
C23 C 0.7155(4) 0.3828(3) -0.2761(3)
C24 C 0.6621(4) 0.7066(3) 0.2000(3)
C25 C 0.7610(4) 0.6898(3) 0.1566(3)
C26 C 0.7038(5) 0.7513(3) 0.3052(3)
C27 C 1.3893(4) 0.9208(3) 0.1568(3)
C28 C 0.6993(4) 0.7509(3) -0.2775(3)
C29 C 1.4621(5) 0.9224(4) 0.0938(3)
H16 H 1.4141 0.9029 0.0289
C30 C 1.0369(4) 0.9973(3) -0.1627(3)
C31 C 1.6908(5) 1.0103(3) 0.3927(3)
C32 C 1.6058(4) 0.9804(3) 0.2888(3)
C33 C 1.6773(5) 0.9807(4) 0.2248(3)
H17 H 1.7748 0.9998 0.2472
C34 C 0.5211(5) 0.6848(4) 0.1443(3)
H18 H 0.4546 0.6955 0.1728
C35 C 1.6061(5) 0.9532(4) 0.1287(3)
H19 H 1.6558 0.9554 0.0870
C36 C 0.4786(5) 0.6476(4) 0.0472(3)
H20 H 0.3839 0.6324 0.0110
O1 O 1.0729(3) 1.0919(2) -0.1090(2)
H21 H 1.051(6) 1.128(4) -0.142(4)
O2 O 1.1076(4) 0.7300(3) 0.4371(3)
H22 H 1.0655 0.6807 0.3875
H23 H 1.1958 0.7426 0.4648
O3 O 0.9782(3) 0.9740(2) -0.2481(2)
O4 O 1.8267(3) 0.8595(2) 0.5310(2)
H24 H 1.8436 0.8417 0.4799
H25 H 1.8688 0.8226 0.5649
O5 O 0.6692(4) 0.7312(3) -0.3627(2)
O6 O 0.7129(4) 0.8442(3) -0.2251(2)
H26 H 0.687(8) 0.880(6) -0.261(5)
O7 O 0.7510(4) 0.3199(3) -0.2213(2)
H27 H 0.738(7) 0.269(5) -0.249(5)
O8 O 0.6704(4) 0.3567(2) -0.3621(2)
O9 O 0.8213(3) 0.6414(2) 0.0214(2)
O10 O 0.8311(3) 0.7919(2) 0.3511(2)
O11 O 0.6087(3) 0.7468(3) 0.3405(2)
O12 O 0.9507(3) 0.6284(2) 0.2427(2)
O13 O 0.9978(3) 0.7864(2) 0.2171(2)
O14 O 1.2445(3) 0.8894(2) 0.12827(19)
O15 O 1.1130(4) 0.5612(3) -0.1306(3)
H28 H 1.093(6) 0.501(5) -0.174(4)
O16 O 1.0299(4) 0.6091(3) -0.2647(2)
O17 O 1.3324(3) 0.8679(2) 0.3407(2)
O18 O 1.6257(3) 1.0139(2) 0.4520(2)
O19 O 1.8217(3) 1.0279(3) 0.4157(2)
O20 O 1.3287(3) 1.0319(2) 0.3391(2)
O21 O 1.3603(4) 0.7245(3) 0.5770(3)
N1 N 1.3354(6) 0.5801(5) 0.6306(4)
Ba1_2 Ba 0.52788(3) 0.820198(19) -0.509839(17)
Ba1_3 Ba 0.52788(3) 0.820198(19) 0.490161(17)
Ba1A Ba 0.47212(3) 0.179802(19) -0.490161(17)
Ba1A_2 Ba 1.47212(3) 1.179802(19) 0.509839(17)
Ba2A Ba 0.91155(3) 1.07497(2) -0.391523(17)
Ba2A_2 Ba 1.91155(3) 1.07497(2) 0.608477(17)
O3A O 1.0218(3) 1.0260(2) 0.2481(2)
O4A O 1.1733(3) 1.1405(2) 0.4690(2)
O5_2 O 1.6692(4) 0.7312(3) 0.6373(2)
O8A O 1.3296(4) 0.6433(2) 0.3621(2)
O11_2 O 1.6087(3) 0.7468(3) 0.3405(2)
O18A O 1.3743(3) 0.9861(2) 0.5480(2)
O19A O 1.1783(3) 0.9721(3) 0.5843(2)
O20A O 1.6713(3) 0.9681(2) 0.6609(2)
O22 O 1.9765(6) 0.7114(4) 0.5821(4)
loop_
_geom_bond_atom_site_label_1
_geom_bond_atom_site_label_2
_geom_bond_site_symmetry_1
_geom_bond_site_symmetry_2
Ba1 O4 1_555 1_555
Ba2 O2 1_555 1_555
C1 C2 1_555 1_555
C2 H1 1_555 1_555
H2 C2 1_555 1_555
H3 C2 1_555 1_555
C3 H4 1_555 1_555
H5 C3 1_555 1_555
H6 C3 1_555 1_555
C4 H7 1_555 1_555
H8 C4 1_555 1_555
H9 C4 1_555 1_555
C5 C7 1_555 1_555
C6 C8 1_555 1_555
C7 H10 1_555 1_555
C8 C13 1_555 1_555
C9 C7 1_555 1_555
C10 C5 1_555 1_555
H11 C10 1_555 1_555
C11 H12 1_555 1_555
C12 C10 1_555 1_555
C13 H13 1_555 1_555
C14 C11 1_555 1_555
C15 C6 1_555 1_555
C16 C25 1_555 1_555
C17 C9 1_555 1_555
H14 C17 1_555 1_555
C18 C21 1_555 1_555
C19 C8 1_555 1_555
C20 H15 1_555 1_555
C21 O17 1_555 1_555
C22 C20 1_555 1_555
C23 C12 1_555 1_555
C24 C25 1_555 1_555
C25 C22 1_555 1_555
C26 C24 1_555 1_555
C27 C18 1_555 1_555
C28 C9 1_555 1_555
C29 C27 1_555 1_555
H16 C29 1_555 1_555
C30 C14 1_555 1_555
C31 C32 1_555 1_555
C32 C18 1_555 1_555
C33 C32 1_555 1_555
H17 C33 1_555 1_555
C34 C24 1_555 1_555
H18 C34 1_555 1_555
C35 C29 1_555 1_555
H19 C35 1_555 1_555
C36 C20 1_555 1_555
H20 C36 1_555 1_555
O1 C30 1_555 1_555
H21 O1 1_555 1_555
O2 H22 1_555 1_555
H23 O2 1_555 1_555
O3 C30 1_555 1_555
O4 H24 1_555 1_555
H25 O4 1_555 1_555
O5 C28 1_555 1_555
O6 C28 1_555 1_555
H26 O6 1_555 1_555
O7 C23 1_555 1_555
H27 O7 1_555 1_555
O8 C23 1_555 1_555
O9 C5 1_555 1_555
O10 Ba2 1_555 1_555
O11 C26 1_555 1_555
O12 C16 1_555 1_555
O13 Ba2 1_555 1_555
O14 C15 1_555 1_555
O15 C19 1_555 1_555
H28 O15 1_555 1_555
O16 C19 1_555 1_555
O17 Ba1 1_555 1_555
O18 Ba1 1_555 1_555
O19 C31 1_555 1_555
O20 Ba2 1_555 1_555
O21 Ba1 1_555 1_555
N1 C1 1_555 1_555
Ba1_2 O5 1_555 1_555
Ba1_3 O11 1_555 1_555
Ba1A O8 1_555 1_555
Ba1A_2 O18 1_555 1_555
Ba2A O3 1_555 1_555
Ba2A_2 O4 1_555 1_555
O3A Ba2 1_555 1_555
O4A Ba2 1_555 1_555
O5_2 Ba1 1_555 1_555
O8A Ba1 1_555 1_555
O11_2 Ba1 1_555 1_555
O18A Ba1 1_555 1_555
O19A Ba2 1_555 1_555
O20A Ba1 1_555 1_555
Ba2 O17 1_555 1_555
Ba2 O18A 1_555 1_555
C1 O21 1_555 1_555
C3 N1 1_555 1_555
C4 N1 1_555 1_555
C11 C15 1_555 1_555
C12 C17 1_555 1_555
C13 C14 1_555 1_555
C16 O13 1_555 1_555
C21 O20 1_555 1_555
C22 O9 1_555 1_555
C26 O10 1_555 1_555
C27 O14 1_555 1_555
C31 O18 1_555 1_555
C33 C35 1_555 1_555
C34 C36 1_555 1_555
O18 Ba2A_2 1_555 1_555
O19 Ba2A_2 1_555 1_555
O20 Ba1A_2 1_555 1_555
Ba1A_2 O4A 1_555 1_555
Ba1A_2 O18A 1_555 1_555
Ba2A_2 O20A 1_555 1_555

#END
