
#######################################################################
#
#                 Cambridge Crystallographic Data Centre
#                                CCDC 
#
#######################################################################
#
# If this CIF has been generated from an entry in the Cambridge 
# Structural Database, then it will include bibliographic, chemical, 
# crystal, experimental, refinement or atomic coordinate data resulting 
# from the CCDC's data processing and validation procedures.
#
#######################################################################

data_TONMAK
_symmetry_cell_setting           monoclinic
_symmetry_space_group_name_H-M   'P n'
_symmetry_Int_Tables_number      7
_space_group_name_Hall           'P -2yac'
loop_
_symmetry_equiv_pos_site_id
_symmetry_equiv_pos_as_xyz
1 x,y,z
2 1/2+x,-y,1/2+z
_cell_length_a                   5.7245(8)
_cell_length_b                   5.6729(10)
_cell_length_c                   13.4761(9)
_cell_angle_alpha                90
_cell_angle_beta                 90.714(14)
_cell_angle_gamma                90
_cell_volume                     437.596
loop_
_atom_site_label
_atom_site_type_symbol
_atom_site_fract_x
_atom_site_fract_y
_atom_site_fract_z
Cd1 Cd -0.00129(2) -0.15345(6) -0.00072(2)
C1 C -0.0417(11) 0.1188(11) 0.1690(5)
C2 C -0.0457(21) 0.2932(18) 0.2555(7)
C3 C -0.2226(11) 0.2269(13) 0.3357(5)
O1 O 0.1074(11) 0.1578(8) 0.1027(5)
O2 O -0.1784(10) -0.0520(10) 0.1628(4)
O3 O -0.4069(9) 0.3469(9) 0.3451(5)
O4 O -0.1774(8) 0.0581(9) 0.3934(4)
O5 O -0.2459(13) 0.1088(10) -0.0813(5)
O6 O 0.2657(9) -0.4024(10) 0.0761(5)
O7 O -0.2803(9) -0.4406(11) 0.0025(6)
H1 H -0.072(23) 0.417(26) 0.2264(96)
H2 H 0.084(20) 0.297(19) 0.2937(95)
H3 H -0.200(16) 0.150(13) -0.1441(77)
H4 H -0.355(18) 0.074(15) -0.0898(65)
H5 H 0.274(16) -0.344(15) 0.1329(87)
H6 H 0.217(18) -0.530(22) 0.0966(80)
H7 H -0.286(14) -0.563(18) -0.0440(70)
H8 H -0.376(18) -0.444(17) 0.0334(70)
O3A O 0.0931(9) -0.3469(9) -0.1549(5)
Cd1A Cd -0.50129(2) 0.15345(6) 0.49928(2)
O4A O 0.3226(8) -0.0581(9) -0.1066(4)
O8 O 0.4480(14) -0.2607(15) 0.2516(6)
H9 H 0.500(29) -0.418(33) 0.267(13)
H10 H 0.548(17) -0.221(18) 0.2409(72)
loop_
_geom_bond_atom_site_label_1
_geom_bond_atom_site_label_2
_geom_bond_site_symmetry_1
_geom_bond_site_symmetry_2
Cd1 O1 1_555 1_555
C1 C2 1_555 1_555
C2 C3 1_555 1_555
C3 O3 1_555 1_555
O1 C1 1_555 1_555
O2 Cd1 1_555 1_555
O3 Cd1A 1_555 1_555
O4 C3 1_555 1_555
O5 Cd1 1_555 1_555
O6 Cd1 1_555 1_555
O7 Cd1 1_555 1_555
O8 H9 1_555 1_555
H1 C2 1_555 1_555
H2 C2 1_555 1_555
H3 O5 1_555 1_555
H4 O5 1_555 1_555
H5 O6 1_555 1_555
H6 O6 1_555 1_555
H7 O7 1_555 1_555
H8 O7 1_555 1_555
H10 O8 1_555 1_555
O3A Cd1 1_555 1_555
Cd1A O4 1_555 1_555
O4A Cd1 1_555 1_555
C1 O2 1_555 1_555

#END
