
#######################################################################
#
#                 Cambridge Crystallographic Data Centre
#                                CCDC 
#
#######################################################################
#
# If this CIF has been generated from an entry in the Cambridge 
# Structural Database, then it will include bibliographic, chemical, 
# crystal, experimental, refinement or atomic coordinate data resulting 
# from the CCDC's data processing and validation procedures.
#
#######################################################################

data_TONMEQ
_symmetry_cell_setting           triclinic
_symmetry_space_group_name_H-M   'P -1'
_symmetry_Int_Tables_number      2
_space_group_name_Hall           '-P 1'
loop_
_symmetry_equiv_pos_site_id
_symmetry_equiv_pos_as_xyz
1 x,y,z
2 -x,-y,-z
_cell_length_a                   10.2724(6)
_cell_length_b                   13.3126(7)
_cell_length_c                   15.2949(10)
_cell_angle_alpha                100.307(5)
_cell_angle_beta                 107.572(6)
_cell_angle_gamma                100.414(5)
_cell_volume                     1899.39
loop_
_atom_site_label
_atom_site_type_symbol
_atom_site_fract_x
_atom_site_fract_y
_atom_site_fract_z
Ba1 Ba -0.47357(4) -0.17964(3) -0.01184(3)
Ba2 Ba -0.08678(4) 0.07525(3) 0.10966(3)
C1 C 0.3455(6) 0.2927(5) 0.3033(4)
C2 C 0.4854(7) 0.3128(5) 0.3598(5)
H1 H 0.5516 0.2998 0.3319
C3 C 0.5290(7) 0.3515(5) 0.4563(5)
H2 H 0.6242 0.3671 0.4926
C4 C 0.4319(7) 0.3674(5) 0.4995(5)
H3 H 0.4605 0.3923 0.5649
C5 C 0.2912(7) 0.3457(5) 0.4441(4)
C6 C 0.2463(6) 0.3115(4) 0.3467(4)
C7 C 0.3033(7) 0.2472(5) 0.1985(4)
C8 C 0.0928(7) 0.2980(5) 0.2919(4)
C9 C 0.2227(7) 0.3820(5) 0.5784(4)
C10 C 0.2472(7) 0.3053(5) 0.6260(4)
H4 H 0.2408 0.2377 0.5931
C11 C 0.2814(6) 0.3295(5) 0.7236(4)
C12 C 0.2910(6) 0.4303(5) 0.7721(4)
H5 H 0.3158 0.4470 0.8377
C13 C 0.2637(7) 0.5068(5) 0.7227(4)
C14 C 0.2278(7) 0.4821(5) 0.6246(4)
H6 H 0.2077 0.5323 0.5909
C15 C 0.3062(7) 0.2494(5) 0.7784(5)
C16 C 0.2787(7) 0.6153(5) 0.7772(5)
C17 C -0.3943(7) -0.0115(5) -0.2096(4)
C18 C -0.3225(7) -0.0062(6) -0.2723(5)
H7 H -0.2247 0.0176 -0.2495
C19 C -0.3948(7) -0.0360(6) -0.3688(5)
H8 H -0.3447 -0.0318 -0.4101
C20 C -0.5376(7) -0.0713(5) -0.4046(4)
H9 H -0.5851 -0.0921 -0.4697
C21 C -0.6118(6) -0.0759(5) -0.3419(4)
C22 C -0.5417(6) -0.0463(4) -0.2450(4)
C23 C -0.3103(7) 0.0150(5) -0.1059(5)
C24 C -0.6323(6) -0.0494(4) -0.1832(4)
C25 C -0.8259(6) -0.1382(5) -0.4692(4)
C26 C -0.8644(6) -0.0600(5) -0.5132(4)
H10 H -0.8495 0.0080 -0.4775
C27 C -0.9254(6) -0.0847(5) -0.6115(4)
C28 C -0.9446(6) -0.1865(5) -0.6641(4)
H11 H -0.9835 -0.2029 -0.7298
C29 C -0.9061(6) -0.2635(5) -0.6189(4)
C30 C -0.8488(6) -0.2398(5) -0.5212(4)
H12 H -0.8258 -0.2920 -0.4907
C31 C -0.9635(6) -0.0026(5) -0.6626(5)
C32 C -0.9238(7) -0.3698(5) -0.6792(5)
C33 C -0.6545(11) -0.3265(12) 0.1338(10)
C34 C -0.6703(11) -0.4587(9) 0.2093(8)
H13 H -0.6590 -0.4227 0.2723
H14 H -0.5974 -0.4953 0.2115
H15 H -0.7608 -0.5085 0.1813
O1 O 0.1746(5) 0.2059(3) 0.1516(3)
O2 O -0.0939(5) 0.2733(4) 0.0663(3)
H16 H -0.0812 0.3021 0.1235
H17 H -0.1766 0.2793 0.0392
O3 O 0.3984(5) 0.2529(4) 0.1635(3)
O4 O -0.1737(5) -0.1402(3) 0.0285(3)
H18 H -0.179(7) -0.171(5) -0.0265(19)
H19 H -0.132(7) -0.174(5) 0.064(3)
O5 O 0.0598(5) 0.3726(3) 0.2589(3)
O6 O 0.0055(4) 0.2138(3) 0.2842(3)
O7 O 0.1859(5) 0.3604(3) 0.4801(3)
O8 O 0.2958(5) 0.1565(3) 0.7258(3)
H20 H 0.3097 0.1119 0.7588
O9 O 0.3359(5) 0.2691(3) 0.8638(3)
O10 O 0.3205(5) 0.6417(3) 0.8625(3)
O11 O 0.2420(5) 0.6774(3) 0.7203(3)
H21 H 0.2567 0.7356 0.7598
O12 O -0.1780(5) 0.0328(4) -0.0830(3)
O13 O -0.3749(5) 0.0158(3) -0.0473(3)
O14 O -0.6703(4) -0.1325(3) -0.1598(3)
O15 O -0.6723(5) 0.0320(3) -0.1602(3)
O16 O -0.7576(4) -0.1119(3) -0.3713(3)
O17 O -0.9266(5) 0.0923(3) -0.6083(3)
H22 H -0.9461 0.1461 -0.6338
O18 O -1.0204(5) -0.0256(3) -0.7474(3)
O19 O -0.9659(6) -0.3894(4) -0.7648(3)
O20 O -0.8887(5) -0.4386(3) -0.6310(3)
H23 H -0.8896 -0.4897 -0.6736
O21 O -0.6465(5) -0.2700(4) 0.0744(4)
N1 N -0.6615(12) -0.3889(18) 0.1574(16)
C35 C -0.677(3) -0.478(3) 0.0472(13)
H24 H -0.6726 -0.4379 0.0012
H25 H -0.7661 -0.5293 0.0240
H26 H -0.6018 -0.5122 0.0584
Ba1_2 Ba 0.52643(4) 0.82036(3) 0.98816(3)
Ba1A Ba -0.52643(4) 0.17964(3) 0.01184(3)
Ba1A_2 Ba 0.47357(4) 0.17964(3) 0.01184(3)
Ba1A_3 Ba 0.47357(4) 0.17964(3) 1.01184(3)
Ba2_2 Ba -1.08678(4) 0.07525(3) -0.89034(3)
Ba2A Ba -0.91322(4) -0.07525(3) -0.10966(3)
O3A O -0.3984(5) -0.2529(4) -0.1635(3)
O9A O -0.3359(5) -0.2691(3) 0.1362(3)
O10_2 O -0.6795(5) -0.3583(3) -0.1375(3)
O13A O -0.6251(5) -0.0158(3) 0.0473(3)
O14A O -0.3297(4) 0.1325(3) 0.1598(3)
O15A O -0.3277(5) -0.0320(3) 0.1602(3)
O18_2 O -0.0204(5) -0.0256(3) 0.2526(3)
O22 O -0.0368(9) -0.2921(7) 0.0781(7)
H27 H -0.044(11) -0.356(2) 0.075(8)
H28 H 0.044(6) -0.258(7) 0.114(7)
loop_
_geom_bond_atom_site_label_1
_geom_bond_atom_site_label_2
_geom_bond_site_symmetry_1
_geom_bond_site_symmetry_2
Ba1 O4 1_555 1_555
Ba2 O1 1_555 1_555
C1 C2 1_555 1_555
C2 H1 1_555 1_555
C3 C2 1_555 1_555
H2 C3 1_555 1_555
C4 C3 1_555 1_555
H3 C4 1_555 1_555
C5 C4 1_555 1_555
C6 C1 1_555 1_555
C7 C1 1_555 1_555
C8 C6 1_555 1_555
C9 C10 1_555 1_555
C10 H4 1_555 1_555
C11 C10 1_555 1_555
C12 C11 1_555 1_555
H5 C12 1_555 1_555
C13 C12 1_555 1_555
C14 C9 1_555 1_555
H6 C14 1_555 1_555
C15 C11 1_555 1_555
C16 C13 1_555 1_555
C17 C18 1_555 1_555
C18 H7 1_555 1_555
C19 C18 1_555 1_555
H8 C19 1_555 1_555
C20 C19 1_555 1_555
H9 C20 1_555 1_555
C21 C20 1_555 1_555
C22 C17 1_555 1_555
C23 C17 1_555 1_555
C24 C22 1_555 1_555
C25 C26 1_555 1_555
C26 H10 1_555 1_555
C27 C26 1_555 1_555
C28 C27 1_555 1_555
H11 C28 1_555 1_555
C29 C28 1_555 1_555
C30 C25 1_555 1_555
H12 C30 1_555 1_555
C31 C27 1_555 1_555
C32 C29 1_555 1_555
C33 O21 1_555 1_555
C34 H13 1_555 1_555
H14 C34 1_555 1_555
H15 C34 1_555 1_555
O1 C7 1_555 1_555
O2 Ba2 1_555 1_555
H16 O2 1_555 1_555
H17 O2 1_555 1_555
O3 C7 1_555 1_555
O4 Ba2 1_555 1_555
H18 O4 1_555 1_555
H19 O4 1_555 1_555
O5 C8 1_555 1_555
O6 Ba2 1_555 1_555
O7 C5 1_555 1_555
O8 C15 1_555 1_555
H20 O8 1_555 1_555
O9 C15 1_555 1_555
O10 C16 1_555 1_555
O11 C16 1_555 1_555
H21 O11 1_555 1_555
O12 Ba2 1_555 1_555
O13 Ba1 1_555 1_555
O14 Ba1 1_555 1_555
O15 C24 1_555 1_555
O16 C21 1_555 1_555
O17 C31 1_555 1_555
H22 O17 1_555 1_555
O18 C31 1_555 1_555
O19 C32 1_555 1_555
O20 C32 1_555 1_555
H23 O20 1_555 1_555
O21 Ba1 1_555 1_555
N1 C33 1_555 1_555
C35 N1 1_555 1_555
H24 C35 1_555 1_555
H25 C35 1_555 1_555
H26 C35 1_555 1_555
O22 H27 1_555 1_555
H28 O22 1_555 1_555
Ba1_2 O10 1_555 1_555
Ba1A O13 1_555 1_555
Ba1A_2 O3 1_555 1_555
Ba1A_3 O9 1_555 1_555
Ba2_2 O18 1_555 1_555
Ba2A O14 1_555 1_555
O3A Ba1 1_555 1_555
O9A Ba1 1_555 1_555
O10_2 Ba1 1_555 1_555
O13A Ba1 1_555 1_555
O14A Ba2 1_555 1_555
O15A Ba1 1_555 1_555
O18_2 Ba2 1_555 1_555
Ba2 O13 1_555 1_555
Ba2 O15A 1_555 1_555
C5 C6 1_555 1_555
C8 O6 1_555 1_555
C9 O7 1_555 1_555
C13 C14 1_555 1_555
C21 C22 1_555 1_555
C23 O12 1_555 1_555
C23 O13 1_555 1_555
C24 O14 1_555 1_555
C25 O16 1_555 1_555
C29 C30 1_555 1_555
C34 N1 1_555 1_555
O15 Ba1A 1_555 1_555
O15 Ba2A 1_555 1_555
Ba1A O13A 1_555 1_555
Ba1A O14A 1_555 1_555
Ba2A O13A 1_555 1_555

#END
