
#######################################################################
#
#                 Cambridge Crystallographic Data Centre
#                                CCDC 
#
#######################################################################
#
# If this CIF has been generated from an entry in the Cambridge 
# Structural Database, then it will include bibliographic, chemical, 
# crystal, experimental, refinement or atomic coordinate data resulting 
# from the CCDC's data processing and validation procedures.
#
#######################################################################

data_TONPET
_symmetry_cell_setting           triclinic
_symmetry_space_group_name_H-M   'P -1'
_symmetry_Int_Tables_number      2
_space_group_name_Hall           '-P 1'
loop_
_symmetry_equiv_pos_site_id
_symmetry_equiv_pos_as_xyz
1 x,y,z
2 -x,-y,-z
_cell_length_a                   11.237(4)
_cell_length_b                   13.991(5)
_cell_length_c                   14.575(5)
_cell_angle_alpha                85.563(8)
_cell_angle_beta                 89.011(8)
_cell_angle_gamma                67.178(7)
_cell_volume                     2105.52
loop_
_atom_site_label
_atom_site_type_symbol
_atom_site_fract_x
_atom_site_fract_y
_atom_site_fract_z
C1 C 0.4124(8) 0.2419(6) 0.3705(5)
C2 C 0.3481(8) 0.2228(6) 0.2871(5)
C3 C 0.3101(8) 0.3021(6) 0.2094(5)
H1 H 0.3287 0.3612 0.2101
C4 C 0.2468(8) 0.2876(6) 0.1359(5)
H2 H 0.2209 0.3382 0.0870
C5 C 0.2203(7) 0.1989(6) 0.1325(5)
C6 C 0.2570(10) 0.1238(8) 0.2080(6)
H3 H 0.2363 0.0656 0.2078
C7 C 0.3232(9) 0.1358(6) 0.2820(6)
H4 H 0.3513 0.0833 0.3294
C8 C 0.1452(8) 0.1897(7) 0.0450(5)
C9 C 0.1187(11) 0.0933(10) 0.0487(6)
C10 C 0.0096(11) 0.2818(11) 0.0443(7)
C11 C 0.2265(7) 0.1902(6) -0.0402(5)
C12 C 0.1722(8) 0.2318(7) -0.1260(6)
H5 H 0.0828 0.2631 -0.1323
C13 C 0.2475(8) 0.2280(7) -0.2026(6)
H6 H 0.2088 0.2569 -0.2596
C14 C 0.3823(8) 0.1805(6) -0.1944(5)
C15 C 0.4354(8) 0.1389(6) -0.1095(5)
H7 H 0.5247 0.1068 -0.1030
C16 C 0.3594(8) 0.1434(6) -0.0334(5)
H8 H 0.3983 0.1145 0.0235
C17 C 0.4677(9) 0.1756(6) -0.2797(6)
C18 C 0.5711(7) 0.3807(6) 0.5999(5)
H9 H 0.5165 0.3912 0.6502
C19 C 0.6347(7) 0.4420(6) 0.5736(5)
H10 H 0.6339 0.4997 0.6017
C20 C 0.6753(8) 0.3152(5) 0.4817(5)
H11 H 0.7086 0.2718 0.4342
C21 C 0.7911(7) 0.4323(5) 0.4423(5)
C22 C 0.8758(8) 0.3661(6) 0.3795(5)
H12 H 0.8694 0.3033 0.3696
C23 C 0.9671(8) 0.3932(6) 0.3329(5)
H13 H 1.0222 0.3490 0.2921
C24 C 0.9763(7) 0.4880(6) 0.3474(5)
C25 C 0.8911(7) 0.5543(5) 0.4079(5)
C26 C 0.7975(7) 0.5295(5) 0.4563(5)
H14 H 0.7416 0.5747 0.4960
C27 C 0.9215(7) 0.6502(5) 0.4128(5)
C28 C 1.0253(7) 0.6437(5) 0.3564(5)
C29 C 1.0708(8) 0.7250(6) 0.3520(6)
H15 H 1.1421 0.7218 0.3170
C30 C 1.0040(9) 0.8103(6) 0.4027(7)
H16 H 1.0288 0.8666 0.3980
C31 C 0.9025(8) 0.8145(6) 0.4594(6)
C32 C 0.8593(7) 0.7349(5) 0.4664(5)
H17 H 0.7917 0.7368 0.5050
C33 C 0.8953(8) 0.9394(6) 0.5769(6)
H18 H 0.9781 0.9064 0.6020
C34 C 0.8023(8) 1.0310(6) 0.6005(6)
H19 H 0.8110 1.0719 0.6452
C35 C 0.7180(8) 0.9753(6) 0.4915(5)
H20 H 0.6609 0.9696 0.4489
F1 F 0.0651(6) 0.0806(5) -0.0288(3)
F2 F 0.2283(7) 0.0064(5) 0.0614(4)
F3 F 0.0414(7) 0.0844(6) 0.1192(4)
F4 F -0.0460(6) 0.2966(5) 0.1240(4)
F5 F 0.0216(6) 0.3742(5) 0.0146(4)
F6 F -0.0741(5) 0.2747(6) -0.0167(4)
N1 N 0.5960(6) 0.3012(4) 0.5441(4)
N2 N 0.7032(6) 0.3999(4) 0.4940(4)
N3 N 0.6910(6) 1.0532(5) 0.5457(4)
N4 N 0.8406(6) 0.9054(4) 0.5070(4)
O1 O 0.4489(6) 0.1707(4) 0.4319(4)
O2 O 0.4227(8) 0.3272(5) 0.3728(5)
O3 O 0.4115(5) 0.1944(4) -0.3583(3)
O4 O 0.5842(6) 0.1586(5) -0.2663(4)
S1 S 1.0862(2) 0.53441(15) 0.29703(14)
Zn1 Zn 0.53223(9) 0.18694(6) 0.54347(6)
N3_2 N 0.6910(6) 0.0532(5) 0.5457(4)
O3_2 O 0.4115(5) 0.1944(4) 0.6417(3)
Zn1_2 Zn 0.53223(9) 0.18694(6) -0.45653(6)
Zn1_3 Zn 0.53223(9) 1.18694(6) 0.54347(6)
loop_
_geom_bond_atom_site_label_1
_geom_bond_atom_site_label_2
_geom_bond_site_symmetry_1
_geom_bond_site_symmetry_2
C1 C2 1_555 1_555
C2 C3 1_555 1_555
C3 H1 1_555 1_555
C4 C3 1_555 1_555
H2 C4 1_555 1_555
C5 C4 1_555 1_555
C6 C5 1_555 1_555
H3 C6 1_555 1_555
C7 C2 1_555 1_555
H4 C7 1_555 1_555
C8 C5 1_555 1_555
C9 C8 1_555 1_555
C10 C8 1_555 1_555
C11 C8 1_555 1_555
C12 C11 1_555 1_555
H5 C12 1_555 1_555
C13 C12 1_555 1_555
H6 C13 1_555 1_555
C14 C13 1_555 1_555
C15 C14 1_555 1_555
H7 C15 1_555 1_555
C16 C11 1_555 1_555
H8 C16 1_555 1_555
C17 C14 1_555 1_555
C18 H9 1_555 1_555
C19 C18 1_555 1_555
H10 C19 1_555 1_555
C20 H11 1_555 1_555
C21 C22 1_555 1_555
C22 H12 1_555 1_555
C23 C22 1_555 1_555
H13 C23 1_555 1_555
C24 C23 1_555 1_555
C25 C24 1_555 1_555
C26 C21 1_555 1_555
H14 C26 1_555 1_555
C27 C25 1_555 1_555
C28 C27 1_555 1_555
C29 C28 1_555 1_555
H15 C29 1_555 1_555
C30 C29 1_555 1_555
H16 C30 1_555 1_555
C31 C30 1_555 1_555
C32 C27 1_555 1_555
H17 C32 1_555 1_555
C33 H18 1_555 1_555
C34 C33 1_555 1_555
H19 C34 1_555 1_555
C35 H20 1_555 1_555
F1 C9 1_555 1_555
F2 C9 1_555 1_555
F3 C9 1_555 1_555
F4 C10 1_555 1_555
F5 C10 1_555 1_555
F6 C10 1_555 1_555
N1 C18 1_555 1_555
N2 C19 1_555 1_555
N3 C34 1_555 1_555
N4 C31 1_555 1_555
O1 C1 1_555 1_555
O2 C1 1_555 1_555
O3 C17 1_555 1_555
O4 C17 1_555 1_555
S1 C24 1_555 1_555
Zn1 N1 1_555 1_555
N3_2 Zn1 1_555 1_555
O3_2 Zn1 1_555 1_555
Zn1_2 O3 1_555 1_555
Zn1_3 N3 1_555 1_555
C6 C7 1_555 1_555
C15 C16 1_555 1_555
C20 N1 1_555 1_555
C20 N2 1_555 1_555
C21 N2 1_555 1_555
C25 C26 1_555 1_555
C28 S1 1_555 1_555
C31 C32 1_555 1_555
C33 N4 1_555 1_555
C35 N3 1_555 1_555
C35 N4 1_555 1_555
O1 Zn1 1_555 1_555

#END
