
#######################################################################
#
#                 Cambridge Crystallographic Data Centre
#                                CCDC 
#
#######################################################################
#
# If this CIF has been generated from an entry in the Cambridge 
# Structural Database, then it will include bibliographic, chemical, 
# crystal, experimental, refinement or atomic coordinate data resulting 
# from the CCDC's data processing and validation procedures.
#
#######################################################################

data_TONPIX
_symmetry_cell_setting           triclinic
_symmetry_space_group_name_H-M   'P -1'
_symmetry_Int_Tables_number      2
_space_group_name_Hall           '-P 1'
loop_
_symmetry_equiv_pos_site_id
_symmetry_equiv_pos_as_xyz
1 x,y,z
2 -x,-y,-z
_cell_length_a                   10.1634(8)
_cell_length_b                   11.7309(11)
_cell_length_c                   13.7734(11)
_cell_angle_alpha                108.5470(10)
_cell_angle_beta                 97.0040(10)
_cell_angle_gamma                107.9800(10)
_cell_volume                     1436.03
loop_
_atom_site_label
_atom_site_type_symbol
_atom_site_fract_x
_atom_site_fract_y
_atom_site_fract_z
C1 C 0.7068(2) 1.1682(2) 0.29622(19)
C2 C 0.8576(2) 1.2252(2) 0.36352(18)
C3 C 0.8904(3) 1.3098(3) 0.4681(2)
H1 H 0.8188 1.3309 0.4966
C4 C 1.0277(3) 1.3625(3) 0.5298(2)
H2 H 1.0479 1.4177 0.5999
C5 C 1.1360(3) 1.3334(3) 0.4876(2)
H3 H 1.2288 1.3694 0.5293
C6 C 1.1055(2) 1.2507(2) 0.38356(18)
C7 C 0.9674(2) 1.1966(2) 0.32247(19)
H4 H 0.9472 1.1402 0.2528
C8 C 1.2219(2) 1.2199(2) 0.33742(19)
C9 C 0.4158(3) 0.9640(3) 0.3673(2)
H5 H 0.4985 1.0200 0.4195
C10 C 0.3447(3) 0.8414(3) 0.3553(3)
H6 H 0.3680 0.7978 0.3964
C11 C 0.2418(3) 0.8904(2) 0.2353(2)
H7 H 0.1788 0.8833 0.1767
C12 C 0.1270(3) 0.6649(2) 0.22278(19)
C13 C 0.1503(3) 0.5656(3) 0.2489(2)
H8 H 0.2326 0.5842 0.2984
C14 C 0.0529(3) 0.4412(3) 0.2022(2)
H9 H 0.0681 0.3756 0.2204
C15 C -0.0688(3) 0.4140(3) 0.1272(2)
C16 C -0.0943(3) 0.5120(2) 0.10024(19)
C17 C 0.0044(3) 0.6390(2) 0.14969(19)
H10 H -0.0120 0.7055 0.1337
C18 C -0.2258(3) 0.4629(2) 0.0197(2)
C19 C -0.2951(3) 0.3284(2) -0.0124(2)
C20 C -0.4219(3) 0.2616(3) -0.0891(2)
H11 H -0.4685 0.1731 -0.1077
C21 C -0.4778(3) 0.3282(3) -0.1373(2)
H12 H -0.5614 0.2841 -0.1907
C22 C -0.4098(3) 0.4620(2) -0.1065(2)
C23 C -0.2858(3) 0.5289(2) -0.02816(19)
H13 H -0.2422 0.6181 -0.0074
C24 C -0.6071(3) 0.4899(3) -0.2151(2)
H14 H -0.6837 0.4167 -0.2225
C25 C -0.6103(3) 0.5798(3) -0.2551(2)
H15 H -0.6915 0.5790 -0.2950
C26 C -0.3941(3) 0.6387(2) -0.1720(2)
H16 H -0.2969 0.6849 -0.1430
N1 N 0.3509(2) 0.9954(2) 0.29297(16)
N2 N 0.2301(2) 0.7929(2) 0.26987(16)
N3 N -0.4765(2) 0.67299(19) -0.22870(16)
N4 N -0.4681(2) 0.52730(19) -0.16075(16)
Ni1 Ni 0.41422(3) 1.16368(3) 0.26444(2)
O1 O 0.61828(16) 1.20816(17) 0.33788(14)
O2 O 0.67941(18) 1.0866(2) 0.20493(14)
O3 O 1.19719(16) 1.15427(17) 0.23985(13)
O4 O 1.34587(16) 1.26116(18) 0.39678(13)
O5 O 0.41533(18) 1.05290(16) 0.11255(13)
H17 H 0.4740 1.0155 0.1171
H18 H 0.3323 0.9963 0.0810
S1 S -0.20260(8) 0.26169(7) 0.05574(6)
N3A N 0.4765(2) 1.32701(19) 0.22870(16)
Ni1_2 Ni 1.41422(3) 1.16368(3) 0.26444(2)
Ni1A Ni -0.41422(3) 0.83632(3) -0.26444(2)
O3_2 O 0.19719(16) 1.15427(17) 0.23985(13)
O4_2 O 0.34587(16) 1.26116(18) 0.39678(13)
loop_
_geom_bond_atom_site_label_1
_geom_bond_atom_site_label_2
_geom_bond_site_symmetry_1
_geom_bond_site_symmetry_2
C1 C2 1_555 1_555
C2 C3 1_555 1_555
C3 H1 1_555 1_555
C4 C3 1_555 1_555
H2 C4 1_555 1_555
C5 C4 1_555 1_555
H3 C5 1_555 1_555
C6 C5 1_555 1_555
C7 C2 1_555 1_555
H4 C7 1_555 1_555
C8 C6 1_555 1_555
C9 H5 1_555 1_555
C10 C9 1_555 1_555
H6 C10 1_555 1_555
C11 H7 1_555 1_555
C12 C13 1_555 1_555
C13 H8 1_555 1_555
C14 C13 1_555 1_555
H9 C14 1_555 1_555
C15 C14 1_555 1_555
C16 C15 1_555 1_555
C17 C12 1_555 1_555
H10 C17 1_555 1_555
C18 C16 1_555 1_555
C19 C18 1_555 1_555
C20 C19 1_555 1_555
H11 C20 1_555 1_555
C21 C20 1_555 1_555
H12 C21 1_555 1_555
C22 C21 1_555 1_555
C23 C18 1_555 1_555
H13 C23 1_555 1_555
C24 H14 1_555 1_555
C25 C24 1_555 1_555
H15 C25 1_555 1_555
C26 H16 1_555 1_555
N1 C9 1_555 1_555
N2 C10 1_555 1_555
N3 C25 1_555 1_555
N4 C22 1_555 1_555
Ni1 N1 1_555 1_555
O1 C1 1_555 1_555
O2 C1 1_555 1_555
O3 C8 1_555 1_555
O4 C8 1_555 1_555
O5 Ni1 1_555 1_555
H17 O5 1_555 1_555
H18 O5 1_555 1_555
S1 C15 1_555 1_555
N3A Ni1 1_555 1_555
Ni1_2 O3 1_555 1_555
Ni1A N3 1_555 1_555
O3_2 Ni1 1_555 1_555
O4_2 Ni1 1_555 1_555
C6 C7 1_555 1_555
C11 N1 1_555 1_555
C11 N2 1_555 1_555
C12 N2 1_555 1_555
C16 C17 1_555 1_555
C19 S1 1_555 1_555
C22 C23 1_555 1_555
C24 N4 1_555 1_555
C26 N3 1_555 1_555
C26 N4 1_555 1_555
Ni1 O1 1_555 1_555
O4 Ni1_2 1_555 1_555

#END
