
#######################################################################
#
#                 Cambridge Crystallographic Data Centre
#                                CCDC 
#
#######################################################################
#
# If this CIF has been generated from an entry in the Cambridge 
# Structural Database, then it will include bibliographic, chemical, 
# crystal, experimental, refinement or atomic coordinate data resulting 
# from the CCDC's data processing and validation procedures.
#
#######################################################################

data_TONPUJ
_symmetry_cell_setting           monoclinic
_symmetry_space_group_name_H-M   'P 21/c'
_symmetry_Int_Tables_number      14
_space_group_name_Hall           '-P 2ybc'
loop_
_symmetry_equiv_pos_site_id
_symmetry_equiv_pos_as_xyz
1 x,y,z
2 -x,1/2+y,1/2-z
3 -x,-y,-z
4 x,1/2-y,1/2+z
_cell_length_a                   6.8708(4)
_cell_length_b                   17.1947(10)
_cell_length_c                   19.5093(11)
_cell_angle_alpha                90
_cell_angle_beta                 96.5160(10)
_cell_angle_gamma                90
_cell_volume                     2289.97
loop_
_atom_site_label
_atom_site_type_symbol
_atom_site_fract_x
_atom_site_fract_y
_atom_site_fract_z
C1 C 1.1448(4) 0.33557(14) 0.26510(13)
C2 C 1.2866(3) 0.26987(13) 0.28213(11)
C3 C 1.2473(3) 0.20803(14) 0.32400(12)
H1 H 1.1295 0.2064 0.3432
C4 C 1.3822(3) 0.14878(13) 0.33731(11)
H2 H 1.3562 0.1085 0.3667
C5 C 1.5566(3) 0.14860(12) 0.30728(11)
C6 C 1.5949(4) 0.21022(15) 0.26522(14)
H3 H 1.7105 0.2111 0.2446
C7 C 1.4626(3) 0.27016(15) 0.25378(15)
H4 H 1.4920 0.3119 0.2264
C8 C 1.6968(3) 0.08173(13) 0.31657(12)
C9 C 0.7982(3) 0.57603(13) 0.31739(11)
H5 H 0.8604 0.6221 0.3076
C10 C 0.6549(3) 0.56948(13) 0.35917(11)
H6 H 0.6011 0.6095 0.3830
C11 C 0.7183(3) 0.45457(14) 0.31818(11)
H7 H 0.7135 0.4014 0.3095
C12 C 0.4574(3) 0.45695(13) 0.39599(11)
C13 C 0.2801(3) 0.49656(14) 0.39881(12)
H8 H 0.2609 0.5452 0.3782
C14 C 0.1351(3) 0.46340(14) 0.43199(12)
H9 H 0.0172 0.4894 0.4343
C15 C 0.1663(3) 0.39084(13) 0.46207(10)
C16 C 0.3440(3) 0.35106(13) 0.46022(10)
C17 C 0.4902(3) 0.38503(13) 0.42631(11)
H10 H 0.6087 0.3595 0.4241
C18 C 0.3470(3) 0.27751(13) 0.49708(10)
C19 C 0.1710(3) 0.26408(14) 0.52518(11)
C20 C 0.1441(3) 0.19887(15) 0.56493(13)
H11 H 0.0268 0.1911 0.5835
C21 C 0.2949(3) 0.14586(14) 0.57634(13)
H12 H 0.2793 0.1013 0.6022
C22 C 0.4694(3) 0.15912(13) 0.54921(11)
C23 C 0.4985(3) 0.22333(13) 0.50933(10)
H13 H 0.6164 0.2304 0.4910
C24 C 0.7191(3) 0.05596(15) 0.52574(12)
H14 H 0.6905 0.0496 0.4783
C25 C 0.8569(4) 0.01839(14) 0.56739(12)
H15 H 0.9410 -0.0191 0.5530
C26 C 0.7160(4) 0.09532(15) 0.63169(12)
H16 H 0.6814 0.1219 0.6700
Co1 Co 1.03087(4) 0.480819(17) 0.222155(14)
N1 N 0.8377(3) 0.50372(11) 0.29155(9)
N2 N 0.6044(3) 0.49197(11) 0.35962(9)
N3 N 0.6286(3) 0.10576(11) 0.56744(9)
N4 N 0.8562(3) 0.04309(11) 0.63422(9)
O1 O 1.2204(2) 0.39871(10) 0.24660(9)
O2 O 0.9687(3) 0.32645(12) 0.26783(11)
O3 O 1.8255(2) 0.07869(9) 0.27394(9)
O4 O 1.6827(3) 0.03257(10) 0.36190(9)
S1 S 0.00087(8) 0.33895(4) 0.50641(3)
Co1A Co 1.96913(4) -0.019181(17) 0.277845(14)
Co1C Co 1.03087(4) 0.019181(17) 0.722155(14)
N4C N 0.8562(3) 0.45691(11) 0.13422(9)
O3A O 1.1745(2) 0.57869(9) 0.22606(9)
loop_
_geom_bond_atom_site_label_1
_geom_bond_atom_site_label_2
_geom_bond_site_symmetry_1
_geom_bond_site_symmetry_2
C1 C2 1_555 1_555
C2 C3 1_555 1_555
C3 H1 1_555 1_555
C4 C3 1_555 1_555
H2 C4 1_555 1_555
C5 C4 1_555 1_555
C6 C5 1_555 1_555
H3 C6 1_555 1_555
C7 C2 1_555 1_555
H4 C7 1_555 1_555
C8 C5 1_555 1_555
C9 H5 1_555 1_555
C10 C9 1_555 1_555
H6 C10 1_555 1_555
C11 H7 1_555 1_555
C12 C13 1_555 1_555
C13 H8 1_555 1_555
C14 C13 1_555 1_555
H9 C14 1_555 1_555
C15 C14 1_555 1_555
C16 C15 1_555 1_555
C17 C12 1_555 1_555
H10 C17 1_555 1_555
C18 C16 1_555 1_555
C19 C18 1_555 1_555
C20 C19 1_555 1_555
H11 C20 1_555 1_555
C21 C20 1_555 1_555
H12 C21 1_555 1_555
C22 C21 1_555 1_555
C23 C18 1_555 1_555
H13 C23 1_555 1_555
C24 H14 1_555 1_555
C25 C24 1_555 1_555
H15 C25 1_555 1_555
C26 H16 1_555 1_555
Co1 N1 1_555 1_555
N1 C9 1_555 1_555
N2 C10 1_555 1_555
N3 C22 1_555 1_555
N4 C25 1_555 1_555
O1 C1 1_555 1_555
O2 C1 1_555 1_555
O3 C8 1_555 1_555
O4 C8 1_555 1_555
S1 C15 1_555 1_555
Co1A O3 1_555 1_555
Co1C N4 1_555 1_555
N4C Co1 1_555 1_555
O3A Co1 1_555 1_555
C6 C7 1_555 1_555
C11 N1 1_555 1_555
C11 N2 1_555 1_555
C12 N2 1_555 1_555
C16 C17 1_555 1_555
C19 S1 1_555 1_555
C22 C23 1_555 1_555
C24 N3 1_555 1_555
C26 N3 1_555 1_555
C26 N4 1_555 1_555
Co1 O1 1_555 1_555

#END
