
#######################################################################
#
#                 Cambridge Crystallographic Data Centre
#                                CCDC 
#
#######################################################################
#
# If this CIF has been generated from an entry in the Cambridge 
# Structural Database, then it will include bibliographic, chemical, 
# crystal, experimental, refinement or atomic coordinate data resulting 
# from the CCDC's data processing and validation procedures.
#
#######################################################################

data_TONPUH
_symmetry_cell_setting           orthorhombic
_symmetry_space_group_name_H-M   'P 21 21 21'
_symmetry_Int_Tables_number      19
_space_group_name_Hall           'P 2ac 2ab'
loop_
_symmetry_equiv_pos_site_id
_symmetry_equiv_pos_as_xyz
1 x,y,z
2 1/2-x,-y,1/2+z
3 1/2+x,1/2-y,-z
4 -x,1/2+y,1/2-z
_cell_length_a                   5.397(2)
_cell_length_b                   9.190(2)
_cell_length_c                   30.546(8)
_cell_angle_alpha                90
_cell_angle_beta                 90
_cell_angle_gamma                90
_cell_volume                     1515.03
loop_
_atom_site_label
_atom_site_type_symbol
_atom_site_fract_x
_atom_site_fract_y
_atom_site_fract_z
Cu1 Cu -0.0480(1) 0.67757(7) 0.29233(2)
O1 O -0.0183(7) 0.8518(4) 0.2527(1)
O2 O 0.2065(7) 0.5629(4) 0.2610(1)
O3 O 0.2668(6) 0.7249(4) 0.3403(1)
N1 N -0.3541(7) 0.7654(4) 0.3073(1)
N2 N -0.1605(9) 0.5218(5) 0.3333(2)
C1 C -0.1990(9) 0.9392(5) 0.2566(2)
C2 C -0.4240(9) 0.8966(5) 0.2832(2)
C3 C -0.5178(9) 1.0208(6) 0.3123(2)
C4 C -0.343(1) 1.0598(6) 0.3488(2)
C5 C -0.140(1) 1.1483(6) 0.3420(2)
C6 C 0.025(1) 1.1786(7) 0.3753(2)
C7 C -0.010(1) 1.1202(7) 0.4162(2)
C8 C -0.212(2) 1.0328(8) 0.4234(2)
C9 C -0.379(1) 1.0021(7) 0.3906(2)
C10 C -0.5091(8) 0.6945(5) 0.3325(2)
C11 C -0.396(1) 0.5663(6) 0.3563(2)
C12 C -0.339(1) 0.6157(7) 0.4037(2)
C13 C -0.264(2) 0.5007(8) 0.4356(2)
C14 C -0.470(2) 0.3954(9) 0.4456(2)
C15 C -0.177(2) 0.571(1) 0.4779(3)
H1 H -0.3300 0.8218 0.3339
H2 H -0.0350 0.5041 0.3546
H3 H -0.1900 0.4347 0.3173
H4 H -0.5603 0.8735 0.2648
H5 H -0.6728 0.9935 0.3249
H6 H -0.5421 1.1051 0.2945
H7 H -0.1125 1.1890 0.3135
H8 H 0.1608 1.2403 0.3698
H9 H 0.1035 1.1411 0.4391
H10 H -0.2394 0.9926 0.4519
H11 H -0.5197 0.9431 0.3964
H12 H -0.5039 0.4855 0.3563
H13 H -0.4828 0.6608 0.4149
H14 H -0.2069 0.6842 0.4026
H15 H -0.1327 0.4456 0.4232
H16 H -0.4166 0.3248 0.4660
H17 H -0.6079 0.4475 0.4575
H18 H -0.5210 0.3490 0.4193
H19 H -0.1269 0.4973 0.4982
H20 H -0.0354 0.6310 0.4718
H21 H -0.3034 0.6277 0.4902
O2C O -0.2065(7) 1.0629(4) 0.2390(1)
Cu1C Cu 0.0480(1) 1.17757(7) 0.20767(2)
O3_2 O -0.7332(6) 0.7249(4) 0.3403(1)
Cu1_2 Cu -1.0480(1) 0.67757(7) 0.29233(2)
loop_
_geom_bond_atom_site_label_1
_geom_bond_atom_site_label_2
_geom_bond_site_symmetry_1
_geom_bond_site_symmetry_2
Cu1 O1 1_555 1_555
O1 C1 1_555 1_555
O2 Cu1 1_555 1_555
O3 Cu1 1_555 1_555
N1 Cu1 1_555 1_555
N2 Cu1 1_555 1_555
C1 C2 1_555 1_555
C2 N1 1_555 1_555
C3 C2 1_555 1_555
C4 C3 1_555 1_555
C5 C4 1_555 1_555
C6 C5 1_555 1_555
C7 C6 1_555 1_555
C8 C7 1_555 1_555
C9 C4 1_555 1_555
C10 N1 1_555 1_555
C11 N2 1_555 1_555
C12 C11 1_555 1_555
C13 C12 1_555 1_555
C14 C13 1_555 1_555
C15 C13 1_555 1_555
H1 N1 1_555 1_555
H2 N2 1_555 1_555
H3 N2 1_555 1_555
H4 C2 1_555 1_555
H5 C3 1_555 1_555
H6 C3 1_555 1_555
H7 C5 1_555 1_555
H8 C6 1_555 1_555
H9 C7 1_555 1_555
H10 C8 1_555 1_555
H11 C9 1_555 1_555
H12 C11 1_555 1_555
H13 C12 1_555 1_555
H14 C12 1_555 1_555
H15 C13 1_555 1_555
H16 C14 1_555 1_555
H17 C14 1_555 1_555
H18 C14 1_555 1_555
H19 C15 1_555 1_555
H20 C15 1_555 1_555
H21 C15 1_555 1_555
O2C C1 1_555 1_555
Cu1C O2C 1_555 1_555
O3_2 C10 1_555 1_555
Cu1_2 O3_2 1_555 1_555
C8 C9 1_555 1_555
C10 C11 1_555 1_555

#END
