
#######################################################################
#
#                 Cambridge Crystallographic Data Centre
#                                CCDC 
#
#######################################################################
#
# If this CIF has been generated from an entry in the Cambridge 
# Structural Database, then it will include bibliographic, chemical, 
# crystal, experimental, refinement or atomic coordinate data resulting 
# from the CCDC's data processing and validation procedures.
#
#######################################################################

data_TONPOB
_symmetry_cell_setting           monoclinic
_symmetry_space_group_name_H-M   'P 21'
_symmetry_Int_Tables_number      4
_space_group_name_Hall           'P 2yb'
loop_
_symmetry_equiv_pos_site_id
_symmetry_equiv_pos_as_xyz
1 x,y,z
2 -x,1/2+y,-z
_cell_length_a                   9.393(1)
_cell_length_b                   9.278(3)
_cell_length_c                   10.057(2)
_cell_angle_alpha                90
_cell_angle_beta                 103.98(1)
_cell_angle_gamma                90
_cell_volume                     850.49
loop_
_atom_site_label
_atom_site_type_symbol
_atom_site_fract_x
_atom_site_fract_y
_atom_site_fract_z
Cu1 Cu 0.07921(4) 0.5000 0.44816(4)
O1 O 0.0337(3) 0.6944(3) 0.5155(3)
O2 O -0.1138(3) 0.4205(3) 0.4551(3)
O3 O 0.3976(3) 0.6111(4) 0.2655(3)
O4 O 0.1657(4) 0.4138(4) 0.6652(3)
N1 N 0.2356(3) 0.6044(4) 0.4042(3)
N2 N 0.1595(4) 0.3398(4) 0.3510(3)
C1 C 0.1264(4) 0.7905(4) 0.5089(4)
C2 C 0.2575(4) 0.7527(4) 0.4521(4)
C3 C 0.4036(4) 0.7772(4) 0.5609(4)
C4 C 0.4237(4) 0.6872(4) 0.6873(4)
C5 C 0.4977(5) 0.5548(5) 0.6972(5)
C6 C 0.5164(6) 0.4708(5) 0.8146(6)
C7 C 0.4627(5) 0.5158(7) 0.9238(5)
C8 C 0.3902(6) 0.6473(7) 0.9162(5)
C9 C 0.3698(5) 0.7315(5) 0.7978(5)
C10 C 0.3003(4) 0.5513(4) 0.3122(4)
C11 C 0.2378(4) 0.4064(4) 0.2559(4)
C12 C 0.1304(5) 0.4323(5) 0.1173(4)
C13 C 0.0722(5) 0.2989(5) 0.0324(5)
C14 C 0.1939(6) 0.2215(6) -0.0152(6)
C15 C -0.0507(6) 0.3423(7) -0.0895(6)
H1 H 0.3205 0.5721 0.4699
H2 H 0.0817 0.2813 0.3018
H3 H 0.2258 0.2821 0.4164
H4 H 0.2649 0.8112 0.3775
H5 H 0.4072 0.8737 0.5874
H6 H 0.4820 0.7549 0.5194
H7 H 0.5362 0.5201 0.6218
H8 H 0.5663 0.3777 0.8206
H9 H 0.4756 0.4552 1.0045
H10 H 0.3542 0.6786 0.9934
H11 H 0.3177 0.8185 0.7916
H12 H 0.3135 0.3401 0.2452
H13 H 0.1792 0.4880 0.0639
H14 H 0.0489 0.4819 0.1337
H15 H 0.0333 0.2336 0.0881
H16 H 0.1585 0.1358 -0.0664
H17 H 0.2358 0.2829 -0.0708
H18 H 0.2718 0.1914 0.0621
H19 H -0.0872 0.2553 -0.1425
H20 H -0.1283 0.3840 -0.0606
H21 H -0.0131 0.4042 -0.1466
O2A O 0.1138(3) 0.9205(3) 0.5449(3)
Cu1A Cu -0.07921(4) 1.0000 0.55184(4)
O5 O 0.3101(4) 0.1667(4) 0.6104(4)
loop_
_geom_bond_atom_site_label_1
_geom_bond_atom_site_label_2
_geom_bond_site_symmetry_1
_geom_bond_site_symmetry_2
Cu1 O1 1_555 1_555
O1 C1 1_555 1_555
O2 Cu1 1_555 1_555
O3 C10 1_555 1_555
O4 Cu1 1_555 1_555
N1 Cu1 1_555 1_555
N2 Cu1 1_555 1_555
C1 C2 1_555 1_555
C2 N1 1_555 1_555
C3 C2 1_555 1_555
C4 C3 1_555 1_555
C5 C4 1_555 1_555
C6 C5 1_555 1_555
C7 C6 1_555 1_555
C8 C7 1_555 1_555
C9 C4 1_555 1_555
C10 N1 1_555 1_555
C11 N2 1_555 1_555
C12 C11 1_555 1_555
C13 C12 1_555 1_555
C14 C13 1_555 1_555
C15 C13 1_555 1_555
H1 N1 1_555 1_555
H2 N2 1_555 1_555
H3 N2 1_555 1_555
H4 C2 1_555 1_555
H5 C3 1_555 1_555
H6 C3 1_555 1_555
H7 C5 1_555 1_555
H8 C6 1_555 1_555
H9 C7 1_555 1_555
H10 C8 1_555 1_555
H11 C9 1_555 1_555
H12 C11 1_555 1_555
H13 C12 1_555 1_555
H14 C12 1_555 1_555
H15 C13 1_555 1_555
H16 C14 1_555 1_555
H17 C14 1_555 1_555
H18 C14 1_555 1_555
H19 C15 1_555 1_555
H20 C15 1_555 1_555
H21 C15 1_555 1_555
O2A C1 1_555 1_555
Cu1A O2A 1_555 1_555
C8 C9 1_555 1_555
C10 C11 1_555 1_555

#END
