
#######################################################################
#
#                 Cambridge Crystallographic Data Centre
#                                CCDC 
#
#######################################################################
#
# If this CIF has been generated from an entry in the Cambridge 
# Structural Database, then it will include bibliographic, chemical, 
# crystal, experimental, refinement or atomic coordinate data resulting 
# from the CCDC's data processing and validation procedures.
#
#######################################################################

data_TONPOD
_symmetry_cell_setting           monoclinic
_symmetry_space_group_name_H-M   'P 2/c'
_symmetry_Int_Tables_number      13
_space_group_name_Hall           '-P 2yc'
loop_
_symmetry_equiv_pos_site_id
_symmetry_equiv_pos_as_xyz
1 x,y,z
2 -x,y,1/2-z
3 -x,-y,-z
4 x,-y,1/2+z
_cell_length_a                   16.3754(8)
_cell_length_b                   7.4218(4)
_cell_length_c                   23.9485(10)
_cell_angle_alpha                90
_cell_angle_beta                 116.683(3)
_cell_angle_gamma                90
_cell_volume                     2600.62
loop_
_atom_site_label
_atom_site_type_symbol
_atom_site_fract_x
_atom_site_fract_y
_atom_site_fract_z
Co1 Co 0.558471(15) 0.65636(3) 0.515713(11)
S1 S 1.0000 1.60350(10) 0.7500
F1 F 0.91144(10) -0.0086(2) 0.80856(8)
F2 F 0.82644(10) -0.2248(2) 0.80893(7)
F3 F 0.94364(10) -0.1506(2) 0.89336(8)
F4 F 0.94287(9) 0.2501(2) 0.89445(7)
F5 F 0.83019(11) 0.31955(19) 0.91308(7)
F6 F 0.91880(10) 0.1037(2) 0.96260(6)
O1 O 0.61304(9) 0.51773(18) 0.59907(6)
O2 O 0.52326(10) 0.2745(2) 0.57357(6)
O3 O 0.60915(10) -0.4440(2) 0.98070(7)
O4 O 0.51709(10) -0.2044(2) 0.95164(7)
N1 N 0.67357(10) 0.8104(2) 0.53961(7)
N2 N 0.78200(10) 1.0069(2) 0.58977(7)
C1 C 0.58916(13) 0.3679(3) 0.61130(9)
C2 C 0.64486(13) 0.2922(3) 0.67534(9)
C3 C 0.62767(14) 0.1211(3) 0.69040(10)
H1 H 0.5797 0.0539 0.6610
C4 C 0.68097(14) 0.0493(3) 0.74869(9)
H2 H 0.6679 -0.0655 0.7580
C5 C 0.75350(14) 0.1442(3) 0.79362(9)
C6 C 0.77075(15) 0.3171(3) 0.77840(10)
H3 H 0.8189 0.3844 0.8076
C7 C 0.71636(15) 0.3881(3) 0.72008(10)
H4 H 0.7283 0.5038 0.7107
C8 C 0.81397(13) 0.0500(3) 0.85602(9)
C9 C 0.87384(15) -0.0851(4) 0.84179(11)
C10 C 0.87694(15) 0.1802(3) 0.90643(11)
C11 C 0.75517(13) -0.0446(3) 0.88301(9)
C12 C 0.77734(16) -0.2114(3) 0.91208(13)
H5 H 0.8294 -0.2713 0.9157
C13 C 0.72291(17) -0.2889(3) 0.93564(13)
H6 H 0.7380 -0.4020 0.9542
C14 C 0.64635(13) -0.2019(3) 0.93229(9)
C15 C 0.62612(13) -0.0328(3) 0.90540(9)
H7 H 0.5762 0.0302 0.9040
C16 C 0.67961(14) 0.0433(3) 0.88053(10)
H8 H 0.6642 0.1561 0.8618
C17 C 0.58608(14) -0.2899(3) 0.95652(9)
C18 C 0.74506(13) 0.7792(3) 0.52621(10)
H9 H 0.7469 0.6888 0.4999
C19 C 0.81241(14) 0.8987(3) 0.55662(10)
H10 H 0.8683 0.9062 0.5554
C20 C 0.69774(13) 0.9491(3) 0.57695(9)
H11 H 0.6610 1.0018 0.5928
C21 C 0.83188(13) 1.1550(3) 0.62921(10)
C22 C 0.80209(15) 1.3290(3) 0.60979(10)
H12 H 0.7496 1.3482 0.5726
C23 C 0.84966(15) 1.4724(3) 0.64523(10)
H13 H 0.8296 1.5897 0.6330
C24 C 0.92865(14) 1.4391(3) 0.69991(9)
C25 C 0.95851(12) 1.2645(3) 0.72048(9)
C26 C 0.90852(12) 1.1200(3) 0.68413(9)
H14 H 0.9266 1.0020 0.6968
N1A N 1.32643(10) 0.8104(2) 0.96039(7)
N2A N 1.21800(10) 1.0069(2) 0.91023(7)
C18A C 1.25494(13) 0.7792(3) 0.97379(10)
H9A H 1.2531 0.6888 1.0001
C19A C 1.18759(14) 0.8987(3) 0.94338(10)
H10A H 1.1317 0.9062 0.9446
C20A C 1.30226(13) 0.9491(3) 0.92305(9)
H11A H 1.3390 1.0018 0.9072
C21A C 1.16812(13) 1.1550(3) 0.87079(10)
C22A C 1.19791(15) 1.3290(3) 0.89021(10)
H12A H 1.2504 1.3482 0.9274
C23A C 1.15034(15) 1.4724(3) 0.85477(10)
H13A H 1.1704 1.5897 0.8670
C24A C 1.07135(14) 1.4391(3) 0.80009(9)
C25A C 1.04149(12) 1.2645(3) 0.77952(9)
C26A C 1.09148(12) 1.1200(3) 0.81587(9)
H14A H 1.0734 1.0020 0.8032
Co1A Co 1.441529(15) 0.65636(3) 0.984287(11)
F1A F 1.08856(10) -0.0086(2) 0.69144(8)
F2A F 1.17356(10) -0.2248(2) 0.69107(7)
F3A F 1.05636(10) -0.1506(2) 0.60664(8)
F4A F 1.05713(9) 0.2501(2) 0.60555(7)
F5A F 1.16981(11) 0.31955(19) 0.58692(7)
F6A F 1.08120(10) 0.1037(2) 0.53740(6)
O1A O 1.38696(9) 0.51773(18) 0.90093(6)
O2A O 1.47674(10) 0.2745(2) 0.92643(6)
O3A O 1.39085(10) -0.4440(2) 0.51930(7)
O4A O 1.48291(10) -0.2044(2) 0.54836(7)
C1A C 1.41084(13) 0.3679(3) 0.88870(9)
C2A C 1.35514(13) 0.2922(3) 0.82466(9)
C3A C 1.37233(14) 0.1211(3) 0.80960(10)
H1A H 1.4203 0.0539 0.8390
C4A C 1.31903(14) 0.0493(3) 0.75131(9)
H2A H 1.3321 -0.0655 0.7420
C5A C 1.24650(14) 0.1442(3) 0.70638(9)
C6A C 1.22925(15) 0.3171(3) 0.72160(10)
H3A H 1.1811 0.3844 0.6924
C7A C 1.28364(15) 0.3881(3) 0.77992(10)
H4A H 1.2717 0.5038 0.7893
C8A C 1.18603(13) 0.0500(3) 0.64398(9)
C9A C 1.12616(15) -0.0851(4) 0.65821(11)
C10A C 1.12306(15) 0.1802(3) 0.59357(11)
C11A C 1.24483(13) -0.0446(3) 0.61699(9)
C12A C 1.22266(16) -0.2114(3) 0.58792(13)
H5A H 1.1706 -0.2713 0.5843
C13A C 1.27709(17) -0.2889(3) 0.56436(13)
H6A H 1.2620 -0.4020 0.5458
C14A C 1.35365(13) -0.2019(3) 0.56771(9)
C15A C 1.37388(13) -0.0328(3) 0.59460(9)
H7A H 1.4238 0.0302 0.5960
C16A C 1.32039(14) 0.0433(3) 0.61947(10)
H8A H 1.3358 0.1561 0.6382
C17A C 1.41392(14) -0.2899(3) 0.54348(9)
Co1_2 Co 1.558471(15) -0.34364(3) 0.515713(11)
Co1A_2 Co 0.441529(15) -0.34364(3) 0.984287(11)
Co1B Co 0.441529(15) 0.34364(3) 0.484287(11)
Co1B_2 Co 1.441529(15) -0.65636(3) 0.484287(11)
Co1C Co 0.558471(15) -0.65636(3) 1.015713(11)
Co1C_2 Co 1.558471(15) 0.34364(3) 1.015713(11)
O2B O 0.47674(10) 0.7255(2) 0.42643(6)
O2C O 1.52326(10) 0.7255(2) 1.07357(6)
O3B O 1.39085(10) 0.4440(2) 1.01930(7)
O3C O 0.60915(10) 0.4440(2) 0.48070(7)
O4_2 O 1.51709(10) 0.7956(2) 0.95164(7)
O4A_2 O 0.48291(10) 0.7956(2) 0.54836(7)
loop_
_geom_bond_atom_site_label_1
_geom_bond_atom_site_label_2
_geom_bond_site_symmetry_1
_geom_bond_site_symmetry_2
Co1 O1 1_555 1_555
S1 C24 1_555 1_555
F1 C9 1_555 1_555
F2 C9 1_555 1_555
F3 C9 1_555 1_555
F4 C10 1_555 1_555
F5 C10 1_555 1_555
F6 C10 1_555 1_555
O1 C1 1_555 1_555
O2 C1 1_555 1_555
O3 C17 1_555 1_555
O4 C17 1_555 1_555
N1 Co1 1_555 1_555
N2 C19 1_555 1_555
C1 C2 1_555 1_555
C2 C3 1_555 1_555
C3 H1 1_555 1_555
C4 C3 1_555 1_555
H2 C4 1_555 1_555
C5 C4 1_555 1_555
C6 C5 1_555 1_555
H3 C6 1_555 1_555
C7 C2 1_555 1_555
H4 C7 1_555 1_555
C8 C5 1_555 1_555
C9 C8 1_555 1_555
C10 C8 1_555 1_555
C11 C8 1_555 1_555
C12 C11 1_555 1_555
H5 C12 1_555 1_555
C13 C12 1_555 1_555
H6 C13 1_555 1_555
C14 C13 1_555 1_555
C15 C14 1_555 1_555
H7 C15 1_555 1_555
C16 C11 1_555 1_555
H8 C16 1_555 1_555
C17 C14 1_555 1_555
C18 N1 1_555 1_555
H9 C18 1_555 1_555
C19 C18 1_555 1_555
H10 C19 1_555 1_555
C20 N1 1_555 1_555
H11 C20 1_555 1_555
C21 N2 1_555 1_555
C22 C21 1_555 1_555
H12 C22 1_555 1_555
C23 C22 1_555 1_555
H13 C23 1_555 1_555
C24 C23 1_555 1_555
C25 C24 1_555 1_555
C26 C21 1_555 1_555
H14 C26 1_555 1_555
N1A C18A 1_555 1_555
N2A C19A 1_555 1_555
C18A H9A 1_555 1_555
C19A C18A 1_555 1_555
H10A C19A 1_555 1_555
C20A N1A 1_555 1_555
H11A C20A 1_555 1_555
C21A N2A 1_555 1_555
C22A C21A 1_555 1_555
H12A C22A 1_555 1_555
C23A C22A 1_555 1_555
H13A C23A 1_555 1_555
C24A S1 1_555 1_555
C25A C25 1_555 1_555
C26A C21A 1_555 1_555
H14A C26A 1_555 1_555
Co1A N1A 1_555 1_555
F1A C9A 1_555 1_555
F2A C9A 1_555 1_555
F3A C9A 1_555 1_555
F4A C10A 1_555 1_555
F5A C10A 1_555 1_555
F6A C10A 1_555 1_555
O1A Co1A 1_555 1_555
O2A C1A 1_555 1_555
O3A C17A 1_555 1_555
O4A C17A 1_555 1_555
C1A O1A 1_555 1_555
C2A C1A 1_555 1_555
C3A C2A 1_555 1_555
H1A C3A 1_555 1_555
C4A C3A 1_555 1_555
H2A C4A 1_555 1_555
C5A C4A 1_555 1_555
C6A C5A 1_555 1_555
H3A C6A 1_555 1_555
C7A C2A 1_555 1_555
H4A C7A 1_555 1_555
C8A C5A 1_555 1_555
C9A C8A 1_555 1_555
C10A C8A 1_555 1_555
C11A C8A 1_555 1_555
C12A C11A 1_555 1_555
H5A C12A 1_555 1_555
C13A C12A 1_555 1_555
H6A C13A 1_555 1_555
C14A C13A 1_555 1_555
C15A C14A 1_555 1_555
H7A C15A 1_555 1_555
C16A C11A 1_555 1_555
H8A C16A 1_555 1_555
C17A C14A 1_555 1_555
Co1_2 O4A 1_555 1_555
Co1A_2 O4 1_555 1_555
Co1B O2 1_555 1_555
Co1B_2 O3A 1_555 1_555
Co1C O3 1_555 1_555
Co1C_2 O2A 1_555 1_555
O2B Co1 1_555 1_555
O2C Co1A 1_555 1_555
O3B Co1A 1_555 1_555
O3C Co1 1_555 1_555
O4_2 Co1A 1_555 1_555
O4A_2 Co1 1_555 1_555
N2 C20 1_555 1_555
C6 C7 1_555 1_555
C15 C16 1_555 1_555
C25 C26 1_555 1_555
N2A C20A 1_555 1_555
C23A C24A 1_555 1_555
C24A C25A 1_555 1_555
C25A C26A 1_555 1_555
C6A C7A 1_555 1_555
C15A C16A 1_555 1_555

#END
