
#######################################################################
#
#                 Cambridge Crystallographic Data Centre
#                                CCDC 
#
#######################################################################
#
# If this CIF has been generated from an entry in the Cambridge 
# Structural Database, then it will include bibliographic, chemical, 
# crystal, experimental, refinement or atomic coordinate data resulting 
# from the CCDC's data processing and validation procedures.
#
#######################################################################

data_TONQAQ
_symmetry_cell_setting           monoclinic
_symmetry_space_group_name_H-M   'C 2/c'
_symmetry_Int_Tables_number      15
_space_group_name_Hall           '-C 2yn'
loop_
_symmetry_equiv_pos_site_id
_symmetry_equiv_pos_as_xyz
1 x,y,z
2 -x,y,1/2-z
3 1/2+x,1/2+y,z
4 1/2-x,1/2+y,1/2-z
5 -x,-y,-z
6 x,-y,1/2+z
7 1/2-x,1/2-y,-z
8 1/2+x,1/2-y,1/2+z
_cell_length_a                   25.388(5)
_cell_length_b                   10.4704(19)
_cell_length_c                   25.786(5)
_cell_angle_alpha                90
_cell_angle_beta                 119.116(5)
_cell_angle_gamma                90
_cell_volume                     5988.34
loop_
_atom_site_label
_atom_site_type_symbol
_atom_site_fract_x
_atom_site_fract_y
_atom_site_fract_z
C1 C 0.48697(15) 0.3281(3) 0.54438(14)
C2 C 0.52703(13) 0.2937(3) 0.60835(13)
C3 C 0.52205(14) 0.3583(3) 0.65312(13)
H1 H 0.4946 0.4248 0.6434
C4 C 0.55803(14) 0.3235(3) 0.71228(13)
H2 H 0.5545 0.3658 0.7422
C5 C 0.59896(14) 0.2255(3) 0.72596(14)
C6 C 0.60381(14) 0.1597(3) 0.68210(14)
H3 H 0.6309 0.0923 0.6919
C7 C 0.56806(15) 0.1948(3) 0.62350(15)
H4 H 0.5716 0.1514 0.5939
C8 C 0.60614(12) 0.0781(3) 0.81992(12)
C9 C 0.58252(16) 0.1182(3) 0.85472(15)
H5 H 0.5887 0.2013 0.8693
C10 C 0.54870(16) 0.0313(4) 0.86803(16)
H6 H 0.5327 0.0565 0.8921
C11 C 0.53897(13) -0.0918(3) 0.84555(14)
C12 C 0.56354(13) -0.1301(3) 0.81100(13)
H7 H 0.5573 -0.2131 0.7963
C13 C 0.59703(14) -0.0471(3) 0.79810(14)
H8 H 0.6138 -0.0736 0.7749
C14 C 0.50046(15) -0.1879(4) 0.85870(15)
C15 C 0.36615(14) 0.4349(4) 0.31952(13)
H9 H 0.3764 0.3959 0.2933
C16 C 0.32263(15) 0.5211(4) 0.30462(13)
H10 H 0.2977 0.5535 0.2668
C17 C 0.36533(13) 0.4857(3) 0.39948(13)
H11 H 0.3746 0.4904 0.4391
C18 C 0.28105(12) 0.6396(3) 0.36122(12)
C19 C 0.26460(15) 0.7527(3) 0.32744(14)
H12 H 0.2793 0.7691 0.3013
C20 C 0.22682(14) 0.8388(3) 0.33307(13)
H13 H 0.2164 0.9146 0.3116
C21 C 0.20457(12) 0.8106(3) 0.37126(13)
C22 C 0.22049(12) 0.6970(3) 0.40479(12)
C23 C 0.25870(11) 0.6115(3) 0.39891(11)
H14 H 0.2692 0.5355 0.4203
C24 C 0.19123(11) 0.6887(3) 0.44063(12)
C25 C 0.15539(12) 0.7956(3) 0.43447(12)
C26 C 0.12232(12) 0.8053(3) 0.46402(13)
H15 H 0.0993 0.8776 0.4600
C27 C 0.12443(12) 0.7048(3) 0.49963(12)
H16 H 0.1028 0.7093 0.5202
C28 C 0.15852(12) 0.5974(3) 0.50496(12)
C29 C 0.19261(11) 0.5869(3) 0.47648(12)
H17 H 0.2157 0.5145 0.4810
C30 C 0.20310(13) 0.4135(3) 0.57668(14)
H18 H 0.2432 0.4193 0.5855
C31 C 0.17976(14) 0.3274(3) 0.59834(14)
H19 H 0.2013 0.2630 0.6252
C32 C 0.10647(13) 0.4488(3) 0.53905(13)
H20 H 0.0684 0.4849 0.5170
N1 N 0.39351(11) 0.4122(2) 0.37943(11)
N2 N 0.32146(11) 0.5531(2) 0.35542(10)
N3 N 0.11847(11) 0.3495(2) 0.57428(11)
N4 N 0.15666(10) 0.4916(2) 0.53905(11)
O1 O 0.44140(14) 0.3927(3) 0.52992(11)
O2 O 0.50270(11) 0.2814(3) 0.50837(10)
O3 O 0.48647(12) -0.1472(3) 0.89631(12)
O4 O 0.48666(16) -0.2888(3) 0.83308(16)
O5 O 0.65936(12) 0.2987(3) 0.83627(11)
O6 O 0.69824(10) 0.1187(3) 0.80286(12)
S1 S 0.15605(3) 0.90700(8) 0.38467(3)
S2 S 0.64791(3) 0.18502(8) 0.80093(3)
Zn1 Zn 0.445506(14) 0.26430(3) 0.423611(14)
N3F N 0.38153(11) 0.1505(2) 0.42572(11)
O3E O 0.48647(12) 0.1472(3) 0.39631(12)
Zn1E Zn 0.445506(14) -0.26430(3) 0.923611(14)
Zn1F Zn 0.054494(14) 0.23570(3) 0.576389(14)
loop_
_geom_bond_atom_site_label_1
_geom_bond_atom_site_label_2
_geom_bond_site_symmetry_1
_geom_bond_site_symmetry_2
C1 C2 1_555 1_555
C2 C3 1_555 1_555
C3 H1 1_555 1_555
C4 C3 1_555 1_555
H2 C4 1_555 1_555
C5 C4 1_555 1_555
C6 C5 1_555 1_555
H3 C6 1_555 1_555
C7 C2 1_555 1_555
H4 C7 1_555 1_555
C8 C9 1_555 1_555
C9 H5 1_555 1_555
C10 C9 1_555 1_555
H6 C10 1_555 1_555
C11 C10 1_555 1_555
C12 C11 1_555 1_555
H7 C12 1_555 1_555
C13 C8 1_555 1_555
H8 C13 1_555 1_555
C14 C11 1_555 1_555
C15 H9 1_555 1_555
C16 C15 1_555 1_555
H10 C16 1_555 1_555
C17 H11 1_555 1_555
C18 C19 1_555 1_555
C19 H12 1_555 1_555
C20 C19 1_555 1_555
H13 C20 1_555 1_555
C21 C20 1_555 1_555
C22 C21 1_555 1_555
C23 C18 1_555 1_555
H14 C23 1_555 1_555
C24 C22 1_555 1_555
C25 C24 1_555 1_555
C26 C25 1_555 1_555
H15 C26 1_555 1_555
C27 C26 1_555 1_555
H16 C27 1_555 1_555
C28 C27 1_555 1_555
C29 C24 1_555 1_555
H17 C29 1_555 1_555
C30 H18 1_555 1_555
C31 C30 1_555 1_555
H19 C31 1_555 1_555
C32 H20 1_555 1_555
N1 C15 1_555 1_555
N2 C16 1_555 1_555
N3 C31 1_555 1_555
N4 C28 1_555 1_555
O1 C1 1_555 1_555
O2 C1 1_555 1_555
O3 C14 1_555 1_555
O4 C14 1_555 1_555
O5 S2 1_555 1_555
O6 S2 1_555 1_555
S1 C21 1_555 1_555
S2 C5 1_555 1_555
Zn1 N1 1_555 1_555
N3F Zn1 1_555 1_555
O3E Zn1 1_555 1_555
Zn1E O3 1_555 1_555
Zn1F N3 1_555 1_555
C6 C7 1_555 1_555
C8 S2 1_555 1_555
C12 C13 1_555 1_555
C17 N1 1_555 1_555
C17 N2 1_555 1_555
C18 N2 1_555 1_555
C22 C23 1_555 1_555
C25 S1 1_555 1_555
C28 C29 1_555 1_555
C30 N4 1_555 1_555
C32 N3 1_555 1_555
C32 N4 1_555 1_555
O2 Zn1 1_555 1_555

#END
