
#######################################################################
#
#                 Cambridge Crystallographic Data Centre
#                                CCDC 
#
#######################################################################
#
# If this CIF has been generated from an entry in the Cambridge 
# Structural Database, then it will include bibliographic, chemical, 
# crystal, experimental, refinement or atomic coordinate data resulting 
# from the CCDC's data processing and validation procedures.
#
#######################################################################

data_TONQOE
_symmetry_cell_setting           monoclinic
_symmetry_space_group_name_H-M   'P 21/c'
_symmetry_Int_Tables_number      14
_space_group_name_Hall           '-P 2ybc'
loop_
_symmetry_equiv_pos_site_id
_symmetry_equiv_pos_as_xyz
1 x,y,z
2 -x,1/2+y,1/2-z
3 -x,-y,-z
4 x,1/2-y,1/2+z
_cell_length_a                   4.1718(2)
_cell_length_b                   27.4616(14)
_cell_length_c                   7.6232(6)
_cell_angle_alpha                90
_cell_angle_beta                 97.299(3)
_cell_angle_gamma                90
_cell_volume                     866.27
loop_
_atom_site_label
_atom_site_type_symbol
_atom_site_fract_x
_atom_site_fract_y
_atom_site_fract_z
I1 I 0.18280(13) 0.02746(2) -0.24130(8)
Cu1 Cu 0.2879(3) 0.01912(5) 0.10568(17)
N1 N 0.3035(17) 0.0884(3) 0.2105(11)
N2 N 0.286(3) 0.1800(3) 0.3618(13)
C1 C 0.141(3) 0.1251(4) 0.1283(14)
C2 C 0.132(3) 0.1708(4) 0.2011(15)
C3 C 0.451(3) 0.1437(4) 0.4476(14)
C4 C 0.456(3) 0.0976(4) 0.3705(14)
C5 C -0.049(4) 0.2128(5) 0.105(2)
C6 C 0.620(4) 0.1540(5) 0.6267(16)
H1 H 0.0297 0.1197 0.0164
H2 H 0.5684 0.0725 0.4332
H3 H 0.0597 0.2218 0.0066
H4 H -0.2673 0.2034 0.0638
H5 H -0.0515 0.2401 0.1840
H6 H 0.4649 0.1641 0.7025
H7 H 0.7281 0.1252 0.6741
H8 H 0.7751 0.1795 0.6199
I1B I -0.18280(13) -0.02746(2) 0.24130(8)
I1B_2 I 0.81720(13) -0.02746(2) 0.24130(8)
Cu1B Cu -0.2879(3) -0.01912(5) -0.10568(17)
Cu1B_2 Cu 0.7121(3) -0.01912(5) -0.10568(17)
loop_
_geom_bond_atom_site_label_1
_geom_bond_atom_site_label_2
_geom_bond_site_symmetry_1
_geom_bond_site_symmetry_2
I1 Cu1 1_555 1_555
Cu1 N1 1_555 1_555
N1 C1 1_555 1_555
N2 C2 1_555 1_555
C1 C2 1_555 1_555
C2 C5 1_555 1_555
C3 N2 1_555 1_555
C4 N1 1_555 1_555
C5 H3 1_555 1_555
C6 C3 1_555 1_555
H1 C1 1_555 1_555
H2 C4 1_555 1_555
H4 C5 1_555 1_555
H5 C5 1_555 1_555
H6 C6 1_555 1_555
H7 C6 1_555 1_555
H8 C6 1_555 1_555
I1B Cu1 1_555 1_555
I1B_2 Cu1 1_555 1_555
Cu1B I1 1_555 1_555
Cu1B_2 I1 1_555 1_555
C3 C4 1_555 1_555
I1B Cu1B 1_555 1_555
I1B_2 Cu1B_2 1_555 1_555

#END
