
#######################################################################
#
#                 Cambridge Crystallographic Data Centre
#                                CCDC 
#
#######################################################################
#
# If this CIF has been generated from an entry in the Cambridge 
# Structural Database, then it will include bibliographic, chemical, 
# crystal, experimental, refinement or atomic coordinate data resulting 
# from the CCDC's data processing and validation procedures.
#
#######################################################################

data_TONQOE01
_symmetry_cell_setting           monoclinic
_symmetry_space_group_name_H-M   'P 21/c'
_symmetry_Int_Tables_number      14
_space_group_name_Hall           '-P 2ybc'
loop_
_symmetry_equiv_pos_site_id
_symmetry_equiv_pos_as_xyz
1 x,y,z
2 -x,1/2+y,1/2-z
3 -x,-y,-z
4 x,1/2-y,1/2+z
_cell_length_a                   4.1415(7)
_cell_length_b                   27.341(5)
_cell_length_c                   7.5831(12)
_cell_angle_alpha                90
_cell_angle_beta                 96.983(2)
_cell_angle_gamma                90
_cell_volume                     852.286
loop_
_atom_site_label
_atom_site_type_symbol
_atom_site_fract_x
_atom_site_fract_y
_atom_site_fract_z
I1 I -0.31615(6) -0.027843(9) -0.24319(3)
Cu1 Cu -0.21280(12) -0.018868(17) 0.10467(7)
N1 N -0.1986(8) -0.08827(12) 0.2096(4)
N2 N -0.2216(9) -0.18035(12) 0.3640(5)
C1 C -0.3646(11) -0.12507(14) 0.1269(5)
H1 H -0.4787 -0.1197 0.0121
C2 C -0.3759(11) -0.17080(15) 0.2026(6)
C3 C -0.0531(10) -0.14376(14) 0.4486(5)
C4 C -0.0420(10) -0.09777(14) 0.3708(5)
H2 H 0.0799 -0.0725 0.4338
C5 C -0.5594(14) -0.21243(17) 0.1057(7)
H3 H -0.4048 -0.2352 0.0617
H4 H -0.7061 -0.1995 0.0054
H5 H -0.6866 -0.2297 0.1872
C6 C 0.1185(12) -0.15361(17) 0.6306(6)
H6 H -0.0399 -0.1538 0.7166
H7 H 0.2807 -0.1280 0.6625
H8 H 0.2269 -0.1855 0.6316
I1B I -0.68385(6) 0.027843(9) 0.24319(3)
I1B_2 I 0.31615(6) 0.027843(9) 0.24319(3)
Cu1B Cu -0.78720(12) 0.018868(17) -0.10467(7)
Cu1B_2 Cu 0.21280(12) 0.018868(17) -0.10467(7)
loop_
_geom_bond_atom_site_label_1
_geom_bond_atom_site_label_2
_geom_bond_site_symmetry_1
_geom_bond_site_symmetry_2
I1 Cu1 1_555 1_555
Cu1 N1 1_555 1_555
N1 C1 1_555 1_555
N2 C2 1_555 1_555
C1 H1 1_555 1_555
C2 C1 1_555 1_555
C3 N2 1_555 1_555
C4 N1 1_555 1_555
H2 C4 1_555 1_555
C5 C2 1_555 1_555
H3 C5 1_555 1_555
H4 C5 1_555 1_555
H5 C5 1_555 1_555
C6 C3 1_555 1_555
H6 C6 1_555 1_555
H7 C6 1_555 1_555
H8 C6 1_555 1_555
I1B Cu1 1_555 1_555
I1B_2 Cu1 1_555 1_555
Cu1B I1 1_555 1_555
Cu1B_2 I1 1_555 1_555
C3 C4 1_555 1_555
I1B Cu1B 1_555 1_555
I1B_2 Cu1B_2 1_555 1_555

#END
