
#######################################################################
#
#                 Cambridge Crystallographic Data Centre
#                                CCDC 
#
#######################################################################
#
# If this CIF has been generated from an entry in the Cambridge 
# Structural Database, then it will include bibliographic, chemical, 
# crystal, experimental, refinement or atomic coordinate data resulting 
# from the CCDC's data processing and validation procedures.
#
#######################################################################

data_TONQUK
_symmetry_cell_setting           monoclinic
_symmetry_space_group_name_H-M   'C 2/c'
_symmetry_Int_Tables_number      15
_space_group_name_Hall           '-C 2yn'
loop_
_symmetry_equiv_pos_site_id
_symmetry_equiv_pos_as_xyz
1 x,y,z
2 -x,y,1/2-z
3 1/2+x,1/2+y,z
4 1/2-x,1/2+y,1/2-z
5 -x,-y,-z
6 x,-y,1/2+z
7 1/2-x,1/2-y,-z
8 1/2+x,1/2-y,1/2+z
_cell_length_a                   14.102(5)
_cell_length_b                   15.392(6)
_cell_length_c                   8.233(3)
_cell_angle_alpha                90
_cell_angle_beta                 97.833(18)
_cell_angle_gamma                90
_cell_volume                     1770.36
loop_
_atom_site_label
_atom_site_type_symbol
_atom_site_fract_x
_atom_site_fract_y
_atom_site_fract_z
I1 I 0.13300(2) 0.04727(2) 1.42585(3)
Cu1 Cu 0.05421(4) 0.06713(4) 1.11323(7)
N1 N 0.0945(3) 0.1868(2) 1.0402(5)
C1 C 0.1074(3) 0.2027(3) 0.8833(5)
C2 C 0.1316(3) 0.2815(3) 0.8272(5)
C3 C 0.1418(3) 0.3499(3) 0.9365(5)
C4 C 0.1293(3) 0.3374(3) 1.0991(5)
C5 C 0.1060(3) 0.2547(3) 1.1447(5)
C6 C 0.1428(5) 0.2940(4) 0.6478(6)
C7 C 0.1406(5) 0.4112(4) 1.2222(7)
H1 H 0.0998 0.1566 0.8096
H2 H 0.1577 0.4047 0.9007
H3 H 0.0983 0.2450 1.2536
H4 H 0.0836 0.2802 0.5807
H5 H 0.1595 0.3533 0.6293
H6 H 0.1924 0.2564 0.6199
H7 H 0.1908 0.3970 1.3090
H8 H 0.1562 0.4642 1.1704
H9 H 0.0816 0.4185 1.2666
I1A I -0.13300(2) 0.04727(2) 1.07415(3)
I1E I 0.13300(2) -0.04727(2) 0.92585(3)
Cu1A Cu -0.05421(4) 0.06713(4) 1.38677(7)
Cu1E Cu 0.05421(4) -0.06713(4) 1.61323(7)
loop_
_geom_bond_atom_site_label_1
_geom_bond_atom_site_label_2
_geom_bond_site_symmetry_1
_geom_bond_site_symmetry_2
I1 Cu1 1_555 1_555
Cu1 N1 1_555 1_555
N1 C1 1_555 1_555
C1 C2 1_555 1_555
C2 C3 1_555 1_555
C3 C4 1_555 1_555
C4 C5 1_555 1_555
C5 N1 1_555 1_555
C6 C2 1_555 1_555
C7 C4 1_555 1_555
H1 C1 1_555 1_555
H2 C3 1_555 1_555
H3 C5 1_555 1_555
H4 C6 1_555 1_555
H5 C6 1_555 1_555
H6 C6 1_555 1_555
H7 C7 1_555 1_555
H8 C7 1_555 1_555
H9 C7 1_555 1_555
I1A Cu1 1_555 1_555
I1E Cu1 1_555 1_555
Cu1A I1 1_555 1_555
Cu1E I1 1_555 1_555
I1A Cu1A 1_555 1_555

#END
