
#######################################################################
#
#                 Cambridge Crystallographic Data Centre
#                                CCDC 
#
#######################################################################
#
# If this CIF has been generated from an entry in the Cambridge 
# Structural Database, then it will include bibliographic, chemical, 
# crystal, experimental, refinement or atomic coordinate data resulting 
# from the CCDC's data processing and validation procedures.
#
#######################################################################

data_TONQEU
_symmetry_cell_setting           orthorhombic
_symmetry_space_group_name_H-M   'P c c a'
_symmetry_Int_Tables_number      54
_space_group_name_Hall           '-P 2a 2ac'
loop_
_symmetry_equiv_pos_site_id
_symmetry_equiv_pos_as_xyz
1 x,y,z
2 1/2-x,-y,z
3 1/2+x,-y,1/2-z
4 -x,y,1/2-z
5 -x,-y,-z
6 1/2+x,y,-z
7 1/2-x,y,1/2+z
8 x,-y,1/2+z
_cell_length_a                   14.8105(6)
_cell_length_b                   10.1034(6)
_cell_length_c                   6.8817(3)
_cell_angle_alpha                90
_cell_angle_beta                 90
_cell_angle_gamma                90
_cell_volume                     1029.75
loop_
_atom_site_label
_atom_site_type_symbol
_atom_site_fract_x
_atom_site_fract_y
_atom_site_fract_z
I1 I 0.34472(2) 0.35078(3) 0.82830(4)
Cu1 Cu 0.32477(4) 0.40087(7) 0.44891(9)
N1 N 0.4277(3) 0.2880(4) 0.3264(5)
C1 C 0.500000(10) 0.3481(6) 0.250000(10)
C2 C 0.4284(4) 0.1566(5) 0.3268(6)
C3 C 0.500000(10) 0.0854(6) 0.250000(10)
C4 C 0.3472(4) 0.0862(6) 0.4067(10)
H1 H 0.5000 0.4402 0.2500
H2 H 0.5000 -0.0066 0.2500
H3 H 0.3510 -0.0062 0.3752
H4 H 0.3447 0.0967 0.5452
H5 H 0.2937 0.1230 0.3494
N1C N 0.5723(3) 0.2880(4) 0.1736(5)
C2C C 0.5716(4) 0.1566(5) 0.1732(6)
C4C C 0.6528(4) 0.0862(6) 0.0933(10)
H3C H 0.6490 -0.0062 0.1248
H4C H 0.6553 0.0967 -0.0452
H5C H 0.7063 0.1230 0.1506
I1C I 0.65528(2) 0.35078(3) -0.32830(4)
Cu1C Cu 0.67523(4) 0.40087(7) 0.05109(9)
I1F I 0.15528(2) 0.35078(3) 0.32830(4)
I1G I 0.34472(2) 0.64922(3) 0.32830(4)
I1D I 0.65528(2) 0.64922(3) 0.17170(4)
I1E I 0.84472(2) 0.35078(3) 0.17170(4)
Cu1F Cu 0.17523(4) 0.40087(7) 0.94891(9)
Cu1G Cu 0.32477(4) 0.59913(7) 0.94891(9)
Cu1D Cu 0.67523(4) 0.59913(7) -0.44891(9)
Cu1E Cu 0.82477(4) 0.40087(7) -0.44891(9)
loop_
_geom_bond_atom_site_label_1
_geom_bond_atom_site_label_2
_geom_bond_site_symmetry_1
_geom_bond_site_symmetry_2
I1 Cu1 1_555 1_555
Cu1 N1 1_555 1_555
N1 C1 1_555 1_555
C1 H1 1_555 1_555
C2 N1 1_555 1_555
C3 C2 1_555 1_555
C4 C2 1_555 1_555
H2 C3 1_555 1_555
H3 C4 1_555 1_555
H4 C4 1_555 1_555
H5 C4 1_555 1_555
N1C C1 1_555 1_555
C2C C3 1_555 1_555
C4C C2C 1_555 1_555
H3C C4C 1_555 1_555
H4C C4C 1_555 1_555
H5C C4C 1_555 1_555
I1C Cu1C 1_555 1_555
Cu1C N1C 1_555 1_555
I1F Cu1 1_555 1_555
I1G Cu1 1_555 1_555
I1D Cu1C 1_555 1_555
I1E Cu1C 1_555 1_555
Cu1F I1 1_555 1_555
Cu1G I1 1_555 1_555
Cu1D I1C 1_555 1_555
Cu1E I1C 1_555 1_555
N1C C2C 1_555 1_555

#END
