
#######################################################################
#
#                 Cambridge Crystallographic Data Centre
#                                CCDC 
#
#######################################################################
#
# If this CIF has been generated from an entry in the Cambridge 
# Structural Database, then it will include bibliographic, chemical, 
# crystal, experimental, refinement or atomic coordinate data resulting 
# from the CCDC's data processing and validation procedures.
#
#######################################################################

data_TONSIY
_symmetry_cell_setting           monoclinic
_symmetry_space_group_name_H-M   'P 21/c'
_symmetry_Int_Tables_number      14
_space_group_name_Hall           '-P 2ybc'
loop_
_symmetry_equiv_pos_site_id
_symmetry_equiv_pos_as_xyz
1 x,y,z
2 -x,1/2+y,1/2-z
3 -x,-y,-z
4 x,1/2-y,1/2+z
_cell_length_a                   14.082(2)
_cell_length_b                   7.263(3)
_cell_length_c                   27.798(5)
_cell_angle_alpha                90
_cell_angle_beta                 93.14(1)
_cell_angle_gamma                90
_cell_volume                     2838.84
loop_
_atom_site_label
_atom_site_type_symbol
_atom_site_fract_x
_atom_site_fract_y
_atom_site_fract_z
Ba1 Ba 0.0903(1) 0.5412(1) 0.7497(1)
N1 N 0.5605(3) 0.4320(7) 0.9141(2)
N2 N 0.2230(2) 0.6215(7) 0.8723(1)
N3 N 0.1336(3) 0.6527(6) 0.8511(1)
N4 N 0.5094(3) 0.4158(7) 0.5750(2)
N5 N 0.1936(3) 0.6294(7) 0.6267(1)
N6 N 0.1092(3) 0.6587(6) 0.6487(1)
O1 O 0.2719(3) 0.5027(6) 0.8023(1)
O2 O -0.0314(2) 0.7419(6) 0.8069(1)
O3 O -0.0988(3) 0.7278(7) 0.8771(1)
O4 O 0.2605(3) 0.5096(6) 0.6956(1)
O5 O -0.0456(2) 0.7414(5) 0.6941(1)
O6 O -0.1304(3) 0.7169(7) 0.6247(1)
O7 O 0.1385(5) 0.9061(7) 0.7504(2)
C1 C 0.4809(4) 0.4053(8) 0.9370(2)
C2 C 0.3912(4) 0.4384(8) 0.9170(2)
C3 C 0.3824(3) 0.5043(7) 0.8699(2)
C4 C 0.4642(4) 0.5314(9) 0.8458(2)
C5 C 0.5511(4) 0.4938(8) 0.8693(2)
C6 C 0.2878(3) 0.5433(8) 0.8445(2)
C7 C 0.0682(3) 0.7042(7) 0.8788(2)
C8 C -0.0285(3) 0.7266(7) 0.8523(2)
C9 C 0.0792(4) 0.7309(10) 0.9318(2)
C10 C 0.4217(4) 0.3989(9) 0.5547(2)
C11 C 0.3414(4) 0.4397(8) 0.5782(2)
C12 C 0.3503(3) 0.5020(6) 0.6253(2)
C13 C 0.4405(4) 0.5176(8) 0.6469(2)
C14 C 0.5169(4) 0.4745(9) 0.6203(2)
C15 C 0.2648(3) 0.5490(8) 0.6527(2)
C16 C 0.0364(3) 0.7053(7) 0.6218(3)
C17 C -0.0541 0.7239 0.6488
C18 C 0.0329 0.7309 0.5685
H1 H 0.2473(37) 0.6777(75) 0.9015(15)
H2 H 0.2017(39) 0.6759(78) 0.5954(14)
H3 H 0.1693 0.9440 0.7243
H4 H 0.1860 0.9427 0.7757
H11 H 0.4888(39) 0.3571(80) 0.9704(13)
H12 H 0.3322(34) 0.420(10) 0.9331(24)
H13 H 0.4623(35) 0.5852(67) 0.8134(13)
H14 H 0.6134(30) 0.5129(87) 0.8540(21)
H15 H 0.1171(37) 0.8433(62) 0.9400(20)
H16 H 0.0175(32) 0.757(10) 0.9443(24)
H17 H 0.1145(47) 0.6312(83) 0.9493(24)
H18 H 0.4140(41) 0.3726(88) 0.5200(12)
H19 H 0.2781(28) 0.4280(86) 0.5629(20)
H20 H 0.4481(36) 0.5627(74) 0.6778(18)
H21 H 0.5728(46) 0.4753(84) 0.6340(21)
H22 H 0.0655 0.6159 0.5530
H23 H 0.0721 0.8019 0.5594
H24 H -0.0232 0.7559 0.5534
O2A O 0.0314(2) 0.2419(6) 0.6931(1)
O5A O 0.0456(2) 0.2414(5) 0.8059(1)
Ba1A Ba -0.0903(1) 1.0412(1) 0.7503(1)
O8 O 0.6919(2) 0.1803(5) 1.0444(1)
H5 H 0.7194(43) 0.0566(57) 1.0400(23)
H6 H 0.6289(40) 0.134(14) 1.0520(35)
O9 O 0.7753(3) 0.6514(7) 0.5388(1)
O10 O 0.4054(4) -0.1835(7) 0.7483(2)
O11 O 0.3953(4) 0.2274(7) 0.7510(2)
O12 O 0.2663(4) 0.0535(9) 0.8209(2)
O13 O -0.1539(3) 0.6514(7) 0.9679(1)
H7 H -0.1307(47) 0.7065(97) 0.9400(18)
H8 H -0.1845(54) 0.5336(70) 0.9713(30)
O14 O 0.7376(3) 0.3355(6) 0.9567(1)
H9 H 0.6742(27) 0.3693(86) 0.9438(20)
H10 H 0.7220(48) 0.2789(97) 0.9879(17)
O15 O 0.2439(4) 0.4277(9) 0.1810(2)
loop_
_geom_bond_atom_site_label_1
_geom_bond_atom_site_label_2
_geom_bond_site_symmetry_1
_geom_bond_site_symmetry_2
Ba1 N3 1_555 1_555
N1 C1 1_555 1_555
N2 N3 1_555 1_555
N3 C7 1_555 1_555
N4 C10 1_555 1_555
N5 N6 1_555 1_555
N6 Ba1 1_555 1_555
O1 Ba1 1_555 1_555
O2 Ba1 1_555 1_555
O3 C8 1_555 1_555
O4 Ba1 1_555 1_555
O5 Ba1 1_555 1_555
O6 C17 1_555 1_555
O7 Ba1 1_555 1_555
O8 H5 1_555 1_555
O13 H7 1_555 1_555
O14 H9 1_555 1_555
C1 C2 1_555 1_555
C2 C3 1_555 1_555
C3 C4 1_555 1_555
C4 C5 1_555 1_555
C5 N1 1_555 1_555
C6 N2 1_555 1_555
C7 C8 1_555 1_555
C8 O2 1_555 1_555
C9 C7 1_555 1_555
C10 C11 1_555 1_555
C11 C12 1_555 1_555
C12 C13 1_555 1_555
C13 C14 1_555 1_555
C14 N4 1_555 1_555
C15 N5 1_555 1_555
C16 N6 1_555 1_555
C17 O5 1_555 1_555
C18 C16 1_555 1_555
H1 N2 1_555 1_555
H2 N5 1_555 1_555
H3 O7 1_555 1_555
H4 O7 1_555 1_555
H6 O8 1_555 1_555
H8 O13 1_555 1_555
H10 O14 1_555 1_555
H11 C1 1_555 1_555
H12 C2 1_555 1_555
H13 C4 1_555 1_555
H14 C5 1_555 1_555
H15 C9 1_555 1_555
H16 C9 1_555 1_555
H17 C9 1_555 1_555
H18 C10 1_555 1_555
H19 C11 1_555 1_555
H20 C13 1_555 1_555
H21 C14 1_555 1_555
H22 C18 1_555 1_555
H23 C18 1_555 1_555
H24 C18 1_555 1_555
O2A Ba1 1_555 1_555
O5A Ba1 1_555 1_555
Ba1A O2 1_555 1_555
O1 C6 1_555 1_555
O4 C15 1_555 1_555
O5 Ba1A 1_555 1_555
C3 C6 1_555 1_555
C12 C15 1_555 1_555
C16 C17 1_555 1_555

#END
