
#######################################################################
#
#                 Cambridge Crystallographic Data Centre
#                                CCDC 
#
#######################################################################
#
# If this CIF has been generated from an entry in the Cambridge 
# Structural Database, then it will include bibliographic, chemical, 
# crystal, experimental, refinement or atomic coordinate data resulting 
# from the CCDC's data processing and validation procedures.
#
#######################################################################

data_TONSUL
_symmetry_cell_setting           triclinic
_symmetry_space_group_name_H-M   'P -1'
_symmetry_Int_Tables_number      2
_space_group_name_Hall           '-P 1'
loop_
_symmetry_equiv_pos_site_id
_symmetry_equiv_pos_as_xyz
1 x,y,z
2 -x,-y,-z
_cell_length_a                   12.3867(10)
_cell_length_b                   14.0670(11)
_cell_length_c                   17.2807(11)
_cell_angle_alpha                101.195(5)
_cell_angle_beta                 104.331(5)
_cell_angle_gamma                104.559(4)
_cell_volume                     2716.11
loop_
_atom_site_label
_atom_site_type_symbol
_atom_site_fract_x
_atom_site_fract_y
_atom_site_fract_z
U1 U -0.27971(3) 1.01997(3) 0.41542(2)
U2 U -0.53844(2) 0.858474(18) 0.459758(15)
O1 O -0.1811(5) 1.0319(4) 0.5156(3)
O2 O -0.3616(4) 1.0179(4) 0.3107(3)
O3 O -0.4316(4) 0.8502(3) 0.5458(3)
O4 O -0.6518(5) 0.8524(4) 0.3723(3)
O5 O -0.4264(4) 1.0131(3) 0.4586(3)
O6 O -0.4011(6) 0.8398(5) 0.3830(4)
O7 O -0.1546(8) 0.9372(6) 0.3637(5)
H1 H -0.1616 0.9371 0.3149
H2 H -0.0873 0.9559 0.3948
O8 O -0.6930(5) 0.7903(4) 0.5256(3)
H3 H -0.6586 0.7700 0.5709
H4 H -0.7502 0.7421 0.4899
O9 O -0.5975(5) 0.6702(3) 0.4087(3)
H5 H -0.6705 0.6221 0.3679
H6 H -0.5807 0.6388 0.4538
O10 O -0.1257(4) 1.1612(4) 0.3933(4)
O11 O 0.1985(4) 1.5056(4) 0.3125(3)
O12 O 0.0644(5) 1.2242(5) 0.5900(4)
O13 O 0.4084(4) 1.5742(3) 0.5242(3)
O14 O 0.3634(4) 1.7369(4) 0.6669(3)
O15 O 0.0259(4) 1.3979(4) 0.7382(3)
N1 N -0.0953(5) 1.2277(5) 0.2857(5)
N2 N 0.0561(5) 1.2079(5) 0.3735(4)
N3 N 0.1840(5) 1.3523(4) 0.3480(3)
N4 N 0.0360(5) 1.3618(5) 0.2488(4)
N5 N 0.1896(5) 1.2565(4) 0.5128(4)
N6 N 0.2465(5) 1.3451(5) 0.6436(4)
N7 N 0.3893(5) 1.4816(4) 0.6187(3)
N8 N 0.3202(4) 1.3981(4) 0.4849(3)
N9 N -0.2592(5) 1.2947(5) 0.2429(4)
N10 N 0.3576(5) 1.6024(5) 0.7251(4)
N11 N 0.2227(5) 1.4659(5) 0.7548(4)
N12 N -0.1234(5) 1.4299(5) 0.2134(4)
C1 C -0.0592(6) 1.1964(6) 0.3553(5)
C2 C 0.0013(6) 1.2578(6) 0.2493(5)
H7 H -0.0153 1.2116 0.1944
C3 C 0.1071(6) 1.2484(6) 0.3145(5)
H8 H 0.1449 1.2033 0.2889
C4 C 0.1457(6) 1.4155(6) 0.3047(4)
C5 C 0.1189(7) 1.1739(6) 0.4385(5)
H9 H 0.1697 1.1401 0.4180
H10 H 0.0631 1.1241 0.4529
C6 C 0.3054(6) 1.3788(5) 0.3971(4)
H11 H 0.3509 1.4392 0.3867
H12 H 0.3354 1.3235 0.3801
C7 C 0.1579(7) 1.2709(6) 0.5826(5)
C8 C 0.3081(6) 1.3172(5) 0.5263(4)
H13 H 0.3563 1.2742 0.5140
C9 C 0.3517(6) 1.3762(5) 0.6188(4)
H14 H 0.4161 1.3568 0.6503
C10 C 0.3744(5) 1.4929(5) 0.5401(4)
C11 C 0.2443(7) 1.3710(6) 0.7293(5)
H15 H 0.1840 1.3167 0.7356
H16 H 0.3191 1.3742 0.7660
C12 C 0.4425(6) 1.5671(6) 0.6907(4)
H17 H 0.4901 1.6231 0.6765
H18 H 0.4943 1.5488 0.7331
C13 C -0.2155(7) 1.2049(6) 0.2383(6)
H19 H -0.2638 1.1548 0.2575
H20 H -0.2254 1.1740 0.1807
C14 C -0.0284(6) 1.4010(7) 0.1895(4)
H21 H -0.0612 1.3498 0.1363
H22 H 0.0247 1.4603 0.1828
C15 C 0.3280(5) 1.6865(5) 0.7111(4)
C16 C -0.2425(6) 1.3615(7) 0.1914(4)
H23 H -0.2730 1.3242 0.1324
C17 C 0.3113(6) 1.5645(6) 0.7865(4)
H24 H 0.3741 1.5673 0.8351
C18 C 0.1154(6) 1.4723(7) 0.7577(4)
U1A U 0.27971(3) 1.98003(3) 0.58458(2)
U1A_2 U -0.72029(3) 0.98003(3) 0.58458(2)
U2A U -0.46156(2) 1.141526(18) 0.540242(15)
O1A O -0.8189(5) 0.9681(4) 0.4844(3)
O2A O -0.6384(4) 0.9821(4) 0.6893(3)
O3A O -0.5684(4) 1.1498(3) 0.4542(3)
O4A O -0.3482(5) 1.1476(4) 0.6277(3)
O5A O -0.5736(4) 0.9869(3) 0.5414(3)
O6A O -0.5989(6) 1.1602(5) 0.6170(4)
O7A O -0.8454(8) 1.0628(6) 0.6363(5)
H1A H -0.8384 1.0629 0.6851
H2A H -0.9127 1.0441 0.6052
O8A O -0.3070(5) 1.2097(4) 0.4744(3)
H3A H -0.3414 1.2300 0.4291
H4A H -0.2498 1.2579 0.5101
O9A O -0.4025(5) 1.3298(3) 0.5913(3)
H5A H -0.3295 1.3779 0.6321
H6A H -0.4193 1.3612 0.5462
O10A O 0.1257(4) 1.8388(4) 0.6067(4)
O10A_2 O -0.8743(4) 0.8388(4) 0.6067(4)
O11A O -0.1985(4) 1.4944(4) 0.6875(3)
O12A O -0.0644(5) 1.7758(5) 0.4100(4)
O13A O -0.4084(4) 1.4258(3) 0.4758(3)
O14A O -0.3634(4) 1.2631(4) 0.3331(3)
O15A O -0.0259(4) 1.6021(4) 0.2618(3)
N1A N 0.0953(5) 1.7723(5) 0.7143(5)
N2A N -0.0561(5) 1.7921(5) 0.6265(4)
N3A N -0.1840(5) 1.6477(4) 0.6520(3)
N4A N -0.0360(5) 1.6382(5) 0.7512(4)
N5A N -0.1896(5) 1.7435(4) 0.4872(4)
N6A N -0.2465(5) 1.6549(5) 0.3564(4)
N7A N -0.3893(5) 1.5184(4) 0.3813(3)
N8A N -0.3202(4) 1.6019(4) 0.5151(3)
N9A N 0.2592(5) 1.7053(5) 0.7571(4)
N10A N -0.3576(5) 1.3976(5) 0.2749(4)
N11A N -0.2227(5) 1.5341(5) 0.2452(4)
N12A N 0.1234(5) 1.5701(5) 0.7866(4)
C1A C 0.0592(6) 1.8036(6) 0.6447(5)
C2A C -0.0013(6) 1.7422(6) 0.7507(5)
H7A H 0.0153 1.7884 0.8056
C3A C -0.1071(6) 1.7516(6) 0.6855(5)
H8A H -0.1449 1.7967 0.7111
C4A C -0.1457(6) 1.5845(6) 0.6953(4)
C5A C -0.1189(7) 1.8261(6) 0.5615(5)
H9A H -0.1697 1.8599 0.5820
H10A H -0.0631 1.8759 0.5471
C6A C -0.3054(6) 1.6212(5) 0.6029(4)
H11A H -0.3509 1.5608 0.6133
H12A H -0.3354 1.6765 0.6199
C7A C -0.1579(7) 1.7291(6) 0.4174(5)
C8A C -0.3081(6) 1.6828(5) 0.4737(4)
H13A H -0.3563 1.7258 0.4860
C9A C -0.3517(6) 1.6238(5) 0.3812(4)
H14A H -0.4161 1.6432 0.3497
C10A C -0.3744(5) 1.5071(5) 0.4599(4)
C11A C -0.2443(7) 1.6290(6) 0.2707(5)
H15A H -0.1840 1.6833 0.2644
H16A H -0.3191 1.6258 0.2340
C12A C -0.4425(6) 1.4329(6) 0.3093(4)
H17A H -0.4901 1.3769 0.3235
H18A H -0.4943 1.4512 0.2669
C13A C 0.2155(7) 1.7951(6) 0.7617(6)
H19A H 0.2638 1.8452 0.7425
H20A H 0.2254 1.8260 0.8193
C14A C 0.0284(6) 1.5990(7) 0.8105(4)
H21A H 0.0612 1.6502 0.8637
H22A H -0.0247 1.5397 0.8172
C15A C -0.3280(5) 1.3135(5) 0.2889(4)
C16A C 0.2425(6) 1.6385(7) 0.8086(4)
H23A H 0.2730 1.6758 0.8676
C17A C -0.3113(6) 1.4355(6) 0.2135(4)
H24A H -0.3741 1.4327 0.1649
C18A C -0.1154(6) 1.5277(7) 0.2423(4)
O16 O 0.2966(4) 1.2503(4) 0.2250(3)
O17 O 0.3258(6) 0.9492(5) -0.0721(4)
O18 O 0.1593(5) 1.0443(4) 0.2778(3)
O19 O 0.2047(5) 0.7497(5) -0.0121(4)
O20 O 0.1403(6) 1.0525(6) -0.2192(4)
O21 O 0.1103(4) 1.3332(4) 0.0867(3)
N13 N 0.3710(5) 1.2454(5) 0.1144(3)
N14 N 0.3877(5) 1.1315(5) 0.1867(3)
N15 N 0.4024(5) 1.0136(6) 0.0684(4)
N16 N 0.3698(6) 1.1206(6) -0.0068(4)
N17 N 0.2964(5) 0.9877(4) 0.2306(3)
N18 N 0.1286(5) 0.8740(4) 0.2203(3)
N19 N 0.1488(5) 0.7551(5) 0.1057(4)
N20 N 0.3128(5) 0.8695(5) 0.1132(4)
N21 N -0.0839(5) 0.8040(5) 0.1817(3)
N22 N 0.2471(6) 1.1842(6) -0.1011(4)
N23 N 0.2409(5) 1.3042(5) 0.0190(3)
N24 N -0.0627(5) 0.7051(4) 0.0561(3)
C19 C 0.3439(6) 1.2136(6) 0.1797(4)
C20 C 0.4518(6) 1.1136(6) 0.1293(4)
H25 H 0.5351 1.1273 0.1586
C21 C 0.4351(6) 1.1882(7) 0.0762(4)
H26 H 0.5107 1.2330 0.0776
C22 C 0.3591(6) 1.0218(8) -0.0099(5)
C23 C 0.3403(6) 1.3313(6) 0.0918(4)
H27 H 0.3244 1.3703 0.1380
H28 H 0.4075 1.3753 0.0828
C24 C 0.3511(8) 1.1543(8) -0.0822(5)
H29 H 0.4185 1.2117 -0.0758
H30 H 0.3451 1.0994 -0.1283
C25 C 0.3849(6) 1.0855(5) 0.2538(4)
H31 H 0.3714 1.1313 0.2975
H32 H 0.4610 1.0777 0.2762
C26 C 0.4088(7) 0.9192(7) 0.0879(6)
H33 H 0.4114 0.8728 0.0394
H34 H 0.4814 0.9335 0.1320
C27 C 0.1923(6) 0.9766(5) 0.2464(4)
C28 C 0.3125(6) 0.8903(5) 0.1995(5)
H35 H 0.3806 0.8810 0.2366
C29 C 0.1952(6) 0.8111(6) 0.1928(4)
H36 H 0.2085 0.7658 0.2282
C30 C 0.2189(7) 0.7877(6) 0.0616(5)
C31 C 0.0290(6) 0.8367(6) 0.2472(4)
H37 H 0.0289 0.8902 0.2921
H38 H 0.0373 0.7795 0.2691
C32 C 0.0405(6) 0.6721(6) 0.0708(5)
H39 H 0.0363 0.6289 0.1081
H40 H 0.0404 0.6312 0.0186
C33 C 0.1529(8) 1.1349(8) -0.1712(5)
C34 C -0.1267(6) 0.7096(6) 0.1154(4)
H41 H -0.1353 0.6498 0.1374
C35 C 0.2471(7) 1.2873(7) -0.0645(4)
H42 H 0.3125 1.3399 -0.0689
C36 C 0.1344(6) 1.3121(5) 0.0225(4)
O16A O -0.2966(4) 0.7497(4) -0.2250(3)
O17A O -0.3258(6) 1.0508(5) 0.0721(4)
O18A O -0.1593(5) 0.9557(4) -0.2778(3)
O19A O -0.2047(5) 1.2503(5) 0.0121(4)
O20A O -0.1403(6) 0.9475(6) 0.2192(4)
O21A O -0.1103(4) 0.6668(4) -0.0867(3)
N13A N -0.3710(5) 0.7546(5) -0.1144(3)
N14A N -0.3877(5) 0.8685(5) -0.1867(3)
N15A N -0.4024(5) 0.9864(6) -0.0684(4)
N16A N -0.3698(6) 0.8794(6) 0.0068(4)
N17A N -0.2964(5) 1.0123(4) -0.2306(3)
N18A N -0.1286(5) 1.1260(4) -0.2203(3)
N19A N -0.1488(5) 1.2449(5) -0.1057(4)
N20A N -0.3128(5) 1.1305(5) -0.1132(4)
N21A N 0.0839(5) 1.1960(5) -0.1817(3)
N22A N -0.2471(6) 0.8158(6) 0.1011(4)
N23A N -0.2409(5) 0.6958(5) -0.0190(3)
N24A N 0.0627(5) 1.2949(4) -0.0561(3)
C19A C -0.3439(6) 0.7864(6) -0.1797(4)
C20A C -0.4518(6) 0.8864(6) -0.1293(4)
H25A H -0.5351 0.8727 -0.1586
C21A C -0.4351(6) 0.8118(7) -0.0762(4)
H26A H -0.5107 0.7670 -0.0776
C22A C -0.3591(6) 0.9782(8) 0.0099(5)
C23A C -0.3403(6) 0.6687(6) -0.0918(4)
H27A H -0.3244 0.6297 -0.1380
H28A H -0.4075 0.6247 -0.0828
C24A C -0.3511(8) 0.8457(8) 0.0822(5)
H29A H -0.4185 0.7883 0.0758
H30A H -0.3451 0.9006 0.1283
C25A C -0.3849(6) 0.9145(5) -0.2538(4)
H31A H -0.3714 0.8687 -0.2975
H32A H -0.4610 0.9223 -0.2762
C26A C -0.4088(7) 1.0808(7) -0.0879(6)
H33A H -0.4114 1.1272 -0.0394
H34A H -0.4814 1.0665 -0.1320
C27A C -0.1923(6) 1.0234(5) -0.2464(4)
C28A C -0.3125(6) 1.1097(5) -0.1995(5)
H35A H -0.3806 1.1190 -0.2366
C29A C -0.1952(6) 1.1889(6) -0.1928(4)
H36A H -0.2085 1.2342 -0.2282
C30A C -0.2189(7) 1.2123(6) -0.0616(5)
C31A C -0.0290(6) 1.1633(6) -0.2472(4)
H37A H -0.0289 1.1098 -0.2921
H38A H -0.0373 1.2205 -0.2691
C32A C -0.0405(6) 1.3279(6) -0.0708(5)
H39A H -0.0363 1.3711 -0.1081
H40A H -0.0404 1.3688 -0.0186
C33A C -0.1529(8) 0.8651(8) 0.1712(5)
C34A C 0.1267(6) 1.2904(6) -0.1154(4)
H41A H 0.1353 1.3502 -0.1374
C35A C -0.2471(7) 0.7127(7) 0.0645(4)
H42A H -0.3125 0.6601 0.0689
C36A C -0.1344(6) 0.6879(5) -0.0225(4)
O22 O -0.4368(11) 0.7512(9) 0.2153(9)
O23 O -0.6037(12) 0.6927(13) 0.2249(12)
O24 O -0.5245(13) 0.5961(10) 0.1636(11)
N25 N -0.5240(10) 0.6776(9) 0.2031(9)
O25 O -0.1009(6) 1.3338(5) 0.5688(4)
O26 O 0.4255(16) 0.5957(15) -0.0102(11)
H43 H 0.3542 0.5866 0.0186
H44 H 0.4148 0.5314 -0.0350
O27 O 0.2010(9) 0.5346(8) -0.0256(6)
O28 O -0.1929(13) 0.4604(11) -0.1267(9)
loop_
_geom_bond_atom_site_label_1
_geom_bond_atom_site_label_2
_geom_bond_site_symmetry_1
_geom_bond_site_symmetry_2
U1 O1 1_555 1_555
U2 O3 1_555 1_555
O2 U1 1_555 1_555
O4 U2 1_555 1_555
O5 U1 1_555 1_555
O6 U1 1_555 1_555
O7 U1 1_555 1_555
H1 O7 1_555 1_555
H2 O7 1_555 1_555
O8 U2 1_555 1_555
H3 O8 1_555 1_555
H4 O8 1_555 1_555
O9 U2 1_555 1_555
H5 O9 1_555 1_555
H6 O9 1_555 1_555
O10 U1 1_555 1_555
O11 C4 1_555 1_555
O12 C7 1_555 1_555
O13 C10 1_555 1_555
O14 C15 1_555 1_555
O15 C18 1_555 1_555
O16 C19 1_555 1_555
O17 C22 1_555 1_555
O18 C27 1_555 1_555
O19 C30 1_555 1_555
O20 C33 1_555 1_555
O21 C36 1_555 1_555
N1 C1 1_555 1_555
N2 C1 1_555 1_555
N3 C3 1_555 1_555
N4 C2 1_555 1_555
N5 C5 1_555 1_555
N6 C7 1_555 1_555
N7 C9 1_555 1_555
N8 C6 1_555 1_555
N9 C13 1_555 1_555
N10 C12 1_555 1_555
N11 C11 1_555 1_555
N12 C14 1_555 1_555
N13 C19 1_555 1_555
N14 C19 1_555 1_555
N15 C20 1_555 1_555
N16 C21 1_555 1_555
N17 C25 1_555 1_555
N18 C27 1_555 1_555
N19 C29 1_555 1_555
N20 C26 1_555 1_555
N21 C31 1_555 1_555
N22 C24 1_555 1_555
N23 C23 1_555 1_555
N24 C32 1_555 1_555
C1 O10 1_555 1_555
C2 N1 1_555 1_555
H7 C2 1_555 1_555
C3 N2 1_555 1_555
H8 C3 1_555 1_555
C4 N3 1_555 1_555
C5 N2 1_555 1_555
H9 C5 1_555 1_555
H10 C5 1_555 1_555
C6 N3 1_555 1_555
H11 C6 1_555 1_555
H12 C6 1_555 1_555
C7 N5 1_555 1_555
C8 N5 1_555 1_555
H13 C8 1_555 1_555
C9 N6 1_555 1_555
H14 C9 1_555 1_555
C10 N7 1_555 1_555
C11 N6 1_555 1_555
H15 C11 1_555 1_555
H16 C11 1_555 1_555
C12 N7 1_555 1_555
H17 C12 1_555 1_555
H18 C12 1_555 1_555
C13 N1 1_555 1_555
H19 C13 1_555 1_555
H20 C13 1_555 1_555
C14 N4 1_555 1_555
H21 C14 1_555 1_555
H22 C14 1_555 1_555
C15 N10 1_555 1_555
C16 N9 1_555 1_555
H23 C16 1_555 1_555
C17 N10 1_555 1_555
H24 C17 1_555 1_555
C18 N11 1_555 1_555
C20 N14 1_555 1_555
H25 C20 1_555 1_555
C21 N13 1_555 1_555
H26 C21 1_555 1_555
C22 N15 1_555 1_555
C23 N13 1_555 1_555
H27 C23 1_555 1_555
H28 C23 1_555 1_555
C24 N16 1_555 1_555
H29 C24 1_555 1_555
H30 C24 1_555 1_555
C25 N14 1_555 1_555
H31 C25 1_555 1_555
H32 C25 1_555 1_555
C26 N15 1_555 1_555
H33 C26 1_555 1_555
H34 C26 1_555 1_555
C27 N17 1_555 1_555
C28 N17 1_555 1_555
H35 C28 1_555 1_555
C29 N18 1_555 1_555
H36 C29 1_555 1_555
C30 N19 1_555 1_555
C31 N18 1_555 1_555
H37 C31 1_555 1_555
H38 C31 1_555 1_555
C32 N19 1_555 1_555
H39 C32 1_555 1_555
H40 C32 1_555 1_555
C33 N22 1_555 1_555
C34 N21 1_555 1_555
H41 C34 1_555 1_555
C35 N22 1_555 1_555
H42 C35 1_555 1_555
C36 N23 1_555 1_555
O22 N25 1_555 1_555
O23 N25 1_555 1_555
O24 N25 1_555 1_555
O26 H43 1_555 1_555
H44 O26 1_555 1_555
U1A O10A 1_555 1_555
U1A_2 O1A 1_555 1_555
U2A O5 1_555 1_555
O2A U1A_2 1_555 1_555
O3A U2A 1_555 1_555
O4A U2A 1_555 1_555
O5A U2 1_555 1_555
O6A U1A_2 1_555 1_555
O7A U1A_2 1_555 1_555
H1A O7A 1_555 1_555
H2A O7A 1_555 1_555
O8A U2A 1_555 1_555
H3A O8A 1_555 1_555
H4A O8A 1_555 1_555
O9A U2A 1_555 1_555
H5A O9A 1_555 1_555
H6A O9A 1_555 1_555
O10A C1A 1_555 1_555
O10A_2 U1A_2 1_555 1_555
O11A C4A 1_555 1_555
O12A C7A 1_555 1_555
O13A C10A 1_555 1_555
O14A C15A 1_555 1_555
O15A C18A 1_555 1_555
O16A C19A 1_555 1_555
O17A C22A 1_555 1_555
O18A C27A 1_555 1_555
O19A C30A 1_555 1_555
O20A C33A 1_555 1_555
O21A C36A 1_555 1_555
N1A C1A 1_555 1_555
N2A C1A 1_555 1_555
N3A C3A 1_555 1_555
N4A C2A 1_555 1_555
N5A C5A 1_555 1_555
N6A C7A 1_555 1_555
N7A C9A 1_555 1_555
N8A C6A 1_555 1_555
N9A C15 1_555 1_555
N10A C12A 1_555 1_555
N11A C11A 1_555 1_555
N12A C18 1_555 1_555
N13A C19A 1_555 1_555
N14A C19A 1_555 1_555
N15A C20A 1_555 1_555
N16A C21A 1_555 1_555
N17A C25A 1_555 1_555
N18A C27A 1_555 1_555
N19A C29A 1_555 1_555
N20A C26A 1_555 1_555
N21A C33 1_555 1_555
N22A C24A 1_555 1_555
N23A C23A 1_555 1_555
N24A C36 1_555 1_555
C2A N1A 1_555 1_555
H7A C2A 1_555 1_555
C3A N2A 1_555 1_555
H8A C3A 1_555 1_555
C4A N3A 1_555 1_555
C5A N2A 1_555 1_555
H9A C5A 1_555 1_555
H10A C5A 1_555 1_555
C6A N3A 1_555 1_555
H11A C6A 1_555 1_555
H12A C6A 1_555 1_555
C7A N5A 1_555 1_555
C8A N5A 1_555 1_555
H13A C8A 1_555 1_555
C9A N6A 1_555 1_555
H14A C9A 1_555 1_555
C10A N7A 1_555 1_555
C11A N6A 1_555 1_555
H15A C11A 1_555 1_555
H16A C11A 1_555 1_555
C12A N7A 1_555 1_555
H17A C12A 1_555 1_555
H18A C12A 1_555 1_555
C13A N1A 1_555 1_555
H19A C13A 1_555 1_555
H20A C13A 1_555 1_555
C14A N4A 1_555 1_555
H21A C14A 1_555 1_555
H22A C14A 1_555 1_555
C15A N9 1_555 1_555
C16A C17 1_555 1_555
H23A C16A 1_555 1_555
C17A C16 1_555 1_555
H24A C17A 1_555 1_555
C18A N12 1_555 1_555
C20A N14A 1_555 1_555
H25A C20A 1_555 1_555
C21A N13A 1_555 1_555
H26A C21A 1_555 1_555
C22A N15A 1_555 1_555
C23A N13A 1_555 1_555
H27A C23A 1_555 1_555
H28A C23A 1_555 1_555
C24A N16A 1_555 1_555
H29A C24A 1_555 1_555
H30A C24A 1_555 1_555
C25A N14A 1_555 1_555
H31A C25A 1_555 1_555
H32A C25A 1_555 1_555
C26A N15A 1_555 1_555
H33A C26A 1_555 1_555
H34A C26A 1_555 1_555
C27A N17A 1_555 1_555
C28A N17A 1_555 1_555
H35A C28A 1_555 1_555
C29A N18A 1_555 1_555
H36A C29A 1_555 1_555
C30A N19A 1_555 1_555
C31A N18A 1_555 1_555
H37A C31A 1_555 1_555
H38A C31A 1_555 1_555
C32A N19A 1_555 1_555
H39A C32A 1_555 1_555
H40A C32A 1_555 1_555
C33A N21 1_555 1_555
C34A C35 1_555 1_555
H41A C34A 1_555 1_555
C35A C34 1_555 1_555
H42A C35A 1_555 1_555
C36A N24 1_555 1_555
U2 O5 1_555 1_555
U2 O6 1_555 1_555
N4 C4 1_555 1_555
N8 C8 1_555 1_555
N8 C10 1_555 1_555
N11 C17 1_555 1_555
N12 C16 1_555 1_555
N16 C22 1_555 1_555
N20 C28 1_555 1_555
N20 C30 1_555 1_555
N23 C35 1_555 1_555
N24 C34 1_555 1_555
C2 C3 1_555 1_555
C8 C9 1_555 1_555
C20 C21 1_555 1_555
C28 C29 1_555 1_555
U1A_2 O5A 1_555 1_555
U2A O5A 1_555 1_555
U2A O6A 1_555 1_555
N4A C4A 1_555 1_555
N8A C8A 1_555 1_555
N8A C10A 1_555 1_555
N9A C13A 1_555 1_555
N9A C16A 1_555 1_555
N10A C15A 1_555 1_555
N10A C17A 1_555 1_555
N11A C17A 1_555 1_555
N11A C18A 1_555 1_555
N12A C14A 1_555 1_555
N12A C16A 1_555 1_555
N16A C22A 1_555 1_555
N20A C28A 1_555 1_555
N20A C30A 1_555 1_555
N21A C31A 1_555 1_555
N21A C34A 1_555 1_555
N22A C33A 1_555 1_555
N22A C35A 1_555 1_555
N23A C35A 1_555 1_555
N23A C36A 1_555 1_555
N24A C32A 1_555 1_555
N24A C34A 1_555 1_555
C2A C3A 1_555 1_555
C8A C9A 1_555 1_555
C20A C21A 1_555 1_555
C28A C29A 1_555 1_555

#END
