
#######################################################################
#
#                 Cambridge Crystallographic Data Centre
#                                CCDC 
#
#######################################################################
#
# If this CIF has been generated from an entry in the Cambridge 
# Structural Database, then it will include bibliographic, chemical, 
# crystal, experimental, refinement or atomic coordinate data resulting 
# from the CCDC's data processing and validation procedures.
#
#######################################################################

data_TONTIA
_symmetry_cell_setting           monoclinic
_symmetry_space_group_name_H-M   'P 21/c'
_symmetry_Int_Tables_number      14
_space_group_name_Hall           '-P 2ybc'
loop_
_symmetry_equiv_pos_site_id
_symmetry_equiv_pos_as_xyz
1 x,y,z
2 -x,1/2+y,1/2-z
3 -x,-y,-z
4 x,1/2-y,1/2+z
_cell_length_a                   13.3989(5)
_cell_length_b                   19.4973(11)
_cell_length_c                   21.2693(11)
_cell_angle_alpha                90
_cell_angle_beta                 91.741(3)
_cell_angle_gamma                90
_cell_volume                     5553.88
loop_
_atom_site_label
_atom_site_type_symbol
_atom_site_fract_x
_atom_site_fract_y
_atom_site_fract_z
U1 U -0.102218(19) 0.206092(14) 0.699080(12)
U2 U 0.181515(19) 0.195539(14) 0.919436(12)
U3 U 0.143775(19) 0.453825(14) 0.701864(12)
S1 S -0.03682(13) 0.11484(9) 0.84879(8)
S2 S 0.10263(13) 0.29791(9) 0.78825(8)
S3 S -0.06823(13) 0.36982(10) 0.62535(8)
O1 O -0.1755(4) 0.2625(3) 0.7427(2)
O2 O -0.0303(4) 0.1492(3) 0.6548(2)
O3 O 0.0867(4) 0.2468(3) 0.9473(2)
O4 O 0.2752(4) 0.1410(3) 0.8909(2)
O5 O 0.0950(4) 0.4873(3) 0.7712(2)
O6 O 0.1956(4) 0.4205(2) 0.6328(2)
O7 O -0.0697(4) 0.1319(3) 0.7841(3)
O8 O 0.0716(4) 0.1283(3) 0.8549(2)
O9 O -0.0913(4) 0.1534(3) 0.8939(3)
O10 O -0.0531(3) 0.0402(2) 0.8580(2)
O11 O 0.0393(4) 0.2512(3) 0.7496(2)
O12 O 0.1763(3) 0.2536(3) 0.8223(2)
O13 O 0.1597(4) 0.3409(2) 0.7446(2)
O14 O 0.0461(4) 0.3388(3) 0.8311(2)
O15 O -0.0519(4) 0.2947(2) 0.6323(2)
O16 O -0.0112(3) 0.4038(3) 0.6785(2)
O17 O -0.0290(4) 0.3920(3) 0.5649(2)
O18 O -0.1732(4) 0.3854(3) 0.6298(2)
O19 O -0.2442(3) 0.1254(3) 0.7072(2)
H1 H -0.3062 0.1369 0.7040
H2 H -0.2343 0.0984 0.6721
O20 O 0.1244(4) 0.1095(3) 0.9888(2)
H3 H 0.1479 0.0621 0.9907
H4 H 0.0814 0.1078 1.0205
O21 O 0.2894(4) 0.3004(3) 0.9206(2)
H5 H 0.2527 0.3401 0.9217
H6 H 0.3297 0.3033 0.9519
O22 O 0.3036(4) 0.4374(3) 0.7607(3)
H7 H 0.3688 0.4552 0.7765
H8 H 0.3090 0.3924 0.7559
O23 O 0.2554(4) 0.5478(3) 0.6896(2)
H9 H 0.2480 0.5820 0.7184
H10 H 0.2905 0.5555 0.6517
O24 O -0.2189(3) 0.2092(3) 0.6124(2)
O25 O -0.5222(4) 0.2842(3) 0.4069(2)
O26 O -0.4237(4) 0.1897(3) 0.7143(2)
O27 O -0.7239(4) 0.2894(3) 0.5136(2)
O28 O -0.5850(4) 0.0425(3) 0.7637(3)
O29 O -0.8561(4) 0.1206(3) 0.5434(2)
O30 O -0.6028(4) -0.1520(3) 0.7095(3)
O31 O -0.9009(4) -0.0768(3) 0.4929(2)
N1 N -0.2264(4) 0.2544(3) 0.5127(3)
N2 N -0.3328(4) 0.2929(3) 0.5820(3)
N3 N -0.4515(4) 0.3265(3) 0.4998(3)
N4 N -0.3517(4) 0.2793(3) 0.4293(3)
N5 N -0.4680(4) 0.2842(3) 0.6538(3)
N6 N -0.5874(4) 0.2251(3) 0.6998(3)
N7 N -0.7067(4) 0.2639(3) 0.6178(3)
N8 N -0.5879(4) 0.3249(3) 0.5730(3)
N9 N -0.6883(4) 0.1286(3) 0.7280(3)
N10 N -0.7441(5) 0.0213(3) 0.7238(3)
N11 N -0.8485(4) 0.0513(3) 0.6314(3)
N12 N -0.7996(4) 0.1610(3) 0.6399(3)
N13 N -0.7508(4) -0.0952(3) 0.6854(3)
N14 N -0.7216(4) -0.1953(3) 0.6389(3)
N15 N -0.8436(4) -0.1676(3) 0.5543(3)
N16 N -0.8711(4) -0.0666(3) 0.6002(3)
C1 C -0.2561(5) 0.2491(4) 0.5727(3)
C2 C -0.3540(5) 0.3361(4) 0.5278(3)
H25 H -0.3403 0.3845 0.5369
C3 C -0.2828(5) 0.3070(4) 0.4775(3)
H26 H -0.2392 0.3425 0.4607
C4 C -0.4503(5) 0.2954(4) 0.4415(3)
C5 C -0.3689(5) 0.3096(4) 0.6433(3)
H27 H -0.3687 0.3591 0.6482
H28 H -0.3234 0.2907 0.6751
C6 C -0.5393(5) 0.3608(4) 0.5231(3)
H29 H -0.5199 0.4060 0.5382
H30 H -0.5869 0.3670 0.4884
C7 C -0.4854(5) 0.2293(4) 0.6912(3)
C8 C -0.6416(5) 0.2825(4) 0.6713(3)
H31 H -0.6763 0.3100 0.7024
C9 C -0.5562(5) 0.3241(4) 0.6389(3)
H32 H -0.5506 0.3707 0.6560
C10 C -0.6763(5) 0.2919(4) 0.5636(3)
C11 C -0.6293(5) 0.1857(4) 0.7510(3)
H33 H -0.5755 0.1688 0.7783
H34 H -0.6708 0.2156 0.7757
C12 C -0.8042(5) 0.2326(4) 0.6243(3)
H35 H -0.8395 0.2567 0.6568
H36 H -0.8423 0.2382 0.5851
C13 C -0.6649(6) 0.0620(4) 0.7412(3)
C14 C -0.8290(5) 0.0606(4) 0.6986(3)
H37 H -0.8890 0.0528 0.7228
C15 C -0.7923(5) 0.1357(4) 0.7044(3)
H38 H -0.8329 0.1628 0.7329
C16 C -0.8376(5) 0.1122(4) 0.5985(3)
C17 C -0.7478(6) -0.0502(4) 0.7394(3)
H39 H -0.8065 -0.0585 0.7639
H40 H -0.6896 -0.0615 0.7657
C18 C -0.9183(5) -0.0008(4) 0.6082(4)
H41 H -0.9719 -0.0055 0.6375
H42 H -0.9475 0.0140 0.5682
C19 C -0.6831(5) -0.1476(4) 0.6800(3)
C20 C -0.8253(5) -0.1810(4) 0.6207(3)
H43 H -0.8700 -0.2167 0.6359
C21 C -0.8450(5) -0.1116(4) 0.6528(3)
H44 H -0.8997 -0.1151 0.6822
C22 C -0.8741(5) -0.1013(4) 0.5441(3)
C23 C -0.3219(5) 0.2635(4) 0.3670(3)
H45 H -0.3797 0.2670 0.3386
H46 H -0.2736 0.2973 0.3541
C24 C -0.1359(5) 0.2220(4) 0.4904(3)
H47 H -0.0982 0.2034 0.5262
H48 H -0.0949 0.2565 0.4709
U1B U -0.897782(19) -0.206092(14) 0.300920(12)
U2C U -0.818485(19) 0.304461(14) 0.419436(12)
U2A U -0.181515(19) -0.304461(14) 0.580564(12)
U2B U -1.181515(19) -0.195539(14) 0.080564(12)
U3A U -0.143775(19) -0.046175(14) 0.798136(12)
U3B U -1.143775(19) -0.453825(14) 0.298136(12)
U3C U -0.856225(19) 0.046175(14) 0.201864(12)
S1B S -0.96318(13) -0.11484(9) 0.15121(8)
S2B S -1.10263(13) -0.29791(9) 0.21175(8)
S3B S -0.93177(13) -0.36982(10) 0.37465(8)
O1B O -0.8245(4) -0.2625(3) 0.2573(2)
O2B O -0.9697(4) -0.1492(3) 0.3452(2)
O3B O -1.0867(4) -0.2468(3) 0.0527(2)
O4B O -1.2752(4) -0.1410(3) 0.1091(2)
O5B O -1.0950(4) -0.4873(3) 0.2288(2)
O6B O -1.1956(4) -0.4205(2) 0.3672(2)
O7B O -0.9303(4) -0.1319(3) 0.2159(3)
O8B O -1.0716(4) -0.1283(3) 0.1451(2)
O9B O -0.9087(4) -0.1534(3) 0.1061(3)
O10A O 0.0531(3) 0.5402(2) 0.6420(2)
O10C O -1.0531(3) -0.5402(2) 0.3580(2)
O10B O -0.9469(3) -0.0402(2) 0.1420(2)
O11B O -1.0393(4) -0.2512(3) 0.2504(2)
O12B O -1.1763(3) -0.2536(3) 0.1777(2)
O13B O -1.1597(4) -0.3409(2) 0.2554(2)
O14B O -1.0461(4) -0.3388(3) 0.1689(2)
O15B O -0.9481(4) -0.2947(2) 0.3677(2)
O16B O -0.9888(3) -0.4038(3) 0.3215(2)
O17B O -0.9710(4) -0.3920(3) 0.4351(2)
O18B O -0.8268(4) -0.3854(3) 0.3702(2)
O19B O -0.7558(3) -0.1254(3) 0.2928(2)
H1B H -0.6938 -0.1369 0.2960
H2B H -0.7657 -0.0984 0.3279
O20B O -1.1244(4) -0.1095(3) 0.0112(2)
H3B H -1.1479 -0.0621 0.0093
H4B H -1.0814 -0.1078 -0.0205
O21B O -1.2894(4) -0.3004(3) 0.0794(2)
H5B H -1.2527 -0.3401 0.0783
H6B H -1.3297 -0.3033 0.0481
O22B O -1.3036(4) -0.4374(3) 0.2393(3)
H7B H -1.3688 -0.4552 0.2235
H8B H -1.3090 -0.3924 0.2441
O23B O -1.2554(4) -0.5478(3) 0.3104(2)
H9B H -1.2480 -0.5820 0.2816
H10B H -1.2905 -0.5555 0.3483
O24B O -0.7811(3) -0.2092(3) 0.3876(2)
O25B O -0.4778(4) -0.2842(3) 0.5931(2)
O26B O -0.5763(4) -0.1897(3) 0.2857(2)
O27B O -0.2761(4) -0.2894(3) 0.4864(2)
O27C O 0.2761(4) 0.2106(3) 1.0136(2)
O27A O -1.2761(4) -0.2106(3) -0.0136(2)
O28B O -0.4150(4) -0.0425(3) 0.2363(3)
O29B O -0.1439(4) -0.1206(3) 0.4566(2)
O30B O -0.3972(4) 0.1520(3) 0.2905(3)
O31B O -0.0991(4) 0.0768(3) 0.5071(2)
N1B N -0.7736(4) -0.2544(3) 0.4873(3)
N2B N -0.6672(4) -0.2929(3) 0.4180(3)
N3B N -0.5485(4) -0.3265(3) 0.5002(3)
N4B N -0.6483(4) -0.2793(3) 0.5707(3)
N5B N -0.5320(4) -0.2842(3) 0.3462(3)
N6B N -0.4126(4) -0.2251(3) 0.3002(3)
N7B N -0.2933(4) -0.2639(3) 0.3822(3)
N8B N -0.4121(4) -0.3249(3) 0.4270(3)
N9B N -0.3117(4) -0.1286(3) 0.2720(3)
N10B N -0.2559(5) -0.0213(3) 0.2762(3)
N11B N -0.1515(4) -0.0513(3) 0.3686(3)
N12B N -0.2004(4) -0.1610(3) 0.3601(3)
N13B N -0.2492(4) 0.0952(3) 0.3146(3)
N14B N -0.2784(4) 0.1953(3) 0.3611(3)
N15B N -0.1564(4) 0.1676(3) 0.4457(3)
N16B N -0.1289(4) 0.0666(3) 0.3998(3)
C1B C -0.7439(5) -0.2491(4) 0.4273(3)
C2B C -0.6460(5) -0.3361(4) 0.4722(3)
H25B H -0.6597 -0.3845 0.4631
C3B C -0.7172(5) -0.3070(4) 0.5225(3)
H26B H -0.7608 -0.3425 0.5393
C4B C -0.5497(5) -0.2954(4) 0.5585(3)
C5B C -0.6311(5) -0.3096(4) 0.3567(3)
H27B H -0.6313 -0.3591 0.3518
H28B H -0.6766 -0.2907 0.3249
C6B C -0.4607(5) -0.3608(4) 0.4769(3)
H29B H -0.4801 -0.4060 0.4618
H30B H -0.4131 -0.3670 0.5116
C7B C -0.5146(5) -0.2293(4) 0.3088(3)
C8B C -0.3584(5) -0.2825(4) 0.3287(3)
H31B H -0.3237 -0.3100 0.2976
C9B C -0.4438(5) -0.3241(4) 0.3611(3)
H32B H -0.4494 -0.3707 0.3440
C10B C -0.3237(5) -0.2919(4) 0.4364(3)
C11B C -0.3707(5) -0.1857(4) 0.2490(3)
H33B H -0.4245 -0.1688 0.2217
H34B H -0.3292 -0.2156 0.2243
C12B C -0.1958(5) -0.2326(4) 0.3757(3)
H35B H -0.1605 -0.2567 0.3432
H36B H -0.1577 -0.2382 0.4149
C13B C -0.3351(6) -0.0620(4) 0.2588(3)
C14B C -0.1710(5) -0.0606(4) 0.3014(3)
H37B H -0.1110 -0.0528 0.2772
C15B C -0.2077(5) -0.1357(4) 0.2956(3)
H38B H -0.1671 -0.1628 0.2671
C16B C -0.1624(5) -0.1122(4) 0.4015(3)
C17B C -0.2522(6) 0.0502(4) 0.2606(3)
H39B H -0.1935 0.0585 0.2361
H40B H -0.3104 0.0615 0.2343
C18B C -0.0817(5) 0.0008(4) 0.3918(4)
H41B H -0.0281 0.0055 0.3625
H42B H -0.0525 -0.0140 0.4318
C19B C -0.3169(5) 0.1476(4) 0.3200(3)
C20B C -0.1747(5) 0.1810(4) 0.3793(3)
H43B H -0.1300 0.2167 0.3641
C21B C -0.1550(5) 0.1116(4) 0.3472(3)
H44B H -0.1003 0.1151 0.3178
C22B C -0.1259(5) 0.1013(4) 0.4559(3)
C23B C -0.6781(5) -0.2635(4) 0.6330(3)
H45B H -0.6203 -0.2670 0.6614
H46B H -0.7264 -0.2973 0.6459
C24B C -0.8641(5) -0.2220(4) 0.5096(3)
H47B H -0.9018 -0.2034 0.4738
H48B H -0.9051 -0.2565 0.5291
O32 O -0.2249(4) 0.0486(3) 0.6045(3)
H11 H -0.1677 0.0610 0.5801
H12 H -0.2857 0.0485 0.5887
O33 O 0.1444(4) -0.0241(3) 1.0172(2)
H13 H 0.1203 -0.0067 1.0615
H14 H 0.1056 -0.0439 0.9879
O34 O 0.1659(4) 0.4121(3) 0.9180(2)
H15 H 0.1204 0.3815 0.8964
H16 H 0.1531 0.4622 0.9130
O35 O -0.4239(5) 0.0317(3) 0.6841(4)
H17 H -0.4731 0.0327 0.6999
H18 H -0.4457 0.0026 0.6505
O36 O -0.5103(7) -0.0094(4) 0.8782(4)
H19 H -0.5231 0.0069 0.8346
H20 H -0.5603 0.0193 0.8986
O37 O -0.4039(4) -0.1673(3) 0.6861(3)
H21 H -0.4772 -0.1725 0.6936
H22 H -0.4081 -0.1343 0.6579
O38 O 0.4149(6) 0.3452(6) 1.0196(4)
H23 H 0.4246 0.3787 0.9931
H24 H 0.3633 0.3631 1.0494
O39 O 0.3389(6) 0.5549(4) 0.5794(3)
O40 O -0.2965(5) 0.4942(4) 0.5936(3)
loop_
_geom_bond_atom_site_label_1
_geom_bond_atom_site_label_2
_geom_bond_site_symmetry_1
_geom_bond_site_symmetry_2
U1 O1 1_555 1_555
U2 O3 1_555 1_555
U3 O5 1_555 1_555
S1 O7 1_555 1_555
S2 O11 1_555 1_555
S3 O15 1_555 1_555
O2 U1 1_555 1_555
O4 U2 1_555 1_555
O6 U3 1_555 1_555
O7 U1 1_555 1_555
O8 U2 1_555 1_555
O9 S1 1_555 1_555
O10 S1 1_555 1_555
O11 U1 1_555 1_555
O12 U2 1_555 1_555
O13 U3 1_555 1_555
O14 S2 1_555 1_555
O15 U1 1_555 1_555
O16 U3 1_555 1_555
O17 S3 1_555 1_555
O18 S3 1_555 1_555
O19 U1 1_555 1_555
H1 O19 1_555 1_555
H2 O19 1_555 1_555
O20 U2 1_555 1_555
H3 O20 1_555 1_555
H4 O20 1_555 1_555
O21 U2 1_555 1_555
H5 O21 1_555 1_555
H6 O21 1_555 1_555
O22 U3 1_555 1_555
H7 O22 1_555 1_555
H8 O22 1_555 1_555
O23 U3 1_555 1_555
H9 O23 1_555 1_555
H10 O23 1_555 1_555
O24 U1 1_555 1_555
O25 C4 1_555 1_555
O26 C7 1_555 1_555
O27 C10 1_555 1_555
O28 C13 1_555 1_555
O29 C16 1_555 1_555
O30 C19 1_555 1_555
O31 C22 1_555 1_555
O32 H11 1_555 1_555
H12 O32 1_555 1_555
O33 H13 1_555 1_555
H14 O33 1_555 1_555
O34 H15 1_555 1_555
H16 O34 1_555 1_555
O35 H17 1_555 1_555
H18 O35 1_555 1_555
O36 H19 1_555 1_555
H20 O36 1_555 1_555
O37 H21 1_555 1_555
H22 O37 1_555 1_555
O38 H23 1_555 1_555
H24 O38 1_555 1_555
N1 C1 1_555 1_555
N2 C1 1_555 1_555
N3 C2 1_555 1_555
N4 C3 1_555 1_555
N5 C5 1_555 1_555
N6 C7 1_555 1_555
N7 C8 1_555 1_555
N8 C6 1_555 1_555
N9 C11 1_555 1_555
N10 C13 1_555 1_555
N11 C14 1_555 1_555
N12 C12 1_555 1_555
N13 C17 1_555 1_555
N14 C19 1_555 1_555
N15 C20 1_555 1_555
N16 C18 1_555 1_555
C1 O24 1_555 1_555
C2 N2 1_555 1_555
H25 C2 1_555 1_555
C3 N1 1_555 1_555
H26 C3 1_555 1_555
C4 N3 1_555 1_555
C5 N2 1_555 1_555
H27 C5 1_555 1_555
H28 C5 1_555 1_555
C6 N3 1_555 1_555
H29 C6 1_555 1_555
H30 C6 1_555 1_555
C7 N5 1_555 1_555
C8 N6 1_555 1_555
H31 C8 1_555 1_555
C9 N5 1_555 1_555
H32 C9 1_555 1_555
C10 N7 1_555 1_555
C11 N6 1_555 1_555
H33 C11 1_555 1_555
H34 C11 1_555 1_555
C12 N7 1_555 1_555
H35 C12 1_555 1_555
H36 C12 1_555 1_555
C13 N9 1_555 1_555
C14 N10 1_555 1_555
H37 C14 1_555 1_555
C15 N9 1_555 1_555
H38 C15 1_555 1_555
C16 N11 1_555 1_555
C17 N10 1_555 1_555
H39 C17 1_555 1_555
H40 C17 1_555 1_555
C18 N11 1_555 1_555
H41 C18 1_555 1_555
H42 C18 1_555 1_555
C19 N13 1_555 1_555
C20 N14 1_555 1_555
H43 C20 1_555 1_555
C21 N13 1_555 1_555
H44 C21 1_555 1_555
C22 N15 1_555 1_555
C23 N4 1_555 1_555
H45 C23 1_555 1_555
H46 C23 1_555 1_555
C24 N1 1_555 1_555
H47 C24 1_555 1_555
H48 C24 1_555 1_555
U1B O1B 1_555 1_555
U2C O27 1_555 1_555
U2A O27B 1_555 1_555
U2B O3B 1_555 1_555
U3A O10 1_555 1_555
U3B O5B 1_555 1_555
U3C O10B 1_555 1_555
S1B O7B 1_555 1_555
S2B O11B 1_555 1_555
S3B O15B 1_555 1_555
O2B U1B 1_555 1_555
O4B U2B 1_555 1_555
O6B U3B 1_555 1_555
O7B U1B 1_555 1_555
O8B U2B 1_555 1_555
O9B S1B 1_555 1_555
O10A U3 1_555 1_555
O10C U3B 1_555 1_555
O10B S1B 1_555 1_555
O11B U1B 1_555 1_555
O12B U2B 1_555 1_555
O13B U3B 1_555 1_555
O14B S2B 1_555 1_555
O15B U1B 1_555 1_555
O16B U3B 1_555 1_555
O17B S3B 1_555 1_555
O18B S3B 1_555 1_555
O19B U1B 1_555 1_555
H1B O19B 1_555 1_555
H2B O19B 1_555 1_555
O20B U2B 1_555 1_555
H3B O20B 1_555 1_555
H4B O20B 1_555 1_555
O21B U2B 1_555 1_555
H5B O21B 1_555 1_555
H6B O21B 1_555 1_555
O22B U3B 1_555 1_555
H7B O22B 1_555 1_555
H8B O22B 1_555 1_555
O23B U3B 1_555 1_555
H9B O23B 1_555 1_555
H10B O23B 1_555 1_555
O24B U1B 1_555 1_555
O25B C4B 1_555 1_555
O26B C7B 1_555 1_555
O27B C10B 1_555 1_555
O27C U2 1_555 1_555
O27A U2B 1_555 1_555
O28B C13B 1_555 1_555
O29B C16B 1_555 1_555
O30B C19B 1_555 1_555
O31B C22B 1_555 1_555
N1B C1B 1_555 1_555
N2B C1B 1_555 1_555
N3B C2B 1_555 1_555
N4B C3B 1_555 1_555
N5B C5B 1_555 1_555
N6B C7B 1_555 1_555
N7B C8B 1_555 1_555
N8B C6B 1_555 1_555
N9B C11B 1_555 1_555
N10B C13B 1_555 1_555
N11B C14B 1_555 1_555
N12B C12B 1_555 1_555
N13B C17B 1_555 1_555
N14B C23 1_555 1_555
N15B C24 1_555 1_555
N16B C18B 1_555 1_555
C1B O24B 1_555 1_555
C2B N2B 1_555 1_555
H25B C2B 1_555 1_555
C3B N1B 1_555 1_555
H26B C3B 1_555 1_555
C4B N3B 1_555 1_555
C5B N2B 1_555 1_555
H27B C5B 1_555 1_555
H28B C5B 1_555 1_555
C6B N3B 1_555 1_555
H29B C6B 1_555 1_555
H30B C6B 1_555 1_555
C7B N5B 1_555 1_555
C8B N6B 1_555 1_555
H31B C8B 1_555 1_555
C9B N5B 1_555 1_555
H32B C9B 1_555 1_555
C10B N7B 1_555 1_555
C11B N6B 1_555 1_555
H33B C11B 1_555 1_555
H34B C11B 1_555 1_555
C12B N7B 1_555 1_555
H35B C12B 1_555 1_555
H36B C12B 1_555 1_555
C13B N9B 1_555 1_555
C14B N10B 1_555 1_555
H37B C14B 1_555 1_555
C15B N9B 1_555 1_555
H38B C15B 1_555 1_555
C16B N11B 1_555 1_555
C17B N10B 1_555 1_555
H39B C17B 1_555 1_555
H40B C17B 1_555 1_555
C18B N11B 1_555 1_555
H41B C18B 1_555 1_555
H42B C18B 1_555 1_555
C19B N13B 1_555 1_555
C20B N14B 1_555 1_555
H43B C20B 1_555 1_555
C21B N13B 1_555 1_555
H44B C21B 1_555 1_555
C22B N15B 1_555 1_555
C23B N14 1_555 1_555
H45B C23B 1_555 1_555
H46B C23B 1_555 1_555
C24B N15 1_555 1_555
H47B C24B 1_555 1_555
H48B C24B 1_555 1_555
S1 O8 1_555 1_555
S2 O12 1_555 1_555
S2 O13 1_555 1_555
S3 O16 1_555 1_555
N4 C4 1_555 1_555
N8 C9 1_555 1_555
N8 C10 1_555 1_555
N12 C15 1_555 1_555
N12 C16 1_555 1_555
N16 C21 1_555 1_555
N16 C22 1_555 1_555
C2 C3 1_555 1_555
C8 C9 1_555 1_555
C14 C15 1_555 1_555
C20 C21 1_555 1_555
S1B O8B 1_555 1_555
S2B O12B 1_555 1_555
S2B O13B 1_555 1_555
S3B O16B 1_555 1_555
N1B C24B 1_555 1_555
N4B C4B 1_555 1_555
N4B C23B 1_555 1_555
N8B C9B 1_555 1_555
N8B C10B 1_555 1_555
N12B C15B 1_555 1_555
N12B C16B 1_555 1_555
N14B C19B 1_555 1_555
N15B C20B 1_555 1_555
N16B C21B 1_555 1_555
N16B C22B 1_555 1_555
C2B C3B 1_555 1_555
C8B C9B 1_555 1_555
C14B C15B 1_555 1_555
C20B C21B 1_555 1_555

#END
