
#######################################################################
#
#                 Cambridge Crystallographic Data Centre
#                                CCDC 
#
#######################################################################
#
# If this CIF has been generated from an entry in the Cambridge 
# Structural Database, then it will include bibliographic, chemical, 
# crystal, experimental, refinement or atomic coordinate data resulting 
# from the CCDC's data processing and validation procedures.
#
#######################################################################

data_TONTUN
_symmetry_cell_setting           rhombohedral
_symmetry_space_group_name_H-M   'R -3 c'
_symmetry_Int_Tables_number      167
_space_group_name_Hall           '-R 3 2"c'
loop_
_symmetry_equiv_pos_site_id
_symmetry_equiv_pos_as_xyz
1 x,y,z
2 -y,x-y,z
3 -x+y,-x,z
4 x-y,-y,1/2-z
5 -x,-x+y,1/2-z
6 y,x,1/2-z
7 2/3+x,1/3+y,1/3+z
8 2/3-y,1/3+x-y,1/3+z
9 2/3-x+y,1/3-x,1/3+z
10 2/3+x-y,1/3-y,5/6-z
11 2/3-x,1/3-x+y,5/6-z
12 2/3+y,1/3+x,5/6-z
13 1/3+x,2/3+y,2/3+z
14 1/3-y,2/3+x-y,2/3+z
15 1/3-x+y,2/3-x,2/3+z
16 1/3+x-y,2/3-y,1/6-z
17 1/3-x,2/3-x+y,1/6-z
18 1/3+y,2/3+x,1/6-z
19 -x,-y,-z
20 y,-x+y,-z
21 x-y,x,-z
22 -x+y,y,1/2+z
23 x,x-y,1/2+z
24 -y,-x,1/2+z
25 1/3-x,2/3-y,2/3-z
26 1/3+y,2/3-x+y,2/3-z
27 1/3+x-y,2/3+x,2/3-z
28 1/3-x+y,2/3+y,1/6+z
29 1/3+x,2/3+x-y,1/6+z
30 1/3-y,2/3-x,1/6+z
31 2/3-x,1/3-y,1/3-z
32 2/3+y,1/3-x+y,1/3-z
33 2/3+x-y,1/3+x,1/3-z
34 2/3-x+y,1/3+y,5/6+z
35 2/3+x,1/3+x-y,5/6+z
36 2/3-y,1/3-x,5/6+z
_cell_length_a                   12.8717(18)
_cell_length_b                   12.8717(18)
_cell_length_c                   61.931(12)
_cell_angle_alpha                90
_cell_angle_beta                 90
_cell_angle_gamma                120
_cell_volume                     8886.09
loop_
_atom_site_label
_atom_site_type_symbol
_atom_site_fract_x
_atom_site_fract_y
_atom_site_fract_z
Ni1 Ni 0.3333 0.6667 0.003359(5)
N1 N 0.33402(12) 0.80158(11) 0.02172(2)
N2 N 0.54083(12) 1.19482(12) 0.01568(2)
C1 C 0.36589(13) 0.89549(14) 0.02915(2)
C2 C 0.48026(13) 1.10949(13) 0.02562(2)
C3 C 0.40735(14) 1.00903(13) 0.03824(2)
C4 C 0.38977(13) 1.02375(13) 0.06116(2)
C5 C 0.28837(13) 0.93882(13) 0.07253(2)
C6 C 0.47470(14) 1.12515(14) 0.07254(2)
H1 H 0.2307(16) 0.8702(17) 0.0654(3)
H2 H 0.5444(16) 1.1868(16) 0.0658(3)
N1Q N 0.13491(11) 1.00069(12) 0.14495(2)
N2Q N 0.52815(12) 1.20750(12) 0.15099(2)
C1Q C 0.22882(14) 1.03256(13) 0.13752(2)
C2Q C 0.44282(13) 1.14693(13) 0.14105(2)
C3Q C 0.34236(13) 1.07402(14) 0.12843(2)
C4Q C 0.35708(13) 1.05644(13) 0.10551(2)
C5Q C 0.27215(13) 0.95504(13) 0.09414(2)
C6Q C 0.45848(14) 1.14137(14) 0.09413(2)
H1Q H 0.2035(17) 0.8974(16) 0.1013(3)
H2Q H 0.5201(16) 1.2111(16) 0.1009(3)
N1A N 0.19842(11) 0.53244(16) 0.02172(2)
N2A N -0.19482(12) 0.34601(17) 0.01568(2)
C1A C 0.10451(14) 0.47040(19) 0.02915(2)
C2A C -0.10949(13) 0.37077(18) 0.02562(2)
C3A C -0.00903(13) 0.39832(19) 0.03824(2)
C4A C -0.02375(13) 0.36602(18) 0.06116(2)
C5A C 0.06118(13) 0.34955(18) 0.07253(2)
C6A C -0.12515(14) 0.34955(20) 0.07254(2)
H1A H 0.1298(17) 0.3605(23) 0.0654(3)
H2A H -0.1868(16) 0.3576(23) 0.0658(3)
N1P N -0.00069(12) 0.13423(16) 0.14495(2)
N2P N -0.20750(12) 0.32066(17) 0.15099(2)
C1P C -0.03256(13) 0.19627(19) 0.13752(2)
C2P C -0.14693(13) 0.29590(18) 0.14105(2)
C3P C -0.07402(14) 0.26835(19) 0.12843(2)
C4P C -0.05644(13) 0.30065(18) 0.10551(2)
C5P C 0.04496(13) 0.31712(18) 0.09414(2)
C6P C -0.14137(14) 0.31712(20) 0.09413(2)
H1P H 0.1026(16) 0.3062(23) 0.1013(3)
H2P H -0.2111(16) 0.3091(23) 0.1009(3)
N1B N 0.46756(16) 0.66598(12) 0.02172(2)
N2B N 0.65399(17) 0.45917(12) 0.01568(2)
C1B C 0.52960(19) 0.63411(13) 0.02915(2)
C2B C 0.62923(18) 0.51974(13) 0.02562(2)
C3B C 0.60168(19) 0.59265(14) 0.03824(2)
C4B C 0.63398(18) 0.61023(13) 0.06116(2)
C5B C 0.65045(18) 0.71163(13) 0.07253(2)
C6B C 0.65045(20) 0.52530(14) 0.07254(2)
H1B H 0.6395(23) 0.7693(16) 0.0654(3)
H2B H 0.6424(23) 0.4556(16) 0.0658(3)
N1O N 0.86577(16) 0.86509(11) 0.14495(2)
N2O N 0.67934(17) 0.47185(12) 0.15099(2)
C1O C 0.80373(19) 0.77118(14) 0.13752(2)
C2O C 0.70410(18) 0.55718(13) 0.14105(2)
C3O C 0.73165(19) 0.65764(13) 0.12843(2)
C4O C 0.69935(18) 0.64292(13) 0.10551(2)
C5O C 0.68288(18) 0.72785(13) 0.09414(2)
C6O C 0.68288(20) 0.54152(14) 0.09413(2)
H1O H 0.6938(23) 0.7965(17) 0.1013(3)
H2O H 0.6909(23) 0.4799(16) 0.1009(3)
Ni1R Ni 0.6667 1.3333 -0.003359(5)
Ni1O Ni -0.0001 -0.0000 0.163308(5)
Ni1O_2 Ni -0.0001 1.0000 0.163308(5)
Ni1O_3 Ni 0.9999 1.0000 0.163308(5)
Ni1R_2 Ni -0.3333 0.3333 -0.003359(5)
Ni1R_3 Ni 0.6667 0.3333 -0.003359(5)
Ni1AA Ni -0.3333 0.3334 0.170026(5)
Ni1AA_2 Ni 0.6667 0.3334 0.170026(5)
Ni1AA_3 Ni 0.6667 1.3334 0.170026(5)
N1R N 0.66598(12) 1.19842(11) -0.02172(2)
N1S N 0.80158(11) 1.46756(16) -0.02172(2)
N1T N 0.53244(16) 1.33402(12) -0.02172(2)
N2A_2 N 0.80518(12) 1.34601(17) 0.01568(2)
N2B_2 N 0.65399(17) 1.45917(12) 0.01568(2)
N2R N 0.45917(12) 0.80518(12) -0.01568(2)
N2S N 0.19482(12) 0.65399(17) -0.01568(2)
N2T N 0.34601(17) 0.54083(12) -0.01568(2)
P1 P 0.0000 0.0000 0.057484(13)
C7 C 0.12328(14) 0.13570(14) 0.04698(3)
C8 C 0.23713(16) 0.18402(16) 0.05607(3)
C9 C 0.33319(18) 0.28137(18) 0.04610(4)
C10 C 0.31610(17) 0.32850(17) 0.02725(4)
C11 C 0.20325(17) 0.28107(16) 0.01833(3)
C12 C 0.10634(16) 0.18474(15) 0.02817(3)
C13 C 0.0000 0.0000 0.08635(5)
H3 H -0.0107 0.0658 0.0916
H4 H 0.2439(19) 0.152(2) 0.0701(4)
H5 H 0.412(2) 0.319(2) 0.0525(4)
H6 H 0.384(2) 0.395(2) 0.0203(4)
H7 H 0.1891(19) 0.3101(19) 0.0049(3)
H8 H 0.0288(19) 0.1512(18) 0.0223(3)
C7A C -0.13570(14) -0.01242(20) 0.04698(3)
C8A C -0.18402(16) 0.05311(23) 0.05607(3)
C9A C -0.28137(18) 0.05182(25) 0.04610(4)
C10A C -0.32850(17) -0.01240(24) 0.02725(4)
C11A C -0.28107(16) -0.07782(23) 0.01833(3)
C12A C -0.18474(15) -0.07840(22) 0.02817(3)
H3A H -0.0658 -0.0765 0.0916
H4A H -0.152(2) 0.0919(28) 0.0701(4)
H5A H -0.319(2) 0.093(3) 0.0525(4)
H6A H -0.395(2) -0.011(3) 0.0203(4)
H7A H -0.3101(19) -0.1210(27) 0.0049(3)
H8A H -0.1512(18) -0.1224(26) 0.0223(3)
C7B C 0.01242(20) -0.12328(14) 0.04698(3)
C8B C -0.05311(23) -0.23713(16) 0.05607(3)
C9B C -0.05182(25) -0.33319(18) 0.04610(4)
C10B C 0.01240(24) -0.31610(17) 0.02725(4)
C11B C 0.07782(23) -0.20325(17) 0.01833(3)
C12B C 0.07840(22) -0.10634(16) 0.02817(3)
H3B H 0.0765 0.0107 0.0916
H4B H -0.0919(28) -0.2439(19) 0.0701(4)
H5B H -0.093(3) -0.412(2) 0.0525(4)
H6B H 0.011(3) -0.384(2) 0.0203(4)
H7B H 0.1210(27) -0.1891(19) 0.0049(3)
H8B H 0.1224(26) -0.0288(19) 0.0223(3)
loop_
_geom_bond_atom_site_label_1
_geom_bond_atom_site_label_2
_geom_bond_site_symmetry_1
_geom_bond_site_symmetry_2
Ni1 N1 1_555 1_555
N1 C1 1_555 1_555
N2 C2 1_555 1_555
C1 C3 1_555 1_555
C2 C3 1_555 1_555
C3 C4 1_555 1_555
C4 C5 1_555 1_555
C5 H1 1_555 1_555
C6 C4 1_555 1_555
H2 C6 1_555 1_555
P1 C7 1_555 1_555
C7 C8 1_555 1_555
C8 C9 1_555 1_555
C9 C10 1_555 1_555
C10 C11 1_555 1_555
C11 C12 1_555 1_555
C12 C7 1_555 1_555
C13 P1 1_555 1_555
H3 C13 1_555 1_555
H4 C8 1_555 1_555
H5 C9 1_555 1_555
H6 C10 1_555 1_555
H7 C11 1_555 1_555
H8 C12 1_555 1_555
N1Q C1Q 1_555 1_555
N2Q C2Q 1_555 1_555
C1Q C3Q 1_555 1_555
C2Q C3Q 1_555 1_555
C3Q C4Q 1_555 1_555
C4Q C5Q 1_555 1_555
C5Q C5 1_555 1_555
C6Q C6 1_555 1_555
H1Q C5Q 1_555 1_555
H2Q C6Q 1_555 1_555
N1A Ni1 1_555 1_555
N2A C2A 1_555 1_555
C1A N1A 1_555 1_555
C2A C3A 1_555 1_555
C3A C1A 1_555 1_555
C4A C3A 1_555 1_555
C5A C4A 1_555 1_555
C6A C4A 1_555 1_555
H1A C5A 1_555 1_555
H2A C6A 1_555 1_555
N1P C1P 1_555 1_555
N2P C2P 1_555 1_555
C1P C3P 1_555 1_555
C2P C3P 1_555 1_555
C3P C4P 1_555 1_555
C4P C5P 1_555 1_555
C5P C5A 1_555 1_555
C6P C6A 1_555 1_555
H1P C5P 1_555 1_555
H2P C6P 1_555 1_555
N1B Ni1 1_555 1_555
N2B C2B 1_555 1_555
C1B N1B 1_555 1_555
C2B C3B 1_555 1_555
C3B C1B 1_555 1_555
C4B C3B 1_555 1_555
C5B C4B 1_555 1_555
C6B C4B 1_555 1_555
H1B C5B 1_555 1_555
H2B C6B 1_555 1_555
N1O C1O 1_555 1_555
N2O C2O 1_555 1_555
C1O C3O 1_555 1_555
C2O C3O 1_555 1_555
C3O C4O 1_555 1_555
C4O C5O 1_555 1_555
C5O C5B 1_555 1_555
C6O C6B 1_555 1_555
H1O C5O 1_555 1_555
H2O C6O 1_555 1_555
Ni1R N2 1_555 1_555
Ni1O N1P 1_555 1_555
Ni1O_2 N1Q 1_555 1_555
Ni1O_3 N1O 1_555 1_555
Ni1R_2 N2A 1_555 1_555
Ni1R_3 N2B 1_555 1_555
Ni1AA N2P 1_555 1_555
Ni1AA_2 N2O 1_555 1_555
Ni1AA_3 N2Q 1_555 1_555
N1R Ni1R 1_555 1_555
N1S Ni1R 1_555 1_555
N1T Ni1R 1_555 1_555
N2A_2 Ni1R 1_555 1_555
N2B_2 Ni1R 1_555 1_555
N2R Ni1 1_555 1_555
N2S Ni1 1_555 1_555
N2T Ni1 1_555 1_555
C7A P1 1_555 1_555
C8A C7A 1_555 1_555
C9A C8A 1_555 1_555
C10A C9A 1_555 1_555
C11A C10A 1_555 1_555
C12A C7A 1_555 1_555
H3A C13 1_555 1_555
H4A C8A 1_555 1_555
H5A C9A 1_555 1_555
H6A C10A 1_555 1_555
H7A C11A 1_555 1_555
H8A C12A 1_555 1_555
C7B P1 1_555 1_555
C8B C7B 1_555 1_555
C9B C8B 1_555 1_555
C10B C9B 1_555 1_555
C11B C10B 1_555 1_555
C12B C7B 1_555 1_555
H3B C13 1_555 1_555
H4B C8B 1_555 1_555
H5B C9B 1_555 1_555
H6B C10B 1_555 1_555
H7B C11B 1_555 1_555
H8B C12B 1_555 1_555
C4Q C6Q 1_555 1_555
C4P C6P 1_555 1_555
C4O C6O 1_555 1_555
C11A C12A 1_555 1_555
C11B C12B 1_555 1_555

#END
