
#######################################################################
#
#                 Cambridge Crystallographic Data Centre
#                                CCDC 
#
#######################################################################
#
# If this CIF has been generated from an entry in the Cambridge 
# Structural Database, then it will include bibliographic, chemical, 
# crystal, experimental, refinement or atomic coordinate data resulting 
# from the CCDC's data processing and validation procedures.
#
#######################################################################

data_TONTIB
_symmetry_cell_setting           rhombohedral
_symmetry_space_group_name_H-M   'R -3 c'
_symmetry_Int_Tables_number      167
_space_group_name_Hall           '-R 3 2"c'
loop_
_symmetry_equiv_pos_site_id
_symmetry_equiv_pos_as_xyz
1 x,y,z
2 -y,x-y,z
3 -x+y,-x,z
4 x-y,-y,1/2-z
5 -x,-x+y,1/2-z
6 y,x,1/2-z
7 2/3+x,1/3+y,1/3+z
8 2/3-y,1/3+x-y,1/3+z
9 2/3-x+y,1/3-x,1/3+z
10 2/3+x-y,1/3-y,5/6-z
11 2/3-x,1/3-x+y,5/6-z
12 2/3+y,1/3+x,5/6-z
13 1/3+x,2/3+y,2/3+z
14 1/3-y,2/3+x-y,2/3+z
15 1/3-x+y,2/3-x,2/3+z
16 1/3+x-y,2/3-y,1/6-z
17 1/3-x,2/3-x+y,1/6-z
18 1/3+y,2/3+x,1/6-z
19 -x,-y,-z
20 y,-x+y,-z
21 x-y,x,-z
22 -x+y,y,1/2+z
23 x,x-y,1/2+z
24 -y,-x,1/2+z
25 1/3-x,2/3-y,2/3-z
26 1/3+y,2/3-x+y,2/3-z
27 1/3+x-y,2/3+x,2/3-z
28 1/3-x+y,2/3+y,1/6+z
29 1/3+x,2/3+x-y,1/6+z
30 1/3-y,2/3-x,1/6+z
31 2/3-x,1/3-y,1/3-z
32 2/3+y,1/3-x+y,1/3-z
33 2/3+x-y,1/3+x,1/3-z
34 2/3-x+y,1/3+y,5/6+z
35 2/3+x,1/3+x-y,5/6+z
36 2/3-y,1/3-x,5/6+z
_cell_length_a                   13.0157(18)
_cell_length_b                   13.0157(18)
_cell_length_c                   62.615(13)
_cell_angle_alpha                90
_cell_angle_beta                 90
_cell_angle_gamma                120
_cell_volume                     9186.37
loop_
_atom_site_label
_atom_site_type_symbol
_atom_site_fract_x
_atom_site_fract_y
_atom_site_fract_z
Fe1 Fe 0.3333 0.6667 0.003542(7)
N1 N 0.45971(15) 0.65006(15) -0.01593(3)
C1 C 0.59225(17) 0.60124(17) -0.03872(3)
C2 C 0.71019(16) 0.65047(16) -0.07265(3)
H1 H 0.7683 0.6396 -0.0655
C3 C 0.60974(17) 0.63348(16) -0.06149(3)
C4 C 0.52012(17) 0.62732(16) -0.02607(3)
C5 C 0.52591(17) 0.65029(17) -0.07262(3)
H2 H 0.4568 0.6392 -0.0654
N2 N 0.66717(21) 0.47127(15) -0.02220(3)
C6 C 0.63491(17) 0.53148(17) -0.02973(3)
N1I N 0.47632(21) 0.68327(15) -0.15074(3)
C1I C 0.65768(24) 0.73209(17) -0.12795(3)
C2I C 0.72639(23) 0.68286(16) -0.09402(3)
H1I H 0.7954 0.6937 -0.1012
C3I C 0.64293(23) 0.69985(16) -0.10518(3)
C4I C 0.55947(23) 0.70601(16) -0.14060(3)
C5I C 0.54229(24) 0.68304(17) -0.09405(3)
H2I H 0.4843 0.6941 -0.1013
C6I C 0.77010(24) 0.80185(17) -0.13694(3)
N2I N 0.86257(26) 0.86206(15) -0.14447(3)
N1A N 0.34994(15) 0.80965(21) -0.01593(3)
C1A C 0.39876(17) 0.99101(24) -0.03872(3)
C2A C 0.34953(16) 1.05972(23) -0.07265(3)
H1A H 0.3604 1.1287 -0.0655
C3A C 0.36652(16) 0.97626(23) -0.06149(3)
C4A C 0.37268(16) 0.89280(23) -0.02607(3)
C5A C 0.34971(17) 0.87562(24) -0.07262(3)
H2A H 0.3608 0.8176 -0.0654
N2A N 0.52873(15) 1.19590(26) -0.02220(3)
C6A C 0.46852(17) 1.10343(24) -0.02973(3)
N1K N 0.31673(15) 0.79304(15) -0.15074(3)
C1K C 0.26791(17) 0.92558(17) -0.12795(3)
C2K C 0.31714(16) 1.04352(16) -0.09402(3)
H1K H 0.3063 1.1016 -0.1012
C3K C 0.30015(16) 0.94307(17) -0.10518(3)
C4K C 0.29399(16) 0.85345(17) -0.14060(3)
C5K C 0.31696(17) 0.85924(17) -0.09405(3)
H2K H 0.3059 0.7901 -0.1013
C6K C 0.19815(17) 0.96824(17) -0.13694(3)
N2K N 0.13794(15) 1.00050(21) -0.14447(3)
N1B N 0.19035(21) 0.54029(15) -0.01593(3)
C1B C 0.00899(24) 0.40775(17) -0.03872(3)
C2B C -0.05972(23) 0.28981(16) -0.07265(3)
H1B H -0.1287 0.2317 -0.0655
C3B C 0.02374(23) 0.39026(17) -0.06149(3)
C4B C 0.10720(23) 0.47988(17) -0.02607(3)
C5B C 0.12438(24) 0.47409(17) -0.07262(3)
H2B H 0.1824 0.5432 -0.0654
N2B N -0.19590(26) 0.33283(21) -0.02220(3)
C6B C -0.10343(24) 0.36509(17) -0.02973(3)
N1J N 0.20696(15) 0.52368(21) -0.15074(3)
C1J C 0.07442(17) 0.34232(24) -0.12795(3)
C2J C -0.04352(16) 0.27361(23) -0.09402(3)
H1J H -0.1016 0.2046 -0.1012
C3J C 0.05693(17) 0.35707(23) -0.10518(3)
C4J C 0.14655(17) 0.44053(23) -0.14060(3)
C5J C 0.14076(17) 0.45771(24) -0.09405(3)
H2J H 0.2099 0.5157 -0.1013
C6J C 0.03176(17) 0.22990(24) -0.13694(3)
N2J N -0.00050(21) 0.13743(26) -0.14447(3)
Fe1I Fe 0.3333 0.6666 -0.170209(7)
Fe1R Fe -0.3333 0.3333 -0.003542(7)
Fe1R_2 Fe 0.6667 0.3333 -0.003542(7)
Fe1R_3 Fe 0.6667 1.3333 -0.003542(7)
Fe1GA Fe 0.0001 0.0000 -0.163125(7)
Fe1GA_2 Fe 0.0001 1.0000 -0.163125(7)
Fe1GA_3 Fe 1.0001 1.0000 -0.163125(7)
N2R N 0.33283(21) 0.52873(15) 0.02220(3)
N2S N 0.47127(15) 0.80410(26) 0.02220(3)
N2T N 0.19590(26) 0.66717(21) 0.02220(3)
N2GA N 0.47077(26) 0.80460(15) -0.18887(3)
N2HA N 0.33384(21) 0.52923(26) -0.18887(3)
N2IA N 0.19540(15) 0.66616(21) -0.18887(3)
P1 P 0.0000 0.0000 0.056465(15)
C7 C -0.13424(17) -0.12252(18) 0.04615(3)
C8 C -0.18024(19) -0.23505(19) 0.05525(4)
H3 H -0.1461 -0.2461 0.0678
C9 C -0.28095(18) -0.20265(19) 0.01838(4)
H4 H -0.3154 -0.1920 0.0058
C10 C -0.18495(18) -0.10663(18) 0.02783(3)
H5 H -0.1536 -0.0297 0.0218
C11 C -0.3267(2) -0.3145(2) 0.02730(4)
H6 H -0.3927 -0.3805 0.0208
C12 C -0.2771(2) -0.3306(2) 0.04553(5)
H7 H -0.3092 -0.4077 0.0515
C13 C 0.0000 0.0000 0.08511(6)
H8 H 0.0737 0.0679 0.0903
H8B H -0.0058 -0.0737 0.0903
H8A H -0.0679 0.0058 0.0903
C7A C 0.12252(18) -0.01172(25) 0.04615(3)
C8A C 0.23505(19) 0.05481(27) 0.05525(4)
H3A H 0.2461 0.1000 0.0678
C9A C 0.20265(19) -0.07830(26) 0.01838(4)
H4A H 0.1920 -0.1234 0.0058
C10A C 0.10663(18) -0.07832(25) 0.02783(3)
H5A H 0.0297 -0.1239 0.0218
C11A C 0.3145(2) -0.0122(3) 0.02730(4)
H6A H 0.3805 -0.0122 0.0208
C12A C 0.3306(2) 0.0535(3) 0.04553(5)
H7A H 0.4077 0.0985 0.0515
C7B C 0.01172(25) 0.13424(17) 0.04615(3)
C8B C -0.05481(27) 0.18024(19) 0.05525(4)
H3B H -0.1000 0.1461 0.0678
C9B C 0.07830(26) 0.28095(18) 0.01838(4)
H4B H 0.1234 0.3154 0.0058
C10B C 0.07832(25) 0.18495(18) 0.02783(3)
H5B H 0.1239 0.1536 0.0218
C11B C 0.0122(3) 0.3267(2) 0.02730(4)
H6B H 0.0122 0.3927 0.0208
C12B C -0.0535(3) 0.2771(2) 0.04553(5)
H7B H -0.0985 0.3092 0.0515
H9? H 0.0737 0.0679 0.0903
H10? H 0.0737 0.0679 0.0903
loop_
_geom_bond_atom_site_label_1
_geom_bond_atom_site_label_2
_geom_bond_site_symmetry_1
_geom_bond_site_symmetry_2
Fe1 N1 1_555 1_555
N1 C4 1_555 1_555
C1 C3 1_555 1_555
C2 H1 1_555 1_555
C3 C2 1_555 1_555
C4 C1 1_555 1_555
C5 C3 1_555 1_555
H2 C5 1_555 1_555
N2 C6 1_555 1_555
C6 C1 1_555 1_555
P1 C7 1_555 1_555
C7 C8 1_555 1_555
C8 H3 1_555 1_555
C9 H4 1_555 1_555
C10 C7 1_555 1_555
H5 C10 1_555 1_555
C11 C9 1_555 1_555
H6 C11 1_555 1_555
C12 C8 1_555 1_555
H7 C12 1_555 1_555
C13 P1 1_555 1_555
H8 C13 1_555 1_555
N1I C4I 1_555 1_555
C1I C3I 1_555 1_555
C2I C2 1_555 1_555
H1I C2I 1_555 1_555
C3I C2I 1_555 1_555
C4I C1I 1_555 1_555
C5I C5 1_555 1_555
H2I C5I 1_555 1_555
C6I C1I 1_555 1_555
N2I C6I 1_555 1_555
N1A Fe1 1_555 1_555
C1A C3A 1_555 1_555
C2A H1A 1_555 1_555
C3A C2A 1_555 1_555
C4A N1A 1_555 1_555
C5A C3A 1_555 1_555
H2A C5A 1_555 1_555
N2A C6A 1_555 1_555
C6A C1A 1_555 1_555
N1K C4K 1_555 1_555
C1K C3K 1_555 1_555
C2K C2A 1_555 1_555
H1K C2K 1_555 1_555
C3K C2K 1_555 1_555
C4K C1K 1_555 1_555
C5K C5A 1_555 1_555
H2K C5K 1_555 1_555
C6K C1K 1_555 1_555
N2K C6K 1_555 1_555
N1B Fe1 1_555 1_555
C1B C3B 1_555 1_555
C2B H1B 1_555 1_555
C3B C2B 1_555 1_555
C4B N1B 1_555 1_555
C5B C3B 1_555 1_555
H2B C5B 1_555 1_555
N2B C6B 1_555 1_555
C6B C1B 1_555 1_555
N1J C4J 1_555 1_555
C1J C3J 1_555 1_555
C2J C2B 1_555 1_555
H1J C2J 1_555 1_555
C3J C2J 1_555 1_555
C4J C1J 1_555 1_555
C5J C5B 1_555 1_555
H2J C5J 1_555 1_555
C6J C1J 1_555 1_555
N2J C6J 1_555 1_555
Fe1I N1I 1_555 1_555
Fe1R N2B 1_555 1_555
Fe1R_2 N2 1_555 1_555
Fe1R_3 N2A 1_555 1_555
Fe1GA N2J 1_555 1_555
Fe1GA_2 N2K 1_555 1_555
Fe1GA_3 N2I 1_555 1_555
N2R Fe1 1_555 1_555
N2S Fe1 1_555 1_555
N2T Fe1 1_555 1_555
N2GA Fe1I 1_555 1_555
N2HA Fe1I 1_555 1_555
N2IA Fe1I 1_555 1_555
H8B C13 1_555 1_555
H8A C13 1_555 1_555
C7A P1 1_555 1_555
C8A C7A 1_555 1_555
H3A C8A 1_555 1_555
C9A H4A 1_555 1_555
C10A C7A 1_555 1_555
H5A C10A 1_555 1_555
C11A C9A 1_555 1_555
H6A C11A 1_555 1_555
C12A C8A 1_555 1_555
H7A C12A 1_555 1_555
C7B P1 1_555 1_555
C8B C7B 1_555 1_555
H3B C8B 1_555 1_555
C9B H4B 1_555 1_555
C10B C7B 1_555 1_555
H5B C10B 1_555 1_555
C11B C9B 1_555 1_555
H6B C11B 1_555 1_555
C12B C8B 1_555 1_555
H7B C12B 1_555 1_555
C9 C10 1_555 1_555
C11 C12 1_555 1_555
C3I C5I 1_555 1_555
C1A C4A 1_555 1_555
N1K Fe1I 1_555 1_555
C3K C5K 1_555 1_555
C1B C4B 1_555 1_555
N1J Fe1I 1_555 1_555
C3J C5J 1_555 1_555
C9A C10A 1_555 1_555
C11A C12A 1_555 1_555
C9B C10B 1_555 1_555
C11B C12B 1_555 1_555

#END
