
#######################################################################
#
#                 Cambridge Crystallographic Data Centre
#                                CCDC 
#
#######################################################################
#
# If this CIF has been generated from an entry in the Cambridge 
# Structural Database, then it will include bibliographic, chemical, 
# crystal, experimental, refinement or atomic coordinate data resulting 
# from the CCDC's data processing and validation procedures.
#
#######################################################################

data_TONTEW
_symmetry_cell_setting           orthorhombic
_symmetry_space_group_name_H-M   'C m c m'
_symmetry_Int_Tables_number      63
_space_group_name_Hall           '-C 2n 2'
loop_
_symmetry_equiv_pos_site_id
_symmetry_equiv_pos_as_xyz
1 x,y,z
2 -x,-y,1/2+z
3 x,-y,-z
4 -x,y,1/2-z
5 1/2+x,1/2+y,z
6 1/2-x,1/2-y,1/2+z
7 1/2+x,1/2-y,-z
8 1/2-x,1/2+y,1/2-z
9 -x,-y,-z
10 x,y,1/2-z
11 -x,y,z
12 x,-y,1/2+z
13 1/2-x,1/2-y,-z
14 1/2+x,1/2+y,1/2-z
15 1/2-x,1/2+y,z
16 1/2+x,1/2-y,1/2+z
_cell_length_a                   10.6909(7)
_cell_length_b                   24.9019(18)
_cell_length_c                   25.5154(10)
_cell_angle_alpha                90
_cell_angle_beta                 90
_cell_angle_gamma                90
_cell_volume                     6792.8
loop_
_atom_site_label
_atom_site_type_symbol
_atom_site_fract_x
_atom_site_fract_y
_atom_site_fract_z
O12 O 0.5000 0.2387(13) 0.1478(12)
O13 O 0.5000 0.3655(6) 0.1058(6)
U1 U 0.5000 0.06918(2) 0.407093(19)
S1 S 0.2982(4) 0.0000 0.5000
O1 O 0.5000 0.0148(6) 0.3660(6)
O2 O 0.5000 0.1280(8) 0.4441(8)
O3 O 0.3661(13) 0.0110(6) 0.4512(4)
O4 O 0.3640(12) 0.0458(5) 0.4729(5)
O5 O 0.3029(17) -0.0461(5) 0.4637(5)
O6 O 0.1620(10) 0.0000 0.5000
O7 O 0.5000 0.1305(7) 0.3344(6)
O8 O 0.2779(12) 0.0270(5) 0.2500
O9 O 0.2871(6) 0.0883(3) 0.3791(3)
O10 O 0.2854(10) 0.2320(4) 0.4215(4)
O11 O 0.2848(15) 0.3357(7) 0.3302(5)
N1 N 0.1141(8) -0.0128(3) 0.2945(3)
N2 N 0.1158(8) 0.0328(3) 0.3775(3)
N3 N 0.1133(8) 0.1009(3) 0.4320(3)
N4 N 0.1124(9) 0.1941(4) 0.4599(4)
N5 N 0.1135(10) 0.2819(4) 0.4459(4)
N6 N 0.1140(9) 0.3522(4) 0.3806(3)
N7 N 0.1123(13) 0.3773(5) 0.2980(5)
C1 C 0.1794(15) 0.0052(7) 0.2500
C2 C 0.0000 -0.0394(6) 0.2816(6)
H1 H 0.0000 -0.0763 0.2952
C3 C 0.1673(10) -0.0100(5) 0.3452(4)
H2 H 0.1541 -0.0441 0.3628
H3 H 0.2568 -0.0047 0.3418
C4 C 0.1806(10) 0.0750(4) 0.3943(4)
C5 C 0.0000 0.0262(6) 0.4083(5)
H4 H 0.0000 -0.0079 0.4275
C6 C 0.0000 0.0738(6) 0.4455(6)
H5 H 0.0000 0.0623 0.4822
C7 C 0.1666(10) 0.1412(5) 0.4669(5)
H6 H 0.2560 0.1433 0.4608
H7 H 0.1541 0.1299 0.5029
C8 C 0.1793(12) 0.2344(5) 0.4414(5)
C9 C 0.0000 0.2115(6) 0.4845(6)
H8 H 0.0000 0.2030 0.5220
C10 C 0.0000 0.2743(7) 0.4750(6)
H9 H 0.0000 0.2945 0.5079
C11 C 0.1629(12) 0.3331(5) 0.4305(4)
H10 H 0.1434 0.3593 0.4575
H11 H 0.2533 0.3305 0.4281
C12 C 0.1801(16) 0.3519(7) 0.3363(6)
C13 C 0.0000 0.3839(8) 0.3756(7)
H12 H 0.0000 0.4152 0.3989
C14 C 0.0000 0.4000(9) 0.3170(8)
H13 H 0.0000 0.4392 0.3129
C15 C 0.173(3) 0.3935(12) 0.2500
H14 H 0.1799 0.4324 0.2500
H15 H 0.2571 0.3791 0.2500
U1B U 0.5000 -0.06918(2) 0.592907(19)
U1C U -0.5000 0.06918(2) 0.092907(19)
U1C_2 U 0.5000 0.06918(2) 0.092907(19)
U1_2 U -0.5000 0.06918(2) 0.407093(19)
S1H S 0.7018(4) 0.0000 0.5000
O1B O 0.5000 -0.0148(6) 0.6340(6)
O2B O 0.5000 -0.1280(8) 0.5559(8)
O3B O 0.3661(13) -0.0110(6) 0.5488(4)
O3J O 0.6339(13) 0.0110(6) 0.4512(4)
O3H O 0.6339(13) -0.0110(6) 0.5488(4)
O4B O 0.3640(12) -0.0458(5) 0.5271(5)
O4J O 0.6360(12) 0.0458(5) 0.4729(5)
O4H O 0.6360(12) -0.0458(5) 0.5271(5)
O5B O 0.3029(17) 0.0461(5) 0.5363(5)
O5J O 0.6971(17) -0.0461(5) 0.4637(5)
O5H O 0.6971(17) 0.0461(5) 0.5363(5)
O6H O 0.8380(10) 0.0000 0.5000
O7B O 0.5000 -0.1305(7) 0.6656(6)
O8C O -0.2779(12) 0.0270(5) 0.2500
O9C O -0.2871(6) 0.0883(3) 0.1209(3)
O9I O 0.2871(6) 0.0883(3) 0.1209(3)
O9J O -0.2871(6) 0.0883(3) 0.3791(3)
O9J_2 O 0.7129(6) 0.0883(3) 0.3791(3)
O9B O 0.2871(6) -0.0883(3) 0.6209(3)
O9H O 0.7129(6) -0.0883(3) 0.6209(3)
O10I O 0.2854(10) 0.2320(4) 0.0785(4)
O10C O -0.2854(10) 0.2320(4) 0.0785(4)
O10J O -0.2854(10) 0.2320(4) 0.4215(4)
O11C O -0.2848(15) 0.3357(7) 0.1698(5)
O11I O 0.2848(15) 0.3357(7) 0.1698(5)
O11J O -0.2848(15) 0.3357(7) 0.3302(5)
N1J N -0.1141(8) -0.0128(3) 0.2945(3)
N1C N -0.1141(8) -0.0128(3) 0.2055(3)
N1I N 0.1141(8) -0.0128(3) 0.2055(3)
N2I N 0.1158(8) 0.0328(3) 0.1225(3)
N2C N -0.1158(8) 0.0328(3) 0.1225(3)
N2J N -0.1158(8) 0.0328(3) 0.3775(3)
N3C N -0.1133(8) 0.1009(3) 0.0680(3)
N3I N 0.1133(8) 0.1009(3) 0.0680(3)
N3J N -0.1133(8) 0.1009(3) 0.4320(3)
N4I N 0.1124(9) 0.1941(4) 0.0401(4)
N4C N -0.1124(9) 0.1941(4) 0.0401(4)
N4J N -0.1124(9) 0.1941(4) 0.4599(4)
N5I N 0.1135(10) 0.2819(4) 0.0541(4)
N5C N -0.1135(10) 0.2819(4) 0.0541(4)
N5J N -0.1135(10) 0.2819(4) 0.4459(4)
N6C N -0.1140(9) 0.3522(4) 0.1194(3)
N6I N 0.1140(9) 0.3522(4) 0.1194(3)
N6J N -0.1140(9) 0.3522(4) 0.3806(3)
N7C N -0.1123(13) 0.3773(5) 0.2020(5)
N7I N 0.1123(13) 0.3773(5) 0.2020(5)
N7J N -0.1123(13) 0.3773(5) 0.2980(5)
C1C C -0.1794(15) 0.0052(7) 0.2500
C2C C 0.0000 -0.0394(6) 0.2184(6)
H1C H 0.0000 -0.0763 0.2048
C3I C 0.1673(10) -0.0100(5) 0.1548(4)
C3C C -0.1673(10) -0.0100(5) 0.1548(4)
C3J C -0.1673(10) -0.0100(5) 0.3452(4)
H2C H -0.1541 -0.0441 0.1372
H2J H -0.1541 -0.0441 0.3628
H2I H 0.1541 -0.0441 0.1372
H3C H -0.2568 -0.0047 0.1582
H3J H -0.2568 -0.0047 0.3418
H3I H 0.2568 -0.0047 0.1582
C4C C -0.1806(10) 0.0750(4) 0.1057(4)
C4I C 0.1806(10) 0.0750(4) 0.1057(4)
C4J C -0.1806(10) 0.0750(4) 0.3943(4)
C5C C 0.0000 0.0262(6) 0.0917(5)
H4C H 0.0000 -0.0079 0.0725
C6C C 0.0000 0.0738(6) 0.0545(6)
H5C H 0.0000 0.0623 0.0178
C7I C 0.1666(10) 0.1412(5) 0.0331(5)
C7C C -0.1666(10) 0.1412(5) 0.0331(5)
C7J C -0.1666(10) 0.1412(5) 0.4669(5)
H6C H -0.2560 0.1433 0.0392
H6J H -0.2560 0.1433 0.4608
H6I H 0.2560 0.1433 0.0392
H7C H -0.1541 0.1299 -0.0029
H7J H -0.1541 0.1299 0.5029
H7I H 0.1541 0.1299 -0.0029
C8I C 0.1793(12) 0.2344(5) 0.0586(5)
C8C C -0.1793(12) 0.2344(5) 0.0586(5)
C8J C -0.1793(12) 0.2344(5) 0.4414(5)
C9C C 0.0000 0.2115(6) 0.0155(6)
H8C H 0.0000 0.2030 -0.0220
C10C C 0.0000 0.2743(7) 0.0250(6)
H9C H 0.0000 0.2945 -0.0079
C11C C -0.1629(12) 0.3331(5) 0.0695(4)
C11I C 0.1629(12) 0.3331(5) 0.0695(4)
C11J C -0.1629(12) 0.3331(5) 0.4305(4)
H10I H 0.1434 0.3593 0.0425
H10J H -0.1434 0.3593 0.4575
H10C H -0.1434 0.3593 0.0425
H11I H 0.2533 0.3305 0.0719
H11J H -0.2533 0.3305 0.4281
H11C H -0.2533 0.3305 0.0719
C12C C -0.1801(16) 0.3519(7) 0.1637(6)
C12I C 0.1801(16) 0.3519(7) 0.1637(6)
C12J C -0.1801(16) 0.3519(7) 0.3363(6)
C13C C 0.0000 0.3839(8) 0.1244(7)
H12C H 0.0000 0.4152 0.1011
C14C C 0.0000 0.4000(9) 0.1830(8)
H13C H 0.0000 0.4392 0.1871
C15C C -0.173(3) 0.3935(12) 0.2500
H14C H -0.1799 0.4324 0.2500
H15C H -0.2571 0.3791 0.2500
loop_
_geom_bond_atom_site_label_1
_geom_bond_atom_site_label_2
_geom_bond_site_symmetry_1
_geom_bond_site_symmetry_2
U1 O1 1_555 1_555
S1 O3 1_555 1_555
O2 U1 1_555 1_555
O3 U1 1_555 1_555
O4 U1 1_555 1_555
O5 S1 1_555 1_555
O6 S1 1_555 1_555
O7 U1 1_555 1_555
O8 C1 1_555 1_555
O9 U1 1_555 1_555
O10 C8 1_555 1_555
O11 C12 1_555 1_555
N1 C1 1_555 1_555
N2 C3 1_555 1_555
N3 C4 1_555 1_555
N4 C7 1_555 1_555
N5 C8 1_555 1_555
N6 C11 1_555 1_555
N7 C12 1_555 1_555
C1 N1I 1_555 1_555
C2 N1 1_555 1_555
H1 C2 1_555 1_555
C3 N1 1_555 1_555
H2 C3 1_555 1_555
H3 C3 1_555 1_555
C4 O9 1_555 1_555
C5 N2 1_555 1_555
H4 C5 1_555 1_555
C6 N3 1_555 1_555
H5 C6 1_555 1_555
C7 N3 1_555 1_555
H6 C7 1_555 1_555
H7 C7 1_555 1_555
C8 N4 1_555 1_555
C9 N4 1_555 1_555
H8 C9 1_555 1_555
C10 N5 1_555 1_555
H9 C10 1_555 1_555
C11 N5 1_555 1_555
H10 C11 1_555 1_555
H11 C11 1_555 1_555
C12 N6 1_555 1_555
C13 N6 1_555 1_555
H12 C13 1_555 1_555
C14 N7 1_555 1_555
H13 C14 1_555 1_555
C15 N7 1_555 1_555
H14 C15 1_555 1_555
H15 C15 1_555 1_555
U1B O1B 1_555 1_555
U1C O9C 1_555 1_555
U1C_2 O9I 1_555 1_555
U1_2 O9J 1_555 1_555
S1H O3J 1_555 1_555
O2B U1B 1_555 1_555
O3B S1 1_555 1_555
O3J U1 1_555 1_555
O3H U1B 1_555 1_555
O4B S1 1_555 1_555
O4J U1 1_555 1_555
O4H U1B 1_555 1_555
O5B S1 1_555 1_555
O5J S1H 1_555 1_555
O5H S1H 1_555 1_555
O6H S1H 1_555 1_555
O7B U1B 1_555 1_555
O8C C1C 1_555 1_555
O9C C4C 1_555 1_555
O9I C4I 1_555 1_555
O9J C4J 1_555 1_555
O9J_2 U1 1_555 1_555
O9B U1B 1_555 1_555
O9H U1B 1_555 1_555
O10I C8I 1_555 1_555
O10C C8C 1_555 1_555
O10J C8J 1_555 1_555
O11C C12C 1_555 1_555
O11I C12I 1_555 1_555
O11J C12J 1_555 1_555
N1J C2 1_555 1_555
N1C C1C 1_555 1_555
N1I C2C 1_555 1_555
N2I C3I 1_555 1_555
N2C C3C 1_555 1_555
N2J C5 1_555 1_555
N3C C4C 1_555 1_555
N3I C4I 1_555 1_555
N3J C6 1_555 1_555
N4I C7I 1_555 1_555
N4C C7C 1_555 1_555
N4J C9 1_555 1_555
N5I C8I 1_555 1_555
N5C C8C 1_555 1_555
N5J C10 1_555 1_555
N6C C11C 1_555 1_555
N6I C11I 1_555 1_555
N6J C13 1_555 1_555
N7C C12C 1_555 1_555
N7I C15 1_555 1_555
N7J C14 1_555 1_555
C1C N1J 1_555 1_555
C2C C2 1_555 1_555
H1C C2C 1_555 1_555
C3I N1I 1_555 1_555
C3C N1C 1_555 1_555
C3J N1J 1_555 1_555
H2C C3C 1_555 1_555
H2J C3J 1_555 1_555
H2I C3I 1_555 1_555
H3C C3C 1_555 1_555
H3J C3J 1_555 1_555
H3I C3I 1_555 1_555
C4C N2C 1_555 1_555
C4I N2I 1_555 1_555
C4J N2J 1_555 1_555
C5C N2I 1_555 1_555
H4C C5C 1_555 1_555
C6C N3C 1_555 1_555
H5C C6C 1_555 1_555
C7I N3I 1_555 1_555
C7C N3C 1_555 1_555
C7J N3J 1_555 1_555
H6C C7C 1_555 1_555
H6J C7J 1_555 1_555
H6I C7I 1_555 1_555
H7C C7C 1_555 1_555
H7J C7J 1_555 1_555
H7I C7I 1_555 1_555
C8I N4I 1_555 1_555
C8C N4C 1_555 1_555
C8J N4J 1_555 1_555
C9C N4I 1_555 1_555
H8C C9C 1_555 1_555
C10C N5I 1_555 1_555
H9C C10C 1_555 1_555
C11C N5C 1_555 1_555
C11I N5I 1_555 1_555
C11J N5J 1_555 1_555
H10I C11I 1_555 1_555
H10J C11J 1_555 1_555
H10C C11C 1_555 1_555
H11I C11I 1_555 1_555
H11J C11J 1_555 1_555
H11C C11C 1_555 1_555
C12C N6C 1_555 1_555
C12I N6I 1_555 1_555
C12J N6J 1_555 1_555
C13C N6C 1_555 1_555
H12C C13C 1_555 1_555
C14C N7C 1_555 1_555
H13C C14C 1_555 1_555
C15C N7C 1_555 1_555
H14C C15C 1_555 1_555
H15C C15C 1_555 1_555
S1 O4 1_555 1_555
O3 O4 1_555 1_555
O3 O5 1_555 1_555
O4 O5B 1_555 1_555
O5 O4B 1_555 1_555
N2 C4 1_555 1_555
C5 C6 1_555 1_555
C9 C10 1_555 1_555
C13 C14 1_555 1_555
U1B O3B 1_555 1_555
U1B O4B 1_555 1_555
S1H O3H 1_555 1_555
S1H O4J 1_555 1_555
S1H O4H 1_555 1_555
O3B O4B 1_555 1_555
O3B O5B 1_555 1_555
O3J O4J 1_555 1_555
O3J O5J 1_555 1_555
O3H O4H 1_555 1_555
O3H O5H 1_555 1_555
O4J O5H 1_555 1_555
O4H O5J 1_555 1_555
N1C C2C 1_555 1_555
N2C C5C 1_555 1_555
N2J C3J 1_555 1_555
N3I C6C 1_555 1_555
N3J C4J 1_555 1_555
N4C C9C 1_555 1_555
N4J C7J 1_555 1_555
N5C C10C 1_555 1_555
N5J C8J 1_555 1_555
N6I C13C 1_555 1_555
N6J C11J 1_555 1_555
N7I C12I 1_555 1_555
N7I C14C 1_555 1_555
N7J C12J 1_555 1_555
N7J C15C 1_555 1_555
C5C C6C 1_555 1_555
C9C C10C 1_555 1_555
C13C C14C 1_555 1_555

#END
