
#######################################################################
#
#                 Cambridge Crystallographic Data Centre
#                                CCDC 
#
#######################################################################
#
# If this CIF has been generated from an entry in the Cambridge 
# Structural Database, then it will include bibliographic, chemical, 
# crystal, experimental, refinement or atomic coordinate data resulting 
# from the CCDC's data processing and validation procedures.
#
#######################################################################

data_TONTOF
_symmetry_cell_setting           monoclinic
_symmetry_space_group_name_H-M   'P 21/n'
_symmetry_Int_Tables_number      14
_space_group_name_Hall           '-P 2yn'
loop_
_symmetry_equiv_pos_site_id
_symmetry_equiv_pos_as_xyz
1 x,y,z
2 1/2-x,1/2+y,1/2-z
3 -x,-y,-z
4 1/2+x,1/2-y,1/2+z
_cell_length_a                   7.6261(13)
_cell_length_b                   21.360(3)
_cell_length_c                   8.1092(14)
_cell_angle_alpha                90
_cell_angle_beta                 90.958(1)
_cell_angle_gamma                90
_cell_volume                     1320.75
loop_
_atom_site_label
_atom_site_type_symbol
_atom_site_fract_x
_atom_site_fract_y
_atom_site_fract_z
Bi1 Bi 0.40899(5) 0.69595(2) 0.56044(4)
S1 S 0.01351(32) 0.74841(15) 1.37040(33)
N1 N 0.2144(13) 0.77578(50) 1.0559(12)
C1 C -0.1624(12) 0.73407(46) 1.4764(12)
S2 S -0.10058(38) 0.66334(14) 0.96996(36)
N2 N 0.1419(11) 0.66498(45) 0.7172(10)
C2 C 0.0447(11) 0.66634(49) 0.8244(11)
S3 S 0.05915(35) 0.90453(13) 1.20195(39)
N3 N -0.2022(15) 0.99349(48) 1.1535(17)
C3 C -0.0997(14) 0.95661(49) 1.1721(12)
S4 S 0.03658(41) 0.84786(15) 0.75279(35)
S5 S -0.18799(46) 0.94440(16) 0.59044(34)
S6 S -0.41906(43) 0.97611(15) 0.68952(37)
N4 N -0.2654(11) 0.88660(40) 0.86719(97)
C4 C -0.1436(14) 0.89168(50) 0.7487(11)
N5 N -0.5349(12) 0.91964(46) 0.9582(12)
C5 C -0.4080(13) 0.92295(46) 0.8489(12)
H1 H -0.50210 0.89040 1.04310
H2 H -0.50000 0.94710 1.00610
Bi1C Bi -0.09101(5) 0.80405(2) 1.06044(4)
N1C N -0.2856(13) 0.72422(50) 1.5559(12)
Bi1_2 Bi -0.59101(5) 0.69595(2) 1.56044(4)
N2C N -0.3581(11) 0.83502(45) 1.2172(10)
loop_
_geom_bond_atom_site_label_1
_geom_bond_atom_site_label_2
_geom_bond_site_symmetry_1
_geom_bond_site_symmetry_2
Bi1 N2 1_555 1_555
S1 C1 1_555 1_555
N1 Bi1C 1_555 1_555
C1 N1C 1_555 1_555
S2 C2 1_555 1_555
N2 C2 1_555 1_555
S3 C3 1_555 1_555
N3 C3 1_555 1_555
S4 C4 1_555 1_555
S5 S6 1_555 1_555
S6 C5 1_555 1_555
N4 C4 1_555 1_555
C4 S5 1_555 1_555
N5 C5 1_555 1_555
C5 N4 1_555 1_555
H1 N5 1_555 1_555
H2 N5 1_555 1_555
Bi1C S1 1_555 1_555
N1C Bi1_2 1_555 1_555
N2C Bi1C 1_555 1_555
S2 Bi1C 1_555 1_555
S3 Bi1C 1_555 1_555
S4 Bi1C 1_555 1_555
N4 Bi1C 1_555 1_555

#END
