
#######################################################################
#
#                 Cambridge Crystallographic Data Centre
#                                CCDC 
#
#######################################################################
#
# If this CIF has been generated from an entry in the Cambridge 
# Structural Database, then it will include bibliographic, chemical, 
# crystal, experimental, refinement or atomic coordinate data resulting 
# from the CCDC's data processing and validation procedures.
#
#######################################################################

data_TONTOH
_symmetry_cell_setting           rhombohedral
_symmetry_space_group_name_H-M   'R -3 c'
_symmetry_Int_Tables_number      167
_space_group_name_Hall           '-R 3 2"c'
loop_
_symmetry_equiv_pos_site_id
_symmetry_equiv_pos_as_xyz
1 x,y,z
2 -y,x-y,z
3 -x+y,-x,z
4 x-y,-y,1/2-z
5 -x,-x+y,1/2-z
6 y,x,1/2-z
7 2/3+x,1/3+y,1/3+z
8 2/3-y,1/3+x-y,1/3+z
9 2/3-x+y,1/3-x,1/3+z
10 2/3+x-y,1/3-y,5/6-z
11 2/3-x,1/3-x+y,5/6-z
12 2/3+y,1/3+x,5/6-z
13 1/3+x,2/3+y,2/3+z
14 1/3-y,2/3+x-y,2/3+z
15 1/3-x+y,2/3-x,2/3+z
16 1/3+x-y,2/3-y,1/6-z
17 1/3-x,2/3-x+y,1/6-z
18 1/3+y,2/3+x,1/6-z
19 -x,-y,-z
20 y,-x+y,-z
21 x-y,x,-z
22 -x+y,y,1/2+z
23 x,x-y,1/2+z
24 -y,-x,1/2+z
25 1/3-x,2/3-y,2/3-z
26 1/3+y,2/3-x+y,2/3-z
27 1/3+x-y,2/3+x,2/3-z
28 1/3-x+y,2/3+y,1/6+z
29 1/3+x,2/3+x-y,1/6+z
30 1/3-y,2/3-x,1/6+z
31 2/3-x,1/3-y,1/3-z
32 2/3+y,1/3-x+y,1/3-z
33 2/3+x-y,1/3+x,1/3-z
34 2/3-x+y,1/3+y,5/6+z
35 2/3+x,1/3+x-y,5/6+z
36 2/3-y,1/3-x,5/6+z
_cell_length_a                   12.9021(18)
_cell_length_b                   12.9021(18)
_cell_length_c                   62.407(13)
_cell_angle_alpha                90
_cell_angle_beta                 90
_cell_angle_gamma                120
_cell_volume                     8996.73
loop_
_atom_site_label
_atom_site_type_symbol
_atom_site_fract_x
_atom_site_fract_y
_atom_site_fract_z
Co1 Co 0.3333 0.6667 0.00347(2)
N1 N 0.19733(16) 0.53141(16) 0.02214(3)
C1 C 0.10400(19) 0.47002(19) 0.02958(3)
C2 C -0.10879(19) 0.37172(19) 0.02600(3)
C3 C -0.00901(18) 0.39867(19) 0.03858(3)
C4 C -0.02396(18) 0.36629(18) 0.06140(3)
C5 C 0.06059(18) 0.34937(18) 0.07261(3)
H1 H 0.1301 0.3601 0.0654
C6 C -0.12527(18) 0.34969(19) 0.07269(3)
H2 H -0.1837 0.3612 0.0655
N2 N -0.19283(16) 0.34828(16) 0.01595(3)
N1O N -0.00075(23) 0.13526(16) 0.14453(3)
C1O C -0.03269(27) 0.19665(19) 0.13709(3)
C2O C -0.14718(27) 0.29495(19) 0.14067(3)
C3O C -0.07435(26) 0.26800(19) 0.12809(3)
C4O C -0.05692(25) 0.30038(18) 0.10527(3)
C5O C 0.04455(25) 0.31730(18) 0.09406(3)
H1O H 0.1033 0.3066 0.1013
C6O C -0.14163(26) 0.31698(19) 0.09398(3)
H2O H -0.2116 0.3055 0.1012
N2O N -0.20778(23) 0.31839(16) 0.15072(3)
N1A N 0.46859(16) 0.66592(23) 0.02214(3)
C1A C 0.52998(19) 0.63398(27) 0.02958(3)
C2A C 0.62828(19) 0.51949(27) 0.02600(3)
C3A C 0.60133(19) 0.59232(26) 0.03858(3)
C4A C 0.63371(18) 0.60975(25) 0.06140(3)
C5A C 0.65063(18) 0.71122(25) 0.07261(3)
H1A H 0.6399 0.7700 0.0654
C6A C 0.65031(19) 0.52504(26) 0.07269(3)
H2A H 0.6388 0.4551 0.0655
N2A N 0.65172(16) 0.45889(23) 0.01595(3)
N1Q N 0.86474(16) 0.86400(16) 0.14453(3)
C1Q C 0.80335(19) 0.77067(19) 0.13709(3)
C2Q C 0.70505(19) 0.55788(19) 0.14067(3)
C3Q C 0.73200(19) 0.65766(18) 0.12809(3)
C4Q C 0.69962(18) 0.64271(18) 0.10527(3)
C5Q C 0.68270(18) 0.72726(18) 0.09406(3)
H1Q H 0.6934 0.7968 0.1013
C6Q C 0.68302(19) 0.54140(18) 0.09398(3)
H2Q H 0.6945 0.4830 0.1012
N2Q N 0.68161(16) 0.47384(16) 0.15072(3)
N1B N 0.33408(23) 0.80267(16) 0.02214(3)
C1B C 0.36602(27) 0.89600(19) 0.02958(3)
C2B C 0.48051(27) 1.10879(19) 0.02600(3)
C3B C 0.40768(26) 1.00901(18) 0.03858(3)
C4B C 0.39025(25) 1.02396(18) 0.06140(3)
C5B C 0.28878(25) 0.93941(18) 0.07261(3)
H1B H 0.2300 0.8699 0.0654
C6B C 0.47496(26) 1.12527(18) 0.07269(3)
H2B H 0.5449 1.1837 0.0655
N2B N 0.54111(23) 1.19283(16) 0.01595(3)
N1P N 0.13600(16) 1.00075(23) 0.14453(3)
C1P C 0.22933(19) 1.03269(27) 0.13709(3)
C2P C 0.44212(19) 1.14718(27) 0.14067(3)
C3P C 0.34234(18) 1.07435(26) 0.12809(3)
C4P C 0.35729(18) 1.05692(25) 0.10527(3)
C5P C 0.27274(18) 0.95545(25) 0.09406(3)
H1P H 0.2032 0.8967 0.1013
C6P C 0.45860(18) 1.14163(26) 0.09398(3)
H2P H 0.5170 1.2116 0.1012
N2P N 0.52616(16) 1.20778(23) 0.15072(3)
Co1R Co -0.3333 0.3333 -0.00347(2)
Co1O Co -0.0001 -0.0000 0.16320(2)
Co1O_2 Co -0.0001 1.0000 0.16320(2)
Co1O_3 Co 0.9999 1.0000 0.16320(2)
Co1R_2 Co 0.6667 0.3333 -0.00347(2)
Co1R_3 Co 0.6667 1.3333 -0.00347(2)
Co1AA Co -0.3333 0.3334 0.17014(2)
Co1AA_2 Co 0.6667 0.3334 0.17014(2)
Co1AA_3 Co 0.6667 1.3334 0.17014(2)
N1R N -0.19733(16) 0.46859(16) -0.02214(3)
N1S N -0.46859(16) 0.33408(23) -0.02214(3)
N1T N -0.33408(23) 0.19733(16) -0.02214(3)
N2A_2 N -0.34828(16) 0.45889(23) 0.01595(3)
N2B_2 N -0.45889(23) 0.19283(16) 0.01595(3)
N2R N 0.19283(16) 0.65172(16) -0.01595(3)
N2S N 0.34828(16) 0.54111(23) -0.01595(3)
N2T N 0.45889(23) 0.80717(16) -0.01595(3)
P1 P 0.0000 0.0000 0.05680(2)
C7 C 0.1229(2) 0.13524(19) 0.04641(4)
C8 C 0.2363(2) 0.1825(2) 0.05538(4)
H3 H 0.2479 0.1488 0.0681
C9 C 0.3321(2) 0.2795(2) 0.04559(5)
H4 H 0.4099 0.3129 0.0516
C10 C 0.3151(2) 0.3277(2) 0.02709(5)
H5 H 0.3815 0.3936 0.0204
C11 C 0.2032(2) 0.2815(2) 0.01823(4)
H6 H 0.1922 0.3154 0.0055
C12 C 0.1065(2) 0.1853(2) 0.02793(4)
H7 H 0.0288 0.1534 0.0219
C13 C 0.0000 0.0000 0.08556(7)
H8 H 0.0785 0.0167 0.0908
H8B H -0.0618 -0.0785 0.0908
H8A H -0.0167 0.0618 0.0908
C7A C -0.13524(19) -0.01234(28) 0.04641(4)
C8A C -0.1825(2) 0.0538(3) 0.05538(4)
H3A H -0.1488 0.0991 0.0681
C9A C -0.2795(2) 0.0526(3) 0.04559(5)
H4A H -0.3129 0.0970 0.0516
C10A C -0.3277(2) -0.0126(3) 0.02709(5)
H5A H -0.3936 -0.0121 0.0204
C11A C -0.2815(2) -0.0783(3) 0.01823(4)
H6A H -0.3154 -0.1232 0.0055
C12A C -0.1853(2) -0.0788(3) 0.02793(4)
H7A H -0.1534 -0.1246 0.0219
C7B C 0.01234(28) -0.1229(2) 0.04641(4)
C8B C -0.0538(3) -0.2363(2) 0.05538(4)
H3B H -0.0991 -0.2479 0.0681
C9B C -0.0526(3) -0.3321(2) 0.04559(5)
H4B H -0.0970 -0.4099 0.0516
C10B C 0.0126(3) -0.3151(2) 0.02709(5)
H5B H 0.0121 -0.3815 0.0204
C11B C 0.0783(3) -0.2032(2) 0.01823(4)
H6B H 0.1232 -0.1922 0.0055
C12B C 0.0788(3) -0.1065(2) 0.02793(4)
H7B H 0.1246 -0.0288 0.0219
H9? H 0.0785 0.0167 0.0908
H10? H 0.0785 0.0167 0.0908
loop_
_geom_bond_atom_site_label_1
_geom_bond_atom_site_label_2
_geom_bond_site_symmetry_1
_geom_bond_site_symmetry_2
Co1 N1 1_555 1_555
N1 C1 1_555 1_555
C1 C3 1_555 1_555
C2 C3 1_555 1_555
C3 C4 1_555 1_555
C4 C5 1_555 1_555
C5 H1 1_555 1_555
C6 C4 1_555 1_555
H2 C6 1_555 1_555
N2 C2 1_555 1_555
P1 C7 1_555 1_555
C7 C8 1_555 1_555
C8 H3 1_555 1_555
C9 C8 1_555 1_555
H4 C9 1_555 1_555
C10 C9 1_555 1_555
H5 C10 1_555 1_555
C11 C10 1_555 1_555
H6 C11 1_555 1_555
C12 C7 1_555 1_555
H7 C12 1_555 1_555
C13 P1 1_555 1_555
H8 C13 1_555 1_555
N1O C1O 1_555 1_555
C1O C3O 1_555 1_555
C2O C3O 1_555 1_555
C3O C4O 1_555 1_555
C4O C5O 1_555 1_555
C5O C5 1_555 1_555
H1O C5O 1_555 1_555
C6O C6 1_555 1_555
H2O C6O 1_555 1_555
N2O C2O 1_555 1_555
N1A Co1 1_555 1_555
C1A N1A 1_555 1_555
C2A C3A 1_555 1_555
C3A C1A 1_555 1_555
C4A C3A 1_555 1_555
C5A C4A 1_555 1_555
H1A C5A 1_555 1_555
C6A C4A 1_555 1_555
H2A C6A 1_555 1_555
N2A C2A 1_555 1_555
N1Q C1Q 1_555 1_555
C1Q C3Q 1_555 1_555
C2Q C3Q 1_555 1_555
C3Q C4Q 1_555 1_555
C4Q C5Q 1_555 1_555
C5Q C5A 1_555 1_555
H1Q C5Q 1_555 1_555
C6Q C6A 1_555 1_555
H2Q C6Q 1_555 1_555
N2Q C2Q 1_555 1_555
N1B Co1 1_555 1_555
C1B N1B 1_555 1_555
C2B C3B 1_555 1_555
C3B C1B 1_555 1_555
C4B C3B 1_555 1_555
C5B C4B 1_555 1_555
H1B C5B 1_555 1_555
C6B C4B 1_555 1_555
H2B C6B 1_555 1_555
N2B C2B 1_555 1_555
N1P C1P 1_555 1_555
C1P C3P 1_555 1_555
C2P C3P 1_555 1_555
C3P C4P 1_555 1_555
C4P C5P 1_555 1_555
C5P C5B 1_555 1_555
H1P C5P 1_555 1_555
C6P C6B 1_555 1_555
H2P C6P 1_555 1_555
N2P C2P 1_555 1_555
Co1R N2 1_555 1_555
Co1O N1O 1_555 1_555
Co1O_2 N1P 1_555 1_555
Co1O_3 N1Q 1_555 1_555
Co1R_2 N2A 1_555 1_555
Co1R_3 N2B 1_555 1_555
Co1AA N2O 1_555 1_555
Co1AA_2 N2Q 1_555 1_555
Co1AA_3 N2P 1_555 1_555
N1R Co1R 1_555 1_555
N1S Co1R 1_555 1_555
N1T Co1R 1_555 1_555
N2A_2 Co1R 1_555 1_555
N2B_2 Co1R 1_555 1_555
N2R Co1 1_555 1_555
N2S Co1 1_555 1_555
N2T Co1 1_555 1_555
H8B C13 1_555 1_555
H8A C13 1_555 1_555
C7A P1 1_555 1_555
C8A C7A 1_555 1_555
H3A C8A 1_555 1_555
C9A C8A 1_555 1_555
H4A C9A 1_555 1_555
C10A C9A 1_555 1_555
H5A C10A 1_555 1_555
C11A C10A 1_555 1_555
H6A C11A 1_555 1_555
C12A C7A 1_555 1_555
H7A C12A 1_555 1_555
C7B P1 1_555 1_555
C8B C7B 1_555 1_555
H3B C8B 1_555 1_555
C9B C8B 1_555 1_555
H4B C9B 1_555 1_555
C10B C9B 1_555 1_555
H5B C10B 1_555 1_555
C11B C10B 1_555 1_555
H6B C11B 1_555 1_555
C12B C7B 1_555 1_555
H7B C12B 1_555 1_555
C11 C12 1_555 1_555
C4O C6O 1_555 1_555
C4Q C6Q 1_555 1_555
C4P C6P 1_555 1_555
C11A C12A 1_555 1_555
C11B C12B 1_555 1_555

#END
