
#######################################################################
#
#                 Cambridge Crystallographic Data Centre
#                                CCDC 
#
#######################################################################
#
# If this CIF has been generated from an entry in the Cambridge 
# Structural Database, then it will include bibliographic, chemical, 
# crystal, experimental, refinement or atomic coordinate data resulting 
# from the CCDC's data processing and validation procedures.
#
#######################################################################

data_TONVAV
_symmetry_cell_setting           rhombohedral
_symmetry_space_group_name_H-M   'R -3 c'
_symmetry_Int_Tables_number      167
_space_group_name_Hall           '-R 3 2"c'
loop_
_symmetry_equiv_pos_site_id
_symmetry_equiv_pos_as_xyz
1 x,y,z
2 -y,x-y,z
3 -x+y,-x,z
4 x-y,-y,1/2-z
5 -x,-x+y,1/2-z
6 y,x,1/2-z
7 2/3+x,1/3+y,1/3+z
8 2/3-y,1/3+x-y,1/3+z
9 2/3-x+y,1/3-x,1/3+z
10 2/3+x-y,1/3-y,5/6-z
11 2/3-x,1/3-x+y,5/6-z
12 2/3+y,1/3+x,5/6-z
13 1/3+x,2/3+y,2/3+z
14 1/3-y,2/3+x-y,2/3+z
15 1/3-x+y,2/3-x,2/3+z
16 1/3+x-y,2/3-y,1/6-z
17 1/3-x,2/3-x+y,1/6-z
18 1/3+y,2/3+x,1/6-z
19 -x,-y,-z
20 y,-x+y,-z
21 x-y,x,-z
22 -x+y,y,1/2+z
23 x,x-y,1/2+z
24 -y,-x,1/2+z
25 1/3-x,2/3-y,2/3-z
26 1/3+y,2/3-x+y,2/3-z
27 1/3+x-y,2/3+x,2/3-z
28 1/3-x+y,2/3+y,1/6+z
29 1/3+x,2/3+x-y,1/6+z
30 1/3-y,2/3-x,1/6+z
31 2/3-x,1/3-y,1/3-z
32 2/3+y,1/3-x+y,1/3-z
33 2/3+x-y,1/3+x,1/3-z
34 2/3-x+y,1/3+y,5/6+z
35 2/3+x,1/3+x-y,5/6+z
36 2/3-y,1/3-x,5/6+z
_cell_length_a                   12.9728(18)
_cell_length_b                   12.9728(18)
_cell_length_c                   62.652(13)
_cell_angle_alpha                90
_cell_angle_beta                 90
_cell_angle_gamma                120
_cell_volume                     9131.31
loop_
_atom_site_label
_atom_site_type_symbol
_atom_site_fract_x
_atom_site_fract_y
_atom_site_fract_z
Zn1 Zn 0.3333 0.6667 0.003617(3)
N1 N 0.34875(10) 0.53994(10) -0.015996(17)
C1 C 0.37215(11) 0.47959(11) -0.026095(18)
C2 C 0.36617(11) 0.38956(11) -0.061421(19)
C3 C 0.39873(11) 0.40710(11) -0.038694(18)
C4 C 0.34960(11) 0.47377(11) -0.072628(19)
H1 H 0.3608 0.5432 -0.0655
C5 C 0.34933(11) 0.28869(11) -0.072604(18)
H2 H 0.3599 0.2302 -0.0654
C6 C 0.46874(11) 0.36469(11) -0.029671(18)
N2 N 0.52882(10) 0.33162(10) -0.022279(17)
N1J N 0.31792(10) 0.52452(14) -0.150671(17)
C1J C 0.29452(11) 0.44077(16) -0.140572(18)
C2J C 0.30050(11) 0.35672(16) -0.105246(19)
C3J C 0.26794(11) 0.34170(16) -0.127973(18)
C4J C 0.31707(11) 0.45750(16) -0.094039(19)
H1J H 0.3059 0.5157 -0.1012
C5J C 0.31734(11) 0.27269(16) -0.094063(18)
H2J H 0.3068 0.2036 -0.1013
C6J C 0.19793(11) 0.22928(16) -0.136996(18)
N2J N 0.13785(10) 0.13613(14) -0.144388(17)
N1A N 0.46006(10) 0.80881(14) -0.015996(17)
C1A C 0.52041(11) 0.89256(16) -0.026095(18)
C2A C 0.61044(11) 0.97661(16) -0.061421(19)
C3A C 0.59290(11) 0.99163(16) -0.038694(18)
C4A C 0.52623(11) 0.87583(16) -0.072628(19)
H1A H 0.4568 0.8176 -0.0655
C5A C 0.71131(11) 1.06064(16) -0.072604(18)
H2A H 0.7698 1.1297 -0.0654
C6A C 0.63531(11) 1.10405(16) -0.029671(18)
N2A N 0.66838(10) 1.19720(14) -0.022279(17)
N1I N 0.47548(14) 0.79339(10) -0.150671(17)
C1I C 0.55923(16) 0.85374(11) -0.140572(18)
C2I C 0.64328(16) 0.94377(11) -0.105246(19)
C3I C 0.65830(16) 0.92623(11) -0.127973(18)
C4I C 0.54250(16) 0.85956(11) -0.094039(19)
H1I H 0.4843 0.7901 -0.1012
C5I C 0.72731(16) 1.04464(11) -0.094063(18)
H2I H 0.7964 1.1031 -0.1013
C6I C 0.77072(16) 0.96864(11) -0.136996(18)
N2I N 0.86387(14) 1.00171(10) -0.144388(17)
N1B N 0.19119(14) 0.65125(10) -0.015996(17)
C1B C 0.10744(16) 0.62785(11) -0.026095(18)
C2B C 0.02339(16) 0.63383(11) -0.061421(19)
C3B C 0.00837(16) 0.60127(11) -0.038694(18)
C4B C 0.12417(16) 0.65040(11) -0.072628(19)
H1B H 0.1824 0.6392 -0.0655
C5B C -0.06064(16) 0.65067(11) -0.072604(18)
H2B H -0.1297 0.6401 -0.0654
C6B C -0.10405(16) 0.53126(11) -0.029671(18)
N2B N -0.19720(14) 0.47118(10) -0.022279(17)
N1K N 0.20661(10) 0.68208(10) -0.150671(17)
C1K C 0.14626(11) 0.70548(11) -0.140572(18)
C2K C 0.05623(11) 0.69950(11) -0.105246(19)
C3K C 0.07377(11) 0.73206(11) -0.127973(18)
C4K C 0.14044(11) 0.68293(11) -0.094039(19)
H1K H 0.2099 0.6941 -0.1012
C5K C -0.04464(11) 0.68266(11) -0.094063(18)
H2K H -0.1031 0.6932 -0.1013
C6K C 0.03136(11) 0.80207(11) -0.136996(18)
N2K N -0.00171(10) 0.86215(10) -0.144388(17)
Zn1I Zn 0.3333 0.6666 -0.170284(3)
Zn1R Zn -0.3333 0.3333 -0.003617(3)
Zn1R_2 Zn 0.6667 0.3333 -0.003617(3)
Zn1R_3 Zn 0.6667 1.3333 -0.003617(3)
Zn1GA Zn 0.0001 0.0000 -0.163050(3)
Zn1GA_2 Zn 0.0001 1.0000 -0.163050(3)
Zn1GA_3 Zn 1.0001 1.0000 -0.163050(3)
N2R N 0.47118(10) 0.66838(10) 0.022279(17)
N2S N 0.33162(10) 0.80280(14) 0.022279(17)
N2T N 0.19720(14) 0.52882(10) 0.022279(17)
N2GA N 0.46947(14) 0.66495(10) -0.188946(17)
N2HA N 0.19549(10) 0.53053(14) -0.188946(17)
N2IA N 0.33505(10) 0.80451(10) -0.188946(17)
P1 P 0.0000 0.0000 0.056574(10)
C7 C 0.12273(11) 0.13447(11) 0.04628(2)
C8 C 0.23564(13) 0.18109(13) 0.05528(3)
H3 H 0.2470 0.1471 0.0679
C9 C 0.20320(13) 0.28103(12) 0.01824(2)
H4 H 0.1924 0.3152 0.0056
C10 C 0.10655(12) 0.18475(12) 0.02780(2)
H5 H 0.0294 0.1531 0.0218
C11 C 0.33151(14) 0.27810(14) 0.04558(3)
H6 H 0.4087 0.3111 0.0517
C12 C 0.31520(14) 0.32696(13) 0.02711(3)
H7 H 0.3815 0.3925 0.0205
C13 C 0.0000 0.0000 0.08518(4)
H8 H -0.0077 0.0671 0.0904
H8B H 0.0748 0.0077 0.0904
H8A H -0.0671 -0.0748 0.0904
C7A C -0.13447(11) -0.01174(16) 0.04628(2)
C8A C -0.18109(13) 0.05455(18) 0.05528(3)
H3A H -0.1471 0.0999 0.0679
C9A C -0.28103(12) -0.07783(18) 0.01824(2)
H4A H -0.3152 -0.1228 0.0056
C10A C -0.18475(12) -0.07820(17) 0.02780(2)
H5A H -0.1531 -0.1237 0.0218
C11A C -0.27810(14) 0.05341(20) 0.04558(3)
H6A H -0.3111 0.0976 0.0517
C12A C -0.32696(13) -0.01176(19) 0.02711(3)
H7A H -0.3925 -0.0110 0.0205
C7B C 0.01174(16) -0.12273(11) 0.04628(2)
C8B C -0.05455(18) -0.23564(13) 0.05528(3)
H3B H -0.0999 -0.2470 0.0679
C9B C 0.07783(18) -0.20320(13) 0.01824(2)
H4B H 0.1228 -0.1924 0.0056
C10B C 0.07820(17) -0.10655(12) 0.02780(2)
H5B H 0.1237 -0.0294 0.0218
C11B C -0.05341(20) -0.33151(14) 0.04558(3)
H6B H -0.0976 -0.4087 0.0517
C12B C 0.01176(19) -0.31520(14) 0.02711(3)
H7B H 0.0110 -0.3815 0.0205
H9? H -0.0077 0.0671 0.0904
H10? H -0.0077 0.0671 0.0904
loop_
_geom_bond_atom_site_label_1
_geom_bond_atom_site_label_2
_geom_bond_site_symmetry_1
_geom_bond_site_symmetry_2
Zn1 N1 1_555 1_555
N1 C1 1_555 1_555
C1 C3 1_555 1_555
C2 C3 1_555 1_555
C3 C6 1_555 1_555
C4 C2 1_555 1_555
H1 C4 1_555 1_555
C5 C2 1_555 1_555
H2 C5 1_555 1_555
C6 N2 1_555 1_555
N2 Zn1R_2 1_555 1_555
P1 C7 1_555 1_555
C7 C8 1_555 1_555
C8 H3 1_555 1_555
C9 H4 1_555 1_555
C10 C7 1_555 1_555
H5 C10 1_555 1_555
C11 C8 1_555 1_555
H6 C11 1_555 1_555
C12 C9 1_555 1_555
H7 C12 1_555 1_555
C13 P1 1_555 1_555
H8 C13 1_555 1_555
N1J C1J 1_555 1_555
C1J C3J 1_555 1_555
C2J C3J 1_555 1_555
C3J C6J 1_555 1_555
C4J C4 1_555 1_555
H1J C4J 1_555 1_555
C5J C5 1_555 1_555
H2J C5J 1_555 1_555
C6J N2J 1_555 1_555
N2J Zn1GA 1_555 1_555
N1A Zn1 1_555 1_555
C1A N1A 1_555 1_555
C2A C3A 1_555 1_555
C3A C1A 1_555 1_555
C4A C2A 1_555 1_555
H1A C4A 1_555 1_555
C5A C2A 1_555 1_555
H2A C5A 1_555 1_555
C6A C3A 1_555 1_555
N2A C6A 1_555 1_555
N1I C1I 1_555 1_555
C1I C3I 1_555 1_555
C2I C3I 1_555 1_555
C3I C6I 1_555 1_555
C4I C4A 1_555 1_555
H1I C4I 1_555 1_555
C5I C5A 1_555 1_555
H2I C5I 1_555 1_555
C6I N2I 1_555 1_555
N2I Zn1GA_3 1_555 1_555
N1B Zn1 1_555 1_555
C1B N1B 1_555 1_555
C2B C3B 1_555 1_555
C3B C1B 1_555 1_555
C4B C2B 1_555 1_555
H1B C4B 1_555 1_555
C5B C2B 1_555 1_555
H2B C5B 1_555 1_555
C6B C3B 1_555 1_555
N2B C6B 1_555 1_555
N1K C1K 1_555 1_555
C1K C3K 1_555 1_555
C2K C3K 1_555 1_555
C3K C6K 1_555 1_555
C4K C4B 1_555 1_555
H1K C4K 1_555 1_555
C5K C5B 1_555 1_555
H2K C5K 1_555 1_555
C6K N2K 1_555 1_555
N2K Zn1GA_2 1_555 1_555
Zn1I N1J 1_555 1_555
Zn1R N2B 1_555 1_555
Zn1R_3 N2A 1_555 1_555
N2R Zn1 1_555 1_555
N2S Zn1 1_555 1_555
N2T Zn1 1_555 1_555
N2GA Zn1I 1_555 1_555
N2HA Zn1I 1_555 1_555
N2IA Zn1I 1_555 1_555
H8B C13 1_555 1_555
H8A C13 1_555 1_555
C7A P1 1_555 1_555
C8A C7A 1_555 1_555
H3A C8A 1_555 1_555
C9A H4A 1_555 1_555
C10A C7A 1_555 1_555
H5A C10A 1_555 1_555
C11A C8A 1_555 1_555
H6A C11A 1_555 1_555
C12A C9A 1_555 1_555
H7A C12A 1_555 1_555
C7B P1 1_555 1_555
C8B C7B 1_555 1_555
H3B C8B 1_555 1_555
C9B H4B 1_555 1_555
C10B C7B 1_555 1_555
H5B C10B 1_555 1_555
C11B C8B 1_555 1_555
H6B C11B 1_555 1_555
C12B C9B 1_555 1_555
H7B C12B 1_555 1_555
C9 C10 1_555 1_555
C11 C12 1_555 1_555
C2J C4J 1_555 1_555
C2J C5J 1_555 1_555
N1I Zn1I 1_555 1_555
C2I C4I 1_555 1_555
C2I C5I 1_555 1_555
N1K Zn1I 1_555 1_555
C2K C4K 1_555 1_555
C2K C5K 1_555 1_555
C9A C10A 1_555 1_555
C11A C12A 1_555 1_555
C9B C10B 1_555 1_555
C11B C12B 1_555 1_555

#END
