
#######################################################################
#
#                 Cambridge Crystallographic Data Centre
#                                CCDC 
#
#######################################################################
#
# If this CIF has been generated from an entry in the Cambridge 
# Structural Database, then it will include bibliographic, chemical, 
# crystal, experimental, refinement or atomic coordinate data resulting 
# from the CCDC's data processing and validation procedures.
#
#######################################################################

data_TONWUO
_symmetry_cell_setting           monoclinic
_symmetry_space_group_name_H-M   'C 2/c'
_symmetry_Int_Tables_number      15
_space_group_name_Hall           '-C 2yn'
loop_
_symmetry_equiv_pos_site_id
_symmetry_equiv_pos_as_xyz
1 x,y,z
2 -x,y,1/2-z
3 1/2+x,1/2+y,z
4 1/2-x,1/2+y,1/2-z
5 -x,-y,-z
6 x,-y,1/2+z
7 1/2-x,1/2-y,-z
8 1/2+x,1/2-y,1/2+z
_cell_length_a                   24.970(1)
_cell_length_b                   19.252(1)
_cell_length_c                   15.913(1)
_cell_angle_alpha                90
_cell_angle_beta                 129.46(1)
_cell_angle_gamma                90
_cell_volume                     5906.12
loop_
_atom_site_label
_atom_site_type_symbol
_atom_site_fract_x
_atom_site_fract_y
_atom_site_fract_z
N1 N 0.4541(1) 0.0634(1) 0.2606(1)
N2 N 0.0459(1) -0.0637(1) -0.1465(1)
O1 O 0.3457(1) -0.0095(1) 0.4165(1)
O2 O 0.2941(1) 0.0647(1) 0.2818(1)
C1 C 0.3449(1) 0.0293(1) 0.3528(1)
C2 C 0.4104(1) 0.0286(1) 0.3644(1)
C3 C 0.3935(1) 0.0662(1) 0.2650(1)
C4 C 0.4699(1) -0.0103(1) 0.2503(1)
C5 C 0.4298(1) 0.1023(1) 0.1612(1)
C6 C 0.5181(1) 0.0948(1) 0.3573(1)
O3 O 0.1531(1) 0.0109(1) 0.2249(1)
O4 O 0.2051(1) -0.0633(1) 0.1931(1)
C7 C 0.1551(1) -0.0273(1) 0.1634(1)
C8 C 0.0912(1) -0.0288(1) 0.0449(1)
C9 C 0.1055(1) -0.0653(1) -0.0231(1)
C10 C 0.0307(1) 0.0092(1) -0.1904(1)
C11 C 0.0703(1) -0.1026(1) -0.1969(1)
C12 C -0.0187(1) -0.0963(1) -0.1788(1)
O5 O 0.2395(1) 0.0962(1) 0.4189(1)
O6 O 0.3147(1) 0.0459(1) 0.5762(1)
C13 C 0.2766(1) 0.0958(1) 0.5186(1)
C14 C 0.2790(1) 0.1586(1) 0.5774(1)
C15 C 0.3159(1) 0.1454(1) 0.6965(1)
N3 N 0.3127(1) 0.2034(1) 0.7552(1)
C16 C 0.2402(1) 0.2206(1) 0.7098(1)
C17 C 0.2396(1) 0.2807(1) 0.7722(1)
C18 C 0.3452(1) 0.2671(1) 0.7556(1)
C19 C 0.3524(1) 0.3197(1) 0.8348(1)
C20 C 0.3528(1) 0.1790(1) 0.8712(1)
C21 C 0.3453(1) 0.2294(1) 0.9354(1)
N4 N 0.3140(1) 0.2970(1) 0.8720(1)
C22 C 0.3170(1) 0.3559(1) 0.9382(1)
C23 C 0.2796(1) 0.3402(1) 0.9826(1)
C24 C 0.2790(1) 0.4046(1) 1.0374(1)
O7 O 0.2406(1) 0.4040(1) 1.0629(1)
O8 O 0.3140(1) 0.4550(1) 1.0527(1)
Zn1 Zn 0.2489(1) 0.0004(1) 0.3739(1)
H1 H 0.4468 0.0530 0.4294
H2 H 0.4251 -0.0181 0.3676
H3 H 0.3529 0.0452 0.2006
H4 H 0.3844 0.1142 0.2677
H5 H 0.4295 -0.0307 0.1848
H6 H 0.4821 -0.0373 0.3109
H7 H 0.4248 0.1503 0.1714
H8 H 0.3856 0.0851 0.0988
H9 H 0.5373 0.0676 0.4213
H10 H 0.5063 0.1397 0.3675
H11 H 0.0764 0.0178 0.0181
H12 H 0.0548 -0.0532 0.0373
H13 H 0.1453 -0.0435 -0.0081
H14 H 0.1161 -0.1129 0.0001
H15 H 0.0711 0.0287 -0.1763
H16 H 0.0195 0.0366 -0.1531
H17 H 0.0763 -0.1505 -0.1759
H18 H 0.1145 -0.0844 -0.1699
H19 H -0.0378 -0.0686 -0.1533
H20 H -0.0079 -0.1415 -0.1460
H21 H 0.3029 0.1951 0.5719
H22 H 0.2324 0.1732 0.5430
H23 H 0.3636 0.1356 0.7314
H24 H 0.2949 0.1051 0.7006
H25 H 0.2153 0.2357 0.6360
H26 H 0.2180 0.1803 0.7107
H27 H 0.2145 0.2659 0.7961
H28 H 0.2180 0.3214 0.7276
H29 H 0.3899 0.2569 0.7767
H30 H 0.3158 0.2864 0.6836
H31 H 0.3356 0.3643 0.8005
H32 H 0.4005 0.3234 0.8979
H33 H 0.3356 0.1344 0.8715
H34 H 0.4010 0.1752 0.9050
H35 H 0.3899 0.2402 1.0033
H36 H 0.3162 0.2097 0.9493
H37 H 0.3649 0.3653 0.9980
H38 H 0.2961 0.3964 0.8927
H39 H 0.2329 0.3261 0.9241
H40 H 0.3035 0.3033 1.0348
C4A C 0.5301(1) -0.0103(1) 0.2497(1)
N1A N 0.5459(1) 0.0634(1) 0.2394(1)
C3A C 0.6065(1) 0.0662(1) 0.2350(1)
C2A C 0.5896(1) 0.0286(1) 0.1356(1)
C1A C 0.6551(1) 0.0293(1) 0.1472(1)
O1A O 0.6543(1) -0.0095(1) 0.0835(1)
O2A O 0.7059(1) 0.0647(1) 0.2182(1)
H1A H 0.5532 0.0530 0.0706
H2A H 0.5749 -0.0181 0.1324
H3A H 0.6471 0.0452 0.2994
H4A H 0.6156 0.1142 0.2323
C5A C 0.5702(1) 0.1023(1) 0.3388(1)
C6A C 0.4819(1) 0.0948(1) 0.1427(1)
H9A H 0.4627 0.0676 0.0787
H10A H 0.4937 0.1397 0.1325
H7A H 0.5752 0.1503 0.3286
H8A H 0.6144 0.0851 0.4012
H5A H 0.5705 -0.0307 0.3152
H6A H 0.5179 -0.0373 0.1891
C10A C -0.0307(1) 0.0092(1) -0.3096(1)
N2A N -0.0459(1) -0.0637(1) -0.3535(1)
C9A C -0.1055(1) -0.0653(1) -0.4769(1)
C8A C -0.0912(1) -0.0288(1) -0.5449(1)
C7A C -0.1551(1) -0.0273(1) -0.6634(1)
O3A O -0.1531(1) 0.0109(1) -0.7249(1)
O4A O -0.2051(1) -0.0633(1) -0.6931(1)
H11A H -0.0764 0.0178 -0.5181
H12A H -0.0548 -0.0532 -0.5373
H13A H -0.1453 -0.0435 -0.4919
H14A H -0.1161 -0.1129 -0.5001
C11A C -0.0703(1) -0.1026(1) -0.3031(1)
C12A C 0.0187(1) -0.0963(1) -0.3212(1)
H19A H 0.0378 -0.0686 -0.3467
H20A H 0.0079 -0.1415 -0.3540
H17A H -0.0763 -0.1505 -0.3241
H18A H -0.1145 -0.0844 -0.3301
H15A H -0.0711 0.0287 -0.3237
H16A H -0.0195 0.0366 -0.3469
O7C O 0.2594(1) -0.0960(1) 0.4371(1)
Zn1A Zn 0.7511(1) 0.0004(1) 0.1261(1)
Zn1A_2 Zn -0.2489(1) 0.0004(1) -0.8739(1)
Zn1C Zn 0.2511(1) 0.5004(1) 1.1261(1)
N2A_2 N 0.9541(1) -0.0637(1) 0.6465(1)
O3A_2 O 0.8469(1) 0.0109(1) 0.2751(1)
O4A_2 O 0.7949(1) -0.0633(1) 0.3069(1)
C7A_2 C 0.8449(1) -0.0273(1) 0.3366(1)
C8A_2 C 0.9088(1) -0.0288(1) 0.4551(1)
C9A_2 C 0.8945(1) -0.0653(1) 0.5231(1)
C10A_2 C 0.9693(1) 0.0092(1) 0.6904(1)
C11A_2 C 0.9297(1) -0.1026(1) 0.6969(1)
C12A_2 C 1.0187(1) -0.0963(1) 0.6788(1)
H11A_2 H 0.9236 0.0178 0.4819
H12A_2 H 0.9452 -0.0532 0.4627
H13A_2 H 0.8547 -0.0435 0.5081
H14A_2 H 0.8839 -0.1129 0.4999
H15A_2 H 0.9289 0.0287 0.6763
H16A_2 H 0.9805 0.0366 0.6531
H17A_2 H 0.9237 -0.1505 0.6759
H18A_2 H 0.8855 -0.0844 0.6699
H19A_2 H 1.0378 -0.0686 0.6533
H20A_2 H 1.0079 -0.1415 0.6460
C10_2 C 1.0307(1) 0.0092(1) 0.8096(1)
N2_2 N 1.0459(1) -0.0637(1) 0.8535(1)
C9_2 C 1.1055(1) -0.0653(1) 0.9769(1)
C8_2 C 1.0912(1) -0.0288(1) 1.0449(1)
C7_2 C 1.1551(1) -0.0273(1) 1.1634(1)
O3_2 O 1.1531(1) 0.0109(1) 1.2249(1)
O4_2 O 1.2051(1) -0.0633(1) 1.1931(1)
H11_2 H 1.0764 0.0178 1.0181
H12_2 H 1.0548 -0.0532 1.0373
H13_2 H 1.1453 -0.0435 0.9919
H14_2 H 1.1161 -0.1129 1.0001
C11_2 C 1.0703(1) -0.1026(1) 0.8031(1)
C12_2 C 0.9813(1) -0.0963(1) 0.8212(1)
H19_2 H 0.9622 -0.0686 0.8467
H20_2 H 0.9921 -0.1415 0.8540
H17_2 H 1.0763 -0.1505 0.8241
H18_2 H 1.1145 -0.0844 0.8301
H15_2 H 1.0711 0.0287 0.8237
H16_2 H 1.0195 0.0366 0.8469
O5A O 0.7605(1) 0.0962(1) 0.0811(1)
O7B O 0.7406(1) -0.0960(1) 0.0629(1)
Zn1_2 Zn 1.2489(1) 0.0004(1) 1.3739(1)
Cl1 Cl 0.4408(1) 0.1942(1) 0.5675(1)
O9 O 0.4149(1) 0.1762(1) 0.4613(1)
O10 O 0.4344(1) 0.1386(1) 0.6174(1)
O11 O 0.3958(1) 0.2488(1) 0.5526(1)
O12 O 0.5065(1) 0.2246(1) 0.6294(1)
Cl2 Cl 0.0563(1) 0.1908(1) 0.6805(1)
O17 O 0.0709(1) 0.1635(1) 0.7759(1)
O18 O 0.0219(1) 0.2543(1) 0.6485(1)
O19 O 0.1157(1) 0.1872(1) 0.6893(1)
O20 O 0.0056(1) 0.1434(1) 0.5947(1)
O13? O 0.4909(1) 0.1447(1) 0.5872(1)
O14? O 0.4733(1) 0.2590(1) 0.5941(1)
O15? O 0.3812(1) 0.1889(1) 0.4580(1)
O16? O 0.4251(1) 0.1771(1) 0.6359(1)
O21? O 0.1007(1) 0.2438(1) 0.7585(1)
O22? O 0.0834(1) 0.1736(1) 0.6272(1)
O23? O -0.0112(1) 0.2162(1) 0.6101(1)
O24? O 0.0632(1) 0.1321(1) 0.7396(1)
loop_
_geom_bond_atom_site_label_1
_geom_bond_atom_site_label_2
_geom_bond_site_symmetry_1
_geom_bond_site_symmetry_2
N1 C3 1_555 1_555
N2 C9 1_555 1_555
O1 C1 1_555 1_555
O2 C1 1_555 1_555
C1 C2 1_555 1_555
C2 C3 1_555 1_555
C3 H3 1_555 1_555
C4 N1 1_555 1_555
C5 N1 1_555 1_555
C6 N1 1_555 1_555
O3 C7 1_555 1_555
O4 C7 1_555 1_555
C7 C8 1_555 1_555
C8 C9 1_555 1_555
C9 H13 1_555 1_555
C10 N2 1_555 1_555
C11 N2 1_555 1_555
C12 N2 1_555 1_555
O5 C13 1_555 1_555
O6 C13 1_555 1_555
C13 C14 1_555 1_555
C14 C15 1_555 1_555
C15 N3 1_555 1_555
N3 C16 1_555 1_555
C16 C17 1_555 1_555
C17 N4 1_555 1_555
C18 N3 1_555 1_555
C19 C18 1_555 1_555
C20 N3 1_555 1_555
C21 C20 1_555 1_555
N4 C19 1_555 1_555
C22 N4 1_555 1_555
C23 C22 1_555 1_555
C24 C23 1_555 1_555
O7 C24 1_555 1_555
O8 C24 1_555 1_555
Cl1 O9 1_555 1_555
O10 Cl1 1_555 1_555
O11 Cl1 1_555 1_555
O12 Cl1 1_555 1_555
Cl2 O17 1_555 1_555
O18 Cl2 1_555 1_555
O19 Cl2 1_555 1_555
O20 Cl2 1_555 1_555
Zn1 O1 1_555 1_555
H1 C2 1_555 1_555
H2 C2 1_555 1_555
H4 C3 1_555 1_555
H5 C4 1_555 1_555
H6 C4 1_555 1_555
H7 C5 1_555 1_555
H8 C5 1_555 1_555
H9 C6 1_555 1_555
H10 C6 1_555 1_555
H11 C8 1_555 1_555
H12 C8 1_555 1_555
H14 C9 1_555 1_555
H15 C10 1_555 1_555
H16 C10 1_555 1_555
H17 C11 1_555 1_555
H18 C11 1_555 1_555
H19 C12 1_555 1_555
H20 C12 1_555 1_555
H21 C14 1_555 1_555
H22 C14 1_555 1_555
H23 C15 1_555 1_555
H24 C15 1_555 1_555
H25 C16 1_555 1_555
H26 C16 1_555 1_555
H27 C17 1_555 1_555
H28 C17 1_555 1_555
H29 C18 1_555 1_555
H30 C18 1_555 1_555
H31 C19 1_555 1_555
H32 C19 1_555 1_555
H33 C20 1_555 1_555
H34 C20 1_555 1_555
H35 C21 1_555 1_555
H36 C21 1_555 1_555
H37 C22 1_555 1_555
H38 C22 1_555 1_555
H39 C23 1_555 1_555
H40 C23 1_555 1_555
C4A C4 1_555 1_555
N1A C4A 1_555 1_555
C3A N1A 1_555 1_555
C2A C3A 1_555 1_555
C1A C2A 1_555 1_555
O1A C1A 1_555 1_555
O2A C1A 1_555 1_555
H1A C2A 1_555 1_555
H2A C2A 1_555 1_555
H3A C3A 1_555 1_555
H4A C3A 1_555 1_555
C5A C6 1_555 1_555
C6A C5 1_555 1_555
H9A C6A 1_555 1_555
H10A C6A 1_555 1_555
H7A C5A 1_555 1_555
H8A C5A 1_555 1_555
H5A C4A 1_555 1_555
H6A C4A 1_555 1_555
C10A C10 1_555 1_555
N2A C10A 1_555 1_555
C9A N2A 1_555 1_555
C8A C9A 1_555 1_555
C7A C8A 1_555 1_555
O3A C7A 1_555 1_555
O4A C7A 1_555 1_555
H11A C8A 1_555 1_555
H12A C8A 1_555 1_555
H13A C9A 1_555 1_555
H14A C9A 1_555 1_555
C11A C12 1_555 1_555
C12A C11 1_555 1_555
H19A C12A 1_555 1_555
H20A C12A 1_555 1_555
H17A C11A 1_555 1_555
H18A C11A 1_555 1_555
H15A C10A 1_555 1_555
H16A C10A 1_555 1_555
O7C Zn1 1_555 1_555
Zn1A O1A 1_555 1_555
Zn1A_2 O3A 1_555 1_555
Zn1C O7 1_555 1_555
N2A_2 C9A_2 1_555 1_555
O3A_2 Zn1A 1_555 1_555
O4A_2 C7A_2 1_555 1_555
C7A_2 O3A_2 1_555 1_555
C8A_2 C7A_2 1_555 1_555
C9A_2 C8A_2 1_555 1_555
C10A_2 N2A_2 1_555 1_555
C11A_2 N2A_2 1_555 1_555
C12A_2 N2A_2 1_555 1_555
H11A_2 C8A_2 1_555 1_555
H12A_2 C8A_2 1_555 1_555
H13A_2 C9A_2 1_555 1_555
H14A_2 C9A_2 1_555 1_555
H15A_2 C10A_2 1_555 1_555
H16A_2 C10A_2 1_555 1_555
H17A_2 C11A_2 1_555 1_555
H18A_2 C11A_2 1_555 1_555
H19A_2 C12A_2 1_555 1_555
H20A_2 C12A_2 1_555 1_555
C10_2 C10A_2 1_555 1_555
N2_2 C10_2 1_555 1_555
C9_2 N2_2 1_555 1_555
C8_2 C9_2 1_555 1_555
C7_2 C8_2 1_555 1_555
O3_2 C7_2 1_555 1_555
O4_2 C7_2 1_555 1_555
H11_2 C8_2 1_555 1_555
H12_2 C8_2 1_555 1_555
H13_2 C9_2 1_555 1_555
H14_2 C9_2 1_555 1_555
C11_2 C12A_2 1_555 1_555
C12_2 C11A_2 1_555 1_555
H19_2 C12_2 1_555 1_555
H20_2 C12_2 1_555 1_555
H17_2 C11_2 1_555 1_555
H18_2 C11_2 1_555 1_555
H15_2 C10_2 1_555 1_555
H16_2 C10_2 1_555 1_555
O5A Zn1A 1_555 1_555
O7B Zn1A 1_555 1_555
Zn1_2 O3_2 1_555 1_555
O3 Zn1 1_555 1_555
O5 Zn1 1_555 1_555
C21 N4 1_555 1_555
N1A C5A 1_555 1_555
N1A C6A 1_555 1_555
N2A C11A 1_555 1_555
N2A C12A 1_555 1_555
N2_2 C12_2 1_555 1_555
N2_2 C11_2 1_555 1_555

#END
