
#######################################################################
#
#                 Cambridge Crystallographic Data Centre
#                                CCDC 
#
#######################################################################
#
# If this CIF has been generated from an entry in the Cambridge 
# Structural Database, then it will include bibliographic, chemical, 
# crystal, experimental, refinement or atomic coordinate data resulting 
# from the CCDC's data processing and validation procedures.
#
#######################################################################

data_TOPDUY
_symmetry_cell_setting           triclinic
_symmetry_space_group_name_H-M   'P -1'
_symmetry_Int_Tables_number      2
_space_group_name_Hall           '-P 1'
loop_
_symmetry_equiv_pos_site_id
_symmetry_equiv_pos_as_xyz
1 x,y,z
2 -x,-y,-z
_cell_length_a                   11.221(5)
_cell_length_b                   11.658(5)
_cell_length_c                   14.044(5)
_cell_angle_alpha                74.222(5)
_cell_angle_beta                 77.714(5)
_cell_angle_gamma                70.916(5)
_cell_volume                     1655.2
loop_
_atom_site_label
_atom_site_type_symbol
_atom_site_fract_x
_atom_site_fract_y
_atom_site_fract_z
Sb1 Sb 0.17073(2) 0.59040(2) 0.37774(2)
Sb2 Sb -0.00962(2) 0.63899(2) 0.61897(2)
Co1 Co 0.27561(5) 0.29484(5) 0.46161(4)
P1 P -0.12061(10) 0.66626(9) 0.31589(8)
P2 P 0.25976(10) 0.39759(9) 0.23596(8)
C1 C 0.2496(4) 0.7405(4) 0.3132(3)
C2 C 0.2735(5) 0.8051(4) 0.3741(3)
H1 H 0.2539 0.7815 0.4446
C3 C 0.3251(5) 0.9027(5) 0.3330(4)
H2 H 0.3409 0.9465 0.3747
C4 C 0.3534(4) 0.9361(4) 0.2315(4)
C5 C 0.3273(5) 0.8768(4) 0.1695(4)
H3 H 0.3457 0.9018 0.0990
C6 C 0.2741(5) 0.7803(4) 0.2113(4)
H4 H 0.2539 0.7404 0.1688
C7 C 0.0746(4) 0.7341(4) 0.6812(3)
C8 C 0.0001(4) 0.8379(4) 0.7186(3)
H5 H -0.0889 0.8662 0.7155
C9 C 0.0545(5) 0.9007(4) 0.7603(4)
H6 H 0.0042 0.9729 0.7842
C10 C 0.1829(5) 0.8561(4) 0.7662(3)
C11 C 0.2588(5) 0.7539(4) 0.7278(4)
H7 H 0.3476 0.7256 0.7314
C12 C 0.2048(4) 0.6936(4) 0.6845(4)
H8 H 0.2566 0.6246 0.6570
C13 C 0.3259(4) 0.3958(4) 0.1091(3)
C14 C 0.4562(4) 0.3460(4) 0.0844(4)
H9 H 0.5092 0.3090 0.1357
C15 C 0.5086(5) 0.3500(5) -0.0142(4)
H10 H 0.5976 0.3153 -0.0305
C16 C 0.4329(6) 0.4040(5) -0.0891(4)
H11 H 0.4698 0.4072 -0.1569
C17 C 0.3040(6) 0.4532(5) -0.0659(4)
H12 H 0.2519 0.4898 -0.1176
C18 C 0.2495(5) 0.4495(4) 0.0334(4)
H13 H 0.1603 0.4837 0.0494
C19 C -0.0462(5) 0.7259(5) 0.1148(4)
H14 H 0.0377 0.6872 0.1316
C20 C -0.0646(5) 0.7701(6) 0.0157(4)
H15 H 0.0064 0.7616 -0.0353
C21 C -0.1855(5) 0.8262(5) -0.0091(4)
H16 H -0.1978 0.8567 -0.0773
C22 C -0.2878(5) 0.8382(5) 0.0639(4)
H17 H -0.3711 0.8778 0.0463
C23 C -0.2707(4) 0.7931(4) 0.1635(3)
H18 H -0.3425 0.8002 0.2139
C24 C -0.1490(4) 0.7375(4) 0.1902(3)
C25 C 0.4195(4) 0.0432(4) 0.5751(3)
H19 H 0.3634 0.0708 0.6306
C26 C 0.4976(4) -0.0783(4) 0.5883(3)
H20 H 0.4931 -0.1319 0.6526
C27 C -0.1081(4) 0.8905(4) 0.4885(3)
H21 H -0.0820 0.8680 0.4233
H22 H -0.1800 0.9662 0.4841
H23 H -0.0368 0.9053 0.5084
C28 C 0.4517(4) 0.4696(4) 0.3921(4)
H24 H 0.4660 0.4624 0.3224
H25 H 0.5140 0.4014 0.4292
H26 H 0.4610 0.5493 0.3947
Cl1 Cl 0.41977(12) 1.05840(11) 0.18018(10)
Cl2 Cl 0.25229(13) 0.92994(12) 0.82201(11)
N1 N 0.4212(3) 0.1221(3) 0.4865(3)
O1 O 0.1082(2) 0.4423(2) 0.4282(2)
O2 O -0.1453(3) 0.7916(2) 0.5609(2)
O3 O 0.3253(3) 0.4633(3) 0.4360(2)
O4 O -0.2293(3) 0.7235(3) 0.3877(2)
O5 O 0.1089(3) 0.6496(3) 0.4992(2)
O6 O 0.1302(3) 0.3722(3) 0.2493(2)
O7 O 0.2354(3) 0.5337(2) 0.2448(2)
O8 O 0.0058(3) 0.6865(2) 0.3232(2)
O9 O -0.1034(3) 0.5279(3) 0.3236(2)
O10 O 0.3456(3) 0.3069(3) 0.3079(2)
Sb1A Sb -0.17073(2) 0.40960(2) 0.62226(2)
Sb2A Sb 0.00962(2) 0.36101(2) 0.38103(2)
Co1A Co -0.27561(5) 0.70516(5) 0.53839(4)
Co1A_2 Co 0.72439(5) -0.29484(5) 0.53839(4)
P1A P 0.12061(10) 0.33374(9) 0.68411(8)
P2A P -0.25976(10) 0.60241(9) 0.76404(8)
C1A C -0.2496(4) 0.2595(4) 0.6868(3)
C2A C -0.2735(5) 0.1949(4) 0.6259(3)
H1A H -0.2539 0.2185 0.5554
C3A C -0.3251(5) 0.0973(5) 0.6670(4)
H2A H -0.3409 0.0535 0.6253
C4A C -0.3534(4) 0.0639(4) 0.7685(4)
C5A C -0.3273(5) 0.1232(4) 0.8305(4)
H3A H -0.3457 0.0982 0.9010
C6A C -0.2741(5) 0.2197(4) 0.7887(4)
H4A H -0.2539 0.2596 0.8312
C7A C -0.0746(4) 0.2659(4) 0.3188(3)
C8A C -0.0001(4) 0.1621(4) 0.2814(3)
H5A H 0.0889 0.1338 0.2845
C9A C -0.0545(5) 0.0993(4) 0.2397(4)
H6A H -0.0042 0.0271 0.2158
C10A C -0.1829(5) 0.1439(4) 0.2338(3)
C11A C -0.2588(5) 0.2461(4) 0.2722(4)
H7A H -0.3476 0.2744 0.2686
C12A C -0.2048(4) 0.3064(4) 0.3155(4)
H8A H -0.2566 0.3754 0.3430
C13A C -0.3259(4) 0.6042(4) 0.8909(3)
C14A C -0.4562(4) 0.6540(4) 0.9156(4)
H9A H -0.5092 0.6910 0.8643
C15A C -0.5086(5) 0.6500(5) 1.0142(4)
H10A H -0.5976 0.6847 1.0305
C16A C -0.4329(6) 0.5960(5) 1.0891(4)
H11A H -0.4698 0.5928 1.1569
C17A C -0.3040(6) 0.5468(5) 1.0659(4)
H12A H -0.2519 0.5102 1.1176
C18A C -0.2495(5) 0.5505(4) 0.9666(4)
H13A H -0.1603 0.5163 0.9506
C19A C 0.0462(5) 0.2741(5) 0.8852(4)
H14A H -0.0377 0.3128 0.8684
C20A C 0.0646(5) 0.2299(6) 0.9843(4)
H15A H -0.0064 0.2384 1.0353
C21A C 0.1855(5) 0.1738(5) 1.0091(4)
H16A H 0.1978 0.1433 1.0773
C22A C 0.2878(5) 0.1618(5) 0.9361(4)
H17A H 0.3711 0.1222 0.9537
C23A C 0.2707(4) 0.2069(4) 0.8365(3)
H18A H 0.3425 0.1998 0.7861
C24A C 0.1490(4) 0.2625(4) 0.8098(3)
C25A C 0.5805(4) -0.0432(4) 0.4249(3)
H19A H 0.6366 -0.0708 0.3694
C26A C 0.5024(4) 0.0783(4) 0.4117(3)
H20A H 0.5069 0.1319 0.3474
C27A C 0.1081(4) 0.1095(4) 0.5115(3)
H21A H 0.0820 0.1320 0.5767
H22A H 0.1800 0.0338 0.5159
H23A H 0.0368 0.0947 0.4916
C28A C -0.4517(4) 0.5304(4) 0.6079(4)
H24A H -0.4660 0.5376 0.6776
H25A H -0.5140 0.5986 0.5708
H26A H -0.4610 0.4507 0.6053
Cl1A Cl -0.41977(12) -0.05840(11) 0.81982(10)
Cl2A Cl -0.25229(13) 0.07006(12) 0.17799(11)
N1A N 0.5788(3) -0.1221(3) 0.5135(3)
N1A_2 N -0.4212(3) 0.8779(3) 0.5135(3)
O1A O -0.1082(2) 0.5577(2) 0.5718(2)
O2A O 0.1453(3) 0.2084(2) 0.4391(2)
O3A O -0.3253(3) 0.5367(3) 0.5640(2)
O4A O 0.2293(3) 0.2765(3) 0.6123(2)
O5A O -0.1089(3) 0.3504(3) 0.5008(2)
O6A O -0.1302(3) 0.6278(3) 0.7507(2)
O7A O -0.2354(3) 0.4663(2) 0.7552(2)
O8A O -0.0058(3) 0.3135(2) 0.6768(2)
O9A O 0.1034(3) 0.4721(3) 0.6764(2)
O10A O -0.3456(3) 0.6931(3) 0.6921(2)
loop_
_geom_bond_atom_site_label_1
_geom_bond_atom_site_label_2
_geom_bond_site_symmetry_1
_geom_bond_site_symmetry_2
Sb1 C1 1_555 1_555
Sb2 C7 1_555 1_555
Co1 N1 1_555 1_555
P1 C24 1_555 1_555
P2 C13 1_555 1_555
C1 C2 1_555 1_555
C2 H1 1_555 1_555
C3 C2 1_555 1_555
H2 C3 1_555 1_555
C4 C3 1_555 1_555
C5 C4 1_555 1_555
H3 C5 1_555 1_555
C6 C1 1_555 1_555
H4 C6 1_555 1_555
C7 C8 1_555 1_555
C8 H5 1_555 1_555
C9 C8 1_555 1_555
H6 C9 1_555 1_555
C10 C9 1_555 1_555
C11 C10 1_555 1_555
H7 C11 1_555 1_555
C12 C7 1_555 1_555
H8 C12 1_555 1_555
C13 C14 1_555 1_555
C14 H9 1_555 1_555
C15 C14 1_555 1_555
H10 C15 1_555 1_555
C16 C15 1_555 1_555
H11 C16 1_555 1_555
C17 C16 1_555 1_555
H12 C17 1_555 1_555
C18 C13 1_555 1_555
H13 C18 1_555 1_555
C19 H14 1_555 1_555
C20 C19 1_555 1_555
H15 C20 1_555 1_555
C21 C20 1_555 1_555
H16 C21 1_555 1_555
C22 C21 1_555 1_555
H17 C22 1_555 1_555
C23 C22 1_555 1_555
H18 C23 1_555 1_555
C24 C19 1_555 1_555
C25 H19 1_555 1_555
C26 C25 1_555 1_555
H20 C26 1_555 1_555
C27 H21 1_555 1_555
H22 C27 1_555 1_555
H23 C27 1_555 1_555
C28 H24 1_555 1_555
H25 C28 1_555 1_555
H26 C28 1_555 1_555
Cl1 C4 1_555 1_555
Cl2 C10 1_555 1_555
N1 C25 1_555 1_555
O1 Sb1 1_555 1_555
O2 Sb2 1_555 1_555
O3 Sb1 1_555 1_555
O4 P1 1_555 1_555
O5 Sb1 1_555 1_555
O6 P2 1_555 1_555
O7 Sb1 1_555 1_555
O8 Sb1 1_555 1_555
O9 P1 1_555 1_555
O10 Co1 1_555 1_555
Sb1A C1A 1_555 1_555
Sb2A O1 1_555 1_555
Co1A O2 1_555 1_555
Co1A_2 N1A 1_555 1_555
P1A C24A 1_555 1_555
P2A C13A 1_555 1_555
C1A C2A 1_555 1_555
C2A H1A 1_555 1_555
C3A C2A 1_555 1_555
H2A C3A 1_555 1_555
C4A C3A 1_555 1_555
C5A C4A 1_555 1_555
H3A C5A 1_555 1_555
C6A C1A 1_555 1_555
H4A C6A 1_555 1_555
C7A Sb2A 1_555 1_555
C8A C7A 1_555 1_555
H5A C8A 1_555 1_555
C9A C8A 1_555 1_555
H6A C9A 1_555 1_555
C10A C9A 1_555 1_555
C11A C10A 1_555 1_555
H7A C11A 1_555 1_555
C12A C7A 1_555 1_555
H8A C12A 1_555 1_555
C13A C14A 1_555 1_555
C14A H9A 1_555 1_555
C15A C14A 1_555 1_555
H10A C15A 1_555 1_555
C16A C15A 1_555 1_555
H11A C16A 1_555 1_555
C17A C16A 1_555 1_555
H12A C17A 1_555 1_555
C18A C13A 1_555 1_555
H13A C18A 1_555 1_555
C19A H14A 1_555 1_555
C20A C19A 1_555 1_555
H15A C20A 1_555 1_555
C21A C20A 1_555 1_555
H16A C21A 1_555 1_555
C22A C21A 1_555 1_555
H17A C22A 1_555 1_555
C23A C22A 1_555 1_555
H18A C23A 1_555 1_555
C24A C19A 1_555 1_555
C25A H19A 1_555 1_555
C26A N1 1_555 1_555
H20A C26A 1_555 1_555
C27A H21A 1_555 1_555
H22A C27A 1_555 1_555
H23A C27A 1_555 1_555
C28A H24A 1_555 1_555
H25A C28A 1_555 1_555
H26A C28A 1_555 1_555
Cl1A C4A 1_555 1_555
Cl2A C10A 1_555 1_555
N1A C26 1_555 1_555
N1A_2 Co1A 1_555 1_555
O1A Sb2 1_555 1_555
O2A Co1 1_555 1_555
O3A Sb1A 1_555 1_555
O4A Co1 1_555 1_555
O5A Sb1A 1_555 1_555
O6A Sb2 1_555 1_555
O7A Sb1A 1_555 1_555
O8A Sb1A 1_555 1_555
O9A Sb2 1_555 1_555
O10A Co1A 1_555 1_555
Sb2 O5 1_555 1_555
Co1 O1 1_555 1_555
Co1 O3 1_555 1_555
P1 O8 1_555 1_555
P2 O7 1_555 1_555
P2 O10 1_555 1_555
C5 C6 1_555 1_555
C11 C12 1_555 1_555
C17 C18 1_555 1_555
C23 C24 1_555 1_555
C27 O2 1_555 1_555
C28 O3 1_555 1_555
O4 Co1A 1_555 1_555
O6 Sb2A 1_555 1_555
O9 Sb2A 1_555 1_555
Sb1A O1A 1_555 1_555
Sb2A O2A 1_555 1_555
Sb2A O5A 1_555 1_555
Co1A O1A 1_555 1_555
Co1A O3A 1_555 1_555
P1A O4A 1_555 1_555
P1A O8A 1_555 1_555
P1A O9A 1_555 1_555
P2A O6A 1_555 1_555
P2A O7A 1_555 1_555
P2A O10A 1_555 1_555
C5A C6A 1_555 1_555
C11A C12A 1_555 1_555
C17A C18A 1_555 1_555
C23A C24A 1_555 1_555
C25A C26A 1_555 1_555
C25A N1A 1_555 1_555
C27A O2A 1_555 1_555
C28A O3A 1_555 1_555

#END
