
#######################################################################
#
#                 Cambridge Crystallographic Data Centre
#                                CCDC 
#
#######################################################################
#
# If this CIF has been generated from an entry in the Cambridge 
# Structural Database, then it will include bibliographic, chemical, 
# crystal, experimental, refinement or atomic coordinate data resulting 
# from the CCDC's data processing and validation procedures.
#
#######################################################################

data_TOPFUA
_symmetry_cell_setting           monoclinic
_symmetry_space_group_name_H-M   'P 21/n'
_symmetry_Int_Tables_number      14
_space_group_name_Hall           '-P 2yn'
loop_
_symmetry_equiv_pos_site_id
_symmetry_equiv_pos_as_xyz
1 x,y,z
2 1/2-x,1/2+y,1/2-z
3 -x,-y,-z
4 1/2+x,1/2-y,1/2+z
_cell_length_a                   10.6204(5)
_cell_length_b                   22.0127(7)
_cell_length_c                   11.9398(5)
_cell_angle_alpha                90
_cell_angle_beta                 107.253(5)
_cell_angle_gamma                90
_cell_volume                     2665.73
loop_
_atom_site_label
_atom_site_type_symbol
_atom_site_fract_x
_atom_site_fract_y
_atom_site_fract_z
Cu1 Cu 0.69563(6) -0.29637(3) 0.20365(6)
P1 P 0.54404(15) -0.33336(6) 0.39611(13)
P2 P 0.39550(15) -0.17492(6) 0.54203(13)
N1 N 0.7191(5) -0.38620(19) 0.2180(4)
N2 N 0.7925(4) -0.70447(19) 0.2827(4)
O1 O 0.6175(4) -0.29541(16) 0.3300(3)
O2 O 0.4265(3) -0.36793(17) 0.3255(3)
O3 O 0.3157(3) -0.20910(15) 0.6085(3)
O4 O 0.5266(3) -0.15177(17) 0.6150(3)
O5 O 0.5113(4) -0.2959(2) 0.0537(4)
H1 H 0.439(3) -0.300(3) 0.062(5)
H2 H 0.519(6) -0.275(2) 0.000(4)
C1 C 0.4999(5) -0.2822(2) 0.4951(5)
H9 H 0.4493 -0.3043 0.5373
H10 H 0.5798 -0.2679 0.5521
C2 C 0.4199(5) -0.2275(2) 0.4354(4)
H11 H 0.335 -0.2411 0.3852
H12 H 0.4657 -0.2073 0.3867
C3 C 0.6590(4) -0.38521(17) 0.4914(3)
C4 C 0.6286(4) -0.44668(19) 0.4899(4)
H13 H 0.5502 -0.4611 0.4387
C5 C 0.7153(6) -0.48658(16) 0.5649(5)
H14 H 0.6949 -0.5277 0.5639
C6 C 0.8324(5) -0.4650(3) 0.6413(4)
H15 H 0.8904 -0.4917 0.6915
C7 C 0.8628(4) -0.4036(3) 0.6428(4)
H16 H 0.9412 -0.3891 0.694
C8 C 0.7761(4) -0.36365(19) 0.5678(4)
H17 H 0.7965 -0.3225 0.5688
C9 C 0.3034(4) -0.11180(15) 0.4613(3)
C10 C 0.1833(4) -0.12088(16) 0.3762(3)
H18 H 0.1484 -0.1598 0.3612
C11 C 0.1152(3) -0.0718(2) 0.3134(3)
H19 H 0.0348 -0.0778 0.2564
C12 C 0.1673(4) -0.01355(18) 0.3357(4)
H20 H 0.1218 0.0193 0.2937
C13 C 0.2875(5) -0.00446(14) 0.4208(4)
H21 H 0.3224 0.0345 0.4358
C14 C 0.3555(3) -0.05358(18) 0.4836(3)
H22 H 0.4359 -0.0475 0.5406
C15 C 0.6347(6) -0.4251(2) 0.1471(5)
H23 H 0.563 -0.4097 0.0887
C16 C 0.6512(5) -0.4869(2) 0.1584(5)
H24 H 0.5916 -0.5123 0.1066
C17 C 0.7541(6) -0.5119(2) 0.2449(5)
C18 C 0.8417(5) -0.4718(2) 0.3187(5)
H25 H 0.912 -0.4863 0.3795
C19 C 0.8225(6) -0.4100(2) 0.3003(5)
H26 H 0.8843 -0.3836 0.3473
C20 C 0.7703(5) -0.5782(2) 0.2599(5)
C21 C 0.7964(5) -0.6069(2) 0.3673(5)
H27 H 0.8079 -0.5837 0.4348
C22 C 0.8056(5) -0.6685(2) 0.3757(5)
H28 H 0.8216 -0.6863 0.4492
C23 C 0.7697(5) -0.6774(2) 0.1771(5)
H29 H 0.7636 -0.7014 0.1117
C24 C 0.7551(5) -0.6157(2) 0.1628(5)
H30 H 0.735 -0.5989 0.0881
Cu1A Cu 0.80437(6) -0.79637(3) 0.29635(6)
Cu1C Cu 0.19563(6) -0.20363(3) 0.70365(6)
N2A N 0.7075(4) -0.20447(19) 0.2173(4)
O3C O 0.8157(3) -0.29090(15) 0.1085(3)
O6 O 1.1657(4) -0.3669(2) 0.3458(4)
H3 H 1.129(6) -0.372(3) 0.276(2)
H4 H 1.242(3) -0.369(3) 0.343(6)
O7 O 1.0088(5) -0.2636(2) 0.3459(4)
H5 H 1.063(5) -0.290(2) 0.348(6)
H6 H 0.959(6) -0.266(3) 0.281(3)
O8 O 0.2875(5) -0.3327(3) 0.1048(4)
H7 H 0.213(3) -0.344(3) 0.102(7)
H8 H 0.300(8) -0.304(3) 0.151(6)
loop_
_geom_bond_atom_site_label_1
_geom_bond_atom_site_label_2
_geom_bond_site_symmetry_1
_geom_bond_site_symmetry_2
Cu1 N1 1_555 1_555
P1 O1 1_555 1_555
P2 O3 1_555 1_555
N1 C15 1_555 1_555
N2 C22 1_555 1_555
O1 Cu1 1_555 1_555
O2 P1 1_555 1_555
O3 Cu1C 1_555 1_555
O4 P2 1_555 1_555
O5 Cu1 1_555 1_555
H1 O5 1_555 1_555
H2 O5 1_555 1_555
O6 H3 1_555 1_555
H4 O6 1_555 1_555
O7 H5 1_555 1_555
H6 O7 1_555 1_555
O8 H7 1_555 1_555
H8 O8 1_555 1_555
C1 P1 1_555 1_555
H9 C1 1_555 1_555
H10 C1 1_555 1_555
C2 P2 1_555 1_555
H11 C2 1_555 1_555
H12 C2 1_555 1_555
C3 P1 1_555 1_555
C4 C3 1_555 1_555
H13 C4 1_555 1_555
C5 C4 1_555 1_555
H14 C5 1_555 1_555
C6 C5 1_555 1_555
H15 C6 1_555 1_555
C7 C6 1_555 1_555
H16 C7 1_555 1_555
C8 C3 1_555 1_555
H17 C8 1_555 1_555
C9 P2 1_555 1_555
C10 C9 1_555 1_555
H18 C10 1_555 1_555
C11 C10 1_555 1_555
H19 C11 1_555 1_555
C12 C11 1_555 1_555
H20 C12 1_555 1_555
C13 C12 1_555 1_555
H21 C13 1_555 1_555
C14 C9 1_555 1_555
H22 C14 1_555 1_555
C15 H23 1_555 1_555
C16 C15 1_555 1_555
H24 C16 1_555 1_555
C17 C16 1_555 1_555
C18 C17 1_555 1_555
H25 C18 1_555 1_555
C19 N1 1_555 1_555
H26 C19 1_555 1_555
C20 C17 1_555 1_555
C21 C20 1_555 1_555
H27 C21 1_555 1_555
C22 C21 1_555 1_555
H28 C22 1_555 1_555
C23 N2 1_555 1_555
H29 C23 1_555 1_555
C24 C20 1_555 1_555
H30 C24 1_555 1_555
Cu1A N2 1_555 1_555
N2A Cu1 1_555 1_555
O3C Cu1 1_555 1_555
C1 C2 1_555 1_555
C7 C8 1_555 1_555
C13 C14 1_555 1_555
C18 C19 1_555 1_555
C23 C24 1_555 1_555

#END
