
#######################################################################
#
#                 Cambridge Crystallographic Data Centre
#                                CCDC 
#
#######################################################################
#
# If this CIF has been generated from an entry in the Cambridge 
# Structural Database, then it will include bibliographic, chemical, 
# crystal, experimental, refinement or atomic coordinate data resulting 
# from the CCDC's data processing and validation procedures.
#
#######################################################################

data_TOPLIU
_symmetry_cell_setting           triclinic
_symmetry_space_group_name_H-M   'P -1'
_symmetry_Int_Tables_number      2
_space_group_name_Hall           '-P 1'
loop_
_symmetry_equiv_pos_site_id
_symmetry_equiv_pos_as_xyz
1 x,y,z
2 -x,-y,-z
_cell_length_a                   13.812(8)
_cell_length_b                   15.073(8)
_cell_length_c                   18.604(10)
_cell_angle_alpha                67.221(8)
_cell_angle_beta                 70.821(8)
_cell_angle_gamma                73.834(8)
_cell_volume                     3321.6
loop_
_atom_site_label
_atom_site_type_symbol
_atom_site_fract_x
_atom_site_fract_y
_atom_site_fract_z
Ru1 Ru -0.34446(6) 0.76015(5) -0.13850(4)
Fe1 Fe -1.0000 1.5000 -0.5000
S1 S -1.3207(3) 1.3844(4) -0.4475(3)
N1 N -0.3427(5) 0.9079(5) -0.1798(4)
N2 N -0.4582(5) 0.8114(5) -0.1935(4)
N3 N -0.3931(5) 0.6343(5) -0.1177(4)
N4 N -0.6929(6) 0.9168(5) -0.3092(4)
H4 H -0.7245 0.8751 -0.3114
N5 N -0.7232(6) 1.0139(5) -0.3419(4)
N6 N -0.9297(6) 1.3409(5) -0.4607(4)
N7 N -1.4191(5) 1.7591(5) -1.0229(4)
N8 N -1.2285(5) 1.7080(5) -1.0867(4)
N9 N -1.2223(5) 1.7425(5) -1.2342(4)
N10 N -0.9829(5) 1.6034(5) -0.9807(4)
H5 H -0.9193 1.5905 -1.0098
N11 N -0.9999(6) 1.5890(5) -0.9025(4)
N12 N -0.9727(5) 1.5052(5) -0.6232(4)
N13 N -1.1485(6) 1.4645(5) -0.4740(4)
C1 C -0.2804(7) 0.9533(7) -0.1703(5)
H6 H -0.2338 0.9159 -0.1370
C2 C -0.2803(8) 1.0498(7) -0.2056(6)
H7 H -0.2332 1.0787 -0.1978
C3 C -0.3473(8) 1.1065(7) -0.2525(6)
H8 H -0.3473 1.1746 -0.2785
C4 C -0.4146(7) 1.0610(6) -0.2605(5)
H9 H -0.4638 1.0984 -0.2915
C5 C -0.4120(7) 0.9638(6) -0.2250(5)
C6 C -0.4797(6) 0.9079(6) -0.2309(5)
C7 C -0.5587(7) 0.9477(6) -0.2701(5)
H10 H -0.5756 1.0163 -0.2947
C8 C -0.6127(7) 0.8840(7) -0.2726(5)
C9 C -0.8070(7) 1.0406(7) -0.3662(5)
H11 H -0.8429 0.9926 -0.3616
C10 C -0.8474(7) 1.1435(6) -0.4005(5)
C11 C -0.7849(7) 1.2145(7) -0.4305(5)
H12 H -0.7135 1.1970 -0.4297
C12 C -0.8288(7) 1.3105(7) -0.4612(5)
H13 H -0.7849 1.3582 -0.4843
C13 C -0.9868(8) 1.2721(7) -0.4320(5)
H14 H -1.0585 1.2916 -0.4315
C14 C -0.9497(7) 1.1745(7) -0.4029(6)
H15 H -0.9947 1.1283 -0.3844
C15 C -0.5879(6) 0.7831(6) -0.2358(5)
H16 H -0.6241 0.7392 -0.2375
C16 C -0.5092(6) 0.7497(6) -0.1969(5)
C17 C -0.4701(6) 0.6483(6) -0.1550(5)
C18 C -0.5051(7) 0.5685(6) -0.1506(5)
H17 H -0.5564 0.5785 -0.1780
C19 C -0.4677(7) 0.4761(6) -0.1081(6)
H18 H -0.4922 0.4216 -0.1054
C20 C -0.3924(7) 0.4633(7) -0.0686(5)
H19 H -0.3649 0.3998 -0.0380
C21 C -0.3587(6) 0.5436(6) -0.0746(5)
H20 H -0.3082 0.5343 -0.0467
C22 C -1.5200(7) 1.7888(6) -0.9943(5)
H21 H -1.5638 1.8172 -1.0305
C23 C -1.5635(8) 1.7797(7) -0.9139(6)
H22 H -1.6356 1.8024 -0.8954
C24 C -1.5010(7) 1.7375(7) -0.8616(6)
H23 H -1.5294 1.7284 -0.8058
C25 C -1.3970(7) 1.7085(6) -0.8904(5)
H24 H -1.3528 1.6796 -0.8546
C26 C -1.3561(6) 1.7212(6) -0.9713(5)
C27 C -1.2466(7) 1.6942(6) -1.0078(5)
C28 C -1.1665(7) 1.6614(6) -0.9716(5)
H25 H -1.1796 1.6541 -0.9164
C29 C -1.0656(6) 1.6386(6) -1.0154(5)
C30 C -0.9236(7) 1.5600(6) -0.8719(5)
H26 H -0.8550 1.5516 -0.9050
C31 C -0.9389(7) 1.5392(6) -0.7865(5)
C32 C -1.0389(7) 1.5498(7) -0.7379(5)
H27 H -1.0975 1.5689 -0.7599
C33 C -1.0521(7) 1.5326(7) -0.6579(5)
H28 H -1.1210 1.5405 -0.6252
C34 C -0.8774(7) 1.4929(6) -0.6706(5)
H29 H -0.8200 1.4711 -0.6470
C35 C -0.8573(7) 1.5098(6) -0.7514(5)
H30 H -0.7876 1.5014 -0.7827
C36 C -1.0478(6) 1.6514(6) -1.0965(5)
H31 H -0.9795 1.6356 -1.1274
C37 C -1.1308(6) 1.6874(6) -1.1315(5)
C38 C -1.1289(6) 1.7073(6) -1.2162(5)
C39 C -1.0379(7) 1.6935(7) -1.2745(5)
H32 H -0.9729 1.6676 -1.2607
C40 C -1.0432(8) 1.7177(7) -1.3518(5)
H33 H -0.9820 1.7092 -1.3926
C41 C -1.1373(8) 1.7542(6) -1.3696(5)
H34 H -1.1419 1.7719 -1.4234
C42 C -1.2244(7) 1.7654(6) -1.3112(5)
H35 H -1.2894 1.7904 -1.3249
C43 C -1.2185(9) 1.4319(8) -0.4639(7)
Ru1A Ru -1.65554(6) 2.23985(5) -0.86150(4)
Ru1_2 Ru -1.34446(6) 1.76015(5) -1.13850(4)
Ru1A_2 Ru -0.65554(6) 1.23985(5) 0.13850(4)
S1A S -0.6793(3) 1.6156(4) -0.5525(3)
N1A N -1.6573(5) 2.0921(5) -0.8202(4)
N2A N -1.5418(5) 2.1886(5) -0.8065(4)
N3A N -1.6069(5) 2.3657(5) -0.8823(4)
N4A N -1.3071(6) 2.0832(5) -0.6908(4)
H4A H -1.2755 2.1249 -0.6886
N5A N -1.2768(6) 1.9861(5) -0.6581(4)
N6A N -1.0703(6) 1.6591(5) -0.5393(4)
N7A N -0.5809(5) 1.2409(5) 0.0229(4)
N7_2 N -0.4191(5) 0.7591(5) -0.0229(4)
N7A_2 N -1.5809(5) 2.2409(5) -0.9771(4)
N8A N -0.7715(5) 1.2920(5) 0.0867(4)
N8_2 N -0.2285(5) 0.7080(5) -0.0867(4)
N8A_2 N -1.7715(5) 2.2920(5) -0.9133(4)
N9A N -0.7777(5) 1.2575(5) 0.2342(4)
N9_2 N -0.2223(5) 0.7425(5) -0.2342(4)
N9A_2 N -1.7777(5) 2.2575(5) -0.7658(4)
N10A N -1.0171(5) 1.3966(5) -0.0193(4)
H5A H -1.0807 1.4095 0.0098
N11A N -1.0001(6) 1.4110(5) -0.0975(4)
N12A N -1.0273(5) 1.4948(5) -0.3768(4)
N13A N -0.8515(6) 1.5355(5) -0.5260(4)
C1A C -1.7196(7) 2.0467(7) -0.8297(5)
H6A H -1.7662 2.0841 -0.8630
C2A C -1.7197(8) 1.9502(7) -0.7944(6)
H7A H -1.7668 1.9213 -0.8022
C3A C -1.6527(8) 1.8935(7) -0.7475(6)
H8A H -1.6527 1.8254 -0.7215
C4A C -1.5854(7) 1.9390(6) -0.7395(5)
H9A H -1.5362 1.9016 -0.7085
C5A C -1.5880(7) 2.0362(6) -0.7750(5)
C6A C -1.5203(6) 2.0921(6) -0.7691(5)
C7A C -1.4413(7) 2.0523(6) -0.7299(5)
H10A H -1.4244 1.9837 -0.7053
C8A C -1.3873(7) 2.1160(7) -0.7274(5)
C9A C -1.1930(7) 1.9594(7) -0.6338(5)
H11A H -1.1571 2.0074 -0.6384
C10A C -1.1526(7) 1.8565(6) -0.5995(5)
C11A C -1.2151(7) 1.7855(7) -0.5695(5)
H12A H -1.2865 1.8030 -0.5703
C12A C -1.1712(7) 1.6895(7) -0.5388(5)
H13A H -1.2151 1.6418 -0.5157
C13A C -1.0132(8) 1.7279(7) -0.5680(5)
H14A H -0.9415 1.7084 -0.5685
C14A C -1.0503(7) 1.8255(7) -0.5971(6)
H15A H -1.0053 1.8717 -0.6156
C15A C -1.4121(6) 2.2169(6) -0.7642(5)
H16A H -1.3759 2.2608 -0.7625
C16A C -1.4908(6) 2.2503(6) -0.8031(5)
C17A C -1.5299(6) 2.3517(6) -0.8450(5)
C18A C -1.4949(7) 2.4315(6) -0.8494(5)
H17A H -1.4436 2.4215 -0.8220
C19A C -1.5323(7) 2.5239(6) -0.8919(6)
H18A H -1.5078 2.5784 -0.8946
C20A C -1.6076(7) 2.5367(7) -0.9314(5)
H19A H -1.6351 2.6002 -0.9620
C21A C -1.6413(6) 2.4564(6) -0.9254(5)
H20A H -1.6918 2.4657 -0.9533
C22A C -0.4800(7) 1.2112(6) -0.0057(5)
H21A H -0.4362 1.1828 0.0305
C23A C -0.4365(8) 1.2203(7) -0.0861(6)
H22A H -0.3644 1.1976 -0.1046
C24A C -0.4990(7) 1.2625(7) -0.1384(6)
H23A H -0.4706 1.2716 -0.1942
C25A C -0.6030(7) 1.2915(6) -0.1096(5)
H24A H -0.6472 1.3204 -0.1454
C26A C -0.6439(6) 1.2788(6) -0.0287(5)
C27A C -0.7534(7) 1.3058(6) 0.0078(5)
C28A C -0.8335(7) 1.3386(6) -0.0284(5)
H25A H -0.8204 1.3459 -0.0836
C29A C -0.9344(6) 1.3614(6) 0.0154(5)
C30A C -1.0764(7) 1.4400(6) -0.1281(5)
H26A H -1.1450 1.4484 -0.0950
C31A C -1.0611(7) 1.4608(6) -0.2135(5)
C32A C -0.9611(7) 1.4502(7) -0.2621(5)
H27A H -0.9025 1.4311 -0.2401
C33A C -0.9479(7) 1.4674(7) -0.3421(5)
H28A H -0.8790 1.4595 -0.3748
C34A C -1.1226(7) 1.5071(6) -0.3294(5)
H29A H -1.1800 1.5289 -0.3530
C35A C -1.1427(7) 1.4902(6) -0.2486(5)
H30A H -1.2124 1.4986 -0.2173
C36A C -0.9522(6) 1.3486(6) 0.0965(5)
H31A H -1.0205 1.3644 0.1274
C37A C -0.8692(6) 1.3126(6) 0.1315(5)
C38A C -0.8711(6) 1.2927(6) 0.2162(5)
C39A C -0.9621(7) 1.3065(7) 0.2745(5)
H32A H -1.0271 1.3324 0.2607
C40A C -0.9568(8) 1.2823(7) 0.3518(5)
H33A H -1.0180 1.2908 0.3926
C41A C -0.8627(8) 1.2458(6) 0.3696(5)
H34A H -0.8581 1.2281 0.4234
C42A C -0.7756(7) 1.2346(6) 0.3112(5)
H35A H -0.7106 1.2096 0.3249
C43A C -0.7815(9) 1.5681(8) -0.5361(7)
Fe2 Fe -0.04463(13) 0.03744(13) 0.92420(10)
S2 S -0.3816(2) -0.0412(2) 1.0469(2)
S3 S -0.0218(3) -0.0886(3) 0.7203(3)
S4 S -0.2134(3) 0.2910(2) 0.74307(19)
O1 O -0.0415(5) 0.0752(5) 1.0143(4)
O2 O 0.1016(6) 0.0901(6) 0.8640(5)
N14 N -0.1798(8) -0.0138(8) 0.9847(6)
N15 N -0.0190(8) -0.0185(8) 0.8353(7)
N16 N -0.1165(8) 0.1675(8) 0.8635(7)
C44 C -0.2637(9) -0.0249(7) 1.0101(6)
C45 C -0.0158(10) -0.0514(10) 0.7890(8)
C46 C -0.1560(9) 0.2201(9) 0.8120(7)
C47 C -0.0799(10) 0.1696(9) 1.0224(8)
H36 H -0.0356 0.1828 1.0482
H37 H -0.0762 0.2194 0.9684
C48 C -0.1919(11) 0.1777(11) 1.0728(9)
H38 H -0.2164 0.2436 1.0769
H39 H -0.2361 0.1651 1.0472
H40 H -0.1955 0.1296 1.1268
C49 C 0.1256(12) 0.1703(14) 0.8062(9)
H41 H 0.1086 0.1699 0.7587
H42 H 0.0761 0.2248 0.8227
C50 C 0.2238(12) 0.1972(13) 0.7784(9)
H43 H 0.2218 0.2610 0.7360
H44 H 0.2435 0.2011 0.8230
H45 H 0.2751 0.1482 0.7567
Fe2A Fe 0.04463(13) -0.03744(13) 1.07580(10)
S2A S 0.3816(2) 0.0412(2) 0.9531(2)
S3A S 0.0218(3) 0.0886(3) 1.2797(3)
S4A S 0.2134(3) -0.2910(2) 1.25693(19)
O1A O 0.0415(5) -0.0752(5) 0.9857(4)
O2A O -0.1016(6) -0.0901(6) 1.1360(5)
N14A N 0.1798(8) 0.0138(8) 1.0153(6)
N15A N 0.0190(8) 0.0185(8) 1.1647(7)
N16A N 0.1165(8) -0.1675(8) 1.1365(7)
C44A C 0.2637(9) 0.0249(7) 0.9899(6)
C45A C 0.0158(10) 0.0514(10) 1.2110(8)
C46A C 0.1560(9) -0.2201(9) 1.1880(7)
C47A C 0.0799(10) -0.1696(9) 0.9776(8)
H36A H 0.0356 -0.1828 0.9518
H37A H 0.0762 -0.2194 1.0316
C48A C 0.1919(11) -0.1777(11) 0.9272(9)
H38A H 0.2164 -0.2436 0.9231
H39A H 0.2361 -0.1651 0.9528
H40A H 0.1955 -0.1296 0.8732
C49A C -0.1256(12) -0.1703(14) 1.1938(9)
H41A H -0.1086 -0.1699 1.2413
H42A H -0.0761 -0.2248 1.1773
C50A C -0.2238(12) -0.1972(13) 1.2216(9)
H43A H -0.2218 -0.2610 1.2640
H44A H -0.2435 -0.2011 1.1770
H45A H -0.2751 -0.1482 1.2433
S5 S -0.2541(2) 0.4530(2) 1.22207(17)
N17 N -0.2288(6) 0.4367(6) 1.0727(5)
C58 C -0.2408(6) 0.4430(7) 1.1352(7)
O3 O 0.8041(10) 0.2215(10) 1.4772(8)
H1 H 0.8429 0.2196 1.4321
C51 C 0.8215(19) 0.1211(18) 1.5409(13)
C59 C 0.773(3) 0.053(2) 1.5380(19)
H61 H 0.6977 0.0699 1.5569
H62 H 0.7976 -0.0125 1.5726
H63 H 0.7909 0.0527 1.4825
O4 O 0.508(2) 0.351(2) 0.4244(17)
H2 H 0.5537 0.3025 0.4180
C52 C 0.384(3) 0.297(3) 0.380(2)
H46 H 0.3371 0.3231 0.3440
H47 H 0.3450 0.2704 0.4354
H48 H 0.4381 0.2448 0.3640
C53 C 0.434(3) 0.375(2) 0.373(2)
H49 H 0.3778 0.4285 0.3854
H50 H 0.4718 0.4014 0.3159
O5 O 0.4519(13) 0.2375(13) 0.5951(10)
H3 H 0.5006 0.2527 0.5538
C54 C 0.431(2) 0.3031(19) 0.6398(15)
H51 H 0.3802 0.2766 0.6911
H52 H 0.4963 0.2958 0.6541
C55 C 0.395(3) 0.403(2) 0.612(2)
H53 H 0.3791 0.4297 0.6560
H54 H 0.3311 0.4143 0.5951
H55 H 0.4478 0.4345 0.5670
O7 O 0.7340(16) 0.2322(10) 1.3518(11)
O6? O 0.669(3) -0.043(3) 1.556(3)
C56? C 0.580(3) -0.071(3) 1.544(4)
H56? H 0.5399 -0.1051 1.5986
H57? H 0.6113 -0.1212 1.5168
C57? C 0.5000 0.0000 1.5000
H58? H 0.4525 -0.0358 1.4975
H59? H 0.5356 0.0354 1.4452
H60? H 0.4604 0.0465 1.5287
C60? C 0.891(4) 0.054(3) 1.514(2)
H64? H 0.9604 0.0690 1.5014
H65? H 0.8774 0.0538 1.4660
H66? H 0.8858 -0.0098 1.5560
O8? O 0.788(3) 0.2198(17) 1.317(2)
loop_
_geom_bond_atom_site_label_1
_geom_bond_atom_site_label_2
_geom_bond_site_symmetry_1
_geom_bond_site_symmetry_2
Ru1 N1 1_555 1_555
Fe1 N6 1_555 1_555
Fe2 O1 1_555 1_555
S1 C43 1_555 1_555
S2 C44 1_555 1_555
S3 C45 1_555 1_555
S4 C46 1_555 1_555
S5 C58 1_555 1_555
O1 C47 1_555 1_555
O2 Fe2 1_555 1_555
O3 H1 1_555 1_555
O4 H2 1_555 1_555
O5 H3 1_555 1_555
N1 C1 1_555 1_555
N2 Ru1 1_555 1_555
N3 Ru1 1_555 1_555
N4 H4 1_555 1_555
N5 N4 1_555 1_555
N6 C12 1_555 1_555
N7 C22 1_555 1_555
N8 C27 1_555 1_555
N9 C38 1_555 1_555
N10 H5 1_555 1_555
N11 N10 1_555 1_555
N12 Fe1 1_555 1_555
N13 Fe1 1_555 1_555
N14 Fe2 1_555 1_555
N15 Fe2 1_555 1_555
N16 Fe2 1_555 1_555
N17 C58 1_555 1_555
C1 H6 1_555 1_555
C2 C1 1_555 1_555
H7 C2 1_555 1_555
C3 C2 1_555 1_555
H8 C3 1_555 1_555
C4 C3 1_555 1_555
H9 C4 1_555 1_555
C5 N1 1_555 1_555
C6 N2 1_555 1_555
C7 C6 1_555 1_555
H10 C7 1_555 1_555
C8 N4 1_555 1_555
C9 N5 1_555 1_555
H11 C9 1_555 1_555
C10 C9 1_555 1_555
C11 C10 1_555 1_555
H12 C11 1_555 1_555
C12 C11 1_555 1_555
H13 C12 1_555 1_555
C13 N6 1_555 1_555
H14 C13 1_555 1_555
C14 C10 1_555 1_555
H15 C14 1_555 1_555
C15 C8 1_555 1_555
H16 C15 1_555 1_555
C16 N2 1_555 1_555
C17 N3 1_555 1_555
C18 C17 1_555 1_555
H17 C18 1_555 1_555
C19 C18 1_555 1_555
H18 C19 1_555 1_555
C20 C19 1_555 1_555
H19 C20 1_555 1_555
C21 N3 1_555 1_555
H20 C21 1_555 1_555
C22 H21 1_555 1_555
C23 C22 1_555 1_555
H22 C23 1_555 1_555
C24 C23 1_555 1_555
H23 C24 1_555 1_555
C25 C24 1_555 1_555
H24 C25 1_555 1_555
C26 N7 1_555 1_555
C27 C26 1_555 1_555
C28 C27 1_555 1_555
H25 C28 1_555 1_555
C29 N10 1_555 1_555
C30 N11 1_555 1_555
H26 C30 1_555 1_555
C31 C30 1_555 1_555
C32 C31 1_555 1_555
H27 C32 1_555 1_555
C33 N12 1_555 1_555
H28 C33 1_555 1_555
C34 N12 1_555 1_555
H29 C34 1_555 1_555
C35 C31 1_555 1_555
H30 C35 1_555 1_555
C36 C29 1_555 1_555
H31 C36 1_555 1_555
C37 N8 1_555 1_555
C38 C37 1_555 1_555
C39 C38 1_555 1_555
H32 C39 1_555 1_555
C40 C39 1_555 1_555
H33 C40 1_555 1_555
C41 C40 1_555 1_555
H34 C41 1_555 1_555
C42 N9 1_555 1_555
H35 C42 1_555 1_555
C43 N13 1_555 1_555
C44 N14 1_555 1_555
C45 N15 1_555 1_555
C46 N16 1_555 1_555
C47 H36 1_555 1_555
H37 C47 1_555 1_555
C48 C47 1_555 1_555
H38 C48 1_555 1_555
H39 C48 1_555 1_555
H40 C48 1_555 1_555
C49 O2 1_555 1_555
H41 C49 1_555 1_555
H42 C49 1_555 1_555
C50 C49 1_555 1_555
H43 C50 1_555 1_555
H44 C50 1_555 1_555
H45 C50 1_555 1_555
C51 O3 1_555 1_555
C52 H46 1_555 1_555
H47 C52 1_555 1_555
H48 C52 1_555 1_555
C53 O4 1_555 1_555
H49 C53 1_555 1_555
H50 C53 1_555 1_555
C54 O5 1_555 1_555
H51 C54 1_555 1_555
H52 C54 1_555 1_555
C55 C54 1_555 1_555
H53 C55 1_555 1_555
H54 C55 1_555 1_555
H55 C55 1_555 1_555
C59 C51 1_555 1_555
H61 C59 1_555 1_555
H62 C59 1_555 1_555
H63 C59 1_555 1_555
Ru1A N1A 1_555 1_555
Ru1_2 N7 1_555 1_555
Ru1A_2 N7A 1_555 1_555
Fe2A O1 1_555 1_555
S1A C43A 1_555 1_555
S2A C44A 1_555 1_555
S3A C45A 1_555 1_555
S4A C46A 1_555 1_555
O1A Fe2 1_555 1_555
O2A Fe2A 1_555 1_555
N1A C1A 1_555 1_555
N2A Ru1A 1_555 1_555
N3A Ru1A 1_555 1_555
N4A H4A 1_555 1_555
N5A N4A 1_555 1_555
N6A Fe1 1_555 1_555
N7A C22A 1_555 1_555
N7_2 Ru1 1_555 1_555
N7A_2 Ru1A 1_555 1_555
N8A Ru1A_2 1_555 1_555
N8_2 Ru1 1_555 1_555
N8A_2 Ru1A 1_555 1_555
N9A Ru1A_2 1_555 1_555
N9_2 Ru1 1_555 1_555
N9A_2 Ru1A 1_555 1_555
N10A H5A 1_555 1_555
N11A N10A 1_555 1_555
N12A Fe1 1_555 1_555
N13A Fe1 1_555 1_555
N14A Fe2A 1_555 1_555
N15A Fe2A 1_555 1_555
N16A Fe2A 1_555 1_555
C1A H6A 1_555 1_555
C2A C1A 1_555 1_555
H7A C2A 1_555 1_555
C3A C2A 1_555 1_555
H8A C3A 1_555 1_555
C4A C3A 1_555 1_555
H9A C4A 1_555 1_555
C5A N1A 1_555 1_555
C6A N2A 1_555 1_555
C7A C6A 1_555 1_555
H10A C7A 1_555 1_555
C8A N4A 1_555 1_555
C9A N5A 1_555 1_555
H11A C9A 1_555 1_555
C10A C9A 1_555 1_555
C11A C10A 1_555 1_555
H12A C11A 1_555 1_555
C12A N6A 1_555 1_555
H13A C12A 1_555 1_555
C13A N6A 1_555 1_555
H14A C13A 1_555 1_555
C14A C10A 1_555 1_555
H15A C14A 1_555 1_555
C15A C8A 1_555 1_555
H16A C15A 1_555 1_555
C16A N2A 1_555 1_555
C17A N3A 1_555 1_555
C18A C17A 1_555 1_555
H17A C18A 1_555 1_555
C19A C18A 1_555 1_555
H18A C19A 1_555 1_555
C20A C19A 1_555 1_555
H19A C20A 1_555 1_555
C21A N3A 1_555 1_555
H20A C21A 1_555 1_555
C22A H21A 1_555 1_555
C23A C22A 1_555 1_555
H22A C23A 1_555 1_555
C24A C23A 1_555 1_555
H23A C24A 1_555 1_555
C25A C24A 1_555 1_555
H24A C25A 1_555 1_555
C26A N7A 1_555 1_555
C27A N8A 1_555 1_555
C28A C27A 1_555 1_555
H25A C28A 1_555 1_555
C29A N10A 1_555 1_555
C30A N11A 1_555 1_555
H26A C30A 1_555 1_555
C31A C30A 1_555 1_555
C32A C31A 1_555 1_555
H27A C32A 1_555 1_555
C33A N12A 1_555 1_555
H28A C33A 1_555 1_555
C34A N12A 1_555 1_555
H29A C34A 1_555 1_555
C35A C31A 1_555 1_555
H30A C35A 1_555 1_555
C36A C29A 1_555 1_555
H31A C36A 1_555 1_555
C37A N8A 1_555 1_555
C38A N9A 1_555 1_555
C39A C38A 1_555 1_555
H32A C39A 1_555 1_555
C40A C39A 1_555 1_555
H33A C40A 1_555 1_555
C41A C40A 1_555 1_555
H34A C41A 1_555 1_555
C42A N9A 1_555 1_555
H35A C42A 1_555 1_555
C43A N13A 1_555 1_555
C44A N14A 1_555 1_555
C45A N15A 1_555 1_555
C46A N16A 1_555 1_555
C47A O1A 1_555 1_555
H36A C47A 1_555 1_555
H37A C47A 1_555 1_555
C48A C47A 1_555 1_555
H38A C48A 1_555 1_555
H39A C48A 1_555 1_555
H40A C48A 1_555 1_555
C49A O2A 1_555 1_555
H41A C49A 1_555 1_555
H42A C49A 1_555 1_555
C50A C49A 1_555 1_555
H43A C50A 1_555 1_555
H44A C50A 1_555 1_555
H45A C50A 1_555 1_555
N8 Ru1_2 1_555 1_555
N9 Ru1_2 1_555 1_555
C4 C5 1_555 1_555
C5 C6 1_555 1_555
C7 C8 1_555 1_555
C13 C14 1_555 1_555
C15 C16 1_555 1_555
C16 C17 1_555 1_555
C20 C21 1_555 1_555
C25 C26 1_555 1_555
C28 C29 1_555 1_555
C32 C33 1_555 1_555
C34 C35 1_555 1_555
C36 C37 1_555 1_555
C41 C42 1_555 1_555
C52 C53 1_555 1_555
Fe2A O1A 1_555 1_555
C4A C5A 1_555 1_555
C5A C6A 1_555 1_555
C7A C8A 1_555 1_555
C11A C12A 1_555 1_555
C13A C14A 1_555 1_555
C15A C16A 1_555 1_555
C16A C17A 1_555 1_555
C20A C21A 1_555 1_555
C25A C26A 1_555 1_555
C26A C27A 1_555 1_555
C28A C29A 1_555 1_555
C32A C33A 1_555 1_555
C34A C35A 1_555 1_555
C36A C37A 1_555 1_555
C37A C38A 1_555 1_555
C41A C42A 1_555 1_555

#END
