
#######################################################################
#
#                 Cambridge Crystallographic Data Centre
#                                CCDC 
#
#######################################################################
#
# If this CIF has been generated from an entry in the Cambridge 
# Structural Database, then it will include bibliographic, chemical, 
# crystal, experimental, refinement or atomic coordinate data resulting 
# from the CCDC's data processing and validation procedures.
#
#######################################################################

data_TOPMIU01
_symmetry_cell_setting           monoclinic
_symmetry_space_group_name_H-M   'I 2'
_symmetry_Int_Tables_number      5
_space_group_name_Hall           'I 2y'
loop_
_symmetry_equiv_pos_site_id
_symmetry_equiv_pos_as_xyz
1 x,y,z
2 -x,y,-z
3 1/2+x,1/2+y,1/2+z
4 1/2-x,1/2+y,1/2-z
_cell_length_a                   6.4969(4)
_cell_length_b                   12.9448(8)
_cell_length_c                   16.1712(10)
_cell_angle_alpha                90
_cell_angle_beta                 90.0440(10)
_cell_angle_gamma                90
_cell_volume                     1360.01
loop_
_atom_site_label
_atom_site_type_symbol
_atom_site_fract_x
_atom_site_fract_y
_atom_site_fract_z
Co1 Co 0.52808(4) 1.00364(2) 0.741556(17)
Co2 Co 0.5000 0.29043(3) 1.0000
O1 O 0.5511(3) 1.10916(12) 0.64627(10)
O2 O 0.6347(3) 1.25271(12) 0.71466(11)
O3 O 0.6651(3) 1.10958(13) 0.82190(11)
O4 O 0.2357(3) 1.06969(14) 0.76458(11)
O5 O 0.4925(3) 0.90867(12) 0.84236(10)
O6 O 0.3733(3) 0.76407(13) 0.78391(11)
O7 O 0.4089(3) 0.89309(14) 0.66007(11)
O8 O 0.8297(3) 0.94162(14) 0.72209(11)
O9 O 0.4924(3) 1.59184(13) 0.43164(12)
O10 O 0.4570(3) 0.43365(13) 0.93452(10)
O11 O 0.3777(3) 0.19484(18) 0.91593(13)
O12 O 0.7933(3) 0.28536(15) 0.94271(12)
C1 C 0.5000 1.2132(2) 0.5000
H1 H 0.5000 1.1398 0.5000
C2 C 0.5345(3) 1.26690(17) 0.57348(13)
C3 C 0.5748(3) 1.20550(19) 0.65086(14)
C4 C 0.5328(4) 1.37423(19) 0.57336(15)
H2 H 0.5541 1.4108 0.6236
C5 C 0.5000 1.4288(3) 0.5000
C6 C 0.5000 1.5445(3) 0.5000
C7 C 0.5000 0.8128(2) 1.0000
H3 H 0.5000 0.8862 1.0000
C8 C 0.4683(3) 0.75914(17) 0.92581(13)
C9 C 0.4425(3) 0.81471(17) 0.84461(14)
C10 C 0.4661(3) 0.65228(17) 0.92692(13)
H4 H 0.4411 0.6155 0.8771
C11 C 0.5000 0.5978(2) 1.0000
C12 C 0.5000 0.4839(2) 1.0000
H5 H 0.686(5) 1.1639(17) 0.7919(17)
H6 H 0.767(4) 1.094(3) 0.8541(19)
H7 H 0.211(5) 1.1317(14) 0.741(2)
H8 H 0.119(3) 1.045(2) 0.783(2)
H9 H 0.371(5) 0.8419(18) 0.6951(16)
H10 H 0.299(4) 0.912(3) 0.6318(19)
H11 H 0.887(5) 0.937(2) 0.6723(12)
H12 H 0.833(6) 0.8815(16) 0.7465(17)
H13 H 0.475(3) 0.162(2) 0.8889(19)
H14 H 0.273(3) 0.154(2) 0.925(2)
H15 H 0.855(5) 0.2251(14) 0.937(2)
H16 H 0.860(5) 0.3333(17) 0.917(2)
C2A C 0.4655(3) 1.26690(17) 0.42652(13)
C3A C 0.4252(3) 1.20550(19) 0.34914(14)
O1A O 0.4489(3) 1.10916(12) 0.35373(10)
O2A O 0.3653(3) 1.25271(12) 0.28534(11)
C4A C 0.4672(4) 1.37423(19) 0.42664(15)
H2A H 0.4459 1.4108 0.3764
O9A O 0.5076(3) 1.59184(13) 0.56836(12)
C8A C 0.5317(3) 0.75914(17) 1.07419(13)
C9A C 0.5575(3) 0.81471(17) 1.15539(14)
O5A O 0.5075(3) 0.90867(12) 1.15764(10)
O6A O 0.6267(3) 0.76407(13) 1.21609(11)
C10A C 0.5339(3) 0.65228(17) 1.07308(13)
H4A H 0.5589 0.6155 1.1229
O10A O 0.5430(3) 0.43365(13) 1.06548(10)
O11A O 0.6223(3) 0.19484(18) 1.08407(13)
H13A H 0.525(3) 0.162(2) 1.1111(19)
H14A H 0.727(3) 0.154(2) 1.075(2)
O12A O 0.2067(3) 0.28536(15) 1.05729(12)
H15A H 0.145(5) 0.2251(14) 1.063(2)
H16A H 0.140(5) 0.3333(17) 1.083(2)
Co1A Co 0.47192(4) 1.00364(2) 1.258444(17)
O3A O 0.3349(3) 1.10958(13) 1.17810(11)
H5A H 0.314(5) 1.1639(17) 1.2081(17)
H6A H 0.233(4) 1.094(3) 1.1459(19)
O4A O 0.7643(3) 1.06969(14) 1.23542(11)
H7A H 0.789(5) 1.1317(14) 1.259(2)
H8A H 0.881(3) 1.045(2) 1.217(2)
O7A O 0.5911(3) 0.89309(14) 1.33993(11)
H9A H 0.629(5) 0.8419(18) 1.3049(16)
H10A H 0.701(4) 0.912(3) 1.3682(19)
O8A O 0.1703(3) 0.94162(14) 1.27791(11)
H11A H 0.113(5) 0.937(2) 1.3277(12)
H12A H 0.167(6) 0.8815(16) 1.2535(17)
Co1A_2 Co 0.47192(4) 1.00364(2) 0.258444(17)
O1A_2 O 0.4489(3) 1.10916(12) 1.35373(10)
loop_
_geom_bond_atom_site_label_1
_geom_bond_atom_site_label_2
_geom_bond_site_symmetry_1
_geom_bond_site_symmetry_2
Co1 O1 1_555 1_555
Co2 O10 1_555 1_555
O1 C3 1_555 1_555
O2 C3 1_555 1_555
O3 Co1 1_555 1_555
O4 Co1 1_555 1_555
O5 Co1 1_555 1_555
O6 C9 1_555 1_555
O7 Co1 1_555 1_555
O8 Co1 1_555 1_555
O9 C6 1_555 1_555
O10 C12 1_555 1_555
O11 Co2 1_555 1_555
O12 Co2 1_555 1_555
C1 H1 1_555 1_555
C2 C1 1_555 1_555
C3 C2 1_555 1_555
C4 C2 1_555 1_555
H2 C4 1_555 1_555
C5 C4 1_555 1_555
C6 C5 1_555 1_555
C7 H3 1_555 1_555
C8 C7 1_555 1_555
C9 O5 1_555 1_555
C10 C8 1_555 1_555
H4 C10 1_555 1_555
C11 C10 1_555 1_555
C12 C11 1_555 1_555
H5 O3 1_555 1_555
H6 O3 1_555 1_555
H7 O4 1_555 1_555
H8 O4 1_555 1_555
H9 O7 1_555 1_555
H10 O7 1_555 1_555
H11 O8 1_555 1_555
H12 O8 1_555 1_555
H13 O11 1_555 1_555
H14 O11 1_555 1_555
H15 O12 1_555 1_555
H16 O12 1_555 1_555
C2A C1 1_555 1_555
C3A C2A 1_555 1_555
O1A C3A 1_555 1_555
O2A C3A 1_555 1_555
C4A C5 1_555 1_555
H2A C4A 1_555 1_555
O9A C6 1_555 1_555
C8A C7 1_555 1_555
C9A C8A 1_555 1_555
O5A C9A 1_555 1_555
O6A C9A 1_555 1_555
C10A C11 1_555 1_555
H4A C10A 1_555 1_555
O10A Co2 1_555 1_555
O11A Co2 1_555 1_555
H13A O11A 1_555 1_555
H14A O11A 1_555 1_555
O12A Co2 1_555 1_555
H15A O12A 1_555 1_555
H16A O12A 1_555 1_555
Co1A O5A 1_555 1_555
O3A Co1A 1_555 1_555
H5A O3A 1_555 1_555
H6A O3A 1_555 1_555
O4A Co1A 1_555 1_555
H7A O4A 1_555 1_555
H8A O4A 1_555 1_555
O7A Co1A 1_555 1_555
H9A O7A 1_555 1_555
H10A O7A 1_555 1_555
O8A Co1A 1_555 1_555
H11A O8A 1_555 1_555
H12A O8A 1_555 1_555
Co1A_2 O1A 1_555 1_555
O1A_2 Co1A 1_555 1_555
C8 C9 1_555 1_555
C12 O10A 1_555 1_555
C2A C4A 1_555 1_555
C8A C10A 1_555 1_555

#END
