
#######################################################################
#
#                 Cambridge Crystallographic Data Centre
#                                CCDC 
#
#######################################################################
#
# If this CIF has been generated from an entry in the Cambridge 
# Structural Database, then it will include bibliographic, chemical, 
# crystal, experimental, refinement or atomic coordinate data resulting 
# from the CCDC's data processing and validation procedures.
#
#######################################################################

data_TOPNET
_symmetry_cell_setting           monoclinic
_symmetry_space_group_name_H-M   'C c'
_symmetry_Int_Tables_number      9
_space_group_name_Hall           'C -2yc'
loop_
_symmetry_equiv_pos_site_id
_symmetry_equiv_pos_as_xyz
1 x,y,z
2 x,-y,1/2+z
3 1/2+x,1/2+y,z
4 1/2+x,1/2-y,1/2+z
_cell_length_a                   16.1760(3)
_cell_length_b                   16.9691(3)
_cell_length_c                   7.38057(17)
_cell_angle_alpha                90
_cell_angle_beta                 94.4586(19)
_cell_angle_gamma                90
_cell_volume                     2019.78
loop_
_atom_site_label
_atom_site_type_symbol
_atom_site_fract_x
_atom_site_fract_y
_atom_site_fract_z
C1 C 0.2683(2) 0.17304(19) 0.4986(4)
H1 H 0.2273 0.2004 0.4240
C2 C 0.3796(2) 0.12011(19) 0.6044(4)
H2 H 0.4357 0.1029 0.6148
C3 C 0.1791(2) 0.13410(18) 0.7501(4)
H3 H 0.1420 0.1784 0.7119
H4 H 0.1919 0.1381 0.8831
C4 C 0.13447(19) 0.05679(19) 0.7067(4)
C5 C 0.1772(2) -0.01494(19) 0.7212(5)
H5 H 0.2349 -0.0155 0.7562
C6 C 0.1353(2) -0.08512(19) 0.6845(4)
H6 H 0.1650 -0.1334 0.6930
C7 C 0.05049(19) -0.08598(18) 0.6353(4)
C8 C 0.0085(2) -0.01424(19) 0.6195(5)
H7 H -0.0494 -0.0137 0.5852
C9 C 0.0501(2) 0.05651(19) 0.6533(4)
H8 H 0.0208 0.1049 0.6399
C10 C 0.30516(19) 0.30330(18) 0.1659(4)
C11 C 0.24885(19) 0.37083(18) 0.1127(4)
C12 C 0.17158(19) 0.35925(18) 0.0196(4)
H9 H 0.1518 0.3072 -0.0037
C13 C 0.12279(18) 0.42389(18) -0.0399(4)
C14 C 0.15144(19) 0.50022(19) -0.0055(4)
H10 H 0.1194 0.5446 -0.0462
C15 C 0.22812(19) 0.50954(17) 0.0897(4)
C16 C 0.27691(19) 0.44701(17) 0.1497(4)
H11 H 0.3290 0.4557 0.2154
C17 C 0.0390(2) 0.41295(19) -0.1459(4)
N1 N 0.34591(16) 0.16079(15) 0.4573(4)
N2 N 0.32827(17) 0.10670(16) 0.7304(4)
N3 N 0.25648(17) 0.14133(15) 0.6594(4)
N4 N 0.25902(17) 0.58982(15) 0.1287(4)
Ni1 Ni 0.39798(3) 0.18784(2) 0.21711(4)
O1 O 0.28579(13) 0.23490(12) 0.1045(3)
O2 O 0.37119(13) 0.31482(13) 0.2630(3)
O3 O 0.21811(15) 0.64608(13) 0.0694(4)
O4 O 0.32522(15) 0.59570(14) 0.2209(4)
O5 O 0.00546(15) 0.47345(13) -0.2125(4)
O6 O 0.36920(14) 0.07939(13) 0.1116(3)
H12 H 0.365(3) 0.078(3) -0.0023(14)
H13 H 0.412(2) 0.052(3) 0.144(7)
O7 O 0.01088(13) 0.34314(13) -0.1556(3)
C18 C 0.0063(2) -0.16345(19) 0.5967(4)
H14 H -0.0508 -0.1527 0.5444
H15 H 0.0354 -0.1930 0.5051
N5 N 0.00230(17) -0.21269(15) 0.7607(4)
N6 N 0.07188(17) -0.24865(17) 0.8372(4)
C19 C -0.0622(2) -0.22909(18) 0.8559(4)
H16 H -0.1171 -0.2107 0.8274
N7 N -0.03839(16) -0.27509(15) 0.9974(4)
C20 C 0.0439(2) -0.2853(2) 0.9772(5)
H17 H 0.0786 -0.3166 1.0583
Ni1B Ni -0.10202(3) -0.31216(2) 1.21711(4)
Ni1C Ni -0.10202(3) 0.31216(2) -0.28289(4)
O7C O 0.51088(13) 0.15686(13) 0.3444(3)
N7B N 0.46161(16) 0.22491(15) -0.0026(4)
loop_
_geom_bond_atom_site_label_1
_geom_bond_atom_site_label_2
_geom_bond_site_symmetry_1
_geom_bond_site_symmetry_2
C1 H1 1_555 1_555
C2 H2 1_555 1_555
C3 H3 1_555 1_555
H4 C3 1_555 1_555
C4 C3 1_555 1_555
C5 C4 1_555 1_555
H5 C5 1_555 1_555
C6 C5 1_555 1_555
H6 C6 1_555 1_555
C7 C6 1_555 1_555
C8 C7 1_555 1_555
H7 C8 1_555 1_555
C9 C4 1_555 1_555
H8 C9 1_555 1_555
C10 C11 1_555 1_555
C11 C12 1_555 1_555
C12 H9 1_555 1_555
C13 C12 1_555 1_555
C14 C13 1_555 1_555
H10 C14 1_555 1_555
C15 C14 1_555 1_555
C16 C11 1_555 1_555
H11 C16 1_555 1_555
C17 C13 1_555 1_555
N1 C1 1_555 1_555
N2 C2 1_555 1_555
N3 C1 1_555 1_555
N4 C15 1_555 1_555
Ni1 N1 1_555 1_555
O1 C10 1_555 1_555
O2 C10 1_555 1_555
O3 N4 1_555 1_555
O4 N4 1_555 1_555
O5 C17 1_555 1_555
O6 Ni1 1_555 1_555
H12 O6 1_555 1_555
H13 O6 1_555 1_555
O7 C17 1_555 1_555
C18 C7 1_555 1_555
H14 C18 1_555 1_555
H15 C18 1_555 1_555
N5 C18 1_555 1_555
N6 N5 1_555 1_555
C19 N5 1_555 1_555
H16 C19 1_555 1_555
N7 C19 1_555 1_555
C20 N6 1_555 1_555
H17 C20 1_555 1_555
Ni1B N7 1_555 1_555
Ni1C O7 1_555 1_555
O7C Ni1 1_555 1_555
N7B Ni1 1_555 1_555
C2 N1 1_555 1_555
C3 N3 1_555 1_555
C8 C9 1_555 1_555
C15 C16 1_555 1_555
N2 N3 1_555 1_555
Ni1 O1 1_555 1_555
Ni1 O2 1_555 1_555
N7 C20 1_555 1_555

#END
