
#######################################################################
#
#                 Cambridge Crystallographic Data Centre
#                                CCDC 
#
#######################################################################
#
# If this CIF has been generated from an entry in the Cambridge 
# Structural Database, then it will include bibliographic, chemical, 
# crystal, experimental, refinement or atomic coordinate data resulting 
# from the CCDC's data processing and validation procedures.
#
#######################################################################

data_TOPPIZ
_symmetry_cell_setting           triclinic
_symmetry_space_group_name_H-M   'P -1'
_symmetry_Int_Tables_number      2
_space_group_name_Hall           '-P 1'
loop_
_symmetry_equiv_pos_site_id
_symmetry_equiv_pos_as_xyz
1 x,y,z
2 -x,-y,-z
_cell_length_a                   8.0978(19)
_cell_length_b                   8.3704(10)
_cell_length_c                   8.9877(11)
_cell_angle_alpha                117.329(4)
_cell_angle_beta                 106.859(6)
_cell_angle_gamma                95.907(6)
_cell_volume                     497.581
loop_
_atom_site_label
_atom_site_type_symbol
_atom_site_fract_x
_atom_site_fract_y
_atom_site_fract_z
Pd1 Pd 0.5000 0.5000 1.5000
Cu1 Cu 0.0000 0.5000 1.0000
O1 O 0.2184(2) 0.6947(2) 0.9904(2)
H1 H 0.272(5) 0.797(5) 1.069(5)
N1 N 0.3708(3) 0.0638(3) 1.2501(3)
N2 N 0.1855(3) 0.5282(3) 1.2195(3)
N3 N 0.0864(2) 0.2829(2) 0.8479(2)
C1 C 0.4164(3) 0.2230(3) 1.3402(3)
C2 C 0.3014(3) 0.5210(3) 1.3245(3)
C3 C 0.0673(3) 0.1363(3) 0.8723(3)
H2 H 0.0125 0.1400 0.9537
C4 C 0.1230(3) -0.0190(3) 0.7853(3)
H3 H 0.1050 -0.1209 0.8045
C5 C 0.2057(3) -0.0233(3) 0.6697(3)
H4 H 0.2453 -0.1285 0.6072
C6 C 0.2297(3) 0.1281(3) 0.6464(3)
H5 H 0.2891 0.1289 0.5696
C7 C 0.1672(3) 0.2795(3) 0.7348(3)
C8 C 0.1907(3) 0.4425(3) 0.7069(3)
H6 H 0.0714 0.4611 0.6630
H7 H 0.2397 0.4118 0.6111
C9 C 0.3142(3) 0.6248(3) 0.8763(3)
H8 H 0.4233 0.6023 0.9393
H9 H 0.3512 0.7165 0.8433
O1A O -0.2184(2) 0.3053(2) 1.0096(2)
H1A H -0.272(5) 0.203(5) 0.931(5)
N2A N -0.1855(3) 0.4718(3) 0.7805(3)
N3A N -0.0864(2) 0.7171(2) 1.1521(2)
C2A C -0.3014(3) 0.4790(3) 0.6755(3)
C3A C -0.0673(3) 0.8637(3) 1.1277(3)
H2A H -0.0125 0.8600 1.0463
C4A C -0.1230(3) 1.0190(3) 1.2147(3)
H3A H -0.1050 1.1209 1.1955
C5A C -0.2057(3) 1.0233(3) 1.3303(3)
H4A H -0.2453 1.1285 1.3928
C6A C -0.2297(3) 0.8719(3) 1.3536(3)
H5A H -0.2891 0.8711 1.4304
C7A C -0.1672(3) 0.7205(3) 1.2652(3)
C8A C -0.1907(3) 0.5575(3) 1.2931(3)
H6A H -0.0714 0.5389 1.3370
H7A H -0.2397 0.5882 1.3889
C9A C -0.3142(3) 0.3752(3) 1.1237(3)
H8A H -0.4233 0.3977 1.0607
H9A H -0.3512 0.2835 1.1567
N1A N 0.6292(3) 0.9362(3) 1.7499(3)
C1A C 0.5836(3) 0.7770(3) 1.6598(3)
Pd1_2 Pd -0.5000 0.5000 0.5000
C2A_2 C 0.6986(3) 0.4790(3) 1.6755(3)
loop_
_geom_bond_atom_site_label_1
_geom_bond_atom_site_label_2
_geom_bond_site_symmetry_1
_geom_bond_site_symmetry_2
Pd1 C1 1_555 1_555
Cu1 O1 1_555 1_555
O1 H1 1_555 1_555
N1 C1 1_555 1_555
N2 Cu1 1_555 1_555
N3 Cu1 1_555 1_555
C2 Pd1 1_555 1_555
C3 N3 1_555 1_555
H2 C3 1_555 1_555
C4 C3 1_555 1_555
H3 C4 1_555 1_555
C5 C4 1_555 1_555
H4 C5 1_555 1_555
C6 C5 1_555 1_555
H5 C6 1_555 1_555
C7 N3 1_555 1_555
C8 C7 1_555 1_555
H6 C8 1_555 1_555
H7 C8 1_555 1_555
C9 O1 1_555 1_555
H8 C9 1_555 1_555
H9 C9 1_555 1_555
O1A Cu1 1_555 1_555
H1A O1A 1_555 1_555
N2A Cu1 1_555 1_555
N3A Cu1 1_555 1_555
C2A N2A 1_555 1_555
C3A N3A 1_555 1_555
H2A C3A 1_555 1_555
C4A C3A 1_555 1_555
H3A C4A 1_555 1_555
C5A C4A 1_555 1_555
H4A C5A 1_555 1_555
C6A C5A 1_555 1_555
H5A C6A 1_555 1_555
C7A N3A 1_555 1_555
C8A C7A 1_555 1_555
H6A C8A 1_555 1_555
H7A C8A 1_555 1_555
C9A O1A 1_555 1_555
H8A C9A 1_555 1_555
H9A C9A 1_555 1_555
N1A C1A 1_555 1_555
C1A Pd1 1_555 1_555
Pd1_2 C2A 1_555 1_555
C2A_2 Pd1 1_555 1_555
N2 C2 1_555 1_555
C6 C7 1_555 1_555
C8 C9 1_555 1_555
C6A C7A 1_555 1_555
C8A C9A 1_555 1_555

#END
