
#######################################################################
#
#                 Cambridge Crystallographic Data Centre
#                                CCDC 
#
#######################################################################
#
# If this CIF has been generated from an entry in the Cambridge 
# Structural Database, then it will include bibliographic, chemical, 
# crystal, experimental, refinement or atomic coordinate data resulting 
# from the CCDC's data processing and validation procedures.
#
#######################################################################

data_TOPPOF
_symmetry_cell_setting           triclinic
_symmetry_space_group_name_H-M   'P -1'
_symmetry_Int_Tables_number      2
_space_group_name_Hall           '-P 1'
loop_
_symmetry_equiv_pos_site_id
_symmetry_equiv_pos_as_xyz
1 x,y,z
2 -x,-y,-z
_cell_length_a                   8.1344(6)
_cell_length_b                   8.2255(6)
_cell_length_c                   9.0920(7)
_cell_angle_alpha                116.110(2)
_cell_angle_beta                 105.476(3)
_cell_angle_gamma                99.156(3)
_cell_volume                     498.848
loop_
_atom_site_label
_atom_site_type_symbol
_atom_site_fract_x
_atom_site_fract_y
_atom_site_fract_z
Pd1 Pd 0.0000 0.0000 0.0000
Zn1 Zn 0.5000 0.0000 0.5000
O1 O 0.29230(14) -0.18879(15) 0.50395(15)
N1 N 0.41396(15) 0.23044(16) 0.65439(15)
N2 N 0.31266(17) -0.02551(18) 0.27008(16)
N3 N 0.12332(19) 0.44334(19) 0.2504(2)
H1 H 0.240(3) -0.292(3) 0.424(3)
C1 C 0.4402(2) 0.3844(2) 0.6358(2)
H2 H 0.4966 0.3862 0.5573
C2 C 0.3892(2) 0.5405(2) 0.7250(2)
H3 H 0.4131 0.6484 0.7107
C3 C 0.3027(2) 0.5359(2) 0.8353(2)
H4 H 0.2658 0.6408 0.8984
C4 C 0.2707(2) 0.3764(2) 0.8526(2)
H5 H 0.2090 0.3695 0.9259
C5 C 0.32927(18) 0.2258(2) 0.76211(18)
C6 C 0.2970(2) 0.0510(2) 0.7795(2)
H6 H 0.4146 0.0379 0.8300
H7 H 0.2361 0.0690 0.8638
C7 C 0.1838(2) -0.1322(2) 0.6055(2)
H8 H 0.1379 -0.2339 0.6285
H9 H 0.0794 -0.1111 0.5391
C8 C 0.19839(19) -0.01747(19) 0.17037(18)
C9 C 0.07885(18) 0.2814(2) 0.16041(19)
N2A N -0.31266(17) 0.02551(18) -0.27008(16)
N3A N -0.12332(19) -0.44334(19) -0.2504(2)
C8A C -0.19839(19) 0.01747(19) -0.17037(18)
C9A C -0.07885(18) -0.2814(2) -0.16041(19)
O1A O 0.70770(14) 0.18879(15) 0.49605(15)
N1A N 0.58604(15) -0.23044(16) 0.34561(15)
H1A H 0.760(3) 0.292(3) 0.576(3)
C1A C 0.5598(2) -0.3844(2) 0.3642(2)
H2A H 0.5034 -0.3862 0.4427
C2A C 0.6108(2) -0.5405(2) 0.2750(2)
H3A H 0.5869 -0.6484 0.2893
C3A C 0.6973(2) -0.5359(2) 0.1647(2)
H4A H 0.7342 -0.6408 0.1016
C4A C 0.7293(2) -0.3764(2) 0.1474(2)
H5A H 0.7910 -0.3695 0.0741
C5A C 0.67073(18) -0.2258(2) 0.23789(18)
C6A C 0.7030(2) -0.0510(2) 0.2205(2)
H6A H 0.5854 -0.0379 0.1700
H7A H 0.7639 -0.0690 0.1362
C7A C 0.8162(2) 0.1322(2) 0.3945(2)
H8A H 0.8621 0.2339 0.3715
H9A H 0.9206 0.1111 0.4609
Zn1_2 Zn -0.5000 0.0000 -0.5000
N2A_2 N 0.68734(17) 0.02551(18) 0.72992(16)
loop_
_geom_bond_atom_site_label_1
_geom_bond_atom_site_label_2
_geom_bond_site_symmetry_1
_geom_bond_site_symmetry_2
Pd1 C8 1_555 1_555
Zn1 O1 1_555 1_555
O1 H1 1_555 1_555
N1 Zn1 1_555 1_555
N2 Zn1 1_555 1_555
N3 C9 1_555 1_555
C1 N1 1_555 1_555
H2 C1 1_555 1_555
C2 C1 1_555 1_555
H3 C2 1_555 1_555
C3 C2 1_555 1_555
H4 C3 1_555 1_555
C4 C3 1_555 1_555
H5 C4 1_555 1_555
C5 N1 1_555 1_555
C6 C5 1_555 1_555
H6 C6 1_555 1_555
H7 C6 1_555 1_555
C7 O1 1_555 1_555
H8 C7 1_555 1_555
H9 C7 1_555 1_555
C8 N2 1_555 1_555
C9 Pd1 1_555 1_555
N2A C8A 1_555 1_555
N3A C9A 1_555 1_555
C8A Pd1 1_555 1_555
C9A Pd1 1_555 1_555
O1A Zn1 1_555 1_555
N1A Zn1 1_555 1_555
H1A O1A 1_555 1_555
C1A N1A 1_555 1_555
H2A C1A 1_555 1_555
C2A C1A 1_555 1_555
H3A C2A 1_555 1_555
C3A C2A 1_555 1_555
H4A C3A 1_555 1_555
C4A C3A 1_555 1_555
H5A C4A 1_555 1_555
C5A N1A 1_555 1_555
C6A C5A 1_555 1_555
H6A C6A 1_555 1_555
H7A C6A 1_555 1_555
C7A O1A 1_555 1_555
H8A C7A 1_555 1_555
H9A C7A 1_555 1_555
Zn1_2 N2A 1_555 1_555
N2A_2 Zn1 1_555 1_555
C4 C5 1_555 1_555
C6 C7 1_555 1_555
C4A C5A 1_555 1_555
C6A C7A 1_555 1_555

#END
