
#######################################################################
#
#                 Cambridge Crystallographic Data Centre
#                                CCDC 
#
#######################################################################
#
# If this CIF has been generated from an entry in the Cambridge 
# Structural Database, then it will include bibliographic, chemical, 
# crystal, experimental, refinement or atomic coordinate data resulting 
# from the CCDC's data processing and validation procedures.
#
#######################################################################

data_TOPQIA
_symmetry_cell_setting           triclinic
_symmetry_space_group_name_H-M   'P -1'
_symmetry_Int_Tables_number      2
_space_group_name_Hall           '-P 1'
loop_
_symmetry_equiv_pos_site_id
_symmetry_equiv_pos_as_xyz
1 x,y,z
2 -x,-y,-z
_cell_length_a                   8.4362(3)
_cell_length_b                   8.7096(3)
_cell_length_c                   13.7763(6)
_cell_angle_alpha                95.4780(10)
_cell_angle_beta                 106.4940(10)
_cell_angle_gamma                106.2740(10)
_cell_volume                     914.685
loop_
_atom_site_label
_atom_site_type_symbol
_atom_site_fract_x
_atom_site_fract_y
_atom_site_fract_z
Np1 Np 0.20344(3) 0.77653(3) 0.319961(18)
Np2 Np 0.36178(3) 0.80677(3) 0.642799(18)
O1 O 0.3670(6) 0.9766(5) 0.3293(4)
O2 O 0.0462(6) 0.5763(5) 0.3079(3)
O3 O 0.3078(6) 0.7926(5) 0.5012(3)
O4 O 0.4193(6) 0.8189(5) 0.7802(3)
O5 O 0.4039(6) 0.6318(5) 0.2923(4)
O6 O 0.5491(7) 0.5553(6) 0.1936(4)
O7 O -0.0001(6) 0.8977(5) 0.3733(3)
O8 O -0.2465(6) 0.9617(5) 0.3402(4)
N1 N 0.1967(6) 0.7055(6) 0.1335(4)
N2 N -0.0326(7) 0.8343(6) 0.1771(4)
C1 C 0.4338(8) 0.6073(7) 0.2076(5)
C2 C 0.3120(8) 0.6401(7) 0.1142(5)
C3 C 0.3202(9) 0.6069(7) 0.0153(5)
H1 H 0.4048 0.5645 0.0046
C4 C 0.2026(9) 0.6372(7) -0.0667(5)
H2 H 0.2062 0.6138 -0.1332
C5 C 0.0783(8) 0.7028(7) -0.0493(5)
C6 C 0.0813(7) 0.7358(7) 0.0546(5)
C7 C -0.0537(9) 0.7355(7) -0.1295(5)
H3 H -0.0573 0.7141 -0.1976
C8 C -0.1728(9) 0.7971(8) -0.1069(5)
H4 H -0.2559 0.8181 -0.1600
C9 C -0.1736(8) 0.8302(7) -0.0042(5)
C10 C -0.0452(8) 0.8042(6) 0.0761(5)
C11 C -0.2974(9) 0.8877(7) 0.0225(5)
H5 H -0.3863 0.9052 -0.0285
C12 C -0.2874(9) 0.9179(7) 0.1234(5)
H6 H -0.3691 0.9566 0.1418
C13 C -0.1541(8) 0.8905(7) 0.1987(5)
C14 C -0.1318(8) 0.9207(7) 0.3133(5)
O9 O 0.5907(6) 0.6782(6) 0.6403(4)
H7 H 0.594(9) 0.582(4) 0.645(5)
H8 H 0.645(9) 0.707(7) 0.598(5)
O10 O 0.0437(7) 0.7078(6) 0.6213(6)
H9 H -0.011(8) 0.610(4) 0.624(6)
H10 H -0.024(8) 0.732(8) 0.572(4)
O11 O 0.2591(6) 0.5035(6) 0.6366(4)
H11 H 0.152(3) 0.464(8) 0.609(4)
H12 H 0.284(8) 0.494(8) 0.699(2)
Np2A Np -0.36178(3) 1.19323(3) 0.357201(18)
Np2A_2 Np 0.63822(3) 1.19323(3) 0.357201(18)
O1A O 0.6330(6) 1.0234(5) 0.6707(4)
O8A O 0.2465(6) 1.0383(5) 0.6598(4)
O12 O 0.7558(8) 0.7707(7) 0.5053(4)
H13 H 0.779(10) 0.714(6) 0.460(5)
H14 H 0.818(9) 0.868(3) 0.507(6)
loop_
_geom_bond_atom_site_label_1
_geom_bond_atom_site_label_2
_geom_bond_site_symmetry_1
_geom_bond_site_symmetry_2
Np1 O1 1_555 1_555
Np2 O3 1_555 1_555
O1 Np2A_2 1_555 1_555
O2 Np1 1_555 1_555
O3 Np1 1_555 1_555
O4 Np2 1_555 1_555
O5 Np1 1_555 1_555
O6 C1 1_555 1_555
O7 Np1 1_555 1_555
O8 C14 1_555 1_555
N1 Np1 1_555 1_555
N2 Np1 1_555 1_555
C1 O5 1_555 1_555
C2 N1 1_555 1_555
C3 C2 1_555 1_555
H1 C3 1_555 1_555
C4 C3 1_555 1_555
H2 C4 1_555 1_555
C5 C4 1_555 1_555
C6 N1 1_555 1_555
C7 C5 1_555 1_555
H3 C7 1_555 1_555
C8 C7 1_555 1_555
H4 C8 1_555 1_555
C9 C8 1_555 1_555
C10 N2 1_555 1_555
C11 C9 1_555 1_555
H5 C11 1_555 1_555
C12 C11 1_555 1_555
H6 C12 1_555 1_555
C13 N2 1_555 1_555
C14 O7 1_555 1_555
O9 Np2 1_555 1_555
H7 O9 1_555 1_555
H8 O9 1_555 1_555
O10 Np2 1_555 1_555
H9 O10 1_555 1_555
H10 O10 1_555 1_555
O11 Np2 1_555 1_555
H11 O11 1_555 1_555
H12 O11 1_555 1_555
O12 H13 1_555 1_555
H14 O12 1_555 1_555
Np2A O8 1_555 1_555
O1A Np2 1_555 1_555
O8A Np2 1_555 1_555
C1 C2 1_555 1_555
C5 C6 1_555 1_555
C6 C10 1_555 1_555
C9 C10 1_555 1_555
C12 C13 1_555 1_555
C13 C14 1_555 1_555

#END
