
#######################################################################
#
#                 Cambridge Crystallographic Data Centre
#                                CCDC 
#
#######################################################################
#
# If this CIF has been generated from an entry in the Cambridge 
# Structural Database, then it will include bibliographic, chemical, 
# crystal, experimental, refinement or atomic coordinate data resulting 
# from the CCDC's data processing and validation procedures.
#
#######################################################################

data_TOPTID
_symmetry_cell_setting           monoclinic
_symmetry_space_group_name_H-M   'P 21/c'
_symmetry_Int_Tables_number      14
_space_group_name_Hall           '-P 2ybc'
loop_
_symmetry_equiv_pos_site_id
_symmetry_equiv_pos_as_xyz
1 x,y,z
2 -x,1/2+y,1/2-z
3 -x,-y,-z
4 x,1/2-y,1/2+z
_cell_length_a                   8.352(2)
_cell_length_b                   18.073(5)
_cell_length_c                   19.376(5)
_cell_angle_alpha                90
_cell_angle_beta                 102.001(4)
_cell_angle_gamma                90
_cell_volume                     2860.8
loop_
_atom_site_label
_atom_site_type_symbol
_atom_site_fract_x
_atom_site_fract_y
_atom_site_fract_z
Zn1 Zn 0.39898(10) 0.11757(4) 0.28493(4)
C1 C 0.5828(14) 0.1267(6) 0.1729(5)
C2 C 0.7128(13) 0.1747(6) 0.2181(6)
H1 H 0.7758 0.1441 0.2551
H2 H 0.7869 0.1918 0.1890
C3 C 0.6535(12) 0.2400(5) 0.2513(5)
C4 C 0.6850(12) 0.2563(6) 0.3213(5)
H3 H 0.7462 0.2273 0.3568
C5 C 0.5316(12) 0.3506(6) 0.2676(5)
C6 C 0.4396(14) 0.4142(7) 0.2493(7)
H4 H 0.4242 0.4475 0.2840
C7 C 0.3723(15) 0.4275(8) 0.1805(8)
H5 H 0.3088 0.4694 0.1673
C8 C 0.4014(17) 0.3755(10) 0.1288(7)
H6 H 0.3592 0.3858 0.0815
C9 C 0.4855(14) 0.3133(7) 0.1448(5)
H7 H 0.4971 0.2799 0.1096
C10 C 0.5567(11) 0.2986(5) 0.2158(4)
C11 C 0.5451(8) 0.1013(4) 0.4238(4)
C12 C 0.6795(9) 0.0798(5) 0.4842(4)
H8 H 0.6947 0.0267 0.4836
H9 H 0.6477 0.0926 0.5281
C13 C 0.8437(9) 0.1185(5) 0.4815(4)
C14 C 0.9701(10) 0.0872(5) 0.4586(4)
H10 H 0.9714 0.0388 0.4423
C15 C 1.0497(9) 0.2006(5) 0.4893(4)
C16 C 1.1354(11) 0.2658(6) 0.5037(4)
H11 H 1.2418 0.2699 0.4967
C17 C 1.0578(15) 0.3265(7) 0.5295(5)
H12 H 1.1135 0.3709 0.5401
C18 C 0.8981(15) 0.3192(6) 0.5388(6)
H13 H 0.8468 0.3596 0.5548
C19 C 0.8132(12) 0.2527(6) 0.5247(5)
H14 H 0.7064 0.2489 0.5315
C20 C 0.8888(9) 0.1911(5) 0.5002(4)
C21 C 0.2185(13) -0.0122(6) 0.3272(4)
H15 H 0.2736 0.0006 0.3725
C22 C 0.1212(13) -0.0739(5) 0.3181(4)
H16 H 0.1103 -0.1012 0.3575
C23 C 0.0400(9) -0.0965(4) 0.2532(4)
C24 C 0.0609(15) -0.0534(6) 0.1974(5)
H17 H 0.0128 -0.0664 0.1513
C25 C 0.1557(16) 0.0103(6) 0.2115(5)
H18 H 0.1611 0.0408 0.1734
C26 C -0.0651(9) -0.1640(4) 0.2414(4)
C27 C -0.0858(10) -0.2079(5) 0.2988(4)
H19 H -0.0328 -0.1951 0.3444
C28 C -0.1831(9) -0.2690(4) 0.2881(4)
H20 H -0.1981 -0.2967 0.3267
C29 C -0.2368(11) -0.2485(4) 0.1689(4)
H21 H -0.2897 -0.2624 0.1237
C30 C -0.1407(11) -0.1864(5) 0.1771(4)
H22 H -0.1280 -0.1596 0.1376
N1 N 0.6112(11) 0.3235(5) 0.3312(4)
H23 H 0.6152 0.3446 0.3713
N2 N 1.0929(9) 0.1354(4) 0.4626(4)
H24 H 1.1843 0.1268 0.4502
N3 N 0.2365(7) 0.0307(4) 0.2722(3)
N4 N -0.2570(7) -0.2898(3) 0.2234(3)
O1 O 0.4583(8) 0.1092(3) 0.1939(3)
O2 O 0.6051(15) 0.1037(7) 0.1144(6)
O3 O 0.5793(6) 0.1004(3) 0.3628(3)
O4 O 0.4072(7) 0.1148(3) 0.4324(3)
Zn1A Zn -0.39898(10) -0.38243(4) 0.21507(4)
N4A N 0.2570(7) 0.2102(3) 0.2766(3)
loop_
_geom_bond_atom_site_label_1
_geom_bond_atom_site_label_2
_geom_bond_site_symmetry_1
_geom_bond_site_symmetry_2
Zn1 N3 1_555 1_555
C1 C2 1_555 1_555
C2 H1 1_555 1_555
H2 C2 1_555 1_555
C3 C2 1_555 1_555
C4 C3 1_555 1_555
H3 C4 1_555 1_555
C5 C6 1_555 1_555
C6 H4 1_555 1_555
C7 C6 1_555 1_555
H5 C7 1_555 1_555
C8 C7 1_555 1_555
H6 C8 1_555 1_555
C9 C8 1_555 1_555
H7 C9 1_555 1_555
C10 C3 1_555 1_555
C11 C12 1_555 1_555
C12 H8 1_555 1_555
H9 C12 1_555 1_555
C13 C12 1_555 1_555
C14 C13 1_555 1_555
H10 C14 1_555 1_555
C15 C16 1_555 1_555
C16 H11 1_555 1_555
C17 C16 1_555 1_555
H12 C17 1_555 1_555
C18 C17 1_555 1_555
H13 C18 1_555 1_555
C19 C18 1_555 1_555
H14 C19 1_555 1_555
C20 C13 1_555 1_555
C21 H15 1_555 1_555
C22 C21 1_555 1_555
H16 C22 1_555 1_555
C23 C22 1_555 1_555
C24 C23 1_555 1_555
H17 C24 1_555 1_555
C25 C24 1_555 1_555
H18 C25 1_555 1_555
C26 C23 1_555 1_555
C27 C26 1_555 1_555
H19 C27 1_555 1_555
C28 C27 1_555 1_555
H20 C28 1_555 1_555
C29 H21 1_555 1_555
C30 C26 1_555 1_555
H22 C30 1_555 1_555
N1 C4 1_555 1_555
H23 N1 1_555 1_555
N2 C14 1_555 1_555
H24 N2 1_555 1_555
N3 C21 1_555 1_555
N4 C28 1_555 1_555
O1 Zn1 1_555 1_555
O2 C1 1_555 1_555
O3 Zn1 1_555 1_555
O4 C11 1_555 1_555
Zn1A N4 1_555 1_555
N4A Zn1 1_555 1_555
C1 O1 1_555 1_555
C5 C10 1_555 1_555
C5 N1 1_555 1_555
C9 C10 1_555 1_555
C11 O3 1_555 1_555
C15 C20 1_555 1_555
C15 N2 1_555 1_555
C19 C20 1_555 1_555
C25 N3 1_555 1_555
C29 C30 1_555 1_555
C29 N4 1_555 1_555

#END
