
#######################################################################
#
#                 Cambridge Crystallographic Data Centre
#                                CCDC 
#
#######################################################################
#
# If this CIF has been generated from an entry in the Cambridge 
# Structural Database, then it will include bibliographic, chemical, 
# crystal, experimental, refinement or atomic coordinate data resulting 
# from the CCDC's data processing and validation procedures.
#
#######################################################################

data_TOQBUW
_symmetry_cell_setting           monoclinic
_symmetry_space_group_name_H-M   'P 21/n'
_symmetry_Int_Tables_number      14
_space_group_name_Hall           '-P 2yn'
loop_
_symmetry_equiv_pos_site_id
_symmetry_equiv_pos_as_xyz
1 x,y,z
2 1/2-x,1/2+y,1/2-z
3 -x,-y,-z
4 1/2+x,1/2-y,1/2+z
_cell_length_a                   8.172(2)
_cell_length_b                   14.232(2)
_cell_length_c                   8.873(1)
_cell_angle_alpha                90
_cell_angle_beta                 109.88(1)
_cell_angle_gamma                90
_cell_volume                     970.467
loop_
_atom_site_label
_atom_site_type_symbol
_atom_site_fract_x
_atom_site_fract_y
_atom_site_fract_z
V1 V 0.31316(9) 0.13144(5) 0.40467(8)
P1 P 0.5477(1) 0.34205(7) 0.5368(1)
P2 P 0.5347(1) -0.01827(7) 0.2659(1)
Al1 Al 0.2840(2) 0.48583(9) 0.5690(1)
O1 O 0.4781(4) 0.2563(2) 0.4372(3)
O2 O 0.5090(4) 0.0672(2) 0.3581(3)
O3 O 0.5564(4) -0.1096(2) 0.3599(3)
O4 O 0.1765(4) 0.0473(2) 0.3836(4)
O5 O 0.7133(4) 0.3208(2) 0.6767(3)
O6 O 0.4078(4) 0.3824(2) 0.6015(3)
O7 O 0.5837(4) 0.4186(2) 0.4281(3)
O8 O 0.3787(4) -0.0311(2) 0.1121(4)
O9 O 0.6973(4) 0.0005(2) 0.2203(4)
N1 N -0.1946(5) 0.1629(3) 0.3287(4)
N2 N 0.1472(5) 0.2348(3) 0.4559(5)
C1 C 0.0604(7) 0.2149(4) 0.5752(6)
C2 C -0.1031(7) 0.1611(4) 0.5044(7)
O3B O 0.4436(4) 0.1096(2) 0.6401(3)
O5C O 0.2133(4) 0.1792(2) 0.1767(3)
O7B O 0.4163(4) 0.5814(2) 0.5719(3)
O8A O 0.1213(4) 0.4689(2) 0.3879(4)
O9C O 0.1973(4) 0.4995(2) 0.7203(4)
V1B V 0.68684(9) -0.13144(5) 0.59533(8)
V1C V 0.81316(9) 0.36856(5) 0.90467(8)
Al1B Al 0.7160(2) 0.51417(9) 0.4310(1)
Al1A Al 0.2160(2) -0.01417(9) -0.0690(1)
Al1C Al 0.7840(2) 0.01417(9) 0.0690(1)
loop_
_geom_bond_atom_site_label_1
_geom_bond_atom_site_label_2
_geom_bond_site_symmetry_1
_geom_bond_site_symmetry_2
V1 O1 1_555 1_555
P1 O1 1_555 1_555
P2 O2 1_555 1_555
Al1 O6 1_555 1_555
O2 V1 1_555 1_555
O3 P2 1_555 1_555
O4 V1 1_555 1_555
O5 P1 1_555 1_555
O6 P1 1_555 1_555
O7 P1 1_555 1_555
O8 P2 1_555 1_555
O9 P2 1_555 1_555
N1 C2 1_555 1_555
N2 V1 1_555 1_555
C1 N2 1_555 1_555
C2 C1 1_555 1_555
O3B V1 1_555 1_555
O5C V1 1_555 1_555
O7B Al1 1_555 1_555
O8A Al1 1_555 1_555
O9C Al1 1_555 1_555
V1B O3 1_555 1_555
V1C O5 1_555 1_555
Al1B O7 1_555 1_555
Al1A O8 1_555 1_555
Al1C O9 1_555 1_555

#END
