
#######################################################################
#
#                 Cambridge Crystallographic Data Centre
#                                CCDC 
#
#######################################################################
#
# If this CIF has been generated from an entry in the Cambridge 
# Structural Database, then it will include bibliographic, chemical, 
# crystal, experimental, refinement or atomic coordinate data resulting 
# from the CCDC's data processing and validation procedures.
#
#######################################################################

data_TOQFIO
_symmetry_cell_setting           orthorhombic
_symmetry_space_group_name_H-M   'P b c a'
_symmetry_Int_Tables_number      61
_space_group_name_Hall           '-P 2ac 2ab'
loop_
_symmetry_equiv_pos_site_id
_symmetry_equiv_pos_as_xyz
1 x,y,z
2 1/2-x,-y,1/2+z
3 1/2+x,1/2-y,-z
4 -x,1/2+y,1/2-z
5 -x,-y,-z
6 1/2+x,y,1/2-z
7 1/2-x,1/2+y,z
8 x,1/2-y,1/2+z
_cell_length_a                   15.520(3)
_cell_length_b                   11.668(2)
_cell_length_c                   19.661(4)
_cell_angle_alpha                90
_cell_angle_beta                 90
_cell_angle_gamma                90
_cell_volume                     3560.36
loop_
_atom_site_label
_atom_site_type_symbol
_atom_site_fract_x
_atom_site_fract_y
_atom_site_fract_z
Tl1 Tl 0.0000 0.0000 0.5000
S1 S 0.2325(1) 0.5325(1) 0.3394(1)
C1 C 0.1227(3) 0.3674(4) 0.3922(2)
C2 C 0.1917(3) 0.3933(4) 0.3452(2)
C3 C 0.0934(4) 0.2534(5) 0.3945(4)
C4 C 0.2890(3) 0.3676(4) 0.2648(2)
C5 C 0.3363(4) 0.3129(5) 0.2149(3)
C6 C 0.3945(4) 0.3734(6) 0.1770(3)
C7 C 0.4080(4) 0.4891(5) 0.1898(3)
C8 C 0.3628(3) 0.5462(5) 0.2387(3)
C9 C 0.3025(3) 0.4858(4) 0.2757(2)
C10 C -0.1861(4) 0.0068(6) 0.3921(4)
C11 C -0.2070(4) 0.1472(7) 0.4771(3)
C12 C -0.1581(4) 0.2306(6) 0.5192(3)
C13 C -0.0542(4) 0.2429(5) 0.6075(3)
C14 C 0.0008(4) 0.1724(5) 0.6522(3)
C15 C -0.1199(4) -0.0485(7) 0.3481(4)
O1 O 0.0259(2) 0.4145(3) 0.4691(2)
O2 O -0.1484(3) 0.0938(4) 0.4324(2)
O3 O -0.1047(3) 0.1697(3) 0.5650(2)
O4 O 0.0667(3) 0.1194(3) 0.6131(2)
N1 N 0.0887(3) 0.4489(4) 0.4296(2)
N2 N 0.2253(2) 0.3183(3) 0.3049(2)
N3 N 0.0698(4) 0.1610(6) 0.3955(4)
H1 H 0.3276(4) 0.2325(5) 0.2072(3)
H2 H 0.4259(4) 0.3361(6) 0.1412(3)
H3 H 0.4505(4) 0.5297(5) 0.1638(3)
H4 H 0.3727(3) 0.6262(5) 0.2472(3)
H5 H -0.2318(4) 0.0392(6) 0.3653(4)
H6 H -0.2100(4) -0.0516(6) 0.4208(4)
H7 H -0.2517(4) 0.1845(7) 0.4515(3)
H8 H -0.2330(4) 0.0910(7) 0.5062(3)
H9 H -0.1239(4) 0.2785(6) 0.4900(3)
H10 H -0.1973(4) 0.2784(6) 0.5441(3)
H11 H -0.0179(4) 0.2906(5) 0.5800(3)
H12 H -0.0913(4) 0.2915(5) 0.6339(3)
H13 H 0.0253(4) 0.2186(5) 0.6876(3)
H14 H -0.0341(4) 0.1141(5) 0.6729(3)
H15 H -0.0853(4) 0.0112(7) 0.3286(4)
H16 H -0.1467(4) -0.0906(7) 0.3119(4)
H17 H 0.0000 0.5000 0.5000
O4D O -0.0667(3) -0.1194(3) 0.3869(2)
O2D O 0.1484(3) -0.0938(4) 0.5676(2)
C10D C 0.1861(4) -0.0068(6) 0.6079(4)
C15D C 0.1199(4) 0.0485(7) 0.6519(4)
O3D O 0.1047(3) -0.1697(3) 0.4350(2)
C12D C 0.1581(4) -0.2306(6) 0.4808(3)
C11D C 0.2070(4) -0.1472(7) 0.5229(3)
H7D H 0.2517(4) -0.1845(7) 0.5485(3)
H8D H 0.2330(4) -0.0910(7) 0.4938(3)
H9D H 0.1239(4) -0.2785(6) 0.5100(3)
H10D H 0.1973(4) -0.2784(6) 0.4559(3)
C13D C 0.0542(4) -0.2429(5) 0.3925(3)
C14D C -0.0008(4) -0.1724(5) 0.3478(3)
H13D H -0.0253(4) -0.2186(5) 0.3124(3)
H14D H 0.0341(4) -0.1141(5) 0.3271(3)
H11D H 0.0179(4) -0.2906(5) 0.4200(3)
H12D H 0.0913(4) -0.2915(5) 0.3661(3)
O1D O -0.0259(2) 0.5855(3) 0.5309(2)
N1D N -0.0887(3) 0.5511(4) 0.5704(2)
C1D C -0.1227(3) 0.6326(4) 0.6078(2)
C2D C -0.1917(3) 0.6067(4) 0.6548(2)
S1D S -0.2325(1) 0.4675(1) 0.6606(1)
C9D C -0.3025(3) 0.5142(4) 0.7243(2)
C4D C -0.2890(3) 0.6324(4) 0.7352(2)
C5D C -0.3363(4) 0.6871(5) 0.7851(3)
C6D C -0.3945(4) 0.6266(6) 0.8230(3)
C7D C -0.4080(4) 0.5109(5) 0.8102(3)
C8D C -0.3628(3) 0.4538(5) 0.7613(3)
H4D H -0.3727(3) 0.3738(5) 0.7528(3)
H3D H -0.4505(4) 0.4703(5) 0.8362(3)
H2D H -0.4259(4) 0.6639(6) 0.8588(3)
H1D H -0.3276(4) 0.7675(5) 0.7928(3)
N2D N -0.2253(2) 0.6817(3) 0.6951(2)
C3D C -0.0934(4) 0.7466(5) 0.6055(4)
N3D N -0.0698(4) 0.8390(6) 0.6045(4)
Tl1D Tl 0.0000 1.0000 0.5000
N3D_2 N -0.0698(4) -0.1610(6) 0.6045(4)
H15D H 0.0853(4) -0.0112(7) 0.6714(4)
H16D H 0.1467(4) 0.0906(7) 0.6881(4)
H5D H 0.2318(4) -0.0392(6) 0.6347(4)
H6D H 0.2100(4) 0.0516(6) 0.5792(4)
loop_
_geom_bond_atom_site_label_1
_geom_bond_atom_site_label_2
_geom_bond_site_symmetry_1
_geom_bond_site_symmetry_2
Tl1 O2 1_555 1_555
S1 C2 1_555 1_555
C1 C2 1_555 1_555
C2 N2 1_555 1_555
C3 C1 1_555 1_555
C4 C5 1_555 1_555
C5 C6 1_555 1_555
C6 C7 1_555 1_555
C7 C8 1_555 1_555
C8 C9 1_555 1_555
C9 S1 1_555 1_555
C10 C15 1_555 1_555
C11 C12 1_555 1_555
C12 O3 1_555 1_555
C13 C14 1_555 1_555
C14 O4 1_555 1_555
C15 H15 1_555 1_555
O1 N1 1_555 1_555
O2 C10 1_555 1_555
O3 Tl1 1_555 1_555
O4 Tl1 1_555 1_555
N1 C1 1_555 1_555
N2 C4 1_555 1_555
N3 Tl1 1_555 1_555
H1 C5 1_555 1_555
H2 C6 1_555 1_555
H3 C7 1_555 1_555
H4 C8 1_555 1_555
H5 C10 1_555 1_555
H6 C10 1_555 1_555
H7 C11 1_555 1_555
H8 C11 1_555 1_555
H9 C12 1_555 1_555
H10 C12 1_555 1_555
H11 C13 1_555 1_555
H12 C13 1_555 1_555
H13 C14 1_555 1_555
H14 C14 1_555 1_555
H16 C15 1_555 1_555
H17 O1 1_555 1_555
O4D Tl1 1_555 1_555
O2D Tl1 1_555 1_555
C10D O2D 1_555 1_555
C15D O4 1_555 1_555
O3D Tl1 1_555 1_555
C12D O3D 1_555 1_555
C11D O2D 1_555 1_555
H7D C11D 1_555 1_555
H8D C11D 1_555 1_555
H9D C12D 1_555 1_555
H10D C12D 1_555 1_555
C13D O3D 1_555 1_555
C14D O4D 1_555 1_555
H13D C14D 1_555 1_555
H14D C14D 1_555 1_555
H11D C13D 1_555 1_555
H12D C13D 1_555 1_555
O1D H17 1_555 1_555
N1D O1D 1_555 1_555
C1D N1D 1_555 1_555
C2D C1D 1_555 1_555
S1D C2D 1_555 1_555
C9D S1D 1_555 1_555
C4D C9D 1_555 1_555
C5D C4D 1_555 1_555
C6D C5D 1_555 1_555
C7D C6D 1_555 1_555
C8D C9D 1_555 1_555
H4D C8D 1_555 1_555
H3D C7D 1_555 1_555
H2D C6D 1_555 1_555
H1D C5D 1_555 1_555
N2D C2D 1_555 1_555
C3D C1D 1_555 1_555
N3D C3D 1_555 1_555
Tl1D N3D 1_555 1_555
N3D_2 Tl1 1_555 1_555
H15D C15D 1_555 1_555
H16D C15D 1_555 1_555
H5D C10D 1_555 1_555
H6D C10D 1_555 1_555
C3 N3 1_555 1_555
C4 C9 1_555 1_555
C11 O2 1_555 1_555
C13 O3 1_555 1_555
C15 O4D 1_555 1_555
C10D C15D 1_555 1_555
C12D C11D 1_555 1_555
C13D C14D 1_555 1_555
C4D N2D 1_555 1_555
C7D C8D 1_555 1_555

#END
