
#######################################################################
#
#                 Cambridge Crystallographic Data Centre
#                                CCDC 
#
#######################################################################
#
# If this CIF has been generated from an entry in the Cambridge 
# Structural Database, then it will include bibliographic, chemical, 
# crystal, experimental, refinement or atomic coordinate data resulting 
# from the CCDC's data processing and validation procedures.
#
#######################################################################

data_TOQGIR
_symmetry_cell_setting           triclinic
_symmetry_space_group_name_H-M   'P -1'
_symmetry_Int_Tables_number      2
_space_group_name_Hall           '-P 1'
loop_
_symmetry_equiv_pos_site_id
_symmetry_equiv_pos_as_xyz
1 x,y,z
2 -x,-y,-z
_cell_length_a                   8.7130(3)
_cell_length_b                   8.7732(3)
_cell_length_c                   10.9176(4)
_cell_angle_alpha                75.090(3)
_cell_angle_beta                 74.071(3)
_cell_angle_gamma                64.286(2)
_cell_volume                     713.774
loop_
_atom_site_label
_atom_site_type_symbol
_atom_site_fract_x
_atom_site_fract_y
_atom_site_fract_z
Ni1 Ni 1.0000 1.0000 1.0000
Ni2 Ni 0.5000 0.5000 0.5000
Cu1 Cu 0.84568(3) 0.64456(3) 0.76093(3)
N1 N 1.3712(2) 0.7966(2) 1.03697(19)
N2 N 0.9864(2) 0.7316(2) 0.88223(19)
N3 N 0.7198(2) 0.5619(2) 0.6362(2)
N4 N 0.7280(2) 0.1226(2) 0.51835(19)
N5 N 0.0585(2) 1.4088(2) 0.75328(17)
N6 N 0.6444(2) 0.8859(2) 0.7770(2)
H1 H 0.609(3) 0.894(3) 0.857(3)
H2 H 0.685(3) 0.960(3) 0.738(2)
N7 N 0.9604(3) 0.7421(3) 0.5939(2)
H3 H 0.998(4) 0.678(4) 0.541(3)
H4 H 1.044(4) 0.763(4) 0.597(3)
H5 H 0.893(4) 0.837(4) 0.561(3)
N8 N 0.7319(3) 0.5416(3) 0.9258(2)
H6 H 0.637(4) 0.616(3) 0.963(3)
H7 H 0.707(3) 0.466(4) 0.911(3)
H8 H 0.800(4) 0.497(4) 0.975(3)
C1 C 1.2300(3) 0.8718(3) 1.0228(2)
C2 C 0.9960(3) 0.8315(3) 0.9271(2)
C3 C 0.6374(3) 0.5359(3) 0.5845(2)
C4 C 0.6418(3) 0.2664(3) 0.5106(2)
C5 C 0.0452(3) 1.2732(3) 0.7280(2)
H9 H -0.0638 1.2855 0.7161
C6 C 0.1829(3) 1.1172(3) 0.7185(2)
H10 H 0.1678 1.0255 0.6991
C7 C 0.3439(3) 1.0938(3) 0.7374(2)
C8 C 0.3559(3) 1.2321(3) 0.7671(2)
H11 H 0.4619 1.2212 0.7838
C9 C 0.2135(3) 1.3859(3) 0.7725(2)
H12 H 0.2258 1.4799 0.7906
C10 C 0.4934(3) 0.9232(3) 0.7217(2)
H13 H 0.4493 0.8315 0.7614
H14 H 0.5333 0.9172 0.6283
Cu1A Cu 0.15432(3) 0.35544(3) 0.23907(3)
N2A N 0.0136(2) 0.2684(2) 0.11777(19)
N3A N 0.2802(2) 0.4381(2) 0.3638(2)
N4A N 0.2720(2) 0.8774(2) 0.48165(19)
N5A N 0.9415(2) -0.4088(2) 0.24672(17)
N6A N 0.3556(2) 0.1141(2) 0.2230(2)
H1A H 0.391(3) 0.106(3) 0.143(3)
H2A H 0.315(3) 0.040(3) 0.262(2)
N7A N 0.0396(3) 0.2579(3) 0.4061(2)
H3A H 0.002(4) 0.322(4) 0.459(3)
H4A H -0.044(4) 0.237(4) 0.403(3)
H5A H 0.107(4) 0.163(4) 0.439(3)
N8A N 0.2681(3) 0.4584(3) 0.0742(2)
H6A H 0.363(4) 0.384(3) 0.037(3)
H7A H 0.293(3) 0.534(4) 0.089(3)
H8A H 0.200(4) 0.503(4) 0.025(3)
C2A C 0.0040(3) 0.1685(3) 0.0729(2)
C3A C 0.3626(3) 0.4641(3) 0.4155(2)
C4A C 0.3582(3) 0.7336(3) 0.4894(2)
C5A C 0.9548(3) -0.2732(3) 0.2720(2)
H9A H 1.0638 -0.2855 0.2839
C6A C 0.8171(3) -0.1172(3) 0.2815(2)
H10A H 0.8322 -0.0255 0.3009
C7A C 0.6561(3) -0.0938(3) 0.2626(2)
C8A C 0.6441(3) -0.2321(3) 0.2329(2)
H11A H 0.5381 -0.2212 0.2162
C9A C 0.7865(3) -0.3859(3) 0.2275(2)
H12A H 0.7742 -0.4799 0.2094
C10A C 0.5066(3) 0.0768(3) 0.2783(2)
H13A H 0.5507 0.1685 0.2386
H14A H 0.4667 0.0828 0.3717
N1A N 0.6288(2) 1.2034(2) 0.96303(19)
C1A C 0.7700(3) 1.1282(3) 0.9772(2)
Ni1_2 Ni 0.0000 0.0000 0.0000
Cu1_2 Cu -0.15432(3) 1.64456(3) 0.76093(3)
Cu1A_2 Cu 1.15432(3) -0.64456(3) 0.23907(3)
N5_2 N 1.0585(2) 0.4088(2) 0.75328(17)
N5A_2 N -0.0585(2) 0.5912(2) 0.24672(17)
C2A_2 C 1.0040(3) 1.1685(3) 1.0729(2)
loop_
_geom_bond_atom_site_label_1
_geom_bond_atom_site_label_2
_geom_bond_site_symmetry_1
_geom_bond_site_symmetry_2
Ni1 C1 1_555 1_555
Ni2 C3 1_555 1_555
Cu1 N2 1_555 1_555
N1 C1 1_555 1_555
N2 C2 1_555 1_555
N3 Cu1 1_555 1_555
N4 C4 1_555 1_555
N5 C5 1_555 1_555
N6 Cu1 1_555 1_555
H1 N6 1_555 1_555
H2 N6 1_555 1_555
N7 Cu1 1_555 1_555
H3 N7 1_555 1_555
H4 N7 1_555 1_555
H5 N7 1_555 1_555
N8 Cu1 1_555 1_555
H6 N8 1_555 1_555
H7 N8 1_555 1_555
H8 N8 1_555 1_555
C2 Ni1 1_555 1_555
C3 N3 1_555 1_555
C4 Ni2 1_555 1_555
C5 H9 1_555 1_555
C6 C5 1_555 1_555
H10 C6 1_555 1_555
C7 C6 1_555 1_555
C8 C7 1_555 1_555
H11 C8 1_555 1_555
C9 N5 1_555 1_555
H12 C9 1_555 1_555
C10 N6 1_555 1_555
H13 C10 1_555 1_555
H14 C10 1_555 1_555
Cu1A N2A 1_555 1_555
N2A C2A 1_555 1_555
N3A Cu1A 1_555 1_555
N4A C4A 1_555 1_555
N5A C5A 1_555 1_555
N6A Cu1A 1_555 1_555
H1A N6A 1_555 1_555
H2A N6A 1_555 1_555
N7A Cu1A 1_555 1_555
H3A N7A 1_555 1_555
H4A N7A 1_555 1_555
H5A N7A 1_555 1_555
N8A Cu1A 1_555 1_555
H6A N8A 1_555 1_555
H7A N8A 1_555 1_555
H8A N8A 1_555 1_555
C2A Ni1_2 1_555 1_555
C3A Ni2 1_555 1_555
C4A Ni2 1_555 1_555
C5A H9A 1_555 1_555
C6A C5A 1_555 1_555
H10A C6A 1_555 1_555
C7A C6A 1_555 1_555
C8A C7A 1_555 1_555
H11A C8A 1_555 1_555
C9A N5A 1_555 1_555
H12A C9A 1_555 1_555
C10A N6A 1_555 1_555
H13A C10A 1_555 1_555
H14A C10A 1_555 1_555
N1A C1A 1_555 1_555
C1A Ni1 1_555 1_555
Cu1_2 N5 1_555 1_555
Cu1A_2 N5A 1_555 1_555
N5_2 Cu1 1_555 1_555
N5A_2 Cu1A 1_555 1_555
C2A_2 Ni1 1_555 1_555
C7 C10 1_555 1_555
C8 C9 1_555 1_555
N3A C3A 1_555 1_555
C7A C10A 1_555 1_555
C8A C9A 1_555 1_555

#END
