
#######################################################################
#
#                 Cambridge Crystallographic Data Centre
#                                CCDC 
#
#######################################################################
#
# If this CIF has been generated from an entry in the Cambridge 
# Structural Database, then it will include bibliographic, chemical, 
# crystal, experimental, refinement or atomic coordinate data resulting 
# from the CCDC's data processing and validation procedures.
#
#######################################################################

data_TOQGAJ
_symmetry_cell_setting           triclinic
_symmetry_space_group_name_H-M   'P -1'
_symmetry_Int_Tables_number      2
_space_group_name_Hall           '-P 1'
loop_
_symmetry_equiv_pos_site_id
_symmetry_equiv_pos_as_xyz
1 x,y,z
2 -x,-y,-z
_cell_length_a                   8.8948(2)
_cell_length_b                   9.0074(2)
_cell_length_c                   11.0092(3)
_cell_angle_alpha                75.371(2)
_cell_angle_beta                 74.223(3)
_cell_angle_gamma                62.610(2)
_cell_volume                     745.226
loop_
_atom_site_label
_atom_site_type_symbol
_atom_site_fract_x
_atom_site_fract_y
_atom_site_fract_z
Pt1 Pt 0.5000 0.5000 0.0000
Pt2 Pt 1.0000 1.0000 0.5000
Cu1 Cu 0.64650(10) 0.86347(9) 0.24002(7)
N1 N 0.1132(6) 0.7131(6) -0.0317(4)
N2 N 0.5144(6) 0.7771(6) 0.1153(4)
N3 N 0.7658(6) 0.9333(5) 0.3739(5)
N4 N 0.7632(6) 1.3895(6) 0.4664(5)
N5 N 1.4344(6) 0.0984(5) 0.2484(4)
N6 N 0.8488(9) 0.6253(9) 0.2195(6)
H1 H 0.8063 0.5448 0.2531
H2 H 0.8893 0.6192 0.1338
N7 N 0.7618(6) 0.9650(6) 0.0824(5)
H3 H 0.697(10) 0.997(9) 0.034(7)
H4 H 0.796(9) 1.025(9) 0.105(7)
H5 H 0.857(11) 0.889(11) 0.043(8)
N8 N 0.5270(5) 0.7681(5) 0.3987(4)
H6 H 0.444(6) 0.755(8) 0.383(6)
H7 H 0.507(11) 0.840(8) 0.448(6)
H8 H 0.590(10) 0.667(5) 0.433(8)
C1 C 0.2551(6) 0.6370(6) -0.0203(5)
C2 C 0.5055(6) 0.6765(6) 0.0745(5)
C3 C 0.8508(6) 0.9584(6) 0.4197(5)
C4 C 0.8498(6) 1.2479(6) 0.4788(5)
C5 C 0.9963(6) 0.5831(6) 0.2817(5)
H9 H 0.9523 0.5872 0.3742
H10 H 1.0385 0.6726 0.2475
C6 C 1.1490(8) 0.4131(7) 0.2659(5)
C7 C 1.1407(6) 0.2809(6) 0.2271(5)
H11 H 1.0381 0.2958 0.2049
C8 C 1.2849(8) 0.1277(7) 0.2216(5)
H12 H 1.2766 0.0382 0.1971
C9 C 1.4424(7) 0.2280(6) 0.2820(5)
H13 H 1.5485 0.2118 0.2989
C10 C 1.3037(6) 0.3836(6) 0.2931(4)
H14 H 1.3152 0.4700 0.3194
Cu1A Cu 0.35350(10) 0.13653(9) -0.24002(7)
N1A N 0.8868(6) 0.2869(6) 0.0317(4)
N2A N 0.4856(6) 0.2229(6) -0.1153(4)
N3A N 0.2342(6) 0.0667(5) -0.3739(5)
N5A N -0.4344(6) 0.9016(5) -0.2484(4)
N6A N 0.1512(9) 0.3747(9) -0.2195(6)
H1A H 0.1937 0.4552 -0.2531
H2A H 0.1107 0.3808 -0.1338
N7A N 0.2382(6) 0.0350(6) -0.0824(5)
H3A H 0.303(10) 0.003(9) -0.034(7)
H4A H 0.204(9) -0.025(9) -0.105(7)
H5A H 0.143(11) 0.111(11) -0.043(8)
N8A N 0.4730(5) 0.2319(5) -0.3987(4)
H6A H 0.556(6) 0.245(8) -0.383(6)
H7A H 0.493(11) 0.160(8) -0.448(6)
H8A H 0.410(10) 0.333(5) -0.433(8)
C1A C 0.7449(6) 0.3630(6) 0.0203(5)
C2A C 0.4945(6) 0.3235(6) -0.0745(5)
C3A C 0.1492(6) 0.0416(6) -0.4197(5)
C5A C 0.0037(6) 0.4169(6) -0.2817(5)
H9A H 0.0477 0.4128 -0.3742
H10A H -0.0385 0.3274 -0.2475
C6A C -0.1490(8) 0.5869(7) -0.2659(5)
C7A C -0.1407(6) 0.7191(6) -0.2271(5)
H11A H -0.0381 0.7042 -0.2049
C8A C -0.2849(8) 0.8723(7) -0.2216(5)
H12A H -0.2766 0.9618 -0.1971
C9A C -0.4424(7) 0.7720(6) -0.2820(5)
H13A H -0.5485 0.7882 -0.2989
C10A C -0.3037(6) 0.6164(6) -0.2931(4)
H14A H -0.3152 0.5300 -0.3194
N4A N 1.2368(6) 0.6105(6) 0.5336(5)
C4A C 1.1502(6) 0.7521(6) 0.5212(5)
Pt2_2 Pt 0.0000 0.0000 -0.5000
Cu1_2 Cu 1.64650(10) -0.13653(9) 0.24002(7)
Cu1A_2 Cu -0.64650(10) 1.13653(9) -0.24002(7)
N5_2 N 0.4344(6) 1.0984(5) 0.2484(4)
N5A_2 N 0.5656(6) -0.0984(5) -0.2484(4)
C3A_2 C 1.1492(6) 1.0416(6) 0.5803(5)
loop_
_geom_bond_atom_site_label_1
_geom_bond_atom_site_label_2
_geom_bond_site_symmetry_1
_geom_bond_site_symmetry_2
Pt1 C1 1_555 1_555
Pt2 C3 1_555 1_555
Cu1 N2 1_555 1_555
N1 C1 1_555 1_555
N2 C2 1_555 1_555
N3 Cu1 1_555 1_555
N4 C4 1_555 1_555
N5 C8 1_555 1_555
N6 Cu1 1_555 1_555
H1 N6 1_555 1_555
H2 N6 1_555 1_555
N7 Cu1 1_555 1_555
H3 N7 1_555 1_555
H4 N7 1_555 1_555
H5 N7 1_555 1_555
N8 Cu1 1_555 1_555
H6 N8 1_555 1_555
H7 N8 1_555 1_555
H8 N8 1_555 1_555
C2 Pt1 1_555 1_555
C3 N3 1_555 1_555
C4 Pt2 1_555 1_555
C5 N6 1_555 1_555
H9 C5 1_555 1_555
H10 C5 1_555 1_555
C6 C5 1_555 1_555
C7 C6 1_555 1_555
H11 C7 1_555 1_555
C8 C7 1_555 1_555
H12 C8 1_555 1_555
C9 N5 1_555 1_555
H13 C9 1_555 1_555
C10 C6 1_555 1_555
H14 C10 1_555 1_555
Cu1A N2A 1_555 1_555
N1A C1A 1_555 1_555
N2A C2A 1_555 1_555
N3A Cu1A 1_555 1_555
N5A C8A 1_555 1_555
N6A Cu1A 1_555 1_555
H1A N6A 1_555 1_555
H2A N6A 1_555 1_555
N7A Cu1A 1_555 1_555
H3A N7A 1_555 1_555
H4A N7A 1_555 1_555
H5A N7A 1_555 1_555
N8A Cu1A 1_555 1_555
H6A N8A 1_555 1_555
H7A N8A 1_555 1_555
H8A N8A 1_555 1_555
C1A Pt1 1_555 1_555
C2A Pt1 1_555 1_555
C3A N3A 1_555 1_555
C5A N6A 1_555 1_555
H9A C5A 1_555 1_555
H10A C5A 1_555 1_555
C6A C5A 1_555 1_555
C7A C6A 1_555 1_555
H11A C7A 1_555 1_555
C8A C7A 1_555 1_555
H12A C8A 1_555 1_555
C9A N5A 1_555 1_555
H13A C9A 1_555 1_555
C10A C6A 1_555 1_555
H14A C10A 1_555 1_555
N4A C4A 1_555 1_555
C4A Pt2 1_555 1_555
Pt2_2 C3A 1_555 1_555
Cu1_2 N5 1_555 1_555
Cu1A_2 N5A 1_555 1_555
N5_2 Cu1 1_555 1_555
N5A_2 Cu1A 1_555 1_555
C3A_2 Pt2 1_555 1_555
C9 C10 1_555 1_555
C9A C10A 1_555 1_555

#END
