
#######################################################################
#
#                 Cambridge Crystallographic Data Centre
#                                CCDC 
#
#######################################################################
#
# If this CIF has been generated from an entry in the Cambridge 
# Structural Database, then it will include bibliographic, chemical, 
# crystal, experimental, refinement or atomic coordinate data resulting 
# from the CCDC's data processing and validation procedures.
#
#######################################################################

data_TOQREX
_symmetry_cell_setting           monoclinic
_symmetry_space_group_name_H-M   'C 2/c'
_symmetry_Int_Tables_number      15
_space_group_name_Hall           '-C 2yn'
loop_
_symmetry_equiv_pos_site_id
_symmetry_equiv_pos_as_xyz
1 x,y,z
2 -x,y,1/2-z
3 1/2+x,1/2+y,z
4 1/2-x,1/2+y,1/2-z
5 -x,-y,-z
6 x,-y,1/2+z
7 1/2-x,1/2-y,-z
8 1/2+x,1/2-y,1/2+z
_cell_length_a                   27.083(2)
_cell_length_b                   6.7649(6)
_cell_length_c                   9.4850(8)
_cell_angle_alpha                90
_cell_angle_beta                 95.844(2)
_cell_angle_gamma                90
_cell_volume                     1728.75
loop_
_atom_site_label
_atom_site_type_symbol
_atom_site_fract_x
_atom_site_fract_y
_atom_site_fract_z
Co1 Co 0.5000 0.80555(7) 0.2500
Co2 Co 0.5000 1.5000 0.0000
O1 O 0.44956(7) 1.0124(3) 0.2859(2)
O2 O 0.39052(7) 0.9069(3) 0.1216(2)
O3 O 0.44567(7) 1.3891(3) 0.11637(18)
O4 O 0.45518(6) 1.5779(2) 0.31089(18)
O5 O 0.53072(7) 0.7814(3) 0.4747(2)
C1 C 0.40644(10) 1.0221(4) 0.2175(3)
C2 C 0.37172(9) 1.1781(4) 0.2632(3)
C3 C 0.32228(10) 1.1010(4) 0.2959(4)
H1 H 0.3267 1.0230 0.3821
H2 H 0.3089 1.0149 0.2196
C4 C 0.28545(11) 1.2660(5) 0.3145(4)
H3 H 0.2735 1.3198 0.2225
H4 H 0.2572 1.2135 0.3575
C5 C 0.30946(11) 1.4280(5) 0.4068(4)
H5 H 0.3217 1.3739 0.4985
H6 H 0.2850 1.5285 0.4217
C6 C 0.35222(11) 1.5211(4) 0.3386(3)
H7 H 0.3390 1.6100 0.2638
H8 H 0.3722 1.5986 0.4090
C7 C 0.38462(9) 1.3686(4) 0.2775(3)
C8 C 0.43206(9) 1.4460(4) 0.2309(3)
H9 H 0.5603(6) 0.804(7) 0.456(5)
H10 H 0.5296(12) 0.850(4) 0.549(2)
Co1_2 Co 0.5000 1.80555(7) 0.2500
Co2A Co 0.5000 1.5000 0.5000
Co2A_2 Co 0.5000 0.5000 0.5000
Co2_2 Co 0.5000 0.5000 0.0000
O1A O 0.55044(7) 1.0124(3) 0.2141(2)
O2A O 0.60948(7) 0.9069(3) 0.3784(2)
O3A O 0.55433(7) 1.3891(3) 0.38363(18)
O3D O 0.55433(7) 1.6109(3) -0.11637(18)
O4A O 0.54482(6) 1.5779(2) 0.18911(18)
O4_2 O 0.45518(6) 0.5779(2) 0.31089(18)
O4A_2 O 0.54482(6) 0.5779(2) 0.18911(18)
O4E O 0.45518(6) 1.4221(2) -0.18911(18)
O5A O 0.46928(7) 0.7814(3) 0.0253(2)
O5A_2 O 0.46928(7) 1.7814(3) 0.0253(2)
O5E O 0.53072(7) 1.2186(3) -0.0253(2)
C1A C 0.59356(10) 1.0221(4) 0.2825(3)
C2A C 0.62828(9) 1.1781(4) 0.2368(3)
C3A C 0.67772(10) 1.1010(4) 0.2041(4)
H1A H 0.6733 1.0230 0.1179
H2A H 0.6911 1.0149 0.2804
C4A C 0.71455(11) 1.2660(5) 0.1855(4)
H3A H 0.7265 1.3198 0.2775
H4A H 0.7428 1.2135 0.1425
C5A C 0.69054(11) 1.4280(5) 0.0932(4)
H5A H 0.6783 1.3739 0.0015
H6A H 0.7150 1.5285 0.0783
C6A C 0.64778(11) 1.5211(4) 0.1614(3)
H7A H 0.6610 1.6100 0.2362
H8A H 0.6278 1.5986 0.0910
C7A C 0.61538(9) 1.3686(4) 0.2225(3)
C8A C 0.56794(9) 1.4460(4) 0.2691(3)
H9A H 0.4397(6) 0.804(7) 0.044(5)
H9A_2 H 0.4397(6) 1.804(7) 0.044(5)
H9E H 0.5603(6) 1.196(7) -0.044(5)
H10A H 0.4704(12) 0.850(4) -0.049(2)
H10A_2 H 0.4704(12) 1.850(4) -0.049(2)
H10E H 0.5296(12) 1.150(4) 0.049(2)
loop_
_geom_bond_atom_site_label_1
_geom_bond_atom_site_label_2
_geom_bond_site_symmetry_1
_geom_bond_site_symmetry_2
Co1 O1 1_555 1_555
Co2 O3 1_555 1_555
O1 C1 1_555 1_555
O2 C1 1_555 1_555
O3 C8 1_555 1_555
O4 C8 1_555 1_555
O5 Co1 1_555 1_555
C1 C2 1_555 1_555
C2 C3 1_555 1_555
C3 H1 1_555 1_555
H2 C3 1_555 1_555
C4 C3 1_555 1_555
H3 C4 1_555 1_555
H4 C4 1_555 1_555
C5 C4 1_555 1_555
H5 C5 1_555 1_555
H6 C5 1_555 1_555
C6 C5 1_555 1_555
H7 C6 1_555 1_555
H8 C6 1_555 1_555
C7 C2 1_555 1_555
C8 C7 1_555 1_555
H9 O5 1_555 1_555
H10 O5 1_555 1_555
Co1_2 O4 1_555 1_555
Co2A O4 1_555 1_555
Co2A_2 O5 1_555 1_555
Co2_2 O4A_2 1_555 1_555
O1A Co1 1_555 1_555
O2A C1A 1_555 1_555
O3A Co2A 1_555 1_555
O3D Co2 1_555 1_555
O4A Co2 1_555 1_555
O4_2 Co1 1_555 1_555
O4A_2 Co1 1_555 1_555
O4E Co2 1_555 1_555
O5A Co1 1_555 1_555
O5A_2 Co2 1_555 1_555
O5E Co2 1_555 1_555
C1A O1A 1_555 1_555
C2A C1A 1_555 1_555
C3A C2A 1_555 1_555
H1A C3A 1_555 1_555
H2A C3A 1_555 1_555
C4A C3A 1_555 1_555
H3A C4A 1_555 1_555
H4A C4A 1_555 1_555
C5A C4A 1_555 1_555
H5A C5A 1_555 1_555
H6A C5A 1_555 1_555
C6A C5A 1_555 1_555
H7A C6A 1_555 1_555
H8A C6A 1_555 1_555
C7A C2A 1_555 1_555
C8A O3A 1_555 1_555
H9A O5A 1_555 1_555
H9A_2 O5A_2 1_555 1_555
H9E O5E 1_555 1_555
H10A O5A 1_555 1_555
H10A_2 O5A_2 1_555 1_555
H10E O5E 1_555 1_555
C6 C7 1_555 1_555
Co1_2 O4A 1_555 1_555
Co1_2 O5A_2 1_555 1_555
Co2A_2 O4_2 1_555 1_555
Co2_2 O5A 1_555 1_555
O4A C8A 1_555 1_555
C6A C7A 1_555 1_555
C7A C8A 1_555 1_555

#END
