
#######################################################################
#
#                 Cambridge Crystallographic Data Centre
#                                CCDC 
#
#######################################################################
#
# If this CIF has been generated from an entry in the Cambridge 
# Structural Database, then it will include bibliographic, chemical, 
# crystal, experimental, refinement or atomic coordinate data resulting 
# from the CCDC's data processing and validation procedures.
#
#######################################################################

data_TOQROH
_symmetry_cell_setting           triclinic
_symmetry_space_group_name_H-M   'P -1'
_symmetry_Int_Tables_number      2
_space_group_name_Hall           '-P 1'
loop_
_symmetry_equiv_pos_site_id
_symmetry_equiv_pos_as_xyz
1 x,y,z
2 -x,-y,-z
_cell_length_a                   5.2211(6)
_cell_length_b                   6.5621(8)
_cell_length_c                   13.3603(16)
_cell_angle_alpha                99.450(2)
_cell_angle_beta                 98.571(2)
_cell_angle_gamma                102.775(2)
_cell_volume                     432.103
loop_
_atom_site_label
_atom_site_type_symbol
_atom_site_fract_x
_atom_site_fract_y
_atom_site_fract_z
Fe1 Fe 0.26760(6) 0.11356(5) 0.04611(3)
O1 O 0.3210(3) -0.1605(3) -0.06449(13)
O2 O -0.1036(3) -0.3292(3) -0.13109(15)
O3 O 0.2069(4) -0.7456(3) -0.07380(14)
O4 O -0.2062(4) -0.9279(3) -0.15055(14)
C1 C 0.2280(5) -0.4609(4) -0.20600(18)
H1 H 0.4039 -0.4764 -0.1758
C2 C 0.2552(6) -0.3593(4) -0.3009(2)
H2 H 0.0844 -0.3361 -0.3293
H3 H 0.3845 -0.2216 -0.2800
C3 C 0.3447(7) -0.5011(5) -0.3834(2)
H4 H 0.3484 -0.4378 -0.4440
H5 H 0.5248 -0.5102 -0.3576
C4 C 0.1590(8) -0.7236(5) -0.4134(2)
H6 H 0.2297 -0.8130 -0.4618
H7 H -0.0152 -0.7164 -0.4478
C5 C 0.1275(7) -0.8238(4) -0.3194(2)
H8 H 0.2976 -0.8464 -0.2897
H9 H -0.0011 -0.9618 -0.3408
C6 C 0.0327(5) -0.6813(4) -0.23711(19)
H10 H -0.1440 -0.6660 -0.2664
C7 C 0.1399(4) -0.3097(4) -0.12765(18)
C8 C 0.0080(5) -0.7912(4) -0.14635(19)
Fe1A Fe 0.73240(6) -0.11356(5) -0.04611(3)
Fe1A_2 Fe -0.26760(6) -0.11356(5) -0.04611(3)
Fe1_2 Fe 0.26760(6) -0.88644(5) 0.04611(3)
Fe1A_3 Fe -0.26760(6) -1.11356(5) -0.04611(3)
O1A O 0.6790(3) 0.1605(3) 0.06449(13)
O2A O 0.1036(3) 0.3292(3) 0.13109(15)
O3_2 O 0.2069(4) 0.2544(3) -0.07380(14)
O4A O 0.2062(4) -0.0721(3) 0.15055(14)
loop_
_geom_bond_atom_site_label_1
_geom_bond_atom_site_label_2
_geom_bond_site_symmetry_1
_geom_bond_site_symmetry_2
Fe1 O1 1_555 1_555
O1 C7 1_555 1_555
O2 C7 1_555 1_555
O3 C8 1_555 1_555
O4 C8 1_555 1_555
C1 H1 1_555 1_555
C2 C1 1_555 1_555
H2 C2 1_555 1_555
H3 C2 1_555 1_555
C3 C2 1_555 1_555
H4 C3 1_555 1_555
H5 C3 1_555 1_555
C4 C3 1_555 1_555
H6 C4 1_555 1_555
H7 C4 1_555 1_555
C5 C4 1_555 1_555
H8 C5 1_555 1_555
H9 C5 1_555 1_555
C6 C1 1_555 1_555
H10 C6 1_555 1_555
C7 C1 1_555 1_555
C8 C6 1_555 1_555
Fe1A O1 1_555 1_555
Fe1A_2 O2 1_555 1_555
Fe1_2 O3 1_555 1_555
Fe1A_3 O4 1_555 1_555
O1A Fe1 1_555 1_555
O2A Fe1 1_555 1_555
O3_2 Fe1 1_555 1_555
O4A Fe1 1_555 1_555
C5 C6 1_555 1_555
Fe1A O1A 1_555 1_555

#END
