
#######################################################################
#
#                 Cambridge Crystallographic Data Centre
#                                CCDC 
#
#######################################################################
#
# If this CIF has been generated from an entry in the Cambridge 
# Structural Database, then it will include bibliographic, chemical, 
# crystal, experimental, refinement or atomic coordinate data resulting 
# from the CCDC's data processing and validation procedures.
#
#######################################################################

data_TORJIV
_symmetry_cell_setting           orthorhombic
_symmetry_space_group_name_H-M   'P n m a'
_symmetry_Int_Tables_number      62
_space_group_name_Hall           '-P 2ac 2n'
loop_
_symmetry_equiv_pos_site_id
_symmetry_equiv_pos_as_xyz
1 x,y,z
2 1/2-x,-y,1/2+z
3 -x,1/2+y,-z
4 1/2+x,1/2-y,1/2-z
5 -x,-y,-z
6 1/2+x,y,1/2-z
7 x,1/2-y,z
8 1/2-x,1/2+y,1/2+z
_cell_length_a                   10.902(9)
_cell_length_b                   16.715(12)
_cell_length_c                   19.201(15)
_cell_angle_alpha                90
_cell_angle_beta                 90
_cell_angle_gamma                90
_cell_volume                     3498.94
loop_
_atom_site_label
_atom_site_type_symbol
_atom_site_fract_x
_atom_site_fract_y
_atom_site_fract_z
N1 N -0.0775(8) 0.2500 0.4633(6)
Tb1 Tb -0.20767(5) 0.2500 0.79635(3)
O1 O -0.3108(10) 0.2500 0.6941(5)
O2 O -0.5100(7) 0.2500 0.6640(5)
O3 O -0.1505(11) 0.2500 0.3383(6)
H1 H -0.1456 0.2500 0.2957
O4 O -0.3521(17) 0.2500 0.3149(8)
O5 O -0.1349(6) -0.1480(4) 0.3135(4)
O6 O -0.2799(6) -0.1555(5) 0.3932(4)
C1 C -0.3935(13) 0.2500 0.6514(8)
C2 C -0.3650(10) 0.2500 0.5715(7)
C3 C -0.4556(12) 0.2500 0.5229(9)
H2 H -0.5379 0.2500 0.5358
C4 C -0.4213(14) 0.2500 0.4544(10)
H3 H -0.4817 0.2500 0.4203
C5 C -0.2980(11) 0.2500 0.4342(8)
C6 C -0.2084(9) 0.2500 0.4859(8)
C7 C -0.2421(11) 0.2500 0.5536(7)
H4 H -0.1825 0.2500 0.5883
C8 C -0.2697(16) 0.2500 0.3573(11)
C9 C -0.0140(8) 0.1767(5) 0.4911(5)
H5 H -0.0252 0.1740 0.5412
H6 H 0.0733 0.1806 0.4818
C10 C -0.0646(7) 0.1004(5) 0.4576(5)
C11 C -0.0196(9) 0.0758(6) 0.3933(6)
H7 H 0.0385 0.1065 0.3701
C12 C -0.0623(9) 0.0047(5) 0.3640(6)
H8 H -0.0335 -0.0110 0.3205
C13 C -0.1464(7) -0.0428(5) 0.3983(5)
C14 C -0.1918(8) -0.0174(6) 0.4628(6)
H9 H -0.2501 -0.0480 0.4860
C15 C -0.1492(9) 0.0549(5) 0.4928(6)
H10 H -0.1783 0.0715 0.5360
C16 C -0.1878(8) -0.1179(5) 0.3676(6)
O7 O -0.1090(6) 0.1468(4) 0.7321(5)
H11 H -0.1420 0.1211 0.6988
H12 H -0.0246 0.1426 0.7454
O5F O -0.1349(6) 0.6480(4) 0.3135(4)
O6F O -0.2799(6) 0.6555(5) 0.3932(4)
C9F C -0.0140(8) 0.3233(5) 0.4911(5)
H5F H -0.0252 0.3260 0.5412
H6F H 0.0733 0.3194 0.4818
C10F C -0.0646(7) 0.3996(5) 0.4576(5)
C11F C -0.0196(9) 0.4242(6) 0.3933(6)
H7F H 0.0385 0.3935 0.3701
C12F C -0.0623(9) 0.4953(5) 0.3640(6)
H8F H -0.0335 0.5110 0.3205
C13F C -0.1464(7) 0.5428(5) 0.3983(5)
C14F C -0.1918(8) 0.5174(6) 0.4628(6)
H9F H -0.2501 0.5480 0.4860
C15F C -0.1492(9) 0.4451(5) 0.4928(6)
H10F H -0.1783 0.4285 0.5360
C16F C -0.1878(8) 0.6179(5) 0.3676(6)
O7F O -0.1090(6) 0.3532(4) 0.7321(5)
H11F H -0.1420 0.3789 0.6988
H12F H -0.0246 0.3574 0.7454
Tb1A Tb -0.29233(5) -0.2500 0.29635(3)
Tb1A_2 Tb -0.29233(5) 0.7500 0.29635(3)
Tb1C Tb -0.70767(5) 0.2500 0.70365(3)
O2C O -0.0100(7) 0.2500 0.8360(5)
O5A O -0.3651(6) 0.1480(4) 0.8135(4)
O5G O -0.3651(6) 0.3520(4) 0.8135(4)
O6A O -0.2201(6) 0.1555(5) 0.8932(4)
O6G O -0.2201(6) 0.3445(5) 0.8932(4)
O8 O -0.373(5) 0.2500 0.171(3)
H13 H -0.4499 0.2500 0.1764
H14 H -0.3648 0.2500 0.2170
N2 N -0.4105(16) -0.0429(11) 0.6619(7)
O9 O -0.2452(19) 0.0408(16) 0.6714(13)
C17 C -0.5382(18) -0.049(2) 0.6358(13)
H15 H -0.5725 -0.0994 0.6493
H16 H -0.5383 -0.0446 0.5859
H17 H -0.5865 -0.0063 0.6553
C18 C -0.355(4) -0.1146(15) 0.6933(15)
H18 H -0.3097 -0.0996 0.7341
H19 H -0.3010 -0.1394 0.6603
H20 H -0.4186 -0.1516 0.7060
C19 C -0.3477(19) 0.0340(11) 0.6574(12)
H21 H -0.3914 0.0787 0.6428
C20? C -0.458(5) -0.1247(18) 0.674(2)
H22? H -0.4008 -0.1542 0.7019
H23? H -0.4686 -0.1513 0.6300
H24? H -0.5355 -0.1217 0.6975
C21? C -0.477(3) 0.019(2) 0.6210(18)
H25? H -0.4239 0.0643 0.6140
H26? H -0.5487 0.0354 0.6458
H27? H -0.4997 -0.0028 0.5766
C22? C -0.287(3) -0.022(2) 0.689(2)
H28? H -0.2447 -0.0565 0.7190
loop_
_geom_bond_atom_site_label_1
_geom_bond_atom_site_label_2
_geom_bond_site_symmetry_1
_geom_bond_site_symmetry_2
N1 C6 1_555 1_555
Tb1 O1 1_555 1_555
O1 C1 1_555 1_555
O2 C1 1_555 1_555
O3 H1 1_555 1_555
O4 C8 1_555 1_555
O5 C16 1_555 1_555
O6 C16 1_555 1_555
C1 C2 1_555 1_555
C2 C3 1_555 1_555
C3 H2 1_555 1_555
C4 C3 1_555 1_555
H3 C4 1_555 1_555
C5 C4 1_555 1_555
C6 C5 1_555 1_555
C7 C2 1_555 1_555
H4 C7 1_555 1_555
C8 O3 1_555 1_555
C9 N1 1_555 1_555
H5 C9 1_555 1_555
H6 C9 1_555 1_555
C10 C9 1_555 1_555
C11 C10 1_555 1_555
H7 C11 1_555 1_555
C12 C11 1_555 1_555
H8 C12 1_555 1_555
C13 C12 1_555 1_555
C14 C13 1_555 1_555
H9 C14 1_555 1_555
C15 C10 1_555 1_555
H10 C15 1_555 1_555
C16 C13 1_555 1_555
O7 Tb1 1_555 1_555
H11 O7 1_555 1_555
H12 O7 1_555 1_555
O8 H13 1_555 1_555
H14 O8 1_555 1_555
N2 C17 1_555 1_555
O9 C19 1_555 1_555
C17 H15 1_555 1_555
H16 C17 1_555 1_555
H17 C17 1_555 1_555
C18 N2 1_555 1_555
H18 C18 1_555 1_555
H19 C18 1_555 1_555
H20 C18 1_555 1_555
C19 N2 1_555 1_555
H21 C19 1_555 1_555
O5F C16F 1_555 1_555
O6F C16F 1_555 1_555
C9F N1 1_555 1_555
H5F C9F 1_555 1_555
H6F C9F 1_555 1_555
C10F C9F 1_555 1_555
C11F C10F 1_555 1_555
H7F C11F 1_555 1_555
C12F C11F 1_555 1_555
H8F C12F 1_555 1_555
C13F C12F 1_555 1_555
C14F C13F 1_555 1_555
H9F C14F 1_555 1_555
C15F C10F 1_555 1_555
H10F C15F 1_555 1_555
C16F C13F 1_555 1_555
O7F Tb1 1_555 1_555
H11F O7F 1_555 1_555
H12F O7F 1_555 1_555
Tb1A O5 1_555 1_555
Tb1A_2 O5F 1_555 1_555
Tb1C O2 1_555 1_555
O2C Tb1 1_555 1_555
O5A Tb1 1_555 1_555
O5G Tb1 1_555 1_555
O6A Tb1 1_555 1_555
O6G Tb1 1_555 1_555
O6 Tb1A 1_555 1_555
C5 C8 1_555 1_555
C6 C7 1_555 1_555
C14 C15 1_555 1_555
O6F Tb1A_2 1_555 1_555
C14F C15F 1_555 1_555

#END
