
#######################################################################
#
#                 Cambridge Crystallographic Data Centre
#                                CCDC 
#
#######################################################################
#
# If this CIF has been generated from an entry in the Cambridge 
# Structural Database, then it will include bibliographic, chemical, 
# crystal, experimental, refinement or atomic coordinate data resulting 
# from the CCDC's data processing and validation procedures.
#
#######################################################################

data_TORSID
_symmetry_cell_setting           monoclinic
_symmetry_space_group_name_H-M   'P 21/c'
_symmetry_Int_Tables_number      14
_space_group_name_Hall           '-P 2ybc'
loop_
_symmetry_equiv_pos_site_id
_symmetry_equiv_pos_as_xyz
1 x,y,z
2 -x,1/2+y,1/2-z
3 -x,-y,-z
4 x,1/2-y,1/2+z
_cell_length_a                   9.1055(16)
_cell_length_b                   10.1079(10)
_cell_length_c                   22.766(4)
_cell_angle_alpha                90
_cell_angle_beta                 104.921(13)
_cell_angle_gamma                90
_cell_volume                     2024.67
loop_
_atom_site_label
_atom_site_type_symbol
_atom_site_fract_x
_atom_site_fract_y
_atom_site_fract_z
Ho1 Ho 0.2346(2) 0.12636(16) 0.22372(9)
N1 N 0.318(4) 0.105(4) 0.334(2)
N2 N 0.082(6) -0.051(4) 0.250(2)
N3 N -0.077(4) -0.163(3) 0.2927(16)
N4 N 0.426(7) 0.311(5) 0.259(3)
N5 N 0.641(5) 0.420(3) 0.295(2)
N6 N -0.043(4) -0.242(3) 0.2526(16)
N7 N -0.220(4) 0.084(4) 0.0710(19)
N8 N 0.017(5) 0.088(4) 0.131(2)
N9 N 0.334(5) 0.181(4) 0.136(2)
N10 N 0.532(4) 0.502(3) 0.2589(16)
N11 N 0.368(4) 0.255(3) 0.0480(16)
N12 N 0.486(5) 0.167(4) 0.072(2)
H1 H 0.5680 0.1480 0.0595
N13 N 0.348(5) -0.002(4) 0.428(2)
N14 N -0.134(5) 0.006(4) 0.042(2)
H2 H -0.1614 -0.0332 0.0060
N15 N 0.331(6) 0.129(6) 0.430(3)
H3 H 0.3322 0.1699 0.4646
C1 C 0.559(6) 0.310(4) 0.293(2)
H4 H 0.6001 0.2341 0.3161
C2 C 0.045(7) -0.174(5) 0.226(3)
H5 H 0.0806 -0.2079 0.1933
C3 C 0.445(7) 0.129(6) 0.110(3)
H6 H 0.4918 0.0488 0.1273
C4 C -0.001(6) -0.056(4) 0.291(3)
H7 H -0.0040 0.0163 0.3170
C5 C -0.115(6) 0.132(4) 0.124(2)
H8 H -0.1427 0.1911 0.1518
C6 C 0.398(7) 0.439(4) 0.236(2)
H9 H 0.3069 0.4739 0.2103
C7 C 0.277(4) 0.249(4) 0.0845(19)
H10 H 0.1798 0.2901 0.0754
C8 C 0.343(5) -0.004(4) 0.3685(18)
H11 H 0.3584 -0.0862 0.3502
C9 C 0.001(5) 0.006(4) 0.083(2)
H12 H 0.0822 -0.0485 0.0785
C10 C 0.310(5) 0.194(5) 0.377(2)
H13 H 0.2935 0.2859 0.3705
Ho1A Ho -0.2346(2) -0.37364(16) 0.27628(9)
Ho1A_2 Ho 0.7654(2) 0.62636(16) 0.27628(9)
N3A N 0.077(4) 0.337(3) 0.2073(16)
N5A N 0.359(5) -0.080(3) 0.205(2)
N6A N 0.043(4) 0.258(3) 0.2474(16)
N10A N 0.468(4) 0.002(3) 0.2411(16)
N16 N 0.223(5) 0.621(5) 0.014(2)
H14 H 0.2758 0.6129 -0.0132
N17 N 0.170(5) 0.636(6) 0.102(2)
N18 N 0.078(5) 0.657(3) 0.000(2)
C11 C 0.051(6) 0.661(4) 0.053(3)
H15 H -0.0478 0.6799 0.0575
C12 C 0.278(9) 0.600(6) 0.073(4)
H16 H 0.3758 0.5661 0.0915
loop_
_geom_bond_atom_site_label_1
_geom_bond_atom_site_label_2
_geom_bond_site_symmetry_1
_geom_bond_site_symmetry_2
Ho1 N1 1_555 1_555
N1 C8 1_555 1_555
N2 Ho1 1_555 1_555
N3 N6 1_555 1_555
N4 Ho1 1_555 1_555
N5 N10 1_555 1_555
N6 C2 1_555 1_555
N7 N14 1_555 1_555
N8 Ho1 1_555 1_555
N9 Ho1 1_555 1_555
N10 C6 1_555 1_555
N11 N12 1_555 1_555
N12 H1 1_555 1_555
N13 N15 1_555 1_555
N14 H2 1_555 1_555
N15 H3 1_555 1_555
C1 N4 1_555 1_555
H4 C1 1_555 1_555
C2 N2 1_555 1_555
H5 C2 1_555 1_555
C3 N9 1_555 1_555
H6 C3 1_555 1_555
C4 N2 1_555 1_555
H7 C4 1_555 1_555
C5 N7 1_555 1_555
H8 C5 1_555 1_555
C6 N4 1_555 1_555
H9 C6 1_555 1_555
C7 N9 1_555 1_555
H10 C7 1_555 1_555
C8 N13 1_555 1_555
H11 C8 1_555 1_555
C9 N8 1_555 1_555
H12 C9 1_555 1_555
C10 N1 1_555 1_555
H13 C10 1_555 1_555
N16 H14 1_555 1_555
N17 C11 1_555 1_555
N18 N16 1_555 1_555
C11 N18 1_555 1_555
H15 C11 1_555 1_555
C12 N16 1_555 1_555
H16 C12 1_555 1_555
Ho1A N3 1_555 1_555
Ho1A_2 N5 1_555 1_555
N3A Ho1 1_555 1_555
N5A Ho1 1_555 1_555
N6A Ho1 1_555 1_555
N10A Ho1 1_555 1_555
N3 C4 1_555 1_555
N5 C1 1_555 1_555
N6 Ho1A 1_555 1_555
N8 C5 1_555 1_555
N10 Ho1A_2 1_555 1_555
N11 C7 1_555 1_555
N12 C3 1_555 1_555
N14 C9 1_555 1_555
N15 C10 1_555 1_555
N17 C12 1_555 1_555
N3A N6A 1_555 1_555
N5A N10A 1_555 1_555

#END
