
#######################################################################
#
#                 Cambridge Crystallographic Data Centre
#                                CCDC 
#
#######################################################################
#
# If this CIF has been generated from an entry in the Cambridge 
# Structural Database, then it will include bibliographic, chemical, 
# crystal, experimental, refinement or atomic coordinate data resulting 
# from the CCDC's data processing and validation procedures.
#
#######################################################################

data_TORVEB
_symmetry_cell_setting           monoclinic
_symmetry_space_group_name_H-M   'P 21/c'
_symmetry_Int_Tables_number      14
_space_group_name_Hall           '-P 2ybc'
loop_
_symmetry_equiv_pos_site_id
_symmetry_equiv_pos_as_xyz
1 x,y,z
2 -x,1/2+y,1/2-z
3 -x,-y,-z
4 x,1/2-y,1/2+z
_cell_length_a                   8.674(4)
_cell_length_b                   13.416(8)
_cell_length_c                   27.82(2)
_cell_angle_alpha                90
_cell_angle_beta                 107.30(3)
_cell_angle_gamma                90
_cell_volume                     3090.97
loop_
_atom_site_label
_atom_site_type_symbol
_atom_site_fract_x
_atom_site_fract_y
_atom_site_fract_z
Mn1 Mn 0.4628(2) 0.2606(1) 0.3758(1)
Cr1 Cr 0.0877(2) 0.2596(1) 0.5059(1)
Cr2 Cr 0.8383(2) 0.2621(1) 0.2449(1)
O1 O 0.4279(7) 0.3477(5) 0.4485(3)
O2 O 0.2952(7) 0.1690(5) 0.4057(3)
O3 O 0.4960(7) 0.3459(5) 0.3014(3)
O4 O 0.6339(7) 0.1719(5) 0.3459(2)
O5 O 0.2715(6) 0.3362(4) 0.4988(2)
O6 O 0.1348(7) 0.1754(5) 0.4543(2)
O7 O 0.6518(6) 0.3379(4) 0.2508(2)
O8 O 0.7850(7) 0.1740(4) 0.2935(2)
O9 O -0.1106(6) 0.1842(4) 0.4999(2)
O10 O -0.0567(7) 0.3468(4) 0.4570(2)
O11 O -0.0165(7) 0.3447(5) 0.2968(2)
O12 O 0.0352(7) 0.1848(5) 0.2514(2)
O13 O 0.6351(7) 0.1756(5) 0.4502(3)
O14 O 0.6895(7) 0.3513(4) 0.4056(2)
O15 O 0.2354(7) 0.3500(5) 0.3464(2)
O16 O 0.2874(7) 0.1736(5) 0.3026(3)
N1 N -0.2919(8) 0.1824(5) 0.1828(3)
N2 N -0.1332(8) 0.3513(5) 0.1875(3)
N3 N 0.0721(8) 0.3389(5) 0.5670(3)
N4 N 0.2269(8) 0.1757(5) 0.5638(3)
C1 C 0.3254(9) 0.3064(7) 0.4627(4)
C2 C 0.2479(9) 0.2088(7) 0.4379(3)
C3 C 0.6011(9) 0.3059(7) 0.2864(3)
C4 C 0.6761(9) 0.2109(7) 0.3120(3)
C5 C 0.1261(10) 0.3106(7) 0.3133(3)
C6 C 0.1564(10) 0.2141(6) 0.2885(3)
C7 C 0.7695(9) 0.2149(7) 0.4643(4)
C8 C 0.7975(10) 0.3126(7) 0.4393(3)
C9 C -0.3702(10) 0.0992(7) 0.1848(4)
C10 C -0.4564(10) 0.0502(7) 0.1409(4)
C11 C -0.4555(10) 0.0891(7) 0.0950(4)
C12 C -0.3797(10) 0.1757(7) 0.0930(4)
C13 C -0.2943(9) 0.2218(6) 0.1384(3)
C14 C -0.2063(9) 0.3147(7) 0.1402(3)
C15 C -0.1919(10) 0.3683(7) 0.0986(4)
C16 C -0.1059(10) 0.4543(7) 0.1058(4)
C17 C -0.0325(10) 0.4885(7) 0.1539(4)
C18 C -0.0521(10) 0.4361(7) 0.1939(4)
C19 C -0.0132(11) 0.4234(7) 0.5647(4)
C20 C -0.0172(11) 0.4741(7) 0.6081(4)
C21 C 0.0720(12) 0.4362(8) 0.6544(4)
C22 C 0.1605(11) 0.3505(7) 0.6567(4)
C23 C 0.1550(9) 0.3019(7) 0.6124(3)
C24 C 0.2449(10) 0.2108(7) 0.6109(4)
C25 C 0.3366(10) 0.1611(7) 0.6531(4)
C26 C 0.4180(10) 0.0728(7) 0.6466(4)
C27 C 0.4006(11) 0.0386(8) 0.5992(4)
C28 C 0.3011(11) 0.0895(7) 0.5592(4)
H1 H -0.3671 0.0716 0.2170
H2 H -0.5166 -0.0091 0.1425
H3 H -0.5092 0.0540 0.0646
H4 H -0.3828 0.2053 0.0613
H5 H -0.2429 0.3441 0.0652
H6 H -0.0955 0.4916 0.0775
H7 H 0.0312 0.5483 0.1594
H8 H -0.0045 0.4609 0.2274
H9 H -0.0751 0.4493 0.5326
H10 H -0.0779 0.5345 0.6065
H11 H 0.0721 0.4699 0.6848
H12 H 0.2248 0.3248 0.6886
H13 H 0.3446 0.1851 0.6862
O9_2 O 0.8894(6) 0.1842(4) 0.4999(2)
Cr1_2 Cr 1.0877(2) 0.2596(1) 0.5059(1)
O10_2 O 0.9433(7) 0.3468(4) 0.4570(2)
Cr2_2 Cr -0.1617(2) 0.2621(1) 0.2449(1)
O7_2 O -0.3482(6) 0.3379(4) 0.2508(2)
O8_2 O -0.2150(7) 0.1740(4) 0.2935(2)
loop_
_geom_bond_atom_site_label_1
_geom_bond_atom_site_label_2
_geom_bond_site_symmetry_1
_geom_bond_site_symmetry_2
Mn1 O1 1_555 1_555
Cr1 O5 1_555 1_555
Cr2 O7 1_555 1_555
O1 C1 1_555 1_555
O2 Mn1 1_555 1_555
O3 Mn1 1_555 1_555
O4 Mn1 1_555 1_555
O5 C1 1_555 1_555
O6 Cr1 1_555 1_555
O7 C3 1_555 1_555
O8 Cr2 1_555 1_555
O9 Cr1 1_555 1_555
O10 Cr1 1_555 1_555
O11 C5 1_555 1_555
O12 C6 1_555 1_555
O13 Mn1 1_555 1_555
O14 Mn1 1_555 1_555
O15 Mn1 1_555 1_555
O16 Mn1 1_555 1_555
N1 C9 1_555 1_555
N2 C14 1_555 1_555
N3 Cr1 1_555 1_555
N4 Cr1 1_555 1_555
C1 C2 1_555 1_555
C2 O2 1_555 1_555
C3 O3 1_555 1_555
C4 O4 1_555 1_555
C5 O15 1_555 1_555
C6 O16 1_555 1_555
C7 O13 1_555 1_555
C8 O14 1_555 1_555
C9 C10 1_555 1_555
C10 C11 1_555 1_555
C11 C12 1_555 1_555
C12 C13 1_555 1_555
C13 N1 1_555 1_555
C14 C13 1_555 1_555
C15 C14 1_555 1_555
C16 C15 1_555 1_555
C17 C16 1_555 1_555
C18 N2 1_555 1_555
C19 N3 1_555 1_555
C20 C19 1_555 1_555
C21 C20 1_555 1_555
C22 C21 1_555 1_555
C23 N3 1_555 1_555
C24 N4 1_555 1_555
C25 C24 1_555 1_555
C26 C25 1_555 1_555
C27 C26 1_555 1_555
C28 N4 1_555 1_555
H1 C9 1_555 1_555
H2 C10 1_555 1_555
H3 C11 1_555 1_555
H4 C12 1_555 1_555
H5 C15 1_555 1_555
H6 C16 1_555 1_555
H7 C17 1_555 1_555
H8 C18 1_555 1_555
H9 C19 1_555 1_555
H10 C20 1_555 1_555
H11 C21 1_555 1_555
H12 C22 1_555 1_555
H13 C25 1_555 1_555
O9_2 C7 1_555 1_555
Cr1_2 O9_2 1_555 1_555
O10_2 C8 1_555 1_555
Cr2_2 O11 1_555 1_555
O7_2 Cr2_2 1_555 1_555
O8_2 Cr2_2 1_555 1_555
O6 C2 1_555 1_555
O8 C4 1_555 1_555
O12 Cr2_2 1_555 1_555
N1 Cr2_2 1_555 1_555
N2 Cr2_2 1_555 1_555
C3 C4 1_555 1_555
C5 C6 1_555 1_555
C7 C8 1_555 1_555
C17 C18 1_555 1_555
C22 C23 1_555 1_555
C23 C24 1_555 1_555
C27 C28 1_555 1_555
Cr1_2 O10_2 1_555 1_555

#END
