
#######################################################################
#
#                 Cambridge Crystallographic Data Centre
#                                CCDC 
#
#######################################################################
#
# If this CIF has been generated from an entry in the Cambridge 
# Structural Database, then it will include bibliographic, chemical, 
# crystal, experimental, refinement or atomic coordinate data resulting 
# from the CCDC's data processing and validation procedures.
#
#######################################################################

data_TORVIG
_symmetry_cell_setting           triclinic
_symmetry_space_group_name_H-M   'P -1'
_symmetry_Int_Tables_number      2
_space_group_name_Hall           '-P 1'
loop_
_symmetry_equiv_pos_site_id
_symmetry_equiv_pos_as_xyz
1 x,y,z
2 -x,-y,-z
_cell_length_a                   12.7635(17)
_cell_length_b                   14.9031(19)
_cell_length_c                   15.198(2)
_cell_angle_alpha                68.796(2)
_cell_angle_beta                 84.210(3)
_cell_angle_gamma                78.093(2)
_cell_volume                     2636.1
loop_
_atom_site_label
_atom_site_type_symbol
_atom_site_fract_x
_atom_site_fract_y
_atom_site_fract_z
Cd1 Cd 0.44411(3) 0.20628(2) 0.22697(2)
Cd2 Cd -0.18996(3) 0.57652(3) 0.39252(3)
N1 N 0.3663(4) 0.1965(3) 0.0920(3)
N2 N 0.5817(3) 0.1558(3) 0.1193(3)
N3 N 0.4081(3) 0.3838(3) 0.1490(3)
N4 N 0.5784(3) 0.2790(3) 0.2584(3)
N5 N -0.1920(3) 0.4069(3) 0.4806(3)
N6 N -0.3606(3) 0.5394(3) 0.3844(3)
O1 O 0.2760(2) 0.2092(2) 0.2837(2)
O2 O 0.2900(3) 0.2936(3) 0.3744(3)
O3 O -0.0008(3) 0.5086(2) 0.3684(2)
O4 O -0.1160(3) 0.5419(2) 0.2578(2)
O5 O 0.5184(3) 0.0768(2) 0.3436(2)
O6 O 0.4702(3) -0.0334(3) 0.2976(3)
O7 O 0.8874(3) -0.2638(3) 0.3311(3)
O8 O 0.7189(3) -0.2661(3) 0.3312(3)
O9 O -0.1877(3) 0.5785(3) 0.5411(2)
H1 H -0.2205 0.6189 0.5667
H2 H -0.1287 0.5508 0.5686
C1 C 0.2377(4) 0.2554(3) 0.3393(3)
C2 C 0.1162(4) 0.2629(4) 0.3580(3)
H10 H 0.1017 0.2006 0.4020
H11 H 0.0905 0.3119 0.3871
C3 C 0.0564(4) 0.2897(4) 0.2693(4)
C4 C 0.0280(4) 0.2172(4) 0.2445(5)
H12 H 0.0418 0.1528 0.2860
C5 C -0.0199(5) 0.2374(6) 0.1609(6)
H13 H -0.0377 0.1873 0.1458
C6 C -0.0411(5) 0.3317(7) 0.1001(5)
H14 H -0.0735 0.3459 0.0433
C7 C -0.0149(5) 0.4066(5) 0.1220(4)
H15 H -0.0302 0.4707 0.0800
C8 C 0.0344(4) 0.3866(4) 0.2066(3)
C9 C 0.0634(4) 0.4688(3) 0.2296(3)
H16 H 0.0753 0.5211 0.1712
H17 H 0.1299 0.4450 0.2634
C10 C -0.0232(4) 0.5098(3) 0.2893(4)
C11 C 0.5222(4) -0.0094(4) 0.3468(4)
C12 C 0.5979(4) -0.0889(3) 0.4195(4)
H18 H 0.5643 -0.1013 0.4819
H19 H 0.6092 -0.1490 0.4060
C13 C 0.7050(4) -0.0610(3) 0.4197(3)
C14 C 0.7243(4) -0.0246(4) 0.4873(4)
H20 H 0.6724 -0.0211 0.5340
C15 C 0.8191(5) 0.0064(4) 0.4865(4)
H21 H 0.8307 0.0304 0.5325
C16 C 0.8956(4) 0.0018(4) 0.4184(4)
H22 H 0.9595 0.0228 0.4178
C17 C 0.8783(4) -0.0337(3) 0.3505(4)
H23 H 0.9306 -0.0358 0.3036
C18 C 0.7843(4) -0.0665(3) 0.3505(3)
C19 C 0.7696(4) -0.1093(3) 0.2771(3)
H24 H 0.8167 -0.0858 0.2229
H25 H 0.6964 -0.0871 0.2559
C20 C 0.7936(5) -0.2210(4) 0.3160(4)
C21 C 0.2625(5) 0.2203(4) 0.0757(4)
H26 H 0.2163 0.2403 0.1192
C22 C 0.2192(5) 0.2168(5) -0.0024(4)
H27 H 0.1457 0.2344 -0.0111
C23 C 0.2854(6) 0.1874(5) -0.0663(4)
H28 H 0.2573 0.1853 -0.1194
C24 C 0.3952(5) 0.1604(4) -0.0527(4)
C25 C 0.4328(5) 0.1673(4) 0.0283(3)
C26 C 0.5461(5) 0.1444(3) 0.0438(3)
C27 C 0.6170(5) 0.1113(4) -0.0202(4)
C28 C 0.7261(6) 0.0896(5) -0.0026(5)
H29 H 0.7752 0.0668 -0.0428
C29 C 0.7606(5) 0.1017(4) 0.0735(5)
H30 H 0.8332 0.0883 0.0855
C30 C 0.6857(5) 0.1343(4) 0.1326(4)
H31 H 0.7101 0.1415 0.1849
C31 C 0.4706(7) 0.1271(5) -0.1163(4)
H32 H 0.4461 0.1222 -0.1697
C32 C 0.5750(7) 0.1031(5) -0.0997(5)
H33 H 0.6218 0.0803 -0.1412
C33 C 0.3217(5) 0.4372(4) 0.1007(4)
H34 H 0.2663 0.4059 0.0989
C34 C 0.3102(5) 0.5377(5) 0.0527(4)
H35 H 0.2483 0.5725 0.0199
C35 C 0.3901(5) 0.5841(4) 0.0542(4)
H36 H 0.3834 0.6510 0.0216
C36 C 0.4826(5) 0.5325(4) 0.1043(3)
C37 C 0.4862(4) 0.4313(3) 0.1520(3)
C38 C 0.5786(4) 0.3748(3) 0.2077(3)
C39 C 0.6638(4) 0.4204(4) 0.2107(3)
C40 C 0.7502(4) 0.3634(4) 0.2672(4)
H37 H 0.8084 0.3909 0.2699
C41 C 0.7488(4) 0.2680(4) 0.3179(4)
H38 H 0.8058 0.2296 0.3560
C42 C 0.6615(4) 0.2281(4) 0.3125(4)
H39 H 0.6612 0.1626 0.3484
C43 C 0.5705(5) 0.5755(4) 0.1096(4)
H40 H 0.5674 0.6423 0.0781
C44 C 0.6579(5) 0.5224(4) 0.1588(4)
H41 H 0.7149 0.5524 0.1590
C45 C -0.1105(4) 0.3425(4) 0.5263(4)
H42 H -0.0455 0.3627 0.5227
C46 C -0.1172(5) 0.2453(4) 0.5799(4)
H43 H -0.0581 0.2024 0.6119
C47 C -0.2112(6) 0.2145(4) 0.5845(4)
H44 H -0.2166 0.1499 0.6197
C48 C -0.3005(5) 0.2799(4) 0.5364(4)
C49 C -0.2862(4) 0.3767(3) 0.4844(3)
C50 C -0.3744(4) 0.4456(4) 0.4324(3)
C51 C -0.4708(4) 0.4149(4) 0.4307(4)
C52 C -0.5535(4) 0.4851(5) 0.3767(4)
H45 H -0.6186 0.4677 0.3737
C53 C -0.5384(4) 0.5772(5) 0.3294(4)
H46 H -0.5927 0.6235 0.2931
C54 C -0.4409(4) 0.6032(4) 0.3350(4)
H47 H -0.4320 0.6675 0.3029
C55 C -0.4010(5) 0.2521(4) 0.5352(4)
H48 H -0.4106 0.1887 0.5706
C56 C -0.4811(5) 0.3161(5) 0.4840(4)
H49 H -0.5450 0.2958 0.4831
Cd2_2 Cd 0.81004(3) -0.42348(3) 0.39252(3)
O7_2 O -0.1126(3) 0.7362(3) 0.3311(3)
O8_2 O -0.2811(3) 0.7339(3) 0.3312(3)
O10 O 0.2533(3) 0.0229(3) 0.2739(3)
H3 H 0.2476 0.0802 0.2754
H4 H 0.3189 -0.0044 0.2808
O11 O 0.1054(5) 0.9913(4) 0.1705(4)
H5 H 0.0916 0.9342 0.1851
H6 H 0.1516 0.9896 0.2079
O12 O 0.0324(6) 0.8147(5) 0.1904(5)
H7 H -0.0075 0.7950 0.2362
C57 C 0.0738(11) 0.7390(9) 0.1553(9)
H50 H 0.0886 0.7649 0.0878
H51 H 0.0244 0.6940 0.1680
C58 C 0.1828(10) 0.6860(9) 0.2121(9)
H52 H 0.2210 0.7346 0.2133
H53 H 0.2267 0.6449 0.1813
H54 H 0.1657 0.6468 0.2756
O13 O 0.0259(7) 0.0767(7) 0.9992(7)
H8 H 0.0741 0.0693 1.0372
H9 H 0.0390 0.1185 0.9459
loop_
_geom_bond_atom_site_label_1
_geom_bond_atom_site_label_2
_geom_bond_site_symmetry_1
_geom_bond_site_symmetry_2
Cd1 N1 1_555 1_555
Cd2 N5 1_555 1_555
N1 C21 1_555 1_555
N2 Cd1 1_555 1_555
N3 Cd1 1_555 1_555
N4 Cd1 1_555 1_555
N5 C45 1_555 1_555
N6 Cd2 1_555 1_555
O1 Cd1 1_555 1_555
O2 C1 1_555 1_555
O3 Cd2 1_555 1_555
O4 Cd2 1_555 1_555
O5 Cd1 1_555 1_555
O6 C11 1_555 1_555
O7 C20 1_555 1_555
O8 C20 1_555 1_555
O9 Cd2 1_555 1_555
H1 O9 1_555 1_555
H2 O9 1_555 1_555
O10 H3 1_555 1_555
H4 O10 1_555 1_555
O11 H5 1_555 1_555
H6 O11 1_555 1_555
O12 H7 1_555 1_555
O13 H8 1_555 1_555
H9 O13 1_555 1_555
C1 O1 1_555 1_555
C2 C1 1_555 1_555
H10 C2 1_555 1_555
H11 C2 1_555 1_555
C3 C2 1_555 1_555
C4 C3 1_555 1_555
H12 C4 1_555 1_555
C5 C4 1_555 1_555
H13 C5 1_555 1_555
C6 C5 1_555 1_555
H14 C6 1_555 1_555
C7 C6 1_555 1_555
H15 C7 1_555 1_555
C8 C3 1_555 1_555
C9 C8 1_555 1_555
H16 C9 1_555 1_555
H17 C9 1_555 1_555
C10 O3 1_555 1_555
C11 O5 1_555 1_555
C12 C11 1_555 1_555
H18 C12 1_555 1_555
H19 C12 1_555 1_555
C13 C12 1_555 1_555
C14 C13 1_555 1_555
H20 C14 1_555 1_555
C15 C14 1_555 1_555
H21 C15 1_555 1_555
C16 C15 1_555 1_555
H22 C16 1_555 1_555
C17 C16 1_555 1_555
H23 C17 1_555 1_555
C18 C13 1_555 1_555
C19 C18 1_555 1_555
H24 C19 1_555 1_555
H25 C19 1_555 1_555
C20 C19 1_555 1_555
C21 H26 1_555 1_555
C22 C21 1_555 1_555
H27 C22 1_555 1_555
C23 C22 1_555 1_555
H28 C23 1_555 1_555
C24 C23 1_555 1_555
C25 N1 1_555 1_555
C26 N2 1_555 1_555
C27 C26 1_555 1_555
C28 C27 1_555 1_555
H29 C28 1_555 1_555
C29 C28 1_555 1_555
H30 C29 1_555 1_555
C30 N2 1_555 1_555
H31 C30 1_555 1_555
C31 C24 1_555 1_555
H32 C31 1_555 1_555
C32 C27 1_555 1_555
H33 C32 1_555 1_555
C33 N3 1_555 1_555
H34 C33 1_555 1_555
C34 C33 1_555 1_555
H35 C34 1_555 1_555
C35 C34 1_555 1_555
H36 C35 1_555 1_555
C36 C35 1_555 1_555
C37 N3 1_555 1_555
C38 N4 1_555 1_555
C39 C38 1_555 1_555
C40 C39 1_555 1_555
H37 C40 1_555 1_555
C41 C40 1_555 1_555
H38 C41 1_555 1_555
C42 N4 1_555 1_555
H39 C42 1_555 1_555
C43 C36 1_555 1_555
H40 C43 1_555 1_555
C44 C39 1_555 1_555
H41 C44 1_555 1_555
C45 H42 1_555 1_555
C46 C45 1_555 1_555
H43 C46 1_555 1_555
C47 C46 1_555 1_555
H44 C47 1_555 1_555
C48 C47 1_555 1_555
C49 N5 1_555 1_555
C50 N6 1_555 1_555
C51 C50 1_555 1_555
C52 C51 1_555 1_555
H45 C52 1_555 1_555
C53 C52 1_555 1_555
H46 C53 1_555 1_555
C54 N6 1_555 1_555
H47 C54 1_555 1_555
C55 C48 1_555 1_555
H48 C55 1_555 1_555
C56 C51 1_555 1_555
H49 C56 1_555 1_555
C57 O12 1_555 1_555
H50 C57 1_555 1_555
H51 C57 1_555 1_555
C58 C57 1_555 1_555
H52 C58 1_555 1_555
H53 C58 1_555 1_555
H54 C58 1_555 1_555
Cd2_2 O7 1_555 1_555
O7_2 Cd2 1_555 1_555
O8_2 Cd2 1_555 1_555
O4 C10 1_555 1_555
O8 Cd2_2 1_555 1_555
C7 C8 1_555 1_555
C9 C10 1_555 1_555
C17 C18 1_555 1_555
C24 C25 1_555 1_555
C25 C26 1_555 1_555
C29 C30 1_555 1_555
C31 C32 1_555 1_555
C36 C37 1_555 1_555
C37 C38 1_555 1_555
C41 C42 1_555 1_555
C43 C44 1_555 1_555
C48 C49 1_555 1_555
C49 C50 1_555 1_555
C53 C54 1_555 1_555
C55 C56 1_555 1_555

#END
