
#######################################################################
#
#                 Cambridge Crystallographic Data Centre
#                                CCDC 
#
#######################################################################
#
# If this CIF has been generated from an entry in the Cambridge 
# Structural Database, then it will include bibliographic, chemical, 
# crystal, experimental, refinement or atomic coordinate data resulting 
# from the CCDC's data processing and validation procedures.
#
#######################################################################

data_TORWAA
_symmetry_cell_setting           triclinic
_symmetry_space_group_name_H-M   'P -1'
_symmetry_Int_Tables_number      2
_space_group_name_Hall           '-P 1'
loop_
_symmetry_equiv_pos_site_id
_symmetry_equiv_pos_as_xyz
1 x,y,z
2 -x,-y,-z
_cell_length_a                   8.8818(3)
_cell_length_b                   16.2625(6)
_cell_length_c                   26.4923(9)
_cell_angle_alpha                97.863(3)
_cell_angle_beta                 90.585(3)
_cell_angle_gamma                105.420(3)
_cell_volume                     3649.78
loop_
_atom_site_label
_atom_site_type_symbol
_atom_site_fract_x
_atom_site_fract_y
_atom_site_fract_z
Au1 Au 0.90842(3) 0.39030(2) 0.25506(2)
Au2 Au 0.54662(3) 0.34059(2) 0.26664(2)
Au3 Au 0.24835(3) 0.40297(2) 0.29297(2)
P1 P 0.5808(2) 0.31937(12) 0.34846(7)
P2 P 0.8944(2) 0.26837(11) 0.19933(7)
P3 P 0.3607(2) 0.53126(11) 0.26686(8)
O1 O 0.5606(9) 0.3176(5) 0.0665(3)
O2 O 0.7873(7) 0.5264(4) -0.0406(3)
O3 O 0.8838(9) 0.6232(5) -0.0913(3)
O4 O 0.8834(8) 0.3225(4) 0.4975(2)
O5 O 0.7016(8) 0.5221(4) 0.4752(2)
O6 O 1.1056(8) 0.6787(4) 0.3907(3)
O7 O 1.4410(8) 0.9327(4) 0.3513(3)
O8 O 1.6086(9) 1.0525(5) 0.3351(4)
O9 O 1.1348(12) 0.0540(6) 0.1132(4)
O10 O 0.8972(11) 0.0358(4) 0.2394(3)
O11 O 0.1064(7) 0.1323(4) 0.3892(2)
O12 O -0.2376(7) -0.1391(4) 0.4090(3)
O13 O -0.3985(9) -0.2666(5) 0.4140(4)
O14 O 0.4820(12) 0.5635(5) 0.1171(3)
O15 O 0.7768(8) 0.7399(4) 0.2056(3)
N1 N 0.5595(9) 0.3856(5) 0.4490(3)
N2 N 0.4971(8) 0.2292(5) 0.4259(3)
N3 N 0.7797(8) 0.2831(5) 0.4174(3)
N4 N 0.8021(9) 0.1666(4) 0.1103(3)
N5 N 0.7672(9) 0.0917(4) 0.1863(3)
N6 N 1.0656(9) 0.1742(5) 0.1433(3)
N7 N 0.3652(12) 0.6195(5) 0.1847(4)
N8 N 0.3896(9) 0.6996(4) 0.2693(4)
N9 N 0.6316(7) 0.6560(4) 0.2581(3)
C1 C 0.5150(8) 0.3554(5) 0.1934(3)
C2 C 0.4976(13) 0.3630(8) 0.1500(4)
C3 C 0.4900(13) 0.3759(8) 0.0971(4)
H1 H 0.3795 0.3654 0.0852
H2 H 0.5458 0.4361 0.0937
C4 C 0.6693(11) 0.4253(6) 0.0124(3)
H3 H 0.6050 0.4613 0.0246
C5 C 0.6579(11) 0.3476(6) 0.0306(3)
C6 C 0.7500(12) 0.2943(6) 0.0115(3)
H4 H 0.7390 0.2405 0.0233
C7 C 0.8569(13) 0.3196(6) -0.0245(3)
H5 H 0.9214 0.2837 -0.0365
C8 C 0.8722(11) 0.3977(6) -0.0437(3)
C9 C 0.7781(10) 0.4486(6) -0.0243(3)
C10 C 0.8871(11) 0.5564(7) -0.0772(4)
C11 C 0.9871(12) 0.5026(7) -0.0978(4)
H6 H 1.0563 0.5204 -0.1238
C12 C 0.9813(13) 0.4294(7) -0.0804(4)
H7 H 1.0515 0.3970 -0.0926
C13 C 0.7685(10) 0.2989(7) 0.3643(3)
H8 H 0.7806 0.2482 0.3411
H9 H 0.8550 0.3492 0.3589
C14 C 0.4544(10) 0.2256(6) 0.3719(3)
H10 H 0.3436 0.2258 0.3679
H11 H 0.4677 0.1719 0.3521
C15 C 0.5522(11) 0.4049(6) 0.3973(3)
H12 H 0.6334 0.4590 0.3945
H13 H 0.4491 0.4147 0.3904
C16 C 0.4668(10) 0.3010(7) 0.4582(4)
H14 H 0.4865 0.2949 0.4942
H15 H 0.3547 0.2982 0.4537
C17 C 0.6502(11) 0.2160(6) 0.4329(4)
H16 H 0.6511 0.1599 0.4131
H17 H 0.6683 0.2124 0.4693
C18 C 0.8875(11) 0.3349(6) 0.4528(3)
C19 C 1.0086(12) 0.4065(8) 0.4362(4)
H18 H 0.9595 0.4494 0.4260
H19 H 1.0610 0.3840 0.4072
H20 H 1.0856 0.4335 0.4645
C20 C 0.6350(10) 0.4516(6) 0.4859(3)
C21 C 0.6329(11) 0.4315(7) 0.5401(3)
H21 H 0.6880 0.4835 0.5632
H22 H 0.6851 0.3859 0.5423
H23 H 0.5245 0.4121 0.5499
C22 C 0.9182(8) 0.4956(5) 0.3081(3)
C23 C 0.9306(10) 0.5481(5) 0.3421(4)
C24 C 0.9497(13) 0.6163(6) 0.3877(4)
H24 H 0.8681 0.6472 0.3857
H25 H 0.9357 0.5889 0.4191
C25 C 1.2736(12) 0.8068(5) 0.3711(4)
H26 H 1.3527 0.8011 0.3937
C26 C 1.1202(12) 0.7457(5) 0.3627(4)
C27 C 1.0061(11) 0.7532(6) 0.3313(4)
H27 H 0.9073 0.7116 0.3275
C28 C 1.0354(12) 0.8221(6) 0.3050(4)
H28 H 0.9551 0.8268 0.2825
C29 C 1.1810(12) 0.8873(6) 0.3098(4)
C30 C 1.2934(11) 0.8746(5) 0.3429(4)
C31 C 1.4783(13) 1.0034(7) 0.3257(4)
C32 C 1.3610(13) 1.0162(7) 0.2921(5)
H29 H 1.3850 1.0643 0.2740
C33 C 1.2157(13) 0.9598(7) 0.2858(4)
H30 H 1.1377 0.9706 0.2649
C34 C 1.0829(9) 0.2514(5) 0.1809(4)
H31 H 1.1444 0.3024 0.1665
H32 H 1.1417 0.2459 0.2117
C35 C 0.7829(10) 0.1690(5) 0.2227(3)
H33 H 0.8359 0.1629 0.2545
H34 H 0.6773 0.1744 0.2311
C36 C 0.7953(10) 0.2504(5) 0.1368(3)
H35 H 0.6850 0.2515 0.1405
H36 H 0.8467 0.2966 0.1169
C37 C 0.9587(11) 0.1636(6) 0.0983(4)
H37 H 1.0033 0.2096 0.0774
H38 H 0.9533 0.1076 0.0772
C38 C 0.7101(11) 0.0957(5) 0.1345(4)
H39 H 0.7076 0.0408 0.1126
H40 H 0.6013 0.1003 0.1362
C39 C 1.1478(13) 0.1165(6) 0.1466(4)
C40 C 1.2563(13) 0.1293(6) 0.1931(5)
H41 H 1.3401 0.1827 0.1935
H42 H 1.3018 0.0804 0.1918
H43 H 1.1974 0.1332 0.2240
C41 C 0.8273(12) 0.0280(6) 0.1983(5)
C42 C 0.8027(15) -0.0542(6) 0.1614(5)
H44 H 0.8814 -0.0460 0.1355
H45 H 0.6980 -0.0693 0.1447
H46 H 0.8127 -0.1008 0.1799
C43 C 0.1439(8) 0.2912(4) 0.3180(3)
C44 C 0.0767(9) 0.2247(5) 0.3315(3)
C45 C 0.0012(10) 0.1435(5) 0.3514(4)
H47 H -0.0988 0.1469 0.3665
H48 H -0.0207 0.0942 0.3235
C46 C -0.0740(11) -0.0045(5) 0.3979(3)
H49 H -0.1537 0.0047 0.3769
C47 C 0.0677(10) 0.0557(5) 0.4080(3)
C48 C 0.1863(11) 0.0435(6) 0.4395(3)
H50 H 0.2836 0.0862 0.4458
C49 C 0.1596(12) -0.0309(6) 0.4610(3)
H51 H 0.2384 -0.0395 0.4826
C50 C 0.0171(11) -0.0944(5) 0.4514(3)
C51 C -0.0953(10) -0.0798(5) 0.4198(3)
C52 C -0.2741(13) -0.2182(6) 0.4280(4)
C53 C -0.1592(12) -0.2316(6) 0.4611(4)
H52 H -0.1816 -0.2831 0.4761
C54 C -0.0183(13) -0.1730(6) 0.4720(4)
H53 H 0.0573 -0.1847 0.4935
C55 C 0.3093(13) 0.5341(6) 0.2004(4)
H54 H 0.3537 0.4931 0.1783
H55 H 0.1941 0.5144 0.1950
C56 C 0.3115(10) 0.6284(5) 0.2960(5)
H56 H 0.1969 0.6196 0.2934
H57 H 0.3462 0.6416 0.3325
C57 C 0.5731(9) 0.5746(5) 0.2765(4)
H58 H 0.6018 0.5819 0.3134
H59 H 0.6242 0.5324 0.2587
C58 C 0.5577(10) 0.7228(5) 0.2794(4)
H60 H 0.5799 0.7351 0.3168
H61 H 0.6053 0.7763 0.2651
C59 C 0.3338(12) 0.6910(6) 0.2174(6)
H62 H 0.3830 0.7449 0.2036
H63 H 0.2195 0.6837 0.2167
C60 C 0.4470(14) 0.6252(7) 0.1404(5)
C61 C 0.4929(17) 0.7116(7) 0.1200(5)
H64 H 0.5160 0.7021 0.0839
H65 H 0.5857 0.7496 0.1395
H66 H 0.4064 0.7385 0.1236
C62 C 0.7414(9) 0.6714(5) 0.2221(3)
C63 C 0.8121(10) 0.6000(6) 0.2026(4)
H67 H 0.8430 0.5751 0.2314
H68 H 0.9043 0.6228 0.1836
H69 H 0.7353 0.5553 0.1800
Au1_2 Au -0.09158(3) 0.39030(2) 0.25506(2)
Au3_2 Au 1.24835(3) 0.40297(2) 0.29297(2)
Cl1 Cl 0.3969(5) -0.0796(2) 0.16082(18)
Cl2 Cl 0.0803(4) -0.1902(2) 0.14889(16)
C64 C 0.2322(15) -0.1180(9) 0.1212(7)
H70 H 0.2586 -0.1481 0.0888
H71 H 0.1948 -0.0689 0.1131
loop_
_geom_bond_atom_site_label_1
_geom_bond_atom_site_label_2
_geom_bond_site_symmetry_1
_geom_bond_site_symmetry_2
Au1 Au2 1_555 1_555
Au2 Au3 1_555 1_555
Au3 P3 1_555 1_555
P1 Au2 1_555 1_555
P2 Au1 1_555 1_555
P3 C55 1_555 1_555
O1 C3 1_555 1_555
O2 C9 1_555 1_555
O3 C10 1_555 1_555
O4 C18 1_555 1_555
O5 C20 1_555 1_555
O6 C24 1_555 1_555
O7 C30 1_555 1_555
O8 C31 1_555 1_555
O9 C39 1_555 1_555
O10 C41 1_555 1_555
O11 C45 1_555 1_555
O12 C51 1_555 1_555
O13 C52 1_555 1_555
O14 C60 1_555 1_555
O15 C62 1_555 1_555
N1 C15 1_555 1_555
N2 C14 1_555 1_555
N3 C13 1_555 1_555
N4 C36 1_555 1_555
N5 C35 1_555 1_555
N6 C34 1_555 1_555
N7 C55 1_555 1_555
N8 C56 1_555 1_555
N9 C57 1_555 1_555
C1 Au2 1_555 1_555
C2 C1 1_555 1_555
C3 C2 1_555 1_555
H1 C3 1_555 1_555
H2 C3 1_555 1_555
C4 H3 1_555 1_555
C5 O1 1_555 1_555
C6 C5 1_555 1_555
H4 C6 1_555 1_555
C7 C6 1_555 1_555
H5 C7 1_555 1_555
C8 C7 1_555 1_555
C9 C4 1_555 1_555
C10 O2 1_555 1_555
C11 C10 1_555 1_555
H6 C11 1_555 1_555
C12 C8 1_555 1_555
H7 C12 1_555 1_555
C13 P1 1_555 1_555
H8 C13 1_555 1_555
H9 C13 1_555 1_555
C14 P1 1_555 1_555
H10 C14 1_555 1_555
H11 C14 1_555 1_555
C15 P1 1_555 1_555
H12 C15 1_555 1_555
H13 C15 1_555 1_555
C16 N1 1_555 1_555
H14 C16 1_555 1_555
H15 C16 1_555 1_555
C17 N2 1_555 1_555
H16 C17 1_555 1_555
H17 C17 1_555 1_555
C18 N3 1_555 1_555
C19 C18 1_555 1_555
H18 C19 1_555 1_555
H19 C19 1_555 1_555
H20 C19 1_555 1_555
C20 N1 1_555 1_555
C21 C20 1_555 1_555
H21 C21 1_555 1_555
H22 C21 1_555 1_555
H23 C21 1_555 1_555
C22 Au1 1_555 1_555
C23 C22 1_555 1_555
C24 C23 1_555 1_555
H24 C24 1_555 1_555
H25 C24 1_555 1_555
C25 H26 1_555 1_555
C26 O6 1_555 1_555
C27 C26 1_555 1_555
H27 C27 1_555 1_555
C28 C27 1_555 1_555
H28 C28 1_555 1_555
C29 C28 1_555 1_555
C30 C25 1_555 1_555
C31 O7 1_555 1_555
C32 C31 1_555 1_555
H29 C32 1_555 1_555
C33 C29 1_555 1_555
H30 C33 1_555 1_555
C34 P2 1_555 1_555
H31 C34 1_555 1_555
H32 C34 1_555 1_555
C35 P2 1_555 1_555
H33 C35 1_555 1_555
H34 C35 1_555 1_555
C36 P2 1_555 1_555
H35 C36 1_555 1_555
H36 C36 1_555 1_555
C37 N4 1_555 1_555
H37 C37 1_555 1_555
H38 C37 1_555 1_555
C38 N4 1_555 1_555
H39 C38 1_555 1_555
H40 C38 1_555 1_555
C39 N6 1_555 1_555
C40 C39 1_555 1_555
H41 C40 1_555 1_555
H42 C40 1_555 1_555
H43 C40 1_555 1_555
C41 N5 1_555 1_555
C42 C41 1_555 1_555
H44 C42 1_555 1_555
H45 C42 1_555 1_555
H46 C42 1_555 1_555
C43 Au3 1_555 1_555
C44 C43 1_555 1_555
C45 C44 1_555 1_555
H47 C45 1_555 1_555
H48 C45 1_555 1_555
C46 H49 1_555 1_555
C47 O11 1_555 1_555
C48 C47 1_555 1_555
H50 C48 1_555 1_555
C49 C48 1_555 1_555
H51 C49 1_555 1_555
C50 C49 1_555 1_555
C51 C46 1_555 1_555
C52 O12 1_555 1_555
C53 C52 1_555 1_555
H52 C53 1_555 1_555
C54 C50 1_555 1_555
H53 C54 1_555 1_555
C55 H54 1_555 1_555
H55 C55 1_555 1_555
C56 P3 1_555 1_555
H56 C56 1_555 1_555
H57 C56 1_555 1_555
C57 P3 1_555 1_555
H58 C57 1_555 1_555
H59 C57 1_555 1_555
C58 N8 1_555 1_555
H60 C58 1_555 1_555
H61 C58 1_555 1_555
C59 N7 1_555 1_555
H62 C59 1_555 1_555
H63 C59 1_555 1_555
C60 N7 1_555 1_555
C61 C60 1_555 1_555
H64 C61 1_555 1_555
H65 C61 1_555 1_555
H66 C61 1_555 1_555
C62 N9 1_555 1_555
C63 C62 1_555 1_555
H67 C63 1_555 1_555
H68 C63 1_555 1_555
H69 C63 1_555 1_555
Cl1 C64 1_555 1_555
Cl2 C64 1_555 1_555
C64 H70 1_555 1_555
H71 C64 1_555 1_555
Au1_2 Au3 1_555 1_555
Au3_2 Au1 1_555 1_555
N2 C16 1_555 1_555
N3 C17 1_555 1_555
N5 C38 1_555 1_555
N6 C37 1_555 1_555
N8 C59 1_555 1_555
N9 C58 1_555 1_555
C4 C5 1_555 1_555
C8 C9 1_555 1_555
C11 C12 1_555 1_555
C25 C26 1_555 1_555
C29 C30 1_555 1_555
C32 C33 1_555 1_555
C46 C47 1_555 1_555
C50 C51 1_555 1_555
C53 C54 1_555 1_555

#END
