
#######################################################################
#
#                 Cambridge Crystallographic Data Centre
#                                CCDC 
#
#######################################################################
#
# If this CIF has been generated from an entry in the Cambridge 
# Structural Database, then it will include bibliographic, chemical, 
# crystal, experimental, refinement or atomic coordinate data resulting 
# from the CCDC's data processing and validation procedures.
#
#######################################################################

data_TORXOP
_symmetry_cell_setting           orthorhombic
_symmetry_space_group_name_H-M   'P 21 21 21'
_symmetry_Int_Tables_number      19
_space_group_name_Hall           'P 2ac 2ab'
loop_
_symmetry_equiv_pos_site_id
_symmetry_equiv_pos_as_xyz
1 x,y,z
2 1/2-x,-y,1/2+z
3 -x,1/2+y,1/2-z
4 1/2+x,1/2-y,-z
_cell_length_a                   6.7311(7)
_cell_length_b                   7.4805(10)
_cell_length_c                   9.6521(10)
_cell_angle_alpha                90
_cell_angle_beta                 90
_cell_angle_gamma                90
_cell_volume                     486.002
loop_
_atom_site_label
_atom_site_type_symbol
_atom_site_fract_x
_atom_site_fract_y
_atom_site_fract_z
Cu1 Cu 0.08830(5) 0.73303(5) 0.01824(3)
N1 N 0.1620(4) 0.5658(4) 0.1991(3)
N2 N 0.0053(4) 0.5007(4) 0.2676(3)
N3 N 0.0723(4) 0.4026(4) 0.3699(3)
N4 N 0.2727(4) 0.4023(4) 0.3709(3)
N5 N 0.3303(4) 0.8857(4) 0.0277(3)
N6 N 0.3210(3) 1.0513(4) 0.0204(3)
N7 N 0.3144(4) 1.2030(4) 0.0159(4)
C1 C 0.3211(5) 0.5045(5) 0.2645(3)
H1 H 0.4539 0.5308 0.2381
Cu1A Cu 0.41170(5) 0.26697(5) 0.51824(3)
Cu1B Cu -0.08830(5) 0.23303(5) 0.48176(3)
Cu1C Cu 0.58830(5) 0.76697(5) -0.01824(3)
N3B N -0.0723(4) 0.9026(4) 0.1301(3)
N4A N 0.2273(4) 0.5977(4) -0.1291(3)
N5C N -0.1697(4) 0.6143(4) -0.0277(3)
loop_
_geom_bond_atom_site_label_1
_geom_bond_atom_site_label_2
_geom_bond_site_symmetry_1
_geom_bond_site_symmetry_2
Cu1 N1 1_555 1_555
N1 N2 1_555 1_555
N2 N3 1_555 1_555
N3 N4 1_555 1_555
N4 C1 1_555 1_555
N5 Cu1 1_555 1_555
N6 N5 1_555 1_555
N7 N6 1_555 1_555
C1 N1 1_555 1_555
H1 C1 1_555 1_555
Cu1A N4 1_555 1_555
Cu1B N3 1_555 1_555
Cu1C N5 1_555 1_555
N3B Cu1 1_555 1_555
N4A Cu1 1_555 1_555
N5C Cu1 1_555 1_555

#END
