
#######################################################################
#
#                 Cambridge Crystallographic Data Centre
#                                CCDC 
#
#######################################################################
#
# If this CIF has been generated from an entry in the Cambridge 
# Structural Database, then it will include bibliographic, chemical, 
# crystal, experimental, refinement or atomic coordinate data resulting 
# from the CCDC's data processing and validation procedures.
#
#######################################################################

data_TORXOP01
_symmetry_cell_setting           orthorhombic
_symmetry_space_group_name_H-M   'P 21 21 21'
_symmetry_Int_Tables_number      19
_space_group_name_Hall           'P 2ac 2ab'
loop_
_symmetry_equiv_pos_site_id
_symmetry_equiv_pos_as_xyz
1 x,y,z
2 1/2-x,-y,1/2+z
3 1/2+x,1/2-y,-z
4 -x,1/2+y,1/2-z
_cell_length_a                   6.7352(13)
_cell_length_b                   7.5089(15)
_cell_length_c                   9.6823(19)
_cell_angle_alpha                90
_cell_angle_beta                 90
_cell_angle_gamma                90
_cell_volume                     489.672
loop_
_atom_site_label
_atom_site_type_symbol
_atom_site_fract_x
_atom_site_fract_y
_atom_site_fract_z
Cu1 Cu 1.08533(4) 1.76779(3) 1.51885(2)
N1 N 1.1648(3) 1.9354(3) 1.6992(2)
N2 N 1.3268(3) 1.6128(2) 1.5260(2)
N3 N 0.9247(3) 1.5993(2) 1.63099(18)
N4 N 1.2246(3) 1.9018(2) 1.37031(19)
N5 N 1.0084(3) 2.0018(3) 1.7669(2)
C1 C 1.3248(3) 1.9959(3) 1.7641(2)
N6 N 1.3160(3) 1.4494(2) 1.5199(2)
H1 H 1.4547 1.9698 1.7384
N7 N 1.3088(4) 1.2998(3) 1.5172(3)
N2B N 0.8268(3) 1.8872(2) 1.4740(2)
Cu1B Cu 1.58533(4) 1.73221(3) 1.48115(2)
N3C N 1.0753(3) 2.0993(2) 1.86901(18)
N4A N 1.2754(3) 2.0982(2) 1.87031(19)
Cu1C Cu 0.91467(4) 2.26779(3) 1.98115(2)
Cu1A Cu 1.41467(4) 2.23221(3) 2.01885(2)
loop_
_geom_bond_atom_site_label_1
_geom_bond_atom_site_label_2
_geom_bond_site_symmetry_1
_geom_bond_site_symmetry_2
Cu1 N1 1_555 1_555
N1 N5 1_555 1_555
N2 Cu1 1_555 1_555
N3 Cu1 1_555 1_555
N4 Cu1 1_555 1_555
N5 N3C 1_555 1_555
C1 N1 1_555 1_555
N6 N2 1_555 1_555
H1 C1 1_555 1_555
N7 N6 1_555 1_555
N2B Cu1 1_555 1_555
Cu1B N2 1_555 1_555
N3C N4A 1_555 1_555
N4A C1 1_555 1_555
Cu1C N3C 1_555 1_555
Cu1A N4A 1_555 1_555

#END
