
#######################################################################
#
#                 Cambridge Crystallographic Data Centre
#                                CCDC 
#
#######################################################################
#
# If this CIF has been generated from an entry in the Cambridge 
# Structural Database, then it will include bibliographic, chemical, 
# crystal, experimental, refinement or atomic coordinate data resulting 
# from the CCDC's data processing and validation procedures.
#
#######################################################################

data_TORXIJ
_symmetry_cell_setting           orthorhombic
_symmetry_space_group_name_H-M   'P n n m'
_symmetry_Int_Tables_number      58
_space_group_name_Hall           '-P 2 2n'
loop_
_symmetry_equiv_pos_site_id
_symmetry_equiv_pos_as_xyz
1 x,y,z
2 -x,-y,z
3 1/2-x,1/2+y,1/2-z
4 1/2+x,1/2-y,1/2-z
5 -x,-y,-z
6 x,y,-z
7 1/2+x,1/2-y,1/2+z
8 1/2-x,1/2+y,1/2+z
_cell_length_a                   11.6119(6)
_cell_length_b                   8.6116(5)
_cell_length_c                   8.8761(5)
_cell_angle_alpha                90
_cell_angle_beta                 90
_cell_angle_gamma                90
_cell_volume                     887.584
loop_
_atom_site_label
_atom_site_type_symbol
_atom_site_fract_x
_atom_site_fract_y
_atom_site_fract_z
O1 O -0.0436(8) 0.6578(12) 0.5000
H1 H -0.0464 0.5999 0.5732
C1 C 0.0669(9) 0.7417(13) 0.5000
H2 H 0.1034 0.7301 0.5964
H3 H 0.0534 0.8498 0.4805
H4 H 0.1160 0.6998 0.4230
Cu1 Cu -0.5000 0.5000 0.5000
Cu2 Cu -0.26833(6) 0.75605(8) 0.5000
Cl1 Cl -0.47878(12) 0.80114(18) 0.5000
N1 N -0.2802(3) 0.5847(4) 0.3395(4)
N2 N -0.3744(3) 0.4930(4) 0.3424(4)
N3 N -0.3694(3) 0.3889(4) 0.2367(4)
N4 N -0.2704(3) 0.4105(4) 0.1619(4)
C2 C -0.2178(4) 0.5307(5) 0.2257(5)
H5 H -0.1473 0.5712 0.1950
O1A O -0.9564(8) 0.3422(12) 0.5000
C1A C -1.0669(9) 0.2583(13) 0.5000
Cu2A Cu -0.73167(6) 0.24395(8) 0.5000
Cl1A Cl -0.52122(12) 0.19886(18) 0.5000
N1A N -0.7198(3) 0.4153(4) 0.3395(4)
N2A N -0.6256(3) 0.5070(4) 0.3424(4)
N3A N -0.6306(3) 0.6111(4) 0.2367(4)
N4A N -0.7296(3) 0.5895(4) 0.1619(4)
C2A C -0.7822(4) 0.4693(5) 0.2257(5)
H5A H -0.8527 0.4288 0.1950
N1D N -0.7198(3) 0.4153(4) 0.6605(4)
N2D N -0.6256(3) 0.5070(4) 0.6576(4)
N3D N -0.6306(3) 0.6111(4) 0.7633(4)
N4D N -0.7296(3) 0.5895(4) 0.8381(4)
C2D C -0.7822(4) 0.4693(5) 0.7743(5)
H5D H -0.8527 0.4288 0.8050
N1E N -0.2802(3) 0.5847(4) 0.6605(4)
N2E N -0.3744(3) 0.4930(4) 0.6576(4)
N3E N -0.3694(3) 0.3889(4) 0.7633(4)
N4E N -0.2704(3) 0.4105(4) 0.8381(4)
C2E C -0.2178(4) 0.5307(5) 0.7743(5)
H5E H -0.1473 0.5712 0.8050
Cu2B Cu -0.23167(6) 0.25605(8) 0.0000
Cu2B_2 Cu -0.23167(6) 0.25605(8) 1.0000
Cu2C Cu -0.76833(6) 0.74395(8) 0.0000
Cu2C_2 Cu -0.76833(6) 0.74395(8) 1.0000
N4B N -0.2296(3) 0.9105(4) 0.3381(4)
N4C N -0.7704(3) 0.0895(4) 0.3381(4)
N4F N -0.7704(3) 0.0895(4) 0.6619(4)
N4G N -0.2296(3) 0.9105(4) 0.6619(4)
loop_
_geom_bond_atom_site_label_1
_geom_bond_atom_site_label_2
_geom_bond_site_symmetry_1
_geom_bond_site_symmetry_2
O1 H1 1_555 1_555
C1 O1 1_555 1_555
H2 C1 1_555 1_555
H3 C1 1_555 1_555
H4 C1 1_555 1_555
Cu1 Cl1 1_555 1_555
Cu2 O1 1_555 1_555
Cl1 Cu2 1_555 1_555
N1 Cu2 1_555 1_555
N2 Cu1 1_555 1_555
N3 N2 1_555 1_555
N4 N3 1_555 1_555
C2 N1 1_555 1_555
H5 C2 1_555 1_555
O1A C1A 1_555 1_555
Cu2A O1A 1_555 1_555
Cl1A Cu1 1_555 1_555
N1A Cu2A 1_555 1_555
N2A Cu1 1_555 1_555
N3A N2A 1_555 1_555
N4A N3A 1_555 1_555
C2A N1A 1_555 1_555
H5A C2A 1_555 1_555
N1D Cu2A 1_555 1_555
N2D Cu1 1_555 1_555
N3D N2D 1_555 1_555
N4D N3D 1_555 1_555
C2D N1D 1_555 1_555
H5D C2D 1_555 1_555
N1E Cu2 1_555 1_555
N2E Cu1 1_555 1_555
N3E N2E 1_555 1_555
N4E N3E 1_555 1_555
C2E N1E 1_555 1_555
H5E C2E 1_555 1_555
Cu2B N4 1_555 1_555
Cu2B_2 N4E 1_555 1_555
Cu2C N4A 1_555 1_555
Cu2C_2 N4D 1_555 1_555
N4B Cu2 1_555 1_555
N4C Cu2A 1_555 1_555
N4F Cu2A 1_555 1_555
N4G Cu2 1_555 1_555
N1 N2 1_555 1_555
N4 C2 1_555 1_555
Cu2A Cl1A 1_555 1_555
N1A N2A 1_555 1_555
N4A C2A 1_555 1_555
N1D N2D 1_555 1_555
N4D C2D 1_555 1_555
N1E N2E 1_555 1_555
N4E C2E 1_555 1_555

#END
