
#######################################################################
#
#                 Cambridge Crystallographic Data Centre
#                                CCDC 
#
#######################################################################
#
# If this CIF has been generated from an entry in the Cambridge 
# Structural Database, then it will include bibliographic, chemical, 
# crystal, experimental, refinement or atomic coordinate data resulting 
# from the CCDC's data processing and validation procedures.
#
#######################################################################

data_TORXEF
_symmetry_cell_setting           monoclinic
_symmetry_space_group_name_H-M   'P 21/n'
_symmetry_Int_Tables_number      14
_space_group_name_Hall           '-P 2yn'
loop_
_symmetry_equiv_pos_site_id
_symmetry_equiv_pos_as_xyz
1 x,y,z
2 1/2-x,1/2+y,1/2-z
3 -x,-y,-z
4 1/2+x,1/2-y,1/2+z
_cell_length_a                   8.6031(5)
_cell_length_b                   8.5338(5)
_cell_length_c                   13.3805(8)
_cell_angle_alpha                90
_cell_angle_beta                 106.7950(10)
_cell_angle_gamma                90
_cell_volume                     940.455
loop_
_atom_site_label
_atom_site_type_symbol
_atom_site_fract_x
_atom_site_fract_y
_atom_site_fract_z
Cu1 Cu 0.5000 0.0000 0.5000
Cu2 Cu 0.18341(5) 0.17439(4) 0.56595(3)
Cu3 Cu 0.52852(5) 0.37183(4) 0.59510(3)
S1 S 0.27334(10) 0.29310(9) 0.36724(6)
O1 O 0.1533(3) 0.2645(3) 0.42623(17)
O2 O 0.3855(3) 0.4188(3) 0.42788(17)
O3 O 0.3693(3) 0.1533(3) 0.36485(18)
O4 O 0.1917(3) 0.3509(3) 0.26403(17)
O5 O 0.4243(3) 0.1580(2) 0.59214(17)
H1 H 0.4667 0.1167 0.6649
N1 N 0.3918(3) 0.4612(3) 0.6737(2)
N2 N 0.2378(4) 0.4169(3) 0.6658(2)
N3 N 0.1915(4) 0.4821(3) 0.7406(2)
N4 N 0.3145(3) 0.5702(3) 0.7987(2)
N5 N 0.7086(3) 0.2774(3) 0.5543(2)
N6 N 0.6990(3) 0.1296(3) 0.5198(2)
N7 N 0.8384(3) 0.0847(3) 0.5092(2)
N8 N 0.9431(3) 0.2050(3) 0.5378(2)
C1 C 0.4355(4) 0.5554(4) 0.7555(3)
H2 H 0.5383 0.6053 0.7800
C2 C 0.8600(4) 0.3218(4) 0.5645(2)
H3 H 0.9032 0.4223 0.5876
Cu2B Cu 0.81659(5) -0.17439(4) 0.43405(3)
Cu3B Cu 0.47148(5) -0.37183(4) 0.40490(3)
S1B S 0.72666(10) -0.29310(9) 0.63276(6)
O1B O 0.8467(3) -0.2645(3) 0.57377(17)
O2B O 0.6145(3) -0.4188(3) 0.57212(17)
O3B O 0.6307(3) -0.1533(3) 0.63515(18)
O4B O 0.8083(3) -0.3509(3) 0.73597(17)
O5B O 0.5757(3) -0.1580(2) 0.40786(17)
H1B H 0.5333 -0.1167 0.3351
N1B N 0.6082(3) -0.4612(3) 0.3263(2)
N2B N 0.7622(4) -0.4169(3) 0.3342(2)
N3B N 0.8085(4) -0.4821(3) 0.2594(2)
N4B N 0.6855(3) -0.5702(3) 0.2013(2)
N5B N 0.2914(3) -0.2774(3) 0.4457(2)
N6B N 0.3010(3) -0.1296(3) 0.4802(2)
N7B N 0.1616(3) -0.0847(3) 0.4908(2)
N8B N 0.0569(3) -0.2050(3) 0.4622(2)
C1B C 0.5645(4) -0.5554(4) 0.2445(3)
H2B H 0.4617 -0.6053 0.2200
C2B C 0.1400(4) -0.3218(4) 0.4355(2)
H3B H 0.0968 -0.4223 0.4124
Cu2_2 Cu 1.18341(5) 0.17439(4) 0.56595(3)
Cu2A Cu 0.31659(5) 0.67439(4) 0.93405(3)
Cu2B_2 Cu -0.18341(5) -0.17439(4) 0.43405(3)
Cu2C Cu 0.68341(5) -0.67439(4) 0.06595(3)
Cu3_2 Cu 0.52852(5) -0.62817(4) 0.59510(3)
Cu3B_2 Cu 0.47148(5) 0.62817(4) 0.40490(3)
O2_2 O 0.3855(3) -0.5812(3) 0.42788(17)
O2B_2 O 0.6145(3) 0.5812(3) 0.57212(17)
N4A N 0.1855(3) 0.0702(3) 0.7013(2)
N4C N 0.8145(3) -0.0702(3) 0.2987(2)
N8_2 N -0.0569(3) 0.2050(3) 0.5378(2)
N8B_2 N 1.0569(3) -0.2050(3) 0.4622(2)
loop_
_geom_bond_atom_site_label_1
_geom_bond_atom_site_label_2
_geom_bond_site_symmetry_1
_geom_bond_site_symmetry_2
Cu1 O3 1_555 1_555
Cu2 O1 1_555 1_555
Cu3 O2 1_555 1_555
S1 O1 1_555 1_555
O2 S1 1_555 1_555
O3 S1 1_555 1_555
O4 S1 1_555 1_555
O5 Cu1 1_555 1_555
H1 O5 1_555 1_555
N1 Cu3 1_555 1_555
N2 Cu2 1_555 1_555
N3 N2 1_555 1_555
N4 N3 1_555 1_555
N5 Cu3 1_555 1_555
N6 Cu1 1_555 1_555
N7 N6 1_555 1_555
N8 N7 1_555 1_555
C1 N1 1_555 1_555
H2 C1 1_555 1_555
C2 N5 1_555 1_555
H3 C2 1_555 1_555
Cu2B N7 1_555 1_555
Cu3B O2B 1_555 1_555
S1B O1B 1_555 1_555
O1B Cu2B 1_555 1_555
O2B S1B 1_555 1_555
O3B Cu1 1_555 1_555
O4B S1B 1_555 1_555
O5B Cu1 1_555 1_555
H1B O5B 1_555 1_555
N1B Cu3B 1_555 1_555
N2B Cu2B 1_555 1_555
N3B N2B 1_555 1_555
N4B N3B 1_555 1_555
N5B Cu3B 1_555 1_555
N6B Cu1 1_555 1_555
N7B Cu2 1_555 1_555
N8B N7B 1_555 1_555
C1B N1B 1_555 1_555
H2B C1B 1_555 1_555
C2B N5B 1_555 1_555
H3B C2B 1_555 1_555
Cu2_2 N8 1_555 1_555
Cu2A N4 1_555 1_555
Cu2B_2 N8B 1_555 1_555
Cu2C N4B 1_555 1_555
Cu3_2 O2B 1_555 1_555
Cu3B_2 O2 1_555 1_555
O2_2 Cu3B 1_555 1_555
O2B_2 Cu3 1_555 1_555
N4A Cu2 1_555 1_555
N4C Cu2B 1_555 1_555
N8_2 Cu2 1_555 1_555
N8B_2 Cu2B 1_555 1_555
Cu2 O5 1_555 1_555
Cu3 O5 1_555 1_555
N1 N2 1_555 1_555
N4 C1 1_555 1_555
N5 N6 1_555 1_555
N8 C2 1_555 1_555
Cu2B O5B 1_555 1_555
Cu3B O5B 1_555 1_555
S1B O3B 1_555 1_555
N1B N2B 1_555 1_555
N4B C1B 1_555 1_555
N5B N6B 1_555 1_555
N6B N7B 1_555 1_555
N8B C2B 1_555 1_555
Cu3_2 O2_2 1_555 1_555
Cu3B_2 O2B_2 1_555 1_555

#END
