
#######################################################################
#
#                 Cambridge Crystallographic Data Centre
#                                CCDC 
#
#######################################################################
#
# If this CIF has been generated from an entry in the Cambridge 
# Structural Database, then it will include bibliographic, chemical, 
# crystal, experimental, refinement or atomic coordinate data resulting 
# from the CCDC's data processing and validation procedures.
#
#######################################################################

data_TOSKUJ
_symmetry_cell_setting           monoclinic
_symmetry_space_group_name_H-M   'P 21/n'
_symmetry_Int_Tables_number      14
_space_group_name_Hall           '-P 2yn'
loop_
_symmetry_equiv_pos_site_id
_symmetry_equiv_pos_as_xyz
1 x,y,z
2 1/2-x,1/2+y,1/2-z
3 -x,-y,-z
4 1/2+x,1/2-y,1/2+z
_cell_length_a                   11.141(5)
_cell_length_b                   13.421(5)
_cell_length_c                   15.965(5)
_cell_angle_alpha                90
_cell_angle_beta                 90.803(5)
_cell_angle_gamma                90
_cell_volume                     2386.91
loop_
_atom_site_label
_atom_site_type_symbol
_atom_site_fract_x
_atom_site_fract_y
_atom_site_fract_z
Mo1 Mo -0.11437(5) -0.57059(3) 0.14816(3)
Mo2 Mo 0.11851(5) -0.40873(3) 0.13996(3)
Mo3 Mo 0.11345(5) -0.24647(4) -0.01426(3)
Mo4 Mo 0.12181(4) -0.58599(3) 0.00494(3)
O1 O 0.0903(3) -0.4308(2) -0.00222(19)
O2 O 0.0952(4) -0.2758(3) 0.1025(2)
O3 O -0.2670(4) -0.5677(3) 0.1389(2)
O4 O 0.2738(4) -0.5894(3) 0.0035(2)
O5 O 0.0886(3) -0.5549(2) 0.12194(19)
O6 O 0.2671(4) -0.2546(3) -0.0161(3)
O7 O 0.0832(4) -0.1223(3) -0.0191(3)
O8 O -0.0861(4) -0.5641(3) 0.2529(2)
O9 O 0.0850(3) -0.5705(2) -0.1141(2)
O10 O -0.0819(4) -0.7063(3) 0.1261(2)
O11 O 0.2704(4) -0.4195(3) 0.1401(2)
O12 O 0.0825(4) -0.3999(3) 0.2429(2)
O13 O 0.0786(4) -0.7117(3) 0.0090(2)
Mo1B Mo 0.11437(5) -0.42941(3) -0.14816(3)
Mo2B Mo -0.11851(5) -0.59127(3) -0.13996(3)
Mo3B Mo -0.11345(5) -0.75353(4) 0.01426(3)
Mo4B Mo -0.12181(4) -0.41401(3) -0.00494(3)
O1B O -0.0903(3) -0.5692(2) 0.00222(19)
O2B O -0.0952(4) -0.7242(3) -0.1025(2)
O3B O 0.2670(4) -0.4323(3) -0.1389(2)
O4B O -0.2738(4) -0.4106(3) -0.0035(2)
O5B O -0.0886(3) -0.4451(2) -0.12194(19)
O6B O -0.2671(4) -0.7454(3) 0.0161(3)
O7B O -0.0832(4) -0.8777(3) 0.0191(3)
O8B O 0.0861(4) -0.4359(3) -0.2529(2)
O9B O -0.0850(3) -0.4295(2) 0.1141(2)
O10B O 0.0819(4) -0.2937(3) -0.1261(2)
O11B O -0.2704(4) -0.5805(3) -0.1401(2)
O12B O -0.0825(4) -0.6001(3) -0.2429(2)
O13B O -0.0786(4) -0.2883(3) -0.0090(2)
Ni1 Ni 0.09564(7) -0.05018(5) 0.27210(4)
Ni2 Ni -0.40611(7) -0.25349(6) 0.05893(4)
O14 O -0.0008(4) -0.0207(3) 0.3742(2)
O15 O -0.2868(4) -0.3632(3) 0.2747(2)
O16 O 0.2824(4) -0.2914(3) 0.3310(2)
N1 N -0.2613(4) -0.1905(3) 0.1098(3)
N2 N -0.0624(4) -0.1229(3) 0.1982(3)
C1 C -0.1258(5) -0.2005(4) 0.2243(3)
H1 H -0.1018 -0.2327 0.2733
O17 O 0.0511(4) 0.0750(3) 0.2120(2)
C2 C 0.2900(5) -0.1661(4) 0.2240(3)
C3 C 0.3754(6) -0.0780(4) 0.0888(3)
H2 H 0.4021 -0.0458 0.0410
C4 C -0.3040(6) -0.3190(4) 0.2090(4)
O18 O 0.1442(4) -0.1730(3) 0.3281(2)
C5 C -0.1973(6) -0.1137(4) 0.0824(4)
H3 H -0.2194 -0.0825 0.0324
O19 O -0.5266(4) -0.3491(3) 0.0123(3)
C6 C -0.2251(5) -0.2350(4) 0.1818(3)
C7 C 0.2787(6) -0.0386(4) 0.1310(3)
H4 H 0.2434 0.0200 0.1117
C8 C 0.2387(6) -0.2167(4) 0.3006(3)
N3 N 0.2352(4) -0.0832(3) 0.1988(3)
O20 O -0.3934(4) -0.3350(3) 0.1595(3)
O21 O -0.3993(4) -0.1734(3) -0.0441(2)
N4 N 0.4313(4) -0.1602(3) 0.1145(3)
C9 C 0.3874(5) -0.2030(4) 0.1830(3)
H5 H 0.4245 -0.2601 0.2037
C10 C -0.0985(6) -0.0797(4) 0.1273(4)
H6 H -0.0561 -0.0252 0.1073
Ni2_2 Ni 0.59389(7) -0.25349(6) 0.05893(4)
N4_2 N -0.5687(4) -0.1602(3) 0.1145(3)
O22 O -0.0923(4) -0.4114(3) 0.3867(3)
H7 H -0.0213 -0.3877 0.4053
H8 H -0.1588 -0.4023 0.4171
loop_
_geom_bond_atom_site_label_1
_geom_bond_atom_site_label_2
_geom_bond_site_symmetry_1
_geom_bond_site_symmetry_2
Mo1 O3 1_555 1_555
Mo2 O1 1_555 1_555
Mo3 O1 1_555 1_555
Mo4 O1 1_555 1_555
O1 Mo1B 1_555 1_555
O2 Mo2 1_555 1_555
O4 Mo4 1_555 1_555
O5 Mo1 1_555 1_555
O6 Mo3 1_555 1_555
O7 Mo3 1_555 1_555
O8 Mo1 1_555 1_555
O9 Mo4 1_555 1_555
O10 Mo1 1_555 1_555
O11 Mo2 1_555 1_555
O12 Mo2 1_555 1_555
O13 Mo4 1_555 1_555
Ni1 O14 1_555 1_555
Ni2 N1 1_555 1_555
O15 C4 1_555 1_555
O16 C8 1_555 1_555
N1 C5 1_555 1_555
N2 Ni1 1_555 1_555
C1 N2 1_555 1_555
H1 C1 1_555 1_555
O17 Ni1 1_555 1_555
C2 C8 1_555 1_555
C3 H2 1_555 1_555
C4 C6 1_555 1_555
O18 Ni1 1_555 1_555
C5 H3 1_555 1_555
O19 Ni2 1_555 1_555
C6 N1 1_555 1_555
C7 C3 1_555 1_555
H4 C7 1_555 1_555
C8 O18 1_555 1_555
N3 Ni1 1_555 1_555
O20 Ni2 1_555 1_555
O21 Ni2 1_555 1_555
N4 C3 1_555 1_555
C9 C2 1_555 1_555
H5 C9 1_555 1_555
C10 N2 1_555 1_555
H6 C10 1_555 1_555
O22 H7 1_555 1_555
H8 O22 1_555 1_555
Mo1B O9 1_555 1_555
Mo2B O9 1_555 1_555
Mo3B O10 1_555 1_555
Mo4B O1 1_555 1_555
O1B Mo1 1_555 1_555
O2B Mo2B 1_555 1_555
O3B Mo1B 1_555 1_555
O4B Mo4B 1_555 1_555
O5B Mo1B 1_555 1_555
O6B Mo3B 1_555 1_555
O7B Mo3B 1_555 1_555
O8B Mo1B 1_555 1_555
O9B Mo1 1_555 1_555
O10B Mo3 1_555 1_555
O11B Mo2B 1_555 1_555
O12B Mo2B 1_555 1_555
O13B Mo3 1_555 1_555
Ni2_2 N4 1_555 1_555
N4_2 Ni2 1_555 1_555
Mo2 O5 1_555 1_555
Mo2 O9B 1_555 1_555
Mo3 O2 1_555 1_555
Mo4 O5 1_555 1_555
Mo4 O1B 1_555 1_555
O13 Mo3B 1_555 1_555
C1 C6 1_555 1_555
C2 N3 1_555 1_555
C4 O20 1_555 1_555
C5 C10 1_555 1_555
C7 N3 1_555 1_555
N4 C9 1_555 1_555
Mo1B O10B 1_555 1_555
Mo2B O1B 1_555 1_555
Mo2B O5B 1_555 1_555
Mo3B O1B 1_555 1_555
Mo3B O2B 1_555 1_555
Mo4B O1B 1_555 1_555
Mo4B O5B 1_555 1_555
Mo4B O9B 1_555 1_555
Mo4B O13B 1_555 1_555

#END
