
#######################################################################
#
#                 Cambridge Crystallographic Data Centre
#                                CCDC 
#
#######################################################################
#
# If this CIF has been generated from an entry in the Cambridge 
# Structural Database, then it will include bibliographic, chemical, 
# crystal, experimental, refinement or atomic coordinate data resulting 
# from the CCDC's data processing and validation procedures.
#
#######################################################################

data_TOSPEY
_symmetry_cell_setting           triclinic
_symmetry_space_group_name_H-M   'P -1'
_symmetry_Int_Tables_number      2
_space_group_name_Hall           '-P 1'
loop_
_symmetry_equiv_pos_site_id
_symmetry_equiv_pos_as_xyz
1 x,y,z
2 -x,-y,-z
_cell_length_a                   7.1028(3)
_cell_length_b                   9.0104(5)
_cell_length_c                   15.2719(8)
_cell_angle_alpha                72.983(5)
_cell_angle_beta                 82.497(4)
_cell_angle_gamma                88.316(4)
_cell_volume                     926.553
loop_
_atom_site_label
_atom_site_type_symbol
_atom_site_fract_x
_atom_site_fract_y
_atom_site_fract_z
Cu1 Cu 0.33590(7) 0.59597(6) 0.19653(4)
S1 S 0.38721(18) 0.69992(14) 0.04069(9)
Cl1 Cl 0.84660(15) 0.57328(13) 0.15765(8)
O1 O 0.9021(5) 0.7252(4) 0.1007(3)
O2 O 0.6802(5) 0.5804(5) 0.2198(3)
O3 O 0.9978(4) 0.5070(4) 0.2092(3)
O4 O 0.8072(6) 0.4821(5) 0.1002(3)
N1 N 0.3061(5) 0.5136(5) 0.3368(3)
N2 N 0.2648(5) 0.8066(4) 0.2001(3)
N3 N 0.2539(5) 0.9171(4) 0.1161(3)
H1 H 0.2180 1.0099 0.1142
N4 N 0.2776(6) 0.9824(4) -0.0392(3)
H2 H 0.2349 1.0726 -0.0388
H3 H 0.3057 0.9612 -0.0907
C1 C 0.2234(6) 0.8555(6) 0.2705(4)
H4 H 0.1934 0.9599 0.2600
C2 C 0.3431(7) 0.3654(7) 0.3714(4)
H5 H 0.3784 0.3083 0.3302
C3 C 0.3332(9) 0.2885(8) 0.4647(5)
H6 H 0.3610 0.1833 0.4848
C4 C 0.2829(8) 0.3680(10) 0.5255(5)
H7 H 0.2745 0.3179 0.5885
C5 C 0.1932(9) 0.6160(12) 0.5570(5)
H8 H 0.1854 0.5688 0.6203
C6 C 0.1579(10) 0.7677(12) 0.5246(6)
H9 H 0.1233 0.8249 0.5658
C7 C 0.1719(8) 0.8401(9) 0.4313(5)
H10 H 0.1487 0.9460 0.4110
C8 C 0.2195(7) 0.7608(7) 0.3660(4)
C9 C 0.2566(6) 0.5981(7) 0.3972(4)
C10 C 0.2426(7) 0.5277(9) 0.4943(4)
C11 C 0.2995(6) 0.8788(5) 0.0378(3)
O5 O 0.3815(5) 0.3880(3) 0.1761(3)
H11 H 0.3188 0.3619 0.1513
H12 H 0.4827 0.3575 0.1707
Cu1_2 Cu 1.33590(7) 0.59597(6) 0.19653(4)
O3_2 O -0.0022(4) 0.5070(4) 0.2092(3)
Cl2 Cl 0.7048(2) 0.04639(14) 0.27814(10)
O6 O 0.5846(7) 0.0355(6) 0.3602(4)
O7 O 0.8643(15) 0.1397(11) 0.2729(7)
O8 O 0.6006(12) 0.1126(10) 0.2039(5)
O9 O 0.7779(14) -0.0952(9) 0.2666(7)
O13 O 0.1315(5) 0.2381(4) 0.1056(3)
H13 H 0.0057 0.2211 0.1316
H14 H 0.1229 0.2509 0.0418
O10? O 0.872(5) 0.041(6) 0.308(3)
O11? O 0.711(3) 0.177(3) 0.201(2)
O12? O 0.647(5) -0.082(5) 0.260(3)
loop_
_geom_bond_atom_site_label_1
_geom_bond_atom_site_label_2
_geom_bond_site_symmetry_1
_geom_bond_site_symmetry_2
Cu1 S1 1_555 1_555
S1 C11 1_555 1_555
Cl1 O1 1_555 1_555
O2 Cu1 1_555 1_555
O3 Cl1 1_555 1_555
O4 Cl1 1_555 1_555
N1 Cu1 1_555 1_555
N2 Cu1 1_555 1_555
N3 N2 1_555 1_555
H1 N3 1_555 1_555
N4 H2 1_555 1_555
H3 N4 1_555 1_555
C1 N2 1_555 1_555
H4 C1 1_555 1_555
C2 N1 1_555 1_555
H5 C2 1_555 1_555
C3 C2 1_555 1_555
H6 C3 1_555 1_555
C4 C3 1_555 1_555
H7 C4 1_555 1_555
C5 H8 1_555 1_555
C6 C5 1_555 1_555
H9 C6 1_555 1_555
C7 C6 1_555 1_555
H10 C7 1_555 1_555
C8 C1 1_555 1_555
C9 N1 1_555 1_555
C10 C4 1_555 1_555
C11 N3 1_555 1_555
O5 Cu1 1_555 1_555
H11 O5 1_555 1_555
H12 O5 1_555 1_555
Cl2 O6 1_555 1_555
O7 Cl2 1_555 1_555
O8 Cl2 1_555 1_555
O9 Cl2 1_555 1_555
O13 H13 1_555 1_555
H14 O13 1_555 1_555
Cu1_2 O3 1_555 1_555
O3_2 Cu1 1_555 1_555
Cl1 O2 1_555 1_555
N4 C11 1_555 1_555
C5 C10 1_555 1_555
C7 C8 1_555 1_555
C8 C9 1_555 1_555
C9 C10 1_555 1_555

#END
