
#######################################################################
#
#                 Cambridge Crystallographic Data Centre
#                                CCDC 
#
#######################################################################
#
# If this CIF has been generated from an entry in the Cambridge 
# Structural Database, then it will include bibliographic, chemical, 
# crystal, experimental, refinement or atomic coordinate data resulting 
# from the CCDC's data processing and validation procedures.
#
#######################################################################

data_TOSQAV
_symmetry_cell_setting           triclinic
_symmetry_space_group_name_H-M   'P -1'
_symmetry_Int_Tables_number      2
_space_group_name_Hall           '-P 1'
loop_
_symmetry_equiv_pos_site_id
_symmetry_equiv_pos_as_xyz
1 x,y,z
2 -x,-y,-z
_cell_length_a                   6.6953(12)
_cell_length_b                   10.4322(17)
_cell_length_c                   10.4390(15)
_cell_angle_alpha                62.618(5)
_cell_angle_beta                 71.985(6)
_cell_angle_gamma                83.474(8)
_cell_volume                     615.345
loop_
_atom_site_label
_atom_site_type_symbol
_atom_site_fract_x
_atom_site_fract_y
_atom_site_fract_z
Cu1 Cu 0.5000 0.5000 0.5000
Na1 Na 0.25880(8) 0.90256(6) 1.02877(6)
O1 O 0.31714(15) 0.37384(10) 0.84124(10)
O2 O 0.70474(16) 0.76373(10) 0.45256(10)
O3 O 0.41215(15) 0.76004(11) 0.91032(11)
O4 O -0.10754(15) 0.56671(10) 0.82633(10)
O5 O -0.01426(15) 0.95627(10) 0.88835(11)
O6 O 0.28487(15) 0.95651(10) 0.43443(10)
O7 O 0.24004(17) 0.59783(13) 0.48039(13)
O8 O 0.49672(18) 0.89644(12) 1.16855(12)
O9 O 0.07371(17) 0.67993(12) 1.24389(12)
N1 N 0.51215(16) 0.56669(11) 0.64368(11)
N2 N 0.36783(17) 0.56401(12) 0.87975(11)
N3 N 0.56223(17) 0.76482(12) 0.68036(11)
N4 N 0.09003(16) 0.75712(11) 0.62360(11)
N5 N -0.06907(17) 0.76290(12) 0.85641(12)
N6 N 0.13681(17) 0.95736(12) 0.66050(12)
C1 C 0.01480(19) 0.89644(13) 0.80690(14)
C2 C 0.44581(19) 0.70007(13) 0.82918(13)
C3 C 0.17347(19) 0.89101(13) 0.56744(13)
C4 C 0.39675(19) 0.49544(13) 0.78976(13)
C5 C -0.03013(18) 0.69060(13) 0.76839(13)
C6 C 0.59903(19) 0.70004(13) 0.58644(13)
H1 H 0.194(4) 0.652(3) 0.524(3)
H2 H 0.291(3) 0.521(2) 0.967(2)
H3 H 0.613(3) 0.852(2) 0.643(2)
H4 H -0.148(3) 0.722(2) 0.943(2)
H5 H 0.190(3) 1.041(2) 0.627(2)
H6 H 0.199(4) 0.617(3) 0.407(3)
H7 H 0.555(4) 0.819(3) 1.180(3)
H8 H 0.450(4) 0.902(3) 1.245(3)
H9 H -0.042(5) 0.699(3) 1.288(3)
H10 H 0.064(4) 0.610(3) 1.229(3)
Na1A Na -0.25880(8) 1.09744(6) 0.97123(6)
O1A O -0.31714(15) 1.62616(10) 1.15876(10)
O2A O -0.70474(16) 1.23627(10) 1.54744(10)
O3A O -0.41215(15) 1.23996(11) 1.08968(11)
O4A O 0.10754(15) 1.43329(10) 1.17367(10)
O5A O 0.01426(15) 1.04373(10) 1.11165(11)
O6A O -0.28487(15) 1.04349(10) 1.56557(10)
O8A O -0.49672(18) 1.10356(12) 0.83145(12)
O9A O -0.07371(17) 1.32007(12) 0.75611(12)
N1A N -0.51215(16) 1.43331(11) 1.35632(11)
N2A N -0.36783(17) 1.43599(12) 1.12025(11)
N3A N -0.56223(17) 1.23518(12) 1.31964(11)
N4A N -0.09003(16) 1.24288(11) 1.37640(11)
N5A N 0.06907(17) 1.23710(12) 1.14359(12)
N6A N -0.13681(17) 1.04264(12) 1.33950(12)
C1A C -0.01480(19) 1.10356(13) 1.19310(14)
C2A C -0.44581(19) 1.29993(13) 1.17082(13)
C3A C -0.17347(19) 1.10899(13) 1.43256(13)
C4A C -0.39675(19) 1.50456(13) 1.21024(13)
C5A C 0.03013(18) 1.30940(13) 1.23161(13)
C6A C -0.59903(19) 1.29996(13) 1.41356(13)
H2A H -0.291(3) 1.479(2) 1.033(2)
H3A H -0.613(3) 1.148(2) 1.357(2)
H4A H 0.148(3) 1.278(2) 1.057(2)
H5A H -0.190(3) 0.959(2) 1.373(2)
H7A H -0.555(4) 1.181(3) 0.820(3)
H8A H -0.450(4) 1.098(3) 0.755(3)
H9A H 0.042(5) 1.301(3) 0.712(3)
H10A H -0.064(4) 1.390(3) 0.771(3)
O7A O 0.75996(17) 0.40217(13) 0.51961(13)
H1A H 0.806(4) 0.348(3) 0.476(3)
H6A H 0.801(4) 0.383(3) 0.593(3)
Cu1_2 Cu -0.5000 1.5000 1.5000
Na1_2 Na -0.74120(8) 0.90256(6) 1.02877(6)
Na1A_2 Na 0.74120(8) 1.09744(6) 0.97123(6)
O8_2 O -0.50328(18) 0.89644(12) 1.16855(12)
O8A_2 O 0.50328(18) 1.10356(12) 0.83145(12)
N1A_2 N 0.48785(16) 0.43331(11) 0.35632(11)
loop_
_geom_bond_atom_site_label_1
_geom_bond_atom_site_label_2
_geom_bond_site_symmetry_1
_geom_bond_site_symmetry_2
Cu1 O7 1_555 1_555
Na1 O3 1_555 1_555
O1 C4 1_555 1_555
O2 C6 1_555 1_555
O3 C2 1_555 1_555
O4 C5 1_555 1_555
O5 Na1 1_555 1_555
O6 C3 1_555 1_555
O7 H1 1_555 1_555
O8 Na1 1_555 1_555
O9 Na1 1_555 1_555
N1 Cu1 1_555 1_555
N2 C2 1_555 1_555
N3 C2 1_555 1_555
N4 C3 1_555 1_555
N5 C1 1_555 1_555
N6 C1 1_555 1_555
C1 O5 1_555 1_555
C3 N6 1_555 1_555
C4 N1 1_555 1_555
C5 N4 1_555 1_555
C6 N1 1_555 1_555
H2 N2 1_555 1_555
H3 N3 1_555 1_555
H4 N5 1_555 1_555
H5 N6 1_555 1_555
H6 O7 1_555 1_555
H7 O8 1_555 1_555
H8 O8 1_555 1_555
H9 O9 1_555 1_555
H10 O9 1_555 1_555
Na1A O5 1_555 1_555
O1A C4A 1_555 1_555
O2A C6A 1_555 1_555
O3A Na1A 1_555 1_555
O4A C5A 1_555 1_555
O5A Na1 1_555 1_555
O6A C3A 1_555 1_555
O8A Na1A 1_555 1_555
O9A Na1A 1_555 1_555
N1A C4A 1_555 1_555
N2A C2A 1_555 1_555
N3A C2A 1_555 1_555
N4A C3A 1_555 1_555
N5A C1A 1_555 1_555
N6A C1A 1_555 1_555
C1A O5A 1_555 1_555
C2A O3A 1_555 1_555
C3A N6A 1_555 1_555
C4A N2A 1_555 1_555
C5A N4A 1_555 1_555
C6A N1A 1_555 1_555
H2A N2A 1_555 1_555
H3A N3A 1_555 1_555
H4A N5A 1_555 1_555
H5A N6A 1_555 1_555
H7A O8A 1_555 1_555
H8A O8A 1_555 1_555
H9A O9A 1_555 1_555
H10A O9A 1_555 1_555
O7A Cu1 1_555 1_555
H1A O7A 1_555 1_555
H6A O7A 1_555 1_555
Cu1_2 N1A 1_555 1_555
Na1_2 O8A 1_555 1_555
Na1A_2 O8 1_555 1_555
O8_2 Na1A 1_555 1_555
O8A_2 Na1 1_555 1_555
N1A_2 Cu1 1_555 1_555
N2 C4 1_555 1_555
N3 C6 1_555 1_555
N5 C5 1_555 1_555
Na1A O5A 1_555 1_555
N3A C6A 1_555 1_555
N5A C5A 1_555 1_555
Na1_2 O8_2 1_555 1_555
Na1A_2 O8A_2 1_555 1_555

#END
