
#######################################################################
#
#                 Cambridge Crystallographic Data Centre
#                                CCDC 
#
#######################################################################
#
# If this CIF has been generated from an entry in the Cambridge 
# Structural Database, then it will include bibliographic, chemical, 
# crystal, experimental, refinement or atomic coordinate data resulting 
# from the CCDC's data processing and validation procedures.
#
#######################################################################

data_TOSXIK
_symmetry_cell_setting           monoclinic
_symmetry_space_group_name_H-M   'P 21/c'
_symmetry_Int_Tables_number      14
_space_group_name_Hall           '-P 2ybc'
loop_
_symmetry_equiv_pos_site_id
_symmetry_equiv_pos_as_xyz
1 x,y,z
2 -x,1/2+y,1/2-z
3 -x,-y,-z
4 x,1/2-y,1/2+z
_cell_length_a                   11.3467(16)
_cell_length_b                   9.2273(13)
_cell_length_c                   18.453(3)
_cell_angle_alpha                90
_cell_angle_beta                 107.701(2)
_cell_angle_gamma                90
_cell_volume                     1840.55
loop_
_atom_site_label
_atom_site_type_symbol
_atom_site_fract_x
_atom_site_fract_y
_atom_site_fract_z
Cd1 Cd 0.71987(2) 0.79526(2) 0.277130(12)
O1 O 0.5377(2) 0.6824(3) 0.18226(13)
O2 O 0.7226(2) 0.6520(3) 0.17007(13)
O3 O 0.4025(2) 0.3857(2) 0.15750(13)
O4 O 0.2667(2) 0.5552(3) 0.10197(15)
N1 N 0.7409(3) 0.5884(3) 0.35124(17)
N2 N 0.7294(4) 0.3669(4) 0.3902(2)
H1 H 0.7094 0.2769 0.3895
C1 C 0.6897(4) 0.4604(5) 0.3330(3)
H2 H 0.6331 0.4379 0.2862
C2 C 0.8055(5) 0.4379(6) 0.4487(3)
H3 H 0.8448 0.4007 0.4969
C3 C 0.8145(5) 0.5739(5) 0.4246(3)
H4 H 0.8634 0.6468 0.4535
N3 N 0.6736(3) 0.9858(3) 0.19212(15)
N4 N 0.5618(3) 1.1716(4) 0.1382(2)
H5 H 0.5172 1.2486 0.1330
N5 N 0.9244(3) 0.8361(3) 0.31607(19)
N6 N 1.0986(3) 0.9496(4) 0.3308(2)
H6 H 1.1499 1.0195 0.3332
C4 C 0.6089(3) 1.0974(4) 0.2017(2)
H7 H 0.5973 1.1217 0.2480
C5 C 0.5964(4) 1.1044(5) 0.0829(2)
H8 H 0.5765 1.1314 0.0321
C6 C 0.6656(4) 0.9903(4) 0.1165(2)
H9 H 0.7024 0.9243 0.0920
C7 C 0.9777(4) 0.9609(5) 0.3181(3)
H10 H 0.9356 1.0487 0.3114
C8 C 1.1252(4) 0.8090(6) 0.3389(4)
H11 H 1.2033 0.7676 0.3492
C9 C 1.0183(4) 0.7379(5) 0.3294(3)
H12 H 1.0098 0.6379 0.3316
C10 C 0.6067(3) 0.6360(3) 0.14664(17)
C11 C 0.5511(3) 0.5629(3) 0.07160(16)
C12 C 0.6161(3) 0.5611(3) 0.01894(16)
H13 H 0.6947 0.6019 0.0318
C13 C 0.4336(3) 0.5003(3) 0.05234(16)
C14 C 0.3609(3) 0.4828(3) 0.10865(17)
O1B O 0.4623(2) 0.3176(3) -0.18226(13)
O2B O 0.2774(2) 0.3480(3) -0.17007(13)
O3B O 0.5975(2) 0.6143(2) -0.15750(13)
O4B O 0.7333(2) 0.4448(3) -0.10197(15)
C10B C 0.3933(3) 0.3640(3) -0.14664(17)
C11B C 0.4489(3) 0.4371(3) -0.07160(16)
C12B C 0.3839(3) 0.4389(3) -0.01894(16)
H13B H 0.3053 0.3981 -0.0318
C13B C 0.5664(3) 0.4997(3) -0.05234(16)
C14B C 0.6391(3) 0.5172(3) -0.10865(17)
Cd1B Cd 0.28013(2) 0.20474(2) -0.277130(12)
N1B N 0.2591(3) 0.4116(3) -0.35124(17)
N2B N 0.2706(4) 0.6331(4) -0.3902(2)
H1B H 0.2906 0.7231 -0.3895
C1B C 0.3103(4) 0.5396(5) -0.3330(3)
H2B H 0.3669 0.5621 -0.2862
C2B C 0.1945(5) 0.5621(6) -0.4487(3)
H3B H 0.1552 0.5993 -0.4969
C3B C 0.1855(5) 0.4261(5) -0.4246(3)
H4B H 0.1366 0.3532 -0.4535
N3B N 0.3264(3) 0.0142(3) -0.19212(15)
N4B N 0.4382(3) -0.1716(4) -0.1382(2)
H5B H 0.4828 -0.2486 -0.1330
N5B N 0.0756(3) 0.1639(3) -0.31607(19)
N6B N -0.0986(3) 0.0504(4) -0.3308(2)
H6B H -0.1499 -0.0195 -0.3332
C4B C 0.3911(3) -0.0974(4) -0.2017(2)
H7B H 0.4027 -0.1217 -0.2480
C5B C 0.4036(4) -0.1044(5) -0.0829(2)
H8B H 0.4235 -0.1314 -0.0321
C6B C 0.3344(4) 0.0097(4) -0.1165(2)
H9B H 0.2976 0.0757 -0.0920
C7B C 0.0223(4) 0.0391(5) -0.3181(3)
H10B H 0.0644 -0.0487 -0.3114
C8B C -0.1252(4) 0.1910(6) -0.3389(4)
H11B H -0.2033 0.2324 -0.3492
C9B C -0.0183(4) 0.2621(5) -0.3294(3)
H12B H -0.0098 0.3621 -0.3316
Cd1A Cd 0.28013(2) 0.29526(2) 0.222870(12)
Cd1C Cd 0.71987(2) 0.70474(2) -0.222870(12)
O3A O 0.5975(2) 0.8857(2) 0.34250(13)
O3C O 0.4025(2) 0.1143(2) -0.34250(13)
O5 O -0.0125(15) 0.6054(16) 0.0125(8)
H14 H -0.0846 0.6420 0.0001
H15 H 0.0286 0.6419 0.0549
loop_
_geom_bond_atom_site_label_1
_geom_bond_atom_site_label_2
_geom_bond_site_symmetry_1
_geom_bond_site_symmetry_2
Cd1 O1 1_555 1_555
O1 C10 1_555 1_555
O2 Cd1 1_555 1_555
O3 C14 1_555 1_555
O4 C14 1_555 1_555
N1 Cd1 1_555 1_555
N2 H1 1_555 1_555
C1 N1 1_555 1_555
H2 C1 1_555 1_555
C2 N2 1_555 1_555
H3 C2 1_555 1_555
C3 N1 1_555 1_555
H4 C3 1_555 1_555
N3 Cd1 1_555 1_555
N4 H5 1_555 1_555
N5 Cd1 1_555 1_555
N6 H6 1_555 1_555
C4 N3 1_555 1_555
H7 C4 1_555 1_555
C5 N4 1_555 1_555
H8 C5 1_555 1_555
C6 N3 1_555 1_555
H9 C6 1_555 1_555
C7 N5 1_555 1_555
H10 C7 1_555 1_555
C8 N6 1_555 1_555
H11 C8 1_555 1_555
C9 N5 1_555 1_555
H12 C9 1_555 1_555
C10 O2 1_555 1_555
C11 C10 1_555 1_555
C12 C11 1_555 1_555
H13 C12 1_555 1_555
C13 C11 1_555 1_555
C14 C13 1_555 1_555
O5 H14 1_555 1_555
H15 O5 1_555 1_555
O1B C10B 1_555 1_555
O2B C10B 1_555 1_555
O3B C14B 1_555 1_555
O4B C14B 1_555 1_555
C10B C11B 1_555 1_555
C11B C12B 1_555 1_555
C12B C13 1_555 1_555
H13B C12B 1_555 1_555
C13B C12 1_555 1_555
C14B C13B 1_555 1_555
Cd1B O1B 1_555 1_555
N1B Cd1B 1_555 1_555
N2B H1B 1_555 1_555
C1B N1B 1_555 1_555
H2B C1B 1_555 1_555
C2B N2B 1_555 1_555
H3B C2B 1_555 1_555
C3B N1B 1_555 1_555
H4B C3B 1_555 1_555
N3B Cd1B 1_555 1_555
N4B H5B 1_555 1_555
N5B Cd1B 1_555 1_555
N6B H6B 1_555 1_555
C4B N3B 1_555 1_555
H7B C4B 1_555 1_555
C5B N4B 1_555 1_555
H8B C5B 1_555 1_555
C6B N3B 1_555 1_555
H9B C6B 1_555 1_555
C7B N5B 1_555 1_555
H10B C7B 1_555 1_555
C8B N6B 1_555 1_555
H11B C8B 1_555 1_555
C9B N5B 1_555 1_555
H12B C9B 1_555 1_555
Cd1A O3 1_555 1_555
Cd1C O3B 1_555 1_555
O3A Cd1 1_555 1_555
O3C Cd1B 1_555 1_555
N2 C1 1_555 1_555
C2 C3 1_555 1_555
N4 C4 1_555 1_555
N6 C7 1_555 1_555
C5 C6 1_555 1_555
C8 C9 1_555 1_555
O2B Cd1B 1_555 1_555
C11B C13B 1_555 1_555
N2B C1B 1_555 1_555
C2B C3B 1_555 1_555
N4B C4B 1_555 1_555
N6B C7B 1_555 1_555
C5B C6B 1_555 1_555
C8B C9B 1_555 1_555

#END
