
#######################################################################
#
#                 Cambridge Crystallographic Data Centre
#                                CCDC 
#
#######################################################################
#
# If this CIF has been generated from an entry in the Cambridge 
# Structural Database, then it will include bibliographic, chemical, 
# crystal, experimental, refinement or atomic coordinate data resulting 
# from the CCDC's data processing and validation procedures.
#
#######################################################################

data_TOSXOQ
_symmetry_cell_setting           triclinic
_symmetry_space_group_name_H-M   'P -1'
_symmetry_Int_Tables_number      2
_space_group_name_Hall           '-P 1'
loop_
_symmetry_equiv_pos_site_id
_symmetry_equiv_pos_as_xyz
1 x,y,z
2 -x,-y,-z
_cell_length_a                   12.0323(16)
_cell_length_b                   14.5644(19)
_cell_length_c                   17.832(2)
_cell_angle_alpha                71.033(2)
_cell_angle_beta                 89.782(2)
_cell_angle_gamma                75.446(2)
_cell_volume                     2850.07
loop_
_atom_site_label
_atom_site_type_symbol
_atom_site_fract_x
_atom_site_fract_y
_atom_site_fract_z
Cu1 Cu 0.80250(4) 0.81019(3) 0.65118(2)
Cu2 Cu 0.94881(4) 0.66537(4) 0.19380(3)
Cu3 Cu 0.45913(4) 0.72482(4) 0.12055(3)
Cu4 Cu 0.33111(4) 0.74820(4) 0.63093(3)
O1 O 0.6906(2) 0.8067(2) 0.56983(15)
O2 O 0.7740(3) 0.6482(3) 0.58121(18)
O3 O 0.8370(3) 0.6620(2) 0.27681(16)
O4 O 0.7655(3) 0.8253(2) 0.20991(17)
O5 O 0.5687(2) 0.7287(2) 0.19999(15)
O6 O 0.4202(3) 0.8470(3) 0.2052(2)
O7 O 0.4752(2) 0.7295(2) 0.57582(14)
O8 O 0.3474(2) 0.8418(2) 0.48111(17)
O9 O 1.0108(3) 0.6492(2) 0.7591(2)
O10 O 0.9199(2) 0.8103(2) 0.73131(15)
O11 O 1.2070(2) 0.7499(2) 0.70285(14)
O12 O 1.3551(2) 0.6480(2) 0.78720(17)
O13 O 0.9263(3) 0.8286(3) 1.03756(18)
O14 O 1.0497(2) 0.6845(2) 1.10417(14)
O15 O 1.2189(3) 0.8198(3) 1.06006(18)
O16 O 1.3649(2) 0.7018(3) 1.04345(17)
O17 O 0.6969(3) 0.9760(2) 0.64471(18)
H1 H 0.7161 0.9806 0.6876
H2 H 0.7134 1.0140 0.6042
O18 O 1.0635(3) 0.4931(3) 0.2778(2)
H3 H 1.0593 0.4571 0.2507
H4 H 1.0538 0.4739 0.3249
N1 N 0.7114(3) 0.7545(3) 0.73893(18)
N2 N 0.5826(4) 0.6848(4) 0.8025(3)
H5 H 0.5316 0.6514 0.8138
N3 N 0.8959(3) 0.8557(3) 0.56219(19)
N4 N 0.9480(4) 0.9207(3) 0.4433(2)
H6 H 0.9435 0.9517 0.3929
N5 N 1.0414(3) 0.7151(3) 0.2540(2)
N6 N 1.1470(5) 0.8004(4) 0.2835(3)
H7 H 1.1869 0.8433 0.2778
N7 N 0.8595(4) 0.6060(3) 0.1370(2)
N8 N 0.7287(5) 0.5419(4) 0.1041(4)
H8 H 0.6672 0.5218 0.1043
N9 N 0.5177(3) 0.8199(3) 0.0350(2)
N10 N 0.6269(5) 0.9107(4) -0.0318(3)
H9 H 0.6861 0.9339 -0.0439
N11 N 0.4084(3) 0.6221(3) 0.2074(2)
N12 N 0.2973(4) 0.5336(3) 0.2762(3)
H10 H 0.2386 0.5098 0.2886
N13 N 0.2898(3) 0.6393(3) 0.6021(2)
N14 N 0.2253(4) 0.5088(4) 0.6174(3)
H11 H 0.1903 0.4627 0.6371
N15 N 0.3615(3) 0.8646(3) 0.6540(2)
N16 N 0.4570(3) 0.9670(3) 0.6686(2)
H12 H 0.5096 0.9985 0.6645
C1 C 0.6537(3) 0.7496(3) 0.4651(2)
C2 C 0.7269(3) 0.7393(3) 0.4065(2)
H13 H 0.8061 0.7213 0.4193
C3 C 0.6863(3) 0.7549(3) 0.3295(2)
C4 C 0.5676(3) 0.7816(3) 0.3110(2)
C5 C 0.4941(3) 0.7929(3) 0.3692(2)
H14 H 0.4150 0.8114 0.3563
C6 C 0.5347(3) 0.7776(3) 0.4459(2)
C7 C 0.7097(3) 0.7316(3) 0.5461(2)
C8 C 0.7682(3) 0.7487(3) 0.2661(2)
C9 C 0.5153(4) 0.7892(3) 0.2322(2)
C10 C 0.4460(3) 0.7858(3) 0.5043(2)
C11 C 0.6382(4) 0.7017(3) 0.7378(3)
H15 H 0.6269 0.6788 0.6961
C12 C 0.6226(5) 0.7315(5) 0.8486(3)
H16 H 0.5997 0.7323 0.8983
C13 C 0.6991(4) 0.7747(4) 0.8092(3)
H17 H 0.7385 0.8127 0.8262
C14 C 1.0134(4) 0.8391(4) 0.5651(3)
H18 H 1.0634 0.8054 0.6109
C15 C 1.0453(4) 0.8785(5) 0.4925(3)
H19 H 1.1201 0.8771 0.4786
C16 C 0.8601(4) 0.9056(4) 0.4868(2)
H20 H 0.7833 0.9275 0.4666
C17 C 1.0610(5) 0.6862(4) 0.3350(3)
H21 H 1.0333 0.6372 0.3718
C18 C 1.1257(6) 0.7392(5) 0.3524(4)
H22 H 1.1512 0.7344 0.4030
C19 C 1.0954(5) 0.7837(4) 0.2251(3)
H23 H 1.0980 0.8166 0.1711
C20 C 0.7646(5) 0.5796(4) 0.1563(4)
H24 H 0.7266 0.5860 0.2006
C21 C 0.8127(8) 0.5423(5) 0.0492(3)
H25 H 0.8144 0.5191 0.0063
C22 C 0.8862(7) 0.5808(5) 0.0703(3)
H26 H 0.9508 0.5907 0.0433
C23 C 0.6183(5) 0.8390(4) 0.0357(3)
H27 H 0.6758 0.8071 0.0774
C24 C 0.5283(7) 0.9403(5) -0.0772(3)
H28 H 0.5099 0.9899 -0.1270
C25 C 0.4612(6) 0.8843(4) -0.0367(3)
H29 H 0.3869 0.8884 -0.0545
C26 C 0.3077(4) 0.6008(4) 0.2091(3)
H30 H 0.2505 0.6305 0.1671
C27 C 0.3968(5) 0.5084(4) 0.3229(3)
H31 H 0.4149 0.4618 0.3740
C28 C 0.4634(4) 0.5640(4) 0.2808(3)
H32 H 0.5362 0.5633 0.2987
C29 C 0.3316(4) 0.5957(4) 0.5467(3)
H33 H 0.3815 0.6181 0.5093
C30 C 0.2909(5) 0.5171(4) 0.5541(3)
H34 H 0.3041 0.4761 0.5227
C31 C 0.2251(5) 0.5842(4) 0.6428(3)
H35 H 0.1842 0.5965 0.6844
C32 C 0.3041(4) 0.9164(3) 0.7004(3)
H36 H 0.2350 0.9088 0.7219
C33 C 0.3618(4) 0.9796(3) 0.7104(3)
H37 H 0.3415 1.0230 0.7396
C34 C 0.4541(4) 0.8987(3) 0.6361(3)
H38 H 0.5096 0.8770 0.6047
C35 C 0.9939(3) 0.7294(3) 0.7706(2)
C36 C 1.0656(3) 0.7352(3) 0.8382(2)
C37 C 1.1854(3) 0.7170(3) 0.83988(19)
C38 C 1.2455(3) 0.7210(3) 0.9039(2)
H39 H 1.3251 0.7097 0.9044
C39 C 1.1913(3) 0.7411(3) 0.9670(2)
C40 C 1.0722(3) 0.7540(3) 0.9682(2)
C41 C 1.0115(3) 0.7521(3) 0.9031(2)
H40 H 0.9320 0.7625 0.9029
C42 C 1.2551(3) 0.7010(3) 0.7727(2)
C43 C 1.0102(3) 0.7597(3) 1.0417(2)
C44 C 1.2607(4) 0.7569(3) 1.0286(2)
Cu2_2 Cu 0.94881(4) 0.66537(4) 1.19380(3)
Cu3_2 Cu 1.45913(4) 0.72482(4) 1.12055(3)
Cu4_2 Cu 1.33111(4) 0.74820(4) 0.63093(3)
O11_2 O 0.2070(2) 0.7499(2) 0.70285(14)
O12_2 O 0.3551(2) 0.6480(2) 0.78720(17)
O14_2 O 1.0497(2) 0.6845(2) 0.10417(14)
O16_2 O 0.3649(2) 0.7018(3) 0.04345(17)
O19 O 0.9842(3) 1.0158(3) 0.2854(2)
H41 H 0.9531 0.9811 0.2673
H42 H 1.0064 1.0626 0.2550
O20 O 0.2410(4) 0.9710(4) 0.2311(3)
H43 H 0.1778 1.0118 0.2279
H44 H 0.2812 0.9548 0.1981
O21 O 0.8659(5) 0.9952(4) 0.1503(3)
H45 H 0.8601 1.0086 0.1908
H46 H 0.8344 0.9625 0.1324
O22 O 0.8320(7) 0.9959(4) 0.9205(3)
H47 H 0.7939 0.9894 0.8879
H48 H 0.8288 0.9818 0.9687
O23 O 1.4581(10) 0.5015(6) 1.0652(5)
H49 H 1.4532 0.4909 1.0224
H50 H 1.4943 0.4657 1.1061
O24 O 1.1583(10) 0.4909(7) 1.0999(6)
H51 H 1.1850 0.5362 1.1075
H52 H 1.1965 0.4344 1.1321
O25 O 0.9763(9) 0.5581(12) 0.5454(7)
H53 H 0.9257 0.6119 0.5199
H54 H 1.0400 0.5728 0.5472
loop_
_geom_bond_atom_site_label_1
_geom_bond_atom_site_label_2
_geom_bond_site_symmetry_1
_geom_bond_site_symmetry_2
Cu1 O1 1_555 1_555
Cu2 O3 1_555 1_555
Cu3 O5 1_555 1_555
Cu4 O7 1_555 1_555
O1 C7 1_555 1_555
O2 C7 1_555 1_555
O3 C8 1_555 1_555
O4 C8 1_555 1_555
O5 C9 1_555 1_555
O6 Cu3 1_555 1_555
O7 C10 1_555 1_555
O8 Cu4 1_555 1_555
O9 C35 1_555 1_555
O10 Cu1 1_555 1_555
O11 C42 1_555 1_555
O12 C42 1_555 1_555
O13 C43 1_555 1_555
O14 C43 1_555 1_555
O15 C44 1_555 1_555
O16 C44 1_555 1_555
O17 Cu1 1_555 1_555
H1 O17 1_555 1_555
H2 O17 1_555 1_555
O18 Cu2 1_555 1_555
H3 O18 1_555 1_555
H4 O18 1_555 1_555
N1 Cu1 1_555 1_555
N2 H5 1_555 1_555
N3 Cu1 1_555 1_555
N4 H6 1_555 1_555
N5 Cu2 1_555 1_555
N6 H7 1_555 1_555
N7 Cu2 1_555 1_555
N8 H8 1_555 1_555
N9 Cu3 1_555 1_555
N10 H9 1_555 1_555
N11 Cu3 1_555 1_555
N12 H10 1_555 1_555
N13 Cu4 1_555 1_555
N14 H11 1_555 1_555
N15 Cu4 1_555 1_555
N16 H12 1_555 1_555
C1 C2 1_555 1_555
C2 H13 1_555 1_555
C3 C2 1_555 1_555
C4 C3 1_555 1_555
C5 C4 1_555 1_555
H14 C5 1_555 1_555
C6 C1 1_555 1_555
C7 C1 1_555 1_555
C8 C3 1_555 1_555
C9 O6 1_555 1_555
C10 O8 1_555 1_555
C11 N1 1_555 1_555
H15 C11 1_555 1_555
C12 N2 1_555 1_555
H16 C12 1_555 1_555
C13 N1 1_555 1_555
H17 C13 1_555 1_555
C14 N3 1_555 1_555
H18 C14 1_555 1_555
C15 N4 1_555 1_555
H19 C15 1_555 1_555
C16 N3 1_555 1_555
H20 C16 1_555 1_555
C17 N5 1_555 1_555
H21 C17 1_555 1_555
C18 N6 1_555 1_555
H22 C18 1_555 1_555
C19 N5 1_555 1_555
H23 C19 1_555 1_555
C20 N7 1_555 1_555
H24 C20 1_555 1_555
C21 N8 1_555 1_555
H25 C21 1_555 1_555
C22 N7 1_555 1_555
H26 C22 1_555 1_555
C23 N9 1_555 1_555
H27 C23 1_555 1_555
C24 N10 1_555 1_555
H28 C24 1_555 1_555
C25 N9 1_555 1_555
H29 C25 1_555 1_555
C26 N11 1_555 1_555
H30 C26 1_555 1_555
C27 N12 1_555 1_555
H31 C27 1_555 1_555
C28 N11 1_555 1_555
H32 C28 1_555 1_555
C29 N13 1_555 1_555
H33 C29 1_555 1_555
C30 N14 1_555 1_555
H34 C30 1_555 1_555
C31 N13 1_555 1_555
H35 C31 1_555 1_555
C32 N15 1_555 1_555
H36 C32 1_555 1_555
C33 N16 1_555 1_555
H37 C33 1_555 1_555
C34 N15 1_555 1_555
H38 C34 1_555 1_555
C35 O10 1_555 1_555
C36 C35 1_555 1_555
C37 C36 1_555 1_555
C38 C37 1_555 1_555
H39 C38 1_555 1_555
C39 C38 1_555 1_555
C40 C39 1_555 1_555
C41 C36 1_555 1_555
H40 C41 1_555 1_555
C42 C37 1_555 1_555
C43 C40 1_555 1_555
C44 C39 1_555 1_555
O19 H41 1_555 1_555
H42 O19 1_555 1_555
O20 H43 1_555 1_555
H44 O20 1_555 1_555
O21 H45 1_555 1_555
H46 O21 1_555 1_555
O22 H47 1_555 1_555
H48 O22 1_555 1_555
O23 H49 1_555 1_555
H50 O23 1_555 1_555
O24 H51 1_555 1_555
H52 O24 1_555 1_555
O25 H53 1_555 1_555
H54 O25 1_555 1_555
Cu2_2 O14 1_555 1_555
Cu3_2 O16 1_555 1_555
Cu4_2 O11 1_555 1_555
O11_2 Cu4 1_555 1_555
O12_2 Cu4 1_555 1_555
O14_2 Cu2 1_555 1_555
O16_2 Cu3 1_555 1_555
O12 Cu4_2 1_555 1_555
N2 C11 1_555 1_555
N4 C16 1_555 1_555
N6 C19 1_555 1_555
N8 C20 1_555 1_555
N10 C23 1_555 1_555
N12 C26 1_555 1_555
N14 C31 1_555 1_555
N16 C34 1_555 1_555
C4 C9 1_555 1_555
C5 C6 1_555 1_555
C6 C10 1_555 1_555
C12 C13 1_555 1_555
C14 C15 1_555 1_555
C17 C18 1_555 1_555
C21 C22 1_555 1_555
C24 C25 1_555 1_555
C27 C28 1_555 1_555
C29 C30 1_555 1_555
C32 C33 1_555 1_555
C40 C41 1_555 1_555

#END
