
#######################################################################
#
#                 Cambridge Crystallographic Data Centre
#                                CCDC 
#
#######################################################################
#
# If this CIF has been generated from an entry in the Cambridge 
# Structural Database, then it will include bibliographic, chemical, 
# crystal, experimental, refinement or atomic coordinate data resulting 
# from the CCDC's data processing and validation procedures.
#
#######################################################################

data_TOTBUB
_symmetry_cell_setting           monoclinic
_symmetry_space_group_name_H-M   'P 21'
_symmetry_Int_Tables_number      4
_space_group_name_Hall           'P 2yb'
loop_
_symmetry_equiv_pos_site_id
_symmetry_equiv_pos_as_xyz
1 x,y,z
2 -x,1/2+y,-z
_cell_length_a                   10.4965(5)
_cell_length_b                   12.8118(6)
_cell_length_c                   10.8810(4)
_cell_angle_alpha                90
_cell_angle_beta                 107.771(5)
_cell_angle_gamma                90
_cell_volume                     1393.45
loop_
_atom_site_label
_atom_site_type_symbol
_atom_site_fract_x
_atom_site_fract_y
_atom_site_fract_z
Li1 Li 0.5210(11) 0.0381(10) 0.3508(8)
Li2 Li 0.5170(10) -0.0392(9) -0.1441(8)
C1 C 0.4379(6) 0.0069(5) 0.0797(5)
C2 C 0.2428(6) 0.0067(6) -0.0846(6)
H1 H 0.1963 0.0069 -0.1723
C3 C 0.1725(7) 0.0078(6) 0.0028(6)
H2 H 0.0795 0.0100 -0.0239
C4 C 0.2446(6) 0.0055(6) 0.1314(6)
H3 H 0.1994 0.0029 0.1927
C5 C 0.5892(6) 0.0064(5) 0.1248(5)
C6 C 0.5980(6) -0.0002(5) 0.6247(5)
C7 C 0.7913(7) 0.0111(6) 0.5742(6)
H4 H 0.8369 0.0147 0.5132
C8 C 0.8632(7) 0.0101(6) 0.7026(6)
H5 H 0.9561 0.0141 0.7299
C9 C 0.7921(6) 0.0029(6) 0.7891(5)
H6 H 0.8387 0.0013 0.8768
C10 C 0.4461(6) -0.0097(5) 0.5817(5)
O1 O 0.6455(4) 0.0173(4) 0.2421(4)
O2 O 0.6448(4) -0.0058(4) 0.0388(4)
O3 O 0.5044(5) 0.1941(4) 0.3601(4)
H7 H 0.431(3) 0.225(5) 0.3553(17)
H8 H 0.563(4) 0.226(5) 0.422(5)
O4 O 0.3915(5) -0.0202(4) 0.6665(4)
O5 O 0.3905(4) -0.0051(4) 0.4616(4)
O6 O 0.5207(4) -0.1946(4) -0.1316(4)
H9 H 0.6051(18) -0.207(6) -0.113(5)
H10 H 0.487(5) -0.225(5) -0.205(4)
N1 N 0.3768(5) 0.0070(5) 0.1701(4)
N2 N 0.3764(5) 0.0054(4) -0.0470(4)
N3 N 0.6594(5) -0.0019(4) 0.7526(4)
N4 N 0.6582(5) 0.0071(5) 0.5341(4)
Li2_2 Li 0.5170(10) -0.0392(9) 0.8559(8)
O4_2 O 0.3915(5) -0.0202(4) -0.3335(4)
N3_2 N 0.6594(5) -0.0019(4) -0.2474(4)
Li3 Li 0.0814(10) 0.2948(9) 0.8783(8)
Li4 Li 0.0921(9) 0.2019(9) 0.3830(7)
C11 C 0.1661(6) 0.2465(4) 0.6557(5)
C12 C 0.3599(7) 0.2476(7) 0.6072(6)
H11 H 0.4067 0.2477 0.5471
C13 C 0.4314(7) 0.2511(7) 0.7353(6)
H12 H 0.5244 0.2529 0.7632
C14 C 0.3584(6) 0.2519(6) 0.8201(5)
H13 H 0.4038 0.2534 0.9081
C15 C 0.0137(7) 0.2451(5) 0.6084(5)
C16 C 0.0088(6) 0.2435(5) 1.1091(5)
C17 C -0.1857(6) 0.2422(5) 0.9473(5)
H14 H -0.2328 0.2457 0.8598
C18 C -0.2559(7) 0.2292(6) 1.0347(7)
H15 H -0.3487 0.2239 1.0082
C19 C -0.1812(7) 0.2244(6) 1.1641(6)
H16 H -0.2253 0.2164 1.2259
C20 C 0.1617(6) 0.2510(5) 1.1531(5)
O7 O -0.0433(4) 0.2566(4) 0.6921(4)
O8 O -0.0389(4) 0.2317(4) 0.4901(4)
O9 O 0.0834(5) 0.4508(4) 0.8678(4)
H17 H 0.166(2) 0.471(5) 0.889(6)
H18 H 0.043(5) 0.495(4) 0.811(5)
O10 O 0.2199(4) 0.2372(4) 1.2700(3)
O11 O 0.2119(4) 0.2694(4) 1.0654(4)
O12 O 0.1100(4) 0.0457(4) 0.3826(4)
H19 H 0.1952(16) 0.038(6) 0.410(6)
H20 H 0.082(5) 0.007(5) 0.434(5)
N5 N 0.2263(5) 0.2508(4) 0.7826(4)
N6 N 0.2279(5) 0.2440(5) 0.5641(5)
N7 N -0.0494(5) 0.2310(4) 1.2018(4)
N8 N -0.0532(5) 0.2498(4) 0.9838(4)
Li4_2 Li 0.0921(9) 0.2019(9) 1.3830(7)
O10_2 O 0.2199(4) 0.2372(4) 0.2700(3)
N7_2 N -0.0494(5) 0.2310(4) 0.2018(4)
O13 O -0.3233(5) 0.2775(4) 0.5971(5)
H21 H -0.240(3) 0.263(5) 0.608(8)
H22 H -0.327(6) 0.3439(15) 0.586(8)
O14 O 0.1225(5) 0.9356(4) 0.6054(4)
H23 H 0.120(6) 0.8692(15) 0.593(8)
H24 H 0.205(3) 0.952(5) 0.619(8)
loop_
_geom_bond_atom_site_label_1
_geom_bond_atom_site_label_2
_geom_bond_site_symmetry_1
_geom_bond_site_symmetry_2
Li1 O1 1_555 1_555
Li2 O2 1_555 1_555
C1 C5 1_555 1_555
C2 H1 1_555 1_555
C3 C2 1_555 1_555
H2 C3 1_555 1_555
C4 C3 1_555 1_555
H3 C4 1_555 1_555
C5 O1 1_555 1_555
C6 C10 1_555 1_555
C7 H4 1_555 1_555
C8 C7 1_555 1_555
H5 C8 1_555 1_555
C9 C8 1_555 1_555
H6 C9 1_555 1_555
C10 O4 1_555 1_555
O2 C5 1_555 1_555
O3 Li1 1_555 1_555
H7 O3 1_555 1_555
H8 O3 1_555 1_555
O4 Li2_2 1_555 1_555
O5 Li1 1_555 1_555
O6 Li2 1_555 1_555
H9 O6 1_555 1_555
H10 O6 1_555 1_555
N1 Li1 1_555 1_555
N2 Li2 1_555 1_555
N3 C6 1_555 1_555
N4 Li1 1_555 1_555
Li3 O7 1_555 1_555
Li4 O8 1_555 1_555
C11 C15 1_555 1_555
C12 H11 1_555 1_555
C13 C12 1_555 1_555
H12 C13 1_555 1_555
C14 C13 1_555 1_555
H13 C14 1_555 1_555
C15 O7 1_555 1_555
C16 C20 1_555 1_555
C17 H14 1_555 1_555
C18 C17 1_555 1_555
H15 C18 1_555 1_555
C19 C18 1_555 1_555
H16 C19 1_555 1_555
C20 O10 1_555 1_555
O8 C15 1_555 1_555
O9 Li3 1_555 1_555
H17 O9 1_555 1_555
H18 O9 1_555 1_555
O10 Li4_2 1_555 1_555
O11 Li3 1_555 1_555
O12 Li4 1_555 1_555
H19 O12 1_555 1_555
H20 O12 1_555 1_555
N5 Li3 1_555 1_555
N6 Li4 1_555 1_555
N7 C16 1_555 1_555
N8 Li3 1_555 1_555
O13 H21 1_555 1_555
H22 O13 1_555 1_555
O14 H23 1_555 1_555
H24 O14 1_555 1_555
Li2_2 N3 1_555 1_555
O4_2 Li2 1_555 1_555
N3_2 Li2 1_555 1_555
Li4_2 N7 1_555 1_555
O10_2 Li4 1_555 1_555
N7_2 Li4 1_555 1_555
C1 N1 1_555 1_555
C1 N2 1_555 1_555
C2 N2 1_555 1_555
C4 N1 1_555 1_555
C6 N4 1_555 1_555
C7 N4 1_555 1_555
C9 N3 1_555 1_555
C10 O5 1_555 1_555
C11 N5 1_555 1_555
C11 N6 1_555 1_555
C12 N6 1_555 1_555
C14 N5 1_555 1_555
C16 N8 1_555 1_555
C17 N8 1_555 1_555
C19 N7 1_555 1_555
C20 O11 1_555 1_555

#END
