
#######################################################################
#
#                 Cambridge Crystallographic Data Centre
#                                CCDC 
#
#######################################################################
#
# If this CIF has been generated from an entry in the Cambridge 
# Structural Database, then it will include bibliographic, chemical, 
# crystal, experimental, refinement or atomic coordinate data resulting 
# from the CCDC's data processing and validation procedures.
#
#######################################################################

data_TOTGEQ
_symmetry_cell_setting           monoclinic
_symmetry_space_group_name_H-M   'P 21/c'
_symmetry_Int_Tables_number      14
_space_group_name_Hall           '-P 2ybc'
loop_
_symmetry_equiv_pos_site_id
_symmetry_equiv_pos_as_xyz
1 x,y,z
2 -x,1/2+y,1/2-z
3 -x,-y,-z
4 x,1/2-y,1/2+z
_cell_length_a                   12.0578(12)
_cell_length_b                   14.5824(15)
_cell_length_c                   22.275(2)
_cell_angle_alpha                90
_cell_angle_beta                 102.3600(10)
_cell_angle_gamma                90
_cell_volume                     3825.87
loop_
_atom_site_label
_atom_site_type_symbol
_atom_site_fract_x
_atom_site_fract_y
_atom_site_fract_z
Zn1 Zn -0.01963(2) -0.09027(2) 0.23624(2)
Zn2 Zn 0.03822(2) 0.10799(2) 0.18232(2)
O1 O 0.06415(15) -0.02033(12) 0.30507(7)
O2 O 0.13211(15) 0.10089(12) 0.26440(8)
O3 O 0.07929(15) 0.01158(11) 0.13049(8)
O4 O 0.07284(14) -0.12268(11) 0.17787(7)
O5 O 0.09977(13) 0.21646(10) 0.14961(7)
O6 O 0.04628(12) 0.29611(10) 0.22260(7)
O7 O -0.12449(13) 0.10862(11) 0.17198(8)
O8 O -0.16060(13) -0.03770(11) 0.19109(7)
C1 C 0.12488(19) 0.04947(16) 0.30840(10)
C2 C 0.19581(19) 0.07447(16) 0.36990(10)
C3 C 0.15013(19) 0.13166(16) 0.40868(10)
C4 C 0.0311(2) 0.16725(19) 0.38925(12)
H1 H 0.0053 0.1902 0.4253
H2 H -0.0191 0.1176 0.3702
H3 H 0.0293 0.2172 0.3596
C5 C 0.2184(2) 0.15481(17) 0.46520(11)
H4 H 0.1881 0.1928 0.4924
C6 C 0.3292(2) 0.12416(18) 0.48299(11)
C7 C 0.4023(2) 0.1525(2) 0.54398(12)
H5 H 0.4707 0.1142 0.5530
H6 H 0.3596 0.1446 0.5764
H7 H 0.4241 0.2170 0.5421
C8 C 0.3712(2) 0.0667(2) 0.44354(12)
H8 H 0.4467 0.0444 0.4556
C9 C 0.3057(2) 0.0407(2) 0.38663(11)
C10 C 0.3514(3) -0.0230(3) 0.34406(14)
H9 H 0.3071 -0.0798 0.3387
H10 H 0.4312 -0.0371 0.3618
H11 H 0.3456 0.0068 0.3041
C11 C 0.09609(17) -0.07343(15) 0.13581(9)
C12 C 0.14756(18) -0.11860(14) 0.08808(10)
C13 C 0.26351(19) -0.13914(16) 0.10146(11)
C14 C 0.3086(2) -0.18030(17) 0.05554(12)
H12 H 0.3873 -0.1945 0.0638
C15 C 0.2426(2) -0.20120(17) -0.00179(12)
C16 C 0.1284(2) -0.17891(16) -0.01349(11)
H13 H 0.0825 -0.1924 -0.0527
C17 C 0.07876(19) -0.13739(15) 0.03051(10)
C18 C -0.04636(19) -0.11609(17) 0.01647(11)
H14 H -0.0809 -0.1380 -0.0249
H15 H -0.0573 -0.0497 0.0186
H16 H -0.0822 -0.1467 0.0466
C19 C 0.2929(3) -0.2497(2) -0.04983(14)
H17 H 0.3047 -0.3146 -0.0389
H18 H 0.3658 -0.2214 -0.0518
H19 H 0.2408 -0.2445 -0.0900
C20 C 0.3372(2) -0.11762(19) 0.16336(12)
H20 H 0.4102 -0.1493 0.1677
H21 H 0.2993 -0.1382 0.1957
H22 H 0.3502 -0.0513 0.1670
C21 C 0.10079(17) 0.28918(14) 0.18022(9)
C22 C 0.17023(19) 0.36796(15) 0.16578(10)
C23 C 0.2758(2) 0.38501(16) 0.20402(11)
C24 C 0.3370(2) 0.46119(19) 0.19157(13)
H23 H 0.4082 0.4744 0.2178
C25 C 0.2967(3) 0.51814(19) 0.14191(15)
C26 C 0.1934(3) 0.49777(18) 0.10388(13)
H24 H 0.1659 0.5359 0.0693
C27 C 0.1280(2) 0.42316(16) 0.11443(11)
C28 C 0.0159(2) 0.40370(19) 0.07240(11)
H25 H -0.0106 0.4586 0.0482
H26 H -0.0395 0.3865 0.0968
H27 H 0.0245 0.3532 0.0447
C29 C 0.3633(4) 0.6017(2) 0.1296(2)
H28 H 0.4307 0.6087 0.1627
H29 H 0.3155 0.6564 0.1276
H30 H 0.3868 0.5939 0.0904
C30 C 0.3245(2) 0.32251(19) 0.25705(12)
H31 H 0.2625 0.2951 0.2731
H32 H 0.3737 0.3579 0.2896
H33 H 0.3689 0.2739 0.2429
C31 C -0.19067(18) 0.04227(16) 0.17330(10)
C32 C -0.31529(19) 0.06039(16) 0.15257(11)
C33 C -0.3641(2) 0.13265(18) 0.17911(12)
C34 C -0.2952(3) 0.1926(2) 0.22803(14)
H34 H -0.2465 0.1543 0.2590
H35 H -0.3463 0.2288 0.2475
H36 H -0.2479 0.2340 0.2095
C35 C -0.4808(2) 0.14777(19) 0.15916(13)
H37 H -0.5151 0.1957 0.1777
C36 C -0.5479(2) 0.09607(19) 0.11378(14)
C37 C -0.6736(2) 0.1147(2) 0.09255(18)
H38 H -0.6870 0.1497 0.0541
H39 H -0.7005 0.1501 0.1240
H40 H -0.7148 0.0564 0.0857
C38 C -0.4969(2) 0.02634(18) 0.08789(13)
H41 H -0.5418 -0.0094 0.0561
C39 C -0.38183(19) 0.00636(17) 0.10665(11)
C40 C -0.3316(2) -0.07034(19) 0.07582(12)
H42 H -0.3901 -0.0960 0.0427
H43 H -0.3032 -0.1183 0.1060
H44 H -0.2689 -0.0466 0.0588
Zn1A Zn 0.01963(2) 0.40973(2) 0.26376(2)
O6A O -0.04628(12) -0.20389(10) 0.27740(7)
loop_
_geom_bond_atom_site_label_1
_geom_bond_atom_site_label_2
_geom_bond_site_symmetry_1
_geom_bond_site_symmetry_2
Zn1 O1 1_555 1_555
Zn2 O2 1_555 1_555
O1 C1 1_555 1_555
O2 C1 1_555 1_555
O3 Zn2 1_555 1_555
O4 Zn1 1_555 1_555
O5 Zn2 1_555 1_555
O6 C21 1_555 1_555
O7 Zn2 1_555 1_555
O8 Zn1 1_555 1_555
C1 C2 1_555 1_555
C2 C3 1_555 1_555
C3 C4 1_555 1_555
C4 H1 1_555 1_555
H2 C4 1_555 1_555
H3 C4 1_555 1_555
C5 C3 1_555 1_555
H4 C5 1_555 1_555
C6 C5 1_555 1_555
C7 C6 1_555 1_555
H5 C7 1_555 1_555
H6 C7 1_555 1_555
H7 C7 1_555 1_555
C8 C6 1_555 1_555
H8 C8 1_555 1_555
C9 C2 1_555 1_555
C10 C9 1_555 1_555
H9 C10 1_555 1_555
H10 C10 1_555 1_555
H11 C10 1_555 1_555
C11 O3 1_555 1_555
C12 C11 1_555 1_555
C13 C12 1_555 1_555
C14 C13 1_555 1_555
H12 C14 1_555 1_555
C15 C14 1_555 1_555
C16 C15 1_555 1_555
H13 C16 1_555 1_555
C17 C12 1_555 1_555
C18 C17 1_555 1_555
H14 C18 1_555 1_555
H15 C18 1_555 1_555
H16 C18 1_555 1_555
C19 C15 1_555 1_555
H17 C19 1_555 1_555
H18 C19 1_555 1_555
H19 C19 1_555 1_555
C20 C13 1_555 1_555
H20 C20 1_555 1_555
H21 C20 1_555 1_555
H22 C20 1_555 1_555
C21 O5 1_555 1_555
C22 C21 1_555 1_555
C23 C22 1_555 1_555
C24 C23 1_555 1_555
H23 C24 1_555 1_555
C25 C24 1_555 1_555
C26 C25 1_555 1_555
H24 C26 1_555 1_555
C27 C22 1_555 1_555
C28 C27 1_555 1_555
H25 C28 1_555 1_555
H26 C28 1_555 1_555
H27 C28 1_555 1_555
C29 C25 1_555 1_555
H28 C29 1_555 1_555
H29 C29 1_555 1_555
H30 C29 1_555 1_555
C30 C23 1_555 1_555
H31 C30 1_555 1_555
H32 C30 1_555 1_555
H33 C30 1_555 1_555
C31 O7 1_555 1_555
C32 C31 1_555 1_555
C33 C32 1_555 1_555
C34 C33 1_555 1_555
H34 C34 1_555 1_555
H35 C34 1_555 1_555
H36 C34 1_555 1_555
C35 C33 1_555 1_555
H37 C35 1_555 1_555
C36 C35 1_555 1_555
C37 C36 1_555 1_555
H38 C37 1_555 1_555
H39 C37 1_555 1_555
H40 C37 1_555 1_555
C38 C36 1_555 1_555
H41 C38 1_555 1_555
C39 C32 1_555 1_555
C40 C39 1_555 1_555
H42 C40 1_555 1_555
H43 C40 1_555 1_555
H44 C40 1_555 1_555
Zn1A O6 1_555 1_555
O6A Zn1 1_555 1_555
O4 C11 1_555 1_555
O8 C31 1_555 1_555
C8 C9 1_555 1_555
C16 C17 1_555 1_555
C26 C27 1_555 1_555
C38 C39 1_555 1_555

#END
