
#######################################################################
#
#                 Cambridge Crystallographic Data Centre
#                                CCDC 
#
#######################################################################
#
# If this CIF has been generated from an entry in the Cambridge 
# Structural Database, then it will include bibliographic, chemical, 
# crystal, experimental, refinement or atomic coordinate data resulting 
# from the CCDC's data processing and validation procedures.
#
#######################################################################

data_TOTTIH
_symmetry_cell_setting           orthorhombic
_symmetry_space_group_name_H-M   'P b c a'
_symmetry_Int_Tables_number      61
_space_group_name_Hall           '-P 2ac 2ab'
loop_
_symmetry_equiv_pos_site_id
_symmetry_equiv_pos_as_xyz
1 x,y,z
2 1/2-x,-y,1/2+z
3 1/2+x,1/2-y,-z
4 -x,1/2+y,1/2-z
5 -x,-y,-z
6 1/2+x,y,1/2-z
7 1/2-x,1/2+y,z
8 x,1/2-y,1/2+z
_cell_length_a                   7.3902(2)
_cell_length_b                   26.1377(7)
_cell_length_c                   26.3454(7)
_cell_angle_alpha                90
_cell_angle_beta                 90
_cell_angle_gamma                90
_cell_volume                     5088.95
loop_
_atom_site_label
_atom_site_type_symbol
_atom_site_fract_x
_atom_site_fract_y
_atom_site_fract_z
Cu1 Cu 0.55490(9) 0.37640(2) 0.56554(2)
Cu2 Cu 0.48836(10) 0.45926(2) 0.63568(2)
Cl1 Cl 0.0641(2) 0.38223(7) 0.58010(7)
O1 O 0.5158(5) 0.44880(14) 0.56388(13)
O2 O 0.5846(6) 0.36055(17) 0.49308(16)
O3 O 0.5394(6) 0.38737(14) 0.63737(13)
O4 O 0.4001(7) 0.53036(16) 0.63825(15)
N1 N 0.5901(7) 0.30418(17) 0.57491(18)
O5 O 0.7977(6) 0.48231(17) 0.64649(16)
H1 H 0.8642 0.4619 0.6297
H2 H 0.8131 0.5126 0.6357
N2 N 0.4466(7) 0.46019(17) 0.70768(17)
C1 C 0.5165(9) 0.3357(3) 0.7658(2)
H3 H 0.4963 0.3470 0.7988
C2 C 0.5391(7) 0.3546(2) 0.67580(19)
C3 C 0.5069(8) 0.3709(2) 0.7254(2)
C4 C 0.5790(8) 0.2685(2) 0.7084(3)
H4 H 0.6018 0.2340 0.7025
C5 C 0.5707(7) 0.3015(2) 0.6667(2)
C6 C 0.4633(8) 0.4234(2) 0.7391(2)
H5 H 0.4463 0.4307 0.7733
C7 C 0.5969(8) 0.2801(2) 0.6168(2)
H6 H 0.6211 0.2452 0.6150
C8 C 0.5556(9) 0.2842(3) 0.7573(2)
C9 C 0.3061(12) 0.5983(3) 0.6962(3)
H7 H 0.4241 0.6133 0.6998
H8 H 0.2374 0.6042 0.7266
H9 H 0.2451 0.6136 0.6678
C10 C 0.5710(12) 0.2471(3) 0.8016(3)
H10 H 0.5704 0.2659 0.8329
H11 H 0.6818 0.2282 0.7988
H12 H 0.4704 0.2239 0.8010
C11 C 0.6527(13) 0.2904(3) 0.4341(3)
H13 H 0.5370 0.2915 0.4175
H14 H 0.6983 0.2561 0.4336
H15 H 0.7356 0.3126 0.4166
C12 C 0.4072(13) 0.5122(3) 0.7249(3)
H16 H 0.3284 0.5104 0.7543
H17 H 0.5192 0.5284 0.7354
C13 C 0.3244(18) 0.5425(3) 0.6875(3)
H18 H 0.1996 0.5299 0.6859
C14 C 0.6189(14) 0.2781(3) 0.5273(3)
H19 H 0.6270 0.2426 0.5252
O6 O 0.2085(8) 0.3668(3) 0.5510(3)
O7 O -0.0805(11) 0.4010(3) 0.5530(4)
O8 O 0.1183(8) 0.4203(3) 0.6173(3)
O9 O -0.0162(15) 0.3409(4) 0.6047(3)
C15 C 0.633(3) 0.3076(3) 0.4869(3)
H20 H 0.7629 0.3138 0.4916
H21 H 0.67(3) 0.3783(19) 0.492(8)
H22 H 0.32(3) 0.542(8) 0.6141(8)
Cu1_2 Cu -0.44510(9) 0.37640(2) 0.56554(2)
O7_2 O 0.9195(11) 0.4010(3) 0.5530(4)
Cl2 Cl 0.8227(3) 0.62375(7) 0.62174(10)
O10 O 0.841(2) 0.5985(6) 0.6678(4)
O11 O 0.6985(15) 0.6560(4) 0.6298(7)
O12 O 0.821(3) 0.5836(4) 0.5933(4)
O13 O 0.9720(15) 0.6509(4) 0.6056(6)
O14 O 0.2290(9) 0.5685(3) 0.5603(2)
H23 H 0.1477 0.5455 0.5603
H24 H 0.1831 0.5969 0.5510
O15 O 0.2575(8) 0.4876(2) 0.4944(2)
H25 H 0.3281 0.4719 0.5146
H26 H 0.3311 0.5093 0.4822
loop_
_geom_bond_atom_site_label_1
_geom_bond_atom_site_label_2
_geom_bond_site_symmetry_1
_geom_bond_site_symmetry_2
Cu1 O1 1_555 1_555
Cu2 O1 1_555 1_555
Cl1 O6 1_555 1_555
O2 Cu1 1_555 1_555
O3 Cu1 1_555 1_555
O4 Cu2 1_555 1_555
N1 Cu1 1_555 1_555
O5 Cu2 1_555 1_555
H1 O5 1_555 1_555
H2 O5 1_555 1_555
N2 Cu2 1_555 1_555
C1 H3 1_555 1_555
C2 O3 1_555 1_555
C3 C1 1_555 1_555
C4 H4 1_555 1_555
C5 C2 1_555 1_555
C6 N2 1_555 1_555
H5 C6 1_555 1_555
C7 N1 1_555 1_555
H6 C7 1_555 1_555
C8 C1 1_555 1_555
C9 H7 1_555 1_555
H8 C9 1_555 1_555
H9 C9 1_555 1_555
C10 C8 1_555 1_555
H10 C10 1_555 1_555
H11 C10 1_555 1_555
H12 C10 1_555 1_555
C11 H13 1_555 1_555
H14 C11 1_555 1_555
H15 C11 1_555 1_555
C12 N2 1_555 1_555
H16 C12 1_555 1_555
H17 C12 1_555 1_555
C13 O4 1_555 1_555
H18 C13 1_555 1_555
C14 N1 1_555 1_555
H19 C14 1_555 1_555
O6 Cu1 1_555 1_555
O7 Cl1 1_555 1_555
O8 Cl1 1_555 1_555
O9 Cl1 1_555 1_555
C15 O2 1_555 1_555
H20 C15 1_555 1_555
H21 O2 1_555 1_555
H22 O4 1_555 1_555
Cl2 O10 1_555 1_555
O11 Cl2 1_555 1_555
O12 Cl2 1_555 1_555
O13 Cl2 1_555 1_555
O14 H23 1_555 1_555
H24 O14 1_555 1_555
O15 H25 1_555 1_555
H26 O15 1_555 1_555
Cu1_2 O7 1_555 1_555
O7_2 Cu1 1_555 1_555
Cu2 O3 1_555 1_555
C2 C3 1_555 1_555
C3 C6 1_555 1_555
C4 C5 1_555 1_555
C4 C8 1_555 1_555
C5 C7 1_555 1_555
C9 C13 1_555 1_555
C11 C15 1_555 1_555
C12 C13 1_555 1_555
C14 C15 1_555 1_555

#END
