
#######################################################################
#
#                 Cambridge Crystallographic Data Centre
#                                CCDC 
#
#######################################################################
#
# If this CIF has been generated from an entry in the Cambridge 
# Structural Database, then it will include bibliographic, chemical, 
# crystal, experimental, refinement or atomic coordinate data resulting 
# from the CCDC's data processing and validation procedures.
#
#######################################################################

data_TOTVUV
_symmetry_cell_setting           triclinic
_symmetry_space_group_name_H-M   'P -1'
_symmetry_Int_Tables_number      2
_space_group_name_Hall           '-P 1'
loop_
_symmetry_equiv_pos_site_id
_symmetry_equiv_pos_as_xyz
1 x,y,z
2 -x,-y,-z
_cell_length_a                   7.3781(13)
_cell_length_b                   13.574(2)
_cell_length_c                   13.578(2)
_cell_angle_alpha                113.181(2)
_cell_angle_beta                 103.841(2)
_cell_angle_gamma                90.952(2)
_cell_volume                     1204.37
loop_
_atom_site_label
_atom_site_type_symbol
_atom_site_fract_x
_atom_site_fract_y
_atom_site_fract_z
C1 C 0.9589(9) 0.6176(5) 0.4117(5)
C2 C 0.8430(9) 0.7086(5) 0.4259(6)
H1 H 0.8065 0.7169 0.3563
H2 H 0.9196 0.7747 0.4815
C3 C 0.6669(10) 0.6939(5) 0.4604(6)
C4 C 0.6284(9) 0.4032(5) -0.1425(5)
C5 C 0.8012(9) 0.4346(5) -0.1666(6)
H3 H 0.7838 0.4002 -0.2464
H4 H 0.9046 0.4052 -0.1327
C6 C 0.8598(9) 0.5551(5) -0.1280(5)
C7 C 0.6468(9) -0.0155(5) -0.1860(5)
C8 C 0.8309(9) -0.0586(5) -0.1901(6)
H5 H 0.9294 0.0008 -0.1654
H6 H 0.8258 -0.1063 -0.2662
C9 C 0.8777(11) -0.1206(5) -0.1161(6)
N1 N 0.8980(7) 0.5139(4) 0.3514(4)
N2 N 1.0429(8) 0.4581(4) 0.3645(5)
N3 N 1.1890(8) 0.5275(4) 0.4319(4)
N4 N 1.1399(8) 0.6280(4) 0.4626(4)
N5 N 0.6146(8) 0.3349(4) -0.0959(5)
N6 N 0.4343(8) 0.3308(4) -0.0904(5)
N7 N 0.3417(8) 0.3931(5) -0.1320(5)
N8 N 0.4621(8) 0.4409(4) -0.1647(5)
N9 N 0.6266(7) 0.0822(4) -0.1171(4)
N10 N 0.4377(8) 0.0823(4) -0.1313(5)
N11 N 0.3483(8) -0.0108(4) -0.2056(5)
N12 N 0.4796(8) -0.0736(4) -0.2421(5)
N13 N 0.0146(8) 0.2087(5) -0.1154(5)
N14 N -0.0481(10) 0.1856(6) -0.2113(6)
N15 N -0.1151(17) 0.1665(9) -0.3012(7)
O1 O 0.5731(7) 0.6010(4) 0.4115(4)
O2 O 0.6206(7) 0.7737(4) 0.5304(4)
O3 O 1.0299(6) 0.5856(4) -0.0960(4)
O4 O 0.7305(6) 0.6153(4) -0.1335(4)
O5 O 1.0288(7) -0.1624(4) -0.1150(4)
O6 O 0.7651(8) -0.1230(5) -0.0623(5)
O7 O 0.4972(6) 0.3589(3) 0.3394(4)
O8 O 0.6102(6) 0.2761(4) 0.1080(4)
O9 O 0.7635(10) 0.1143(5) 0.4710(5)
H7 H 0.779(15) 0.131(8) 0.538(3)
H8 H 0.728(11) 0.049(2) 0.441(7)
O10 O 0.8785(8) 0.2382(4) 0.3126(5)
H9 H 0.882(13) 0.201(6) 0.249(3)
H10 H 0.952(10) 0.292(4) 0.332(7)
Cd1 Cd 0.5000 0.5000 0.5000
Cd2 Cd 0.60071(7) 0.43771(4) 0.23774(4)
Cd3 Cd 0.63427(7) 0.23155(4) 0.39498(4)
Cd4 Cd 0.82032(7) 0.24499(4) 0.00416(4)
Cd5 Cd 0.31565(6) 0.22785(4) -0.01423(4)
C1A C 0.0411(9) -0.6176(5) -0.4117(5)
C2A C 0.1570(9) -0.7086(5) -0.4259(6)
H1A H 0.1935 -0.7169 -0.3563
H2A H 0.0804 -0.7747 -0.4815
C3A C 0.3331(10) -0.6939(5) -0.4604(6)
C4A C 0.3716(9) -0.4032(5) 0.1425(5)
C5A C 0.1988(9) -0.4346(5) 0.1666(6)
H3A H 0.2162 -0.4002 0.2464
H4A H 0.0954 -0.4052 0.1327
C6A C 0.1402(9) -0.5551(5) 0.1280(5)
C7A C 0.3532(9) 0.0155(5) 0.1860(5)
C8A C 0.1691(9) 0.0586(5) 0.1901(6)
H5A H 0.0706 -0.0008 0.1654
H6A H 0.1742 0.1063 0.2662
C9A C 0.1223(11) 0.1206(5) 0.1161(6)
N1A N 0.1020(7) -0.5139(4) -0.3514(4)
N2A N -0.0429(8) -0.4581(4) -0.3645(5)
N3A N -0.1890(8) -0.5275(4) -0.4319(4)
N4A N -0.1399(8) -0.6280(4) -0.4626(4)
N5A N 0.3854(8) -0.3349(4) 0.0959(5)
N6A N 0.5657(8) -0.3308(4) 0.0904(5)
N7A N 0.6583(8) -0.3931(5) 0.1320(5)
N8A N 0.5379(8) -0.4409(4) 0.1647(5)
N9A N 0.3734(7) -0.0822(4) 0.1171(4)
N10A N 0.5623(8) -0.0823(4) 0.1313(5)
N11A N 0.6517(8) 0.0108(4) 0.2056(5)
N12A N 0.5204(8) 0.0736(4) 0.2421(5)
N13A N 0.9854(8) -0.2087(5) 0.1154(5)
N14A N 1.0481(10) -0.1856(6) 0.2113(6)
N15A N 1.1151(17) -0.1665(9) 0.3012(7)
O1A O 0.4269(7) -0.6010(4) -0.4115(4)
O2A O 0.3794(7) -0.7737(4) -0.5304(4)
O3A O -0.0299(6) -0.5856(4) 0.0960(4)
O4A O 0.2695(6) -0.6153(4) 0.1335(4)
O5A O -0.0288(7) 0.1624(4) 0.1150(4)
O6A O 0.2349(8) 0.1230(5) 0.0623(5)
O7A O 0.5028(6) -0.3589(3) -0.3394(4)
O8A O 0.3898(6) -0.2761(4) -0.1080(4)
O9A O 0.2365(10) -0.1143(5) -0.4710(5)
H7A H 0.221(15) -0.131(8) -0.538(3)
H8A H 0.272(11) -0.049(2) -0.441(7)
O10A O 0.1215(8) -0.2382(4) -0.3126(5)
H9A H 0.118(13) -0.201(6) -0.249(3)
H10A H 0.048(10) -0.292(4) -0.332(7)
Cd2A Cd 0.39929(7) -0.43771(4) -0.23774(4)
Cd3A Cd 0.36573(7) -0.23155(4) -0.39498(4)
Cd4A Cd 0.17968(7) -0.24499(4) -0.00416(4)
Cd5A Cd 0.68435(6) -0.22785(4) 0.01423(4)
N3_2 N 0.1890(8) 0.5275(4) 0.4319(4)
N3A_2 N 0.8110(8) 0.4725(4) 0.5681(4)
N4_2 N 0.1399(8) -0.3720(4) -0.5374(4)
N4A_2 N 0.8601(8) 0.3720(4) 0.5374(4)
N8_2 N 0.4621(8) -0.5591(4) -0.1647(5)
N8A_2 N 0.5379(8) 0.5591(4) 0.1647(5)
N13_2 N 1.0146(8) 0.2087(5) -0.1154(5)
N13A_2 N -0.0146(8) -0.2087(5) 0.1154(5)
O1A_2 O 0.4269(7) 0.3990(4) 0.5885(4)
O2_2 O 0.6206(7) -0.2263(4) -0.4696(4)
O2A_2 O 0.3794(7) 0.2263(4) 0.4696(4)
O3_2 O 0.0299(6) -0.4144(4) -0.0960(4)
O3A_2 O 0.9701(6) 0.4144(4) 0.0960(4)
O4_2 O 0.7305(6) -0.3847(4) -0.1335(4)
O4A_2 O 0.2695(6) 0.3847(4) 0.1335(4)
O5_2 O 0.0288(7) -0.1624(4) -0.1150(4)
O5A_2 O 0.9712(7) 0.1624(4) 0.1150(4)
O7A_2 O 0.5028(6) 0.6411(3) 0.6606(4)
Cd1_2 Cd -0.5000 -0.5000 -0.5000
Cd1_3 Cd 0.5000 -0.5000 -0.5000
Cd1_4 Cd 1.5000 0.5000 0.5000
Cd2_2 Cd 0.60071(7) -0.56229(4) 0.23774(4)
Cd2A_2 Cd 0.39929(7) 0.56229(4) -0.23774(4)
Cd3_2 Cd -0.36573(7) -0.76845(4) -0.60502(4)
Cd3_3 Cd 0.63427(7) -0.76845(4) -0.60502(4)
Cd3A_2 Cd 0.36573(7) 0.76845(4) 0.60502(4)
Cd3A_3 Cd 1.36573(7) 0.76845(4) 0.60502(4)
Cd4_2 Cd -0.17968(7) -0.75501(4) 0.00416(4)
Cd4_3 Cd -0.17968(7) 0.24499(4) 0.00416(4)
Cd4A_2 Cd 1.17968(7) -0.24499(4) -0.00416(4)
Cd4A_3 Cd 1.17968(7) 0.75501(4) -0.00416(4)
Cd5_2 Cd 0.31565(6) -0.77215(4) -0.01423(4)
Cd5A_2 Cd 0.68435(6) 0.77215(4) 0.01423(4)
O11 O 0.5801(14) 0.9045(8) 0.3867(10)
H11 H 0.464(4) 0.894(12) 0.358(12)
H12 H 0.603(18) 0.870(11) 0.428(11)
loop_
_geom_bond_atom_site_label_1
_geom_bond_atom_site_label_2
_geom_bond_site_symmetry_1
_geom_bond_site_symmetry_2
C1 C2 1_555 1_555
C2 H1 1_555 1_555
H2 C2 1_555 1_555
C3 C2 1_555 1_555
C4 C5 1_555 1_555
C5 H3 1_555 1_555
H4 C5 1_555 1_555
C6 C5 1_555 1_555
C7 C8 1_555 1_555
C8 H5 1_555 1_555
H6 C8 1_555 1_555
C9 C8 1_555 1_555
N1 C1 1_555 1_555
N2 N1 1_555 1_555
N3 N2 1_555 1_555
N4 C1 1_555 1_555
N5 C4 1_555 1_555
N6 N5 1_555 1_555
N7 N6 1_555 1_555
N8 C4 1_555 1_555
N9 C7 1_555 1_555
N10 N9 1_555 1_555
N11 N10 1_555 1_555
N12 C7 1_555 1_555
N13 N14 1_555 1_555
N14 N15 1_555 1_555
O1 C3 1_555 1_555
O2 C3 1_555 1_555
O3 C6 1_555 1_555
O4 C6 1_555 1_555
O5 C9 1_555 1_555
O6 C9 1_555 1_555
O7 Cd1 1_555 1_555
O8 Cd2 1_555 1_555
O9 H7 1_555 1_555
H8 O9 1_555 1_555
O10 H9 1_555 1_555
H10 O10 1_555 1_555
Cd1 O1 1_555 1_555
Cd2 N1 1_555 1_555
Cd3 O7 1_555 1_555
Cd4 N5 1_555 1_555
Cd5 N6 1_555 1_555
O11 H11 1_555 1_555
H12 O11 1_555 1_555
C1A C2A 1_555 1_555
C2A H1A 1_555 1_555
H2A C2A 1_555 1_555
C3A C2A 1_555 1_555
C4A C5A 1_555 1_555
C5A H3A 1_555 1_555
H4A C5A 1_555 1_555
C6A C5A 1_555 1_555
C7A C8A 1_555 1_555
C8A H5A 1_555 1_555
H6A C8A 1_555 1_555
C9A C8A 1_555 1_555
N1A C1A 1_555 1_555
N2A N1A 1_555 1_555
N3A N2A 1_555 1_555
N4A C1A 1_555 1_555
N5A C4A 1_555 1_555
N6A N5A 1_555 1_555
N7A N6A 1_555 1_555
N8A C4A 1_555 1_555
N9A C7A 1_555 1_555
N10A N9A 1_555 1_555
N11A N10A 1_555 1_555
N12A Cd3 1_555 1_555
N13A N14A 1_555 1_555
N14A N15A 1_555 1_555
O1A C3A 1_555 1_555
O2A C3A 1_555 1_555
O3A C6A 1_555 1_555
O4A C6A 1_555 1_555
O5A C9A 1_555 1_555
O6A Cd5 1_555 1_555
O7A Cd2A 1_555 1_555
O8A Cd2A 1_555 1_555
O9A H7A 1_555 1_555
H8A O9A 1_555 1_555
O10A H9A 1_555 1_555
H10A O10A 1_555 1_555
Cd2A N1A 1_555 1_555
Cd3A N12 1_555 1_555
Cd4A N5A 1_555 1_555
Cd5A O6 1_555 1_555
N3_2 Cd1 1_555 1_555
N3A_2 Cd1 1_555 1_555
N4_2 Cd3A 1_555 1_555
N4A_2 Cd3 1_555 1_555
N8_2 Cd2A 1_555 1_555
N8A_2 Cd2 1_555 1_555
N13_2 Cd4 1_555 1_555
N13A_2 Cd4A 1_555 1_555
O1A_2 Cd1 1_555 1_555
O2_2 Cd3A 1_555 1_555
O2A_2 Cd3 1_555 1_555
O3_2 Cd4A 1_555 1_555
O3A_2 Cd4 1_555 1_555
O4_2 Cd2A 1_555 1_555
O4A_2 Cd2 1_555 1_555
O5_2 Cd4A 1_555 1_555
O5A_2 Cd4 1_555 1_555
O7A_2 Cd1 1_555 1_555
Cd1_2 N3A 1_555 1_555
Cd1_3 O1A 1_555 1_555
Cd1_4 N3 1_555 1_555
Cd2_2 N8A 1_555 1_555
Cd2A_2 N8 1_555 1_555
Cd3_2 N4A 1_555 1_555
Cd3_3 O2A 1_555 1_555
Cd3A_2 O2 1_555 1_555
Cd3A_3 N4 1_555 1_555
Cd4_2 O3A 1_555 1_555
Cd4_3 N13 1_555 1_555
Cd4A_2 O5 1_555 1_555
Cd4A_3 O3 1_555 1_555
Cd5_2 O4A 1_555 1_555
Cd5A_2 O4 1_555 1_555
N3 N4 1_555 1_555
N7 N8 1_555 1_555
N9 Cd4 1_555 1_555
N10 Cd5 1_555 1_555
N11 N12 1_555 1_555
N13 Cd5 1_555 1_555
O1 Cd2 1_555 1_555
O4 Cd2A_2 1_555 1_555
O7 Cd2 1_555 1_555
O8 Cd4 1_555 1_555
O8 Cd5 1_555 1_555
O9 Cd3 1_555 1_555
O10 Cd3 1_555 1_555
Cd5 O4A_2 1_555 1_555
C7A N12A 1_555 1_555
C9A O6A 1_555 1_555
N3A N4A 1_555 1_555
N6A Cd5A 1_555 1_555
N7A N8A 1_555 1_555
N9A Cd4A 1_555 1_555
N10A Cd5A 1_555 1_555
N11A N12A 1_555 1_555
N13A Cd5A 1_555 1_555
N13A Cd4A_2 1_555 1_555
O1A Cd2A 1_555 1_555
O4A Cd2_2 1_555 1_555
O5A Cd4_3 1_555 1_555
O7A Cd3A 1_555 1_555
O7A Cd1_3 1_555 1_555
O8A Cd4A 1_555 1_555
O8A Cd5A 1_555 1_555
O9A Cd3A 1_555 1_555
O10A Cd3A 1_555 1_555
Cd5A O4_2 1_555 1_555
N3A_2 N4A_2 1_555 1_555
O7A_2 Cd3A_2 1_555 1_555

#END
