
#######################################################################
#
#                 Cambridge Crystallographic Data Centre
#                                CCDC 
#
#######################################################################
#
# If this CIF has been generated from an entry in the Cambridge 
# Structural Database, then it will include bibliographic, chemical, 
# crystal, experimental, refinement or atomic coordinate data resulting 
# from the CCDC's data processing and validation procedures.
#
#######################################################################

data_TOTZOT
_symmetry_cell_setting           orthorhombic
_symmetry_space_group_name_H-M   'C c c a'
_symmetry_Int_Tables_number      68
_space_group_name_Hall           '-C 2b 2bc'
loop_
_symmetry_equiv_pos_site_id
_symmetry_equiv_pos_as_xyz
1 x,y,z
2 1/2-x,-y,z
3 -x,y,1/2-z
4 1/2+x,-y,1/2-z
5 1/2+x,1/2+y,z
6 -x,1/2-y,z
7 1/2-x,1/2+y,1/2-z
8 x,1/2-y,1/2-z
9 -x,-y,-z
10 1/2+x,y,-z
11 x,-y,1/2+z
12 1/2-x,y,1/2+z
13 1/2-x,1/2-y,-z
14 x,1/2+y,-z
15 1/2+x,1/2-y,1/2+z
16 -x,1/2+y,1/2+z
_cell_length_a                   21.5902(8)
_cell_length_b                   24.4447(9)
_cell_length_c                   9.8457(2)
_cell_angle_alpha                90
_cell_angle_beta                 90
_cell_angle_gamma                90
_cell_volume                     5196.23
loop_
_atom_site_label
_atom_site_type_symbol
_atom_site_fract_x
_atom_site_fract_y
_atom_site_fract_z
O3 O 0.0022(4) 0.1686(5) 0.1410(11)
H12 H 0.0349 0.1823 0.0887
H13 H -0.0144 0.1846 0.2043
Zn1 Zn 0.0000 0.2500 -0.2500
S1 S 0.5000 0.55113(19) -0.2500
O1 O 0.25609(11) 0.41100(11) -0.0603(2)
O2 O 0.0000 0.2500 -0.0314(5)
H1 H -0.0217 0.2209 -0.0014
H2 H 0.0358 0.2457 0.0158
N1 N 0.07324(15) 0.31058(14) -0.2514(3)
N2 N 0.27682(14) 0.41384(13) -0.2855(3)
H3 H 0.2642 0.4040 -0.3669
C1 C 0.07945(18) 0.34606(17) -0.1486(4)
H4 H 0.0449 0.3520 -0.0907
C2 C 0.13368(17) 0.37454(17) -0.1224(4)
H5 H 0.1363 0.3980 -0.0457
C3 C 0.18380(17) 0.36864(16) -0.2083(4)
C4 C 0.17706(17) 0.33366(17) -0.3192(4)
H6 H 0.2099 0.3293 -0.3824
C5 C 0.12242(18) 0.30557(17) -0.3364(4)
H7 H 0.1189 0.2814 -0.4116
C6 C 0.24197(16) 0.39914(15) -0.1776(3)
C7 C 0.33234(17) 0.44409(16) -0.2751(3)
C8 C 0.34043(17) 0.48962(16) -0.3569(3)
H8 H 0.3088 0.5004 -0.4183
C9 C 0.3953(2) 0.51945(17) -0.3487(4)
H9 H 0.4012 0.5509 -0.4040
C10 C 0.44105(19) 0.50292(18) -0.2591(3)
C11 C 0.43346(18) 0.45720(18) -0.1791(4)
H10 H 0.4655 0.4463 -0.1186
C12 C 0.37879(17) 0.42684(17) -0.1867(4)
H11 H 0.3734 0.3950 -0.1326
O1B O 0.74391(11) 0.41100(11) -0.4397(2)
N1B N 0.92676(15) 0.31058(14) -0.2486(3)
N2B N 0.72318(14) 0.41384(13) -0.2145(3)
H3B H 0.7358 0.4040 -0.1331
C1B C 0.92055(18) 0.34606(17) -0.3514(4)
H4B H 0.9551 0.3520 -0.4093
C2B C 0.86632(17) 0.37454(17) -0.3776(4)
H5B H 0.8637 0.3980 -0.4543
C3B C 0.81620(17) 0.36864(16) -0.2917(4)
C4B C 0.82294(17) 0.33366(17) -0.1808(4)
H6B H 0.7901 0.3293 -0.1176
C5B C 0.87758(18) 0.30557(17) -0.1636(4)
H7B H 0.8811 0.2814 -0.0884
C6B C 0.75803(16) 0.39914(15) -0.3224(3)
C7B C 0.66766(17) 0.44409(16) -0.2249(3)
C8B C 0.65957(17) 0.48962(16) -0.1431(3)
H8B H 0.6912 0.5004 -0.0817
C9B C 0.6047(2) 0.51945(17) -0.1513(4)
H9B H 0.5988 0.5509 -0.0960
C10B C 0.55895(19) 0.50292(18) -0.2409(3)
C11B C 0.56654(18) 0.45720(18) -0.3209(4)
H10B H 0.5345 0.4463 -0.3814
C12B C 0.62121(17) 0.42684(17) -0.3133(4)
H11B H 0.6266 0.3950 -0.3674
H1E H 0.0217 0.2791 -0.0014
H2E H -0.0358 0.2543 0.0158
O2B O 0.0000 0.2500 -0.4686(5)
H1B H 0.0217 0.2209 -0.4986
H2B H -0.0358 0.2457 -0.5158
H1G H -0.0217 0.2791 -0.4986
H2G H 0.0358 0.2543 -0.5158
S1E S 0.5000 -0.05113(19) -0.2500
O1G O 0.25609(11) 0.08900(11) -0.4397(2)
N1G N 0.07324(15) 0.18942(14) -0.2486(3)
N2G N 0.27682(14) 0.08616(13) -0.2145(3)
H3G H 0.2642 0.0960 -0.1331
C1G C 0.07945(18) 0.15394(17) -0.3514(4)
H4G H 0.0449 0.1480 -0.4093
C2G C 0.13368(17) 0.12546(17) -0.3776(4)
H5G H 0.1363 0.1020 -0.4543
C3G C 0.18380(17) 0.13136(16) -0.2917(4)
C4G C 0.17706(17) 0.16634(17) -0.1808(4)
H6G H 0.2099 0.1707 -0.1176
C5G C 0.12242(18) 0.19443(17) -0.1636(4)
H7G H 0.1189 0.2186 -0.0884
C6G C 0.24197(16) 0.10086(15) -0.3224(3)
C7G C 0.33234(17) 0.05591(16) -0.2249(3)
C8G C 0.34043(17) 0.01038(16) -0.1431(3)
H8G H 0.3088 -0.0004 -0.0817
C9G C 0.3953(2) -0.01945(17) -0.1513(4)
H9G H 0.4012 -0.0509 -0.0960
C10G C 0.44105(19) -0.00292(18) -0.2409(3)
C11G C 0.43346(18) 0.04280(18) -0.3209(4)
H10G H 0.4655 0.0537 -0.3814
C12G C 0.37879(17) 0.07316(17) -0.3133(4)
H11G H 0.3734 0.1050 -0.3674
O1E O 0.74391(11) 0.08900(11) -0.0603(2)
N1E N 0.92676(15) 0.18942(14) -0.2514(3)
N2E N 0.72318(14) 0.08616(13) -0.2855(3)
H3E H 0.7358 0.0960 -0.3669
C1E C 0.92055(18) 0.15394(17) -0.1486(4)
H4E H 0.9551 0.1480 -0.0907
C2E C 0.86632(17) 0.12546(17) -0.1224(4)
H5E H 0.8637 0.1020 -0.0457
C3E C 0.81620(17) 0.13136(16) -0.2083(4)
C4E C 0.82294(17) 0.16634(17) -0.3192(4)
H6E H 0.7901 0.1707 -0.3824
C5E C 0.87758(18) 0.19443(17) -0.3364(4)
H7E H 0.8811 0.2186 -0.4116
C6E C 0.75803(16) 0.10086(15) -0.1776(3)
C7E C 0.66766(17) 0.05591(16) -0.2751(3)
C8E C 0.65957(17) 0.01038(16) -0.3569(3)
H8E H 0.6912 -0.0004 -0.4183
C9E C 0.6047(2) -0.01945(17) -0.3487(4)
H9E H 0.5988 -0.0509 -0.4040
C10E C 0.55895(19) -0.00292(18) -0.2591(3)
C11E C 0.56654(18) 0.04280(18) -0.1791(4)
H10E H 0.5345 0.0537 -0.1186
C12E C 0.62121(17) 0.07316(17) -0.1867(4)
H11E H 0.6266 0.1050 -0.1326
Zn1_2 Zn 1.0000 0.2500 -0.2500
N1B_2 N -0.07324(15) 0.31058(14) -0.2486(3)
N1E_2 N -0.07324(15) 0.18942(14) -0.2514(3)
O4? O 0.5000 0.5282(4) -0.2500
O5? O 0.1817(7) 0.2806(6) 0.3407(13)
Cl1? Cl 0.14499(17) 0.2570(6) 0.2356(14)
O6? O 0.1462(7) 0.2943(6) 0.2977(14)
O7? O 0.1002(8) 0.2873(6) 0.1758(16)
O8? O 0.1833(7) 0.2749(7) 0.1166(15)
loop_
_geom_bond_atom_site_label_1
_geom_bond_atom_site_label_2
_geom_bond_site_symmetry_1
_geom_bond_site_symmetry_2
Zn1 O2 1_555 1_555
S1 C10 1_555 1_555
O1 C6 1_555 1_555
O2 H1 1_555 1_555
H2 O2 1_555 1_555
N1 Zn1 1_555 1_555
N2 H3 1_555 1_555
C1 N1 1_555 1_555
H4 C1 1_555 1_555
C2 C1 1_555 1_555
H5 C2 1_555 1_555
C3 C2 1_555 1_555
C4 C3 1_555 1_555
H6 C4 1_555 1_555
C5 N1 1_555 1_555
H7 C5 1_555 1_555
C6 N2 1_555 1_555
C7 N2 1_555 1_555
C8 C7 1_555 1_555
H8 C8 1_555 1_555
C9 C8 1_555 1_555
H9 C9 1_555 1_555
C10 C9 1_555 1_555
C11 C10 1_555 1_555
H10 C11 1_555 1_555
C12 C7 1_555 1_555
H11 C12 1_555 1_555
O3 H12 1_555 1_555
H13 O3 1_555 1_555
O1B C6B 1_555 1_555
N1B C1B 1_555 1_555
N2B H3B 1_555 1_555
C1B H4B 1_555 1_555
C2B C1B 1_555 1_555
H5B C2B 1_555 1_555
C3B C2B 1_555 1_555
C4B C3B 1_555 1_555
H6B C4B 1_555 1_555
C5B N1B 1_555 1_555
H7B C5B 1_555 1_555
C6B N2B 1_555 1_555
C7B N2B 1_555 1_555
C8B C7B 1_555 1_555
H8B C8B 1_555 1_555
C9B C8B 1_555 1_555
H9B C9B 1_555 1_555
C10B S1 1_555 1_555
C11B C10B 1_555 1_555
H10B C11B 1_555 1_555
C12B C7B 1_555 1_555
H11B C12B 1_555 1_555
H1E O2 1_555 1_555
H2E O2 1_555 1_555
O2B Zn1 1_555 1_555
H1B O2B 1_555 1_555
H2B O2B 1_555 1_555
H1G O2B 1_555 1_555
H2G O2B 1_555 1_555
S1E C10G 1_555 1_555
O1G C6G 1_555 1_555
N1G Zn1 1_555 1_555
N2G H3G 1_555 1_555
C1G N1G 1_555 1_555
H4G C1G 1_555 1_555
C2G C1G 1_555 1_555
H5G C2G 1_555 1_555
C3G C2G 1_555 1_555
C4G C3G 1_555 1_555
H6G C4G 1_555 1_555
C5G N1G 1_555 1_555
H7G C5G 1_555 1_555
C6G N2G 1_555 1_555
C7G N2G 1_555 1_555
C8G C7G 1_555 1_555
H8G C8G 1_555 1_555
C9G C8G 1_555 1_555
H9G C9G 1_555 1_555
C10G C9G 1_555 1_555
C11G C10G 1_555 1_555
H10G C11G 1_555 1_555
C12G C7G 1_555 1_555
H11G C12G 1_555 1_555
O1E C6E 1_555 1_555
N1E C1E 1_555 1_555
N2E H3E 1_555 1_555
C1E H4E 1_555 1_555
C2E C1E 1_555 1_555
H5E C2E 1_555 1_555
C3E C2E 1_555 1_555
C4E C3E 1_555 1_555
H6E C4E 1_555 1_555
C5E N1E 1_555 1_555
H7E C5E 1_555 1_555
C6E N2E 1_555 1_555
C7E N2E 1_555 1_555
C8E C7E 1_555 1_555
H8E C8E 1_555 1_555
C9E C8E 1_555 1_555
H9E C9E 1_555 1_555
C10E S1E 1_555 1_555
C11E C10E 1_555 1_555
H10E C11E 1_555 1_555
C12E C7E 1_555 1_555
H11E C12E 1_555 1_555
Zn1_2 N1B 1_555 1_555
N1B_2 Zn1 1_555 1_555
N1E_2 Zn1 1_555 1_555
C3 C6 1_555 1_555
C4 C5 1_555 1_555
C11 C12 1_555 1_555
C3B C6B 1_555 1_555
C4B C5B 1_555 1_555
C9B C10B 1_555 1_555
C11B C12B 1_555 1_555
C3G C6G 1_555 1_555
C4G C5G 1_555 1_555
C11G C12G 1_555 1_555
N1E Zn1_2 1_555 1_555
C3E C6E 1_555 1_555
C4E C5E 1_555 1_555
C9E C10E 1_555 1_555
C11E C12E 1_555 1_555

#END
