
#######################################################################
#
#                 Cambridge Crystallographic Data Centre
#                                CCDC 
#
#######################################################################
#
# If this CIF has been generated from an entry in the Cambridge 
# Structural Database, then it will include bibliographic, chemical, 
# crystal, experimental, refinement or atomic coordinate data resulting 
# from the CCDC's data processing and validation procedures.
#
#######################################################################

data_TOVBAJ
_symmetry_cell_setting           orthorhombic
_symmetry_space_group_name_H-M   'C c c a'
_symmetry_Int_Tables_number      68
_space_group_name_Hall           '-C 2b 2bc'
loop_
_symmetry_equiv_pos_site_id
_symmetry_equiv_pos_as_xyz
1 x,y,z
2 1/2-x,-y,z
3 -x,y,1/2-z
4 1/2+x,-y,1/2-z
5 1/2+x,1/2+y,z
6 -x,1/2-y,z
7 1/2-x,1/2+y,1/2-z
8 x,1/2-y,1/2-z
9 -x,-y,-z
10 1/2+x,y,-z
11 x,-y,1/2+z
12 1/2-x,y,1/2+z
13 1/2-x,1/2-y,-z
14 x,1/2+y,-z
15 1/2+x,1/2-y,1/2+z
16 -x,1/2+y,1/2+z
_cell_length_a                   21.680(3)
_cell_length_b                   24.543(4)
_cell_length_c                   9.8013(16)
_cell_angle_alpha                90
_cell_angle_beta                 90
_cell_angle_gamma                90
_cell_volume                     5215.2
loop_
_atom_site_label
_atom_site_type_symbol
_atom_site_fract_x
_atom_site_fract_y
_atom_site_fract_z
Cl1 Cl 0.13974(7) 0.2500 0.2500
O3 O 0.0898(4) 0.2867(4) 0.1640(8)
O4 O 0.1714(5) 0.2830(3) 0.3360(7)
O3G O 0.0898(4) 0.2133(4) 0.3360(8)
O4G O 0.1714(5) 0.2170(3) 0.1640(7)
O5 O 0.0019(3) 0.1687(2) 0.1414(6)
Zn1 Zn 0.0000 0.2500 0.7500
O1 O 0.0000 0.2500 0.9682(3)
N1 N 0.07378(9) 0.30990(8) 0.7488(2)
H1 H 0.011(4) 0.235(3) 1.016(7)
C1 C 0.08097(12) 0.34378(10) 0.8549(3)
C2 C 0.12133(13) 0.30531(11) 0.6618(3)
H2 H 0.0463(14) 0.3465(11) 0.915(3)
C3 C 0.13466(12) 0.37225(11) 0.8797(3)
C4 C 0.17645(12) 0.33281(11) 0.6779(3)
H3 H 0.1168(13) 0.2804(12) 0.588(3)
H4 H 0.1387(14) 0.3948(13) 0.961(3)
C5 C 0.18391(12) 0.36670(11) 0.7899(3)
H5 H 0.2095(14) 0.3262(12) 0.613(3)
C6 C 0.24239(11) 0.39692(10) 0.8198(3)
O2 O 0.25670(8) 0.40837(7) 0.93786(18)
N2 N 0.27629(10) 0.41130(9) 0.7116(2)
H6 H 0.2610(13) 0.4064(11) 0.630(3)
C7 C 0.33144(11) 0.44239(10) 0.7216(2)
C8 C 0.33845(12) 0.48802(11) 0.6405(3)
C9 C 0.37810(12) 0.42657(11) 0.8094(3)
H7 H 0.3069(13) 0.4993(12) 0.579(3)
C10 C 0.39219(12) 0.51859(11) 0.6492(3)
C11 C 0.43153(12) 0.45739(11) 0.8171(3)
H8 H 0.3733(13) 0.3944(12) 0.864(3)
H9 H 0.3964(13) 0.5519(12) 0.594(3)
C12 C 0.43879(11) 0.50379(11) 0.7380(3)
H10 H 0.4632(15) 0.4450(12) 0.877(3)
C13 C 0.5000 0.5371(13) 0.7500
H11 H 0.503(3) 0.558(3) 0.666(6)
O1B O 0.0000 0.2500 0.5318(3)
N1G N 0.07378(9) 0.19010(8) 0.7512(2)
N1B N -0.07378(9) 0.30990(8) 0.7512(2)
N1E N -0.07378(9) 0.19010(8) 0.7488(2)
H1E H -0.011(4) 0.265(3) 1.016(7)
H1B H -0.011(4) 0.235(3) 0.484(7)
H1G H 0.011(4) 0.265(3) 0.484(7)
C1G C 0.08097(12) 0.15622(10) 0.6451(3)
C2G C 0.12133(13) 0.19469(11) 0.8382(3)
H2G H 0.0463(14) 0.1535(11) 0.585(3)
C3G C 0.13466(12) 0.12775(11) 0.6203(3)
C4G C 0.17645(12) 0.16719(11) 0.8221(3)
H3G H 0.1168(13) 0.2196(12) 0.912(3)
H4G H 0.1387(14) 0.1052(13) 0.539(3)
C5G C 0.18391(12) 0.13330(11) 0.7101(3)
H5G H 0.2095(14) 0.1738(12) 0.887(3)
C6G C 0.24239(11) 0.10308(10) 0.6802(3)
O2G O 0.25670(8) 0.09163(7) 0.56214(18)
N2G N 0.27629(10) 0.08870(9) 0.7884(2)
H6G H 0.2610(13) 0.0936(11) 0.870(3)
C7G C 0.33144(11) 0.05761(10) 0.7784(2)
C8G C 0.33845(12) 0.01198(11) 0.8595(3)
C9G C 0.37810(12) 0.07343(11) 0.6906(3)
H7G H 0.3069(13) 0.0007(12) 0.921(3)
C10G C 0.39219(12) -0.01859(11) 0.8508(3)
C11G C 0.43153(12) 0.04261(11) 0.6829(3)
H8G H 0.3733(13) 0.1056(12) 0.636(3)
H9G H 0.3964(13) -0.0519(12) 0.906(3)
C12G C 0.43879(11) -0.00379(11) 0.7620(3)
H10G H 0.4632(15) 0.0550(12) 0.623(3)
C13E C 0.5000 -0.0371(13) 0.7500
H11B H 0.497(3) 0.558(3) 0.834(6)
C12B C 0.56121(11) 0.50379(11) 0.7620(3)
H11G H 0.503(3) -0.058(3) 0.834(6)
H11E H 0.497(3) -0.058(3) 0.666(6)
C12E C 0.56121(11) -0.00379(11) 0.7380(3)
C10B C 0.60781(12) 0.51859(11) 0.8508(3)
C11B C 0.56847(12) 0.45739(11) 0.6829(3)
C10E C 0.60781(12) -0.01859(11) 0.6492(3)
C11E C 0.56847(12) 0.04261(11) 0.8171(3)
C8B C 0.66155(12) 0.48802(11) 0.8595(3)
H9B H 0.6036(13) 0.5519(12) 0.906(3)
H10B H 0.5368(15) 0.4450(12) 0.623(3)
C9B C 0.62190(12) 0.42657(11) 0.6906(3)
C8E C 0.66155(12) 0.01198(11) 0.6405(3)
H9E H 0.6036(13) -0.0519(12) 0.594(3)
H10E H 0.5368(15) 0.0550(12) 0.877(3)
C9E C 0.62190(12) 0.07343(11) 0.8094(3)
C7B C 0.66856(11) 0.44239(10) 0.7784(2)
H7B H 0.6931(13) 0.4993(12) 0.921(3)
H8B H 0.6267(13) 0.3944(12) 0.636(3)
C7E C 0.66856(11) 0.05761(10) 0.7216(2)
H7E H 0.6931(13) 0.0007(12) 0.579(3)
H8E H 0.6267(13) 0.1056(12) 0.864(3)
N2B N 0.72371(10) 0.41130(9) 0.7884(2)
N2E N 0.72371(10) 0.08870(9) 0.7116(2)
H6B H 0.7390(13) 0.4064(11) 0.870(3)
C6B C 0.75761(11) 0.39692(10) 0.6802(3)
H6E H 0.7390(13) 0.0936(11) 0.630(3)
C6E C 0.75761(11) 0.10308(10) 0.8198(3)
O2B O 0.74330(8) 0.40837(7) 0.56214(18)
C5B C 0.81609(12) 0.36670(11) 0.7101(3)
O2E O 0.74330(8) 0.09163(7) 0.93786(18)
C5E C 0.81609(12) 0.13330(11) 0.7899(3)
C3B C 0.86534(12) 0.37225(11) 0.6203(3)
C4B C 0.82355(12) 0.33281(11) 0.8221(3)
C3E C 0.86534(12) 0.12775(11) 0.8797(3)
C4E C 0.82355(12) 0.16719(11) 0.6779(3)
C1B C 0.91903(12) 0.34378(10) 0.6451(3)
H4B H 0.8613(14) 0.3948(13) 0.539(3)
H5B H 0.7905(14) 0.3262(12) 0.887(3)
C2B C 0.87867(13) 0.30531(11) 0.8382(3)
C1E C 0.91903(12) 0.15622(10) 0.8549(3)
H4E H 0.8613(14) 0.1052(13) 0.961(3)
H5E H 0.7905(14) 0.1738(12) 0.613(3)
C2E C 0.87867(13) 0.19469(11) 0.6618(3)
N1B_2 N 0.92622(9) 0.30990(8) 0.7512(2)
H2B H 0.9537(14) 0.3465(11) 0.585(3)
H3B H 0.8832(13) 0.2804(12) 0.912(3)
N1E_2 N 0.92622(9) 0.19010(8) 0.7488(2)
H2E H 0.9537(14) 0.1535(11) 0.915(3)
H3E H 0.8832(13) 0.2196(12) 0.588(3)
Zn1_2 Zn 1.0000 0.2500 0.7500
S1? S 0.5000 0.54815(19) 0.7500
H12? H 0.0000 0.167(4) 0.2500
H13? H 0.043(2) 0.1699(18) 0.095(5)
O6? O 0.1237(5) 0.2029(4) 0.2532(15)
O7? O 0.0852(5) 0.2126(4) 0.1757(11)
O8? O 0.1758(8) 0.2703(5) 0.1251(11)
loop_
_geom_bond_atom_site_label_1
_geom_bond_atom_site_label_2
_geom_bond_site_symmetry_1
_geom_bond_site_symmetry_2
Zn1 O1 1_555 1_555
O1 H1 1_555 1_555
N1 Zn1 1_555 1_555
C1 N1 1_555 1_555
C2 N1 1_555 1_555
H2 C1 1_555 1_555
C3 C1 1_555 1_555
C4 C2 1_555 1_555
H3 C2 1_555 1_555
H4 C3 1_555 1_555
C5 C3 1_555 1_555
H5 C4 1_555 1_555
C6 C5 1_555 1_555
O2 C6 1_555 1_555
N2 C6 1_555 1_555
H6 N2 1_555 1_555
C7 N2 1_555 1_555
C8 C7 1_555 1_555
C9 C7 1_555 1_555
H7 C8 1_555 1_555
C10 C8 1_555 1_555
C11 C9 1_555 1_555
H8 C9 1_555 1_555
H9 C10 1_555 1_555
C12 C10 1_555 1_555
H10 C11 1_555 1_555
C13 C12 1_555 1_555
H11 C13 1_555 1_555
Cl1 O3 1_555 1_555
O4 Cl1 1_555 1_555
O1B Zn1 1_555 1_555
N1G Zn1 1_555 1_555
N1B Zn1 1_555 1_555
N1E Zn1 1_555 1_555
H1E O1 1_555 1_555
H1B O1B 1_555 1_555
H1G O1B 1_555 1_555
C1G N1G 1_555 1_555
C2G N1G 1_555 1_555
H2G C1G 1_555 1_555
C3G C1G 1_555 1_555
C4G C2G 1_555 1_555
H3G C2G 1_555 1_555
H4G C3G 1_555 1_555
C5G C3G 1_555 1_555
H5G C4G 1_555 1_555
C6G C5G 1_555 1_555
O2G C6G 1_555 1_555
N2G C6G 1_555 1_555
H6G N2G 1_555 1_555
C7G N2G 1_555 1_555
C8G C7G 1_555 1_555
C9G C7G 1_555 1_555
H7G C8G 1_555 1_555
C10G C8G 1_555 1_555
C11G C9G 1_555 1_555
H8G C9G 1_555 1_555
H9G C10G 1_555 1_555
C12G C10G 1_555 1_555
H10G C11G 1_555 1_555
C13E C12G 1_555 1_555
H11B C13 1_555 1_555
C12B C13 1_555 1_555
H11G C13E 1_555 1_555
H11E C13E 1_555 1_555
C12E C13E 1_555 1_555
C10B C12B 1_555 1_555
C11B C12B 1_555 1_555
C10E C12E 1_555 1_555
C11E C12E 1_555 1_555
C8B C10B 1_555 1_555
H9B C10B 1_555 1_555
H10B C11B 1_555 1_555
C9B C11B 1_555 1_555
C8E C10E 1_555 1_555
H9E C10E 1_555 1_555
H10E C11E 1_555 1_555
C9E C11E 1_555 1_555
C7B C8B 1_555 1_555
H7B C8B 1_555 1_555
H8B C9B 1_555 1_555
C7E C8E 1_555 1_555
H7E C8E 1_555 1_555
H8E C9E 1_555 1_555
N2B C7B 1_555 1_555
N2E C7E 1_555 1_555
H6B N2B 1_555 1_555
C6B N2B 1_555 1_555
H6E N2E 1_555 1_555
C6E N2E 1_555 1_555
O2B C6B 1_555 1_555
C5B C6B 1_555 1_555
O2E C6E 1_555 1_555
C5E C6E 1_555 1_555
C3B C5B 1_555 1_555
C4B C5B 1_555 1_555
C3E C5E 1_555 1_555
C4E C5E 1_555 1_555
C1B C3B 1_555 1_555
H4B C3B 1_555 1_555
H5B C4B 1_555 1_555
C2B C4B 1_555 1_555
C1E C3E 1_555 1_555
H4E C3E 1_555 1_555
H5E C4E 1_555 1_555
C2E C4E 1_555 1_555
N1B_2 C1B 1_555 1_555
H2B C1B 1_555 1_555
H3B C2B 1_555 1_555
N1E_2 C1E 1_555 1_555
H2E C1E 1_555 1_555
H3E C2E 1_555 1_555
Zn1_2 N1B_2 1_555 1_555
O3G Cl1 1_555 1_555
O4G Cl1 1_555 1_555
C4 C5 1_555 1_555
C11 C12 1_555 1_555
C4G C5G 1_555 1_555
C11G C12G 1_555 1_555
C9B C7B 1_555 1_555
C9E C7E 1_555 1_555
C2B N1B_2 1_555 1_555
C2E N1E_2 1_555 1_555
N1E_2 Zn1_2 1_555 1_555

#END
