
#######################################################################
#
#                 Cambridge Crystallographic Data Centre
#                                CCDC 
#
#######################################################################
#
# If this CIF has been generated from an entry in the Cambridge 
# Structural Database, then it will include bibliographic, chemical, 
# crystal, experimental, refinement or atomic coordinate data resulting 
# from the CCDC's data processing and validation procedures.
#
#######################################################################

data_TOVBIR
_symmetry_cell_setting           orthorhombic
_symmetry_space_group_name_H-M   'C c c a'
_symmetry_Int_Tables_number      68
_space_group_name_Hall           '-C 2b 2bc'
loop_
_symmetry_equiv_pos_site_id
_symmetry_equiv_pos_as_xyz
1 x,y,z
2 1/2-x,-y,z
3 -x,y,1/2-z
4 1/2+x,-y,1/2-z
5 1/2+x,1/2+y,z
6 -x,1/2-y,z
7 1/2-x,1/2+y,1/2-z
8 x,1/2-y,1/2-z
9 -x,-y,-z
10 1/2+x,y,-z
11 x,-y,1/2+z
12 1/2-x,y,1/2+z
13 1/2-x,1/2-y,-z
14 x,1/2+y,-z
15 1/2+x,1/2-y,1/2+z
16 -x,1/2+y,1/2+z
_cell_length_a                   21.6502(18)
_cell_length_b                   24.102(2)
_cell_length_c                   9.8386(8)
_cell_angle_alpha                90
_cell_angle_beta                 90
_cell_angle_gamma                90
_cell_volume                     5133.91
loop_
_atom_site_label
_atom_site_type_symbol
_atom_site_fract_x
_atom_site_fract_y
_atom_site_fract_z
Cl1 Cl 0.13879(7) 0.2500 0.2500
O3 O 0.1119(7) 0.2064(4) 0.2217(16)
O4 O 0.1862(5) 0.2420(7) 0.3711(11)
O3G O 0.1119(7) 0.2936(4) 0.2783(16)
O4G O 0.1862(5) 0.2580(7) 0.1289(11)
O5 O -0.0007(3) 0.1684(2) 0.1419(6)
Zn1 Zn 0.0000 0.2500 0.7500
O1 O 0.25629(8) 0.41063(8) 0.94140(17)
O2 O 0.0000 0.2500 0.9680(3)
H1 H -0.002(3) 0.228(2) 1.020(6)
N1 N 0.07338(9) 0.31137(9) 0.7483(2)
N2 N 0.27671(9) 0.41378(9) 0.7158(2)
H2 H 0.2636(12) 0.4083(11) 0.636(3)
C1 C 0.5000 0.5404(14) 0.7500
H3 H 0.498(5) 0.561(4) 0.818(9)
C2 C 0.44334(11) 0.50193(11) 0.7411(3)
C3 C 0.43424(11) 0.45535(12) 0.8209(3)
H4 H 0.4651(15) 0.4412(13) 0.878(3)
C4 C 0.37923(11) 0.42616(11) 0.8140(3)
H5 H 0.3734(13) 0.3937(13) 0.867(3)
C5 C 0.33301(10) 0.44382(10) 0.7263(2)
C6 C 0.34221(11) 0.48997(11) 0.6451(2)
H6 H 0.3110(13) 0.5024(12) 0.585(3)
C7 C 0.39759(11) 0.51909(11) 0.6534(3)
H7 H 0.4028(14) 0.5517(13) 0.604(3)
C8 C 0.24242(10) 0.39944(10) 0.8230(2)
C9 C 0.12135(12) 0.30616(11) 0.6633(3)
H8 H 0.1176(14) 0.2817(14) 0.589(3)
C10 C 0.17685(12) 0.33419(11) 0.6804(3)
H9 H 0.2095(14) 0.3281(12) 0.621(3)
C11 C 0.18366(11) 0.36883(10) 0.7918(2)
C12 C 0.13397(12) 0.37496(11) 0.8794(3)
H10 H 0.1368(13) 0.3975(13) 0.955(3)
C13 C 0.07988(12) 0.34632(11) 0.8538(3)
H11 H 0.0458(15) 0.3503(12) 0.915(3)
O1B O 0.74371(8) 0.41063(8) 0.55860(17)
N1B N 0.92662(9) 0.31137(9) 0.7517(2)
N2B N 0.72329(9) 0.41378(9) 0.7842(2)
H2B H 0.7364(12) 0.4083(11) 0.864(3)
H3B H 0.502(5) 0.561(4) 0.682(9)
C2B C 0.55666(11) 0.50193(11) 0.7589(3)
C3B C 0.56576(11) 0.45535(12) 0.6791(3)
H4B H 0.5349(15) 0.4412(13) 0.622(3)
C4B C 0.62077(11) 0.42616(11) 0.6860(3)
H5B H 0.6266(13) 0.3937(13) 0.633(3)
C5B C 0.66699(10) 0.44382(10) 0.7737(2)
C6B C 0.65779(11) 0.48997(11) 0.8549(2)
H6B H 0.6890(13) 0.5024(12) 0.915(3)
C7B C 0.60241(11) 0.51909(11) 0.8466(3)
H7B H 0.5972(14) 0.5517(13) 0.896(3)
C8B C 0.75758(10) 0.39944(10) 0.6770(2)
C9B C 0.87865(12) 0.30616(11) 0.8367(3)
H8B H 0.8824(14) 0.2817(14) 0.911(3)
C10B C 0.82315(12) 0.33419(11) 0.8196(3)
H9B H 0.7905(14) 0.3281(12) 0.879(3)
C11B C 0.81634(11) 0.36883(10) 0.7082(2)
C12B C 0.86603(12) 0.37496(11) 0.6206(3)
H10B H 0.8632(13) 0.3975(13) 0.545(3)
C13B C 0.92012(12) 0.34632(11) 0.6462(3)
H11B H 0.9542(15) 0.3503(12) 0.585(3)
H1E H 0.002(3) 0.272(2) 1.020(6)
O2B O 0.0000 0.2500 0.5320(3)
H1B H 0.002(3) 0.228(2) 0.480(6)
H1G H -0.002(3) 0.272(2) 0.480(6)
O1G O 0.25629(8) 0.08937(8) 0.55860(17)
N1G N 0.07338(9) 0.18863(9) 0.7517(2)
N2G N 0.27671(9) 0.08622(9) 0.7842(2)
H2G H 0.2636(12) 0.0917(11) 0.864(3)
C1E C 0.5000 -0.0404(14) 0.7500
H3G H 0.498(5) -0.061(4) 0.682(9)
C2G C 0.44334(11) -0.00193(11) 0.7589(3)
C3G C 0.43424(11) 0.04465(12) 0.6791(3)
H4G H 0.4651(15) 0.0588(13) 0.622(3)
C4G C 0.37923(11) 0.07384(11) 0.6860(3)
H5G H 0.3734(13) 0.1063(13) 0.633(3)
C5G C 0.33301(10) 0.05618(10) 0.7737(2)
C6G C 0.34221(11) 0.01003(11) 0.8549(2)
H6G H 0.3110(13) -0.0024(12) 0.915(3)
C7G C 0.39759(11) -0.01909(11) 0.8466(3)
H7G H 0.4028(14) -0.0517(13) 0.896(3)
C8G C 0.24242(10) 0.10056(10) 0.6770(2)
C9G C 0.12135(12) 0.19384(11) 0.8367(3)
H8G H 0.1176(14) 0.2183(14) 0.911(3)
C10G C 0.17685(12) 0.16581(11) 0.8196(3)
H9G H 0.2095(14) 0.1719(12) 0.879(3)
C11G C 0.18366(11) 0.13117(10) 0.7082(2)
C12G C 0.13397(12) 0.12504(11) 0.6206(3)
H10G H 0.1368(13) 0.1025(13) 0.545(3)
C13G C 0.07988(12) 0.15368(11) 0.6462(3)
H11G H 0.0458(15) 0.1497(12) 0.585(3)
O1E O 0.74371(8) 0.08937(8) 0.94140(17)
N1E N 0.92662(9) 0.18863(9) 0.7483(2)
N2E N 0.72329(9) 0.08622(9) 0.7158(2)
H2E H 0.7364(12) 0.0917(11) 0.636(3)
H3E H 0.502(5) -0.061(4) 0.818(9)
C2E C 0.55666(11) -0.00193(11) 0.7411(3)
C3E C 0.56576(11) 0.04465(12) 0.8209(3)
H4E H 0.5349(15) 0.0588(13) 0.878(3)
C4E C 0.62077(11) 0.07384(11) 0.8140(3)
H5E H 0.6266(13) 0.1063(13) 0.867(3)
C5E C 0.66699(10) 0.05618(10) 0.7263(2)
C6E C 0.65779(11) 0.01003(11) 0.6451(2)
H6E H 0.6890(13) -0.0024(12) 0.585(3)
C7E C 0.60241(11) -0.01909(11) 0.6534(3)
H7E H 0.5972(14) -0.0517(13) 0.604(3)
C8E C 0.75758(10) 0.10056(10) 0.8230(2)
C9E C 0.87865(12) 0.19384(11) 0.6633(3)
H8E H 0.8824(14) 0.2183(14) 0.589(3)
C10E C 0.82315(12) 0.16581(11) 0.6804(3)
H9E H 0.7905(14) 0.1719(12) 0.621(3)
C11E C 0.81634(11) 0.13117(10) 0.7918(2)
C12E C 0.86603(12) 0.12504(11) 0.8794(3)
H10E H 0.8632(13) 0.1025(13) 0.955(3)
C13E C 0.92012(12) 0.15368(11) 0.8538(3)
H11E H 0.9542(15) 0.1497(12) 0.915(3)
Zn1_2 Zn 1.0000 0.2500 0.7500
N1B_2 N -0.07338(9) 0.31137(9) 0.7517(2)
N1E_2 N -0.07338(9) 0.18863(9) 0.7483(2)
O6? O 0.5000 0.5284(8) 0.7500
H12? H 0.0000 0.1664 0.2500
H13? H 0.0398 0.1696 0.0959
O7? O 0.0930(4) 0.2121(3) 0.3344(7)
O8? O 0.1640(5) 0.2863(3) 0.3335(7)
loop_
_geom_bond_atom_site_label_1
_geom_bond_atom_site_label_2
_geom_bond_site_symmetry_1
_geom_bond_site_symmetry_2
Zn1 O2 1_555 1_555
O1 C8 1_555 1_555
O2 H1 1_555 1_555
N1 Zn1 1_555 1_555
N2 H2 1_555 1_555
C1 H3 1_555 1_555
C2 C1 1_555 1_555
C3 C2 1_555 1_555
H4 C3 1_555 1_555
C4 C3 1_555 1_555
H5 C4 1_555 1_555
C5 N2 1_555 1_555
C6 C5 1_555 1_555
H6 C6 1_555 1_555
C7 C2 1_555 1_555
H7 C7 1_555 1_555
C8 N2 1_555 1_555
C9 N1 1_555 1_555
H8 C9 1_555 1_555
C10 C9 1_555 1_555
H9 C10 1_555 1_555
C11 C8 1_555 1_555
C12 C11 1_555 1_555
H10 C12 1_555 1_555
C13 N1 1_555 1_555
H11 C13 1_555 1_555
Cl1 O3 1_555 1_555
O4 Cl1 1_555 1_555
O1B C8B 1_555 1_555
N1B C9B 1_555 1_555
N2B H2B 1_555 1_555
H3B C1 1_555 1_555
C2B C1 1_555 1_555
C3B C2B 1_555 1_555
H4B C3B 1_555 1_555
C4B C3B 1_555 1_555
H5B C4B 1_555 1_555
C5B N2B 1_555 1_555
C6B C5B 1_555 1_555
H6B C6B 1_555 1_555
C7B C2B 1_555 1_555
H7B C7B 1_555 1_555
C8B N2B 1_555 1_555
C9B H8B 1_555 1_555
C10B C9B 1_555 1_555
H9B C10B 1_555 1_555
C11B C8B 1_555 1_555
C12B C11B 1_555 1_555
H10B C12B 1_555 1_555
C13B N1B 1_555 1_555
H11B C13B 1_555 1_555
H1E O2 1_555 1_555
O2B Zn1 1_555 1_555
H1B O2B 1_555 1_555
H1G O2B 1_555 1_555
O1G C8G 1_555 1_555
N1G Zn1 1_555 1_555
N2G H2G 1_555 1_555
C1E H3G 1_555 1_555
C2G C1E 1_555 1_555
C3G C2G 1_555 1_555
H4G C3G 1_555 1_555
C4G C3G 1_555 1_555
H5G C4G 1_555 1_555
C5G N2G 1_555 1_555
C6G C5G 1_555 1_555
H6G C6G 1_555 1_555
C7G C2G 1_555 1_555
H7G C7G 1_555 1_555
C8G N2G 1_555 1_555
C9G N1G 1_555 1_555
H8G C9G 1_555 1_555
C10G C9G 1_555 1_555
H9G C10G 1_555 1_555
C11G C8G 1_555 1_555
C12G C11G 1_555 1_555
H10G C12G 1_555 1_555
C13G N1G 1_555 1_555
H11G C13G 1_555 1_555
O1E C8E 1_555 1_555
N1E C9E 1_555 1_555
N2E H2E 1_555 1_555
H3E C1E 1_555 1_555
C2E C1E 1_555 1_555
C3E C2E 1_555 1_555
H4E C3E 1_555 1_555
C4E C3E 1_555 1_555
H5E C4E 1_555 1_555
C5E N2E 1_555 1_555
C6E C5E 1_555 1_555
H6E C6E 1_555 1_555
C7E C2E 1_555 1_555
H7E C7E 1_555 1_555
C8E N2E 1_555 1_555
C9E H8E 1_555 1_555
C10E C9E 1_555 1_555
H9E C10E 1_555 1_555
C11E C8E 1_555 1_555
C12E C11E 1_555 1_555
H10E C12E 1_555 1_555
C13E N1E 1_555 1_555
H11E C13E 1_555 1_555
Zn1_2 N1B 1_555 1_555
N1B_2 Zn1 1_555 1_555
N1E_2 Zn1 1_555 1_555
O3G Cl1 1_555 1_555
O4G Cl1 1_555 1_555
C4 C5 1_555 1_555
C6 C7 1_555 1_555
C10 C11 1_555 1_555
C12 C13 1_555 1_555
C4B C5B 1_555 1_555
C6B C7B 1_555 1_555
C10B C11B 1_555 1_555
C12B C13B 1_555 1_555
C4G C5G 1_555 1_555
C6G C7G 1_555 1_555
C10G C11G 1_555 1_555
C12G C13G 1_555 1_555
N1E Zn1_2 1_555 1_555
C4E C5E 1_555 1_555
C6E C7E 1_555 1_555
C10E C11E 1_555 1_555
C12E C13E 1_555 1_555

#END
