
#######################################################################
#
#                 Cambridge Crystallographic Data Centre
#                                CCDC 
#
#######################################################################
#
# If this CIF has been generated from an entry in the Cambridge 
# Structural Database, then it will include bibliographic, chemical, 
# crystal, experimental, refinement or atomic coordinate data resulting 
# from the CCDC's data processing and validation procedures.
#
#######################################################################

data_TOVDIT
_symmetry_cell_setting           triclinic
_symmetry_space_group_name_H-M   'P -1'
_symmetry_Int_Tables_number      2
_space_group_name_Hall           '-P 1'
loop_
_symmetry_equiv_pos_site_id
_symmetry_equiv_pos_as_xyz
1 x,y,z
2 -x,-y,-z
_cell_length_a                   11.2083(14)
_cell_length_b                   12.3863(18)
_cell_length_c                   13.691(2)
_cell_angle_alpha                89.056(5)
_cell_angle_beta                 71.103(4)
_cell_angle_gamma                75.588(4)
_cell_volume                     1737.41
loop_
_atom_site_label
_atom_site_type_symbol
_atom_site_fract_x
_atom_site_fract_y
_atom_site_fract_z
Eu1 Eu 1.079845(15) 1.136691(14) 0.023495(12)
Eu2 Eu 0.736245(16) 1.057779(14) 0.294570(12)
Eu3 Eu 0.758392(17) 0.549111(14) 0.358192(14)
S1 S 1.07623(8) 0.92731(7) 0.16059(6)
C1 C 1.3687(3) 1.0269(3) -0.1519(3)
C2 C 1.4082(3) 1.0912(3) -0.0805(3)
C3 C 1.5349(3) 1.0977(3) -0.0974(3)
H1 H 1.6025 1.0625 -0.1563
C4 C 1.5581(4) 1.1579(4) -0.0243(3)
H2 H 1.6424 1.1626 -0.0329
C5 C 1.4550(4) 1.2113(3) 0.0620(3)
H3 H 1.4689 1.2512 0.1125
C6 C 1.3299(3) 1.2034(3) 0.0709(3)
C7 C 1.2087(3) 1.2669(3) 0.1563(3)
C8 C 1.0715(4) 1.3553(3) -0.1232(3)
C9 C 0.9310(4) 1.3806(3) -0.0546(3)
C10 C 0.8359(5) 1.4691(4) -0.0672(4)
H4 H 0.8562 1.5175 -0.1191
C11 C 0.7087(5) 1.4842(4) -0.0002(4)
H5 H 0.6429 1.5442 -0.0059
C12 C 0.6807(4) 1.4101(4) 0.0744(4)
H6 H 0.5961 1.4185 0.1195
C13 C 0.7817(3) 1.3230(3) 0.0803(3)
C14 C 0.7627(3) 1.2347(3) 0.1568(3)
C15 C 0.8183(5) 1.1713(3) 0.4721(3)
C16 C 0.8157(5) 1.0581(3) 0.5122(3)
C17 C 0.8470(7) 1.0218(4) 0.5989(4)
H7 H 0.8673 1.0697 0.6391
C18 C 0.8476(7) 0.9138(4) 0.6251(4)
H8 H 0.8689 0.8878 0.6830
C19 C 0.8163(5) 0.8444(4) 0.5645(3)
H9 H 0.8170 0.7710 0.5802
C20 C 0.7841(4) 0.8871(3) 0.4799(3)
C21 C 0.7497(4) 0.8229(3) 0.4057(3)
C22 C 0.4834(4) 0.5544(3) 0.5350(3)
N1 N 1.3085(3) 1.1433(2) 0.0021(2)
N2 N 0.9045(3) 1.3083(2) 0.0179(2)
N3 N 0.7819(3) 0.9922(2) 0.4555(2)
O1 O 1.2483(2) 1.0237(2) -0.12215(18)
O2 O 0.5353(3) 1.1487(3) 0.4294(2)
H10 H 0.4715 1.1335 0.4170
H11 H 0.5256 1.2191 0.4307
O3 O 1.4480(2) 0.9805(2) -0.23542(19)
O4 O 0.6277(3) 0.6539(3) 0.2581(3)
H12 H 0.6763 0.6823 0.2089
H13 H 0.5666 0.7058 0.2972
O5 O 1.1014(2) 1.2625(2) 0.1446(2)
O6 O 0.7618(3) 0.4613(3) 0.5163(2)
H14 H 0.7214 0.5093 0.5676
H15 H 0.8406 0.4357 0.5142
O7 O 1.2182(3) 1.3195(2) 0.2276(2)
O8 O 0.8685(3) 0.3647(2) 0.2869(2)
H16 H 0.8491 0.3189 0.3327
H17 H 0.9503 0.3577 0.2667
O9 O 1.1478(3) 1.2704(2) -0.1058(2)
O10 O 0.9799(3) 0.5191(3) 0.3683(3)
H18 H 1.0123 0.4496 0.3701
H19 H 1.0214 0.5693 0.3527
O11 O 1.1008(3) 1.4206(3) -0.1923(3)
O12 O 0.8649(2) 1.16155(19) 0.15762(18)
O13 O 0.6522(2) 1.2329(2) 0.2145(2)
O14 O 0.7127(3) 0.8748(2) 0.3374(2)
O15 O 0.7610(3) 0.7205(2) 0.4173(2)
O16 O 0.7981(3) 1.1869(2) 0.3861(2)
O17 O 0.8415(5) 1.2412(3) 0.5221(3)
O18 O 1.1394(3) 1.0196(2) 0.1546(2)
O19 O 1.0419(3) 0.9320(2) 0.0634(2)
O20 O 0.9557(3) 0.9483(2) 0.2498(2)
O21 O 1.1633(3) 0.8210(2) 0.1649(2)
O22 O 0.5474(3) 0.6241(2) 0.4995(2)
O23 O 0.3969(3) 0.5620(2) 0.6210(2)
C22A C 0.5166(4) 0.4456(3) 0.4650(3)
O22A O 0.4526(3) 0.3759(2) 0.5005(2)
O23A O 0.6031(3) 0.4380(2) 0.3790(2)
Eu1A Eu -0.079845(15) -0.136691(14) 0.976505(12)
Eu2A Eu 0.263755(16) -0.057779(14) 0.705430(12)
Eu3A Eu 0.241608(17) 0.450889(14) 0.641808(14)
S1A S -0.07623(8) 0.07269(7) 0.83941(6)
C1A C -0.3687(3) -0.0269(3) 1.1519(3)
C2A C -0.4082(3) -0.0912(3) 1.0805(3)
C3A C -0.5349(3) -0.0977(3) 1.0974(3)
H1A H -0.6025 -0.0625 1.1563
C4A C -0.5581(4) -0.1579(4) 1.0243(3)
H2A H -0.6424 -0.1626 1.0329
C5A C -0.4550(4) -0.2113(3) 0.9380(3)
H3A H -0.4689 -0.2512 0.8875
C6A C -0.3299(3) -0.2034(3) 0.9291(3)
C7A C -0.2087(3) -0.2669(3) 0.8437(3)
C8A C -0.0715(4) -0.3553(3) 1.1232(3)
C9A C 0.0690(4) -0.3806(3) 1.0546(3)
C10A C 0.1641(5) -0.4691(4) 1.0672(4)
H4A H 0.1438 -0.5175 1.1191
C11A C 0.2913(5) -0.4842(4) 1.0002(4)
H5A H 0.3571 -0.5442 1.0059
C12A C 0.3193(4) -0.4101(4) 0.9256(4)
H6A H 0.4039 -0.4185 0.8805
C13A C 0.2183(3) -0.3230(3) 0.9197(3)
C14A C 0.2373(3) -0.2347(3) 0.8432(3)
C15A C 0.1817(5) -0.1713(3) 0.5279(3)
C16A C 0.1843(5) -0.0581(3) 0.4878(3)
C17A C 0.1530(7) -0.0218(4) 0.4011(4)
H7A H 0.1327 -0.0697 0.3609
C18A C 0.1524(7) 0.0862(4) 0.3749(4)
H8A H 0.1311 0.1122 0.3170
C19A C 0.1837(5) 0.1556(4) 0.4355(3)
H9A H 0.1830 0.2290 0.4198
C20A C 0.2159(4) 0.1129(3) 0.5201(3)
C21A C 0.2503(4) 0.1771(3) 0.5943(3)
N1A N -0.3085(3) -0.1433(2) 0.9979(2)
N2A N 0.0955(3) -0.3083(2) 0.9821(2)
N3A N 0.2181(3) 0.0078(2) 0.5445(2)
O1A O -0.2483(2) -0.0237(2) 1.12215(18)
O2A O 0.4647(3) -0.1487(3) 0.5706(2)
H10A H 0.5285 -0.1335 0.5830
H11A H 0.4744 -0.2191 0.5693
O3A O -0.4480(2) 0.0195(2) 1.23542(19)
O4A O 0.3723(3) 0.3461(3) 0.7419(3)
H12A H 0.3237 0.3177 0.7911
H13A H 0.4334 0.2942 0.7028
O5A O -0.1014(2) -0.2625(2) 0.8554(2)
O6A O 0.2382(3) 0.5387(3) 0.4837(2)
H14A H 0.2786 0.4907 0.4324
H15A H 0.1594 0.5643 0.4858
O7A O -0.2182(3) -0.3195(2) 0.7724(2)
O8A O 0.1315(3) 0.6353(2) 0.7131(2)
H16A H 0.1509 0.6811 0.6673
H17A H 0.0497 0.6423 0.7333
O9A O -0.1478(3) -0.2704(2) 1.1058(2)
O10A O 0.0201(3) 0.4809(3) 0.6317(3)
H18A H -0.0123 0.5504 0.6299
H19A H -0.0214 0.4307 0.6473
O11A O -0.1008(3) -0.4206(3) 1.1923(3)
O12A O 0.1351(2) -0.16155(19) 0.84238(18)
O13A O 0.3478(2) -0.2329(2) 0.7855(2)
O14A O 0.2873(3) 0.1252(2) 0.6626(2)
O15A O 0.2390(3) 0.2795(2) 0.5827(2)
O16A O 0.2019(3) -0.1869(2) 0.6139(2)
O17A O 0.1585(5) -0.2412(3) 0.4779(3)
O18A O -0.1394(3) -0.0196(2) 0.8454(2)
O19A O -0.0419(3) 0.0680(2) 0.9366(2)
O20A O 0.0443(3) 0.0517(2) 0.7502(2)
O21A O -0.1633(3) 0.1790(2) 0.8351(2)
Eu1_2 Eu 0.079845(15) 0.136691(14) 1.023495(12)
Eu1A_2 Eu 0.920155(15) 0.863309(14) -0.023495(12)
Eu2_2 Eu -0.263755(16) 0.057779(14) 1.294570(12)
Eu2A_2 Eu 1.263755(16) 0.942221(14) -0.294570(12)
Eu3_2 Eu -0.241608(17) -0.450889(14) 1.358192(14)
Eu3A_2 Eu 1.241608(17) 1.450889(14) -0.358192(14)
O1_2 O 0.2483(2) 0.0237(2) 0.87785(18)
O1A_2 O 0.7517(2) 0.9763(2) 0.12215(18)
O3_2 O 0.4480(2) -0.0195(2) 0.76458(19)
O3A_2 O 0.5520(2) 1.0195(2) 0.23542(19)
O11_2 O 0.1008(3) 0.4206(3) 0.8077(3)
O11A_2 O 0.8992(3) 0.5794(3) 0.1923(3)
O19_2 O 0.0419(3) -0.0680(2) 1.0634(2)
O19A_2 O 0.9581(3) 1.0680(2) -0.0634(2)
O24 O 0.4210(4) 0.6285(4) 0.2055(4)
H20 H 0.3932 0.5742 0.2345
H21 H 0.3725 0.6892 0.2341
O25 O 0.3803(3) 0.4202(3) 0.2881(3)
H22 H 0.3264 0.3907 0.2741
H23 H 0.4384 0.3696 0.3016
O26 O 0.5545(8) 0.1423(8) 0.6290(6)
H24 H 0.5066 0.1098 0.6747
H25 H 0.5610 0.1185 0.5692
O27 O 0.8883(5) 0.3248(3) 0.6847(3)
H26 H 0.885(6) 0.285(3) 0.733(2)
H27 H 0.899(6) 0.287(3) 0.632(2)
loop_
_geom_bond_atom_site_label_1
_geom_bond_atom_site_label_2
_geom_bond_site_symmetry_1
_geom_bond_site_symmetry_2
Eu1 N1 1_555 1_555
Eu2 N3 1_555 1_555
Eu3 O4 1_555 1_555
S1 O18 1_555 1_555
C1 C2 1_555 1_555
C2 C3 1_555 1_555
C3 H1 1_555 1_555
C4 C3 1_555 1_555
H2 C4 1_555 1_555
C5 C4 1_555 1_555
H3 C5 1_555 1_555
C6 C5 1_555 1_555
C7 C6 1_555 1_555
C8 C9 1_555 1_555
C9 C10 1_555 1_555
C10 H4 1_555 1_555
C11 C10 1_555 1_555
H5 C11 1_555 1_555
C12 C11 1_555 1_555
H6 C12 1_555 1_555
C13 C12 1_555 1_555
C14 C13 1_555 1_555
C15 C16 1_555 1_555
C16 C17 1_555 1_555
C17 H7 1_555 1_555
C18 C17 1_555 1_555
H8 C18 1_555 1_555
C19 C18 1_555 1_555
H9 C19 1_555 1_555
C20 C19 1_555 1_555
C21 C20 1_555 1_555
C22 O22 1_555 1_555
N1 C2 1_555 1_555
N2 Eu1 1_555 1_555
N3 C16 1_555 1_555
O1 Eu1 1_555 1_555
O2 Eu2 1_555 1_555
H10 O2 1_555 1_555
H11 O2 1_555 1_555
O3 C1 1_555 1_555
O4 H12 1_555 1_555
H13 O4 1_555 1_555
O5 Eu1 1_555 1_555
O6 Eu3 1_555 1_555
H14 O6 1_555 1_555
H15 O6 1_555 1_555
O7 C7 1_555 1_555
O8 Eu3 1_555 1_555
H16 O8 1_555 1_555
H17 O8 1_555 1_555
O9 Eu1 1_555 1_555
O10 Eu3 1_555 1_555
H18 O10 1_555 1_555
H19 O10 1_555 1_555
O11 C8 1_555 1_555
O12 Eu1 1_555 1_555
O13 Eu2 1_555 1_555
O14 Eu2 1_555 1_555
O15 Eu3 1_555 1_555
O16 Eu2 1_555 1_555
O17 C15 1_555 1_555
O18 Eu1 1_555 1_555
O19 Eu1 1_555 1_555
O20 Eu2 1_555 1_555
O21 S1 1_555 1_555
O22 Eu3 1_555 1_555
O23 C22 1_555 1_555
O24 H20 1_555 1_555
H21 O24 1_555 1_555
O25 H22 1_555 1_555
H23 O25 1_555 1_555
O26 H24 1_555 1_555
H25 O26 1_555 1_555
O27 H26 1_555 1_555
H27 O27 1_555 1_555
C22A C22 1_555 1_555
O22A C22A 1_555 1_555
O23A Eu3 1_555 1_555
Eu1A N1A 1_555 1_555
Eu2A N3A 1_555 1_555
Eu3A O23 1_555 1_555
S1A O18A 1_555 1_555
C1A C2A 1_555 1_555
C2A C3A 1_555 1_555
C3A H1A 1_555 1_555
C4A C3A 1_555 1_555
H2A C4A 1_555 1_555
C5A C4A 1_555 1_555
H3A C5A 1_555 1_555
C6A C5A 1_555 1_555
C7A C6A 1_555 1_555
C8A C9A 1_555 1_555
C9A C10A 1_555 1_555
C10A H4A 1_555 1_555
C11A C10A 1_555 1_555
H5A C11A 1_555 1_555
C12A C11A 1_555 1_555
H6A C12A 1_555 1_555
C13A C12A 1_555 1_555
C14A C13A 1_555 1_555
C15A C16A 1_555 1_555
C16A C17A 1_555 1_555
C17A H7A 1_555 1_555
C18A C17A 1_555 1_555
H8A C18A 1_555 1_555
C19A C18A 1_555 1_555
H9A C19A 1_555 1_555
C20A C19A 1_555 1_555
C21A C20A 1_555 1_555
N1A C2A 1_555 1_555
N2A Eu1A 1_555 1_555
N3A C16A 1_555 1_555
O1A Eu1A 1_555 1_555
O2A Eu2A 1_555 1_555
H10A O2A 1_555 1_555
H11A O2A 1_555 1_555
O3A C1A 1_555 1_555
O4A Eu3A 1_555 1_555
H12A O4A 1_555 1_555
H13A O4A 1_555 1_555
O5A Eu1A 1_555 1_555
O6A Eu3A 1_555 1_555
H14A O6A 1_555 1_555
H15A O6A 1_555 1_555
O7A C7A 1_555 1_555
O8A Eu3A 1_555 1_555
H16A O8A 1_555 1_555
H17A O8A 1_555 1_555
O9A Eu1A 1_555 1_555
O10A Eu3A 1_555 1_555
H18A O10A 1_555 1_555
H19A O10A 1_555 1_555
O11A C8A 1_555 1_555
O12A Eu1A 1_555 1_555
O13A Eu2A 1_555 1_555
O14A Eu2A 1_555 1_555
O15A Eu3A 1_555 1_555
O16A Eu2A 1_555 1_555
O17A C15A 1_555 1_555
O18A Eu1A 1_555 1_555
O19A Eu1A 1_555 1_555
O20A Eu2A 1_555 1_555
O21A S1A 1_555 1_555
Eu1_2 O19A 1_555 1_555
Eu1A_2 O19 1_555 1_555
Eu2_2 O1A 1_555 1_555
Eu2A_2 O1 1_555 1_555
Eu3_2 O11A 1_555 1_555
Eu3A_2 O11 1_555 1_555
O1_2 Eu2A 1_555 1_555
O1A_2 Eu2 1_555 1_555
O3_2 Eu2A 1_555 1_555
O3A_2 Eu2 1_555 1_555
O11_2 Eu3A 1_555 1_555
O11A_2 Eu3 1_555 1_555
O19_2 Eu1A 1_555 1_555
O19A_2 Eu1 1_555 1_555
Eu2 O12 1_555 1_555
S1 O19 1_555 1_555
S1 O20 1_555 1_555
C1 O1 1_555 1_555
C6 N1 1_555 1_555
C7 O5 1_555 1_555
C8 O9 1_555 1_555
C9 N2 1_555 1_555
C13 N2 1_555 1_555
C14 O12 1_555 1_555
C14 O13 1_555 1_555
C15 O16 1_555 1_555
C20 N3 1_555 1_555
C21 O14 1_555 1_555
C21 O15 1_555 1_555
O3 Eu2A_2 1_555 1_555
C22A O23A 1_555 1_555
O22A Eu3A 1_555 1_555
Eu2A O12A 1_555 1_555
S1A O19A 1_555 1_555
S1A O20A 1_555 1_555
C1A O1A 1_555 1_555
C6A N1A 1_555 1_555
C7A O5A 1_555 1_555
C8A O9A 1_555 1_555
C9A N2A 1_555 1_555
C13A N2A 1_555 1_555
C14A O12A 1_555 1_555
C14A O13A 1_555 1_555
C15A O16A 1_555 1_555
C20A N3A 1_555 1_555
C21A O14A 1_555 1_555
C21A O15A 1_555 1_555
O3A Eu2_2 1_555 1_555
Eu1_2 O1_2 1_555 1_555
Eu1_2 O19_2 1_555 1_555
Eu1A_2 O1A_2 1_555 1_555
Eu1A_2 O19A_2 1_555 1_555

#END
