
#######################################################################
#
#                 Cambridge Crystallographic Data Centre
#                                CCDC 
#
#######################################################################
#
# If this CIF has been generated from an entry in the Cambridge 
# Structural Database, then it will include bibliographic, chemical, 
# crystal, experimental, refinement or atomic coordinate data resulting 
# from the CCDC's data processing and validation procedures.
#
#######################################################################

data_TOVDOZ
_symmetry_cell_setting           monoclinic
_symmetry_space_group_name_H-M   'C 2/c'
_symmetry_Int_Tables_number      15
_space_group_name_Hall           '-C 2yn'
loop_
_symmetry_equiv_pos_site_id
_symmetry_equiv_pos_as_xyz
1 x,y,z
2 -x,y,1/2-z
3 1/2+x,1/2+y,z
4 1/2-x,1/2+y,1/2-z
5 -x,-y,-z
6 x,-y,1/2+z
7 1/2-x,1/2-y,-z
8 1/2+x,1/2-y,1/2+z
_cell_length_a                   19.337(10)
_cell_length_b                   7.436(3)
_cell_length_c                   15.906(8)
_cell_angle_alpha                90
_cell_angle_beta                 118.425(9)
_cell_angle_gamma                90
_cell_volume                     2011.39
loop_
_atom_site_label
_atom_site_type_symbol
_atom_site_fract_x
_atom_site_fract_y
_atom_site_fract_z
Nd1 Nd 0.271071(9) 0.90212(2) 0.110532(12)
O1 O 0.2710(2) 1.0413(6) 0.2397(3)
O2 O 0.2118(2) 1.1195(4) 0.3249(3)
O3 O 0.17283(17) 0.7291(4) -0.0206(2)
O4 O 0.0454(2) 0.6525(8) -0.1051(3)
O5 O 0.1810(2) 1.1084(5) 0.0043(3)
O6 O 0.1651(2) 1.3539(5) -0.0840(3)
N1 N 0.1492(2) 0.8657(5) 0.1160(3)
C1 C 0.2141(3) 1.0390(6) 0.2574(3)
C2 C 0.1430(3) 0.9324(6) 0.1900(3)
C3 C 0.0765(3) 0.9131(6) 0.1996(4)
H1 H 0.0736 0.9615 0.2518
C4 C 0.0131(3) 0.8184(8) 0.1284(4)
H2 H -0.0325 0.8003 0.1333
C5 C 0.0186(3) 0.7518(7) 0.0504(4)
H3 H -0.0233 0.6916 0.0014
C6 C 0.0887(2) 0.7776(6) 0.0476(3)
C7 C 0.1018(2) 0.7140(6) -0.0332(3)
C8 C 0.2055(2) 1.2389(6) -0.0230(3)
O7 O 0.4031(2) 0.9056(6) 0.2301(3)
H4 H 0.424(4) 0.900(8) 0.2890(9)
H5 H 0.430(6) 0.97(2) 0.215(5)
O5F O 0.3190(2) 1.3916(5) -0.0043(3)
O6F O 0.3349(2) 1.1461(5) 0.0840(3)
C8F C 0.2945(2) 1.2611(6) 0.0230(3)
Nd1F Nd 0.228929(9) 0.59788(2) -0.110532(12)
O1F O 0.2290(2) 0.4587(6) -0.2397(3)
O2F O 0.2882(2) 0.3805(4) -0.3249(3)
O3F O 0.32717(17) 0.7709(4) 0.0206(2)
O4F O 0.4546(2) 0.8475(8) 0.1051(3)
N1F N 0.3508(2) 0.6343(5) -0.1160(3)
C1F C 0.2859(3) 0.4610(6) -0.2574(3)
C2F C 0.3570(3) 0.5676(6) -0.1900(3)
C3F C 0.4235(3) 0.5869(6) -0.1996(4)
H1F H 0.4264 0.5385 -0.2518
C4F C 0.4869(3) 0.6816(8) -0.1284(4)
H2F H 0.5325 0.6997 -0.1333
C5F C 0.4814(3) 0.7482(7) -0.0504(4)
H3F H 0.5233 0.8084 -0.0014
C6F C 0.4113(2) 0.7224(6) -0.0476(3)
C7F C 0.3982(2) 0.7860(6) 0.0332(3)
O7F O 0.0969(2) 0.5944(6) -0.2301(3)
H4F H 0.076(4) 0.600(8) -0.2890(9)
H5F H 0.070(6) 0.53(2) -0.215(5)
Nd1C Nd 0.228929(9) 1.40212(2) 0.389468(12)
Nd1E Nd 0.271071(9) 0.09788(2) -0.389468(12)
Nd1F_2 Nd 0.228929(9) 1.59788(2) -0.110532(12)
O2C O 0.2882(2) 0.6195(4) 0.1751(3)
O2E O 0.2118(2) 0.8805(4) -0.1751(3)
O5F_2 O 0.3190(2) 0.3916(5) -0.0043(3)
O6_2 O 0.1651(2) 0.3539(5) -0.0840(3)
loop_
_geom_bond_atom_site_label_1
_geom_bond_atom_site_label_2
_geom_bond_site_symmetry_1
_geom_bond_site_symmetry_2
Nd1 O1 1_555 1_555
O1 C1 1_555 1_555
O2 C1 1_555 1_555
O3 Nd1 1_555 1_555
O4 C7 1_555 1_555
O5 Nd1 1_555 1_555
O6 C8 1_555 1_555
N1 Nd1 1_555 1_555
C1 C2 1_555 1_555
C2 N1 1_555 1_555
C3 C2 1_555 1_555
H1 C3 1_555 1_555
C4 C3 1_555 1_555
H2 C4 1_555 1_555
C5 C4 1_555 1_555
H3 C5 1_555 1_555
C6 N1 1_555 1_555
C7 O3 1_555 1_555
C8 O5 1_555 1_555
O7 Nd1 1_555 1_555
H4 O7 1_555 1_555
H5 O7 1_555 1_555
O5F C8F 1_555 1_555
O6F Nd1 1_555 1_555
C8F C8 1_555 1_555
Nd1F O3 1_555 1_555
O1F Nd1F 1_555 1_555
O2F C1F 1_555 1_555
O3F Nd1 1_555 1_555
O4F C7F 1_555 1_555
N1F Nd1F 1_555 1_555
C1F O1F 1_555 1_555
C2F N1F 1_555 1_555
C3F C2F 1_555 1_555
H1F C3F 1_555 1_555
C4F C3F 1_555 1_555
H2F C4F 1_555 1_555
C5F C4F 1_555 1_555
H3F C5F 1_555 1_555
C6F N1F 1_555 1_555
C7F O3F 1_555 1_555
O7F Nd1F 1_555 1_555
H4F O7F 1_555 1_555
H5F O7F 1_555 1_555
Nd1C O2 1_555 1_555
Nd1E O2F 1_555 1_555
Nd1F_2 O6 1_555 1_555
O2C Nd1 1_555 1_555
O2E Nd1F 1_555 1_555
O5F_2 Nd1F 1_555 1_555
O6_2 Nd1F 1_555 1_555
C5 C6 1_555 1_555
C6 C7 1_555 1_555
O5F Nd1F_2 1_555 1_555
O6F C8F 1_555 1_555
Nd1F O3F 1_555 1_555
C1F C2F 1_555 1_555
C5F C6F 1_555 1_555
C6F C7F 1_555 1_555

#END
