
#######################################################################
#
#                 Cambridge Crystallographic Data Centre
#                                CCDC 
#
#######################################################################
#
# If this CIF has been generated from an entry in the Cambridge 
# Structural Database, then it will include bibliographic, chemical, 
# crystal, experimental, refinement or atomic coordinate data resulting 
# from the CCDC's data processing and validation procedures.
#
#######################################################################

data_TOVWEI
_symmetry_cell_setting           monoclinic
_symmetry_space_group_name_H-M   'P 21'
_symmetry_Int_Tables_number      4
_space_group_name_Hall           'P 2yb'
loop_
_symmetry_equiv_pos_site_id
_symmetry_equiv_pos_as_xyz
1 x,y,z
2 -x,1/2+y,-z
_cell_length_a                   14.744(7)
_cell_length_b                   16.525(8)
_cell_length_c                   19.870(9)
_cell_angle_alpha                90
_cell_angle_beta                 102.968(9)
_cell_angle_gamma                90
_cell_volume                     4717.75
loop_
_atom_site_label
_atom_site_type_symbol
_atom_site_fract_x
_atom_site_fract_y
_atom_site_fract_z
O23 O 0.642(3) 0.777(3) 0.9911(15)
C1 C 0.7979(8) 0.4264(8) 0.3504(6)
C2 C 0.7613(7) 0.4477(7) 0.4128(5)
C3 C 0.7985(7) 0.4073(7) 0.4739(5)
H1 H 0.8458 0.3696 0.4752
C4 C 0.7663(7) 0.4223(7) 0.5330(5)
C5 C 0.6968(7) 0.4780(7) 0.5303(5)
H2 H 0.6747 0.4892 0.5696
C6 C 0.6600(8) 0.5172(8) 0.4695(6)
C7 C 0.6896(7) 0.5034(7) 0.4093(5)
H3 H 0.6630 0.5300 0.3684
C8 C 0.7999(7) 0.3744(7) 0.5956(5)
C9 C 0.4827(5) 0.6346(5) 0.5138(4)
C10 C 0.4654(6) 0.6570(6) 0.5772(4)
H4 H 0.5074 0.6430 0.6179
C11 C 0.3855(7) 0.7003(6) 0.5798(5)
H5 H 0.3739 0.7153 0.6222
C12 C 0.3227(6) 0.7212(6) 0.5190(6)
H6 H 0.2692 0.7502 0.5208
C13 C 0.3400(6) 0.6988(6) 0.4556(5)
H7 H 0.2980 0.7128 0.4150
C14 C 0.4199(6) 0.6555(6) 0.4531(4)
H8 H 0.4315 0.6405 0.4106
C15 C 0.8977(8) 0.2000(7) 0.2193(6)
C16 C 0.8857(8) 0.1150(7) 0.2438(6)
C17 C 0.8053(8) 0.0980(7) 0.2671(6)
H9 H 0.7604 0.1373 0.2679
C18 C 0.7959(8) 0.0199(8) 0.2890(6)
C19 C 0.8578(8) -0.0390(8) 0.2864(6)
H10 H 0.8482 -0.0913 0.3005
C20 C 0.9377(8) -0.0196(7) 0.2617(6)
C21 C 0.9488(8) 0.0567(7) 0.2405(6)
H11 H 1.0007 0.0692 0.2232
C22 C 1.0082(9) -0.0840(7) 0.2592(6)
C23 C 0.6258(5) -0.0832(6) 0.3551(5)
C24 C 0.5400(6) -0.0461(6) 0.3312(5)
H12 H 0.5357 0.0004 0.3044
C25 C 0.4606(5) -0.0786(7) 0.3475(6)
H13 H 0.4032 -0.0538 0.3315
C26 C 0.4670(6) -0.1481(7) 0.3876(6)
H14 H 0.4139 -0.1698 0.3985
C27 C 0.5528(8) -0.1852(6) 0.4115(6)
H15 H 0.5571 -0.2317 0.4384
C28 C 0.6322(6) -0.1527(6) 0.3953(5)
H16 H 0.6896 -0.1775 0.4112
C29 C 0.8127(7) 0.3983(7) 0.1024(5)
C30 C 0.7498(7) 0.4218(7) 0.0352(5)
C31 C 0.6701(7) 0.4669(7) 0.0339(6)
H17 H 0.6535 0.4815 0.0747
C32 C 0.6165(8) 0.4893(7) -0.0288(6)
C33 C 0.6392(7) 0.4667(7) -0.0900(5)
H18 H 0.6021 0.4813 -0.1325
C34 C 0.7202(7) 0.4210(7) -0.0854(5)
C35 C 0.7741(7) 0.4013(6) -0.0240(5)
H19 H 0.8291 0.3731 -0.0222
C36 C 0.7481(7) 0.3953(7) -0.1498(5)
C37 C 0.4303(5) 0.6005(5) 0.0096(5)
C38 C 0.4134(7) 0.6311(7) 0.0708(5)
H20 H 0.4547 0.6201 0.1126
C39 C 0.3348(8) 0.6780(7) 0.0697(6)
H21 H 0.3235 0.6984 0.1106
C40 C 0.2731(6) 0.6944(7) 0.0073(7)
H22 H 0.2205 0.7258 0.0065
C41 C 0.2900(6) 0.6638(7) -0.0539(6)
H23 H 0.2487 0.6748 -0.0957
C42 C 0.3685(7) 0.6169(7) -0.0528(5)
H24 H 0.3798 0.5965 -0.0937
C43 C 1.0370(7) 0.4351(7) 0.2491(6)
C44 C 1.1264(7) 0.4809(7) 0.2507(6)
C45 C 1.2026(7) 0.4397(8) 0.2413(6)
H25 H 1.2014 0.3838 0.2359
C46 C 1.2823(9) 0.4841(8) 0.2402(7)
C47 C 1.2862(8) 0.5671(7) 0.2493(6)
H26 H 1.3407 0.5959 0.2502
C48 C 1.2070(7) 0.6052(7) 0.2568(6)
C49 C 1.1276(8) 0.5624(7) 0.2585(5)
H27 H 1.0748 0.5893 0.2651
C50 C 1.2090(8) 0.6933(7) 0.2640(6)
C51 C 1.4493(5) 0.3380(6) 0.2233(5)
C52 C 1.4467(7) 0.2540(7) 0.2202(6)
H28 H 1.3936 0.2264 0.2252
C53 C 1.5234(8) 0.2111(6) 0.2097(7)
H29 H 1.5216 0.1549 0.2076
C54 C 1.6028(7) 0.2523(8) 0.2022(7)
H30 H 1.6541 0.2236 0.1952
C55 C 1.6055(6) 0.3363(8) 0.2053(6)
H31 H 1.6586 0.3638 0.2003
C56 C 1.5287(7) 0.3792(6) 0.2159(6)
H32 H 1.5305 0.4354 0.2180
C57 C 0.9784(10) -0.2438(10) 0.4753(7)
H33 H 1.0354 -0.2191 0.4930
C58 C 0.8460(12) -0.3215(13) 0.4931(9)
H34 H 0.7957 -0.2915 0.5044
H35 H 0.8489 -0.3743 0.5137
H36 H 0.8358 -0.3268 0.4438
C59 C 0.9730(12) -0.2726(13) 0.5961(7)
H37 H 1.0309 -0.2437 0.6046
H38 H 0.9832 -0.3259 0.6155
H39 H 0.9297 -0.2442 0.6172
C60 C 0.8599(11) -0.3650(12) 0.2502(9)
H40 H 0.8637 -0.4202 0.2420
C61 C 0.7648(14) -0.2440(14) 0.2577(12)
H41 H 0.8042 -0.2354 0.3027
H42 H 0.7009 -0.2379 0.2602
H43 H 0.7796 -0.2050 0.2260
C62 C 0.6970(13) -0.3824(13) 0.2020(11)
H44 H 0.7132 -0.4244 0.1734
H45 H 0.6501 -0.3482 0.1747
H46 H 0.6734 -0.4062 0.2387
C63 C 1.0657(10) -0.4164(10) 0.4113(7)
H47 H 1.0226 -0.4374 0.3739
C64 C 1.0437(12) -0.5405(10) 0.4740(9)
H48 H 1.0019 -0.5532 0.4309
H49 H 1.0098 -0.5389 0.5100
H50 H 1.0913 -0.5812 0.4846
C65 C 1.1532(13) -0.4285(12) 0.5306(9)
H51 H 1.1826 -0.3808 0.5181
H52 H 1.1997 -0.4686 0.5480
H53 H 1.1201 -0.4153 0.5656
C66 C 1.0355(14) 0.1875(13) 0.0180(9)
H54 H 1.0781 0.1603 0.0521
C67 C 0.9714(16) 0.2084(14) -0.1034(10)
H55 H 0.9085 0.1897 -0.1089
H56 H 0.9925 0.1976 -0.1448
H57 H 0.9739 0.2655 -0.0945
C68 C 1.0874(16) 0.0895(14) -0.0587(11)
H58 H 1.1518 0.0963 -0.0362
H59 H 1.0820 0.0829 -0.1074
H60 H 1.0630 0.0425 -0.0405
C69 C 1.1641(10) 0.2116(8) 0.2244(8)
H61 H 1.1457 0.2372 0.2609
C70 C 1.2349(13) 0.1003(11) 0.1772(10)
H62 H 1.1905 0.0576 0.1636
H63 H 1.2965 0.0779 0.1894
H64 H 1.2310 0.1376 0.1396
C71 C 1.2361(12) 0.1083(10) 0.3081(9)
H65 H 1.2307 0.1487 0.3417
H66 H 1.2986 0.0876 0.3179
H67 H 1.1935 0.0649 0.3101
C72 C 1.0580(15) 0.4164(15) 0.0285(11)
H68 H 1.0061 0.3912 0.0013
C73 C 1.0705(17) 0.4893(16) -0.0714(12)
H69 H 1.0661 0.4423 -0.1003
H70 H 1.1161 0.5257 -0.0819
H71 H 1.0112 0.5159 -0.0794
C74 C 1.1901(16) 0.4998(16) 0.0463(12)
H72 H 1.1781 0.5514 0.0647
H73 H 1.2374 0.5056 0.0204
H74 H 1.2110 0.4624 0.0836
Mn1 Mn 0.86942(10) 0.37880(9) 0.25030(7)
Mn2 Mn 1.19152(11) -0.14864(10) 0.25337(8)
Mn3 Mn 1.01007(11) 0.30151(10) 0.13469(8)
Mn4 Mn 1.04045(11) -0.25249(10) 0.33905(8)
N1 N 0.5823(7) 0.5732(6) 0.4644(5)
N2 N 0.5643(7) 0.5885(7) 0.5192(6)
N3 N 0.7078(7) 0.0031(7) 0.3070(6)
N4 N 0.7095(8) -0.0609(9) 0.3369(7)
N5 N 0.5309(7) 0.5335(7) -0.0373(5)
N6 N 0.5116(8) 0.5519(8) 0.0162(6)
N7 N 1.3694(6) 0.4455(7) 0.2335(7)
N8 N 1.3631(7) 0.3731(8) 0.2308(7)
N9 N 1.2141(9) 0.1444(8) 0.2388(7)
N10 N 1.0311(11) 0.1661(10) -0.0454(7)
N11 N 1.0966(13) 0.4664(12) -0.0031(8)
N12 N 1.0870(9) -0.4609(8) 0.4688(7)
N13 N 0.9340(8) -0.2787(8) 0.5195(7)
N14 N 0.7810(9) -0.3333(8) 0.2317(10)
O1 O 0.8614(6) 0.3758(6) 0.3569(4)
O2 O 0.7660(6) 0.4602(7) 0.2950(4)
O3 O 0.8542(5) 0.2554(5) 0.2397(4)
O4 O 0.9544(5) 0.2062(4) 0.1817(4)
O5 O 0.7898(6) 0.4181(6) 0.1572(4)
O6 O 0.8832(5) 0.3608(6) 0.0997(4)
O7 O 0.9722(5) 0.4724(5) 0.2664(5)
O8 O 1.0296(5) 0.3633(4) 0.2324(4)
O9 O 0.7652(5) 0.3876(5) 0.6454(3)
O10 O 0.8635(6) 0.3257(5) 0.5943(4)
O11 O 0.7084(5) 0.4184(5) -0.2072(3)
O12 O 0.8173(5) 0.3517(6) -0.1434(4)
O13 O 1.1347(5) 0.7297(4) 0.2684(3)
O14 O 1.2790(5) 0.7343(5) 0.2617(4)
O15 O 1.0761(6) 0.3953(5) 0.0879(4)
O16 O 1.1410(5) 0.2417(6) 0.1692(4)
O17 O 0.9904(6) 0.2382(6) 0.0363(4)
O18 O 1.0801(6) -0.0673(5) 0.2415(5)
O19 O 0.9856(6) -0.1528(6) 0.2768(5)
O20 O 0.9479(6) -0.2427(6) 0.4129(5)
O21 O 1.0980(6) -0.3518(5) 0.4047(4)
O22 O 0.9352(7) -0.3298(6) 0.2790(5)
Mn2_2 Mn 1.19152(11) 0.85136(10) 0.25337(8)
Mn2A Mn 0.80848(11) 0.35136(10) -0.25337(8)
Mn2A_2 Mn 0.80848(11) 0.35136(10) 0.74663(8)
Mn4_2 Mn 1.04045(11) 0.74751(10) 0.33905(8)
Mn4A Mn 0.95955(11) 0.24751(10) 0.66095(8)
O9A O 1.2348(5) -0.1124(5) 0.3546(3)
O10A O 1.1365(6) -0.1743(5) 0.4057(4)
O11A O 1.2916(5) -0.0816(5) 0.2072(3)
O12A O 1.1827(5) -0.1483(6) 0.1434(4)
O13_2 O 1.1347(5) -0.2703(4) 0.2684(3)
O14_2 O 1.2790(5) -0.2657(5) 0.2617(4)
loop_
_geom_bond_atom_site_label_1
_geom_bond_atom_site_label_2
_geom_bond_site_symmetry_1
_geom_bond_site_symmetry_2
C1 C2 1_555 1_555
C2 C3 1_555 1_555
C3 H1 1_555 1_555
C4 C3 1_555 1_555
C5 C4 1_555 1_555
H2 C5 1_555 1_555
C6 C5 1_555 1_555
C7 C2 1_555 1_555
H3 C7 1_555 1_555
C8 C4 1_555 1_555
C9 C10 1_555 1_555
C10 H4 1_555 1_555
C11 C10 1_555 1_555
H5 C11 1_555 1_555
C12 C11 1_555 1_555
H6 C12 1_555 1_555
C13 C12 1_555 1_555
H7 C13 1_555 1_555
C14 C9 1_555 1_555
H8 C14 1_555 1_555
C15 C16 1_555 1_555
C16 C17 1_555 1_555
C17 H9 1_555 1_555
C18 C17 1_555 1_555
C19 C18 1_555 1_555
H10 C19 1_555 1_555
C20 C19 1_555 1_555
C21 C16 1_555 1_555
H11 C21 1_555 1_555
C22 C20 1_555 1_555
C23 C24 1_555 1_555
C24 H12 1_555 1_555
C25 C24 1_555 1_555
H13 C25 1_555 1_555
C26 C25 1_555 1_555
H14 C26 1_555 1_555
C27 C26 1_555 1_555
H15 C27 1_555 1_555
C28 C23 1_555 1_555
H16 C28 1_555 1_555
C29 C30 1_555 1_555
C30 C31 1_555 1_555
C31 H17 1_555 1_555
C32 C31 1_555 1_555
C33 C32 1_555 1_555
H18 C33 1_555 1_555
C34 C33 1_555 1_555
C35 C30 1_555 1_555
H19 C35 1_555 1_555
C36 C34 1_555 1_555
C37 C38 1_555 1_555
C38 H20 1_555 1_555
C39 C38 1_555 1_555
H21 C39 1_555 1_555
C40 C39 1_555 1_555
H22 C40 1_555 1_555
C41 C40 1_555 1_555
H23 C41 1_555 1_555
C42 C37 1_555 1_555
H24 C42 1_555 1_555
C43 C44 1_555 1_555
C44 C45 1_555 1_555
C45 H25 1_555 1_555
C46 C45 1_555 1_555
C47 C46 1_555 1_555
H26 C47 1_555 1_555
C48 C47 1_555 1_555
C49 C44 1_555 1_555
H27 C49 1_555 1_555
C50 C48 1_555 1_555
C51 C52 1_555 1_555
C52 H28 1_555 1_555
C53 C52 1_555 1_555
H29 C53 1_555 1_555
C54 C53 1_555 1_555
H30 C54 1_555 1_555
C55 C54 1_555 1_555
H31 C55 1_555 1_555
C56 C51 1_555 1_555
H32 C56 1_555 1_555
C57 H33 1_555 1_555
C58 H34 1_555 1_555
H35 C58 1_555 1_555
H36 C58 1_555 1_555
C59 H37 1_555 1_555
H38 C59 1_555 1_555
H39 C59 1_555 1_555
C60 H40 1_555 1_555
C61 H41 1_555 1_555
H42 C61 1_555 1_555
H43 C61 1_555 1_555
C62 H44 1_555 1_555
H45 C62 1_555 1_555
H46 C62 1_555 1_555
C63 H47 1_555 1_555
C64 H48 1_555 1_555
H49 C64 1_555 1_555
H50 C64 1_555 1_555
C65 H51 1_555 1_555
H52 C65 1_555 1_555
H53 C65 1_555 1_555
C66 H54 1_555 1_555
C67 H55 1_555 1_555
H56 C67 1_555 1_555
H57 C67 1_555 1_555
C68 H58 1_555 1_555
H59 C68 1_555 1_555
H60 C68 1_555 1_555
C69 H61 1_555 1_555
C70 H62 1_555 1_555
H63 C70 1_555 1_555
H64 C70 1_555 1_555
C71 H65 1_555 1_555
H66 C71 1_555 1_555
H67 C71 1_555 1_555
C72 H68 1_555 1_555
C73 H69 1_555 1_555
H70 C73 1_555 1_555
H71 C73 1_555 1_555
C74 H72 1_555 1_555
H73 C74 1_555 1_555
H74 C74 1_555 1_555
Mn1 O1 1_555 1_555
Mn2 O18 1_555 1_555
Mn3 O4 1_555 1_555
Mn4 O19 1_555 1_555
N1 C6 1_555 1_555
N2 C9 1_555 1_555
N3 C18 1_555 1_555
N4 C23 1_555 1_555
N5 C32 1_555 1_555
N6 C37 1_555 1_555
N7 C46 1_555 1_555
N8 C51 1_555 1_555
N9 C69 1_555 1_555
N10 C66 1_555 1_555
N11 C72 1_555 1_555
N12 C63 1_555 1_555
N13 C57 1_555 1_555
N14 C60 1_555 1_555
O1 C1 1_555 1_555
O2 C1 1_555 1_555
O3 C15 1_555 1_555
O4 C15 1_555 1_555
O5 C29 1_555 1_555
O6 C29 1_555 1_555
O7 C43 1_555 1_555
O8 C43 1_555 1_555
O9 C8 1_555 1_555
O10 C8 1_555 1_555
O11 C36 1_555 1_555
O12 C36 1_555 1_555
O13 C50 1_555 1_555
O14 C50 1_555 1_555
O15 C72 1_555 1_555
O16 C69 1_555 1_555
O17 C66 1_555 1_555
O18 C22 1_555 1_555
O19 C22 1_555 1_555
O20 C57 1_555 1_555
O21 C63 1_555 1_555
O22 C60 1_555 1_555
Mn2_2 O13 1_555 1_555
Mn2A O11 1_555 1_555
Mn2A_2 O9 1_555 1_555
Mn4_2 O13 1_555 1_555
Mn4A O10 1_555 1_555
O9A Mn2 1_555 1_555
O10A Mn4 1_555 1_555
O11A Mn2 1_555 1_555
O12A Mn2 1_555 1_555
O13_2 Mn2 1_555 1_555
O14_2 Mn2 1_555 1_555
C6 C7 1_555 1_555
C13 C14 1_555 1_555
C20 C21 1_555 1_555
C27 C28 1_555 1_555
C34 C35 1_555 1_555
C41 C42 1_555 1_555
C48 C49 1_555 1_555
C55 C56 1_555 1_555
C58 N13 1_555 1_555
C59 N13 1_555 1_555
C61 N14 1_555 1_555
C62 N14 1_555 1_555
C64 N12 1_555 1_555
C65 N12 1_555 1_555
C67 N10 1_555 1_555
C68 N10 1_555 1_555
C70 N9 1_555 1_555
C71 N9 1_555 1_555
C73 N11 1_555 1_555
C74 N11 1_555 1_555
Mn1 O2 1_555 1_555
Mn1 O3 1_555 1_555
Mn1 O5 1_555 1_555
Mn1 O7 1_555 1_555
Mn1 O8 1_555 1_555
Mn3 O6 1_555 1_555
Mn3 O8 1_555 1_555
Mn3 O15 1_555 1_555
Mn3 O16 1_555 1_555
Mn3 O17 1_555 1_555
Mn4 O20 1_555 1_555
Mn4 O21 1_555 1_555
Mn4 O22 1_555 1_555
Mn4 O13_2 1_555 1_555
N1 N2 1_555 1_555
N3 N4 1_555 1_555
N5 N6 1_555 1_555
N7 N8 1_555 1_555
O12 Mn2A 1_555 1_555
O14 Mn2_2 1_555 1_555

#END
