
#######################################################################
#
#                 Cambridge Crystallographic Data Centre
#                                CCDC 
#
#######################################################################
#
# If this CIF has been generated from an entry in the Cambridge 
# Structural Database, then it will include bibliographic, chemical, 
# crystal, experimental, refinement or atomic coordinate data resulting 
# from the CCDC's data processing and validation procedures.
#
#######################################################################

data_TOVWAE
_symmetry_cell_setting           rhombohedral
_symmetry_space_group_name_H-M   'R -3'
_symmetry_Int_Tables_number      148
_space_group_name_Hall           '-R 3'
loop_
_symmetry_equiv_pos_site_id
_symmetry_equiv_pos_as_xyz
1 x,y,z
2 -y,x-y,z
3 -x+y,-x,z
4 2/3+x,1/3+y,1/3+z
5 2/3-y,1/3+x-y,1/3+z
6 2/3-x+y,1/3-x,1/3+z
7 1/3+x,2/3+y,2/3+z
8 1/3-y,2/3+x-y,2/3+z
9 1/3-x+y,2/3-x,2/3+z
10 -x,-y,-z
11 y,-x+y,-z
12 x-y,x,-z
13 1/3-x,2/3-y,2/3-z
14 1/3+y,2/3-x+y,2/3-z
15 1/3+x-y,2/3+x,2/3-z
16 2/3-x,1/3-y,1/3-z
17 2/3+y,1/3-x+y,1/3-z
18 2/3+x-y,1/3+x,1/3-z
_cell_length_a                   22.004(12)
_cell_length_b                   22.004(12)
_cell_length_c                   20.67(2)
_cell_angle_alpha                90
_cell_angle_beta                 90
_cell_angle_gamma                120
_cell_volume                     8667.11
loop_
_atom_site_label
_atom_site_type_symbol
_atom_site_fract_x
_atom_site_fract_y
_atom_site_fract_z
C1 C 0.8249(7) -0.0503(6) 0.0549(5)
H1 H 0.7888 -0.0383 0.0494
H2 H 0.8120 -0.0932 0.0324
H3 H 0.8683 -0.0134 0.0379
C2 C 0.8001(4) -0.1313(3) 0.1516(6)
H4 H 0.8155 -0.1309 0.1952
H5 H 0.8126 -0.1590 0.1249
H6 H 0.7501 -0.1511 0.1511
N1 N 0.8337(3) -0.0598(3) 0.1269(4)
C3 C 0.8805(5) -0.0143(5) 0.2294(4)
H7 H 0.9063 -0.0385 0.2347
H8 H 0.8347 -0.0416 0.2483
H9 H 0.9050 0.0306 0.2504
C4 C 0.3884(5) 0.1164(6) -0.0957(4)
H10 H 0.3410 0.0832 -0.0999
C5 C 0.8726(3) -0.0033(3) 0.1539(4)
C6 C 0.7086(2) 0.0265(2) -0.0208(2)
H11 H 0.7458 0.0185 -0.0138
C7 C 0.6022(2) -0.0006(2) -0.0775(2)
H12 H 0.5665 -0.0288 -0.1061
O1 O 0.90135(18) 0.05687(17) 0.13317(18)
C8 C 0.6574(2) -0.0139(2) -0.06606(19)
C9 C 0.6615(3) -0.0709(2) -0.10269(19)
O2 O 0.74901(16) 0.16151(16) 0.10068(14)
O3 O 0.71991(21) -0.06869(15) -0.10353(14)
O4 O 0.60615(21) -0.11650(15) -0.13008(15)
Cu1 Cu 0.86309(2) 0.12843(2) 0.15236(2)
O5 O 0.80122(17) 0.09886(17) 0.07716(15)
C10 C 0.7049(2) 0.0793(2) 0.0145(2)
N2 N 0.5444(2) 0.0675(2) -0.0637(2)
C11 C 0.7570(2) 0.1167(2) 0.06831(18)
C12 C 0.6519(2) 0.0939(2) 0.0008(2)
H13 H 0.6501 0.1298 0.0228
N3 N 0.5610(3) 0.1302(3) -0.0551(2)
C13 C 0.6008(2) 0.0549(2) -0.0461(2)
C14 C 0.5267(4) 0.2156(4) -0.0779(3)
H14 H 0.5734 0.2491 -0.0708
C15 C 0.4373(4) 0.0944(4) -0.0830(3)
H15 H 0.4236 0.0470 -0.0817
C16 C 0.5061(3) 0.1456(3) -0.0725(3)
C17 C 0.4800(6) 0.2367(5) -0.0935(4)
H16 H 0.4949 0.2842 -0.0984
C18 C 0.4102(6) 0.1868(6) -0.1021(4)
H17 H 0.3777 0.2007 -0.1122
O2O O 0.91766(16) 0.17182(16) 0.23265(14)
O3J O 0.93131(15) 0.21140(26) 0.10353(14)
O4D O 0.78317(15) 0.05598(26) 0.20325(15)
Cu1H Cu 0.59867(3) -0.19642(2) -0.18097(2)
Cu1K Cu 0.73466(3) -0.13691(2) -0.15236(2)
Cu1O Cu 0.80358(2) 0.20490(2) 0.18097(2)
loop_
_geom_bond_atom_site_label_1
_geom_bond_atom_site_label_2
_geom_bond_site_symmetry_1
_geom_bond_site_symmetry_2
C1 H1 1_555 1_555
H2 C1 1_555 1_555
H3 C1 1_555 1_555
C2 H4 1_555 1_555
H5 C2 1_555 1_555
H6 C2 1_555 1_555
N1 C1 1_555 1_555
C3 H7 1_555 1_555
H8 C3 1_555 1_555
H9 C3 1_555 1_555
C4 H10 1_555 1_555
C5 N1 1_555 1_555
C6 H11 1_555 1_555
C7 H12 1_555 1_555
O1 C5 1_555 1_555
C8 C6 1_555 1_555
C9 C8 1_555 1_555
O2 C11 1_555 1_555
O3 C9 1_555 1_555
O4 C9 1_555 1_555
Cu1 O1 1_555 1_555
O5 Cu1 1_555 1_555
C10 C6 1_555 1_555
N2 N3 1_555 1_555
C11 O5 1_555 1_555
C12 C10 1_555 1_555
H13 C12 1_555 1_555
N3 C16 1_555 1_555
C13 C7 1_555 1_555
C14 H14 1_555 1_555
C15 C4 1_555 1_555
H15 C15 1_555 1_555
C16 C14 1_555 1_555
C17 C14 1_555 1_555
H16 C17 1_555 1_555
C18 C4 1_555 1_555
H17 C18 1_555 1_555
O2O Cu1 1_555 1_555
O3J Cu1 1_555 1_555
O4D Cu1 1_555 1_555
Cu1H O4 1_555 1_555
Cu1K O3 1_555 1_555
Cu1O O2 1_555 1_555
C2 N1 1_555 1_555
C3 C5 1_555 1_555
C7 C8 1_555 1_555
Cu1 Cu1O 1_555 1_555
C10 C11 1_555 1_555
N2 C13 1_555 1_555
C12 C13 1_555 1_555
C15 C16 1_555 1_555
C17 C18 1_555 1_555
Cu1H Cu1K 1_555 1_555

#END
