
#######################################################################
#
#                 Cambridge Crystallographic Data Centre
#                                CCDC 
#
#######################################################################
#
# If this CIF has been generated from an entry in the Cambridge 
# Structural Database, then it will include bibliographic, chemical, 
# crystal, experimental, refinement or atomic coordinate data resulting 
# from the CCDC's data processing and validation procedures.
#
#######################################################################

data_TOVWEG
_symmetry_cell_setting           monoclinic
_symmetry_space_group_name_H-M   'P 21/n'
_symmetry_Int_Tables_number      14
_space_group_name_Hall           '-P 2yn'
loop_
_symmetry_equiv_pos_site_id
_symmetry_equiv_pos_as_xyz
1 x,y,z
2 1/2-x,1/2+y,1/2-z
3 -x,-y,-z
4 1/2+x,1/2-y,1/2+z
_cell_length_a                   5.442(1)
_cell_length_b                   20.570(4)
_cell_length_c                   8.529(2)
_cell_angle_alpha                90
_cell_angle_beta                 93.18(3)
_cell_angle_gamma                90
_cell_volume                     953.283
loop_
_atom_site_label
_atom_site_type_symbol
_atom_site_fract_x
_atom_site_fract_y
_atom_site_fract_z
Cu1 Cu 0.00000 0.50000 0.50000
Cu2 Cu -0.49104(9) 0.48424(5) 0.67286(6)
Cu3 Cu 0.36006(9) 0.56308(5) -0.00965(6)
P1 P -0.0672(2) 0.5971(1) 0.2099(1)
S1 S -0.2941(2) 0.3601(1) 0.2931(1)
O1 O -0.3225(6) 0.5399(3) 0.5240(4)
O2 O 0.0850(5) 0.5571(3) 0.3295(3)
O3 O -0.3704(5) 0.5179(3) 0.8837(4)
O4 O 0.0351(5) 0.5909(3) 0.0477(3)
O5 O -0.0915(7) 0.3135(3) 0.3168(4)
O6 O -0.3426(5) 0.5802(3) 0.2033(3)
O7 O -0.4891(6) 0.3430(3) 0.3988(4)
O8 O -0.4014(6) 0.3543(3) 0.1252(4)
O9 O -0.2105(6) 0.4275(3) 0.3133(4)
N1 N 0.2786(9) 0.7584(4) 0.3798(6)
C1 C -0.0400(9) 0.6794(5) 0.2774(6)
C2 C 0.220(1) 0.7061(5) 0.2627(6)
H1 H -0.33(1) 0.570(4) 0.535(9)
H2 H -0.28(1) 0.533(5) 0.895(8)
H3 H 0.32(1) 0.740(4) 0.472(8)
H4 H 0.41(1) 0.778(4) 0.347(8)
H5 H 0.16(1) 0.783(4) 0.390(8)
H6 H -0.14(1) 0.701(4) 0.222(8)
H7 H -0.08(1) 0.674(4) 0.381(8)
H8 H 0.24(1) 0.719(4) 0.164(8)
H9 H 0.34(1) 0.670(4) 0.290(8)
O1B O 0.3225(6) 0.4601(3) 0.4760(4)
H1B H 0.33(1) 0.430(4) 0.465(9)
P1B P 0.0672(2) 0.4029(1) 0.7901(1)
O2B O -0.0850(5) 0.4429(3) 0.6705(3)
O4B O -0.0351(5) 0.4091(3) 0.9523(3)
O6B O 0.3426(5) 0.4198(3) 0.7967(3)
N1B N -0.2786(9) 0.2416(4) 0.6202(6)
C1B C 0.0400(9) 0.3206(5) 0.7226(6)
C2B C -0.220(1) 0.2939(5) 0.7373(6)
H3B H -0.32(1) 0.260(4) 0.528(8)
H4B H -0.41(1) 0.222(4) 0.653(8)
H5B H -0.16(1) 0.217(4) 0.610(8)
H6B H 0.14(1) 0.299(4) 0.778(8)
H7B H 0.08(1) 0.326(4) 0.619(8)
H8B H -0.24(1) 0.281(4) 0.836(8)
H9B H -0.34(1) 0.330(4) 0.710(8)
S1B S 0.2941(2) 0.6399(1) 0.7069(1)
O5B O 0.0915(7) 0.6865(3) 0.6832(4)
O7B O 0.4891(6) 0.6570(3) 0.6012(4)
O8B O 0.4014(6) 0.6457(3) 0.8748(4)
O9B O 0.2105(6) 0.5725(3) 0.6867(4)
Cu2B Cu 0.49104(9) 0.51576(5) 0.32714(6)
Cu3B Cu -0.36006(9) 0.43692(5) 1.00965(6)
O3B O 0.3704(5) 0.4821(3) 0.1163(4)
H2B H 0.28(1) 0.467(5) 0.105(8)
O1B_2 O -0.6775(6) 0.4601(3) 0.4760(4)
O6B_2 O -0.6574(5) 0.4198(3) 0.7967(3)
O3_2 O 0.6296(5) 0.5179(3) -0.1163(4)
O6_2 O 0.6574(5) 0.5802(3) 0.2033(3)
O8B_2 O 0.4014(6) 0.6457(3) -0.1252(4)
Cu2B_2 Cu -0.50896(9) 0.51576(5) 0.32714(6)
Cu3_2 Cu -0.63994(9) 0.56308(5) 0.99035(6)
Cu3_3 Cu -0.63994(9) 0.56308(5) -0.00965(6)
Cu3B_2 Cu -0.36006(9) 0.43692(5) 0.00965(6)
Cu2_2 Cu 0.50896(9) 0.48424(5) 0.67286(6)
Cu3B_3 Cu 0.63994(9) 0.43692(5) 1.00965(6)
Cu3_4 Cu 0.36006(9) 0.56308(5) 0.99035(6)
O1_2 O 0.6775(6) 0.5399(3) 0.5240(4)
O3B_2 O -0.6296(5) 0.4821(3) 1.1163(4)
O8_2 O -0.4014(6) 0.3543(3) 1.1252(4)
Cu3B_4 Cu 0.63994(9) 0.43692(5) 0.00965(6)
H1B_2 H -0.67(1) 0.430(4) 0.465(9)
H2_2 H 0.72(1) 0.533(5) -0.105(8)
H1_2 H 0.67(1) 0.570(4) 0.535(9)
H2B_2 H -0.72(1) 0.467(5) 1.105(8)
loop_
_geom_bond_atom_site_label_1
_geom_bond_atom_site_label_2
_geom_bond_site_symmetry_1
_geom_bond_site_symmetry_2
Cu1 O1 1_555 1_555
Cu2 O1 1_555 1_555
Cu3 O4 1_555 1_555
P1 O2 1_555 1_555
S1 O5 1_555 1_555
O1 H1 1_555 1_555
O2 Cu1 1_555 1_555
O3 Cu2 1_555 1_555
O4 P1 1_555 1_555
O6 P1 1_555 1_555
O7 S1 1_555 1_555
O8 S1 1_555 1_555
O9 Cu1 1_555 1_555
N1 C2 1_555 1_555
C1 P1 1_555 1_555
C2 C1 1_555 1_555
H2 O3 1_555 1_555
H3 N1 1_555 1_555
H4 N1 1_555 1_555
H5 N1 1_555 1_555
H6 C1 1_555 1_555
H7 C1 1_555 1_555
H8 C2 1_555 1_555
H9 C2 1_555 1_555
O1B Cu1 1_555 1_555
H1B O1B 1_555 1_555
P1B O2B 1_555 1_555
O2B Cu1 1_555 1_555
O4B P1B 1_555 1_555
O6B P1B 1_555 1_555
N1B C2B 1_555 1_555
C1B P1B 1_555 1_555
C2B C1B 1_555 1_555
H3B N1B 1_555 1_555
H4B N1B 1_555 1_555
H5B N1B 1_555 1_555
H6B C1B 1_555 1_555
H7B C1B 1_555 1_555
H8B C2B 1_555 1_555
H9B C2B 1_555 1_555
S1B O5B 1_555 1_555
O7B S1B 1_555 1_555
O8B S1B 1_555 1_555
O9B Cu1 1_555 1_555
Cu2B O2 1_555 1_555
Cu3B O3 1_555 1_555
O3B Cu3 1_555 1_555
H2B O3B 1_555 1_555
O1B_2 Cu2 1_555 1_555
O6B_2 Cu2 1_555 1_555
O3_2 Cu3 1_555 1_555
O6_2 Cu3 1_555 1_555
O8B_2 Cu3 1_555 1_555
Cu2B_2 O1 1_555 1_555
Cu3_2 O3 1_555 1_555
Cu3_3 O6 1_555 1_555
Cu3B_2 O8 1_555 1_555
Cu2_2 O1B 1_555 1_555
Cu3B_3 O6B 1_555 1_555
Cu3_4 O8B 1_555 1_555
O1_2 Cu2B 1_555 1_555
O3B_2 Cu3B 1_555 1_555
O8_2 Cu3B 1_555 1_555
Cu3B_4 O3B 1_555 1_555
H1B_2 O1B_2 1_555 1_555
H2_2 O3_2 1_555 1_555
H1_2 O1_2 1_555 1_555
H2B_2 O3B_2 1_555 1_555
Cu2 O2B 1_555 1_555
S1 O9 1_555 1_555
O6 Cu2B_2 1_555 1_555
O1B Cu2B 1_555 1_555
O4B Cu3B 1_555 1_555
O6B Cu2_2 1_555 1_555
S1B O9B 1_555 1_555
Cu2B O3B 1_555 1_555
Cu2B O6_2 1_555 1_555
Cu3B O6B_2 1_555 1_555
O1B_2 Cu2B_2 1_555 1_555
O3_2 Cu3B_4 1_555 1_555
Cu3_2 O3B_2 1_555 1_555
Cu2_2 O1_2 1_555 1_555

#END
