
#######################################################################
#
#                 Cambridge Crystallographic Data Centre
#                                CCDC 
#
#######################################################################
#
# If this CIF has been generated from an entry in the Cambridge 
# Structural Database, then it will include bibliographic, chemical, 
# crystal, experimental, refinement or atomic coordinate data resulting 
# from the CCDC's data processing and validation procedures.
#
#######################################################################

data_TOVXUZ
_symmetry_cell_setting           orthorhombic
_symmetry_space_group_name_H-M   'P 21 21 21'
_symmetry_Int_Tables_number      19
_space_group_name_Hall           'P 2ac 2ab'
loop_
_symmetry_equiv_pos_site_id
_symmetry_equiv_pos_as_xyz
1 x,y,z
2 1/2-x,-y,1/2+z
3 1/2+x,1/2-y,-z
4 -x,1/2+y,1/2-z
_cell_length_a                   5.14110(59)
_cell_length_b                   16.09270(80)
_cell_length_c                   22.70460(20)
_cell_angle_alpha                90
_cell_angle_beta                 90
_cell_angle_gamma                90
_cell_volume                     1878.45
loop_
_atom_site_label
_atom_site_type_symbol
_atom_site_fract_x
_atom_site_fract_y
_atom_site_fract_z
C1 C 0.3350(12) 0.6428(4) 0.4529(3)
C2 C 0.1881(12) 0.5731(4) 0.4202(3)
H1 H 0.0015 0.5854 0.4212
C3 C 0.2348(10) 0.4926(3) 0.4520(2)
C4 C 0.0597(9) 0.4677(4) 0.4951(2)
H2 H -0.0835 0.5008 0.504
C5 C 0.0983(14) 0.3934(5) 0.5251(2)
H3 H -0.0189 0.3768 0.5539
C6 C 0.3122(16) 0.3440(3) 0.5118(3)
H4 H 0.3381 0.2943 0.5319
C7 C 0.4874(12) 0.3689(4) 0.4687(3)
H5 H 0.6305 0.3358 0.4598
C8 C 0.4487(9) 0.4432(4) 0.4387(2)
H6 H 0.5659 0.4598 0.4099
C9 C 0.1708(13) 0.4210(5) 0.3085(3)
C10 C 0.0105(15) 0.3678(6) 0.3397(3)
H7 H -0.1327 0.3887 0.3599
C11 C 0.0631(15) 0.2840(6) 0.3408(4)
H8 H -0.0477 0.2488 0.3614
C12 C 0.2764(15) 0.2506(6) 0.3121(4)
C13 C 0.4342(16) 0.3052(6) 0.2807(3)
H9 H 0.5763 0.2843 0.2601
C14 C 0.3863(15) 0.3885(6) 0.2792(3)
H10 H 0.4975 0.4237 0.2587
C15 C 0.3306(19) 0.1584(6) 0.3137(5)
H11 H 0.2004 0.1312 0.3371
H12 H 0.4989 0.1489 0.3307
H13 H 0.3268 0.1366 0.2744
C16 C -0.5929(17) 0.5518(5) 0.6173(4)
H14 H -0.5166 0.5006 0.6042
H15 H -0.7008 0.5742 0.5866
H16 H -0.6965 0.5417 0.6517
C17 C -0.5411(18) 0.7140(6) 0.6445(4)
H17 H -0.4339 0.7626 0.6483
H18 H -0.644 0.7073 0.6794
H19 H -0.6537 0.7201 0.611
Li1 Li -0.1769(19) 0.6944(7) 0.5045(5)
N1 N 0.2756(9) 0.5741(3) 0.3588(2)
H20 H 0.4373 0.576 0.3516
O1 O 0.1955(8) 0.6906(3) 0.48398(19)
O2 O 0.5739(8) 0.6460(3) 0.4471(2)
O3 O -0.1584(8) 0.5397(3) 0.32171(19)
O4 O 0.2072(9) 0.5586(3) 0.25255(18)
O5 O -0.1922(9) 0.6385(3) 0.5786(2)
S1 S 0.1115(3) 0.52871(13) 0.30712(7)
S2 S -0.3398(4) 0.62475(15) 0.63465(8)
Li1_2 Li 0.8231(19) 0.6944(7) 0.5045(5)
Li1B Li 0.3231(19) 0.8056(7) 0.4955(5)
O1B O -0.3045(8) 0.8094(3) 0.51602(19)
O2_2 O -0.4261(8) 0.6460(3) 0.4471(2)
loop_
_geom_bond_atom_site_label_1
_geom_bond_atom_site_label_2
_geom_bond_site_symmetry_1
_geom_bond_site_symmetry_2
C1 C2 1_555 1_555
C2 H1 1_555 1_555
C3 C2 1_555 1_555
C4 C3 1_555 1_555
H2 C4 1_555 1_555
C5 C4 1_555 1_555
H3 C5 1_555 1_555
C6 C5 1_555 1_555
H4 C6 1_555 1_555
C7 C6 1_555 1_555
H5 C7 1_555 1_555
C8 C3 1_555 1_555
H6 C8 1_555 1_555
C9 C10 1_555 1_555
C10 H7 1_555 1_555
C11 C10 1_555 1_555
H8 C11 1_555 1_555
C12 C11 1_555 1_555
C13 C12 1_555 1_555
H9 C13 1_555 1_555
C14 C9 1_555 1_555
H10 C14 1_555 1_555
C15 C12 1_555 1_555
H11 C15 1_555 1_555
H12 C15 1_555 1_555
H13 C15 1_555 1_555
C16 H14 1_555 1_555
H15 C16 1_555 1_555
H16 C16 1_555 1_555
C17 H17 1_555 1_555
H18 C17 1_555 1_555
H19 C17 1_555 1_555
Li1 O1 1_555 1_555
N1 C2 1_555 1_555
H20 N1 1_555 1_555
O1 C1 1_555 1_555
O2 C1 1_555 1_555
O3 S1 1_555 1_555
O4 S1 1_555 1_555
O5 Li1 1_555 1_555
S1 C9 1_555 1_555
S2 C16 1_555 1_555
Li1_2 O2 1_555 1_555
Li1B O1 1_555 1_555
O1B Li1 1_555 1_555
O2_2 Li1 1_555 1_555
C7 C8 1_555 1_555
C13 C14 1_555 1_555
C17 S2 1_555 1_555
N1 S1 1_555 1_555
O5 S2 1_555 1_555

#END
