
#######################################################################
#
#                 Cambridge Crystallographic Data Centre
#                                CCDC 
#
#######################################################################
#
# If this CIF has been generated from an entry in the Cambridge 
# Structural Database, then it will include bibliographic, chemical, 
# crystal, experimental, refinement or atomic coordinate data resulting 
# from the CCDC's data processing and validation procedures.
#
#######################################################################

data_TOVYEK
_symmetry_cell_setting           triclinic
_symmetry_space_group_name_H-M   'P -1'
_symmetry_Int_Tables_number      2
_space_group_name_Hall           '-P 1'
loop_
_symmetry_equiv_pos_site_id
_symmetry_equiv_pos_as_xyz
1 x,y,z
2 -x,-y,-z
_cell_length_a                   6.05360(29)
_cell_length_b                   8.67650(29)
_cell_length_c                   18.04640(90)
_cell_angle_alpha                82.7072(28)
_cell_angle_beta                 80.3538(24)
_cell_angle_gamma                75.8537(29)
_cell_volume                     902.458
loop_
_atom_site_label
_atom_site_type_symbol
_atom_site_fract_x
_atom_site_fract_y
_atom_site_fract_z
K1 K 0.81650(15) -0.12572(11) 0.39620(6)
K2 K 0.92059(12) 0.36977(9) 0.41553(4)
S1 S 0.56532(14) 0.23311(9) 0.28891(4)
O1 O 0.5347(4) 0.6166(3) 0.40979(14)
O2 O 0.1607(4) 0.6154(3) 0.42839(12)
O3 O 0.7958(4) 0.2452(3) 0.29498(13)
O4 O 0.5171(4) 0.0776(2) 0.31675(13)
O5 O 1.1435(5) 0.0326(3) 0.42691(16)
H1 H 1.2121 -0.026 0.4608
H2 H 1.2459 0.0609 0.3939
O6 O 0.4680(5) -0.1994(3) 0.51995(14)
H3 H 0.5005 -0.2696 0.4887
H4 H 0.5296 -0.2329 0.5591
N1 N 0.3672(4) 0.3595(3) 0.32815(15)
C1 C 0.3564(6) 0.5931(3) 0.39018(18)
C2 C 0.3887(6) 0.5263(3) 0.31240(18)
C3 C 0.2148(5) 0.6294(4) 0.26409(17)
C4 C 0.2115(7) 0.7908(4) 0.2478(2)
C5 C 0.0503(7) 0.8903(4) 0.2071(2)
C6 C -0.1083(7) 0.8300(5) 0.1804(2)
C7 C -0.1060(7) 0.6709(4) 0.1952(2)
C8 C 0.0535(6) 0.5715(4) 0.23676(19)
C9 C 0.5574(5) 0.2485(4) 0.19019(18)
C10 C 0.7281(7) 0.2966(4) 0.1385(2)
C11 C 0.7164(8) 0.3027(6) 0.0623(2)
C12 C 0.5394(7) 0.2593(5) 0.0367(2)
C13 C 0.3706(8) 0.2126(5) 0.0898(2)
C14 C 0.3783(7) 0.2086(5) 0.1655(2)
C15 C 0.5323(10) 0.2625(7) -0.0481(3)
H5 H 0.6392 0.3215 -0.0759
H6 H 0.3798 0.3127 -0.0588
H7 H 0.5734 0.1553 -0.0625
H8 H 0.060(6) 0.464(4) 0.2436(18)
H9 H -0.210(7) 0.897(5) 0.156(2)
H10 H 0.063(6) 1.002(5) 0.191(2)
H11 H -0.212(6) 0.625(4) 0.176(2)
H12 H 0.559(7) 0.525(4) 0.283(2)
H13 H 0.861(7) 0.327(4) 0.155(2)
H14 H 0.321(6) 0.825(4) 0.2585(19)
H15 H 0.261(7) 0.178(5) 0.198(2)
H16 H 0.247(8) 0.178(5) 0.083(3)
H17 H 0.840(9) 0.325(6) 0.033(3)
K1_2 K -0.18350(15) 0.87428(11) 0.39620(6)
K1_3 K 0.81650(15) 0.87428(11) 0.39620(6)
K1A K 0.18350(15) 0.12572(11) 0.60380(6)
K2_2 K -0.07941(12) 0.36977(9) 0.41553(4)
K2A K 0.07941(12) -0.36977(9) 0.58447(4)
K2A_2 K 0.07941(12) 0.63023(9) 0.58447(4)
O1_2 O 0.5347(4) -0.3834(3) 0.40979(14)
O2_2 O 1.1607(4) -0.3846(3) 0.42839(12)
O2_3 O 1.1607(4) 0.6154(3) 0.42839(12)
O2A O 0.8393(4) 0.3846(3) 0.57161(12)
O6A O 0.5320(5) 0.1994(3) 0.48005(14)
N1_2 N 1.3672(4) 0.3595(3) 0.32815(15)
C4_2 C 1.2115(7) -0.2092(4) 0.2478(2)
loop_
_geom_bond_atom_site_label_1
_geom_bond_atom_site_label_2
_geom_bond_site_symmetry_1
_geom_bond_site_symmetry_2
K1 O4 1_555 1_555
K2 O1 1_555 1_555
S1 O3 1_555 1_555
O1 C1 1_555 1_555
O2 C1 1_555 1_555
O3 K2 1_555 1_555
O4 S1 1_555 1_555
O5 K1 1_555 1_555
H1 O5 1_555 1_555
H2 O5 1_555 1_555
O6 K1 1_555 1_555
H3 O6 1_555 1_555
H4 O6 1_555 1_555
N1 S1 1_555 1_555
C1 C2 1_555 1_555
C2 N1 1_555 1_555
C3 C2 1_555 1_555
C4 C3 1_555 1_555
C5 C4 1_555 1_555
C6 C5 1_555 1_555
C7 C6 1_555 1_555
C8 C3 1_555 1_555
C9 S1 1_555 1_555
C10 C9 1_555 1_555
C11 C10 1_555 1_555
C12 C11 1_555 1_555
C13 C12 1_555 1_555
C14 C9 1_555 1_555
C15 C12 1_555 1_555
H5 C15 1_555 1_555
H6 C15 1_555 1_555
H7 C15 1_555 1_555
H8 C8 1_555 1_555
H9 C6 1_555 1_555
H10 C5 1_555 1_555
H11 C7 1_555 1_555
H12 C2 1_555 1_555
H13 C10 1_555 1_555
H14 C4 1_555 1_555
H15 C14 1_555 1_555
H16 C13 1_555 1_555
H17 C11 1_555 1_555
K1_2 O2 1_555 1_555
K1_3 O1 1_555 1_555
K1A O6 1_555 1_555
K2_2 O2 1_555 1_555
K2A O6 1_555 1_555
K2A_2 O2 1_555 1_555
O1_2 K1 1_555 1_555
O2_2 K1 1_555 1_555
O2_3 K2 1_555 1_555
O2A K2 1_555 1_555
O6A K1 1_555 1_555
N1_2 K2 1_555 1_555
C4_2 K1 1_555 1_555
K2 O5 1_555 1_555
K2 O6A 1_555 1_555
N1 K2_2 1_555 1_555
C4 K1_2 1_555 1_555
C7 C8 1_555 1_555
C13 C14 1_555 1_555
K1_3 O2_3 1_555 1_555
K1A O6A 1_555 1_555

#END
