
#######################################################################
#
#                 Cambridge Crystallographic Data Centre
#                                CCDC 
#
#######################################################################
#
# If this CIF has been generated from an entry in the Cambridge 
# Structural Database, then it will include bibliographic, chemical, 
# crystal, experimental, refinement or atomic coordinate data resulting 
# from the CCDC's data processing and validation procedures.
#
#######################################################################

data_TOWGUJ
_symmetry_cell_setting           monoclinic
_symmetry_space_group_name_H-M   'P 21/n'
_symmetry_Int_Tables_number      14
_space_group_name_Hall           '-P 2yn'
loop_
_symmetry_equiv_pos_site_id
_symmetry_equiv_pos_as_xyz
1 x,y,z
2 1/2-x,1/2+y,1/2-z
3 -x,-y,-z
4 1/2+x,1/2-y,1/2+z
_cell_length_a                   14.0125(9)
_cell_length_b                   9.1278(5)
_cell_length_c                   17.3834(9)
_cell_angle_alpha                90
_cell_angle_beta                 111.550(6)
_cell_angle_gamma                90
_cell_volume                     2067.97
loop_
_atom_site_label
_atom_site_type_symbol
_atom_site_fract_x
_atom_site_fract_y
_atom_site_fract_z
C1 C 0.9122(4) -0.2114(5) 0.6158(3)
H1 H 0.9256 -0.2414 0.5696
C2 C 0.8527(4) -0.2960(5) 0.6437(3)
C3 C 0.8286(4) -0.2446(6) 0.7108(3)
H2 H 0.7858 -0.2990 0.7300
C4 C 0.8681(4) -0.1148(6) 0.7476(3)
H3 H 0.8496 -0.0807 0.7906
C5 C 0.9359(4) -0.0307(6) 0.7227(3)
C6 C 0.8172(4) -0.4430(6) 0.6070(3)
C7 C 1.0160(4) 0.0058(5) 0.6211(3)
H4 H 1.0365 -0.0526 0.5831
H5 H 1.0778 0.0349 0.6665
C8 C 0.9604(4) 0.1429(6) 0.5763(3)
C9 C 0.7149(4) 0.2573(6) 0.3287(3)
H6 H 0.6640 0.2081 0.3408
C10 C 0.7117(4) 0.2561(6) 0.2485(3)
H7 H 0.6591 0.2069 0.2077
C11 C 0.7854(4) 0.3270(6) 0.2288(3)
C12 C 0.8623(4) 0.3976(6) 0.2923(3)
H8 H 0.9144 0.4464 0.2816
C13 C 0.8615(4) 0.3953(6) 0.3710(3)
H9 H 0.9136 0.4434 0.4129
C14 C 0.7803(4) 0.3337(7) 0.1407(3)
H10 H 0.7604 0.4321 0.1199
H11 H 0.7268 0.2676 0.1075
C15 C 0.8778(4) 0.2953(6) 0.1288(3)
H12 H 0.8941 0.1932 0.1433
H13 H 0.9333 0.3543 0.1657
C16 C 0.8703(4) 0.3199(7) 0.0410(3)
H14 H 0.8167 0.2574 0.0046
H15 H 0.8503 0.4207 0.0258
C17 C 0.9676(4) 0.2899(6) 0.0274(3)
C18 C 0.9725(4) 0.1930(7) -0.0314(3)
H16 H 0.9137 0.1437 -0.0645
C19 C 1.0640(4) 0.1680(6) -0.0417(3)
H17 H 1.0647 0.1028 -0.0826
C20 C 1.1467(4) 0.3275(6) 0.0614(3)
H18 H 1.2069 0.3737 0.0946
C21 C 1.0582(4) 0.3595(6) 0.0735(3)
H19 H 1.0588 0.4285 0.1131
N1 N 0.9527(3) -0.0841(4) 0.6535(2)
N2 N 0.7887(3) 0.3267(4) 0.3897(2)
N3 N 1.1511(3) 0.2329(4) 0.0041(2)
O1 O 0.9805(3) 0.0813(4) 0.7572(2)
O2 O 0.8359(3) -0.4748(4) 0.5419(2)
O3 O 0.7783(3) -0.5274(4) 0.6412(2)
O4 O 0.8662(3) 0.1527(4) 0.56466(19)
O5 O 1.0101(3) 0.2299(4) 0.5523(2)
Zn1 Zn 0.79343(5) 0.32541(6) 0.50811(3)
N3C N 0.6511(3) 0.2671(4) 0.5041(2)
O2_2 O 0.8359(3) 0.5252(4) 0.5419(2)
Zn1_2 Zn 0.79343(5) -0.67459(6) 0.50811(3)
Zn1C Zn 1.29343(5) 0.17459(6) 0.00811(3)
O6 O 0.4608(4) 0.1171(5) 0.2788(3)
H20 H 0.473(4) 0.203(3) 0.273(4)
H21 H 0.405(3) 0.087(5) 0.247(4)
loop_
_geom_bond_atom_site_label_1
_geom_bond_atom_site_label_2
_geom_bond_site_symmetry_1
_geom_bond_site_symmetry_2
C1 H1 1_555 1_555
C2 C1 1_555 1_555
C3 C2 1_555 1_555
H2 C3 1_555 1_555
C4 C3 1_555 1_555
H3 C4 1_555 1_555
C5 C4 1_555 1_555
C6 C2 1_555 1_555
C7 H4 1_555 1_555
H5 C7 1_555 1_555
C8 C7 1_555 1_555
C9 H6 1_555 1_555
C10 C9 1_555 1_555
H7 C10 1_555 1_555
C11 C10 1_555 1_555
C12 C11 1_555 1_555
H8 C12 1_555 1_555
C13 C12 1_555 1_555
H9 C13 1_555 1_555
C14 C11 1_555 1_555
H10 C14 1_555 1_555
H11 C14 1_555 1_555
C15 C14 1_555 1_555
H12 C15 1_555 1_555
H13 C15 1_555 1_555
C16 C15 1_555 1_555
H14 C16 1_555 1_555
H15 C16 1_555 1_555
C17 C16 1_555 1_555
C18 C17 1_555 1_555
H16 C18 1_555 1_555
C19 C18 1_555 1_555
H17 C19 1_555 1_555
C20 H18 1_555 1_555
C21 C17 1_555 1_555
H19 C21 1_555 1_555
N1 C1 1_555 1_555
N2 C9 1_555 1_555
N3 C19 1_555 1_555
O1 C5 1_555 1_555
O2 C6 1_555 1_555
O3 C6 1_555 1_555
O4 C8 1_555 1_555
O5 C8 1_555 1_555
Zn1 N2 1_555 1_555
O6 H20 1_555 1_555
H21 O6 1_555 1_555
N3C Zn1 1_555 1_555
O2_2 Zn1 1_555 1_555
Zn1_2 O2 1_555 1_555
Zn1C N3 1_555 1_555
C5 N1 1_555 1_555
C7 N1 1_555 1_555
C13 N2 1_555 1_555
C20 C21 1_555 1_555
C20 N3 1_555 1_555
O4 Zn1 1_555 1_555

#END
