
#######################################################################
#
#                 Cambridge Crystallographic Data Centre
#                                CCDC 
#
#######################################################################
#
# If this CIF has been generated from an entry in the Cambridge 
# Structural Database, then it will include bibliographic, chemical, 
# crystal, experimental, refinement or atomic coordinate data resulting 
# from the CCDC's data processing and validation procedures.
#
#######################################################################

data_TOWGOD
_symmetry_cell_setting           orthorhombic
_symmetry_space_group_name_H-M   'P n a 21'
_symmetry_Int_Tables_number      33
_space_group_name_Hall           'P 2c -2n'
loop_
_symmetry_equiv_pos_site_id
_symmetry_equiv_pos_as_xyz
1 x,y,z
2 -x,-y,1/2+z
3 1/2+x,1/2-y,z
4 1/2-x,1/2+y,1/2+z
_cell_length_a                   11.5326(16)
_cell_length_b                   22.552(3)
_cell_length_c                   9.7122(13)
_cell_angle_alpha                90
_cell_angle_beta                 90
_cell_angle_gamma                90
_cell_volume                     2525.98
loop_
_atom_site_label
_atom_site_type_symbol
_atom_site_fract_x
_atom_site_fract_y
_atom_site_fract_z
Mn1 Mn 0.26519(4) 0.149573(19) 0.99933(6)
N1 N 0.2681(2) 0.07395(13) 1.0879(3)
N2 N 0.2084(2) 0.17547(12) 1.1735(3)
N3 N 0.3744(2) 0.11488(12) 0.8758(3)
N4 N 0.3022(2) 0.23182(12) 0.9711(3)
C1 C 0.2196(3) 0.07242(15) 1.2207(4)
C2 C 0.4306(3) 0.14392(14) 0.7769(4)
C3 C 0.2079(3) 0.23375(16) 1.1998(4)
C4 C 0.2093(3) 0.02324(16) 1.3063(4)
H1 H 0.2278 -0.0152 1.2730
C5 C 0.1422(3) 0.08652(14) 1.4896(4)
H2 H 0.1188 0.0909 1.5828
C6 C 0.3685(4) 0.30365(18) 1.1529(4)
H3 H 0.4283 0.2743 1.1754
H4 H 0.3431 0.3236 1.2373
H5 H 0.4004 0.3330 1.0888
C7 C 0.5100(3) 0.23753(16) 0.6795(4)
H6 H 0.5273 0.2158 0.5946
H7 H 0.5765 0.2350 0.7421
H8 H 0.4947 0.2792 0.6574
C8 C 0.2645(3) 0.27225(15) 1.0856(4)
C9 C 0.1463(3) 0.13605(16) 1.4038(4)
H9 H 0.1221 0.1738 1.4362
C10 C 0.1865(3) 0.12904(15) 1.2697(4)
C11 C 0.3973(3) 0.05004(14) 0.8968(4)
C12 C 0.3658(3) 0.25252(14) 0.8680(3)
C13 C 0.4032(3) 0.21046(14) 0.7487(4)
C14 C 0.3503(4) 0.01397(16) 0.7767(4)
H10 H 0.2686 0.0240 0.7617
H11 H 0.3572 -0.0284 0.7976
H12 H 0.3949 0.0231 0.6935
C15 C 0.5255(3) 0.03775(16) 0.9240(4)
H13 H 0.5713 0.0499 0.8438
H14 H 0.5366 -0.0047 0.9407
H15 H 0.5508 0.0602 1.0049
C16 C 0.1719(3) 0.03095(16) 1.4402(4)
H16 H 0.1665 -0.0025 1.4994
C17 C 0.3328(3) 0.03093(14) 1.0290(3)
C18 C 0.1732(4) 0.31616(17) 1.0332(4)
H17 H 0.2082 0.3422 0.9638
H18 H 0.1447 0.3401 1.1103
H19 H 0.1085 0.2943 0.9920
O1 O 0.3916(2) 0.30624(10) 0.8542(3)
O2 O 0.4997(2) 0.12002(11) 0.6964(3)
O3 O 0.0964(2) 0.13546(10) 0.8903(3)
H20 H 0.0646 0.1658 0.8340
C19 C 0.0366(3) 0.07974(15) 0.9066(5)
H21 H 0.0805 0.0483 0.8606
H22 H -0.0408 0.0826 0.8656
H23 H 0.0294 0.0705 1.0049
O4 O 0.3444(2) -0.01996(10) 1.0721(3)
O5 O 0.1699(2) 0.25775(11) 1.3049(3)
C20 C 0.3009(3) 0.20914(16) 0.6458(4)
H24 H 0.2811 0.2497 0.6186
H25 H 0.2335 0.1905 0.6894
H26 H 0.3232 0.1863 0.5640
C21 C 0.4798(3) 0.13437(18) 0.3426(4)
H27 H 0.4820 0.1142 0.2532
H28 H 0.4502 0.1748 0.3304
H29 H 0.4289 0.1125 0.4054
O6 O 0.5931(2) 0.13671(10) 0.3985(3)
H30 H 0.6545 0.1547 0.3484
C22 C 0.8617(4) 0.1131(2) 0.5517(5)
H31 H 0.8270 0.0932 0.4721
H32 H 0.9143 0.0856 0.5990
H33 H 0.9053 0.1479 0.5206
O7 O 0.7725(2) 0.13132(12) 0.6441(3)
H34 H 0.7846 0.1544 0.7247
Li1 Li 0.6214(5) 0.1021(3) 0.5814(6)
O4A O 0.6556(2) 0.01996(10) 0.5721(3)
Li1A Li 0.3786(5) -0.1021(3) 1.0814(6)
loop_
_geom_bond_atom_site_label_1
_geom_bond_atom_site_label_2
_geom_bond_site_symmetry_1
_geom_bond_site_symmetry_2
Mn1 N1 1_555 1_555
N1 C1 1_555 1_555
N2 Mn1 1_555 1_555
N3 Mn1 1_555 1_555
N4 Mn1 1_555 1_555
C1 C4 1_555 1_555
C2 N3 1_555 1_555
C3 N2 1_555 1_555
C4 H1 1_555 1_555
C5 H2 1_555 1_555
C6 H3 1_555 1_555
H4 C6 1_555 1_555
H5 C6 1_555 1_555
C7 H6 1_555 1_555
H7 C7 1_555 1_555
H8 C7 1_555 1_555
C8 N4 1_555 1_555
C9 C5 1_555 1_555
H9 C9 1_555 1_555
C10 N2 1_555 1_555
C11 N3 1_555 1_555
C12 N4 1_555 1_555
C13 C2 1_555 1_555
C14 C11 1_555 1_555
H10 C14 1_555 1_555
H11 C14 1_555 1_555
H12 C14 1_555 1_555
C15 C11 1_555 1_555
H13 C15 1_555 1_555
H14 C15 1_555 1_555
H15 C15 1_555 1_555
C16 C4 1_555 1_555
H16 C16 1_555 1_555
C17 N1 1_555 1_555
C18 C8 1_555 1_555
H17 C18 1_555 1_555
H18 C18 1_555 1_555
H19 C18 1_555 1_555
O1 C12 1_555 1_555
O2 C2 1_555 1_555
O3 Mn1 1_555 1_555
H20 O3 1_555 1_555
C19 O3 1_555 1_555
H21 C19 1_555 1_555
H22 C19 1_555 1_555
H23 C19 1_555 1_555
O4 C17 1_555 1_555
O5 C3 1_555 1_555
C20 C13 1_555 1_555
H24 C20 1_555 1_555
H25 C20 1_555 1_555
H26 C20 1_555 1_555
C21 H27 1_555 1_555
H28 C21 1_555 1_555
H29 C21 1_555 1_555
O6 C21 1_555 1_555
H30 O6 1_555 1_555
C22 H31 1_555 1_555
H32 C22 1_555 1_555
H33 C22 1_555 1_555
O7 C22 1_555 1_555
H34 O7 1_555 1_555
Li1 O2 1_555 1_555
O4A Li1 1_555 1_555
Li1A O4 1_555 1_555
C1 C10 1_555 1_555
C3 C8 1_555 1_555
C5 C16 1_555 1_555
C6 C8 1_555 1_555
C7 C13 1_555 1_555
C9 C10 1_555 1_555
C11 C17 1_555 1_555
C12 C13 1_555 1_555
O6 Li1 1_555 1_555
O7 Li1 1_555 1_555

#END
