
#######################################################################
#
#                 Cambridge Crystallographic Data Centre
#                                CCDC 
#
#######################################################################
#
# If this CIF has been generated from an entry in the Cambridge 
# Structural Database, then it will include bibliographic, chemical, 
# crystal, experimental, refinement or atomic coordinate data resulting 
# from the CCDC's data processing and validation procedures.
#
#######################################################################

data_TOWLUO
_symmetry_cell_setting           cubic
_symmetry_space_group_name_H-M   'P a -3'
_symmetry_Int_Tables_number      205
_space_group_name_Hall           '-P 2ac 2ab 3'
loop_
_symmetry_equiv_pos_site_id
_symmetry_equiv_pos_as_xyz
1 x,y,z
2 z,x,y
3 y,z,x
4 1/2-y,-z,1/2+x
5 1/2+z,1/2-x,-y
6 -y,1/2+z,1/2-x
7 1/2-z,-x,1/2+y
8 -z,1/2+x,1/2-y
9 1/2+y,1/2-z,-x
10 1/2-x,-y,1/2+z
11 1/2+x,1/2-y,-z
12 -x,1/2+y,1/2-z
13 -x,-y,-z
14 -z,-x,-y
15 -y,-z,-x
16 1/2+y,z,1/2-x
17 1/2-z,1/2+x,y
18 y,1/2-z,1/2+x
19 1/2+z,x,1/2-y
20 z,1/2-x,1/2+y
21 1/2-y,1/2+z,x
22 1/2+x,y,1/2-z
23 1/2-x,1/2+y,z
24 x,1/2-y,1/2+z
_cell_length_a                   19.627(7)
_cell_length_b                   19.627(7)
_cell_length_c                   19.627(7)
_cell_angle_alpha                90
_cell_angle_beta                 90
_cell_angle_gamma                90
_cell_volume                     7560.7
loop_
_atom_site_label
_atom_site_type_symbol
_atom_site_fract_x
_atom_site_fract_y
_atom_site_fract_z
Fe1 Fe 0.77645(4) 0.39634(4) 0.10552(4)
Co1 Co 0.5000 0.5000 0.0000
O1 O 0.4877(2) 0.3228(2) 0.4048(2)
O2 O 0.4923(2) 0.3736(2) 0.3023(2)
O3 O 0.8064(2) 0.4203(2) 0.2648(2)
O4 O 0.7218(2) 0.3895(2) 0.1947(2)
O5 O 0.85440(19) 0.35440(19) 0.14560(19)
O6 O 0.6953(2) 0.4332(2) 0.0551(2)
O7 O 0.5998(2) 0.4715(3) 0.0134(3)
C1 C 0.5190(3) 0.3528(3) 0.3572(3)
C2 C 0.5937(3) 0.3653(3) 0.3651(3)
C3 C 0.6229(4) 0.3667(4) 0.4296(4)
H1 H 0.5958 0.3591 0.4690
C4 C 0.6923(4) 0.3794(6) 0.4359(4)
H2 H 0.7126 0.3806 0.4798
C5 C 0.7319(4) 0.3903(5) 0.3790(4)
H3 H 0.7791 0.3997 0.3839
C6 C 0.7028(3) 0.3876(3) 0.3143(3)
C7 C 0.6329(3) 0.3761(3) 0.3076(3)
H4 H 0.6125 0.3757 0.2638
C8 C 0.7463(3) 0.3997(3) 0.2529(3)
C9 C 0.6438(5) 0.4657(5) 0.0607(5)
C10 C 0.6337(5) 0.5095(5) 0.1256(5)
H5 H 0.6618 0.4911 0.1626
H6 H 0.5857 0.5086 0.1390
H7 H 0.6475 0.5566 0.1161
H8 H 0.8262(2) 0.3262(2) 0.1738(2)
Fe1E Fe 0.60366(4) 0.60552(4) -0.27645(4)
O1E O 0.6772(2) 0.9048(2) 0.0123(2)
O2E O 0.6264(2) 0.8023(2) 0.0077(2)
O3E O 0.5797(2) 0.7648(2) -0.3064(2)
O4E O 0.6105(2) 0.6947(2) -0.2218(2)
O6E O 0.5668(2) 0.5551(2) -0.1953(2)
O7E O 0.5285(3) 0.5134(3) -0.0998(2)
C1E C 0.6472(3) 0.8572(3) -0.0190(3)
C2E C 0.6347(3) 0.8651(3) -0.0937(3)
C3E C 0.6333(4) 0.9296(4) -0.1229(4)
H1E H 0.6409 0.9690 -0.0958
C4E C 0.6206(6) 0.9359(4) -0.1923(4)
H2E H 0.6194 0.9798 -0.2126
C5E C 0.6097(5) 0.8790(4) -0.2319(4)
H3E H 0.6003 0.8839 -0.2791
C6E C 0.6124(3) 0.8143(3) -0.2028(3)
C7E C 0.6239(3) 0.8076(3) -0.1329(3)
H4E H 0.6243 0.7638 -0.1125
C8E C 0.6003(3) 0.7529(3) -0.2463(3)
C9E C 0.5343(5) 0.5607(5) -0.1438(5)
C10E C 0.4905(5) 0.6256(5) -0.1337(5)
H5E H 0.5089 0.6626 -0.1618
H6E H 0.4914 0.6390 -0.0857
H7E H 0.4434 0.6161 -0.1475
Fe1F Fe 0.39448(4) 0.22355(4) -0.10366(4)
O1F O 0.0952(2) 0.5123(2) -0.1772(2)
O2F O 0.1977(2) 0.5077(2) -0.1264(2)
O3F O 0.2352(2) 0.1936(2) -0.0797(2)
O4F O 0.3053(2) 0.2782(2) -0.1105(2)
O6F O 0.4449(2) 0.3047(2) -0.0668(2)
O7F O 0.4866(3) 0.4002(2) -0.0285(3)
C1F C 0.1428(3) 0.4810(3) -0.1472(3)
C2F C 0.1349(3) 0.4063(3) -0.1347(3)
C3F C 0.0704(4) 0.3771(4) -0.1333(4)
H1F H 0.0310 0.4042 -0.1409
C4F C 0.0641(4) 0.3077(4) -0.1206(6)
H2F H 0.0202 0.2874 -0.1194
C5F C 0.1210(4) 0.2681(4) -0.1097(5)
H3F H 0.1161 0.2209 -0.1003
C6F C 0.1857(3) 0.2972(3) -0.1124(3)
C7F C 0.1924(3) 0.3671(3) -0.1239(3)
H4F H 0.2362 0.3875 -0.1243
C8F C 0.2471(3) 0.2537(3) -0.1003(3)
C9F C 0.4393(5) 0.3562(5) -0.0343(5)
C10F C 0.3744(5) 0.3663(5) 0.0095(5)
H5F H 0.3374 0.3382 -0.0089
H6F H 0.3610 0.4143 0.0086
H7F H 0.3839 0.3525 0.0566
Fe1L Fe 0.22355(4) 0.60366(4) -0.10552(4)
O1L O 0.5123(2) 0.6772(2) -0.4048(2)
O2L O 0.5077(2) 0.6264(2) -0.3023(2)
O3L O 0.1936(2) 0.5797(2) -0.2648(2)
O4L O 0.2782(2) 0.6105(2) -0.1947(2)
O5L O 0.14560(19) 0.64560(19) -0.14560(19)
O6L O 0.3047(2) 0.5668(2) -0.0551(2)
O7L O 0.4002(2) 0.5285(3) -0.0134(3)
C1L C 0.4810(3) 0.6472(3) -0.3572(3)
C2L C 0.4063(3) 0.6347(3) -0.3651(3)
C3L C 0.3771(4) 0.6333(4) -0.4296(4)
H1L H 0.4042 0.6409 -0.4690
C4L C 0.3077(4) 0.6206(6) -0.4359(4)
H2L H 0.2874 0.6194 -0.4798
C5L C 0.2681(4) 0.6097(5) -0.3790(4)
H3L H 0.2209 0.6003 -0.3839
C6L C 0.2972(3) 0.6124(3) -0.3143(3)
C7L C 0.3671(3) 0.6239(3) -0.3076(3)
H4L H 0.3875 0.6243 -0.2638
C8L C 0.2537(3) 0.6003(3) -0.2529(3)
C9L C 0.3562(5) 0.5343(5) -0.0607(5)
C10L C 0.3663(5) 0.4905(5) -0.1256(5)
H5L H 0.3382 0.5089 -0.1626
H6L H 0.4143 0.4914 -0.1390
H7L H 0.3525 0.4434 -0.1161
H8L H 0.1738(2) 0.6738(2) -0.1738(2)
Fe1Q Fe 0.39634(4) 0.39448(4) 0.27645(4)
O1Q O 0.3228(2) 0.0952(2) -0.0123(2)
O2Q O 0.3736(2) 0.1977(2) -0.0077(2)
O3Q O 0.4203(2) 0.2352(2) 0.3064(2)
O4Q O 0.3895(2) 0.3053(2) 0.2218(2)
O6Q O 0.4332(2) 0.4449(2) 0.1953(2)
O7Q O 0.4715(3) 0.4866(3) 0.0998(2)
C1Q C 0.3528(3) 0.1428(3) 0.0190(3)
C2Q C 0.3653(3) 0.1349(3) 0.0937(3)
C3Q C 0.3667(4) 0.0704(4) 0.1229(4)
H1Q H 0.3591 0.0310 0.0958
C4Q C 0.3794(6) 0.0641(4) 0.1923(4)
H2Q H 0.3806 0.0202 0.2126
C5Q C 0.3903(5) 0.1210(4) 0.2319(4)
H3Q H 0.3997 0.1161 0.2791
C6Q C 0.3876(3) 0.1857(3) 0.2028(3)
C7Q C 0.3761(3) 0.1924(3) 0.1329(3)
H4Q H 0.3757 0.2362 0.1125
C8Q C 0.3997(3) 0.2471(3) 0.2463(3)
C9Q C 0.4657(5) 0.4393(5) 0.1438(5)
C10Q C 0.5095(5) 0.3744(5) 0.1337(5)
H5Q H 0.4911 0.3374 0.1618
H6Q H 0.5086 0.3610 0.0857
H7Q H 0.5566 0.3839 0.1475
Fe1R Fe 0.60552(4) 0.77645(4) 0.10366(4)
O1R O 0.9048(2) 0.4877(2) 0.1772(2)
O2R O 0.8023(2) 0.4923(2) 0.1264(2)
O3R O 0.7648(2) 0.8064(2) 0.0797(2)
O4R O 0.6947(2) 0.7218(2) 0.1105(2)
O6R O 0.5551(2) 0.6953(2) 0.0668(2)
O7R O 0.5134(3) 0.5998(2) 0.0285(3)
C1R C 0.8572(3) 0.5190(3) 0.1472(3)
C2R C 0.8651(3) 0.5937(3) 0.1347(3)
C3R C 0.9296(4) 0.6229(4) 0.1333(4)
H1R H 0.9690 0.5958 0.1409
C4R C 0.9359(4) 0.6923(4) 0.1206(6)
H2R H 0.9798 0.7126 0.1194
C5R C 0.8790(4) 0.7319(4) 0.1097(5)
H3R H 0.8839 0.7791 0.1003
C6R C 0.8143(3) 0.7028(3) 0.1124(3)
C7R C 0.8076(3) 0.6329(3) 0.1239(3)
H4R H 0.7638 0.6125 0.1243
C8R C 0.7529(3) 0.7463(3) 0.1003(3)
C9R C 0.5607(5) 0.6438(5) 0.0343(5)
C10R C 0.6256(5) 0.6337(5) -0.0095(5)
H5R H 0.6626 0.6618 0.0089
H6R H 0.6390 0.5857 -0.0086
H7R H 0.6161 0.6475 -0.0566
Fe1D Fe 0.60552(4) 0.72355(4) -0.39634(4)
Fe1G Fe 0.89448(4) 0.27645(4) 0.10366(4)
Fe1H Fe 0.89634(4) 0.39448(4) 0.22355(4)
Fe1J Fe 0.27645(4) 0.10366(4) -0.10552(4)
Fe1P Fe 0.39448(4) 0.27645(4) 0.39634(4)
Fe1S Fe 0.10552(4) 0.72355(4) -0.10366(4)
Fe1T Fe 0.10366(4) 0.60552(4) -0.22355(4)
Fe1V Fe 0.72355(4) 0.89634(4) 0.10552(4)
O1A O 0.4048(2) 0.4877(2) 0.3228(2)
O1C O 0.1772(2) 0.5952(2) -0.0123(2)
O1K O 0.5123(2) 0.8228(2) 0.0952(2)
O1M O 0.5952(2) 0.5123(2) -0.3228(2)
O1O O 0.8228(2) 0.4048(2) 0.0123(2)
O1W O 0.4877(2) 0.1772(2) -0.0952(2)
O3B O 0.4203(2) 0.2648(2) -0.1936(2)
O3G O 0.7352(2) 0.3064(2) 0.0797(2)
O3I O 0.6936(2) 0.5797(2) -0.2352(2)
O3N O 0.5797(2) 0.7352(2) 0.1936(2)
O3S O 0.2648(2) 0.6936(2) -0.0797(2)
O3U O 0.3064(2) 0.4203(2) 0.2352(2)
O5B O 0.35440(19) 0.14560(19) -0.14560(19)
O5D O 0.64560(19) 0.64560(19) -0.35440(19)
O5N O 0.64560(19) 0.85440(19) 0.14560(19)
O5P O 0.35440(19) 0.35440(19) 0.35440(19)
loop_
_geom_bond_atom_site_label_1
_geom_bond_atom_site_label_2
_geom_bond_site_symmetry_1
_geom_bond_site_symmetry_2
Fe1 O4 1_555 1_555
Co1 O7 1_555 1_555
O1 C1 1_555 1_555
O2 C1 1_555 1_555
O3 C8 1_555 1_555
O4 C8 1_555 1_555
O5 Fe1 1_555 1_555
O6 Fe1 1_555 1_555
O7 C9 1_555 1_555
C1 C2 1_555 1_555
C2 C3 1_555 1_555
C3 H1 1_555 1_555
C4 C3 1_555 1_555
H2 C4 1_555 1_555
C5 C4 1_555 1_555
H3 C5 1_555 1_555
C6 C5 1_555 1_555
C7 C2 1_555 1_555
H4 C7 1_555 1_555
C8 C6 1_555 1_555
C9 O6 1_555 1_555
C10 C9 1_555 1_555
H5 C10 1_555 1_555
H6 C10 1_555 1_555
H7 C10 1_555 1_555
H8 O5 1_555 1_555
Fe1E O4E 1_555 1_555
O1E C1E 1_555 1_555
O2E C1E 1_555 1_555
O3E C8E 1_555 1_555
O4E C8E 1_555 1_555
O6E Fe1E 1_555 1_555
O7E Co1 1_555 1_555
C1E C2E 1_555 1_555
C2E C3E 1_555 1_555
C3E H1E 1_555 1_555
C4E C3E 1_555 1_555
H2E C4E 1_555 1_555
C5E C4E 1_555 1_555
H3E C5E 1_555 1_555
C6E C5E 1_555 1_555
C7E C2E 1_555 1_555
H4E C7E 1_555 1_555
C8E C6E 1_555 1_555
C9E O6E 1_555 1_555
C10E C9E 1_555 1_555
H5E C10E 1_555 1_555
H6E C10E 1_555 1_555
H7E C10E 1_555 1_555
Fe1F O4F 1_555 1_555
O1F C1F 1_555 1_555
O2F C1F 1_555 1_555
O3F C8F 1_555 1_555
O4F C8F 1_555 1_555
O6F Fe1F 1_555 1_555
O7F Co1 1_555 1_555
C1F C2F 1_555 1_555
C2F C3F 1_555 1_555
C3F H1F 1_555 1_555
C4F C3F 1_555 1_555
H2F C4F 1_555 1_555
C5F C4F 1_555 1_555
H3F C5F 1_555 1_555
C6F C5F 1_555 1_555
C7F C2F 1_555 1_555
H4F C7F 1_555 1_555
C8F C6F 1_555 1_555
C9F O6F 1_555 1_555
C10F C9F 1_555 1_555
H5F C10F 1_555 1_555
H6F C10F 1_555 1_555
H7F C10F 1_555 1_555
Fe1L O2F 1_555 1_555
O1L C1L 1_555 1_555
O2L Fe1E 1_555 1_555
O3L C8L 1_555 1_555
O4L Fe1L 1_555 1_555
O5L Fe1L 1_555 1_555
O6L Fe1L 1_555 1_555
O7L Co1 1_555 1_555
C1L O2L 1_555 1_555
C2L C1L 1_555 1_555
C3L C2L 1_555 1_555
H1L C3L 1_555 1_555
C4L C3L 1_555 1_555
H2L C4L 1_555 1_555
C5L C4L 1_555 1_555
H3L C5L 1_555 1_555
C6L C5L 1_555 1_555
C7L C2L 1_555 1_555
H4L C7L 1_555 1_555
C8L O4L 1_555 1_555
C9L O6L 1_555 1_555
C10L C9L 1_555 1_555
H5L C10L 1_555 1_555
H6L C10L 1_555 1_555
H7L C10L 1_555 1_555
H8L O5L 1_555 1_555
Fe1Q O2 1_555 1_555
O1Q C1Q 1_555 1_555
O2Q Fe1F 1_555 1_555
O3Q C8Q 1_555 1_555
O4Q Fe1Q 1_555 1_555
O6Q Fe1Q 1_555 1_555
O7Q Co1 1_555 1_555
C1Q O2Q 1_555 1_555
C2Q C1Q 1_555 1_555
C3Q C2Q 1_555 1_555
H1Q C3Q 1_555 1_555
C4Q C3Q 1_555 1_555
H2Q C4Q 1_555 1_555
C5Q C4Q 1_555 1_555
H3Q C5Q 1_555 1_555
C6Q C5Q 1_555 1_555
C7Q C2Q 1_555 1_555
H4Q C7Q 1_555 1_555
C8Q O4Q 1_555 1_555
C9Q O6Q 1_555 1_555
C10Q C9Q 1_555 1_555
H5Q C10Q 1_555 1_555
H6Q C10Q 1_555 1_555
H7Q C10Q 1_555 1_555
Fe1R O2E 1_555 1_555
O1R C1R 1_555 1_555
O2R Fe1 1_555 1_555
O3R C8R 1_555 1_555
O4R Fe1R 1_555 1_555
O6R Fe1R 1_555 1_555
O7R Co1 1_555 1_555
C1R O2R 1_555 1_555
C2R C1R 1_555 1_555
C3R C2R 1_555 1_555
H1R C3R 1_555 1_555
C4R C3R 1_555 1_555
H2R C4R 1_555 1_555
C5R C4R 1_555 1_555
H3R C5R 1_555 1_555
C6R C5R 1_555 1_555
C7R C2R 1_555 1_555
H4R C7R 1_555 1_555
C8R O4R 1_555 1_555
C9R O6R 1_555 1_555
C10R C9R 1_555 1_555
H5R C10R 1_555 1_555
H6R C10R 1_555 1_555
H7R C10R 1_555 1_555
Fe1D O3E 1_555 1_555
Fe1G O5 1_555 1_555
Fe1H O3 1_555 1_555
Fe1J O3F 1_555 1_555
Fe1P O1 1_555 1_555
Fe1S O5L 1_555 1_555
Fe1T O1F 1_555 1_555
Fe1V O1E 1_555 1_555
O1A Fe1Q 1_555 1_555
O1C Fe1L 1_555 1_555
O1K Fe1R 1_555 1_555
O1M Fe1E 1_555 1_555
O1O Fe1 1_555 1_555
O1W Fe1F 1_555 1_555
O3B Fe1F 1_555 1_555
O3G Fe1 1_555 1_555
O3I Fe1E 1_555 1_555
O3N Fe1R 1_555 1_555
O3S Fe1L 1_555 1_555
O3U Fe1Q 1_555 1_555
O5B Fe1F 1_555 1_555
O5D Fe1E 1_555 1_555
O5N Fe1R 1_555 1_555
O5P Fe1Q 1_555 1_555
O5 Fe1H 1_555 1_555
C6 C7 1_555 1_555
O7E C9E 1_555 1_555
C6E C7E 1_555 1_555
O7F C9F 1_555 1_555
C6F C7F 1_555 1_555
O1L Fe1D 1_555 1_555
O3L Fe1T 1_555 1_555
O5L Fe1T 1_555 1_555
O7L C9L 1_555 1_555
C6L C7L 1_555 1_555
C6L C8L 1_555 1_555
O1Q Fe1J 1_555 1_555
O3Q Fe1P 1_555 1_555
O7Q C9Q 1_555 1_555
C6Q C7Q 1_555 1_555
C6Q C8Q 1_555 1_555
O1R Fe1H 1_555 1_555
O3R Fe1V 1_555 1_555
O7R C9R 1_555 1_555
C6R C7R 1_555 1_555
C6R C8R 1_555 1_555
Fe1D O5D 1_555 1_555
Fe1J O5B 1_555 1_555
Fe1P O5P 1_555 1_555
Fe1V O5N 1_555 1_555

#END
