
#######################################################################
#
#                 Cambridge Crystallographic Data Centre
#                                CCDC 
#
#######################################################################
#
# If this CIF has been generated from an entry in the Cambridge 
# Structural Database, then it will include bibliographic, chemical, 
# crystal, experimental, refinement or atomic coordinate data resulting 
# from the CCDC's data processing and validation procedures.
#
#######################################################################

data_TOXLOJ
_symmetry_cell_setting           monoclinic
_symmetry_space_group_name_H-M   'P 2/c'
_symmetry_Int_Tables_number      13
_space_group_name_Hall           '-P 2yc'
loop_
_symmetry_equiv_pos_site_id
_symmetry_equiv_pos_as_xyz
1 x,y,z
2 -x,y,1/2-z
3 -x,-y,-z
4 x,-y,1/2+z
_cell_length_a                   54.872(6)
_cell_length_b                   4.9603(5)
_cell_length_c                   7.1628(7)
_cell_angle_alpha                90
_cell_angle_beta                 90.368(2)
_cell_angle_gamma                90
_cell_volume                     1949.54
loop_
_atom_site_label
_atom_site_type_symbol
_atom_site_fract_x
_atom_site_fract_y
_atom_site_fract_z
Pb1 Pb 0.24763(2) 0.27160(9) 0.96741(7)
O1 O 0.23156(18) 0.119(2) 0.6327(15)
O2 O 0.2112(2) 0.487(2) 0.6962(15)
O3 O 0.28569(19) 0.044(2) 0.9160(15)
O4 O 0.26839(18) -0.317(2) 0.7906(15)
C1 C 0.2120(2) 0.256(2) 0.6252(18)
C2 C 0.1900(2) 0.142(3) 0.5283(18)
H1 H 0.1882 -0.0493 0.5652
H2 H 0.1928 0.1469 0.3918
C3 C 0.1664(2) 0.292(3) 0.5721(18)
H3 H 0.1682 0.4841 0.5362
H4 H 0.1635 0.2857 0.7084
C4 C 0.1440(2) 0.173(3) 0.4694(19)
H5 H 0.1463 0.1955 0.3332
H6 H 0.1431 -0.0222 0.4960
C5 C 0.1201(2) 0.306(3) 0.526(2)
H7 H 0.1181 0.2883 0.6629
H8 H 0.1209 0.5013 0.4969
C6 C 0.0978(3) 0.187(3) 0.430(2)
H9 H 0.0992 0.2168 0.2933
H10 H 0.0976 -0.0099 0.4514
C7 C 0.0740(3) 0.306(3) 0.496(2)
H11 H 0.0742 0.5028 0.4725
H12 H 0.0728 0.2786 0.6323
C8 C 0.0514(3) 0.185(3) 0.401(2)
H13 H 0.0522 0.2205 0.2655
H14 H 0.0515 -0.0124 0.4197
C9 C 0.0277(3) 0.297(4) 0.475(3)
H15 H 0.0269 0.2681 0.6103
H16 H 0.0140 0.2049 0.4143
H17 H 0.0268 0.4907 0.4486
C10 C 0.2868(2) -0.182(2) 0.8395(17)
C11 C 0.3110(2) -0.312(3) 0.8017(17)
H18 H 0.3139 -0.3074 0.6655
H19 H 0.3100 -0.5035 0.8395
C12 C 0.3329(2) -0.184(3) 0.9001(18)
H20 H 0.3313 -0.2082 1.0367
H21 H 0.3331 0.0117 0.8738
C13 C 0.3571(2) -0.310(3) 0.8359(19)
H22 H 0.3568 -0.5062 0.8621
H23 H 0.3586 -0.2870 0.6992
C14 C 0.3795(2) -0.188(3) 0.9306(19)
H24 H 0.3785 -0.2178 1.0670
H25 H 0.3797 0.0091 0.9084
C15 C 0.4032(2) -0.310(3) 0.858(2)
H26 H 0.4029 -0.5071 0.8812
H27 H 0.4040 -0.2825 0.7214
C16 C 0.4260(3) -0.193(3) 0.947(2)
H28 H 0.4254 -0.2218 1.0837
H29 H 0.4263 0.0044 0.9247
C17 C 0.4495(3) -0.316(3) 0.872(2)
H30 H 0.4501 -0.2856 0.7353
H31 H 0.4491 -0.5132 0.8930
C18 C 0.4728(3) -0.203(4) 0.960(3)
H32 H 0.4734 -0.0072 0.9406
H33 H 0.4870 -0.2870 0.9026
H34 H 0.4728 -0.2408 1.0946
Pb1_2 Pb 0.24763(2) -0.72840(9) 0.96741(7)
Pb1C Pb 0.24763(2) -0.27160(9) 0.46741(7)
Pb1C_2 Pb 0.24763(2) 0.72840(9) 0.46741(7)
O1C O 0.23156(18) -0.119(2) 1.1327(15)
O2C O 0.2112(2) 0.513(2) 1.1962(15)
O4_2 O 0.26839(18) 0.683(2) 0.7906(15)
O4C O 0.26839(18) 0.317(2) 1.2906(15)
loop_
_geom_bond_atom_site_label_1
_geom_bond_atom_site_label_2
_geom_bond_site_symmetry_1
_geom_bond_site_symmetry_2
Pb1 O1 1_555 1_555
O1 C1 1_555 1_555
O2 C1 1_555 1_555
O3 Pb1 1_555 1_555
O4 C10 1_555 1_555
C1 C2 1_555 1_555
C2 H1 1_555 1_555
H2 C2 1_555 1_555
C3 C2 1_555 1_555
H3 C3 1_555 1_555
H4 C3 1_555 1_555
C4 C3 1_555 1_555
H5 C4 1_555 1_555
H6 C4 1_555 1_555
C5 C4 1_555 1_555
H7 C5 1_555 1_555
H8 C5 1_555 1_555
C6 C5 1_555 1_555
H9 C6 1_555 1_555
H10 C6 1_555 1_555
C7 C6 1_555 1_555
H11 C7 1_555 1_555
H12 C7 1_555 1_555
C8 C7 1_555 1_555
H13 C8 1_555 1_555
H14 C8 1_555 1_555
C9 C8 1_555 1_555
H15 C9 1_555 1_555
H16 C9 1_555 1_555
H17 C9 1_555 1_555
C10 O3 1_555 1_555
C11 C10 1_555 1_555
H18 C11 1_555 1_555
H19 C11 1_555 1_555
C12 C11 1_555 1_555
H20 C12 1_555 1_555
H21 C12 1_555 1_555
C13 C12 1_555 1_555
H22 C13 1_555 1_555
H23 C13 1_555 1_555
C14 C13 1_555 1_555
H24 C14 1_555 1_555
H25 C14 1_555 1_555
C15 C14 1_555 1_555
H26 C15 1_555 1_555
H27 C15 1_555 1_555
C16 C15 1_555 1_555
H28 C16 1_555 1_555
H29 C16 1_555 1_555
C17 C16 1_555 1_555
H30 C17 1_555 1_555
H31 C17 1_555 1_555
C18 C17 1_555 1_555
H32 C18 1_555 1_555
H33 C18 1_555 1_555
H34 C18 1_555 1_555
Pb1_2 O4 1_555 1_555
Pb1C O1 1_555 1_555
Pb1C_2 O2 1_555 1_555
O1C Pb1 1_555 1_555
O2C Pb1 1_555 1_555
O4_2 Pb1 1_555 1_555
O4C Pb1 1_555 1_555
O4 Pb1C 1_555 1_555
Pb1C_2 O4_2 1_555 1_555

#END
