
#######################################################################
#
#                 Cambridge Crystallographic Data Centre
#                                CCDC 
#
#######################################################################
#
# If this CIF has been generated from an entry in the Cambridge 
# Structural Database, then it will include bibliographic, chemical, 
# crystal, experimental, refinement or atomic coordinate data resulting 
# from the CCDC's data processing and validation procedures.
#
#######################################################################

data_TOXMUQ
_symmetry_cell_setting           tetragonal
_symmetry_space_group_name_H-M   'I 41 2 2'
_symmetry_Int_Tables_number      98
_space_group_name_Hall           'I 4bw 2bw'
loop_
_symmetry_equiv_pos_site_id
_symmetry_equiv_pos_as_xyz
1 x,y,z
2 1/2-x,1/2-y,1/2+z
3 1/2-x,y,3/4-z
4 -y,-x,-z
5 -y,1/2+x,1/4+z
6 1/2+y,-x,3/4+z
7 1/2+y,1/2+x,1/2-z
8 x,1/2-y,1/4-z
9 -x,-y,z
10 -x,1/2+y,1/4-z
11 1/2-y,1/2-x,1/2-z
12 1/2-y,x,3/4+z
13 y,1/2-x,1/4+z
14 y,x,-z
15 1/2+x,-y,3/4-z
16 1/2+x,1/2+y,1/2+z
_cell_length_a                   14.82280(13)
_cell_length_b                   14.82280(13)
_cell_length_c                   11.79190(10)
_cell_angle_alpha                90
_cell_angle_beta                 90
_cell_angle_gamma                90
_cell_volume                     2590.86
loop_
_atom_site_label
_atom_site_type_symbol
_atom_site_fract_x
_atom_site_fract_y
_atom_site_fract_z
Al1 Al 0.694150(79) 0.305850(79) 0.50000
O1 O 0.75552(18) 0.25000 0.625
O2 O 0.60387(13) 0.28645(13) 0.75390(19)
O3 O 0.62488(14) 0.37919(14) 0.60604(15)
C1 C 0.58992(23) 0.35603(21) 0.69874(25)
C2 C 0.53881(19) 0.42876(13) 0.76206(15)
C3 C 0.50000 0.50000 0.70562(15)
C4 C 0.53767(12) 0.429050(93) 0.88125(15)
C5 C 0.50000 0.50000 0.93719(17)
H1 H 0.81486 0.250 0.625
H2 H 0.500 0.500 0.6290(12)
H3 H 0.57318 0.38162 0.90735
O2C O 0.71355(13) 0.39613(13) 1.24610(19)
O3C O 0.62081(14) 0.37512(14) 1.39396(15)
C1C C 0.64397(21) 0.41008(23) 1.30126(25)
C2C C 0.57124(13) 0.46119(19) 1.23794(15)
C3C C 0.50000 0.50000 1.29438(15)
C4C C 0.570950(93) 0.46233(12) 1.11875(15)
C5C C 0.50000 0.50000 1.06281(17)
H2C H 0.500 0.500 1.3710(12)
H3C H 0.61838 0.42682 1.09265
O2H O 0.39613(13) 0.71355(13) 0.75390(19)
O3H O 0.37512(14) 0.62081(14) 0.60604(15)
C1H C 0.41008(23) 0.64397(21) 0.69874(25)
C2H C 0.46119(19) 0.57124(13) 0.76206(15)
C4H C 0.46233(12) 0.570950(93) 0.88125(15)
H3H H 0.42682 0.61838 0.90735
O2M O 0.28645(13) 0.60387(13) 1.24610(19)
O3M O 0.37919(14) 0.62488(14) 1.39396(15)
C1M C 0.35603(21) 0.58992(23) 1.30126(25)
C2M C 0.42876(13) 0.53881(19) 1.23794(15)
C4M C 0.429050(93) 0.53767(12) 1.11875(15)
H3M H 0.38162 0.57318 1.09265
Al1B Al 0.805850(79) 0.305850(79) 1.25000
O1A O 0.74448(18) 0.25000 1.125
H1A H 0.68514 0.250 1.125
Al1A Al 0.805850(79) 0.194150(79) 1.00000
Al1C Al 0.694150(79) 0.305850(79) 1.50000
Al1D Al 0.694150(79) 0.194150(79) 0.75000
Al1H Al 0.305850(79) 0.694150(79) 0.50000
Al1H_2 Al 0.305850(79) 0.694150(79) 1.50000
Al1I Al 0.305850(79) 0.805850(79) 0.75000
Al1K Al 0.194150(79) 0.694150(79) 1.25000
O1C O 0.75000 0.24448(18) 0.375
O1C_2 O 0.75000 0.24448(18) 1.375
O2A O 0.89613(13) 0.21355(13) 1.25390(19)
O2E O 0.78645(13) 0.39613(13) 0.50390(19)
O2G O 0.60387(13) 0.21355(13) 0.49610(19)
O3B O 0.87512(14) 0.37919(14) 1.14396(15)
O3C_2 O 0.62081(14) 0.37512(14) 0.39396(15)
O3E O 0.87919(14) 0.37512(14) 1.35604(15)
C6 C 0.04267 0.25000 0.670136
H4 H 0.04267 0.250 0.75689
C6G C 0.04267 0.25000 0.579864
H4G H 0.04267 0.250 0.49311
C7 C 0.127221 0.346883 0.265205
H5 H 0.10815 0.41009 0.23993
C8 C 0.149293 0.273968 0.294529
H6 H 0.168364 0.210761 0.319804
C7J C 0.153117 0.372779 0.234795
H5J H 0.08991 0.39185 0.26007
C8J C 0.226032 0.350707 0.205471
H6J H 0.289239 0.331636 0.180196
C9? C 0.042809 0.25000 0.569982
H7? H 0.042809 0.250000 0.483228
loop_
_geom_bond_atom_site_label_1
_geom_bond_atom_site_label_2
_geom_bond_site_symmetry_1
_geom_bond_site_symmetry_2
Al1 O1 1_555 1_555
O1 H1 1_555 1_555
O2 C1 1_555 1_555
O3 Al1 1_555 1_555
C1 O3 1_555 1_555
C2 C1 1_555 1_555
C3 C2 1_555 1_555
C4 C2 1_555 1_555
C5 C4 1_555 1_555
H2 C3 1_555 1_555
H3 C4 1_555 1_555
C6 H4 1_555 1_555
C7 H5 1_555 1_555
C8 C7 1_555 1_555
H6 C8 1_555 1_555
O2C C1C 1_555 1_555
O3C C1C 1_555 1_555
C1C C2C 1_555 1_555
C2C C3C 1_555 1_555
C3C H2C 1_555 1_555
C4C C2C 1_555 1_555
C5C C5 1_555 1_555
H3C C4C 1_555 1_555
O2H C1H 1_555 1_555
O3H C1H 1_555 1_555
C1H C2H 1_555 1_555
C2H C3 1_555 1_555
C4H C5 1_555 1_555
H3H C4H 1_555 1_555
O2M C1M 1_555 1_555
O3M C1M 1_555 1_555
C1M C2M 1_555 1_555
C2M C3C 1_555 1_555
C4M C5C 1_555 1_555
H3M C4M 1_555 1_555
Al1B O2C 1_555 1_555
O1A Al1B 1_555 1_555
H1A O1A 1_555 1_555
Al1A O1A 1_555 1_555
Al1C O3C 1_555 1_555
Al1D O1 1_555 1_555
Al1H O3H 1_555 1_555
Al1H_2 O3M 1_555 1_555
Al1I O2H 1_555 1_555
Al1K O2M 1_555 1_555
O1C Al1 1_555 1_555
O1C_2 Al1B 1_555 1_555
O2A Al1B 1_555 1_555
O2E Al1 1_555 1_555
O2G Al1 1_555 1_555
O3B Al1B 1_555 1_555
O3C_2 Al1 1_555 1_555
O3E Al1B 1_555 1_555
C6G C6 1_555 1_555
H4G C6G 1_555 1_555
C7J H5J 1_555 1_555
C8J C7J 1_555 1_555
H6J C8J 1_555 1_555
O2 Al1D 1_555 1_555
C4C C5C 1_555 1_555
C2H C4H 1_555 1_555
C2M C4M 1_555 1_555
Al1C O1C_2 1_555 1_555

#END
