
#######################################################################
#
#                 Cambridge Crystallographic Data Centre
#                                CCDC 
#
#######################################################################
#
# If this CIF has been generated from an entry in the Cambridge 
# Structural Database, then it will include bibliographic, chemical, 
# crystal, experimental, refinement or atomic coordinate data resulting 
# from the CCDC's data processing and validation procedures.
#
#######################################################################

data_TOXRIJ
_symmetry_cell_setting           triclinic
_symmetry_space_group_name_H-M   'P -1'
_symmetry_Int_Tables_number      2
_space_group_name_Hall           '-P 1'
loop_
_symmetry_equiv_pos_site_id
_symmetry_equiv_pos_as_xyz
1 x,y,z
2 -x,-y,-z
_cell_length_a                   8.7330(8)
_cell_length_b                   8.9376(8)
_cell_length_c                   16.4561(14)
_cell_angle_alpha                86.8620(10)
_cell_angle_beta                 76.7910(10)
_cell_angle_gamma                80.6080(10)
_cell_volume                     1233.48
loop_
_atom_site_label
_atom_site_type_symbol
_atom_site_fract_x
_atom_site_fract_y
_atom_site_fract_z
N1 N 0.6408(4) 0.1339(4) -0.0418(2)
Cu1 Cu 0.45415(6) -0.00625(7) 0.11582(4)
Cu2 Cu 0.74846(7) 0.15682(7) 0.18685(4)
Cu3 Cu 0.89868(7) -0.51101(6) 0.23996(4)
Cu4 Cu 1.09821(7) -0.17552(7) 0.19238(4)
N2 N 0.7427(4) -0.0727(4) 0.1860(3)
N3 N 0.6408(5) 0.2828(5) 0.2875(2)
N4 N 0.8513(4) -0.1837(4) 0.1991(3)
N5 N 0.1075(4) 0.0559(4) 0.1846(3)
N6 N -0.0154(4) 0.1664(4) 0.1955(3)
N7 N 0.6090(4) 0.1267(4) 0.0398(2)
N8 N 0.7153(5) 0.1951(5) 0.0675(2)
N9 N 0.7656(5) 0.2060(5) -0.0697(2)
N10 N 0.8046(4) -0.3176(4) 0.1903(3)
N11 N 0.7076(5) 0.3946(5) 0.3125(2)
N12 N 0.6202(4) -0.1314(4) 0.1680(3)
N13 N 1.1198(5) -0.3154(4) 0.2908(2)
N14 N 0.0404(4) 0.3006(4) 0.1889(3)
N15 N 0.2445(4) 0.1154(5) 0.1685(3)
N16 N 1.0251(5) -0.4234(5) 0.3139(2)
N17 N 0.6266(5) 0.4388(5) 0.3878(3)
C1 C 0.6631(5) -0.2818(5) 0.1707(3)
N18 N 0.5064(5) 0.3569(5) 0.4129(3)
C2 C 0.8082(6) 0.2405(6) -0.0016(3)
C3 C 0.1992(5) 0.2650(5) 0.1713(3)
N19 N 1.0446(5) -0.4844(6) 0.3854(3)
C4 C 0.9436(8) 0.3210(8) -0.0015(4)
H1 H 1.0374 0.2483 -0.0010
H2 H 0.9193 0.3824 0.0472
H3 H 0.9619 0.3845 -0.0506
C5 C 1.2004(6) -0.3183(6) 0.3516(3)
C6 C 0.5183(6) 0.2647(6) 0.3506(3)
N20 N 1.1545(6) -0.4190(6) 0.4107(3)
C7 C 0.3091(6) 0.3792(6) 0.1580(4)
H4 H 0.2571 0.4735 0.1394
H5 H 0.4031 0.3437 0.1165
H6 H 0.3382 0.3940 0.2095
C8 C 1.3197(8) -0.2188(8) 0.3540(4)
H7 H 1.2672 -0.1265 0.3817
H8 H 1.3730 -0.1957 0.2980
H9 H 1.3963 -0.2699 0.3838
C9 C 0.5673(7) -0.3940(6) 0.1527(4)
H10 H 0.4573 -0.3634 0.1789
H11 H 0.6043 -0.4920 0.1741
H12 H 0.5785 -0.3990 0.0934
C10 C 0.4134(8) 0.1498(8) 0.3497(4)
H13 H 0.4381 0.0663 0.3862
H14 H 0.4302 0.1138 0.2940
H15 H 0.3041 0.1949 0.3684
C11 C 0.1549(9) 0.0541(9) 0.5738(4)
N21 N 0.2073(10) 0.1611(8) 0.5562(4)
C12 C 0.0922(10) -0.0852(9) 0.5962(5)
H16 H 0.1154 -0.1477 0.5479
H17 H -0.0210 -0.0632 0.6168
H18 H 0.1403 -0.1377 0.6387
Na1 Na 0.2546(2) 0.4299(2) 0.52210(12)
N1A N 0.3592(4) -0.1339(4) 0.0418(2)
Cu1A Cu 0.54585(6) 0.00625(7) -0.11582(4)
Cu2_2 Cu -0.25154(7) 0.15682(7) 0.18685(4)
Cu3_2 Cu -0.10132(7) 0.48899(6) 0.23996(4)
Cu3_3 Cu 0.89868(7) 0.48899(6) 0.23996(4)
Cu4_2 Cu 0.09821(7) -0.17552(7) 0.19238(4)
Cu4A Cu 0.90179(7) 0.17552(7) -0.19238(4)
N5_2 N 1.1075(4) 0.0559(4) 0.1846(3)
N6_2 N 0.9846(4) 0.1664(4) 0.1955(3)
N9A N 1.2344(5) -0.2060(5) 0.0697(2)
N11_2 N 0.7076(5) -0.6054(5) 0.3125(2)
N14_2 N 1.0404(4) -0.6994(4) 0.1889(3)
N17A N 0.3734(5) 0.5612(5) 0.6122(3)
N19A N -0.0446(5) 0.4844(6) 0.6146(3)
N20_2 N 0.1545(6) 0.5810(6) 0.4107(3)
Na1_2 Na 1.2546(2) -0.5701(2) 0.52210(12)
Na1A Na 0.7454(2) -0.4299(2) 0.47790(12)
Na1A_2 Na 0.7454(2) 0.5701(2) 0.47790(12)
loop_
_geom_bond_atom_site_label_1
_geom_bond_atom_site_label_2
_geom_bond_site_symmetry_1
_geom_bond_site_symmetry_2
N1 N7 1_555 1_555
Cu1 N7 1_555 1_555
Cu2 N2 1_555 1_555
Cu3 N10 1_555 1_555
Cu4 N4 1_555 1_555
N2 N4 1_555 1_555
N3 Cu2 1_555 1_555
N4 N10 1_555 1_555
N5 N6 1_555 1_555
N6 N14 1_555 1_555
N7 N8 1_555 1_555
N8 Cu2 1_555 1_555
N9 N1 1_555 1_555
N10 C1 1_555 1_555
N11 N3 1_555 1_555
N12 Cu1 1_555 1_555
N13 Cu4 1_555 1_555
N14 C3 1_555 1_555
N15 Cu1 1_555 1_555
N16 Cu3 1_555 1_555
N17 N11 1_555 1_555
C1 N12 1_555 1_555
N18 N17 1_555 1_555
C2 N8 1_555 1_555
C3 N15 1_555 1_555
N19 N16 1_555 1_555
C4 C2 1_555 1_555
H1 C4 1_555 1_555
H2 C4 1_555 1_555
H3 C4 1_555 1_555
C5 N13 1_555 1_555
C6 N3 1_555 1_555
N20 N19 1_555 1_555
C7 C3 1_555 1_555
H4 C7 1_555 1_555
H5 C7 1_555 1_555
H6 C7 1_555 1_555
C8 C5 1_555 1_555
H7 C8 1_555 1_555
H8 C8 1_555 1_555
H9 C8 1_555 1_555
C9 C1 1_555 1_555
H10 C9 1_555 1_555
H11 C9 1_555 1_555
H12 C9 1_555 1_555
C10 C6 1_555 1_555
H13 C10 1_555 1_555
H14 C10 1_555 1_555
H15 C10 1_555 1_555
C11 N21 1_555 1_555
N21 Na1 1_555 1_555
C12 C11 1_555 1_555
H16 C12 1_555 1_555
H17 C12 1_555 1_555
H18 C12 1_555 1_555
Na1 N18 1_555 1_555
N1A Cu1 1_555 1_555
Cu1A N1 1_555 1_555
Cu2_2 N6 1_555 1_555
Cu3_2 N14 1_555 1_555
Cu3_3 N11 1_555 1_555
Cu4_2 N5 1_555 1_555
Cu4A N9 1_555 1_555
N5_2 Cu4 1_555 1_555
N6_2 Cu2 1_555 1_555
N9A Cu4 1_555 1_555
N11_2 Cu3 1_555 1_555
N14_2 Cu3 1_555 1_555
N17A Na1 1_555 1_555
N19A Na1 1_555 1_555
N20_2 Na1 1_555 1_555
Na1_2 N20 1_555 1_555
Na1A N19 1_555 1_555
Na1A_2 N17 1_555 1_555
N2 N12 1_555 1_555
N5 N15 1_555 1_555
N9 C2 1_555 1_555
N13 N16 1_555 1_555
N18 C6 1_555 1_555
C5 N20 1_555 1_555
N5_2 N6_2 1_555 1_555

#END
