
#######################################################################
#
#                 Cambridge Crystallographic Data Centre
#                                CCDC 
#
#######################################################################
#
# If this CIF has been generated from an entry in the Cambridge 
# Structural Database, then it will include bibliographic, chemical, 
# crystal, experimental, refinement or atomic coordinate data resulting 
# from the CCDC's data processing and validation procedures.
#
#######################################################################

data_TOXYEM
_symmetry_cell_setting           triclinic
_symmetry_space_group_name_H-M   'P -1'
_symmetry_Int_Tables_number      2
_space_group_name_Hall           '-P 1'
loop_
_symmetry_equiv_pos_site_id
_symmetry_equiv_pos_as_xyz
1 x,y,z
2 -x,-y,-z
_cell_length_a                   10.4860(8)
_cell_length_b                   10.8132(8)
_cell_length_c                   10.8268(8)
_cell_angle_alpha                90.123(4)
_cell_angle_beta                 99.936(4)
_cell_angle_gamma                101.413(4)
_cell_volume                     1184.46
loop_
_atom_site_label
_atom_site_type_symbol
_atom_site_fract_x
_atom_site_fract_y
_atom_site_fract_z
Cu1 Cu 0.37057(3) 0.47374(3) 0.48010(3)
O1 O 0.37766(19) 0.65667(16) 0.47372(18)
O2 O 0.5987(2) 0.69844(17) 0.5083(2)
O3 O 0.1685(3) 0.8603(3) 0.3336(3)
O4 O 0.3127(2) 0.7885(2) 0.2404(2)
H1 H 0.2462 0.7568 0.1901
C1 C 0.4879(3) 0.7300(2) 0.4900(2)
C2 C 0.4913(3) 0.8695(2) 0.4907(3)
C3 C 0.5948(3) 0.9461(3) 0.5712(3)
H2 H 0.6590 0.9096 0.6193
C4 C 0.3955(3) 0.9239(2) 0.4189(3)
C5 C 0.2798(3) 0.8532(3) 0.3276(3)
O5 O 0.6071(2) 0.5135(2) 0.33648(18)
O6 O 0.3861(2) 0.4714(2) 0.30162(18)
C6 C 0.4963(3) 0.4887(2) 0.2670(2)
C7 C 0.4955(3) 0.4894(3) 0.1280(3)
C8 C 0.4644(3) 0.5934(3) 0.0649(3)
H3 H 0.4400 0.6566 0.1085
C9 C 0.5312(3) 0.3940(3) 0.0623(3)
C10 C 0.5585(4) 0.2770(3) 0.1243(3)
O7 O 0.6197(5) 0.2125(3) 0.0644(3)
H4 H 0.6408 0.1553 0.1078
O8 O 0.5287(4) 0.2476(2) 0.2239(2)
O9 O 0.1614(2) 0.4170(2) 0.4472(2)
C11 C 0.0933(3) 0.4714(3) 0.3708(3)
H5 H 0.1348 0.5458 0.3395
N1 N -0.0342(3) 0.4324(3) 0.3300(3)
C12 C -0.1075(4) 0.4984(6) 0.2361(5)
H6 H -0.0493 0.5711 0.2124
H7 H -0.1772 0.5247 0.2698
H8 H -0.1448 0.4432 0.1639
C13 C -0.1064(4) 0.3188(4) 0.3752(5)
H9 H -0.1293 0.2539 0.3099
H10 H -0.1855 0.3355 0.3991
H11 H -0.0524 0.2914 0.4465
O1A O 0.62234(19) 1.34333(16) 0.52628(18)
O2A O 0.4013(2) 1.30156(17) 0.4917(2)
O3A O 0.8315(3) 1.1397(3) 0.6664(3)
O4A O 0.6873(2) 1.2115(2) 0.7596(2)
H1A H 0.7538 1.2432 0.8099
C1A C 0.5121(3) 1.2700(2) 0.5100(2)
C2A C 0.5087(3) 1.1305(2) 0.5093(3)
C3A C 0.4052(3) 1.0539(3) 0.4288(3)
H2A H 0.3410 1.0904 0.3807
C4A C 0.6045(3) 1.0761(2) 0.5811(3)
C5A C 0.7202(3) 1.1468(3) 0.6724(3)
O5A O 0.3929(2) 0.4865(2) -0.33648(18)
O6A O 0.6139(2) 0.5286(2) -0.30162(18)
C6A C 0.5037(3) 0.5113(2) -0.2670(2)
C7A C 0.5045(3) 0.5106(3) -0.1280(3)
C8A C 0.5356(3) 0.4066(3) -0.0649(3)
H3A H 0.5600 0.3434 -0.1085
C9A C 0.4688(3) 0.6060(3) -0.0623(3)
C10A C 0.4415(4) 0.7230(3) -0.1243(3)
O7A O 0.3803(5) 0.7875(3) -0.0644(3)
H4A H 0.3592 0.8447 -0.1078
O8A O 0.4713(4) 0.7524(2) -0.2239(2)
Cu1A Cu 0.62943(3) 0.52626(3) -0.48010(3)
O9A O 0.8386(2) 0.5830(2) -0.4472(2)
C11A C 0.9067(3) 0.5286(3) -0.3708(3)
H5A H 0.8652 0.4542 -0.3395
N1A N 1.0342(3) 0.5676(3) -0.3300(3)
C12A C 1.1075(4) 0.5016(6) -0.2361(5)
H6A H 1.0493 0.4289 -0.2124
H7A H 1.1772 0.4753 -0.2698
H8A H 1.1448 0.5568 -0.1639
C13A C 1.1064(4) 0.6812(4) -0.3752(5)
H9A H 1.1293 0.7461 -0.3099
H10A H 1.1855 0.6645 -0.3991
H11A H 1.0524 0.7086 -0.4465
Cu1_2 Cu 0.37057(3) 0.47374(3) -0.51990(3)
Cu1_3 Cu 0.37057(3) 1.47374(3) 0.48010(3)
Cu1A_2 Cu 0.62943(3) 0.52626(3) 0.51990(3)
Cu1A_3 Cu 0.62943(3) 1.52626(3) 0.51990(3)
O1A_2 O 0.62234(19) 0.34333(16) -0.47372(18)
O2_2 O 0.5987(2) 0.69844(17) -0.4917(2)
O2A_2 O 0.4013(2) 0.30156(17) 0.4917(2)
O5_2 O 0.6071(2) 0.5135(2) -0.66352(18)
O5A_2 O 0.3929(2) 0.4865(2) 0.66352(18)
O10 O 0.1014(3) 0.6992(4) 0.0705(3)
N2 N -0.0439(4) 0.7647(5) -0.0829(4)
C14 C -0.0762(9) 0.8597(10) -0.1673(8)
H12 H -0.0105 0.9358 -0.1479
H13 H -0.1611 0.8760 -0.1588
H14 H -0.0789 0.8311 -0.2519
C15 C 0.0696(5) 0.7780(6) -0.0053(5)
H15 H 0.1309 0.8526 -0.0076
C16 C -0.1415(6) 0.6511(8) -0.0805(6)
H16 H -0.0984 0.5807 -0.0653
H17 H -0.2006 0.6376 -0.1597
H18 H -0.1906 0.6591 -0.0149
O11 O 0.6694(7) 0.0040(5) 0.1564(6)
C17 C 0.7114(8) -0.0119(6) 0.2602(6)
H19 H 0.6958 0.0384 0.3235
N3 N 0.7804(4) -0.0991(3) 0.2898(4)
C18 C 0.7891(9) -0.1941(6) 0.2015(8)
H20 H 0.8774 -0.1808 0.1841
H21 H 0.7283 -0.1897 0.1252
H22 H 0.7674 -0.2758 0.2359
C19 C 0.8501(6) -0.1041(7) 0.4139(7)
H23 H 0.8469 -0.0304 0.4620
H24 H 0.9405 -0.1071 0.4112
H25 H 0.8101 -0.1783 0.4524
loop_
_geom_bond_atom_site_label_1
_geom_bond_atom_site_label_2
_geom_bond_site_symmetry_1
_geom_bond_site_symmetry_2
Cu1 O1 1_555 1_555
O1 C1 1_555 1_555
O2 C1 1_555 1_555
O3 C5 1_555 1_555
O4 H1 1_555 1_555
C1 C2 1_555 1_555
C2 C3 1_555 1_555
C3 H2 1_555 1_555
C4 C2 1_555 1_555
C5 O4 1_555 1_555
O5 C6 1_555 1_555
O6 Cu1 1_555 1_555
C6 O6 1_555 1_555
C7 C6 1_555 1_555
C8 C7 1_555 1_555
H3 C8 1_555 1_555
C9 C7 1_555 1_555
C10 C9 1_555 1_555
O7 C10 1_555 1_555
H4 O7 1_555 1_555
O8 C10 1_555 1_555
O9 Cu1 1_555 1_555
C11 O9 1_555 1_555
H5 C11 1_555 1_555
N1 C11 1_555 1_555
C12 N1 1_555 1_555
H6 C12 1_555 1_555
H7 C12 1_555 1_555
H8 C12 1_555 1_555
C13 N1 1_555 1_555
H9 C13 1_555 1_555
H10 C13 1_555 1_555
H11 C13 1_555 1_555
O10 C15 1_555 1_555
N2 C14 1_555 1_555
C14 H12 1_555 1_555
H13 C14 1_555 1_555
H14 C14 1_555 1_555
C15 N2 1_555 1_555
H15 C15 1_555 1_555
C16 N2 1_555 1_555
H16 C16 1_555 1_555
H17 C16 1_555 1_555
H18 C16 1_555 1_555
O11 C17 1_555 1_555
C17 H19 1_555 1_555
N3 C17 1_555 1_555
C18 N3 1_555 1_555
H20 C18 1_555 1_555
H21 C18 1_555 1_555
H22 C18 1_555 1_555
C19 N3 1_555 1_555
H23 C19 1_555 1_555
H24 C19 1_555 1_555
H25 C19 1_555 1_555
O1A C1A 1_555 1_555
O2A C1A 1_555 1_555
O3A C5A 1_555 1_555
O4A H1A 1_555 1_555
C1A C2A 1_555 1_555
C2A C3A 1_555 1_555
C3A C4 1_555 1_555
H2A C3A 1_555 1_555
C4A C3 1_555 1_555
C5A O4A 1_555 1_555
O5A C6A 1_555 1_555
O6A C6A 1_555 1_555
C6A C7A 1_555 1_555
C7A C8A 1_555 1_555
C8A C9 1_555 1_555
H3A C8A 1_555 1_555
C9A C8 1_555 1_555
C10A C9A 1_555 1_555
O7A C10A 1_555 1_555
H4A O7A 1_555 1_555
O8A C10A 1_555 1_555
Cu1A O6A 1_555 1_555
O9A Cu1A 1_555 1_555
C11A O9A 1_555 1_555
H5A C11A 1_555 1_555
N1A C11A 1_555 1_555
C12A N1A 1_555 1_555
H6A C12A 1_555 1_555
H7A C12A 1_555 1_555
H8A C12A 1_555 1_555
C13A N1A 1_555 1_555
H9A C13A 1_555 1_555
H10A C13A 1_555 1_555
H11A C13A 1_555 1_555
Cu1_2 O5A 1_555 1_555
Cu1_3 O2A 1_555 1_555
Cu1A_2 Cu1 1_555 1_555
Cu1A_3 O1A 1_555 1_555
O1A_2 Cu1A 1_555 1_555
O2_2 Cu1A 1_555 1_555
O2A_2 Cu1 1_555 1_555
O5_2 Cu1A 1_555 1_555
O5A_2 Cu1 1_555 1_555
O2 Cu1A_2 1_555 1_555
C4 C5 1_555 1_555
O5 Cu1A_2 1_555 1_555
C2A C4A 1_555 1_555
C4A C5A 1_555 1_555
C7A C9A 1_555 1_555
Cu1A Cu1_2 1_555 1_555
Cu1_3 Cu1A_3 1_555 1_555

#END
