
#######################################################################
#
#                 Cambridge Crystallographic Data Centre
#                                CCDC 
#
#######################################################################
#
# If this CIF has been generated from an entry in the Cambridge 
# Structural Database, then it will include bibliographic, chemical, 
# crystal, experimental, refinement or atomic coordinate data resulting 
# from the CCDC's data processing and validation procedures.
#
#######################################################################

data_TOYBUG
_symmetry_cell_setting           orthorhombic
_symmetry_space_group_name_H-M   'P b c a'
_symmetry_Int_Tables_number      61
_space_group_name_Hall           '-P 2ac 2ab'
loop_
_symmetry_equiv_pos_site_id
_symmetry_equiv_pos_as_xyz
1 x,y,z
2 1/2-x,-y,1/2+z
3 1/2+x,1/2-y,-z
4 -x,1/2+y,1/2-z
5 -x,-y,-z
6 1/2+x,y,1/2-z
7 1/2-x,1/2+y,z
8 x,1/2-y,1/2+z
_cell_length_a                   9.6767(3)
_cell_length_b                   14.1883(4)
_cell_length_c                   35.4848(9)
_cell_angle_alpha                90
_cell_angle_beta                 90
_cell_angle_gamma                90
_cell_volume                     4871.92
loop_
_atom_site_label
_atom_site_type_symbol
_atom_site_fract_x
_atom_site_fract_y
_atom_site_fract_z
Eu1 Eu 1.18963(2) 0.335009(17) 0.210649(6)
F1 F 0.8948(6) 0.1563(4) 0.00268(12)
F2 F 0.6129(6) 0.3666(4) 0.05354(12)
F3 F 1.1025(7) 0.6021(5) -0.00245(12)
O1 O 1.1604(4) 0.2266(3) 0.16070(10)
O2 O 1.0162(4) 0.1105(3) 0.17600(10)
O3 O 0.9529(4) 0.3409(3) 0.20353(10)
O4 O 0.7411(4) 0.3337(3) 0.22570(9)
O5 O 1.1795(4) 0.4411(3) 0.15980(10)
O6 O 1.0453(4) 0.5642(3) 0.17342(10)
O7 O 1.0939(4) 0.1893(2) 0.24077(10)
H1 H 1.1575 0.1602 0.2544
H2 H 1.0642 0.1492 0.2235
O8 O 1.3855(4) 0.2313(3) 0.20941(10)
H3 H 1.4302 0.2362 0.2301
H4 H 1.401(6) 0.185(3) 0.1952(13)
O9 O 1.3864(4) 0.4411(3) 0.21236(11)
H5 H 1.3605 0.5020 0.2090
H6 H 1.458(6) 0.449(6) 0.226(2)
O10 O 1.1005(4) 0.4837(3) 0.23955(10)
H7 H 1.154(5) 0.512(4) 0.2550(12)
C1 C 1.0721(6) 0.1647(4) 0.15212(14)
C2 C 1.0289(6) 0.1578(4) 0.11172(15)
C3 C 1.0987(7) 0.2077(5) 0.08450(17)
H8 H 1.1757 0.2432 0.0912
C4 C 1.0559(8) 0.2059(6) 0.04733(18)
H9 H 1.1043 0.2383 0.0288
C5 C 0.9411(8) 0.1553(6) 0.03873(18)
C6 C 0.8697(9) 0.1034(6) 0.0647(2)
H10 H 0.7927 0.0683 0.0578
C7 C 0.9153(7) 0.1046(5) 0.10170(18)
H11 H 0.8691 0.0694 0.1199
C8 C 0.8242(5) 0.3401(3) 0.19919(14)
C9 C 0.7692(5) 0.3470(3) 0.15990(13)
C10 C 0.8567(6) 0.3582(4) 0.12941(15)
H12 H 0.9517 0.3610 0.1332
C11 C 0.8044(8) 0.3653(5) 0.09338(17)
H13 H 0.8629 0.3725 0.0728
C12 C 0.6664(9) 0.3614(6) 0.08881(19)
C13 C 0.5753(7) 0.3490(5) 0.1179(2)
H14 H 0.4808 0.3450 0.1134
C14 C 0.6277(6) 0.3426(4) 0.15435(17)
H15 H 0.5682 0.3356 0.1747
C15 C 1.1115(5) 0.5135(4) 0.15065(14)
C16 C 1.1103(6) 0.5387(4) 0.10964(15)
C17 C 1.1891(7) 0.4877(5) 0.08438(17)
H16 H 1.2436 0.4382 0.0930
C18 C 1.1876(9) 0.5099(6) 0.04618(19)
H17 H 1.2420 0.4769 0.0291
C19 C 1.1051(10) 0.5806(6) 0.03485(19)
C20 C 1.0272(10) 0.6338(6) 0.0587(2)
H18 H 0.9739 0.6836 0.0498
C21 C 1.0300(8) 0.6117(5) 0.09652(18)
H19 H 0.9770 0.6466 0.1134
H20 H 1.133(12) 0.526(7) 0.225(3)
Eu1E Eu 0.68963(2) 0.335009(17) 0.289351(6)
O4E O 1.2411(4) 0.3337(3) 0.27430(9)
O11 O 0.7592(5) 0.5846(3) 0.20527(11)
H21 H 0.684(5) 0.597(6) 0.1935(19)
H22 H 0.815(6) 0.568(5) 0.1879(15)
loop_
_geom_bond_atom_site_label_1
_geom_bond_atom_site_label_2
_geom_bond_site_symmetry_1
_geom_bond_site_symmetry_2
Eu1 O1 1_555 1_555
F1 C5 1_555 1_555
F2 C12 1_555 1_555
F3 C19 1_555 1_555
O1 C1 1_555 1_555
O2 C1 1_555 1_555
O3 Eu1 1_555 1_555
O4 C8 1_555 1_555
O5 Eu1 1_555 1_555
O6 C15 1_555 1_555
O7 Eu1 1_555 1_555
H1 O7 1_555 1_555
H2 O7 1_555 1_555
O8 Eu1 1_555 1_555
H3 O8 1_555 1_555
H4 O8 1_555 1_555
O9 Eu1 1_555 1_555
H5 O9 1_555 1_555
H6 O9 1_555 1_555
O10 Eu1 1_555 1_555
H7 O10 1_555 1_555
C1 C2 1_555 1_555
C2 C3 1_555 1_555
C3 H8 1_555 1_555
C4 C3 1_555 1_555
H9 C4 1_555 1_555
C5 C4 1_555 1_555
C6 C5 1_555 1_555
H10 C6 1_555 1_555
C7 C2 1_555 1_555
H11 C7 1_555 1_555
C8 O3 1_555 1_555
C9 C8 1_555 1_555
C10 C9 1_555 1_555
H12 C10 1_555 1_555
C11 C10 1_555 1_555
H13 C11 1_555 1_555
C12 C11 1_555 1_555
C13 C12 1_555 1_555
H14 C13 1_555 1_555
C14 C9 1_555 1_555
H15 C14 1_555 1_555
C15 O5 1_555 1_555
C16 C15 1_555 1_555
C17 C16 1_555 1_555
H16 C17 1_555 1_555
C18 C17 1_555 1_555
H17 C18 1_555 1_555
C19 C18 1_555 1_555
C20 C19 1_555 1_555
H18 C20 1_555 1_555
C21 C16 1_555 1_555
H19 C21 1_555 1_555
H20 O10 1_555 1_555
O11 H21 1_555 1_555
H22 O11 1_555 1_555
Eu1E O4 1_555 1_555
O4E Eu1 1_555 1_555
C6 C7 1_555 1_555
C13 C14 1_555 1_555
C20 C21 1_555 1_555

#END
