
#######################################################################
#
#                 Cambridge Crystallographic Data Centre
#                                CCDC 
#
#######################################################################
#
# If this CIF has been generated from an entry in the Cambridge 
# Structural Database, then it will include bibliographic, chemical, 
# crystal, experimental, refinement or atomic coordinate data resulting 
# from the CCDC's data processing and validation procedures.
#
#######################################################################

data_TOYBEQ
_symmetry_cell_setting           monoclinic
_symmetry_space_group_name_H-M   'P 21/n'
_symmetry_Int_Tables_number      14
_space_group_name_Hall           '-P 2yn'
loop_
_symmetry_equiv_pos_site_id
_symmetry_equiv_pos_as_xyz
1 x,y,z
2 1/2-x,1/2+y,1/2-z
3 -x,-y,-z
4 1/2+x,1/2-y,1/2+z
_cell_length_a                   10.4545(5)
_cell_length_b                   15.6447(8)
_cell_length_c                   14.4661(8)
_cell_angle_alpha                90
_cell_angle_beta                 95.091(2)
_cell_angle_gamma                90
_cell_volume                     2356.71
loop_
_atom_site_label
_atom_site_type_symbol
_atom_site_fract_x
_atom_site_fract_y
_atom_site_fract_z
C1 C 1.1003(4) 0.2986(3) 0.5900(3)
C2 C 1.2229(4) 0.3468(3) 0.6087(3)
C3 C 1.2464(4) 0.3926(3) 0.6914(3)
C4 C 1.3619(5) 0.4353(4) 0.7096(4)
H1 H 1.3774 0.4665 0.7641
C5 C 1.4541(5) 0.4316(4) 0.6470(4)
H2 H 1.5319 0.4600 0.6597
C6 C 1.4307(5) 0.3861(4) 0.5661(4)
H3 H 1.4930 0.3839 0.5240
C7 C 1.3174(5) 0.3440(4) 0.5468(3)
H4 H 1.3031 0.3131 0.4919
C8 C 1.0730(5) 0.3964(3) 0.8908(3)
C9 C 0.9443(5) 0.4037(3) 0.8582(3)
H5 H 0.9210 0.4091 0.7950
C10 C 0.8513(5) 0.4028(3) 0.9200(3)
H6 H 0.7653 0.4078 0.8981
C11 C 0.8847(5) 0.3945(3) 1.0147(3)
C12 C 1.0137(4) 0.3883(3) 1.0484(3)
C13 C 1.1055(4) 0.3893(3) 0.9843(3)
H7 H 1.1918 0.3849 1.0057
C14 C 0.9366(5) 0.0882(4) 0.5699(4)
H8 H 0.9908 0.0479 0.6047
H9 H 0.9810 0.1107 0.5199
H10 H 0.8594 0.0600 0.5451
C15 C 0.7715(5) 0.2946(4) 0.6163(4)
H11 H 0.7634 0.2984 0.5498
H12 H 0.8095 0.3461 0.6421
H13 H 0.6881 0.2870 0.6380
C16 C 0.9247(5) 0.1646(4) 0.8018(3)
H14 H 0.9789 0.1152 0.8109
H15 H 0.8448 0.1542 0.8278
H16 H 0.9665 0.2130 0.8318
C17 C 1.0838(6) 0.2303(4) 0.3304(4)
H17 H 1.0165 0.1894 0.3158
H18 H 1.1351 0.2125 0.3853
H19 H 1.1367 0.2340 0.2796
C18 C 0.8015(5) 0.3508(5) 0.3654(4)
H20 H 0.7732 0.4082 0.3756
H21 H 0.7830 0.3154 0.4167
H22 H 0.7575 0.3289 0.3092
C19 C 1.1044(6) 0.4649(3) 0.3876(4)
H23 H 1.0447 0.5107 0.3943
H24 H 1.1581 0.4787 0.3393
H25 H 1.1567 0.4572 0.4450
N1 N 1.1429(4) 0.3984(3) 0.7488(3)
N2 N 1.1776(4) 0.3935(3) 0.8332(3)
O1 O 1.0698(3) 0.2528(2) 0.6574(2)
O2 O 1.0354(3) 0.3030(3) 0.5144(2)
O3 O 0.7877(3) 0.3934(3) 1.0699(3)
H26 H 0.8170 0.3883 1.1242
Sn1 Sn 0.88905(3) 0.18935(2) 0.65806(2)
Sn2 Sn 1.00245(3) 0.35090(2) 0.35318(2)
O4 O 1.1706(3) 0.3784(2) 1.1779(2)
C20 C 1.0564(5) 0.3816(3) 1.1495(3)
O5 O 0.9647(3) 0.3798(2) 1.2039(2)
Sn1C Sn 1.38905(3) 0.31065(2) 1.15806(2)
Sn2_2 Sn 1.00245(3) 0.35090(2) 1.35318(2)
O4C O 0.6706(3) 0.1216(2) 0.6779(2)
O5_2 O 0.9647(3) 0.3798(2) 0.2039(2)
loop_
_geom_bond_atom_site_label_1
_geom_bond_atom_site_label_2
_geom_bond_site_symmetry_1
_geom_bond_site_symmetry_2
C1 C2 1_555 1_555
C2 C3 1_555 1_555
C3 C4 1_555 1_555
C4 H1 1_555 1_555
C5 C4 1_555 1_555
H2 C5 1_555 1_555
C6 C5 1_555 1_555
H3 C6 1_555 1_555
C7 C2 1_555 1_555
H4 C7 1_555 1_555
C8 C9 1_555 1_555
C9 H5 1_555 1_555
C10 C9 1_555 1_555
H6 C10 1_555 1_555
C11 C10 1_555 1_555
C12 C11 1_555 1_555
C13 C8 1_555 1_555
H7 C13 1_555 1_555
C14 H8 1_555 1_555
H9 C14 1_555 1_555
H10 C14 1_555 1_555
C15 H11 1_555 1_555
H12 C15 1_555 1_555
H13 C15 1_555 1_555
C16 H14 1_555 1_555
H15 C16 1_555 1_555
H16 C16 1_555 1_555
C17 H17 1_555 1_555
H18 C17 1_555 1_555
H19 C17 1_555 1_555
C18 H20 1_555 1_555
H21 C18 1_555 1_555
H22 C18 1_555 1_555
C19 H23 1_555 1_555
H24 C19 1_555 1_555
H25 C19 1_555 1_555
N1 C3 1_555 1_555
N2 C8 1_555 1_555
O1 C1 1_555 1_555
O2 C1 1_555 1_555
O3 C11 1_555 1_555
H26 O3 1_555 1_555
Sn1 C14 1_555 1_555
Sn2 C17 1_555 1_555
O4 C20 1_555 1_555
C20 C12 1_555 1_555
O5 C20 1_555 1_555
Sn1C O4 1_555 1_555
Sn2_2 O5 1_555 1_555
O4C Sn1 1_555 1_555
O5_2 Sn2 1_555 1_555
C6 C7 1_555 1_555
C12 C13 1_555 1_555
C15 Sn1 1_555 1_555
C16 Sn1 1_555 1_555
C18 Sn2 1_555 1_555
C19 Sn2 1_555 1_555
N1 N2 1_555 1_555
O1 Sn1 1_555 1_555
O2 Sn2 1_555 1_555

#END
