
#######################################################################
#
#                 Cambridge Crystallographic Data Centre
#                                CCDC 
#
#######################################################################
#
# If this CIF has been generated from an entry in the Cambridge 
# Structural Database, then it will include bibliographic, chemical, 
# crystal, experimental, refinement or atomic coordinate data resulting 
# from the CCDC's data processing and validation procedures.
#
#######################################################################

data_TOYBAM
_symmetry_cell_setting           triclinic
_symmetry_space_group_name_H-M   'P -1'
_symmetry_Int_Tables_number      2
_space_group_name_Hall           '-P 1'
loop_
_symmetry_equiv_pos_site_id
_symmetry_equiv_pos_as_xyz
1 x,y,z
2 -x,-y,-z
_cell_length_a                   9.838(4)
_cell_length_b                   15.750(6)
_cell_length_c                   15.434(5)
_cell_angle_alpha                66.893(12)
_cell_angle_beta                 75.707(15)
_cell_angle_gamma                76.365(15)
_cell_volume                     2105.51
loop_
_atom_site_label
_atom_site_type_symbol
_atom_site_fract_x
_atom_site_fract_y
_atom_site_fract_z
C1 C 0.0122(4) 1.1681(3) 0.0678(3)
C2 C 0.1908(4) 1.0124(3) 0.1445(3)
C3 C 0.2831(4) 0.9210(3) 0.1825(3)
C4 C 0.2396(4) 0.8549(3) 0.2712(3)
H1 H 0.1542 0.8689 0.3114
C5 C 0.3237(4) 0.7683(3) 0.2993(3)
H2 H 0.2930 0.7230 0.3593
C6 C 0.4897(4) 0.8105(3) 0.1626(3)
H3 H 0.5782 0.7959 0.1254
C7 C 0.4117(4) 0.8984(3) 0.1278(3)
H4 H 0.4453 0.9425 0.0677
C8 C -0.2768(5) 1.3073(3) -0.0740(3)
H5 H -0.3449 1.2953 -0.1003
C9 C -0.1919(5) 1.2320(3) -0.0202(3)
H6 H -0.2031 1.1701 -0.0089
C10 C -0.0897(4) 1.2478(3) 0.0173(3)
C11 C -0.0810(5) 1.3401(3) 0.0011(3)
H7 H -0.0136 1.3536 0.0266
C12 C -0.1722(5) 1.4120(3) -0.0527(3)
H8 H -0.1661 1.4746 -0.0627
C13 C -0.3582(5) 1.1352(3) 0.2712(3)
H9 H -0.3110 1.1618 0.3023
H10 H -0.3400 1.1627 0.2005
C14 C -0.4918(5) 1.1168(3) 0.3138(4)
H11 H -0.5611 1.1331 0.2707
H12 H -0.5322 1.1322 0.3722
C15 C 0.5144(6) 0.3758(3) 0.2174(4)
H13 H 0.6148 0.3756 0.2181
H14 H 0.4711 0.3254 0.2721
C16 C 0.4799(6) 0.3949(3) 0.1302(4)
H15 H 0.4143 0.3568 0.1285
H16 H 0.5579 0.4071 0.0745
C17 C -0.1245(4) 0.7464(3) 0.1943(3)
H17 H -0.1444 0.7922 0.1349
C18 C -0.1675(4) 0.6608(3) 0.2234(3)
H18 H -0.2138 0.6477 0.1839
C19 C -0.1423(4) 0.5933(3) 0.3118(3)
C20 C -0.0679(4) 0.6146(3) 0.3645(3)
H19 H -0.0460 0.5698 0.4239
C21 C -0.0260(4) 0.7016(3) 0.3297(3)
H20 H 0.0256 0.7153 0.3660
C22 C -0.1968(4) 0.5032(3) 0.3509(3)
C23 C -0.3157(4) 0.3480(3) 0.4311(3)
C24 C -0.3990(4) 0.1019(3) 0.5481(3)
H21 H -0.3512 0.0402 0.5552
C25 C -0.3251(4) 0.1757(3) 0.4944(3)
H22 H -0.2284 0.1645 0.4662
C26 C -0.5358(4) 0.2790(3) 0.5240(3)
H23 H -0.5871 0.3401 0.5155
C27 C -0.6012(5) 0.2017(3) 0.5778(3)
H24 H -0.6976 0.2112 0.6074
C28 C -0.3935(4) 0.2664(3) 0.4821(3)
N1 N 0.0547(3) 1.0083(2) 0.1474(2)
N2 N -0.0358(3) 1.0861(2) 0.1085(2)
N3 N 0.1506(4) 1.1776(3) 0.0673(3)
H25 H 0.1778 1.2328 0.0434
N4 N 0.2431(4) 1.0972(3) 0.1055(3)
H26 H 0.3317 1.0994 0.1052
N5 N 0.4470(3) 0.7447(2) 0.2462(2)
N6 N -0.3340(3) 0.5069(2) 0.3503(2)
N7 N -0.5358(4) 0.1132(2) 0.5909(2)
N8 N -0.0560(3) 0.7680(2) 0.2460(2)
N9 N -0.2688(4) 1.3972(2) -0.0914(2)
N10 N -0.3947(4) 0.4293(2) 0.3920(2)
N11 N -0.1701(4) 0.3381(3) 0.4306(3)
H27 H -0.1197 0.2830 0.4550
N12 N -0.1094(4) 0.4185(3) 0.3903(3)
H28 H -0.0189 0.4167 0.3892
N13 N 0.2812(4) 0.5096(2) 0.3628(3)
N14 N -0.1300(4) 0.8995(3) 0.4381(3)
N15 N -0.3086(4) 0.9903(2) 0.1247(3)
O1 O 0.3561(3) 0.55413(19) 0.28309(19)
O2 O 0.2647(4) 0.5363(2) 0.4309(2)
O3 O 0.2267(3) 0.4444(2) 0.3677(3)
O4 O -0.0123(3) 0.8525(3) 0.4555(2)
O5 O -0.1530(3) 0.9290(2) 0.3525(2)
O6 O -0.2248(4) 0.9165(3) 0.5007(2)
O7 O -0.2709(3) 0.94698(19) 0.20722(19)
O8 O -0.2420(4) 0.9666(2) 0.0573(2)
O9 O -0.4124(3) 1.0542(2) 0.1161(2)
N16 N 0.7048(8) 0.5792(6) 0.0828(6)
O10 O 0.5878(18) 0.6096(8) 0.1286(12)
O11 O 0.7431(10) 0.6176(8) -0.0037(7)
O12 O 0.7875(7) 0.5103(5) 0.1286(5)
Cu1 Cu 0.39118(5) 0.50161(3) 0.17664(4)
Cu2 Cu 0.54284(5) 0.61648(3) 0.28564(4)
Cu3 Cu -0.36079(5) 0.99516(3) 0.33040(4)
Cu4 Cu -0.03139(5) 0.89690(3) 0.20649(4)
N6_2 N 0.6660(3) 0.5069(2) 0.3503(2)
N7A N -0.4642(4) 0.8868(2) 0.4091(2)
N9A N 0.2688(4) 0.6028(2) 0.0914(2)
Cu1A Cu -0.39118(5) 1.49839(3) -0.17664(4)
Cu2_2 Cu -0.45716(5) 0.61648(3) 0.28564(4)
Cu3A Cu -0.63921(5) 0.00484(3) 0.66960(4)
O13 O 0.9104(10) 0.4573(7) 0.1634(7)
C29 C 1.1420(6) 0.2610(4) 0.2680(5)
H29 H 1.2207 0.2443 0.2216
H30 H 1.1746 0.2438 0.3287
H31 H 1.1088 0.3284 0.2435
C30 C 1.0239(6) 0.2100(4) 0.2838(4)
C31 C 1.0511(7) 0.1045(4) 0.3306(4)
H32 H 1.0305 0.0871 0.4002
H33 H 1.1507 0.0811 0.3107
H34 H 0.9896 0.0770 0.3110
O14 O 0.9090(4) 0.2506(3) 0.2628(4)
N17? N 0.6493(8) 0.6338(6) 0.0502(6)
O15? O 0.5892(19) 0.5906(8) 0.1334(13)
O16? O 0.5905(7) 0.7141(5) 0.0042(5)
O17? O 0.7686(11) 0.5999(8) 0.0147(7)
loop_
_geom_bond_atom_site_label_1
_geom_bond_atom_site_label_2
_geom_bond_site_symmetry_1
_geom_bond_site_symmetry_2
C1 C10 1_555 1_555
C2 C3 1_555 1_555
C3 C4 1_555 1_555
C4 H1 1_555 1_555
C5 C4 1_555 1_555
H2 C5 1_555 1_555
C6 H3 1_555 1_555
C7 C3 1_555 1_555
H4 C7 1_555 1_555
C8 H5 1_555 1_555
C9 C8 1_555 1_555
H6 C9 1_555 1_555
C10 C9 1_555 1_555
C11 C10 1_555 1_555
H7 C11 1_555 1_555
C12 C11 1_555 1_555
H8 C12 1_555 1_555
C13 H9 1_555 1_555
H10 C13 1_555 1_555
C14 C13 1_555 1_555
H11 C14 1_555 1_555
H12 C14 1_555 1_555
C15 H13 1_555 1_555
H14 C15 1_555 1_555
C16 C15 1_555 1_555
H15 C16 1_555 1_555
H16 C16 1_555 1_555
C17 H17 1_555 1_555
C18 C17 1_555 1_555
H18 C18 1_555 1_555
C19 C18 1_555 1_555
C20 C19 1_555 1_555
H19 C20 1_555 1_555
C21 C20 1_555 1_555
H20 C21 1_555 1_555
C22 C19 1_555 1_555
C23 C28 1_555 1_555
C24 H21 1_555 1_555
C25 C24 1_555 1_555
H22 C25 1_555 1_555
C26 H23 1_555 1_555
C27 C26 1_555 1_555
H24 C27 1_555 1_555
C28 C25 1_555 1_555
N1 C2 1_555 1_555
N2 C1 1_555 1_555
N3 C1 1_555 1_555
H25 N3 1_555 1_555
N4 C2 1_555 1_555
H26 N4 1_555 1_555
N5 C5 1_555 1_555
N6 C22 1_555 1_555
N7 C24 1_555 1_555
N8 C17 1_555 1_555
N9 C8 1_555 1_555
N10 C23 1_555 1_555
N11 C23 1_555 1_555
H27 N11 1_555 1_555
N12 C22 1_555 1_555
H28 N12 1_555 1_555
N13 O1 1_555 1_555
N14 O4 1_555 1_555
N15 O7 1_555 1_555
O1 Cu1 1_555 1_555
O2 N13 1_555 1_555
O3 N13 1_555 1_555
O5 N14 1_555 1_555
O6 N14 1_555 1_555
O7 Cu3 1_555 1_555
O8 N15 1_555 1_555
O9 N15 1_555 1_555
N16 O10 1_555 1_555
O10 Cu1 1_555 1_555
O11 N16 1_555 1_555
O12 N16 1_555 1_555
Cu1 C15 1_555 1_555
Cu2 N5 1_555 1_555
Cu3 C13 1_555 1_555
Cu4 N1 1_555 1_555
C29 H29 1_555 1_555
H30 C29 1_555 1_555
H31 C29 1_555 1_555
C30 C29 1_555 1_555
C31 C30 1_555 1_555
H32 C31 1_555 1_555
H33 C31 1_555 1_555
H34 C31 1_555 1_555
O14 C30 1_555 1_555
N6_2 Cu2 1_555 1_555
N7A Cu3 1_555 1_555
N9A Cu1 1_555 1_555
Cu1A N9 1_555 1_555
Cu2_2 N6 1_555 1_555
Cu3A N7 1_555 1_555
C6 C7 1_555 1_555
C6 N5 1_555 1_555
C12 N9 1_555 1_555
C14 Cu3 1_555 1_555
C16 Cu1 1_555 1_555
C21 N8 1_555 1_555
C26 C28 1_555 1_555
C27 N7 1_555 1_555
N1 N2 1_555 1_555
N3 N4 1_555 1_555
N6 N10 1_555 1_555
N8 Cu4 1_555 1_555
N11 N12 1_555 1_555
O1 Cu2 1_555 1_555
O5 Cu3 1_555 1_555
O5 Cu4 1_555 1_555
O7 Cu4 1_555 1_555
O10 Cu2 1_555 1_555

#END
