
#######################################################################
#
#                 Cambridge Crystallographic Data Centre
#                                CCDC 
#
#######################################################################
#
# If this CIF has been generated from an entry in the Cambridge 
# Structural Database, then it will include bibliographic, chemical, 
# crystal, experimental, refinement or atomic coordinate data resulting 
# from the CCDC's data processing and validation procedures.
#
#######################################################################

data_TOYJUO
_symmetry_cell_setting           monoclinic
_symmetry_space_group_name_H-M   'C 2/c'
_symmetry_Int_Tables_number      15
_space_group_name_Hall           '-C 2yn'
loop_
_symmetry_equiv_pos_site_id
_symmetry_equiv_pos_as_xyz
1 x,y,z
2 -x,y,1/2-z
3 1/2+x,1/2+y,z
4 1/2-x,1/2+y,1/2-z
5 -x,-y,-z
6 x,-y,1/2+z
7 1/2-x,1/2-y,-z
8 1/2+x,1/2-y,1/2+z
_cell_length_a                   14.256(3)
_cell_length_b                   15.256(3)
_cell_length_c                   23.920(4)
_cell_angle_alpha                90
_cell_angle_beta                 101.486(3)
_cell_angle_gamma                90
_cell_volume                     5098.16
loop_
_atom_site_label
_atom_site_type_symbol
_atom_site_fract_x
_atom_site_fract_y
_atom_site_fract_z
Cd1 Cd 0.49973(3) 0.04534(3) 0.426425(19)
O1 O 0.3940(3) 0.0074(3) 0.47962(19)
O2 O 0.3738(3) -0.0825(3) 0.4059(2)
N1 N 0.4179(4) 0.9584(3) 0.1186(2)
N2 N 0.4083(4) 0.1088(3) 0.3468(2)
O3 O 0.0216(6) -0.0587(6) 0.5737(3)
N3 N 0.3867(4) 0.2229(3) 0.2897(2)
O4 O 0.1088(6) 0.0510(5) 0.5653(3)
N4 N 0.3774(4) 0.8429(3) 0.1636(2)
C1 C 0.2585(4) -0.0875(4) 0.4648(2)
C2 C 0.2201(4) -0.1673(4) 0.4431(2)
H1 H 0.2489 -0.1978 0.4174
C3 C 0.3203(5) 0.4227(4) 0.2023(3)
H2 H 0.2849 0.4378 0.1667
C4 C 0.4345(5) 0.8747(4) 0.1297(3)
H3 H 0.4799 0.8417 0.1160
C5 C 0.3265(5) 0.3356(4) 0.2184(3)
H4 H 0.2955 0.2926 0.1939
C6 C 0.3481(4) -0.0527(4) 0.4490(3)
C7 C 0.3463(5) 0.9807(4) 0.1459(3)
H5 H 0.3196 1.0364 0.1456
C8 C 0.3655(4) 0.4883(4) 0.2381(3)
N5 N 0.0837(5) -0.0231(6) 0.5554(3)
C9 C 0.3795(4) 0.3134(4) 0.2715(3)
C10 C 0.3674(5) 0.6515(4) 0.2568(3)
H6 H 0.3655 0.6402 0.2948
C11 C 0.1395(4) -0.2021(4) 0.4592(3)
C12 C 0.4162(5) 0.4643(4) 0.2919(3)
H7 H 0.4454 0.5073 0.3171
C13 C 0.2143(5) -0.0407(4) 0.5019(3)
H8 H 0.2389 0.0127 0.5168
C14 C 0.4235(4) 0.3778(4) 0.3083(2)
H9 H 0.4581 0.3626 0.3442
C15 C 0.3656(4) 0.5808(4) 0.2186(3)
C16 C 0.3994(5) 0.1940(4) 0.3436(3)
H10 H 0.4016 0.2303 0.3750
C17 C 0.3195(5) 0.9111(4) 0.1732(3)
H11 H 0.2714 0.9093 0.1944
C18 C 0.3741(4) 0.7539(4) 0.1825(3)
C19 C 0.3717(5) 0.6862(4) 0.1439(3)
H12 H 0.3730 0.6981 0.1059
C20 C 0.3673(5) 0.6003(4) 0.1622(3)
H13 H 0.3655 0.5548 0.1361
C21 C 0.3720(5) 0.7365(4) 0.2391(3)
H14 H 0.3736 0.7823 0.2649
C22 C 0.3839(5) 0.1499(4) 0.2557(3)
H15 H 0.3739 0.1484 0.2160
C23 C 0.3985(5) 0.0810(4) 0.2915(3)
H16 H 0.4015 0.0229 0.2803
C24 C 0.1331(5) -0.0751(5) 0.5163(3)
C25 C 0.0950(5) -0.1545(5) 0.4968(3)
H17 H 0.0408 -0.1762 0.5082
C26 C 0.1030(5) -0.2918(4) 0.4376(3)
O5 O 0.1341(4) -0.3272(3) 0.3998(3)
O6 O 0.0395(3) -0.3242(3) 0.4623(2)
Cd1A Cd 0.50027(3) 1.04534(3) 0.073575(19)
Cd1B Cd -0.00027(3) -0.45466(3) 0.426425(19)
Cd1D Cd 0.50027(3) -0.04534(3) 0.573575(19)
O1D O 0.6060(3) -0.0074(3) 0.52038(19)
N1A N 0.5821(4) -0.0416(3) 0.3814(2)
O6B O 0.5395(3) 0.1758(3) 0.4623(2)
O7 O 0.3438(3) 0.7758(3) 0.0014(2)
H18 H 0.3512 0.7254 0.0168
H19 H 0.3637 0.7751 -0.0298
loop_
_geom_bond_atom_site_label_1
_geom_bond_atom_site_label_2
_geom_bond_site_symmetry_1
_geom_bond_site_symmetry_2
Cd1 O1 1_555 1_555
O1 C6 1_555 1_555
O2 Cd1 1_555 1_555
N1 C4 1_555 1_555
N2 Cd1 1_555 1_555
O3 N5 1_555 1_555
N3 C9 1_555 1_555
O4 N5 1_555 1_555
N4 C4 1_555 1_555
C1 C2 1_555 1_555
C2 H1 1_555 1_555
C3 H2 1_555 1_555
C4 H3 1_555 1_555
C5 C3 1_555 1_555
H4 C5 1_555 1_555
C6 O2 1_555 1_555
C7 N1 1_555 1_555
H5 C7 1_555 1_555
C8 C3 1_555 1_555
N5 C24 1_555 1_555
C9 C5 1_555 1_555
C10 H6 1_555 1_555
C11 C2 1_555 1_555
C12 C8 1_555 1_555
H7 C12 1_555 1_555
C13 C1 1_555 1_555
H8 C13 1_555 1_555
C14 C9 1_555 1_555
H9 C14 1_555 1_555
C15 C8 1_555 1_555
C16 N2 1_555 1_555
H10 C16 1_555 1_555
C17 N4 1_555 1_555
H11 C17 1_555 1_555
C18 N4 1_555 1_555
C19 C18 1_555 1_555
H12 C19 1_555 1_555
C20 C15 1_555 1_555
H13 C20 1_555 1_555
C21 C10 1_555 1_555
H14 C21 1_555 1_555
C22 N3 1_555 1_555
H15 C22 1_555 1_555
C23 N2 1_555 1_555
H16 C23 1_555 1_555
C24 C13 1_555 1_555
C25 C11 1_555 1_555
H17 C25 1_555 1_555
C26 C11 1_555 1_555
O5 C26 1_555 1_555
O6 C26 1_555 1_555
O7 H18 1_555 1_555
H19 O7 1_555 1_555
Cd1A N1 1_555 1_555
Cd1B O6 1_555 1_555
Cd1D O1 1_555 1_555
O1D Cd1 1_555 1_555
N1A Cd1 1_555 1_555
O6B Cd1 1_555 1_555
N3 C16 1_555 1_555
C1 C6 1_555 1_555
C7 C17 1_555 1_555
C10 C15 1_555 1_555
C12 C14 1_555 1_555
C18 C21 1_555 1_555
C19 C20 1_555 1_555
C22 C23 1_555 1_555
C24 C25 1_555 1_555
Cd1D O1D 1_555 1_555

#END
