
#######################################################################
#
#                 Cambridge Crystallographic Data Centre
#                                CCDC 
#
#######################################################################
#
# If this CIF has been generated from an entry in the Cambridge 
# Structural Database, then it will include bibliographic, chemical, 
# crystal, experimental, refinement or atomic coordinate data resulting 
# from the CCDC's data processing and validation procedures.
#
#######################################################################

data_TOYJOI
_symmetry_cell_setting           triclinic
_symmetry_space_group_name_H-M   'P -1'
_symmetry_Int_Tables_number      2
_space_group_name_Hall           '-P 1'
loop_
_symmetry_equiv_pos_site_id
_symmetry_equiv_pos_as_xyz
1 x,y,z
2 -x,-y,-z
_cell_length_a                   9.7766(17)
_cell_length_b                   12.204(2)
_cell_length_c                   12.262(2)
_cell_angle_alpha                72.090(3)
_cell_angle_beta                 85.517(3)
_cell_angle_gamma                73.131(3)
_cell_volume                     1332.13
loop_
_atom_site_label
_atom_site_type_symbol
_atom_site_fract_x
_atom_site_fract_y
_atom_site_fract_z
C1 C 0.9569(7) 0.3579(5) 1.3403(4)
C2 C 0.9138(6) 0.4064(4) 1.2159(4)
C3 C 0.9399(5) 0.3302(4) 1.1489(4)
H1 H 0.9915 0.2504 1.1801
C4 C 0.8915(5) 0.3691(4) 1.0367(4)
C5 C 0.9205(5) 0.2825(4) 0.9683(4)
C6 C 0.8199(6) 0.4895(4) 0.9894(5)
H2 H 0.7855 0.5180 0.9143
C7 C 0.8000(6) 0.5673(4) 1.0561(5)
C8 C 0.8465(7) 0.5257(5) 1.1685(5)
H3 H 0.8324 0.5785 1.2119
C9 C 0.5916(5) 0.8666(4) 0.9071(5)
C10 C 0.4467(5) 0.9171(4) 0.8870(5)
H4 H 0.3845 0.8692 0.9054
C11 C 0.3952(5) 1.0392(4) 0.8393(4)
C12 C 0.4885(5) 1.1098(4) 0.8103(4)
H5 H 0.4534 1.1922 0.7770
C13 C 0.6348(5) 1.0579(4) 0.8309(4)
C14 C 0.6861(5) 0.9350(4) 0.8800(4)
H6 H 0.7834 0.8991 0.8944
C15 C 0.7356(5) 1.1340(4) 0.8005(4)
C16 C 0.2381(5) 1.0953(5) 0.8225(4)
Mn1 Mn -0.03571(7) 1.22460(6) 0.74348(6)
Mn2 Mn 0.0000 1.0000 1.0000
N1 N 0.7499(6) 0.6968(5) 1.0072(5)
N2 N 0.6424(6) 0.7342(5) 0.9582(6)
O1 O 0.1569(4) 1.0299(4) 0.8700(3)
O2 O 0.1916(4) 1.2016(3) 0.7624(4)
O3 O 0.5447(11) 0.6733(9) 0.9585(10)
O4 O 0.6990(4) 1.2374(3) 0.7335(3)
O5 O 0.8615(3) 1.0866(3) 0.8434(3)
O6 O 0.9587(6) 0.4288(4) 1.3944(3)
O7 O 0.9833(7) 0.2448(4) 1.3834(4)
O8 O 0.9650(4) 0.1716(3) 1.0231(3)
O9 O 0.8975(4) 0.3242(3) 0.8627(3)
O10 O -0.0057(6) 1.1453(4) 0.6077(4)
H7 H -0.012(6) 1.173(4) 0.5367(11)
H8 H 0.024(8) 1.0707(10) 0.625(4)
O11 O -0.0766(4) 1.3958(3) 0.6145(3)
H9 H -0.1636(14) 1.419(5) 0.605(5)
H10 H -0.043(6) 1.448(4) 0.622(8)
C1A C -0.9569(7) 1.6421(5) 0.6597(4)
C2A C -0.9138(6) 1.5936(4) 0.7841(4)
C3A C -0.9399(5) 1.6698(4) 0.8511(4)
H1A H -0.9915 1.7496 0.8199
C4A C -0.8915(5) 1.6309(4) 0.9633(4)
C5A C -0.9205(5) 1.7175(4) 1.0317(4)
C6A C -0.8199(6) 1.5105(4) 1.0106(5)
H2A H -0.7855 1.4820 1.0857
C7A C -0.8000(6) 1.4327(4) 0.9439(5)
C8A C -0.8465(7) 1.4743(5) 0.8315(5)
H3A H -0.8324 1.4215 0.7881
C9A C -0.5916(5) 1.1334(4) 1.0929(5)
C10A C -0.4467(5) 1.0829(4) 1.1130(5)
H4A H -0.3845 1.1308 1.0946
C11A C -0.3952(5) 0.9608(4) 1.1607(4)
C12A C -0.4885(5) 0.8902(4) 1.1897(4)
H5A H -0.4534 0.8078 1.2230
C13A C -0.6348(5) 0.9421(4) 1.1691(4)
C14A C -0.6861(5) 1.0650(4) 1.1200(4)
H6A H -0.7834 1.1009 1.1056
C15A C -0.7356(5) 0.8660(4) 1.1995(4)
C16A C -0.2381(5) 0.9047(5) 1.1775(4)
Mn1A Mn 0.03571(7) 0.77540(6) 1.25652(6)
N1A N -0.7499(6) 1.3032(5) 0.9928(5)
N2A N -0.6424(6) 1.2658(5) 1.0418(6)
O1A O -0.1569(4) 0.9701(4) 1.1300(3)
O2A O -0.1916(4) 0.7984(3) 1.2376(4)
O3A O -0.5447(11) 1.3267(9) 1.0415(10)
O4A O -0.6990(4) 0.7626(3) 1.2665(3)
O5A O -0.8615(3) 0.9134(3) 1.1566(3)
O6A O -0.9587(6) 1.5712(4) 0.6056(3)
O7A O -0.9833(7) 1.7552(4) 0.6166(4)
O8A O -0.9650(4) 1.8284(3) 0.9769(3)
O9A O -0.8975(4) 1.6758(3) 1.1373(3)
O10A O 0.0057(6) 0.8547(4) 1.3923(4)
H7A H 0.012(6) 0.827(4) 1.4633(11)
H8A H -0.024(8) 0.9293(10) 1.375(4)
O11A O 0.0766(4) 0.6042(3) 1.3855(3)
H9A H 0.1636(14) 0.581(5) 1.395(5)
H10A H 0.043(6) 0.552(4) 1.378(8)
Mn1_2 Mn 0.96429(7) 0.22460(6) 0.74348(6)
Mn1_3 Mn 0.96429(7) 1.22460(6) 0.74348(6)
Mn1A_2 Mn -0.96429(7) 0.77540(6) 1.25652(6)
Mn1A_3 Mn -0.96429(7) 1.77540(6) 1.25652(6)
Mn2_2 Mn -1.0000 1.0000 1.0000
Mn2_3 Mn -1.0000 2.0000 1.0000
Mn2_4 Mn 1.0000 0.0000 1.0000
Mn2_5 Mn 1.0000 1.0000 1.0000
O5_2 O -0.1385(3) 1.0866(3) 0.8434(3)
O5A_2 O 0.1385(3) 0.9134(3) 1.1566(3)
O8_2 O -0.0350(4) 1.1716(3) 1.0231(3)
O8A_2 O 0.0350(4) 0.8284(3) 0.9769(3)
O9_2 O -0.1025(4) 1.3242(3) 0.8627(3)
O9A_2 O 0.1025(4) 0.6758(3) 1.1373(3)
C17 C 0.6259(9) 0.9878(7) 0.5480(8)
H11 H 0.7117 0.9771 0.5831
C18 C 0.5767(9) 0.8885(7) 0.5601(8)
H12 H 0.6322 0.8127 0.6004
C19 C 0.4483(7) 0.9002(6) 0.5138(6)
C20 C 0.3891(8) 0.7982(6) 0.5241(7)
H13 H 0.2917 0.8176 0.5511
H14 H 0.3857 0.7892 0.4485
C21 C 0.4446(8) 0.6364(8) 0.7161(7)
H15 H 0.3725 0.6729 0.7582
C22 C 0.5400(9) 0.5311(7) 0.7555(7)
H16 H 0.5478 0.4798 0.8301
C23 C 0.5784(8) 0.6025(7) 0.5738(7)
C24 C 0.6433(12) 0.6181(12) 0.4576(9)
H17 H 0.7168 0.6573 0.4519
H18 H 0.5709 0.6661 0.4003
H19 H 0.6839 0.5410 0.4459
N3 N 0.4710(5) 0.6822(4) 0.6021(5)
N4 N 0.6239(8) 0.5124(5) 0.6666(6)
C17A C 0.3741(9) 1.0122(7) 0.4520(8)
H11A H 0.2883 1.0229 0.4169
C18A C 0.4233(9) 1.1115(7) 0.4399(8)
H12A H 0.3678 1.1873 0.3996
C19A C 0.5517(7) 1.0998(6) 0.4862(6)
C20A C 0.6109(8) 1.2018(6) 0.4759(7)
H13A H 0.7083 1.1824 0.4489
H14A H 0.6143 1.2108 0.5515
C21A C 0.5554(8) 1.3636(8) 0.2839(7)
H15A H 0.6275 1.3271 0.2418
C22A C 0.4600(9) 1.4689(7) 0.2445(7)
H16A H 0.4522 1.5202 0.1699
C23A C 0.4216(8) 1.3975(7) 0.4262(7)
C24A C 0.3567(12) 1.3819(12) 0.5424(9)
H17A H 0.2832 1.3427 0.5481
H18A H 0.4291 1.3339 0.5997
H19A H 0.3161 1.4590 0.5541
N3A N 0.5290(5) 1.3178(4) 0.3979(5)
N4A N 0.3761(8) 1.4876(5) 0.3334(6)
O13 O 0.1330(7) 0.9081(5) 0.6901(5)
H20 H 0.056(5) 0.898(9) 0.676(8)
H21 H 0.125(9) 0.932(8) 0.748(5)
O12? O 0.545(3) 0.685(2) 1.037(2)
loop_
_geom_bond_atom_site_label_1
_geom_bond_atom_site_label_2
_geom_bond_site_symmetry_1
_geom_bond_site_symmetry_2
C1 C2 1_555 1_555
C2 C3 1_555 1_555
C3 H1 1_555 1_555
C4 C3 1_555 1_555
C5 C4 1_555 1_555
C6 C4 1_555 1_555
H2 C6 1_555 1_555
C7 C6 1_555 1_555
C8 C2 1_555 1_555
H3 C8 1_555 1_555
C9 C10 1_555 1_555
C10 H4 1_555 1_555
C11 C10 1_555 1_555
C12 C11 1_555 1_555
H5 C12 1_555 1_555
C13 C12 1_555 1_555
C14 C9 1_555 1_555
H6 C14 1_555 1_555
C15 C13 1_555 1_555
C16 C11 1_555 1_555
Mn1 O2 1_555 1_555
Mn2 O1 1_555 1_555
N1 C7 1_555 1_555
N2 C9 1_555 1_555
O1 C16 1_555 1_555
O2 C16 1_555 1_555
O3 N2 1_555 1_555
O4 C15 1_555 1_555
O5 C15 1_555 1_555
O6 C1 1_555 1_555
O7 C1 1_555 1_555
O8 C5 1_555 1_555
O9 C5 1_555 1_555
O10 Mn1 1_555 1_555
H7 O10 1_555 1_555
H8 O10 1_555 1_555
O11 Mn1 1_555 1_555
H9 O11 1_555 1_555
H10 O11 1_555 1_555
C17 H11 1_555 1_555
C18 C17 1_555 1_555
H12 C18 1_555 1_555
C19 C18 1_555 1_555
C20 C19 1_555 1_555
H13 C20 1_555 1_555
H14 C20 1_555 1_555
C21 H15 1_555 1_555
C22 C21 1_555 1_555
H16 C22 1_555 1_555
C23 C24 1_555 1_555
C24 H17 1_555 1_555
H18 C24 1_555 1_555
H19 C24 1_555 1_555
N3 C20 1_555 1_555
N4 C22 1_555 1_555
O13 H20 1_555 1_555
H21 O13 1_555 1_555
C1A C2A 1_555 1_555
C2A C3A 1_555 1_555
C3A H1A 1_555 1_555
C4A C3A 1_555 1_555
C5A C4A 1_555 1_555
C6A C4A 1_555 1_555
H2A C6A 1_555 1_555
C7A C6A 1_555 1_555
C8A C2A 1_555 1_555
H3A C8A 1_555 1_555
C9A C10A 1_555 1_555
C10A H4A 1_555 1_555
C11A C10A 1_555 1_555
C12A C11A 1_555 1_555
H5A C12A 1_555 1_555
C13A C12A 1_555 1_555
C14A C9A 1_555 1_555
H6A C14A 1_555 1_555
C15A C13A 1_555 1_555
C16A C11A 1_555 1_555
Mn1A O2A 1_555 1_555
N1A C7A 1_555 1_555
N2A C9A 1_555 1_555
O1A Mn2 1_555 1_555
O2A C16A 1_555 1_555
O3A N2A 1_555 1_555
O4A C15A 1_555 1_555
O5A C15A 1_555 1_555
O6A C1A 1_555 1_555
O7A C1A 1_555 1_555
O8A C5A 1_555 1_555
O9A C5A 1_555 1_555
O10A Mn1A 1_555 1_555
H7A O10A 1_555 1_555
H8A O10A 1_555 1_555
O11A Mn1A 1_555 1_555
H9A O11A 1_555 1_555
H10A O11A 1_555 1_555
Mn1_2 O9 1_555 1_555
Mn1_3 O5 1_555 1_555
Mn1A_2 O5A 1_555 1_555
Mn1A_3 O9A 1_555 1_555
Mn2_2 O5A 1_555 1_555
Mn2_3 O8A 1_555 1_555
Mn2_4 O8 1_555 1_555
Mn2_5 O5 1_555 1_555
O5_2 Mn1 1_555 1_555
O5A_2 Mn2 1_555 1_555
O8_2 Mn2 1_555 1_555
O8A_2 Mn2 1_555 1_555
O9_2 Mn1 1_555 1_555
O9A_2 Mn1A 1_555 1_555
C17A C19 1_555 1_555
H11A C17A 1_555 1_555
C18A C17A 1_555 1_555
H12A C18A 1_555 1_555
C19A C17 1_555 1_555
C20A C19A 1_555 1_555
H13A C20A 1_555 1_555
H14A C20A 1_555 1_555
C21A H15A 1_555 1_555
C22A C21A 1_555 1_555
H16A C22A 1_555 1_555
C23A C24A 1_555 1_555
C24A H17A 1_555 1_555
H18A C24A 1_555 1_555
H19A C24A 1_555 1_555
N3A C20A 1_555 1_555
N4A C22A 1_555 1_555
C7 C8 1_555 1_555
C13 C14 1_555 1_555
Mn2 O5_2 1_555 1_555
N1 N2 1_555 1_555
C21 N3 1_555 1_555
C23 N3 1_555 1_555
C23 N4 1_555 1_555
C7A C8A 1_555 1_555
C13A C14A 1_555 1_555
C16A O1A 1_555 1_555
Mn1A O5A_2 1_555 1_555
N1A N2A 1_555 1_555
C18A C19A 1_555 1_555
C21A N3A 1_555 1_555
C23A N3A 1_555 1_555
C23A N4A 1_555 1_555

#END
