
#######################################################################
#
#                 Cambridge Crystallographic Data Centre
#                                CCDC 
#
#######################################################################
#
# If this CIF has been generated from an entry in the Cambridge 
# Structural Database, then it will include bibliographic, chemical, 
# crystal, experimental, refinement or atomic coordinate data resulting 
# from the CCDC's data processing and validation procedures.
#
#######################################################################

data_TOYRUW
_symmetry_cell_setting           orthorhombic
_symmetry_space_group_name_H-M   'P c a 21'
_symmetry_Int_Tables_number      29
_space_group_name_Hall           'P 2c -2ac'
loop_
_symmetry_equiv_pos_site_id
_symmetry_equiv_pos_as_xyz
1 x,y,z
2 -x,-y,1/2+z
3 1/2-x,y,1/2+z
4 1/2+x,-y,z
_cell_length_a                   16.3440(4)
_cell_length_b                   14.3295(5)
_cell_length_c                   18.4308(5)
_cell_angle_alpha                90
_cell_angle_beta                 90
_cell_angle_gamma                90
_cell_volume                     4316.52
loop_
_atom_site_label
_atom_site_type_symbol
_atom_site_fract_x
_atom_site_fract_y
_atom_site_fract_z
C1 C 0.4735(2) 1.1267(3) 0.3725(3)
C2 C 0.3887(3) 1.1244(3) 0.3697(3)
H1 H 0.3618 1.0673 0.3674
C3 C 0.3437(3) 1.2064(3) 0.3702(3)
C4 C 0.3846(3) 1.2909(3) 0.3738(3)
H2 H 0.3547 1.3460 0.3768
C5 C 0.4692(3) 1.2950(3) 0.3730(3)
C6 C 0.5139(3) 1.2117(3) 0.3716(3)
H3 H 0.5707 1.2134 0.3700
C7 C 0.5184(2) 1.0358(3) 0.3765(3)
C8 C 0.2509(3) 1.2019(4) 0.3678(3)
C9 C 0.6634(3) 0.8969(4) 0.5396(3)
C10 C 0.7461(3) 0.9283(5) 0.5175(3)
H4 H 0.7832 0.8765 0.5189
H5 H 0.7647 0.9760 0.5503
H6 H 0.7439 0.9530 0.4692
C11 C 0.5364(3) 0.8539(4) 0.5402(3)
C12 C 0.4564(3) 0.8292(4) 0.5234(3)
H7 H 0.4382 0.8279 0.4756
C13 C 0.4048(3) 0.8065(4) 0.5801(3)
H8 H 0.3511 0.7892 0.5703
C14 C 0.4318(4) 0.8089(4) 0.6517(3)
H9 H 0.3952 0.7934 0.6885
C15 C 0.5106(4) 0.8333(4) 0.6702(3)
H10 H 0.5284 0.8348 0.7181
C16 C 0.5616(3) 0.8556(3) 0.6125(3)
C17 C 0.6972(3) 0.8935(3) 0.6743(3)
H11 H 0.7471 0.8588 0.6650
H12 H 0.6704 0.8651 0.7157
C18 C 0.7198(3) 0.9941(4) 0.6936(3)
H13 H 0.7527 0.9936 0.7373
H14 H 0.7532 1.0196 0.6548
C19 C 0.6474(3) 1.0581(4) 0.7054(3)
H15 H 0.6091 1.0512 0.6655
H16 H 0.6194 1.0405 0.7498
C20 C 0.6980(3) 1.2011(4) 0.7710(3)
C21 C 0.6986(4) 1.1580(5) 0.8440(3)
H17 H 0.6461 1.1309 0.8538
H18 H 0.7104 1.2048 0.8797
H19 H 0.7399 1.1103 0.8458
C22 C 0.7149(3) 1.2968(4) 0.6813(4)
C23 C 0.7296(3) 1.3739(4) 0.6369(5)
H20 H 0.7482 1.4301 0.6561
C24 C 0.7155(4) 1.3638(6) 0.5645(5)
H21 H 0.7253 1.4142 0.5340
C25 C 0.6869(4) 1.2807(6) 0.5345(4)
H22 H 0.6786 1.2764 0.4847
C26 C 0.6708(3) 1.2046(5) 0.5782(4)
H23 H 0.6513 1.1489 0.5590
C27 C 0.6849(3) 1.2146(4) 0.6517(3)
C28 C 0.5213(3) 0.7264(4) 0.3048(3)
C29 C 0.5073(4) 0.6728(4) 0.3728(3)
H24 H 0.5354 0.7027 0.4122
H25 H 0.5278 0.6105 0.3670
H26 H 0.4498 0.6706 0.3830
C30 C 0.5508(3) 0.8374(4) 0.2299(3)
C31 C 0.5716(3) 0.9213(4) 0.1969(3)
H27 H 0.5882 0.9724 0.2242
C32 C 0.5669(3) 0.9261(5) 0.1219(3)
H28 H 0.5810 0.9811 0.0982
C33 C 0.5409(3) 0.8484(5) 0.0812(3)
H29 H 0.5379 0.8535 0.0310
C34 C 0.5198(3) 0.7653(5) 0.1134(3)
H30 H 0.5031 0.7141 0.0862
C35 C 0.5244(3) 0.7617(4) 0.1884(2)
C36 C 0.4808(3) 0.5971(4) 0.2188(3)
H31 H 0.4459 0.5988 0.1762
H32 H 0.4493 0.5708 0.2584
C37 C 0.5531(3) 0.5363(4) 0.2039(3)
H33 H 0.5881 0.5363 0.2464
H34 H 0.5840 0.5633 0.1642
C38 C 0.5327(4) 0.4360(4) 0.1848(3)
H35 H 0.5820 0.4051 0.1681
H36 H 0.5144 0.4041 0.2283
C39 C 0.3901(3) 0.3964(4) 0.1400(3)
C40 C 0.3470(4) 0.3762(4) 0.2026(4)
H37 H 0.3700 0.3828 0.2485
C41 C 0.2668(5) 0.3456(5) 0.1927(5)
H38 H 0.2354 0.3305 0.2331
C42 C 0.2329(4) 0.3370(4) 0.1245(5)
H39 H 0.1793 0.3158 0.1203
C43 C 0.2753(4) 0.3585(5) 0.0635(4)
H40 H 0.2517 0.3518 0.0178
C44 C 0.3549(3) 0.3909(4) 0.0712(3)
C45 C 0.4790(4) 0.4395(4) 0.0555(3)
C46 C 0.5565(4) 0.4721(6) 0.0218(4)
H41 H 0.5723 0.5306 0.0431
H42 H 0.5486 0.4802 -0.0294
H43 H 0.5987 0.4268 0.0300
Co1 Co 0.60372(3) 0.89244(4) 0.38259(4)
N1 N 0.6021(2) 0.8795(3) 0.4948(2)
N2 N 0.6429(2) 0.8849(3) 0.6103(2)
N3 N 0.6733(2) 1.1553(3) 0.7104(2)
N4 N 0.7236(3) 1.2869(3) 0.7554(3)
N5 N 0.5495(2) 0.8128(3) 0.3025(2)
N6 N 0.5055(2) 0.6928(3) 0.2376(2)
N7 N 0.4694(3) 0.4276(3) 0.1288(3)
N8 N 0.4119(3) 0.4204(4) 0.0189(3)
O1 O 0.59518(18) 1.0342(2) 0.3643(2)
O2 O 0.48057(19) 0.9636(2) 0.3903(2)
O3 O 0.22062(18) 1.1215(2) 0.35601(17)
O4 O 0.2102(2) 1.2719(2) 0.3785(3)
O5 O 0.5045(2) 1.3804(2) 0.3720(3)
H44 H 0.5545 1.3746 0.3712
Co1C Co 0.10372(3) 1.10756(4) 0.38259(4)
O3C O 0.72062(18) 0.8785(2) 0.35601(17)
O6 O 0.6876(4) 0.5424(3) 0.3975(3)
H45 H 0.6581 0.5361 0.4352
H46 H 0.6996 0.5997 0.3918
O7 O 0.6627(3) 0.3758(4) 0.3457(4)
H47 H 0.6981 0.3513 0.3178
H48 H 0.6800 0.4284 0.3605
loop_
_geom_bond_atom_site_label_1
_geom_bond_atom_site_label_2
_geom_bond_site_symmetry_1
_geom_bond_site_symmetry_2
C1 C2 1_555 1_555
C2 H1 1_555 1_555
C3 C2 1_555 1_555
C4 C3 1_555 1_555
H2 C4 1_555 1_555
C5 C4 1_555 1_555
C6 C1 1_555 1_555
H3 C6 1_555 1_555
C7 C1 1_555 1_555
C8 C3 1_555 1_555
C9 C10 1_555 1_555
C10 H4 1_555 1_555
H5 C10 1_555 1_555
H6 C10 1_555 1_555
C11 C12 1_555 1_555
C12 H7 1_555 1_555
C13 C12 1_555 1_555
H8 C13 1_555 1_555
C14 C13 1_555 1_555
H9 C14 1_555 1_555
C15 C14 1_555 1_555
H10 C15 1_555 1_555
C16 C11 1_555 1_555
C17 H11 1_555 1_555
H12 C17 1_555 1_555
C18 C17 1_555 1_555
H13 C18 1_555 1_555
H14 C18 1_555 1_555
C19 C18 1_555 1_555
H15 C19 1_555 1_555
H16 C19 1_555 1_555
C20 C21 1_555 1_555
C21 H17 1_555 1_555
H18 C21 1_555 1_555
H19 C21 1_555 1_555
C22 C23 1_555 1_555
C23 H20 1_555 1_555
C24 C23 1_555 1_555
H21 C24 1_555 1_555
C25 C24 1_555 1_555
H22 C25 1_555 1_555
C26 C25 1_555 1_555
H23 C26 1_555 1_555
C27 C22 1_555 1_555
C28 C29 1_555 1_555
C29 H24 1_555 1_555
H25 C29 1_555 1_555
H26 C29 1_555 1_555
C30 C31 1_555 1_555
C31 H27 1_555 1_555
C32 C31 1_555 1_555
H28 C32 1_555 1_555
C33 C32 1_555 1_555
H29 C33 1_555 1_555
C34 C33 1_555 1_555
H30 C34 1_555 1_555
C35 C30 1_555 1_555
C36 H31 1_555 1_555
H32 C36 1_555 1_555
C37 C36 1_555 1_555
H33 C37 1_555 1_555
H34 C37 1_555 1_555
C38 C37 1_555 1_555
H35 C38 1_555 1_555
H36 C38 1_555 1_555
C39 C40 1_555 1_555
C40 H37 1_555 1_555
C41 C40 1_555 1_555
H38 C41 1_555 1_555
C42 C41 1_555 1_555
H39 C42 1_555 1_555
C43 C42 1_555 1_555
H40 C43 1_555 1_555
C44 C39 1_555 1_555
C45 C46 1_555 1_555
C46 H41 1_555 1_555
H42 C46 1_555 1_555
H43 C46 1_555 1_555
Co1 N1 1_555 1_555
N1 C9 1_555 1_555
N2 C9 1_555 1_555
N3 C19 1_555 1_555
N4 C20 1_555 1_555
N5 C28 1_555 1_555
N6 C28 1_555 1_555
N7 C38 1_555 1_555
N8 C44 1_555 1_555
O1 C7 1_555 1_555
O2 C7 1_555 1_555
O3 C8 1_555 1_555
O4 C8 1_555 1_555
O5 C5 1_555 1_555
H44 O5 1_555 1_555
O6 H45 1_555 1_555
H46 O6 1_555 1_555
O7 H47 1_555 1_555
H48 O7 1_555 1_555
Co1C O3 1_555 1_555
O3C Co1 1_555 1_555
C5 C6 1_555 1_555
C11 N1 1_555 1_555
C15 C16 1_555 1_555
C16 N2 1_555 1_555
C17 N2 1_555 1_555
C20 N3 1_555 1_555
C22 N4 1_555 1_555
C26 C27 1_555 1_555
C27 N3 1_555 1_555
C30 N5 1_555 1_555
C34 C35 1_555 1_555
C35 N6 1_555 1_555
C36 N6 1_555 1_555
C39 N7 1_555 1_555
C43 C44 1_555 1_555
C45 N7 1_555 1_555
C45 N8 1_555 1_555
Co1 N5 1_555 1_555
Co1 O1 1_555 1_555
Co1 O2 1_555 1_555

#END
