
#######################################################################
#
#                 Cambridge Crystallographic Data Centre
#                                CCDC 
#
#######################################################################
#
# If this CIF has been generated from an entry in the Cambridge 
# Structural Database, then it will include bibliographic, chemical, 
# crystal, experimental, refinement or atomic coordinate data resulting 
# from the CCDC's data processing and validation procedures.
#
#######################################################################

data_TOYRIK
_symmetry_cell_setting           triclinic
_symmetry_space_group_name_H-M   'P -1'
_symmetry_Int_Tables_number      2
_space_group_name_Hall           '-P 1'
loop_
_symmetry_equiv_pos_site_id
_symmetry_equiv_pos_as_xyz
1 x,y,z
2 -x,-y,-z
_cell_length_a                   10.616(5)
_cell_length_b                   11.949(4)
_cell_length_c                   14.908(6)
_cell_angle_alpha                80.973(6)
_cell_angle_beta                 83.402(6)
_cell_angle_gamma                73.213(5)
_cell_volume                     1783.23
loop_
_atom_site_label
_atom_site_type_symbol
_atom_site_fract_x
_atom_site_fract_y
_atom_site_fract_z
Co1 Co 0.21632(3) 0.52271(2) 0.825329(19)
Co2 Co -0.5000 0.5000 0.5000
S1 S -0.27512(6) 0.30502(5) 0.61881(4)
O1 O -0.31970(15) 0.37010(14) 0.53038(11)
O2 O -0.3709(2) 0.24856(16) 0.66864(13)
O3 O -0.14271(18) 0.22821(17) 0.60946(14)
O4 O -0.56700(14) 0.49838(14) 0.63853(10)
O5 O -0.58740(14) 0.47914(15) 0.79017(11)
O6 O 0.10481(15) 0.46662(15) 0.72918(11)
O7 O 0.00632(16) 0.55886(16) 0.84535(12)
C1 C -0.52233(19) 0.48785(18) 0.71376(14)
C2 C -0.38142(19) 0.49097(18) 0.72220(14)
C3 C -0.26680(19) 0.41505(17) 0.68499(14)
C4 C -0.1424(2) 0.42276(19) 0.70114(15)
H1 H -0.0668 0.3724 0.6765
C5 C -0.1312(2) 0.50530(19) 0.75382(14)
C6 C -0.2452(2) 0.5824(2) 0.78874(16)
H2 H -0.2383 0.6389 0.8228
C7 C -0.3687(2) 0.5754(2) 0.77306(16)
H3 H -0.4439 0.6274 0.7966
C8 C 0.0020(2) 0.5095(2) 0.77702(16)
N1 N 0.1946(2) 0.69739(17) 0.74777(14)
N2 N 0.40705(19) 1.36680(16) 0.49249(13)
C9 C 0.1649(3) 0.7146(2) 0.66181(17)
H4 H 0.1503 0.6523 0.6381
C10 C 0.1546(3) 0.8198(2) 0.60530(18)
H5 H 0.1337 0.8261 0.5455
C11 C 0.1747(3) 0.9153(2) 0.63636(18)
C12 C 0.2117(6) 0.8958(3) 0.7233(3)
H6 H 0.2321 0.9553 0.7472
C13 C 0.2194(5) 0.7888(3) 0.7760(3)
H7 H 0.2435 0.7798 0.8353
C14 C 0.1641(3) 1.0321(2) 0.5767(2)
H8 H 0.0723 1.0778 0.5780
H9 H 0.2129 1.0754 0.6022
C15 C 0.2155(4) 1.0208(3) 0.4788(2)
H10 H 0.1699 0.9740 0.4542
H11 H 0.3085 0.9785 0.4772
C16 C 0.1985(4) 1.1387(3) 0.4177(2)
H12 H 0.2288 1.1237 0.3557
H13 H 0.1054 1.1804 0.4183
C17 C 0.2724(3) 1.2164(2) 0.4460(2)
C18 C 0.2093(3) 1.3081(3) 0.4962(2)
H14 H 0.1201 1.3212 0.5146
C19 C 0.2794(3) 1.3809(2) 0.5192(2)
H15 H 0.2360 1.4409 0.5539
C20 C 0.4693(3) 1.2750(2) 0.44736(19)
H16 H 0.5592 1.2619 0.4313
N3 N 0.2305(2) 0.59478(18) 0.94667(14)
N4 N 0.24898(19) 1.34467(17) 0.89494(14)
C21 C 0.4057(3) 1.1992(2) 0.4237(2)
H17 H 0.4529 1.1364 0.3928
C22 C 0.1223(3) 0.6570(3) 0.9883(2)
H18 H 0.0418 0.6503 0.9745
C23 C 0.1206(4) 0.7316(3) 1.0509(2)
H19 H 0.0408 0.7727 1.0779
C24 C 0.2355(4) 0.7445(2) 1.07298(18)
C25 C 0.3497(4) 0.6758(3) 1.0339(2)
H20 H 0.4312 0.6782 1.0495
C26 C 0.3440(3) 0.6023(2) 0.9709(2)
H21 H 0.4225 0.5571 0.9451
C27 C 0.2367(6) 0.8309(3) 1.1371(2)
H22 H 0.3234 0.8105 1.1601
H23 H 0.1734 0.8242 1.1886
C28 C 0.2022(5) 0.9619(3) 1.0897(3)
H24 H 0.1220 0.9793 1.0586
H25 H 0.1868 1.0148 1.1355
C29 C 0.3108(4) 0.9814(3) 1.0236(3)
H26 H 0.3235 0.9302 0.9769
H27 H 0.3916 0.9597 1.0546
C30 C 0.2855(4) 1.1104(2) 0.9776(2)
C31 C 0.2373(4) 1.2060(3) 1.0271(2)
H28 H 0.2168 1.1932 1.0896
C32 C 0.2203(3) 1.3197(2) 0.98329(18)
H29 H 0.1869 1.3819 1.0176
C33 C 0.2952(4) 1.2526(2) 0.8477(2)
H30 H 0.3164 1.2678 0.7855
C34 C 0.3131(4) 1.1377(3) 0.8857(2)
H31 H 0.3440 1.0776 0.8492
Co1A Co -1.21632(3) 0.47729(2) 0.174671(19)
S1A S -0.72488(6) 0.69498(5) 0.38119(4)
O1A O -0.68030(15) 0.62990(14) 0.46962(11)
O2A O -0.6291(2) 0.75144(16) 0.33136(13)
O3A O -0.85729(18) 0.77179(17) 0.39054(14)
O4A O -0.43300(14) 0.50162(14) 0.36147(10)
O5A O -0.41260(14) 0.52086(15) 0.20983(11)
O6A O -1.10481(15) 0.53338(15) 0.27082(11)
O7A O -1.00632(16) 0.44114(16) 0.15465(12)
C1A C -0.47767(19) 0.51215(18) 0.28624(14)
C2A C -0.61858(19) 0.50903(18) 0.27780(14)
C3A C -0.73320(19) 0.58495(17) 0.31501(14)
C4A C -0.8576(2) 0.57724(19) 0.29886(15)
H1A H -0.9332 0.6276 0.3235
C5A C -0.8688(2) 0.49470(19) 0.24618(14)
C6A C -0.7548(2) 0.4176(2) 0.21126(16)
H2A H -0.7617 0.3611 0.1772
C7A C -0.6313(2) 0.4246(2) 0.22694(16)
H3A H -0.5561 0.3726 0.2034
C8A C -1.0020(2) 0.4905(2) 0.22298(16)
N1A N -1.1946(2) 0.30261(17) 0.25223(14)
N2A N -1.40705(19) -0.36680(16) 0.50751(13)
C9A C -1.1649(3) 0.2854(2) 0.33819(17)
H4A H -1.1503 0.3477 0.3619
C10A C -1.1546(3) 0.1802(2) 0.39470(18)
H5A H -1.1337 0.1739 0.4545
C11A C -1.1747(3) 0.0847(2) 0.36364(18)
C12A C -1.2117(6) 0.1042(3) 0.2767(3)
H6A H -1.2321 0.0447 0.2528
C13A C -1.2194(5) 0.2112(3) 0.2240(3)
H7A H -1.2435 0.2202 0.1647
C14A C -1.1641(3) -0.0321(2) 0.4233(2)
H8A H -1.0723 -0.0778 0.4220
H9A H -1.2129 -0.0754 0.3978
C15A C -1.2155(4) -0.0208(3) 0.5212(2)
H10A H -1.1699 0.0260 0.5458
H11A H -1.3085 0.0215 0.5228
C16A C -1.1985(4) -0.1387(3) 0.5823(2)
H12A H -1.2288 -0.1237 0.6443
H13A H -1.1054 -0.1804 0.5817
C17A C -1.2724(3) -0.2164(2) 0.5540(2)
C18A C -1.2093(3) -0.3081(3) 0.5038(2)
H14A H -1.1201 -0.3212 0.4854
C19A C -1.2794(3) -0.3809(2) 0.4808(2)
H15A H -1.2360 -0.4409 0.4461
C20A C -1.4693(3) -0.2750(2) 0.55264(19)
H16A H -1.5592 -0.2619 0.5687
N3A N -1.2305(2) 0.40522(18) 0.05333(14)
N4A N -1.24898(19) -0.34467(17) 0.10506(14)
C21A C -1.4057(3) -0.1992(2) 0.5763(2)
H17A H -1.4529 -0.1364 0.6072
C22A C -1.1223(3) 0.3430(3) 0.0117(2)
H18A H -1.0418 0.3497 0.0255
C23A C -1.1206(4) 0.2684(3) -0.0509(2)
H19A H -1.0408 0.2273 -0.0779
C24A C -1.2355(4) 0.2555(2) -0.07298(18)
C25A C -1.3497(4) 0.3242(3) -0.0339(2)
H20A H -1.4312 0.3218 -0.0495
C26A C -1.3440(3) 0.3977(2) 0.0291(2)
H21A H -1.4225 0.4429 0.0549
C27A C -1.2367(6) 0.1691(3) -0.1371(2)
H22A H -1.3234 0.1895 -0.1601
H23A H -1.1734 0.1758 -0.1886
C28A C -1.2022(5) 0.0381(3) -0.0897(3)
H24A H -1.1220 0.0207 -0.0586
H25A H -1.1868 -0.0148 -0.1355
C29A C -1.3108(4) 0.0186(3) -0.0236(3)
H26A H -1.3235 0.0698 0.0231
H27A H -1.3916 0.0403 -0.0546
C30A C -1.2855(4) -0.1104(2) 0.0224(2)
C31A C -1.2373(4) -0.2060(3) -0.0271(2)
H28A H -1.2168 -0.1932 -0.0896
C32A C -1.2203(3) -0.3197(2) 0.01671(18)
H29A H -1.1869 -0.3819 -0.0176
C33A C -1.2952(4) -0.2526(2) 0.1523(2)
H30A H -1.3164 -0.2678 0.2145
C34A C -1.3131(4) -0.1377(3) 0.1143(2)
H31A H -1.3440 -0.0776 0.1508
Co1_2 Co -0.78368(3) 0.52271(2) 0.825329(19)
Co1_3 Co 0.21632(3) 1.52271(2) 0.825329(19)
Co1A_2 Co -1.21632(3) -0.52271(2) 0.174671(19)
Co1A_3 Co -0.21632(3) 0.47729(2) 0.174671(19)
Co2_2 Co -1.5000 -0.5000 0.5000
Co2_3 Co 0.5000 1.5000 0.5000
O5_2 O 0.41260(14) 0.47914(15) 0.79017(11)
O5A_2 O -1.41260(14) 0.52086(15) 0.20983(11)
N2_2 N -0.59295(19) 0.36680(16) 0.49249(13)
N2A_2 N -0.40705(19) 0.63320(16) 0.50751(13)
N4_2 N 0.24898(19) 0.34467(17) 0.89494(14)
N4A_2 N -1.24898(19) 0.65533(17) 0.10506(14)
O8 O -0.5331(4) 0.0983(3) 0.6690(2)
loop_
_geom_bond_atom_site_label_1
_geom_bond_atom_site_label_2
_geom_bond_site_symmetry_1
_geom_bond_site_symmetry_2
Co1 O6 1_555 1_555
Co2 O1 1_555 1_555
S1 O1 1_555 1_555
O2 S1 1_555 1_555
O3 S1 1_555 1_555
O4 Co2 1_555 1_555
O5 C1 1_555 1_555
O6 C8 1_555 1_555
O7 Co1 1_555 1_555
C1 O4 1_555 1_555
C2 C1 1_555 1_555
C3 S1 1_555 1_555
C4 C3 1_555 1_555
H1 C4 1_555 1_555
C5 C4 1_555 1_555
C6 C5 1_555 1_555
H2 C6 1_555 1_555
C7 C2 1_555 1_555
H3 C7 1_555 1_555
C8 O7 1_555 1_555
N1 Co1 1_555 1_555
N2 C19 1_555 1_555
C9 N1 1_555 1_555
H4 C9 1_555 1_555
C10 C9 1_555 1_555
H5 C10 1_555 1_555
C11 C10 1_555 1_555
C12 C11 1_555 1_555
H6 C12 1_555 1_555
C13 N1 1_555 1_555
H7 C13 1_555 1_555
C14 C11 1_555 1_555
H8 C14 1_555 1_555
H9 C14 1_555 1_555
C15 C14 1_555 1_555
H10 C15 1_555 1_555
H11 C15 1_555 1_555
C16 C15 1_555 1_555
H12 C16 1_555 1_555
H13 C16 1_555 1_555
C17 C16 1_555 1_555
C18 C17 1_555 1_555
H14 C18 1_555 1_555
C19 C18 1_555 1_555
H15 C19 1_555 1_555
C20 N2 1_555 1_555
H16 C20 1_555 1_555
N3 Co1 1_555 1_555
N4 C32 1_555 1_555
C21 C17 1_555 1_555
H17 C21 1_555 1_555
C22 N3 1_555 1_555
H18 C22 1_555 1_555
C23 C22 1_555 1_555
H19 C23 1_555 1_555
C24 C23 1_555 1_555
C25 C24 1_555 1_555
H20 C25 1_555 1_555
C26 N3 1_555 1_555
H21 C26 1_555 1_555
C27 C24 1_555 1_555
H22 C27 1_555 1_555
H23 C27 1_555 1_555
C28 C27 1_555 1_555
H24 C28 1_555 1_555
H25 C28 1_555 1_555
C29 C28 1_555 1_555
H26 C29 1_555 1_555
H27 C29 1_555 1_555
C30 C29 1_555 1_555
C31 C30 1_555 1_555
H28 C31 1_555 1_555
C32 C31 1_555 1_555
H29 C32 1_555 1_555
C33 N4 1_555 1_555
H30 C33 1_555 1_555
C34 C30 1_555 1_555
H31 C34 1_555 1_555
Co1A O6A 1_555 1_555
S1A O1A 1_555 1_555
O1A Co2 1_555 1_555
O2A S1A 1_555 1_555
O3A S1A 1_555 1_555
O4A Co2 1_555 1_555
O5A C1A 1_555 1_555
O6A C8A 1_555 1_555
O7A Co1A 1_555 1_555
C1A O4A 1_555 1_555
C2A C1A 1_555 1_555
C3A S1A 1_555 1_555
C4A C3A 1_555 1_555
H1A C4A 1_555 1_555
C5A C4A 1_555 1_555
C6A C5A 1_555 1_555
H2A C6A 1_555 1_555
C7A C2A 1_555 1_555
H3A C7A 1_555 1_555
C8A O7A 1_555 1_555
N1A Co1A 1_555 1_555
N2A C19A 1_555 1_555
C9A N1A 1_555 1_555
H4A C9A 1_555 1_555
C10A C9A 1_555 1_555
H5A C10A 1_555 1_555
C11A C10A 1_555 1_555
C12A C11A 1_555 1_555
H6A C12A 1_555 1_555
C13A N1A 1_555 1_555
H7A C13A 1_555 1_555
C14A C11A 1_555 1_555
H8A C14A 1_555 1_555
H9A C14A 1_555 1_555
C15A C14A 1_555 1_555
H10A C15A 1_555 1_555
H11A C15A 1_555 1_555
C16A C15A 1_555 1_555
H12A C16A 1_555 1_555
H13A C16A 1_555 1_555
C17A C16A 1_555 1_555
C18A C17A 1_555 1_555
H14A C18A 1_555 1_555
C19A C18A 1_555 1_555
H15A C19A 1_555 1_555
C20A N2A 1_555 1_555
H16A C20A 1_555 1_555
N3A Co1A 1_555 1_555
N4A C32A 1_555 1_555
C21A C17A 1_555 1_555
H17A C21A 1_555 1_555
C22A N3A 1_555 1_555
H18A C22A 1_555 1_555
C23A C22A 1_555 1_555
H19A C23A 1_555 1_555
C24A C23A 1_555 1_555
C25A C24A 1_555 1_555
H20A C25A 1_555 1_555
C26A N3A 1_555 1_555
H21A C26A 1_555 1_555
C27A C24A 1_555 1_555
H22A C27A 1_555 1_555
H23A C27A 1_555 1_555
C28A C27A 1_555 1_555
H24A C28A 1_555 1_555
H25A C28A 1_555 1_555
C29A C28A 1_555 1_555
H26A C29A 1_555 1_555
H27A C29A 1_555 1_555
C30A C29A 1_555 1_555
C31A C30A 1_555 1_555
H28A C31A 1_555 1_555
C32A C31A 1_555 1_555
H29A C32A 1_555 1_555
C33A N4A 1_555 1_555
H30A C33A 1_555 1_555
C34A C30A 1_555 1_555
H31A C34A 1_555 1_555
Co1_2 O5 1_555 1_555
Co1_3 N4 1_555 1_555
Co1A_2 N4A 1_555 1_555
Co1A_3 O5A 1_555 1_555
Co2_2 N2A 1_555 1_555
Co2_3 N2 1_555 1_555
O5_2 Co1 1_555 1_555
O5A_2 Co1A 1_555 1_555
N2_2 Co2 1_555 1_555
N2A_2 Co2 1_555 1_555
N4_2 Co1 1_555 1_555
N4A_2 Co1A 1_555 1_555
C2 C3 1_555 1_555
C5 C8 1_555 1_555
C6 C7 1_555 1_555
C12 C13 1_555 1_555
C20 C21 1_555 1_555
C25 C26 1_555 1_555
C33 C34 1_555 1_555
C2A C3A 1_555 1_555
C5A C8A 1_555 1_555
C6A C7A 1_555 1_555
C12A C13A 1_555 1_555
C20A C21A 1_555 1_555
C25A C26A 1_555 1_555
C33A C34A 1_555 1_555

#END
