
#######################################################################
#
#                 Cambridge Crystallographic Data Centre
#                                CCDC 
#
#######################################################################
#
# If this CIF has been generated from an entry in the Cambridge 
# Structural Database, then it will include bibliographic, chemical, 
# crystal, experimental, refinement or atomic coordinate data resulting 
# from the CCDC's data processing and validation procedures.
#
#######################################################################

data_TOYSEH
_symmetry_cell_setting           monoclinic
_symmetry_space_group_name_H-M   'I 2/c'
_symmetry_Int_Tables_number      15
_space_group_name_Hall           '-I 2yc'
loop_
_symmetry_equiv_pos_site_id
_symmetry_equiv_pos_as_xyz
1 x,y,z
2 -x,y,1/2-z
3 1/2+x,1/2+y,1/2+z
4 1/2-x,1/2+y,-z
5 -x,-y,-z
6 x,-y,1/2+z
7 1/2-x,1/2-y,1/2-z
8 1/2+x,1/2-y,z
_cell_length_a                   18.2916(6)
_cell_length_b                   20.5722(10)
_cell_length_c                   17.4711(7)
_cell_angle_alpha                90
_cell_angle_beta                 92.174(3)
_cell_angle_gamma                90
_cell_volume                     6569.62
loop_
_atom_site_label
_atom_site_type_symbol
_atom_site_fract_x
_atom_site_fract_y
_atom_site_fract_z
Co1 Co 0.62349(3) 0.70807(3) 0.50528(4)
O1 O 0.6811(2) 0.7708(3) 0.4364(2)
O2 O 0.7480(3) 0.6973(2) 0.4885(4)
O3 O 1.02297(16) 0.76063(18) 0.4736(2)
O4 O 1.05363(16) 0.82368(18) 0.37802(19)
O5 O 0.82429(18) 0.8391(2) 0.20934(19)
H1 H 0.8593 0.8353 0.1817
N1 N 0.59738(18) 0.61381(18) 0.5322(2)
N2 N 0.5461(2) 0.5306(2) 0.5895(2)
N3 N 0.62402(19) 0.8187(2) 0.7067(2)
N4 N 0.63690(18) 0.74823(18) 0.6124(2)
C1 C 0.8030(2) 0.7682(2) 0.3970(3)
C2 C 0.8747(2) 0.7648(2) 0.4248(3)
H2 H 0.8856 0.7467 0.4727
C3 C 0.9301(2) 0.7884(2) 0.3806(3)
C4 C 0.9133(2) 0.8119(2) 0.3082(3)
H3 H 0.9508 0.8256 0.2775
C5 C 0.8427(2) 0.8155(3) 0.2809(3)
C6 C 0.7861(2) 0.7949(3) 0.3258(3)
H4 H 0.7377 0.7990 0.3083
C7 C 0.7410(3) 0.7417(4) 0.4442(3)
C8 C 1.0079(2) 0.7906(2) 0.4112(3)
C9 C 0.4906(3) 0.6403(3) 0.6108(3)
H5 H 0.4421 0.6292 0.5925
H6 H 0.5016 0.6840 0.5959
H7 H 0.4936 0.6370 0.6657
C10 C 0.5446(2) 0.5945(3) 0.5771(3)
C11 C 0.6349(2) 0.5582(2) 0.5143(2)
C12 C 0.6936(3) 0.5478(2) 0.4678(3)
H8 H 0.7137 0.5820 0.4409
C13 C 0.7219(4) 0.4856(3) 0.4623(3)
H9 H 0.7620 0.4786 0.4323
C14 C 0.6920(4) 0.4337(3) 0.5001(4)
H10 H 0.7121 0.3925 0.4945
C15 C 0.6336(4) 0.4417(3) 0.5456(3)
H11 H 0.6140 0.4069 0.5718
C16 C 0.6039(3) 0.5052(2) 0.5512(2)
C17 C 0.4972(3) 0.4928(3) 0.6386(3)
H12 H 0.4929 0.4487 0.6196
H13 H 0.4488 0.5122 0.6368
C18 C 0.5281(4) 0.4920(4) 0.7225(3)
H14 H 0.5583 0.4536 0.7302
H15 H 0.5590 0.5298 0.7310
C19 C 0.5304(3) 0.8773(3) 0.7818(3)
H16 H 0.5247 0.9150 0.8144
H17 H 0.5260 0.8387 0.8131
C20 C 0.6056(3) 0.8788(3) 0.7476(3)
H18 H 0.6077 0.9151 0.7124
H19 H 0.6421 0.8861 0.7884
C21 C 0.6468(2) 0.7624(3) 0.7417(3)
C22 C 0.6618(3) 0.7460(4) 0.8166(3)
H20 H 0.6564 0.7758 0.8560
C23 C 0.6850(3) 0.6843(4) 0.8310(4)
H21 H 0.6951 0.6720 0.8816
C24 C 0.6941(3) 0.6398(4) 0.7745(4)
H22 H 0.7105 0.5983 0.7874
C25 C 0.6792(2) 0.6550(3) 0.6975(3)
H23 H 0.6853 0.6247 0.6588
C26 C 0.6551(2) 0.7176(2) 0.6820(3)
C27 C 0.6191(2) 0.8096(2) 0.6295(3)
C28 C 0.5988(3) 0.8591(3) 0.5730(3)
H24 H 0.6191 0.8482 0.5248
H25 H 0.6174 0.9005 0.5900
H26 H 0.5464 0.8612 0.5671
N1A N 0.40262(18) 0.61381(18) 0.9678(2)
N2A N 0.4539(2) 0.5306(2) 0.9105(2)
C9A C 0.5094(3) 0.6403(3) 0.8892(3)
H5A H 0.5579 0.6292 0.9075
H6A H 0.4984 0.6840 0.9041
H7A H 0.5064 0.6370 0.8343
C10A C 0.4554(2) 0.5945(3) 0.9229(3)
C11A C 0.3651(2) 0.5582(2) 0.9857(2)
C12A C 0.3064(3) 0.5478(2) 1.0322(3)
H8A H 0.2863 0.5820 1.0591
C13A C 0.2781(4) 0.4856(3) 1.0377(3)
H9A H 0.2380 0.4786 1.0677
C14A C 0.3080(4) 0.4337(3) 0.9999(4)
H10A H 0.2879 0.3925 1.0055
C15A C 0.3664(4) 0.4417(3) 0.9544(3)
H11A H 0.3860 0.4069 0.9282
C16A C 0.3961(3) 0.5052(2) 0.9488(2)
C17A C 0.5028(3) 0.4928(3) 0.8614(3)
H12A H 0.5071 0.4487 0.8804
H13A H 0.5512 0.5122 0.8632
C18A C 0.4719(4) 0.4920(4) 0.7775(3)
H14A H 0.4417 0.4536 0.7698
H15A H 0.4410 0.5298 0.7690
N3A N 0.37598(19) 0.8187(2) 0.7933(2)
N4A N 0.36310(18) 0.74823(18) 0.8876(2)
C19A C 0.4696(3) 0.8773(3) 0.7182(3)
H16A H 0.4753 0.9150 0.6856
H17A H 0.4740 0.8387 0.6869
C20A C 0.3944(3) 0.8788(3) 0.7524(3)
H18A H 0.3923 0.9151 0.7876
H19A H 0.3579 0.8861 0.7116
C21A C 0.3532(2) 0.7624(3) 0.7583(3)
C22A C 0.3382(3) 0.7460(4) 0.6834(3)
H20A H 0.3436 0.7758 0.6440
C23A C 0.3150(3) 0.6843(4) 0.6690(4)
H21A H 0.3049 0.6720 0.6184
C24A C 0.3059(3) 0.6398(4) 0.7255(4)
H22A H 0.2895 0.5983 0.7126
C25A C 0.3208(2) 0.6550(3) 0.8025(3)
H23A H 0.3147 0.6247 0.8412
C26A C 0.3449(2) 0.7176(2) 0.8180(3)
C27A C 0.3809(2) 0.8096(2) 0.8705(3)
C28A C 0.4012(3) 0.8591(3) 0.9270(3)
H24A H 0.3809 0.8482 0.9752
H25A H 0.3826 0.9005 0.9100
H26A H 0.4536 0.8612 0.9329
Co1A Co 0.37651(3) 0.70807(3) 0.99472(4)
O1A O 0.3189(2) 0.7708(3) 1.0636(2)
O2A O 0.2520(3) 0.6973(2) 1.0115(4)
O3A O -0.02297(16) 0.76063(18) 1.0264(2)
O4A O -0.05363(16) 0.82368(18) 1.12198(19)
O5A O 0.17571(18) 0.8391(2) 1.29066(19)
H1A H 0.1407 0.8353 1.3183
C1A C 0.1970(2) 0.7682(2) 1.1030(3)
C2A C 0.1253(2) 0.7648(2) 1.0752(3)
H2A H 0.1144 0.7467 1.0273
C3A C 0.0699(2) 0.7884(2) 1.1194(3)
C4A C 0.0867(2) 0.8119(2) 1.1918(3)
H3A H 0.0492 0.8256 1.2225
C5A C 0.1573(2) 0.8155(3) 1.2191(3)
C6A C 0.2139(2) 0.7949(3) 1.1742(3)
H4A H 0.2623 0.7990 1.1917
C7A C 0.2590(3) 0.7417(4) 1.0558(3)
C8A C -0.0079(2) 0.7906(2) 1.0888(3)
Co1F Co -0.12349(3) 0.79193(3) 0.99472(4)
Co1G Co 1.12349(3) 0.79193(3) 0.50528(4)
O3F O 0.47703(16) 0.73937(18) 1.0264(2)
O3G O 0.52297(16) 0.73937(18) 0.4736(2)
loop_
_geom_bond_atom_site_label_1
_geom_bond_atom_site_label_2
_geom_bond_site_symmetry_1
_geom_bond_site_symmetry_2
Co1 O1 1_555 1_555
O1 C7 1_555 1_555
O2 Co1 1_555 1_555
O3 C8 1_555 1_555
O4 C8 1_555 1_555
O5 H1 1_555 1_555
N1 Co1 1_555 1_555
N2 C10 1_555 1_555
N3 C20 1_555 1_555
N4 Co1 1_555 1_555
C1 C2 1_555 1_555
C2 H2 1_555 1_555
C3 C2 1_555 1_555
C4 C3 1_555 1_555
H3 C4 1_555 1_555
C5 O5 1_555 1_555
C6 C1 1_555 1_555
H4 C6 1_555 1_555
C7 O2 1_555 1_555
C8 C3 1_555 1_555
C9 H5 1_555 1_555
H6 C9 1_555 1_555
H7 C9 1_555 1_555
C10 N1 1_555 1_555
C11 N1 1_555 1_555
C12 C11 1_555 1_555
H8 C12 1_555 1_555
C13 C12 1_555 1_555
H9 C13 1_555 1_555
C14 C13 1_555 1_555
H10 C14 1_555 1_555
C15 C14 1_555 1_555
H11 C15 1_555 1_555
C16 N2 1_555 1_555
C17 N2 1_555 1_555
H12 C17 1_555 1_555
H13 C17 1_555 1_555
C18 C17 1_555 1_555
H14 C18 1_555 1_555
H15 C18 1_555 1_555
C19 H16 1_555 1_555
H17 C19 1_555 1_555
C20 C19 1_555 1_555
H18 C20 1_555 1_555
H19 C20 1_555 1_555
C21 N3 1_555 1_555
C22 C21 1_555 1_555
H20 C22 1_555 1_555
C23 C22 1_555 1_555
H21 C23 1_555 1_555
C24 C23 1_555 1_555
H22 C24 1_555 1_555
C25 C24 1_555 1_555
H23 C25 1_555 1_555
C26 N4 1_555 1_555
C27 N3 1_555 1_555
C28 C27 1_555 1_555
H24 C28 1_555 1_555
H25 C28 1_555 1_555
H26 C28 1_555 1_555
N1A C10A 1_555 1_555
N2A C10A 1_555 1_555
C9A H5A 1_555 1_555
H6A C9A 1_555 1_555
H7A C9A 1_555 1_555
C10A C9A 1_555 1_555
C11A N1A 1_555 1_555
C12A C11A 1_555 1_555
H8A C12A 1_555 1_555
C13A C12A 1_555 1_555
H9A C13A 1_555 1_555
C14A C13A 1_555 1_555
H10A C14A 1_555 1_555
C15A C14A 1_555 1_555
H11A C15A 1_555 1_555
C16A N2A 1_555 1_555
C17A N2A 1_555 1_555
H12A C17A 1_555 1_555
H13A C17A 1_555 1_555
C18A C18 1_555 1_555
H14A C18A 1_555 1_555
H15A C18A 1_555 1_555
N3A C20A 1_555 1_555
N4A C26A 1_555 1_555
C19A C19 1_555 1_555
H16A C19A 1_555 1_555
H17A C19A 1_555 1_555
C20A C19A 1_555 1_555
H18A C20A 1_555 1_555
H19A C20A 1_555 1_555
C21A N3A 1_555 1_555
C22A C21A 1_555 1_555
H20A C22A 1_555 1_555
C23A C22A 1_555 1_555
H21A C23A 1_555 1_555
C24A C23A 1_555 1_555
H22A C24A 1_555 1_555
C25A C24A 1_555 1_555
H23A C25A 1_555 1_555
C26A C21A 1_555 1_555
C27A N3A 1_555 1_555
C28A C27A 1_555 1_555
H24A C28A 1_555 1_555
H25A C28A 1_555 1_555
H26A C28A 1_555 1_555
Co1A N1A 1_555 1_555
O1A Co1A 1_555 1_555
O2A Co1A 1_555 1_555
O3A C8A 1_555 1_555
O4A C8A 1_555 1_555
O5A H1A 1_555 1_555
C1A C2A 1_555 1_555
C2A H2A 1_555 1_555
C3A C2A 1_555 1_555
C4A C3A 1_555 1_555
H3A C4A 1_555 1_555
C5A O5A 1_555 1_555
C6A C1A 1_555 1_555
H4A C6A 1_555 1_555
C7A O1A 1_555 1_555
C8A C3A 1_555 1_555
Co1F O3A 1_555 1_555
Co1G O3 1_555 1_555
O3F Co1A 1_555 1_555
O3G Co1 1_555 1_555
N4 C27 1_555 1_555
C1 C7 1_555 1_555
C4 C5 1_555 1_555
C5 C6 1_555 1_555
C9 C10 1_555 1_555
C11 C16 1_555 1_555
C15 C16 1_555 1_555
C21 C26 1_555 1_555
C25 C26 1_555 1_555
C11A C16A 1_555 1_555
C15A C16A 1_555 1_555
C17A C18A 1_555 1_555
N4A C27A 1_555 1_555
N4A Co1A 1_555 1_555
C25A C26A 1_555 1_555
O2A C7A 1_555 1_555
C1A C7A 1_555 1_555
C4A C5A 1_555 1_555
C5A C6A 1_555 1_555

#END
