
#######################################################################
#
#                 Cambridge Crystallographic Data Centre
#                                CCDC 
#
#######################################################################
#
# If this CIF has been generated from an entry in the Cambridge 
# Structural Database, then it will include bibliographic, chemical, 
# crystal, experimental, refinement or atomic coordinate data resulting 
# from the CCDC's data processing and validation procedures.
#
#######################################################################

data_TOZFEV
_symmetry_cell_setting           monoclinic
_symmetry_space_group_name_H-M   'P 2/n'
_symmetry_Int_Tables_number      13
_space_group_name_Hall           '-P 2yac'
loop_
_symmetry_equiv_pos_site_id
_symmetry_equiv_pos_as_xyz
1 x,y,z
2 1/2-x,y,1/2-z
3 -x,-y,-z
4 1/2+x,-y,1/2+z
_cell_length_a                   24.165(2)
_cell_length_b                   13.4565(12)
_cell_length_c                   27.388(3)
_cell_angle_alpha                90
_cell_angle_beta                 111.227(6)
_cell_angle_gamma                90
_cell_volume                     8301.69
loop_
_atom_site_label
_atom_site_type_symbol
_atom_site_fract_x
_atom_site_fract_y
_atom_site_fract_z
C1 C 0.1274(4) 0.6934(7) 0.2361(4)
H1 H 0.1036 0.7495 0.2256
C2 C 0.1399(4) 0.5362(7) 0.2664(4)
H2 H 0.1254 0.4801 0.2775
C3 C 0.1829(4) 0.6974(7) 0.2350(5)
H3 H 0.1962 0.7550 0.2240
C4 C 0.1964(4) 0.5339(6) 0.2662(4)
H4 H 0.2194 0.4769 0.2770
C5 C 0.2195(3) 0.6165(6) 0.2499(3)
C6 C -0.1299(4) 0.4168(6) 0.2581(4)
H5 H -0.1094 0.4766 0.2619
C7 C -0.1325(3) 0.2495(6) 0.2497(3)
H6 H -0.1137 0.1901 0.2478
C8 C -0.1872(3) 0.4186(6) 0.2555(4)
H7 H -0.2050 0.4792 0.2572
C9 C -0.1909(3) 0.2455(6) 0.2465(3)
H8 H -0.2107 0.1850 0.2416
C10 C -0.2195(3) 0.3321(5) 0.2505(3)
C11 C 0.0468(3) 0.4898(6) 0.3562(3)
C12 C 0.0848(3) 0.4701(6) 0.4115(3)
C13 C 0.1372(3) 0.5209(6) 0.4361(3)
H9 H 0.1469 0.5750 0.4196
C14 C 0.0698(3) 0.3952(6) 0.4388(3)
H10 H 0.0336 0.3627 0.4237
C15 C 0.1758(3) 0.4913(7) 0.4855(3)
H11 H 0.2116 0.5246 0.5011
C16 C 0.1074(4) 0.3674(7) 0.4881(3)
H12 H 0.0961 0.3169 0.5056
C17 C 0.1618(3) 0.4136(6) 0.5118(3)
C18 C 0.2047(3) 0.3669(7) 0.5632(3)
C19 C 0.2594(4) 0.4323(9) 0.5904(4)
C20 C 0.2275(4) 0.2692(9) 0.5461(4)
C21 C 0.1756(4) 0.3495(7) 0.6037(3)
C22 C 0.1340(4) 0.4139(6) 0.6084(3)
H13 H 0.1228 0.4685 0.5862
C23 C 0.1913(4) 0.2663(8) 0.6375(4)
H14 H 0.2189 0.2204 0.6351
C24 C 0.1086(3) 0.4000(6) 0.6450(3)
H15 H 0.0805 0.4453 0.6471
C25 C 0.1648(4) 0.2540(7) 0.6746(4)
H16 H 0.1753 0.1996 0.6970
C26 C 0.1238(3) 0.3199(5) 0.6789(3)
C27 C 0.0962(3) 0.3038(6) 0.7185(3)
C28 C 0.0402(3) -0.2017(6) -0.1675(3)
C29 C 0.0780(3) -0.1993(6) -0.1102(3)
C30 C 0.1077(4) -0.2822(7) -0.0868(3)
H17 H 0.1052 -0.3400 -0.1060
C31 C 0.0827(3) -0.1141(6) -0.0810(3)
H18 H 0.0636 -0.0564 -0.0971
C32 C 0.1421(4) -0.2800(9) -0.0332(4)
H19 H 0.1630 -0.3367 -0.0176
C33 C 0.1156(4) -0.1137(7) -0.0280(3)
H20 H 0.1174 -0.0562 -0.0086
C34 C 0.1459(4) -0.1984(9) -0.0032(3)
C35 C 0.1471(4) -0.1497(7) 0.0866(3)
C36 C 0.1713(4) -0.0937(8) 0.1319(3)
H21 H 0.2110 -0.0755 0.1431
C37 C 0.0873(4) -0.1766(7) 0.0713(3)
H22 H 0.0696 -0.2137 0.0409
C38 C 0.1379(3) -0.0645(6) 0.1606(3)
H23 H 0.1552 -0.0258 0.1904
C39 C 0.0542(4) -0.1480(6) 0.1012(3)
H24 H 0.0147 -0.1671 0.0911
C40 C 0.0796(3) -0.0915(6) 0.1460(3)
C41 C 0.0441(4) -0.0651(6) 0.1792(3)
C42 C -0.3754(3) -0.2578(6) -0.2058(3)
C43 C -0.3089(3) -0.2671(6) -0.1756(3)
C44 C -0.2695(3) -0.2080(7) -0.1878(3)
H25 H -0.2838 -0.1621 -0.2148
C45 C -0.2875(3) -0.3327(6) -0.1351(3)
H26 H -0.3139 -0.3727 -0.1263
C46 C -0.2276(3) -0.3407(6) -0.1070(3)
H27 H -0.2141 -0.3855 -0.0793
C47 C -0.2089(3) -0.2154(7) -0.1606(3)
H28 H -0.1830 -0.1753 -0.1700
C48 C -0.1868(3) -0.2822(6) -0.1196(3)
C49 C -0.1203(3) -0.2976(7) -0.0895(3)
C50 C -0.1008(5) -0.3851(12) -0.1150(4)
C51 C -0.0827(4) -0.2028(11) -0.0932(4)
C52 C -0.1062(3) -0.3121(6) -0.0303(3)
C53 C -0.0684(4) -0.3845(7) 0.0006(3)
H29 H -0.0521 -0.4318 -0.0150
C54 C -0.1295(3) -0.2420(6) -0.0047(3)
H30 H -0.1554 -0.1934 -0.0244
C55 C -0.0547(4) -0.3869(6) 0.0543(3)
H31 H -0.0304 -0.4371 0.0740
C56 C -0.1150(3) -0.2437(6) 0.0487(3)
H32 H -0.1309 -0.1966 0.0647
C57 C -0.0765(3) -0.3160(5) 0.0787(3)
C58 C -0.0606(3) -0.3145(6) 0.1370(3)
C59 C 0.0936(3) -0.0562(7) 0.3541(3)
C60 C 0.0954(3) -0.0841(6) 0.4076(3)
C61 C 0.1047(4) -0.0134(7) 0.4457(3)
H33 H 0.1086 0.0531 0.4382
C62 C 0.0870(4) -0.1830(6) 0.4185(4)
H34 H 0.0801 -0.2310 0.3925
C63 C 0.1083(4) -0.0416(7) 0.4955(3)
H35 H 0.1159 0.0065 0.5215
C64 C 0.0888(4) -0.2097(7) 0.4672(3)
H36 H 0.0818 -0.2756 0.4736
C65 C 0.1009(3) -0.1404(6) 0.5075(3)
C66 C 0.1096(4) -0.1632(7) 0.5640(4)
C67 C 0.1157(6) -0.2757(8) 0.5760(4)
C68 C 0.0541(4) -0.1288(12) 0.5727(4)
C69 C 0.1665(3) -0.1129(6) 0.6000(3)
C70 C 0.2170(4) -0.1197(7) 0.5862(3)
H37 H 0.2147 -0.1560 0.5567
C71 C 0.1722(4) -0.0643(6) 0.6462(3)
H38 H 0.1400 -0.0612 0.6572
C72 C 0.2693(3) -0.0747(7) 0.6149(3)
H39 H 0.3011 -0.0766 0.6034
C73 C 0.2258(3) -0.0202(6) 0.6761(3)
H40 H 0.2289 0.0138 0.7065
C74 C 0.2749(3) -0.0261(6) 0.6611(3)
C75 C 0.3336(3) 0.0175(6) 0.6951(3)
F1 F 0.2923(2) 0.3990(6) 0.6373(2)
F2 F 0.2950(2) 0.4452(6) 0.5632(2)
F3 F 0.2423(2) 0.5245(5) 0.5982(2)
F4 F 0.2747(2) 0.2312(5) 0.5834(2)
F5 F 0.1856(3) 0.2000(5) 0.5330(3)
F6 F 0.2430(3) 0.2846(5) 0.5047(2)
F7 F 0.2106(7) -0.0002(16) 0.0493(6)
F8 F 0.2792(5) -0.092(2) 0.1034(5)
F9 F 0.2576(7) -0.109(2) 0.0217(6)
F10 F 0.2565(9) -0.297(2) 0.0606(7)
F11 F 0.1803(14) -0.338(2) 0.0730(8)
F12 F 0.2484(8) -0.2557(19) 0.1314(5)
C76 C 0.2187(12) -0.262(3) 0.0794(9)
C77 C 0.2415(18) -0.087(5) 0.0633(18)
C78 C 0.1873(10) -0.1703(18) 0.0551(8)
F13 F -0.1241(3) -0.4692(6) -0.1053(2)
F14 F -0.0420(3) -0.3958(6) -0.0984(2)
F15 F -0.1205(3) -0.3750(6) -0.1672(2)
F16 F -0.1044(3) -0.1210(5) -0.0816(3)
F17 F -0.0266(2) -0.2137(6) -0.0594(2)
F18 F -0.0794(2) -0.1930(6) -0.1400(2)
F19 F 0.0661(3) -0.3266(5) 0.5518(2)
F20 F 0.1580(3) -0.3159(4) 0.5615(2)
F21 F 0.1316(3) -0.2940(5) 0.6271(2)
F22 F 0.0505(3) -0.1572(6) 0.6194(3)
F23 F 0.0502(2) -0.0283(7) 0.5727(2)
F24 F 0.0041(2) -0.1602(6) 0.5358(3)
In1 In 0.011655(19) 0.61676(3) 0.251778(18)
In2 In -0.004182(19) 0.33419(3) 0.268015(19)
In3 In 0.03732(2) 0.07396(3) 0.266433(19)
In4 In -0.05947(2) -0.14294(3) 0.214320(19)
N1 N 0.1049(3) 0.6148(5) 0.2513(2)
N2 N -0.1021(2) 0.3328(4) 0.2553(3)
O1 O 0.0576(2) 0.5655(4) 0.33406(19)
O2 O 0.0060(2) 0.4267(4) 0.33514(19)
O3 O 0.1050(2) 0.2213(4) 0.7412(2)
O4 O 0.0657(2) 0.3740(4) 0.7266(2)
O5 O -0.0042(2) 0.4682(4) 0.22997(19)
H41 H -0.0168 0.4781 0.1913
O6 O 0.0285(2) -0.2854(4) -0.1887(2)
O7 O 0.0237(2) -0.1219(4) -0.1896(2)
O8 O -0.0078(2) -0.0948(4) 0.1655(2)
O9 O 0.0722(2) -0.0134(4) 0.2199(2)
O10 O -0.3930(2) -0.1801(4) -0.2322(2)
O11 O -0.4071(2) -0.3280(4) -0.2019(2)
O12 O -0.0885(2) -0.2539(4) 0.15465(19)
O13 O -0.0204(2) -0.3713(4) 0.16395(19)
O14 O -0.00013(19) 0.1902(3) 0.29786(19)
H42 H 0.0038 0.1629 0.3292
O15 O 0.0903(2) 0.0374(4) 0.3434(2)
O16 O 0.0979(2) -0.1217(5) 0.3233(2)
O17 O 0.3610(2) 0.0667(4) 0.67075(19)
O18 O 0.3508(2) 0.0016(5) 0.7424(2)
O19 O -0.0274(2) -0.0268(4) 0.26867(19)
H43 H -0.0626 -0.0317 0.2768
O20 O 0.01576(19) -0.2304(4) 0.25506(19)
H44 H 0.042(2) -0.190(4) 0.2798(19)
C1A C 0.3726(4) 0.6934(7) 0.2639(4)
H1A H 0.3964 0.7495 0.2744
C2A C 0.3601(4) 0.5362(7) 0.2336(4)
H2A H 0.3746 0.4801 0.2225
C3A C 0.3171(4) 0.6974(7) 0.2650(5)
H3A H 0.3038 0.7550 0.2760
C4A C 0.3036(4) 0.5339(6) 0.2338(4)
H4A H 0.2806 0.4769 0.2230
C5A C 0.2805(3) 0.6165(6) 0.2501(3)
N1A N 0.3951(3) 0.6148(5) 0.2487(2)
C6A C -0.3701(4) 0.4168(6) 0.2419(4)
H5A H -0.3906 0.4766 0.2381
C7A C -0.3675(3) 0.2495(6) 0.2503(3)
H6A H -0.3863 0.1901 0.2522
C8A C -0.3128(3) 0.4186(6) 0.2445(4)
H7A H -0.2950 0.4792 0.2428
C9A C -0.3091(3) 0.2455(6) 0.2535(3)
H8A H -0.2893 0.1850 0.2584
C10A C -0.2805(3) 0.3321(5) 0.2495(3)
N2A N -0.3979(2) 0.3328(4) 0.2447(3)
C11A C -0.5468(3) 0.4898(6) 0.1438(3)
C12A C -0.5848(3) 0.4701(6) 0.0885(3)
C13A C -0.6372(3) 0.5209(6) 0.0639(3)
H9A H -0.6469 0.5750 0.0804
C14A C -0.5698(3) 0.3952(6) 0.0612(3)
H10A H -0.5336 0.3627 0.0763
C15A C -0.6758(3) 0.4913(7) 0.0145(3)
H11A H -0.7116 0.5246 -0.0011
C16A C -0.6074(4) 0.3674(7) 0.0119(3)
H12A H -0.5961 0.3169 -0.0056
C17A C -0.6618(3) 0.4136(6) -0.0118(3)
C18A C -0.7047(3) 0.3669(7) -0.0632(3)
C19A C -0.7594(4) 0.4323(9) -0.0904(4)
C20A C -0.7275(4) 0.2692(9) -0.0461(4)
C21A C -0.6756(4) 0.3495(7) -0.1037(3)
C22A C -0.6340(4) 0.4139(6) -0.1084(3)
H13A H -0.6228 0.4685 -0.0862
C23A C -0.6913(4) 0.2663(8) -0.1375(4)
H14A H -0.7189 0.2204 -0.1351
C24A C -0.6086(3) 0.4000(6) -0.1450(3)
H15A H -0.5805 0.4453 -0.1471
C25A C -0.6648(4) 0.2540(7) -0.1746(4)
H16A H -0.6753 0.1996 -0.1970
C26A C -0.6238(3) 0.3199(5) -0.1789(3)
C27A C -0.5962(3) 0.3038(6) -0.2185(3)
C28A C -0.5402(3) -0.2017(6) 0.6675(3)
C29A C -0.5780(3) -0.1993(6) 0.6102(3)
C30A C -0.6077(4) -0.2822(7) 0.5868(3)
H17A H -0.6052 -0.3400 0.6060
C31A C -0.5827(3) -0.1141(6) 0.5810(3)
H18A H -0.5636 -0.0564 0.5971
C32A C -0.6421(4) -0.2800(9) 0.5332(4)
H19A H -0.6630 -0.3367 0.5176
C33A C -0.6156(4) -0.1137(7) 0.5280(3)
H20A H -0.6174 -0.0562 0.5086
C34A C -0.6459(4) -0.1984(9) 0.5032(3)
C35A C -0.6471(4) -0.1497(7) 0.4134(3)
C36A C -0.6713(4) -0.0937(8) 0.3681(3)
H21A H -0.7110 -0.0755 0.3569
C37A C -0.5873(4) -0.1766(7) 0.4287(3)
H22A H -0.5696 -0.2137 0.4591
C38A C -0.6379(3) -0.0645(6) 0.3394(3)
H23A H -0.6552 -0.0258 0.3096
C39A C -0.5542(4) -0.1480(6) 0.3988(3)
H24A H -0.5147 -0.1671 0.4089
C40A C -0.5796(3) -0.0915(6) 0.3540(3)
C41A C -0.5441(4) -0.0651(6) 0.3208(3)
C42A C -0.1246(3) -0.2578(6) 0.7058(3)
C43A C -0.1911(3) -0.2671(6) 0.6756(3)
C44A C -0.2305(3) -0.2080(7) 0.6878(3)
H25A H -0.2162 -0.1621 0.7148
C45A C -0.2125(3) -0.3327(6) 0.6351(3)
H26A H -0.1861 -0.3727 0.6263
C46A C -0.2724(3) -0.3407(6) 0.6070(3)
H27A H -0.2859 -0.3855 0.5793
C47A C -0.2911(3) -0.2154(7) 0.6606(3)
H28A H -0.3170 -0.1753 0.6700
C48A C -0.3132(3) -0.2822(6) 0.6196(3)
C49A C -0.3797(3) -0.2976(7) 0.5895(3)
C50A C -0.3992(5) -0.3851(12) 0.6150(4)
C51A C -0.4173(4) -0.2028(11) 0.5932(4)
C52A C -0.3938(3) -0.3121(6) 0.5303(3)
C53A C -0.4316(4) -0.3845(7) 0.4994(3)
H29A H -0.4479 -0.4318 0.5150
C54A C -0.3705(3) -0.2420(6) 0.5047(3)
H30A H -0.3446 -0.1934 0.5244
C55A C -0.4453(4) -0.3869(6) 0.4457(3)
H31A H -0.4696 -0.4371 0.4260
C56A C -0.3850(3) -0.2437(6) 0.4513(3)
H32A H -0.3691 -0.1966 0.4353
C57A C -0.4235(3) -0.3160(5) 0.4213(3)
C58A C -0.4394(3) -0.3145(6) 0.3630(3)
C59A C -0.5936(3) -0.0562(7) 0.1459(3)
C60A C -0.5954(3) -0.0841(6) 0.0924(3)
C61A C -0.6047(4) -0.0134(7) 0.0543(3)
H33A H -0.6086 0.0531 0.0618
C62A C -0.5870(4) -0.1830(6) 0.0815(4)
H34A H -0.5801 -0.2310 0.1075
C63A C -0.6083(4) -0.0416(7) 0.0045(3)
H35A H -0.6159 0.0065 -0.0215
C64A C -0.5888(4) -0.2097(7) 0.0328(3)
H36A H -0.5818 -0.2756 0.0264
C65A C -0.6009(3) -0.1404(6) -0.0075(3)
C66A C -0.6096(4) -0.1632(7) -0.0640(4)
C67A C -0.6157(6) -0.2757(8) -0.0760(4)
C68A C -0.5541(4) -0.1288(12) -0.0727(4)
C69A C -0.6665(3) -0.1129(6) -0.1000(3)
C70A C -0.7170(4) -0.1197(7) -0.0862(3)
H37A H -0.7147 -0.1560 -0.0567
C71A C -0.6722(4) -0.0643(6) -0.1462(3)
H38A H -0.6400 -0.0612 -0.1572
C72A C -0.7693(3) -0.0747(7) -0.1149(3)
H39A H -0.8011 -0.0766 -0.1034
C73A C -0.7258(3) -0.0202(6) -0.1761(3)
H40A H -0.7289 0.0138 -0.2065
C74A C -0.7749(3) -0.0261(6) -0.1611(3)
C75A C -0.8336(3) 0.0175(6) -0.1951(3)
F1A F -0.7923(2) 0.3990(6) -0.1373(2)
F2A F -0.7950(2) 0.4452(6) -0.0632(2)
F3A F -0.7423(2) 0.5245(5) -0.0982(2)
F4A F -0.7747(2) 0.2312(5) -0.0834(2)
F5A F -0.6856(3) 0.2000(5) -0.0330(3)
F6A F -0.7430(3) 0.2846(5) -0.0047(2)
F7A F -0.7106(7) -0.0002(16) 0.4507(6)
F8A F -0.7792(5) -0.092(2) 0.3966(5)
F9A F -0.7576(7) -0.109(2) 0.4783(6)
F10A F -0.7565(9) -0.297(2) 0.4394(7)
F11A F -0.6803(14) -0.338(2) 0.4270(8)
F12A F -0.7484(8) -0.2557(19) 0.3686(5)
C76A C -0.7187(12) -0.262(3) 0.4206(9)
C77A C -0.7415(18) -0.087(5) 0.4367(18)
C78A C -0.6873(10) -0.1703(18) 0.4449(8)
F13A F -0.3759(3) -0.4692(6) 0.6053(2)
F14A F -0.4580(3) -0.3958(6) 0.5984(2)
F15A F -0.3795(3) -0.3750(6) 0.6672(2)
F16A F -0.3956(3) -0.1210(5) 0.5816(3)
F17A F -0.4734(2) -0.2137(6) 0.5594(2)
F18A F -0.4206(2) -0.1930(6) 0.6400(2)
F19A F -0.5661(3) -0.3266(5) -0.0518(2)
F20A F -0.6580(3) -0.3159(4) -0.0615(2)
F21A F -0.6316(3) -0.2940(5) -0.1271(2)
F22A F -0.5505(3) -0.1572(6) -0.1194(3)
F23A F -0.5502(2) -0.0283(7) -0.0727(2)
F24A F -0.5041(2) -0.1602(6) -0.0358(3)
In1A In -0.511655(19) 0.61676(3) 0.248222(18)
In2A In -0.495818(19) 0.33419(3) 0.231985(19)
In3A In -0.53732(2) 0.07396(3) 0.233567(19)
In4A In -0.44053(2) -0.14294(3) 0.285680(19)
O1A O -0.5576(2) 0.5655(4) 0.16594(19)
O2A O -0.5060(2) 0.4267(4) 0.16486(19)
O3A O -0.6050(2) 0.2213(4) -0.2412(2)
O4A O -0.5657(2) 0.3740(4) -0.2266(2)
O5A O -0.4958(2) 0.4682(4) 0.27003(19)
H41A H -0.4832 0.4781 0.3087
O6A O -0.5285(2) -0.2854(4) 0.6887(2)
O7A O -0.5237(2) -0.1219(4) 0.6896(2)
O8A O -0.4922(2) -0.0948(4) 0.3345(2)
O9A O -0.5722(2) -0.0134(4) 0.2801(2)
O10A O -0.1070(2) -0.1801(4) 0.7322(2)
O11A O -0.0929(2) -0.3280(4) 0.7019(2)
O12A O -0.4115(2) -0.2539(4) 0.34535(19)
O13A O -0.4796(2) -0.3713(4) 0.33605(19)
O14A O -0.49987(19) 0.1902(3) 0.20214(19)
H42A H -0.5038 0.1629 0.1708
O15A O -0.5903(2) 0.0374(4) 0.1566(2)
O16A O -0.5979(2) -0.1217(5) 0.1767(2)
O17A O -0.8610(2) 0.0667(4) -0.17075(19)
O18A O -0.8508(2) 0.0016(5) -0.2424(2)
O19A O -0.4726(2) -0.0268(4) 0.23133(19)
H43A H -0.4374 -0.0317 0.2232
O20A O -0.51576(19) -0.2304(4) 0.24494(19)
H44A H -0.542(2) -0.190(4) 0.2202(19)
In1_2 In 0.011655(19) -0.38324(3) 0.251778(18)
In1A_2 In -0.511655(19) -0.38324(3) 0.248222(18)
In1A_3 In 0.488345(19) 0.61676(3) 0.248222(18)
In1B In -0.011655(19) 0.38324(3) 0.748222(18)
In1C In -0.488345(19) 0.38324(3) -0.248222(18)
In2B In 0.004182(19) -0.33419(3) -0.268015(19)
In2B_2 In 0.004182(19) -0.33419(3) 0.731985(19)
In2C In -0.504182(19) -0.33419(3) -0.231985(19)
In2C_2 In -0.504182(19) -0.33419(3) 0.768015(19)
In3B In -0.03732(2) -0.07396(3) -0.266433(19)
In3B_2 In -0.03732(2) -0.07396(3) 0.733567(19)
In3C In -0.46268(2) -0.07396(3) -0.233567(19)
In3C_2 In -0.46268(2) -0.07396(3) 0.766433(19)
In4B In -0.94053(2) 0.14294(3) -0.214320(19)
In4B_2 In 0.05947(2) 0.14294(3) 0.785680(19)
In4C In -0.55947(2) 0.14294(3) -0.285680(19)
In4C_2 In 0.44053(2) 0.14294(3) 0.714320(19)
N1A_2 N -0.6049(3) 0.6148(5) 0.2487(2)
O3B O -0.1050(2) -0.2213(4) 0.2588(2)
O3C O -0.3950(2) -0.2213(4) 0.2412(2)
O4B O -0.0657(2) 0.6260(4) 0.2734(2)
O4C O -0.4343(2) 0.6260(4) 0.2266(2)
O6B O -0.0285(2) 0.2854(4) 0.1887(2)
O6C O -0.4715(2) 0.2854(4) 0.3113(2)
O7B O -0.0237(2) 0.1219(4) 0.1896(2)
O7C O -0.4763(2) 0.1219(4) 0.3104(2)
O10B O -0.6070(2) 0.1801(4) 0.2322(2)
O10C O 0.1070(2) 0.1801(4) 0.2678(2)
O11B O -0.5929(2) 0.3280(4) 0.2019(2)
O11C O 0.0929(2) 0.3280(4) 0.2981(2)
O13_2 O -0.0204(2) 0.6287(4) 0.16395(19)
O13A_2 O -0.4796(2) 0.6287(4) 0.33605(19)
O17B O -0.3610(2) -0.0667(4) 0.32925(19)
O17C O -0.1390(2) -0.0667(4) 0.17075(19)
O20_2 O 0.01576(19) 0.7696(4) 0.25506(19)
O20A_2 O -0.51576(19) 0.7696(4) 0.24494(19)
O21 O 0.3047(10) 0.944(3) 0.2100(10)
F25? F 0.2295(9) -0.068(3) 0.0516(8)
F26? F 0.2789(7) -0.181(3) 0.1114(8)
F27? F 0.2622(7) -0.202(4) 0.0291(9)
F28? F 0.2294(15) -0.375(2) 0.0603(8)
F29? F 0.1423(13) -0.3772(17) 0.0610(10)
F30? F 0.2140(15) -0.324(2) 0.1295(7)
C79? C 0.193(4) -0.325(9) 0.083(3)
C80? C 0.2383(13) -0.156(4) 0.0636(11)
C81? C 0.1774(10) -0.217(2) 0.0545(9)
loop_
_geom_bond_atom_site_label_1
_geom_bond_atom_site_label_2
_geom_bond_site_symmetry_1
_geom_bond_site_symmetry_2
C1 H1 1_555 1_555
C2 H2 1_555 1_555
C3 C1 1_555 1_555
H3 C3 1_555 1_555
C4 C2 1_555 1_555
H4 C4 1_555 1_555
C5 C3 1_555 1_555
C6 H5 1_555 1_555
C7 H6 1_555 1_555
C8 C6 1_555 1_555
H7 C8 1_555 1_555
C9 C7 1_555 1_555
H8 C9 1_555 1_555
C10 C8 1_555 1_555
C11 C12 1_555 1_555
C12 C13 1_555 1_555
C13 H9 1_555 1_555
C14 C12 1_555 1_555
H10 C14 1_555 1_555
C15 C13 1_555 1_555
H11 C15 1_555 1_555
C16 C14 1_555 1_555
H12 C16 1_555 1_555
C17 C15 1_555 1_555
C18 C17 1_555 1_555
C19 C18 1_555 1_555
C20 C18 1_555 1_555
C21 C18 1_555 1_555
C22 C21 1_555 1_555
H13 C22 1_555 1_555
C23 C21 1_555 1_555
H14 C23 1_555 1_555
C24 C22 1_555 1_555
H15 C24 1_555 1_555
C25 C23 1_555 1_555
H16 C25 1_555 1_555
C26 C24 1_555 1_555
C27 C26 1_555 1_555
C28 C29 1_555 1_555
C29 C30 1_555 1_555
C30 H17 1_555 1_555
C31 C29 1_555 1_555
H18 C31 1_555 1_555
C32 C30 1_555 1_555
H19 C32 1_555 1_555
C33 C31 1_555 1_555
H20 C33 1_555 1_555
C34 C32 1_555 1_555
C35 C36 1_555 1_555
C36 H21 1_555 1_555
C37 C35 1_555 1_555
H22 C37 1_555 1_555
C38 C36 1_555 1_555
H23 C38 1_555 1_555
C39 C37 1_555 1_555
H24 C39 1_555 1_555
C40 C38 1_555 1_555
C41 C40 1_555 1_555
C42 C43 1_555 1_555
C43 C44 1_555 1_555
C44 H25 1_555 1_555
C45 C43 1_555 1_555
H26 C45 1_555 1_555
C46 C45 1_555 1_555
H27 C46 1_555 1_555
C47 C44 1_555 1_555
H28 C47 1_555 1_555
C48 C46 1_555 1_555
C49 C48 1_555 1_555
C50 C49 1_555 1_555
C51 C49 1_555 1_555
C52 C49 1_555 1_555
C53 C52 1_555 1_555
H29 C53 1_555 1_555
C54 C52 1_555 1_555
H30 C54 1_555 1_555
C55 C53 1_555 1_555
H31 C55 1_555 1_555
C56 C54 1_555 1_555
H32 C56 1_555 1_555
C57 C55 1_555 1_555
C58 C57 1_555 1_555
C59 C60 1_555 1_555
C60 C61 1_555 1_555
C61 H33 1_555 1_555
C62 C60 1_555 1_555
H34 C62 1_555 1_555
C63 C61 1_555 1_555
H35 C63 1_555 1_555
C64 C62 1_555 1_555
H36 C64 1_555 1_555
C65 C63 1_555 1_555
C66 C65 1_555 1_555
C67 C66 1_555 1_555
C68 C66 1_555 1_555
C69 C66 1_555 1_555
C70 C69 1_555 1_555
H37 C70 1_555 1_555
C71 C69 1_555 1_555
H38 C71 1_555 1_555
C72 C70 1_555 1_555
H39 C72 1_555 1_555
C73 C71 1_555 1_555
H40 C73 1_555 1_555
C74 C72 1_555 1_555
C75 C74 1_555 1_555
F1 C19 1_555 1_555
F2 C19 1_555 1_555
F3 C19 1_555 1_555
F4 C20 1_555 1_555
F5 C20 1_555 1_555
F6 C20 1_555 1_555
F7 C77 1_555 1_555
F8 C77 1_555 1_555
F9 C77 1_555 1_555
F10 C76 1_555 1_555
F11 C76 1_555 1_555
F12 C76 1_555 1_555
C76 C78 1_555 1_555
C77 C78 1_555 1_555
C78 C34 1_555 1_555
F13 C50 1_555 1_555
F14 C50 1_555 1_555
F15 C50 1_555 1_555
F16 C51 1_555 1_555
F17 C51 1_555 1_555
F18 C51 1_555 1_555
F19 C67 1_555 1_555
F20 C67 1_555 1_555
F21 C67 1_555 1_555
F22 C68 1_555 1_555
F23 C68 1_555 1_555
F24 C68 1_555 1_555
In1 N1 1_555 1_555
In2 N2 1_555 1_555
In3 O9 1_555 1_555
In4 O8 1_555 1_555
N1 C1 1_555 1_555
N2 C6 1_555 1_555
O1 C11 1_555 1_555
O2 C11 1_555 1_555
O3 C27 1_555 1_555
O4 C27 1_555 1_555
O5 In1 1_555 1_555
H41 O5 1_555 1_555
O6 C28 1_555 1_555
O7 C28 1_555 1_555
O8 C41 1_555 1_555
O9 C41 1_555 1_555
O10 C42 1_555 1_555
O11 C42 1_555 1_555
O12 C58 1_555 1_555
O13 C58 1_555 1_555
O14 In2 1_555 1_555
H42 O14 1_555 1_555
O15 C59 1_555 1_555
O16 C59 1_555 1_555
O17 C75 1_555 1_555
O18 C75 1_555 1_555
O19 In3 1_555 1_555
H43 O19 1_555 1_555
O20 In4 1_555 1_555
H44 O20 1_555 1_555
C1A H1A 1_555 1_555
C2A H2A 1_555 1_555
C3A C1A 1_555 1_555
H3A C3A 1_555 1_555
C4A C2A 1_555 1_555
H4A C4A 1_555 1_555
C5A C5 1_555 1_555
N1A C1A 1_555 1_555
C6A H5A 1_555 1_555
C7A H6A 1_555 1_555
C8A C6A 1_555 1_555
H7A C8A 1_555 1_555
C9A C7A 1_555 1_555
H8A C9A 1_555 1_555
C10A C10 1_555 1_555
N2A C6A 1_555 1_555
C11A C12A 1_555 1_555
C12A C13A 1_555 1_555
C13A H9A 1_555 1_555
C14A C12A 1_555 1_555
H10A C14A 1_555 1_555
C15A C13A 1_555 1_555
H11A C15A 1_555 1_555
C16A C14A 1_555 1_555
H12A C16A 1_555 1_555
C17A C15A 1_555 1_555
C18A C17A 1_555 1_555
C19A C18A 1_555 1_555
C20A C18A 1_555 1_555
C21A C18A 1_555 1_555
C22A C21A 1_555 1_555
H13A C22A 1_555 1_555
C23A C21A 1_555 1_555
H14A C23A 1_555 1_555
C24A C22A 1_555 1_555
H15A C24A 1_555 1_555
C25A C23A 1_555 1_555
H16A C25A 1_555 1_555
C26A C24A 1_555 1_555
C27A C26A 1_555 1_555
C28A C29A 1_555 1_555
C29A C30A 1_555 1_555
C30A H17A 1_555 1_555
C31A C29A 1_555 1_555
H18A C31A 1_555 1_555
C32A C30A 1_555 1_555
H19A C32A 1_555 1_555
C33A C31A 1_555 1_555
H20A C33A 1_555 1_555
C34A C32A 1_555 1_555
C35A C36A 1_555 1_555
C36A H21A 1_555 1_555
C37A C35A 1_555 1_555
H22A C37A 1_555 1_555
C38A C36A 1_555 1_555
H23A C38A 1_555 1_555
C39A C37A 1_555 1_555
H24A C39A 1_555 1_555
C40A C38A 1_555 1_555
C41A C40A 1_555 1_555
C42A C43A 1_555 1_555
C43A C44A 1_555 1_555
C44A H25A 1_555 1_555
C45A C43A 1_555 1_555
H26A C45A 1_555 1_555
C46A C45A 1_555 1_555
H27A C46A 1_555 1_555
C47A C44A 1_555 1_555
H28A C47A 1_555 1_555
C48A C46A 1_555 1_555
C49A C48A 1_555 1_555
C50A C49A 1_555 1_555
C51A C49A 1_555 1_555
C52A C49A 1_555 1_555
C53A C52A 1_555 1_555
H29A C53A 1_555 1_555
C54A C52A 1_555 1_555
H30A C54A 1_555 1_555
C55A C53A 1_555 1_555
H31A C55A 1_555 1_555
C56A C54A 1_555 1_555
H32A C56A 1_555 1_555
C57A C55A 1_555 1_555
C58A C57A 1_555 1_555
C59A C60A 1_555 1_555
C60A C61A 1_555 1_555
C61A H33A 1_555 1_555
C62A C60A 1_555 1_555
H34A C62A 1_555 1_555
C63A C61A 1_555 1_555
H35A C63A 1_555 1_555
C64A C62A 1_555 1_555
H36A C64A 1_555 1_555
C65A C63A 1_555 1_555
C66A C65A 1_555 1_555
C67A C66A 1_555 1_555
C68A C66A 1_555 1_555
C69A C66A 1_555 1_555
C70A C69A 1_555 1_555
H37A C70A 1_555 1_555
C71A C69A 1_555 1_555
H38A C71A 1_555 1_555
C72A C70A 1_555 1_555
H39A C72A 1_555 1_555
C73A C71A 1_555 1_555
H40A C73A 1_555 1_555
C74A C72A 1_555 1_555
C75A C74A 1_555 1_555
F1A C19A 1_555 1_555
F2A C19A 1_555 1_555
F3A C19A 1_555 1_555
F4A C20A 1_555 1_555
F5A C20A 1_555 1_555
F6A C20A 1_555 1_555
F7A C77A 1_555 1_555
F8A C77A 1_555 1_555
F9A C77A 1_555 1_555
F10A C76A 1_555 1_555
F11A C76A 1_555 1_555
F12A C76A 1_555 1_555
C76A C78A 1_555 1_555
C77A C78A 1_555 1_555
C78A C34A 1_555 1_555
F13A C50A 1_555 1_555
F14A C50A 1_555 1_555
F15A C50A 1_555 1_555
F16A C51A 1_555 1_555
F17A C51A 1_555 1_555
F18A C51A 1_555 1_555
F19A C67A 1_555 1_555
F20A C67A 1_555 1_555
F21A C67A 1_555 1_555
F22A C68A 1_555 1_555
F23A C68A 1_555 1_555
F24A C68A 1_555 1_555
In1A O1A 1_555 1_555
In2A N2A 1_555 1_555
In3A O9A 1_555 1_555
In4A O8A 1_555 1_555
O1A C11A 1_555 1_555
O2A C11A 1_555 1_555
O3A C27A 1_555 1_555
O4A C27A 1_555 1_555
O5A In1A 1_555 1_555
H41A O5A 1_555 1_555
O6A C28A 1_555 1_555
O7A C28A 1_555 1_555
O8A C41A 1_555 1_555
O9A C41A 1_555 1_555
O10A C42A 1_555 1_555
O11A C42A 1_555 1_555
O12A C58A 1_555 1_555
O13A C58A 1_555 1_555
O14A In2A 1_555 1_555
H42A O14A 1_555 1_555
O15A C59A 1_555 1_555
O16A C59A 1_555 1_555
O17A C75A 1_555 1_555
O18A C75A 1_555 1_555
O19A In3A 1_555 1_555
H43A O19A 1_555 1_555
O20A In4A 1_555 1_555
H44A O20A 1_555 1_555
In1_2 O13 1_555 1_555
In1A_2 O13A 1_555 1_555
In1A_3 N1A 1_555 1_555
In1B O4 1_555 1_555
In1C O4A 1_555 1_555
In2B O6 1_555 1_555
In2B_2 O11A 1_555 1_555
In2C O11 1_555 1_555
In2C_2 O6A 1_555 1_555
In3B O7 1_555 1_555
In3B_2 O10A 1_555 1_555
In3C O10 1_555 1_555
In3C_2 O7A 1_555 1_555
In4B O17A 1_555 1_555
In4B_2 O3 1_555 1_555
In4C O3A 1_555 1_555
In4C_2 O17 1_555 1_555
N1A_2 In1A 1_555 1_555
O3B In4 1_555 1_555
O3C In4A 1_555 1_555
O4B In1 1_555 1_555
O4C In1A 1_555 1_555
O6B In2 1_555 1_555
O6C In2A 1_555 1_555
O7B In3 1_555 1_555
O7C In3A 1_555 1_555
O10B In3A 1_555 1_555
O10C In3 1_555 1_555
O11B In2A 1_555 1_555
O11C In2 1_555 1_555
O13_2 In1 1_555 1_555
O13A_2 In1A 1_555 1_555
O17B In4A 1_555 1_555
O17C In4 1_555 1_555
O20_2 In1 1_555 1_555
O20A_2 In1A 1_555 1_555
C2 N1 1_555 1_555
C4 C5 1_555 1_555
C7 N2 1_555 1_555
C9 C10 1_555 1_555
C16 C17 1_555 1_555
C25 C26 1_555 1_555
C33 C34 1_555 1_555
C35 C78 1_555 1_555
C39 C40 1_555 1_555
C47 C48 1_555 1_555
C56 C57 1_555 1_555
C64 C65 1_555 1_555
C73 C74 1_555 1_555
In1 O1 1_555 1_555
In2 O2 1_555 1_555
In2 O5 1_555 1_555
In3 O14 1_555 1_555
In3 O15 1_555 1_555
In4 O12 1_555 1_555
In4 O19 1_555 1_555
O20 In1_2 1_555 1_555
C2A N1A 1_555 1_555
C3A C5A 1_555 1_555
C4A C5A 1_555 1_555
C7A N2A 1_555 1_555
C8A C10A 1_555 1_555
C9A C10A 1_555 1_555
C16A C17A 1_555 1_555
C25A C26A 1_555 1_555
C33A C34A 1_555 1_555
C35A C78A 1_555 1_555
C39A C40A 1_555 1_555
C47A C48A 1_555 1_555
C56A C57A 1_555 1_555
C64A C65A 1_555 1_555
C73A C74A 1_555 1_555
In2A O2A 1_555 1_555
In2A O5A 1_555 1_555
In3A O14A 1_555 1_555
In3A O15A 1_555 1_555
In4A O12A 1_555 1_555
In4A O19A 1_555 1_555
O20A In1A_2 1_555 1_555

#END
