
#######################################################################
#
#                 Cambridge Crystallographic Data Centre
#                                CCDC 
#
#######################################################################
#
# If this CIF has been generated from an entry in the Cambridge 
# Structural Database, then it will include bibliographic, chemical, 
# crystal, experimental, refinement or atomic coordinate data resulting 
# from the CCDC's data processing and validation procedures.
#
#######################################################################

data_TOZFOF
_symmetry_cell_setting           monoclinic
_symmetry_space_group_name_H-M   'C 2/m'
_symmetry_Int_Tables_number      12
_space_group_name_Hall           '-C 2y'
loop_
_symmetry_equiv_pos_site_id
_symmetry_equiv_pos_as_xyz
1 x,y,z
2 -x,y,-z
3 1/2+x,1/2+y,z
4 1/2-x,1/2+y,-z
5 -x,-y,-z
6 x,-y,z
7 1/2-x,1/2-y,-z
8 1/2+x,1/2-y,z
_cell_length_a                   55.289(13)
_cell_length_b                   28.916(5)
_cell_length_c                   17.468(3)
_cell_angle_alpha                90
_cell_angle_beta                 95.920(5)
_cell_angle_gamma                90
_cell_volume                     27777.8
loop_
_atom_site_label
_atom_site_type_symbol
_atom_site_fract_x
_atom_site_fract_y
_atom_site_fract_z
Ru1 Ru 0.36211(4) 0.18957(6) 0.54234(11)
O1 O 0.3487(3) 0.2546(5) 0.5768(10)
O2 O 0.3936(3) 0.1995(6) 0.6018(11)
O3 O 0.3280(4) 0.1758(7) 0.5026(10)
O4 O 0.3750(4) 0.1242(5) 0.5173(10)
O5 O 0.3702(3) 0.2137(4) 0.4511(8)
N1 N 0.3510(4) 0.1611(5) 0.6478(8)
C1 C 0.3588(4) 0.2911(8) 0.5692(15)
C2 C 0.4122(6) 0.2152(11) 0.5844(17)
C3 C 0.3137(5) 0.1818(11) 0.4465(15)
C4 C 0.3735(3) 0.1074(8) 0.4527(13)
Ru2 Ru 0.39095(3) 0.26634(6) 0.44528(10)
Ru3 Ru 0.35929(4) 0.18358(6) 0.35080(11)
C5 C 0.3657(4) 0.1272(7) 0.6805(11)
C6 C 0.3286(4) 0.1743(8) 0.6680(12)
O6 O 0.3740(3) 0.3001(4) 0.5285(8)
C7 C 0.3487(4) 0.3303(8) 0.6137(13)
O7 O 0.4166(3) 0.2393(5) 0.5258(11)
C8 C 0.4363(4) 0.2155(8) 0.6391(13)
O8 O 0.3218(4) 0.1824(6) 0.3832(14)
C9 C 0.2866(4) 0.1716(8) 0.4345(13)
O9 O 0.3668(4) 0.1196(7) 0.3891(12)
C10 C 0.3829(4) 0.0575(8) 0.4575(13)
O10 O 0.4114(3) 0.2426(5) 0.3659(10)
O11 O 0.3673(3) 0.2981(5) 0.3644(9)
N2 N 0.4128(2) 0.3258(4) 0.4423(9)
O12 O 0.3935(4) 0.1788(6) 0.3207(11)
O13 O 0.3512(4) 0.2428(6) 0.2933(9)
N3 N 0.3477(4) 0.1498(6) 0.2453(9)
H1 H 0.3808 0.1209 0.6619
C11 C 0.3579(4) 0.1014(7) 0.7423(11)
C12 C 0.3217(4) 0.1476(7) 0.7285(12)
H2 H 0.3192 0.1986 0.6429
H3 H 0.3489 0.3211 0.6677
H4 H 0.3319 0.3362 0.5921
H5 H 0.3583 0.3585 0.6102
H6 H 0.4499 0.2300 0.6165
H7 H 0.4400 0.1828 0.6498
H8 H 0.4336 0.2313 0.6871
H9 H 0.2770 0.1978 0.4123
H10 H 0.2815 0.1643 0.4852
H11 H 0.2838 0.1446 0.4007
H12 H 0.3736 0.0384 0.4903
H13 H 0.4000 0.0582 0.4792
H14 H 0.3818 0.0443 0.4056
C13 C 0.4112(4) 0.2056(8) 0.3326(14)
C14 C 0.3547(5) 0.2843(8) 0.3061(13)
C15 C 0.4167(3) 0.3424(5) 0.3702(9)
C16 C 0.4249(3) 0.3439(6) 0.5089(9)
H15 H 0.3674 0.0773 0.7671
C17 C 0.3360(4) 0.1118(7) 0.7668(13)
H16 H 0.3063 0.1534 0.7461
C18 C 0.4316(4) 0.2013(8) 0.2789(13)
C19 C 0.3453(4) 0.3173(8) 0.2400(12)
H17 H 0.4079 0.3300 0.3252
C20 C 0.4335(3) 0.3780(5) 0.3644(9)
C21 C 0.4418(3) 0.3794(5) 0.5021(9)
H18 H 0.4216 0.3324 0.5578
C22 C 0.3258(4) 0.0832(9) 0.8262(16)
H19 H 0.4257 0.2088 0.2256
H20 H 0.4376 0.1694 0.2817
H21 H 0.4448 0.2224 0.2969
H22 H 0.3388 0.2972 0.1975
H23 H 0.3579 0.3374 0.2227
H24 H 0.3321 0.3363 0.2565
H25 H 0.4363 0.3899 0.3155
C23 C 0.4459(2) 0.3961(4) 0.4309(11)
H26 H 0.4508 0.3914 0.5471
O14 O 0.3053(3) 0.0891(4) 0.8443(7)
O15 O 0.3387(3) 0.0512(5) 0.8493(7)
C24 C 0.4632(4) 0.4342(7) 0.4165(13)
Ru4 Ru 0.28242(5) 0.06119(9) 0.91474(13)
Ru5 Ru 0.33753(7) 0.0000 0.9347(2)
O16 O 0.4739(2) 0.4489(4) 0.4793(9)
O17 O 0.4651(3) 0.4453(7) 0.3470(13)
O18 O 0.3031(2) 0.0860(5) 1.0087(7)
O19 O 0.2575(3) 0.0395(5) 0.9851(8)
O20 O 0.2593(2) 0.0375(4) 0.8238(7)
O21 O 0.30057(19) 0.0000 0.9203(7)
O22 O 0.2641(3) 0.1248(4) 0.9081(10)
O23 O 0.3384(3) 0.0481(6) 1.0210(8)
O24 O 0.3772(4) 0.0000 0.9608(16)
Co1 Co 0.5000 0.5000 0.5000
Co2 Co 0.47485(8) 0.5000 0.2989(3)
C25 C 0.3228(4) 0.0751(8) 1.0414(13)
C26 C 0.2531(6) 0.0000 1.0078(19)
C27 C 0.2514(7) 0.0000 0.7997(16)
C28 C 0.3318(4) 0.1023(7) 1.1142(9)
C29 C 0.2325(6) 0.0000 1.0623(15)
C30 C 0.2362(4) 0.0000 0.7184(11)
C31 C 0.3180(3) 0.1386(7) 1.1395(11)
C32 C 0.3539(4) 0.0904(6) 1.1556(11)
C33 C 0.2265(4) 0.0421(4) 1.0950(11)
C34 C 0.2285(3) 0.0416(3) 0.6832(10)
C35 C 0.3264(4) 0.1618(6) 1.2055(11)
H27 H 0.3034 0.1470 1.1094
H28 H 0.3636 0.0659 1.1391
C36 C 0.3617(3) 0.1142(7) 1.2214(11)
C37 C 0.2116(4) 0.0415(3) 1.1555(12)
H29 H 0.2318 0.0705 1.0754
C38 C 0.2135(3) 0.0415(3) 0.6137(10)
H30 H 0.2336 0.0702 0.7064
H31 H 0.3170 0.1867 1.2223
H32 H 0.3763 0.1063 1.2520
N4 N 0.2054(4) 0.0000 1.1869(12)
H33 H 0.2067 0.0699 1.1769
N5 N 0.2061(3) 0.0000 0.5794(9)
H34 H 0.2082 0.0698 0.5901
Ru6 Ru 0.18535(4) 0.0000 1.28518(14)
Ru7 Ru 0.18696(4) 0.0000 0.47540(13)
O25 O 0.2105(3) 0.0515(6) 0.4444(12)
O26 O 0.1660(3) -0.0504(5) 0.5184(6)
O27 O 0.1707(3) 0.0000 0.3826(10)
C39 C 0.2157(5) 0.0728(10) 0.3802(19)
C40 C 0.1444(4) -0.0607(10) 0.5046(13)
Ru8 Ru 0.13415(4) 0.0000 0.36743(12)
O28 O 0.2076(3) 0.0501(6) 0.3187(10)
C41 C 0.2330(4) 0.1091(8) 0.3951(13)
O29 O 0.1313(2) -0.0516(4) 0.4479(9)
C42 C 0.1342(4) -0.0939(8) 0.5624(12)
O30 O 0.1643(3) -0.0507(5) 0.2310(8)
O31 O 0.1310(2) -0.0505(6) 0.2857(8)
N6 N 0.0951(3) 0.0000 0.3555(14)
H35 H 0.2482 0.0986 0.3766
H36 H 0.2357 0.1157 0.4504
H37 H 0.2273 0.1372 0.3674
H38 H 0.1167 -0.0885 0.5617
H39 H 0.1422 -0.0879 0.6141
H40 H 0.1370 -0.1261 0.5482
C43 C 0.1444(4) -0.0663(8) 0.2427(14)
C44 C 0.0830(5) 0.0000 0.2818(13)
C45 C 0.0833(5) 0.0000 0.4210(13)
C46 C 0.1350(4) -0.1084(7) 0.1943(12)
H41 H 0.0916 0.0000 0.2374
C47 C 0.0575(5) 0.0000 0.2756(13)
C48 C 0.0577(5) 0.0000 0.4137(14)
H42 H 0.0923 0.0000 0.4703
H43 H 0.1492 -0.1277 0.1869
H44 H 0.1269 -0.0992 0.1440
H45 H 0.1236 -0.1259 0.2225
H46 H 0.0484 0.0000 0.2265
C49 C 0.0457(4) 0.0000 0.3416(16)
H47 H 0.0491 0.0000 0.4579
C50 C 0.0179(4) 0.0000 0.3278(14)
O32 O 0.0074(3) 0.0000 0.3851(10)
O33 O 0.0103(4) 0.0000 0.2603(12)
O34 O -0.0501(5) 0.0000 0.2058(17)
O15E O 0.3387(3) -0.0512(5) 0.8493(7)
O23E O 0.3384(3) -0.0481(6) 1.0210(8)
Ru4E Ru 0.28242(5) -0.06119(9) 0.91474(13)
C22E C 0.3258(4) -0.0832(9) 0.8262(16)
C25E C 0.3228(4) -0.0751(8) 1.0414(13)
O19E O 0.2575(3) -0.0395(5) 0.9851(8)
O20E O 0.2593(2) -0.0375(4) 0.8238(7)
O14E O 0.3053(3) -0.0891(4) 0.8443(7)
O18E O 0.3031(2) -0.0860(5) 1.0087(7)
O22E O 0.2641(3) -0.1248(4) 0.9081(10)
C17E C 0.3360(4) -0.1118(7) 0.7668(13)
C28E C 0.3318(4) -0.1023(7) 1.1142(9)
C33E C 0.2265(4) -0.0421(4) 1.0950(11)
C34E C 0.2285(3) -0.0416(3) 0.6832(10)
C11E C 0.3579(4) -0.1014(7) 0.7423(11)
C12E C 0.3217(4) -0.1476(7) 0.7285(12)
C31E C 0.3180(3) -0.1386(7) 1.1395(11)
C32E C 0.3539(4) -0.0904(6) 1.1556(11)
C37E C 0.2116(4) -0.0415(3) 1.1555(12)
H29E H 0.2318 -0.0705 1.0754
C38E C 0.2135(3) -0.0415(3) 0.6137(10)
H30E H 0.2336 -0.0702 0.7064
C5E C 0.3657(4) -0.1272(7) 0.6805(11)
H15E H 0.3674 -0.0773 0.7671
H16E H 0.3063 -0.1534 0.7461
C6E C 0.3286(4) -0.1743(8) 0.6680(12)
C35E C 0.3264(4) -0.1618(6) 1.2055(11)
H27E H 0.3034 -0.1470 1.1094
H28E H 0.3636 -0.0659 1.1391
C36E C 0.3617(3) -0.1142(7) 1.2214(11)
N3_2 N 0.3477(4) 0.1498(6) 1.2453(9)
H33E H 0.2067 -0.0699 1.1769
H34E H 0.2082 -0.0698 0.5901
N1E N 0.3510(4) -0.1611(5) 0.6478(8)
H1E H 0.3808 -0.1209 0.6619
H2E H 0.3192 -0.1986 0.6429
N3E N 0.3477(4) -0.1498(6) 1.2453(9)
H31E H 0.3170 -0.1867 1.2223
H32E H 0.3763 -0.1063 1.2520
Ru3_2 Ru 0.35929(4) 0.18358(6) 1.35080(11)
Ru1E Ru 0.36211(4) -0.18957(6) 0.54234(11)
Ru3E Ru 0.35929(4) -0.18358(6) 1.35080(11)
O25E O 0.2105(3) -0.0515(6) 0.4444(12)
O26E O 0.1660(3) 0.0504(5) 0.5184(6)
O1E O 0.3487(3) -0.2546(5) 0.5768(10)
O2E O 0.3936(3) -0.1995(6) 0.6018(11)
O3E O 0.3280(4) -0.1758(7) 0.5026(10)
O4E O 0.3750(4) -0.1242(5) 0.5173(10)
O5E O 0.3702(3) -0.2137(4) 0.4511(8)
Ru6_2 Ru 0.18535(4) 0.0000 0.28518(14)
C39E C 0.2157(5) -0.0728(10) 0.3802(19)
C40E C 0.1444(4) 0.0607(10) 0.5046(13)
C1E C 0.3588(4) -0.2911(8) 0.5692(15)
C2E C 0.4122(6) -0.2152(11) 0.5844(17)
C3E C 0.3137(5) -0.1818(11) 0.4465(15)
C4E C 0.3735(3) -0.1074(8) 0.4527(13)
Ru2E Ru 0.39095(3) -0.26634(6) 0.44528(10)
Ru3E_2 Ru 0.35929(4) -0.18358(6) 0.35080(11)
O28E O 0.2076(3) -0.0501(6) 0.3187(10)
O30E O 0.1643(3) 0.0507(5) 0.2310(8)
N4_2 N 0.2054(4) 0.0000 0.1869(12)
O29E O 0.1313(2) 0.0516(4) 0.4479(9)
O31E O 0.1310(2) 0.0505(6) 0.2857(8)
C41E C 0.2330(4) -0.1091(8) 0.3951(13)
C42E C 0.1342(4) 0.0939(8) 0.5624(12)
O6E O 0.3740(3) -0.3001(4) 0.5285(8)
C7E C 0.3487(4) -0.3303(8) 0.6137(13)
O7E O 0.4166(3) -0.2393(5) 0.5258(11)
C8E C 0.4363(4) -0.2155(8) 0.6391(13)
O8E O 0.3218(4) -0.1824(6) 0.3832(14)
C9E C 0.2866(4) -0.1716(8) 0.4345(13)
O9E O 0.3668(4) -0.1196(7) 0.3891(12)
C10E C 0.3829(4) -0.0575(8) 0.4575(13)
O10E O 0.4114(3) -0.2426(5) 0.3659(10)
O11E O 0.3673(3) -0.2981(5) 0.3644(9)
N2E N 0.4128(2) -0.3258(4) 0.4423(9)
O12E O 0.3935(4) -0.1788(6) 0.3207(11)
O13E O 0.3512(4) -0.2428(6) 0.2933(9)
N3E_2 N 0.3477(4) -0.1498(6) 0.2453(9)
C43E C 0.1444(4) 0.0663(8) 0.2427(14)
H35E H 0.2482 -0.0986 0.3766
H36E H 0.2357 -0.1157 0.4504
H37E H 0.2273 -0.1372 0.3674
H38E H 0.1167 0.0885 0.5617
H39E H 0.1422 0.0879 0.6141
H40E H 0.1370 0.1261 0.5482
H3E H 0.3489 -0.3211 0.6677
H4E H 0.3319 -0.3362 0.5921
H5E H 0.3583 -0.3585 0.6102
H6E H 0.4499 -0.2300 0.6165
H7E H 0.4400 -0.1828 0.6498
H8E H 0.4336 -0.2313 0.6871
H9E H 0.2770 -0.1978 0.4123
H10E H 0.2815 -0.1643 0.4852
H11E H 0.2838 -0.1446 0.4007
H12E H 0.3736 -0.0384 0.4903
H13E H 0.4000 -0.0582 0.4792
H14E H 0.3818 -0.0443 0.4056
C13E C 0.4112(4) -0.2056(8) 0.3326(14)
C14E C 0.3547(5) -0.2843(8) 0.3061(13)
C15E C 0.4167(3) -0.3424(5) 0.3702(9)
C16E C 0.4249(3) -0.3439(6) 0.5089(9)
C46E C 0.1350(4) 0.1084(7) 0.1943(12)
C18E C 0.4316(4) -0.2013(8) 0.2789(13)
C19E C 0.3453(4) -0.3173(8) 0.2400(12)
H17E H 0.4079 -0.3300 0.3252
C20E C 0.4335(3) -0.3780(5) 0.3644(9)
C21E C 0.4418(3) -0.3794(5) 0.5021(9)
H18E H 0.4216 -0.3324 0.5578
H43E H 0.1492 0.1277 0.1869
H44E H 0.1269 0.0992 0.1440
H45E H 0.1236 0.1259 0.2225
H19E H 0.4257 -0.2088 0.2256
H20E H 0.4376 -0.1694 0.2817
H21E H 0.4448 -0.2224 0.2969
H22E H 0.3388 -0.2972 0.1975
H23E H 0.3579 -0.3374 0.2227
H24E H 0.3321 -0.3363 0.2565
H25E H 0.4363 -0.3899 0.3155
C23E C 0.4459(2) -0.3961(4) 0.4309(11)
H26E H 0.4508 -0.3914 0.5471
C24E C 0.4632(4) -0.4342(7) 0.4165(13)
O16E O 0.4739(2) -0.4489(4) 0.4793(9)
O17E O 0.4651(3) -0.4453(7) 0.3470(13)
Co1B Co 0.0000 0.0000 0.5000
Co2B Co -0.02515(8) 0.0000 0.2989(3)
Co1_2 Co 0.5000 -0.5000 0.5000
Co2_2 Co 0.47485(8) -0.5000 0.2989(3)
O32A O -0.0074(3) 0.0000 0.6149(10)
O16B O -0.0261(2) -0.0511(4) 0.4793(9)
O16C O 0.0261(2) -0.0511(4) 0.5207(9)
O16F O 0.0261(2) 0.0511(4) 0.5207(9)
O16G O -0.0261(2) 0.0511(4) 0.4793(9)
O17B O -0.0349(3) -0.0547(7) 0.3470(13)
O17G O -0.0349(3) 0.0547(7) 0.3470(13)
Co2C Co 0.02515(8) 0.0000 0.7011(3)
C50A C -0.0179(4) 0.0000 0.6722(14)
O33A O -0.0103(4) 0.0000 0.7397(12)
O34A O 0.0501(5) 0.0000 0.7942(17)
O17C O 0.0349(3) -0.0547(7) 0.6530(13)
O17F O 0.0349(3) 0.0547(7) 0.6530(13)
C49A C -0.0457(4) 0.0000 0.6584(16)
C47A C -0.0575(5) 0.0000 0.7244(13)
C48A C -0.0577(5) 0.0000 0.5863(14)
C44A C -0.0830(5) 0.0000 0.7182(13)
H46A H -0.0484 0.0000 0.7735
H47A H -0.0491 0.0000 0.5421
C45A C -0.0833(5) 0.0000 0.5790(13)
N6A N -0.0951(3) 0.0000 0.6445(14)
H41A H -0.0916 0.0000 0.7626
H42A H -0.0923 0.0000 0.5297
Ru8A Ru -0.13415(4) 0.0000 0.63257(12)
O29A O -0.1313(2) -0.0516(4) 0.5521(9)
O31A O -0.1310(2) -0.0505(6) 0.7143(8)
O27A O -0.1707(3) 0.0000 0.6174(10)
O29D O -0.1313(2) 0.0516(4) 0.5521(9)
O31D O -0.1310(2) 0.0505(6) 0.7143(8)
C40A C -0.1444(4) -0.0607(10) 0.4954(13)
C43A C -0.1444(4) -0.0663(8) 0.7573(14)
Ru7A Ru -0.18696(4) 0.0000 0.52460(13)
Ru6A Ru -0.18535(4) 0.0000 0.71482(14)
C40D C -0.1444(4) 0.0607(10) 0.4954(13)
C43D C -0.1444(4) 0.0663(8) 0.7573(14)
O26A O -0.1660(3) -0.0504(5) 0.4816(6)
C42A C -0.1342(4) -0.0939(8) 0.4376(12)
O30A O -0.1643(3) -0.0507(5) 0.7690(8)
C46A C -0.1350(4) -0.1084(7) 0.8057(12)
O25A O -0.2105(3) 0.0515(6) 0.5556(12)
N5A N -0.2061(3) 0.0000 0.4206(9)
O25D O -0.2105(3) -0.0515(6) 0.5556(12)
O26D O -0.1660(3) 0.0504(5) 0.4816(6)
O28A O -0.2076(3) 0.0501(6) 0.6813(10)
O28D O -0.2076(3) -0.0501(6) 0.6813(10)
O30D O -0.1643(3) 0.0507(5) 0.7690(8)
N4A N -0.2054(4) 0.0000 0.8131(12)
C42D C -0.1342(4) 0.0939(8) 0.4376(12)
C46D C -0.1350(4) 0.1084(7) 0.8057(12)
H38A H -0.1167 -0.0885 0.4383
H39A H -0.1422 -0.0879 0.3859
H40A H -0.1370 -0.1261 0.4518
H43A H -0.1492 -0.1277 0.8131
H44A H -0.1269 -0.0992 0.8560
H45A H -0.1236 -0.1259 0.7775
C39A C -0.2157(5) 0.0728(10) 0.6198(19)
C38A C -0.2135(3) 0.0415(3) 0.3863(10)
C38D C -0.2135(3) -0.0415(3) 0.3863(10)
C39D C -0.2157(5) -0.0728(10) 0.6198(19)
H38D H -0.1167 0.0885 0.4383
H39D H -0.1422 0.0879 0.3859
H40D H -0.1370 0.1261 0.4518
H43D H -0.1492 0.1277 0.8131
H44D H -0.1269 0.0992 0.8560
H45D H -0.1236 0.1259 0.7775
C41A C -0.2330(4) 0.1091(8) 0.6049(13)
H34A H -0.2082 0.0698 0.4099
C34A C -0.2285(3) 0.0416(3) 0.3168(10)
H34D H -0.2082 -0.0698 0.4099
C34D C -0.2285(3) -0.0416(3) 0.3168(10)
C41D C -0.2330(4) -0.1091(8) 0.6049(13)
H35A H -0.2482 0.0986 0.6234
H36A H -0.2357 0.1157 0.5496
H37A H -0.2273 0.1372 0.6326
H30A H -0.2336 0.0702 0.2936
C30A C -0.2362(4) 0.0000 0.2816(11)
H30D H -0.2336 -0.0702 0.2936
H35D H -0.2482 -0.0986 0.6234
H36D H -0.2357 -0.1157 0.5496
H37D H -0.2273 -0.1372 0.6326
C27A C -0.2514(7) 0.0000 0.2003(16)
O20A O -0.2593(2) 0.0375(4) 0.1762(7)
O20D O -0.2593(2) -0.0375(4) 0.1762(7)
Ru4A Ru -0.28242(5) 0.06119(9) 0.08526(13)
Ru4D Ru -0.28242(5) -0.06119(9) 0.08526(13)
O14A O -0.3053(3) 0.0891(4) 0.1557(7)
O18A O -0.3031(2) 0.0860(5) -0.0087(7)
O19A O -0.2575(3) 0.0395(5) 0.0149(8)
O21A O -0.30057(19) 0.0000 0.0797(7)
O22A O -0.2641(3) 0.1248(4) 0.0919(10)
O19D O -0.2575(3) -0.0395(5) 0.0149(8)
O14D O -0.3053(3) -0.0891(4) 0.1557(7)
O18D O -0.3031(2) -0.0860(5) -0.0087(7)
O22D O -0.2641(3) -0.1248(4) 0.0919(10)
C22A C -0.3258(4) 0.0832(9) 0.1738(16)
C25A C -0.3228(4) 0.0751(8) -0.0414(13)
C26A C -0.2531(6) 0.0000 -0.0078(19)
Ru5A Ru -0.33753(7) 0.0000 0.0653(2)
C22D C -0.3258(4) -0.0832(9) 0.1738(16)
C25D C -0.3228(4) -0.0751(8) -0.0414(13)
O15A O -0.3387(3) 0.0512(5) 0.1507(7)
C17A C -0.3360(4) 0.1118(7) 0.2332(13)
O23A O -0.3384(3) 0.0481(6) -0.0210(8)
C28A C -0.3318(4) 0.1023(7) -0.1142(9)
C29A C -0.2325(6) 0.0000 -0.0623(15)
O24A O -0.3772(4) 0.0000 0.0392(16)
O15D O -0.3387(3) -0.0512(5) 0.1507(7)
O23D O -0.3384(3) -0.0481(6) -0.0210(8)
C17D C -0.3360(4) -0.1118(7) 0.2332(13)
C28D C -0.3318(4) -0.1023(7) -0.1142(9)
C11A C -0.3579(4) 0.1014(7) 0.2577(11)
C12A C -0.3217(4) 0.1476(7) 0.2715(12)
C31A C -0.3180(3) 0.1386(7) -0.1395(11)
C32A C -0.3539(4) 0.0904(6) -0.1556(11)
C33A C -0.2265(4) 0.0421(4) -0.0950(11)
C33D C -0.2265(4) -0.0421(4) -0.0950(11)
C11D C -0.3579(4) -0.1014(7) 0.2577(11)
C12D C -0.3217(4) -0.1476(7) 0.2715(12)
C31D C -0.3180(3) -0.1386(7) -0.1395(11)
C32D C -0.3539(4) -0.0904(6) -0.1556(11)
C5A C -0.3657(4) 0.1272(7) 0.3195(11)
H15A H -0.3674 0.0773 0.2329
H16A H -0.3063 0.1534 0.2539
C6A C -0.3286(4) 0.1743(8) 0.3320(12)
C35A C -0.3264(4) 0.1618(6) -0.2055(11)
H27A H -0.3034 0.1470 -0.1094
H28A H -0.3636 0.0659 -0.1391
C36A C -0.3617(3) 0.1142(7) -0.2214(11)
C37A C -0.2116(4) 0.0415(3) -0.1555(12)
H29A H -0.2318 0.0705 -0.0754
C37D C -0.2116(4) -0.0415(3) -0.1555(12)
H29D H -0.2318 -0.0705 -0.0754
C5D C -0.3657(4) -0.1272(7) 0.3195(11)
H15D H -0.3674 -0.0773 0.2329
H16D H -0.3063 -0.1534 0.2539
C6D C -0.3286(4) -0.1743(8) 0.3320(12)
C35D C -0.3264(4) -0.1618(6) -0.2055(11)
H27D H -0.3034 -0.1470 -0.1094
H28D H -0.3636 -0.0659 -0.1391
C36D C -0.3617(3) -0.1142(7) -0.2214(11)
N1A N -0.3510(4) 0.1611(5) 0.3522(8)
H1A H -0.3808 0.1209 0.3381
H2A H -0.3192 0.1986 0.3571
N3A N -0.3477(4) 0.1498(6) -0.2453(9)
H31A H -0.3170 0.1867 -0.2223
H32A H -0.3763 0.1063 -0.2520
N4A_2 N -0.2054(4) 0.0000 -0.1869(12)
H33A H -0.2067 0.0699 -0.1769
H33D H -0.2067 -0.0699 -0.1769
N1D N -0.3510(4) -0.1611(5) 0.3522(8)
H1D H -0.3808 -0.1209 0.3381
H2D H -0.3192 -0.1986 0.3571
N3D N -0.3477(4) -0.1498(6) -0.2453(9)
H31D H -0.3170 -0.1867 -0.2223
H32D H -0.3763 -0.1063 -0.2520
Ru1A Ru -0.36211(4) 0.18957(6) 0.45766(11)
Ru3A Ru -0.35929(4) 0.18358(6) -0.35080(11)
Ru6A_2 Ru -0.18535(4) 0.0000 -0.28518(14)
Ru1D Ru -0.36211(4) -0.18957(6) 0.45766(11)
Ru3D Ru -0.35929(4) -0.18358(6) -0.35080(11)
O1A O -0.3487(3) 0.2546(5) 0.4232(10)
O2A O -0.3936(3) 0.1995(6) 0.3982(11)
O3A O -0.3280(4) 0.1758(7) 0.4974(10)
O4A O -0.3750(4) 0.1242(5) 0.4827(10)
O5A O -0.3702(3) 0.2137(4) 0.5489(8)
O1D O -0.3487(3) -0.2546(5) 0.4232(10)
O2D O -0.3936(3) -0.1995(6) 0.3982(11)
O3D O -0.3280(4) -0.1758(7) 0.4974(10)
O4D O -0.3750(4) -0.1242(5) 0.4827(10)
O5D O -0.3702(3) -0.2137(4) 0.5489(8)
C1A C -0.3588(4) 0.2911(8) 0.4308(15)
C2A C -0.4122(6) 0.2152(11) 0.4156(17)
C3A C -0.3137(5) 0.1818(11) 0.5535(15)
C4A C -0.3735(3) 0.1074(8) 0.5473(13)
Ru2A Ru -0.39095(3) 0.26634(6) 0.55472(10)
Ru3A_2 Ru -0.35929(4) 0.18358(6) 0.64920(11)
C1D C -0.3588(4) -0.2911(8) 0.4308(15)
C2D C -0.4122(6) -0.2152(11) 0.4156(17)
C3D C -0.3137(5) -0.1818(11) 0.5535(15)
C4D C -0.3735(3) -0.1074(8) 0.5473(13)
Ru2D Ru -0.39095(3) -0.26634(6) 0.55472(10)
Ru3D_2 Ru -0.35929(4) -0.18358(6) 0.64920(11)
O6A O -0.3740(3) 0.3001(4) 0.4715(8)
C7A C -0.3487(4) 0.3303(8) 0.3863(13)
O7A O -0.4166(3) 0.2393(5) 0.4742(11)
C8A C -0.4363(4) 0.2155(8) 0.3609(13)
O8A O -0.3218(4) 0.1824(6) 0.6168(14)
C9A C -0.2866(4) 0.1716(8) 0.5655(13)
O9A O -0.3668(4) 0.1196(7) 0.6109(12)
C10A C -0.3829(4) 0.0575(8) 0.5425(13)
O10A O -0.4114(3) 0.2426(5) 0.6341(10)
O11A O -0.3673(3) 0.2981(5) 0.6356(9)
N2A N -0.4128(2) 0.3258(4) 0.5577(9)
O12A O -0.3935(4) 0.1788(6) 0.6793(11)
O13A O -0.3512(4) 0.2428(6) 0.7067(9)
N3A_2 N -0.3477(4) 0.1498(6) 0.7547(9)
O6D O -0.3740(3) -0.3001(4) 0.4715(8)
C7D C -0.3487(4) -0.3303(8) 0.3863(13)
O7D O -0.4166(3) -0.2393(5) 0.4742(11)
C8D C -0.4363(4) -0.2155(8) 0.3609(13)
O8D O -0.3218(4) -0.1824(6) 0.6168(14)
C9D C -0.2866(4) -0.1716(8) 0.5655(13)
O9D O -0.3668(4) -0.1196(7) 0.6109(12)
C10D C -0.3829(4) -0.0575(8) 0.5425(13)
O10D O -0.4114(3) -0.2426(5) 0.6341(10)
O11D O -0.3673(3) -0.2981(5) 0.6356(9)
N2D N -0.4128(2) -0.3258(4) 0.5577(9)
O12D O -0.3935(4) -0.1788(6) 0.6793(11)
O13D O -0.3512(4) -0.2428(6) 0.7067(9)
N3D_2 N -0.3477(4) -0.1498(6) 0.7547(9)
H3A H -0.3489 0.3211 0.3323
H4A H -0.3319 0.3362 0.4079
H5A H -0.3583 0.3585 0.3898
H6A H -0.4499 0.2300 0.3835
H7A H -0.4400 0.1828 0.3502
H8A H -0.4336 0.2313 0.3129
H9A H -0.2770 0.1978 0.5877
H10A H -0.2815 0.1643 0.5148
H11A H -0.2838 0.1446 0.5993
H12A H -0.3736 0.0384 0.5097
H13A H -0.4000 0.0582 0.5208
H14A H -0.3818 0.0443 0.5944
C13A C -0.4112(4) 0.2056(8) 0.6674(14)
C14A C -0.3547(5) 0.2843(8) 0.6939(13)
C15A C -0.4167(3) 0.3424(5) 0.6298(9)
C16A C -0.4249(3) 0.3439(6) 0.4911(9)
H3D H -0.3489 -0.3211 0.3323
H4D H -0.3319 -0.3362 0.4079
H5D H -0.3583 -0.3585 0.3898
H6D H -0.4499 -0.2300 0.3835
H7D H -0.4400 -0.1828 0.3502
H8D H -0.4336 -0.2313 0.3129
H9D H -0.2770 -0.1978 0.5877
H10D H -0.2815 -0.1643 0.5148
H11D H -0.2838 -0.1446 0.5993
H12D H -0.3736 -0.0384 0.5097
H13D H -0.4000 -0.0582 0.5208
H14D H -0.3818 -0.0443 0.5944
C13D C -0.4112(4) -0.2056(8) 0.6674(14)
C14D C -0.3547(5) -0.2843(8) 0.6939(13)
C15D C -0.4167(3) -0.3424(5) 0.6298(9)
C16D C -0.4249(3) -0.3439(6) 0.4911(9)
C18A C -0.4316(4) 0.2013(8) 0.7211(13)
C19A C -0.3453(4) 0.3173(8) 0.7600(12)
H17A H -0.4079 0.3300 0.6748
C20A C -0.4335(3) 0.3780(5) 0.6356(9)
C21A C -0.4418(3) 0.3794(5) 0.4979(9)
H18A H -0.4216 0.3324 0.4422
C18D C -0.4316(4) -0.2013(8) 0.7211(13)
C19D C -0.3453(4) -0.3173(8) 0.7600(12)
H17D H -0.4079 -0.3300 0.6748
C20D C -0.4335(3) -0.3780(5) 0.6356(9)
C21D C -0.4418(3) -0.3794(5) 0.4979(9)
H18D H -0.4216 -0.3324 0.4422
H19A H -0.4257 0.2088 0.7744
H20A H -0.4376 0.1694 0.7183
H21A H -0.4448 0.2224 0.7031
H22A H -0.3388 0.2972 0.8025
H23A H -0.3579 0.3374 0.7773
H24A H -0.3321 0.3363 0.7435
H25A H -0.4363 0.3899 0.6845
C23A C -0.4459(2) 0.3961(4) 0.5691(11)
H26A H -0.4508 0.3914 0.4529
H19D H -0.4257 -0.2088 0.7744
H20D H -0.4376 -0.1694 0.7183
H21D H -0.4448 -0.2224 0.7031
H22D H -0.3388 -0.2972 0.8025
H23D H -0.3579 -0.3374 0.7773
H24D H -0.3321 -0.3363 0.7435
H25D H -0.4363 -0.3899 0.6845
C23D C -0.4459(2) -0.3961(4) 0.5691(11)
H26D H -0.4508 -0.3914 0.4529
C24A C -0.4632(4) 0.4342(7) 0.5835(13)
C24D C -0.4632(4) -0.4342(7) 0.5835(13)
O16A O -0.4739(2) 0.4489(4) 0.5207(9)
O17A O -0.4651(3) 0.4453(7) 0.6530(13)
O16D O -0.4739(2) -0.4489(4) 0.5207(9)
O17D O -0.4651(3) -0.4453(7) 0.6530(13)
Co1_3 Co -0.5000 0.5000 0.5000
Co2A Co -0.47485(8) 0.5000 0.7011(3)
Co1_4 Co -0.5000 -0.5000 0.5000
Co2A_2 Co -0.47485(8) -0.5000 0.7011(3)
loop_
_geom_bond_atom_site_label_1
_geom_bond_atom_site_label_2
_geom_bond_site_symmetry_1
_geom_bond_site_symmetry_2
Ru1 O1 1_555 1_555
O1 C1 1_555 1_555
O2 Ru1 1_555 1_555
O3 Ru1 1_555 1_555
O4 Ru1 1_555 1_555
O5 Ru1 1_555 1_555
N1 Ru1 1_555 1_555
C1 O6 1_555 1_555
C2 O2 1_555 1_555
C3 O3 1_555 1_555
C4 O4 1_555 1_555
Ru2 O5 1_555 1_555
Ru3 O5 1_555 1_555
C5 N1 1_555 1_555
C6 N1 1_555 1_555
O6 Ru2 1_555 1_555
C7 C1 1_555 1_555
O7 C2 1_555 1_555
C8 C2 1_555 1_555
O8 C3 1_555 1_555
C9 C3 1_555 1_555
O9 C4 1_555 1_555
C10 C4 1_555 1_555
O10 Ru2 1_555 1_555
O11 Ru2 1_555 1_555
N2 Ru2 1_555 1_555
O12 Ru3 1_555 1_555
O13 Ru3 1_555 1_555
N3 Ru3 1_555 1_555
H1 C5 1_555 1_555
C11 C5 1_555 1_555
C12 C6 1_555 1_555
H2 C6 1_555 1_555
H3 C7 1_555 1_555
H4 C7 1_555 1_555
H5 C7 1_555 1_555
H6 C8 1_555 1_555
H7 C8 1_555 1_555
H8 C8 1_555 1_555
H9 C9 1_555 1_555
H10 C9 1_555 1_555
H11 C9 1_555 1_555
H12 C10 1_555 1_555
H13 C10 1_555 1_555
H14 C10 1_555 1_555
C13 O10 1_555 1_555
C14 O11 1_555 1_555
C15 N2 1_555 1_555
C16 N2 1_555 1_555
H15 C11 1_555 1_555
C17 C11 1_555 1_555
H16 C12 1_555 1_555
C18 C13 1_555 1_555
C19 C14 1_555 1_555
H17 C15 1_555 1_555
C20 C15 1_555 1_555
C21 C16 1_555 1_555
H18 C16 1_555 1_555
C22 C17 1_555 1_555
H19 C18 1_555 1_555
H20 C18 1_555 1_555
H21 C18 1_555 1_555
H22 C19 1_555 1_555
H23 C19 1_555 1_555
H24 C19 1_555 1_555
H25 C20 1_555 1_555
C23 C20 1_555 1_555
H26 C21 1_555 1_555
O14 C22 1_555 1_555
O15 C22 1_555 1_555
C24 C23 1_555 1_555
Ru4 O14 1_555 1_555
Ru5 O15 1_555 1_555
O16 C24 1_555 1_555
O17 C24 1_555 1_555
O18 Ru4 1_555 1_555
O19 Ru4 1_555 1_555
O20 Ru4 1_555 1_555
O21 Ru4 1_555 1_555
O22 Ru4 1_555 1_555
O23 Ru5 1_555 1_555
O24 Ru5 1_555 1_555
Co1 O16 1_555 1_555
Co2 O17 1_555 1_555
C25 O18 1_555 1_555
C26 O19 1_555 1_555
C27 O20 1_555 1_555
C28 C25 1_555 1_555
C29 C26 1_555 1_555
C30 C27 1_555 1_555
C31 C28 1_555 1_555
C32 C28 1_555 1_555
C33 C29 1_555 1_555
C34 C30 1_555 1_555
C35 C31 1_555 1_555
H27 C31 1_555 1_555
H28 C32 1_555 1_555
C36 C32 1_555 1_555
C37 C33 1_555 1_555
H29 C33 1_555 1_555
C38 C34 1_555 1_555
H30 C34 1_555 1_555
H31 C35 1_555 1_555
H32 C36 1_555 1_555
N4 C37 1_555 1_555
H33 C37 1_555 1_555
N5 C38 1_555 1_555
H34 C38 1_555 1_555
Ru6 N4 1_555 1_555
Ru7 N5 1_555 1_555
O25 Ru7 1_555 1_555
O26 Ru7 1_555 1_555
O27 Ru7 1_555 1_555
C39 O25 1_555 1_555
C40 O26 1_555 1_555
Ru8 O27 1_555 1_555
O28 C39 1_555 1_555
C41 C39 1_555 1_555
O29 C40 1_555 1_555
C42 C40 1_555 1_555
O30 C43 1_555 1_555
O31 Ru8 1_555 1_555
N6 Ru8 1_555 1_555
H35 C41 1_555 1_555
H36 C41 1_555 1_555
H37 C41 1_555 1_555
H38 C42 1_555 1_555
H39 C42 1_555 1_555
H40 C42 1_555 1_555
C43 O31 1_555 1_555
C44 N6 1_555 1_555
C45 N6 1_555 1_555
C46 C43 1_555 1_555
H41 C44 1_555 1_555
C47 C44 1_555 1_555
C48 C45 1_555 1_555
H42 C45 1_555 1_555
H43 C46 1_555 1_555
H44 C46 1_555 1_555
H45 C46 1_555 1_555
H46 C47 1_555 1_555
C49 C47 1_555 1_555
H47 C48 1_555 1_555
C50 C49 1_555 1_555
O32 C50 1_555 1_555
O33 C50 1_555 1_555
O34 Co2B 1_555 1_555
O15E Ru5 1_555 1_555
O23E Ru5 1_555 1_555
Ru4E O21 1_555 1_555
C22E O15E 1_555 1_555
C25E O23E 1_555 1_555
O19E C26 1_555 1_555
O20E C27 1_555 1_555
O14E Ru4E 1_555 1_555
O18E Ru4E 1_555 1_555
O22E Ru4E 1_555 1_555
C17E C22E 1_555 1_555
C28E C25E 1_555 1_555
C33E C29 1_555 1_555
C34E C30 1_555 1_555
C11E C17E 1_555 1_555
C12E C17E 1_555 1_555
C31E C28E 1_555 1_555
C32E C28E 1_555 1_555
C37E N4 1_555 1_555
H29E C33E 1_555 1_555
C38E N5 1_555 1_555
H30E C34E 1_555 1_555
C5E C11E 1_555 1_555
H15E C11E 1_555 1_555
H16E C12E 1_555 1_555
C6E C12E 1_555 1_555
C35E C31E 1_555 1_555
H27E C31E 1_555 1_555
H28E C32E 1_555 1_555
C36E C32E 1_555 1_555
N3_2 C35 1_555 1_555
H33E C37E 1_555 1_555
H34E C38E 1_555 1_555
N1E C5E 1_555 1_555
H1E C5E 1_555 1_555
H2E C6E 1_555 1_555
N3E C35E 1_555 1_555
H31E C35E 1_555 1_555
H32E C36E 1_555 1_555
Ru3_2 N3_2 1_555 1_555
Ru1E N1E 1_555 1_555
Ru3E N3E 1_555 1_555
O25E Ru7 1_555 1_555
O26E Ru7 1_555 1_555
O1E Ru1E 1_555 1_555
O2E Ru1E 1_555 1_555
O3E Ru1E 1_555 1_555
O4E Ru1E 1_555 1_555
O5E Ru1E 1_555 1_555
Ru6_2 O27 1_555 1_555
C39E O25E 1_555 1_555
C40E O26E 1_555 1_555
C1E O1E 1_555 1_555
C2E O2E 1_555 1_555
C3E O3E 1_555 1_555
C4E O4E 1_555 1_555
Ru2E O5E 1_555 1_555
Ru3E_2 O5E 1_555 1_555
O28E Ru6_2 1_555 1_555
O30E Ru6_2 1_555 1_555
N4_2 Ru6_2 1_555 1_555
O29E Ru8 1_555 1_555
O31E Ru8 1_555 1_555
C41E C39E 1_555 1_555
C42E C40E 1_555 1_555
O6E C1E 1_555 1_555
C7E C1E 1_555 1_555
O7E C2E 1_555 1_555
C8E C2E 1_555 1_555
O8E C3E 1_555 1_555
C9E C3E 1_555 1_555
O9E C4E 1_555 1_555
C10E C4E 1_555 1_555
O10E Ru2E 1_555 1_555
O11E Ru2E 1_555 1_555
N2E Ru2E 1_555 1_555
O12E Ru3E_2 1_555 1_555
O13E Ru3E_2 1_555 1_555
N3E_2 Ru3E_2 1_555 1_555
C43E O30E 1_555 1_555
H35E C41E 1_555 1_555
H36E C41E 1_555 1_555
H37E C41E 1_555 1_555
H38E C42E 1_555 1_555
H39E C42E 1_555 1_555
H40E C42E 1_555 1_555
H3E C7E 1_555 1_555
H4E C7E 1_555 1_555
H5E C7E 1_555 1_555
H6E C8E 1_555 1_555
H7E C8E 1_555 1_555
H8E C8E 1_555 1_555
H9E C9E 1_555 1_555
H10E C9E 1_555 1_555
H11E C9E 1_555 1_555
H12E C10E 1_555 1_555
H13E C10E 1_555 1_555
H14E C10E 1_555 1_555
C13E O10E 1_555 1_555
C14E O11E 1_555 1_555
C15E N2E 1_555 1_555
C16E N2E 1_555 1_555
C46E C43E 1_555 1_555
C18E C13E 1_555 1_555
C19E C14E 1_555 1_555
H17E C15E 1_555 1_555
C20E C15E 1_555 1_555
C21E C16E 1_555 1_555
H18E C16E 1_555 1_555
H43E C46E 1_555 1_555
H44E C46E 1_555 1_555
H45E C46E 1_555 1_555
H19E C18E 1_555 1_555
H20E C18E 1_555 1_555
H21E C18E 1_555 1_555
H22E C19E 1_555 1_555
H23E C19E 1_555 1_555
H24E C19E 1_555 1_555
H25E C20E 1_555 1_555
C23E C20E 1_555 1_555
H26E C21E 1_555 1_555
C24E C23E 1_555 1_555
O16E C24E 1_555 1_555
O17E C24E 1_555 1_555
Co1B O32 1_555 1_555
Co2B O32 1_555 1_555
Co1_2 O16E 1_555 1_555
Co2_2 O17E 1_555 1_555
O32A Co1B 1_555 1_555
O16B Co1B 1_555 1_555
O16C Co1B 1_555 1_555
O16F Co1B 1_555 1_555
O16G Co1B 1_555 1_555
O17B Co2B 1_555 1_555
O17G Co2B 1_555 1_555
Co2C O32A 1_555 1_555
C50A O32A 1_555 1_555
O33A Co2C 1_555 1_555
O34A Co2C 1_555 1_555
O17C Co2C 1_555 1_555
O17F Co2C 1_555 1_555
C49A C50A 1_555 1_555
C47A C49A 1_555 1_555
C48A C49A 1_555 1_555
C44A C47A 1_555 1_555
H46A C47A 1_555 1_555
H47A C48A 1_555 1_555
C45A C48A 1_555 1_555
N6A C44A 1_555 1_555
H41A C44A 1_555 1_555
H42A C45A 1_555 1_555
Ru8A N6A 1_555 1_555
O29A Ru8A 1_555 1_555
O31A Ru8A 1_555 1_555
O27A Ru8A 1_555 1_555
O29D Ru8A 1_555 1_555
O31D Ru8A 1_555 1_555
C40A O29A 1_555 1_555
C43A O31A 1_555 1_555
Ru7A O27A 1_555 1_555
Ru6A O27A 1_555 1_555
C40D O29D 1_555 1_555
C43D O31D 1_555 1_555
O26A C40A 1_555 1_555
C42A C40A 1_555 1_555
O30A C43A 1_555 1_555
C46A C43A 1_555 1_555
O25A Ru7A 1_555 1_555
N5A Ru7A 1_555 1_555
O25D Ru7A 1_555 1_555
O26D Ru7A 1_555 1_555
O28A Ru6A 1_555 1_555
O28D Ru6A 1_555 1_555
O30D Ru6A 1_555 1_555
N4A Ru6A 1_555 1_555
C42D C40D 1_555 1_555
C46D C43D 1_555 1_555
H38A C42A 1_555 1_555
H39A C42A 1_555 1_555
H40A C42A 1_555 1_555
H43A C46A 1_555 1_555
H44A C46A 1_555 1_555
H45A C46A 1_555 1_555
C39A O25A 1_555 1_555
C38A N5A 1_555 1_555
C38D N5A 1_555 1_555
C39D O25D 1_555 1_555
H38D C42D 1_555 1_555
H39D C42D 1_555 1_555
H40D C42D 1_555 1_555
H43D C46D 1_555 1_555
H44D C46D 1_555 1_555
H45D C46D 1_555 1_555
C41A C39A 1_555 1_555
H34A C38A 1_555 1_555
C34A C38A 1_555 1_555
H34D C38D 1_555 1_555
C34D C38D 1_555 1_555
C41D C39D 1_555 1_555
H35A C41A 1_555 1_555
H36A C41A 1_555 1_555
H37A C41A 1_555 1_555
H30A C34A 1_555 1_555
C30A C34A 1_555 1_555
H30D C34D 1_555 1_555
H35D C41D 1_555 1_555
H36D C41D 1_555 1_555
H37D C41D 1_555 1_555
C27A C30A 1_555 1_555
O20A C27A 1_555 1_555
O20D C27A 1_555 1_555
Ru4A O20A 1_555 1_555
Ru4D O20D 1_555 1_555
O14A Ru4A 1_555 1_555
O18A Ru4A 1_555 1_555
O19A Ru4A 1_555 1_555
O21A Ru4A 1_555 1_555
O22A Ru4A 1_555 1_555
O19D Ru4D 1_555 1_555
O14D Ru4D 1_555 1_555
O18D Ru4D 1_555 1_555
O22D Ru4D 1_555 1_555
C22A O14A 1_555 1_555
C25A O18A 1_555 1_555
C26A O19A 1_555 1_555
Ru5A O21A 1_555 1_555
C22D O14D 1_555 1_555
C25D O18D 1_555 1_555
O15A C22A 1_555 1_555
C17A C22A 1_555 1_555
O23A C25A 1_555 1_555
C28A C25A 1_555 1_555
C29A C26A 1_555 1_555
O24A Ru5A 1_555 1_555
O15D Ru5A 1_555 1_555
O23D Ru5A 1_555 1_555
C17D C22D 1_555 1_555
C28D C25D 1_555 1_555
C11A C17A 1_555 1_555
C12A C17A 1_555 1_555
C31A C28A 1_555 1_555
C32A C28A 1_555 1_555
C33A C29A 1_555 1_555
C33D C29A 1_555 1_555
C11D C17D 1_555 1_555
C12D C17D 1_555 1_555
C31D C28D 1_555 1_555
C32D C28D 1_555 1_555
C5A C11A 1_555 1_555
H15A C11A 1_555 1_555
H16A C12A 1_555 1_555
C6A C12A 1_555 1_555
C35A C31A 1_555 1_555
H27A C31A 1_555 1_555
H28A C32A 1_555 1_555
C36A C32A 1_555 1_555
C37A C33A 1_555 1_555
H29A C33A 1_555 1_555
C37D C33D 1_555 1_555
H29D C33D 1_555 1_555
C5D C11D 1_555 1_555
H15D C11D 1_555 1_555
H16D C12D 1_555 1_555
C6D C12D 1_555 1_555
C35D C31D 1_555 1_555
H27D C31D 1_555 1_555
H28D C32D 1_555 1_555
C36D C32D 1_555 1_555
N1A C5A 1_555 1_555
H1A C5A 1_555 1_555
H2A C6A 1_555 1_555
N3A C35A 1_555 1_555
H31A C35A 1_555 1_555
H32A C36A 1_555 1_555
N4A_2 C37A 1_555 1_555
H33A C37A 1_555 1_555
H33D C37D 1_555 1_555
N1D C5D 1_555 1_555
H1D C5D 1_555 1_555
H2D C6D 1_555 1_555
N3D C35D 1_555 1_555
H31D C35D 1_555 1_555
H32D C36D 1_555 1_555
Ru1A N1A 1_555 1_555
Ru3A N3A 1_555 1_555
Ru6A_2 N4A_2 1_555 1_555
Ru1D N1D 1_555 1_555
Ru3D N3D 1_555 1_555
O1A Ru1A 1_555 1_555
O2A Ru1A 1_555 1_555
O3A Ru1A 1_555 1_555
O4A Ru1A 1_555 1_555
O5A Ru1A 1_555 1_555
O1D Ru1D 1_555 1_555
O2D Ru1D 1_555 1_555
O3D Ru1D 1_555 1_555
O4D Ru1D 1_555 1_555
O5D Ru1D 1_555 1_555
C1A O1A 1_555 1_555
C2A O2A 1_555 1_555
C3A O3A 1_555 1_555
C4A O4A 1_555 1_555
Ru2A O5A 1_555 1_555
Ru3A_2 O5A 1_555 1_555
C1D O1D 1_555 1_555
C2D O2D 1_555 1_555
C3D O3D 1_555 1_555
C4D O4D 1_555 1_555
Ru2D O5D 1_555 1_555
Ru3D_2 O5D 1_555 1_555
O6A C1A 1_555 1_555
C7A C1A 1_555 1_555
O7A C2A 1_555 1_555
C8A C2A 1_555 1_555
O8A C3A 1_555 1_555
C9A C3A 1_555 1_555
O9A C4A 1_555 1_555
C10A C4A 1_555 1_555
O10A Ru2A 1_555 1_555
O11A Ru2A 1_555 1_555
N2A Ru2A 1_555 1_555
O12A Ru3A_2 1_555 1_555
O13A Ru3A_2 1_555 1_555
N3A_2 Ru3A_2 1_555 1_555
O6D C1D 1_555 1_555
C7D C1D 1_555 1_555
O7D C2D 1_555 1_555
C8D C2D 1_555 1_555
O8D C3D 1_555 1_555
C9D C3D 1_555 1_555
O9D C4D 1_555 1_555
C10D C4D 1_555 1_555
O10D Ru2D 1_555 1_555
O11D Ru2D 1_555 1_555
N2D Ru2D 1_555 1_555
O12D Ru3D_2 1_555 1_555
O13D Ru3D_2 1_555 1_555
N3D_2 Ru3D_2 1_555 1_555
H3A C7A 1_555 1_555
H4A C7A 1_555 1_555
H5A C7A 1_555 1_555
H6A C8A 1_555 1_555
H7A C8A 1_555 1_555
H8A C8A 1_555 1_555
H9A C9A 1_555 1_555
H10A C9A 1_555 1_555
H11A C9A 1_555 1_555
H12A C10A 1_555 1_555
H13A C10A 1_555 1_555
H14A C10A 1_555 1_555
C13A O10A 1_555 1_555
C14A O11A 1_555 1_555
C15A N2A 1_555 1_555
C16A N2A 1_555 1_555
H3D C7D 1_555 1_555
H4D C7D 1_555 1_555
H5D C7D 1_555 1_555
H6D C8D 1_555 1_555
H7D C8D 1_555 1_555
H8D C8D 1_555 1_555
H9D C9D 1_555 1_555
H10D C9D 1_555 1_555
H11D C9D 1_555 1_555
H12D C10D 1_555 1_555
H13D C10D 1_555 1_555
H14D C10D 1_555 1_555
C13D O10D 1_555 1_555
C14D O11D 1_555 1_555
C15D N2D 1_555 1_555
C16D N2D 1_555 1_555
C18A C13A 1_555 1_555
C19A C14A 1_555 1_555
H17A C15A 1_555 1_555
C20A C15A 1_555 1_555
C21A C16A 1_555 1_555
H18A C16A 1_555 1_555
C18D C13D 1_555 1_555
C19D C14D 1_555 1_555
H17D C15D 1_555 1_555
C20D C15D 1_555 1_555
C21D C16D 1_555 1_555
H18D C16D 1_555 1_555
H19A C18A 1_555 1_555
H20A C18A 1_555 1_555
H21A C18A 1_555 1_555
H22A C19A 1_555 1_555
H23A C19A 1_555 1_555
H24A C19A 1_555 1_555
H25A C20A 1_555 1_555
C23A C20A 1_555 1_555
H26A C21A 1_555 1_555
H19D C18D 1_555 1_555
H20D C18D 1_555 1_555
H21D C18D 1_555 1_555
H22D C19D 1_555 1_555
H23D C19D 1_555 1_555
H24D C19D 1_555 1_555
H25D C20D 1_555 1_555
C23D C20D 1_555 1_555
H26D C21D 1_555 1_555
C24A C23A 1_555 1_555
C24D C23D 1_555 1_555
O16A C24A 1_555 1_555
O17A C24A 1_555 1_555
O16D C24D 1_555 1_555
O17D C24D 1_555 1_555
Co1_3 O16A 1_555 1_555
Co2A O17A 1_555 1_555
Co1_4 O16D 1_555 1_555
Co2A_2 O17D 1_555 1_555
Ru2 O7 1_555 1_555
Ru3 O8 1_555 1_555
Ru3 O9 1_555 1_555
O12 C13 1_555 1_555
O13 C14 1_555 1_555
C12 C17 1_555 1_555
C21 C23 1_555 1_555
Ru5 O21 1_555 1_555
O23 C25 1_555 1_555
C36 N3_2 1_555 1_555
Ru8 O29 1_555 1_555
O28 Ru6_2 1_555 1_555
O30 Ru6_2 1_555 1_555
C48 C49 1_555 1_555
O33 Co2B 1_555 1_555
Ru4E O19E 1_555 1_555
Ru4E O20E 1_555 1_555
C22E O14E 1_555 1_555
C25E O18E 1_555 1_555
C33E C37E 1_555 1_555
C34E C38E 1_555 1_555
C6E N1E 1_555 1_555
C36E N3E 1_555 1_555
C39E O28E 1_555 1_555
C40E O29E 1_555 1_555
Ru2E O6E 1_555 1_555
Ru2E O7E 1_555 1_555
Ru3E_2 O8E 1_555 1_555
Ru3E_2 O9E 1_555 1_555
O31E C43E 1_555 1_555
O12E C13E 1_555 1_555
O13E C14E 1_555 1_555
C21E C23E 1_555 1_555
C50A O33A 1_555 1_555
C45A N6A 1_555 1_555
Ru7A O26A 1_555 1_555
Ru6A O30A 1_555 1_555
C40D O26D 1_555 1_555
C43D O30D 1_555 1_555
O28A C39A 1_555 1_555
O28D C39D 1_555 1_555
C34D C30A 1_555 1_555
Ru4D O21A 1_555 1_555
O19D C26A 1_555 1_555
Ru5A O15A 1_555 1_555
Ru5A O23A 1_555 1_555
C22D O15D 1_555 1_555
C25D O23D 1_555 1_555
C6A N1A 1_555 1_555
C36A N3A 1_555 1_555
C37D N4A_2 1_555 1_555
C6D N1D 1_555 1_555
C36D N3D 1_555 1_555
Ru2A O6A 1_555 1_555
Ru2A O7A 1_555 1_555
Ru3A_2 O8A 1_555 1_555
Ru3A_2 O9A 1_555 1_555
Ru2D O6D 1_555 1_555
Ru2D O7D 1_555 1_555
Ru3D_2 O8D 1_555 1_555
Ru3D_2 O9D 1_555 1_555
O12A C13A 1_555 1_555
O13A C14A 1_555 1_555
O12D C13D 1_555 1_555
O13D C14D 1_555 1_555
C21A C23A 1_555 1_555
C21D C23D 1_555 1_555

#END
