
#######################################################################
#
#                 Cambridge Crystallographic Data Centre
#                                CCDC 
#
#######################################################################
#
# If this CIF has been generated from an entry in the Cambridge 
# Structural Database, then it will include bibliographic, chemical, 
# crystal, experimental, refinement or atomic coordinate data resulting 
# from the CCDC's data processing and validation procedures.
#
#######################################################################

data_TOZGUK
_symmetry_cell_setting           tetragonal
_symmetry_space_group_name_H-M   'I 41/a m d'
_symmetry_Int_Tables_number      141
_space_group_name_Hall           '-I 4bd 2'
loop_
_symmetry_equiv_pos_site_id
_symmetry_equiv_pos_as_xyz
1 x,y,z
2 1/4-y,3/4+x,1/4+z
3 x,-y,-z
4 1/2-x,-y,1/2+z
5 1/4+y,3/4+x,1/4-z
6 1/4+y,1/4-x,3/4+z
7 1/2-x,y,1/2-z
8 1/4-y,1/4-x,3/4-z
9 1/2+x,1/2+y,1/2+z
10 3/4-y,1/4+x,3/4+z
11 1/2+x,1/2-y,1/2-z
12 -x,1/2-y,z
13 3/4+y,1/4+x,3/4-z
14 3/4+y,3/4-x,1/4+z
15 -x,1/2+y,-z
16 3/4-y,3/4-x,1/4-z
17 -x,-y,-z
18 3/4+y,1/4-x,3/4-z
19 -x,y,z
20 1/2+x,y,1/2-z
21 3/4-y,1/4-x,3/4+z
22 3/4-y,3/4+x,1/4-z
23 1/2+x,-y,1/2+z
24 3/4+y,3/4+x,1/4+z
25 1/2-x,1/2-y,1/2-z
26 1/4+y,3/4-x,1/4-z
27 1/2-x,1/2+y,1/2+z
28 x,1/2+y,-z
29 1/4-y,3/4-x,1/4+z
30 1/4-y,1/4+x,3/4-z
31 x,1/2-y,z
32 1/4+y,1/4+x,3/4+z
_cell_length_a                   7.1380(10)
_cell_length_b                   7.1380(10)
_cell_length_c                   30.212(6)
_cell_angle_alpha                90
_cell_angle_beta                 90
_cell_angle_gamma                90
_cell_volume                     1539.33
loop_
_atom_site_label
_atom_site_type_symbol
_atom_site_fract_x
_atom_site_fract_y
_atom_site_fract_z
P1 P 0.0000 0.7500 0.1250
F1 F 0.0000 0.7500 0.0694(1)
F2 F 0.1194(6) 0.5475(5) 0.1247(2)
F1D F 0.0000 0.7500 0.1806(1)
F2O F 0.2025(5) 0.6306(6) 0.1253(2)
F2D F -0.2025(5) 0.8694(6) 0.1253(2)
F2K F -0.1194(6) 0.9525(5) 0.1247(2)
F2R F -0.1194(6) 0.5475(5) 0.1247(2)
F2Y F -0.2025(5) 0.6306(6) 0.1253(2)
F2U F 0.2025(5) 0.8694(6) 0.1253(2)
F2DA F 0.1194(6) 0.9525(5) 0.1247(2)
O1 O 0.0000 0.2500 0.0708(10)
Ag1 Ag 0.0000 0.5000 0.0000
N1 N 0.3064(5) 0.5000 0.0000
C1 C 0.4031(5) 0.5071(6) 0.0370(1)
H1 H 0.3396(5) 0.5123(6) 0.0638(1)
C1R C 0.5969(5) 0.5071(6) 0.0370(1)
N1R N 0.6936(5) 0.5000 0.0000
Ag1R Ag 1.0000 0.5000 0.0000
C1P C 0.5969(5) 0.4929(6) -0.0370(1)
C1B C 0.4031(5) 0.4929(6) -0.0370(1)
H1B H 0.3396(5) 0.4877(6) -0.0638(1)
H1P H 0.6604(5) 0.4877(6) -0.0638(1)
H1R H 0.6604(5) 0.5123(6) 0.0638(1)
N1P N -0.3064(5) 0.5000 0.0000
O2? O 0.0495(44) 0.2500 0.0825(10)
loop_
_geom_bond_atom_site_label_1
_geom_bond_atom_site_label_2
_geom_bond_site_symmetry_1
_geom_bond_site_symmetry_2
Ag1 N1 1_555 1_555
N1 C1 1_555 1_555
C1 H1 1_555 1_555
P1 F1 1_555 1_555
F2 P1 1_555 1_555
C1R C1 1_555 1_555
N1R C1R 1_555 1_555
Ag1R N1R 1_555 1_555
C1P N1R 1_555 1_555
C1B N1 1_555 1_555
H1B C1B 1_555 1_555
H1P C1P 1_555 1_555
H1R C1R 1_555 1_555
N1P Ag1 1_555 1_555
F1D P1 1_555 1_555
F2O P1 1_555 1_555
F2D P1 1_555 1_555
F2K P1 1_555 1_555
F2R P1 1_555 1_555
F2Y P1 1_555 1_555
F2U P1 1_555 1_555
F2DA P1 1_555 1_555
F2 F2O 1_555 1_555
C1P C1B 1_555 1_555
F2D F2K 1_555 1_555
F2R F2Y 1_555 1_555
F2U F2DA 1_555 1_555

#END
