
#######################################################################
#
#                 Cambridge Crystallographic Data Centre
#                                CCDC 
#
#######################################################################
#
# If this CIF has been generated from an entry in the Cambridge 
# Structural Database, then it will include bibliographic, chemical, 
# crystal, experimental, refinement or atomic coordinate data resulting 
# from the CCDC's data processing and validation procedures.
#
#######################################################################

data_TOZGOE
_symmetry_cell_setting           triclinic
_symmetry_space_group_name_H-M   'P -1'
_symmetry_Int_Tables_number      2
_space_group_name_Hall           '-P 1'
loop_
_symmetry_equiv_pos_site_id
_symmetry_equiv_pos_as_xyz
1 x,y,z
2 -x,-y,-z
_cell_length_a                   7.305(2)
_cell_length_b                   9.037(4)
_cell_length_c                   10.504(5)
_cell_angle_alpha                98.73(2)
_cell_angle_beta                 106.79(2)
_cell_angle_gamma                111.84(2)
_cell_volume                     589.412
loop_
_atom_site_label
_atom_site_type_symbol
_atom_site_fract_x
_atom_site_fract_y
_atom_site_fract_z
Ag1 Ag -0.8315(1) 0.2121(1) 0.1245(1)
S1 S -1.0247(2) -0.1909(2) 0.2358(2)
F1 F -0.9605(13) -0.3895(11) 0.3788(9)
F2 F -0.7107(13) -0.2645(14) 0.3135(9)
F3 F -0.7501(15) -0.1362(14) 0.4775(7)
C1 C -0.8528(17) -0.2466(15) 0.3575(10)
O1 O -0.8812(9) -0.0426(7) 0.2205(7)
O2 O -1.1643(10) -0.1707(8) 0.2984(7)
O3 O -1.1238(9) -0.3280(7) 0.1129(6)
N1 N -0.1436(7) 0.2114(6) 0.1135(5)
N2 N -0.5291(7) 0.2103(5) 0.1059(5)
N3 N -0.3842(8) 0.6129(6) 0.6330(5)
C2 C -0.2386(9) 0.2825(7) 0.0328(6)
C3 C -0.4295(8) 0.2814(7) 0.0293(6)
C4 C -1.4308(9) 0.1397(8) 0.1881(6)
C5 C -0.2432(9) 0.1411(8) 0.1923(6)
C6 C -0.3448(10) 0.6455(8) 0.5220(7)
C7 C -0.5461(10) 0.4643(9) 0.6064(7)
H1 H -0.1743(9) 0.3347(7) -0.0230(6)
H2 H -0.4898(8) 0.3324(7) -0.0291(6)
H3 H -1.4946(9) 0.0879(8) 0.2443(6)
H4 H -0.1818(9) 0.0917(8) 0.2519(6)
H5 H -0.2375(10) 0.7484(8) 0.5331(7)
H6 H -0.4151(10) 0.5644(9) 0.3207(7)
Ag1_2 Ag 0.1685(1) 0.2121(1) 0.1245(1)
N1_2 N -1.1436(7) 0.2114(6) 0.1135(5)
C2_2 C -1.2386(9) 0.2825(7) 0.0328(6)
C5_2 C -1.2432(9) 0.1411(8) 0.1923(6)
N2_2 N -1.5291(7) 0.2103(5) 0.1059(5)
Ag1_3 Ag -1.8315(1) 0.2121(1) 0.1245(1)
N2A N -0.4709(7) 0.7897(5) 0.8941(5)
Ag1A Ag -0.1685(1) 0.7879(1) 0.8755(1)
O1A O -0.1188(9) 1.0426(7) 0.7795(7)
S1A S 0.0247(2) 1.1909(2) 0.7642(2)
C1A C -0.1472(17) 1.2466(15) 0.6425(10)
F1A F -0.0395(13) 1.3895(11) 0.6212(9)
F2A F -0.2893(13) 1.2645(14) 0.6865(9)
F3A F -0.2499(15) 1.1362(14) 0.5225(7)
O2A O 0.1643(10) 1.1707(8) 0.7016(7)
O3A O 0.1238(9) 1.3280(7) 0.8871(6)
N1A N 0.1436(7) 0.7886(6) 0.8865(5)
C3_2 C -1.4295(8) 0.2814(7) 0.0293(6)
H4_2 H -1.1818(9) 0.0917(8) 0.2519(6)
N3A N -0.6158(8) 0.3871(6) 0.3670(5)
C6A C -0.6552(10) 0.3545(8) 0.4780(7)
C7A C -0.4539(10) 0.5357(9) 0.3936(7)
C4_2 C -0.4308(9) 0.1397(8) 0.1881(6)
H2_2 H -1.4898(8) 0.3324(7) -0.0291(6)
H1_2 H -1.1743(9) 0.3347(7) -0.0230(6)
H5A H -0.7625(10) 0.2516(8) 0.4669(7)
H6A H -0.5849(10) 0.4356(9) 0.6793(7)
H3_2 H -0.4946(9) 0.0879(8) 0.2443(6)
loop_
_geom_bond_atom_site_label_1
_geom_bond_atom_site_label_2
_geom_bond_site_symmetry_1
_geom_bond_site_symmetry_2
Ag1 O1 1_555 1_555
S1 C1 1_555 1_555
F1 C1 1_555 1_555
F2 C1 1_555 1_555
F3 C1 1_555 1_555
O1 S1 1_555 1_555
O2 S1 1_555 1_555
O3 S1 1_555 1_555
N1 C2 1_555 1_555
N2 Ag1 1_555 1_555
N3 C6 1_555 1_555
C2 C3 1_555 1_555
C3 N2 1_555 1_555
C4 H3 1_555 1_555
C5 N1 1_555 1_555
C6 H5 1_555 1_555
C7 N3 1_555 1_555
H1 C2 1_555 1_555
H2 C3 1_555 1_555
H4 C5 1_555 1_555
H6 C7A 1_555 1_555
Ag1_2 N1 1_555 1_555
N1_2 Ag1 1_555 1_555
C2_2 N1_2 1_555 1_555
C5_2 C4 1_555 1_555
N2_2 C4 1_555 1_555
Ag1_3 N2_2 1_555 1_555
N2A Ag1A 1_555 1_555
Ag1A N3 1_555 1_555
O1A Ag1A 1_555 1_555
S1A O1A 1_555 1_555
C1A S1A 1_555 1_555
F1A C1A 1_555 1_555
F2A C1A 1_555 1_555
F3A C1A 1_555 1_555
O2A S1A 1_555 1_555
O3A S1A 1_555 1_555
N1A Ag1A 1_555 1_555
C3_2 C2_2 1_555 1_555
H4_2 C5_2 1_555 1_555
N3A Ag1 1_555 1_555
C6A C7 1_555 1_555
C7A C6 1_555 1_555
C4_2 N2 1_555 1_555
H2_2 C3_2 1_555 1_555
H1_2 C2_2 1_555 1_555
H5A C6A 1_555 1_555
H6A C7 1_555 1_555
H3_2 C4_2 1_555 1_555
C5 C4_2 1_555 1_555
N1_2 C5_2 1_555 1_555
N2_2 C3_2 1_555 1_555
N3A C6A 1_555 1_555
N3A C7A 1_555 1_555

#END
