
#######################################################################
#
#                 Cambridge Crystallographic Data Centre
#                                CCDC 
#
#######################################################################
#
# If this CIF has been generated from an entry in the Cambridge 
# Structural Database, then it will include bibliographic, chemical, 
# crystal, experimental, refinement or atomic coordinate data resulting 
# from the CCDC's data processing and validation procedures.
#
#######################################################################

data_TOZHEX
_symmetry_cell_setting           triclinic
_symmetry_space_group_name_H-M   'P -1'
_symmetry_Int_Tables_number      2
_space_group_name_Hall           '-P 1'
loop_
_symmetry_equiv_pos_site_id
_symmetry_equiv_pos_as_xyz
1 x,y,z
2 -x,-y,-z
_cell_length_a                   10.1586(14)
_cell_length_b                   10.2303(14)
_cell_length_c                   11.7569(17)
_cell_angle_alpha                76.140(2)
_cell_angle_beta                 72.431(2)
_cell_angle_gamma                65.368(2)
_cell_volume                     1049.69
loop_
_atom_site_label
_atom_site_type_symbol
_atom_site_fract_x
_atom_site_fract_y
_atom_site_fract_z
C1 C 0.0119(9) 0.2721(9) 0.3652(7)
C2 C -0.0932(9) 0.2369(9) 0.4754(7)
C3 C -0.1595(10) 0.1403(9) 0.4791(8)
H1 H -0.1361 0.0938 0.4127
C4 C -0.2598(11) 0.1142(11) 0.5820(9)
H2 H -0.3017 0.0478 0.5849
C5 C -0.2994(10) 0.1843(10) 0.6810(8)
H3 H -0.3699 0.1681 0.7486
C6 C -0.2323(8) 0.2798(8) 0.6783(7)
C7 C -0.1300(9) 0.3047(8) 0.5750(7)
H4 H -0.0854 0.3685 0.5731
C8 C -0.2721(9) 0.3617(9) 0.7824(8)
C9 C 0.4468(9) 0.1372(9) 0.2065(7)
C10 C 0.5788(8) 0.0075(8) 0.2362(7)
C11 C 0.6279(9) -0.0029(9) 0.3375(8)
H5 H 0.5790 0.0705 0.3864
C12 C 0.7479(10) -0.1208(9) 0.3658(8)
H6 H 0.7786 -0.1283 0.4348
C13 C 0.8233(9) -0.2286(9) 0.2918(7)
H7 H 0.9059 -0.3075 0.3104
C14 C 0.7763(8) -0.2196(7) 0.1901(6)
C15 C 0.6525(8) -0.1013(8) 0.1636(6)
H8 H 0.6190 -0.0955 0.0964
C16 C 0.8608(8) -0.3359(8) 0.1085(7)
Gd1 Gd 0.18744(4) 0.37353(4) 0.15995(3)
O1 O 0.4120(9) 0.2547(8) 0.2437(9)
O2 O 0.3748(7) 0.1293(6) 0.1423(6)
O3 O 0.0250(7) 0.2366(7) 0.2665(5)
O4 O 0.0880(10) 0.3384(10) 0.3720(6)
O5 O 0.8274(7) -0.3137(6) 0.0115(5)
O6 O 0.3481(7) 0.4752(8) -0.0021(6)
O7 O 0.9610(7) -0.4475(6) 0.1430(6)
O8 O -0.1988(7) 0.4363(6) 0.7744(5)
O9 O -0.3742(7) 0.3491(7) 0.8698(6)
H9 H -0.3858 0.3982 0.9204
Gd1_2 Gd 1.18744(4) -0.62647(4) 0.15995(3)
Gd1A Gd -0.18744(4) 0.62647(4) 0.84005(3)
Gd1A_2 Gd 0.81256(4) -0.37353(4) -0.15995(3)
O5A O 0.1726(7) 0.3137(6) -0.0115(5)
O7_2 O -0.0390(7) 0.5525(6) 0.1430(6)
O8A O 0.1988(7) 0.5637(6) 0.2256(5)
O10 O 0.078(2) 0.017(2) 0.0819(17)
O11 O 0.4862(15) 0.3955(9) 0.3857(15)
O12 O 0.4217(18) 0.4644(11) 0.545(2)
O13 O 0.1051(19) 0.8944(14) 0.954(2)
loop_
_geom_bond_atom_site_label_1
_geom_bond_atom_site_label_2
_geom_bond_site_symmetry_1
_geom_bond_site_symmetry_2
C1 C2 1_555 1_555
C2 C3 1_555 1_555
C3 H1 1_555 1_555
C4 C3 1_555 1_555
H2 C4 1_555 1_555
C5 C4 1_555 1_555
H3 C5 1_555 1_555
C6 C5 1_555 1_555
C7 C2 1_555 1_555
H4 C7 1_555 1_555
C8 C6 1_555 1_555
C9 C10 1_555 1_555
C10 C11 1_555 1_555
C11 H5 1_555 1_555
C12 C11 1_555 1_555
H6 C12 1_555 1_555
C13 C12 1_555 1_555
H7 C13 1_555 1_555
C14 C13 1_555 1_555
C15 C10 1_555 1_555
H8 C15 1_555 1_555
C16 C14 1_555 1_555
Gd1 O1 1_555 1_555
O1 C9 1_555 1_555
O2 C9 1_555 1_555
O3 C1 1_555 1_555
O4 C1 1_555 1_555
O5 C16 1_555 1_555
O6 Gd1 1_555 1_555
O7 C16 1_555 1_555
O8 C8 1_555 1_555
O9 C8 1_555 1_555
H9 O9 1_555 1_555
Gd1_2 O7 1_555 1_555
Gd1A O8 1_555 1_555
Gd1A_2 O5 1_555 1_555
O5A Gd1 1_555 1_555
O7_2 Gd1 1_555 1_555
O8A Gd1 1_555 1_555
C6 C7 1_555 1_555
C14 C15 1_555 1_555
Gd1 O2 1_555 1_555
Gd1 O3 1_555 1_555
Gd1 O4 1_555 1_555

#END
