
#######################################################################
#
#                 Cambridge Crystallographic Data Centre
#                                CCDC 
#
#######################################################################
#
# If this CIF has been generated from an entry in the Cambridge 
# Structural Database, then it will include bibliographic, chemical, 
# crystal, experimental, refinement or atomic coordinate data resulting 
# from the CCDC's data processing and validation procedures.
#
#######################################################################

data_TOZHAT
_symmetry_cell_setting           monoclinic
_symmetry_space_group_name_H-M   'P 21/c'
_symmetry_Int_Tables_number      14
_space_group_name_Hall           '-P 2ybc'
loop_
_symmetry_equiv_pos_site_id
_symmetry_equiv_pos_as_xyz
1 x,y,z
2 -x,1/2+y,1/2-z
3 -x,-y,-z
4 x,1/2-y,1/2+z
_cell_length_a                   11.129(3)
_cell_length_b                   9.656(2)
_cell_length_c                   10.186(3)
_cell_angle_alpha                90
_cell_angle_beta                 114.282(4)
_cell_angle_gamma                90
_cell_volume                     997.767
loop_
_atom_site_label
_atom_site_type_symbol
_atom_site_fract_x
_atom_site_fract_y
_atom_site_fract_z
Sm1 Sm 0.68993(6) 0.95575(7) 0.83134(6)
O1 O 0.6649(15) 0.7119(14) 0.8814(15)
O2 O 0.7960(10) 0.8137(12) 0.7037(12)
O3 O 0.7091(11) 1.1904(12) 0.9258(14)
H1 H 0.6372 1.2289 0.8895
O4 O 0.5105(9) 0.8588(10) 0.6108(9)
O5 O 0.3740(9) 0.8980(10) 0.3810(10)
O6 O 0.8918(8) 1.0724(10) 0.8385(10)
O7 O 1.1076(9) 1.1054(10) 0.9634(10)
O8 O 0.3416(10) 1.0653(11) 0.9348(10)
O9 O 0.4718(10) 1.0261(10) 0.8203(10)
C1 C 0.4688(13) 0.9292(13) 0.4991(14)
C2 C 0.4450(13) 1.0251(14) 0.9290(14)
C3 C 1.0002(13) 1.0520(13) 0.9434(14)
H2 H 0.708(14) 0.700(15) 0.939(16)
H3 H 0.626(18) 0.664(19) 0.81(2)
H4 H 0.75(2) 1.25(2) 0.89(2)
O4B O 0.4895(9) 1.1412(10) 0.3892(9)
O5B O 0.6260(9) 1.1020(10) 0.6190(10)
C1B C 0.5312(13) 1.0708(13) 0.5009(14)
O6B O 1.1082(8) 0.9276(10) 1.1615(10)
C3B C 0.9998(13) 0.9480(13) 1.0566(14)
O7B O 0.8924(9) 0.8946(10) 1.0366(10)
O9B O 0.5282(10) 0.9739(10) 1.1797(10)
C2B C 0.5550(13) 0.9749(14) 1.0710(14)
O8B O 0.6584(10) 0.9347(11) 1.0652(10)
Sm1B Sm 0.31007(6) 1.04425(7) 0.16866(6)
O1B O 0.3351(15) 1.2881(14) 0.1186(15)
O2B O 0.2040(10) 1.1863(12) 0.2963(12)
O3B O 0.2909(11) 0.8096(12) 0.0742(14)
H1B H 0.3628 0.7711 0.1105
H2B H 0.292(14) 1.300(15) 0.061(16)
H3B H 0.374(18) 1.336(19) 0.19(2)
H4B H 0.25(2) 0.75(2) 0.11(2)
Sm1B_2 Sm 0.31007(6) 1.04425(7) 1.16866(6)
Sm1B_3 Sm 1.31007(6) 1.04425(7) 1.16866(6)
O6B_2 O 0.1082(8) 0.9276(10) 0.1615(10)
O7_2 O 0.1076(9) 1.1054(10) -0.0366(10)
O8_2 O 0.3416(10) 1.0653(11) -0.0652(10)
O9B_2 O 0.5282(10) 0.9739(10) 0.1797(10)
loop_
_geom_bond_atom_site_label_1
_geom_bond_atom_site_label_2
_geom_bond_site_symmetry_1
_geom_bond_site_symmetry_2
Sm1 O1 1_555 1_555
O1 H2 1_555 1_555
O2 Sm1 1_555 1_555
O3 Sm1 1_555 1_555
H1 O3 1_555 1_555
O4 Sm1 1_555 1_555
O5 C1 1_555 1_555
O6 Sm1 1_555 1_555
O7 C3 1_555 1_555
O8 C2 1_555 1_555
O9 Sm1 1_555 1_555
C1 O4 1_555 1_555
C2 O9 1_555 1_555
C3 O6 1_555 1_555
H3 O1 1_555 1_555
H4 O3 1_555 1_555
O4B C1B 1_555 1_555
O5B Sm1 1_555 1_555
C1B C1 1_555 1_555
O6B C3B 1_555 1_555
C3B C3 1_555 1_555
O7B Sm1 1_555 1_555
O9B C2B 1_555 1_555
C2B C2 1_555 1_555
O8B Sm1 1_555 1_555
Sm1B O5 1_555 1_555
O1B Sm1B 1_555 1_555
O2B Sm1B 1_555 1_555
O3B Sm1B 1_555 1_555
H1B O3B 1_555 1_555
H2B O1B 1_555 1_555
H3B O1B 1_555 1_555
H4B O3B 1_555 1_555
Sm1B_2 O8 1_555 1_555
Sm1B_3 O7 1_555 1_555
O6B_2 Sm1B 1_555 1_555
O7_2 Sm1B 1_555 1_555
O8_2 Sm1B 1_555 1_555
O9B_2 Sm1B 1_555 1_555
O4B Sm1B 1_555 1_555
O5B C1B 1_555 1_555
O6B Sm1B_3 1_555 1_555
C3B O7B 1_555 1_555
O9B Sm1B_2 1_555 1_555
C2B O8B 1_555 1_555

#END
