
#######################################################################
#
#                 Cambridge Crystallographic Data Centre
#                                CCDC 
#
#######################################################################
#
# If this CIF has been generated from an entry in the Cambridge 
# Structural Database, then it will include bibliographic, chemical, 
# crystal, experimental, refinement or atomic coordinate data resulting 
# from the CCDC's data processing and validation procedures.
#
#######################################################################

data_TOZJUN
_symmetry_cell_setting           monoclinic
_symmetry_space_group_name_H-M   'P 21/n'
_symmetry_Int_Tables_number      14
_space_group_name_Hall           '-P 2yn'
loop_
_symmetry_equiv_pos_site_id
_symmetry_equiv_pos_as_xyz
1 x,y,z
2 1/2-x,1/2+y,1/2-z
3 -x,-y,-z
4 1/2+x,1/2-y,1/2+z
_cell_length_a                   13.110(1)
_cell_length_b                   8.299(1)
_cell_length_c                   22.611(2)
_cell_angle_alpha                90
_cell_angle_beta                 101.12(2)
_cell_angle_gamma                90
_cell_volume                     2413.89
loop_
_atom_site_label
_atom_site_type_symbol
_atom_site_fract_x
_atom_site_fract_y
_atom_site_fract_z
Cu1 Cu 0.73666(3) 0.20516(6) 0.22221(2)
P1 P 0.64258(7) 0.0151(1) 0.16467(4)
C1 C 0.6948(3) -0.1136(5) 0.1188(2)
C2 C 0.6331(3) -0.1857(5) 0.0687(2)
C3 C 0.5251(3) -0.1747(5) 0.0526(2)
C4 C 0.4657(3) -0.0822(5) 0.0862(2)
C5 C 0.5120(3) 0.0086(5) 0.1352(2)
C6 C 0.3485(3) -0.0839(6) 0.0684(2)
C7 C 0.4707(3) -0.2680(6) -0.0013(2)
C8 C 0.9832(3) -0.2223(5) 0.2150(2)
C9 C 1.0350(3) -0.1960(5) 0.1683(2)
C10 C 0.9817(3) -0.1620(5) 0.1095(2)
C11 C 0.8740(3) -0.1393(5) 0.0951(2)
C12 C 0.8072(3) -0.1494(4) 0.1369(2)
P2 P 0.64843(7) 0.2944(1) 0.28949(4)
C13 C 1.1515(3) -0.2058(7) 0.1809(2)
C14 C 1.0433(3) -0.1488(6) 0.0594(2)
N1 N 0.8090(2) 0.3166(4) 0.1592(1)
N2 N 0.8889(2) 0.1654(4) 0.2598(2)
C15 C 0.7628(3) 0.3826(5) 0.1063(2)
C16 C 0.8179(4) 0.4364(6) 0.0634(2)
C17 C 0.9239(4) 0.4201(7) 0.0756(2)
C18 C 0.9723(3) 0.3513(6) 0.1291(2)
C19 C 0.9127(3) 0.2982(5) 0.1701(2)
C20 C 0.9575(3) 0.2179(5) 0.2272(2)
C21 C 1.0642(3) 0.1923(6) 0.2469(2)
C22 C 1.0978(3) 0.1109(6) 0.2997(3)
C23 C 1.0275(3) 0.0608(6) 0.3338(2)
C24 C 0.9236(3) 0.0912(5) 0.3124(2)
P2A P 0.85157(7) -0.2056(1) 0.21051(4)
Cu1A Cu 0.76334(3) -0.29484(6) 0.27779(2)
B1 B 0.2363(4) 0.3335(7) 0.0899(2)
F1 F 0.1653(3) 0.2366(5) 0.0553(2)
F2 F 0.3237(2) 0.3398(5) 0.0657(2)
F3 F 0.1969(3) 0.4848(4) 0.0910(2)
F4 F 0.2567(4) 0.2783(6) 0.1470(2)
loop_
_geom_bond_atom_site_label_1
_geom_bond_atom_site_label_2
_geom_bond_site_symmetry_1
_geom_bond_site_symmetry_2
Cu1 P1 1_555 1_555
P1 C1 1_555 1_555
C1 C2 1_555 1_555
C2 C3 1_555 1_555
C3 C4 1_555 1_555
C4 C5 1_555 1_555
C5 P1 1_555 1_555
C6 C4 1_555 1_555
C7 C3 1_555 1_555
C8 C9 1_555 1_555
C9 C10 1_555 1_555
C10 C11 1_555 1_555
C11 C12 1_555 1_555
C12 C1 1_555 1_555
P2 Cu1 1_555 1_555
C13 C9 1_555 1_555
C14 C10 1_555 1_555
N1 Cu1 1_555 1_555
N2 Cu1 1_555 1_555
C15 N1 1_555 1_555
C16 C15 1_555 1_555
C17 C16 1_555 1_555
C18 C17 1_555 1_555
C19 N1 1_555 1_555
C20 N2 1_555 1_555
C21 C20 1_555 1_555
C22 C21 1_555 1_555
C23 C22 1_555 1_555
C24 N2 1_555 1_555
B1 F1 1_555 1_555
F2 B1 1_555 1_555
F3 B1 1_555 1_555
F4 B1 1_555 1_555
P2A C8 1_555 1_555
Cu1A P2A 1_555 1_555
C12 P2A 1_555 1_555
C18 C19 1_555 1_555
C19 C20 1_555 1_555
C23 C24 1_555 1_555

#END
