
#######################################################################
#
#                 Cambridge Crystallographic Data Centre
#                                CCDC 
#
#######################################################################
#
# If this CIF has been generated from an entry in the Cambridge 
# Structural Database, then it will include bibliographic, chemical, 
# crystal, experimental, refinement or atomic coordinate data resulting 
# from the CCDC's data processing and validation procedures.
#
#######################################################################

data_TOZPIH
_symmetry_cell_setting           orthorhombic
_symmetry_space_group_name_H-M   'P 21 21 21'
_symmetry_Int_Tables_number      19
_space_group_name_Hall           'P 2ac 2ab'
loop_
_symmetry_equiv_pos_site_id
_symmetry_equiv_pos_as_xyz
1 x,y,z
2 1/2-x,-y,1/2+z
3 1/2+x,1/2-y,-z
4 -x,1/2+y,1/2-z
_cell_length_a                   10.250(1)
_cell_length_b                   25.937(4)
_cell_length_c                   8.880(3)
_cell_angle_alpha                90
_cell_angle_beta                 90
_cell_angle_gamma                90
_cell_volume                     2360.79
loop_
_atom_site_label
_atom_site_type_symbol
_atom_site_fract_x
_atom_site_fract_y
_atom_site_fract_z
K1 K 0.9687(3) 0.10800(9) 0.3675(3)
S1 S 0.5943(4) 0.1839(1) 0.1243(5)
O1 O 1.1486(9) 0.1373(4) 0.150(1)
O2 O 1.0156(9) 0.2111(3) 0.3205(8)
O3 O 1.071(1) 0.1151(4) 0.650(1)
O4 O 1.222(1) 0.0770(5) 0.407(1)
O5 O 0.9561(8) 0.0321(3) 0.1586(8)
N1 N 0.847(1) 0.1793(3) 0.572(1)
N2 N 0.802(1) 0.1143(4) 0.089(1)
C1 C 1.170(2) 0.1907(5) 0.133(2)
C2 C 1.047(1) 0.2185(5) 0.166(1)
C3 C 0.902(1) 0.2387(4) 0.361(2)
C4 C 0.881(1) 0.2327(4) 0.530(1)
C5 C 0.894(2) 0.1676(5) 0.726(1)
C6 C 1.038(2) 0.1575(6) 0.737(2)
C7 C 1.205(2) 0.103(1) 0.662(3)
C8 C 1.257(2) 0.075(1) 0.558(3)
C9 C 1.312(2) 0.1014(8) 0.308(3)
C10 C 1.259(2) 0.1061(7) 0.153(2)
C11 C 0.703(1) 0.1734(4) 0.565(1)
C12 C 0.656(1) 0.1194(4) 0.587(1)
C13 C 0.659(1) 0.0845(5) 0.468(1)
C14 C 0.619(1) 0.0339(4) 0.486(1)
C15 C 0.580(1) 0.0182(4) 0.630(1)
C16 C 0.568(1) 0.0527(4) 0.750(1)
C17 C 0.606(1) 0.1032(4) 0.726(1)
C18 C 0.522(1) 0.0343(4) 0.898(1)
C19 C 0.618(1) -0.0035(4) 0.356(1)
C20 C 0.716(1) 0.1436(5) 0.102(1)
H1 H 0.9928 0.0460 0.0656
H2 H 1.1804 0.0423 0.5924
H3 H 1.3276 0.0559 0.5838
H4 H 1.2614 0.1396 0.6174
H5 H 1.2530 0.1033 0.7558
H6 H 1.0657 0.1545 0.8438
H7 H 1.0863 0.1884 0.7019
H8 H 0.8643 0.1963 0.7931
H9 H 0.8445 0.1379 0.7630
H10 H 0.8142 0.2559 0.5640
H11 H 0.9610 0.2425 0.5812
H12 H 0.9119 0.2752 0.3372
H13 H 0.8269 0.2267 0.3093
H14 H 0.9782 0.2036 0.1014
H15 H 1.0512 0.2543 0.1397
H16 H 1.2370 0.2038 0.2019
H17 H 1.2019 0.1993 0.0325
H18 H 1.2451 0.0721 0.1187
H19 H 1.3312 0.1204 0.0911
H20 H 1.3396 0.1348 0.3433
H21 H 1.3955 0.0808 0.3050
H22 H 0.6605 0.1953 0.6469
H23 H 0.6673 0.1873 0.4739
H24 H 0.6889 0.0964 0.3704
H25 H 0.6022 0.1275 0.8131
H26 H 0.4480 0.0540 0.9331
H27 H 0.4973 -0.0011 0.8970
H28 H 0.5896 0.0383 0.9739
H29 H 0.5310 -0.0172 0.3359
H30 H 0.6471 0.0120 0.2629
H31 H 0.6731 -0.0336 0.3722
O5A O 0.5439(8) -0.0321(3) 0.6586(8)
K1A K 0.5313(3) -0.10800(9) 0.8675(3)
H1A H 0.5072 -0.0460 0.5656
loop_
_geom_bond_atom_site_label_1
_geom_bond_atom_site_label_2
_geom_bond_site_symmetry_1
_geom_bond_site_symmetry_2
K1 O1 1_555 1_555
S1 C20 1_555 1_555
O1 C1 1_555 1_555
O2 K1 1_555 1_555
O3 K1 1_555 1_555
O4 K1 1_555 1_555
O5 K1 1_555 1_555
N1 K1 1_555 1_555
N2 K1 1_555 1_555
C1 C2 1_555 1_555
C2 O2 1_555 1_555
C3 O2 1_555 1_555
C4 N1 1_555 1_555
C5 N1 1_555 1_555
C6 O3 1_555 1_555
C7 O3 1_555 1_555
C8 O4 1_555 1_555
C9 O4 1_555 1_555
C10 O1 1_555 1_555
C11 N1 1_555 1_555
C12 C11 1_555 1_555
C13 C12 1_555 1_555
C14 C13 1_555 1_555
C15 C14 1_555 1_555
C16 C15 1_555 1_555
C17 C12 1_555 1_555
C18 C16 1_555 1_555
C19 C14 1_555 1_555
C20 N2 1_555 1_555
H1 O5 1_555 1_555
H2 C8 1_555 1_555
H3 C8 1_555 1_555
H4 C7 1_555 1_555
H5 C7 1_555 1_555
H6 C6 1_555 1_555
H7 C6 1_555 1_555
H8 C5 1_555 1_555
H9 C5 1_555 1_555
H10 C4 1_555 1_555
H11 C4 1_555 1_555
H12 C3 1_555 1_555
H13 C3 1_555 1_555
H14 C2 1_555 1_555
H15 C2 1_555 1_555
H16 C1 1_555 1_555
H17 C1 1_555 1_555
H18 C10 1_555 1_555
H19 C10 1_555 1_555
H20 C9 1_555 1_555
H21 C9 1_555 1_555
H22 C11 1_555 1_555
H23 C11 1_555 1_555
H24 C13 1_555 1_555
H25 C17 1_555 1_555
H26 C18 1_555 1_555
H27 C18 1_555 1_555
H28 C18 1_555 1_555
H29 C19 1_555 1_555
H30 C19 1_555 1_555
H31 C19 1_555 1_555
O5A C15 1_555 1_555
K1A O5A 1_555 1_555
H1A O5A 1_555 1_555
C3 C4 1_555 1_555
C5 C6 1_555 1_555
C7 C8 1_555 1_555
C9 C10 1_555 1_555
C16 C17 1_555 1_555

#END
