
#######################################################################
#
#                 Cambridge Crystallographic Data Centre
#                                CCDC 
#
#######################################################################
#
# If this CIF has been generated from an entry in the Cambridge 
# Structural Database, then it will include bibliographic, chemical, 
# crystal, experimental, refinement or atomic coordinate data resulting 
# from the CCDC's data processing and validation procedures.
#
#######################################################################

data_TOZPUT
_symmetry_cell_setting           monoclinic
_symmetry_space_group_name_H-M   'P 21/n'
_symmetry_Int_Tables_number      14
_space_group_name_Hall           '-P 2yn'
loop_
_symmetry_equiv_pos_site_id
_symmetry_equiv_pos_as_xyz
1 x,y,z
2 1/2-x,1/2+y,1/2-z
3 -x,-y,-z
4 1/2+x,1/2-y,1/2+z
_cell_length_a                   9.864(4)
_cell_length_b                   14.913(6)
_cell_length_c                   16.546(8)
_cell_angle_alpha                90
_cell_angle_beta                 102.14(4)
_cell_angle_gamma                90
_cell_volume                     2379.52
loop_
_atom_site_label
_atom_site_type_symbol
_atom_site_fract_x
_atom_site_fract_y
_atom_site_fract_z
Cs1 Cs 0.79851(5) 0.30726(3) 0.30606(3)
S1 S 1.2576(3) 0.1567(2) 0.5409(2)
O1 O 0.4857(5) 0.3172(3) 0.2671(3)
O2 O 0.6158(4) 0.1880(3) 0.1800(3)
O3 O 0.7692(5) 0.1214(4) 0.3953(3)
O4 O 0.6161(5) 0.2729(4) 0.4334(3)
O5 O 1.0725(4) 0.4158(3) 0.3290(3)
N1 N 0.8910(5) 0.1198(4) 0.2517(4)
N2 N 1.1038(8) 0.2958(5) 0.4562(4)
C1 C 0.4352(8) 0.2922(6) 0.1862(6)
C2 C 0.4679(7) 0.1982(6) 0.1667(5)
C3 C 0.6577(8) 0.1017(5) 0.1622(5)
C4 C 0.8105(8) 0.1003(5) 0.1688(5)
C5 C 0.8912(8) 0.0459(5) 0.3090(6)
C6 C 0.8936(8) 0.0738(5) 0.3956(5)
C7 C 0.751(1) 0.1422(7) 0.4742(6)
C8 C 0.618(1) 0.1877(8) 0.4710(6)
C9 C 0.4821(8) 0.3108(7) 0.4089(6)
C10 C 0.4119(8) 0.2825(6) 0.3247(6)
C11 C 1.0304(7) 0.1556(4) 0.2532(4)
C12 C 1.1352(6) 0.0927(4) 0.2293(4)
C13 C 1.1386(6) 0.0755(4) 0.1478(4)
C14 C 1.2351(6) 0.0170(4) 0.1248(4)
C15 C 1.3289(6) -0.0262(4) 0.1883(4)
C16 C 1.3311(6) -0.0086(4) 0.2709(5)
C17 C 1.2329(7) 0.0501(5) 0.2901(4)
C18 C 1.4396(8) -0.0509(5) 0.3370(5)
C19 C 1.2375(8) 0.0032(5) 0.0352(5)
C20 C 1.1678(8) 0.2372(6) 0.4914(5)
H1 H 1.1178 0.3966 0.3841
H2 H 0.3347 0.2994 0.1742
H3 H 0.4704 0.3316 0.1501
H4 H 0.4259 0.1831 0.1091
H5 H 0.4302 0.1560 0.2001
H6 H 0.6328 0.0608 0.1985
H7 H 0.6132 0.0877 0.1062
H8 H 0.8351 0.1446 0.1318
H9 H 0.8369 0.0433 0.1530
H10 H 0.8109 0.0088 0.2904
H11 H 0.9717 0.0074 0.3083
H12 H 0.9736 0.1124 0.4167
H13 H 0.9029 0.0236 0.4340
H14 H 0.7568 0.0878 0.5062
H15 H 0.8271 0.1800 0.5006
H16 H 0.6037 0.1940 0.5261
H17 H 0.5464 0.1516 0.4401
H18 H 0.4259 0.2950 0.4470
H19 H 0.4892 0.3758 0.4089
H20 H 0.3179 0.3043 0.3116
H21 H 0.4090 0.2186 0.3219
H22 H 1.0205 0.2059 0.2164
H23 H 1.0677 0.1769 0.3081
H24 H 1.0750 0.1050 0.1029
H25 H 1.2331 0.0610 0.3479
H26 H 1.3963 -0.0855 0.3740
H27 H 1.4983 -0.0890 0.3144
H28 H 1.4941 -0.0051 0.3692
H29 H 1.1496 -0.0196 0.0072
H30 H 1.2552 0.0582 0.0116
H31 H 1.3075 -0.0392 0.0305
O5A O 1.4275(4) -0.0842(3) 0.1710(3)
Cs1A Cs 1.70149(5) -0.19274(3) 0.19394(3)
H1A H 1.3822 -0.1034 0.1159
loop_
_geom_bond_atom_site_label_1
_geom_bond_atom_site_label_2
_geom_bond_site_symmetry_1
_geom_bond_site_symmetry_2
Cs1 O1 1_555 1_555
S1 C20 1_555 1_555
O1 C1 1_555 1_555
O2 Cs1 1_555 1_555
O3 Cs1 1_555 1_555
O4 Cs1 1_555 1_555
O5 Cs1 1_555 1_555
N1 Cs1 1_555 1_555
N2 Cs1 1_555 1_555
C1 C2 1_555 1_555
C2 O2 1_555 1_555
C3 O2 1_555 1_555
C4 N1 1_555 1_555
C5 N1 1_555 1_555
C6 O3 1_555 1_555
C7 O3 1_555 1_555
C8 O4 1_555 1_555
C9 O4 1_555 1_555
C10 O1 1_555 1_555
C11 N1 1_555 1_555
C12 C11 1_555 1_555
C13 C12 1_555 1_555
C14 C13 1_555 1_555
C15 C14 1_555 1_555
C16 C15 1_555 1_555
C17 C12 1_555 1_555
C18 C16 1_555 1_555
C19 C14 1_555 1_555
C20 N2 1_555 1_555
H1 O5 1_555 1_555
H2 C1 1_555 1_555
H3 C1 1_555 1_555
H4 C2 1_555 1_555
H5 C2 1_555 1_555
H6 C3 1_555 1_555
H7 C3 1_555 1_555
H8 C4 1_555 1_555
H9 C4 1_555 1_555
H10 C5 1_555 1_555
H11 C5 1_555 1_555
H12 C6 1_555 1_555
H13 C6 1_555 1_555
H14 C7 1_555 1_555
H15 C7 1_555 1_555
H16 C8 1_555 1_555
H17 C8 1_555 1_555
H18 C9 1_555 1_555
H19 C9 1_555 1_555
H20 C10 1_555 1_555
H21 C10 1_555 1_555
H22 C11 1_555 1_555
H23 C11 1_555 1_555
H24 C13 1_555 1_555
H25 C17 1_555 1_555
H26 C18 1_555 1_555
H27 C18 1_555 1_555
H28 C18 1_555 1_555
H29 C19 1_555 1_555
H30 C19 1_555 1_555
H31 C19 1_555 1_555
O5A C15 1_555 1_555
Cs1A O5A 1_555 1_555
H1A O5A 1_555 1_555
C3 C4 1_555 1_555
C5 C6 1_555 1_555
C7 C8 1_555 1_555
C9 C10 1_555 1_555
C16 C17 1_555 1_555

#END
