
#######################################################################
#
#                 Cambridge Crystallographic Data Centre
#                                CCDC 
#
#######################################################################
#
# If this CIF has been generated from an entry in the Cambridge 
# Structural Database, then it will include bibliographic, chemical, 
# crystal, experimental, refinement or atomic coordinate data resulting 
# from the CCDC's data processing and validation procedures.
#
#######################################################################

data_TOZPON
_symmetry_cell_setting           monoclinic
_symmetry_space_group_name_H-M   'P 21/n'
_symmetry_Int_Tables_number      14
_space_group_name_Hall           '-P 2yn'
loop_
_symmetry_equiv_pos_site_id
_symmetry_equiv_pos_as_xyz
1 x,y,z
2 1/2-x,1/2+y,1/2-z
3 -x,-y,-z
4 1/2+x,1/2-y,1/2+z
_cell_length_a                   9.593(1)
_cell_length_b                   14.950(2)
_cell_length_c                   16.688(9)
_cell_angle_alpha                90
_cell_angle_beta                 101.701(9)
_cell_angle_gamma                90
_cell_volume                     2343.58
loop_
_atom_site_label
_atom_site_type_symbol
_atom_site_fract_x
_atom_site_fract_y
_atom_site_fract_z
Rb1 Rb 0.7990(1) 0.2934(1) 0.3099(1)
S1 S 1.2550(4) 0.1589(3) 0.5302(3)
O1 O 0.495(1) 0.3242(5) 0.2731(7)
O2 O 0.6184(9) 0.1967(6) 0.1793(5)
O3 O 0.7721(9) 0.1187(6) 0.3918(6)
O4 O 0.629(1) 0.2742(7) 0.4358(5)
O5 O 1.0484(8) 0.4137(5) 0.3246(5)
N1 N 0.894(1) 0.1208(7) 0.2486(7)
N2 N 1.082(1) 0.2928(7) 0.4494(7)
C1 C 0.437(1) 0.300(1) 0.190(1)
C2 C 0.469(1) 0.208(1) 0.1675(8)
C3 C 0.657(1) 0.111(1) 0.1570(8)
C4 C 0.817(1) 0.1076(9) 0.165(1)
C5 C 0.890(1) 0.0436(9) 0.300(1)
C6 C 0.894(1) 0.0667(9) 0.388(1)
C7 C 0.762(2) 0.138(1) 0.474(1)
C8 C 0.627(2) 0.189(1) 0.472(1)
C9 C 0.495(2) 0.3156(8) 0.414(1)
C10 C 0.420(1) 0.289(1) 0.331(1)
C11 C 1.038(1) 0.1547(9) 0.2530(8)
C12 C 1.150(1) 0.0913(8) 0.231(1)
C13 C 1.249(1) 0.0478(8) 0.2903(7)
C14 C 1.348(1) -0.0109(9) 0.272(1)
C15 C 1.348(1) -0.0264(8) 0.190(1)
C16 C 1.253(1) 0.0152(9) 0.1281(8)
C17 C 1.153(1) 0.0735(8) 0.151(1)
C18 C 1.458(1) -0.0524(9) 0.3378(8)
C19 C 1.262(1) 0.0002(8) 0.0400(9)
C20 C 1.156(2) 0.236(1) 0.484(1)
H1 H 1.0875 0.4049 0.3822
H2 H 0.3375 0.3074 0.1834
H3 H 0.4751 0.3415 0.1581
H4 H 0.4275 0.1986 0.1108
H5 H 0.4311 0.1651 0.1991
H6 H 0.6278 0.0664 0.1887
H7 H 0.6142 0.1002 0.0996
H8 H 0.8435 0.1555 0.1330
H9 H 0.8421 0.0528 0.1456
H10 H 0.8047 0.0106 0.2797
H11 H 0.9696 0.0058 0.2973
H12 H 0.9775 0.1010 0.4071
H13 H 0.8957 0.0140 0.4184
H14 H 0.7579 0.0863 0.5040
H15 H 0.8380 0.1755 0.4985
H16 H 0.6126 0.1962 0.5262
H17 H 0.5496 0.1597 0.4406
H18 H 0.4398 0.2981 0.4534
H19 H 0.5078 0.3787 0.4170
H20 H 0.3264 0.3132 0.3218
H21 H 0.4163 0.2263 0.3277
H22 H 1.0317 0.2056 0.2188
H23 H 1.0739 0.1724 0.3085
H24 H 1.2464 0.0591 0.3464
H25 H 1.0851 0.0999 0.1063
H26 H 1.4126 -0.0874 0.3728
H27 H 1.5176 -0.0904 0.3133
H28 H 1.5144 -0.0076 0.3690
H29 H 1.1723 -0.0213 0.0100
H30 H 1.2818 0.0560 0.0160
H31 H 1.3340 -0.0413 0.0356
O5A O 1.4516(8) -0.0863(5) 0.1754(5)
Rb1A Rb 1.7010(1) -0.2066(1) 0.1901(1)
H1A H 1.4125 -0.0951 0.1178
loop_
_geom_bond_atom_site_label_1
_geom_bond_atom_site_label_2
_geom_bond_site_symmetry_1
_geom_bond_site_symmetry_2
Rb1 O1 1_555 1_555
S1 C20 1_555 1_555
O1 C1 1_555 1_555
O2 Rb1 1_555 1_555
O3 Rb1 1_555 1_555
O4 Rb1 1_555 1_555
O5 Rb1 1_555 1_555
N1 Rb1 1_555 1_555
N2 Rb1 1_555 1_555
C1 C2 1_555 1_555
C2 O2 1_555 1_555
C3 O2 1_555 1_555
C4 N1 1_555 1_555
C5 N1 1_555 1_555
C6 O3 1_555 1_555
C7 O3 1_555 1_555
C8 O4 1_555 1_555
C9 O4 1_555 1_555
C10 O1 1_555 1_555
C11 N1 1_555 1_555
C12 C11 1_555 1_555
C13 C12 1_555 1_555
C14 C13 1_555 1_555
C15 C14 1_555 1_555
C16 C15 1_555 1_555
C17 C12 1_555 1_555
C18 C14 1_555 1_555
C19 C16 1_555 1_555
C20 N2 1_555 1_555
H1 O5 1_555 1_555
H2 C1 1_555 1_555
H3 C1 1_555 1_555
H4 C2 1_555 1_555
H5 C2 1_555 1_555
H6 C3 1_555 1_555
H7 C3 1_555 1_555
H8 C4 1_555 1_555
H9 C4 1_555 1_555
H10 C5 1_555 1_555
H11 C5 1_555 1_555
H12 C6 1_555 1_555
H13 C6 1_555 1_555
H14 C7 1_555 1_555
H15 C7 1_555 1_555
H16 C8 1_555 1_555
H17 C8 1_555 1_555
H18 C9 1_555 1_555
H19 C9 1_555 1_555
H20 C10 1_555 1_555
H21 C10 1_555 1_555
H22 C11 1_555 1_555
H23 C11 1_555 1_555
H24 C13 1_555 1_555
H25 C17 1_555 1_555
H26 C18 1_555 1_555
H27 C18 1_555 1_555
H28 C18 1_555 1_555
H29 C19 1_555 1_555
H30 C19 1_555 1_555
H31 C19 1_555 1_555
O5A C15 1_555 1_555
Rb1A O5A 1_555 1_555
H1A O5A 1_555 1_555
C3 C4 1_555 1_555
C5 C6 1_555 1_555
C7 C8 1_555 1_555
C9 C10 1_555 1_555
C16 C17 1_555 1_555

#END
