
#######################################################################
#
#                 Cambridge Crystallographic Data Centre
#                                CCDC 
#
#######################################################################
#
# If this CIF has been generated from an entry in the Cambridge 
# Structural Database, then it will include bibliographic, chemical, 
# crystal, experimental, refinement or atomic coordinate data resulting 
# from the CCDC's data processing and validation procedures.
#
#######################################################################

data_TOZWUC
_symmetry_cell_setting           monoclinic
_symmetry_space_group_name_H-M   'P 21/n'
_symmetry_Int_Tables_number      14
_space_group_name_Hall           '-P 2yn'
loop_
_symmetry_equiv_pos_site_id
_symmetry_equiv_pos_as_xyz
1 x,y,z
2 1/2-x,1/2+y,1/2-z
3 -x,-y,-z
4 1/2+x,1/2-y,1/2+z
_cell_length_a                   10.1885(19)
_cell_length_b                   21.697(4)
_cell_length_c                   12.860(2)
_cell_angle_alpha                90
_cell_angle_beta                 96.913(3)
_cell_angle_gamma                90
_cell_volume                     2822.16
loop_
_atom_site_label
_atom_site_type_symbol
_atom_site_fract_x
_atom_site_fract_y
_atom_site_fract_z
Br1 Br 1.22782(2) 0.75089(2) 1.02500(2)
Br2 Br 0.40601(2) 0.68367(2) 0.59744(2)
Cu1 Cu 0.99612(3) 0.71795(2) 1.03949(2)
Cu2 Cu 0.64828(3) 0.66231(2) 0.62345(2)
P1 P 0.91696(6) 0.64579(3) 0.93040(5)
P2 P 0.76761(6) 0.62365(3) 0.76088(5)
O1 O 0.97069(16) 0.58113(7) 0.98492(13)
O2 O 0.77094(17) 0.54979(8) 0.73570(14)
N1 N 0.99630(19) 0.66312(9) 1.17510(15)
N2 N 0.75623(18) 0.62946(9) 0.89103(15)
N3 N 0.92918(18) 0.63744(9) 0.80030(15)
N4 N 0.65617(19) 0.58704(9) 0.51869(16)
C1 C 0.9516(2) 0.68380(12) 1.26244(19)
H1 H 0.9215 0.7252 1.2638
C2 C 0.9471(3) 0.64786(13) 1.3507(2)
H2 H 0.9167 0.6644 1.4120
C3 C 0.9880(3) 0.58721(13) 1.3474(2)
H3 H 0.9878 0.5615 1.4071
C4 C 1.0292(2) 0.56449(12) 1.2567(2)
H4 H 1.0549 0.5226 1.2525
C5 C 1.0328(2) 0.60349(11) 1.17147(18)
C6 C 1.0781(2) 0.58158(11) 1.07054(18)
H5 H 1.1496 0.6089 1.0520
H6 H 1.1148 0.5394 1.0805
C7 C 0.6391(2) 0.63142(13) 0.94930(19)
C8 C 0.5908(3) 0.69783(17) 0.9513(3)
H7 H 0.6615 0.7240 0.9858
H8 H 0.5138 0.7000 0.9901
H9 H 0.5660 0.7123 0.8795
C9 C 0.6782(3) 0.6081(2) 1.0583(3)
H10 H 0.7461 0.6351 1.0943
H11 H 0.7134 0.5662 1.0552
H12 H 0.6007 0.6077 1.0966
C10 C 0.5307(3) 0.59160(18) 0.8924(3)
H13 H 0.4524 0.5930 0.9298
H14 H 0.5619 0.5490 0.8898
H15 H 0.5078 0.6071 0.8210
C11 C 1.0442(2) 0.64921(11) 0.74194(18)
C12 C 1.1676(2) 0.62313(12) 0.80601(19)
H16 H 1.1836 0.6451 0.8729
H17 H 1.2438 0.6284 0.7671
H18 H 1.1545 0.5792 0.8191
C13 C 1.0608(2) 0.71852(12) 0.7256(2)
H19 H 0.9808 0.7350 0.6851
H20 H 1.1369 0.7258 0.6873
H21 H 1.0752 0.7392 0.7938
C14 C 1.0197(2) 0.61675(13) 0.63615(19)
H22 H 1.0149 0.5721 0.6471
H23 H 1.0922 0.6260 0.5950
H24 H 0.9361 0.6313 0.5984
C15 C 0.6606(3) 0.52207(12) 0.6716(2)
H25 H 0.5776 0.5411 0.6889
H26 H 0.6573 0.4776 0.6885
C16 C 0.6681(2) 0.52922(11) 0.5568(2)
C17 C 0.6811(2) 0.47853(12) 0.4927(2)
H27 H 0.6915 0.4383 0.5218
C18 C 0.6785(3) 0.48745(13) 0.3865(2)
H28 H 0.6872 0.4534 0.3413
C19 C 0.6631(3) 0.54653(13) 0.3463(2)
H29 H 0.6599 0.5538 0.2732
C20 C 0.6525(2) 0.59488(12) 0.4155(2)
H30 H 0.6422 0.6355 0.3881
Br1C Br 0.72782(2) 0.74911(2) 0.52500(2)
Br2C Br 0.90601(2) 0.81633(2) 1.09744(2)
Cu1C Cu 0.49612(3) 0.78205(2) 0.53949(2)
Cu2C Cu 1.14828(3) 0.83769(2) 1.12345(2)
C21 C 0.8527(3) 0.85237(14) 0.7432(2)
C22 C 0.7987(3) 0.80647(14) 0.8078(2)
H31 H 0.8688 0.7911 0.8602
H32 H 0.7624 0.7722 0.7637
H33 H 0.7283 0.8250 0.8431
N5 N 0.8939(3) 0.88927(13) 0.6930(2)
loop_
_geom_bond_atom_site_label_1
_geom_bond_atom_site_label_2
_geom_bond_site_symmetry_1
_geom_bond_site_symmetry_2
Br1 Cu1 1_555 1_555
Br2 Cu2 1_555 1_555
Cu1 P1 1_555 1_555
Cu2 P2 1_555 1_555
P1 O1 1_555 1_555
P2 O2 1_555 1_555
O1 C6 1_555 1_555
O2 C15 1_555 1_555
N1 Cu1 1_555 1_555
N2 P1 1_555 1_555
N3 P1 1_555 1_555
N4 Cu2 1_555 1_555
C1 N1 1_555 1_555
H1 C1 1_555 1_555
C2 C1 1_555 1_555
H2 C2 1_555 1_555
C3 C2 1_555 1_555
H3 C3 1_555 1_555
C4 C3 1_555 1_555
H4 C4 1_555 1_555
C5 N1 1_555 1_555
C6 C5 1_555 1_555
H5 C6 1_555 1_555
H6 C6 1_555 1_555
C7 N2 1_555 1_555
C8 C7 1_555 1_555
H7 C8 1_555 1_555
H8 C8 1_555 1_555
H9 C8 1_555 1_555
C9 C7 1_555 1_555
H10 C9 1_555 1_555
H11 C9 1_555 1_555
H12 C9 1_555 1_555
C10 C7 1_555 1_555
H13 C10 1_555 1_555
H14 C10 1_555 1_555
H15 C10 1_555 1_555
C11 N3 1_555 1_555
C12 C11 1_555 1_555
H16 C12 1_555 1_555
H17 C12 1_555 1_555
H18 C12 1_555 1_555
C13 C11 1_555 1_555
H19 C13 1_555 1_555
H20 C13 1_555 1_555
H21 C13 1_555 1_555
C14 C11 1_555 1_555
H22 C14 1_555 1_555
H23 C14 1_555 1_555
H24 C14 1_555 1_555
C15 H25 1_555 1_555
H26 C15 1_555 1_555
C16 N4 1_555 1_555
C17 C16 1_555 1_555
H27 C17 1_555 1_555
C18 C17 1_555 1_555
H28 C18 1_555 1_555
C19 C18 1_555 1_555
H29 C19 1_555 1_555
C20 N4 1_555 1_555
H30 C20 1_555 1_555
C21 C22 1_555 1_555
C22 H31 1_555 1_555
H32 C22 1_555 1_555
H33 C22 1_555 1_555
N5 C21 1_555 1_555
Br1C Cu2 1_555 1_555
Br2C Cu1 1_555 1_555
Cu1C Br2 1_555 1_555
Cu2C Br1 1_555 1_555
P2 N2 1_555 1_555
P2 N3 1_555 1_555
C4 C5 1_555 1_555
C15 C16 1_555 1_555
C19 C20 1_555 1_555
Br1C Cu1C 1_555 1_555
Br2C Cu2C 1_555 1_555

#END
