
#######################################################################
#
#                 Cambridge Crystallographic Data Centre
#                                CCDC 
#
#######################################################################
#
# If this CIF has been generated from an entry in the Cambridge 
# Structural Database, then it will include bibliographic, chemical, 
# crystal, experimental, refinement or atomic coordinate data resulting 
# from the CCDC's data processing and validation procedures.
#
#######################################################################

data_TRTAGN
_symmetry_cell_setting           monoclinic
_symmetry_space_group_name_H-M   'P 21/n 1 1'
_symmetry_Int_Tables_number      14
_space_group_name_Hall           '-P 2xn'
loop_
_symmetry_equiv_pos_site_id
_symmetry_equiv_pos_as_xyz
1 x,y,z
2 1/2+x,1/2-y,1/2-z
3 -x,-y,-z
4 1/2-x,1/2+y,1/2+z
_cell_length_a                   23.81(6)
_cell_length_b                   12.83(4)
_cell_length_c                   5.83(3)
_cell_angle_alpha                97.8(3)
_cell_angle_beta                 90
_cell_angle_gamma                90
_cell_volume                     1764.48
loop_
_atom_site_label
_atom_site_type_symbol
_atom_site_fract_x
_atom_site_fract_y
_atom_site_fract_z
Ag1 Ag 0.19950 0.21010 -0.07990
Ag2 Ag 0.42690 0.25450 0.28090
C1 C 0.21100 0.07400 0.35400
C2 C 0.29400 0.25000 0.46400
C3 C 0.31700 0.07900 0.08500
C4 C 0.47600 0.34300 0.80400
C5 C 0.55800 0.25200 1.07400
C6 C 0.50000 0.13100 0.72700
N1 N 0.13900 0.42400 0.06800
N2 N 0.11500 0.00200 -0.12800
O1 O 0.11800 0.35300 -0.02100
O2 O 0.20200 0.40300 0.06600
O3 O 0.12300 0.50900 0.08400
O4 O 0.11400 -0.03700 -0.33500
O5 O 0.10000 0.11300 -0.06700
O6 O 0.11500 -0.05600 0.01000
S1 S 0.24260 0.04160 0.06300
S2 S 0.21590 0.21300 0.47000
S3 S 0.32120 0.22930 0.17900
S4 S 0.43700 0.23410 0.73200
S5 S 0.50620 0.36560 1.10500
S6 S 0.52400 0.13110 1.02600
S2_2 S 0.21590 0.21300 -0.53000
S5_2 S 0.50620 0.36560 0.10500
S6_2 S 0.52400 0.13110 0.02600
Ag1_2 Ag 0.19950 0.21010 0.92010
Ag2_2 Ag 0.42690 0.25450 1.28090
loop_
_geom_bond_atom_site_label_1
_geom_bond_atom_site_label_2
_geom_bond_site_symmetry_1
_geom_bond_site_symmetry_2
Ag1 O1 1_555 1_555
Ag2 S3 1_555 1_555
C1 S1 1_555 1_555
C2 S2 1_555 1_555
C3 S1 1_555 1_555
C4 S4 1_555 1_555
C5 S5 1_555 1_555
C6 S4 1_555 1_555
N1 O1 1_555 1_555
N2 O4 1_555 1_555
O2 Ag1 1_555 1_555
O3 N1 1_555 1_555
O5 Ag1 1_555 1_555
O6 N2 1_555 1_555
S1 Ag1 1_555 1_555
S2 C1 1_555 1_555
S3 C2 1_555 1_555
S4 Ag2 1_555 1_555
S5 C4 1_555 1_555
S6 C5 1_555 1_555
S2_2 Ag1 1_555 1_555
S5_2 Ag2 1_555 1_555
S6_2 Ag2 1_555 1_555
Ag1_2 S2 1_555 1_555
Ag2_2 S5 1_555 1_555
C3 S3 1_555 1_555
C6 S6 1_555 1_555
N1 O2 1_555 1_555
N2 O5 1_555 1_555
S6 Ag2_2 1_555 1_555

#END
