
#######################################################################
#
#                 Cambridge Crystallographic Data Centre
#                                CCDC 
#
#######################################################################
#
# If this CIF has been generated from an entry in the Cambridge 
# Structural Database, then it will include bibliographic, chemical, 
# crystal, experimental, refinement or atomic coordinate data resulting 
# from the CCDC's data processing and validation procedures.
#
#######################################################################

data_TRTAGP
_symmetry_cell_setting           monoclinic
_symmetry_space_group_name_H-M   'P 21/n'
_symmetry_Int_Tables_number      14
_space_group_name_Hall           '-P 2yn'
loop_
_symmetry_equiv_pos_site_id
_symmetry_equiv_pos_as_xyz
1 x,y,z
2 1/2-x,1/2+y,1/2-z
3 -x,-y,-z
4 1/2+x,1/2-y,1/2+z
_cell_length_a                   6.02(2)
_cell_length_b                   10.82(3)
_cell_length_c                   16.24(4)
_cell_angle_alpha                90
_cell_angle_beta                 80.4(3)
_cell_angle_gamma                90
_cell_volume                     1043
loop_
_atom_site_label
_atom_site_type_symbol
_atom_site_fract_x
_atom_site_fract_y
_atom_site_fract_z
Ag1 Ag 0.04840 0.05780 0.22660
C1 C -0.12200 0.36000 0.24500
C2 C 0.16700 0.30000 0.35900
C3 C -0.07100 0.51800 0.38000
O5 O -0.02300 -0.00800 0.37500
S1 S -0.11310 0.52670 0.27160
S2 S 0.14780 0.28530 0.24770
S3 S 0.19680 0.45230 0.39310
Ag1A Ag -0.54840 0.55780 0.27340
S1A S -0.38690 0.02670 0.22840
S3A S 0.30320 -0.04770 0.10690
Ag1A_2 Ag 0.45160 0.55780 0.27340
Cl1 Cl -0.90750 0.28840 0.01350
O1 O -0.88000 0.29600 -0.07300
O2 O -0.86800 0.40600 0.05200
O3 O -1.14200 0.26400 0.04400
O4 O -0.72600 0.22800 0.04000
loop_
_geom_bond_atom_site_label_1
_geom_bond_atom_site_label_2
_geom_bond_site_symmetry_1
_geom_bond_site_symmetry_2
Ag1 O5 1_555 1_555
Cl1 O1 1_555 1_555
C1 S1 1_555 1_555
C2 S2 1_555 1_555
C3 S1 1_555 1_555
O2 Cl1 1_555 1_555
O3 Cl1 1_555 1_555
O4 Cl1 1_555 1_555
S1 Ag1A 1_555 1_555
S2 Ag1 1_555 1_555
S3 C2 1_555 1_555
S1A Ag1 1_555 1_555
S3A Ag1 1_555 1_555
Ag1A_2 S3 1_555 1_555
C1 S2 1_555 1_555
C3 S3 1_555 1_555

#END
