
#######################################################################
#
#                 Cambridge Crystallographic Data Centre
#                                CCDC 
#
#######################################################################
#
# If this CIF has been generated from an entry in the Cambridge 
# Structural Database, then it will include bibliographic, chemical, 
# crystal, experimental, refinement or atomic coordinate data resulting 
# from the CCDC's data processing and validation procedures.
#
#######################################################################

data_TRTAGH
_symmetry_cell_setting           orthorhombic
_symmetry_space_group_name_H-M   'P c a b'
_symmetry_Int_Tables_number      61
_space_group_name_Hall           '-P 2bc 2ac'
loop_
_symmetry_equiv_pos_site_id
_symmetry_equiv_pos_as_xyz
1 x,y,z
2 1/2-x,y,1/2+z
3 1/2+x,1/2-y,z
4 -x,1/2-y,1/2+z
5 -x,-y,-z
6 1/2+x,-y,1/2-z
7 1/2-x,1/2+y,-z
8 x,1/2+y,1/2-z
_cell_length_a                   11.45(3)
_cell_length_b                   9.63(3)
_cell_length_c                   16.96(4)
_cell_angle_alpha                90
_cell_angle_beta                 90
_cell_angle_gamma                90
_cell_volume                     1870.07
loop_
_atom_site_label
_atom_site_type_symbol
_atom_site_fract_x
_atom_site_fract_y
_atom_site_fract_z
Ag1 Ag 0.15180 0.17020 0.15820
C1 C -0.07400 0.37800 0.09200
C2 C -0.06800 0.45600 0.24800
C3 C 0.11900 0.52800 0.15400
S1 S 0.08980 0.39230 0.08070
S2 S -0.11720 0.31320 0.18490
S3 S 0.09240 0.46730 0.25410
S2B S 0.38280 0.18680 0.18490
S3G S 0.09240 -0.03270 0.24590
Ag1B Ag -0.34820 0.32980 0.15820
Ag1G Ag 0.15180 0.67020 0.34180
N1 N 0.13900 -0.03000 -0.00100
O1 O 0.12900 -0.07000 -0.07000
O2 O 0.16300 0.08900 -0.02000
O3 O 0.12200 -0.12500 0.05200
O4 O 0.34300 -0.22500 0.11700
loop_
_geom_bond_atom_site_label_1
_geom_bond_atom_site_label_2
_geom_bond_site_symmetry_1
_geom_bond_site_symmetry_2
Ag1 S1 1_555 1_555
N1 O1 1_555 1_555
C1 S1 1_555 1_555
C2 S2 1_555 1_555
C3 S1 1_555 1_555
O2 N1 1_555 1_555
O3 N1 1_555 1_555
S2 C1 1_555 1_555
S3 C2 1_555 1_555
S2B Ag1 1_555 1_555
S3G Ag1 1_555 1_555
Ag1B S2 1_555 1_555
Ag1G S3 1_555 1_555
C3 S3 1_555 1_555

#END
