
#######################################################################
#
#                 Cambridge Crystallographic Data Centre
#                                CCDC 
#
#######################################################################
#
# If this CIF has been generated from an entry in the Cambridge 
# Structural Database, then it will include bibliographic, chemical, 
# crystal, experimental, refinement or atomic coordinate data resulting 
# from the CCDC's data processing and validation procedures.
#
#######################################################################

data_TTRZCU
_symmetry_cell_setting           monoclinic
_symmetry_space_group_name_H-M   'P 21/n'
_symmetry_Int_Tables_number      14
_space_group_name_Hall           '-P 2yn'
loop_
_symmetry_equiv_pos_site_id
_symmetry_equiv_pos_as_xyz
1 x,y,z
2 1/2-x,1/2+y,1/2-z
3 -x,-y,-z
4 1/2+x,1/2-y,1/2+z
_cell_length_a                   10.084(7)
_cell_length_b                   7.682(5)
_cell_length_c                   9.126(6)
_cell_angle_alpha                90
_cell_angle_beta                 116.43(7)
_cell_angle_gamma                90
_cell_volume                     633.057
loop_
_atom_site_label
_atom_site_type_symbol
_atom_site_fract_x
_atom_site_fract_y
_atom_site_fract_z
Cu1 Cu 0.00000 0.00000 0.00000
S1 S 0.18380 0.43300 -0.22550
C1 C 0.13010 0.26300 -0.15840
N1 N 0.09240 0.14360 -0.11050
N2 N 0.33140 -0.22180 0.07030
N3 N 0.21300 -0.20320 0.10240
C2 C 0.25550 -0.29090 0.23920
N4 N 0.39110 -0.36280 0.29430
C3 C 0.43400 -0.31680 0.18320
H1 H 0.33200 -0.17200 -0.01400
H2 H 0.19400 -0.29800 0.29100
H3 H 0.52100 -0.34500 0.18000
N1B N -0.09240 -0.14360 0.11050
N3B N -0.21300 0.20320 -0.10240
N4C N -0.10890 -0.13720 -0.20570
N4A N 0.10890 0.13720 0.20570
C1B C -0.13010 -0.26300 0.15840
N2B N -0.33140 0.22180 -0.07030
C2B C -0.25550 0.29090 -0.23920
Cu1A Cu 0.50000 -0.50000 0.50000
S1B S -0.18380 -0.43300 0.22550
C3B C -0.43400 0.31680 -0.18320
H1B H -0.33200 0.17200 0.01400
N4B N -0.39110 0.36280 -0.29430
H2B H -0.19400 0.29800 -0.29100
H3B H -0.52100 0.34500 -0.18000
Cu1A_2 Cu -0.50000 0.50000 -0.50000
loop_
_geom_bond_atom_site_label_1
_geom_bond_atom_site_label_2
_geom_bond_site_symmetry_1
_geom_bond_site_symmetry_2
Cu1 N1 1_555 1_555
S1 C1 1_555 1_555
C1 N1 1_555 1_555
N2 N3 1_555 1_555
N3 Cu1 1_555 1_555
C2 N3 1_555 1_555
N4 C2 1_555 1_555
C3 N2 1_555 1_555
H1 N2 1_555 1_555
H2 C2 1_555 1_555
H3 C3 1_555 1_555
N1B Cu1 1_555 1_555
N3B Cu1 1_555 1_555
N4C Cu1 1_555 1_555
N4A Cu1 1_555 1_555
C1B N1B 1_555 1_555
N2B N3B 1_555 1_555
C2B N3B 1_555 1_555
Cu1A N4 1_555 1_555
S1B C1B 1_555 1_555
C3B N2B 1_555 1_555
H1B N2B 1_555 1_555
N4B C2B 1_555 1_555
H2B C2B 1_555 1_555
H3B C3B 1_555 1_555
Cu1A_2 N4B 1_555 1_555
N4 C3 1_555 1_555
C3B N4B 1_555 1_555

#END
