
#######################################################################
#
#                 Cambridge Crystallographic Data Centre
#                                CCDC 
#
#######################################################################
#
# If this CIF has been generated from an entry in the Cambridge 
# Structural Database, then it will include bibliographic, chemical, 
# crystal, experimental, refinement or atomic coordinate data resulting 
# from the CCDC's data processing and validation procedures.
#
#######################################################################

data_TTRZZN
_symmetry_cell_setting           orthorhombic
_symmetry_space_group_name_H-M   'P b c n'
_symmetry_Int_Tables_number      60
_space_group_name_Hall           '-P 2n 2ab'
loop_
_symmetry_equiv_pos_site_id
_symmetry_equiv_pos_as_xyz
1 x,y,z
2 1/2-x,1/2-y,1/2+z
3 1/2+x,1/2-y,-z
4 -x,y,1/2-z
5 -x,-y,-z
6 1/2+x,1/2+y,1/2-z
7 1/2-x,1/2+y,z
8 x,-y,1/2+z
_cell_length_a                   7.897(2)
_cell_length_b                   9.816(1)
_cell_length_c                   16.224(6)
_cell_angle_alpha                90
_cell_angle_beta                 90
_cell_angle_gamma                90
_cell_volume                     1257.64
loop_
_atom_site_label
_atom_site_type_symbol
_atom_site_fract_x
_atom_site_fract_y
_atom_site_fract_z
Zn1 Zn 0.00000 0.21426 0.25000
S1 S 0.43135 0.23737 0.45403
C1 C 0.25770 0.22650 0.39960
N1 N 0.13620 0.22060 0.36080
N2 N 0.19260 0.42000 0.12580
N3 N 0.16500 0.37950 0.20400
C2 C 0.25440 0.46680 0.24740
N4 N 0.33610 0.56010 0.20120
C3 C 0.29530 0.52670 0.12540
H1 H 0.13500 0.37200 0.07500
H2 H 0.26100 0.46100 0.30700
H3 H 0.32800 0.56900 0.07600
N1C N -0.13620 0.22060 0.13920
N3C N -0.16500 0.37950 0.29600
N4E N -0.16390 0.06010 0.29880
N4F N 0.16390 0.06010 0.20120
C1C C -0.25770 0.22650 0.10040
N2C N -0.19260 0.42000 0.37420
C2C C -0.25440 0.46680 0.25260
Zn1F Zn 0.50000 0.71426 0.25000
S1C S -0.43135 0.23737 0.04597
C3C C -0.29530 0.52670 0.37460
H1C H -0.13500 0.37200 0.42500
N4C N -0.33610 0.56010 0.29880
H2C H -0.26100 0.46100 0.19300
H3C H -0.32800 0.56900 0.42400
Zn1F_2 Zn -0.50000 0.71426 0.25000
loop_
_geom_bond_atom_site_label_1
_geom_bond_atom_site_label_2
_geom_bond_site_symmetry_1
_geom_bond_site_symmetry_2
Zn1 N1 1_555 1_555
S1 C1 1_555 1_555
C1 N1 1_555 1_555
N2 N3 1_555 1_555
N3 Zn1 1_555 1_555
C2 N3 1_555 1_555
N4 C2 1_555 1_555
C3 N2 1_555 1_555
H1 N2 1_555 1_555
H2 C2 1_555 1_555
H3 C3 1_555 1_555
N1C Zn1 1_555 1_555
N3C Zn1 1_555 1_555
N4E Zn1 1_555 1_555
N4F Zn1 1_555 1_555
C1C N1C 1_555 1_555
N2C N3C 1_555 1_555
C2C N3C 1_555 1_555
Zn1F N4 1_555 1_555
S1C C1C 1_555 1_555
C3C N2C 1_555 1_555
H1C N2C 1_555 1_555
N4C C2C 1_555 1_555
H2C C2C 1_555 1_555
H3C C3C 1_555 1_555
Zn1F_2 N4C 1_555 1_555
N4 C3 1_555 1_555
C3C N4C 1_555 1_555

#END
