
#######################################################################
#
#                 Cambridge Crystallographic Data Centre
#                                CCDC 
#
#######################################################################
#
# If this CIF has been generated from an entry in the Cambridge 
# Structural Database, then it will include bibliographic, chemical, 
# crystal, experimental, refinement or atomic coordinate data resulting 
# from the CCDC's data processing and validation procedures.
#
#######################################################################

data_TUBBUP
_symmetry_cell_setting           monoclinic
_symmetry_space_group_name_H-M   'P 21/c'
_symmetry_Int_Tables_number      14
_space_group_name_Hall           '-P 2ybc'
loop_
_symmetry_equiv_pos_site_id
_symmetry_equiv_pos_as_xyz
1 x,y,z
2 -x,1/2+y,1/2-z
3 -x,-y,-z
4 x,1/2-y,1/2+z
_cell_length_a                   13.1992(4)
_cell_length_b                   8.1755(3)
_cell_length_c                   17.2036(5)
_cell_angle_alpha                90
_cell_angle_beta                 129.854(2)
_cell_angle_gamma                90
_cell_volume                     1425.15
loop_
_atom_site_label
_atom_site_type_symbol
_atom_site_fract_x
_atom_site_fract_y
_atom_site_fract_z
Cd1 Cd 0.28369(5) -0.36734(6) -0.43399(4)
Cd2 Cd -0.09802(5) -0.48640(6) -0.62953(4)
O1 O 0.1845(5) -0.2625(6) -0.3715(3)
O2 O 0.1942(5) 0.1087(6) -0.4382(4)
O3 O 0.0354(5) 0.2350(6) -0.3603(4)
O4 O 0.0251(5) -0.1260(6) -0.3001(4)
C1 C 0.1440(7) -0.1198(8) -0.3700(5)
C2 C 0.1507(7) 0.0466(9) -0.3992(5)
C3 C 0.0774(7) 0.1047(9) -0.3655(5)
C4 C 0.0730(7) -0.0645(8) -0.3374(5)
N1 N 0.3222(6) -0.6057(7) -0.2643(4)
N2 N 0.3869(6) -0.5555(7) -0.2977(4)
N3 N 0.4977(6) -0.6306(8) -0.2489(5)
N4 N 0.5090(6) -0.7386(7) -0.1846(4)
C5 C 0.3996(7) -0.7202(9) -0.1950(5)
C6 C 0.3691(7) -0.8138(9) -0.1413(5)
C7 C 0.3314(7) -0.7385(9) -0.0907(5)
H1 H 0.3225 -0.6254 -0.0930
C8 C 0.3074(7) -0.8299(8) -0.0380(6)
H2 H 0.2866 -0.7764 -0.0022
N5 N 0.3125(5) -0.9966(7) -0.0355(4)
C9 C 0.3450(7) -1.0701(9) -0.0866(5)
H3 H 0.3477 -1.1838 -0.0866
C10 C 0.3748(6) -0.9839(9) -0.1396(5)
H4 H 0.3982 -1.0392 -0.1733
O5 O 0.1109(5) -0.5420(5) -0.4960(3)
H5 H 0.1296 -0.6342 -0.4923
O6 O -0.0993(5) -0.5680(6) -0.7569(4)
H6 H -0.0647 -0.6636 -0.7382
H7 H -0.0564 -0.5178 -0.7704
O7 O 0.2506(5) -0.1250(6) -0.5184(4)
H8 H 0.2397 -0.0573 -0.4885
H9 H 0.1796 -0.1251 -0.5798
Cd1A Cd 0.71631(5) -0.86734(6) -0.06601(4)
Cd1C Cd 0.28369(5) -1.13266(6) 0.06601(4)
Cd2B Cd 0.09802(5) -0.51360(6) -0.37047(4)
Cd2B_2 Cd 0.09802(5) 0.48640(6) -0.37047(4)
O1B O -0.1845(5) -0.7375(6) -0.6285(3)
O3B O -0.0354(5) -0.2350(6) -0.6397(4)
N1B N -0.3222(6) -0.3943(7) -0.7357(4)
N4A N 0.4910(6) -0.2386(7) -0.3154(4)
N5C N 0.3125(5) -0.5034(7) -0.5355(4)
O5B O -0.1109(5) -0.4580(5) -0.5040(3)
loop_
_geom_bond_atom_site_label_1
_geom_bond_atom_site_label_2
_geom_bond_site_symmetry_1
_geom_bond_site_symmetry_2
Cd1 O1 1_555 1_555
Cd2 O5 1_555 1_555
O1 C1 1_555 1_555
O2 C2 1_555 1_555
O3 C3 1_555 1_555
O4 C4 1_555 1_555
C1 C2 1_555 1_555
C2 C3 1_555 1_555
C3 C4 1_555 1_555
C4 C1 1_555 1_555
N1 N2 1_555 1_555
N2 Cd1 1_555 1_555
N3 N2 1_555 1_555
N4 N3 1_555 1_555
C5 N1 1_555 1_555
C6 C5 1_555 1_555
C7 C6 1_555 1_555
H1 C7 1_555 1_555
C8 C7 1_555 1_555
H2 C8 1_555 1_555
N5 C8 1_555 1_555
C9 N5 1_555 1_555
H3 C9 1_555 1_555
C10 C6 1_555 1_555
H4 C10 1_555 1_555
O5 Cd1 1_555 1_555
H5 O5 1_555 1_555
O6 Cd2 1_555 1_555
H6 O6 1_555 1_555
H7 O6 1_555 1_555
O7 Cd1 1_555 1_555
H8 O7 1_555 1_555
H9 O7 1_555 1_555
Cd1A N4 1_555 1_555
Cd1C N5 1_555 1_555
Cd2B O1 1_555 1_555
Cd2B_2 O3 1_555 1_555
O1B Cd2 1_555 1_555
O3B Cd2 1_555 1_555
N1B Cd2 1_555 1_555
N4A Cd1 1_555 1_555
N5C Cd1 1_555 1_555
O5B Cd2 1_555 1_555
N1 Cd2B 1_555 1_555
N4 C5 1_555 1_555
C9 C10 1_555 1_555
O5 Cd2B 1_555 1_555
Cd2B O5B 1_555 1_555

#END
