
#######################################################################
#
#                 Cambridge Crystallographic Data Centre
#                                CCDC 
#
#######################################################################
#
# If this CIF has been generated from an entry in the Cambridge 
# Structural Database, then it will include bibliographic, chemical, 
# crystal, experimental, refinement or atomic coordinate data resulting 
# from the CCDC's data processing and validation procedures.
#
#######################################################################

data_TUBGOO
_symmetry_cell_setting           monoclinic
_symmetry_space_group_name_H-M   'P 21/c'
_symmetry_Int_Tables_number      14
_space_group_name_Hall           '-P 2ybc'
loop_
_symmetry_equiv_pos_site_id
_symmetry_equiv_pos_as_xyz
1 x,y,z
2 -x,1/2+y,1/2-z
3 -x,-y,-z
4 x,1/2-y,1/2+z
_cell_length_a                   14.186(2)
_cell_length_b                   17.917(3)
_cell_length_c                   15.787(2)
_cell_angle_alpha                90
_cell_angle_beta                 110.428(2)
_cell_angle_gamma                90
_cell_volume                     3760.24
loop_
_atom_site_label
_atom_site_type_symbol
_atom_site_fract_x
_atom_site_fract_y
_atom_site_fract_z
Cu1 Cu -0.27226(6) -0.23669(4) 0.32200(5)
Cu2 Cu -0.15248(6) 0.18408(4) 0.37573(5)
O1 O -0.1330(3) 0.2799(2) 0.4380(3)
O2 O -0.1939(3) 0.3285(2) 0.2987(3)
O3 O -0.2927(3) 0.5954(2) 0.2630(3)
O4 O -0.2387(3) 0.6691(2) 0.3850(3)
O5 O -0.0320(3) 0.5712(2) 0.6724(3)
O6 O 0.0084(3) 0.4550(2) 0.6903(3)
O7 O -0.1821(3) 0.1035(2) 0.2887(3)
O8 O -0.2277(3) 0.1827(2) 0.1715(3)
O9 O -0.2943(3) -0.1445(2) 0.2589(3)
O10 O -0.3378(3) -0.2067(2) 0.1284(3)
O11 O -0.4694(4) -0.0338(2) -0.1417(3)
O12 O -0.4275(3) 0.0822(3) -0.1253(3)
O13 O -0.3983(3) -0.0256(2) 0.4621(3)
O14 O 0.1131(3) -0.0808(2) 0.5051(3)
N1 N -0.0022(4) 0.1742(3) 0.3996(3)
N2 N 0.1058(4) -0.0422(3) 0.3678(3)
H1 H 0.0736 -0.0477 0.3094
N3 N -0.1293(4) -0.2275(3) 0.3343(3)
N4 N -0.2954(4) 0.1736(3) 0.3766(3)
N5 N -0.5413(4) -0.0121(3) 0.3436(3)
H2 H -0.5727 0.0127 0.2935
N6 N -0.4048(4) -0.2280(3) 0.3371(3)
N7 N -0.0372(4) 0.5073(3) 0.6433(3)
N8 N -0.4276(4) 0.0188(3) -0.0960(4)
C1 C 0.0615(5) 0.2314(4) 0.4233(4)
H3 H 0.0362 0.2796 0.4286
C2 C 0.1634(5) 0.2231(4) 0.4403(4)
H4 H 0.2074 0.2647 0.4578
C3 C 0.1999(5) 0.1542(4) 0.4317(4)
H5 H 0.2696 0.1480 0.4420
C4 C 0.1359(5) 0.0927(4) 0.4078(4)
C5 C 0.0348(5) 0.1066(3) 0.3923(4)
H6 H -0.0108 0.0659 0.3756
C6 C 0.1775(5) 0.0175(3) 0.3957(4)
H7 H 0.2109 0.0226 0.3505
H8 H 0.2298 0.0032 0.4537
C7 C 0.0842(5) -0.0898(4) 0.4231(4)
C8 C -0.0747(5) -0.1669(3) 0.3711(4)
H9 H -0.1058 -0.1289 0.3942
C9 C 0.0238(5) -0.1567(3) 0.3773(4)
C10 C 0.0672(5) -0.2113(4) 0.3410(4)
H10 H 0.1338 -0.2052 0.3411
C11 C 0.0138(5) -0.2738(4) 0.3052(4)
H11 H 0.0433 -0.3129 0.2823
C12 C -0.0839(5) -0.2792(4) 0.3029(4)
H12 H -0.1208 -0.3228 0.2772
C13 C -0.3543(5) 0.2315(4) 0.3783(4)
H13 H -0.3298 0.2806 0.3768
C14 C -0.4490(5) 0.2226(4) 0.3820(4)
H14 H -0.4887 0.2650 0.3835
C15 C -0.4857(5) 0.1515(4) 0.3836(4)
H15 H -0.5518 0.1440 0.3842
C16 C -0.4247(5) 0.0918(4) 0.3844(4)
C17 C -0.3314(5) 0.1048(4) 0.3810(4)
H16 H -0.2896 0.0632 0.3818
C18 C -0.4554(5) 0.0127(4) 0.3987(4)
C19 C -0.5865(5) -0.0805(3) 0.3633(4)
H17 H -0.6577 -0.0820 0.3227
H18 H -0.5861 -0.0770 0.4260
C20 C -0.4529(5) -0.2889(4) 0.3471(4)
H19 H -0.4228 -0.3361 0.3462
C21 C -0.5439(5) -0.2867(4) 0.3585(5)
H20 H -0.5775 -0.3316 0.3629
C22 C -0.5861(5) -0.2189(4) 0.3636(4)
H21 H -0.6481 -0.2162 0.3739
C23 C -0.5376(5) -0.1544(4) 0.3537(4)
C24 C -0.4478(5) -0.1615(4) 0.3404(4)
H22 H -0.4142 -0.1175 0.3331
C25 C -0.1592(5) 0.3343(4) 0.3820(4)
C26 C -0.2478(5) 0.6071(4) 0.3439(5)
C27 C -0.1526(4) 0.4111(3) 0.4241(4)
C28 C -0.1993(4) 0.4716(3) 0.3690(4)
H23 H -0.2343 0.4637 0.3064
C29 C -0.1951(5) 0.5424(3) 0.4045(4)
C30 C -0.1426(4) 0.5539(3) 0.4950(4)
H24 H -0.1384 0.6023 0.5206
C31 C -0.0962(4) 0.4940(3) 0.5476(4)
C32 C -0.1012(4) 0.4227(3) 0.5135(4)
H25 H -0.0693 0.3824 0.5519
C33 C -0.2252(5) 0.1208(4) 0.2053(5)
C34 C -0.3169(4) -0.1495(4) 0.1734(5)
C35 C -0.2744(4) 0.0560(3) 0.1450(4)
C36 C -0.3237(4) 0.0672(3) 0.0540(4)
H26 H -0.3245 0.1150 0.0278
C37 C -0.3720(4) 0.0073(3) 0.0018(4)
C38 C -0.3699(4) -0.0632(3) 0.0372(4)
H27 H -0.4016 -0.1039 -0.0007
C39 C -0.3213(4) -0.0737(3) 0.1281(4)
C40 C -0.2736(4) -0.0143(3) 0.1822(4)
H28 H -0.2401 -0.0216 0.2452
Cu1_2 Cu -0.27226(6) 0.76331(4) 0.32200(5)
Cu2B Cu 0.15248(6) -0.18408(4) 0.62427(5)
O4_2 O -0.2387(3) -0.3309(2) 0.3850(3)
O14B O -0.1131(3) 0.0808(2) 0.4949(3)
loop_
_geom_bond_atom_site_label_1
_geom_bond_atom_site_label_2
_geom_bond_site_symmetry_1
_geom_bond_site_symmetry_2
Cu1 O9 1_555 1_555
Cu2 O1 1_555 1_555
O1 C25 1_555 1_555
O2 C25 1_555 1_555
O3 C26 1_555 1_555
O4 C26 1_555 1_555
O5 N7 1_555 1_555
O6 N7 1_555 1_555
O7 Cu2 1_555 1_555
O8 C33 1_555 1_555
O9 C34 1_555 1_555
O10 C34 1_555 1_555
O11 N8 1_555 1_555
O12 N8 1_555 1_555
O13 C18 1_555 1_555
O14 C7 1_555 1_555
N1 Cu2 1_555 1_555
N2 H1 1_555 1_555
N3 Cu1 1_555 1_555
N4 Cu2 1_555 1_555
N5 H2 1_555 1_555
N6 Cu1 1_555 1_555
N7 C31 1_555 1_555
N8 C37 1_555 1_555
C1 N1 1_555 1_555
H3 C1 1_555 1_555
C2 C1 1_555 1_555
H4 C2 1_555 1_555
C3 C2 1_555 1_555
H5 C3 1_555 1_555
C4 C3 1_555 1_555
C5 N1 1_555 1_555
H6 C5 1_555 1_555
C6 N2 1_555 1_555
H7 C6 1_555 1_555
H8 C6 1_555 1_555
C7 N2 1_555 1_555
C8 N3 1_555 1_555
H9 C8 1_555 1_555
C9 C7 1_555 1_555
C10 C9 1_555 1_555
H10 C10 1_555 1_555
C11 C10 1_555 1_555
H11 C11 1_555 1_555
C12 N3 1_555 1_555
H12 C12 1_555 1_555
C13 N4 1_555 1_555
H13 C13 1_555 1_555
C14 C13 1_555 1_555
H14 C14 1_555 1_555
C15 C14 1_555 1_555
H15 C15 1_555 1_555
C16 C15 1_555 1_555
C17 N4 1_555 1_555
H16 C17 1_555 1_555
C18 N5 1_555 1_555
C19 N5 1_555 1_555
H17 C19 1_555 1_555
H18 C19 1_555 1_555
C20 N6 1_555 1_555
H19 C20 1_555 1_555
C21 C20 1_555 1_555
H20 C21 1_555 1_555
C22 C21 1_555 1_555
H21 C22 1_555 1_555
C23 C19 1_555 1_555
C24 N6 1_555 1_555
H22 C24 1_555 1_555
C25 C27 1_555 1_555
C26 C29 1_555 1_555
C27 C28 1_555 1_555
C28 H23 1_555 1_555
C29 C28 1_555 1_555
C30 C29 1_555 1_555
H24 C30 1_555 1_555
C31 C30 1_555 1_555
C32 C27 1_555 1_555
H25 C32 1_555 1_555
C33 O7 1_555 1_555
C34 C39 1_555 1_555
C35 C33 1_555 1_555
C36 C35 1_555 1_555
H26 C36 1_555 1_555
C37 C36 1_555 1_555
C38 C37 1_555 1_555
H27 C38 1_555 1_555
C39 C38 1_555 1_555
C40 C35 1_555 1_555
H28 C40 1_555 1_555
Cu1_2 O4 1_555 1_555
Cu2B O14 1_555 1_555
O4_2 Cu1 1_555 1_555
O14B Cu2 1_555 1_555
C4 C5 1_555 1_555
C4 C6 1_555 1_555
C8 C9 1_555 1_555
C11 C12 1_555 1_555
C16 C17 1_555 1_555
C16 C18 1_555 1_555
C22 C23 1_555 1_555
C23 C24 1_555 1_555
C31 C32 1_555 1_555
C39 C40 1_555 1_555

#END
