
#######################################################################
#
#                 Cambridge Crystallographic Data Centre
#                                CCDC 
#
#######################################################################
#
# If this CIF has been generated from an entry in the Cambridge 
# Structural Database, then it will include bibliographic, chemical, 
# crystal, experimental, refinement or atomic coordinate data resulting 
# from the CCDC's data processing and validation procedures.
#
#######################################################################

data_TUBLEJ
_symmetry_cell_setting           monoclinic
_symmetry_space_group_name_H-M   'C 2/c'
_symmetry_Int_Tables_number      15
_space_group_name_Hall           '-C 2yn'
loop_
_symmetry_equiv_pos_site_id
_symmetry_equiv_pos_as_xyz
1 x,y,z
2 -x,y,1/2-z
3 1/2+x,1/2+y,z
4 1/2-x,1/2+y,1/2-z
5 -x,-y,-z
6 x,-y,1/2+z
7 1/2-x,1/2-y,-z
8 1/2+x,1/2-y,1/2+z
_cell_length_a                   10.254(2)
_cell_length_b                   26.264(6)
_cell_length_c                   19.514(4)
_cell_angle_alpha                90
_cell_angle_beta                 97.757(3)
_cell_angle_gamma                90
_cell_volume                     5207.25
loop_
_atom_site_label
_atom_site_type_symbol
_atom_site_fract_x
_atom_site_fract_y
_atom_site_fract_z
C1 C 1.0050(4) 0.57770(13) 1.21218(14)
H1 H 0.9718 0.6097 1.1921
H2 H 1.0967 0.5747 1.2054
C2 C 0.4927(3) 0.21353(11) 0.78793(12)
H3 H 0.5059 0.2476 0.8066
H4 H 0.4049 0.2024 0.7942
Zn1 Zn 0.5000 0.286379(14) 1.2500
Zn2 Zn 0.5000 0.465024(14) 0.7500
O1 O 0.46317(17) 0.41548(6) 0.82142(8)
O2 O 0.43289(16) 0.48493(6) 0.88215(8)
O3 O 0.45016(19) 0.32994(7) 1.17226(8)
C3 C 0.4220(2) 0.40517(8) 0.93757(11)
C4 C 0.6908(2) 0.19494(9) 1.11362(11)
C5 C 0.4388(2) 0.43823(9) 0.87666(11)
N1 N 0.6322(2) 0.23708(7) 1.21475(9)
N2 N 0.65910(19) 0.50871(7) 0.78796(9)
O4 O 0.58797(18) 0.17988(7) 0.82292(8)
C6 C 0.8475(2) 0.53756(10) 0.96310(12)
O5 O 0.31709(18) 0.27444(7) 1.11128(9)
C7 C 0.3814(2) 0.31399(9) 1.11635(11)
C8 C 0.3680(2) 0.35675(9) 0.93028(11)
H5 H 0.3432 0.3435 0.8863
C9 C 0.8073(2) 0.53871(9) 0.88650(11)
C10 C 0.6637(2) 0.19001(9) 1.03710(11)
C11 C 0.7151(3) 0.20648(10) 1.25422(12)
H6 H 0.7229 0.2098 1.3020
C12 C 0.5450(3) 0.20724(10) 1.00235(12)
H7 H 0.4829 0.2210 1.0277
C13 C 0.9099(3) 0.53935(11) 1.10701(12)
C14 C 0.9419(3) 0.57995(11) 1.06772(13)
H8 H 0.9854 0.6080 1.0890
C15 C 0.5163(3) 0.20468(10) 0.93159(12)
H9 H 0.4365 0.2170 0.9095
C16 C 0.3925(2) 0.34649(8) 1.05398(10)
C17 C 0.6243(3) 0.23145(10) 1.14622(11)
H10 H 0.5699 0.2537 1.1185
C18 C 0.7128(3) 0.54156(11) 0.74800(12)
H11 H 0.6805 0.5431 0.7012
O6 O 0.9331(2) 0.53737(8) 1.17857(9)
C19 C 0.4501(2) 0.39418(9) 1.06113(11)
H12 H 0.4810 0.4065 1.1050
C20 C 0.4623(2) 0.42381(9) 1.00374(11)
H13 H 0.4977 0.4564 1.0094
C21 C 0.9093(3) 0.57897(10) 0.99643(13)
H14 H 0.9296 0.6069 0.9705
C22 C 0.3506(2) 0.32798(9) 0.98782(11)
H15 H 0.3108 0.2962 0.9822
C23 C 0.7527(3) 0.16828(10) 0.99775(12)
H16 H 0.8324 0.1558 1.0198
C24 C 0.7077(2) 0.50765(10) 0.85587(11)
H17 H 0.6714 0.4844 0.8839
C25 C 0.8194(2) 0.49638(10) 1.00374(12)
H18 H 0.7793 0.4676 0.9825
C26 C 0.8614(3) 0.57165(11) 0.84282(13)
H19 H 0.9303 0.5929 0.8605
C27 C 0.6073(3) 0.18360(9) 0.89364(11)
C28 C 0.8140(3) 0.57321(13) 0.77355(14)
H20 H 0.8503 0.5955 0.7443
C29 C 0.8497(2) 0.49727(11) 1.07460(12)
H21 H 0.8294 0.4694 1.1006
C30 C 0.7250(3) 0.16493(10) 0.92691(12)
H22 H 0.7855 0.1501 0.9015
C31 C 0.7770(3) 0.16436(10) 1.15569(12)
H23 H 0.8267 0.1399 1.1365
C32 C 0.7887(3) 0.17058(11) 1.22677(12)
H24 H 0.8466 0.1503 1.2557
C1A C 0.9950(4) 0.57770(13) 1.28782(14)
H1A H 1.0282 0.6097 1.3079
H2A H 0.9033 0.5747 1.2946
N2A N 1.34090(19) 0.50871(7) 1.71204(9)
C6A C 1.1525(2) 0.53756(10) 1.53690(12)
C9A C 1.1927(2) 0.53871(9) 1.61350(11)
C13A C 1.0901(3) 0.53935(11) 1.39299(12)
C14A C 1.0581(3) 0.57995(11) 1.43228(13)
H8A H 1.0146 0.6080 1.4110
C18A C 1.2872(3) 0.54156(11) 1.75200(12)
H11A H 1.3195 0.5431 1.7988
O6A O 1.0669(2) 0.53737(8) 1.32143(9)
C21A C 1.0907(3) 0.57897(10) 1.50357(13)
H14A H 1.0704 0.6069 1.5295
C24A C 1.2923(2) 0.50765(10) 1.64413(11)
H17A H 1.3286 0.4844 1.6161
C25A C 1.1806(2) 0.49638(10) 1.49626(12)
H18A H 1.2207 0.4676 1.5175
C26A C 1.1386(3) 0.57165(11) 1.65718(13)
H19A H 1.0697 0.5929 1.6395
C28A C 1.1860(3) 0.57321(13) 1.72645(14)
H20A H 1.1497 0.5955 1.7557
C29A C 1.1503(2) 0.49727(11) 1.42540(12)
H21A H 1.1706 0.4694 1.3994
C2A C 0.5073(3) 0.21353(11) 0.71207(12)
H3A H 0.4941 0.2476 0.6934
H4A H 0.5951 0.2024 0.7058
C4A C 0.3092(2) 0.19494(9) 0.38638(11)
N1A N 0.3678(2) 0.23708(7) 0.28525(9)
O4A O 0.41203(18) 0.17988(7) 0.67708(8)
C10A C 0.3363(2) 0.19001(9) 0.46290(11)
C11A C 0.2849(3) 0.20648(10) 0.24578(12)
H6A H 0.2771 0.2098 0.1980
C12A C 0.4550(3) 0.20724(10) 0.49765(12)
H7A H 0.5171 0.2210 0.4723
C15A C 0.4837(3) 0.20468(10) 0.56841(12)
H9A H 0.5635 0.2170 0.5905
C17A C 0.3757(3) 0.23145(10) 0.35378(11)
H10A H 0.4301 0.2537 0.3815
C23A C 0.2473(3) 0.16828(10) 0.50225(12)
H16A H 0.1676 0.1558 0.4802
C27A C 0.3927(3) 0.18360(9) 0.60636(11)
C30A C 0.2750(3) 0.16493(10) 0.57309(12)
H22A H 0.2145 0.1501 0.5985
C31A C 0.2230(3) 0.16436(10) 0.34431(12)
H23A H 0.1733 0.1399 0.3635
C32A C 0.2113(3) 0.17058(11) 0.27323(12)
H24A H 0.1534 0.1503 0.2443
O1A O 0.53683(17) 0.41548(6) 0.67858(8)
O2A O 0.56711(16) 0.48493(6) 0.61785(8)
O3A O 0.54984(19) 0.32994(7) 0.32774(8)
C3A C 0.5780(2) 0.40517(8) 0.56243(11)
C5A C 0.5612(2) 0.43823(9) 0.62334(11)
O5A O 0.68291(18) 0.27444(7) 0.38872(9)
C7A C 0.6186(2) 0.31399(9) 0.38365(11)
C8A C 0.6320(2) 0.35675(9) 0.56972(11)
H5A H 0.6568 0.3435 0.6137
C16A C 0.6075(2) 0.34649(8) 0.44602(10)
C19A C 0.5499(2) 0.39418(9) 0.43887(11)
H12A H 0.5190 0.4065 0.3950
C20A C 0.5377(2) 0.42381(9) 0.49626(11)
H13A H 0.5023 0.4564 0.4906
C22A C 0.6494(2) 0.32798(9) 0.51218(11)
H15A H 0.6892 0.2962 0.5178
Zn1_2 Zn 0.5000 0.286379(14) 0.2500
Zn2_2 Zn 1.5000 0.465024(14) 1.7500
O3A_2 O 0.54984(19) 0.32994(7) 1.32774(8)
N1A_2 N 0.3678(2) 0.23708(7) 1.28525(9)
N2A_2 N 0.34090(19) 0.50871(7) 0.71204(9)
loop_
_geom_bond_atom_site_label_1
_geom_bond_atom_site_label_2
_geom_bond_site_symmetry_1
_geom_bond_site_symmetry_2
C1 H1 1_555 1_555
H2 C1 1_555 1_555
C2 H3 1_555 1_555
H4 C2 1_555 1_555
Zn1 O3 1_555 1_555
Zn2 O1 1_555 1_555
O1 C5 1_555 1_555
O2 C5 1_555 1_555
O3 C7 1_555 1_555
C3 C5 1_555 1_555
C4 C10 1_555 1_555
N1 Zn1 1_555 1_555
N2 Zn2 1_555 1_555
O4 C2 1_555 1_555
C6 C9 1_555 1_555
O5 C7 1_555 1_555
C7 C16 1_555 1_555
C8 C3 1_555 1_555
H5 C8 1_555 1_555
C9 C24 1_555 1_555
C10 C12 1_555 1_555
C11 N1 1_555 1_555
H6 C11 1_555 1_555
C12 H7 1_555 1_555
C13 C14 1_555 1_555
C14 H8 1_555 1_555
C15 C12 1_555 1_555
H9 C15 1_555 1_555
C16 C19 1_555 1_555
C17 C4 1_555 1_555
H10 C17 1_555 1_555
C18 N2 1_555 1_555
H11 C18 1_555 1_555
O6 C1 1_555 1_555
C19 H12 1_555 1_555
C20 C3 1_555 1_555
H13 C20 1_555 1_555
C21 C6 1_555 1_555
H14 C21 1_555 1_555
C22 C8 1_555 1_555
H15 C22 1_555 1_555
C23 C10 1_555 1_555
H16 C23 1_555 1_555
C24 N2 1_555 1_555
H17 C24 1_555 1_555
C25 C6 1_555 1_555
H18 C25 1_555 1_555
C26 C9 1_555 1_555
H19 C26 1_555 1_555
C27 O4 1_555 1_555
C28 C18 1_555 1_555
H20 C28 1_555 1_555
C29 C13 1_555 1_555
H21 C29 1_555 1_555
C30 C23 1_555 1_555
H22 C30 1_555 1_555
C31 C4 1_555 1_555
H23 C31 1_555 1_555
C32 C11 1_555 1_555
H24 C32 1_555 1_555
C1A C1 1_555 1_555
H1A C1A 1_555 1_555
H2A C1A 1_555 1_555
N2A C18A 1_555 1_555
C6A C9A 1_555 1_555
C9A C24A 1_555 1_555
C13A C14A 1_555 1_555
C14A H8A 1_555 1_555
C18A H11A 1_555 1_555
O6A C1A 1_555 1_555
C21A C6A 1_555 1_555
H14A C21A 1_555 1_555
C24A N2A 1_555 1_555
H17A C24A 1_555 1_555
C25A C6A 1_555 1_555
H18A C25A 1_555 1_555
C26A C9A 1_555 1_555
H19A C26A 1_555 1_555
C28A C18A 1_555 1_555
H20A C28A 1_555 1_555
C29A C13A 1_555 1_555
H21A C29A 1_555 1_555
C2A C2 1_555 1_555
H3A C2A 1_555 1_555
H4A C2A 1_555 1_555
C4A C10A 1_555 1_555
N1A C11A 1_555 1_555
O4A C2A 1_555 1_555
C10A C12A 1_555 1_555
C11A H6A 1_555 1_555
C12A H7A 1_555 1_555
C15A C12A 1_555 1_555
H9A C15A 1_555 1_555
C17A C4A 1_555 1_555
H10A C17A 1_555 1_555
C23A C10A 1_555 1_555
H16A C23A 1_555 1_555
C27A O4A 1_555 1_555
C30A C23A 1_555 1_555
H22A C30A 1_555 1_555
C31A C4A 1_555 1_555
H23A C31A 1_555 1_555
C32A C11A 1_555 1_555
H24A C32A 1_555 1_555
O1A Zn2 1_555 1_555
O2A C5A 1_555 1_555
O3A C7A 1_555 1_555
C3A C5A 1_555 1_555
C5A O1A 1_555 1_555
O5A C7A 1_555 1_555
C7A C16A 1_555 1_555
C8A C3A 1_555 1_555
H5A C8A 1_555 1_555
C16A C19A 1_555 1_555
C19A H12A 1_555 1_555
C20A C3A 1_555 1_555
H13A C20A 1_555 1_555
C22A C8A 1_555 1_555
H15A C22A 1_555 1_555
Zn1_2 N1A 1_555 1_555
Zn2_2 N2A 1_555 1_555
O3A_2 Zn1 1_555 1_555
N1A_2 Zn1 1_555 1_555
N2A_2 Zn2 1_555 1_555
N1 C17 1_555 1_555
C13 O6 1_555 1_555
C14 C21 1_555 1_555
C15 C27 1_555 1_555
C16 C22 1_555 1_555
C19 C20 1_555 1_555
C25 C29 1_555 1_555
C26 C28 1_555 1_555
C27 C30 1_555 1_555
C31 C32 1_555 1_555
C13A O6A 1_555 1_555
C14A C21A 1_555 1_555
C25A C29A 1_555 1_555
C26A C28A 1_555 1_555
N1A C17A 1_555 1_555
C15A C27A 1_555 1_555
C27A C30A 1_555 1_555
C31A C32A 1_555 1_555
O3A Zn1_2 1_555 1_555
C16A C22A 1_555 1_555
C19A C20A 1_555 1_555

#END
