
#######################################################################
#
#                 Cambridge Crystallographic Data Centre
#                                CCDC 
#
#######################################################################
#
# If this CIF has been generated from an entry in the Cambridge 
# Structural Database, then it will include bibliographic, chemical, 
# crystal, experimental, refinement or atomic coordinate data resulting 
# from the CCDC's data processing and validation procedures.
#
#######################################################################

data_TUBLAF
_symmetry_cell_setting           triclinic
_symmetry_space_group_name_H-M   'P -1'
_symmetry_Int_Tables_number      2
_space_group_name_Hall           '-P 1'
loop_
_symmetry_equiv_pos_site_id
_symmetry_equiv_pos_as_xyz
1 x,y,z
2 -x,-y,-z
_cell_length_a                   9.7614(7)
_cell_length_b                   13.6903(9)
_cell_length_c                   19.6736(14)
_cell_angle_alpha                74.805(6)
_cell_angle_beta                 83.465(6)
_cell_angle_gamma                82.769(5)
_cell_volume                     2508.03
loop_
_atom_site_label
_atom_site_type_symbol
_atom_site_fract_x
_atom_site_fract_y
_atom_site_fract_z
C61 C 0.3910(10) 0.3019(7) 0.7766(4)
H47 H 0.4753(10) 0.3337(11) 0.761(3)
H48 H 0.389(4) 0.270(3) 0.8264(6)
H49 H 0.387(4) 0.251(3) 0.751(3)
O11 O 0.2783(7) 0.3748(5) 0.7634(3)
H50 H 0.256(7) 0.397(6) 0.798(2)
O12 O 0.4596(6) 0.1960(4) 0.7411(4)
H51 H 0.3955(6) 0.1680(4) 0.7299(4)
H52 H 0.4425(6) 0.2002(4) 0.7836(4)
O1 O -0.0505(2) 0.54216(17) 1.11918(13)
C1 C -0.1376(4) 0.2896(3) 0.9919(2)
H1 H -0.1627(4) 0.3557(3) 0.9663(2)
C2 C -0.2314(4) 0.2183(3) 1.0051(4)
H2 H -0.3197(4) 0.2369(3) 0.9896(4)
C3 C -0.1941(4) 0.1192(3) 1.0413(4)
H3 H -0.2567(4) 0.0707(3) 1.0496(4)
C4 C -0.0632(4) 0.0925(3) 1.0652(2)
C5 C 0.0222(4) 0.1696(3) 1.05111(18)
H4 H 0.1097(4) 0.1538(3) 1.06789(18)
C6 C -0.0129(4) -0.0125(3) 1.1031(2)
C7 C 0.1114(7) -0.0342(6) 1.1460(5)
H5 H 0.1556(7) 0.0205(6) 1.1495(5)
C8 C 0.0873(4) -0.2109(3) 1.1701(3)
C9 C -0.0407(4) -0.1922(3) 1.1431(2)
H6 H -0.0938(4) -0.2455(3) 1.1472(2)
C10 C -0.0893(4) -0.0945(3) 1.11030(18)
H7 H -0.1756(4) -0.0828(3) 1.09237(18)
C11 C 0.2610(5) -0.3332(4) 1.2280(5)
H8 H 0.2700(5) -0.2957(4) 1.2625(5)
H9 H 0.3324(5) -0.3169(4) 1.1895(5)
C12 C 0.2705(5) -0.4470(3) 1.2617(4)
H10 H 0.1895(5) -0.4643(3) 1.2941(4)
H11 H 0.2765(5) -0.4845(3) 1.2257(4)
C13 C 0.4484(5) -0.5734(3) 1.3102(4)
C14 C 0.5830(5) -0.5960(4) 1.3263(5)
H12 H 0.6418(5) -0.5447(4) 1.3173(5)
C15 C 0.6304(4) -0.6942(3) 1.3558(4)
H13 H 0.7228(4) -0.7088(3) 1.3656(4)
C16 C 0.5468(4) -0.7736(3) 1.3719(2)
C17 C 0.4118(5) -0.7474(3) 1.3538(3)
H14 H 0.3521(5) -0.7981(3) 1.3632(3)
C18 C 0.3623(5) -0.6491(3) 1.3223(4)
H15 H 0.2718(5) -0.6342(3) 1.3095(4)
C19 C 0.6016(4) -0.8790(3) 1.4045(2)
C20 C 0.7216(5) -0.8970(4) 1.4382(2)
H16 H 0.7638(5) -0.8408(4) 1.4405(2)
C21 C 0.7200(4) -1.0693(3) 1.4665(2)
H17 H 0.7600(4) -1.1339(3) 1.4875(2)
C22 C 0.5983(4) -1.0596(3) 1.4346(2)
H18 H 0.5568(4) -1.1171(3) 1.4344(2)
C23 C 0.5395(4) -0.9643(3) 1.4034(2)
H19 H 0.4579(4) -0.9569(3) 1.3815(2)
C24 C 0.2582(5) 1.8454(3) 0.3824(2)
H20 H 0.2653(5) 1.9118(3) 0.3556(2)
C25 C 0.3619(5) 1.7743(3) 0.3770(4)
H21 H 0.4410(5) 1.7912(3) 0.3472(4)
C26 C 0.3525(6) 1.6781(4) 0.4147(4)
H22 H 0.4270(6) 1.6296(4) 0.4113(4)
C27 C 0.2363(7) 1.6483(3) 0.4585(3)
C28 C 0.1312(7) 1.7235(3) 0.4620(3)
H23 H 0.0494(7) 1.7069(3) 0.4895(3)
C29 C 0.2270(7) 1.5404(3) 0.5011(3)
C30 C 0.3039(5) 1.4611(3) 0.4806(3)
H24 H 0.3630(5) 1.4740(3) 0.4394(3)
C31 C 0.2958(6) 1.3613(3) 0.5201(4)
H25 H 0.3481(6) 1.3086(3) 0.5045(4)
C32 C 0.2124(7) 1.3398(3) 0.5813(3)
C33 C 0.1231(8) 1.2139(3) 0.6804(2)
H26 H 0.0281(8) 1.2408(3) 0.6721(2)
H27 H 0.1527(8) 1.2426(3) 0.7158(2)
C34 C 0.1340(6) 1.0990(3) 0.7054(2)
H28 H 0.0633(6) 1.0783(3) 0.7437(2)
H29 H 0.1196(6) 1.0702(3) 0.6670(2)
C35 C 0.2929(5) 0.9606(3) 0.7593(2)
C36 C 0.4200(5) 0.9292(3) 0.7884(3)
H30 H 0.4820(5) 0.9767(3) 0.7856(3)
C37 C 0.4540(5) 0.8289(3) 0.8210(3)
H31 H 0.5383(5) 0.8096(3) 0.8410(3)
C38 C 0.3642(4) 0.7546(3) 0.8249(2)
C39 C 0.2399(4) 0.7872(3) 0.7940(2)
H32 H 0.1792(4) 0.7395(3) 0.7952(2)
C40 C 0.2030(4) 0.8893(3) 0.7611(2)
H33 H 0.1193(4) 0.9090(3) 0.7407(2)
C41 C 0.4017(4) 0.6475(3) 0.8609(2)
C42 C 0.5396(4) 0.6061(3) 0.8669(3)
H34 H 0.6108(4) 0.6465(3) 0.8469(3)
C43 C 0.5706(5) 0.5062(4) 0.9022(4)
H35 H 0.6625(5) 0.4792(4) 0.9063(4)
C44 C 0.4654(4) 0.4466(3) 0.9311(3)
H36 H 0.4873(4) 0.3790(3) 0.9546(3)
C45 C 0.3028(3) 0.5808(2) 0.8925(2)
H37 H 0.2100(3) 0.6059(2) 0.8898(2)
C46 C 0.0536(3) 0.3853(2) 1.18327(17)
C47 C 0.1233(3) 0.2902(2) 1.18223(18)
H38 H 0.1683(3) 0.2791(2) 1.14021(18)
C48 C 0.1260(3) 0.2124(2) 1.24327(19)
H39 H 0.1704(3) 0.1487(2) 1.24169(19)
C49 C 0.0632(3) 0.2282(2) 1.30704(19)
C50 C -0.0002(3) 0.3242(3) 1.30860(19)
H40 H -0.0384(3) 0.3366(3) 1.35142(19)
C51 C -0.0075(3) 0.4019(2) 1.24744(18)
H41 H -0.0531(3) 0.4652(2) 1.24910(18)
C52 C 0.0585(4) 0.1422(3) 1.3729(2)
C53 C 0.3481(3) 0.2010(2) 0.98353(19)
C54 C 0.4797(4) 0.0616(3) 0.9330(2)
H42 H 0.4668(4) 0.1025(3) 0.8879(2)
C55 C 0.4505(3) 0.0353(3) 1.05861(19)
H43 H 0.4176(3) 0.0588(3) 1.09830(19)
C56 C 0.4291(3) 0.0974(2) 0.99170(18)
C57 C 0.0379(3) 0.4674(2) 1.11603(18)
C58 C 0.1632(8) -0.1321(6) 1.1807(5)
H44 H 0.2386(8) -0.1456(6) 1.2079(5)
Cd1 Cd 0.16377(2) 0.372767(17) 0.975373(13)
Cd2 Cd 0.03009(5) -0.03730(4) 1.47395(3)
N1 N -0.0114(3) 0.2656(2) 1.01509(15)
N2 N 0.7815(4) -0.9881(3) 1.4677(2)
N3 N 0.1437(5) 1.8238(3) 0.4255(2)
N4 N 0.3319(3) 0.4830(2) 0.92653(17)
O2 O 0.2677(4) 1.0628(2) 0.72922(16)
O3 O 0.2119(4) 1.2396(2) 0.61552(18)
O4 O 0.1262(3) -0.3106(2) 1.2026(2)
O5 O 0.0270(3) 0.1645(2) 1.43169(15)
O6 O 0.0784(3) 0.0528(2) 1.36593(19)
O7 O 0.1119(3) 0.45814(17) 1.06071(12)
O8 O 0.3046(2) 0.24582(17) 0.92447(13)
O9 O 0.3231(2) 0.23678(17) 1.03737(13)
O10 O 0.4019(8) -0.4731(6) 1.3015(4)
C59 C 0.1057(9) 1.5165(6) 0.5623(4)
H45 H 0.0402(9) 1.5682(6) 0.5711(4)
C60 C 0.0990(9) 1.4173(5) 0.6024(4)
H46 H 0.0310(9) 1.3991(5) 0.6392(4)
C53A C 0.6519(3) -0.2010(2) 1.01647(19)
C54A C 0.5203(4) -0.0616(3) 1.0670(2)
H42A H 0.5332(4) -0.1025(3) 1.1121(2)
C55A C 0.5495(3) -0.0353(3) 0.94139(19)
H43A H 0.5824(3) -0.0588(3) 0.90170(19)
C56A C 0.5709(3) -0.0974(2) 1.00830(18)
O8A O 0.6954(2) -0.24582(17) 1.07553(13)
O9A O 0.6769(2) -0.23678(17) 0.96263(13)
O1A O 0.0505(2) -0.54216(17) 1.88082(13)
C1A C 0.1376(4) -0.2896(3) 2.0081(2)
H1A H 0.1627(4) -0.3557(3) 2.0337(2)
C2A C 0.2314(4) -0.2183(3) 1.9949(4)
H2A H 0.3197(4) -0.2369(3) 2.0104(4)
C3A C 0.1941(4) -0.1192(3) 1.9587(4)
H3A H 0.2567(4) -0.0707(3) 1.9504(4)
C4A C 0.0632(4) -0.0925(3) 1.9348(2)
C5A C -0.0222(4) -0.1696(3) 1.94889(18)
H4A H -0.1097(4) -0.1538(3) 1.93211(18)
C6A C 0.0129(4) 0.0125(3) 1.8969(2)
C7A C -0.1114(7) 0.0342(6) 1.8540(5)
H5A H -0.1556(7) -0.0205(6) 1.8505(5)
C8A C -0.0873(4) 0.2109(3) 1.8299(3)
C9A C 0.0407(4) 0.1922(3) 1.8569(2)
H6A H 0.0938(4) 0.2455(3) 1.8528(2)
C10A C 0.0893(4) 0.0945(3) 1.88970(18)
H7A H 0.1756(4) 0.0828(3) 1.90763(18)
C11A C -0.2610(5) 0.3332(4) 1.7720(5)
H8A H -0.2700(5) 0.2957(4) 1.7375(5)
H9A H -0.3324(5) 0.3169(4) 1.8105(5)
C12A C -0.2705(5) 0.4470(3) 1.7383(4)
H10A H -0.1895(5) 0.4643(3) 1.7059(4)
H11A H -0.2765(5) 0.4845(3) 1.7743(4)
C13A C -0.4484(5) 0.5734(3) 1.6898(4)
C14A C -0.5830(5) 0.5960(4) 1.6737(5)
H12A H -0.6418(5) 0.5447(4) 1.6827(5)
C15A C -0.6304(4) 0.6942(3) 1.6442(4)
H13A H -0.7228(4) 0.7088(3) 1.6344(4)
C16A C -0.5468(4) 0.7736(3) 1.6281(2)
C17A C -0.4118(5) 0.7474(3) 1.6462(3)
H14A H -0.3521(5) 0.7981(3) 1.6368(3)
C18A C -0.3623(5) 0.6491(3) 1.6777(4)
H15A H -0.2718(5) 0.6342(3) 1.6905(4)
C19A C -0.6016(4) 0.8790(3) 1.5955(2)
C20A C -0.7216(5) 0.8970(4) 1.5618(2)
H16A H -0.7638(5) 0.8408(4) 1.5595(2)
C21A C -0.7200(4) 1.0693(3) 1.5335(2)
H17A H -0.7600(4) 1.1339(3) 1.5125(2)
C22A C -0.5983(4) 1.0596(3) 1.5654(2)
H18A H -0.5568(4) 1.1171(3) 1.5656(2)
C23A C -0.5395(4) 0.9643(3) 1.5966(2)
H19A H -0.4579(4) 0.9569(3) 1.6185(2)
C24A C -0.2582(5) -1.8454(3) 2.6176(2)
H20A H -0.2653(5) -1.9118(3) 2.6444(2)
C25A C -0.3619(5) -1.7743(3) 2.6230(4)
H21A H -0.4410(5) -1.7912(3) 2.6528(4)
C26A C -0.3525(6) -1.6781(4) 2.5853(4)
H22A H -0.4270(6) -1.6296(4) 2.5887(4)
C27A C -0.2363(7) -1.6483(3) 2.5415(3)
C28A C -0.1312(7) -1.7235(3) 2.5380(3)
H23A H -0.0494(7) -1.7069(3) 2.5105(3)
C29A C -0.2270(7) -1.5404(3) 2.4989(3)
C30A C -0.3039(5) -1.4611(3) 2.5194(3)
H24A H -0.3630(5) -1.4740(3) 2.5606(3)
C31A C -0.2958(6) -1.3613(3) 2.4799(4)
H25A H -0.3481(6) -1.3086(3) 2.4955(4)
C32A C -0.2124(7) -1.3398(3) 2.4187(3)
C33A C -0.1231(8) -1.2139(3) 2.3196(2)
H26A H -0.0281(8) -1.2408(3) 2.3279(2)
H27A H -0.1527(8) -1.2426(3) 2.2842(2)
C34A C -0.1340(6) -1.0990(3) 2.2946(2)
H28A H -0.0633(6) -1.0783(3) 2.2563(2)
H29A H -0.1196(6) -1.0702(3) 2.3330(2)
C35A C -0.2929(5) -0.9606(3) 2.2407(2)
C36A C -0.4200(5) -0.9292(3) 2.2116(3)
H30A H -0.4820(5) -0.9767(3) 2.2144(3)
C37A C -0.4540(5) -0.8289(3) 2.1790(3)
H31A H -0.5383(5) -0.8096(3) 2.1590(3)
C38A C -0.3642(4) -0.7546(3) 2.1751(2)
C39A C -0.2399(4) -0.7872(3) 2.2060(2)
H32A H -0.1792(4) -0.7395(3) 2.2048(2)
C40A C -0.2030(4) -0.8893(3) 2.2389(2)
H33A H -0.1193(4) -0.9090(3) 2.2593(2)
C41A C -0.4017(4) -0.6475(3) 2.1391(2)
C42A C -0.5396(4) -0.6061(3) 2.1331(3)
H34A H -0.6108(4) -0.6465(3) 2.1531(3)
C43A C -0.5706(5) -0.5062(4) 2.0978(4)
H35A H -0.6625(5) -0.4792(4) 2.0937(4)
C44A C -0.4654(4) -0.4466(3) 2.0689(3)
H36A H -0.4873(4) -0.3790(3) 2.0454(3)
C45A C -0.3028(3) -0.5808(2) 2.1075(2)
H37A H -0.2100(3) -0.6059(2) 2.1102(2)
C46A C -0.0536(3) -0.3853(2) 1.81673(17)
C47A C -0.1233(3) -0.2902(2) 1.81777(18)
H38A H -0.1683(3) -0.2791(2) 1.85979(18)
C48A C -0.1260(3) -0.2124(2) 1.75673(19)
H39A H -0.1704(3) -0.1487(2) 1.75831(19)
C49A C -0.0632(3) -0.2282(2) 1.69296(19)
C50A C 0.0002(3) -0.3242(3) 1.69140(19)
H40A H 0.0384(3) -0.3366(3) 1.64858(19)
C51A C 0.0075(3) -0.4019(2) 1.75256(18)
H41A H 0.0531(3) -0.4652(2) 1.75090(18)
C52A C -0.0585(4) -0.1422(3) 1.6271(2)
C57A C -0.0379(3) -0.4674(2) 1.88397(18)
C58A C -0.1632(8) 0.1321(6) 1.8193(5)
H44A H -0.2386(8) 0.1456(6) 1.7921(5)
Cd1A Cd -0.16377(2) -0.372767(17) 2.024627(13)
Cd2A Cd -0.03009(5) 0.03730(4) 1.52605(3)
N1A N 0.0114(3) -0.2656(2) 1.98491(15)
N2A N -0.7815(4) 0.9881(3) 1.5323(2)
N3A N -0.1437(5) -1.8238(3) 2.5745(2)
N4A N -0.3319(3) -0.4830(2) 2.07347(17)
O2A O -0.2677(4) -1.0628(2) 2.27078(16)
O3A O -0.2119(4) -1.2396(2) 2.38448(18)
O4A O -0.1262(3) 0.3106(2) 1.7974(2)
O5A O -0.0270(3) -0.1645(2) 1.56831(15)
O6A O -0.0784(3) -0.0528(2) 1.63407(19)
O7A O -0.1119(3) -0.45814(17) 1.93929(12)
O10A O -0.4019(8) 0.4731(6) 1.6985(4)
C59A C -0.1057(9) -1.5165(6) 2.4377(4)
H45A H -0.0402(9) -1.5682(6) 2.4289(4)
C60A C -0.0990(9) -1.4173(5) 2.3976(4)
H46A H -0.0310(9) -1.3991(5) 2.3608(4)
O1_2 O -0.0505(2) -0.45784(17) 2.11918(13)
O1A_2 O 0.0505(2) 0.45784(17) 0.88082(13)
Cd1_2 Cd 0.16377(2) -0.627233(17) 1.975373(13)
Cd1A_2 Cd -0.16377(2) 0.627233(17) 1.024627(13)
Cd1A_3 Cd 0.83623(2) -0.372767(17) 1.024627(13)
Cd2_2 Cd -0.96991(5) 0.96270(4) 1.47395(3)
Cd2_3 Cd 0.03009(5) 1.96270(4) 0.47395(3)
Cd2_4 Cd 1.03009(5) -1.03730(4) 1.47395(3)
Cd2A_2 Cd -1.03009(5) 1.03730(4) 1.52605(3)
Cd2A_3 Cd -0.03009(5) -1.96270(4) 2.52605(3)
Cd2A_4 Cd 0.96991(5) -0.96270(4) 1.52605(3)
N2_2 N -0.2185(4) 0.0119(3) 1.4677(2)
N2A_2 N 0.2185(4) -0.0119(3) 1.5323(2)
N3_2 N 0.1437(5) -0.1762(3) 1.4255(2)
N3A_2 N -0.1437(5) 0.1762(3) 1.5745(2)
O8A_2 O -0.3046(2) -0.24582(17) 2.07553(13)
O9A_2 O -0.3231(2) -0.23678(17) 1.96263(13)
H53? H 0.2274(5) -0.4619(3) 1.3097(4)
H54? H 0.2286(5) -0.4829(3) 1.2342(4)
C62? C 0.1183(8) -0.0338(8) 1.1063(6)
H55? H 0.1782(8) 0.0160(8) 1.0869(6)
C63? C 0.1696(11) -0.1314(8) 1.1389(7)
H56? H 0.2651(11) -0.1454(8) 1.1402(7)
O13? O 0.4160(8) -0.4711(6) 1.2599(4)
C64? C 0.1955(16) 1.4204(9) 0.6027(6)
C65? C 0.2011(16) 1.5192(8) 0.5604(7)
H57? H 0.1820(16) 1.5720(8) 0.5827(7)
H58? H 0.1777(16) 1.4130(9) 0.6512(6)
loop_
_geom_bond_atom_site_label_1
_geom_bond_atom_site_label_2
_geom_bond_site_symmetry_1
_geom_bond_site_symmetry_2
O1 C57 1_555 1_555
C1 H1 1_555 1_555
C2 C1 1_555 1_555
H2 C2 1_555 1_555
C3 C2 1_555 1_555
H3 C3 1_555 1_555
C4 C3 1_555 1_555
C5 C4 1_555 1_555
H4 C5 1_555 1_555
C6 C4 1_555 1_555
C7 C6 1_555 1_555
H5 C7 1_555 1_555
C8 C9 1_555 1_555
C9 H6 1_555 1_555
C10 C6 1_555 1_555
H7 C10 1_555 1_555
C11 H8 1_555 1_555
H9 C11 1_555 1_555
C12 C11 1_555 1_555
H10 C12 1_555 1_555
H11 C12 1_555 1_555
C13 C14 1_555 1_555
C14 H12 1_555 1_555
C15 C14 1_555 1_555
H13 C15 1_555 1_555
C16 C15 1_555 1_555
C17 C16 1_555 1_555
H14 C17 1_555 1_555
C18 C13 1_555 1_555
H15 C18 1_555 1_555
C19 C16 1_555 1_555
C20 C19 1_555 1_555
H16 C20 1_555 1_555
C21 H17 1_555 1_555
C22 C21 1_555 1_555
H18 C22 1_555 1_555
C23 C19 1_555 1_555
H19 C23 1_555 1_555
C24 H20 1_555 1_555
C25 C24 1_555 1_555
H21 C25 1_555 1_555
C26 C25 1_555 1_555
H22 C26 1_555 1_555
C27 C26 1_555 1_555
C28 C27 1_555 1_555
H23 C28 1_555 1_555
C29 C27 1_555 1_555
C30 C29 1_555 1_555
H24 C30 1_555 1_555
C31 C30 1_555 1_555
H25 C31 1_555 1_555
C32 C31 1_555 1_555
C33 H26 1_555 1_555
H27 C33 1_555 1_555
C34 C33 1_555 1_555
H28 C34 1_555 1_555
H29 C34 1_555 1_555
C35 C36 1_555 1_555
C36 H30 1_555 1_555
C37 C36 1_555 1_555
H31 C37 1_555 1_555
C38 C37 1_555 1_555
C39 C38 1_555 1_555
H32 C39 1_555 1_555
C40 C35 1_555 1_555
H33 C40 1_555 1_555
C41 C38 1_555 1_555
C42 C41 1_555 1_555
H34 C42 1_555 1_555
C43 C42 1_555 1_555
H35 C43 1_555 1_555
C44 C43 1_555 1_555
H36 C44 1_555 1_555
C45 C41 1_555 1_555
H37 C45 1_555 1_555
C46 C47 1_555 1_555
C47 H38 1_555 1_555
C48 C47 1_555 1_555
H39 C48 1_555 1_555
C49 C48 1_555 1_555
C50 C49 1_555 1_555
H40 C50 1_555 1_555
C51 C46 1_555 1_555
H41 C51 1_555 1_555
C52 C49 1_555 1_555
C53 C56 1_555 1_555
C54 H42 1_555 1_555
C55 H43 1_555 1_555
C56 C54 1_555 1_555
C57 C46 1_555 1_555
C58 C7 1_555 1_555
H44 C58 1_555 1_555
Cd1 N1 1_555 1_555
Cd2 O5 1_555 1_555
N1 C1 1_555 1_555
N2 C20 1_555 1_555
N3 C24 1_555 1_555
N4 C44 1_555 1_555
O2 C34 1_555 1_555
O3 C32 1_555 1_555
O4 C8 1_555 1_555
O5 C52 1_555 1_555
O6 C52 1_555 1_555
O7 C57 1_555 1_555
O8 C53 1_555 1_555
O9 C53 1_555 1_555
O10 C12 1_555 1_555
C59 C29 1_555 1_555
H45 C59 1_555 1_555
C60 C32 1_555 1_555
H46 C60 1_555 1_555
C61 H47 1_555 1_555
H48 C61 1_555 1_555
H49 C61 1_555 1_555
O11 C61 1_555 1_555
H50 O11 1_555 1_555
O12 H51 1_555 1_555
H52 O12 1_555 1_555
C53A C56A 1_555 1_555
C54A C55 1_555 1_555
H42A C54A 1_555 1_555
C55A C54 1_555 1_555
H43A C55A 1_555 1_555
C56A C54A 1_555 1_555
O8A C53A 1_555 1_555
O9A C53A 1_555 1_555
O1A C57A 1_555 1_555
C1A H1A 1_555 1_555
C2A C1A 1_555 1_555
H2A C2A 1_555 1_555
C3A C2A 1_555 1_555
H3A C3A 1_555 1_555
C4A C3A 1_555 1_555
C5A C4A 1_555 1_555
H4A C5A 1_555 1_555
C6A C4A 1_555 1_555
C7A C6A 1_555 1_555
H5A C7A 1_555 1_555
C8A C9A 1_555 1_555
C9A H6A 1_555 1_555
C10A C6A 1_555 1_555
H7A C10A 1_555 1_555
C11A H8A 1_555 1_555
H9A C11A 1_555 1_555
C12A C11A 1_555 1_555
H10A C12A 1_555 1_555
H11A C12A 1_555 1_555
C13A C14A 1_555 1_555
C14A H12A 1_555 1_555
C15A C14A 1_555 1_555
H13A C15A 1_555 1_555
C16A C15A 1_555 1_555
C17A C16A 1_555 1_555
H14A C17A 1_555 1_555
C18A C13A 1_555 1_555
H15A C18A 1_555 1_555
C19A C16A 1_555 1_555
C20A C19A 1_555 1_555
H16A C20A 1_555 1_555
C21A H17A 1_555 1_555
C22A C21A 1_555 1_555
H18A C22A 1_555 1_555
C23A C19A 1_555 1_555
H19A C23A 1_555 1_555
C24A H20A 1_555 1_555
C25A C24A 1_555 1_555
H21A C25A 1_555 1_555
C26A C25A 1_555 1_555
H22A C26A 1_555 1_555
C27A C26A 1_555 1_555
C28A C27A 1_555 1_555
H23A C28A 1_555 1_555
C29A C27A 1_555 1_555
C30A C29A 1_555 1_555
H24A C30A 1_555 1_555
C31A C30A 1_555 1_555
H25A C31A 1_555 1_555
C32A C31A 1_555 1_555
C33A H26A 1_555 1_555
H27A C33A 1_555 1_555
C34A C33A 1_555 1_555
H28A C34A 1_555 1_555
H29A C34A 1_555 1_555
C35A C36A 1_555 1_555
C36A H30A 1_555 1_555
C37A C36A 1_555 1_555
H31A C37A 1_555 1_555
C38A C37A 1_555 1_555
C39A C38A 1_555 1_555
H32A C39A 1_555 1_555
C40A C35A 1_555 1_555
H33A C40A 1_555 1_555
C41A C38A 1_555 1_555
C42A C41A 1_555 1_555
H34A C42A 1_555 1_555
C43A C42A 1_555 1_555
H35A C43A 1_555 1_555
C44A C43A 1_555 1_555
H36A C44A 1_555 1_555
C45A C41A 1_555 1_555
H37A C45A 1_555 1_555
C46A C47A 1_555 1_555
C47A H38A 1_555 1_555
C48A C47A 1_555 1_555
H39A C48A 1_555 1_555
C49A C48A 1_555 1_555
C50A C49A 1_555 1_555
H40A C50A 1_555 1_555
C51A C46A 1_555 1_555
H41A C51A 1_555 1_555
C52A C49A 1_555 1_555
C57A C46A 1_555 1_555
C58A C7A 1_555 1_555
H44A C58A 1_555 1_555
Cd1A N1A 1_555 1_555
Cd2A O5 1_555 1_555
N1A C1A 1_555 1_555
N2A C20A 1_555 1_555
N3A C24A 1_555 1_555
N4A C44A 1_555 1_555
O2A C34A 1_555 1_555
O3A C32A 1_555 1_555
O4A C8A 1_555 1_555
O5A Cd2 1_555 1_555
O6A C52A 1_555 1_555
O7A C57A 1_555 1_555
O10A C12A 1_555 1_555
C59A C29A 1_555 1_555
H45A C59A 1_555 1_555
C60A C32A 1_555 1_555
H46A C60A 1_555 1_555
O1_2 Cd1A 1_555 1_555
O1A_2 Cd1 1_555 1_555
Cd1_2 O1A 1_555 1_555
Cd1A_2 O1 1_555 1_555
Cd1A_3 O8A 1_555 1_555
Cd2_2 N2A 1_555 1_555
Cd2_3 N3 1_555 1_555
Cd2_4 N2 1_555 1_555
Cd2A_2 N2A 1_555 1_555
Cd2A_3 N3A 1_555 1_555
Cd2A_4 N2 1_555 1_555
N2_2 Cd2 1_555 1_555
N2A_2 Cd2 1_555 1_555
N3_2 Cd2 1_555 1_555
N3A_2 Cd2A 1_555 1_555
O8A_2 Cd1A 1_555 1_555
O9A_2 Cd1A 1_555 1_555
C5 N1 1_555 1_555
C8 C58 1_555 1_555
C9 C10 1_555 1_555
C11 O4 1_555 1_555
C13 O10 1_555 1_555
C17 C18 1_555 1_555
C21 N2 1_555 1_555
C22 C23 1_555 1_555
C28 N3 1_555 1_555
C33 O3 1_555 1_555
C35 O2 1_555 1_555
C39 C40 1_555 1_555
C45 N4 1_555 1_555
C50 C51 1_555 1_555
C55 C56 1_555 1_555
Cd1 N4 1_555 1_555
Cd1 O7 1_555 1_555
Cd1 O8 1_555 1_555
Cd1 O9 1_555 1_555
Cd2 O6 1_555 1_555
C59 C60 1_555 1_555
C55A C56A 1_555 1_555
O9A Cd1A_3 1_555 1_555
C5A N1A 1_555 1_555
C8A C58A 1_555 1_555
C9A C10A 1_555 1_555
C11A O4A 1_555 1_555
C13A O10A 1_555 1_555
C17A C18A 1_555 1_555
C21A N2A 1_555 1_555
C22A C23A 1_555 1_555
C28A N3A 1_555 1_555
C33A O3A 1_555 1_555
C35A O2A 1_555 1_555
C39A C40A 1_555 1_555
C45A N4A 1_555 1_555
C50A C51A 1_555 1_555
C52A O5A 1_555 1_555
Cd1A N4A 1_555 1_555
Cd1A O7A 1_555 1_555
Cd2A O5A 1_555 1_555
Cd2A O6A 1_555 1_555
Cd2A N2_2 1_555 1_555
Cd2A N2A_2 1_555 1_555
C59A C60A 1_555 1_555

#END
