
#######################################################################
#
#                 Cambridge Crystallographic Data Centre
#                                CCDC 
#
#######################################################################
#
# If this CIF has been generated from an entry in the Cambridge 
# Structural Database, then it will include bibliographic, chemical, 
# crystal, experimental, refinement or atomic coordinate data resulting 
# from the CCDC's data processing and validation procedures.
#
#######################################################################

data_TUBMEK
_symmetry_cell_setting           monoclinic
_symmetry_space_group_name_H-M   'P 21/c'
_symmetry_Int_Tables_number      14
_space_group_name_Hall           '-P 2ybc'
loop_
_symmetry_equiv_pos_site_id
_symmetry_equiv_pos_as_xyz
1 x,y,z
2 -x,1/2+y,1/2-z
3 -x,-y,-z
4 x,1/2-y,1/2+z
_cell_length_a                   11.4430(6)
_cell_length_b                   19.5373(11)
_cell_length_c                   15.0262(8)
_cell_angle_alpha                90
_cell_angle_beta                 103.187(2)
_cell_angle_gamma                90
_cell_volume                     3270.75
loop_
_atom_site_label
_atom_site_type_symbol
_atom_site_fract_x
_atom_site_fract_y
_atom_site_fract_z
Cd1 Cd 1.272471(9) 0.581047(5) 0.574469(8)
Cd2 Cd 0.743095(9) 0.576377(5) 0.979723(8)
Cl1 Cl 1.48344(3) 0.55969(2) 0.64049(3)
Cl2 Cl 0.90932(4) 0.65055(3) 1.06117(3)
N1 N 1.23783(12) 0.58299(6) 0.41321(10)
N2 N 1.06922(11) 0.58626(6) 0.51156(9)
N3 N 0.98871(11) 0.58217(7) 0.56675(9)
N4 N 0.84123(12) 0.56634(7) 0.85891(10)
N5 N 0.58836(12) 0.65631(7) 0.90539(11)
N6 N 0.57089(11) 0.51894(6) 0.91034(9)
N7 N 0.56733(11) 0.44849(6) 0.91003(9)
N8 N 0.70752(12) 0.20394(7) 0.93450(10)
O1 O 1.16135(10) 0.57979(6) 0.68495(8)
O2 O 0.76239(10) 0.45550(6) 0.99896(9)
O3 O 1.22864(10) 0.46065(6) 0.54590(9)
H1 H 1.1664 0.4496 0.5071
O4 O 0.66432(11) 0.58786(7) 1.11008(9)
H2 H 0.5897 0.5839 1.1032
C1 C 1.12186(14) 0.59138(7) 0.36893(11)
C2 C 1.08870(15) 0.59872(9) 0.27450(11)
H3 H 1.0070 0.6054 0.2446
C3 C 1.17693(16) 0.59609(9) 0.22450(12)
H4 H 1.1563 0.6014 0.1600
C4 C 1.29485(16) 0.58569(9) 0.26980(12)
H5 H 1.3565 0.5828 0.2370
C5 C 1.32122(15) 0.57957(8) 0.36422(12)
H6 H 1.4024 0.5726 0.3954
C6 C 1.03154(14) 0.59055(8) 0.42466(11)
H7 H 0.9482 0.5931 0.3972
C7 C 1.04871(13) 0.57890(7) 0.65440(11)
C8 C 0.97300(14) 0.57327(8) 0.72323(11)
C9 C 0.84883(14) 0.58152(8) 0.70166(11)
H8 H 0.8070 0.5898 0.6404
C10 C 0.78689(14) 0.57747(8) 0.77098(12)
H9 H 0.7021 0.5828 0.7555
C11 C 0.96106(14) 0.55744(8) 0.87914(11)
H10 H 1.0005 0.5487 0.9409
C12 C 1.02955(14) 0.56039(8) 0.81420(11)
H11 H 1.1139 0.5537 0.8314
C13 C 0.59331(16) 0.72446(9) 0.90541(16)
H12 H 0.6673 0.7460 0.9325
C14 C 0.49538(17) 0.76547(9) 0.86774(18)
H13 H 0.5025 0.8139 0.8695
C15 C 0.38749(16) 0.73480(9) 0.82769(15)
H14 H 0.3193 0.7618 0.8014
C16 C 0.38041(14) 0.66407(8) 0.82648(12)
H15 H 0.3075 0.6416 0.7991
C17 C 0.48249(13) 0.62667(8) 0.86622(11)
C18 C 0.47814(14) 0.55182(8) 0.86712(11)
H16 H 0.4081 0.5281 0.8363
C19 C 0.67200(13) 0.42240(7) 0.95671(11)
C20 C 0.68031(13) 0.34575(7) 0.95189(11)
C21 C 0.58240(15) 0.30394(8) 0.91543(13)
H17 H 0.5045 0.3231 0.8955
C22 C 0.60007(15) 0.23418(8) 0.90858(13)
H18 H 0.5323 0.2063 0.8842
C23 C 0.80121(15) 0.24423(8) 0.97059(14)
H19 H 0.8781 0.2237 0.9899
C24 C 0.79149(14) 0.31445(8) 0.98108(13)
H20 H 0.8602 0.3408 1.0080
C25 C 1.31531(16) 0.40781(9) 0.55316(15)
H21 H 1.2767 0.3634 0.5562
H22 H 1.3785 0.4146 0.6087
H23 H 1.3507 0.4089 0.4996
C26 C 0.71821(18) 0.59949(13) 1.20432(14)
H24 H 0.6591 0.6201 1.2343
H25 H 0.7867 0.6305 1.2095
H26 H 0.7458 0.5559 1.2339
Cd1A Cd 0.727529(9) 0.081047(5) 0.925531(8)
N8A N 1.29248(12) 0.70394(7) 0.56550(10)
O5 O 0.89489(17) 0.72633(9) 0.41722(17)
H27 H 0.8963 0.7577 0.4557
C27 C 0.9097(4) 0.75460(14) 0.3350(2)
H28 H 0.8429 0.7858 0.3107
H29 H 0.9110 0.7179 0.2908
H30 H 0.9855 0.7800 0.3459
loop_
_geom_bond_atom_site_label_1
_geom_bond_atom_site_label_2
_geom_bond_site_symmetry_1
_geom_bond_site_symmetry_2
Cd1 Cl1 1_555 1_555
Cd2 Cl2 1_555 1_555
N1 Cd1 1_555 1_555
N2 Cd1 1_555 1_555
N3 N2 1_555 1_555
N4 Cd2 1_555 1_555
N5 Cd2 1_555 1_555
N6 Cd2 1_555 1_555
N7 N6 1_555 1_555
N8 C22 1_555 1_555
O1 Cd1 1_555 1_555
O2 Cd2 1_555 1_555
O3 Cd1 1_555 1_555
H1 O3 1_555 1_555
O4 Cd2 1_555 1_555
H2 O4 1_555 1_555
C1 N1 1_555 1_555
C2 C1 1_555 1_555
H3 C2 1_555 1_555
C3 C2 1_555 1_555
H4 C3 1_555 1_555
C4 C3 1_555 1_555
H5 C4 1_555 1_555
C5 N1 1_555 1_555
H6 C5 1_555 1_555
C6 N2 1_555 1_555
H7 C6 1_555 1_555
C7 N3 1_555 1_555
C8 C7 1_555 1_555
C9 C8 1_555 1_555
H8 C9 1_555 1_555
C10 N4 1_555 1_555
H9 C10 1_555 1_555
C11 N4 1_555 1_555
H10 C11 1_555 1_555
C12 C8 1_555 1_555
H11 C12 1_555 1_555
C13 N5 1_555 1_555
H12 C13 1_555 1_555
C14 C13 1_555 1_555
H13 C14 1_555 1_555
C15 C14 1_555 1_555
H14 C15 1_555 1_555
C16 C15 1_555 1_555
H15 C16 1_555 1_555
C17 N5 1_555 1_555
C18 N6 1_555 1_555
H16 C18 1_555 1_555
C19 N7 1_555 1_555
C20 C19 1_555 1_555
C21 C20 1_555 1_555
H17 C21 1_555 1_555
C22 C21 1_555 1_555
H18 C22 1_555 1_555
C23 N8 1_555 1_555
H19 C23 1_555 1_555
C24 C20 1_555 1_555
H20 C24 1_555 1_555
C25 O3 1_555 1_555
H21 C25 1_555 1_555
H22 C25 1_555 1_555
H23 C25 1_555 1_555
C26 O4 1_555 1_555
H24 C26 1_555 1_555
H25 C26 1_555 1_555
H26 C26 1_555 1_555
O5 H27 1_555 1_555
C27 O5 1_555 1_555
H28 C27 1_555 1_555
H29 C27 1_555 1_555
H30 C27 1_555 1_555
Cd1A N8 1_555 1_555
N8A Cd1 1_555 1_555
O1 C7 1_555 1_555
O2 C19 1_555 1_555
C1 C6 1_555 1_555
C4 C5 1_555 1_555
C9 C10 1_555 1_555
C11 C12 1_555 1_555
C16 C17 1_555 1_555
C17 C18 1_555 1_555
C23 C24 1_555 1_555

#END
