
#######################################################################
#
#                 Cambridge Crystallographic Data Centre
#                                CCDC 
#
#######################################################################
#
# If this CIF has been generated from an entry in the Cambridge 
# Structural Database, then it will include bibliographic, chemical, 
# crystal, experimental, refinement or atomic coordinate data resulting 
# from the CCDC's data processing and validation procedures.
#
#######################################################################

data_TUBNEL
_symmetry_cell_setting           monoclinic
_symmetry_space_group_name_H-M   'P 21/n'
_symmetry_Int_Tables_number      14
_space_group_name_Hall           '-P 2yn'
loop_
_symmetry_equiv_pos_site_id
_symmetry_equiv_pos_as_xyz
1 x,y,z
2 1/2-x,1/2+y,1/2-z
3 -x,-y,-z
4 1/2+x,1/2-y,1/2+z
_cell_length_a                   6.8874(4)
_cell_length_b                   15.1815(7)
_cell_length_c                   13.9172(7)
_cell_angle_alpha                90
_cell_angle_beta                 97.223(5)
_cell_angle_gamma                90
_cell_volume                     1443.65
loop_
_atom_site_label
_atom_site_type_symbol
_atom_site_fract_x
_atom_site_fract_y
_atom_site_fract_z
Cd1 Cd 0.38523(5) 0.04322(2) 0.71678(2)
O1 O 0.2686(5) 0.1599(2) 0.6086(2)
O2 O 0.7132(5) 0.0333(2) 0.6863(3)
H1 H 0.7876 0.0284 0.7395
H2 H 0.7268 -0.0108 0.6513
O3 O 0.3114(6) -0.0300(2) 0.8828(3)
O4 O 0.0839(5) 0.0120(3) 0.7669(3)
N1 N 0.4287(6) -0.1183(3) 0.6995(3)
N2 N -0.0037(6) 0.3426(3) 0.3235(3)
N3 N 0.2218(6) 0.0558(3) 0.4853(3)
N4 N 0.2942(6) -0.0030(3) 0.5573(3)
C1 C 0.0612(7) 0.3589(3) 0.4171(3)
H3 H 0.0586 0.4179 0.4397
C2 C 0.2163(7) 0.1368(3) 0.5223(4)
C3 C 0.1317(7) 0.2937(3) 0.4819(4)
H4 H 0.1768 0.3082 0.5473
C4 C 0.1359(7) 0.2065(3) 0.4503(4)
C5 C 0.3030(7) -0.0846(3) 0.5345(4)
H5 H 0.2594 -0.1033 0.4703
C6 C -0.0005(7) 0.2585(3) 0.2936(4)
H6 H -0.0464 0.2458 0.2278
C7 C 0.4022(7) -0.2357(3) 0.5831(4)
H7 H 0.3672 -0.2552 0.5183
C8 C -0.0242(9) -0.0679(4) 0.8953(5)
H8 H -0.0714 -0.1209 0.8594
H9 H -0.1322 -0.0259 0.8957
H10 H 0.0258 -0.0840 0.9620
C9 C 0.0665(7) 0.1897(3) 0.3539(3)
H11 H 0.0651 0.1313 0.3295
C10 C 0.4997(7) -0.1757(3) 0.7663(4)
H12 H 0.5366 -0.1549 0.8304
C11 C 0.3797(7) -0.1482(3) 0.6072(4)
C12 C 0.1361(8) -0.0266(3) 0.8476(4)
C13 C 0.5236(8) -0.2655(3) 0.7477(4)
H13 H 0.5711 -0.3049 0.7982
C14 C 0.4766(7) -0.2946(3) 0.6547(4)
H14 H 0.4948 -0.3547 0.6392
Cd1C Cd -0.11477(5) 0.45678(2) 0.21678(2)
N2C N 0.4963(6) 0.1574(3) 0.8235(3)
loop_
_geom_bond_atom_site_label_1
_geom_bond_atom_site_label_2
_geom_bond_site_symmetry_1
_geom_bond_site_symmetry_2
Cd1 O1 1_555 1_555
O1 C2 1_555 1_555
O2 Cd1 1_555 1_555
H1 O2 1_555 1_555
H2 O2 1_555 1_555
O3 Cd1 1_555 1_555
O4 Cd1 1_555 1_555
N1 Cd1 1_555 1_555
N2 C1 1_555 1_555
N3 N4 1_555 1_555
N4 Cd1 1_555 1_555
C1 H3 1_555 1_555
C2 N3 1_555 1_555
C3 C1 1_555 1_555
H4 C3 1_555 1_555
C4 C2 1_555 1_555
C5 N4 1_555 1_555
H5 C5 1_555 1_555
C6 N2 1_555 1_555
H6 C6 1_555 1_555
C7 H7 1_555 1_555
C8 H8 1_555 1_555
H9 C8 1_555 1_555
H10 C8 1_555 1_555
C9 C4 1_555 1_555
H11 C9 1_555 1_555
C10 N1 1_555 1_555
H12 C10 1_555 1_555
C11 N1 1_555 1_555
C12 O3 1_555 1_555
C13 C10 1_555 1_555
H13 C13 1_555 1_555
C14 C7 1_555 1_555
H14 C14 1_555 1_555
Cd1C N2 1_555 1_555
N2C Cd1 1_555 1_555
O4 C12 1_555 1_555
C3 C4 1_555 1_555
C5 C11 1_555 1_555
C6 C9 1_555 1_555
C7 C11 1_555 1_555
C8 C12 1_555 1_555
C13 C14 1_555 1_555

#END
