
#######################################################################
#
#                 Cambridge Crystallographic Data Centre
#                                CCDC 
#
#######################################################################
#
# If this CIF has been generated from an entry in the Cambridge 
# Structural Database, then it will include bibliographic, chemical, 
# crystal, experimental, refinement or atomic coordinate data resulting 
# from the CCDC's data processing and validation procedures.
#
#######################################################################

data_TUBNAH
_symmetry_cell_setting           monoclinic
_symmetry_space_group_name_H-M   'P 21/n'
_symmetry_Int_Tables_number      14
_space_group_name_Hall           '-P 2yn'
loop_
_symmetry_equiv_pos_site_id
_symmetry_equiv_pos_as_xyz
1 x,y,z
2 1/2-x,1/2+y,1/2-z
3 -x,-y,-z
4 1/2+x,1/2-y,1/2+z
_cell_length_a                   7.8857(2)
_cell_length_b                   15.3690(4)
_cell_length_c                   12.0465(3)
_cell_angle_alpha                90
_cell_angle_beta                 92.951(2)
_cell_angle_gamma                90
_cell_volume                     1458.04
loop_
_atom_site_label
_atom_site_type_symbol
_atom_site_fract_x
_atom_site_fract_y
_atom_site_fract_z
O1 O 0.7831(2) 0.45889(12) 0.34895(16)
H1 H 0.763(4) 0.483(2) 0.410(3)
H2 H 0.849(7) 0.474(3) 0.307(5)
C1 C 0.4097(3) 0.63597(15) 0.30860(18)
C2 C 0.3847(3) 0.72517(16) 0.30812(19)
H3 H 0.3099 0.7506 0.3558
C3 C 0.4729(3) 0.77618(17) 0.23535(18)
H4 H 0.4579 0.8362 0.2335
C4 C 0.5833(3) 0.73637(16) 0.1658(2)
H5 H 0.6451 0.7691 0.1170
C5 C 0.5999(3) 0.64621(17) 0.1704(2)
H6 H 0.6736 0.6195 0.1231
C6 C 0.3237(3) 0.57987(15) 0.38842(17)
H7 H 0.2483 0.6033 0.4372
C7 C 0.3321(3) 0.36168(14) 0.44306(17)
C8 C 0.2589(3) 0.29264(15) 0.51453(17)
C9 C 0.1432(3) 0.31042(14) 0.59527(17)
H8 H 0.1059 0.3670 0.6065
C10 C 0.0848(3) 0.24277(15) 0.65832(18)
H9 H 0.0085 0.2552 0.7125
N1 N 0.1334(2) 0.15968(13) 0.64481(15)
C11 C 0.2436(3) 0.14285(15) 0.56631(18)
H10 H 0.2776 0.0856 0.5557
C12 C 0.3088(3) 0.20726(15) 0.50051(18)
H11 H 0.3855 0.1932 0.4472
C13 C 0.1152(3) 0.49625(17) 0.1563(2)
N2 N 0.5153(2) 0.59642(14) 0.23937(15)
N3 N 0.3561(2) 0.49867(12) 0.38825(14)
N4 N 0.2805(3) 0.44341(11) 0.46090(15)
N5 N 0.0083(3) 0.53851(15) 0.19446(19)
S1 S 0.25889(9) 0.43852(4) 0.09588(5)
Cd1 Cd 0.51827(2) 0.443844(10) 0.252279(11)
O2 O 0.4346(2) 0.33658(10) 0.37254(13)
N1C N 0.6334(2) 0.34032(13) 0.14481(15)
Cd1C Cd 0.01827(2) 0.056156(10) 0.752279(11)
loop_
_geom_bond_atom_site_label_1
_geom_bond_atom_site_label_2
_geom_bond_site_symmetry_1
_geom_bond_site_symmetry_2
O1 H1 1_555 1_555
H2 O1 1_555 1_555
C1 C2 1_555 1_555
C2 H3 1_555 1_555
C3 C2 1_555 1_555
H4 C3 1_555 1_555
C4 C3 1_555 1_555
H5 C4 1_555 1_555
C5 C4 1_555 1_555
H6 C5 1_555 1_555
C6 C1 1_555 1_555
H7 C6 1_555 1_555
C7 C8 1_555 1_555
C8 C9 1_555 1_555
C9 H8 1_555 1_555
C10 C9 1_555 1_555
H9 C10 1_555 1_555
N1 C10 1_555 1_555
C11 N1 1_555 1_555
H10 C11 1_555 1_555
C12 C8 1_555 1_555
H11 C12 1_555 1_555
C13 N5 1_555 1_555
N2 C1 1_555 1_555
N3 C6 1_555 1_555
N4 C7 1_555 1_555
S1 C13 1_555 1_555
Cd1 O1 1_555 1_555
O2 C7 1_555 1_555
N1C Cd1 1_555 1_555
Cd1C N1 1_555 1_555
C5 N2 1_555 1_555
C11 C12 1_555 1_555
N2 Cd1 1_555 1_555
N3 N4 1_555 1_555
N3 Cd1 1_555 1_555
S1 Cd1 1_555 1_555
Cd1 O2 1_555 1_555

#END
