
#######################################################################
#
#                 Cambridge Crystallographic Data Centre
#                                CCDC 
#
#######################################################################
#
# If this CIF has been generated from an entry in the Cambridge 
# Structural Database, then it will include bibliographic, chemical, 
# crystal, experimental, refinement or atomic coordinate data resulting 
# from the CCDC's data processing and validation procedures.
#
#######################################################################

data_TUBRAL
_symmetry_cell_setting           triclinic
_symmetry_space_group_name_H-M   'P -1'
_symmetry_Int_Tables_number      2
_space_group_name_Hall           '-P 1'
loop_
_symmetry_equiv_pos_site_id
_symmetry_equiv_pos_as_xyz
1 x,y,z
2 -x,-y,-z
_cell_length_a                   8.7807(3)
_cell_length_b                   9.3678(2)
_cell_length_c                   10.1498(4)
_cell_angle_alpha                104.355(2)
_cell_angle_beta                 103.133(2)
_cell_angle_gamma                113.166(2)
_cell_volume                     692.409
loop_
_atom_site_label
_atom_site_type_symbol
_atom_site_fract_x
_atom_site_fract_y
_atom_site_fract_z
Ni1 Ni 0.5000 0.0000 0.0000
Ni2 Ni -0.5000 -0.5000 -0.5000
N1 N 0.3656(3) 0.0185(2) 0.1613(2)
N2 N 0.3567(3) 0.2251(2) 0.3622(2)
N3 N 0.3000(3) -0.0526(3) 0.3655(2)
N4 N 0.0817(3) -0.0269(3) 0.1906(2)
N5 N 0.2748(3) -0.2212(3) -0.1403(2)
N6 N 0.0196(3) -0.4910(3) -0.3128(3)
N7 N -0.2773(3) -0.5240(3) -0.4227(2)
N8 N 0.6015(3) -0.1390(3) 0.0802(2)
N9 N 0.6785(3) -0.3417(3) 0.1519(3)
N10 N 0.5804(3) -0.4429(3) 0.3349(2)
C1 C 0.4419(3) 0.1982(3) 0.2541(3)
H1 H 0.4277 0.2605 0.1906
H2 H 0.5709 0.2444 0.3067
C2 C 0.3777(3) 0.1252(3) 0.4536(3)
H3 H 0.5058 0.1698 0.5083
H4 H 0.3198 0.1385 0.5255
C3 C 0.1094(3) -0.1176(3) 0.2857(3)
H5 H 0.0496 -0.1058 0.3564
H6 H 0.0551 -0.2383 0.2255
C4 C 0.1696(3) -0.0482(3) 0.0861(3)
H7 H 0.1511 0.0109 0.0206
H8 H 0.1147 -0.1688 0.0253
C5 C 0.3862(3) -0.0727(3) 0.2599(3)
H9 H 0.3338 -0.1934 0.2004
H10 H 0.5144 -0.0299 0.3129
C6 C 0.1621(3) 0.1517(3) 0.2796(3)
H11 H 0.1019 0.1665 0.3494
H12 H 0.1441 0.2125 0.2155
C7 C 0.1516(3) -0.3443(3) -0.2210(3)
C8 C -0.1363(3) -0.5035(3) -0.3694(3)
C9 C 0.6342(3) -0.2337(3) 0.1167(3)
C10 C 0.6238(3) -0.3936(3) 0.2490(3)
N5A N -1.2748(3) -0.7788(3) -0.8597(2)
N6A N -1.0196(3) -0.5090(3) -0.6872(3)
N7A N -0.7227(3) -0.4760(3) -0.5773(2)
C7A C -1.1516(3) -0.6557(3) -0.7790(3)
C8A C -0.8637(3) -0.4965(3) -0.6306(3)
N1A N 0.6344(3) -0.0185(2) -0.1613(2)
N2A N 0.6433(3) -0.2251(2) -0.3622(2)
N3A N 0.7000(3) 0.0526(3) -0.3655(2)
N4A N 0.9183(3) 0.0269(3) -0.1906(2)
C1A C 0.5581(3) -0.1982(3) -0.2541(3)
H1A H 0.5723 -0.2605 -0.1906
H2A H 0.4291 -0.2444 -0.3067
C2A C 0.6223(3) -0.1252(3) -0.4536(3)
H3A H 0.4942 -0.1698 -0.5083
H4A H 0.6802 -0.1385 -0.5255
C3A C 0.8906(3) 0.1176(3) -0.2857(3)
H5A H 0.9504 0.1058 -0.3564
H6A H 0.9449 0.2383 -0.2255
C4A C 0.8304(3) 0.0482(3) -0.0861(3)
H7A H 0.8489 -0.0109 -0.0206
H8A H 0.8853 0.1688 -0.0253
C5A C 0.6138(3) 0.0727(3) -0.2599(3)
H9A H 0.6662 0.1934 -0.2004
H10A H 0.4856 0.0299 -0.3129
C6A C 0.8379(3) -0.1517(3) -0.2796(3)
H11A H 0.8981 -0.1665 -0.3494
H12A H 0.8559 -0.2125 -0.2155
N8A N 0.3985(3) 0.1390(3) -0.0802(2)
N9A N 0.3215(3) 0.3417(3) -0.1519(3)
N10A N 0.4196(3) 0.4429(3) -0.3349(2)
C9A C 0.3658(3) 0.2337(3) -0.1167(3)
C10A C 0.3762(3) 0.3936(3) -0.2490(3)
Ni1_2 Ni -1.5000 -1.0000 -1.0000
Ni2_2 Ni 0.5000 -0.5000 -0.5000
Ni2_3 Ni 0.5000 -0.5000 0.5000
Ni2_4 Ni 0.5000 0.5000 -0.5000
Ni2_5 Ni 0.5000 0.5000 0.5000
N2_2 N -0.6433(3) -0.7749(2) -0.6378(2)
N2A_2 N -0.3567(3) -0.2251(2) -0.3622(2)
N5A_2 N 0.7252(3) 0.2212(3) 0.1403(2)
N10_2 N -0.4196(3) -0.4429(3) -0.6651(2)
N10A_2 N -0.5804(3) -0.5571(3) -0.3349(2)
O1 O 0.8359(6) -0.4765(5) -0.0604(4)
H13 H 0.7752 -0.4501 0.0199
loop_
_geom_bond_atom_site_label_1
_geom_bond_atom_site_label_2
_geom_bond_site_symmetry_1
_geom_bond_site_symmetry_2
Ni1 N1 1_555 1_555
Ni2 N7 1_555 1_555
N1 C1 1_555 1_555
N2 C1 1_555 1_555
N3 C2 1_555 1_555
N4 C3 1_555 1_555
N5 Ni1 1_555 1_555
N6 C7 1_555 1_555
N7 C8 1_555 1_555
N8 Ni1 1_555 1_555
N9 C9 1_555 1_555
N10 C10 1_555 1_555
C1 H1 1_555 1_555
H2 C1 1_555 1_555
C2 N2 1_555 1_555
H3 C2 1_555 1_555
H4 C2 1_555 1_555
C3 N3 1_555 1_555
H5 C3 1_555 1_555
H6 C3 1_555 1_555
C4 N1 1_555 1_555
H7 C4 1_555 1_555
H8 C4 1_555 1_555
C5 N1 1_555 1_555
H9 C5 1_555 1_555
H10 C5 1_555 1_555
C6 N2 1_555 1_555
H11 C6 1_555 1_555
H12 C6 1_555 1_555
C7 N5 1_555 1_555
C8 N6 1_555 1_555
C9 N8 1_555 1_555
C10 N9 1_555 1_555
O1 H13 1_555 1_555
N5A C7A 1_555 1_555
N6A C7A 1_555 1_555
N7A Ni2 1_555 1_555
C8A N6A 1_555 1_555
N1A Ni1 1_555 1_555
N2A C1A 1_555 1_555
N3A C2A 1_555 1_555
N4A C3A 1_555 1_555
C1A N1A 1_555 1_555
H1A C1A 1_555 1_555
H2A C1A 1_555 1_555
C2A N2A 1_555 1_555
H3A C2A 1_555 1_555
H4A C2A 1_555 1_555
C3A N3A 1_555 1_555
H5A C3A 1_555 1_555
H6A C3A 1_555 1_555
C4A N1A 1_555 1_555
H7A C4A 1_555 1_555
H8A C4A 1_555 1_555
C5A N1A 1_555 1_555
H9A C5A 1_555 1_555
H10A C5A 1_555 1_555
C6A N2A 1_555 1_555
H11A C6A 1_555 1_555
H12A C6A 1_555 1_555
N8A Ni1 1_555 1_555
N9A C9A 1_555 1_555
N10A C10A 1_555 1_555
C9A N8A 1_555 1_555
C10A N9A 1_555 1_555
Ni1_2 N5A 1_555 1_555
Ni2_2 N2A 1_555 1_555
Ni2_3 N10 1_555 1_555
Ni2_4 N10A 1_555 1_555
Ni2_5 N2 1_555 1_555
N2_2 Ni2 1_555 1_555
N2A_2 Ni2 1_555 1_555
N5A_2 Ni1 1_555 1_555
N10_2 Ni2 1_555 1_555
N10A_2 Ni2 1_555 1_555
N3 C5 1_555 1_555
N4 C4 1_555 1_555
N4 C6 1_555 1_555
N7A C8A 1_555 1_555
N3A C5A 1_555 1_555
N4A C4A 1_555 1_555
N4A C6A 1_555 1_555

#END
