
#######################################################################
#
#                 Cambridge Crystallographic Data Centre
#                                CCDC 
#
#######################################################################
#
# If this CIF has been generated from an entry in the Cambridge 
# Structural Database, then it will include bibliographic, chemical, 
# crystal, experimental, refinement or atomic coordinate data resulting 
# from the CCDC's data processing and validation procedures.
#
#######################################################################

data_TUBTUH
_symmetry_cell_setting           monoclinic
_symmetry_space_group_name_H-M   'C 2/c'
_symmetry_Int_Tables_number      15
_space_group_name_Hall           '-C 2yn'
loop_
_symmetry_equiv_pos_site_id
_symmetry_equiv_pos_as_xyz
1 x,y,z
2 -x,y,1/2-z
3 1/2+x,1/2+y,z
4 1/2-x,1/2+y,1/2-z
5 -x,-y,-z
6 x,-y,1/2+z
7 1/2-x,1/2-y,-z
8 1/2+x,1/2-y,1/2+z
_cell_length_a                   22.2944(6)
_cell_length_b                   5.37910(10)
_cell_length_c                   20.5282(5)
_cell_angle_alpha                90
_cell_angle_beta                 115.5870(10)
_cell_angle_gamma                90
_cell_volume                     2220.39
loop_
_atom_site_label
_atom_site_type_symbol
_atom_site_fract_x
_atom_site_fract_y
_atom_site_fract_z
O1 O 0.94084(11) 1.5124(4) 1.10161(11)
O2 O 0.44792(13) 0.4545(5) 0.65014(13)
O3 O 0.96103(11) 1.7463(5) 1.02659(11)
C1 C 0.92898(15) 1.5717(7) 1.03832(17)
Zn1 Zn 0.515262(15) 0.65724(6) 0.633512(15)
O4 O 0.58371(14) 0.6615(5) 0.74893(13)
O5 O 0.59225(11) 0.9337(4) 0.67687(10)
C2 C 0.61292(16) 0.8447(5) 0.73916(18)
C3 C 0.7050(2) 1.1529(6) 0.7894(2)
H1 H 0.6907 1.2178 0.7431
C4 C 0.67161(15) 0.9554(6) 0.80020(15)
C5 C 0.78222(19) 1.1608(6) 0.9148(2)
C6 C 0.7596(2) 1.2590(9) 0.8456(2)
H2 H 0.7809 1.3950 0.8370
C7 C 0.6943(2) 0.8600(8) 0.8696(2)
H3 H 0.6725 0.7259 0.8784
C8 C 0.7492(2) 0.9630(9) 0.92573(19)
H4 H 0.7640 0.8962 0.9719
O6 O 0.56515(12) 0.3889(4) 0.61005(12)
C9 C 0.83825(19) 1.2737(8) 0.9772(2)
H5 H 0.8473 1.2103 1.0227
C10 C 0.87583(18) 1.4530(7) 0.97424(18)
H6 H 0.8690 1.5110 0.9289
H7 H 0.572(2) 0.260(4) 0.6342(17)
H8 H 0.550(2) 0.357(7) 0.5661(7)
H9 H 0.443(2) 0.303(3) 0.640(2)
H10 H 0.429(2) 0.496(7) 0.676(2)
O1G O 0.44084(11) 0.9876(4) 0.60161(11)
O3G O 0.46103(11) 0.7537(5) 0.52659(11)
Zn1G Zn 1.015262(15) 1.84276(6) 1.133512(15)
loop_
_geom_bond_atom_site_label_1
_geom_bond_atom_site_label_2
_geom_bond_site_symmetry_1
_geom_bond_site_symmetry_2
O1 C1 1_555 1_555
O2 Zn1 1_555 1_555
O3 C1 1_555 1_555
C1 C10 1_555 1_555
Zn1 O4 1_555 1_555
O4 C2 1_555 1_555
O5 Zn1 1_555 1_555
C2 O5 1_555 1_555
C3 H1 1_555 1_555
C4 C2 1_555 1_555
C5 C6 1_555 1_555
C6 C3 1_555 1_555
H2 C6 1_555 1_555
C7 C4 1_555 1_555
H3 C7 1_555 1_555
C8 C5 1_555 1_555
H4 C8 1_555 1_555
O6 Zn1 1_555 1_555
C9 C5 1_555 1_555
H5 C9 1_555 1_555
C10 C9 1_555 1_555
H6 C10 1_555 1_555
H7 O6 1_555 1_555
H8 O6 1_555 1_555
H9 O2 1_555 1_555
H10 O2 1_555 1_555
O1G Zn1 1_555 1_555
O3G Zn1 1_555 1_555
Zn1G O1 1_555 1_555
O3 Zn1G 1_555 1_555
C3 C4 1_555 1_555
C7 C8 1_555 1_555

#END
