
#######################################################################
#
#                 Cambridge Crystallographic Data Centre
#                                CCDC 
#
#######################################################################
#
# If this CIF has been generated from an entry in the Cambridge 
# Structural Database, then it will include bibliographic, chemical, 
# crystal, experimental, refinement or atomic coordinate data resulting 
# from the CCDC's data processing and validation procedures.
#
#######################################################################

data_TUBTOB
_symmetry_cell_setting           monoclinic
_symmetry_space_group_name_H-M   'C 2/c'
_symmetry_Int_Tables_number      15
_space_group_name_Hall           '-C 2yn'
loop_
_symmetry_equiv_pos_site_id
_symmetry_equiv_pos_as_xyz
1 x,y,z
2 -x,y,1/2-z
3 1/2+x,1/2+y,z
4 1/2-x,1/2+y,1/2-z
5 -x,-y,-z
6 x,-y,1/2+z
7 1/2-x,1/2-y,-z
8 1/2+x,1/2-y,1/2+z
_cell_length_a                   18.057(4)
_cell_length_b                   11.487(2)
_cell_length_c                   24.590(5)
_cell_angle_alpha                90
_cell_angle_beta                 93.60(3)
_cell_angle_gamma                90
_cell_volume                     5090.41
loop_
_atom_site_label
_atom_site_type_symbol
_atom_site_fract_x
_atom_site_fract_y
_atom_site_fract_z
Co1 Co 0.0000 0.59932(8) 0.2500
O1 O 0.1059(2) 0.5949(3) 0.28872(13)
H1 H 0.0962 0.5899 0.3220
N1 N 0.0454(3) 0.6010(4) 0.16938(16)
N2 N 0.1170(3) 0.5222(5) -0.1102(2)
N3 N 0.0000 0.7867(5) 0.2500
N4 N 0.0000 1.4034(6) 0.2500
C1 C 0.0000 1.1542(6) 0.2500
C2 C 0.0610(3) 0.9657(5) 0.2355(2)
H2 H 0.1030 1.0051 0.2255
C3 C 0.0000 1.0247(7) 0.2500
C4 C -0.0622(3) 1.3404(5) 0.2410(2)
H3 H -0.1068 1.3804 0.2353
C5 C 0.0589(3) 0.8473(5) 0.2362(2)
H4 H 0.1006 0.8067 0.2266
C6 C 0.0806(3) 0.5826(5) 0.0600(2)
C7 C 0.0282(3) 0.6628(5) 0.0761(2)
H5 H 0.0042 0.7119 0.0506
C8 C 0.0945(3) 0.5630(5) 0.0008(2)
C9 C 0.0979(3) 0.5303(5) 0.1545(2)
H6 H 0.1238 0.4873 0.1816
C10 C 0.1172(3) 0.5159(5) 0.1012(2)
H7 H 0.1538 0.4629 0.0930
C11 C -0.0645(4) 1.2241(5) 0.2399(2)
H8 H -0.1098 1.1875 0.2321
C12 C 0.1426(4) 0.4770(6) -0.0146(2)
H9 H 0.1683 0.4299 0.0109
C13 C 0.0608(4) 0.6279(6) -0.0397(2)
H10 H 0.0292 0.6884 -0.0316
C14 C 0.0741(4) 0.6028(6) -0.0937(2)
H11 H 0.0497 0.6486 -0.1204
C15 C 0.1505(4) 0.4645(8) -0.0699(3)
H12 H 0.1840 0.4078 -0.0797
C16 C 0.0124(3) 0.6686(5) 0.1298(3)
H13 H -0.0230 0.7221 0.1396
C2A C -0.0610(3) 0.9657(5) 0.2645(2)
H2A H -0.1030 1.0051 0.2745
C4A C 0.0622(3) 1.3404(5) 0.2590(2)
H3A H 0.1068 1.3804 0.2647
C5A C -0.0589(3) 0.8473(5) 0.2638(2)
H4A H -0.1006 0.8067 0.2734
C11A C 0.0645(4) 1.2241(5) 0.2601(2)
H8A H 0.1098 1.1875 0.2679
O1A O -0.1059(2) 0.5949(3) 0.21128(13)
H1A H -0.0962 0.5899 0.1780
N1A N -0.0454(3) 0.6010(4) 0.33062(16)
N2A N -0.1170(3) 0.5222(5) 0.6102(2)
C6A C -0.0806(3) 0.5826(5) 0.4400(2)
C7A C -0.0282(3) 0.6628(5) 0.4239(2)
H5A H -0.0042 0.7119 0.4494
C8A C -0.0945(3) 0.5630(5) 0.4992(2)
C9A C -0.0979(3) 0.5303(5) 0.3455(2)
H6A H -0.1238 0.4873 0.3184
C10A C -0.1172(3) 0.5159(5) 0.3988(2)
H7A H -0.1538 0.4629 0.4070
C12A C -0.1426(4) 0.4770(6) 0.5146(2)
H9A H -0.1683 0.4299 0.4891
C13A C -0.0608(4) 0.6279(6) 0.5397(2)
H10A H -0.0292 0.6884 0.5316
C14A C -0.0741(4) 0.6028(6) 0.5937(2)
H11A H -0.0497 0.6486 0.6204
C15A C -0.1505(4) 0.4645(8) 0.5699(3)
H12A H -0.1840 0.4078 0.5797
C16A C -0.0124(3) 0.6686(5) 0.3702(3)
H13A H 0.0230 0.7221 0.3604
Co1_2 Co 0.0000 1.59932(8) 0.2500
N4_2 N 0.0000 0.4034(6) 0.2500
loop_
_geom_bond_atom_site_label_1
_geom_bond_atom_site_label_2
_geom_bond_site_symmetry_1
_geom_bond_site_symmetry_2
Co1 O1 1_555 1_555
O1 H1 1_555 1_555
N1 Co1 1_555 1_555
N2 C14 1_555 1_555
N3 Co1 1_555 1_555
N4 C4 1_555 1_555
C1 C3 1_555 1_555
C2 H2 1_555 1_555
C3 C2 1_555 1_555
C4 H3 1_555 1_555
C5 N3 1_555 1_555
H4 C5 1_555 1_555
C6 C7 1_555 1_555
C7 H5 1_555 1_555
C8 C6 1_555 1_555
C9 N1 1_555 1_555
H6 C9 1_555 1_555
C10 C6 1_555 1_555
H7 C10 1_555 1_555
C11 C1 1_555 1_555
H8 C11 1_555 1_555
C12 C8 1_555 1_555
H9 C12 1_555 1_555
C13 C8 1_555 1_555
H10 C13 1_555 1_555
C14 C13 1_555 1_555
H11 C14 1_555 1_555
C15 N2 1_555 1_555
H12 C15 1_555 1_555
C16 N1 1_555 1_555
H13 C16 1_555 1_555
C2A C3 1_555 1_555
H2A C2A 1_555 1_555
C4A N4 1_555 1_555
H3A C4A 1_555 1_555
C5A N3 1_555 1_555
H4A C5A 1_555 1_555
C11A C1 1_555 1_555
H8A C11A 1_555 1_555
O1A Co1 1_555 1_555
H1A O1A 1_555 1_555
N1A Co1 1_555 1_555
N2A C14A 1_555 1_555
C6A C7A 1_555 1_555
C7A H5A 1_555 1_555
C8A C6A 1_555 1_555
C9A N1A 1_555 1_555
H6A C9A 1_555 1_555
C10A C6A 1_555 1_555
H7A C10A 1_555 1_555
C12A C8A 1_555 1_555
H9A C12A 1_555 1_555
C13A C8A 1_555 1_555
H10A C13A 1_555 1_555
C14A C13A 1_555 1_555
H11A C14A 1_555 1_555
C15A N2A 1_555 1_555
H12A C15A 1_555 1_555
C16A N1A 1_555 1_555
H13A C16A 1_555 1_555
Co1_2 N4 1_555 1_555
N4_2 Co1 1_555 1_555
C2 C5 1_555 1_555
C4 C11 1_555 1_555
C7 C16 1_555 1_555
C9 C10 1_555 1_555
C12 C15 1_555 1_555
C2A C5A 1_555 1_555
C4A C11A 1_555 1_555
C7A C16A 1_555 1_555
C9A C10A 1_555 1_555
C12A C15A 1_555 1_555

#END
