
#######################################################################
#
#                 Cambridge Crystallographic Data Centre
#                                CCDC 
#
#######################################################################
#
# If this CIF has been generated from an entry in the Cambridge 
# Structural Database, then it will include bibliographic, chemical, 
# crystal, experimental, refinement or atomic coordinate data resulting 
# from the CCDC's data processing and validation procedures.
#
#######################################################################

data_TUBXAR
_symmetry_cell_setting           triclinic
_symmetry_space_group_name_H-M   'P -1'
_symmetry_Int_Tables_number      2
_space_group_name_Hall           '-P 1'
loop_
_symmetry_equiv_pos_site_id
_symmetry_equiv_pos_as_xyz
1 x,y,z
2 -x,-y,-z
_cell_length_a                   7.8112(7)
_cell_length_b                   10.6450(10)
_cell_length_c                   11.6881(11)
_cell_angle_alpha                84.510(5)
_cell_angle_beta                 77.211(6)
_cell_angle_gamma                80.898(5)
_cell_volume                     933.966
loop_
_atom_site_label
_atom_site_type_symbol
_atom_site_fract_x
_atom_site_fract_y
_atom_site_fract_z
Mn1 Mn 0.78838(4) 0.84610(3) 0.86716(3)
O1 O -0.0433(2) 0.94805(16) 0.73433(14)
O2 O -0.0507(3) 1.13348(18) 0.80963(16)
O3 O 0.3217(3) 0.9320(2) 0.83649(16)
O4 O 0.5946(3) 0.8351(2) 0.77186(19)
N1 N 0.9315(3) 0.6635(2) 0.7851(2)
N2 N 0.7062(3) 0.6805(2) 0.99445(19)
C1 C 0.4036(3) 0.8659(3) 0.6404(2)
C2 C 0.8900(3) 0.5537(3) 0.8414(3)
C3 C 0.0179(3) 1.0491(2) 0.7388(2)
C4 C 0.1842(3) 1.0725(3) 0.6483(2)
H1 H 0.1509 1.1352 0.5883
H2 H 0.2620 1.1083 0.6865
C5 C 0.4412(3) 0.8801(3) 0.7596(2)
C6 C 0.7720(3) 0.5624(2) 0.9607(2)
C7 C 0.2850(3) 0.9551(3) 0.5898(2)
C8 C 0.5952(4) 0.6929(3) 1.0992(3)
H3 H 0.5495 0.7745 1.1231
C9 C 0.2614(3) 0.9345(3) 0.4786(2)
H4 H 0.1862 0.9942 0.4427
C10 C 1.0348(4) 0.6616(3) 0.6775(3)
H5 H 1.0633 0.7382 0.6384
C11 C 0.4934(3) 0.7608(3) 0.5797(2)
H6 H 0.5749 0.7035 0.6124
C12 C 0.5460(5) 0.5906(4) 1.1729(3)
H7 H 0.4666 0.6028 1.2444
C13 C 0.3465(4) 0.8282(4) 0.4207(2)
H8 H 0.3257 0.8154 0.3476
C14 C 0.7316(5) 0.4557(3) 1.0327(3)
H9 H 0.7823 0.3748 1.0092
C15 C 0.9516(5) 0.4380(3) 0.7910(4)
H10 H 0.9225 0.3622 0.8316
C16 C 0.6159(6) 0.4703(4) 1.1393(3)
H11 H 0.5855 0.3994 1.1880
C17 C 0.4631(4) 0.7402(3) 0.4710(3)
H12 H 0.5206 0.6680 0.4323
C18 C 1.1007(5) 0.5498(4) 0.6225(4)
H13 H 1.1736 0.5508 0.5479
C19 C 1.0568(6) 0.4376(4) 0.6796(4)
H14 H 1.0978 0.3613 0.6434
O5 O 0.6699(2) 1.02782(18) 0.93896(17)
H15 H 0.651(4) 1.044(3) 1.0082(15)
H16 H 0.741(4) 1.074(3) 0.903(2)
O6 O 1.0108(3) 0.8389(2) 0.96420(17)
H17 H 1.006(5) 0.855(3) 1.0315(16)
H18 H 1.095(4) 0.868(3) 0.923(2)
Mn1_2 Mn -0.21162(4) 0.84610(3) 0.86716(3)
O1_2 O 0.9567(2) 0.94805(16) 0.73433(14)
loop_
_geom_bond_atom_site_label_1
_geom_bond_atom_site_label_2
_geom_bond_site_symmetry_1
_geom_bond_site_symmetry_2
Mn1 O4 1_555 1_555
O1 C3 1_555 1_555
O2 C3 1_555 1_555
O3 C5 1_555 1_555
O4 C5 1_555 1_555
N1 Mn1 1_555 1_555
N2 Mn1 1_555 1_555
C1 C5 1_555 1_555
C2 N1 1_555 1_555
C3 C4 1_555 1_555
C4 H1 1_555 1_555
H2 C4 1_555 1_555
C6 N2 1_555 1_555
C7 C1 1_555 1_555
C8 N2 1_555 1_555
H3 C8 1_555 1_555
C9 C7 1_555 1_555
H4 C9 1_555 1_555
C10 N1 1_555 1_555
H5 C10 1_555 1_555
C11 C1 1_555 1_555
H6 C11 1_555 1_555
C12 C8 1_555 1_555
H7 C12 1_555 1_555
C13 C9 1_555 1_555
H8 C13 1_555 1_555
C14 C6 1_555 1_555
H9 C14 1_555 1_555
C15 C2 1_555 1_555
H10 C15 1_555 1_555
C16 C12 1_555 1_555
H11 C16 1_555 1_555
C17 C11 1_555 1_555
H12 C17 1_555 1_555
C18 C10 1_555 1_555
H13 C18 1_555 1_555
C19 C15 1_555 1_555
H14 C19 1_555 1_555
O5 Mn1 1_555 1_555
H15 O5 1_555 1_555
H16 O5 1_555 1_555
O6 Mn1 1_555 1_555
H17 O6 1_555 1_555
H18 O6 1_555 1_555
Mn1_2 O1 1_555 1_555
O1_2 Mn1 1_555 1_555
C2 C6 1_555 1_555
C4 C7 1_555 1_555
C13 C17 1_555 1_555
C14 C16 1_555 1_555
C18 C19 1_555 1_555

#END
