
#######################################################################
#
#                 Cambridge Crystallographic Data Centre
#                                CCDC 
#
#######################################################################
#
# If this CIF has been generated from an entry in the Cambridge 
# Structural Database, then it will include bibliographic, chemical, 
# crystal, experimental, refinement or atomic coordinate data resulting 
# from the CCDC's data processing and validation procedures.
#
#######################################################################

data_TUBYEV
_symmetry_cell_setting           monoclinic
_symmetry_space_group_name_H-M   'P 21/c'
_symmetry_Int_Tables_number      14
_space_group_name_Hall           '-P 2ybc'
loop_
_symmetry_equiv_pos_site_id
_symmetry_equiv_pos_as_xyz
1 x,y,z
2 -x,1/2+y,1/2-z
3 -x,-y,-z
4 x,1/2-y,1/2+z
_cell_length_a                   8.9515(5)
_cell_length_b                   12.5315(7)
_cell_length_c                   32.7573(19)
_cell_angle_alpha                90
_cell_angle_beta                 95.9050(10)
_cell_angle_gamma                90
_cell_volume                     3655.08
loop_
_atom_site_label
_atom_site_type_symbol
_atom_site_fract_x
_atom_site_fract_y
_atom_site_fract_z
Cr1 Cr 0.72937(5) 0.99966(3) 0.244813(13)
Cr2 Cr 1.0000 0.5000 0.0000
Cr3 Cr 0.5000 1.0000 0.0000
Na1 Na 0.70574(13) 0.75969(9) 0.14942(4)
Na2 Na 0.95333(13) 0.76987(9) 0.39834(4)
O1 O 0.8941(2) 0.96742(17) 0.28648(7)
O2 O 0.9526(2) 0.90793(16) 0.34995(6)
O3 O 0.7199(3) 0.68672(18) 0.22749(8)
O4 O 0.7506(2) 0.85944(17) 0.21979(7)
O5 O 0.3788(2) 0.84045(17) 0.33303(7)
O6 O 0.5671(2) 1.03159(19) 0.20269(7)
O7 O 0.5059(2) 1.10156(16) 0.14143(6)
O8 O 0.7042(2) 1.14117(16) 0.26899(7)
O9 O 0.7999(3) 1.30323(17) 0.27549(7)
O10 O 1.0855(2) 1.15807(17) 0.15875(7)
O11 O 1.1661(2) 0.55306(16) 0.03827(6)
O12 O 1.2271(2) 0.60022(16) 0.10334(6)
O13 O 0.9986(2) 0.63396(16) -0.03097(6)
O14 O 0.9631(2) 0.80795(16) -0.02681(7)
O15 O 0.6531(2) 0.66268(17) 0.08779(7)
O16 O 0.5530(2) 0.85532(16) -0.01663(6)
O17 O 0.4634(3) 0.69182(18) -0.02531(8)
O18 O 0.6512(2) 0.99066(17) 0.04678(6)
O19 O 0.7123(2) 0.90746(16) 0.10580(6)
O20 O 0.1360(2) 0.83765(17) 0.08339(7)
O21 O 0.9729(2) 0.77422(18) 0.15086(7)
H1 H 1.0227 0.7517 0.1727
H2 H 1.0228 0.7877 0.1307
O22 O 0.4401(3) 0.7313(2) 0.15813(8)
H3 H 0.3815 0.7126 0.1373
H4 H 0.4010 0.7306 0.1807
O23 O 0.6876(3) 0.74952(19) 0.40711(7)
H5 H 0.6362 0.7193 0.3871
H6 H 0.6473 0.7522 0.4295
O24 O 1.2197(2) 0.79770(19) 0.40211(7)
H7 H 1.2718 0.8074 0.3821
H8 H 1.2661 0.7680 0.4234
N1 N 0.2359(3) 0.9860(2) 0.31805(8)
H9 H 0.1711 0.9683 0.3345
H10 H 0.2244 1.0439 0.3040
N2 N 0.6057(2) 0.91555(18) 0.28511(7)
N3 N 0.8604(2) 1.08421(18) 0.20686(7)
N4 N 1.2279(3) 1.0115(2) 0.17259(8)
H11 H 1.2983 1.0338 0.1587
H12 H 1.2363 0.9507 0.1848
N5 N 0.5088(3) 0.5178(2) 0.07408(8)
H13 H 0.4445 0.5367 0.0905
H14 H 0.4962 0.4592 0.0605
N6 N 0.8764(2) 0.58608(17) 0.03925(7)
N7 N -0.0049(3) 0.9845(2) 0.07028(8)
H15 H -0.0753 0.9619 0.0840
H16 H -0.0130 1.0457 0.0584
N8 N 0.3662(2) 0.91413(18) 0.03693(7)
C1 C 0.8604(3) 0.9332(2) 0.32143(9)
C2 C 0.6928(3) 0.9289(3) 0.32569(9)
H17 H 0.6719 0.8699 0.3434
H18 H 0.6623 0.9943 0.3383
C3 C 0.6014(4) 0.8019(2) 0.27177(10)
H19 H 0.4985 0.7829 0.2624
H20 H 0.6337 0.7572 0.2952
C4 C 0.6989(3) 0.7789(3) 0.23792(10)
C5 C 0.4550(3) 0.9655(2) 0.28362(10)
H21 H 0.4043 0.9556 0.2563
H22 H 0.4682 1.0417 0.2879
C6 C 0.3532(3) 0.9241(2) 0.31437(9)
C7 C 0.7953(3) 1.2142(2) 0.25988(9)
C8 C 0.9042(3) 1.1845(2) 0.22952(10)
H23 H 0.9092 1.2422 0.2100
H24 H 1.0035 1.1755 0.2440
C9 C 0.5997(3) 1.0788(2) 0.17021(9)
C10 C 0.7634(3) 1.1043(3) 0.16809(9)
H25 H 0.8000 1.0619 0.1464
H26 H 0.7723 1.1788 0.1607
C11 C 0.9932(3) 1.0182(2) 0.20012(10)
H27 H 0.9584 0.9529 0.1864
H28 H 1.0439 0.9986 0.2267
C12 C 1.1069(3) 1.0705(2) 0.17512(9)
C13 C 0.6261(3) 0.5784(2) 0.06978(9)
C14 C 0.7278(3) 0.5342(2) 0.03918(10)
H29 H 0.7436 0.4588 0.0448
H30 H 0.6756 0.5404 0.0118
C15 C 0.9674(3) 0.5786(2) 0.07983(9)
H31 H 0.9424 0.5133 0.0935
H32 H 0.9442 0.6384 0.0969
C16 C 1.1346(3) 0.5792(2) 0.07423(9)
C17 C 0.8659(3) 0.6984(2) 0.02373(9)
H33 H 0.9060 0.7460 0.0455
H34 H 0.7610 0.7163 0.0168
C18 C 0.9492(3) 0.7170(2) -0.01347(9)
C19 C 0.4572(3) 0.7821(3) -0.01108(9)
C20 C 0.3307(3) 0.8131(2) 0.01405(10)
H35 H 0.2387 0.8221 -0.0040
H36 H 0.3148 0.7565 0.0333
C21 C 0.4597(3) 0.8936(3) 0.07640(10)
H37 H 0.4602 0.8175 0.0819
H38 H 0.4140 0.9289 0.0984
C22 C 0.6208(3) 0.9318(2) 0.07683(9)
C23 C 0.2297(3) 0.9780(2) 0.04235(10)
H39 H 0.1799 0.9948 0.0154
H40 H 0.2610 1.0449 0.0554
C24 C 0.1156(3) 0.9255(2) 0.06742(9)
Cr1B Cr 0.27063(5) 1.00034(3) -0.244813(13)
Cr2_2 Cr 0.0000 1.5000 0.0000
Na1B Na 0.29426(13) 1.24031(9) -0.14942(4)
Na2B Na 0.04667(13) 1.23013(9) -0.39834(4)
Na2A Na 0.04667(13) 1.26987(9) 0.10166(4)
Na2A_2 Na 1.04667(13) 1.26987(9) 0.10166(4)
Na2C Na -0.04667(13) 0.73013(9) -0.10166(4)
Na2C_2 Na 0.95333(13) 0.73013(9) -0.10166(4)
O1B O 0.1059(2) 1.03258(17) -0.28648(7)
O2B O 0.0474(2) 1.09207(16) -0.34995(6)
O3B O 0.2801(3) 1.31328(18) -0.22749(8)
O4B O 0.2494(2) 1.14056(17) -0.21979(7)
O5B O 0.6212(2) 1.15955(17) -0.33303(7)
O6B O 0.4329(2) 0.96841(19) -0.20269(7)
O7B O 0.4941(2) 0.89844(16) -0.14143(6)
O8B O 0.2958(2) 0.85883(16) -0.26899(7)
O9B O 0.2001(3) 0.69677(17) -0.27549(7)
O10B O -0.0855(2) 0.84193(17) -0.15875(7)
O10A O 0.9145(2) 0.65807(17) 0.34125(7)
O10C O 0.0855(2) 1.34193(17) -0.34125(7)
O11B O -0.1661(2) 1.44694(16) -0.03827(6)
O11B_2 O 0.8339(2) 0.44694(16) -0.03827(6)
O12B O -0.2271(2) 1.39978(16) -0.10334(6)
O13B O 0.0014(2) 1.36604(16) 0.03097(6)
O13A O 0.0014(2) 1.13396(16) -0.46903(6)
O13B_2 O 1.0014(2) 0.36604(16) 0.03097(6)
O13C O 0.9986(2) 0.86604(16) 0.46903(6)
O14B O 0.0369(2) 1.19205(16) 0.02681(7)
O14A O 0.0369(2) 1.30795(16) -0.47319(7)
O14C O 0.9631(2) 0.69205(16) 0.47319(7)
O15B O 0.3469(2) 1.33732(17) -0.08779(7)
O16B O 0.4470(2) 1.14468(16) 0.01663(6)
O17B O 0.5366(3) 1.30818(18) 0.02531(8)
O18B O 0.3488(2) 1.00934(17) -0.04678(6)
O19B O 0.2877(2) 1.09254(16) -0.10580(6)
O20B O 0.8640(2) 1.16235(17) -0.08339(7)
O21B O 0.0271(2) 1.22578(18) -0.15086(7)
H1B H -0.0227 1.2483 -0.1727
H2B H -0.0228 1.2123 -0.1307
O22B O 0.5599(3) 1.2687(2) -0.15813(8)
H3B H 0.6185 1.2874 -0.1373
H4B H 0.5990 1.2694 -0.1807
O23B O 0.3124(3) 1.25048(19) -0.40711(7)
H5B H 0.3638 1.2807 -0.3871
H6B H 0.3527 1.2478 -0.4295
O24B O -0.2197(2) 1.20230(19) -0.40211(7)
H7B H -0.2718 1.1926 -0.3821
H8B H -0.2661 1.2320 -0.4234
N1B N 0.7641(3) 1.0140(2) -0.31805(8)
H9B H 0.8289 1.0317 -0.3345
H10B H 0.7756 0.9561 -0.3040
N2B N 0.3943(2) 1.08445(18) -0.28511(7)
N3B N 0.1396(2) 0.91579(18) -0.20686(7)
N4B N -0.2279(3) 0.9885(2) -0.17259(8)
H11B H -0.2983 0.9662 -0.1587
H12B H -0.2363 1.0493 -0.1848
N5B N 0.4912(3) 1.4822(2) -0.07408(8)
H13B H 0.5555 1.4633 -0.0905
H14B H 0.5038 1.5408 -0.0605
N6B N 0.1236(2) 1.41392(17) -0.03925(7)
N6B_2 N 1.1236(2) 0.41392(17) -0.03925(7)
N7B N 1.0049(3) 1.0155(2) -0.07028(8)
H15B H 1.0753 1.0381 -0.0840
H16B H 1.0130 0.9543 -0.0584
N8B N 0.6338(2) 1.08587(18) -0.03693(7)
C1B C 0.1396(3) 1.0668(2) -0.32143(9)
C2B C 0.3072(3) 1.0711(3) -0.32569(9)
H17B H 0.3281 1.1301 -0.3434
H18B H 0.3377 1.0057 -0.3383
C3B C 0.3986(4) 1.1981(2) -0.27177(10)
H19B H 0.5015 1.2171 -0.2624
H20B H 0.3663 1.2428 -0.2952
C4B C 0.3011(3) 1.2211(3) -0.23792(10)
C5B C 0.5450(3) 1.0345(2) -0.28362(10)
H21B H 0.5957 1.0444 -0.2563
H22B H 0.5318 0.9583 -0.2879
C6B C 0.6468(3) 1.0759(2) -0.31437(9)
C7B C 0.2047(3) 0.7858(2) -0.25988(9)
C8B C 0.0958(3) 0.8155(2) -0.22952(10)
H23B H 0.0908 0.7578 -0.2100
H24B H -0.0035 0.8245 -0.2440
C9B C 0.4003(3) 0.9212(2) -0.17021(9)
C10B C 0.2366(3) 0.8957(3) -0.16809(9)
H25B H 0.2000 0.9381 -0.1464
H26B H 0.2277 0.8212 -0.1607
C11B C 0.0068(3) 0.9818(2) -0.20012(10)
H27B H 0.0416 1.0471 -0.1864
H28B H -0.0439 1.0014 -0.2267
C12B C -0.1069(3) 0.9295(2) -0.17512(9)
C13B C 0.3739(3) 1.4216(2) -0.06978(9)
C14B C 0.2722(3) 1.4658(2) -0.03918(10)
H29B H 0.2564 1.5412 -0.0448
H30B H 0.3244 1.4596 -0.0118
C15B C 0.0326(3) 1.4214(2) -0.07983(9)
H31B H 0.0576 1.4867 -0.0935
H32B H 0.0558 1.3616 -0.0969
C16B C -0.1346(3) 1.4208(2) -0.07423(9)
C17B C 0.1341(3) 1.3016(2) -0.02373(9)
H33B H 0.0940 1.2540 -0.0455
H34B H 0.2390 1.2837 -0.0168
C18B C 0.0508(3) 1.2830(2) 0.01347(9)
C19B C 0.5428(3) 1.2179(3) 0.01108(9)
C20B C 0.6693(3) 1.1869(2) -0.01405(10)
H35B H 0.7613 1.1779 0.0040
H36B H 0.6852 1.2435 -0.0333
C21B C 0.5403(3) 1.1064(3) -0.07640(10)
H37B H 0.5398 1.1825 -0.0819
H38B H 0.5860 1.0711 -0.0984
C22B C 0.3792(3) 1.0682(2) -0.07683(9)
C23B C 0.7703(3) 1.0220(2) -0.04235(10)
H39B H 0.8201 1.0052 -0.0154
H40B H 0.7390 0.9551 -0.0554
C24B C 0.8844(3) 1.0745(2) -0.06742(9)
loop_
_geom_bond_atom_site_label_1
_geom_bond_atom_site_label_2
_geom_bond_site_symmetry_1
_geom_bond_site_symmetry_2
Cr1 O1 1_555 1_555
Cr2 O11 1_555 1_555
Cr3 O16 1_555 1_555
Na1 O3 1_555 1_555
Na2 O2 1_555 1_555
O1 C1 1_555 1_555
O2 C1 1_555 1_555
O3 C4 1_555 1_555
O4 Cr1 1_555 1_555
O5 C6 1_555 1_555
O6 Cr1 1_555 1_555
O7 C9 1_555 1_555
O8 Cr1 1_555 1_555
O9 C7 1_555 1_555
O10 C12 1_555 1_555
O11 C16 1_555 1_555
O12 C16 1_555 1_555
O13 Cr2 1_555 1_555
O14 C18 1_555 1_555
O15 Na1 1_555 1_555
O16 C19 1_555 1_555
O17 C19 1_555 1_555
O18 Cr3 1_555 1_555
O19 Na1 1_555 1_555
O20 C24 1_555 1_555
O21 Na1 1_555 1_555
H1 O21 1_555 1_555
H2 O21 1_555 1_555
O22 Na1 1_555 1_555
H3 O22 1_555 1_555
H4 O22 1_555 1_555
O23 Na2 1_555 1_555
H5 O23 1_555 1_555
H6 O23 1_555 1_555
O24 Na2 1_555 1_555
H7 O24 1_555 1_555
H8 O24 1_555 1_555
N1 H9 1_555 1_555
H10 N1 1_555 1_555
N2 Cr1 1_555 1_555
N3 Cr1 1_555 1_555
N4 H11 1_555 1_555
H12 N4 1_555 1_555
N5 H13 1_555 1_555
H14 N5 1_555 1_555
N6 Cr2 1_555 1_555
N7 H15 1_555 1_555
H16 N7 1_555 1_555
N8 Cr3 1_555 1_555
C1 C2 1_555 1_555
C2 N2 1_555 1_555
H17 C2 1_555 1_555
H18 C2 1_555 1_555
C3 N2 1_555 1_555
H19 C3 1_555 1_555
H20 C3 1_555 1_555
C4 O4 1_555 1_555
C5 N2 1_555 1_555
H21 C5 1_555 1_555
H22 C5 1_555 1_555
C6 N1 1_555 1_555
C7 O8 1_555 1_555
C8 N3 1_555 1_555
H23 C8 1_555 1_555
H24 C8 1_555 1_555
C9 O6 1_555 1_555
C10 N3 1_555 1_555
H25 C10 1_555 1_555
H26 C10 1_555 1_555
C11 N3 1_555 1_555
H27 C11 1_555 1_555
H28 C11 1_555 1_555
C12 N4 1_555 1_555
C13 O15 1_555 1_555
C14 N6 1_555 1_555
H29 C14 1_555 1_555
H30 C14 1_555 1_555
C15 N6 1_555 1_555
H31 C15 1_555 1_555
H32 C15 1_555 1_555
C16 C15 1_555 1_555
C17 N6 1_555 1_555
H33 C17 1_555 1_555
H34 C17 1_555 1_555
C18 O13 1_555 1_555
C19 C20 1_555 1_555
C20 N8 1_555 1_555
H35 C20 1_555 1_555
H36 C20 1_555 1_555
C21 N8 1_555 1_555
H37 C21 1_555 1_555
H38 C21 1_555 1_555
C22 O18 1_555 1_555
C23 N8 1_555 1_555
H39 C23 1_555 1_555
H40 C23 1_555 1_555
C24 N7 1_555 1_555
Cr1B O1B 1_555 1_555
Cr2_2 O11B 1_555 1_555
Na1B O3B 1_555 1_555
Na2B O2B 1_555 1_555
Na2A O13B 1_555 1_555
Na2A_2 O10 1_555 1_555
Na2C O10B 1_555 1_555
Na2C_2 O13 1_555 1_555
O1B C1B 1_555 1_555
O2B C1B 1_555 1_555
O3B C4B 1_555 1_555
O4B Cr1B 1_555 1_555
O5B C6B 1_555 1_555
O6B Cr1B 1_555 1_555
O7B C9B 1_555 1_555
O8B Cr1B 1_555 1_555
O9B C7B 1_555 1_555
O10B C12B 1_555 1_555
O10A Na2 1_555 1_555
O10C Na2B 1_555 1_555
O11B C16B 1_555 1_555
O11B_2 Cr2 1_555 1_555
O12B C16B 1_555 1_555
O13B Cr2_2 1_555 1_555
O13A Na2B 1_555 1_555
O13B_2 Cr2 1_555 1_555
O13C Na2 1_555 1_555
O14B Na2A 1_555 1_555
O14A Na2B 1_555 1_555
O14C Na2 1_555 1_555
O15B Na1B 1_555 1_555
O16B Cr3 1_555 1_555
O17B C19B 1_555 1_555
O18B Cr3 1_555 1_555
O19B Na1B 1_555 1_555
O20B C24B 1_555 1_555
O21B Na1B 1_555 1_555
H1B O21B 1_555 1_555
H2B O21B 1_555 1_555
O22B Na1B 1_555 1_555
H3B O22B 1_555 1_555
H4B O22B 1_555 1_555
O23B Na2B 1_555 1_555
H5B O23B 1_555 1_555
H6B O23B 1_555 1_555
O24B Na2B 1_555 1_555
H7B O24B 1_555 1_555
H8B O24B 1_555 1_555
N1B H9B 1_555 1_555
H10B N1B 1_555 1_555
N2B Cr1B 1_555 1_555
N3B Cr1B 1_555 1_555
N4B H11B 1_555 1_555
H12B N4B 1_555 1_555
N5B H13B 1_555 1_555
H14B N5B 1_555 1_555
N6B Cr2_2 1_555 1_555
N6B_2 Cr2 1_555 1_555
N7B H15B 1_555 1_555
H16B N7B 1_555 1_555
N8B Cr3 1_555 1_555
C1B C2B 1_555 1_555
C2B N2B 1_555 1_555
H17B C2B 1_555 1_555
H18B C2B 1_555 1_555
C3B N2B 1_555 1_555
H19B C3B 1_555 1_555
H20B C3B 1_555 1_555
C4B O4B 1_555 1_555
C5B N2B 1_555 1_555
H21B C5B 1_555 1_555
H22B C5B 1_555 1_555
C6B N1B 1_555 1_555
C7B O8B 1_555 1_555
C8B N3B 1_555 1_555
H23B C8B 1_555 1_555
H24B C8B 1_555 1_555
C9B O6B 1_555 1_555
C10B N3B 1_555 1_555
H25B C10B 1_555 1_555
H26B C10B 1_555 1_555
C11B N3B 1_555 1_555
H27B C11B 1_555 1_555
H28B C11B 1_555 1_555
C12B N4B 1_555 1_555
C13B O15B 1_555 1_555
C14B N6B 1_555 1_555
H29B C14B 1_555 1_555
H30B C14B 1_555 1_555
C15B N6B 1_555 1_555
H31B C15B 1_555 1_555
H32B C15B 1_555 1_555
C16B C15B 1_555 1_555
C17B N6B 1_555 1_555
H33B C17B 1_555 1_555
H34B C17B 1_555 1_555
C18B O13B 1_555 1_555
C19B O16B 1_555 1_555
C20B N8B 1_555 1_555
H35B C20B 1_555 1_555
H36B C20B 1_555 1_555
C21B N8B 1_555 1_555
H37B C21B 1_555 1_555
H38B C21B 1_555 1_555
C22B O18B 1_555 1_555
C23B N8B 1_555 1_555
H39B C23B 1_555 1_555
H40B C23B 1_555 1_555
C24B N7B 1_555 1_555
Na1 O4 1_555 1_555
O14 Na2C_2 1_555 1_555
O19 C22 1_555 1_555
N5 C13 1_555 1_555
C3 C4 1_555 1_555
C5 C6 1_555 1_555
C7 C8 1_555 1_555
C9 C10 1_555 1_555
C11 C12 1_555 1_555
C13 C14 1_555 1_555
C17 C18 1_555 1_555
C21 C22 1_555 1_555
C23 C24 1_555 1_555
Na1B O4B 1_555 1_555
O14B C18B 1_555 1_555
O19B C22B 1_555 1_555
N5B C13B 1_555 1_555
C3B C4B 1_555 1_555
C5B C6B 1_555 1_555
C7B C8B 1_555 1_555
C9B C10B 1_555 1_555
C11B C12B 1_555 1_555
C13B C14B 1_555 1_555
C17B C18B 1_555 1_555
C19B C20B 1_555 1_555
C21B C22B 1_555 1_555
C23B C24B 1_555 1_555

#END
