
#######################################################################
#
#                 Cambridge Crystallographic Data Centre
#                                CCDC 
#
#######################################################################
#
# If this CIF has been generated from an entry in the Cambridge 
# Structural Database, then it will include bibliographic, chemical, 
# crystal, experimental, refinement or atomic coordinate data resulting 
# from the CCDC's data processing and validation procedures.
#
#######################################################################

data_TUBYAR
_symmetry_cell_setting           monoclinic
_symmetry_space_group_name_H-M   'P 21/c'
_symmetry_Int_Tables_number      14
_space_group_name_Hall           '-P 2ybc'
loop_
_symmetry_equiv_pos_site_id
_symmetry_equiv_pos_as_xyz
1 x,y,z
2 -x,1/2+y,1/2-z
3 -x,-y,-z
4 x,1/2-y,1/2+z
_cell_length_a                   9.1802(19)
_cell_length_b                   4.9778(10)
_cell_length_c                   19.961(4)
_cell_angle_alpha                90
_cell_angle_beta                 103.473(8)
_cell_angle_gamma                90
_cell_volume                     887.059
loop_
_atom_site_label
_atom_site_type_symbol
_atom_site_fract_x
_atom_site_fract_y
_atom_site_fract_z
C1 C -0.0636(3) 0.3408(6) 0.09086(17)
C2 C 0.0776(3) 0.5086(6) 0.10343(15)
H1 H 0.1131 0.5207 0.0603
H2 H 0.0552 0.6928 0.1168
C3 C 0.1765(3) 0.4373(6) 0.22955(15)
H3 H 0.0685 0.4311 0.2291
H4 H 0.2155 0.6168 0.2460
C4 C 0.2606(3) 0.2191(6) 0.27726(17)
C5 C 0.3509(3) 0.4687(6) 0.15192(15)
H5 H 0.4243 0.4440 0.1964
H6 H 0.3505 0.6609 0.1391
C6 C 0.3963(4) 0.2988(6) 0.09683(17)
N1 N 0.1986(3) 0.3885(5) 0.15924(13)
N2 N 0.2691(3) 0.2555(6) 0.34358(15)
O1 O -0.1673(2) 0.4287(4) 0.04367(11)
O2 O -0.0643(2) 0.1357(4) 0.12703(12)
O3 O 0.3136(2) 0.0275(4) 0.25158(11)
O4 O 0.3267(2) 0.0826(4) 0.08025(11)
O5 O 0.5025(2) 0.3879(4) 0.07402(11)
H7 H 0.219(3) 0.388(5) 0.3586(17)
H8 H 0.309(4) 0.130(6) 0.3741(16)
H9 H 0.193(4) 0.210(2) 0.1510(18)
Ag1B Ag -0.37764(2) 0.16992(4) 0.003685(12)
Ag1 Ag 0.37764(2) -0.16992(4) -0.003685(12)
Ag1B_2 Ag 0.62236(2) 0.16992(4) 0.003685(12)
Ag1_2 Ag 0.37764(2) 0.83008(4) -0.003685(12)
O4B O -0.3267(2) -0.0826(4) -0.08025(11)
O5_2 O -0.4975(2) 0.3879(4) 0.07402(11)
O5B O -0.5025(2) 0.6121(4) -0.07402(11)
Ag1_3 Ag -0.62236(2) -0.16992(4) -0.003685(12)
loop_
_geom_bond_atom_site_label_1
_geom_bond_atom_site_label_2
_geom_bond_site_symmetry_1
_geom_bond_site_symmetry_2
C1 C2 1_555 1_555
C2 H1 1_555 1_555
H2 C2 1_555 1_555
C3 H3 1_555 1_555
H4 C3 1_555 1_555
C4 C3 1_555 1_555
C5 H5 1_555 1_555
H6 C5 1_555 1_555
C6 C5 1_555 1_555
N1 C2 1_555 1_555
N2 C4 1_555 1_555
O1 C1 1_555 1_555
O2 C1 1_555 1_555
O3 C4 1_555 1_555
O4 C6 1_555 1_555
O5 C6 1_555 1_555
H7 N2 1_555 1_555
H8 N2 1_555 1_555
H9 N1 1_555 1_555
Ag1B O1 1_555 1_555
Ag1 O4 1_555 1_555
Ag1B_2 O5 1_555 1_555
Ag1_2 O5 1_555 1_555
O4B Ag1B 1_555 1_555
O5_2 Ag1B 1_555 1_555
O5B Ag1B 1_555 1_555
C3 N1 1_555 1_555
C5 N1 1_555 1_555

#END
