
#######################################################################
#
#                 Cambridge Crystallographic Data Centre
#                                CCDC 
#
#######################################################################
#
# If this CIF has been generated from an entry in the Cambridge 
# Structural Database, then it will include bibliographic, chemical, 
# crystal, experimental, refinement or atomic coordinate data resulting 
# from the CCDC's data processing and validation procedures.
#
#######################################################################

data_TUCCIE
_symmetry_cell_setting           triclinic
_symmetry_space_group_name_H-M   'P -1'
_symmetry_Int_Tables_number      2
_space_group_name_Hall           '-P 1'
loop_
_symmetry_equiv_pos_site_id
_symmetry_equiv_pos_as_xyz
1 x,y,z
2 -x,-y,-z
_cell_length_a                   11.2102(7)
_cell_length_b                   14.1375(12)
_cell_length_c                   18.9648(10)
_cell_angle_alpha                95.616(6)
_cell_angle_beta                 91.722(5)
_cell_angle_gamma                108.339(7)
_cell_volume                     2833.38
loop_
_atom_site_label
_atom_site_type_symbol
_atom_site_fract_x
_atom_site_fract_y
_atom_site_fract_z
Ag1 Ag 0.80853(5) 0.56894(5) 0.08273(3)
Ag2 Ag 0.63447(5) 0.13846(5) -0.62097(3)
Ag3 Ag 0.29293(5) 0.19526(4) -0.13391(3)
Ag4 Ag 1.15261(5) 0.50101(5) -0.39894(3)
Ag5 Ag -0.24195(5) -0.25885(5) -0.54596(3)
Ag6 Ag 1.67089(5) 0.98850(4) 0.00457(3)
C1 C 0.7001(7) 0.6132(5) 0.3001(4)
H1 H 0.6309 0.5794 0.3239
C2 C 0.8858(6) 0.3383(5) -0.4357(3)
C3 C 0.7614(7) 0.0707(5) -0.8291(4)
H2 H 0.8396 0.0883 -0.8484
C4 C 0.5515(7) -0.0192(5) -0.8382(4)
C5 C 0.7529(6) 0.1099(5) -0.7629(4)
H3 H 0.8243 0.1550 -0.7381
C6 C 0.0710(6) 0.1474(5) -0.0246(4)
H4 H 0.1368 0.1889 0.0063
C7 C 1.1360(7) 0.5751(5) -0.2490(4)
C8 C 1.5615(6) 0.6790(5) -0.4307(4)
C9 C 0.8925(6) 0.7328(5) 0.3006(4)
C10 C -0.0464(6) 0.1089(5) 0.0004(4)
H5 H -0.0575 0.1248 0.0480
C11 C 0.4336(6) 0.3379(5) -0.0010(4)
H6 H 0.3566 0.3088 0.0179
C12 C 1.4766(6) 0.6093(5) -0.5424(4)
H7 H 1.4843 0.6021 -0.5911
C13 C 0.7027(7) 0.5862(6) 0.2300(4)
H8 H 0.6340 0.5359 0.2069
C14 C 0.8932(6) 0.7015(5) 0.2275(4)
H9 H 0.9626 0.7337 0.2031
C15 C 0.4072(6) 0.0591(5) -0.5444(4)
C16 C -0.0028(6) 0.0692(5) -0.1363(4)
H10 H 0.0087 0.0555 -0.1841
C17 C 0.7886(7) 0.2681(5) -0.4817(4)
H11 H 0.7150 0.2312 -0.4628
C18 C 0.5422(7) 0.0216(5) -0.7690(4)
H12 H 0.4646 0.0043 -0.7491
C19 C 0.5603(6) 0.3544(5) -0.0951(4)
C20 C 1.3652(7) 0.5614(6) -0.5167(4)
H13 H 1.2987 0.5217 -0.5479
C21 C 0.9092(7) 0.3065(5) -0.5767(4)
H14 H 0.9194 0.2980 -0.6251
C22 C 1.0341(7) 0.6422(5) 0.0043(4)
C23 C 0.1133(6) -0.0437(5) -0.4424(3)
C24 C 1.1243(6) 0.6641(5) -0.0529(3)
C25 C -0.1253(6) 0.0284(5) -0.1088(4)
C26 C 1.0042(6) 0.3718(5) -0.5327(4)
H15 H 1.0791 0.4053 -0.5520
C27 C 0.3522(6) 0.0968(5) -0.4197(3)
H16 H 0.4317 0.1445 -0.4121
C28 C 1.0877(6) 0.6113(5) -0.1208(4)
H17 H 1.0077 0.5646 -0.1300
C29 C -0.0149(6) -0.1188(5) -0.4549(4)
C30 C 0.5265(6) 0.4058(5) 0.0410(4)
H18 H 0.5125 0.4220 0.0881
C31 C 0.3169(6) 0.1372(5) -0.2913(4)
C32 C 1.2951(6) 0.6979(5) -0.1591(4)
H19 H 1.3535 0.7083 -0.1937
C33 C 1.4446(7) 0.6302(5) -0.4040(4)
H20 H 1.4344 0.6404 -0.3557
C34 C 1.1740(6) 0.6295(5) -0.1759(3)
C35 C 0.3156(6) 0.0433(5) -0.4858(3)
C36 C 1.2432(6) 0.7328(5) -0.0395(4)
H21 H 1.2665 0.7684 0.0054
C37 C 0.1952(6) -0.0277(5) -0.4960(3)
H22 H 0.1699 -0.0651 -0.5401
C38 C 1.3293(6) 0.7498(5) -0.0926(3)
C39 C 0.2733(5) 0.0811(5) -0.3648(3)
C40 C 0.6535(6) 0.4230(5) -0.0501(4)
H23 H 0.7315 0.4514 -0.0680
C41 C 0.1544(6) 0.0101(5) -0.3761(3)
H24 H 0.1015 -0.0015 -0.3388
C42 C 1.4592(6) 0.8262(5) -0.0768(4)
N1 N -0.2124(7) -0.0381(6) -0.1551(4)
H25 H -0.2854 -0.0694 -0.1414
H26 H -0.1950 -0.0493 -0.1984
N2 N 0.8664(6) 0.3539(5) -0.3677(3)
H27 H 0.9235 0.3975 -0.3397
H28 H 0.7967 0.3203 -0.3515
N3 N 1.6553(6) 0.7327(5) -0.3845(4)
H29 H 1.7285 0.7610 -0.3990
H30 H 1.6428 0.7391 -0.3400
N4 N 0.5795(5) 0.3324(4) -0.1636(3)
H31 H 0.5200 0.2902 -0.1911
H32 H 0.6513 0.3606 -0.1800
N5 N 0.4463(7) -0.0854(5) -0.8731(4)
H33 H 0.4496 -0.1113 -0.9157
H34 H 0.3764 -0.1015 -0.8527
N6 N 0.9937(5) 0.3897(4) -0.4622(3)
N7 N 0.8004(5) 0.2542(4) -0.5505(3)
N8 N 1.5769(5) 0.6672(4) -0.5001(3)
N9 N 1.3494(5) 0.5705(5) -0.4461(3)
N10 N 0.7939(5) 0.6871(4) 0.3366(3)
N11 N 0.8011(5) 0.6296(4) 0.1926(3)
N12 N 0.6387(5) 0.4505(4) 0.0163(3)
N13 N 0.4486(5) 0.3105(4) -0.0697(3)
N14 N -0.1454(5) 0.0494(4) -0.0414(3)
N15 N 0.0927(5) 0.1261(4) -0.0927(3)
N16 N 0.6608(5) 0.0066(4) -0.8691(3)
N17 N 0.6425(5) 0.0847(4) -0.7316(3)
N18 N 0.9873(5) 0.8078(4) 0.3333(3)
H35 H 0.9853 0.8270 0.3776
H36 H 1.0508 0.8372 0.3102
O1 O 1.5387(4) 0.8314(4) -0.1209(3)
O3 O 1.4751(4) 0.8801(4) -0.0173(2)
O5 O 1.2165(4) 0.5970(4) -0.2940(3)
O7 O 1.0287(4) 0.5102(4) -0.2606(3)
O9 O 1.0733(5) 0.6706(4) 0.0668(3)
O11 O 0.9197(5) 0.5978(4) -0.0160(3)
O13 O 0.5100(4) 0.1254(4) -0.5303(2)
O15 O 0.3724(4) 0.0064(4) -0.6036(2)
O17 O -0.0451(4) -0.1624(3) -0.5172(2)
O19 O -0.0867(4) -0.1365(3) -0.4053(3)
O20 O 0.4282(4) 0.1948(4) -0.2812(3)
O21 O 0.2372(4) 0.1241(3) -0.2447(2)
Ag5_2 Ag 0.75805(5) 0.74115(5) 0.45404(3)
Ag5_3 Ag 1.75805(5) 0.74115(5) -0.54596(3)
Ag6_2 Ag -0.32911(5) -0.01150(4) 0.00457(3)
Ag6_3 Ag 0.67089(5) -0.01150(4) -0.99543(3)
N8_2 N -0.4231(5) -0.3328(4) -0.5001(3)
N10_2 N -0.2061(5) -0.3129(4) -0.6634(3)
N14_2 N 1.8546(5) 1.0494(4) -0.0414(3)
N16_2 N 1.6608(5) 1.0066(4) 0.1309(3)
O2 O -0.0672(10) -0.2361(9) -0.2783(8)
H37 H -0.0577 -0.1932 -0.3111
H38 H -0.0644 -0.1903 -0.2388
O4 O 0.7944(9) 0.6600(10) -0.1192(5)
H39 H 0.8229 0.6326 -0.0839
H40 H 0.8650 0.7104 -0.1246
O6 O 0.8205(10) 0.5754(7) -0.3181(5)
H41 H 0.8888 0.5539 -0.3237
H42 H 0.8188 0.6013 -0.3585
O8 O 1.6151(9) 0.7357(11) -0.2336(5)
H43 H 1.6026 0.7708 -0.1973
H44 H 1.5563 0.6734 -0.2284
O10 O 0.2159(6) -0.1743(5) -0.7997(4)
H45 H 0.1856 -0.1402 -0.8279
H46 H 0.1761 -0.1710 -0.7613
O12 O 1.1538(5) 0.6060(4) 0.1840(3)
H47 H 1.1209 0.6251 0.1477
H48 H 1.0905 0.5791 0.2081
O14 O 0.1798(5) 0.0205(5) -0.6919(3)
H49 H 0.2543 0.0328 -0.6702
H50 H 0.1333 0.0310 -0.6588
O16 O 0.6546(4) 0.1856(4) -0.3287(3)
H51 H 0.5850 0.1806 -0.3089
H52 H 0.6416 0.1280 -0.3537
O18 O 0.6112(12) 0.5353(13) -0.2484(11)
H53 H 0.6202 0.5063 -0.2096
H54 H 0.6106 0.4803 -0.2817
loop_
_geom_bond_atom_site_label_1
_geom_bond_atom_site_label_2
_geom_bond_site_symmetry_1
_geom_bond_site_symmetry_2
Ag1 N11 1_555 1_555
Ag2 N7 1_555 1_555
Ag3 N13 1_555 1_555
Ag4 N6 1_555 1_555
Ag5 O17 1_555 1_555
Ag6 O3 1_555 1_555
C1 H1 1_555 1_555
C2 C17 1_555 1_555
C3 H2 1_555 1_555
C4 C18 1_555 1_555
C5 C3 1_555 1_555
H3 C5 1_555 1_555
C6 H4 1_555 1_555
C7 C34 1_555 1_555
C8 C33 1_555 1_555
C9 C14 1_555 1_555
C10 C6 1_555 1_555
H5 C10 1_555 1_555
C11 H6 1_555 1_555
C12 H7 1_555 1_555
C13 C1 1_555 1_555
H8 C13 1_555 1_555
C14 H9 1_555 1_555
C15 C35 1_555 1_555
C16 H10 1_555 1_555
C17 H11 1_555 1_555
C18 H12 1_555 1_555
C19 C40 1_555 1_555
C20 C12 1_555 1_555
H13 C20 1_555 1_555
C21 H14 1_555 1_555
C22 C24 1_555 1_555
C23 C29 1_555 1_555
C24 C28 1_555 1_555
C25 C16 1_555 1_555
C26 C21 1_555 1_555
H15 C26 1_555 1_555
C27 H16 1_555 1_555
C28 H17 1_555 1_555
C29 O17 1_555 1_555
C30 C11 1_555 1_555
H18 C30 1_555 1_555
C31 C39 1_555 1_555
C32 H19 1_555 1_555
C33 H20 1_555 1_555
C34 C28 1_555 1_555
C35 C27 1_555 1_555
C36 C24 1_555 1_555
H21 C36 1_555 1_555
C37 C23 1_555 1_555
H22 C37 1_555 1_555
C38 C32 1_555 1_555
C39 C27 1_555 1_555
C40 H23 1_555 1_555
C41 C23 1_555 1_555
H24 C41 1_555 1_555
C42 C38 1_555 1_555
N1 C25 1_555 1_555
H25 N1 1_555 1_555
H26 N1 1_555 1_555
N2 C2 1_555 1_555
H27 N2 1_555 1_555
H28 N2 1_555 1_555
N3 C8 1_555 1_555
H29 N3 1_555 1_555
H30 N3 1_555 1_555
N4 C19 1_555 1_555
H31 N4 1_555 1_555
H32 N4 1_555 1_555
N5 C4 1_555 1_555
H33 N5 1_555 1_555
H34 N5 1_555 1_555
N6 C2 1_555 1_555
N7 C17 1_555 1_555
N8 C8 1_555 1_555
N9 Ag4 1_555 1_555
N10 C1 1_555 1_555
N11 C13 1_555 1_555
N12 Ag1 1_555 1_555
N13 C11 1_555 1_555
N14 C10 1_555 1_555
N15 Ag3 1_555 1_555
N16 C3 1_555 1_555
N17 Ag2 1_555 1_555
N18 C9 1_555 1_555
H35 N18 1_555 1_555
H36 N18 1_555 1_555
O1 C42 1_555 1_555
O2 H37 1_555 1_555
O3 C42 1_555 1_555
O4 H39 1_555 1_555
O5 Ag4 1_555 1_555
O6 H41 1_555 1_555
O7 C7 1_555 1_555
O8 H43 1_555 1_555
O9 C22 1_555 1_555
O10 H45 1_555 1_555
O11 Ag1 1_555 1_555
O12 H47 1_555 1_555
O13 Ag2 1_555 1_555
O14 H49 1_555 1_555
O15 C15 1_555 1_555
O16 H51 1_555 1_555
O18 H53 1_555 1_555
O19 C29 1_555 1_555
O20 C31 1_555 1_555
O21 Ag3 1_555 1_555
H38 O2 1_555 1_555
H40 O4 1_555 1_555
H42 O6 1_555 1_555
H44 O8 1_555 1_555
H46 O10 1_555 1_555
H48 O12 1_555 1_555
H50 O14 1_555 1_555
H52 O16 1_555 1_555
H54 O18 1_555 1_555
Ag5_2 N10 1_555 1_555
Ag5_3 N8 1_555 1_555
Ag6_2 N14 1_555 1_555
Ag6_3 N16 1_555 1_555
N8_2 Ag5 1_555 1_555
N10_2 Ag5 1_555 1_555
N14_2 Ag6 1_555 1_555
N16_2 Ag6 1_555 1_555
C4 N16 1_555 1_555
C5 N17 1_555 1_555
C6 N15 1_555 1_555
C7 O5 1_555 1_555
C9 N10 1_555 1_555
C12 N8 1_555 1_555
C14 N11 1_555 1_555
C15 O13 1_555 1_555
C16 N15 1_555 1_555
C18 N17 1_555 1_555
C19 N13 1_555 1_555
C20 N9 1_555 1_555
C21 N7 1_555 1_555
C22 O11 1_555 1_555
C25 N14 1_555 1_555
C26 N6 1_555 1_555
C30 N12 1_555 1_555
C31 O21 1_555 1_555
C32 C34 1_555 1_555
C33 N9 1_555 1_555
C35 C37 1_555 1_555
C36 C38 1_555 1_555
C39 C41 1_555 1_555
C40 N12 1_555 1_555

#END
