
#######################################################################
#
#                 Cambridge Crystallographic Data Centre
#                                CCDC 
#
#######################################################################
#
# If this CIF has been generated from an entry in the Cambridge 
# Structural Database, then it will include bibliographic, chemical, 
# crystal, experimental, refinement or atomic coordinate data resulting 
# from the CCDC's data processing and validation procedures.
#
#######################################################################

data_TUCCIF
_symmetry_cell_setting           monoclinic
_symmetry_space_group_name_H-M   'P 21/n'
_symmetry_Int_Tables_number      14
_space_group_name_Hall           '-P 2yn'
loop_
_symmetry_equiv_pos_site_id
_symmetry_equiv_pos_as_xyz
1 x,y,z
2 1/2-x,1/2+y,1/2-z
3 -x,-y,-z
4 1/2+x,1/2-y,1/2+z
_cell_length_a                   4.7582(3)
_cell_length_b                   11.1853(6)
_cell_length_c                   17.4220(10)
_cell_angle_alpha                90
_cell_angle_beta                 90.5800(10)
_cell_angle_gamma                90
_cell_volume                     927.184
loop_
_atom_site_label
_atom_site_type_symbol
_atom_site_fract_x
_atom_site_fract_y
_atom_site_fract_z
Ag1 Ag -0.26248(4) 0.035939(17) 0.046775(12)
P1 P 0.92975(11) 0.24136(5) 0.46441(3)
O1 O 0.7995(3) 0.34273(14) 0.41855(9)
O2 O 1.1829(3) 0.27560(14) 0.51318(9)
O3 O 0.6998(3) 0.18160(16) 0.51608(10)
H1 H 0.6378 0.2313 0.5461
O4 O 0.1872(4) 0.03651(15) 0.11553(10)
O5 O 0.0924(4) -0.12369(16) 0.18775(10)
H2 H -0.0301 -0.1342 0.1550
C1 C 1.0498(4) 0.1245(2) 0.40125(13)
H3 H 1.2141 0.1529 0.3743
H4 H 1.1074 0.0565 0.4322
C2 C 0.8349(4) 0.0829(2) 0.34280(12)
C3 C 0.6821(5) -0.0217(2) 0.35283(13)
H5 H 0.7140 -0.0684 0.3962
C4 C 0.4829(5) -0.0573(2) 0.29897(13)
H6 H 0.3803 -0.1270 0.3066
C5 C 0.4363(4) 0.0113(2) 0.23328(12)
C6 C 0.5867(5) 0.1169(2) 0.22320(13)
H7 H 0.5539 0.1641 0.1801
C7 C 0.7848(5) 0.1517(2) 0.27738(13)
H8 H 0.8859 0.2218 0.2701
C8 C 0.2267(5) -0.02363(19) 0.17338(13)
Ag1A Ag 0.76248(4) 0.535939(17) 0.453225(12)
Ag1B Ag -0.73752(4) -0.035939(17) -0.046775(12)
Ag1B_2 Ag 0.26248(4) -0.035939(17) -0.046775(12)
Ag1C Ag 1.23752(4) 0.464061(17) 0.546775(12)
O1A O -0.2995(3) -0.15727(14) 0.08145(9)
O2C O -0.3171(3) 0.22440(14) 0.01318(9)
loop_
_geom_bond_atom_site_label_1
_geom_bond_atom_site_label_2
_geom_bond_site_symmetry_1
_geom_bond_site_symmetry_2
Ag1 O4 1_555 1_555
P1 O1 1_555 1_555
O1 Ag1A 1_555 1_555
O2 P1 1_555 1_555
O3 P1 1_555 1_555
H1 O3 1_555 1_555
O4 C8 1_555 1_555
O5 H2 1_555 1_555
C1 P1 1_555 1_555
H3 C1 1_555 1_555
H4 C1 1_555 1_555
C2 C1 1_555 1_555
C3 C2 1_555 1_555
H5 C3 1_555 1_555
C4 C3 1_555 1_555
H6 C4 1_555 1_555
C5 C4 1_555 1_555
C6 C5 1_555 1_555
H7 C6 1_555 1_555
C7 C2 1_555 1_555
H8 C7 1_555 1_555
C8 O5 1_555 1_555
Ag1A Ag1C 1_555 1_555
Ag1B Ag1 1_555 1_555
Ag1B_2 Ag1 1_555 1_555
Ag1C O2 1_555 1_555
O1A Ag1 1_555 1_555
O2C Ag1 1_555 1_555
C5 C8 1_555 1_555
C6 C7 1_555 1_555

#END
