
#######################################################################
#
#                 Cambridge Crystallographic Data Centre
#                                CCDC 
#
#######################################################################
#
# If this CIF has been generated from an entry in the Cambridge 
# Structural Database, then it will include bibliographic, chemical, 
# crystal, experimental, refinement or atomic coordinate data resulting 
# from the CCDC's data processing and validation procedures.
#
#######################################################################

data_TUCDAX
_symmetry_cell_setting           monoclinic
_symmetry_space_group_name_H-M   'P 21/c'
_symmetry_Int_Tables_number      14
_space_group_name_Hall           '-P 2ybc'
loop_
_symmetry_equiv_pos_site_id
_symmetry_equiv_pos_as_xyz
1 x,y,z
2 -x,1/2+y,1/2-z
3 -x,-y,-z
4 x,1/2-y,1/2+z
_cell_length_a                   11.6856(4)
_cell_length_b                   11.2224(5)
_cell_length_c                   13.8171(5)
_cell_angle_alpha                90
_cell_angle_beta                 104.290(2)
_cell_angle_gamma                90
_cell_volume                     1755.92
loop_
_atom_site_label
_atom_site_type_symbol
_atom_site_fract_x
_atom_site_fract_y
_atom_site_fract_z
U1 U 0.260611(12) 0.445054(12) 0.003223(9)
Cu1 Cu 0.25402(4) 0.32242(4) 0.26295(3)
O1 O 0.1857(2) 0.3659(2) 0.07996(18)
O2 O 0.3354(3) 0.5243(2) -0.07267(19)
O3 O 0.4010(2) 0.5005(2) 0.15090(18)
O4 O 0.4197(2) 0.3662(2) 0.27491(18)
O5 O 0.1200(2) 0.3875(2) -0.14218(18)
O6 O 0.0920(2) 0.2238(2) -0.23816(18)
O7 O 0.2270(2) 0.6445(2) 0.07711(19)
O8 O 0.0870(2) 0.5816(2) -0.04458(19)
O9 O 0.0682(3) 0.7544(2) 0.0235(2)
O10 O 0.3057(2) 0.2448(2) -0.06606(18)
O11 O 0.4366(3) 0.3060(2) 0.06156(19)
O12 O 0.4554(3) 0.1304(2) 0.0007(2)
C1 C 0.4574(3) 0.4510(3) 0.2307(3)
C2 C 0.5778(3) 0.4985(3) 0.2783(3)
C3 C 0.6076(3) 0.6092(3) 0.2464(3)
H1 H 0.5533 0.6486 0.1961
C4 C 0.7908(3) 0.6027(3) 0.3594(3)
H2 H 0.8633 0.6379 0.3877
C5 C 0.7662(4) 0.4924(3) 0.3934(3)
H3 H 0.8219 0.4540 0.4434
C6 C 0.6590(4) 0.4395(3) 0.3530(3)
H4 H 0.6412 0.3653 0.3755
C7 C 0.0571(3) 0.3183(3) -0.2052(3)
C8 C -0.0686(3) 0.3523(3) -0.2494(3)
C9 C -0.1039(3) 0.4691(3) -0.2419(3)
H5 H -0.0504 0.5222 -0.2034
C10 C -0.2899(3) 0.4306(3) -0.3428(3)
H6 H -0.3641 0.4578 -0.3768
C11 C -0.2625(3) 0.3111(3) -0.3502(3)
H7 H -0.3187 0.2584 -0.3860
C12 C -0.1505(3) 0.2719(3) -0.3036(3)
H8 H -0.1299 0.1924 -0.3083
N1 N 0.7126(3) 0.6612(3) 0.2862(2)
N2 N -0.2123(3) 0.5089(3) -0.2878(2)
N3 N 0.1244(3) 0.6642(3) 0.0193(2)
N4 N 0.4026(3) 0.2227(3) -0.0011(2)
Cu1C Cu 0.25402(4) 0.17758(4) -0.23705(3)
Cu1A Cu 0.74598(4) 0.82242(4) 0.23705(3)
Cu1B Cu -0.25402(4) 0.67758(4) -0.26295(3)
O6C O 0.0920(2) 0.2762(2) 0.26184(18)
O10C O 0.3057(2) 0.2552(2) 0.43394(18)
N1A N 0.2874(3) 0.1612(3) 0.2138(2)
N2B N 0.2123(3) 0.4911(3) 0.2878(2)
loop_
_geom_bond_atom_site_label_1
_geom_bond_atom_site_label_2
_geom_bond_site_symmetry_1
_geom_bond_site_symmetry_2
U1 O1 1_555 1_555
Cu1 O1 1_555 1_555
O2 U1 1_555 1_555
O3 U1 1_555 1_555
O4 Cu1 1_555 1_555
O5 U1 1_555 1_555
O6 C7 1_555 1_555
O7 U1 1_555 1_555
O8 U1 1_555 1_555
O9 N3 1_555 1_555
O10 U1 1_555 1_555
O11 U1 1_555 1_555
O12 N4 1_555 1_555
C1 O3 1_555 1_555
C2 C1 1_555 1_555
C3 C2 1_555 1_555
H1 C3 1_555 1_555
C4 H2 1_555 1_555
C5 C4 1_555 1_555
H3 C5 1_555 1_555
C6 C2 1_555 1_555
H4 C6 1_555 1_555
C7 O5 1_555 1_555
C8 C7 1_555 1_555
C9 C8 1_555 1_555
H5 C9 1_555 1_555
C10 H6 1_555 1_555
C11 C10 1_555 1_555
H7 C11 1_555 1_555
C12 C8 1_555 1_555
H8 C12 1_555 1_555
N1 C3 1_555 1_555
N2 C9 1_555 1_555
N3 O7 1_555 1_555
N4 O10 1_555 1_555
Cu1C O6 1_555 1_555
Cu1A N1 1_555 1_555
Cu1B N2 1_555 1_555
O6C Cu1 1_555 1_555
O10C Cu1 1_555 1_555
N1A Cu1 1_555 1_555
N2B Cu1 1_555 1_555
O4 C1 1_555 1_555
O8 N3 1_555 1_555
O10 Cu1C 1_555 1_555
O11 N4 1_555 1_555
C4 N1 1_555 1_555
C5 C6 1_555 1_555
C10 N2 1_555 1_555
C11 C12 1_555 1_555

#END
