
#######################################################################
#
#                 Cambridge Crystallographic Data Centre
#                                CCDC 
#
#######################################################################
#
# If this CIF has been generated from an entry in the Cambridge 
# Structural Database, then it will include bibliographic, chemical, 
# crystal, experimental, refinement or atomic coordinate data resulting 
# from the CCDC's data processing and validation procedures.
#
#######################################################################

data_TUCHIJ
_symmetry_cell_setting           triclinic
_symmetry_space_group_name_H-M   'P -1'
_symmetry_Int_Tables_number      2
_space_group_name_Hall           '-P 1'
loop_
_symmetry_equiv_pos_site_id
_symmetry_equiv_pos_as_xyz
1 x,y,z
2 -x,-y,-z
_cell_length_a                   11.234(2)
_cell_length_b                   12.414(3)
_cell_length_c                   13.347(3)
_cell_angle_alpha                104.93(3)
_cell_angle_beta                 95.00(3)
_cell_angle_gamma                104.27(3)
_cell_volume                     1720.32
loop_
_atom_site_label
_atom_site_type_symbol
_atom_site_fract_x
_atom_site_fract_y
_atom_site_fract_z
Zn1 Zn 0.21211(4) 0.65957(4) 0.05633(4)
Zn2 Zn -0.33823(4) 0.63388(4) 0.11342(4)
S1 S -0.07418(9) 0.60683(8) 0.09842(8)
S2 S 0.46445(9) 0.62503(8) -0.06574(8)
O1 O 0.4178(3) 1.2300(3) 0.4257(3)
O2 O -0.1818(4) 1.1356(3) 0.5566(3)
O3 O 0.0384(3) 0.6845(2) 0.0804(2)
O4 O -0.1577(3) 0.6823(2) 0.1321(2)
O5 O -0.0455(3) 0.5553(3) 0.1799(2)
O6 O -0.1383(3) 0.5185(2) 0.0008(2)
O7 O 0.3963(3) 0.6349(2) 0.0235(2)
O8 O 0.5944(3) 0.6290(3) -0.0266(2)
O9 O 0.4696(3) 0.7149(3) -0.1166(3)
O10 O 0.4098(3) 0.5097(3) -0.1450(2)
O11 O 0.1956(3) 0.6988(3) -0.0841(3)
O12 O 0.2492(3) 0.6317(3) 0.2019(2)
N1 N 0.3023(3) 0.8414(3) 0.1298(3)
N2 N 0.2529(3) 1.0819(3) 0.3298(3)
H1 H 0.1741 1.0533 0.3260
N3 N 0.1026(3) 1.1569(3) 0.4578(3)
N4 N -0.1369(3) 1.0353(3) 0.4031(3)
H2 H -0.0788 1.0338 0.3652
N5 N -0.3535(3) 0.7704(3) 0.2313(3)
N6 N 0.3101(5) 0.5275(4) 0.3033(4)
N7 N 0.1064(6) 0.6812(5) -0.2488(5)
C1 C 0.4027(4) 0.8972(4) 0.0958(3)
H3 H 0.4346 0.8549 0.0420
C2 C 0.4594(4) 1.0137(4) 0.1374(4)
H4 H 0.5288 1.0487 0.1121
C3 C 0.4141(4) 1.0790(4) 0.2163(4)
H5 H 0.4511 1.1583 0.2448
C4 C 0.3109(4) 1.0228(3) 0.2523(3)
C5 C 0.2597(4) 0.9046(3) 0.2076(3)
H6 H 0.1919 0.8672 0.2332
C6 C 0.3087(4) 1.1783(4) 0.4088(3)
C7 C 0.2196(4) 1.2213(4) 0.4780(3)
C8 C 0.2642(5) 1.3244(4) 0.5593(3)
H7 H 0.3470 1.3679 0.5704
C9 C 0.1834(5) 1.3600(4) 0.6225(3)
H8 H 0.2105 1.4283 0.6776
C10 C 0.0604(5) 1.2930(4) 0.6035(3)
H9 H 0.0039 1.3153 0.6456
C11 C 0.0238(4) 1.1921(4) 0.5202(3)
C12 C -0.1088(5) 1.1186(4) 0.4967(3)
C13 C -0.2517(4) 0.9511(4) 0.3618(3)
C14 C -0.3646(4) 0.9572(4) 0.3939(3)
H10 H -0.3692 1.0197 0.4480
C15 C -0.4694(4) 0.8686(4) 0.3439(4)
H11 H -0.5457 0.8706 0.3650
C16 C -0.4623(4) 0.7772(4) 0.2630(3)
H12 H -0.5345 0.7187 0.2295
C17 C -0.2511(4) 0.8554(3) 0.2805(3)
H13 H -0.1755 0.8503 0.2593
C18 C 0.1070(7) 0.6727(5) -0.1483(5)
H14 H 0.0304 0.6438 -0.1294
C19 C 0.2279(9) 0.7223(9) -0.2887(7)
H15 H 0.2951 0.7110 -0.2469
H16 H 0.2436 0.8032 -0.2838
H17 H 0.2213 0.6785 -0.3607
C20 C -0.0092(10) 0.6414(12) -0.3208(9)
H18 H -0.0741 0.6024 -0.2897
H19 H -0.0007 0.5887 -0.3847
H20 H -0.0299 0.7067 -0.3361
C21 C 0.2818(5) 0.5449(5) 0.2120(4)
H21 H 0.2863 0.4896 0.1515
C22 C 0.3024(8) 0.6135(6) 0.4017(5)
H22 H 0.3845 0.6519 0.4408
H23 H 0.2522 0.5742 0.4432
H24 H 0.2656 0.6698 0.3845
C23 C 0.3564(8) 0.4279(7) 0.3062(6)
H25 H 0.3697 0.3907 0.2372
H26 H 0.2965 0.3737 0.3294
H27 H 0.4335 0.4538 0.3540
Zn1A Zn -0.21211(4) 0.34043(4) -0.05633(4)
Zn2_2 Zn 0.66177(4) 0.63388(4) 0.11342(4)
Zn2A Zn 0.33823(4) 0.36612(4) -0.11342(4)
O6A O 0.1383(3) 0.4815(2) -0.0008(2)
O8_2 O -0.4056(3) 0.6290(3) -0.0266(2)
O10A O -0.4098(3) 0.4903(3) 0.1450(2)
O13 O 0.9939(3) 0.9970(3) 0.2155(3)
N8 N 0.8759(4) 0.9247(4) 0.0528(3)
C24 C 0.7942(7) 0.9974(7) 0.0746(6)
H28 H 0.7095 0.9499 0.0588
H29 H 0.8053 1.0497 0.0321
H30 H 0.8131 1.0411 0.1475
C25 C 0.8479(6) 0.8397(5) -0.0482(4)
H31 H 0.9020 0.7905 -0.0508
H32 H 0.8600 0.8782 -0.1019
H33 H 0.7630 0.7937 -0.0596
C26 C 0.9661(4) 0.9302(4) 0.1240(4)
H34 H 1.0144 0.8795 0.1049
loop_
_geom_bond_atom_site_label_1
_geom_bond_atom_site_label_2
_geom_bond_site_symmetry_1
_geom_bond_site_symmetry_2
Zn1 O3 1_555 1_555
Zn2 O4 1_555 1_555
S1 O3 1_555 1_555
S2 O7 1_555 1_555
O1 C6 1_555 1_555
O2 C12 1_555 1_555
O4 S1 1_555 1_555
O5 S1 1_555 1_555
O6 S1 1_555 1_555
O7 Zn1 1_555 1_555
O8 S2 1_555 1_555
O9 S2 1_555 1_555
O10 S2 1_555 1_555
O11 Zn1 1_555 1_555
O12 Zn1 1_555 1_555
O13 C26 1_555 1_555
N1 Zn1 1_555 1_555
N2 H1 1_555 1_555
N3 C7 1_555 1_555
N4 H2 1_555 1_555
N5 Zn2 1_555 1_555
N6 C21 1_555 1_555
N7 C18 1_555 1_555
N8 C24 1_555 1_555
C1 N1 1_555 1_555
H3 C1 1_555 1_555
C2 C1 1_555 1_555
H4 C2 1_555 1_555
C3 C2 1_555 1_555
H5 C3 1_555 1_555
C4 N2 1_555 1_555
C5 N1 1_555 1_555
H6 C5 1_555 1_555
C6 N2 1_555 1_555
C7 C6 1_555 1_555
C8 C7 1_555 1_555
H7 C8 1_555 1_555
C9 C8 1_555 1_555
H8 C9 1_555 1_555
C10 C9 1_555 1_555
H9 C10 1_555 1_555
C11 N3 1_555 1_555
C12 N4 1_555 1_555
C13 N4 1_555 1_555
C14 C13 1_555 1_555
H10 C14 1_555 1_555
C15 C14 1_555 1_555
H11 C15 1_555 1_555
C16 N5 1_555 1_555
H12 C16 1_555 1_555
C17 N5 1_555 1_555
H13 C17 1_555 1_555
C18 O11 1_555 1_555
H14 C18 1_555 1_555
C19 N7 1_555 1_555
H15 C19 1_555 1_555
H16 C19 1_555 1_555
H17 C19 1_555 1_555
C20 N7 1_555 1_555
H18 C20 1_555 1_555
H19 C20 1_555 1_555
H20 C20 1_555 1_555
C21 O12 1_555 1_555
H21 C21 1_555 1_555
C22 N6 1_555 1_555
H22 C22 1_555 1_555
H23 C22 1_555 1_555
H24 C22 1_555 1_555
C23 N6 1_555 1_555
H25 C23 1_555 1_555
H26 C23 1_555 1_555
H27 C23 1_555 1_555
C24 H28 1_555 1_555
H29 C24 1_555 1_555
H30 C24 1_555 1_555
C25 N8 1_555 1_555
H31 C25 1_555 1_555
H32 C25 1_555 1_555
H33 C25 1_555 1_555
C26 N8 1_555 1_555
H34 C26 1_555 1_555
Zn1A O6 1_555 1_555
Zn2_2 O8 1_555 1_555
Zn2A O10 1_555 1_555
O6A Zn1 1_555 1_555
O8_2 Zn2 1_555 1_555
O10A Zn2 1_555 1_555
C3 C4 1_555 1_555
C4 C5 1_555 1_555
C10 C11 1_555 1_555
C11 C12 1_555 1_555
C13 C17 1_555 1_555
C15 C16 1_555 1_555

#END
