
#######################################################################
#
#                 Cambridge Crystallographic Data Centre
#                                CCDC 
#
#######################################################################
#
# If this CIF has been generated from an entry in the Cambridge 
# Structural Database, then it will include bibliographic, chemical, 
# crystal, experimental, refinement or atomic coordinate data resulting 
# from the CCDC's data processing and validation procedures.
#
#######################################################################

data_TUCHOP
_symmetry_cell_setting           triclinic
_symmetry_space_group_name_H-M   'P -1'
_symmetry_Int_Tables_number      2
_space_group_name_Hall           '-P 1'
loop_
_symmetry_equiv_pos_site_id
_symmetry_equiv_pos_as_xyz
1 x,y,z
2 -x,-y,-z
_cell_length_a                   8.7223(10)
_cell_length_b                   9.8482(10)
_cell_length_c                   15.6646(17)
_cell_angle_alpha                71.9850(10)
_cell_angle_beta                 77.1870(10)
_cell_angle_gamma                89.8540(10)
_cell_volume                     1244.58
loop_
_atom_site_label
_atom_site_type_symbol
_atom_site_fract_x
_atom_site_fract_y
_atom_site_fract_z
Co1 Co 0.47272(3) 0.20115(3) 0.356006(19)
S1 S 0.60819(7) -0.12375(6) 0.41443(4)
O1 O 1.0981(2) 0.6163(2) 0.02360(12)
O2 O 0.6756(2) 1.21987(19) -0.11953(11)
O3 O 0.5634(2) 0.01082(17) 0.35450(10)
O4 O 0.50033(18) -0.16407(16) 0.50741(10)
O5 O 0.5967(2) -0.23577(17) 0.37268(11)
O6 O 0.77031(19) -0.1023(2) 0.42247(11)
O7 O 0.3746(2) 0.40036(17) 0.35011(11)
O8 O 0.2346(2) 0.11786(18) 0.40762(12)
N1 N 0.6994(2) 0.31833(19) 0.29900(12)
N2 N 0.8700(2) 0.6507(2) 0.11649(13)
H1 H 0.7990 0.7100 0.1226
N3 N 0.8504(2) 0.9042(2) -0.01477(12)
N4 N 0.6384(2) 1.0855(2) 0.03201(12)
H2 H 0.6561 1.0039 0.0675
N5 N 0.4519(2) 1.2297(2) 0.21495(12)
N6 N 0.2537(2) 0.5448(2) 0.42823(13)
C1 C 0.8279(3) 0.2650(2) 0.32664(15)
H3 H 0.8175 0.1767 0.3725
C2 C 0.9753(3) 0.3361(3) 0.28954(16)
H4 H 1.0619 0.2971 0.3112
C3 C 0.9932(3) 0.4661(3) 0.21981(16)
H5 H 1.0917 0.5153 0.1939
C4 C 0.8625(3) 0.5212(2) 0.18939(15)
C5 C 0.7180(3) 0.4453(2) 0.23168(15)
H6 H 0.6292 0.4839 0.2126
C6 C 0.9846(3) 0.6856(2) 0.03716(16)
C7 C 0.9621(3) 0.8196(2) -0.03699(15)
C8 C 1.0578(3) 0.8482(3) -0.12474(16)
H7 H 1.1332 0.7858 -0.1374
C9 C 1.0394(3) 0.9706(3) -0.19307(16)
H8 H 1.1030 0.9933 -0.2524
C10 C 0.9248(3) 1.0582(3) -0.17119(16)
H9 H 0.9096 1.1415 -0.2158
C11 C 0.8321(3) 1.0217(2) -0.08213(15)
C12 C 0.7072(3) 1.1185(3) -0.05881(15)
C13 C 0.5401(3) 1.1723(2) 0.07416(15)
C14 C 0.4543(3) 1.2779(3) 0.02941(16)
H10 H 0.4541 1.2939 -0.0323
C15 C 0.3686(3) 1.3593(3) 0.07870(16)
H11 H 0.3092 1.4307 0.0506
C16 C 0.3725(3) 1.3332(3) 0.16971(16)
H12 H 0.3169 1.3905 0.2014
C17 C 0.5324(3) 1.1504(2) 0.16716(15)
H13 H 0.5862 1.0763 0.1979
C18 C 0.3380(3) 0.4378(3) 0.42039(17)
H14 H 0.3738 0.3851 0.4717
C19 C 0.2047(4) 0.6412(3) 0.3502(2)
H15 H 0.2289 0.6042 0.2992
H16 H 0.2593 0.7336 0.3331
H17 H 0.0931 0.6498 0.3667
C20 C 0.2212(4) 0.5820(3) 0.51371(18)
H18 H 0.2497 0.5062 0.5618
H19 H 0.1110 0.5954 0.5312
H20 H 0.2817 0.6689 0.5042
C21 C 0.1804(3) -0.0099(3) 0.3957(2)
H21 H 0.2142 -0.0044 0.3320
H22 H 0.0674 -0.0208 0.4140
H23 H 0.2232 -0.0906 0.4331
H24 H 0.217(3) 0.110(3) 0.464(2)
Co1A Co 0.52728(3) -0.20115(3) 0.643994(19)
Co1_2 Co 0.47272(3) 1.20115(3) 0.356006(19)
O4A O 0.49967(18) 0.16407(16) 0.49259(10)
N5_2 N 0.4519(2) 0.2297(2) 0.21495(12)
O9 O 0.3925(2) 0.1993(2) 0.81084(13)
H25 H 0.394(3) 0.213(4) 0.7565(9)
H26 H 0.4810(18) 0.209(4) 0.8184(19)
loop_
_geom_bond_atom_site_label_1
_geom_bond_atom_site_label_2
_geom_bond_site_symmetry_1
_geom_bond_site_symmetry_2
Co1 O3 1_555 1_555
S1 O3 1_555 1_555
O1 C6 1_555 1_555
O2 C12 1_555 1_555
O4 S1 1_555 1_555
O5 S1 1_555 1_555
O6 S1 1_555 1_555
O7 Co1 1_555 1_555
O8 Co1 1_555 1_555
O9 H25 1_555 1_555
N1 Co1 1_555 1_555
N2 H1 1_555 1_555
N3 C7 1_555 1_555
N4 H2 1_555 1_555
N5 C16 1_555 1_555
N6 C18 1_555 1_555
C1 N1 1_555 1_555
H3 C1 1_555 1_555
C2 C1 1_555 1_555
H4 C2 1_555 1_555
C3 C2 1_555 1_555
H5 C3 1_555 1_555
C4 N2 1_555 1_555
C5 N1 1_555 1_555
H6 C5 1_555 1_555
C6 N2 1_555 1_555
C7 C6 1_555 1_555
C8 C7 1_555 1_555
H7 C8 1_555 1_555
C9 C8 1_555 1_555
H8 C9 1_555 1_555
C10 C9 1_555 1_555
H9 C10 1_555 1_555
C11 N3 1_555 1_555
C12 N4 1_555 1_555
C13 N4 1_555 1_555
C14 C13 1_555 1_555
H10 C14 1_555 1_555
C15 C14 1_555 1_555
H11 C15 1_555 1_555
C16 C15 1_555 1_555
H12 C16 1_555 1_555
C17 N5 1_555 1_555
H13 C17 1_555 1_555
C18 O7 1_555 1_555
H14 C18 1_555 1_555
C19 N6 1_555 1_555
H15 C19 1_555 1_555
H16 C19 1_555 1_555
H17 C19 1_555 1_555
C20 N6 1_555 1_555
H18 C20 1_555 1_555
H19 C20 1_555 1_555
H20 C20 1_555 1_555
C21 O8 1_555 1_555
H21 C21 1_555 1_555
H22 C21 1_555 1_555
H23 C21 1_555 1_555
H24 O8 1_555 1_555
H26 O9 1_555 1_555
Co1A O4 1_555 1_555
Co1_2 N5 1_555 1_555
O4A Co1 1_555 1_555
N5_2 Co1 1_555 1_555
C3 C4 1_555 1_555
C4 C5 1_555 1_555
C10 C11 1_555 1_555
C11 C12 1_555 1_555
C13 C17 1_555 1_555

#END
