
#######################################################################
#
#                 Cambridge Crystallographic Data Centre
#                                CCDC 
#
#######################################################################
#
# If this CIF has been generated from an entry in the Cambridge 
# Structural Database, then it will include bibliographic, chemical, 
# crystal, experimental, refinement or atomic coordinate data resulting 
# from the CCDC's data processing and validation procedures.
#
#######################################################################

data_TUCJAD
_symmetry_cell_setting           monoclinic
_symmetry_space_group_name_H-M   'P 21/c'
_symmetry_Int_Tables_number      14
_space_group_name_Hall           '-P 2ybc'
loop_
_symmetry_equiv_pos_site_id
_symmetry_equiv_pos_as_xyz
1 x,y,z
2 -x,1/2+y,1/2-z
3 -x,-y,-z
4 x,1/2-y,1/2+z
_cell_length_a                   17.9828(3)
_cell_length_b                   9.8552(2)
_cell_length_c                   21.3590(4)
_cell_angle_alpha                90
_cell_angle_beta                 103.9119(19)
_cell_angle_gamma                90
_cell_volume                     3674.29
loop_
_atom_site_label
_atom_site_type_symbol
_atom_site_fract_x
_atom_site_fract_y
_atom_site_fract_z
Mn1 Mn -0.196390(17) -0.11822(3) -0.121390(17)
Mn2 Mn -0.278830(16) -0.10540(3) -0.293970(17)
Mn3 Mn -0.286110(17) -0.28262(3) -0.442580(17)
S1 S -0.48669(3) 0.13245(6) -0.20972(3)
S2 S -0.23576(3) 0.19686(6) -0.50565(3)
S3 S 0.02692(3) 0.06469(6) -0.17301(3)
O1 O -0.12662(8) -0.03229(15) -0.17474(8)
O2 O -0.18324(8) 0.02688(15) -0.27624(8)
O3 O 0.18494(8) 0.16441(15) -0.12666(8)
O4 O 0.20121(8) 0.23044(15) -0.22287(8)
O5 O -0.30371(7) -0.09719(14) -0.19261(7)
O6 O -0.35922(7) 0.04836(14) -0.26766(8)
O7 O -0.63354(7) 0.13004(15) -0.10163(8)
O8 O -0.62455(7) 0.25956(15) -0.18616(8)
O9 O -0.29558(7) -0.07077(13) -0.39366(7)
O10 O -0.23213(8) -0.09051(14) -0.46951(8)
O11 O -0.25506(8) 0.59197(15) -0.51201(7)
O12 O -0.21777(8) 0.43954(14) -0.57342(8)
O13 O -0.21454(9) -0.33193(15) -0.13226(8)
O14 O -0.09600(8) -0.16584(16) -0.04954(8)
O15 O -0.38717(8) -0.21688(17) -0.51624(8)
C1 C -0.05299(12) 0.0751(2) -0.23613(11)
C2 C -0.03760(12) 0.1383(2) -0.28770(12)
H1 H -0.0747 0.1538 -0.3269
C3 C 0.03998(12) 0.1790(2) -0.27679(12)
H2 H 0.0608 0.2237 -0.3081
C4 C 0.08121(11) 0.1471(2) -0.21698(11)
C5 C -0.12715(13) 0.0202(2) -0.22879(13)
C6 C 0.16246(12) 0.1823(2) -0.18621(13)
C7 C -0.41306(11) 0.0213(2) -0.17856(11)
C8 C -0.42174(12) -0.0357(2) -0.12281(12)
H3 H -0.3867 -0.0994 -0.0986
C9 C -0.48766(12) 0.0090(2) -0.10447(12)
H4 H -0.5018 -0.0206 -0.0666
C10 C -0.52889(11) 0.0996(2) -0.14720(11)
C11 C -0.35506(12) -0.0077(2) -0.21442(12)
C12 C -0.60153(12) 0.1695(2) -0.14484(12)
C13 C -0.25697(12) 0.1287(2) -0.43822(11)
C14 C -0.27529(14) 0.2263(2) -0.39938(13)
H5 H -0.2894 0.2077 -0.3601
C15 C -0.27089(14) 0.3591(2) -0.42414(13)
H6 H -0.2811 0.4391 -0.4028
C16 C -0.25050(12) 0.3600(2) -0.48192(12)
C17 C -0.25975(12) -0.0187(2) -0.43241(12)
C18 C -0.24095(12) 0.4715(2) -0.52458(12)
C19 C -0.26257(13) -0.3956(3) -0.17305(13)
H7 H -0.3078 -0.3489 -0.1942
C20 C -0.31209(16) -0.5892(3) -0.24009(15)
H8 H -0.3581 -0.5324 -0.2521
H9 H -0.2907 -0.6024 -0.2778
H10 H -0.3255 -0.6774 -0.2247
C21 C -0.18521(14) -0.5965(3) -0.16380(15)
H11 H -0.1548 -0.5488 -0.1260
H12 H -0.1972 -0.6881 -0.1513
H13 H -0.1559 -0.6024 -0.1969
C22 C -0.09074(13) -0.2549(3) -0.00787(13)
H14 H -0.1359 -0.3035 -0.0062
C23 C -0.02497(14) -0.3944(3) 0.08226(14)
H15 H -0.0771 -0.4280 0.0788
H16 H 0.0075 -0.4690 0.0742
H17 H -0.0043 -0.3581 0.1257
C24 C 0.04337(13) -0.2134(3) 0.03513(14)
H18 H 0.0328 -0.1428 0.0019
H19 H 0.0627 -0.1714 0.0775
H20 H 0.0819 -0.2763 0.0264
C25 C -0.39455(15) -0.1167(3) -0.55089(13)
H21 H -0.3489 -0.0733 -0.5554
C26 C -0.46205(19) 0.0605(3) -0.62057(17)
H22 H -0.4100 0.0833 -0.6237
H23 H -0.4947 0.0461 -0.6639
H24 H -0.4828 0.1350 -0.5996
C27 C -0.53159(16) -0.1220(3) -0.57772(16)
H25 H -0.5218 -0.1933 -0.5447
H26 H -0.5640 -0.0516 -0.5657
H27 H -0.5576 -0.1613 -0.6194
N1 N -0.25570(11) -0.5229(2) -0.18924(10)
N2 N -0.02662(10) -0.2870(2) 0.03456(10)
N3 N -0.46004(13) -0.0631(2) -0.58269(12)
Mn1C Mn -0.196390(17) 0.61822(3) -0.621390(17)
Mn2A Mn -0.721170(16) 0.39460(3) -0.206030(17)
Mn2A_2 Mn 0.278830(16) 0.39460(3) -0.206030(17)
Mn3A Mn -0.713890(17) 0.21738(3) -0.057420(17)
Mn3_2 Mn -0.286110(17) 0.71738(3) -0.442580(17)
Mn3A_2 Mn 0.286110(17) 0.21738(3) -0.057420(17)
O3A O -0.18494(8) -0.33559(15) -0.37334(8)
O4A O -0.20121(8) -0.26956(15) -0.27713(8)
O7A O -0.36646(7) -0.36996(15) -0.39837(8)
O8A O -0.37545(7) -0.24044(15) -0.31384(8)
O11_2 O -0.25506(8) -0.40803(15) -0.51201(7)
O12C O -0.21777(8) 0.06046(14) -0.07342(8)
loop_
_geom_bond_atom_site_label_1
_geom_bond_atom_site_label_2
_geom_bond_site_symmetry_1
_geom_bond_site_symmetry_2
Mn1 O1 1_555 1_555
Mn2 O2 1_555 1_555
Mn3 O9 1_555 1_555
S1 C7 1_555 1_555
S2 C13 1_555 1_555
S3 C1 1_555 1_555
O1 C5 1_555 1_555
O2 C5 1_555 1_555
O3 C6 1_555 1_555
O4 C6 1_555 1_555
O5 Mn1 1_555 1_555
O6 Mn2 1_555 1_555
O7 C12 1_555 1_555
O8 C12 1_555 1_555
O9 Mn2 1_555 1_555
O10 Mn3 1_555 1_555
O11 C18 1_555 1_555
O12 C18 1_555 1_555
O13 Mn1 1_555 1_555
O14 Mn1 1_555 1_555
O15 Mn3 1_555 1_555
C1 C2 1_555 1_555
C2 H1 1_555 1_555
C3 C2 1_555 1_555
H2 C3 1_555 1_555
C4 S3 1_555 1_555
C5 C1 1_555 1_555
C6 C4 1_555 1_555
C7 C8 1_555 1_555
C8 H3 1_555 1_555
C9 C8 1_555 1_555
H4 C9 1_555 1_555
C10 S1 1_555 1_555
C11 O5 1_555 1_555
C12 C10 1_555 1_555
C13 C14 1_555 1_555
C14 H5 1_555 1_555
C15 C14 1_555 1_555
H6 C15 1_555 1_555
C16 S2 1_555 1_555
C17 O9 1_555 1_555
C18 C16 1_555 1_555
C19 O13 1_555 1_555
H7 C19 1_555 1_555
C20 H8 1_555 1_555
H9 C20 1_555 1_555
H10 C20 1_555 1_555
C21 H11 1_555 1_555
H12 C21 1_555 1_555
H13 C21 1_555 1_555
C22 O14 1_555 1_555
H14 C22 1_555 1_555
C23 H15 1_555 1_555
H16 C23 1_555 1_555
H17 C23 1_555 1_555
C24 H18 1_555 1_555
H19 C24 1_555 1_555
H20 C24 1_555 1_555
C25 O15 1_555 1_555
H21 C25 1_555 1_555
C26 H22 1_555 1_555
H23 C26 1_555 1_555
H24 C26 1_555 1_555
C27 H25 1_555 1_555
H26 C27 1_555 1_555
H27 C27 1_555 1_555
N1 C19 1_555 1_555
N2 C22 1_555 1_555
N3 C25 1_555 1_555
Mn1C O12 1_555 1_555
Mn2A O8 1_555 1_555
Mn2A_2 O4 1_555 1_555
Mn3A O7 1_555 1_555
Mn3_2 O11 1_555 1_555
Mn3A_2 O3 1_555 1_555
O3A Mn3 1_555 1_555
O4A Mn2 1_555 1_555
O7A Mn3 1_555 1_555
O8A Mn2 1_555 1_555
O11_2 Mn3 1_555 1_555
O12C Mn1 1_555 1_555
Mn2 O5 1_555 1_555
O6 C11 1_555 1_555
O10 C17 1_555 1_555
C3 C4 1_555 1_555
C7 C11 1_555 1_555
C9 C10 1_555 1_555
C13 C17 1_555 1_555
C15 C16 1_555 1_555
C20 N1 1_555 1_555
C21 N1 1_555 1_555
C23 N2 1_555 1_555
C24 N2 1_555 1_555
C26 N3 1_555 1_555
C27 N3 1_555 1_555

#END
