
#######################################################################
#
#                 Cambridge Crystallographic Data Centre
#                                CCDC 
#
#######################################################################
#
# If this CIF has been generated from an entry in the Cambridge 
# Structural Database, then it will include bibliographic, chemical, 
# crystal, experimental, refinement or atomic coordinate data resulting 
# from the CCDC's data processing and validation procedures.
#
#######################################################################

data_TUCKUY
_symmetry_cell_setting           triclinic
_symmetry_space_group_name_H-M   'P -1'
_symmetry_Int_Tables_number      2
_space_group_name_Hall           '-P 1'
loop_
_symmetry_equiv_pos_site_id
_symmetry_equiv_pos_as_xyz
1 x,y,z
2 -x,-y,-z
_cell_length_a                   10.615(2)
_cell_length_b                   13.366(3)
_cell_length_c                   13.440(3)
_cell_angle_alpha                94.38(3)
_cell_angle_beta                 110.47(3)
_cell_angle_gamma                103.46(3)
_cell_volume                     1711.14
loop_
_atom_site_label
_atom_site_type_symbol
_atom_site_fract_x
_atom_site_fract_y
_atom_site_fract_z
Mo1 Mo 0.17119(12) 0.99831(10) -0.00162(10)
Mo2 Mo 0.14574(13) 1.16171(10) 0.24207(11)
Mo3 Mo 0.08316(13) 1.25497(10) 0.00918(10)
Mo4 Mo 0.07177(12) 0.90294(10) 0.23311(10)
Cu1 Cu 0.5587(2) 1.13885(17) 0.07953(17)
Cu2 Cu -0.1571(2) 1.45291(17) -0.06437(16)
O1 O 0.1859(10) 0.8316(9) 0.2767(9)
O2 O 0.1853(10) 1.1195(8) 0.0686(9)
O3 O 0.3323(10) 0.9942(8) -0.0008(8)
O4 O 0.0864(10) 1.1974(8) -0.1193(7)
O5 O 0.3057(11) 1.2489(9) 0.2921(9)
O6 O 0.0445(10) 1.2285(8) 0.1365(8)
O7 O 0.0089(11) 0.9140(9) 0.3340(8)
O8 O 0.0776(12) 1.1758(9) 0.3381(10)
O9 O 0.1093(10) 0.8976(8) 0.0631(8)
O10 O -0.0241(11) 1.3343(9) -0.0330(9)
O11 O 0.2009(9) 1.0373(8) 0.2591(8)
O12 O 0.2461(11) 1.3381(8) 0.0619(9)
O13 O 0.0544(9) 0.9831(7) -0.1346(7)
N1 N 0.6065(13) 1.0911(12) 0.2146(10)
N2 N 0.4745(13) 0.7999(10) 0.0458(11)
N3 N -0.1590(14) 1.4673(11) -0.2043(10)
N4 N -0.2066(13) 1.4429(10) -0.9408(11)
C1 C 0.7260(17) 1.0637(14) 0.2561(15)
H1 H 0.7951 1.0843 0.2284
C2 C 0.7489(15) 1.0082(15) 0.3353(15)
H2 H 0.8324 0.9897 0.3598
C3 C 0.6515(16) 0.9767(13) 0.3834(12)
C4 C 0.5310(17) 1.0073(15) 0.3406(15)
H3 H 0.4618 0.9893 0.3686
C5 C 0.5103(16) 1.0631(14) 0.2587(12)
H4 H 0.4275 1.0823 0.2324
C6 C 0.6744(17) 0.9131(13) 0.4711(12)
H5 H 0.6719 0.9520 0.5340
H6 H 0.7673 0.9035 0.4905
C7 C 0.3854(14) 0.7898(11) 0.0980(12)
H7 H 0.2989 0.8018 0.0639
C8 C 0.4158(18) 0.7623(13) 0.2003(13)
H8 H 0.3519 0.7574 0.2338
C9 C 0.5395(17) 0.7433(13) 0.2489(13)
C10 C 0.6347(17) 0.7516(14) 0.2005(16)
H9 H 0.7213 0.7399 0.2350
C11 C 0.5980(16) 0.7783(13) 0.0978(16)
H10 H 0.6606 0.7815 0.0633
C12 C 0.582(2) 0.7214(18) 0.3663(15)
H11 H 0.6783 0.7187 0.3925
H12 H 0.5237 0.6537 0.3665
C13 C 0.567(2) 0.8041(19) 0.4426(18)
H13 H 0.4736 0.8129 0.4105
H14 H 0.5737 0.7779 0.5091
C14 C -0.1038(17) 1.4103(12) -0.2557(12)
H15 H -0.0540 1.3675 -0.2176
C15 C -0.1162(19) 1.4113(14) -0.3621(14)
H16 H -0.0764 1.3696 -0.3934
C16 C -0.1877(18) 1.4744(13) -0.4203(14)
C17 C -0.244(2) 1.5318(14) -0.3685(15)
H17 H -0.2949 1.5748 -0.4056
C18 C -0.2293(18) 1.5281(13) -0.2625(13)
H18 H -0.2691 1.5691 -0.2304
C19 C -0.216(2) 1.4689(14) -0.5374(13)
H19 H -0.2468 1.5287 -0.5615
H20 H -0.1297 1.4719 -0.5489
C20 C -0.330(2) 1.3663(18) -0.6058(16)
H21 H -0.3972 1.3486 -0.5721
H22 H -0.2847 1.3105 -0.6024
C21 C -0.1650(16) 1.3811(13) -0.8700(12)
H23 H -0.0951 1.3515 -0.8731
C22 C -0.2203(18) 1.3580(15) -0.7915(15)
H24 H -0.1861 1.3164 -0.7420
C23 C -0.3279(18) 1.3995(15) -0.7898(15)
C24 C -0.3664(18) 1.4664(14) -0.8595(15)
H25 H -0.4338 1.4989 -0.8565
C25 C -0.3063(19) 1.4854(14) -0.9332(15)
H26 H -0.3359 1.5301 -0.9805
C26 C -0.404(2) 1.3686(17) -0.7172(14)
H27 H -0.4674 1.2994 -0.7493
H28 H -0.4621 1.4155 -0.7191
Mo2A Mo -0.14574(13) 0.83829(10) -0.24207(11)
Mo3A Mo -0.08316(13) 0.74503(10) -0.00918(10)
Mo4A Mo -0.07177(12) 1.09706(10) -0.23311(10)
Cu1A Cu 0.4413(2) 0.86115(17) -0.07953(17)
Cu2_2 Cu -0.1571(2) 1.45291(17) -1.06437(16)
O3A O 0.6677(10) 1.0058(8) 0.0008(8)
O4A O -0.0864(10) 0.8026(8) 0.1193(7)
O9A O -0.1093(10) 1.1024(8) -0.0631(8)
O13A O -0.0544(9) 1.0169(7) 0.1346(7)
N2A N 0.5255(13) 1.2001(10) -0.0458(11)
N4_2 N -0.2066(13) 1.4429(10) 0.0592(11)
O14 O 0.0299(18) 0.2482(12) 0.5304(11)
loop_
_geom_bond_atom_site_label_1
_geom_bond_atom_site_label_2
_geom_bond_site_symmetry_1
_geom_bond_site_symmetry_2
Mo1 O2 1_555 1_555
Mo2 O2 1_555 1_555
Mo3 O2 1_555 1_555
Mo4 O1 1_555 1_555
Cu1 O3 1_555 1_555
Cu2 O10 1_555 1_555
O3 Mo1 1_555 1_555
O4 Mo3 1_555 1_555
O5 Mo2 1_555 1_555
O6 Mo2 1_555 1_555
O7 Mo4 1_555 1_555
O8 Mo2 1_555 1_555
O9 Mo1 1_555 1_555
O10 Mo3 1_555 1_555
O11 Mo2 1_555 1_555
O12 Mo3 1_555 1_555
O13 Mo1 1_555 1_555
N1 Cu1 1_555 1_555
N2 C7 1_555 1_555
N3 Cu2 1_555 1_555
N4 C21 1_555 1_555
C1 N1 1_555 1_555
H1 C1 1_555 1_555
C2 C1 1_555 1_555
H2 C2 1_555 1_555
C3 C2 1_555 1_555
C4 C3 1_555 1_555
H3 C4 1_555 1_555
C5 N1 1_555 1_555
H4 C5 1_555 1_555
C6 C3 1_555 1_555
H5 C6 1_555 1_555
H6 C6 1_555 1_555
C7 H7 1_555 1_555
C8 C7 1_555 1_555
H8 C8 1_555 1_555
C9 C8 1_555 1_555
C10 C9 1_555 1_555
H9 C10 1_555 1_555
C11 N2 1_555 1_555
H10 C11 1_555 1_555
C12 C9 1_555 1_555
H11 C12 1_555 1_555
H12 C12 1_555 1_555
C13 C6 1_555 1_555
H13 C13 1_555 1_555
H14 C13 1_555 1_555
C14 N3 1_555 1_555
H15 C14 1_555 1_555
C15 C14 1_555 1_555
H16 C15 1_555 1_555
C16 C15 1_555 1_555
C17 C16 1_555 1_555
H17 C17 1_555 1_555
C18 N3 1_555 1_555
H18 C18 1_555 1_555
C19 C16 1_555 1_555
H19 C19 1_555 1_555
H20 C19 1_555 1_555
C20 C19 1_555 1_555
H21 C20 1_555 1_555
H22 C20 1_555 1_555
C21 H23 1_555 1_555
C22 C21 1_555 1_555
H24 C22 1_555 1_555
C23 C22 1_555 1_555
C24 C23 1_555 1_555
H25 C24 1_555 1_555
C25 N4 1_555 1_555
H26 C25 1_555 1_555
C26 C20 1_555 1_555
H27 C26 1_555 1_555
H28 C26 1_555 1_555
Mo2A O13 1_555 1_555
Mo3A O9 1_555 1_555
Mo4A O4 1_555 1_555
Cu1A O3 1_555 1_555
Cu2_2 N4 1_555 1_555
O3A Cu1 1_555 1_555
O4A Mo4 1_555 1_555
O9A Mo3 1_555 1_555
O13A Mo2 1_555 1_555
N2A Cu1 1_555 1_555
N4_2 Cu2 1_555 1_555
Mo3 O6 1_555 1_555
Mo4 O9 1_555 1_555
Mo4 O11 1_555 1_555
Mo4 O13A 1_555 1_555
O13 Mo4A 1_555 1_555
N2 Cu1A 1_555 1_555
C4 C5 1_555 1_555
C10 C11 1_555 1_555
C12 C13 1_555 1_555
C17 C18 1_555 1_555
C23 C26 1_555 1_555
C24 C25 1_555 1_555
Mo3A O4A 1_555 1_555
Mo4A O9A 1_555 1_555
Cu1A O3A 1_555 1_555

#END
