
#######################################################################
#
#                 Cambridge Crystallographic Data Centre
#                                CCDC 
#
#######################################################################
#
# If this CIF has been generated from an entry in the Cambridge 
# Structural Database, then it will include bibliographic, chemical, 
# crystal, experimental, refinement or atomic coordinate data resulting 
# from the CCDC's data processing and validation procedures.
#
#######################################################################

data_TUCLEJ
_symmetry_cell_setting           orthorhombic
_symmetry_space_group_name_H-M   'P 21 21 21'
_symmetry_Int_Tables_number      19
_space_group_name_Hall           'P 2ac 2ab'
loop_
_symmetry_equiv_pos_site_id
_symmetry_equiv_pos_as_xyz
1 x,y,z
2 1/2-x,-y,1/2+z
3 1/2+x,1/2-y,-z
4 -x,1/2+y,1/2-z
_cell_length_a                   14.7840(7)
_cell_length_b                   16.8100(8)
_cell_length_c                   18.9970(10)
_cell_angle_alpha                90
_cell_angle_beta                 90
_cell_angle_gamma                90
_cell_volume                     4721.12
loop_
_atom_site_label
_atom_site_type_symbol
_atom_site_fract_x
_atom_site_fract_y
_atom_site_fract_z
C1 C 0.7466(5) 0.1553(3) 0.4298(3)
H1 H 0.7660 0.1097 0.4064
C2 C 0.7237(5) 0.2207(4) 0.3986(3)
H2 H 0.7229 0.2301 0.3504
C3 C 0.7109(4) 0.2360(3) 0.5129(3)
H3 H 0.7001 0.2580 0.5571
C4 C 0.6675(4) 0.3571(3) 0.4426(4)
H4 H 0.6428 0.3758 0.4870
H5 H 0.6188 0.3570 0.4084
C5 C 0.7389(4) 0.4138(3) 0.4188(3)
C6 C 0.7770(4) 0.4088(4) 0.3544(4)
H6 H 0.7567 0.3692 0.3242
C7 C 0.8451(5) 0.4597(5) 0.3304(5)
H7 H 0.8700 0.4535 0.2858
C8 C 0.8738(4) 0.5186(4) 0.3741(4)
C9 C 0.8335(5) 0.5267(4) 0.4393(4)
H8 H 0.8507 0.5684 0.4685
C10 C 0.7691(5) 0.4746(4) 0.4615(4)
H9 H 0.7450 0.4801 0.5064
C11 C 0.9502(4) 0.5743(4) 0.3492(5)
H10 H 0.9602 0.5667 0.2992
H11 H 0.9321 0.6292 0.3566
C12 C 1.0937(3) 0.5058(3) 0.3724(3)
H12 H 1.0916 0.4742 0.3323
C13 C 1.0581(5) 0.5928(4) 0.4524(6)
H13 H 1.0271 0.6317 0.4775
C14 C 1.1366(5) 0.5558(5) 0.4707(5)
H14 H 1.1700 0.5667 0.5111
C15 C 0.4953(4) 0.1712(3) 0.5666(3)
H15 H 0.5148 0.1436 0.6062
C16 C 0.4718(5) 0.1376(4) 0.5051(4)
H16 H 0.4725 0.0836 0.4945
C17 C 0.4566(3) 0.2653(3) 0.4979(3)
H17 H 0.4440 0.3156 0.4802
C18 C 0.4134(4) 0.1901(5) 0.3891(3)
H18 H 0.3843 0.2395 0.3755
H19 H 0.3683 0.1483 0.3872
C19 C 0.4878(4) 0.1715(4) 0.3370(3)
C20 C 0.5206(4) 0.2297(4) 0.2927(3)
H20 H 0.4960 0.2806 0.2949
C21 C 0.5891(4) 0.2142(4) 0.2453(3)
H21 H 0.6092 0.2543 0.2154
C22 C 0.6286(4) 0.1379(4) 0.2419(3)
C23 C 0.5938(5) 0.0795(4) 0.2856(4)
H22 H 0.6172 0.0282 0.2834
C24 C 0.5245(4) 0.0963(4) 0.3326(4)
H23 H 0.5024 0.0562 0.3616
C25 C 0.7080(4) 0.1201(4) 0.1949(3)
H24 H 0.7159 0.0630 0.1915
H25 H 0.6957 0.1403 0.1480
C26 C 0.8471(4) 0.1249(3) 0.2695(3)
H26 H 0.8400 0.0748 0.2896
C27 C 0.8229(4) 0.2297(4) 0.2056(3)
H27 H 0.7975 0.2654 0.1738
C28 C 0.8983(4) 0.2415(4) 0.2452(3)
H28 H 0.9337 0.2873 0.2452
C29 C 0.6524(7) 0.2699(5) 0.7073(4)
C30 C 0.7366(4) 0.2745(4) 0.7514(3)
C31 C 0.7605(5) 0.3420(4) 0.7897(3)
H29 H 0.7325 0.3902 0.7795
C32 C 0.8259(4) 0.3390(4) 0.8436(3)
H30 H 0.8417 0.3841 0.8691
C33 C 0.8655(3) 0.2666(3) 0.8567(3)
C34 C 0.8457(4) 0.1994(3) 0.8167(3)
H31 H 0.8757 0.1517 0.8254
C35 C 0.7819(3) 0.2036(3) 0.7647(3)
C36 C 0.7651(4) 0.1319(4) 0.7189(3)
C37 C 0.9000(5) 0.3191(3) 1.0185(3)
H32 H 0.8598 0.2785 1.0295
C38 C 0.9431(3) 0.3186(3) 0.9572(3)
C39 C 1.0013(4) 0.3778(3) 0.9392(3)
H33 H 1.0289 0.3774 0.8953
C40 C 1.0197(4) 0.4392(3) 0.9866(3)
C41 C 0.9152(5) 0.3812(3) 1.0670(3)
H34 H 0.8847 0.3815 1.1098
C42 C 0.9747(3) 0.4411(3) 1.0511(3)
C43 C 0.9849(4) 0.5094(3) 1.1021(3)
C44 C 1.1057(9) 0.4847(7) 0.9829(7)
N1 N 0.7388(3) 0.1615(2) 0.5020(2)
N2 N 0.7004(3) 0.2747(3) 0.4520(2)
N3 N 1.0341(3) 0.5593(3) 0.3870(4)
N4 N 1.1592(3) 0.5006(2) 0.4211(2)
N5 N 0.4865(3) 0.2514(2) 0.5621(2)
N6 N 0.4468(3) 0.1975(3) 0.4614(3)
N7 N 0.7920(3) 0.1561(3) 0.2213(2)
N8 N 0.9137(3) 0.1752(2) 0.2849(2)
O1 O 0.6006(4) 0.2137(3) 0.7044(3)
O2 O 0.6346(4) 0.3364(4) 0.6737(3)
O4 O 0.7716(3) 0.1504(3) 0.6518(2)
O6 O 0.7503(5) 0.0671(3) 0.7432(3)
O8 O 0.9293(3) 0.2543(2) 0.9108(2)
O9 O 1.0021(3) 0.5746(2) 1.0753(2)
O10 O 0.9680(6) 0.4968(3) 1.1654(2)
O11 O 1.1662(6) 0.4901(5) 1.0253(5)
O13 O 1.1126(6) 0.5251(5) 0.9221(5)
Zn1 Zn 0.76191(4) 0.07678(3) 0.57385(3)
Zn2 Zn 0.50823(4) 0.33284(3) 0.63834(3)
N4B N 0.6592(3) -0.0006(2) 0.5789(2)
N8B N 0.4137(3) 0.3248(2) 0.7151(2)
O9A O 0.4979(3) 0.4254(2) 0.5753(2)
O13C O 0.8874(6) 0.0251(5) 0.5779(5)
Zn1B Zn 1.26191(4) 0.42322(3) 0.42615(3)
Zn1C Zn 1.23809(4) 0.57678(3) 0.92615(3)
Zn2B Zn 1.00823(4) 0.16716(3) 0.36166(3)
Zn2A Zn 0.99177(4) 0.66716(3) 1.13834(3)
O3 O 0.7466(9) 0.4752(8) 0.6521(6)
O5 O 0.6507(11) 0.2392(9) 0.9382(9)
O7 O 0.6710(10) 0.2894(8) 1.0791(8)
C45? C 1.0754(9) 0.5068(8) 0.9545(8)
O12? O 1.1503(7) 0.5085(5) 0.9739(5)
C46? C 0.6818(18) 0.3070(16) 0.6885(14)
O14? O 0.6093(15) 0.2803(13) 0.6952(11)
O15? O 0.7006(15) 0.3667(13) 0.6465(11)
O16? O 1.0400(9) 0.5577(7) 0.9067(6)
loop_
_geom_bond_atom_site_label_1
_geom_bond_atom_site_label_2
_geom_bond_site_symmetry_1
_geom_bond_site_symmetry_2
C1 H1 1_555 1_555
C2 C1 1_555 1_555
H2 C2 1_555 1_555
C3 H3 1_555 1_555
C4 H4 1_555 1_555
H5 C4 1_555 1_555
C5 C4 1_555 1_555
C6 C5 1_555 1_555
H6 C6 1_555 1_555
C7 C6 1_555 1_555
H7 C7 1_555 1_555
C8 C7 1_555 1_555
C9 C8 1_555 1_555
H8 C9 1_555 1_555
C10 C5 1_555 1_555
H9 C10 1_555 1_555
C11 C8 1_555 1_555
H10 C11 1_555 1_555
H11 C11 1_555 1_555
C12 H12 1_555 1_555
C13 H13 1_555 1_555
C14 C13 1_555 1_555
H14 C14 1_555 1_555
C15 H15 1_555 1_555
C16 C15 1_555 1_555
H16 C16 1_555 1_555
C17 H17 1_555 1_555
C18 H18 1_555 1_555
H19 C18 1_555 1_555
C19 C18 1_555 1_555
C20 C19 1_555 1_555
H20 C20 1_555 1_555
C21 C20 1_555 1_555
H21 C21 1_555 1_555
C22 C21 1_555 1_555
C23 C22 1_555 1_555
H22 C23 1_555 1_555
C24 C19 1_555 1_555
H23 C24 1_555 1_555
C25 C22 1_555 1_555
H24 C25 1_555 1_555
H25 C25 1_555 1_555
C26 H26 1_555 1_555
C27 H27 1_555 1_555
C28 C27 1_555 1_555
H28 C28 1_555 1_555
C29 C30 1_555 1_555
C30 C31 1_555 1_555
C31 H29 1_555 1_555
C32 C31 1_555 1_555
H30 C32 1_555 1_555
C33 C32 1_555 1_555
C34 C33 1_555 1_555
H31 C34 1_555 1_555
C35 C30 1_555 1_555
C36 C35 1_555 1_555
C37 H32 1_555 1_555
C38 C37 1_555 1_555
C39 C38 1_555 1_555
H33 C39 1_555 1_555
C40 C39 1_555 1_555
C41 C37 1_555 1_555
H34 C41 1_555 1_555
C42 C40 1_555 1_555
C43 C42 1_555 1_555
C44 C40 1_555 1_555
N1 C1 1_555 1_555
N2 C2 1_555 1_555
N3 C11 1_555 1_555
N4 C12 1_555 1_555
N5 C15 1_555 1_555
N6 C16 1_555 1_555
N7 C25 1_555 1_555
N8 C26 1_555 1_555
O1 C29 1_555 1_555
O2 C29 1_555 1_555
O4 C36 1_555 1_555
O6 C36 1_555 1_555
O8 C33 1_555 1_555
O9 C43 1_555 1_555
O10 C43 1_555 1_555
O11 C44 1_555 1_555
O13 C44 1_555 1_555
Zn1 N1 1_555 1_555
Zn2 N5 1_555 1_555
N4B Zn1 1_555 1_555
N8B Zn2 1_555 1_555
O9A Zn2 1_555 1_555
O13C Zn1 1_555 1_555
Zn1B N4 1_555 1_555
Zn1C O13 1_555 1_555
Zn2B N8 1_555 1_555
Zn2A O9 1_555 1_555
C3 N1 1_555 1_555
C3 N2 1_555 1_555
C4 N2 1_555 1_555
C9 C10 1_555 1_555
C12 N3 1_555 1_555
C13 N3 1_555 1_555
C14 N4 1_555 1_555
C17 N5 1_555 1_555
C17 N6 1_555 1_555
C18 N6 1_555 1_555
C23 C24 1_555 1_555
C26 N7 1_555 1_555
C27 N7 1_555 1_555
C28 N8 1_555 1_555
C34 C35 1_555 1_555
C38 O8 1_555 1_555
C41 C42 1_555 1_555
O2 Zn2 1_555 1_555
O4 Zn1 1_555 1_555

#END
