
#######################################################################
#
#                 Cambridge Crystallographic Data Centre
#                                CCDC 
#
#######################################################################
#
# If this CIF has been generated from an entry in the Cambridge 
# Structural Database, then it will include bibliographic, chemical, 
# crystal, experimental, refinement or atomic coordinate data resulting 
# from the CCDC's data processing and validation procedures.
#
#######################################################################

data_TUCLOT
_symmetry_cell_setting           monoclinic
_symmetry_space_group_name_H-M   'P 21/n'
_symmetry_Int_Tables_number      14
_space_group_name_Hall           '-P 2yn'
loop_
_symmetry_equiv_pos_site_id
_symmetry_equiv_pos_as_xyz
1 x,y,z
2 1/2-x,1/2+y,1/2-z
3 -x,-y,-z
4 1/2+x,1/2-y,1/2+z
_cell_length_a                   7.8267(2)
_cell_length_b                   11.3064(3)
_cell_length_c                   15.6709(5)
_cell_angle_alpha                90
_cell_angle_beta                 98.114(2)
_cell_angle_gamma                90
_cell_volume                     1372.86
loop_
_atom_site_label
_atom_site_type_symbol
_atom_site_fract_x
_atom_site_fract_y
_atom_site_fract_z
C1 C 0.5538(4) 0.2518(2) 0.43502(18)
C2 C 0.5533(4) 0.1297(2) 0.43284(18)
C3 C 0.4526(4) 0.2528(2) 0.56346(18)
C4 C 0.4502(4) 0.1311(2) 0.56669(18)
C5 C 0.5004(3) 0.0654(2) 0.49996(15)
N1 N 0.5034(2) 0.31445(18) 0.49868(12)
O1 O 0.5982(3) 0.50057(16) 0.62973(13)
O2 O 0.2513(3) 0.48721(18) 0.52991(16)
Ni1 Ni 0.5000 0.5000 0.5000
H5 H 0.674(3) 0.447(3) 0.6472(19)
H6 H 0.656(5) 0.565(4) 0.645(2)
H7 H 0.177(4) 0.458(3) 0.495(2)
H8 H 0.186(5) 0.534(4) 0.553(3)
H9 H 0.591(3) 0.295(2) 0.3894(18)
H10 H 0.587(4) 0.090(3) 0.3861(19)
H11 H 0.417(4) 0.095(2) 0.6146(18)
H12 H 0.412(3) 0.296(2) 0.6070(18)
C1B C 0.4462(4) -0.2518(2) 0.56498(18)
C2B C 0.4467(4) -0.1297(2) 0.56716(18)
C3B C 0.5474(4) -0.2528(2) 0.43654(18)
C4B C 0.5498(4) -0.1311(2) 0.43331(18)
C5B C 0.4996(3) -0.0654(2) 0.50004(15)
N1B N 0.4966(2) -0.31445(18) 0.50132(12)
N1B_2 N 0.4966(2) 0.68555(18) 0.50132(12)
O1B O 0.4018(3) 0.49943(16) 0.37027(13)
O2B O 0.7487(3) 0.51279(18) 0.47009(16)
Ni1_2 Ni 0.5000 -0.5000 0.5000
H5B H 0.326(3) 0.553(3) 0.3528(19)
H6B H 0.344(5) 0.435(4) 0.355(2)
H7B H 0.823(4) 0.542(3) 0.505(2)
H8B H 0.814(5) 0.466(4) 0.447(3)
H9B H 0.409(3) -0.295(2) 0.6106(18)
H10B H 0.413(4) -0.090(3) 0.6139(19)
H11B H 0.583(4) -0.095(2) 0.3854(18)
H12B H 0.588(3) -0.296(2) 0.3930(18)
C6 C 0.0255(3) 0.1663(2) 0.39656(17)
C7 C -0.0057(3) 0.1623(3) 0.47977(19)
C8 C 0.0535(5) 0.0611(3) 0.3519(2)
C9 C 0.0476(5) -0.0454(3) 0.3920(2)
C10 C 0.0138(3) -0.0526(3) 0.47713(18)
O3 O 0.1886(3) 0.31087(17) 0.30802(13)
O4 O 0.0040(3) 0.39454(17) 0.40247(13)
O5 O -0.1207(3) 0.2957(2) 0.27195(14)
S1 S 0.02353(9) 0.30156(6) 0.34032(4)
H13 H -0.023(3) 0.227(3) 0.5121(16)
H14 H 0.072(4) 0.073(3) 0.293(2)
H15 H 0.079(5) -0.117(3) 0.361(2)
C6B C -0.0255(3) -0.1663(2) 0.60344(17)
C7B C 0.0057(3) -0.1623(3) 0.52023(19)
C8B C -0.0535(5) -0.0611(3) 0.6481(2)
C9B C -0.0476(5) 0.0454(3) 0.6080(2)
C10B C -0.0138(3) 0.0526(3) 0.52287(18)
O3B O -0.1886(3) -0.31087(17) 0.69198(13)
O4B O -0.0040(3) -0.39454(17) 0.59753(13)
O5B O 0.1207(3) -0.2957(2) 0.72805(14)
S1B S -0.02353(9) -0.30156(6) 0.65968(4)
H13B H 0.023(3) -0.227(3) 0.4879(16)
H14B H -0.072(4) -0.073(3) 0.707(2)
H15B H -0.079(5) 0.117(3) 0.639(2)
O6 O 0.8144(3) 0.3241(2) 0.67827(16)
H1 H 0.779(4) 0.290(3) 0.7202(15)
H2 H 0.9173(17) 0.344(3) 0.693(2)
O7 O 1.1502(4) 0.3947(3) 0.7268(2)
H3 H 1.176(3) 0.426(3) 0.6816(14)
H4 H 1.231(5) 0.338(3) 0.737(3)
loop_
_geom_bond_atom_site_label_1
_geom_bond_atom_site_label_2
_geom_bond_site_symmetry_1
_geom_bond_site_symmetry_2
C1 C2 1_555 1_555
C2 C5 1_555 1_555
C3 C4 1_555 1_555
C4 C5 1_555 1_555
C5 C5B 1_555 1_555
C6 C7 1_555 1_555
C7 H13 1_555 1_555
C8 C6 1_555 1_555
C9 C8 1_555 1_555
C10 C9 1_555 1_555
N1 C1 1_555 1_555
O1 Ni1 1_555 1_555
O2 Ni1 1_555 1_555
O3 S1 1_555 1_555
O4 S1 1_555 1_555
O5 S1 1_555 1_555
O6 H1 1_555 1_555
H2 O6 1_555 1_555
O7 H3 1_555 1_555
H4 O7 1_555 1_555
S1 C6 1_555 1_555
Ni1 N1 1_555 1_555
H5 O1 1_555 1_555
H6 O1 1_555 1_555
H7 O2 1_555 1_555
H8 O2 1_555 1_555
H9 C1 1_555 1_555
H10 C2 1_555 1_555
H11 C4 1_555 1_555
H12 C3 1_555 1_555
H14 C8 1_555 1_555
H15 C9 1_555 1_555
C1B C2B 1_555 1_555
C2B C5B 1_555 1_555
C3B C4B 1_555 1_555
C4B C5B 1_555 1_555
C6B C7B 1_555 1_555
C7B C10 1_555 1_555
C8B C6B 1_555 1_555
C9B C8B 1_555 1_555
C10B C7 1_555 1_555
N1B C1B 1_555 1_555
N1B_2 Ni1 1_555 1_555
O1B Ni1 1_555 1_555
O2B Ni1 1_555 1_555
O3B S1B 1_555 1_555
O4B S1B 1_555 1_555
O5B S1B 1_555 1_555
S1B C6B 1_555 1_555
Ni1_2 N1B 1_555 1_555
H5B O1B 1_555 1_555
H6B O1B 1_555 1_555
H7B O2B 1_555 1_555
H8B O2B 1_555 1_555
H9B C1B 1_555 1_555
H10B C2B 1_555 1_555
H11B C4B 1_555 1_555
H12B C3B 1_555 1_555
H13B C7B 1_555 1_555
H14B C8B 1_555 1_555
H15B C9B 1_555 1_555
C3 N1 1_555 1_555
C10 C10B 1_555 1_555
C3B N1B 1_555 1_555
C9B C10B 1_555 1_555

#END
