
#######################################################################
#
#                 Cambridge Crystallographic Data Centre
#                                CCDC 
#
#######################################################################
#
# If this CIF has been generated from an entry in the Cambridge 
# Structural Database, then it will include bibliographic, chemical, 
# crystal, experimental, refinement or atomic coordinate data resulting 
# from the CCDC's data processing and validation procedures.
#
#######################################################################

data_TUCLIN
_symmetry_cell_setting           orthorhombic
_symmetry_space_group_name_H-M   'P c c a'
_symmetry_Int_Tables_number      54
_space_group_name_Hall           '-P 2a 2ac'
loop_
_symmetry_equiv_pos_site_id
_symmetry_equiv_pos_as_xyz
1 x,y,z
2 1/2-x,-y,z
3 1/2+x,-y,1/2-z
4 -x,y,1/2-z
5 -x,-y,-z
6 1/2+x,y,-z
7 1/2-x,y,1/2+z
8 x,-y,1/2+z
_cell_length_a                   18.6880(11)
_cell_length_b                   13.4170(14)
_cell_length_c                   19.4160(15)
_cell_angle_alpha                90
_cell_angle_beta                 90
_cell_angle_gamma                90
_cell_volume                     4868.31
loop_
_atom_site_label
_atom_site_type_symbol
_atom_site_fract_x
_atom_site_fract_y
_atom_site_fract_z
Zn1 Zn 0.2500 0.5000 0.95586(3)
Zn2 Zn 0.2500 0.0000 1.04041(3)
O1 O 0.15824(13) 0.04478(18) 0.99536(12)
O2 O 0.20485(13) 0.40155(17) 0.89173(12)
O3 O 0.24104(13) 0.1433(2) 0.95125(13)
N1 N 0.27097(18) 0.2523(3) 1.16649(18)
O4 O 0.17067(13) 0.33631(17) 0.99149(12)
C1 C 0.08517(18) 0.2967(3) 0.83575(18)
H1 H 0.0891 0.3628 0.8220
N2 N 0.40134(16) 0.2894(2) 1.00672(16)
N3 N 0.33325(16) 0.4226(2) 0.99511(16)
O5 O 0.0000 0.2816(3) 0.7500
C2 C 0.12717(17) 0.2620(2) 0.88870(17)
C3 C 0.07235(19) 0.1024(3) 0.87660(19)
H2 H 0.0675 0.0365 0.8907
N4 N 0.27194(17) 0.1088(2) 1.11218(16)
C4 C 0.1778(2) 0.1145(3) 0.95527(18)
C5 C 0.4409(3) 0.3693(3) 1.0241(3)
H3 H 0.4883 0.3685 1.0386
C6 C 0.0371(2) 0.2347(3) 0.80250(19)
C7 C 0.3997(2) 0.4505(3) 1.0165(3)
H4 H 0.4142 0.5157 1.0247
C8 C 0.17153(18) 0.3374(2) 0.92727(19)
C9 C 0.3034(3) 0.0982(4) 1.1752(3)
H5 H 0.3224 0.0390 1.1922
C10 C 0.12355(18) 0.1614(2) 0.90805(17)
C11 C 0.4474(2) 0.1651(3) 0.9251(2)
C12 C 0.4251(2) 0.1849(3) 0.9983(2)
H6 H 0.3864 0.1403 1.0109
H7 H 0.4651 0.1720 1.0289
C13 C 0.1822(2) 0.3808(3) 1.2011(2)
C14 C 0.1641(3) 0.4034(4) 1.2673(2)
H8 H 0.1998 0.4104 1.3003
C15 C 0.5162(2) 0.1426(4) 0.9080(2)
H9 H 0.5502 0.1359 0.9427
C16 C 0.0383(2) 0.4082(3) 1.24016(19)
C17 C 0.4887(2) 0.1406(3) 0.78654(19)
C18 C 0.4185(2) 0.1558(4) 0.8051(2)
H10 H 0.3837 0.1583 0.7709
C19 C 0.1280(3) 0.3731(5) 1.1541(2)
H11 H 0.1392 0.3594 1.1084
C20 C 0.2589(2) 0.3590(3) 1.1800(3)
H12 H 0.2702 0.3968 1.1389
H13 H 0.2909 0.3808 1.2164
C21 C 0.2521(2) 0.2030(3) 1.1098(2)
H14 H 0.2279 0.2317 1.0729
C22 C 0.3982(2) 0.1674(3) 0.8725(2)
H15 H 0.3501 0.1771 0.8828
C23 C 0.3376(2) 0.3245(3) 0.9887(2)
H16 H 0.3002 0.2846 0.9734
C24 C 0.3030(3) 0.1854(4) 1.2090(3)
H17 H 0.3211 0.1976 1.2528
C25 C 0.5366(2) 0.1295(4) 0.8400(3)
H18 H 0.5838 0.1127 0.8301
C26 C 0.0933(3) 0.4162(4) 1.2861(2)
H19 H 0.0828 0.4307 1.3318
C27 C 0.0282(2) 0.1378(3) 0.8251(2)
H20 H -0.0069 0.0973 0.8060
C28 C 0.0574(3) 0.3851(5) 1.1726(2)
H21 H 0.0218 0.3776 1.1395
Zn1B Zn -0.2500 0.5000 0.54414(3)
Zn1B_2 Zn 0.7500 0.5000 0.54414(3)
Zn2B Zn -0.2500 0.0000 0.45959(3)
Zn2B_2 Zn -0.2500 0.0000 1.45959(3)
O1C O -0.15824(13) 0.04478(18) 0.50464(12)
O1A O 0.34176(13) -0.04478(18) 0.99536(12)
O2C O -0.20485(13) 0.40155(17) 0.60827(12)
O2A O 0.29515(13) 0.59845(17) 0.89173(12)
O3C O -0.24104(13) 0.1433(2) 0.54875(13)
N1C N -0.27097(18) 0.2523(3) 1.33351(18)
O4C O -0.17067(13) 0.33631(17) 0.50851(12)
C1C C -0.08517(18) 0.2967(3) 0.66425(18)
H1C H -0.0891 0.3628 0.6780
N2C N 0.59866(16) 0.2894(2) 0.49328(16)
N3C N 0.66675(16) 0.4226(2) 0.50489(16)
N3A N 0.16675(16) 0.5774(2) 0.99511(16)
C2C C -0.12717(17) 0.2620(2) 0.61130(17)
C3C C -0.07235(19) 0.1024(3) 0.62340(19)
H2C H -0.0675 0.0365 0.6093
N4C N -0.27194(17) 0.1088(2) 1.38782(16)
N4A N 0.22806(17) -0.1088(2) 1.11218(16)
C4C C -0.1778(2) 0.1145(3) 0.54473(18)
C5C C 0.5591(3) 0.3693(3) 0.4759(3)
H3C H 0.5117 0.3685 0.4614
C6C C -0.0371(2) 0.2347(3) 0.69750(19)
C7C C 0.6003(2) 0.4505(3) 0.4835(3)
H4C H 0.5858 0.5157 0.4753
C8C C -0.17153(18) 0.3374(2) 0.57273(19)
C9C C -0.3034(3) 0.0982(4) 1.3248(3)
H5C H -0.3224 0.0390 1.3078
C10C C -0.12355(18) 0.1614(2) 0.59195(17)
C11C C 0.5526(2) 0.1651(3) 0.5749(2)
C12C C 0.5749(2) 0.1849(3) 0.5017(2)
H6C H 0.6136 0.1403 0.4891
H7C H 0.5349 0.1720 0.4711
C13C C -0.1822(2) 0.3808(3) 1.2989(2)
C14C C -0.1641(3) 0.4034(4) 1.2327(2)
H8C H -0.1998 0.4104 1.1997
C15C C 0.4838(2) 0.1426(4) 0.5920(2)
H9C H 0.4498 0.1359 0.5573
C16C C -0.0383(2) 0.4082(3) 1.25984(19)
C17C C 0.5113(2) 0.1406(3) 0.71346(19)
C18C C 0.5815(2) 0.1558(4) 0.6949(2)
H10C H 0.6163 0.1583 0.7291
C19C C -0.1280(3) 0.3731(5) 1.3459(2)
H11C H -0.1392 0.3594 1.3916
C20C C -0.2589(2) 0.3590(3) 1.3200(3)
H12C H -0.2702 0.3968 1.3611
H13C H -0.2909 0.3808 1.2836
C21C C -0.2521(2) 0.2030(3) 1.3902(2)
H14C H -0.2279 0.2317 1.4271
C22C C 0.6018(2) 0.1674(3) 0.6275(2)
H15C H 0.6499 0.1771 0.6172
C23C C 0.6624(2) 0.3245(3) 0.5113(2)
H16C H 0.6998 0.2846 0.5266
C24C C -0.3030(3) 0.1854(4) 1.2910(3)
H17C H -0.3211 0.1976 1.2472
C25C C 0.4634(2) 0.1295(4) 0.6600(3)
H18C H 0.4162 0.1127 0.6699
C26C C -0.0933(3) 0.4162(4) 1.2139(2)
H19C H -0.0828 0.4307 1.1682
C27C C -0.0282(2) 0.1378(3) 0.6749(2)
H20C H 0.0069 0.0973 0.6940
C28C C -0.0574(3) 0.3851(5) 1.3274(2)
H21C H -0.0218 0.3776 1.3605
loop_
_geom_bond_atom_site_label_1
_geom_bond_atom_site_label_2
_geom_bond_site_symmetry_1
_geom_bond_site_symmetry_2
Zn1 O2 1_555 1_555
Zn2 O1 1_555 1_555
O1 C4 1_555 1_555
O2 C8 1_555 1_555
O3 C4 1_555 1_555
N1 C20 1_555 1_555
O4 C8 1_555 1_555
C1 H1 1_555 1_555
N2 C5 1_555 1_555
N3 Zn1 1_555 1_555
O5 C6 1_555 1_555
C2 C1 1_555 1_555
C3 H2 1_555 1_555
N4 Zn2 1_555 1_555
C4 C10 1_555 1_555
C5 H3 1_555 1_555
C6 C1 1_555 1_555
C7 N3 1_555 1_555
H4 C7 1_555 1_555
C8 C2 1_555 1_555
C9 N4 1_555 1_555
H5 C9 1_555 1_555
C10 C2 1_555 1_555
C11 C12 1_555 1_555
C12 N2 1_555 1_555
H6 C12 1_555 1_555
H7 C12 1_555 1_555
C13 C14 1_555 1_555
C14 H8 1_555 1_555
C15 C11 1_555 1_555
H9 C15 1_555 1_555
C16 C26 1_555 1_555
C17 C18 1_555 1_555
C18 H10 1_555 1_555
C19 C13 1_555 1_555
H11 C19 1_555 1_555
C20 C13 1_555 1_555
H12 C20 1_555 1_555
H13 C20 1_555 1_555
C21 N1 1_555 1_555
H14 C21 1_555 1_555
C22 C11 1_555 1_555
H15 C22 1_555 1_555
C23 N2 1_555 1_555
H16 C23 1_555 1_555
C24 N1 1_555 1_555
H17 C24 1_555 1_555
C25 C15 1_555 1_555
H18 C25 1_555 1_555
C26 C14 1_555 1_555
H19 C26 1_555 1_555
C27 C3 1_555 1_555
H20 C27 1_555 1_555
C28 C16 1_555 1_555
H21 C28 1_555 1_555
Zn1B O2C 1_555 1_555
Zn1B_2 N3C 1_555 1_555
Zn2B O1C 1_555 1_555
Zn2B_2 N4C 1_555 1_555
O1C C4C 1_555 1_555
O1A Zn2 1_555 1_555
O2C C8C 1_555 1_555
O2A Zn1 1_555 1_555
O3C C4C 1_555 1_555
N1C C20C 1_555 1_555
O4C C8C 1_555 1_555
C1C H1C 1_555 1_555
N2C C5C 1_555 1_555
N3C C7C 1_555 1_555
N3A Zn1 1_555 1_555
C2C C1C 1_555 1_555
C3C H2C 1_555 1_555
N4C C9C 1_555 1_555
N4A Zn2 1_555 1_555
C4C C10C 1_555 1_555
C5C H3C 1_555 1_555
C6C O5 1_555 1_555
C7C C5C 1_555 1_555
H4C C7C 1_555 1_555
C8C C2C 1_555 1_555
C9C H5C 1_555 1_555
C10C C2C 1_555 1_555
C11C C12C 1_555 1_555
C12C N2C 1_555 1_555
H6C C12C 1_555 1_555
H7C C12C 1_555 1_555
C13C C14C 1_555 1_555
C14C H8C 1_555 1_555
C15C C11C 1_555 1_555
H9C C15C 1_555 1_555
C16C C16 1_555 1_555
C17C C17 1_555 1_555
C18C C17C 1_555 1_555
H10C C18C 1_555 1_555
C19C C13C 1_555 1_555
H11C C19C 1_555 1_555
C20C C13C 1_555 1_555
H12C C20C 1_555 1_555
H13C C20C 1_555 1_555
C21C N1C 1_555 1_555
H14C C21C 1_555 1_555
C22C C11C 1_555 1_555
H15C C22C 1_555 1_555
C23C N2C 1_555 1_555
H16C C23C 1_555 1_555
C24C N1C 1_555 1_555
H17C C24C 1_555 1_555
C25C C15C 1_555 1_555
H18C C25C 1_555 1_555
C26C C14C 1_555 1_555
H19C C26C 1_555 1_555
C27C C3C 1_555 1_555
H20C C27C 1_555 1_555
C28C C16C 1_555 1_555
H21C C28C 1_555 1_555
N3 C23 1_555 1_555
C3 C10 1_555 1_555
N4 C21 1_555 1_555
C5 C7 1_555 1_555
C6 C27 1_555 1_555
C9 C24 1_555 1_555
C17 C25 1_555 1_555
C18 C22 1_555 1_555
C19 C28 1_555 1_555
C1C C6C 1_555 1_555
N3C C23C 1_555 1_555
C3C C10C 1_555 1_555
N4C C21C 1_555 1_555
C6C C27C 1_555 1_555
C9C C24C 1_555 1_555
C16C C26C 1_555 1_555
C17C C25C 1_555 1_555
C18C C22C 1_555 1_555
C19C C28C 1_555 1_555

#END
