
#######################################################################
#
#                 Cambridge Crystallographic Data Centre
#                                CCDC 
#
#######################################################################
#
# If this CIF has been generated from an entry in the Cambridge 
# Structural Database, then it will include bibliographic, chemical, 
# crystal, experimental, refinement or atomic coordinate data resulting 
# from the CCDC's data processing and validation procedures.
#
#######################################################################

data_TUCLUZ
_symmetry_cell_setting           triclinic
_symmetry_space_group_name_H-M   'P -1'
_symmetry_Int_Tables_number      2
_space_group_name_Hall           '-P 1'
loop_
_symmetry_equiv_pos_site_id
_symmetry_equiv_pos_as_xyz
1 x,y,z
2 -x,-y,-z
_cell_length_a                   7.6427(2)
_cell_length_b                   11.3085(3)
_cell_length_c                   14.3244(4)
_cell_angle_alpha                83.034(2)
_cell_angle_beta                 78.570(2)
_cell_angle_gamma                84.684(2)
_cell_volume                     1201.51
loop_
_atom_site_label
_atom_site_type_symbol
_atom_site_fract_x
_atom_site_fract_y
_atom_site_fract_z
C1 C 0.7826(8) 0.1605(5) 0.2866(4)
H1 H 0.7061 0.1177 0.3349
C2 C 0.9844(7) 0.1675(5) 0.1470(4)
H2 H 1.0516 0.1295 0.0962
C3 C 0.7887(8) 0.2805(5) 0.2907(4)
H3 H 0.7188 0.3163 0.3420
C4 C 0.9967(7) 0.2889(5) 0.1463(4)
H4 H 1.0721 0.3300 0.0964
C5 C 0.8972(6) 0.3496(4) 0.2198(4)
C6 C 0.8147(8) 0.6581(5) 0.2979(4)
H5 H 0.7550 0.6938 0.3516
C7 C 0.9749(8) 0.6738(5) 0.1476(4)
H6 H 1.0315 0.7205 0.0941
C8 C 0.8190(8) 0.5371(5) 0.3018(4)
H7 H 0.7657 0.4926 0.3574
C9 C 0.9842(7) 0.5532(5) 0.1443(4)
H8 H 1.0448 0.5203 0.0894
C10 C 0.9040(6) 0.4800(4) 0.2220(4)
N1 N 0.8820(6) 0.1021(4) 0.2163(3)
N2 N 0.8898(6) 0.7287(4) 0.2226(4)
O1 O 0.6060(6) -0.0662(4) 0.2606(3)
H15 H 0.555(9) -0.033(6) 0.224(5)
H16 H 0.534(7) -0.124(4) 0.300(4)
O2 O 0.9083(6) -0.0982(4) 0.3616(4)
H17 H 1.004(9) -0.121(7) 0.370(5)
H18 H 0.815(6) -0.099(6) 0.416(3)
O3 O 0.8457(5) -0.0665(3) 0.0777(3)
H19 H 0.763(8) -0.095(5) 0.066(4)
O4 O 1.1573(5) -0.0968(3) 0.1788(3)
Ni1 Ni 0.88097(8) -0.08424(5) 0.21986(5)
N2_2 N 0.8898(6) -0.2713(4) 0.2226(4)
Ni1_2 Ni 0.88097(8) 0.91576(5) 0.21986(5)
C11 C 0.4832(7) 0.2877(5) 0.1229(4)
C12 C 0.3866(8) 0.2813(6) 0.2123(5)
H9 H 0.3380 0.2102 0.2404
C13 C 0.5641(8) 0.3936(5) 0.0787(5)
H10 H 0.6355 0.3947 0.0179
C14 C 0.3574(7) 0.3873(5) 0.2658(4)
C15 C 0.5367(8) 0.4945(6) 0.1259(5)
H11 H 0.5884 0.5643 0.0969
C16 C 0.4316(7) 0.4920(5) 0.2169(4)
C17 C 0.2588(9) 0.3830(6) 0.3573(5)
H12 H 0.2084 0.3130 0.3869
C18 C 0.4018(8) 0.5975(6) 0.2676(5)
H13 H 0.4466 0.6692 0.2379
C19 C 0.2358(9) 0.4837(6) 0.4043(5)
H14 H 0.1718 0.4815 0.4668
C20 C 0.3088(8) 0.5909(6) 0.3582(4)
O5 O 0.4449(5) 0.0629(3) 0.1167(3)
O6 O 0.6910(5) 0.1538(3) 0.0094(3)
O7 O 0.3895(5) 0.2045(3) -0.0170(3)
O8 O 0.4128(6) 0.6972(4) 0.4835(3)
O9 O 0.0981(6) 0.7196(4) 0.4748(4)
O10 O 0.3109(6) 0.8213(4) 0.3544(3)
S1 S 0.50240(17) 0.16662(12) 0.05295(11)
S2 S 0.2801(2) 0.71659(14) 0.42397(12)
O11 O 0.6044(7) -0.1068(5) 0.5045(4)
O12 O 0.8948(18) -0.0914(9) 0.5979(8)
loop_
_geom_bond_atom_site_label_1
_geom_bond_atom_site_label_2
_geom_bond_site_symmetry_1
_geom_bond_site_symmetry_2
C1 H1 1_555 1_555
C2 H2 1_555 1_555
C3 C1 1_555 1_555
H3 C3 1_555 1_555
C4 C2 1_555 1_555
H4 C4 1_555 1_555
C5 C3 1_555 1_555
C6 H5 1_555 1_555
C7 H6 1_555 1_555
C8 C6 1_555 1_555
H7 C8 1_555 1_555
C9 C7 1_555 1_555
H8 C9 1_555 1_555
C10 C5 1_555 1_555
C11 C12 1_555 1_555
C12 H9 1_555 1_555
C13 C11 1_555 1_555
H10 C13 1_555 1_555
C14 C12 1_555 1_555
C15 C13 1_555 1_555
H11 C15 1_555 1_555
C16 C14 1_555 1_555
C17 C14 1_555 1_555
H12 C17 1_555 1_555
C18 C16 1_555 1_555
H13 C18 1_555 1_555
C19 C17 1_555 1_555
H14 C19 1_555 1_555
C20 C18 1_555 1_555
N1 C1 1_555 1_555
N2 C6 1_555 1_555
O1 H15 1_555 1_555
H16 O1 1_555 1_555
O2 H17 1_555 1_555
H18 O2 1_555 1_555
O3 H19 1_555 1_555
O4 Ni1 1_555 1_555
O5 S1 1_555 1_555
O6 S1 1_555 1_555
O7 S1 1_555 1_555
O8 S2 1_555 1_555
O9 S2 1_555 1_555
O10 S2 1_555 1_555
S1 C11 1_555 1_555
S2 C20 1_555 1_555
Ni1 N1 1_555 1_555
N2_2 Ni1 1_555 1_555
Ni1_2 N2 1_555 1_555
C2 N1 1_555 1_555
C4 C5 1_555 1_555
C7 N2 1_555 1_555
C8 C10 1_555 1_555
C9 C10 1_555 1_555
C15 C16 1_555 1_555
C19 C20 1_555 1_555
O1 Ni1 1_555 1_555
O2 Ni1 1_555 1_555
O3 Ni1 1_555 1_555

#END
