
#######################################################################
#
#                 Cambridge Crystallographic Data Centre
#                                CCDC 
#
#######################################################################
#
# If this CIF has been generated from an entry in the Cambridge 
# Structural Database, then it will include bibliographic, chemical, 
# crystal, experimental, refinement or atomic coordinate data resulting 
# from the CCDC's data processing and validation procedures.
#
#######################################################################

data_TUCMUA
_symmetry_cell_setting           monoclinic
_symmetry_space_group_name_H-M   'P 21/n'
_symmetry_Int_Tables_number      14
_space_group_name_Hall           '-P 2yn'
loop_
_symmetry_equiv_pos_site_id
_symmetry_equiv_pos_as_xyz
1 x,y,z
2 1/2-x,1/2+y,1/2-z
3 -x,-y,-z
4 1/2+x,1/2-y,1/2+z
_cell_length_a                   12.4422(10)
_cell_length_b                   19.420(2)
_cell_length_c                   13.9526(12)
_cell_angle_alpha                90
_cell_angle_beta                 115.9550(10)
_cell_angle_gamma                90
_cell_volume                     3031.29
loop_
_atom_site_label
_atom_site_type_symbol
_atom_site_fract_x
_atom_site_fract_y
_atom_site_fract_z
Pr1 Pr 0.46483(4) 0.11067(2) 0.81032(4)
N1 N 0.4197(7) 0.1272(4) 0.4537(6)
N2 N 0.3601(7) 0.2579(4) 0.5029(6)
N3 N 0.6351(7) 0.2370(4) 0.2824(7)
N4 N 0.5680(7) 0.3634(4) 0.3185(7)
N5 N 0.7602(7) -0.1038(4) 0.8501(6)
N6 N 0.6874(6) -0.2183(4) 0.9294(6)
N7 N 0.9700(7) -0.2580(4) 0.7171(6)
N8 N 0.8876(7) -0.3685(4) 0.7831(6)
O1 O 0.3897(6) 0.0484(3) 0.6402(5)
O2 O 0.2240(6) 0.0443(4) 0.4867(6)
O3 O 0.2854(6) 0.1716(3) 0.6799(5)
O4 O 0.1785(7) 0.2531(4) 0.5693(6)
O5 O 0.5811(5) 0.0044(3) 0.8478(5)
O6 O 0.7339(6) 0.0027(3) 1.0107(5)
H1 H 0.7081 0.0407 1.0157
O7 O 0.6165(6) -0.1891(3) 1.0887(5)
O8 O 0.5387(6) -0.0918(3) 1.0052(5)
O9 O 0.2975(6) 0.0345(4) 0.8019(5)
H2 H 0.2312 0.0449 0.7501
H3 H 0.2903 0.0352 0.8598
O10 O 0.6638(6) 0.1351(3) 0.9512(5)
H4 H 0.6936 0.0996 0.9893
H5 H 0.6616 0.1678 0.9908
C1 C 0.3204(8) 0.0696(5) 0.5488(7)
C2 C 0.3592(8) 0.1348(5) 0.5108(7)
C3 C 0.3293(8) 0.2006(4) 0.5355(7)
C4 C 0.2583(8) 0.2093(5) 0.6001(7)
C5 C 0.4544(8) 0.1859(5) 0.4225(7)
C6 C 0.4245(8) 0.2512(5) 0.4469(7)
C7 C 0.6665(10) 0.1764(6) 0.2576(9)
H10 H 0.7145 0.1754 0.2219
C8 C 0.6297(10) 0.1152(5) 0.2837(9)
H11 H 0.6513 0.0734 0.2647
C9 C 0.5604(9) 0.1169(5) 0.3382(8)
H12 H 0.5359 0.0761 0.3575
C10 C 0.5270(8) 0.1804(5) 0.3644(7)
C11 C 0.5654(8) 0.2410(5) 0.3346(7)
C12 C 0.5314(8) 0.3086(5) 0.3560(8)
C13 C 0.4605(8) 0.3139(5) 0.4106(7)
C14 C 0.4264(9) 0.3799(5) 0.4271(8)
H13 H 0.3800 0.3858 0.4637
C15 C 0.4626(9) 0.4355(5) 0.3886(9)
H14 H 0.4402 0.4798 0.3976
C16 C 0.5332(9) 0.4248(5) 0.3356(9)
H15 H 0.5577 0.4632 0.3105
C17 C 0.6674(8) -0.0234(4) 0.9236(7)
C18 C 0.6969(8) -0.0970(4) 0.9055(7)
C19 C 0.6627(8) -0.1545(4) 0.9472(7)
C20 C 0.5997(8) -0.1449(5) 1.0181(7)
C21 C 0.7880(7) -0.1690(4) 0.8338(7)
C22 C 0.7492(7) -0.2260(4) 0.8708(7)
C23 C 1.0099(8) -0.2038(5) 0.6842(8)
H16 H 1.0613 -0.2117 0.6531
C24 C 0.9794(10) -0.1360(5) 0.6933(9)
H17 H 1.0090 -0.1000 0.6678
C25 C 0.9053(9) -0.1231(5) 0.7404(8)
H18 H 0.8832 -0.0783 0.7468
C26 C 0.8634(8) -0.1784(4) 0.7786(7)
C27 C 0.8968(7) -0.2458(4) 0.7639(7)
C28 C 0.8529(7) -0.3051(4) 0.7999(7)
C29 C 0.7793(7) -0.2958(4) 0.8512(7)
C30 C 0.7378(8) -0.3544(5) 0.8831(7)
H19 H 0.6876 -0.3500 0.9162
C31 C 0.7720(9) -0.4180(5) 0.8648(8)
H20 H 0.7449 -0.4576 0.8848
C32 C 0.8480(8) -0.4226(5) 0.8159(7)
H21 H 0.8723 -0.4661 0.8056
Pr1B Pr 0.53517(4) -0.11067(2) 1.18968(4)
Pr1A Pr 1.03517(4) -0.38933(2) 0.68968(4)
Pr1C Pr -0.03517(4) 0.38933(2) 1.31032(4)
N1B N 0.5803(7) -0.1272(4) 1.5463(6)
N2B N 0.6399(7) -0.2579(4) 1.4971(6)
N3B N 0.3649(7) -0.2370(4) 1.7176(7)
N4B N 0.4320(7) -0.3634(4) 1.6815(7)
N5B N 0.2398(7) 0.1038(4) 1.1499(6)
N6B N 0.3126(6) 0.2183(4) 1.0706(6)
N7B N 0.0300(7) 0.2580(4) 1.2829(6)
N7A N 0.5300(7) 0.2420(4) 0.7829(6)
N7C N 0.4700(7) -0.2420(4) 1.2171(6)
N8B N 0.1124(7) 0.3685(4) 1.2169(6)
N8A N 0.6124(7) 0.1315(4) 0.7169(6)
N8C N 0.3876(7) -0.1315(4) 1.2831(6)
O1B O 0.6103(6) -0.0484(3) 1.3598(5)
O2B O 0.7760(6) -0.0443(4) 1.5133(6)
O3B O 0.7146(6) -0.1716(3) 1.3201(5)
O4B O 0.8215(7) -0.2531(4) 1.4307(6)
O5B O 0.4189(5) -0.0044(3) 1.1522(5)
O6B O 0.2661(6) -0.0027(3) 0.9893(5)
H1B H 0.2919 -0.0407 0.9843
O7B O 0.3835(6) 0.1891(3) 0.9113(5)
O8B O 0.4613(6) 0.0918(3) 0.9948(5)
O9B O 0.7025(6) -0.0345(4) 1.1981(5)
H2B H 0.7688 -0.0449 1.2499
H3B H 0.7097 -0.0352 1.1402
O10B O 0.3362(6) -0.1351(3) 1.0488(5)
H4B H 0.3064 -0.0996 1.0107
H5B H 0.3384 -0.1678 1.0092
C1B C 0.6796(8) -0.0696(5) 1.4512(7)
C2B C 0.6408(8) -0.1348(5) 1.4892(7)
C3B C 0.6707(8) -0.2006(4) 1.4645(7)
C4B C 0.7417(8) -0.2093(5) 1.3999(7)
C5B C 0.5456(8) -0.1859(5) 1.5775(7)
C6B C 0.5755(8) -0.2512(5) 1.5531(7)
C7B C 0.3335(10) -0.1764(6) 1.7424(9)
H10B H 0.2855 -0.1754 1.7781
C8B C 0.3703(10) -0.1152(5) 1.7163(9)
H11B H 0.3487 -0.0734 1.7353
C9B C 0.4396(9) -0.1169(5) 1.6618(8)
H12B H 0.4641 -0.0761 1.6425
C10B C 0.4730(8) -0.1804(5) 1.6356(7)
C11B C 0.4346(8) -0.2410(5) 1.6654(7)
C12B C 0.4686(8) -0.3086(5) 1.6440(8)
C13B C 0.5395(8) -0.3139(5) 1.5894(7)
C14B C 0.5736(9) -0.3799(5) 1.5729(8)
H13B H 0.6200 -0.3858 1.5363
C15B C 0.5374(9) -0.4355(5) 1.6114(9)
H14B H 0.5598 -0.4798 1.6024
C16B C 0.4668(9) -0.4248(5) 1.6644(9)
H15B H 0.4423 -0.4632 1.6895
C17B C 0.3326(8) 0.0234(4) 1.0764(7)
C18B C 0.3031(8) 0.0970(4) 1.0945(7)
C19B C 0.3373(8) 0.1545(4) 1.0528(7)
C20B C 0.4003(8) 0.1449(5) 0.9819(7)
C21B C 0.2120(7) 0.1690(4) 1.1662(7)
C22B C 0.2508(7) 0.2260(4) 1.1292(7)
C23B C -0.0099(8) 0.2038(5) 1.3158(8)
H16B H -0.0613 0.2117 1.3469
C24B C 0.0206(10) 0.1360(5) 1.3067(9)
H17B H -0.0090 0.1000 1.3322
C25B C 0.0947(9) 0.1231(5) 1.2596(8)
H18B H 0.1168 0.0783 1.2532
C26B C 0.1366(8) 0.1784(4) 1.2214(7)
C27B C 0.1032(7) 0.2458(4) 1.2361(7)
C28B C 0.1471(7) 0.3051(4) 1.2001(7)
C29B C 0.2207(7) 0.2958(4) 1.1488(7)
C30B C 0.2622(8) 0.3544(5) 1.1169(7)
H19B H 0.3124 0.3500 1.0838
C31B C 0.2280(9) 0.4180(5) 1.1352(8)
H20B H 0.2551 0.4576 1.1152
C32B C 0.1520(8) 0.4226(5) 1.1841(7)
H21B H 0.1277 0.4661 1.1944
O11 O 0.9772(13) 0.1707(8) 0.5443(13)
H6 H 1.0391 0.1927 0.5511
H7 H 0.9288 0.1990 0.5509
O12 O 0.0860(18) 0.0329(14) 0.6212(17)
H8 H 0.1285 0.0298 0.5875
H9 H 0.0496 0.0713 0.6055
H22? H 0.1490 -0.0018 0.5651
H23? H 0.1734 -0.0049 0.6713
O13? O 0.125(3) -0.018(2) 0.609(3)
loop_
_geom_bond_atom_site_label_1
_geom_bond_atom_site_label_2
_geom_bond_site_symmetry_1
_geom_bond_site_symmetry_2
Pr1 O1 1_555 1_555
N1 C2 1_555 1_555
N2 C3 1_555 1_555
N3 C7 1_555 1_555
N4 C12 1_555 1_555
N5 C18 1_555 1_555
N6 C19 1_555 1_555
N7 C23 1_555 1_555
N8 C28 1_555 1_555
O1 C1 1_555 1_555
O2 C1 1_555 1_555
O3 Pr1 1_555 1_555
O4 C4 1_555 1_555
O5 Pr1 1_555 1_555
O6 H1 1_555 1_555
O7 C20 1_555 1_555
O8 C20 1_555 1_555
O9 Pr1 1_555 1_555
H2 O9 1_555 1_555
H3 O9 1_555 1_555
O10 Pr1 1_555 1_555
H4 O10 1_555 1_555
H5 O10 1_555 1_555
O11 H6 1_555 1_555
H7 O11 1_555 1_555
O12 H8 1_555 1_555
H9 O12 1_555 1_555
C1 C2 1_555 1_555
C2 C3 1_555 1_555
C3 C4 1_555 1_555
C4 O3 1_555 1_555
C5 N1 1_555 1_555
C6 N2 1_555 1_555
C7 H10 1_555 1_555
C8 C7 1_555 1_555
H11 C8 1_555 1_555
C9 C8 1_555 1_555
H12 C9 1_555 1_555
C10 C5 1_555 1_555
C11 N3 1_555 1_555
C12 C11 1_555 1_555
C13 C6 1_555 1_555
C14 C13 1_555 1_555
H13 C14 1_555 1_555
C15 C14 1_555 1_555
H14 C15 1_555 1_555
C16 N4 1_555 1_555
H15 C16 1_555 1_555
C17 O5 1_555 1_555
C18 C17 1_555 1_555
C19 C18 1_555 1_555
C20 C19 1_555 1_555
C21 N5 1_555 1_555
C22 N6 1_555 1_555
C23 H16 1_555 1_555
C24 C23 1_555 1_555
H17 C24 1_555 1_555
C25 C24 1_555 1_555
H18 C25 1_555 1_555
C26 C21 1_555 1_555
C27 N7 1_555 1_555
C28 C27 1_555 1_555
C29 C22 1_555 1_555
C30 C29 1_555 1_555
H19 C30 1_555 1_555
C31 C30 1_555 1_555
H20 C31 1_555 1_555
C32 N8 1_555 1_555
H21 C32 1_555 1_555
Pr1B O7 1_555 1_555
Pr1A N7 1_555 1_555
Pr1C N7B 1_555 1_555
N1B C2B 1_555 1_555
N2B C3B 1_555 1_555
N3B C7B 1_555 1_555
N4B C12B 1_555 1_555
N5B C18B 1_555 1_555
N6B C19B 1_555 1_555
N7B C23B 1_555 1_555
N7A Pr1 1_555 1_555
N7C Pr1B 1_555 1_555
N8B Pr1C 1_555 1_555
N8A Pr1 1_555 1_555
N8C Pr1B 1_555 1_555
O1B Pr1B 1_555 1_555
O2B C1B 1_555 1_555
O3B Pr1B 1_555 1_555
O4B C4B 1_555 1_555
O5B Pr1B 1_555 1_555
O6B H1B 1_555 1_555
O7B Pr1 1_555 1_555
O8B Pr1 1_555 1_555
O9B Pr1B 1_555 1_555
H2B O9B 1_555 1_555
H3B O9B 1_555 1_555
O10B Pr1B 1_555 1_555
H4B O10B 1_555 1_555
H5B O10B 1_555 1_555
C1B O1B 1_555 1_555
C2B C1B 1_555 1_555
C3B C2B 1_555 1_555
C4B O3B 1_555 1_555
C5B N1B 1_555 1_555
C6B N2B 1_555 1_555
C7B H10B 1_555 1_555
C8B C7B 1_555 1_555
H11B C8B 1_555 1_555
C9B C8B 1_555 1_555
H12B C9B 1_555 1_555
C10B C5B 1_555 1_555
C11B N3B 1_555 1_555
C12B C11B 1_555 1_555
C13B C6B 1_555 1_555
C14B C13B 1_555 1_555
H13B C14B 1_555 1_555
C15B C14B 1_555 1_555
H14B C15B 1_555 1_555
C16B N4B 1_555 1_555
H15B C16B 1_555 1_555
C17B O5B 1_555 1_555
C18B C17B 1_555 1_555
C19B C18B 1_555 1_555
C20B O7B 1_555 1_555
C21B N5B 1_555 1_555
C22B N6B 1_555 1_555
C23B H16B 1_555 1_555
C24B C23B 1_555 1_555
H17B C24B 1_555 1_555
C25B C24B 1_555 1_555
H18B C25B 1_555 1_555
C26B C21B 1_555 1_555
C27B N7B 1_555 1_555
C28B N8B 1_555 1_555
C29B C22B 1_555 1_555
C30B C29B 1_555 1_555
H19B C30B 1_555 1_555
C31B C30B 1_555 1_555
H20B C31B 1_555 1_555
C32B N8B 1_555 1_555
H21B C32B 1_555 1_555
N8 Pr1A 1_555 1_555
O6 C17 1_555 1_555
O8 Pr1B 1_555 1_555
C5 C6 1_555 1_555
C9 C10 1_555 1_555
C10 C11 1_555 1_555
C12 C13 1_555 1_555
C15 C16 1_555 1_555
C21 C22 1_555 1_555
C25 C26 1_555 1_555
C26 C27 1_555 1_555
C28 C29 1_555 1_555
C31 C32 1_555 1_555
O6B C17B 1_555 1_555
O8B C20B 1_555 1_555
C3B C4B 1_555 1_555
C5B C6B 1_555 1_555
C9B C10B 1_555 1_555
C10B C11B 1_555 1_555
C12B C13B 1_555 1_555
C15B C16B 1_555 1_555
C19B C20B 1_555 1_555
C21B C22B 1_555 1_555
C25B C26B 1_555 1_555
C26B C27B 1_555 1_555
C27B C28B 1_555 1_555
C28B C29B 1_555 1_555
C31B C32B 1_555 1_555

#END
