
#######################################################################
#
#                 Cambridge Crystallographic Data Centre
#                                CCDC 
#
#######################################################################
#
# If this CIF has been generated from an entry in the Cambridge 
# Structural Database, then it will include bibliographic, chemical, 
# crystal, experimental, refinement or atomic coordinate data resulting 
# from the CCDC's data processing and validation procedures.
#
#######################################################################

data_TUCMIO
_symmetry_cell_setting           monoclinic
_symmetry_space_group_name_H-M   'C 2/c'
_symmetry_Int_Tables_number      15
_space_group_name_Hall           '-C 2yn'
loop_
_symmetry_equiv_pos_site_id
_symmetry_equiv_pos_as_xyz
1 x,y,z
2 -x,y,1/2-z
3 1/2+x,1/2+y,z
4 1/2-x,1/2+y,1/2-z
5 -x,-y,-z
6 x,-y,1/2+z
7 1/2-x,1/2-y,-z
8 1/2+x,1/2-y,1/2+z
_cell_length_a                   13.5231(4)
_cell_length_b                   11.0694(3)
_cell_length_c                   16.0659(5)
_cell_angle_alpha                90
_cell_angle_beta                 108.101(2)
_cell_angle_gamma                90
_cell_volume                     2285.93
loop_
_atom_site_label
_atom_site_type_symbol
_atom_site_fract_x
_atom_site_fract_y
_atom_site_fract_z
C1 C 0.0704(2) 0.1204(2) 0.72440(16)
C2 C 0.0735(2) -0.0037(2) 0.72421(16)
C3 C 0.0000 -0.0693(3) 0.7500
C4 C -0.0825(2) -0.3932(2) 0.75551(19)
C5 C -0.0857(2) -0.2685(2) 0.75450(19)
C6 C 0.0000 -0.2029(3) 0.7500
N1 N 0.0000 0.1828(2) 0.7500
N2 N 0.0000 -0.4556(2) 0.7500
O1 O -0.02370(18) 0.36148(17) 0.86708(13)
O2 O -0.18607(18) 0.3608(2) 0.67117(15)
Cu1 Cu 0.0000 0.36344(3) 0.7500
H1 H 0.017(2) 0.389(3) 0.898(2)
H2 H -0.083(2) 0.380(2) 0.8702(19)
H3 H -0.197(3) 0.402(4) 0.633(3)
H4 H -0.213(3) 0.298(4) 0.652(2)
H5 H 0.1183(19) 0.160(2) 0.7045(16)
H6 H 0.121(2) -0.042(2) 0.7042(17)
H7 H -0.147(2) -0.437(3) 0.7565(19)
H8 H -0.148(2) -0.229(3) 0.7546(18)
C1A C -0.0704(2) 0.1204(2) 0.77560(16)
C2A C -0.0735(2) -0.0037(2) 0.77579(16)
C4A C 0.0825(2) -0.3932(2) 0.74449(19)
C5A C 0.0857(2) -0.2685(2) 0.74550(19)
N2_2 N 0.0000 0.5444(2) 0.7500
O1A O 0.02370(18) 0.36148(17) 0.63292(13)
O2A O 0.18607(18) 0.3608(2) 0.82883(15)
Cu1_2 Cu 0.0000 -0.63656(3) 0.7500
H1A H -0.017(2) 0.389(3) 0.602(2)
H2A H 0.083(2) 0.380(2) 0.6298(19)
H3A H 0.197(3) 0.402(4) 0.867(3)
H4A H 0.213(3) 0.298(4) 0.848(2)
H5A H -0.1183(19) 0.160(2) 0.7955(16)
H6A H -0.121(2) -0.042(2) 0.7958(17)
H7A H 0.147(2) -0.437(3) 0.7435(19)
H8A H 0.148(2) -0.229(3) 0.7454(18)
C7 C 0.33372(18) 0.5061(2) 1.03817(15)
C8 C 0.3914(2) 0.4139(2) 1.02097(16)
C9 C 0.3650(2) 0.6277(2) 1.03663(17)
C10 C 0.4537(2) 0.6539(2) 1.01777(18)
C11 C 0.48408(19) 0.4391(2) 1.00058(15)
O3 O 0.13571(15) 0.4941(2) 0.97296(13)
O4 O 0.21754(17) 0.35201(18) 1.08758(17)
O5 O 0.20610(15) 0.5639(2) 1.12159(13)
S1 S 0.21431(5) 0.47528(6) 1.05755(4)
H9 H 0.372(2) 0.340(2) 1.0213(17)
H10 H 0.328(2) 0.686(3) 1.0533(18)
H11 H 0.475(2) 0.724(3) 1.0183(17)
C7D C 0.66628(18) 0.4939(2) 0.96183(15)
C8D C 0.6086(2) 0.5861(2) 0.97903(16)
C9D C 0.6350(2) 0.3723(2) 0.96337(17)
C10D C 0.5463(2) 0.3461(2) 0.98223(18)
C11D C 0.51592(19) 0.5609(2) 0.99942(15)
O3D O 0.86429(15) 0.5059(2) 1.02704(13)
O4D O 0.78246(17) 0.64799(18) 0.91242(17)
O5D O 0.79390(15) 0.4361(2) 0.87841(13)
S1D S 0.78569(5) 0.52472(6) 0.94245(4)
H9D H 0.628(2) 0.660(2) 0.9787(17)
H10D H 0.672(2) 0.314(3) 0.9467(18)
H11D H 0.525(2) 0.276(3) 0.9817(17)
loop_
_geom_bond_atom_site_label_1
_geom_bond_atom_site_label_2
_geom_bond_site_symmetry_1
_geom_bond_site_symmetry_2
C1 C2 1_555 1_555
C2 C3 1_555 1_555
C3 C6 1_555 1_555
C4 C5 1_555 1_555
C5 C6 1_555 1_555
C6 C5A 1_555 1_555
C7 C8 1_555 1_555
C8 C11 1_555 1_555
C9 C7 1_555 1_555
C10 C9 1_555 1_555
C11 C10D 1_555 1_555
N1 C1 1_555 1_555
N2 C4 1_555 1_555
O1 Cu1 1_555 1_555
O2 Cu1 1_555 1_555
O3 S1 1_555 1_555
O4 S1 1_555 1_555
O5 S1 1_555 1_555
S1 C7 1_555 1_555
Cu1 N1 1_555 1_555
H1 O1 1_555 1_555
H2 O1 1_555 1_555
H3 O2 1_555 1_555
H4 O2 1_555 1_555
H5 C1 1_555 1_555
H6 C2 1_555 1_555
H7 C4 1_555 1_555
H8 C5 1_555 1_555
H9 C8 1_555 1_555
H10 C9 1_555 1_555
H11 C10 1_555 1_555
C1A N1 1_555 1_555
C2A C3 1_555 1_555
C4A N2 1_555 1_555
C5A C4A 1_555 1_555
C7D C8D 1_555 1_555
C8D C11D 1_555 1_555
C9D C7D 1_555 1_555
C10D C9D 1_555 1_555
C11D C10 1_555 1_555
N2_2 Cu1 1_555 1_555
O1A Cu1 1_555 1_555
O2A Cu1 1_555 1_555
O3D S1D 1_555 1_555
O4D S1D 1_555 1_555
O5D S1D 1_555 1_555
S1D C7D 1_555 1_555
Cu1_2 N2 1_555 1_555
H1A O1A 1_555 1_555
H2A O1A 1_555 1_555
H3A O2A 1_555 1_555
H4A O2A 1_555 1_555
H5A C1A 1_555 1_555
H6A C2A 1_555 1_555
H7A C4A 1_555 1_555
H8A C5A 1_555 1_555
H9D C8D 1_555 1_555
H10D C9D 1_555 1_555
H11D C10D 1_555 1_555
C11 C11D 1_555 1_555
C1A C2A 1_555 1_555

#END
