
#######################################################################
#
#                 Cambridge Crystallographic Data Centre
#                                CCDC 
#
#######################################################################
#
# If this CIF has been generated from an entry in the Cambridge 
# Structural Database, then it will include bibliographic, chemical, 
# crystal, experimental, refinement or atomic coordinate data resulting 
# from the CCDC's data processing and validation procedures.
#
#######################################################################

data_TUCMAG
_symmetry_cell_setting           triclinic
_symmetry_space_group_name_H-M   'P -1'
_symmetry_Int_Tables_number      2
_space_group_name_Hall           '-P 1'
loop_
_symmetry_equiv_pos_site_id
_symmetry_equiv_pos_as_xyz
1 x,y,z
2 -x,-y,-z
_cell_length_a                   8.4893(2)
_cell_length_b                   8.6526(2)
_cell_length_c                   9.1010(2)
_cell_angle_alpha                101.3480(10)
_cell_angle_beta                 90.2660(10)
_cell_angle_gamma                117.0750(10)
_cell_volume                     580.204
loop_
_atom_site_label
_atom_site_type_symbol
_atom_site_fract_x
_atom_site_fract_y
_atom_site_fract_z
C1 C -0.0500(3) 0.3062(3) 1.1693(3)
C2 C -0.0487(3) 0.4326(3) 1.2881(3)
C3 C -0.0037(3) 0.4314(3) 1.4344(3)
C4 C 0.0350(4) 0.2956(3) 1.4508(3)
C5 C 0.0323(4) 0.1757(3) 1.3265(3)
N1 N -0.0092(3) 0.1784(2) 1.1853(2)
O1 O -0.2413(2) -0.0433(2) 0.9032(2)
O2 O 0.1418(3) 0.2046(2) 0.8866(2)
Ni1 Ni 0.0000 0.0000 1.0000
H1 H -0.310(4) -0.069(3) 0.958(3)
H2 H -0.243(4) 0.028(4) 0.871(3)
H3 H 0.176(4) 0.296(4) 0.932(3)
H4 H 0.231(4) 0.194(3) 0.863(3)
H5 H -0.081(3) 0.309(3) 1.070(3)
H6 H -0.077(4) 0.513(4) 1.270(3)
H7 H 0.065(4) 0.284(3) 1.546(3)
H8 H 0.060(3) 0.089(3) 1.337(3)
C1A C 0.0500(3) 0.6938(3) 1.8307(3)
C2A C 0.0487(3) 0.5674(3) 1.7119(3)
C3A C 0.0037(3) 0.5686(3) 1.5656(3)
C4A C -0.0350(4) 0.7044(3) 1.5492(3)
C5A C -0.0323(4) 0.8243(3) 1.6735(3)
N1A N 0.0092(3) 0.8216(2) 1.8147(2)
N1A_2 N 0.0092(3) -0.1784(2) 0.8147(2)
O1A O 0.2413(2) 0.0433(2) 1.0968(2)
O2A O -0.1418(3) -0.2046(2) 1.1134(2)
Ni1_2 Ni 0.0000 1.0000 2.0000
H1A H 0.310(4) 0.069(3) 1.042(3)
H2A H 0.243(4) -0.028(4) 1.129(3)
H3A H -0.176(4) -0.296(4) 1.068(3)
H4A H -0.231(4) -0.194(3) 1.137(3)
H5A H 0.081(3) 0.691(3) 1.930(3)
H6A H 0.077(4) 0.487(4) 1.730(3)
H7A H -0.065(4) 0.716(3) 1.454(3)
H8A H -0.060(3) 0.911(3) 1.663(3)
C6 C 0.4275(3) 0.6437(3) 1.3149(3)
C7 C 0.4319(3) 0.7437(3) 1.4591(3)
C8 C 0.4693(4) 0.6977(3) 1.5847(3)
C9 C 0.5022(3) 0.5506(3) 1.5722(3)
C10 C 0.4597(3) 0.5012(3) 1.2980(3)
O3 O 0.2582(3) 0.7784(3) 1.1952(2)
O4 O 0.3210(3) 0.5638(2) 1.0281(2)
O5 O 0.5573(2) 0.8571(2) 1.1367(2)
S1 S 0.38579(8) 0.71369(8) 1.15512(7)
H9 H 0.405(4) 0.840(4) 1.465(3)
H10 H 0.468(3) 0.758(3) 1.682(3)
H11 H 0.463(4) 0.440(4) 1.201(3)
C6A C 0.5725(3) 0.3563(3) 1.6851(3)
C7A C 0.5681(3) 0.2563(3) 1.5409(3)
C8A C 0.5307(4) 0.3023(3) 1.4153(3)
C9A C 0.4978(3) 0.4494(3) 1.4278(3)
C10A C 0.5403(3) 0.4988(3) 1.7020(3)
O3A O 0.7418(3) 0.2216(3) 1.8048(2)
O4A O 0.6790(3) 0.4362(2) 1.9719(2)
O5A O 0.4427(2) 0.1429(2) 1.8633(2)
S1A S 0.61421(8) 0.28631(8) 1.84488(7)
H9A H 0.595(4) 0.160(4) 1.535(3)
H10A H 0.532(3) 0.242(3) 1.318(3)
H11A H 0.537(4) 0.560(4) 1.799(3)
loop_
_geom_bond_atom_site_label_1
_geom_bond_atom_site_label_2
_geom_bond_site_symmetry_1
_geom_bond_site_symmetry_2
C1 C2 1_555 1_555
C2 C3 1_555 1_555
C3 C4 1_555 1_555
C4 C5 1_555 1_555
C5 N1 1_555 1_555
C6 C7 1_555 1_555
C7 C8 1_555 1_555
C8 C9 1_555 1_555
C9 C9A 1_555 1_555
C10 C6 1_555 1_555
N1 C1 1_555 1_555
O1 Ni1 1_555 1_555
O2 Ni1 1_555 1_555
O3 S1 1_555 1_555
O4 S1 1_555 1_555
O5 S1 1_555 1_555
S1 C6 1_555 1_555
Ni1 N1 1_555 1_555
H1 O1 1_555 1_555
H2 O1 1_555 1_555
H3 O2 1_555 1_555
H4 O2 1_555 1_555
H5 C1 1_555 1_555
H6 C2 1_555 1_555
H7 C4 1_555 1_555
H8 C5 1_555 1_555
H9 C7 1_555 1_555
H10 C8 1_555 1_555
H11 C10 1_555 1_555
C1A C2A 1_555 1_555
C2A C3A 1_555 1_555
C3A C3 1_555 1_555
C4A C3A 1_555 1_555
C5A C4A 1_555 1_555
C6A C7A 1_555 1_555
C7A C8A 1_555 1_555
C8A C9A 1_555 1_555
C9A C10 1_555 1_555
C10A C9 1_555 1_555
N1A C1A 1_555 1_555
N1A_2 Ni1 1_555 1_555
O1A Ni1 1_555 1_555
O2A Ni1 1_555 1_555
O3A S1A 1_555 1_555
O4A S1A 1_555 1_555
O5A S1A 1_555 1_555
S1A C6A 1_555 1_555
Ni1_2 N1A 1_555 1_555
H1A O1A 1_555 1_555
H2A O1A 1_555 1_555
H3A O2A 1_555 1_555
H4A O2A 1_555 1_555
H5A C1A 1_555 1_555
H6A C2A 1_555 1_555
H7A C4A 1_555 1_555
H8A C5A 1_555 1_555
H9A C7A 1_555 1_555
H10A C8A 1_555 1_555
H11A C10A 1_555 1_555
C5A N1A 1_555 1_555
C6A C10A 1_555 1_555

#END
