
#######################################################################
#
#                 Cambridge Crystallographic Data Centre
#                                CCDC 
#
#######################################################################
#
# If this CIF has been generated from an entry in the Cambridge 
# Structural Database, then it will include bibliographic, chemical, 
# crystal, experimental, refinement or atomic coordinate data resulting 
# from the CCDC's data processing and validation procedures.
#
#######################################################################

data_TUCMOU
_symmetry_cell_setting           monoclinic
_symmetry_space_group_name_H-M   'P 21/n'
_symmetry_Int_Tables_number      14
_space_group_name_Hall           '-P 2yn'
loop_
_symmetry_equiv_pos_site_id
_symmetry_equiv_pos_as_xyz
1 x,y,z
2 1/2-x,1/2+y,1/2-z
3 -x,-y,-z
4 1/2+x,1/2-y,1/2+z
_cell_length_a                   12.3091(11)
_cell_length_b                   19.2167(17)
_cell_length_c                   14.0062(12)
_cell_angle_alpha                90
_cell_angle_beta                 115.3990(10)
_cell_angle_gamma                90
_cell_volume                     2992.8
loop_
_atom_site_label
_atom_site_type_symbol
_atom_site_fract_x
_atom_site_fract_y
_atom_site_fract_z
Gd1 Gd 0.467588(14) 0.113269(8) 0.812100(12)
O1 O 0.3917(2) 0.05042(12) 0.64825(18)
O2 O 0.2270(2) 0.04257(14) 0.4947(2)
O3 O 0.2909(2) 0.17483(13) 0.68784(19)
O4 O 0.1777(2) 0.25302(14) 0.5717(2)
O5 O 0.5752(2) 0.00681(12) 0.84830(18)
O6 O 0.7269(2) 0.00385(13) 1.01055(19)
H1 H 0.7878 0.0196 1.0084
O7 O 0.5312(2) -0.09158(13) 1.0052(2)
O8 O 0.6113(2) -0.18962(13) 1.08868(19)
N1 N 0.3657(2) 0.25928(15) 0.5081(2)
N2 N 0.4235(3) 0.12648(15) 0.4577(2)
N3 N 0.5729(3) 0.36445(16) 0.3186(3)
N4 N 0.6413(3) 0.23580(17) 0.2844(3)
N5 N 0.7536(3) -0.10279(14) 0.8477(2)
N6 N 0.6819(2) -0.21932(15) 0.9277(2)
N7 N 0.9672(2) -0.25692(15) 0.7131(2)
N8 N 0.8870(2) -0.36944(14) 0.7800(2)
C1 C 0.3631(3) 0.13467(18) 0.5161(3)
C2 C 0.3342(3) 0.20138(18) 0.5410(3)
C3 C 0.6727(4) 0.1741(2) 0.2596(3)
H2 H 0.7213 0.1726 0.2239
C4 C 0.6342(4) 0.1126(2) 0.2860(3)
H3 H 0.6547 0.0700 0.2666
C5 C 0.5653(3) 0.1152(2) 0.3414(3)
H4 H 0.5412 0.0742 0.3620
C6 C 0.5313(3) 0.17925(19) 0.3670(3)
C7 C 0.4593(3) 0.18556(18) 0.4266(3)
C8 C 0.4298(3) 0.25163(18) 0.4508(3)
C9 C 0.4658(3) 0.31495(19) 0.4139(3)
C10 C 0.4314(3) 0.38153(19) 0.4295(3)
H5 H 0.3853 0.3879 0.4669
C11 C 0.4666(3) 0.4374(2) 0.3890(3)
H6 H 0.4438 0.4822 0.3978
C12 C 0.5368(3) 0.4266(2) 0.3344(3)
H7 H 0.5597 0.4652 0.3074
C13 C 0.5360(3) 0.30910(19) 0.3573(3)
C14 C 0.5702(3) 0.24054(19) 0.3370(3)
C15 C 0.3233(3) 0.06943(18) 0.5555(3)
C16 C 0.2620(3) 0.21080(18) 0.6055(3)
C17 C 0.6896(3) -0.09620(17) 0.9037(2)
C18 C 0.6563(3) -0.15478(17) 0.9458(3)
C19 C 1.0063(3) -0.20150(19) 0.6791(3)
H8 H 1.0582 -0.2090 0.6476
C20 C 0.9741(4) -0.1335(2) 0.6881(3)
H9 H 1.0023 -0.0968 0.6617
C21 C 0.8996(3) -0.12130(18) 0.7366(3)
H10 H 0.8773 -0.0761 0.7439
C22 C 0.8576(3) -0.17765(18) 0.7747(3)
C23 C 0.7822(3) -0.16852(17) 0.8306(3)
C24 C 0.7442(3) -0.22681(17) 0.8683(3)
C25 C 0.7756(3) -0.29683(17) 0.8488(3)
C26 C 0.7351(3) -0.35659(19) 0.8810(3)
H11 H 0.6845 -0.3528 0.9146
C27 C 0.7711(3) -0.42080(19) 0.8624(3)
H12 H 0.7448 -0.4611 0.8827
C28 C 0.8477(3) -0.42466(18) 0.8124(3)
H13 H 0.8724 -0.4684 0.8013
C29 C 0.8500(3) -0.30552(17) 0.7966(2)
C30 C 0.8932(3) -0.24519(17) 0.7602(2)
C31 C 0.6606(3) -0.02193(18) 0.9230(3)
C32 C 0.5935(3) -0.14532(18) 1.0167(3)
O9 O 0.3035(2) 0.03986(13) 0.80564(19)
H14 H 0.3001 0.0288 0.8613
H15 H 0.2372 0.0382 0.7546
O10 O 0.6624(2) 0.13723(13) 0.94685(19)
H16 H 0.6716 0.1711 0.9861
H17 H 0.6883 0.1010 0.9823
Gd1B Gd 0.532412(14) -0.113269(8) 1.187900(12)
Gd1A Gd 1.032412(14) -0.386731(8) 0.687900(12)
Gd1C Gd -0.032412(14) 0.386731(8) 1.312100(12)
O1B O 0.6083(2) -0.05042(12) 1.35175(18)
O2B O 0.7730(2) -0.04257(14) 1.5053(2)
O3B O 0.7091(2) -0.17483(13) 1.31216(19)
O4B O 0.8223(2) -0.25302(14) 1.4283(2)
O5B O 0.4248(2) -0.00681(12) 1.15170(18)
O6B O 0.2731(2) -0.00385(13) 0.98945(19)
H1B H 0.2122 -0.0196 0.9916
O7B O 0.4688(2) 0.09158(13) 0.9948(2)
O8B O 0.3887(2) 0.18962(13) 0.91132(19)
N1B N 0.6343(2) -0.25928(15) 1.4919(2)
N2B N 0.5765(3) -0.12648(15) 1.5423(2)
N3B N 0.4271(3) -0.36445(16) 1.6814(3)
N4B N 0.3587(3) -0.23580(17) 1.7156(3)
N5B N 0.2464(3) 0.10279(14) 1.1523(2)
N6B N 0.3181(2) 0.21932(15) 1.0723(2)
N7B N 0.0328(2) 0.25692(15) 1.2869(2)
N7A N 0.5328(2) 0.24308(15) 0.7869(2)
N7C N 0.4672(2) -0.24308(15) 1.2131(2)
N8B N 0.1130(2) 0.36944(14) 1.2200(2)
N8A N 0.6130(2) 0.13056(14) 0.7200(2)
N8C N 0.3870(2) -0.13056(14) 1.2800(2)
C1B C 0.6369(3) -0.13467(18) 1.4839(3)
C2B C 0.6658(3) -0.20138(18) 1.4590(3)
C3B C 0.3273(4) -0.1741(2) 1.7404(3)
H2B H 0.2787 -0.1726 1.7761
C4B C 0.3658(4) -0.1126(2) 1.7140(3)
H3B H 0.3453 -0.0700 1.7334
C5B C 0.4347(3) -0.1152(2) 1.6586(3)
H4B H 0.4588 -0.0742 1.6380
C6B C 0.4687(3) -0.17925(19) 1.6330(3)
C7B C 0.5407(3) -0.18556(18) 1.5734(3)
C8B C 0.5702(3) -0.25163(18) 1.5492(3)
C9B C 0.5342(3) -0.31495(19) 1.5861(3)
C10B C 0.5686(3) -0.38153(19) 1.5705(3)
H5B H 0.6147 -0.3879 1.5331
C11B C 0.5334(3) -0.4374(2) 1.6110(3)
H6B H 0.5562 -0.4822 1.6022
C12B C 0.4632(3) -0.4266(2) 1.6656(3)
H7B H 0.4403 -0.4652 1.6926
C13B C 0.4640(3) -0.30910(19) 1.6427(3)
C14B C 0.4298(3) -0.24054(19) 1.6630(3)
C15B C 0.6767(3) -0.06943(18) 1.4445(3)
C16B C 0.7380(3) -0.21080(18) 1.3945(3)
C17B C 0.3104(3) 0.09620(17) 1.0963(2)
C18B C 0.3437(3) 0.15478(17) 1.0542(3)
C19B C -0.0063(3) 0.20150(19) 1.3209(3)
H8B H -0.0582 0.2090 1.3524
C20B C 0.0259(4) 0.1335(2) 1.3119(3)
H9B H -0.0023 0.0968 1.3383
C21B C 0.1004(3) 0.12130(18) 1.2634(3)
H10B H 0.1227 0.0761 1.2561
C22B C 0.1424(3) 0.17765(18) 1.2253(3)
C23B C 0.2178(3) 0.16852(17) 1.1694(3)
C24B C 0.2558(3) 0.22681(17) 1.1317(3)
C25B C 0.2244(3) 0.29683(17) 1.1512(3)
C26B C 0.2649(3) 0.35659(19) 1.1190(3)
H11B H 0.3155 0.3528 1.0854
C27B C 0.2289(3) 0.42080(19) 1.1376(3)
H12B H 0.2552 0.4611 1.1173
C28B C 0.1523(3) 0.42466(18) 1.1876(3)
H13B H 0.1276 0.4684 1.1987
C29B C 0.1500(3) 0.30552(17) 1.2034(2)
C30B C 0.1068(3) 0.24519(17) 1.2398(2)
C31B C 0.3394(3) 0.02193(18) 1.0770(3)
C32B C 0.4065(3) 0.14532(18) 0.9833(3)
O9B O 0.6965(2) -0.03986(13) 1.19436(19)
H14B H 0.6999 -0.0288 1.1387
H15B H 0.7628 -0.0382 1.2454
O10B O 0.3376(2) -0.13723(13) 1.05315(19)
H16B H 0.3284 -0.1711 1.0139
H17B H 0.3117 -0.1010 1.0177
O11 O 0.0962(3) 0.0257(3) 0.6214(3)
H18 H 0.1317 0.0423 0.5872
H19 H 0.0964 -0.0179 0.6161
O12 O -0.0215(5) 0.1677(3) 0.5452(5)
H20 H -0.0144 0.1245 0.5503
H21 H 0.0342 0.1852 0.5347
loop_
_geom_bond_atom_site_label_1
_geom_bond_atom_site_label_2
_geom_bond_site_symmetry_1
_geom_bond_site_symmetry_2
Gd1 O1 1_555 1_555
O1 C15 1_555 1_555
O2 C15 1_555 1_555
O3 Gd1 1_555 1_555
O4 C16 1_555 1_555
O5 Gd1 1_555 1_555
O6 H1 1_555 1_555
O7 C32 1_555 1_555
O8 C32 1_555 1_555
N1 C2 1_555 1_555
N2 C1 1_555 1_555
N3 C12 1_555 1_555
N4 C3 1_555 1_555
N5 C17 1_555 1_555
N6 C18 1_555 1_555
N7 C19 1_555 1_555
N8 C28 1_555 1_555
C1 C2 1_555 1_555
C2 C16 1_555 1_555
C3 H2 1_555 1_555
C4 C3 1_555 1_555
H3 C4 1_555 1_555
C5 C4 1_555 1_555
H4 C5 1_555 1_555
C6 C5 1_555 1_555
C7 N2 1_555 1_555
C8 N1 1_555 1_555
C9 C8 1_555 1_555
C10 C9 1_555 1_555
H5 C10 1_555 1_555
C11 C10 1_555 1_555
H6 C11 1_555 1_555
C12 C11 1_555 1_555
H7 C12 1_555 1_555
C13 N3 1_555 1_555
C14 N4 1_555 1_555
C15 C1 1_555 1_555
C16 O3 1_555 1_555
C17 C18 1_555 1_555
C18 C32 1_555 1_555
C19 H8 1_555 1_555
C20 C19 1_555 1_555
H9 C20 1_555 1_555
C21 C20 1_555 1_555
H10 C21 1_555 1_555
C22 C21 1_555 1_555
C23 N5 1_555 1_555
C24 N6 1_555 1_555
C25 C24 1_555 1_555
C26 C25 1_555 1_555
H11 C26 1_555 1_555
C27 C26 1_555 1_555
H12 C27 1_555 1_555
C28 C27 1_555 1_555
H13 C28 1_555 1_555
C29 N8 1_555 1_555
C30 N7 1_555 1_555
C31 O5 1_555 1_555
O9 Gd1 1_555 1_555
H14 O9 1_555 1_555
H15 O9 1_555 1_555
O10 Gd1 1_555 1_555
H16 O10 1_555 1_555
H17 O10 1_555 1_555
O11 H18 1_555 1_555
H19 O11 1_555 1_555
O12 H20 1_555 1_555
H21 O12 1_555 1_555
Gd1B O7 1_555 1_555
Gd1A N7 1_555 1_555
Gd1C N7B 1_555 1_555
O1B Gd1B 1_555 1_555
O2B C15B 1_555 1_555
O3B Gd1B 1_555 1_555
O4B C16B 1_555 1_555
O5B Gd1B 1_555 1_555
O6B H1B 1_555 1_555
O7B Gd1 1_555 1_555
O8B Gd1 1_555 1_555
N1B C2B 1_555 1_555
N2B C1B 1_555 1_555
N3B C12B 1_555 1_555
N4B C3B 1_555 1_555
N5B C17B 1_555 1_555
N6B C18B 1_555 1_555
N7B C19B 1_555 1_555
N7A Gd1 1_555 1_555
N7C Gd1B 1_555 1_555
N8B Gd1C 1_555 1_555
N8A Gd1 1_555 1_555
N8C Gd1B 1_555 1_555
C1B C2B 1_555 1_555
C2B C16B 1_555 1_555
C3B H2B 1_555 1_555
C4B C3B 1_555 1_555
H3B C4B 1_555 1_555
C5B C4B 1_555 1_555
H4B C5B 1_555 1_555
C6B C5B 1_555 1_555
C7B N2B 1_555 1_555
C8B N1B 1_555 1_555
C9B C8B 1_555 1_555
C10B C9B 1_555 1_555
H5B C10B 1_555 1_555
C11B C10B 1_555 1_555
H6B C11B 1_555 1_555
C12B C11B 1_555 1_555
H7B C12B 1_555 1_555
C13B N3B 1_555 1_555
C14B N4B 1_555 1_555
C15B O1B 1_555 1_555
C16B O3B 1_555 1_555
C17B C18B 1_555 1_555
C18B C32B 1_555 1_555
C19B H8B 1_555 1_555
C20B C19B 1_555 1_555
H9B C20B 1_555 1_555
C21B C20B 1_555 1_555
H10B C21B 1_555 1_555
C22B C21B 1_555 1_555
C23B N5B 1_555 1_555
C24B N6B 1_555 1_555
C25B C24B 1_555 1_555
C26B C25B 1_555 1_555
H11B C26B 1_555 1_555
C27B C26B 1_555 1_555
H12B C27B 1_555 1_555
C28B N8B 1_555 1_555
H13B C28B 1_555 1_555
C29B N8B 1_555 1_555
C30B N7B 1_555 1_555
C31B O5B 1_555 1_555
C32B O7B 1_555 1_555
O9B Gd1B 1_555 1_555
H14B O9B 1_555 1_555
H15B O9B 1_555 1_555
O10B Gd1B 1_555 1_555
H16B O10B 1_555 1_555
H17B O10B 1_555 1_555
O6 C31 1_555 1_555
O8 Gd1B 1_555 1_555
N8 Gd1A 1_555 1_555
C6 C7 1_555 1_555
C6 C14 1_555 1_555
C7 C8 1_555 1_555
C9 C13 1_555 1_555
C13 C14 1_555 1_555
C17 C31 1_555 1_555
C22 C23 1_555 1_555
C22 C30 1_555 1_555
C23 C24 1_555 1_555
C25 C29 1_555 1_555
C29 C30 1_555 1_555
O6B C31B 1_555 1_555
O8B C32B 1_555 1_555
C1B C15B 1_555 1_555
C6B C7B 1_555 1_555
C6B C14B 1_555 1_555
C7B C8B 1_555 1_555
C9B C13B 1_555 1_555
C13B C14B 1_555 1_555
C17B C31B 1_555 1_555
C22B C23B 1_555 1_555
C22B C30B 1_555 1_555
C23B C24B 1_555 1_555
C25B C29B 1_555 1_555
C27B C28B 1_555 1_555
C29B C30B 1_555 1_555

#END
