
#######################################################################
#
#                 Cambridge Crystallographic Data Centre
#                                CCDC 
#
#######################################################################
#
# If this CIF has been generated from an entry in the Cambridge 
# Structural Database, then it will include bibliographic, chemical, 
# crystal, experimental, refinement or atomic coordinate data resulting 
# from the CCDC's data processing and validation procedures.
#
#######################################################################

data_TUCMAG01
_symmetry_cell_setting           monoclinic
_symmetry_space_group_name_H-M   'C 2/c'
_symmetry_Int_Tables_number      15
_space_group_name_Hall           '-C 2yn'
loop_
_symmetry_equiv_pos_site_id
_symmetry_equiv_pos_as_xyz
1 x,y,z
2 -x,y,1/2-z
3 1/2+x,1/2+y,z
4 1/2-x,1/2+y,1/2-z
5 -x,-y,-z
6 x,-y,1/2+z
7 1/2-x,1/2-y,-z
8 1/2+x,1/2-y,1/2+z
_cell_length_a                   13.6515(3)
_cell_length_b                   11.2360(3)
_cell_length_c                   15.9913(4)
_cell_angle_alpha                90
_cell_angle_beta                 108.613(2)
_cell_angle_gamma                90
_cell_volume                     2324.58
loop_
_atom_site_label
_atom_site_type_symbol
_atom_site_fract_x
_atom_site_fract_y
_atom_site_fract_z
C1 C 0.9320(2) -0.1137(2) 0.77697(18)
C2 C 0.9289(2) 0.0086(2) 0.77716(17)
C3 C 1.0000 0.0731(3) 0.7500
C4 C 0.9189(2) 0.3924(2) 0.7549(2)
C5 C 0.9150(2) 0.2702(2) 0.7534(2)
C6 C 1.0000 0.2050(3) 0.7500
N1 N 1.0000 0.4550(2) 0.7500
N2 N 1.0000 -0.1761(2) 0.7500
O1 O 1.15849(16) -0.3612(2) 0.82473(14)
O2 O 0.96642(18) -0.35882(16) 0.86717(13)
Ni1 Ni 1.0000 -0.35982(3) 0.7500
H1 H 0.883(2) -0.156(2) 0.7973(16)
H2 H 1.171(3) -0.398(3) 0.868(2)
H3 H 1.189(3) -0.293(3) 0.840(2)
H4 H 0.880(2) 0.045(2) 0.7976(17)
H5 H 1.012(3) -0.394(3) 0.905(2)
H6 H 0.913(2) -0.385(2) 0.8672(18)
H7 H 0.858(2) 0.435(2) 0.7546(18)
H8 H 0.851(2) 0.232(2) 0.7525(17)
C1A C 1.0680(2) -0.1137(2) 0.72303(18)
C2A C 1.0711(2) 0.0086(2) 0.72284(17)
C4A C 1.0811(2) 0.3924(2) 0.7451(2)
C5A C 1.0850(2) 0.2702(2) 0.7466(2)
N1_2 N 1.0000 -0.5450(2) 0.7500
O1A O 0.84151(16) -0.3612(2) 0.67527(14)
O2A O 1.03358(18) -0.35882(16) 0.63283(13)
Ni1_2 Ni 1.0000 0.64018(3) 0.7500
H1A H 1.117(2) -0.156(2) 0.7027(16)
H2A H 0.829(3) -0.398(3) 0.632(2)
H3A H 0.811(3) -0.293(3) 0.660(2)
H4A H 1.120(2) 0.045(2) 0.7024(17)
H5A H 0.988(3) -0.394(3) 0.595(2)
H6A H 1.087(2) -0.385(2) 0.6328(18)
H7A H 1.142(2) 0.435(2) 0.7454(18)
H8A H 1.149(2) 0.232(2) 0.7475(17)
C7 C 1.1046(2) -0.0913(2) 0.97916(17)
C8 C 1.1646(2) -0.0040(2) 0.96189(17)
C9 C 1.1383(2) 0.1178(2) 0.96445(19)
C10 C 1.0515(2) 0.1493(2) 0.98299(18)
C11 C 0.9866(2) 0.0605(2) 1.00060(17)
O3 O 1.26895(17) -0.16037(17) 0.90487(16)
O4 O 1.36127(16) -0.02857(19) 1.02287(13)
O5 O 1.28854(15) 0.04825(17) 0.87541(13)
S1 S 1.27924(5) -0.04021(6) 0.93848(4)
H9 H 1.1251(18) -0.1687(19) 0.9817(14)
H10 H 1.183(2) 0.175(2) 0.9512(17)
H11 H 1.030(2) 0.230(3) 0.9815(17)
C7D C 0.8954(2) 0.0913(2) 1.02084(17)
C8D C 0.8354(2) 0.0040(2) 1.03811(17)
C9D C 0.8617(2) -0.1178(2) 1.03555(19)
C10D C 0.9485(2) -0.1493(2) 1.01701(18)
C11D C 1.0134(2) -0.0605(2) 0.99940(17)
O3D O 0.73105(17) 0.16037(17) 1.09513(16)
O4D O 0.63873(16) 0.02857(19) 0.97713(13)
O5D O 0.71146(15) -0.04825(17) 1.12459(13)
S1D S 0.72076(5) 0.04021(6) 1.06152(4)
H9D H 0.8749(18) 0.1687(19) 1.0183(14)
H10D H 0.817(2) -0.175(2) 1.0488(17)
H11D H 0.970(2) -0.230(3) 1.0185(17)
loop_
_geom_bond_atom_site_label_1
_geom_bond_atom_site_label_2
_geom_bond_site_symmetry_1
_geom_bond_site_symmetry_2
C1 C2 1_555 1_555
C2 C3 1_555 1_555
C3 C6 1_555 1_555
C4 C5 1_555 1_555
C5 C6 1_555 1_555
C6 C5A 1_555 1_555
C7 C8 1_555 1_555
C8 C9 1_555 1_555
C9 C10 1_555 1_555
C10 C11 1_555 1_555
C11 C7D 1_555 1_555
N1 C4 1_555 1_555
N2 C1 1_555 1_555
O1 Ni1 1_555 1_555
O2 Ni1 1_555 1_555
O3 S1 1_555 1_555
O4 S1 1_555 1_555
O5 S1 1_555 1_555
S1 C8 1_555 1_555
Ni1 N2 1_555 1_555
H1 C1 1_555 1_555
H2 O1 1_555 1_555
H3 O1 1_555 1_555
H4 C2 1_555 1_555
H5 O2 1_555 1_555
H6 O2 1_555 1_555
H7 C4 1_555 1_555
H8 C5 1_555 1_555
H9 C7 1_555 1_555
H10 C9 1_555 1_555
H11 C10 1_555 1_555
C1A N2 1_555 1_555
C2A C3 1_555 1_555
C4A N1 1_555 1_555
C5A C4A 1_555 1_555
C7D C8D 1_555 1_555
C8D C9D 1_555 1_555
C9D C10D 1_555 1_555
C10D C11D 1_555 1_555
C11D C7 1_555 1_555
N1_2 Ni1 1_555 1_555
O1A Ni1 1_555 1_555
O2A Ni1 1_555 1_555
O3D S1D 1_555 1_555
O4D S1D 1_555 1_555
O5D S1D 1_555 1_555
S1D C8D 1_555 1_555
Ni1_2 N1 1_555 1_555
H1A C1A 1_555 1_555
H2A O1A 1_555 1_555
H3A O1A 1_555 1_555
H4A C2A 1_555 1_555
H5A O2A 1_555 1_555
H6A O2A 1_555 1_555
H7A C4A 1_555 1_555
H8A C5A 1_555 1_555
H9D C7D 1_555 1_555
H10D C9D 1_555 1_555
H11D C10D 1_555 1_555
C11 C11D 1_555 1_555
C1A C2A 1_555 1_555

#END
