
#######################################################################
#
#                 Cambridge Crystallographic Data Centre
#                                CCDC 
#
#######################################################################
#
# If this CIF has been generated from an entry in the Cambridge 
# Structural Database, then it will include bibliographic, chemical, 
# crystal, experimental, refinement or atomic coordinate data resulting 
# from the CCDC's data processing and validation procedures.
#
#######################################################################

data_TUCNAH
_symmetry_cell_setting           monoclinic
_symmetry_space_group_name_H-M   'P 21/c'
_symmetry_Int_Tables_number      14
_space_group_name_Hall           '-P 2ybc'
loop_
_symmetry_equiv_pos_site_id
_symmetry_equiv_pos_as_xyz
1 x,y,z
2 -x,1/2+y,1/2-z
3 -x,-y,-z
4 x,1/2-y,1/2+z
_cell_length_a                   9.2481(10)
_cell_length_b                   22.352(2)
_cell_length_c                   22.617(2)
_cell_angle_alpha                90
_cell_angle_beta                 91.035(2)
_cell_angle_gamma                90
_cell_volume                     4674.48
loop_
_atom_site_label
_atom_site_type_symbol
_atom_site_fract_x
_atom_site_fract_y
_atom_site_fract_z
Nd1 Nd 0.38031(7) 0.54277(3) 0.25080(3)
Nd2 Nd 0.66171(7) 0.75935(3) 0.18143(3)
N1 N 0.4850(10) 0.7274(5) 0.3702(4)
N2 N 0.2106(10) 0.7222(5) 0.4182(4)
N3 N 0.6888(10) 0.7506(5) 0.5659(4)
N4 N 0.4301(11) 0.7247(5) 0.6136(4)
N5 N 0.3874(11) 0.4150(5) -0.0465(4)
N6 N 0.1730(11) 0.5030(5) -0.0571(4)
N7 N 0.4375(11) 0.4643(5) 0.1619(4)
N8 N 0.2829(11) 0.5668(5) 0.1427(4)
N9 N 0.4780(10) 0.5773(5) 0.5700(4)
N10 N 0.7534(11) 0.6074(5) 0.5292(4)
N11 N 0.3131(11) 0.5552(5) 0.3668(4)
N12 N 0.5848(11) 0.5777(5) 0.3284(4)
O1 O 0.4579(9) 0.7437(4) 0.2436(3)
O2 O 0.3809(9) 0.6505(4) 0.2562(3)
O3 O 0.1026(9) 0.7096(4) 0.2689(4)
O4 O -0.0151(10) 0.7500(6) 0.3434(4)
O5 O 0.4147(9) 0.4306(4) -0.1920(3)
O6 O 0.3887(9) 0.3406(4) -0.1530(4)
O7 O 0.0470(12) 0.5188(5) -0.1679(4)
O8 O 0.0928(9) 0.4229(4) -0.1847(4)
O9 O 0.5700(10) 0.6399(4) 0.6989(4)
O10 O 0.5268(9) 0.5428(4) 0.6959(3)
O11 O 0.8468(10) 0.6713(4) 0.6550(4)
O12 O 0.9494(12) 0.5847(5) 0.6314(5)
O13 O 0.1327(9) 0.5856(4) 0.2593(3)
H1 H 0.0787 0.5745 0.2305
H2 H 0.1360 0.6236 0.2598
O14 O 0.1852(10) 0.4639(5) 0.2435(4)
H3 H 0.1165 0.4753 0.2207
H4 H 0.1515 0.4563 0.2774
O15 O 0.7419(12) 0.7600(7) 0.2833(4)
H5 H 0.8282 0.7475 0.2879
H6 H 0.6854 0.7405 0.3054
O16 O 0.8947(10) 0.7020(4) 0.1831(4)
H7 H 0.8793 0.6672 0.1968
H8 H 0.9549 0.7194 0.2061
C1 C 0.4023(13) 0.7024(6) 0.2738(5)
C2 C 0.3681(12) 0.7174(6) 0.3360(5)
C3 C 0.2281(12) 0.7214(6) 0.3605(5)
C4 C 0.0931(13) 0.7266(6) 0.3206(5)
C5 C 0.4667(12) 0.7327(6) 0.4287(5)
C6 C 0.3299(12) 0.7246(6) 0.4525(5)
C7 C 0.8178(13) 0.7626(6) 0.5440(5)
H15 H 0.8961 0.7666 0.5700
C8 C 0.8405(14) 0.7694(7) 0.4845(5)
H16 H 0.9308 0.7807 0.4709
C9 C 0.7285(12) 0.7593(6) 0.4457(5)
H17 H 0.7429 0.7621 0.4052
C10 C 0.5916(12) 0.7445(6) 0.4671(5)
C11 C 0.5783(12) 0.7426(6) 0.5280(5)
C12 C 0.4342(12) 0.7283(6) 0.5541(5)
C13 C 0.3156(13) 0.7203(6) 0.5171(5)
C14 C 0.1828(13) 0.7046(6) 0.5433(5)
H18 H 0.1003 0.6980 0.5201
C15 C 0.1790(14) 0.6993(7) 0.6030(6)
H19 H 0.0939 0.6883 0.6215
C16 C 0.3025(14) 0.7105(7) 0.6360(6)
H20 H 0.2964 0.7079 0.6769
C17 C 0.3766(12) 0.3960(6) -0.1516(5)
C18 C 0.3203(13) 0.4262(6) -0.0982(5)
C19 C 0.2076(13) 0.4675(6) -0.1019(5)
C20 C 0.1085(14) 0.4709(6) -0.1566(5)
C21 C 0.3495(13) 0.4491(6) 0.0009(5)
C22 C 0.2504(13) 0.4954(6) -0.0060(5)
C23 C 0.5280(14) 0.4195(6) 0.1691(5)
H21 H 0.5625 0.4114 0.2071
C24 C 0.5753(15) 0.3835(6) 0.1232(5)
H22 H 0.6446 0.3541 0.1302
C25 C 0.5188(14) 0.3918(6) 0.0675(5)
H23 H 0.5473 0.3674 0.0365
C26 C 0.4171(13) 0.4375(6) 0.0577(5)
C27 C 0.3825(13) 0.4743(6) 0.1062(5)
C28 C 0.2922(13) 0.5279(6) 0.0966(5)
C29 C 0.2278(13) 0.5380(6) 0.0419(5)
C30 C 0.1507(14) 0.5910(6) 0.0326(6)
H24 H 0.1029 0.5983 -0.0033
C31 C 0.1472(14) 0.6317(6) 0.0772(5)
H25 H 0.1004 0.6682 0.0718
C32 C 0.2146(13) 0.6181(6) 0.1313(5)
H26 H 0.2116 0.6465 0.1612
C33 C 0.5592(13) 0.5914(6) 0.6727(5)
C34 C 0.5867(13) 0.5919(6) 0.6069(5)
C35 C 0.7271(13) 0.6064(6) 0.5862(5)
C36 C 0.8494(13) 0.6213(6) 0.6279(5)
C37 C 0.5039(13) 0.5810(6) 0.5117(5)
C38 C 0.6430(13) 0.5955(6) 0.4913(5)
C39 C 0.1812(14) 0.5420(6) 0.3866(5)
H27 H 0.1096 0.5327 0.3587
C40 C 0.1444(14) 0.5412(6) 0.4442(5)
H28 H 0.0505 0.5317 0.4549
C41 C 0.2483(13) 0.5549(6) 0.4874(5)
H29 H 0.2250 0.5557 0.5272
C42 C 0.3890(13) 0.5673(6) 0.4692(5)
C43 C 0.4180(13) 0.5671(6) 0.4089(5)
C44 C 0.5634(13) 0.5798(6) 0.3874(5)
C45 C 0.6726(14) 0.5958(6) 0.4289(5)
C46 C 0.8090(14) 0.6110(6) 0.4069(5)
H30 H 0.8838 0.6221 0.4327
C47 C 0.8306(15) 0.6094(7) 0.3482(6)
H31 H 0.9197 0.6201 0.3330
C48 C 0.7183(14) 0.5915(7) 0.3107(6)
H32 H 0.7370 0.5890 0.2705
Nd1B Nd 0.61969(7) 0.45723(3) -0.25080(3)
Nd1B_2 Nd 0.61969(7) 0.45723(3) 0.74920(3)
Nd2C Nd 0.66171(7) 0.74065(3) 0.68143(3)
Nd2B Nd 0.33829(7) 0.24065(3) -0.18143(3)
N3C N 0.6888(10) 0.7494(5) 0.0659(4)
N4C N 0.4301(11) 0.7753(5) 0.1136(4)
O5B O 0.5853(9) 0.5694(4) 0.1920(3)
O6B O 0.6113(9) 0.6594(4) 0.1530(4)
O9C O 0.5700(10) 0.8601(4) 0.1989(4)
O10B O 0.4732(9) 0.4572(4) 0.3041(3)
O11C O 0.8468(10) 0.8287(4) 0.1550(4)
O17 O 0.996(2) 0.3737(9) 0.0974(8)
H9 H 1.0004 0.3414 0.1173
H10 H 0.9837 0.4027 0.1211
O18 O 0.130(2) 0.6375(11) 0.7594(11)
H11 H 0.1014 0.6131 0.7854
H12 H 0.1619 0.6172 0.7305
O19 O 0.196(3) 0.5547(12) 0.6906(11)
H13 H 0.2809 0.5485 0.6782
H14 H 0.1389 0.5588 0.6609
loop_
_geom_bond_atom_site_label_1
_geom_bond_atom_site_label_2
_geom_bond_site_symmetry_1
_geom_bond_site_symmetry_2
Nd1 N7 1_555 1_555
Nd2 O1 1_555 1_555
N1 C2 1_555 1_555
N2 C3 1_555 1_555
N3 C7 1_555 1_555
N4 C12 1_555 1_555
N5 C18 1_555 1_555
N6 C19 1_555 1_555
N7 C23 1_555 1_555
N8 Nd1 1_555 1_555
N9 C34 1_555 1_555
N10 C35 1_555 1_555
N11 Nd1 1_555 1_555
N12 Nd1 1_555 1_555
O1 C1 1_555 1_555
O2 Nd1 1_555 1_555
O3 C4 1_555 1_555
O4 C4 1_555 1_555
O5 C17 1_555 1_555
O6 C17 1_555 1_555
O7 C20 1_555 1_555
O8 C20 1_555 1_555
O9 C33 1_555 1_555
O10 C33 1_555 1_555
O11 C36 1_555 1_555
O12 C36 1_555 1_555
O13 Nd1 1_555 1_555
H1 O13 1_555 1_555
H2 O13 1_555 1_555
O14 Nd1 1_555 1_555
H3 O14 1_555 1_555
H4 O14 1_555 1_555
O15 Nd2 1_555 1_555
H5 O15 1_555 1_555
H6 O15 1_555 1_555
O16 Nd2 1_555 1_555
H7 O16 1_555 1_555
H8 O16 1_555 1_555
O17 H9 1_555 1_555
H10 O17 1_555 1_555
O18 H11 1_555 1_555
H12 O18 1_555 1_555
O19 H13 1_555 1_555
H14 O19 1_555 1_555
C1 O2 1_555 1_555
C2 C1 1_555 1_555
C3 C2 1_555 1_555
C4 C3 1_555 1_555
C5 N1 1_555 1_555
C6 N2 1_555 1_555
C7 H15 1_555 1_555
C8 C7 1_555 1_555
H16 C8 1_555 1_555
C9 C8 1_555 1_555
H17 C9 1_555 1_555
C10 C5 1_555 1_555
C11 N3 1_555 1_555
C12 C11 1_555 1_555
C13 C6 1_555 1_555
C14 C13 1_555 1_555
H18 C14 1_555 1_555
C15 C14 1_555 1_555
H19 C15 1_555 1_555
C16 N4 1_555 1_555
H20 C16 1_555 1_555
C17 C18 1_555 1_555
C18 C19 1_555 1_555
C19 C20 1_555 1_555
C21 N5 1_555 1_555
C22 N6 1_555 1_555
C23 H21 1_555 1_555
C24 C23 1_555 1_555
H22 C24 1_555 1_555
C25 C24 1_555 1_555
H23 C25 1_555 1_555
C26 C21 1_555 1_555
C27 N7 1_555 1_555
C28 N8 1_555 1_555
C29 C22 1_555 1_555
C30 C29 1_555 1_555
H24 C30 1_555 1_555
C31 C30 1_555 1_555
H25 C31 1_555 1_555
C32 N8 1_555 1_555
H26 C32 1_555 1_555
C33 C34 1_555 1_555
C34 C35 1_555 1_555
C35 C36 1_555 1_555
C37 N9 1_555 1_555
C38 N10 1_555 1_555
C39 N11 1_555 1_555
H27 C39 1_555 1_555
C40 C39 1_555 1_555
H28 C40 1_555 1_555
C41 C40 1_555 1_555
H29 C41 1_555 1_555
C42 C37 1_555 1_555
C43 N11 1_555 1_555
C44 N12 1_555 1_555
C45 C38 1_555 1_555
C46 C45 1_555 1_555
H30 C46 1_555 1_555
C47 C46 1_555 1_555
H31 C47 1_555 1_555
C48 N12 1_555 1_555
H32 C48 1_555 1_555
Nd1B O5 1_555 1_555
Nd1B_2 O10 1_555 1_555
Nd2C N3 1_555 1_555
Nd2B O6 1_555 1_555
N3C Nd2 1_555 1_555
N4C Nd2 1_555 1_555
O5B Nd1 1_555 1_555
O6B Nd2 1_555 1_555
O9C Nd2 1_555 1_555
O10B Nd1 1_555 1_555
O11C Nd2 1_555 1_555
N4 Nd2C 1_555 1_555
O9 Nd2C 1_555 1_555
O11 Nd2C 1_555 1_555
C5 C6 1_555 1_555
C9 C10 1_555 1_555
C10 C11 1_555 1_555
C12 C13 1_555 1_555
C15 C16 1_555 1_555
C21 C22 1_555 1_555
C25 C26 1_555 1_555
C26 C27 1_555 1_555
C27 C28 1_555 1_555
C28 C29 1_555 1_555
C31 C32 1_555 1_555
C37 C38 1_555 1_555
C41 C42 1_555 1_555
C42 C43 1_555 1_555
C43 C44 1_555 1_555
C44 C45 1_555 1_555
C47 C48 1_555 1_555

#END
