
#######################################################################
#
#                 Cambridge Crystallographic Data Centre
#                                CCDC 
#
#######################################################################
#
# If this CIF has been generated from an entry in the Cambridge 
# Structural Database, then it will include bibliographic, chemical, 
# crystal, experimental, refinement or atomic coordinate data resulting 
# from the CCDC's data processing and validation procedures.
#
#######################################################################

data_TUCNUB
_symmetry_cell_setting           monoclinic
_symmetry_space_group_name_H-M   'P 21/n'
_symmetry_Int_Tables_number      14
_space_group_name_Hall           '-P 2yn'
loop_
_symmetry_equiv_pos_site_id
_symmetry_equiv_pos_as_xyz
1 x,y,z
2 1/2-x,1/2+y,1/2-z
3 -x,-y,-z
4 1/2+x,1/2-y,1/2+z
_cell_length_a                   12.2763(12)
_cell_length_b                   19.132(2)
_cell_length_c                   14.0564(16)
_cell_angle_alpha                90
_cell_angle_beta                 115.161(2)
_cell_angle_gamma                90
_cell_volume                     2988.18
loop_
_atom_site_label
_atom_site_type_symbol
_atom_site_fract_x
_atom_site_fract_y
_atom_site_fract_z
Dy1 Dy -0.031476(15) 0.114207(9) 0.812707(13)
N1 N -0.1322(3) 0.25985(16) 0.5104(2)
N2 N -0.0753(3) 0.12636(16) 0.4593(2)
N3 N 0.0740(3) 0.36491(18) 0.3190(3)
N4 N 0.1427(3) 0.23575(18) 0.2853(3)
N5 N 0.3200(3) 0.28044(16) 0.5734(2)
N6 N 0.2483(3) 0.39770(15) 0.6531(2)
N7 N 0.1139(3) 0.13029(15) 0.7218(2)
N8 N 0.0331(3) 0.24341(16) 0.7881(2)
O1 O -0.2063(2) 0.17591(14) 0.6906(2)
O2 O -0.3218(3) 0.25261(15) 0.5726(2)
O3 O -0.1081(2) 0.05129(13) 0.6513(2)
O4 O -0.2704(3) 0.04150(15) 0.4973(2)
O5 O 0.3910(2) 0.31037(14) 0.4118(2)
O6 O 0.4711(2) 0.40874(14) 0.4957(2)
O7 O 0.4266(2) 0.50773(13) 0.65178(19)
O8 O 0.2751(2) 0.50498(15) 0.4898(2)
H1 H 0.2075 0.5113 0.4864
O9 O 0.1612(2) 0.13821(14) 0.9454(2)
H2 H 0.1903 0.1023 0.9835
H3 H 0.1581 0.1715 0.9842
O10 O -0.1945(2) 0.04150(15) 0.8066(2)
H4 H -0.2606 0.0505 0.7542
H5 H -0.2037 0.0430 0.8632
C1 C -0.2363(3) 0.21099(19) 0.6076(3)
C2 C -0.1635(3) 0.2015(2) 0.5437(3)
C3 C -0.1355(3) 0.13465(19) 0.5182(3)
C4 C -0.1750(3) 0.0695(2) 0.5581(3)
C5 C -0.0684(3) 0.2523(2) 0.4523(3)
C6 C -0.0397(3) 0.1858(2) 0.4279(3)
C7 C 0.0388(4) 0.4276(2) 0.3351(3)
H10 H 0.0628 0.4664 0.3090
C8 C -0.0328(4) 0.4384(2) 0.3894(3)
H11 H -0.0564 0.4834 0.3974
C9 C -0.0674(4) 0.3827(2) 0.4304(3)
H12 H -0.1132 0.3893 0.4680
C10 C -0.0328(3) 0.3154(2) 0.4149(3)
C11 C 0.0381(3) 0.3097(2) 0.3582(3)
C12 C 0.0718(3) 0.2409(2) 0.3380(3)
C13 C 0.0333(3) 0.1795(2) 0.3687(3)
C14 C 0.0662(4) 0.1145(2) 0.3422(3)
H13 H 0.0409 0.0733 0.3617
C15 C 0.1360(4) 0.1121(2) 0.2873(4)
H14 H 0.1570 0.0694 0.2682
C16 C 0.1740(4) 0.1733(2) 0.2609(4)
H15 H 0.2227 0.1716 0.2252
C17 C 0.4095(3) 0.3549(2) 0.4837(3)
C18 C 0.3459(3) 0.34483(19) 0.5549(3)
C19 C 0.3125(3) 0.40409(19) 0.5971(3)
C20 C 0.3408(3) 0.47872(19) 0.5767(3)
C21 C 0.2571(3) 0.27327(19) 0.6323(3)
C22 C 0.2198(3) 0.33185(19) 0.6702(3)
C23 C 0.1525(3) 0.0747(2) 0.6891(3)
H16 H 0.1268 0.0308 0.6997
C24 C 0.2299(4) 0.0783(2) 0.6394(3)
H17 H 0.2570 0.0377 0.6201
C25 C 0.2649(3) 0.1423(2) 0.6197(3)
H18 H 0.3141 0.1458 0.5846
C26 C 0.2261(3) 0.20266(19) 0.6527(3)
C27 C 0.1501(3) 0.19449(19) 0.7042(3)
C28 C 0.1085(3) 0.25512(18) 0.7411(3)
C29 C 0.1439(3) 0.32300(19) 0.7268(3)
C30 C 0.1029(4) 0.3798(2) 0.7652(3)
H19 H 0.1260 0.4251 0.7583
C31 C 0.0277(4) 0.3676(2) 0.8134(3)
H20 H -0.0007 0.4044 0.8398
C32 C -0.0048(4) 0.2992(2) 0.8220(3)
H21 H -0.0567 0.2919 0.8536
Dy1C Dy 0.468524(15) 0.385793(9) 0.312707(13)
Dy1A Dy 0.531476(15) 0.614207(9) 0.687293(13)
O5C O -0.1090(2) 0.18963(14) 0.9118(2)
O6C O -0.0289(2) 0.09126(14) 0.9957(2)
O7A O 0.0734(2) 0.00773(13) 0.84822(19)
O11 O 0.5983(3) 0.0243(3) 0.6236(3)
H6 H 0.6420 0.0227 0.5903
H7 H 0.5593 0.0626 0.6081
O12 O 0.9804(5) 0.3355(3) 0.0454(5)
H8 H 0.9312 0.3070 0.0521
H9 H 1.0431 0.3130 0.0526
loop_
_geom_bond_atom_site_label_1
_geom_bond_atom_site_label_2
_geom_bond_site_symmetry_1
_geom_bond_site_symmetry_2
Dy1 N7 1_555 1_555
N1 C2 1_555 1_555
N2 C3 1_555 1_555
N3 C7 1_555 1_555
N4 C12 1_555 1_555
N5 C18 1_555 1_555
N6 C19 1_555 1_555
N7 C23 1_555 1_555
N8 Dy1 1_555 1_555
O1 Dy1 1_555 1_555
O2 C1 1_555 1_555
O3 Dy1 1_555 1_555
O4 C4 1_555 1_555
O5 C17 1_555 1_555
O6 C17 1_555 1_555
O7 C20 1_555 1_555
O8 H1 1_555 1_555
O9 Dy1 1_555 1_555
H2 O9 1_555 1_555
H3 O9 1_555 1_555
O10 Dy1 1_555 1_555
H4 O10 1_555 1_555
H5 O10 1_555 1_555
O11 H6 1_555 1_555
H7 O11 1_555 1_555
O12 H8 1_555 1_555
H9 O12 1_555 1_555
C1 O1 1_555 1_555
C2 C1 1_555 1_555
C3 C2 1_555 1_555
C4 O3 1_555 1_555
C5 N1 1_555 1_555
C6 N2 1_555 1_555
C7 H10 1_555 1_555
C8 C7 1_555 1_555
H11 C8 1_555 1_555
C9 C8 1_555 1_555
H12 C9 1_555 1_555
C10 C5 1_555 1_555
C11 N3 1_555 1_555
C12 C11 1_555 1_555
C13 C6 1_555 1_555
C14 C13 1_555 1_555
H13 C14 1_555 1_555
C15 C14 1_555 1_555
H14 C15 1_555 1_555
C16 N4 1_555 1_555
H15 C16 1_555 1_555
C17 C18 1_555 1_555
C18 C19 1_555 1_555
C19 C20 1_555 1_555
C20 O8 1_555 1_555
C21 N5 1_555 1_555
C22 N6 1_555 1_555
C23 H16 1_555 1_555
C24 C23 1_555 1_555
H17 C24 1_555 1_555
C25 C24 1_555 1_555
H18 C25 1_555 1_555
C26 C21 1_555 1_555
C27 N7 1_555 1_555
C28 N8 1_555 1_555
C29 C22 1_555 1_555
C30 C29 1_555 1_555
H19 C30 1_555 1_555
C31 C30 1_555 1_555
H20 C31 1_555 1_555
C32 N8 1_555 1_555
H21 C32 1_555 1_555
Dy1C O5 1_555 1_555
Dy1A O7 1_555 1_555
O5C Dy1 1_555 1_555
O6C Dy1 1_555 1_555
O7A Dy1 1_555 1_555
O6 Dy1C 1_555 1_555
C3 C4 1_555 1_555
C5 C6 1_555 1_555
C9 C10 1_555 1_555
C10 C11 1_555 1_555
C12 C13 1_555 1_555
C15 C16 1_555 1_555
C21 C22 1_555 1_555
C25 C26 1_555 1_555
C26 C27 1_555 1_555
C27 C28 1_555 1_555
C28 C29 1_555 1_555
C31 C32 1_555 1_555

#END
