
#######################################################################
#
#                 Cambridge Crystallographic Data Centre
#                                CCDC 
#
#######################################################################
#
# If this CIF has been generated from an entry in the Cambridge 
# Structural Database, then it will include bibliographic, chemical, 
# crystal, experimental, refinement or atomic coordinate data resulting 
# from the CCDC's data processing and validation procedures.
#
#######################################################################

data_TUCNIP01
_symmetry_cell_setting           monoclinic
_symmetry_space_group_name_H-M   'P 21/n'
_symmetry_Int_Tables_number      14
_space_group_name_Hall           '-P 2yn'
loop_
_symmetry_equiv_pos_site_id
_symmetry_equiv_pos_as_xyz
1 x,y,z
2 1/2-x,1/2+y,1/2-z
3 -x,-y,-z
4 1/2+x,1/2-y,1/2+z
_cell_length_a                   12.3207(4)
_cell_length_b                   19.1940(4)
_cell_length_c                   13.9694(4)
_cell_angle_alpha                90
_cell_angle_beta                 115.491(4)
_cell_angle_gamma                90
_cell_volume                     2981.94
loop_
_atom_site_label
_atom_site_type_symbol
_atom_site_fract_x
_atom_site_fract_y
_atom_site_fract_z
Eu1 Eu 0.467372(17) 0.612958(9) 0.312066(14)
O1 O 0.3885(3) 0.68996(13) 0.4120(2)
O2 O 0.4684(3) 0.59176(14) 0.4954(2)
O3 O 0.2714(3) 0.49561(14) 0.4892(2)
O4 O 0.4242(2) 0.49370(13) 0.65219(19)
O5 O 0.2911(2) 0.67422(14) 0.1871(2)
O6 O 0.1783(3) 0.75282(15) 0.0712(2)
O7 O 0.3916(2) 0.55009(13) 0.1474(2)
O8 O 0.2275(3) 0.54277(15) -0.0065(2)
O9 O 0.3025(2) 0.53906(14) 0.3048(2)
H1 H 0.2345 0.5523 0.2539
H2 H 0.2963 0.5417 0.3646
O10 O 0.6622(3) 0.63690(15) 0.4470(2)
H3 H 0.6587 0.6720 0.4840
H4 H 0.689(4) 0.6014(13) 0.485(3)
N1 N 0.1135(3) 0.86889(16) 0.7200(2)
N2 N 0.0326(3) 0.75694(16) 0.7866(2)
N3 N 0.3172(3) 0.71905(16) 0.5721(2)
N4 N 0.2457(3) 0.60312(16) 0.6524(2)
N5 N 0.6403(3) 0.73622(19) -0.2157(3)
N6 N 0.5723(3) 0.86437(19) -0.1809(3)
N7 N 0.4238(3) 0.62664(16) -0.0421(2)
N8 N 0.3655(3) 0.75942(16) 0.0079(2)
C1 C 0.3375(3) 0.52253(19) 0.5763(3)
C2 C 0.1005(4) 0.6213(2) 0.7631(3)
H5 H 0.1237 0.5761 0.7565
C3 C 0.3424(3) 0.6548(2) 0.5539(3)
C4 C 0.1495(3) 0.80558(19) 0.7030(3)
C5 C 0.3096(3) 0.59607(18) 0.5965(3)
C6 C 0.1072(3) 0.74536(19) 0.7392(3)
C7 C 0.2250(3) 0.79686(19) 0.6512(3)
C8 C 0.1415(3) 0.67765(19) 0.7248(3)
C9 C 0.2553(3) 0.72673(19) 0.6311(3)
C10 C 0.2176(3) 0.66868(19) 0.6688(3)
C11 C 0.2642(4) 0.8566(2) 0.6191(3)
H6 H 0.3139 0.8529 0.5847
C12 C 0.2295(4) 0.9208(2) 0.6380(3)
H7 H 0.2566 0.9611 0.6183
C13 C -0.0055(4) 0.7019(2) 0.8204(3)
H8 H -0.0564 0.7095 0.8530
C14 C 0.1526(4) 0.92474(19) 0.6877(3)
H9 H 0.1275 0.9685 0.6987
C15 C 0.0254(4) 0.6336(2) 0.8106(3)
H10 H -0.0043 0.5968 0.8357
C16 C 0.2627(4) 0.7106(2) 0.1049(3)
C17 C 0.4060(3) 0.6453(2) 0.4832(3)
C18 C 0.4297(4) 0.7516(2) -0.0497(3)
C19 C 0.5366(4) 0.8092(2) -0.1420(3)
C20 C 0.4307(4) 0.8814(2) -0.0706(3)
H11 H 0.3845 0.8878 -0.0333
C21 C 0.3243(4) 0.5700(2) 0.0551(3)
C22 C 0.3627(3) 0.6345(2) 0.0163(3)
C23 C 0.4584(3) 0.6857(2) -0.0735(3)
C24 C 0.3345(4) 0.7013(2) 0.0410(3)
C25 C 0.5639(4) 0.6155(2) -0.1592(3)
H12 H 0.5390 0.5744 -0.1396
C26 C 0.4657(4) 0.9374(2) -0.1113(3)
H13 H 0.4421 0.9822 -0.1034
C27 C 0.6331(4) 0.6133(2) -0.2144(3)
H14 H 0.6537 0.5708 -0.2340
C28 C 0.5695(4) 0.7408(2) -0.1631(3)
C29 C 0.6715(4) 0.6747(2) -0.2403(3)
H15 H 0.7204 0.6732 -0.2757
C30 C 0.5314(3) 0.6795(2) -0.1328(3)
C31 C 0.4653(4) 0.8147(2) -0.0859(3)
C32 C 0.5372(4) 0.9265(2) -0.1648(3)
H16 H 0.5615 0.9652 -0.1906
Eu1B Eu 0.532628(17) 0.387042(9) 0.687934(14)
Eu1C Eu -0.032628(17) 0.887042(9) 0.812066(14)
O4B O 0.5758(2) 0.50630(13) 0.34781(19)
N1C N 0.6135(3) 0.63111(16) 0.2200(2)
N2C N 0.5326(3) 0.74306(16) 0.2866(2)
O11 O 0.5207(5) 0.1689(3) 0.4546(4)
O12 O 0.0974(4) 0.5252(3) 0.1218(3)
loop_
_geom_bond_atom_site_label_1
_geom_bond_atom_site_label_2
_geom_bond_site_symmetry_1
_geom_bond_site_symmetry_2
Eu1 O1 1_555 1_555
O1 C17 1_555 1_555
O2 Eu1 1_555 1_555
O3 C1 1_555 1_555
O4 C1 1_555 1_555
O5 Eu1 1_555 1_555
O6 C16 1_555 1_555
O7 Eu1 1_555 1_555
O8 C21 1_555 1_555
O9 Eu1 1_555 1_555
H1 O9 1_555 1_555
H2 O9 1_555 1_555
O10 Eu1 1_555 1_555
H3 O10 1_555 1_555
H4 O10 1_555 1_555
N1 C4 1_555 1_555
N2 C6 1_555 1_555
N3 C3 1_555 1_555
N4 C5 1_555 1_555
N5 C28 1_555 1_555
N6 C19 1_555 1_555
N7 C22 1_555 1_555
N8 C18 1_555 1_555
C1 C5 1_555 1_555
C2 H5 1_555 1_555
C3 C5 1_555 1_555
C4 C6 1_555 1_555
C6 C8 1_555 1_555
C7 C4 1_555 1_555
C8 C2 1_555 1_555
C9 N3 1_555 1_555
C10 N4 1_555 1_555
C11 C7 1_555 1_555
H6 C11 1_555 1_555
C12 C11 1_555 1_555
H7 C12 1_555 1_555
C13 N2 1_555 1_555
H8 C13 1_555 1_555
C14 N1 1_555 1_555
H9 C14 1_555 1_555
C15 C2 1_555 1_555
H10 C15 1_555 1_555
C16 O5 1_555 1_555
C17 O2 1_555 1_555
C18 C23 1_555 1_555
C19 C28 1_555 1_555
C20 H11 1_555 1_555
C21 O7 1_555 1_555
C22 C21 1_555 1_555
C23 N7 1_555 1_555
C24 N8 1_555 1_555
C25 H12 1_555 1_555
C26 C20 1_555 1_555
H13 C26 1_555 1_555
C27 C25 1_555 1_555
H14 C27 1_555 1_555
C28 C30 1_555 1_555
C29 N5 1_555 1_555
H15 C29 1_555 1_555
C30 C23 1_555 1_555
C31 C18 1_555 1_555
C32 N6 1_555 1_555
H16 C32 1_555 1_555
Eu1B O4 1_555 1_555
Eu1C N1 1_555 1_555
O4B Eu1 1_555 1_555
N1C Eu1 1_555 1_555
N2C Eu1 1_555 1_555
N2 Eu1C 1_555 1_555
C3 C17 1_555 1_555
C7 C9 1_555 1_555
C8 C10 1_555 1_555
C9 C10 1_555 1_555
C12 C14 1_555 1_555
C13 C15 1_555 1_555
C16 C24 1_555 1_555
C19 C31 1_555 1_555
C20 C31 1_555 1_555
C22 C24 1_555 1_555
C25 C30 1_555 1_555
C26 C32 1_555 1_555
C27 C29 1_555 1_555

#END
