
#######################################################################
#
#                 Cambridge Crystallographic Data Centre
#                                CCDC 
#
#######################################################################
#
# If this CIF has been generated from an entry in the Cambridge 
# Structural Database, then it will include bibliographic, chemical, 
# crystal, experimental, refinement or atomic coordinate data resulting 
# from the CCDC's data processing and validation procedures.
#
#######################################################################

data_TUCNIP
_symmetry_cell_setting           monoclinic
_symmetry_space_group_name_H-M   'P 21/n'
_symmetry_Int_Tables_number      14
_space_group_name_Hall           '-P 2yn'
loop_
_symmetry_equiv_pos_site_id
_symmetry_equiv_pos_as_xyz
1 x,y,z
2 1/2-x,1/2+y,1/2-z
3 -x,-y,-z
4 1/2+x,1/2-y,1/2+z
_cell_length_a                   12.3095(10)
_cell_length_b                   19.249(2)
_cell_length_c                   13.9849(11)
_cell_angle_alpha                90
_cell_angle_beta                 115.5070(10)
_cell_angle_gamma                90
_cell_volume                     2990.69
loop_
_atom_site_label
_atom_site_type_symbol
_atom_site_fract_x
_atom_site_fract_y
_atom_site_fract_z
Eu1 Eu -0.533090(17) 0.112850(10) -0.188360(14)
N1 N -0.5771(3) 0.12658(17) -0.5429(2)
N2 N -0.6355(3) 0.25878(17) -0.4928(3)
N3 N -0.3602(3) 0.23601(19) -0.7164(3)
N4 N -0.4286(3) 0.36414(19) -0.6817(3)
N5 N -0.1832(3) 0.28088(16) -0.4281(2)
N6 N -0.2551(3) 0.39718(16) -0.3480(2)
N7 N -0.3867(3) 0.13092(16) -0.2804(2)
N8 N -0.4681(3) 0.24297(17) -0.2135(2)
O1 O -0.6088(2) 0.04999(14) -0.3530(2)
O2 O -0.7735(3) 0.04292(16) -0.5062(2)
O3 O -0.7099(2) 0.17385(15) -0.3135(2)
O4 O -0.8221(3) 0.25299(16) -0.4287(2)
O5 O -0.0327(3) 0.40839(15) -0.5053(2)
O6 O -0.1124(3) 0.31064(14) -0.5888(2)
O7 O -0.0761(2) 0.50652(13) -0.3480(2)
O8 O -0.2288(3) 0.50419(15) -0.5105(2)
H1 H -0.1994 0.5410 -0.5176
O9 O -0.6976(3) 0.03856(15) -0.1952(2)
H2 H -0.7637 0.0472 -0.2485
H3 H -0.7072 0.0403 -0.1386
O10 O -0.3378(2) 0.13692(14) -0.0527(2)
H4 H -0.3084 0.1012 -0.0146
H5 H -0.3405 0.1700 -0.0135
C1 C -0.6774(4) 0.0695(2) -0.4458(3)
C2 C -0.6378(3) 0.1345(2) -0.4847(3)
C3 C -0.6668(3) 0.2010(2) -0.4600(3)
C4 C -0.7391(4) 0.2103(2) -0.3954(3)
C5 C -0.5416(3) 0.1857(2) -0.5740(3)
C6 C -0.5715(3) 0.2516(2) -0.5503(3)
C7 C -0.3287(4) 0.1743(3) -0.7409(4)
H6 H -0.2800 0.1729 -0.7766
C8 C -0.3665(4) 0.1131(2) -0.7148(4)
H7 H -0.3458 0.0707 -0.7343
C9 C -0.4357(4) 0.1154(2) -0.6590(3)
H8 H -0.4601 0.0744 -0.6389
C10 C -0.4689(4) 0.1795(2) -0.6331(3)
C11 C -0.4308(4) 0.2406(2) -0.6633(3)
C12 C -0.4648(4) 0.3093(2) -0.6430(3)
C13 C -0.5353(4) 0.3147(2) -0.5868(3)
C14 C -0.5700(4) 0.3815(2) -0.5709(3)
H9 H -0.6164 0.3879 -0.5338
C15 C -0.5343(4) 0.4369(2) -0.6111(3)
H10 H -0.5568 0.4817 -0.6023
C16 C -0.4636(4) 0.4260(2) -0.6657(4)
H11 H -0.4400 0.4646 -0.6922
C17 C -0.0940(4) 0.3550(2) -0.5172(3)
C18 C -0.1574(3) 0.3450(2) -0.4458(3)
C19 C -0.1908(3) 0.4038(2) -0.4034(3)
C20 C -0.1622(4) 0.4776(2) -0.4233(3)
C21 C -0.2455(3) 0.2736(2) -0.3695(3)
C22 C -0.2835(3) 0.3314(2) -0.3315(3)
C23 C -0.3469(4) 0.0758(2) -0.3127(3)
H12 H -0.3713 0.0321 -0.3016
C24 C -0.2705(4) 0.0801(2) -0.3624(3)
H13 H -0.2434 0.0399 -0.3823
C25 C -0.2360(4) 0.1437(2) -0.3816(3)
H14 H -0.1861 0.1477 -0.4158
C26 C -0.2765(3) 0.20342(19) -0.3490(3)
C27 C -0.3502(3) 0.19438(19) -0.2967(3)
C28 C -0.3940(3) 0.25476(19) -0.2607(3)
C29 C -0.3589(3) 0.3222(2) -0.2750(3)
C30 C -0.4004(4) 0.3784(2) -0.2370(3)
H15 H -0.3777 0.4236 -0.2438
C31 C -0.4756(4) 0.3655(2) -0.1892(4)
H16 H -0.5048 0.4020 -0.1634
C32 C -0.5069(4) 0.2979(2) -0.1800(3)
H17 H -0.5586 0.2904 -0.1483
Eu1A Eu 0.033090(17) 0.612850(10) -0.311640(14)
Eu1C Eu -0.033090(17) 0.387150(10) -0.688360(14)
O5C O -0.5327(3) 0.09161(15) -0.0053(2)
O6C O -0.6124(3) 0.18936(14) -0.0888(2)
O7A O -0.4239(2) 0.00652(13) -0.1520(2)
O11 O -0.9023(4) 0.0224(3) -0.3792(3)
H18 H -0.8591 0.0214 -0.4130
H19 H -0.9407 0.0606 -0.3933
O12 O -0.5200(6) 0.3341(4) -0.9547(5)
H20 H -0.4576 0.3116 -0.9478
H21 H -0.5693 0.3057 -0.9483
loop_
_geom_bond_atom_site_label_1
_geom_bond_atom_site_label_2
_geom_bond_site_symmetry_1
_geom_bond_site_symmetry_2
Eu1 N7 1_555 1_555
N1 C2 1_555 1_555
N2 C3 1_555 1_555
N3 C7 1_555 1_555
N4 C12 1_555 1_555
N5 C18 1_555 1_555
N6 C19 1_555 1_555
N7 C23 1_555 1_555
N8 Eu1 1_555 1_555
O1 Eu1 1_555 1_555
O2 C1 1_555 1_555
O3 Eu1 1_555 1_555
O4 C4 1_555 1_555
O5 C17 1_555 1_555
O6 C17 1_555 1_555
O7 C20 1_555 1_555
O8 H1 1_555 1_555
O9 Eu1 1_555 1_555
H2 O9 1_555 1_555
H3 O9 1_555 1_555
O10 Eu1 1_555 1_555
H4 O10 1_555 1_555
H5 O10 1_555 1_555
C1 O1 1_555 1_555
C2 C1 1_555 1_555
C3 C2 1_555 1_555
C4 O3 1_555 1_555
C5 N1 1_555 1_555
C6 N2 1_555 1_555
C7 H6 1_555 1_555
C8 C7 1_555 1_555
H7 C8 1_555 1_555
C9 C8 1_555 1_555
H8 C9 1_555 1_555
C10 C5 1_555 1_555
C11 N3 1_555 1_555
C12 C11 1_555 1_555
C13 C6 1_555 1_555
C14 C13 1_555 1_555
H9 C14 1_555 1_555
C15 C14 1_555 1_555
H10 C15 1_555 1_555
C16 N4 1_555 1_555
H11 C16 1_555 1_555
C17 C18 1_555 1_555
C18 C19 1_555 1_555
C19 C20 1_555 1_555
C20 O8 1_555 1_555
C21 N5 1_555 1_555
C22 N6 1_555 1_555
C23 H12 1_555 1_555
C24 C23 1_555 1_555
H13 C24 1_555 1_555
C25 C24 1_555 1_555
H14 C25 1_555 1_555
C26 C21 1_555 1_555
C27 N7 1_555 1_555
C28 N8 1_555 1_555
C29 C22 1_555 1_555
C30 C29 1_555 1_555
H15 C30 1_555 1_555
C31 C30 1_555 1_555
H16 C31 1_555 1_555
C32 N8 1_555 1_555
H17 C32 1_555 1_555
O11 H18 1_555 1_555
H19 O11 1_555 1_555
O12 H20 1_555 1_555
H21 O12 1_555 1_555
Eu1A O7 1_555 1_555
Eu1C O5 1_555 1_555
O5C Eu1 1_555 1_555
O6C Eu1 1_555 1_555
O7A Eu1 1_555 1_555
O6 Eu1C 1_555 1_555
C3 C4 1_555 1_555
C5 C6 1_555 1_555
C9 C10 1_555 1_555
C10 C11 1_555 1_555
C12 C13 1_555 1_555
C15 C16 1_555 1_555
C21 C22 1_555 1_555
C25 C26 1_555 1_555
C26 C27 1_555 1_555
C27 C28 1_555 1_555
C28 C29 1_555 1_555
C31 C32 1_555 1_555

#END
