
#######################################################################
#
#                 Cambridge Crystallographic Data Centre
#                                CCDC 
#
#######################################################################
#
# If this CIF has been generated from an entry in the Cambridge 
# Structural Database, then it will include bibliographic, chemical, 
# crystal, experimental, refinement or atomic coordinate data resulting 
# from the CCDC's data processing and validation procedures.
#
#######################################################################

data_TUCNEL
_symmetry_cell_setting           monoclinic
_symmetry_space_group_name_H-M   'P 21/n'
_symmetry_Int_Tables_number      14
_space_group_name_Hall           '-P 2yn'
loop_
_symmetry_equiv_pos_site_id
_symmetry_equiv_pos_as_xyz
1 x,y,z
2 1/2-x,1/2+y,1/2-z
3 -x,-y,-z
4 1/2+x,1/2-y,1/2+z
_cell_length_a                   12.3471(14)
_cell_length_b                   19.270(2)
_cell_length_c                   13.9716(17)
_cell_angle_alpha                90
_cell_angle_beta                 115.587(2)
_cell_angle_gamma                90
_cell_volume                     2998.24
loop_
_atom_site_label
_atom_site_type_symbol
_atom_site_fract_x
_atom_site_fract_y
_atom_site_fract_z
Sm1 Sm 0.466497(19) 0.112400(11) 0.811346(17)
N1 N 0.4222(3) 0.12651(18) 0.4564(3)
N2 N 0.3636(3) 0.25893(18) 0.5059(3)
N3 N 0.6388(4) 0.2361(2) 0.2834(3)
N4 N 0.5707(3) 0.3639(2) 0.3185(3)
N5 N 0.8163(3) 0.28126(17) 0.5719(3)
N6 N 0.7438(3) 0.39679(17) 0.6516(3)
N7 N 0.6129(3) 0.13127(17) 0.7192(3)
N8 N 0.5312(3) 0.24292(17) 0.7854(3)
O1 O 0.3912(3) 0.04968(15) 0.6457(2)
O2 O 0.2260(3) 0.04319(17) 0.4922(3)
O3 O 0.2891(3) 0.17369(16) 0.6852(2)
O4 O 0.1782(3) 0.25317(17) 0.5707(3)
O5 O 0.9664(3) 0.40844(15) 0.4950(2)
O6 O 0.8867(3) 0.31063(15) 0.4113(2)
O7 O 0.9233(3) 0.50596(14) 0.6522(2)
O8 O 0.7704(3) 0.50390(16) 0.4895(3)
H1 H 0.7135 0.4779 0.4574
O9 O 0.3013(3) 0.03796(16) 0.8041(2)
H2 H 0.2355 0.0466 0.7506
H3 H 0.2916 0.0398 0.8607
O10 O 0.6627(3) 0.13631(15) 0.9482(2)
H4 H 0.6920 0.1006 0.9863
H5 H 0.6602 0.1693 0.9876
C1 C 0.3228(4) 0.0697(2) 0.5533(4)
C2 C 0.3611(4) 0.1345(2) 0.5142(3)
C3 C 0.3328(4) 0.2013(2) 0.5394(3)
C4 C 0.2605(4) 0.2101(2) 0.6037(3)
C5 C 0.4579(4) 0.1857(2) 0.4257(3)
C6 C 0.4272(4) 0.2517(2) 0.4489(3)
C7 C 0.6700(5) 0.1750(3) 0.2584(4)
H10 H 0.7177 0.1737 0.2220
C8 C 0.6330(5) 0.1138(3) 0.2857(4)
H11 H 0.6550 0.0715 0.2672
C9 C 0.5633(4) 0.1156(2) 0.3405(4)
H12 H 0.5384 0.0746 0.3600
C10 C 0.5303(4) 0.1797(2) 0.3665(3)
C11 C 0.5680(4) 0.2409(2) 0.3359(3)
C12 C 0.5346(4) 0.3092(2) 0.3571(4)
C13 C 0.4645(4) 0.3143(2) 0.4133(3)
C14 C 0.4297(4) 0.3809(2) 0.4285(4)
H13 H 0.3827 0.3871 0.4649
C15 C 0.4655(4) 0.4365(2) 0.3891(4)
H14 H 0.4432 0.4812 0.3985
C16 C 0.5358(4) 0.4260(3) 0.3345(4)
H15 H 0.5593 0.4645 0.3080
C17 C 0.9042(4) 0.3550(2) 0.4827(3)
C18 C 0.8416(4) 0.3452(2) 0.5540(3)
C19 C 0.8076(4) 0.4033(2) 0.5958(3)
C20 C 0.8369(4) 0.4776(2) 0.5768(3)
C21 C 0.7541(4) 0.2736(2) 0.6304(3)
C22 C 0.7157(4) 0.3312(2) 0.6683(3)
C23 C 0.6528(4) 0.0760(2) 0.6868(3)
H16 H 0.6287 0.0322 0.6981
C24 C 0.7292(4) 0.0805(2) 0.6366(4)
H17 H 0.7557 0.0405 0.6160
C25 C 0.7642(4) 0.1441(2) 0.6185(4)
H18 H 0.8147 0.1481 0.5850
C26 C 0.7236(4) 0.2038(2) 0.6506(3)
C27 C 0.6490(3) 0.1945(2) 0.7026(3)
C28 C 0.6058(3) 0.2548(2) 0.7387(3)
C29 C 0.6402(4) 0.3219(2) 0.7242(3)
C30 C 0.5986(4) 0.3780(2) 0.7623(4)
H19 H 0.6215 0.4230 0.7556
C31 C 0.5235(5) 0.3656(2) 0.8097(4)
H20 H 0.4941 0.4021 0.8351
C32 C 0.4924(4) 0.2979(2) 0.8189(4)
H21 H 0.4410 0.2903 0.8507
Sm1C Sm 0.966497(19) 0.387600(11) 0.311346(17)
Sm1A Sm 1.033503(19) 0.612400(11) 0.688654(17)
O5C O 0.4664(3) 0.09156(15) 0.9950(2)
O6C O 0.3867(3) 0.18937(15) 0.9113(2)
O7A O 0.5767(3) 0.00596(14) 0.8478(2)
O11 O 0.0976(5) 0.0218(4) 0.6203(4)
H6 H 0.1405 0.0209 0.5864
H7 H 0.0594 0.0599 0.6066
O12 O 0.4791(6) 0.3328(4) 0.0454(6)
H8 H 0.5414 0.3104 0.0522
H9 H 0.4301 0.3043 0.0519
loop_
_geom_bond_atom_site_label_1
_geom_bond_atom_site_label_2
_geom_bond_site_symmetry_1
_geom_bond_site_symmetry_2
Sm1 N7 1_555 1_555
N1 C2 1_555 1_555
N2 C3 1_555 1_555
N3 C7 1_555 1_555
N4 C12 1_555 1_555
N5 C18 1_555 1_555
N6 C19 1_555 1_555
N7 C23 1_555 1_555
N8 Sm1 1_555 1_555
O1 Sm1 1_555 1_555
O2 C1 1_555 1_555
O3 Sm1 1_555 1_555
O4 C4 1_555 1_555
O5 C17 1_555 1_555
O6 C17 1_555 1_555
O7 C20 1_555 1_555
O8 H1 1_555 1_555
O9 Sm1 1_555 1_555
H2 O9 1_555 1_555
H3 O9 1_555 1_555
O10 Sm1 1_555 1_555
H4 O10 1_555 1_555
H5 O10 1_555 1_555
O11 H6 1_555 1_555
H7 O11 1_555 1_555
O12 H8 1_555 1_555
H9 O12 1_555 1_555
C1 O1 1_555 1_555
C2 C1 1_555 1_555
C3 C2 1_555 1_555
C4 O3 1_555 1_555
C5 N1 1_555 1_555
C6 N2 1_555 1_555
C7 H10 1_555 1_555
C8 C7 1_555 1_555
H11 C8 1_555 1_555
C9 C8 1_555 1_555
H12 C9 1_555 1_555
C10 C5 1_555 1_555
C11 N3 1_555 1_555
C12 C11 1_555 1_555
C13 C6 1_555 1_555
C14 C13 1_555 1_555
H13 C14 1_555 1_555
C15 C14 1_555 1_555
H14 C15 1_555 1_555
C16 N4 1_555 1_555
H15 C16 1_555 1_555
C17 C18 1_555 1_555
C18 C19 1_555 1_555
C19 C20 1_555 1_555
C20 O8 1_555 1_555
C21 N5 1_555 1_555
C22 N6 1_555 1_555
C23 H16 1_555 1_555
C24 C23 1_555 1_555
H17 C24 1_555 1_555
C25 C24 1_555 1_555
H18 C25 1_555 1_555
C26 C21 1_555 1_555
C27 N7 1_555 1_555
C28 N8 1_555 1_555
C29 C22 1_555 1_555
C30 C29 1_555 1_555
H19 C30 1_555 1_555
C31 C30 1_555 1_555
H20 C31 1_555 1_555
C32 N8 1_555 1_555
H21 C32 1_555 1_555
Sm1C O5 1_555 1_555
Sm1A O7 1_555 1_555
O5C Sm1 1_555 1_555
O6C Sm1 1_555 1_555
O7A Sm1 1_555 1_555
O6 Sm1C 1_555 1_555
C3 C4 1_555 1_555
C5 C6 1_555 1_555
C9 C10 1_555 1_555
C10 C11 1_555 1_555
C12 C13 1_555 1_555
C15 C16 1_555 1_555
C21 C22 1_555 1_555
C25 C26 1_555 1_555
C26 C27 1_555 1_555
C27 C28 1_555 1_555
C28 C29 1_555 1_555
C31 C32 1_555 1_555

#END
