
#######################################################################
#
#                 Cambridge Crystallographic Data Centre
#                                CCDC 
#
#######################################################################
#
# If this CIF has been generated from an entry in the Cambridge 
# Structural Database, then it will include bibliographic, chemical, 
# crystal, experimental, refinement or atomic coordinate data resulting 
# from the CCDC's data processing and validation procedures.
#
#######################################################################

data_TUCPIQ
_symmetry_cell_setting           monoclinic
_symmetry_space_group_name_H-M   'P 21/n'
_symmetry_Int_Tables_number      14
_space_group_name_Hall           '-P 2yn'
loop_
_symmetry_equiv_pos_site_id
_symmetry_equiv_pos_as_xyz
1 x,y,z
2 1/2-x,1/2+y,1/2-z
3 -x,-y,-z
4 1/2+x,1/2-y,1/2+z
_cell_length_a                   10.5070(30)
_cell_length_b                   5.9910(10)
_cell_length_c                   10.4510(30)
_cell_angle_alpha                90
_cell_angle_beta                 94.78(2)
_cell_angle_gamma                90
_cell_volume                     655.576
loop_
_atom_site_label
_atom_site_type_symbol
_atom_site_fract_x
_atom_site_fract_y
_atom_site_fract_z
Np1 Np 0.37421(2) 0.08387(4) 0.21584(2)
O1 O 0.23773(46) -0.06928(77) 0.27664(42)
O2 O 0.50506(49) 0.2380(10) 0.15148(47)
O3 O 0.41429(48) 0.22869(82) 0.43800(42)
O4 O 0.52105(53) -0.14496(93) 0.35799(43)
O5 O 0.43801(59) -0.25704(97) 0.10132(48)
O6 O 0.24449(67) 0.0910(11) 0.01137(54)
C1 C 0.46787(61) 0.10790(97) 0.52337(56)
Np1A Np 0.12579(2) -0.41613(4) 0.28416(2)
Np1C Np 0.87421(2) -0.58387(4) 0.71584(2)
O1C O 0.73773(46) -0.43072(77) 0.77664(42)
Np1B Np 0.62579(2) -0.08387(4) 0.78416(2)
O1B O 0.76227(46) 0.06928(77) 0.72336(42)
O2B O 0.49494(49) -0.2380(10) 0.84852(47)
O3B O 0.58571(48) -0.22869(82) 0.56200(42)
C1B C 0.53213(61) -0.10790(97) 0.47663(56)
O1A O 0.26227(46) 0.43072(77) 0.22336(42)
O4B O 0.47895(53) 0.14496(93) 0.64201(43)
O5B O 0.56199(59) 0.25704(97) 0.89868(48)
O6B O 0.75551(67) -0.0910(11) 0.98863(54)
O7 O 0.73053(76) -0.3086(15) 1.20799(74)
loop_
_geom_bond_atom_site_label_1
_geom_bond_atom_site_label_2
_geom_bond_site_symmetry_1
_geom_bond_site_symmetry_2
Np1 O1 1_555 1_555
O1 Np1A 1_555 1_555
O2 Np1 1_555 1_555
O3 Np1 1_555 1_555
O4 Np1 1_555 1_555
O5 Np1 1_555 1_555
O6 Np1 1_555 1_555
C1 O3 1_555 1_555
Np1C O1C 1_555 1_555
O1C Np1B 1_555 1_555
Np1B O1B 1_555 1_555
O2B Np1B 1_555 1_555
O3B Np1B 1_555 1_555
C1B O4 1_555 1_555
O1A Np1 1_555 1_555
O4B C1 1_555 1_555
O5B Np1B 1_555 1_555
O6B Np1B 1_555 1_555
C1 C1B 1_555 1_555
Np1B O4B 1_555 1_555
O3B C1B 1_555 1_555

#END
