
#######################################################################
#
#                 Cambridge Crystallographic Data Centre
#                                CCDC 
#
#######################################################################
#
# If this CIF has been generated from an entry in the Cambridge 
# Structural Database, then it will include bibliographic, chemical, 
# crystal, experimental, refinement or atomic coordinate data resulting 
# from the CCDC's data processing and validation procedures.
#
#######################################################################

data_TUCPOX
_symmetry_cell_setting           monoclinic
_symmetry_space_group_name_H-M   'P 21/c'
_symmetry_Int_Tables_number      14
_space_group_name_Hall           '-P 2ybc'
loop_
_symmetry_equiv_pos_site_id
_symmetry_equiv_pos_as_xyz
1 x,y,z
2 -x,1/2+y,1/2-z
3 -x,-y,-z
4 x,1/2-y,1/2+z
_cell_length_a                   9.2257(10)
_cell_length_b                   22.112(3)
_cell_length_c                   22.493(2)
_cell_angle_alpha                90
_cell_angle_beta                 91.242(2)
_cell_angle_gamma                90
_cell_volume                     4587.46
loop_
_atom_site_label
_atom_site_type_symbol
_atom_site_fract_x
_atom_site_fract_y
_atom_site_fract_z
Eu1 Eu 1.11949(5) 0.54369(2) 0.24919(2)
Eu2 Eu 1.16057(5) 0.26045(2) 0.18049(2)
O1 O 1.2405(9) 0.2647(4) 0.2814(3)
H1 H 1.3172 0.2805 0.2934
H2 H 1.1978 0.2479 0.3092
O2 O 1.3874(7) 0.2037(3) 0.1839(3)
H3 H 1.3903 0.1664 0.1805
H4 H 1.4453 0.2158 0.2100
O3 O 1.3125(7) 0.4657(3) 0.2560(3)
H5 H 1.2810 0.4372 0.2758
H6 H 1.3857 0.4809 0.2717
O4 O 1.3645(7) 0.5852(3) 0.2404(3)
H7 H 1.3476 0.6222 0.2384
H8 H 1.4241 0.5782 0.2679
O6 O 1.3445(7) 0.3294(3) 0.1577(3)
O7 O 1.4530(9) 0.4143(4) 0.1308(4)
O8 O 1.0705(8) 0.3609(3) 0.1999(3)
O9 O 1.0276(7) 0.4593(3) 0.1967(3)
O10 O 0.9187(7) 0.5699(3) 0.3076(3)
O11 O 0.8924(7) 0.6612(3) 0.3469(3)
O12 O 0.5955(7) 0.5787(3) 0.3138(3)
O13 O 0.5478(9) 0.4823(3) 0.3310(3)
O14 O 1.5122(8) 0.7539(4) 0.1578(3)
O15 O 1.3964(7) 0.7106(3) 0.2327(3)
O16 O 1.0356(7) 0.7436(3) 0.2569(3)
O17 O 1.1183(7) 0.6502(3) 0.2440(3)
N1 N 0.8095(8) 0.7486(3) -0.0665(3)
N2 N 1.0681(8) 0.7236(3) -0.1136(3)
N3 N 1.0134(8) 0.7289(3) 0.1307(3)
N4 N 1.2877(8) 0.7244(3) 0.0821(3)
N5 N 0.6741(8) 0.4981(3) 0.4433(3)
N6 N 0.8908(8) 0.5863(3) 0.4541(3)
N7 N 0.7840(9) 0.4328(3) 0.6433(3)
N8 N 0.9399(9) 0.5348(3) 0.6631(3)
N9 N 1.0857(8) 0.4213(3) -0.1730(3)
N10 N 0.8128(9) 0.4454(3) -0.1341(3)
N11 N 1.2533(8) 0.3924(3) 0.0292(3)
N12 N 0.9778(9) 0.4228(3) 0.0700(3)
C1 C 1.3525(10) 0.3786(4) 0.1295(4)
C2 C 1.2249(10) 0.3930(4) 0.0869(4)
C3 C 1.0844(11) 0.4085(4) 0.1070(4)
C4 C 1.0573(9) 0.4097(4) 0.1737(4)
C5 C 1.1420(10) 0.4050(4) -0.0088(4)
C6 C 1.0064(10) 0.4193(4) 0.0111(4)
C7 C 0.8869(10) 0.4330(4) -0.0309(4)
C8 C 0.7465(11) 0.4456(4) -0.0137(4)
H11 H 0.7224 0.4446 0.0262
C9 C 0.6449(11) 0.4596(4) -0.0562(5)
H12 H 0.5517 0.4702 -0.0452
C10 C 0.6795(10) 0.4581(4) -0.1155(4)
H13 H 0.6071 0.4663 -0.1437
C11 C 0.9157(9) 0.4334(4) -0.0928(4)
C12 C 1.0614(10) 0.4190(4) -0.1128(4)
C13 C 1.1719(10) 0.4036(4) -0.0726(4)
C14 C 1.3070(12) 0.3862(5) -0.0932(4)
H14 H 1.3803 0.3733 -0.0671
C15 C 1.3275(12) 0.3886(5) -0.1519(5)
H15 H 1.4176 0.3783 -0.1665
C16 C 1.2183(12) 0.4061(5) -0.1912(4)
H16 H 1.2373 0.4074 -0.2316
C17 C 1.4057(11) 0.7294(4) 0.1807(5)
C18 C 1.2696(10) 0.7220(4) 0.1408(4)
C19 C 1.1310(10) 0.7196(4) 0.1642(4)
C20 C 1.0956(9) 0.7032(4) 0.2276(4)
C21 C 0.6805(11) 0.7619(5) -0.0451(4)
H17 H 0.6023 0.7661 -0.0716
C22 C 0.6578(11) 0.7697(5) 0.0148(4)
H18 H 0.5669 0.7809 0.0282
C23 C 0.7704(11) 0.7610(5) 0.0543(4)
H19 H 0.7566 0.7648 0.0949
C24 C 0.9071(10) 0.7460(4) 0.0326(4)
C25 C 1.0304(10) 0.7336(4) 0.0713(4)
C26 C 1.1683(10) 0.7255(4) 0.0471(4)
C27 C 1.1838(10) 0.7206(4) -0.0165(4)
C28 C 1.3140(10) 0.7045(4) -0.0426(4)
H20 H 1.3965 0.6978 -0.0190
C29 C 1.3197(10) 0.6984(5) -0.1032(4)
H21 H 1.4054 0.6876 -0.1214
C30 C 1.1932(10) 0.7090(4) -0.1367(4)
H22 H 1.1976 0.7055 -0.1778
C31 C 1.0636(10) 0.7291(4) -0.0537(4)
C32 C 0.9219(9) 0.7428(4) -0.0288(4)
C33 C 0.8827(10) 0.6053(4) 0.3474(4)
C34 C 0.8223(10) 0.5753(4) 0.4034(4)
C35 C 0.7059(10) 0.5332(4) 0.3980(4)
C36 C 0.6078(10) 0.5299(4) 0.3431(4)
C37 C 0.7129(10) 0.3815(4) 0.6325(4)
H23 H 0.7084 0.3531 0.6629
C38 C 0.6453(11) 0.3682(5) 0.5785(4)
H24 H 0.5980 0.3314 0.5732
C39 C 0.6482(11) 0.4092(4) 0.5331(4)
H25 H 0.5999 0.4016 0.4971
C40 C 0.7259(10) 0.4631(4) 0.5422(4)
C41 C 0.7496(10) 0.5063(4) 0.4946(4)
C42 C 0.8522(10) 0.5517(4) 0.5011(4)
C43 C 0.9201(10) 0.5634(4) 0.5591(4)
C44 C 1.0274(11) 0.6071(4) 0.5681(4)
H26 H 1.0602 0.6299 0.5364
C45 C 1.0838(11) 0.6159(4) 0.6245(4)
H27 H 1.1531 0.6457 0.6316
C46 C 1.0364(12) 0.5799(4) 0.6705(5)
H28 H 1.0733 0.5873 0.7086
C47 C 0.8834(10) 0.5264(4) 0.6076(4)
C48 C 0.7918(10) 0.4733(4) 0.5981(4)
Eu1B Eu 0.88051(5) 0.45631(2) 0.75081(2)
Eu1B_2 Eu 0.88051(5) 0.45631(2) -0.24919(2)
Eu2A Eu 0.83943(5) 0.76045(2) 0.31951(2)
Eu2B Eu 0.83943(5) 0.73955(2) -0.18049(2)
O11A O 1.1076(7) 0.1612(3) 0.1531(3)
O16A O 0.9644(7) 0.2436(3) 0.2431(3)
N1B N 1.1905(8) 0.2514(3) 0.0665(3)
N2B N 0.9319(8) 0.2764(3) 0.1136(3)
N7B N 1.2160(9) 0.5672(3) 0.3567(3)
N8B N 1.0601(9) 0.4652(3) 0.3369(3)
N9B N 0.9143(8) 0.5787(3) 0.1730(3)
N10B N 1.1872(9) 0.5546(3) 0.1341(3)
O5 O 0.5043(16) 0.6247(5) 0.5976(5)
H9 H 0.5076 0.6591 0.6145
H10 H 0.4541 0.5944 0.6045
loop_
_geom_bond_atom_site_label_1
_geom_bond_atom_site_label_2
_geom_bond_site_symmetry_1
_geom_bond_site_symmetry_2
Eu1 O3 1_555 1_555
Eu2 O1 1_555 1_555
O1 H1 1_555 1_555
H2 O1 1_555 1_555
O2 Eu2 1_555 1_555
H3 O2 1_555 1_555
H4 O2 1_555 1_555
O3 H5 1_555 1_555
H6 O3 1_555 1_555
O4 Eu1 1_555 1_555
H7 O4 1_555 1_555
H8 O4 1_555 1_555
O5 H9 1_555 1_555
H10 O5 1_555 1_555
O6 Eu2 1_555 1_555
O7 C1 1_555 1_555
O8 Eu2 1_555 1_555
O9 Eu1 1_555 1_555
O10 Eu1 1_555 1_555
O11 C33 1_555 1_555
O12 C36 1_555 1_555
O13 C36 1_555 1_555
O14 C17 1_555 1_555
O15 C17 1_555 1_555
O16 C20 1_555 1_555
O17 Eu1 1_555 1_555
N1 C21 1_555 1_555
N2 C30 1_555 1_555
N3 C19 1_555 1_555
N4 C18 1_555 1_555
N5 C35 1_555 1_555
N6 C34 1_555 1_555
N7 C37 1_555 1_555
N8 C46 1_555 1_555
N9 C12 1_555 1_555
N10 C10 1_555 1_555
N11 C2 1_555 1_555
N12 C3 1_555 1_555
C1 O6 1_555 1_555
C2 C1 1_555 1_555
C3 C2 1_555 1_555
C4 O8 1_555 1_555
C5 N11 1_555 1_555
C6 N12 1_555 1_555
C7 C6 1_555 1_555
C8 C7 1_555 1_555
H11 C8 1_555 1_555
C9 C8 1_555 1_555
H12 C9 1_555 1_555
C10 C9 1_555 1_555
H13 C10 1_555 1_555
C11 N10 1_555 1_555
C12 C11 1_555 1_555
C13 C5 1_555 1_555
C14 C13 1_555 1_555
H14 C14 1_555 1_555
C15 C14 1_555 1_555
H15 C15 1_555 1_555
C16 N9 1_555 1_555
H16 C16 1_555 1_555
C17 C18 1_555 1_555
C18 C19 1_555 1_555
C19 C20 1_555 1_555
C20 O17 1_555 1_555
C21 H17 1_555 1_555
C22 C21 1_555 1_555
H18 C22 1_555 1_555
C23 C22 1_555 1_555
H19 C23 1_555 1_555
C24 C23 1_555 1_555
C25 N3 1_555 1_555
C26 N4 1_555 1_555
C27 C26 1_555 1_555
C28 C27 1_555 1_555
H20 C28 1_555 1_555
C29 C28 1_555 1_555
H21 C29 1_555 1_555
C30 C29 1_555 1_555
H22 C30 1_555 1_555
C31 N2 1_555 1_555
C32 N1 1_555 1_555
C33 O10 1_555 1_555
C34 C33 1_555 1_555
C35 C34 1_555 1_555
C36 C35 1_555 1_555
C37 H23 1_555 1_555
C38 C37 1_555 1_555
H24 C38 1_555 1_555
C39 C38 1_555 1_555
H25 C39 1_555 1_555
C40 C39 1_555 1_555
C41 N5 1_555 1_555
C42 N6 1_555 1_555
C43 C42 1_555 1_555
C44 C43 1_555 1_555
H26 C44 1_555 1_555
C45 C44 1_555 1_555
H27 C45 1_555 1_555
C46 C45 1_555 1_555
H28 C46 1_555 1_555
C47 N8 1_555 1_555
C48 N7 1_555 1_555
Eu1B N7 1_555 1_555
Eu1B_2 N9 1_555 1_555
Eu2A O11 1_555 1_555
Eu2B N1 1_555 1_555
O11A Eu2 1_555 1_555
O16A Eu2 1_555 1_555
N1B Eu2 1_555 1_555
N2B Eu2 1_555 1_555
N7B Eu1 1_555 1_555
N8B Eu1 1_555 1_555
N9B Eu1 1_555 1_555
N10B Eu1 1_555 1_555
O9 C4 1_555 1_555
O16 Eu2A 1_555 1_555
N2 Eu2B 1_555 1_555
N8 Eu1B 1_555 1_555
N10 Eu1B_2 1_555 1_555
C3 C4 1_555 1_555
C5 C6 1_555 1_555
C7 C11 1_555 1_555
C12 C13 1_555 1_555
C15 C16 1_555 1_555
C24 C25 1_555 1_555
C24 C32 1_555 1_555
C25 C26 1_555 1_555
C27 C31 1_555 1_555
C31 C32 1_555 1_555
C40 C41 1_555 1_555
C40 C48 1_555 1_555
C41 C42 1_555 1_555
C43 C47 1_555 1_555
C47 C48 1_555 1_555

#END
