
#######################################################################
#
#                 Cambridge Crystallographic Data Centre
#                                CCDC 
#
#######################################################################
#
# If this CIF has been generated from an entry in the Cambridge 
# Structural Database, then it will include bibliographic, chemical, 
# crystal, experimental, refinement or atomic coordinate data resulting 
# from the CCDC's data processing and validation procedures.
#
#######################################################################

data_TUCPUD
_symmetry_cell_setting           monoclinic
_symmetry_space_group_name_H-M   'P 21/n'
_symmetry_Int_Tables_number      14
_space_group_name_Hall           '-P 2yn'
loop_
_symmetry_equiv_pos_site_id
_symmetry_equiv_pos_as_xyz
1 x,y,z
2 1/2-x,1/2+y,1/2-z
3 -x,-y,-z
4 1/2+x,1/2-y,1/2+z
_cell_length_a                   12.2705(11)
_cell_length_b                   19.1561(17)
_cell_length_c                   13.9955(12)
_cell_angle_alpha                90
_cell_angle_beta                 115.3340(10)
_cell_angle_gamma                90
_cell_volume                     2973.34
loop_
_atom_site_label
_atom_site_type_symbol
_atom_site_fract_x
_atom_site_fract_y
_atom_site_fract_z
Tb1 Tb 1.031901(19) 0.386227(11) 0.687603(16)
O1 O 1.2078(3) 0.32487(17) 0.8107(2)
O2 O 1.3222(3) 0.24692(18) 0.9275(3)
O3 O 1.1081(3) 0.44917(16) 0.8502(2)
O4 O 1.2719(3) 0.45815(18) 1.0040(3)
O5 O 0.6101(3) 0.18932(16) 1.0884(3)
O6 O 0.5298(3) 0.09147(17) 1.0046(3)
O7 O 0.7269(3) -0.00390(17) 1.0108(3)
H1 H 0.7427 -0.0445 1.0033
O8 O 0.5748(3) -0.00746(15) 0.8482(2)
N1 N 0.9269(4) 0.1351(2) 1.1813(3)
N2 N 0.8579(4) 0.2640(2) 1.2151(3)
N3 N 1.1332(3) 0.24053(19) 0.9906(3)
N4 N 1.0758(3) 0.37369(19) 1.0416(3)
N5 N 0.8864(3) 0.36965(18) 0.7789(3)
N6 N 0.9671(3) 0.25667(19) 0.7123(3)
N7 N 0.6809(3) 0.21949(19) 0.9272(3)
N8 N 0.7524(3) 0.10262(18) 0.8472(3)
C1 C 0.9629(5) 0.0733(3) 1.1650(4)
H2 H 0.9401 0.0345 1.1920
C2 C 1.0324(5) 0.0624(3) 1.1103(4)
H3 H 1.0547 0.0174 1.1012
C3 C 1.0679(4) 0.1181(2) 1.0698(4)
H4 H 1.1141 0.1118 1.0324
C4 C 1.0335(4) 0.1850(2) 1.0860(3)
C5 C 0.9630(4) 0.1902(2) 1.1420(4)
C6 C 0.9286(4) 0.2592(2) 1.1621(4)
C7 C 0.9673(4) 0.3207(2) 1.1316(4)
C8 C 0.9340(5) 0.3848(3) 1.1576(4)
H5 H 0.9588 0.4258 1.1375
C9 C 0.8646(5) 0.3879(3) 1.2130(4)
H6 H 0.8436 0.4307 1.2317
C10 C 0.8271(5) 0.3268(3) 1.2400(4)
H7 H 0.7791 0.3286 1.2764
C11 C 1.0693(4) 0.2481(2) 1.0481(3)
C12 C 1.0403(4) 0.3143(2) 1.0730(3)
C13 C 1.1642(4) 0.2987(2) 0.9574(3)
C14 C 1.1363(4) 0.3653(2) 0.9831(3)
C15 C 1.2370(4) 0.2892(2) 0.8937(4)
C16 C 1.1762(4) 0.4308(2) 0.9432(4)
C17 C 0.8477(4) 0.4248(2) 0.8119(4)
H8 H 0.8735 0.4687 0.8016
C18 C 0.7705(4) 0.4211(2) 0.8615(4)
H9 H 0.7437 0.4616 0.8813
C19 C 0.7350(4) 0.3572(2) 0.8802(4)
H10 H 0.6846 0.3535 0.9142
C20 C 0.7749(4) 0.2971(2) 0.8480(3)
C21 C 0.8495(4) 0.3057(2) 0.7958(3)
C22 C 0.8925(4) 0.2449(2) 0.7594(3)
C23 C 0.8569(4) 0.1772(2) 0.7738(3)
C24 C 0.8984(4) 0.1208(2) 0.7355(4)
H11 H 0.8756 0.0754 0.7425
C25 C 0.9734(5) 0.1330(2) 0.6873(4)
H12 H 1.0019 0.0962 0.6610
C26 C 1.0060(4) 0.2017(2) 0.6786(4)
H13 H 1.0583 0.2093 0.6472
C27 C 0.7443(4) 0.2268(2) 0.8683(3)
C28 C 0.7819(4) 0.1685(2) 0.8303(3)
C29 C 0.6554(4) 0.1545(2) 0.9460(3)
C30 C 0.6886(4) 0.0959(2) 0.9036(3)
C31 C 0.5919(4) 0.1450(2) 1.0164(4)
C32 C 0.6596(4) 0.0213(2) 0.9227(4)
O9 O 0.8388(3) 0.36216(16) 0.5538(2)
H14 H 0.8359 0.3938 0.5113
H15 H 0.7921 0.3301 0.5191
O10 O 1.1951(3) 0.45878(17) 0.6938(3)
H16 H 1.2039 0.4720 0.6410
H17 H 1.2591 0.4624 0.7481
Tb1A Tb 0.468099(19) -0.113773(11) 0.812397(16)
Tb1C Tb 0.531901(19) 0.113773(11) 1.187603(16)
O5C O 1.1101(3) 0.31068(16) 0.5884(3)
O6C O 1.0298(3) 0.40853(17) 0.5046(3)
O8A O 0.9252(3) 0.49254(15) 0.6518(2)
O11 O 0.4024(4) 0.4748(3) 0.8771(4)
H18 H 0.4442 0.4432 0.9166
H19 H 0.3796 0.5027 0.9105
O12 O 0.5198(6) 0.3346(4) 0.9541(6)
H20 H 0.5552 0.3006 0.9926
H21 H 0.4533 0.3212 0.9073
loop_
_geom_bond_atom_site_label_1
_geom_bond_atom_site_label_2
_geom_bond_site_symmetry_1
_geom_bond_site_symmetry_2
Tb1 O1 1_555 1_555
O1 C15 1_555 1_555
O2 C15 1_555 1_555
O3 Tb1 1_555 1_555
O4 C16 1_555 1_555
O5 C31 1_555 1_555
O6 C31 1_555 1_555
O7 H1 1_555 1_555
O8 C32 1_555 1_555
N1 C1 1_555 1_555
N2 C6 1_555 1_555
N3 C11 1_555 1_555
N4 C12 1_555 1_555
N5 Tb1 1_555 1_555
N6 Tb1 1_555 1_555
N7 C27 1_555 1_555
N8 C28 1_555 1_555
C1 H2 1_555 1_555
C2 C1 1_555 1_555
H3 C2 1_555 1_555
C3 C2 1_555 1_555
H4 C3 1_555 1_555
C4 C3 1_555 1_555
C5 N1 1_555 1_555
C6 C5 1_555 1_555
C7 C6 1_555 1_555
C8 C7 1_555 1_555
H5 C8 1_555 1_555
C9 C8 1_555 1_555
H6 C9 1_555 1_555
C10 N2 1_555 1_555
H7 C10 1_555 1_555
C11 C4 1_555 1_555
C12 C7 1_555 1_555
C13 N3 1_555 1_555
C14 N4 1_555 1_555
C15 C13 1_555 1_555
C16 O3 1_555 1_555
C17 N5 1_555 1_555
H8 C17 1_555 1_555
C18 C17 1_555 1_555
H9 C18 1_555 1_555
C19 C18 1_555 1_555
H10 C19 1_555 1_555
C20 C19 1_555 1_555
C21 N5 1_555 1_555
C22 N6 1_555 1_555
C23 C22 1_555 1_555
C24 C23 1_555 1_555
H11 C24 1_555 1_555
C25 C24 1_555 1_555
H12 C25 1_555 1_555
C26 N6 1_555 1_555
H13 C26 1_555 1_555
C27 C20 1_555 1_555
C28 C23 1_555 1_555
C29 N7 1_555 1_555
C30 N8 1_555 1_555
C31 C29 1_555 1_555
C32 O7 1_555 1_555
O9 Tb1 1_555 1_555
H14 O9 1_555 1_555
H15 O9 1_555 1_555
O10 Tb1 1_555 1_555
H16 O10 1_555 1_555
H17 O10 1_555 1_555
O11 H18 1_555 1_555
H19 O11 1_555 1_555
O12 H20 1_555 1_555
H21 O12 1_555 1_555
Tb1A O8 1_555 1_555
Tb1C O5 1_555 1_555
O5C Tb1 1_555 1_555
O6C Tb1 1_555 1_555
O8A Tb1 1_555 1_555
O6 Tb1C 1_555 1_555
C4 C5 1_555 1_555
C9 C10 1_555 1_555
C11 C12 1_555 1_555
C13 C14 1_555 1_555
C14 C16 1_555 1_555
C20 C21 1_555 1_555
C21 C22 1_555 1_555
C25 C26 1_555 1_555
C27 C28 1_555 1_555
C29 C30 1_555 1_555
C30 C32 1_555 1_555

#END
