
#######################################################################
#
#                 Cambridge Crystallographic Data Centre
#                                CCDC 
#
#######################################################################
#
# If this CIF has been generated from an entry in the Cambridge 
# Structural Database, then it will include bibliographic, chemical, 
# crystal, experimental, refinement or atomic coordinate data resulting 
# from the CCDC's data processing and validation procedures.
#
#######################################################################

data_TUCPAJ
_symmetry_cell_setting           monoclinic
_symmetry_space_group_name_H-M   'P 21/c'
_symmetry_Int_Tables_number      14
_space_group_name_Hall           '-P 2ybc'
loop_
_symmetry_equiv_pos_site_id
_symmetry_equiv_pos_as_xyz
1 x,y,z
2 -x,1/2+y,1/2-z
3 -x,-y,-z
4 x,1/2-y,1/2+z
_cell_length_a                   9.2012(8)
_cell_length_b                   22.011(3)
_cell_length_c                   22.395(3)
_cell_angle_alpha                90
_cell_angle_beta                 91.260(2)
_cell_angle_gamma                90
_cell_volume                     4534.51
loop_
_atom_site_label
_atom_site_type_symbol
_atom_site_fract_x
_atom_site_fract_y
_atom_site_fract_z
Gd1 Gd 0.61936(5) 0.54379(2) 0.74920(2)
Gd2 Gd 0.33908(5) 0.739377(19) 0.31921(2)
N1 N 0.5223(8) 0.5772(3) 0.4293(3)
N2 N 0.2440(8) 0.6071(3) 0.4707(3)
N3 N 0.6874(8) 0.5551(3) 0.6350(3)
N4 N 0.4155(8) 0.5788(3) 0.6736(3)
N5 N 0.6078(7) 0.4136(3) 1.0461(3)
N6 N 0.8264(8) 0.5019(3) 1.0574(3)
N7 N 0.5594(8) 0.4641(3) 0.8360(3)
N8 N 0.7163(8) 0.5670(3) 0.8561(3)
N9 N 0.7880(7) 0.7239(3) 0.5823(3)
N10 N 0.5117(7) 0.7289(3) 0.6302(3)
N11 N 0.5658(7) 0.7237(3) 0.3852(3)
N12 N 0.3076(8) 0.7491(3) 0.4320(3)
O1 O 0.4729(6) 0.5403(3) 0.3026(2)
O2 O 0.4297(6) 0.6397(3) 0.2991(2)
O3 O 0.1552(6) 0.6706(3) 0.3411(3)
O4 O 0.0455(8) 0.5861(3) 0.3696(3)
O5 O 0.5800(6) 0.4302(2) 1.1925(3)
O6 O 0.6080(6) 0.3379(3) 1.1534(3)
O7 O 0.9048(6) 0.4209(3) 1.1860(3)
O8 O 0.9552(8) 0.5166(3) 1.1681(3)
O9 O 1.0137(7) 0.7540(3) 0.6574(3)
O10 O 0.8975(7) 0.7104(3) 0.7326(3)
O11 O 0.6195(6) 0.6500(2) 0.7451(3)
O12 O 0.5346(6) 0.7443(2) 0.7569(2)
O13 O 0.8081(6) 0.4649(2) 0.7557(3)
H1 H 0.7977 0.4463 0.7886
H2 H 0.8897 0.4830 0.7579
O14 O 0.8625(6) 0.5860(2) 0.7404(2)
H3 H 0.9173 0.5741 0.7691
H4 H 0.8599 0.6246 0.7404
O15 O 0.2578(6) 0.7326(3) 0.2186(3)
H5 H 0.1704 0.7446 0.2139
H6 H 0.3127 0.7521 0.1953
O16 O 0.1129(6) 0.7961(2) 0.3160(3)
H7 H 0.1293 0.8341 0.3147
H8 H 0.0611 0.7861 0.2857
C1 C 0.4421(9) 0.5900(4) 0.3249(4)
C2 C 0.4144(10) 0.5914(4) 0.3930(4)
C3 C 0.2738(10) 0.6065(4) 0.4132(4)
C4 C 0.1475(10) 0.6217(4) 0.3707(4)
C5 C 0.4958(10) 0.5803(4) 0.4891(4)
C6 C 0.3553(10) 0.5960(4) 0.5092(4)
C7 C 0.8187(10) 0.5424(4) 0.6155(4)
H11 H 0.8911 0.5337 0.6438
C8 C 0.8554(9) 0.5411(4) 0.5570(4)
H12 H 0.9495 0.5310 0.5464
C9 C 0.7530(9) 0.5547(4) 0.5142(4)
H13 H 0.7770 0.5553 0.4741
C10 C 0.6111(9) 0.5679(4) 0.5317(4)
C11 C 0.5839(9) 0.5674(4) 0.5931(4)
C12 C 0.4386(10) 0.5814(4) 0.6128(4)
C13 C 0.3280(10) 0.5959(4) 0.5717(4)
C14 C 0.1947(10) 0.6132(4) 0.5933(4)
H14 H 0.1208 0.6258 0.5672
C15 C 0.1728(10) 0.6116(4) 0.6524(4)
H15 H 0.0832 0.6232 0.6671
C16 C 0.2821(10) 0.5931(4) 0.6912(4)
H16 H 0.2620 0.5903 0.7316
C17 C 0.6177(10) 0.3946(4) 1.1533(4)
C18 C 0.6774(9) 0.4244(4) 1.0980(4)
C19 C 0.7939(9) 0.4660(4) 1.1021(4)
C20 C 0.8930(10) 0.4681(4) 1.1574(4)
C21 C 0.6480(9) 0.4479(4) 0.9988(4)
C22 C 0.7520(9) 0.4940(4) 1.0061(4)
C23 C 0.4622(10) 0.4193(4) 0.8291(4)
H17 H 0.4245 0.4115 0.7910
C24 C 0.4151(10) 0.3842(4) 0.8760(4)
H18 H 0.3443 0.3547 0.8693
C25 C 0.4720(10) 0.3927(4) 0.9312(4)
H19 H 0.4419 0.3687 0.9628
C26 C 0.5760(10) 0.4377(4) 0.9408(4)
C27 C 0.6146(10) 0.4730(4) 0.8919(4)
C28 C 0.7046(10) 0.5273(4) 0.9014(4)
C29 C 0.7755(9) 0.5374(4) 0.9576(4)
C30 C 0.8513(10) 0.5909(4) 0.9664(4)
H20 H 0.8982 0.5988 1.0028
C31 C 0.8563(10) 0.6312(4) 0.9220(4)
H21 H 0.9055 0.6678 0.9274
C32 C 0.7865(10) 0.6178(4) 0.8671(4)
H22 H 0.7904 0.6466 0.8368
C33 C 0.9050(10) 0.7305(4) 0.6803(4)
C34 C 0.7717(9) 0.7218(4) 0.6413(4)
C35 C 0.6298(10) 0.7198(4) 0.6643(4)
C36 C 0.5930(9) 0.7030(4) 0.7283(4)
C37 C 0.6685(10) 0.7260(4) 0.5477(4)
C38 C 0.5293(9) 0.7337(4) 0.5710(4)
C39 C 0.6940(10) 0.7082(4) 0.3623(4)
H23 H 0.6993 0.7035 0.3211
C40 C 0.8180(10) 0.6988(4) 0.3964(4)
H24 H 0.9047 0.6892 0.3780
C41 C 0.8144(10) 0.7035(4) 0.4569(4)
H25 H 0.8969 0.6956 0.4803
C42 C 0.6837(9) 0.7204(4) 0.4830(4)
C43 C 0.5606(9) 0.7288(4) 0.4455(4)
C44 C 0.4192(9) 0.7424(4) 0.4709(4)
C45 C 0.4052(9) 0.7454(4) 0.5325(4)
C46 C 0.2704(9) 0.7603(4) 0.5550(4)
H26 H 0.2571 0.7635 0.5959
C47 C 0.1557(10) 0.7703(4) 0.5148(4)
H27 H 0.0650 0.7822 0.5281
C48 C 0.1796(10) 0.7620(4) 0.4543(4)
H28 H 0.1007 0.7657 0.4279
Gd1B Gd 0.38064(5) 0.45621(2) 0.25080(2)
Gd1B_2 Gd 0.38064(5) 0.45621(2) 1.25080(2)
Gd2A Gd 0.66092(5) 0.239377(19) 1.18079(2)
Gd2C Gd 0.33908(5) 0.760623(19) 0.81921(2)
O1B O 0.5271(6) 0.4597(3) 0.6974(2)
O5B O 0.4200(6) 0.5698(2) 0.8075(3)
O6A O 0.3920(6) 0.8379(3) 0.3466(3)
O12C O 0.5346(6) 0.7557(2) 0.2569(2)
O17 O 0.9899(12) 0.3761(3) 0.9017(4)
H9 H 0.9902 0.3432 0.8818
H10 H 1.0063 0.4055 0.8782
loop_
_geom_bond_atom_site_label_1
_geom_bond_atom_site_label_2
_geom_bond_site_symmetry_1
_geom_bond_site_symmetry_2
Gd1 N3 1_555 1_555
Gd2 N11 1_555 1_555
N1 C2 1_555 1_555
N2 C3 1_555 1_555
N3 C7 1_555 1_555
N4 Gd1 1_555 1_555
N5 C18 1_555 1_555
N6 C19 1_555 1_555
N7 Gd1 1_555 1_555
N8 Gd1 1_555 1_555
N9 C34 1_555 1_555
N10 C35 1_555 1_555
N11 C39 1_555 1_555
N12 Gd2 1_555 1_555
O1 C1 1_555 1_555
O2 Gd2 1_555 1_555
O3 Gd2 1_555 1_555
O4 C4 1_555 1_555
O5 C17 1_555 1_555
O6 C17 1_555 1_555
O7 C20 1_555 1_555
O8 C20 1_555 1_555
O9 C33 1_555 1_555
O10 C33 1_555 1_555
O11 Gd1 1_555 1_555
O12 C36 1_555 1_555
O13 Gd1 1_555 1_555
H1 O13 1_555 1_555
H2 O13 1_555 1_555
O14 Gd1 1_555 1_555
H3 O14 1_555 1_555
H4 O14 1_555 1_555
O15 Gd2 1_555 1_555
H5 O15 1_555 1_555
H6 O15 1_555 1_555
O16 Gd2 1_555 1_555
H7 O16 1_555 1_555
H8 O16 1_555 1_555
O17 H9 1_555 1_555
H10 O17 1_555 1_555
C1 O2 1_555 1_555
C2 C1 1_555 1_555
C3 C2 1_555 1_555
C4 O3 1_555 1_555
C5 N1 1_555 1_555
C6 N2 1_555 1_555
C7 H11 1_555 1_555
C8 C7 1_555 1_555
H12 C8 1_555 1_555
C9 C8 1_555 1_555
H13 C9 1_555 1_555
C10 C5 1_555 1_555
C11 N3 1_555 1_555
C12 N4 1_555 1_555
C13 C6 1_555 1_555
C14 C13 1_555 1_555
H14 C14 1_555 1_555
C15 C14 1_555 1_555
H15 C15 1_555 1_555
C16 N4 1_555 1_555
H16 C16 1_555 1_555
C17 C18 1_555 1_555
C18 C19 1_555 1_555
C19 C20 1_555 1_555
C21 N5 1_555 1_555
C22 N6 1_555 1_555
C23 N7 1_555 1_555
H17 C23 1_555 1_555
C24 C23 1_555 1_555
H18 C24 1_555 1_555
C25 C24 1_555 1_555
H19 C25 1_555 1_555
C26 C21 1_555 1_555
C27 N7 1_555 1_555
C28 N8 1_555 1_555
C29 C22 1_555 1_555
C30 C29 1_555 1_555
H20 C30 1_555 1_555
C31 C30 1_555 1_555
H21 C31 1_555 1_555
C32 N8 1_555 1_555
H22 C32 1_555 1_555
C33 C34 1_555 1_555
C34 C35 1_555 1_555
C35 C36 1_555 1_555
C36 O11 1_555 1_555
C37 N9 1_555 1_555
C38 N10 1_555 1_555
C39 H23 1_555 1_555
C40 C39 1_555 1_555
H24 C40 1_555 1_555
C41 C40 1_555 1_555
H25 C41 1_555 1_555
C42 C37 1_555 1_555
C43 N11 1_555 1_555
C44 N12 1_555 1_555
C45 C38 1_555 1_555
C46 C45 1_555 1_555
H26 C46 1_555 1_555
C47 C46 1_555 1_555
H27 C47 1_555 1_555
C48 N12 1_555 1_555
H28 C48 1_555 1_555
Gd1B O1 1_555 1_555
Gd1B_2 O5 1_555 1_555
Gd2A O6 1_555 1_555
Gd2C O12 1_555 1_555
O1B Gd1 1_555 1_555
O5B Gd1 1_555 1_555
O6A Gd2 1_555 1_555
O12C Gd2 1_555 1_555
C3 C4 1_555 1_555
C5 C6 1_555 1_555
C9 C10 1_555 1_555
C10 C11 1_555 1_555
C11 C12 1_555 1_555
C12 C13 1_555 1_555
C15 C16 1_555 1_555
C21 C22 1_555 1_555
C25 C26 1_555 1_555
C26 C27 1_555 1_555
C27 C28 1_555 1_555
C28 C29 1_555 1_555
C31 C32 1_555 1_555
C37 C38 1_555 1_555
C41 C42 1_555 1_555
C42 C43 1_555 1_555
C43 C44 1_555 1_555
C44 C45 1_555 1_555
C47 C48 1_555 1_555

#END
