
#######################################################################
#
#                 Cambridge Crystallographic Data Centre
#                                CCDC 
#
#######################################################################
#
# If this CIF has been generated from an entry in the Cambridge 
# Structural Database, then it will include bibliographic, chemical, 
# crystal, experimental, refinement or atomic coordinate data resulting 
# from the CCDC's data processing and validation procedures.
#
#######################################################################

data_TUCQEO
_symmetry_cell_setting           monoclinic
_symmetry_space_group_name_H-M   'P 2/n'
_symmetry_Int_Tables_number      13
_space_group_name_Hall           '-P 2yac'
loop_
_symmetry_equiv_pos_site_id
_symmetry_equiv_pos_as_xyz
1 x,y,z
2 1/2-x,y,1/2-z
3 -x,-y,-z
4 1/2+x,-y,1/2+z
_cell_length_a                   10.709(2)
_cell_length_b                   6.7530(14)
_cell_length_c                   16.268(3)
_cell_angle_alpha                90
_cell_angle_beta                 108.675(3)
_cell_angle_gamma                90
_cell_volume                     1114.53
loop_
_atom_site_label
_atom_site_type_symbol
_atom_site_fract_x
_atom_site_fract_y
_atom_site_fract_z
Pb1 Pb -0.2500 0.79680(6) 0.2500
Pb2 Pb 0.13532(3) 0.70536(4) 0.41400(2)
S1 S -0.1281(2) 1.4299(3) 0.38088(15)
S2 S 0.1883(3) 0.0758(3) 0.55869(16)
O1 O -0.0272(7) 0.6970(7) 0.2331(5)
O2 O 0.1439(5) 0.5042(8) 0.2951(3)
O3 O 0.2826(5) -0.0054(8) 0.1622(4)
O4 O 0.1422(6) -0.2121(8) 0.0753(4)
N1 N -0.0893(8) 1.1078(11) 0.2822(6)
N2 N 0.2655(8) 0.3926(12) 0.4765(5)
N3 N 0.1000(8) 0.2489(9) 0.1718(5)
H1 H 0.1755 0.2917 0.1647
H2 H 0.1188 0.2109 0.2274
C1 C 0.0444(8) 0.5496(11) 0.2330(6)
C2 C 0.0077(8) 0.4153(11) 0.1561(5)
H3 H -0.0811 0.3661 0.1454
H4 H 0.0100 0.4880 0.1051
C3 C 0.0549(8) 0.0767(11) 0.1168(6)
H5 H 0.0119 0.1187 0.0574
H6 H -0.0087 0.0038 0.1361
C4 C 0.1701(9) -0.0550(11) 0.1208(6)
C5 C -0.1036(9) 1.2415(12) 0.3236(6)
C6 C 0.2334(8) 0.2619(11) 0.5100(6)
Pb2A Pb -0.63532(3) 0.70536(4) 0.08600(2)
Pb2A_2 Pb 0.36468(3) -0.29464(4) 0.08600(2)
Pb2_2 Pb -0.86468(3) -0.29464(4) 0.41400(2)
S1A S -0.3719(2) 1.4299(3) 0.11912(15)
S2A S -0.6883(3) 0.0758(3) -0.05869(16)
O1A O -0.4728(7) 0.6970(7) 0.2669(5)
O2A O -0.6439(5) 0.5042(8) 0.2049(3)
O3A O -0.7826(5) -0.0054(8) 0.3378(4)
O3A_2 O 0.2174(5) 0.9946(8) 0.3378(4)
O3_2 O -0.7174(5) 0.9946(8) 0.1622(4)
O4A O -0.6422(6) -0.2121(8) 0.4247(4)
O4A_2 O 0.3578(6) 0.7879(8) 0.4247(4)
O4_2 O -0.8578(6) 0.7879(8) 0.0753(4)
N1A N -0.4107(8) 1.1078(11) 0.2178(6)
N2A N -0.7655(8) 0.3926(12) 0.0235(5)
N3A N -0.6000(8) 0.2489(9) 0.3282(5)
H1A H -0.6755 0.2917 0.3353
H2A H -0.6188 0.2109 0.2726
C1A C -0.5444(8) 0.5496(11) 0.2670(6)
C2A C -0.5077(8) 0.4153(11) 0.3439(5)
H3A H -0.4189 0.3661 0.3546
H4A H -0.5100 0.4880 0.3949
C3A C -0.5549(8) 0.0767(11) 0.3832(6)
H5A H -0.5119 0.1187 0.4426
H6A H -0.4913 0.0038 0.3639
C4A C -0.6701(9) -0.0550(11) 0.3792(6)
C5A C -0.3964(9) 1.2415(12) 0.1764(6)
C6A C -0.7334(8) 0.2619(11) -0.0100(6)
loop_
_geom_bond_atom_site_label_1
_geom_bond_atom_site_label_2
_geom_bond_site_symmetry_1
_geom_bond_site_symmetry_2
Pb1 O1 1_555 1_555
Pb2 O1 1_555 1_555
S1 C5 1_555 1_555
S2 C6 1_555 1_555
O1 C1 1_555 1_555
O2 Pb2 1_555 1_555
O3 C4 1_555 1_555
O4 C4 1_555 1_555
N1 Pb1 1_555 1_555
N2 Pb2 1_555 1_555
N3 H1 1_555 1_555
H2 N3 1_555 1_555
C1 O2 1_555 1_555
C2 N3 1_555 1_555
H3 C2 1_555 1_555
H4 C2 1_555 1_555
C3 N3 1_555 1_555
H5 C3 1_555 1_555
H6 C3 1_555 1_555
C4 C3 1_555 1_555
C5 N1 1_555 1_555
C6 N2 1_555 1_555
Pb2A O1A 1_555 1_555
Pb2A_2 O3 1_555 1_555
Pb2_2 O3A 1_555 1_555
S1A C5A 1_555 1_555
S2A C6A 1_555 1_555
O1A Pb1 1_555 1_555
O2A Pb2A 1_555 1_555
O3A C4A 1_555 1_555
O3A_2 Pb2 1_555 1_555
O3_2 Pb2A 1_555 1_555
O4A Pb2_2 1_555 1_555
O4A_2 Pb2 1_555 1_555
O4_2 Pb2A 1_555 1_555
N1A Pb1 1_555 1_555
N2A Pb2A 1_555 1_555
N3A H1A 1_555 1_555
H2A N3A 1_555 1_555
C1A O1A 1_555 1_555
C2A N3A 1_555 1_555
H3A C2A 1_555 1_555
H4A C2A 1_555 1_555
C3A N3A 1_555 1_555
H5A C3A 1_555 1_555
H6A C3A 1_555 1_555
C4A O4A 1_555 1_555
C5A N1A 1_555 1_555
C6A N2A 1_555 1_555
O4 Pb2A_2 1_555 1_555
C1 C2 1_555 1_555
O2A C1A 1_555 1_555
C1A C2A 1_555 1_555
C3A C4A 1_555 1_555

#END
