
#######################################################################
#
#                 Cambridge Crystallographic Data Centre
#                                CCDC 
#
#######################################################################
#
# If this CIF has been generated from an entry in the Cambridge 
# Structural Database, then it will include bibliographic, chemical, 
# crystal, experimental, refinement or atomic coordinate data resulting 
# from the CCDC's data processing and validation procedures.
#
#######################################################################

data_TUCTIW
_symmetry_cell_setting           triclinic
_symmetry_space_group_name_H-M   'P -1'
_symmetry_Int_Tables_number      2
_space_group_name_Hall           '-P 1'
loop_
_symmetry_equiv_pos_site_id
_symmetry_equiv_pos_as_xyz
1 x,y,z
2 -x,-y,-z
_cell_length_a                   13.0328(5)
_cell_length_b                   14.6898(5)
_cell_length_c                   16.6176(8)
_cell_angle_alpha                94.303(3)
_cell_angle_beta                 108.155(4)
_cell_angle_gamma                108.110(3)
_cell_volume                     2820.77
loop_
_atom_site_label
_atom_site_type_symbol
_atom_site_fract_x
_atom_site_fract_y
_atom_site_fract_z
C1 C 0.4673(15) -0.3422(10) 0.5591(9)
C2 C 0.5055(10) -0.2666(8) 0.6363(7)
C3 C 0.4523(11) -0.1985(10) 0.6409(8)
H1 H 0.3908 -0.1998 0.5931
C4 C 0.4877(10) -0.1294(8) 0.7141(7)
H2 H 0.4500 -0.0853 0.7154
C5 C 0.5803(8) -0.1258(7) 0.7866(6)
C6 C 0.6325(10) -0.1925(8) 0.7842(7)
H3 H 0.6927 -0.1907 0.8332
C7 C 0.5998(12) -0.2625(8) 0.7124(8)
H4 H 0.6378 -0.3067 0.7127
C8 C 0.6254(8) -0.0494(8) 0.8683(7)
H5 H 0.6580 -0.0757 0.9178
H6 H 0.6859 0.0072 0.8651
C9 C 0.4002(10) -0.1806(8) 0.8961(7)
H7 H 0.4465 -0.2171 0.8937
C10 C 0.2943(12) -0.2196(10) 0.9040(8)
H8 H 0.2671 -0.2856 0.9057
C11 C 0.2263(12) -0.1658(9) 0.9095(7)
H9 H 0.1568 -0.1963 0.9172
C12 C 0.2582(10) -0.0650(8) 0.9040(7)
H10 H 0.2108 -0.0295 0.9057
C13 C 0.3647(8) -0.0237(7) 0.8959(6)
C14 C 0.4333(8) -0.0804(7) 0.8917(6)
C15 C 0.5181(7) 0.0682(7) 0.8762(5)
C16 C 0.6032(8) 0.1577(7) 0.8631(6)
H11 H 0.6608 0.1944 0.9183
H12 H 0.6422 0.1384 0.8275
C17 C 0.2660(14) -0.1830(18) 0.3487(14)
C18 C 0.2787(14) -0.0803(13) 0.4000(11)
C19 C 0.276(2) -0.0027(17) 0.3634(12)
H13 H 0.2629 -0.0091 0.3045
C20 C 0.2934(17) 0.0872(14) 0.4090(10)
H14 H 0.2873 0.1385 0.3805
C21 C 0.3192(16) 0.0994(10) 0.4961(9)
C22 C 0.282(2) 0.0069(12) 0.5264(12)
H15 H 0.2738 0.0098 0.5799
C23 C 0.261(2) -0.0785(13) 0.4831(12)
H16 H 0.2369 -0.1354 0.5038
C24 C 0.3432(17) 0.1974(10) 0.5456(7)
H17 H 0.4255 0.2334 0.5641
H18 H 0.3045 0.2321 0.5065
C25 C 0.2109(14) 0.2123(10) 0.6186(9)
C26 C 0.1175(19) 0.2244(15) 0.5561(13)
H19 H 0.1188 0.2221 0.5003
C27 C 0.038(3) 0.237(2) 0.567(2)
H20 H -0.0220 0.2417 0.5214
C28 C 0.0379(16) 0.2451(14) 0.6561(19)
H21 H -0.0232 0.2579 0.6659
C29 C 0.1268(12) 0.2343(10) 0.7295(12)
H22 H 0.1267 0.2375 0.7856
C30 C 0.2128(11) 0.2182(8) 0.7024(9)
C31 C 0.3693(10) 0.1972(7) 0.7006(7)
C32 C 0.4834(10) 0.1838(8) 0.7259(6)
H23 H 0.4728 0.1156 0.7105
H24 H 0.5307 0.2216 0.6965
C33 C 1.1718(12) 0.5121(13) 1.2434(11)
C34 C 1.0663(9) 0.5162(10) 1.1758(11)
C35 C 0.9957(9) 0.4316(9) 1.1127(8)
H25 H 1.0133 0.3750 1.1150
C36 C 0.9009(9) 0.4331(8) 1.0481(7)
H26 H 0.8528 0.3760 1.0082
C37 C 0.8742(9) 0.5186(8) 1.0403(8)
C38 C 0.9503(10) 0.6035(9) 1.1011(10)
H27 H 0.9370 0.6619 1.0971
C39 C 1.0440(10) 0.6006(11) 1.1660(10)
H28 H 1.0940 0.6579 1.2048
C40 C 0.7688(10) 0.5165(8) 0.9722(8)
H29 H 0.7642 0.5812 0.9764
H30 H 0.7732 0.4988 0.9162
C41 C 0.6219(7) 0.4603(6) 1.0426(5)
C42 C 0.6598(9) 0.5358(7) 1.1130(6)
H31 H 0.7251 0.5908 1.1240
C43 C 0.5930(9) 0.5233(7) 1.1663(6)
H32 H 0.6145 0.5718 1.2140
C44 C 0.4985(9) 0.4430(7) 1.1502(7)
H33 H 0.4573 0.4384 1.1874
C45 C 0.4597(8) 0.3667(6) 1.0803(6)
H34 H 0.3944 0.3118 1.0701
C46 C 0.5246(7) 0.3778(6) 1.0272(5)
C47 C 0.5949(7) 0.3610(6) 0.9262(5)
C48 C 0.6058(9) 0.3209(7) 0.8449(6)
H35 H 0.5771 0.3536 0.7991
H36 H 0.6862 0.3319 0.8539
N1 N 0.5294(6) -0.0195(6) 0.8789(5)
N2 N 0.4202(7) 0.0685(6) 0.8850(5)
N3 N 0.3110(10) 0.1997(7) 0.6169(6)
N4 N 0.3145(7) 0.2053(6) 0.7528(6)
N5 N 0.6651(6) 0.4475(5) 0.9786(5)
N6 N 0.5096(6) 0.3157(5) 0.9517(4)
N7 N 0.5400(7) 0.2178(6) 0.8210(5)
O1 O 0.3841(11) -0.3448(11) 0.4979(9)
O2 O 0.5197(15) -0.3947(9) 0.5535(7)
O3 O 0.2574(16) -0.1807(13) 0.2729(12)
O4 O 0.2335(13) -0.2526(9) 0.3877(9)
H37 H 0.2003 -0.3044 0.3529
O5 O 1.1989(9) 0.4406(10) 1.2407(8)
O6 O 1.2280(9) 0.5883(10) 1.3055(8)
Cl1 Cl 0.2352(2) 0.1682(3) 0.9326(2)
Cl2 Cl 0.5040(3) -0.4227(2) 0.33998(19)
Zn1 Zn 0.37996(10) 0.19248(9) 0.87781(8)
Pb1 Pb 0.34871(4) -0.49665(3) 0.40695(3)
O7 O 0.179(2) -0.570(2) 0.4843(18)
N8 N 0.178(3) -0.460(3) 0.588(2)
C49 C 0.138(2) -0.393(2) 0.540(2)
H38 H 0.1973 -0.3540 0.5214
H39 H 0.1180 -0.3522 0.5753
H40 H 0.0708 -0.4294 0.4899
C50 C 0.216(4) -0.418(3) 0.696(3)
H41 H 0.2662 -0.4484 0.7289
H42 H 0.1472 -0.4342 0.7108
H43 H 0.2541 -0.3487 0.7092
C51 C 0.212(3) -0.529(3) 0.564(3)
O2A O 0.4803(15) -0.6053(9) 0.4465(7)
O5_2 O 0.1989(9) -0.5594(10) 0.2407(8)
O6_2 O 0.2280(9) -0.4117(10) 0.3055(8)
Pb1_2 Pb 1.34871(4) 0.50335(3) 1.40695(3)
Pb1A Pb 0.65129(4) -0.50335(3) 0.59305(3)
loop_
_geom_bond_atom_site_label_1
_geom_bond_atom_site_label_2
_geom_bond_site_symmetry_1
_geom_bond_site_symmetry_2
C1 C2 1_555 1_555
C2 C3 1_555 1_555
C3 H1 1_555 1_555
C4 C3 1_555 1_555
H2 C4 1_555 1_555
C5 C4 1_555 1_555
C6 C5 1_555 1_555
H3 C6 1_555 1_555
C7 C2 1_555 1_555
H4 C7 1_555 1_555
C8 C5 1_555 1_555
H5 C8 1_555 1_555
H6 C8 1_555 1_555
C9 H7 1_555 1_555
C10 C9 1_555 1_555
H8 C10 1_555 1_555
C11 C10 1_555 1_555
H9 C11 1_555 1_555
C12 C11 1_555 1_555
H10 C12 1_555 1_555
C13 C12 1_555 1_555
C14 C9 1_555 1_555
C15 C16 1_555 1_555
C16 H11 1_555 1_555
H12 C16 1_555 1_555
C17 C18 1_555 1_555
C18 C19 1_555 1_555
C19 H13 1_555 1_555
C20 C19 1_555 1_555
H14 C20 1_555 1_555
C21 C20 1_555 1_555
C22 C21 1_555 1_555
H15 C22 1_555 1_555
C23 C18 1_555 1_555
H16 C23 1_555 1_555
C24 C21 1_555 1_555
H17 C24 1_555 1_555
H18 C24 1_555 1_555
C25 C26 1_555 1_555
C26 H19 1_555 1_555
C27 C26 1_555 1_555
H20 C27 1_555 1_555
C28 C27 1_555 1_555
H21 C28 1_555 1_555
C29 C28 1_555 1_555
H22 C29 1_555 1_555
C30 C25 1_555 1_555
C31 C32 1_555 1_555
C32 H23 1_555 1_555
H24 C32 1_555 1_555
C33 C34 1_555 1_555
C34 C35 1_555 1_555
C35 H25 1_555 1_555
C36 C35 1_555 1_555
H26 C36 1_555 1_555
C37 C36 1_555 1_555
C38 C37 1_555 1_555
H27 C38 1_555 1_555
C39 C34 1_555 1_555
H28 C39 1_555 1_555
C40 C37 1_555 1_555
H29 C40 1_555 1_555
H30 C40 1_555 1_555
C41 C42 1_555 1_555
C42 H31 1_555 1_555
C43 C42 1_555 1_555
H32 C43 1_555 1_555
C44 C43 1_555 1_555
H33 C44 1_555 1_555
C45 C44 1_555 1_555
H34 C45 1_555 1_555
C46 C41 1_555 1_555
C47 C48 1_555 1_555
C48 H35 1_555 1_555
H36 C48 1_555 1_555
N1 C8 1_555 1_555
N2 C13 1_555 1_555
N3 C24 1_555 1_555
N4 C30 1_555 1_555
N5 C40 1_555 1_555
N6 C46 1_555 1_555
N7 C16 1_555 1_555
O1 C1 1_555 1_555
O2 C1 1_555 1_555
O3 C17 1_555 1_555
O4 C17 1_555 1_555
H37 O4 1_555 1_555
O5 C33 1_555 1_555
O6 C33 1_555 1_555
Cl1 Zn1 1_555 1_555
Cl2 Pb1 1_555 1_555
Zn1 N2 1_555 1_555
Pb1 O1 1_555 1_555
O7 Pb1 1_555 1_555
N8 C49 1_555 1_555
C49 H38 1_555 1_555
H39 C49 1_555 1_555
H40 C49 1_555 1_555
C50 N8 1_555 1_555
H41 C50 1_555 1_555
H42 C50 1_555 1_555
H43 C50 1_555 1_555
C51 O7 1_555 1_555
O2A Pb1 1_555 1_555
O5_2 Pb1 1_555 1_555
O6_2 Pb1 1_555 1_555
Pb1_2 O5 1_555 1_555
Pb1A O2 1_555 1_555
C6 C7 1_555 1_555
C13 C14 1_555 1_555
C14 N1 1_555 1_555
C15 N1 1_555 1_555
C15 N2 1_555 1_555
C22 C23 1_555 1_555
C25 N3 1_555 1_555
C29 C30 1_555 1_555
C31 N3 1_555 1_555
C31 N4 1_555 1_555
C32 N7 1_555 1_555
C38 C39 1_555 1_555
C41 N5 1_555 1_555
C45 C46 1_555 1_555
C47 N5 1_555 1_555
C47 N6 1_555 1_555
C48 N7 1_555 1_555
N4 Zn1 1_555 1_555
N6 Zn1 1_555 1_555
N7 Zn1 1_555 1_555
O2 Pb1 1_555 1_555
O6 Pb1_2 1_555 1_555
N8 C51 1_555 1_555
O2A Pb1A 1_555 1_555

#END
