
#######################################################################
#
#                 Cambridge Crystallographic Data Centre
#                                CCDC 
#
#######################################################################
#
# If this CIF has been generated from an entry in the Cambridge 
# Structural Database, then it will include bibliographic, chemical, 
# crystal, experimental, refinement or atomic coordinate data resulting 
# from the CCDC's data processing and validation procedures.
#
#######################################################################

data_TUCYUL
_symmetry_cell_setting           monoclinic
_symmetry_space_group_name_H-M   'C c'
_symmetry_Int_Tables_number      9
_space_group_name_Hall           'C -2yc'
loop_
_symmetry_equiv_pos_site_id
_symmetry_equiv_pos_as_xyz
1 x,y,z
2 x,-y,1/2+z
3 1/2+x,1/2+y,z
4 1/2+x,1/2-y,1/2+z
_cell_length_a                   16.465(5)
_cell_length_b                   11.149(3)
_cell_length_c                   8.939(3)
_cell_angle_alpha                90
_cell_angle_beta                 107.93(1)
_cell_angle_gamma                90
_cell_volume                     1561.22
loop_
_atom_site_label
_atom_site_type_symbol
_atom_site_fract_x
_atom_site_fract_y
_atom_site_fract_z
C1 C 0.0778(5) 0.8656(8) 0.0941(9)
C2 C 0.1466(6) 0.8403(8) 0.2490(9)
C3 C 0.0488(5) 0.4954(6) 0.0357(8)
C4 C -0.0460(6) 0.5191(8) -0.0483(10)
C5 C -0.0812(6) 0.8527(9) 0.4258(10)
C6 C -0.1486(6) 0.8343(8) 0.2640(10)
O1 O 0.0908(5) 0.9350(7) -0.0026(9)
O2 O 0.0079(4) 0.8037(6) 0.0785(7)
O3 O 0.2172(4) 0.8900(7) 0.2872(8)
O4 O 0.1229(4) 0.7592(5) 0.3356(7)
O5 O 0.0799(4) 0.5500(6) 0.1616(6)
O6 O 0.0835(4) 0.4219(6) -0.0283(6)
O7 O -0.0820(4) 0.5892(5) 0.0222(7)
O8 O -0.0786(4) 0.4623(6) -0.1758(7)
O9 O -0.0137(4) 0.7867(6) 0.4420(7)
O10 O -0.0914(5) 0.9184(7) 0.5249(8)
O11 O -0.1278(4) 0.7587(5) 0.1780(6)
O12 O -0.2134(4) 0.8922(7) 0.2295(8)
Zr1 Zr 0.0000 0.67782(3) 0.2500
O6A O 0.0835(4) 0.5781(6) 0.4717(6)
O8A O -0.0786(4) 0.5377(6) 0.3242(7)
Zr1A Zr 0.0000 0.32218(3) -0.2500
K1 K 0.25568(15) 0.9415(2) 0.6025(3)
K2 K -0.2577(2) 0.9411(2) -0.0868(3)
C7 C 0.1329(3) 1.2502(5) 0.3049(7)
C8 C 0.2182(4) 1.2348(5) 0.4326(7)
O13 O 0.1274(6) 1.1804(7) 0.1859(9)
H1 H 0.0814(6) 1.1911(7) 0.1192(9)
O14 O 0.0802(3) 1.3207(4) 0.3170(6)
O15 O 0.2689(5) 1.1578(5) 0.4305(8)
O16 O 0.2267(5) 1.3147(6) 0.5453(8)
H2 H 0.2723(5) 1.3045(6) 0.6126(8)
O17 O -0.1407(7) 1.1894(8) 0.2975(9)
loop_
_geom_bond_atom_site_label_1
_geom_bond_atom_site_label_2
_geom_bond_site_symmetry_1
_geom_bond_site_symmetry_2
C1 C2 1_555 1_555
C2 O3 1_555 1_555
C3 C4 1_555 1_555
C4 O7 1_555 1_555
C5 C6 1_555 1_555
C6 O11 1_555 1_555
O1 C1 1_555 1_555
O2 C1 1_555 1_555
O4 C2 1_555 1_555
O5 C3 1_555 1_555
O6 C3 1_555 1_555
O7 Zr1 1_555 1_555
O8 C4 1_555 1_555
O9 C5 1_555 1_555
O10 C5 1_555 1_555
O11 Zr1 1_555 1_555
O12 C6 1_555 1_555
Zr1 O2 1_555 1_555
C7 C8 1_555 1_555
C8 O15 1_555 1_555
O13 C7 1_555 1_555
H1 O13 1_555 1_555
O14 C7 1_555 1_555
O16 C8 1_555 1_555
H2 O16 1_555 1_555
O6A Zr1 1_555 1_555
O8A Zr1 1_555 1_555
Zr1A O6 1_555 1_555
O4 Zr1 1_555 1_555
O5 Zr1 1_555 1_555
O8 Zr1A 1_555 1_555
O9 Zr1 1_555 1_555

#END
