
#######################################################################
#
#                 Cambridge Crystallographic Data Centre
#                                CCDC 
#
#######################################################################
#
# If this CIF has been generated from an entry in the Cambridge 
# Structural Database, then it will include bibliographic, chemical, 
# crystal, experimental, refinement or atomic coordinate data resulting 
# from the CCDC's data processing and validation procedures.
#
#######################################################################

data_TUDHOP
_symmetry_cell_setting           monoclinic
_symmetry_space_group_name_H-M   'C 2/c'
_symmetry_Int_Tables_number      15
_space_group_name_Hall           '-C 2yn'
loop_
_symmetry_equiv_pos_site_id
_symmetry_equiv_pos_as_xyz
1 x,y,z
2 1/2+x,1/2+y,z
3 -x,y,1/2-z
4 1/2-x,1/2+y,1/2-z
5 -x,-y,-z
6 1/2-x,1/2-y,-z
7 x,-y,1/2+z
8 1/2+x,1/2-y,1/2+z
_cell_length_a                   10.613(2)
_cell_length_b                   15.402(3)
_cell_length_c                   12.928(4)
_cell_angle_alpha                90
_cell_angle_beta                 93.35(3)
_cell_angle_gamma                90
_cell_volume                     2109.62
loop_
_atom_site_label
_atom_site_type_symbol
_atom_site_fract_x
_atom_site_fract_y
_atom_site_fract_z
O1 O 0.4138(2) 0.30353(13) 0.0486(2)
O2 O 0.1599(2) 0.0715(2) -0.1066(2)
O3 O -0.6264(2) 0.13310(14) -0.0818(2)
O4 O -0.5326(2) 0.01283(15) -0.1279(2)
N1 N 0.2466(2) 0.18386(14) 0.1297(2)
N2 N 0.3028(3) 0.0978(2) 0.2575(2)
C1 C 0.4277(3) 0.3779(2) 0.0862(2)
C2 C -0.0604(3) 0.0870(3) -0.1057(5)
C3 C -0.1685(3) 0.1409(3) -0.0830(4)
C4 C -0.2918(3) 0.0912(3) -0.1030(4)
C5 C -0.4063(3) 0.1364(3) -0.0765(4)
C6 C -0.5273(3) 0.0874(2) -0.0979(2)
C7 C 0.1444(3) 0.1652(2) 0.1856(3)
Cu1 Cu 0.2500 0.2500 0.0000
C8 C 0.1790(3) 0.1118(2) 0.2641(3)
C9 C 0.3401(3) 0.1411(2) 0.1760(3)
H1 H -0.7109(54) 0.1051(38) -0.0982(41)
H2 H 0.3380(32) 0.0674(22) 0.2913(26)
H3 H -0.0624(54) 0.0327(41) -0.0805(45)
H4 H -0.0672(44) 0.0773(31) -0.1759(39)
H5 H -0.1594(42) 0.1673(31) -0.0110(38)
H6 H -0.1695(27) 0.1906(21) -0.1272(23)
H7 H -0.2979(42) 0.0859(31) -0.1825(39)
H8 H -0.2974(56) 0.0348(43) -0.0606(49)
H9 H -0.4026(38) 0.1586(28) -0.0069(35)
H10 H -0.3953(65) 0.1901(51) -0.1259(54)
H11 H 0.0711(34) 0.1853(22) 0.1657(27)
H12 H 0.1348(33) 0.0868(23) 0.3209(27)
H13 H 0.4096(32) 0.1412(21) 0.1560(25)
Cu1_2 Cu -0.7500 0.2500 0.0000
O1E O 0.0862(2) 0.19647(13) -0.0486(2)
C1E C 0.0723(3) 0.1221(2) -0.0862(2)
O3E O 0.1264(2) 0.36690(14) 0.0818(2)
H1E H 0.2109(54) 0.3949(38) 0.0982(41)
O3_2 O 0.3736(2) 0.13310(14) -0.0818(2)
N1E N 0.2534(2) 0.31614(14) -0.1297(2)
O2E O 0.3401(2) 0.4285(2) 0.1066(2)
C2E C 0.5604(3) 0.4130(3) 0.1057(5)
H1_2 H 0.2891(54) 0.1051(38) -0.0982(41)
C7E C 0.3556(3) 0.3348(2) -0.1856(3)
C9E C 0.1599(3) 0.3589(2) -0.1760(3)
C3E C 0.6685(3) 0.3591(3) 0.0830(4)
H3E H 0.5624(54) 0.4673(41) 0.0805(45)
H4E H 0.5672(44) 0.4227(31) 0.1759(39)
C8E C 0.3210(3) 0.3882(2) -0.2641(3)
H11E H 0.4289(34) 0.3147(22) -0.1657(27)
N2E N 0.1972(3) 0.4022(2) -0.2575(2)
H13E H 0.0904(32) 0.3588(21) -0.1560(25)
C4E C 0.7918(3) 0.4088(3) 0.1030(4)
H5E H 0.6594(42) 0.3327(31) 0.0110(38)
H6E H 0.6695(27) 0.3094(21) 0.1272(23)
H12E H 0.3652(33) 0.4132(23) -0.3209(27)
H2E H 0.1620(32) 0.4326(22) -0.2913(26)
C5E C 0.9063(3) 0.3636(3) 0.0765(4)
H7E H 0.7979(42) 0.4141(31) 0.1825(39)
H8E H 0.7974(56) 0.4652(43) 0.0606(49)
C6E C 1.0273(3) 0.4126(2) 0.0979(2)
H9E H 0.9026(38) 0.3414(28) 0.0069(35)
H10E H 0.8953(65) 0.3099(51) 0.1259(54)
O3E_2 O 1.1264(2) 0.36690(14) 0.0818(2)
O4E O 1.0326(2) 0.48717(15) 0.1279(2)
Cu1_3 Cu 1.2500 0.2500 0.0000
H1E_2 H 1.2109(54) 0.3949(38) 0.0982(41)
loop_
_geom_bond_atom_site_label_1
_geom_bond_atom_site_label_2
_geom_bond_site_symmetry_1
_geom_bond_site_symmetry_2
O1 C1 1_555 1_555
O2 C1E 1_555 1_555
O3 C6 1_555 1_555
O4 C6 1_555 1_555
N1 C7 1_555 1_555
N2 C8 1_555 1_555
C1 O2E 1_555 1_555
C2 C3 1_555 1_555
C3 C4 1_555 1_555
C4 C5 1_555 1_555
C5 C6 1_555 1_555
C7 C8 1_555 1_555
Cu1 O1 1_555 1_555
C8 H12 1_555 1_555
C9 N1 1_555 1_555
H1 O3 1_555 1_555
H2 N2 1_555 1_555
H3 C2 1_555 1_555
H4 C2 1_555 1_555
H5 C3 1_555 1_555
H6 C3 1_555 1_555
H7 C4 1_555 1_555
H8 C4 1_555 1_555
H9 C5 1_555 1_555
H10 C5 1_555 1_555
H11 C7 1_555 1_555
H13 C9 1_555 1_555
Cu1_2 O3 1_555 1_555
O1E Cu1 1_555 1_555
C1E C2 1_555 1_555
O3E Cu1 1_555 1_555
H1E O3E 1_555 1_555
O3_2 Cu1 1_555 1_555
N1E Cu1 1_555 1_555
C2E C1 1_555 1_555
H1_2 O3_2 1_555 1_555
C7E N1E 1_555 1_555
C9E N1E 1_555 1_555
C3E C2E 1_555 1_555
H3E C2E 1_555 1_555
H4E C2E 1_555 1_555
C8E C7E 1_555 1_555
H11E C7E 1_555 1_555
N2E C9E 1_555 1_555
H13E C9E 1_555 1_555
C4E C3E 1_555 1_555
H5E C3E 1_555 1_555
H6E C3E 1_555 1_555
H12E C8E 1_555 1_555
H2E N2E 1_555 1_555
C5E C4E 1_555 1_555
H7E C4E 1_555 1_555
H8E C4E 1_555 1_555
C6E C5E 1_555 1_555
H9E C5E 1_555 1_555
H10E C5E 1_555 1_555
O3E_2 C6E 1_555 1_555
O4E C6E 1_555 1_555
Cu1_3 O3E_2 1_555 1_555
H1E_2 O3E_2 1_555 1_555
N1 Cu1 1_555 1_555
N2 C9 1_555 1_555
O1E C1E 1_555 1_555
C8E N2E 1_555 1_555

#END
