
#######################################################################
#
#                 Cambridge Crystallographic Data Centre
#                                CCDC 
#
#######################################################################
#
# If this CIF has been generated from an entry in the Cambridge 
# Structural Database, then it will include bibliographic, chemical, 
# crystal, experimental, refinement or atomic coordinate data resulting 
# from the CCDC's data processing and validation procedures.
#
#######################################################################

data_TUDJEI
_symmetry_cell_setting           cubic
_symmetry_space_group_name_H-M   'I -4 3 m'
_symmetry_Int_Tables_number      217
_space_group_name_Hall           'I -4 2 3'
loop_
_symmetry_equiv_pos_site_id
_symmetry_equiv_pos_as_xyz
1 x,y,z
2 1/2+x,1/2+y,1/2+z
3 y,z,x
4 1/2+y,1/2+z,1/2+x
5 z,x,y
6 1/2+z,1/2+x,1/2+y
7 y,-x,-z
8 1/2+y,1/2-x,1/2-z
9 z,-y,-x
10 1/2+z,1/2-y,1/2-x
11 x,-z,-y
12 1/2+x,1/2-z,1/2-y
13 -x,-y,z
14 1/2-x,1/2-y,1/2+z
15 -z,x,-y
16 1/2-z,1/2+x,1/2-y
17 -x,y,-z
18 1/2-x,1/2+y,1/2-z
19 -y,-z,x
20 1/2-y,1/2-z,1/2+x
21 -z,-x,y
22 1/2-z,1/2-x,1/2+y
23 -y,x,-z
24 1/2-y,1/2+x,1/2-z
25 -z,y,-x
26 1/2-z,1/2+y,1/2-x
27 -x,z,-y
28 1/2-x,1/2+z,1/2-y
29 -y,z,-x
30 1/2-y,1/2+z,1/2-x
31 z,y,x
32 1/2+z,1/2+y,1/2+x
33 x,z,y
34 1/2+x,1/2+z,1/2+y
35 y,x,z
36 1/2+y,1/2+x,1/2+z
37 y,-z,-x
38 1/2+y,1/2-z,1/2-x
39 -y,-x,z
40 1/2-y,1/2-x,1/2+z
41 -z,-y,x
42 1/2-z,1/2-y,1/2+x
43 -x,-z,y
44 1/2-x,1/2-z,1/2+y
45 x,-y,-z
46 1/2+x,1/2-y,1/2-z
47 z,-x,-y
48 1/2+z,1/2-x,1/2-y
_cell_length_a                   17.0630(4)
_cell_length_b                   17.0630(4)
_cell_length_c                   17.0630(4)
_cell_angle_alpha                90
_cell_angle_beta                 90
_cell_angle_gamma                90
_cell_volume                     4967.82
loop_
_atom_site_label
_atom_site_type_symbol
_atom_site_fract_x
_atom_site_fract_y
_atom_site_fract_z
C1 C 0.3781(2) 0.0089(4) 0.6219(2)
C2 C 0.3636(3) -0.0940(3) 0.6916(3)
C3 C 0.4104(4) 0.0836(4) 0.5896(4)
N1 N 0.4088(2) -0.0283(2) 0.6836(2)
Zn1 Zn 0.5000 0.0000 0.7500
H1 H 0.3703 -0.1326 0.7296
H2 H 0.4494 0.0719 0.5506
H3 H 0.3691 0.1137 0.5661
C1H C 0.6219(2) -0.0089(4) 0.6219(2)
C2X C 0.3084(3) -0.0940(3) 0.6364(3)
C2L C 0.6364(3) 0.0940(3) 0.6916(3)
C2H C 0.6916(3) 0.0940(3) 0.6364(3)
C3H C 0.5896(4) -0.0836(4) 0.5896(4)
N1X N 0.3164(2) -0.0283(2) 0.5912(2)
N1L N 0.5912(2) 0.0283(2) 0.6836(2)
N1H N 0.6836(2) 0.0283(2) 0.5912(2)
N1G N 0.4717(2) 0.0912(2) 0.8164(2)
N1W N 0.5283(2) -0.0912(2) 0.8164(2)
Zn1E Zn 0.2500 0.0000 0.5000
Zn1H Zn 0.7500 0.0000 0.5000
H1X H 0.2704 -0.1326 0.6297
H1L H 0.6297 0.1326 0.7296
H1H H 0.7296 0.1326 0.6297
H2H H 0.5506 -0.0719 0.5506
H3X H 0.4339 0.1137 0.6309
H3L H 0.6309 -0.1137 0.5661
H3H H 0.5661 -0.1137 0.6309
loop_
_geom_bond_atom_site_label_1
_geom_bond_atom_site_label_2
_geom_bond_site_symmetry_1
_geom_bond_site_symmetry_2
C1 C3 1_555 1_555
C2 N1 1_555 1_555
C3 H2 1_555 1_555
N1 C1 1_555 1_555
Zn1 N1 1_555 1_555
H1 C2 1_555 1_555
H3 C3 1_555 1_555
C1H C3H 1_555 1_555
C2X C2 1_555 1_555
C2L C2H 1_555 1_555
C2H N1H 1_555 1_555
C3H H2H 1_555 1_555
N1X C1 1_555 1_555
N1L Zn1 1_555 1_555
N1H C1H 1_555 1_555
N1G Zn1 1_555 1_555
N1W Zn1 1_555 1_555
Zn1E N1X 1_555 1_555
Zn1H N1H 1_555 1_555
H1X C2X 1_555 1_555
H1L C2L 1_555 1_555
H1H C2H 1_555 1_555
H3X C3 1_555 1_555
H3L C3H 1_555 1_555
H3H C3H 1_555 1_555
C1H N1L 1_555 1_555
C2X N1X 1_555 1_555
C2L N1L 1_555 1_555

#END
