
#######################################################################
#
#                 Cambridge Crystallographic Data Centre
#                                CCDC 
#
#######################################################################
#
# If this CIF has been generated from an entry in the Cambridge 
# Structural Database, then it will include bibliographic, chemical, 
# crystal, experimental, refinement or atomic coordinate data resulting 
# from the CCDC's data processing and validation procedures.
#
#######################################################################

data_TUDKAE
_symmetry_cell_setting           triclinic
_symmetry_space_group_name_H-M   'P -1'
_symmetry_Int_Tables_number      2
_space_group_name_Hall           '-P 1'
loop_
_symmetry_equiv_pos_site_id
_symmetry_equiv_pos_as_xyz
1 x,y,z
2 -x,-y,-z
_cell_length_a                   11.72(1)
_cell_length_b                   9.57(1)
_cell_length_c                   10.69(1)
_cell_angle_alpha                100.42(10)
_cell_angle_beta                 110.81(10)
_cell_angle_gamma                103.55(10)
_cell_volume                     1042.55
loop_
_atom_site_label
_atom_site_type_symbol
_atom_site_fract_x
_atom_site_fract_y
_atom_site_fract_z
C1 C 0.1204(15) -0.0974(19) 0.5451(18)
C2 C 0.0290(17) -0.188(2) 0.575(2)
C3 C -0.049(2) -0.326(3) 0.482(2)
C4 C -0.037(2) -0.378(3) 0.361(3)
C5 C 0.0533(18) -0.285(2) 0.333(2)
N1 N 0.1299(13) -0.1493(17) 0.4236(16)
C6 C 0.2021(18) 0.045(2) 0.634(2)
C7 C 0.205(2) 0.110(3) 0.763(2)
C8 C 0.288(2) 0.248(3) 0.847(3)
C9 C 0.378(2) 0.327(3) 0.808(3)
C10 C 0.376(2) 0.253(3) 0.678(2)
N2 N 0.2908(14) 0.1191(18) 0.6004(16)
C11 C 0.5096(16) 0.143(2) 0.3562(19)
C12 C 0.576(2) 0.210(3) 0.278(3)
C13 C 0.1924(17) 0.252(2) 0.214(2)
C14 C 0.292(3) 0.408(3) 0.302(3)
C15 C 0.1614(18) -0.181(2) 0.029(2)
C16 C 0.246(4) -0.281(4) 0.028(4)
O1 O 0.3901(13) 0.0764(16) 0.2817(15)
O2 O 0.5647(13) 0.1596(16) 0.4801(15)
O3 O 0.1627(12) 0.2232(15) 0.0841(14)
O4 O 0.1587(11) 0.1713(14) 0.2769(13)
O5 O 0.1272(14) -0.1427(18) -0.0794(16)
O6 O 0.1271(12) -0.1555(16) 0.1206(14)
F1 F 0.5214(15) 0.273(2) 0.196(2)
F2 F 0.595(2) 0.101(2) 0.202(2)
F3 F 0.6958(14) 0.290(2) 0.3560(19)
F4 F 0.3605(14) 0.4604(16) 0.2377(19)
F5 F 0.2314(17) 0.4984(16) 0.321(2)
F6 F 0.3697(19) 0.4010(19) 0.4194(17)
F7 F 0.300(3) -0.279(4) -0.033(3)
F8 F 0.3189(18) -0.267(2) 0.165(2)
F9 F 0.164(3) -0.428(2) -0.007(3)
H1 H 0.02(2) -0.15(2) 0.67(2)
H2 H -0.12(2) -0.39(3) 0.51(2)
H3 H -0.10(2) -0.49(3) 0.29(3)
H4 H 0.07(2) -0.32(2) 0.24(2)
H5 H 0.14(2) 0.05(3) 0.80(2)
H6 H 0.29(2) 0.30(3) 0.95(3)
H7 H 0.44(2) 0.44(3) 0.87(3)
H8 H 0.45(2) 0.31(3) 0.64(2)
Hg1 Hg 0.00000 0.00000 0.00000
Hg2 Hg 0.28064(7) -0.00527(9) 0.38606(7)
C13A C -0.1924(17) -0.252(2) -0.214(2)
C14A C -0.292(3) -0.408(3) -0.302(3)
O3A O -0.1627(12) -0.2232(15) -0.0841(14)
O4A O -0.1587(11) -0.1713(14) -0.2769(13)
F4A F -0.3605(14) -0.4604(16) -0.2377(19)
F5A F -0.2314(17) -0.4984(16) -0.321(2)
F6A F -0.3697(19) -0.4010(19) -0.4194(17)
C15A C -0.1614(18) 0.181(2) -0.029(2)
C16A C -0.246(4) 0.281(4) -0.028(4)
O5A O -0.1272(14) 0.1427(18) 0.0794(16)
O6A O -0.1271(12) 0.1555(16) -0.1206(14)
F7A F -0.300(3) 0.279(4) 0.033(3)
F8A F -0.3189(18) 0.267(2) -0.165(2)
F9A F -0.164(3) 0.428(2) 0.007(3)
Hg2A Hg -0.28064(7) 0.00527(9) -0.38606(7)
C11A C 0.4904(16) -0.143(2) 0.6438(19)
C12A C 0.424(2) -0.210(3) 0.722(3)
O1A O 0.6099(13) -0.0764(16) 0.7183(15)
O2A O 0.4353(13) -0.1596(16) 0.5199(15)
F1A F 0.4786(15) -0.273(2) 0.804(2)
F2A F 0.405(2) -0.101(2) 0.798(2)
F3A F 0.3042(14) -0.290(2) 0.6440(19)
C1A C -0.1204(15) 0.0974(19) -0.5451(18)
C2A C -0.0290(17) 0.188(2) -0.575(2)
C3A C 0.049(2) 0.326(3) -0.482(2)
C4A C 0.037(2) 0.378(3) -0.361(3)
C5A C -0.0533(18) 0.285(2) -0.333(2)
N1A N -0.1299(13) 0.1493(17) -0.4236(16)
C6A C -0.2021(18) -0.045(2) -0.634(2)
C7A C -0.205(2) -0.110(3) -0.763(2)
C8A C -0.288(2) -0.248(3) -0.847(3)
C9A C -0.378(2) -0.327(3) -0.808(3)
C10A C -0.376(2) -0.253(3) -0.678(2)
N2A N -0.2908(14) -0.1191(18) -0.6004(16)
H1A H -0.02(2) 0.15(2) -0.67(2)
H2A H 0.12(2) 0.39(3) -0.51(2)
H3A H 0.10(2) 0.49(3) -0.29(3)
H4A H -0.07(2) 0.32(2) -0.24(2)
H5A H -0.14(2) -0.05(3) -0.80(2)
H6A H -0.29(2) -0.30(3) -0.95(3)
H7A H -0.44(2) -0.44(3) -0.87(3)
H8A H -0.45(2) -0.31(3) -0.64(2)
Hg2A_2 Hg 0.71936(7) 0.00527(9) 0.61394(7)
O1A_2 O -0.3901(13) -0.0764(16) -0.2817(15)
O2_2 O -0.4353(13) 0.1596(16) -0.5199(15)
loop_
_geom_bond_atom_site_label_1
_geom_bond_atom_site_label_2
_geom_bond_site_symmetry_1
_geom_bond_site_symmetry_2
C1 C2 1_555 1_555
C2 C3 1_555 1_555
C3 C4 1_555 1_555
C4 C5 1_555 1_555
C5 N1 1_555 1_555
N1 C1 1_555 1_555
C6 C1 1_555 1_555
C7 C6 1_555 1_555
C8 C7 1_555 1_555
C9 C8 1_555 1_555
C10 C9 1_555 1_555
N2 C6 1_555 1_555
C11 C12 1_555 1_555
C12 F1 1_555 1_555
C13 C14 1_555 1_555
C14 F4 1_555 1_555
C15 C16 1_555 1_555
C16 F7 1_555 1_555
O1 C11 1_555 1_555
O2 C11 1_555 1_555
O3 C13 1_555 1_555
O4 C13 1_555 1_555
O5 C15 1_555 1_555
O6 C15 1_555 1_555
F2 C12 1_555 1_555
F3 C12 1_555 1_555
F5 C14 1_555 1_555
F6 C14 1_555 1_555
F8 C16 1_555 1_555
F9 C16 1_555 1_555
H1 C2 1_555 1_555
H2 C3 1_555 1_555
H3 C4 1_555 1_555
H4 C5 1_555 1_555
H5 C7 1_555 1_555
H6 C8 1_555 1_555
H7 C9 1_555 1_555
H8 C10 1_555 1_555
Hg1 O3 1_555 1_555
Hg2 N1 1_555 1_555
C13A C14A 1_555 1_555
C14A F4A 1_555 1_555
O3A Hg1 1_555 1_555
O4A Hg1 1_555 1_555
F5A C14A 1_555 1_555
F6A C14A 1_555 1_555
C15A C16A 1_555 1_555
C16A F7A 1_555 1_555
O5A Hg1 1_555 1_555
O6A Hg1 1_555 1_555
F8A C16A 1_555 1_555
F9A C16A 1_555 1_555
Hg2A O4A 1_555 1_555
C11A C12A 1_555 1_555
C12A F1A 1_555 1_555
O1A C11A 1_555 1_555
O2A Hg2 1_555 1_555
F2A C12A 1_555 1_555
F3A C12A 1_555 1_555
C1A C2A 1_555 1_555
C2A C3A 1_555 1_555
C3A C4A 1_555 1_555
C4A C5A 1_555 1_555
C5A N1A 1_555 1_555
N1A Hg2A 1_555 1_555
C6A C1A 1_555 1_555
C7A C6A 1_555 1_555
C8A C7A 1_555 1_555
C9A C8A 1_555 1_555
C10A C9A 1_555 1_555
N2A Hg2A 1_555 1_555
H1A C2A 1_555 1_555
H2A C3A 1_555 1_555
H3A C4A 1_555 1_555
H4A C5A 1_555 1_555
H5A C7A 1_555 1_555
H6A C8A 1_555 1_555
H7A C9A 1_555 1_555
H8A C10A 1_555 1_555
Hg2A_2 O2 1_555 1_555
O1A_2 Hg2A 1_555 1_555
O2_2 Hg2A 1_555 1_555
C10 N2 1_555 1_555
N2 Hg2 1_555 1_555
O1 Hg2 1_555 1_555
O4 Hg1 1_555 1_555
O4 Hg2 1_555 1_555
O5 Hg1 1_555 1_555
O6 Hg1 1_555 1_555
O6 Hg2 1_555 1_555
C13A O3A 1_555 1_555
C13A O4A 1_555 1_555
C15A O5A 1_555 1_555
C15A O6A 1_555 1_555
O6A Hg2A 1_555 1_555
C11A O2A 1_555 1_555
O1A Hg2A_2 1_555 1_555
C1A N1A 1_555 1_555
C6A N2A 1_555 1_555
C10A N2A 1_555 1_555

#END
