
#######################################################################
#
#                 Cambridge Crystallographic Data Centre
#                                CCDC 
#
#######################################################################
#
# If this CIF has been generated from an entry in the Cambridge 
# Structural Database, then it will include bibliographic, chemical, 
# crystal, experimental, refinement or atomic coordinate data resulting 
# from the CCDC's data processing and validation procedures.
#
#######################################################################

data_TUDMEL
_symmetry_cell_setting           monoclinic
_symmetry_space_group_name_H-M   'C 2/c'
_symmetry_Int_Tables_number      15
_space_group_name_Hall           '-C 2yn'
loop_
_symmetry_equiv_pos_site_id
_symmetry_equiv_pos_as_xyz
1 x,y,z
2 -x,y,1/2-z
3 1/2+x,1/2+y,z
4 1/2-x,1/2+y,1/2-z
5 -x,-y,-z
6 x,-y,1/2+z
7 1/2-x,1/2-y,-z
8 1/2+x,1/2-y,1/2+z
_cell_length_a                   25.1189(12)
_cell_length_b                   16.3750(9)
_cell_length_c                   16.6616(10)
_cell_angle_alpha                90
_cell_angle_beta                 125.254(2)
_cell_angle_gamma                90
_cell_volume                     5596.4
loop_
_atom_site_label
_atom_site_type_symbol
_atom_site_fract_x
_atom_site_fract_y
_atom_site_fract_z
N1 N 0.1721(3) 0.3233(4) 0.6982(6)
H1 H 0.1368 0.35 0.6876
N2 N 0.3005(4) 0.5008(4) 0.7395(7)
H2 H 0.3349 0.4763 0.7446
N3 N 0.1857(4) 0.4390(5) 0.5701(7)
H3 H 0.1505 0.4692 0.5545
N4 N 0.2853(4) 0.3882(5) 0.8683(7)
H4 H 0.3194 0.3548 0.886
C1 C 0.2664(7) 0.5491(7) 0.6512(12)
H5 H 0.2975 0.5813 0.6478
H6 H 0.2369 0.5863 0.6524
C2 C 0.2265(6) 0.4923(7) 0.5573(10)
H7 H 0.1997 0.5253 0.4986
H8 H 0.2561 0.4601 0.5505
C3 C 0.1065(4) 0.5941(4) 0.7316(7)
O1 O 0.2058(3) 0.8140(3) 0.7815(5)
C4 C 0.1475(5) 0.2676(6) 0.6158(10)
H9 H 0.1157 0.2313 0.6122
H10 H 0.1832 0.2345 0.6269
O2 O 0.1827(3) 0.5095(3) 0.7318(5)
C5 C 0.1284(4) 0.5131(5) 0.7151(8)
O3 O 0.1389(4) 0.8779(4) 0.8061(7)
N5 N 0.3531(4) 0.5093(6) 0.9136(9)
C6 C 0.1596(4) 0.8126(6) 0.7887(8)
O4 O 0.0884(4) 0.4530(4) 0.6852(7)
C7 C 0.3260(5) 0.5538(7) 0.8251(12)
H11 H 0.3593 0.5891 0.8315
H12 H 0.2911 0.5882 0.8145
C8 C 0.1167(6) 0.3117(9) 0.5208(11)
H13 H 0.0826 0.3463 0.5127
H14 H 0.0958 0.2715 0.4685
C9 C 0.0502(4) 0.5964(5) 0.7293(7)
H15 H 0.0266 0.5485 0.716
C10 C 0.0640(3) 0.7380(4) 0.7659(6)
H16 H 0.0506 0.786 0.7792
C11 C 0.1427(4) 0.6648(5) 0.7527(6)
H17 H 0.1816 0.6626 0.758
C12 C 0.1220(4) 0.7382(5) 0.7660(7)
C13 C 0.0282(3) 0.6662(4) 0.7460(6)
C14 C 0.2025(6) 0.2788(7) 0.7937(10)
H18 H 0.2324 0.2377 0.7998
H19 H 0.1689 0.2515 0.7955
C15 C 0.2396(6) 0.3401(7) 0.8800(9)
H20 H 0.2089 0.3764 0.8796
H21 H 0.2638 0.3109 0.942
C16 C 0.3111(6) 0.4561(9) 0.9316(10)
H22 H 0.3372 0.4373 0.9992
H23 H 0.2755 0.4887 0.922
C17 C 0.1595(7) 0.3642(8) 0.5054(11)
H24 H 0.1346 0.3812 0.4372
H25 H 0.1959 0.3316 0.5182
C18 C 0.4130(6) 0.4629(9) 0.9474(13)
H26 H 0.406 0.4279 0.8951
H27 H 0.425 0.4289 1.0032
C19 C 0.4694(7) 0.5272(11) 0.9779(15)
H28 H 0.4605 0.5571 0.9211
H29 H 0.4744 0.5657 1.0261
Ni1 Ni 0.23657(5) 0.41100(6) 0.71959(10)
N1D N 0.8279(3) 0.6767(4) 1.3018(6)
H1D H 0.8632 0.65 1.3124
N2D N 0.6995(4) 0.4992(4) 1.2605(7)
H2D H 0.6651 0.5237 1.2554
N3D N 0.8143(4) 0.5610(5) 1.4299(7)
H3D H 0.8495 0.5308 1.4455
N4D N 0.7147(4) 0.6118(5) 1.1317(7)
H4D H 0.6806 0.6452 1.114
C1D C 0.7336(7) 0.4509(7) 1.3488(12)
H5D H 0.7025 0.4187 1.3522
H6D H 0.7631 0.4137 1.3476
C2D C 0.7735(6) 0.5077(7) 1.4427(10)
H7D H 0.8003 0.4747 1.5014
H8D H 0.7439 0.5399 1.4495
C3A C -0.1065(4) 0.5941(4) 0.7684(7)
O1A O -0.2058(3) 0.8140(3) 0.7185(5)
O1C O 0.2942(3) 0.3140(3) 0.7185(5)
O1G O 0.7058(3) 0.6860(3) 1.2815(5)
C4D C 0.8525(5) 0.7324(6) 1.3842(10)
H9D H 0.8843 0.7687 1.3878
H10D H 0.8168 0.7655 1.3731
O2A O -0.1827(3) 0.5095(3) 0.7682(5)
O2D O 0.8173(3) 0.4905(3) 1.2682(5)
C5A C -0.1284(4) 0.5131(5) 0.7849(8)
O3A O -0.1389(4) 0.8779(4) 0.6939(7)
N5D N 0.6469(4) 0.4907(6) 1.0864(9)
C6A C -0.1596(4) 0.8126(6) 0.7113(8)
O4A O -0.0884(4) 0.4530(4) 0.8148(7)
C7D C 0.6740(5) 0.4462(7) 1.1749(12)
H11D H 0.6407 0.4109 1.1685
H12D H 0.7089 0.4118 1.1855
C8D C 0.8833(6) 0.6883(9) 1.4792(11)
H13D H 0.9174 0.6537 1.4873
H14D H 0.9042 0.7285 1.5315
C9A C -0.0502(4) 0.5964(5) 0.7707(7)
H15A H -0.0266 0.5485 0.784
C10A C -0.0640(3) 0.7380(4) 0.7341(6)
H16A H -0.0506 0.786 0.7208
C11A C -0.1427(4) 0.6648(5) 0.7473(6)
H17A H -0.1816 0.6626 0.742
C12A C -0.1220(4) 0.7382(5) 0.7340(7)
C13A C -0.0282(3) 0.6662(4) 0.7540(6)
C14D C 0.7975(6) 0.7212(7) 1.2063(10)
H18D H 0.7676 0.7623 1.2002
H19D H 0.8311 0.7485 1.2045
C15D C 0.7604(6) 0.6599(7) 1.1200(9)
H20D H 0.7911 0.6236 1.1204
H21D H 0.7362 0.6891 1.058
C16D C 0.6889(6) 0.5439(9) 1.0684(10)
H22D H 0.6628 0.5627 1.0008
H23D H 0.7245 0.5113 1.078
C17D C 0.8405(7) 0.6358(8) 1.4946(11)
H24D H 0.8654 0.6188 1.5628
H25D H 0.8041 0.6684 1.4818
C18D C 0.5870(6) 0.5371(9) 1.0526(13)
H26D H 0.594 0.5721 1.1049
H27D H 0.575 0.5711 0.9968
C19D C 0.5306(7) 0.4728(11) 1.0221(15)
H28D H 0.5395 0.4429 1.0789
H29D H 0.5256 0.4343 0.9739
Ni1D Ni 0.76343(5) 0.58900(6) 1.28041(10)
Ni1A Ni -0.23657(5) 0.41100(6) 0.78041(10)
Ni1C Ni 0.26343(5) 0.91100(6) 0.78041(10)
Ni1B Ni -0.26343(5) 0.91100(6) 0.71959(10)
loop_
_geom_bond_atom_site_label_1
_geom_bond_atom_site_label_2
_geom_bond_site_symmetry_1
_geom_bond_site_symmetry_2
N1 H1 1_555 1_555
N2 H2 1_555 1_555
N3 H3 1_555 1_555
N4 H4 1_555 1_555
C1 N2 1_555 1_555
H5 C1 1_555 1_555
H6 C1 1_555 1_555
C2 N3 1_555 1_555
H7 C2 1_555 1_555
H8 C2 1_555 1_555
C3 C5 1_555 1_555
O1 C6 1_555 1_555
C4 N1 1_555 1_555
H9 C4 1_555 1_555
H10 C4 1_555 1_555
O2 C5 1_555 1_555
C5 O4 1_555 1_555
O3 C6 1_555 1_555
N5 C7 1_555 1_555
C6 C12 1_555 1_555
C7 N2 1_555 1_555
H11 C7 1_555 1_555
H12 C7 1_555 1_555
C8 C4 1_555 1_555
H13 C8 1_555 1_555
H14 C8 1_555 1_555
C9 C3 1_555 1_555
H15 C9 1_555 1_555
C10 H16 1_555 1_555
C11 C3 1_555 1_555
H17 C11 1_555 1_555
C12 C10 1_555 1_555
C13 C9 1_555 1_555
C14 N1 1_555 1_555
H18 C14 1_555 1_555
H19 C14 1_555 1_555
C15 N4 1_555 1_555
H20 C15 1_555 1_555
H21 C15 1_555 1_555
C16 N4 1_555 1_555
H22 C16 1_555 1_555
H23 C16 1_555 1_555
C17 N3 1_555 1_555
H24 C17 1_555 1_555
H25 C17 1_555 1_555
C18 N5 1_555 1_555
H26 C18 1_555 1_555
H27 C18 1_555 1_555
C19 C18 1_555 1_555
H28 C19 1_555 1_555
H29 C19 1_555 1_555
Ni1 N1 1_555 1_555
N1D H1D 1_555 1_555
N2D H2D 1_555 1_555
N3D H3D 1_555 1_555
N4D H4D 1_555 1_555
C1D N2D 1_555 1_555
H5D C1D 1_555 1_555
H6D C1D 1_555 1_555
C2D N3D 1_555 1_555
H7D C2D 1_555 1_555
H8D C2D 1_555 1_555
C3A C5A 1_555 1_555
O1A C6A 1_555 1_555
O1C Ni1 1_555 1_555
O1G Ni1D 1_555 1_555
C4D N1D 1_555 1_555
H9D C4D 1_555 1_555
H10D C4D 1_555 1_555
O2A C5A 1_555 1_555
O2D Ni1D 1_555 1_555
C5A O4A 1_555 1_555
O3A C6A 1_555 1_555
N5D C7D 1_555 1_555
C6A C12A 1_555 1_555
C7D N2D 1_555 1_555
H11D C7D 1_555 1_555
H12D C7D 1_555 1_555
C8D C4D 1_555 1_555
H13D C8D 1_555 1_555
H14D C8D 1_555 1_555
C9A C3A 1_555 1_555
H15A C9A 1_555 1_555
C10A H16A 1_555 1_555
C11A C3A 1_555 1_555
H17A C11A 1_555 1_555
C12A C10A 1_555 1_555
C13A C13 1_555 1_555
C14D N1D 1_555 1_555
H18D C14D 1_555 1_555
H19D C14D 1_555 1_555
C15D N4D 1_555 1_555
H20D C15D 1_555 1_555
H21D C15D 1_555 1_555
C16D N4D 1_555 1_555
H22D C16D 1_555 1_555
H23D C16D 1_555 1_555
C17D N3D 1_555 1_555
H24D C17D 1_555 1_555
H25D C17D 1_555 1_555
C18D N5D 1_555 1_555
H26D C18D 1_555 1_555
H27D C18D 1_555 1_555
C19D C19 1_555 1_555
H28D C19D 1_555 1_555
H29D C19D 1_555 1_555
Ni1D N1D 1_555 1_555
Ni1A O2A 1_555 1_555
Ni1C O1 1_555 1_555
Ni1B O1A 1_555 1_555
N2 Ni1 1_555 1_555
N3 Ni1 1_555 1_555
N4 Ni1 1_555 1_555
C1 C2 1_555 1_555
O2 Ni1 1_555 1_555
N5 C16 1_555 1_555
C8 C17 1_555 1_555
C10 C13 1_555 1_555
C11 C12 1_555 1_555
C14 C15 1_555 1_555
N2D Ni1D 1_555 1_555
N3D Ni1D 1_555 1_555
N4D Ni1D 1_555 1_555
C1D C2D 1_555 1_555
N5D C16D 1_555 1_555
C8D C17D 1_555 1_555
C9A C13A 1_555 1_555
C10A C13A 1_555 1_555
C11A C12A 1_555 1_555
C14D C15D 1_555 1_555
C18D C19D 1_555 1_555

#END
