
#######################################################################
#
#                 Cambridge Crystallographic Data Centre
#                                CCDC 
#
#######################################################################
#
# If this CIF has been generated from an entry in the Cambridge 
# Structural Database, then it will include bibliographic, chemical, 
# crystal, experimental, refinement or atomic coordinate data resulting 
# from the CCDC's data processing and validation procedures.
#
#######################################################################

data_TUDWEU
_symmetry_cell_setting           orthorhombic
_symmetry_space_group_name_H-M   'P 21 21 21'
_symmetry_Int_Tables_number      19
_space_group_name_Hall           'P 2ac 2ab'
loop_
_symmetry_equiv_pos_site_id
_symmetry_equiv_pos_as_xyz
1 x,y,z
2 1/2-x,-y,1/2+z
3 1/2+x,1/2-y,-z
4 -x,1/2+y,1/2-z
_cell_length_a                   13.764(4)
_cell_length_b                   21.544(4)
_cell_length_c                   7.682(5)
_cell_angle_alpha                90
_cell_angle_beta                 90
_cell_angle_gamma                90
_cell_volume                     2277.96
loop_
_atom_site_label
_atom_site_type_symbol
_atom_site_fract_x
_atom_site_fract_y
_atom_site_fract_z
V1 V 0.2589(1) -0.0019(2) 0.3783(2)
O1 O 0.3673(7) -0.0606(5) 0.404(1)
O2 O 0.3568(7) 0.0632(5) 0.377(1)
O3 O 0.2298(4) -0.0063(6) 0.1748(6)
O4 O 0.539(1) -0.1164(7) 0.364(2)
O5 O 0.518(1) 0.1256(6) 0.370(2)
N1 N 0.1668(8) -0.0727(5) 0.472(1)
N2 N 0.1545(8) 0.0675(5) 0.424(1)
C1 C 0.368(1) -0.1192(9) 0.446(2)
C2 C 0.457(1) -0.1504(9) 0.440(2)
C3 C 0.630(2) -0.144(1) 0.357(3)
C4 C 0.702(2) -0.090(2) 0.310(5)
C5 C 0.470(1) -0.2084(9) 0.493(3)
C6 C 0.388(2) -0.241(1) 0.567(3)
C7 C 0.301(2) -0.212(1) 0.574(3)
C8 C 0.290(1) -0.1539(8) 0.519(3)
C9 C 0.194(1) -0.1261(6) 0.524(2)
C10 C 0.057(1) -0.0640(8) 0.479(2)
C11 C 0.013(1) -0.0870(7) 0.309(2)
C12 C 0.0250(6) 0.002(1) 0.521(1)
C13 C 0.0523(9) 0.0518(6) 0.397(2)
C14 C -0.0176(9) 0.1061(8) 0.395(2)
C15 C 0.179(1) 0.1222(8) 0.484(2)
C16 C 0.272(1) 0.1471(8) 0.508(2)
C17 C 0.283(2) 0.2089(9) 0.580(3)
C18 C 0.362(2) 0.244(1) 0.573(3)
C19 C 0.440(2) 0.2167(9) 0.507(3)
C20 C 0.442(2) 0.1564(9) 0.434(2)
C21 C 0.609(2) 0.151(1) 0.371(3)
C22 C 0.685(1) 0.115(1) 0.276(3)
C23 C 0.358(1) 0.1185(7) 0.442(2)
H1 H 0.62555 -0.17687 0.27452
H2 H 0.65125 -0.16027 0.46712
H3 H 0.76395 -0.11018 0.30745
H4 H 0.70365 -0.05428 0.38545
H5 H 0.68305 -0.07668 0.19545
H6 H 0.52688 -0.23014 0.45384
H7 H 0.39817 -0.28036 0.62058
H8 H 0.24534 -0.23298 0.62240
H9 H 0.14148 -0.15059 0.56864
H10 H 0.03009 -0.08385 0.57981
H11 H -0.05629 -0.08016 0.31707
H12 H 0.02821 -0.13036 0.30547
H13 H 0.03981 -0.06716 0.20797
H14 H 0.04773 0.01190 0.63621
H15 H -0.04457 -0.00070 0.52301
H16 H 0.04313 0.03970 0.27830
H17 H -0.08468 0.09674 0.37297
H18 H 0.00392 0.13314 0.30327
H19 H -0.01488 0.12814 0.50347
H20 H 0.12761 0.14940 0.52037
H21 H 0.22855 0.22676 0.63950
H22 H 0.36388 0.28758 0.59840
H23 H 0.50075 0.23736 0.53034
H24 H 0.62019 0.16138 0.49046
H25 H 0.60439 0.18778 0.30296
H26 H 0.74756 0.13385 0.27103
H27 H 0.66286 0.10595 0.15973
H28 H 0.68876 0.07675 0.34013
O3A O 0.2702(4) 0.0063(6) 0.6748(6)
V1A V 0.2411(1) 0.0019(2) -0.1217(2)
O6 O 0.570(1) -0.011(2) 0.491(3)
loop_
_geom_bond_atom_site_label_1
_geom_bond_atom_site_label_2
_geom_bond_site_symmetry_1
_geom_bond_site_symmetry_2
V1 O1 1_555 1_555
O1 C1 1_555 1_555
O2 V1 1_555 1_555
O3 V1 1_555 1_555
O4 C2 1_555 1_555
O5 C20 1_555 1_555
N1 V1 1_555 1_555
N2 V1 1_555 1_555
C1 C2 1_555 1_555
C2 C5 1_555 1_555
C3 O4 1_555 1_555
C4 C3 1_555 1_555
C5 C6 1_555 1_555
C6 C7 1_555 1_555
C7 C8 1_555 1_555
C8 C1 1_555 1_555
C9 N1 1_555 1_555
C10 N1 1_555 1_555
C11 C10 1_555 1_555
C12 C10 1_555 1_555
C13 N2 1_555 1_555
C14 C13 1_555 1_555
C15 N2 1_555 1_555
C16 C15 1_555 1_555
C17 C16 1_555 1_555
C18 C17 1_555 1_555
C19 C18 1_555 1_555
C20 C19 1_555 1_555
C21 O5 1_555 1_555
C22 C21 1_555 1_555
C23 O2 1_555 1_555
H1 C3 1_555 1_555
H2 C3 1_555 1_555
H3 C4 1_555 1_555
H4 C4 1_555 1_555
H5 C4 1_555 1_555
H6 C5 1_555 1_555
H7 C6 1_555 1_555
H8 C7 1_555 1_555
H9 C9 1_555 1_555
H10 C10 1_555 1_555
H11 C11 1_555 1_555
H12 C11 1_555 1_555
H13 C11 1_555 1_555
H14 C12 1_555 1_555
H15 C12 1_555 1_555
H16 C13 1_555 1_555
H17 C14 1_555 1_555
H18 C14 1_555 1_555
H19 C14 1_555 1_555
H20 C15 1_555 1_555
H21 C17 1_555 1_555
H22 C18 1_555 1_555
H23 C19 1_555 1_555
H24 C21 1_555 1_555
H25 C21 1_555 1_555
H26 C22 1_555 1_555
H27 C22 1_555 1_555
H28 C22 1_555 1_555
O3A V1 1_555 1_555
V1A O3 1_555 1_555
C8 C9 1_555 1_555
C12 C13 1_555 1_555
C16 C23 1_555 1_555
C20 C23 1_555 1_555

#END
