
#######################################################################
#
#                 Cambridge Crystallographic Data Centre
#                                CCDC 
#
#######################################################################
#
# If this CIF has been generated from an entry in the Cambridge 
# Structural Database, then it will include bibliographic, chemical, 
# crystal, experimental, refinement or atomic coordinate data resulting 
# from the CCDC's data processing and validation procedures.
#
#######################################################################

data_TUFFIK
_symmetry_cell_setting           triclinic
_symmetry_space_group_name_H-M   'P -1'
_symmetry_Int_Tables_number      2
_space_group_name_Hall           '-P 1'
loop_
_symmetry_equiv_pos_site_id
_symmetry_equiv_pos_as_xyz
1 x,y,z
2 -x,-y,-z
_cell_length_a                   8.759(5)
_cell_length_b                   10.531(3)
_cell_length_c                   10.698(5)
_cell_angle_alpha                66.15(2)
_cell_angle_beta                 89.46(4)
_cell_angle_gamma                85.17(4)
_cell_volume                     898.996
loop_
_atom_site_label
_atom_site_type_symbol
_atom_site_fract_x
_atom_site_fract_y
_atom_site_fract_z
Cd1 Cd 0.30160(4) 0.08544(3) 0.65597(3)
O1 O 0.1635(3) -0.0822(3) 0.8016(3)
O2 O -0.0188(3) 0.0272(3) 0.6424(3)
C1 C 0.0315(5) -0.0711(4) 0.7486(4)
C2 C -0.0640(5) -0.1909(4) 0.8221(4)
H1 H -0.0242 -0.2799 0.8279
C3 C -0.1974(5) -0.1849(4) 0.8791(4)
C4 C -0.2730(5) -0.3175(4) 0.9510(4)
O3 O -0.3891(3) -0.3209(3) 1.0150(3)
O4 O -0.2015(3) -0.4271(3) 0.9409(3)
H2 H -0.2470 -0.5109 0.9840
C5 C -0.2798(5) -0.0572(4) 0.8835(4)
H3 H -0.2107 0.0187 0.8493
H4 H -0.3000 -0.0756 0.9802
C6 C -0.4304(5) -0.0055(4) 0.8027(4)
O5 O -0.4658(3) -0.0565(3) 0.7179(3)
O6 O -0.5135(3) 0.0876(3) 0.8185(3)
O7 O 0.2734(3) 0.0012(3) 0.4935(3)
H5 H 0.3409 0.0231 0.4352
H6 H 0.1971 -0.0412 0.4600
N1 N 0.3597(4) 0.3002(3) 0.4880(3)
N2 N 0.1637(4) 0.2586(3) 0.6994(3)
C7 C 0.4522(5) 0.3198(4) 0.3847(4)
H9 H 0.4985 0.2405 0.3732
C8 C 0.4853(5) 0.4537(4) 0.2907(4)
H10 H 0.5523 0.4642 0.2175
C9 C 0.4194(5) 0.5665(4) 0.3075(4)
H11 H 0.4410 0.6573 0.2461
C10 C 0.3201(5) 0.5501(4) 0.4143(4)
C11 C 0.2422(5) 0.6654(4) 0.4345(4)
H12 H 0.2612 0.7578 0.3753
C12 C 0.1420(5) 0.6451(4) 0.5364(4)
H13 H 0.0906 0.7233 0.5465
C13 C 0.1124(5) 0.5078(4) 0.6292(4)
C14 C 0.0061(5) 0.4824(4) 0.7334(4)
H14 H -0.0492 0.5583 0.7449
C15 C -0.0183(5) 0.3480(4) 0.8190(4)
H15 H -0.0900 0.3295 0.8900
C16 C 0.0654(5) 0.2389(4) 0.7989(4)
H16 H 0.0509 0.1460 0.8598
C17 C 0.1882(5) 0.3922(4) 0.6139(4)
C18 C 0.2928(4) 0.4132(4) 0.5040(4)
Cd1_2 Cd -0.69840(4) 0.08544(3) 0.65597(3)
O5_2 O 0.5342(3) -0.0565(3) 0.7179(3)
O6_2 O 0.4865(3) 0.0876(3) 0.8185(3)
O8 O -0.3174(3) 0.3380(3) 1.0635(3)
H7 H -0.4088 0.3219 1.0378
H8 H -0.2656 0.2486 1.1076
loop_
_geom_bond_atom_site_label_1
_geom_bond_atom_site_label_2
_geom_bond_site_symmetry_1
_geom_bond_site_symmetry_2
Cd1 O1 1_555 1_555
O1 C1 1_555 1_555
O2 C1 1_555 1_555
C1 C2 1_555 1_555
C2 H1 1_555 1_555
C3 C2 1_555 1_555
C4 C3 1_555 1_555
O3 C4 1_555 1_555
O4 C4 1_555 1_555
H2 O4 1_555 1_555
C5 C3 1_555 1_555
H3 C5 1_555 1_555
H4 C5 1_555 1_555
C6 C5 1_555 1_555
O5 C6 1_555 1_555
O6 C6 1_555 1_555
O7 Cd1 1_555 1_555
H5 O7 1_555 1_555
H6 O7 1_555 1_555
O8 H7 1_555 1_555
H8 O8 1_555 1_555
N1 Cd1 1_555 1_555
N2 Cd1 1_555 1_555
C7 N1 1_555 1_555
H9 C7 1_555 1_555
C8 C7 1_555 1_555
H10 C8 1_555 1_555
C9 C8 1_555 1_555
H11 C9 1_555 1_555
C10 C9 1_555 1_555
C11 C10 1_555 1_555
H12 C11 1_555 1_555
C12 C11 1_555 1_555
H13 C12 1_555 1_555
C13 C12 1_555 1_555
C14 C13 1_555 1_555
H14 C14 1_555 1_555
C15 C14 1_555 1_555
H15 C15 1_555 1_555
C16 N2 1_555 1_555
H16 C16 1_555 1_555
C17 N2 1_555 1_555
C18 N1 1_555 1_555
Cd1_2 O5 1_555 1_555
O5_2 Cd1 1_555 1_555
O6_2 Cd1 1_555 1_555
O6 Cd1_2 1_555 1_555
C10 C18 1_555 1_555
C13 C17 1_555 1_555
C15 C16 1_555 1_555
C17 C18 1_555 1_555

#END
