
#######################################################################
#
#                 Cambridge Crystallographic Data Centre
#                                CCDC 
#
#######################################################################
#
# If this CIF has been generated from an entry in the Cambridge 
# Structural Database, then it will include bibliographic, chemical, 
# crystal, experimental, refinement or atomic coordinate data resulting 
# from the CCDC's data processing and validation procedures.
#
#######################################################################

data_TUFHEI
_symmetry_cell_setting           monoclinic
_symmetry_space_group_name_H-M   'P 21'
_symmetry_Int_Tables_number      4
_space_group_name_Hall           'P 2yb'
loop_
_symmetry_equiv_pos_site_id
_symmetry_equiv_pos_as_xyz
1 x,y,z
2 -x,1/2+y,-z
_cell_length_a                   8.2515(8)
_cell_length_b                   12.1618(11)
_cell_length_c                   10.0928(11)
_cell_angle_alpha                90
_cell_angle_beta                 96.161(4)
_cell_angle_gamma                90
_cell_volume                     1006.99
loop_
_atom_site_label
_atom_site_type_symbol
_atom_site_fract_x
_atom_site_fract_y
_atom_site_fract_z
Zn1 Zn 0.75986(3) 1.00007(5) 0.24530(2)
N1 N 0.9392(3) 0.9621(2) 0.4002(3)
O1 O 0.6330(2) 0.88817(19) 0.3800(2)
O2 O 0.3154(3) 0.62521(19) 0.6344(2)
N2 N 0.5601(3) 0.9759(2) 0.0984(3)
O3 O 0.8266(3) 0.85256(18) 0.1408(2)
O4 O 1.1325(3) 0.5948(2) -0.1147(2)
C1 C 0.9076(3) 0.8727(2) 0.4932(3)
C2 C 0.9534(4) 0.9118(3) 0.6364(3)
H1 H 0.9286 0.8552 0.6973
H2 H 0.8926 0.9769 0.6523
H3 H 1.0679 0.9280 0.6496
C3 C 1.0054(4) 0.7722(3) 0.4598(3)
H4 H 0.9830 0.7125 0.5172
H5 H 1.1196 0.7893 0.4724
H6 H 0.9752 0.7516 0.3687
C4 C 0.7248(3) 0.8438(2) 0.4715(2)
N3 N 0.6701(3) 0.76759(19) 0.5485(2)
C5 C 0.5035(4) 0.7257(2) 0.5252(3)
C6 C 0.4839(6) 0.6506(4) 0.4045(3)
H7 H 0.5035 0.6916 0.3265
H8 H 0.3752 0.6215 0.3934
H9 H 0.5607 0.5912 0.4172
C7 C 0.4551(3) 0.6661(2) 0.6476(2)
O5 O 0.5555(3) 0.65943(19) 0.74837(19)
C8 C 0.5762(3) 0.8893(2) -0.0022(3)
C9 C 0.5727(5) 0.9417(3) -0.1391(3)
H10 H 0.5900 0.8862 -0.2037
H11 H 0.6572 0.9961 -0.1377
H12 H 0.4687 0.9759 -0.1624
C10 C 0.4364(4) 0.8073(3) 0.0028(4)
H13 H 0.4494 0.7688 0.0863
H14 H 0.4377 0.7556 -0.0689
H15 H 0.3345 0.8461 -0.0059
C11 C 0.7392(3) 0.8294(2) 0.0349(3)
N4 N 0.7833(3) 0.75231(19) -0.0464(2)
C12 C 0.9309(3) 0.6881(2) -0.0138(2)
C13 C 0.9003(5) 0.5942(3) 0.0811(3)
H16 H 0.8508 0.6229 0.1558
H17 H 1.0019 0.5597 0.1121
H18 H 0.8288 0.5411 0.0351
C14 C 0.9959(3) 0.6415(2) -0.1380(2)
O6 O 0.9132(3) 0.64845(19) -0.24791(19)
H21 H 1.027(7) 0.949(4) 0.372(5)
H22 H 0.936(5) 1.036(4) 0.437(4)
H23 H 0.472(8) 0.961(5) 0.124(6)
H24 H 0.562(6) 1.052(4) 0.060(4)
H25 H 0.733(4) 0.731(2) 0.607(3)
H26 H 0.435(4) 0.783(3) 0.501(3)
H27 H 0.727(4) 0.728(3) -0.120(3)
H28 H 1.018(5) 0.743(3) 0.030(3)
Zn1A Zn 0.24014(3) 0.50007(5) 0.75470(2)
Zn1A_2 Zn 1.24014(3) 0.50007(5) -0.24530(2)
O2A O 0.6846(3) 1.12521(19) 0.3656(2)
O4A O 0.8675(3) 1.0948(2) 0.1147(2)
O7 O 1.2863(3) 0.9455(3) 0.3151(4)
H19 H 1.276(6) 1.024(6) 0.276(5)
H20 H 1.386(7) 0.936(5) 0.343(5)
loop_
_geom_bond_atom_site_label_1
_geom_bond_atom_site_label_2
_geom_bond_site_symmetry_1
_geom_bond_site_symmetry_2
Zn1 N1 1_555 1_555
N1 C1 1_555 1_555
O1 Zn1 1_555 1_555
O2 C7 1_555 1_555
N2 Zn1 1_555 1_555
O3 Zn1 1_555 1_555
O4 C14 1_555 1_555
C1 C2 1_555 1_555
C2 H1 1_555 1_555
H2 C2 1_555 1_555
H3 C2 1_555 1_555
C3 C1 1_555 1_555
H4 C3 1_555 1_555
H5 C3 1_555 1_555
H6 C3 1_555 1_555
C4 O1 1_555 1_555
N3 C4 1_555 1_555
C5 N3 1_555 1_555
C6 C5 1_555 1_555
H7 C6 1_555 1_555
H8 C6 1_555 1_555
H9 C6 1_555 1_555
C7 C5 1_555 1_555
O5 C7 1_555 1_555
C8 N2 1_555 1_555
C9 C8 1_555 1_555
H10 C9 1_555 1_555
H11 C9 1_555 1_555
H12 C9 1_555 1_555
C10 C8 1_555 1_555
H13 C10 1_555 1_555
H14 C10 1_555 1_555
H15 C10 1_555 1_555
C11 O3 1_555 1_555
N4 C11 1_555 1_555
C12 N4 1_555 1_555
C13 C12 1_555 1_555
H16 C13 1_555 1_555
H17 C13 1_555 1_555
H18 C13 1_555 1_555
C14 C12 1_555 1_555
O6 C14 1_555 1_555
O7 H19 1_555 1_555
H20 O7 1_555 1_555
H21 N1 1_555 1_555
H22 N1 1_555 1_555
H23 N2 1_555 1_555
H24 N2 1_555 1_555
H25 N3 1_555 1_555
H26 C5 1_555 1_555
H27 N4 1_555 1_555
H28 C12 1_555 1_555
Zn1A O2 1_555 1_555
Zn1A_2 O4 1_555 1_555
O2A Zn1 1_555 1_555
O4A Zn1 1_555 1_555
C1 C4 1_555 1_555
C8 C11 1_555 1_555

#END
