
#######################################################################
#
#                 Cambridge Crystallographic Data Centre
#                                CCDC 
#
#######################################################################
#
# If this CIF has been generated from an entry in the Cambridge 
# Structural Database, then it will include bibliographic, chemical, 
# crystal, experimental, refinement or atomic coordinate data resulting 
# from the CCDC's data processing and validation procedures.
#
#######################################################################

data_TUFHOS
_symmetry_cell_setting           triclinic
_symmetry_space_group_name_H-M   'P -1'
_symmetry_Int_Tables_number      2
_space_group_name_Hall           '-P 1'
loop_
_symmetry_equiv_pos_site_id
_symmetry_equiv_pos_as_xyz
1 x,y,z
2 -x,-y,-z
_cell_length_a                   4.9688(5)
_cell_length_b                   5.4759(4)
_cell_length_c                   12.0615(11)
_cell_angle_alpha                86.876(7)
_cell_angle_beta                 78.724(7)
_cell_angle_gamma                86.800(8)
_cell_volume                     321.022
loop_
_atom_site_label
_atom_site_type_symbol
_atom_site_fract_x
_atom_site_fract_y
_atom_site_fract_z
Co1 Co 0.5000 0.0000 0.5000
O1 O 0.7057(2) -0.07661(18) 0.63399(9)
O2 O 0.5798(2) -0.45652(19) 0.68851(10)
O4 O 0.1854(2) 0.1689(2) 0.61427(10)
O5 O 0.3648(2) -0.22784(19) 0.94545(10)
N1 N 0.7729(3) -0.4305(2) 0.88623(11)
O6 O 0.2658(2) -0.3116(2) 0.51852(12)
C1 C 0.8590(3) -0.2566(3) 0.79412(13)
H1 H 1.0569 -0.2883 0.7634
H2 H 0.8354 -0.0897 0.8233
C2 C 0.6993(3) -0.2669(3) 0.69854(13)
C3 C 0.5314(3) -0.3994(3) 0.95370(13)
H4 H 0.871(4) -0.551(4) 0.8979(17)
H5 H 0.040(5) 0.111(4) 0.617(2)
H6 H 0.295(5) -0.400(5) 0.565(2)
H7 H 0.206(5) 0.163(4) 0.681(2)
H9 H 0.279(5) -0.390(5) 0.460(3)
Co1_2 Co 0.5000 -1.0000 1.5000
O1A O 0.2943(2) -0.92339(18) 1.36601(9)
O1A_2 O 0.2943(2) 0.07661(18) 0.36601(9)
O2A O 0.4202(2) -0.54348(19) 1.31149(10)
O4A O 0.8146(2) -0.1689(2) 0.38573(10)
O5A O 0.6352(2) -0.77216(19) 1.05455(10)
N1A N 0.2271(3) -0.5695(2) 1.11377(11)
O6A O 0.7342(2) 0.3116(2) 0.48148(12)
C1A C 0.1410(3) -0.7434(3) 1.20588(13)
H1A H -0.0569 -0.7117 1.2366
H2A H 0.1646 -0.9103 1.1767
C2A C 0.3007(3) -0.7331(3) 1.30146(13)
C3A C 0.4686(3) -0.6006(3) 1.04630(13)
H4A H 0.129(4) -0.449(4) 1.1021(17)
H5A H 0.960(5) -0.111(4) 0.383(2)
H6A H 0.705(5) 0.400(5) 0.435(2)
H7A H 0.794(5) -0.163(4) 0.319(2)
H9A H 0.721(5) 0.390(5) 0.540(3)
O3 O 0.2585(2) 0.2180(2) 0.83088(10)
H3 H 0.396(5) 0.297(4) 0.8051(19)
H8 H 0.301(4) 0.096(4) 0.863(2)
loop_
_geom_bond_atom_site_label_1
_geom_bond_atom_site_label_2
_geom_bond_site_symmetry_1
_geom_bond_site_symmetry_2
Co1 O1 1_555 1_555
O1 C2 1_555 1_555
O2 C2 1_555 1_555
O3 H3 1_555 1_555
O4 Co1 1_555 1_555
O5 C3 1_555 1_555
N1 C1 1_555 1_555
O6 Co1 1_555 1_555
C1 H1 1_555 1_555
H2 C1 1_555 1_555
C2 C1 1_555 1_555
C3 N1 1_555 1_555
H4 N1 1_555 1_555
H5 O4 1_555 1_555
H6 O6 1_555 1_555
H7 O4 1_555 1_555
H8 O3 1_555 1_555
H9 O6 1_555 1_555
Co1_2 O1A 1_555 1_555
O1A C2A 1_555 1_555
O1A_2 Co1 1_555 1_555
O2A C2A 1_555 1_555
O4A Co1 1_555 1_555
O5A C3A 1_555 1_555
N1A C1A 1_555 1_555
O6A Co1 1_555 1_555
C1A H1A 1_555 1_555
H2A C1A 1_555 1_555
C2A C1A 1_555 1_555
C3A C3 1_555 1_555
H4A N1A 1_555 1_555
H5A O4A 1_555 1_555
H6A O6A 1_555 1_555
H7A O4A 1_555 1_555
H9A O6A 1_555 1_555
N1A C3A 1_555 1_555

#END
