
#######################################################################
#
#                 Cambridge Crystallographic Data Centre
#                                CCDC 
#
#######################################################################
#
# If this CIF has been generated from an entry in the Cambridge 
# Structural Database, then it will include bibliographic, chemical, 
# crystal, experimental, refinement or atomic coordinate data resulting 
# from the CCDC's data processing and validation procedures.
#
#######################################################################

data_TUFJAG
_symmetry_cell_setting           monoclinic
_symmetry_space_group_name_H-M   'C 2/c'
_symmetry_Int_Tables_number      15
_space_group_name_Hall           '-C 2yn'
loop_
_symmetry_equiv_pos_site_id
_symmetry_equiv_pos_as_xyz
1 x,y,z
2 -x,y,1/2-z
3 1/2+x,1/2+y,z
4 1/2-x,1/2+y,1/2-z
5 -x,-y,-z
6 x,-y,1/2+z
7 1/2-x,1/2-y,-z
8 1/2+x,1/2-y,1/2+z
_cell_length_a                   6.9185(2)
_cell_length_b                   7.6934(3)
_cell_length_c                   23.2758(7)
_cell_angle_alpha                90
_cell_angle_beta                 94.120(2)
_cell_angle_gamma                90
_cell_volume                     1235.69
loop_
_atom_site_label
_atom_site_type_symbol
_atom_site_fract_x
_atom_site_fract_y
_atom_site_fract_z
Zn1 Zn 0.5000 0.31649(3) 0.2500
O1 O 0.22417(16) 0.31179(16) 0.20026(5)
O2 O 0.5000 0.0577(2) 0.2500
O3 O 0.60132(15) 0.47586(14) 0.19109(4)
O4 O 0.69954(18) 0.22715(15) 0.15472(5)
O5 O 0.52333(16) 0.30589(15) 0.02406(5)
N1 N 0.8268(2) 0.38836(18) 0.05824(6)
C1 C 0.6839(2) 0.3863(2) 0.15301(6)
C2 C 0.7627(2) 0.4938(2) 0.10473(6)
H1 H 0.6603 0.5742 0.0891
H2 H 0.8728 0.5649 0.1209
C3 C 0.7014(2) 0.3037(2) 0.02268(6)
H3 H 0.231(3) 0.343(3) 0.1684(10)
H4 H 0.177(3) 0.208(3) 0.1982(9)
H5 H 0.946(3) 0.380(3) 0.0533(9)
H7 H 0.576(3) 0.001(3) 0.2342(10)
Zn1F Zn 1.0000 0.18351(3) -0.2500
O1A O 0.77583(16) 0.31179(16) 0.29974(5)
O3F O 0.89868(15) 0.02414(14) -0.19109(4)
O3A O 0.39868(15) 0.47586(14) 0.30891(4)
O4F O 0.80046(18) 0.27285(15) -0.15472(5)
O5F O 0.97667(16) 0.19411(15) -0.02406(5)
N1F N 0.6732(2) 0.11164(18) -0.05824(6)
C1F C 0.8161(2) 0.1137(2) -0.15301(6)
C2F C 0.7373(2) 0.0062(2) -0.10473(6)
H1F H 0.8397 -0.0742 -0.0891
H2F H 0.6272 -0.0649 -0.1209
C3F C 0.7986(2) 0.1963(2) -0.02268(6)
H3A H 0.769(3) 0.343(3) 0.3316(10)
H4A H 0.823(3) 0.208(3) 0.3018(9)
H5F H 0.554(3) 0.120(3) -0.0533(9)
H7A H 0.424(3) 0.001(3) 0.2658(10)
O6 O 0.23844(17) 0.43293(17) 0.09084(5)
H6 H 0.249(3) 0.527(3) 0.1003(10)
H8 H 0.331(4) 0.410(3) 0.0717(10)
loop_
_geom_bond_atom_site_label_1
_geom_bond_atom_site_label_2
_geom_bond_site_symmetry_1
_geom_bond_site_symmetry_2
Zn1 O1 1_555 1_555
O1 H3 1_555 1_555
O2 Zn1 1_555 1_555
O3 Zn1 1_555 1_555
O4 C1 1_555 1_555
O5 C3 1_555 1_555
O6 H6 1_555 1_555
N1 C2 1_555 1_555
C1 O3 1_555 1_555
C2 C1 1_555 1_555
H1 C2 1_555 1_555
H2 C2 1_555 1_555
C3 N1 1_555 1_555
H4 O1 1_555 1_555
H5 N1 1_555 1_555
H7 O2 1_555 1_555
H8 O6 1_555 1_555
Zn1F O3F 1_555 1_555
O1A Zn1 1_555 1_555
O3F C1F 1_555 1_555
O3A Zn1 1_555 1_555
O4F C1F 1_555 1_555
O5F C3F 1_555 1_555
N1F C2F 1_555 1_555
C1F C2F 1_555 1_555
C2F H1F 1_555 1_555
H2F C2F 1_555 1_555
C3F C3 1_555 1_555
H3A O1A 1_555 1_555
H4A O1A 1_555 1_555
H5F N1F 1_555 1_555
H7A O2 1_555 1_555
N1F C3F 1_555 1_555

#END
