
#######################################################################
#
#                 Cambridge Crystallographic Data Centre
#                                CCDC 
#
#######################################################################
#
# If this CIF has been generated from an entry in the Cambridge 
# Structural Database, then it will include bibliographic, chemical, 
# crystal, experimental, refinement or atomic coordinate data resulting 
# from the CCDC's data processing and validation procedures.
#
#######################################################################

data_TUFJIO
_symmetry_cell_setting           orthorhombic
_symmetry_space_group_name_H-M   'P b c n'
_symmetry_Int_Tables_number      60
_space_group_name_Hall           '-P 2n 2ab'
loop_
_symmetry_equiv_pos_site_id
_symmetry_equiv_pos_as_xyz
1 x,y,z
2 1/2-x,1/2-y,1/2+z
3 1/2+x,1/2-y,-z
4 -x,y,1/2-z
5 -x,-y,-z
6 1/2+x,1/2+y,1/2-z
7 1/2-x,1/2+y,z
8 x,-y,1/2+z
_cell_length_a                   12.0318(3)
_cell_length_b                   6.8082(4)
_cell_length_c                   14.5930(8)
_cell_angle_alpha                90
_cell_angle_beta                 90
_cell_angle_gamma                90
_cell_volume                     1195.38
loop_
_atom_site_label
_atom_site_type_symbol
_atom_site_fract_x
_atom_site_fract_y
_atom_site_fract_z
Ca1 Ca 0.0000 -0.77802(7) -0.2500
O1 O 0.05245(11) 0.0498(2) -0.11035(9)
O2 O -0.16376(11) -0.9469(2) -0.19964(10)
N1 N 0.07950(13) -0.2168(2) -0.01900(12)
O3 O 0.15498(10) -0.56187(19) -0.19841(9)
O4 O -0.00532(10) -0.5180(2) -0.12758(9)
C1 C 0.09603(15) -0.4767(3) -0.13963(13)
C2 C 0.03658(15) -0.0425(3) -0.03850(13)
C3 C 0.15263(16) -0.3198(3) -0.08133(13)
H1 H 0.2126 -0.3827 -0.0453
H2 H 0.1878 -0.2227 -0.1227
H3 H 0.0559(19) -0.274(4) 0.0334(17)
H4 H -0.214(2) -0.970(4) -0.244(2)
H6 H -0.160(2) -1.062(5) -0.166(2)
Ca1_2 Ca 0.0000 0.22198(7) -0.2500
Ca1D Ca 0.0000 -0.22198(7) 0.2500
Ca1D_2 Ca 0.0000 0.77802(7) 0.2500
O1C O -0.05245(11) -0.9502(2) -0.38965(9)
O1_2 O 0.05245(11) -0.9502(2) -0.11035(9)
O1D O -0.05245(11) -0.0498(2) 0.11035(9)
O2C O 0.16376(11) -0.9469(2) -0.30036(10)
N1D N -0.07950(13) 0.2168(2) 0.01900(12)
O3D O -0.15498(10) 0.56187(19) 0.19841(9)
O3C O -0.15498(10) -0.56187(19) -0.30159(9)
O4D O 0.00532(10) 0.5180(2) 0.12758(9)
O4C O 0.00532(10) -0.5180(2) -0.37242(9)
C1D C -0.09603(15) 0.4767(3) 0.13963(13)
C2D C -0.03658(15) 0.0425(3) 0.03850(13)
C3D C -0.15263(16) 0.3198(3) 0.08133(13)
H1D H -0.2126 0.3827 0.0453
H2D H -0.1878 0.2227 0.1227
H3D H -0.0559(19) 0.274(4) -0.0334(17)
H4C H 0.214(2) -0.970(4) -0.256(2)
H6C H 0.160(2) -1.062(5) -0.334(2)
O5 O -0.17335(13) -0.2608(2) -0.08756(11)
H5 H -0.232(3) -0.311(4) -0.1147(18)
H7 H -0.116(3) -0.341(4) -0.0943(19)
loop_
_geom_bond_atom_site_label_1
_geom_bond_atom_site_label_2
_geom_bond_site_symmetry_1
_geom_bond_site_symmetry_2
Ca1 O2 1_555 1_555
O1 C2 1_555 1_555
O2 H4 1_555 1_555
N1 C2 1_555 1_555
O3 Ca1 1_555 1_555
O4 Ca1 1_555 1_555
O5 H5 1_555 1_555
C1 O3 1_555 1_555
C2 C2D 1_555 1_555
C3 N1 1_555 1_555
H1 C3 1_555 1_555
H2 C3 1_555 1_555
H3 N1 1_555 1_555
H6 O2 1_555 1_555
H7 O5 1_555 1_555
Ca1_2 O1 1_555 1_555
Ca1D O1D 1_555 1_555
Ca1D_2 O3D 1_555 1_555
O1C Ca1 1_555 1_555
O1_2 Ca1 1_555 1_555
O1D C2D 1_555 1_555
O2C Ca1 1_555 1_555
N1D C2D 1_555 1_555
O3D C1D 1_555 1_555
O3C Ca1 1_555 1_555
O4D Ca1D_2 1_555 1_555
O4C Ca1 1_555 1_555
C1D O4D 1_555 1_555
C3D N1D 1_555 1_555
H1D C3D 1_555 1_555
H2D C3D 1_555 1_555
H3D N1D 1_555 1_555
H4C O2C 1_555 1_555
H6C O2C 1_555 1_555
O4 C1 1_555 1_555
C1 C3 1_555 1_555
C1D C3D 1_555 1_555

#END
