
#######################################################################
#
#                 Cambridge Crystallographic Data Centre
#                                CCDC 
#
#######################################################################
#
# If this CIF has been generated from an entry in the Cambridge 
# Structural Database, then it will include bibliographic, chemical, 
# crystal, experimental, refinement or atomic coordinate data resulting 
# from the CCDC's data processing and validation procedures.
#
#######################################################################

data_TUFKAH
_symmetry_cell_setting           orthorhombic
_symmetry_space_group_name_H-M   'P 21 21 21'
_symmetry_Int_Tables_number      19
_space_group_name_Hall           'P 2ac 2ab'
loop_
_symmetry_equiv_pos_site_id
_symmetry_equiv_pos_as_xyz
1 x,y,z
2 1/2-x,-y,1/2+z
3 -x,1/2+y,1/2-z
4 1/2+x,1/2-y,-z
_cell_length_a                   3.9231(19)
_cell_length_b                   14.756(7)
_cell_length_c                   16.730(7)
_cell_angle_alpha                90
_cell_angle_beta                 90
_cell_angle_gamma                90
_cell_volume                     968.487
loop_
_atom_site_label
_atom_site_type_symbol
_atom_site_fract_x
_atom_site_fract_y
_atom_site_fract_z
Hg1 Hg 0.11112(12) 0.76983(3) 0.77590(3)
Cl1 Cl -0.5114(7) 0.8322(2) 0.68158(18)
Cl2 Cl -0.2639(8) 0.7053(2) 0.86929(18)
Se1 Se 0.1549(3) 1.02311(7) 0.75143(6)
N1 N 0.083(3) 0.9405(6) 0.8277(6)
N2 N -0.029(3) 1.1140(6) 0.8086(6)
C1 C -0.285(4) 1.1299(9) 0.9400(7)
H1 H -0.3195 1.1920 0.9348
C2 C -0.381(4) 1.0862(9) 1.0077(7)
H2 H -0.4859 1.1192 1.0481
C3 C -0.327(4) 0.9906(11) 1.0193(8)
H3 H -0.4053 0.9625 1.0656
C4 C -0.160(4) 0.9411(9) 0.9622(7)
H4 H -0.1021 0.8809 0.9716
C5 C -0.132(3) 1.0801(7) 0.8778(6)
C6 C -0.077(3) 0.9833(8) 0.8885(6)
Hg1_2 Hg -0.88888(12) 0.76983(3) 0.77590(3)
Hg1B Hg -0.11112(12) 1.26983(3) 0.72410(3)
Cl1_2 Cl 0.4886(7) 0.8322(2) 0.68158(18)
Cl2_2 Cl 0.7361(8) 0.7053(2) 0.86929(18)
N2B N 0.029(3) 0.6140(6) 0.6914(6)
loop_
_geom_bond_atom_site_label_1
_geom_bond_atom_site_label_2
_geom_bond_site_symmetry_1
_geom_bond_site_symmetry_2
Hg1 Cl1 1_555 1_555
Cl1 Hg1_2 1_555 1_555
Cl2 Hg1 1_555 1_555
Se1 N1 1_555 1_555
N1 Hg1 1_555 1_555
N2 Se1 1_555 1_555
C1 H1 1_555 1_555
C2 C1 1_555 1_555
H2 C2 1_555 1_555
C3 C2 1_555 1_555
H3 C3 1_555 1_555
C4 C3 1_555 1_555
H4 C4 1_555 1_555
C5 N2 1_555 1_555
C6 N1 1_555 1_555
Hg1_2 Cl2 1_555 1_555
Hg1B N2 1_555 1_555
Cl1_2 Hg1 1_555 1_555
Cl2_2 Hg1 1_555 1_555
N2B Hg1 1_555 1_555
C1 C5 1_555 1_555
C4 C6 1_555 1_555
C5 C6 1_555 1_555

#END
