
#######################################################################
#
#                 Cambridge Crystallographic Data Centre
#                                CCDC 
#
#######################################################################
#
# If this CIF has been generated from an entry in the Cambridge 
# Structural Database, then it will include bibliographic, chemical, 
# crystal, experimental, refinement or atomic coordinate data resulting 
# from the CCDC's data processing and validation procedures.
#
#######################################################################

data_TUFKOW
_symmetry_cell_setting           orthorhombic
_symmetry_space_group_name_H-M   'P b c n'
_symmetry_Int_Tables_number      60
_space_group_name_Hall           '-P 2n 2ab'
loop_
_symmetry_equiv_pos_site_id
_symmetry_equiv_pos_as_xyz
1 x,y,z
2 1/2-x,1/2-y,1/2+z
3 1/2+x,1/2-y,-z
4 -x,y,1/2-z
5 -x,-y,-z
6 1/2+x,1/2+y,1/2-z
7 1/2-x,1/2+y,z
8 x,-y,1/2+z
_cell_length_a                   31.3116(19)
_cell_length_b                   13.5485(8)
_cell_length_c                   22.9850(15)
_cell_angle_alpha                90
_cell_angle_beta                 90
_cell_angle_gamma                90
_cell_volume                     9750.82
loop_
_atom_site_label
_atom_site_type_symbol
_atom_site_fract_x
_atom_site_fract_y
_atom_site_fract_z
C1 C 0.7007(2) 0.3114(5) 0.1642(3)
H1 H 0.6804 0.3122 0.1938
C2 C 0.7444(2) 0.3114(5) 0.1789(3)
H2 H 0.7527 0.3127 0.2177
C3 C 0.7746(2) 0.3096(5) 0.1362(3)
H3 H 0.8035 0.3093 0.1456
C4 C 0.7614(2) 0.3082(4) 0.0779(3)
C5 C 0.71723(19) 0.3107(5) 0.0660(3)
C6 C 0.7014(2) 0.3099(5) 0.0064(3)
C7 C 0.7297(2) 0.2995(6) -0.0410(3)
C8 C 0.7126(2) 0.2964(8) -0.0967(4)
H4 H 0.7304 0.2891 -0.1288
C9 C 0.6699(3) 0.3043(9) -0.1040(4)
H5 H 0.6581 0.3023 -0.1411
C10 C 0.6438(2) 0.3152(8) -0.0556(4)
H6 H 0.6145 0.3208 -0.0611
C11 C 0.78886(19) 0.3027(5) 0.0286(3)
C12 C 0.7743(2) 0.2959(5) -0.0280(3)
C13 C 0.8425(2) 0.2907(6) -0.0325(3)
C14 C 0.8870(2) 0.2848(7) -0.0521(3)
C15 C 0.9077(3) 0.1945(7) -0.0603(4)
C16 C 0.9501(4) 0.1931(10) -0.0777(5)
H7 H 0.9641 0.1334 -0.0836
C17 C 0.9711(3) 0.2798(14) -0.0862(5)
H8 H 0.9995 0.2775 -0.0982
C18 C 0.9525(3) 0.3706(11) -0.0780(5)
H9 H 0.9673 0.4293 -0.0833
C19 C 0.9100(3) 0.3687(9) -0.0612(4)
C20 C 0.6308(3) 0.0363(8) 0.2547(4)
H10 H 0.6014 0.0304 0.2594
C21 C 0.6569(3) 0.0413(10) 0.3039(4)
H11 H 0.6448 0.0383 0.3408
C22 C 0.7015(3) 0.0507(8) 0.2974(4)
H12 H 0.7194 0.0540 0.3296
C23 C 0.7178(2) 0.0550(6) 0.2410(3)
C24 C 0.6896(2) 0.0499(5) 0.1932(3)
C25 C 0.7059(2) 0.0538(5) 0.1341(3)
C26 C 0.7503(2) 0.0572(4) 0.1226(3)
C27 C 0.7637(2) 0.0580(5) 0.0640(3)
H13 H 0.7926 0.0592 0.0548
C28 C 0.7340(2) 0.0570(5) 0.0216(3)
H14 H 0.7425 0.0575 -0.0172
C29 C 0.6905(2) 0.0552(5) 0.0357(3)
H15 H 0.6706 0.0552 0.0057
C30 C 0.7623(2) 0.0666(6) 0.2284(3)
C31 C 0.7771(2) 0.0635(5) 0.1720(3)
C32 C 0.8295(2) 0.0845(7) 0.2339(4)
C33 C 0.8731(3) 0.1086(9) 0.2565(4)
C34 C 0.8956(3) 0.0421(9) 0.2914(4)
C35 C 0.9331(4) 0.0728(13) 0.3163(5)
H16 H 0.9479 0.0302 0.3408
C36 C 0.9489(4) 0.1640(15) 0.3057(6)
H17 H 0.9747 0.1823 0.3226
C37 C 0.9282(4) 0.2298(13) 0.2712(6)
H18 H 0.9401 0.2914 0.2639
C38 C 0.8895(3) 0.2046(10) 0.2470(5)
C39 C 0.5693(2) -0.1353(6) 0.1003(3)
C40 C 0.5497(2) -0.2339(5) 0.0869(3)
C41 C 0.5726(2) -0.3198(5) 0.0924(3)
H19 H 0.6005 -0.3165 0.1060
C42 C 0.5557(2) -0.4108(5) 0.0787(3)
C43 C 0.5135(2) -0.4128(6) 0.0582(3)
H20 H 0.5011 -0.4730 0.0487
C44 C 0.4906(2) -0.3289(6) 0.0522(4)
H21 H 0.4627 -0.3317 0.0382
C45 C 0.5083(2) -0.2394(6) 0.0664(3)
H22 H 0.4923 -0.1821 0.0623
C46 C 0.5649(2) 0.2162(7) 0.1874(3)
C47 C 0.5320(2) 0.2735(5) 0.2203(3)
C48 C 0.5321(3) 0.3748(6) 0.2210(4)
H23 H 0.5538 0.4091 0.2020
C49 C 0.5000 0.4265(9) 0.2500
H24 H 0.5000 0.4951 0.2500
C50 C 0.5000 0.2248(7) 0.2500
H25 H 0.5000 0.1562 0.2500
C51 C 0.5806(2) -0.5033(6) 0.0824(3)
N1 N 0.68770(17) 0.3102(4) 0.1092(2)
N2 N 0.65892(17) 0.3178(5) -0.0021(3)
N3 N 0.83253(15) 0.2997(4) 0.0246(2)
H26 H 0.8503 0.3030 0.0531
N4 N 0.80863(18) 0.2862(5) -0.0660(3)
N5 N 0.64699(18) 0.0397(5) 0.2014(3)
N6 N 0.67671(17) 0.0534(4) 0.0902(3)
N7 N 0.7952(2) 0.0791(6) 0.2669(3)
N8 N 0.82066(17) 0.0752(5) 0.1769(3)
H27 H 0.8388 0.0763 0.1488
O1 O 0.54590(17) -0.0626(4) 0.1103(3)
O2 O 0.60924(15) -0.1270(4) 0.1005(2)
O3 O 0.55767(15) 0.1271(4) 0.1794(3)
O4 O 0.59785(15) 0.2628(5) 0.1693(2)
O5 O 0.61829(16) -0.5018(4) 0.1035(2)
O6 O 0.56422(16) -0.5807(4) 0.0645(2)
F1 F 0.86682(19) 0.2710(5) 0.2168(3)
F2 F 0.89122(19) 0.4583(4) -0.0530(3)
Cl1 Cl 0.87665(10) -0.0728(3) 0.29992(16)
Cl2 Cl 0.88137(10) 0.0882(2) -0.04757(14)
Cl3 Cl 0.58345(6) 0.15674(14) 0.03396(9)
Cd1 Cd 0.603155(16) 0.04716(4) 0.11983(2)
Cd2 Cd 0.616627(15) 0.31232(4) 0.08081(2)
C46C C 0.4351(2) 0.2162(7) 0.3126(3)
C47C C 0.4680(2) 0.2735(5) 0.2797(3)
C48C C 0.4679(3) 0.3748(6) 0.2790(4)
H23C H 0.4462 0.4091 0.2980
O3C O 0.44233(15) 0.1271(4) 0.3206(3)
O4C O 0.40215(15) 0.2628(5) 0.3307(2)
C1C C 0.2993(2) 0.3114(5) 0.3358(3)
H1C H 0.3196 0.3122 0.3062
C2C C 0.2556(2) 0.3114(5) 0.3211(3)
H2C H 0.2473 0.3127 0.2823
C3C C 0.2254(2) 0.3096(5) 0.3638(3)
H3C H 0.1965 0.3093 0.3544
C4C C 0.2386(2) 0.3082(4) 0.4221(3)
C5C C 0.28277(19) 0.3107(5) 0.4340(3)
C6C C 0.2986(2) 0.3099(5) 0.4936(3)
C7C C 0.2703(2) 0.2995(6) 0.5410(3)
C8C C 0.2874(2) 0.2964(8) 0.5967(4)
H4C H 0.2696 0.2891 0.6288
C9C C 0.3301(3) 0.3043(9) 0.6040(4)
H5C H 0.3419 0.3023 0.6411
C10C C 0.3562(2) 0.3152(8) 0.5556(4)
H6C H 0.3855 0.3208 0.5611
C11C C 0.21114(19) 0.3027(5) 0.4714(3)
C12C C 0.2257(2) 0.2959(5) 0.5280(3)
C13C C 0.1575(2) 0.2907(6) 0.5325(3)
C14C C 0.1130(2) 0.2848(7) 0.5521(3)
C15C C 0.0923(3) 0.1945(7) 0.5603(4)
C16C C 0.0499(4) 0.1931(10) 0.5777(5)
H7C H 0.0359 0.1334 0.5836
C17C C 0.0289(3) 0.2798(14) 0.5862(5)
H8C H 0.0005 0.2775 0.5982
C18C C 0.0475(3) 0.3706(11) 0.5780(5)
H9C H 0.0327 0.4293 0.5833
C19C C 0.0900(3) 0.3687(9) 0.5612(4)
C20C C 0.3692(3) 0.0363(8) 0.2453(4)
H10C H 0.3986 0.0304 0.2406
C21C C 0.3431(3) 0.0413(10) 0.1961(4)
H11C H 0.3552 0.0383 0.1592
C22C C 0.2985(3) 0.0507(8) 0.2026(4)
H12C H 0.2806 0.0540 0.1704
C23C C 0.2822(2) 0.0550(6) 0.2590(3)
C24C C 0.3104(2) 0.0499(5) 0.3068(3)
C25C C 0.2941(2) 0.0538(5) 0.3659(3)
C26C C 0.2497(2) 0.0572(4) 0.3774(3)
C27C C 0.2363(2) 0.0580(5) 0.4360(3)
H13C H 0.2074 0.0592 0.4452
C28C C 0.2660(2) 0.0570(5) 0.4784(3)
H14C H 0.2575 0.0575 0.5172
C29C C 0.3095(2) 0.0552(5) 0.4643(3)
H15C H 0.3294 0.0552 0.4943
C30C C 0.2377(2) 0.0666(6) 0.2716(3)
C31C C 0.2229(2) 0.0635(5) 0.3280(3)
C32C C 0.1705(2) 0.0845(7) 0.2661(4)
C33C C 0.1269(3) 0.1086(9) 0.2435(4)
C34C C 0.1044(3) 0.0421(9) 0.2086(4)
C35C C 0.0669(4) 0.0728(13) 0.1837(5)
H16C H 0.0521 0.0302 0.1592
C36C C 0.0511(4) 0.1640(15) 0.1943(6)
H17C H 0.0253 0.1823 0.1774
C37C C 0.0718(4) 0.2298(13) 0.2288(6)
H18C H 0.0599 0.2914 0.2361
C38C C 0.1105(3) 0.2046(10) 0.2530(5)
C39C C 0.4307(2) -0.1353(6) 0.3997(3)
C40C C 0.4503(2) -0.2339(5) 0.4131(3)
C41C C 0.4274(2) -0.3198(5) 0.4076(3)
H19C H 0.3995 -0.3165 0.3940
C42C C 0.4443(2) -0.4108(5) 0.4213(3)
C43C C 0.4865(2) -0.4128(6) 0.4418(3)
H20C H 0.4989 -0.4730 0.4513
C44C C 0.5094(2) -0.3289(6) 0.4478(4)
H21C H 0.5373 -0.3317 0.4618
C45C C 0.4917(2) -0.2394(6) 0.4336(3)
H22C H 0.5077 -0.1821 0.4377
C51C C 0.4194(2) -0.5033(6) 0.4176(3)
N1C N 0.31230(17) 0.3102(4) 0.3908(2)
N2C N 0.34108(17) 0.3178(5) 0.5021(3)
N3C N 0.16747(15) 0.2997(4) 0.4754(2)
H26C H 0.1497 0.3030 0.4469
N4C N 0.19137(18) 0.2862(5) 0.5660(3)
N5C N 0.35301(18) 0.0397(5) 0.2986(3)
N6C N 0.32329(17) 0.0534(4) 0.4098(3)
N7C N 0.2048(2) 0.0791(6) 0.2331(3)
N8C N 0.17934(17) 0.0752(5) 0.3231(3)
H27C H 0.1612 0.0763 0.3512
O1C O 0.45410(17) -0.0626(4) 0.3897(3)
O2C O 0.39076(15) -0.1270(4) 0.3995(2)
O5C O 0.38171(16) -0.5018(4) 0.3965(2)
O6C O 0.43578(16) -0.5807(4) 0.4355(2)
F1C F 0.13318(19) 0.2710(5) 0.2832(3)
F2C F 0.10878(19) 0.4583(4) 0.5530(3)
Cl1C Cl 0.12335(10) -0.0728(3) 0.20008(16)
Cl2C Cl 0.11863(10) 0.0882(2) 0.54757(14)
Cl3C Cl 0.41655(6) 0.15674(14) 0.46604(9)
Cd1C Cd 0.396845(16) 0.04716(4) 0.38017(2)
Cd2C Cd 0.383373(15) 0.31232(4) 0.41919(2)
O5_2 O 0.61829(16) 0.4982(4) 0.1035(2)
O5C_2 O 0.38171(16) 0.4982(4) 0.3965(2)
O6_2 O 0.56422(16) 0.4193(4) 0.0645(2)
O6C_2 O 0.43578(16) 0.4193(4) 0.4355(2)
Cd2_2 Cd 0.616627(15) -0.68768(4) 0.08081(2)
Cd2C_2 Cd 0.383373(15) -0.68768(4) 0.41919(2)
O7 O 0.4804(4) -0.0423(12) 0.1956(6)
O8 O 0.7785(4) -0.0734(17) 0.3738(8)
O9 O 0.7935(9) 0.190(2) -0.1804(12)
loop_
_geom_bond_atom_site_label_1
_geom_bond_atom_site_label_2
_geom_bond_site_symmetry_1
_geom_bond_site_symmetry_2
C1 H1 1_555 1_555
C2 C1 1_555 1_555
H2 C2 1_555 1_555
C3 C2 1_555 1_555
H3 C3 1_555 1_555
C4 C3 1_555 1_555
C5 C4 1_555 1_555
C6 C5 1_555 1_555
C7 C6 1_555 1_555
C8 C7 1_555 1_555
H4 C8 1_555 1_555
C9 C8 1_555 1_555
H5 C9 1_555 1_555
C10 C9 1_555 1_555
H6 C10 1_555 1_555
C11 C4 1_555 1_555
C12 C7 1_555 1_555
C13 C14 1_555 1_555
C14 C15 1_555 1_555
C15 C16 1_555 1_555
C16 H7 1_555 1_555
C17 C16 1_555 1_555
H8 C17 1_555 1_555
C18 C17 1_555 1_555
H9 C18 1_555 1_555
C19 C14 1_555 1_555
C20 H10 1_555 1_555
C21 C20 1_555 1_555
H11 C21 1_555 1_555
C22 C21 1_555 1_555
H12 C22 1_555 1_555
C23 C22 1_555 1_555
C24 C23 1_555 1_555
C25 C24 1_555 1_555
C26 C25 1_555 1_555
C27 C26 1_555 1_555
H13 C27 1_555 1_555
C28 C27 1_555 1_555
H14 C28 1_555 1_555
C29 C28 1_555 1_555
H15 C29 1_555 1_555
C30 C23 1_555 1_555
C31 C26 1_555 1_555
C32 C33 1_555 1_555
C33 C34 1_555 1_555
C34 C35 1_555 1_555
C35 H16 1_555 1_555
C36 C35 1_555 1_555
H17 C36 1_555 1_555
C37 C36 1_555 1_555
H18 C37 1_555 1_555
C38 C33 1_555 1_555
C39 C40 1_555 1_555
C40 C41 1_555 1_555
C41 H19 1_555 1_555
C42 C41 1_555 1_555
C43 C42 1_555 1_555
H20 C43 1_555 1_555
C44 C43 1_555 1_555
H21 C44 1_555 1_555
C45 C40 1_555 1_555
H22 C45 1_555 1_555
C46 C47 1_555 1_555
C47 C48 1_555 1_555
C48 H23 1_555 1_555
C49 C48 1_555 1_555
H24 C49 1_555 1_555
C50 C47 1_555 1_555
H25 C50 1_555 1_555
C51 C42 1_555 1_555
N1 C1 1_555 1_555
N2 C6 1_555 1_555
N3 C11 1_555 1_555
H26 N3 1_555 1_555
N4 C12 1_555 1_555
N5 C20 1_555 1_555
N6 C25 1_555 1_555
N7 C30 1_555 1_555
N8 C31 1_555 1_555
H27 N8 1_555 1_555
O1 C39 1_555 1_555
O2 C39 1_555 1_555
O3 C46 1_555 1_555
O4 C46 1_555 1_555
O5 C51 1_555 1_555
O6 C51 1_555 1_555
F1 C38 1_555 1_555
F2 C19 1_555 1_555
Cl1 C34 1_555 1_555
Cl2 C15 1_555 1_555
Cl3 Cd1 1_555 1_555
Cd1 N5 1_555 1_555
Cd2 N1 1_555 1_555
C46C C47C 1_555 1_555
C47C C50 1_555 1_555
C48C C49 1_555 1_555
H23C C48C 1_555 1_555
O3C C46C 1_555 1_555
O4C C46C 1_555 1_555
C1C H1C 1_555 1_555
C2C C1C 1_555 1_555
H2C C2C 1_555 1_555
C3C C2C 1_555 1_555
H3C C3C 1_555 1_555
C4C C3C 1_555 1_555
C5C C4C 1_555 1_555
C6C C5C 1_555 1_555
C7C C6C 1_555 1_555
C8C C7C 1_555 1_555
H4C C8C 1_555 1_555
C9C C8C 1_555 1_555
H5C C9C 1_555 1_555
C10C C9C 1_555 1_555
H6C C10C 1_555 1_555
C11C C4C 1_555 1_555
C12C C7C 1_555 1_555
C13C C14C 1_555 1_555
C14C C15C 1_555 1_555
C15C C16C 1_555 1_555
C16C H7C 1_555 1_555
C17C C16C 1_555 1_555
H8C C17C 1_555 1_555
C18C C17C 1_555 1_555
H9C C18C 1_555 1_555
C19C C14C 1_555 1_555
C20C H10C 1_555 1_555
C21C C20C 1_555 1_555
H11C C21C 1_555 1_555
C22C C21C 1_555 1_555
H12C C22C 1_555 1_555
C23C C22C 1_555 1_555
C24C C23C 1_555 1_555
C25C C24C 1_555 1_555
C26C C25C 1_555 1_555
C27C C26C 1_555 1_555
H13C C27C 1_555 1_555
C28C C27C 1_555 1_555
H14C C28C 1_555 1_555
C29C C28C 1_555 1_555
H15C C29C 1_555 1_555
C30C C23C 1_555 1_555
C31C C26C 1_555 1_555
C32C C33C 1_555 1_555
C33C C34C 1_555 1_555
C34C C35C 1_555 1_555
C35C H16C 1_555 1_555
C36C C35C 1_555 1_555
H17C C36C 1_555 1_555
C37C C36C 1_555 1_555
H18C C37C 1_555 1_555
C38C C33C 1_555 1_555
C39C C40C 1_555 1_555
C40C C41C 1_555 1_555
C41C H19C 1_555 1_555
C42C C41C 1_555 1_555
C43C C42C 1_555 1_555
H20C C43C 1_555 1_555
C44C C43C 1_555 1_555
H21C C44C 1_555 1_555
C45C C40C 1_555 1_555
H22C C45C 1_555 1_555
C51C C42C 1_555 1_555
N1C C1C 1_555 1_555
N2C C6C 1_555 1_555
N3C C11C 1_555 1_555
H26C N3C 1_555 1_555
N4C C12C 1_555 1_555
N5C C20C 1_555 1_555
N6C C25C 1_555 1_555
N7C C30C 1_555 1_555
N8C C31C 1_555 1_555
H27C N8C 1_555 1_555
O1C C39C 1_555 1_555
O2C C39C 1_555 1_555
O5C C51C 1_555 1_555
O6C C51C 1_555 1_555
F1C C38C 1_555 1_555
F2C C19C 1_555 1_555
Cl1C C34C 1_555 1_555
Cl2C C15C 1_555 1_555
Cl3C Cd1C 1_555 1_555
Cd1C O3C 1_555 1_555
Cd2C O4C 1_555 1_555
O5_2 Cd2 1_555 1_555
O5C_2 Cd2C 1_555 1_555
O6_2 Cd2 1_555 1_555
O6C_2 Cd2C 1_555 1_555
Cd2_2 O5 1_555 1_555
Cd2C_2 O5C 1_555 1_555
C5 N1 1_555 1_555
C10 N2 1_555 1_555
C11 C12 1_555 1_555
C13 N3 1_555 1_555
C13 N4 1_555 1_555
C18 C19 1_555 1_555
C24 N5 1_555 1_555
C29 N6 1_555 1_555
C30 C31 1_555 1_555
C32 N7 1_555 1_555
C32 N8 1_555 1_555
C37 C38 1_555 1_555
C44 C45 1_555 1_555
N2 Cd2 1_555 1_555
N6 Cd1 1_555 1_555
O1 Cd1 1_555 1_555
O2 Cd1 1_555 1_555
O3 Cd1 1_555 1_555
O4 Cd2 1_555 1_555
O6 Cd2_2 1_555 1_555
Cl3 Cd2 1_555 1_555
C47C C48C 1_555 1_555
C5C N1C 1_555 1_555
C10C N2C 1_555 1_555
C11C C12C 1_555 1_555
C13C N3C 1_555 1_555
C13C N4C 1_555 1_555
C18C C19C 1_555 1_555
C24C N5C 1_555 1_555
C29C N6C 1_555 1_555
C30C C31C 1_555 1_555
C32C N7C 1_555 1_555
C32C N8C 1_555 1_555
C37C C38C 1_555 1_555
C44C C45C 1_555 1_555
N1C Cd2C 1_555 1_555
N2C Cd2C 1_555 1_555
N5C Cd1C 1_555 1_555
N6C Cd1C 1_555 1_555
O1C Cd1C 1_555 1_555
O2C Cd1C 1_555 1_555
O6C Cd2C_2 1_555 1_555
Cl3C Cd2C 1_555 1_555

#END
