
#######################################################################
#
#                 Cambridge Crystallographic Data Centre
#                                CCDC 
#
#######################################################################
#
# If this CIF has been generated from an entry in the Cambridge 
# Structural Database, then it will include bibliographic, chemical, 
# crystal, experimental, refinement or atomic coordinate data resulting 
# from the CCDC's data processing and validation procedures.
#
#######################################################################

data_TUFNUE
_symmetry_cell_setting           monoclinic
_symmetry_space_group_name_H-M   'P 21/n'
_symmetry_Int_Tables_number      14
_space_group_name_Hall           '-P 2yn'
loop_
_symmetry_equiv_pos_site_id
_symmetry_equiv_pos_as_xyz
1 x,y,z
2 1/2-x,1/2+y,1/2-z
3 -x,-y,-z
4 1/2+x,1/2-y,1/2+z
_cell_length_a                   7.3657(7)
_cell_length_b                   8.0937(10)
_cell_length_c                   13.8973(15)
_cell_angle_alpha                90
_cell_angle_beta                 104.527(9)
_cell_angle_gamma                90
_cell_volume                     802.011
loop_
_atom_site_label
_atom_site_type_symbol
_atom_site_fract_x
_atom_site_fract_y
_atom_site_fract_z
Ni1 Ni 0.0000 0.5000 0.0000
O1 O 0.41242(15) 0.65059(15) 0.23539(8)
O2 O -0.29032(15) 0.88518(13) 0.13986(8)
O3 O -0.07235(15) 0.68977(14) 0.07926(8)
O4 O 0.61788(15) 0.62412(15) 0.41206(8)
O5 O 0.40923(15) 0.86780(14) 0.36720(7)
O6 O -0.32284(16) 0.57353(15) 0.15280(8)
O7 O 0.26369(15) 0.60002(15) 0.03136(8)
N1 N 0.06983(17) 0.55941(17) 0.29794(9)
C1 C -0.0278(2) 0.72290(19) 0.27580(10)
H1 H 0.0645 0.8098 0.2800
H2 H -0.0979 0.7455 0.3248
C2 C 0.2481(2) 0.5650(2) 0.37892(10)
H3 H 0.2940 0.4533 0.3943
H4 H 0.2222 0.6116 0.4384
H5 H -0.405(4) 0.604(4) 0.182(2)
H6 H 0.652(4) 0.543(4) 0.387(2)
H7 H 0.351(3) 0.593(4) 0.0055(17)
H8 H 0.303(4) 0.625(3) 0.0904(13)
H9 H 0.093(4) 0.521(4) 0.241(2)
H10 H -0.012(4) 0.468(4) 0.316(2)
P1 P -0.18680(5) 0.72204(5) 0.15209(3)
P2 P 0.42951(5) 0.68803(5) 0.34373(3)
Ni1A Ni -0.5000 0.0000 -0.5000
Ni1A_2 Ni 0.5000 1.0000 0.5000
O1B O -0.41242(15) 0.34941(15) -0.23539(8)
O2B O 0.29032(15) 0.11482(13) -0.13986(8)
O3B O 0.07235(15) 0.31023(14) -0.07926(8)
O4B O -0.61788(15) 0.37588(15) -0.41206(8)
O5B O -0.40923(15) 0.13220(14) -0.36720(7)
O5A O 0.09077(15) 0.36780(14) 0.13280(7)
O5C O -0.09077(15) 0.63220(14) -0.13280(7)
O6B O 0.32284(16) 0.42647(15) -0.15280(8)
O7B O -0.26369(15) 0.39998(15) -0.03136(8)
N1B N -0.06983(17) 0.44059(17) -0.29794(9)
C1B C 0.0278(2) 0.27710(19) -0.27580(10)
H1B H -0.0645 0.1902 -0.2800
H2B H 0.0979 0.2545 -0.3248
C2B C -0.2481(2) 0.4350(2) -0.37892(10)
H3B H -0.2940 0.5467 -0.3943
H4B H -0.2222 0.3884 -0.4384
H5B H 0.405(4) 0.396(4) -0.182(2)
H6B H -0.652(4) 0.457(4) -0.387(2)
H7B H -0.351(3) 0.407(4) -0.0055(17)
H8B H -0.303(4) 0.375(3) -0.0904(13)
H9B H -0.093(4) 0.479(4) -0.241(2)
H10B H 0.012(4) 0.532(4) -0.316(2)
P1B P 0.18680(5) 0.27796(5) -0.15209(3)
P2B P -0.42951(5) 0.31197(5) -0.34373(3)
loop_
_geom_bond_atom_site_label_1
_geom_bond_atom_site_label_2
_geom_bond_site_symmetry_1
_geom_bond_site_symmetry_2
Ni1 O3 1_555 1_555
O1 P2 1_555 1_555
O2 P1 1_555 1_555
O3 P1 1_555 1_555
O4 H6 1_555 1_555
O5 P2 1_555 1_555
O6 H5 1_555 1_555
O7 Ni1 1_555 1_555
N1 C1 1_555 1_555
C1 H1 1_555 1_555
H2 C1 1_555 1_555
C2 N1 1_555 1_555
H3 C2 1_555 1_555
H4 C2 1_555 1_555
H7 O7 1_555 1_555
H8 O7 1_555 1_555
H9 N1 1_555 1_555
H10 N1 1_555 1_555
P1 O6 1_555 1_555
P2 O4 1_555 1_555
Ni1A O5B 1_555 1_555
Ni1A_2 O5 1_555 1_555
O1B P2B 1_555 1_555
O2B P1B 1_555 1_555
O3B Ni1 1_555 1_555
O4B H6B 1_555 1_555
O5B P2B 1_555 1_555
O5A Ni1 1_555 1_555
O5C Ni1 1_555 1_555
O6B H5B 1_555 1_555
O7B Ni1 1_555 1_555
N1B C1B 1_555 1_555
C1B H1B 1_555 1_555
H2B C1B 1_555 1_555
C2B N1B 1_555 1_555
H3B C2B 1_555 1_555
H4B C2B 1_555 1_555
H7B O7B 1_555 1_555
H8B O7B 1_555 1_555
H9B N1B 1_555 1_555
H10B N1B 1_555 1_555
P1B O3B 1_555 1_555
P2B O4B 1_555 1_555
C1 P1 1_555 1_555
C2 P2 1_555 1_555
O6B P1B 1_555 1_555
C1B P1B 1_555 1_555
C2B P2B 1_555 1_555

#END
