
#######################################################################
#
#                 Cambridge Crystallographic Data Centre
#                                CCDC 
#
#######################################################################
#
# If this CIF has been generated from an entry in the Cambridge 
# Structural Database, then it will include bibliographic, chemical, 
# crystal, experimental, refinement or atomic coordinate data resulting 
# from the CCDC's data processing and validation procedures.
#
#######################################################################

data_TUFPOB
_symmetry_cell_setting           monoclinic
_symmetry_space_group_name_H-M   'C 2/c'
_symmetry_Int_Tables_number      15
_space_group_name_Hall           '-C 2yn'
loop_
_symmetry_equiv_pos_site_id
_symmetry_equiv_pos_as_xyz
1 x,y,z
2 -x,y,1/2-z
3 1/2+x,1/2+y,z
4 1/2-x,1/2+y,1/2-z
5 -x,-y,-z
6 x,-y,1/2+z
7 1/2-x,1/2-y,-z
8 1/2+x,1/2-y,1/2+z
_cell_length_a                   11.804(2)
_cell_length_b                   5.7178(11)
_cell_length_c                   10.984(2)
_cell_angle_alpha                90
_cell_angle_beta                 115.84(3)
_cell_angle_gamma                90
_cell_volume                     667.219
loop_
_atom_site_label
_atom_site_type_symbol
_atom_site_fract_x
_atom_site_fract_y
_atom_site_fract_z
Cu1 Cu 0.7500 0.7500 1.0000
N1 N 0.9089(2) 0.6415(4) 1.1616(3)
N2 N 0.9459(2) 0.4164(5) 1.1972(3)
N3 N 0.7306(3) 1.0058(5) 1.1152(3)
H1 H 0.6622 1.0897 1.0662
H2 H 0.7981 1.0980 1.1450
H3 H 0.7229 0.9429 1.1853
C1 C 1.0000 0.7742(7) 1.2500
H4 H 1.0000 0.9369 1.2500
N4 N 0.5000 0.5000 1.0000
N5 N 0.6110(3) 0.5007(5) 1.0637(3)
N1A N 1.0911(2) 0.6415(4) 1.3384(3)
N2A N 1.0541(2) 0.4164(5) 1.3028(3)
N5D N 0.3890(3) 0.4993(5) 0.9363(3)
N3F N 0.7694(3) 0.4942(5) 0.8848(3)
H1F H 0.8378 0.4103 0.9338
H2F H 0.7019 0.4020 0.8550
H3F H 0.7771 0.5571 0.8147
Cu1A Cu 1.2500 0.7500 1.5000
Cu1B Cu 0.2500 0.2500 1.0000
N1F N 0.5911(2) 0.8585(4) 0.8384(3)
N5F N 0.8890(3) 0.9993(5) 0.9363(3)
loop_
_geom_bond_atom_site_label_1
_geom_bond_atom_site_label_2
_geom_bond_site_symmetry_1
_geom_bond_site_symmetry_2
Cu1 N1 1_555 1_555
N1 N2 1_555 1_555
N2 N2A 1_555 1_555
N3 Cu1 1_555 1_555
H1 N3 1_555 1_555
H2 N3 1_555 1_555
H3 N3 1_555 1_555
C1 N1 1_555 1_555
H4 C1 1_555 1_555
N4 N5 1_555 1_555
N5 Cu1 1_555 1_555
N1A C1 1_555 1_555
N2A N1A 1_555 1_555
N5D N4 1_555 1_555
N3F Cu1 1_555 1_555
H1F N3F 1_555 1_555
H2F N3F 1_555 1_555
H3F N3F 1_555 1_555
Cu1A N1A 1_555 1_555
Cu1B N5D 1_555 1_555
N1F Cu1 1_555 1_555
N5F Cu1 1_555 1_555

#END
