
#######################################################################
#
#                 Cambridge Crystallographic Data Centre
#                                CCDC 
#
#######################################################################
#
# If this CIF has been generated from an entry in the Cambridge 
# Structural Database, then it will include bibliographic, chemical, 
# crystal, experimental, refinement or atomic coordinate data resulting 
# from the CCDC's data processing and validation procedures.
#
#######################################################################

data_TUFSUK
_symmetry_cell_setting           triclinic
_symmetry_space_group_name_H-M   'P -1'
_symmetry_Int_Tables_number      2
_space_group_name_Hall           '-P 1'
loop_
_symmetry_equiv_pos_site_id
_symmetry_equiv_pos_as_xyz
1 x,y,z
2 -x,-y,-z
_cell_length_a                   7.6957(3)
_cell_length_b                   10.2182(5)
_cell_length_c                   15.9408(9)
_cell_angle_alpha                86.945(4)
_cell_angle_beta                 86.035(4)
_cell_angle_gamma                76.831(4)
_cell_volume                     1216.73
loop_
_atom_site_label
_atom_site_type_symbol
_atom_site_fract_x
_atom_site_fract_y
_atom_site_fract_z
Tb1 Tb 0.35401(3) 0.33674(3) 0.063406(19)
Tb2 Tb 0.61275(3) -0.12948(3) 0.324426(19)
O1 O 1.2102(5) 0.2960(4) -0.2231(3)
O2 O 1.1049(5) 0.0710(4) -0.2942(3)
O3 O 0.4894(5) 0.3548(4) -0.3485(3)
O4 O 0.6386(5) 0.1860(4) -0.2714(3)
O5 O 0.7542(5) 0.4440(4) -0.1175(3)
O6 O 0.5885(5) 0.3366(4) -0.0314(3)
O7 O -0.2150(5) 0.5162(4) 0.0474(3)
O8 O 0.0391(5) 0.3712(4) 0.0782(3)
O9 O 0.3388(5) -0.0306(4) 0.5768(3)
O10 O 0.4065(5) -0.1095(4) 0.4468(3)
O11 O 0.3964(5) 0.0905(4) 0.2999(3)
O12 O 0.6136(5) -0.0456(4) 0.1816(3)
O13 O 0.2908(5) 0.2518(4) 0.2025(3)
O14 O 0.4991(5) 0.1070(4) 0.0832(3)
O15 O 0.5960(5) 0.3596(5) 0.1445(3)
H1 H 0.609(8) 0.347(6) 0.1969(10)
H2 H 0.663(7) 0.408(5) 0.123(3)
O16 O 0.2748(5) 0.2106(4) -0.0478(3)
H3 H 0.327(7) 0.130(2) -0.057(3)
H4 H 0.230(7) 0.248(5) -0.093(2)
O17 O 0.8021(5) -0.2641(4) 0.4229(3)
H5 H 0.790(7) -0.343(2) 0.437(4)
H6 H 0.894(5) -0.249(5) 0.444(4)
C1 C 1.0601(7) 0.4880(6) -0.2948(4)
H7 H 1.1620 0.5257 -0.2942
C2 C 0.9112(7) 0.5574(6) -0.3352(4)
H8 H 0.9087 0.6442 -0.3603
C3 C 0.7663(7) 0.4997(6) -0.3386(4)
H9 H 0.6662 0.5443 -0.3689
C4 C 0.7674(7) 0.3765(6) -0.2978(4)
C5 C 0.9145(7) 0.3142(6) -0.2532(4)
C6 C 0.6210(7) 0.3013(6) -0.3057(4)
C7 C 1.0232(7) -0.0372(6) -0.1719(4)
H10 H 1.0959 -0.1197 -0.1906
C8 C 0.9231(7) -0.0340(6) -0.0967(4)
H11 H 0.9237 -0.1144 -0.0637
C9 C 0.8221(7) 0.0875(6) -0.0700(4)
H12 H 0.7527 0.0907 -0.0182
C10 C 0.8203(7) 0.2042(6) -0.1174(4)
C11 C 0.9188(7) 0.1977(6) -0.1941(4)
C12 C 0.7121(7) 0.3400(6) -0.0879(4)
C13 C -0.0500(7) 0.4669(6) 0.0362(4)
C14 C 0.4273(7) -0.0412(6) 0.5065(4)
C15 C 0.5105(7) 0.0608(6) 0.1584(4)
C16 C 0.3883(7) 0.1427(6) 0.2265(4)
N1 N 1.0615(6) 0.3677(5) -0.2565(3)
N2 N 1.0176(6) 0.0773(5) -0.2187(3)
O7A O 0.2150(5) 0.4838(4) -0.0474(3)
O8A O -0.0391(5) 0.6288(4) -0.0782(3)
C13A C 0.0500(7) 0.5331(6) -0.0362(4)
O9A O 0.6612(5) 0.0306(4) 0.4232(3)
O10A O 0.5935(5) 0.1095(4) 0.5532(3)
C14A C 0.5727(7) 0.0412(6) 0.4935(4)
Tb1A Tb -0.35401(3) 0.66326(3) -0.063406(19)
Tb2A Tb -0.61275(3) 1.12948(3) -0.324426(19)
O1A O -1.2102(5) 0.7040(4) 0.2231(3)
O2A O -1.1049(5) 0.9290(4) 0.2942(3)
O3A O -0.4894(5) 0.6452(4) 0.3485(3)
O4A O -0.6386(5) 0.8140(4) 0.2714(3)
O5A O -0.7542(5) 0.5560(4) 0.1175(3)
O6A O -0.5885(5) 0.6634(4) 0.0314(3)
O11A O -0.3964(5) 0.9095(4) -0.2999(3)
O12A O -0.6136(5) 1.0456(4) -0.1816(3)
O13A O -0.2908(5) 0.7482(4) -0.2025(3)
O14A O -0.4991(5) 0.8930(4) -0.0832(3)
O15A O -0.5960(5) 0.6404(5) -0.1445(3)
H1A H -0.609(8) 0.653(6) -0.1969(10)
H2A H -0.663(7) 0.592(5) -0.123(3)
O16A O -0.2748(5) 0.7894(4) 0.0478(3)
H3A H -0.327(7) 0.870(2) 0.057(3)
H4A H -0.230(7) 0.752(5) 0.093(2)
O17A O -0.8021(5) 1.2641(4) -0.4229(3)
H5A H -0.790(7) 1.343(2) -0.437(4)
H6A H -0.894(5) 1.249(5) -0.444(4)
C1A C -1.0601(7) 0.5120(6) 0.2948(4)
H7A H -1.1620 0.4743 0.2942
C2A C -0.9112(7) 0.4426(6) 0.3352(4)
H8A H -0.9087 0.3558 0.3603
C3A C -0.7663(7) 0.5003(6) 0.3386(4)
H9A H -0.6662 0.4557 0.3689
C4A C -0.7674(7) 0.6235(6) 0.2978(4)
C5A C -0.9145(7) 0.6858(6) 0.2532(4)
C6A C -0.6210(7) 0.6987(6) 0.3057(4)
C7A C -1.0232(7) 1.0372(6) 0.1719(4)
H10A H -1.0959 1.1197 0.1906
C8A C -0.9231(7) 1.0340(6) 0.0967(4)
H11A H -0.9237 1.1144 0.0637
C9A C -0.8221(7) 0.9125(6) 0.0700(4)
H12A H -0.7527 0.9093 0.0182
C10A C -0.8203(7) 0.7958(6) 0.1174(4)
C11A C -0.9188(7) 0.8023(6) 0.1941(4)
C12A C -0.7121(7) 0.6600(6) 0.0879(4)
C15A C -0.5105(7) 0.9392(6) -0.1584(4)
C16A C -0.3883(7) 0.8573(6) -0.2265(4)
N1A N -1.0615(6) 0.6323(5) 0.2565(3)
N2A N -1.0176(6) 0.9227(5) 0.2187(3)
Tb1_2 Tb -0.64599(3) 0.33674(3) 0.063406(19)
Tb1A_2 Tb 0.64599(3) 0.66326(3) -0.063406(19)
Tb2_2 Tb -1.38725(3) 0.87052(3) 0.324426(19)
Tb2_3 Tb -0.38725(3) 0.87052(3) 0.324426(19)
Tb2A_2 Tb 0.38725(3) 0.12948(3) -0.324426(19)
Tb2A_3 Tb 0.38725(3) 0.12948(3) 0.675574(19)
Tb2A_4 Tb 1.38725(3) 0.12948(3) -0.324426(19)
O1_2 O -0.7898(5) 1.2960(4) -0.2231(3)
O1A_2 O 0.7898(5) -0.2960(4) 0.2231(3)
O2_2 O -0.8951(5) 1.0710(4) -0.2942(3)
O2A_2 O 0.8951(5) -0.0710(4) 0.2942(3)
O3_2 O -0.5106(5) 1.3548(4) -0.3485(3)
O3A_2 O 0.5106(5) -0.3548(4) 0.3485(3)
O4_2 O -0.3614(5) 1.1860(4) -0.2714(3)
O4A_2 O 0.3614(5) -0.1860(4) 0.2714(3)
O5_2 O -0.2458(5) 0.4440(4) -0.1175(3)
O5A_2 O 0.2458(5) 0.5560(4) 0.1175(3)
O9_2 O -0.6612(5) 0.9694(4) -0.4232(3)
O10A_2 O -0.4065(5) 1.1095(4) -0.4468(3)
O18 O 0.6906(6) 0.2732(4) 0.3087(3)
H13 H 0.636(6) 0.231(6) 0.345(3)
H14 H 0.801(2) 0.254(6) 0.318(4)
O19 O 0.2923(6) 0.4960(5) -0.4752(3)
H15 H 0.373(6) 0.487(6) -0.440(3)
H16 H 0.239(7) 0.578(2) -0.478(4)
O20 O 0.9652(5) -0.1196(4) -0.3673(3)
H17 H 0.8522(15) -0.094(5) -0.361(4)
H18 H 1.010(6) -0.056(4) -0.353(4)
O21 O 0.8857(5) 0.2338(4) -0.4851(3)
H19 H 0.955(6) 0.186(5) -0.521(3)
H20 H 0.800(5) 0.197(5) -0.469(4)
loop_
_geom_bond_atom_site_label_1
_geom_bond_atom_site_label_2
_geom_bond_site_symmetry_1
_geom_bond_site_symmetry_2
Tb1 O6 1_555 1_555
Tb2 O10 1_555 1_555
O1 N1 1_555 1_555
O2 N2 1_555 1_555
O3 C6 1_555 1_555
O4 C6 1_555 1_555
O5 C12 1_555 1_555
O6 C12 1_555 1_555
O7 C13 1_555 1_555
O8 Tb1 1_555 1_555
O9 C14 1_555 1_555
O10 C14 1_555 1_555
O11 Tb2 1_555 1_555
O12 Tb2 1_555 1_555
O13 Tb1 1_555 1_555
O14 Tb1 1_555 1_555
O15 Tb1 1_555 1_555
H1 O15 1_555 1_555
H2 O15 1_555 1_555
O16 Tb1 1_555 1_555
H3 O16 1_555 1_555
H4 O16 1_555 1_555
O17 Tb2 1_555 1_555
H5 O17 1_555 1_555
H6 O17 1_555 1_555
C1 H7 1_555 1_555
C2 C1 1_555 1_555
H8 C2 1_555 1_555
C3 C2 1_555 1_555
H9 C3 1_555 1_555
C4 C3 1_555 1_555
C5 C4 1_555 1_555
C6 C4 1_555 1_555
C7 H10 1_555 1_555
C8 C7 1_555 1_555
H11 C8 1_555 1_555
C9 C8 1_555 1_555
H12 C9 1_555 1_555
C10 C9 1_555 1_555
C11 C5 1_555 1_555
C12 C10 1_555 1_555
C13 O8 1_555 1_555
C14 C14A 1_555 1_555
C15 O12 1_555 1_555
C16 O11 1_555 1_555
N1 C1 1_555 1_555
N2 C7 1_555 1_555
O18 H13 1_555 1_555
H14 O18 1_555 1_555
O19 H15 1_555 1_555
H16 O19 1_555 1_555
O20 H17 1_555 1_555
H18 O20 1_555 1_555
O21 H19 1_555 1_555
H20 O21 1_555 1_555
O7A Tb1 1_555 1_555
O8A C13A 1_555 1_555
C13A C13 1_555 1_555
O9A Tb2 1_555 1_555
O10A C14A 1_555 1_555
C14A O9A 1_555 1_555
Tb1A O7 1_555 1_555
Tb2A O11A 1_555 1_555
O1A N1A 1_555 1_555
O2A N2A 1_555 1_555
O3A C6A 1_555 1_555
O4A C6A 1_555 1_555
O5A C12A 1_555 1_555
O6A Tb1A 1_555 1_555
O11A C16A 1_555 1_555
O12A Tb2A 1_555 1_555
O13A Tb1A 1_555 1_555
O14A Tb1A 1_555 1_555
O15A Tb1A 1_555 1_555
H1A O15A 1_555 1_555
H2A O15A 1_555 1_555
O16A Tb1A 1_555 1_555
H3A O16A 1_555 1_555
H4A O16A 1_555 1_555
O17A Tb2A 1_555 1_555
H5A O17A 1_555 1_555
H6A O17A 1_555 1_555
C1A H7A 1_555 1_555
C2A C1A 1_555 1_555
H8A C2A 1_555 1_555
C3A C2A 1_555 1_555
H9A C3A 1_555 1_555
C4A C3A 1_555 1_555
C5A C4A 1_555 1_555
C6A C4A 1_555 1_555
C7A H10A 1_555 1_555
C8A C7A 1_555 1_555
H11A C8A 1_555 1_555
C9A C8A 1_555 1_555
H12A C9A 1_555 1_555
C10A C9A 1_555 1_555
C11A C5A 1_555 1_555
C12A O6A 1_555 1_555
C15A O12A 1_555 1_555
C16A O13A 1_555 1_555
N1A C1A 1_555 1_555
N2A C7A 1_555 1_555
Tb1_2 O5A 1_555 1_555
Tb1A_2 O5 1_555 1_555
Tb2_2 O1A 1_555 1_555
Tb2_3 O3A 1_555 1_555
Tb2A_2 O3 1_555 1_555
Tb2A_3 O9 1_555 1_555
Tb2A_4 O1 1_555 1_555
O1_2 Tb2A 1_555 1_555
O1A_2 Tb2 1_555 1_555
O2_2 Tb2A 1_555 1_555
O2A_2 Tb2 1_555 1_555
O3_2 Tb2A 1_555 1_555
O3A_2 Tb2 1_555 1_555
O4_2 Tb2A 1_555 1_555
O4A_2 Tb2 1_555 1_555
O5_2 Tb1A 1_555 1_555
O5A_2 Tb1 1_555 1_555
O9_2 Tb2A 1_555 1_555
O10A_2 Tb2A 1_555 1_555
O2 Tb2A_4 1_555 1_555
O4 Tb2A_2 1_555 1_555
O13 C16 1_555 1_555
O14 C15 1_555 1_555
C5 N1 1_555 1_555
C10 C11 1_555 1_555
C11 N2 1_555 1_555
C15 C16 1_555 1_555
O7A C13A 1_555 1_555
O8A Tb1A 1_555 1_555
O10A Tb2A_3 1_555 1_555
O2A Tb2_2 1_555 1_555
O4A Tb2_3 1_555 1_555
O14A C15A 1_555 1_555
C5A N1A 1_555 1_555
C10A C11A 1_555 1_555
C10A C12A 1_555 1_555
C11A N2A 1_555 1_555
C15A C16A 1_555 1_555

#END
