
#######################################################################
#
#                 Cambridge Crystallographic Data Centre
#                                CCDC 
#
#######################################################################
#
# If this CIF has been generated from an entry in the Cambridge 
# Structural Database, then it will include bibliographic, chemical, 
# crystal, experimental, refinement or atomic coordinate data resulting 
# from the CCDC's data processing and validation procedures.
#
#######################################################################

data_TUFTIZ
_symmetry_cell_setting           monoclinic
_symmetry_space_group_name_H-M   'P 21/c'
_symmetry_Int_Tables_number      14
_space_group_name_Hall           '-P 2ybc'
loop_
_symmetry_equiv_pos_site_id
_symmetry_equiv_pos_as_xyz
1 x,y,z
2 -x,1/2+y,1/2-z
3 -x,-y,-z
4 x,1/2-y,1/2+z
_cell_length_a                   16.518(5)
_cell_length_b                   8.600(5)
_cell_length_c                   16.819(5)
_cell_angle_alpha                90
_cell_angle_beta                 115.318(5)
_cell_angle_gamma                90
_cell_volume                     2159.73
loop_
_atom_site_label
_atom_site_type_symbol
_atom_site_fract_x
_atom_site_fract_y
_atom_site_fract_z
Zn1 Zn 0.74145(3) 0.26197(5) 0.55529(2)
O1 O 0.82184(16) 0.4232(3) 0.54545(16)
C1 C 0.8764(2) 0.5042(4) 0.3195(2)
H1 H 0.9114 0.4511 0.2974
C2 C 0.4394(2) 0.4132(4) 0.3629(2)
C3 C 0.8830(2) 0.6732(4) 0.5954(2)
C4 C 0.3268(2) 0.5085(4) 0.2200(2)
O2 O 0.7723(2) 0.5527(4) 0.6278(2)
O3 O 0.79052(19) 0.3353(3) 0.16711(16)
C5 C 0.2521(2) 0.6034(4) 0.1829(2)
H2 H 0.2198 0.6290 0.2148
C6 C 0.8650(2) 0.6454(4) 0.4383(2)
N1 N 0.61192(19) 0.3364(4) 0.48822(18)
C7 C 0.9078(2) 0.7142(4) 0.5280(2)
N2 N 0.35376(19) 0.4531(4) 0.30494(18)
H3 H 0.3127 0.4426 0.3232
C8 C 0.9164(2) 0.5742(4) 0.4012(2)
H4 H 0.9785 0.5735 0.4319
C9 C 0.7421(3) 0.4367(5) 0.1820(2)
C10 C 0.5977(2) 0.4336(5) 0.4209(2)
H5 H 0.6476 0.4759 0.4168
N3 N 0.26854(19) 0.6244(3) 0.04927(18)
C11 C 0.8206(2) 0.5429(5) 0.5889(2)
C12 C 0.3390(2) 0.5283(4) 0.0845(2)
H6 H 0.3683 0.5003 0.0502
C13 C 0.7852(2) 0.5128(4) 0.2706(2)
C14 C 0.4527(2) 0.3148(4) 0.4328(2)
H7 H 0.4038 0.2728 0.4389
C15 C 0.3702(2) 0.4692(4) 0.1673(2)
H8 H 0.4198 0.4036 0.1886
C16 C 0.5377(2) 0.2797(4) 0.4926(2)
H9 H 0.5448 0.2133 0.5388
C17 C 0.5157(2) 0.4742(5) 0.3586(2)
H10 H 0.5104 0.5419 0.3135
O4 O 0.6658(2) 0.4693(4) 0.12875(19)
C18 C 0.7734(2) 0.6543(4) 0.3882(2)
H11 H 0.7379 0.7033 0.4113
C19 C 0.9730(3) 0.8275(4) 0.5460(3)
H12 H 0.9902 0.8555 0.5020
C20 C 0.7337(2) 0.5916(4) 0.3047(2)
H13 H 0.6723 0.6021 0.2712
C21 C 0.2259(2) 0.6595(5) 0.0996(2)
H14 H 0.1763 0.7249 0.0766
C22 C 0.9236(3) 0.7490(5) 0.6764(2)
H15 H 0.9065 0.7234 0.7207
C23 C 0.9879(3) 0.8600(5) 0.6922(3)
H16 H 1.0144 0.9082 0.7469
C24 C 1.0134(3) 0.9004(5) 0.6268(3)
H17 H 1.0572 0.9757 0.6370
Zn1A Zn 0.25855(3) 0.76197(5) -0.05529(2)
Zn1C Zn 0.74145(3) 0.23803(5) 0.05529(2)
O3C O 0.79052(19) 0.1647(3) 0.66711(16)
N3A N 0.73146(19) 0.1244(3) 0.45073(18)
loop_
_geom_bond_atom_site_label_1
_geom_bond_atom_site_label_2
_geom_bond_site_symmetry_1
_geom_bond_site_symmetry_2
Zn1 O1 1_555 1_555
O1 C11 1_555 1_555
C1 H1 1_555 1_555
C2 N2 1_555 1_555
C3 C7 1_555 1_555
C4 C5 1_555 1_555
O2 C11 1_555 1_555
O3 C9 1_555 1_555
C5 H2 1_555 1_555
C6 C7 1_555 1_555
N1 Zn1 1_555 1_555
C7 C19 1_555 1_555
N2 C4 1_555 1_555
H3 N2 1_555 1_555
C8 C1 1_555 1_555
H4 C8 1_555 1_555
C9 C13 1_555 1_555
C10 N1 1_555 1_555
H5 C10 1_555 1_555
N3 C12 1_555 1_555
C11 C3 1_555 1_555
C12 H6 1_555 1_555
C13 C1 1_555 1_555
C14 C2 1_555 1_555
H7 C14 1_555 1_555
C15 C4 1_555 1_555
H8 C15 1_555 1_555
C16 N1 1_555 1_555
H9 C16 1_555 1_555
C17 C2 1_555 1_555
H10 C17 1_555 1_555
O4 C9 1_555 1_555
C18 C6 1_555 1_555
H11 C18 1_555 1_555
C19 H12 1_555 1_555
C20 C13 1_555 1_555
H13 C20 1_555 1_555
C21 C5 1_555 1_555
H14 C21 1_555 1_555
C22 C3 1_555 1_555
H15 C22 1_555 1_555
C23 C22 1_555 1_555
H16 C23 1_555 1_555
C24 C19 1_555 1_555
H17 C24 1_555 1_555
Zn1A N3 1_555 1_555
Zn1C O3 1_555 1_555
O3C Zn1 1_555 1_555
N3A Zn1 1_555 1_555
C6 C8 1_555 1_555
C10 C17 1_555 1_555
N3 C21 1_555 1_555
C12 C15 1_555 1_555
C14 C16 1_555 1_555
C18 C20 1_555 1_555
C23 C24 1_555 1_555

#END
