
#######################################################################
#
#                 Cambridge Crystallographic Data Centre
#                                CCDC 
#
#######################################################################
#
# If this CIF has been generated from an entry in the Cambridge 
# Structural Database, then it will include bibliographic, chemical, 
# crystal, experimental, refinement or atomic coordinate data resulting 
# from the CCDC's data processing and validation procedures.
#
#######################################################################

data_TUFWUN
_symmetry_cell_setting           orthorhombic
_symmetry_space_group_name_H-M   'F d d d'
_symmetry_Int_Tables_number      70
_space_group_name_Hall           '-F 2uv 2vw'
loop_
_symmetry_equiv_pos_site_id
_symmetry_equiv_pos_as_xyz
1 x,y,z
2 x,1/2+y,1/2+z
3 1/2+x,y,1/2+z
4 1/2+x,1/2+y,z
5 1/4-x,1/2+y,3/4-z
6 3/4-x,1/2+y,1/4-z
7 1/4-x,y,1/4-z
8 3/4-x,y,3/4-z
9 1/4-x,3/4-y,1/2+z
10 1/4-x,1/4-y,z
11 3/4-x,3/4-y,z
12 3/4-x,1/4-y,1/2+z
13 x,1/4-y,1/4-z
14 x,3/4-y,3/4-z
15 1/2+x,1/4-y,3/4-z
16 1/2+x,3/4-y,1/4-z
17 -x,-y,-z
18 -x,1/2-y,1/2-z
19 1/2-x,-y,1/2-z
20 1/2-x,1/2-y,-z
21 3/4+x,1/2-y,1/4+z
22 1/4+x,1/2-y,3/4+z
23 3/4+x,-y,3/4+z
24 1/4+x,-y,1/4+z
25 3/4+x,1/4+y,1/2-z
26 3/4+x,3/4+y,-z
27 1/4+x,1/4+y,-z
28 1/4+x,3/4+y,1/2-z
29 -x,3/4+y,3/4+z
30 -x,1/4+y,1/4+z
31 1/2-x,3/4+y,1/4+z
32 1/2-x,1/4+y,3/4+z
_cell_length_a                   19.82159(57)
_cell_length_b                   13.49752(43)
_cell_length_c                   6.98365(26)
_cell_angle_alpha                90
_cell_angle_beta                 90
_cell_angle_gamma                90
_cell_volume                     1868.42
loop_
_atom_site_label
_atom_site_type_symbol
_atom_site_fract_x
_atom_site_fract_y
_atom_site_fract_z
Ag1 Ag 0.725400(49) 0.625 0.625
C1 C 0.686278 0.073045 0.625
H1 H 0.727784 0.037853 0.625
C2 C 0.625 0.021090 0.625
C3 C 0.625 -0.082995 0.625
N1 N 0.679944 -0.142295 0.601233
N2 N 0.658957 -0.238244 0.610312
C1F C 0.563722 0.073045 0.625
H1F H 0.522216 0.037853 0.625
N1F N 0.570056 -0.142295 0.648767
N2F N 0.591043 -0.238244 0.639688
C1I C 0.563722 0.176955 0.625
H1I H 0.522216 0.212147 0.625
C2I C 0.625 0.228910 0.625
C3I C 0.625 0.332995 0.625
N1I N 0.570056 0.392295 0.601233
N2I N 0.591043 0.488244 0.610312
C1L C 0.686278 0.176955 0.625
H1L H 0.727784 0.212147 0.625
N1L N 0.679944 0.392295 0.648767
N2L N 0.658957 0.488244 0.639688
Ag1F Ag 0.524600(49) 0.625 0.625
Ag1_2 Ag 0.725400(49) -0.375 0.625
Ag1F_2 Ag 0.524600(49) -0.375 0.625
Ag1R Ag 0.774600(49) 0.375 0.875
Ag1S Ag 0.774600(49) -0.125 0.375
Ag1T Ag 0.475400(49) -0.125 0.875
Ag1V Ag 0.475400(49) 0.375 0.375
N1S N 0.820056 0.642295 0.398767
N1T N 0.429944 0.642295 0.851233
N1Y N 0.429944 0.607705 0.398767
N1DA N 0.820056 0.607705 0.851233
N2_2 N 0.658957 0.761756 0.610312
N2F_2 N 0.591043 0.761756 0.639688
loop_
_geom_bond_atom_site_label_1
_geom_bond_atom_site_label_2
_geom_bond_site_symmetry_1
_geom_bond_site_symmetry_2
Ag1 N2L 1_555 1_555
C1 H1 1_555 1_555
C2 C1 1_555 1_555
C3 C2 1_555 1_555
N1 C3 1_555 1_555
N2 N1 1_555 1_555
C1F C2 1_555 1_555
H1F C1F 1_555 1_555
N1F C3 1_555 1_555
N2F N2 1_555 1_555
C1I C1F 1_555 1_555
H1I C1I 1_555 1_555
C2I C1I 1_555 1_555
C3I C2I 1_555 1_555
N1I C3I 1_555 1_555
N2I N1I 1_555 1_555
C1L C1 1_555 1_555
H1L C1L 1_555 1_555
N1L C3I 1_555 1_555
N2L N2I 1_555 1_555
Ag1F N2I 1_555 1_555
Ag1_2 N2 1_555 1_555
Ag1F_2 N2F 1_555 1_555
Ag1R N1L 1_555 1_555
Ag1S N1 1_555 1_555
Ag1T N1F 1_555 1_555
Ag1V N1I 1_555 1_555
N1S Ag1 1_555 1_555
N1T Ag1F 1_555 1_555
N1Y Ag1F 1_555 1_555
N1DA Ag1 1_555 1_555
N2_2 Ag1 1_555 1_555
N2F_2 Ag1F 1_555 1_555
N1F N2F 1_555 1_555
C2I C1L 1_555 1_555
N1L N2L 1_555 1_555
N2_2 N2F_2 1_555 1_555

#END
