
#######################################################################
#
#                 Cambridge Crystallographic Data Centre
#                                CCDC 
#
#######################################################################
#
# If this CIF has been generated from an entry in the Cambridge 
# Structural Database, then it will include bibliographic, chemical, 
# crystal, experimental, refinement or atomic coordinate data resulting 
# from the CCDC's data processing and validation procedures.
#
#######################################################################

data_TUFXAU
_symmetry_cell_setting           triclinic
_symmetry_space_group_name_H-M   'P -1'
_symmetry_Int_Tables_number      2
_space_group_name_Hall           '-P 1'
loop_
_symmetry_equiv_pos_site_id
_symmetry_equiv_pos_as_xyz
1 x,y,z
2 -x,-y,-z
_cell_length_a                   3.7433(23)
_cell_length_b                   5.9793(24)
_cell_length_c                   12.6683(49)
_cell_angle_alpha                84.483(55)
_cell_angle_beta                 95.804(62)
_cell_angle_gamma                89.007(55)
_cell_volume                     280.681
loop_
_atom_site_label
_atom_site_type_symbol
_atom_site_fract_x
_atom_site_fract_y
_atom_site_fract_z
Cu1 Cu 0.2930(31) 0.2789(16) 0.50411(91)
O1 O 0.2156(83) 0.5817(40) 0.3987(13)
C1 C -0.238580 -0.137140 0.946920
H1 H -0.410230 -0.235800 0.908740
C2 C -0.234300 -0.130490 1.056420
H2 H -0.402870 -0.224370 1.097010
C3 C -0.004280 -0.006650 0.890500
C4 C -0.008750 -0.013590 0.776280
N1 N 0.166210 0.127300 0.709450
N2 N 0.094460 0.065830 0.609040
N3 N -0.12484 -0.113050 0.613810
N4 N -0.188620 -0.162140 0.717180
Cu1A Cu 0.7070(31) 0.7211(16) 0.49589(91)
Cu1A_2 Cu -0.2930(31) -0.2789(16) 0.49589(91)
Cu1A_3 Cu -0.2930(31) -0.2789(16) 1.49589(91)
Cu1_2 Cu 0.2930(31) 0.2789(16) 1.50411(91)
O1A O 0.7844(83) 0.4183(40) 0.6013(13)
C1A C 0.238580 0.137140 1.053080
H1A H 0.410230 0.235800 1.091260
C2A C 0.234300 0.130490 0.943580
H2A H 0.402870 0.224370 0.902990
C3A C 0.004280 0.006650 1.109500
C4A C 0.008750 0.013590 1.223720
N1A N -0.166210 -0.127300 1.290550
N2A N -0.094460 -0.065830 1.390960
N2A_2 N 0.905540 0.934170 0.390960
N3A N 0.12484 0.113050 1.386190
N3A_2 N 0.12484 0.113050 0.386190
N3_2 N 0.87516 0.886950 0.613810
N4A N 0.188620 0.162140 1.282820
loop_
_geom_bond_atom_site_label_1
_geom_bond_atom_site_label_2
_geom_bond_site_symmetry_1
_geom_bond_site_symmetry_2
Cu1 O1 1_555 1_555
O1 Cu1A 1_555 1_555
C1 H1 1_555 1_555
C2 C1 1_555 1_555
H2 C2 1_555 1_555
C3 C1 1_555 1_555
C4 C3 1_555 1_555
N1 C4 1_555 1_555
N2 Cu1 1_555 1_555
N3 N2 1_555 1_555
N4 C4 1_555 1_555
Cu1A O1A 1_555 1_555
Cu1A_2 N3 1_555 1_555
Cu1A_3 N2A 1_555 1_555
Cu1_2 N3A 1_555 1_555
O1A Cu1 1_555 1_555
C1A H1A 1_555 1_555
C2A C3 1_555 1_555
H2A C2A 1_555 1_555
C3A C2 1_555 1_555
C4A C3A 1_555 1_555
N1A C4A 1_555 1_555
N2A N1A 1_555 1_555
N2A_2 Cu1A 1_555 1_555
N3A N2A 1_555 1_555
N3A_2 Cu1 1_555 1_555
N3_2 Cu1A 1_555 1_555
N4A C4A 1_555 1_555
N1 N2 1_555 1_555
N3 N4 1_555 1_555
C1A C2A 1_555 1_555
C1A C3A 1_555 1_555
N3A N4A 1_555 1_555

#END
