
#######################################################################
#
#                 Cambridge Crystallographic Data Centre
#                                CCDC 
#
#######################################################################
#
# If this CIF has been generated from an entry in the Cambridge 
# Structural Database, then it will include bibliographic, chemical, 
# crystal, experimental, refinement or atomic coordinate data resulting 
# from the CCDC's data processing and validation procedures.
#
#######################################################################

data_TUFYAV
_symmetry_cell_setting           triclinic
_symmetry_space_group_name_H-M   'P -1'
_symmetry_Int_Tables_number      2
_space_group_name_Hall           '-P 1'
loop_
_symmetry_equiv_pos_site_id
_symmetry_equiv_pos_as_xyz
1 x,y,z
2 -x,-y,-z
_cell_length_a                   9.8824(9)
_cell_length_b                   11.5100(10)
_cell_length_c                   13.0560(12)
_cell_angle_alpha                79.856(7)
_cell_angle_beta                 77.938(7)
_cell_angle_gamma                79.111(7)
_cell_volume                     1411.63
loop_
_atom_site_label
_atom_site_type_symbol
_atom_site_fract_x
_atom_site_fract_y
_atom_site_fract_z
K1 K 0.47975(7) 0.50214(5) 0.66819(5)
B1 B 0.2650(4) 0.3050(3) 0.5985(2)
C1 C 0.1665(3) 0.2018(2) 0.6046(2)
H1 H 0.2088 0.1260 0.6426
H2 H 0.0728 0.2265 0.6465
C2 C 0.1484(4) 0.1793(3) 0.4967(2)
H3 H 0.2395 0.1426 0.4585
H4 H 0.0812 0.1227 0.5067
C3 C 0.0956(4) 0.2945(3) 0.4314(3)
H5 H 0.0022 0.3288 0.4681
H6 H 0.0847 0.2772 0.3622
C4 C 0.1960(4) 0.3866(3) 0.4132(2)
H7 H 0.2892 0.3526 0.3760
H8 H 0.1599 0.4591 0.3675
C5 C 0.2114(4) 0.4210(2) 0.5168(2)
H9 H 0.1199 0.4620 0.5506
H10 H 0.2792 0.4777 0.5020
N1 N 0.4273(3) 0.25446(18) 0.55691(17)
N2 N 0.5261(3) 0.33012(19) 0.52616(19)
C6 C 0.6502(4) 0.2606(3) 0.5063(2)
H11 H 0.7377 0.2885 0.4832
C7 C 0.6324(4) 0.1397(3) 0.5246(3)
H12 H 0.7032 0.0718 0.5167
C8 C 0.4918(4) 0.1410(2) 0.5560(2)
H13 H 0.4466 0.0724 0.5744
C9 C 0.2538(3) 0.3370(2) 0.7164(2)
C10 C 0.3341(3) 0.2676(2) 0.7879(2)
H14 H 0.4015 0.2022 0.7653
C11 C 0.3191(4) 0.2906(3) 0.8913(2)
H15 H 0.3766 0.2410 0.9369
C12 C 0.2226(4) 0.3839(3) 0.9290(3)
H16 H 0.2127 0.3985 0.9998
C13 C 0.1420(4) 0.4545(3) 0.8621(3)
H17 H 0.0754 0.5195 0.8863
C14 C 0.1560(3) 0.4327(3) 0.7583(3)
H18 H 0.0981 0.4836 0.7138
K1A K 0.52025(7) 0.49786(5) 0.33181(5)
N2A N 0.4739(3) 0.66988(19) 0.47384(19)
K2 K -0.04119(6) 0.86432(5) 1.14241(4)
B2 B 0.2904(3) 0.8174(2) 0.8883(2)
C15 C 0.3841(3) 0.7108(2) 0.82299(19)
H19 H 0.3790 0.7322 0.7469
H20 H 0.3458 0.6353 0.8494
C16 C 0.5367(3) 0.6932(2) 0.8372(2)
H21 H 0.5918 0.6271 0.7996
H22 H 0.5415 0.6709 0.9133
C17 C 0.5999(3) 0.8074(3) 0.7941(2)
H23 H 0.6997 0.7923 0.8013
H24 H 0.5960 0.8284 0.7178
C18 C 0.5237(3) 0.9134(2) 0.8514(2)
H25 H 0.5390 0.8972 0.9255
H26 H 0.5643 0.9859 0.8167
C19 C 0.3651(3) 0.9372(2) 0.85109(19)
H27 H 0.3194 0.9968 0.8988
H28 H 0.3495 0.9721 0.7788
N3 N 0.1387(2) 0.84915(18) 0.85568(15)
N4 N 0.0158(2) 0.8660(2) 0.92673(17)
C20 C -0.0870(3) 0.8952(3) 0.8691(2)
H29 H -0.1841 0.9099 0.8983
C21 C -0.0329(3) 0.9012(3) 0.7617(2)
H30 H -0.0829 0.9215 0.7047
C22 C 0.1095(3) 0.8711(3) 0.7567(2)
H31 H 0.1770 0.8664 0.6934
C23 C 0.2698(2) 0.7707(2) 1.01559(18)
C24 C 0.2174(3) 0.6631(2) 1.05845(19)
H32 H 0.1938 0.6186 1.0118
C25 C 0.1988(3) 0.6195(2) 1.1657(2)
H33 H 0.1632 0.5466 1.1908
C26 C 0.2323(3) 0.6828(2) 1.2372(2)
H34 H 0.2193 0.6538 1.3108
C27 C 0.2848(3) 0.7885(2) 1.1980(2)
H35 H 0.3079 0.8327 1.2451
C28 C 0.3040(3) 0.8305(2) 1.08952(19)
H36 H 0.3417 0.9025 1.0647
K2A K 0.04119(6) 1.13568(5) 0.85759(4)
N4A N -0.0158(2) 1.1340(2) 1.07327(17)
loop_
_geom_bond_atom_site_label_1
_geom_bond_atom_site_label_2
_geom_bond_site_symmetry_1
_geom_bond_site_symmetry_2
K1 N2 1_555 1_555
B1 C1 1_555 1_555
C1 H1 1_555 1_555
H2 C1 1_555 1_555
C2 C1 1_555 1_555
H3 C2 1_555 1_555
H4 C2 1_555 1_555
C3 C2 1_555 1_555
H5 C3 1_555 1_555
H6 C3 1_555 1_555
C4 C3 1_555 1_555
H7 C4 1_555 1_555
H8 C4 1_555 1_555
C5 B1 1_555 1_555
H9 C5 1_555 1_555
H10 C5 1_555 1_555
N1 B1 1_555 1_555
N2 N1 1_555 1_555
C6 N2 1_555 1_555
H11 C6 1_555 1_555
C7 C6 1_555 1_555
H12 C7 1_555 1_555
C8 N1 1_555 1_555
H13 C8 1_555 1_555
C9 K1 1_555 1_555
C10 K1 1_555 1_555
H14 C10 1_555 1_555
C11 K1 1_555 1_555
H15 C11 1_555 1_555
C12 K1 1_555 1_555
H16 C12 1_555 1_555
C13 K1 1_555 1_555
H17 C13 1_555 1_555
C14 K1 1_555 1_555
H18 C14 1_555 1_555
K2 N4 1_555 1_555
B2 C15 1_555 1_555
C15 H19 1_555 1_555
H20 C15 1_555 1_555
C16 C15 1_555 1_555
H21 C16 1_555 1_555
H22 C16 1_555 1_555
C17 C16 1_555 1_555
H23 C17 1_555 1_555
H24 C17 1_555 1_555
C18 C17 1_555 1_555
H25 C18 1_555 1_555
H26 C18 1_555 1_555
C19 B2 1_555 1_555
H27 C19 1_555 1_555
H28 C19 1_555 1_555
N3 B2 1_555 1_555
N4 N3 1_555 1_555
C20 N4 1_555 1_555
H29 C20 1_555 1_555
C21 C20 1_555 1_555
H30 C21 1_555 1_555
C22 N3 1_555 1_555
H31 C22 1_555 1_555
C23 K2 1_555 1_555
C24 K2 1_555 1_555
H32 C24 1_555 1_555
C25 K2 1_555 1_555
H33 C25 1_555 1_555
C26 K2 1_555 1_555
H34 C26 1_555 1_555
C27 K2 1_555 1_555
H35 C27 1_555 1_555
C28 K2 1_555 1_555
H36 C28 1_555 1_555
K1A N2 1_555 1_555
N2A K1 1_555 1_555
K2A N4 1_555 1_555
N4A K2 1_555 1_555
B1 C9 1_555 1_555
C4 C5 1_555 1_555
C7 C8 1_555 1_555
C9 C10 1_555 1_555
C9 C14 1_555 1_555
C10 C11 1_555 1_555
C11 C12 1_555 1_555
C12 C13 1_555 1_555
C13 C14 1_555 1_555
B2 C23 1_555 1_555
C18 C19 1_555 1_555
C21 C22 1_555 1_555
C23 C24 1_555 1_555
C23 C28 1_555 1_555
C24 C25 1_555 1_555
C25 C26 1_555 1_555
C26 C27 1_555 1_555
C27 C28 1_555 1_555
K1A N2A 1_555 1_555
K2A N4A 1_555 1_555

#END
