
#######################################################################
#
#                 Cambridge Crystallographic Data Centre
#                                CCDC 
#
#######################################################################
#
# If this CIF has been generated from an entry in the Cambridge 
# Structural Database, then it will include bibliographic, chemical, 
# crystal, experimental, refinement or atomic coordinate data resulting 
# from the CCDC's data processing and validation procedures.
#
#######################################################################

data_TUGCEF
_symmetry_cell_setting           monoclinic
_symmetry_space_group_name_H-M   'P 21/n'
_symmetry_Int_Tables_number      14
_space_group_name_Hall           '-P 2yn'
loop_
_symmetry_equiv_pos_site_id
_symmetry_equiv_pos_as_xyz
1 x,y,z
2 1/2-x,1/2+y,1/2-z
3 -x,-y,-z
4 1/2+x,1/2-y,1/2+z
_cell_length_a                   10.1356(7)
_cell_length_b                   13.3093(9)
_cell_length_c                   15.8909(11)
_cell_angle_alpha                90
_cell_angle_beta                 102.6020(10)
_cell_angle_gamma                90
_cell_volume                     2092
loop_
_atom_site_label
_atom_site_type_symbol
_atom_site_fract_x
_atom_site_fract_y
_atom_site_fract_z
Cd1 Cd 0.244429(16) 1.045052(13) 0.134508(11)
C1 C 0.8177(3) 0.6615(2) -0.02961(19)
H1 H 0.8014 0.7287 -0.0532
H2 H 0.9054 0.6611 0.0099
N1 N 0.2354(2) 0.88528(15) 0.08512(14)
O1 O 0.50989(17) 1.01742(13) 0.14984(13)
C2 C 0.8838(2) 1.17295(17) 0.18352(14)
O2 O 0.41074(15) 1.16094(13) 0.16868(12)
N2 N 0.27295(19) 0.74313(15) 0.02816(13)
C3 C 0.8980(2) 1.25931(17) 0.23427(15)
H3 H 0.9808 1.2923 0.2479
O3 O 0.79687(18) 1.37680(14) 0.31902(13)
H4 H 0.8621 1.4115 0.3152
O4 O 0.19619(18) 1.08444(14) -0.01870(11)
C4 C 0.5149(2) 1.10935(19) 0.16824(15)
C5 C 0.7887(2) 1.29618(18) 0.26460(15)
C6 C 0.6494(2) 1.16250(17) 0.19127(15)
C7 C 0.6369(3) 0.54906(19) 0.13344(16)
H5 H 0.6572 0.5100 0.1831
C8 C 0.7594(2) 1.12468(18) 0.16251(14)
H6 H 0.7498 1.0667 0.1290
C9 C 0.6645(2) 1.24826(18) 0.24203(15)
H7 H 0.5907 1.2738 0.2611
N3 N 0.1398(2) 0.74218(16) 0.02895(17)
C10 C 0.4737(2) 0.63582(17) 0.02573(16)
C11 C 0.3276(2) 0.82848(19) 0.06040(16)
H8 H 0.4177 0.8463 0.0651
C12 C 0.7100(2) 0.63478(19) 0.01865(16)
C13 C 0.3285(3) 0.66060(19) -0.01511(17)
H9 H 0.3225 0.6787 -0.0750
H10 H 0.2737 0.6011 -0.0142
C14 C 0.5767(3) 0.66379(18) -0.01432(16)
H11 H 0.5564 0.7026 -0.0641
C15 C 0.5054(3) 0.57849(19) 0.10033(16)
H12 H 0.4375 0.5598 0.1282
C16 C 0.1232(3) 0.82863(19) 0.0641(2)
H13 H 0.0402 0.8494 0.0739
C17 C 0.7386(3) 0.5777(2) 0.09275(17)
H14 H 0.8272 0.5581 0.1157
C18 C 1.0048(2) 1.12771(18) 0.15711(15)
O5 O 0.99342(16) 1.04506(13) 0.11732(12)
O6 O 1.11638(15) 1.17205(13) 0.17844(12)
N4 N 0.8181(2) 0.58997(16) -0.09974(14)
N5 N 0.8584(2) 0.49372(18) -0.08132(15)
C19 C 0.7763(3) 0.6016(2) -0.18373(17)
H15 H 0.7437 0.6613 -0.2109
C20 C 0.8388(3) 0.4532(2) -0.15808(18)
H16 H 0.8589 0.3863 -0.1666
N6 N 0.7875(2) 0.51541(16) -0.22383(14)
H17 H 0.1415 1.0433 -0.0494
H18 H 0.2414 1.1070 -0.0540
Cd1_2 Cd 1.244429(16) 1.045052(13) 0.134508(11)
Cd1C Cd 0.744429(16) 0.454948(13) -0.365492(11)
O5_2 O -0.00658(16) 1.04506(13) 0.11732(12)
O6_2 O 0.11638(15) 1.17205(13) 0.17844(12)
N6C N 0.2875(2) 0.98459(16) 0.27617(14)
loop_
_geom_bond_atom_site_label_1
_geom_bond_atom_site_label_2
_geom_bond_site_symmetry_1
_geom_bond_site_symmetry_2
Cd1 N1 1_555 1_555
C1 H1 1_555 1_555
H2 C1 1_555 1_555
N1 C11 1_555 1_555
O1 Cd1 1_555 1_555
C2 C3 1_555 1_555
O2 Cd1 1_555 1_555
N2 N3 1_555 1_555
C3 H3 1_555 1_555
O3 H4 1_555 1_555
O4 Cd1 1_555 1_555
C4 O1 1_555 1_555
C5 C3 1_555 1_555
C6 C4 1_555 1_555
C7 H5 1_555 1_555
C8 C2 1_555 1_555
H6 C8 1_555 1_555
C9 C5 1_555 1_555
H7 C9 1_555 1_555
N3 C16 1_555 1_555
C10 C13 1_555 1_555
C11 N2 1_555 1_555
H8 C11 1_555 1_555
C12 C1 1_555 1_555
C13 N2 1_555 1_555
H9 C13 1_555 1_555
H10 C13 1_555 1_555
C14 C10 1_555 1_555
H11 C14 1_555 1_555
C15 C7 1_555 1_555
H12 C15 1_555 1_555
C16 N1 1_555 1_555
H13 C16 1_555 1_555
C17 C7 1_555 1_555
H14 C17 1_555 1_555
C18 C2 1_555 1_555
O5 C18 1_555 1_555
O6 C18 1_555 1_555
N4 C1 1_555 1_555
N5 N4 1_555 1_555
C19 N4 1_555 1_555
H15 C19 1_555 1_555
C20 N5 1_555 1_555
H16 C20 1_555 1_555
N6 C19 1_555 1_555
H17 O4 1_555 1_555
H18 O4 1_555 1_555
Cd1_2 O5 1_555 1_555
Cd1C N6 1_555 1_555
O5_2 Cd1 1_555 1_555
O6_2 Cd1 1_555 1_555
N6C Cd1 1_555 1_555
O2 C4 1_555 1_555
O3 C5 1_555 1_555
C6 C8 1_555 1_555
C6 C9 1_555 1_555
C10 C15 1_555 1_555
C12 C14 1_555 1_555
C12 C17 1_555 1_555
O6 Cd1_2 1_555 1_555
C20 N6 1_555 1_555

#END
