
#######################################################################
#
#                 Cambridge Crystallographic Data Centre
#                                CCDC 
#
#######################################################################
#
# If this CIF has been generated from an entry in the Cambridge 
# Structural Database, then it will include bibliographic, chemical, 
# crystal, experimental, refinement or atomic coordinate data resulting 
# from the CCDC's data processing and validation procedures.
#
#######################################################################

data_TUGCIJ
_symmetry_cell_setting           monoclinic
_symmetry_space_group_name_H-M   'P 21/n'
_symmetry_Int_Tables_number      14
_space_group_name_Hall           '-P 2yn'
loop_
_symmetry_equiv_pos_site_id
_symmetry_equiv_pos_as_xyz
1 x,y,z
2 1/2-x,1/2+y,1/2-z
3 -x,-y,-z
4 1/2+x,1/2-y,1/2+z
_cell_length_a                   7.7959(9)
_cell_length_b                   16.2476(17)
_cell_length_c                   16.8236(18)
_cell_angle_alpha                90
_cell_angle_beta                 95.281(2)
_cell_angle_gamma                90
_cell_volume                     2121.91
loop_
_atom_site_label
_atom_site_type_symbol
_atom_site_fract_x
_atom_site_fract_y
_atom_site_fract_z
Zn1 Zn 1.09352(7) 0.31335(3) 0.71724(3)
O1 O 0.9287(4) 0.3219(2) 0.62281(19)
C1 C 0.7893(7) 0.3606(3) 0.6318(3)
N1 N 1.3715(5) 0.1793(2) 0.5639(3)
N2 N 1.2697(5) 0.2485(2) 0.6587(2)
O2 O 0.1972(4) 0.4849(2) 0.5590(2)
C2 C 0.6593(6) 0.3601(3) 0.5586(3)
C3 C 0.6942(6) 0.3180(3) 0.4896(3)
H1 H 0.7979 0.2899 0.4888
C4 C 0.5777(6) 0.3174(3) 0.4225(3)
C5 C 0.4248(6) 0.3605(3) 0.4242(3)
H2 H 0.3461 0.3616 0.3792
N3 N 0.7733(5) -0.0566(2) 0.2537(3)
C6 C 0.2185(6) 0.4448(3) 0.4943(3)
C7 C 0.5055(6) 0.4027(3) 0.5594(3)
H3 H 0.4815 0.4316 0.6048
C8 C 1.2984(6) 0.0622(3) 0.4712(3)
O3 O 0.7555(5) 0.3950(2) 0.6932(2)
O4 O 0.1083(5) 0.4426(2) 0.4362(2)
O5 O 0.7582(5) 0.2358(2) 0.3481(2)
C9 C 0.3880(6) 0.4023(3) 0.4928(3)
C10 C 1.1276(6) -0.0841(3) 0.4340(3)
H4 H 1.0720 -0.1337 0.4216
C11 C 1.2445(6) 0.2269(3) 0.5834(3)
H5 H 1.1506 0.2428 0.5487
C12 C 0.6139(7) 0.2671(3) 0.3519(3)
C13 C 1.2415(6) 0.0437(3) 0.3925(3)
H6 H 1.2613 0.0808 0.3522
N4 N 0.9174(5) -0.0098(2) 0.2681(2)
C14 C 1.1805(6) -0.0665(3) 0.5126(3)
H7 H 1.1587 -0.1032 0.5529
C15 C 1.0885(6) -0.0474(3) 0.2884(3)
H8 H 1.1691 -0.0258 0.2530
H9 H 1.0805 -0.1064 0.2804
N5 N 1.4876(6) 0.1679(3) 0.6292(3)
C16 C 1.4196(7) 0.2113(3) 0.6837(3)
H10 H 1.4707 0.2161 0.7357
C17 C 1.1549(6) -0.0299(3) 0.3734(3)
C18 C 0.8753(7) 0.0694(3) 0.2628(3)
H11 H 0.9532 0.1127 0.2702
C19 C 1.2673(6) 0.0073(3) 0.5311(3)
H12 H 1.3044 0.0196 0.5839
C20 C 0.6535(7) -0.0006(3) 0.2400(3)
H13 H 0.5384 -0.0141 0.2271
C21 C 1.3971(7) 0.1411(3) 0.4887(3)
H14 H 1.5189 0.1297 0.4874
H15 H 1.3643 0.1801 0.4463
O6 O 0.4921(5) 0.2565(2) 0.29672(19)
N6 N 0.7087(5) 0.0780(2) 0.2458(2)
H16 H 0.0916 0.4851 0.5672
Zn1C Zn 0.59352(7) 0.18665(3) 0.21724(3)
O5C O 1.2582(5) 0.2642(2) 0.8481(2)
O6C O 0.9921(5) 0.2435(2) 0.79672(19)
N6C N 1.2087(5) 0.4220(2) 0.7458(2)
O7 O 0.0817(8) 0.2547(5) 0.3994(5)
H17 H -0.0281 0.2490 0.3820
H18 H 0.0868 0.3080 0.4097
loop_
_geom_bond_atom_site_label_1
_geom_bond_atom_site_label_2
_geom_bond_site_symmetry_1
_geom_bond_site_symmetry_2
Zn1 O1 1_555 1_555
O1 C1 1_555 1_555
C1 C2 1_555 1_555
N1 C11 1_555 1_555
N2 Zn1 1_555 1_555
O2 C6 1_555 1_555
C2 C3 1_555 1_555
C3 H1 1_555 1_555
C4 C3 1_555 1_555
C5 C4 1_555 1_555
H2 C5 1_555 1_555
N3 N4 1_555 1_555
C6 O4 1_555 1_555
C7 C2 1_555 1_555
H3 C7 1_555 1_555
C8 C13 1_555 1_555
O3 C1 1_555 1_555
O5 C12 1_555 1_555
C9 C5 1_555 1_555
C10 H4 1_555 1_555
C11 N2 1_555 1_555
H5 C11 1_555 1_555
C12 C4 1_555 1_555
C13 H6 1_555 1_555
N4 C15 1_555 1_555
C14 C10 1_555 1_555
H7 C14 1_555 1_555
C15 H8 1_555 1_555
H9 C15 1_555 1_555
N5 N1 1_555 1_555
C16 N2 1_555 1_555
H10 C16 1_555 1_555
C17 C10 1_555 1_555
C18 N4 1_555 1_555
H11 C18 1_555 1_555
C19 C8 1_555 1_555
H12 C19 1_555 1_555
C20 N3 1_555 1_555
H13 C20 1_555 1_555
C21 N1 1_555 1_555
H14 C21 1_555 1_555
H15 C21 1_555 1_555
O6 C12 1_555 1_555
N6 C18 1_555 1_555
H16 O2 1_555 1_555
O7 H17 1_555 1_555
H18 O7 1_555 1_555
Zn1C O5 1_555 1_555
O5C Zn1 1_555 1_555
O6C Zn1 1_555 1_555
N6C Zn1 1_555 1_555
C6 C9 1_555 1_555
C7 C9 1_555 1_555
C8 C21 1_555 1_555
C13 C17 1_555 1_555
C14 C19 1_555 1_555
C15 C17 1_555 1_555
N5 C16 1_555 1_555
C20 N6 1_555 1_555
O6 Zn1C 1_555 1_555
N6 Zn1C 1_555 1_555

#END
