
#######################################################################
#
#                 Cambridge Crystallographic Data Centre
#                                CCDC 
#
#######################################################################
#
# If this CIF has been generated from an entry in the Cambridge 
# Structural Database, then it will include bibliographic, chemical, 
# crystal, experimental, refinement or atomic coordinate data resulting 
# from the CCDC's data processing and validation procedures.
#
#######################################################################

data_TUGCOP
_symmetry_cell_setting           monoclinic
_symmetry_space_group_name_H-M   'P 21/n'
_symmetry_Int_Tables_number      14
_space_group_name_Hall           '-P 2yn'
loop_
_symmetry_equiv_pos_site_id
_symmetry_equiv_pos_as_xyz
1 x,y,z
2 1/2-x,1/2+y,1/2-z
3 -x,-y,-z
4 1/2+x,1/2-y,1/2+z
_cell_length_a                   6.0658(7)
_cell_length_b                   8.7787(11)
_cell_length_c                   29.510(4)
_cell_angle_alpha                90
_cell_angle_beta                 92.292(1)
_cell_angle_gamma                90
_cell_volume                     1570.15
loop_
_atom_site_label
_atom_site_type_symbol
_atom_site_fract_x
_atom_site_fract_y
_atom_site_fract_z
Cd1 Cd 0.6775 1.0760 0.7623
O1 O -0.0138(2) 0.5002(2) 0.8076
O2 O 0.1589(2) 0.6841(2) 0.7724
O3 O 0.6539(2) 0.7808(2) 0.7714
O4 O 0.4851(3) 0.9416(2) 0.8153
O5 O 0.8600(2) 0.7652(2) 0.8720
O6 O 1.1314(3) 1.3684(2) 0.9770(1)
O7 O 0.7953(3) 1.3333(2) 1.0033(1)
H1 H 0.8201 1.4172 1.0146
O8 O 0.7223(4) 1.2455(2) 0.8227(1)
H2 H 0.8135 1.3186 0.8208
H3 H 0.6532 1.2570 0.8469
O9 O 1.0249(3) 0.9963(2) 0.7748(1)
H4 H 1.1222 1.0640 0.7706
H5 H 1.0722 0.9063 0.7794
C1 C 0.3281(3) 0.5861(2) 0.8410(1)
C2 C 0.5105(3) 0.6846(2) 0.8401(1)
C3 C 0.6745(3) 0.6709(2) 0.8741(1)
C4 C 0.6656(4) 0.5630(2) 0.9082(1)
H6 H 0.7791 0.5553 0.9302
C5 C 0.4849(4) 0.4666(3) 0.9090(1)
H7 H 0.4759 0.3940 0.9318
C6 C 0.3172(4) 0.4785(2) 0.8758(1)
H8 H 0.1958 0.4140 0.8767
C7 C 0.1457(3) 0.5911(2) 0.8051(1)
C8 C 0.5469(3) 0.8090(2) 0.8056(1)
C9 C 0.8754(3) 0.8882(2) 0.9008(1)
C10 C 0.7093(4) 0.9328(3) 0.9293(1)
H9 H 0.5802 0.8762 0.9307
C11 C 0.7394(4) 1.0631(3) 0.9555(1)
H10 H 0.6290 1.0942 0.9745
C12 C 0.9329(4) 1.1474(2) 0.9538(1)
C13 C 1.0985(4) 1.0992(3) 0.9255(1)
H11 H 1.2293 1.1542 0.9247
C14 C 1.0709(4) 0.9709(3) 0.8989(1)
H12 H 1.1811 0.9401 0.8799
C15 C 0.9651(4) 1.2916(2) 0.9791(1)
Cd1A Cd -0.1775 0.5760 0.7377
Cd1A_2 Cd 0.8225 0.5760 0.7377
O1A O 0.5138(2) 1.0002(2) 0.6924
O2A O 0.3411(2) 1.1841(2) 0.7276
O3A O 0.8461(2) 1.2808(2) 0.7286
loop_
_geom_bond_atom_site_label_1
_geom_bond_atom_site_label_2
_geom_bond_site_symmetry_1
_geom_bond_site_symmetry_2
Cd1 O3 1_555 1_555
O1 C7 1_555 1_555
O2 C7 1_555 1_555
O3 C8 1_555 1_555
O4 Cd1 1_555 1_555
O5 C3 1_555 1_555
O6 C15 1_555 1_555
O7 H1 1_555 1_555
O8 Cd1 1_555 1_555
H2 O8 1_555 1_555
H3 O8 1_555 1_555
O9 Cd1 1_555 1_555
H4 O9 1_555 1_555
H5 O9 1_555 1_555
C1 C2 1_555 1_555
C2 C3 1_555 1_555
C3 C4 1_555 1_555
C4 H6 1_555 1_555
C5 C4 1_555 1_555
H7 C5 1_555 1_555
C6 C1 1_555 1_555
H8 C6 1_555 1_555
C7 C1 1_555 1_555
C8 O4 1_555 1_555
C9 O5 1_555 1_555
C10 C9 1_555 1_555
H9 C10 1_555 1_555
C11 C10 1_555 1_555
H10 C11 1_555 1_555
C12 C11 1_555 1_555
C13 C12 1_555 1_555
H11 C13 1_555 1_555
C14 C9 1_555 1_555
H12 C14 1_555 1_555
C15 O7 1_555 1_555
Cd1A O1 1_555 1_555
Cd1A_2 O3 1_555 1_555
O1A Cd1 1_555 1_555
O2A Cd1 1_555 1_555
O3A Cd1 1_555 1_555
O2 Cd1A 1_555 1_555
C2 C8 1_555 1_555
C5 C6 1_555 1_555
C12 C15 1_555 1_555
C13 C14 1_555 1_555

#END
