
#######################################################################
#
#                 Cambridge Crystallographic Data Centre
#                                CCDC 
#
#######################################################################
#
# If this CIF has been generated from an entry in the Cambridge 
# Structural Database, then it will include bibliographic, chemical, 
# crystal, experimental, refinement or atomic coordinate data resulting 
# from the CCDC's data processing and validation procedures.
#
#######################################################################

data_TUGDOQ
_symmetry_cell_setting           triclinic
_symmetry_space_group_name_H-M   'P -1'
_symmetry_Int_Tables_number      2
_space_group_name_Hall           '-P 1'
loop_
_symmetry_equiv_pos_site_id
_symmetry_equiv_pos_as_xyz
1 x,y,z
2 -x,-y,-z
_cell_length_a                   7.2629(8)
_cell_length_b                   7.5898(8)
_cell_length_c                   15.5223(16)
_cell_angle_alpha                96.556(9)
_cell_angle_beta                 102.874(8)
_cell_angle_gamma                96.530(9)
_cell_volume                     820.087
loop_
_atom_site_label
_atom_site_type_symbol
_atom_site_fract_x
_atom_site_fract_y
_atom_site_fract_z
Ba1 Ba 0.78234(9) 0.52606(9) 0.55977(4)
O1 O 0.5398(13) 0.4848(15) 0.3756(6)
O2 O 0.8345(12) 0.4313(14) 0.3806(6)
O3 O 0.1893(16) 0.0301(14) -0.3623(6)
O4 O 0.5017(16) 0.0384(15) -0.3539(6)
O5 O 0.4879(16) 0.2230(13) 0.4961(7)
H1 H 0.45(3) 0.14(3) 0.445(17)
H2 H 0.56(6) 0.20(6) 0.54(3)
O6 O 1.0219(17) 0.7743(14) 0.4859(7)
H3 H 0.98(2) 0.83(2) 0.441(12)
H4 H 1.12(3) 0.82(2) 0.528(12)
O7 O 0.8345(18) 0.327(2) 0.7050(8)
H5 H 0.832(18) 0.210(19) 0.696(8)
H6 H 0.89(4) 0.38(4) 0.760(18)
O8 O 0.8616(18) 0.8502(19) 0.6788(9)
H7 H 0.93(8) 0.92(8) 0.65(4)
H8 H 0.77(2) 0.91(2) 0.691(11)
N1 N 0.7110(18) 0.280(2) 0.1059(8)
N2 N 0.6221(19) 0.157(2) -0.0757(8)
C1 C 0.755(2) 0.326(2) 0.1951(9)
H9 H 0.8771 0.3200 0.2280
C2 C 0.6168(19) 0.3822(17) 0.2396(8)
C3 C 0.6684(18) 0.446(2) 0.3411(7)
C4 C 0.435(2) 0.386(2) 0.1887(8)
H10 H 0.3414 0.4204 0.2163
C5 C 0.3930(19) 0.338(2) 0.0983(8)
H11 H 0.2722 0.3458 0.0641
C6 C 0.5296(19) 0.2796(18) 0.0578(8)
C7 C 0.4849(18) 0.2234(17) -0.0406(8)
C8 C 0.3088(19) 0.2378(19) -0.0906(8)
H12 H 0.2175 0.2843 -0.0648
C9 C 0.272(2) 0.181(2) -0.1803(9)
H13 H 0.1534 0.1899 -0.2159
C10 C 0.4066(19) 0.1106(17) -0.2201(8)
C11 C 0.364(2) 0.0646(14) -0.3209(8)
C12 C 0.583(2) 0.101(2) -0.1658(9)
H14 H 0.6761 0.0556 -0.1907
Ba1A Ba 0.21766(9) 0.47394(9) 0.44023(4)
Ba1A_2 Ba 1.21766(9) 0.47394(9) 0.44023(4)
O1A O 0.4602(13) 0.5152(15) 0.6244(6)
O2A O 1.1655(12) 0.5687(14) 0.6194(6)
O5A O 0.5121(16) 0.7770(13) 0.5039(7)
O6A O 0.9781(17) 0.2257(14) 0.5141(7)
loop_
_geom_bond_atom_site_label_1
_geom_bond_atom_site_label_2
_geom_bond_site_symmetry_1
_geom_bond_site_symmetry_2
Ba1 O1 1_555 1_555
O1 C3 1_555 1_555
O2 Ba1 1_555 1_555
O3 C11 1_555 1_555
O4 C11 1_555 1_555
O5 Ba1 1_555 1_555
H1 O5 1_555 1_555
H2 O5 1_555 1_555
O6 Ba1 1_555 1_555
H3 O6 1_555 1_555
H4 O6 1_555 1_555
O7 Ba1 1_555 1_555
H5 O7 1_555 1_555
H6 O7 1_555 1_555
O8 Ba1 1_555 1_555
H7 O8 1_555 1_555
H8 O8 1_555 1_555
N1 C1 1_555 1_555
N2 C7 1_555 1_555
C1 H9 1_555 1_555
C2 C1 1_555 1_555
C3 O2 1_555 1_555
C4 C2 1_555 1_555
H10 C4 1_555 1_555
C5 C4 1_555 1_555
H11 C5 1_555 1_555
C6 N1 1_555 1_555
C7 C6 1_555 1_555
C8 C7 1_555 1_555
H12 C8 1_555 1_555
C9 C8 1_555 1_555
H13 C9 1_555 1_555
C10 C9 1_555 1_555
C11 C10 1_555 1_555
C12 N2 1_555 1_555
H14 C12 1_555 1_555
Ba1A O1 1_555 1_555
Ba1A_2 O2 1_555 1_555
O1A Ba1 1_555 1_555
O2A Ba1 1_555 1_555
O5A Ba1 1_555 1_555
O6A Ba1 1_555 1_555
O5 Ba1A 1_555 1_555
O6 Ba1A_2 1_555 1_555
C2 C3 1_555 1_555
C5 C6 1_555 1_555
C10 C12 1_555 1_555
Ba1A O1A 1_555 1_555
Ba1A O5A 1_555 1_555
Ba1A_2 O2A 1_555 1_555
Ba1A_2 O6A 1_555 1_555

#END
