
#######################################################################
#
#                 Cambridge Crystallographic Data Centre
#                                CCDC 
#
#######################################################################
#
# If this CIF has been generated from an entry in the Cambridge 
# Structural Database, then it will include bibliographic, chemical, 
# crystal, experimental, refinement or atomic coordinate data resulting 
# from the CCDC's data processing and validation procedures.
#
#######################################################################

data_TUGDAC
_symmetry_cell_setting           monoclinic
_symmetry_space_group_name_H-M   'P 21/n'
_symmetry_Int_Tables_number      14
_space_group_name_Hall           '-P 2yn'
loop_
_symmetry_equiv_pos_site_id
_symmetry_equiv_pos_as_xyz
1 x,y,z
2 1/2-x,1/2+y,1/2-z
3 -x,-y,-z
4 1/2+x,1/2-y,1/2+z
_cell_length_a                   10.719(2)
_cell_length_b                   10.238(2)
_cell_length_c                   18.170(4)
_cell_angle_alpha                90
_cell_angle_beta                 91.23(3)
_cell_angle_gamma                90
_cell_volume                     1993.54
loop_
_atom_site_label
_atom_site_type_symbol
_atom_site_fract_x
_atom_site_fract_y
_atom_site_fract_z
Cu1 Cu 0.37195(7) 0.12965(6) 0.16994(3)
C1 C 0.4189(6) 0.7314(5) 0.3220(3)
H1 H 0.3902 0.8043 0.3471
C2 C 0.5425(6) 0.7245(5) 0.3066(3)
H2 H 0.5958 0.7929 0.3194
C3 C 0.5875(5) 0.6165(5) 0.2721(3)
H3 H 0.6718 0.6092 0.2616
C4 C 0.5043(5) 0.5179(5) 0.2529(3)
C5 C 0.3814(5) 0.5338(5) 0.2690(3)
H4 H 0.3257 0.4679 0.2555
C6 C 0.4633(7) 0.2278(6) 0.3057(3)
H5 H 0.4064 0.2814 0.3335
H6 H 0.5471 0.2426 0.3252
C7 C 0.4297(6) 0.0860(6) 0.3150(3)
C8 C 0.3146(6) 0.3303(6) 0.0510(4)
H7 H 0.3132 0.3934 0.0878
C9 C 0.2919(7) 0.3688(7) -0.0214(4)
H8 H 0.2752 0.4559 -0.0324
C10 C 0.2944(6) 0.2797(7) -0.0751(4)
H9 H 0.2818 0.3050 -0.1239
C11 C 0.3160(5) 0.1483(6) -0.0580(3)
C12 C 0.3353(5) 0.1176(5) 0.0160(3)
C13 C 0.3513(5) -0.0142(5) 0.0370(3)
C14 C 0.3473(5) -0.1149(6) -0.0144(3)
C15 C 0.3606(6) -0.2425(6) 0.0107(4)
H10 H 0.3595 -0.3120 -0.0223
C16 C 0.3749(6) -0.2643(6) 0.0838(4)
H11 H 0.3838 -0.3491 0.1014
C17 C 0.3763(6) -0.1601(5) 0.1324(3)
H12 H 0.3859 -0.1770 0.1825
C18 C 0.3311(6) -0.0803(7) -0.0894(3)
H13 H 0.3314 -0.1455 -0.1251
C19 C 0.3156(6) 0.0431(7) -0.1101(3)
H14 H 0.3042 0.0618 -0.1599
N1 N 0.3371(4) 0.6388(4) 0.3030(2)
N2 N 0.4571(4) 0.2663(4) 0.2284(2)
N3 N 0.3380(4) 0.2082(4) 0.0699(2)
N4 N 0.3647(4) -0.0377(4) 0.1104(2)
O1 O 0.6769(4) 0.3498(4) 0.2352(3)
O2 O 0.5415(4) 0.4015(4) 0.1301(2)
O3 O 0.4007(4) 0.0254(4) 0.2572(2)
O4 O 0.4322(7) 0.0388(5) 0.3766(3)
S1 S 0.55274(13) 0.37457(14) 0.20714(8)
Cu1A Cu 0.12805(7) 0.62965(6) 0.33006(3)
N1A N 0.1629(4) 0.1388(4) 0.1970(2)
O5 O 0.4243(10) 0.1333(9) 0.5232(5)
H15 H 0.4679 0.0804 0.5514
H16 H 0.4292 0.1019 0.4794
O6 O 0.4867(17) 0.4175(15) 0.4854(10)
H17 H 0.4988 0.4805 0.4647
H18 H 0.5483 0.3625 0.4958
loop_
_geom_bond_atom_site_label_1
_geom_bond_atom_site_label_2
_geom_bond_site_symmetry_1
_geom_bond_site_symmetry_2
Cu1 N2 1_555 1_555
C1 H1 1_555 1_555
C2 C1 1_555 1_555
H2 C2 1_555 1_555
C3 C2 1_555 1_555
H3 C3 1_555 1_555
C4 C3 1_555 1_555
C5 C4 1_555 1_555
H4 C5 1_555 1_555
C6 H5 1_555 1_555
H6 C6 1_555 1_555
C7 C6 1_555 1_555
C8 H7 1_555 1_555
C9 C8 1_555 1_555
H8 C9 1_555 1_555
C10 C9 1_555 1_555
H9 C10 1_555 1_555
C11 C10 1_555 1_555
C12 C11 1_555 1_555
C13 C12 1_555 1_555
C14 C13 1_555 1_555
C15 C14 1_555 1_555
H10 C15 1_555 1_555
C16 C15 1_555 1_555
H11 C16 1_555 1_555
C17 C16 1_555 1_555
H12 C17 1_555 1_555
C18 C14 1_555 1_555
H13 C18 1_555 1_555
C19 C11 1_555 1_555
H14 C19 1_555 1_555
N1 C1 1_555 1_555
N2 C6 1_555 1_555
N3 Cu1 1_555 1_555
N4 Cu1 1_555 1_555
O1 S1 1_555 1_555
O2 S1 1_555 1_555
O3 Cu1 1_555 1_555
O4 C7 1_555 1_555
S1 C4 1_555 1_555
O5 H15 1_555 1_555
H16 O5 1_555 1_555
O6 H17 1_555 1_555
H18 O6 1_555 1_555
Cu1A N1 1_555 1_555
N1A Cu1 1_555 1_555
C5 N1 1_555 1_555
C7 O3 1_555 1_555
C8 N3 1_555 1_555
C12 N3 1_555 1_555
C13 N4 1_555 1_555
C17 N4 1_555 1_555
C18 C19 1_555 1_555
N2 S1 1_555 1_555

#END
