
#######################################################################
#
#                 Cambridge Crystallographic Data Centre
#                                CCDC 
#
#######################################################################
#
# If this CIF has been generated from an entry in the Cambridge 
# Structural Database, then it will include bibliographic, chemical, 
# crystal, experimental, refinement or atomic coordinate data resulting 
# from the CCDC's data processing and validation procedures.
#
#######################################################################

data_TUGFUX
_symmetry_cell_setting           triclinic
_symmetry_space_group_name_H-M   'P -1'
_symmetry_Int_Tables_number      2
_space_group_name_Hall           '-P 1'
loop_
_symmetry_equiv_pos_site_id
_symmetry_equiv_pos_as_xyz
1 x,y,z
2 -x,-y,-z
_cell_length_a                   9.6085(19)
_cell_length_b                   10.111(2)
_cell_length_c                   11.009(2)
_cell_angle_alpha                99.41(3)
_cell_angle_beta                 102.87(3)
_cell_angle_gamma                114.55(3)
_cell_volume                     908.017
loop_
_atom_site_label
_atom_site_type_symbol
_atom_site_fract_x
_atom_site_fract_y
_atom_site_fract_z
Cu1 Cu 0.55046(3) 0.85377(3) 0.68137(2)
O1 O 0.71966(18) 1.06598(15) 0.77093(15)
O2 O 0.79203(19) 1.28994(16) 0.90538(15)
O3 O 0.82997(19) 1.36788(17) 1.19112(16)
O4 O 0.6275(2) 1.40253(16) 1.08216(17)
O5 O 0.62238(18) 0.91095(16) 0.50386(14)
O6 O 0.60070(18) 1.06908(16) 0.39008(14)
N1 N 0.5069(2) 0.92101(18) 0.88798(17)
N2 N 0.3894(2) 0.63648(19) 0.60121(17)
N3 N 0.6868(2) 0.76356(19) 0.75425(17)
C1 C 0.7125(2) 1.1499(2) 0.8650(2)
C2 C 0.5989(2) 1.0725(2) 0.9374(2)
C3 C 0.5922(2) 1.1512(2) 1.0502(2)
C4 C 0.6885(3) 1.3232(2) 1.1086(2)
C5 C 0.2435(3) 0.5823(2) 0.5123(2)
H1 H 0.2096 0.6517 0.4853
C6 C 0.1405(3) 0.4272(3) 0.4586(2)
H2 H 0.0382 0.3907 0.3948
C7 C 0.1899(3) 0.3277(2) 0.4998(2)
H3 H 0.1206 0.2213 0.4652
C8 C 0.3402(3) 0.3821(2) 0.5916(2)
H4 H 0.3754 0.3142 0.6205
C9 C 0.4383(3) 0.5381(2) 0.6406(2)
C10 C 0.6049(3) 0.6112(2) 0.7339(2)
C11 C 0.6773(3) 0.5353(3) 0.7938(2)
H5 H 0.6177 0.4292 0.7810
C12 C 0.8376(3) 0.6157(3) 0.8730(2)
H6 H 0.8888 0.5659 0.9162
C13 C 0.9225(3) 0.7704(3) 0.8880(3)
H7 H 1.0338 0.8268 0.9383
C14 C 0.8427(3) 0.8406(3) 0.8289(2)
H8 H 0.8999 0.9469 0.8413
C15 C 0.5639(2) 0.9934(2) 0.47012(19)
H17 H 0.881(4) 1.463(4) 1.210(4)
Cu1A Cu 0.44954(3) 1.14623(3) 1.31863(2)
Cu1A_2 Cu 0.44954(3) 1.14623(3) 0.31863(2)
O1A O 0.28034(18) 0.93402(15) 1.22907(15)
O2A O 0.20797(19) 0.71006(16) 1.09462(15)
O3A O 0.17003(19) 0.63212(17) 0.80888(16)
O4A O 0.3725(2) 0.59747(16) 0.91784(17)
O5A O 0.37762(18) 1.08905(16) 0.49614(14)
O5A_2 O 0.37762(18) 1.08905(16) 1.49614(14)
O6A O 0.39930(18) 0.93092(16) 0.60992(14)
O6_2 O 0.60070(18) 1.06908(16) 1.39008(14)
N1A N 0.4931(2) 1.07899(18) 1.11202(17)
N2A N 0.6106(2) 1.36352(19) 1.39879(17)
N3A N 0.3132(2) 1.23644(19) 1.24575(17)
C1A C 0.2875(2) 0.8501(2) 1.1350(2)
C2A C 0.4011(2) 0.9275(2) 1.0626(2)
C3A C 0.4078(2) 0.8488(2) 0.9498(2)
C4A C 0.3115(3) 0.6768(2) 0.8914(2)
C5A C 0.7565(3) 1.4177(2) 1.4877(2)
H1A H 0.7904 1.3483 1.5147
C6A C 0.8595(3) 1.5728(3) 1.5414(2)
H2A H 0.9618 1.6093 1.6052
C7A C 0.8101(3) 1.6723(2) 1.5002(2)
H3A H 0.8794 1.7787 1.5348
C8A C 0.6598(3) 1.6179(2) 1.4084(2)
H4A H 0.6246 1.6858 1.3795
C9A C 0.5617(3) 1.4619(2) 1.3594(2)
C10A C 0.3951(3) 1.3888(2) 1.2661(2)
C11A C 0.3227(3) 1.4647(3) 1.2062(2)
H5A H 0.3823 1.5708 1.2190
C12A C 0.1624(3) 1.3843(3) 1.1270(2)
H6A H 0.1112 1.4341 1.0838
C13A C 0.0775(3) 1.2296(3) 1.1120(3)
H7A H -0.0338 1.1732 1.0617
C14A C 0.1573(3) 1.1594(3) 1.1711(2)
H8A H 0.1001 1.0531 1.1587
C15A C 0.4361(2) 1.0066(2) 0.52988(19)
H17A H 0.119(4) 0.537(4) 0.790(4)
O7 O 0.1747(2) -0.0076(2) 0.7303(2)
H9 H 0.231(5) -0.031(4) 0.690(4)
H10 H 0.237(5) 0.085(4) 0.782(4)
O8 O 0.6607(3) 0.7106(2) 0.1190(2)
H11 H 0.572(5) 0.676(4) 0.058(4)
H12 H 0.694(5) 0.640(4) 0.118(4)
O9 O 0.9804(2) 0.35778(18) 0.74113(18)
H13 H 0.9774 0.2765 0.7016
H14 H 0.9142 0.3267 0.7846
O10 O 0.9700(2) 0.1022(2) 0.6159(2)
H15 H 1.042(4) 0.060(4) 0.652(3)
H16 H 0.869(4) 0.029(4) 0.583(3)
loop_
_geom_bond_atom_site_label_1
_geom_bond_atom_site_label_2
_geom_bond_site_symmetry_1
_geom_bond_site_symmetry_2
Cu1 O1 1_555 1_555
O1 C1 1_555 1_555
O2 C1 1_555 1_555
O3 C4 1_555 1_555
O4 C4 1_555 1_555
O5 Cu1 1_555 1_555
O6 C15 1_555 1_555
N1 Cu1 1_555 1_555
N2 Cu1 1_555 1_555
N3 Cu1 1_555 1_555
C1 C2 1_555 1_555
C2 N1 1_555 1_555
C3 C2 1_555 1_555
C4 C3 1_555 1_555
C5 N2 1_555 1_555
H1 C5 1_555 1_555
C6 C5 1_555 1_555
H2 C6 1_555 1_555
C7 C6 1_555 1_555
H3 C7 1_555 1_555
C8 C7 1_555 1_555
H4 C8 1_555 1_555
C9 N2 1_555 1_555
C10 N3 1_555 1_555
C11 C10 1_555 1_555
H5 C11 1_555 1_555
C12 C11 1_555 1_555
H6 C12 1_555 1_555
C13 C12 1_555 1_555
H7 C13 1_555 1_555
C14 N3 1_555 1_555
H8 C14 1_555 1_555
C15 O5 1_555 1_555
O7 H9 1_555 1_555
H10 O7 1_555 1_555
O8 H11 1_555 1_555
H12 O8 1_555 1_555
O9 H13 1_555 1_555
H14 O9 1_555 1_555
O10 H15 1_555 1_555
H16 O10 1_555 1_555
H17 O3 1_555 1_555
Cu1A O1A 1_555 1_555
Cu1A_2 O6 1_555 1_555
O1A C1A 1_555 1_555
O2A C1A 1_555 1_555
O3A C4A 1_555 1_555
O4A C4A 1_555 1_555
O5A Cu1A_2 1_555 1_555
O5A_2 Cu1A 1_555 1_555
O6A Cu1 1_555 1_555
O6_2 Cu1A 1_555 1_555
N1A C3 1_555 1_555
N2A Cu1A 1_555 1_555
N3A Cu1A 1_555 1_555
C1A C2A 1_555 1_555
C2A N1A 1_555 1_555
C3A N1 1_555 1_555
C4A C3A 1_555 1_555
C5A N2A 1_555 1_555
H1A C5A 1_555 1_555
C6A C5A 1_555 1_555
H2A C6A 1_555 1_555
C7A C6A 1_555 1_555
H3A C7A 1_555 1_555
C8A C7A 1_555 1_555
H4A C8A 1_555 1_555
C9A N2A 1_555 1_555
C10A N3A 1_555 1_555
C11A C10A 1_555 1_555
H5A C11A 1_555 1_555
C12A C11A 1_555 1_555
H6A C12A 1_555 1_555
C13A C12A 1_555 1_555
H7A C13A 1_555 1_555
C14A N3A 1_555 1_555
H8A C14A 1_555 1_555
C15A C15 1_555 1_555
H17A O3A 1_555 1_555
C8 C9 1_555 1_555
C9 C10 1_555 1_555
C13 C14 1_555 1_555
Cu1A N1A 1_555 1_555
O5A C15A 1_555 1_555
O6A C15A 1_555 1_555
C2A C3A 1_555 1_555
C8A C9A 1_555 1_555
C9A C10A 1_555 1_555
C13A C14A 1_555 1_555

#END
