
#######################################################################
#
#                 Cambridge Crystallographic Data Centre
#                                CCDC 
#
#######################################################################
#
# If this CIF has been generated from an entry in the Cambridge 
# Structural Database, then it will include bibliographic, chemical, 
# crystal, experimental, refinement or atomic coordinate data resulting 
# from the CCDC's data processing and validation procedures.
#
#######################################################################

data_TUGFOR
_symmetry_cell_setting           monoclinic
_symmetry_space_group_name_H-M   'C 2/c'
_symmetry_Int_Tables_number      15
_space_group_name_Hall           '-C 2yn'
loop_
_symmetry_equiv_pos_site_id
_symmetry_equiv_pos_as_xyz
1 x,y,z
2 -x,y,1/2-z
3 1/2+x,1/2+y,z
4 1/2-x,1/2+y,1/2-z
5 -x,-y,-z
6 x,-y,1/2+z
7 1/2-x,1/2-y,-z
8 1/2+x,1/2-y,1/2+z
_cell_length_a                   39.365(9)
_cell_length_b                   18.259(4)
_cell_length_c                   28.309(7)
_cell_angle_alpha                90
_cell_angle_beta                 108.908(5)
_cell_angle_gamma                90
_cell_volume                     19249.6
loop_
_atom_site_label
_atom_site_type_symbol
_atom_site_fract_x
_atom_site_fract_y
_atom_site_fract_z
Cu1 Cu 0.15605(3) -0.09782(5) 0.75516(4)
Cu2 Cu 0.10750(3) 0.47921(5) 0.74339(4)
Cu3 Cu 0.10119(3) 0.50124(5) 0.49027(4)
Cu4 Cu 0.13164(3) 1.08556(6) 0.50903(4)
C1 C 0.2357(3) -0.0989(6) 0.8065(4)
H1 H 0.2340 -0.1489 0.8115
C2 C 0.2685(3) -0.0632(8) 0.8271(4)
H2 H 0.2887 -0.0893 0.8460
C3 C 0.2708(3) 0.0101(8) 0.8193(5)
H3 H 0.2927 0.0341 0.8330
C4 C 0.2407(3) 0.0489(6) 0.7911(4)
H4 H 0.2419 0.0987 0.7849
C5 C 0.2090(2) 0.0102(5) 0.7727(3)
C6 C 0.1750(2) 0.0462(4) 0.7414(3)
H5 H 0.1755 0.0981 0.7489
H6 H 0.1720 0.0404 0.7062
C7 C 0.1097(2) 0.0201(5) 0.7146(3)
H7 H 0.0991 0.0660 0.7199
H8 H 0.1126 0.0216 0.6819
C8 C 0.0862(2) -0.0419(6) 0.7174(4)
C9 C 0.0494(3) -0.0372(7) 0.7004(4)
H9 H 0.0380 0.0066 0.6878
C10 C 0.0298(4) -0.0990(10) 0.7025(5)
H10 H 0.0049 -0.0971 0.6904
C11 C 0.0464(4) -0.1624(8) 0.7218(6)
H11 H 0.0333 -0.2040 0.7238
C12 C 0.0838(3) -0.1633(6) 0.7386(5)
H12 H 0.0955 -0.2063 0.7525
C13 C 0.1451(2) 0.0302(4) 0.8057(3)
H13 H 0.1275 0.0003 0.8140
H14 H 0.1685 0.0189 0.8295
C14 C 0.1368(2) 0.1100(4) 0.8110(3)
C15 C 0.1639(2) 0.1601(5) 0.8218(3)
H15 H 0.1875 0.1437 0.8300
C16 C 0.1572(2) 0.2355(4) 0.8209(3)
H16 H 0.1762 0.2686 0.8287
C17 C 0.1224(2) 0.2607(4) 0.8085(3)
C18 C 0.0943(2) 0.2118(4) 0.8036(3)
C19 C 0.0598(2) 0.2352(5) 0.7995(3)
H17 H 0.0545 0.2849 0.7971
C20 C 0.0339(3) 0.1857(6) 0.7990(4)
H18 H 0.0111 0.2026 0.7965
C21 C 0.0402(2) 0.1114(6) 0.8021(4)
H19 H 0.0221 0.0788 0.8023
C22 C 0.0734(3) 0.0864(5) 0.8048(3)
H20 H 0.0779 0.0363 0.8066
C23 C 0.1016(2) 0.1370(4) 0.8049(3)
C24 C 0.1174(2) 0.3436(4) 0.8004(3)
H21 H 0.0959 0.3582 0.8077
H22 H 0.1377 0.3683 0.8241
C25 C 0.0277(3) 0.4967(6) 0.7098(4)
H23 H 0.0316 0.5449 0.7209
C26 C -0.0072(3) 0.4743(8) 0.6864(4)
H24 H -0.0263 0.5070 0.6800
C27 C -0.0128(3) 0.4030(9) 0.6729(4)
H25 H -0.0359 0.3853 0.6579
C28 C 0.0164(3) 0.3566(6) 0.6817(4)
H26 H 0.0129 0.3075 0.6727
C29 C 0.0505(3) 0.3829(5) 0.7037(3)
C30 C 0.0831(3) 0.3377(5) 0.7090(3)
H27 H 0.0792 0.2880 0.7182
H28 H 0.0878 0.3360 0.6775
C31 C 0.1813(3) 0.5364(6) 0.7852(4)
H29 H 0.1713 0.5824 0.7856
C32 C 0.2189(3) 0.5274(8) 0.8046(4)
H30 H 0.2338 0.5668 0.8185
C33 C 0.2329(3) 0.4593(9) 0.8026(4)
H31 H 0.2576 0.4522 0.8156
C34 C 0.2116(3) 0.4030(7) 0.7820(4)
H32 H 0.2213 0.3569 0.7805
C35 C 0.1750(3) 0.4139(5) 0.7632(3)
C36 C 0.1484(2) 0.3563(5) 0.7368(3)
H33 H 0.1441 0.3588 0.7011
H34 H 0.1577 0.3080 0.7484
C37 C 0.1764(3) 0.4445(5) 0.5187(4)
H35 H 0.1668 0.3989 0.5071
C38 C 0.2123(3) 0.4525(6) 0.5375(4)
H36 H 0.2272 0.4124 0.5390
C39 C 0.2268(3) 0.5184(7) 0.5541(4)
H37 H 0.2516 0.5239 0.5671
C40 C 0.2042(2) 0.5781(6) 0.5516(4)
H38 H 0.2134 0.6243 0.5623
C41 C 0.1683(2) 0.5660(5) 0.5331(3)
C42 C 0.1415(2) 0.6275(4) 0.5324(3)
H39 H 0.1378 0.6305 0.5647
H40 H 0.1508 0.6741 0.5258
C43 C 0.0758(2) 0.6380(4) 0.5055(3)
H41 H 0.0722 0.6897 0.4976
H42 H 0.0802 0.6322 0.5411
C44 C 0.0431(2) 0.5965(4) 0.4772(3)
C45 C 0.0093(2) 0.6253(5) 0.4629(4)
H43 H 0.0053 0.6739 0.4693
C46 C -0.0188(2) 0.5793(6) 0.4386(4)
H44 H -0.0422 0.5966 0.4295
C47 C -0.0125(3) 0.5093(6) 0.4277(4)
H45 H -0.0314 0.4789 0.4105
C48 C 0.0216(2) 0.4847(5) 0.4424(3)
H46 H 0.0258 0.4364 0.4353
C49 C 0.1062(2) 0.6363(4) 0.4422(3)
H47 H 0.0833 0.6223 0.4181
H48 H 0.1249 0.6107 0.4335
C50 C 0.1113(2) 0.7170(4) 0.4380(3)
C51 C 0.0823(2) 0.7628(4) 0.4283(3)
H49 H 0.0594 0.7430 0.4209
C52 C 0.0865(2) 0.8386(4) 0.4292(3)
H50 H 0.0663 0.8682 0.4213
C53 C 0.1201(2) 0.8709(4) 0.4417(3)
C54 C 0.1502(2) 0.8253(4) 0.4462(3)
C55 C 0.1847(2) 0.8535(5) 0.4515(3)
H51 H 0.1886 0.9038 0.4546
C56 C 0.2117(3) 0.8100(5) 0.4520(4)
H52 H 0.2338 0.8305 0.4542
C57 C 0.2079(2) 0.7343(5) 0.4494(3)
H53 H 0.2273 0.7048 0.4501
C58 C 0.1756(2) 0.7034(5) 0.4457(3)
H54 H 0.1730 0.6527 0.4440
C59 C 0.1458(2) 0.7479(4) 0.4444(3)
C60 C 0.1232(2) 0.9526(4) 0.4498(3)
H55 H 0.1025 0.9759 0.4261
H56 H 0.1444 0.9698 0.4430
C61 C 0.0574(4) 1.1408(6) 0.4546(5)
H57 H 0.0669 1.1862 0.4508
C62 C 0.0212(4) 1.1287(10) 0.4356(6)
H58 H 0.0064 1.1676 0.4203
C63 C 0.0057(4) 1.0631(11) 0.4378(6)
H59 H -0.0190 1.0565 0.4240
C64 C 0.0283(3) 1.0057(7) 0.4617(5)
H60 H 0.0189 0.9595 0.4639
C65 C 0.0641(3) 1.0185(6) 0.4817(4)
C66 C 0.0906(3) 0.9635(5) 0.5114(4)
H61 H 0.0820 0.9143 0.5013
H62 H 0.0938 0.9690 0.5466
C67 C 0.1559(3) 0.9436(5) 0.5413(3)
H63 H 0.1596 0.8934 0.5327
H64 H 0.1511 0.9433 0.5728
C68 C 0.1885(3) 0.9879(6) 0.5460(3)
C69 C 0.2226(4) 0.9586(7) 0.5616(4)
H65 H 0.2261 0.9087 0.5678
C70 C 0.2508(4) 1.0031(11) 0.5678(5)
H66 H 0.2739 0.9839 0.5786
C71 C 0.2459(4) 1.0771(9) 0.5582(4)
H67 H 0.2654 1.1083 0.5625
C72 C 0.2113(3) 1.1032(6) 0.5421(4)
H68 H 0.2075 1.1530 0.5356
Cl1 Cl 0.12018(6) 0.48716(13) 0.62225(8)
Cl2 Cl 0.12464(7) 0.52669(11) 0.87322(9)
N1 N 0.20680(19) -0.0620(4) 0.7797(3)
N2 N 0.14513(18) 0.0100(3) 0.7536(3)
N3 N 0.1036(2) -0.1052(4) 0.7355(3)
N4 N 0.05632(19) 0.4526(4) 0.7174(3)
N5 N 0.11425(19) 0.3694(4) 0.7477(2)
N6 N 0.16003(18) 0.4796(4) 0.7663(3)
N7 N 0.15409(18) 0.5015(4) 0.5164(3)
N8 N 0.10682(16) 0.6115(3) 0.4929(2)
N9 N 0.04963(17) 0.5266(4) 0.4666(2)
N10 N 0.0793(2) 1.0858(5) 0.4791(3)
N11 N 0.1254(2) 0.9763(4) 0.5019(3)
N12 N 0.1828(2) 1.0596(4) 0.5354(3)
O1 O 0.1657(2) -0.2026(3) 0.7624(3)
H69 H 0.1805 -0.1901 0.7904
H70 H 0.1757 -0.2305 0.7470
O2 O 0.15580(19) -0.0998(4) 0.6725(2)
H71 H 0.1354 -0.1115 0.6521
H72 H 0.1714 -0.1312 0.6708
O3 O 0.10087(19) 0.5858(3) 0.7361(3)
H73 H 0.1166 0.6042 0.7616
H74 H 0.1046 0.6014 0.7097
O4 O 0.09356(17) 0.3943(3) 0.4875(2)
H75 H 0.0971 0.3755 0.5160
H76 H 0.1066 0.3738 0.4729
O5 O 0.12750(19) 1.0872(4) 0.5904(3)
H77 H 0.1417 1.0908 0.6201
H78 H 0.1059 1.0881 0.5900
O6 O 0.1383(2) 1.1923(3) 0.5109(3)
H79 H 0.1291 1.2245 0.4888
H80 H 0.1357 1.2044 0.5384
O12 O 0.09909(16) 0.4681(4) 0.6528(2)
O13 O 0.09643(15) 0.4998(4) 0.5729(2)
O14 O 0.14391(19) 0.4288(4) 0.6217(3)
O15 O 0.14070(19) 0.5507(4) 0.6407(3)
O16 O 0.1016(2) 0.5045(4) 0.8257(2)
O17 O 0.15343(17) 0.4748(4) 0.8916(3)
O18 O 0.10344(19) 0.5291(4) 0.9053(2)
O19 O 0.1377(3) 0.5960(4) 0.8693(4)
Cu3E Cu 0.10119(3) 0.49876(5) 0.99027(4)
O18E O 0.10344(19) 0.4709(4) 0.4053(2)
Cl3 Cl 0.17444(8) -0.11724(15) 0.90342(11)
O20 O 0.1981(3) -0.1738(5) 0.9271(4)
O21 O 0.1444(2) -0.1174(4) 0.9218(3)
O22 O 0.1911(2) -0.0456(4) 0.9138(3)
O23 O 0.1609(2) -0.1294(4) 0.8512(3)
Cl4 Cl 0.19897(11) 0.21359(19) 0.66597(15)
O24 O 0.2158(4) 0.2294(6) 0.7164(3)
O25 O 0.1980(3) 0.1364(4) 0.6563(3)
O26 O 0.2149(6) 0.2494(7) 0.6337(6)
O27 O 0.1617(3) 0.2375(9) 0.6518(6)
Cl5 Cl 0.08139(10) 0.80122(17) 0.58686(13)
O28 O 0.0514(3) 0.7983(6) 0.5442(5)
O29 O 0.0832(2) 0.8705(5) 0.6111(3)
O30 O 0.0794(6) 0.7416(8) 0.6129(6)
O31 O 0.1101(3) 0.7944(5) 0.5686(5)
Cl6 Cl 0.21798(9) 0.75698(19) 0.63257(15)
O32 O 0.2060(3) 0.7688(5) 0.5799(4)
O33 O 0.2108(2) 0.8173(5) 0.6580(5)
O34 O 0.2528(2) 0.7381(7) 0.6503(4)
O35 O 0.1980(3) 0.6935(5) 0.6403(4)
Cl7 Cl 0.04220(10) 0.83103(19) 0.11100(15)
O36 O 0.0487(4) 0.8357(7) 0.1631(5)
O37 O 0.0539(3) 0.8938(6) 0.0941(5)
O38 O 0.0054(3) 0.8251(8) 0.0886(7)
O39 O 0.0585(4) 0.7699(9) 0.1044(6)
O7 O 0.2027(5) 0.7170(8) 0.8481(5)
O8 O 0.1504(5) 0.6934(6) 0.6958(5)
O9 O 0.0738(4) 0.0914(6) 0.3461(5)
O10 O 0.1087(2) 0.7111(4) 0.0646(3)
O11 O 0.0534(4) 0.6430(8) 0.6553(6)
Cl8 Cl 0.0420(3) 0.3027(5) 0.3559(7)
O40 O 0.0742(5) 0.3066(11) 0.3977(7)
O41 O 0.0449(8) 0.3544(11) 0.3182(9)
O42 O 0.0354(5) 0.2317(6) 0.3352(6)
O43 O 0.0120(6) 0.3253(16) 0.3716(14)
O44 O 0.1256(11) 0.2915(8) 0.4348(8)
Cl9? Cl 0.0419(5) 0.3045(9) 0.3259(8)
O45? O 0.1616(13) 0.2855(15) 0.4526(13)
O46? O 0.0387(8) 0.3626(14) 0.3585(10)
O47? O 0.0626(8) 0.3301(17) 0.2953(11)
O48? O 0.0067(7) 0.283(3) 0.2945(14)
O49? O 0.0599(14) 0.2430(16) 0.3550(16)
loop_
_geom_bond_atom_site_label_1
_geom_bond_atom_site_label_2
_geom_bond_site_symmetry_1
_geom_bond_site_symmetry_2
Cu1 N1 1_555 1_555
Cu2 N4 1_555 1_555
Cu3 N7 1_555 1_555
Cu4 N10 1_555 1_555
C1 H1 1_555 1_555
C2 C1 1_555 1_555
H2 C2 1_555 1_555
C3 C2 1_555 1_555
H3 C3 1_555 1_555
C4 C3 1_555 1_555
H4 C4 1_555 1_555
C5 C4 1_555 1_555
C6 C5 1_555 1_555
H5 C6 1_555 1_555
H6 C6 1_555 1_555
C7 H7 1_555 1_555
H8 C7 1_555 1_555
C8 C7 1_555 1_555
C9 C8 1_555 1_555
H9 C9 1_555 1_555
C10 C9 1_555 1_555
H10 C10 1_555 1_555
C11 C10 1_555 1_555
H11 C11 1_555 1_555
C12 C11 1_555 1_555
H12 C12 1_555 1_555
C13 H13 1_555 1_555
H14 C13 1_555 1_555
C14 C13 1_555 1_555
C15 C14 1_555 1_555
H15 C15 1_555 1_555
C16 C15 1_555 1_555
H16 C16 1_555 1_555
C17 C16 1_555 1_555
C18 C17 1_555 1_555
C19 C18 1_555 1_555
H17 C19 1_555 1_555
C20 C19 1_555 1_555
H18 C20 1_555 1_555
C21 C20 1_555 1_555
H19 C21 1_555 1_555
C22 C21 1_555 1_555
H20 C22 1_555 1_555
C23 C14 1_555 1_555
C24 C17 1_555 1_555
H21 C24 1_555 1_555
H22 C24 1_555 1_555
C25 H23 1_555 1_555
C26 C25 1_555 1_555
H24 C26 1_555 1_555
C27 C26 1_555 1_555
H25 C27 1_555 1_555
C28 C27 1_555 1_555
H26 C28 1_555 1_555
C29 C28 1_555 1_555
C30 C29 1_555 1_555
H27 C30 1_555 1_555
H28 C30 1_555 1_555
C31 H29 1_555 1_555
C32 C31 1_555 1_555
H30 C32 1_555 1_555
C33 C32 1_555 1_555
H31 C33 1_555 1_555
C34 C33 1_555 1_555
H32 C34 1_555 1_555
C35 C34 1_555 1_555
C36 C35 1_555 1_555
H33 C36 1_555 1_555
H34 C36 1_555 1_555
C37 H35 1_555 1_555
C38 C37 1_555 1_555
H36 C38 1_555 1_555
C39 C38 1_555 1_555
H37 C39 1_555 1_555
C40 C39 1_555 1_555
H38 C40 1_555 1_555
C41 C40 1_555 1_555
C42 C41 1_555 1_555
H39 C42 1_555 1_555
H40 C42 1_555 1_555
C43 H41 1_555 1_555
H42 C43 1_555 1_555
C44 C43 1_555 1_555
C45 C44 1_555 1_555
H43 C45 1_555 1_555
C46 C45 1_555 1_555
H44 C46 1_555 1_555
C47 C46 1_555 1_555
H45 C47 1_555 1_555
C48 C47 1_555 1_555
H46 C48 1_555 1_555
C49 H47 1_555 1_555
H48 C49 1_555 1_555
C50 C49 1_555 1_555
C51 C50 1_555 1_555
H49 C51 1_555 1_555
C52 C51 1_555 1_555
H50 C52 1_555 1_555
C53 C52 1_555 1_555
C54 C53 1_555 1_555
C55 C54 1_555 1_555
H51 C55 1_555 1_555
C56 C55 1_555 1_555
H52 C56 1_555 1_555
C57 C56 1_555 1_555
H53 C57 1_555 1_555
C58 C57 1_555 1_555
H54 C58 1_555 1_555
C59 C50 1_555 1_555
C60 C53 1_555 1_555
H55 C60 1_555 1_555
H56 C60 1_555 1_555
C61 H57 1_555 1_555
C62 C61 1_555 1_555
H58 C62 1_555 1_555
C63 C62 1_555 1_555
H59 C63 1_555 1_555
C64 C63 1_555 1_555
H60 C64 1_555 1_555
C65 C64 1_555 1_555
C66 C65 1_555 1_555
H61 C66 1_555 1_555
H62 C66 1_555 1_555
C67 H63 1_555 1_555
H64 C67 1_555 1_555
C68 C67 1_555 1_555
C69 C68 1_555 1_555
H65 C69 1_555 1_555
C70 C69 1_555 1_555
H66 C70 1_555 1_555
C71 C70 1_555 1_555
H67 C71 1_555 1_555
C72 C71 1_555 1_555
H68 C72 1_555 1_555
Cl1 O12 1_555 1_555
Cl2 O16 1_555 1_555
Cl3 O20 1_555 1_555
Cl4 O24 1_555 1_555
Cl5 O28 1_555 1_555
Cl6 O32 1_555 1_555
Cl7 O36 1_555 1_555
N1 C1 1_555 1_555
N2 Cu1 1_555 1_555
N3 Cu1 1_555 1_555
N4 C25 1_555 1_555
N5 Cu2 1_555 1_555
N6 Cu2 1_555 1_555
N7 C37 1_555 1_555
N8 Cu3 1_555 1_555
N9 Cu3 1_555 1_555
N10 C61 1_555 1_555
N11 Cu4 1_555 1_555
N12 Cu4 1_555 1_555
O1 Cu1 1_555 1_555
H69 O1 1_555 1_555
H70 O1 1_555 1_555
O2 Cu1 1_555 1_555
H71 O2 1_555 1_555
H72 O2 1_555 1_555
O3 Cu2 1_555 1_555
H73 O3 1_555 1_555
H74 O3 1_555 1_555
O4 Cu3 1_555 1_555
H75 O4 1_555 1_555
H76 O4 1_555 1_555
O5 Cu4 1_555 1_555
H77 O5 1_555 1_555
H78 O5 1_555 1_555
O6 Cu4 1_555 1_555
H79 O6 1_555 1_555
H80 O6 1_555 1_555
O12 Cu2 1_555 1_555
O13 Cu3 1_555 1_555
O14 Cl1 1_555 1_555
O15 Cl1 1_555 1_555
O16 Cu2 1_555 1_555
O17 Cl2 1_555 1_555
O18 Cl2 1_555 1_555
O19 Cl2 1_555 1_555
O21 Cl3 1_555 1_555
O22 Cl3 1_555 1_555
O23 Cl3 1_555 1_555
O25 Cl4 1_555 1_555
O26 Cl4 1_555 1_555
O27 Cl4 1_555 1_555
O29 Cl5 1_555 1_555
O30 Cl5 1_555 1_555
O31 Cl5 1_555 1_555
O33 Cl6 1_555 1_555
O34 Cl6 1_555 1_555
O35 Cl6 1_555 1_555
O37 Cl7 1_555 1_555
O38 Cl7 1_555 1_555
O39 Cl7 1_555 1_555
Cl8 O40 1_555 1_555
O41 Cl8 1_555 1_555
O42 Cl8 1_555 1_555
O43 Cl8 1_555 1_555
Cu3E O18 1_555 1_555
O18E Cu3 1_555 1_555
C5 N1 1_555 1_555
C6 N2 1_555 1_555
C7 N2 1_555 1_555
C8 N3 1_555 1_555
C12 N3 1_555 1_555
C13 N2 1_555 1_555
C18 C23 1_555 1_555
C22 C23 1_555 1_555
C24 N5 1_555 1_555
C29 N4 1_555 1_555
C30 N5 1_555 1_555
C31 N6 1_555 1_555
C35 N6 1_555 1_555
C36 N5 1_555 1_555
C41 N7 1_555 1_555
C42 N8 1_555 1_555
C43 N8 1_555 1_555
C44 N9 1_555 1_555
C48 N9 1_555 1_555
C49 N8 1_555 1_555
C54 C59 1_555 1_555
C58 C59 1_555 1_555
C60 N11 1_555 1_555
C65 N10 1_555 1_555
C66 N11 1_555 1_555
C67 N11 1_555 1_555
C68 N12 1_555 1_555
C72 N12 1_555 1_555
Cl1 O13 1_555 1_555

#END
