
#######################################################################
#
#                 Cambridge Crystallographic Data Centre
#                                CCDC 
#
#######################################################################
#
# If this CIF has been generated from an entry in the Cambridge 
# Structural Database, then it will include bibliographic, chemical, 
# crystal, experimental, refinement or atomic coordinate data resulting 
# from the CCDC's data processing and validation procedures.
#
#######################################################################

data_TUGFUY
_symmetry_cell_setting           orthorhombic
_symmetry_space_group_name_H-M   'P n a 21'
_symmetry_Int_Tables_number      33
_space_group_name_Hall           'P 2c -2n'
loop_
_symmetry_equiv_pos_site_id
_symmetry_equiv_pos_as_xyz
1 x,y,z
2 -x,-y,1/2+z
3 1/2+x,1/2-y,z
4 1/2-x,1/2+y,1/2+z
_cell_length_a                   19.0607(3)
_cell_length_b                   11.0557(2)
_cell_length_c                   6.54750(10)
_cell_angle_alpha                90
_cell_angle_beta                 90
_cell_angle_gamma                90
_cell_volume                     1379.75
loop_
_atom_site_label
_atom_site_type_symbol
_atom_site_fract_x
_atom_site_fract_y
_atom_site_fract_z
O1 O 0.50583(11) -0.0577(2) -0.0374(4)
C1 C 0.32364(19) 0.2540(3) -0.0619(5)
H1 H 0.3650 0.2769 -0.1265
C2 C 0.2592(2) 0.2838(3) -0.1540(6)
H2 H 0.2582 0.3259 -0.2770
C3 C 0.1986(2) 0.2503(3) -0.0613(6)
H3 H 0.1557 0.2696 -0.1211
C4 C 0.19998(18) 0.1873(3) 0.1222(6)
C5 C 0.13925(18) 0.1471(4) 0.2330(7)
H4 H 0.0950 0.1622 0.1787
C6 C 0.14402(18) 0.0886(4) 0.4120(7)
H5 H 0.1033 0.0646 0.4788
C7 C 0.21063(16) 0.0624(3) 0.5017(6)
C8 C 0.21924(19) 0.0012(3) 0.6883(6)
H6 H 0.1803 -0.0251 0.7614
C9 C 0.28477(18) -0.0191(3) 0.7605(6)
H7 H 0.2911 -0.0595 0.8838
C10 C 0.34276(18) 0.0209(3) 0.6492(5)
H8 H 0.3874 0.0062 0.7013
C11 C 0.27181(15) 0.0993(3) 0.3987(5)
C12 C 0.26665(16) 0.1616(3) 0.2057(5)
C13 C 0.45225(17) -0.1009(3) 0.0441(5)
H9 H 0.4438 -0.1829 0.0236
Cl1 Cl 0.43054(5) 0.34271(8) 0.42622(16)
Co1 Co 0.418941(18) 0.13683(3) 0.27728(6)
N1 N 0.32761(13) 0.1946(2) 0.1132(4)
N2 N 0.33715(13) 0.0787(2) 0.4731(4)
O2 O 0.49088(14) 0.1779(2) 0.0526(4)
O3 O 0.40943(11) -0.0450(2) 0.1494(4)
H10 H 0.5011 0.2440 -0.0068
H11 H 0.5041 0.1193 -0.0206
O1A O 0.49417(11) 0.0577(2) 0.4626(4)
Co1A Co 0.581059(18) -0.13683(3) -0.22272(6)
O4 O 0.51476(17) 0.3814(3) 0.8328(5)
H12 H 0.5226 0.4556 0.8575
H13 H 0.4858 0.3823 0.7342
loop_
_geom_bond_atom_site_label_1
_geom_bond_atom_site_label_2
_geom_bond_site_symmetry_1
_geom_bond_site_symmetry_2
O1 C13 1_555 1_555
C1 H1 1_555 1_555
C2 C1 1_555 1_555
H2 C2 1_555 1_555
C3 C2 1_555 1_555
H3 C3 1_555 1_555
C4 C3 1_555 1_555
C5 C4 1_555 1_555
H4 C5 1_555 1_555
C6 C5 1_555 1_555
H5 C6 1_555 1_555
C7 C6 1_555 1_555
C8 C7 1_555 1_555
H6 C8 1_555 1_555
C9 C8 1_555 1_555
H7 C9 1_555 1_555
C10 C9 1_555 1_555
H8 C10 1_555 1_555
C11 C7 1_555 1_555
C12 C4 1_555 1_555
C13 H9 1_555 1_555
Cl1 Co1 1_555 1_555
Co1 N1 1_555 1_555
N1 C1 1_555 1_555
N2 C10 1_555 1_555
O2 Co1 1_555 1_555
O3 C13 1_555 1_555
H10 O2 1_555 1_555
H11 O2 1_555 1_555
O4 H12 1_555 1_555
H13 O4 1_555 1_555
O1A Co1 1_555 1_555
Co1A O1 1_555 1_555
C11 C12 1_555 1_555
C11 N2 1_555 1_555
C12 N1 1_555 1_555
Co1 N2 1_555 1_555
Co1 O3 1_555 1_555

#END
