
#######################################################################
#
#                 Cambridge Crystallographic Data Centre
#                                CCDC 
#
#######################################################################
#
# If this CIF has been generated from an entry in the Cambridge 
# Structural Database, then it will include bibliographic, chemical, 
# crystal, experimental, refinement or atomic coordinate data resulting 
# from the CCDC's data processing and validation procedures.
#
#######################################################################

data_TUGGIN
_symmetry_cell_setting           monoclinic
_symmetry_space_group_name_H-M   'P 21/c'
_symmetry_Int_Tables_number      14
_space_group_name_Hall           '-P 2ybc'
loop_
_symmetry_equiv_pos_site_id
_symmetry_equiv_pos_as_xyz
1 x,y,z
2 -x,1/2+y,1/2-z
3 -x,-y,-z
4 x,1/2-y,1/2+z
_cell_length_a                   9.370(5)
_cell_length_b                   13.655(5)
_cell_length_c                   21.354(5)
_cell_angle_alpha                90
_cell_angle_beta                 94.480(5)
_cell_angle_gamma                90
_cell_volume                     2723.84
loop_
_atom_site_label
_atom_site_type_symbol
_atom_site_fract_x
_atom_site_fract_y
_atom_site_fract_z
Ni1 Ni 0.58919(4) 1.01774(3) 0.192026(16)
O1 O 0.6012(2) 0.15434(15) 0.14624(10)
O2 O 0.6651(2) 0.87529(15) 0.21176(10)
O3 O 0.7931(2) 0.08674(16) 0.19289(10)
O4 O 0.6471(2) 0.93131(16) 0.11501(10)
C1 C 0.6904(3) 0.8667(2) 0.15439(15)
N1 N 0.1789(3) 0.9836(2) 0.11058(12)
N2 N 0.5467(3) 1.07301(18) 0.38085(11)
C2 C 0.7342(3) 0.1579(2) 0.16397(13)
C3 C 0.5236(3) 1.0361(2) 0.44186(13)
N3 N 0.5688(3) 1.07324(18) 0.27940(11)
C4 C 0.7756(3) 0.7824(2) 0.13310(15)
N4 N 0.3775(3) 0.9879(2) 0.17279(12)
C5 C 0.4382(3) 1.0586(2) 0.54291(14)
H1 H 0.3960 1.0978 0.5719
C6 C 0.4624(4) 1.0957(2) 0.48425(14)
H2 H 0.4376 1.1599 0.4737
C7 C 0.0872(3) 0.9912(2) 0.05414(14)
C8 C 0.8200(3) 0.2457(2) 0.15062(15)
C9 C 0.5405(3) 1.0197(2) 0.32776(13)
H3 H 0.5188 0.9532 0.3257
O5 O 1.0381(4) 0.5596(2) 0.0738(2)
C10 C 0.8263(4) 0.7832(2) 0.07371(18)
H4 H 0.8022 0.8345 0.0462
C11 C 0.8119(4) 0.7053(2) 0.17329(17)
H5 H 0.7776 0.7042 0.2130
C12 C 0.7758(3) 0.3121(2) 0.10489(17)
H6 H 0.6879 0.3040 0.0821
C13 C 0.9488(4) 0.6321(2) 0.0958(2)
C14 C 0.8622(4) 0.3917(3) 0.0925(2)
H7 H 0.8333 0.4352 0.0604
C15 C 0.3212(3) 0.9916(2) 0.11464(14)
H8 H 0.3747 0.9990 0.0800
C16 C 0.8986(4) 0.6296(3) 0.15541(19)
H9 H 0.9228 0.5782 0.1827
C17 C 0.9900(3) 0.4062(2) 0.1273(2)
C18 C -0.0413(4) 1.0390(3) 0.05493(16)
H10 H -0.0693 1.0654 0.0922
C19 C -0.1285(4) 1.0478(3) 0.00068(16)
H11 H -0.2157 1.0802 0.0011
C20 C 0.5948(4) 1.1655(2) 0.30285(15)
H12 H 0.6179 1.2195 0.2791
C21 C 0.5820(4) 1.1671(2) 0.36529(15)
H13 H 0.5944 1.2205 0.3922
C22 C 0.9122(4) 0.7083(3) 0.0553(2)
H14 H 0.9456 0.7091 0.0155
C23 C 0.9481(4) 0.2627(3) 0.1861(2)
H15 H 0.9785 0.2192 0.2179
C24 C 1.0902(4) 0.4852(3) 0.1161(3)
H16 H 1.1199 0.5155 0.1561
H17 H 1.1748 0.4565 0.0999
C25 C 0.1404(4) 0.9755(5) 0.17064(18)
H18 H 0.0482 0.9695 0.1834
C26 C 1.0299(4) 0.3425(3) 0.1748(2)
H19 H 1.1141 0.3536 0.1998
C27 C 0.2636(4) 0.9779(4) 0.20768(17)
H20 H 0.2697 0.9733 0.2513
N1B N -0.1789(3) 1.0164(2) -0.11058(12)
N4B N -0.3775(3) 1.0121(2) -0.17279(12)
C7B C -0.0872(3) 1.0088(2) -0.05414(14)
C15B C -0.3212(3) 1.0084(2) -0.11464(14)
H8B H -0.3747 1.0010 -0.0800
C18B C 0.0413(4) 0.9610(3) -0.05493(16)
H10B H 0.0693 0.9346 -0.0922
C19B C 0.1285(4) 0.9522(3) -0.00068(16)
H11B H 0.2157 0.9198 -0.0011
C25B C -0.1404(4) 1.0245(5) -0.17064(18)
H18B H -0.0482 1.0305 -0.1834
C27B C -0.2636(4) 1.0221(4) -0.20768(17)
H20B H -0.2697 1.0267 -0.2513
N2B N 0.4533(3) 0.92699(18) 0.61915(11)
C3B C 0.4764(3) 0.9639(2) 0.55814(13)
N3B N 0.4312(3) 0.92676(18) 0.72060(11)
C5B C 0.5618(3) 0.9414(2) 0.45709(14)
H1B H 0.6040 0.9022 0.4281
C6B C 0.5376(4) 0.9043(2) 0.51575(14)
H2B H 0.5624 0.8401 0.5263
C9B C 0.4595(3) 0.9803(2) 0.67224(13)
H3B H 0.4812 1.0468 0.6743
C20B C 0.4052(4) 0.8345(2) 0.69715(15)
H12B H 0.3821 0.7805 0.7209
C21B C 0.4180(4) 0.8329(2) 0.63471(15)
H13B H 0.4056 0.7795 0.6078
Ni1B Ni -0.58919(4) 0.98226(3) -0.192026(16)
O1B O -0.6012(2) 1.84566(15) -0.14624(10)
O2B O -0.6651(2) 1.12471(15) -0.21176(10)
O3B O -0.7931(2) 1.91326(16) -0.19289(10)
O4B O -0.6471(2) 1.06869(16) -0.11501(10)
C1B C -0.6904(3) 1.1333(2) -0.15439(15)
C2B C -0.7342(3) 1.8421(2) -0.16397(13)
C4B C -0.7756(3) 1.2176(2) -0.13310(15)
C8B C -0.8200(3) 1.7543(2) -0.15062(15)
O5B O -1.0381(4) 1.4404(2) -0.0738(2)
C10B C -0.8263(4) 1.2168(2) -0.07371(18)
H4B H -0.8022 1.1655 -0.0462
C11B C -0.8119(4) 1.2947(2) -0.17329(17)
H5B H -0.7776 1.2958 -0.2130
C12B C -0.7758(3) 1.6879(2) -0.10489(17)
H6B H -0.6879 1.6960 -0.0821
C13B C -0.9488(4) 1.3679(2) -0.0958(2)
C14B C -0.8622(4) 1.6083(3) -0.0925(2)
H7B H -0.8333 1.5648 -0.0604
C16B C -0.8986(4) 1.3704(3) -0.15541(19)
H9B H -0.9228 1.4218 -0.1827
C17B C -0.9900(3) 1.5938(2) -0.1273(2)
C22B C -0.9122(4) 1.2917(3) -0.0553(2)
H14B H -0.9456 1.2909 -0.0155
C23B C -0.9481(4) 1.7373(3) -0.1861(2)
H15B H -0.9785 1.7808 -0.2179
C24B C -1.0902(4) 1.5148(3) -0.1161(3)
H16B H -1.1199 1.4845 -0.1561
H17B H -1.1748 1.5435 -0.0999
C26B C -1.0299(4) 1.6575(3) -0.1748(2)
H19B H -1.1141 1.6464 -0.1998
Ni1_2 Ni 0.58919(4) 0.01774(3) 0.192026(16)
Ni1B_2 Ni -0.58919(4) 1.98226(3) -0.192026(16)
Ni1B_3 Ni 0.41081(4) 0.98226(3) 0.807974(16)
O1_2 O 0.6012(2) 1.15434(15) 0.14624(10)
O1B_2 O -0.6012(2) 0.84566(15) -0.14624(10)
O3_2 O 0.7931(2) 1.08674(16) 0.19289(10)
O3B_2 O -0.7931(2) 0.91326(16) -0.19289(10)
N3B_2 N -0.5688(3) 0.92676(18) -0.27940(11)
O6 O 0.3916(4) 0.2918(2) 0.16995(17)
H21 H 0.3498 0.2817 0.1338
H22 H 0.4529 0.2470 0.1786
O7 O 0.4720(5) 0.8514(4) 0.00423(19)
H23 H 0.5016 0.8205 -0.0268
H24 H 0.5070 0.9088 0.0055
loop_
_geom_bond_atom_site_label_1
_geom_bond_atom_site_label_2
_geom_bond_site_symmetry_1
_geom_bond_site_symmetry_2
Ni1 O2 1_555 1_555
O1 C2 1_555 1_555
O2 C1 1_555 1_555
O3 C2 1_555 1_555
O4 Ni1 1_555 1_555
C1 O4 1_555 1_555
N1 C7 1_555 1_555
N2 C3 1_555 1_555
C2 C8 1_555 1_555
C3 C6 1_555 1_555
N3 Ni1 1_555 1_555
C4 C1 1_555 1_555
N4 Ni1 1_555 1_555
C5 H1 1_555 1_555
C6 C5 1_555 1_555
H2 C6 1_555 1_555
C7 C18 1_555 1_555
C8 C12 1_555 1_555
C9 N2 1_555 1_555
H3 C9 1_555 1_555
O5 C13 1_555 1_555
C10 C4 1_555 1_555
H4 C10 1_555 1_555
C11 C4 1_555 1_555
H5 C11 1_555 1_555
C12 H6 1_555 1_555
C13 C16 1_555 1_555
C14 C12 1_555 1_555
H7 C14 1_555 1_555
C15 N1 1_555 1_555
H8 C15 1_555 1_555
C16 C11 1_555 1_555
H9 C16 1_555 1_555
C17 C14 1_555 1_555
C18 H10 1_555 1_555
C19 C18 1_555 1_555
H11 C19 1_555 1_555
C20 N3 1_555 1_555
H12 C20 1_555 1_555
C21 N2 1_555 1_555
H13 C21 1_555 1_555
C22 C10 1_555 1_555
H14 C22 1_555 1_555
C23 C8 1_555 1_555
H15 C23 1_555 1_555
C24 O5 1_555 1_555
H16 C24 1_555 1_555
H17 C24 1_555 1_555
C25 N1 1_555 1_555
H18 C25 1_555 1_555
C26 C17 1_555 1_555
H19 C26 1_555 1_555
C27 N4 1_555 1_555
H20 C27 1_555 1_555
O6 H21 1_555 1_555
H22 O6 1_555 1_555
O7 H23 1_555 1_555
H24 O7 1_555 1_555
N1B C7B 1_555 1_555
N4B C15B 1_555 1_555
C7B C19 1_555 1_555
C15B N1B 1_555 1_555
H8B C15B 1_555 1_555
C18B C7B 1_555 1_555
H10B C18B 1_555 1_555
C19B C7 1_555 1_555
H11B C19B 1_555 1_555
C25B N1B 1_555 1_555
H18B C25B 1_555 1_555
C27B N4B 1_555 1_555
H20B C27B 1_555 1_555
N2B C3B 1_555 1_555
C3B C5 1_555 1_555
N3B C9B 1_555 1_555
C5B C3 1_555 1_555
H1B C5B 1_555 1_555
C6B C3B 1_555 1_555
H2B C6B 1_555 1_555
C9B N2B 1_555 1_555
H3B C9B 1_555 1_555
C20B N3B 1_555 1_555
H12B C20B 1_555 1_555
C21B N2B 1_555 1_555
H13B C21B 1_555 1_555
Ni1B N4B 1_555 1_555
O1B C2B 1_555 1_555
O2B Ni1B 1_555 1_555
O3B C2B 1_555 1_555
O4B Ni1B 1_555 1_555
C1B O2B 1_555 1_555
C2B C8B 1_555 1_555
C4B C1B 1_555 1_555
C8B C12B 1_555 1_555
O5B C13B 1_555 1_555
C10B C4B 1_555 1_555
H4B C10B 1_555 1_555
C11B C4B 1_555 1_555
H5B C11B 1_555 1_555
C12B H6B 1_555 1_555
C13B C16B 1_555 1_555
C14B C12B 1_555 1_555
H7B C14B 1_555 1_555
C16B C11B 1_555 1_555
H9B C16B 1_555 1_555
C17B C14B 1_555 1_555
C22B C10B 1_555 1_555
H14B C22B 1_555 1_555
C23B C8B 1_555 1_555
H15B C23B 1_555 1_555
C24B O5B 1_555 1_555
H16B C24B 1_555 1_555
H17B C24B 1_555 1_555
C26B C17B 1_555 1_555
H19B C26B 1_555 1_555
Ni1_2 O1 1_555 1_555
Ni1B_2 O1B 1_555 1_555
Ni1B_3 N3B 1_555 1_555
O1_2 Ni1 1_555 1_555
O1B_2 Ni1B 1_555 1_555
O3_2 Ni1 1_555 1_555
O3B_2 Ni1B 1_555 1_555
N3B_2 Ni1B 1_555 1_555
O3 Ni1_2 1_555 1_555
N3 C9 1_555 1_555
N4 C15 1_555 1_555
C13 C22 1_555 1_555
C17 C24 1_555 1_555
C20 C21 1_555 1_555
C23 C26 1_555 1_555
C25 C27 1_555 1_555
C18B C19B 1_555 1_555
C25B C27B 1_555 1_555
C5B C6B 1_555 1_555
C20B C21B 1_555 1_555
O3B Ni1B_2 1_555 1_555
O4B C1B 1_555 1_555
C13B C22B 1_555 1_555
C17B C24B 1_555 1_555
C23B C26B 1_555 1_555

#END
