
#######################################################################
#
#                 Cambridge Crystallographic Data Centre
#                                CCDC 
#
#######################################################################
#
# If this CIF has been generated from an entry in the Cambridge 
# Structural Database, then it will include bibliographic, chemical, 
# crystal, experimental, refinement or atomic coordinate data resulting 
# from the CCDC's data processing and validation procedures.
#
#######################################################################

data_TUGHAF
_symmetry_cell_setting           triclinic
_symmetry_space_group_name_H-M   'P -1'
_symmetry_Int_Tables_number      2
_space_group_name_Hall           '-P 1'
loop_
_symmetry_equiv_pos_site_id
_symmetry_equiv_pos_as_xyz
1 x,y,z
2 -x,-y,-z
_cell_length_a                   11.1267(14)
_cell_length_b                   12.3493(15)
_cell_length_c                   14.856(4)
_cell_angle_alpha                96.719(14)
_cell_angle_beta                 106.093(15)
_cell_angle_gamma                111.450(11)
_cell_volume                     1770.22
loop_
_atom_site_label
_atom_site_type_symbol
_atom_site_fract_x
_atom_site_fract_y
_atom_site_fract_z
Pb1 Pb 0.49151(2) 0.865542(18) 0.049765(17)
F1 F 0.3188(4) 0.8368(3) 0.3770(3)
F2 F 0.2311(3) 0.6701(3) 0.2709(3)
F3 F 0.1877(4) 0.8187(3) 0.2337(3)
F4 F 0.4256(4) 1.1158(4) 0.3293(3)
F5 F 0.2683(3) 1.0907(3) 0.1985(3)
F6 F 0.4291(4) 1.2630(3) 0.2669(3)
O1 O 0.3742(3) 0.7804(3) 0.1592(3)
O2 O 0.6643(3) 0.8977(3) 0.2098(3)
O3 O 0.4199(4) 1.0394(3) 0.1101(3)
O4 O 0.6952(3) 1.1079(3) 0.1089(3)
N1 N 0.6079(4) 0.7359(4) -0.0179(3)
N2 N 0.3263(4) 0.6390(3) -0.0500(3)
C1 C 0.2872(6) 0.7902(6) 0.2836(5)
C2 C 0.4103(6) 0.8275(5) 0.2477(4)
C3 C 0.5372(6) 0.9033(5) 0.3134(4)
H1 H 0.5428 0.9362 0.3763
C4 C 0.6620(6) 0.9355(4) 0.2920(4)
C5 C 0.7941(6) 1.0218(5) 0.3706(4)
C6 C 0.9136(6) 1.0225(5) 0.3607(5)
H2 H 0.9104 0.9676 0.3086
C7 C 1.0464(6) 1.1094(5) 0.4317(4)
C8 C 1.1664(6) 1.1099(6) 0.4241(5)
H3 H 1.1651 1.0528 0.3746
C9 C 1.2893(6) 1.1952(5) 0.4900(4)
H4 H 1.3728 1.1962 0.4846
C10 C 1.2962(6) 1.2800(5) 0.5644(4)
H5 H 1.3826 1.3371 0.6091
C11 C 1.1774(6) 1.2794(5) 0.5714(4)
H6 H 1.1810 1.3378 0.6210
C12 C 1.0438(6) 1.1909(5) 0.5046(5)
C13 C 0.9211(6) 1.1860(5) 0.5137(5)
H7 H 0.9229 1.2397 0.5659
C14 C 0.7981(6) 1.1046(5) 0.4483(5)
H8 H 0.7147 1.1028 0.4544
C15 C 0.4031(5) 1.1473(5) 0.2452(5)
C16 C 0.4892(5) 1.1214(4) 0.1882(4)
C17 C 0.6296(5) 1.1886(4) 0.2298(4)
H9 H 0.6632 1.2455 0.2896
C18 C 0.7272(5) 1.1778(4) 0.1884(4)
C19 C 0.8784(5) 1.2559(4) 0.2435(4)
C20 C 0.9270(5) 1.3588(4) 0.3153(4)
H10 H 0.8632 1.3833 0.3327
C21 C 1.0705(5) 1.4291(4) 0.3638(4)
C22 C 1.1219(6) 1.5340(5) 0.4371(4)
H11 H 1.0597 1.5610 0.4542
C23 C 1.2612(6) 1.5979(5) 0.4844(4)
H12 H 1.2948 1.6687 0.5339
C24 C 1.3540(6) 1.5582(5) 0.4593(5)
H13 H 1.4499 1.6021 0.4935
C25 C 1.3098(5) 1.4585(5) 0.3871(4)
H14 H 1.3745 1.4350 0.3702
C26 C 1.1660(5) 1.3897(4) 0.3373(4)
C27 C 1.1128(5) 1.2840(5) 0.2634(4)
H15 H 1.1745 1.2574 0.2449
C28 C 0.9740(5) 1.2191(4) 0.2182(4)
H16 H 0.9410 1.1482 0.1690
C29 C 0.7429(5) 0.7846(4) -0.0046(4)
C30 C 0.8037(6) 0.7171(5) -0.0426(4)
H17 H 0.8994 0.7527 -0.0321
C31 C 0.7267(6) 0.6021(5) -0.0939(4)
H18 H 0.7689 0.5573 -0.1190
C32 C 0.5835(6) 0.5476(5) -0.1106(4)
C33 C 0.5017(6) 0.4243(5) -0.1616(4)
H19 H 0.5422 0.3752 -0.1827
C34 C 0.3626(6) 0.3799(5) -0.1788(4)
H20 H 0.3057 0.2998 -0.2159
C35 C 0.3005(6) 0.4501(4) -0.1427(4)
C36 C 0.1565(6) 0.4043(5) -0.1624(4)
H21 H 0.0978 0.3252 -0.2009
C37 C 0.1023(6) 0.4754(4) -0.1252(4)
H22 H 0.0059 0.4456 -0.1382
C38 C 0.1895(5) 0.5914(4) -0.0685(4)
C39 C 0.3802(5) 0.5689(4) -0.0885(4)
C40 C 0.5290(5) 0.6213(4) -0.0701(4)
C41 C 0.8264(5) 0.9121(5) 0.0517(4)
H23 H 0.7979 0.9649 0.0151
H24 H 0.9241 0.9327 0.0632
H25 H 0.8120 0.9224 0.1137
C42 C 0.1292(5) 0.6662(5) -0.0263(4)
H26 H 0.1450 0.6652 0.0418
H27 H 0.0300 0.6335 -0.0619
H28 H 0.1730 0.7489 -0.0313
Pb1A Pb 0.50849(2) 1.134458(18) -0.049765(17)
O3A O 0.5801(4) 0.9606(3) -0.1101(3)
O4A O 0.3048(3) 0.8921(3) -0.1089(3)
loop_
_geom_bond_atom_site_label_1
_geom_bond_atom_site_label_2
_geom_bond_site_symmetry_1
_geom_bond_site_symmetry_2
Pb1 O1 1_555 1_555
F1 C1 1_555 1_555
F2 C1 1_555 1_555
F3 C1 1_555 1_555
F4 C15 1_555 1_555
F5 C15 1_555 1_555
F6 C15 1_555 1_555
O1 C2 1_555 1_555
O2 Pb1 1_555 1_555
O3 Pb1 1_555 1_555
O4 Pb1 1_555 1_555
N1 Pb1 1_555 1_555
N2 Pb1 1_555 1_555
C1 C2 1_555 1_555
C2 C3 1_555 1_555
C3 H1 1_555 1_555
C4 O2 1_555 1_555
C5 C4 1_555 1_555
C6 C5 1_555 1_555
H2 C6 1_555 1_555
C7 C6 1_555 1_555
C8 C7 1_555 1_555
H3 C8 1_555 1_555
C9 C8 1_555 1_555
H4 C9 1_555 1_555
C10 C9 1_555 1_555
H5 C10 1_555 1_555
C11 C10 1_555 1_555
H6 C11 1_555 1_555
C12 C7 1_555 1_555
C13 C12 1_555 1_555
H7 C13 1_555 1_555
C14 C5 1_555 1_555
H8 C14 1_555 1_555
C15 C16 1_555 1_555
C16 O3 1_555 1_555
C17 C16 1_555 1_555
H9 C17 1_555 1_555
C18 O4 1_555 1_555
C19 C18 1_555 1_555
C20 C19 1_555 1_555
H10 C20 1_555 1_555
C21 C20 1_555 1_555
C22 C21 1_555 1_555
H11 C22 1_555 1_555
C23 C22 1_555 1_555
H12 C23 1_555 1_555
C24 C23 1_555 1_555
H13 C24 1_555 1_555
C25 C24 1_555 1_555
H14 C25 1_555 1_555
C26 C21 1_555 1_555
C27 C26 1_555 1_555
H15 C27 1_555 1_555
C28 C19 1_555 1_555
H16 C28 1_555 1_555
C29 N1 1_555 1_555
C30 C29 1_555 1_555
H17 C30 1_555 1_555
C31 C30 1_555 1_555
H18 C31 1_555 1_555
C32 C31 1_555 1_555
C33 C32 1_555 1_555
H19 C33 1_555 1_555
C34 C33 1_555 1_555
H20 C34 1_555 1_555
C35 C34 1_555 1_555
C36 C35 1_555 1_555
H21 C36 1_555 1_555
C37 C36 1_555 1_555
H22 C37 1_555 1_555
C38 N2 1_555 1_555
C39 N2 1_555 1_555
C40 N1 1_555 1_555
C41 C29 1_555 1_555
H23 C41 1_555 1_555
H24 C41 1_555 1_555
H25 C41 1_555 1_555
C42 C38 1_555 1_555
H26 C42 1_555 1_555
H27 C42 1_555 1_555
H28 C42 1_555 1_555
Pb1A O3 1_555 1_555
O3A Pb1 1_555 1_555
O4A Pb1 1_555 1_555
O4 Pb1A 1_555 1_555
C3 C4 1_555 1_555
C11 C12 1_555 1_555
C13 C14 1_555 1_555
C17 C18 1_555 1_555
C25 C26 1_555 1_555
C27 C28 1_555 1_555
C32 C40 1_555 1_555
C35 C39 1_555 1_555
C37 C38 1_555 1_555
C39 C40 1_555 1_555
Pb1A O3A 1_555 1_555
Pb1A O4A 1_555 1_555

#END
