
#######################################################################
#
#                 Cambridge Crystallographic Data Centre
#                                CCDC 
#
#######################################################################
#
# If this CIF has been generated from an entry in the Cambridge 
# Structural Database, then it will include bibliographic, chemical, 
# crystal, experimental, refinement or atomic coordinate data resulting 
# from the CCDC's data processing and validation procedures.
#
#######################################################################

data_TUGMUF
_symmetry_cell_setting           triclinic
_symmetry_space_group_name_H-M   'P -1'
_symmetry_Int_Tables_number      2
_space_group_name_Hall           '-P 1'
loop_
_symmetry_equiv_pos_site_id
_symmetry_equiv_pos_as_xyz
1 x,y,z
2 -x,-y,-z
_cell_length_a                   9.2179(14)
_cell_length_b                   10.3776(14)
_cell_length_c                   11.712(2)
_cell_angle_alpha                86.818(6)
_cell_angle_beta                 81.938(5)
_cell_angle_gamma                68.653(5)
_cell_volume                     1033.18
loop_
_atom_site_label
_atom_site_type_symbol
_atom_site_fract_x
_atom_site_fract_y
_atom_site_fract_z
Au1 Au 0.14321(3) 0.47779(2) 0.602124(19)
Au2 Au 0.44116(2) 0.32299(2) 0.733852(18)
Fe1 Fe 0.47592(9) -0.18747(7) 0.71964(7)
N1 N 0.0579(7) 0.7179(6) 0.7798(5)
C1 C 0.0750(7) 0.6291(7) 0.7195(6)
N2 N 0.6274(5) -0.2133(5) 0.8615(4)
N3 N 0.4386(5) 0.0254(5) 0.7116(4)
C2 C 0.8241(6) -0.2430(6) 1.0305(5)
N4 N 0.9465(6) -0.1583(5) 1.1622(4)
C3 C 0.7624(7) -0.1183(6) 0.9744(5)
H1 H 0.7864 -0.0407 0.9924
C4 C 0.4331(6) 0.1366(6) 0.7173(5)
N5 N 1.0424(6) -0.1991(5) 1.2502(4)
C5 C 0.7884(7) -0.3548(6) 1.0004(5)
H2 H 0.8296 -0.4424 1.0368
C6 C 0.6663(7) -0.1077(6) 0.8923(5)
H3 H 0.6244 -0.0209 0.8549
C7 C 0.9245(7) -0.2623(6) 1.1220(5)
H4 H 0.9738 -0.3524 1.1520
C8 C 1.0694(7) -0.0985(6) 1.2889(5)
H5 H 1.0284 -0.0091 1.2555
C9 C 0.6903(7) -0.3348(6) 0.9153(5)
H6 H 0.6667 -0.4113 0.8943
C10 C 1.2290(7) -0.2503(6) 1.4333(5)
H7 H 1.2154 -0.3288 1.4051
C11 C 1.1629(6) -0.1197(6) 1.3845(5)
C12 C 1.1861(7) -0.0095(6) 1.4290(5)
H8 H 1.1424 0.0806 1.3975
C13 C 1.2734(7) -0.0311(6) 1.5200(5)
H9 H 1.2896 0.0457 1.5489
C14 C 1.3141(7) -0.2624(6) 1.5234(5)
H10 H 1.3603 -0.3519 1.5554
N6 N 1.3365(5) -0.1558(4) 1.5693(4)
C15 C 0.4644(7) 0.5027(6) 0.7498(5)
C16 C 0.2429(7) 0.3373(6) 0.4773(5)
N7 N 0.3173(6) 0.2651(5) 0.4047(4)
N8 N 0.4792(6) 0.6083(5) 0.7493(4)
O1 O 0.2578(5) -0.1348(4) 0.8344(3)
H11 H 0.2052 -0.0502 0.8278
Fe1_2 Fe 0.47592(9) 0.81253(7) 0.71964(7)
Fe1_3 Fe 1.47592(9) -0.18747(7) 1.71964(7)
Fe1A Fe 0.52408(9) 0.18747(7) 0.28036(7)
N6_2 N 0.3365(5) -0.1558(4) 0.5693(4)
N7A N 0.6827(6) -0.2651(5) 0.5953(4)
N8_2 N 0.4792(6) -0.3917(5) 0.7493(4)
loop_
_geom_bond_atom_site_label_1
_geom_bond_atom_site_label_2
_geom_bond_site_symmetry_1
_geom_bond_site_symmetry_2
Au1 Au2 1_555 1_555
Au2 C4 1_555 1_555
Fe1 N2 1_555 1_555
N1 C1 1_555 1_555
C1 Au1 1_555 1_555
N2 C6 1_555 1_555
N3 Fe1 1_555 1_555
C2 C3 1_555 1_555
N4 N5 1_555 1_555
C3 H1 1_555 1_555
C4 N3 1_555 1_555
N5 C8 1_555 1_555
C5 C2 1_555 1_555
H2 C5 1_555 1_555
C6 C3 1_555 1_555
H3 C6 1_555 1_555
C7 C2 1_555 1_555
H4 C7 1_555 1_555
C8 H5 1_555 1_555
C9 N2 1_555 1_555
H6 C9 1_555 1_555
C10 H7 1_555 1_555
C11 C8 1_555 1_555
C12 C11 1_555 1_555
H8 C12 1_555 1_555
C13 C12 1_555 1_555
H9 C13 1_555 1_555
C14 C10 1_555 1_555
H10 C14 1_555 1_555
N6 C13 1_555 1_555
C15 Au2 1_555 1_555
C16 Au1 1_555 1_555
N7 C16 1_555 1_555
N8 C15 1_555 1_555
O1 Fe1 1_555 1_555
H11 O1 1_555 1_555
Fe1_2 N8 1_555 1_555
Fe1_3 N6 1_555 1_555
Fe1A N7 1_555 1_555
N6_2 Fe1 1_555 1_555
N7A Fe1 1_555 1_555
N8_2 Fe1 1_555 1_555
N4 C7 1_555 1_555
C5 C9 1_555 1_555
C10 C11 1_555 1_555
C14 N6 1_555 1_555

#END
