
#######################################################################
#
#                 Cambridge Crystallographic Data Centre
#                                CCDC 
#
#######################################################################
#
# If this CIF has been generated from an entry in the Cambridge 
# Structural Database, then it will include bibliographic, chemical, 
# crystal, experimental, refinement or atomic coordinate data resulting 
# from the CCDC's data processing and validation procedures.
#
#######################################################################

data_TUGQAO
_symmetry_cell_setting           monoclinic
_symmetry_space_group_name_H-M   'P 21/c'
_symmetry_Int_Tables_number      14
_space_group_name_Hall           '-P 2ybc'
loop_
_symmetry_equiv_pos_site_id
_symmetry_equiv_pos_as_xyz
1 x,y,z
2 -x,1/2+y,1/2-z
3 -x,-y,-z
4 x,1/2-y,1/2+z
_cell_length_a                   6.9310(14)
_cell_length_b                   21.830(4)
_cell_length_c                   7.2010(14)
_cell_angle_alpha                90
_cell_angle_beta                 104.05(3)
_cell_angle_gamma                90
_cell_volume                     1056.94
loop_
_atom_site_label
_atom_site_type_symbol
_atom_site_fract_x
_atom_site_fract_y
_atom_site_fract_z
Cu1 Cu 0.30675(8) 0.37542(2) 0.38477(7)
N1 N 0.2231(6) 0.36249(16) 0.6309(5)
C1 C 0.0539(7) 0.3350(2) 0.6335(6)
H1 H -0.0302 0.3215 0.5160
C2 C -0.0068(8) 0.3248(2) 0.8064(7)
H2 H -0.1301 0.3050 0.8015
N2 N 0.1066(6) 0.34263(18) 0.9753(5)
N3 N 0.3978(6) 0.39067(17) 1.1454(5)
C3 C 0.5685(8) 0.4186(2) 1.1506(6)
H3 H 0.6494 0.4309 1.2710
C4 C 0.6353(8) 0.4309(2) 0.9834(6)
H4 H 0.7580 0.4515 0.9922
C5 C 0.5214(7) 0.4130(2) 0.8095(6)
H5 H 0.5631 0.4211 0.6957
C6 C 0.3418(7) 0.38234(19) 0.8020(6)
C7 C 0.2791(7) 0.37148(19) 0.9727(6)
N4 N 0.5195(6) 0.27341(17) 0.4473(5)
O1 O 0.5631(5) 0.33001(14) 0.4944(4)
O2 O 0.3465(6) 0.26336(16) 0.3468(5)
O3 O 0.6436(6) 0.23330(17) 0.5044(5)
N5 N 0.1145(6) 0.48110(17) 0.3320(5)
O4 O 0.0606(5) 0.42539(14) 0.2862(4)
O5 O 0.2881(6) 0.48959(16) 0.4304(5)
O6 O -0.0064(7) 0.52245(17) 0.2756(6)
Cu1_2 Cu 0.30675(8) 0.37542(2) 1.38477(7)
N3_2 N 0.3978(6) 0.39067(17) 0.1454(5)
loop_
_geom_bond_atom_site_label_1
_geom_bond_atom_site_label_2
_geom_bond_site_symmetry_1
_geom_bond_site_symmetry_2
Cu1 N1 1_555 1_555
N1 C1 1_555 1_555
C1 H1 1_555 1_555
C2 C1 1_555 1_555
H2 C2 1_555 1_555
N2 C2 1_555 1_555
N3 C3 1_555 1_555
C3 H3 1_555 1_555
C4 C3 1_555 1_555
H4 C4 1_555 1_555
C5 C4 1_555 1_555
H5 C5 1_555 1_555
C6 N1 1_555 1_555
C7 N2 1_555 1_555
N4 O1 1_555 1_555
O1 Cu1 1_555 1_555
O2 Cu1 1_555 1_555
O3 N4 1_555 1_555
N5 O4 1_555 1_555
O4 Cu1 1_555 1_555
O5 Cu1 1_555 1_555
O6 N5 1_555 1_555
Cu1_2 N3 1_555 1_555
N3_2 Cu1 1_555 1_555
N3 C7 1_555 1_555
C5 C6 1_555 1_555
C6 C7 1_555 1_555
N4 O2 1_555 1_555
N5 O5 1_555 1_555

#END
