
#######################################################################
#
#                 Cambridge Crystallographic Data Centre
#                                CCDC 
#
#######################################################################
#
# If this CIF has been generated from an entry in the Cambridge 
# Structural Database, then it will include bibliographic, chemical, 
# crystal, experimental, refinement or atomic coordinate data resulting 
# from the CCDC's data processing and validation procedures.
#
#######################################################################

data_TUGSUK
_symmetry_cell_setting           monoclinic
_symmetry_space_group_name_H-M   'P 21/c'
_symmetry_Int_Tables_number      14
_space_group_name_Hall           '-P 2ybc'
loop_
_symmetry_equiv_pos_site_id
_symmetry_equiv_pos_as_xyz
1 x,y,z
2 -x,1/2+y,1/2-z
3 -x,-y,-z
4 x,1/2-y,1/2+z
_cell_length_a                   15.3762(4)
_cell_length_b                   25.9847(7)
_cell_length_c                   25.4431(9)
_cell_angle_alpha                90
_cell_angle_beta                 97.6260(10)
_cell_angle_gamma                90
_cell_volume                     10075.8
loop_
_atom_site_label
_atom_site_type_symbol
_atom_site_fract_x
_atom_site_fract_y
_atom_site_fract_z
Cu1 Cu 0.64313(4) 0.65820(2) 0.18152(3)
Cu2 Cu 0.47123(3) 0.73370(2) 0.24020(2)
Cu3 Cu 0.29773(4) 0.68768(2) -0.20578(3)
S1 S 0.73677(13) 0.52119(8) 0.21812(13)
O1 O 0.6547(4) 0.4999(3) 0.1935(4)
O2 O 0.7651(6) 0.4852(3) 0.2599(4)
O3 O 0.8014(4) 0.5228(2) 0.1798(3)
O4 O 0.7251(3) 0.57444(19) 0.2371(2)
N1 N 0.5636(3) 0.72521(16) 0.14120(18)
N2 N 0.4964(2) 0.74703(15) 0.16401(17)
N3 N 0.5038(3) 0.78610(15) 0.08942(17)
N4 N 0.4459(3) 0.77649(15) -0.18421(17)
N5 N 0.3815(3) 0.74981(15) -0.16329(17)
N6 N 0.4425(3) 0.80369(15) -0.10345(17)
N7 N 0.6804(2) 0.70080(16) 0.24611(17)
N8 N 0.6183(3) 0.72746(17) 0.27022(18)
N9 N 0.7492(3) 0.74817(17) 0.30882(17)
N10 N 1.1779(3) 0.73638(16) 0.33343(19)
N11 N 1.1901(3) 0.78809(16) 0.32228(17)
N12 N 1.0640(3) 0.78152(16) 0.35146(17)
N13 N 1.3282(3) 0.73842(16) 0.20783(18)
N14 N 1.2639(3) 0.76468(15) 0.22961(18)
N15 N 1.1999(2) 0.70835(16) 0.17416(17)
N16 N 0.7760(3) 0.72192(17) 0.1409(2)
N17 N 0.7555(3) 0.67289(16) 0.15643(17)
N18 N 0.8881(3) 0.67007(16) 0.13583(17)
N19 N 0.5282(3) 0.30984(15) 0.24914(17)
N20 N 0.5918(3) 0.34035(15) 0.23143(18)
N21 N 0.4863(3) 0.38931(15) 0.25149(18)
N22 N 0.4737(3) 0.65771(15) 0.23113(17)
N23 N 0.5396(3) 0.63042(15) 0.21169(17)
N24 N 0.4505(3) 0.57582(14) 0.24044(17)
C1 C 0.5673(3) 0.74914(19) 0.0967(2)
H1 H 0.6081 0.7419 0.0728
C2 C 0.4620(3) 0.7829(2) 0.1323(2)
H2 H 0.4139 0.8040 0.1386
C3 C 0.4816(3) 0.80814(18) -0.1472(2)
H3 H 0.5286 0.8310 -0.1510
C4 C 0.3804(3) 0.76647(19) -0.1150(2)
H4 H 0.3420 0.7544 -0.0914
C5 C 0.4902(3) 0.82408(19) 0.0446(2)
C6 C 0.4729(3) 0.79381(19) -0.0070(2)
H5 H 0.4195 0.7724 -0.0072
H6 H 0.5230 0.7708 -0.0107
C7 C 0.4603(3) 0.83262(19) -0.0530(2)
C8 C 0.3794(4) 0.8671(2) -0.0472(2)
H7 H 0.3688 0.8914 -0.0773
H8 H 0.3264 0.8456 -0.0468
C9 C 0.3990(5) 0.8966(2) 0.0047(2)
H9 H 0.3482 0.9195 0.0088
C10 C 0.4116(4) 0.8581(2) 0.0518(2)
H10 H 0.4226 0.8769 0.0859
H11 H 0.3583 0.8368 0.0520
C11 C 0.5728(4) 0.8567(2) 0.0451(2)
H12 H 0.6236 0.8343 0.0413
H13 H 0.5850 0.8754 0.0792
C12 C 0.5589(5) 0.8951(2) -0.0008(2)
H14 H 0.6128 0.9167 -0.0006
C13 C 0.5421(4) 0.8652(2) -0.0529(2)
H15 H 0.5343 0.8894 -0.0831
H16 H 0.5930 0.8428 -0.0567
C14 C 0.4811(6) 0.9294(2) 0.0052(3)
H17 H 0.4726 0.9546 -0.0242
H18 H 0.4922 0.9487 0.0390
C15 C 0.7585(3) 0.7141(2) 0.2699(2)
H19 H 0.8128 0.7017 0.2610
C16 C 0.6610(3) 0.7548(2) 0.3074(2)
H20 H 0.6345 0.7766 0.3306
C17 C 1.1016(3) 0.7344(2) 0.3507(2)
H21 H 1.0757 0.7037 0.3615
C18 C 1.1215(3) 0.81375(19) 0.3329(2)
H22 H 1.1134 0.8498 0.3283
C19 C 0.8172(3) 0.7758(2) 0.3445(2)
C20 C 0.9077(3) 0.76354(19) 0.3290(2)
H23 H 0.9102 0.7738 0.2917
H24 H 0.9194 0.7262 0.3324
C21 C 0.9758(3) 0.79355(19) 0.3662(2)
C22 C 0.9593(3) 0.8515(2) 0.3601(2)
H25 H 1.0045 0.8708 0.3837
H26 H 0.9624 0.8622 0.3231
C23 C 0.8681(3) 0.8630(2) 0.3751(2)
H27 H 0.8564 0.9008 0.3712
C24 C 0.7999(3) 0.83406(19) 0.3380(2)
H28 H 0.8031 0.8445 0.3009
H29 H 0.7404 0.8423 0.3465
C25 C 0.8127(3) 0.7599(2) 0.4017(2)
H30 H 0.7536 0.7672 0.4112
H31 H 0.8238 0.7225 0.4059
C26 C 0.8814(3) 0.7898(2) 0.4381(2)
H32 H 0.8787 0.7791 0.4756
C27 C 0.9726(3) 0.7774(2) 0.4237(2)
H33 H 1.0178 0.7963 0.4475
H34 H 0.9844 0.7401 0.4278
C28 C 0.8639(3) 0.8474(2) 0.4328(2)
H35 H 0.9085 0.8666 0.4568
H36 H 0.8053 0.8555 0.4427
C29 C 1.2879(3) 0.7047(2) 0.1746(2)
H37 H 1.3163 0.6811 0.1539
C30 C 1.1879(3) 0.74630(19) 0.2088(2)
H38 H 1.1326 0.7579 0.2169
C31 C 0.8558(3) 0.7188(2) 0.1288(2)
H39 H 0.8872 0.7469 0.1167
C32 C 0.8236(3) 0.6422(2) 0.1529(2)
H40 H 0.8262 0.6065 0.1610
C33 C 1.1347(3) 0.6725(2) 0.1453(2)
C34 C 1.1421(3) 0.6746(2) 0.0862(2)
H41 H 1.2019 0.6646 0.0800
H42 H 1.1307 0.7100 0.0728
C35 C 1.0744(3) 0.6374(3) 0.0571(2)
H43 H 1.0786 0.6383 0.0183
C36 C 0.9827(3) 0.6541(2) 0.0667(2)
H44 H 0.9384 0.6308 0.0475
H45 H 0.9709 0.6895 0.0532
C37 C 0.9760(3) 0.6523(2) 0.1263(2)
C38 C 1.0431(3) 0.68937(19) 0.1557(2)
H46 H 1.0313 0.7250 0.1428
H47 H 1.0392 0.6885 0.1942
C39 C 1.1535(3) 0.6185(2) 0.1665(2)
H48 H 1.1501 0.6177 0.2051
H49 H 1.2132 0.6079 0.1607
C40 C 1.0854(3) 0.5816(2) 0.1376(3)
H50 H 1.0976 0.5459 0.1513
C41 C 0.9937(3) 0.59745(19) 0.1473(2)
H51 H 0.9890 0.5962 0.1857
H52 H 0.9498 0.5735 0.1288
C42 C 1.0924(4) 0.5829(2) 0.0780(3)
H53 H 1.1519 0.5720 0.0718
H54 H 1.0493 0.5588 0.0591
C43 C 0.4653(3) 0.34026(18) 0.2607(2)
H55 H 0.4132 0.3293 0.2736
C44 C 0.5650(3) 0.38789(19) 0.2333(2)
H56 H 0.5961 0.4171 0.2234
C45 C 0.4202(3) 0.62395(18) 0.2479(2)
H57 H 0.3685 0.6320 0.2630
C46 C 0.5237(3) 0.58173(19) 0.2176(2)
H58 H 0.5588 0.5544 0.2073
C47 C 0.4292(3) 0.43333(17) 0.2628(2)
C48 C 0.4105(3) 0.52747(17) 0.2572(2)
C49 C 0.4700(3) 0.48287(17) 0.2451(2)
H59 H 0.4744 0.4815 0.2066
H60 H 0.5297 0.4875 0.2645
C50 C 0.3189(3) 0.52121(18) 0.2262(2)
H61 H 0.3226 0.5208 0.1877
H62 H 0.2811 0.5504 0.2339
C51 C 0.2798(3) 0.47063(19) 0.2428(2)
H63 H 0.2200 0.4659 0.2225
C52 C 0.3389(3) 0.42552(18) 0.2312(2)
H64 H 0.3133 0.3926 0.2415
H65 H 0.3438 0.4242 0.1928
C53 C 0.4230(4) 0.43468(19) 0.3214(2)
H66 H 0.4823 0.4387 0.3415
H67 H 0.3977 0.4020 0.3324
C54 C 0.3648(4) 0.47985(19) 0.3334(2)
H68 H 0.3605 0.4810 0.3722
C55 C 0.4041(4) 0.53023(19) 0.3162(2)
H69 H 0.3665 0.5596 0.3237
H70 H 0.4632 0.5355 0.3363
C56 C 0.2726(4) 0.4722(2) 0.3021(3)
H71 H 0.2469 0.4396 0.3130
H72 H 0.2336 0.5008 0.3097
O17 O 0.6083(2) 0.61196(15) 0.12002(16)
H73 H 0.6381 0.6188 0.0947
H74 H 0.5541 0.6160 0.1081
O18 O 0.3238(3) 0.63789(15) -0.14642(18)
H75 H 0.3721 0.6452 -0.1269
H76 H 0.2830 0.6376 -0.1264
O19 O 0.2157(3) 0.62026(17) -0.2548(2)
H77 H 0.2340 0.5901 -0.2449
H78 H 0.1606 0.6218 -0.2526
Cu2C Cu 0.47123(3) 0.76630(2) -0.25980(2)
Cu2_2 Cu 1.47123(3) 0.73370(2) 0.24020(2)
Cu2A Cu 0.52877(3) 0.23370(2) 0.25980(2)
Cu3C Cu 1.29773(4) 0.81232(2) 0.29422(3)
Cu3B Cu 0.70227(4) 0.31232(2) 0.20578(3)
N4C N 0.4459(3) 0.72351(15) 0.31579(17)
N11C N 0.1901(3) 0.71191(16) -0.17772(17)
N13_2 N 0.3282(3) 0.73842(16) 0.20783(18)
N14C N 0.2639(3) 0.73532(15) -0.27039(18)
N19A N 0.4718(3) 0.80984(15) 0.25086(17)
N20B N 0.4082(3) 0.65965(15) -0.23143(18)
S2 S 0.3958(5) 0.6472(3) 0.0498(3)
O5 O 0.4136(7) 0.6270(5) 0.1044(3)
O6 O 0.4789(8) 0.6458(7) 0.0270(5)
O7 O 0.3328(9) 0.6143(5) 0.0185(5)
O8 O 0.3618(11) 0.6985(4) 0.0535(8)
S3 S 0.56181(13) 0.84512(8) 0.41075(9)
O9 O 0.5675(4) 0.8524(3) 0.3537(3)
O10 O 0.4741(4) 0.8611(3) 0.4196(3)
O11 O 0.5826(3) 0.7945(2) 0.4198(2)
O12 O 0.6228(4) 0.8799(3) 0.4412(3)
S4 S 0.98386(14) 0.84220(7) 0.19342(8)
O13 O 0.8920(5) 0.8572(3) 0.1900(6)
O14 O 0.9998(3) 0.79437(16) 0.2199(2)
O15 O 1.0383(4) 0.8831(2) 0.2227(3)
O16 O 1.0156(6) 0.8330(4) 0.1396(3)
O20 O 0.2627(3) 0.64138(16) 0.30747(19)
O21 O 0.6939(3) 0.76867(19) 0.50830(19)
O22 O 0.7153(3) 0.81759(17) 0.1880(2)
O23 O 0.7964(3) 0.68028(19) 0.5130(2)
O24 O 0.1772(4) 0.57323(19) 0.3712(2)
O25 O 0.6426(4) 0.6076(3) 0.3354(2)
O26 O 0.7732(4) 0.6123(2) 0.4272(2)
O27 O 0.9006(4) 0.6186(2) 0.2765(2)
O28 O 0.7015(4) 0.8735(2) 0.5394(2)
O29 O 0.1327(4) 0.7069(3) 0.5014(3)
O30 O 0.2424(4) 0.7794(3) 0.4667(3)
O31 O 0.9672(4) 0.7074(2) 0.5463(3)
O32 O 0.3080(5) 0.8673(3) 0.1562(3)
O33 O 0.9272(5) 0.6382(2) 0.3853(3)
O34 O 0.2086(4) 0.8846(3) 0.4282(3)
O35 O 0.0402(4) 0.5450(3) 0.2901(3)
O36 O 0.9430(5) 0.9564(3) 0.2739(4)
O37 O 0.0862(5) 0.6227(3) 0.4428(4)
O38 O 0.2430(5) 0.4901(3) 0.5411(3)
O39 O 0.9086(6) 0.4499(4) 0.1536(4)
O40 O 0.7925(6) 0.9634(4) 0.5673(4)
O41 O 0.7307(6) 0.9569(3) 0.4090(4)
O42 O 0.2585(5) 0.4918(3) 0.4372(3)
O43 O 0.1669(7) 0.4013(3) 0.4142(4)
O44 O 0.0731(6) 0.9752(3) 0.1734(5)
O45 O 0.3423(6) 0.9676(6) 0.1466(8)
O46 O 0.0859(9) 0.5368(5) 0.5155(6)
O47 O 0.3968(8) 0.5231(5) 0.0853(5)
O48 O 0.5563(7) 0.4680(4) 0.0971(4)
O49 O 0.1683(8) 0.8344(5) 0.0981(6)
O50 O 0.3193(6) 0.9631(4) 0.4790(4)
O51 O 0.8846(7) 0.9680(4) 0.4815(5)
O52 O 0.9501(11) 1.0432(6) 0.5525(7)
O53? O 0.4011(5) 0.6762(3) 0.0103(3)
O54? O 0.6993(15) 0.4855(9) 0.1471(10)
O55? O 0.7462(16) 0.5299(11) 0.2523(12)
O56? O 0.2138(7) 0.3779(4) 0.3941(5)
O57? O -0.0110(10) 0.9489(7) 0.0904(9)
O58? O 0.3849(13) 1.0217(7) 0.1028(11)
O59? O 0.1196(14) 0.5425(8) 0.5721(9)
O60? O 0.1183(14) 0.5751(9) 0.5313(9)
loop_
_geom_bond_atom_site_label_1
_geom_bond_atom_site_label_2
_geom_bond_site_symmetry_1
_geom_bond_site_symmetry_2
Cu1 O4 1_555 1_555
Cu2 N2 1_555 1_555
Cu3 N5 1_555 1_555
S1 O1 1_555 1_555
O2 S1 1_555 1_555
O3 S1 1_555 1_555
O4 S1 1_555 1_555
S2 O5 1_555 1_555
O6 S2 1_555 1_555
O7 S2 1_555 1_555
O8 S2 1_555 1_555
S3 O9 1_555 1_555
O10 S3 1_555 1_555
O11 S3 1_555 1_555
O12 S3 1_555 1_555
S4 O13 1_555 1_555
O14 S4 1_555 1_555
O15 S4 1_555 1_555
O16 S4 1_555 1_555
N1 Cu1 1_555 1_555
N2 N1 1_555 1_555
N3 C1 1_555 1_555
N4 N5 1_555 1_555
N5 C4 1_555 1_555
N6 C3 1_555 1_555
N7 Cu1 1_555 1_555
N8 Cu2 1_555 1_555
N9 C15 1_555 1_555
N10 N11 1_555 1_555
N11 C18 1_555 1_555
N12 C17 1_555 1_555
N13 N14 1_555 1_555
N14 C30 1_555 1_555
N15 C29 1_555 1_555
N16 N17 1_555 1_555
N17 Cu1 1_555 1_555
N18 C31 1_555 1_555
N19 N20 1_555 1_555
N20 C44 1_555 1_555
N21 C43 1_555 1_555
N22 Cu2 1_555 1_555
N23 Cu1 1_555 1_555
N24 C45 1_555 1_555
C1 N1 1_555 1_555
H1 C1 1_555 1_555
C2 N2 1_555 1_555
H2 C2 1_555 1_555
C3 N4 1_555 1_555
H3 C3 1_555 1_555
C4 N6 1_555 1_555
H4 C4 1_555 1_555
C5 N3 1_555 1_555
C6 C5 1_555 1_555
H5 C6 1_555 1_555
H6 C6 1_555 1_555
C7 N6 1_555 1_555
C8 C7 1_555 1_555
H7 C8 1_555 1_555
H8 C8 1_555 1_555
C9 C8 1_555 1_555
H9 C9 1_555 1_555
C10 C5 1_555 1_555
H10 C10 1_555 1_555
H11 C10 1_555 1_555
C11 C5 1_555 1_555
H12 C11 1_555 1_555
H13 C11 1_555 1_555
C12 C11 1_555 1_555
H14 C12 1_555 1_555
C13 C7 1_555 1_555
H15 C13 1_555 1_555
H16 C13 1_555 1_555
C14 C9 1_555 1_555
H17 C14 1_555 1_555
H18 C14 1_555 1_555
C15 N7 1_555 1_555
H19 C15 1_555 1_555
C16 N8 1_555 1_555
H20 C16 1_555 1_555
C17 N10 1_555 1_555
H21 C17 1_555 1_555
C18 N12 1_555 1_555
H22 C18 1_555 1_555
C19 N9 1_555 1_555
C20 C19 1_555 1_555
H23 C20 1_555 1_555
H24 C20 1_555 1_555
C21 N12 1_555 1_555
C22 C21 1_555 1_555
H25 C22 1_555 1_555
H26 C22 1_555 1_555
C23 C22 1_555 1_555
H27 C23 1_555 1_555
C24 C19 1_555 1_555
H28 C24 1_555 1_555
H29 C24 1_555 1_555
C25 C19 1_555 1_555
H30 C25 1_555 1_555
H31 C25 1_555 1_555
C26 C25 1_555 1_555
H32 C26 1_555 1_555
C27 C21 1_555 1_555
H33 C27 1_555 1_555
H34 C27 1_555 1_555
C28 C23 1_555 1_555
H35 C28 1_555 1_555
H36 C28 1_555 1_555
C29 N13 1_555 1_555
H37 C29 1_555 1_555
C30 N15 1_555 1_555
H38 C30 1_555 1_555
C31 N16 1_555 1_555
H39 C31 1_555 1_555
C32 N17 1_555 1_555
H40 C32 1_555 1_555
C33 N15 1_555 1_555
C34 C33 1_555 1_555
H41 C34 1_555 1_555
H42 C34 1_555 1_555
C35 C34 1_555 1_555
H43 C35 1_555 1_555
C36 C35 1_555 1_555
H44 C36 1_555 1_555
H45 C36 1_555 1_555
C37 N18 1_555 1_555
C38 C33 1_555 1_555
H46 C38 1_555 1_555
H47 C38 1_555 1_555
C39 C33 1_555 1_555
H48 C39 1_555 1_555
H49 C39 1_555 1_555
C40 C39 1_555 1_555
H50 C40 1_555 1_555
C41 C37 1_555 1_555
H51 C41 1_555 1_555
H52 C41 1_555 1_555
C42 C35 1_555 1_555
H53 C42 1_555 1_555
H54 C42 1_555 1_555
C43 N19 1_555 1_555
H55 C43 1_555 1_555
C44 N21 1_555 1_555
H56 C44 1_555 1_555
C45 N22 1_555 1_555
H57 C45 1_555 1_555
C46 N23 1_555 1_555
H58 C46 1_555 1_555
C47 N21 1_555 1_555
C48 N24 1_555 1_555
C49 C47 1_555 1_555
H59 C49 1_555 1_555
H60 C49 1_555 1_555
C50 C48 1_555 1_555
H61 C50 1_555 1_555
H62 C50 1_555 1_555
C51 C50 1_555 1_555
H63 C51 1_555 1_555
C52 C47 1_555 1_555
H64 C52 1_555 1_555
H65 C52 1_555 1_555
C53 C47 1_555 1_555
H66 C53 1_555 1_555
H67 C53 1_555 1_555
C54 C53 1_555 1_555
H68 C54 1_555 1_555
C55 C48 1_555 1_555
H69 C55 1_555 1_555
H70 C55 1_555 1_555
C56 C51 1_555 1_555
H71 C56 1_555 1_555
H72 C56 1_555 1_555
O17 Cu1 1_555 1_555
H73 O17 1_555 1_555
H74 O17 1_555 1_555
O18 Cu3 1_555 1_555
H75 O18 1_555 1_555
H76 O18 1_555 1_555
O19 Cu3 1_555 1_555
H77 O19 1_555 1_555
H78 O19 1_555 1_555
Cu2C N4 1_555 1_555
Cu2_2 N13 1_555 1_555
Cu2A N19 1_555 1_555
Cu3C N11 1_555 1_555
Cu3B N20 1_555 1_555
N4C Cu2 1_555 1_555
N11C Cu3 1_555 1_555
N13_2 Cu2 1_555 1_555
N14C Cu3 1_555 1_555
N19A Cu2 1_555 1_555
N20B Cu3 1_555 1_555
N3 C2 1_555 1_555
N7 N8 1_555 1_555
N9 C16 1_555 1_555
N14 Cu3C 1_555 1_555
N18 C32 1_555 1_555
N22 N23 1_555 1_555
N24 C46 1_555 1_555
C6 C7 1_555 1_555
C9 C10 1_555 1_555
C12 C13 1_555 1_555
C12 C14 1_555 1_555
C20 C21 1_555 1_555
C23 C24 1_555 1_555
C26 C27 1_555 1_555
C26 C28 1_555 1_555
C36 C37 1_555 1_555
C37 C38 1_555 1_555
C40 C41 1_555 1_555
C40 C42 1_555 1_555
C48 C49 1_555 1_555
C51 C52 1_555 1_555
C54 C55 1_555 1_555
C54 C56 1_555 1_555

#END
