
#######################################################################
#
#                 Cambridge Crystallographic Data Centre
#                                CCDC 
#
#######################################################################
#
# If this CIF has been generated from an entry in the Cambridge 
# Structural Database, then it will include bibliographic, chemical, 
# crystal, experimental, refinement or atomic coordinate data resulting 
# from the CCDC's data processing and validation procedures.
#
#######################################################################

data_TUGTAR
_symmetry_cell_setting           monoclinic
_symmetry_space_group_name_H-M   'P 21/c'
_symmetry_Int_Tables_number      14
_space_group_name_Hall           '-P 2ybc'
loop_
_symmetry_equiv_pos_site_id
_symmetry_equiv_pos_as_xyz
1 x,y,z
2 -x,1/2+y,1/2-z
3 -x,-y,-z
4 x,1/2-y,1/2+z
_cell_length_a                   13.8436(5)
_cell_length_b                   17.8039(7)
_cell_length_c                   17.1476(7)
_cell_angle_alpha                90
_cell_angle_beta                 110.268(2)
_cell_angle_gamma                90
_cell_volume                     3964.68
loop_
_atom_site_label
_atom_site_type_symbol
_atom_site_fract_x
_atom_site_fract_y
_atom_site_fract_z
N14 N 0.3118(9) 0.3719(7) 0.6682(8)
O5 O 0.3774(12) 0.4136(8) 0.6585(9)
O6 O 0.281(2) 0.3158(13) 0.6264(17)
O7 O 0.2862(13) 0.3855(12) 0.7300(10)
N15 N 0.063(2) 0.6707(10) 0.8289(11)
O8 O 0.0881(19) 0.6293(10) 0.8908(12)
O9 O 0.027(3) 0.6424(14) 0.7588(12)
O10 O 0.0852(14) 0.7376(9) 0.8376(11)
O13 O 0.5508(16) 0.6410(13) 1.1342(13)
O14 O -0.2649(18) 0.1064(14) 0.3010(14)
Cu1 Cu 0.5000 0.5000 0.5000
Cu2 Cu 0.23929(5) 0.51055(4) 0.43782(4)
Cu3 Cu 1.0000 0.0000 1.0000
O1 O 0.3696(3) 0.4667(2) 0.5015(3)
H1 H 0.3736 0.4695 0.5592
N1 N 0.1638(4) 0.4164(3) 0.4517(3)
N2 N 0.0813(4) 0.4128(2) 0.4784(3)
N3 N 0.1201(3) 0.2986(2) 0.4563(3)
N4 N -0.1100(4) 0.0520(3) 0.1422(3)
N5 N -0.0205(4) 0.0619(3) 0.1260(3)
N6 N 0.0071(4) 0.0899(3) 0.2570(3)
N7 N 0.7869(4) 0.0603(3) 0.9530(3)
N8 N 0.8691(4) 0.0510(3) 0.9262(3)
N9 N 0.7398(4) 0.0957(3) 0.8230(3)
N10 N 0.5748(4) 0.4129(3) 0.5680(4)
N11 N 0.6782(4) 0.4038(3) 0.5845(3)
N12 N 0.6170(4) 0.2989(3) 0.6133(3)
C1 C 0.1860(5) 0.3464(3) 0.4385(4)
H2 H 0.2399 0.3318 0.4194
C2 C 0.0570(4) 0.3426(3) 0.4799(4)
H3 H 0.0017 0.3249 0.4957
C3 C -0.0910(5) 0.0679(3) 0.2206(4)
H4 H -0.1399 0.0644 0.2480
C4 C 0.0474(5) 0.0868(4) 0.1953(4)
H5 H 0.1158 0.1009 0.2015
C5 C 0.1182(4) 0.2151(3) 0.4471(4)
C6 C 0.2274(5) 0.1845(3) 0.4767(4)
H6 H 0.2630 0.1978 0.5358
H7 H 0.2663 0.2066 0.4436
C7 C 0.2227(5) 0.0991(3) 0.4666(5)
H8 H 0.2945 0.0788 0.4857
C8 C 0.1687(5) 0.0784(3) 0.3750(4)
H9 H 0.2072 0.0996 0.3410
H10 H 0.1662 0.0232 0.3684
C9 C 0.0597(4) 0.1103(3) 0.3461(3)
C10 C 0.0636(4) 0.1955(3) 0.3546(3)
H11 H -0.0071 0.2164 0.3347
H12 H 0.1019 0.2173 0.3208
C11 C 0.0599(5) 0.1822(3) 0.4995(4)
H13 H -0.0110 0.2026 0.4813
H14 H 0.0949 0.1953 0.5587
C12 C 0.0571(6) 0.0959(3) 0.4880(4)
H15 H 0.0184 0.0732 0.5217
C13 C 0.0016(5) 0.0770(3) 0.3972(4)
H16 H -0.0030 0.0219 0.3897
H17 H -0.0692 0.0976 0.3788
C14 C 0.1657(7) 0.0644(4) 0.5181(5)
H18 H 0.2008 0.0767 0.5775
H19 H 0.1638 0.0091 0.5118
C15 C 0.7113(5) 0.0872(4) 0.8894(4)
H20 H 0.6449 0.0992 0.8905
C16 C 0.8391(5) 0.0733(3) 0.8478(4)
H21 H 0.8810 0.0735 0.8142
C17 C 0.5396(5) 0.3489(3) 0.5870(5)
H22 H 0.4704 0.3396 0.5827
C18 C 0.7005(5) 0.3346(3) 0.6121(4)
H23 H 0.7674 0.3131 0.6289
C19 C 0.6701(4) 0.1159(3) 0.7368(4)
C20 C 0.7015(5) 0.0697(3) 0.6754(4)
H24 H 0.6973 0.0156 0.6870
H25 H 0.7735 0.0815 0.6811
C21 C 0.6302(5) 0.0876(3) 0.5875(4)
H26 H 0.6514 0.0568 0.5474
C22 C 0.6407(5) 0.1713(3) 0.5696(4)
H27 H 0.7128 0.1828 0.5754
H28 H 0.5959 0.1836 0.5122
C23 C 0.6090(4) 0.2172(3) 0.6316(4)
C24 C 0.6803(4) 0.2000(3) 0.7206(4)
H29 H 0.6604 0.2306 0.7608
H30 H 0.7525 0.2121 0.7271
C25 C 0.5593(4) 0.0978(3) 0.7271(4)
H31 H 0.5533 0.0438 0.7388
H32 H 0.5386 0.1275 0.7676
C26 C 0.4896(5) 0.1158(4) 0.6404(4)
H33 H 0.4169 0.1036 0.6348
C27 C 0.4976(4) 0.1999(3) 0.6229(4)
H34 H 0.4510 0.2123 0.5660
H35 H 0.4771 0.2305 0.6628
C28 C 0.5204(5) 0.0693(4) 0.5767(4)
H36 H 0.5134 0.0150 0.5859
H37 H 0.4750 0.0819 0.5195
N13 N 0.4664(10) 0.3298(7) 0.3936(11)
O2 O 0.4642(9) 0.3978(6) 0.3780(8)
O3 O 0.3854(10) 0.2953(8) 0.3875(11)
O4 O 0.5425(10) 0.2908(7) 0.3984(10)
O11 O 0.2671(11) 0.4479(8) 0.2987(8)
Cu2B Cu 0.76071(5) 0.48945(4) 0.56218(4)
Cu2A Cu -0.23929(5) 0.01055(4) 0.06218(4)
Cu2A_2 Cu 0.76071(5) 0.01055(4) 1.06218(4)
Cu2C Cu 0.23929(5) 0.98945(4) -0.06218(4)
Cu2A_3 Cu -0.23929(5) 1.01055(4) 0.06218(4)
Cu3A Cu 0.0000 0.5000 0.5000
Cu3_2 Cu 0.0000 0.0000 0.0000
Cu3_3 Cu 0.0000 1.0000 0.0000
O1B O 0.6304(3) 0.5333(2) 0.4985(3)
H1B H 0.6264 0.5305 0.4408
N1A N -0.1638(4) 0.9164(3) 0.0483(3)
N1B N 0.8362(4) 0.5836(3) 0.5483(3)
N2A N -0.0813(4) 0.9128(2) 0.0216(3)
N2A_2 N 0.9187(4) -0.0872(2) 1.0216(3)
N2C N 1.0813(4) 0.0872(2) 0.9784(3)
N3A N -0.1201(3) 0.7986(2) 0.0437(3)
N4A N 0.1100(4) 0.5520(3) 0.3578(3)
N4C N 0.8900(4) 0.4480(3) 0.6422(3)
N5A N 0.0205(4) 0.5619(3) 0.3740(3)
N5_2 N 0.9795(4) 0.0619(3) 1.1260(3)
N5B N 1.0205(4) -0.0619(3) 0.8740(3)
N6A N -0.0071(4) 0.5899(3) 0.2430(3)
N7B N 0.2131(4) 0.9397(3) 0.0470(3)
N7A N 0.2131(4) 0.5603(3) 0.5470(3)
N7C N 0.7869(4) 0.4397(3) 0.4530(3)
N8B N 0.1309(4) 0.9490(3) 0.0738(3)
N8B_2 N 1.1309(4) -0.0510(3) 1.0738(3)
N9B N 0.2602(4) 0.9043(3) 0.1770(3)
N10B N 0.4252(4) 0.5871(3) 0.4320(4)
N11B N 0.3218(4) 0.5962(3) 0.4155(3)
N12B N 0.3830(4) 0.7011(3) 0.3867(3)
C1A C -0.1860(5) 0.8464(3) 0.0615(4)
H2A H -0.2399 0.8318 0.0806
C2A C -0.0570(4) 0.8426(3) 0.0201(4)
H3A H -0.0017 0.8249 0.0043
C3A C 0.0910(5) 0.5679(3) 0.2794(4)
H4A H 0.1399 0.5644 0.2520
C4A C -0.0474(5) 0.5868(4) 0.3047(4)
H5A H -0.1158 0.6009 0.2985
C5A C -0.1182(4) 0.7151(3) 0.0529(4)
C6A C -0.2274(5) 0.6845(3) 0.0233(4)
H6A H -0.2630 0.6978 -0.0358
H7A H -0.2663 0.7066 0.0564
C7A C -0.2227(5) 0.5991(3) 0.0334(5)
H8A H -0.2945 0.5788 0.0143
C8A C -0.1687(5) 0.5784(3) 0.1250(4)
H9A H -0.2072 0.5996 0.1590
H10A H -0.1662 0.5232 0.1316
C9A C -0.0597(4) 0.6103(3) 0.1539(3)
C10A C -0.0636(4) 0.6955(3) 0.1454(3)
H11A H 0.0071 0.7164 0.1653
H12A H -0.1019 0.7173 0.1792
C11A C -0.0599(5) 0.6822(3) 0.0005(4)
H13A H 0.0110 0.7026 0.0187
H14A H -0.0949 0.6953 -0.0587
C12A C -0.0571(6) 0.5959(3) 0.0120(4)
H15A H -0.0184 0.5732 -0.0217
C13A C -0.0016(5) 0.5770(3) 0.1028(4)
H16A H 0.0030 0.5219 0.1103
H17A H 0.0692 0.5976 0.1212
C14A C -0.1657(7) 0.5644(4) -0.0181(5)
H18A H -0.2008 0.5767 -0.0775
H19A H -0.1638 0.5091 -0.0118
C15B C 0.2887(5) 0.9128(4) 0.1106(4)
H20B H 0.3551 0.9008 0.1095
C16B C 0.1609(5) 0.9267(3) 0.1522(4)
H21B H 0.1190 0.9265 0.1858
C17B C 0.4604(5) 0.6511(3) 0.4130(5)
H22B H 0.5296 0.6604 0.4173
C18B C 0.2995(5) 0.6654(3) 0.3879(4)
H23B H 0.2326 0.6869 0.3711
C19B C 0.3299(4) 0.8841(3) 0.2632(4)
C20B C 0.2985(5) 0.9303(3) 0.3246(4)
H24B H 0.3027 0.9844 0.3130
H25B H 0.2265 0.9185 0.3189
C21B C 0.3698(5) 0.9124(3) 0.4125(4)
H26B H 0.3486 0.9432 0.4526
C22B C 0.3593(5) 0.8287(3) 0.4304(4)
H27B H 0.2872 0.8172 0.4246
H28B H 0.4041 0.8164 0.4878
C23B C 0.3910(4) 0.7828(3) 0.3684(4)
C24B C 0.3197(4) 0.8000(3) 0.2794(4)
H29B H 0.3396 0.7694 0.2392
H30B H 0.2475 0.7879 0.2729
C25B C 0.4407(4) 0.9022(3) 0.2729(4)
H31B H 0.4467 0.9562 0.2612
H32B H 0.4614 0.8725 0.2324
C26B C 0.5104(5) 0.8842(4) 0.3596(4)
H33B H 0.5831 0.8964 0.3652
C27B C 0.5024(4) 0.8001(3) 0.3771(4)
H34B H 0.5490 0.7877 0.4340
H35B H 0.5229 0.7695 0.3372
C28B C 0.4796(5) 0.9307(4) 0.4233(4)
H36B H 0.4866 0.9850 0.4141
H37B H 0.5250 0.9181 0.4805
N13B N 0.5336(10) 0.6702(7) 0.6064(11)
O2B O 0.5358(9) 0.6022(6) 0.6220(8)
O3B O 0.6146(10) 0.7047(8) 0.6125(11)
O4B O 0.4575(10) 0.7092(7) 0.6016(10)
O11B O 0.7329(11) 0.5521(8) 0.7013(8)
O12? O 0.1187(16) 0.7760(13) 0.9474(14)
N16? N 0.017(2) 0.6428(14) 0.7930(19)
O15? O 0.0854(19) 0.6891(15) 0.793(2)
O16? O 0.1744(17) 0.7601(12) 1.0230(14)
O17? O 0.316(3) 0.4396(9) 0.675(2)
O18? O 0.3266(15) 0.3398(9) 0.6091(10)
O19? O 0.259(2) 0.3348(15) 0.7028(18)
O20? O -0.052(3) 0.6651(19) 0.817(2)
O21? O -0.0007(15) 0.5909(11) 0.7427(12)
loop_
_geom_bond_atom_site_label_1
_geom_bond_atom_site_label_2
_geom_bond_site_symmetry_1
_geom_bond_site_symmetry_2
Cu1 O1 1_555 1_555
Cu2 O1 1_555 1_555
Cu3 N8 1_555 1_555
O1 H1 1_555 1_555
N1 Cu2 1_555 1_555
N2 N1 1_555 1_555
N3 C1 1_555 1_555
N4 N5 1_555 1_555
N5 C4 1_555 1_555
N6 C3 1_555 1_555
N7 N8 1_555 1_555
N8 C16 1_555 1_555
N9 C15 1_555 1_555
N10 Cu1 1_555 1_555
N11 N10 1_555 1_555
N12 C17 1_555 1_555
C1 N1 1_555 1_555
H2 C1 1_555 1_555
C2 N2 1_555 1_555
H3 C2 1_555 1_555
C3 N4 1_555 1_555
H4 C3 1_555 1_555
C4 N6 1_555 1_555
H5 C4 1_555 1_555
C5 N3 1_555 1_555
C6 C5 1_555 1_555
H6 C6 1_555 1_555
H7 C6 1_555 1_555
C7 C6 1_555 1_555
H8 C7 1_555 1_555
C8 C7 1_555 1_555
H9 C8 1_555 1_555
H10 C8 1_555 1_555
C9 N6 1_555 1_555
C10 C5 1_555 1_555
H11 C10 1_555 1_555
H12 C10 1_555 1_555
C11 C5 1_555 1_555
H13 C11 1_555 1_555
H14 C11 1_555 1_555
C12 C11 1_555 1_555
H15 C12 1_555 1_555
C13 C9 1_555 1_555
H16 C13 1_555 1_555
H17 C13 1_555 1_555
C14 C7 1_555 1_555
H18 C14 1_555 1_555
H19 C14 1_555 1_555
C15 N7 1_555 1_555
H20 C15 1_555 1_555
C16 N9 1_555 1_555
H21 C16 1_555 1_555
C17 N10 1_555 1_555
H22 C17 1_555 1_555
C18 N11 1_555 1_555
H23 C18 1_555 1_555
C19 N9 1_555 1_555
C20 C19 1_555 1_555
H24 C20 1_555 1_555
H25 C20 1_555 1_555
C21 C20 1_555 1_555
H26 C21 1_555 1_555
C22 C21 1_555 1_555
H27 C22 1_555 1_555
H28 C22 1_555 1_555
C23 N12 1_555 1_555
C24 C19 1_555 1_555
H29 C24 1_555 1_555
H30 C24 1_555 1_555
C25 C19 1_555 1_555
H31 C25 1_555 1_555
H32 C25 1_555 1_555
C26 C25 1_555 1_555
H33 C26 1_555 1_555
C27 C23 1_555 1_555
H34 C27 1_555 1_555
H35 C27 1_555 1_555
C28 C21 1_555 1_555
H36 C28 1_555 1_555
H37 C28 1_555 1_555
N13 O2 1_555 1_555
O2 Cu1 1_555 1_555
O3 N13 1_555 1_555
O4 N13 1_555 1_555
N14 O5 1_555 1_555
O6 N14 1_555 1_555
O7 N14 1_555 1_555
N15 O8 1_555 1_555
O9 N15 1_555 1_555
O10 N15 1_555 1_555
O11 Cu2 1_555 1_555
Cu2B N11 1_555 1_555
Cu2A N4 1_555 1_555
Cu2A_2 N7 1_555 1_555
Cu2C N7B 1_555 1_555
Cu2A_3 N1A 1_555 1_555
Cu3A N2 1_555 1_555
Cu3_2 N5 1_555 1_555
Cu3_3 N2A 1_555 1_555
O1B Cu1 1_555 1_555
H1B O1B 1_555 1_555
N1A N2A 1_555 1_555
N1B Cu2B 1_555 1_555
N2A C2A 1_555 1_555
N2A_2 Cu3 1_555 1_555
N2C Cu3 1_555 1_555
N3A C1A 1_555 1_555
N4A Cu2 1_555 1_555
N4C Cu2B 1_555 1_555
N5A Cu3A 1_555 1_555
N5_2 Cu3 1_555 1_555
N5B Cu3 1_555 1_555
N6A C3A 1_555 1_555
N7B N8B 1_555 1_555
N7A Cu2 1_555 1_555
N7C Cu2B 1_555 1_555
N8B Cu3_3 1_555 1_555
N8B_2 Cu3 1_555 1_555
N9B C15B 1_555 1_555
N10B Cu1 1_555 1_555
N11B Cu2 1_555 1_555
N12B C17B 1_555 1_555
C1A N1A 1_555 1_555
H2A C1A 1_555 1_555
C2A N3A 1_555 1_555
H3A C2A 1_555 1_555
C3A N4A 1_555 1_555
H4A C3A 1_555 1_555
C4A N5A 1_555 1_555
H5A C4A 1_555 1_555
C5A N3A 1_555 1_555
C6A C5A 1_555 1_555
H6A C6A 1_555 1_555
H7A C6A 1_555 1_555
C7A C6A 1_555 1_555
H8A C7A 1_555 1_555
C8A C7A 1_555 1_555
H9A C8A 1_555 1_555
H10A C8A 1_555 1_555
C9A N6A 1_555 1_555
C10A C5A 1_555 1_555
H11A C10A 1_555 1_555
H12A C10A 1_555 1_555
C11A C5A 1_555 1_555
H13A C11A 1_555 1_555
H14A C11A 1_555 1_555
C12A C11A 1_555 1_555
H15A C12A 1_555 1_555
C13A C9A 1_555 1_555
H16A C13A 1_555 1_555
H17A C13A 1_555 1_555
C14A C7A 1_555 1_555
H18A C14A 1_555 1_555
H19A C14A 1_555 1_555
C15B N7B 1_555 1_555
H20B C15B 1_555 1_555
C16B N8B 1_555 1_555
H21B C16B 1_555 1_555
C17B N10B 1_555 1_555
H22B C17B 1_555 1_555
C18B N11B 1_555 1_555
H23B C18B 1_555 1_555
C19B N9B 1_555 1_555
C20B C19B 1_555 1_555
H24B C20B 1_555 1_555
H25B C20B 1_555 1_555
C21B C20B 1_555 1_555
H26B C21B 1_555 1_555
C22B C21B 1_555 1_555
H27B C22B 1_555 1_555
H28B C22B 1_555 1_555
C23B N12B 1_555 1_555
C24B C19B 1_555 1_555
H29B C24B 1_555 1_555
H30B C24B 1_555 1_555
C25B C19B 1_555 1_555
H31B C25B 1_555 1_555
H32B C25B 1_555 1_555
C26B C25B 1_555 1_555
H33B C26B 1_555 1_555
C27B C23B 1_555 1_555
H34B C27B 1_555 1_555
H35B C27B 1_555 1_555
C28B C21B 1_555 1_555
H36B C28B 1_555 1_555
H37B C28B 1_555 1_555
N13B O2B 1_555 1_555
O2B Cu1 1_555 1_555
O3B N13B 1_555 1_555
O4B N13B 1_555 1_555
O11B Cu2B 1_555 1_555
N3 C2 1_555 1_555
N12 C18 1_555 1_555
C8 C9 1_555 1_555
C9 C10 1_555 1_555
C12 C13 1_555 1_555
C12 C14 1_555 1_555
C22 C23 1_555 1_555
C23 C24 1_555 1_555
C26 C27 1_555 1_555
C26 C28 1_555 1_555
Cu2B O1B 1_555 1_555
N4A N5A 1_555 1_555
N6A C4A 1_555 1_555
N9B C16B 1_555 1_555
N10B N11B 1_555 1_555
N12B C18B 1_555 1_555
C8A C9A 1_555 1_555
C9A C10A 1_555 1_555
C12A C13A 1_555 1_555
C12A C14A 1_555 1_555
C22B C23B 1_555 1_555
C23B C24B 1_555 1_555
C26B C27B 1_555 1_555
C26B C28B 1_555 1_555

#END
