
#######################################################################
#
#                 Cambridge Crystallographic Data Centre
#                                CCDC 
#
#######################################################################
#
# If this CIF has been generated from an entry in the Cambridge 
# Structural Database, then it will include bibliographic, chemical, 
# crystal, experimental, refinement or atomic coordinate data resulting 
# from the CCDC's data processing and validation procedures.
#
#######################################################################

data_TUGXEA
_symmetry_cell_setting           monoclinic
_symmetry_space_group_name_H-M   'P 21/c'
_symmetry_Int_Tables_number      14
_space_group_name_Hall           '-P 2ybc'
loop_
_symmetry_equiv_pos_site_id
_symmetry_equiv_pos_as_xyz
1 x,y,z
2 -x,1/2+y,1/2-z
3 -x,-y,-z
4 x,1/2-y,1/2+z
_cell_length_a                   13.1680(6)
_cell_length_b                   9.4003(4)
_cell_length_c                   12.9359(6)
_cell_angle_alpha                90
_cell_angle_beta                 107.137(2)
_cell_angle_gamma                90
_cell_volume                     1530.16
loop_
_atom_site_label
_atom_site_type_symbol
_atom_site_fract_x
_atom_site_fract_y
_atom_site_fract_z
Ag1 Ag 0.26930(2) 1.08221(2) 0.67583(2)
F1 F 0.12633(19) 0.5465(3) 0.39692(19)
F2 F 0.1820(3) 0.7500(3) 0.4654(2)
F3 F 0.2908(2) 0.5774(3) 0.4765(2)
F4 F 0.2143(3) 0.5791(2) 0.7715(2)
O1 O 0.17772(19) 0.8536(3) 0.6863(2)
C1 C 0.2618(3) 0.7893(3) 0.6945(3)
C2 C 0.2514(3) 0.6244(4) 0.6909(3)
C3 C 0.1761(3) 0.5643(3) 0.5851(3)
C4 C 0.1939(3) 0.6113(4) 0.4792(3)
F5 F 0.1843(2) 0.4201(2) 0.5886(2)
F6 F 0.07535(17) 0.5970(2) 0.5790(2)
F7 F 0.34721(19) 0.5595(2) 0.7040(2)
O2 O 0.35086(19) 0.8382(3) 0.7035(2)
N1 N 0.2699(2) 1.2924(3) 0.3236(2)
N2 N 0.2737(2) 1.1436(3) 0.5080(2)
C5 C 0.3643(2) 1.1936(3) 0.4942(2)
C6 C 0.4656(3) 1.1637(5) 0.5831(3)
H1 H 0.5260 1.2052 0.5639
H2 H 0.4611 1.2058 0.6509
H3 H 0.4756 1.0606 0.5922
C7 C 0.3625(2) 1.2707(3) 0.4014(3)
C8 C 0.4604(3) 1.3364(5) 0.3847(3)
H4 H 0.5221 1.3132 0.4463
H5 H 0.4714 1.2988 0.3181
H6 H 0.4517 1.4399 0.3789
C9 C 0.1799(2) 1.2384(3) 0.3361(2)
C10 C 0.0786(3) 1.2657(4) 0.2476(3)
H7 H 0.0191 1.2211 0.2663
H8 H 0.0664 1.3685 0.2391
H9 H 0.0842 1.2255 0.1795
C11 C 0.1822(2) 1.1624(3) 0.4298(2)
C12 C 0.0838(3) 1.0979(4) 0.4473(3)
H10 H 0.0224 1.1187 0.3849
H11 H 0.0929 0.9946 0.4557
H12 H 0.0723 1.1383 0.5128
Ag1C Ag 0.26930(2) 1.41779(2) 0.17583(2)
N1C N 0.2699(2) 1.2076(3) 0.8236(2)
loop_
_geom_bond_atom_site_label_1
_geom_bond_atom_site_label_2
_geom_bond_site_symmetry_1
_geom_bond_site_symmetry_2
Ag1 O1 1_555 1_555
F1 C4 1_555 1_555
F2 C4 1_555 1_555
F3 C4 1_555 1_555
F4 C2 1_555 1_555
O1 C1 1_555 1_555
C1 C2 1_555 1_555
C2 C3 1_555 1_555
C3 C4 1_555 1_555
F5 C3 1_555 1_555
F6 C3 1_555 1_555
F7 C2 1_555 1_555
O2 Ag1 1_555 1_555
N1 C7 1_555 1_555
N2 Ag1 1_555 1_555
C5 N2 1_555 1_555
C6 C5 1_555 1_555
H1 C6 1_555 1_555
H2 C6 1_555 1_555
H3 C6 1_555 1_555
C7 C5 1_555 1_555
C8 C7 1_555 1_555
H4 C8 1_555 1_555
H5 C8 1_555 1_555
H6 C8 1_555 1_555
C9 N1 1_555 1_555
C10 C9 1_555 1_555
H7 C10 1_555 1_555
H8 C10 1_555 1_555
H9 C10 1_555 1_555
C11 N2 1_555 1_555
C12 C11 1_555 1_555
H10 C12 1_555 1_555
H11 C12 1_555 1_555
H12 C12 1_555 1_555
Ag1C N1 1_555 1_555
N1C Ag1 1_555 1_555
C1 O2 1_555 1_555
C9 C11 1_555 1_555

#END
