
#######################################################################
#
#                 Cambridge Crystallographic Data Centre
#                                CCDC 
#
#######################################################################
#
# If this CIF has been generated from an entry in the Cambridge 
# Structural Database, then it will include bibliographic, chemical, 
# crystal, experimental, refinement or atomic coordinate data resulting 
# from the CCDC's data processing and validation procedures.
#
#######################################################################

data_TUHBUV
_symmetry_cell_setting           triclinic
_symmetry_space_group_name_H-M   'P -1'
_symmetry_Int_Tables_number      2
_space_group_name_Hall           '-P 1'
loop_
_symmetry_equiv_pos_site_id
_symmetry_equiv_pos_as_xyz
1 x,y,z
2 -x,-y,-z
_cell_length_a                   10.399(3)
_cell_length_b                   12.426(4)
_cell_length_c                   12.440(6)
_cell_angle_alpha                113.296(6)
_cell_angle_beta                 93.149(6)
_cell_angle_gamma                111.769(4)
_cell_volume                     1332.28
loop_
_atom_site_label
_atom_site_type_symbol
_atom_site_fract_x
_atom_site_fract_y
_atom_site_fract_z
Co1 Co 0.87541(6) 0.55966(5) 0.71461(5)
O1 O 0.9511(4) 0.4226(3) 0.5849(3)
N1 N 0.8481(4) 0.6965(3) 0.8649(3)
N2 N 0.7475(4) 0.8133(3) 0.9821(3)
N3 N 0.4090(4) 0.7617(3) 1.2377(3)
O2 O 1.0679(3) 0.5586(3) 0.7712(3)
C1 C 0.9655(5) 0.9814(4) 1.1464(4)
H1 H 0.9224 1.0301 1.1941
C2 C 0.8899(4) 0.8723(4) 1.0409(3)
C3 C 0.7292(4) 0.7096(4) 0.8774(4)
C4 C 0.6382(5) 0.8523(4) 1.0310(4)
H2 H 0.5627 0.8292 0.9655
H3 H 0.6797 0.9455 1.0796
C5 C 1.1393(5) 0.3067(4) 0.5315(4)
H4 H 1.2234 0.2885 0.5290
C6 C 0.9519(5) 0.7990(4) 0.9682(4)
C7 C 1.0970(5) 0.8336(4) 1.0015(4)
H5 H 1.1401 0.7848 0.9540
C8 C 0.4661(5) 0.8259(5) 1.1624(4)
H6 H 0.5088 0.9192 1.2110
H7 H 0.3891 0.8035 1.0985
C9 C 1.1769(5) 0.4261(4) 0.6522(4)
H8 H 1.2621 0.4972 0.6546
C10 C 1.0566(5) 0.4699(4) 0.6672(4)
C11 C 0.2953(5) 0.6472(4) 1.2027(4)
C12 C 0.4370(5) 0.7158(5) 1.4988(4)
H9 H 0.3852 0.6524 1.5212
C13 C 0.4776(4) 0.8013(4) 1.3551(4)
C14 C 0.3980(4) 0.7051(4) 1.3846(4)
C15 C 0.5767(5) 0.7849(5) 1.1081(4)
H10 H 0.6529 0.8062 1.1720
H11 H 0.5335 0.6917 1.0587
C16 C 0.5958(5) 0.9099(5) 1.4330(5)
H12 H 0.6477 0.9737 1.4111
C17 C 1.0191(6) 0.1875(4) 0.5256(5)
H13 H 0.9323 0.1998 0.5272
H14 H 1.0030 0.1131 0.4504
C18 C 1.2122(5) 0.3962(5) 0.7548(4)
H15 H 1.2972 0.3810 0.7499
H16 H 1.2320 0.4704 0.8313
C19 C 1.0534(6) 0.1613(5) 0.6300(5)
H17 H 1.1326 0.1375 0.6223
H18 H 0.9716 0.0889 0.6275
C20 C 0.1915(6) 0.5744(5) 1.0829(4)
H19 H 0.2339 0.5339 1.0219
H20 H 0.1668 0.6334 1.0645
H21 H 0.1072 0.5093 1.0853
C21 C 1.0915(6) 0.2791(5) 0.7498(5)
H22 H 1.0088 0.2969 0.7616
H23 H 1.1186 0.2610 0.8144
C22 C 0.6340(5) 0.9196(5) 1.5456(5)
H24 H 0.7138 0.9915 1.6015
C23 C 0.5554(5) 0.8242(5) 1.5759(4)
H25 H 0.5840 0.8338 1.6526
C24 C 0.5891(5) 0.6234(5) 0.7891(4)
H26 H 0.5976 0.6236 0.7127
H27 H 0.5195 0.6542 0.8176
H28 H 0.5598 0.5368 0.7801
C25 C 1.1085(5) 1.0153(4) 1.1783(4)
H29 H 1.1637 1.0889 1.2495
C26 C 1.1733(5) 0.9426(5) 1.1072(4)
H30 H 1.2705 0.9687 1.1320
N4 N 0.2826(4) 0.6082(3) 1.2882(3)
C27 C 1.1201(5) 0.3369(4) 0.4259(4)
O3 O 1.2208(3) 0.4335(3) 0.4272(3)
O4 O 1.0107(3) 0.2703(3) 0.3412(3)
Co1A Co 0.12459(6) 0.44034(5) 1.28539(5)
Co1A_2 Co 1.12459(6) 0.44034(5) 0.28539(5)
N4A N 0.7174(4) 0.3918(3) 0.7118(3)
O3A O 0.7792(3) 0.5665(3) 0.5728(3)
O4A O 0.9893(3) 0.7297(3) 0.6588(3)
loop_
_geom_bond_atom_site_label_1
_geom_bond_atom_site_label_2
_geom_bond_site_symmetry_1
_geom_bond_site_symmetry_2
Co1 O1 1_555 1_555
O1 C10 1_555 1_555
N1 Co1 1_555 1_555
N2 C2 1_555 1_555
N3 C8 1_555 1_555
O2 Co1 1_555 1_555
C1 H1 1_555 1_555
C2 C1 1_555 1_555
C3 N1 1_555 1_555
C4 N2 1_555 1_555
H2 C4 1_555 1_555
H3 C4 1_555 1_555
C5 H4 1_555 1_555
C6 N1 1_555 1_555
C7 C6 1_555 1_555
H5 C7 1_555 1_555
C8 H6 1_555 1_555
H7 C8 1_555 1_555
C9 C5 1_555 1_555
H8 C9 1_555 1_555
C10 O2 1_555 1_555
C11 N3 1_555 1_555
C12 H9 1_555 1_555
C13 N3 1_555 1_555
C14 C12 1_555 1_555
C15 C4 1_555 1_555
H10 C15 1_555 1_555
H11 C15 1_555 1_555
C16 C13 1_555 1_555
H12 C16 1_555 1_555
C17 C5 1_555 1_555
H13 C17 1_555 1_555
H14 C17 1_555 1_555
C18 C9 1_555 1_555
H15 C18 1_555 1_555
H16 C18 1_555 1_555
C19 C17 1_555 1_555
H17 C19 1_555 1_555
H18 C19 1_555 1_555
C20 C11 1_555 1_555
H19 C20 1_555 1_555
H20 C20 1_555 1_555
H21 C20 1_555 1_555
C21 C18 1_555 1_555
H22 C21 1_555 1_555
H23 C21 1_555 1_555
C22 C16 1_555 1_555
H24 C22 1_555 1_555
C23 C12 1_555 1_555
H25 C23 1_555 1_555
C24 C3 1_555 1_555
H26 C24 1_555 1_555
H27 C24 1_555 1_555
H28 C24 1_555 1_555
C25 C1 1_555 1_555
H29 C25 1_555 1_555
C26 C7 1_555 1_555
H30 C26 1_555 1_555
N4 C11 1_555 1_555
C27 C5 1_555 1_555
O3 C27 1_555 1_555
O4 C27 1_555 1_555
Co1A N4 1_555 1_555
Co1A_2 O3 1_555 1_555
N4A Co1 1_555 1_555
O3A Co1 1_555 1_555
O4A Co1 1_555 1_555
N2 C3 1_555 1_555
C2 C6 1_555 1_555
C8 C15 1_555 1_555
C9 C10 1_555 1_555
C13 C14 1_555 1_555
C14 N4 1_555 1_555
C19 C21 1_555 1_555
C22 C23 1_555 1_555
C25 C26 1_555 1_555
O4 Co1A_2 1_555 1_555

#END
