
#######################################################################
#
#                 Cambridge Crystallographic Data Centre
#                                CCDC 
#
#######################################################################
#
# If this CIF has been generated from an entry in the Cambridge 
# Structural Database, then it will include bibliographic, chemical, 
# crystal, experimental, refinement or atomic coordinate data resulting 
# from the CCDC's data processing and validation procedures.
#
#######################################################################

data_TUHCEG
_symmetry_cell_setting           orthorhombic
_symmetry_space_group_name_H-M   'P 21 21 21'
_symmetry_Int_Tables_number      19
_space_group_name_Hall           'P 2ac 2ab'
loop_
_symmetry_equiv_pos_site_id
_symmetry_equiv_pos_as_xyz
1 x,y,z
2 1/2-x,-y,1/2+z
3 -x,1/2+y,1/2-z
4 1/2+x,1/2-y,-z
_cell_length_a                   8.7629(7)
_cell_length_b                   14.3647(12)
_cell_length_c                   19.5168(17)
_cell_angle_alpha                90
_cell_angle_beta                 90
_cell_angle_gamma                90
_cell_volume                     2456.71
loop_
_atom_site_label
_atom_site_type_symbol
_atom_site_fract_x
_atom_site_fract_y
_atom_site_fract_z
Ag1 Ag 0.30026(5) 0.54133(3) 0.74378(2)
N1 N 0.1721(5) 0.6408(3) 0.7988(2)
N2 N 0.0200(5) 0.7046(3) 0.8777(2)
C1 C 0.0575(6) 0.7277(4) 1.1697(3)
C2 C -0.0015(6) 0.5803(3) 1.1482(3)
O1 O 0.2366(6) 0.6182(3) 0.6267(2)
C3 C 0.2214(7) 0.7065(4) 1.2679(3)
H1 H 0.2693 0.6685 1.2999
C4 C 0.0856(6) 0.6259(3) 0.8539(3)
C5 C -0.1031(6) 0.6978(4) 1.0647(2)
H2 H -0.1491 0.7584 1.0719
H3 H -0.1842 0.6540 1.0546
C6 C 0.1609(6) 0.7367(3) 0.7854(3)
C7 C 0.0078(7) 0.6094(4) 0.5630(3)
H4 H -0.0615 0.5773 0.5946
C8 C -0.0809(6) 0.7136(4) 0.9369(2)
H5 H -0.1601 0.6666 0.9343
H6 H -0.1298 0.7742 0.9358
C9 C 0.0749(7) 0.8239(3) 1.1715(3)
H7 H 0.0262 0.8624 1.1400
C10 C 0.1298(6) 0.6697(4) 1.2174(3)
C11 C 0.1659(7) 0.8586(4) 1.2212(3)
H8 H 0.1803 0.9227 1.2235
C12 C 0.2268(6) 0.7884(4) 0.7338(3)
H9 H 0.2910 0.7614 0.7015
C13 C 0.0633(7) 0.5333(4) 0.8862(3)
H10 H 0.0908 0.4854 0.8541
H11 H -0.0417 0.5261 0.8990
H12 H 0.1266 0.5285 0.9262
C14 C 0.1699(8) 0.5784(4) 0.5816(3)
C15 C -0.0515(7) 0.5899(4) 0.4898(3)
H13 H -0.1534 0.6179 0.4879
O2 O 0.2239(5) 0.5077(3) 0.5487(2)
C16 C 0.2393(7) 0.8019(4) 1.2692(3)
H14 H 0.3010 0.8288 1.3025
C17 C 0.0434(8) 0.6432(4) 0.4372(3)
H15 H 0.1489 0.6230 0.4396
H16 H 0.0058 0.6300 0.3914
C18 C 0.0051(6) 0.7029(4) 1.0039(3)
H17 H 0.0736 0.7553 1.0098
H18 H 0.0662 0.6466 1.0023
C19 C -0.0107(7) 0.7145(4) 0.5766(4)
H19 H -0.1180 0.7309 0.5748
H20 H 0.0272 0.7292 0.6220
C20 C 0.1931(7) 0.8818(4) 0.7325(3)
H21 H 0.2353 0.9187 0.6982
O3 O 0.0415(7) 0.4332(3) 0.4793(3)
C21 C 0.0980(7) 0.9227(4) 0.7808(3)
H22 H 0.0780 0.9861 0.7778
O4 O -0.1958(7) 0.4654(4) 0.4494(4)
C22 C 0.0321(6) 0.8720(4) 0.8332(3)
H23 H -0.0309 0.8995 0.8658
C23 C -0.0747(10) 0.4875(5) 0.4725(4)
C24 C 0.0763(9) 0.7704(4) 0.5238(5)
H24 H 0.0569 0.8361 0.5315
H25 H 0.1847 0.7599 0.5301
C25 C 0.0341(9) 0.7466(5) 0.4509(4)
H26 H -0.0690 0.7679 0.4418
H27 H 0.1023 0.7790 0.4199
C26 C 0.0660(6) 0.7770(4) 0.8341(2)
N3 N -0.0256(5) 0.6690(3) 1.1270(2)
C27 C -0.0692(7) 0.4980(4) 1.1146(3)
H28 H -0.0293 0.4425 1.1352
H29 H -0.0444 0.4987 1.0667
H30 H -0.1781 0.4995 1.1201
N4 N 0.0892(5) 0.5776(3) 1.2029(2)
Ag1A Ag 0.19974(5) 0.45867(3) 1.24378(2)
N4A N 0.4108(5) 0.4224(3) 0.7029(2)
loop_
_geom_bond_atom_site_label_1
_geom_bond_atom_site_label_2
_geom_bond_site_symmetry_1
_geom_bond_site_symmetry_2
Ag1 N1 1_555 1_555
N1 C4 1_555 1_555
N2 C4 1_555 1_555
C1 C9 1_555 1_555
C2 N3 1_555 1_555
O1 Ag1 1_555 1_555
C3 H1 1_555 1_555
C4 C13 1_555 1_555
C5 H2 1_555 1_555
H3 C5 1_555 1_555
C6 N1 1_555 1_555
C7 H4 1_555 1_555
C8 N2 1_555 1_555
H5 C8 1_555 1_555
H6 C8 1_555 1_555
C9 H7 1_555 1_555
C10 C1 1_555 1_555
C11 C9 1_555 1_555
H8 C11 1_555 1_555
C12 C6 1_555 1_555
H9 C12 1_555 1_555
C13 H10 1_555 1_555
H11 C13 1_555 1_555
H12 C13 1_555 1_555
C14 O1 1_555 1_555
C15 C7 1_555 1_555
H13 C15 1_555 1_555
O2 C14 1_555 1_555
C16 C3 1_555 1_555
H14 C16 1_555 1_555
C17 C15 1_555 1_555
H15 C17 1_555 1_555
H16 C17 1_555 1_555
C18 C5 1_555 1_555
H17 C18 1_555 1_555
H18 C18 1_555 1_555
C19 C7 1_555 1_555
H19 C19 1_555 1_555
H20 C19 1_555 1_555
C20 C12 1_555 1_555
H21 C20 1_555 1_555
O3 C23 1_555 1_555
C21 C20 1_555 1_555
H22 C21 1_555 1_555
O4 C23 1_555 1_555
C22 C21 1_555 1_555
H23 C22 1_555 1_555
C23 C15 1_555 1_555
C24 C19 1_555 1_555
H24 C24 1_555 1_555
H25 C24 1_555 1_555
C25 C17 1_555 1_555
H26 C25 1_555 1_555
H27 C25 1_555 1_555
C26 N2 1_555 1_555
N3 C1 1_555 1_555
C27 C2 1_555 1_555
H28 C27 1_555 1_555
H29 C27 1_555 1_555
H30 C27 1_555 1_555
N4 C2 1_555 1_555
Ag1A N4 1_555 1_555
N4A Ag1 1_555 1_555
C3 C10 1_555 1_555
C5 N3 1_555 1_555
C6 C26 1_555 1_555
C7 C14 1_555 1_555
C8 C18 1_555 1_555
C10 N4 1_555 1_555
C11 C16 1_555 1_555
C22 C26 1_555 1_555
C24 C25 1_555 1_555

#END
