
#######################################################################
#
#                 Cambridge Crystallographic Data Centre
#                                CCDC 
#
#######################################################################
#
# If this CIF has been generated from an entry in the Cambridge 
# Structural Database, then it will include bibliographic, chemical, 
# crystal, experimental, refinement or atomic coordinate data resulting 
# from the CCDC's data processing and validation procedures.
#
#######################################################################

data_TUHGIO
_symmetry_cell_setting           triclinic
_symmetry_space_group_name_H-M   'P -1'
_symmetry_Int_Tables_number      2
_space_group_name_Hall           '-P 1'
loop_
_symmetry_equiv_pos_site_id
_symmetry_equiv_pos_as_xyz
1 x,y,z
2 -x,-y,-z
_cell_length_a                   13.4466(11)
_cell_length_b                   13.4785(11)
_cell_length_c                   13.8805(12)
_cell_angle_alpha                64.4500(1)
_cell_angle_beta                 61.8190(1)
_cell_angle_gamma                78.750(2)
_cell_volume                     2000.52
loop_
_atom_site_label
_atom_site_type_symbol
_atom_site_fract_x
_atom_site_fract_y
_atom_site_fract_z
Mo1 Mo 0.29730(7) -0.20580(7) 0.54161(8)
O1 O 0.4104(7) -0.1236(6) 0.4813(8)
O2 O 0.2004(7) -0.1769(7) 0.6595(7)
O3 O 0.3722(6) -0.3350(6) 0.6306(6)
O4 O 0.2297(6) -0.1351(5) 0.4353(6)
O5 O 0.2184(6) -0.3610(6) 0.5925(6)
O6 O 0.3916(5) -0.2637(5) 0.3899(6)
Cu1 Cu 0.5000 0.0000 0.5000
Mo2 Mo 0.27993(7) -0.47931(7) 0.72074(7)
Mo3 Mo 0.31664(7) -0.12989(7) 0.27239(8)
Cr1 Cr 0.30650(12) -0.39812(12) 0.45319(13)
N1 N 0.4932(6) 0.1088(6) 0.3517(7)
O7 O 0.6495(5) -0.0381(5) 0.4013(5)
O8 O 0.3758(6) -0.5500(6) 0.7756(6)
O9 O 0.2076(6) -0.5923(6) 0.7331(6)
O10 O 0.3835(6) -0.4986(5) 0.5485(6)
O11 O 0.1717(6) -0.4450(6) 0.8315(7)
O12 O 0.4159(6) -0.0331(6) 0.2158(8)
O13 O 0.4009(6) -0.2048(6) 0.1680(6)
O14 O 0.2296(5) -0.2967(5) 0.3548(6)
O15 O 0.2195(6) -0.0618(6) 0.2227(7)
O16 O 0.2224(5) -0.5329(5) 0.5071(6)
O17 O 0.4007(5) -0.4317(5) 0.3106(5)
C1 C 0.4066(8) 0.1412(9) 0.3265(9)
N2 N 0.5881(6) 0.1335(7) 0.2436(7)
Cu2 Cu 0.73809(9) 0.06260(10) 0.24140(10)
Mo4 Mo 0.30043(7) -0.66001(7) 0.61857(8)
Mo5 Mo 0.32793(7) -0.32416(7) 0.18074(7)
Mo6 Mo 0.32042(7) -0.58640(7) 0.34936(8)
H1 H 0.3315 0.1335 0.3825
N3 N 0.4417(6) 0.1867(7) 0.2089(7)
C2 C 0.5562(8) 0.1808(8) 0.1604(8)
N4 N 0.8270(6) 0.1905(7) 0.0964(7)
N5 N 0.8778(6) -0.0166(7) 0.2566(7)
N6 N 0.7503(6) -0.0231(7) 0.1256(7)
O18 O 0.3946(6) -0.7299(6) 0.6766(6)
O19 O 0.2022(6) -0.7552(6) 0.6691(7)
O20 O 0.3921(6) -0.6524(6) 0.4574(6)
O21 O 0.4385(6) -0.3548(6) 0.0693(6)
O22 O 0.2381(6) -0.2510(6) 0.1206(7)
O23 O 0.2461(5) -0.4624(6) 0.2742(6)
O24 O 0.2248(6) -0.6861(6) 0.4070(7)
O25 O 0.4306(6) -0.6039(6) 0.2289(7)
N7 N 0.3683(8) 0.2279(9) 0.1563(9)
H2 H 0.6041 0.2069 0.0794
C3 C 0.1929(9) -0.2928(8) 0.9270(9)
N8 N 0.0744(7) -0.1791(7) 0.9939(7)
C4 C 0.1150(8) 0.0692(8) 0.6432(9)
N9 N 0.0351(6) 0.0535(6) 0.8249(7)
N10 N 0.1529(6) 0.0492(7) 0.9566(7)
C5 C 0.3335(8) 0.0701(8) 0.8641(9)
H3 H 0.3900 0.2067 0.0987
H4 H 0.3002 0.2035 0.2076
H5 H 0.2547 -0.3218 0.8787
N11 N 0.1110(8) -0.3521(7) 1.0319(8)
C6 C 0.0387(9) -0.2801(10) 1.0689(10)
Cu3 Cu 0.0000 0.0000 1.0000
H6 H 0.1635 0.0603 0.5727
N12 N 0.0283(6) 0.1375(6) 0.6566(7)
C7 C -0.0203(8) 0.1253(8) 0.7715(8)
C8 C 0.1799(8) 0.1086(10) 0.9936(9)
N13 N 0.2917(7) 0.1223(8) 0.9398(8)
H7 H 0.4092 0.0678 0.8130
N14 N 0.0994(10) -0.4687(8) 1.0885(11)
H8 H -0.0284 -0.2983 1.1385
N15 N -0.0064(7) 0.2135(8) 0.5687(8)
H9 H -0.0835 0.1628 0.8064
H10 H 0.1292 0.1373 1.0491
N16 N 0.3519(8) 0.1878(10) 0.9514(9)
H11 H 0.1203 -0.4947 1.1452
H12 H 0.1419 -0.4967 1.0364
H13 H -0.0282 0.1771 0.5412
H14 H 0.0516 0.2579 0.5089
H15 H 0.4176 0.1581 0.9449
H16 H 0.3637 0.2549 0.8967
O1A O 0.5896(7) 0.1236(6) 0.5187(8)
N1A N 0.5068(6) -0.1088(6) 0.6483(7)
O7A O 0.3505(5) 0.0381(5) 0.5987(5)
Mo1A Mo 0.70270(7) 0.20580(7) 0.45839(8)
C1A C 0.5934(8) -0.1412(9) 0.6735(9)
N2A N 0.4119(6) -0.1335(7) 0.7564(7)
Cu2A Cu 0.26191(9) -0.06260(10) 0.75860(10)
O2A O 0.7996(7) 0.1769(7) 0.3405(7)
O3A O 0.6278(6) 0.3350(6) 0.3694(6)
O4A O 0.7703(6) 0.1351(5) 0.5647(6)
O5A O 0.7816(6) 0.3610(6) 0.4075(6)
O6A O 0.6084(5) 0.2637(5) 0.6101(6)
H1A H 0.6685 -0.1335 0.6175
N3A N 0.5583(6) -0.1867(7) 0.7911(7)
C2A C 0.4438(8) -0.1808(8) 0.8396(8)
N4A N 0.1730(6) -0.1905(7) 0.9036(7)
N5A N 0.1222(6) 0.0166(7) 0.7434(7)
N6A N 0.2497(6) 0.0231(7) 0.8744(7)
Mo2A Mo 0.72007(7) 0.47931(7) 0.27926(7)
Mo3A Mo 0.68336(7) 0.12989(7) 0.72761(8)
Cr1A Cr 0.69350(12) 0.39812(12) 0.54681(13)
N7A N 0.6317(8) -0.2279(9) 0.8437(9)
H2A H 0.3959 -0.2069 0.9206
O8A O 0.6242(6) 0.5500(6) 0.2244(6)
O9A O 0.7924(6) 0.5923(6) 0.2669(6)
O10A O 0.6165(6) 0.4986(5) 0.4515(6)
O11A O 0.8283(6) 0.4450(6) 0.1685(7)
O12A O 0.5841(6) 0.0331(6) 0.7842(8)
O13A O 0.5991(6) 0.2048(6) 0.8320(6)
O14A O 0.7704(5) 0.2967(5) 0.6452(6)
O15A O 0.7805(6) 0.0618(6) 0.7773(7)
O16A O 0.7776(5) 0.5329(5) 0.4929(6)
O17A O 0.5993(5) 0.4317(5) 0.6894(5)
H3A H 0.6100 -0.2067 0.9013
H4A H 0.6998 -0.2035 0.7924
Mo4A Mo 0.69957(7) 0.66001(7) 0.38143(8)
Mo5A Mo 0.67207(7) 0.32416(7) 0.81926(7)
Mo6A Mo 0.67958(7) 0.58640(7) 0.65064(8)
N9A N -0.0351(6) -0.0535(6) 1.1751(7)
N10A N -0.1529(6) -0.0492(7) 1.0434(7)
N8A N -0.0744(7) 0.1791(7) 1.0061(7)
O18A O 0.6054(6) 0.7299(6) 0.3234(6)
O19A O 0.7978(6) 0.7552(6) 0.3309(7)
O20A O 0.6079(6) 0.6524(6) 0.5426(6)
O21A O 0.5615(6) 0.3548(6) 0.9307(6)
O22A O 0.7619(6) 0.2510(6) 0.8794(7)
O23A O 0.7539(5) 0.4624(6) 0.7258(6)
O24A O 0.7752(6) 0.6861(6) 0.5930(7)
O25A O 0.5694(6) 0.6039(6) 0.7711(7)
C7A C 0.0203(8) -0.1253(8) 1.2285(8)
N5_2 N -0.1222(6) -0.0166(7) 1.2566(7)
C8A C -0.1799(8) -0.1086(10) 1.0064(9)
N6_2 N -0.2497(6) -0.0231(7) 1.1256(7)
N4_2 N -0.1730(6) 0.1905(7) 1.0964(7)
C6A C -0.0387(9) 0.2801(10) 0.9311(10)
N12A N -0.0283(6) -0.1375(6) 1.3434(7)
H9A H 0.0835 -0.1628 1.1936
C4A C -0.1150(8) -0.0692(8) 1.3568(9)
Cu2_2 Cu -0.26191(9) 0.06260(10) 1.24140(10)
N13A N -0.2917(7) -0.1223(8) 1.0602(8)
H10A H -0.1292 -0.1373 0.9509
C5A C -0.3335(8) -0.0701(8) 1.1359(9)
C3A C -0.1929(9) 0.2928(8) 1.0730(9)
H8A H 0.0284 0.2983 0.8615
N11A N -0.1110(8) 0.3521(7) 0.9681(8)
N15A N 0.0064(7) -0.2135(8) 1.4313(8)
H6A H -0.1635 -0.0603 1.4273
N16A N -0.3519(8) -0.1878(10) 1.0486(9)
H7A H -0.4092 -0.0678 1.1870
H5A H -0.2547 0.3218 1.1213
N14A N -0.0994(10) 0.4687(8) 0.9115(11)
H14A H -0.0516 -0.2579 1.4911
H13A H 0.0282 -0.1771 1.4588
H16A H -0.3637 -0.2549 1.1033
H15A H -0.4176 -0.1581 1.0551
H12A H -0.1419 0.4967 0.9636
H11A H -0.1203 0.4947 0.8548
O26 O 0.6524(9) 0.5089(9) -0.0050(10)
H17 H 0.6132 0.5666 -0.0171
H18 H 0.6412 0.4693 -0.0329
O27 O -0.0063(9) -0.3562(12) 0.6725(11)
H19 H 0.0479 -0.3464 0.6827
H20 H 0.0111 -0.3242 0.5986
O28 O -0.0062(10) -0.5313(15) 0.6185(14)
H21 H -0.0352 -0.5954 0.6622
H22 H 0.0643 -0.5383 0.5805
loop_
_geom_bond_atom_site_label_1
_geom_bond_atom_site_label_2
_geom_bond_site_symmetry_1
_geom_bond_site_symmetry_2
Mo1 O1 1_555 1_555
O1 Cu1 1_555 1_555
O2 Mo1 1_555 1_555
O3 Mo1 1_555 1_555
O4 Mo1 1_555 1_555
O5 Mo1 1_555 1_555
O6 Mo1 1_555 1_555
Cu1 N1 1_555 1_555
Mo2 O3 1_555 1_555
Mo3 O4 1_555 1_555
Cr1 O5 1_555 1_555
N1 C1 1_555 1_555
O7 Cu1 1_555 1_555
O8 Mo2 1_555 1_555
O9 Mo2 1_555 1_555
O10 Mo2 1_555 1_555
O11 Mo2 1_555 1_555
O12 Mo3 1_555 1_555
O13 Mo3 1_555 1_555
O14 Mo3 1_555 1_555
O15 Mo3 1_555 1_555
O16 Cr1 1_555 1_555
O17 Cr1 1_555 1_555
C1 H1 1_555 1_555
N2 N1 1_555 1_555
Cu2 O7 1_555 1_555
Mo4 O9 1_555 1_555
Mo5 O13 1_555 1_555
Mo6 O16 1_555 1_555
N3 C1 1_555 1_555
C2 N2 1_555 1_555
N4 Cu2 1_555 1_555
N5 Cu2 1_555 1_555
N6 Cu2 1_555 1_555
O18 Mo4 1_555 1_555
O19 Mo4 1_555 1_555
O20 Mo4 1_555 1_555
O21 Mo5 1_555 1_555
O22 Mo5 1_555 1_555
O23 Mo5 1_555 1_555
O24 Mo6 1_555 1_555
O25 Mo6 1_555 1_555
N7 N3 1_555 1_555
H2 C2 1_555 1_555
C3 H5 1_555 1_555
N8 C6 1_555 1_555
C4 H6 1_555 1_555
N9 Cu3 1_555 1_555
N10 Cu3 1_555 1_555
C5 N13 1_555 1_555
H3 N7 1_555 1_555
H4 N7 1_555 1_555
N11 C3 1_555 1_555
C6 N11 1_555 1_555
Cu3 N8 1_555 1_555
N12 C4 1_555 1_555
C7 N9 1_555 1_555
C8 N10 1_555 1_555
N13 C8 1_555 1_555
H7 C5 1_555 1_555
N14 N11 1_555 1_555
H8 C6 1_555 1_555
N15 N12 1_555 1_555
H9 C7 1_555 1_555
H10 C8 1_555 1_555
N16 N13 1_555 1_555
H11 N14 1_555 1_555
H12 N14 1_555 1_555
H13 N15 1_555 1_555
H14 N15 1_555 1_555
H15 N16 1_555 1_555
H16 N16 1_555 1_555
O26 H17 1_555 1_555
H18 O26 1_555 1_555
O27 H19 1_555 1_555
H20 O27 1_555 1_555
O28 H21 1_555 1_555
H22 O28 1_555 1_555
O1A Cu1 1_555 1_555
N1A Cu1 1_555 1_555
O7A Cu1 1_555 1_555
Mo1A O1A 1_555 1_555
C1A N1A 1_555 1_555
N2A N1A 1_555 1_555
Cu2A O7A 1_555 1_555
O2A Mo1A 1_555 1_555
O3A Mo1A 1_555 1_555
O4A Mo1A 1_555 1_555
O5A Mo1A 1_555 1_555
O6A Mo1A 1_555 1_555
H1A C1A 1_555 1_555
N3A C1A 1_555 1_555
C2A N2A 1_555 1_555
N4A C3 1_555 1_555
N5A C4 1_555 1_555
N6A N10 1_555 1_555
Mo2A O3A 1_555 1_555
Mo3A O4A 1_555 1_555
Cr1A O5A 1_555 1_555
N7A N3A 1_555 1_555
H2A C2A 1_555 1_555
O8A Mo2A 1_555 1_555
O9A Mo2A 1_555 1_555
O10A Mo2A 1_555 1_555
O11A Mo2A 1_555 1_555
O12A Mo3A 1_555 1_555
O13A Mo3A 1_555 1_555
O14A Mo3A 1_555 1_555
O15A Mo3A 1_555 1_555
O16A Cr1A 1_555 1_555
O17A Cr1A 1_555 1_555
H3A N7A 1_555 1_555
H4A N7A 1_555 1_555
Mo4A O9A 1_555 1_555
Mo5A O13A 1_555 1_555
Mo6A O16A 1_555 1_555
N9A Cu3 1_555 1_555
N10A Cu3 1_555 1_555
N8A Cu3 1_555 1_555
O18A Mo4A 1_555 1_555
O19A Mo4A 1_555 1_555
O20A Mo4A 1_555 1_555
O21A Mo5A 1_555 1_555
O22A Mo5A 1_555 1_555
O23A Mo5A 1_555 1_555
O24A Mo6A 1_555 1_555
O25A Mo6A 1_555 1_555
C7A N9A 1_555 1_555
N5_2 N9A 1_555 1_555
C8A N10A 1_555 1_555
N6_2 N10A 1_555 1_555
N4_2 N8A 1_555 1_555
C6A N8A 1_555 1_555
N12A C7A 1_555 1_555
H9A C7A 1_555 1_555
C4A N5_2 1_555 1_555
Cu2_2 N5_2 1_555 1_555
N13A C8A 1_555 1_555
H10A C8A 1_555 1_555
C5A N6_2 1_555 1_555
C3A N4_2 1_555 1_555
H8A C6A 1_555 1_555
N11A C6A 1_555 1_555
N15A N12A 1_555 1_555
H6A C4A 1_555 1_555
N16A N13A 1_555 1_555
H7A C5A 1_555 1_555
H5A C3A 1_555 1_555
N14A N11A 1_555 1_555
H14A N15A 1_555 1_555
H13A N15A 1_555 1_555
H16A N16A 1_555 1_555
H15A N16A 1_555 1_555
H12A N14A 1_555 1_555
H11A N14A 1_555 1_555
O5 Mo2 1_555 1_555
O6 Mo3 1_555 1_555
O6 Cr1 1_555 1_555
Cr1 O10 1_555 1_555
Cr1 O14 1_555 1_555
O10 Mo4 1_555 1_555
O14 Mo5 1_555 1_555
O16 Mo4 1_555 1_555
O17 Mo5 1_555 1_555
O17 Mo6 1_555 1_555
N2 Cu2 1_555 1_555
Mo6 O20 1_555 1_555
Mo6 O23 1_555 1_555
N3 C2 1_555 1_555
N8 N4A 1_555 1_555
N9 N5A 1_555 1_555
C5 N6A 1_555 1_555
N12 C7 1_555 1_555
N2A Cu2A 1_555 1_555
Cu2A N4A 1_555 1_555
Cu2A N5A 1_555 1_555
Cu2A N6A 1_555 1_555
O5A Mo2A 1_555 1_555
O6A Mo3A 1_555 1_555
O6A Cr1A 1_555 1_555
N3A C2A 1_555 1_555
Cr1A O10A 1_555 1_555
Cr1A O14A 1_555 1_555
O10A Mo4A 1_555 1_555
O14A Mo5A 1_555 1_555
O16A Mo4A 1_555 1_555
O17A Mo5A 1_555 1_555
O17A Mo6A 1_555 1_555
Mo6A O20A 1_555 1_555
Mo6A O23A 1_555 1_555
N6_2 Cu2_2 1_555 1_555
N4_2 Cu2_2 1_555 1_555
N12A C4A 1_555 1_555
N13A C5A 1_555 1_555
C3A N11A 1_555 1_555

#END
