
#######################################################################
#
#                 Cambridge Crystallographic Data Centre
#                                CCDC 
#
#######################################################################
#
# If this CIF has been generated from an entry in the Cambridge 
# Structural Database, then it will include bibliographic, chemical, 
# crystal, experimental, refinement or atomic coordinate data resulting 
# from the CCDC's data processing and validation procedures.
#
#######################################################################

data_TUHGAF
_symmetry_cell_setting           monoclinic
_symmetry_space_group_name_H-M   'P 21/n'
_symmetry_Int_Tables_number      14
_space_group_name_Hall           '-P 2yn'
loop_
_symmetry_equiv_pos_site_id
_symmetry_equiv_pos_as_xyz
1 x,y,z
2 1/2-x,1/2+y,1/2-z
3 -x,-y,-z
4 1/2+x,1/2-y,1/2+z
_cell_length_a                   11.4879(9)
_cell_length_b                   16.1335(13)
_cell_length_c                   21.9049(18)
_cell_angle_alpha                90
_cell_angle_beta                 100.205(2)
_cell_angle_gamma                90
_cell_volume                     3995.63
loop_
_atom_site_label
_atom_site_type_symbol
_atom_site_fract_x
_atom_site_fract_y
_atom_site_fract_z
C1 C 0.41048(14) 0.81148(10) 0.13989(7)
H1 H 0.3485 0.8504 0.1281
C2 C 0.50854(15) 0.81550(10) 0.11134(8)
H2 H 0.5135 0.8568 0.0810
C3 C 0.59993(15) 0.75851(10) 0.12736(8)
C4 C 0.58826(14) 0.70104(10) 0.17287(8)
H3 H 0.6490 0.6615 0.1856
C5 C 0.48815(14) 0.70124(10) 0.19983(7)
H4 H 0.4824 0.6616 0.2312
C6 C 0.70464(16) 0.75859(11) 0.09465(9)
H5 H 0.7697 0.7265 0.1195
H6 H 0.7325 0.8163 0.0917
C7 C 0.67515(16) 0.72109(11) 0.02898(8)
H7 H 0.6151 0.7561 0.0030
H8 H 0.7473 0.7213 0.0100
C8 C 0.62810(17) 0.63199(11) 0.02934(8)
H9 H 0.6706 0.6030 0.0666
H10 H 0.5433 0.6339 0.0326
C9 C 0.76397(17) 0.51944(12) -0.09253(9)
H11 H 0.8410 0.5094 -0.1011
C10 C 0.75317(17) 0.56636(12) -0.04096(9)
H12 H 0.8218 0.5873 -0.0149
C11 C 0.64163(16) 0.58281(10) -0.02737(8)
C12 C 0.54517(16) 0.54992(10) -0.06748(8)
H13 H 0.4671 0.5594 -0.0602
C13 C 0.56355(16) 0.50317(10) -0.11817(8)
H14 H 0.4966 0.4813 -0.1450
C14 C 0.07509(15) 0.77416(10) 0.31291(8)
H15 H 0.1371 0.8112 0.3293
C15 C -0.01960(16) 0.76655(11) 0.34319(8)
H16 H -0.0215 0.7979 0.3797
C16 C -0.11268(15) 0.71319(10) 0.32066(8)
C17 C -0.10393(14) 0.66964(10) 0.26667(8)
H17 H -0.1653 0.6328 0.2491
C18 C -0.00601(14) 0.68003(9) 0.23869(7)
H18 H -0.0019 0.6495 0.2020
C19 C -0.21351(17) 0.70206(12) 0.35531(9)
H19 H -0.2833 0.6804 0.3267
H20 H -0.2350 0.7565 0.3710
C20 C -0.18050(18) 0.64183(14) 0.40997(9)
H21 H -0.1041 0.6593 0.4350
H22 H -0.2412 0.6454 0.4368
C21 C -0.17027(17) 0.55219(13) 0.39020(9)
H23 H -0.1123 0.5490 0.3618
H24 H -0.1394 0.5185 0.4273
C22 C -0.40221(18) 0.44097(13) 0.27447(9)
H25 H -0.4057 0.4124 0.2363
C23 C -0.29519(17) 0.47436(13) 0.30233(9)
H26 H -0.2278 0.4690 0.2830
C24 C -0.28582(16) 0.51561(11) 0.35833(9)
C25 C -0.38712(18) 0.52017(13) 0.38456(11)
H27 H -0.3851 0.5465 0.4235
C26 C -0.49158(18) 0.48572(13) 0.35304(12)
H28 H -0.5604 0.4901 0.3713
C27 C 0.18267(15) 0.69652(10) 0.08141(7)
H29 H 0.2509 0.6629 0.0929
C28 C 0.13023(15) 0.69917(11) 0.01945(7)
H30 H 0.1617 0.6675 -0.0104
C29 C 0.03066(14) 0.74888(9) 0.00142(7)
C30 C -0.01176(14) 0.79278(10) 0.04778(7)
H31 H -0.0792 0.8275 0.0376
C31 C 0.04533(14) 0.78527(10) 0.10866(7)
H32 H 0.0142 0.8145 0.1398
C32 C -0.08285(15) 0.69612(11) -0.16604(8)
H33 H -0.0755 0.6522 -0.1940
C33 C -0.02158(16) 0.69017(11) -0.10588(8)
H34 H 0.0258 0.6429 -0.0932
C34 C -0.02982(14) 0.75379(9) -0.06412(7)
C35 C -0.09809(16) 0.82189(11) -0.08615(8)
H35 H -0.1042 0.8677 -0.0596
C36 C -0.15725(17) 0.82286(11) -0.14692(8)
H36 H -0.2039 0.8700 -0.1611
N1 N 0.39872(12) 0.75494(8) 0.18365(6)
N2 N 0.67106(14) 0.48746(9) -0.13098(7)
N3 N 0.08368(12) 0.73142(8) 0.26110(6)
N4 N -0.50073(14) 0.44668(10) 0.29836(8)
N5 N 0.14232(12) 0.73886(8) 0.12602(6)
N6 N -0.15186(12) 0.76048(8) -0.18678(6)
O9 O 0.25288(10) 0.60833(7) 0.21914(5)
H37 H 0.2100(17) 0.5799(13) 0.2325(10)
H38 H 0.2807(18) 0.5816(13) 0.1959(9)
O10 O 0.21899(10) 0.87201(7) 0.22700(6)
H39 H 0.2648(17) 0.9056(12) 0.2236(10)
H40 H 0.1589(14) 0.8927(13) 0.2212(10)
Zn1 Zn 0.240179(15) 0.741208(11) 0.221025(8)
N6C N 0.34814(12) 0.73952(8) 0.31322(6)
Zn1C Zn -0.259821(15) 0.758792(11) -0.278975(8)
Cl1 Cl 0.83228(4) 0.48143(3) 0.14464(2)
O1 O 0.91213(18) 0.53139(15) 0.11809(9)
O2 O 0.74295(14) 0.53151(9) 0.16434(6)
O3 O 0.89760(13) 0.43886(10) 0.19805(7)
O4 O 0.77711(13) 0.42287(10) 0.09964(7)
Cl2 Cl 0.31979(4) 0.02909(3) 0.05836(2)
O5 O 0.39937(15) -0.03036(10) 0.04046(7)
O6 O 0.28438(15) 0.08703(10) 0.00950(7)
O7 O 0.37877(14) 0.07288(10) 0.11322(7)
O8 O 0.21820(15) -0.01116(11) 0.07352(9)
O11 O 0.38706(11) 0.99605(8) 0.22779(6)
H41 H 0.4484(15) 0.9848(15) 0.2439(10)
H42 H 0.395(2) 1.0119(15) 0.1960(8)
loop_
_geom_bond_atom_site_label_1
_geom_bond_atom_site_label_2
_geom_bond_site_symmetry_1
_geom_bond_site_symmetry_2
C1 H1 1_555 1_555
C2 C1 1_555 1_555
H2 C2 1_555 1_555
C3 C2 1_555 1_555
C4 C3 1_555 1_555
H3 C4 1_555 1_555
C5 C4 1_555 1_555
H4 C5 1_555 1_555
C6 C3 1_555 1_555
H5 C6 1_555 1_555
H6 C6 1_555 1_555
C7 C6 1_555 1_555
H7 C7 1_555 1_555
H8 C7 1_555 1_555
C8 C7 1_555 1_555
H9 C8 1_555 1_555
H10 C8 1_555 1_555
C9 H11 1_555 1_555
C10 C9 1_555 1_555
H12 C10 1_555 1_555
C11 C8 1_555 1_555
C12 C11 1_555 1_555
H13 C12 1_555 1_555
C13 C12 1_555 1_555
H14 C13 1_555 1_555
C14 H15 1_555 1_555
C15 C14 1_555 1_555
H16 C15 1_555 1_555
C16 C15 1_555 1_555
C17 C16 1_555 1_555
H17 C17 1_555 1_555
C18 C17 1_555 1_555
H18 C18 1_555 1_555
C19 C16 1_555 1_555
H19 C19 1_555 1_555
H20 C19 1_555 1_555
C20 C19 1_555 1_555
H21 C20 1_555 1_555
H22 C20 1_555 1_555
C21 C20 1_555 1_555
H23 C21 1_555 1_555
H24 C21 1_555 1_555
C22 H25 1_555 1_555
C23 C22 1_555 1_555
H26 C23 1_555 1_555
C24 C21 1_555 1_555
C25 C24 1_555 1_555
H27 C25 1_555 1_555
C26 C25 1_555 1_555
H28 C26 1_555 1_555
C27 H29 1_555 1_555
C28 C27 1_555 1_555
H30 C28 1_555 1_555
C29 C28 1_555 1_555
C30 C29 1_555 1_555
H31 C30 1_555 1_555
C31 C30 1_555 1_555
H32 C31 1_555 1_555
C32 H33 1_555 1_555
C33 C32 1_555 1_555
H34 C33 1_555 1_555
C34 C29 1_555 1_555
C35 C34 1_555 1_555
H35 C35 1_555 1_555
C36 C35 1_555 1_555
H36 C36 1_555 1_555
Cl1 O1 1_555 1_555
Cl2 O5 1_555 1_555
N1 C1 1_555 1_555
N2 C9 1_555 1_555
N3 C14 1_555 1_555
N4 C22 1_555 1_555
N5 C27 1_555 1_555
N6 C32 1_555 1_555
O2 Cl1 1_555 1_555
O3 Cl1 1_555 1_555
O4 Cl1 1_555 1_555
O6 Cl2 1_555 1_555
O7 Cl2 1_555 1_555
O8 Cl2 1_555 1_555
O9 H37 1_555 1_555
H38 O9 1_555 1_555
O10 H39 1_555 1_555
H40 O10 1_555 1_555
O11 H41 1_555 1_555
H42 O11 1_555 1_555
Zn1 N1 1_555 1_555
N6C Zn1 1_555 1_555
Zn1C N6 1_555 1_555
C5 N1 1_555 1_555
C10 C11 1_555 1_555
C13 N2 1_555 1_555
C18 N3 1_555 1_555
C23 C24 1_555 1_555
C26 N4 1_555 1_555
C31 N5 1_555 1_555
C33 C34 1_555 1_555
C36 N6 1_555 1_555
N3 Zn1 1_555 1_555
N5 Zn1 1_555 1_555
O9 Zn1 1_555 1_555
O10 Zn1 1_555 1_555

#END
