
#######################################################################
#
#                 Cambridge Crystallographic Data Centre
#                                CCDC 
#
#######################################################################
#
# If this CIF has been generated from an entry in the Cambridge 
# Structural Database, then it will include bibliographic, chemical, 
# crystal, experimental, refinement or atomic coordinate data resulting 
# from the CCDC's data processing and validation procedures.
#
#######################################################################

data_TUHGUA
_symmetry_cell_setting           triclinic
_symmetry_space_group_name_H-M   'P -1'
_symmetry_Int_Tables_number      2
_space_group_name_Hall           '-P 1'
loop_
_symmetry_equiv_pos_site_id
_symmetry_equiv_pos_as_xyz
1 x,y,z
2 -x,-y,-z
_cell_length_a                   8.7273(9)
_cell_length_b                   12.8497(9)
_cell_length_c                   12.8591(10)
_cell_angle_alpha                86.1540(10)
_cell_angle_beta                 75.8790(10)
_cell_angle_gamma                75.8440(10)
_cell_volume                     1355.98
loop_
_atom_site_label
_atom_site_type_symbol
_atom_site_fract_x
_atom_site_fract_y
_atom_site_fract_z
Cu1 Cu 0.53183(7) 0.11841(5) 0.66554(5)
V1 V 0.65598(10) -0.14284(7) 0.68504(6)
N1 N 0.4223(5) 0.1007(3) 0.8178(3)
O1 O 0.5513(4) -0.0309(3) 0.6357(3)
C1 C 0.3116(6) 0.0491(4) 0.8595(4)
H1 H 0.2696 0.0081 0.8217
Cu2 Cu 0.57058(8) 0.26819(5) 0.86421(5)
V2 V 0.38947(10) -0.27159(7) 0.87159(6)
N2 N 0.4514(5) 0.1517(3) 0.8988(3)
O2 O 0.7602(5) -0.1061(4) 0.7582(3)
C2 C 0.3551(6) 0.1290(4) 0.9879(4)
H2 H 0.3486 0.1536 1.0555
O3 O 0.8437(5) 0.1637(3) 0.8298(3)
Cu3 Cu 0.69802(8) 0.33708(5) 0.60243(5)
V3 V 0.23766(10) -0.47383(7) 0.83755(7)
O4 O 0.5112(5) -0.2080(3) 0.7694(3)
N3 N 0.2669(5) 0.0643(3) 0.9662(3)
C3 C 0.7337(6) 0.0686(4) 0.4425(4)
H3 H 0.7142 0.0010 0.4397
O5 O 0.2073(5) -0.1981(3) 0.8992(3)
N4 N 0.1365(6) 0.0329(4) 1.0369(4)
H4 H 0.1674 -0.0292 1.0706
H5 H 0.0851 0.0810 1.0888
C4 C 0.8239(6) 0.2127(4) 0.3993(4)
H6 H 0.8785 0.2622 0.3612
V4 V 0.22821(10) -0.51733(7) 0.59967(7)
O6 O 0.4579(4) -0.2897(3) 0.9840(3)
C5 C 0.6962(6) 0.4610(4) 0.8819(4)
H7 H 0.6759 0.4584 0.9563
N5 N 0.6719(5) 0.1351(3) 0.5235(3)
V5 V 0.15152(10) -0.75433(6) 0.56430(6)
O7 O 0.3914(4) -0.3996(3) 0.8271(3)
C6 C 0.7673(6) 0.5108(4) 0.7188(4)
H8 H 0.8056 0.5489 0.6580
N6 N 0.7288(5) 0.2259(3) 0.4951(3)
O8 O 0.0966(5) -0.4292(4) 0.9441(3)
N7 N 0.8294(5) 0.1140(3) 0.3649(3)
O9 O 0.3097(5) -0.6030(3) 0.8556(4)
N8 N 0.9153(6) 0.0675(4) 0.2647(4)
H9 H 1.0207 0.0648 0.2534
H10 H 0.9004 0.0023 0.2665
N9 N 0.6670(5) 0.3939(3) 0.8235(3)
O10 O 0.1437(4) -0.4488(3) 0.7264(3)
N10 N 0.7116(5) 0.4243(3) 0.7189(3)
O11 O 0.1206(4) -0.6149(3) 0.5911(3)
N11 N 0.7603(5) 0.5353(3) 0.8195(3)
O12 O 0.7900(5) -0.2253(3) 0.5792(3)
N12 N 0.8003(5) 0.6259(4) 0.8521(4)
H11 H 0.7236 0.6613 0.9064
H12 H 0.8916 0.6103 0.8769
O13 O 0.2948(4) -0.8254(3) 0.6198(3)
O14 O 0.2032(4) -0.4253(3) 0.5041(3)
O15 O -0.0180(4) -0.7914(3) 0.6161(3)
O16 O 0.5613(4) 0.2568(2) 0.7097(2)
O17 O 0.4179(4) -0.5732(3) 0.5916(3)
Cu1_2 Cu 0.53183(7) -0.88159(5) 0.66554(5)
Cu2_2 Cu 0.57058(8) -0.73181(5) 0.86421(5)
Cu2A Cu 0.42942(8) -0.26819(5) 1.13579(5)
Cu3_2 Cu -0.30198(8) -0.66292(5) 0.60243(5)
Cu3_3 Cu 0.69802(8) -0.66292(5) 0.60243(5)
Cu3A Cu 0.30198(8) -0.33708(5) 0.39757(5)
O6A O 0.5421(4) 0.2897(3) 1.0160(3)
V5A V 0.84848(10) -0.24567(6) 0.43570(6)
O9_2 O 0.3097(5) 0.3970(3) 0.8556(4)
O12A O 0.2100(5) -0.7747(3) 0.4208(3)
O13_2 O 0.2948(4) 0.1746(3) 0.6198(3)
O14A O 0.7968(4) 0.4253(3) 0.4959(3)
O15_2 O 0.9820(4) 0.2086(3) 0.6161(3)
O17_2 O 0.4179(4) 0.4268(3) 0.5916(3)
O18 O -0.0497(5) -0.2709(4) 1.0998(4)
H13 H -0.0001 -0.3095 1.0450
H14 H 0.0122 -0.2325 1.1096
loop_
_geom_bond_atom_site_label_1
_geom_bond_atom_site_label_2
_geom_bond_site_symmetry_1
_geom_bond_site_symmetry_2
Cu1 N1 1_555 1_555
V1 O1 1_555 1_555
N1 C1 1_555 1_555
O1 Cu1 1_555 1_555
C1 H1 1_555 1_555
Cu2 N2 1_555 1_555
V2 O4 1_555 1_555
N2 N1 1_555 1_555
O2 V1 1_555 1_555
C2 N2 1_555 1_555
H2 C2 1_555 1_555
O3 Cu2 1_555 1_555
Cu3 N6 1_555 1_555
V3 O7 1_555 1_555
O4 V1 1_555 1_555
N3 C1 1_555 1_555
C3 H3 1_555 1_555
O5 V2 1_555 1_555
N4 N3 1_555 1_555
H4 N4 1_555 1_555
H5 N4 1_555 1_555
C4 H6 1_555 1_555
V4 O10 1_555 1_555
O6 V2 1_555 1_555
C5 H7 1_555 1_555
N5 Cu1 1_555 1_555
V5 O11 1_555 1_555
O7 V2 1_555 1_555
C6 H8 1_555 1_555
N6 C4 1_555 1_555
O8 V3 1_555 1_555
N7 C3 1_555 1_555
O9 V3 1_555 1_555
N8 N7 1_555 1_555
H9 N8 1_555 1_555
H10 N8 1_555 1_555
N9 Cu2 1_555 1_555
O10 V3 1_555 1_555
N10 Cu3 1_555 1_555
O11 V4 1_555 1_555
N11 C5 1_555 1_555
O12 V1 1_555 1_555
N12 N11 1_555 1_555
H11 N12 1_555 1_555
H12 N12 1_555 1_555
O13 V5 1_555 1_555
O14 V4 1_555 1_555
O15 V5 1_555 1_555
O16 Cu1 1_555 1_555
O17 V4 1_555 1_555
O18 H13 1_555 1_555
H14 O18 1_555 1_555
Cu1_2 O13 1_555 1_555
Cu2_2 O9 1_555 1_555
Cu2A O6 1_555 1_555
Cu3_2 O15 1_555 1_555
Cu3_3 O17 1_555 1_555
Cu3A O14 1_555 1_555
O6A Cu2 1_555 1_555
V5A O12 1_555 1_555
O9_2 Cu2 1_555 1_555
O12A V5 1_555 1_555
O13_2 Cu1 1_555 1_555
O14A Cu3 1_555 1_555
O15_2 Cu3 1_555 1_555
O17_2 Cu3 1_555 1_555
Cu2 O16 1_555 1_555
C2 N3 1_555 1_555
Cu3 O16 1_555 1_555
C3 N5 1_555 1_555
C4 N7 1_555 1_555
C5 N9 1_555 1_555
N5 N6 1_555 1_555
C6 N10 1_555 1_555
C6 N11 1_555 1_555
N9 N10 1_555 1_555

#END
