
#######################################################################
#
#                 Cambridge Crystallographic Data Centre
#                                CCDC 
#
#######################################################################
#
# If this CIF has been generated from an entry in the Cambridge 
# Structural Database, then it will include bibliographic, chemical, 
# crystal, experimental, refinement or atomic coordinate data resulting 
# from the CCDC's data processing and validation procedures.
#
#######################################################################

data_TUHGUY
_symmetry_cell_setting           triclinic
_symmetry_space_group_name_H-M   'P -1'
_symmetry_Int_Tables_number      2
_space_group_name_Hall           '-P 1'
loop_
_symmetry_equiv_pos_site_id
_symmetry_equiv_pos_as_xyz
1 x,y,z
2 -x,-y,-z
_cell_length_a                   6.203(1)
_cell_length_b                   9.293(2)
_cell_length_c                   12.035(2)
_cell_angle_alpha                86.56(2)
_cell_angle_beta                 87.33(2)
_cell_angle_gamma                71.23(2)
_cell_volume                     655.399
loop_
_atom_site_label
_atom_site_type_symbol
_atom_site_fract_x
_atom_site_fract_y
_atom_site_fract_z
O1 O 0.3114(5) 0.1634(3) 0.0889(2)
O2 O 0.5122(4) 0.3234(3) 0.0665(2)
N1 N 0.0471(5) 0.3767(3) 0.2544(2)
C1 C 0.3427(6) 0.2897(4) 0.0966(3)
C2 C 0.1388(5) 0.4188(4) 0.1410(3)
C3 C -0.0445(6) 0.4710(4) 0.0542(3)
C4 C 0.2422(7) 0.3180(5) 0.3321(3)
C5 C -0.0719(8) 0.2608(5) 0.2506(3)
C6 C -0.1165(7) 0.5175(5) 0.3036(3)
O3 O 0.7245(5) -0.0835(3) 0.1150(2)
O4 O 0.8019(6) 0.1453(4) -0.0825(3)
H1 H 0.1920 0.5032 0.1514
H2 H -0.1720 0.5506 0.0830
H3 H -0.0964 0.3875 0.0390
H4 H 0.1873 0.2911 0.4036
H5 H 0.3530 0.2299 0.3023
H6 H 0.3113 0.3955 0.3399
H7 H -0.1245 0.2403 0.3243
H8 H -0.1995 0.2988 0.2027
H9 H 0.0318 0.1687 0.2224
H10 H -0.1739 0.4909 0.3747
H11 H -0.0386 0.5899 0.3130
H12 H -0.2410 0.5614 0.2546
H13 H 0.7022 -0.0558 0.1823
H14 H 0.8791 -0.1011 0.1029
H15 H 0.7231 0.2075 -0.0338
H16 H 0.7352 0.1921 -0.1511
Cu1 Cu 0.5000 0.0000 0.0000
C3A C 0.0445(6) 0.5290(4) -0.0542(3)
C2A C -0.1388(5) 0.5812(4) -0.1410(3)
N1A N -0.0471(5) 0.6233(3) -0.2544(2)
C4A C -0.2422(7) 0.6820(5) -0.3321(3)
H4A H -0.1873 0.7089 -0.4036
H5A H -0.3530 0.7701 -0.3023
H6A H -0.3113 0.6045 -0.3399
C5A C 0.0719(8) 0.7392(5) -0.2506(3)
H7A H 0.1245 0.7597 -0.3243
H8A H 0.1995 0.7012 -0.2027
H9A H -0.0318 0.8313 -0.2224
C6A C 0.1165(7) 0.4825(5) -0.3036(3)
H10A H 0.1739 0.5091 -0.3747
H11A H 0.0386 0.4101 -0.3130
H12A H 0.2410 0.4386 -0.2546
C1A C -0.3427(6) 0.7103(4) -0.0966(3)
O1A O -0.3114(5) 0.8366(3) -0.0889(2)
Cu1A Cu -0.5000 1.0000 0.0000
O2A O -0.5122(4) 0.6766(3) -0.0665(2)
H1A H -0.1920 0.4968 -0.1514
H2A H 0.1720 0.4494 -0.0830
H3A H 0.0964 0.6125 -0.0390
O1A_2 O 0.6886(5) -0.1634(3) -0.0889(2)
O3A O 0.2755(5) 0.0835(3) -0.1150(2)
H13A H 0.2978 0.0558 -0.1823
H14A H 0.1209 0.1011 -0.1029
O4A O 0.1981(6) -0.1453(4) 0.0825(3)
H15A H 0.2769 -0.2075 0.0338
H16A H 0.2648 -0.1921 0.1511
Cl1 Cl 0.7100(2) 0.2295(1) -0.3977(1)
O5 O 0.7878(12) 0.0758(6) -0.3650(7)
O6 O 0.6675(7) 0.3106(5) -0.2966(3)
O7 O 0.5146(9) 0.2608(8) -0.4538(4)
O8 O 0.8844(10) 0.2615(8) -0.4576(4)
O9 O 0.6892(6) -0.0109(4) 0.3289(3)
H17 H 0.8008 -0.0446 0.3838
H18 H 0.5831 -0.0472 0.3882
loop_
_geom_bond_atom_site_label_1
_geom_bond_atom_site_label_2
_geom_bond_site_symmetry_1
_geom_bond_site_symmetry_2
O1 C1 1_555 1_555
O2 C1 1_555 1_555
N1 C2 1_555 1_555
C1 C2 1_555 1_555
C2 C3 1_555 1_555
C3 H2 1_555 1_555
C4 N1 1_555 1_555
C5 N1 1_555 1_555
C6 N1 1_555 1_555
O3 H13 1_555 1_555
O4 H15 1_555 1_555
H1 C2 1_555 1_555
H3 C3 1_555 1_555
H4 C4 1_555 1_555
H5 C4 1_555 1_555
H6 C4 1_555 1_555
H7 C5 1_555 1_555
H8 C5 1_555 1_555
H9 C5 1_555 1_555
H10 C6 1_555 1_555
H11 C6 1_555 1_555
H12 C6 1_555 1_555
H14 O3 1_555 1_555
H16 O4 1_555 1_555
Cu1 O1 1_555 1_555
Cl1 O5 1_555 1_555
O6 Cl1 1_555 1_555
O7 Cl1 1_555 1_555
O8 Cl1 1_555 1_555
O9 H17 1_555 1_555
H18 O9 1_555 1_555
C3A C3 1_555 1_555
C2A C3A 1_555 1_555
N1A C2A 1_555 1_555
C4A N1A 1_555 1_555
H4A C4A 1_555 1_555
H5A C4A 1_555 1_555
H6A C4A 1_555 1_555
C5A N1A 1_555 1_555
H7A C5A 1_555 1_555
H8A C5A 1_555 1_555
H9A C5A 1_555 1_555
C6A N1A 1_555 1_555
H10A C6A 1_555 1_555
H11A C6A 1_555 1_555
H12A C6A 1_555 1_555
C1A C2A 1_555 1_555
O1A C1A 1_555 1_555
Cu1A O1A 1_555 1_555
O2A C1A 1_555 1_555
H1A C2A 1_555 1_555
H2A C3A 1_555 1_555
H3A C3A 1_555 1_555
O1A_2 Cu1 1_555 1_555
O3A Cu1 1_555 1_555
H13A O3A 1_555 1_555
H14A O3A 1_555 1_555
O4A Cu1 1_555 1_555
H15A O4A 1_555 1_555
H16A O4A 1_555 1_555
O3 Cu1 1_555 1_555
O4 Cu1 1_555 1_555

#END
