
#######################################################################
#
#                 Cambridge Crystallographic Data Centre
#                                CCDC 
#
#######################################################################
#
# If this CIF has been generated from an entry in the Cambridge 
# Structural Database, then it will include bibliographic, chemical, 
# crystal, experimental, refinement or atomic coordinate data resulting 
# from the CCDC's data processing and validation procedures.
#
#######################################################################

data_TUHGOU
_symmetry_cell_setting           monoclinic
_symmetry_space_group_name_H-M   'P 21/c'
_symmetry_Int_Tables_number      14
_space_group_name_Hall           '-P 2ybc'
loop_
_symmetry_equiv_pos_site_id
_symmetry_equiv_pos_as_xyz
1 x,y,z
2 -x,1/2+y,1/2-z
3 -x,-y,-z
4 x,1/2-y,1/2+z
_cell_length_a                   10.0148(7)
_cell_length_b                   19.0431(14)
_cell_length_c                   21.5320(15)
_cell_angle_alpha                90
_cell_angle_beta                 102.7570(10)
_cell_angle_gamma                90
_cell_volume                     4005.06
loop_
_atom_site_label
_atom_site_type_symbol
_atom_site_fract_x
_atom_site_fract_y
_atom_site_fract_z
O1 O 0.2261(5) 0.2449(3) -0.1810(2)
Mo1 Mo 0.32891(6) 0.25866(3) -0.24441(3)
O2 O 0.1920(5) 0.1793(3) -0.3135(2)
O3 O 0.4417(5) 0.1909(3) -0.2214(2)
O4 O 0.4185(5) 0.3327(3) -0.2192(2)
O5 O 0.3723(5) 0.2619(2) -0.3328(2)
O6 O 0.1486(5) 0.3088(3) -0.2944(2)
Cu1 Cu -0.22407(10) 0.19284(5) -0.25053(4)
Mo2 Mo 0.00982(6) 0.25531(3) -0.33975(3)
Mo3 Mo 0.28213(6) 0.16839(3) -0.38015(3)
Mo4 Mo 0.50378(6) 0.29505(3) -0.38053(3)
O7 O -0.0599(5) 0.2144(3) -0.2812(2)
O8 O 0.1075(5) 0.2570(2) -0.4211(2)
O9 O -0.0718(5) 0.1758(3) -0.4032(2)
O10 O -0.1046(5) 0.3189(3) -0.3691(2)
O11 O 0.3584(5) 0.2221(2) -0.4421(2)
O12 O 0.1592(5) 0.1201(2) -0.4351(2)
O13 O 0.4079(5) 0.1098(3) -0.3527(2)
O14 O 0.6349(5) 0.2406(3) -0.3451(2)
O15 O 0.5378(5) 0.3028(3) -0.4633(2)
O16 O 0.3068(5) 0.3584(2) -0.4297(2)
O17 O 0.5492(5) 0.3758(3) -0.3477(2)
Mo5 Mo -0.03670(6) 0.18011(3) -0.48284(2)
Mo6 Mo 0.18674(5) 0.30742(3) -0.48296(2)
Mo7 Mo 0.46576(6) 0.22883(3) -0.52397(3)
O18 O -0.1645(5) 0.2374(3) -0.5218(2)
O19 O 0.0966(5) 0.2146(2) -0.5303(2)
O20 O -0.0859(5) 0.1001(3) -0.5171(2)
O21 O 0.2769(5) 0.2947(2) -0.5512(2)
O22 O 0.0636(5) 0.3666(2) -0.5129(2)
O23 O 0.3167(5) 0.1689(3) -0.5753(2)
O24 O 0.5348(5) 0.2637(3) -0.5831(2)
O25 O 0.5668(5) 0.1589(3) -0.4972(3)
Cu2 Cu -0.25123(9) 0.28988(4) -0.60059(4)
Mo8 Mo 0.12901(6) 0.22663(3) -0.61981(3)
O26 O -0.0011(5) 0.2872(3) -0.6366(2)
N1 N -0.2640(6) 0.2069(3) -0.6546(3)
O27 O -0.2983(5) 0.3476(2) -0.6799(2)
N2 N -0.2411(6) 0.3760(3) -0.5512(3)
O28 O 0.0546(5) 0.1500(3) -0.6487(2)
C1 C -0.2894(8) 0.1408(4) -0.6455(3)
N3 N -0.2363(6) 0.2124(3) -0.7137(3)
Cu3 Cu -0.25534(10) 0.45244(5) -0.66927(4)
N4 N -0.2246(7) 0.4411(3) -0.5760(3)
C2 C -0.2246(7) 0.3830(4) -0.4898(3)
N5 N -0.2775(6) 0.1035(3) -0.6966(3)
H1 H -0.3123 0.1226 -0.6091
C3 C -0.2428(7) 0.1498(4) -0.7380(3)
N6 N -0.2653(6) 0.3982(3) -0.7964(3)
O29 O -0.4815(9) 0.4853(5) -0.6751(4)
N7 N -0.2876(7) 0.4574(3) -0.7627(3)
O30 O -0.0277(6) 0.4263(3) -0.6647(3)
O31 O -0.2034(9) 0.5550(3) -0.6587(3)
C4 C -0.1970(10) 0.4845(4) -0.5287(4)
H2 H -0.2323 0.3472 -0.4614
N8 N -0.1948(7) 0.4503(3) -0.4743(3)
N9 N -0.3022(9) 0.0307(4) -0.7046(4)
H3 H -0.2262 0.1385 -0.7776
C5 C -0.3001(8) 0.4144(4) -0.8569(3)
C6 C -0.3309(8) 0.5071(4) -0.8040(3)
H4 H -0.1811 0.5323 -0.5320
N10 N -0.1726(10) 0.4782(4) -0.4122(3)
H5 H -0.3634 0.0234 -0.7390
H6 H -0.3308 0.0140 -0.6726
H7 H -0.2978 0.3841 -0.8905
N11 N -0.3397(6) 0.4818(3) -0.8625(3)
H8 H -0.3523 0.5527 -0.7942
H9 H -0.1226 0.4510 -0.3836
H10 H -0.1287 0.5179 -0.4110
N12 N -0.3879(8) 0.5214(4) -0.9186(3)
H11 H -0.4721 0.5106 -0.9341
H12 H -0.3819 0.5656 -0.9102
Cu1_2 Cu 0.77593(10) 0.19284(5) -0.25053(4)
Cu2_2 Cu 0.74877(9) 0.28988(4) -0.60059(4)
O24_2 O -0.4652(5) 0.2637(3) -0.5831(2)
O1C O 0.2261(5) 0.2551(3) -0.6810(2)
Cu1C Cu -0.22407(10) 0.30716(5) -0.75053(4)
Mo1C Mo 0.32891(6) 0.24134(3) -0.74441(3)
O7C O -0.0599(5) 0.2856(3) -0.7812(2)
O14C O -0.3651(5) 0.2594(3) -0.8451(2)
O32 O -0.3061(11) 0.4950(5) -0.0380(5)
H13 H -0.2703 0.5242 -0.0594
H14 H -0.2464 0.4638 -0.0239
O33 O 0.0085(11) 0.4371(5) -0.2657(5)
H15 H 0.0474 0.4110 -0.2350
H16 H 0.0458 0.4291 -0.2969
O34 O 0.0653(9) 0.4452(5) 0.2151(4)
H17 H 0.1406 0.4323 0.2067
H18 H 0.0600 0.4268 0.2504
O35 O -0.0594(12) -0.0037(5) -0.4012(7)
H19 H -0.0911 0.0102 -0.3699
H20 H 0.0206 0.0133 -0.3970
O36 O -0.6494(11) 0.0887(5) -0.1262(6)
H21 H -0.6715 0.1316 -0.1242
H22 H -0.6167 0.0837 -0.1592
O37 O 0.4604(10) 0.0512(5) -0.0240(5)
H23 H 0.5407 0.0635 -0.0263
H24 H 0.4348 0.0781 0.0026
loop_
_geom_bond_atom_site_label_1
_geom_bond_atom_site_label_2
_geom_bond_site_symmetry_1
_geom_bond_site_symmetry_2
O1 Mo1 1_555 1_555
Mo1 O2 1_555 1_555
O2 Mo2 1_555 1_555
O3 Mo1 1_555 1_555
O4 Mo1 1_555 1_555
O5 Mo1 1_555 1_555
O6 Mo1 1_555 1_555
Cu1 O7 1_555 1_555
Mo2 O6 1_555 1_555
Mo3 O2 1_555 1_555
Mo4 O5 1_555 1_555
O7 Mo2 1_555 1_555
O8 Mo2 1_555 1_555
O9 Mo2 1_555 1_555
O10 Mo2 1_555 1_555
O11 Mo3 1_555 1_555
O12 Mo3 1_555 1_555
O13 Mo3 1_555 1_555
O14 Mo4 1_555 1_555
O15 Mo4 1_555 1_555
O16 Mo4 1_555 1_555
O17 Mo4 1_555 1_555
Mo5 O8 1_555 1_555
Mo6 O8 1_555 1_555
Mo7 O11 1_555 1_555
O18 Mo5 1_555 1_555
O19 Mo5 1_555 1_555
O20 Mo5 1_555 1_555
O21 Mo6 1_555 1_555
O22 Mo6 1_555 1_555
O23 Mo7 1_555 1_555
O24 Mo7 1_555 1_555
O25 Mo7 1_555 1_555
Cu2 O18 1_555 1_555
Mo8 O19 1_555 1_555
O26 Cu2 1_555 1_555
N1 Cu2 1_555 1_555
O27 Cu2 1_555 1_555
N2 Cu2 1_555 1_555
O28 Mo8 1_555 1_555
C1 N1 1_555 1_555
N3 N1 1_555 1_555
Cu3 O27 1_555 1_555
N4 N2 1_555 1_555
C2 N2 1_555 1_555
N5 C1 1_555 1_555
H1 C1 1_555 1_555
C3 N3 1_555 1_555
N6 N7 1_555 1_555
O29 Cu3 1_555 1_555
N7 Cu3 1_555 1_555
O30 Cu3 1_555 1_555
O31 Cu3 1_555 1_555
C4 N4 1_555 1_555
H2 C2 1_555 1_555
N8 C2 1_555 1_555
N9 N5 1_555 1_555
H3 C3 1_555 1_555
C5 N6 1_555 1_555
C6 N7 1_555 1_555
H4 C4 1_555 1_555
N10 N8 1_555 1_555
H5 N9 1_555 1_555
H6 N9 1_555 1_555
H7 C5 1_555 1_555
N11 C5 1_555 1_555
H8 C6 1_555 1_555
H9 N10 1_555 1_555
H10 N10 1_555 1_555
N12 N11 1_555 1_555
H11 N12 1_555 1_555
H12 N12 1_555 1_555
O32 H13 1_555 1_555
H14 O32 1_555 1_555
O33 H15 1_555 1_555
H16 O33 1_555 1_555
O34 H17 1_555 1_555
H18 O34 1_555 1_555
O35 H19 1_555 1_555
H20 O35 1_555 1_555
O36 H21 1_555 1_555
H22 O36 1_555 1_555
O37 H23 1_555 1_555
H24 O37 1_555 1_555
Cu1_2 O14 1_555 1_555
Cu2_2 O24 1_555 1_555
O24_2 Cu2 1_555 1_555
O1C Mo8 1_555 1_555
Cu1C O27 1_555 1_555
Mo1C O1C 1_555 1_555
O7C Cu1C 1_555 1_555
O14C Cu1C 1_555 1_555
O5 Mo3 1_555 1_555
Mo3 O8 1_555 1_555
Mo4 O11 1_555 1_555
O9 Mo5 1_555 1_555
O11 Mo6 1_555 1_555
O12 Mo5 1_555 1_555
O15 Mo7 1_555 1_555
O16 Mo6 1_555 1_555
Mo6 O19 1_555 1_555
Mo7 O21 1_555 1_555
O21 Mo8 1_555 1_555
O23 Mo8 1_555 1_555
Mo8 O26 1_555 1_555
N3 Cu1C 1_555 1_555
Cu3 N4 1_555 1_555
N5 C3 1_555 1_555
N6 Cu1C 1_555 1_555
C4 N8 1_555 1_555
C6 N11 1_555 1_555

#END
