
#######################################################################
#
#                 Cambridge Crystallographic Data Centre
#                                CCDC 
#
#######################################################################
#
# If this CIF has been generated from an entry in the Cambridge 
# Structural Database, then it will include bibliographic, chemical, 
# crystal, experimental, refinement or atomic coordinate data resulting 
# from the CCDC's data processing and validation procedures.
#
#######################################################################

data_TUHGIM
_symmetry_cell_setting           monoclinic
_symmetry_space_group_name_H-M   'C 2/c'
_symmetry_Int_Tables_number      15
_space_group_name_Hall           '-C 2yn'
loop_
_symmetry_equiv_pos_site_id
_symmetry_equiv_pos_as_xyz
1 x,y,z
2 -x,y,1/2-z
3 1/2+x,1/2+y,z
4 1/2-x,1/2+y,1/2-z
5 -x,-y,-z
6 x,-y,1/2+z
7 1/2-x,1/2-y,-z
8 1/2+x,1/2-y,1/2+z
_cell_length_a                   17.725(3)
_cell_length_b                   5.958(2)
_cell_length_c                   19.077(3)
_cell_angle_alpha                90
_cell_angle_beta                 110.70(1)
_cell_angle_gamma                90
_cell_volume                     1884.58
loop_
_atom_site_label
_atom_site_type_symbol
_atom_site_fract_x
_atom_site_fract_y
_atom_site_fract_z
Cu1 Cu 0.5000 0.0750(1) 0.2500
Cl1 Cl 0.3748(1) 0.0043(1) 0.1572(1)
O1 O 0.4506(1) 0.0878(3) 0.3261(1)
O2 O 0.4436(1) -0.2849(3) 0.3406(1)
N1 N 0.3193(1) 0.0785(3) 0.3900(1)
C1 C 0.4335(1) -0.0875(4) 0.3547(1)
C2 C 0.4000(1) -0.0467(4) 0.4185(1)
C3 C 0.4615(1) 0.0717(4) 0.4850(1)
C4 C 0.2673(2) -0.0164(5) 0.3162(1)
C5 C 0.3293(2) 0.3261(4) 0.3817(2)
C6 C 0.2765(2) 0.0408(5) 0.4444(2)
O3 O 0.5000 0.4485(4) 0.2500
H1 H 0.3902 -0.1913 0.4359
H2 H 0.4743 0.2154 0.4692
H3 H 0.4393 0.0959 0.5236
H4 H 0.2576 -0.1729 0.3220
H5 H 0.2943 0.0000 0.2808
H6 H 0.2168 0.0626 0.2983
H7 H 0.3610 0.3889 0.4294
H8 H 0.3563 0.3507 0.3466
H9 H 0.2774 0.3973 0.3636
H10 H 0.2672 -0.1173 0.4472
H11 H 0.2258 0.1187 0.4272
H12 H 0.3088 0.0955 0.4931
H13 H 0.5152 0.5249 0.2251
Cl1A Cl 0.6252(1) 0.0043(1) 0.3428(1)
C3D C 0.5385(1) -0.0717(4) 0.5150(1)
C2D C 0.6000(1) 0.0467(4) 0.5815(1)
N1D N 0.6807(1) -0.0785(3) 0.6100(1)
C4D C 0.7327(2) 0.0164(5) 0.6838(1)
H4D H 0.7424 0.1729 0.6780
H5D H 0.7057 0.0000 0.7192
H6D H 0.7832 -0.0626 0.7017
C5D C 0.6707(2) -0.3261(4) 0.6183(2)
H7D H 0.6390 -0.3889 0.5706
H8D H 0.6437 -0.3507 0.6534
H9D H 0.7226 -0.3973 0.6364
C6D C 0.7235(2) -0.0408(5) 0.5556(2)
H10D H 0.7328 0.1173 0.5528
H11D H 0.7742 -0.1187 0.5728
H12D H 0.6912 -0.0955 0.5069
C1D C 0.5665(1) 0.0875(4) 0.6453(1)
O1D O 0.5494(1) -0.0878(3) 0.6739(1)
Cu1D Cu 0.5000 -0.0750(1) 0.7500
O2D O 0.5564(1) 0.2849(3) 0.6594(1)
H1D H 0.6098 0.1913 0.5641
H2D H 0.5257 -0.2154 0.5308
H3D H 0.5607 -0.0959 0.4764
O1A O 0.5494(1) 0.0878(3) 0.1739(1)
H13A H 0.4848 0.5249 0.2749
O4 O 0.4076 0.4374(4) 0.0598(1)
H14 H 0.4235 0.5562 0.0811
H15 H 0.3968 0.3083 0.0882
loop_
_geom_bond_atom_site_label_1
_geom_bond_atom_site_label_2
_geom_bond_site_symmetry_1
_geom_bond_site_symmetry_2
Cu1 Cl1 1_555 1_555
O1 Cu1 1_555 1_555
O2 C1 1_555 1_555
N1 C2 1_555 1_555
C1 O1 1_555 1_555
C2 C1 1_555 1_555
C3 C2 1_555 1_555
C4 N1 1_555 1_555
C5 N1 1_555 1_555
C6 N1 1_555 1_555
O3 Cu1 1_555 1_555
H1 C2 1_555 1_555
H2 C3 1_555 1_555
H3 C3 1_555 1_555
H4 C4 1_555 1_555
H5 C4 1_555 1_555
H6 C4 1_555 1_555
H7 C5 1_555 1_555
H8 C5 1_555 1_555
H9 C5 1_555 1_555
H10 C6 1_555 1_555
H11 C6 1_555 1_555
H12 C6 1_555 1_555
H13 O3 1_555 1_555
O4 H14 1_555 1_555
H15 O4 1_555 1_555
Cl1A Cu1 1_555 1_555
C3D C3 1_555 1_555
C2D C3D 1_555 1_555
N1D C2D 1_555 1_555
C4D N1D 1_555 1_555
H4D C4D 1_555 1_555
H5D C4D 1_555 1_555
H6D C4D 1_555 1_555
C5D N1D 1_555 1_555
H7D C5D 1_555 1_555
H8D C5D 1_555 1_555
H9D C5D 1_555 1_555
C6D N1D 1_555 1_555
H10D C6D 1_555 1_555
H11D C6D 1_555 1_555
H12D C6D 1_555 1_555
C1D C2D 1_555 1_555
O1D C1D 1_555 1_555
Cu1D O1D 1_555 1_555
O2D C1D 1_555 1_555
H1D C2D 1_555 1_555
H2D C3D 1_555 1_555
H3D C3D 1_555 1_555
O1A Cu1 1_555 1_555
H13A O3 1_555 1_555

#END
