
#######################################################################
#
#                 Cambridge Crystallographic Data Centre
#                                CCDC 
#
#######################################################################
#
# If this CIF has been generated from an entry in the Cambridge 
# Structural Database, then it will include bibliographic, chemical, 
# crystal, experimental, refinement or atomic coordinate data resulting 
# from the CCDC's data processing and validation procedures.
#
#######################################################################

data_TUHHAH
_symmetry_cell_setting           monoclinic
_symmetry_space_group_name_H-M   'I 2/a'
_symmetry_Int_Tables_number      15
_space_group_name_Hall           '-I 2ya'
loop_
_symmetry_equiv_pos_site_id
_symmetry_equiv_pos_as_xyz
1 x,y,z
2 1/2-x,y,-z
3 1/2+x,1/2+y,1/2+z
4 -x,1/2+y,1/2-z
5 -x,-y,-z
6 1/2+x,-y,z
7 1/2-x,1/2-y,1/2-z
8 x,1/2-y,1/2+z
_cell_length_a                   18.331(12)
_cell_length_b                   13.2839(9)
_cell_length_c                   26.055(2)
_cell_angle_alpha                90
_cell_angle_beta                 109.215(1)
_cell_angle_gamma                90
_cell_volume                     5991.12
loop_
_atom_site_label
_atom_site_type_symbol
_atom_site_fract_x
_atom_site_fract_y
_atom_site_fract_z
O24 O 0.388(5) 0.103(6) 0.053(3)
H14 H 0.4229 0.1419 0.0409
H15 H 0.3958 0.1161 0.0905
O25 O 0.334(5) 0.840(7) -0.493(4)
H16 H 0.3023 0.8512 -0.5272
H17 H 0.3510 0.9042 -0.4762
O26 O 0.342(4) 0.622(6) -0.480(3)
H18 H 0.3430 0.6943 -0.4823
H19 H 0.3588 0.5928 -0.5074
Cu1 Cu 0.2660(3) 0.2992(4) -0.0644(2)
Si1 Si 0.2500 0.7500 -0.2500
W1 W 0.27511(14) 0.58109(16) -0.34738(8)
W2 W 0.39341(12) 0.76877(19) -0.12033(8)
W3 W 0.42011(12) 0.60604(16) -0.22041(10)
W4 W 0.13394(11) 0.53051(14) -0.28552(8)
W5 W 0.28097(12) 0.54764(14) -0.15741(8)
W6 W 0.11329(11) 0.69733(15) -0.18457(8)
N1 N 0.415(2) 0.275(3) -0.0882(18)
N2 N 0.356(2) 0.228(3) -0.0740(17)
N3 N 0.449(2) 0.120(3) -0.0654(18)
N4 N 0.496(3) 0.034(3) -0.0540(19)
H1 H 0.4796 -0.0203 -0.0434
H2 H 0.5406 0.0357 -0.0577
N5 N 0.165(2) 0.364(3) -0.0011(12)
N6 N 0.178(2) 0.371(3) -0.0511(12)
N7 N 0.073(2) 0.458(3) -0.0579(15)
N8 N 0.009(2) 0.524(3) -0.0741(15)
H3 H 0.0258 0.5903 -0.0793
H4 H -0.0275 0.5002 -0.1075
N9 N 0.196(2) 0.253(3) -0.1357(16)
N10 N 0.124(2) 0.207(3) -0.1422(16)
N11 N 0.144(2) 0.209(3) -0.2214(17)
N12 N 0.138(2) 0.202(3) -0.2757(17)
H5 H 0.1319 0.1327 -0.2867
H6 H 0.0932 0.2393 -0.2967
O1 O 0.500(2) 0.542(3) -0.2009(17)
O2 O 0.2500 0.179(4) 0.0000
H7 H 0.2949 0.1378 0.0151
O3 O 0.447(3) 0.692(5) -0.158(2)
O4 O 0.462(2) 0.773(3) -0.0586(16)
O5 O 0.446(3) 0.705(4) -0.263(2)
O6 O 0.414(3) 0.880(4) -0.155(2)
O7 O 0.314(3) 0.850(4) -0.107(2)
O8 O 0.351(3) 0.546(4) -0.284(2)
O9 O 0.209(2) 0.511(3) -0.3230(15)
O10 O 0.288(2) 0.499(3) -0.3954(15)
O11 O 0.081(2) 0.423(3) -0.2995(17)
O12 O 0.086(3) 0.603(3) -0.2436(17)
O13 O 0.193(3) 0.613(3) -0.1456(18)
O14 O 0.166(3) 0.811(3) -0.1428(19)
O15 O 0.047(2) 0.668(3) -0.1556(15)
O16 O 0.209(2) 0.490(3) -0.2205(15)
O17 O 0.2934(19) 0.446(2) -0.1132(13)
O18 O 0.368(3) 0.525(4) -0.181(2)
O19 O 0.343(3) 0.642(4) -0.106(2)
O20 O 0.299(3) 0.836(5) -0.202(2)
O21 O 0.311(3) 0.685(4) -0.202(2)
O22 O 0.213(3) 0.664(4) -0.229(2)
O23 O 0.185(3) 0.795(4) -0.223(2)
C1 C 0.464(3) 0.210(4) -0.090(2)
H8 H 0.5035 0.2192 -0.1040
C2 C 0.376(3) 0.137(4) -0.0628(19)
H9 H 0.3452 0.0878 -0.0541
C3 C 0.209(3) 0.250(4) -0.182(2)
H10 H 0.2537 0.2710 -0.1872
C4 C 0.096(3) 0.181(4) -0.1919(19)
H11 H 0.0497 0.1472 -0.2067
C5 C 0.126(2) 0.432(3) -0.0867(18)
H12 H 0.1254 0.4523 -0.1211
C6 C 0.096(2) 0.417(3) -0.0082(17)
H13 H 0.0711 0.4228 0.0173
O20F O 0.201(3) 0.664(5) -0.298(2)
O21F O 0.189(3) 0.815(4) -0.298(2)
O22F O 0.287(3) 0.836(4) -0.271(2)
O23F O 0.315(3) 0.705(4) -0.277(2)
H7A H 0.2051 0.1378 -0.0151
Cu1A Cu 0.2340(3) 0.2992(4) 0.0644(2)
W1A W 0.22489(14) 0.58109(16) 0.34738(8)
W2A W 0.10659(12) 0.76877(19) 0.12033(8)
W3A W 0.07989(12) 0.60604(16) 0.22041(10)
W4A W 0.36606(11) 0.53051(14) 0.28552(8)
W5A W 0.21903(12) 0.54764(14) 0.15741(8)
W6A W 0.38671(11) 0.69733(15) 0.18457(8)
N1A N 0.085(2) 0.275(3) 0.0882(18)
N2A N 0.144(2) 0.228(3) 0.0740(17)
N3A N 0.051(2) 0.120(3) 0.0654(18)
N4A N 0.004(3) 0.034(3) 0.0540(19)
H1A H 0.0204 -0.0203 0.0434
H2A H -0.0406 0.0357 0.0577
N5A N 0.335(2) 0.364(3) 0.0011(12)
N6A N 0.322(2) 0.371(3) 0.0511(12)
N7A N 0.427(2) 0.458(3) 0.0579(15)
N8A N 0.491(2) 0.524(3) 0.0741(15)
H3A H 0.4742 0.5903 0.0793
H4A H 0.5275 0.5002 0.1075
N9A N 0.304(2) 0.253(3) 0.1357(16)
N10A N 0.376(2) 0.207(3) 0.1422(16)
N11A N 0.356(2) 0.209(3) 0.2214(17)
N12A N 0.362(2) 0.202(3) 0.2757(17)
H5A H 0.3681 0.1327 0.2867
H6A H 0.4068 0.2393 0.2967
O1A O 0.000(2) 0.542(3) 0.2009(17)
O3A O 0.053(3) 0.692(5) 0.158(2)
O4A O 0.038(2) 0.773(3) 0.0586(16)
O5A O 0.054(3) 0.705(4) 0.263(2)
O6A O 0.086(3) 0.880(4) 0.155(2)
O7A O 0.186(3) 0.850(4) 0.107(2)
O8A O 0.149(3) 0.546(4) 0.284(2)
O9A O 0.291(2) 0.511(3) 0.3230(15)
O10A O 0.212(2) 0.499(3) 0.3954(15)
O11A O 0.419(2) 0.423(3) 0.2995(17)
O12A O 0.414(3) 0.603(3) 0.2436(17)
O13A O 0.307(3) 0.613(3) 0.1456(18)
O14A O 0.334(3) 0.811(3) 0.1428(19)
O15A O 0.453(2) 0.668(3) 0.1556(15)
O16A O 0.291(2) 0.490(3) 0.2205(15)
O17A O 0.2066(19) 0.446(2) 0.1132(13)
O18A O 0.132(3) 0.525(4) 0.181(2)
O19A O 0.157(3) 0.642(4) 0.106(2)
C1A C 0.036(3) 0.210(4) 0.090(2)
H8A H -0.0035 0.2192 0.1040
C2A C 0.124(3) 0.137(4) 0.0628(19)
H9A H 0.1548 0.0878 0.0541
C3A C 0.291(3) 0.250(4) 0.182(2)
H10A H 0.2463 0.2710 0.1872
C4A C 0.404(3) 0.181(4) 0.1919(19)
H11A H 0.4503 0.1472 0.2067
C5A C 0.374(2) 0.432(3) 0.0867(18)
H12A H 0.3746 0.4523 0.1211
C6A C 0.404(2) 0.417(3) 0.0082(17)
H13A H 0.4289 0.4228 -0.0173
W1F W 0.22489(14) 0.91891(16) -0.15262(8)
W1G W 0.27511(14) 0.91891(16) 0.15262(8)
W2F W 0.10659(12) 0.73123(19) -0.37967(8)
W3F W 0.07989(12) 0.89396(16) -0.27959(10)
W4F W 0.36606(11) 0.96949(14) -0.21448(8)
W4G W 0.13394(11) 0.96949(14) 0.21448(8)
W5F W 0.21903(12) 0.95236(14) -0.34259(8)
W6F W 0.38671(11) 0.80267(15) -0.31543(8)
W6G W 0.11329(11) 0.80267(15) 0.31543(8)
O5F O 0.054(3) 0.795(4) -0.237(2)
O5G O 0.446(3) 0.795(4) 0.237(2)
O6F O 0.086(3) 0.620(4) -0.345(2)
O6G O 0.414(3) 0.620(4) 0.345(2)
O7F O 0.186(3) 0.650(4) -0.393(2)
O7G O 0.314(3) 0.650(4) 0.393(2)
O14F O 0.334(3) 0.689(3) -0.3572(19)
O14G O 0.166(3) 0.689(3) 0.3572(19)
O20A O 0.201(3) 0.836(5) 0.202(2)
O20G O 0.299(3) 0.664(5) 0.298(2)
O21A O 0.189(3) 0.685(4) 0.202(2)
O22A O 0.287(3) 0.664(4) 0.229(2)
O23A O 0.315(3) 0.795(4) 0.223(2)
O23G O 0.185(3) 0.705(4) 0.277(2)
loop_
_geom_bond_atom_site_label_1
_geom_bond_atom_site_label_2
_geom_bond_site_symmetry_1
_geom_bond_site_symmetry_2
Cu1 N2 1_555 1_555
Si1 O20 1_555 1_555
W1 O8 1_555 1_555
W2 O3 1_555 1_555
W3 O1 1_555 1_555
W4 O9 1_555 1_555
W5 O13 1_555 1_555
W6 O12 1_555 1_555
N1 N2 1_555 1_555
N2 C2 1_555 1_555
N3 N4 1_555 1_555
N4 H1 1_555 1_555
H2 N4 1_555 1_555
N5 N6 1_555 1_555
N6 Cu1 1_555 1_555
N7 N8 1_555 1_555
N8 H3 1_555 1_555
H4 N8 1_555 1_555
N9 Cu1 1_555 1_555
N10 N9 1_555 1_555
N11 N12 1_555 1_555
N12 H5 1_555 1_555
H6 N12 1_555 1_555
O2 Cu1 1_555 1_555
H7 O2 1_555 1_555
O3 W3 1_555 1_555
O4 W2 1_555 1_555
O5 W3 1_555 1_555
O6 W2 1_555 1_555
O7 W2 1_555 1_555
O8 W3 1_555 1_555
O9 W1 1_555 1_555
O10 W1 1_555 1_555
O11 W4 1_555 1_555
O12 W4 1_555 1_555
O13 W6 1_555 1_555
O14 W6 1_555 1_555
O15 W6 1_555 1_555
O16 W4 1_555 1_555
O17 Cu1 1_555 1_555
O18 W3 1_555 1_555
O19 W2 1_555 1_555
O20 W2 1_555 1_555
O21 Si1 1_555 1_555
O22 Si1 1_555 1_555
O23 Si1 1_555 1_555
C1 N1 1_555 1_555
H8 C1 1_555 1_555
C2 N3 1_555 1_555
H9 C2 1_555 1_555
C3 N9 1_555 1_555
H10 C3 1_555 1_555
C4 N10 1_555 1_555
H11 C4 1_555 1_555
C5 N6 1_555 1_555
H12 C5 1_555 1_555
C6 N5 1_555 1_555
H13 C6 1_555 1_555
O24 H14 1_555 1_555
H15 O24 1_555 1_555
O25 H16 1_555 1_555
H17 O25 1_555 1_555
O26 H18 1_555 1_555
H19 O26 1_555 1_555
O20F Si1 1_555 1_555
O21F Si1 1_555 1_555
O22F Si1 1_555 1_555
O23F Si1 1_555 1_555
H7A O2 1_555 1_555
Cu1A N5 1_555 1_555
W1A O8A 1_555 1_555
W2A O3A 1_555 1_555
W3A O1A 1_555 1_555
W4A O9A 1_555 1_555
W5A O13A 1_555 1_555
W6A O12A 1_555 1_555
N1A N2A 1_555 1_555
N2A Cu1A 1_555 1_555
N3A N4A 1_555 1_555
N4A H1A 1_555 1_555
H2A N4A 1_555 1_555
N5A Cu1 1_555 1_555
N6A Cu1A 1_555 1_555
N7A N8A 1_555 1_555
N8A H3A 1_555 1_555
H4A N8A 1_555 1_555
N9A Cu1A 1_555 1_555
N10A N9A 1_555 1_555
N11A N12A 1_555 1_555
N12A H5A 1_555 1_555
H6A N12A 1_555 1_555
O3A W3A 1_555 1_555
O4A W2A 1_555 1_555
O5A W3A 1_555 1_555
O6A W2A 1_555 1_555
O7A W2A 1_555 1_555
O8A W3A 1_555 1_555
O9A W1A 1_555 1_555
O10A W1A 1_555 1_555
O11A W4A 1_555 1_555
O12A W4A 1_555 1_555
O13A W6A 1_555 1_555
O14A W6A 1_555 1_555
O15A W6A 1_555 1_555
O16A W4A 1_555 1_555
O17A Cu1A 1_555 1_555
O18A W3A 1_555 1_555
O19A W2A 1_555 1_555
C1A N1A 1_555 1_555
H8A C1A 1_555 1_555
C2A N2A 1_555 1_555
H9A C2A 1_555 1_555
C3A N9A 1_555 1_555
H10A C3A 1_555 1_555
C4A N10A 1_555 1_555
H11A C4A 1_555 1_555
C5A N6A 1_555 1_555
H12A C5A 1_555 1_555
C6A N5A 1_555 1_555
H13A C6A 1_555 1_555
W1F O7 1_555 1_555
W1G O7A 1_555 1_555
W2F O20F 1_555 1_555
W3F O23 1_555 1_555
W4F O6 1_555 1_555
W4G O6A 1_555 1_555
W5F O21F 1_555 1_555
W6F O5 1_555 1_555
W6G O5A 1_555 1_555
O5F W6 1_555 1_555
O5G W6A 1_555 1_555
O6F W4 1_555 1_555
O6G W4A 1_555 1_555
O7F W1 1_555 1_555
O7G W1A 1_555 1_555
O14F W1 1_555 1_555
O14G W1A 1_555 1_555
O20A W2A 1_555 1_555
O20G W1A 1_555 1_555
O21A W2A 1_555 1_555
O22A W4A 1_555 1_555
O23A W6A 1_555 1_555
O23G W1A 1_555 1_555
W1 O20F 1_555 1_555
W1 O23F 1_555 1_555
W2 O21 1_555 1_555
W3 O21 1_555 1_555
W3 O23F 1_555 1_555
W4 O22 1_555 1_555
W4 O20F 1_555 1_555
W5 O16 1_555 1_555
W5 O17 1_555 1_555
W5 O18 1_555 1_555
W5 O19 1_555 1_555
W5 O21 1_555 1_555
W5 O22 1_555 1_555
W6 O23 1_555 1_555
N3 C1 1_555 1_555
N7 C5 1_555 1_555
N7 C6 1_555 1_555
N11 C3 1_555 1_555
N11 C4 1_555 1_555
O2 Cu1A 1_555 1_555
O14 W1F 1_555 1_555
O20 W1F 1_555 1_555
O20 W4F 1_555 1_555
O23 W1F 1_555 1_555
O21F W2F 1_555 1_555
O21F W3F 1_555 1_555
O22F W4F 1_555 1_555
O22F W5F 1_555 1_555
O23F W6F 1_555 1_555
W3A O21A 1_555 1_555
W3A O23G 1_555 1_555
W4A O20G 1_555 1_555
W5A O16A 1_555 1_555
W5A O17A 1_555 1_555
W5A O18A 1_555 1_555
W5A O19A 1_555 1_555
W5A O21A 1_555 1_555
W5A O22A 1_555 1_555
N3A C1A 1_555 1_555
N3A C2A 1_555 1_555
N5A N6A 1_555 1_555
N7A C5A 1_555 1_555
N7A C6A 1_555 1_555
N11A C3A 1_555 1_555
N11A C4A 1_555 1_555
O14A W1G 1_555 1_555
W1G O20A 1_555 1_555
W1G O23A 1_555 1_555
W2F O6F 1_555 1_555
W2F O7F 1_555 1_555
W3F O5F 1_555 1_555
W4G O20A 1_555 1_555
W6F O14F 1_555 1_555
W6G O14G 1_555 1_555
W6G O23G 1_555 1_555

#END
