
#######################################################################
#
#                 Cambridge Crystallographic Data Centre
#                                CCDC 
#
#######################################################################
#
# If this CIF has been generated from an entry in the Cambridge 
# Structural Database, then it will include bibliographic, chemical, 
# crystal, experimental, refinement or atomic coordinate data resulting 
# from the CCDC's data processing and validation procedures.
#
#######################################################################

data_TUHHEL
_symmetry_cell_setting           monoclinic
_symmetry_space_group_name_H-M   'P 21/c'
_symmetry_Int_Tables_number      14
_space_group_name_Hall           '-P 2ybc'
loop_
_symmetry_equiv_pos_site_id
_symmetry_equiv_pos_as_xyz
1 x,y,z
2 -x,1/2+y,1/2-z
3 -x,-y,-z
4 x,1/2-y,1/2+z
_cell_length_a                   16.934(7)
_cell_length_b                   10.365(4)
_cell_length_c                   7.251(3)
_cell_angle_alpha                90
_cell_angle_beta                 92.875(9)
_cell_angle_gamma                90
_cell_volume                     1271.1
loop_
_atom_site_label
_atom_site_type_symbol
_atom_site_fract_x
_atom_site_fract_y
_atom_site_fract_z
Cd1 Cd 0.318188(14) 0.56187(2) 0.71519(3)
Cd2 Cd 0.0000 0.5000 0.5000
S1 S 0.13394(5) 0.52237(8) 0.89084(12)
O1 O 0.26215(15) 0.7796(3) 0.6868(4)
H1 H 0.2209(14) 0.784(5) 0.615(5)
H2 H 0.2977(17) 0.814(4) 0.624(5)
O2 O 0.59353(15) 0.3640(2) 0.4806(4)
O3 O 0.61456(14) 0.1545(2) 0.5335(4)
O4 O 0.23465(15) 0.5274(3) 0.4533(4)
H3 H 0.237(3) 0.581(4) 0.366(5)
H4 H 0.1857(9) 0.518(5) 0.469(6)
O5 O -0.08049(19) 0.6419(3) 0.6522(4)
H5 H -0.082(3) 0.636(4) 0.7696(17)
H6 H -0.079(3) 0.7235(13) 0.637(6)
O6 O 0.0461(2) 0.6569(3) 0.3264(4)
H7 H 0.073(3) 0.720(4) 0.370(7)
H8 H 0.065(3) 0.648(6) 0.221(4)
O7 O 0.22113(14) 0.5009(2) 0.8994(4)
O8 O 0.09449(17) 0.4112(3) 0.9684(4)
O9 O 0.11838(16) 0.6408(3) 0.9980(4)
O10 O 0.10693(17) 0.5441(3) 0.6959(4)
C1 C 0.3398(2) 0.2431(3) 0.7357(5)
C2 C 0.3794(2) 0.1258(3) 0.7059(5)
H9 H 0.3547 0.0476 0.7282
C3 C 0.4546(2) 0.1278(3) 0.6438(5)
H10 H 0.4812 0.0509 0.6246
C4 C 0.49125(19) 0.2460(3) 0.6094(5)
C5 C 0.4478(2) 0.3566(3) 0.6369(5)
H11 H 0.4710 0.4353 0.6101
C6 C 0.57221(19) 0.2551(3) 0.5373(5)
N1 N 0.37410(17) 0.3584(3) 0.7000(4)
N2 N 0.26695(18) 0.2421(3) 0.7983(5)
H12 H 0.2426 0.3137 0.8154
H13 H 0.2444 0.1700 0.8216
Cd1B Cd -0.318188(14) 0.43813(2) 0.28481(3)
S1B S -0.13394(5) 0.47763(8) 0.10916(12)
O1B O -0.26215(15) 0.2204(3) 0.3132(4)
H1B H -0.2209(14) 0.216(5) 0.385(5)
H2B H -0.2977(17) 0.186(4) 0.376(5)
O2B O -0.59353(15) 0.6360(2) 0.5194(4)
O3B O -0.61456(14) 0.8455(2) 0.4665(4)
O4B O -0.23465(15) 0.4726(3) 0.5467(4)
H3B H -0.237(3) 0.419(4) 0.634(5)
H4B H -0.1857(9) 0.482(5) 0.531(6)
O5B O 0.08049(19) 0.3581(3) 0.3478(4)
H5B H 0.082(3) 0.364(4) 0.2304(17)
H6B H 0.079(3) 0.2765(13) 0.363(6)
O6B O -0.0461(2) 0.3431(3) 0.6736(4)
H7B H -0.073(3) 0.280(4) 0.630(7)
H8B H -0.065(3) 0.352(6) 0.779(4)
O7B O -0.22113(14) 0.4991(2) 0.1006(4)
O8B O -0.09449(17) 0.5888(3) 0.0316(4)
O9B O -0.11838(16) 0.3592(3) 0.0020(4)
O10B O -0.10693(17) 0.4559(3) 0.3041(4)
C1B C -0.3398(2) 0.7569(3) 0.2643(5)
C2B C -0.3794(2) 0.8742(3) 0.2941(5)
H9B H -0.3547 0.9524 0.2718
C3B C -0.4546(2) 0.8722(3) 0.3562(5)
H10B H -0.4812 0.9491 0.3754
C4B C -0.49125(19) 0.7540(3) 0.3906(5)
C5B C -0.4478(2) 0.6434(3) 0.3631(5)
H11B H -0.4710 0.5647 0.3899
C6B C -0.57221(19) 0.7449(3) 0.4627(5)
N1B N -0.37410(17) 0.6416(3) 0.3000(4)
N2B N -0.26695(18) 0.7579(3) 0.2017(5)
H12B H -0.2426 0.6863 0.1846
H13B H -0.2444 0.8300 0.1784
Cd1_2 Cd -0.681812(14) 0.56187(2) 0.71519(3)
Cd1A Cd 0.681812(14) 0.06187(2) 0.78481(3)
Cd1B_2 Cd 0.681812(14) 0.43813(2) 0.28481(3)
Cd1C Cd -0.681812(14) 0.93813(2) 0.21519(3)
O2_2 O -0.40647(15) 0.3640(2) 0.4806(4)
O2B_2 O 0.40647(15) 0.6360(2) 0.5194(4)
O3A O 0.38544(14) 0.6545(2) 0.9665(4)
O3C O -0.38544(14) 0.3455(2) 0.0335(4)
loop_
_geom_bond_atom_site_label_1
_geom_bond_atom_site_label_2
_geom_bond_site_symmetry_1
_geom_bond_site_symmetry_2
Cd1 O1 1_555 1_555
Cd2 O5 1_555 1_555
S1 O7 1_555 1_555
O1 H1 1_555 1_555
H2 O1 1_555 1_555
O2 C6 1_555 1_555
O3 C6 1_555 1_555
O4 Cd1 1_555 1_555
H3 O4 1_555 1_555
H4 O4 1_555 1_555
O5 H5 1_555 1_555
H6 O5 1_555 1_555
O6 Cd2 1_555 1_555
H7 O6 1_555 1_555
H8 O6 1_555 1_555
O7 Cd1 1_555 1_555
O8 S1 1_555 1_555
O9 S1 1_555 1_555
O10 Cd2 1_555 1_555
C1 C2 1_555 1_555
C2 H9 1_555 1_555
C3 C2 1_555 1_555
H10 C3 1_555 1_555
C4 C3 1_555 1_555
C5 C4 1_555 1_555
H11 C5 1_555 1_555
C6 C4 1_555 1_555
N1 Cd1 1_555 1_555
N2 C1 1_555 1_555
H12 N2 1_555 1_555
H13 N2 1_555 1_555
Cd1B O1B 1_555 1_555
S1B O7B 1_555 1_555
O1B H1B 1_555 1_555
H2B O1B 1_555 1_555
O2B C6B 1_555 1_555
O3B C6B 1_555 1_555
O4B Cd1B 1_555 1_555
H3B O4B 1_555 1_555
H4B O4B 1_555 1_555
O5B Cd2 1_555 1_555
H5B O5B 1_555 1_555
H6B O5B 1_555 1_555
O6B Cd2 1_555 1_555
H7B O6B 1_555 1_555
H8B O6B 1_555 1_555
O7B Cd1B 1_555 1_555
O8B S1B 1_555 1_555
O9B S1B 1_555 1_555
O10B Cd2 1_555 1_555
C1B C2B 1_555 1_555
C2B H9B 1_555 1_555
C3B C2B 1_555 1_555
H10B C3B 1_555 1_555
C4B C3B 1_555 1_555
C5B C4B 1_555 1_555
H11B C5B 1_555 1_555
C6B C4B 1_555 1_555
N1B Cd1B 1_555 1_555
N2B C1B 1_555 1_555
H12B N2B 1_555 1_555
H13B N2B 1_555 1_555
Cd1_2 O2B 1_555 1_555
Cd1A O3 1_555 1_555
Cd1B_2 O2 1_555 1_555
Cd1C O3B 1_555 1_555
O2_2 Cd1B 1_555 1_555
O2B_2 Cd1 1_555 1_555
O3A Cd1 1_555 1_555
O3C Cd1B 1_555 1_555
S1 O10 1_555 1_555
C1 N1 1_555 1_555
C5 N1 1_555 1_555
S1B O10B 1_555 1_555
C1B N1B 1_555 1_555
C5B N1B 1_555 1_555

#END
