
#######################################################################
#
#                 Cambridge Crystallographic Data Centre
#                                CCDC 
#
#######################################################################
#
# If this CIF has been generated from an entry in the Cambridge 
# Structural Database, then it will include bibliographic, chemical, 
# crystal, experimental, refinement or atomic coordinate data resulting 
# from the CCDC's data processing and validation procedures.
#
#######################################################################

data_TUHREV
_symmetry_cell_setting           triclinic
_symmetry_space_group_name_H-M   'P -1'
_symmetry_Int_Tables_number      2
_space_group_name_Hall           '-P 1'
loop_
_symmetry_equiv_pos_site_id
_symmetry_equiv_pos_as_xyz
1 x,y,z
2 -x,-y,-z
_cell_length_a                   11.1136(6)
_cell_length_b                   11.6984(7)
_cell_length_c                   24.9355(14)
_cell_angle_alpha                87.095(5)
_cell_angle_beta                 82.875(4)
_cell_angle_gamma                67.397(5)
_cell_volume                     2969.76
loop_
_atom_site_label
_atom_site_type_symbol
_atom_site_fract_x
_atom_site_fract_y
_atom_site_fract_z
Ba1 Ba 0.99961(3) 0.82777(3) 0.263674(12)
K1 K 0.60431(13) 0.71408(13) 0.30616(6)
Se1 Se 1.29606(6) 0.82223(6) 0.27693(2)
Se2 Se 0.72938(6) 0.86182(6) 0.20963(3)
Se3 Se 0.90846(6) 0.63446(6) 0.34716(2)
P1 P 1.23630(14) 0.96977(13) 0.21777(6)
P2 P 0.86480(14) 0.69061(13) 0.17151(6)
P3 P 0.84557(13) 0.79570(13) 0.39866(5)
O1 O 0.5122(6) 0.5603(6) 0.3688(2)
N1 N 1.0855(5) 1.0013(5) 0.2105(2)
N2 N 1.0085(5) 0.6633(5) 0.18465(19)
N3 N 0.8943(5) 0.8975(5) 0.36997(19)
C1 C 1.0114(6) 1.0794(6) 0.1672(3)
C2 C 0.8667(6) 1.1235(6) 0.1901(3)
H1 H 0.8414 1.0536 0.1955
H2 H 0.8139 1.1802 0.1651
H3 H 0.8540 1.1642 0.2240
C3 C 1.0422(7) 1.1934(6) 0.1527(3)
H4 H 1.0198 1.2454 0.1839
H5 H 0.9921 1.2382 0.1243
H6 H 1.1340 1.1688 0.1407
C4 C 1.0361(7) 1.0005(6) 0.1171(3)
H7 H 1.1277 0.9704 0.1039
H8 H 0.9857 1.0497 0.0897
H9 H 1.0106 0.9317 0.1263
C5 C 1.2725(6) 1.0960(6) 0.2426(2)
C6 C 1.1720(7) 1.1949(6) 0.2704(3)
H10 H 1.0863 1.1985 0.2742
C7 C 1.1999(8) 1.2877(6) 0.2922(3)
H11 H 1.1329 1.3524 0.3111
C8 C 1.3269(8) 1.2847(7) 0.2861(3)
H12 H 1.3445 1.3483 0.2999
C9 C 1.4271(8) 1.1866(8) 0.2593(3)
H13 H 1.5126 1.1837 0.2556
C10 C 1.4007(7) 1.0925(6) 0.2381(3)
H14 H 1.4689 1.0264 0.2207
C11 C 1.3476(6) 0.9222(6) 0.1555(2)
C12 C 1.3807(6) 0.8025(6) 0.1367(3)
H15 H 1.3531 0.7477 0.1581
C13 C 1.4537(7) 0.7621(7) 0.0869(3)
H16 H 1.4728 0.6824 0.0749
C14 C 1.4976(7) 0.8427(8) 0.0555(3)
H17 H 1.5486 0.8166 0.0226
C15 C 1.4658(8) 0.9602(8) 0.0730(3)
H18 H 1.4944 1.0141 0.0514
C16 C 1.3919(7) 1.0011(7) 0.1220(3)
H19 H 1.3713 1.0819 0.1329
C17 C 1.1348(6) 0.5741(5) 0.1580(3)
C18 C 1.1314(6) 0.4472(6) 0.1472(3)
H20 H 1.1224 0.4064 0.1809
H21 H 1.2113 0.3976 0.1261
H22 H 1.0583 0.4585 0.1277
C19 C 1.1753(6) 0.6269(6) 0.1045(3)
H23 H 1.1158 0.6316 0.0789
H24 H 1.2627 0.5740 0.0907
H25 H 1.1729 0.7083 0.1104
C20 C 1.2360(6) 0.5560(6) 0.1969(3)
H26 H 1.2436 0.6336 0.2021
H27 H 1.3194 0.4969 0.1821
H28 H 1.2089 0.5261 0.2309
C21 C 0.8432(6) 0.7019(6) 0.0987(2)
C22 C 0.8446(6) 0.6021(7) 0.0699(3)
H29 H 0.8481 0.5295 0.0879
C23 C 0.8407(7) 0.6108(8) 0.0141(3)
H30 H 0.8426 0.5441 -0.0053
C24 C 0.8339(7) 0.7197(8) -0.0120(3)
H31 H 0.8304 0.7262 -0.0492
C25 C 0.8322(7) 0.8182(8) 0.0158(3)
H32 H 0.8291 0.8905 -0.0024
C26 C 0.8353(7) 0.8101(7) 0.0718(3)
H33 H 0.8321 0.8776 0.0909
C27 C 0.7957(6) 0.5768(6) 0.1978(2)
C28 C 0.6761(7) 0.5827(7) 0.1846(3)
H34 H 0.6352 0.6374 0.1580
C29 C 0.6164(7) 0.5061(8) 0.2114(3)
H35 H 0.5356 0.5105 0.2029
C30 C 0.6781(8) 0.4246(7) 0.2504(3)
H36 H 0.6395 0.3729 0.2677
C31 C 0.7951(7) 0.4191(6) 0.2637(3)
H37 H 0.8348 0.3653 0.2908
C32 C 0.8553(6) 0.4932(6) 0.2373(3)
H38 H 0.9366 0.4870 0.2461
C33 C 0.9034(6) 1.0053(6) 0.3960(2)
C34 C 0.9011(9) 1.0996(7) 0.3505(3)
H39 H 0.9703 1.0610 0.3223
H40 H 0.9132 1.1688 0.3646
H41 H 0.8181 1.1278 0.3362
C35 C 1.0332(7) 0.9636(8) 0.4210(3)
H42 H 1.0339 0.9049 0.4494
H43 H 1.0419 1.0342 0.4355
H44 H 1.1051 0.9258 0.3937
C36 C 0.7899(7) 1.0690(6) 0.4392(3)
H45 H 0.7086 1.0953 0.4237
H46 H 0.8001 1.1397 0.4527
H47 H 0.7895 1.0122 0.4683
C37 C 0.8973(6) 0.7427(6) 0.4654(2)
C38 C 1.0217(7) 0.6543(7) 0.4687(3)
H48 H 1.0760 0.6212 0.4372
C39 C 1.0667(7) 0.6142(8) 0.5188(3)
H49 H 1.1505 0.5544 0.5204
C40 C 0.9873(8) 0.6626(7) 0.5660(3)
H50 H 1.0177 0.6352 0.5993
C41 C 0.8640(7) 0.7509(7) 0.5638(3)
H51 H 0.8105 0.7834 0.5955
C42 C 0.8188(7) 0.7920(6) 0.5141(2)
H52 H 0.7354 0.8530 0.5128
C43 C 0.6659(5) 0.8469(6) 0.4089(2)
C44 C 0.6027(6) 0.7795(7) 0.4401(3)
H53 H 0.6502 0.7104 0.4596
C45 C 0.4663(7) 0.8177(7) 0.4416(3)
H54 H 0.4233 0.7747 0.4632
C46 C 0.3956(7) 0.9164(8) 0.4122(3)
H55 H 0.3054 0.9392 0.4134
C47 C 0.4571(6) 0.9826(7) 0.3806(3)
H56 H 0.4086 1.0497 0.3603
C48 C 0.5918(6) 0.9487(6) 0.3790(3)
H57 H 0.6330 0.9940 0.3579
C49 C 0.5874(11) 0.4614(11) 0.4019(5)
H58 H 0.5974 0.4930 0.4356
H59 H 0.6738 0.4158 0.3834
C50 C 0.5094(15) 0.3801(15) 0.4122(7)
H60 H 0.5336 0.3189 0.3838
H61 H 0.5243 0.3376 0.4466
C51 C 0.3728(11) 0.4643(11) 0.4124(5)
H62 H 0.3354 0.4974 0.4483
H63 H 0.3204 0.4233 0.4000
C52 C 0.3816(9) 0.5640(9) 0.3739(4)
H64 H 0.3595 0.5510 0.3389
H65 H 0.3203 0.6442 0.3872
K1_2 K 1.60431(13) 0.71408(13) 0.30616(6)
Se1_2 Se 0.29606(6) 0.82223(6) 0.27693(2)
O2 O 0.5221(13) 0.3987(13) 0.0739(5)
C53 C 0.6396(14) 0.3960(14) 0.0503(6)
H66 H 0.6760 0.4342 0.0741
H67 H 0.6278 0.4430 0.0169
C54 C 0.7298(13) 0.2698(12) 0.0391(6)
H68 H 0.8110 0.2526 0.0546
H69 H 0.7497 0.2555 0.0005
C55 C 0.6605(10) 0.1904(10) 0.0648(4)
H70 H 0.6437 0.1435 0.0378
H71 H 0.7123 0.1332 0.0905
C56 C 0.5359(13) 0.2784(13) 0.0926(6)
H72 H 0.4627 0.2594 0.0842
H73 H 0.5381 0.2730 0.1314
loop_
_geom_bond_atom_site_label_1
_geom_bond_atom_site_label_2
_geom_bond_site_symmetry_1
_geom_bond_site_symmetry_2
Ba1 Se1 1_555 1_555
K1 Se2 1_555 1_555
Se1 P1 1_555 1_555
Se2 Ba1 1_555 1_555
Se3 Ba1 1_555 1_555
P1 N1 1_555 1_555
P2 Se2 1_555 1_555
P3 Se3 1_555 1_555
O1 K1 1_555 1_555
N1 Ba1 1_555 1_555
N2 Ba1 1_555 1_555
N3 Ba1 1_555 1_555
C1 N1 1_555 1_555
C2 C1 1_555 1_555
H1 C2 1_555 1_555
H2 C2 1_555 1_555
H3 C2 1_555 1_555
C3 C1 1_555 1_555
H4 C3 1_555 1_555
H5 C3 1_555 1_555
H6 C3 1_555 1_555
C4 C1 1_555 1_555
H7 C4 1_555 1_555
H8 C4 1_555 1_555
H9 C4 1_555 1_555
C5 P1 1_555 1_555
C6 C5 1_555 1_555
H10 C6 1_555 1_555
C7 C6 1_555 1_555
H11 C7 1_555 1_555
C8 C7 1_555 1_555
H12 C8 1_555 1_555
C9 C8 1_555 1_555
H13 C9 1_555 1_555
C10 C5 1_555 1_555
H14 C10 1_555 1_555
C11 P1 1_555 1_555
C12 C11 1_555 1_555
H15 C12 1_555 1_555
C13 C12 1_555 1_555
H16 C13 1_555 1_555
C14 C13 1_555 1_555
H17 C14 1_555 1_555
C15 C14 1_555 1_555
H18 C15 1_555 1_555
C16 C11 1_555 1_555
H19 C16 1_555 1_555
C17 N2 1_555 1_555
C18 C17 1_555 1_555
H20 C18 1_555 1_555
H21 C18 1_555 1_555
H22 C18 1_555 1_555
C19 C17 1_555 1_555
H23 C19 1_555 1_555
H24 C19 1_555 1_555
H25 C19 1_555 1_555
C20 C17 1_555 1_555
H26 C20 1_555 1_555
H27 C20 1_555 1_555
H28 C20 1_555 1_555
C21 P2 1_555 1_555
C22 C21 1_555 1_555
H29 C22 1_555 1_555
C23 C22 1_555 1_555
H30 C23 1_555 1_555
C24 C23 1_555 1_555
H31 C24 1_555 1_555
C25 C24 1_555 1_555
H32 C25 1_555 1_555
C26 C21 1_555 1_555
H33 C26 1_555 1_555
C27 K1 1_555 1_555
C28 K1 1_555 1_555
H34 C28 1_555 1_555
C29 K1 1_555 1_555
H35 C29 1_555 1_555
C30 C29 1_555 1_555
H36 C30 1_555 1_555
C31 K1 1_555 1_555
H37 C31 1_555 1_555
C32 K1 1_555 1_555
H38 C32 1_555 1_555
C33 N3 1_555 1_555
C34 C33 1_555 1_555
H39 C34 1_555 1_555
H40 C34 1_555 1_555
H41 C34 1_555 1_555
C35 C33 1_555 1_555
H42 C35 1_555 1_555
H43 C35 1_555 1_555
H44 C35 1_555 1_555
C36 C33 1_555 1_555
H45 C36 1_555 1_555
H46 C36 1_555 1_555
H47 C36 1_555 1_555
C37 P3 1_555 1_555
C38 C37 1_555 1_555
H48 C38 1_555 1_555
C39 C38 1_555 1_555
H49 C39 1_555 1_555
C40 C39 1_555 1_555
H50 C40 1_555 1_555
C41 C40 1_555 1_555
H51 C41 1_555 1_555
C42 C37 1_555 1_555
H52 C42 1_555 1_555
C43 K1 1_555 1_555
C44 K1 1_555 1_555
H53 C44 1_555 1_555
C45 C44 1_555 1_555
H54 C45 1_555 1_555
C46 C45 1_555 1_555
H55 C46 1_555 1_555
C47 K1 1_555 1_555
H56 C47 1_555 1_555
C48 K1 1_555 1_555
H57 C48 1_555 1_555
C49 O1 1_555 1_555
H58 C49 1_555 1_555
H59 C49 1_555 1_555
C50 C49 1_555 1_555
H60 C50 1_555 1_555
H61 C50 1_555 1_555
C51 C50 1_555 1_555
H62 C51 1_555 1_555
H63 C51 1_555 1_555
C52 O1 1_555 1_555
H64 C52 1_555 1_555
H65 C52 1_555 1_555
O2 C53 1_555 1_555
C53 H66 1_555 1_555
H67 C53 1_555 1_555
C54 C53 1_555 1_555
H68 C54 1_555 1_555
H69 C54 1_555 1_555
C55 C54 1_555 1_555
H70 C55 1_555 1_555
H71 C55 1_555 1_555
C56 O2 1_555 1_555
H72 C56 1_555 1_555
H73 C56 1_555 1_555
K1_2 Se1 1_555 1_555
Se1_2 K1 1_555 1_555
K1 Se3 1_555 1_555
P2 N2 1_555 1_555
P2 C27 1_555 1_555
P3 N3 1_555 1_555
P3 C43 1_555 1_555
C9 C10 1_555 1_555
C15 C16 1_555 1_555
C25 C26 1_555 1_555
C27 C28 1_555 1_555
C27 C32 1_555 1_555
C28 C29 1_555 1_555
C30 C31 1_555 1_555
C31 C32 1_555 1_555
C41 C42 1_555 1_555
C43 C44 1_555 1_555
C43 C48 1_555 1_555
C46 C47 1_555 1_555
C47 C48 1_555 1_555
C51 C52 1_555 1_555
C55 C56 1_555 1_555

#END
