
#######################################################################
#
#                 Cambridge Crystallographic Data Centre
#                                CCDC 
#
#######################################################################
#
# If this CIF has been generated from an entry in the Cambridge 
# Structural Database, then it will include bibliographic, chemical, 
# crystal, experimental, refinement or atomic coordinate data resulting 
# from the CCDC's data processing and validation procedures.
#
#######################################################################

data_TUHVUO
_symmetry_cell_setting           triclinic
_symmetry_space_group_name_H-M   'P -1'
_symmetry_Int_Tables_number      2
_space_group_name_Hall           '-P 1'
loop_
_symmetry_equiv_pos_site_id
_symmetry_equiv_pos_as_xyz
1 x,y,z
2 -x,-y,-z
_cell_length_a                   7.1944(14)
_cell_length_b                   10.517(2)
_cell_length_c                   10.544(2)
_cell_angle_alpha                97.255(3)
_cell_angle_beta                 102.380(3)
_cell_angle_gamma                97.015(3)
_cell_volume                     763.786
loop_
_atom_site_label
_atom_site_type_symbol
_atom_site_fract_x
_atom_site_fract_y
_atom_site_fract_z
Cl1 Cl 0.6329(2) 0.60343(14) 0.77778(16)
O1 O 0.4829(9) 0.6728(7) 0.7302(7)
O2 O 0.6695(15) 0.5292(8) 0.6664(8)
O3 O 0.5725(13) 0.5162(6) 0.8536(6)
O4 O 0.7911(10) 0.6910(6) 0.8450(10)
Ag1 Ag 0.96436(7) 0.90245(5) 0.72069(4)
C1 C 0.5243(8) 0.8988(5) 0.2861(5)
C2 C 0.5288(8) 0.7866(5) 0.3436(6)
H1 H 0.4503 0.7080 0.2984
C3 C 0.6468(8) 0.7895(6) 0.4660(6)
H2 H 0.6489 0.7113 0.5023
N1 N 0.7598(7) 0.8987(5) 0.5365(5)
C4 C 0.7507(8) 1.0075(6) 0.4823(6)
H3 H 0.8269 1.0857 0.5309
C5 C 0.6374(8) 1.0121(5) 0.3606(5)
H4 H 0.6360 1.0920 0.3273
C6 C 0.4041(8) 0.8986(5) 0.1540(5)
N2 N 0.1691(7) 0.9007(5) -0.0959(5)
C7 C 0.3419(8) 1.0123(5) 0.1168(5)
H5 H 0.3783 1.0914 0.1766
C8 C 0.2277(8) 1.0093(6) -0.0071(6)
H6 H 0.1887 1.0879 -0.0306
C9 C 0.2338(8) 0.7929(6) -0.0617(6)
H7 H 0.1981 0.7161 -0.1249
C10 C 0.3482(8) 0.7861(5) 0.0587(6)
H8 H 0.3892 0.7065 0.0774
C11 C 1.1088(16) 1.4216(8) 0.8409(9)
C12 C 1.0606(8) 1.2808(6) 0.7926(5)
N3 N 1.0243(9) 1.1730(6) 0.7601(6)
Ag1_2 Ag -0.03564(7) 0.90245(5) -0.27931(4)
N2_2 N 1.1691(7) 0.9007(5) 0.9041(5)
C13? C 0.0310(16) 0.5698(10) 0.5226(10)
C14? C 0.0711(19) 0.6899(12) 0.5695(13)
N4? N -0.0310(16) 0.4302(10) 0.4774(10)
N5? N 0.0711(19) 0.6899(12) 0.5695(13)
loop_
_geom_bond_atom_site_label_1
_geom_bond_atom_site_label_2
_geom_bond_site_symmetry_1
_geom_bond_site_symmetry_2
Ag1 N1 1_555 1_555
C1 C2 1_555 1_555
C2 H1 1_555 1_555
C3 C2 1_555 1_555
H2 C3 1_555 1_555
N1 C3 1_555 1_555
C4 N1 1_555 1_555
H3 C4 1_555 1_555
C5 C1 1_555 1_555
H4 C5 1_555 1_555
C6 C1 1_555 1_555
N2 C8 1_555 1_555
C7 C6 1_555 1_555
H5 C7 1_555 1_555
C8 C7 1_555 1_555
H6 C8 1_555 1_555
C9 N2 1_555 1_555
H7 C9 1_555 1_555
C10 C6 1_555 1_555
H8 C10 1_555 1_555
Cl1 O1 1_555 1_555
O2 Cl1 1_555 1_555
O3 Cl1 1_555 1_555
O4 Cl1 1_555 1_555
C11 C12 1_555 1_555
C12 N3 1_555 1_555
N3 Ag1 1_555 1_555
Ag1_2 N2 1_555 1_555
N2_2 Ag1 1_555 1_555
C4 C5 1_555 1_555
C9 C10 1_555 1_555

#END
