
#######################################################################
#
#                 Cambridge Crystallographic Data Centre
#                                CCDC 
#
#######################################################################
#
# If this CIF has been generated from an entry in the Cambridge 
# Structural Database, then it will include bibliographic, chemical, 
# crystal, experimental, refinement or atomic coordinate data resulting 
# from the CCDC's data processing and validation procedures.
#
#######################################################################

data_TUHWAV
_symmetry_cell_setting           monoclinic
_symmetry_space_group_name_H-M   'C c'
_symmetry_Int_Tables_number      9
_space_group_name_Hall           'C -2yc'
loop_
_symmetry_equiv_pos_site_id
_symmetry_equiv_pos_as_xyz
1 x,y,z
2 x,-y,1/2+z
3 1/2+x,1/2+y,z
4 1/2+x,1/2-y,1/2+z
_cell_length_a                   26.189(17)
_cell_length_b                   9.690(6)
_cell_length_c                   7.760(5)
_cell_angle_alpha                90
_cell_angle_beta                 92.385(6)
_cell_angle_gamma                90
_cell_volume                     1967.56
loop_
_atom_site_label
_atom_site_type_symbol
_atom_site_fract_x
_atom_site_fract_y
_atom_site_fract_z
Ag1 Ag 0.70116(4) 0.49713(3) -0.24958(13)
C1 C 0.85766(13) 0.3372(3) 0.0685(5)
C2 C 0.84432(19) 0.4767(4) 0.0632(7)
H1 H 0.8663 0.5439 0.1156
C3 C 0.8000(3) 0.5151(5) -0.0169(10)
H2 H 0.7918 0.6106 -0.0188
N1 N 0.76611(12) 0.4257(3) -0.0957(4)
C4 C 0.77905(16) 0.2913(4) -0.0919(5)
H3 H 0.7565 0.2265 -0.1469
C5 C 0.82388(15) 0.2433(4) -0.0110(5)
H4 H 0.8315 0.1475 -0.0099
C6 C 0.90649(14) 0.2914(3) 0.1573(4)
C7 C 0.90474(13) 0.2252(3) 0.3189(4)
C8 C 0.85749(15) 0.1904(3) 0.3948(5)
H5 H 0.8262 0.2094 0.3330
C9 C 0.85645(14) 0.1311(3) 0.5531(5)
H6 H 0.8246 0.1096 0.6008
C10 C 0.90280(15) 0.1007(3) 0.6484(5)
H7 H 0.9018 0.0623 0.7608
C11 C 0.94886(14) 0.1270(3) 0.5773(5)
H8 H 0.9796 0.1039 0.6401
C12 C 0.95144(13) 0.1887(3) 0.4100(5)
C13 C 0.99903(13) 0.2159(3) 0.3358(4)
C14 C 1.00005(13) 0.2804(3) 0.1738(4)
C15 C 1.04737(14) 0.3105(3) 0.0958(5)
H9 H 1.0786 0.2900 0.1569
C16 C 1.04851(14) 0.3683(3) -0.0650(5)
H10 H 1.0803 0.3869 -0.1152
C17 C 1.00195(15) 0.4000(3) -0.1561(5)
H11 H 1.0027 0.4369 -0.2694
C18 C 0.95641(15) 0.3787(3) -0.0844(5)
H12 H 0.9259 0.4043 -0.1467
C19 C 0.95318(13) 0.3182(3) 0.0832(5)
C20 C 1.04769(13) 0.1721(3) 0.4270(5)
C21 C 1.08181(15) 0.2650(4) 0.5040(5)
H13 H 1.0749 0.3613 0.4994
C22 C 1.12627(15) 0.2166(4) 0.5882(6)
H14 H 1.1492 0.2816 0.6404
N2 N 1.13804(12) 0.0820(3) 0.5986(4)
C23 C 1.1072(3) -0.0075(3) 0.5207(10)
H15 H 1.1164 -0.1024 0.5211
C24 C 1.06091(17) 0.0332(5) 0.4367(6)
H16 H 1.0386 -0.0344 0.3865
N3 N 0.72120(12) 0.9227(3) -0.1896(4)
O1 O 0.67997(18) 0.9847(3) -0.1587(7)
O2 O 0.7556(2) 0.9842(3) -0.2626(8)
O3 O 0.72683(12) 0.7983(3) -0.1453(4)
O4 O 0.67379(11) 0.2393(3) -0.3392(4)
H17 H 0.690(2) 0.214(5) -0.426(4)
H18 H 0.673(2) 0.177(4) -0.265(5)
Ag1B Ag 1.20116(4) -0.00287(3) 0.75042(13)
N2B N 0.63804(12) 0.5820(3) -0.4014(4)
loop_
_geom_bond_atom_site_label_1
_geom_bond_atom_site_label_2
_geom_bond_site_symmetry_1
_geom_bond_site_symmetry_2
Ag1 N1 1_555 1_555
C1 C2 1_555 1_555
C2 H1 1_555 1_555
C3 C2 1_555 1_555
H2 C3 1_555 1_555
N1 C3 1_555 1_555
C4 N1 1_555 1_555
H3 C4 1_555 1_555
C5 C1 1_555 1_555
H4 C5 1_555 1_555
C6 C1 1_555 1_555
C7 C6 1_555 1_555
C8 C7 1_555 1_555
H5 C8 1_555 1_555
C9 C8 1_555 1_555
H6 C9 1_555 1_555
C10 C9 1_555 1_555
H7 C10 1_555 1_555
C11 C10 1_555 1_555
H8 C11 1_555 1_555
C12 C7 1_555 1_555
C13 C12 1_555 1_555
C14 C13 1_555 1_555
C15 C14 1_555 1_555
H9 C15 1_555 1_555
C16 C15 1_555 1_555
H10 C16 1_555 1_555
C17 C16 1_555 1_555
H11 C17 1_555 1_555
C18 C17 1_555 1_555
H12 C18 1_555 1_555
C19 C6 1_555 1_555
C20 C13 1_555 1_555
C21 C20 1_555 1_555
H13 C21 1_555 1_555
C22 C21 1_555 1_555
H14 C22 1_555 1_555
N2 C22 1_555 1_555
C23 N2 1_555 1_555
H15 C23 1_555 1_555
C24 C20 1_555 1_555
H16 C24 1_555 1_555
N3 O1 1_555 1_555
O2 N3 1_555 1_555
O3 Ag1 1_555 1_555
O4 Ag1 1_555 1_555
H17 O4 1_555 1_555
H18 O4 1_555 1_555
Ag1B N2 1_555 1_555
N2B Ag1 1_555 1_555
C4 C5 1_555 1_555
C11 C12 1_555 1_555
C14 C19 1_555 1_555
C18 C19 1_555 1_555
C23 C24 1_555 1_555
N3 O3 1_555 1_555

#END
