
#######################################################################
#
#                 Cambridge Crystallographic Data Centre
#                                CCDC 
#
#######################################################################
#
# If this CIF has been generated from an entry in the Cambridge 
# Structural Database, then it will include bibliographic, chemical, 
# crystal, experimental, refinement or atomic coordinate data resulting 
# from the CCDC's data processing and validation procedures.
#
#######################################################################

data_TUJBOR
_symmetry_cell_setting           monoclinic
_symmetry_space_group_name_H-M   'P 21/n'
_symmetry_Int_Tables_number      14
_space_group_name_Hall           '-P 2yn'
loop_
_symmetry_equiv_pos_site_id
_symmetry_equiv_pos_as_xyz
1 x,y,z
2 1/2-x,1/2+y,1/2-z
3 -x,-y,-z
4 1/2+x,1/2-y,1/2+z
_cell_length_a                   11.0990(2)
_cell_length_b                   12.1358(2)
_cell_length_c                   16.4905(2)
_cell_angle_alpha                90
_cell_angle_beta                 103.3050(10)
_cell_angle_gamma                90
_cell_volume                     2161.57
loop_
_atom_site_label
_atom_site_type_symbol
_atom_site_fract_x
_atom_site_fract_y
_atom_site_fract_z
Zn1 Zn 0.22643(2) 0.34648(2) 0.22765(2)
O1 O 0.19068(15) 0.25895(14) 0.31998(10)
N1 N 0.04557(17) 0.00156(18) 0.53048(12)
C1 C 0.2914(2) 0.2320(2) 0.37222(14)
O2 O 0.57784(16) 0.13176(16) 0.64260(12)
O3 O 0.39503(17) 0.26113(19) 0.36609(13)
N2 N 0.31762(17) 0.48538(16) 0.26955(13)
C2 C 0.2777(2) 0.16223(17) 0.44502(13)
O4 O 0.0560(7) -0.0357(10) 0.6058(4)
N3 N 0.48721(17) 0.58002(16) 0.31701(12)
C3 C 0.16478(19) 0.11639(19) 0.44974(13)
H1 H 0.0948 0.1281 0.4072
N4 N 0.97981(16) 0.71997(17) 0.35926(12)
C4 C 0.15719(19) 0.05297(19) 0.51842(14)
O5 O 0.47813(19) 0.0226(2) 0.71424(12)
N5 N 1.15632(16) 0.77829(16) 0.33641(12)
C5 C 0.2614(2) 0.0376(2) 0.58406(14)
H2 H 0.2553 -0.0041 0.6303
C6 C 0.37337(19) 0.08490(19) 0.57975(13)
C7 C 0.3810(2) 0.14528(19) 0.50936(14)
H3 H 0.4568 0.1748 0.5054
C8 C 0.4840(2) 0.0764(2) 0.65242(14)
C9 C 0.4305(2) 0.5080(2) 0.25989(15)
H4 H 0.4653 0.4776 0.2188
C10 C 0.4067(2) 0.6064(2) 0.36569(18)
H5 H 0.4208 0.6549 0.4105
C11 C 0.3024(2) 0.5478(2) 0.33543(17)
H6 H 0.2314 0.5496 0.3563
C12 C 0.6139(2) 0.61559(19) 0.32777(15)
C13 C 0.7035(2) 0.5726(2) 0.39304(15)
C14 C 0.8249(2) 0.6080(2) 0.39968(15)
H7 H 0.8878 0.5800 0.4419
C15 C 0.8532(2) 0.6838(2) 0.34469(15)
C16 C 0.7625(2) 0.7277(2) 0.27925(16)
C17 C 0.6420(2) 0.6905(2) 0.27248(16)
H8 H 0.5791 0.7170 0.2296
C18 C 0.6741(3) 0.4904(3) 0.4538(2)
H9 H 0.7449 0.4441 0.4739
H10 H 0.6052 0.4459 0.4265
H11 H 0.6536 0.5286 0.4998
C19 C 0.7862(3) 0.8151(4) 0.2202(3)
H12 H 0.8291 0.7832 0.1815
H13 H 0.8359 0.8725 0.2511
H14 H 0.7088 0.8452 0.1902
C20 C 1.0460(2) 0.7376(2) 0.30191(15)
H15 H 1.0179 0.7230 0.2453
C21 C 1.1622(2) 0.7840(2) 0.42042(15)
H16 H 1.2299 0.8088 0.4606
C22 C 1.0541(2) 0.7478(2) 0.43567(16)
H17 H 1.0341 0.7426 0.4873
O1B O -0.19068(15) -0.25895(14) 0.68002(10)
N1B N -0.04557(17) -0.00156(18) 0.46952(12)
C1B C -0.2914(2) -0.2320(2) 0.62778(14)
O2B O -0.57784(16) -0.13176(16) 0.35740(12)
O3B O -0.39503(17) -0.26113(19) 0.63391(13)
C2B C -0.2777(2) -0.16223(17) 0.55498(13)
O4B O -0.0560(7) 0.0357(10) 0.3942(4)
C3B C -0.16478(19) -0.11639(19) 0.55026(13)
H1B H -0.0948 -0.1281 0.5928
C4B C -0.15719(19) -0.05297(19) 0.48158(14)
O5B O -0.47813(19) -0.0226(2) 0.28576(12)
C5B C -0.2614(2) -0.0376(2) 0.41594(14)
H2B H -0.2553 0.0041 0.3697
C6B C -0.37337(19) -0.08490(19) 0.42025(13)
C7B C -0.3810(2) -0.14528(19) 0.49064(14)
H3B H -0.4568 -0.1748 0.4946
C8B C -0.4840(2) -0.0764(2) 0.34758(14)
Zn1B Zn -0.22643(2) -0.34648(2) 0.77235(2)
N2B N -0.31762(17) -0.48538(16) 0.73045(13)
N3B N -0.48721(17) -0.58002(16) 0.68299(12)
N4B N -0.97981(16) -0.71997(17) 0.64074(12)
N5B N -1.15632(16) -0.77829(16) 0.66359(12)
C9B C -0.4305(2) -0.5080(2) 0.74011(15)
H4B H -0.4653 -0.4776 0.7812
C10B C -0.4067(2) -0.6064(2) 0.63431(18)
H5B H -0.4208 -0.6549 0.5895
C11B C -0.3024(2) -0.5478(2) 0.66457(17)
H6B H -0.2314 -0.5496 0.6437
C12B C -0.6139(2) -0.61559(19) 0.67223(15)
C13B C -0.7035(2) -0.5726(2) 0.60696(15)
C14B C -0.8249(2) -0.6080(2) 0.60032(15)
H7B H -0.8878 -0.5800 0.5581
C15B C -0.8532(2) -0.6838(2) 0.65531(15)
C16B C -0.7625(2) -0.7277(2) 0.72075(16)
C17B C -0.6420(2) -0.6905(2) 0.72752(16)
H8B H -0.5791 -0.7170 0.7704
C18B C -0.6741(3) -0.4904(3) 0.5462(2)
H9B H -0.7449 -0.4441 0.5261
H10B H -0.6052 -0.4459 0.5735
H11B H -0.6536 -0.5286 0.5002
C19B C -0.7862(3) -0.8151(4) 0.7798(3)
H12B H -0.8291 -0.7832 0.8185
H13B H -0.8359 -0.8725 0.7489
H14B H -0.7088 -0.8452 0.8098
C20B C -1.0460(2) -0.7376(2) 0.69809(15)
H15B H -1.0179 -0.7230 0.7547
C21B C -1.1622(2) -0.7840(2) 0.57958(15)
H16B H -1.2299 -0.8088 0.5394
C22B C -1.0541(2) -0.7478(2) 0.56433(16)
H17B H -1.0341 -0.7426 0.5127
Zn1A Zn -0.72643(2) -0.15352(2) 0.27235(2)
Zn1A_2 Zn 1.27357(2) 0.84648(2) 0.27235(2)
Zn1C Zn -1.27357(2) -0.84648(2) 0.72765(2)
Zn1C_2 Zn 0.72643(2) 0.15352(2) 0.72765(2)
O2A O -0.07784(16) -0.36824(16) 0.85740(12)
O2C O 0.07784(16) 0.36824(16) 0.14260(12)
N5A N 0.34368(16) 0.27829(16) 0.16359(12)
N5C N -0.34368(16) -0.27829(16) 0.83641(12)
O6 O 0.5305(3) 0.0934(3) 0.88748(15)
H18 H 0.5839 0.1405 0.8804
H19 H 0.4962 0.0646 0.8409
loop_
_geom_bond_atom_site_label_1
_geom_bond_atom_site_label_2
_geom_bond_site_symmetry_1
_geom_bond_site_symmetry_2
Zn1 O1 1_555 1_555
O1 C1 1_555 1_555
N1 O4 1_555 1_555
C1 O3 1_555 1_555
O2 C8 1_555 1_555
N2 Zn1 1_555 1_555
C2 C1 1_555 1_555
N3 C9 1_555 1_555
C3 C2 1_555 1_555
H1 C3 1_555 1_555
N4 C15 1_555 1_555
C4 N1 1_555 1_555
O5 C8 1_555 1_555
N5 C20 1_555 1_555
C5 C4 1_555 1_555
H2 C5 1_555 1_555
C6 C5 1_555 1_555
C7 C2 1_555 1_555
H3 C7 1_555 1_555
C8 C6 1_555 1_555
C9 N2 1_555 1_555
H4 C9 1_555 1_555
C10 N3 1_555 1_555
H5 C10 1_555 1_555
C11 N2 1_555 1_555
H6 C11 1_555 1_555
C12 N3 1_555 1_555
C13 C12 1_555 1_555
C14 C13 1_555 1_555
H7 C14 1_555 1_555
C15 C14 1_555 1_555
C16 C15 1_555 1_555
C17 C12 1_555 1_555
H8 C17 1_555 1_555
C18 C13 1_555 1_555
H9 C18 1_555 1_555
H10 C18 1_555 1_555
H11 C18 1_555 1_555
C19 C16 1_555 1_555
H12 C19 1_555 1_555
H13 C19 1_555 1_555
H14 C19 1_555 1_555
C20 N4 1_555 1_555
H15 C20 1_555 1_555
C21 N5 1_555 1_555
H16 C21 1_555 1_555
C22 N4 1_555 1_555
H17 C22 1_555 1_555
O6 H18 1_555 1_555
H19 O6 1_555 1_555
O1B C1B 1_555 1_555
N1B N1 1_555 1_555
C1B O3B 1_555 1_555
O2B C8B 1_555 1_555
C2B C1B 1_555 1_555
O4B N1B 1_555 1_555
C3B C2B 1_555 1_555
H1B C3B 1_555 1_555
C4B N1B 1_555 1_555
O5B C8B 1_555 1_555
C5B C4B 1_555 1_555
H2B C5B 1_555 1_555
C6B C5B 1_555 1_555
C7B C2B 1_555 1_555
H3B C7B 1_555 1_555
C8B C6B 1_555 1_555
Zn1B O1B 1_555 1_555
N2B Zn1B 1_555 1_555
N3B C9B 1_555 1_555
N4B C15B 1_555 1_555
N5B C20B 1_555 1_555
C9B N2B 1_555 1_555
H4B C9B 1_555 1_555
C10B N3B 1_555 1_555
H5B C10B 1_555 1_555
C11B N2B 1_555 1_555
H6B C11B 1_555 1_555
C12B N3B 1_555 1_555
C13B C12B 1_555 1_555
C14B C13B 1_555 1_555
H7B C14B 1_555 1_555
C15B C14B 1_555 1_555
C16B C15B 1_555 1_555
C17B C12B 1_555 1_555
H8B C17B 1_555 1_555
C18B C13B 1_555 1_555
H9B C18B 1_555 1_555
H10B C18B 1_555 1_555
H11B C18B 1_555 1_555
C19B C16B 1_555 1_555
H12B C19B 1_555 1_555
H13B C19B 1_555 1_555
H14B C19B 1_555 1_555
C20B N4B 1_555 1_555
H15B C20B 1_555 1_555
C21B N5B 1_555 1_555
H16B C21B 1_555 1_555
C22B N4B 1_555 1_555
H17B C22B 1_555 1_555
Zn1A O2B 1_555 1_555
Zn1A_2 N5 1_555 1_555
Zn1C N5B 1_555 1_555
Zn1C_2 O2 1_555 1_555
O2A Zn1B 1_555 1_555
O2C Zn1 1_555 1_555
N5A Zn1 1_555 1_555
N5C Zn1B 1_555 1_555
C3 C4 1_555 1_555
C6 C7 1_555 1_555
C10 C11 1_555 1_555
C16 C17 1_555 1_555
C21 C22 1_555 1_555
C3B C4B 1_555 1_555
C6B C7B 1_555 1_555
C10B C11B 1_555 1_555
C16B C17B 1_555 1_555
C21B C22B 1_555 1_555

#END
