
#######################################################################
#
#                 Cambridge Crystallographic Data Centre
#                                CCDC 
#
#######################################################################
#
# If this CIF has been generated from an entry in the Cambridge 
# Structural Database, then it will include bibliographic, chemical, 
# crystal, experimental, refinement or atomic coordinate data resulting 
# from the CCDC's data processing and validation procedures.
#
#######################################################################

data_TUJBEH
_symmetry_cell_setting           monoclinic
_symmetry_space_group_name_H-M   'P 21/n'
_symmetry_Int_Tables_number      14
_space_group_name_Hall           '-P 2yn'
loop_
_symmetry_equiv_pos_site_id
_symmetry_equiv_pos_as_xyz
1 x,y,z
2 1/2-x,1/2+y,1/2-z
3 -x,-y,-z
4 1/2+x,1/2-y,1/2+z
_cell_length_a                   9.9166(2)
_cell_length_b                   15.6800(4)
_cell_length_c                   14.0749(3)
_cell_angle_alpha                90
_cell_angle_beta                 109.3028(11)
_cell_angle_gamma                90
_cell_volume                     2065.51
loop_
_atom_site_label
_atom_site_type_symbol
_atom_site_fract_x
_atom_site_fract_y
_atom_site_fract_z
Co1 Co 0.68979(4) 0.48036(3) 0.09856(3)
O1 O 0.5373(4) 0.4726(2) 0.1600(3)
O2 O -0.0867(5) 0.4505(3) 0.3041(6)
N1 N 0.7176(3) 0.60767(18) 0.1491(2)
N2 N 0.7578(3) 0.74498(18) 0.1400(2)
N3 N 0.4363(4) 0.48761(19) 0.4881(2)
C1 C 0.8039(4) 0.8254(2) 0.1058(3)
H1 H 0.9057 0.8334 0.1392
H2 H 0.7542 0.8730 0.1233
C2 C 0.8812(6) 0.8036(3) -0.0446(4)
H3 H 0.9735 0.7954 -0.0004
N4 N 0.4302(4) 0.7784(2) -0.0312(3)
C3 C 0.7715(4) 0.8229(2) -0.0077(3)
C4 C 0.8531(8) 0.7964(3) -0.1488(5)
H4 H 0.9263 0.7827 -0.1737
C5 C 0.3564(4) 0.4784(2) 0.3829(2)
C6 C 0.1860(4) 0.4625(2) 0.1844(3)
H5 H 0.1285 0.4578 0.1174
C7 C 0.4192(3) 0.47982(18) 0.3081(2)
H6 H 0.5175 0.4862 0.3246
C8 C 0.4420(4) 0.6999(2) -0.0642(3)
H7 H 0.5087 0.6850 -0.0948
C9 C 0.3332(4) 0.47159(19) 0.2086(2)
C10 C 0.2110(5) 0.4683(2) 0.3591(3)
H8 H 0.1706 0.4666 0.4101
C11 C 0.6097(7) 0.8299(3) -0.1771(4)
H9 H 0.5182 0.8398 -0.2217
C12 C 0.6341(5) 0.8362(2) -0.0743(3)
C13 C 0.1249(4) 0.4606(2) 0.2596(3)
C14 C -0.0351(5) 0.4551(3) 0.2355(6)
C15 C 0.7159(8) 0.8097(3) -0.2142(4)
H10 H 0.6964 0.8049 -0.2833
C16 C 0.6721(4) 0.6508(2) 0.2180(3)
H11 H 0.6312 0.6255 0.2618
C17 C 0.2733(8) 0.6935(3) -0.0048(5)
H12 H 0.1992 0.6729 0.0154
C18 C 0.7692(4) 0.6664(2) 0.1044(2)
H13 H 0.8088 0.6552 0.0543
C19 C 0.4038(6) 0.4751(2) 0.1292(3)
C20 C 0.5093(5) 0.8563(2) -0.0397(4)
H14 H 0.5436 0.8845 0.0253
H15 H 0.4452 0.8952 -0.0871
C21 C 0.3205(8) 0.7753(3) 0.0056(6)
H16 H 0.2844 0.8204 0.0328
C22 C 0.6959(5) 0.7358(2) 0.2128(3)
H17 H 0.6743 0.7788 0.2510
O3 O 0.3452(7) 0.4656(4) 0.5444(4)
O4 O 0.3225(5) 0.4794(2) 0.0397(2)
N5 N 0.3507(3) 0.64633(19) -0.0492(2)
O5 O -0.1042(4) 0.4582(4) 0.1415(5)
O1B O 0.4627(4) 0.5274(2) 0.8400(3)
O2B O 1.0867(5) 0.5495(3) 0.6959(6)
N3B N 0.5637(4) 0.51239(19) 0.5119(2)
C5B C 0.6436(4) 0.5216(2) 0.6171(2)
C6B C 0.8140(4) 0.5375(2) 0.8156(3)
H5B H 0.8715 0.5422 0.8826
C7B C 0.5808(3) 0.52018(18) 0.6919(2)
H6B H 0.4825 0.5138 0.6754
C9B C 0.6668(4) 0.52841(19) 0.7914(2)
C10B C 0.7890(5) 0.5317(2) 0.6409(3)
H8B H 0.8294 0.5334 0.5899
C13B C 0.8751(4) 0.5394(2) 0.7404(3)
C14B C 1.0351(5) 0.5449(3) 0.7645(6)
C19B C 0.5962(6) 0.5249(2) 0.8708(3)
O3B O 0.6548(7) 0.5344(4) 0.4556(4)
O4B O 0.6775(5) 0.5206(2) 0.9603(2)
O5B O 1.1042(4) 0.5418(4) 0.8585(5)
Co1B Co 0.31021(4) 0.51964(3) -0.09856(3)
N1B N 0.2824(3) 0.39233(18) -0.1491(2)
N2B N 0.2422(3) 0.25502(18) -0.1400(2)
C1B C 0.1961(4) 0.1746(2) -0.1058(3)
H1B H 0.0943 0.1666 -0.1392
H2B H 0.2458 0.1270 -0.1233
C2B C 0.1188(6) 0.1964(3) 0.0446(4)
H3B H 0.0265 0.2046 0.0004
N4B N 0.5698(4) 0.2216(2) 0.0312(3)
C3B C 0.2285(4) 0.1771(2) 0.0077(3)
C4B C 0.1469(8) 0.2036(3) 0.1488(5)
H4B H 0.0737 0.2173 0.1737
C8B C 0.5580(4) 0.3001(2) 0.0642(3)
H7B H 0.4913 0.3150 0.0948
C11B C 0.3903(7) 0.1701(3) 0.1771(4)
H9B H 0.4818 0.1602 0.2217
C12B C 0.3659(5) 0.1638(2) 0.0743(3)
C15B C 0.2841(8) 0.1903(3) 0.2142(4)
H10B H 0.3036 0.1951 0.2833
C16B C 0.3279(4) 0.3492(2) -0.2180(3)
H11B H 0.3688 0.3745 -0.2618
C17B C 0.7267(8) 0.3065(3) 0.0048(5)
H12B H 0.8008 0.3271 -0.0154
C18B C 0.2308(4) 0.3336(2) -0.1044(2)
H13B H 0.1912 0.3448 -0.0543
C20B C 0.4907(5) 0.1437(2) 0.0397(4)
H14B H 0.4564 0.1155 -0.0253
H15B H 0.5548 0.1048 0.0871
C21B C 0.6795(8) 0.2247(3) -0.0056(6)
H16B H 0.7156 0.1796 -0.0328
C22B C 0.3041(5) 0.2642(2) -0.2128(3)
H17B H 0.3257 0.2212 -0.2510
N5B N 0.6493(3) 0.35367(19) 0.0492(2)
Co1_2 Co -0.31021(4) 0.48036(3) 0.09856(3)
Co1_3 Co 0.68979(4) 0.48036(3) 1.09856(3)
Co1B_2 Co 0.31021(4) 0.51964(3) 0.90144(3)
Co1B_3 Co 1.31021(4) 0.51964(3) 0.90144(3)
O1B_2 O 0.4627(4) 0.5274(2) -0.1600(3)
O4B_2 O 0.6775(5) 0.5206(2) -0.0397(2)
O5_2 O 0.8958(4) 0.4582(4) 0.1415(5)
O5B_2 O 0.1042(4) 0.5418(4) -0.1415(5)
loop_
_geom_bond_atom_site_label_1
_geom_bond_atom_site_label_2
_geom_bond_site_symmetry_1
_geom_bond_site_symmetry_2
Co1 O1 1_555 1_555
O1 C19 1_555 1_555
O2 C14 1_555 1_555
N1 Co1 1_555 1_555
N2 C1 1_555 1_555
N3 C5 1_555 1_555
C1 H1 1_555 1_555
H2 C1 1_555 1_555
C2 H3 1_555 1_555
N4 C8 1_555 1_555
C3 C1 1_555 1_555
C4 C2 1_555 1_555
H4 C4 1_555 1_555
C5 C7 1_555 1_555
C6 H5 1_555 1_555
C7 H6 1_555 1_555
C8 H7 1_555 1_555
C9 C6 1_555 1_555
C10 C5 1_555 1_555
H8 C10 1_555 1_555
C11 H9 1_555 1_555
C12 C3 1_555 1_555
C13 C6 1_555 1_555
C14 C13 1_555 1_555
C15 C4 1_555 1_555
H10 C15 1_555 1_555
C16 N1 1_555 1_555
H11 C16 1_555 1_555
C17 H12 1_555 1_555
C18 N1 1_555 1_555
H13 C18 1_555 1_555
C19 C9 1_555 1_555
C20 N4 1_555 1_555
H14 C20 1_555 1_555
H15 C20 1_555 1_555
C21 N4 1_555 1_555
H16 C21 1_555 1_555
C22 N2 1_555 1_555
H17 C22 1_555 1_555
O3 N3 1_555 1_555
O4 C19 1_555 1_555
N5 C8 1_555 1_555
O5 C14 1_555 1_555
O1B C19B 1_555 1_555
O2B C14B 1_555 1_555
N3B N3 1_555 1_555
C5B N3B 1_555 1_555
C6B H5B 1_555 1_555
C7B C5B 1_555 1_555
H6B C7B 1_555 1_555
C9B C6B 1_555 1_555
C10B C5B 1_555 1_555
H8B C10B 1_555 1_555
C13B C6B 1_555 1_555
C14B C13B 1_555 1_555
C19B C9B 1_555 1_555
O3B N3B 1_555 1_555
O4B C19B 1_555 1_555
O5B C14B 1_555 1_555
Co1B O4 1_555 1_555
N1B Co1B 1_555 1_555
N2B C1B 1_555 1_555
C1B H1B 1_555 1_555
H2B C1B 1_555 1_555
C2B H3B 1_555 1_555
N4B C8B 1_555 1_555
C3B C1B 1_555 1_555
C4B C2B 1_555 1_555
H4B C4B 1_555 1_555
C8B H7B 1_555 1_555
C11B H9B 1_555 1_555
C12B C3B 1_555 1_555
C15B C4B 1_555 1_555
H10B C15B 1_555 1_555
C16B N1B 1_555 1_555
H11B C16B 1_555 1_555
C17B H12B 1_555 1_555
C18B N1B 1_555 1_555
H13B C18B 1_555 1_555
C20B N4B 1_555 1_555
H14B C20B 1_555 1_555
H15B C20B 1_555 1_555
C21B N4B 1_555 1_555
H16B C21B 1_555 1_555
C22B N2B 1_555 1_555
H17B C22B 1_555 1_555
N5B Co1 1_555 1_555
Co1_2 O5 1_555 1_555
Co1_3 O4B 1_555 1_555
Co1B_2 O1B 1_555 1_555
Co1B_3 O5B 1_555 1_555
O1B_2 Co1B 1_555 1_555
O4B_2 Co1 1_555 1_555
O5_2 Co1 1_555 1_555
O5B_2 Co1B 1_555 1_555
N2 C18 1_555 1_555
C2 C3 1_555 1_555
C7 C9 1_555 1_555
C10 C13 1_555 1_555
C11 C12 1_555 1_555
C11 C15 1_555 1_555
C12 C20 1_555 1_555
C16 C22 1_555 1_555
C17 C21 1_555 1_555
C17 N5 1_555 1_555
N5 Co1B 1_555 1_555
C7B C9B 1_555 1_555
C10B C13B 1_555 1_555
N2B C18B 1_555 1_555
C2B C3B 1_555 1_555
C8B N5B 1_555 1_555
C11B C12B 1_555 1_555
C11B C15B 1_555 1_555
C12B C20B 1_555 1_555
C16B C22B 1_555 1_555
C17B C21B 1_555 1_555
C17B N5B 1_555 1_555

#END
