
#######################################################################
#
#                 Cambridge Crystallographic Data Centre
#                                CCDC 
#
#######################################################################
#
# If this CIF has been generated from an entry in the Cambridge 
# Structural Database, then it will include bibliographic, chemical, 
# crystal, experimental, refinement or atomic coordinate data resulting 
# from the CCDC's data processing and validation procedures.
#
#######################################################################

data_TUJBAD
_symmetry_cell_setting           triclinic
_symmetry_space_group_name_H-M   'P -1'
_symmetry_Int_Tables_number      2
_space_group_name_Hall           '-P 1'
loop_
_symmetry_equiv_pos_site_id
_symmetry_equiv_pos_as_xyz
1 x,y,z
2 -x,-y,-z
_cell_length_a                   8.60730(10)
_cell_length_b                   10.2090(2)
_cell_length_c                   12.6781(2)
_cell_angle_alpha                108.2540(10)
_cell_angle_beta                 97.8360(10)
_cell_angle_gamma                97.3020(10)
_cell_volume                     1030.9
loop_
_atom_site_label
_atom_site_type_symbol
_atom_site_fract_x
_atom_site_fract_y
_atom_site_fract_z
Mn1 Mn 1.08796(8) 0.23270(6) 0.10926(5)
O1 O 0.7919(4) -0.0916(3) -0.1651(3)
O2 O 0.9612(4) 0.5475(3) -0.1205(3)
O3 O 0.7786(5) 0.5640(3) -0.2526(3)
O4 O 0.9261(6) 0.1067(4) -0.0389(4)
N1 N 0.5400(12) 0.0588(9) -0.4893(7)
N2 N 0.7351(6) 0.7192(5) -0.0049(4)
C1 C 0.7957(5) 0.3355(4) -0.2451(4)
N3 N 0.6268(5) 0.6277(5) 0.1097(4)
N4 N 0.8947(6) 0.2208(5) 0.2067(5)
C2 C 0.7910(5) 0.1174(4) -0.2082(3)
C3 C 0.8441(5) 0.2615(4) -0.1751(4)
H1 H 0.9121 0.3083 -0.1060
C4 C 0.8498(5) 0.4931(4) -0.2042(4)
C5 C 0.6899(5) 0.0471(4) -0.3118(4)
H2 H 0.6548 -0.0493 -0.3342
C6 C 0.8410(5) 0.0386(4) -0.1311(4)
C7 C 0.6953(6) 0.2665(5) -0.3480(4)
H3 H 0.6635 0.3163 -0.3948
C8 C 0.6413(6) 0.1216(5) -0.3820(4)
C9 C 0.7439(6) 0.6291(6) 0.0501(4)
H4 H 0.8217 0.5734 0.0477
N5 N 0.6948(6) 0.2944(7) 0.2832(5)
C10 C 0.6049(9) 0.5414(7) 0.1813(5)
H5 H 0.6485 0.4570 0.1520
H6 H 0.4916 0.5133 0.1770
C11 C 0.8430(8) 0.3273(7) 0.2677(6)
H7 H 0.9029 0.4175 0.2978
C12 C 0.6018(8) 0.7750(7) 0.0204(5)
H8 H 0.5634 0.8414 -0.0072
C13 C 0.5350(8) 0.7202(8) 0.0906(6)
H9 H 0.4445 0.7412 0.1201
C14 C 0.6830(8) 0.6151(8) 0.3039(5)
C15 C 0.6756(9) 0.5404(10) 0.3806(6)
C16 C 0.5953(10) 0.3872(10) 0.3426(8)
H10 H 0.5742 0.3631 0.4081
H11 H 0.4939 0.3738 0.2930
C17 C 0.7603(11) 0.7532(9) 0.3432(7)
H12 H 0.7648 0.8029 0.2932
C18 C 0.7454(13) 0.6039(13) 0.4909(7)
H13 H 0.7401 0.5537 0.5406
C19 C 0.8211(15) 0.7362(16) 0.5294(7)
H14 H 0.8686 0.7766 0.6053
C20 C 0.7700(12) 0.1112(9) 0.1786(10)
H15 H 0.7692 0.0201 0.1322
C21 C 0.8311(14) 0.8188(12) 0.4557(9)
H16 H 0.8828 0.9118 0.4827
C22 C 0.6514(13) 0.1547(12) 0.2272(13)
H17 H 0.5550 0.0993 0.2238
O5 O 0.5822(10) 0.1212(7) -0.5637(5)
O1A O 0.2081(4) 0.0916(3) -0.8349(3)
O2A O 0.0388(4) -0.5475(3) -0.8795(3)
O3A O 0.2214(5) -0.5640(3) -0.7474(3)
O4A O 0.0739(6) -0.1067(4) -0.9611(4)
N1A N 0.4600(12) -0.0588(9) -0.5107(7)
C1A C 0.2043(5) -0.3355(4) -0.7549(4)
C2A C 0.2090(5) -0.1174(4) -0.7918(3)
C3A C 0.1559(5) -0.2615(4) -0.8249(4)
H1A H 0.0879 -0.3083 -0.8940
C4A C 0.1502(5) -0.4931(4) -0.7958(4)
C5A C 0.3101(5) -0.0471(4) -0.6882(4)
H2A H 0.3452 0.0493 -0.6658
C6A C 0.1590(5) -0.0386(4) -0.8689(4)
C7A C 0.3047(6) -0.2665(5) -0.6520(4)
H3A H 0.3365 -0.3163 -0.6052
C8A C 0.3587(6) -0.1216(5) -0.6180(4)
O5A O 0.4178(10) -0.1212(7) -0.4363(5)
Mn1A Mn -0.08796(8) -0.23270(6) -1.10926(5)
N2A N 0.2649(6) -0.7192(5) -0.9951(4)
N3A N 0.3732(5) -0.6277(5) -1.1097(4)
N4A N 0.1053(6) -0.2208(5) -1.2067(5)
C9A C 0.2561(6) -0.6291(6) -1.0501(4)
H4A H 0.1783 -0.5734 -1.0477
N5A N 0.3052(6) -0.2944(7) -1.2832(5)
C10A C 0.3951(9) -0.5414(7) -1.1813(5)
H5A H 0.3515 -0.4570 -1.1520
H6A H 0.5084 -0.5133 -1.1770
C11A C 0.1570(8) -0.3273(7) -1.2677(6)
H7A H 0.0971 -0.4175 -1.2978
C12A C 0.3982(8) -0.7750(7) -1.0204(5)
H8A H 0.4366 -0.8414 -0.9928
C13A C 0.4650(8) -0.7202(8) -1.0906(6)
H9A H 0.5555 -0.7412 -1.1201
C14A C 0.3170(8) -0.6151(8) -1.3039(5)
C15A C 0.3244(9) -0.5404(10) -1.3806(6)
C16A C 0.4047(10) -0.3872(10) -1.3426(8)
H10A H 0.4258 -0.3631 -1.4081
H11A H 0.5061 -0.3738 -1.2930
C17A C 0.2397(11) -0.7532(9) -1.3432(7)
H12A H 0.2352 -0.8029 -1.2932
C18A C 0.2546(13) -0.6039(13) -1.4909(7)
H13A H 0.2599 -0.5537 -1.5406
C19A C 0.1789(15) -0.7362(16) -1.5294(7)
H14A H 0.1314 -0.7766 -1.6053
C20A C 0.2300(12) -0.1112(9) -1.1786(10)
H15A H 0.2308 -0.0201 -1.1322
C21A C 0.1689(14) -0.8188(12) -1.4557(9)
H16A H 0.1172 -0.9118 -1.4827
C22A C 0.3486(13) -0.1547(12) -1.2272(13)
H17A H 0.4450 -0.0993 -1.2238
Mn1_2 Mn 0.08796(8) -0.76730(6) -0.89074(5)
Mn1_3 Mn 0.08796(8) 0.23270(6) -0.89074(5)
Mn1A_2 Mn 0.91204(8) -0.23270(6) -0.10926(5)
Mn1A_3 Mn 0.91204(8) 0.76730(6) -0.10926(5)
O1_2 O -0.2081(4) -0.0916(3) -1.1651(3)
O1A_2 O 1.2081(4) 0.0916(3) 0.1651(3)
O2_2 O -0.0388(4) -0.4525(3) -1.1205(3)
O2A_2 O 1.0388(4) 0.4525(3) 0.1205(3)
O3_2 O -0.2214(5) -0.4360(3) -1.2526(3)
O3A_2 O 1.2214(5) 0.4360(3) 0.2526(3)
N2_2 N -0.2649(6) -0.2808(5) -1.0049(4)
N2A_2 N 1.2649(6) 0.2808(5) 0.0049(4)
loop_
_geom_bond_atom_site_label_1
_geom_bond_atom_site_label_2
_geom_bond_site_symmetry_1
_geom_bond_site_symmetry_2
Mn1 O4 1_555 1_555
O1 C6 1_555 1_555
O2 C4 1_555 1_555
O3 C4 1_555 1_555
O4 C6 1_555 1_555
N1 C8 1_555 1_555
N2 C9 1_555 1_555
C1 C3 1_555 1_555
N3 C9 1_555 1_555
N4 Mn1 1_555 1_555
C2 C3 1_555 1_555
C3 H1 1_555 1_555
C4 C1 1_555 1_555
C5 C2 1_555 1_555
H2 C5 1_555 1_555
C6 C2 1_555 1_555
C7 C1 1_555 1_555
H3 C7 1_555 1_555
C8 C5 1_555 1_555
C9 H4 1_555 1_555
N5 C11 1_555 1_555
C10 N3 1_555 1_555
H5 C10 1_555 1_555
H6 C10 1_555 1_555
C11 N4 1_555 1_555
H7 C11 1_555 1_555
C12 N2 1_555 1_555
H8 C12 1_555 1_555
C13 N3 1_555 1_555
H9 C13 1_555 1_555
C14 C10 1_555 1_555
C15 C14 1_555 1_555
C16 N5 1_555 1_555
H10 C16 1_555 1_555
H11 C16 1_555 1_555
C17 C14 1_555 1_555
H12 C17 1_555 1_555
C18 C15 1_555 1_555
H13 C18 1_555 1_555
C19 C18 1_555 1_555
H14 C19 1_555 1_555
C20 N4 1_555 1_555
H15 C20 1_555 1_555
C21 C17 1_555 1_555
H16 C21 1_555 1_555
C22 N5 1_555 1_555
H17 C22 1_555 1_555
O5 N1 1_555 1_555
O1A C6A 1_555 1_555
O2A C4A 1_555 1_555
O3A C4A 1_555 1_555
O4A C6A 1_555 1_555
N1A N1 1_555 1_555
C1A C3A 1_555 1_555
C2A C3A 1_555 1_555
C3A H1A 1_555 1_555
C4A C1A 1_555 1_555
C5A C2A 1_555 1_555
H2A C5A 1_555 1_555
C6A C2A 1_555 1_555
C7A C1A 1_555 1_555
H3A C7A 1_555 1_555
C8A N1A 1_555 1_555
O5A N1A 1_555 1_555
Mn1A O4A 1_555 1_555
N2A C9A 1_555 1_555
N3A C9A 1_555 1_555
N4A Mn1A 1_555 1_555
C9A H4A 1_555 1_555
N5A C11A 1_555 1_555
C10A N3A 1_555 1_555
H5A C10A 1_555 1_555
H6A C10A 1_555 1_555
C11A N4A 1_555 1_555
H7A C11A 1_555 1_555
C12A N2A 1_555 1_555
H8A C12A 1_555 1_555
C13A N3A 1_555 1_555
H9A C13A 1_555 1_555
C14A C10A 1_555 1_555
C15A C14A 1_555 1_555
C16A N5A 1_555 1_555
H10A C16A 1_555 1_555
H11A C16A 1_555 1_555
C17A C14A 1_555 1_555
H12A C17A 1_555 1_555
C18A C15A 1_555 1_555
H13A C18A 1_555 1_555
C19A C18A 1_555 1_555
H14A C19A 1_555 1_555
C20A N4A 1_555 1_555
H15A C20A 1_555 1_555
C21A C17A 1_555 1_555
H16A C21A 1_555 1_555
C22A N5A 1_555 1_555
H17A C22A 1_555 1_555
Mn1_2 O2A 1_555 1_555
Mn1_3 O1A 1_555 1_555
Mn1A_2 O1 1_555 1_555
Mn1A_3 O2 1_555 1_555
O1_2 Mn1A 1_555 1_555
O1A_2 Mn1 1_555 1_555
O2_2 Mn1A 1_555 1_555
O2A_2 Mn1 1_555 1_555
O3_2 Mn1A 1_555 1_555
O3A_2 Mn1 1_555 1_555
N2_2 Mn1A 1_555 1_555
N2A_2 Mn1 1_555 1_555
O3 Mn1A_3 1_555 1_555
N2 Mn1A_3 1_555 1_555
C7 C8 1_555 1_555
C12 C13 1_555 1_555
C15 C16 1_555 1_555
C19 C21 1_555 1_555
C20 C22 1_555 1_555
O3A Mn1_2 1_555 1_555
C5A C8A 1_555 1_555
C7A C8A 1_555 1_555
N2A Mn1_2 1_555 1_555
C12A C13A 1_555 1_555
C15A C16A 1_555 1_555
C19A C21A 1_555 1_555
C20A C22A 1_555 1_555

#END
