
#######################################################################
#
#                 Cambridge Crystallographic Data Centre
#                                CCDC 
#
#######################################################################
#
# If this CIF has been generated from an entry in the Cambridge 
# Structural Database, then it will include bibliographic, chemical, 
# crystal, experimental, refinement or atomic coordinate data resulting 
# from the CCDC's data processing and validation procedures.
#
#######################################################################

data_TUJCEI
_symmetry_cell_setting           monoclinic
_symmetry_space_group_name_H-M   'P 21/c'
_symmetry_Int_Tables_number      14
_space_group_name_Hall           '-P 2ybc'
loop_
_symmetry_equiv_pos_site_id
_symmetry_equiv_pos_as_xyz
1 x,y,z
2 -x,1/2+y,1/2-z
3 -x,-y,-z
4 x,1/2-y,1/2+z
_cell_length_a                   10.528(2)
_cell_length_b                   8.7391(17)
_cell_length_c                   24.244(5)
_cell_angle_alpha                90
_cell_angle_beta                 96.870(4)
_cell_angle_gamma                90
_cell_volume                     2214.56
loop_
_atom_site_label
_atom_site_type_symbol
_atom_site_fract_x
_atom_site_fract_y
_atom_site_fract_z
Co1 Co 0.25108(3) -0.00482(5) 0.004611(13)
N1 N 0.1180(3) 0.1021(3) 0.05220(11)
N2 N 0.0081(3) 0.0930(3) 0.05339(8)
N3 N -0.1012(3) 0.0883(3) 0.05583(10)
N4 N 0.4055(2) 0.0787(3) 0.06290(10)
N5 N 0.5100(2) 0.0936(3) 0.05191(8)
N6 N 0.6142(3) 0.1130(3) 0.04270(11)
N7 N 0.2416(2) -0.2106(3) 0.05136(9)
N8 N 0.2586(2) 0.2000(3) -0.04262(9)
C1 C 0.1318(3) -0.2753(4) 0.05980(13)
H1 H 0.0560 -0.2288 0.0448
C2 C 0.1247(3) -0.4074(4) 0.08956(14)
H2 H 0.0451 -0.4490 0.0938
C3 C 0.2331(3) -0.4788(4) 0.11301(12)
C4 C 0.3471(3) -0.4109(4) 0.10445(13)
H3 H 0.4240 -0.4542 0.1197
C5 C 0.3475(3) -0.2799(4) 0.07364(12)
H4 H 0.4259 -0.2374 0.0680
C6 C 0.2290(4) -0.6249(4) 0.14620(14)
H5 H 0.1409 -0.6481 0.1509
H6 H 0.2617 -0.7084 0.1256
C7 C 0.3060(3) -0.6137(4) 0.20217(12)
C8 C 0.2752(4) -0.5090(4) 0.24064(14)
H7 H 0.2050 -0.4451 0.2321
C9 C 0.3469(4) -0.4977(4) 0.29152(14)
H8 H 0.3259 -0.4252 0.3170
C10 C 0.4482(4) -0.5920(5) 0.30478(15)
H9 H 0.4962 -0.5845 0.3395
C11 C 0.4798(4) -0.6979(5) 0.26737(16)
H10 H 0.5494 -0.7625 0.2764
C12 C 0.4086(3) -0.7085(4) 0.21634(14)
H11 H 0.4302 -0.7809 0.1910
C13 C 0.2812(4) 0.3370(4) -0.02003(14)
H12 H 0.2931 0.3440 0.0185
C14 C 0.2882(4) 0.4686(4) -0.05010(14)
H13 H 0.3043 0.5615 -0.0318
C15 C 0.2717(3) 0.4642(3) -0.10648(13)
C16 C 0.2479(3) 0.3238(4) -0.12993(13)
H14 H 0.2351 0.3143 -0.1684
C17 C 0.2426(3) 0.1970(4) -0.09734(12)
H15 H 0.2269 0.1031 -0.1148
C18 C 0.2842(4) 0.6098(4) -0.13961(14)
H16 H 0.2609 0.6960 -0.1177
H17 H 0.3733 0.6225 -0.1453
C19 C 0.2043(3) 0.6148(4) -0.19504(13)
C20 C 0.0919(4) 0.6953(4) -0.20124(16)
H18 H 0.0647 0.7448 -0.1708
C21 C 0.0198(4) 0.7036(5) -0.2516(2)
H19 H -0.0562 0.7589 -0.2552
C22 C 0.0574(5) 0.6317(5) -0.29684(19)
H20 H 0.0068 0.6366 -0.3310
C23 C 0.1689(5) 0.5534(5) -0.29163(16)
H21 H 0.1960 0.5055 -0.3224
C24 C 0.2423(4) 0.5444(4) -0.24091(15)
H22 H 0.3187 0.4899 -0.2376
Co1B Co -0.25108(3) 0.00482(5) -0.004611(13)
Co1B_2 Co 0.74892(3) 0.00482(5) -0.004611(13)
N3B N 0.1012(3) -0.0883(3) -0.05583(10)
N6B N 0.3858(3) -0.1130(3) -0.04270(11)
loop_
_geom_bond_atom_site_label_1
_geom_bond_atom_site_label_2
_geom_bond_site_symmetry_1
_geom_bond_site_symmetry_2
Co1 N1 1_555 1_555
N1 N2 1_555 1_555
N2 N3 1_555 1_555
N3 Co1B 1_555 1_555
N4 Co1 1_555 1_555
N5 N4 1_555 1_555
N6 N5 1_555 1_555
N7 Co1 1_555 1_555
N8 Co1 1_555 1_555
C1 N7 1_555 1_555
H1 C1 1_555 1_555
C2 C1 1_555 1_555
H2 C2 1_555 1_555
C3 C2 1_555 1_555
C4 C3 1_555 1_555
H3 C4 1_555 1_555
C5 N7 1_555 1_555
H4 C5 1_555 1_555
C6 C3 1_555 1_555
H5 C6 1_555 1_555
H6 C6 1_555 1_555
C7 C6 1_555 1_555
C8 C7 1_555 1_555
H7 C8 1_555 1_555
C9 C8 1_555 1_555
H8 C9 1_555 1_555
C10 C9 1_555 1_555
H9 C10 1_555 1_555
C11 C10 1_555 1_555
H10 C11 1_555 1_555
C12 C7 1_555 1_555
H11 C12 1_555 1_555
C13 N8 1_555 1_555
H12 C13 1_555 1_555
C14 C13 1_555 1_555
H13 C14 1_555 1_555
C15 C14 1_555 1_555
C16 C15 1_555 1_555
H14 C16 1_555 1_555
C17 N8 1_555 1_555
H15 C17 1_555 1_555
C18 C15 1_555 1_555
H16 C18 1_555 1_555
H17 C18 1_555 1_555
C19 C18 1_555 1_555
C20 C19 1_555 1_555
H18 C20 1_555 1_555
C21 C20 1_555 1_555
H19 C21 1_555 1_555
C22 C21 1_555 1_555
H20 C22 1_555 1_555
C23 C22 1_555 1_555
H21 C23 1_555 1_555
C24 C19 1_555 1_555
H22 C24 1_555 1_555
Co1B_2 N6 1_555 1_555
N3B Co1 1_555 1_555
N6B Co1 1_555 1_555
C4 C5 1_555 1_555
C11 C12 1_555 1_555
C16 C17 1_555 1_555
C23 C24 1_555 1_555

#END
