
#######################################################################
#
#                 Cambridge Crystallographic Data Centre
#                                CCDC 
#
#######################################################################
#
# If this CIF has been generated from an entry in the Cambridge 
# Structural Database, then it will include bibliographic, chemical, 
# crystal, experimental, refinement or atomic coordinate data resulting 
# from the CCDC's data processing and validation procedures.
#
#######################################################################

data_TUJCIM
_symmetry_cell_setting           monoclinic
_symmetry_space_group_name_H-M   'C c'
_symmetry_Int_Tables_number      9
_space_group_name_Hall           'C -2yc'
loop_
_symmetry_equiv_pos_site_id
_symmetry_equiv_pos_as_xyz
1 x,y,z
2 x,-y,1/2+z
3 1/2+x,1/2+y,z
4 1/2+x,1/2-y,1/2+z
_cell_length_a                   8.1809(16)
_cell_length_b                   22.356(5)
_cell_length_c                   17.634(4)
_cell_angle_alpha                90
_cell_angle_beta                 94.57(3)
_cell_angle_gamma                90
_cell_volume                     3214.87
loop_
_atom_site_label
_atom_site_type_symbol
_atom_site_fract_x
_atom_site_fract_y
_atom_site_fract_z
N1 N -0.1658(6) 0.3136(2) 0.3254(3)
N2 N -0.0381(7) 0.3349(2) 0.3113(3)
N3 N 0.0856(7) 0.3541(3) 0.2966(3)
Co1 Co 0.27519(7) 0.37727(3) 0.38463(5)
Co2 Co 0.67383(7) 0.35722(3) 0.39844(4)
N4 N 0.7224(6) 0.4399(2) 0.3388(3)
N5 N 0.8629(7) 0.3829(3) 0.4840(3)
N6 N 0.2222(6) 0.2925(2) 0.4375(3)
N7 N 0.2931(6) 0.4626(2) 0.3297(3)
N8 N 0.9926(6) 0.4015(3) 0.4712(3)
N9 N 0.4872(6) 0.3954(3) 0.4599(3)
N10 N 0.4635(6) 0.3391(3) 0.3227(3)
N11 N 0.6522(6) 0.2747(2) 0.4587(3)
N12 N 0.5070(6) 0.4305(2) 0.5091(3)
N13 N 0.4523(6) 0.3038(3) 0.2726(3)
C1 C 0.6270(9) 0.2232(3) 0.4224(4)
H1 H 0.6279 0.2231 0.3697
C2 C 0.1962(8) 0.2432(3) 0.3954(5)
H2 H 0.2122 0.2453 0.3439
C3 C 0.3093(9) 0.5140(4) 0.3672(5)
H3 H 0.3049 0.5136 0.4197
C4 C 0.5913(9) 0.1697(3) 0.5387(4)
C5 C 0.1476(9) 0.1905(3) 0.4237(5)
H4 H 0.1296 0.1579 0.3914
C6 C 0.1978(9) 0.2879(3) 0.5110(4)
H5 H 0.2152 0.3212 0.5422
C7 C 0.1250(9) 0.1846(3) 0.4989(5)
C8 C 0.7622(10) 0.4899(3) 0.3767(5)
H6 H 0.7598 0.4902 0.4294
C9 C 0.0742(10) 0.1258(4) 0.5283(5)
H7 H 0.0963 0.0924 0.4993
C10 C 0.2959(10) 0.4657(4) 0.2545(5)
H8 H 0.2834 0.4304 0.2267
C11 C 0.6213(10) 0.2217(4) 0.5743(5)
H9 H 0.6237 0.2235 0.6271
C12 C 0.5993(9) 0.1694(3) 0.4586(4)
H10 H 0.5863 0.1340 0.4310
C13 C 0.1467(9) 0.2342(4) 0.5426(4)
H11 H 0.1276 0.2326 0.5938
N14 N 0.4387(9) 0.2698(4) 0.2238(4)
C14 C 0.3366(10) 0.5701(5) 0.2543(6)
C15 C 0.3322(10) 0.5675(3) 0.3319(5)
H12 H 0.3449 0.6023 0.3606
C16 C 0.7238(9) 0.4421(4) 0.2650(5)
H13 H 0.6939 0.4081 0.2370
C17 C 0.6490(10) 0.2731(4) 0.5333(5)
H14 H 0.6663 0.3087 0.5601
C18 C 0.8070(11) 0.5414(4) 0.3407(7)
H15 H 0.8337 0.5751 0.3699
C19 C 0.8136(10) 0.5447(5) 0.2645(8)
N15 N 0.5251(10) 0.4659(3) 0.5558(4)
C20 C 0.3688(15) 0.6240(4) 0.2064(7)
H16 H 0.3834 0.6186 0.1550
C21 C 0.3766(15) 0.6754(5) 0.2330(8)
H17 H 0.3623 0.6816 0.2842
H18 H 0.3967 0.7077 0.2019
C22 C 0.3161(11) 0.5176(4) 0.2158(5)
H19 H 0.3159 0.5172 0.1631
N16 N 1.1192(6) 0.4199(2) 0.4613(3)
C23 C 0.5549(11) 0.1148(4) 0.5802(5)
H20 H 0.5351 0.1205 0.6310
C24 C 0.5464(13) 0.0616(4) 0.5577(7)
H21 H 0.5648 0.0524 0.5077
H22 H 0.5218 0.0312 0.5911
C25 C 0.0044(12) 0.1164(5) 0.5881(5)
H23 H -0.0205 0.1482 0.6191
H24 H -0.0223 0.0775 0.6014
C26 C 0.7674(11) 0.4925(5) 0.2266(5)
H25 H 0.7658 0.4914 0.1739
C27 C 0.8867(17) 0.6109(7) 0.1739(6)
H26 H 0.8714 0.5777 0.1424
H27 H 0.9186 0.6473 0.1540
C28 C 0.8650(14) 0.6069(5) 0.2418(7)
H28 H 0.8786 0.6386 0.2758
N1_2 N 0.8342(6) 0.3136(2) 0.3254(3)
Co1_2 Co 1.27519(7) 0.37727(3) 0.38463(5)
Co2_2 Co -0.32617(7) 0.35722(3) 0.39844(4)
N16_2 N 0.1192(6) 0.4199(2) 0.4613(3)
loop_
_geom_bond_atom_site_label_1
_geom_bond_atom_site_label_2
_geom_bond_site_symmetry_1
_geom_bond_site_symmetry_2
N1 N2 1_555 1_555
N2 N3 1_555 1_555
N3 Co1 1_555 1_555
Co1 N6 1_555 1_555
Co2 N4 1_555 1_555
N4 C8 1_555 1_555
N5 Co2 1_555 1_555
N6 C2 1_555 1_555
N7 Co1 1_555 1_555
N8 N5 1_555 1_555
N9 Co1 1_555 1_555
N10 Co1 1_555 1_555
N11 Co2 1_555 1_555
N12 N9 1_555 1_555
N13 N10 1_555 1_555
C1 N11 1_555 1_555
H1 C1 1_555 1_555
C2 H2 1_555 1_555
C3 N7 1_555 1_555
H3 C3 1_555 1_555
C4 C11 1_555 1_555
C5 C2 1_555 1_555
H4 C5 1_555 1_555
C6 N6 1_555 1_555
H5 C6 1_555 1_555
C7 C5 1_555 1_555
C8 H6 1_555 1_555
C9 C7 1_555 1_555
H7 C9 1_555 1_555
C10 N7 1_555 1_555
H8 C10 1_555 1_555
C11 H9 1_555 1_555
C12 C1 1_555 1_555
H10 C12 1_555 1_555
C13 C6 1_555 1_555
H11 C13 1_555 1_555
N14 N13 1_555 1_555
C14 C15 1_555 1_555
C15 C3 1_555 1_555
H12 C15 1_555 1_555
C16 N4 1_555 1_555
H13 C16 1_555 1_555
C17 N11 1_555 1_555
H14 C17 1_555 1_555
C18 C8 1_555 1_555
H15 C18 1_555 1_555
C19 C18 1_555 1_555
N15 N12 1_555 1_555
C20 C14 1_555 1_555
H16 C20 1_555 1_555
C21 C20 1_555 1_555
H17 C21 1_555 1_555
H18 C21 1_555 1_555
C22 C10 1_555 1_555
H19 C22 1_555 1_555
N16 N8 1_555 1_555
C23 C4 1_555 1_555
H20 C23 1_555 1_555
C24 C23 1_555 1_555
H21 C24 1_555 1_555
H22 C24 1_555 1_555
C25 C9 1_555 1_555
H23 C25 1_555 1_555
H24 C25 1_555 1_555
C26 C16 1_555 1_555
H25 C26 1_555 1_555
C27 H26 1_555 1_555
H27 C27 1_555 1_555
C28 C19 1_555 1_555
H28 C28 1_555 1_555
N1_2 Co2 1_555 1_555
Co1_2 N16 1_555 1_555
Co2_2 N1 1_555 1_555
N16_2 Co1 1_555 1_555
Co2 N9 1_555 1_555
Co2 N10 1_555 1_555
C4 C12 1_555 1_555
C7 C13 1_555 1_555
C11 C17 1_555 1_555
C14 C22 1_555 1_555
C19 C26 1_555 1_555
C27 C28 1_555 1_555

#END
