
#######################################################################
#
#                 Cambridge Crystallographic Data Centre
#                                CCDC 
#
#######################################################################
#
# If this CIF has been generated from an entry in the Cambridge 
# Structural Database, then it will include bibliographic, chemical, 
# crystal, experimental, refinement or atomic coordinate data resulting 
# from the CCDC's data processing and validation procedures.
#
#######################################################################

data_TUJCUY
_symmetry_cell_setting           monoclinic
_symmetry_space_group_name_H-M   'P 21/c'
_symmetry_Int_Tables_number      14
_space_group_name_Hall           '-P 2ybc'
loop_
_symmetry_equiv_pos_site_id
_symmetry_equiv_pos_as_xyz
1 x,y,z
2 -x,1/2+y,1/2-z
3 -x,-y,-z
4 x,1/2-y,1/2+z
_cell_length_a                   17.27(2)
_cell_length_b                   8.377(10)
_cell_length_c                   10.153(13)
_cell_angle_alpha                90
_cell_angle_beta                 105.296(19)
_cell_angle_gamma                90
_cell_volume                     1416.81
loop_
_atom_site_label
_atom_site_type_symbol
_atom_site_fract_x
_atom_site_fract_y
_atom_site_fract_z
Zn1 Zn 0.57513(9) 0.44853(17) -0.13759(15)
P1 P 0.5953(2) 0.1146(4) -0.2971(3)
O1 O 0.6148(7) 0.2814(12) -0.2375(11)
O2 O 0.5825(7) 0.1186(13) -0.4511(10)
O3 O 0.5280(6) 0.0280(14) -0.2534(11)
O4 O 0.6369(6) -0.3467(13) -0.1304(12)
O5 O 0.7504(6) -0.4704(13) -0.0238(12)
O6 O 1.0926(7) 0.0555(19) 0.4012(14)
H1 H 1.1415 0.0509 0.4316
O7 O 1.1226(8) 0.152(2) 0.2140(17)
N1 N 0.6970(6) -0.0428(13) -0.0739(11)
H2 H 0.6472 -0.0681 -0.0656
C1 C 0.6881(10) -0.0118(18) -0.2252(13)
H3 H 0.6833 -0.1125 -0.2739
H4 H 0.7353 0.0433 -0.2367
C2 C 0.7507(9) -0.1841(17) -0.0193(17)
H5 H 0.7666 -0.1783 0.0797
H6 H 0.7990 -0.1757 -0.0505
C3 C 0.7121(8) -0.3473(17) -0.0619(14)
C4 C 0.7269(10) 0.103(2) 0.0228(18)
H7 H 0.7102 0.2005 -0.0283
H8 H 0.7008 0.0999 0.0965
C5 C 0.8174(10) 0.109(2) 0.0845(17)
C6 C 0.8709(10) 0.156(2) 0.0115(16)
H9 H 0.8519 0.1861 -0.0796
C7 C 0.9535(10) 0.158(2) 0.0740(18)
H10 H 0.9886 0.1940 0.0249
C8 C 0.8472(10) 0.059(2) 0.2210(16)
H11 H 0.8122 0.0257 0.2712
C9 C 0.9315(10) 0.061(2) 0.2809(19)
H12 H 0.9513 0.0294 0.3714
C10 C 0.9843(10) 0.108(2) 0.2088(16)
C11 C 1.0747(9) 0.109(2) 0.2727(16)
Zn1_2 Zn 0.57513(9) -0.55147(17) -0.13759(15)
Zn1A Zn 0.42487(9) -0.05147(17) -0.36241(15)
Zn1C Zn 0.57513(9) 0.05147(17) -0.63759(15)
O2C O 0.5825(7) 0.3814(13) 0.0489(10)
O3A O 0.4720(6) 0.5280(14) -0.2466(11)
O4_2 O 0.6369(6) 0.6533(13) -0.1304(12)
O8 O 0.5699(9) -0.128(2) 0.0496(14)
H13 H 0.5886 -0.1340 0.1357
H14 H 0.5501 -0.2174 0.0184
loop_
_geom_bond_atom_site_label_1
_geom_bond_atom_site_label_2
_geom_bond_site_symmetry_1
_geom_bond_site_symmetry_2
Zn1 O1 1_555 1_555
P1 O1 1_555 1_555
O2 P1 1_555 1_555
O3 P1 1_555 1_555
O4 C3 1_555 1_555
O5 C3 1_555 1_555
O6 H1 1_555 1_555
O7 C11 1_555 1_555
N1 H2 1_555 1_555
C1 P1 1_555 1_555
H3 C1 1_555 1_555
H4 C1 1_555 1_555
C2 N1 1_555 1_555
H5 C2 1_555 1_555
H6 C2 1_555 1_555
C3 C2 1_555 1_555
C4 N1 1_555 1_555
H7 C4 1_555 1_555
H8 C4 1_555 1_555
C5 C4 1_555 1_555
C6 C5 1_555 1_555
H9 C6 1_555 1_555
C7 C6 1_555 1_555
H10 C7 1_555 1_555
C8 C5 1_555 1_555
H11 C8 1_555 1_555
C9 C8 1_555 1_555
H12 C9 1_555 1_555
C10 C7 1_555 1_555
C11 O6 1_555 1_555
O8 H13 1_555 1_555
H14 O8 1_555 1_555
Zn1_2 O4 1_555 1_555
Zn1A O3 1_555 1_555
Zn1C O2 1_555 1_555
O2C Zn1 1_555 1_555
O3A Zn1 1_555 1_555
O4_2 Zn1 1_555 1_555
N1 C1 1_555 1_555
C9 C10 1_555 1_555
C10 C11 1_555 1_555

#END
