
#######################################################################
#
#                 Cambridge Crystallographic Data Centre
#                                CCDC 
#
#######################################################################
#
# If this CIF has been generated from an entry in the Cambridge 
# Structural Database, then it will include bibliographic, chemical, 
# crystal, experimental, refinement or atomic coordinate data resulting 
# from the CCDC's data processing and validation procedures.
#
#######################################################################

data_TUJDAF
_symmetry_cell_setting           monoclinic
_symmetry_space_group_name_H-M   'P 21/c'
_symmetry_Int_Tables_number      14
_space_group_name_Hall           '-P 2ybc'
loop_
_symmetry_equiv_pos_site_id
_symmetry_equiv_pos_as_xyz
1 x,y,z
2 -x,1/2+y,1/2-z
3 -x,-y,-z
4 x,1/2-y,1/2+z
_cell_length_a                   15.836(7)
_cell_length_b                   30.646(15)
_cell_length_c                   9.761(5)
_cell_angle_alpha                90
_cell_angle_beta                 90.144(10)
_cell_angle_gamma                90
_cell_volume                     4737.1
loop_
_atom_site_label
_atom_site_type_symbol
_atom_site_fract_x
_atom_site_fract_y
_atom_site_fract_z
Zn1 Zn 0.45531(5) 0.73044(2) 0.42359(7)
Zn2 Zn 0.50701(5) 0.60237(2) 0.57106(7)
Zn3 Zn 0.51169(5) 0.56481(2) 0.07461(7)
P1 P 0.52322(12) 0.69709(5) 0.71261(15)
P2 P 0.43644(12) 0.63608(5) 0.28505(15)
P3 P 0.44893(11) 0.52845(4) -0.21381(15)
O1 O 0.5124(3) 0.72958(15) 0.5965(5)
O2 O 0.4851(3) 0.65300(14) 0.6824(5)
O3 O 0.4936(3) 0.71427(14) 0.8493(4)
O4 O 0.6344(3) 0.57695(14) 1.0710(5)
O5 O 0.7503(4) 0.61618(18) 1.0315(6)
O6 O 0.4780(3) 0.67974(13) 0.3134(4)
O7 O 0.4457(3) 0.60350(14) 0.4006(4)
O8 O 0.4638(3) 0.61823(13) 0.1479(4)
O9 O 0.3314(3) 0.76209(15) -0.0656(5)
O10 O 0.2120(4) 0.72833(17) -0.0115(6)
O11 O 0.4543(3) 0.56142(14) -0.0983(4)
O12 O 0.4977(3) 0.48672(13) -0.1853(4)
O13 O 0.4726(3) 0.54702(13) -0.3524(4)
O14 O 0.3687(3) 0.40009(15) -0.5626(5)
O15 O 0.2424(3) 0.42629(18) -0.5103(6)
N1 N 0.6733(4) 0.67375(16) 0.8582(5)
H1 H 0.7272 0.6648 0.8419
N2 N 0.2883(4) 0.66495(17) 0.1414(5)
H2 H 0.2369 0.6764 0.1622
N3 N 0.3047(4) 0.49350(17) -0.3526(5)
H3 H 0.2563 0.4792 -0.3303
C1 C 0.6377(5) 0.6906(2) 0.7244(6)
H4 H 0.6553 0.6708 0.6521
H5 H 0.6634 0.7187 0.7058
C2 C 0.6749(5) 0.6079(2) 1.0147(7)
C3 C 0.6244(5) 0.6345(2) 0.9096(7)
H6 H 0.6100 0.6160 0.8325
H7 H 0.5722 0.6444 0.9512
C4 C 0.6773(5) 0.7092(2) 0.9690(6)
H8 H 0.6204 0.7191 0.9883
H9 H 0.6999 0.6965 1.0524
C5 C 0.7310(5) 0.7481(2) 0.9289(7)
C6 C 0.6924(6) 0.7850(2) 0.8770(8)
H10 H 0.6341 0.7847 0.8651
C7 C 0.7369(6) 0.8226(3) 0.8416(8)
H11 H 0.7089 0.8470 0.8074
C8 C 0.8237(7) 0.8227(3) 0.8588(10)
H12 H 0.8541 0.8476 0.8357
C9 C 0.8677(6) 0.7859(3) 0.9106(10)
C10 C 0.9547(8) 0.7857(5) 0.9355(15)
H13 H 0.9861 0.8104 0.9137
C11 C 0.9952(8) 0.7503(5) 0.9910(19)
H14 H 1.0531 0.7510 1.0068
C12 C 0.9486(7) 0.7137(4) 1.0232(16)
H15 H 0.9764 0.6898 1.0611
C13 C 0.8644(6) 0.7108(3) 1.0022(11)
H16 H 0.8356 0.6852 1.0235
C14 C 0.8197(5) 0.7476(3) 0.9468(9)
C15 C 0.3221(4) 0.6452(2) 0.2730(6)
H17 H 0.2941 0.6174 0.2869
H18 H 0.3057 0.6641 0.3481
C16 C 0.2888(5) 0.73261(19) -0.0031(7)
C17 C 0.3409(5) 0.7023(2) 0.0898(7)
H19 H 0.3887 0.6910 0.0390
H20 H 0.3626 0.7188 0.1671
C18 C 0.2732(5) 0.6319(2) 0.0295(7)
H21 H 0.3223 0.6131 0.0215
H22 H 0.2658 0.6469 -0.0571
C19 C 0.1953(6) 0.6038(3) 0.0579(9)
C20 C 0.1169(7) 0.6216(3) 0.0319(14)
H23 H 0.1133 0.6500 -0.0006
C21 C 0.0409(8) 0.5972(4) 0.054(2)
H24 H -0.0117 0.6100 0.0405
C22 C 0.0481(8) 0.5541(4) 0.0947(19)
H25 H -0.0005 0.5377 0.1089
C23 C 0.1263(6) 0.5350(3) 0.1149(12)
C24 C 0.1333(8) 0.4901(4) 0.1542(13)
H26 H 0.0844 0.4736 0.1637
C25 C 0.2083(8) 0.4712(3) 0.1777(10)
H27 H 0.2113 0.4418 0.2015
C26 C 0.2811(7) 0.4957(3) 0.1662(9)
H28 H 0.3327 0.4826 0.1858
C27 C 0.2804(5) 0.5388(2) 0.1270(7)
H29 H 0.3308 0.5541 0.1172
C28 C 0.2020(6) 0.5597(3) 0.1016(9)
C29 C 0.3358(4) 0.5152(2) -0.2227(6)
H30 H 0.3224 0.4963 -0.1462
H31 H 0.3042 0.5421 -0.2103
C30 C 0.3193(5) 0.4265(2) -0.5007(7)
C31 C 0.3639(4) 0.4599(2) -0.4072(7)
H32 H 0.3902 0.4447 -0.3311
H33 H 0.4082 0.4743 -0.4586
C32 C 0.2815(5) 0.5261(2) -0.4635(7)
H34 H 0.2756 0.5112 -0.5507
H35 H 0.3257 0.5477 -0.4722
C33 C 0.1975(6) 0.5486(3) -0.4261(9)
C34 C 0.1241(6) 0.5262(4) -0.4381(14)
H36 H 0.1261 0.4973 -0.4675
C35 C 0.0450(8) 0.5447(5) -0.408(2)
H37 H -0.0037 0.5278 -0.4117
C36 C 0.0408(9) 0.5877(5) -0.374(2)
H38 H -0.0115 0.6004 -0.3571
C37 C 0.1137(7) 0.6129(3) -0.3629(12)
C38 C 0.1122(9) 0.6573(4) -0.3239(14)
H39 H 0.0604 0.6704 -0.3064
C39 C 0.1823(10) 0.6812(3) -0.3113(11)
H40 H 0.1790 0.7104 -0.2861
C40 C 0.2600(7) 0.6619(3) -0.3361(9)
H41 H 0.3082 0.6791 -0.3278
C41 C 0.2697(6) 0.6197(3) -0.3717(8)
H42 H 0.3232 0.6081 -0.3860
C42 C 0.1950(6) 0.5929(3) -0.3871(9)
Zn1C Zn 0.45531(5) 0.76956(2) -0.07641(7)
Zn1C_2 Zn 0.45531(5) 0.76956(2) 0.92359(7)
Zn2_2 Zn 0.50701(5) 0.60237(2) -0.42894(7)
Zn2B Zn 0.49299(5) 0.39763(2) -0.57106(7)
Zn3_2 Zn 0.51169(5) 0.56481(2) 1.07461(7)
Zn3B Zn 0.48831(5) 0.43519(2) -0.07461(7)
O3C O 0.4936(3) 0.78573(14) 0.3493(4)
O4_2 O 0.6344(3) 0.57695(14) 0.0710(5)
O9C O 0.3314(3) 0.73791(15) 0.4344(5)
O12B O 0.5023(3) 0.51328(13) 0.1853(4)
O13_2 O 0.4726(3) 0.54702(13) 0.6476(4)
O14B O 0.6313(3) 0.59991(15) 0.5626(5)
O16 O 0.8149(4) 0.6403(2) 0.7011(6)
H43 H 0.7976 0.6208 0.6459
H44 H 0.8374 0.6611 0.6566
O17 O 0.1568(4) 0.7028(2) 0.3010(7)
H45 H 0.1339 0.6827 0.3480
H46 H 0.1772 0.7222 0.3537
O18 O 0.1771(4) 0.4458(3) -0.2092(8)
H47 H 0.2000 0.4272 -0.1563
H48 H 0.1472 0.4634 -0.1628
loop_
_geom_bond_atom_site_label_1
_geom_bond_atom_site_label_2
_geom_bond_site_symmetry_1
_geom_bond_site_symmetry_2
Zn1 O1 1_555 1_555
Zn2 O2 1_555 1_555
Zn3 O8 1_555 1_555
P1 O1 1_555 1_555
P2 O6 1_555 1_555
P3 O11 1_555 1_555
O2 P1 1_555 1_555
O3 P1 1_555 1_555
O4 C2 1_555 1_555
O5 C2 1_555 1_555
O6 Zn1 1_555 1_555
O7 Zn2 1_555 1_555
O8 P2 1_555 1_555
O9 C16 1_555 1_555
O10 C16 1_555 1_555
O11 Zn3 1_555 1_555
O12 P3 1_555 1_555
O13 P3 1_555 1_555
O14 C30 1_555 1_555
O15 C30 1_555 1_555
N1 H1 1_555 1_555
N2 H2 1_555 1_555
N3 H3 1_555 1_555
C1 P1 1_555 1_555
H4 C1 1_555 1_555
H5 C1 1_555 1_555
C2 C3 1_555 1_555
C3 N1 1_555 1_555
H6 C3 1_555 1_555
H7 C3 1_555 1_555
C4 N1 1_555 1_555
H8 C4 1_555 1_555
H9 C4 1_555 1_555
C5 C4 1_555 1_555
C6 C5 1_555 1_555
H10 C6 1_555 1_555
C7 C6 1_555 1_555
H11 C7 1_555 1_555
C8 C7 1_555 1_555
H12 C8 1_555 1_555
C9 C8 1_555 1_555
C10 C9 1_555 1_555
H13 C10 1_555 1_555
C11 C10 1_555 1_555
H14 C11 1_555 1_555
C12 C11 1_555 1_555
H15 C12 1_555 1_555
C13 C12 1_555 1_555
H16 C13 1_555 1_555
C14 C5 1_555 1_555
C15 P2 1_555 1_555
H17 C15 1_555 1_555
H18 C15 1_555 1_555
C16 C17 1_555 1_555
C17 N2 1_555 1_555
H19 C17 1_555 1_555
H20 C17 1_555 1_555
C18 N2 1_555 1_555
H21 C18 1_555 1_555
H22 C18 1_555 1_555
C19 C18 1_555 1_555
C20 C19 1_555 1_555
H23 C20 1_555 1_555
C21 C20 1_555 1_555
H24 C21 1_555 1_555
C22 C21 1_555 1_555
H25 C22 1_555 1_555
C23 C22 1_555 1_555
C24 C23 1_555 1_555
H26 C24 1_555 1_555
C25 C24 1_555 1_555
H27 C25 1_555 1_555
C26 C25 1_555 1_555
H28 C26 1_555 1_555
C27 C26 1_555 1_555
H29 C27 1_555 1_555
C28 C19 1_555 1_555
C29 P3 1_555 1_555
H30 C29 1_555 1_555
H31 C29 1_555 1_555
C30 C31 1_555 1_555
C31 N3 1_555 1_555
H32 C31 1_555 1_555
H33 C31 1_555 1_555
C32 N3 1_555 1_555
H34 C32 1_555 1_555
H35 C32 1_555 1_555
C33 C32 1_555 1_555
C34 C33 1_555 1_555
H36 C34 1_555 1_555
C35 C34 1_555 1_555
H37 C35 1_555 1_555
C36 C35 1_555 1_555
H38 C36 1_555 1_555
C37 C36 1_555 1_555
C38 C37 1_555 1_555
H39 C38 1_555 1_555
C39 C38 1_555 1_555
H40 C39 1_555 1_555
C40 C39 1_555 1_555
H41 C40 1_555 1_555
C41 C40 1_555 1_555
H42 C41 1_555 1_555
C42 C33 1_555 1_555
O16 H43 1_555 1_555
H44 O16 1_555 1_555
O17 H45 1_555 1_555
H46 O17 1_555 1_555
O18 H47 1_555 1_555
H48 O18 1_555 1_555
Zn1C O9 1_555 1_555
Zn1C_2 O3 1_555 1_555
Zn2_2 O13 1_555 1_555
Zn2B O14 1_555 1_555
Zn3_2 O4 1_555 1_555
Zn3B O12 1_555 1_555
O3C Zn1 1_555 1_555
O4_2 Zn3 1_555 1_555
O9C Zn1 1_555 1_555
O12B Zn3 1_555 1_555
O13_2 Zn2 1_555 1_555
O14B Zn2 1_555 1_555
P2 O7 1_555 1_555
N1 C1 1_555 1_555
N2 C15 1_555 1_555
N3 C29 1_555 1_555
C9 C14 1_555 1_555
C13 C14 1_555 1_555
C23 C28 1_555 1_555
C27 C28 1_555 1_555
C37 C42 1_555 1_555
C41 C42 1_555 1_555

#END
