
#######################################################################
#
#                 Cambridge Crystallographic Data Centre
#                                CCDC 
#
#######################################################################
#
# If this CIF has been generated from an entry in the Cambridge 
# Structural Database, then it will include bibliographic, chemical, 
# crystal, experimental, refinement or atomic coordinate data resulting 
# from the CCDC's data processing and validation procedures.
#
#######################################################################

data_TUJDIN
_symmetry_cell_setting           triclinic
_symmetry_space_group_name_H-M   'P -1'
_symmetry_Int_Tables_number      2
_space_group_name_Hall           '-P 1'
loop_
_symmetry_equiv_pos_site_id
_symmetry_equiv_pos_as_xyz
1 x,y,z
2 -x,-y,-z
_cell_length_a                   8.53400(10)
_cell_length_b                   9.65730(10)
_cell_length_c                   10.26020(10)
_cell_angle_alpha                78.93
_cell_angle_beta                 75.6950(10)
_cell_angle_gamma                76.4000(10)
_cell_volume                     788.315
loop_
_atom_site_label
_atom_site_type_symbol
_atom_site_fract_x
_atom_site_fract_y
_atom_site_fract_z
Cd1 Cd 0.79334(2) 0.97214(2) 0.12219(2)
O1 O 0.9027(3) 1.1218(2) 0.9207(2)
O2 O 0.8451(3) 1.1128(2) 0.2468(2)
O3 O 0.7290(3) 0.9581(3) 0.4064(2)
O4 O 0.7241(3) 1.0028(3) 0.8977(2)
O5 O 0.5264(3) 1.1011(3) 0.1548(3)
H1 H 0.4961 1.1281 0.2346
H2 H 0.4601 1.0487 0.1480
N1 N 1.0135(3) 1.4506(3) 0.4646(2)
N2 N 0.7429(4) 0.7506(3) 0.1648(3)
N3 N 0.7024(4) 0.5425(3) 0.1379(3)
C1 C 0.8264(4) 1.1410(3) 0.4729(3)
C2 C 0.7953(3) 1.0884(3) 0.6108(3)
H3 H 0.7453 1.0090 0.6418
C3 C 0.9340(4) 1.3301(3) 0.5211(3)
C4 C 0.8385(3) 1.1541(3) 0.7029(3)
C5 C 0.7956(4) 1.0639(3) 0.3693(3)
C6 C 0.9076(4) 1.2754(3) 0.6585(3)
H4 H 0.9360 1.3197 0.7198
C7 C 0.8194(4) 1.0887(3) 0.8497(3)
C8 C 0.8976(4) 1.2617(3) 0.4280(3)
H5 H 0.9209 1.2967 0.3358
C9 C 0.7714(4) 0.6572(3) 0.0779(3)
C10 C 0.6955(5) 0.4209(4) 0.0743(5)
H6 H 0.6714 0.3416 0.1449
H7 H 0.8029 0.3893 0.0181
C11 C 0.8644(5) 0.6749(4) -0.0645(4)
H8 H 0.7885 0.7121 -0.1239
H9 H 0.9283 0.5834 -0.0870
H10 H 0.9366 0.7407 -0.0750
C12 C 0.6236(5) 0.5658(4) 0.2689(4)
H11 H 0.5644 0.5053 0.3340
C13 C 0.6496(5) 0.6933(4) 0.2833(4)
H12 H 0.6104 0.7364 0.3619
O6 O 1.1083(10) 1.4469(7) 0.3461(6)
C14 C 0.5706(8) 0.4562(6) -0.0099(10)
H13 H 0.6276 0.4897 -0.1005
H14 H 0.5457 0.3647 -0.0151
O1A O 1.0973(3) 1.8782(2) 0.0793(2)
O2A O 1.1549(3) 1.8872(2) 0.7532(2)
O3A O 1.2710(3) 2.0419(3) 0.5936(2)
O4A O 1.2759(3) 1.9972(3) 0.1023(2)
N1A N 0.9865(3) 1.5494(3) 0.5354(2)
C1A C 1.1736(4) 1.8590(3) 0.5271(3)
C2A C 1.2047(3) 1.9116(3) 0.3892(3)
H3A H 1.2547 1.9910 0.3582
C3A C 1.0660(4) 1.6699(3) 0.4789(3)
C4A C 1.1615(3) 1.8459(3) 0.2971(3)
C5A C 1.2044(4) 1.9361(3) 0.6307(3)
C6A C 1.0924(4) 1.7246(3) 0.3415(3)
H4A H 1.0640 1.6803 0.2802
C7A C 1.1806(4) 1.9113(3) 0.1503(3)
C8A C 1.1024(4) 1.7383(3) 0.5720(3)
H5A H 1.0791 1.7033 0.6642
O6A O 0.8917(10) 1.5531(7) 0.6539(6)
N2A N 0.2571(4) 0.2494(3) -0.1648(3)
N3A N 0.2976(4) 0.4575(3) -0.1379(3)
C9A C 0.2286(4) 0.3428(3) -0.0779(3)
C10A C 0.3045(5) 0.5791(4) -0.0743(5)
H6A H 0.3286 0.6584 -0.1449
H7A H 0.1971 0.6107 -0.0181
C11A C 0.1356(5) 0.3251(4) 0.0645(4)
H8A H 0.2115 0.2879 0.1239
H9A H 0.0717 0.4166 0.0870
H10A H 0.0634 0.2593 0.0750
C12A C 0.3764(5) 0.4342(4) -0.2689(4)
H11A H 0.4356 0.4947 -0.3340
C13A C 0.3504(5) 0.3067(4) -0.2833(4)
H12A H 0.3896 0.2636 -0.3619
C14A C 0.4294(8) 0.5438(6) 0.0099(10)
H13A H 0.3724 0.5103 0.1005
H14A H 0.4543 0.6353 0.0151
Cd1A Cd 0.20666(2) 0.02786(2) -0.12219(2)
O5A O 0.4736(3) -0.1011(3) -0.1548(3)
H1A H 0.5039 -0.1281 -0.2346
H2A H 0.5399 -0.0487 -0.1480
Cd1_2 Cd 0.79334(2) 0.97214(2) 1.12219(2)
Cd1_3 Cd 0.79334(2) 1.97214(2) 0.12219(2)
Cd1A_2 Cd 1.20666(2) 1.02786(2) 0.87781(2)
Cd1A_3 Cd 1.20666(2) 2.02786(2) -0.12219(2)
Cd1A_4 Cd 1.20666(2) 2.02786(2) 0.87781(2)
O1_2 O -0.0973(3) 0.1218(2) -0.0793(2)
O1_3 O 0.9027(3) 1.1218(2) -0.0793(2)
O1A_2 O 0.0973(3) -0.1218(2) 0.0793(2)
O1A_3 O 1.0973(3) 0.8782(2) 0.0793(2)
O2A_2 O 0.1549(3) -0.1128(2) -0.2468(2)
O3A_2 O 0.2710(3) 0.0419(3) -0.4064(2)
O4_2 O 0.7241(3) 1.0028(3) -0.1023(2)
O4A_2 O 0.2759(3) -0.0028(3) 0.1023(2)
O7 O 0.3857(5) 1.2359(4) 0.3792(3)
H15 H 0.3072 1.3049 0.3631
H16 H 0.3512 1.1802 0.4500
loop_
_geom_bond_atom_site_label_1
_geom_bond_atom_site_label_2
_geom_bond_site_symmetry_1
_geom_bond_site_symmetry_2
Cd1 O2 1_555 1_555
O1 C7 1_555 1_555
O2 C5 1_555 1_555
O3 Cd1 1_555 1_555
O4 C7 1_555 1_555
O5 Cd1 1_555 1_555
H1 O5 1_555 1_555
H2 O5 1_555 1_555
N1 C3 1_555 1_555
N2 Cd1 1_555 1_555
N3 C9 1_555 1_555
C1 C2 1_555 1_555
C2 H3 1_555 1_555
C3 C6 1_555 1_555
C4 C2 1_555 1_555
C5 O3 1_555 1_555
C6 C4 1_555 1_555
H4 C6 1_555 1_555
C7 C4 1_555 1_555
C8 C1 1_555 1_555
H5 C8 1_555 1_555
C9 N2 1_555 1_555
C10 N3 1_555 1_555
H6 C10 1_555 1_555
H7 C10 1_555 1_555
C11 C9 1_555 1_555
H8 C11 1_555 1_555
H9 C11 1_555 1_555
H10 C11 1_555 1_555
C12 N3 1_555 1_555
H11 C12 1_555 1_555
C13 N2 1_555 1_555
H12 C13 1_555 1_555
O6 N1 1_555 1_555
C14 C10 1_555 1_555
H13 C14 1_555 1_555
H14 C14 1_555 1_555
O7 H15 1_555 1_555
H16 O7 1_555 1_555
O1A C7A 1_555 1_555
O2A C5A 1_555 1_555
O3A C5A 1_555 1_555
O4A C7A 1_555 1_555
N1A N1 1_555 1_555
C1A C2A 1_555 1_555
C2A H3A 1_555 1_555
C3A N1A 1_555 1_555
C4A C2A 1_555 1_555
C5A C1A 1_555 1_555
C6A C3A 1_555 1_555
H4A C6A 1_555 1_555
C7A C4A 1_555 1_555
C8A C1A 1_555 1_555
H5A C8A 1_555 1_555
O6A N1A 1_555 1_555
N2A C9A 1_555 1_555
N3A C9A 1_555 1_555
C9A C11A 1_555 1_555
C10A N3A 1_555 1_555
H6A C10A 1_555 1_555
H7A C10A 1_555 1_555
C11A H8A 1_555 1_555
H9A C11A 1_555 1_555
H10A C11A 1_555 1_555
C12A N3A 1_555 1_555
H11A C12A 1_555 1_555
C13A N2A 1_555 1_555
H12A C13A 1_555 1_555
C14A C14 1_555 1_555
H13A C14A 1_555 1_555
H14A C14A 1_555 1_555
Cd1A N2A 1_555 1_555
O5A Cd1A 1_555 1_555
H1A O5A 1_555 1_555
H2A O5A 1_555 1_555
Cd1_2 O1 1_555 1_555
Cd1_3 O1A 1_555 1_555
Cd1A_2 O1 1_555 1_555
Cd1A_3 O1A 1_555 1_555
Cd1A_4 O2A 1_555 1_555
O1_2 Cd1A 1_555 1_555
O1_3 Cd1 1_555 1_555
O1A_2 Cd1A 1_555 1_555
O1A_3 Cd1 1_555 1_555
O2A_2 Cd1A 1_555 1_555
O3A_2 Cd1A 1_555 1_555
O4_2 Cd1 1_555 1_555
O4A_2 Cd1A 1_555 1_555
O4 Cd1_2 1_555 1_555
C1 C5 1_555 1_555
C3 C8 1_555 1_555
C12 C13 1_555 1_555
O3A Cd1A_4 1_555 1_555
O4A Cd1A_3 1_555 1_555
C3A C8A 1_555 1_555
C4A C6A 1_555 1_555
C10A C14A 1_555 1_555
C12A C13A 1_555 1_555

#END
