
#######################################################################
#
#                 Cambridge Crystallographic Data Centre
#                                CCDC 
#
#######################################################################
#
# If this CIF has been generated from an entry in the Cambridge 
# Structural Database, then it will include bibliographic, chemical, 
# crystal, experimental, refinement or atomic coordinate data resulting 
# from the CCDC's data processing and validation procedures.
#
#######################################################################

data_TUJGIQ
_symmetry_cell_setting           monoclinic
_symmetry_space_group_name_H-M   'C 2/c'
_symmetry_Int_Tables_number      15
_space_group_name_Hall           '-C 2yn'
loop_
_symmetry_equiv_pos_site_id
_symmetry_equiv_pos_as_xyz
1 x,y,z
2 -x,y,1/2-z
3 1/2+x,1/2+y,z
4 1/2-x,1/2+y,1/2-z
5 -x,-y,-z
6 x,-y,1/2+z
7 1/2-x,1/2-y,-z
8 1/2+x,1/2-y,1/2+z
_cell_length_a                   24.9497(18)
_cell_length_b                   9.4852(7)
_cell_length_c                   21.7319(15)
_cell_angle_alpha                90
_cell_angle_beta                 102.2610(10)
_cell_angle_gamma                90
_cell_volume                     5025.61
loop_
_atom_site_label
_atom_site_type_symbol
_atom_site_fract_x
_atom_site_fract_y
_atom_site_fract_z
Cu1 Cu 0.797087(15) 0.57882(4) 0.470426(17)
O1 O 0.76707(10) 0.7980(3) 0.43378(11)
O2 O 0.69217(10) 0.9235(3) 0.43804(11)
O3 O 0.70780(10) 1.0367(3) 0.11881(11)
O4 O 0.63498(15) 0.8923(4) 0.10501(14)
O5 O 0.82371(15) 0.8052(5) 0.22556(19)
O6 O 0.75585(17) 0.7495(4) 0.14980(15)
N1 N 0.87464(11) 0.6481(3) 0.48242(13)
N2 N 1.22263(11) 0.9902(3) 0.46251(13)
N3 N 0.77439(17) 0.7992(4) 0.20190(17)
C1 C 0.88893(15) 0.7352(5) 0.44069(19)
H1 H 0.8611 0.7692 0.4072
C2 C 0.94214(16) 0.7788(6) 0.4436(2)
H2 H 0.9502 0.8413 0.4127
C3 C 0.98369(14) 0.7313(4) 0.49167(18)
C4 C 0.96882(15) 0.6401(5) 0.5349(2)
H3 H 0.9960 0.6036 0.5685
C5 C 0.91446(15) 0.6021(5) 0.52926(19)
H4 H 0.9051 0.5408 0.5599
C6 C 1.04143(14) 0.7696(5) 0.49662(18)
H5 H 1.0682 0.7257 0.5285
C7 C 1.05840(15) 0.8621(5) 0.4591(2)
H6 H 1.0310 0.9073 0.4283
C8 C 1.11561(15) 0.9008(4) 0.46083(19)
C9 C 1.12705(15) 0.9968(5) 0.4168(2)
H7 H 1.0981 1.0352 0.3858
C10 C 1.18071(15) 1.0362(5) 0.41836(17)
H8 H 1.1880 1.0983 0.3868
C11 C 1.21186(14) 0.8969(4) 0.50469(16)
H9 H 1.2416 0.8626 0.5360
C12 C 1.15999(14) 0.8484(4) 0.50487(17)
H10 H 1.1545 0.7798 0.5348
C13 C 0.72596(13) 0.8665(4) 0.40922(14)
C14 C 0.71304(14) 0.8880(4) 0.33880(15)
C15 C 0.66552(18) 0.9569(6) 0.30865(18)
H11 H 0.6411 0.9933 0.3328
C16 C 0.65322(19) 0.9733(6) 0.24334(19)
H12 H 0.6200 1.0181 0.2234
C17 C 0.68900(16) 0.9250(4) 0.20747(16)
C18 C 0.73575(16) 0.8546(5) 0.23846(17)
C19 C 0.74789(15) 0.8339(5) 0.30302(16)
H13 H 0.7798 0.7830 0.3225
C20 C 0.67533(16) 0.9502(4) 0.13674(16)
Cu1B Cu 1.297087(15) 1.07882(4) 0.470426(17)
Cu1C Cu 0.702913(15) 1.07882(4) 0.029574(17)
Cu1F Cu 0.702913(15) 0.92118(4) 0.529574(17)
O2F O 0.80783(10) 0.5765(3) 0.56196(11)
O3C O 0.79220(10) 0.5367(3) 0.38119(11)
N2B N 0.72263(11) 0.4902(3) 0.46251(13)
S1 S 0.56231(9) 0.6413(3) 0.17395(10)
O7 O 0.5206(2) 0.5251(10) 0.1605(3)
C21 C 0.5852(5) 0.6381(13) 0.2577(4)
H14 H 0.5922 0.5405 0.2719
H15 H 0.5569 0.6791 0.2774
H16 H 0.6191 0.6930 0.2698
C22 C 0.6246(3) 0.5678(7) 0.1598(4)
H17 H 0.6552 0.6315 0.1764
H18 H 0.6215 0.5554 0.1144
H19 H 0.6313 0.4761 0.1809
S2 S 0.5070(4) 1.1124(13) 0.2256(6)
O8 O 0.5277(7) 1.197(3) 0.2938(12)
C23 C 0.4473(9) 1.219(4) 0.1982(17)
H20 H 0.4563 1.2958 0.1721
H21 H 0.4346 1.2580 0.2343
H22 H 0.4182 1.1606 0.1731
C24A C 0.4803(10) 0.955(2) 0.2248(14)
H23A H 0.4560 0.9796 0.1846
H24A H 0.4631 0.8828 0.2461
H25A H 0.5152 0.9199 0.2171
C24 C 0.5197(10) 0.955(2) 0.2752(14)
H23 H 0.5440 0.9796 0.3154
H24 H 0.5369 0.8828 0.2539
H25 H 0.4848 0.9199 0.2829
S2A S 0.4930(4) 1.1124(13) 0.2744(6)
O8A O 0.4723(7) 1.197(3) 0.2062(12)
C23A C 0.5527(9) 1.219(4) 0.3018(17)
H20A H 0.5437 1.2958 0.3279
H21A H 0.5654 1.2580 0.2657
H22A H 0.5818 1.1606 0.3269
C25? C 0.5688(6) 0.5471(12) 0.2184(4)
H26? H 0.5658 0.5923 0.2581
H27? H 0.6051 0.5036 0.2231
H28? H 0.5404 0.4746 0.2075
loop_
_geom_bond_atom_site_label_1
_geom_bond_atom_site_label_2
_geom_bond_site_symmetry_1
_geom_bond_site_symmetry_2
Cu1 O1 1_555 1_555
O1 C13 1_555 1_555
O2 C13 1_555 1_555
O3 C20 1_555 1_555
O4 C20 1_555 1_555
O5 N3 1_555 1_555
O6 N3 1_555 1_555
N1 Cu1 1_555 1_555
N2 C10 1_555 1_555
N3 C18 1_555 1_555
C1 N1 1_555 1_555
H1 C1 1_555 1_555
C2 C1 1_555 1_555
H2 C2 1_555 1_555
C3 C2 1_555 1_555
C4 C3 1_555 1_555
H3 C4 1_555 1_555
C5 N1 1_555 1_555
H4 C5 1_555 1_555
C6 C3 1_555 1_555
H5 C6 1_555 1_555
C7 C6 1_555 1_555
H6 C7 1_555 1_555
C8 C7 1_555 1_555
C9 C8 1_555 1_555
H7 C9 1_555 1_555
C10 C9 1_555 1_555
H8 C10 1_555 1_555
C11 N2 1_555 1_555
H9 C11 1_555 1_555
C12 C8 1_555 1_555
H10 C12 1_555 1_555
C13 C14 1_555 1_555
C14 C15 1_555 1_555
C15 H11 1_555 1_555
C16 C15 1_555 1_555
H12 C16 1_555 1_555
C17 C16 1_555 1_555
C18 C17 1_555 1_555
C19 C14 1_555 1_555
H13 C19 1_555 1_555
C20 C17 1_555 1_555
S1 O7 1_555 1_555
C21 S1 1_555 1_555
H14 C21 1_555 1_555
H15 C21 1_555 1_555
H16 C21 1_555 1_555
C22 S1 1_555 1_555
H17 C22 1_555 1_555
H18 C22 1_555 1_555
H19 C22 1_555 1_555
S2 O8 1_555 1_555
C23 S2 1_555 1_555
H20 C23 1_555 1_555
H21 C23 1_555 1_555
H22 C23 1_555 1_555
C24 H23 1_555 1_555
H24 C24 1_555 1_555
H25 C24 1_555 1_555
Cu1B N2 1_555 1_555
Cu1C O3 1_555 1_555
Cu1F O2 1_555 1_555
O2F Cu1 1_555 1_555
O3C Cu1 1_555 1_555
N2B Cu1 1_555 1_555
C24A S2 1_555 1_555
H23A C24A 1_555 1_555
H24A C24A 1_555 1_555
H25A C24A 1_555 1_555
S2A C24 1_555 1_555
O8A S2A 1_555 1_555
C23A S2A 1_555 1_555
H20A C23A 1_555 1_555
H21A C23A 1_555 1_555
H22A C23A 1_555 1_555
C4 C5 1_555 1_555
C11 C12 1_555 1_555
C18 C19 1_555 1_555

#END
