
#######################################################################
#
#                 Cambridge Crystallographic Data Centre
#                                CCDC 
#
#######################################################################
#
# If this CIF has been generated from an entry in the Cambridge 
# Structural Database, then it will include bibliographic, chemical, 
# crystal, experimental, refinement or atomic coordinate data resulting 
# from the CCDC's data processing and validation procedures.
#
#######################################################################

data_TUJNES
_symmetry_cell_setting           monoclinic
_symmetry_space_group_name_H-M   'P 21/c'
_symmetry_Int_Tables_number      14
_space_group_name_Hall           '-P 2ybc'
loop_
_symmetry_equiv_pos_site_id
_symmetry_equiv_pos_as_xyz
1 x,y,z
2 -x,1/2+y,1/2-z
3 -x,-y,-z
4 x,1/2-y,1/2+z
_cell_length_a                   9.292(9)
_cell_length_b                   21.07(2)
_cell_length_c                   15.043(15)
_cell_angle_alpha                90
_cell_angle_beta                 97.739(17)
_cell_angle_gamma                90
_cell_volume                     2918.33
loop_
_atom_site_label
_atom_site_type_symbol
_atom_site_fract_x
_atom_site_fract_y
_atom_site_fract_z
C1 C 0.1820(3) 0.78169(15) 0.6280(2)
C2 C 0.1000(4) 0.77639(17) 0.5428(2)
H1 H 0.1393 0.7917 0.4934
C3 C -0.0396(4) 0.74872(16) 0.5292(2)
H2 H -0.0925 0.7463 0.4723
C4 C -0.0959(4) 0.72486(16) 0.6048(2)
H3 H -0.1851 0.7042 0.5966
C5 C -0.0229(4) 0.73107(16) 0.6914(2)
H4 H -0.0661 0.7173 0.7403
C6 C 0.1180(4) 0.75863(16) 0.7047(2)
C7 C 0.1873(4) 0.76815(18) 0.7956(2)
H5 H 0.1367 0.7554 0.8418
C8 C 0.3535(3) 0.81887(18) 0.9195(2)
H6 H 0.3315 0.8637 0.9239
H7 H 0.3032 0.7952 0.9612
C9 C 0.5139(4) 0.80679(17) 0.9348(2)
H8 H 0.5592 0.8302 0.9877
C10 C 0.7088(4) 0.85171(17) 0.8666(2)
H9 H 0.7533 0.8571 0.9253
C11 C 0.7840(3) 0.87292(15) 0.7957(2)
C12 C 0.9261(3) 0.90066(17) 0.8240(2)
H10 H 0.9596 0.9048 0.8848
C13 C 1.0126(4) 0.92107(16) 0.7604(2)
H11 H 1.1046 0.9377 0.7785
C14 C 0.9585(4) 0.91615(16) 0.6687(3)
H12 H 1.0150 0.9316 0.6269
C15 C 0.8230(4) 0.88888(16) 0.6372(2)
H13 H 0.7915 0.8855 0.5760
C16 C 0.7339(3) 0.86616(14) 0.7024(2)
C17 C 0.5213(4) 0.73851(16) 0.9518(3)
H14 H 0.4561 0.7275 0.9937
H15 H 0.6186 0.7271 0.9762
H16 H 0.4940 0.7161 0.8966
C18 C 0.6718(4) 1.04796(16) 0.9116(2)
H17 H 0.5999 1.0400 0.9476
C19 C 0.8166(4) 1.04992(15) 0.9496(2)
H18 H 0.8408 1.0424 1.0107
C20 C 0.9261(4) 1.06302(17) 0.8974(2)
H19 H 1.0223 1.0670 0.9235
C21 C 0.8874(3) 1.07006(15) 0.8048(2)
H20 H 0.9584 1.0775 0.7680
C22 C 0.7425(3) 1.06592(14) 0.7684(2)
C23 C 0.6896(3) 1.07154(15) 0.6713(2)
C24 C 0.7800(4) 1.07340(15) 0.6040(2)
H21 H 0.8806 1.0726 0.6179
C25 C 0.7125(4) 1.07659(15) 0.5140(2)
H22 H 0.7691 1.0777 0.4674
C26 C 0.5608(3) 1.07815(15) 0.4948(2)
H23 H 0.5152 1.0809 0.4359
C27 C 0.4807(3) 1.07545(14) 0.5661(2)
H24 H 0.3799 1.0763 0.5535
C28 C 0.4112(3) 0.97817(15) 0.7479(2)
C29 C 0.4577(3) 1.15873(16) 0.7713(2)
C30 C 0.2460(3) 1.08220(17) 0.6911(2)
C31 C 0.3416(3) 1.06715(14) 0.8637(2)
Fe1 Fe 0.43357(4) 1.06849(2) 0.75825(3)
Mn1 Mn 0.45645(5) 0.81629(2) 0.73549(3)
N1 N 0.3134(3) 0.79289(14) 0.81734(19)
N2 N 0.5816(3) 0.82530(15) 0.85370(18)
N3 N 0.6339(2) 1.05774(11) 0.82069(16)
N4 N 0.5407(3) 1.07169(11) 0.65290(16)
N5 N 0.4002(3) 0.92252(12) 0.74597(18)
N6 N 0.4794(3) 1.21366(12) 0.77459(17)
N7 N 0.1369(3) 1.09123(14) 0.64705(19)
N8 N 0.2884(3) 1.06701(13) 0.9297(2)
O1 O 0.3129(2) 0.80733(10) 0.63510(14)
O2 O 0.6069(2) 0.84113(10) 0.67292(14)
Mn1A Mn 0.54355(5) 1.31629(2) 0.76451(3)
N6A N 0.5206(3) 0.71366(12) 0.72541(17)
loop_
_geom_bond_atom_site_label_1
_geom_bond_atom_site_label_2
_geom_bond_site_symmetry_1
_geom_bond_site_symmetry_2
C1 C2 1_555 1_555
C2 H1 1_555 1_555
C3 C2 1_555 1_555
H2 C3 1_555 1_555
C4 C3 1_555 1_555
H3 C4 1_555 1_555
C5 C4 1_555 1_555
H4 C5 1_555 1_555
C6 C1 1_555 1_555
C7 C6 1_555 1_555
H5 C7 1_555 1_555
C8 H6 1_555 1_555
H7 C8 1_555 1_555
C9 C8 1_555 1_555
H8 C9 1_555 1_555
C10 H9 1_555 1_555
C11 C10 1_555 1_555
C12 C11 1_555 1_555
H10 C12 1_555 1_555
C13 C12 1_555 1_555
H11 C13 1_555 1_555
C14 C13 1_555 1_555
H12 C14 1_555 1_555
C15 C14 1_555 1_555
H13 C15 1_555 1_555
C16 C11 1_555 1_555
C17 C9 1_555 1_555
H14 C17 1_555 1_555
H15 C17 1_555 1_555
H16 C17 1_555 1_555
C18 H17 1_555 1_555
C19 C18 1_555 1_555
H18 C19 1_555 1_555
C20 C19 1_555 1_555
H19 C20 1_555 1_555
C21 C20 1_555 1_555
H20 C21 1_555 1_555
C22 C21 1_555 1_555
C23 C22 1_555 1_555
C24 C23 1_555 1_555
H21 C24 1_555 1_555
C25 C24 1_555 1_555
H22 C25 1_555 1_555
C26 C25 1_555 1_555
H23 C26 1_555 1_555
C27 C26 1_555 1_555
H24 C27 1_555 1_555
C28 Fe1 1_555 1_555
C29 Fe1 1_555 1_555
C30 Fe1 1_555 1_555
C31 Fe1 1_555 1_555
Fe1 N3 1_555 1_555
Mn1 N1 1_555 1_555
N1 C7 1_555 1_555
N2 C9 1_555 1_555
N3 C18 1_555 1_555
N4 C23 1_555 1_555
N5 C28 1_555 1_555
N6 C29 1_555 1_555
N7 C30 1_555 1_555
N8 C31 1_555 1_555
O1 C1 1_555 1_555
O2 C16 1_555 1_555
Mn1A N6 1_555 1_555
N6A Mn1 1_555 1_555
C5 C6 1_555 1_555
C8 N1 1_555 1_555
C10 N2 1_555 1_555
C15 C16 1_555 1_555
C22 N3 1_555 1_555
C27 N4 1_555 1_555
Fe1 N4 1_555 1_555
Mn1 N2 1_555 1_555
Mn1 N5 1_555 1_555
Mn1 O1 1_555 1_555
Mn1 O2 1_555 1_555

#END
