
#######################################################################
#
#                 Cambridge Crystallographic Data Centre
#                                CCDC 
#
#######################################################################
#
# If this CIF has been generated from an entry in the Cambridge 
# Structural Database, then it will include bibliographic, chemical, 
# crystal, experimental, refinement or atomic coordinate data resulting 
# from the CCDC's data processing and validation procedures.
#
#######################################################################

data_TUJNUI
_symmetry_cell_setting           monoclinic
_symmetry_space_group_name_H-M   'C 2/c'
_symmetry_Int_Tables_number      15
_space_group_name_Hall           '-C 2yn'
loop_
_symmetry_equiv_pos_site_id
_symmetry_equiv_pos_as_xyz
1 x,y,z
2 -x,y,1/2-z
3 1/2+x,1/2+y,z
4 1/2-x,1/2+y,1/2-z
5 -x,-y,-z
6 x,-y,1/2+z
7 1/2-x,1/2-y,-z
8 1/2+x,1/2-y,1/2+z
_cell_length_a                   27.802(2)
_cell_length_b                   10.6163(9)
_cell_length_c                   19.1589(16)
_cell_angle_alpha                90
_cell_angle_beta                 98.3180(10)
_cell_angle_gamma                90
_cell_volume                     5595.35
loop_
_atom_site_label
_atom_site_type_symbol
_atom_site_fract_x
_atom_site_fract_y
_atom_site_fract_z
Cd1 Cd 0.080641(8) 0.83141(2) 0.406024(10)
Fe1 Fe 0.319904(15) 0.78479(4) 0.17659(2)
O1 O 0.14698(8) 0.8008(2) 0.33543(11)
O2 O 0.07803(9) 0.8813(3) 0.28681(12)
O3 O 0.06189(9) 1.0690(3) 0.04429(12)
O4 O 0.12393(8) 1.0479(2) -0.01530(11)
O5 O 0.01495(10) 0.9774(3) 0.38892(14)
N1 N 0.10921(10) 0.6484(3) 0.46938(14)
N2 N 0.02374(10) 0.6720(3) 0.38041(14)
C1 C 0.15129(14) 0.6371(4) 0.51197(19)
H1 H 0.1723 0.7056 0.5172
C2 C 0.16503(15) 0.5278(4) 0.5487(2)
H2 H 0.1949 0.5236 0.5777
C3 C 0.13498(16) 0.4272(4) 0.5423(2)
H3 H 0.1440 0.3536 0.5672
C4 C 0.08980(14) 0.4340(3) 0.49778(18)
C5 C 0.07903(11) 0.5476(3) 0.46122(16)
C6 C 0.03343(11) 0.5594(3) 0.41397(16)
C7 C -0.01727(13) 0.6829(4) 0.33630(19)
H4 H -0.0239 0.7590 0.3129
C8 C -0.05088(14) 0.5860(5) 0.3234(2)
H5 H -0.0790 0.5970 0.2913
C9 C -0.04231(14) 0.4751(4) 0.3580(2)
H6 H -0.0649 0.4102 0.3506
C10 C 0.00093(13) 0.4584(3) 0.40542(19)
C11 C 0.01245(18) 0.3459(3) 0.4449(3)
H7 H -0.0098 0.2799 0.4410
C12 C 0.0553(2) 0.3334(3) 0.4881(2)
H8 H 0.0624 0.2578 0.5119
C13 C 0.12040(11) 0.8470(3) 0.28319(15)
C14 C 0.14032(10) 0.8660(3) 0.21472(14)
C15 C 0.11363(10) 0.9339(3) 0.16063(14)
H9 H 0.0833 0.9658 0.1665
C16 C 0.13180(10) 0.9548(3) 0.09771(13)
C17 C 0.10314(11) 1.0296(3) 0.03820(14)
C18 C 0.17691(10) 0.9048(3) 0.08925(13)
H10 H 0.1893 0.9196 0.0475
C19 C 0.20397(10) 0.8328(3) 0.14219(15)
C20 C 0.18517(10) 0.8155(3) 0.20543(15)
H11 H 0.2029 0.7696 0.2418
C21 C 0.24892(10) 0.7688(3) 0.12832(15)
C22 C 0.27996(11) 0.8057(3) 0.07872(16)
H12 H 0.2768 0.8786 0.0516
C23 C 0.31641(12) 0.7121(4) 0.07785(18)
H13 H 0.3415 0.7137 0.0506
C24 C 0.30793(13) 0.6170(4) 0.1253(2)
H14 H 0.3261 0.5436 0.1340
C25 C 0.26695(12) 0.6513(3) 0.1578(2)
H15 H 0.2542 0.6054 0.1922
C26 C 0.32596(18) 0.9157(8) 0.2534(4)
H16 H 0.3005 0.9637 0.2658
C27 C 0.35601(19) 0.9472(4) 0.2027(3)
H17 H 0.3539 1.0196 0.1751
C28 C 0.38870(14) 0.8517(4) 0.2018(2)
H18 H 0.4131 0.8489 0.1734
C29 C 0.38019(16) 0.7615(5) 0.2486(2)
H19 H 0.3976 0.6868 0.2569
C30 C 0.3418(2) 0.7980(7) 0.2818(2)
H20 H 0.3287 0.7534 0.3163
C31 C 0.0173(2) 1.0804(5) 0.3446(3)
H21 H 0.0467 1.1264 0.3594
H22 H -0.0102 1.1342 0.3467
H23 H 0.0170 1.0514 0.2970
H27 H -0.0044(17) 0.979(6) 0.420(2)
Cd1E Cd 0.080641(8) 1.16859(2) -0.093976(10)
O4E O 0.12393(8) 0.9521(2) 0.48470(11)
O6 O 0.24333(12) 0.7908(3) 0.3946(2)
C32 C 0.24915(18) 0.6614(4) 0.4002(3)
H24 H 0.2572 0.6387 0.4490
H25 H 0.2749 0.6354 0.3750
H26 H 0.2195 0.6206 0.3806
H28 H 0.2140(9) 0.811(5) 0.378(3)
loop_
_geom_bond_atom_site_label_1
_geom_bond_atom_site_label_2
_geom_bond_site_symmetry_1
_geom_bond_site_symmetry_2
Cd1 O1 1_555 1_555
Fe1 C21 1_555 1_555
O1 C13 1_555 1_555
O2 Cd1 1_555 1_555
O3 C17 1_555 1_555
O4 C17 1_555 1_555
O5 Cd1 1_555 1_555
O6 C32 1_555 1_555
N1 Cd1 1_555 1_555
N2 Cd1 1_555 1_555
C1 N1 1_555 1_555
H1 C1 1_555 1_555
C2 C1 1_555 1_555
H2 C2 1_555 1_555
C3 C2 1_555 1_555
H3 C3 1_555 1_555
C4 C3 1_555 1_555
C5 N1 1_555 1_555
C6 N2 1_555 1_555
C7 N2 1_555 1_555
H4 C7 1_555 1_555
C8 C7 1_555 1_555
H5 C8 1_555 1_555
C9 C8 1_555 1_555
H6 C9 1_555 1_555
C10 C6 1_555 1_555
C11 C10 1_555 1_555
H7 C11 1_555 1_555
C12 C4 1_555 1_555
H8 C12 1_555 1_555
C13 O2 1_555 1_555
C14 C13 1_555 1_555
C15 C14 1_555 1_555
H9 C15 1_555 1_555
C16 C15 1_555 1_555
C17 C16 1_555 1_555
C18 C16 1_555 1_555
H10 C18 1_555 1_555
C19 C18 1_555 1_555
C20 C14 1_555 1_555
H11 C20 1_555 1_555
C21 C19 1_555 1_555
C22 Fe1 1_555 1_555
H12 C22 1_555 1_555
C23 Fe1 1_555 1_555
H13 C23 1_555 1_555
C24 Fe1 1_555 1_555
H14 C24 1_555 1_555
C25 Fe1 1_555 1_555
H15 C25 1_555 1_555
C26 Fe1 1_555 1_555
H16 C26 1_555 1_555
C27 Fe1 1_555 1_555
H17 C27 1_555 1_555
C28 Fe1 1_555 1_555
H18 C28 1_555 1_555
C29 Fe1 1_555 1_555
H19 C29 1_555 1_555
C30 Fe1 1_555 1_555
H20 C30 1_555 1_555
C31 O5 1_555 1_555
H21 C31 1_555 1_555
H22 C31 1_555 1_555
H23 C31 1_555 1_555
C32 H24 1_555 1_555
H25 C32 1_555 1_555
H26 C32 1_555 1_555
H27 O5 1_555 1_555
H28 O6 1_555 1_555
Cd1E O4 1_555 1_555
O4E Cd1 1_555 1_555
C4 C5 1_555 1_555
C5 C6 1_555 1_555
C9 C10 1_555 1_555
C11 C12 1_555 1_555
C19 C20 1_555 1_555
C21 C22 1_555 1_555
C21 C25 1_555 1_555
C22 C23 1_555 1_555
C23 C24 1_555 1_555
C24 C25 1_555 1_555
C26 C27 1_555 1_555
C26 C30 1_555 1_555
C27 C28 1_555 1_555
C28 C29 1_555 1_555
C29 C30 1_555 1_555

#END
