
#######################################################################
#
#                 Cambridge Crystallographic Data Centre
#                                CCDC 
#
#######################################################################
#
# If this CIF has been generated from an entry in the Cambridge 
# Structural Database, then it will include bibliographic, chemical, 
# crystal, experimental, refinement or atomic coordinate data resulting 
# from the CCDC's data processing and validation procedures.
#
#######################################################################

data_TUJPAQ
_symmetry_cell_setting           triclinic
_symmetry_space_group_name_H-M   'P -1'
_symmetry_Int_Tables_number      2
_space_group_name_Hall           '-P 1'
loop_
_symmetry_equiv_pos_site_id
_symmetry_equiv_pos_as_xyz
1 x,y,z
2 -x,-y,-z
_cell_length_a                   9.773(2)
_cell_length_b                   10.050(2)
_cell_length_c                   14.307(3)
_cell_angle_alpha                94.62(3)
_cell_angle_beta                 102.66(3)
_cell_angle_gamma                93.05(3)
_cell_volume                     1362.96
loop_
_atom_site_label
_atom_site_type_symbol
_atom_site_fract_x
_atom_site_fract_y
_atom_site_fract_z
Fe1 Fe 0.19693(5) 0.23753(4) 0.38319(3)
Mn1 Mn -0.50917(5) 0.69386(4) 0.16617(3)
O1 O -0.5098(3) 0.4528(2) 0.13233(16)
C1 C 0.1899(5) 0.1961(5) 0.2400(3)
H1 H 0.1070 0.1782 0.1905
O2 O -0.3703(3) 0.5649(2) 0.25798(18)
C2 C 0.2602(5) 0.3230(5) 0.2739(3)
H2 H 0.2331 0.4060 0.2511
O3 O -0.3590(3) -0.1434(2) 0.24268(19)
C3 C 0.3785(5) 0.3046(5) 0.3482(4)
H3 H 0.4450 0.3729 0.3836
O4 O -0.5384(3) -0.0618(2) 0.15105(18)
C4 C 0.3794(4) 0.1673(5) 0.3598(3)
H4 H 0.4460 0.1262 0.4052
O5 O -0.4269(3) 0.7026(3) 0.03766(18)
C5 C 0.2649(5) 0.1016(4) 0.2927(3)
H5 H 0.2418 0.0078 0.2843
H6 H -0.400(5) 0.771(5) 0.030(3)
H7 H -0.444(5) 0.656(5) -0.006(3)
N1 N -0.7393(3) 0.6689(2) 0.08099(19)
C6 C 0.0757(4) 0.3649(4) 0.4421(3)
H9 H 0.0561 0.4521 0.4242
C7 C 0.1904(4) 0.3338(5) 0.5141(3)
H10 H 0.2600 0.3966 0.5530
C8 C 0.1842(4) 0.1942(5) 0.5186(3)
H11 H 0.2485 0.1467 0.5610
C9 C 0.0643(4) 0.1369(4) 0.4483(2)
H12 H 0.0357 0.0442 0.4351
C10 C -0.0062(3) 0.2439(3) 0.4005(2)
C11 C -0.1425(3) 0.2302(3) 0.3300(2)
C12 C -0.2132(3) 0.1044(3) 0.2973(2)
H13 H -0.1695 0.0261 0.3175
C13 C -0.3463(3) 0.0918(3) 0.2359(2)
C14 C -0.4104(3) 0.2055(3) 0.2046(2)
H14 H -0.5002 0.1968 0.1617
C15 C -0.2101(3) 0.3438(3) 0.2988(2)
H15 H -0.1647 0.4302 0.3206
C16 C -0.3432(3) 0.3322(3) 0.2361(2)
N2 N -0.6496(3) 0.7051(3) 0.27568(19)
C17 C -0.4124(3) 0.4572(3) 0.2073(2)
C18 C -0.6061(4) 0.7193(4) 0.3706(3)
H16 H -0.5081 0.7206 0.3976
C19 C -0.6976(5) 0.7326(5) 0.4330(3)
H17 H -0.6619 0.7422 0.5007
C20 C -0.8386(4) 0.7315(4) 0.3955(3)
H18 H -0.9018 0.7401 0.4372
C21 C -0.8901(4) 0.7175(3) 0.2954(3)
C22 C -0.7908(3) 0.7027(3) 0.2377(2)
C23 C -1.0367(4) 0.7144(4) 0.2503(3)
H19 H -1.1038 0.7231 0.2890
C24 C -1.0803(4) 0.6994(4) 0.1537(3)
H20 H -1.1779 0.6989 0.1256
C25 C -0.9831(3) 0.6842(3) 0.0921(3)
C26 C -0.8374(3) 0.6860(3) 0.1343(2)
C27 C -1.0234(4) 0.6659(4) -0.0096(3)
H21 H -1.1197 0.6652 -0.0413
C28 C -0.9237(4) 0.6491(4) -0.0620(3)
H22 H -0.9497 0.6369 -0.1303
C29 C -0.7820(4) 0.6501(4) -0.0138(2)
H23 H -0.7135 0.6366 -0.0510
C30 C -0.4195(3) -0.0467(3) 0.2077(2)
Mn1_2 Mn -0.50917(5) -0.30614(4) 0.16617(3)
O3_2 O -0.3590(3) 0.8566(2) 0.24268(19)
O6 O -0.3175(4) 0.9315(4) -0.0095(3)
H8 H -0.3695 0.9796 -0.0452
C31 C -0.1904(5) 0.9940(5) 0.0214(4)
H24 H -0.1633 1.0373 -0.0314
H25 H -0.1224 0.9289 0.0441
H26 H -0.1919 1.0617 0.0744
loop_
_geom_bond_atom_site_label_1
_geom_bond_atom_site_label_2
_geom_bond_site_symmetry_1
_geom_bond_site_symmetry_2
Fe1 C1 1_555 1_555
Mn1 O1 1_555 1_555
O1 C17 1_555 1_555
C1 H1 1_555 1_555
O2 Mn1 1_555 1_555
C2 Fe1 1_555 1_555
H2 C2 1_555 1_555
O3 C30 1_555 1_555
C3 Fe1 1_555 1_555
H3 C3 1_555 1_555
O4 C30 1_555 1_555
C4 Fe1 1_555 1_555
H4 C4 1_555 1_555
O5 Mn1 1_555 1_555
C5 Fe1 1_555 1_555
H5 C5 1_555 1_555
H6 O5 1_555 1_555
H7 O5 1_555 1_555
O6 H8 1_555 1_555
N1 Mn1 1_555 1_555
C6 Fe1 1_555 1_555
H9 C6 1_555 1_555
C7 Fe1 1_555 1_555
H10 C7 1_555 1_555
C8 Fe1 1_555 1_555
H11 C8 1_555 1_555
C9 Fe1 1_555 1_555
H12 C9 1_555 1_555
C10 Fe1 1_555 1_555
C11 C10 1_555 1_555
C12 C11 1_555 1_555
H13 C12 1_555 1_555
C13 C12 1_555 1_555
C14 C13 1_555 1_555
H14 C14 1_555 1_555
C15 C11 1_555 1_555
H15 C15 1_555 1_555
C16 C14 1_555 1_555
N2 Mn1 1_555 1_555
C17 O2 1_555 1_555
C18 N2 1_555 1_555
H16 C18 1_555 1_555
C19 C18 1_555 1_555
H17 C19 1_555 1_555
C20 C19 1_555 1_555
H18 C20 1_555 1_555
C21 C20 1_555 1_555
C22 N2 1_555 1_555
C23 C21 1_555 1_555
H19 C23 1_555 1_555
C24 C23 1_555 1_555
H20 C24 1_555 1_555
C25 C24 1_555 1_555
C26 N1 1_555 1_555
C27 C25 1_555 1_555
H21 C27 1_555 1_555
C28 C27 1_555 1_555
H22 C28 1_555 1_555
C29 N1 1_555 1_555
H23 C29 1_555 1_555
C30 C13 1_555 1_555
C31 O6 1_555 1_555
H24 C31 1_555 1_555
H25 C31 1_555 1_555
H26 C31 1_555 1_555
Mn1_2 O3 1_555 1_555
O3_2 Mn1 1_555 1_555
C1 C2 1_555 1_555
C1 C5 1_555 1_555
C2 C3 1_555 1_555
C3 C4 1_555 1_555
C4 C5 1_555 1_555
C6 C7 1_555 1_555
C6 C10 1_555 1_555
C7 C8 1_555 1_555
C8 C9 1_555 1_555
C9 C10 1_555 1_555
C15 C16 1_555 1_555
C16 C17 1_555 1_555
C21 C22 1_555 1_555
C22 C26 1_555 1_555
C25 C26 1_555 1_555
C28 C29 1_555 1_555

#END
