
#######################################################################
#
#                 Cambridge Crystallographic Data Centre
#                                CCDC 
#
#######################################################################
#
# If this CIF has been generated from an entry in the Cambridge 
# Structural Database, then it will include bibliographic, chemical, 
# crystal, experimental, refinement or atomic coordinate data resulting 
# from the CCDC's data processing and validation procedures.
#
#######################################################################

data_TUJRAT
_symmetry_cell_setting           monoclinic
_symmetry_space_group_name_H-M   'C c'
_symmetry_Int_Tables_number      9
_space_group_name_Hall           'C -2yc'
loop_
_symmetry_equiv_pos_site_id
_symmetry_equiv_pos_as_xyz
1 x,y,z
2 x,-y,1/2+z
3 1/2+x,1/2+y,z
4 1/2+x,1/2-y,1/2+z
_cell_length_a                   9.1101(6)
_cell_length_b                   20.0087(12)
_cell_length_c                   7.1231(4)
_cell_angle_alpha                90
_cell_angle_beta                 110.491(2)
_cell_angle_gamma                90
_cell_volume                     1216.25
loop_
_atom_site_label
_atom_site_type_symbol
_atom_site_fract_x
_atom_site_fract_y
_atom_site_fract_z
Cu1 Cu 0.99673(5) 0.95231(2) 0.74601(5)
Cl1 Cl 1.12820(11) 0.85482(5) 0.80882(16)
Cl2 Cl 1.15771(10) 1.00184(5) 1.04309(13)
N1 N 0.8565(4) 1.03282(16) 0.6685(5)
C1 C 0.9078(5) 1.0962(2) 0.6952(6)
H1 H 1.0170 1.1044 0.7567
C2 C 0.8073(5) 1.14974(19) 0.6364(6)
H2 H 0.8479 1.1940 0.6576
C3 C 0.6467(5) 1.13963(18) 0.5460(6)
C4 C 0.5357(5) 1.19727(19) 0.4831(7)
H3 H 0.4287 1.1817 0.4592
H4 H 0.5414 1.2168 0.3597
H5 H 0.5642 1.2311 0.5892
C5 C 0.5941(5) 1.07339(18) 0.5156(6)
H6 H 0.4856 1.0641 0.4530
C6 C 0.7009(4) 1.02135(18) 0.5771(5)
C7 C 0.6593(4) 0.94980(17) 0.5520(5)
C8 C 0.5058(4) 0.9266(2) 0.4740(6)
H7 H 0.4208 0.9573 0.4344
C9 C 0.4773(5) 0.85789(19) 0.4542(6)
C10 C 0.3132(5) 0.8319(2) 0.3748(7)
H8 H 0.2582 0.8514 0.2425
H9 H 0.2588 0.8441 0.4666
H10 H 0.3151 0.7832 0.3630
C11 C 0.6064(5) 0.81541(19) 0.5120(6)
H11 H 0.5919 0.7684 0.4982
C12 C 0.7558(5) 0.84178(19) 0.5896(6)
H12 H 0.8425 0.8120 0.6290
N2 N 0.7834(3) 0.90766(15) 0.6114(5)
Cu1A Cu 0.99673(5) 1.04769(2) 1.24601(5)
Cl2A Cl 1.15771(10) 0.99816(5) 0.54309(13)
loop_
_geom_bond_atom_site_label_1
_geom_bond_atom_site_label_2
_geom_bond_site_symmetry_1
_geom_bond_site_symmetry_2
Cu1 Cl1 1_555 1_555
Cl2 Cu1 1_555 1_555
N1 Cu1 1_555 1_555
C1 N1 1_555 1_555
H1 C1 1_555 1_555
C2 C1 1_555 1_555
H2 C2 1_555 1_555
C3 C2 1_555 1_555
C4 C3 1_555 1_555
H3 C4 1_555 1_555
H4 C4 1_555 1_555
H5 C4 1_555 1_555
C5 C3 1_555 1_555
H6 C5 1_555 1_555
C6 N1 1_555 1_555
C7 C6 1_555 1_555
C8 C7 1_555 1_555
H7 C8 1_555 1_555
C9 C8 1_555 1_555
C10 C9 1_555 1_555
H8 C10 1_555 1_555
H9 C10 1_555 1_555
H10 C10 1_555 1_555
C11 C9 1_555 1_555
H11 C11 1_555 1_555
C12 C11 1_555 1_555
H12 C12 1_555 1_555
N2 Cu1 1_555 1_555
Cu1A Cl2 1_555 1_555
Cl2A Cu1 1_555 1_555
C5 C6 1_555 1_555
C7 N2 1_555 1_555
C12 N2 1_555 1_555

#END
