
#######################################################################
#
#                 Cambridge Crystallographic Data Centre
#                                CCDC 
#
#######################################################################
#
# If this CIF has been generated from an entry in the Cambridge 
# Structural Database, then it will include bibliographic, chemical, 
# crystal, experimental, refinement or atomic coordinate data resulting 
# from the CCDC's data processing and validation procedures.
#
#######################################################################

data_TUJVAW
_symmetry_cell_setting           triclinic
_symmetry_space_group_name_H-M   'P -1'
_symmetry_Int_Tables_number      2
_space_group_name_Hall           '-P 1'
loop_
_symmetry_equiv_pos_site_id
_symmetry_equiv_pos_as_xyz
1 x,y,z
2 -x,-y,-z
_cell_length_a                   14.1739(13)
_cell_length_b                   14.922(2)
_cell_length_c                   15.0305(18)
_cell_angle_alpha                111.528(5)
_cell_angle_beta                 98.9720(10)
_cell_angle_gamma                99.448(3)
_cell_volume                     2834.99
loop_
_atom_site_label
_atom_site_type_symbol
_atom_site_fract_x
_atom_site_fract_y
_atom_site_fract_z
Cu1 Cu 0.17552(4) -0.18390(4) -0.18125(3)
Cu2 Cu 0.02435(4) -0.37018(4) -0.17131(4)
Cu3 Cu 0.22725(4) -0.48845(4) -0.17438(4)
Cu4 Cu 0.39677(4) -0.27880(4) -0.18843(4)
S1 S 0.21617(7) -0.02355(7) -0.04941(7)
S2 S -0.03908(8) -0.31893(8) -0.01194(8)
S3 S 0.26151(8) -0.51858(7) -0.03095(8)
S4 S 0.52195(7) -0.20682(8) -0.04063(8)
S5 S 0.02106(9) 0.06758(8) 0.24904(8)
S6 S 0.10990(11) -0.40633(10) 0.29392(8)
S7 S 0.61457(10) -0.34700(8) 0.24074(8)
S8 S 0.50893(8) 0.11666(8) 0.28380(7)
S9 S 0.19114(8) -0.39088(7) -0.32868(7)
O1 O 0.1110(2) -0.2270(2) -0.0949(2)
O2 O 0.1150(3) 0.1148(3) 0.3178(3)
O3 O -0.0189(2) 0.1377(2) 0.2174(2)
O4 O -0.0471(4) 0.0134(3) 0.2829(3)
O5 O 0.1136(2) -0.4215(2) -0.1039(2)
O6 O 0.0774(6) -0.3197(3) 0.3482(4)
O7 O 0.2026(4) -0.4115(8) 0.3366(4)
O8 O 0.0344(3) -0.4937(2) 0.2752(2)
O9 O 0.3324(2) -0.3678(2) -0.1049(2)
O10 O 0.5680(4) -0.3104(4) 0.3210(3)
O11 O 0.6282(2) -0.4464(2) 0.2218(2)
O12 O 0.7056(3) -0.2792(3) 0.2504(3)
O13 O 0.3354(2) -0.1728(2) -0.1265(2)
O14 O 0.4428(3) 0.0999(3) 0.3431(2)
O15 O 0.6056(2) 0.1015(3) 0.3125(2)
O16 O 0.5128(2) 0.2122(2) 0.2767(2)
O17 O 0.1348(2) -0.3296(2) -0.2655(2)
O18 O 0.2905(2) -0.3287(2) -0.3111(2)
O19 O 0.1992(2) -0.4751(2) -0.3015(2)
O20 O 0.1412(3) -0.4269(2) -0.4315(2)
O21 O 0.2114(2) -0.1419(2) -0.2813(2)
H1 H 0.1772 -0.1192 -0.3158
H2 H 0.2657 -0.1377 -0.2987
O22 O -0.0695(3) -0.3209(3) -0.2392(3)
H3 H -0.068 -0.266 -0.2446
H4 H -0.1218 -0.3631 -0.2773
O23 O 0.1416(3) -0.6239(2) -0.2440(3)
H5 H 0.0941 -0.6626 -0.2921
H6 H 0.1805 -0.6564 -0.2287
O24 O 0.4573(3) -0.3897(3) -0.2458(3)
H7 H 0.4919 -0.4038 -0.2881
H8 H 0.4478 -0.437 -0.2269
C1 C 0.0870(3) -0.1617(3) -0.0206(3)
C2 C 0.1307(3) -0.0592(3) 0.0134(3)
C3 C 0.1087(3) 0.0106(3) 0.0937(3)
H9 H 0.1379 0.0777 0.1149
C4 C 0.0428(3) -0.0210(3) 0.1419(3)
C5 C -0.0017(3) -0.1208(3) 0.1100(3)
H10 H -0.0462 -0.1409 0.1424
C6 C 0.0197(3) -0.1913(3) 0.0299(3)
C7 C 0.1152(3) -0.4136(3) -0.0143(3)
C8 C 0.0512(3) -0.3661(3) 0.0421(3)
C9 C 0.0518(4) -0.3626(3) 0.1353(3)
H11 H 0.0085 -0.3325 0.1697
C10 C 0.1172(4) -0.4040(4) 0.1778(3)
C11 C 0.1816(4) -0.4497(3) 0.1270(3)
H12 H 0.2249 -0.4776 0.1555
C12 C 0.1813(3) -0.4535(3) 0.0333(3)
C13 C 0.3965(3) -0.3646(3) -0.0297(3)
C14 C 0.3765(3) -0.4298(3) 0.0173(3)
C15 C 0.4432(3) -0.4265(3) 0.0974(3)
H13 H 0.4278 -0.4706 0.1264
C16 C 0.5327(3) -0.3569(3) 0.1338(3)
C17 C 0.5553(3) -0.2924(3) 0.0898(3)
H14 H 0.6158 -0.2464 0.114
C18 C 0.4887(3) -0.2952(3) 0.0096(3)
C19 C 0.3737(3) -0.1101(3) -0.0345(3)
C20 C 0.4635(3) -0.1130(3) 0.0202(3)
C21 C 0.5046(3) -0.0457(3) 0.1156(3)
H15 H 0.564 -0.0489 0.1491
C22 C 0.4578(3) 0.0267(3) 0.1619(3)
C23 C 0.3696(3) 0.0321(3) 0.1107(3)
H16 H 0.3385 0.0812 0.1412
C24 C 0.3281(3) -0.0348(3) 0.0152(3)
Cu2A Cu -0.02435(4) -0.62982(4) 0.17131(4)
Cu4A Cu 0.60323(4) 0.27880(4) 0.18843(4)
O8A O -0.0344(3) -0.5063(2) -0.2752(2)
O16A O 0.4872(2) -0.2122(2) -0.2767(2)
O25 O 0.7029(6) -0.2167(7) -0.3189(9)
O26 O 0.9180(5) 0.2503(6) 0.4546(4)
O27 O 0.9324(7) 0.6114(5) 0.5645(5)
O28 O 0.3421(7) 0.6598(11) 0.5093(5)
O30 O 0.5408(9) 0.4306(9) 0.5236(9)
O31 O 1.0046(12) 0.0835(12) -0.4124(12)
O32 O 0.6192(14) 0.4452(14) -0.3195(14)
O33 O 0.3503(19) 0.3563(19) 0.2367(19)
O34 O 1.1933(16) 0.4272(16) 0.4147(16)
O35 O 0.4425(19) 0.296(2) 0.4942(19)
O36 O 0.412(2) 0.495(2) 0.5416(19)
O37 O 0.9093(19) 0.763(2) 0.4447(19)
O38 O 0.7429(18) 0.6474(18) 0.4722(18)
N1 N 0.7140(3) -0.0181(3) -0.5325(3)
C25 C 0.6725(5) 0.1934(4) -0.1918(4)
H17 H 0.6536 0.2148 -0.1323
C26 C 0.7493(5) 0.1495(5) -0.2016(4)
H18 H 0.7835 0.1415 -0.1481
C27 C 0.6231(5) 0.2055(5) -0.2712(5)
H19 H 0.5719 0.2373 -0.2646
C28 C 0.7771(4) 0.1167(4) -0.2896(4)
H20 H 0.8304 0.0876 -0.2948
C29 C 0.6482(4) 0.1716(4) -0.3599(4)
H21 H 0.6127 0.1787 -0.4134
C30 C 0.7263(4) 0.1267(3) -0.3703(3)
C31 C 0.7554(4) 0.0923(4) -0.4672(4)
H22 H 0.8267 0.1065 -0.4544
H23 H 0.7336 0.1305 -0.503
C32 C 0.7525(6) -0.0811(5) -0.4845(5)
H24 H 0.7273 -0.0728 -0.427
H25 H 0.823 -0.0613 -0.4659
H26 H 0.7317 -0.1495 -0.5298
C33 C 0.7471(5) -0.0374(5) -0.6261(4)
H27 H 0.7262 -0.107 -0.6675
H28 H 0.8176 -0.0167 -0.6114
H29 H 0.7189 -0.0008 -0.6596
C34 C 0.6051(4) -0.0443(5) -0.5549(5)
H30 H 0.5802 -0.0019 -0.5828
H31 H 0.5837 -0.0358 -0.4954
H32 H 0.5807 -0.1122 -0.601
O29? O 0.50000 0.50000 0.50000
O39? O 0.863(2) 0.713(2) 0.477(2)
O40? O 0.4034(7) 0.5907(7) 0.5448(7)
loop_
_geom_bond_atom_site_label_1
_geom_bond_atom_site_label_2
_geom_bond_site_symmetry_1
_geom_bond_site_symmetry_2
Cu1 S1 1_555 1_555
Cu2 S2 1_555 1_555
Cu3 S3 1_555 1_555
Cu4 S4 1_555 1_555
S1 C2 1_555 1_555
S2 C6 1_555 1_555
S3 C12 1_555 1_555
S4 C18 1_555 1_555
S5 O2 1_555 1_555
S6 O6 1_555 1_555
S7 O10 1_555 1_555
S8 O14 1_555 1_555
S9 O17 1_555 1_555
O1 Cu1 1_555 1_555
O3 S5 1_555 1_555
O4 S5 1_555 1_555
O5 Cu2 1_555 1_555
O7 S6 1_555 1_555
O8 S6 1_555 1_555
O9 Cu3 1_555 1_555
O11 S7 1_555 1_555
O12 S7 1_555 1_555
O13 Cu1 1_555 1_555
O15 S8 1_555 1_555
O16 S8 1_555 1_555
O17 Cu1 1_555 1_555
O18 Cu4 1_555 1_555
O19 Cu3 1_555 1_555
O20 S9 1_555 1_555
O21 Cu1 1_555 1_555
H1 O21 1_555 1_555
H2 O21 1_555 1_555
O22 Cu2 1_555 1_555
H3 O22 1_555 1_555
H4 O22 1_555 1_555
O23 Cu3 1_555 1_555
H5 O23 1_555 1_555
H6 O23 1_555 1_555
O24 Cu4 1_555 1_555
H7 O24 1_555 1_555
H8 O24 1_555 1_555
N1 C31 1_555 1_555
C1 O1 1_555 1_555
C2 C1 1_555 1_555
C3 C2 1_555 1_555
H9 C3 1_555 1_555
C4 S5 1_555 1_555
C5 C4 1_555 1_555
H10 C5 1_555 1_555
C6 C1 1_555 1_555
C7 O5 1_555 1_555
C8 S2 1_555 1_555
C9 C8 1_555 1_555
H11 C9 1_555 1_555
C10 S6 1_555 1_555
C11 C10 1_555 1_555
H12 C11 1_555 1_555
C12 C7 1_555 1_555
C13 O9 1_555 1_555
C14 S3 1_555 1_555
C15 C14 1_555 1_555
H13 C15 1_555 1_555
C16 S7 1_555 1_555
C17 C16 1_555 1_555
H14 C17 1_555 1_555
C18 C13 1_555 1_555
C19 O13 1_555 1_555
C20 S4 1_555 1_555
C21 C20 1_555 1_555
H15 C21 1_555 1_555
C22 S8 1_555 1_555
C23 C22 1_555 1_555
H16 C23 1_555 1_555
C24 S1 1_555 1_555
C25 H17 1_555 1_555
C26 C25 1_555 1_555
H18 C26 1_555 1_555
C27 C25 1_555 1_555
H19 C27 1_555 1_555
C28 C26 1_555 1_555
H20 C28 1_555 1_555
C29 C27 1_555 1_555
H21 C29 1_555 1_555
C30 C28 1_555 1_555
C31 C30 1_555 1_555
H22 C31 1_555 1_555
H23 C31 1_555 1_555
C32 N1 1_555 1_555
H24 C32 1_555 1_555
H25 C32 1_555 1_555
H26 C32 1_555 1_555
C33 N1 1_555 1_555
H27 C33 1_555 1_555
H28 C33 1_555 1_555
H29 C33 1_555 1_555
C34 N1 1_555 1_555
H30 C34 1_555 1_555
H31 C34 1_555 1_555
H32 C34 1_555 1_555
Cu2A O8 1_555 1_555
Cu4A O16 1_555 1_555
O8A Cu2 1_555 1_555
O16A Cu4 1_555 1_555
Cu2 O1 1_555 1_555
Cu3 O5 1_555 1_555
Cu4 O9 1_555 1_555
Cu4 O13 1_555 1_555
S9 O18 1_555 1_555
S9 O19 1_555 1_555
C3 C4 1_555 1_555
C5 C6 1_555 1_555
C7 C8 1_555 1_555
C9 C10 1_555 1_555
C11 C12 1_555 1_555
C13 C14 1_555 1_555
C15 C16 1_555 1_555
C17 C18 1_555 1_555
C19 C20 1_555 1_555
C19 C24 1_555 1_555
C21 C22 1_555 1_555
C23 C24 1_555 1_555
C29 C30 1_555 1_555

#END
