
#######################################################################
#
#                 Cambridge Crystallographic Data Centre
#                                CCDC 
#
#######################################################################
#
# If this CIF has been generated from an entry in the Cambridge 
# Structural Database, then it will include bibliographic, chemical, 
# crystal, experimental, refinement or atomic coordinate data resulting 
# from the CCDC's data processing and validation procedures.
#
#######################################################################

data_TUJYAA
_symmetry_cell_setting           triclinic
_symmetry_space_group_name_H-M   'P -1'
_symmetry_Int_Tables_number      2
_space_group_name_Hall           '-P 1'
loop_
_symmetry_equiv_pos_site_id
_symmetry_equiv_pos_as_xyz
1 x,y,z
2 -x,-y,-z
_cell_length_a                   9.904(2)
_cell_length_b                   10.165(2)
_cell_length_c                   12.286(3)
_cell_angle_alpha                77.470(3)
_cell_angle_beta                 68.167(3)
_cell_angle_gamma                85.302(3)
_cell_volume                     1120.82
loop_
_atom_site_label
_atom_site_type_symbol
_atom_site_fract_x
_atom_site_fract_y
_atom_site_fract_z
Mn1 Mn 1.41206(5) 0.27301(4) 1.48462(3)
O1 O 1.3824(2) 0.0772(2) 1.45010(17)
H1 H 1.433(3) 0.032(3) 1.396(2)
O2 O 0.6112(2) 0.2858(2) 2.33957(17)
O3 O 0.7886(2) 0.4324(2) 2.29086(17)
O4 O 1.3156(2) 0.4694(2) 1.51941(17)
H2 H 1.297(3) 0.505(3) 1.583(2)
O5 O 1.5006(2) 0.0406(2) 0.72775(17)
O6 O 1.4991(2) 0.2464(2) 0.61855(16)
N1 N 1.2036(3) 0.1738(2) 1.63213(19)
N2 N 1.3161(3) 0.3674(2) 1.34252(19)
C1 C 1.2498(4) 0.0073(3) 1.5084(3)
H3 H 1.2687 -0.0906 1.5275
H4 H 1.1932 0.0223 1.4552
C2 C 1.1643(3) 0.0562(3) 1.6218(2)
C3 C 1.0513(3) -0.0183(3) 1.7112(3)
H5 H 1.0226 -0.1001 1.7006
C4 C 0.9805(3) 0.0267(3) 1.8160(2)
H6 H 0.9042 -0.0252 1.8790
C5 C 1.0206(3) 0.1485(3) 1.8299(2)
C6 C 1.1321(3) 0.2183(3) 1.7339(2)
H7 H 1.1599 0.3027 1.7404
C7 C 0.9487(3) 0.1992(3) 1.9422(2)
C8 C 0.8089(3) 0.1578(3) 2.0177(3)
H8 H 0.7593 0.0983 1.9954
C9 C 0.7403(3) 0.2008(3) 2.1238(2)
H9 H 0.6455 0.1688 2.1745
C10 C 0.8078(3) 0.2900(3) 2.1573(2)
C11 C 0.9462(3) 0.3332(3) 2.0822(2)
H10 H 0.9937 0.3957 2.1033
C12 C 1.0171(3) 0.2876(3) 1.9769(2)
H11 H 1.1133 0.3169 1.9279
C13 C 0.7311(3) 0.3403(3) 2.2719(2)
C14 C 1.2252(4) 0.5389(3) 1.4590(3)
H12 H 1.2481 0.6363 1.4363
H13 H 1.1220 0.5275 1.5130
C15 C 1.2484(3) 0.4852(3) 1.3489(2)
C16 C 1.2042(3) 0.5548(3) 1.2582(3)
H14 H 1.1526 0.6374 1.2659
C17 C 1.2353(3) 0.5039(3) 1.1564(3)
H15 H 1.2052 0.5512 1.0936
C18 C 1.3110(3) 0.3827(3) 1.1457(2)
C19 C 1.3462(3) 0.3181(3) 1.2435(2)
H16 H 1.3947 0.2336 1.2399
C20 C 1.3567(3) 0.3267(3) 1.0360(2)
C21 C 1.3842(3) 0.4122(3) 0.9246(2)
H17 H 1.3740 0.5068 0.9197
C22 C 1.4261(3) 0.3610(3) 0.8212(2)
H18 H 1.4436 0.4207 0.7462
C23 C 1.4426(3) 0.2237(3) 0.8261(2)
C24 C 1.4175(3) 0.1390(3) 0.9367(2)
H19 H 1.4300 0.0445 0.9412
C25 C 1.3746(3) 0.1894(3) 1.0400(2)
H20 H 1.3572 0.1293 1.1148
C26 C 1.4842(3) 0.1648(3) 0.7157(2)
Mn1_2 Mn 0.41206(5) 0.27301(4) 2.48462(3)
Mn1_3 Mn 1.41206(5) 0.27301(4) 0.48462(3)
O2_2 O 1.6112(2) 0.2858(2) 1.33957(17)
O6_2 O 1.4991(2) 0.2464(2) 1.61855(16)
loop_
_geom_bond_atom_site_label_1
_geom_bond_atom_site_label_2
_geom_bond_site_symmetry_1
_geom_bond_site_symmetry_2
Mn1 O1 1_555 1_555
O1 H1 1_555 1_555
O2 C13 1_555 1_555
O3 C13 1_555 1_555
O4 Mn1 1_555 1_555
H2 O4 1_555 1_555
O5 C26 1_555 1_555
O6 C26 1_555 1_555
N1 Mn1 1_555 1_555
N2 Mn1 1_555 1_555
C1 O1 1_555 1_555
H3 C1 1_555 1_555
H4 C1 1_555 1_555
C2 N1 1_555 1_555
C3 C2 1_555 1_555
H5 C3 1_555 1_555
C4 C3 1_555 1_555
H6 C4 1_555 1_555
C5 C4 1_555 1_555
C6 N1 1_555 1_555
H7 C6 1_555 1_555
C7 C5 1_555 1_555
C8 C7 1_555 1_555
H8 C8 1_555 1_555
C9 C8 1_555 1_555
H9 C9 1_555 1_555
C10 C9 1_555 1_555
C11 C10 1_555 1_555
H10 C11 1_555 1_555
C12 C7 1_555 1_555
H11 C12 1_555 1_555
C13 C10 1_555 1_555
C14 O4 1_555 1_555
H12 C14 1_555 1_555
H13 C14 1_555 1_555
C15 N2 1_555 1_555
C16 C15 1_555 1_555
H14 C16 1_555 1_555
C17 C16 1_555 1_555
H15 C17 1_555 1_555
C18 C17 1_555 1_555
C19 N2 1_555 1_555
H16 C19 1_555 1_555
C20 C18 1_555 1_555
C21 C20 1_555 1_555
H17 C21 1_555 1_555
C22 C21 1_555 1_555
H18 C22 1_555 1_555
C23 C22 1_555 1_555
C24 C23 1_555 1_555
H19 C24 1_555 1_555
C25 C20 1_555 1_555
H20 C25 1_555 1_555
C26 C23 1_555 1_555
Mn1_2 O2 1_555 1_555
Mn1_3 O6 1_555 1_555
O2_2 Mn1 1_555 1_555
O6_2 Mn1 1_555 1_555
C1 C2 1_555 1_555
C5 C6 1_555 1_555
C11 C12 1_555 1_555
C14 C15 1_555 1_555
C18 C19 1_555 1_555
C24 C25 1_555 1_555

#END
