
#######################################################################
#
#                 Cambridge Crystallographic Data Centre
#                                CCDC 
#
#######################################################################
#
# If this CIF has been generated from an entry in the Cambridge 
# Structural Database, then it will include bibliographic, chemical, 
# crystal, experimental, refinement or atomic coordinate data resulting 
# from the CCDC's data processing and validation procedures.
#
#######################################################################

data_TUKCOT
_symmetry_cell_setting           tetragonal
_symmetry_space_group_name_H-M   'P 41'
_symmetry_Int_Tables_number      76
_space_group_name_Hall           'P 4w'
loop_
_symmetry_equiv_pos_site_id
_symmetry_equiv_pos_as_xyz
1 x,y,z
2 -x,-y,1/2+z
3 -y,x,1/4+z
4 y,-x,3/4+z
_cell_length_a                   9.042(3)
_cell_length_b                   9.042(3)
_cell_length_c                   27.231(19)
_cell_angle_alpha                90
_cell_angle_beta                 90
_cell_angle_gamma                90
_cell_volume                     2226.35
loop_
_atom_site_label
_atom_site_type_symbol
_atom_site_fract_x
_atom_site_fract_y
_atom_site_fract_z
Cd1 Cd 0.18552(2) 0.38249(2) 0.199675(10)
C1 C 0.4883(4) -0.2025(3) 0.30977(12)
H1 H 0.4166 -0.1750 0.3325
C2 C 0.5299(4) -0.1083(3) 0.27268(13)
C3 C 0.6380(4) -0.1435(4) 0.23874(13)
H2 H 0.6637 -0.0776 0.2139
C4 C 0.7070(4) -0.2800(4) 0.24278(12)
C5 C 0.6652(4) -0.3809(3) 0.27910(12)
H3 H 0.7096 -0.4735 0.2809
C6 C 0.5566(3) -0.3406(3) 0.31237(12)
C7 C 0.3868(4) 0.0919(4) 0.23068(14)
H4 H 0.3785 0.0468 0.2001
C8 C 0.3656(4) 0.2460(4) 0.29024(14)
H5 H 0.3385 0.3290 0.3083
C9 C 0.4467(4) 0.1310(4) 0.30748(13)
H6 H 0.4861 0.1205 0.3388
C10 C 0.8780(3) -0.4513(3) 0.20016(15)
H7 H 0.8365 -0.5391 0.2114
C11 C 1.0196(4) -0.2963(4) 0.16429(15)
H8 H 1.0967 -0.2572 0.1458
C12 C 0.9148(4) -0.2160(4) 0.18694(14)
H9 H 0.9053 -0.1136 0.1868
C13 C 0.5972(4) -0.5551(3) 0.36811(13)
H10 H 0.6921 -0.5786 0.3575
C14 C 0.3831(4) -0.4422(4) 0.37602(13)
H11 H 0.3045 -0.3768 0.3723
C15 C 0.3914(4) -0.5574(4) 0.40782(13)
H12 H 0.3179 -0.5847 0.4299
C16 C 0.1341(4) 0.5817(5) 0.27810(15)
C17 C 0.0608(4) 0.6964(4) 0.31064(14)
C18 C 0.0745(4) 0.8453(5) 0.29981(14)
H13 H 0.1369 0.8751 0.2745
C19 C -0.0037(5) 0.9506(4) 0.32623(16)
H14 H 0.0043 1.0501 0.3180
C20 C -0.0941(4) 0.9074(4) 0.36496(13)
C21 C -0.1045(4) 0.7588(4) 0.37728(13)
H15 H -0.1614 0.7297 0.4040
C22 C -0.0296(4) 0.6530(4) 0.34951(15)
C23 C -0.1818(4) 1.0200(4) 0.39366(15)
N1 N 0.3299(3) 0.2207(3) 0.24207(11)
N2 N 0.4586(3) 0.0342(3) 0.26942(10)
N3 N 0.9966(3) -0.4435(3) 0.17231(12)
N4 N 0.8245(3) -0.3157(3) 0.21029(10)
N5 N 0.5148(3) -0.4415(3) 0.35023(10)
N6 N 0.5248(3) -0.6271(3) 0.40239(10)
O1 O 0.2320(3) 0.6190(4) 0.24886(12)
O2 O 0.0872(3) 0.4493(3) 0.28164(11)
O3 O -0.2206(3) 0.9873(3) 0.43715(10)
O4 O -0.0483(4) 0.5052(4) 0.36033(15)
H16 H 0.0097 0.4558 0.3440
O5 O -0.2184(3) 1.1389(3) 0.37376(13)
Cd1_2 Cd 1.18552(2) -0.61751(2) 0.199675(10)
Cd1B Cd -0.38249(2) 1.18552(2) 0.449675(10)
Cd1B_2 Cd 0.61751(2) -0.81448(2) 0.449675(10)
N3_2 N -0.0034(3) 0.5565(3) 0.17231(12)
N6C N 0.3729(3) 0.4752(3) 0.15239(10)
O3C O -0.0127(3) 0.2206(3) 0.18715(10)
O5C O 0.1389(3) 0.2184(3) 0.12376(13)
O6 O 0.2468(5) 0.2263(5) 0.01946(19)
loop_
_geom_bond_atom_site_label_1
_geom_bond_atom_site_label_2
_geom_bond_site_symmetry_1
_geom_bond_site_symmetry_2
Cd1 N1 1_555 1_555
C1 H1 1_555 1_555
C2 C1 1_555 1_555
C3 C2 1_555 1_555
H2 C3 1_555 1_555
C4 C3 1_555 1_555
C5 C4 1_555 1_555
H3 C5 1_555 1_555
C6 C1 1_555 1_555
C7 H4 1_555 1_555
C8 H5 1_555 1_555
C9 C8 1_555 1_555
H6 C9 1_555 1_555
C10 H7 1_555 1_555
C11 H8 1_555 1_555
C12 C11 1_555 1_555
H9 C12 1_555 1_555
C13 H10 1_555 1_555
C14 H11 1_555 1_555
C15 C14 1_555 1_555
H12 C15 1_555 1_555
C16 C17 1_555 1_555
C17 C18 1_555 1_555
C18 H13 1_555 1_555
C19 C18 1_555 1_555
H14 C19 1_555 1_555
C20 C19 1_555 1_555
C21 C20 1_555 1_555
H15 C21 1_555 1_555
C22 C17 1_555 1_555
C23 C20 1_555 1_555
N1 C7 1_555 1_555
N2 C2 1_555 1_555
N3 C10 1_555 1_555
N4 C4 1_555 1_555
N5 C6 1_555 1_555
N6 C13 1_555 1_555
O1 Cd1 1_555 1_555
O2 Cd1 1_555 1_555
O3 C23 1_555 1_555
O4 C22 1_555 1_555
H16 O4 1_555 1_555
O5 C23 1_555 1_555
Cd1_2 N3 1_555 1_555
Cd1B O3 1_555 1_555
Cd1B_2 N6 1_555 1_555
N3_2 Cd1 1_555 1_555
N6C Cd1 1_555 1_555
O3C Cd1 1_555 1_555
O5C Cd1 1_555 1_555
C5 C6 1_555 1_555
C7 N2 1_555 1_555
C8 N1 1_555 1_555
C9 N2 1_555 1_555
C10 N4 1_555 1_555
C11 N3 1_555 1_555
C12 N4 1_555 1_555
C13 N5 1_555 1_555
C14 N5 1_555 1_555
C15 N6 1_555 1_555
C16 O1 1_555 1_555
C16 O2 1_555 1_555
C21 C22 1_555 1_555
O5 Cd1B 1_555 1_555

#END
