
#######################################################################
#
#                 Cambridge Crystallographic Data Centre
#                                CCDC 
#
#######################################################################
#
# If this CIF has been generated from an entry in the Cambridge 
# Structural Database, then it will include bibliographic, chemical, 
# crystal, experimental, refinement or atomic coordinate data resulting 
# from the CCDC's data processing and validation procedures.
#
#######################################################################

data_TUKDAG
_symmetry_cell_setting           monoclinic
_symmetry_space_group_name_H-M   'P 21/c'
_symmetry_Int_Tables_number      14
_space_group_name_Hall           '-P 2ybc'
loop_
_symmetry_equiv_pos_site_id
_symmetry_equiv_pos_as_xyz
1 x,y,z
2 -x,1/2+y,1/2-z
3 -x,-y,-z
4 x,1/2-y,1/2+z
_cell_length_a                   11.5640(16)
_cell_length_b                   22.347(3)
_cell_length_c                   10.1790(14)
_cell_angle_alpha                90
_cell_angle_beta                 103.343(2)
_cell_angle_gamma                90
_cell_volume                     2559.46
loop_
_atom_site_label
_atom_site_type_symbol
_atom_site_fract_x
_atom_site_fract_y
_atom_site_fract_z
Cd1 Cd 0.186770(14) 1.090057(8) -0.145138(17)
C1 C 0.1708(2) 0.78723(12) -0.2519(3)
H1 H 0.0957 0.7887 -0.3097
C2 C 0.2275(2) 0.83921(11) -0.1988(3)
C3 C 0.3415(2) 0.83694(12) -0.1158(3)
H2 H 0.3798 0.8719 -0.0800
C4 C 0.3972(2) 0.78204(12) -0.0873(3)
C5 C 0.3414(2) 0.72910(12) -0.1369(3)
H3 H 0.3790 0.6924 -0.1165
C6 C 0.2273(2) 0.73292(12) -0.2178(3)
C7 C 0.1992(2) 0.94642(12) -0.1549(3)
H4 H 0.2618 0.9494 -0.0792
C8 C 0.0507(3) 0.96782(13) -0.3155(3)
H5 H -0.0095 0.9895 -0.3721
C9 C 0.0727(3) 0.90939(13) -0.3298(4)
H6 H 0.0314 0.8836 -0.3959
C10 C 0.5953(3) 0.82569(14) -0.0037(3)
H7 H 0.5831 0.8572 -0.0650
C11 C 0.6721(3) 0.76815(16) 0.1585(4)
H8 H 0.7252 0.7518 0.2326
C12 C 0.5639(3) 0.74507(16) 0.1012(4)
H9 H 0.5297 0.7109 0.1280
C13 C 0.0439(2) 0.67295(12) -0.2641(3)
H10 H -0.0016 0.7011 -0.2314
C14 C 0.0989(3) 0.59356(12) -0.3511(3)
H11 H 0.0962 0.5559 -0.3904
C15 C 0.1964(2) 0.62884(12) -0.3202(3)
H12 H 0.2715 0.6204 -0.3338
C16 C 0.2661(3) 1.07146(13) 0.1344(3)
C17 C 0.2867(2) 1.09016(12) 0.6317(3)
C18 C 0.6633(3) 1.07113(15) 0.4654(3)
H13 H 0.6947 1.1101 0.4539
H14 H 0.6862 1.0436 0.4037
H15 H 0.6942 1.0577 0.5563
C19 C 0.3379(2) 1.07503(12) 0.2784(3)
C20 C 0.2815(2) 1.08486(12) 0.3834(3)
H16 H 0.1997 1.0905 0.3650
C21 C 0.3483(2) 1.08626(12) 0.5163(3)
C22 C 0.4711(2) 1.08114(12) 0.5414(3)
H17 H 0.5154 1.0823 0.6301
C23 C 0.5294(2) 1.07435(12) 0.4376(3)
C24 C 0.4609(2) 1.07006(12) 0.3064(3)
H18 H 0.4982 1.0637 0.2359
N1 N 0.1296(2) 0.99103(10) -0.2051(2)
N2 N 0.16940(19) 0.89542(10) -0.2261(2)
N3 N 0.6923(2) 0.81886(11) 0.0919(3)
N4 N 0.5153(2) 0.78187(10) -0.0030(3)
N5 N 0.00387(19) 0.62158(10) -0.3160(2)
N6 N 0.16079(18) 0.68003(9) -0.2642(2)
O1 O 0.1628(2) 1.09095(11) 0.1049(2)
O2 O 0.31733(18) 1.05068(9) 0.04711(19)
O3 O 0.18427(18) 1.11200(10) 0.6129(2)
O4 O 0.34030(18) 1.06948(10) 0.74421(19)
Cd1_2 Cd 0.186770(14) 1.090057(8) 0.854862(17)
Cd1A Cd -0.186770(14) 0.590057(8) -0.354862(17)
Cd1B Cd 0.813230(14) 0.909943(8) 0.145138(17)
N3B N 0.3077(2) 1.18114(11) -0.0919(3)
N5A N -0.00387(19) 1.12158(10) -0.1840(2)
O3_2 O 0.18427(18) 1.11200(10) -0.3871(2)
O4_2 O 0.34030(18) 1.06948(10) -0.25579(19)
O5 O 0.43290(19) 0.94074(11) 0.0963(3)
O6 O 0.9009(2) 0.78916(12) 0.5350(3)
O7 O 0.9211(3) 0.70214(13) 0.3398(3)
loop_
_geom_bond_atom_site_label_1
_geom_bond_atom_site_label_2
_geom_bond_site_symmetry_1
_geom_bond_site_symmetry_2
Cd1 N1 1_555 1_555
C1 H1 1_555 1_555
C2 C1 1_555 1_555
C3 C2 1_555 1_555
H2 C3 1_555 1_555
C4 C3 1_555 1_555
C5 C4 1_555 1_555
H3 C5 1_555 1_555
C6 C1 1_555 1_555
C7 H4 1_555 1_555
C8 H5 1_555 1_555
C9 C8 1_555 1_555
H6 C9 1_555 1_555
C10 H7 1_555 1_555
C11 H8 1_555 1_555
C12 C11 1_555 1_555
H9 C12 1_555 1_555
C13 H10 1_555 1_555
C14 H11 1_555 1_555
C15 C14 1_555 1_555
H12 C15 1_555 1_555
C16 C19 1_555 1_555
C17 C21 1_555 1_555
C18 H13 1_555 1_555
H14 C18 1_555 1_555
H15 C18 1_555 1_555
C19 C20 1_555 1_555
C20 H16 1_555 1_555
C21 C20 1_555 1_555
C22 C21 1_555 1_555
H17 C22 1_555 1_555
C23 C18 1_555 1_555
C24 C19 1_555 1_555
H18 C24 1_555 1_555
N1 C7 1_555 1_555
N2 C2 1_555 1_555
N3 C10 1_555 1_555
N4 C4 1_555 1_555
N5 C13 1_555 1_555
N6 C6 1_555 1_555
O1 Cd1 1_555 1_555
O2 Cd1 1_555 1_555
O3 C17 1_555 1_555
O4 C17 1_555 1_555
Cd1_2 O3 1_555 1_555
Cd1A N5 1_555 1_555
Cd1B N3 1_555 1_555
N3B Cd1 1_555 1_555
N5A Cd1 1_555 1_555
O3_2 Cd1 1_555 1_555
O4_2 Cd1 1_555 1_555
C5 C6 1_555 1_555
C7 N2 1_555 1_555
C8 N1 1_555 1_555
C9 N2 1_555 1_555
C10 N4 1_555 1_555
C11 N3 1_555 1_555
C12 N4 1_555 1_555
C13 N6 1_555 1_555
C14 N5 1_555 1_555
C15 N6 1_555 1_555
C16 O1 1_555 1_555
C16 O2 1_555 1_555
C22 C23 1_555 1_555
C23 C24 1_555 1_555
O4 Cd1_2 1_555 1_555

#END
