
#######################################################################
#
#                 Cambridge Crystallographic Data Centre
#                                CCDC 
#
#######################################################################
#
# If this CIF has been generated from an entry in the Cambridge 
# Structural Database, then it will include bibliographic, chemical, 
# crystal, experimental, refinement or atomic coordinate data resulting 
# from the CCDC's data processing and validation procedures.
#
#######################################################################

data_TUKDEK
_symmetry_cell_setting           orthorhombic
_symmetry_space_group_name_H-M   'P b c a'
_symmetry_Int_Tables_number      61
_space_group_name_Hall           '-P 2ac 2ab'
loop_
_symmetry_equiv_pos_site_id
_symmetry_equiv_pos_as_xyz
1 x,y,z
2 1/2-x,-y,1/2+z
3 1/2+x,1/2-y,-z
4 -x,1/2+y,1/2-z
5 -x,-y,-z
6 1/2+x,y,1/2-z
7 1/2-x,1/2+y,z
8 x,1/2-y,1/2+z
_cell_length_a                   13.8290(5)
_cell_length_b                   20.2540(8)
_cell_length_c                   25.7650(10)
_cell_angle_alpha                90
_cell_angle_beta                 90
_cell_angle_gamma                90
_cell_volume                     7216.58
loop_
_atom_site_label
_atom_site_type_symbol
_atom_site_fract_x
_atom_site_fract_y
_atom_site_fract_z
Cd1 Cd 0.775954(14) 0.177257(10) 0.838453(8)
C1 C 0.8674(2) 0.26426(16) 1.07583(13)
H1 H 0.9258 0.2570 1.0588
C2 C 0.7828(2) 0.23938(17) 1.05618(13)
C3 C 0.6952(2) 0.25081(16) 1.07934(12)
H2 H 0.6386 0.2343 1.0649
C4 C 0.6926(2) 0.28751(15) 1.12468(13)
C5 C 0.7768(2) 0.31205(16) 1.14688(13)
H3 H 0.7747 0.3356 1.1778
C6 C 0.8645(2) 0.30056(16) 1.12167(13)
C7 C 0.7627(3) 0.2154(2) 0.96302(15)
H4 H 0.7296 0.2542 0.9556
C8 C 0.8366(3) 0.1271(2) 0.95320(16)
H5 H 0.8623 0.0892 0.9382
C9 C 0.8470(3) 0.1440(2) 1.00424(17)
H6 H 0.8832 0.1228 1.0297
C10 C 0.5134(2) 0.30071(18) 1.12894(14)
H7 H 0.5021 0.2987 1.0934
C11 C 0.4921(2) 0.3077(2) 1.21038(15)
H8 H 0.4618 0.3112 1.2425
C12 C 0.5884(2) 0.3023(2) 1.20324(14)
H9 H 0.6359 0.3021 1.2288
C13 C 1.0405(2) 0.30196(17) 1.13843(16)
H10 H 1.0535 0.2612 1.1233
C14 C 1.0583(2) 0.39372(19) 1.17471(16)
H11 H 1.0861 0.4305 1.1904
C15 C 0.9628(2) 0.38680(19) 1.16474(17)
H12 H 0.9144 0.4172 1.1724
C16 C 0.7424(2) 0.30527(17) 0.79865(17)
C17 C 0.7149(2) 0.55330(14) 0.79240(14)
C18 C 0.7218(3) 0.4224(2) 0.62728(17)
H13 H 0.7172 0.4666 0.6139
H14 H 0.6671 0.3972 0.6157
H15 H 0.7802 0.4022 0.6150
C19 C 0.7229(2) 0.42458(16) 0.68537(15)
C20 C 0.7193(2) 0.48437(14) 0.71198(13)
H16 H 0.7175 0.5235 0.6932
C21 C 0.71825(19) 0.48714(14) 0.76573(13)
C22 C 0.7222(2) 0.42921(14) 0.79433(14)
H17 H 0.7201 0.4308 0.8304
C23 C 0.7296(2) 0.36802(14) 0.76863(14)
C24 C 0.7293(2) 0.36691(16) 0.71533(15)
H18 H 0.7335 0.3264 0.6985
N1 N 0.78298(18) 0.17356(13) 0.92709(11)
N2 N 0.7895(2) 0.20169(15) 1.00916(11)
N3 N 0.44530(18) 0.30740(14) 1.16360(11)
N4 N 0.60225(18) 0.29704(14) 1.15070(10)
N5 N 1.10792(18) 0.33984(14) 1.15865(11)
N6 N 0.95083(18) 0.32776(13) 1.14176(11)
O1 O 0.76459(16) 0.25473(10) 0.77348(11)
O2 O 0.7321(2) 0.30482(13) 0.84706(12)
O3 O 0.71559(17) 0.60440(10) 0.76436(10)
O4 O 0.71123(18) 0.55545(12) 0.84074(10)
Cd1B Cd 0.275954(14) 0.322743(10) 1.161547(8)
Cd1B_2 Cd 1.275954(14) 0.322743(10) 1.161547(8)
Cd1F Cd 0.724046(14) 0.677257(10) 0.838453(8)
N3B N 0.94530(18) 0.19260(14) 0.83640(11)
N5B N 0.60792(18) 0.16016(14) 0.84135(11)
O3F O 0.78441(17) 0.10440(10) 0.76436(10)
O4F O 0.78877(18) 0.05545(12) 0.84074(10)
loop_
_geom_bond_atom_site_label_1
_geom_bond_atom_site_label_2
_geom_bond_site_symmetry_1
_geom_bond_site_symmetry_2
Cd1 N1 1_555 1_555
C1 H1 1_555 1_555
C2 C1 1_555 1_555
C3 C2 1_555 1_555
H2 C3 1_555 1_555
C4 C3 1_555 1_555
C5 C4 1_555 1_555
H3 C5 1_555 1_555
C6 C1 1_555 1_555
C7 H4 1_555 1_555
C8 H5 1_555 1_555
C9 C8 1_555 1_555
H6 C9 1_555 1_555
C10 H7 1_555 1_555
C11 H8 1_555 1_555
C12 C11 1_555 1_555
H9 C12 1_555 1_555
C13 H10 1_555 1_555
C14 H11 1_555 1_555
C15 C14 1_555 1_555
H12 C15 1_555 1_555
C16 C23 1_555 1_555
C17 C21 1_555 1_555
C18 H13 1_555 1_555
H14 C18 1_555 1_555
H15 C18 1_555 1_555
C19 C18 1_555 1_555
C20 C19 1_555 1_555
H16 C20 1_555 1_555
C21 C20 1_555 1_555
C22 C21 1_555 1_555
H17 C22 1_555 1_555
C23 C22 1_555 1_555
C24 C19 1_555 1_555
H18 C24 1_555 1_555
N1 C7 1_555 1_555
N2 C2 1_555 1_555
N3 C10 1_555 1_555
N4 C4 1_555 1_555
N5 C13 1_555 1_555
N6 C6 1_555 1_555
O1 Cd1 1_555 1_555
O2 Cd1 1_555 1_555
O3 C17 1_555 1_555
O4 C17 1_555 1_555
Cd1B N3 1_555 1_555
Cd1B_2 N5 1_555 1_555
Cd1F O3 1_555 1_555
N3B Cd1 1_555 1_555
N5B Cd1 1_555 1_555
O3F Cd1 1_555 1_555
O4F Cd1 1_555 1_555
C5 C6 1_555 1_555
C7 N2 1_555 1_555
C8 N1 1_555 1_555
C9 N2 1_555 1_555
C10 N4 1_555 1_555
C11 N3 1_555 1_555
C12 N4 1_555 1_555
C13 N6 1_555 1_555
C14 N5 1_555 1_555
C15 N6 1_555 1_555
C16 O1 1_555 1_555
C16 O2 1_555 1_555
C23 C24 1_555 1_555
O4 Cd1F 1_555 1_555

#END
