
#######################################################################
#
#                 Cambridge Crystallographic Data Centre
#                                CCDC 
#
#######################################################################
#
# If this CIF has been generated from an entry in the Cambridge 
# Structural Database, then it will include bibliographic, chemical, 
# crystal, experimental, refinement or atomic coordinate data resulting 
# from the CCDC's data processing and validation procedures.
#
#######################################################################

data_TUKLOC
_symmetry_cell_setting           monoclinic
_symmetry_space_group_name_H-M   'P 21/n'
_symmetry_Int_Tables_number      14
_space_group_name_Hall           '-P 2yn'
loop_
_symmetry_equiv_pos_site_id
_symmetry_equiv_pos_as_xyz
1 x,y,z
2 1/2-x,1/2+y,1/2-z
3 -x,-y,-z
4 1/2+x,1/2-y,1/2+z
_cell_length_a                   9.8269(14)
_cell_length_b                   21.536(3)
_cell_length_c                   13.757(2)
_cell_angle_alpha                90
_cell_angle_beta                 106.645(4)
_cell_angle_gamma                90
_cell_volume                     2789.43
loop_
_atom_site_label
_atom_site_type_symbol
_atom_site_fract_x
_atom_site_fract_y
_atom_site_fract_z
C1 C 1.4262(13) 0.0775(6) 0.5350(9)
H1 H 1.4935 0.1110 0.5522
H2 H 1.4757 0.0390 0.5359
H3 H 1.3727 0.0758 0.5834
C2 C 1.3271(13) 0.0883(5) 0.4308(9)
C3 C 1.2168(14) 0.0512(6) 0.3778(11)
H4 H 1.1878 0.0135 0.3982
C4 C 1.1599(14) 0.0817(6) 0.2893(10)
C5 C 1.0318(16) 0.0678(7) 0.2000(12)
H5 H 1.0218 0.0996 0.1497
H6 H 0.9480 0.0665 0.2226
H7 H 1.0445 0.0283 0.1712
C6 C 1.2076(10) 0.1864(5) 0.2185(7)
H8 H 1.1787 0.1695 0.1503
H9 H 1.2964 0.2084 0.2271
C7 C 1.0980(11) 0.2310(5) 0.2301(7)
C8 C 0.9655(11) 0.2435(6) 0.1691(8)
H10 H 0.9198 0.2238 0.1083
C9 C 0.9107(11) 0.2916(6) 0.2152(9)
H11 H 0.8216 0.3099 0.1906
C10 C 1.0142(8) 0.3074(4) 0.3051(6)
C11 C 1.0021(10) 0.3539(4) 0.3837(8)
C12 C 1.1393(10) 0.3964(5) 0.4103(10)
H12 H 1.1323 0.4265 0.4611
H13 H 1.2218 0.3706 0.4400
C13 C 1.1623(13) 0.4306(6) 0.3204(11)
H14 H 1.2454 0.4563 0.3425
H15 H 1.0811 0.4562 0.2902
H16 H 1.1750 0.4012 0.2713
C14 C 0.8647(11) 0.3933(5) 0.3462(10)
H17 H 0.8675 0.4162 0.2861
H18 H 0.7833 0.3657 0.3273
C15 C 0.8459(14) 0.4382(6) 0.4248(13)
H19 H 0.7603 0.4616 0.3976
H20 H 0.9256 0.4660 0.4433
H21 H 0.8398 0.4158 0.4836
C16 C 1.0063(10) 0.3191(5) 0.4787(8)
C17 C 1.0956(11) 0.3150(6) 0.5736(8)
H22 H 1.1800 0.3370 0.5982
C18 C 1.0403(11) 0.2721(6) 0.6289(8)
H23 H 1.0814 0.2614 0.6965
C19 C 0.9170(10) 0.2487(5) 0.5679(7)
C20 C 0.8172(11) 0.2012(5) 0.5843(7)
H24 H 0.8512 0.1857 0.6533
H25 H 0.7250 0.2202 0.5761
C21 C 0.9002(12) 0.1072(5) 0.5087(11)
C22 C 1.0394(14) 0.1046(7) 0.5929(13)
H26 H 1.0424 0.1379 0.6399
H27 H 1.1173 0.1087 0.5643
H28 H 1.0464 0.0656 0.6278
C23 C 0.8409(16) 0.0722(5) 0.4227(11)
H29 H 0.8826 0.0387 0.3994
C24 C 0.7068(13) 0.0967(5) 0.3779(8)
C25 C 0.5993(14) 0.0768(6) 0.2824(9)
H30 H 0.5158 0.1021 0.2713
H31 H 0.5747 0.0341 0.2881
H32 H 0.6382 0.0815 0.2262
N1 N 1.3371(9) 0.1400(4) 0.3793(6)
N2 N 1.2309(9) 0.1355(4) 0.2909(6)
N3 N 1.1210(8) 0.2712(4) 0.3105(6)
H33 H 1.1985 0.2722 0.3594
N4 N 0.8928(8) 0.2777(4) 0.4762(6)
H34 H 0.8200 0.2718 0.4248
N5 N 0.8019(9) 0.1493(4) 0.5133(6)
N6 N 0.6823(9) 0.1437(4) 0.4321(6)
Cu1 Cu 0.50587(14) 0.19631(6) 0.40557(9)
I1 I 0.50706(7) 0.31217(3) 0.39607(5)
N1_2 N 0.3371(9) 0.1400(4) 0.3793(6)
Cu1_2 Cu 1.50587(14) 0.19631(6) 0.40557(9)
loop_
_geom_bond_atom_site_label_1
_geom_bond_atom_site_label_2
_geom_bond_site_symmetry_1
_geom_bond_site_symmetry_2
C1 H1 1_555 1_555
H2 C1 1_555 1_555
H3 C1 1_555 1_555
C2 C1 1_555 1_555
C3 C2 1_555 1_555
H4 C3 1_555 1_555
C4 C3 1_555 1_555
C5 C4 1_555 1_555
H5 C5 1_555 1_555
H6 C5 1_555 1_555
H7 C5 1_555 1_555
C6 H8 1_555 1_555
H9 C6 1_555 1_555
C7 C6 1_555 1_555
C8 C7 1_555 1_555
H10 C8 1_555 1_555
C9 C8 1_555 1_555
H11 C9 1_555 1_555
C10 C9 1_555 1_555
C11 C10 1_555 1_555
C12 C11 1_555 1_555
H12 C12 1_555 1_555
H13 C12 1_555 1_555
C13 C12 1_555 1_555
H14 C13 1_555 1_555
H15 C13 1_555 1_555
H16 C13 1_555 1_555
C14 C11 1_555 1_555
H17 C14 1_555 1_555
H18 C14 1_555 1_555
C15 C14 1_555 1_555
H19 C15 1_555 1_555
H20 C15 1_555 1_555
H21 C15 1_555 1_555
C16 C11 1_555 1_555
C17 C16 1_555 1_555
H22 C17 1_555 1_555
C18 C17 1_555 1_555
H23 C18 1_555 1_555
C19 C18 1_555 1_555
C20 C19 1_555 1_555
H24 C20 1_555 1_555
H25 C20 1_555 1_555
C21 C22 1_555 1_555
C22 H26 1_555 1_555
H27 C22 1_555 1_555
H28 C22 1_555 1_555
C23 C21 1_555 1_555
H29 C23 1_555 1_555
C24 C23 1_555 1_555
C25 C24 1_555 1_555
H30 C25 1_555 1_555
H31 C25 1_555 1_555
H32 C25 1_555 1_555
N1 C2 1_555 1_555
N2 C4 1_555 1_555
N3 C7 1_555 1_555
H33 N3 1_555 1_555
N4 C16 1_555 1_555
H34 N4 1_555 1_555
N5 C20 1_555 1_555
N6 C24 1_555 1_555
Cu1 N6 1_555 1_555
I1 Cu1 1_555 1_555
N1_2 Cu1 1_555 1_555
Cu1_2 N1 1_555 1_555
C6 N2 1_555 1_555
C10 N3 1_555 1_555
C19 N4 1_555 1_555
C21 N5 1_555 1_555
N1 N2 1_555 1_555
N5 N6 1_555 1_555

#END
