
#######################################################################
#
#                 Cambridge Crystallographic Data Centre
#                                CCDC 
#
#######################################################################
#
# If this CIF has been generated from an entry in the Cambridge 
# Structural Database, then it will include bibliographic, chemical, 
# crystal, experimental, refinement or atomic coordinate data resulting 
# from the CCDC's data processing and validation procedures.
#
#######################################################################

data_TUKLIW
_symmetry_cell_setting           triclinic
_symmetry_space_group_name_H-M   'P -1'
_symmetry_Int_Tables_number      2
_space_group_name_Hall           '-P 1'
loop_
_symmetry_equiv_pos_site_id
_symmetry_equiv_pos_as_xyz
1 x,y,z
2 -x,-y,-z
_cell_length_a                   12.5254(18)
_cell_length_b                   12.5882(18)
_cell_length_c                   19.034(3)
_cell_angle_alpha                86.019(5)
_cell_angle_beta                 89.755(5)
_cell_angle_gamma                65.575(4)
_cell_volume                     2724.96
loop_
_atom_site_label
_atom_site_type_symbol
_atom_site_fract_x
_atom_site_fract_y
_atom_site_fract_z
C1 C 0.6523(7) 0.1793(9) 0.7004(4)
H1 H 0.6433 0.2521 0.7179
H2 H 0.6829 0.1740 0.6539
H3 H 0.7054 0.1156 0.7310
C2 C 0.5341(7) 0.1731(8) 0.6981(4)
C3 C 0.5051(7) 0.0890(7) 0.6766(4)
H4 H 0.5555 0.0175 0.6609
C4 C 0.3821(7) 0.1315(7) 0.6829(4)
C5 C 0.3021(8) 0.0758(7) 0.6668(4)
H5 H 0.2229 0.1278 0.6762
H6 H 0.3239 0.0041 0.6958
H7 H 0.3077 0.0595 0.6181
C6 C 0.4149(7) 0.3755(7) 0.7422(4)
H8 H 0.3840 0.4360 0.7040
H9 H 0.4894 0.3731 0.7580
C7 C 0.3314(6) 0.4053(6) 0.8017(3)
C8 C 0.2168(6) 0.4876(6) 0.8059(4)
H10 H 0.1722 0.5421 0.7702
C9 C 0.1806(6) 0.4725(6) 0.8756(3)
H11 H 0.1079 0.5171 0.8937
C10 C 0.2694(6) 0.3825(6) 0.9112(3)
C11 C 0.2847(6) 0.3318(6) 0.9866(3)
C12 C 0.3471(6) 0.1955(6) 0.9888(4)
H12 H 0.4191 0.1726 0.9630
H13 H 0.3674 0.1640 1.0373
C13 C 0.2673(7) 0.1432(7) 0.9563(4)
H14 H 0.2530 0.1689 0.9066
H15 H 0.3074 0.0585 0.9602
C14 C 0.1541(7) 0.1791(7) 0.9918(4)
H16 H 0.1677 0.1480 1.0406
H17 H 0.1060 0.1468 0.9692
C15 C 0.0895(7) 0.3106(7) 0.9889(4)
H18 H 0.0695 0.3413 0.9403
H19 H 0.0172 0.3316 1.0143
C16 C 0.1638(7) 0.3646(6) 1.0209(4)
H20 H 0.1763 0.3400 1.0707
H21 H 0.1211 0.4491 1.0165
C17 C 0.3566(7) 0.3779(6) 1.0291(3)
C18 C 0.3180(8) 0.4772(7) 1.0667(4)
H22 H 0.2408 0.5292 1.0731
C19 C 0.4216(9) 0.4829(8) 1.0935(4)
H23 H 0.4236 0.5403 1.1210
C20 C 0.5159(9) 0.3915(8) 1.0725(4)
C21 C 0.6456(8) 0.3644(8) 1.0804(4)
H24 H 0.6836 0.3349 1.0370
H25 H 0.6531 0.4369 1.0867
C22 C 0.8858(9) 0.1553(11) 1.0755(5)
H26 H 0.8403 0.1997 1.0346
H27 H 0.9040 0.0739 1.0722
H28 H 0.9573 0.1659 1.0781
C23 C 0.8173(8) 0.1963(10) 1.1400(5)
C24 C 0.8457(8) 0.1587(9) 1.2083(5)
H29 H 0.9156 0.0991 1.2258
C25 C 0.7508(7) 0.2260(8) 1.2479(4)
C26 C 0.7401(9) 0.2219(10) 1.3243(4)
H30 H 0.6640 0.2778 1.3363
H31 H 0.7994 0.2403 1.3453
H32 H 0.7500 0.1449 1.3417
C27 C 0.0100(10) 0.2147(11) 0.8202(5)
H33 H 0.0373 0.2705 0.8352
H34 H 0.0693 0.1370 0.8305
H35 H -0.0600 0.2232 0.8446
C28 C -0.0160(7) 0.2354(8) 0.7429(4)
C29 C -0.0560(7) 0.1768(8) 0.6990(5)
H36 H -0.0760 0.1151 0.7127
C30 C -0.0614(7) 0.2244(8) 0.6326(5)
C31 C -0.0994(8) 0.2006(10) 0.5632(5)
H37 H -0.0898 0.2522 0.5267
H38 H -0.1804 0.2133 0.5648
H39 H -0.0524 0.1209 0.5536
C32 C -0.0256(6) 0.4008(7) 0.5833(4)
H40 H -0.0886 0.4739 0.5947
H41 H -0.0456 0.3815 0.5382
C33 C 0.0862(6) 0.4190(6) 0.5761(3)
C34 C 0.1136(6) 0.5047(6) 0.5982(4)
H42 H 0.0685 0.5636 0.6265
C35 C 0.2233(7) 0.4882(6) 0.5705(3)
H43 H 0.2643 0.5339 0.5772
C36 C 0.2584(6) 0.3923(6) 0.5317(3)
C37 C 0.3686(6) 0.3389(6) 0.4881(3)
C38 C 0.4645(6) 0.3624(6) 0.5223(4)
H44 H 0.4711 0.3362 0.5718
H45 H 0.4422 0.4461 0.5190
C39 C 0.5857(6) 0.3017(7) 0.4890(4)
H46 H 0.5822 0.3322 0.4405
H47 H 0.6436 0.3179 0.5145
C40 C 0.6214(7) 0.1708(8) 0.4919(4)
H48 H 0.6337 0.1391 0.5406
H49 H 0.6946 0.1338 0.4678
C41 C 0.5252(6) 0.1440(7) 0.4567(4)
H50 H 0.5181 0.1694 0.4070
H51 H 0.5477 0.0602 0.4608
C42 C 0.4099(6) 0.2037(6) 0.4898(3)
H52 H 0.4155 0.1726 0.5384
H53 H 0.3516 0.1867 0.4655
C43 C 0.4129(8) 0.1393(8) 0.1842(4)
C44 C 0.5359(8) 0.0694(8) 0.1646(4)
H54 H 0.5824 0.1121 0.1724
H55 H 0.5377 0.0544 0.1157
H56 H 0.5671 -0.0035 0.1929
C45 C 0.3151(10) 0.1117(9) 0.1812(4)
H57 H 0.3143 0.0428 0.1671
C46 C 0.2222(8) 0.2052(9) 0.2028(4)
C47 C 0.0966(9) 0.2256(10) 0.2073(5)
H58 H 0.0524 0.3009 0.2247
H59 H 0.0897 0.1660 0.2388
H60 H 0.0667 0.2231 0.1614
C48 C 0.2022(7) 0.4000(8) 0.2437(4)
H61 H 0.1254 0.4091 0.2595
H62 H 0.1909 0.4584 0.2051
C49 C 0.2673(6) 0.4217(7) 0.3031(4)
C50 C 0.3155(7) 0.4980(7) 0.3088(4)
H63 H 0.3179 0.5528 0.2741
C51 C 0.3622(7) 0.4783(7) 0.3785(4)
H64 H 0.4010 0.5191 0.3975
C52 C 0.3424(5) 0.3926(6) 0.4129(3)
N1 N 0.3613(5) 0.3421(5) 0.8653(3)
H65 H 0.436(4) 0.308(6) 0.873(4)
N2 N 0.4768(6) 0.3278(6) 1.0332(3)
H66 H 0.528(5) 0.277(6) 1.008(4)
N3 N 0.4337(5) 0.2625(6) 0.7162(3)
N4 N 0.3392(5) 0.2368(5) 0.7070(3)
N5 N 0.7076(6) 0.2804(7) 1.1385(3)
N6 N 0.6645(6) 0.3031(6) 1.2054(3)
N7 N 0.1739(5) 0.3514(5) 0.5353(3)
H67 H 0.179(6) 0.295(5) 0.511(3)
N8 N -0.0194(5) 0.3093(6) 0.6368(3)
N9 N 0.0068(5) 0.3198(6) 0.7058(3)
N10 N 0.2844(5) 0.3569(5) 0.3653(3)
H68 H 0.268(6) 0.298(5) 0.377(4)
N11 N 0.3803(5) 0.2452(5) 0.2074(3)
N12 N 0.2627(5) 0.2843(6) 0.2183(3)
Ag1 Ag 0.47503(6) 0.35647(6) 1.21958(3)
Ag2 Ag 0.15552(5) 0.36632(6) 0.72267(3)
N11_2 N 0.3803(5) 0.2452(5) 1.2074(3)
Ag1_2 Ag 0.47503(6) 0.35647(6) 0.21958(3)
F1 F 0.7306(10) 0.2479(7) 0.9009(8)
F2 F 0.6718(6) 0.1441(6) 0.9730(4)
F3 F 0.5986(6) 0.1838(9) 0.8710(4)
F4 F 0.7900(5) 0.0694(5) 0.8811(3)
B1 B 0.7015(16) 0.1603(11) 0.9042(7)
F5 F 0.1505(6) 0.1472(6) 0.4789(3)
F6 F 0.1195(11) 0.0544(9) 0.3919(6)
F7 F 0.2406(9) 0.1319(11) 0.3744(5)
F8 F 0.0551(14) 0.2398(10) 0.3852(9)
B2 B 0.1369(9) 0.1431(8) 0.4099(5)
F9? F 0.2036(17) 0.0514(14) 0.3823(11)
F10? F 0.1441(17) 0.2379(17) 0.3780(11)
F11? F 0.0265(15) 0.1591(18) 0.3951(17)
loop_
_geom_bond_atom_site_label_1
_geom_bond_atom_site_label_2
_geom_bond_site_symmetry_1
_geom_bond_site_symmetry_2
C1 H1 1_555 1_555
H2 C1 1_555 1_555
H3 C1 1_555 1_555
C2 C1 1_555 1_555
C3 C2 1_555 1_555
H4 C3 1_555 1_555
C4 C3 1_555 1_555
C5 C4 1_555 1_555
H5 C5 1_555 1_555
H6 C5 1_555 1_555
H7 C5 1_555 1_555
C6 H8 1_555 1_555
H9 C6 1_555 1_555
C7 C6 1_555 1_555
C8 C7 1_555 1_555
H10 C8 1_555 1_555
C9 C8 1_555 1_555
H11 C9 1_555 1_555
C10 C9 1_555 1_555
C11 C10 1_555 1_555
C12 C11 1_555 1_555
H12 C12 1_555 1_555
H13 C12 1_555 1_555
C13 C12 1_555 1_555
H14 C13 1_555 1_555
H15 C13 1_555 1_555
C14 C13 1_555 1_555
H16 C14 1_555 1_555
H17 C14 1_555 1_555
C15 C14 1_555 1_555
H18 C15 1_555 1_555
H19 C15 1_555 1_555
C16 C11 1_555 1_555
H20 C16 1_555 1_555
H21 C16 1_555 1_555
C17 C11 1_555 1_555
C18 C17 1_555 1_555
H22 C18 1_555 1_555
C19 C18 1_555 1_555
H23 C19 1_555 1_555
C20 C19 1_555 1_555
C21 C20 1_555 1_555
H24 C21 1_555 1_555
H25 C21 1_555 1_555
C22 H26 1_555 1_555
H27 C22 1_555 1_555
H28 C22 1_555 1_555
C23 C22 1_555 1_555
C24 C23 1_555 1_555
H29 C24 1_555 1_555
C25 C24 1_555 1_555
C26 C25 1_555 1_555
H30 C26 1_555 1_555
H31 C26 1_555 1_555
H32 C26 1_555 1_555
C27 H33 1_555 1_555
H34 C27 1_555 1_555
H35 C27 1_555 1_555
C28 C27 1_555 1_555
C29 C28 1_555 1_555
H36 C29 1_555 1_555
C30 C29 1_555 1_555
C31 C30 1_555 1_555
H37 C31 1_555 1_555
H38 C31 1_555 1_555
H39 C31 1_555 1_555
C32 H40 1_555 1_555
H41 C32 1_555 1_555
C33 C32 1_555 1_555
C34 C33 1_555 1_555
H42 C34 1_555 1_555
C35 C34 1_555 1_555
H43 C35 1_555 1_555
C36 C35 1_555 1_555
C37 C36 1_555 1_555
C38 C37 1_555 1_555
H44 C38 1_555 1_555
H45 C38 1_555 1_555
C39 C38 1_555 1_555
H46 C39 1_555 1_555
H47 C39 1_555 1_555
C40 C39 1_555 1_555
H48 C40 1_555 1_555
H49 C40 1_555 1_555
C41 C40 1_555 1_555
H50 C41 1_555 1_555
H51 C41 1_555 1_555
C42 C37 1_555 1_555
H52 C42 1_555 1_555
H53 C42 1_555 1_555
C43 C44 1_555 1_555
C44 H54 1_555 1_555
H55 C44 1_555 1_555
H56 C44 1_555 1_555
C45 C43 1_555 1_555
H57 C45 1_555 1_555
C46 C45 1_555 1_555
C47 C46 1_555 1_555
H58 C47 1_555 1_555
H59 C47 1_555 1_555
H60 C47 1_555 1_555
C48 H61 1_555 1_555
H62 C48 1_555 1_555
C49 C48 1_555 1_555
C50 C49 1_555 1_555
H63 C50 1_555 1_555
C51 C50 1_555 1_555
H64 C51 1_555 1_555
C52 C37 1_555 1_555
N1 C7 1_555 1_555
H65 N1 1_555 1_555
N2 C17 1_555 1_555
H66 N2 1_555 1_555
N3 C2 1_555 1_555
N4 C4 1_555 1_555
N5 C21 1_555 1_555
N6 C25 1_555 1_555
N7 C33 1_555 1_555
H67 N7 1_555 1_555
N8 C30 1_555 1_555
N9 C28 1_555 1_555
N10 C49 1_555 1_555
H68 N10 1_555 1_555
N11 C43 1_555 1_555
N12 C46 1_555 1_555
Ag1 N6 1_555 1_555
Ag2 N4 1_555 1_555
F1 B1 1_555 1_555
F2 B1 1_555 1_555
F3 B1 1_555 1_555
F4 B1 1_555 1_555
F5 B2 1_555 1_555
F6 B2 1_555 1_555
F7 B2 1_555 1_555
F8 B2 1_555 1_555
N11_2 Ag1 1_555 1_555
Ag1_2 N11 1_555 1_555
C6 N3 1_555 1_555
C10 N1 1_555 1_555
C15 C16 1_555 1_555
C20 N2 1_555 1_555
C23 N5 1_555 1_555
C32 N8 1_555 1_555
C36 N7 1_555 1_555
C41 C42 1_555 1_555
C48 N12 1_555 1_555
C51 C52 1_555 1_555
C52 N10 1_555 1_555
N3 N4 1_555 1_555
N5 N6 1_555 1_555
N8 N9 1_555 1_555
N9 Ag2 1_555 1_555
N11 N12 1_555 1_555

#END
