
#######################################################################
#
#                 Cambridge Crystallographic Data Centre
#                                CCDC 
#
#######################################################################
#
# If this CIF has been generated from an entry in the Cambridge 
# Structural Database, then it will include bibliographic, chemical, 
# crystal, experimental, refinement or atomic coordinate data resulting 
# from the CCDC's data processing and validation procedures.
#
#######################################################################

data_TUKVIF
_symmetry_cell_setting           cubic
_symmetry_space_group_name_H-M   'P -4 3 n'
_symmetry_Int_Tables_number      218
_space_group_name_Hall           'P -4n 2 3'
loop_
_symmetry_equiv_pos_site_id
_symmetry_equiv_pos_as_xyz
1 x,y,z
2 -x,-y,z
3 -x,y,-z
4 x,-y,-z
5 z,x,y
6 z,-x,-y
7 -z,-x,y
8 -z,x,-y
9 y,z,x
10 -y,z,-x
11 y,-z,-x
12 -y,-z,x
13 1/2+y,1/2+x,1/2+z
14 1/2-y,1/2-x,1/2+z
15 1/2+y,1/2-x,1/2-z
16 1/2-y,1/2+x,1/2-z
17 1/2+x,1/2+z,1/2+y
18 1/2-x,1/2+z,1/2-y
19 1/2-x,1/2-z,1/2+y
20 1/2+x,1/2-z,1/2-y
21 1/2+z,1/2+y,1/2+x
22 1/2+z,1/2-y,1/2-x
23 1/2-z,1/2+y,1/2-x
24 1/2-z,1/2-y,1/2+x
_cell_length_a                   16.31380(10)
_cell_length_b                   16.31380(10)
_cell_length_c                   16.31380(10)
_cell_angle_alpha                90
_cell_angle_beta                 90
_cell_angle_gamma                90
_cell_volume                     4341.76
loop_
_atom_site_label
_atom_site_type_symbol
_atom_site_fract_x
_atom_site_fract_y
_atom_site_fract_z
Li1 Li 0.7500 0.5000 0.0000
B1 B 0.5000 0.2500 0.0000
N1 N 0.56931(9) 0.30667(9) 0.03206(9)
N2 N 0.66311(10) 0.40725(9) 0.04069(9)
C1 C 0.60820(10) 0.37000(10) -0.00713(10)
C2 C 0.65720(12) 0.36830(11) 0.11593(11)
C3 C 0.60029(11) 0.30746(11) 0.11126(11)
H1 H 0.5846 0.2718 0.1546
C4 C 0.58809(14) 0.39855(12) -0.09214(12)
H2 H 0.5372 0.4305 -0.0910
H3 H 0.5811 0.3510 -0.1281
H4 H 0.6328 0.4329 -0.1128
C5 C 0.70704(16) 0.39258(15) 0.18840(14)
H5 H 0.6815 0.3712 0.2384
H6 H 0.7100 0.4525 0.1915
H7 H 0.7625 0.3700 0.1830
Li1A Li 0.2500 0.5000 0.0000
Li1H Li 0.5000 0.0000 -0.2500
Li1H_2 Li 0.5000 1.0000 -0.2500
Li1I Li 0.5000 0.0000 0.2500
Li1I_2 Li 0.5000 1.0000 0.2500
B1A B 0.5000 0.7500 0.0000
N1B N 0.43069(9) 0.30667(9) -0.03206(9)
N1U N 0.53206(9) 0.19333(9) -0.06931(9)
N1W N 0.46794(9) 0.19333(9) 0.06931(9)
N1A N 0.43069(9) 0.69333(9) 0.03206(9)
N1C N 0.56931(9) 0.69333(9) -0.03206(9)
N1V N 0.46794(9) 0.80667(9) -0.06931(9)
N1T N 0.53206(9) 0.80667(9) 0.06931(9)
N2B N 0.33689(10) 0.40725(9) -0.04069(9)
N2U N 0.54069(9) 0.09275(9) -0.16311(10)
N2W N 0.45931(9) 0.09275(9) 0.16311(10)
N2A N 0.33689(10) 0.59275(9) 0.04069(9)
N2C N 0.66311(10) 0.59275(9) -0.04069(9)
N2V N 0.45931(9) 0.90725(9) -0.16311(10)
N2T N 0.54069(9) 0.90725(9) 0.16311(10)
N2P N 0.16311(10) 0.54069(9) -0.09275(9)
N2Q N 0.83689(10) 0.54069(9) 0.09275(9)
N2R N 0.83689(10) 0.45931(9) -0.09275(9)
N2S N 0.16311(10) 0.45931(9) 0.09275(9)
C1B C 0.39180(10) 0.37000(10) 0.00713(10)
C1U C 0.49287(10) 0.13000(10) -0.10820(10)
C1W C 0.50713(10) 0.13000(10) 0.10820(10)
C1A C 0.39180(10) 0.63000(10) -0.00713(10)
C1C C 0.60820(10) 0.63000(10) 0.00713(10)
C1V C 0.50713(10) 0.87000(10) -0.10820(10)
C1T C 0.49287(10) 0.87000(10) 0.10820(10)
C2B C 0.34280(12) 0.36830(11) -0.11593(11)
C2U C 0.61593(11) 0.13170(11) -0.15720(12)
C2W C 0.38407(11) 0.13170(11) 0.15720(12)
C2A C 0.34280(12) 0.63170(11) 0.11593(11)
C2C C 0.65720(12) 0.63170(11) -0.11593(11)
C2V C 0.38407(11) 0.86830(11) -0.15720(12)
C2T C 0.61593(11) 0.86830(11) 0.15720(12)
C3B C 0.39971(11) 0.30746(11) -0.11126(11)
C3U C 0.61126(11) 0.19254(11) -0.10029(11)
C3W C 0.38874(11) 0.19254(11) 0.10029(11)
C3A C 0.39971(11) 0.69254(11) 0.11126(11)
C3C C 0.60029(11) 0.69254(11) -0.11126(11)
C3V C 0.38874(11) 0.80746(11) -0.10029(11)
C3T C 0.61126(11) 0.80746(11) 0.10029(11)
H1B H 0.4154 0.2718 -0.1546
H1U H 0.6546 0.2282 -0.0846
H1W H 0.3454 0.2282 0.0846
H1A H 0.4154 0.7282 0.1546
H1C H 0.5846 0.7282 -0.1546
H1V H 0.3454 0.7718 -0.0846
H1T H 0.6546 0.7718 0.0846
C4B C 0.41191(14) 0.39855(12) 0.09214(12)
C4U C 0.40786(12) 0.10145(12) -0.08809(14)
C4W C 0.59214(12) 0.10145(12) 0.08809(14)
C4A C 0.41191(14) 0.60145(12) -0.09214(12)
C4C C 0.58809(14) 0.60145(12) 0.09214(12)
C4V C 0.59214(12) 0.89855(12) -0.08809(14)
C4T C 0.40786(12) 0.89855(12) 0.08809(14)
H2B H 0.4628 0.4305 0.0910
H2U H 0.4090 0.0695 -0.0372
H2W H 0.5910 0.0695 0.0372
H2A H 0.4628 0.5695 -0.0910
H2C H 0.5372 0.5695 0.0910
H2V H 0.5910 0.9305 -0.0372
H2T H 0.4090 0.9305 0.0372
H3B H 0.4189 0.3510 0.1281
H3U H 0.3719 0.1490 -0.0811
H3W H 0.6281 0.1490 0.0811
H3A H 0.4189 0.6490 -0.1281
H3C H 0.5811 0.6490 0.1281
H3V H 0.6281 0.8510 -0.0811
H3T H 0.3719 0.8510 0.0811
H4B H 0.3672 0.4329 0.1128
H4U H 0.3872 0.0671 -0.1328
H4W H 0.6128 0.0671 0.1328
H4A H 0.3672 0.5671 -0.1128
H4C H 0.6328 0.5671 0.1128
H4V H 0.6128 0.9329 -0.1328
H4T H 0.3872 0.9329 0.1328
C5B C 0.29296(16) 0.39258(15) -0.18840(14)
C5U C 0.68840(14) 0.10742(15) -0.20704(16)
C5W C 0.31160(14) 0.10742(15) 0.20704(16)
C5A C 0.29296(16) 0.60742(15) 0.18840(14)
C5C C 0.70704(16) 0.60742(15) -0.18840(14)
C5V C 0.31160(14) 0.89258(15) -0.20704(16)
C5T C 0.68840(14) 0.89258(15) 0.20704(16)
H5B H 0.3185 0.3712 -0.2384
H5U H 0.7384 0.1288 -0.1815
H5W H 0.2616 0.1288 0.1815
H5A H 0.3185 0.6288 0.2384
H5C H 0.6815 0.6288 -0.2384
H5V H 0.2616 0.8712 -0.1815
H5T H 0.7384 0.8712 0.1815
H6B H 0.2900 0.4525 -0.1915
H6U H 0.6915 0.0475 -0.2100
H6W H 0.3085 0.0475 0.2100
H6A H 0.2900 0.5475 0.1915
H6C H 0.7100 0.5475 -0.1915
H6V H 0.3085 0.9525 -0.2100
H6T H 0.6915 0.9525 0.2100
H7B H 0.2375 0.3700 -0.1830
H7U H 0.6830 0.1300 -0.2625
H7W H 0.3170 0.1300 0.2625
H7A H 0.2375 0.6300 0.1830
H7C H 0.7625 0.6300 -0.1830
H7V H 0.3170 0.8700 -0.2625
H7T H 0.6830 0.8700 0.2625
loop_
_geom_bond_atom_site_label_1
_geom_bond_atom_site_label_2
_geom_bond_site_symmetry_1
_geom_bond_site_symmetry_2
Li1 N2 1_555 1_555
B1 N1 1_555 1_555
N1 C1 1_555 1_555
N2 C1 1_555 1_555
C1 C4 1_555 1_555
C2 N2 1_555 1_555
C3 N1 1_555 1_555
H1 C3 1_555 1_555
C4 H2 1_555 1_555
H3 C4 1_555 1_555
H4 C4 1_555 1_555
C5 C2 1_555 1_555
H5 C5 1_555 1_555
H6 C5 1_555 1_555
H7 C5 1_555 1_555
Li1A N2B 1_555 1_555
Li1H N2U 1_555 1_555
Li1H_2 N2V 1_555 1_555
Li1I N2W 1_555 1_555
Li1I_2 N2T 1_555 1_555
B1A N1A 1_555 1_555
N1B B1 1_555 1_555
N1U B1 1_555 1_555
N1W B1 1_555 1_555
N1A C1A 1_555 1_555
N1C B1A 1_555 1_555
N1V B1A 1_555 1_555
N1T B1A 1_555 1_555
N2B C1B 1_555 1_555
N2U C1U 1_555 1_555
N2W C1W 1_555 1_555
N2A Li1A 1_555 1_555
N2C Li1 1_555 1_555
N2V C1V 1_555 1_555
N2T C1T 1_555 1_555
N2P Li1A 1_555 1_555
N2Q Li1 1_555 1_555
N2R Li1 1_555 1_555
N2S Li1A 1_555 1_555
C1B N1B 1_555 1_555
C1U N1U 1_555 1_555
C1W N1W 1_555 1_555
C1A N2A 1_555 1_555
C1C N1C 1_555 1_555
C1V N1V 1_555 1_555
C1T N1T 1_555 1_555
C2B N2B 1_555 1_555
C2U N2U 1_555 1_555
C2W N2W 1_555 1_555
C2A N2A 1_555 1_555
C2C N2C 1_555 1_555
C2V N2V 1_555 1_555
C2T N2T 1_555 1_555
C3B N1B 1_555 1_555
C3U N1U 1_555 1_555
C3W N1W 1_555 1_555
C3A N1A 1_555 1_555
C3C N1C 1_555 1_555
C3V N1V 1_555 1_555
C3T N1T 1_555 1_555
H1B C3B 1_555 1_555
H1U C3U 1_555 1_555
H1W C3W 1_555 1_555
H1A C3A 1_555 1_555
H1C C3C 1_555 1_555
H1V C3V 1_555 1_555
H1T C3T 1_555 1_555
C4B C1B 1_555 1_555
C4U C1U 1_555 1_555
C4W C1W 1_555 1_555
C4A C1A 1_555 1_555
C4C C1C 1_555 1_555
C4V C1V 1_555 1_555
C4T C1T 1_555 1_555
H2B C4B 1_555 1_555
H2U C4U 1_555 1_555
H2W C4W 1_555 1_555
H2A C4A 1_555 1_555
H2C C4C 1_555 1_555
H2V C4V 1_555 1_555
H2T C4T 1_555 1_555
H3B C4B 1_555 1_555
H3U C4U 1_555 1_555
H3W C4W 1_555 1_555
H3A C4A 1_555 1_555
H3C C4C 1_555 1_555
H3V C4V 1_555 1_555
H3T C4T 1_555 1_555
H4B C4B 1_555 1_555
H4U C4U 1_555 1_555
H4W C4W 1_555 1_555
H4A C4A 1_555 1_555
H4C C4C 1_555 1_555
H4V C4V 1_555 1_555
H4T C4T 1_555 1_555
C5B C2B 1_555 1_555
C5U C2U 1_555 1_555
C5W C2W 1_555 1_555
C5A C2A 1_555 1_555
C5C C2C 1_555 1_555
C5V C2V 1_555 1_555
C5T C2T 1_555 1_555
H5B C5B 1_555 1_555
H5U C5U 1_555 1_555
H5W C5W 1_555 1_555
H5A C5A 1_555 1_555
H5C C5C 1_555 1_555
H5V C5V 1_555 1_555
H5T C5T 1_555 1_555
H6B C5B 1_555 1_555
H6U C5U 1_555 1_555
H6W C5W 1_555 1_555
H6A C5A 1_555 1_555
H6C C5C 1_555 1_555
H6V C5V 1_555 1_555
H6T C5T 1_555 1_555
H7B C5B 1_555 1_555
H7U C5U 1_555 1_555
H7W C5W 1_555 1_555
H7A C5A 1_555 1_555
H7C C5C 1_555 1_555
H7V C5V 1_555 1_555
H7T C5T 1_555 1_555
C2 C3 1_555 1_555
N2C C1C 1_555 1_555
C2B C3B 1_555 1_555
C2U C3U 1_555 1_555
C2W C3W 1_555 1_555
C2A C3A 1_555 1_555
C2C C3C 1_555 1_555
C2V C3V 1_555 1_555
C2T C3T 1_555 1_555

#END
