
#######################################################################
#
#                 Cambridge Crystallographic Data Centre
#                                CCDC 
#
#######################################################################
#
# If this CIF has been generated from an entry in the Cambridge 
# Structural Database, then it will include bibliographic, chemical, 
# crystal, experimental, refinement or atomic coordinate data resulting 
# from the CCDC's data processing and validation procedures.
#
#######################################################################

data_TUKVOL
_symmetry_cell_setting           monoclinic
_symmetry_space_group_name_H-M   'P 21/c'
_symmetry_Int_Tables_number      14
_space_group_name_Hall           '-P 2ybc'
loop_
_symmetry_equiv_pos_site_id
_symmetry_equiv_pos_as_xyz
1 x,y,z
2 -x,1/2+y,1/2-z
3 -x,-y,-z
4 x,1/2-y,1/2+z
_cell_length_a                   12.4369(3)
_cell_length_b                   13.4869(3)
_cell_length_c                   17.8943(3)
_cell_angle_alpha                90
_cell_angle_beta                 90.7090(10)
_cell_angle_gamma                90
_cell_volume                     3001.27
loop_
_atom_site_label
_atom_site_type_symbol
_atom_site_fract_x
_atom_site_fract_y
_atom_site_fract_z
B1 B -0.2216(2) 0.8669(2) 0.87822(16)
C1 C -0.2479(3) 1.1601(2) 1.12997(17)
H1 H -0.3051 1.1700 1.0934
H2 H -0.1829 1.1444 1.1030
C2 C -0.2307(4) 1.2546(3) 1.1716(2)
H3 H -0.2024 1.3006 1.1344
C3 C -0.3241(4) 1.3013(3) 1.1982(3)
H4 H -0.3012 1.3532 1.2324
H5 H -0.3630 1.2528 1.2274
C4 C -0.4021(3) 1.3463(3) 1.1441(3)
H6 H -0.3676 1.3990 1.1175
H7 H -0.4625 1.3722 1.1707
H8 H -0.4264 1.2967 1.1094
O1 O -0.27482(19) 1.07837(15) 1.17572(12)
H9 H -0.340(3) 1.070(2) 1.1752(18)
N1 N -0.18362(16) 0.86362(14) 0.96059(11)
N2 N -0.17801(18) 0.89217(16) 1.08536(11)
C5 C -0.2264(2) 0.90948(19) 1.02114(15)
H10 H -0.2862 0.9506 1.0172
C6 C -0.0952(2) 0.82764(19) 1.06708(14)
C7 C -0.0164(2) 0.7849(2) 1.11310(15)
H11 H -0.0145 0.7970 1.1643
C8 C 0.0577(2) 0.7247(2) 1.08036(17)
H12 H 0.1106 0.6952 1.1100
C9 C 0.0562(2) 0.7064(2) 1.00392(16)
H13 H 0.1084 0.6655 0.9836
C10 C -0.0214(2) 0.74759(19) 0.95760(15)
H14 H -0.0227 0.7349 0.9065
C11 C -0.0973(2) 0.80882(19) 0.99038(14)
N3 N -0.23425(16) 0.75826(15) 0.85057(11)
N4 N -0.21903(18) 0.62252(16) 0.77696(12)
C12 C -0.1968(2) 0.7162(2) 0.78645(14)
H15 H -0.1578 0.7522 0.7517
C13 C -0.2853(2) 0.67995(19) 0.88686(14)
C14 C -0.3381(2) 0.6743(2) 0.95449(15)
H16 H -0.3462 0.7296 0.9850
C15 C -0.3781(2) 0.5829(2) 0.97435(16)
H17 H -0.4145 0.5767 1.0192
C16 C -0.3658(2) 0.4997(2) 0.92973(18)
H18 H -0.3924 0.4390 0.9458
C17 C -0.3154(2) 0.5053(2) 0.86270(17)
H19 H -0.3080 0.4497 0.8324
C18 C -0.2756(2) 0.59661(19) 0.84127(14)
N5 N -0.13694(17) 0.92164(14) 0.83139(10)
N6 N 0.02314(17) 0.98985(15) 0.80035(12)
C19 C -0.0374(2) 0.95357(18) 0.85308(15)
H20 H -0.0138 0.9498 0.9025
C20 C -0.0413(2) 0.98154(17) 0.73604(14)
C21 C -0.0177(2) 1.00409(18) 0.66229(15)
H21 H 0.0483 1.0314 0.6496
C22 C -0.0946(3) 0.9849(2) 0.60888(16)
H22 H -0.0800 0.9978 0.5590
C23 C -0.1938(3) 0.9465(2) 0.62794(17)
H23 H -0.2444 0.9346 0.5903
C24 C -0.2201(2) 0.9254(2) 0.70019(16)
H24 H -0.2878 0.9017 0.7125
C25 C -0.1406(2) 0.94117(18) 0.75449(14)
N7 N -0.33027(16) 0.92034(15) 0.87046(11)
N8 N -0.50575(19) 0.94269(19) 0.84085(14)
C26 C -0.4253(2) 0.8809(2) 0.84614(15)
H25 H -0.4323 0.8141 0.8341
C27 C -0.3537(2) 1.0208(2) 0.88135(14)
C28 C -0.2909(2) 1.1007(2) 0.90592(15)
H26 H -0.2182 1.0934 0.9174
C29 C -0.3422(3) 1.1910(2) 0.91229(18)
H27 H -0.3032 1.2457 0.9290
C30 C -0.4500(3) 1.2024(3) 0.8946(2)
H28 H -0.4812 1.2647 0.8996
C31 C -0.5121(3) 1.1257(2) 0.87005(18)
H29 H -0.5845 1.1343 0.8582
C32 C -0.4625(2) 1.0339(2) 0.86362(15)
Li1 Li -0.1802(3) 0.9651(3) 1.1872(2)
N9 N -0.1442(3) 1.2437(2) 1.22616(19)
H30 H -0.1415 1.2974 1.2550
H31 H -0.0825 1.2374 1.2019
B1B B 0.2216(2) 1.1331(2) 1.12178(16)
C1B C 0.2479(3) 0.8399(2) 0.87003(17)
H1B H 0.3051 0.8300 0.9066
H2B H 0.1829 0.8556 0.8970
C2B C 0.2307(4) 0.7454(3) 0.8284(2)
H3B H 0.2024 0.6994 0.8656
C3B C 0.3241(4) 0.6987(3) 0.8018(3)
H4B H 0.3012 0.6468 0.7676
H5B H 0.3630 0.7472 0.7726
C4B C 0.4021(3) 0.6537(3) 0.8559(3)
H6B H 0.3676 0.6010 0.8825
H7B H 0.4625 0.6278 0.8293
H8B H 0.4264 0.7033 0.8906
O1B O 0.27482(19) 0.92163(15) 0.82428(12)
H9B H 0.340(3) 0.930(2) 0.8248(18)
N1B N 0.18362(16) 1.13638(14) 1.03941(11)
N2B N 0.17801(18) 1.10783(16) 0.91464(11)
C5B C 0.2264(2) 1.09052(19) 0.97886(15)
H10B H 0.2862 1.0494 0.9828
C6B C 0.0952(2) 1.17236(19) 0.93292(14)
C7B C 0.0164(2) 1.2151(2) 0.88690(15)
H11B H 0.0145 1.2030 0.8357
C8B C -0.0577(2) 1.2753(2) 0.91964(17)
H12B H -0.1106 1.3048 0.8900
C9B C -0.0562(2) 1.2936(2) 0.99608(16)
H13B H -0.1084 1.3345 1.0164
C10B C 0.0214(2) 1.25241(19) 1.04240(15)
H14B H 0.0227 1.2651 1.0935
C11B C 0.0973(2) 1.19118(19) 1.00962(14)
N3B N 0.23425(16) 1.24174(15) 1.14943(11)
N4B N 0.21903(18) 1.37748(16) 1.22304(12)
N4A N 0.21903(18) 1.12252(16) 0.72304(12)
N4C N -0.21903(18) 0.87748(16) 1.27696(12)
C12B C 0.1968(2) 1.2838(2) 1.21355(14)
H15B H 0.1578 1.2478 1.2483
C13B C 0.2853(2) 1.32005(19) 1.11314(14)
C14B C 0.3381(2) 1.3257(2) 1.04551(15)
H16B H 0.3462 1.2704 1.0150
C15B C 0.3781(2) 1.4171(2) 1.02565(16)
H17B H 0.4145 1.4233 0.9808
C16B C 0.3658(2) 1.5003(2) 1.07027(18)
H18B H 0.3924 1.5610 1.0542
C17B C 0.3154(2) 1.4947(2) 1.13730(17)
H19B H 0.3080 1.5503 1.1676
C18B C 0.2756(2) 1.40339(19) 1.15873(14)
N5B N 0.13694(17) 1.07836(14) 1.16861(10)
N6B N -0.02314(17) 1.01015(15) 1.19965(12)
C19B C 0.0374(2) 1.04643(18) 1.14692(15)
H20B H 0.0138 1.0502 1.0975
C20B C 0.0413(2) 1.01846(17) 1.26396(14)
C21B C 0.0177(2) 0.99591(18) 1.33771(15)
H21B H -0.0483 0.9686 1.3504
C22B C 0.0946(3) 1.0151(2) 1.39112(16)
H22B H 0.0800 1.0022 1.4410
C23B C 0.1938(3) 1.0535(2) 1.37206(17)
H23B H 0.2444 1.0654 1.4097
C24B C 0.2201(2) 1.0746(2) 1.29981(16)
H24B H 0.2878 1.0983 1.2875
C25B C 0.1406(2) 1.05883(18) 1.24551(14)
N7B N 0.33027(16) 1.07966(15) 1.12954(11)
N8B N 0.50575(19) 1.05731(19) 1.15915(14)
C26B C 0.4253(2) 1.1191(2) 1.15386(15)
H25B H 0.4323 1.1859 1.1659
C27B C 0.3537(2) 0.9792(2) 1.11865(14)
C28B C 0.2909(2) 0.8993(2) 1.09408(15)
H26B H 0.2182 0.9066 1.0826
C29B C 0.3422(3) 0.8090(2) 1.08771(18)
H27B H 0.3032 0.7543 1.0710
C30B C 0.4500(3) 0.7976(3) 1.1054(2)
H28B H 0.4812 0.7353 1.1004
C31B C 0.5121(3) 0.8743(2) 1.12995(18)
H29B H 0.5845 0.8657 1.1418
C32B C 0.4625(2) 0.9661(2) 1.13638(15)
Li1B Li 0.1802(3) 1.0349(3) 0.8128(2)
Li1A Li 0.1802(3) 1.4651(3) 1.3128(2)
Li1C Li -0.1802(3) 0.5349(3) 0.6872(2)
N9B N 0.1442(3) 0.7563(2) 0.77384(19)
H30B H 0.1415 0.7026 0.7450
H31B H 0.0825 0.7626 0.7981
loop_
_geom_bond_atom_site_label_1
_geom_bond_atom_site_label_2
_geom_bond_site_symmetry_1
_geom_bond_site_symmetry_2
B1 N1 1_555 1_555
C1 H1 1_555 1_555
H2 C1 1_555 1_555
C2 C1 1_555 1_555
H3 C2 1_555 1_555
C3 C2 1_555 1_555
H4 C3 1_555 1_555
H5 C3 1_555 1_555
C4 C3 1_555 1_555
H6 C4 1_555 1_555
H7 C4 1_555 1_555
H8 C4 1_555 1_555
O1 C1 1_555 1_555
H9 O1 1_555 1_555
N1 C5 1_555 1_555
N2 C5 1_555 1_555
C5 H10 1_555 1_555
C6 N2 1_555 1_555
C7 C6 1_555 1_555
H11 C7 1_555 1_555
C8 C7 1_555 1_555
H12 C8 1_555 1_555
C9 C8 1_555 1_555
H13 C9 1_555 1_555
C10 C9 1_555 1_555
H14 C10 1_555 1_555
C11 N1 1_555 1_555
N3 B1 1_555 1_555
N4 C12 1_555 1_555
C12 N3 1_555 1_555
H15 C12 1_555 1_555
C13 N3 1_555 1_555
C14 C13 1_555 1_555
H16 C14 1_555 1_555
C15 C14 1_555 1_555
H17 C15 1_555 1_555
C16 C15 1_555 1_555
H18 C16 1_555 1_555
C17 C16 1_555 1_555
H19 C17 1_555 1_555
C18 N4 1_555 1_555
N5 B1 1_555 1_555
N6 C19 1_555 1_555
C19 N5 1_555 1_555
H20 C19 1_555 1_555
C20 N6 1_555 1_555
C21 C20 1_555 1_555
H21 C21 1_555 1_555
C22 C21 1_555 1_555
H22 C22 1_555 1_555
C23 C22 1_555 1_555
H23 C23 1_555 1_555
C24 C23 1_555 1_555
H24 C24 1_555 1_555
C25 N5 1_555 1_555
N7 B1 1_555 1_555
N8 C26 1_555 1_555
C26 N7 1_555 1_555
H25 C26 1_555 1_555
C27 N7 1_555 1_555
C28 C27 1_555 1_555
H26 C28 1_555 1_555
C29 C28 1_555 1_555
H27 C29 1_555 1_555
C30 C29 1_555 1_555
H28 C30 1_555 1_555
C31 C30 1_555 1_555
H29 C31 1_555 1_555
C32 N8 1_555 1_555
Li1 O1 1_555 1_555
N9 C2 1_555 1_555
H30 N9 1_555 1_555
H31 N9 1_555 1_555
B1B N1B 1_555 1_555
C1B H1B 1_555 1_555
H2B C1B 1_555 1_555
C2B C1B 1_555 1_555
H3B C2B 1_555 1_555
C3B C2B 1_555 1_555
H4B C3B 1_555 1_555
H5B C3B 1_555 1_555
C4B C3B 1_555 1_555
H6B C4B 1_555 1_555
H7B C4B 1_555 1_555
H8B C4B 1_555 1_555
O1B C1B 1_555 1_555
H9B O1B 1_555 1_555
N1B C5B 1_555 1_555
N2B C5B 1_555 1_555
C5B H10B 1_555 1_555
C6B N2B 1_555 1_555
C7B C6B 1_555 1_555
H11B C7B 1_555 1_555
C8B C7B 1_555 1_555
H12B C8B 1_555 1_555
C9B C8B 1_555 1_555
H13B C9B 1_555 1_555
C10B C9B 1_555 1_555
H14B C10B 1_555 1_555
C11B N1B 1_555 1_555
N3B B1B 1_555 1_555
N4B C12B 1_555 1_555
N4A Li1B 1_555 1_555
N4C Li1 1_555 1_555
C12B N3B 1_555 1_555
H15B C12B 1_555 1_555
C13B N3B 1_555 1_555
C14B C13B 1_555 1_555
H16B C14B 1_555 1_555
C15B C14B 1_555 1_555
H17B C15B 1_555 1_555
C16B C15B 1_555 1_555
H18B C16B 1_555 1_555
C17B C16B 1_555 1_555
H19B C17B 1_555 1_555
C18B N4B 1_555 1_555
N5B B1B 1_555 1_555
N6B Li1 1_555 1_555
C19B N5B 1_555 1_555
H20B C19B 1_555 1_555
C20B N6B 1_555 1_555
C21B C20B 1_555 1_555
H21B C21B 1_555 1_555
C22B C21B 1_555 1_555
H22B C22B 1_555 1_555
C23B C22B 1_555 1_555
H23B C23B 1_555 1_555
C24B C23B 1_555 1_555
H24B C24B 1_555 1_555
C25B N5B 1_555 1_555
N7B B1B 1_555 1_555
N8B C26B 1_555 1_555
C26B N7B 1_555 1_555
H25B C26B 1_555 1_555
C27B N7B 1_555 1_555
C28B C27B 1_555 1_555
H26B C28B 1_555 1_555
C29B C28B 1_555 1_555
H27B C29B 1_555 1_555
C30B C29B 1_555 1_555
H28B C30B 1_555 1_555
C31B C30B 1_555 1_555
H29B C31B 1_555 1_555
C32B N8B 1_555 1_555
Li1B N6 1_555 1_555
Li1A N4B 1_555 1_555
Li1C N4 1_555 1_555
N9B C2B 1_555 1_555
H30B N9B 1_555 1_555
H31B N9B 1_555 1_555
N2 Li1 1_555 1_555
C6 C11 1_555 1_555
C10 C11 1_555 1_555
C13 C18 1_555 1_555
C17 C18 1_555 1_555
C20 C25 1_555 1_555
C24 C25 1_555 1_555
C27 C32 1_555 1_555
C31 C32 1_555 1_555
O1B Li1B 1_555 1_555
N2B Li1B 1_555 1_555
C6B C11B 1_555 1_555
C10B C11B 1_555 1_555
C13B C18B 1_555 1_555
C17B C18B 1_555 1_555
N6B C19B 1_555 1_555
C20B C25B 1_555 1_555
C24B C25B 1_555 1_555
C27B C32B 1_555 1_555
C31B C32B 1_555 1_555

#END
