
#######################################################################
#
#                 Cambridge Crystallographic Data Centre
#                                CCDC 
#
#######################################################################
#
# If this CIF has been generated from an entry in the Cambridge 
# Structural Database, then it will include bibliographic, chemical, 
# crystal, experimental, refinement or atomic coordinate data resulting 
# from the CCDC's data processing and validation procedures.
#
#######################################################################

data_TULBEI
_symmetry_cell_setting           monoclinic
_symmetry_space_group_name_H-M   'P 21/n'
_symmetry_Int_Tables_number      14
_space_group_name_Hall           '-P 2yn'
loop_
_symmetry_equiv_pos_site_id
_symmetry_equiv_pos_as_xyz
1 x,y,z
2 1/2-x,1/2+y,1/2-z
3 -x,-y,-z
4 1/2+x,1/2-y,1/2+z
_cell_length_a                   12.4029(3)
_cell_length_b                   6.97800(10)
_cell_length_c                   26.3531(4)
_cell_angle_alpha                90
_cell_angle_beta                 100.2150(10)
_cell_angle_gamma                90
_cell_volume                     2244.64
loop_
_atom_site_label
_atom_site_type_symbol
_atom_site_fract_x
_atom_site_fract_y
_atom_site_fract_z
Bi1 Bi 0.73131(2) 0.39829(4) 0.201907(9)
O1 O 0.5537(4) 0.5626(6) 0.20183(17)
O2 O 0.5524(4) 0.2507(6) 0.19622(17)
O3 O 0.4102(5) 0.1511(9) 0.1008(2)
O4 O 0.3747(6) -0.0528(8) 0.1575(3)
O5 O 0.6571(4) 0.4381(7) 0.11507(17)
O6 O 0.8270(4) 0.3435(7) 0.12851(17)
O7 O 0.9634(5) 0.5158(8) 0.0740(2)
O8 O 1.0017(5) 0.2483(9) 0.0400(2)
O9 O 0.7620(4) 0.0516(6) 0.20445(16)
O10 O 0.7763(4) -0.2618(6) 0.20456(15)
O11 O 0.9713(4) -0.0911(9) 0.17740(18)
O12 O 1.0417(4) -0.1067(9) 0.1095(2)
O13 O 0.9336(4) 0.4070(8) 0.24475(17)
N1 N 0.3716(5) 0.1056(11) 0.1386(2)
N2 N 0.9374(5) 0.3765(10) 0.0462(2)
N3 N 0.9630(5) -0.1013(10) 0.1308(2)
C1 C 0.5030(5) 0.4061(11) 0.1962(2)
C2 C 0.3805(5) 0.4067(10) 0.1894(2)
C3 C 0.3178(6) 0.2621(10) 0.1628(2)
C4 C 0.2060(6) 0.2547(13) 0.1573(3)
H1 H 0.1659 0.1509 0.1398
C5 C 0.1537(7) 0.4012(15) 0.1775(3)
H2 H 0.0759 0.4021 0.1725
C6 C 0.2118(6) 0.5481(12) 0.2051(3)
H3 H 0.1746 0.6465 0.2199
C7 C 0.3254(6) 0.5498(10) 0.2108(3)
H4 H 0.3658 0.6504 0.2297
C8 C 0.7412(6) 0.3909(11) 0.0985(2)
C9 C 0.7354(6) 0.3824(10) 0.0416(2)
C10 C 0.8262(6) 0.3656(11) 0.0175(3)
C11 C 0.8169(7) 0.3452(11) -0.0353(3)
H5 H 0.8803 0.3300 -0.0505
C12 C 0.7142(7) 0.3475(11) -0.0653(3)
H6 H 0.7067 0.3365 -0.1017
C13 C 0.6220(7) 0.3656(11) -0.0434(3)
H7 H 0.5513 0.3669 -0.0643
C14 C 0.6336(6) 0.3820(10) 0.0100(2)
H8 H 0.5698 0.3933 0.0251
C15 C 0.7693(5) -0.1006(10) 0.1810(2)
C16 C 0.7624(5) -0.1035(10) 0.1240(2)
C17 C 0.8531(5) -0.1045(10) 0.0997(2)
C18 C 0.8426(7) -0.1097(11) 0.0463(2)
H9 H 0.9057 -0.1108 0.0304
C19 C 0.7397(7) -0.1133(11) 0.0167(3)
H10 H 0.7310 -0.1197 -0.0198
C20 C 0.6492(7) -0.1075(11) 0.0403(3)
H11 H 0.5784 -0.1088 0.0194
C21 C 0.6574(5) -0.1000(11) 0.0922(2)
H12 H 0.5933 -0.0925 0.1072
H13 H 0.951(6) 0.502(7) 0.264(2)
H14 H 0.951(5) 0.313(6) 0.265(2)
Bi1A Bi 0.76869(2) -0.10171(4) 0.298093(9)
Bi1_2 Bi 0.73131(2) -0.60171(4) 0.201907(9)
O9A O 0.7380(4) 0.5516(6) 0.29555(16)
O10_2 O 0.7763(4) 0.7382(6) 0.20456(15)
O10A O 0.7237(4) 0.2382(6) 0.29544(15)
loop_
_geom_bond_atom_site_label_1
_geom_bond_atom_site_label_2
_geom_bond_site_symmetry_1
_geom_bond_site_symmetry_2
Bi1 O1 1_555 1_555
O1 C1 1_555 1_555
O2 Bi1 1_555 1_555
O3 N1 1_555 1_555
O4 N1 1_555 1_555
O5 Bi1 1_555 1_555
O6 Bi1 1_555 1_555
O7 N2 1_555 1_555
O8 N2 1_555 1_555
O9 Bi1 1_555 1_555
O10 C15 1_555 1_555
O11 N3 1_555 1_555
O12 N3 1_555 1_555
O13 Bi1 1_555 1_555
N1 C3 1_555 1_555
N2 C10 1_555 1_555
N3 C17 1_555 1_555
C1 O2 1_555 1_555
C2 C1 1_555 1_555
C3 C2 1_555 1_555
C4 C3 1_555 1_555
H1 C4 1_555 1_555
C5 C4 1_555 1_555
H2 C5 1_555 1_555
C6 C5 1_555 1_555
H3 C6 1_555 1_555
C7 C2 1_555 1_555
H4 C7 1_555 1_555
C8 O5 1_555 1_555
C9 C8 1_555 1_555
C10 C9 1_555 1_555
C11 C10 1_555 1_555
H5 C11 1_555 1_555
C12 C11 1_555 1_555
H6 C12 1_555 1_555
C13 C12 1_555 1_555
H7 C13 1_555 1_555
C14 C9 1_555 1_555
H8 C14 1_555 1_555
C15 O9 1_555 1_555
C16 C15 1_555 1_555
C17 C16 1_555 1_555
C18 C17 1_555 1_555
H9 C18 1_555 1_555
C19 C18 1_555 1_555
H10 C19 1_555 1_555
C20 C19 1_555 1_555
H11 C20 1_555 1_555
C21 C16 1_555 1_555
H12 C21 1_555 1_555
H13 O13 1_555 1_555
H14 O13 1_555 1_555
Bi1A O9 1_555 1_555
Bi1_2 O10 1_555 1_555
O9A Bi1 1_555 1_555
O10_2 Bi1 1_555 1_555
O10A Bi1 1_555 1_555
O6 C8 1_555 1_555
O10 Bi1A 1_555 1_555
C6 C7 1_555 1_555
C13 C14 1_555 1_555
C20 C21 1_555 1_555
Bi1A O10A 1_555 1_555

#END
