
#######################################################################
#
#                 Cambridge Crystallographic Data Centre
#                                CCDC 
#
#######################################################################
#
# If this CIF has been generated from an entry in the Cambridge 
# Structural Database, then it will include bibliographic, chemical, 
# crystal, experimental, refinement or atomic coordinate data resulting 
# from the CCDC's data processing and validation procedures.
#
#######################################################################

data_TULDUA
_symmetry_cell_setting           monoclinic
_symmetry_space_group_name_H-M   'C 2/c'
_symmetry_Int_Tables_number      15
_space_group_name_Hall           '-C 2yn'
loop_
_symmetry_equiv_pos_site_id
_symmetry_equiv_pos_as_xyz
1 x,y,z
2 -x,y,1/2-z
3 1/2+x,1/2+y,z
4 1/2-x,1/2+y,1/2-z
5 -x,-y,-z
6 x,-y,1/2+z
7 1/2-x,1/2-y,-z
8 1/2+x,1/2-y,1/2+z
_cell_length_a                   17.7227(18)
_cell_length_b                   10.9183(12)
_cell_length_c                   16.0694(17)
_cell_angle_alpha                90
_cell_angle_beta                 104.505(6)
_cell_angle_gamma                90
_cell_volume                     3010.35
loop_
_atom_site_label
_atom_site_type_symbol
_atom_site_fract_x
_atom_site_fract_y
_atom_site_fract_z
K1 K 1.0000 0.94618(8) 0.7500
N1 N 0.90959(13) 0.7269(2) 0.67930(14)
N2 N 0.91507(13) 0.91827(19) 0.56864(14)
N3 N 0.98285(13) 1.1425(2) 0.62488(14)
N4 N 0.84561(13) 0.79414(19) 0.45184(14)
N5 N 0.87738(13) 1.0000(2) 0.42545(14)
N6 N 0.82309(13) 0.9581(2) 0.25162(15)
C1 C 0.90538(16) 0.6331(2) 0.73131(18)
H1 H 0.9267 0.6436 0.7899
C2 C 0.87155(16) 0.5216(3) 0.70387(19)
H2 H 0.8694 0.4597 0.7430
C3 C 0.84092(17) 0.5041(3) 0.61686(19)
H3 H 0.8188 0.4294 0.5960
C4 C 0.84366(16) 0.5997(2) 0.56132(19)
H4 H 0.8228 0.5904 0.5025
C5 C 0.87807(15) 0.7106(2) 0.59432(17)
C6 C 0.88043(15) 0.8144(2) 0.53549(17)
C7 C 0.84792(15) 0.8906(2) 0.39991(17)
C8 C 0.91234(15) 1.0101(2) 0.51091(17)
C9 C 0.94564(15) 1.1294(2) 0.54040(17)
C10 C 0.93945(16) 1.2268(2) 0.48171(18)
H5 H 0.9146 1.2153 0.4240
C11 C 0.97048(17) 1.3387(2) 0.51038(19)
H6 H 0.9656 1.4046 0.4728
C12 C 1.00927(17) 1.3522(3) 0.59631(19)
H7 H 1.0314 1.4268 0.6173
C13 C 1.01421(16) 1.2521(2) 0.64968(18)
H8 H 1.0412 1.2615 0.7069
C14 C 0.81307(15) 0.8695(2) 0.30639(17)
C15 C 0.77347(16) 0.7615(2) 0.27885(18)
H9 H 0.7684 0.7018 0.3184
C16 C 0.74151(16) 0.7433(2) 0.19185(18)
H10 H 0.7144 0.6719 0.1720
C17 C 0.75087(16) 0.8339(3) 0.13544(18)
H11 H 0.7302 0.8245 0.0766
C18 C 0.79160(16) 0.9389(3) 0.16778(18)
H12 H 0.7974 0.9995 0.1291
K1D K 1.0000 1.05382(8) 0.2500
K1D_2 K 1.0000 1.05382(8) 1.2500
N1A N 1.09041(13) 0.7269(2) 0.82070(14)
N2A N 1.08493(13) 0.91827(19) 0.93136(14)
N3A N 1.01715(13) 1.1425(2) 0.87512(14)
N4A N 1.15439(13) 0.79414(19) 1.04816(14)
N5A N 1.12262(13) 1.0000(2) 1.07455(14)
N6A N 1.17691(13) 0.9581(2) 1.24838(15)
N6D N 1.17691(13) 1.0419(2) 0.74838(15)
N6E N 0.82309(13) 1.0419(2) 0.75162(15)
C1A C 1.09462(16) 0.6331(2) 0.76869(18)
H1A H 1.0733 0.6436 0.7101
C2A C 1.12845(16) 0.5216(3) 0.79613(19)
H2A H 1.1306 0.4597 0.7570
C3A C 1.15908(17) 0.5041(3) 0.88314(19)
H3A H 1.1812 0.4294 0.9040
C4A C 1.15634(16) 0.5997(2) 0.93868(19)
H4A H 1.1772 0.5904 0.9975
C5A C 1.12193(15) 0.7106(2) 0.90568(17)
C6A C 1.11957(15) 0.8144(2) 0.96451(17)
C7A C 1.15208(15) 0.8906(2) 1.10009(17)
C8A C 1.08766(15) 1.0101(2) 0.98909(17)
C9A C 1.05436(15) 1.1294(2) 0.95960(17)
C10A C 1.06055(16) 1.2268(2) 1.01829(18)
H5A H 1.0854 1.2153 1.0760
C11A C 1.02952(17) 1.3387(2) 0.98962(19)
H6A H 1.0344 1.4046 1.0272
C12A C 0.99073(17) 1.3522(3) 0.90369(19)
H7A H 0.9686 1.4268 0.8827
C13A C 0.98579(16) 1.2521(2) 0.85032(18)
H8A H 0.9588 1.2615 0.7931
C14A C 1.18693(15) 0.8695(2) 1.19361(17)
C15A C 1.22653(16) 0.7615(2) 1.22115(18)
H9A H 1.2316 0.7018 1.1816
C16A C 1.25849(16) 0.7433(2) 1.30815(18)
H10A H 1.2856 0.6719 1.3280
C17A C 1.24913(16) 0.8339(3) 1.36456(18)
H11A H 1.2698 0.8245 1.4234
C18A C 1.20840(16) 0.9389(3) 1.33222(18)
H12A H 1.2026 0.9995 1.3709
loop_
_geom_bond_atom_site_label_1
_geom_bond_atom_site_label_2
_geom_bond_site_symmetry_1
_geom_bond_site_symmetry_2
K1 N1 1_555 1_555
N1 C1 1_555 1_555
N2 K1 1_555 1_555
N3 K1 1_555 1_555
N4 C6 1_555 1_555
N5 C7 1_555 1_555
N6 C14 1_555 1_555
C1 H1 1_555 1_555
C2 C1 1_555 1_555
H2 C2 1_555 1_555
C3 C2 1_555 1_555
H3 C3 1_555 1_555
C4 C3 1_555 1_555
H4 C4 1_555 1_555
C5 N1 1_555 1_555
C6 N2 1_555 1_555
C7 N4 1_555 1_555
C8 N2 1_555 1_555
C9 N3 1_555 1_555
C10 C9 1_555 1_555
H5 C10 1_555 1_555
C11 C10 1_555 1_555
H6 C11 1_555 1_555
C12 C11 1_555 1_555
H7 C12 1_555 1_555
C13 N3 1_555 1_555
H8 C13 1_555 1_555
C14 C7 1_555 1_555
C15 C14 1_555 1_555
H9 C15 1_555 1_555
C16 C15 1_555 1_555
H10 C16 1_555 1_555
C17 C16 1_555 1_555
H11 C17 1_555 1_555
C18 N6 1_555 1_555
H12 C18 1_555 1_555
K1D N6 1_555 1_555
K1D_2 N6A 1_555 1_555
N1A K1 1_555 1_555
N2A K1 1_555 1_555
N3A K1 1_555 1_555
N4A C6A 1_555 1_555
N5A C7A 1_555 1_555
N6A C14A 1_555 1_555
N6D K1 1_555 1_555
N6E K1 1_555 1_555
C1A N1A 1_555 1_555
H1A C1A 1_555 1_555
C2A C1A 1_555 1_555
H2A C2A 1_555 1_555
C3A C2A 1_555 1_555
H3A C3A 1_555 1_555
C4A C3A 1_555 1_555
H4A C4A 1_555 1_555
C5A N1A 1_555 1_555
C6A N2A 1_555 1_555
C7A N4A 1_555 1_555
C8A N2A 1_555 1_555
C9A N3A 1_555 1_555
C10A C9A 1_555 1_555
H5A C10A 1_555 1_555
C11A C10A 1_555 1_555
H6A C11A 1_555 1_555
C12A C11A 1_555 1_555
H7A C12A 1_555 1_555
C13A N3A 1_555 1_555
H8A C13A 1_555 1_555
C14A C7A 1_555 1_555
C15A C14A 1_555 1_555
H9A C15A 1_555 1_555
C16A C15A 1_555 1_555
H10A C16A 1_555 1_555
C17A C16A 1_555 1_555
H11A C17A 1_555 1_555
C18A N6A 1_555 1_555
H12A C18A 1_555 1_555
N5 C8 1_555 1_555
C4 C5 1_555 1_555
C5 C6 1_555 1_555
C8 C9 1_555 1_555
C12 C13 1_555 1_555
C17 C18 1_555 1_555
N5A C8A 1_555 1_555
C4A C5A 1_555 1_555
C5A C6A 1_555 1_555
C8A C9A 1_555 1_555
C12A C13A 1_555 1_555
C17A C18A 1_555 1_555

#END
