
#######################################################################
#
#                 Cambridge Crystallographic Data Centre
#                                CCDC 
#
#######################################################################
#
# If this CIF has been generated from an entry in the Cambridge 
# Structural Database, then it will include bibliographic, chemical, 
# crystal, experimental, refinement or atomic coordinate data resulting 
# from the CCDC's data processing and validation procedures.
#
#######################################################################

data_TULGEO
_symmetry_cell_setting           monoclinic
_symmetry_space_group_name_H-M   'P 21/c'
_symmetry_Int_Tables_number      14
_space_group_name_Hall           '-P 2ybc'
loop_
_symmetry_equiv_pos_site_id
_symmetry_equiv_pos_as_xyz
1 x,y,z
2 -x,1/2+y,1/2-z
3 -x,-y,-z
4 x,1/2-y,1/2+z
_cell_length_a                   14.800(3)
_cell_length_b                   14.500(3)
_cell_length_c                   18.800(4)
_cell_angle_alpha                90
_cell_angle_beta                 91.00(3)
_cell_angle_gamma                90
_cell_volume                     4033.87
loop_
_atom_site_label
_atom_site_type_symbol
_atom_site_fract_x
_atom_site_fract_y
_atom_site_fract_z
La1 La 0.187514(12) 0.683628(12) -0.025228(9)
La2 La 0.251584(12) 0.771046(12) 0.183165(9)
O1 O 0.02563(16) 0.67950(18) 0.02366(12)
O2 O 0.12885(15) 0.68913(16) 0.10927(12)
O3 O -0.14545(18) 1.15339(15) -0.00162(13)
O4 O -0.1866(2) 1.10752(17) -0.11119(13)
O5 O -0.18162(17) 0.65554(16) 0.01026(12)
O6 O 0.29174(16) 0.61027(15) 0.15800(11)
O7 O 0.28102(18) 0.57032(16) 0.04271(12)
O8 O -0.10015(16) 0.28527(18) 0.13155(12)
O9 O -0.12214(17) 0.3080(2) 0.24704(13)
O10 O 0.30479(17) 0.48404(18) 0.29632(12)
O11 O 0.31777(16) 0.76189(17) 0.05588(12)
O12 O 0.32552(18) 0.78186(19) -0.05866(12)
O13 O 0.72940(19) 0.39256(18) 0.12246(13)
O14 O 0.69278(17) 0.39038(17) 0.23622(12)
O15 O 0.42568(16) 0.78014(17) 0.17595(12)
O16 O 0.1095(2) 0.52144(19) -0.03855(19)
H1 H 0.1188 0.5249 0.0061
H2 H 0.1565 0.5162 -0.0636
O17 O 0.2993(3) 0.68225(19) 0.29537(14)
H3 H 0.3115 0.6251 0.2927
H4 H 0.3153 0.7000 0.3368
C1 C 0.0470(2) 0.6821(2) 0.08836(17)
C2 C -0.0261(2) 0.6753(2) 0.14133(17)
C3 C -0.0069(3) 0.6482(3) 0.21087(18)
H5 H 0.0522 0.6336 0.2243
C4 C -0.0744(3) 0.6429(3) 0.2599(2)
H6 H -0.0613 0.6234 0.3061
C5 C -0.1614(3) 0.6664(3) 0.2405(2)
H7 H -0.2067 0.6650 0.2741
C6 C -0.1819(3) 0.6921(3) 0.17146(19)
H8 H -0.2410 0.7075 0.1589
C7 C -0.1155(2) 0.6952(2) 0.12098(17)
C8 C -0.1398(2) 0.8119(2) 0.01755(17)
C9 C -0.1784(3) 0.8340(2) -0.04770(18)
H9 H -0.2031 0.7877 -0.0763
C10 C -0.1806(2) 0.9246(2) -0.07060(18)
H10 H -0.2048 0.9389 -0.1152
C11 C -0.1467(2) 0.9943(2) -0.02705(17)
C12 C -0.1054(3) 0.9717(2) 0.03671(19)
H11 H -0.0802 1.0178 0.0652
C13 C -0.1010(3) 0.8812(2) 0.05858(19)
H12 H -0.0718 0.8665 0.1013
C14 C -0.1598(2) 1.0934(2) -0.04811(18)
C15 C -0.1449(2) 0.7161(2) 0.04522(17)
C16 C 0.3074(2) 0.5584(2) 0.10588(16)
C17 C 0.3643(2) 0.4746(2) 0.12177(16)
C18 C 0.4291(2) 0.4468(2) 0.07502(18)
H13 H 0.4350 0.4776 0.0319
C19 C 0.4857(3) 0.3739(3) 0.0911(2)
H14 H 0.5306 0.3568 0.0597
C20 C 0.4753(3) 0.3269(3) 0.1536(2)
H15 H 0.5127 0.2771 0.1643
C21 C 0.4097(3) 0.3531(2) 0.2008(2)
H16 H 0.4030 0.3203 0.2429
C22 C 0.3536(2) 0.4278(2) 0.18625(17)
C23 C 0.1873(2) 0.4320(2) 0.21962(17)
C24 C 0.1215(3) 0.4468(3) 0.27003(19)
H17 H 0.1359 0.4795 0.3112
C25 C 0.0351(2) 0.4135(3) 0.25979(18)
H18 H -0.0080 0.4231 0.2945
C26 C 0.0118(2) 0.3659(2) 0.19818(17)
C27 C 0.0744(2) 0.3583(3) 0.14485(18)
H19 H 0.0578 0.3318 0.1015
C28 C 0.1617(2) 0.3899(2) 0.15564(18)
H20 H 0.2039 0.3830 0.1199
C29 C -0.0774(2) 0.3175(2) 0.19129(17)
C30 C 0.2832(2) 0.4534(2) 0.23771(17)
C31 C 0.3598(2) 0.7898(2) 0.00241(17)
C32 C 0.4518(2) 0.8315(2) 0.01087(17)
C33 C 0.4846(3) 0.8820(2) -0.0459(2)
H21 H 0.4500 0.8877 -0.0874
C34 C 0.5690(3) 0.9240(3) -0.0409(2)
H22 H 0.5910 0.9577 -0.0790
C35 C 0.6200(3) 0.9155(3) 0.0210(2)
H23 H 0.6750 0.9461 0.0253
C36 C 0.5903(2) 0.8626(2) 0.0757(2)
H24 H 0.6265 0.8552 0.1162
C37 C 0.5065(2) 0.8194(2) 0.07168(18)
C38 C 0.5379(2) 0.6730(2) 0.14413(17)
C39 C 0.5959(2) 0.6418(2) 0.09223(17)
H25 H 0.6019 0.6751 0.0503
C40 C 0.6447(2) 0.5617(2) 0.10250(17)
H26 H 0.6824 0.5405 0.0670
C41 C 0.6378(2) 0.5127(2) 0.16518(16)
C42 C 0.5797(2) 0.5434(2) 0.21752(18)
H27 H 0.5751 0.5107 0.2599
C43 C 0.5286(2) 0.6226(2) 0.20672(18)
H28 H 0.4884 0.6420 0.2411
C44 C 0.6912(2) 0.4245(2) 0.17540(17)
C45 C 0.4836(2) 0.7585(2) 0.13353(17)
La1B La -0.187514(12) 0.316372(12) 0.025228(9)
La1B_2 La -0.187514(12) 1.316372(12) 0.025228(9)
La1B_3 La 0.812486(12) 0.316372(12) 0.025228(9)
La2A La -0.251584(12) 0.271046(12) 0.316835(9)
La2A_2 La 0.748416(12) 0.271046(12) 0.316835(9)
La2B La -0.251584(12) 1.228954(12) -0.183165(9)
O3B O 0.14545(18) 0.84661(15) 0.00162(13)
O4B O 0.1866(2) 0.89248(17) 0.11119(13)
O8B O 0.10015(16) 0.71473(18) -0.13155(12)
O9A O 0.12214(17) 0.8080(2) 0.25296(13)
O13B O 0.27060(19) 0.60744(18) -0.12246(13)
O14A O 0.30722(17) 0.89038(17) 0.26378(12)
loop_
_geom_bond_atom_site_label_1
_geom_bond_atom_site_label_2
_geom_bond_site_symmetry_1
_geom_bond_site_symmetry_2
La1 O1 1_555 1_555
La2 O2 1_555 1_555
O1 C1 1_555 1_555
O2 La1 1_555 1_555
O3 C14 1_555 1_555
O4 C14 1_555 1_555
O5 C15 1_555 1_555
O6 La2 1_555 1_555
O7 La1 1_555 1_555
O8 C29 1_555 1_555
O9 C29 1_555 1_555
O10 C30 1_555 1_555
O11 La1 1_555 1_555
O12 La1 1_555 1_555
O13 C44 1_555 1_555
O14 C44 1_555 1_555
O15 La2 1_555 1_555
O16 La1 1_555 1_555
H1 O16 1_555 1_555
H2 O16 1_555 1_555
O17 La2 1_555 1_555
H3 O17 1_555 1_555
H4 O17 1_555 1_555
C1 O2 1_555 1_555
C2 C1 1_555 1_555
C3 C2 1_555 1_555
H5 C3 1_555 1_555
C4 C3 1_555 1_555
H6 C4 1_555 1_555
C5 C4 1_555 1_555
H7 C5 1_555 1_555
C6 C5 1_555 1_555
H8 C6 1_555 1_555
C7 C2 1_555 1_555
C8 C9 1_555 1_555
C9 H9 1_555 1_555
C10 C9 1_555 1_555
H10 C10 1_555 1_555
C11 C10 1_555 1_555
C12 C11 1_555 1_555
H11 C12 1_555 1_555
C13 C8 1_555 1_555
H12 C13 1_555 1_555
C14 C11 1_555 1_555
C15 C7 1_555 1_555
C16 O6 1_555 1_555
C17 C16 1_555 1_555
C18 C17 1_555 1_555
H13 C18 1_555 1_555
C19 C18 1_555 1_555
H14 C19 1_555 1_555
C20 C19 1_555 1_555
H15 C20 1_555 1_555
C21 C20 1_555 1_555
H16 C21 1_555 1_555
C22 C17 1_555 1_555
C23 C24 1_555 1_555
C24 H17 1_555 1_555
C25 C24 1_555 1_555
H18 C25 1_555 1_555
C26 C25 1_555 1_555
C27 C26 1_555 1_555
H19 C27 1_555 1_555
C28 C23 1_555 1_555
H20 C28 1_555 1_555
C29 C26 1_555 1_555
C30 C22 1_555 1_555
C31 O11 1_555 1_555
C32 C31 1_555 1_555
C33 C32 1_555 1_555
H21 C33 1_555 1_555
C34 C33 1_555 1_555
H22 C34 1_555 1_555
C35 C34 1_555 1_555
H23 C35 1_555 1_555
C36 C35 1_555 1_555
H24 C36 1_555 1_555
C37 C32 1_555 1_555
C38 C39 1_555 1_555
C39 H25 1_555 1_555
C40 C39 1_555 1_555
H26 C40 1_555 1_555
C41 C40 1_555 1_555
C42 C41 1_555 1_555
H27 C42 1_555 1_555
C43 C38 1_555 1_555
H28 C43 1_555 1_555
C44 C41 1_555 1_555
C45 O15 1_555 1_555
La1B O8 1_555 1_555
La1B_2 O3 1_555 1_555
La1B_3 O13 1_555 1_555
La2A O9 1_555 1_555
La2A_2 O14 1_555 1_555
La2B O4 1_555 1_555
O3B La1 1_555 1_555
O4B La2 1_555 1_555
O8B La1 1_555 1_555
O9A La2 1_555 1_555
O13B La1 1_555 1_555
O14A La2 1_555 1_555
La2 O11 1_555 1_555
O7 C16 1_555 1_555
O12 C31 1_555 1_555
C6 C7 1_555 1_555
C8 C15 1_555 1_555
C12 C13 1_555 1_555
C21 C22 1_555 1_555
C23 C30 1_555 1_555
C27 C28 1_555 1_555
C36 C37 1_555 1_555
C37 C45 1_555 1_555
C38 C45 1_555 1_555
C42 C43 1_555 1_555

#END
