
#######################################################################
#
#                 Cambridge Crystallographic Data Centre
#                                CCDC 
#
#######################################################################
#
# If this CIF has been generated from an entry in the Cambridge 
# Structural Database, then it will include bibliographic, chemical, 
# crystal, experimental, refinement or atomic coordinate data resulting 
# from the CCDC's data processing and validation procedures.
#
#######################################################################

data_TULKER
_symmetry_cell_setting           orthorhombic
_symmetry_space_group_name_H-M   'P 21 21 21'
_symmetry_Int_Tables_number      19
_space_group_name_Hall           'P 2ac 2ab'
loop_
_symmetry_equiv_pos_site_id
_symmetry_equiv_pos_as_xyz
1 x,y,z
2 1/2-x,-y,1/2+z
3 -x,1/2+y,1/2-z
4 1/2+x,1/2-y,-z
_cell_length_a                   8.2181(8)
_cell_length_b                   13.3972(13)
_cell_length_c                   18.4380(18)
_cell_angle_alpha                90
_cell_angle_beta                 90
_cell_angle_gamma                90
_cell_volume                     2030.02
loop_
_atom_site_label
_atom_site_type_symbol
_atom_site_fract_x
_atom_site_fract_y
_atom_site_fract_z
Ag1 Ag 0.45775(2) 0.634795(14) 0.217177(10)
N1 N 0.4145(2) 0.53147(15) 0.05659(11)
N2 N 0.5023(2) 0.60502(16) 0.09036(11)
N3 N 0.5667(3) 0.60309(16) -0.02846(12)
N4 N 0.1545(3) 0.51857(15) 0.13319(12)
N5 N 0.1816(3) 0.59660(17) 0.17954(12)
N6 N -0.0884(3) 0.57212(17) 0.16861(12)
N7 N 0.3940(3) 0.40342(15) 0.15795(11)
N8 N 0.4573(3) 0.45035(15) 0.21805(11)
N9 N 0.5041(3) 0.28505(16) 0.22622(11)
B1 B 0.2982(3) 0.4604(2) 0.09735(15)
C1 C 0.5878(3) 0.6435(2) 0.03726(15)
C2 C 0.4572(3) 0.53355(18) -0.01428(13)
C3 C 0.7067(3) 0.7280(2) 0.04875(17)
C4 C 0.3917(4) 0.4647(2) -0.07170(15)
C5 C 0.0338(3) 0.62458(19) 0.19796(13)
C6 C -0.0076(3) 0.50684(19) 0.12835(13)
C7 C 0.0065(4) 0.7120(2) 0.24780(17)
C8 C -0.0923(3) 0.4305(2) 0.08137(15)
C9 C 0.5207(3) 0.37662(19) 0.25574(13)
C10 C 0.4278(3) 0.30570(18) 0.16469(13)
C11 C 0.6134(4) 0.3958(2) 0.32587(14)
C12 C 0.4062(3) 0.22771(19) 0.10608(14)
F1 F 0.6780(2) 0.80395(13) 0.00392(11)
F2 F 0.8590(2) 0.69759(13) 0.03563(10)
F3 F 0.7012(2) 0.76255(13) 0.11638(10)
F4 F 0.4386(3) 0.49310(15) -0.13671(9)
F5 F 0.4405(3) 0.37113(13) -0.06060(10)
F6 F 0.2304(2) 0.46288(16) -0.07162(10)
F7 F 0.5193(2) 0.43641(13) 0.37585(9)
F8 F 0.7352(2) 0.45923(15) 0.31323(10)
F9 F 0.6746(2) 0.31238(13) 0.35223(10)
F10 F 0.4301(2) 0.13797(12) 0.13337(9)
F11 F 0.5179(2) 0.24309(14) 0.05477(9)
F12 F 0.2624(2) 0.22841(13) 0.07433(10)
F13 F -0.1207(2) 0.69409(16) 0.29083(12)
F14 F -0.0262(3) 0.79524(14) 0.21210(11)
F15 F 0.1344(2) 0.72871(16) 0.28882(11)
F16 F -0.2487(2) 0.42709(14) 0.09746(12)
F17 F -0.0316(2) 0.33997(11) 0.09062(9)
F18 F -0.0788(2) 0.45361(13) 0.01196(9)
H1 H 0.255(4) 0.410(2) 0.0620(15)
Ag1B Ag 0.54225(2) 0.134795(14) 0.282823(10)
N9B N 0.4959(3) 0.78505(16) 0.27378(11)
loop_
_geom_bond_atom_site_label_1
_geom_bond_atom_site_label_2
_geom_bond_site_symmetry_1
_geom_bond_site_symmetry_2
Ag1 N2 1_555 1_555
N1 N2 1_555 1_555
N2 C1 1_555 1_555
N3 C1 1_555 1_555
N4 N5 1_555 1_555
N5 Ag1 1_555 1_555
N6 C5 1_555 1_555
N7 N8 1_555 1_555
N8 Ag1 1_555 1_555
N9 C9 1_555 1_555
B1 N1 1_555 1_555
C1 C3 1_555 1_555
C2 N1 1_555 1_555
C3 F1 1_555 1_555
C4 C2 1_555 1_555
C5 N5 1_555 1_555
C6 N4 1_555 1_555
C7 C5 1_555 1_555
C8 C6 1_555 1_555
C9 N8 1_555 1_555
C10 N7 1_555 1_555
C11 C9 1_555 1_555
C12 C10 1_555 1_555
F2 C3 1_555 1_555
F3 C3 1_555 1_555
F4 C4 1_555 1_555
F5 C4 1_555 1_555
F6 C4 1_555 1_555
F7 C11 1_555 1_555
F8 C11 1_555 1_555
F9 C11 1_555 1_555
F10 C12 1_555 1_555
F11 C12 1_555 1_555
F12 C12 1_555 1_555
F13 C7 1_555 1_555
F14 C7 1_555 1_555
F15 C7 1_555 1_555
F16 C8 1_555 1_555
F17 C8 1_555 1_555
F18 C8 1_555 1_555
H1 B1 1_555 1_555
Ag1B N9 1_555 1_555
N9B Ag1 1_555 1_555
N3 C2 1_555 1_555
N4 B1 1_555 1_555
N6 C6 1_555 1_555
N7 B1 1_555 1_555
N9 C10 1_555 1_555

#END
