
#######################################################################
#
#                 Cambridge Crystallographic Data Centre
#                                CCDC 
#
#######################################################################
#
# If this CIF has been generated from an entry in the Cambridge 
# Structural Database, then it will include bibliographic, chemical, 
# crystal, experimental, refinement or atomic coordinate data resulting 
# from the CCDC's data processing and validation procedures.
#
#######################################################################

data_TULKOB
_symmetry_cell_setting           monoclinic
_symmetry_space_group_name_H-M   'C 2/c'
_symmetry_Int_Tables_number      15
_space_group_name_Hall           '-C 2yn'
loop_
_symmetry_equiv_pos_site_id
_symmetry_equiv_pos_as_xyz
1 x,y,z
2 -x,y,1/2-z
3 1/2+x,1/2+y,z
4 1/2-x,1/2+y,1/2-z
5 -x,-y,-z
6 x,-y,1/2+z
7 1/2-x,1/2-y,-z
8 1/2+x,1/2-y,1/2+z
_cell_length_a                   28.192(7)
_cell_length_b                   11.896(3)
_cell_length_c                   20.097(3)
_cell_angle_alpha                90
_cell_angle_beta                 123.436(12)
_cell_angle_gamma                90
_cell_volume                     5624.52
loop_
_atom_site_label
_atom_site_type_symbol
_atom_site_fract_x
_atom_site_fract_y
_atom_site_fract_z
Cd1 Cd 0.09426(3) 0.84666(5) 0.31044(3)
O1 O -0.0394(2) 0.6314(4) -0.0058(3)
H1 H -0.0361 0.6397 0.0370
O2 O 0.0052(3) 0.6971(5) 0.1375(3)
O3 O 0.0880(3) 0.7891(5) 0.2000(3)
O4 O -0.0667(2) 0.9713(4) -0.2620(3)
O5 O -0.1579(2) 1.0106(4) -0.3233(3)
O6 O -0.0280(2) 0.7806(5) -0.1966(3)
H2 H -0.0267 0.8454 -0.2093
O7 O 0.0000 0.7834(6) 0.2500
N1 N 0.0972(3) 0.8843(6) 0.4238(4)
N2 N 0.1537(4) 0.7316(6) 0.5015(4)
H3 H 0.1605 0.6930 0.5420
N3 N 0.1579(3) 0.7091(6) 0.3882(4)
C1 C 0.0098(3) 0.6615(6) 0.0018(4)
C2 C 0.0673(3) 0.6601(6) -0.0524(4)
C3 C -0.1249(3) 0.8362(6) -0.2537(4)
C4 C 0.0158(3) 0.6367(6) -0.0604(4)
C5 C -0.1397(3) 0.6360(6) -0.1933(4)
C6 C -0.0861(3) 0.6619(6) -0.1793(4)
C7 C -0.0796(3) 0.7606(6) -0.2104(4)
C8 C 0.0482(4) 0.7354(7) 0.1414(5)
C9 C 0.1034(3) 0.7426(6) 0.0788(4)
H4 H 0.1322 0.7790 0.1243
C10 C -0.1503(4) 0.5413(7) -0.1596(5)
H5 H -0.1207 0.4917 -0.1277
C11 C -0.1166(3) 0.9442(6) -0.2820(4)
C12 C 0.1773(4) 0.6830(7) 0.4637(5)
C13 C -0.1771(3) 0.8099(6) -0.2694(4)
H6 H -0.2074 0.8580 -0.3012
C14 C 0.0543(3) 0.7147(6) 0.0728(4)
C15 C 0.1286(4) 0.6599(9) -0.1013(6)
H7 H 0.1352 0.6396 -0.1402
C16 C 0.1108(3) 0.7167(7) 0.0169(5)
C17 C -0.1864(3) 0.7121(6) -0.2390(4)
C18 C 0.1219(4) 0.8269(7) 0.4907(5)
C19 C 0.1814(4) 0.6543(8) 0.3545(6)
H8 H 0.1679 0.6713 0.3017
C20 C 0.0581(4) 1.0079(8) 0.4757(6)
H9 H 0.0356 1.0699 0.4683
C21 C 0.0794(4) 0.6320(8) -0.1111(5)
H10 H 0.0524 0.5935 -0.1569
C22 C 0.0650(4) 0.9728(8) 0.4163(5)
H11 H 0.0465 1.0124 0.3685
C23 C 0.0849(5) 0.9495(9) 0.5452(6)
H12 H 0.0818 0.9716 0.5870
C24 C 0.1624(4) 0.7453(8) 0.0229(6)
H13 H 0.1910 0.7833 0.0676
C25 C -0.2387(4) 0.6895(8) -0.2500(5)
H14 H -0.2686 0.7394 -0.2797
C26 C 0.2433(4) 0.5539(9) 0.4710(7)
H15 H 0.2725 0.5022 0.4995
C27 C -0.2475(4) 0.5955(8) -0.2183(5)
H16 H -0.2829 0.5813 -0.2269
C28 C 0.1166(5) 0.8580(9) 0.5528(5)
H17 H 0.1348 0.8164 0.5997
C29 C -0.2021(4) 0.5219(7) -0.1729(5)
H18 H -0.2077 0.4581 -0.1514
C30 C 0.2235(4) 0.5758(9) 0.3921(7)
H19 H 0.2381 0.5391 0.3662
C31 C 0.2210(4) 0.6061(8) 0.5075(6)
H20 H 0.2346 0.5911 0.5606
C32 C 0.1697(5) 0.7177(11) -0.0356(6)
H21 H 0.2031 0.7380 -0.0315
C33 C -0.0347(3) 0.5833(6) -0.1342(4)
H22 H -0.0459 0.5163 -0.1186
H23 H -0.0234 0.5603 -0.1698
H24 H 0.003(4) 0.745(6) 0.289(3)
Cd1D Cd -0.09426(3) 1.15334(5) -0.31044(3)
Cd1A Cd -0.09426(3) 0.84666(5) 0.18956(3)
O1D O 0.0394(2) 1.3686(4) 0.0058(3)
H1D H 0.0361 1.3603 -0.0370
O2D O -0.0052(3) 1.3029(5) -0.1375(3)
O3D O -0.0880(3) 1.2109(5) -0.2000(3)
O4D O 0.0667(2) 1.0287(4) 0.2620(3)
O5D O 0.1579(2) 0.9894(4) 0.3233(3)
O6D O 0.0280(2) 1.2194(5) 0.1966(3)
H2D H 0.0267 1.1546 0.2093
O7D O 0.0000 1.2166(6) -0.2500
N1D N -0.0972(3) 1.1157(6) -0.4238(4)
N2D N -0.1537(4) 1.2684(6) -0.5015(4)
H3D H -0.1605 1.3070 -0.5420
N3D N -0.1579(3) 1.2909(6) -0.3882(4)
C1D C -0.0098(3) 1.3385(6) -0.0018(4)
C2D C -0.0673(3) 1.3399(6) 0.0524(4)
C3D C 0.1249(3) 1.1638(6) 0.2537(4)
C4D C -0.0158(3) 1.3633(6) 0.0604(4)
C5D C 0.1397(3) 1.3640(6) 0.1933(4)
C6D C 0.0861(3) 1.3381(6) 0.1793(4)
C7D C 0.0796(3) 1.2394(6) 0.2104(4)
C8D C -0.0482(4) 1.2646(7) -0.1414(5)
C9D C -0.1034(3) 1.2574(6) -0.0788(4)
H4D H -0.1322 1.2210 -0.1243
C10D C 0.1503(4) 1.4587(7) 0.1596(5)
H5D H 0.1207 1.5083 0.1277
C11D C 0.1166(3) 1.0558(6) 0.2820(4)
C12D C -0.1773(4) 1.3170(7) -0.4637(5)
C13D C 0.1771(3) 1.1901(6) 0.2694(4)
H6D H 0.2074 1.1420 0.3012
C14D C -0.0543(3) 1.2853(6) -0.0728(4)
C15D C -0.1286(4) 1.3401(9) 0.1013(6)
H7D H -0.1352 1.3604 0.1402
C16D C -0.1108(3) 1.2833(7) -0.0169(5)
C17D C 0.1864(3) 1.2879(6) 0.2390(4)
C18D C -0.1219(4) 1.1731(7) -0.4907(5)
C19D C -0.1814(4) 1.3457(8) -0.3545(6)
H8D H -0.1679 1.3287 -0.3017
C20D C -0.0581(4) 0.9921(8) -0.4757(6)
H9D H -0.0356 0.9301 -0.4683
C21D C -0.0794(4) 1.3680(8) 0.1111(5)
H10D H -0.0524 1.4065 0.1569
C22D C -0.0650(4) 1.0272(8) -0.4163(5)
H11D H -0.0465 0.9876 -0.3685
C23D C -0.0849(5) 1.0505(9) -0.5452(6)
H12D H -0.0818 1.0284 -0.5870
C24D C -0.1624(4) 1.2547(8) -0.0229(6)
H13D H -0.1910 1.2167 -0.0676
C25D C 0.2387(4) 1.3105(8) 0.2500(5)
H14D H 0.2686 1.2606 0.2797
C26D C -0.2433(4) 1.4461(9) -0.4710(7)
H15D H -0.2725 1.4978 -0.4995
C27D C 0.2475(4) 1.4045(8) 0.2183(5)
H16D H 0.2829 1.4187 0.2269
C28D C -0.1166(5) 1.1420(9) -0.5528(5)
H17D H -0.1348 1.1836 -0.5997
C29D C 0.2021(4) 1.4781(7) 0.1729(5)
H18D H 0.2077 1.5419 0.1514
C30D C -0.2235(4) 1.4242(9) -0.3921(7)
H19D H -0.2381 1.4609 -0.3662
C31D C -0.2210(4) 1.3939(8) -0.5075(6)
H20D H -0.2346 1.4089 -0.5606
C32D C -0.1697(5) 1.2823(11) 0.0356(6)
H21D H -0.2031 1.2620 0.0315
C33D C 0.0347(3) 1.4167(6) 0.1342(4)
H22D H 0.0459 1.4837 0.1186
H23D H 0.0234 1.4397 0.1698
H24A H -0.003(4) 0.745(6) 0.211(3)
H24D H -0.003(4) 1.255(6) -0.289(3)
H24E H 0.003(4) 1.255(6) -0.211(3)
loop_
_geom_bond_atom_site_label_1
_geom_bond_atom_site_label_2
_geom_bond_site_symmetry_1
_geom_bond_site_symmetry_2
Cd1 O3 1_555 1_555
O1 H1 1_555 1_555
O2 C8 1_555 1_555
O3 C8 1_555 1_555
O4 C11 1_555 1_555
O5 C11 1_555 1_555
O6 H2 1_555 1_555
O7 Cd1 1_555 1_555
N1 Cd1 1_555 1_555
N2 H3 1_555 1_555
N3 Cd1 1_555 1_555
C1 O1 1_555 1_555
C2 C4 1_555 1_555
C3 C7 1_555 1_555
C4 C1 1_555 1_555
C5 C6 1_555 1_555
C6 C7 1_555 1_555
C7 O6 1_555 1_555
C8 C14 1_555 1_555
C9 H4 1_555 1_555
C10 C5 1_555 1_555
H5 C10 1_555 1_555
C11 C3 1_555 1_555
C12 N2 1_555 1_555
C13 C3 1_555 1_555
H6 C13 1_555 1_555
C14 C1 1_555 1_555
C15 H7 1_555 1_555
C16 C2 1_555 1_555
C17 C5 1_555 1_555
C18 N1 1_555 1_555
C19 N3 1_555 1_555
H8 C19 1_555 1_555
C20 H9 1_555 1_555
C21 C2 1_555 1_555
H10 C21 1_555 1_555
C22 N1 1_555 1_555
H11 C22 1_555 1_555
C23 C20 1_555 1_555
H12 C23 1_555 1_555
C24 C16 1_555 1_555
H13 C24 1_555 1_555
C25 C17 1_555 1_555
H14 C25 1_555 1_555
C26 H15 1_555 1_555
C27 C25 1_555 1_555
H16 C27 1_555 1_555
C28 C18 1_555 1_555
H17 C28 1_555 1_555
C29 C10 1_555 1_555
H18 C29 1_555 1_555
C30 C19 1_555 1_555
H19 C30 1_555 1_555
C31 C12 1_555 1_555
H20 C31 1_555 1_555
C32 C15 1_555 1_555
H21 C32 1_555 1_555
C33 C4 1_555 1_555
H22 C33 1_555 1_555
H23 C33 1_555 1_555
H24 O7 1_555 1_555
Cd1D O4 1_555 1_555
Cd1A O7 1_555 1_555
O1D H1D 1_555 1_555
O2D C8D 1_555 1_555
O3D Cd1D 1_555 1_555
O4D Cd1 1_555 1_555
O5D Cd1 1_555 1_555
O6D H2D 1_555 1_555
O7D Cd1D 1_555 1_555
N1D Cd1D 1_555 1_555
N2D H3D 1_555 1_555
N3D Cd1D 1_555 1_555
C1D O1D 1_555 1_555
C2D C4D 1_555 1_555
C3D C7D 1_555 1_555
C4D C1D 1_555 1_555
C5D C6D 1_555 1_555
C6D C7D 1_555 1_555
C7D O6D 1_555 1_555
C8D O3D 1_555 1_555
C9D H4D 1_555 1_555
C10D C5D 1_555 1_555
H5D C10D 1_555 1_555
C11D O4D 1_555 1_555
C12D N2D 1_555 1_555
C13D C3D 1_555 1_555
H6D C13D 1_555 1_555
C14D C1D 1_555 1_555
C15D H7D 1_555 1_555
C16D C2D 1_555 1_555
C17D C5D 1_555 1_555
C18D N1D 1_555 1_555
C19D N3D 1_555 1_555
H8D C19D 1_555 1_555
C20D H9D 1_555 1_555
C21D C2D 1_555 1_555
H10D C21D 1_555 1_555
C22D N1D 1_555 1_555
H11D C22D 1_555 1_555
C23D C20D 1_555 1_555
H12D C23D 1_555 1_555
C24D C16D 1_555 1_555
H13D C24D 1_555 1_555
C25D C17D 1_555 1_555
H14D C25D 1_555 1_555
C26D H15D 1_555 1_555
C27D C25D 1_555 1_555
H16D C27D 1_555 1_555
C28D C18D 1_555 1_555
H17D C28D 1_555 1_555
C29D C10D 1_555 1_555
H18D C29D 1_555 1_555
C30D C19D 1_555 1_555
H19D C30D 1_555 1_555
C31D C12D 1_555 1_555
H20D C31D 1_555 1_555
C32D C15D 1_555 1_555
H21D C32D 1_555 1_555
C33D C4D 1_555 1_555
H22D C33D 1_555 1_555
H23D C33D 1_555 1_555
H24A O7 1_555 1_555
H24D O7D 1_555 1_555
H24E O7D 1_555 1_555
O5 Cd1D 1_555 1_555
N2 C18 1_555 1_555
N3 C12 1_555 1_555
C6 C33 1_555 1_555
C9 C14 1_555 1_555
C9 C16 1_555 1_555
C13 C17 1_555 1_555
C15 C21 1_555 1_555
C20 C22 1_555 1_555
C23 C28 1_555 1_555
C24 C32 1_555 1_555
C26 C30 1_555 1_555
C26 C31 1_555 1_555
C27 C29 1_555 1_555
O5D C11D 1_555 1_555
N2D C18D 1_555 1_555
N3D C12D 1_555 1_555
C3D C11D 1_555 1_555
C6D C33D 1_555 1_555
C8D C14D 1_555 1_555
C9D C14D 1_555 1_555
C9D C16D 1_555 1_555
C13D C17D 1_555 1_555
C15D C21D 1_555 1_555
C20D C22D 1_555 1_555
C23D C28D 1_555 1_555
C24D C32D 1_555 1_555
C26D C30D 1_555 1_555
C26D C31D 1_555 1_555
C27D C29D 1_555 1_555

#END
