
#######################################################################
#
#                 Cambridge Crystallographic Data Centre
#                                CCDC 
#
#######################################################################
#
# If this CIF has been generated from an entry in the Cambridge 
# Structural Database, then it will include bibliographic, chemical, 
# crystal, experimental, refinement or atomic coordinate data resulting 
# from the CCDC's data processing and validation procedures.
#
#######################################################################

data_TULLES
_symmetry_cell_setting           triclinic
_symmetry_space_group_name_H-M   'P -1'
_symmetry_Int_Tables_number      2
_space_group_name_Hall           '-P 1'
loop_
_symmetry_equiv_pos_site_id
_symmetry_equiv_pos_as_xyz
1 x,y,z
2 -x,-y,-z
_cell_length_a                   9.850(2)
_cell_length_b                   9.963(2)
_cell_length_c                   13.569(3)
_cell_angle_alpha                70.321(3)
_cell_angle_beta                 68.964(3)
_cell_angle_gamma                73.652(3)
_cell_volume                     1150.56
loop_
_atom_site_label
_atom_site_type_symbol
_atom_site_fract_x
_atom_site_fract_y
_atom_site_fract_z
Zn1 Zn -0.03257(3) 0.67429(3) 0.73279(2)
N1 N 0.0524(2) 0.6243(2) 0.58865(16)
N2 N 0.1490(2) 0.6588(2) 0.41140(16)
N3 N 0.3745(2) 0.9700(2) 0.27934(17)
N4 N 0.2249(2) 1.1809(2) 0.25810(17)
O1 O 0.0454(3) 0.3597(2) 0.80611(16)
O2 O -0.1005(3) 0.53840(19) 0.87441(16)
O3 O 0.1123(2) 0.76116(19) 0.74724(14)
O4 O 0.0878(2) 0.9428(2) 0.60171(15)
C1 C -0.0409(3) 0.4057(2) 0.8830(2)
C2 C -0.0863(4) 0.3055(3) 0.9953(2)
H1 H -0.1929 0.3283 1.0250
H2 H -0.0426 0.3236 1.0422
C3 C 0.0884(4) 0.0682(3) 1.0179(2)
H3 H 0.1497 0.1125 1.0304
C4 C -0.0424(3) 0.1472(3) 0.9987(2)
C5 C -0.1305(4) 0.0778(3) 0.9813(2)
H4 H -0.2201 0.1292 0.9687
C6 C 0.1414(3) 0.8796(3) 0.6787(2)
C7 C 0.2511(3) 0.9453(4) 0.6957(2)
H5 H 0.2004 1.0350 0.7161
H6 H 0.2879 0.8791 0.7555
C8 C 0.5081(3) 0.8730(3) 0.5795(2)
H7 H 0.5150 0.7857 0.6329
C9 C 0.3792(3) 0.9754(3) 0.5950(2)
C10 C 0.3733(3) 1.1027(3) 0.5133(2)
H8 H 0.2880 1.1733 0.5208
C11 C 0.1387(3) 0.4966(3) 0.5679(2)
H9 H 0.1530 0.4100 0.6207
C12 C 0.1993(3) 0.5167(3) 0.4593(2)
H10 H 0.2630 0.4478 0.4234
C13 C 0.0616(3) 0.7190(3) 0.49213(19)
H11 H 0.0134 0.8152 0.4819
C14 C 0.1883(3) 0.7300(3) 0.29363(19)
H12 H 0.1676 0.8343 0.2823
H13 H 0.1285 0.7065 0.2605
C15 C 0.3502(3) 0.6811(2) 0.23945(18)
C16 C 0.3892(3) 0.5876(3) 0.1742(2)
H14 H 0.3151 0.5591 0.1629
C17 C 0.5345(4) 0.5358(4) 0.1256(3)
H15 H 0.5578 0.4733 0.0818
C18 C 0.6457(4) 0.5764(4) 0.1418(3)
H16 H 0.7443 0.5419 0.1089
C19 C 0.6093(3) 0.6692(3) 0.2078(3)
H17 H 0.6843 0.6965 0.2190
C20 C 0.4631(3) 0.7217(3) 0.2571(2)
C21 C 0.4321(3) 0.8199(3) 0.3298(2)
H18 H 0.3607 0.7853 0.3991
H19 H 0.5226 0.8161 0.3445
C22 C 0.4356(3) 1.0526(3) 0.1785(2)
H20 H 0.5240 1.0254 0.1280
C23 C 0.3437(3) 1.1815(3) 0.1657(2)
H21 H 0.3582 1.2592 0.1038
C24 C 0.2487(3) 1.0514(3) 0.3251(2)
H22 H 0.1863 1.0204 0.3951
Zn1A Zn 0.03257(3) -0.67429(3) 1.26721(2)
Zn1_2 Zn -0.03257(3) -1.32571(3) 1.73279(2)
Zn1A_2 Zn 0.03257(3) 1.32571(3) 0.26721(2)
Zn1A_3 Zn 1.03257(3) 1.32571(3) 0.26721(2)
N1A N -0.0524(2) -0.6243(2) 1.41135(16)
N2A N -0.1490(2) -0.6588(2) 1.58860(16)
N3A N -0.3745(2) -0.9700(2) 1.72066(17)
N4A N -0.2249(2) -1.1809(2) 1.74190(17)
N4_2 N 0.2249(2) -0.8191(2) 1.25810(17)
N4A_2 N -0.2249(2) 0.8191(2) 0.74190(17)
O1A O -0.0454(3) -0.3597(2) 1.19389(16)
O2A O 0.1005(3) -0.53840(19) 1.12559(16)
O3A O 0.8877(2) 1.23884(19) 0.25276(14)
O3A_2 O -0.1123(2) -0.76116(19) 1.25276(14)
O4A O 0.9122(2) 1.0572(2) 0.39829(15)
C1A C 0.0409(3) -0.4057(2) 1.1170(2)
C2A C 0.0863(4) -0.3055(3) 1.0047(2)
H1A H 0.1929 -0.3283 0.9750
H2A H 0.0426 -0.3236 0.9578
C3A C -0.0884(4) -0.0682(3) 0.9821(2)
H3A H -0.1497 -0.1125 0.9696
C4A C 0.0424(3) -0.1472(3) 1.0013(2)
C5A C 0.1305(4) -0.0778(3) 1.0187(2)
H4A H 0.2201 -0.1292 1.0313
C6A C 0.8586(3) 1.1204(3) 0.3213(2)
C7A C 0.7489(3) 1.0547(4) 0.3043(2)
H5A H 0.7996 0.9650 0.2839
H6A H 0.7121 1.1209 0.2445
C8A C 0.4919(3) 1.1270(3) 0.4205(2)
H7A H 0.4850 1.2143 0.3671
C9A C 0.6208(3) 1.0246(3) 0.4050(2)
C10A C 0.6267(3) 0.8973(3) 0.4867(2)
H8A H 0.7120 0.8267 0.4792
C11A C -0.1387(3) -0.4966(3) 1.4321(2)
H9A H -0.1530 -0.4100 1.3793
C12A C -0.1993(3) -0.5167(3) 1.5407(2)
H10A H -0.2630 -0.4478 1.5766
C13A C -0.0616(3) -0.7190(3) 1.50787(19)
H11A H -0.0134 -0.8152 1.5181
C14A C -0.1883(3) -0.7300(3) 1.70637(19)
H12A H -0.1676 -0.8343 1.7177
H13A H -0.1285 -0.7065 1.7395
C15A C -0.3502(3) -0.6811(2) 1.76055(18)
C16A C -0.3892(3) -0.5876(3) 1.8258(2)
H14A H -0.3151 -0.5591 1.8371
C17A C -0.5345(4) -0.5358(4) 1.8744(3)
H15A H -0.5578 -0.4733 1.9182
C18A C -0.6457(4) -0.5764(4) 1.8582(3)
H16A H -0.7443 -0.5419 1.8911
C19A C -0.6093(3) -0.6692(3) 1.7922(3)
H17A H -0.6843 -0.6965 1.7810
C20A C -0.4631(3) -0.7217(3) 1.7429(2)
C21A C -0.4321(3) -0.8199(3) 1.6702(2)
H18A H -0.3607 -0.7853 1.6009
H19A H -0.5226 -0.8161 1.6555
C22A C -0.4356(3) -1.0526(3) 1.8215(2)
H20A H -0.5240 -1.0254 1.8720
C23A C -0.3437(3) -1.1815(3) 1.8343(2)
H21A H -0.3582 -1.2592 1.8962
C24A C -0.2487(3) -1.0514(3) 1.6749(2)
H22A H -0.1863 -1.0204 1.6049
loop_
_geom_bond_atom_site_label_1
_geom_bond_atom_site_label_2
_geom_bond_site_symmetry_1
_geom_bond_site_symmetry_2
Zn1 N1 1_555 1_555
N1 C11 1_555 1_555
N2 C12 1_555 1_555
N3 C21 1_555 1_555
N4 C23 1_555 1_555
O1 C1 1_555 1_555
O2 Zn1 1_555 1_555
O3 Zn1 1_555 1_555
O4 C6 1_555 1_555
C1 O2 1_555 1_555
C2 C1 1_555 1_555
H1 C2 1_555 1_555
H2 C2 1_555 1_555
C3 H3 1_555 1_555
C4 C2 1_555 1_555
C5 C4 1_555 1_555
H4 C5 1_555 1_555
C6 O3 1_555 1_555
C7 C6 1_555 1_555
H5 C7 1_555 1_555
H6 C7 1_555 1_555
C8 H7 1_555 1_555
C9 C7 1_555 1_555
C10 C9 1_555 1_555
H8 C10 1_555 1_555
C11 H9 1_555 1_555
C12 C11 1_555 1_555
H10 C12 1_555 1_555
C13 N1 1_555 1_555
H11 C13 1_555 1_555
C14 N2 1_555 1_555
H12 C14 1_555 1_555
H13 C14 1_555 1_555
C15 C14 1_555 1_555
C16 C15 1_555 1_555
H14 C16 1_555 1_555
C17 C16 1_555 1_555
H15 C17 1_555 1_555
C18 C17 1_555 1_555
H16 C18 1_555 1_555
C19 C18 1_555 1_555
H17 C19 1_555 1_555
C20 C15 1_555 1_555
C21 C20 1_555 1_555
H18 C21 1_555 1_555
H19 C21 1_555 1_555
C22 N3 1_555 1_555
H20 C22 1_555 1_555
C23 C22 1_555 1_555
H21 C23 1_555 1_555
C24 N3 1_555 1_555
H22 C24 1_555 1_555
Zn1A N1A 1_555 1_555
Zn1_2 N4A 1_555 1_555
Zn1A_2 N4 1_555 1_555
Zn1A_3 O3A 1_555 1_555
N1A C11A 1_555 1_555
N2A C12A 1_555 1_555
N3A C21A 1_555 1_555
N4A C23A 1_555 1_555
N4_2 Zn1A 1_555 1_555
N4A_2 Zn1 1_555 1_555
O1A C1A 1_555 1_555
O2A Zn1A 1_555 1_555
O3A C6A 1_555 1_555
O3A_2 Zn1A 1_555 1_555
O4A C6A 1_555 1_555
C1A O2A 1_555 1_555
C2A C1A 1_555 1_555
H1A C2A 1_555 1_555
H2A C2A 1_555 1_555
C3A C5 1_555 1_555
H3A C3A 1_555 1_555
C4A C2A 1_555 1_555
C5A C3 1_555 1_555
H4A C5A 1_555 1_555
C6A C7A 1_555 1_555
C7A H5A 1_555 1_555
H6A C7A 1_555 1_555
C8A C10 1_555 1_555
H7A C8A 1_555 1_555
C9A C7A 1_555 1_555
C10A C8 1_555 1_555
H8A C10A 1_555 1_555
C11A H9A 1_555 1_555
C12A C11A 1_555 1_555
H10A C12A 1_555 1_555
C13A N1A 1_555 1_555
H11A C13A 1_555 1_555
C14A N2A 1_555 1_555
H12A C14A 1_555 1_555
H13A C14A 1_555 1_555
C15A C14A 1_555 1_555
C16A C15A 1_555 1_555
H14A C16A 1_555 1_555
C17A C16A 1_555 1_555
H15A C17A 1_555 1_555
C18A C17A 1_555 1_555
H16A C18A 1_555 1_555
C19A C18A 1_555 1_555
H17A C19A 1_555 1_555
C20A C15A 1_555 1_555
C21A C20A 1_555 1_555
H18A C21A 1_555 1_555
H19A C21A 1_555 1_555
C22A N3A 1_555 1_555
H20A C22A 1_555 1_555
C23A C22A 1_555 1_555
H21A C23A 1_555 1_555
C24A N3A 1_555 1_555
H22A C24A 1_555 1_555
N2 C13 1_555 1_555
N4 C24 1_555 1_555
C3 C4 1_555 1_555
C8 C9 1_555 1_555
C19 C20 1_555 1_555
N2A C13A 1_555 1_555
N4A C24A 1_555 1_555
C3A C4A 1_555 1_555
C4A C5A 1_555 1_555
C8A C9A 1_555 1_555
C9A C10A 1_555 1_555
C19A C20A 1_555 1_555

#END
