
#######################################################################
#
#                 Cambridge Crystallographic Data Centre
#                                CCDC 
#
#######################################################################
#
# If this CIF has been generated from an entry in the Cambridge 
# Structural Database, then it will include bibliographic, chemical, 
# crystal, experimental, refinement or atomic coordinate data resulting 
# from the CCDC's data processing and validation procedures.
#
#######################################################################

data_TULLIX
_symmetry_cell_setting           monoclinic
_symmetry_space_group_name_H-M   'C 2/c'
_symmetry_Int_Tables_number      15
_space_group_name_Hall           '-C 2yn'
loop_
_symmetry_equiv_pos_site_id
_symmetry_equiv_pos_as_xyz
1 x,y,z
2 -x,y,1/2-z
3 1/2+x,1/2+y,z
4 1/2-x,1/2+y,1/2-z
5 -x,-y,-z
6 x,-y,1/2+z
7 1/2-x,1/2-y,-z
8 1/2+x,1/2-y,1/2+z
_cell_length_a                   46.561(7)
_cell_length_b                   5.9263(9)
_cell_length_c                   33.495(6)
_cell_angle_alpha                90
_cell_angle_beta                 128.794(2)
_cell_angle_gamma                90
_cell_volume                     7203.58
loop_
_atom_site_label
_atom_site_type_symbol
_atom_site_fract_x
_atom_site_fract_y
_atom_site_fract_z
O1 O 0.28876(10) 0.7019(6) -0.15082(15)
O2 O 0.30763(11) 1.0354(6) -0.15585(17)
C1 C 0.31456(15) 0.8359(10) -0.1376(2)
C2 C 0.35384(14) 0.7666(9) -0.0986(2)
C3 C 0.36296(15) 0.5575(9) -0.0755(2)
H1 H 0.3444 0.4585 -0.0839
C4 C 0.38177(15) 0.9151(9) -0.0859(2)
H2 H 0.3759 1.0564 -0.1013
C5 C 0.41795(14) 0.8504(8) -0.05068(19)
H3 H 0.4366 0.9486 -0.0421
C6 C 0.39967(15) 0.4938(9) -0.0399(2)
H4 H 0.4058 0.3526 -0.0244
C7 C 0.42679(14) 0.6408(8) -0.02781(19)
O3 O 0.46374(10) 0.5836(6) 0.00290(13)
C8 C 0.47705(13) 0.4324(9) 0.04272(18)
C9 C 0.49444(13) 0.2379(8) 0.04390(18)
H5 H 0.4953 0.2043 0.0175
C10 C 0.47642(15) 0.4861(8) 0.0824(2)
H6 H 0.4656 0.6197 0.0817
O4 O 0.50118(15) 0.2569(9) 0.19963(19)
Cd1 Cd 0.745530(11) -0.50061(6) 0.292677(17)
Cd2 Cd 0.5000 0.54621(13) 0.2500
O5 O 0.52592(10) -0.1015(6) 0.08430(14)
O6 O 0.68513(11) -0.5327(6) 0.22507(18)
O7 O 0.74776(9) -0.8874(6) 0.27257(13)
C11 C 0.63666(14) -0.2662(8) 0.1918(2)
C12 C 0.67589(15) -0.3396(11) 0.2276(2)
C13 C 0.56297(14) -0.1463(8) 0.12281(19)
C14 C 0.61062(15) -0.4191(9) 0.1544(2)
H7 H 0.6179 -0.5627 0.1528
O8 O 0.69975(10) -0.1992(6) 0.26215(15)
C15 C 0.62489(16) -0.0569(9) 0.1934(2)
H8 H 0.6422 0.0455 0.2181
C16 C 0.57356(14) -0.3551(8) 0.1195(2)
H9 H 0.5562 -0.4548 0.0940
C17 C 0.51039(14) 0.0974(9) 0.0857(2)
C18 C 0.49233(15) 0.3360(9) 0.1237(2)
C19 C 0.58849(14) 0.0076(8) 0.1600(2)
H10 H 0.5811 0.1500 0.1621
C20 C 0.50886(15) 0.1401(10) 0.1252(2)
H11 H 0.5188 0.0383 0.1520
O9 O 0.48590(18) 0.5990(9) 0.17006(19)
O10 O 0.73973(16) -0.6124(10) 0.3535(2)
C21 C 0.49238(19) 0.4020(13) 0.1660(2)
O11 O 0.5000 0.9169(15) 0.2500
O12 O 0.5670(3) 0.5131(13) 0.2942(3)
O1A O 0.71124(10) 0.7019(6) 0.65082(15)
O2A O 0.69237(11) 1.0354(6) 0.65585(17)
C1A C 0.68544(15) 0.8359(10) 0.6376(2)
C2A C 0.64616(14) 0.7666(9) 0.5986(2)
C3A C 0.63704(15) 0.5575(9) 0.5755(2)
H1A H 0.6556 0.4585 0.5839
C4A C 0.61823(15) 0.9151(9) 0.5859(2)
H2A H 0.6241 1.0564 0.6013
C5A C 0.58205(14) 0.8504(8) 0.55068(19)
H3A H 0.5634 0.9486 0.5421
C6A C 0.60033(15) 0.4938(9) 0.5399(2)
H4A H 0.5942 0.3526 0.5244
C7A C 0.57321(14) 0.6408(8) 0.52781(19)
O3A O 0.53626(10) 0.5836(6) 0.49710(13)
C8A C 0.52295(13) 0.4324(9) 0.45728(18)
C9A C 0.50556(13) 0.2379(8) 0.45610(18)
H5A H 0.5047 0.2043 0.4825
C10A C 0.52358(15) 0.4861(8) 0.4176(2)
H6A H 0.5344 0.6197 0.4183
O4A O 0.49882(15) 0.2569(9) 0.30037(19)
Cd1A Cd 0.254470(11) -0.50061(6) 0.207323(17)
O5A O 0.47408(10) -0.1015(6) 0.41570(14)
O6A O 0.31487(11) -0.5327(6) 0.27493(18)
O7A O 0.25224(9) -0.8874(6) 0.22743(13)
C11A C 0.36334(14) -0.2662(8) 0.3082(2)
C12A C 0.32411(15) -0.3396(11) 0.2724(2)
C13A C 0.43703(14) -0.1463(8) 0.37719(19)
C14A C 0.38938(15) -0.4191(9) 0.3456(2)
H7A H 0.3821 -0.5627 0.3472
O8A O 0.30025(10) -0.1992(6) 0.23785(15)
C15A C 0.37511(16) -0.0569(9) 0.3066(2)
H8A H 0.3578 0.0455 0.2819
C16A C 0.42644(14) -0.3551(8) 0.3805(2)
H9A H 0.4438 -0.4548 0.4060
C17A C 0.48961(14) 0.0974(9) 0.4143(2)
C18A C 0.50767(15) 0.3360(9) 0.3763(2)
C19A C 0.41151(14) 0.0076(8) 0.3400(2)
H10A H 0.4189 0.1500 0.3379
C20A C 0.49114(15) 0.1401(10) 0.3748(2)
H11A H 0.4812 0.0383 0.3480
O9A O 0.51410(18) 0.5990(9) 0.32994(19)
O10A O 0.26027(16) -0.6124(10) 0.1465(2)
C21A C 0.50762(19) 0.4020(13) 0.3340(2)
O12A O 0.4330(3) 0.5131(13) 0.2058(3)
O1F O 0.21124(10) -0.2019(6) 0.15082(15)
O1G O 0.78876(10) -0.2019(6) 0.34918(15)
O2F O 0.19237(11) -0.5354(6) 0.15585(17)
O2G O 0.80763(11) -0.5354(6) 0.34415(17)
Cd1B Cd 0.245530(11) -1.00061(6) 0.292677(17)
Cd1C Cd 0.754470(11) -1.00061(6) 0.207323(17)
Cd1F Cd 0.754470(11) 1.00061(6) 0.707323(17)
Cd1G Cd 0.245530(11) 1.00061(6) -0.207323(17)
O7B O 0.24776(9) -0.3874(6) 0.27257(13)
O7C O 0.75224(9) -0.3874(6) 0.22743(13)
loop_
_geom_bond_atom_site_label_1
_geom_bond_atom_site_label_2
_geom_bond_site_symmetry_1
_geom_bond_site_symmetry_2
O1 C1 1_555 1_555
O2 C1 1_555 1_555
C1 C2 1_555 1_555
C2 C3 1_555 1_555
C3 H1 1_555 1_555
C4 C2 1_555 1_555
H2 C4 1_555 1_555
C5 C4 1_555 1_555
H3 C5 1_555 1_555
C6 C3 1_555 1_555
H4 C6 1_555 1_555
C7 C5 1_555 1_555
O3 C7 1_555 1_555
C8 O3 1_555 1_555
C9 C8 1_555 1_555
H5 C9 1_555 1_555
C10 C8 1_555 1_555
H6 C10 1_555 1_555
O4 Cd2 1_555 1_555
Cd1 O6 1_555 1_555
Cd2 O9 1_555 1_555
O5 C13 1_555 1_555
O6 C12 1_555 1_555
O7 Cd1 1_555 1_555
C11 C12 1_555 1_555
C12 O8 1_555 1_555
C13 C16 1_555 1_555
C14 C11 1_555 1_555
H7 C14 1_555 1_555
O8 Cd1 1_555 1_555
C15 C11 1_555 1_555
H8 C15 1_555 1_555
C16 C14 1_555 1_555
H9 C16 1_555 1_555
C17 C9 1_555 1_555
C18 C10 1_555 1_555
C19 C13 1_555 1_555
H10 C19 1_555 1_555
C20 C17 1_555 1_555
H11 C20 1_555 1_555
O9 C21 1_555 1_555
O10 Cd1 1_555 1_555
C21 O4 1_555 1_555
O11 Cd2 1_555 1_555
O12 Cd2 1_555 1_555
O1A C1A 1_555 1_555
O2A C1A 1_555 1_555
C1A C2A 1_555 1_555
C2A C3A 1_555 1_555
C3A H1A 1_555 1_555
C4A C2A 1_555 1_555
H2A C4A 1_555 1_555
C5A C4A 1_555 1_555
H3A C5A 1_555 1_555
C6A C3A 1_555 1_555
H4A C6A 1_555 1_555
C7A C5A 1_555 1_555
O3A C7A 1_555 1_555
C8A O3A 1_555 1_555
C9A C8A 1_555 1_555
H5A C9A 1_555 1_555
C10A C8A 1_555 1_555
H6A C10A 1_555 1_555
O4A Cd2 1_555 1_555
Cd1A O6A 1_555 1_555
O5A C13A 1_555 1_555
O6A C12A 1_555 1_555
O7A Cd1A 1_555 1_555
C11A C12A 1_555 1_555
C12A O8A 1_555 1_555
C13A C16A 1_555 1_555
C14A C11A 1_555 1_555
H7A C14A 1_555 1_555
O8A Cd1A 1_555 1_555
C15A C11A 1_555 1_555
H8A C15A 1_555 1_555
C16A C14A 1_555 1_555
H9A C16A 1_555 1_555
C17A C9A 1_555 1_555
C18A C10A 1_555 1_555
C19A C13A 1_555 1_555
H10A C19A 1_555 1_555
C20A C17A 1_555 1_555
H11A C20A 1_555 1_555
O9A Cd2 1_555 1_555
O10A Cd1A 1_555 1_555
C21A O4A 1_555 1_555
O12A Cd2 1_555 1_555
O1F Cd1A 1_555 1_555
O1G Cd1 1_555 1_555
O2F Cd1A 1_555 1_555
O2G Cd1 1_555 1_555
Cd1B O7A 1_555 1_555
Cd1C O7 1_555 1_555
Cd1F O1A 1_555 1_555
Cd1G O1 1_555 1_555
O7B Cd1A 1_555 1_555
O7C Cd1 1_555 1_555
O2 Cd1G 1_555 1_555
C6 C7 1_555 1_555
O5 C17 1_555 1_555
C15 C19 1_555 1_555
C18 C20 1_555 1_555
C18 C21 1_555 1_555
O2A Cd1F 1_555 1_555
C6A C7A 1_555 1_555
O5A C17A 1_555 1_555
C15A C19A 1_555 1_555
C18A C20A 1_555 1_555
C18A C21A 1_555 1_555
O9A C21A 1_555 1_555

#END
