
#######################################################################
#
#                 Cambridge Crystallographic Data Centre
#                                CCDC 
#
#######################################################################
#
# If this CIF has been generated from an entry in the Cambridge 
# Structural Database, then it will include bibliographic, chemical, 
# crystal, experimental, refinement or atomic coordinate data resulting 
# from the CCDC's data processing and validation procedures.
#
#######################################################################

data_TULLIW
_symmetry_cell_setting           monoclinic
_symmetry_space_group_name_H-M   'C c'
_symmetry_Int_Tables_number      9
_space_group_name_Hall           'C -2yc'
loop_
_symmetry_equiv_pos_site_id
_symmetry_equiv_pos_as_xyz
1 x,y,z
2 x,-y,1/2+z
3 1/2+x,1/2+y,z
4 1/2+x,1/2-y,1/2+z
_cell_length_a                   16.044(11)
_cell_length_b                   12.960(9)
_cell_length_c                   15.062(11)
_cell_angle_alpha                90
_cell_angle_beta                 115.642(11)
_cell_angle_gamma                90
_cell_volume                     2823.41
loop_
_atom_site_label
_atom_site_type_symbol
_atom_site_fract_x
_atom_site_fract_y
_atom_site_fract_z
Cd1 Cd -0.092318(14) 0.234832(16) 0.484315(15)
Cd2 Cd 0.020290(12) 0.190384(17) 0.153215(13)
Cd3 Cd -0.595950(13) 0.315670(16) 0.229590(13)
Cd4 Cd 0.308930(14) 0.150880(16) 0.617160(16)
C1 C -0.2800(2) 0.3624(3) 0.3741(3)
H1 H -0.2682 0.3646 0.3162
H2 H -0.2469 0.4193 0.4166
C2 C -0.3824(2) 0.3755(3) 0.3433(2)
H3 H -0.3923 0.3857 0.4019
H4 H -0.4032 0.4373 0.3034
C3 C -0.4019(2) 0.1923(2) 0.3469(3)
H5 H -0.4097 0.1964 0.4071
H6 H -0.4370 0.1334 0.3095
C4 C -0.3021(2) 0.1769(3) 0.3717(2)
H7 H -0.2804 0.1147 0.4109
H8 H -0.2951 0.1674 0.3114
C5 C 0.12163(18) 0.2638(2) 0.5655(2)
C6 C 0.12104(19) 0.2357(2) 0.4699(2)
C7 C 0.05937(18) 0.2411(2) 0.3710(2)
C8 C -0.0338(2) 0.2873(2) 0.3157(2)
C9 C 0.18261(19) 0.1717(3) 0.3817(2)
H9 H 0.2249 0.1396 0.3639
C10 C -0.08335(18) 0.0124(2) 0.5771(2)
C11 C -0.0897(2) -0.0076(2) 0.4760(2)
C12 C -0.09756(18) -0.0962(2) 0.41964(19)
C13 C -0.10236(19) -0.2100(2) 0.4332(2)
C14 C -0.0937(2) 0.0388(3) 0.3383(2)
H10 H -0.0918 0.0796 0.2884
C15 C -0.31201(19) 0.2348(2) 0.62475(19)
C16 C -0.29926(19) 0.3483(2) 0.6327(2)
C17 C -0.23258(16) 0.4207(2) 0.63777(19)
C18 C -0.14222(19) 0.4126(2) 0.6307(2)
C19 C -0.3452(2) 0.5015(2) 0.6417(2)
H11 H -0.3820 0.5560 0.6438
N1 N -0.43859(16) 0.2887(2) 0.28800(17)
H12 H -0.4277 0.2821 0.2338
N2 N -0.24505(15) 0.2644(2) 0.42651(17)
H13 H -0.2551 0.2692 0.4814
N3 N 0.09873(16) 0.2021(2) 0.31615(18)
N4 N 0.19943(15) 0.1912(2) 0.47208(19)
N5 N -0.09064(16) 0.0768(2) 0.41952(17)
N6 N -0.09983(18) -0.06437(19) 0.33268(18)
N7 N -0.37115(16) 0.40412(19) 0.63584(18)
N8 N -0.26245(16) 0.51511(19) 0.64416(19)
Na1 Na 0.03380(13) 0.49963(18) 0.59190(16)
O1 O 0.04860(13) 0.29228(18) 0.57054(14)
O2 O 0.19740(14) 0.25753(17) 0.63902(15)
O3 O -0.08209(13) 0.32176(16) 0.35425(14)
O4 O -0.06327(13) 0.28489(17) 0.22312(14)
O5 O -0.08354(13) 0.10817(16) 0.59788(13)
O6 O -0.07837(13) -0.05599(16) 0.63308(14)
O7 O -0.09482(14) -0.24689(16) 0.51519(14)
O8 O -0.11500(15) -0.26656(16) 0.36045(16)
O9 O -0.38455(13) 0.19701(16) 0.61877(16)
O10 O -0.24849(13) 0.18002(16) 0.62036(16)
O11 O -0.10600(14) 0.32557(15) 0.63171(15)
O12 O -0.10757(14) 0.49649(17) 0.62056(17)
O13 O 0.1283(3) 0.5431(3) 0.7668(3)
H14 H 0.1333 0.4983 0.8139
H15 H 0.1563 0.5993 0.7829
O14 O 0.1775(2) 0.4835(3) 0.5830(2)
H16 H 0.2130 0.5306 0.5906
H17 H 0.1970 0.4216 0.5736
O15 O -0.06471(17) 0.5285(2) 0.4305(2)
H18 H -0.0465 0.5889 0.4127
H19 H -0.1045 0.4789 0.4027
Cd2C Cd -0.479710(12) 0.309616(17) 0.653215(13)
Cd2A Cd 0.020290(12) -0.190384(17) 0.653215(13)
Cd3B Cd -0.095950(13) -0.184330(16) 0.229590(13)
Cd3C Cd -0.095950(13) 0.184330(16) 0.729590(13)
Cd4B Cd -0.191070(14) 0.650880(16) 0.617160(16)
Cd4C Cd -0.191070(14) 0.349120(16) 0.117160(16)
N6B N -0.59983(18) 0.43563(19) 0.33268(18)
N7C N 0.12885(16) 0.09588(19) 0.13584(18)
N8B N 0.23755(16) 0.01511(19) 0.64416(19)
Na1B Na -0.46620(13) -0.00037(18) 0.59190(16)
O4C O 0.43673(13) 0.21511(17) 0.72312(14)
O5C O -0.58354(13) 0.39183(16) 0.09788(13)
O6A O -0.07837(13) 0.05599(16) 0.13308(14)
O7A O -0.09482(14) 0.24689(16) 0.01519(14)
O8B O -0.61500(15) 0.23344(16) 0.36045(16)
O9C O 0.11545(13) 0.30299(16) 0.11877(16)
O9B O 0.11545(13) 0.69701(16) 0.61877(16)
O10C O -0.74849(13) 0.31998(16) 0.12036(16)
O11C O -0.60600(14) 0.17443(15) 0.13171(15)
O12B O 0.39243(14) -0.00351(17) 0.62056(17)
loop_
_geom_bond_atom_site_label_1
_geom_bond_atom_site_label_2
_geom_bond_site_symmetry_1
_geom_bond_site_symmetry_2
Cd1 N2 1_555 1_555
Cd2 N3 1_555 1_555
Cd3 N1 1_555 1_555
Cd4 N4 1_555 1_555
C1 H1 1_555 1_555
H2 C1 1_555 1_555
C2 C1 1_555 1_555
H3 C2 1_555 1_555
H4 C2 1_555 1_555
C3 H5 1_555 1_555
H6 C3 1_555 1_555
C4 C3 1_555 1_555
H7 C4 1_555 1_555
H8 C4 1_555 1_555
C5 C6 1_555 1_555
C6 C7 1_555 1_555
C7 C8 1_555 1_555
C8 O3 1_555 1_555
C9 H9 1_555 1_555
C10 C11 1_555 1_555
C11 C12 1_555 1_555
C12 C13 1_555 1_555
C13 O7 1_555 1_555
C14 H10 1_555 1_555
C15 C16 1_555 1_555
C16 C17 1_555 1_555
C17 C18 1_555 1_555
C18 O11 1_555 1_555
C19 H11 1_555 1_555
N1 C2 1_555 1_555
H12 N1 1_555 1_555
N2 C1 1_555 1_555
H13 N2 1_555 1_555
N3 C7 1_555 1_555
N4 C6 1_555 1_555
N5 Cd1 1_555 1_555
N6 C12 1_555 1_555
N7 C16 1_555 1_555
N8 C17 1_555 1_555
Na1 O1 1_555 1_555
O1 Cd1 1_555 1_555
O2 Cd4 1_555 1_555
O3 Cd1 1_555 1_555
O4 Cd2 1_555 1_555
O5 Cd1 1_555 1_555
O6 C10 1_555 1_555
O7 Cd2A 1_555 1_555
O8 C13 1_555 1_555
O9 C15 1_555 1_555
O10 C15 1_555 1_555
O11 Cd1 1_555 1_555
O12 C18 1_555 1_555
O13 Na1 1_555 1_555
H14 O13 1_555 1_555
H15 O13 1_555 1_555
O14 Na1 1_555 1_555
H16 O14 1_555 1_555
H17 O14 1_555 1_555
O15 Na1 1_555 1_555
H18 O15 1_555 1_555
H19 O15 1_555 1_555
Cd2C N7 1_555 1_555
Cd2A O6 1_555 1_555
Cd3B N6 1_555 1_555
Cd3C O5 1_555 1_555
Cd4B N8 1_555 1_555
Cd4C O4 1_555 1_555
N6B Cd3 1_555 1_555
N7C Cd2 1_555 1_555
N8B Cd4 1_555 1_555
Na1B O9 1_555 1_555
O4C Cd4 1_555 1_555
O5C Cd3 1_555 1_555
O6A Cd2 1_555 1_555
O7A Cd2 1_555 1_555
O8B Cd3 1_555 1_555
O9C Cd2 1_555 1_555
O9B Na1 1_555 1_555
O10C Cd3 1_555 1_555
O11C Cd3 1_555 1_555
O12B Cd4 1_555 1_555
C3 N1 1_555 1_555
C4 N2 1_555 1_555
C5 O1 1_555 1_555
C5 O2 1_555 1_555
C8 O4 1_555 1_555
C9 N3 1_555 1_555
C9 N4 1_555 1_555
C10 O5 1_555 1_555
C11 N5 1_555 1_555
C14 N5 1_555 1_555
C14 N6 1_555 1_555
C19 N7 1_555 1_555
C19 N8 1_555 1_555
Na1 O12 1_555 1_555
O8 Cd3B 1_555 1_555
O9 Cd2C 1_555 1_555
O10 Cd3C 1_555 1_555
O11 Cd3C 1_555 1_555
O12 Cd4B 1_555 1_555

#END
