
#######################################################################
#
#                 Cambridge Crystallographic Data Centre
#                                CCDC 
#
#######################################################################
#
# If this CIF has been generated from an entry in the Cambridge 
# Structural Database, then it will include bibliographic, chemical, 
# crystal, experimental, refinement or atomic coordinate data resulting 
# from the CCDC's data processing and validation procedures.
#
#######################################################################

data_TULMET
_symmetry_cell_setting           monoclinic
_symmetry_space_group_name_H-M   'P 21/n'
_symmetry_Int_Tables_number      14
_space_group_name_Hall           '-P 2yn'
loop_
_symmetry_equiv_pos_site_id
_symmetry_equiv_pos_as_xyz
1 x,y,z
2 1/2-x,1/2+y,1/2-z
3 -x,-y,-z
4 1/2+x,1/2-y,1/2+z
_cell_length_a                   10.5300(9)
_cell_length_b                   14.2667(12)
_cell_length_c                   13.3878(11)
_cell_angle_alpha                90
_cell_angle_beta                 99.827(2)
_cell_angle_gamma                90
_cell_volume                     1981.72
loop_
_atom_site_label
_atom_site_type_symbol
_atom_site_fract_x
_atom_site_fract_y
_atom_site_fract_z
Cd1 Cd 0.57888(3) 0.127534(17) 0.168802(19)
O1 O 0.3761(3) 0.1014(2) 0.0769(2)
O2 O 0.8033(3) 0.09834(19) 0.1754(2)
O3 O 0.6715(2) 0.05840(17) 0.03613(18)
C1 C 0.8962(4) 0.0318(2) 0.0426(3)
O4 O 0.4561(3) 0.24676(17) -0.0168(2)
C2 C 0.5036(3) 0.4049(2) 0.0243(3)
C3 C 0.6092(3) -0.0198(2) 0.3478(2)
N1 N 0.6046(3) 0.1489(2) 0.3450(2)
O5 O 0.5553(3) 0.27864(17) 0.1395(2)
C4 C 0.6251(3) 0.0701(3) 0.4005(3)
N2 N 0.5694(3) -0.0178(2) 0.2463(2)
C5 C 0.7834(4) 0.0650(2) 0.0877(3)
C6 C 0.5494(4) 0.4713(2) 0.0970(3)
C7 C 0.5051(4) 0.3020(2) 0.0503(3)
N3 N 0.6981(4) -0.1846(3) 0.5608(3)
C8 C 1.0065(4) -0.0018(3) 0.1038(3)
C9 C 0.4554(4) 0.4350(2) -0.0733(3)
C10 C 0.6863(4) -0.0150(3) 0.5618(3)
C11 C 0.6315(4) -0.1030(3) 0.4008(3)
C12 C 0.6612(4) 0.0728(3) 0.5064(3)
C13 C 0.5505(4) -0.0993(3) 0.1981(3)
H1 H 0.5213 -0.0985 0.1285
C14 C 0.6129(5) -0.1873(3) 0.3476(3)
H2 H 0.6284 -0.2443 0.3812
C15 C 0.8913(4) 0.0326(3) -0.0615(3)
C16 C 0.6138(5) 0.2317(3) 0.3920(3)
H3 H 0.5997 0.2862 0.3536
C17 C 0.6441(5) 0.2384(4) 0.4971(4)
H4 H 0.6469 0.2967 0.5285
C18 C 0.5717(5) -0.1847(3) 0.2456(3)
H5 H 0.5582 -0.2399 0.2084
N4 N 0.7227(4) -0.0105(4) 0.6661(3)
C19 C 0.7432(6) -0.0934(6) 0.7088(4)
H6 H 0.7663 -0.0959 0.7790
C20 C 0.7322(6) -0.1775(5) 0.6555(4)
H7 H 0.7514 -0.2324 0.6924
C21 C 0.6746(4) -0.1009(3) 0.5113(3)
C22 C 0.6693(5) 0.1599(4) 0.5532(4)
H8 H 0.6921 0.1642 0.6233
H9 H 0.425(3) 0.391(2) -0.125(3)
H10 H 0.582(3) 0.448(3) 0.163(3)
H11 H 0.816(4) 0.056(3) -0.100(3)
H12 H 1.009(4) -0.001(3) 0.172(3)
H13 H 0.377(5) 0.147(4) 0.035(4)
H14 H 0.365(4) 0.054(3) 0.049(3)
Cd1B Cd 1.42112(3) -0.127534(17) -0.168802(19)
Cd1B_2 Cd 0.42112(3) 0.872466(17) -0.168802(19)
O1B O 1.6239(3) -0.1014(2) -0.0769(2)
O2B O 1.1967(3) -0.09834(19) -0.1754(2)
O3B O 1.3285(2) -0.05840(17) -0.03613(18)
C1B C 1.1038(4) -0.0318(2) -0.0426(3)
O4B O 0.5439(3) 0.75324(17) 0.0168(2)
C2B C 0.4964(3) 0.5951(2) -0.0243(3)
C3B C 1.3908(3) 0.0198(2) -0.3478(2)
N1B N 1.3954(3) -0.1489(2) -0.3450(2)
O5B O 0.4447(3) 0.72136(17) -0.1395(2)
O5B_2 O 1.4447(3) -0.27864(17) -0.1395(2)
C4B C 1.3749(3) -0.0701(3) -0.4005(3)
N2B N 1.4306(3) 0.0178(2) -0.2463(2)
C5B C 1.2166(4) -0.0650(2) -0.0877(3)
C6B C 0.4506(4) 0.5287(2) -0.0970(3)
C7B C 0.4949(4) 0.6980(2) -0.0503(3)
N3B N 1.3019(4) 0.1846(3) -0.5608(3)
C8B C 0.9935(4) 0.0018(3) -0.1038(3)
C9B C 0.5446(4) 0.5650(2) 0.0733(3)
C10B C 1.3137(4) 0.0150(3) -0.5618(3)
C11B C 1.3685(4) 0.1030(3) -0.4008(3)
C12B C 1.3388(4) -0.0728(3) -0.5064(3)
C13B C 1.4495(4) 0.0993(3) -0.1981(3)
H1B H 1.4787 0.0985 -0.1285
C14B C 1.3871(5) 0.1873(3) -0.3476(3)
H2B H 1.3716 0.2443 -0.3812
C15B C 1.1087(4) -0.0326(3) 0.0615(3)
C16B C 1.3862(5) -0.2317(3) -0.3920(3)
H3B H 1.4003 -0.2862 -0.3536
C17B C 1.3559(5) -0.2384(4) -0.4971(4)
H4B H 1.3531 -0.2967 -0.5285
C18B C 1.4283(5) 0.1847(3) -0.2456(3)
H5B H 1.4418 0.2399 -0.2084
N4B N 1.2773(4) 0.0105(4) -0.6661(3)
C19B C 1.2568(6) 0.0934(6) -0.7088(4)
H6B H 1.2337 0.0959 -0.7790
C20B C 1.2678(6) 0.1775(5) -0.6555(4)
H7B H 1.2486 0.2324 -0.6924
C21B C 1.3254(4) 0.1009(3) -0.5113(3)
C22B C 1.3307(5) -0.1599(4) -0.5532(4)
H8B H 1.3079 -0.1642 -0.6233
H9B H 0.575(3) 0.609(2) 0.125(3)
H10B H 0.418(3) 0.552(3) -0.163(3)
H11B H 1.184(4) -0.056(3) 0.100(3)
H12B H 0.991(4) 0.001(3) -0.172(3)
H13B H 1.623(5) -0.147(4) -0.035(4)
H14B H 1.635(4) -0.054(3) -0.049(3)
loop_
_geom_bond_atom_site_label_1
_geom_bond_atom_site_label_2
_geom_bond_site_symmetry_1
_geom_bond_site_symmetry_2
Cd1 O1 1_555 1_555
O1 H13 1_555 1_555
O2 Cd1 1_555 1_555
O3 Cd1 1_555 1_555
C1 C5 1_555 1_555
O4 C7 1_555 1_555
C2 C6 1_555 1_555
C3 C4 1_555 1_555
N1 Cd1 1_555 1_555
O5 Cd1 1_555 1_555
C4 N1 1_555 1_555
N2 Cd1 1_555 1_555
C5 O2 1_555 1_555
C6 H10 1_555 1_555
C7 C2 1_555 1_555
N3 C20 1_555 1_555
C8 C1 1_555 1_555
C9 C2 1_555 1_555
C10 C12 1_555 1_555
C11 C3 1_555 1_555
C12 C4 1_555 1_555
C13 N2 1_555 1_555
H1 C13 1_555 1_555
C14 C11 1_555 1_555
H2 C14 1_555 1_555
C15 C1 1_555 1_555
C16 N1 1_555 1_555
H3 C16 1_555 1_555
C17 C16 1_555 1_555
H4 C17 1_555 1_555
C18 C13 1_555 1_555
H5 C18 1_555 1_555
N4 C10 1_555 1_555
C19 N4 1_555 1_555
H6 C19 1_555 1_555
C20 C19 1_555 1_555
H7 C20 1_555 1_555
C21 N3 1_555 1_555
C22 C12 1_555 1_555
H8 C22 1_555 1_555
H9 C9 1_555 1_555
H11 C15 1_555 1_555
H12 C8 1_555 1_555
H14 O1 1_555 1_555
Cd1B O1B 1_555 1_555
Cd1B_2 O5B 1_555 1_555
O1B H13B 1_555 1_555
O2B Cd1B 1_555 1_555
O3B Cd1B 1_555 1_555
C1B C5B 1_555 1_555
O4B C7B 1_555 1_555
C2B C6B 1_555 1_555
C3B C4B 1_555 1_555
N1B Cd1B 1_555 1_555
O5B C7B 1_555 1_555
O5B_2 Cd1B 1_555 1_555
C4B N1B 1_555 1_555
N2B Cd1B 1_555 1_555
C5B O2B 1_555 1_555
C6B C9 1_555 1_555
C7B C2B 1_555 1_555
N3B C20B 1_555 1_555
C8B C15 1_555 1_555
C9B C6 1_555 1_555
C10B C12B 1_555 1_555
C11B C3B 1_555 1_555
C12B C4B 1_555 1_555
C13B N2B 1_555 1_555
H1B C13B 1_555 1_555
C14B C11B 1_555 1_555
H2B C14B 1_555 1_555
C15B C8 1_555 1_555
C16B N1B 1_555 1_555
H3B C16B 1_555 1_555
C17B C16B 1_555 1_555
H4B C17B 1_555 1_555
C18B C13B 1_555 1_555
H5B C18B 1_555 1_555
N4B C10B 1_555 1_555
C19B N4B 1_555 1_555
H6B C19B 1_555 1_555
C20B C19B 1_555 1_555
H7B C20B 1_555 1_555
C21B N3B 1_555 1_555
C22B C12B 1_555 1_555
H8B C22B 1_555 1_555
H9B C9B 1_555 1_555
H10B C6B 1_555 1_555
H11B C15B 1_555 1_555
H12B C8B 1_555 1_555
H14B O1B 1_555 1_555
O3 C5 1_555 1_555
C3 N2 1_555 1_555
O5 C7 1_555 1_555
C10 C21 1_555 1_555
C11 C21 1_555 1_555
C14 C18 1_555 1_555
C17 C22 1_555 1_555
O3B C5B 1_555 1_555
C1B C8B 1_555 1_555
C1B C15B 1_555 1_555
C2B C9B 1_555 1_555
C3B N2B 1_555 1_555
C10B C21B 1_555 1_555
C11B C21B 1_555 1_555
C14B C18B 1_555 1_555
C17B C22B 1_555 1_555

#END
