
#######################################################################
#
#                 Cambridge Crystallographic Data Centre
#                                CCDC 
#
#######################################################################
#
# If this CIF has been generated from an entry in the Cambridge 
# Structural Database, then it will include bibliographic, chemical, 
# crystal, experimental, refinement or atomic coordinate data resulting 
# from the CCDC's data processing and validation procedures.
#
#######################################################################

data_TULMOD
_symmetry_cell_setting           monoclinic
_symmetry_space_group_name_H-M   'P 21'
_symmetry_Int_Tables_number      4
_space_group_name_Hall           'P 2yb'
loop_
_symmetry_equiv_pos_site_id
_symmetry_equiv_pos_as_xyz
1 x,y,z
2 -x,1/2+y,-z
_cell_length_a                   6.5554(13)
_cell_length_b                   20.554(4)
_cell_length_c                   11.172(2)
_cell_angle_alpha                90
_cell_angle_beta                 92.583(3)
_cell_angle_gamma                90
_cell_volume                     1503.78
loop_
_atom_site_label
_atom_site_type_symbol
_atom_site_fract_x
_atom_site_fract_y
_atom_site_fract_z
C1 C 1.2767(18) -0.1989(6) 0.7219(15)
H1 H 1.3565 -0.2134 0.7910
H2 H 1.3562 -0.1695 0.6762
H3 H 1.2375 -0.2357 0.6732
C2 C 1.0901(17) -0.1649(6) 0.7611(12)
C3 C 1.0345(17) -0.1048(6) 0.7128(11)
H4 H 1.1173 -0.0863 0.6566
C4 C 0.7566(15) -0.1014(5) 0.8223(9)
C5 C 0.8094(17) -0.1612(7) 0.8741(10)
H5 H 0.7268 -0.1795 0.9307
C6 C 0.5629(15) -0.0669(5) 0.8595(8)
C7 C 0.4582(15) 0.2024(5) 0.6803(8)
C8 C 0.2666(15) 0.2345(5) 0.7209(9)
C9 C 0.1836(19) 0.2895(6) 0.6637(11)
H6 H 0.2453 0.3056 0.5965
C10 C -0.0648(17) 0.2942(6) 0.7964(11)
C11 C -0.248(2) 0.3290(8) 0.8475(13)
H7 H -0.2011 0.3618 0.9033
H8 H -0.3308 0.2980 0.8879
H9 H -0.3285 0.3490 0.7835
C12 C 0.0099(18) 0.2413(6) 0.8525(11)
H10 H -0.0523 0.2262 0.9204
C13 C 0.7897(15) -0.0210(6) 0.3814(9)
H11 H 0.6526 -0.0303 0.3911
C14 C 1.0990(14) 0.0124(5) 0.4577(7)
C15 C 1.2313(14) 0.0343(5) 0.5624(8)
C16 C 1.1724(15) 0.0049(5) 0.3461(8)
H12 H 1.3093 0.0143 0.3360
C17 C 0.8658(16) -0.0292(5) 0.2699(9)
C18 C 0.7326(17) -0.0499(7) 0.1646(9)
H13 H 0.6582 -0.0130 0.1331
H14 H 0.6385 -0.0825 0.1892
H15 H 0.8159 -0.0675 0.1038
C19 C 0.7997(13) 0.1029(5) 0.9755(8)
C20 C 0.8555(15) 0.1303(5) 1.1954(9)
H16 H 0.7182 0.1214 1.2050
C21 C 0.9326(14) 0.1221(5) 1.0829(8)
C22 C 1.2427(15) 0.1549(6) 1.1614(9)
H17 H 1.3789 0.1652 1.1510
C23 C 1.1666(16) 0.1628(5) 1.2712(10)
C24 C 1.2890(17) 0.1866(8) 1.3795(10)
H18 H 1.2485 0.2302 1.3979
H19 H 1.4316 0.1860 1.3633
H20 H 1.2651 0.1588 1.4464
N1 N 0.8705(13) -0.0727(4) 0.7427(8)
N2 N 0.9770(15) -0.1924(5) 0.8430(10)
N3 N 0.1748(14) 0.2088(5) 0.8127(9)
N4 N 0.0199(15) 0.3193(5) 0.7020(9)
N5 N 0.9004(12) -0.0006(4) 0.4755(7)
N6 N 1.0624(13) -0.0145(4) 0.2532(7)
N7 N 1.1313(12) 0.1331(5) 1.0685(7)
N8 N 0.9677(13) 0.1503(4) 1.2897(7)
O1 O 0.5276(10) -0.0111(3) 0.8127(6)
O2 O 0.4614(12) -0.0952(4) 0.9311(7)
O3 O 0.5546(11) 0.2329(4) 0.6058(7)
O4 O 0.5040(9) 0.1493(3) 0.7269(6)
O5 O 1.1417(8) 0.0479(4) 0.6592(5)
O6 O 1.4172(9) 0.0362(4) 0.5487(5)
O7 O 0.8906(8) 0.0882(4) 0.8802(5)
O8 O 0.2081(13) -0.0092(4) 1.0101(7)
H21 H 0.1047 0.0009 1.0494
H22 H 0.1823 -0.0435 0.9696
O9 O 0.6147(9) 0.1025(4) 0.9894(5)
O10 O 0.8257(12) 0.1461(4) 0.5332(7)
H23 H 0.9291 0.1362 0.4937
H24 H 0.8514 0.1803 0.5739
Sr1 Sr 0.74776(11) 0.05364(4) 0.67347(7)
Sr2 Sr 0.28583(11) 0.08190(4) 0.86691(7)
N7_2 N 0.1313(12) 0.1331(5) 1.0685(7)
O5_2 O 0.1417(8) 0.0479(4) 0.6592(5)
O6_2 O 0.4172(9) 0.0362(4) 0.5487(5)
O7_2 O -0.1094(8) 0.0882(4) 0.8802(5)
Sr1_2 Sr 1.74776(11) 0.05364(4) 0.67347(7)
Sr2_2 Sr 1.28583(11) 0.08190(4) 0.86691(7)
O11 O 0.650(2) 0.3664(6) 0.5490(14)
H25 H 0.7140 0.3838 0.6086
H26 H 0.6221 0.3271 0.5653
loop_
_geom_bond_atom_site_label_1
_geom_bond_atom_site_label_2
_geom_bond_site_symmetry_1
_geom_bond_site_symmetry_2
C1 H1 1_555 1_555
H2 C1 1_555 1_555
H3 C1 1_555 1_555
C2 C1 1_555 1_555
C3 C2 1_555 1_555
H4 C3 1_555 1_555
C4 C5 1_555 1_555
C5 H5 1_555 1_555
C6 C4 1_555 1_555
C7 C8 1_555 1_555
C8 C9 1_555 1_555
C9 H6 1_555 1_555
C10 C11 1_555 1_555
C11 H7 1_555 1_555
H8 C11 1_555 1_555
H9 C11 1_555 1_555
C12 C10 1_555 1_555
H10 C12 1_555 1_555
C13 H11 1_555 1_555
C14 C15 1_555 1_555
C15 O5 1_555 1_555
C16 C14 1_555 1_555
H12 C16 1_555 1_555
C17 C13 1_555 1_555
C18 C17 1_555 1_555
H13 C18 1_555 1_555
H14 C18 1_555 1_555
H15 C18 1_555 1_555
C19 C21 1_555 1_555
C20 H16 1_555 1_555
C21 C20 1_555 1_555
C22 H17 1_555 1_555
C23 C22 1_555 1_555
C24 C23 1_555 1_555
H18 C24 1_555 1_555
H19 C24 1_555 1_555
H20 C24 1_555 1_555
N1 C3 1_555 1_555
N2 C2 1_555 1_555
N3 C8 1_555 1_555
N4 C9 1_555 1_555
N5 C13 1_555 1_555
N6 C16 1_555 1_555
N7 C21 1_555 1_555
N8 C20 1_555 1_555
O1 C6 1_555 1_555
O2 C6 1_555 1_555
O3 C7 1_555 1_555
O4 C7 1_555 1_555
O5 Sr1 1_555 1_555
O6 C15 1_555 1_555
O7 C19 1_555 1_555
O8 H21 1_555 1_555
H22 O8 1_555 1_555
O9 C19 1_555 1_555
O10 H23 1_555 1_555
H24 O10 1_555 1_555
O11 H25 1_555 1_555
H26 O11 1_555 1_555
Sr1 N1 1_555 1_555
Sr2 N3 1_555 1_555
N7_2 Sr2 1_555 1_555
O5_2 Sr2 1_555 1_555
O6_2 Sr1 1_555 1_555
O7_2 Sr2 1_555 1_555
Sr1_2 O6 1_555 1_555
Sr2_2 N7 1_555 1_555
C4 N1 1_555 1_555
C5 N2 1_555 1_555
C10 N4 1_555 1_555
C12 N3 1_555 1_555
C14 N5 1_555 1_555
C17 N6 1_555 1_555
C22 N7 1_555 1_555
C23 N8 1_555 1_555
N5 Sr1 1_555 1_555
O1 Sr1 1_555 1_555
O1 Sr2 1_555 1_555
O4 Sr1 1_555 1_555
O4 Sr2 1_555 1_555
O5 Sr2_2 1_555 1_555
O7 Sr1 1_555 1_555
O7 Sr2_2 1_555 1_555
O8 Sr2 1_555 1_555
O9 Sr2 1_555 1_555
O10 Sr1 1_555 1_555

#END
