
#######################################################################
#
#                 Cambridge Crystallographic Data Centre
#                                CCDC 
#
#######################################################################
#
# If this CIF has been generated from an entry in the Cambridge 
# Structural Database, then it will include bibliographic, chemical, 
# crystal, experimental, refinement or atomic coordinate data resulting 
# from the CCDC's data processing and validation procedures.
#
#######################################################################

data_TULMIX
_symmetry_cell_setting           monoclinic
_symmetry_space_group_name_H-M   'P 21/n'
_symmetry_Int_Tables_number      14
_space_group_name_Hall           '-P 2yn'
loop_
_symmetry_equiv_pos_site_id
_symmetry_equiv_pos_as_xyz
1 x,y,z
2 1/2-x,1/2+y,1/2-z
3 -x,-y,-z
4 1/2+x,1/2-y,1/2+z
_cell_length_a                   7.7866(14)
_cell_length_b                   15.420(3)
_cell_length_c                   23.464(4)
_cell_angle_alpha                90
_cell_angle_beta                 92.147(3)
_cell_angle_gamma                90
_cell_volume                     2815.33
loop_
_atom_site_label
_atom_site_type_symbol
_atom_site_fract_x
_atom_site_fract_y
_atom_site_fract_z
C1 C 0.0832(15) 0.3237(8) 0.4265(5)
C2 C 0.2303(15) 0.2615(8) 0.4175(5)
C3 C 0.2064(17) 0.1727(8) 0.4140(6)
H1 H 0.0950 0.1510 0.4145
C4 C 0.4931(17) 0.1495(9) 0.4084(6)
C5 C 0.5181(16) 0.2382(8) 0.4119(5)
H2 H 0.6299 0.2593 0.4112
C6 C 0.643(2) 0.0883(10) 0.4075(8)
H3 H 0.6220 0.0399 0.4321
H4 H 0.7452 0.1179 0.4206
H5 H 0.6566 0.0679 0.3693
C7 C 0.7196(17) 0.4366(8) 0.3226(5)
C8 C 0.5520(16) 0.4164(8) 0.2878(5)
C9 C 0.5510(18) 0.3972(11) 0.2305(6)
H6 H 0.6559 0.3944 0.2129
C10 C 0.2608(18) 0.3861(10) 0.2262(6)
C11 C 0.2635(16) 0.4048(8) 0.2823(5)
H7 H 0.1584 0.4073 0.2999
C12 C 0.0996(19) 0.3668(13) 0.1904(6)
H8 H 0.0585 0.4192 0.1725
H9 H 0.0131 0.3440 0.2144
H10 H 0.1251 0.3249 0.1616
C13 C 1.2159(16) 0.6064(8) 0.3317(5)
C14 C 1.0501(15) 0.6345(8) 0.3003(5)
C15 C 0.7582(15) 0.6424(8) 0.2977(5)
H11 H 0.6533 0.6293 0.3134
C16 C 0.7573(18) 0.6808(10) 0.2452(6)
C17 C 1.0480(17) 0.6708(10) 0.2479(6)
H12 H 1.1528 0.6807 0.2313
C18 C 0.5939(17) 0.6992(10) 0.2109(6)
H13 H 0.5737 0.7606 0.2099
H14 H 0.4994 0.6708 0.2282
H15 H 0.6046 0.6780 0.1727
C19 C 0.5826(16) 0.6900(7) 0.4429(5)
C20 C 0.7340(16) 0.7537(8) 0.4397(5)
C21 C 0.7079(17) 0.8421(8) 0.4412(6)
H16 H 0.5962 0.8631 0.4423
C22 C 0.9949(17) 0.8667(8) 0.4403(5)
C23 C 1.0200(17) 0.7790(8) 0.4367(5)
H17 H 1.1316 0.7583 0.4342
C24 C 1.1426(19) 0.9299(9) 0.4422(7)
H18 H 1.1480 0.9588 0.4061
H19 H 1.2480 0.8992 0.4501
H20 H 1.1257 0.9720 0.4716
N1 N 0.3946(12) 0.2931(6) 0.4162(4)
N2 N 0.3378(18) 0.1164(7) 0.4098(5)
N3 N 0.4037(13) 0.4198(7) 0.3145(4)
N4 N 0.4097(16) 0.3826(10) 0.1989(5)
N5 N 0.8931(11) 0.7227(6) 0.4367(4)
N6 N 0.8376(16) 0.8983(7) 0.4412(5)
N7 N 0.9008(12) 0.6229(6) 0.3274(4)
N8 N 0.9052(16) 0.6933(8) 0.2183(5)
O1 O 0.1210(10) 0.4015(5) 0.4317(4)
O2 O -0.0614(10) 0.2921(6) 0.4295(4)
O3 O 0.6981(10) 0.4615(5) 0.3721(3)
O4 O 0.8514(11) 0.4298(7) 0.2980(4)
O5 O 1.1956(10) 0.5656(5) 0.3784(3)
O6 O 1.3509(11) 0.6215(7) 0.3091(4)
O7 O 0.6237(10) 0.6121(5) 0.4412(4)
O8 O 0.4378(10) 0.7211(5) 0.4480(4)
Pb1 Pb 0.91811(6) 0.55117(3) 0.426065(18)
Pb2 Pb 0.41864(6) 0.46492(3) 0.420565(18)
O5_2 O 0.1956(10) 0.5656(5) 0.3784(3)
Pb2_2 Pb 1.41864(6) 0.46492(3) 0.420565(18)
O9 O 0.2553(11) 0.5964(5) 0.5053(3)
H21 H 0.3119 0.6347 0.4880
H22 H 0.1546 0.6152 0.5108
loop_
_geom_bond_atom_site_label_1
_geom_bond_atom_site_label_2
_geom_bond_site_symmetry_1
_geom_bond_site_symmetry_2
C1 C2 1_555 1_555
C2 C3 1_555 1_555
C3 H1 1_555 1_555
C4 C5 1_555 1_555
C5 H2 1_555 1_555
C6 C4 1_555 1_555
H3 C6 1_555 1_555
H4 C6 1_555 1_555
H5 C6 1_555 1_555
C7 C8 1_555 1_555
C8 C9 1_555 1_555
C9 H6 1_555 1_555
C10 C11 1_555 1_555
C11 H7 1_555 1_555
C12 C10 1_555 1_555
H8 C12 1_555 1_555
H9 C12 1_555 1_555
H10 C12 1_555 1_555
C13 C14 1_555 1_555
C14 C17 1_555 1_555
C15 H11 1_555 1_555
C16 C15 1_555 1_555
C17 H12 1_555 1_555
C18 C16 1_555 1_555
H13 C18 1_555 1_555
H14 C18 1_555 1_555
H15 C18 1_555 1_555
C19 C20 1_555 1_555
C20 C21 1_555 1_555
C21 H16 1_555 1_555
C22 C23 1_555 1_555
C23 H17 1_555 1_555
C24 C22 1_555 1_555
H18 C24 1_555 1_555
H19 C24 1_555 1_555
H20 C24 1_555 1_555
N1 C2 1_555 1_555
N2 C3 1_555 1_555
N3 C8 1_555 1_555
N4 C9 1_555 1_555
N5 C20 1_555 1_555
N6 C21 1_555 1_555
N7 C14 1_555 1_555
N8 C16 1_555 1_555
O1 C1 1_555 1_555
O2 C1 1_555 1_555
O3 C7 1_555 1_555
O4 C7 1_555 1_555
O5 C13 1_555 1_555
O6 C13 1_555 1_555
O7 C19 1_555 1_555
O8 C19 1_555 1_555
O9 H21 1_555 1_555
H22 O9 1_555 1_555
Pb1 N5 1_555 1_555
Pb2 N1 1_555 1_555
O5_2 Pb2 1_555 1_555
Pb2_2 O5 1_555 1_555
C4 N2 1_555 1_555
C5 N1 1_555 1_555
C10 N4 1_555 1_555
C11 N3 1_555 1_555
C15 N7 1_555 1_555
C17 N8 1_555 1_555
C22 N6 1_555 1_555
C23 N5 1_555 1_555
N3 Pb2 1_555 1_555
N7 Pb1 1_555 1_555
O1 Pb2 1_555 1_555
O3 Pb1 1_555 1_555
O3 Pb2 1_555 1_555
O5 Pb1 1_555 1_555
O7 Pb1 1_555 1_555

#END
