
#######################################################################
#
#                 Cambridge Crystallographic Data Centre
#                                CCDC 
#
#######################################################################
#
# If this CIF has been generated from an entry in the Cambridge 
# Structural Database, then it will include bibliographic, chemical, 
# crystal, experimental, refinement or atomic coordinate data resulting 
# from the CCDC's data processing and validation procedures.
#
#######################################################################

data_TULMAP
_symmetry_cell_setting           monoclinic
_symmetry_space_group_name_H-M   'P 21/c'
_symmetry_Int_Tables_number      14
_space_group_name_Hall           '-P 2ybc'
loop_
_symmetry_equiv_pos_site_id
_symmetry_equiv_pos_as_xyz
1 x,y,z
2 -x,1/2+y,1/2-z
3 -x,-y,-z
4 x,1/2-y,1/2+z
_cell_length_a                   14.5180(16)
_cell_length_b                   7.8734(9)
_cell_length_c                   16.1206(17)
_cell_angle_alpha                90
_cell_angle_beta                 94.183(2)
_cell_angle_gamma                90
_cell_volume                     1837.77
loop_
_atom_site_label
_atom_site_type_symbol
_atom_site_fract_x
_atom_site_fract_y
_atom_site_fract_z
Cd1 Cd 0.61417(2) -0.07439(4) 0.556548(19)
N1 N 0.7713(2) -0.0479(4) 0.6113(2)
N2 N 0.7037(2) 0.0462(5) 0.4567(2)
N3 N 1.0597(2) 0.2295(4) 0.57098(19)
N4 N 0.9887(2) 0.3256(4) 0.40987(19)
O1 O 0.4973(2) 0.1068(3) 0.56986(17)
O2 O 0.61745(19) 0.2276(4) 0.63505(19)
O3 O 0.5566(3) 0.6669(4) 0.5714(2)
O4 O 0.6051(3) 0.7584(5) 0.6908(2)
C1 C 0.8027(3) -0.0948(5) 0.6867(2)
H1 H 0.7639 -0.1565 0.7188
C2 C 0.8908(3) -0.0565(6) 0.7205(2)
H2 H 0.9107 -0.0935 0.7736
C3 C 0.9479(3) 0.0365(5) 0.6743(2)
H3 H 1.0069 0.0652 0.6963
C4 C 0.9174(3) 0.0884(5) 0.5939(2)
C5 C 0.9755(3) 0.1852(5) 0.5415(2)
C6 C 1.1107(3) 0.3213(5) 0.5206(3)
C7 C 1.2015(3) 0.3725(6) 0.5473(3)
H4 H 1.2265 0.3413 0.5999
C8 C 1.2523(3) 0.4663(6) 0.4973(3)
H5 H 1.3119 0.4983 0.5160
C9 C 1.2172(3) 0.5162(6) 0.4179(3)
H6 H 1.2532 0.5814 0.3846
C10 C 1.1299(3) 0.4691(5) 0.3891(3)
H7 H 1.1069 0.5017 0.3362
C11 C 1.0745(3) 0.3707(5) 0.4398(3)
C12 C 0.9404(3) 0.2331(5) 0.4598(2)
C13 C 0.8475(3) 0.1790(5) 0.4293(2)
C14 C 0.8110(3) 0.2174(6) 0.3492(3)
H8 H 0.8471 0.2735 0.3124
C15 C 0.7226(3) 0.1728(7) 0.3247(3)
H9 H 0.6973 0.1986 0.2715
C16 C 0.6709(3) 0.0881(7) 0.3809(3)
H10 H 0.6102 0.0594 0.3644
C17 C 0.8277(3) 0.0416(5) 0.5647(2)
C18 C 0.7916(3) 0.0908(5) 0.4815(2)
C19 C 0.5352(3) 0.2302(5) 0.6110(2)
C20 C 0.4722(3) 0.3741(5) 0.6310(3)
H11 H 0.4499 0.4275 0.5791
H12 H 0.4191 0.3267 0.6559
C21 C 0.5134(3) 0.5097(6) 0.6880(3)
H13 H 0.5568 0.4560 0.7284
H14 H 0.4643 0.5577 0.7184
C22 C 0.5629(3) 0.6549(6) 0.6474(3)
Cd1B Cd 0.38583(2) 0.07439(4) 0.443452(19)
Cd1_2 Cd 0.61417(2) 0.92561(4) 0.556548(19)
O1B O 0.5027(2) -0.1068(3) 0.43014(17)
O3_2 O 0.5566(3) -0.3331(4) 0.5714(2)
O4_2 O 0.6051(3) -0.2416(5) 0.6908(2)
loop_
_geom_bond_atom_site_label_1
_geom_bond_atom_site_label_2
_geom_bond_site_symmetry_1
_geom_bond_site_symmetry_2
Cd1 N1 1_555 1_555
N1 C1 1_555 1_555
N2 Cd1 1_555 1_555
N3 C5 1_555 1_555
N4 C11 1_555 1_555
O1 Cd1 1_555 1_555
O2 C19 1_555 1_555
O3 C22 1_555 1_555
O4 C22 1_555 1_555
C1 H1 1_555 1_555
C2 C1 1_555 1_555
H2 C2 1_555 1_555
C3 C2 1_555 1_555
H3 C3 1_555 1_555
C4 C3 1_555 1_555
C5 C4 1_555 1_555
C6 N3 1_555 1_555
C7 C6 1_555 1_555
H4 C7 1_555 1_555
C8 C7 1_555 1_555
H5 C8 1_555 1_555
C9 C8 1_555 1_555
H6 C9 1_555 1_555
C10 C9 1_555 1_555
H7 C10 1_555 1_555
C11 C6 1_555 1_555
C12 N4 1_555 1_555
C13 C12 1_555 1_555
C14 C13 1_555 1_555
H8 C14 1_555 1_555
C15 C14 1_555 1_555
H9 C15 1_555 1_555
C16 N2 1_555 1_555
H10 C16 1_555 1_555
C17 N1 1_555 1_555
C18 N2 1_555 1_555
C19 O1 1_555 1_555
C20 C19 1_555 1_555
H11 C20 1_555 1_555
H12 C20 1_555 1_555
C21 C20 1_555 1_555
H13 C21 1_555 1_555
H14 C21 1_555 1_555
C22 C21 1_555 1_555
Cd1B O1 1_555 1_555
Cd1_2 O3 1_555 1_555
O1B Cd1 1_555 1_555
O3_2 Cd1 1_555 1_555
O4_2 Cd1 1_555 1_555
O4 Cd1_2 1_555 1_555
C4 C17 1_555 1_555
C5 C12 1_555 1_555
C10 C11 1_555 1_555
C13 C18 1_555 1_555
C15 C16 1_555 1_555
C17 C18 1_555 1_555
Cd1B O1B 1_555 1_555

#END
