
#######################################################################
#
#                 Cambridge Crystallographic Data Centre
#                                CCDC 
#
#######################################################################
#
# If this CIF has been generated from an entry in the Cambridge 
# Structural Database, then it will include bibliographic, chemical, 
# crystal, experimental, refinement or atomic coordinate data resulting 
# from the CCDC's data processing and validation procedures.
#
#######################################################################

data_TULNIZ
_symmetry_cell_setting           monoclinic
_symmetry_space_group_name_H-M   'C c'
_symmetry_Int_Tables_number      9
_space_group_name_Hall           'C -2yc'
loop_
_symmetry_equiv_pos_site_id
_symmetry_equiv_pos_as_xyz
1 x,y,z
2 x,-y,1/2+z
3 1/2+x,1/2+y,z
4 1/2+x,1/2-y,1/2+z
_cell_length_a                   14.944(3)
_cell_length_b                   16.940(3)
_cell_length_c                   10.384(2)
_cell_angle_alpha                90
_cell_angle_beta                 123.74(3)
_cell_angle_gamma                90
_cell_volume                     2185.96
loop_
_atom_site_label
_atom_site_type_symbol
_atom_site_fract_x
_atom_site_fract_y
_atom_site_fract_z
Co1 Co 1.15470(3) 0.45180(2) 0.67146(3)
O1 O 1.14317(18) 0.49604(13) 0.8527(2)
N1 N 0.9909(2) 0.47405(16) 0.4898(3)
O2 O 1.3241(2) 0.43575(17) 0.8388(3)
N2 N 1.1994(2) 0.57668(15) 0.6870(3)
O3 O 1.18549(18) 0.40247(12) 0.5145(2)
N3 N 1.1115(2) 0.33807(16) 0.7028(3)
C1 C 1.1742(2) 0.56537(18) 0.8982(3)
C2 C 0.9340(3) 0.5375(2) 0.4799(4)
C3 C 0.9406(3) 0.42296(19) 0.3708(4)
S1 S 1.23794(7) 0.63992(5) 0.60764(10)
C4 C 1.2018(2) 0.61408(17) 0.8031(3)
C5 C 0.8310(3) 0.5524(2) 0.3534(4)
H1 H 0.9652 0.5732 0.5617
C6 C 0.8387(3) 0.43427(19) 0.2404(4)
H2 H 0.9769 0.3770 0.3770
N4 N 1.2571(2) 0.71612(15) 0.7182(3)
C7 C 1.2335(2) 0.69454(18) 0.8189(4)
H3 H 0.7949 0.5975 0.3517
C8 C 0.7811(3) 0.50088(19) 0.2295(4)
H4 H 0.8089 0.3975 0.1604
C9 C 1.2416(3) 0.75506(19) 0.9348(4)
C10 C 0.6708(3) 0.5182(2) 0.0852(4)
O4 O 1.1585(2) 0.79226(16) 0.8941(3)
O5 O 1.3317(2) 0.76317(15) 1.0572(3)
H5 H 0.6196 0.5264 0.1136
H6 H 0.6467 0.4733 0.0155
C11 C 0.6749(3) 0.5913(2) 0.0036(4)
C12 C 0.5696(3) 0.61150(19) -0.1468(4)
H7 H 0.6966 0.6359 0.0734
H8 H 0.7297 0.5835 -0.0179
H9 H 0.5517 0.5705 -0.2226
H10 H 0.5124 0.6140 -0.1291
C13 C 0.5784(3) 0.68981(19) -0.2085(4)
C14 C 0.5172(2) 0.7554(2) -0.2230(4)
C15 C 0.6534(3) 0.7011(2) -0.2456(5)
H11 H 0.4639 0.7508 -0.2031
C16 C 0.5358(3) 0.8272(2) -0.2667(4)
H12 H 0.6948 0.6588 -0.2410
C17 C 0.6672(3) 0.77413(19) -0.2890(4)
H13 H 0.4939 0.8701 -0.2756
H14 H 0.7177 0.7795 -0.3141
O3A O 1.18549(18) 0.59753(12) 1.0145(2)
Co1A Co 1.15470(3) 0.54820(2) 1.17146(3)
N3B N 0.6115(2) 0.83807(16) -0.2972(3)
Co1B Co 0.65470(3) 0.95180(2) -0.32854(3)
H15 H 0.460(5) 0.719(3) 0.068(9)
O6 O 0.4989(3) 0.6787(3) 0.0848(5)
H16 H 0.555(2) 0.682(3) 0.176(2)
O7 O 0.4143(3) 0.5343(2) 0.0921(4)
H17 H 0.441(9) 0.493(4) 0.149(12)
H18 H 0.442(3) 0.5705(17) 0.068(4)
O8 O 0.4430(3) 0.3055(3) 0.8584(5)
H19 H 0.448(3) 0.3470(13) 0.813(4)
H20 H 0.509(2) 0.293(5) 0.924(8)
loop_
_geom_bond_atom_site_label_1
_geom_bond_atom_site_label_2
_geom_bond_site_symmetry_1
_geom_bond_site_symmetry_2
Co1 O1 1_555 1_555
O1 C1 1_555 1_555
N1 Co1 1_555 1_555
O2 Co1 1_555 1_555
N2 Co1 1_555 1_555
O3 Co1 1_555 1_555
N3 Co1 1_555 1_555
C1 C4 1_555 1_555
C2 N1 1_555 1_555
C3 N1 1_555 1_555
S1 N2 1_555 1_555
C4 N2 1_555 1_555
C5 C2 1_555 1_555
H1 C2 1_555 1_555
C6 C3 1_555 1_555
H2 C3 1_555 1_555
N4 S1 1_555 1_555
C7 C4 1_555 1_555
H3 C5 1_555 1_555
C8 C5 1_555 1_555
H4 C6 1_555 1_555
C9 C7 1_555 1_555
C10 C8 1_555 1_555
O4 C9 1_555 1_555
O5 C9 1_555 1_555
H5 C10 1_555 1_555
H6 C10 1_555 1_555
C11 C10 1_555 1_555
C12 C11 1_555 1_555
H7 C11 1_555 1_555
H8 C11 1_555 1_555
H9 C12 1_555 1_555
H10 C12 1_555 1_555
C13 C12 1_555 1_555
C14 C13 1_555 1_555
C15 C13 1_555 1_555
H11 C14 1_555 1_555
C16 C14 1_555 1_555
H12 C15 1_555 1_555
C17 C15 1_555 1_555
H13 C16 1_555 1_555
H14 C17 1_555 1_555
H15 O6 1_555 1_555
O6 H16 1_555 1_555
O7 H17 1_555 1_555
H18 O7 1_555 1_555
O8 H19 1_555 1_555
H20 O8 1_555 1_555
O3A C1 1_555 1_555
Co1A O3A 1_555 1_555
N3B C16 1_555 1_555
Co1B N3B 1_555 1_555
C6 C8 1_555 1_555
N4 C7 1_555 1_555
C17 N3B 1_555 1_555

#END
