
#######################################################################
#
#                 Cambridge Crystallographic Data Centre
#                                CCDC 
#
#######################################################################
#
# If this CIF has been generated from an entry in the Cambridge 
# Structural Database, then it will include bibliographic, chemical, 
# crystal, experimental, refinement or atomic coordinate data resulting 
# from the CCDC's data processing and validation procedures.
#
#######################################################################

data_TULNAR
_symmetry_cell_setting           orthorhombic
_symmetry_space_group_name_H-M   'P b c a'
_symmetry_Int_Tables_number      61
_space_group_name_Hall           '-P 2ac 2ab'
loop_
_symmetry_equiv_pos_site_id
_symmetry_equiv_pos_as_xyz
1 x,y,z
2 1/2-x,-y,1/2+z
3 -x,1/2+y,1/2-z
4 1/2+x,1/2-y,-z
5 -x,-y,-z
6 1/2+x,y,1/2-z
7 x,1/2-y,1/2+z
8 1/2-x,1/2+y,z
_cell_length_a                   10.772(2)
_cell_length_b                   18.039(4)
_cell_length_c                   18.646(4)
_cell_angle_alpha                90
_cell_angle_beta                 90
_cell_angle_gamma                90
_cell_volume                     3623.22
loop_
_atom_site_label
_atom_site_type_symbol
_atom_site_fract_x
_atom_site_fract_y
_atom_site_fract_z
N1 N 1.1919(3) 0.53932(19) 0.37093(19)
C1 C 1.0828(4) 0.5408(3) 0.3386(2)
H1 H 1.0309 0.5001 0.3322
N2 N 1.1541(4) 0.6553(2) 0.3357(2)
N3 N 1.0586(3) 0.6093(2) 0.31641(18)
O1 O -0.0634(3) 1.09297(18) 0.60331(17)
C2 C 0.0035(4) 1.0457(3) 0.6346(2)
C3 C 0.1291(4) 1.0713(2) 0.6608(2)
O2 O -0.0261(3) 0.9812(2) 0.6473(2)
Zn1 Zn 0.21801(4) 0.95986(3) 0.42866(3)
S1 S 0.28441(12) 1.12311(8) 0.73702(7)
N4 N 0.4821(3) 0.79311(19) 0.45109(19)
N5 N 0.3328(3) 0.87024(18) 0.42747(19)
C4 C 0.7941(4) 0.7628(2) 0.4170(2)
H2 H 0.8124 0.8060 0.4421
O3 O 0.1738(3) 1.00833(17) 0.51981(15)
N6 N 0.3419(3) 1.0834(2) 0.6660(2)
C5 C 0.2464(4) 1.0576(2) 0.6284(2)
C6 C 0.2705(4) 1.0193(2) 0.5579(2)
C7 C 0.8545(4) 0.6703(2) 0.3308(2)
O4 O 0.3763(3) 1.0017(2) 0.54182(18)
N7 N 0.1369(4) 1.1078(2) 0.72238(19)
C8 C 0.8788(4) 0.7351(2) 0.3687(2)
H3 H 0.9533 0.7600 0.3613
C9 C 1.2318(4) 0.6107(2) 0.3683(2)
H4 H 1.3069 0.6264 0.3878
C10 C 0.3125(4) 0.8032(2) 0.3971(2)
H5 H 0.2429 0.7928 0.3694
C11 C 0.6819(4) 0.7271(2) 0.4289(2)
N8 N 0.3994(3) 0.7543(2) 0.4104(2)
C12 C 0.5907(4) 0.7563(3) 0.4832(2)
H6 H 0.5622 0.7154 0.5127
H7 H 0.6329 0.7913 0.5143
C13 C 0.6569(4) 0.6624(2) 0.3913(3)
H8 H 0.5826 0.6374 0.3989
C14 C 0.4410(4) 0.8613(2) 0.4611(2)
H9 H 0.4815 0.8976 0.4877
C15 C 0.7421(4) 0.6349(3) 0.3424(2)
H10 H 0.7236 0.5919 0.3170
C16 C 0.9483(4) 0.6385(3) 0.2790(2)
H11 H 0.9099 0.5990 0.2517
H12 H 0.9739 0.6769 0.2457
N1G N 0.3081(3) 1.03932(19) 0.37093(19)
O1D O 0.0634(3) 0.90703(18) 0.39669(17)
Zn1D Zn -0.21801(4) 1.04014(3) 0.57134(3)
Zn1G Zn 1.28199(4) 0.45986(3) 0.42866(3)
loop_
_geom_bond_atom_site_label_1
_geom_bond_atom_site_label_2
_geom_bond_site_symmetry_1
_geom_bond_site_symmetry_2
N1 C1 1_555 1_555
C1 H1 1_555 1_555
N2 N3 1_555 1_555
N3 C1 1_555 1_555
O1 C2 1_555 1_555
C2 C3 1_555 1_555
C3 C5 1_555 1_555
O2 C2 1_555 1_555
Zn1 N5 1_555 1_555
S1 N6 1_555 1_555
N4 N8 1_555 1_555
N5 C10 1_555 1_555
C4 H2 1_555 1_555
O3 Zn1 1_555 1_555
N6 C5 1_555 1_555
C5 C6 1_555 1_555
C6 O3 1_555 1_555
C7 C8 1_555 1_555
O4 C6 1_555 1_555
N7 C3 1_555 1_555
C8 C4 1_555 1_555
H3 C8 1_555 1_555
C9 N1 1_555 1_555
H4 C9 1_555 1_555
C10 H5 1_555 1_555
C11 C4 1_555 1_555
N8 C10 1_555 1_555
C12 N4 1_555 1_555
H6 C12 1_555 1_555
H7 C12 1_555 1_555
C13 C11 1_555 1_555
H8 C13 1_555 1_555
C14 N4 1_555 1_555
H9 C14 1_555 1_555
C15 C7 1_555 1_555
H10 C15 1_555 1_555
C16 N3 1_555 1_555
H11 C16 1_555 1_555
H12 C16 1_555 1_555
N1G Zn1 1_555 1_555
O1D Zn1 1_555 1_555
Zn1D O1 1_555 1_555
Zn1G N1 1_555 1_555
N2 C9 1_555 1_555
S1 N7 1_555 1_555
N5 C14 1_555 1_555
C7 C16 1_555 1_555
C11 C12 1_555 1_555
C13 C15 1_555 1_555

#END
