
#######################################################################
#
#                 Cambridge Crystallographic Data Centre
#                                CCDC 
#
#######################################################################
#
# If this CIF has been generated from an entry in the Cambridge 
# Structural Database, then it will include bibliographic, chemical, 
# crystal, experimental, refinement or atomic coordinate data resulting 
# from the CCDC's data processing and validation procedures.
#
#######################################################################

data_TULNOF
_symmetry_cell_setting           monoclinic
_symmetry_space_group_name_H-M   'C 2/c'
_symmetry_Int_Tables_number      15
_space_group_name_Hall           '-C 2yn'
loop_
_symmetry_equiv_pos_site_id
_symmetry_equiv_pos_as_xyz
1 x,y,z
2 -x,y,1/2-z
3 1/2+x,1/2+y,z
4 1/2-x,1/2+y,1/2-z
5 -x,-y,-z
6 x,-y,1/2+z
7 1/2-x,1/2-y,-z
8 1/2+x,1/2-y,1/2+z
_cell_length_a                   34.618(7)
_cell_length_b                   10.056(2)
_cell_length_c                   7.5334(15)
_cell_angle_alpha                90
_cell_angle_beta                 100.66(3)
_cell_angle_gamma                90
_cell_volume                     2577.26
loop_
_atom_site_label
_atom_site_type_symbol
_atom_site_fract_x
_atom_site_fract_y
_atom_site_fract_z
Zn1 Zn 0.14588(4) 0.73467(12) 0.56660(18)
S1 S 0.23578(9) 0.5054(3) 0.6833(4)
O1 O 0.1734(3) 0.1735(8) 0.2903(10)
O2 O 0.1227(2) 0.4053(8) 0.2417(12)
O3 O 0.1247(3) 0.6074(8) 0.3581(11)
O4 O 0.1827(3) 0.1127(8) 0.5788(11)
N1 N 0.0922(3) 0.8376(10) 0.5418(14)
N2 N 0.1944(3) 0.5630(10) 0.5663(14)
N3 N 0.2290(3) 0.3487(10) 0.6367(13)
C1 C 0.1820(3) 0.1964(11) 0.4568(14)
C2 C 0.1383(3) 0.4912(11) 0.3486(16)
C3 C 0.1761(3) 0.4616(11) 0.4789(15)
C4 C 0.1951(3) 0.3371(11) 0.5192(15)
C5 C 0.0194(3) 0.9666(13) 0.5094(18)
C6 C 0.0896(4) 0.9689(13) 0.545(2)
H1 H 0.1125 1.0187 0.5563
C7 C 0.0543(4) 1.0350(13) 0.533(2)
H2 H 0.0541 1.1273 0.5411
C8 C 0.0593(4) 0.7686(13) 0.518(2)
H3 H 0.0605 0.6765 0.5098
C9 C 0.0225(4) 0.8295(14) 0.506(3)
H4 H 0.0000 0.7773 0.4958
O5 O 0.1747(3) 0.8622(9) 0.4277(12)
N1D N -0.0922(3) 1.1624(10) 0.4582(14)
C5D C -0.0194(3) 1.0334(13) 0.4906(18)
C6D C -0.0896(4) 1.0311(13) 0.455(2)
H1D H -0.1125 0.9813 0.4437
C7D C -0.0543(4) 0.9650(13) 0.467(2)
H2D H -0.0541 0.8727 0.4589
C8D C -0.0593(4) 1.2314(13) 0.482(2)
H3D H -0.0605 1.3235 0.4902
C9D C -0.0225(4) 1.1705(14) 0.494(3)
H4D H 0.0000 1.2227 0.5042
Zn1D Zn -0.14588(4) 1.26533(12) 0.43340(18)
S1D S -0.23578(9) 1.4946(3) 0.3167(4)
O1D O -0.1734(3) 1.8265(8) 0.7097(10)
O2D O -0.1227(2) 1.5947(8) 0.7583(12)
O3D O -0.1247(3) 1.3926(8) 0.6419(11)
O4D O -0.1827(3) 1.8873(8) 0.4212(11)
N2D N -0.1944(3) 1.4370(10) 0.4337(14)
N3D N -0.2290(3) 1.6513(10) 0.3633(13)
C1D C -0.1820(3) 1.8036(11) 0.5432(14)
C2D C -0.1383(3) 1.5088(11) 0.6514(16)
C3D C -0.1761(3) 1.5384(11) 0.5211(15)
C4D C -0.1951(3) 1.6629(11) 0.4808(15)
O5D O -0.1747(3) 1.1378(9) 0.5723(12)
Zn1A Zn -0.14588(4) 1.73467(12) 0.93340(18)
Zn1E Zn 0.14588(4) 0.26533(12) 0.06660(18)
O1A O -0.1734(3) 1.1735(8) 0.2097(10)
O1E O 0.1734(3) 0.8265(8) 0.7903(10)
O2A O -0.1227(2) 1.4053(8) 0.2583(12)
O2E O 0.1227(2) 0.5947(8) 0.7417(12)
O6 O 0.0529(5) 0.3837(16) 0.572(2)
O7 O 0.0000 0.511(2) 0.7500
loop_
_geom_bond_atom_site_label_1
_geom_bond_atom_site_label_2
_geom_bond_site_symmetry_1
_geom_bond_site_symmetry_2
Zn1 O3 1_555 1_555
S1 N2 1_555 1_555
O1 C1 1_555 1_555
O2 C2 1_555 1_555
O3 C2 1_555 1_555
O4 C1 1_555 1_555
N1 Zn1 1_555 1_555
N2 Zn1 1_555 1_555
N3 S1 1_555 1_555
C1 C4 1_555 1_555
C2 C3 1_555 1_555
C3 N2 1_555 1_555
C4 N3 1_555 1_555
C5 C7 1_555 1_555
C6 N1 1_555 1_555
H1 C6 1_555 1_555
C7 C6 1_555 1_555
H2 C7 1_555 1_555
C8 N1 1_555 1_555
H3 C8 1_555 1_555
C9 C5 1_555 1_555
H4 C9 1_555 1_555
O5 Zn1 1_555 1_555
N1D C6D 1_555 1_555
C5D C5 1_555 1_555
C6D H1D 1_555 1_555
C7D C5D 1_555 1_555
H2D C7D 1_555 1_555
C8D N1D 1_555 1_555
H3D C8D 1_555 1_555
C9D C5D 1_555 1_555
H4D C9D 1_555 1_555
Zn1D N1D 1_555 1_555
S1D N2D 1_555 1_555
O1D C1D 1_555 1_555
O2D C2D 1_555 1_555
O3D Zn1D 1_555 1_555
O4D C1D 1_555 1_555
N2D Zn1D 1_555 1_555
N3D S1D 1_555 1_555
C1D C4D 1_555 1_555
C2D O3D 1_555 1_555
C3D N2D 1_555 1_555
C4D N3D 1_555 1_555
O5D Zn1D 1_555 1_555
Zn1A O1D 1_555 1_555
Zn1E O1 1_555 1_555
O1A Zn1D 1_555 1_555
O1E Zn1 1_555 1_555
O2A Zn1D 1_555 1_555
O2E Zn1 1_555 1_555
O2 Zn1E 1_555 1_555
C3 C4 1_555 1_555
C8 C9 1_555 1_555
C6D C7D 1_555 1_555
C8D C9D 1_555 1_555
O2D Zn1A 1_555 1_555
C2D C3D 1_555 1_555
C3D C4D 1_555 1_555

#END
