
#######################################################################
#
#                 Cambridge Crystallographic Data Centre
#                                CCDC 
#
#######################################################################
#
# If this CIF has been generated from an entry in the Cambridge 
# Structural Database, then it will include bibliographic, chemical, 
# crystal, experimental, refinement or atomic coordinate data resulting 
# from the CCDC's data processing and validation procedures.
#
#######################################################################

data_TULNEV
_symmetry_cell_setting           monoclinic
_symmetry_space_group_name_H-M   'P 21/n'
_symmetry_Int_Tables_number      14
_space_group_name_Hall           '-P 2yn'
loop_
_symmetry_equiv_pos_site_id
_symmetry_equiv_pos_as_xyz
1 x,y,z
2 1/2-x,1/2+y,1/2-z
3 -x,-y,-z
4 1/2+x,1/2-y,1/2+z
_cell_length_a                   11.455(2)
_cell_length_b                   8.5195(17)
_cell_length_c                   16.698(3)
_cell_angle_alpha                90
_cell_angle_beta                 103.81(3)
_cell_angle_gamma                90
_cell_volume                     1582.47
loop_
_atom_site_label
_atom_site_type_symbol
_atom_site_fract_x
_atom_site_fract_y
_atom_site_fract_z
Co1 Co 0.18527(3) 0.62244(4) 0.16535(2)
S1 S 0.34103(11) 1.06700(14) -0.03534(6)
N1 N -0.0015(2) 0.6185(3) 0.17385(15)
N2 N -0.6240(2) 0.6172(3) 0.16898(15)
O1 O 0.17790(19) 0.3862(2) 0.13162(14)
O2 O 0.19232(18) 0.8642(2) 0.18589(12)
C1 C 0.2366(2) 0.9839(3) 0.16232(16)
O3 O 0.27156(17) 1.1032(2) 0.20642(11)
O4 O 0.1253(2) 0.6610(2) 0.04096(12)
C2 C -0.2460(3) 0.6055(4) 0.17715(18)
N3 N 0.3391(3) 1.0878(3) 0.06085(17)
O5 O 0.0034(2) 0.8027(3) -0.05617(17)
C3 C -0.3760(3) 0.6066(4) 0.17594(18)
C4 C 0.2554(3) 0.9909(3) 0.07567(17)
C5 C 0.1950(3) 0.9039(4) 0.00436(18)
C6 C -0.0396(3) 0.6636(5) 0.2401(2)
H1 H 0.0171 0.6998 0.2859
C7 C 0.0976(3) 0.7811(4) -0.00367(18)
N4 N 0.2348(3) 0.9364(4) -0.06193(17)
C8 C -0.2051(3) 0.5555(5) 0.1095(2)
H2 H -0.2593 0.5152 0.0636
C9 C -0.1586(3) 0.6592(5) 0.2441(2)
H3 H -0.1802 0.6923 0.2916
C10 C -0.4216(3) 0.6903(6) 0.2313(2)
H4 H -0.3699 0.7455 0.2733
C11 C -0.0854(3) 0.5652(4) 0.1100(2)
H5 H -0.0614 0.5328 0.0632
C12 C -0.5439(3) 0.6934(6) 0.2254(2)
H6 H -0.5716 0.7531 0.2637
C13 C -0.5795(3) 0.5286(6) 0.1179(2)
H7 H -0.6330 0.4696 0.0787
C14 C -0.4589(3) 0.5191(6) 0.1194(2)
H8 H -0.4331 0.4538 0.0825
H9 H 0.115(3) 0.342(5) 0.103(2)
H10 H 0.222(3) 0.317(4) 0.160(2)
Co1_2 Co -0.81473(3) 0.62244(4) 0.16535(2)
Co1A Co 0.31473(3) 1.12244(4) 0.33465(2)
N2_2 N 0.3760(2) 0.6172(3) 0.16898(15)
O3A O 0.22844(17) 0.6032(2) 0.29358(11)
loop_
_geom_bond_atom_site_label_1
_geom_bond_atom_site_label_2
_geom_bond_site_symmetry_1
_geom_bond_site_symmetry_2
Co1 N1 1_555 1_555
S1 N3 1_555 1_555
N1 C6 1_555 1_555
N2 C12 1_555 1_555
O1 Co1 1_555 1_555
O2 Co1 1_555 1_555
C1 O2 1_555 1_555
O3 C1 1_555 1_555
O4 Co1 1_555 1_555
C2 C3 1_555 1_555
N3 C4 1_555 1_555
O5 C7 1_555 1_555
C3 C10 1_555 1_555
C4 C1 1_555 1_555
C5 C4 1_555 1_555
C6 H1 1_555 1_555
C7 O4 1_555 1_555
N4 S1 1_555 1_555
C8 C2 1_555 1_555
H2 C8 1_555 1_555
C9 C2 1_555 1_555
H3 C9 1_555 1_555
C10 H4 1_555 1_555
C11 N1 1_555 1_555
H5 C11 1_555 1_555
C12 C10 1_555 1_555
H6 C12 1_555 1_555
C13 N2 1_555 1_555
H7 C13 1_555 1_555
C14 C3 1_555 1_555
H8 C14 1_555 1_555
H9 O1 1_555 1_555
H10 O1 1_555 1_555
Co1_2 N2 1_555 1_555
Co1A O3 1_555 1_555
N2_2 Co1 1_555 1_555
O3A Co1 1_555 1_555
C5 C7 1_555 1_555
C5 N4 1_555 1_555
C6 C9 1_555 1_555
C8 C11 1_555 1_555
C13 C14 1_555 1_555

#END
