
#######################################################################
#
#                 Cambridge Crystallographic Data Centre
#                                CCDC 
#
#######################################################################
#
# If this CIF has been generated from an entry in the Cambridge 
# Structural Database, then it will include bibliographic, chemical, 
# crystal, experimental, refinement or atomic coordinate data resulting 
# from the CCDC's data processing and validation procedures.
#
#######################################################################

data_TULXIJ
_symmetry_cell_setting           orthorhombic
_symmetry_space_group_name_H-M   'P 21 21 21'
_symmetry_Int_Tables_number      19
_space_group_name_Hall           'P 2ac 2ab'
loop_
_symmetry_equiv_pos_site_id
_symmetry_equiv_pos_as_xyz
1 x,y,z
2 1/2-x,-y,1/2+z
3 -x,1/2+y,1/2-z
4 1/2+x,1/2-y,-z
_cell_length_a                   9.0102(2)
_cell_length_b                   10.8418(3)
_cell_length_c                   19.2997(5)
_cell_angle_alpha                90
_cell_angle_beta                 90
_cell_angle_gamma                90
_cell_volume                     1885.33
loop_
_atom_site_label
_atom_site_type_symbol
_atom_site_fract_x
_atom_site_fract_y
_atom_site_fract_z
Cu1 Cu 0.61053(3) 0.21835(3) 0.071164(16)
Cu2 Cu 0.61265(3) 0.47695(3) -0.047236(17)
S1 S 0.60554(6) 0.42927(5) 0.08148(3)
S2 S 0.60581(7) 0.69682(5) -0.04737(4)
N1 N 0.3953(3) 0.59710(19) 0.09339(12)
H1 H 0.3074 0.6228 0.1031
H2 H 0.4612 0.6481 0.0786
N2 N 0.3289(2) 0.4006(2) 0.12387(14)
H3 H 0.355(3) 0.3258(18) 0.1197(16)
N3 N 0.4069(3) 0.8678(2) -0.07624(13)
H4 H 0.3237 0.8940 -0.0923
H5 H 0.4689 0.9189 -0.0582
N4 N 0.3434(3) 0.6709(2) -0.10720(14)
H6 H 0.365(4) 0.606(3) -0.1003(17)
N5 N 0.4141(2) 0.40591(19) -0.06662(12)
N6 N 0.4177(2) 0.1400(2) 0.07109(14)
C1 C 0.4289(3) 0.4798(2) 0.10121(13)
C2 C 0.4397(3) 0.7488(2) -0.07929(14)
C3 C 0.3030(2) 0.0939(2) 0.06675(14)
C4 C 0.3003(3) 0.3583(2) -0.06728(15)
C5 C 0.2140(3) 0.6956(2) -0.14660(14)
C6 C 0.0883(3) 0.6244(2) -0.13475(15)
H7 H 0.0868 0.5680 -0.0984
C7 C -0.0343(3) 0.6375(3) -0.17691(18)
H8 H -0.1176 0.5886 -0.1697
C8 C -0.0337(3) 0.7232(3) -0.22979(16)
H9 H -0.1165 0.7322 -0.2581
C9 C 0.0879(4) 0.7941(3) -0.24039(15)
H10 H 0.0874 0.8523 -0.2758
C10 C 0.2136(3) 0.7815(3) -0.19913(15)
H11 H 0.2965 0.8306 -0.2070
C11 C 0.1936(2) 0.4252(2) 0.15968(13)
C12 C 0.0713(3) 0.3540(2) 0.14443(16)
H12 H 0.0737 0.2988 0.1075
C13 C -0.0546(3) 0.3653(3) 0.18445(18)
H13 H -0.1364 0.3155 0.1754
C14 C -0.0602(3) 0.4494(3) 0.23748(16)
H14 H -0.1458 0.4568 0.2641
C15 C 0.0602(3) 0.5225(3) 0.25121(15)
H15 H 0.0557 0.5804 0.2867
C16 C 0.1884(3) 0.5104(3) 0.21250(14)
H16 H 0.2706 0.5594 0.2221
Cu1C Cu 0.11053(3) 0.28165(3) -0.071164(16)
Cu2C Cu 0.11265(3) 0.02305(3) 0.047236(17)
C3C C 0.8030(2) 0.4061(2) -0.06675(14)
C4C C 0.8003(3) 0.1417(2) 0.06728(15)
loop_
_geom_bond_atom_site_label_1
_geom_bond_atom_site_label_2
_geom_bond_site_symmetry_1
_geom_bond_site_symmetry_2
Cu1 S1 1_555 1_555
Cu2 S1 1_555 1_555
S1 C1 1_555 1_555
S2 Cu2 1_555 1_555
N1 H1 1_555 1_555
H2 N1 1_555 1_555
N2 H3 1_555 1_555
N3 H4 1_555 1_555
H5 N3 1_555 1_555
N4 H6 1_555 1_555
N5 Cu2 1_555 1_555
N6 Cu1 1_555 1_555
C1 N1 1_555 1_555
C2 S2 1_555 1_555
C3 N6 1_555 1_555
C4 N5 1_555 1_555
C5 N4 1_555 1_555
C6 C5 1_555 1_555
H7 C6 1_555 1_555
C7 C6 1_555 1_555
H8 C7 1_555 1_555
C8 C7 1_555 1_555
H9 C8 1_555 1_555
C9 C8 1_555 1_555
H10 C9 1_555 1_555
C10 C5 1_555 1_555
H11 C10 1_555 1_555
C11 N2 1_555 1_555
C12 C11 1_555 1_555
H12 C12 1_555 1_555
C13 C12 1_555 1_555
H13 C13 1_555 1_555
C14 C13 1_555 1_555
H14 C14 1_555 1_555
C15 C14 1_555 1_555
H15 C15 1_555 1_555
C16 C11 1_555 1_555
H16 C16 1_555 1_555
Cu1C C4 1_555 1_555
Cu2C C3 1_555 1_555
C3C Cu2 1_555 1_555
C4C Cu1 1_555 1_555
N2 C1 1_555 1_555
N3 C2 1_555 1_555
N4 C2 1_555 1_555
C9 C10 1_555 1_555
C15 C16 1_555 1_555

#END
