
#######################################################################
#
#                 Cambridge Crystallographic Data Centre
#                                CCDC 
#
#######################################################################
#
# If this CIF has been generated from an entry in the Cambridge 
# Structural Database, then it will include bibliographic, chemical, 
# crystal, experimental, refinement or atomic coordinate data resulting 
# from the CCDC's data processing and validation procedures.
#
#######################################################################

data_TULXUV
_symmetry_cell_setting           triclinic
_symmetry_space_group_name_H-M   'P -1'
_symmetry_Int_Tables_number      2
_space_group_name_Hall           '-P 1'
loop_
_symmetry_equiv_pos_site_id
_symmetry_equiv_pos_as_xyz
1 x,y,z
2 -x,-y,-z
_cell_length_a                   9.1672(3)
_cell_length_b                   11.6124(5)
_cell_length_c                   11.9925(4)
_cell_angle_alpha                93.991(3)
_cell_angle_beta                 107.265(3)
_cell_angle_gamma                108.568(4)
_cell_volume                     1136.51
loop_
_atom_site_label
_atom_site_type_symbol
_atom_site_fract_x
_atom_site_fract_y
_atom_site_fract_z
Cu1 Cu 1.02399(5) 0.08574(4) 0.27383(3)
Cu2 Cu 0.65399(5) -0.17303(5) 0.30184(4)
Cu3 Cu 0.89378(5) 0.36829(4) 0.00495(4)
S1 S 0.91068(10) 0.55322(8) 0.10847(7)
S2 S 0.85926(10) -0.11707(8) 0.21388(7)
C1 C 1.0068(4) 0.1971(3) 0.1684(3)
C2 C 0.4466(4) -0.2501(4) 0.1871(3)
C3 C 1.1563(4) 0.1102(3) 0.4342(3)
C4 C 1.0485(4) 0.5923(3) 0.2508(3)
C5 C 0.7458(4) -0.1492(3) 0.0644(3)
C6 C 0.5957(4) -0.0817(3) -0.1079(3)
C7 C 0.6550(5) -0.0191(4) -0.1850(3)
C8 C 0.5608(6) -0.0328(4) -0.3032(3)
H1 H 0.6033 0.0101 -0.3559
C9 C 0.4049(6) -0.1116(4) -0.3376(3)
C10 C 0.3365(5) -0.1760(4) -0.2649(4)
H2 H 0.2281 -0.2295 -0.2928
C11 C 0.4351(5) -0.1592(4) -0.1454(3)
H3 H 0.3916 -0.2003 -0.0922
C12 C 1.2280(4) 0.5331(3) 0.4148(2)
C13 C 1.1804(4) 0.4603(3) 0.4931(3)
C14 C 1.2817(4) 0.4722(3) 0.6072(3)
H4 H 1.2488 0.4212 0.6584
C15 C 1.4340(4) 0.5632(3) 0.6420(3)
C16 C 1.4878(4) 0.6382(3) 0.5685(3)
H5 H 1.5920 0.6983 0.5949
C17 C 1.3831(4) 0.6221(3) 0.4540(3)
H6 H 1.4175 0.6719 0.4025
N1 N 0.9813(4) 0.2658(3) 0.1082(3)
N2 N 0.3190(4) -0.2960(3) 0.1160(3)
N3 N 1.2305(4) 0.1323(4) 0.5338(3)
N4 N 1.1179(4) 0.5132(3) 0.2966(2)
H7 H 1.092(4) 0.440(2) 0.262(3)
N5 N 1.0838(4) 0.6999(3) 0.3153(2)
H8 H 1.1515 0.7193 0.3868
H9 H 1.0392 0.7509 0.2860
N6 N 0.6989(4) -0.0633(3) 0.0128(2)
H10 H 0.741(4) 0.005(2) 0.060(2)
N7 N 0.7013(5) -0.2585(3) 0.0035(3)
H11 H 0.6414 -0.2754 -0.0701
H12 H 0.7315 -0.3143 0.0368
F1 F 1.0295(3) 0.3727(2) 0.45555(19)
F2 F 0.3113(4) -0.1282(3) -0.45391(19)
F3 F 0.8072(3) 0.0585(3) -0.1470(2)
F4 F 1.5352(3) 0.5780(2) 0.75442(17)
Cu2A Cu 1.34601(5) 0.17303(5) 0.69816(4)
Cu3A Cu 0.10622(5) -0.36829(4) -0.00495(4)
Cu3A_2 Cu 1.10622(5) 0.63171(4) -0.00495(4)
S1A S 1.08932(10) 0.44678(8) -0.10847(7)
N2A N 0.6810(4) 0.2960(3) -0.1160(3)
N3A N 0.7695(4) -0.1323(4) 0.4662(3)
loop_
_geom_bond_atom_site_label_1
_geom_bond_atom_site_label_2
_geom_bond_site_symmetry_1
_geom_bond_site_symmetry_2
Cu1 S2 1_555 1_555
Cu2 S2 1_555 1_555
Cu3 S1 1_555 1_555
S1 C4 1_555 1_555
S2 C5 1_555 1_555
C1 Cu1 1_555 1_555
C2 Cu2 1_555 1_555
C3 Cu1 1_555 1_555
C4 N4 1_555 1_555
C5 N6 1_555 1_555
C6 C7 1_555 1_555
C7 C8 1_555 1_555
C8 H1 1_555 1_555
C9 C8 1_555 1_555
C10 C9 1_555 1_555
H2 C10 1_555 1_555
C11 C6 1_555 1_555
H3 C11 1_555 1_555
C12 C13 1_555 1_555
C13 C14 1_555 1_555
C14 H4 1_555 1_555
C15 C14 1_555 1_555
C16 C15 1_555 1_555
H5 C16 1_555 1_555
C17 C12 1_555 1_555
H6 C17 1_555 1_555
N1 Cu3 1_555 1_555
N2 C2 1_555 1_555
N3 C3 1_555 1_555
N4 C12 1_555 1_555
H7 N4 1_555 1_555
N5 C4 1_555 1_555
H8 N5 1_555 1_555
H9 N5 1_555 1_555
N6 C6 1_555 1_555
H10 N6 1_555 1_555
N7 C5 1_555 1_555
H11 N7 1_555 1_555
H12 N7 1_555 1_555
F1 C13 1_555 1_555
F2 C9 1_555 1_555
F3 C7 1_555 1_555
F4 C15 1_555 1_555
Cu2A N3 1_555 1_555
Cu3A N2 1_555 1_555
Cu3A_2 S1 1_555 1_555
S1A Cu3 1_555 1_555
N2A Cu3 1_555 1_555
N3A Cu2 1_555 1_555
C1 N1 1_555 1_555
C10 C11 1_555 1_555
C16 C17 1_555 1_555
Cu3A_2 S1A 1_555 1_555

#END
