
#######################################################################
#
#                 Cambridge Crystallographic Data Centre
#                                CCDC 
#
#######################################################################
#
# If this CIF has been generated from an entry in the Cambridge 
# Structural Database, then it will include bibliographic, chemical, 
# crystal, experimental, refinement or atomic coordinate data resulting 
# from the CCDC's data processing and validation procedures.
#
#######################################################################

data_TUMBIO
_symmetry_cell_setting           orthorhombic
_symmetry_space_group_name_H-M   'C 2 2 2'
_symmetry_Int_Tables_number      21
_space_group_name_Hall           'C 2 2'
loop_
_symmetry_equiv_pos_site_id
_symmetry_equiv_pos_as_xyz
1 x,y,z
2 -x,-y,z
3 x,-y,-z
4 -x,y,-z
5 1/2+x,1/2+y,z
6 1/2-x,1/2-y,z
7 1/2+x,1/2-y,-z
8 1/2-x,1/2+y,-z
_cell_length_a                   10.078(2)
_cell_length_b                   42.812(9)
_cell_length_c                   7.2997(16)
_cell_angle_alpha                90
_cell_angle_beta                 90
_cell_angle_gamma                90
_cell_volume                     3149.52
loop_
_atom_site_label
_atom_site_type_symbol
_atom_site_fract_x
_atom_site_fract_y
_atom_site_fract_z
Ag1 Ag 0.0000 0.0000 1.0000
Cr1 Cr 0.5000 0.11625(2) 0.5000
O1 O 0.3825(5) 0.08440(10) 0.3989(6)
O2 O 0.3984(4) 0.11625(10) 0.7258(6)
N1 N 0.3887(5) 0.15211(12) 0.3948(8)
H1 H 0.412(6) 0.1558(18) 0.265(3)
H2 H 0.2923(19) 0.1489(19) 0.409(9)
N2 N 0.1060(9) 0.0332(2) 0.8161(14)
C1 C 0.4256(4) 0.18174(12) 0.4870(16)
H3 H 0.3845 0.1814 0.6117
C2 C 0.3760(7) 0.21082(18) 0.3907(18)
H4 H 0.4076 0.2109 0.2623
H5 H 0.2778 0.2108 0.3892
C3 C 0.4250(9) 0.23960(17) 0.487(3)
H6 H 0.3814 0.2412 0.6078
H7 H 0.3995 0.2582 0.4143
C4 C 0.2329(10) 0.04336(19) 0.3690(12)
H8 H 0.1380 0.0481 0.3608
H9 H 0.2448 0.0228 0.4253
H10 H 0.2716 0.0433 0.2458
C5 C 0.3001(6) 0.06748(12) 0.4829(12)
C6 C 0.2692(5) 0.07142(14) 0.6686(8)
C7 C 0.3151(6) 0.09605(14) 0.7799(8)
C8 C 0.2638(9) 0.1012(3) 0.9700(11)
H11 H 0.3245 0.0916 1.0585
H12 H 0.1757 0.0917 0.9819
H13 H 0.2575 0.1237 0.9940
C9 C 0.1786(7) 0.05021(16) 0.7474(11)
N1C N 0.6113(5) 0.15211(12) 0.6052(8)
H1C H 0.588(6) 0.1558(18) 0.735(3)
H2C H 0.7077(19) 0.1489(19) 0.591(9)
C1C C 0.5744(4) 0.18174(12) 0.5130(16)
H3C H 0.6155 0.1814 0.3883
C2C C 0.6240(7) 0.21082(18) 0.6093(18)
H4C H 0.5924 0.2109 0.7377
H5C H 0.7222 0.2108 0.6108
C3C C 0.5750(9) 0.23960(17) 0.513(3)
H6C H 0.6186 0.2412 0.3922
H7C H 0.6005 0.2582 0.5857
Cr1A Cr -0.5000 -0.11625(2) 0.5000
O1A O -0.3825(5) -0.08440(10) 0.3989(6)
O2A O -0.3984(4) -0.11625(10) 0.7258(6)
N1A N -0.3887(5) -0.15211(12) 0.3948(8)
H1A H -0.412(6) -0.1558(18) 0.265(3)
H2A H -0.2923(19) -0.1489(19) 0.409(9)
N2A N -0.1060(9) -0.0332(2) 0.8161(14)
C1A C -0.4256(4) -0.18174(12) 0.4870(16)
H3A H -0.3845 -0.1814 0.6117
C2A C -0.3760(7) -0.21082(18) 0.3907(18)
H4A H -0.4076 -0.2109 0.2623
H5A H -0.2778 -0.2108 0.3892
C3A C -0.4250(9) -0.23960(17) 0.487(3)
H6A H -0.3814 -0.2412 0.6078
H7A H -0.3995 -0.2582 0.4143
C4A C -0.2329(10) -0.04336(19) 0.3690(12)
H8A H -0.1380 -0.0481 0.3608
H9A H -0.2448 -0.0228 0.4253
H10A H -0.2716 -0.0433 0.2458
C5A C -0.3001(6) -0.06748(12) 0.4829(12)
C6A C -0.2692(5) -0.07142(14) 0.6686(8)
C7A C -0.3151(6) -0.09605(14) 0.7799(8)
C8A C -0.2638(9) -0.1012(3) 0.9700(11)
H11A H -0.3245 -0.0916 1.0585
H12A H -0.1757 -0.0917 0.9819
H13A H -0.2575 -0.1237 0.9940
C9A C -0.1786(7) -0.05021(16) 0.7474(11)
N1B N -0.6113(5) -0.15211(12) 0.6052(8)
H1B H -0.588(6) -0.1558(18) 0.735(3)
H2B H -0.7077(19) -0.1489(19) 0.591(9)
C1B C -0.5744(4) -0.18174(12) 0.5130(16)
H3B H -0.6155 -0.1814 0.3883
C2B C -0.6240(7) -0.21082(18) 0.6093(18)
H4B H -0.5924 -0.2109 0.7377
H5B H -0.7222 -0.2108 0.6108
C3B C -0.5750(9) -0.23960(17) 0.513(3)
H6B H -0.6186 -0.2412 0.3922
H7B H -0.6005 -0.2582 0.5857
O1B O 0.3825(5) -0.08440(10) 1.6011(6)
O2B O 0.3984(4) -0.11625(10) 1.2742(6)
N2B N 0.1060(9) -0.0332(2) 1.1839(14)
C4B C 0.2329(10) -0.04336(19) 1.6310(12)
H8B H 0.1380 -0.0481 1.6392
H9B H 0.2448 -0.0228 1.5747
H10B H 0.2716 -0.0433 1.7542
C5B C 0.3001(6) -0.06748(12) 1.5171(12)
C6B C 0.2692(5) -0.07142(14) 1.3314(8)
C7B C 0.3151(6) -0.09605(14) 1.2201(8)
C8B C 0.2638(9) -0.1012(3) 1.0300(11)
H11B H 0.3245 -0.0916 0.9415
H12B H 0.1757 -0.0917 1.0181
H13B H 0.2575 -0.1237 1.0060
C9B C 0.1786(7) -0.05021(16) 1.2526(11)
O1C O -0.3825(5) 0.08440(10) 1.6011(6)
O2C O -0.3984(4) 0.11625(10) 1.2742(6)
N2C N -0.1060(9) 0.0332(2) 1.1839(14)
C4C C -0.2329(10) 0.04336(19) 1.6310(12)
H8C H -0.1380 0.0481 1.6392
H9C H -0.2448 0.0228 1.5747
H10C H -0.2716 0.0433 1.7542
C5C C -0.3001(6) 0.06748(12) 1.5171(12)
C6C C -0.2692(5) 0.07142(14) 1.3314(8)
C7C C -0.3151(6) 0.09605(14) 1.2201(8)
C8C C -0.2638(9) 0.1012(3) 1.0300(11)
H11C H -0.3245 0.0916 0.9415
H12C H -0.1757 0.0917 1.0181
H13C H -0.2575 0.1237 1.0060
C9C C -0.1786(7) 0.05021(16) 1.2526(11)
Cr1_2 Cr -0.5000 0.11625(2) 1.5000
Cr1A_2 Cr 0.5000 -0.11625(2) 1.5000
O1B_2 O -0.6175(5) -0.08440(10) 0.6011(6)
O1C_2 O 0.6175(5) 0.08440(10) 0.6011(6)
O2B_2 O -0.6016(4) -0.11625(10) 0.2742(6)
O2C_2 O 0.6016(4) 0.11625(10) 0.2742(6)
P1 P 0.0000 0.14402(6) 0.5000
F1 F 0.1242(5) 0.1435(2) 0.6292(12)
F2 F 0.0715(11) 0.1691(3) 0.376(3)
F3 F 0.0704(13) 0.1190(3) 0.3904(18)
F1C F -0.1242(5) 0.1435(2) 0.3708(12)
F2C F -0.0715(11) 0.1691(3) 0.624(3)
F3C F -0.0704(13) 0.1190(3) 0.6096(18)
P2 P 0.5000 0.0000 0.0000
F4 F 0.5000 0.0000 0.223(3)
F5 F 0.5000 0.0350(4) 0.0000
F6 F 0.3442(11) 0.0000 0.0000
F5A F 0.5000 -0.0350(4) 0.0000
F6A F 0.6558(11) 0.0000 0.0000
F4B F 0.5000 0.0000 -0.223(3)
O3 O 0.2500 0.2500 -0.0003(14)
O4 O 0.179(7) 0.1711(15) -0.004(15)
O5 O 0.245(6) 0.230(2) -0.023(12)
O6 O 0.113(6) 0.2019(14) -0.053(9)
O7 O 0.029(11) 0.1842(19) 0.035(16)
O8 O 0.235(5) 0.2000(11) -0.086(7)
O9 O 0.068(7) 0.2527(17) -0.009(15)
F7? F 0.0000 0.1790(4) 0.5000
F8? F 0.0000 0.1085(5) 0.5000
F9? F 0.086(2) 0.1454(7) 0.325(3)
loop_
_geom_bond_atom_site_label_1
_geom_bond_atom_site_label_2
_geom_bond_site_symmetry_1
_geom_bond_site_symmetry_2
Ag1 N2 1_555 1_555
Cr1 O1 1_555 1_555
O1 C5 1_555 1_555
O2 Cr1 1_555 1_555
N1 Cr1 1_555 1_555
H1 N1 1_555 1_555
H2 N1 1_555 1_555
N2 C9 1_555 1_555
C1 N1 1_555 1_555
H3 C1 1_555 1_555
C2 C1 1_555 1_555
H4 C2 1_555 1_555
H5 C2 1_555 1_555
C3 C2 1_555 1_555
H6 C3 1_555 1_555
H7 C3 1_555 1_555
C4 H8 1_555 1_555
H9 C4 1_555 1_555
H10 C4 1_555 1_555
C5 C4 1_555 1_555
C6 C5 1_555 1_555
C7 O2 1_555 1_555
C8 C7 1_555 1_555
H11 C8 1_555 1_555
H12 C8 1_555 1_555
H13 C8 1_555 1_555
C9 C6 1_555 1_555
P1 F1 1_555 1_555
F2 P1 1_555 1_555
F3 P1 1_555 1_555
P2 F4 1_555 1_555
F5 P2 1_555 1_555
F6 P2 1_555 1_555
N1C Cr1 1_555 1_555
H1C N1C 1_555 1_555
H2C N1C 1_555 1_555
C1C C1 1_555 1_555
H3C C1C 1_555 1_555
C2C C1C 1_555 1_555
H4C C2C 1_555 1_555
H5C C2C 1_555 1_555
C3C C3 1_555 1_555
H6C C3C 1_555 1_555
H7C C3C 1_555 1_555
Cr1A O1A 1_555 1_555
O1A C5A 1_555 1_555
O2A Cr1A 1_555 1_555
N1A Cr1A 1_555 1_555
H1A N1A 1_555 1_555
H2A N1A 1_555 1_555
N2A Ag1 1_555 1_555
C1A N1A 1_555 1_555
H3A C1A 1_555 1_555
C2A C1A 1_555 1_555
H4A C2A 1_555 1_555
H5A C2A 1_555 1_555
C3A C2A 1_555 1_555
H6A C3A 1_555 1_555
H7A C3A 1_555 1_555
C4A H8A 1_555 1_555
H9A C4A 1_555 1_555
H10A C4A 1_555 1_555
C5A C4A 1_555 1_555
C6A C5A 1_555 1_555
C7A O2A 1_555 1_555
C8A C7A 1_555 1_555
H11A C8A 1_555 1_555
H12A C8A 1_555 1_555
H13A C8A 1_555 1_555
C9A N2A 1_555 1_555
N1B Cr1A 1_555 1_555
H1B N1B 1_555 1_555
H2B N1B 1_555 1_555
C1B C1A 1_555 1_555
H3B C1B 1_555 1_555
C2B C1B 1_555 1_555
H4B C2B 1_555 1_555
H5B C2B 1_555 1_555
C3B C3A 1_555 1_555
H6B C3B 1_555 1_555
H7B C3B 1_555 1_555
O1B C5B 1_555 1_555
O2B C7B 1_555 1_555
N2B Ag1 1_555 1_555
C4B H8B 1_555 1_555
H9B C4B 1_555 1_555
H10B C4B 1_555 1_555
C5B C4B 1_555 1_555
C6B C5B 1_555 1_555
C7B C6B 1_555 1_555
C8B C7B 1_555 1_555
H11B C8B 1_555 1_555
H12B C8B 1_555 1_555
H13B C8B 1_555 1_555
C9B N2B 1_555 1_555
O1C C5C 1_555 1_555
O2C C7C 1_555 1_555
N2C Ag1 1_555 1_555
C4C H8C 1_555 1_555
H9C C4C 1_555 1_555
H10C C4C 1_555 1_555
C5C C4C 1_555 1_555
C6C C5C 1_555 1_555
C7C C6C 1_555 1_555
C8C C7C 1_555 1_555
H11C C8C 1_555 1_555
H12C C8C 1_555 1_555
H13C C8C 1_555 1_555
C9C N2C 1_555 1_555
Cr1_2 O1C 1_555 1_555
Cr1A_2 O1B 1_555 1_555
O1B_2 Cr1A 1_555 1_555
O1C_2 Cr1 1_555 1_555
O2B_2 Cr1A 1_555 1_555
O2C_2 Cr1 1_555 1_555
F1C P1 1_555 1_555
F2C P1 1_555 1_555
F3C P1 1_555 1_555
F5A P2 1_555 1_555
F6A P2 1_555 1_555
F4B P2 1_555 1_555
C6 C7 1_555 1_555
N1C C1C 1_555 1_555
C2C C3C 1_555 1_555
C6A C7A 1_555 1_555
C6A C9A 1_555 1_555
N1B C1B 1_555 1_555
C2B C3B 1_555 1_555
O2B Cr1A_2 1_555 1_555
C6B C9B 1_555 1_555
O2C Cr1_2 1_555 1_555
C6C C9C 1_555 1_555

#END
