
#######################################################################
#
#                 Cambridge Crystallographic Data Centre
#                                CCDC 
#
#######################################################################
#
# If this CIF has been generated from an entry in the Cambridge 
# Structural Database, then it will include bibliographic, chemical, 
# crystal, experimental, refinement or atomic coordinate data resulting 
# from the CCDC's data processing and validation procedures.
#
#######################################################################

data_TUMCIP
_symmetry_cell_setting           monoclinic
_symmetry_space_group_name_H-M   'P 21/n'
_symmetry_Int_Tables_number      14
_space_group_name_Hall           '-P 2yn'
loop_
_symmetry_equiv_pos_site_id
_symmetry_equiv_pos_as_xyz
1 x,y,z
2 1/2-x,1/2+y,1/2-z
3 -x,-y,-z
4 1/2+x,1/2-y,1/2+z
_cell_length_a                   5.2976(2)
_cell_length_b                   15.2807(4)
_cell_length_c                   10.8116(4)
_cell_angle_alpha                90
_cell_angle_beta                 103.788(4)
_cell_angle_gamma                90
_cell_volume                     849.99
loop_
_atom_site_label
_atom_site_type_symbol
_atom_site_fract_x
_atom_site_fract_y
_atom_site_fract_z
Hg1 Hg 0.5000 0.0000 0.0000
N1 N 0.3115(3) 0.23880(9) -0.19381(15)
C1 C 0.4350(3) 0.17723(11) -0.10700(16)
O1 O 0.6532(2) 0.18855(8) -0.03934(12)
N2 N 0.2991(3) 0.10071(9) -0.10082(14)
C2 C 0.0507(3) 0.08307(12) -0.16989(16)
O2 O -0.0550(3) 0.01292(8) -0.15628(14)
C3 C -0.0620(3) 0.15067(13) -0.25735(17)
F1 F -0.30580(19) 0.13676(8) -0.32938(11)
C4 C 0.0655(3) 0.22463(13) -0.26958(17)
H1 H -0.0133 0.2674 -0.3304
C5 C 0.4498(4) 0.32075(13) -0.20821(19)
H2 H 0.3826 0.3438 -0.2955
H3 H 0.6369 0.3078 -0.1974
C6 C 0.4188(3) 0.39043(12) -0.11266(18)
H4 H 0.5182 0.4431 -0.1258
H5 H 0.4940 0.3684 -0.0255
C7 C 0.1366(4) 0.41616(14) -0.12340(18)
H6 H 0.0443 0.3682 -0.0910
H7 H 0.1288 0.4691 -0.0717
O3 O 0.0161(3) 0.43303(10) -0.25337(13)
H8 H -0.1202 0.4623 -0.2581
N1B N 0.6885(3) -0.23880(9) 0.19381(15)
C1B C 0.5650(3) -0.17723(11) 0.10700(16)
O1B O 0.3468(2) -0.18855(8) 0.03934(12)
N2B N 0.7009(3) -0.10071(9) 0.10082(14)
C2B C 0.9493(3) -0.08307(12) 0.16989(16)
O2B O 1.0550(3) -0.01292(8) 0.15628(14)
C3B C 1.0620(3) -0.15067(13) 0.25735(17)
F1B F 1.30580(19) -0.13676(8) 0.32938(11)
C4B C 0.9345(3) -0.22463(13) 0.26958(17)
H1B H 1.0133 -0.2674 0.3304
C5B C 0.5502(4) -0.32075(13) 0.20821(19)
H2B H 0.6174 -0.3438 0.2955
H3B H 0.3631 -0.3078 0.1974
C6B C 0.5812(3) -0.39043(12) 0.11266(18)
H4B H 0.4818 -0.4431 0.1258
H5B H 0.5060 -0.3684 0.0255
C7B C 0.8634(4) -0.41616(14) 0.12340(18)
H6B H 0.9557 -0.3682 0.0910
H7B H 0.8712 -0.4691 0.0717
O3B O 0.9839(3) -0.43303(10) 0.25337(13)
H8B H 1.1202 -0.4623 0.2581
Hg1A Hg 0.0000 0.5000 -0.5000
Hg1A_2 Hg 1.0000 -0.5000 0.5000
O3A O 0.4839(3) -0.06697(10) -0.24663(13)
O3C O 0.5161(3) 0.06697(10) 0.24663(13)
loop_
_geom_bond_atom_site_label_1
_geom_bond_atom_site_label_2
_geom_bond_site_symmetry_1
_geom_bond_site_symmetry_2
Hg1 N2 1_555 1_555
N1 C1 1_555 1_555
C1 O1 1_555 1_555
N2 C1 1_555 1_555
C2 N2 1_555 1_555
O2 Hg1 1_555 1_555
C3 C2 1_555 1_555
F1 C3 1_555 1_555
C4 N1 1_555 1_555
H1 C4 1_555 1_555
C5 N1 1_555 1_555
H2 C5 1_555 1_555
H3 C5 1_555 1_555
C6 C5 1_555 1_555
H4 C6 1_555 1_555
H5 C6 1_555 1_555
C7 C6 1_555 1_555
H6 C7 1_555 1_555
H7 C7 1_555 1_555
O3 C7 1_555 1_555
H8 O3 1_555 1_555
N1B C1B 1_555 1_555
C1B O1B 1_555 1_555
N2B Hg1 1_555 1_555
C2B N2B 1_555 1_555
O2B Hg1 1_555 1_555
C3B C2B 1_555 1_555
F1B C3B 1_555 1_555
C4B N1B 1_555 1_555
H1B C4B 1_555 1_555
C5B N1B 1_555 1_555
H2B C5B 1_555 1_555
H3B C5B 1_555 1_555
C6B C5B 1_555 1_555
H4B C6B 1_555 1_555
H5B C6B 1_555 1_555
C7B C6B 1_555 1_555
H6B C7B 1_555 1_555
H7B C7B 1_555 1_555
O3B C7B 1_555 1_555
H8B O3B 1_555 1_555
Hg1A O3 1_555 1_555
Hg1A_2 O3B 1_555 1_555
O3A Hg1 1_555 1_555
O3C Hg1 1_555 1_555
C2 O2 1_555 1_555
C3 C4 1_555 1_555
C1B N2B 1_555 1_555
C2B O2B 1_555 1_555
C3B C4B 1_555 1_555

#END
