
#######################################################################
#
#                 Cambridge Crystallographic Data Centre
#                                CCDC 
#
#######################################################################
#
# If this CIF has been generated from an entry in the Cambridge 
# Structural Database, then it will include bibliographic, chemical, 
# crystal, experimental, refinement or atomic coordinate data resulting 
# from the CCDC's data processing and validation procedures.
#
#######################################################################

data_TUMFUE
_symmetry_cell_setting           triclinic
_symmetry_space_group_name_H-M   'P -1'
_symmetry_Int_Tables_number      2
_space_group_name_Hall           '-P 1'
loop_
_symmetry_equiv_pos_site_id
_symmetry_equiv_pos_as_xyz
1 x,y,z
2 -x,-y,-z
_cell_length_a                   8.0625(6)
_cell_length_b                   8.4698(6)
_cell_length_c                   13.7270(10)
_cell_angle_alpha                92.8460(10)
_cell_angle_beta                 90.0590(10)
_cell_angle_gamma                108.1100(10)
_cell_volume                     889.717
loop_
_atom_site_label
_atom_site_type_symbol
_atom_site_fract_x
_atom_site_fract_y
_atom_site_fract_z
Cd1 Cd 0.79582(3) 0.80441(3) 0.476916(17)
Cl1 Cl 1.13596(12) 0.90228(10) 0.43168(6)
Cl2 Cl 0.75801(13) 0.52868(11) 0.38470(6)
O1 O 0.4887(4) 0.7617(4) 0.5070(2)
H1 H 0.4394 0.6731 0.5358
H2 H 0.4214 0.8061 0.4791
N1 N 0.7035(4) 0.9107(3) 0.33937(19)
N2 N 0.4775(4) 0.7715(4) 0.01849(19)
N3 N 0.3716(4) 0.6413(4) -0.03872(19)
N4 N 0.3277(4) 0.5791(3) 0.11476(18)
N5 N 0.0384(4) 0.2860(4) 0.0444(2)
N6 N 0.2144(4) 0.3165(3) 0.37110(19)
C1 C 0.6034(4) 0.8017(4) 0.2731(2)
H3 H 0.5752 0.6888 0.2833
C2 C 0.7425(5) 1.0729(4) 0.3239(3)
H4 H 0.8133 1.1494 0.3694
C3 C 0.6826(5) 1.1316(4) 0.2437(3)
H5 H 0.7114 1.2453 0.2357
C4 C 0.5804(5) 1.0198(4) 0.1764(2)
H6 H 0.5379 1.0567 0.1218
C5 C 0.5398(4) 0.8501(4) 0.1897(2)
C6 C 0.4493(4) 0.7335(4) 0.1100(2)
C7 C 0.2827(4) 0.5273(4) 0.0186(2)
C8 C 0.1487(4) 0.3766(4) -0.0188(2)
C9 C 0.1373(5) 0.3386(5) -0.1191(3)
H7 H 0.2151 0.4062 -0.1611
C10 C 0.0085(6) 0.1989(5) -0.1546(3)
H8 H -0.0010 0.1690 -0.2210
C11 C -0.1051(5) 0.1051(5) -0.0904(3)
H9 H -0.1939 0.0104 -0.1124
C12 C -0.0863(5) 0.1527(5) 0.0070(3)
H10 H -0.1653 0.0881 0.0497
C13 C 0.2808(4) 0.4854(4) 0.2013(2)
C14 C 0.3311(5) 0.3463(4) 0.2110(2)
H11 H 0.3891 0.3079 0.1612
C15 C 0.2932(5) 0.2650(4) 0.2966(2)
H12 H 0.3244 0.1689 0.3026
C16 C 0.1667(5) 0.4520(4) 0.3600(2)
H13 H 0.1111 0.4894 0.4113
C17 C 0.1962(5) 0.5397(4) 0.2758(2)
H14 H 0.1595 0.6327 0.2700
Cd1A Cd 0.20418(3) 0.19559(3) 0.523084(17)
Cd1A_2 Cd 1.20418(3) 1.19559(3) 0.523084(17)
Cl1A Cl 0.86404(12) 1.09772(10) 0.56832(6)
N6A N 0.7856(4) 0.6835(3) 0.62890(19)
loop_
_geom_bond_atom_site_label_1
_geom_bond_atom_site_label_2
_geom_bond_site_symmetry_1
_geom_bond_site_symmetry_2
Cd1 Cl1 1_555 1_555
Cl1 Cd1A_2 1_555 1_555
Cl2 Cd1 1_555 1_555
O1 Cd1 1_555 1_555
H1 O1 1_555 1_555
H2 O1 1_555 1_555
N1 Cd1 1_555 1_555
N2 N3 1_555 1_555
N3 C7 1_555 1_555
N4 C6 1_555 1_555
N5 C8 1_555 1_555
N6 C15 1_555 1_555
C1 N1 1_555 1_555
H3 C1 1_555 1_555
C2 N1 1_555 1_555
H4 C2 1_555 1_555
C3 C2 1_555 1_555
H5 C3 1_555 1_555
C4 C3 1_555 1_555
H6 C4 1_555 1_555
C5 C1 1_555 1_555
C6 N2 1_555 1_555
C7 N4 1_555 1_555
C8 C7 1_555 1_555
C9 C8 1_555 1_555
H7 C9 1_555 1_555
C10 C9 1_555 1_555
H8 C10 1_555 1_555
C11 C10 1_555 1_555
H9 C11 1_555 1_555
C12 N5 1_555 1_555
H10 C12 1_555 1_555
C13 N4 1_555 1_555
C14 C13 1_555 1_555
H11 C14 1_555 1_555
C15 C14 1_555 1_555
H12 C15 1_555 1_555
C16 N6 1_555 1_555
H13 C16 1_555 1_555
C17 C13 1_555 1_555
H14 C17 1_555 1_555
Cd1A N6 1_555 1_555
Cd1A_2 Cl1A 1_555 1_555
Cl1A Cd1 1_555 1_555
N6A Cd1 1_555 1_555
C4 C5 1_555 1_555
C5 C6 1_555 1_555
C11 C12 1_555 1_555
C16 C17 1_555 1_555

#END
