
#######################################################################
#
#                 Cambridge Crystallographic Data Centre
#                                CCDC 
#
#######################################################################
#
# If this CIF has been generated from an entry in the Cambridge 
# Structural Database, then it will include bibliographic, chemical, 
# crystal, experimental, refinement or atomic coordinate data resulting 
# from the CCDC's data processing and validation procedures.
#
#######################################################################

data_TUMGAJ
_symmetry_cell_setting           orthorhombic
_symmetry_space_group_name_H-M   'P 21 21 21'
_symmetry_Int_Tables_number      19
_space_group_name_Hall           'P 2ac 2ab'
loop_
_symmetry_equiv_pos_site_id
_symmetry_equiv_pos_as_xyz
1 x,y,z
2 1/2-x,-y,1/2+z
3 1/2+x,1/2-y,-z
4 -x,1/2+y,1/2-z
_cell_length_a                   9.954(1)
_cell_length_b                   13.460(2)
_cell_length_c                   6.910(1)
_cell_angle_alpha                90
_cell_angle_beta                 90
_cell_angle_gamma                90
_cell_volume                     925.808
loop_
_atom_site_label
_atom_site_type_symbol
_atom_site_fract_x
_atom_site_fract_y
_atom_site_fract_z
Cd1 Cd 0.2414 0.0229 0.1707
Cl1 Cl 0.4393(1) -0.0350(1) 0.3959(1)
Cl2 Cl 0.0850(1) -0.0807(1) 0.4059(1)
O1 O 0.1866(3) 0.1842(2) 0.2374(4)
O2 O 0.2310(4) 0.1392(2) 0.5388(4)
N1 N 0.1668(3) 0.2650(2) 0.8449(4)
C1 C 0.1858(4) 0.2000(2) 0.4183(5)
C2 C 0.1299(3) 0.2977(2) 0.4949(5)
C3 C 0.2399(5) 0.3784(2) 0.5055(6)
C4 C 0.3369(4) 0.3608(3) 0.6702(8)
C5 C 0.2656(5) 0.3475(3) 0.8618(6)
C6 C 0.0645(3) 0.2844(2) 0.6922(5)
H1 H 0.127(6) 0.263(5) 0.958(10)
H2 H 0.219(6) 0.199(5) 0.810(8)
H3 H 0.051(6) 0.322(4) 0.397(9)
H4 H 0.194(6) 0.451(5) 0.529(9)
H5 H 0.298(6) 0.379(5) 0.373(9)
H6 H 0.406(6) 0.423(5) 0.684(9)
H7 H 0.394(6) 0.293(5) 0.644(10)
H8 H 0.336(6) 0.331(5) 0.976(10)
H9 H 0.211(6) 0.416(4) 0.898(9)
H10 H 0.008(6) 0.350(5) 0.725(10)
H11 H -0.004(6) 0.223(4) 0.683(9)
Cd1A Cd 0.2586 -0.0229 0.6707
Cl1A Cl 0.0607(1) 0.0350(1) 0.8959(1)
Cd1_2 Cd 0.2414 0.0229 1.1707
Cl2A Cl 0.4150(1) 0.0807(1) 0.9059(1)
O1A O 0.3134(3) -0.1842(2) 0.7374(4)
loop_
_geom_bond_atom_site_label_1
_geom_bond_atom_site_label_2
_geom_bond_site_symmetry_1
_geom_bond_site_symmetry_2
Cd1 Cl1 1_555 1_555
Cl1 Cd1A 1_555 1_555
Cl2 Cd1 1_555 1_555
O1 Cd1 1_555 1_555
O2 C1 1_555 1_555
N1 C5 1_555 1_555
C1 O1 1_555 1_555
C2 C1 1_555 1_555
C3 C2 1_555 1_555
C4 C3 1_555 1_555
C5 C4 1_555 1_555
C6 N1 1_555 1_555
H1 N1 1_555 1_555
H2 N1 1_555 1_555
H3 C2 1_555 1_555
H4 C3 1_555 1_555
H5 C3 1_555 1_555
H6 C4 1_555 1_555
H7 C4 1_555 1_555
H8 C5 1_555 1_555
H9 C5 1_555 1_555
H10 C6 1_555 1_555
H11 C6 1_555 1_555
Cd1A Cl2 1_555 1_555
Cl1A Cd1A 1_555 1_555
Cd1_2 Cl1A 1_555 1_555
Cl2A Cd1A 1_555 1_555
O1A Cd1A 1_555 1_555
O2 Cd1A 1_555 1_555
C2 C6 1_555 1_555
Cd1_2 Cl2A 1_555 1_555

#END
