
#######################################################################
#
#                 Cambridge Crystallographic Data Centre
#                                CCDC 
#
#######################################################################
#
# If this CIF has been generated from an entry in the Cambridge 
# Structural Database, then it will include bibliographic, chemical, 
# crystal, experimental, refinement or atomic coordinate data resulting 
# from the CCDC's data processing and validation procedures.
#
#######################################################################

data_TUMGUD
_symmetry_cell_setting           monoclinic
_symmetry_space_group_name_H-M   'P 21/n'
_symmetry_Int_Tables_number      14
_space_group_name_Hall           '-P 2yn'
loop_
_symmetry_equiv_pos_site_id
_symmetry_equiv_pos_as_xyz
1 x,y,z
2 1/2-x,1/2+y,1/2-z
3 -x,-y,-z
4 1/2+x,1/2-y,1/2+z
_cell_length_a                   8.505(2)
_cell_length_b                   13.145(1)
_cell_length_c                   9.536(2)
_cell_angle_alpha                90
_cell_angle_beta                 94.73(2)
_cell_angle_gamma                90
_cell_volume                     1062.48
loop_
_atom_site_label
_atom_site_type_symbol
_atom_site_fract_x
_atom_site_fract_y
_atom_site_fract_z
Eu1 Eu 0.96048(2) 0.23165(1) 0.50749(2)
O1 O 0.8509(3) 0.1142(2) 0.6586(3)
O2 O 0.6686(3) 0.0108(2) 0.7312(3)
O3 O 1.0496(4) -0.0670(2) 0.6272(3)
O4 O 1.0374(3) -0.2057(2) 0.7521(3)
O5 O 0.7175(3) 0.2123(2) 0.9160(3)
O6 O 0.6579(3) 0.1370(2) 1.1103(3)
O7 O 1.1713(3) 0.1238(2) 0.6154(4)
O8 O 0.8513(4) 0.3148(2) 0.6969(3)
O9 O 0.8860(4) 0.3981(3) 0.3981(4)
O10 O 0.6904(4) 0.2249(3) 0.4017(4)
C1 C 0.9075(4) 0.0262(3) 0.8755(4)
C2 C 1.0243(4) -0.0492(3) 0.8740(3)
C3 C 0.8824(4) 0.0741(3) 1.0028(4)
C4 C 0.8016(4) 0.0522(3) 0.7428(4)
C5 C 1.0397(4) -0.1108(3) 0.7441(4)
C6 C 0.7462(4) 0.1470(3) 1.0103(4)
H1 H 1.2679 0.1254 0.5895
H2 H 1.1371 0.0552 0.6180
H3 H 0.8433 0.3802 0.7124
H4 H 0.8120 0.2869 0.7599
H5 H 0.9242 0.4521 0.3729
H6 H 0.7918 0.4008 0.3215
H7 H 0.6779 0.2158 0.3134
H8 H 0.6125 0.1989 0.4525
C3B C 1.1176(4) -0.0741(3) 0.9972(4)
C1B C 1.0925(4) -0.0262(3) 1.1245(4)
C2B C 0.9757(4) 0.0492(3) 1.1260(3)
C5B C 0.9603(4) 0.1108(3) 1.2559(4)
O3B O 0.9504(4) 0.0670(2) 1.3728(3)
O4B O 0.9626(3) 0.2057(2) 1.2479(3)
C4B C 1.1984(4) -0.0522(3) 1.2572(4)
O1B O 1.1491(3) -0.1142(2) 1.3414(3)
O2B O 1.3314(3) -0.0108(2) 1.2688(3)
C6B C 1.2538(4) -0.1470(3) 0.9897(4)
O5B O 1.2825(3) -0.2123(2) 1.0840(3)
O6B O 1.3421(3) -0.1370(2) 0.8897(3)
Eu1B Eu 1.03952(2) -0.23165(1) 1.49251(2)
O7B O 0.8287(3) -0.1238(2) 1.3846(4)
H1B H 0.7321 -0.1254 1.4105
H2B H 0.8629 -0.0552 1.3820
O8B O 1.1487(4) -0.3148(2) 1.3031(3)
H3B H 1.1567 -0.3802 1.2876
H4B H 1.1880 -0.2869 1.2401
O9B O 1.1140(4) -0.3981(3) 1.6019(4)
H5B H 1.0758 -0.4521 1.6271
H6B H 1.2082 -0.4008 1.6785
O10B O 1.3096(4) -0.2249(3) 1.5983(4)
H7B H 1.3221 -0.2158 1.6866
H8B H 1.3875 -0.1989 1.5475
O3B_2 O 0.9504(4) 0.0670(2) 0.3728(3)
O4B_2 O 0.9626(3) 0.2057(2) 0.2479(3)
O5C O 1.2175(3) 0.2877(2) 0.4160(3)
O6C O 1.1579(3) 0.3630(2) 0.6103(3)
Eu1B_2 Eu 1.03952(2) -0.23165(1) 0.49251(2)
Eu1C Eu 0.46048(2) 0.26835(1) 1.00749(2)
Eu1_2 Eu 0.96048(2) 0.23165(1) 1.50749(2)
Eu1A Eu 1.53952(2) -0.26835(1) 0.99251(2)
O3_2 O 1.0496(4) -0.0670(2) 1.6272(3)
O4_2 O 1.0374(3) -0.2057(2) 1.7521(3)
O5A O 0.7825(3) -0.2877(2) 1.5840(3)
O6A O 0.8421(3) -0.3630(2) 1.3897(3)
O11 O 0.4805 0.1371 0.5599
loop_
_geom_bond_atom_site_label_1
_geom_bond_atom_site_label_2
_geom_bond_site_symmetry_1
_geom_bond_site_symmetry_2
Eu1 O1 1_555 1_555
O1 C4 1_555 1_555
O2 C4 1_555 1_555
O3 C5 1_555 1_555
O4 C5 1_555 1_555
O5 C6 1_555 1_555
O6 C6 1_555 1_555
O7 Eu1 1_555 1_555
O8 Eu1 1_555 1_555
O9 Eu1 1_555 1_555
O10 Eu1 1_555 1_555
C1 C2 1_555 1_555
C2 C5 1_555 1_555
C3 C1 1_555 1_555
C4 C1 1_555 1_555
C6 C3 1_555 1_555
H1 O7 1_555 1_555
H2 O7 1_555 1_555
H3 O8 1_555 1_555
H4 O8 1_555 1_555
H5 O9 1_555 1_555
H6 O9 1_555 1_555
H7 O10 1_555 1_555
H8 O10 1_555 1_555
C3B C2 1_555 1_555
C1B C3B 1_555 1_555
C2B C3 1_555 1_555
C5B C2B 1_555 1_555
O3B C5B 1_555 1_555
O4B C5B 1_555 1_555
C4B C1B 1_555 1_555
O1B C4B 1_555 1_555
O2B C4B 1_555 1_555
C6B C3B 1_555 1_555
O5B C6B 1_555 1_555
O6B C6B 1_555 1_555
Eu1B O1B 1_555 1_555
O7B Eu1B 1_555 1_555
H1B O7B 1_555 1_555
H2B O7B 1_555 1_555
O8B Eu1B 1_555 1_555
H3B O8B 1_555 1_555
H4B O8B 1_555 1_555
O9B Eu1B 1_555 1_555
H5B O9B 1_555 1_555
H6B O9B 1_555 1_555
O10B Eu1B 1_555 1_555
H7B O10B 1_555 1_555
H8B O10B 1_555 1_555
O3B_2 Eu1 1_555 1_555
O4B_2 Eu1 1_555 1_555
O5C Eu1 1_555 1_555
O6C Eu1 1_555 1_555
Eu1B_2 O3 1_555 1_555
Eu1C O5 1_555 1_555
Eu1_2 O3B 1_555 1_555
Eu1A O5B 1_555 1_555
O3_2 Eu1B 1_555 1_555
O4_2 Eu1B 1_555 1_555
O5A Eu1B 1_555 1_555
O6A Eu1B 1_555 1_555
O4 Eu1B_2 1_555 1_555
O6 Eu1C 1_555 1_555
C1B C2B 1_555 1_555
O4B Eu1_2 1_555 1_555
O6B Eu1A 1_555 1_555

#END
