
#######################################################################
#
#                 Cambridge Crystallographic Data Centre
#                                CCDC 
#
#######################################################################
#
# If this CIF has been generated from an entry in the Cambridge 
# Structural Database, then it will include bibliographic, chemical, 
# crystal, experimental, refinement or atomic coordinate data resulting 
# from the CCDC's data processing and validation procedures.
#
#######################################################################

data_TUMGIT
_symmetry_cell_setting           triclinic
_symmetry_space_group_name_H-M   'P -1'
_symmetry_Int_Tables_number      2
_space_group_name_Hall           '-P 1'
loop_
_symmetry_equiv_pos_site_id
_symmetry_equiv_pos_as_xyz
1 x,y,z
2 -x,-y,-z
_cell_length_a                   8.4050(11)
_cell_length_b                   8.8142(11)
_cell_length_c                   13.8983(18)
_cell_angle_alpha                91.106(2)
_cell_angle_beta                 90.331(2)
_cell_angle_gamma                109.230(2)
_cell_volume                     971.922
loop_
_atom_site_label
_atom_site_type_symbol
_atom_site_fract_x
_atom_site_fract_y
_atom_site_fract_z
Cd1 Cd -0.28088(3) 0.70018(3) 0.521652(18)
I1 I -0.35832(3) 0.38632(3) 0.422948(18)
S1 S -0.26523(13) 0.98329(12) 0.61331(7)
N1 N -0.1883(4) 0.6036(4) 0.6646(2)
N2 N 0.0251(4) 0.7283(4) 0.9839(2)
N3 N 0.1274(4) 0.8532(4) 1.0402(2)
N4 N 0.1717(4) 0.9196(4) 0.8883(2)
N5 N 0.4547(5) 1.1986(5) 0.9538(3)
N6 N 0.2904(4) 1.1842(4) 0.6347(2)
N7 N -0.0045(5) 1.1997(4) 0.5101(3)
C1 C -0.0938(5) 0.7070(5) 0.7304(3)
H1 H -0.0670 0.8165 0.7201
C2 C -0.2225(6) 0.4458(5) 0.6799(3)
H2 H -0.2887 0.3723 0.6348
C3 C -0.1638(7) 0.3884(5) 0.7593(3)
H3 H -0.1886 0.2784 0.7668
C4 C -0.0687(6) 0.4951(5) 0.8270(3)
H4 H -0.0284 0.4586 0.8812
C5 C -0.0333(5) 0.6582(5) 0.8138(3)
C6 C 0.0538(5) 0.7684(5) 0.8932(3)
C7 C 0.2137(5) 0.9669(5) 0.9832(3)
C8 C 0.3441(5) 1.1147(5) 1.0175(3)
C9 C 0.5758(7) 1.3288(6) 0.9876(4)
H5 H 0.6559 1.3878 0.9447
C10 C 0.5892(7) 1.3812(7) 1.0823(4)
H6 H 0.6743 1.4744 1.1022
C11 C 0.4747(8) 1.2932(7) 1.1464(4)
H7 H 0.4809 1.3250 1.2108
C12 C 0.3509(6) 1.1574(6) 1.1142(3)
H8 H 0.2724 1.0948 1.1566
C13 C 0.2204(5) 1.0142(4) 0.8029(2)
C14 C 0.3079(5) 0.9689(5) 0.7316(3)
H9 H 0.3450 0.8814 0.7389
C15 C 0.3397(5) 1.0573(5) 0.6478(3)
H10 H 0.3982 1.0264 0.5988
C16 C 0.2076(5) 1.2275(5) 0.7068(3)
H11 H 0.1747 1.3175 0.6990
C17 C 0.1685(5) 1.1457(5) 0.7919(3)
H12 H 0.1094 1.1783 0.8399
C18 C -0.1124(5) 1.1077(5) 0.5528(3)
Cd1A Cd -0.71912(3) 0.29982(3) 0.478348(18)
Cd1A_2 Cd 0.28088(3) 1.29982(3) 0.478348(18)
I1A I -0.64168(3) 0.61368(3) 0.577052(18)
N6A N -0.2904(4) 0.8158(4) 0.3653(2)
N7A N 0.0045(5) 0.8003(4) 0.4899(3)
loop_
_geom_bond_atom_site_label_1
_geom_bond_atom_site_label_2
_geom_bond_site_symmetry_1
_geom_bond_site_symmetry_2
Cd1 I1 1_555 1_555
I1 Cd1A 1_555 1_555
S1 Cd1 1_555 1_555
N1 Cd1 1_555 1_555
N2 N3 1_555 1_555
N3 C7 1_555 1_555
N4 C6 1_555 1_555
N5 C8 1_555 1_555
N6 C15 1_555 1_555
N7 C18 1_555 1_555
C1 N1 1_555 1_555
H1 C1 1_555 1_555
C2 N1 1_555 1_555
H2 C2 1_555 1_555
C3 C2 1_555 1_555
H3 C3 1_555 1_555
C4 C3 1_555 1_555
H4 C4 1_555 1_555
C5 C1 1_555 1_555
C6 N2 1_555 1_555
C7 N4 1_555 1_555
C8 C7 1_555 1_555
C9 N5 1_555 1_555
H5 C9 1_555 1_555
C10 C9 1_555 1_555
H6 C10 1_555 1_555
C11 C10 1_555 1_555
H7 C11 1_555 1_555
C12 C8 1_555 1_555
H8 C12 1_555 1_555
C13 N4 1_555 1_555
C14 C13 1_555 1_555
H9 C14 1_555 1_555
C15 C14 1_555 1_555
H10 C15 1_555 1_555
C16 N6 1_555 1_555
H11 C16 1_555 1_555
C17 C13 1_555 1_555
H12 C17 1_555 1_555
C18 S1 1_555 1_555
Cd1A I1A 1_555 1_555
Cd1A_2 N6 1_555 1_555
I1A Cd1 1_555 1_555
N6A Cd1 1_555 1_555
N7A Cd1 1_555 1_555
N7 Cd1A_2 1_555 1_555
C4 C5 1_555 1_555
C5 C6 1_555 1_555
C11 C12 1_555 1_555
C16 C17 1_555 1_555

#END
