
#######################################################################
#
#                 Cambridge Crystallographic Data Centre
#                                CCDC 
#
#######################################################################
#
# If this CIF has been generated from an entry in the Cambridge 
# Structural Database, then it will include bibliographic, chemical, 
# crystal, experimental, refinement or atomic coordinate data resulting 
# from the CCDC's data processing and validation procedures.
#
#######################################################################

data_TUMGIS
_symmetry_cell_setting           monoclinic
_symmetry_space_group_name_H-M   'C 2/c'
_symmetry_Int_Tables_number      15
_space_group_name_Hall           '-C 2yn'
loop_
_symmetry_equiv_pos_site_id
_symmetry_equiv_pos_as_xyz
1 x,y,z
2 -x,y,1/2-z
3 1/2+x,1/2+y,z
4 1/2-x,1/2+y,1/2-z
5 -x,-y,-z
6 x,-y,1/2+z
7 1/2-x,1/2-y,-z
8 1/2+x,1/2-y,1/2+z
_cell_length_a                   24.830(8)
_cell_length_b                   12.258(3)
_cell_length_c                   26.898(8)
_cell_angle_alpha                90
_cell_angle_beta                 109.41(3)
_cell_angle_gamma                90
_cell_volume                     7721.54
loop_
_atom_site_label
_atom_site_type_symbol
_atom_site_fract_x
_atom_site_fract_y
_atom_site_fract_z
Lu1 Lu 0.372992(10) 0.216990(17) 0.954530(8)
Cu1 Cu 0.74694(3) 0.21319(5) 1.13417(2)
Cu2 Cu 0.5000 -0.24022(8) 0.7500
C1 C 0.6352(3) 0.3067(4) 1.13175(18)
C2 C 0.5798(2) 0.3329(4) 1.12068(18)
H1 H 0.5687 0.3849 1.1406
C3 C 0.5389(3) 0.2798(4) 1.0783(2)
C4 C 0.5589(3) 0.2037(5) 1.0508(2)
H2 H 0.5333 0.1672 1.0224
C5 C 0.6150(2) 0.1818(4) 1.06470(19)
H3 H 0.6271 0.1279 1.0465
C6 C 0.6813(2) 0.3510(4) 1.17955(19)
C7 C 0.6712(2) 0.4286(4) 1.2124(2)
H4 H 0.6353 0.4606 1.2044
C8 C 0.7146(2) 0.4578(4) 1.2570(2)
C9 C 0.7665(3) 0.4061(4) 1.2693(2)
H5 H 0.7950 0.4205 1.3011
C10 C 0.7761(3) 0.3333(4) 1.2346(2)
H6 H 0.8118 0.3009 1.2419
C11 C 0.7079(3) 0.5505(4) 1.29211(19)
C12 C 0.4755(2) 0.3010(4) 1.0655(2)
C13 C 0.4248(2) -0.1228(4) 0.7928(2)
C14 C 0.4030(3) -0.0590(4) 0.8240(2)
H7 H 0.3637 -0.0522 0.8160
C15 C 0.4397(2) -0.0053(4) 0.86707(19)
C16 C 0.4979(3) -0.0222(5) 0.8791(2)
H8 H 0.5242 0.0112 0.9082
C17 C 0.5153(3) -0.0897(5) 0.8468(2)
H9 H 0.5543 -0.1024 0.8551
C18 C 0.3868(2) -0.1772(4) 0.7442(2)
C19 C 0.4163(2) 0.0703(5) 0.8995(2)
C20 C 0.3084(2) 0.6885(4) 1.06324(19)
C21 C 0.3382(3) 0.6409(4) 1.0336(2)
H10 H 0.3610 0.6827 1.0196
C22 C 0.3330(2) 0.5266(4) 1.0251(2)
C23 C 0.2999(3) 0.4686(5) 1.0467(2)
H11 H 0.2953 0.3938 1.0409
C24 C 0.2727(3) 0.5217(4) 1.07773(19)
H12 H 0.2509 0.4812 1.0933
C25 C 0.3068(2) 0.8082(5) 1.0709(2)
C26 C 0.3331(3) 0.8842(4) 1.0476(2)
H13 H 0.3585 0.8616 1.0309
C27 C 0.3206(2) 0.9924(4) 1.04990(19)
C28 C 0.2859(3) 1.0258(4) 1.0787(2)
H14 H 0.2768 1.0991 1.0800
C29 C 0.2654(3) 0.9484(4) 1.1052(2)
H15 H 0.2442 0.9704 1.1261
C30 C 0.3279(3) -0.1672(4) 0.7227(2)
H16 H 0.3081 -0.1260 0.7399
C31 C 0.2991(2) -0.2185(4) 0.6759(2)
C32 C 0.3306(3) -0.2783(5) 0.6514(2)
H17 H 0.3122 -0.3145 0.6200
C33 C 0.3880(3) -0.2841(5) 0.6731(2)
H18 H 0.4086 -0.3232 0.6558
C34 C 0.2362(3) -0.2086(4) 0.6503(2)
C35 C 0.3627(3) 0.4699(5) 0.9904(2)
C36 C 0.3416(3) 1.0742(4) 1.0187(2)
N1 N 0.6538(2) 0.2340(4) 1.10329(17)
N2 N 0.7334(2) 0.3088(4) 1.18966(16)
N3 N 0.4801(2) -0.1377(4) 0.80469(17)
N4 N 0.4157(2) -0.2351(4) 0.71850(17)
N5 N 0.2773(2) 0.6305(3) 1.08571(17)
N6 N 0.2758(2) 0.8401(3) 1.10106(16)
O1 O 0.45127(17) 0.1218(3) 0.93799(14)
O2 O 0.36561(19) 0.0823(3) 0.88869(15)
O3 O 0.31983(17) 1.1674(3) 1.01040(14)
O4 O 0.37811(18) 1.0442(3) 0.99860(15)
O5 O 0.44374(19) 0.2543(4) 1.02423(16)
O6 O 0.45905(18) 0.3593(4) 1.09541(15)
O7 O 0.21399(19) -0.2620(3) 0.60811(14)
O8 O 0.3984(2) 0.3261(4) 0.8958(2)
O9 O 0.3445(2) 0.3802(3) 0.97441(16)
O10 O 0.4020(2) 0.5229(4) 0.9817(2)
O11 O 0.6608(2) 0.5903(4) 1.28498(17)
O12 O 0.75554(18) 0.5851(3) 1.32418(14)
O13 O 0.5000 -0.4039(8) 0.7500
O14 O 0.2096(2) -0.1453(4) 0.67113(16)
Lu1A Lu 0.627008(10) 0.216990(17) 0.545470(8)
Lu1_2 Lu 0.372992(10) 1.216990(17) 0.954530(8)
Lu1C Lu 0.127008(10) -0.283010(17) 0.545470(8)
Lu1B Lu 0.872992(10) -0.283010(17) 0.954530(8)
Lu1_3 Lu 0.372992(10) -0.783010(17) 0.954530(8)
Cu1A Cu 0.25306(3) 0.21319(5) 0.36583(2)
Cu1B Cu 0.24694(3) 0.71319(5) 1.13417(2)
Cu1C Cu 0.75306(3) 0.71319(5) 1.36583(2)
Cu1B_2 Cu 0.24694(3) -0.28681(5) 1.13417(2)
Cu1B_3 Cu 0.24694(3) 0.71319(5) 0.13417(2)
C1A C 0.3648(3) 0.3067(4) 0.36825(18)
C2A C 0.4202(2) 0.3329(4) 0.37932(18)
H1A H 0.4313 0.3849 0.3594
C3A C 0.4611(3) 0.2798(4) 0.4217(2)
C4A C 0.4411(3) 0.2037(5) 0.4492(2)
H2A H 0.4667 0.1672 0.4776
C5A C 0.3850(2) 0.1818(4) 0.43530(19)
H3A H 0.3729 0.1279 0.4535
C6A C 0.3187(2) 0.3510(4) 0.32045(19)
C7A C 0.3288(2) 0.4286(4) 0.2876(2)
H4A H 0.3647 0.4606 0.2956
C8A C 0.2854(2) 0.4578(4) 0.2430(2)
C9A C 0.2335(3) 0.4061(4) 0.2307(2)
H5A H 0.2050 0.4205 0.1989
C10A C 0.2239(3) 0.3333(4) 0.2654(2)
H6A H 0.1882 0.3009 0.2581
C11A C 0.2921(3) 0.5505(4) 0.20789(19)
C12A C 0.5245(2) 0.3010(4) 0.4345(2)
C13A C 0.5752(2) -0.1228(4) 0.7072(2)
C14A C 0.5970(3) -0.0590(4) 0.6760(2)
H7A H 0.6363 -0.0522 0.6840
C15A C 0.5603(2) -0.0053(4) 0.63293(19)
C16A C 0.5021(3) -0.0222(5) 0.6209(2)
H8A H 0.4758 0.0112 0.5918
C17A C 0.4847(3) -0.0897(5) 0.6532(2)
H9A H 0.4457 -0.1024 0.6449
C18A C 0.6132(2) -0.1772(4) 0.7558(2)
C19A C 0.5837(2) 0.0703(5) 0.6005(2)
C20_2 C 0.3084(2) -0.3115(4) 1.06324(19)
C21_2 C 0.3382(3) -0.3591(4) 1.0336(2)
H10_2 H 0.3610 -0.3173 1.0196
C22_2 C 0.3330(2) -0.4734(4) 1.0251(2)
C23_2 C 0.2999(3) -0.5314(5) 1.0467(2)
H11_2 H 0.2953 -0.6062 1.0409
C24_2 C 0.2727(3) -0.4783(4) 1.07773(19)
H12_2 H 0.2509 -0.5188 1.0933
C25_2 C 0.3068(2) -0.1918(5) 1.0709(2)
C26_2 C 0.3331(3) -0.1158(4) 1.0476(2)
H13_2 H 0.3585 -0.1384 1.0309
C27_2 C 0.3206(2) -0.0076(4) 1.04990(19)
C28_2 C 0.2859(3) 0.0258(4) 1.0787(2)
H14_2 H 0.2768 0.0991 1.0800
C29_2 C 0.2654(3) -0.0516(4) 1.1052(2)
H15_2 H 0.2442 -0.0296 1.1261
C30A C 0.6721(3) -0.1672(4) 0.7773(2)
H16A H 0.6919 -0.1260 0.7601
C31A C 0.7009(2) -0.2185(4) 0.8241(2)
C32A C 0.6694(3) -0.2783(5) 0.8486(2)
H17A H 0.6878 -0.3145 0.8800
C33A C 0.6120(3) -0.2841(5) 0.8269(2)
H18A H 0.5914 -0.3232 0.8442
C34A C 0.7638(3) -0.2086(4) 0.8497(2)
C35_2 C 0.3627(3) -0.5301(5) 0.9904(2)
C36_2 C 0.3416(3) 0.0742(4) 1.0187(2)
N1A N 0.3462(2) 0.2340(4) 0.39671(17)
N2A N 0.2666(2) 0.3088(4) 0.31034(16)
N3A N 0.5199(2) -0.1377(4) 0.69531(17)
N4A N 0.5843(2) -0.2351(4) 0.78150(17)
N5_2 N 0.2773(2) -0.3695(3) 1.08571(17)
N5B N 0.7773(2) 0.1305(3) 1.08571(17)
N5C N 0.2227(2) 0.1305(3) 0.41429(17)
N6_2 N 0.2758(2) -0.1599(3) 1.10106(16)
N6B N 0.7758(2) 0.3401(3) 1.10106(16)
N6C N 0.2242(2) 0.3401(3) 0.39894(16)
O1A O 0.54873(17) 0.1218(3) 0.56201(14)
O2A O 0.63439(19) 0.0823(3) 0.61131(15)
O3_2 O 0.31983(17) 0.1674(3) 1.01040(14)
O3A O 0.68017(17) 0.1674(3) 0.48960(14)
O4_2 O 0.37811(18) 0.0442(3) 0.99860(15)
O4A O 0.62189(18) 0.0442(3) 0.50140(15)
O5A O 0.55626(19) 0.2543(4) 0.47577(16)
O6A O 0.54095(18) 0.3593(4) 0.40459(15)
O7A O 0.78601(19) -0.2620(3) 0.89189(14)
O7C O 0.28601(19) 0.2380(3) 0.89189(14)
O7B O 0.71399(19) 0.2380(3) 0.60811(14)
O8A O 0.6016(2) 0.3261(4) 0.6042(2)
O9_2 O 0.3445(2) -0.6198(3) 0.97441(16)
O9A O 0.6555(2) 0.3802(3) 0.52559(16)
O10_2 O 0.4020(2) -0.4771(4) 0.9817(2)
O11A O 0.3392(2) 0.5903(4) 0.21502(17)
O12A O 0.24446(18) 0.5851(3) 0.17582(14)
O12C O 0.74446(18) 0.0851(3) 1.17582(14)
O12B O 0.25554(18) 0.0851(3) 0.32418(14)
O14A O 0.7904(2) -0.1453(4) 0.82887(16)
O15 O 0.0078(5) 0.0622(8) 0.0504(5)
O16 O 0.0127(5) 1.0133(8) 0.1716(3)
O17 O 0.0115(5) 0.2337(7) 0.3230(4)
O18 O 0.0385(4) 0.2542(7) 0.4269(3)
O19 O 0.0889(5) 0.2635(9) 0.2721(5)
loop_
_geom_bond_atom_site_label_1
_geom_bond_atom_site_label_2
_geom_bond_site_symmetry_1
_geom_bond_site_symmetry_2
Lu1 O1 1_555 1_555
Cu1 N1 1_555 1_555
Cu2 N3 1_555 1_555
C1 C2 1_555 1_555
C2 H1 1_555 1_555
C3 C2 1_555 1_555
C4 C3 1_555 1_555
H2 C4 1_555 1_555
C5 C4 1_555 1_555
H3 C5 1_555 1_555
C6 C1 1_555 1_555
C7 C6 1_555 1_555
H4 C7 1_555 1_555
C8 C7 1_555 1_555
C9 C8 1_555 1_555
H5 C9 1_555 1_555
C10 C9 1_555 1_555
H6 C10 1_555 1_555
C11 C8 1_555 1_555
C12 C3 1_555 1_555
C13 C14 1_555 1_555
C14 H7 1_555 1_555
C15 C14 1_555 1_555
C16 C15 1_555 1_555
H8 C16 1_555 1_555
C17 C16 1_555 1_555
H9 C17 1_555 1_555
C18 C13 1_555 1_555
C19 C15 1_555 1_555
C20 C21 1_555 1_555
C21 H10 1_555 1_555
C22 C21 1_555 1_555
C23 C22 1_555 1_555
H11 C23 1_555 1_555
C24 C23 1_555 1_555
H12 C24 1_555 1_555
C25 C20 1_555 1_555
C26 C25 1_555 1_555
H13 C26 1_555 1_555
C27 C26 1_555 1_555
C28 C27 1_555 1_555
H14 C28 1_555 1_555
C29 C28 1_555 1_555
H15 C29 1_555 1_555
C30 C18 1_555 1_555
H16 C30 1_555 1_555
C31 C30 1_555 1_555
C32 C31 1_555 1_555
H17 C32 1_555 1_555
C33 C32 1_555 1_555
H18 C33 1_555 1_555
C34 C31 1_555 1_555
C35 C22 1_555 1_555
C36 C27 1_555 1_555
N1 C1 1_555 1_555
N2 Cu1 1_555 1_555
N3 C13 1_555 1_555
N4 Cu2 1_555 1_555
N5 C20 1_555 1_555
N6 C25 1_555 1_555
O1 C19 1_555 1_555
O2 Lu1 1_555 1_555
O3 C36 1_555 1_555
O4 C36 1_555 1_555
O5 Lu1 1_555 1_555
O6 C12 1_555 1_555
O7 C34 1_555 1_555
O8 Lu1 1_555 1_555
O9 Lu1 1_555 1_555
O10 C35 1_555 1_555
O11 C11 1_555 1_555
O12 C11 1_555 1_555
O13 Cu2 1_555 1_555
O14 C34 1_555 1_555
Lu1A O1A 1_555 1_555
Lu1_2 O3 1_555 1_555
Lu1C O7 1_555 1_555
Lu1B O7A 1_555 1_555
Lu1_3 O9_2 1_555 1_555
Cu1A N1A 1_555 1_555
Cu1B N5 1_555 1_555
Cu1C O12 1_555 1_555
Cu1B_2 N5_2 1_555 1_555
Cu1B_3 O12A 1_555 1_555
C1A C2A 1_555 1_555
C2A H1A 1_555 1_555
C3A C2A 1_555 1_555
C4A C3A 1_555 1_555
H2A C4A 1_555 1_555
C5A C4A 1_555 1_555
H3A C5A 1_555 1_555
C6A C1A 1_555 1_555
C7A C6A 1_555 1_555
H4A C7A 1_555 1_555
C8A C7A 1_555 1_555
C9A C8A 1_555 1_555
H5A C9A 1_555 1_555
C10A C9A 1_555 1_555
H6A C10A 1_555 1_555
C11A C8A 1_555 1_555
C12A C3A 1_555 1_555
C13A C14A 1_555 1_555
C14A H7A 1_555 1_555
C15A C14A 1_555 1_555
C16A C15A 1_555 1_555
H8A C16A 1_555 1_555
C17A C16A 1_555 1_555
H9A C17A 1_555 1_555
C18A C13A 1_555 1_555
C19A C15A 1_555 1_555
C20_2 C21_2 1_555 1_555
C21_2 H10_2 1_555 1_555
C22_2 C21_2 1_555 1_555
C23_2 C22_2 1_555 1_555
H11_2 C23_2 1_555 1_555
C24_2 C23_2 1_555 1_555
H12_2 C24_2 1_555 1_555
C25_2 C20_2 1_555 1_555
C26_2 C25_2 1_555 1_555
H13_2 C26_2 1_555 1_555
C27_2 C26_2 1_555 1_555
C28_2 C27_2 1_555 1_555
H14_2 C28_2 1_555 1_555
C29_2 C28_2 1_555 1_555
H15_2 C29_2 1_555 1_555
C30A C18A 1_555 1_555
H16A C30A 1_555 1_555
C31A C30A 1_555 1_555
C32A C31A 1_555 1_555
H17A C32A 1_555 1_555
C33A C32A 1_555 1_555
H18A C33A 1_555 1_555
C34A C31A 1_555 1_555
C35_2 C22_2 1_555 1_555
C36_2 C27_2 1_555 1_555
N1A C1A 1_555 1_555
N2A Cu1A 1_555 1_555
N3A Cu2 1_555 1_555
N4A Cu2 1_555 1_555
N5_2 C20_2 1_555 1_555
N5B Cu1 1_555 1_555
N5C Cu1A 1_555 1_555
N6_2 Cu1B_2 1_555 1_555
N6B Cu1 1_555 1_555
N6C Cu1A 1_555 1_555
O1A C19A 1_555 1_555
O2A Lu1A 1_555 1_555
O3_2 Lu1 1_555 1_555
O3A Lu1A 1_555 1_555
O4_2 Lu1 1_555 1_555
O4A Lu1A 1_555 1_555
O5A Lu1A 1_555 1_555
O6A C12A 1_555 1_555
O7A C34A 1_555 1_555
O7C Lu1 1_555 1_555
O7B Lu1A 1_555 1_555
O8A Lu1A 1_555 1_555
O9_2 C35_2 1_555 1_555
O9A Lu1A 1_555 1_555
O10_2 C35_2 1_555 1_555
O11A C11A 1_555 1_555
O12A C11A 1_555 1_555
O12C Cu1 1_555 1_555
O12B Cu1A 1_555 1_555
O14A C34A 1_555 1_555
C5 N1 1_555 1_555
C6 N2 1_555 1_555
C10 N2 1_555 1_555
C12 O5 1_555 1_555
C17 N3 1_555 1_555
C18 N4 1_555 1_555
C19 O2 1_555 1_555
C24 N5 1_555 1_555
C29 N6 1_555 1_555
C33 N4 1_555 1_555
C35 O9 1_555 1_555
N6 Cu1B 1_555 1_555
O4 Lu1_2 1_555 1_555
C5A N1A 1_555 1_555
C6A N2A 1_555 1_555
C10A N2A 1_555 1_555
C12A O5A 1_555 1_555
C13A N3A 1_555 1_555
C17A N3A 1_555 1_555
C18A N4A 1_555 1_555
C19A O2A 1_555 1_555
C24_2 N5_2 1_555 1_555
C25_2 N6_2 1_555 1_555
C29_2 N6_2 1_555 1_555
C33A N4A 1_555 1_555
C36_2 O3_2 1_555 1_555
C36_2 O4_2 1_555 1_555

#END
