
#######################################################################
#
#                 Cambridge Crystallographic Data Centre
#                                CCDC 
#
#######################################################################
#
# If this CIF has been generated from an entry in the Cambridge 
# Structural Database, then it will include bibliographic, chemical, 
# crystal, experimental, refinement or atomic coordinate data resulting 
# from the CCDC's data processing and validation procedures.
#
#######################################################################

data_TUMGAL
_symmetry_cell_setting           triclinic
_symmetry_space_group_name_H-M   'P -1'
_symmetry_Int_Tables_number      2
_space_group_name_Hall           '-P 1'
loop_
_symmetry_equiv_pos_site_id
_symmetry_equiv_pos_as_xyz
1 x,y,z
2 -x,-y,-z
_cell_length_a                   8.199(2)
_cell_length_b                   8.627(2)
_cell_length_c                   13.805(4)
_cell_angle_alpha                92.390(4)
_cell_angle_beta                 90.564(4)
_cell_angle_gamma                107.267(5)
_cell_volume                     931.395
loop_
_atom_site_label
_atom_site_type_symbol
_atom_site_fract_x
_atom_site_fract_y
_atom_site_fract_z
Cd1 Cd -0.29081(4) 0.19825(3) 0.02324(2)
Br1 Br -0.64126(5) 0.10069(5) 0.07183(3)
Br2 Br -0.26133(6) 0.48060(5) 0.11893(3)
O1 O 0.0066(4) 0.2338(4) -0.0035(3)
H1 H 0.0647 0.3183 -0.0309
H2 H 0.0618 0.1771 0.0232
N1 N -0.1987(4) 0.0953(4) 0.1642(2)
N2 N 0.0295(4) 0.2346(4) 0.4835(2)
N3 N 0.1332(4) 0.3618(4) 0.5396(2)
N4 N 0.1701(4) 0.4227(4) 0.3861(2)
N5 N 0.4545(4) 0.7070(4) 0.4529(3)
N6 N 0.2767(4) 0.6805(4) 0.1300(2)
C1 C -0.0999(5) 0.2019(5) 0.2294(3)
H3 H -0.0718 0.3120 0.2179
C2 C -0.2367(6) -0.0626(5) 0.1815(3)
H4 H -0.3065 -0.1377 0.1370
C3 C -0.1769(6) -0.1192(5) 0.2625(3)
H5 H -0.2052 -0.2302 0.2717
C4 C -0.0757(6) -0.0103(5) 0.3287(3)
H6 H -0.0328 -0.0460 0.3833
C5 C -0.0375(5) 0.1551(5) 0.3137(3)
C6 C 0.0545(5) 0.2705(5) 0.3921(3)
C7 C 0.2166(5) 0.4736(5) 0.4814(3)
C8 C 0.3480(5) 0.6206(5) 0.5167(3)
C9 C 0.3608(6) 0.6602(6) 0.6159(3)
H7 H 0.2851 0.5961 0.6583
C10 C 0.4879(7) 0.7964(6) 0.6501(4)
H8 H 0.4988 0.8265 0.7159
C11 C 0.5970(6) 0.8858(6) 0.5853(4)
H9 H 0.6839 0.9783 0.6059
C12 C 0.5756(6) 0.8359(6) 0.4875(4)
H10 H 0.6513 0.8971 0.4439
C13 C 0.2133(5) 0.5144(5) 0.2998(3)
C14 C 0.1619(5) 0.6507(5) 0.2894(3)
H11 H 0.1040 0.6879 0.3383
C15 C 0.1988(6) 0.7309(5) 0.2039(3)
H12 H 0.1676 0.8253 0.1976
C16 C 0.3256(5) 0.5469(5) 0.1415(3)
H13 H 0.3809 0.5103 0.0910
C17 C 0.2971(5) 0.4611(5) 0.2255(3)
H14 H 0.3337 0.3697 0.2316
Cd1A Cd -0.70919(4) -0.19825(3) -0.02324(2)
Cd1A_2 Cd 0.29081(4) 0.80175(3) -0.02324(2)
Br1A Br -0.35874(5) -0.10069(5) -0.07183(3)
N6A N -0.2767(4) 0.3195(4) -0.1300(2)
loop_
_geom_bond_atom_site_label_1
_geom_bond_atom_site_label_2
_geom_bond_site_symmetry_1
_geom_bond_site_symmetry_2
Cd1 Br1 1_555 1_555
Br1 Cd1A 1_555 1_555
Br2 Cd1 1_555 1_555
O1 Cd1 1_555 1_555
H1 O1 1_555 1_555
H2 O1 1_555 1_555
N1 Cd1 1_555 1_555
N2 N3 1_555 1_555
N3 C7 1_555 1_555
N4 C6 1_555 1_555
N5 C8 1_555 1_555
N6 C15 1_555 1_555
C1 N1 1_555 1_555
H3 C1 1_555 1_555
C2 N1 1_555 1_555
H4 C2 1_555 1_555
C3 C2 1_555 1_555
H5 C3 1_555 1_555
C4 C3 1_555 1_555
H6 C4 1_555 1_555
C5 C1 1_555 1_555
C6 N2 1_555 1_555
C7 N4 1_555 1_555
C8 C7 1_555 1_555
C9 C8 1_555 1_555
H7 C9 1_555 1_555
C10 C9 1_555 1_555
H8 C10 1_555 1_555
C11 C10 1_555 1_555
H9 C11 1_555 1_555
C12 N5 1_555 1_555
H10 C12 1_555 1_555
C13 N4 1_555 1_555
C14 C13 1_555 1_555
H11 C14 1_555 1_555
C15 C14 1_555 1_555
H12 C15 1_555 1_555
C16 N6 1_555 1_555
H13 C16 1_555 1_555
C17 C13 1_555 1_555
H14 C17 1_555 1_555
Cd1A Br1A 1_555 1_555
Cd1A_2 N6 1_555 1_555
Br1A Cd1 1_555 1_555
N6A Cd1 1_555 1_555
C4 C5 1_555 1_555
C5 C6 1_555 1_555
C11 C12 1_555 1_555
C16 C17 1_555 1_555

#END
