
#######################################################################
#
#                 Cambridge Crystallographic Data Centre
#                                CCDC 
#
#######################################################################
#
# If this CIF has been generated from an entry in the Cambridge 
# Structural Database, then it will include bibliographic, chemical, 
# crystal, experimental, refinement or atomic coordinate data resulting 
# from the CCDC's data processing and validation procedures.
#
#######################################################################

data_TUMJUI
_symmetry_cell_setting           triclinic
_symmetry_space_group_name_H-M   'P -1'
_symmetry_Int_Tables_number      2
_space_group_name_Hall           '-P 1'
loop_
_symmetry_equiv_pos_site_id
_symmetry_equiv_pos_as_xyz
1 x,y,z
2 -x,-y,-z
_cell_length_a                   9.2087(3)
_cell_length_b                   7.0902(2)
_cell_length_c                   13.1114(4)
_cell_angle_alpha                89.964(2)
_cell_angle_beta                 90.365(2)
_cell_angle_gamma                89.998(2)
_cell_volume                     856.046
loop_
_atom_site_label
_atom_site_type_symbol
_atom_site_fract_x
_atom_site_fract_y
_atom_site_fract_z
O1 O 0.05199(14) 0.7499(2) 0.19692(11)
N1 N 0.7523(2) 0.5453(3) 0.14399(15)
N2 N 0.7524(2) 0.9547(3) 0.14396(15)
N3 N 0.8538(2) 0.5456(3) 0.34929(15)
N4 N 0.8538(2) 0.9541(3) 0.34920(15)
N5 N 0.22073(19) 0.7501(3) 0.07420(13)
C1 C 0.1802(2) 0.7498(3) 0.17099(15)
H1 H 0.157(2) 0.751(3) 0.0306(15)
H2 H 0.870(2) 0.915(3) 0.4114(19)
H3 H 0.793(3) 1.047(3) 0.3494(18)
H4 H 0.867(3) 0.585(3) 0.409(2)
H5 H 0.306(3) 0.747(3) 0.0559(18)
H6 H 0.791(3) 0.454(4) 0.3504(18)
H7 H 0.930(3) 0.996(4) 0.330(2)
H8 H 0.832(3) 1.002(4) 0.127(2)
H9 H 0.711(3) 0.918(4) 0.091(2)
H10 H 0.829(3) 0.497(4) 0.131(2)
H11 H 0.934(3) 0.501(3) 0.3294(19)
H12 H 0.710(3) 0.582(4) 0.089(2)
H13 H 0.697(3) 1.045(4) 0.171(2)
H14 H 0.704(3) 0.455(4) 0.172(2)
Cu1 Cu 0.79006(2) 0.74998(3) 0.249716(17)
N6 N 0.54869(17) 0.7502(2) 0.30240(12)
C2 C 0.4440(2) 0.7500(3) 0.23057(14)
H15 H 0.4719 0.7498 0.1625
C3 C 0.2567(2) 0.7499(3) 0.35387(15)
H16 H 0.1591 0.7497 0.3715
C4 C 0.3623(2) 0.7499(3) 0.42842(16)
H17 H 0.3373 0.7499 0.4971
C5 C 0.5065(2) 0.7497(3) 0.39920(15)
H18 H 0.5775 0.7493 0.4499
C6 C 0.29686(19) 0.7502(3) 0.25192(14)
O1_2 O 1.05199(14) 0.7499(2) 0.19692(11)
Cu1_2 Cu -0.20994(2) 0.74998(3) 0.249716(17)
Pd1 Pd 0.296115(14) 0.24998(2) 0.225920(10)
C7 C 0.4917(2) 0.2499(3) 0.29177(14)
C8 C 0.4022(2) 0.2502(3) 0.09388(15)
C9 C 0.1941(2) 0.2503(3) 0.36033(15)
N7 N -0.00034(19) 0.2502(3) 0.10611(14)
N8 N 0.1347(2) 0.2498(3) 0.43684(13)
N9 N 0.46929(19) 0.2502(3) 0.02076(13)
C10 C 0.1065(2) 0.2496(3) 0.15092(15)
N10 N 0.60999(18) 0.2499(2) 0.31959(13)
loop_
_geom_bond_atom_site_label_1
_geom_bond_atom_site_label_2
_geom_bond_site_symmetry_1
_geom_bond_site_symmetry_2
O1 C1 1_555 1_555
N1 H10 1_555 1_555
N2 H8 1_555 1_555
N3 H4 1_555 1_555
N4 H2 1_555 1_555
N5 C1 1_555 1_555
C1 C6 1_555 1_555
H1 N5 1_555 1_555
H3 N4 1_555 1_555
H5 N5 1_555 1_555
H6 N3 1_555 1_555
H7 N4 1_555 1_555
H9 N2 1_555 1_555
H11 N3 1_555 1_555
H12 N1 1_555 1_555
H13 N2 1_555 1_555
H14 N1 1_555 1_555
Cu1 N1 1_555 1_555
N6 Cu1 1_555 1_555
C2 N6 1_555 1_555
H15 C2 1_555 1_555
C3 H16 1_555 1_555
C4 C3 1_555 1_555
H17 C4 1_555 1_555
C5 N6 1_555 1_555
H18 C5 1_555 1_555
C6 C2 1_555 1_555
Pd1 C7 1_555 1_555
C7 N10 1_555 1_555
C8 Pd1 1_555 1_555
C9 Pd1 1_555 1_555
N7 C10 1_555 1_555
N8 C9 1_555 1_555
N9 C8 1_555 1_555
C10 Pd1 1_555 1_555
O1_2 Cu1 1_555 1_555
Cu1_2 O1 1_555 1_555
N2 Cu1 1_555 1_555
N3 Cu1 1_555 1_555
N4 Cu1 1_555 1_555
C3 C6 1_555 1_555
C4 C5 1_555 1_555

#END
