
#######################################################################
#
#                 Cambridge Crystallographic Data Centre
#                                CCDC 
#
#######################################################################
#
# If this CIF has been generated from an entry in the Cambridge 
# Structural Database, then it will include bibliographic, chemical, 
# crystal, experimental, refinement or atomic coordinate data resulting 
# from the CCDC's data processing and validation procedures.
#
#######################################################################

data_TUMKAP
_symmetry_cell_setting           monoclinic
_symmetry_space_group_name_H-M   'P 21'
_symmetry_Int_Tables_number      4
_space_group_name_Hall           'P 2yb'
loop_
_symmetry_equiv_pos_site_id
_symmetry_equiv_pos_as_xyz
1 x,y,z
2 -x,1/2+y,-z
_cell_length_a                   9.2056(3)
_cell_length_b                   7.2084(2)
_cell_length_c                   13.1211(4)
_cell_angle_alpha                90
_cell_angle_beta                 90.246(2)
_cell_angle_gamma                90
_cell_volume                     870.677
loop_
_atom_site_label
_atom_site_type_symbol
_atom_site_fract_x
_atom_site_fract_y
_atom_site_fract_z
Pt1 Pt 0.202757(14) 1.00012(9) 0.774587(10)
N1 N -0.1092(5) 0.998(4) 0.6796(4)
N2 N 0.0307(6) 0.977(4) 0.9798(4)
N3 N 0.4996(5) 1.006(5) 0.8921(5)
N4 N 0.3641(6) 0.993(5) 0.5649(4)
C1 C 0.0077(5) 1.002(4) 0.7085(4)
C2 C 0.0983(6) 0.996(3) 0.9070(4)
C3 C 0.3936(5) 0.998(4) 0.8485(4)
C4 C 0.3046(6) 0.993(5) 0.6404(4)
Cu1 Cu -0.28987(5) 0.4996(6) 0.75041(5)
O1 O 0.4479(4) 0.511(3) 0.8030(3)
N5 N -0.2557(16) 0.690(2) 0.8659(9)
H1 H -0.2653 0.8043 0.8411
H2 H -0.1665 0.6757 0.8911
H3 H -0.3205 0.6720 0.9150
N6 N -0.2546(16) 0.290(2) 0.8489(8)
H4 H -0.2247 0.3360 0.9083
H5 H -0.1869 0.2149 0.8240
H6 H -0.3367 0.2272 0.8579
N7 N -0.3455(13) 0.2970(19) 0.6515(8)
H7 H -0.3690 0.3471 0.5917
H8 H -0.4212 0.2344 0.6758
H9 H -0.2708 0.2201 0.6434
N8 N -0.3579(14) 0.7007(18) 0.6505(9)
H10 H -0.3429 0.8120 0.6778
H11 H -0.4521 0.6860 0.6375
H12 H -0.3081 0.6912 0.5927
N9 N -0.0467(4) 0.496(4) 0.6979(3)
N10 N 0.2802(4) 0.508(4) 0.9248(3)
H13 H 0.3442 0.5244 0.9719
H14 H 0.1899 0.4988 0.9403
C5 C -0.0052(6) 0.511(5) 0.6012(4)
H15 H -0.0762 0.5232 0.5510
C6 C 0.1389(6) 0.509(6) 0.5725(4)
H16 H 0.1648 0.5222 0.5044
C7 C 0.2450(6) 0.488(5) 0.6480(4)
H17 H 0.3414 0.4683 0.6303
C8 C 0.2053(4) 0.497(4) 0.7485(4)
C9 C 0.0580(5) 0.505(4) 0.7699(3)
H18 H 0.0299 0.5178 0.8376
C10 C 0.3202(5) 0.498(4) 0.8297(4)
Cu1_2 Cu 0.71013(5) 0.4996(6) 0.75041(5)
O1_2 O -0.5521(4) 0.511(3) 0.8030(3)
loop_
_geom_bond_atom_site_label_1
_geom_bond_atom_site_label_2
_geom_bond_site_symmetry_1
_geom_bond_site_symmetry_2
Pt1 C1 1_555 1_555
N1 C1 1_555 1_555
N2 C2 1_555 1_555
N3 C3 1_555 1_555
N4 C4 1_555 1_555
C2 Pt1 1_555 1_555
C3 Pt1 1_555 1_555
C4 Pt1 1_555 1_555
Cu1 N5 1_555 1_555
O1 C10 1_555 1_555
N5 H1 1_555 1_555
H2 N5 1_555 1_555
H3 N5 1_555 1_555
N6 Cu1 1_555 1_555
H4 N6 1_555 1_555
H5 N6 1_555 1_555
H6 N6 1_555 1_555
N7 Cu1 1_555 1_555
H7 N7 1_555 1_555
H8 N7 1_555 1_555
H9 N7 1_555 1_555
N8 Cu1 1_555 1_555
H10 N8 1_555 1_555
H11 N8 1_555 1_555
H12 N8 1_555 1_555
N9 Cu1 1_555 1_555
N10 H13 1_555 1_555
H14 N10 1_555 1_555
C5 N9 1_555 1_555
H15 C5 1_555 1_555
C6 C5 1_555 1_555
H16 C6 1_555 1_555
C7 C6 1_555 1_555
H17 C7 1_555 1_555
C8 C7 1_555 1_555
C9 N9 1_555 1_555
H18 C9 1_555 1_555
C10 N10 1_555 1_555
Cu1_2 O1 1_555 1_555
O1_2 Cu1 1_555 1_555
C8 C9 1_555 1_555
C8 C10 1_555 1_555

#END
