
#######################################################################
#
#                 Cambridge Crystallographic Data Centre
#                                CCDC 
#
#######################################################################
#
# If this CIF has been generated from an entry in the Cambridge 
# Structural Database, then it will include bibliographic, chemical, 
# crystal, experimental, refinement or atomic coordinate data resulting 
# from the CCDC's data processing and validation procedures.
#
#######################################################################

data_TUMKET
_symmetry_cell_setting           monoclinic
_symmetry_space_group_name_H-M   'C 2/c'
_symmetry_Int_Tables_number      15
_space_group_name_Hall           '-C 2yn'
loop_
_symmetry_equiv_pos_site_id
_symmetry_equiv_pos_as_xyz
1 x,y,z
2 -x,y,1/2-z
3 1/2+x,1/2+y,z
4 1/2-x,1/2+y,1/2-z
5 -x,-y,-z
6 x,-y,1/2+z
7 1/2-x,1/2-y,-z
8 1/2+x,1/2-y,1/2+z
_cell_length_a                   18.3864(5)
_cell_length_b                   10.2211(3)
_cell_length_c                   11.4849(3)
_cell_angle_alpha                90
_cell_angle_beta                 97.776(2)
_cell_angle_gamma                90
_cell_volume                     2138.5
loop_
_atom_site_label
_atom_site_type_symbol
_atom_site_fract_x
_atom_site_fract_y
_atom_site_fract_z
Pd1 Pd 0.0000 0.363553(14) 0.2500
Cu1 Cu 0.0000 -0.13808(2) 0.2500
O1 O -0.26922(7) -0.32050(13) -0.26726(10)
N1 N 0.11568(12) 0.37422(17) 0.47739(17)
N2 N 0.0000 0.6673(2) 0.2500
N3 N 0.0000 0.0577(2) 0.2500
N4 N -0.07224(9) -0.13626(17) 0.36496(15)
H1 H -0.0688(13) -0.070(3) 0.404(2)
H2 H -0.1189(16) -0.136(2) 0.333(2)
H3 H -0.0679(13) -0.197(2) 0.414(2)
N5 N -0.10050(8) -0.15299(14) 0.07775(12)
N6 N -0.28228(10) -0.10349(16) -0.29120(15)
H4 H -0.2722(12) -0.0267(17) -0.2728(18)
H5 H -0.3138(11) -0.111(2) -0.3475(17)
C1 C 0.07427(11) 0.36789(16) 0.39358(16)
C2 C 0.0000 0.5558(2) 0.2500
C3 C 0.0000 0.1689(2) 0.2500
C4 C -0.09992(9) -0.25826(17) 0.00932(14)
H6 H -0.0644 -0.3219 0.0303
C5 C -0.14898(8) -0.27789(16) -0.09061(13)
H7 H -0.1462 -0.3530 -0.1355
C6 C -0.20232(8) -0.18507(15) -0.12368(12)
C7 C -0.20483(8) -0.07592(17) -0.05219(13)
H8 H -0.2405 -0.0120 -0.0704
C8 C -0.15314(9) -0.06444(17) 0.04653(13)
H9 H -0.1551 0.0089 0.0939
C9 C -0.25481(8) -0.20836(19) -0.23387(13)
O1A O 0.26922(7) -0.32050(13) 0.76726(10)
N1A N -0.11568(12) 0.37422(17) 0.02261(17)
N4A N 0.07224(9) -0.13626(17) 0.13504(15)
H1A H 0.0688(13) -0.070(3) 0.096(2)
H2A H 0.1189(16) -0.136(2) 0.167(2)
H3A H 0.0679(13) -0.197(2) 0.086(2)
N5A N 0.10050(8) -0.15299(14) 0.42225(12)
N6A N 0.28228(10) -0.10349(16) 0.79120(15)
H4A H 0.2722(12) -0.0267(17) 0.7728(18)
H5A H 0.3138(11) -0.111(2) 0.8475(17)
C1A C -0.07427(11) 0.36789(16) 0.10642(16)
C4A C 0.09992(9) -0.25826(17) 0.49068(14)
H6A H 0.0644 -0.3219 0.4697
C5A C 0.14898(8) -0.27789(16) 0.59061(13)
H7A H 0.1462 -0.3530 0.6355
C6A C 0.20232(8) -0.18507(15) 0.62368(12)
C7A C 0.20483(8) -0.07592(17) 0.55219(13)
H8A H 0.2405 -0.0120 0.5704
C8A C 0.15314(9) -0.06444(17) 0.45347(13)
H9A H 0.1551 0.0089 0.4061
C9A C 0.25481(8) -0.20836(19) 0.73387(13)
Cu1_2 Cu 0.0000 0.86192(2) 0.2500
N2_2 N 0.0000 -0.3327(2) 0.2500
loop_
_geom_bond_atom_site_label_1
_geom_bond_atom_site_label_2
_geom_bond_site_symmetry_1
_geom_bond_site_symmetry_2
Pd1 C1 1_555 1_555
Cu1 N3 1_555 1_555
O1 C9 1_555 1_555
N1 C1 1_555 1_555
N2 C2 1_555 1_555
N3 C3 1_555 1_555
N4 Cu1 1_555 1_555
H1 N4 1_555 1_555
H2 N4 1_555 1_555
H3 N4 1_555 1_555
N5 Cu1 1_555 1_555
N6 H4 1_555 1_555
H5 N6 1_555 1_555
C2 Pd1 1_555 1_555
C3 Pd1 1_555 1_555
C4 N5 1_555 1_555
H6 C4 1_555 1_555
C5 C4 1_555 1_555
H7 C5 1_555 1_555
C6 C5 1_555 1_555
C7 C6 1_555 1_555
H8 C7 1_555 1_555
C8 N5 1_555 1_555
H9 C8 1_555 1_555
C9 N6 1_555 1_555
O1A C9A 1_555 1_555
N1A C1A 1_555 1_555
N4A Cu1 1_555 1_555
H1A N4A 1_555 1_555
H2A N4A 1_555 1_555
H3A N4A 1_555 1_555
N5A Cu1 1_555 1_555
N6A H4A 1_555 1_555
H5A N6A 1_555 1_555
C1A Pd1 1_555 1_555
C4A N5A 1_555 1_555
H6A C4A 1_555 1_555
C5A C4A 1_555 1_555
H7A C5A 1_555 1_555
C6A C5A 1_555 1_555
C7A C6A 1_555 1_555
H8A C7A 1_555 1_555
C8A N5A 1_555 1_555
H9A C8A 1_555 1_555
C9A N6A 1_555 1_555
Cu1_2 N2 1_555 1_555
N2_2 Cu1 1_555 1_555
C6 C9 1_555 1_555
C7 C8 1_555 1_555
C6A C9A 1_555 1_555
C7A C8A 1_555 1_555

#END
