
#######################################################################
#
#                 Cambridge Crystallographic Data Centre
#                                CCDC 
#
#######################################################################
#
# If this CIF has been generated from an entry in the Cambridge 
# Structural Database, then it will include bibliographic, chemical, 
# crystal, experimental, refinement or atomic coordinate data resulting 
# from the CCDC's data processing and validation procedures.
#
#######################################################################

data_TUMQEY
_symmetry_cell_setting           orthorhombic
_symmetry_space_group_name_H-M   'P b c m'
_symmetry_Int_Tables_number      57
_space_group_name_Hall           '-P 2c 2b'
loop_
_symmetry_equiv_pos_site_id
_symmetry_equiv_pos_as_xyz
1 x,y,z
2 -x,-y,1/2+z
3 -x,1/2+y,1/2-z
4 x,1/2-y,-z
5 -x,-y,-z
6 x,y,1/2-z
7 x,1/2-y,1/2+z
8 -x,1/2+y,z
_cell_length_a                   11.6669(6)
_cell_length_b                   11.1701(6)
_cell_length_c                   14.0370(6)
_cell_angle_alpha                90
_cell_angle_beta                 90
_cell_angle_gamma                90
_cell_volume                     1829.31
loop_
_atom_site_label
_atom_site_type_symbol
_atom_site_fract_x
_atom_site_fract_y
_atom_site_fract_z
Ni1 Ni 0.47680(3) 0.38647(3) 0.2500
N1 N 0.60593(15) 0.40339(14) 0.34413(12)
C1 C 0.34780(16) 0.27031(17) 0.39477(12)
C2 C 0.23868(15) 0.26242(17) 0.45113(12)
C3 C 0.13448(17) 0.27368(19) 0.40358(14)
H1 H 0.1341 0.2903 0.3387
C4 C 0.03148(16) 0.2606(2) 0.45146(17)
H2 H -0.0374 0.2659 0.4185
C5 C 0.6027(2) 0.40118(18) 0.43853(15)
H3 H 0.5342 0.3817 0.4687
C6 C 0.6990(2) 0.4272(2) 0.49404(17)
H4 H 0.6944 0.4237 0.5601
C7 C 0.7997(2) 0.4579(2) 0.45111(17)
H5 H 0.8636 0.4768 0.4878
C8 C 0.80636(18) 0.46082(18) 0.35129(17)
C9 C 0.70654(16) 0.43217(17) 0.30073(15)
C10 C 0.90825(18) 0.4904(2) 0.29808(19)
H6 H 0.9752 0.5098 0.3306
O1 O 0.35752(12) 0.36466(13) 0.34461(11)
O2 O 0.41759(13) 0.18677(13) 0.39852(10)
O3 O 0.4490(2) 0.60044(19) 0.2500
H7 H 0.488(2) 0.635(2) 0.1972(17)
Ni1C Ni 0.47680(3) 0.11353(3) 0.7500
N1E N 0.60593(15) 0.40339(14) 0.15587(12)
C1C C 0.34780(16) 0.22969(17) 0.60523(12)
C2C C 0.23868(15) 0.23758(17) 0.54887(12)
C3C C 0.13448(17) 0.22632(19) 0.59642(14)
H1C H 0.1341 0.2097 0.6613
C4C C 0.03148(16) 0.2394(2) 0.54854(17)
H2C H -0.0374 0.2341 0.5815
C5E C 0.6027(2) 0.40118(18) 0.06147(15)
H3E H 0.5342 0.3817 0.0313
C6E C 0.6990(2) 0.4272(2) 0.00596(17)
H4E H 0.6944 0.4237 -0.0601
C7E C 0.7997(2) 0.4579(2) 0.04889(17)
H5E H 0.8636 0.4768 0.0122
C8E C 0.80636(18) 0.46082(18) 0.14871(17)
C9E C 0.70654(16) 0.43217(17) 0.19927(15)
C10E C 0.90825(18) 0.4904(2) 0.20192(19)
H6E H 0.9752 0.5098 0.1694
O1C O 0.35752(12) 0.13534(13) 0.65539(11)
O1E O 0.35752(12) 0.36466(13) 0.15539(11)
O2C O 0.41759(13) 0.31323(13) 0.60148(10)
H7E H 0.488(2) 0.635(2) 0.3028(17)
O4 O 0.1960(4) 0.5654(6) 0.2500
H8 H 0.187(6) 0.552(7) 0.1908(18)
H8E H 0.187(6) 0.552(7) 0.3092(18)
loop_
_geom_bond_atom_site_label_1
_geom_bond_atom_site_label_2
_geom_bond_site_symmetry_1
_geom_bond_site_symmetry_2
Ni1 N1 1_555 1_555
N1 C5 1_555 1_555
C1 C2 1_555 1_555
C2 C3 1_555 1_555
C3 H1 1_555 1_555
C4 C3 1_555 1_555
H2 C4 1_555 1_555
C5 H3 1_555 1_555
C6 C5 1_555 1_555
H4 C6 1_555 1_555
C7 C6 1_555 1_555
H5 C7 1_555 1_555
C8 C7 1_555 1_555
C9 N1 1_555 1_555
C10 C8 1_555 1_555
H6 C10 1_555 1_555
O1 Ni1 1_555 1_555
O2 C1 1_555 1_555
O3 Ni1 1_555 1_555
H7 O3 1_555 1_555
O4 H8 1_555 1_555
Ni1C O1C 1_555 1_555
N1E Ni1 1_555 1_555
C1C C2C 1_555 1_555
C2C C2 1_555 1_555
C3C C2C 1_555 1_555
H1C C3C 1_555 1_555
C4C C4 1_555 1_555
H2C C4C 1_555 1_555
C5E N1E 1_555 1_555
H3E C5E 1_555 1_555
C6E C5E 1_555 1_555
H4E C6E 1_555 1_555
C7E C6E 1_555 1_555
H5E C7E 1_555 1_555
C8E C7E 1_555 1_555
C9E C9 1_555 1_555
C10E C10 1_555 1_555
H6E C10E 1_555 1_555
O1C C1C 1_555 1_555
O1E Ni1 1_555 1_555
O2C C1C 1_555 1_555
H7E O3 1_555 1_555
H8E O4 1_555 1_555
C1 O1 1_555 1_555
C8 C9 1_555 1_555
N1E C9E 1_555 1_555
C3C C4C 1_555 1_555
C8E C9E 1_555 1_555
C8E C10E 1_555 1_555

#END
