
#######################################################################
#
#                 Cambridge Crystallographic Data Centre
#                                CCDC 
#
#######################################################################
#
# If this CIF has been generated from an entry in the Cambridge 
# Structural Database, then it will include bibliographic, chemical, 
# crystal, experimental, refinement or atomic coordinate data resulting 
# from the CCDC's data processing and validation procedures.
#
#######################################################################

data_TUMTUQ
_symmetry_cell_setting           monoclinic
_symmetry_space_group_name_H-M   'P 21/c'
_symmetry_Int_Tables_number      14
_space_group_name_Hall           '-P 2ybc'
loop_
_symmetry_equiv_pos_site_id
_symmetry_equiv_pos_as_xyz
1 x,y,z
2 -x,1/2+y,1/2-z
3 -x,-y,-z
4 x,1/2-y,1/2+z
_cell_length_a                   9.215(2)
_cell_length_b                   7.427(2)
_cell_length_c                   9.881(3)
_cell_angle_alpha                90
_cell_angle_beta                 101.19(2)
_cell_angle_gamma                90
_cell_volume                     663.397
loop_
_atom_site_label
_atom_site_type_symbol
_atom_site_fract_x
_atom_site_fract_y
_atom_site_fract_z
P1 P 0.7942(1) 0.1320(1) 0.4130(1)
Fe1 Fe 1.0123(1) -0.1215(1) 0.2664(1)
O1 O 0.8623(2) -0.0408(3) 0.3670(2)
O2 O 0.6249(2) 0.1248(3) 0.3711(2)
O3 O 0.8503(3) 0.3001(3) 0.3488(2)
O4 O 0.8319(2) 0.1509(3) 0.5709(2)
F1 F 1.0631(2) 0.1293(2) 0.2239(2)
C1 C 0.6146(3) -0.1579(4) -0.0866(3)
C2 C 0.7049(3) -0.1861(4) 0.0587(3)
N1 N 0.8496(3) -0.0988(4) 0.0742(2)
N2 N 0.4923(3) -0.2910(4) -0.1200(3)
H1 H 0.622(6) 0.144(7) 0.462(3)
H2 H 0.679(1) -0.169(1) -0.153(1)
H3 H 0.574(1) -0.037(1) -0.094(1)
H4 H 0.652(1) -0.137(1) 0.126(1)
H5 H 0.718(1) -0.314(1) 0.077(1)
H6 H 0.833(1) 0.019(1) 0.058(1)
H7 H 0.893(1) -0.141(1) 0.006(1)
H8 H 0.440(5) -0.256(6) -0.198(3)
H9 H 0.516(5) -0.404(4) -0.121(5)
O3A O 1.1497(3) -0.1999(3) 0.1512(2)
F1A F 0.9369(2) -0.3707(2) 0.2761(2)
O4B O 1.1681(2) -0.1509(3) 0.4291(2)
Fe1A Fe 0.9877(1) 0.3785(1) 0.2336(1)
Fe1B Fe 0.9877(1) 0.1215(1) 0.7336(1)
loop_
_geom_bond_atom_site_label_1
_geom_bond_atom_site_label_2
_geom_bond_site_symmetry_1
_geom_bond_site_symmetry_2
P1 O1 1_555 1_555
Fe1 O1 1_555 1_555
O2 P1 1_555 1_555
O3 P1 1_555 1_555
O4 P1 1_555 1_555
F1 Fe1 1_555 1_555
C1 C2 1_555 1_555
C2 N1 1_555 1_555
N1 Fe1 1_555 1_555
N2 C1 1_555 1_555
H1 O2 1_555 1_555
H2 C1 1_555 1_555
H3 C1 1_555 1_555
H4 C2 1_555 1_555
H5 C2 1_555 1_555
H6 N1 1_555 1_555
H7 N1 1_555 1_555
H8 N2 1_555 1_555
H9 N2 1_555 1_555
O3A Fe1 1_555 1_555
F1A Fe1 1_555 1_555
O4B Fe1 1_555 1_555
Fe1A O3 1_555 1_555
Fe1B O4 1_555 1_555
F1 Fe1A 1_555 1_555

#END
