
#######################################################################
#
#                 Cambridge Crystallographic Data Centre
#                                CCDC 
#
#######################################################################
#
# If this CIF has been generated from an entry in the Cambridge 
# Structural Database, then it will include bibliographic, chemical, 
# crystal, experimental, refinement or atomic coordinate data resulting 
# from the CCDC's data processing and validation procedures.
#
#######################################################################

data_TUMVEE
_symmetry_cell_setting           triclinic
_symmetry_space_group_name_H-M   'P -1'
_symmetry_Int_Tables_number      2
_space_group_name_Hall           '-P 1'
loop_
_symmetry_equiv_pos_site_id
_symmetry_equiv_pos_as_xyz
1 x,y,z
2 -x,-y,-z
_cell_length_a                   6.435(5)
_cell_length_b                   15.164(5)
_cell_length_c                   16.001(5)
_cell_angle_alpha                93.073(5)
_cell_angle_beta                 96.179(5)
_cell_angle_gamma                97.677(5)
_cell_volume                     1534.73
loop_
_atom_site_label
_atom_site_type_symbol
_atom_site_fract_x
_atom_site_fract_y
_atom_site_fract_z
C1 C 0.6261(10) 0.4937(4) 0.2585(4)
C2 C 0.5459(10) 0.5827(4) 0.2465(4)
C3 C 0.6784(10) 0.6489(4) 0.2212(4)
H1 H 0.8116 0.6340 0.2145
C4 C 0.6533(13) 0.7395(4) 0.2022(4)
C5 C 0.8376(11) 0.7979(4) 0.1891(4)
H2 H 0.9662 0.7759 0.1921
C6 C 0.8323(11) 0.8862(4) 0.1722(4)
H3 H 0.9563 0.9226 0.1647
C7 C 0.6417(11) 0.9207(4) 0.1663(4)
C8 C 0.4592(11) 0.8647(5) 0.1786(4)
H4 H 0.3302 0.8864 0.1744
C9 C 0.4683(10) 0.7773(4) 0.1971(4)
H5 H 0.3443 0.7422 0.2066
C10 C 0.0641(11) 0.3968(4) 0.1271(4)
C11 C 0.2254(11) 0.4108(4) 0.0771(4)
H6 H 0.3647 0.4258 0.1012
C12 C 0.1758(12) 0.4018(5) -0.0105(4)
H7 H 0.2820 0.4108 -0.0456
C13 C -0.0324(12) 0.3796(5) -0.0445(4)
H8 H -0.0659 0.3748 -0.1027
C14 C -0.1921(11) 0.3644(5) 0.0066(4)
H9 H -0.3312 0.3482 -0.0173
C15 C -0.1434(11) 0.3735(4) 0.0939(4)
H10 H -0.2492 0.3640 0.1290
C16 C 0.1080(10) 0.4001(4) 0.3941(4)
C17 C 0.2932(11) 0.4054(4) 0.4501(4)
H11 H 0.4256 0.4183 0.4319
C18 C 0.2714(11) 0.3907(4) 0.5342(4)
H12 H 0.3915 0.3929 0.5727
C19 C 0.0761(11) 0.3732(4) 0.5610(4)
H13 H 0.0645 0.3641 0.6175
C20 C -0.1070(11) 0.3690(4) 0.5038(4)
H14 H -0.2397 0.3574 0.5221
C21 C -0.0880(11) 0.3822(4) 0.4197(4)
H15 H -0.2080 0.3789 0.3810
C22 C 0.4540(13) 0.1604(5) 0.3145(5)
H16 H 0.5655 0.2095 0.3279
H17 H 0.4547 0.1376 0.2574
H18 H 0.4751 0.1142 0.3519
C23 C 0.0424(12) 0.0935(5) 0.2977(5)
H19 H -0.1025 0.1012 0.3003
H20 H 0.0808 0.0503 0.3361
H21 H 0.0605 0.0732 0.2414
O1 O 0.4988(7) 0.4247(3) 0.2690(3)
O2 O 0.8182(7) 0.4930(3) 0.2572(3)
O3 O 0.6391(8) 1.0063(3) 0.1477(3)
O4 O 0.1673(9) 0.2548(3) 0.2523(3)
S1 S 0.2887(2) 0.59188(10) 0.27100(10)
S2 S 0.2069(3) 0.19748(12) 0.32600(11)
Pb1 Pb 0.14231(4) 0.424697(16) 0.263270(14)
H22 H 0.511(13) 1.016(5) 0.131(5)
O2_2 O -0.1818(7) 0.4930(3) 0.2572(3)
Pb1_2 Pb 1.14231(4) 0.424697(16) 0.263270(14)
C24 C -0.0186(11) 0.1477(5) 0.0579(5)
H23 H -0.1431 0.1052 0.0586
H24 H -0.0422 0.1873 0.0140
H25 H 0.0128 0.1815 0.1113
C25 C 0.3937(12) 0.1858(5) 0.0410(5)
H26 H 0.5261 0.1667 0.0316
H27 H 0.4079 0.2183 0.0950
H28 H 0.3528 0.2236 -0.0023
O5 O 0.2512(8) 0.0446(3) 0.1186(3)
S3 S 0.1969(3) 0.09063(11) 0.03880(11)
C26 C 0.5358(15) 0.1620(6) 0.5642(6)
H29 H 0.6656 0.1413 0.5534
H30 H 0.5536 0.1927 0.6191
H31 H 0.4978 0.2021 0.5225
C27 C 0.1242(14) 0.1301(6) 0.5822(5)
H32 H -0.0039 0.0897 0.5827
H33 H 0.1041 0.1716 0.5398
H34 H 0.1607 0.1621 0.6364
O6 O 0.2830(9) 0.0362(3) 0.4683(3)
S4 S 0.3313(3) 0.06884(13) 0.55975(12)
loop_
_geom_bond_atom_site_label_1
_geom_bond_atom_site_label_2
_geom_bond_site_symmetry_1
_geom_bond_site_symmetry_2
C1 C2 1_555 1_555
C2 C3 1_555 1_555
C3 H1 1_555 1_555
C4 C3 1_555 1_555
C5 C4 1_555 1_555
H2 C5 1_555 1_555
C6 C5 1_555 1_555
H3 C6 1_555 1_555
C7 C6 1_555 1_555
C8 C7 1_555 1_555
H4 C8 1_555 1_555
C9 C4 1_555 1_555
H5 C9 1_555 1_555
C10 C11 1_555 1_555
C11 H6 1_555 1_555
C12 C11 1_555 1_555
H7 C12 1_555 1_555
C13 C12 1_555 1_555
H8 C13 1_555 1_555
C14 C13 1_555 1_555
H9 C14 1_555 1_555
C15 C10 1_555 1_555
H10 C15 1_555 1_555
C16 C17 1_555 1_555
C17 H11 1_555 1_555
C18 C17 1_555 1_555
H12 C18 1_555 1_555
C19 C18 1_555 1_555
H13 C19 1_555 1_555
C20 C19 1_555 1_555
H14 C20 1_555 1_555
C21 C16 1_555 1_555
H15 C21 1_555 1_555
C22 H16 1_555 1_555
H17 C22 1_555 1_555
H18 C22 1_555 1_555
C23 H19 1_555 1_555
H20 C23 1_555 1_555
H21 C23 1_555 1_555
O1 C1 1_555 1_555
O2 C1 1_555 1_555
O3 C7 1_555 1_555
O4 S2 1_555 1_555
S1 C2 1_555 1_555
S2 C22 1_555 1_555
Pb1 C10 1_555 1_555
H22 O3 1_555 1_555
C24 H23 1_555 1_555
H24 C24 1_555 1_555
H25 C24 1_555 1_555
C25 H26 1_555 1_555
H27 C25 1_555 1_555
H28 C25 1_555 1_555
O5 S3 1_555 1_555
S3 C24 1_555 1_555
C26 H29 1_555 1_555
H30 C26 1_555 1_555
H31 C26 1_555 1_555
C27 H32 1_555 1_555
H33 C27 1_555 1_555
H34 C27 1_555 1_555
O6 S4 1_555 1_555
S4 C26 1_555 1_555
O2_2 Pb1 1_555 1_555
Pb1_2 O2 1_555 1_555
C8 C9 1_555 1_555
C14 C15 1_555 1_555
C16 Pb1 1_555 1_555
C20 C21 1_555 1_555
C23 S2 1_555 1_555
O1 Pb1 1_555 1_555
O4 Pb1 1_555 1_555
S1 Pb1 1_555 1_555
C25 S3 1_555 1_555
C27 S4 1_555 1_555

#END
