
#######################################################################
#
#                 Cambridge Crystallographic Data Centre
#                                CCDC 
#
#######################################################################
#
# If this CIF has been generated from an entry in the Cambridge 
# Structural Database, then it will include bibliographic, chemical, 
# crystal, experimental, refinement or atomic coordinate data resulting 
# from the CCDC's data processing and validation procedures.
#
#######################################################################

data_TUMVOO
_symmetry_cell_setting           monoclinic
_symmetry_space_group_name_H-M   'P 21/c'
_symmetry_Int_Tables_number      14
_space_group_name_Hall           '-P 2ybc'
loop_
_symmetry_equiv_pos_site_id
_symmetry_equiv_pos_as_xyz
1 x,y,z
2 -x,1/2+y,1/2-z
3 -x,-y,-z
4 x,1/2-y,1/2+z
_cell_length_a                   10.3691(3)
_cell_length_b                   19.8798(4)
_cell_length_c                   16.5489(4)
_cell_angle_alpha                90
_cell_angle_beta                 92.975(2)
_cell_angle_gamma                90
_cell_volume                     3406.72
loop_
_atom_site_label
_atom_site_type_symbol
_atom_site_fract_x
_atom_site_fract_y
_atom_site_fract_z
Br1 Br -0.27381(7) 0.57400(4) 0.44953(6)
Br2 Br -0.18052(9) 0.44000(5) 0.34896(5)
Br3 Br -0.06699(13) -0.11335(4) 0.36121(6)
Br4 Br -0.03735(19) 0.04632(5) 0.31202(6)
Co1 Co 0.13897(10) 0.25021(5) 0.39005(6)
O1 O 0.1299(6) 0.1631(3) 0.4463(4)
O2 O 0.0551(5) 0.3246(2) 0.4456(3)
N1 N 1.0854(5) 0.2692(3) 0.7737(3)
O3 O 0.1363(6) 0.3874(3) 0.3502(3)
O4 O -0.0829(7) 0.1736(3) 0.4444(4)
N2 N 0.3318(5) 0.2677(3) 0.3943(4)
C1 C 0.0099(8) 0.0684(4) 0.4782(4)
C2 C -0.0265(8) -0.0476(4) 0.4413(4)
N3 N 0.9756(5) 0.2755(3) 0.6575(3)
C3 C 0.0395(6) 0.4420(3) 0.4577(4)
C4 C -0.1144(6) 0.5321(3) 0.4778(4)
C5 C -0.0141(8) 0.0193(4) 0.4201(4)
N4 N 0.5364(6) 0.2732(4) 0.4321(4)
C6 C -0.0760(7) 0.4747(3) 0.4364(4)
C7 C 0.9696(6) 0.2600(3) 0.7363(4)
C8 C 0.0810(7) 0.3808(3) 0.4132(4)
C9 C 0.3934(10) 0.2204(6) 0.5297(6)
H1 H 0.3018 0.2190 0.5355
H2 H 0.4338 0.2453 0.5739
H3 H 0.4269 0.1754 0.5300
C10 C 0.7833(7) 0.3319(4) 0.5895(4)
C11 C 0.6779(7) 0.3318(4) 0.5347(5)
C12 C 0.5981(8) 0.3872(5) 0.5300(5)
H4 H 0.5264 0.3868 0.4938
C13 C 0.8699(7) 0.2695(4) 0.5961(5)
H5 H 0.8175 0.2308 0.6087
H6 H 0.9058 0.2613 0.5440
C14 C 1.0980(7) 0.2965(4) 0.6446(4)
H7 H 1.1295 0.3107 0.5959
C15 C 0.4204(7) 0.2533(4) 0.4530(5)
C16 C 0.3963(8) 0.2994(5) 0.3341(5)
H8 H 0.3578 0.3158 0.2860
C17 C 0.0165(8) 0.1415(4) 0.4540(4)
C18 C 0.6223(8) 0.4434(4) 0.5776(5)
H9 H 0.5656 0.4797 0.5747
C19 C 0.6566(8) 0.2711(5) 0.4811(6)
H10 H 0.7279 0.2675 0.4456
H11 H 0.6572 0.2311 0.5146
C20 C 1.1637(7) 0.2927(4) 0.7159(4)
H12 H 1.2501 0.3043 0.7250
C21 C 0.8530(7) 0.2361(5) 0.7743(5)
H13 H 0.8768 0.2164 0.8259
H14 H 0.8104 0.2031 0.7401
H15 H 0.7958 0.2733 0.7817
C22 C 0.7297(9) 0.4454(4) 0.6293(6)
H16 H 0.7490 0.4838 0.6596
C23 C 0.8102(9) 0.3890(4) 0.6358(5)
H17 H 0.8824 0.3897 0.6715
C24 C 0.5221(8) 0.3032(6) 0.3551(6)
H18 H 0.5867 0.3217 0.3252
Br1B Br 0.27381(7) 0.42600(4) 0.55047(6)
Br2B Br 0.18052(9) 0.56000(5) 0.65104(5)
O2B O -0.0551(5) 0.6754(2) 0.5544(3)
O3B O -0.1363(6) 0.6126(3) 0.6498(3)
C3B C -0.0395(6) 0.5580(3) 0.5423(4)
C4B C 0.1144(6) 0.4679(3) 0.5222(4)
C6B C 0.0760(7) 0.5253(3) 0.5636(4)
C8B C -0.0810(7) 0.6192(3) 0.5868(4)
Br3B Br 0.06699(13) 0.11335(4) 0.63879(6)
Br4B Br 0.03735(19) -0.04632(5) 0.68798(6)
O1B O -0.1299(6) -0.1631(3) 0.5537(4)
O4B O 0.0829(7) -0.1736(3) 0.5556(4)
C1B C -0.0099(8) -0.0684(4) 0.5218(4)
C2B C 0.0265(8) 0.0476(4) 0.5587(4)
C5B C 0.0141(8) -0.0193(4) 0.5799(4)
C17B C -0.0165(8) -0.1415(4) 0.5460(4)
Co1B Co -0.13897(10) -0.25021(5) 0.60995(6)
N1B N -1.0854(5) -0.2692(3) 0.2263(3)
N2B N -0.3318(5) -0.2677(3) 0.6057(4)
N3B N -0.9756(5) -0.2755(3) 0.3425(3)
N4B N -0.5364(6) -0.2732(4) 0.5679(4)
C7B C -0.9696(6) -0.2600(3) 0.2637(4)
C9B C -0.3934(10) -0.2204(6) 0.4703(6)
H1B H -0.3018 -0.2190 0.4645
H2B H -0.4338 -0.2453 0.4261
H3B H -0.4269 -0.1754 0.4700
C10B C -0.7833(7) -0.3319(4) 0.4105(4)
C11B C -0.6779(7) -0.3318(4) 0.4653(5)
C12B C -0.5981(8) -0.3872(5) 0.4700(5)
H4B H -0.5264 -0.3868 0.5062
C13B C -0.8699(7) -0.2695(4) 0.4039(5)
H5B H -0.8175 -0.2308 0.3913
H6B H -0.9058 -0.2613 0.4560
C14B C -1.0980(7) -0.2965(4) 0.3554(4)
H7B H -1.1295 -0.3107 0.4041
C15B C -0.4204(7) -0.2533(4) 0.5470(5)
C16B C -0.3963(8) -0.2994(5) 0.6659(5)
H8B H -0.3578 -0.3158 0.7140
C18B C -0.6223(8) -0.4434(4) 0.4224(5)
H9B H -0.5656 -0.4797 0.4253
C19B C -0.6566(8) -0.2711(5) 0.5189(6)
H10B H -0.7279 -0.2675 0.5544
H11B H -0.6572 -0.2311 0.4854
C20B C -1.1637(7) -0.2927(4) 0.2841(4)
H12B H -1.2501 -0.3043 0.2750
C21B C -0.8530(7) -0.2361(5) 0.2257(5)
H13B H -0.8768 -0.2164 0.1741
H14B H -0.8104 -0.2031 0.2599
H15B H -0.7958 -0.2733 0.2183
C22B C -0.7297(9) -0.4454(4) 0.3707(6)
H16B H -0.7490 -0.4838 0.3404
C23B C -0.8102(9) -0.3890(4) 0.3642(5)
H17B H -0.8824 -0.3897 0.3285
C24B C -0.5221(8) -0.3032(6) 0.6449(6)
H18B H -0.5867 -0.3217 0.6748
Co1A Co -1.13897(10) -0.24979(5) 0.10995(6)
Co1B_2 Co -0.13897(10) 0.74979(5) 0.60995(6)
Co1C Co 1.13897(10) 0.24979(5) 0.89005(6)
O2B_2 O -0.0551(5) -0.3246(2) 0.5544(3)
N1A N -0.0854(5) -0.2308(3) 0.7263(3)
N1C N 0.0854(5) 0.2308(3) 0.2737(3)
loop_
_geom_bond_atom_site_label_1
_geom_bond_atom_site_label_2
_geom_bond_site_symmetry_1
_geom_bond_site_symmetry_2
Br1 C4 1_555 1_555
Br2 C6 1_555 1_555
Br3 C2 1_555 1_555
Br4 C5 1_555 1_555
Co1 O1 1_555 1_555
O1 C17 1_555 1_555
O2 Co1 1_555 1_555
N1 C7 1_555 1_555
O3 C8 1_555 1_555
O4 C17 1_555 1_555
N2 Co1 1_555 1_555
C1 C5 1_555 1_555
C2 C5 1_555 1_555
N3 C7 1_555 1_555
C3 C6 1_555 1_555
C4 C6 1_555 1_555
N4 C15 1_555 1_555
C7 C21 1_555 1_555
C8 O2 1_555 1_555
C9 H1 1_555 1_555
H2 C9 1_555 1_555
H3 C9 1_555 1_555
C10 C11 1_555 1_555
C11 C12 1_555 1_555
C12 H4 1_555 1_555
C13 N3 1_555 1_555
H5 C13 1_555 1_555
H6 C13 1_555 1_555
C14 N3 1_555 1_555
H7 C14 1_555 1_555
C15 N2 1_555 1_555
C16 N2 1_555 1_555
H8 C16 1_555 1_555
C17 C1 1_555 1_555
C18 C12 1_555 1_555
H9 C18 1_555 1_555
C19 N4 1_555 1_555
H10 C19 1_555 1_555
H11 C19 1_555 1_555
C20 N1 1_555 1_555
H12 C20 1_555 1_555
C21 H13 1_555 1_555
H14 C21 1_555 1_555
H15 C21 1_555 1_555
C22 C18 1_555 1_555
H16 C22 1_555 1_555
C23 C10 1_555 1_555
H17 C23 1_555 1_555
C24 N4 1_555 1_555
H18 C24 1_555 1_555
Br1B C4B 1_555 1_555
Br2B C6B 1_555 1_555
O2B C8B 1_555 1_555
O3B C8B 1_555 1_555
C3B C4 1_555 1_555
C4B C3 1_555 1_555
C6B C3B 1_555 1_555
C8B C3B 1_555 1_555
Br3B C2B 1_555 1_555
Br4B C5B 1_555 1_555
O1B C17B 1_555 1_555
O4B C17B 1_555 1_555
C1B C2 1_555 1_555
C2B C1 1_555 1_555
C5B C1B 1_555 1_555
C17B C1B 1_555 1_555
Co1B O1B 1_555 1_555
N1B C7B 1_555 1_555
N2B Co1B 1_555 1_555
N3B C7B 1_555 1_555
N4B C15B 1_555 1_555
C7B C21B 1_555 1_555
C9B H1B 1_555 1_555
H2B C9B 1_555 1_555
H3B C9B 1_555 1_555
C10B C11B 1_555 1_555
C11B C12B 1_555 1_555
C12B H4B 1_555 1_555
C13B N3B 1_555 1_555
H5B C13B 1_555 1_555
H6B C13B 1_555 1_555
C14B N3B 1_555 1_555
H7B C14B 1_555 1_555
C15B N2B 1_555 1_555
C16B N2B 1_555 1_555
H8B C16B 1_555 1_555
C18B C12B 1_555 1_555
H9B C18B 1_555 1_555
C19B N4B 1_555 1_555
H10B C19B 1_555 1_555
H11B C19B 1_555 1_555
C20B N1B 1_555 1_555
H12B C20B 1_555 1_555
C21B H13B 1_555 1_555
H14B C21B 1_555 1_555
H15B C21B 1_555 1_555
C22B C18B 1_555 1_555
H16B C22B 1_555 1_555
C23B C10B 1_555 1_555
H17B C23B 1_555 1_555
C24B N4B 1_555 1_555
H18B C24B 1_555 1_555
Co1A N1B 1_555 1_555
Co1B_2 O2B 1_555 1_555
Co1C N1 1_555 1_555
O2B_2 Co1B 1_555 1_555
N1A Co1B 1_555 1_555
N1C Co1 1_555 1_555
C3 C8 1_555 1_555
C9 C15 1_555 1_555
C10 C13 1_555 1_555
C11 C19 1_555 1_555
C14 C20 1_555 1_555
C16 C24 1_555 1_555
C22 C23 1_555 1_555
C4B C6B 1_555 1_555
C2B C5B 1_555 1_555
C9B C15B 1_555 1_555
C10B C13B 1_555 1_555
C11B C19B 1_555 1_555
C14B C20B 1_555 1_555
C16B C24B 1_555 1_555
C22B C23B 1_555 1_555

#END
