
#######################################################################
#
#                 Cambridge Crystallographic Data Centre
#                                CCDC 
#
#######################################################################
#
# If this CIF has been generated from an entry in the Cambridge 
# Structural Database, then it will include bibliographic, chemical, 
# crystal, experimental, refinement or atomic coordinate data resulting 
# from the CCDC's data processing and validation procedures.
#
#######################################################################

data_TUMVEC
_symmetry_cell_setting           monoclinic
_symmetry_space_group_name_H-M   'P 21/c'
_symmetry_Int_Tables_number      14
_space_group_name_Hall           '-P 2ybc'
loop_
_symmetry_equiv_pos_site_id
_symmetry_equiv_pos_as_xyz
1 x,y,z
2 -x,1/2+y,1/2-z
3 -x,-y,-z
4 x,1/2-y,1/2+z
_cell_length_a                   13.528(5)
_cell_length_b                   26.002(4)
_cell_length_c                   15.421(3)
_cell_angle_alpha                90
_cell_angle_beta                 103.26(3)
_cell_angle_gamma                90
_cell_volume                     5279.8
loop_
_atom_site_label
_atom_site_type_symbol
_atom_site_fract_x
_atom_site_fract_y
_atom_site_fract_z
Sc1 Sc 0.7073(2) 0.03725(6) 0.5400(1)
Sc2 Sc 0.4685(2) 0.05138(7) 0.4276(1)
Sc3 Sc 0.2392(2) 0.04708(7) 0.2816(1)
S1 S 0.1707(2) -0.0178(1) 0.0883(2)
S2 S 0.2948(3) 0.0223(1) -0.0757(2)
S3 S 0.8911(2) 0.0151(1) 0.4208(2)
O1 O 0.5515(5) 0.0319(2) 0.5618(3)
O3 O 0.3914(5) 0.0549(3) 0.2958(4)
O6 O 0.6853(5) -0.0436(2) 0.5619(4)
O8 O 0.6116(5) 0.0421(2) 0.4144(4)
O9 O 0.7827(6) 0.0234(2) 0.6709(4)
O11 O 0.0754(6) 0.0433(3) 0.2281(5)
O12 O 0.2023(6) 0.1180(3) 0.3308(4)
O13 O 0.7111(6) 0.1109(2) 0.5843(4)
O14 O 0.4665(6) 0.1277(2) 0.4582(5)
O16 O 0.2510(6) 0.0068(2) 0.1620(4)
O17 O 0.2177(7) 0.0005(3) -0.1522(4)
O18 O 0.8338(5) 0.0218(3) 0.4943(4)
O19 O 0.2188(8) 0.1425(3) 0.4998(5)
O20 O 0.1486(7) 0.2143(3) 0.5161(5)
O21 O 0.2246(9) 0.3564(3) 0.3442(5)
O22 O 0.1986(8) 0.3458(3) 0.2031(5)
O23 O 0.2314(6) 0.1104(2) 0.1699(4)
O24 O 0.2288(7) 0.1778(3) 0.0924(4)
O25 O 0.7647(8) 0.1267(3) 0.4352(5)
O26 O 0.742(1) 0.2019(4) 0.3774(5)
O27 O 0.684(1) 0.3417(3) 0.6769(6)
O28 O 0.6857(9) 0.3477(3) 0.5379(7)
O29 O 0.6607(8) 0.1752(4) 0.8024(5)
O30 O 0.7568(9) 0.1180(3) 0.7666(5)
O31 O 0.5491(7) 0.1403(3) 0.3151(5)
O32 O 0.451(1) 0.1920(4) 0.2308(5)
O33 O 0.4645(9) 0.3628(3) 0.3784(6)
O34 O 0.4430(8) 0.3641(3) 0.5127(6)
O35 O 0.4852(8) 0.1450(4) 0.6334(5)
O36 O 0.3892(8) 0.2045(4) 0.6536(5)
N1 N 0.1883(7) 0.1855(3) 0.4726(5)
N2 N 0.2097(8) 0.3296(3) 0.2782(6)
N3 N 0.2247(7) 0.1578(3) 0.1615(5)
N4 N 0.7431(8) 0.1728(3) 0.4371(6)
N5 N 0.6898(8) 0.3230(3) 0.6056(7)
N6 N 0.7080(8) 0.1569(4) 0.7516(5)
N7 N 0.4929(8) 0.1783(4) 0.3023(5)
N8 N 0.4547(9) 0.3425(4) 0.4447(7)
N9 N 0.4381(8) 0.1831(3) 0.6084(5)
C1 C 0.2060(8) 0.1658(4) 0.3176(6)
C2 C 0.1979(9) 0.2031(4) 0.3851(6)
C3 C 0.2012(9) 0.2544(4) 0.3748(6)
C4 C 0.2088(9) 0.2741(4) 0.2913(6)
C5 C 0.2156(9) 0.2414(4) 0.2237(6)
C6 C 0.2152(8) 0.1890(4) 0.2374(6)
C7 C 0.7148(9) 0.1595(4) 0.5916(6)
C8 C 0.7216(9) 0.1930(4) 0.5200(6)
C9 C 0.7157(9) 0.2460(4) 0.5241(6)
C10 C 0.7042(9) 0.2664(4) 0.6021(7)
C11 C 0.7005(9) 0.2380(4) 0.6753(6)
C12 C 0.7101(9) 0.1863(4) 0.6711(6)
C13 C 0.4659(9) 0.1772(4) 0.4541(6)
C14 C 0.4729(9) 0.2067(4) 0.3797(6)
C15 C 0.4691(9) 0.2592(4) 0.3743(7)
C16 C 0.4561(9) 0.2854(4) 0.4481(7)
C17 C 0.4443(9) 0.2611(4) 0.5242(6)
C18 C 0.4501(9) 0.2082(4) 0.5266(6)
C25 C 0.133(1) 0.0332(4) 0.0072(7)
C26 C 0.226(1) 0.0602(4) -0.0122(7)
C27 C 0.333(1) -0.0298(4) 0.0059(7)
C28 C 0.2416(9) -0.0569(4) 0.0283(7)
C29 C 1.0006(9) 0.0550(4) 0.4567(6)
C30 C 0.9465(9) -0.0477(4) 0.4461(6)
O1B O 0.4485(5) -0.0319(2) 0.4382(3)
Sc1B Sc 0.2927(2) -0.03725(6) 0.4600(1)
O6B O 0.3147(5) 0.0436(2) 0.4381(4)
O9B O 0.2173(6) -0.0234(2) 0.3291(4)
O8B O 0.3884(5) -0.0421(2) 0.5856(4)
Sc2B Sc 0.5315(2) -0.05138(7) 0.5724(1)
O3B O 0.6086(5) -0.0549(3) 0.7042(4)
Sc3B Sc 0.7608(2) -0.04708(7) 0.7184(1)
O11B O 0.9246(6) -0.0433(3) 0.7719(5)
O12B O 0.7977(6) -0.1180(3) 0.6692(4)
C1B C 0.7940(8) -0.1658(4) 0.6824(6)
C2B C 0.8021(9) -0.2031(4) 0.6149(6)
N1B N 0.8117(7) -0.1855(3) 0.5274(5)
O19B O 0.7812(8) -0.1425(3) 0.5002(5)
O20B O 0.8514(7) -0.2143(3) 0.4839(5)
C3B C 0.7988(9) -0.2544(4) 0.6252(6)
C4B C 0.7912(9) -0.2741(4) 0.7087(6)
N2B N 0.7903(8) -0.3296(3) 0.7218(6)
O21B O 0.7754(9) -0.3564(3) 0.6558(5)
O22B O 0.8014(8) -0.3458(3) 0.7969(5)
C5B C 0.7844(9) -0.2414(4) 0.7763(6)
C6B C 0.7848(8) -0.1890(4) 0.7626(6)
N3B N 0.7753(7) -0.1578(3) 0.8385(5)
O23B O 0.7686(6) -0.1104(2) 0.8301(4)
O16B O 0.7490(6) -0.0068(2) 0.8380(4)
S1B S 0.8293(2) 0.0178(1) 0.9117(2)
C25B C 0.867(1) -0.0332(4) 0.9928(7)
C26B C 0.774(1) -0.0602(4) 1.0122(7)
S2B S 0.7052(3) -0.0223(1) 1.0757(2)
O17B O 0.7823(7) -0.0005(3) 1.1522(4)
C27B C 0.667(1) 0.0298(4) 0.9941(7)
C28B C 0.7584(9) 0.0569(4) 0.9717(7)
O24B O 0.7712(7) -0.1778(3) 0.9076(4)
C30B C 1.0535(9) 0.0477(4) 0.5539(6)
S3B S 1.1089(2) -0.0151(1) 0.5792(2)
O18B O 1.1662(5) -0.0218(3) 0.5057(4)
Sc1B_2 Sc 1.2927(2) -0.03725(6) 0.4600(1)
C29B C 0.9994(9) -0.0550(4) 0.5433(6)
O14B O 0.5335(6) -0.1277(2) 0.5418(5)
C13B C 0.5341(9) -0.1772(4) 0.5459(6)
C14B C 0.5271(9) -0.2067(4) 0.6203(6)
N7B N 0.5071(8) -0.1783(4) 0.6977(5)
O31B O 0.4509(7) -0.1403(3) 0.6849(5)
O32B O 0.549(1) -0.1920(4) 0.7692(5)
C15B C 0.5309(9) -0.2592(4) 0.6257(7)
C16B C 0.5439(9) -0.2854(4) 0.5519(7)
N8B N 0.5453(9) -0.3425(4) 0.5553(7)
O33B O 0.5355(9) -0.3628(3) 0.6216(6)
O34B O 0.5570(8) -0.3641(3) 0.4873(6)
C17B C 0.5557(9) -0.2611(4) 0.4758(6)
C18B C 0.5499(9) -0.2082(4) 0.4734(6)
N9B N 0.5619(8) -0.1831(3) 0.3916(5)
O35B O 0.5148(8) -0.1450(4) 0.3666(5)
O36B O 0.6108(8) -0.2045(4) 0.3464(5)
O13B O 0.2889(6) -0.1109(2) 0.4157(4)
C7B C 0.2852(9) -0.1595(4) 0.4084(6)
C8B C 0.2784(9) -0.1930(4) 0.4800(6)
N4B N 0.2569(8) -0.1728(3) 0.5629(6)
O25B O 0.2353(8) -0.1267(3) 0.5648(5)
O26B O 0.258(1) -0.2019(4) 0.6226(5)
C9B C 0.2843(9) -0.2460(4) 0.4759(6)
C10B C 0.2958(9) -0.2664(4) 0.3979(7)
N5B N 0.3102(8) -0.3230(3) 0.3944(7)
O27B O 0.316(1) -0.3417(3) 0.3231(6)
O28B O 0.3143(9) -0.3477(3) 0.4621(7)
C11B C 0.2995(9) -0.2380(4) 0.3247(6)
C12B C 0.2899(9) -0.1863(4) 0.3289(6)
N6B N 0.2920(8) -0.1569(4) 0.2484(5)
O29B O 0.3393(8) -0.1752(4) 0.1976(5)
O30B O 0.2432(9) -0.1180(3) 0.2334(5)
O18B_2 O 0.1662(5) -0.0218(3) 0.5057(4)
O2 O 0.4899(7) 0.0543(3) 0.1546(5)
O4 O 0.521(1) 0.0551(4) 0.7358(7)
O5 O 0.297(2) 0.0625(8) 0.642(1)
O7 O 0.6846(6) 0.0554(3) 0.2601(4)
O10 O 0.0327(7) 0.0418(3) 0.7672(6)
O15 O 0.9709(6) 0.3881(3) 0.6177(5)
O37 O 0.9021(7) 0.3876(3) 0.7713(5)
O38 O 0.9756(7) 0.3266(3) 0.8590(5)
O39 O 0.9544(7) 0.1494(3) 0.5911(6)
O40 O 0.9794(8) 0.1580(3) 0.7357(6)
O41 O 0.907(1) 0.3007(5) 0.4046(6)
O42 O 1.005(1) 0.3584(5) 0.4564(7)
N10 N 0.9439(7) 0.3459(3) 0.7846(6)
N11 N 0.9646(8) 0.1753(3) 0.6590(7)
N12 N 0.9602(9) 0.3238(4) 0.4678(6)
C19 C 0.9617(9) 0.3401(4) 0.6278(7)
C20 C 0.9547(9) 0.3147(4) 0.7073(6)
C21 C 0.958(1) 0.2620(4) 0.7202(7)
C22 C 0.9603(9) 0.2311(4) 0.6468(6)
C23 C 0.9590(9) 0.2516(4) 0.5646(6)
C24 C 0.9606(9) 0.3040(4) 0.5564(7)
loop_
_geom_bond_atom_site_label_1
_geom_bond_atom_site_label_2
_geom_bond_site_symmetry_1
_geom_bond_site_symmetry_2
Sc1 O1 1_555 1_555
Sc2 O1 1_555 1_555
Sc3 O3 1_555 1_555
S1 O16 1_555 1_555
S2 O17 1_555 1_555
S3 O18 1_555 1_555
O1 Sc2B 1_555 1_555
O3 Sc2 1_555 1_555
O6 Sc1 1_555 1_555
O8 Sc1 1_555 1_555
O9 Sc1 1_555 1_555
O11 Sc3 1_555 1_555
O12 Sc3 1_555 1_555
O13 Sc1 1_555 1_555
O14 Sc2 1_555 1_555
O15 C19 1_555 1_555
O16 Sc3 1_555 1_555
O18 Sc1 1_555 1_555
O19 N1 1_555 1_555
O20 N1 1_555 1_555
O21 N2 1_555 1_555
O22 N2 1_555 1_555
O23 Sc3 1_555 1_555
O24 N3 1_555 1_555
O25 N4 1_555 1_555
O26 N4 1_555 1_555
O27 N5 1_555 1_555
O28 N5 1_555 1_555
O29 N6 1_555 1_555
O30 N6 1_555 1_555
O31 N7 1_555 1_555
O32 N7 1_555 1_555
O33 N8 1_555 1_555
O34 N8 1_555 1_555
O35 N9 1_555 1_555
O36 N9 1_555 1_555
O37 N10 1_555 1_555
O38 N10 1_555 1_555
O39 N11 1_555 1_555
O40 N11 1_555 1_555
O41 N12 1_555 1_555
O42 N12 1_555 1_555
N1 C2 1_555 1_555
N2 C4 1_555 1_555
N3 O23 1_555 1_555
N4 C8 1_555 1_555
N5 C10 1_555 1_555
N6 C12 1_555 1_555
N7 C14 1_555 1_555
N8 C16 1_555 1_555
N9 C18 1_555 1_555
N10 C20 1_555 1_555
N11 C22 1_555 1_555
N12 C24 1_555 1_555
C1 O12 1_555 1_555
C2 C1 1_555 1_555
C3 C2 1_555 1_555
C4 C3 1_555 1_555
C5 C4 1_555 1_555
C6 N3 1_555 1_555
C7 O13 1_555 1_555
C8 C7 1_555 1_555
C9 C8 1_555 1_555
C10 C9 1_555 1_555
C11 C10 1_555 1_555
C12 C7 1_555 1_555
C13 O14 1_555 1_555
C14 C13 1_555 1_555
C15 C14 1_555 1_555
C16 C15 1_555 1_555
C17 C16 1_555 1_555
C18 C13 1_555 1_555
C19 C20 1_555 1_555
C20 C21 1_555 1_555
C21 C22 1_555 1_555
C22 C23 1_555 1_555
C23 C24 1_555 1_555
C24 C19 1_555 1_555
C25 S1 1_555 1_555
C26 S2 1_555 1_555
C27 S2 1_555 1_555
C28 S1 1_555 1_555
C29 S3 1_555 1_555
C30 S3 1_555 1_555
O1B Sc2 1_555 1_555
Sc1B O1B 1_555 1_555
O6B Sc2 1_555 1_555
O9B Sc3 1_555 1_555
O8B Sc1B 1_555 1_555
Sc2B O6 1_555 1_555
O3B Sc2B 1_555 1_555
Sc3B O6 1_555 1_555
O11B Sc3B 1_555 1_555
O12B Sc3B 1_555 1_555
C1B O12B 1_555 1_555
C2B C1B 1_555 1_555
N1B C2B 1_555 1_555
O19B N1B 1_555 1_555
O20B N1B 1_555 1_555
C3B C2B 1_555 1_555
C4B C3B 1_555 1_555
N2B C4B 1_555 1_555
O21B N2B 1_555 1_555
O22B N2B 1_555 1_555
C5B C4B 1_555 1_555
C6B C1B 1_555 1_555
N3B C6B 1_555 1_555
O23B Sc3B 1_555 1_555
O16B Sc3B 1_555 1_555
S1B O16B 1_555 1_555
C25B S1B 1_555 1_555
C26B C25B 1_555 1_555
S2B C26B 1_555 1_555
O17B S2B 1_555 1_555
C27B S2B 1_555 1_555
C28B S1B 1_555 1_555
O24B N3B 1_555 1_555
C30B C29 1_555 1_555
S3B C30B 1_555 1_555
O18B S3B 1_555 1_555
Sc1B_2 O18B 1_555 1_555
C29B C30 1_555 1_555
O14B Sc2B 1_555 1_555
C13B O14B 1_555 1_555
C14B C13B 1_555 1_555
N7B C14B 1_555 1_555
O31B N7B 1_555 1_555
O32B N7B 1_555 1_555
C15B C14B 1_555 1_555
C16B C15B 1_555 1_555
N8B C16B 1_555 1_555
O33B N8B 1_555 1_555
O34B N8B 1_555 1_555
C17B C16B 1_555 1_555
C18B C13B 1_555 1_555
N9B C18B 1_555 1_555
O35B N9B 1_555 1_555
O36B N9B 1_555 1_555
O13B Sc1B 1_555 1_555
C7B O13B 1_555 1_555
C8B C7B 1_555 1_555
N4B C8B 1_555 1_555
O25B N4B 1_555 1_555
O26B N4B 1_555 1_555
C9B C8B 1_555 1_555
C10B C9B 1_555 1_555
N5B C10B 1_555 1_555
O27B N5B 1_555 1_555
O28B N5B 1_555 1_555
C11B C10B 1_555 1_555
C12B C7B 1_555 1_555
N6B C12B 1_555 1_555
O29B N6B 1_555 1_555
O30B N6B 1_555 1_555
O18B_2 Sc1B 1_555 1_555
Sc2 O8 1_555 1_555
Sc3 O6B 1_555 1_555
O9 Sc3B 1_555 1_555
C1 C6 1_555 1_555
C5 C6 1_555 1_555
C11 C12 1_555 1_555
C17 C18 1_555 1_555
C25 C26 1_555 1_555
C27 C28 1_555 1_555
O1B Sc2B 1_555 1_555
Sc1B O6B 1_555 1_555
Sc1B O9B 1_555 1_555
O8B Sc2B 1_555 1_555
O3B Sc3B 1_555 1_555
C5B C6B 1_555 1_555
N3B O23B 1_555 1_555
C27B C28B 1_555 1_555
S3B C29B 1_555 1_555
C17B C18B 1_555 1_555
C11B C12B 1_555 1_555

#END
