
#######################################################################
#
#                 Cambridge Crystallographic Data Centre
#                                CCDC 
#
#######################################################################
#
# If this CIF has been generated from an entry in the Cambridge 
# Structural Database, then it will include bibliographic, chemical, 
# crystal, experimental, refinement or atomic coordinate data resulting 
# from the CCDC's data processing and validation procedures.
#
#######################################################################

data_TUMVII
_symmetry_cell_setting           monoclinic
_symmetry_space_group_name_H-M   'P 21/c'
_symmetry_Int_Tables_number      14
_space_group_name_Hall           '-P 2ybc'
loop_
_symmetry_equiv_pos_site_id
_symmetry_equiv_pos_as_xyz
1 x,y,z
2 -x,1/2+y,1/2-z
3 -x,-y,-z
4 x,1/2-y,1/2+z
_cell_length_a                   10.36393(10)
_cell_length_b                   19.91575(16)
_cell_length_c                   16.60841(15)
_cell_angle_alpha                90
_cell_angle_beta                 93.5476(9)
_cell_angle_gamma                90
_cell_volume                     3421.5
loop_
_atom_site_label
_atom_site_type_symbol
_atom_site_fract_x
_atom_site_fract_y
_atom_site_fract_z
Br1 Br 0.72786(6) 0.42288(3) 0.45209(5)
Zn1 Zn 1.13469(7) 0.74887(3) 0.38767(4)
Br2 Br 0.94407(11) 1.11403(4) 0.36092(5)
Br3 Br 0.81173(7) 0.55642(4) 0.34960(4)
Br4 Br 0.97361(13) 0.95473(4) 0.31142(4)
O1 O 1.0488(4) 0.67525(19) 0.4423(2)
O2 O 1.1246(4) 0.8356(2) 0.4449(3)
N1 N 0.3259(5) 0.7705(3) -0.1080(3)
N2 N 1.0795(5) 0.7695(2) 0.2726(3)
O3 O 1.1274(5) 0.6111(2) 0.3473(3)
C1 C 0.9774(6) 1.0481(3) 0.4417(3)
O4 O 0.9097(5) 0.8284(2) 0.4439(3)
N3 N 0.9707(4) 0.7765(2) 0.1560(3)
C2 C 1.0345(5) 0.5579(3) 0.4577(3)
C3 C 1.0739(6) 0.6190(3) 0.4102(4)
C4 C 0.9204(5) 0.5240(3) 0.4371(3)
N4 N 0.5313(5) 0.7804(3) -0.0731(4)
C5 C 1.0099(6) 0.9319(3) 0.4785(4)
C6 C 0.9883(6) 0.9811(3) 0.4213(3)
C7 C 0.9660(5) 0.7605(3) 0.2343(3)
C8 C 0.8860(5) 0.4670(3) 0.4784(4)
C9 C 0.4165(6) 0.7573(3) -0.0515(4)
C10 C 0.5972(6) 0.8922(4) 0.0282(4)
H1 H 0.5251 0.8931 -0.0080
C11 C 0.6761(5) 0.8364(3) 0.0315(4)
C12 C 0.7823(6) 0.8345(3) 0.0880(3)
C13 C 1.0124(6) 0.8589(3) 0.4540(3)
C14 C 1.1607(6) 0.7933(3) 0.2159(4)
H2 H 1.2473 0.8044 0.2260
C15 C 0.7310(8) 0.9470(3) 0.1286(5)
H3 H 0.7515 0.9849 0.1596
C16 C 0.8651(6) 0.7724(3) 0.0939(4)
H4 H 0.8111 0.7342 0.1052
H5 H 0.9011 0.7645 0.0421
C17 C 1.0944(6) 0.7977(3) 0.1441(4)
H6 H 1.1258 0.8122 0.0959
C18 C 0.6234(7) 0.9469(3) 0.0779(5)
H7 H 0.5675 0.9834 0.0765
C19 C 0.3957(8) 0.7232(5) 0.0265(5)
H8 H 0.3053 0.7139 0.0298
H9 H 0.4248 0.7519 0.0703
H10 H 0.4436 0.6819 0.0295
C20 C 0.8112(7) 0.8908(3) 0.1347(4)
H11 H 0.8842 0.8910 0.1702
C21 C 0.6540(6) 0.7782(4) -0.0247(5)
H12 H 0.7240 0.7766 -0.0608
H13 H 0.6572 0.7371 0.0066
C22 C 0.8466(6) 0.7360(4) 0.2722(5)
H14 H 0.8704 0.7166 0.3240
H15 H 0.8043 0.7027 0.2381
H16 H 0.7889 0.7730 0.2789
C23 C 0.3863(7) 0.8043(4) -0.1681(4)
H17 H 0.3462 0.8203 -0.2159
C24 C 0.5123(7) 0.8101(4) -0.1458(5)
H18 H 0.5750 0.8308 -0.1750
Br1B Br 1.27214(6) 0.57712(3) 0.54791(5)
Br3B Br 1.18827(7) 0.44358(4) 0.65040(4)
O1B O 0.9512(4) 0.32475(19) 0.5577(2)
O3B O 0.8726(5) 0.3889(2) 0.6527(3)
C2B C 0.9655(5) 0.4421(3) 0.5423(3)
C3B C 0.9261(6) 0.3810(3) 0.5898(4)
C4B C 1.0796(5) 0.4760(3) 0.5629(3)
C8B C 1.1140(5) 0.5330(3) 0.5216(4)
Br2B Br 1.05593(11) 0.88597(4) 0.63908(5)
Br4B Br 1.02639(13) 1.04527(4) 0.68858(4)
O2B O 0.8754(4) 1.1644(2) 0.5551(3)
C1B C 1.0226(6) 0.9519(3) 0.5583(3)
O4B O 1.0903(5) 1.1716(2) 0.5561(3)
C5B C 0.9901(6) 1.0681(3) 0.5215(4)
C6B C 1.0117(6) 1.0189(3) 0.5787(3)
C13B C 0.9876(6) 1.1411(3) 0.5460(3)
Zn1B Zn 0.86531(7) 0.25113(3) 0.61233(4)
N1B N 1.6741(5) 0.2295(3) 1.1080(3)
N2B N 0.9205(5) 0.2305(2) 0.7274(3)
N3B N 1.0293(4) 0.2235(2) 0.8440(3)
N4B N 1.4687(5) 0.2196(3) 1.0731(4)
C7B C 1.0340(5) 0.2395(3) 0.7657(3)
C9B C 1.5835(6) 0.2427(3) 1.0515(4)
C10B C 1.4028(6) 0.1078(4) 0.9718(4)
H1B H 1.4749 0.1069 1.0080
C11B C 1.3239(5) 0.1636(3) 0.9685(4)
C12B C 1.2177(6) 0.1655(3) 0.9120(3)
C14B C 0.8393(6) 0.2067(3) 0.7841(4)
H2B H 0.7527 0.1956 0.7740
C15B C 1.2690(8) 0.0530(3) 0.8714(5)
H3B H 1.2485 0.0151 0.8404
C16B C 1.1349(6) 0.2276(3) 0.9061(4)
H4B H 1.1889 0.2658 0.8948
H5B H 1.0989 0.2355 0.9579
C17B C 0.9056(6) 0.2023(3) 0.8559(4)
H6B H 0.8742 0.1878 0.9041
C18B C 1.3766(7) 0.0531(3) 0.9221(5)
H7B H 1.4325 0.0166 0.9235
C19B C 1.6043(8) 0.2768(5) 0.9735(5)
H8B H 1.6947 0.2861 0.9702
H9B H 1.5752 0.2481 0.9297
H10B H 1.5564 0.3181 0.9705
C20B C 1.1888(7) 0.1092(3) 0.8653(4)
H11B H 1.1158 0.1090 0.8298
C21B C 1.3460(6) 0.2218(4) 1.0247(5)
H12B H 1.2760 0.2234 1.0608
H13B H 1.3428 0.2629 0.9934
C22B C 1.1534(6) 0.2640(4) 0.7278(5)
H14B H 1.1296 0.2834 0.6760
H15B H 1.1957 0.2973 0.7619
H16B H 1.2111 0.2270 0.7211
C23B C 1.6137(7) 0.1957(4) 1.1681(4)
H17B H 1.6538 0.1797 1.2159
C24B C 1.4877(7) 0.1899(4) 1.1458(5)
H18B H 1.4250 0.1692 1.1750
Zn1A Zn 1.86531(7) 0.24887(3) 1.11233(4)
Zn1B_2 Zn 0.86531(7) 1.25113(3) 0.61233(4)
Zn1C Zn 0.13469(7) 0.75113(3) -0.11233(4)
O2B_2 O 0.8754(4) 0.1644(2) 0.5551(3)
N1A N 0.6741(5) 0.2705(3) 0.6080(3)
N1C N 1.3259(5) 0.7295(3) 0.3920(3)
loop_
_geom_bond_atom_site_label_1
_geom_bond_atom_site_label_2
_geom_bond_site_symmetry_1
_geom_bond_site_symmetry_2
Br1 C8 1_555 1_555
Zn1 O1 1_555 1_555
Br2 C1 1_555 1_555
Br3 C4 1_555 1_555
Br4 C6 1_555 1_555
O1 C3 1_555 1_555
O2 Zn1 1_555 1_555
N1 C9 1_555 1_555
N2 Zn1 1_555 1_555
O3 C3 1_555 1_555
C1 C6 1_555 1_555
O4 C13 1_555 1_555
N3 C7 1_555 1_555
C2 C3 1_555 1_555
C4 C2 1_555 1_555
N4 C9 1_555 1_555
C5 C6 1_555 1_555
C7 N2 1_555 1_555
C8 C4 1_555 1_555
C9 C19 1_555 1_555
C10 H1 1_555 1_555
C11 C10 1_555 1_555
C12 C11 1_555 1_555
C13 O2 1_555 1_555
C14 N2 1_555 1_555
H2 C14 1_555 1_555
C15 H3 1_555 1_555
C16 N3 1_555 1_555
H4 C16 1_555 1_555
H5 C16 1_555 1_555
C17 N3 1_555 1_555
H6 C17 1_555 1_555
C18 C10 1_555 1_555
H7 C18 1_555 1_555
C19 H8 1_555 1_555
H9 C19 1_555 1_555
H10 C19 1_555 1_555
C20 C12 1_555 1_555
H11 C20 1_555 1_555
C21 N4 1_555 1_555
H12 C21 1_555 1_555
H13 C21 1_555 1_555
C22 C7 1_555 1_555
H14 C22 1_555 1_555
H15 C22 1_555 1_555
H16 C22 1_555 1_555
C23 N1 1_555 1_555
H17 C23 1_555 1_555
C24 N4 1_555 1_555
H18 C24 1_555 1_555
Br1B C8B 1_555 1_555
Br3B C4B 1_555 1_555
O1B C3B 1_555 1_555
O3B C3B 1_555 1_555
C2B C8 1_555 1_555
C3B C2B 1_555 1_555
C4B C2B 1_555 1_555
C8B C2 1_555 1_555
Br2B C1B 1_555 1_555
Br4B C6B 1_555 1_555
O2B C13B 1_555 1_555
C1B C5 1_555 1_555
O4B C13B 1_555 1_555
C5B C1 1_555 1_555
C6B C1B 1_555 1_555
C13B C5B 1_555 1_555
Zn1B O1B 1_555 1_555
N1B C9B 1_555 1_555
N2B Zn1B 1_555 1_555
N3B C7B 1_555 1_555
N4B C9B 1_555 1_555
C7B N2B 1_555 1_555
C9B C19B 1_555 1_555
C10B H1B 1_555 1_555
C11B C10B 1_555 1_555
C12B C11B 1_555 1_555
C14B N2B 1_555 1_555
H2B C14B 1_555 1_555
C15B H3B 1_555 1_555
C16B N3B 1_555 1_555
H4B C16B 1_555 1_555
H5B C16B 1_555 1_555
C17B N3B 1_555 1_555
H6B C17B 1_555 1_555
C18B C10B 1_555 1_555
H7B C18B 1_555 1_555
C19B H8B 1_555 1_555
H9B C19B 1_555 1_555
H10B C19B 1_555 1_555
C20B C12B 1_555 1_555
H11B C20B 1_555 1_555
C21B N4B 1_555 1_555
H12B C21B 1_555 1_555
H13B C21B 1_555 1_555
C22B C7B 1_555 1_555
H14B C22B 1_555 1_555
H15B C22B 1_555 1_555
H16B C22B 1_555 1_555
C23B N1B 1_555 1_555
H17B C23B 1_555 1_555
C24B N4B 1_555 1_555
H18B C24B 1_555 1_555
Zn1A N1B 1_555 1_555
Zn1B_2 O2B 1_555 1_555
Zn1C N1 1_555 1_555
O2B_2 Zn1B 1_555 1_555
N1A Zn1B 1_555 1_555
N1C Zn1 1_555 1_555
C5 C13 1_555 1_555
C11 C21 1_555 1_555
C12 C16 1_555 1_555
C14 C17 1_555 1_555
C15 C18 1_555 1_555
C15 C20 1_555 1_555
C23 C24 1_555 1_555
C4B C8B 1_555 1_555
C5B C6B 1_555 1_555
C11B C21B 1_555 1_555
C12B C16B 1_555 1_555
C14B C17B 1_555 1_555
C15B C18B 1_555 1_555
C15B C20B 1_555 1_555
C23B C24B 1_555 1_555

#END
