
#######################################################################
#
#                 Cambridge Crystallographic Data Centre
#                                CCDC 
#
#######################################################################
#
# If this CIF has been generated from an entry in the Cambridge 
# Structural Database, then it will include bibliographic, chemical, 
# crystal, experimental, refinement or atomic coordinate data resulting 
# from the CCDC's data processing and validation procedures.
#
#######################################################################

data_TUNBUB
_symmetry_cell_setting           monoclinic
_symmetry_space_group_name_H-M   'P 21/c'
_symmetry_Int_Tables_number      14
_space_group_name_Hall           '-P 2ybc'
loop_
_symmetry_equiv_pos_site_id
_symmetry_equiv_pos_as_xyz
1 x,y,z
2 -x,1/2+y,1/2-z
3 -x,-y,-z
4 x,1/2-y,1/2+z
_cell_length_a                   7.7116(10)
_cell_length_b                   10.1356(10)
_cell_length_c                   8.3544(10)
_cell_angle_alpha                90
_cell_angle_beta                 112.390(10)
_cell_angle_gamma                90
_cell_volume                     603.766
loop_
_atom_site_label
_atom_site_type_symbol
_atom_site_fract_x
_atom_site_fract_y
_atom_site_fract_z
Se1 Se 0.53646(5) 0.69556(3) 0.30223(4)
Cu1 Cu 0.5000 0.5000 0.0000
O1 O 0.5647(4) 0.8571(3) 0.2913(4)
O2 O 0.4049(4) 0.6451(2) 0.0964(3)
N1 N 0.7589(4) 0.5422(3) 0.1758(3)
C1 C 0.7754(5) 0.6312(3) 0.2988(4)
C2 C 0.9153(5) 0.4914(4) 0.1655(5)
H1 H 0.9038 0.4295 0.0799
C3 C 0.9481(6) 0.6738(4) 0.4163(5)
H2 H 0.9555 0.7360 0.5005
C4 C 1.1101(6) 0.6211(4) 0.4053(5)
H3 H 1.2278 0.6478 0.4820
C5 C 1.0930(5) 0.5282(4) 0.2781(5)
H4 H 1.1991 0.4913 0.2687
Se1B Se 0.46354(5) 0.30444(3) -0.30223(4)
O1B O 0.4353(4) 0.1429(3) -0.2913(4)
O2B O 0.5951(4) 0.3549(2) -0.0964(3)
N1B N 0.2411(4) 0.4578(3) -0.1758(3)
C1B C 0.2246(5) 0.3688(3) -0.2988(4)
C2B C 0.0847(5) 0.5086(4) -0.1655(5)
H1B H 0.0962 0.5705 -0.0799
C3B C 0.0519(6) 0.3262(4) -0.4163(5)
H2B H 0.0445 0.2640 -0.5005
C4B C -0.1101(6) 0.3789(4) -0.4053(5)
H3B H -0.2278 0.3522 -0.4820
C5B C -0.0930(5) 0.4718(4) -0.2781(5)
H4B H -0.1991 0.5087 -0.2687
Cu1A Cu 0.5000 0.0000 -0.5000
Cu1A_2 Cu 0.5000 1.0000 0.5000
O1A O 0.4353(4) 0.3571(3) 0.2087(4)
O1C O 0.5647(4) 0.6429(3) -0.2087(4)
loop_
_geom_bond_atom_site_label_1
_geom_bond_atom_site_label_2
_geom_bond_site_symmetry_1
_geom_bond_site_symmetry_2
Se1 O1 1_555 1_555
Cu1 O2 1_555 1_555
O1 Cu1A_2 1_555 1_555
O2 Se1 1_555 1_555
N1 Cu1 1_555 1_555
C1 Se1 1_555 1_555
C2 N1 1_555 1_555
H1 C2 1_555 1_555
C3 C1 1_555 1_555
H2 C3 1_555 1_555
C4 C3 1_555 1_555
H3 C4 1_555 1_555
C5 C2 1_555 1_555
H4 C5 1_555 1_555
Se1B O1B 1_555 1_555
O1B Cu1A 1_555 1_555
O2B Cu1 1_555 1_555
N1B Cu1 1_555 1_555
C1B Se1B 1_555 1_555
C2B N1B 1_555 1_555
H1B C2B 1_555 1_555
C3B C1B 1_555 1_555
H2B C3B 1_555 1_555
C4B C3B 1_555 1_555
H3B C4B 1_555 1_555
C5B C2B 1_555 1_555
H4B C5B 1_555 1_555
O1A Cu1 1_555 1_555
O1C Cu1 1_555 1_555
N1 C1 1_555 1_555
C4 C5 1_555 1_555
Se1B O2B 1_555 1_555
N1B C1B 1_555 1_555
C4B C5B 1_555 1_555

#END
