
#######################################################################
#
#                 Cambridge Crystallographic Data Centre
#                                CCDC 
#
#######################################################################
#
# If this CIF has been generated from an entry in the Cambridge 
# Structural Database, then it will include bibliographic, chemical, 
# crystal, experimental, refinement or atomic coordinate data resulting 
# from the CCDC's data processing and validation procedures.
#
#######################################################################

data_TUNCIQ
_symmetry_cell_setting           monoclinic
_symmetry_space_group_name_H-M   'P 21/n'
_symmetry_Int_Tables_number      14
_space_group_name_Hall           '-P 2yn'
loop_
_symmetry_equiv_pos_site_id
_symmetry_equiv_pos_as_xyz
1 x,y,z
2 1/2-x,1/2+y,1/2-z
3 -x,-y,-z
4 1/2+x,1/2-y,1/2+z
_cell_length_a                   14.271(8)
_cell_length_b                   12.542(7)
_cell_length_c                   16.496(9)
_cell_angle_alpha                90
_cell_angle_beta                 105.765(6)
_cell_angle_gamma                90
_cell_volume                     2841.5
loop_
_atom_site_label
_atom_site_type_symbol
_atom_site_fract_x
_atom_site_fract_y
_atom_site_fract_z
C1 C 0.4035(6) 0.8903(5) 0.2406(5)
H1 H 0.3710 0.8418 0.1950
C2 C 0.4882(5) 0.9487(6) 0.2444(5)
H2 H 0.5265 0.9472 0.2034
C3 C 0.5095(5) 1.0069(6) 0.3200(5)
H3 H 0.5653 1.0546 0.3407
C4 C 0.4386(7) 0.9847(7) 0.3606(4)
H4 H 0.4353 1.0152 0.4144
C5 C 0.3709(6) 0.9150(6) 0.3110(5)
H5 H 0.3130 0.8861 0.3242
C6 C 0.3466(4) 1.1367(4) 0.1370(3)
H6 H 0.3760 1.1269 0.0903
C7 C 0.3825(5) 1.2040(4) 0.2072(4)
H7 H 0.4409 1.2487 0.2176
C8 C 0.3207(4) 1.1950(5) 0.2594(4)
H8 H 0.3288 1.2321 0.3131
C9 C 0.2450(4) 1.1212(4) 0.2228(3)
H9 H 0.1916 1.0998 0.2461
C10 C 0.2615(3) 1.0843(4) 0.1458(3)
C11 C 0.0680(3) 0.8860(3) 0.0443(3)
C12 C 0.1225(3) 0.9554(3) 0.1027(3)
H10 H 0.1066 0.9682 0.1529
C13 C 0.2021(3) 1.0065(3) 0.0861(2)
C14 C 0.2219(3) 0.9846(4) 0.0099(3)
H11 H 0.2746 1.0171 -0.0033
C15 C 0.1633(3) 0.9144(3) -0.0465(3)
C16 C 0.2433(3) 0.9304(4) -0.2461(3)
H12 H 0.2843 0.9723 -0.2680
C17 C 0.2378(3) 0.9509(4) -0.1657(3)
H13 H 0.2754 1.0050 -0.1344
C18 C 0.1768(3) 0.8914(4) -0.1310(3)
C19 C 0.1259(4) 0.8105(4) -0.1803(3)
H14 H 0.0844 0.7674 -0.1598
C20 C 0.1362(4) 0.7936(5) -0.2596(3)
H15 H 0.1022 0.7373 -0.2908
C21 C -0.1364(3) 0.7925(4) 0.1323(3)
H16 H -0.1569 0.8015 0.1807
C22 C -0.0533(3) 0.8435(4) 0.1275(3)
H17 H -0.0193 0.8865 0.1716
C23 C -0.0196(3) 0.8306(3) 0.0559(3)
C24 C -0.0754(3) 0.7665(4) -0.0067(3)
H18 H -0.0563 0.7553 -0.0556
C25 C -0.1585(4) 0.7190(4) 0.0021(3)
H19 H -0.1948 0.6770 -0.0417
C26 C -0.5486(4) 0.8521(5) -0.0180(5)
H20 H -0.5859 0.8676 0.0209
H21 H -0.5839 0.8030 -0.0599
H22 H -0.5371 0.9169 -0.0449
C27 C -0.4527(4) 0.8034(4) 0.0285(3)
C28 C -0.2908(5) 0.4747(5) -0.0022(4)
C29 C -0.2708(8) 0.3609(5) -0.0221(6)
H23 H -0.2567 0.3192 0.0286
H24 H -0.2161 0.3590 -0.0454
H25 H -0.3270 0.3322 -0.0621
Fe1 Fe 0.37741(5) 1.04919(6) 0.24460(4)
N1 N -0.1895(3) 0.7306(3) 0.0711(2)
N2 N 0.0870(3) 0.8644(3) -0.0299(2)
N3 N 0.1924(3) 0.8532(3) -0.2943(2)
O1 O -0.4412(2) 0.7045(3) 0.0155(2)
O2 O -0.3902(3) 0.8575(3) 0.0758(2)
O3 O -0.3043(4) 0.5407(4) -0.0600(3)
O4 O -0.2902(3) 0.4979(4) 0.0704(3)
Zn1 Zn -0.31360(4) 0.65453(4) 0.07919(3)
N3C N -0.3076(3) 0.6468(3) 0.2057(2)
Zn1C Zn 0.18640(4) 0.84547(4) -0.42081(3)
O5 O 0.5591(4) 0.5021(5) 0.7905(3)
H26 H 0.5452 0.4618 0.8271
H27 H 0.5784 0.5622 0.8127
O6 O 0.5739(4) 0.3833(5) 0.1431(3)
H28 H 0.5806 0.3168 0.1531
H29 H 0.5877 0.3972 0.0972
loop_
_geom_bond_atom_site_label_1
_geom_bond_atom_site_label_2
_geom_bond_site_symmetry_1
_geom_bond_site_symmetry_2
C1 H1 1_555 1_555
C2 C1 1_555 1_555
H2 C2 1_555 1_555
C3 C2 1_555 1_555
H3 C3 1_555 1_555
C4 C3 1_555 1_555
H4 C4 1_555 1_555
C5 C1 1_555 1_555
H5 C5 1_555 1_555
C6 H6 1_555 1_555
C7 C6 1_555 1_555
H7 C7 1_555 1_555
C8 C7 1_555 1_555
H8 C8 1_555 1_555
C9 C8 1_555 1_555
H9 C9 1_555 1_555
C10 C6 1_555 1_555
C11 C12 1_555 1_555
C12 H10 1_555 1_555
C13 C10 1_555 1_555
C14 C13 1_555 1_555
H11 C14 1_555 1_555
C15 C14 1_555 1_555
C16 H12 1_555 1_555
C17 C16 1_555 1_555
H13 C17 1_555 1_555
C18 C15 1_555 1_555
C19 C18 1_555 1_555
H14 C19 1_555 1_555
C20 C19 1_555 1_555
H15 C20 1_555 1_555
C21 H16 1_555 1_555
C22 C21 1_555 1_555
H17 C22 1_555 1_555
C23 C11 1_555 1_555
C24 C23 1_555 1_555
H18 C24 1_555 1_555
C25 C24 1_555 1_555
H19 C25 1_555 1_555
C26 H20 1_555 1_555
H21 C26 1_555 1_555
H22 C26 1_555 1_555
C27 C26 1_555 1_555
C28 C29 1_555 1_555
C29 H23 1_555 1_555
H24 C29 1_555 1_555
H25 C29 1_555 1_555
Fe1 C1 1_555 1_555
N1 C21 1_555 1_555
N2 C11 1_555 1_555
N3 C16 1_555 1_555
O1 C27 1_555 1_555
O2 C27 1_555 1_555
O3 C28 1_555 1_555
O4 C28 1_555 1_555
Zn1 N1 1_555 1_555
O5 H26 1_555 1_555
H27 O5 1_555 1_555
O6 H28 1_555 1_555
H29 O6 1_555 1_555
N3C Zn1 1_555 1_555
Zn1C N3 1_555 1_555
C2 Fe1 1_555 1_555
C3 Fe1 1_555 1_555
C4 C5 1_555 1_555
C4 Fe1 1_555 1_555
C5 Fe1 1_555 1_555
C6 Fe1 1_555 1_555
C7 Fe1 1_555 1_555
C8 Fe1 1_555 1_555
C9 C10 1_555 1_555
C9 Fe1 1_555 1_555
C10 Fe1 1_555 1_555
C12 C13 1_555 1_555
C15 N2 1_555 1_555
C17 C18 1_555 1_555
C20 N3 1_555 1_555
C22 C23 1_555 1_555
C25 N1 1_555 1_555
O1 Zn1 1_555 1_555
O4 Zn1 1_555 1_555

#END
