
#######################################################################
#
#                 Cambridge Crystallographic Data Centre
#                                CCDC 
#
#######################################################################
#
# If this CIF has been generated from an entry in the Cambridge 
# Structural Database, then it will include bibliographic, chemical, 
# crystal, experimental, refinement or atomic coordinate data resulting 
# from the CCDC's data processing and validation procedures.
#
#######################################################################

data_TUNDIR
_symmetry_cell_setting           orthorhombic
_symmetry_space_group_name_H-M   'P n m a'
_symmetry_Int_Tables_number      62
_space_group_name_Hall           '-P 2ac 2n'
loop_
_symmetry_equiv_pos_site_id
_symmetry_equiv_pos_as_xyz
1 x,y,z
2 1/2-x,-y,1/2+z
3 -x,1/2+y,-z
4 1/2+x,1/2-y,1/2-z
5 -x,-y,-z
6 1/2+x,y,1/2-z
7 x,1/2-y,z
8 1/2-x,1/2+y,1/2+z
_cell_length_a                   10.6565(7)
_cell_length_b                   16.8754(11)
_cell_length_c                   19.1418(13)
_cell_angle_alpha                90
_cell_angle_beta                 90
_cell_angle_gamma                90
_cell_volume                     3442.32
loop_
_atom_site_label
_atom_site_type_symbol
_atom_site_fract_x
_atom_site_fract_y
_atom_site_fract_z
P1 P 0.4533(3) 0.2500 0.64225(19)
F1 F 0.5769(9) 0.2664(7) 0.6868(6)
F2 F 0.4073(14) 0.1912(8) 0.7009(7)
F3 F 0.3323(8) 0.2334(7) 0.5972(6)
F4 F 0.5046(13) 0.3095(8) 0.5839(6)
F5 F 0.3838(13) 0.3217(8) 0.6788(7)
F6 F 0.5241(13) 0.1786(8) 0.6038(7)
F1F F 0.5769(9) 0.2336(7) 0.6868(6)
F2F F 0.4073(14) 0.3088(8) 0.7009(7)
F3F F 0.3323(8) 0.2666(7) 0.5972(6)
F4F F 0.5046(13) 0.1905(8) 0.5839(6)
F5F F 0.3838(13) 0.1783(8) 0.6788(7)
F6F F 0.5241(13) 0.3214(8) 0.6038(7)
P2 P 1.0591(2) 0.2500 0.40378(15)
F7 F 0.9241(9) 0.2815(7) 0.3933(7)
F8 F 1.0733(13) 0.2954(7) 0.4722(5)
F9 F 1.1930(9) 0.2130(7) 0.4107(8)
F10 F 1.0430(14) 0.2013(7) 0.3338(6)
F11 F 1.0023(10) 0.1774(6) 0.4459(5)
F12 F 1.1179(11) 0.3198(6) 0.3621(6)
F7F F 0.9241(9) 0.2185(7) 0.3933(7)
F8F F 1.0733(13) 0.2046(7) 0.4722(5)
F9F F 1.1930(9) 0.2870(7) 0.4107(8)
F10F F 1.0430(14) 0.2987(7) 0.3338(6)
F11F F 1.0023(10) 0.3226(6) 0.4459(5)
F12F F 1.1179(11) 0.1802(6) 0.3621(6)
N9 N 1.0656(8) -0.0023(6) 0.6398(5)
C11 C 1.0597(9) 0.0613(7) 0.6382(6)
C12 C 1.0458(10) 0.1474(7) 0.6340(7)
H7 H 0.9842 0.1607 0.5978
H8 H 1.1269 0.1714 0.6221
H9 H 1.0172 0.1679 0.6791
Ag1 Ag 0.57169(5) 0.12414(3) 0.34761(3)
N1 N 0.6582(5) 0.2106(3) 0.4418(3)
N2 N 0.7824(6) 0.2113(3) 0.5452(3)
N3 N 0.6500(6) 0.0490(4) 0.4482(4)
N4 N 0.8082(7) 0.0529(4) 0.5358(4)
N5 N 0.4029(5) 0.2112(3) 0.2977(3)
N6 N 0.2301(5) 0.2109(3) 0.2206(3)
N7 N 0.3814(5) 0.0510(4) 0.3122(3)
N8 N 0.2002(5) 0.0537(3) 0.2400(3)
C1 C 0.7231(6) 0.1738(4) 0.4919(4)
C2 C 0.7277(7) 0.0860(4) 0.4916(4)
C3 C 0.6511(8) -0.0299(5) 0.4524(5)
H1 H 0.5958 -0.0591 0.4233
C4 C 0.7277(9) -0.0704(5) 0.4965(5)
H2 H 0.7258 -0.1266 0.4991
C5 C 0.8090(9) -0.0260(5) 0.5375(5)
H3 H 0.8664 -0.0524 0.5675
C6 C 0.3117(5) 0.1749(4) 0.2635(3)
C7 C 0.2977(6) 0.0873(4) 0.2715(4)
C8 C 0.3636(7) -0.0262(5) 0.3219(4)
H4 H 0.4206 -0.0544 0.3509
C9 C 0.2663(7) -0.0669(4) 0.2916(4)
H5 H 0.2551 -0.1221 0.2988
C10 C 0.1863(7) -0.0240(4) 0.2507(5)
H6 H 0.1181 -0.0505 0.2289
N1F N 0.6582(5) 0.2894(3) 0.4418(3)
N2F N 0.7824(6) 0.2887(3) 0.5452(3)
N3F N 0.6500(6) 0.4510(4) 0.4482(4)
N4F N 0.8082(7) 0.4471(4) 0.5358(4)
C1F C 0.7231(6) 0.3262(4) 0.4919(4)
C2F C 0.7277(7) 0.4140(4) 0.4916(4)
C3F C 0.6511(8) 0.5299(5) 0.4524(5)
H1F H 0.5958 0.5591 0.4233
C4F C 0.7277(9) 0.5704(5) 0.4965(5)
H2F H 0.7258 0.6266 0.4991
C5F C 0.8090(9) 0.5260(5) 0.5375(5)
H3F H 0.8664 0.5524 0.5675
N5F N 0.4029(5) 0.2888(3) 0.2977(3)
N6F N 0.2301(5) 0.2891(3) 0.2206(3)
N7F N 0.3814(5) 0.4490(4) 0.3122(3)
N8F N 0.2002(5) 0.4463(3) 0.2400(3)
C6F C 0.3117(5) 0.3251(4) 0.2635(3)
C7F C 0.2977(6) 0.4127(4) 0.2715(4)
C8F C 0.3636(7) 0.5262(5) 0.3219(4)
H4F H 0.4206 0.5544 0.3509
C9F C 0.2663(7) 0.5669(4) 0.2916(4)
H5F H 0.2551 0.6221 0.2988
C10F C 0.1863(7) 0.5240(4) 0.2507(5)
H6F H 0.1181 0.5505 0.2289
Ag1F Ag 0.57169(5) 0.37586(3) 0.34761(3)
Ag1C Ag 0.07169(5) 0.37586(3) 0.15239(3)
Ag1E Ag 0.07169(5) 0.12414(3) 0.15239(3)
N6C N 0.7301(5) 0.2891(3) 0.2794(3)
N6E N 0.7301(5) 0.2109(3) 0.2794(3)
N8C N 0.7002(5) 0.4463(3) 0.2600(3)
N8E N 0.7002(5) 0.0537(3) 0.2600(3)
loop_
_geom_bond_atom_site_label_1
_geom_bond_atom_site_label_2
_geom_bond_site_symmetry_1
_geom_bond_site_symmetry_2
Ag1 N1 1_555 1_555
N1 C1 1_555 1_555
N2 C1 1_555 1_555
N3 Ag1 1_555 1_555
N4 C2 1_555 1_555
N5 Ag1 1_555 1_555
N6 C6 1_555 1_555
N7 Ag1 1_555 1_555
N8 C7 1_555 1_555
C1 C2 1_555 1_555
C2 N3 1_555 1_555
C3 N3 1_555 1_555
H1 C3 1_555 1_555
C4 C3 1_555 1_555
H2 C4 1_555 1_555
C5 N4 1_555 1_555
H3 C5 1_555 1_555
C6 N5 1_555 1_555
C7 N7 1_555 1_555
C8 N7 1_555 1_555
H4 C8 1_555 1_555
C9 C8 1_555 1_555
H5 C9 1_555 1_555
C10 N8 1_555 1_555
H6 C10 1_555 1_555
P1 F1 1_555 1_555
F2 P1 1_555 1_555
F3 P1 1_555 1_555
F4 P1 1_555 1_555
F5 P1 1_555 1_555
F6 P1 1_555 1_555
P2 F7 1_555 1_555
F8 P2 1_555 1_555
F9 P2 1_555 1_555
F10 P2 1_555 1_555
F11 P2 1_555 1_555
F12 P2 1_555 1_555
N9 C11 1_555 1_555
C11 C12 1_555 1_555
C12 H7 1_555 1_555
H8 C12 1_555 1_555
H9 C12 1_555 1_555
N1F N1 1_555 1_555
N2F N2 1_555 1_555
N3F C2F 1_555 1_555
N4F C2F 1_555 1_555
C1F N1F 1_555 1_555
C2F C1F 1_555 1_555
C3F N3F 1_555 1_555
H1F C3F 1_555 1_555
C4F C3F 1_555 1_555
H2F C4F 1_555 1_555
C5F N4F 1_555 1_555
H3F C5F 1_555 1_555
N5F N5 1_555 1_555
N6F N6 1_555 1_555
N7F C7F 1_555 1_555
N8F C7F 1_555 1_555
C6F N5F 1_555 1_555
C7F C6F 1_555 1_555
C8F N7F 1_555 1_555
H4F C8F 1_555 1_555
C9F C8F 1_555 1_555
H5F C9F 1_555 1_555
C10F N8F 1_555 1_555
H6F C10F 1_555 1_555
Ag1F N1F 1_555 1_555
Ag1C N6F 1_555 1_555
Ag1E N6 1_555 1_555
N6C Ag1F 1_555 1_555
N6E Ag1 1_555 1_555
N8C Ag1F 1_555 1_555
N8E Ag1 1_555 1_555
F1F P1 1_555 1_555
F2F P1 1_555 1_555
F3F P1 1_555 1_555
F4F P1 1_555 1_555
F5F P1 1_555 1_555
F6F P1 1_555 1_555
F7F P2 1_555 1_555
F8F P2 1_555 1_555
F9F P2 1_555 1_555
F10F P2 1_555 1_555
F11F P2 1_555 1_555
F12F P2 1_555 1_555
N8 Ag1E 1_555 1_555
C4 C5 1_555 1_555
C6 C7 1_555 1_555
C9 C10 1_555 1_555
N2F C1F 1_555 1_555
N3F Ag1F 1_555 1_555
C4F C5F 1_555 1_555
N5F Ag1F 1_555 1_555
N6F C6F 1_555 1_555
N7F Ag1F 1_555 1_555
N8F Ag1C 1_555 1_555
C9F C10F 1_555 1_555
N6C N6E 1_555 1_555

#END
