
#######################################################################
#
#                 Cambridge Crystallographic Data Centre
#                                CCDC 
#
#######################################################################
#
# If this CIF has been generated from an entry in the Cambridge 
# Structural Database, then it will include bibliographic, chemical, 
# crystal, experimental, refinement or atomic coordinate data resulting 
# from the CCDC's data processing and validation procedures.
#
#######################################################################

data_TUNDEN
_symmetry_cell_setting           monoclinic
_symmetry_space_group_name_H-M   'P 21/n'
_symmetry_Int_Tables_number      14
_space_group_name_Hall           '-P 2yn'
loop_
_symmetry_equiv_pos_site_id
_symmetry_equiv_pos_as_xyz
1 x,y,z
2 1/2-x,1/2+y,1/2-z
3 -x,-y,-z
4 1/2+x,1/2-y,1/2+z
_cell_length_a                   10.6023(8)
_cell_length_b                   18.0069(15)
_cell_length_c                   33.316(3)
_cell_angle_alpha                90
_cell_angle_beta                 90.1374(16)
_cell_angle_gamma                90
_cell_volume                     6360.49
loop_
_atom_site_label
_atom_site_type_symbol
_atom_site_fract_x
_atom_site_fract_y
_atom_site_fract_z
Ag1 Ag -0.16568(6) 0.37251(4) 0.31124(2)
Ag2 Ag -0.16167(6) 0.38077(4) 0.18279(2)
Ag3 Ag 0.33376(6) 0.17675(4) 0.30621(2)
Ag4 Ag 0.33882(6) 0.17534(4) 0.17852(2)
N1 N -0.0230(6) 0.2960(4) 0.2631(2)
N2 N -0.0148(6) 0.3023(4) 0.22377(19)
N3 N 0.1668(6) 0.2263(4) 0.2226(2)
N4 N 0.1602(6) 0.2194(4) 0.2624(2)
N5 N -0.0445(8) 0.2721(5) 0.3430(2)
N6 N 0.1411(7) 0.2005(5) 0.3424(2)
N7 N -0.0012(7) 0.3181(5) 0.1425(2)
N8 N 0.1632(7) 0.2277(5) 0.1419(2)
N9 N 0.4771(6) 0.2594(4) 0.2593(2)
N10 N 0.4850(7) 0.2532(4) 0.2205(2)
N11 N 0.6668(7) 0.3284(5) 0.2210(2)
N12 N 0.6592(7) 0.3343(4) 0.2603(2)
N13 N 0.4424(7) 0.2867(4) 0.3385(2)
N14 N 0.6351(7) 0.3542(5) 0.3404(2)
N15 N 0.4950(7) 0.2473(5) 0.1389(2)
N16 N 0.6629(8) 0.3338(5) 0.1395(2)
N17 N 0.4442(7) 0.0840(4) 0.2638(2)
N18 N 0.4312(7) 0.0755(4) 0.2246(2)
N19 N 0.5631(7) -0.0299(4) 0.22612(19)
N20 N 0.5755(7) -0.0232(4) 0.2653(2)
N21 N 0.4799(8) 0.1010(4) 0.3439(2)
N22 N 0.6258(8) 0.0024(5) 0.3434(2)
N23 N 0.4065(8) 0.0632(4) 0.1445(2)
N24 N 0.5474(8) -0.0405(5) 0.1452(2)
C1 C 0.0649(7) 0.2527(5) 0.2810(2)
C2 C 0.0776(7) 0.2665(5) 0.2046(2)
C3 C 0.0546(8) 0.2417(5) 0.3252(2)
C4 C -0.0593(11) 0.2584(6) 0.3821(3)
H1 H -0.1300 0.2779 0.3960
C5 C 0.0299(11) 0.2152(7) 0.4024(3)
H2 H 0.0214 0.2060 0.4303
C6 C 0.1277(11) 0.1870(7) 0.3819(3)
H3 H 0.1882 0.1572 0.3954
C7 C 0.0796(8) 0.2714(5) 0.1603(2)
C8 C 0.0061(11) 0.3229(7) 0.1031(3)
H4 H -0.0452 0.3584 0.0897
C9 C 0.0840(11) 0.2792(8) 0.0807(3)
H5 H 0.0842 0.2816 0.0522
C10 C 0.1618(10) 0.2319(7) 0.1012(3)
H6 H 0.2170 0.2007 0.0863
C11 C 0.5628(8) 0.3017(5) 0.2784(2)
C12 C 0.5763(7) 0.2918(4) 0.2015(2)
C13 C 0.5471(8) 0.3138(5) 0.3220(2)
C14 C 0.4228(10) 0.3035(7) 0.3766(3)
H7 H 0.3489 0.2853 0.3894
C15 C 0.5045(12) 0.3457(8) 0.3980(3)
H8 H 0.4875 0.3585 0.4252
C16 C 0.6131(10) 0.3698(8) 0.3794(3)
H9 H 0.6733 0.3978 0.3942
C17 C 0.5792(7) 0.2902(5) 0.1572(2)
C18 C 0.4988(9) 0.2467(7) 0.0986(3)
H10 H 0.4424 0.2152 0.0844
C19 C 0.5806(10) 0.2894(7) 0.0777(3)
H11 H 0.5819 0.2890 0.0492
C20 C 0.6620(11) 0.3338(7) 0.0996(3)
H12 H 0.7191 0.3652 0.0857
C21 C 0.5189(8) 0.0347(5) 0.2831(2)
C22 C 0.4933(8) 0.0207(5) 0.2072(2)
C23 C 0.5414(8) 0.0455(5) 0.3266(3)
C24 C 0.5078(13) 0.1141(7) 0.3823(3)
H13 H 0.4635 0.1519 0.3963
C25 C 0.5994(14) 0.0740(8) 0.4022(3)
H14 H 0.6215 0.0850 0.4292
C26 C 0.6573(13) 0.0180(7) 0.3816(3)
H15 H 0.7209 -0.0105 0.3945
C27 C 0.4818(8) 0.0144(5) 0.1622(2)
C28 C 0.3996(11) 0.0561(6) 0.1041(3)
H16 H 0.3465 0.0893 0.0896
C29 C 0.4644(11) 0.0043(6) 0.0832(3)
H17 H 0.4593 0.0016 0.0548
C30 C 0.5382(10) -0.0443(6) 0.1049(3)
H18 H 0.5840 -0.0816 0.0910
Ag1_2 Ag 0.83432(6) 0.37251(4) 0.31124(2)
Ag1A Ag 0.66568(6) -0.12749(4) 0.18876(2)
Ag2_2 Ag 0.83833(6) 0.38077(4) 0.18279(2)
Ag2A Ag 0.66167(6) -0.11923(4) 0.31721(2)
N11_2 N -0.3332(7) 0.3284(5) 0.2210(2)
N12_2 N -0.3408(7) 0.3343(4) 0.2603(2)
N14_2 N -0.3649(7) 0.3542(5) 0.3404(2)
N16_2 N -0.3371(8) 0.3338(5) 0.1395(2)
N19A N -0.0631(7) 0.4701(4) 0.27388(19)
N20A N -0.0755(7) 0.4768(4) 0.2347(2)
N22A N -0.1258(8) 0.5024(5) 0.1566(2)
N24A N -0.0474(8) 0.4595(5) 0.3548(2)
S1 S 0.1838(5) 0.6731(2) 0.01251(9)
F1 F 0.1681(13) 0.5513(7) -0.0269(3)
F2 F -0.0044(17) 0.5932(11) 0.0020(5)
F3 F 0.1526(15) 0.5390(7) 0.0363(3)
O1 O 0.1572(10) 0.7079(6) -0.0236(2)
O2 O 0.1410(11) 0.6994(6) 0.0486(3)
O3 O 0.3312(15) 0.6530(11) 0.0154(4)
C31 C 0.143(2) 0.5822(11) 0.0059(5)
S2 S -0.3082(3) 0.60985(19) 0.31577(11)
F4 F -0.3330(13) 0.6774(7) 0.3840(4)
F5 F -0.2432(12) 0.5764(8) 0.3889(4)
F6 F -0.4417(12) 0.5817(8) 0.3788(4)
O4 O -0.4132(10) 0.6478(6) 0.3001(3)
O5 O -0.3110(10) 0.5294(6) 0.3065(4)
O6 O -0.1889(11) 0.6412(7) 0.3110(4)
C32 C -0.3292(17) 0.6087(10) 0.3689(5)
S3 S 0.2997(3) 0.45030(17) 0.19346(10)
F7 F 0.3171(12) 0.3880(6) 0.1232(3)
F8 F 0.4212(12) 0.4877(8) 0.1290(3)
F9 F 0.2257(12) 0.4891(7) 0.1224(3)
O7 O 0.3010(9) 0.5279(6) 0.2058(3)
O8 O 0.1773(9) 0.4178(6) 0.1976(3)
O9 O 0.4085(10) 0.4110(6) 0.2068(3)
C33 C 0.3165(16) 0.4546(9) 0.1398(5)
S4 S 0.3044(3) 0.12955(18) -0.00663(7)
F10 F 0.0646(8) 0.1452(6) 0.0058(3)
F11 F 0.1524(9) 0.0549(8) 0.0387(3)
F12 F 0.1145(9) 0.0442(6) -0.0245(3)
O10 O 0.2863(9) 0.1658(5) -0.0440(2)
O11 O 0.3298(9) 0.1751(6) 0.0269(2)
O12 O 0.3829(10) 0.0656(6) -0.0078(3)
C34 C 0.1502(13) 0.0920(9) 0.0041(3)
N25 N 0.2889(12) -0.1076(8) 0.1968(5)
C35 C 0.2126(11) -0.0618(7) 0.1959(4)
C36 C 0.1215(14) -0.0038(9) 0.1965(6)
H19 H 0.0982 0.0072 0.2243
H20 H 0.0464 -0.0193 0.1815
H21 H 0.1572 0.0408 0.1841
N26 N 0.7307(11) 0.1670(7) 0.2982(5)
C37 C 0.8063(11) 0.1216(7) 0.2969(5)
C38 C 0.8960(14) 0.0640(10) 0.2932(6)
H22 H 0.8616 0.0182 0.3047
H23 H 0.9732 0.0778 0.3076
H24 H 0.9153 0.0562 0.2648
N27 N 0.296(2) -0.1372(14) 0.0628(6)
C39 C 0.296(2) -0.1326(11) 0.0282(7)
C40 C 0.298(2) -0.1253(12) -0.0151(6)
H25 H 0.2829 -0.0734 -0.0225
H26 H 0.2328 -0.1568 -0.0269
H27 H 0.3811 -0.1407 -0.0251
loop_
_geom_bond_atom_site_label_1
_geom_bond_atom_site_label_2
_geom_bond_site_symmetry_1
_geom_bond_site_symmetry_2
Ag1 N1 1_555 1_555
Ag2 N2 1_555 1_555
Ag3 N4 1_555 1_555
Ag4 N3 1_555 1_555
N1 N2 1_555 1_555
N2 C2 1_555 1_555
N3 N4 1_555 1_555
N4 C1 1_555 1_555
N5 Ag1 1_555 1_555
N6 Ag3 1_555 1_555
N7 Ag2 1_555 1_555
N8 Ag4 1_555 1_555
N9 Ag3 1_555 1_555
N10 Ag4 1_555 1_555
N11 N12 1_555 1_555
N12 C11 1_555 1_555
N13 Ag3 1_555 1_555
N14 C13 1_555 1_555
N15 Ag4 1_555 1_555
N16 C17 1_555 1_555
N17 Ag3 1_555 1_555
N18 Ag4 1_555 1_555
N19 N20 1_555 1_555
N20 C21 1_555 1_555
N21 Ag3 1_555 1_555
N22 C23 1_555 1_555
N23 Ag4 1_555 1_555
N24 C27 1_555 1_555
C1 N1 1_555 1_555
C2 N3 1_555 1_555
C3 N5 1_555 1_555
C4 N5 1_555 1_555
H1 C4 1_555 1_555
C5 C4 1_555 1_555
H2 C5 1_555 1_555
C6 N6 1_555 1_555
H3 C6 1_555 1_555
C7 N7 1_555 1_555
C8 N7 1_555 1_555
H4 C8 1_555 1_555
C9 C8 1_555 1_555
H5 C9 1_555 1_555
C10 N8 1_555 1_555
H6 C10 1_555 1_555
C11 N9 1_555 1_555
C12 N10 1_555 1_555
C13 N13 1_555 1_555
C14 N13 1_555 1_555
H7 C14 1_555 1_555
C15 C14 1_555 1_555
H8 C15 1_555 1_555
C16 N14 1_555 1_555
H9 C16 1_555 1_555
C17 N15 1_555 1_555
C18 N15 1_555 1_555
H10 C18 1_555 1_555
C19 C18 1_555 1_555
H11 C19 1_555 1_555
C20 N16 1_555 1_555
H12 C20 1_555 1_555
C21 N17 1_555 1_555
C22 N18 1_555 1_555
C23 N21 1_555 1_555
C24 N21 1_555 1_555
H13 C24 1_555 1_555
C25 C24 1_555 1_555
H14 C25 1_555 1_555
C26 N22 1_555 1_555
H15 C26 1_555 1_555
C27 N23 1_555 1_555
C28 N23 1_555 1_555
H16 C28 1_555 1_555
C29 C28 1_555 1_555
H17 C29 1_555 1_555
C30 N24 1_555 1_555
H18 C30 1_555 1_555
S1 O1 1_555 1_555
F1 C31 1_555 1_555
F2 C31 1_555 1_555
F3 C31 1_555 1_555
O2 S1 1_555 1_555
O3 S1 1_555 1_555
C31 S1 1_555 1_555
S2 O4 1_555 1_555
F4 C32 1_555 1_555
F5 C32 1_555 1_555
F6 C32 1_555 1_555
O5 S2 1_555 1_555
O6 S2 1_555 1_555
C32 S2 1_555 1_555
S3 O7 1_555 1_555
F7 C33 1_555 1_555
F8 C33 1_555 1_555
F9 C33 1_555 1_555
O8 S3 1_555 1_555
O9 S3 1_555 1_555
C33 S3 1_555 1_555
S4 O10 1_555 1_555
F10 C34 1_555 1_555
F11 C34 1_555 1_555
F12 C34 1_555 1_555
O11 S4 1_555 1_555
O12 S4 1_555 1_555
C34 S4 1_555 1_555
N25 C35 1_555 1_555
C35 C36 1_555 1_555
C36 H19 1_555 1_555
H20 C36 1_555 1_555
H21 C36 1_555 1_555
N26 C37 1_555 1_555
C37 C38 1_555 1_555
C38 H22 1_555 1_555
H23 C38 1_555 1_555
H24 C38 1_555 1_555
N27 C39 1_555 1_555
C39 C40 1_555 1_555
C40 H25 1_555 1_555
H26 C40 1_555 1_555
H27 C40 1_555 1_555
Ag1_2 N12 1_555 1_555
Ag1A N19 1_555 1_555
Ag2_2 N11 1_555 1_555
Ag2A N20 1_555 1_555
N11_2 Ag2 1_555 1_555
N12_2 Ag1 1_555 1_555
N14_2 Ag1 1_555 1_555
N16_2 Ag2 1_555 1_555
N19A Ag1 1_555 1_555
N20A Ag2 1_555 1_555
N22A Ag2 1_555 1_555
N24A Ag1 1_555 1_555
N6 C3 1_555 1_555
N8 C7 1_555 1_555
N9 N10 1_555 1_555
N11 C12 1_555 1_555
N14 Ag1_2 1_555 1_555
N16 Ag2_2 1_555 1_555
N17 N18 1_555 1_555
N19 C22 1_555 1_555
N22 Ag2A 1_555 1_555
N24 Ag1A 1_555 1_555
C1 C3 1_555 1_555
C2 C7 1_555 1_555
C5 C6 1_555 1_555
C9 C10 1_555 1_555
C11 C13 1_555 1_555
C12 C17 1_555 1_555
C15 C16 1_555 1_555
C19 C20 1_555 1_555
C21 C23 1_555 1_555
C22 C27 1_555 1_555
C25 C26 1_555 1_555
C29 C30 1_555 1_555
N11_2 N12_2 1_555 1_555
N19A N20A 1_555 1_555

#END
