
#######################################################################
#
#                 Cambridge Crystallographic Data Centre
#                                CCDC 
#
#######################################################################
#
# If this CIF has been generated from an entry in the Cambridge 
# Structural Database, then it will include bibliographic, chemical, 
# crystal, experimental, refinement or atomic coordinate data resulting 
# from the CCDC's data processing and validation procedures.
#
#######################################################################

data_TUNDAJ
_symmetry_cell_setting           cubic
_symmetry_space_group_name_H-M   'I -4 3 d'
_symmetry_Int_Tables_number      220
_space_group_name_Hall           'I -4bd 2c 3'
loop_
_symmetry_equiv_pos_site_id
_symmetry_equiv_pos_as_xyz
1 x,y,z
2 1/4+y,3/4-x,1/4-z
3 -x,1/2-y,z
4 1/4-y,1/4+x,3/4-z
5 1/4-x,1/4+z,3/4-y
6 x,-y,1/2-z
7 3/4-x,1/4-z,1/4+y
8 3/4-z,1/4-y,1/4+x
9 1/2-x,y,-z
10 1/4+z,3/4-y,1/4-x
11 z,x,y
12 y,z,x
13 -y,1/2-z,x
14 z,-x,1/2-y
15 1/2-y,z,-x
16 -z,1/2-x,y
17 1/2-z,x,-y
18 y,-z,1/2-x
19 3/4-y,1/4-x,1/4+z
20 1/4+y,1/4+x,1/4+z
21 1/4+x,3/4-z,1/4-y
22 1/4+x,1/4+z,1/4+y
23 1/4-z,1/4+y,3/4-x
24 1/4+z,1/4+y,1/4+x
25 1/2+x,1/2+y,1/2+z
26 3/4+y,1/4-x,3/4-z
27 1/2-x,-y,1/2+z
28 3/4-y,3/4+x,1/4-z
29 3/4-x,3/4+z,1/4-y
30 1/2+x,1/2-y,-z
31 1/4-x,3/4-z,3/4+y
32 1/4-z,3/4-y,3/4+x
33 -x,1/2+y,1/2-z
34 3/4+z,1/4-y,3/4-x
35 1/2+z,1/2+x,1/2+y
36 1/2+y,1/2+z,1/2+x
37 1/2-y,-z,1/2+x
38 1/2+z,1/2-x,-y
39 -y,1/2+z,1/2-x
40 1/2-z,-x,1/2+y
41 -z,1/2+x,1/2-y
42 1/2+y,1/2-z,-x
43 1/4-y,3/4-x,3/4+z
44 3/4+y,3/4+x,3/4+z
45 3/4+x,1/4-z,3/4-y
46 3/4+x,3/4+z,3/4+y
47 3/4-z,3/4+y,1/4-x
48 3/4+z,3/4+y,3/4+x
_cell_length_a                   20.2313(6)
_cell_length_b                   20.2313(6)
_cell_length_c                   20.2313(6)
_cell_angle_alpha                90
_cell_angle_beta                 90
_cell_angle_gamma                90
_cell_volume                     8280.78
loop_
_atom_site_label
_atom_site_type_symbol
_atom_site_fract_x
_atom_site_fract_y
_atom_site_fract_z
Ag1 Ag 0.3753(13) 0.5000 0.2500
N1 N 0.275(4) 0.518(4) 0.327(4)
N2 N 0.372(3) 0.417(3) 0.326(2)
N3 N 0.454(4) 0.410(3) 0.219(3)
C1 C 0.272(3) 0.463(4) 0.368(3)
C2 C 0.225(4) 0.565(4) 0.328(5)
C3 C 0.328(3) 0.417(3) 0.371(3)
C4 C 0.501(4) 0.411(4) 0.168(3)
C5 C 0.171(3) 0.556(3) 0.370(5)
H1 H 0.2270 0.6015 0.3008
H2 H 0.4954 0.4395 0.1324
H3 H 0.1376 0.5873 0.3711
N1E N 0.275(4) 0.482(4) 0.173(4)
N2E N 0.372(3) 0.583(3) 0.174(2)
N3E N 0.454(4) 0.590(3) 0.281(3)
C3K C 0.417(3) 0.371(3) 0.328(3)
C1K C 0.463(4) 0.368(3) 0.272(3)
C1E C 0.272(3) 0.537(4) 0.132(3)
C2E C 0.225(4) 0.435(4) 0.172(5)
C3E C 0.328(3) 0.583(3) 0.129(3)
C3Q C 0.417(3) 0.629(3) 0.172(3)
C1Q C 0.463(4) 0.632(3) 0.228(3)
C4E C 0.501(4) 0.589(4) 0.332(3)
N3J N 0.219(3) 0.454(4) 0.410(3)
N2J N 0.326(2) 0.372(3) 0.417(3)
N2K N 0.417(3) 0.326(2) 0.372(3)
N1K N 0.518(4) 0.327(4) 0.275(4)
C5K C 0.556(3) 0.370(5) 0.171(3)
N3M N 0.219(3) 0.546(4) 0.090(3)
C5E C 0.171(3) 0.444(3) 0.130(5)
H1E H 0.2270 0.3985 0.1992
N2M N 0.326(2) 0.628(3) 0.083(3)
N2Q N 0.417(3) 0.674(2) 0.128(3)
N1Q N 0.518(4) 0.673(4) 0.225(4)
H2E H 0.4954 0.5605 0.3676
C5Q C 0.556(3) 0.630(5) 0.329(3)
C4J C 0.168(3) 0.501(4) 0.411(4)
Ag1J Ag 0.2500 0.3753(13) 0.5000
C3J C 0.371(3) 0.328(3) 0.417(3)
Ag1K Ag 0.5000 0.2500 0.3753(13)
C2K C 0.565(4) 0.328(5) 0.225(4)
H3K H 0.5873 0.3711 0.1376
C4M C 0.168(3) 0.499(4) 0.089(4)
Ag1M Ag 0.2500 0.6247(13) 0.0000
H3E H 0.1376 0.4127 0.1289
C3M C 0.371(3) 0.672(3) 0.083(3)
Ag1Q Ag 0.5000 0.7500 0.1247(13)
C2Q C 0.565(4) 0.672(5) 0.275(4)
H3Q H 0.5873 0.6289 0.3624
H2J H 0.1324 0.4954 0.4395
N1J N 0.327(4) 0.275(4) 0.518(4)
C1J C 0.368(3) 0.272(3) 0.463(4)
N3K N 0.410(3) 0.219(3) 0.454(4)
N2L N 0.583(3) 0.174(2) 0.372(3)
N3L N 0.590(3) 0.281(3) 0.454(4)
N1L N 0.482(4) 0.173(4) 0.275(4)
H1K H 0.6015 0.3008 0.2270
H2M H 0.1324 0.5046 0.0605
N1M N 0.327(4) 0.725(4) -0.018(4)
C1M C 0.368(3) 0.728(3) 0.037(4)
N3Q N 0.410(3) 0.781(3) 0.046(4)
H1Q H 0.6015 0.6992 0.2730
C2J C 0.328(5) 0.225(4) 0.565(4)
C4K C 0.411(4) 0.168(3) 0.501(4)
C2M C 0.328(5) 0.775(4) -0.065(4)
C4Q C 0.411(4) 0.832(3) -0.001(4)
C5J C 0.370(5) 0.171(3) 0.556(3)
H1J H 0.3008 0.2270 0.6015
H2K H 0.4395 0.1324 0.4954
C5M C 0.370(5) 0.829(3) -0.056(3)
H1M H 0.3008 0.7730 -0.1015
H2Q H 0.4395 0.8676 0.0046
H3J H 0.3711 0.1376 0.5873
H3M H 0.3711 0.8624 -0.0873
Cl1 Cl 0.508(2) 0.508(2) 0.508(2)
O1 O 0.467(3) 0.467(3) 0.467(3)
O2 O 0.466(3) 0.538(3) 0.559(4)
O2J O 0.559(4) 0.466(3) 0.538(3)
O2K O 0.538(3) 0.559(4) 0.466(3)
loop_
_geom_bond_atom_site_label_1
_geom_bond_atom_site_label_2
_geom_bond_site_symmetry_1
_geom_bond_site_symmetry_2
Ag1 N1 1_555 1_555
N1 C1 1_555 1_555
N2 Ag1 1_555 1_555
N3 Ag1 1_555 1_555
C1 C3 1_555 1_555
C2 N1 1_555 1_555
C3 N2 1_555 1_555
C4 N3 1_555 1_555
C5 C2 1_555 1_555
H1 C2 1_555 1_555
H2 C4 1_555 1_555
H3 C5 1_555 1_555
Cl1 O1 1_555 1_555
O2 Cl1 1_555 1_555
N1E Ag1 1_555 1_555
N2E Ag1 1_555 1_555
N3E Ag1 1_555 1_555
C3K N2 1_555 1_555
C1K N3 1_555 1_555
C1E N1E 1_555 1_555
C2E N1E 1_555 1_555
C3E N2E 1_555 1_555
C3Q N2E 1_555 1_555
C1Q N3E 1_555 1_555
C4E N3E 1_555 1_555
N3J C1 1_555 1_555
N2J C3 1_555 1_555
N2K C3K 1_555 1_555
N1K C1K 1_555 1_555
C5K C4 1_555 1_555
N3M C1E 1_555 1_555
C5E C2E 1_555 1_555
H1E C2E 1_555 1_555
N2M C3E 1_555 1_555
N2Q C3Q 1_555 1_555
N1Q C1Q 1_555 1_555
H2E C4E 1_555 1_555
C5Q C4E 1_555 1_555
C4J C5 1_555 1_555
Ag1J N3J 1_555 1_555
C3J N2J 1_555 1_555
Ag1K N2K 1_555 1_555
C2K N1K 1_555 1_555
H3K C5K 1_555 1_555
C4M N3M 1_555 1_555
Ag1M N3M 1_555 1_555
H3E C5E 1_555 1_555
C3M N2M 1_555 1_555
Ag1Q N2Q 1_555 1_555
C2Q N1Q 1_555 1_555
H3Q C5Q 1_555 1_555
H2J C4J 1_555 1_555
N1J Ag1J 1_555 1_555
C1J C3J 1_555 1_555
N3K Ag1K 1_555 1_555
N2L Ag1K 1_555 1_555
N3L Ag1K 1_555 1_555
N1L Ag1K 1_555 1_555
H1K C2K 1_555 1_555
H2M C4M 1_555 1_555
N1M Ag1M 1_555 1_555
C1M C3M 1_555 1_555
N3Q Ag1Q 1_555 1_555
H1Q C2Q 1_555 1_555
C2J N1J 1_555 1_555
C4K N3K 1_555 1_555
C2M N1M 1_555 1_555
C4Q N3Q 1_555 1_555
C5J C2J 1_555 1_555
H1J C2J 1_555 1_555
H2K C4K 1_555 1_555
C5M C2M 1_555 1_555
H1M C2M 1_555 1_555
H2Q C4Q 1_555 1_555
H3J C5J 1_555 1_555
H3M C5M 1_555 1_555
O2J Cl1 1_555 1_555
O2K Cl1 1_555 1_555
C3K C1K 1_555 1_555
C1E C3E 1_555 1_555
C3Q C1Q 1_555 1_555
N3J C4J 1_555 1_555
N2J Ag1J 1_555 1_555
N2K C3J 1_555 1_555
N1K Ag1K 1_555 1_555
C5K C2K 1_555 1_555
C5E C4M 1_555 1_555
N2M Ag1M 1_555 1_555
N2Q C3M 1_555 1_555
N1Q Ag1Q 1_555 1_555
C5Q C2Q 1_555 1_555
N1J C1J 1_555 1_555
C1J N3K 1_555 1_555
N1M C1M 1_555 1_555
C1M N3Q 1_555 1_555
C4K C5J 1_555 1_555
C4Q C5M 1_555 1_555

#END
