
#######################################################################
#
#                 Cambridge Crystallographic Data Centre
#                                CCDC 
#
#######################################################################
#
# If this CIF has been generated from an entry in the Cambridge 
# Structural Database, then it will include bibliographic, chemical, 
# crystal, experimental, refinement or atomic coordinate data resulting 
# from the CCDC's data processing and validation procedures.
#
#######################################################################

data_TUNFAJ
_symmetry_cell_setting           cubic
_symmetry_space_group_name_H-M   'P 21 3'
_symmetry_Int_Tables_number      198
_space_group_name_Hall           'P 2ac 2ab 3'
loop_
_symmetry_equiv_pos_site_id
_symmetry_equiv_pos_as_xyz
1 x,y,z
2 1/2-x,-y,1/2+z
3 1/2+x,1/2-y,-z
4 z,x,y
5 -x,1/2+y,1/2-z
6 1/2-z,-x,1/2+y
7 1/2+z,1/2-x,-y
8 -z,1/2+x,1/2-y
9 y,z,x
10 1/2+y,1/2-z,-x
11 -y,1/2+z,1/2-x
12 1/2-y,-z,1/2+x
_cell_length_a                   15.518(2)
_cell_length_b                   15.518(2)
_cell_length_c                   15.518(2)
_cell_angle_alpha                90
_cell_angle_beta                 90
_cell_angle_gamma                90
_cell_volume                     3736.86
loop_
_atom_site_label
_atom_site_type_symbol
_atom_site_fract_x
_atom_site_fract_y
_atom_site_fract_z
Ni1 Ni 0.37642(2) 0.62358(2) 0.12358(2)
C3 C 0.3776(2) 0.7158(2) -0.0410(2)
N1 N 0.3767(2) 0.6343(2) -0.0106(1)
C4 C 0.3799(3) 0.5682(2) -0.0665(2)
C5 C 0.3842(3) 0.5805(3) -0.1550(2)
C6 C 0.3843(3) 0.6634(4) -0.1860(2)
C7 C 0.3808(2) 0.7322(3) -0.1298(2)
C8 C 0.3753(2) 0.7843(2) 0.0257(2)
N2 N 0.3726(2) 0.7572(1) 0.1082(2)
C9 C 0.3679(3) 0.8149(2) 0.1719(3)
C10 C 0.3662(3) 0.9033(2) 0.1555(4)
C11 C 0.3697(3) 0.9316(2) 0.0723(4)
C12 C 0.3743(2) 0.8720(2) 0.0052(3)
H1 H 0.386(3) 0.512(3) -0.044(3)
H2 H 0.388(4) 0.534(4) -0.192(4)
H3 H 0.392(4) 0.672(4) -0.243(4)
H4 H 0.383(3) 0.785(3) -0.150(3)
H5 H 0.367(4) 0.790(4) 0.235(4)
H6 H 0.363(4) 0.939(4) 0.201(4)
H7 H 0.373(4) 0.986(5) 0.060(4)
H8 H 0.367(4) 0.890(4) -0.060(4)
N1E N 0.5106(1) 0.6233(2) 0.1343(2)
C3E C 0.5410(2) 0.6224(2) 0.2158(2)
C7E C 0.6298(2) 0.6192(2) 0.2322(3)
C6E C 0.6860(2) 0.6157(3) 0.1634(4)
C5E C 0.6550(2) 0.6158(3) 0.0805(3)
C4E C 0.5665(2) 0.6201(3) 0.0682(2)
H1E H 0.544(3) 0.614(3) 0.012(3)
H2E H 0.692(4) 0.612(4) 0.034(4)
H3E H 0.743(4) 0.608(4) 0.172(4)
H4E H 0.650(3) 0.617(3) 0.285(3)
C8E C 0.4743(2) 0.6247(2) 0.2843(2)
N2E N 0.3918(2) 0.6274(2) 0.2572(1)
N1J N 0.3657(2) 0.4894(1) 0.1233(2)
C3J C 0.2842(2) 0.4590(2) 0.1224(2)
C7J C 0.2678(3) 0.3702(2) 0.1192(2)
C6J C 0.3366(4) 0.3140(2) 0.1157(3)
C5J C 0.4195(3) 0.3450(2) 0.1158(3)
C4J C 0.4318(2) 0.4335(2) 0.1201(3)
H1J H 0.488(3) 0.456(3) 0.114(3)
H2J H 0.466(4) 0.308(4) 0.112(4)
H3J H 0.328(4) 0.257(4) 0.108(4)
H4J H 0.215(3) 0.350(3) 0.117(3)
C8J C 0.2157(2) 0.5257(2) 0.1247(2)
N2J N 0.2428(1) 0.6082(2) 0.1274(2)
C9J C 0.1851(2) 0.6719(3) 0.1321(3)
C10J C 0.0967(2) 0.6555(4) 0.1338(3)
C11J C 0.0684(2) 0.5723(4) 0.1303(3)
C12J C 0.1280(2) 0.5052(3) 0.1257(2)
H8J H 0.110(4) 0.440(4) 0.133(4)
H7J H 0.014(5) 0.560(4) 0.127(4)
H6J H 0.061(4) 0.701(4) 0.137(4)
H5J H 0.210(4) 0.735(4) 0.133(4)
C9E C 0.3281(3) 0.6321(3) 0.3149(2)
C10E C 0.3445(4) 0.6338(3) 0.4033(2)
C11E C 0.4277(4) 0.6303(3) 0.4316(2)
C12E C 0.4948(3) 0.6257(2) 0.3720(2)
H8E H 0.560(4) 0.633(4) 0.390(4)
H7E H 0.440(4) 0.627(4) 0.486(5)
H6E H 0.299(4) 0.637(4) 0.439(4)
H5E H 0.265(4) 0.633(4) 0.290(4)
Al1 Al 0.14660(5) 0.85340(5) 0.35340(5)
Na1 Na -0.09639(9) 0.59639(9) 0.40361(9)
O1 O 0.1447(1) 0.7314(1) 0.3577(2)
O2 O 0.0241(1) 0.8441(1) 0.3653(2)
C1 C 0.0708(2) 0.6984(2) 0.3738(2)
C2 C -0.0029(2) 0.7671(2) 0.3751(2)
O3 O 0.0551(2) 0.6222(2) 0.3875(2)
O4 O -0.0782(1) 0.7461(1) 0.3851(2)
O1E O 0.1423(2) 0.8553(1) 0.2314(1)
O2E O 0.1347(2) 0.9759(1) 0.3441(1)
O1J O 0.2686(1) 0.8577(2) 0.3553(1)
O2J O 0.1559(1) 0.8653(2) 0.4759(1)
O3F O -0.1125(2) 0.4449(2) 0.3778(2)
C1F C -0.1262(2) 0.4292(2) 0.3016(2)
O1F O -0.1423(2) 0.3553(1) 0.2686(1)
Al1F Al -0.14660(5) 0.35340(5) 0.14660(5)
C2F C -0.1249(2) 0.5029(2) 0.2329(2)
O2F O -0.1347(2) 0.4759(1) 0.1559(1)
O4F O -0.1149(2) 0.5782(1) 0.2539(1)
O3K O -0.1222(2) 0.6125(2) 0.5551(2)
C1K C -0.1984(2) 0.6262(2) 0.5708(2)
O1K O -0.2314(1) 0.6423(2) 0.6447(1)
Al1K Al -0.35340(5) 0.64660(5) 0.64660(5)
C2K C -0.2671(2) 0.6249(2) 0.4971(2)
O2K O -0.3441(1) 0.6347(2) 0.5241(1)
O4K O -0.2461(1) 0.6149(2) 0.4218(1)
loop_
_geom_bond_atom_site_label_1
_geom_bond_atom_site_label_2
_geom_bond_site_symmetry_1
_geom_bond_site_symmetry_2
Ni1 N1 1_555 1_555
Al1 O1 1_555 1_555
Na1 O3 1_555 1_555
O1 C1 1_555 1_555
O2 Al1 1_555 1_555
C1 C2 1_555 1_555
C2 O2 1_555 1_555
O3 C1 1_555 1_555
O4 Na1 1_555 1_555
C3 N1 1_555 1_555
N1 C4 1_555 1_555
C4 C5 1_555 1_555
C5 C6 1_555 1_555
C6 C7 1_555 1_555
C7 C3 1_555 1_555
C8 C3 1_555 1_555
N2 Ni1 1_555 1_555
C9 N2 1_555 1_555
C10 C9 1_555 1_555
C11 C10 1_555 1_555
C12 C8 1_555 1_555
H1 C4 1_555 1_555
H2 C5 1_555 1_555
H3 C6 1_555 1_555
H4 C7 1_555 1_555
H5 C9 1_555 1_555
H6 C10 1_555 1_555
H7 C11 1_555 1_555
H8 C12 1_555 1_555
N1E Ni1 1_555 1_555
C3E N1E 1_555 1_555
C7E C3E 1_555 1_555
C6E C7E 1_555 1_555
C5E C6E 1_555 1_555
C4E N1E 1_555 1_555
H1E C4E 1_555 1_555
H2E C5E 1_555 1_555
H3E C6E 1_555 1_555
H4E C7E 1_555 1_555
C8E C3E 1_555 1_555
N2E Ni1 1_555 1_555
N1J Ni1 1_555 1_555
C3J N1J 1_555 1_555
C7J C3J 1_555 1_555
C6J C7J 1_555 1_555
C5J C6J 1_555 1_555
C4J N1J 1_555 1_555
H1J C4J 1_555 1_555
H2J C5J 1_555 1_555
H3J C6J 1_555 1_555
H4J C7J 1_555 1_555
C8J C3J 1_555 1_555
N2J Ni1 1_555 1_555
C9J N2J 1_555 1_555
C10J C9J 1_555 1_555
C11J C10J 1_555 1_555
C12J C8J 1_555 1_555
H8J C12J 1_555 1_555
H7J C11J 1_555 1_555
H6J C10J 1_555 1_555
H5J C9J 1_555 1_555
C9E N2E 1_555 1_555
C10E C9E 1_555 1_555
C11E C10E 1_555 1_555
C12E C8E 1_555 1_555
H8E C12E 1_555 1_555
H7E C11E 1_555 1_555
H6E C10E 1_555 1_555
H5E C9E 1_555 1_555
O1E Al1 1_555 1_555
O2E Al1 1_555 1_555
O1J Al1 1_555 1_555
O2J Al1 1_555 1_555
O3F Na1 1_555 1_555
C1F O3F 1_555 1_555
O1F C1F 1_555 1_555
Al1F O1F 1_555 1_555
C2F C1F 1_555 1_555
O2F Al1F 1_555 1_555
O4F Na1 1_555 1_555
O3K Na1 1_555 1_555
C1K O3K 1_555 1_555
O1K C1K 1_555 1_555
Al1K O1K 1_555 1_555
C2K C1K 1_555 1_555
O2K Al1K 1_555 1_555
O4K Na1 1_555 1_555
C2 O4 1_555 1_555
C8 N2 1_555 1_555
C11 C12 1_555 1_555
C5E C4E 1_555 1_555
C8E N2E 1_555 1_555
C5J C4J 1_555 1_555
C8J N2J 1_555 1_555
C11J C12J 1_555 1_555
C11E C12E 1_555 1_555
C2F O2F 1_555 1_555
C2F O4F 1_555 1_555
C2K O2K 1_555 1_555
C2K O4K 1_555 1_555

#END
