
#######################################################################
#
#                 Cambridge Crystallographic Data Centre
#                                CCDC 
#
#######################################################################
#
# If this CIF has been generated from an entry in the Cambridge 
# Structural Database, then it will include bibliographic, chemical, 
# crystal, experimental, refinement or atomic coordinate data resulting 
# from the CCDC's data processing and validation procedures.
#
#######################################################################

data_TUNJIX
_symmetry_cell_setting           monoclinic
_symmetry_space_group_name_H-M   'P 21/c'
_symmetry_Int_Tables_number      14
_space_group_name_Hall           '-P 2ybc'
loop_
_symmetry_equiv_pos_site_id
_symmetry_equiv_pos_as_xyz
1 x,y,z
2 -x,1/2+y,1/2-z
3 -x,-y,-z
4 x,1/2-y,1/2+z
_cell_length_a                   9.7594(6)
_cell_length_b                   20.6475(6)
_cell_length_c                   16.4938(7)
_cell_angle_alpha                90
_cell_angle_beta                 98.508(5)
_cell_angle_gamma                90
_cell_volume                     3287.04
loop_
_atom_site_label
_atom_site_type_symbol
_atom_site_fract_x
_atom_site_fract_y
_atom_site_fract_z
Br1 Br -0.13764(17) 0.42798(6) 0.33147(8)
Br2 Br 0.12623(18) 0.05950(6) 0.34276(9)
Br3 Br -0.25849(19) 0.57020(6) 0.38448(10)
Br4 Br 0.1588(2) -0.09698(6) 0.38765(9)
Co1 Co 0.13562(19) 0.24996(7) 0.43298(10)
C1 C 0.0672(12) -0.0412(5) 0.4529(6)
O1 O 0.0500(9) 0.3248(3) 0.4818(5)
C2 C -0.1055(12) 0.5308(5) 0.4493(6)
O2 O 0.0901(9) 0.1694(3) 0.4868(5)
C3 C 0.0548(12) 0.0251(5) 0.4354(7)
N1 N 1.0800(11) 0.2583(4) 0.8118(5)
C4 C -0.0607(13) 0.4700(5) 0.4288(7)
O3 O -0.1270(10) 0.1609(4) 0.4245(6)
O4 O 0.1890(10) 0.3745(4) 0.4069(6)
N2 N 0.3433(11) 0.2431(4) 0.4569(7)
N3 N 0.9663(14) 0.2673(5) 0.6874(6)
N4 N 0.5650(10) 0.2655(5) 0.4632(6)
C5 C 0.0497(12) 0.4397(4) 0.4794(7)
C6 C 0.1038(15) 0.3758(5) 0.4531(7)
C7 C -0.0129(12) 0.0656(4) 0.4827(7)
C8 C 0.8487(17) 0.2710(6) 0.6198(8)
H1 H 0.7730 0.2447 0.6337
H2 H 0.8770 0.2530 0.5705
C9 C 0.6931(13) 0.3048(6) 0.4603(7)
H3 H 0.7722 0.2760 0.4637
H4 H 0.6847 0.3274 0.4082
C10 C 0.6868(16) 0.4623(6) 0.5729(10)
H5 H 0.6452 0.5027 0.5641
C11 C 0.9591(13) 0.2561(5) 0.7686(8)
H6 H 0.8775 0.2479 0.7897
C12 C 0.7175(12) 0.3525(5) 0.5274(7)
C13 C 0.7723(17) 0.4489(7) 0.6459(11)
H7 H 0.7935 0.4812 0.6850
C14 C -0.0182(14) 0.1387(5) 0.4625(7)
C15 C 0.6642(14) 0.4150(6) 0.5136(9)
H8 H 0.6123 0.4249 0.4631
C16 C 0.4327(12) 0.2880(6) 0.4511(8)
H9 H 0.4094 0.3311 0.4398
C17 C 0.7982(14) 0.3390(5) 0.6027(8)
C18 C 1.1040(19) 0.2786(9) 0.6791(9)
H10 H 1.1438 0.2879 0.6326
C19 C 0.8263(19) 0.3868(7) 0.6604(10)
H11 H 0.8821 0.3777 0.7099
C20 C 0.5585(15) 0.2019(7) 0.4747(12)
H12 H 0.6324 0.1731 0.4835
C21 C 0.4228(17) 0.1877(6) 0.4709(14)
H13 H 0.3877 0.1464 0.4768
C22 C 1.1643(17) 0.2721(9) 0.7594(9)
H14 H 1.2591 0.2771 0.7755
Br1B Br 0.13764(17) 0.57202(6) 0.66853(8)
Br3B Br 0.25849(19) 0.42980(6) 0.61552(10)
O1B O -0.0500(9) 0.6752(3) 0.5182(5)
C2B C 0.1055(12) 0.4692(5) 0.5507(6)
C4B C 0.0607(13) 0.5300(5) 0.5712(7)
O4B O -0.1890(10) 0.6255(4) 0.5931(6)
C5B C -0.0497(12) 0.5603(4) 0.5206(7)
C6B C -0.1038(15) 0.6242(5) 0.5469(7)
Br2B Br -0.12623(18) -0.05950(6) 0.65724(9)
Br4B Br -0.1588(2) 0.09698(6) 0.61235(9)
C1B C -0.0672(12) 0.0412(5) 0.5471(6)
O2B O -0.0901(9) -0.1694(3) 0.5132(5)
C3B C -0.0548(12) -0.0251(5) 0.5646(7)
O3B O 0.1270(10) -0.1609(4) 0.5755(6)
C7B C 0.0129(12) -0.0656(4) 0.5173(7)
C14B C 0.0182(14) -0.1387(5) 0.5375(7)
Co1B Co -0.13562(19) -0.24996(7) 0.56702(10)
N1B N -1.0800(11) -0.2583(4) 0.1882(5)
N2B N -0.3433(11) -0.2431(4) 0.5431(7)
N3B N -0.9663(14) -0.2673(5) 0.3126(6)
N4B N -0.5650(10) -0.2655(5) 0.5368(6)
C8B C -0.8487(17) -0.2710(6) 0.3802(8)
H1B H -0.7730 -0.2447 0.3663
H2B H -0.8770 -0.2530 0.4295
C9B C -0.6931(13) -0.3048(6) 0.5397(7)
H3B H -0.7722 -0.2760 0.5363
H4B H -0.6847 -0.3274 0.5918
C10B C -0.6868(16) -0.4623(6) 0.4271(10)
H5B H -0.6452 -0.5027 0.4359
C11B C -0.9591(13) -0.2561(5) 0.2314(8)
H6B H -0.8775 -0.2479 0.2103
C12B C -0.7175(12) -0.3525(5) 0.4726(7)
C13B C -0.7723(17) -0.4489(7) 0.3541(11)
H7B H -0.7935 -0.4812 0.3150
C15B C -0.6642(14) -0.4150(6) 0.4864(9)
H8B H -0.6123 -0.4249 0.5369
C16B C -0.4327(12) -0.2880(6) 0.5489(8)
H9B H -0.4094 -0.3311 0.5602
C17B C -0.7982(14) -0.3390(5) 0.3973(8)
C18B C -1.1040(19) -0.2786(9) 0.3209(9)
H10B H -1.1438 -0.2879 0.3674
C19B C -0.8263(19) -0.3868(7) 0.3396(10)
H11B H -0.8821 -0.3777 0.2901
C20B C -0.5585(15) -0.2019(7) 0.5253(12)
H12B H -0.6324 -0.1731 0.5165
C21B C -0.4228(17) -0.1877(6) 0.5291(14)
H13B H -0.3877 -0.1464 0.5232
C22B C -1.1643(17) -0.2721(9) 0.2406(9)
H14B H -1.2591 -0.2771 0.2245
Co1A Co -1.13562(19) -0.25004(7) 0.06702(10)
Co1B_2 Co -0.13562(19) 0.75004(7) 0.56702(10)
Co1C Co 1.13562(19) 0.25004(7) 0.93298(10)
O1B_2 O -0.0500(9) -0.3248(3) 0.5182(5)
N1A N -0.0800(11) -0.2417(4) 0.6882(5)
N1C N 0.0800(11) 0.2417(4) 0.3118(5)
loop_
_geom_bond_atom_site_label_1
_geom_bond_atom_site_label_2
_geom_bond_site_symmetry_1
_geom_bond_site_symmetry_2
Br1 C4 1_555 1_555
Br2 C3 1_555 1_555
Br3 C2 1_555 1_555
Br4 C1 1_555 1_555
Co1 O1 1_555 1_555
C1 C3 1_555 1_555
O1 C6 1_555 1_555
C2 C4 1_555 1_555
O2 Co1 1_555 1_555
C3 C7 1_555 1_555
N1 C11 1_555 1_555
C4 C5 1_555 1_555
O3 C14 1_555 1_555
O4 C6 1_555 1_555
N2 Co1 1_555 1_555
N3 C8 1_555 1_555
N4 C9 1_555 1_555
C5 C6 1_555 1_555
C7 C14 1_555 1_555
C8 H1 1_555 1_555
H2 C8 1_555 1_555
C9 H3 1_555 1_555
H4 C9 1_555 1_555
C10 H5 1_555 1_555
C11 N3 1_555 1_555
H6 C11 1_555 1_555
C12 C9 1_555 1_555
C13 C10 1_555 1_555
H7 C13 1_555 1_555
C14 O2 1_555 1_555
C15 C10 1_555 1_555
H8 C15 1_555 1_555
C16 N2 1_555 1_555
H9 C16 1_555 1_555
C17 C8 1_555 1_555
C18 N3 1_555 1_555
H10 C18 1_555 1_555
C19 C13 1_555 1_555
H11 C19 1_555 1_555
C20 N4 1_555 1_555
H12 C20 1_555 1_555
C21 N2 1_555 1_555
H13 C21 1_555 1_555
C22 N1 1_555 1_555
H14 C22 1_555 1_555
Br1B C4B 1_555 1_555
Br3B C2B 1_555 1_555
O1B C6B 1_555 1_555
C2B C5 1_555 1_555
C4B C2B 1_555 1_555
O4B C6B 1_555 1_555
C5B C2 1_555 1_555
C6B C5B 1_555 1_555
Br2B C3B 1_555 1_555
Br4B C1B 1_555 1_555
C1B C7 1_555 1_555
O2B C14B 1_555 1_555
C3B C1B 1_555 1_555
O3B C14B 1_555 1_555
C7B C1 1_555 1_555
C14B C7B 1_555 1_555
Co1B O2B 1_555 1_555
N1B C11B 1_555 1_555
N2B Co1B 1_555 1_555
N3B C8B 1_555 1_555
N4B C9B 1_555 1_555
C8B H1B 1_555 1_555
H2B C8B 1_555 1_555
C9B H3B 1_555 1_555
H4B C9B 1_555 1_555
C10B H5B 1_555 1_555
C11B N3B 1_555 1_555
H6B C11B 1_555 1_555
C12B C9B 1_555 1_555
C13B C10B 1_555 1_555
H7B C13B 1_555 1_555
C15B C10B 1_555 1_555
H8B C15B 1_555 1_555
C16B N2B 1_555 1_555
H9B C16B 1_555 1_555
C17B C8B 1_555 1_555
C18B N3B 1_555 1_555
H10B C18B 1_555 1_555
C19B C13B 1_555 1_555
H11B C19B 1_555 1_555
C20B N4B 1_555 1_555
H12B C20B 1_555 1_555
C21B N2B 1_555 1_555
H13B C21B 1_555 1_555
C22B N1B 1_555 1_555
H14B C22B 1_555 1_555
Co1A N1B 1_555 1_555
Co1B_2 O1B 1_555 1_555
Co1C N1 1_555 1_555
O1B_2 Co1B 1_555 1_555
N1A Co1B 1_555 1_555
N1C Co1 1_555 1_555
N4 C16 1_555 1_555
C12 C15 1_555 1_555
C12 C17 1_555 1_555
C17 C19 1_555 1_555
C18 C22 1_555 1_555
C20 C21 1_555 1_555
C4B C5B 1_555 1_555
C3B C7B 1_555 1_555
N4B C16B 1_555 1_555
C12B C15B 1_555 1_555
C12B C17B 1_555 1_555
C17B C19B 1_555 1_555
C18B C22B 1_555 1_555
C20B C21B 1_555 1_555

#END
