
#######################################################################
#
#                 Cambridge Crystallographic Data Centre
#                                CCDC 
#
#######################################################################
#
# If this CIF has been generated from an entry in the Cambridge 
# Structural Database, then it will include bibliographic, chemical, 
# crystal, experimental, refinement or atomic coordinate data resulting 
# from the CCDC's data processing and validation procedures.
#
#######################################################################

data_TUNJET
_symmetry_cell_setting           monoclinic
_symmetry_space_group_name_H-M   'I 2/c'
_symmetry_Int_Tables_number      15
_space_group_name_Hall           '-I 2yc'
loop_
_symmetry_equiv_pos_site_id
_symmetry_equiv_pos_as_xyz
1 x,y,z
2 -x,y,1/2-z
3 1/2+x,1/2+y,1/2+z
4 1/2-x,1/2+y,-z
5 -x,-y,-z
6 x,-y,1/2+z
7 1/2-x,1/2-y,1/2-z
8 1/2+x,1/2-y,z
_cell_length_a                   20.4029(5)
_cell_length_b                   17.3310(5)
_cell_length_c                   38.6793(15)
_cell_angle_alpha                90
_cell_angle_beta                 91.038(3)
_cell_angle_gamma                90
_cell_volume                     13674.9
loop_
_atom_site_label
_atom_site_type_symbol
_atom_site_fract_x
_atom_site_fract_y
_atom_site_fract_z
Br1 Br 0.57316(6) 0.34690(7) 0.60709(3)
Br2 Br 0.43298(6) 0.67064(7) 0.64985(4)
Br3 Br 0.58235(6) 0.62621(8) 0.68045(4)
Br4 Br -0.04704(6) 0.31562(8) 0.62378(5)
Br5 Br 0.05093(7) 0.67333(8) 0.62129(6)
Br6 Br 0.11161(6) 0.35849(8) 0.62752(6)
Br7 Br -0.10859(6) 0.63080(8) 0.62441(6)
Br8 Br 0.42580(6) 0.39326(9) 0.57555(4)
Co1 Co 0.25287(6) 0.57651(8) 0.58626(3)
Co2 Co 0.75027(6) 0.43134(8) 0.67051(3)
N1 N 0.2469(4) 0.6890(5) 0.5991(2)
N2 N 0.7556(5) 0.1847(5) 0.8250(2)
O1 O 0.6326(3) 0.4294(4) 0.68208(18)
N3 N 0.2325(4) 1.0467(5) 0.5203(2)
O2 O 0.1654(3) 0.5316(4) 0.59431(18)
O3 O 0.6852(3) 0.4870(4) 0.64023(18)
O4 O 0.3255(3) 0.5263(4) 0.61206(18)
O5 O -0.1691(4) 0.4474(5) 0.5998(2)
O6 O 0.3761(3) 0.5970(5) 0.57356(19)
C1 C -0.0445(5) 0.5527(6) 0.6237(3)
C2 C 0.1136(6) 0.8475(8) 0.5643(4)
H1 H 0.1242 0.7987 0.5727
C3 C 0.0477(5) 0.4370(6) 0.6255(3)
N4 N 0.7354(4) 0.5113(5) 0.7713(2)
O7 O 0.1698(4) 0.5473(5) 0.6514(2)
C4 C 0.0220(5) 0.5698(6) 0.6235(3)
C5 C 0.3769(5) 0.5539(6) 0.5978(3)
N5 N 0.2557(4) 1.0591(5) 0.4652(2)
O8 O -0.1597(3) 0.4549(5) 0.65697(18)
C6 C -0.0188(5) 0.4195(6) 0.6252(3)
C7 C 0.2502(5) 0.7472(6) 0.5774(3)
H2 H 0.2590 0.7420 0.5540
C8 C 0.2320(5) 0.8904(6) 0.5764(3)
H3 H 0.2612 0.8934 0.5569
H4 H 0.2446 0.9304 0.5928
C9 C -0.0654(4) 0.4773(6) 0.6252(2)
C10 C 0.0521(7) 0.8621(9) 0.5529(4)
H5 H 0.0205 0.8235 0.5537
C11 C 0.5382(5) 0.5611(6) 0.6490(3)
C12 C 0.4756(5) 0.5789(5) 0.6360(3)
C13 C 0.4729(5) 0.4611(6) 0.6051(3)
C14 C 0.6325(5) 0.4673(6) 0.6554(3)
N6 N 0.2391(4) 0.8149(5) 0.5930(2)
C15 C 0.6398(5) 0.4755(6) 0.8060(2)
N7 N 0.7361(5) 0.3094(5) 0.8297(2)
C16 C 0.5680(4) 0.4920(5) 0.6399(2)
C17 C 0.5268(6) 0.4443(9) 0.7928(3)
H6 H 0.4865 0.4570 0.7827
N8 N 0.7598(4) 0.4746(5) 0.7190(2)
C18 C 0.5940(6) 0.3556(8) 0.8238(3)
H7 H 0.5990 0.3077 0.8343
C19 C 0.0687(4) 0.5121(6) 0.6244(2)
C20 C 0.0355(6) 0.9348(9) 0.5401(3)
H8 H -0.0069 0.9446 0.5319
C21 C 0.4423(5) 0.5307(6) 0.6140(3)
C22 C 0.1443(5) 0.9786(6) 0.5516(2)
C23 C 0.2088(5) 1.0610(6) 0.4887(3)
H9 H 0.1650 1.0711 0.4836
C24 C 0.1620(5) 0.9050(7) 0.5637(3)
C25 C 0.6954(5) 0.5323(6) 0.8015(3)
H10 H 0.6775 0.5838 0.7982
H11 H 0.7229 0.5328 0.8222
C26 C 0.1414(5) 0.5312(6) 0.6239(3)
C27 C 0.5344(5) 0.4437(6) 0.6180(3)
C28 C 0.8010(6) 0.5185(9) 0.7685(3)
H12 H 0.8304 0.5360 0.7854
C29 C 0.2271(6) 0.7983(7) 0.6264(3)
H13 H 0.2171 0.8337 0.6436
C30 C 0.7282(6) 0.2397(7) 0.8429(3)
H14 H 0.7052 0.2306 0.8630
C31 C 0.3115(5) 1.0418(7) 0.4834(3)
H15 H 0.3527 1.0354 0.4740
C32 C 0.7105(6) 0.3835(7) 0.8415(3)
H16 H 0.7021 0.3805 0.8660
H17 H 0.7434 0.4231 0.8381
C33 C 0.1933(5) 1.0447(6) 0.5516(3)
H18 H 0.1699 1.0931 0.5537
H19 H 0.2224 1.0398 0.5716
C34 C 0.0820(6) 0.9918(8) 0.5396(3)
H20 H 0.0709 1.0403 0.5310
C35 C 0.2322(6) 0.7223(7) 0.6303(3)
H21 H 0.2266 0.6958 0.6509
C36 C 0.6475(5) 0.4069(6) 0.8223(3)
C37 C 0.5785(6) 0.4929(8) 0.7911(3)
H22 H 0.5731 0.5396 0.7796
C38 C 0.7121(5) 0.4851(6) 0.7414(3)
H23 H 0.6681 0.4752 0.7367
C39 C 0.5355(7) 0.3763(10) 0.8098(4)
H24 H 0.5001 0.3430 0.8118
C40 C 0.8156(5) 0.4947(9) 0.7356(3)
H25 H 0.8573 0.4928 0.7263
C41 C -0.1389(5) 0.4576(6) 0.6266(3)
C42 C 0.7825(8) 0.2224(8) 0.7972(4)
H26 H 0.8048 0.1983 0.7795
C43 C 0.7720(8) 0.2997(8) 0.7994(4)
H27 H 0.7856 0.3378 0.7842
C44 C 0.2975(5) 1.0352(7) 0.5177(3)
H28 H 0.3271 1.0249 0.5356
Co1C Co 0.24713(6) 1.07651(8) 0.41374(3)
Co2_2 Co -0.24973(6) 0.43134(8) 0.67051(3)
Co2F Co 0.74973(6) 0.06866(8) 0.82949(3)
N2F N 0.7444(5) 0.3153(5) 0.6750(2)
N5C N 0.2443(4) 0.5591(5) 0.5348(2)
O8_2 O 0.8403(3) 0.4549(5) 0.65697(18)
O9 O 0.2953(7) 0.2886(8) 0.5741(3)
O10 O 0.2652(7) 0.2878(8) 0.5033(3)
C45 C 0.3075(12) 0.2229(11) 0.5542(5)
H29 H 0.2705 0.1880 0.5553
H30 H 0.3458 0.1963 0.5634
C46 C 0.2483(12) 0.3339(17) 0.5602(5)
H31 H 0.2122 0.3505 0.5725
C47 C 0.3187(12) 0.2440(12) 0.5178(5)
H32 H 0.3586 0.2741 0.5165
H33 H 0.3245 0.1974 0.5043
C48 C 0.2589(14) 0.3555(12) 0.5232(5)
H34 H 0.2222 0.3858 0.5146
H35 H 0.2983 0.3865 0.5215
loop_
_geom_bond_atom_site_label_1
_geom_bond_atom_site_label_2
_geom_bond_site_symmetry_1
_geom_bond_site_symmetry_2
Br1 C27 1_555 1_555
Br2 C12 1_555 1_555
Br3 C11 1_555 1_555
Br4 C6 1_555 1_555
Br5 C4 1_555 1_555
Br6 C3 1_555 1_555
Br7 C1 1_555 1_555
Br8 C13 1_555 1_555
Co1 N1 1_555 1_555
Co2 O1 1_555 1_555
N1 C7 1_555 1_555
N2 C30 1_555 1_555
O1 C14 1_555 1_555
N3 C23 1_555 1_555
O2 Co1 1_555 1_555
O3 Co2 1_555 1_555
O4 Co1 1_555 1_555
O5 C41 1_555 1_555
O6 C5 1_555 1_555
C1 C4 1_555 1_555
C2 H1 1_555 1_555
C3 C6 1_555 1_555
N4 C25 1_555 1_555
O7 C26 1_555 1_555
C4 C19 1_555 1_555
C5 O4 1_555 1_555
N5 C23 1_555 1_555
O8 C41 1_555 1_555
C6 C9 1_555 1_555
C7 H2 1_555 1_555
C8 H3 1_555 1_555
H4 C8 1_555 1_555
C9 C1 1_555 1_555
C10 C2 1_555 1_555
H5 C10 1_555 1_555
C11 C12 1_555 1_555
C12 C21 1_555 1_555
C13 C21 1_555 1_555
C14 O3 1_555 1_555
N6 C7 1_555 1_555
C15 C25 1_555 1_555
N7 C30 1_555 1_555
C16 C11 1_555 1_555
C17 H6 1_555 1_555
N8 Co2 1_555 1_555
C18 H7 1_555 1_555
C19 C3 1_555 1_555
C20 C10 1_555 1_555
H8 C20 1_555 1_555
C21 C5 1_555 1_555
C22 C24 1_555 1_555
C23 H9 1_555 1_555
C24 C2 1_555 1_555
C25 H10 1_555 1_555
H11 C25 1_555 1_555
C26 O2 1_555 1_555
C27 C13 1_555 1_555
C28 N4 1_555 1_555
H12 C28 1_555 1_555
C29 N6 1_555 1_555
H13 C29 1_555 1_555
C30 H14 1_555 1_555
C31 N5 1_555 1_555
H15 C31 1_555 1_555
C32 N7 1_555 1_555
H16 C32 1_555 1_555
H17 C32 1_555 1_555
C33 N3 1_555 1_555
H18 C33 1_555 1_555
H19 C33 1_555 1_555
C34 C20 1_555 1_555
H20 C34 1_555 1_555
C35 N1 1_555 1_555
H21 C35 1_555 1_555
C36 C15 1_555 1_555
C37 C15 1_555 1_555
H22 C37 1_555 1_555
C38 N4 1_555 1_555
H23 C38 1_555 1_555
C39 C17 1_555 1_555
H24 C39 1_555 1_555
C40 N8 1_555 1_555
H25 C40 1_555 1_555
C41 C9 1_555 1_555
C42 N2 1_555 1_555
H26 C42 1_555 1_555
C43 N7 1_555 1_555
H27 C43 1_555 1_555
C44 N3 1_555 1_555
H28 C44 1_555 1_555
O9 C45 1_555 1_555
O10 C47 1_555 1_555
C45 H29 1_555 1_555
H30 C45 1_555 1_555
C46 O9 1_555 1_555
H31 C46 1_555 1_555
C47 C45 1_555 1_555
H32 C47 1_555 1_555
H33 C47 1_555 1_555
C48 O10 1_555 1_555
H34 C48 1_555 1_555
H35 C48 1_555 1_555
Co1C N5 1_555 1_555
Co2_2 O8 1_555 1_555
Co2F N2 1_555 1_555
N2F Co2 1_555 1_555
N5C Co1 1_555 1_555
O8_2 Co2 1_555 1_555
C8 N6 1_555 1_555
C8 C24 1_555 1_555
C14 C16 1_555 1_555
C16 C27 1_555 1_555
C17 C37 1_555 1_555
N8 C38 1_555 1_555
C18 C36 1_555 1_555
C18 C39 1_555 1_555
C19 C26 1_555 1_555
C22 C33 1_555 1_555
C22 C34 1_555 1_555
C28 C40 1_555 1_555
C29 C35 1_555 1_555
C31 C44 1_555 1_555
C32 C36 1_555 1_555
C42 C43 1_555 1_555
C46 C48 1_555 1_555

#END
