
#######################################################################
#
#                 Cambridge Crystallographic Data Centre
#                                CCDC 
#
#######################################################################
#
# If this CIF has been generated from an entry in the Cambridge 
# Structural Database, then it will include bibliographic, chemical, 
# crystal, experimental, refinement or atomic coordinate data resulting 
# from the CCDC's data processing and validation procedures.
#
#######################################################################

data_TUNJOD
_symmetry_cell_setting           triclinic
_symmetry_space_group_name_H-M   'P -1'
_symmetry_Int_Tables_number      2
_space_group_name_Hall           '-P 1'
loop_
_symmetry_equiv_pos_site_id
_symmetry_equiv_pos_as_xyz
1 x,y,z
2 -x,-y,-z
_cell_length_a                   8.9963(13)
_cell_length_b                   10.0099(12)
_cell_length_c                   11.5713(16)
_cell_angle_alpha                110.563(12)
_cell_angle_beta                 103.836(13)
_cell_angle_gamma                90.157(11)
_cell_volume                     942.999
loop_
_atom_site_label
_atom_site_type_symbol
_atom_site_fract_x
_atom_site_fract_y
_atom_site_fract_z
Br1 Br 0.17683(8) 0.10027(9) 0.36761(7)
Br2 Br 0.81649(8) 0.07047(9) 0.43093(7)
Co1 Co 0.5000 0.0000 0.0000
O1 O 0.4950(5) 0.2729(5) 0.3556(4)
N1 N 0.8923(6) 0.2970(6) 0.2124(5)
N2 N 0.7160(6) 0.1223(6) 0.0807(5)
N3 N 0.7065(6) 0.6658(6) 0.1073(5)
C1 C 0.6334(7) 0.0266(7) 0.4675(6)
O2 O 0.4736(5) 0.0549(5) 0.1997(4)
N4 N 0.5996(6) 0.8145(6) 0.0180(5)
C2 C 0.3638(7) 0.0417(7) 0.4448(6)
C3 C 0.7783(8) 0.6077(8) 0.2050(7)
H1 H 0.7402 0.5078 0.1772
H2 H 0.7504 0.6594 0.2837
C4 C 0.4950(7) 0.0679(7) 0.4109(6)
C5 C 0.8457(8) 0.1098(8) 0.0351(7)
H3 H 0.8571 0.0387 -0.0388
C6 C 1.0399(8) 0.5339(8) 0.2910(7)
C7 C 1.1905(8) 0.7279(8) 0.2238(7)
H4 H 1.2403 0.7910 0.1993
C8 C 0.4888(7) 0.1396(8) 0.3113(7)
C9 C 0.9539(8) 0.2182(8) 0.1156(7)
H5 H 1.0513 0.2355 0.1065
C10 C 0.6442(8) 0.7884(8) 0.1241(7)
H6 H 0.6331 0.8498 0.2026
C11 C 0.7517(8) 0.2364(7) 0.1868(7)
H7 H 0.6848 0.2706 0.2384
C12 C 1.0316(8) 0.7139(8) 0.1959(7)
H8 H 0.9762 0.7689 0.1536
C13 C 0.6373(8) 0.7000(8) -0.0742(7)
H9 H 0.6199 0.6868 -0.1601
C14 C 1.1996(8) 0.5543(8) 0.3201(7)
H10 H 1.2577 0.5014 0.3633
C15 C 0.9531(8) 0.6200(8) 0.2294(7)
C16 C 1.2747(9) 0.6497(8) 0.2870(7)
H11 H 1.3816 0.6608 0.3076
C17 C 0.9641(8) 0.4256(8) 0.3245(7)
H12 H 1.0398 0.3968 0.3843
H13 H 0.8859 0.4690 0.3668
C18 C 0.7053(8) 0.6085(8) -0.0173(7)
H14 H 0.7435 0.5229 -0.0572
Br1A Br 0.82317(8) -0.10027(9) 0.63239(7)
Br2A Br 0.18351(8) -0.07047(9) 0.56907(7)
O1A O 0.5050(5) -0.2729(5) 0.6444(4)
C1A C 0.3666(7) -0.0266(7) 0.5325(6)
O2A O 0.5264(5) -0.0549(5) 0.8003(4)
C2A C 0.6362(7) -0.0417(7) 0.5552(6)
C4A C 0.5050(7) -0.0679(7) 0.5891(6)
C8A C 0.5112(7) -0.1396(8) 0.6887(7)
N1A N 0.1077(6) -0.2970(6) -0.2124(5)
N2A N 0.2840(6) -0.1223(6) -0.0807(5)
N3A N 0.2935(6) -0.6658(6) -0.1073(5)
N4A N 0.4004(6) -0.8145(6) -0.0180(5)
C3A C 0.2217(8) -0.6077(8) -0.2050(7)
H1A H 0.2598 -0.5078 -0.1772
H2A H 0.2496 -0.6594 -0.2837
C5A C 0.1543(8) -0.1098(8) -0.0351(7)
H3A H 0.1429 -0.0387 0.0388
C6A C -0.0399(8) -0.5339(8) -0.2910(7)
C7A C -0.1905(8) -0.7279(8) -0.2238(7)
H4A H -0.2403 -0.7910 -0.1993
C9A C 0.0461(8) -0.2182(8) -0.1156(7)
H5A H -0.0513 -0.2355 -0.1065
C10A C 0.3558(8) -0.7884(8) -0.1241(7)
H6A H 0.3669 -0.8498 -0.2026
C11A C 0.2483(8) -0.2364(7) -0.1868(7)
H7A H 0.3152 -0.2706 -0.2384
C12A C -0.0316(8) -0.7139(8) -0.1959(7)
H8A H 0.0238 -0.7689 -0.1536
C13A C 0.3627(8) -0.7000(8) 0.0742(7)
H9A H 0.3801 -0.6868 0.1601
C14A C -0.1996(8) -0.5543(8) -0.3201(7)
H10A H -0.2577 -0.5014 -0.3633
C15A C 0.0469(8) -0.6200(8) -0.2294(7)
C16A C -0.2747(9) -0.6497(8) -0.2870(7)
H11A H -0.3816 -0.6608 -0.3076
C17A C 0.0359(8) -0.4256(8) -0.3245(7)
H12A H -0.0398 -0.3968 -0.3843
H13A H 0.1141 -0.4690 -0.3668
C18A C 0.2947(8) -0.6085(8) 0.0173(7)
H14A H 0.2565 -0.5229 0.0572
Co1_2 Co 0.5000 -1.0000 0.0000
Co1_3 Co 0.5000 0.0000 1.0000
Co1_4 Co 0.5000 1.0000 0.0000
O2A_2 O 0.5264(5) -0.0549(5) -0.1997(4)
N4_2 N 0.5996(6) -0.1855(6) 0.0180(5)
N4A_2 N 0.4004(6) 0.1855(6) -0.0180(5)
O3 O 0.6293(7) 0.5587(6) 0.4227(6)
H15 H 0.5918 0.4751 0.4097
H16 H 0.6110 0.6180 0.4900
loop_
_geom_bond_atom_site_label_1
_geom_bond_atom_site_label_2
_geom_bond_site_symmetry_1
_geom_bond_site_symmetry_2
Br1 C2 1_555 1_555
Br2 C1 1_555 1_555
Co1 N2 1_555 1_555
O1 C8 1_555 1_555
N1 C9 1_555 1_555
N2 C5 1_555 1_555
N3 C3 1_555 1_555
C1 C4 1_555 1_555
O2 Co1 1_555 1_555
N4 C10 1_555 1_555
C2 C4 1_555 1_555
C3 H1 1_555 1_555
H2 C3 1_555 1_555
C4 C8 1_555 1_555
C5 H3 1_555 1_555
C6 C14 1_555 1_555
C7 H4 1_555 1_555
C8 O2 1_555 1_555
C9 C5 1_555 1_555
H5 C9 1_555 1_555
C10 N3 1_555 1_555
H6 C10 1_555 1_555
C11 N1 1_555 1_555
H7 C11 1_555 1_555
C12 C7 1_555 1_555
H8 C12 1_555 1_555
C13 N4 1_555 1_555
H9 C13 1_555 1_555
C14 H10 1_555 1_555
C15 C3 1_555 1_555
C16 C7 1_555 1_555
H11 C16 1_555 1_555
C17 N1 1_555 1_555
H12 C17 1_555 1_555
H13 C17 1_555 1_555
C18 N3 1_555 1_555
H14 C18 1_555 1_555
O3 H15 1_555 1_555
H16 O3 1_555 1_555
Br1A C2A 1_555 1_555
Br2A C1A 1_555 1_555
O1A C8A 1_555 1_555
C1A C2 1_555 1_555
O2A C8A 1_555 1_555
C2A C1 1_555 1_555
C4A C1A 1_555 1_555
C8A C4A 1_555 1_555
N1A C9A 1_555 1_555
N2A Co1 1_555 1_555
N3A C3A 1_555 1_555
N4A C10A 1_555 1_555
C3A H1A 1_555 1_555
H2A C3A 1_555 1_555
C5A N2A 1_555 1_555
H3A C5A 1_555 1_555
C6A C14A 1_555 1_555
C7A H4A 1_555 1_555
C9A C5A 1_555 1_555
H5A C9A 1_555 1_555
C10A N3A 1_555 1_555
H6A C10A 1_555 1_555
C11A N1A 1_555 1_555
H7A C11A 1_555 1_555
C12A C7A 1_555 1_555
H8A C12A 1_555 1_555
C13A N4A 1_555 1_555
H9A C13A 1_555 1_555
C14A H10A 1_555 1_555
C15A C3A 1_555 1_555
C16A C7A 1_555 1_555
H11A C16A 1_555 1_555
C17A N1A 1_555 1_555
H12A C17A 1_555 1_555
H13A C17A 1_555 1_555
C18A N3A 1_555 1_555
H14A C18A 1_555 1_555
Co1_2 N4A 1_555 1_555
Co1_3 O2A 1_555 1_555
Co1_4 N4 1_555 1_555
O2A_2 Co1 1_555 1_555
N4_2 Co1 1_555 1_555
N4A_2 Co1 1_555 1_555
N2 C11 1_555 1_555
C6 C15 1_555 1_555
C6 C17 1_555 1_555
C12 C15 1_555 1_555
C13 C18 1_555 1_555
C14 C16 1_555 1_555
C2A C4A 1_555 1_555
N2A C11A 1_555 1_555
C6A C15A 1_555 1_555
C6A C17A 1_555 1_555
C12A C15A 1_555 1_555
C13A C18A 1_555 1_555
C14A C16A 1_555 1_555

#END
