
#######################################################################
#
#                 Cambridge Crystallographic Data Centre
#                                CCDC 
#
#######################################################################
#
# If this CIF has been generated from an entry in the Cambridge 
# Structural Database, then it will include bibliographic, chemical, 
# crystal, experimental, refinement or atomic coordinate data resulting 
# from the CCDC's data processing and validation procedures.
#
#######################################################################

data_TUNKUK
_symmetry_cell_setting           triclinic
_symmetry_space_group_name_H-M   'P -1'
_symmetry_Int_Tables_number      2
_space_group_name_Hall           '-P 1'
loop_
_symmetry_equiv_pos_site_id
_symmetry_equiv_pos_as_xyz
1 x,y,z
2 -x,-y,-z
_cell_length_a                   8.4656(17)
_cell_length_b                   10.159(2)
_cell_length_c                   10.831(2)
_cell_angle_alpha                97.315(4)
_cell_angle_beta                 97.748(3)
_cell_angle_gamma                98.719(3)
_cell_volume                     901.876
loop_
_atom_site_label
_atom_site_type_symbol
_atom_site_fract_x
_atom_site_fract_y
_atom_site_fract_z
Co1 Co 0.75947(4) 0.13127(4) 0.06766(4)
N1 N 0.3557(3) 0.7226(3) 0.0287(3)
N2 N 0.6858(3) 0.5531(3) 0.3792(3)
N3 N 1.0935(3) 0.7249(3) 0.7743(3)
O1 O 0.6000(2) 0.0993(2) 0.1909(2)
O2 O 0.3558(3) 0.0143(2) 0.0819(2)
O3 O 0.9589(2) 0.1586(2) -0.0283(2)
O4 O 1.1208(2) 0.0322(2) -0.1153(2)
C1 C 0.2678(4) 0.6205(4) 0.0680(3)
H1 H 0.1566 0.6039 0.0413
C2 C 0.3313(4) 0.5384(4) 0.1456(4)
H2 H 0.2646 0.4653 0.1657
C3 C 0.4962(4) 0.5645(3) 0.1943(3)
C4 C 0.5882(4) 0.6712(3) 0.1543(3)
H3 H 0.6987 0.6931 0.1838
C5 C 0.5167(4) 0.7453(4) 0.0708(4)
H4 H 0.5821 0.8135 0.0424
C6 C 0.5612(3) 0.4871(3) 0.2913(3)
C7 C 0.4888(4) 0.3565(3) 0.2955(3)
H5 H 0.4066 0.3125 0.2312
C8 C 0.5379(3) 0.2901(3) 0.3954(3)
C9 C 0.6627(3) 0.3601(3) 0.4874(3)
H6 H 0.6980 0.3209 0.5568
C10 C 0.7350(3) 0.4897(3) 0.4751(3)
C11 C 1.0632(4) 0.5915(3) 0.7618(3)
H7 H 1.1204 0.5496 0.8203
C12 C 0.9506(4) 0.5109(4) 0.6661(3)
H8 H 0.9325 0.4178 0.6628
C13 C 0.8660(3) 0.5691(3) 0.5761(3)
C14 C 0.9058(4) 0.7076(3) 0.5834(4)
H9 H 0.8580 0.7510 0.5214
C15 C 1.0163(4) 0.7809(4) 0.6824(4)
H10 H 1.0389 0.8740 0.6863
C16 C 0.4445(3) 0.1587(3) 0.4084(3)
C17 C 0.3972(4) 0.1408(3) 0.5235(3)
H11 H 0.4430 0.2033 0.5944
C18 C 0.2830(4) 0.0318(4) 0.5356(4)
H12 H 0.2542 0.0203 0.6139
C19 C 0.2125(4) -0.0598(4) 0.4294(4)
H13 H 0.1301 -0.1294 0.4351
C20 C 0.2637(4) -0.0483(3) 0.3154(4)
H14 H 0.2182 -0.1122 0.2454
C21 C 0.3830(3) 0.0578(3) 0.3036(3)
C22 C 0.4511(3) 0.0573(3) 0.1815(3)
C23 C 1.0232(3) 0.0542(3) -0.0418(3)
O3A O 1.0411(2) -0.1586(2) 0.0283(2)
O4A O 0.8792(2) -0.0322(2) 0.1153(2)
C23A C 0.9768(3) -0.0542(3) 0.0418(3)
Co1A Co 0.24053(4) -0.13127(4) -0.06766(4)
N1A N 0.6443(3) -0.7226(3) -0.0287(3)
N2A N 0.3142(3) -0.5531(3) -0.3792(3)
N3A N -0.0935(3) -0.7249(3) -0.7743(3)
O1A O 0.4000(2) -0.0993(2) -0.1909(2)
O2A O 0.6442(3) -0.0143(2) -0.0819(2)
C1A C 0.7322(4) -0.6205(4) -0.0680(3)
H1A H 0.8434 -0.6039 -0.0413
C2A C 0.6687(4) -0.5384(4) -0.1456(4)
H2A H 0.7354 -0.4653 -0.1657
C3A C 0.5038(4) -0.5645(3) -0.1943(3)
C4A C 0.4118(4) -0.6712(3) -0.1543(3)
H3A H 0.3013 -0.6931 -0.1838
C5A C 0.4833(4) -0.7453(4) -0.0708(4)
H4A H 0.4179 -0.8135 -0.0424
C6A C 0.4388(3) -0.4871(3) -0.2913(3)
C7A C 0.5112(4) -0.3565(3) -0.2955(3)
H5A H 0.5934 -0.3125 -0.2312
C8A C 0.4621(3) -0.2901(3) -0.3954(3)
C9A C 0.3373(3) -0.3601(3) -0.4874(3)
H6A H 0.3020 -0.3209 -0.5568
C10A C 0.2650(3) -0.4897(3) -0.4751(3)
C11A C -0.0632(4) -0.5915(3) -0.7618(3)
H7A H -0.1204 -0.5496 -0.8203
C12A C 0.0494(4) -0.5109(4) -0.6661(3)
H8A H 0.0675 -0.4178 -0.6628
C13A C 0.1340(3) -0.5691(3) -0.5761(3)
C14A C 0.0942(4) -0.7076(3) -0.5834(4)
H9A H 0.1420 -0.7510 -0.5214
C15A C -0.0163(4) -0.7809(4) -0.6824(4)
H10A H -0.0389 -0.8740 -0.6863
C16A C 0.5555(3) -0.1587(3) -0.4084(3)
C17A C 0.6028(4) -0.1408(3) -0.5235(3)
H11A H 0.5570 -0.2033 -0.5944
C18A C 0.7170(4) -0.0318(4) -0.5356(4)
H12A H 0.7458 -0.0203 -0.6139
C19A C 0.7875(4) 0.0598(4) -0.4294(4)
H13A H 0.8699 0.1294 -0.4351
C20A C 0.7363(4) 0.0483(3) -0.3154(4)
H14A H 0.7818 0.1122 -0.2454
C21A C 0.6170(3) -0.0578(3) -0.3036(3)
C22A C 0.5489(3) -0.0573(3) -0.1815(3)
Co1_2 Co -0.24053(4) -0.86873(4) -0.93234(4)
Co1_3 Co 0.75947(4) -0.86873(4) 0.06766(4)
Co1A_2 Co 0.24053(4) 0.86873(4) -0.06766(4)
Co1A_3 Co 1.24053(4) -0.13127(4) -0.06766(4)
Co1A_4 Co 1.24053(4) 0.86873(4) 0.93234(4)
N1_2 N 0.3557(3) -0.2774(3) 0.0287(3)
N1A_2 N 0.6443(3) 0.2774(3) -0.0287(3)
N3_2 N 0.0935(3) -0.2751(3) -0.2257(3)
N3A_2 N 0.9065(3) 0.2751(3) 0.2257(3)
O3A_2 O 0.0411(2) -0.1586(2) 0.0283(2)
O4_2 O 0.1208(2) 0.0322(2) -0.1153(2)
loop_
_geom_bond_atom_site_label_1
_geom_bond_atom_site_label_2
_geom_bond_site_symmetry_1
_geom_bond_site_symmetry_2
Co1 O1 1_555 1_555
N1 C1 1_555 1_555
N2 C6 1_555 1_555
N3 C11 1_555 1_555
O1 C22 1_555 1_555
O2 C22 1_555 1_555
O3 Co1 1_555 1_555
O4 C23 1_555 1_555
C1 H1 1_555 1_555
C2 C1 1_555 1_555
H2 C2 1_555 1_555
C3 C2 1_555 1_555
C4 C3 1_555 1_555
H3 C4 1_555 1_555
C5 N1 1_555 1_555
H4 C5 1_555 1_555
C6 C3 1_555 1_555
C7 C6 1_555 1_555
H5 C7 1_555 1_555
C8 C7 1_555 1_555
C9 C8 1_555 1_555
H6 C9 1_555 1_555
C10 N2 1_555 1_555
C11 H7 1_555 1_555
C12 C11 1_555 1_555
H8 C12 1_555 1_555
C13 C10 1_555 1_555
C14 C13 1_555 1_555
H9 C14 1_555 1_555
C15 N3 1_555 1_555
H10 C15 1_555 1_555
C16 C8 1_555 1_555
C17 C16 1_555 1_555
H11 C17 1_555 1_555
C18 C17 1_555 1_555
H12 C18 1_555 1_555
C19 C18 1_555 1_555
H13 C19 1_555 1_555
C20 C19 1_555 1_555
H14 C20 1_555 1_555
C21 C16 1_555 1_555
C22 C21 1_555 1_555
C23 O3 1_555 1_555
O3A C23A 1_555 1_555
O4A Co1 1_555 1_555
C23A C23 1_555 1_555
Co1A O2 1_555 1_555
N1A C1A 1_555 1_555
N2A C6A 1_555 1_555
N3A C11A 1_555 1_555
O1A Co1A 1_555 1_555
O2A Co1 1_555 1_555
C1A H1A 1_555 1_555
C2A C1A 1_555 1_555
H2A C2A 1_555 1_555
C3A C2A 1_555 1_555
C4A C3A 1_555 1_555
H3A C4A 1_555 1_555
C5A N1A 1_555 1_555
H4A C5A 1_555 1_555
C6A C3A 1_555 1_555
C7A C6A 1_555 1_555
H5A C7A 1_555 1_555
C8A C7A 1_555 1_555
C9A C8A 1_555 1_555
H6A C9A 1_555 1_555
C10A N2A 1_555 1_555
C11A H7A 1_555 1_555
C12A C11A 1_555 1_555
H8A C12A 1_555 1_555
C13A C10A 1_555 1_555
C14A C13A 1_555 1_555
H9A C14A 1_555 1_555
C15A N3A 1_555 1_555
H10A C15A 1_555 1_555
C16A C8A 1_555 1_555
C17A C16A 1_555 1_555
H11A C17A 1_555 1_555
C18A C17A 1_555 1_555
H12A C18A 1_555 1_555
C19A C18A 1_555 1_555
H13A C19A 1_555 1_555
C20A C19A 1_555 1_555
H14A C20A 1_555 1_555
C21A C16A 1_555 1_555
C22A O1A 1_555 1_555
Co1_2 N3A 1_555 1_555
Co1_3 N1A 1_555 1_555
Co1A_2 N1 1_555 1_555
Co1A_3 O4 1_555 1_555
Co1A_4 N3 1_555 1_555
N1_2 Co1A 1_555 1_555
N1A_2 Co1 1_555 1_555
N3_2 Co1A 1_555 1_555
N3A_2 Co1 1_555 1_555
O3A_2 Co1A 1_555 1_555
O4_2 Co1A 1_555 1_555
C4 C5 1_555 1_555
C9 C10 1_555 1_555
C12 C13 1_555 1_555
C14 C15 1_555 1_555
C20 C21 1_555 1_555
O3A Co1A_3 1_555 1_555
O4A C23A 1_555 1_555
O2A C22A 1_555 1_555
C4A C5A 1_555 1_555
C9A C10A 1_555 1_555
C12A C13A 1_555 1_555
C14A C15A 1_555 1_555
C20A C21A 1_555 1_555
C21A C22A 1_555 1_555

#END
