
#######################################################################
#
#                 Cambridge Crystallographic Data Centre
#                                CCDC 
#
#######################################################################
#
# If this CIF has been generated from an entry in the Cambridge 
# Structural Database, then it will include bibliographic, chemical, 
# crystal, experimental, refinement or atomic coordinate data resulting 
# from the CCDC's data processing and validation procedures.
#
#######################################################################

data_TUNLAR
_symmetry_cell_setting           monoclinic
_symmetry_space_group_name_H-M   'P 21/n'
_symmetry_Int_Tables_number      14
_space_group_name_Hall           '-P 2yn'
loop_
_symmetry_equiv_pos_site_id
_symmetry_equiv_pos_as_xyz
1 x,y,z
2 1/2-x,1/2+y,1/2-z
3 -x,-y,-z
4 1/2+x,1/2-y,1/2+z
_cell_length_a                   15.6659(10)
_cell_length_b                   8.3703(5)
_cell_length_c                   17.0596(10)
_cell_angle_alpha                90
_cell_angle_beta                 92.1590(10)
_cell_angle_gamma                90
_cell_volume                     2235.41
loop_
_atom_site_label
_atom_site_type_symbol
_atom_site_fract_x
_atom_site_fract_y
_atom_site_fract_z
Co1 Co 0.345410(19) 0.11059(4) 0.604795(17)
Co2 Co 0.5000 0.0000 0.5000
N1 N -0.21450(12) -0.0217(2) 0.40370(11)
N2 N 0.03115(12) 0.2894(2) 0.52028(11)
N3 N 0.13216(12) 0.5390(2) 0.77759(11)
O1 O 0.31750(10) 0.2155(2) 0.49725(9)
O2 O 0.42440(10) 0.1380(2) 0.42256(10)
O3 O 0.47642(10) 0.15989(18) 0.59052(9)
O4 O 0.50614(12) 0.3259(3) 0.68921(11)
O5 O 0.61014(10) 0.09974(17) 0.45210(9)
O6 O 0.65588(12) 0.3121(2) 0.38690(11)
C1 C -0.15624(15) -0.0094(3) 0.34795(14)
H1 H -0.1691 -0.0546 0.2991
C2 C -0.07822(15) 0.0667(3) 0.35926(14)
H2 H -0.0401 0.0705 0.3188
C3 C -0.05696(14) 0.1372(3) 0.43088(13)
C4 C -0.11691(15) 0.1232(3) 0.48889(14)
H3 H -0.1058 0.1677 0.5382
C5 C -0.19229(15) 0.0440(3) 0.47332(14)
H4 H -0.2304 0.0351 0.5136
C6 C 0.02375(14) 0.2271(3) 0.44788(13)
C7 C 0.08731(14) 0.2455(3) 0.39328(14)
H5 H 0.0796 0.2035 0.3431
C8 C 0.16204(14) 0.3269(3) 0.41426(13)
C9 C 0.16791(15) 0.3945(3) 0.48866(13)
H6 H 0.2159 0.4535 0.5042
C10 C 0.10175(14) 0.3735(3) 0.53974(14)
C11 C 0.07297(16) 0.4287(3) 0.75708(15)
H7 H 0.0398 0.3860 0.7960
C12 C 0.05913(16) 0.3761(3) 0.68110(15)
H8 H 0.0170 0.3003 0.6697
C13 C 0.10810(14) 0.4363(3) 0.62130(13)
C14 C 0.16617(14) 0.5553(3) 0.64251(14)
H9 H 0.1984 0.6037 0.6044
C15 C 0.17627(14) 0.6020(3) 0.71941(14)
H10 H 0.2159 0.6818 0.7318
C16 C 0.22997(14) 0.3489(3) 0.35511(13)
C17 C 0.20287(16) 0.4204(3) 0.28485(15)
H11 H 0.1461 0.4519 0.2783
C18 C 0.25791(17) 0.4460(3) 0.22433(15)
H12 H 0.2381 0.4938 0.1779
C19 C 0.34215(17) 0.4002(3) 0.23340(15)
H13 H 0.3797 0.4180 0.1934
C20 C 0.37033(15) 0.3280(3) 0.30206(14)
H14 H 0.4272 0.2967 0.3075
C21 C 0.31626(14) 0.3000(3) 0.36388(13)
C22 C 0.35561(14) 0.2113(3) 0.43372(13)
C23 C 0.52683(15) 0.2550(3) 0.62952(14)
C24 C 0.61301(16) 0.2812(3) 0.59560(16)
H15 H 0.6428 0.1799 0.5926
H16 H 0.6467 0.3514 0.6298
C25 C 0.6039(2) 0.3561(3) 0.51272(18)
H17 H 0.5454 0.3919 0.5045
H18 H 0.6401 0.4500 0.5117
C26 C 0.62563(14) 0.2511(3) 0.44488(15)
O7 O 0.33668(12) 0.3481(2) 0.65696(11)
H19 H 0.3885(11) 0.353(3) 0.6696(17)
H20 H 0.3276(18) 0.432(2) 0.6340(15)
Co1B Co -0.345410(19) -0.11059(4) 0.395205(17)
N1B N 0.21450(12) 0.0217(2) 0.59630(11)
N2B N -0.03115(12) -0.2894(2) 0.47972(11)
N3B N -0.13216(12) -0.5390(2) 0.22241(11)
O1B O -0.31750(10) -0.2155(2) 0.50275(9)
O2B O -0.42440(10) -0.1380(2) 0.57744(10)
O3B O -0.47642(10) -0.15989(18) 0.40948(9)
O4B O -0.50614(12) -0.3259(3) 0.31079(11)
O5B O -0.61014(10) -0.09974(17) 0.54790(9)
O6B O -0.65588(12) -0.3121(2) 0.61310(11)
C1B C 0.15624(15) 0.0094(3) 0.65205(14)
H1B H 0.1691 0.0546 0.7009
C2B C 0.07822(15) -0.0667(3) 0.64074(14)
H2B H 0.0401 -0.0705 0.6812
C3B C 0.05696(14) -0.1372(3) 0.56912(13)
C4B C 0.11691(15) -0.1232(3) 0.51111(14)
H3B H 0.1058 -0.1677 0.4618
C5B C 0.19229(15) -0.0440(3) 0.52668(14)
H4B H 0.2304 -0.0351 0.4864
C6B C -0.02375(14) -0.2271(3) 0.55212(13)
C7B C -0.08731(14) -0.2455(3) 0.60672(14)
H5B H -0.0796 -0.2035 0.6569
C8B C -0.16204(14) -0.3269(3) 0.58574(13)
C9B C -0.16791(15) -0.3945(3) 0.51134(13)
H6B H -0.2159 -0.4535 0.4958
C10B C -0.10175(14) -0.3735(3) 0.46026(14)
C11B C -0.07297(16) -0.4287(3) 0.24292(15)
H7B H -0.0398 -0.3860 0.2040
C12B C -0.05913(16) -0.3761(3) 0.31890(15)
H8B H -0.0170 -0.3003 0.3303
C13B C -0.10810(14) -0.4363(3) 0.37870(13)
C14B C -0.16617(14) -0.5553(3) 0.35749(14)
H9B H -0.1984 -0.6037 0.3956
C15B C -0.17627(14) -0.6020(3) 0.28059(14)
H10B H -0.2159 -0.6818 0.2682
C16B C -0.22997(14) -0.3489(3) 0.64489(13)
C17B C -0.20287(16) -0.4204(3) 0.71515(15)
H11B H -0.1461 -0.4519 0.7217
C18B C -0.25791(17) -0.4460(3) 0.77567(15)
H12B H -0.2381 -0.4938 0.8221
C19B C -0.34215(17) -0.4002(3) 0.76660(15)
H13B H -0.3797 -0.4180 0.8066
C20B C -0.37033(15) -0.3280(3) 0.69794(14)
H14B H -0.4272 -0.2967 0.6925
C21B C -0.31626(14) -0.3000(3) 0.63612(13)
C22B C -0.35561(14) -0.2113(3) 0.56628(13)
C23B C -0.52683(15) -0.2550(3) 0.37048(14)
C24B C -0.61301(16) -0.2812(3) 0.40440(16)
H15B H -0.6428 -0.1799 0.4074
H16B H -0.6467 -0.3514 0.3702
C25B C -0.6039(2) -0.3561(3) 0.48728(18)
H17B H -0.5454 -0.3919 0.4955
H18B H -0.6401 -0.4500 0.4883
C26B C -0.62563(14) -0.2511(3) 0.55512(15)
O7B O -0.33668(12) -0.3481(2) 0.34304(11)
H19B H -0.3885(11) -0.353(3) 0.3304(17)
H20B H -0.3276(18) -0.432(2) 0.3660(15)
Co1_2 Co -0.654590(19) 0.11059(4) 0.604795(17)
Co1A Co 0.154590(19) 0.61059(4) 0.895205(17)
Co1B_2 Co 0.654590(19) -0.11059(4) 0.395205(17)
Co1C Co -0.154590(19) -0.61059(4) 0.104795(17)
Co2_2 Co -0.5000 0.0000 0.5000
N3A N 0.36784(12) 0.0390(2) 0.72241(11)
N3C N -0.36784(12) -0.0390(2) 0.27759(11)
O2B_2 O 0.57560(10) -0.1380(2) 0.57744(10)
O3B_2 O 0.52358(10) -0.15989(18) 0.40948(9)
O5_2 O -0.38986(10) 0.09974(17) 0.45210(9)
O5B_2 O 0.38986(10) -0.09974(17) 0.54790(9)
loop_
_geom_bond_atom_site_label_1
_geom_bond_atom_site_label_2
_geom_bond_site_symmetry_1
_geom_bond_site_symmetry_2
Co1 O1 1_555 1_555
Co2 O2 1_555 1_555
N1 C1 1_555 1_555
N2 C6 1_555 1_555
N3 C11 1_555 1_555
O1 C22 1_555 1_555
O2 C22 1_555 1_555
O3 Co1 1_555 1_555
O4 C23 1_555 1_555
O5 Co2 1_555 1_555
O6 C26 1_555 1_555
C1 H1 1_555 1_555
C2 C1 1_555 1_555
H2 C2 1_555 1_555
C3 C2 1_555 1_555
C4 C3 1_555 1_555
H3 C4 1_555 1_555
C5 N1 1_555 1_555
H4 C5 1_555 1_555
C6 C3 1_555 1_555
C7 C6 1_555 1_555
H5 C7 1_555 1_555
C8 C7 1_555 1_555
C9 C8 1_555 1_555
H6 C9 1_555 1_555
C10 N2 1_555 1_555
C11 H7 1_555 1_555
C12 C11 1_555 1_555
H8 C12 1_555 1_555
C13 C10 1_555 1_555
C14 C13 1_555 1_555
H9 C14 1_555 1_555
C15 N3 1_555 1_555
H10 C15 1_555 1_555
C16 C8 1_555 1_555
C17 C16 1_555 1_555
H11 C17 1_555 1_555
C18 C17 1_555 1_555
H12 C18 1_555 1_555
C19 C18 1_555 1_555
H13 C19 1_555 1_555
C20 C19 1_555 1_555
H14 C20 1_555 1_555
C21 C16 1_555 1_555
C22 C21 1_555 1_555
C23 O3 1_555 1_555
C24 C23 1_555 1_555
H15 C24 1_555 1_555
H16 C24 1_555 1_555
C25 C24 1_555 1_555
H17 C25 1_555 1_555
H18 C25 1_555 1_555
C26 O5 1_555 1_555
O7 Co1 1_555 1_555
H19 O7 1_555 1_555
H20 O7 1_555 1_555
Co1B N1 1_555 1_555
N1B Co1 1_555 1_555
N2B C6B 1_555 1_555
N3B C11B 1_555 1_555
O1B Co1B 1_555 1_555
O2B C22B 1_555 1_555
O3B Co1B 1_555 1_555
O4B C23B 1_555 1_555
O5B C26B 1_555 1_555
O6B C26B 1_555 1_555
C1B N1B 1_555 1_555
H1B C1B 1_555 1_555
C2B C1B 1_555 1_555
H2B C2B 1_555 1_555
C3B C2B 1_555 1_555
C4B C3B 1_555 1_555
H3B C4B 1_555 1_555
C5B N1B 1_555 1_555
H4B C5B 1_555 1_555
C6B C3B 1_555 1_555
C7B C6B 1_555 1_555
H5B C7B 1_555 1_555
C8B C7B 1_555 1_555
C9B C8B 1_555 1_555
H6B C9B 1_555 1_555
C10B N2B 1_555 1_555
C11B H7B 1_555 1_555
C12B C11B 1_555 1_555
H8B C12B 1_555 1_555
C13B C10B 1_555 1_555
C14B C13B 1_555 1_555
H9B C14B 1_555 1_555
C15B N3B 1_555 1_555
H10B C15B 1_555 1_555
C16B C8B 1_555 1_555
C17B C16B 1_555 1_555
H11B C17B 1_555 1_555
C18B C17B 1_555 1_555
H12B C18B 1_555 1_555
C19B C18B 1_555 1_555
H13B C19B 1_555 1_555
C20B C19B 1_555 1_555
H14B C20B 1_555 1_555
C21B C16B 1_555 1_555
C22B O1B 1_555 1_555
C23B O3B 1_555 1_555
C24B C23B 1_555 1_555
H15B C24B 1_555 1_555
H16B C24B 1_555 1_555
C25B C24B 1_555 1_555
H17B C25B 1_555 1_555
H18B C25B 1_555 1_555
C26B C25B 1_555 1_555
O7B Co1B 1_555 1_555
H19B O7B 1_555 1_555
H20B O7B 1_555 1_555
Co1_2 O5B 1_555 1_555
Co1A N3 1_555 1_555
Co1B_2 O5 1_555 1_555
Co1C N3B 1_555 1_555
Co2_2 O2B 1_555 1_555
N3A Co1 1_555 1_555
N3C Co1B 1_555 1_555
O2B_2 Co2 1_555 1_555
O3B_2 Co2 1_555 1_555
O5_2 Co1B 1_555 1_555
O5B_2 Co1 1_555 1_555
Co2 O3 1_555 1_555
Co2 O5B_2 1_555 1_555
C4 C5 1_555 1_555
C9 C10 1_555 1_555
C12 C13 1_555 1_555
C14 C15 1_555 1_555
C20 C21 1_555 1_555
C25 C26 1_555 1_555
O3B Co2_2 1_555 1_555
O5B Co2_2 1_555 1_555
C4B C5B 1_555 1_555
C9B C10B 1_555 1_555
C12B C13B 1_555 1_555
C14B C15B 1_555 1_555
C20B C21B 1_555 1_555
C21B C22B 1_555 1_555
Co1B_2 O3B_2 1_555 1_555
Co2_2 O5_2 1_555 1_555

#END
