
#######################################################################
#
#                 Cambridge Crystallographic Data Centre
#                                CCDC 
#
#######################################################################
#
# If this CIF has been generated from an entry in the Cambridge 
# Structural Database, then it will include bibliographic, chemical, 
# crystal, experimental, refinement or atomic coordinate data resulting 
# from the CCDC's data processing and validation procedures.
#
#######################################################################

data_TUNMUM
_symmetry_cell_setting           orthorhombic
_symmetry_space_group_name_H-M   'P b c a'
_symmetry_Int_Tables_number      61
_space_group_name_Hall           '-P 2ac 2ab'
loop_
_symmetry_equiv_pos_site_id
_symmetry_equiv_pos_as_xyz
1 x,y,z
2 1/2-x,-y,1/2+z
3 -x,1/2+y,1/2-z
4 1/2+x,1/2-y,-z
5 -x,-y,-z
6 1/2+x,y,1/2-z
7 x,1/2-y,1/2+z
8 1/2-x,1/2+y,z
_cell_length_a                   12.7466(13)
_cell_length_b                   18.2949(17)
_cell_length_c                   38.031(3)
_cell_angle_alpha                90
_cell_angle_beta                 90
_cell_angle_gamma                90
_cell_volume                     8868.74
loop_
_atom_site_label
_atom_site_type_symbol
_atom_site_fract_x
_atom_site_fract_y
_atom_site_fract_z
Sn1 Sn 0.49059(5) 0.16537(4) 0.752460(19)
Se1 Se 0.23734(8) 0.22080(7) 0.76902(3)
F1 F 0.2409(7) 0.4262(6) 0.8911(3)
O1 O 0.3436(4) 0.1687(4) 0.78134(19)
O2 O 0.1405(5) 0.1620(4) 0.7774(2)
C1 C 0.2365(11) 0.3768(11) 0.8631(5)
C2 C 0.2452(12) 0.4050(9) 0.8311(6)
H1 H 0.2517 0.4551 0.8276
C3 C 0.2442(13) 0.3567(9) 0.8038(4)
H2 H 0.2520 0.3745 0.7810
C4 C 0.2326(7) 0.2867(7) 0.8083(3)
C5 C 0.2217(13) 0.2613(9) 0.8419(5)
H3 H 0.2106 0.2118 0.8461
C6 C 0.2275(16) 0.3112(11) 0.8701(4)
H4 H 0.2247 0.2952 0.8933
C7 C 0.5675(7) 0.1690(6) 0.8017(3)
C8 C 0.5439(9) 0.2222(7) 0.8263(4)
H5 H 0.4930 0.2569 0.8211
C9 C 0.5949(12) 0.2249(9) 0.8590(4)
H6 H 0.5790 0.2617 0.8750
C10 C 0.6687(14) 0.1725(12) 0.8671(4)
H7 H 0.7010 0.1726 0.8891
C11 C 0.6935(10) 0.1220(10) 0.8436(4)
H8 H 0.7453 0.0879 0.8488
C12 C 0.6425(8) 0.1193(7) 0.8109(3)
H9 H 0.6604 0.0827 0.7950
C13 C 0.4492(8) 0.0638(5) 0.7278(3)
C14 C 0.3552(8) 0.0307(6) 0.7367(3)
H10 H 0.3125 0.0511 0.7540
C15 C 0.3248(11) -0.0336(7) 0.7197(4)
H11 H 0.2606 -0.0551 0.7251
C16 C 0.3882(13) -0.0647(8) 0.6956(4)
H12 H 0.3682 -0.1080 0.6847
C17 C 0.4823(12) -0.0326(8) 0.6870(3)
H13 H 0.5252 -0.0535 0.6700
C18 C 0.5129(10) 0.0309(7) 0.7038(3)
H14 H 0.5779 0.0514 0.6987
C19 C 0.4546(7) 0.2637(6) 0.7250(3)
C20 C 0.4841(10) 0.3273(8) 0.7363(4)
H15 H 0.5194 0.3305 0.7576
C21 C 0.4645(12) 0.3910(8) 0.7173(6)
H16 H 0.4916 0.4354 0.7250
C22 C 0.4065(13) 0.3882(9) 0.6879(4)
H17 H 0.3909 0.4308 0.6756
C23 C 0.3709(13) 0.3234(9) 0.6764(4)
H18 H 0.3304 0.3208 0.6561
C24 C 0.3947(11) 0.2613(7) 0.6946(4)
H19 H 0.3702 0.2165 0.6865
Sn1E Sn -0.00941(5) 0.16537(4) 0.747540(19)
O2E O 0.6405(5) 0.1620(4) 0.7226(2)
Sn2 Sn 0.64669(4) 0.22795(3) 0.504936(16)
Se2 Se 0.40204(7) 0.29256(5) 0.46575(3)
F2 F 0.5355(7) 0.5689(6) 0.3943(3)
O3 O 0.4928(4) 0.2851(3) 0.49724(16)
O4 O 0.2987(4) 0.3279(3) 0.48713(16)
C25 C 0.5066(13) 0.5033(10) 0.4102(5)
C26 C 0.4501(13) 0.4560(12) 0.3907(5)
H20 H 0.4323 0.4650 0.3674
C27 C 0.4197(9) 0.3911(8) 0.4087(4)
H21 H 0.3798 0.3558 0.3972
C28 C 0.4493(7) 0.3810(6) 0.4428(3)
C29 C 0.5070(9) 0.4319(6) 0.4603(4)
H22 H 0.5245 0.4240 0.4838
C30 C 0.5401(10) 0.4956(8) 0.4437(5)
H23 H 0.5820 0.5302 0.4548
C31 C 0.7201(7) 0.3317(5) 0.5015(3)
C32 C 0.7002(8) 0.3844(5) 0.5258(3)
H24 H 0.6574 0.3741 0.5450
C33 C 0.7442(9) 0.4541(6) 0.5220(4)
H25 H 0.7292 0.4903 0.5384
C34 C 0.8089(10) 0.4694(6) 0.4944(4)
H26 H 0.8379 0.5158 0.4921
C35 C 0.8310(9) 0.4167(7) 0.4703(4)
H27 H 0.8759 0.4273 0.4517
C36 C 0.7882(7) 0.3481(5) 0.4729(3)
H28 H 0.8035 0.3126 0.4562
C37 C 0.5890(6) 0.1937(5) 0.5545(3)
C38 C 0.5106(8) 0.2306(6) 0.5719(3)
H29 H 0.4829 0.2726 0.5617
C39 C 0.4720(9) 0.2076(7) 0.6034(3)
H30 H 0.4187 0.2339 0.6144
C40 C 0.5114(10) 0.1460(8) 0.6192(3)
H31 H 0.4838 0.1294 0.6404
C41 C 0.5909(9) 0.1095(6) 0.6034(3)
H32 H 0.6194 0.0688 0.6145
C42 C 0.6319(7) 0.1317(5) 0.5707(3)
H33 H 0.6861 0.1057 0.5601
C43 C 0.6246(7) 0.1592(5) 0.4603(2)
C44 C 0.7080(8) 0.1452(5) 0.4378(3)
H34 H 0.7727 0.1675 0.4414
C45 C 0.6938(10) 0.0976(6) 0.4099(3)
H35 H 0.7491 0.0886 0.3946
C46 C 0.6000(12) 0.0637(6) 0.4047(3)
H36 H 0.5925 0.0309 0.3862
C47 C 0.5179(10) 0.0775(6) 0.4260(4)
H37 H 0.4534 0.0551 0.4222
C48 C 0.5315(7) 0.1254(5) 0.4539(3)
H38 H 0.4750 0.1348 0.4686
Sn2C Sn 0.14669(4) 0.27205(3) 0.495064(16)
O4C O 0.7987(4) 0.1721(3) 0.51287(16)
loop_
_geom_bond_atom_site_label_1
_geom_bond_atom_site_label_2
_geom_bond_site_symmetry_1
_geom_bond_site_symmetry_2
Sn1 O1 1_555 1_555
Se1 O1 1_555 1_555
F1 C1 1_555 1_555
O2 Se1 1_555 1_555
C1 C2 1_555 1_555
C2 H1 1_555 1_555
C3 C2 1_555 1_555
H2 C3 1_555 1_555
C4 Se1 1_555 1_555
C5 C4 1_555 1_555
H3 C5 1_555 1_555
C6 C1 1_555 1_555
H4 C6 1_555 1_555
C7 Sn1 1_555 1_555
C8 C7 1_555 1_555
H5 C8 1_555 1_555
C9 C8 1_555 1_555
H6 C9 1_555 1_555
C10 C9 1_555 1_555
H7 C10 1_555 1_555
C11 C10 1_555 1_555
H8 C11 1_555 1_555
C12 C7 1_555 1_555
H9 C12 1_555 1_555
C13 Sn1 1_555 1_555
C14 C13 1_555 1_555
H10 C14 1_555 1_555
C15 C14 1_555 1_555
H11 C15 1_555 1_555
C16 C15 1_555 1_555
H12 C16 1_555 1_555
C17 C16 1_555 1_555
H13 C17 1_555 1_555
C18 C13 1_555 1_555
H14 C18 1_555 1_555
C19 Sn1 1_555 1_555
C20 C19 1_555 1_555
H15 C20 1_555 1_555
C21 C20 1_555 1_555
H16 C21 1_555 1_555
C22 C21 1_555 1_555
H17 C22 1_555 1_555
C23 C22 1_555 1_555
H18 C23 1_555 1_555
C24 C19 1_555 1_555
H19 C24 1_555 1_555
Sn2 O3 1_555 1_555
Se2 O3 1_555 1_555
F2 C25 1_555 1_555
O4 Se2 1_555 1_555
C25 C26 1_555 1_555
C26 H20 1_555 1_555
C27 C26 1_555 1_555
H21 C27 1_555 1_555
C28 Se2 1_555 1_555
C29 C28 1_555 1_555
H22 C29 1_555 1_555
C30 C25 1_555 1_555
H23 C30 1_555 1_555
C31 Sn2 1_555 1_555
C32 C31 1_555 1_555
H24 C32 1_555 1_555
C33 C32 1_555 1_555
H25 C33 1_555 1_555
C34 C33 1_555 1_555
H26 C34 1_555 1_555
C35 C34 1_555 1_555
H27 C35 1_555 1_555
C36 C31 1_555 1_555
H28 C36 1_555 1_555
C37 Sn2 1_555 1_555
C38 C37 1_555 1_555
H29 C38 1_555 1_555
C39 C38 1_555 1_555
H30 C39 1_555 1_555
C40 C39 1_555 1_555
H31 C40 1_555 1_555
C41 C40 1_555 1_555
H32 C41 1_555 1_555
C42 C37 1_555 1_555
H33 C42 1_555 1_555
C43 Sn2 1_555 1_555
C44 C43 1_555 1_555
H34 C44 1_555 1_555
C45 C44 1_555 1_555
H35 C45 1_555 1_555
C46 C45 1_555 1_555
H36 C46 1_555 1_555
C47 C46 1_555 1_555
H37 C47 1_555 1_555
C48 C43 1_555 1_555
H38 C48 1_555 1_555
Sn1E O2 1_555 1_555
O2E Sn1 1_555 1_555
Sn2C O4 1_555 1_555
O4C Sn2 1_555 1_555
C3 C4 1_555 1_555
C5 C6 1_555 1_555
C11 C12 1_555 1_555
C17 C18 1_555 1_555
C23 C24 1_555 1_555
C27 C28 1_555 1_555
C29 C30 1_555 1_555
C35 C36 1_555 1_555
C41 C42 1_555 1_555
C47 C48 1_555 1_555

#END
