
#######################################################################
#
#                 Cambridge Crystallographic Data Centre
#                                CCDC 
#
#######################################################################
#
# If this CIF has been generated from an entry in the Cambridge 
# Structural Database, then it will include bibliographic, chemical, 
# crystal, experimental, refinement or atomic coordinate data resulting 
# from the CCDC's data processing and validation procedures.
#
#######################################################################

data_TUNNIB
_symmetry_cell_setting           monoclinic
_symmetry_space_group_name_H-M   'P 21/n'
_symmetry_Int_Tables_number      14
_space_group_name_Hall           '-P 2yn'
loop_
_symmetry_equiv_pos_site_id
_symmetry_equiv_pos_as_xyz
1 x,y,z
2 1/2-x,1/2+y,1/2-z
3 -x,-y,-z
4 1/2+x,1/2-y,1/2+z
_cell_length_a                   15.236(5)
_cell_length_b                   13.579(5)
_cell_length_c                   15.361(5)
_cell_angle_alpha                90
_cell_angle_beta                 108.375(5)
_cell_angle_gamma                90
_cell_volume                     3016
loop_
_atom_site_label
_atom_site_type_symbol
_atom_site_fract_x
_atom_site_fract_y
_atom_site_fract_z
Zn1 Zn 0.41787(2) 0.73183(3) 0.32116(2)
Fe1 Fe -0.28684(3) 0.42802(3) 0.17017(3)
S1 S 0.63505(6) 0.49821(7) 0.47183(8)
S2 S 0.34825(13) 0.99576(10) 0.46334(11)
N1 N 0.01724(15) 0.63570(16) 0.43052(15)
C1 C -0.07700(16) 0.66103(19) 0.52669(17)
C2 C 0.03770(18) 0.5910(2) 0.36137(18)
C3 C 0.12786(18) 0.6200(2) 0.35103(18)
C4 C -0.06209(17) 0.61060(19) 0.44557(17)
N2 N 0.29742(15) 0.67919(19) 0.33394(15)
C5 C -0.10203(17) 0.4941(2) 0.32113(18)
C6 C -0.12257(17) 0.5410(2) 0.39291(18)
H1 H -0.1768 0.5257 0.4056
C7 C -0.16049(18) 0.4151(2) 0.26711(19)
N3 N -0.09312(16) 0.74124(17) 0.68750(16)
C8 C -0.0220(2) 0.7646(2) 0.6578(2)
H2 H 0.0225 0.8083 0.6921
C9 C 0.1863(2) 0.6832(3) 0.4133(2)
H3 H 0.1694 0.7071 0.4625
C10 C -0.02015(18) 0.5212(2) 0.30533(19)
H4 H -0.0042 0.4927 0.2574
C11 C -0.15243(18) 0.6397(2) 0.55573(19)
H5 H -0.1991 0.5982 0.5215
C12 C -0.01249(19) 0.7261(2) 0.5786(2)
H6 H 0.0377 0.7441 0.5600
C13 C 0.1590(2) 0.5857(2) 0.2806(2)
H7 H 0.1233 0.5417 0.2375
C14 C -0.15705(18) 0.6808(2) 0.6357(2)
H8 H -0.2077 0.6656 0.6547
C15 C 0.2426(2) 0.6170(2) 0.2754(2)
H9 H 0.2620 0.5931 0.2277
N4 N 0.4262(2) 0.8628(2) 0.3745(2)
C16 C 0.5664(2) 0.5804(2) 0.4107(2)
C17 C -0.2288(2) 0.3594(2) 0.2908(3)
C18 C 0.2693(2) 0.7110(3) 0.4030(2)
H10 H 0.3073 0.7536 0.4460
C19 C -0.1563(2) 0.3779(2) 0.1815(2)
C20 C -0.3173(4) 0.5510(5) 0.0926(6)
C21 C 0.3947(3) 0.9182(3) 0.4129(3)
C22 C -0.2216(2) 0.3005(3) 0.1540(3)
N5 N 0.51658(19) 0.6383(2) 0.36712(19)
C23 C -0.3392(3) 0.5639(3) 0.1746(4)
H11 H -0.3139 0.6104 0.2201
C24 C -0.3717(5) 0.4719(6) 0.0468(4)
H12 H -0.3718 0.4463 -0.0093
C25 C -0.2657(2) 0.2894(2) 0.2216(3)
C26 C -0.4055(3) 0.4941(4) 0.1742(4)
H13 H -0.4333 0.4862 0.2196
C27 C -0.4235(3) 0.4390(4) 0.0967(5)
H14 H -0.270(3) 0.582(3) 0.079(3)
H15 H -0.119(2) 0.394(2) 0.153(2)
H16 H -0.230(3) 0.278(3) 0.086(3)
H17 H -0.320(3) 0.245(3) 0.220(3)
H18 H -0.244(3) 0.369(3) 0.334(3)
H19 H -0.468(4) 0.381(4) 0.099(4)
Zn1C Zn -0.08213(2) 0.76817(3) 0.82116(2)
N3C N 0.40688(16) 0.75876(17) 0.18750(16)
Cl1 Cl 0.87508(12) 0.12272(11) 0.77002(11)
Cl2 Cl 0.91019(13) 0.26115(11) 0.91598(11)
Cl3 Cl 1.04518(13) 0.23112(17) 0.8252(2)
C28 C 0.9607(3) 0.1755(4) 0.8624(4)
H20 H 0.9895 0.1236 0.9064
loop_
_geom_bond_atom_site_label_1
_geom_bond_atom_site_label_2
_geom_bond_site_symmetry_1
_geom_bond_site_symmetry_2
Zn1 N2 1_555 1_555
Fe1 C7 1_555 1_555
S1 C16 1_555 1_555
S2 C21 1_555 1_555
N1 C2 1_555 1_555
C1 C4 1_555 1_555
C2 C3 1_555 1_555
C3 C9 1_555 1_555
C4 N1 1_555 1_555
N2 C15 1_555 1_555
C5 C6 1_555 1_555
C6 C4 1_555 1_555
H1 C6 1_555 1_555
C7 C5 1_555 1_555
N3 C8 1_555 1_555
C8 H2 1_555 1_555
C9 H3 1_555 1_555
C10 C2 1_555 1_555
H4 C10 1_555 1_555
C11 C1 1_555 1_555
H5 C11 1_555 1_555
C12 C1 1_555 1_555
H6 C12 1_555 1_555
C13 C3 1_555 1_555
H7 C13 1_555 1_555
C14 N3 1_555 1_555
H8 C14 1_555 1_555
C15 C13 1_555 1_555
H9 C15 1_555 1_555
N4 Zn1 1_555 1_555
C16 N5 1_555 1_555
C17 Fe1 1_555 1_555
C18 N2 1_555 1_555
H10 C18 1_555 1_555
C19 Fe1 1_555 1_555
C20 Fe1 1_555 1_555
C21 N4 1_555 1_555
C22 Fe1 1_555 1_555
N5 Zn1 1_555 1_555
C23 Fe1 1_555 1_555
H11 C23 1_555 1_555
C24 Fe1 1_555 1_555
H12 C24 1_555 1_555
C25 Fe1 1_555 1_555
C26 Fe1 1_555 1_555
H13 C26 1_555 1_555
C27 Fe1 1_555 1_555
H14 C20 1_555 1_555
H15 C19 1_555 1_555
H16 C22 1_555 1_555
H17 C25 1_555 1_555
H18 C17 1_555 1_555
H19 C27 1_555 1_555
Cl1 C28 1_555 1_555
Cl2 C28 1_555 1_555
Cl3 C28 1_555 1_555
C28 H20 1_555 1_555
Zn1C N3 1_555 1_555
N3C Zn1 1_555 1_555
C5 C10 1_555 1_555
C7 C17 1_555 1_555
C7 C19 1_555 1_555
C8 C12 1_555 1_555
C9 C18 1_555 1_555
C11 C14 1_555 1_555
C17 C25 1_555 1_555
C19 C22 1_555 1_555
C20 C23 1_555 1_555
C20 C24 1_555 1_555
C22 C25 1_555 1_555
C23 C26 1_555 1_555
C24 C27 1_555 1_555
C26 C27 1_555 1_555

#END
