
#######################################################################
#
#                 Cambridge Crystallographic Data Centre
#                                CCDC 
#
#######################################################################
#
# If this CIF has been generated from an entry in the Cambridge 
# Structural Database, then it will include bibliographic, chemical, 
# crystal, experimental, refinement or atomic coordinate data resulting 
# from the CCDC's data processing and validation procedures.
#
#######################################################################

data_TUNRUR
_symmetry_cell_setting           orthorhombic
_symmetry_space_group_name_H-M   'P n m a'
_symmetry_Int_Tables_number      62
_space_group_name_Hall           '-P 2ac 2n'
loop_
_symmetry_equiv_pos_site_id
_symmetry_equiv_pos_as_xyz
1 x,y,z
2 1/2-x,-y,1/2+z
3 1/2+x,1/2-y,1/2-z
4 -x,1/2+y,-z
5 -x,-y,-z
6 1/2+x,y,1/2-z
7 1/2-x,1/2+y,1/2+z
8 x,1/2-y,z
_cell_length_a                   9.5591(10)
_cell_length_b                   21.864(2)
_cell_length_c                   8.5122(8)
_cell_angle_alpha                90
_cell_angle_beta                 90
_cell_angle_gamma                90
_cell_volume                     1779.05
loop_
_atom_site_label
_atom_site_type_symbol
_atom_site_fract_x
_atom_site_fract_y
_atom_site_fract_z
Cd1 Cd 0.37632(9) 0.2500 0.60638(9)
S1 S 0.5092(3) 0.2500 0.9747(3)
O1 O 0.2416(6) -0.1378(2) 0.6170(7)
H1 H 0.1695 -0.1528 0.5820
O2 O 0.3832(8) 0.2500 0.8735(8)
O3 O 0.6343(8) 0.2500 0.8695(8)
O4 O 0.5081(6) 0.1959(3) 1.0705(8)
N1 N 0.3802(7) 0.1450(3) 0.6151(7)
N2 N 0.2382(7) -0.0734(3) 0.5966(7)
N3 N 0.4549(8) -0.0824(3) 0.7218(9)
H2 H 0.525(6) -0.067(3) 0.769(9)
H3 H 0.438(8) -0.1209(13) 0.734(9)
C1 C 0.2849(8) 0.1123(3) 0.5336(9)
H4 H 0.2235 0.1332 0.4680
C2 C 0.2743(8) 0.0506(3) 0.5427(9)
H5 H 0.2058 0.0305 0.4847
C3 C 0.3639(8) 0.0170(3) 0.6370(9)
C4 C 0.4637(9) 0.0501(4) 0.7162(9)
H6 H 0.5278 0.0298 0.7797
C5 C 0.4706(9) 0.1134(4) 0.7031(10)
H7 H 0.5403 0.1343 0.7571
C6 C 0.3509(8) -0.0500(3) 0.6508(9)
O5 O 0.6012(8) 0.2500 0.5069(11)
H8 H 0.642(11) 0.2500 0.596(6)
H9 H 0.655(10) 0.2500 0.426(8)
O6 O 0.3264(9) 0.2500 0.3402(9)
H10 H 0.371(9) 0.2500 0.253(7)
H11 H 0.236(2) 0.2500 0.332(12)
O4G O 0.5081(6) 0.3041(3) 1.0705(8)
O1G O 0.2416(6) 0.6378(2) 0.6170(7)
H1G H 0.1695 0.6528 0.5820
N1G N 0.3802(7) 0.3550(3) 0.6151(7)
N2G N 0.2382(7) 0.5734(3) 0.5966(7)
N3G N 0.4549(8) 0.5824(3) 0.7218(9)
H2G H 0.525(6) 0.567(3) 0.769(9)
H3G H 0.438(8) 0.6209(13) 0.734(9)
C1G C 0.2849(8) 0.3877(3) 0.5336(9)
H4G H 0.2235 0.3668 0.4680
C2G C 0.2743(8) 0.4494(3) 0.5427(9)
H5G H 0.2058 0.4695 0.4847
C3G C 0.3639(8) 0.4830(3) 0.6370(9)
C4G C 0.4637(9) 0.4499(4) 0.7162(9)
H6G H 0.5278 0.4702 0.7797
C5G C 0.4706(9) 0.3866(4) 0.7031(10)
H7G H 0.5403 0.3657 0.7571
C6G C 0.3509(8) 0.5500(3) 0.6508(9)
Cd1B Cd 0.87632(9) 0.2500 0.89362(9)
O3B O 0.1343(8) 0.2500 0.6305(8)
loop_
_geom_bond_atom_site_label_1
_geom_bond_atom_site_label_2
_geom_bond_site_symmetry_1
_geom_bond_site_symmetry_2
Cd1 O2 1_555 1_555
S1 O2 1_555 1_555
O1 H1 1_555 1_555
O3 S1 1_555 1_555
O4 S1 1_555 1_555
N1 Cd1 1_555 1_555
N2 O1 1_555 1_555
N3 H2 1_555 1_555
H3 N3 1_555 1_555
C1 N1 1_555 1_555
H4 C1 1_555 1_555
C2 C1 1_555 1_555
H5 C2 1_555 1_555
C3 C2 1_555 1_555
C4 C3 1_555 1_555
H6 C4 1_555 1_555
C5 N1 1_555 1_555
H7 C5 1_555 1_555
C6 N2 1_555 1_555
O5 Cd1 1_555 1_555
H8 O5 1_555 1_555
H9 O5 1_555 1_555
O6 Cd1 1_555 1_555
H10 O6 1_555 1_555
H11 O6 1_555 1_555
O4G S1 1_555 1_555
O1G H1G 1_555 1_555
N1G Cd1 1_555 1_555
N2G O1G 1_555 1_555
N3G H2G 1_555 1_555
H3G N3G 1_555 1_555
C1G N1G 1_555 1_555
H4G C1G 1_555 1_555
C2G C1G 1_555 1_555
H5G C2G 1_555 1_555
C3G C2G 1_555 1_555
C4G C3G 1_555 1_555
H6G C4G 1_555 1_555
C5G N1G 1_555 1_555
H7G C5G 1_555 1_555
C6G N2G 1_555 1_555
Cd1B O3 1_555 1_555
O3B Cd1 1_555 1_555
N3 C6 1_555 1_555
C3 C6 1_555 1_555
C4 C5 1_555 1_555
N3G C6G 1_555 1_555
C3G C6G 1_555 1_555
C4G C5G 1_555 1_555

#END
