
#######################################################################
#
#                 Cambridge Crystallographic Data Centre
#                                CCDC 
#
#######################################################################
#
# If this CIF has been generated from an entry in the Cambridge 
# Structural Database, then it will include bibliographic, chemical, 
# crystal, experimental, refinement or atomic coordinate data resulting 
# from the CCDC's data processing and validation procedures.
#
#######################################################################

data_TUNRIF
_symmetry_cell_setting           orthorhombic
_symmetry_space_group_name_H-M   'P b c a'
_symmetry_Int_Tables_number      61
_space_group_name_Hall           '-P 2ac 2ab'
loop_
_symmetry_equiv_pos_site_id
_symmetry_equiv_pos_as_xyz
1 x,y,z
2 1/2-x,-y,1/2+z
3 1/2+x,1/2-y,-z
4 -x,1/2+y,1/2-z
5 -x,-y,-z
6 1/2+x,y,1/2-z
7 1/2-x,1/2+y,z
8 x,1/2-y,1/2+z
_cell_length_a                   9.1328(6)
_cell_length_b                   9.0544(5)
_cell_length_c                   39.490(4)
_cell_angle_alpha                90
_cell_angle_beta                 90
_cell_angle_gamma                90
_cell_volume                     3265.51
loop_
_atom_site_label
_atom_site_type_symbol
_atom_site_fract_x
_atom_site_fract_y
_atom_site_fract_z
Zn1 Zn 0.10083(6) 0.28856(6) 0.124069(13)
S1 S 0.44576(13) 0.41573(12) 0.12445(3)
O1 O 0.2126(4) 0.4486(4) -0.08441(8)
H1 H 0.2798 0.5003 -0.0914
O2 O 0.2564(5) 0.0699(4) 0.32758(9)
H2 H 0.3294 0.0232 0.3332
O3 O 0.3325(3) 0.2989(3) 0.12116(8)
O4 O 0.3741(4) 0.5585(3) 0.11750(8)
O5 O 0.5594(4) 0.3868(4) 0.09931(10)
O6 O 0.5069(4) 0.4134(4) 0.15850(9)
N1 N 0.0972(4) 0.3126(4) 0.07044(10)
N2 N 0.2114(5) 0.4516(5) -0.04931(10)
N3 N 0.1138(4) 0.2628(4) 0.17731(10)
N4 N 0.2557(5) 0.0874(5) 0.29264(10)
C1 C 0.1715(5) 0.4241(5) 0.05578(11)
H3 H 0.2185 0.4921 0.0697
C2 C 0.1814(6) 0.4424(5) 0.02143(12)
H4 H 0.2349 0.5209 0.0126
C3 C 0.1118(5) 0.3439(5) -0.00047(12)
C4 C 0.0340(6) 0.2309(5) 0.01455(12)
H5 H -0.0161 0.1630 0.0012
C5 C 0.0303(5) 0.2181(6) 0.04970(13)
H6 H -0.0215 0.1398 0.0591
C6 C 0.1234(5) 0.3558(6) -0.03714(12)
H7 H 0.0683 0.2954 -0.0513
C7 C 0.0301(5) 0.3316(5) 0.19963(12)
H8 H -0.0394 0.3978 0.1915
C8 C 0.0396(5) 0.3106(5) 0.23464(12)
H9 H -0.0213 0.3626 0.2493
C9 C 0.1412(5) 0.2113(5) 0.24717(12)
C10 C 0.2290(6) 0.1395(6) 0.22370(12)
H10 H 0.2993 0.0723 0.2310
C11 C 0.2126(6) 0.1669(6) 0.18991(12)
H11 H 0.2727 0.1168 0.1748
C12 C 0.1575(5) 0.1834(5) 0.28345(12)
H12 H 0.1000 0.2324 0.2993
O7 O -0.1359(4) 0.2736(4) 0.12685(9)
H13 H -0.165(5) 0.228(5) 0.1446(7)
H14 H -0.190(5) 0.261(6) 0.1094(7)
O8 O 0.0484(4) 0.5173(4) 0.12984(10)
H15 H -0.029(4) 0.510(6) 0.1182(12)
H16 H 0.100(5) 0.595(4) 0.1259(13)
Zn1F Zn 0.39917(6) 0.78856(6) 0.124069(13)
O4F O 0.1259(4) 0.0585(3) 0.11750(8)
loop_
_geom_bond_atom_site_label_1
_geom_bond_atom_site_label_2
_geom_bond_site_symmetry_1
_geom_bond_site_symmetry_2
Zn1 O3 1_555 1_555
S1 O3 1_555 1_555
O1 H1 1_555 1_555
O2 H2 1_555 1_555
O4 S1 1_555 1_555
O5 S1 1_555 1_555
O6 S1 1_555 1_555
N1 Zn1 1_555 1_555
N2 O1 1_555 1_555
N3 Zn1 1_555 1_555
N4 O2 1_555 1_555
C1 N1 1_555 1_555
H3 C1 1_555 1_555
C2 C1 1_555 1_555
H4 C2 1_555 1_555
C3 C2 1_555 1_555
C4 C3 1_555 1_555
H5 C4 1_555 1_555
C5 N1 1_555 1_555
H6 C5 1_555 1_555
C6 N2 1_555 1_555
H7 C6 1_555 1_555
C7 N3 1_555 1_555
H8 C7 1_555 1_555
C8 C7 1_555 1_555
H9 C8 1_555 1_555
C9 C8 1_555 1_555
C10 C9 1_555 1_555
H10 C10 1_555 1_555
C11 N3 1_555 1_555
H11 C11 1_555 1_555
C12 N4 1_555 1_555
H12 C12 1_555 1_555
O7 Zn1 1_555 1_555
H13 O7 1_555 1_555
H14 O7 1_555 1_555
O8 Zn1 1_555 1_555
H15 O8 1_555 1_555
H16 O8 1_555 1_555
Zn1F O4 1_555 1_555
O4F Zn1 1_555 1_555
C3 C6 1_555 1_555
C4 C5 1_555 1_555
C9 C12 1_555 1_555
C10 C11 1_555 1_555

#END
