
#######################################################################
#
#                 Cambridge Crystallographic Data Centre
#                                CCDC 
#
#######################################################################
#
# If this CIF has been generated from an entry in the Cambridge 
# Structural Database, then it will include bibliographic, chemical, 
# crystal, experimental, refinement or atomic coordinate data resulting 
# from the CCDC's data processing and validation procedures.
#
#######################################################################

data_TUNSEC
_symmetry_cell_setting           monoclinic
_symmetry_space_group_name_H-M   'P 21/c'
_symmetry_Int_Tables_number      14
_space_group_name_Hall           '-P 2ybc'
loop_
_symmetry_equiv_pos_site_id
_symmetry_equiv_pos_as_xyz
1 x,y,z
2 -x,1/2+y,1/2-z
3 -x,-y,-z
4 x,1/2-y,1/2+z
_cell_length_a                   21.2322(6)
_cell_length_b                   8.5552(3)
_cell_length_c                   9.4750(3)
_cell_angle_alpha                90
_cell_angle_beta                 94.688(3)
_cell_angle_gamma                90
_cell_volume                     1715.34
loop_
_atom_site_label
_atom_site_type_symbol
_atom_site_fract_x
_atom_site_fract_y
_atom_site_fract_z
Zn1 Zn 0.253552(15) 0.41137(4) 0.55768(3)
S1 S 0.24615(3) 0.45478(8) 0.92349(7)
O1 O 0.64400(9) 0.3838(3) 0.8005(2)
H1 H 0.6596 0.4165 0.8769
O2 O -0.12976(9) 0.3018(3) 0.2701(2)
H2 H -0.1475 0.3500 0.2034
O3 O 0.25135(9) 0.3783(2) 0.78455(19)
O4 O 0.29334(10) 0.5812(2) 0.9427(2)
O5 O 0.25963(9) 0.3383(2) 1.03632(18)
O6 O 0.18313(10) 0.5197(3) 0.9325(2)
N1 N 0.35317(11) 0.4024(3) 0.5882(2)
N2 N 0.57735(11) 0.4067(3) 0.7914(3)
N3 N 0.58792(12) 0.2863(3) 0.5734(3)
H3 H 0.6272(9) 0.268(4) 0.593(3)
H4 H 0.5711(13) 0.245(4) 0.498(2)
N4 N 0.15532(11) 0.3873(3) 0.5190(2)
N5 N -0.06608(11) 0.3535(3) 0.2933(2)
N6 N -0.06565(12) 0.1600(3) 0.4682(3)
H5 H -0.0515(13) 0.145(4) 0.553(2)
H6 H -0.1048(9) 0.142(4) 0.448(3)
C1 C 0.38499(13) 0.4776(4) 0.6957(3)
H7 H 0.3626 0.5412 0.7535
C2 C 0.44942(13) 0.4650(3) 0.7242(3)
H8 H 0.4695 0.5193 0.8002
C3 C 0.48451(13) 0.3721(3) 0.6406(3)
C4 C 0.45161(14) 0.2945(4) 0.5287(3)
H9 H 0.4731 0.2306 0.4693
C5 C 0.38713(13) 0.3127(4) 0.5061(3)
H10 H 0.3660 0.2603 0.4303
C6 C 0.55377(13) 0.3542(3) 0.6699(3)
C7 C 0.12496(14) 0.2753(4) 0.5826(3)
H11 H 0.1469 0.2199 0.6554
C8 C 0.06293(14) 0.2367(4) 0.5472(3)
H12 H 0.0442 0.1560 0.5945
C9 C 0.02820(12) 0.3182(3) 0.4407(3)
C10 C 0.05903(13) 0.4398(3) 0.3773(3)
H13 H 0.0374 0.5007 0.3080
C11 C 0.12168(13) 0.4700(3) 0.4175(3)
H14 H 0.1416 0.5507 0.3729
C12 C -0.03850(13) 0.2771(3) 0.3986(3)
O7 O 0.26046(11) 0.4509(3) 0.3363(2)
H15 H 0.2604(16) 0.363(2) 0.296(3)
H16 H 0.2870(14) 0.518(3) 0.305(4)
O8 O 0.24391(10) 0.6551(3) 0.5829(2)
H17 H 0.2093(11) 0.671(4) 0.620(3)
H18 H 0.2570(14) 0.734(3) 0.538(3)
Zn1C Zn 0.253552(15) 0.08863(4) 1.05768(3)
O5C O 0.25963(9) 0.1617(2) 0.53632(18)
loop_
_geom_bond_atom_site_label_1
_geom_bond_atom_site_label_2
_geom_bond_site_symmetry_1
_geom_bond_site_symmetry_2
Zn1 O3 1_555 1_555
S1 O3 1_555 1_555
O1 H1 1_555 1_555
O2 H2 1_555 1_555
O4 S1 1_555 1_555
O5 S1 1_555 1_555
O6 S1 1_555 1_555
N1 Zn1 1_555 1_555
N2 O1 1_555 1_555
N3 H3 1_555 1_555
H4 N3 1_555 1_555
N4 Zn1 1_555 1_555
N5 O2 1_555 1_555
N6 H5 1_555 1_555
H6 N6 1_555 1_555
C1 N1 1_555 1_555
H7 C1 1_555 1_555
C2 C1 1_555 1_555
H8 C2 1_555 1_555
C3 C2 1_555 1_555
C4 C3 1_555 1_555
H9 C4 1_555 1_555
C5 N1 1_555 1_555
H10 C5 1_555 1_555
C6 N2 1_555 1_555
C7 N4 1_555 1_555
H11 C7 1_555 1_555
C8 C7 1_555 1_555
H12 C8 1_555 1_555
C9 C8 1_555 1_555
C10 C9 1_555 1_555
H13 C10 1_555 1_555
C11 N4 1_555 1_555
H14 C11 1_555 1_555
C12 N5 1_555 1_555
O7 Zn1 1_555 1_555
H15 O7 1_555 1_555
H16 O7 1_555 1_555
O8 Zn1 1_555 1_555
H17 O8 1_555 1_555
H18 O8 1_555 1_555
Zn1C O5 1_555 1_555
O5C Zn1 1_555 1_555
N3 C6 1_555 1_555
N6 C12 1_555 1_555
C3 C6 1_555 1_555
C4 C5 1_555 1_555
C9 C12 1_555 1_555
C10 C11 1_555 1_555

#END
