
#######################################################################
#
#                 Cambridge Crystallographic Data Centre
#                                CCDC 
#
#######################################################################
#
# If this CIF has been generated from an entry in the Cambridge 
# Structural Database, then it will include bibliographic, chemical, 
# crystal, experimental, refinement or atomic coordinate data resulting 
# from the CCDC's data processing and validation procedures.
#
#######################################################################

data_TUPDIT
_symmetry_cell_setting           orthorhombic
_symmetry_space_group_name_H-M   'P n n a'
_symmetry_Int_Tables_number      52
_space_group_name_Hall           '-P 2a 2bc'
loop_
_symmetry_equiv_pos_site_id
_symmetry_equiv_pos_as_xyz
1 x,y,z
2 1/2-x,-y,z
3 1/2-x,1/2+y,1/2-z
4 x,1/2-y,1/2-z
5 -x,-y,-z
6 1/2+x,y,-z
7 1/2+x,1/2-y,1/2+z
8 -x,1/2+y,1/2+z
_cell_length_a                   12.5529(5)
_cell_length_b                   9.9941(4)
_cell_length_c                   17.6881(8)
_cell_angle_alpha                90
_cell_angle_beta                 90
_cell_angle_gamma                90
_cell_volume                     2219.06
loop_
_atom_site_label
_atom_site_type_symbol
_atom_site_fract_x
_atom_site_fract_y
_atom_site_fract_z
Cu1 Cu 0.7500 0.5000 0.66452(2)
O1 O 0.85383(13) 0.54909(17) 0.58523(10)
O2 O 0.77690(14) 0.73596(19) 0.62362(11)
N1 N 1.03145(17) 0.9502(3) 0.33477(13)
N2 N 0.9771(2) 1.0450(3) 0.29524(18)
N3 N 1.13497(16) 1.00450(19) 0.24120(13)
C1 C 0.83735(17) 0.6744(3) 0.57968(14)
C2 C 0.89208(18) 0.7486(3) 0.51709(15)
C3 C 0.9777(2) 0.6945(3) 0.47955(18)
H1 H 1.0047 0.6121 0.4947
C4 C 1.0241(2) 0.7612(3) 0.41951(18)
H2 H 1.0817 0.7237 0.3941
C5 C 0.9845(2) 0.8825(3) 0.39797(16)
C6 C 0.8996(2) 0.9393(3) 0.43479(19)
H3 H 0.8726 1.0217 0.4196
C7 C 0.8553(2) 0.8716(3) 0.4947(2)
H4 H 0.7989 0.9103 0.5208
C8 C 1.0420(2) 1.0740(4) 0.2397(2)
H5 H 1.0259 1.1366 0.2025
C9 C 1.12505(18) 0.9276(3) 0.30185(15)
H6 H 1.1759 0.8670 0.3189
O1A O 0.64617(13) 0.45091(17) 0.58523(10)
O2A O 0.72310(14) 0.26404(19) 0.62362(11)
N1A N 0.46855(17) 0.0498(3) 0.33477(13)
N2A N 0.5229(2) -0.0450(3) 0.29524(18)
N3A N 0.36503(16) -0.00450(19) 0.24120(13)
C1A C 0.66265(17) 0.3256(3) 0.57968(14)
C2A C 0.60792(18) 0.2514(3) 0.51709(15)
C3A C 0.5223(2) 0.3055(3) 0.47955(18)
H1A H 0.4953 0.3879 0.4947
C4A C 0.4759(2) 0.2388(3) 0.41951(18)
H2A H 0.4183 0.2763 0.3941
C5A C 0.5155(2) 0.1175(3) 0.39797(16)
C6A C 0.6004(2) 0.0607(3) 0.43479(19)
H3A H 0.6274 -0.0217 0.4196
C7A C 0.6447(2) 0.1284(3) 0.4947(2)
H4A H 0.7011 0.0897 0.5208
C8A C 0.4580(2) -0.0740(4) 0.2397(2)
H5A H 0.4741 -0.1366 0.2025
C9A C 0.37495(18) 0.0724(3) 0.30185(15)
H6A H 0.3241 0.1330 0.3189
Cu1F Cu 0.2500 0.0000 0.16452(2)
Cu1F_2 Cu 1.2500 1.0000 0.16452(2)
N3F N 0.63497(16) 0.49550(19) 0.74120(13)
N3G N 0.86503(16) 0.50450(19) 0.74120(13)
loop_
_geom_bond_atom_site_label_1
_geom_bond_atom_site_label_2
_geom_bond_site_symmetry_1
_geom_bond_site_symmetry_2
Cu1 O1 1_555 1_555
O1 C1 1_555 1_555
O2 Cu1 1_555 1_555
N1 N2 1_555 1_555
N2 C8 1_555 1_555
N3 C8 1_555 1_555
C1 O2 1_555 1_555
C2 C1 1_555 1_555
C3 C2 1_555 1_555
H1 C3 1_555 1_555
C4 C3 1_555 1_555
H2 C4 1_555 1_555
C5 N1 1_555 1_555
C6 C5 1_555 1_555
H3 C6 1_555 1_555
C7 C2 1_555 1_555
H4 C7 1_555 1_555
C8 H5 1_555 1_555
C9 N1 1_555 1_555
H6 C9 1_555 1_555
O1A Cu1 1_555 1_555
O2A Cu1 1_555 1_555
N1A N2A 1_555 1_555
N2A C8A 1_555 1_555
N3A C8A 1_555 1_555
C1A O1A 1_555 1_555
C2A C1A 1_555 1_555
C3A C2A 1_555 1_555
H1A C3A 1_555 1_555
C4A C3A 1_555 1_555
H2A C4A 1_555 1_555
C5A N1A 1_555 1_555
C6A C5A 1_555 1_555
H3A C6A 1_555 1_555
C7A C2A 1_555 1_555
H4A C7A 1_555 1_555
C8A H5A 1_555 1_555
C9A N1A 1_555 1_555
H6A C9A 1_555 1_555
Cu1F N3A 1_555 1_555
Cu1F_2 N3 1_555 1_555
N3F Cu1 1_555 1_555
N3G Cu1 1_555 1_555
N3 C9 1_555 1_555
C4 C5 1_555 1_555
C6 C7 1_555 1_555
O2A C1A 1_555 1_555
N3A C9A 1_555 1_555
C4A C5A 1_555 1_555
C6A C7A 1_555 1_555

#END
