
#######################################################################
#
#                 Cambridge Crystallographic Data Centre
#                                CCDC 
#
#######################################################################
#
# If this CIF has been generated from an entry in the Cambridge 
# Structural Database, then it will include bibliographic, chemical, 
# crystal, experimental, refinement or atomic coordinate data resulting 
# from the CCDC's data processing and validation procedures.
#
#######################################################################

data_TUPDOZ
_symmetry_cell_setting           orthorhombic
_symmetry_space_group_name_H-M   'P n n a'
_symmetry_Int_Tables_number      52
_space_group_name_Hall           '-P 2a 2bc'
loop_
_symmetry_equiv_pos_site_id
_symmetry_equiv_pos_as_xyz
1 x,y,z
2 1/2-x,-y,z
3 1/2-x,1/2+y,1/2-z
4 x,1/2-y,1/2-z
5 -x,-y,-z
6 1/2+x,y,-z
7 1/2+x,1/2-y,1/2+z
8 -x,1/2+y,1/2+z
_cell_length_a                   12.6065(8)
_cell_length_b                   10.1370(10)
_cell_length_c                   17.5701(12)
_cell_angle_alpha                90
_cell_angle_beta                 90
_cell_angle_gamma                90
_cell_volume                     2245.32
loop_
_atom_site_label
_atom_site_type_symbol
_atom_site_fract_x
_atom_site_fract_y
_atom_site_fract_z
Cu1 Cu 0.7500 0.5000 -0.16528(4)
O1 O 0.8532(3) 0.4484(4) -0.08598(19)
O2 O 0.7770(3) 0.2661(4) -0.1253(2)
N1 N 1.0326(4) 0.0531(5) 0.1635(3)
N2 N 0.9794(5) -0.0420(7) 0.2025(4)
N3 N 1.1351(3) -0.0021(4) 0.2576(2)
C1 C 0.8379(4) 0.3243(6) -0.0810(3)
C2 C 0.8929(4) 0.2519(5) -0.0195(3)
C3 C 0.9770(4) 0.3046(6) 0.0183(3)
H1 H 1.0037 0.3858 0.0029
C4 C 1.0248(5) 0.2396(6) 0.0801(4)
H2 H 1.0814 0.2774 0.1062
C5 C 0.9855(4) 0.1190(5) 0.1009(3)
C6 C 0.9011(5) 0.0646(7) 0.0638(4)
H3 H 0.8739 -0.0163 0.0793
C7 C 0.8566(5) 0.1308(6) 0.0029(4)
H4 H 0.8006 0.0922 -0.0234
C8 C 1.0440(5) -0.0724(9) 0.2574(4)
H5 H 1.0289 -0.1370 0.2934
C9 C 1.1245(4) 0.0758(5) 0.1970(3)
H6 H 1.1745 0.1371 0.1807
O1A O 0.6468(3) 0.5516(4) -0.08598(19)
O2A O 0.7230(3) 0.7339(4) -0.1253(2)
N1A N 0.4674(4) 0.9469(5) 0.1635(3)
N2A N 0.5206(5) 1.0420(7) 0.2025(4)
N3A N 0.3649(3) 1.0021(4) 0.2576(2)
C1A C 0.6621(4) 0.6757(6) -0.0810(3)
C2A C 0.6071(4) 0.7481(5) -0.0195(3)
C3A C 0.5230(4) 0.6954(6) 0.0183(3)
H1A H 0.4963 0.6142 0.0029
C4A C 0.4752(5) 0.7604(6) 0.0801(4)
H2A H 0.4186 0.7226 0.1062
C5A C 0.5145(4) 0.8810(5) 0.1009(3)
C6A C 0.5989(5) 0.9354(7) 0.0638(4)
H3A H 0.6261 1.0163 0.0793
C7A C 0.6434(5) 0.8692(6) 0.0029(4)
H4A H 0.6994 0.9078 -0.0234
C8A C 0.4560(5) 1.0724(9) 0.2574(4)
H5A H 0.4711 1.1370 0.2934
C9A C 0.3755(4) 0.9242(5) 0.1970(3)
H6A H 0.3255 0.8629 0.1807
Cu1F Cu 0.2500 1.0000 0.33472(4)
Cu1F_2 Cu 1.2500 0.0000 0.33472(4)
N3F N 0.6351(3) 0.5021(4) -0.2424(2)
N3G N 0.8649(3) 0.4979(4) -0.2424(2)
O3 O 0.747(2) 0.7500 0.2500
H7 H 0.7638 0.7581 0.2949
H7C H 0.7638 0.7419 0.2051
O4 O 0.204(3) 0.390(5) 0.882(2)
H8 H 0.2466 0.4305 0.8547
H9 H 0.1771 0.4470 0.9091
H10? H 0.6821 0.7500 0.2500
loop_
_geom_bond_atom_site_label_1
_geom_bond_atom_site_label_2
_geom_bond_site_symmetry_1
_geom_bond_site_symmetry_2
Cu1 O1 1_555 1_555
O1 C1 1_555 1_555
O2 Cu1 1_555 1_555
N1 N2 1_555 1_555
N2 C8 1_555 1_555
N3 C8 1_555 1_555
C1 O2 1_555 1_555
C2 C1 1_555 1_555
C3 C2 1_555 1_555
H1 C3 1_555 1_555
C4 C3 1_555 1_555
H2 C4 1_555 1_555
C5 N1 1_555 1_555
C6 C5 1_555 1_555
H3 C6 1_555 1_555
C7 C2 1_555 1_555
H4 C7 1_555 1_555
C8 H5 1_555 1_555
C9 N1 1_555 1_555
H6 C9 1_555 1_555
O3 H7 1_555 1_555
O4 H8 1_555 1_555
H9 O4 1_555 1_555
O1A Cu1 1_555 1_555
O2A Cu1 1_555 1_555
N1A N2A 1_555 1_555
N2A C8A 1_555 1_555
N3A C8A 1_555 1_555
C1A O1A 1_555 1_555
C2A C1A 1_555 1_555
C3A C2A 1_555 1_555
H1A C3A 1_555 1_555
C4A C3A 1_555 1_555
H2A C4A 1_555 1_555
C5A N1A 1_555 1_555
C6A C5A 1_555 1_555
H3A C6A 1_555 1_555
C7A C2A 1_555 1_555
H4A C7A 1_555 1_555
C8A H5A 1_555 1_555
C9A N1A 1_555 1_555
H6A C9A 1_555 1_555
Cu1F N3A 1_555 1_555
Cu1F_2 N3 1_555 1_555
N3F Cu1 1_555 1_555
N3G Cu1 1_555 1_555
H7C O3 1_555 1_555
N3 C9 1_555 1_555
C4 C5 1_555 1_555
C6 C7 1_555 1_555
O2A C1A 1_555 1_555
N3A C9A 1_555 1_555
C4A C5A 1_555 1_555
C6A C7A 1_555 1_555

#END
