
#######################################################################
#
#                 Cambridge Crystallographic Data Centre
#                                CCDC 
#
#######################################################################
#
# If this CIF has been generated from an entry in the Cambridge 
# Structural Database, then it will include bibliographic, chemical, 
# crystal, experimental, refinement or atomic coordinate data resulting 
# from the CCDC's data processing and validation procedures.
#
#######################################################################

data_TUPGIU
_symmetry_cell_setting           triclinic
_symmetry_space_group_name_H-M   'P -1'
_symmetry_Int_Tables_number      2
_space_group_name_Hall           '-P 1'
loop_
_symmetry_equiv_pos_site_id
_symmetry_equiv_pos_as_xyz
1 x,y,z
2 -x,-y,-z
_cell_length_a                   6.971(1)
_cell_length_b                   12.540(3)
_cell_length_c                   13.212(4)
_cell_angle_alpha                112.62(2)
_cell_angle_beta                 96.10(2)
_cell_angle_gamma                93.44(2)
_cell_volume                     1053.64
loop_
_atom_site_label
_atom_site_type_symbol
_atom_site_fract_x
_atom_site_fract_y
_atom_site_fract_z
Na1 Na 0.2486(3) 0.5399(2) 0.4795(2)
O1 O 0.2815(4) 0.4859(3) 0.2872(3)
O2 O 0.5682(4) 0.4782(3) 0.3729(3)
N1 N 0.7566(5) 0.4907(3) 0.1888(3)
C1 C 0.4611(6) 0.4851(4) 0.2945(4)
C2 C 0.5406(6) 0.4901(4) 0.1924(4)
C3 C 0.8606(6) 0.5968(4) 0.2809(4)
C4 C 0.8259(6) 0.3822(4) 0.1951(4)
C5 C 0.7871(6) 0.4941(4) 0.0778(4)
C6 C 0.9969(6) 0.5034(5) 0.0585(4)
O3 O 0.0258(4) 0.3695(3) 0.4451(3)
O4 O -0.0920(5) 0.1840(3) 0.3682(3)
N2 N 0.2358(5) 0.1276(3) 0.2435(3)
C7 C 0.0342(6) 0.2650(4) 0.3875(4)
C8 C 0.2236(6) 0.2433(4) 0.3365(4)
C9 C 0.4321(6) 0.1361(5) 0.2091(4)
C10 C 0.2193(8) 0.0298(4) 0.2819(4)
C11 C 0.0797(6) 0.1103(4) 0.1490(4)
C12 C 0.0812(7) 0.0014(4) 0.0438(4)
O5 O 0.3622(6) 0.7420(4) 0.5008(3)
C13 C 0.3801(9) 0.7940(7) 0.4227(6)
C6A C 1.0031(6) 0.4966(5) -0.0585(4)
C5A C 1.2129(6) 0.5059(4) -0.0778(4)
N1A N 1.2434(5) 0.5093(3) -0.1888(3)
C2A C 1.4594(6) 0.5099(4) -0.1924(4)
C1A C 1.5389(6) 0.5149(4) -0.2945(4)
O1A O 1.7185(4) 0.5141(3) -0.2872(3)
O2A O 1.4318(4) 0.5218(3) -0.3729(3)
C3A C 1.1394(6) 0.4032(4) -0.2809(4)
C4A C 1.1741(6) 0.6178(4) -0.1951(4)
C12A C -0.0812(7) -0.0014(4) -0.0438(4)
C11A C -0.0797(6) -0.1103(4) -0.1490(4)
N2A N -0.2358(5) -0.1276(3) -0.2435(3)
C8A C -0.2236(6) -0.2433(4) -0.3365(4)
C7A C -0.0342(6) -0.2650(4) -0.3875(4)
O3A O -0.0258(4) -0.3695(3) -0.4451(3)
O4A O 0.0920(5) -0.1840(3) -0.3682(3)
C9A C -0.4321(6) -0.1361(5) -0.2091(4)
C10A C -0.2193(8) -0.0298(4) -0.2819(4)
O1A_2 O 0.7185(4) 0.5141(3) 0.7128(3)
O2A_2 O 0.4318(4) 0.5218(3) 0.6271(3)
O3A_2 O -0.0258(4) 0.6305(3) 0.5549(3)
Na1A Na 1.7514(3) 0.4601(2) -0.4795(2)
Na1A_2 Na 0.7514(3) 0.4601(2) 0.5205(2)
Na1_2 Na 1.2486(3) 0.5399(2) -0.5205(2)
Na1A_3 Na -0.2486(3) -0.5399(2) -0.4795(2)
Na1A_4 Na -0.2486(3) 0.4601(2) 0.5205(2)
Na1_3 Na 0.2486(3) -0.4601(2) -0.5205(2)
O3_2 O 1.0258(4) 0.3695(3) 0.4451(3)
O3A_3 O 0.9742(4) 0.6305(3) 0.5549(3)
O5A O 0.6378(6) 0.2580(4) 0.4992(3)
C13A C 0.6199(9) 0.2060(7) 0.5773(6)
O6 O 0.1404(11) 0.0492(11) 0.5639(11)
Cl1 Cl 0.6262(3) 0.8103(1) 0.0976(1)
O7 O 0.4757(8) 0.8411(5) 0.0357(5)
O8 O 0.5346(8) 0.7415(4) 0.1429(5)
O9 O 0.7422(7) 0.7453(4) 0.0208(5)
O10 O 0.7143(7) 0.9164(5) 0.1722(5)
loop_
_geom_bond_atom_site_label_1
_geom_bond_atom_site_label_2
_geom_bond_site_symmetry_1
_geom_bond_site_symmetry_2
Na1 O1 1_555 1_555
O1 C1 1_555 1_555
O2 C1 1_555 1_555
N1 C2 1_555 1_555
C1 C2 1_555 1_555
C3 N1 1_555 1_555
C4 N1 1_555 1_555
C5 N1 1_555 1_555
C6 C5 1_555 1_555
O3 Na1 1_555 1_555
O4 C7 1_555 1_555
N2 C8 1_555 1_555
C7 O3 1_555 1_555
C8 C7 1_555 1_555
C9 N2 1_555 1_555
C10 N2 1_555 1_555
C11 N2 1_555 1_555
C12 C11 1_555 1_555
O5 Na1 1_555 1_555
C13 O5 1_555 1_555
Cl1 O7 1_555 1_555
O8 Cl1 1_555 1_555
O9 Cl1 1_555 1_555
O10 Cl1 1_555 1_555
C6A C6 1_555 1_555
C5A C6A 1_555 1_555
N1A C5A 1_555 1_555
C2A N1A 1_555 1_555
C1A C2A 1_555 1_555
O1A C1A 1_555 1_555
O2A C1A 1_555 1_555
C3A N1A 1_555 1_555
C4A N1A 1_555 1_555
C12A C12 1_555 1_555
C11A C12A 1_555 1_555
N2A C11A 1_555 1_555
C8A N2A 1_555 1_555
C7A C8A 1_555 1_555
O3A C7A 1_555 1_555
O4A C7A 1_555 1_555
C9A N2A 1_555 1_555
C10A N2A 1_555 1_555
O1A_2 Na1A_2 1_555 1_555
O2A_2 Na1 1_555 1_555
O3A_2 Na1 1_555 1_555
Na1A O1A 1_555 1_555
Na1A_2 O2 1_555 1_555
Na1_2 O2A 1_555 1_555
Na1A_3 O3A 1_555 1_555
Na1A_4 O3 1_555 1_555
Na1_3 O3A 1_555 1_555
O3_2 Na1A_2 1_555 1_555
O3A_3 Na1A_2 1_555 1_555
O5A Na1A_2 1_555 1_555
C13A O5A 1_555 1_555
O3A_2 Na1A_4 1_555 1_555

#END
