
#######################################################################
#
#                 Cambridge Crystallographic Data Centre
#                                CCDC 
#
#######################################################################
#
# If this CIF has been generated from an entry in the Cambridge 
# Structural Database, then it will include bibliographic, chemical, 
# crystal, experimental, refinement or atomic coordinate data resulting 
# from the CCDC's data processing and validation procedures.
#
#######################################################################

data_TUPXOT
_symmetry_cell_setting           monoclinic
_symmetry_space_group_name_H-M   'P 21/c'
_symmetry_Int_Tables_number      14
_space_group_name_Hall           '-P 2ybc'
loop_
_symmetry_equiv_pos_site_id
_symmetry_equiv_pos_as_xyz
1 x,y,z
2 -x,1/2+y,1/2-z
3 -x,-y,-z
4 x,1/2-y,1/2+z
_cell_length_a                   14.015(6)
_cell_length_b                   18.465(8)
_cell_length_c                   10.743(5)
_cell_angle_alpha                90
_cell_angle_beta                 93.399(7)
_cell_angle_gamma                90
_cell_volume                     2775.26
loop_
_atom_site_label
_atom_site_type_symbol
_atom_site_fract_x
_atom_site_fract_y
_atom_site_fract_z
Co1 Co 0.06078(5) 0.61886(4) 0.46569(8)
Co2 Co 0.0000 0.5000 1.0000
P1 P 0.01147(11) 0.52935(8) 0.69755(15)
C1 C -0.0832(4) 0.5931(3) 0.6503(6)
H1 H -0.1443 0.5743 0.6734
H2 H -0.0720 0.6389 0.6927
C2 C -0.1543(4) 0.6584(4) 0.4679(6)
H3 H -0.1349 0.7048 0.5060
C3 C -0.1491(4) 0.6671(4) 0.3272(6)
H4 H -0.1579 0.6197 0.2892
H5 H -0.2025 0.6970 0.2970
C4 C -0.0580(5) 0.6999(3) 0.2812(6)
C5 C -0.2549(4) 0.6436(3) 0.5033(7)
C6 C -0.3038(5) 0.6911(4) 0.5725(8)
H6 H -0.2744 0.7343 0.5975
C7 C -0.3943(5) 0.6775(5) 0.6064(9)
H7 H -0.4251 0.7113 0.6542
C8 C -0.4398(6) 0.6152(4) 0.5712(9)
H8 H -0.5015 0.6057 0.5941
C9 C -0.3923(5) 0.5673(5) 0.5016(9)
H9 H -0.4215 0.5238 0.4779
C10 C -0.3027(5) 0.5821(4) 0.4660(9)
H10 H -0.2732 0.5494 0.4148
C11 C 0.2169(5) 0.4836(4) 1.0503(7)
H11 H 0.2246 0.5332 1.0398
C12 C 0.1554(5) 0.3791(4) 1.0597(6)
H12 H 0.1106 0.3419 1.0564
C13 C 0.2502(5) 0.3706(4) 1.0878(7)
H13 H 0.2822 0.3276 1.1076
C14 C 0.3910(5) 0.4564(4) 1.1035(8)
H14 H 0.4098 0.4479 1.1906
H15 H 0.3997 0.5075 1.0869
C15 C 0.4549(5) 0.4131(4) 1.0238(8)
C16 C 0.5399(5) 0.3862(5) 1.0753(8)
H16 H 0.5565 0.3939 1.1593
C17 C 0.6007(6) 0.3476(5) 1.0032(9)
H17 H 0.6592 0.3318 1.0387
C18 C 0.5772(6) 0.3326(4) 0.8830(9)
C19 C 0.4911(7) 0.3582(5) 0.8281(8)
H18 H 0.4741 0.3483 0.7448
C20 C 0.4304(6) 0.3994(5) 0.9002(8)
H19 H 0.3732 0.4174 0.8640
C21 C 0.6419(7) 0.2863(5) 0.8065(10)
H20 H 0.6914 0.2651 0.8622
H21 H 0.6045 0.2469 0.7691
C22 C 0.7776(5) 0.3362(4) 0.6976(8)
H22 H 0.8234 0.3219 0.7587
C23 C 0.7153(6) 0.3689(6) 0.5297(10)
H23 H 0.7048 0.3859 0.4485
C24 C 0.6462(6) 0.3405(6) 0.6015(10)
H24 H 0.5821 0.3336 0.5771
N1 N -0.0853(3) 0.6041(3) 0.5151(5)
H25 H -0.1064 0.5581 0.4775
N2 N 0.1353(4) 0.4503(3) 1.0370(5)
N3 N 0.2887(4) 0.4380(3) 1.0810(6)
N4 N 0.6870(4) 0.3255(4) 0.7086(6)
N5 N 0.8004(4) 0.3685(3) 0.5948(5)
O1 O -0.0295(3) 0.4539(2) 0.6795(4)
O2 O 0.0428(3) 0.5441(2) 0.8333(4)
O3 O 0.0915(3) 0.5445(2) 0.6102(4)
O4 O 0.0140(3) 0.7065(2) 0.3554(4)
O5 O -0.0613(3) 0.7182(3) 0.1693(4)
O6 O 0.0956(3) 0.7042(2) 0.6029(4)
H26 H 0.0461 0.7290 0.6160
H27 H 0.1222 0.6892 0.6713
O7 O -0.0575(3) 0.4050(2) 0.9058(4)
H28 H -0.0632 0.4239 0.8336
H29 H -0.0217 0.3682 0.8994
Co1B Co -0.06078(5) 0.38114(4) 0.53431(8)
P1B P -0.01147(11) 0.47065(8) 0.30245(15)
C1B C 0.0832(4) 0.4069(3) 0.3497(6)
H1B H 0.1443 0.4257 0.3266
H2B H 0.0720 0.3611 0.3073
C2B C 0.1543(4) 0.3416(4) 0.5321(6)
H3B H 0.1349 0.2952 0.4940
C3B C 0.1491(4) 0.3329(4) 0.6728(6)
H4B H 0.1579 0.3803 0.7108
H5B H 0.2025 0.3030 0.7030
C4B C 0.0580(5) 0.3001(3) 0.7188(6)
C5B C 0.2549(4) 0.3564(3) 0.4967(7)
C6B C 0.3038(5) 0.3089(4) 0.4275(8)
H6B H 0.2744 0.2657 0.4025
C7B C 0.3943(5) 0.3225(5) 0.3936(9)
H7B H 0.4251 0.2887 0.3458
C8B C 0.4398(6) 0.3848(4) 0.4288(9)
H8B H 0.5015 0.3943 0.4059
C9B C 0.3923(5) 0.4327(5) 0.4984(9)
H9B H 0.4215 0.4762 0.5221
C10B C 0.3027(5) 0.4179(4) 0.5340(9)
H10B H 0.2732 0.4506 0.5852
N1B N 0.0853(3) 0.3959(3) 0.4849(5)
H25B H 0.1064 0.4419 0.5225
O1B O 0.0295(3) 0.5461(2) 0.3205(4)
O2B O -0.0428(3) 0.4559(2) 0.1667(4)
O3B O -0.0915(3) 0.4555(2) 0.3898(4)
O4B O -0.0140(3) 0.2935(2) 0.6446(4)
O5B O 0.0613(3) 0.2818(3) 0.8307(4)
O6B O -0.0956(3) 0.2958(2) 0.3971(4)
H26B H -0.0461 0.2710 0.3840
H27B H -0.1222 0.3108 0.3287
C11B C 0.7831(5) 0.5164(4) -0.0503(7)
H11B H 0.7754 0.4668 -0.0398
C12B C 0.8446(5) 0.6209(4) -0.0597(6)
H12B H 0.8894 0.6581 -0.0564
C13B C 0.7498(5) 0.6294(4) -0.0878(7)
H13B H 0.7178 0.6724 -0.1076
C14B C 0.6090(5) 0.5436(4) -0.1035(8)
H14B H 0.5902 0.5521 -0.1906
H15B H 0.6003 0.4925 -0.0869
C15B C 0.5451(5) 0.5869(4) -0.0238(8)
C16B C 0.4601(5) 0.6138(5) -0.0753(8)
H16B H 0.4435 0.6061 -0.1593
C17B C 0.3993(6) 0.6524(5) -0.0032(9)
H17B H 0.3408 0.6682 -0.0387
C18B C 0.4228(6) 0.6674(4) 0.1170(9)
C19B C 0.5089(7) 0.6418(5) 0.1719(8)
H18B H 0.5259 0.6517 0.2552
C20B C 0.5696(6) 0.6006(5) 0.0998(8)
H19B H 0.6268 0.5826 0.1360
C21B C 0.3581(7) 0.7137(5) 0.1935(10)
H20B H 0.3086 0.7349 0.1378
H21B H 0.3955 0.7531 0.2309
C22B C 0.2224(5) 0.6638(4) 0.3024(8)
H22B H 0.1766 0.6781 0.2413
C23B C 0.2847(6) 0.6311(6) 0.4703(10)
H23B H 0.2952 0.6141 0.5515
C24B C 0.3538(6) 0.6595(6) 0.3985(10)
H24B H 0.4179 0.6664 0.4229
N2B N 0.8647(4) 0.5497(3) -0.0370(5)
N3B N 0.7113(4) 0.5620(3) -0.0810(6)
N4B N 0.3130(4) 0.6745(4) 0.2914(6)
N5B N 0.1996(4) 0.6315(3) 0.4052(5)
O7B O 0.0575(3) 0.5950(2) 1.0942(4)
H28B H 0.0632 0.5761 1.1664
H29B H 0.0217 0.6318 1.1006
Co1B_2 Co 0.93922(5) 0.38114(4) 0.53431(8)
Co2_2 Co 0.0000 0.5000 0.0000
Co2_3 Co 1.0000 0.5000 0.0000
N2B_2 N -0.1353(4) 0.5497(3) 0.9630(5)
N5_2 N -0.1996(4) 0.3685(3) 0.5948(5)
O2B_2 O -0.0428(3) 0.4559(2) 1.1667(4)
O8 O 0.2716(5) 0.5555(5) 0.7506(7)
H30 H 0.2208 0.5460 0.7062
H31 H 0.2655 0.5949 0.7904
O9 O 0.1507(4) 0.6692(3) 0.8599(5)
H32 H 0.1515 0.7100 0.8968
H33 H 0.1141 0.6403 0.8961
loop_
_geom_bond_atom_site_label_1
_geom_bond_atom_site_label_2
_geom_bond_site_symmetry_1
_geom_bond_site_symmetry_2
Co1 N1 1_555 1_555
Co2 N2 1_555 1_555
P1 C1 1_555 1_555
C1 H1 1_555 1_555
H2 C1 1_555 1_555
C2 H3 1_555 1_555
C3 C2 1_555 1_555
H4 C3 1_555 1_555
H5 C3 1_555 1_555
C4 C3 1_555 1_555
C5 C2 1_555 1_555
C6 C5 1_555 1_555
H6 C6 1_555 1_555
C7 C6 1_555 1_555
H7 C7 1_555 1_555
C8 C7 1_555 1_555
H8 C8 1_555 1_555
C9 C8 1_555 1_555
H9 C9 1_555 1_555
C10 C5 1_555 1_555
H10 C10 1_555 1_555
C11 H11 1_555 1_555
C12 H12 1_555 1_555
C13 C12 1_555 1_555
H13 C13 1_555 1_555
C14 H14 1_555 1_555
H15 C14 1_555 1_555
C15 C14 1_555 1_555
C16 C15 1_555 1_555
H16 C16 1_555 1_555
C17 C16 1_555 1_555
H17 C17 1_555 1_555
C18 C17 1_555 1_555
C19 C18 1_555 1_555
H18 C19 1_555 1_555
C20 C15 1_555 1_555
H19 C20 1_555 1_555
C21 C18 1_555 1_555
H20 C21 1_555 1_555
H21 C21 1_555 1_555
C22 H22 1_555 1_555
C23 H23 1_555 1_555
C24 C23 1_555 1_555
H24 C24 1_555 1_555
N1 C1 1_555 1_555
H25 N1 1_555 1_555
N2 C11 1_555 1_555
N3 C11 1_555 1_555
N4 C21 1_555 1_555
N5 C22 1_555 1_555
O1 P1 1_555 1_555
O2 Co2 1_555 1_555
O3 Co1 1_555 1_555
O4 Co1 1_555 1_555
O5 C4 1_555 1_555
O6 Co1 1_555 1_555
H26 O6 1_555 1_555
H27 O6 1_555 1_555
O7 Co2 1_555 1_555
H28 O7 1_555 1_555
H29 O7 1_555 1_555
O8 H30 1_555 1_555
H31 O8 1_555 1_555
O9 H32 1_555 1_555
H33 O9 1_555 1_555
Co1B O1 1_555 1_555
P1B C1B 1_555 1_555
C1B H1B 1_555 1_555
H2B C1B 1_555 1_555
C2B H3B 1_555 1_555
C3B C2B 1_555 1_555
H4B C3B 1_555 1_555
H5B C3B 1_555 1_555
C4B C3B 1_555 1_555
C5B C2B 1_555 1_555
C6B C5B 1_555 1_555
H6B C6B 1_555 1_555
C7B C6B 1_555 1_555
H7B C7B 1_555 1_555
C8B C7B 1_555 1_555
H8B C8B 1_555 1_555
C9B C8B 1_555 1_555
H9B C9B 1_555 1_555
C10B C5B 1_555 1_555
H10B C10B 1_555 1_555
N1B Co1B 1_555 1_555
H25B N1B 1_555 1_555
O1B Co1 1_555 1_555
O2B P1B 1_555 1_555
O3B Co1B 1_555 1_555
O4B Co1B 1_555 1_555
O5B C4B 1_555 1_555
O6B Co1B 1_555 1_555
H26B O6B 1_555 1_555
H27B O6B 1_555 1_555
C11B H11B 1_555 1_555
C12B H12B 1_555 1_555
C13B C12B 1_555 1_555
H13B C13B 1_555 1_555
C14B H14B 1_555 1_555
H15B C14B 1_555 1_555
C15B C14B 1_555 1_555
C16B C15B 1_555 1_555
H16B C16B 1_555 1_555
C17B C16B 1_555 1_555
H17B C17B 1_555 1_555
C18B C17B 1_555 1_555
C19B C18B 1_555 1_555
H18B C19B 1_555 1_555
C20B C15B 1_555 1_555
H19B C20B 1_555 1_555
C21B C18B 1_555 1_555
H20B C21B 1_555 1_555
H21B C21B 1_555 1_555
C22B H22B 1_555 1_555
C23B H23B 1_555 1_555
C24B C23B 1_555 1_555
H24B C24B 1_555 1_555
N2B C11B 1_555 1_555
N3B C11B 1_555 1_555
N4B C21B 1_555 1_555
N5B Co1 1_555 1_555
O7B Co2 1_555 1_555
H28B O7B 1_555 1_555
H29B O7B 1_555 1_555
Co1B_2 N5 1_555 1_555
Co2_2 O2B 1_555 1_555
Co2_3 N2B 1_555 1_555
N2B_2 Co2 1_555 1_555
N5_2 Co1B 1_555 1_555
O2B_2 Co2 1_555 1_555
P1 O2 1_555 1_555
P1 O3 1_555 1_555
C2 N1 1_555 1_555
C4 O4 1_555 1_555
C9 C10 1_555 1_555
C12 N2 1_555 1_555
C13 N3 1_555 1_555
C14 N3 1_555 1_555
C19 C20 1_555 1_555
C22 N4 1_555 1_555
C23 N5 1_555 1_555
C24 N4 1_555 1_555
P1B O1B 1_555 1_555
P1B O3B 1_555 1_555
C1B N1B 1_555 1_555
C2B N1B 1_555 1_555
C4B O4B 1_555 1_555
C9B C10B 1_555 1_555
C12B N2B 1_555 1_555
C13B N3B 1_555 1_555
C14B N3B 1_555 1_555
C19B C20B 1_555 1_555
C22B N4B 1_555 1_555
C22B N5B 1_555 1_555
C23B N5B 1_555 1_555
C24B N4B 1_555 1_555

#END
