
#######################################################################
#
#                 Cambridge Crystallographic Data Centre
#                                CCDC 
#
#######################################################################
#
# If this CIF has been generated from an entry in the Cambridge 
# Structural Database, then it will include bibliographic, chemical, 
# crystal, experimental, refinement or atomic coordinate data resulting 
# from the CCDC's data processing and validation procedures.
#
#######################################################################

data_TUPYAG
_symmetry_cell_setting           monoclinic
_symmetry_space_group_name_H-M   'P 21/c'
_symmetry_Int_Tables_number      14
_space_group_name_Hall           '-P 2ybc'
loop_
_symmetry_equiv_pos_site_id
_symmetry_equiv_pos_as_xyz
1 x,y,z
2 -x,1/2+y,1/2-z
3 -x,-y,-z
4 x,1/2-y,1/2+z
_cell_length_a                   13.7252(11)
_cell_length_b                   10.8762(9)
_cell_length_c                   19.5255(16)
_cell_angle_alpha                90
_cell_angle_beta                 106.5980(10)
_cell_angle_gamma                90
_cell_volume                     2793.28
loop_
_atom_site_label
_atom_site_type_symbol
_atom_site_fract_x
_atom_site_fract_y
_atom_site_fract_z
Co1 Co 1.02232(3) 0.45384(4) 0.38552(2)
Co2 Co 1.0000 1.0000 0.5000
P1 P 0.99121(6) 0.69433(7) 0.46418(5)
C1 C 0.8770(2) 0.6483(3) 0.39610(17)
H1 H 0.8174 0.6776 0.4084
H2 H 0.8767 0.6835 0.3504
C2 C 0.7850(2) 0.4650(3) 0.33560(18)
H3 H 0.7853 0.5024 0.2900
C3 C 0.7917(3) 0.3257(3) 0.3278(2)
H4 H 0.8120 0.2893 0.3751
H5 H 0.7245 0.2947 0.3033
C4 C 0.8655(3) 0.2835(3) 0.28724(18)
C5 C 0.6867(2) 0.5007(3) 0.35080(19)
C6 C 0.6123(3) 0.5666(4) 0.3024(2)
H6 H 0.6217 0.5881 0.2586
C7 C 0.5238(3) 0.6012(4) 0.3177(3)
H7 H 0.4750 0.6470 0.2847
C8 C 0.5078(3) 0.5685(4) 0.3814(3)
H8 H 0.4474 0.5897 0.3910
C9 C 0.5809(3) 0.5046(4) 0.4308(3)
H9 H 0.5715 0.4847 0.4748
C10 C 0.6686(3) 0.4696(3) 0.4150(2)
H10 H 0.7170 0.4240 0.4483
C11 C 0.2384(3) 1.3457(3) 0.4274(2)
H11 H 0.2335 1.3256 0.4726
C12 C 0.2052(3) 1.4123(4) 0.3215(2)
H12 H 0.1714 1.4490 0.2781
C13 C 0.2983(3) 1.3635(4) 0.3371(2)
H13 H 0.3399 1.3592 0.3070
C14 C 0.4103(3) 1.2511(3) 0.4423(2)
H14 H 0.4141 1.2467 0.4927
H15 H 0.4705 1.2936 0.4383
C15 C 0.4095(3) 1.1231(3) 0.4135(2)
C16 C 0.3171(3) 1.0606(4) 0.3916(2)
H16 H 0.2579 1.1002 0.3935
C17 C 0.3119(3) 0.9412(4) 0.3671(2)
H17 H 0.2497 0.9008 0.3521
C18 C 0.3989(3) 0.8833(4) 0.3650(2)
H18 H 0.3958 0.8026 0.3488
C19 C 0.4919(3) 0.9429(4) 0.3867(2)
H19 H 0.5507 0.9012 0.3858
C20 C 0.4985(3) 1.0642(3) 0.40984(19)
C21 C 0.5966(2) 1.1371(3) 0.4292(2)
H20 H 0.5856 1.2121 0.4012
H21 H 0.6124 1.1605 0.4791
C22 C 0.7768(3) 1.0680(3) 0.46687(19)
H22 H 0.7897 1.0963 0.5136
C23 C 0.6981(3) 1.0252(4) 0.3568(2)
H23 H 0.6485 1.0173 0.3132
C24 C 0.7953(3) 0.9912(3) 0.37142(19)
H24 H 0.8245 0.9547 0.3390
N1 N 0.87495(18) 0.5117(2) 0.39127(13)
H25 H 0.8685 0.4815 0.4371
N2 N 0.1667(2) 1.4005(2) 0.37839(15)
N3 N 0.3205(2) 1.3216(3) 0.40494(17)
N4 N 0.8459(2) 1.0180(2) 0.44119(14)
N5 N 0.6851(2) 1.0738(3) 0.41810(16)
O1 O 1.07356(15) 0.60609(18) 0.45463(11)
O2 O 1.01117(15) 0.82815(17) 0.45044(11)
O3 O 0.97023(16) 0.67717(18) 0.53613(11)
O4 O 0.95494(17) 0.3263(2) 0.30584(12)
O5 O 0.83544(18) 0.2074(2) 0.23809(13)
O6 O 1.00652(17) 0.5802(2) 0.29360(11)
H26 H 1.0586 0.6226 0.2938
H27 H 0.9869 0.5383 0.2554
O7 O 0.94688(17) 0.90736(19) 0.57918(12)
H28 H 0.9588 0.8312 0.5760
H29 H 0.9660 0.9307 0.6225
Co1B Co 0.97768(3) 0.54616(4) 0.61448(2)
P1B P 1.00879(6) 0.30567(7) 0.53582(5)
C1B C 1.1230(2) 0.3517(3) 0.60390(17)
H1B H 1.1826 0.3224 0.5916
H2B H 1.1233 0.3165 0.6496
C2B C 1.2150(2) 0.5350(3) 0.66440(18)
H3B H 1.2147 0.4976 0.7100
C3B C 1.2083(3) 0.6743(3) 0.6722(2)
H4B H 1.1880 0.7107 0.6249
H5B H 1.2755 0.7053 0.6967
C4B C 1.1345(3) 0.7165(3) 0.71276(18)
C5B C 1.3133(2) 0.4993(3) 0.64920(19)
C6B C 1.3877(3) 0.4334(4) 0.6976(2)
H6B H 1.3783 0.4119 0.7414
C7B C 1.4762(3) 0.3988(4) 0.6823(3)
H7B H 1.5250 0.3530 0.7153
C8B C 1.4922(3) 0.4315(4) 0.6186(3)
H8B H 1.5526 0.4103 0.6090
C9B C 1.4191(3) 0.4954(4) 0.5692(3)
H9B H 1.4285 0.5153 0.5252
C10B C 1.3314(3) 0.5304(3) 0.5850(2)
H10B H 1.2830 0.5760 0.5517
N1B N 1.12505(18) 0.4883(2) 0.60873(13)
H25B H 1.1315 0.5185 0.5629
O1B O 0.92644(15) 0.39391(18) 0.54537(11)
O2B O 0.98883(15) 0.17185(17) 0.54956(11)
O3B O 1.02977(16) 0.32283(18) 0.46387(11)
O4B O 1.04506(17) 0.6737(2) 0.69416(12)
O5B O 1.16456(18) 0.7926(2) 0.76191(13)
O6B O 0.99348(17) 0.4198(2) 0.70640(11)
H26B H 0.9414 0.3774 0.7062
H27B H 1.0131 0.4617 0.7446
C11_2 C 1.2384(3) 0.3457(3) 0.4274(2)
H11_2 H 1.2335 0.3256 0.4726
C12_2 C 1.2052(3) 0.4123(4) 0.3215(2)
H12_2 H 1.1714 0.4490 0.2781
C13_2 C 1.2983(3) 0.3635(4) 0.3371(2)
H13_2 H 1.3399 0.3592 0.3070
C14_2 C 1.4103(3) 0.2511(3) 0.4423(2)
H14_2 H 1.4141 0.2467 0.4927
H15_2 H 1.4705 0.2936 0.4383
C15_2 C 1.4095(3) 0.1231(3) 0.4135(2)
C16_2 C 1.3171(3) 0.0606(4) 0.3916(2)
H16_2 H 1.2579 0.1002 0.3935
C17_2 C 1.3119(3) -0.0588(4) 0.3671(2)
H17_2 H 1.2497 -0.0992 0.3521
C18_2 C 1.3989(3) -0.1167(4) 0.3650(2)
H18_2 H 1.3958 -0.1974 0.3488
C19_2 C 1.4919(3) -0.0571(4) 0.3867(2)
H19_2 H 1.5507 -0.0988 0.3858
C20_2 C 1.4985(3) 0.0642(3) 0.40984(19)
C21_2 C 1.5966(2) 0.1371(3) 0.4292(2)
H20_2 H 1.5856 0.2121 0.4012
H21_2 H 1.6124 0.1605 0.4791
C22_2 C 1.7768(3) 0.0680(3) 0.46687(19)
H22_2 H 1.7897 0.0963 0.5136
C23_2 C 1.6981(3) 0.0252(4) 0.3568(2)
H23_2 H 1.6485 0.0173 0.3132
C24_2 C 1.7953(3) -0.0088(3) 0.37142(19)
H24_2 H 1.8245 -0.0453 0.3390
N2_2 N 1.1667(2) 0.4005(2) 0.37839(15)
N3_2 N 1.3205(2) 0.3216(3) 0.40494(17)
N4_2 N 1.8459(2) 0.0180(2) 0.44119(14)
N5_2 N 1.6851(2) 0.0738(3) 0.41810(16)
O7B O 1.05312(17) 1.09264(19) 0.42082(12)
H28B H 1.0412 1.1688 0.4240
H29B H 1.0340 1.0693 0.3775
Co1_2 Co 0.02232(3) 1.45384(4) 0.38552(2)
Co2_2 Co 1.0000 0.0000 0.5000
Co2_3 Co 2.0000 0.0000 0.5000
N2B N 0.8333(2) 0.5995(2) 0.62161(15)
N4B N 1.1541(2) 0.9820(2) 0.55881(14)
O2B_2 O 0.98883(15) 1.17185(17) 0.54956(11)
O8 O 0.2556(2) 0.6823(2) 0.42503(15)
H30 H 0.2446 0.6919 0.3803
H31 H 0.2010 0.6647 0.4353
O9 O 0.9856(2) 0.0911(2) 0.68006(13)
H32 H 0.9765 0.1244 0.6393
H33 H 0.9805 0.1441 0.7108
loop_
_geom_bond_atom_site_label_1
_geom_bond_atom_site_label_2
_geom_bond_site_symmetry_1
_geom_bond_site_symmetry_2
Co1 N1 1_555 1_555
Co2 N4 1_555 1_555
P1 C1 1_555 1_555
C1 H1 1_555 1_555
H2 C1 1_555 1_555
C2 H3 1_555 1_555
C3 C2 1_555 1_555
H4 C3 1_555 1_555
H5 C3 1_555 1_555
C4 C3 1_555 1_555
C5 C2 1_555 1_555
C6 C5 1_555 1_555
H6 C6 1_555 1_555
C7 C6 1_555 1_555
H7 C7 1_555 1_555
C8 C7 1_555 1_555
H8 C8 1_555 1_555
C9 C8 1_555 1_555
H9 C9 1_555 1_555
C10 C5 1_555 1_555
H10 C10 1_555 1_555
C11 H11 1_555 1_555
C12 H12 1_555 1_555
C13 C12 1_555 1_555
H13 C13 1_555 1_555
C14 H14 1_555 1_555
H15 C14 1_555 1_555
C15 C14 1_555 1_555
C16 C15 1_555 1_555
H16 C16 1_555 1_555
C17 C16 1_555 1_555
H17 C17 1_555 1_555
C18 C17 1_555 1_555
H18 C18 1_555 1_555
C19 C18 1_555 1_555
H19 C19 1_555 1_555
C20 C15 1_555 1_555
C21 C20 1_555 1_555
H20 C21 1_555 1_555
H21 C21 1_555 1_555
C22 H22 1_555 1_555
C23 H23 1_555 1_555
C24 C23 1_555 1_555
H24 C24 1_555 1_555
N1 C1 1_555 1_555
H25 N1 1_555 1_555
N2 C11 1_555 1_555
N3 C11 1_555 1_555
N4 C22 1_555 1_555
N5 C21 1_555 1_555
O1 Co1 1_555 1_555
O2 Co2 1_555 1_555
O3 P1 1_555 1_555
O4 Co1 1_555 1_555
O5 C4 1_555 1_555
O6 Co1 1_555 1_555
H26 O6 1_555 1_555
H27 O6 1_555 1_555
O7 Co2 1_555 1_555
H28 O7 1_555 1_555
H29 O7 1_555 1_555
O8 H30 1_555 1_555
H31 O8 1_555 1_555
O9 H32 1_555 1_555
H33 O9 1_555 1_555
Co1B O3 1_555 1_555
P1B C1B 1_555 1_555
C1B H1B 1_555 1_555
H2B C1B 1_555 1_555
C2B H3B 1_555 1_555
C3B C2B 1_555 1_555
H4B C3B 1_555 1_555
H5B C3B 1_555 1_555
C4B C3B 1_555 1_555
C5B C2B 1_555 1_555
C6B C5B 1_555 1_555
H6B C6B 1_555 1_555
C7B C6B 1_555 1_555
H7B C7B 1_555 1_555
C8B C7B 1_555 1_555
H8B C8B 1_555 1_555
C9B C8B 1_555 1_555
H9B C9B 1_555 1_555
C10B C5B 1_555 1_555
H10B C10B 1_555 1_555
N1B Co1B 1_555 1_555
H25B N1B 1_555 1_555
O1B Co1B 1_555 1_555
O2B P1B 1_555 1_555
O3B Co1 1_555 1_555
O4B Co1B 1_555 1_555
O5B C4B 1_555 1_555
O6B Co1B 1_555 1_555
H26B O6B 1_555 1_555
H27B O6B 1_555 1_555
C11_2 H11_2 1_555 1_555
C12_2 H12_2 1_555 1_555
C13_2 C12_2 1_555 1_555
H13_2 C13_2 1_555 1_555
C14_2 H14_2 1_555 1_555
H15_2 C14_2 1_555 1_555
C15_2 C14_2 1_555 1_555
C16_2 C15_2 1_555 1_555
H16_2 C16_2 1_555 1_555
C17_2 C16_2 1_555 1_555
H17_2 C17_2 1_555 1_555
C18_2 C17_2 1_555 1_555
H18_2 C18_2 1_555 1_555
C19_2 C18_2 1_555 1_555
H19_2 C19_2 1_555 1_555
C20_2 C15_2 1_555 1_555
C21_2 C20_2 1_555 1_555
H20_2 C21_2 1_555 1_555
H21_2 C21_2 1_555 1_555
C22_2 H22_2 1_555 1_555
C23_2 H23_2 1_555 1_555
C24_2 C23_2 1_555 1_555
H24_2 C24_2 1_555 1_555
N2_2 Co1 1_555 1_555
N3_2 C11_2 1_555 1_555
N4_2 C22_2 1_555 1_555
N5_2 C21_2 1_555 1_555
O7B Co2 1_555 1_555
H28B O7B 1_555 1_555
H29B O7B 1_555 1_555
Co1_2 N2 1_555 1_555
Co2_2 O2B 1_555 1_555
Co2_3 N4_2 1_555 1_555
N2B Co1B 1_555 1_555
N4B Co2 1_555 1_555
O2B_2 Co2 1_555 1_555
P1 O1 1_555 1_555
P1 O2 1_555 1_555
C2 N1 1_555 1_555
C4 O4 1_555 1_555
C9 C10 1_555 1_555
C12 N2 1_555 1_555
C13 N3 1_555 1_555
C14 N3 1_555 1_555
C19 C20 1_555 1_555
C22 N5 1_555 1_555
C23 N5 1_555 1_555
C24 N4 1_555 1_555
P1B O1B 1_555 1_555
P1B O3B 1_555 1_555
C1B N1B 1_555 1_555
C2B N1B 1_555 1_555
C4B O4B 1_555 1_555
C9B C10B 1_555 1_555
C11_2 N2_2 1_555 1_555
C12_2 N2_2 1_555 1_555
C13_2 N3_2 1_555 1_555
C14_2 N3_2 1_555 1_555
C19_2 C20_2 1_555 1_555
C22_2 N5_2 1_555 1_555
C23_2 N5_2 1_555 1_555
C24_2 N4_2 1_555 1_555

#END
