
#######################################################################
#
#                 Cambridge Crystallographic Data Centre
#                                CCDC 
#
#######################################################################
#
# If this CIF has been generated from an entry in the Cambridge 
# Structural Database, then it will include bibliographic, chemical, 
# crystal, experimental, refinement or atomic coordinate data resulting 
# from the CCDC's data processing and validation procedures.
#
#######################################################################

data_TUPZIP
_symmetry_cell_setting           orthorhombic
_symmetry_space_group_name_H-M   'P b c n'
_symmetry_Int_Tables_number      60
_space_group_name_Hall           '-P 2n 2ab'
loop_
_symmetry_equiv_pos_site_id
_symmetry_equiv_pos_as_xyz
1 x,y,z
2 1/2-x,1/2-y,1/2+z
3 1/2+x,1/2-y,-z
4 -x,y,1/2-z
5 -x,-y,-z
6 1/2+x,1/2+y,1/2-z
7 1/2-x,1/2+y,z
8 x,-y,1/2+z
_cell_length_a                   7.8339(3)
_cell_length_b                   11.7791(3)
_cell_length_c                   25.4043(10)
_cell_angle_alpha                90
_cell_angle_beta                 90
_cell_angle_gamma                90
_cell_volume                     2344.21
loop_
_atom_site_label
_atom_site_type_symbol
_atom_site_fract_x
_atom_site_fract_y
_atom_site_fract_z
Cu1 Cu 0.5000 0.22078(7) 0.7500
O1 O 0.3358(5) 0.2306(3) 0.69121(13)
O2 O 0.2786(5) 0.4156(3) 0.70242(14)
O3 O 0.5000 0.0284(4) 0.7500
H1 H 0.4215 -0.0197 0.7468
N1 N 0.3090(6) 0.2281(4) 0.80337(16)
H2 H 0.2014 0.2114 0.7837
C1 C 0.2685(7) 0.3260(5) 0.6779(2)
C2 C 0.1673(7) 0.3217(5) 0.6274(2)
C3 C 0.0956(7) 0.4209(5) 0.6068(2)
H3 H 0.1119 0.4910 0.6246
C4 C 0.0016(7) 0.4185(4) 0.5610(2)
H4 H -0.0475 0.4864 0.5476
C5 C -0.0211(7) 0.3167(4) 0.5344(2)
H5 H -0.0851 0.3155 0.5026
C6 C 0.0489(7) 0.2157(5) 0.5537(2)
C7 C 0.1436(7) 0.2205(4) 0.6002(2)
H6 H 0.1932 0.1528 0.6136
C8 C 0.0210(7) 0.1051(4) 0.52576(19)
C9 C 0.0108(7) 0.0990(4) 0.47145(19)
H7 H 0.0179 0.1669 0.4514
C10 C 0.0095(7) 0.0043(4) 0.55457(19)
H8 H 0.0155 0.0062 0.5919
C11 C 0.3163(9) 0.1456(5) 0.8472(2)
H9 H 0.2158 0.1551 0.8697
H10 H 0.4200 0.1587 0.8679
H11 H 0.3180 0.0683 0.8329
C12 C 0.2879(8) 0.3411(5) 0.8258(2)
H12 H 0.1882 0.3418 0.8490
H13 H 0.2713 0.3963 0.7973
H14 H 0.3901 0.3613 0.8460
O1D O -0.3358(5) -0.2306(3) 0.30879(13)
O2D O -0.2786(5) -0.4156(3) 0.29758(14)
C1D C -0.2685(7) -0.3260(5) 0.3221(2)
C2D C -0.1673(7) -0.3217(5) 0.3726(2)
C3D C -0.0956(7) -0.4209(5) 0.3932(2)
H3D H -0.1119 -0.4910 0.3754
C4D C -0.0016(7) -0.4185(4) 0.4390(2)
H4D H 0.0475 -0.4864 0.4524
C5D C 0.0211(7) -0.3167(4) 0.4656(2)
H5D H 0.0851 -0.3155 0.4974
C6D C -0.0489(7) -0.2157(5) 0.4463(2)
C7D C -0.1436(7) -0.2205(4) 0.3998(2)
H6D H -0.1932 -0.1528 0.3864
C8D C -0.0210(7) -0.1051(4) 0.47424(19)
C9D C -0.0108(7) -0.0990(4) 0.52855(19)
H7D H -0.0179 -0.1669 0.5486
C10D C -0.0095(7) -0.0043(4) 0.44543(19)
H8D H -0.0155 -0.0062 0.4081
H1C H 0.5785 -0.0197 0.7532
N1C N 0.6910(6) 0.2281(4) 0.69663(16)
H2C H 0.7986 0.2114 0.7163
C11C C 0.6837(9) 0.1456(5) 0.6528(2)
H9C H 0.7842 0.1551 0.6303
H10C H 0.5800 0.1587 0.6321
H11C H 0.6820 0.0683 0.6671
C12C C 0.7121(8) 0.3411(5) 0.6742(2)
H12C H 0.8118 0.3418 0.6510
H13C H 0.7287 0.3963 0.7027
H14C H 0.6099 0.3613 0.6540
Cu1D Cu -0.5000 -0.22078(7) 0.2500
O1C O 0.6642(5) 0.2306(3) 0.80879(13)
O4 O 0.0000 0.0953(4) 0.7500
H15 H -0.0625 0.0450 0.7634
H15C H 0.0625 0.0450 0.7366
loop_
_geom_bond_atom_site_label_1
_geom_bond_atom_site_label_2
_geom_bond_site_symmetry_1
_geom_bond_site_symmetry_2
Cu1 O1 1_555 1_555
O1 C1 1_555 1_555
O2 C1 1_555 1_555
O3 Cu1 1_555 1_555
H1 O3 1_555 1_555
N1 Cu1 1_555 1_555
H2 N1 1_555 1_555
C1 C2 1_555 1_555
C2 C3 1_555 1_555
C3 H3 1_555 1_555
C4 C3 1_555 1_555
H4 C4 1_555 1_555
C5 C4 1_555 1_555
H5 C5 1_555 1_555
C6 C5 1_555 1_555
C7 C2 1_555 1_555
H6 C7 1_555 1_555
C8 C6 1_555 1_555
C9 C8 1_555 1_555
H7 C9 1_555 1_555
C10 C8 1_555 1_555
H8 C10 1_555 1_555
C11 N1 1_555 1_555
H9 C11 1_555 1_555
H10 C11 1_555 1_555
H11 C11 1_555 1_555
C12 N1 1_555 1_555
H12 C12 1_555 1_555
H13 C12 1_555 1_555
H14 C12 1_555 1_555
O4 H15 1_555 1_555
O1D C1D 1_555 1_555
O2D C1D 1_555 1_555
C1D C2D 1_555 1_555
C2D C3D 1_555 1_555
C3D H3D 1_555 1_555
C4D C3D 1_555 1_555
H4D C4D 1_555 1_555
C5D C4D 1_555 1_555
H5D C5D 1_555 1_555
C6D C5D 1_555 1_555
C7D C2D 1_555 1_555
H6D C7D 1_555 1_555
C8D C6D 1_555 1_555
C9D C10 1_555 1_555
H7D C9D 1_555 1_555
C10D C9 1_555 1_555
H8D C10D 1_555 1_555
H1C O3 1_555 1_555
N1C Cu1 1_555 1_555
H2C N1C 1_555 1_555
C11C N1C 1_555 1_555
H9C C11C 1_555 1_555
H10C C11C 1_555 1_555
H11C C11C 1_555 1_555
C12C N1C 1_555 1_555
H12C C12C 1_555 1_555
H13C C12C 1_555 1_555
H14C C12C 1_555 1_555
Cu1D O1D 1_555 1_555
O1C Cu1 1_555 1_555
H15C O4 1_555 1_555
C6 C7 1_555 1_555
C6D C7D 1_555 1_555
C8D C9D 1_555 1_555
C8D C10D 1_555 1_555

#END
