
#######################################################################
#
#                 Cambridge Crystallographic Data Centre
#                                CCDC 
#
#######################################################################
#
# If this CIF has been generated from an entry in the Cambridge 
# Structural Database, then it will include bibliographic, chemical, 
# crystal, experimental, refinement or atomic coordinate data resulting 
# from the CCDC's data processing and validation procedures.
#
#######################################################################

data_TUQFOC
_symmetry_cell_setting           monoclinic
_symmetry_space_group_name_H-M   'C 2/c'
_symmetry_Int_Tables_number      15
_space_group_name_Hall           '-C 2yn'
loop_
_symmetry_equiv_pos_site_id
_symmetry_equiv_pos_as_xyz
1 x,y,z
2 -x,y,1/2-z
3 1/2+x,1/2+y,z
4 1/2-x,1/2+y,1/2-z
5 -x,-y,-z
6 x,-y,1/2+z
7 1/2-x,1/2-y,-z
8 1/2+x,1/2-y,1/2+z
_cell_length_a                   25.437(3)
_cell_length_b                   11.2439(14)
_cell_length_c                   20.370(3)
_cell_angle_alpha                90
_cell_angle_beta                 113.009(2)
_cell_angle_gamma                90
_cell_volume                     5362.55
loop_
_atom_site_label
_atom_site_type_symbol
_atom_site_fract_x
_atom_site_fract_y
_atom_site_fract_z
Co1 Co 0.94543(3) 0.15528(7) -0.00436(4)
Co2 Co 1.0000 0.02554(8) 0.2500
P1 P 0.99344(9) -0.05757(14) 0.09994(8)
C1 C 0.9138(4) -0.0908(8) 0.0345(4)
H1 H 0.9089 -0.1753 0.0244
H2 H 0.8877 -0.0666 0.0562
C2 C 0.8390(3) 0.0002(9) -0.0732(5)
H3 H 0.8194 -0.0561 -0.0538
C3 C 0.8234(4) 0.1247(11) -0.0548(6)
C4 C 0.8163(3) -0.0209(8) -0.1488(3)
C5 C 0.7752(3) -0.1060(7) -0.1839(4)
H4 H 0.7630 -0.1590 -0.1578
C6 C 0.7525(3) -0.1119(8) -0.2579(4)
H5 H 0.7251 -0.1688 -0.2814
C7 C 0.7709(4) -0.0326(9) -0.2969(3)
H6 H 0.7557 -0.0365 -0.3465
C8 C 0.8119(4) 0.0524(8) -0.2619(4)
H7 H 0.8242 0.1055 -0.2880
C9 C 0.8346(3) 0.0583(8) -0.1878(4)
H8 H 0.8621 0.1152 -0.1644
C10 C 1.0257(3) 0.3701(6) 0.0598(3)
H9 H 1.0533 0.3445 0.0436
C11 C 0.9489(3) 0.3850(7) 0.0771(4)
H10 H 0.9120 0.3717 0.0744
C12 C 0.9841(3) 0.4719(8) 0.1154(5)
H11 H 0.9766 0.5272 0.1446
C13 C 1.0828(3) 0.5441(6) 0.1318(3)
H12 H 1.0741 0.6181 0.1053
H13 H 1.1152 0.5080 0.1257
C14 C 1.0983(3) 0.5698(5) 0.2096(3)
C15 C 1.0796(3) 0.6738(6) 0.2270(5)
H14 H 1.0580 0.7256 0.1910
C16 C 1.0923(4) 0.7043(7) 0.2982(5)
H15 H 1.0785 0.7747 0.3095
C17 C 1.1249(4) 0.6295(7) 0.3504(4)
H16 H 1.1343 0.6496 0.3980
C18 C 1.1441(3) 0.5253(6) 0.3339(4)
H17 H 1.1668 0.4755 0.3705
C19 C 1.1305(2) 0.4918(5) 0.2636(3)
C20 C 1.1525(3) 0.3738(5) 0.2495(4)
H18 H 1.1433 0.3658 0.1988
H19 H 1.1938 0.3717 0.2740
C21 C 1.0783(3) 0.2197(6) 0.2395(4)
H20 H 1.0536 0.2394 0.1933
C22 C 1.1125(4) 0.1380(8) 0.3401(4)
H21 H 1.1173 0.0884 0.3786
C23 C 1.1495(4) 0.2234(8) 0.3394(5)
H22 H 1.1836 0.2440 0.3766
N1 N 0.9017(3) -0.0228(6) -0.0331(4)
H23 H 0.9154 -0.0630 -0.0612
N2 N 0.9760(2) 0.3190(4) 0.0428(2)
N3 N 1.0326(2) 0.4626(5) 0.1029(3)
N4 N 1.0680(2) 0.1351(4) 0.2776(3)
N5 N 1.1273(2) 0.2729(4) 0.2739(3)
O1 O 0.9946(2) 0.0681(4) 0.0829(2)
O2 O 0.99289(19) -0.0814(3) 0.17271(19)
O3 O 1.0181(3) -0.1509(4) 0.0728(3)
O4 O 0.8633(2) 0.2001(6) -0.0284(4)
O5 O 0.7735(3) 0.1474(8) -0.0679(5)
Co1A Co 1.05457(3) 0.15528(7) 0.50436(4)
P1A P 1.00656(9) -0.05757(14) 0.40006(8)
C1A C 1.0862(4) -0.0908(8) 0.4655(4)
H1A H 1.0911 -0.1753 0.4756
H2A H 1.1123 -0.0666 0.4438
C2A C 1.1610(3) 0.0002(9) 0.5732(5)
H3A H 1.1806 -0.0561 0.5538
C3A C 1.1766(4) 0.1247(11) 0.5548(6)
C4A C 1.1837(3) -0.0209(8) 0.6488(3)
C5A C 1.2248(3) -0.1060(7) 0.6839(4)
H4A H 1.2370 -0.1590 0.6578
C6A C 1.2475(3) -0.1119(8) 0.7579(4)
H5A H 1.2749 -0.1688 0.7814
C7A C 1.2291(4) -0.0326(9) 0.7969(3)
H6A H 1.2443 -0.0365 0.8465
C8A C 1.1881(4) 0.0524(8) 0.7619(4)
H7A H 1.1758 0.1055 0.7880
C9A C 1.1654(3) 0.0583(8) 0.6878(4)
H8A H 1.1379 0.1152 0.6644
C10A C 0.9743(3) 0.3701(6) 0.4402(3)
H9A H 0.9467 0.3445 0.4564
C11A C 1.0511(3) 0.3850(7) 0.4229(4)
H10A H 1.0880 0.3717 0.4256
C12A C 1.0159(3) 0.4719(8) 0.3846(5)
H11A H 1.0234 0.5272 0.3554
C13A C 0.9172(3) 0.5441(6) 0.3682(3)
H12A H 0.9259 0.6181 0.3947
H13A H 0.8848 0.5080 0.3743
C14A C 0.9017(3) 0.5698(5) 0.2904(3)
C15A C 0.9204(3) 0.6738(6) 0.2730(5)
H14A H 0.9420 0.7256 0.3090
C16A C 0.9077(4) 0.7043(7) 0.2018(5)
H15A H 0.9215 0.7747 0.1905
C17A C 0.8751(4) 0.6295(7) 0.1496(4)
H16A H 0.8657 0.6496 0.1020
C18A C 0.8559(3) 0.5253(6) 0.1661(4)
H17A H 0.8332 0.4755 0.1295
C19A C 0.8695(2) 0.4918(5) 0.2364(3)
C20A C 0.8475(3) 0.3738(5) 0.2505(4)
H18A H 0.8567 0.3658 0.3012
H19A H 0.8062 0.3717 0.2260
C21A C 0.9217(3) 0.2197(6) 0.2605(4)
H20A H 0.9464 0.2394 0.3067
C22A C 0.8875(4) 0.1380(8) 0.1599(4)
H21A H 0.8827 0.0884 0.1214
C23A C 0.8505(4) 0.2234(8) 0.1606(5)
H22A H 0.8164 0.2440 0.1234
N1A N 1.0983(3) -0.0228(6) 0.5331(4)
H23A H 1.0846 -0.0630 0.5612
N2A N 1.0240(2) 0.3190(4) 0.4572(2)
N3A N 0.9674(2) 0.4626(5) 0.3971(3)
N4A N 0.9320(2) 0.1351(4) 0.2224(3)
N5A N 0.8727(2) 0.2729(4) 0.2261(3)
O1A O 1.0054(2) 0.0681(4) 0.4171(2)
O2A O 1.00711(19) -0.0814(3) 0.32729(19)
O3A O 0.9819(3) -0.1509(4) 0.4272(3)
O4A O 1.1367(2) 0.2001(6) 0.5284(4)
O5A O 1.2265(3) 0.1474(8) 0.5679(5)
Co1D Co 1.05457(3) -0.15528(7) 0.00436(4)
Co1E Co 0.94543(3) -0.15528(7) 0.49564(4)
O3D O 0.9819(3) 0.1509(4) -0.0728(3)
O3E O 1.0181(3) 0.1509(4) 0.5728(3)
O6 O 0.7069(4) 0.0909(8) 0.0149(5)
H24 H 0.7423 0.0879 0.0234
H25 H 0.6967 0.1631 0.0140
O7 O 0.6611(7) 0.8792(16) 0.0516(8)
H26 H 0.6719 0.8912 0.0962
H27 H 0.6684 0.9403 0.0320
loop_
_geom_bond_atom_site_label_1
_geom_bond_atom_site_label_2
_geom_bond_site_symmetry_1
_geom_bond_site_symmetry_2
Co1 N1 1_555 1_555
Co2 N4 1_555 1_555
P1 C1 1_555 1_555
C1 H1 1_555 1_555
H2 C1 1_555 1_555
C2 H3 1_555 1_555
C3 C2 1_555 1_555
C4 C2 1_555 1_555
C5 C4 1_555 1_555
H4 C5 1_555 1_555
C6 C5 1_555 1_555
H5 C6 1_555 1_555
C7 C6 1_555 1_555
H6 C7 1_555 1_555
C8 C7 1_555 1_555
H7 C8 1_555 1_555
C9 C4 1_555 1_555
H8 C9 1_555 1_555
C10 H9 1_555 1_555
C11 H10 1_555 1_555
C12 C11 1_555 1_555
H11 C12 1_555 1_555
C13 H12 1_555 1_555
H13 C13 1_555 1_555
C14 C13 1_555 1_555
C15 C14 1_555 1_555
H14 C15 1_555 1_555
C16 C15 1_555 1_555
H15 C16 1_555 1_555
C17 C16 1_555 1_555
H16 C17 1_555 1_555
C18 C17 1_555 1_555
H17 C18 1_555 1_555
C19 C14 1_555 1_555
C20 C19 1_555 1_555
H18 C20 1_555 1_555
H19 C20 1_555 1_555
C21 H20 1_555 1_555
C22 H21 1_555 1_555
C23 C22 1_555 1_555
H22 C23 1_555 1_555
N1 C1 1_555 1_555
H23 N1 1_555 1_555
N2 Co1 1_555 1_555
N3 C10 1_555 1_555
N4 C21 1_555 1_555
N5 C20 1_555 1_555
O1 Co1 1_555 1_555
O2 Co2 1_555 1_555
O3 P1 1_555 1_555
O4 Co1 1_555 1_555
O5 C3 1_555 1_555
O6 H24 1_555 1_555
H25 O6 1_555 1_555
O7 H26 1_555 1_555
H27 O7 1_555 1_555
Co1A N1A 1_555 1_555
P1A C1A 1_555 1_555
C1A H1A 1_555 1_555
H2A C1A 1_555 1_555
C2A H3A 1_555 1_555
C3A C2A 1_555 1_555
C4A C2A 1_555 1_555
C5A C4A 1_555 1_555
H4A C5A 1_555 1_555
C6A C5A 1_555 1_555
H5A C6A 1_555 1_555
C7A C6A 1_555 1_555
H6A C7A 1_555 1_555
C8A C7A 1_555 1_555
H7A C8A 1_555 1_555
C9A C4A 1_555 1_555
H8A C9A 1_555 1_555
C10A H9A 1_555 1_555
C11A H10A 1_555 1_555
C12A C11A 1_555 1_555
H11A C12A 1_555 1_555
C13A H12A 1_555 1_555
H13A C13A 1_555 1_555
C14A C13A 1_555 1_555
C15A C14A 1_555 1_555
H14A C15A 1_555 1_555
C16A C15A 1_555 1_555
H15A C16A 1_555 1_555
C17A C16A 1_555 1_555
H16A C17A 1_555 1_555
C18A C17A 1_555 1_555
H17A C18A 1_555 1_555
C19A C14A 1_555 1_555
C20A C19A 1_555 1_555
H18A C20A 1_555 1_555
H19A C20A 1_555 1_555
C21A H20A 1_555 1_555
C22A H21A 1_555 1_555
C23A C22A 1_555 1_555
H22A C23A 1_555 1_555
N1A C1A 1_555 1_555
H23A N1A 1_555 1_555
N2A Co1A 1_555 1_555
N3A C10A 1_555 1_555
N4A Co2 1_555 1_555
N5A C20A 1_555 1_555
O1A Co1A 1_555 1_555
O2A Co2 1_555 1_555
O3A P1A 1_555 1_555
O4A Co1A 1_555 1_555
O5A C3A 1_555 1_555
Co1D O3 1_555 1_555
Co1E O3A 1_555 1_555
O3D Co1 1_555 1_555
O3E Co1A 1_555 1_555
P1 O1 1_555 1_555
P1 O2 1_555 1_555
C2 N1 1_555 1_555
C3 O4 1_555 1_555
C8 C9 1_555 1_555
C10 N2 1_555 1_555
C11 N2 1_555 1_555
C12 N3 1_555 1_555
C13 N3 1_555 1_555
C18 C19 1_555 1_555
C21 N5 1_555 1_555
C22 N4 1_555 1_555
C23 N5 1_555 1_555
P1A O1A 1_555 1_555
P1A O2A 1_555 1_555
C2A N1A 1_555 1_555
C3A O4A 1_555 1_555
C8A C9A 1_555 1_555
C10A N2A 1_555 1_555
C11A N2A 1_555 1_555
C12A N3A 1_555 1_555
C13A N3A 1_555 1_555
C18A C19A 1_555 1_555
C21A N4A 1_555 1_555
C21A N5A 1_555 1_555
C22A N4A 1_555 1_555
C23A N5A 1_555 1_555

#END
