
#######################################################################
#
#                 Cambridge Crystallographic Data Centre
#                                CCDC 
#
#######################################################################
#
# If this CIF has been generated from an entry in the Cambridge 
# Structural Database, then it will include bibliographic, chemical, 
# crystal, experimental, refinement or atomic coordinate data resulting 
# from the CCDC's data processing and validation procedures.
#
#######################################################################

data_TUQKUN
_symmetry_cell_setting           monoclinic
_symmetry_space_group_name_H-M   'P 21/c'
_symmetry_Int_Tables_number      14
_space_group_name_Hall           '-P 2ybc'
loop_
_symmetry_equiv_pos_site_id
_symmetry_equiv_pos_as_xyz
1 x,y,z
2 -x,1/2+y,1/2-z
3 -x,-y,-z
4 x,1/2-y,1/2+z
_cell_length_a                   8.6829(17)
_cell_length_b                   19.023(4)
_cell_length_c                   20.511(4)
_cell_angle_alpha                90
_cell_angle_beta                 102.13(3)
_cell_angle_gamma                90
_cell_volume                     3312.26
loop_
_atom_site_label
_atom_site_type_symbol
_atom_site_fract_x
_atom_site_fract_y
_atom_site_fract_z
Cd1 Cd 0.28423(4) 0.27602(2) 0.09129(2)
Cd2 Cd 0.54288(4) 0.30154(2) 0.25273(2)
Cd3 Cd 1.18707(4) 0.76933(2) 0.06716(2)
Cl1 Cl 0.24921(15) 0.31090(7) 0.21017(7)
Cl2 Cl 0.52359(17) 0.26716(9) 0.37809(8)
O1 O 0.5606(4) 0.30837(17) 0.1346(2)
O2 O 0.3915(4) 0.38450(19) 0.07715(19)
O3 O 0.2798(4) 0.27348(19) -0.0248(2)
H1 H 0.2067 0.2462 -0.0440
H2 H 0.3679 0.2584 -0.0310
O4 O 0.0270(4) 0.2597(2) 0.05064(19)
O5 O 0.6334(4) 0.18747(18) 0.24150(19)
O6 O 0.8064(5) 0.2689(2) 0.2845(3)
O7 O 0.9553(4) -0.18964(18) 0.08425(19)
O8 O 1.1177(5) -0.1043(2) 0.0733(2)
O9 O -0.2091(5) 0.2132(2) 0.0406(2)
N1 N 1.0344(5) 0.5524(2) 0.0829(2)
N2 N 1.1557(5) 0.6525(2) 0.0761(2)
N3 N 1.2770(5) 0.0173(2) 0.2506(2)
N4 N 1.4055(5) -0.0813(2) 0.2430(2)
N5 N 0.4794(5) 0.0643(2) 0.0890(2)
N6 N 0.3485(5) 0.1621(2) 0.0969(2)
C1 C 0.5297(6) 0.3668(2) 0.1043(3)
C2 C 0.6621(6) 0.4156(2) 0.1004(3)
C3 C 0.6322(6) 0.4821(3) 0.0739(3)
H3 H 0.5283 0.4969 0.0602
C4 C 0.8182(6) 0.3943(3) 0.1218(3)
H4 H 0.8400 0.3498 0.1403
C5 C 0.9418(6) 0.4387(2) 0.1158(3)
H5 H 1.0457 0.4240 0.1298
C6 C 0.7532(6) 0.5276(3) 0.0673(3)
H6 H 0.7309 0.5720 0.0489
C7 C 0.9075(6) 0.5055(2) 0.0886(2)
C8 C 1.0197(6) 0.6222(2) 0.0746(3)
H7 H 0.9244 0.6462 0.0686
C9 C 1.1919(6) 0.5376(3) 0.0918(3)
H8 H 1.2388 0.4936 0.0993
C10 C 1.2653(6) 0.5989(3) 0.0875(3)
H9 H 1.3734 0.6045 0.0917
C11 C 0.7723(6) 0.2074(3) 0.2614(3)
C12 C 0.9053(6) 0.1571(3) 0.2593(3)
C13 C 1.0597(6) 0.1785(3) 0.2802(3)
H10 H 1.0819 0.2239 0.2961
C14 C 0.8743(6) 0.0898(3) 0.2363(3)
H11 H 0.7704 0.0750 0.2226
C15 C 0.9959(6) 0.0433(3) 0.2332(3)
H12 H 0.9734 -0.0022 0.2174
C16 C 1.1827(6) 0.1320(3) 0.2776(3)
H13 H 1.2865 0.1466 0.2922
C17 C 1.1512(6) 0.0649(3) 0.2537(3)
C18 C 1.2661(6) -0.0524(3) 0.2383(3)
H14 H 1.1716 -0.0770 0.2277
C19 C 1.4379(6) 0.0337(3) 0.2627(3)
H15 H 1.4839 0.0778 0.2718
C20 C 1.5123(6) -0.0282(3) 0.2582(3)
H16 H 1.6209 -0.0336 0.2645
C21 C 0.9863(6) -0.1250(3) 0.0800(3)
C22 C 0.8563(6) -0.0739(2) 0.0833(3)
C23 C 0.8633(6) -0.0038(3) 0.0645(3)
H17 H 0.9529 0.0126 0.0514
C24 C 0.7224(7) -0.0964(3) 0.1040(3)
H18 H 0.7159 -0.1429 0.1171
C25 C 0.7397(6) 0.0416(3) 0.0651(3)
H19 H 0.7449 0.0880 0.0516
C26 C 0.5997(7) -0.0518(3) 0.1055(3)
H20 H 0.5111 -0.0680 0.1196
C27 C 0.6072(6) 0.0172(2) 0.0861(3)
C28 C 0.4862(6) 0.1353(3) 0.0922(3)
H21 H 0.5758 0.1617 0.0912
C29 C 0.3270(6) 0.0455(3) 0.0924(3)
H22 H 0.2870 0.0001 0.0918
C30 C 0.2485(6) 0.1054(3) 0.0968(3)
H23 H 0.1431 0.1083 0.0994
C31 C -0.0791(7) 0.2330(3) 0.0748(3)
H24 H -0.0612 0.2274 0.1209
Cd2A Cd 1.45712(4) -0.19846(2) 0.24727(2)
Cd3_2 Cd 1.18707(4) -0.23067(2) 0.06716(2)
Cd3A Cd 0.81293(4) 0.26933(2) 0.43284(2)
Cd3B Cd -0.18707(4) 0.23067(2) -0.06716(2)
Cl2A Cl 1.47641(17) 0.76716(9) 0.12191(8)
O4B O 0.9730(4) 0.7403(2) -0.05064(19)
O7_2 O 0.9553(4) 0.81036(18) 0.08425(19)
O8_2 O 1.1177(5) 0.8957(2) 0.0733(2)
O9B O 1.2091(5) 0.7868(2) -0.0406(2)
N4A N 0.5945(5) 0.4187(2) 0.2570(2)
loop_
_geom_bond_atom_site_label_1
_geom_bond_atom_site_label_2
_geom_bond_site_symmetry_1
_geom_bond_site_symmetry_2
Cd1 Cl1 1_555 1_555
Cd2 Cl1 1_555 1_555
Cd3 N2 1_555 1_555
Cl2 Cd2 1_555 1_555
O1 Cd1 1_555 1_555
O2 Cd1 1_555 1_555
O3 Cd1 1_555 1_555
H1 O3 1_555 1_555
H2 O3 1_555 1_555
O4 Cd1 1_555 1_555
O5 Cd2 1_555 1_555
O6 Cd2 1_555 1_555
O7 C21 1_555 1_555
O8 C21 1_555 1_555
O9 C31 1_555 1_555
N1 C7 1_555 1_555
N2 C8 1_555 1_555
N3 C17 1_555 1_555
N4 C18 1_555 1_555
N5 C27 1_555 1_555
N6 Cd1 1_555 1_555
C1 O1 1_555 1_555
C2 C1 1_555 1_555
C3 C2 1_555 1_555
H3 C3 1_555 1_555
C4 C2 1_555 1_555
H4 C4 1_555 1_555
C5 C4 1_555 1_555
H5 C5 1_555 1_555
C6 C3 1_555 1_555
H6 C6 1_555 1_555
C7 C5 1_555 1_555
C8 N1 1_555 1_555
H7 C8 1_555 1_555
C9 N1 1_555 1_555
H8 C9 1_555 1_555
C10 N2 1_555 1_555
H9 C10 1_555 1_555
C11 O5 1_555 1_555
C12 C11 1_555 1_555
C13 C12 1_555 1_555
H10 C13 1_555 1_555
C14 C12 1_555 1_555
H11 C14 1_555 1_555
C15 C14 1_555 1_555
H12 C15 1_555 1_555
C16 C13 1_555 1_555
H13 C16 1_555 1_555
C17 C15 1_555 1_555
C18 N3 1_555 1_555
H14 C18 1_555 1_555
C19 N3 1_555 1_555
H15 C19 1_555 1_555
C20 N4 1_555 1_555
H16 C20 1_555 1_555
C21 C22 1_555 1_555
C22 C23 1_555 1_555
C23 H17 1_555 1_555
C24 C22 1_555 1_555
H18 C24 1_555 1_555
C25 C23 1_555 1_555
H19 C25 1_555 1_555
C26 C24 1_555 1_555
H20 C26 1_555 1_555
C27 C25 1_555 1_555
C28 N5 1_555 1_555
H21 C28 1_555 1_555
C29 N5 1_555 1_555
H22 C29 1_555 1_555
C30 N6 1_555 1_555
H23 C30 1_555 1_555
C31 O4 1_555 1_555
H24 C31 1_555 1_555
Cd2A N4 1_555 1_555
Cd3_2 O7 1_555 1_555
Cd3A Cl2 1_555 1_555
Cd3B O4 1_555 1_555
Cl2A Cd3 1_555 1_555
O4B Cd3 1_555 1_555
O7_2 Cd3 1_555 1_555
O8_2 Cd3 1_555 1_555
O9B Cd3 1_555 1_555
N4A Cd2 1_555 1_555
Cd2 O1 1_555 1_555
O2 C1 1_555 1_555
O6 C11 1_555 1_555
O8 Cd3_2 1_555 1_555
O9 Cd3B 1_555 1_555
N6 C28 1_555 1_555
C6 C7 1_555 1_555
C9 C10 1_555 1_555
C16 C17 1_555 1_555
C19 C20 1_555 1_555
C26 C27 1_555 1_555
C29 C30 1_555 1_555

#END
