
#######################################################################
#
#                 Cambridge Crystallographic Data Centre
#                                CCDC 
#
#######################################################################
#
# If this CIF has been generated from an entry in the Cambridge 
# Structural Database, then it will include bibliographic, chemical, 
# crystal, experimental, refinement or atomic coordinate data resulting 
# from the CCDC's data processing and validation procedures.
#
#######################################################################

data_TUQMAT
_symmetry_cell_setting           monoclinic
_symmetry_space_group_name_H-M   'P 21/a'
_symmetry_Int_Tables_number      14
_space_group_name_Hall           '-P 2yab'
loop_
_symmetry_equiv_pos_site_id
_symmetry_equiv_pos_as_xyz
1 x,y,z
2 1/2-x,1/2+y,-z
3 -x,-y,-z
4 1/2+x,1/2-y,z
_cell_length_a                   17.8277(13)
_cell_length_b                   6.4366(57)
_cell_length_c                   10.5701(86)
_cell_angle_alpha                90
_cell_angle_beta                 111.857(56)
_cell_angle_gamma                90
_cell_volume                     1125.73
loop_
_atom_site_label
_atom_site_type_symbol
_atom_site_fract_x
_atom_site_fract_y
_atom_site_fract_z
O1 O -0.09063(15) 0.18729(41) -0.02683(27)
C1 C -0.09391(20) 0.35106(61) 0.03112(36)
C2 C -0.02986(21) 0.45553(54) 0.13218(36)
C3 C 0.04928(21) 0.36211(57) 0.18438(35)
N1 N 0.11656(17) 0.43257(52) 0.28391(31)
N2 N 0.17640(19) 0.29337(55) 0.30386(36)
N3 N 0.14811(18) 0.14313(55) 0.22179(36)
N4 N 0.06847(18) 0.18052(49) 0.14492(31)
C4 C -0.04221(21) 0.65957(62) 0.16756(37)
N5 N -0.05149(21) 0.82841(55) 0.19155(37)
C5 C 0.13159(21) 0.62024(59) 0.36977(37)
H1 H 0.18880(21) 0.64381(59) 0.41045(37)
H2 H 0.10612(21) 0.73639(59) 0.31308(37)
C6 C 0.09825(22) 0.60195(76) 0.48294(38)
H3 H 0.04325(22) 0.55504(76) 0.44374(38)
C7 C 0.10233(30) 0.81382(88) 0.54672(52)
H4 H 0.08152(30) 0.80414(88) 0.61822(52)
H5 H 0.07023(30) 0.91014(88) 0.47878(52)
H6 H 0.15729(30) 0.86143(88) 0.58388(52)
C8 C 0.14273(29) 0.43928(94) 0.58711(46)
H7 H 0.13953(29) 0.30729(94) 0.54311(46)
H8 H 0.11811(29) 0.42903(94) 0.65366(46)
H9 H 0.19838(29) 0.47862(94) 0.63129(46)
O2 O -0.16467(15) 0.45042(44) -0.00302(29)
C9 C -0.23602(23) 0.35006(77) -0.10117(45)
H10 H -0.28240(23) 0.43671(77) -0.11636(45)
H11 H -0.24412(23) 0.21825(77) -0.06570(45)
Cu1 Cu 0.00000 0.00000 0.00000
H12 H -0.22862(23) 0.32932(77) -0.18571(45)
O1B O 0.09063(15) -0.18729(41) 0.02683(27)
C1B C 0.09391(20) -0.35106(61) -0.03112(36)
C2B C 0.02986(21) -0.45553(54) -0.13218(36)
C3B C -0.04928(21) -0.36211(57) -0.18438(35)
N1B N -0.11656(17) -0.43257(52) -0.28391(31)
N2B N -0.17640(19) -0.29337(55) -0.30386(36)
N3B N -0.14811(18) -0.14313(55) -0.22179(36)
N4B N -0.06847(18) -0.18052(49) -0.14492(31)
N5_2 N -0.05149(21) -0.17159(55) 0.19155(37)
Cu1_2 Cu 0.00000 -1.00000 0.00000
N5B N 0.05149(21) 0.17159(55) -0.19155(37)
Cu1B Cu 0.00000 1.00000 0.00000
C5B C -0.13159(21) -0.62024(59) -0.36977(37)
H1B H -0.18880(21) -0.64381(59) -0.41045(37)
H2B H -0.10612(21) -0.73639(59) -0.31308(37)
C6B C -0.09825(22) -0.60195(76) -0.48294(38)
H3B H -0.04325(22) -0.55504(76) -0.44374(38)
C7B C -0.10233(30) -0.81382(88) -0.54672(52)
H4B H -0.08152(30) -0.80414(88) -0.61822(52)
H5B H -0.07023(30) -0.91014(88) -0.47878(52)
H6B H -0.15729(30) -0.86143(88) -0.58388(52)
C8B C -0.14273(29) -0.43928(94) -0.58711(46)
H7B H -0.13953(29) -0.30729(94) -0.54311(46)
H8B H -0.11811(29) -0.42903(94) -0.65366(46)
H9B H -0.19838(29) -0.47862(94) -0.63129(46)
C4B C 0.04221(21) -0.65957(62) -0.16756(37)
N5B_2 N 0.05149(21) -0.82841(55) -0.19155(37)
O2B O 0.16467(15) -0.45042(44) 0.00302(29)
C9B C 0.23602(23) -0.35006(77) 0.10117(45)
H10B H 0.28240(23) -0.43671(77) 0.11636(45)
H11B H 0.24412(23) -0.21825(77) 0.06570(45)
H12B H 0.22862(23) -0.32932(77) 0.18571(45)
loop_
_geom_bond_atom_site_label_1
_geom_bond_atom_site_label_2
_geom_bond_site_symmetry_1
_geom_bond_site_symmetry_2
O1 C1 1_555 1_555
C1 C2 1_555 1_555
C2 C3 1_555 1_555
C3 N1 1_555 1_555
N1 N2 1_555 1_555
N2 N3 1_555 1_555
N3 N4 1_555 1_555
N4 C3 1_555 1_555
C4 C2 1_555 1_555
N5 C4 1_555 1_555
C5 N1 1_555 1_555
H1 C5 1_555 1_555
H2 C5 1_555 1_555
C6 C5 1_555 1_555
H3 C6 1_555 1_555
C7 C6 1_555 1_555
H4 C7 1_555 1_555
H5 C7 1_555 1_555
H6 C7 1_555 1_555
C8 C6 1_555 1_555
H7 C8 1_555 1_555
H8 C8 1_555 1_555
H9 C8 1_555 1_555
O2 C1 1_555 1_555
C9 O2 1_555 1_555
H10 C9 1_555 1_555
H11 C9 1_555 1_555
Cu1 O1 1_555 1_555
H12 C9 1_555 1_555
O1B Cu1 1_555 1_555
C1B O1B 1_555 1_555
C2B C1B 1_555 1_555
C3B C2B 1_555 1_555
N1B C3B 1_555 1_555
N2B N1B 1_555 1_555
N3B N2B 1_555 1_555
N4B Cu1 1_555 1_555
N5_2 Cu1 1_555 1_555
Cu1_2 N5B_2 1_555 1_555
N5B Cu1 1_555 1_555
Cu1B N5 1_555 1_555
C5B N1B 1_555 1_555
H1B C5B 1_555 1_555
H2B C5B 1_555 1_555
C6B C5B 1_555 1_555
H3B C6B 1_555 1_555
C7B C6B 1_555 1_555
H4B C7B 1_555 1_555
H5B C7B 1_555 1_555
H6B C7B 1_555 1_555
C8B C6B 1_555 1_555
H7B C8B 1_555 1_555
H8B C8B 1_555 1_555
H9B C8B 1_555 1_555
C4B C2B 1_555 1_555
N5B_2 C4B 1_555 1_555
O2B C1B 1_555 1_555
C9B O2B 1_555 1_555
H10B C9B 1_555 1_555
H11B C9B 1_555 1_555
H12B C9B 1_555 1_555
N4 Cu1 1_555 1_555
C3B N4B 1_555 1_555
N3B N4B 1_555 1_555

#END
