
#######################################################################
#
#                 Cambridge Crystallographic Data Centre
#                                CCDC 
#
#######################################################################
#
# If this CIF has been generated from an entry in the Cambridge 
# Structural Database, then it will include bibliographic, chemical, 
# crystal, experimental, refinement or atomic coordinate data resulting 
# from the CCDC's data processing and validation procedures.
#
#######################################################################

data_TUQPIF
_symmetry_cell_setting           monoclinic
_symmetry_space_group_name_H-M   'P 21/c'
_symmetry_Int_Tables_number      14
_space_group_name_Hall           '-P 2ybc'
loop_
_symmetry_equiv_pos_site_id
_symmetry_equiv_pos_as_xyz
1 x,y,z
2 -x,1/2+y,1/2-z
3 -x,-y,-z
4 x,1/2-y,1/2+z
_cell_length_a                   8.382(3)
_cell_length_b                   12.170(5)
_cell_length_c                   17.876(5)
_cell_angle_alpha                90
_cell_angle_beta                 116.98(2)
_cell_angle_gamma                90
_cell_volume                     1625.05
loop_
_atom_site_label
_atom_site_type_symbol
_atom_site_fract_x
_atom_site_fract_y
_atom_site_fract_z
Zn1 Zn 0.09342(4) 0.94222(3) 0.261585(19)
O1 O 0.2523(4) 1.0743(2) 0.3427(2)
N1 N 0.3195(4) 1.1137(2) 0.2995(2)
O2 O 0.2653(5) 1.0670(2) 0.23146(19)
O3 O 0.2972(4) 0.8356(2) 0.31253(17)
N2 N 0.2621(5) 0.7337(3) 0.3085(2)
O4 O 0.1059(5) 0.7200(3) 0.2727(2)
N3 N -0.0736(3) 0.94039(17) 0.31824(13)
N4 N -0.0812(3) 1.56718(17) 0.63524(14)
N5 N -0.1336(4) 1.3053(2) 0.48295(16)
N6 N -0.1391(4) 1.2142(2) 0.43548(16)
C1 C -0.1664(4) 0.8495(2) 0.31499(17)
H1 H -0.1526 0.7880 0.2877
C2 C -0.2806(4) 0.8437(3) 0.3502(2)
H2 H -0.3457 0.7799 0.3454
C3 C -0.2982(4) 0.9338(2) 0.39302(19)
H3 H -0.3746 0.9310 0.4178
C4 C -0.2013(3) 1.0276(2) 0.39863(16)
C5 C -0.0919(4) 1.0275(2) 0.35928(16)
H4 H -0.0282 1.0911 0.3615
C6 C -0.2119(4) 1.1266(2) 0.44512(16)
C7 C -0.3065(4) 1.1201(3) 0.49817(19)
H5 H -0.2642 1.1776 0.5394
H6 H -0.2833 1.0501 0.5258
H7 H -0.4329 1.1285 0.4635
C8 C -0.2490(4) 1.3808(2) 0.44810(17)
C9 C -0.4000(5) 1.3738(3) 0.3609(2)
H8 H -0.3959 1.3041 0.3366
H9 H -0.5120 1.3809 0.3629
H10 H -0.3888 1.4318 0.3272
C10 C -0.2301(4) 1.4805(2) 0.49994(17)
C11 C -0.1074(4) 1.4808(2) 0.58481(17)
H11 H -0.0403 1.4176 0.6075
C12 C -0.1788(4) 1.6582(2) 0.60189(19)
H12 H -0.1606 1.7193 0.6361
C13 C -0.3038(5) 1.6642(3) 0.5196(2)
H13 H -0.3701 1.7281 0.4986
C14 C -0.3308(4) 1.5746(3) 0.46782(19)
H14 H -0.4160 1.5775 0.4118
Zn1C Zn 0.09342(4) 1.55778(3) 0.761585(19)
N4C N -0.0812(3) 0.93282(17) 0.13524(14)
loop_
_geom_bond_atom_site_label_1
_geom_bond_atom_site_label_2
_geom_bond_site_symmetry_1
_geom_bond_site_symmetry_2
Zn1 O1 1_555 1_555
O1 N1 1_555 1_555
N1 O2 1_555 1_555
O2 Zn1 1_555 1_555
O3 Zn1 1_555 1_555
N2 O3 1_555 1_555
O4 Zn1 1_555 1_555
N3 Zn1 1_555 1_555
N4 C11 1_555 1_555
N5 N6 1_555 1_555
N6 C6 1_555 1_555
C1 N3 1_555 1_555
H1 C1 1_555 1_555
C2 C1 1_555 1_555
H2 C2 1_555 1_555
C3 C2 1_555 1_555
H3 C3 1_555 1_555
C4 C3 1_555 1_555
C5 N3 1_555 1_555
H4 C5 1_555 1_555
C6 C4 1_555 1_555
C7 C6 1_555 1_555
H5 C7 1_555 1_555
H6 C7 1_555 1_555
H7 C7 1_555 1_555
C8 N5 1_555 1_555
C9 C8 1_555 1_555
H8 C9 1_555 1_555
H9 C9 1_555 1_555
H10 C9 1_555 1_555
C10 C8 1_555 1_555
C11 C10 1_555 1_555
H11 C11 1_555 1_555
C12 N4 1_555 1_555
H12 C12 1_555 1_555
C13 C12 1_555 1_555
H13 C13 1_555 1_555
C14 C10 1_555 1_555
H14 C14 1_555 1_555
Zn1C N4 1_555 1_555
N4C Zn1 1_555 1_555
N2 O4 1_555 1_555
C4 C5 1_555 1_555
C13 C14 1_555 1_555

#END
