
#######################################################################
#
#                 Cambridge Crystallographic Data Centre
#                                CCDC 
#
#######################################################################
#
# If this CIF has been generated from an entry in the Cambridge 
# Structural Database, then it will include bibliographic, chemical, 
# crystal, experimental, refinement or atomic coordinate data resulting 
# from the CCDC's data processing and validation procedures.
#
#######################################################################

data_TUQSII
_symmetry_cell_setting           triclinic
_symmetry_space_group_name_H-M   'P -1'
_symmetry_Int_Tables_number      2
_space_group_name_Hall           '-P 1'
loop_
_symmetry_equiv_pos_site_id
_symmetry_equiv_pos_as_xyz
1 x,y,z
2 -x,-y,-z
_cell_length_a                   9.163(2)
_cell_length_b                   11.558(2)
_cell_length_c                   12.629(3)
_cell_angle_alpha                73.144(6)
_cell_angle_beta                 83.054(6)
_cell_angle_gamma                69.991(4)
_cell_volume                     1202.41
loop_
_atom_site_label
_atom_site_type_symbol
_atom_site_fract_x
_atom_site_fract_y
_atom_site_fract_z
Zn1 Zn 0.5000 0.5000 0.5000
O1 O 0.2967(2) 0.58210(17) 0.40535(15)
H1 H 0.203(4) 0.612(3) 0.431(2)
H2 H 0.305(4) 0.620(3) 0.346(2)
N1 N 0.5103(3) 0.30959(19) 0.48450(16)
N2 N 0.6380(3) 0.53261(19) 0.34928(16)
C1 C 0.6112(4) 0.2032(3) 0.5436(3)
H3 H 0.6877 0.2115 0.5802
C2 C 0.6090(5) 0.0822(3) 0.5536(3)
H4 H 0.6795 0.0119 0.5988
C3 C 0.5023(3) 0.0651(2) 0.49654(19)
C4 C 0.4041(4) 0.1729(2) 0.4318(2)
H5 H 0.3321 0.1665 0.3897
C5 C 0.4104(3) 0.2919(2) 0.4279(2)
H6 H 0.3408 0.3634 0.3832
C6 C 0.5999(3) 0.5210(2) 0.25497(19)
H7 H 0.5173 0.4910 0.2567
C7 C 0.6771(3) 0.5512(2) 0.1544(2)
C8 C 0.8017(4) 0.5937(3) 0.1532(2)
H8 H 0.8563 0.6150 0.0875
C9 C 0.8439(4) 0.6040(3) 0.2505(2)
H9 H 0.9280 0.6314 0.2514
C10 C 0.7599(3) 0.5733(3) 0.3457(2)
H10 H 0.7885 0.5810 0.4109
C11 C 0.6298(4) 0.5378(3) 0.0535(2)
H11 H 0.6866 0.5551 -0.0119
N3 N 0.5135(3) 0.5033(2) 0.05317(17)
Zn1_2 Zn 0.5000 -0.5000 0.5000
Zn1_3 Zn 0.5000 0.5000 -0.5000
O1A O 0.7033(2) 0.41790(17) 0.59465(15)
H1A H 0.797(4) 0.388(3) 0.569(2)
H2A H 0.695(4) 0.380(3) 0.654(2)
N1A N 0.4897(3) -0.30959(19) 0.51550(16)
N1A_2 N 0.4897(3) 0.69041(19) 0.51550(16)
N2A N 0.3620(3) 0.46739(19) -0.34928(16)
N2A_2 N 0.3620(3) 0.46739(19) 0.65072(16)
C1A C 0.3888(4) -0.2032(3) 0.4564(3)
H3A H 0.3123 -0.2115 0.4198
C2A C 0.3910(5) -0.0822(3) 0.4464(3)
H4A H 0.3205 -0.0119 0.4012
C3A C 0.4977(3) -0.0651(2) 0.50346(19)
C4A C 0.5959(4) -0.1729(2) 0.5682(2)
H5A H 0.6679 -0.1665 0.6103
C5A C 0.5896(3) -0.2919(2) 0.5721(2)
H6A H 0.6592 -0.3634 0.6168
C6A C 0.4001(3) 0.4790(2) -0.25497(19)
H7A H 0.4827 0.5090 -0.2567
C7A C 0.3229(3) 0.4488(2) -0.1544(2)
C8A C 0.1983(4) 0.4063(3) -0.1532(2)
H8A H 0.1437 0.3850 -0.0875
C9A C 0.1561(4) 0.3960(3) -0.2505(2)
H9A H 0.0720 0.3686 -0.2514
C10A C 0.2401(3) 0.4267(3) -0.3457(2)
H10A H 0.2115 0.4190 -0.4109
C11A C 0.3702(4) 0.4622(3) -0.0535(2)
H11A H 0.3134 0.4449 0.0119
N3A N 0.4865(3) 0.4967(2) -0.05317(17)
C12 C 0.3518(4) -0.0591(3) 0.8334(3)
C13 C 0.4478(5) -0.0744(4) 0.9241(3)
H12 H 0.5082 -0.1562 0.9608
N4 N 0.4519(4) 0.0189(3) 0.9545(2)
C14 C 0.3307(5) -0.1646(4) 0.8141(3)
H13 H 0.3847 -0.2464 0.8552
C15 C 0.2315(5) -0.1488(4) 0.7356(4)
H14 H 0.2152 -0.2188 0.7229
C16 C 0.1558(5) -0.0267(5) 0.6753(3)
H15 H 0.0863 -0.0160 0.6226
N5 N 0.1761(4) 0.0776(3) 0.6880(3)
C17 C 0.2722(4) 0.0594(3) 0.7663(3)
H16 H 0.2871 0.1309 0.7768
C12A C 0.6482(4) 0.0591(3) 1.1666(3)
C13A C 0.5522(5) 0.0744(4) 1.0759(3)
H12A H 0.4918 0.1562 1.0392
N4A N 0.5481(4) -0.0189(3) 1.0455(2)
C14A C 0.6693(5) 0.1646(4) 1.1859(3)
H13A H 0.6153 0.2464 1.1448
C15A C 0.7685(5) 0.1488(4) 1.2644(4)
H14A H 0.7848 0.2188 1.2771
C16A C 0.8442(5) 0.0267(5) 1.3247(3)
H15A H 0.9137 0.0160 1.3774
N5A N 0.8239(4) -0.0776(3) 1.3120(3)
C17A C 0.7278(4) -0.0594(3) 1.2337(3)
H16A H 0.7129 -0.1309 1.2232
C18 C 0.8646(4) 0.0238(3) 0.8891(2)
H17 H 0.8741 -0.0605 0.8948
C19 C 0.7683(5) 0.1219(4) 0.8124(3)
H18 H 0.7130 0.1010 0.7678
C20 C 0.9475(3) 0.0517(3) 0.95818(19)
C21 C 0.9230(4) 0.1792(3) 0.9461(2)
H19 H 0.9726 0.2034 0.9920
C22 C 0.8248(4) 0.2710(3) 0.8662(3)
H20 H 0.8107 0.3564 0.8597
N6 N 0.7494(3) 0.2443(3) 0.7978(2)
C18A C 1.1354(4) -0.0238(3) 1.1109(2)
H17A H 1.1259 0.0605 1.1052
C19A C 1.2317(5) -0.1219(4) 1.1876(3)
H18A H 1.2870 -0.1010 1.2322
C20A C 1.0525(3) -0.0517(3) 1.04182(19)
C21A C 1.0770(4) -0.1792(3) 1.0539(2)
H19A H 1.0274 -0.2034 1.0080
C22A C 1.1752(4) -0.2710(3) 1.1338(3)
H20A H 1.1893 -0.3564 1.1403
N6A N 1.2506(3) -0.2443(3) 1.2022(2)
Cl1 Cl 0.88134(10) -0.28668(7) 0.79043(6)
O2 O 0.9808(3) -0.3224(3) 0.88059(19)
O3 O 0.8179(4) -0.3835(3) 0.7952(3)
O4 O 0.9678(4) -0.2696(4) 0.6906(2)
O5 O 0.7620(4) -0.1716(3) 0.7912(3)
O6 O 0.0001(3) 0.6923(3) 0.4685(2)
H21 H -0.0496 0.7649 0.4269
H22 H 0.0046 0.7255 0.5181
loop_
_geom_bond_atom_site_label_1
_geom_bond_atom_site_label_2
_geom_bond_site_symmetry_1
_geom_bond_site_symmetry_2
Zn1 O1 1_555 1_555
O1 H1 1_555 1_555
H2 O1 1_555 1_555
N1 Zn1 1_555 1_555
N2 Zn1 1_555 1_555
C1 N1 1_555 1_555
H3 C1 1_555 1_555
C2 C1 1_555 1_555
H4 C2 1_555 1_555
C3 C2 1_555 1_555
C4 C3 1_555 1_555
H5 C4 1_555 1_555
C5 N1 1_555 1_555
H6 C5 1_555 1_555
C6 N2 1_555 1_555
H7 C6 1_555 1_555
C7 C6 1_555 1_555
C8 C7 1_555 1_555
H8 C8 1_555 1_555
C9 C8 1_555 1_555
H9 C9 1_555 1_555
C10 N2 1_555 1_555
H10 C10 1_555 1_555
C11 C7 1_555 1_555
H11 C11 1_555 1_555
N3 C11 1_555 1_555
C12 C13 1_555 1_555
C13 H12 1_555 1_555
N4 C13 1_555 1_555
C14 C12 1_555 1_555
H13 C14 1_555 1_555
C15 C14 1_555 1_555
H14 C15 1_555 1_555
C16 C15 1_555 1_555
H15 C16 1_555 1_555
N5 C16 1_555 1_555
C17 C12 1_555 1_555
H16 C17 1_555 1_555
C18 H17 1_555 1_555
C19 C18 1_555 1_555
H18 C19 1_555 1_555
C20 C18 1_555 1_555
C21 C20 1_555 1_555
H19 C21 1_555 1_555
C22 C21 1_555 1_555
H20 C22 1_555 1_555
N6 C19 1_555 1_555
Cl1 O2 1_555 1_555
O3 Cl1 1_555 1_555
O4 Cl1 1_555 1_555
O5 Cl1 1_555 1_555
O6 H21 1_555 1_555
H22 O6 1_555 1_555
Zn1_2 N1A 1_555 1_555
Zn1_3 N2A 1_555 1_555
O1A Zn1 1_555 1_555
H1A O1A 1_555 1_555
H2A O1A 1_555 1_555
N1A C1A 1_555 1_555
N1A_2 Zn1 1_555 1_555
N2A C6A 1_555 1_555
N2A_2 Zn1 1_555 1_555
C1A H3A 1_555 1_555
C2A C1A 1_555 1_555
H4A C2A 1_555 1_555
C3A C3 1_555 1_555
C4A C3A 1_555 1_555
H5A C4A 1_555 1_555
C5A N1A 1_555 1_555
H6A C5A 1_555 1_555
C6A H7A 1_555 1_555
C7A C6A 1_555 1_555
C8A C7A 1_555 1_555
H8A C8A 1_555 1_555
C9A C8A 1_555 1_555
H9A C9A 1_555 1_555
C10A N2A 1_555 1_555
H10A C10A 1_555 1_555
C11A C7A 1_555 1_555
H11A C11A 1_555 1_555
N3A N3 1_555 1_555
C12A C13A 1_555 1_555
C13A H12A 1_555 1_555
N4A N4 1_555 1_555
C14A C12A 1_555 1_555
H13A C14A 1_555 1_555
C15A C14A 1_555 1_555
H14A C15A 1_555 1_555
C16A C15A 1_555 1_555
H15A C16A 1_555 1_555
N5A C16A 1_555 1_555
C17A C12A 1_555 1_555
H16A C17A 1_555 1_555
C18A H17A 1_555 1_555
C19A C18A 1_555 1_555
H18A C19A 1_555 1_555
C20A C20 1_555 1_555
C21A C20A 1_555 1_555
H19A C21A 1_555 1_555
C22A C21A 1_555 1_555
H20A C22A 1_555 1_555
N6A C19A 1_555 1_555
C4 C5 1_555 1_555
C9 C10 1_555 1_555
N5 C17 1_555 1_555
C22 N6 1_555 1_555
C2A C3A 1_555 1_555
C4A C5A 1_555 1_555
C9A C10A 1_555 1_555
C11A N3A 1_555 1_555
C13A N4A 1_555 1_555
N5A C17A 1_555 1_555
C18A C20A 1_555 1_555
C22A N6A 1_555 1_555

#END
