
#######################################################################
#
#                 Cambridge Crystallographic Data Centre
#                                CCDC 
#
#######################################################################
#
# If this CIF has been generated from an entry in the Cambridge 
# Structural Database, then it will include bibliographic, chemical, 
# crystal, experimental, refinement or atomic coordinate data resulting 
# from the CCDC's data processing and validation procedures.
#
#######################################################################

data_TURDIV
_symmetry_cell_setting           monoclinic
_symmetry_space_group_name_H-M   'P 21'
_symmetry_Int_Tables_number      4
_space_group_name_Hall           'P 2yb'
loop_
_symmetry_equiv_pos_site_id
_symmetry_equiv_pos_as_xyz
1 x,y,z
2 -x,1/2+y,-z
_cell_length_a                   10.2416(6)
_cell_length_b                   24.9560(15)
_cell_length_c                   11.4453(7)
_cell_angle_alpha                90
_cell_angle_beta                 91.106(3)
_cell_angle_gamma                90
_cell_volume                     2924.75
loop_
_atom_site_label
_atom_site_type_symbol
_atom_site_fract_x
_atom_site_fract_y
_atom_site_fract_z
Co1 Co -0.45087(16) 0.86145(6) -0.54756(14)
Co2 Co -0.95016(16) 0.94129(6) -0.56426(15)
O1 O -0.2636(8) 0.8937(3) -0.5525(7)
O2 O -0.7638(7) 0.9088(3) -0.5590(7)
N1 N -0.4621(9) 0.8530(4) -0.7375(9)
N2 N -0.4532(10) 0.8574(4) -1.3583(7)
O3 O -0.1395(8) 0.9666(3) -0.5687(7)
N3 N -0.9500(9) 0.9448(5) -0.3774(7)
O4 O -0.6393(8) 0.8357(3) -0.5484(7)
C1 C -0.7475(10) 0.8595(5) -0.5562(8)
C2 C -1.0559(12) 0.9609(6) -0.3154(12)
H1 H -1.1327 0.9711 -0.3577
C3 C -0.5696(11) 0.8551(5) -0.7993(9)
H2 H -0.6501 0.8577 -0.7599
N4 N -0.9511(9) 0.9469(4) 0.2460(8)
C4 C -0.8405(12) 0.9349(5) -0.3042(13)
H3 H -0.7618 0.9252 -0.3415
C5 C -0.3497(13) 0.8709(6) -1.2863(11)
H4 H -0.2728 0.8832 -1.3230
O5 O -0.9824(8) 0.8548(3) -0.5777(8)
H5 H -1.040(5) 0.8350(13) -0.618(8)
N5 N -0.1262(9) 0.5207(4) -0.4395(9)
O6 O -0.4820(8) 0.9479(3) -0.5489(7)
H6 H -0.533(7) 0.957(4) -0.490(8)
C6 C -0.4531(11) 0.8497(5) -1.1088(11)
N6 N -0.3690(9) 0.7827(4) -0.5344(8)
C7 C -0.9481(12) 0.9511(5) 0.0029(10)
C8 C -0.8364(11) 0.9376(6) -0.1860(10)
H7 H -0.7576 0.9303 -0.1438
C9 C -0.4557(11) 0.8486(5) -0.9825(9)
C10 C -0.3466(13) 0.8686(7) -1.1699(10)
H8 H -0.2705 0.8800 -1.1282
C11 C -0.2493(11) 0.9427(5) -0.5621(8)
C12 C -0.5719(11) 0.8538(5) -0.9192(9)
H9 H -0.6531 0.8565 -0.9603
C13 C -0.8670(11) 0.8230(5) -0.5620(11)
H10 H -0.8589 0.7990 -0.6315
C14 C -1.0576(13) 0.9634(6) -0.1945(12)
H11 H -1.1354 0.9737 -0.1566
C15 C -0.3479(12) 0.8461(5) -0.7940(10)
H12 H -0.2693 0.8430 -0.7492
C16 C -0.2502(13) 0.5308(5) -0.4552(16)
H13 H -0.3085 0.5012 -0.4551
C17 C -0.9471(13) 0.9511(5) -0.1287(11)
C18 C -0.8414(12) 0.9545(5) 0.1879(10)
H14 H -0.7622 0.9580 0.2319
C19 C -0.0500(15) 0.5633(7) -0.431(2)
H15 H 0.0393 0.5583 -0.4093
C20 C -1.0603(12) 0.9421(6) 0.1842(9)
H16 H -1.1394 0.9367 0.2245
C21 C -0.8358(12) 0.9577(5) 0.0712(10)
H17 H -0.7547 0.9644 0.0351
C22 C -0.3422(12) 0.8435(5) -0.9116(12)
H18 H -0.2602 0.8380 -0.9472
C23 C -0.5544(13) 0.8367(5) -1.2984(11)
H19 H -0.6266 0.8234 -1.3430
C24 C -0.2238(11) 0.6245(5) -0.4698(11)
C25 C -0.2750(12) 0.6796(5) -0.4917(10)
C26 C -1.0655(11) 0.9444(6) 0.0653(11)
H20 H -1.1469 0.9415 0.0246
C27 C -0.5618(12) 0.8332(5) -1.1782(11)
H21 H -0.6385 0.8200 -1.1428
C28 C -0.3688(11) 0.9797(5) -0.5691(10)
H22 H -0.3608 1.0081 -0.5078
C29 C -0.0943(16) 0.6144(7) -0.451(2)
H23 H -0.0338 0.6432 -0.4516
C30 C -0.1946(12) 0.7234(5) -0.4782(11)
H24 H -0.1059 0.7190 -0.4543
C31 C -0.3029(13) 0.5804(5) -0.4718(16)
H25 H -0.3943 0.5843 -0.4846
C32 C -0.4009(14) 0.6880(5) -0.5291(17)
H26 H -0.4589 0.6586 -0.5393
C33 C -0.4489(14) 0.9840(5) -0.7827(12)
H27 H -0.5057 0.9547 -0.7689
C34 C -0.3751(11) 1.0056(5) -0.6899(10)
C35 C -0.9354(15) 0.8059(6) -0.3527(11)
H28 H -0.9859 0.8379 -0.3527
C36 C -0.8046(15) 0.7386(6) -0.4549(18)
H29 H -0.7665 0.7247 -0.5236
C37 C -0.8717(11) 0.7881(4) -0.4537(11)
C38 C -0.798(2) 0.7110(9) -0.346(2)
H30 H -0.7516 0.6780 -0.3429
C39 C -0.2949(13) 1.0497(5) -0.7127(14)
H31 H -0.2454 1.0658 -0.6510
C40 C -0.2878(15) 1.0695(7) -0.8230(15)
H32 H -0.2343 1.0999 -0.8367
C41 C -0.3562(18) 1.0467(8) -0.9162(14)
H33 H -0.3456 1.0595 -0.9936
C42 C -0.4404(18) 1.0047(6) -0.8932(13)
H34 H -0.4928 0.9900 -0.9547
C43 C -0.921(2) 0.7741(9) -0.2518(16)
H35 H -0.9616 0.7861 -0.1828
C44 C -0.2461(11) 0.7748(5) -0.5004(11)
H36 H -0.1905 0.8050 -0.4906
C45 C -0.4437(14) 0.7404(6) -0.5523(16)
H37 H -0.5299 0.7455 -0.5822
C46 C -0.855(2) 0.7292(10) -0.246(2)
H38 H -0.8460 0.7100 -0.1745
Co1_2 Co -0.45087(16) 0.86145(6) -1.54756(14)
Co2_2 Co -0.95016(16) 0.94129(6) 0.43574(15)
Co2_3 Co 0.04984(16) 0.94129(6) -0.56426(15)
Co2A Co -0.04984(16) 0.44129(6) -0.43574(15)
N2_2 N -0.4532(10) 0.8574(4) -0.3583(7)
O3_2 O -1.1395(8) 0.9666(3) -0.5687(7)
N4_2 N -0.9511(9) 0.9469(4) -0.7540(8)
N5A N -0.8738(9) 1.0207(4) -0.5605(9)
O7 O -1.0617(8) 0.8137(4) -0.7820(8)
N7 N -0.9839(12) 0.8162(4) -0.8665(10)
O8 O -1.0272(9) 0.8086(5) -0.9694(9)
O9 O -0.8669(9) 0.8256(4) -0.8472(10)
O10 O -0.5604(9) 0.9804(4) -0.3428(8)
O11 O -0.3621(10) 0.9949(4) -0.2873(10)
O12 O -0.5127(13) 0.9881(8) -0.1618(11)
N8 N -0.4775(11) 0.9888(5) -0.2617(10)
N9 N -0.054(3) 0.6214(9) -0.059(2)
O13 O 0.028(2) 0.6520(9) -0.022(2)
C47 C -0.1719(13) 0.6445(5) -0.1024(13)
C48 C -0.2671(17) 0.6097(4) -0.1454(14)
H39 H -0.2546 0.5720 -0.1394
C49 C -0.3806(14) 0.6299(6) -0.1974(13)
H40 H -0.4457 0.6061 -0.2269
C50 C -0.3988(13) 0.6849(6) -0.2063(13)
H41 H -0.4764 0.6987 -0.2418
C51 C -0.3036(16) 0.7198(4) -0.1632(14)
H42 H -0.3161 0.7574 -0.1692
C52 C -0.1901(14) 0.6996(5) -0.1112(13)
H43 H -0.1250 0.7234 -0.0818
O14 O -0.038(3) 0.5731(9) -0.062(4)
C53 C -0.674(2) 0.6473(9) -0.7590(18)
C54 C -0.7551(19) 0.6842(10) -0.816(2)
H44 H -0.8428 0.6886 -0.7918
C55 C -0.708(3) 0.7146(11) -0.907(3)
H45 H -0.7628 0.7398 -0.9461
C56 C -0.579(3) 0.7081(12) -0.942(2)
H46 H -0.5469 0.7289 -1.0049
C57 C -0.499(2) 0.6712(11) -0.886(2)
H47 H -0.4109 0.6668 -0.9095
C58 C -0.546(2) 0.6408(9) -0.794(2)
H48 H -0.4909 0.6156 -0.7552
O15 O -0.633(2) 0.5995(8) -0.5850(18)
N10 N -0.712(5) 0.618(2) -0.654(3)
O16 O -0.834(4) 0.6096(14) -0.643(3)
C59? C -0.8929(16) 0.6436(9) -0.705(2)
C60? C -0.9373(18) 0.5910(8) -0.706(2)
H49? H -0.8793 0.5626 -0.6859
C61? C -1.0665(19) 0.5799(6) -0.7366(19)
H50? H -1.0968 0.5439 -0.7375
C62? C -1.1513(15) 0.6215(8) -0.7659(19)
H51? H -1.2396 0.6139 -0.7868
C63? C -1.107(2) 0.6741(7) -0.765(2)
H52? H -1.1649 0.7025 -0.7845
C64? C -0.978(2) 0.6852(7) -0.734(2)
H53? H -0.9474 0.7212 -0.7330
N11? N -0.753(4) 0.6496(18) -0.662(4)
O17? O -0.715(4) 0.6982(16) -0.700(3)
O18? O -0.696(3) 0.6126(13) -0.609(3)
C65? C -0.468(2) 0.6615(16) -0.876(3)
C66? C -0.379(3) 0.7030(11) -0.863(3)
H54? H -0.4030 0.7385 -0.8841
C67? C -0.253(3) 0.6925(11) -0.821(3)
H55? H -0.1918 0.7208 -0.8123
C68? C -0.217(3) 0.6405(13) -0.791(3)
H56? H -0.1317 0.6333 -0.7616
C69? C -0.307(4) 0.5990(10) -0.803(3)
H57? H -0.2828 0.5634 -0.7825
C70? C -0.433(3) 0.6095(13) -0.846(3)
H58? H -0.4939 0.5811 -0.8542
N12? N -0.593(4) 0.675(2) -0.928(4)
O19? O -0.610(6) 0.719(2) -0.972(5)
O20? O -0.692(5) 0.648(2) -0.923(5)
loop_
_geom_bond_atom_site_label_1
_geom_bond_atom_site_label_2
_geom_bond_site_symmetry_1
_geom_bond_site_symmetry_2
Co1 O1 1_555 1_555
Co2 O2 1_555 1_555
O1 C11 1_555 1_555
O2 C1 1_555 1_555
N1 Co1 1_555 1_555
N2 C5 1_555 1_555
O3 C11 1_555 1_555
N3 Co2 1_555 1_555
O4 Co1 1_555 1_555
C1 O4 1_555 1_555
C2 N3 1_555 1_555
H1 C2 1_555 1_555
C3 N1 1_555 1_555
H2 C3 1_555 1_555
N4 C18 1_555 1_555
C4 N3 1_555 1_555
H3 C4 1_555 1_555
C5 H4 1_555 1_555
O5 Co2 1_555 1_555
H5 O5 1_555 1_555
N5 C16 1_555 1_555
O6 Co1 1_555 1_555
H6 O6 1_555 1_555
C6 C9 1_555 1_555
N6 Co1 1_555 1_555
C7 C17 1_555 1_555
C8 C4 1_555 1_555
H7 C8 1_555 1_555
C9 C12 1_555 1_555
C10 C5 1_555 1_555
H8 C10 1_555 1_555
C11 C28 1_555 1_555
C12 C3 1_555 1_555
H9 C12 1_555 1_555
C13 C1 1_555 1_555
H10 C13 1_555 1_555
C14 C2 1_555 1_555
H11 C14 1_555 1_555
C15 N1 1_555 1_555
H12 C15 1_555 1_555
C16 H13 1_555 1_555
C17 C8 1_555 1_555
C18 H14 1_555 1_555
C19 N5 1_555 1_555
H15 C19 1_555 1_555
C20 N4 1_555 1_555
H16 C20 1_555 1_555
C21 C7 1_555 1_555
H17 C21 1_555 1_555
C22 C9 1_555 1_555
H18 C22 1_555 1_555
C23 N2 1_555 1_555
H19 C23 1_555 1_555
C24 C25 1_555 1_555
C25 C30 1_555 1_555
C26 C7 1_555 1_555
H20 C26 1_555 1_555
C27 C6 1_555 1_555
H21 C27 1_555 1_555
C28 O6 1_555 1_555
H22 C28 1_555 1_555
C29 C19 1_555 1_555
H23 C29 1_555 1_555
C30 H24 1_555 1_555
C31 C16 1_555 1_555
H25 C31 1_555 1_555
C32 C25 1_555 1_555
H26 C32 1_555 1_555
C33 H27 1_555 1_555
C34 C28 1_555 1_555
C35 H28 1_555 1_555
C36 H29 1_555 1_555
C37 C13 1_555 1_555
C38 C36 1_555 1_555
H30 C38 1_555 1_555
C39 C34 1_555 1_555
H31 C39 1_555 1_555
C40 C39 1_555 1_555
H32 C40 1_555 1_555
C41 C40 1_555 1_555
H33 C41 1_555 1_555
C42 C33 1_555 1_555
H34 C42 1_555 1_555
C43 C35 1_555 1_555
H35 C43 1_555 1_555
C44 N6 1_555 1_555
H36 C44 1_555 1_555
C45 N6 1_555 1_555
H37 C45 1_555 1_555
C46 C38 1_555 1_555
H38 C46 1_555 1_555
O7 N7 1_555 1_555
N7 O8 1_555 1_555
O9 N7 1_555 1_555
O10 N8 1_555 1_555
O11 N8 1_555 1_555
O12 N8 1_555 1_555
N9 O13 1_555 1_555
C47 N9 1_555 1_555
C48 C47 1_555 1_555
H39 C48 1_555 1_555
C49 C48 1_555 1_555
H40 C49 1_555 1_555
C50 C49 1_555 1_555
H41 C50 1_555 1_555
C51 C50 1_555 1_555
H42 C51 1_555 1_555
C52 C47 1_555 1_555
H43 C52 1_555 1_555
O14 N9 1_555 1_555
C53 C54 1_555 1_555
C54 H44 1_555 1_555
C55 C54 1_555 1_555
H45 C55 1_555 1_555
C56 C55 1_555 1_555
H46 C56 1_555 1_555
C57 C56 1_555 1_555
H47 C57 1_555 1_555
C58 C53 1_555 1_555
H48 C58 1_555 1_555
O15 N10 1_555 1_555
N10 C53 1_555 1_555
O16 N10 1_555 1_555
Co1_2 N2 1_555 1_555
Co2_2 N4 1_555 1_555
Co2_3 O3 1_555 1_555
Co2A N5 1_555 1_555
N2_2 Co1 1_555 1_555
O3_2 Co2 1_555 1_555
N4_2 Co2 1_555 1_555
N5A Co2 1_555 1_555
O5 C13 1_555 1_555
C6 C10 1_555 1_555
C14 C17 1_555 1_555
C15 C22 1_555 1_555
C18 C21 1_555 1_555
C20 C26 1_555 1_555
C23 C27 1_555 1_555
C24 C29 1_555 1_555
C24 C31 1_555 1_555
C30 C44 1_555 1_555
C32 C45 1_555 1_555
C33 C34 1_555 1_555
C35 C37 1_555 1_555
C36 C37 1_555 1_555
C41 C42 1_555 1_555
C43 C46 1_555 1_555
C51 C52 1_555 1_555
C57 C58 1_555 1_555

#END
