
#######################################################################
#
#                 Cambridge Crystallographic Data Centre
#                                CCDC 
#
#######################################################################
#
# If this CIF has been generated from an entry in the Cambridge 
# Structural Database, then it will include bibliographic, chemical, 
# crystal, experimental, refinement or atomic coordinate data resulting 
# from the CCDC's data processing and validation procedures.
#
#######################################################################

data_TURDUH
_symmetry_cell_setting           monoclinic
_symmetry_space_group_name_H-M   'P 21'
_symmetry_Int_Tables_number      4
_space_group_name_Hall           'P 2yb'
loop_
_symmetry_equiv_pos_site_id
_symmetry_equiv_pos_as_xyz
1 x,y,z
2 -x,1/2+y,-z
_cell_length_a                   11.4393(2)
_cell_length_b                   24.6749(5)
_cell_length_c                   20.3245(4)
_cell_angle_alpha                90
_cell_angle_beta                 92.3471(6)
_cell_angle_gamma                90
_cell_volume                     5732.05
loop_
_atom_site_label
_atom_site_type_symbol
_atom_site_fract_x
_atom_site_fract_y
_atom_site_fract_z
Co1 Co 0.44476(5) 0.50937(2) 0.26380(3)
O1 O 0.4476(2) 0.54463(12) 0.35628(13)
O2 O 0.4403(2) 0.48149(12) 0.16943(13)
N1 N 0.6342(3) 0.50885(16) 0.26294(17)
O3 O 0.4392(2) 0.59571(12) 0.24304(13)
N2 N 0.5387(3) 0.92852(15) 0.69835(17)
N3 N 1.2547(3) 0.50366(16) 0.26588(17)
C1 C 0.4273(3) 0.59431(17) 0.36099(18)
C2 C 0.4417(3) 0.50525(18) 0.11468(18)
C3 C 0.6931(4) 0.5142(2) 0.2079(2)
C4 C 0.6974(4) 0.5003(2) 0.3192(2)
H1 H 0.500(3) 0.6056(19) 0.223(2)
C5 C 0.4203(3) 0.62900(17) 0.29834(18)
O4 O 0.4165(2) 0.61951(12) 0.41481(13)
O5 O 0.4543(2) 0.55515(12) 0.10625(13)
C6 C 0.4263(4) 0.46817(18) 0.0546(2)
H2 H 0.6499 0.5202 0.1676
C7 C 0.8137(4) 0.5114(2) 0.2067(2)
H3 H 0.6571 0.4961 0.3588
C8 C 0.8183(4) 0.49741(19) 0.3222(2)
H4 H 0.4844 0.6566 0.3016
C9 C 0.3040(4) 0.65884(17) 0.2919(2)
Co2 Co 0.42515(5) 0.59158(3) 0.51020(3)
Co3 Co 0.44296(5) 0.58768(2) 0.01172(3)
O6 O 0.4161(3) 0.50088(13) -0.00345(13)
H5 H 0.3527 0.4467 0.0585
C10 C 0.5288(4) 0.42941(19) 0.0527(2)
H6 H 0.8517 0.5150 0.1662
C11 C 0.8787(3) 0.50351(19) 0.2646(2)
H7 H 0.8595 0.4913 0.3631
C12 C 0.2121(4) 0.6393(2) 0.2526(2)
C13 C 0.2881(5) 0.7059(2) 0.3285(2)
N4 N 0.2349(3) 0.59855(15) 0.51147(17)
O7 O 0.4406(2) 0.55693(12) 0.60427(13)
N5 N 0.4334(3) 0.67116(15) 0.55227(17)
O8 O 0.4042(3) 0.50476(13) 0.49331(13)
N6 N -0.3850(3) 0.59677(16) 0.50697(17)
N7 N 0.6325(3) 0.58825(15) 0.00906(16)
O9 O 0.4371(2) 0.61401(12) -0.08394(13)
N8 N 0.4570(3) 0.66706(14) 0.05336(17)
N9 N 1.2524(3) 0.59586(15) 0.01249(17)
H8 H 0.347(3) 0.4983(19) -0.0263(18)
C14 C 0.5178(5) 0.3778(2) 0.0783(3)
C15 C 0.6339(5) 0.4448(3) 0.0271(3)
C16 C 1.0091(3) 0.50218(19) 0.2654(2)
H9 H 0.2229 0.6080 0.2263
C17 C 0.1030(5) 0.6654(3) 0.2512(3)
H10 H 0.3512 0.7206 0.3546
C18 C 0.1785(6) 0.7315(3) 0.3267(3)
C19 C 0.1761(4) 0.5826(2) 0.5635(2)
C20 C 0.1716(4) 0.62046(19) 0.4606(2)
C21 C 0.4427(3) 0.50659(18) 0.61085(18)
C22 C 0.4173(4) 0.67963(19) 0.6159(2)
C23 C 0.4658(5) 0.7144(2) 0.5168(2)
C24 C 0.4320(4) 0.47085(18) 0.5489(2)
H11 H 0.333(3) 0.497(2) 0.476(2)
C25 C 0.6923(3) 0.5818(2) -0.0462(2)
C26 C 0.6949(3) 0.60119(19) 0.0646(2)
C27 C 0.4469(3) 0.58978(18) -0.13770(19)
C28 C 0.4102(4) 0.67877(18) 0.1109(2)
C29 C 0.5186(4) 0.7062(2) 0.0247(2)
H12 H 0.4459 0.3667 0.0958
C30 C 0.6138(7) 0.3416(3) 0.0784(3)
H13 H 0.6415 0.4802 0.0094
C31 C 0.7292(6) 0.4093(3) 0.0267(4)
C32 C 1.0747(4) 0.51567(19) 0.3211(2)
C33 C 1.0688(4) 0.48759(18) 0.2093(2)
H14 H 0.0404 0.6516 0.2239
C34 C 0.0864(5) 0.7103(3) 0.2887(3)
H15 H 0.1675 0.7635 0.3517
H16 H 0.2190 0.5685 0.6006
C35 C 0.0553(4) 0.5859(2) 0.5658(2)
C36 C 0.0508(4) 0.62409(19) 0.4592(2)
H17 H 0.2119 0.6340 0.4242
O10 O 0.4519(2) 0.48145(12) 0.66462(13)
H18 H 0.3922 0.6500 0.6416
C37 C 0.4351(4) 0.72932(19) 0.6466(2)
C38 C 0.4845(5) 0.7651(2) 0.5440(2)
H19 H 0.4763 0.7098 0.4711
C39 C 0.5443(4) 0.43972(19) 0.5412(2)
H20 H 0.3667 0.4444 0.5541
H21 H 0.6498 0.5739 -0.0862
C40 C 0.8134(3) 0.5861(2) -0.0473(2)
H22 H 0.6541 0.6073 0.1037
C41 C 0.8155(4) 0.60602(19) 0.0674(2)
O11 O 0.4604(2) 0.53954(11) -0.14466(13)
C42 C 0.4432(3) 0.62591(17) -0.19950(18)
H23 H 0.3651 0.6518 0.1314
C43 C 0.4243(4) 0.72813(18) 0.1417(2)
C44 C 0.5372(5) 0.7565(2) 0.0527(2)
H24 H 0.5508 0.6988 -0.0167
H25 H 0.6074 0.3063 0.0964
C45 C 0.7173(7) 0.3586(3) 0.0518(4)
H26 H 0.8011 0.4204 0.0092
C46 C 1.1965(4) 0.51590(19) 0.3198(2)
H27 H 1.0373 0.5248 0.3605
C47 C 1.1896(4) 0.48842(18) 0.2119(2)
H28 H 1.0268 0.4773 0.1699
H29 H 0.0116 0.7271 0.2888
C48 C -0.0100(4) 0.60515(18) 0.5125(2)
H30 H 0.0176 0.5748 0.6043
H31 H 0.0098 0.6394 0.4221
Co4 Co 0.45771(5) 0.50598(3) 0.76112(3)
H32 H 0.4226 0.7331 0.6923
C49 C 0.4712(4) 0.77326(18) 0.6106(2)
H33 H 0.5066 0.7945 0.5169
C50 C 0.5606(7) 0.3917(3) 0.5739(3)
C51 C 0.6301(6) 0.4593(3) 0.5033(4)
H34 H 0.8521 0.5813 -0.0873
C52 C 0.8771(3) 0.59738(17) 0.0105(2)
H35 H 0.8559 0.6151 0.1076
O12 O 0.4652(3) 0.59294(12) -0.25530(13)
H36 H 0.5070 0.6535 -0.1945
C53 C 0.3269(4) 0.65540(17) -0.20731(19)
C54 C 0.4896(4) 0.76845(18) 0.1125(2)
H37 H 0.3896 0.7347 0.1826
H38 H 0.5825 0.7828 0.0311
H39 H 0.7815 0.3342 0.0511
H40 H 1.2402 0.5252 0.3589
H41 H 1.2292 0.4777 0.1738
C55 C -0.1400(3) 0.60489(18) 0.5110(2)
N10 N 0.6468(3) 0.50138(16) 0.75968(17)
N11 N 0.5350(3) 0.92605(14) 0.19923(17)
N12 N 1.2670(3) 0.50109(16) 0.75998(17)
C56 C 0.4945(4) 0.82663(18) 0.6415(2)
C57 C 0.6703(10) 0.3656(4) 0.5701(4)
H42 H 0.5000 0.3763 0.5985
C58 C 0.7369(7) 0.4333(3) 0.5009(5)
H43 H 0.6165 0.4913 0.4782
C59 C 1.0071(3) 0.59946(18) 0.0115(2)
H44 H 0.514(5) 0.603(2) -0.274(3)
C60 C 0.2379(4) 0.63671(19) -0.2489(2)
C61 C 0.3085(4) 0.70170(19) -0.1694(2)
C62 C 0.5067(4) 0.82268(18) 0.1435(2)
C63 C -0.2040(3) 0.59833(19) 0.4517(2)
C64 C -0.2025(4) 0.6095(2) 0.5677(2)
C65 C 0.7046(4) 0.5088(3) 0.7045(2)
C66 C 0.7113(4) 0.49117(19) 0.8144(2)
C67 C 0.4476(4) 0.84164(19) 0.7009(2)
C68 C 0.5666(4) 0.8644(2) 0.6122(2)
C69 C 0.7564(7) 0.3863(4) 0.5335(4)
H45 H 0.6841 0.3328 0.5936
H46 H 0.7972 0.4487 0.4761
C70 C 1.0732(3) 0.5832(2) 0.0673(2)
C71 C 1.0673(4) 0.61555(19) -0.0427(2)
H47 H 0.2501 0.6057 -0.2756
C72 C 0.1294(4) 0.6630(2) -0.2523(3)
H48 H 0.3694 0.7150 -0.1406
C73 C 0.2016(5) 0.7284(2) -0.1737(3)
C74 C 0.5078(6) 0.8305(2) 0.2107(2)
C75 C 0.5210(6) 0.8680(2) 0.1052(3)
C76 C -0.3247(3) 0.59493(19) 0.4520(2)
H49 H -0.1650 0.5962 0.4114
C77 C -0.3229(4) 0.6051(2) 0.5636(2)
H50 H -0.1628 0.6156 0.6090
C78 C 0.8245(4) 0.5070(3) 0.7025(2)
H51 H 0.6606 0.5157 0.6647
C79 C 0.8319(4) 0.48875(18) 0.8173(2)
H52 H 0.6717 0.4852 0.8539
C80 C 0.4717(4) 0.89193(19) 0.7273(2)
H53 H 0.3988 0.8171 0.7232
C81 C 0.5854(4) 0.9149(2) 0.6419(2)
H54 H 0.6027 0.8559 0.5722
H55 H 0.8291 0.3679 0.5309
H56 H 1.0355 0.5735 0.1064
C82 C 1.1937(3) 0.58131(19) 0.06536(19)
C83 C 1.1891(4) 0.61365(19) -0.0402(2)
H57 H 1.0259 0.6278 -0.0813
H58 H 0.0681 0.6496 -0.2807
C84 C 0.1113(5) 0.7082(3) -0.2145(3)
H59 H 0.1901 0.7603 -0.1487
C85 C 0.5212(6) 0.8825(2) 0.2361(2)
H60 H 0.4994 0.8005 0.2395
C86 C 0.5343(5) 0.9180(2) 0.1347(2)
H61 H 0.5217 0.8648 0.0586
H62 H -0.3669 0.5911 0.4110
H63 H -0.3641 0.6081 0.6031
C87 C 0.8917(4) 0.4976(2) 0.7598(2)
H64 H 0.8614 0.5122 0.6620
H65 H 0.8735 0.4812 0.8577
H66 H 0.4393 0.9011 0.7682
H67 H 0.6335 0.9405 0.6210
H68 H 1.2371 0.5691 0.1034
H69 H 1.2292 0.6255 -0.0776
H70 H 0.0372 0.7256 -0.2164
H71 H 0.5205 0.8870 0.2825
H72 H 0.5435 0.9486 0.1071
C88 C 1.0215(3) 0.49792(19) 0.7601(2)
C89 C 1.0878(4) 0.51133(19) 0.8157(2)
C90 C 1.0822(4) 0.4845(2) 0.7038(2)
C91 C 1.2082(3) 0.51242(19) 0.8140(2)
H73 H 1.0506 0.5198 0.8554
C92 C 1.2023(4) 0.4863(2) 0.7063(2)
H74 H 1.0406 0.4742 0.6644
H75 H 1.2518 0.5217 0.8532
H76 H 1.2419 0.4765 0.6678
Co1_2 Co 1.44476(5) 0.50937(2) 0.26380(3)
Co1A Co 0.55524(5) 1.00937(2) 0.73620(3)
N2A N 0.4613(3) 0.42852(15) 0.30165(17)
N3_2 N 0.2547(3) 0.50366(16) 0.26588(17)
Co2_2 Co -0.57485(5) 0.59158(3) 0.51020(3)
Co3_2 Co 1.44296(5) 0.58768(2) 0.01172(3)
N6_2 N 0.6150(3) 0.59677(16) 0.50697(17)
N9_2 N 0.2524(3) 0.59586(15) 0.01249(17)
O11_2 O 0.4604(2) 0.53954(11) 0.85534(13)
Co4_2 Co 0.45771(5) 0.50598(3) -0.23888(3)
Co4_3 Co 1.45771(5) 0.50598(3) 0.76112(3)
Co4A Co 0.54229(5) 1.00598(3) 0.23888(3)
O12_2 O 0.4652(3) 0.59294(12) 0.74470(13)
N11A N 0.4650(3) 0.42605(14) 0.80077(17)
N12_2 N 0.2670(3) 0.50109(16) 0.75998(17)
O13 O 0.6589(3) 0.63904(16) -0.29088(15)
N13 N 0.7456(4) 0.63556(18) -0.2490(2)
O14 O 0.7259(3) 0.62283(16) -0.19133(16)
O15 O 0.8453(3) 0.6452(2) -0.2673(2)
O16 O 1.0112(4) 0.4659(2) -0.0235(3)
O17 O 1.1329(4) 0.45152(17) 0.05895(19)
N14 N 1.1091(5) 0.4646(3) -0.0005(3)
O18 O 1.1852(4) 0.4795(2) -0.0393(2)
O19 O 0.6340(3) 0.64178(15) 0.20611(15)
O20 O 0.6995(3) 0.63346(16) 0.30693(16)
O21 O 0.8208(3) 0.6427(2) 0.2301(2)
N15 N 0.7197(3) 0.63985(17) 0.24855(19)
C93 C 0.9866(6) 0.2767(3) 0.5155(3)
H77 H 0.9649 0.2913 0.5566
C94 C 0.9018(7) 0.2573(3) 0.4720(4)
H78 H 0.8222 0.2577 0.4836
C95 C 1.1025(6) 0.2753(3) 0.5004(3)
C96 C 1.0461(6) 0.2354(3) 0.3945(3)
H79 H 1.0668 0.2217 0.3529
C97 C 0.9312(6) 0.2371(3) 0.4111(4)
H80 H 0.8716 0.2245 0.3809
C98 C 1.1323(6) 0.2541(3) 0.4397(3)
H81 H 1.2123 0.2522 0.4290
O22 O 1.2718(4) 0.3319(2) 0.5243(3)
H82 H 1.2401 0.3627 0.5227
C99 C 1.3609(6) 0.2643(3) 0.6311(4)
H83 H 1.4202 0.2853 0.6087
H84 H 1.3970 0.2317 0.6505
H85 H 1.3281 0.2863 0.6659
C100 C 1.1962(6) 0.2951(3) 0.5508(3)
H86 H 1.1552 0.3139 0.5869
C101 C 1.2636(6) 0.2479(3) 0.5815(3)
H87 H 1.2983 0.2266 0.5459
H88 H 1.2081 0.2240 0.6038
Cl1 Cl 0.9550(4) 0.3586(2) -0.3104(2)
Cl2 Cl 0.7526(4) 0.3474(2) -0.2290(3)
C102 C 0.9052(18) 0.3465(9) -0.2305(10)
H89 H 0.9344 0.3108 -0.2148
H90 H 0.9377 0.3745 -0.2000
C103 C 0.9860(6) 0.3520(3) 0.1886(5)
H91 H 0.9759 0.3481 0.1422
O23 O 1.1937(6) 0.3494(3) 0.1139(3)
H92 H 1.1851 0.3210 0.0914
C104 C 1.1070(9) 0.3556(4) 0.2879(5)
H93 H 1.1817 0.3544 0.3101
C105 C 1.2047(7) 0.3356(3) 0.1819(5)
H94 H 1.2716 0.3566 0.2023
C106 C 1.0984(6) 0.3477(3) 0.2188(4)
C107 C 1.0073(9) 0.3650(4) 0.3242(5)
H95 H 1.0133 0.3695 0.3706
C108 C 1.2360(8) 0.2757(4) 0.1845(6)
H96 H 1.2371 0.2635 0.2309
H97 H 1.1740 0.2550 0.1600
C109 C 0.8886(7) 0.3620(3) 0.2266(5)
H98 H 0.8129 0.3649 0.2058
C110 C 0.9014(8) 0.3674(3) 0.2909(5)
H99 H 0.8336 0.3733 0.3153
C111 C 1.3512(9) 0.2624(4) 0.1564(7)
H100 H 1.3485 0.2257 0.1380
H101 H 1.4128 0.2645 0.1913
H102 H 1.3678 0.2884 0.1216
N16 N 1.1167(4) 0.4573(2) 0.4943(2)
O24 O 1.1923(4) 0.4713(3) 0.4564(2)
O25 O 1.0140(4) 0.4671(3) 0.4790(3)
O26 O 1.1451(4) 0.4370(2) 0.5493(2)
O27 O 1.1893(11) 0.2531(6) 0.0252(6)
C112 C 1.1210(11) 0.3367(6) -0.0807(8)
H103 H 1.0995 0.3552 -0.0420
C113 C 1.1816(12) 0.3422(7) -0.1934(9)
H104 H 1.1986 0.3654 -0.2291
C114 C 1.1883(17) 0.2874(7) -0.1968(9)
H105 H 1.2126 0.2708 -0.2362
C115 C 1.1600(18) 0.2551(7) -0.1435(9)
H106 H 1.1632 0.2167 -0.1458
C116 C 1.1270(12) 0.2818(5) -0.0867(7)
C117 C 0.8756(16) 0.2477(8) -0.0514(10)
H107 H 0.8783 0.2724 -0.0891
H108 H 0.8015 0.2526 -0.0295
H109 H 0.8814 0.2102 -0.0667
C118 C 0.9761(12) 0.2598(7) -0.0035(11)
H110 H 0.9720 0.2986 0.0088
H111 H 0.9655 0.2383 0.0369
C119 C 1.1487(8) 0.3604(5) -0.1352(6)
H112 H 1.1448 0.3988 -0.1329
C120 C 1.0967(12) 0.2486(6) -0.0273(7)
H113 H 1.0964 0.2099 -0.0419
O28 O 0.9353(9) 0.4712(5) 0.0608(6)
Cl3? Cl 0.8109(6) 0.3645(2) -0.2706(3)
Cl4? Cl 0.7912(4) 0.3542(2) -0.1279(2)
O29? O 1.2412(9) 0.3333(5) -0.0136(8)
C121? C 0.848(2) 0.3260(11) -0.1983(12)
H114? H 0.8180 0.2886 -0.2040
H115? H 0.9344 0.3239 -0.1925
C122? C 1.1637(13) 0.3215(6) -0.2466(9)
H116? H 1.1577 0.3275 -0.2927
C123? C 1.1859(14) 0.2713(7) -0.2212(10)
H117? H 1.2025 0.2417 -0.2491
C124? C 1.1501(11) 0.3637(8) -0.2019(10)
H118? H 1.1407 0.3989 -0.2203
C125? C 1.1665(15) 0.2933(8) -0.0395(10)
H119? H 1.2024 0.2569 -0.0313
C126? C 1.1667(9) 0.3060(7) -0.1124(9)
H120? H 1.1373 0.3905 -0.1071
C127? C 1.1837(18) 0.2648(10) -0.1550(12)
H121? H 1.1946 0.2294 -0.1376
C128? C 1.0382(18) 0.2928(11) -0.0179(14)
H122? H 1.0044 0.3291 -0.0270
H123? H 1.0395 0.2875 0.0304
C129? C 0.953(3) 0.2492(9) -0.0504(14)
H124? H 0.9726 0.2434 -0.0963
H125? H 0.8718 0.2622 -0.0489
H126? H 0.9604 0.2150 -0.0261
N17? N 1.0250(12) 0.4631(5) 0.0305(6)
O30? O 1.2599(8) 0.4475(4) -0.0623(5)
loop_
_geom_bond_atom_site_label_1
_geom_bond_atom_site_label_2
_geom_bond_site_symmetry_1
_geom_bond_site_symmetry_2
Co1 O1 1_555 1_555
O1 C1 1_555 1_555
O2 Co1 1_555 1_555
N1 Co1 1_555 1_555
O3 Co1 1_555 1_555
N2 C80 1_555 1_555
N3 C46 1_555 1_555
C1 C5 1_555 1_555
C2 O2 1_555 1_555
C3 N1 1_555 1_555
C4 N1 1_555 1_555
H1 O3 1_555 1_555
C5 O3 1_555 1_555
O4 C1 1_555 1_555
O5 C2 1_555 1_555
C6 C2 1_555 1_555
H2 C3 1_555 1_555
C7 C3 1_555 1_555
H3 C4 1_555 1_555
C8 C4 1_555 1_555
H4 C5 1_555 1_555
C9 C5 1_555 1_555
Co2 O4 1_555 1_555
Co3 O5 1_555 1_555
O6 C6 1_555 1_555
H5 C6 1_555 1_555
C10 C6 1_555 1_555
H6 C7 1_555 1_555
C11 C7 1_555 1_555
H7 C8 1_555 1_555
C12 C9 1_555 1_555
C13 C9 1_555 1_555
N4 Co2 1_555 1_555
O7 Co2 1_555 1_555
N5 Co2 1_555 1_555
O8 Co2 1_555 1_555
N6 C76 1_555 1_555
N7 Co3 1_555 1_555
O9 Co3 1_555 1_555
N8 Co3 1_555 1_555
N9 C82 1_555 1_555
H8 O6 1_555 1_555
C14 C10 1_555 1_555
C15 C10 1_555 1_555
C16 C11 1_555 1_555
H9 C12 1_555 1_555
C17 C12 1_555 1_555
H10 C13 1_555 1_555
C18 C13 1_555 1_555
C19 N4 1_555 1_555
C20 N4 1_555 1_555
C21 O7 1_555 1_555
C22 N5 1_555 1_555
C23 N5 1_555 1_555
C24 O8 1_555 1_555
H11 O8 1_555 1_555
C25 N7 1_555 1_555
C26 N7 1_555 1_555
C27 O9 1_555 1_555
C28 N8 1_555 1_555
C29 N8 1_555 1_555
H12 C14 1_555 1_555
C30 C14 1_555 1_555
H13 C15 1_555 1_555
C31 C15 1_555 1_555
C32 C16 1_555 1_555
C33 C16 1_555 1_555
H14 C17 1_555 1_555
C34 C17 1_555 1_555
H15 C18 1_555 1_555
H16 C19 1_555 1_555
C35 C19 1_555 1_555
C36 C20 1_555 1_555
H17 C20 1_555 1_555
O10 C21 1_555 1_555
H18 C22 1_555 1_555
C37 C22 1_555 1_555
C38 C23 1_555 1_555
H19 C23 1_555 1_555
C39 C24 1_555 1_555
H20 C24 1_555 1_555
H21 C25 1_555 1_555
C40 C25 1_555 1_555
H22 C26 1_555 1_555
C41 C26 1_555 1_555
O11 C27 1_555 1_555
C42 C27 1_555 1_555
H23 C28 1_555 1_555
C43 C28 1_555 1_555
C44 C29 1_555 1_555
H24 C29 1_555 1_555
H25 C30 1_555 1_555
C45 C30 1_555 1_555
H26 C31 1_555 1_555
C46 C32 1_555 1_555
H27 C32 1_555 1_555
C47 N3 1_555 1_555
H28 C33 1_555 1_555
H29 C34 1_555 1_555
C48 C35 1_555 1_555
H30 C35 1_555 1_555
H31 C36 1_555 1_555
Co4 O10 1_555 1_555
H32 C37 1_555 1_555
C49 C37 1_555 1_555
H33 C38 1_555 1_555
C50 C39 1_555 1_555
C51 C39 1_555 1_555
H34 C40 1_555 1_555
C52 C40 1_555 1_555
H35 C41 1_555 1_555
O12 C42 1_555 1_555
H36 C42 1_555 1_555
C53 C42 1_555 1_555
C54 C43 1_555 1_555
H37 C43 1_555 1_555
H38 C44 1_555 1_555
H39 C45 1_555 1_555
H40 C46 1_555 1_555
H41 C47 1_555 1_555
C55 C48 1_555 1_555
N10 Co4 1_555 1_555
N11 C85 1_555 1_555
N12 C91 1_555 1_555
C56 C49 1_555 1_555
C57 C50 1_555 1_555
H42 C50 1_555 1_555
C58 C51 1_555 1_555
H43 C51 1_555 1_555
C59 C52 1_555 1_555
H44 O12 1_555 1_555
C60 C53 1_555 1_555
C61 C53 1_555 1_555
C62 C54 1_555 1_555
C63 C55 1_555 1_555
C64 C55 1_555 1_555
C65 N10 1_555 1_555
C66 N10 1_555 1_555
C67 C56 1_555 1_555
C68 C56 1_555 1_555
C69 C57 1_555 1_555
H45 C57 1_555 1_555
H46 C58 1_555 1_555
C70 C59 1_555 1_555
C71 C59 1_555 1_555
H47 C60 1_555 1_555
C72 C60 1_555 1_555
H48 C61 1_555 1_555
C73 C61 1_555 1_555
C74 C62 1_555 1_555
C75 C62 1_555 1_555
C76 C63 1_555 1_555
H49 C63 1_555 1_555
C77 N6 1_555 1_555
H50 C64 1_555 1_555
C78 C65 1_555 1_555
H51 C65 1_555 1_555
C79 C66 1_555 1_555
H52 C66 1_555 1_555
C80 C67 1_555 1_555
H53 C67 1_555 1_555
C81 N2 1_555 1_555
H54 C68 1_555 1_555
H55 C69 1_555 1_555
H56 C70 1_555 1_555
C82 C70 1_555 1_555
C83 N9 1_555 1_555
H57 C71 1_555 1_555
H58 C72 1_555 1_555
C84 C72 1_555 1_555
H59 C73 1_555 1_555
C85 C74 1_555 1_555
H60 C74 1_555 1_555
C86 N11 1_555 1_555
H61 C75 1_555 1_555
H62 C76 1_555 1_555
H63 C77 1_555 1_555
C87 C78 1_555 1_555
H64 C78 1_555 1_555
H65 C79 1_555 1_555
H66 C80 1_555 1_555
H67 C81 1_555 1_555
H68 C82 1_555 1_555
H69 C83 1_555 1_555
H70 C84 1_555 1_555
H71 C85 1_555 1_555
H72 C86 1_555 1_555
C88 C87 1_555 1_555
C89 C88 1_555 1_555
C90 C88 1_555 1_555
C91 C89 1_555 1_555
H73 C89 1_555 1_555
C92 N12 1_555 1_555
H74 C90 1_555 1_555
H75 C91 1_555 1_555
H76 C92 1_555 1_555
O13 N13 1_555 1_555
N13 O14 1_555 1_555
O15 N13 1_555 1_555
O16 N14 1_555 1_555
O17 N14 1_555 1_555
N14 O18 1_555 1_555
O19 N15 1_555 1_555
O20 N15 1_555 1_555
O21 N15 1_555 1_555
C93 H77 1_555 1_555
C94 C93 1_555 1_555
H78 C94 1_555 1_555
C95 C93 1_555 1_555
C96 H79 1_555 1_555
C97 C94 1_555 1_555
H80 C97 1_555 1_555
C98 C95 1_555 1_555
H81 C98 1_555 1_555
O22 H82 1_555 1_555
C99 H83 1_555 1_555
H84 C99 1_555 1_555
H85 C99 1_555 1_555
C100 C95 1_555 1_555
H86 C100 1_555 1_555
C101 C99 1_555 1_555
H87 C101 1_555 1_555
H88 C101 1_555 1_555
Cl1 C102 1_555 1_555
Cl2 C102 1_555 1_555
C102 H89 1_555 1_555
H90 C102 1_555 1_555
C103 H91 1_555 1_555
O23 H92 1_555 1_555
C104 H93 1_555 1_555
C105 O23 1_555 1_555
H94 C105 1_555 1_555
C106 C103 1_555 1_555
C107 C104 1_555 1_555
H95 C107 1_555 1_555
C108 C105 1_555 1_555
H96 C108 1_555 1_555
H97 C108 1_555 1_555
C109 C103 1_555 1_555
H98 C109 1_555 1_555
C110 C107 1_555 1_555
H99 C110 1_555 1_555
C111 C108 1_555 1_555
H100 C111 1_555 1_555
H101 C111 1_555 1_555
H102 C111 1_555 1_555
N16 O24 1_555 1_555
O25 N16 1_555 1_555
O26 N16 1_555 1_555
O27 C120 1_555 1_555
C112 H103 1_555 1_555
C113 H104 1_555 1_555
C114 C113 1_555 1_555
H105 C114 1_555 1_555
C115 C114 1_555 1_555
H106 C115 1_555 1_555
C116 C112 1_555 1_555
C117 H107 1_555 1_555
H108 C117 1_555 1_555
H109 C117 1_555 1_555
C118 C117 1_555 1_555
H110 C118 1_555 1_555
H111 C118 1_555 1_555
C119 C112 1_555 1_555
H112 C119 1_555 1_555
C120 C116 1_555 1_555
H113 C120 1_555 1_555
Co1_2 N3 1_555 1_555
Co1A N2 1_555 1_555
N2A Co1 1_555 1_555
N3_2 Co1 1_555 1_555
Co2_2 N6 1_555 1_555
Co3_2 N9 1_555 1_555
N6_2 Co2 1_555 1_555
N9_2 Co3 1_555 1_555
O11_2 Co4 1_555 1_555
Co4_2 O11 1_555 1_555
Co4_3 N12 1_555 1_555
Co4A N11 1_555 1_555
O12_2 Co4 1_555 1_555
N11A Co4 1_555 1_555
N12_2 Co4 1_555 1_555
C8 C11 1_555 1_555
Co3 O6 1_555 1_555
C18 C34 1_555 1_555
C21 C24 1_555 1_555
C31 C45 1_555 1_555
C33 C47 1_555 1_555
C36 C48 1_555 1_555
C38 C49 1_555 1_555
C41 C52 1_555 1_555
C44 C54 1_555 1_555
O12 Co4_2 1_555 1_555
C58 C69 1_555 1_555
C64 C77 1_555 1_555
C68 C81 1_555 1_555
C71 C83 1_555 1_555
C73 C84 1_555 1_555
C75 C86 1_555 1_555
C79 C87 1_555 1_555
C90 C92 1_555 1_555
C96 C97 1_555 1_555
C96 C98 1_555 1_555
O22 C100 1_555 1_555
C100 C101 1_555 1_555
C104 C106 1_555 1_555
C105 C106 1_555 1_555
C109 C110 1_555 1_555
C113 C119 1_555 1_555
C115 C116 1_555 1_555
C118 C120 1_555 1_555

#END
