
#######################################################################
#
#                 Cambridge Crystallographic Data Centre
#                                CCDC 
#
#######################################################################
#
# If this CIF has been generated from an entry in the Cambridge 
# Structural Database, then it will include bibliographic, chemical, 
# crystal, experimental, refinement or atomic coordinate data resulting 
# from the CCDC's data processing and validation procedures.
#
#######################################################################

data_TURDOB
_symmetry_cell_setting           monoclinic
_symmetry_space_group_name_H-M   'P 21'
_symmetry_Int_Tables_number      4
_space_group_name_Hall           'P 2yb'
loop_
_symmetry_equiv_pos_site_id
_symmetry_equiv_pos_as_xyz
1 x,y,z
2 -x,1/2+y,-z
_cell_length_a                   11.4463(3)
_cell_length_b                   24.6528(7)
_cell_length_c                   20.3256(6)
_cell_angle_alpha                90
_cell_angle_beta                 92.6948(13)
_cell_angle_gamma                90
_cell_volume                     5729.2
loop_
_atom_site_label
_atom_site_type_symbol
_atom_site_fract_x
_atom_site_fract_y
_atom_site_fract_z
Co1 Co 0.43882(8) 1.19040(4) 0.26730(4)
Co2 Co 0.44119(8) 1.26607(4) 0.01450(4)
Co3 Co 0.46446(8) 1.18621(4) -0.23734(4)
Co4 Co 0.42579(8) 1.27185(4) 0.51247(4)
N1 N 0.6284(4) 1.1910(2) 0.2672(3)
N2 N 1.2496(4) 1.1838(2) 0.2699(3)
O1 O 0.4322(4) 1.16233(18) 0.1732(2)
O2 O 0.4424(3) 1.22575(18) 0.3590(2)
O3 O 0.4575(4) 1.16149(18) -0.3336(2)
N3 N 0.6310(4) 1.2674(2) 0.0139(2)
O4 O 0.4519(3) 1.23528(17) 0.1096(2)
O5 O 0.4146(4) 1.30062(18) 0.4177(2)
N4 N 0.2353(4) 1.2775(2) 0.5134(3)
N5 N 1.2497(4) 1.2715(2) 0.0150(3)
O6 O 0.4415(4) 1.23685(18) -0.3934(2)
C1 C -0.3252(6) 1.2758(3) 0.4540(3)
H1 H -0.3680 1.2726 0.4130
N6 N 1.2733(4) 1.1793(2) -0.2389(3)
O7 O 0.4330(4) 1.27632(18) 0.2458(2)
H2 H 0.503(3) 1.280(2) 0.233(3)
C2 C 1.0709(5) 1.2620(3) 0.0715(3)
H3 H 1.0341 1.2532 0.1111
N7 N -0.3845(4) 1.2770(2) 0.5094(3)
C3 C 1.1920(5) 1.2594(3) 0.0690(3)
H4 H 1.2361 1.2486 0.1076
C4 C 1.1908(6) 1.1967(3) 0.3242(3)
H5 H 1.2351 1.2066 0.3631
C5 C 1.0708(5) 1.1963(3) 0.3264(3)
H6 H 1.0345 1.2049 0.3661
C6 C 1.0949(5) 1.1908(3) -0.1848(3)
H7 H 1.0574 1.2005 -0.1458
O8 O 0.4092(4) 1.1846(2) -0.5050(2)
C7 C 1.1821(6) 1.1684(3) 0.2168(3)
H8 H 1.2205 1.1573 0.1786
C8 C 1.0649(6) 1.2917(3) -0.0397(3)
H9 H 1.0232 1.3037 -0.0785
C9 C 1.1861(6) 1.2885(3) -0.0383(3)
H10 H 1.2255 1.2987 -0.0765
C10 C 1.0039(5) 1.2773(3) 0.0157(3)
C11 C 1.2096(6) 1.1609(4) -0.2920(3)
H11 H 1.2498 1.1489 -0.3291
C12 C 0.4245(5) 1.2757(3) 0.3642(3)
C13 C 0.8112(6) 1.1771(3) 0.3265(3)
H12 H 0.8524 1.1696 0.3672
C14 C -0.1391(5) 1.2839(3) 0.5128(3)
C15 C 0.1763(6) 1.2595(3) 0.5644(3)
H13 H 0.2194 1.2444 0.6011
C16 C 0.0509(6) 1.3049(3) 0.4628(3)
H14 H 0.0095 1.3216 0.4266
C17 C 1.0882(6) 1.1587(4) -0.2948(4)
H15 H 1.0469 1.1462 -0.3335
C18 C 1.2143(5) 1.1925(3) -0.1861(3)
H16 H 1.2574 1.2037 -0.1474
C19 C 0.6916(5) 1.1805(3) 0.3236(3)
H17 H 0.6513 1.1753 0.3629
C20 C 0.4471(5) 1.1867(3) -0.3868(3)
C21 C 1.0280(6) 1.1749(3) -0.2406(3)
C22 C 0.4359(6) 1.1510(3) -0.4495(3)
H18 H 0.3700 1.1249 -0.4447
C23 C 1.0026(5) 1.1830(3) 0.2701(3)
C24 C 0.4159(5) 1.3103(3) 0.3014(3)
H19 H 0.4801 1.3379 0.3041
C25 C -0.2036(5) 1.2790(3) 0.4540(3)
H20 H -0.1653 1.2779 0.4136
C26 C 0.8724(5) 1.1849(3) 0.2693(3)
C27 C 1.0625(6) 1.1675(3) 0.2141(3)
H21 H 1.0203 1.1566 0.1750
C28 C -0.0089(5) 1.2838(3) 0.5146(3)
C29 C 0.1727(6) 1.3013(3) 0.4642(3)
H22 H 0.2129 1.3164 0.4287
C30 C 0.0563(6) 1.2619(4) 0.5664(3)
H23 H 0.0186 1.2482 0.6037
C31 C -0.3226(6) 1.2835(3) 0.5656(3)
H24 H -0.3636 1.2860 0.6050
N8 N 0.4555(5) 1.1095(2) 0.3034(3)
N9 N 0.5504(5) 0.8460(2) -0.0546(3)
C32 C 0.4365(4) 1.1860(3) 0.1186(3)
C33 C 0.2998(6) 1.3402(3) 0.2950(3)
O9 O 0.4259(4) 1.17943(18) 0.0001(2)
H25 H 0.358(3) 1.178(3) -0.022(2)
O10 O 0.4690(4) 1.27277(18) -0.2528(2)
H26 H 0.523(5) 1.290(2) -0.273(2)
O11 O 0.4663(4) 1.21866(17) -0.1424(2)
C34 C 0.5004(6) 1.0071(3) 0.3590(3)
C35 C 0.5474(7) 1.0226(3) 0.2997(4)
H27 H 0.5957 0.9983 0.2770
C36 C 0.4094(7) 1.0945(3) 0.3601(4)
H28 H 0.3609 1.1196 0.3814
C37 C 0.8101(6) 1.2598(4) -0.0410(4)
H29 H 0.8485 1.2509 -0.0800
C38 C 0.8995(6) 1.1754(3) -0.2410(3)
C39 C 0.8392(6) 1.1669(3) -0.1826(4)
H30 H 0.8810 1.1585 -0.1425
C40 C 0.6914(6) 1.2561(3) -0.0396(4)
H31 H 0.6489 1.2450 -0.0786
C41 C 0.4438(5) 1.3050(2) -0.1969(3)
H32 H 0.5051 1.3337 -0.1912
C42 C 0.6935(5) 1.2847(3) 0.0678(3)
H33 H 0.6528 1.2945 0.1057
C43 C 0.3251(6) 1.3322(3) -0.2064(3)
C44 C 0.2416(6) 1.3137(3) -0.2525(3)
H34 H 0.2606 1.2849 -0.2811
C45 C 0.5096(6) 1.0026(3) -0.1430(3)
C46 C 0.5121(9) 0.9440(3) 0.4558(4)
H35 H 0.4885 0.9727 0.4835
C47 C 0.4778(7) 0.9363(3) -0.0526(3)
H36 H 0.4346 0.9630 -0.0304
C48 C 0.1314(7) 1.3364(4) -0.2577(4)
H37 H 0.0747 1.3224 -0.2889
C49 C 0.5324(8) 0.8935(3) 0.4815(4)
H38 H 0.5221 0.8882 0.5271
C50 C 0.5008(8) 1.0102(3) -0.2104(4)
H39 H 0.5061 0.9801 -0.2393
N10 N 0.4776(4) 1.1058(2) -0.1976(3)
C51 C 0.5815(7) 0.8601(3) 0.3833(3)
H40 H 0.6072 0.8307 0.3574
C52 C 0.4841(7) 1.0616(3) -0.2353(4)
H41 H 0.4769 1.0659 -0.2818
C53 C 0.4939(6) 0.8856(3) -0.0251(3)
H42 H 0.4632 0.8786 0.0166
C54 C 0.5854(6) 0.9073(3) -0.1435(3)
H43 H 0.6189 0.9134 -0.1847
N11 N 0.5657(4) 0.8516(2) 0.4462(3)
C55 C 0.5623(7) 0.9100(3) 0.3530(3)
H44 H 0.5743 0.9140 0.3073
O12 O 0.4359(4) 1.29215(17) -0.0814(2)
C56 C 0.5961(6) 0.8572(3) -0.1131(3)
H45 H 0.6376 0.8294 -0.1344
C57 C 0.2050(6) 1.3195(3) 0.2584(4)
H46 H 0.2139 1.2873 0.2336
N12 N 0.6539(4) 1.1822(3) -0.2401(3)
C58 C 0.5479(6) 1.1190(3) -0.4560(3)
C59 C 0.8744(5) 1.2764(3) 0.0147(3)
C60 C 0.0971(7) 1.3453(4) 0.2574(5)
H47 H 0.0329 1.3303 0.2323
C61 C 0.4486(5) 1.2691(3) -0.1356(3)
C62 C 0.7189(6) 1.1710(3) -0.1850(4)
H48 H 0.6797 1.1655 -0.1453
C63 C 0.1034(8) 1.3791(4) -0.2180(5)
H49 H 0.0279 1.3951 -0.2218
C64 C 0.1864(9) 1.3984(5) -0.1726(5)
H50 H 0.1675 1.4278 -0.1448
C65 C 0.8130(6) 1.2887(3) 0.0705(3)
H51 H 0.8537 1.2997 0.1101
C66 C 0.5248(6) 0.9485(3) -0.1128(3)
C67 C 0.8070(6) 1.1945(3) 0.2110(3)
H52 H 0.8444 1.1989 0.1706
C68 C 0.8307(7) 1.1819(5) -0.2978(4)
H53 H 0.8656 1.1833 -0.3392
C69 C 0.4907(8) 1.0982(3) -0.1326(3)
H54 H 0.4884 1.1291 -0.1047
C70 C 0.6882(6) 1.1975(3) 0.2129(3)
H55 H 0.6450 1.2047 0.1728
C71 C 0.5231(7) 1.0733(3) 0.2744(4)
H56 H 0.5562 1.0832 0.2340
C72 C 0.2970(7) 1.3755(3) -0.1666(4)
H57 H 0.3535 1.3895 -0.1353
C73 C 0.7128(6) 1.1863(5) -0.2946(4)
H58 H 0.6689 1.1928 -0.3346
C74 C -0.2018(6) 1.2868(4) 0.5703(3)
H59 H -0.1619 1.2911 0.6120
C75 C 0.5259(6) 0.9536(3) 0.3890(3)
C76 C 0.6388(9) 1.1402(4) -0.4887(6)
H60 H 0.6297 1.1744 -0.5098
C77 C 0.4288(7) 1.0443(3) 0.3889(4)
H61 H 0.3935 1.0353 0.4288
C78 C 0.5073(8) 1.0481(3) -0.1040(3)
H62 H 0.5170 1.0450 -0.0574
C79 C 0.4211(6) 1.1482(3) 0.0587(3)
H63 H 0.3419 1.1311 0.0595
C80 C 0.5118(6) 1.1036(3) 0.0638(4)
C81 C 0.1791(10) 1.4151(4) 0.3263(5)
H64 H 0.1710 1.4489 0.3480
C82 C 0.6254(8) 1.1148(4) 0.0533(6)
H65 H 0.6480 1.1501 0.0400
C83 C 0.2858(7) 1.3890(3) 0.3283(4)
H66 H 0.3504 1.4044 0.3526
C84 C 0.0825(9) 1.3915(5) 0.2920(5)
H67 H 0.0075 1.4079 0.2930
C85 C 0.7596(11) 1.0640(6) -0.4618(7)
H68 H 0.8318 1.0451 -0.4629
C86 C 0.5594(11) 1.0695(4) -0.4268(5)
H69 H 0.4961 1.0537 -0.4051
C87 C 0.6665(15) 1.0424(6) -0.4294(8)
H70 H 0.6756 1.0082 -0.4083
C88 C 0.4798(9) 1.0526(3) 0.0842(4)
H71 H 0.4002 1.0461 0.0928
C89 C 0.6712(12) 1.0219(5) 0.0814(8)
H72 H 0.7267 0.9934 0.0865
C90 C 0.7102(10) 1.0730(6) 0.0627(9)
H73 H 0.7907 1.0797 0.0564
C91 C 0.5583(11) 1.0111(4) 0.0924(6)
H74 H 0.5343 0.9760 0.1055
C92 C 0.7451(10) 1.1126(5) -0.4916(8)
H75 H 0.8073 1.1280 -0.5147
H76 H 0.3423 1.1860 -0.5228
Co1_2 Co 1.43882(8) 1.19040(4) 0.26730(4)
Co2_2 Co 1.44119(8) 1.26607(4) 0.01450(4)
Co2A Co 0.55881(8) 0.76607(4) -0.01450(4)
Co3_2 Co 1.46446(8) 1.18621(4) -0.23734(4)
Co4_2 Co -0.57421(8) 1.27185(4) 0.51247(4)
Co4_3 Co 0.42579(8) 1.27185(4) -0.48753(4)
Co4A Co 0.57421(8) 0.77185(4) 0.48753(4)
N2_2 N 0.2496(4) 1.1838(2) 0.2699(3)
N5_2 N 0.2497(4) 1.2715(2) 0.0150(3)
O6_2 O 0.4415(4) 1.23685(18) 0.6066(2)
N6_2 N 0.2733(4) 1.1793(2) -0.2389(3)
N7_2 N 0.6155(4) 1.2770(2) 0.5094(3)
O8_2 O 0.4092(4) 1.1846(2) 0.4950(2)
N9A N 0.4496(5) 1.3460(2) 0.0546(3)
N11A N 0.4343(4) 1.3516(2) 0.5538(3)
O13 O 0.7269(6) 1.3027(3) -0.1870(3)
O14 O 0.6618(5) 1.3170(3) -0.2883(3)
O15 O 0.8493(6) 1.3214(4) -0.2628(4)
N13 N 0.7492(6) 1.3132(3) -0.2454(3)
O16 O 0.7016(5) 1.3134(2) 0.3067(2)
O17 O 0.8091(5) 1.3381(4) 0.2278(3)
O18 O 0.6229(4) 1.3263(2) 0.2083(2)
N14 N 0.7128(5) 1.3259(3) 0.2480(3)
O19 O 1.0285(7) 1.1511(3) -0.0261(3)
O20 O 1.1202(5) 1.1271(3) 0.0647(3)
N15 N 1.0271(7) 1.1423(3) 0.0335(4)
O21 O 0.9319(6) 1.1496(4) 0.0616(4)
O22 O 1.1988(6) 1.1457(4) -0.5411(3)
O23 O 1.0185(6) 1.1463(4) -0.5158(4)
N16 N 1.1200(6) 1.1338(3) -0.5010(4)
O24 O 1.1488(6) 1.1122(3) -0.4482(3)
C93 C 0.1023(9) 0.9547(4) -0.4977(5)
C94 C -0.0992(10) 0.9372(5) -0.5300(7)
H77 H -0.1794 0.9377 -0.5199
C95 C 0.0460(10) 0.9152(4) -0.6039(5)
H78 H 0.0670 0.9008 -0.6450
C96 C -0.0127(10) 0.9566(4) -0.4824(5)
H79 H -0.0348 0.9704 -0.4412
C97 C -0.0678(10) 0.9180(4) -0.5896(6)
H80 H -0.1265 0.9066 -0.6212
C98 C 0.1329(9) 0.9334(5) -0.5588(5)
H81 H 0.2128 0.9314 -0.5693
C99 C 0.2635(10) 0.9269(4) -0.4159(6)
H82 H 0.3012 0.9066 -0.4512
H83 H 0.2078 0.9020 -0.3954
O25 O 0.2771(6) 1.0109(3) -0.4727(3)
H84 H 0.2472 1.0420 -0.4747
C100 C 0.3575(11) 0.9435(5) -0.3638(6)
H85 H 0.3218 0.9651 -0.3296
H86 H 0.4175 0.9652 -0.3845
H87 H 0.3935 0.9110 -0.3440
C101 C 0.1963(9) 0.9739(4) -0.4463(5)
H88 H 0.1558 0.9929 -0.4104
O26 O 0.2584(5) 1.1293(3) -0.0629(3)
O27 O 1.2463(11) 1.0201(5) -0.0687(7)
C102 C 1.166(2) 1.0310(11) -0.1889(15)
H89 H 1.1393 1.0670 -0.1739
H90 H 1.2440 1.0356 -0.2066
C103 C 1.0569(11) 0.9799(6) -0.1009(8)
C104 C 0.9925(16) 1.0148(6) -0.0630(10)
H91 H 1.0208 1.0503 -0.0534
C105 C 0.8866(16) 0.9979(8) -0.0393(10)
H92 H 0.8426 1.0217 -0.0134
C106 C 0.8451(12) 0.9459(8) -0.0534(9)
H93 H 0.7728 0.9344 -0.0371
C107 C 0.9096(13) 0.9110(6) -0.0912(8)
H94 H 0.8812 0.8755 -0.1009
C108 C 1.0154(12) 0.9280(6) -0.1150(8)
H95 H 1.0595 0.9041 -0.1409
C109 C 1.091(4) 1.0135(19) -0.238(2)
H96 H 1.0871 1.0402 -0.2737
H97 H 1.0125 1.0088 -0.2209
H98 H 1.1180 0.9787 -0.2547
C110 C 1.1757(18) 0.9921(9) -0.1284(12)
H99 H 1.2150 0.9575 -0.1408
O28 O 1.2360(7) 0.9555(3) 0.0314(4)
O29 O 1.1733(5) 1.0248(3) 0.0902(3)
C111 C 1.1753(5) 1.0114(2) 0.1618(3)
H100 H 1.2486 1.0277 0.1818
C112 C 1.3269(7) 0.9349(4) 0.1502(4)
H101 H 1.3472 0.9501 0.1076
H102 H 1.3398 0.8957 0.1501
H103 H 1.3761 0.9516 0.1854
C113 C 1.1952(7) 0.9469(3) 0.1620(4)
H104 H 1.1740 0.9315 0.2048
H105 H 1.1449 0.9299 0.1268
C114 C 1.0954(10) 1.0202(7) 0.2025(7)
C115 C 0.9801(11) 1.0281(6) 0.1799(5)
H106 H 0.9589 1.0238 0.1344
C116 C 0.8958(10) 1.0423(7) 0.2238(7)
H107 H 0.8170 1.0476 0.2084
C117 C 0.9267(14) 1.0486(8) 0.2903(6)
H108 H 0.8691 1.0583 0.3204
C118 C 1.0420(16) 1.0407(9) 0.3129(6)
H109 H 1.0632 1.0450 0.3584
C119 C 1.1263(11) 1.0265(8) 0.2690(8)
H110 H 1.2051 1.0212 0.2844
C120? C 1.1895(5) 1.0188(3) 0.2079(3)
H111? H 1.2518 1.0446 0.2241
O30? O 1.1723(5) 1.0244(2) 0.1334(3)
C121? C 1.2268(6) 0.9614(3) 0.2253(4)
H112? H 1.1692 0.9354 0.2056
H113? H 1.2288 0.9567 0.2737
C122? C 1.0761(6) 1.0307(3) 0.2433(3)
C123? C 1.3485(6) 0.9491(4) 0.1998(4)
H114? H 1.3462 0.9533 0.1518
H115? H 1.3709 0.9119 0.2115
H116? H 1.4057 0.9745 0.2198
C124? C 0.9655(5) 1.0285(3) 0.2126(3)
H117? H 0.9564 1.0200 0.1671
C125? C 1.0915(7) 1.0417(3) 0.3072(3)
H118? H 1.1677 1.0430 0.3278
C126? C 0.8655(6) 1.0391(4) 0.2498(4)
H119? H 0.7909 1.0391 0.2272
C127? C 0.9851(8) 1.0518(4) 0.3460(4)
H120? H 0.9935 1.0601 0.3916
C128? C 0.8704(7) 1.0489(5) 0.3140(4)
H121? H 0.8017 1.0539 0.3378
O31? O 1.2372(7) 1.0168(4) -0.0310(3)
C129? C 1.1785(8) 0.9860(5) -0.0985(3)
H122? H 1.2174 0.9506 -0.1075
C130? C 1.1739(9) 1.0276(6) -0.1649(3)
H123? H 1.1164 1.0567 -0.1574
H124? H 1.2514 1.0450 -0.1676
C131? C 1.1395(11) 0.9987(7) -0.2370(3)
H125? H 1.1972 0.9706 -0.2460
H126? H 1.1393 1.0263 -0.2718
H127? H 1.0617 0.9823 -0.2358
C132? C 1.0568(14) 0.9786(10) -0.0761(13)
C133? C 0.9878(18) 1.0250(8) -0.0767(12)
H128? H 1.0215 1.0594 -0.0854
C134? C 0.8696(17) 1.0212(8) -0.0646(13)
H129? H 0.8225 1.0529 -0.0650
C135? C 0.8204(14) 0.9710(9) -0.0520(12)
H130? H 0.7396 0.9684 -0.0437
C136? C 0.8893(19) 0.9246(8) -0.0514(13)
H131? H 0.8557 0.8902 -0.0427
C137? C 1.0076(18) 0.9284(8) -0.0635(14)
H132? H 1.0547 0.8967 -0.0631
loop_
_geom_bond_atom_site_label_1
_geom_bond_atom_site_label_2
_geom_bond_site_symmetry_1
_geom_bond_site_symmetry_2
Co1 N1 1_555 1_555
Co2 N3 1_555 1_555
Co3 O3 1_555 1_555
Co4 O5 1_555 1_555
N1 C19 1_555 1_555
N2 C4 1_555 1_555
O1 Co1 1_555 1_555
O2 Co1 1_555 1_555
O3 C20 1_555 1_555
N3 C40 1_555 1_555
O4 Co2 1_555 1_555
O5 C12 1_555 1_555
N4 Co4 1_555 1_555
N5 C3 1_555 1_555
O6 C20 1_555 1_555
C1 H1 1_555 1_555
N6 C11 1_555 1_555
O7 Co1 1_555 1_555
H2 O7 1_555 1_555
C2 H3 1_555 1_555
N7 C1 1_555 1_555
C3 C2 1_555 1_555
H4 C3 1_555 1_555
C4 H5 1_555 1_555
C5 C4 1_555 1_555
H6 C5 1_555 1_555
C6 H7 1_555 1_555
O8 C22 1_555 1_555
C7 N2 1_555 1_555
H8 C7 1_555 1_555
C8 H9 1_555 1_555
C9 N5 1_555 1_555
H10 C9 1_555 1_555
C10 C2 1_555 1_555
C11 H11 1_555 1_555
C12 O2 1_555 1_555
C13 H12 1_555 1_555
C14 C25 1_555 1_555
C15 N4 1_555 1_555
H13 C15 1_555 1_555
C16 H14 1_555 1_555
C17 C11 1_555 1_555
H15 C17 1_555 1_555
C18 N6 1_555 1_555
H16 C18 1_555 1_555
C19 C13 1_555 1_555
H17 C19 1_555 1_555
C20 C22 1_555 1_555
C21 C6 1_555 1_555
C22 H18 1_555 1_555
C23 C5 1_555 1_555
C24 O7 1_555 1_555
H19 C24 1_555 1_555
C25 C1 1_555 1_555
H20 C25 1_555 1_555
C26 C13 1_555 1_555
C27 C7 1_555 1_555
H21 C27 1_555 1_555
C28 C14 1_555 1_555
C29 N4 1_555 1_555
H22 C29 1_555 1_555
C30 C15 1_555 1_555
H23 C30 1_555 1_555
C31 N7 1_555 1_555
H24 C31 1_555 1_555
N8 Co1 1_555 1_555
N9 C53 1_555 1_555
C32 O1 1_555 1_555
C33 C24 1_555 1_555
O9 Co2 1_555 1_555
H25 O9 1_555 1_555
O10 Co3 1_555 1_555
H26 O10 1_555 1_555
O11 Co3 1_555 1_555
C34 C35 1_555 1_555
C35 H27 1_555 1_555
C36 N8 1_555 1_555
H28 C36 1_555 1_555
C37 H29 1_555 1_555
C38 C21 1_555 1_555
C39 C38 1_555 1_555
H30 C39 1_555 1_555
C40 C37 1_555 1_555
H31 C40 1_555 1_555
C41 O10 1_555 1_555
H32 C41 1_555 1_555
C42 N3 1_555 1_555
H33 C42 1_555 1_555
C43 C41 1_555 1_555
C44 C43 1_555 1_555
H34 C44 1_555 1_555
C45 C50 1_555 1_555
C46 H35 1_555 1_555
C47 H36 1_555 1_555
C48 C44 1_555 1_555
H37 C48 1_555 1_555
C49 C46 1_555 1_555
H38 C49 1_555 1_555
C50 H39 1_555 1_555
N10 Co3 1_555 1_555
C51 H40 1_555 1_555
C52 C50 1_555 1_555
H41 C52 1_555 1_555
C53 C47 1_555 1_555
H42 C53 1_555 1_555
C54 H43 1_555 1_555
N11 C49 1_555 1_555
C55 C51 1_555 1_555
H44 C55 1_555 1_555
O12 Co2 1_555 1_555
C56 N9 1_555 1_555
H45 C56 1_555 1_555
C57 C33 1_555 1_555
H46 C57 1_555 1_555
N12 Co3 1_555 1_555
C58 C22 1_555 1_555
C59 C10 1_555 1_555
C60 C57 1_555 1_555
H47 C60 1_555 1_555
C61 O11 1_555 1_555
C62 C39 1_555 1_555
H48 C62 1_555 1_555
C63 C48 1_555 1_555
H49 C63 1_555 1_555
C64 C63 1_555 1_555
H50 C64 1_555 1_555
C65 C42 1_555 1_555
H51 C65 1_555 1_555
C66 C45 1_555 1_555
C67 C26 1_555 1_555
H52 C67 1_555 1_555
C68 C38 1_555 1_555
H53 C68 1_555 1_555
C69 N10 1_555 1_555
H54 C69 1_555 1_555
C70 N1 1_555 1_555
H55 C70 1_555 1_555
C71 N8 1_555 1_555
H56 C71 1_555 1_555
C72 C43 1_555 1_555
H57 C72 1_555 1_555
C73 N12 1_555 1_555
H58 C73 1_555 1_555
C74 C14 1_555 1_555
H59 C74 1_555 1_555
C75 C34 1_555 1_555
C76 C58 1_555 1_555
H60 C76 1_555 1_555
C77 C34 1_555 1_555
H61 C77 1_555 1_555
C78 C45 1_555 1_555
H62 C78 1_555 1_555
C79 C32 1_555 1_555
H63 C79 1_555 1_555
C80 C79 1_555 1_555
C81 H64 1_555 1_555
C82 C80 1_555 1_555
H65 C82 1_555 1_555
C83 C33 1_555 1_555
H66 C83 1_555 1_555
C84 C60 1_555 1_555
H67 C84 1_555 1_555
C85 H68 1_555 1_555
C86 C58 1_555 1_555
H69 C86 1_555 1_555
C87 C85 1_555 1_555
H70 C87 1_555 1_555
C88 C80 1_555 1_555
H71 C88 1_555 1_555
C89 H72 1_555 1_555
C90 C82 1_555 1_555
H73 C90 1_555 1_555
C91 C88 1_555 1_555
H74 C91 1_555 1_555
C92 C76 1_555 1_555
H75 C92 1_555 1_555
H76 O8 1_555 1_555
O13 N13 1_555 1_555
O14 N13 1_555 1_555
O15 N13 1_555 1_555
O16 N14 1_555 1_555
O17 N14 1_555 1_555
O18 N14 1_555 1_555
O19 N15 1_555 1_555
O20 N15 1_555 1_555
N15 O21 1_555 1_555
O22 N16 1_555 1_555
O23 N16 1_555 1_555
N16 O24 1_555 1_555
C93 C96 1_555 1_555
C94 H77 1_555 1_555
C95 H78 1_555 1_555
C96 C94 1_555 1_555
H79 C96 1_555 1_555
C97 C94 1_555 1_555
H80 C97 1_555 1_555
C98 C93 1_555 1_555
H81 C98 1_555 1_555
C99 H82 1_555 1_555
H83 C99 1_555 1_555
O25 H84 1_555 1_555
C100 C99 1_555 1_555
H85 C100 1_555 1_555
H86 C100 1_555 1_555
H87 C100 1_555 1_555
C101 C93 1_555 1_555
H88 C101 1_555 1_555
O27 C110 1_555 1_555
C102 H89 1_555 1_555
H90 C102 1_555 1_555
C103 C104 1_555 1_555
C104 H91 1_555 1_555
C105 C104 1_555 1_555
H92 C105 1_555 1_555
C106 C105 1_555 1_555
H93 C106 1_555 1_555
C107 C106 1_555 1_555
H94 C107 1_555 1_555
C108 C103 1_555 1_555
H95 C108 1_555 1_555
C109 C102 1_555 1_555
H96 C109 1_555 1_555
H97 C109 1_555 1_555
H98 C109 1_555 1_555
C110 C102 1_555 1_555
H99 C110 1_555 1_555
O29 C111 1_555 1_555
C111 H100 1_555 1_555
C112 H101 1_555 1_555
H102 C112 1_555 1_555
H103 C112 1_555 1_555
C113 C111 1_555 1_555
H104 C113 1_555 1_555
H105 C113 1_555 1_555
C114 C111 1_555 1_555
C115 C114 1_555 1_555
H106 C115 1_555 1_555
C116 C115 1_555 1_555
H107 C116 1_555 1_555
C117 C116 1_555 1_555
H108 C117 1_555 1_555
C118 C117 1_555 1_555
H109 C118 1_555 1_555
C119 C114 1_555 1_555
H110 C119 1_555 1_555
Co1_2 N2 1_555 1_555
Co2_2 N5 1_555 1_555
Co2A N9 1_555 1_555
Co3_2 N6 1_555 1_555
Co4_2 N7 1_555 1_555
Co4_3 O6 1_555 1_555
Co4A N11 1_555 1_555
N2_2 Co1 1_555 1_555
N5_2 Co2 1_555 1_555
O6_2 Co4 1_555 1_555
N6_2 Co3 1_555 1_555
N7_2 Co4 1_555 1_555
O8_2 Co4 1_555 1_555
N9A Co2 1_555 1_555
N11A Co4 1_555 1_555
O4 C32 1_555 1_555
C6 C18 1_555 1_555
O8 Co4_3 1_555 1_555
C8 C9 1_555 1_555
C8 C10 1_555 1_555
C12 C24 1_555 1_555
C16 C28 1_555 1_555
C16 C29 1_555 1_555
C17 C21 1_555 1_555
C23 C26 1_555 1_555
C23 C27 1_555 1_555
C28 C30 1_555 1_555
C31 C74 1_555 1_555
O9 C79 1_555 1_555
C35 C71 1_555 1_555
C36 C77 1_555 1_555
C37 C59 1_555 1_555
C41 C61 1_555 1_555
C46 C75 1_555 1_555
C47 C66 1_555 1_555
N10 C52 1_555 1_555
C51 N11 1_555 1_555
C54 C56 1_555 1_555
C54 C66 1_555 1_555
C55 C75 1_555 1_555
O12 C61 1_555 1_555
N12 C62 1_555 1_555
C59 C65 1_555 1_555
C64 C72 1_555 1_555
C67 C70 1_555 1_555
C68 C73 1_555 1_555
C69 C78 1_555 1_555
C81 C83 1_555 1_555
C81 C84 1_555 1_555
C85 C92 1_555 1_555
C86 C87 1_555 1_555
C89 C90 1_555 1_555
C89 C91 1_555 1_555
C95 C97 1_555 1_555
C95 C98 1_555 1_555
C99 C101 1_555 1_555
O25 C101 1_555 1_555
C103 C110 1_555 1_555
C107 C108 1_555 1_555
C112 C113 1_555 1_555
C118 C119 1_555 1_555

#END
