
#######################################################################
#
#                 Cambridge Crystallographic Data Centre
#                                CCDC 
#
#######################################################################
#
# If this CIF has been generated from an entry in the Cambridge 
# Structural Database, then it will include bibliographic, chemical, 
# crystal, experimental, refinement or atomic coordinate data resulting 
# from the CCDC's data processing and validation procedures.
#
#######################################################################

data_TURFAP
_symmetry_cell_setting           monoclinic
_symmetry_space_group_name_H-M   'P 21'
_symmetry_Int_Tables_number      4
_space_group_name_Hall           'P 2yb'
loop_
_symmetry_equiv_pos_site_id
_symmetry_equiv_pos_as_xyz
1 x,y,z
2 -x,1/2+y,-z
_cell_length_a                   10.2208(3)
_cell_length_b                   23.9660(9)
_cell_length_c                   11.4286(4)
_cell_angle_alpha                90
_cell_angle_beta                 91.7114(16)
_cell_angle_gamma                90
_cell_volume                     2798.21
loop_
_atom_site_label
_atom_site_type_symbol
_atom_site_fract_x
_atom_site_fract_y
_atom_site_fract_z
Co1 Co 0.99598(14) -0.33949(6) -0.41947(12)
Co2 Co 0.49338(14) -0.25839(6) -0.43809(12)
O1 O 0.3058(6) -0.2924(3) -0.4384(6)
O2 O 0.8080(6) -0.3059(3) -0.4306(5)
O3 O 0.1850(6) -0.3685(3) -0.4148(5)
O4 O 0.6825(6) -0.2295(3) -0.4365(5)
N1 N 0.9957(8) -0.3463(4) -0.2285(6)
N2 N 0.4927(7) -0.2512(3) -1.2486(6)
N3 N 0.4969(8) -0.2572(4) -0.6281(6)
C1 C 1.1066(10) -0.3398(5) 0.3275(7)
H1 H 1.1865 -0.3325 0.3692
N4 N 1.0006(7) -0.3450(4) 0.3899(7)
C2 C 0.3841(10) -0.2634(5) -1.1894(8)
H2 H 0.3070 -0.2741 -1.2321
C3 C 0.6041(9) -0.2634(5) -0.6883(8)
H3 H 0.6836 -0.2709 -0.6461
C4 C 1.1120(9) -0.3440(5) 0.2087(8)
H4 H 1.1923 -0.3400 0.1698
C5 C 0.6080(10) -0.2595(5) -0.8094(8)
H5 H 0.6877 -0.2645 -0.8487
C6 C 0.8833(9) -0.3374(5) -0.0491(8)
H6 H 0.8050 -0.3279 -0.0109
O5 O 0.5277(6) -0.3477(3) -0.4406(5)
H7 H 0.537(8) -0.349(4) -0.5169(19)
C7 C 0.9965(10) -0.3541(4) 0.1475(8)
O6 O 1.0250(6) -0.2493(3) -0.4070(6)
H8 H 1.077(5) -0.229(3) -0.361(5)
C8 C 0.2916(9) -0.3438(4) -0.4240(7)
N5 N 0.0881(8) 0.0790(4) -0.5745(7)
C9 C 0.9914(9) -0.3548(4) 0.0167(8)
C10 C 0.2147(9) 0.0719(4) -0.5971(8)
H9 H 0.2619 0.1024 -0.6283
C11 C 0.3810(9) -0.2609(5) -1.0678(8)
H10 H 0.3014 -0.2684 -1.0300
C12 C 0.8875(9) -0.3335(5) -0.1690(8)
H11 H 0.8114 -0.3215 -0.2116
C13 C 0.3860(9) -0.2458(4) -0.6897(7)
H12 H 0.3076 -0.2404 -0.6486
C14 C 0.8902(10) -0.3572(4) 0.3306(8)
H13 H 0.8128 -0.3627 0.3732
C15 C 0.4929(10) -0.2483(4) -0.8710(7)
C16 C 0.7903(9) -0.2541(5) -0.4339(7)
N6 N 0.4135(8) -0.1765(4) -0.4531(7)
C17 C 0.5994(9) -0.2357(4) -1.1848(9)
H14 H 0.6758 -0.2257 -1.2254
C18 C 0.6048(10) -0.2333(5) -1.0637(9)
H15 H 0.6830 -0.2221 -1.0231
C19 C 1.0993(11) -0.3714(5) -0.0460(9)
H16 H 1.1745 -0.3859 -0.0058
C20 C 0.3814(10) -0.2414(4) -0.8096(8)
H17 H 0.3007 -0.2337 -0.8497
C21 C 1.0974(10) -0.3667(5) -0.1667(9)
H18 H 1.1722 -0.3786 -0.2074
C22 C 0.4141(9) -0.3813(4) -0.4184(8)
H19 H 0.4051 -0.4102 -0.4812
C23 C 0.4920(9) -0.2477(5) -1.0012(8)
C24 C 0.2829(9) -0.0760(4) -0.5054(9)
C25 C 0.8828(9) -0.3623(5) 0.2107(8)
H20 H 0.8022 -0.3713 0.1715
C26 C 0.9127(9) -0.2162(5) -0.4288(8)
H21 H 0.9043 -0.1889 -0.3632
C27 C 0.2139(10) -0.0232(5) -0.5330(9)
C28 C 0.2795(10) 0.0223(5) -0.5771(10)
H22 H 0.3698 0.0193 -0.5936
C29 C 0.2356(11) -0.1137(5) -0.4244(10)
H23 H 0.1565 -0.1061 -0.3856
C30 C 0.4272(9) -0.4105(4) -0.3019(8)
C31 C 0.3996(9) -0.0905(5) -0.5593(9)
H24 H 0.4366 -0.0661 -0.6148
C32 C 0.0234(10) 0.0337(5) -0.5375(10)
H25 H -0.0681 0.0370 -0.5267
C33 C 0.5108(12) -0.4140(5) -0.1021(10)
H26 H 0.5676 -0.3993 -0.0425
C34 C 0.3515(10) -0.4572(5) -0.2782(11)
H27 H 0.2972 -0.4728 -0.3387
C35 C 0.0798(11) -0.0160(5) -0.5147(11)
H28 H 0.0292 -0.0461 -0.4864
C36 C 0.5089(9) -0.3895(4) -0.2137(9)
H29 H 0.5638 -0.3585 -0.2287
C37 C 0.9186(10) -0.1839(4) -0.5447(9)
C38 C 0.4601(9) -0.1402(4) -0.5312(8)
H30 H 0.5388 -0.1494 -0.5689
C39 C 0.9995(14) -0.2013(6) -0.6329(11)
H31 H 1.0611 -0.2302 -0.6177
C40 C 0.4328(12) -0.4586(5) -0.0771(11)
H32 H 0.4317 -0.4739 -0.0004
C41 C 0.3539(12) -0.4812(5) -0.1690(10)
H33 H 0.3021 -0.5133 -0.1551
C42 C 0.8381(11) -0.1390(5) -0.5627(11)
H34 H 0.7847 -0.1263 -0.5016
C43 C 0.8342(14) -0.1121(6) -0.6696(13)
H35 H 0.7790 -0.0807 -0.6819
C44 C 0.3046(11) -0.1621(5) -0.4007(10)
H36 H 0.2719 -0.1867 -0.3433
C45 C 0.9915(16) -0.1763(7) -0.7456(10)
H37 H 1.0399 -0.1904 -0.8090
C46 C 0.9111(19) -0.1313(9) -0.7584(17)
H38 H 0.9078 -0.1122 -0.8313
Co1_2 Co -0.00402(14) -0.33949(6) -0.41947(12)
Co1_3 Co 0.99598(14) -0.33949(6) 0.58053(12)
Co1A Co 0.00402(14) 0.16051(6) -0.58053(12)
Co2_2 Co 0.49338(14) -0.25839(6) -1.43809(12)
O3_2 O 1.1850(6) -0.3685(3) -0.4148(5)
N2_2 N 0.4927(7) -0.2512(3) -0.2486(6)
N4_2 N 1.0006(7) -0.3450(4) -0.6101(7)
N5A N 0.9119(8) -0.4210(4) -0.4255(7)
O7 O 1.0613(8) -0.2176(4) -0.0153(7)
N7 N 1.0261(9) -0.2125(4) -0.1188(8)
O8 O 1.1087(7) -0.2162(4) -0.1987(7)
O9 O 0.9100(7) -0.2045(4) -0.1446(8)
O10 O 0.4027(7) -0.3781(4) -0.7029(7)
O11 O 0.6000(6) -0.3929(3) -0.6353(6)
N8 N 0.5207(9) -0.3901(4) -0.7207(8)
O12 O 0.5549(8) -0.3999(4) -0.8219(7)
C47 C 0.1436(19) -0.0151(10) -0.9293(18)
H39 H 0.0589 -0.0351 -0.9357
H40 H 0.1296 0.0198 -0.8851
C48 C 0.241(2) -0.0506(9) -0.8635(16)
H41 H 0.2018 -0.0633 -0.7898
H42 H 0.3188 -0.0278 -0.8427
C49 C 0.187(2) -0.0012(8) -1.0474(19)
H43 H 0.2631 0.0242 -1.0402
H44 H 0.1157 0.0191 -1.0896
C50 C 0.224(3) -0.0504(13) -1.1184(18)
H45 H 0.2611 -0.0376 -1.1928
H46 H 0.1454 -0.0730 -1.1373
C51 C 0.283(2) -0.1008(9) -0.932(2)
H47 H 0.3531 -0.1204 -0.8873
H48 H 0.2076 -0.1268 -0.9408
C52 C 0.330(3) -0.0878(12) -1.049(3)
H49 H 0.3447 -0.1228 -1.0923
H50 H 0.4138 -0.0674 -1.0414
C53 C 0.7447(16) -0.0032(7) -0.3433(15)
H51 H 0.7327 0.0348 -0.3760
H52 H 0.7839 -0.0266 -0.4044
C54 C 0.8359(19) -0.0003(8) -0.242(2)
H53 H 0.8028 0.0266 -0.1839
H54 H 0.9225 0.0129 -0.2668
C55 C 0.6167(18) -0.0260(8) -0.3159(18)
H55 H 0.5622 -0.0294 -0.3886
H56 H 0.5717 -0.0004 -0.2622
C56 C 0.718(2) -0.0817(7) -0.1520(15)
H57 H 0.7283 -0.1195 -0.1181
H58 H 0.6777 -0.0574 -0.0929
C57 C 0.6330(18) -0.0842(7) -0.2575(15)
H59 H 0.5459 -0.0986 -0.2367
H60 H 0.6710 -0.1105 -0.3140
C58 C 0.850(2) -0.0586(8) -0.185(2)
H61 H 0.8919 -0.0844 -0.2398
H62 H 0.9074 -0.0559 -0.1134
loop_
_geom_bond_atom_site_label_1
_geom_bond_atom_site_label_2
_geom_bond_site_symmetry_1
_geom_bond_site_symmetry_2
Co1 O2 1_555 1_555
Co2 O1 1_555 1_555
O1 C8 1_555 1_555
O2 C16 1_555 1_555
O3 C8 1_555 1_555
O4 Co2 1_555 1_555
N1 Co1 1_555 1_555
N2 C2 1_555 1_555
N3 Co2 1_555 1_555
C1 H1 1_555 1_555
N4 C1 1_555 1_555
C2 H2 1_555 1_555
C3 N3 1_555 1_555
H3 C3 1_555 1_555
C4 C1 1_555 1_555
H4 C4 1_555 1_555
C5 C3 1_555 1_555
H5 C5 1_555 1_555
C6 H6 1_555 1_555
O5 Co2 1_555 1_555
H7 O5 1_555 1_555
C7 C4 1_555 1_555
O6 Co1 1_555 1_555
H8 O6 1_555 1_555
C8 C22 1_555 1_555
N5 C10 1_555 1_555
C9 C6 1_555 1_555
C10 H9 1_555 1_555
C11 C2 1_555 1_555
H10 C11 1_555 1_555
C12 N1 1_555 1_555
H11 C12 1_555 1_555
C13 N3 1_555 1_555
H12 C13 1_555 1_555
C14 N4 1_555 1_555
H13 C14 1_555 1_555
C15 C5 1_555 1_555
C16 O4 1_555 1_555
N6 Co2 1_555 1_555
C17 N2 1_555 1_555
H14 C17 1_555 1_555
C18 C17 1_555 1_555
H15 C18 1_555 1_555
C19 C9 1_555 1_555
H16 C19 1_555 1_555
C20 C13 1_555 1_555
H17 C20 1_555 1_555
C21 N1 1_555 1_555
H18 C21 1_555 1_555
C22 O5 1_555 1_555
H19 C22 1_555 1_555
C23 C11 1_555 1_555
C24 C27 1_555 1_555
C25 C7 1_555 1_555
H20 C25 1_555 1_555
C26 O6 1_555 1_555
H21 C26 1_555 1_555
C27 C28 1_555 1_555
C28 C10 1_555 1_555
H22 C28 1_555 1_555
C29 C24 1_555 1_555
H23 C29 1_555 1_555
C30 C22 1_555 1_555
C31 C24 1_555 1_555
H24 C31 1_555 1_555
C32 N5 1_555 1_555
H25 C32 1_555 1_555
C33 H26 1_555 1_555
C34 C30 1_555 1_555
H27 C34 1_555 1_555
C35 C27 1_555 1_555
H28 C35 1_555 1_555
C36 C30 1_555 1_555
H29 C36 1_555 1_555
C37 C26 1_555 1_555
C38 N6 1_555 1_555
H30 C38 1_555 1_555
C39 C37 1_555 1_555
H31 C39 1_555 1_555
C40 C33 1_555 1_555
H32 C40 1_555 1_555
C41 C34 1_555 1_555
H33 C41 1_555 1_555
C42 C37 1_555 1_555
H34 C42 1_555 1_555
C43 C42 1_555 1_555
H35 C43 1_555 1_555
C44 N6 1_555 1_555
H36 C44 1_555 1_555
C45 C39 1_555 1_555
H37 C45 1_555 1_555
C46 C43 1_555 1_555
H38 C46 1_555 1_555
O7 N7 1_555 1_555
N7 O8 1_555 1_555
O9 N7 1_555 1_555
O10 N8 1_555 1_555
O11 N8 1_555 1_555
N8 O12 1_555 1_555
C47 H39 1_555 1_555
H40 C47 1_555 1_555
C48 C47 1_555 1_555
H41 C48 1_555 1_555
H42 C48 1_555 1_555
C49 C47 1_555 1_555
H43 C49 1_555 1_555
H44 C49 1_555 1_555
C50 C49 1_555 1_555
H45 C50 1_555 1_555
H46 C50 1_555 1_555
C51 C48 1_555 1_555
H47 C51 1_555 1_555
H48 C51 1_555 1_555
C52 C50 1_555 1_555
H49 C52 1_555 1_555
H50 C52 1_555 1_555
C53 H51 1_555 1_555
H52 C53 1_555 1_555
C54 C53 1_555 1_555
H53 C54 1_555 1_555
H54 C54 1_555 1_555
C55 C53 1_555 1_555
H55 C55 1_555 1_555
H56 C55 1_555 1_555
C56 H57 1_555 1_555
H58 C56 1_555 1_555
C57 C55 1_555 1_555
H59 C57 1_555 1_555
H60 C57 1_555 1_555
C58 C54 1_555 1_555
H61 C58 1_555 1_555
H62 C58 1_555 1_555
Co1_2 O3 1_555 1_555
Co1_3 N4 1_555 1_555
Co1A N5 1_555 1_555
Co2_2 N2 1_555 1_555
O3_2 Co1 1_555 1_555
N2_2 Co2 1_555 1_555
N4_2 Co1 1_555 1_555
N5A Co1 1_555 1_555
C6 C12 1_555 1_555
C7 C9 1_555 1_555
C14 C25 1_555 1_555
C15 C20 1_555 1_555
C15 C23 1_555 1_555
C16 C26 1_555 1_555
C18 C23 1_555 1_555
C19 C21 1_555 1_555
C29 C44 1_555 1_555
C31 C38 1_555 1_555
C32 C35 1_555 1_555
C33 C36 1_555 1_555
C40 C41 1_555 1_555
C45 C46 1_555 1_555
C51 C52 1_555 1_555
C56 C57 1_555 1_555
C56 C58 1_555 1_555

#END
