
#######################################################################
#
#                 Cambridge Crystallographic Data Centre
#                                CCDC 
#
#######################################################################
#
# If this CIF has been generated from an entry in the Cambridge 
# Structural Database, then it will include bibliographic, chemical, 
# crystal, experimental, refinement or atomic coordinate data resulting 
# from the CCDC's data processing and validation procedures.
#
#######################################################################

data_TURFIX
_symmetry_cell_setting           cubic
_symmetry_space_group_name_H-M   'F m -3 m'
_symmetry_Int_Tables_number      225
_space_group_name_Hall           '-F 4 2 3'
loop_
_symmetry_equiv_pos_site_id
_symmetry_equiv_pos_as_xyz
1 x,y,z
2 -x,-y,z
3 -x,y,-z
4 x,-y,-z
5 z,x,y
6 z,-x,-y
7 -z,-x,y
8 -z,x,-y
9 y,z,x
10 -y,z,-x
11 y,-z,-x
12 -y,-z,x
13 y,x,-z
14 -y,-x,-z
15 y,-x,z
16 -y,x,z
17 x,z,-y
18 -x,z,y
19 -x,-z,-y
20 x,-z,y
21 z,y,-x
22 z,-y,x
23 -z,y,x
24 -z,-y,-x
25 x,1/2+y,1/2+z
26 -x,1/2-y,1/2+z
27 -x,1/2+y,1/2-z
28 x,1/2-y,1/2-z
29 z,1/2+x,1/2+y
30 z,1/2-x,1/2-y
31 -z,1/2-x,1/2+y
32 -z,1/2+x,1/2-y
33 y,1/2+z,1/2+x
34 -y,1/2+z,1/2-x
35 y,1/2-z,1/2-x
36 -y,1/2-z,1/2+x
37 y,1/2+x,1/2-z
38 -y,1/2-x,1/2-z
39 y,1/2-x,1/2+z
40 -y,1/2+x,1/2+z
41 x,1/2+z,1/2-y
42 -x,1/2+z,1/2+y
43 -x,1/2-z,1/2-y
44 x,1/2-z,1/2+y
45 z,1/2+y,1/2-x
46 z,1/2-y,1/2+x
47 -z,1/2+y,1/2+x
48 -z,1/2-y,1/2-x
49 1/2+x,y,1/2+z
50 1/2-x,-y,1/2+z
51 1/2-x,y,1/2-z
52 1/2+x,-y,1/2-z
53 1/2+z,x,1/2+y
54 1/2+z,-x,1/2-y
55 1/2-z,-x,1/2+y
56 1/2-z,x,1/2-y
57 1/2+y,z,1/2+x
58 1/2-y,z,1/2-x
59 1/2+y,-z,1/2-x
60 1/2-y,-z,1/2+x
61 1/2+y,x,1/2-z
62 1/2-y,-x,1/2-z
63 1/2+y,-x,1/2+z
64 1/2-y,x,1/2+z
65 1/2+x,z,1/2-y
66 1/2-x,z,1/2+y
67 1/2-x,-z,1/2-y
68 1/2+x,-z,1/2+y
69 1/2+z,y,1/2-x
70 1/2+z,-y,1/2+x
71 1/2-z,y,1/2+x
72 1/2-z,-y,1/2-x
73 1/2+x,1/2+y,z
74 1/2-x,1/2-y,z
75 1/2-x,1/2+y,-z
76 1/2+x,1/2-y,-z
77 1/2+z,1/2+x,y
78 1/2+z,1/2-x,-y
79 1/2-z,1/2-x,y
80 1/2-z,1/2+x,-y
81 1/2+y,1/2+z,x
82 1/2-y,1/2+z,-x
83 1/2+y,1/2-z,-x
84 1/2-y,1/2-z,x
85 1/2+y,1/2+x,-z
86 1/2-y,1/2-x,-z
87 1/2+y,1/2-x,z
88 1/2-y,1/2+x,z
89 1/2+x,1/2+z,-y
90 1/2-x,1/2+z,y
91 1/2-x,1/2-z,-y
92 1/2+x,1/2-z,y
93 1/2+z,1/2+y,-x
94 1/2+z,1/2-y,x
95 1/2-z,1/2+y,x
96 1/2-z,1/2-y,-x
97 -x,-y,-z
98 x,y,-z
99 x,-y,z
100 -x,y,z
101 -z,-x,-y
102 -z,x,y
103 z,x,-y
104 z,-x,y
105 -y,-z,-x
106 y,-z,x
107 -y,z,x
108 y,z,-x
109 -y,-x,z
110 y,x,z
111 -y,x,-z
112 y,-x,-z
113 -x,-z,y
114 x,-z,-y
115 x,z,y
116 -x,z,-y
117 -z,-y,x
118 -z,y,-x
119 z,-y,-x
120 z,y,x
121 -x,1/2-y,1/2-z
122 x,1/2+y,1/2-z
123 x,1/2-y,1/2+z
124 -x,1/2+y,1/2+z
125 -z,1/2-x,1/2-y
126 -z,1/2+x,1/2+y
127 z,1/2+x,1/2-y
128 z,1/2-x,1/2+y
129 -y,1/2-z,1/2-x
130 y,1/2-z,1/2+x
131 -y,1/2+z,1/2+x
132 y,1/2+z,1/2-x
133 -y,1/2-x,1/2+z
134 y,1/2+x,1/2+z
135 -y,1/2+x,1/2-z
136 y,1/2-x,1/2-z
137 -x,1/2-z,1/2+y
138 x,1/2-z,1/2-y
139 x,1/2+z,1/2+y
140 -x,1/2+z,1/2-y
141 -z,1/2-y,1/2+x
142 -z,1/2+y,1/2-x
143 z,1/2-y,1/2-x
144 z,1/2+y,1/2+x
145 1/2-x,-y,1/2-z
146 1/2+x,y,1/2-z
147 1/2+x,-y,1/2+z
148 1/2-x,y,1/2+z
149 1/2-z,-x,1/2-y
150 1/2-z,x,1/2+y
151 1/2+z,x,1/2-y
152 1/2+z,-x,1/2+y
153 1/2-y,-z,1/2-x
154 1/2+y,-z,1/2+x
155 1/2-y,z,1/2+x
156 1/2+y,z,1/2-x
157 1/2-y,-x,1/2+z
158 1/2+y,x,1/2+z
159 1/2-y,x,1/2-z
160 1/2+y,-x,1/2-z
161 1/2-x,-z,1/2+y
162 1/2+x,-z,1/2-y
163 1/2+x,z,1/2+y
164 1/2-x,z,1/2-y
165 1/2-z,-y,1/2+x
166 1/2-z,y,1/2-x
167 1/2+z,-y,1/2-x
168 1/2+z,y,1/2+x
169 1/2-x,1/2-y,-z
170 1/2+x,1/2+y,-z
171 1/2+x,1/2-y,z
172 1/2-x,1/2+y,z
173 1/2-z,1/2-x,-y
174 1/2-z,1/2+x,y
175 1/2+z,1/2+x,-y
176 1/2+z,1/2-x,y
177 1/2-y,1/2-z,-x
178 1/2+y,1/2-z,x
179 1/2-y,1/2+z,x
180 1/2+y,1/2+z,-x
181 1/2-y,1/2-x,z
182 1/2+y,1/2+x,z
183 1/2-y,1/2+x,-z
184 1/2+y,1/2-x,-z
185 1/2-x,1/2-z,y
186 1/2+x,1/2-z,-y
187 1/2+x,1/2+z,y
188 1/2-x,1/2+z,-y
189 1/2-z,1/2-y,x
190 1/2-z,1/2+y,-x
191 1/2+z,1/2-y,-x
192 1/2+z,1/2+y,x
_cell_length_a                   46.098(8)
_cell_length_b                   46.098(8)
_cell_length_c                   46.098(8)
_cell_angle_alpha                90
_cell_angle_beta                 90
_cell_angle_gamma                90
_cell_volume                     97959.4
loop_
_atom_site_label
_atom_site_type_symbol
_atom_site_fract_x
_atom_site_fract_y
_atom_site_fract_z
Zr1 Zr 0.0000 1.0000 0.05377(2)
O1 O 0.02627(14) 1.02627(14) 0.02627(14)
O2 O 0.0000 0.95860(15) 0.07820(13)
C1 C 0.0000 0.9326(4) 0.0674(4)
C2 C 0.0000 0.9109(3) 0.0891(3)
C3 C 0.0000 0.9204(4) 0.1184(4)
C4 C 0.0000 0.8687(4) 0.1313(4)
C5 C 0.0000 0.8983(5) 0.1396(4)
C6 C 0.0000 0.7631(5) 0.2369(5)
C7 C 0.0000 0.8140(5) 0.2237(6)
C8 C 0.0000 0.7925(5) 0.2452(5)
C9 C 0.0000 0.8209(9) 0.1645(11)
C10 C 0.0000 0.8058(5) 0.1942(5)
C11 C 0.0000 0.8451(5) 0.1549(5)
O2R O 0.0000 0.92180(13) 0.04140(15)
C3R C 0.0000 0.8816(4) 0.0796(4)
C5R C 0.0000 0.8604(4) 0.1017(5)
C7R C 0.0000 0.7763(6) 0.1860(5)
C8R C 0.0000 0.7548(5) 0.2075(5)
C9R C 0.0000 0.8355(11) 0.1791(9)
O2AA O 0.0000 0.54140(15) 0.42180(13)
C1AA C 0.0000 0.5674(4) 0.4326(4)
C2AA C 0.0000 0.5891(3) 0.4109(3)
C3AA C 0.0000 0.5796(4) 0.3816(4)
C4AA C 0.0000 0.6313(4) 0.3687(4)
C5AA C 0.0000 0.6017(5) 0.3604(4)
C6AA C 0.0000 0.7369(5) 0.2631(5)
C7AA C 0.0000 0.6860(5) 0.2763(6)
C8AA C 0.0000 0.7075(5) 0.2548(5)
C9AA C 0.0000 0.6791(9) 0.3355(11)
C10AA C 0.0000 0.6942(5) 0.3058(5)
C11AA C 0.0000 0.6549(5) 0.3451(5)
O2OA O 0.0000 0.57820(13) 0.45860(15)
C3OA C 0.0000 0.6184(4) 0.4204(4)
C5OA C 0.0000 0.6396(4) 0.3983(5)
C7OA C 0.0000 0.7237(6) 0.3140(5)
C8OA C 0.0000 0.7452(5) 0.2925(5)
C9OA C 0.0000 0.6645(11) 0.3209(9)
O1A O -0.02627(14) 0.97373(14) 0.02627(14)
O2A O 0.0000 1.04140(15) 0.07820(13)
C1A C 0.0000 1.0674(4) 0.0674(4)
C2A C 0.0000 1.0891(3) 0.0891(3)
C3A C 0.0000 1.0796(4) 0.1184(4)
C4A C 0.0000 1.1313(4) 0.1313(4)
C5A C 0.0000 1.1017(5) 0.1396(4)
C6A C 0.0000 1.2369(5) 0.2369(5)
C7A C 0.0000 1.1860(5) 0.2237(6)
C8A C 0.0000 1.2075(5) 0.2452(5)
C9A C 0.0000 1.1791(9) 0.1645(11)
C10A C 0.0000 1.1942(5) 0.1942(5)
C11A C 0.0000 1.1549(5) 0.1549(5)
O2P O 0.0000 1.07820(13) 0.04140(15)
C3P C 0.0000 1.1184(4) 0.0796(4)
C5P C 0.0000 1.1396(4) 0.1017(5)
C7P C 0.0000 1.2237(6) 0.1860(5)
C8P C 0.0000 1.2452(5) 0.2075(5)
C9P C 0.0000 1.1645(11) 0.1791(9)
O2Z O 0.0000 1.45860(15) 0.42180(13)
C1Z C 0.0000 1.4326(4) 0.4326(4)
C2Z C 0.0000 1.4109(3) 0.4109(3)
C3Z C 0.0000 1.4204(4) 0.3816(4)
C4Z C 0.0000 1.3687(4) 0.3687(4)
C5Z C 0.0000 1.3983(5) 0.3604(4)
C6Z C 0.0000 1.2631(5) 0.2631(5)
C7Z C 0.0000 1.3140(5) 0.2763(6)
C8Z C 0.0000 1.2925(5) 0.2548(5)
C9Z C 0.0000 1.3209(9) 0.3355(11)
C10Z C 0.0000 1.3058(5) 0.3058(5)
C11Z C 0.0000 1.3451(5) 0.3451(5)
O2QA O 0.0000 1.42180(13) 0.45860(15)
C3QA C 0.0000 1.3816(4) 0.4204(4)
C5QA C 0.0000 1.3604(4) 0.3983(5)
C7QA C 0.0000 1.2763(6) 0.3140(5)
C8QA C 0.0000 1.2548(5) 0.2925(5)
C9QA C 0.0000 1.3355(11) 0.3209(9)
Zr1D Zr 0.05377(2) 1.0000 0.0000
O2D O 0.07820(13) 1.0000 -0.04140(15)
C1D C 0.0674(4) 1.0000 -0.0674(4)
C2D C 0.0891(3) 1.0000 -0.0891(3)
C3D C 0.1184(4) 1.0000 -0.0796(4)
C4D C 0.1313(4) 1.0000 -0.1313(4)
C5D C 0.1396(4) 1.0000 -0.1017(5)
C6D C 0.2369(5) 1.0000 -0.2369(5)
C7D C 0.2237(6) 1.0000 -0.1860(5)
C8D C 0.2452(5) 1.0000 -0.2075(5)
C9D C 0.1645(11) 1.0000 -0.1791(9)
C10D C 0.1942(5) 1.0000 -0.1942(5)
C11D C 0.1549(5) 1.0000 -0.1549(5)
O2M O 0.04140(15) 1.0000 -0.07820(13)
C3M C 0.0796(4) 1.0000 -0.1184(4)
C5M C 0.1017(5) 1.0000 -0.1396(4)
C7M C 0.1860(5) 1.0000 -0.2237(6)
C8M C 0.2075(5) 1.0000 -0.2452(5)
C9M C 0.1791(9) 1.0000 -0.1645(11)
O2CB O 0.42180(13) 1.0000 -0.45860(15)
C1CB C 0.4326(4) 1.0000 -0.4326(4)
C2CB C 0.4109(3) 1.0000 -0.4109(3)
C3CB C 0.3816(4) 1.0000 -0.4204(4)
C4CB C 0.3687(4) 1.0000 -0.3687(4)
C5CB C 0.3604(4) 1.0000 -0.3983(5)
C6CB C 0.2631(5) 1.0000 -0.2631(5)
C7CB C 0.2763(6) 1.0000 -0.3140(5)
C8CB C 0.2548(5) 1.0000 -0.2925(5)
C9CB C 0.3355(11) 1.0000 -0.3209(9)
C10CB C 0.3058(5) 1.0000 -0.3058(5)
C11CB C 0.3451(5) 1.0000 -0.3451(5)
O2JB O 0.45860(15) 1.0000 -0.42180(13)
C3JB C 0.4204(4) 1.0000 -0.3816(4)
C5JB C 0.3983(5) 1.0000 -0.3604(4)
C7JB C 0.3140(5) 1.0000 -0.2763(6)
C8JB C 0.2925(5) 1.0000 -0.2548(5)
C9JB C 0.3209(9) 1.0000 -0.3355(11)
O1C O 0.02627(14) 0.97373(14) -0.02627(14)
Zr1F Zr -0.05377(2) 1.0000 0.0000
O1B O -0.02627(14) 1.02627(14) -0.02627(14)
Zr1B Zr 0.0000 1.0000 -0.05377(2)
Zr1H Zr 0.0000 1.05377(2) 0.0000
Zr1J Zr 0.0000 0.94623(2) 0.0000
Zr1Z Zr 0.0000 0.5000 0.44623(2)
Zr1Z_2 Zr 0.0000 1.5000 0.44623(2)
Zr1FA Zr 0.0000 0.55377(2) 0.5000
Zr1HA Zr 0.0000 1.44623(2) 0.5000
Zr1VA Zr 0.5000 1.0000 -0.44623(2)
Zr1BB Zr 0.44623(2) 1.0000 -0.5000
O1L O 0.02627(14) 1.02627(14) -0.02627(14)
O1M O -0.02627(14) 0.97373(14) -0.02627(14)
O1N O 0.02627(14) 0.97373(14) 0.02627(14)
O1O O -0.02627(14) 1.02627(14) 0.02627(14)
O2E O 0.07820(13) 1.0000 0.04140(15)
O2F O -0.07820(13) 1.0000 -0.04140(15)
O2G O -0.07820(13) 1.0000 0.04140(15)
O2N O -0.04140(15) 1.0000 0.07820(13)
O2O O 0.04140(15) 1.0000 0.07820(13)
O2T O 0.07820(13) 0.95860(15) 0.0000
O2U O 0.07820(13) 1.04140(15) 0.0000
O2V O -0.07820(13) 0.95860(15) 0.0000
O2W O -0.07820(13) 1.04140(15) 0.0000
loop_
_geom_bond_atom_site_label_1
_geom_bond_atom_site_label_2
_geom_bond_site_symmetry_1
_geom_bond_site_symmetry_2
Zr1 O1 1_555 1_555
O1 Zr1D 1_555 1_555
O2 Zr1 1_555 1_555
C1 O2 1_555 1_555
C2 C1 1_555 1_555
C3 C2 1_555 1_555
C4 C5 1_555 1_555
C5 C3 1_555 1_555
C6 C8 1_555 1_555
C7 C8 1_555 1_555
C9 C10 1_555 1_555
C10 C7 1_555 1_555
C11 C4 1_555 1_555
O2R C1 1_555 1_555
C3R C2 1_555 1_555
C5R C4 1_555 1_555
C7R C10 1_555 1_555
C8R C6 1_555 1_555
C9R C9 1_555 1_555
O2AA C1AA 1_555 1_555
C1AA C2AA 1_555 1_555
C2AA C3AA 1_555 1_555
C3AA C5AA 1_555 1_555
C4AA C5AA 1_555 1_555
C6AA C6 1_555 1_555
C7AA C8AA 1_555 1_555
C8AA C6AA 1_555 1_555
C9AA C10AA 1_555 1_555
C10AA C7AA 1_555 1_555
C11AA C4AA 1_555 1_555
O2OA C1AA 1_555 1_555
C3OA C2AA 1_555 1_555
C5OA C4AA 1_555 1_555
C7OA C10AA 1_555 1_555
C8OA C6AA 1_555 1_555
C9OA C9AA 1_555 1_555
O1A Zr1 1_555 1_555
O2A Zr1 1_555 1_555
C1A O2A 1_555 1_555
C2A C1A 1_555 1_555
C3A C2A 1_555 1_555
C4A C5A 1_555 1_555
C5A C3A 1_555 1_555
C6A C8A 1_555 1_555
C7A C8A 1_555 1_555
C9A C10A 1_555 1_555
C10A C7A 1_555 1_555
C11A C4A 1_555 1_555
O2P C1A 1_555 1_555
C3P C2A 1_555 1_555
C5P C4A 1_555 1_555
C7P C10A 1_555 1_555
C8P C6A 1_555 1_555
C9P C9A 1_555 1_555
O2Z C1Z 1_555 1_555
C1Z C2Z 1_555 1_555
C2Z C3Z 1_555 1_555
C3Z C5Z 1_555 1_555
C4Z C5Z 1_555 1_555
C6Z C6A 1_555 1_555
C7Z C8Z 1_555 1_555
C8Z C6Z 1_555 1_555
C9Z C10Z 1_555 1_555
C10Z C7Z 1_555 1_555
C11Z C4Z 1_555 1_555
O2QA C1Z 1_555 1_555
C3QA C2Z 1_555 1_555
C5QA C4Z 1_555 1_555
C7QA C10Z 1_555 1_555
C8QA C6Z 1_555 1_555
C9QA C9Z 1_555 1_555
Zr1D O2D 1_555 1_555
O2D C1D 1_555 1_555
C1D C2D 1_555 1_555
C2D C3D 1_555 1_555
C3D C5D 1_555 1_555
C4D C5D 1_555 1_555
C6D C8D 1_555 1_555
C7D C8D 1_555 1_555
C9D C10D 1_555 1_555
C10D C7D 1_555 1_555
C11D C4D 1_555 1_555
O2M C1D 1_555 1_555
C3M C2D 1_555 1_555
C5M C4D 1_555 1_555
C7M C10D 1_555 1_555
C8M C6D 1_555 1_555
C9M C9D 1_555 1_555
O2CB C1CB 1_555 1_555
C1CB C2CB 1_555 1_555
C2CB C3CB 1_555 1_555
C3CB C5CB 1_555 1_555
C4CB C5CB 1_555 1_555
C6CB C6D 1_555 1_555
C7CB C8CB 1_555 1_555
C8CB C6CB 1_555 1_555
C9CB C10CB 1_555 1_555
C10CB C7CB 1_555 1_555
C11CB C4CB 1_555 1_555
O2JB C1CB 1_555 1_555
C3JB C2CB 1_555 1_555
C5JB C4CB 1_555 1_555
C7JB C10CB 1_555 1_555
C8JB C6CB 1_555 1_555
C9JB C9CB 1_555 1_555
O1C Zr1D 1_555 1_555
Zr1F O1A 1_555 1_555
O1B Zr1F 1_555 1_555
Zr1B O2M 1_555 1_555
Zr1H O1 1_555 1_555
Zr1J O2R 1_555 1_555
Zr1Z O2AA 1_555 1_555
Zr1Z_2 O2Z 1_555 1_555
Zr1FA O2OA 1_555 1_555
Zr1HA O2QA 1_555 1_555
Zr1VA O2JB 1_555 1_555
Zr1BB O2CB 1_555 1_555
O1L Zr1D 1_555 1_555
O1M Zr1F 1_555 1_555
O1N Zr1 1_555 1_555
O1O Zr1 1_555 1_555
O2E Zr1D 1_555 1_555
O2F Zr1F 1_555 1_555
O2G Zr1F 1_555 1_555
O2N Zr1 1_555 1_555
O2O Zr1 1_555 1_555
O2T Zr1D 1_555 1_555
O2U Zr1D 1_555 1_555
O2V Zr1F 1_555 1_555
O2W Zr1F 1_555 1_555
C9 C11 1_555 1_555
C10 C9R 1_555 1_555
C11 C9R 1_555 1_555
C3R C5R 1_555 1_555
C7R C8R 1_555 1_555
C9AA C11AA 1_555 1_555
C10AA C9OA 1_555 1_555
C11AA C9OA 1_555 1_555
C3OA C5OA 1_555 1_555
C7OA C8OA 1_555 1_555
O1A Zr1J 1_555 1_555
C9A C11A 1_555 1_555
C10A C9P 1_555 1_555
C11A C9P 1_555 1_555
O2P Zr1H 1_555 1_555
C3P C5P 1_555 1_555
C7P C8P 1_555 1_555
C9Z C11Z 1_555 1_555
C10Z C9QA 1_555 1_555
C11Z C9QA 1_555 1_555
C3QA C5QA 1_555 1_555
C7QA C8QA 1_555 1_555
Zr1D O1N 1_555 1_555
C9D C11D 1_555 1_555
C10D C9M 1_555 1_555
C11D C9M 1_555 1_555
C3M C5M 1_555 1_555
C7M C8M 1_555 1_555
C9CB C11CB 1_555 1_555
C10CB C9JB 1_555 1_555
C11CB C9JB 1_555 1_555
C3JB C5JB 1_555 1_555
C7JB C8JB 1_555 1_555
O1C Zr1B 1_555 1_555
O1C Zr1J 1_555 1_555
Zr1F O1O 1_555 1_555
O1B Zr1B 1_555 1_555
O1B Zr1H 1_555 1_555
Zr1B O1L 1_555 1_555
Zr1B O1M 1_555 1_555
Zr1H O1L 1_555 1_555
Zr1H O1O 1_555 1_555
Zr1J O1M 1_555 1_555
Zr1J O1N 1_555 1_555

#END
