
#######################################################################
#
#                 Cambridge Crystallographic Data Centre
#                                CCDC 
#
#######################################################################
#
# If this CIF has been generated from an entry in the Cambridge 
# Structural Database, then it will include bibliographic, chemical, 
# crystal, experimental, refinement or atomic coordinate data resulting 
# from the CCDC's data processing and validation procedures.
#
#######################################################################

data_TURGAP
_symmetry_cell_setting           triclinic
_symmetry_space_group_name_H-M   'P -1'
_symmetry_Int_Tables_number      2
_space_group_name_Hall           '-P 1'
loop_
_symmetry_equiv_pos_site_id
_symmetry_equiv_pos_as_xyz
1 x,y,z
2 -x,-y,-z
_cell_length_a                   9.7810(1)
_cell_length_b                   11.2120(1)
_cell_length_c                   11.9373(2)
_cell_angle_alpha                63.140(5)
_cell_angle_beta                 82.711(5)
_cell_angle_gamma                70.578(5)
_cell_volume                     1100.98
loop_
_atom_site_label
_atom_site_type_symbol
_atom_site_fract_x
_atom_site_fract_y
_atom_site_fract_z
Pb1 Pb 0.16763(1) 0.30396(1) 0.77330(1)
O1 O 0.3147(3) 0.1305(2) 0.9731(2)
N1 N 0.4041(3) 0.3104(2) 0.6664(2)
C1 C 0.4415(4) 0.2541(3) 0.5845(3)
C2 C 0.5680(4) 0.2500(3) 0.5206(3)
C3 C 0.6598(4) 0.3080(3) 0.5401(3)
C4 C 0.6263(3) 0.3666(3) 0.6235(3)
C5 C 0.4960(3) 0.3658(2) 0.6867(2)
N2 N 0.4531(3) 0.4252(2) 0.7712(2)
C6 C 0.5461(4) 0.4811(3) 0.8068(3)
N3 N 0.3210(3) 0.4279(2) 0.8201(2)
C7 C 0.2720(3) 0.4911(2) 0.8925(2)
C8 C 0.1309(3) 0.4929(2) 0.9477(2)
C9 C 0.0749(3) 0.5693(2) 1.0193(2)
N4 N 0.0538(3) 0.4253(2) 0.9289(2)
S1 S -0.06374(8) 0.63991(6) 0.57394(6)
O2 O 0.0861(3) 0.5631(2) 0.6195(2)
O3 O -0.1673(3) 0.5733(2) 0.6486(2)
O4 O -0.0812(3) 0.6968(2) 0.4409(2)
C10 C -0.0985(4) 0.7966(3) 0.5994(3)
F1 F -0.2284(3) 0.8853(2) 0.5559(2)
F2 F -0.0027(3) 0.8623(2) 0.5405(2)
F3 F -0.0897(3) 0.7612(2) 0.7216(2)
S2 S 0.35840(9) -0.12030(6) 0.86560(7)
O5 O 0.3079(3) -0.2310(2) 0.8760(2)
O6 O 0.4163(3) -0.1423(2) 0.9817(2)
O7 O 0.2657(3) 0.0209(2) 0.7947(2)
C11 C 0.5192(4) -0.1348(3) 0.7712(3)
F4 F 0.6144(3) -0.2628(2) 0.8228(2)
F5 F 0.4856(3) -0.1057(2) 0.6555(2)
F6 F 0.5867(2) -0.0443(2) 0.7617(2)
H1 H 0.3767 0.2150 0.5702
H2 H 0.5913 0.2080 0.4643
H3 H 0.7476 0.3080 0.4957
H4 H 0.6903 0.4065 0.6377
H5 H 0.6347 0.4708 0.7637
H6 H 0.4987 0.5780 0.7850
H7 H 0.5657 0.4312 0.8948
H8 H 0.3287 0.5359 0.9090
H9 H 0.1310 0.6180 1.0306
Pb1A Pb -0.16763(1) 0.69604(1) 1.22670(1)
Pb1A_2 Pb -0.16763(1) 0.69604(1) 0.22670(1)
O1A O -0.3147(3) 0.8695(2) 1.0269(2)
N1A N -0.4041(3) 0.6896(2) 1.3336(2)
C1A C -0.4415(4) 0.7459(3) 1.4155(3)
C2A C -0.5680(4) 0.7500(3) 1.4794(3)
C3A C -0.6598(4) 0.6920(3) 1.4599(3)
C4A C -0.6263(3) 0.6334(3) 1.3765(3)
C5A C -0.4960(3) 0.6342(2) 1.3133(2)
N2A N -0.4531(3) 0.5748(2) 1.2288(2)
C6A C -0.5461(4) 0.5189(3) 1.1932(3)
N3A N -0.3210(3) 0.5721(2) 1.1799(2)
C7A C -0.2720(3) 0.5089(2) 1.1075(2)
C8A C -0.1309(3) 0.5071(2) 1.0523(2)
C9A C -0.0749(3) 0.4307(2) 0.9807(2)
N4A N -0.0538(3) 0.5747(2) 1.0711(2)
S1A S 0.06374(8) 0.36009(6) 0.42606(6)
O2A O -0.0861(3) 0.4369(2) 0.3805(2)
O2A_2 O -0.0861(3) 0.4369(2) 1.3805(2)
O3A O 0.1673(3) 0.4267(2) 0.3514(2)
O4A O 0.0812(3) 0.3032(2) 0.5591(2)
O4_2 O -0.0812(3) 0.6968(2) 1.4409(2)
C10A C 0.0985(4) 0.2034(3) 0.4006(3)
F1A F 0.2284(3) 0.1147(2) 0.4441(2)
F2A F 0.0027(3) 0.1377(2) 0.4595(2)
F3A F 0.0897(3) 0.2388(2) 0.2784(2)
S2A S -0.35840(9) 1.12030(6) 1.13440(7)
O5A O -0.3079(3) 1.2310(2) 1.1240(2)
O6A O -0.4163(3) 1.1423(2) 1.0183(2)
O7A O -0.2657(3) 0.9791(2) 1.2053(2)
C11A C -0.5192(4) 1.1348(3) 1.2288(3)
F4A F -0.6144(3) 1.2628(2) 1.1772(2)
F5A F -0.4856(3) 1.1057(2) 1.3445(2)
F6A F -0.5867(2) 1.0443(2) 1.2383(2)
H1A H -0.3767 0.7850 1.4298
H2A H -0.5913 0.7920 1.5357
H3A H -0.7476 0.6920 1.5043
H4A H -0.6903 0.5935 1.3623
H5A H -0.6347 0.5292 1.2363
H6A H -0.4987 0.4220 1.2150
H7A H -0.5657 0.5688 1.1052
H8A H -0.3287 0.4641 1.0910
H9A H -0.1310 0.3820 0.9694
N5 N -0.0838(4) 0.1875(3) 0.8781(3)
C12 C -0.0804(4) 0.1073(3) 0.8457(3)
C13 C -0.0729(5) 0.0046(4) 0.8014(4)
H10 H -0.1409 -0.0438 0.8444
H11 H -0.0949 0.0510 0.7138
H12 H 0.0221 -0.0608 0.8170
loop_
_geom_bond_atom_site_label_1
_geom_bond_atom_site_label_2
_geom_bond_site_symmetry_1
_geom_bond_site_symmetry_2
Pb1 O1 1_555 1_555
N1 Pb1 1_555 1_555
C1 N1 1_555 1_555
C2 C1 1_555 1_555
C3 C2 1_555 1_555
C4 C3 1_555 1_555
C5 N1 1_555 1_555
N2 C5 1_555 1_555
C6 N2 1_555 1_555
N3 Pb1 1_555 1_555
C7 N3 1_555 1_555
C8 C7 1_555 1_555
C9 C8 1_555 1_555
N4 Pb1 1_555 1_555
S1 O2 1_555 1_555
O2 Pb1 1_555 1_555
O3 S1 1_555 1_555
O4 S1 1_555 1_555
C10 S1 1_555 1_555
F1 C10 1_555 1_555
F2 C10 1_555 1_555
F3 C10 1_555 1_555
S2 O5 1_555 1_555
O6 S2 1_555 1_555
O7 Pb1 1_555 1_555
C11 S2 1_555 1_555
F4 C11 1_555 1_555
F5 C11 1_555 1_555
F6 C11 1_555 1_555
H1 C1 1_555 1_555
H2 C2 1_555 1_555
H3 C3 1_555 1_555
H4 C4 1_555 1_555
H5 C6 1_555 1_555
H6 C6 1_555 1_555
H7 C6 1_555 1_555
H8 C7 1_555 1_555
H9 C9 1_555 1_555
N5 C12 1_555 1_555
C12 C13 1_555 1_555
C13 H10 1_555 1_555
H11 C13 1_555 1_555
H12 C13 1_555 1_555
Pb1A O1A 1_555 1_555
Pb1A_2 O4 1_555 1_555
N1A Pb1A 1_555 1_555
C1A N1A 1_555 1_555
C2A C1A 1_555 1_555
C3A C2A 1_555 1_555
C4A C3A 1_555 1_555
C5A N1A 1_555 1_555
N2A C5A 1_555 1_555
C6A N2A 1_555 1_555
N3A Pb1A 1_555 1_555
C7A N3A 1_555 1_555
C8A C7A 1_555 1_555
C9A N4 1_555 1_555
N4A C9 1_555 1_555
S1A O2A 1_555 1_555
O2A Pb1A_2 1_555 1_555
O2A_2 Pb1A 1_555 1_555
O3A S1A 1_555 1_555
O4A Pb1 1_555 1_555
O4_2 Pb1A 1_555 1_555
C10A S1A 1_555 1_555
F1A C10A 1_555 1_555
F2A C10A 1_555 1_555
F3A C10A 1_555 1_555
S2A O5A 1_555 1_555
O6A S2A 1_555 1_555
O7A Pb1A 1_555 1_555
C11A S2A 1_555 1_555
F4A C11A 1_555 1_555
F5A C11A 1_555 1_555
F6A C11A 1_555 1_555
H1A C1A 1_555 1_555
H2A C2A 1_555 1_555
H3A C3A 1_555 1_555
H4A C4A 1_555 1_555
H5A C6A 1_555 1_555
H6A C6A 1_555 1_555
H7A C6A 1_555 1_555
H8A C7A 1_555 1_555
H9A C9A 1_555 1_555
C4 C5 1_555 1_555
N2 N3 1_555 1_555
C8 N4 1_555 1_555
S2 O7 1_555 1_555
Pb1A N4A 1_555 1_555
C4A C5A 1_555 1_555
N2A N3A 1_555 1_555
C8A C9A 1_555 1_555
C8A N4A 1_555 1_555
S1A O4A 1_555 1_555
S2A O7A 1_555 1_555

#END
