
#######################################################################
#
#                 Cambridge Crystallographic Data Centre
#                                CCDC 
#
#######################################################################
#
# If this CIF has been generated from an entry in the Cambridge 
# Structural Database, then it will include bibliographic, chemical, 
# crystal, experimental, refinement or atomic coordinate data resulting 
# from the CCDC's data processing and validation procedures.
#
#######################################################################

data_TURTAB
_symmetry_cell_setting           triclinic
_symmetry_space_group_name_H-M   'P -1'
_symmetry_Int_Tables_number      2
_space_group_name_Hall           '-P 1'
loop_
_symmetry_equiv_pos_site_id
_symmetry_equiv_pos_as_xyz
1 x,y,z
2 -x,-y,-z
_cell_length_a                   8.3078(3)
_cell_length_b                   9.1192(3)
_cell_length_c                   9.2316(3)
_cell_angle_alpha                115.164(1)
_cell_angle_beta                 94.283(1)
_cell_angle_gamma                103.559(1)
_cell_volume                     603.166
loop_
_atom_site_label
_atom_site_type_symbol
_atom_site_fract_x
_atom_site_fract_y
_atom_site_fract_z
Cu1 Cu -0.21090(4) -0.26636(3) -0.24985(3)
O1 O -0.4435(2) -0.2300(2) -0.1949(2)
O2 O -0.2505(2) 0.0724(2) 0.17293(19)
O3 O -0.1145(2) -0.02100(19) -0.17710(18)
O4 O 0.0645(2) 0.20858(18) 0.03155(18)
N1 N -0.2921(2) -0.5051(2) -0.2975(2)
N2 N -0.2134(2) -0.6157(2) -0.5539(2)
H1 H -0.1871 -0.7013 -0.6227
N3 N -0.1978(2) -0.3300(2) -0.4831(2)
C1 C -0.4723(3) -0.1027(3) -0.0869(3)
C2 C -0.3861(3) 0.0321(3) 0.0780(3)
C3 C -0.0139(3) 0.0543(3) -0.0416(3)
C4 C -0.3529(3) -0.5341(3) -0.1773(3)
H2 H -0.3697 -0.4439 -0.0886
C5 C -0.3910(4) -0.6891(3) -0.1793(3)
H3 H -0.4331 -0.7041 -0.0944
C6 C -0.3652(3) -0.8238(3) -0.3114(3)
H4 H -0.3867 -0.9300 -0.3148
C7 C -0.3080(3) -0.7986(3) -0.4365(3)
H5 H -0.2929 -0.8883 -0.5270
C8 C -0.2723(3) -0.6367(3) -0.4274(3)
C9 C -0.1891(3) -0.4818(3) -0.5903(3)
C10 C -0.1499(3) -0.5096(3) -0.7438(3)
H6 H -0.1412 -0.6148 -0.8157
C11 C -0.1247(3) -0.3810(3) -0.7864(3)
H7 H -0.0960 -0.3971 -0.8864
C12 C -0.1424(4) -0.2259(3) -0.6790(3)
H8 H -0.1310 -0.1382 -0.7075
C13 C -0.1769(3) -0.2059(3) -0.5309(3)
H9 H -0.1867 -0.1014 -0.4583
C1A C -0.5277(3) 0.1027(3) 0.0869(3)
O1A O -0.5565(2) 0.2300(2) 0.1949(2)
C2A C -0.6139(3) -0.0321(3) -0.0780(3)
O2A O -0.7495(2) -0.0724(2) -0.17293(19)
C3A C 0.0139(3) -0.0543(3) 0.0416(3)
O3A O 0.1145(2) 0.02100(19) 0.17710(18)
O4A O -0.0645(2) -0.20858(18) -0.03155(18)
Cu1A Cu -0.78910(4) 0.26636(3) 0.24985(3)
N1A N -0.7079(2) 0.5051(2) 0.2975(2)
N2A N -0.7866(2) 0.6157(2) 0.5539(2)
H1A H -0.8129 0.7013 0.6227
N3A N -0.8022(2) 0.3300(2) 0.4831(2)
C4A C -0.6471(3) 0.5341(3) 0.1773(3)
H2A H -0.6303 0.4439 0.0886
C5A C -0.6090(4) 0.6891(3) 0.1793(3)
H3A H -0.5669 0.7041 0.0944
C6A C -0.6348(3) 0.8238(3) 0.3114(3)
H4A H -0.6133 0.9300 0.3148
C7A C -0.6920(3) 0.7986(3) 0.4365(3)
H5A H -0.7071 0.8883 0.5270
C8A C -0.7277(3) 0.6367(3) 0.4274(3)
C9A C -0.8109(3) 0.4818(3) 0.5903(3)
C10A C -0.8501(3) 0.5096(3) 0.7438(3)
H6A H -0.8588 0.6148 0.8157
C11A C -0.8753(3) 0.3810(3) 0.7864(3)
H7A H -0.9040 0.3971 0.8864
C12A C -0.8576(4) 0.2259(3) 0.6790(3)
H8A H -0.8690 0.1382 0.7075
C13A C -0.8231(3) 0.2059(3) 0.5309(3)
H9A H -0.8133 0.1014 0.4583
Cu1A_2 Cu 0.21090(4) 0.26636(3) 0.24985(3)
O3A_2 O -0.8855(2) 0.02100(19) 0.17710(18)
O4_2 O -0.9355(2) 0.20858(18) 0.03155(18)
loop_
_geom_bond_atom_site_label_1
_geom_bond_atom_site_label_2
_geom_bond_site_symmetry_1
_geom_bond_site_symmetry_2
Cu1 O1 1_555 1_555
O1 C1 1_555 1_555
O2 C2 1_555 1_555
O3 Cu1 1_555 1_555
O4 C3 1_555 1_555
N1 Cu1 1_555 1_555
N2 H1 1_555 1_555
N3 Cu1 1_555 1_555
C1 C2 1_555 1_555
C2 C1A 1_555 1_555
C3 O3 1_555 1_555
C4 N1 1_555 1_555
H2 C4 1_555 1_555
C5 C4 1_555 1_555
H3 C5 1_555 1_555
C6 C5 1_555 1_555
H4 C6 1_555 1_555
C7 C6 1_555 1_555
H5 C7 1_555 1_555
C8 N1 1_555 1_555
C9 N2 1_555 1_555
C10 C9 1_555 1_555
H6 C10 1_555 1_555
C11 C10 1_555 1_555
H7 C11 1_555 1_555
C12 C11 1_555 1_555
H8 C12 1_555 1_555
C13 N3 1_555 1_555
H9 C13 1_555 1_555
C1A O1A 1_555 1_555
O1A Cu1A 1_555 1_555
C2A C1 1_555 1_555
O2A C2A 1_555 1_555
C3A C3 1_555 1_555
O3A C3A 1_555 1_555
O4A Cu1 1_555 1_555
Cu1A N1A 1_555 1_555
N1A C4A 1_555 1_555
N2A H1A 1_555 1_555
N3A Cu1A 1_555 1_555
C4A H2A 1_555 1_555
C5A C4A 1_555 1_555
H3A C5A 1_555 1_555
C6A C5A 1_555 1_555
H4A C6A 1_555 1_555
C7A C6A 1_555 1_555
H5A C7A 1_555 1_555
C8A N1A 1_555 1_555
C9A N2A 1_555 1_555
C10A C9A 1_555 1_555
H6A C10A 1_555 1_555
C11A C10A 1_555 1_555
H7A C11A 1_555 1_555
C12A C11A 1_555 1_555
H8A C12A 1_555 1_555
C13A N3A 1_555 1_555
H9A C13A 1_555 1_555
Cu1A_2 O4 1_555 1_555
O3A_2 Cu1A 1_555 1_555
O4_2 Cu1A 1_555 1_555
N2 C8 1_555 1_555
N3 C9 1_555 1_555
C7 C8 1_555 1_555
C12 C13 1_555 1_555
C1A C2A 1_555 1_555
C3A O4A 1_555 1_555
O3A Cu1A_2 1_555 1_555
N2A C8A 1_555 1_555
N3A C9A 1_555 1_555
C7A C8A 1_555 1_555
C12A C13A 1_555 1_555

#END
