
#######################################################################
#
#                 Cambridge Crystallographic Data Centre
#                                CCDC 
#
#######################################################################
#
# If this CIF has been generated from an entry in the Cambridge 
# Structural Database, then it will include bibliographic, chemical, 
# crystal, experimental, refinement or atomic coordinate data resulting 
# from the CCDC's data processing and validation procedures.
#
#######################################################################

data_TURTEF
_symmetry_cell_setting           triclinic
_symmetry_space_group_name_H-M   'P -1'
_symmetry_Int_Tables_number      2
_space_group_name_Hall           '-P 1'
loop_
_symmetry_equiv_pos_site_id
_symmetry_equiv_pos_as_xyz
1 x,y,z
2 -x,-y,-z
_cell_length_a                   8.5348(2)
_cell_length_b                   9.0451(2)
_cell_length_c                   9.0862(2)
_cell_angle_alpha                114.305(1)
_cell_angle_beta                 100.493(1)
_cell_angle_gamma                97.318(1)
_cell_volume                     612.345
loop_
_atom_site_label
_atom_site_type_symbol
_atom_site_fract_x
_atom_site_fract_y
_atom_site_fract_z
Zn1 Zn 0.22751(3) 0.74878(2) 0.75911(3)
O1 O 0.44220(17) 0.71055(17) 0.71522(17)
O2 O 0.24827(17) 0.32997(16) 0.43113(17)
O3 O 0.12392(17) 0.66897(16) 0.50131(16)
O4 O -0.05966(16) 0.45558(16) 0.28864(15)
N1 N 0.3064(2) 0.8025(2) 1.0098(2)
N2 N 0.21378(19) 1.05244(18) 1.11505(19)
H1 H 0.1843 1.1176 1.1999
N3 N 0.1943(2) 0.98579(19) 0.82923(19)
C1 C 0.3706(3) 0.6868(3) 1.0423(3)
H2 H 0.3927 0.6001 0.9544
C2 C 0.4048(3) 0.6892(3) 1.1956(3)
H3 H 0.4496 0.6071 1.2123
C3 C 0.3710(3) 0.8181(3) 1.3265(3)
H4 H 0.3902 0.8219 1.4322
C4 C 0.3095(3) 0.9388(3) 1.2991(2)
H5 H 0.2885 1.0270 1.3864
C5 C 0.2780(2) 0.9288(2) 1.1375(2)
C6 C 0.1879(2) 1.0915(2) 0.9826(2)
C7 C 0.1481(3) 1.2464(2) 1.0139(3)
H6 H 0.1417 1.3173 1.1202
C8 C 0.1190(3) 1.2915(3) 0.8879(3)
H7 H 0.0905 1.3924 0.9069
C9 C 0.1322(3) 1.1857(3) 0.7303(3)
H8 H 0.1173 1.2162 0.6436
C10 C 0.1673(3) 1.0366(3) 0.7070(3)
H9 H 0.1733 0.9647 0.6009
C11 C 0.4707(2) 0.5930(2) 0.5954(2)
C12 C 0.3842(2) 0.4235(2) 0.4693(2)
C13 C 0.0190(2) 0.5365(2) 0.4400(2)
C11A C 0.5293(2) 0.4070(2) 0.4046(2)
O1A O 0.55780(17) 0.28945(17) 0.28478(17)
C12A C 0.6158(2) 0.5765(2) 0.5307(2)
O2A O 0.75173(17) 0.67003(16) 0.56887(17)
C13A C -0.0190(2) 0.4635(2) 0.5600(2)
O3A O -0.12392(17) 0.33103(16) 0.49869(16)
O4A O 0.05966(16) 0.54442(16) 0.71136(15)
Zn1A Zn 0.77249(3) 0.25122(2) 0.24089(3)
N1A N 0.6936(2) 0.1975(2) -0.0098(2)
N2A N 0.78622(19) -0.05244(18) -0.11505(19)
H1A H 0.8157 -0.1176 -0.1999
N3A N 0.8057(2) 0.01421(19) 0.17077(19)
C1A C 0.6294(3) 0.3132(3) -0.0423(3)
H2A H 0.6073 0.3999 0.0456
C2A C 0.5952(3) 0.3108(3) -0.1956(3)
H3A H 0.5504 0.3929 -0.2123
C3A C 0.6290(3) 0.1819(3) -0.3265(3)
H4A H 0.6098 0.1781 -0.4322
C4A C 0.6905(3) 0.0612(3) -0.2991(2)
H5A H 0.7115 -0.0270 -0.3864
C5A C 0.7220(2) 0.0712(2) -0.1375(2)
C6A C 0.8121(2) -0.0915(2) 0.0174(2)
C7A C 0.8519(3) -0.2464(2) -0.0139(3)
H6A H 0.8583 -0.3173 -0.1202
C8A C 0.8810(3) -0.2915(3) 0.1121(3)
H7A H 0.9095 -0.3924 0.0931
C9A C 0.8678(3) -0.1857(3) 0.2697(3)
H8A H 0.8827 -0.2162 0.3564
C10A C 0.8327(3) -0.0366(3) 0.2930(3)
H9A H 0.8267 0.0353 0.3991
Zn1A_2 Zn -0.22751(3) 0.25122(2) 0.24089(3)
O3A_2 O 0.87608(17) 0.33103(16) 0.49869(16)
O4_2 O 0.94034(16) 0.45558(16) 0.28864(15)
loop_
_geom_bond_atom_site_label_1
_geom_bond_atom_site_label_2
_geom_bond_site_symmetry_1
_geom_bond_site_symmetry_2
Zn1 O1 1_555 1_555
O1 C11 1_555 1_555
O2 C12 1_555 1_555
O3 Zn1 1_555 1_555
O4 C13 1_555 1_555
N1 Zn1 1_555 1_555
N2 H1 1_555 1_555
N3 Zn1 1_555 1_555
C1 N1 1_555 1_555
H2 C1 1_555 1_555
C2 C1 1_555 1_555
H3 C2 1_555 1_555
C3 C2 1_555 1_555
H4 C3 1_555 1_555
C4 C3 1_555 1_555
H5 C4 1_555 1_555
C5 N1 1_555 1_555
C6 N2 1_555 1_555
C7 C6 1_555 1_555
H6 C7 1_555 1_555
C8 C7 1_555 1_555
H7 C8 1_555 1_555
C9 C8 1_555 1_555
H8 C9 1_555 1_555
C10 N3 1_555 1_555
H9 C10 1_555 1_555
C11 C12 1_555 1_555
C12 C11A 1_555 1_555
C13 O3 1_555 1_555
C11A O1A 1_555 1_555
O1A Zn1A 1_555 1_555
C12A C11 1_555 1_555
O2A C12A 1_555 1_555
C13A C13 1_555 1_555
O3A C13A 1_555 1_555
O4A Zn1 1_555 1_555
Zn1A N1A 1_555 1_555
N1A C1A 1_555 1_555
N2A H1A 1_555 1_555
N3A Zn1A 1_555 1_555
C1A H2A 1_555 1_555
C2A C1A 1_555 1_555
H3A C2A 1_555 1_555
C3A C2A 1_555 1_555
H4A C3A 1_555 1_555
C4A C3A 1_555 1_555
H5A C4A 1_555 1_555
C5A N1A 1_555 1_555
C6A N2A 1_555 1_555
C7A C6A 1_555 1_555
H6A C7A 1_555 1_555
C8A C7A 1_555 1_555
H7A C8A 1_555 1_555
C9A C8A 1_555 1_555
H8A C9A 1_555 1_555
C10A N3A 1_555 1_555
H9A C10A 1_555 1_555
Zn1A_2 O4 1_555 1_555
O3A_2 Zn1A 1_555 1_555
O4_2 Zn1A 1_555 1_555
N2 C5 1_555 1_555
N3 C6 1_555 1_555
C4 C5 1_555 1_555
C9 C10 1_555 1_555
C11A C12A 1_555 1_555
C13A O4A 1_555 1_555
O3A Zn1A_2 1_555 1_555
N2A C5A 1_555 1_555
N3A C6A 1_555 1_555
C4A C5A 1_555 1_555
C9A C10A 1_555 1_555

#END
