
#######################################################################
#
#                 Cambridge Crystallographic Data Centre
#                                CCDC 
#
#######################################################################
#
# If this CIF has been generated from an entry in the Cambridge 
# Structural Database, then it will include bibliographic, chemical, 
# crystal, experimental, refinement or atomic coordinate data resulting 
# from the CCDC's data processing and validation procedures.
#
#######################################################################

data_TURZEL
_symmetry_cell_setting           orthorhombic
_symmetry_space_group_name_H-M   'F m m 2'
_symmetry_Int_Tables_number      42
_space_group_name_Hall           'F 2 -2'
loop_
_symmetry_equiv_pos_site_id
_symmetry_equiv_pos_as_xyz
1 x,y,z
2 -x,-y,z
3 x,-y,z
4 -x,y,z
5 x,1/2+y,1/2+z
6 -x,1/2-y,1/2+z
7 x,1/2-y,1/2+z
8 -x,1/2+y,1/2+z
9 1/2+x,y,1/2+z
10 1/2-x,-y,1/2+z
11 1/2+x,-y,1/2+z
12 1/2-x,y,1/2+z
13 1/2+x,1/2+y,z
14 1/2-x,1/2-y,z
15 1/2+x,1/2-y,z
16 1/2-x,1/2+y,z
_cell_length_a                   13.185(5)
_cell_length_b                   22.397(11)
_cell_length_c                   8.247(4)
_cell_angle_alpha                90
_cell_angle_beta                 90
_cell_angle_gamma                90
_cell_volume                     2435.38
loop_
_atom_site_label
_atom_site_type_symbol
_atom_site_fract_x
_atom_site_fract_y
_atom_site_fract_z
S1 S 0.39259(11) 0.10002(6) 0.7332(2)
Na1 Na 0.2290(2) 0.0000 0.4994(5)
F1 F 0.2508(5) 0.1737(3) 0.8021(11)
F2 F 0.3967(6) 0.2019(3) 0.8790(10)
F3 F 0.3569(6) 0.2071(3) 0.6320(9)
O1 O 0.3293(5) 0.0775(3) 0.6091(8)
O2 O 0.3889(4) 0.0728(3) 0.8881(7)
O3 O 0.3462(6) 0.0000 0.2677(9)
N1 N 0.5000 0.1104(4) 0.6598(10)
C1 C 0.3462(6) 0.1756(4) 0.7638(12)
H1 H 0.389(6) 0.028(3) 0.284(11)
S1C S 0.60741(11) 0.10002(6) 0.7332(2)
O1C O 0.6707(5) 0.0775(3) 0.6091(8)
O2C O 0.6111(4) 0.0728(3) 0.8881(7)
C1C C 0.6538(6) 0.1756(4) 0.7638(12)
F1C F 0.7492(5) 0.1737(3) 0.8021(11)
F2C F 0.6033(6) 0.2019(3) 0.8790(10)
F3C F 0.6431(6) 0.2071(3) 0.6320(9)
H1B H 0.389(6) -0.028(3) 0.284(11)
O1B O 0.3293(5) -0.0775(3) 0.6091(8)
O2I O 0.1111(4) -0.0728(3) 0.3881(7)
O2K O 0.1111(4) 0.0728(3) 0.3881(7)
O3I O 0.1538(6) 0.0000 0.7677(9)
Na1I Na 0.2710(2) 0.0000 0.9994(5)
Na1I_2 Na 0.2710(2) 0.0000 -0.0006(5)
Na1A Na 0.7710(2) 0.0000 0.4994(5)
Na1H Na 0.7290(2) 0.0000 0.9994(5)
H1I H 0.111(6) -0.028(3) 0.784(11)
H1K H 0.111(6) 0.028(3) 0.784(11)
O4 O 0.5000 0.0881(7) 0.3106(19)
C2 C 0.5000 0.1468(5) 0.241(2)
O5? O 0.5000 0.0863(17) 0.203(5)
loop_
_geom_bond_atom_site_label_1
_geom_bond_atom_site_label_2
_geom_bond_site_symmetry_1
_geom_bond_site_symmetry_2
S1 O1 1_555 1_555
Na1 O1 1_555 1_555
F1 C1 1_555 1_555
F2 C1 1_555 1_555
F3 C1 1_555 1_555
O2 S1 1_555 1_555
O3 Na1 1_555 1_555
O4 C2 1_555 1_555
N1 S1 1_555 1_555
C1 S1 1_555 1_555
H1 O3 1_555 1_555
S1C N1 1_555 1_555
O1C S1C 1_555 1_555
O2C S1C 1_555 1_555
C1C S1C 1_555 1_555
F1C C1C 1_555 1_555
F2C C1C 1_555 1_555
F3C C1C 1_555 1_555
H1B O3 1_555 1_555
O1B Na1 1_555 1_555
O2I Na1 1_555 1_555
O2K Na1 1_555 1_555
O3I Na1 1_555 1_555
Na1I O2 1_555 1_555
Na1I_2 O3 1_555 1_555
Na1A O1C 1_555 1_555
Na1H O2C 1_555 1_555
H1I O3I 1_555 1_555
H1K O3I 1_555 1_555
O3I Na1I 1_555 1_555

#END
