
#######################################################################
#
#                 Cambridge Crystallographic Data Centre
#                                CCDC 
#
#######################################################################
#
# If this CIF has been generated from an entry in the Cambridge 
# Structural Database, then it will include bibliographic, chemical, 
# crystal, experimental, refinement or atomic coordinate data resulting 
# from the CCDC's data processing and validation procedures.
#
#######################################################################

data_TUSCIU
_symmetry_cell_setting           orthorhombic
_symmetry_space_group_name_H-M   'P 21 21 21'
_symmetry_Int_Tables_number      19
_space_group_name_Hall           'P 2ac 2ab'
loop_
_symmetry_equiv_pos_site_id
_symmetry_equiv_pos_as_xyz
1 x,y,z
2 1/2-x,-y,1/2+z
3 1/2+x,1/2-y,-z
4 -x,1/2+y,1/2-z
_cell_length_a                   7.7968(3)
_cell_length_b                   9.8671(5)
_cell_length_c                   24.8118(12)
_cell_angle_alpha                90
_cell_angle_beta                 90
_cell_angle_gamma                90
_cell_volume                     1908.82
loop_
_atom_site_label
_atom_site_type_symbol
_atom_site_fract_x
_atom_site_fract_y
_atom_site_fract_z
C1 C 0.2273(5) 0.6050(4) 0.29583(17)
C2 C 0.2371(6) 0.6874(5) 0.25082(18)
H1 H 0.3396 0.6982 0.2322
C3 C 0.0901(7) 0.7529(5) 0.2346(2)
H2 H 0.0937 0.8095 0.2046
C4 C -0.0625(7) 0.7360(6) 0.2620(2)
H3 H -0.1603 0.7809 0.2501
C5 C -0.0717(5) 0.6526(5) 0.3070(2)
H4 H -0.1742 0.6419 0.3257
C6 C 0.0758(5) 0.5858(4) 0.32327(17)
C7 C 0.0978(5) 0.4935(4) 0.37106(15)
C8 C 0.6817(5) 0.5593(5) 0.4749(2)
H5 H 0.7138 0.5507 0.4390
C9 C 0.7485(6) 0.6656(5) 0.5045(2)
H6 H 0.8265 0.7253 0.4890
C10 C 0.6983(6) 0.6818(5) 0.5570(2)
H7 H 0.7408 0.7529 0.5777
C11 C 0.5833(6) 0.5903(5) 0.5784(2)
H8 H 0.5449 0.6005 0.6137
C12 C 0.5247(5) 0.4827(4) 0.54726(15)
C13 C 0.4104(6) 0.3743(5) 0.56934(16)
H9 H 0.4773 0.2927 0.5753
H10 H 0.3649 0.4033 0.6038
C14 C -0.1451(6) 0.3820(4) 0.64913(15)
H11 H -0.2231 0.3157 0.6595
C15 C -0.1164(7) 0.4888(4) 0.68338(15)
H12 H -0.1732 0.4943 0.7163
C16 C -0.0030(6) 0.5865(5) 0.66823(18)
H13 H 0.0205 0.6589 0.6910
C17 C 0.0769(6) 0.5770(4) 0.61855(17)
H14 H 0.1520 0.6443 0.6071
C18 C 0.0434(5) 0.4654(4) 0.58592(16)
C19 C 0.1311(6) 0.4461(4) 0.53253(15)
H15 H 0.0457 0.4208 0.5060
H16 H 0.1802 0.5320 0.5214
N1 N 0.2651(4) 0.4507(4) 0.37532(13)
N2 N 0.5728(4) 0.4683(4) 0.49565(13)
N3 N 0.2672(4) 0.3433(4) 0.53261(13)
H17 H 0.2211 0.2619 0.5420
N4 N -0.0663(4) 0.3683(3) 0.60144(12)
O1 O -0.0180(4) 0.4571(4) 0.40029(14)
O2 O 0.4466(4) 0.4010(4) 0.29473(13)
O3 O 0.5156(4) 0.5951(4) 0.34985(15)
S1 S 0.38619(14) 0.50820(10) 0.32862(4)
Ag1 Ag 0.38218(4) 0.32698(3) 0.444879(11)
N4B N 0.4337(4) 0.1317(3) 0.39856(12)
Ag1B Ag -0.11782(4) 0.17302(3) 0.555121(11)
loop_
_geom_bond_atom_site_label_1
_geom_bond_atom_site_label_2
_geom_bond_site_symmetry_1
_geom_bond_site_symmetry_2
C1 C2 1_555 1_555
C2 H1 1_555 1_555
C3 C2 1_555 1_555
H2 C3 1_555 1_555
C4 C3 1_555 1_555
H3 C4 1_555 1_555
C5 C4 1_555 1_555
H4 C5 1_555 1_555
C6 C1 1_555 1_555
C7 C6 1_555 1_555
C8 H5 1_555 1_555
C9 C8 1_555 1_555
H6 C9 1_555 1_555
C10 C9 1_555 1_555
H7 C10 1_555 1_555
C11 C10 1_555 1_555
H8 C11 1_555 1_555
C12 C11 1_555 1_555
C13 C12 1_555 1_555
H9 C13 1_555 1_555
H10 C13 1_555 1_555
C14 H11 1_555 1_555
C15 C14 1_555 1_555
H12 C15 1_555 1_555
C16 C15 1_555 1_555
H13 C16 1_555 1_555
C17 C16 1_555 1_555
H14 C17 1_555 1_555
C18 C17 1_555 1_555
C19 C18 1_555 1_555
H15 C19 1_555 1_555
H16 C19 1_555 1_555
N1 C7 1_555 1_555
N2 C8 1_555 1_555
N3 C13 1_555 1_555
H17 N3 1_555 1_555
N4 C14 1_555 1_555
O1 C7 1_555 1_555
O2 S1 1_555 1_555
O3 S1 1_555 1_555
S1 C1 1_555 1_555
Ag1 N1 1_555 1_555
N4B Ag1 1_555 1_555
Ag1B N4 1_555 1_555
C5 C6 1_555 1_555
C12 N2 1_555 1_555
C18 N4 1_555 1_555
C19 N3 1_555 1_555
N1 S1 1_555 1_555
N2 Ag1 1_555 1_555
N3 Ag1 1_555 1_555

#END
