
#######################################################################
#
#                 Cambridge Crystallographic Data Centre
#                                CCDC 
#
#######################################################################
#
# If this CIF has been generated from an entry in the Cambridge 
# Structural Database, then it will include bibliographic, chemical, 
# crystal, experimental, refinement or atomic coordinate data resulting 
# from the CCDC's data processing and validation procedures.
#
#######################################################################

data_TUSDAN
_symmetry_cell_setting           orthorhombic
_symmetry_space_group_name_H-M   'P b c n'
_symmetry_Int_Tables_number      60
_space_group_name_Hall           '-P 2n 2ab'
loop_
_symmetry_equiv_pos_site_id
_symmetry_equiv_pos_as_xyz
1 x,y,z
2 1/2-x,1/2-y,1/2+z
3 -x,y,1/2-z
4 1/2+x,1/2-y,-z
5 -x,-y,-z
6 1/2+x,1/2+y,1/2-z
7 x,-y,1/2+z
8 1/2-x,1/2+y,z
_cell_length_a                   16.3067(12)
_cell_length_b                   7.4246(6)
_cell_length_c                   20.5712(15)
_cell_angle_alpha                90
_cell_angle_beta                 90
_cell_angle_gamma                90
_cell_volume                     2490.57
loop_
_atom_site_label
_atom_site_type_symbol
_atom_site_fract_x
_atom_site_fract_y
_atom_site_fract_z
C1 C 0.3716(2) 0.3089(5) 0.81659(18)
C2 C 0.2930(2) 0.3204(5) 0.78616(17)
C3 C 0.2250(2) 0.3717(5) 0.82236(17)
H1 H 0.1739 0.3793 0.8025
C4 C 0.2327(2) 0.4108(5) 0.88661(17)
C5 C 0.3062(2) 0.3953(5) 0.91800(16)
H2 H 0.3099 0.4195 0.9623
C6 C 0.3759(2) 0.3429(5) 0.88312(17)
C7 C 0.4488(2) 0.3071(5) 0.92235(18)
H3 H 0.4430 0.3253 0.9668
C8 C 0.2772(3) 0.2720(5) 0.71916(18)
H4 H 0.2226 0.2733 0.7060
C9 C 0.2973(2) 0.1751(5) 0.61195(17)
H5 H 0.2386 0.1959 0.6108
H6 H 0.3067 0.0474 0.6054
C10 C 0.3378(3) 0.2797(5) 0.55732(19)
H7 H 0.3045 0.2700 0.5184
H8 H 0.3408 0.4060 0.5692
C11 C 0.4229(3) 0.2104(6) 0.54328(19)
H9 H 0.4208 0.0806 0.5380
H10 H 0.4421 0.2619 0.5027
Cl1 Cl 0.45367(5) 0.73399(11) 0.64910(5)
Cu1 Cu 0.44877(3) 0.24769(6) 0.68760(2)
F1 F 0.16624(14) 0.4614(3) 0.92242(10)
N1 N 0.3295(2) 0.2281(4) 0.67643(14)
N2 N 0.5180(2) 0.2554(4) 0.90406(16)
O1 O 0.43695(16) 0.2590(3) 0.78176(14)
O2 O 0.41825(16) 0.5878(4) 0.68457(13)
O3 O 0.43248(17) 0.8960(4) 0.68184(13)
O4 O 0.53782(16) 0.7159(4) 0.64375(14)
O5 O 0.41652(19) 0.7372(4) 0.58613(14)
C1B C 0.6284(2) 0.3089(5) 0.68341(18)
C2B C 0.7070(2) 0.3204(5) 0.71384(17)
C3B C 0.7750(2) 0.3717(5) 0.67764(17)
H1B H 0.8261 0.3793 0.6975
C4B C 0.7673(2) 0.4108(5) 0.61339(17)
C5B C 0.6938(2) 0.3953(5) 0.58200(16)
H2B H 0.6901 0.4195 0.5377
C6B C 0.6241(2) 0.3429(5) 0.61688(17)
C7B C 0.5512(2) 0.3071(5) 0.57765(18)
H3B H 0.5570 0.3253 0.5332
C8B C 0.7228(3) 0.2720(5) 0.78084(18)
H4B H 0.7774 0.2733 0.7940
C9B C 0.7027(2) 0.1751(5) 0.88805(17)
H5B H 0.7614 0.1959 0.8892
H6B H 0.6933 0.0474 0.8946
C10B C 0.6622(3) 0.2797(5) 0.94268(19)
H7B H 0.6955 0.2700 0.9816
H8B H 0.6592 0.4060 0.9308
C11B C 0.5771(3) 0.2104(6) 0.95672(19)
H9B H 0.5792 0.0806 0.9620
H10B H 0.5579 0.2619 0.9973
Cl1_2 Cl 0.45367(5) -0.26601(11) 0.64910(5)
Cu1B Cu 0.55123(3) 0.24769(6) 0.81240(2)
Cu1_2 Cu 0.44877(3) 1.24769(6) 0.68760(2)
Cu1_3 Cu 0.44877(3) -0.75231(6) 0.68760(2)
F1B F 0.83376(14) 0.4614(3) 0.57758(10)
N1B N 0.6705(2) 0.2281(4) 0.82357(14)
N2B N 0.4820(2) 0.2554(4) 0.59594(16)
O1B O 0.56305(16) 0.2590(3) 0.71824(14)
O2_2 O 0.41825(16) -0.4122(4) 0.68457(13)
O2B O 0.58175(16) 0.5878(4) 0.81543(13)
O3_2 O 0.43248(17) -0.1040(4) 0.68184(13)
O3B O 0.56752(17) -0.1040(4) 0.81816(13)
O4_2 O 0.53782(16) -0.2841(4) 0.64375(14)
O5_2 O 0.41652(19) -0.2628(4) 0.58613(14)
loop_
_geom_bond_atom_site_label_1
_geom_bond_atom_site_label_2
_geom_bond_site_symmetry_1
_geom_bond_site_symmetry_2
C1 C2 1_555 1_555
C2 C3 1_555 1_555
C3 H1 1_555 1_555
C4 C3 1_555 1_555
C5 C4 1_555 1_555
H2 C5 1_555 1_555
C6 C1 1_555 1_555
C7 C6 1_555 1_555
H3 C7 1_555 1_555
C8 C2 1_555 1_555
H4 C8 1_555 1_555
C9 H5 1_555 1_555
H6 C9 1_555 1_555
C10 C9 1_555 1_555
H7 C10 1_555 1_555
H8 C10 1_555 1_555
C11 C10 1_555 1_555
H9 C11 1_555 1_555
H10 C11 1_555 1_555
Cl1 O2 1_555 1_555
Cu1 N1 1_555 1_555
F1 C4 1_555 1_555
N1 C8 1_555 1_555
N2 C7 1_555 1_555
O1 C1 1_555 1_555
O2 Cu1 1_555 1_555
O3 Cl1 1_555 1_555
O4 Cl1 1_555 1_555
O5 Cl1 1_555 1_555
C1B C2B 1_555 1_555
C2B C3B 1_555 1_555
C3B H1B 1_555 1_555
C4B C3B 1_555 1_555
C5B C4B 1_555 1_555
H2B C5B 1_555 1_555
C6B C1B 1_555 1_555
C7B C6B 1_555 1_555
H3B C7B 1_555 1_555
C8B C2B 1_555 1_555
H4B C8B 1_555 1_555
C9B H5B 1_555 1_555
H6B C9B 1_555 1_555
C10B C9B 1_555 1_555
H7B C10B 1_555 1_555
H8B C10B 1_555 1_555
C11B N2 1_555 1_555
H9B C11B 1_555 1_555
H10B C11B 1_555 1_555
Cl1_2 O2_2 1_555 1_555
Cu1B N2 1_555 1_555
Cu1_2 O3 1_555 1_555
Cu1_3 O2_2 1_555 1_555
F1B C4B 1_555 1_555
N1B C8B 1_555 1_555
N2B C11 1_555 1_555
O1B Cu1 1_555 1_555
O2B Cu1B 1_555 1_555
O3_2 Cu1 1_555 1_555
O3B Cu1B 1_555 1_555
O4_2 Cl1_2 1_555 1_555
O5_2 Cl1_2 1_555 1_555
C5 C6 1_555 1_555
C9 N1 1_555 1_555
Cu1 O1 1_555 1_555
Cu1 N2B 1_555 1_555
O1 Cu1B 1_555 1_555
C1B O1B 1_555 1_555
C5B C6B 1_555 1_555
C7B N2B 1_555 1_555
C9B N1B 1_555 1_555
C10B C11B 1_555 1_555
Cl1_2 O3_2 1_555 1_555
Cu1B N1B 1_555 1_555
Cu1B O1B 1_555 1_555

#END
