
#######################################################################
#
#                 Cambridge Crystallographic Data Centre
#                                CCDC 
#
#######################################################################
#
# If this CIF has been generated from an entry in the Cambridge 
# Structural Database, then it will include bibliographic, chemical, 
# crystal, experimental, refinement or atomic coordinate data resulting 
# from the CCDC's data processing and validation procedures.
#
#######################################################################

data_TUSFAQ
_symmetry_cell_setting           triclinic
_symmetry_space_group_name_H-M   'P -1'
_symmetry_Int_Tables_number      2
_space_group_name_Hall           '-P 1'
loop_
_symmetry_equiv_pos_site_id
_symmetry_equiv_pos_as_xyz
1 x,y,z
2 -x,-y,-z
_cell_length_a                   11.207(7)
_cell_length_b                   17.293(10)
_cell_length_c                   17.310(10)
_cell_angle_alpha                63.193(5)
_cell_angle_beta                 71.171(6)
_cell_angle_gamma                75.671(7)
_cell_volume                     2813.26
loop_
_atom_site_label
_atom_site_type_symbol
_atom_site_fract_x
_atom_site_fract_y
_atom_site_fract_z
Dy1 Dy 1.42140(9) 0.58976(6) 0.09149(6)
Dy2 Dy 0.57697(9) 0.58635(6) 0.33501(6)
Dy3 Dy 0.97977(9) 0.73046(7) 0.15977(6)
O1 O 1.3962(17) 0.4236(12) -0.1214(11)
O2 O 0.5381(16) 0.5463(11) 0.8853(11)
O3 O 0.5059(17) 0.6413(11) 0.9463(11)
O4 O 0.3676(16) 0.7164(11) 0.1032(11)
O5 O 0.1704(16) 0.7277(12) 0.1640(11)
O6 O 1.2429(16) 0.5964(12) 0.0631(11)
O7 O 1.0382(16) 0.6378(12) 0.0955(11)
O8 O 0.852(2) 0.5916(14) -0.1756(15)
O9 O 1.0316(18) 0.8331(12) 0.0251(11)
O10 O 0.901(2) 0.9536(13) -0.0226(12)
O11 O 1.193(2) 0.9030(12) -0.3812(12)
O12 O 0.7908(18) 0.7366(12) 0.1458(12)
O13 O 0.5968(16) 0.7127(11) 0.2229(11)
O14 O 1.4849(17) 0.6446(11) -0.5664(10)
O15 O 0.9124(19) 0.8353(13) 0.2010(12)
O16 O 0.787(2) 0.9519(14) 0.1378(13)
O17 O 0.6247(19) 0.9070(12) 0.5442(11)
O18 O 1.3277(16) 0.5382(11) 0.2345(10)
O19 O 1.4012(18) 0.5690(13) 0.3231(12)
O20 O 1.3119(15) 0.4662(11) -0.2337(10)
O21 O 1.4162(17) 0.5482(11) -0.4292(11)
O22 O 0.949(2) 0.3935(17) 0.3574(14)
O23 O 0.900(3) 0.3125(18) 0.4964(16)
O24 O 0.814(2) 0.6892(17) -0.1289(17)
O25 O 1.0525(17) 0.3621(12) 0.7009(11)
O26 O 1.2392(17) 0.4155(12) 0.6503(11)
C1 C 0.274(2) 0.7413(17) 0.1489(15)
C2 C 0.299(2) 0.7980(17) 0.1890(16)
C3 C 0.203(3) 0.8041(19) 0.2641(18)
C4 C 0.230(3) 0.8483(18) 0.3092(17)
H1 H 0.1742 0.8472 0.3626
C5 C 0.331(3) 0.8901(18) 0.2785(17)
H2 H 0.3394 0.9226 0.3067
C6 C 0.429(2) 0.8857(17) 0.2008(16)
H3 H 0.5032 0.9117 0.1811
C7 C 0.409(2) 0.8411(17) 0.1567(16)
C8 C 0.532(2) 0.6208(17) 0.8828(17)
C9 C 0.554(2) 0.6974(15) 0.7914(14)
C10 C 0.573(3) 0.7787(17) 0.7864(16)
H4 H 0.5679 0.7881 0.8363
C11 C 0.563(2) 0.6820(17) 0.7161(16)
H5 H 0.5538 0.6274 0.7223
C12 C 1.328(2) 0.5349(17) 0.3077(15)
C13 C 1.229(2) 0.4820(16) 0.3866(14)
C14 C 1.230(2) 0.4675(16) 0.4746(14)
H6 H 1.2878 0.4905 0.4846
C15 C 1.138(2) 0.4159(17) 0.5458(14)
C16 C 1.050(2) 0.3861(17) 0.5340(16)
H7 H 0.9884 0.3554 0.5820
C17 C 1.054(2) 0.4018(18) 0.4522(17)
C18 C 1.141(2) 0.4499(18) 0.3745(16)
H8 H 1.1377 0.4591 0.3179
N1 N 0.963(2) 0.3656(16) 0.4313(14)
C19 C 1.134(2) 0.6101(17) 0.0504(16)
C20 C 1.122(2) 0.5920(17) -0.0224(17)
C21 C 1.218(2) 0.5394(16) -0.0549(15)
H9 H 1.2912 0.5180 -0.0332
C22 C 1.206(2) 0.5183(16) -0.1223(16)
C23 C 1.096(2) 0.5495(16) -0.1527(16)
H10 H 1.0841 0.5403 -0.1986
C24 C 1.213(3) 0.8484(17) -0.2341(17)
H11 H 1.2934 0.8191 -0.2483
C25 C 1.012(2) 0.6222(17) -0.0527(16)
H12 H 0.9483 0.6598 -0.0333
N2 N 0.885(2) 0.6295(16) -0.1496(16)
C26 C 1.253(3) 0.8289(17) -0.3991(17)
C27 C 1.142(3) 0.8965(17) -0.2959(17)
C28 C 1.036(3) 0.9512(17) -0.2811(17)
H13 H 0.9989 0.9882 -0.3281
C29 C 0.982(3) 0.9538(18) -0.1978(18)
H14 H 0.9057 0.9880 -0.1871
C30 C 1.047(3) 0.9025(17) -0.1299(17)
C31 C 1.156(3) 0.8467(19) -0.1466(18)
H15 H 1.1922 0.8072 -0.0997
C32 C 0.676(2) 0.7492(16) 0.1515(15)
C33 C 0.629(2) 0.8063(16) 0.0697(16)
C34 C 0.708(3) 0.8180(18) -0.0139(17)
H16 H 0.7922 0.7931 -0.0171
C35 C 0.671(3) 0.8628(17) -0.0909(17)
H17 H 0.7277 0.8686 -0.1455
C36 C 0.546(3) 0.9000(18) -0.0854(17)
H18 H 0.5181 0.9310 -0.1378
C37 C 0.462(3) 0.8929(17) -0.0072(17)
H19 H 0.3794 0.9198 -0.0063
C38 C 0.501(2) 0.8443(17) 0.0740(16)
C39 C 1.315(2) 0.4661(17) -0.1613(16)
C40 C 1.145(2) 0.3959(18) 0.6383(16)
C41 C 1.426(2) 0.6242(15) -0.4859(14)
C42 C 1.370(2) 0.6991(15) -0.4531(14)
C43 C 1.290(2) 0.6812(16) -0.3710(15)
H20 H 1.2722 0.6246 -0.3329
C44 C 1.240(3) 0.7466(16) -0.3467(15)
H21 H 1.1916 0.7335 -0.2884
C45 C 1.335(3) 0.8528(18) -0.4845(16)
H22 H 1.3506 0.9102 -0.5201
C46 C 1.393(3) 0.7831(16) -0.5146(15)
H23 H 1.4436 0.7942 -0.5720
C47 C 0.827(3) 0.8993(19) 0.2007(19)
C48 C 0.768(3) 0.8985(18) 0.2920(17)
C49 C 0.826(3) 0.8412(18) 0.3616(17)
H24 H 0.8992 0.8051 0.3496
C50 C 0.777(3) 0.8365(19) 0.4456(18)
H25 H 0.8117 0.7927 0.4916
C51 C 0.678(3) 0.8954(17) 0.4637(16)
C52 C 0.616(3) 0.9557(17) 0.3966(15)
H26 H 0.5452 0.9937 0.4090
C53 C 0.663(3) 0.9567(18) 0.3122(17)
H27 H 0.6235 0.9968 0.2672
C54 C 0.608(3) 0.8324(17) 0.6241(16)
C55 C 0.586(3) 0.7518(17) 0.6313(16)
H28 H 0.5859 0.7452 0.5808
C56 C 0.600(3) 0.8430(17) 0.6983(15)
H29 H 0.6141 0.8971 0.6908
C57 C 1.003(2) 0.5973(16) -0.1067(17)
C58 C 0.989(3) 0.8938(19) -0.0357(18)
Dy1_2 Dy 0.42140(9) 0.58976(6) 0.09149(6)
Dy1_3 Dy 0.42140(9) 0.58976(6) 1.09149(6)
Dy1A Dy 0.57860(9) 0.41024(6) 0.90851(6)
Dy1A_2 Dy 1.57860(9) 0.41024(6) -0.09149(6)
Dy2_2 Dy 1.57697(9) 0.58635(6) -0.66499(6)
Dy2_3 Dy 1.57697(9) 0.58635(6) 0.33501(6)
Dy2A Dy 1.42303(9) 0.41365(6) -0.33501(6)
Dy2A_2 Dy 1.42303(9) 0.41365(6) 0.66499(6)
Dy3_2 Dy -0.02023(9) 0.73046(7) 0.15977(6)
Dy3A Dy 1.02023(9) 0.26954(7) 0.84023(6)
O1A O 1.6038(17) 0.5764(12) 0.1214(11)
O2A O 1.4619(16) 0.4537(11) 0.1147(11)
O3_2 O 1.5059(17) 0.6413(11) -0.0537(11)
O4_2 O 1.3676(16) 0.7164(11) 0.1032(11)
O5_2 O 1.1704(16) 0.7277(12) 0.1640(11)
O14_2 O 0.4849(17) 0.6446(11) 0.4336(10)
O19_2 O 0.4012(18) 0.5690(13) 0.3231(12)
O20A O 0.6881(15) 0.5338(11) 0.2337(10)
O21A O 0.5838(17) 0.4518(11) 0.4292(11)
O25A O 0.9475(17) 0.6379(12) 0.2991(11)
O26A O 0.7608(17) 0.5845(12) 0.3497(11)
loop_
_geom_bond_atom_site_label_1
_geom_bond_atom_site_label_2
_geom_bond_site_symmetry_1
_geom_bond_site_symmetry_2
Dy1 O6 1_555 1_555
Dy2 O13 1_555 1_555
Dy3 O7 1_555 1_555
O1 C39 1_555 1_555
O2 C8 1_555 1_555
O3 C8 1_555 1_555
O4 C1 1_555 1_555
O5 C1 1_555 1_555
O6 C19 1_555 1_555
O7 C19 1_555 1_555
O8 N2 1_555 1_555
O9 Dy3 1_555 1_555
O10 C58 1_555 1_555
O11 C26 1_555 1_555
O12 Dy3 1_555 1_555
O13 C32 1_555 1_555
O14 C41 1_555 1_555
O15 Dy3 1_555 1_555
O16 C47 1_555 1_555
O17 C51 1_555 1_555
O18 Dy1 1_555 1_555
O19 C12 1_555 1_555
O20 C39 1_555 1_555
O21 C41 1_555 1_555
O22 N1 1_555 1_555
O23 N1 1_555 1_555
O24 N2 1_555 1_555
O25 C40 1_555 1_555
O26 C40 1_555 1_555
C1 C2 1_555 1_555
C2 C3 1_555 1_555
C3 C4 1_555 1_555
C4 H1 1_555 1_555
C5 C4 1_555 1_555
H2 C5 1_555 1_555
C6 C5 1_555 1_555
H3 C6 1_555 1_555
C7 C2 1_555 1_555
C8 C9 1_555 1_555
C9 C10 1_555 1_555
C10 H4 1_555 1_555
C11 C9 1_555 1_555
H5 C11 1_555 1_555
C12 O18 1_555 1_555
C13 C12 1_555 1_555
C14 C13 1_555 1_555
H6 C14 1_555 1_555
C15 C14 1_555 1_555
C16 C15 1_555 1_555
H7 C16 1_555 1_555
C17 C16 1_555 1_555
C18 C13 1_555 1_555
H8 C18 1_555 1_555
N1 C17 1_555 1_555
C19 C20 1_555 1_555
C20 C21 1_555 1_555
C21 H9 1_555 1_555
C22 C21 1_555 1_555
C23 C22 1_555 1_555
H10 C23 1_555 1_555
C24 H11 1_555 1_555
C25 C20 1_555 1_555
H12 C25 1_555 1_555
N2 C57 1_555 1_555
C26 C44 1_555 1_555
C27 O11 1_555 1_555
C28 C27 1_555 1_555
H13 C28 1_555 1_555
C29 C28 1_555 1_555
H14 C29 1_555 1_555
C30 C29 1_555 1_555
C31 C24 1_555 1_555
H15 C31 1_555 1_555
C32 O12 1_555 1_555
C33 C32 1_555 1_555
C34 C33 1_555 1_555
H16 C34 1_555 1_555
C35 C34 1_555 1_555
H17 C35 1_555 1_555
C36 C35 1_555 1_555
H18 C36 1_555 1_555
C37 C36 1_555 1_555
H19 C37 1_555 1_555
C38 C7 1_555 1_555
C39 C22 1_555 1_555
C40 C15 1_555 1_555
C41 C42 1_555 1_555
C42 C43 1_555 1_555
C43 H20 1_555 1_555
C44 C43 1_555 1_555
H21 C44 1_555 1_555
C45 C26 1_555 1_555
H22 C45 1_555 1_555
C46 C42 1_555 1_555
H23 C46 1_555 1_555
C47 O15 1_555 1_555
C48 C47 1_555 1_555
C49 C48 1_555 1_555
H24 C49 1_555 1_555
C50 C49 1_555 1_555
H25 C50 1_555 1_555
C51 C50 1_555 1_555
C52 C51 1_555 1_555
H26 C52 1_555 1_555
C53 C48 1_555 1_555
H27 C53 1_555 1_555
C54 O17 1_555 1_555
C55 C11 1_555 1_555
H28 C55 1_555 1_555
C56 C10 1_555 1_555
H29 C56 1_555 1_555
C57 C23 1_555 1_555
C58 O9 1_555 1_555
Dy1_2 O4 1_555 1_555
Dy1_3 O3 1_555 1_555
Dy1A O2 1_555 1_555
Dy1A_2 O1 1_555 1_555
Dy2_2 O14 1_555 1_555
Dy2_3 O19 1_555 1_555
Dy2A O20 1_555 1_555
Dy2A_2 O26 1_555 1_555
Dy3_2 O5 1_555 1_555
Dy3A O25 1_555 1_555
O1A Dy1 1_555 1_555
O2A Dy1 1_555 1_555
O3_2 Dy1 1_555 1_555
O4_2 Dy1 1_555 1_555
O5_2 Dy3 1_555 1_555
O14_2 Dy2 1_555 1_555
O19_2 Dy2 1_555 1_555
O20A Dy2 1_555 1_555
O21A Dy2 1_555 1_555
O25A Dy3 1_555 1_555
O26A Dy2 1_555 1_555
O21 Dy2A 1_555 1_555
C6 C7 1_555 1_555
C17 C18 1_555 1_555
C24 C27 1_555 1_555
C25 C57 1_555 1_555
C30 C31 1_555 1_555
C30 C58 1_555 1_555
C33 C38 1_555 1_555
C37 C38 1_555 1_555
C45 C46 1_555 1_555
C52 C53 1_555 1_555
C54 C55 1_555 1_555
C54 C56 1_555 1_555

#END
