
#######################################################################
#
#                 Cambridge Crystallographic Data Centre
#                                CCDC 
#
#######################################################################
#
# If this CIF has been generated from an entry in the Cambridge 
# Structural Database, then it will include bibliographic, chemical, 
# crystal, experimental, refinement or atomic coordinate data resulting 
# from the CCDC's data processing and validation procedures.
#
#######################################################################

data_TUSFIX
_symmetry_cell_setting           monoclinic
_symmetry_space_group_name_H-M   'P 21/c'
_symmetry_Int_Tables_number      14
_space_group_name_Hall           '-P 2ybc'
loop_
_symmetry_equiv_pos_site_id
_symmetry_equiv_pos_as_xyz
1 x,y,z
2 -x,1/2+y,1/2-z
3 -x,-y,-z
4 x,1/2-y,1/2+z
_cell_length_a                   11.530(4)
_cell_length_b                   13.921(5)
_cell_length_c                   10.170(4)
_cell_angle_alpha                90
_cell_angle_beta                 95.452(6)
_cell_angle_gamma                90
_cell_volume                     1624.99
loop_
_atom_site_label
_atom_site_type_symbol
_atom_site_fract_x
_atom_site_fract_y
_atom_site_fract_z
Co1 Co 0.41981(6) 0.82343(5) 0.94783(7)
S1 S 0.26656(15) 0.47717(12) 0.98496(15)
O1 O 0.4153(4) 0.7609(3) 0.7547(4)
O2 O 0.4270(3) 0.6235(3) 0.6426(4)
O3 O 0.3382(6) 0.3981(5) 0.9663(7)
O4 O 0.1447(5) 0.4549(5) 0.9502(6)
O5 O 0.2905(5) 0.5256(4) 1.1121(4)
O6 O 0.4212(5) 0.9585(4) 0.8555(5)
H1 H 0.467(9) 0.996(7) 0.860(10)
H2 H 0.384(10) 0.961(8) 0.803(12)
N1 N 0.2291(4) 0.8297(4) 0.9434(5)
N2 N -0.3885(4) 0.8343(4) 0.9602(5)
N3 N 0.4298(4) 0.6739(3) 0.9895(5)
H3 H 0.5025 0.6598 1.0243
H4 H 0.3808 0.6600 1.0506
C1 C 0.1589(5) 0.8764(5) 0.8531(7)
H5 H 0.1926 0.9067 0.7847
C2 C 0.0398(6) 0.8828(5) 0.8545(7)
H6 H -0.0040 0.9154 0.7871
C3 C -0.0147(5) 0.8414(5) 0.9546(6)
C4 C 0.0574(5) 0.7940(6) 1.0535(6)
H7 H 0.0258 0.7657 1.1248
C5 C 0.1754(5) 0.7901(5) 1.0432(6)
H8 H 0.2215 0.7582 1.1093
C6 C -0.1442(5) 0.8420(5) 0.9577(6)
C7 C -0.2169(5) 0.8420(5) 0.8425(7)
H9 H -0.1862 0.8442 0.7612
C8 C -0.3369(5) 0.8386(5) 0.8484(6)
H10 H -0.3843 0.8393 0.7691
C9 C -0.3162(5) 0.8360(5) 1.0734(6)
H11 H -0.3491 0.8348 1.1533
C10 C -0.1955(6) 0.8395(5) 1.0765(6)
H12 H -0.1495 0.8403 1.1567
C11 C 0.4153(5) 0.6711(4) 0.7476(5)
C12 C 0.4005(7) 0.6125(5) 0.8717(6)
H13 H 0.4573 0.5599 0.8751
C13 C 0.2841(7) 0.5693(6) 0.8639(7)
H14 H 0.2667 0.5419 0.7765
H15 H 0.2276 0.6196 0.8743
Co1C Co 0.41981(6) 0.67657(5) 0.44783(7)
Co1_2 Co -0.58019(6) 0.82343(5) 0.94783(7)
O2C O 0.4270(3) 0.8765(3) 1.1426(4)
N2_2 N 0.6115(4) 0.8343(4) 0.9602(5)
O7 O 0.9882(6) 0.8928(6) 0.3429(7)
loop_
_geom_bond_atom_site_label_1
_geom_bond_atom_site_label_2
_geom_bond_site_symmetry_1
_geom_bond_site_symmetry_2
Co1 O1 1_555 1_555
S1 O3 1_555 1_555
O1 C11 1_555 1_555
O2 C11 1_555 1_555
O4 S1 1_555 1_555
O5 S1 1_555 1_555
O6 Co1 1_555 1_555
H1 O6 1_555 1_555
H2 O6 1_555 1_555
N1 Co1 1_555 1_555
N2 C8 1_555 1_555
N3 Co1 1_555 1_555
H3 N3 1_555 1_555
H4 N3 1_555 1_555
C1 N1 1_555 1_555
H5 C1 1_555 1_555
C2 C1 1_555 1_555
H6 C2 1_555 1_555
C3 C2 1_555 1_555
C4 C3 1_555 1_555
H7 C4 1_555 1_555
C5 N1 1_555 1_555
H8 C5 1_555 1_555
C6 C3 1_555 1_555
C7 C6 1_555 1_555
H9 C7 1_555 1_555
C8 C7 1_555 1_555
H10 C8 1_555 1_555
C9 N2 1_555 1_555
H11 C9 1_555 1_555
C10 C6 1_555 1_555
H12 C10 1_555 1_555
C11 C12 1_555 1_555
C12 N3 1_555 1_555
H13 C12 1_555 1_555
C13 S1 1_555 1_555
H14 C13 1_555 1_555
H15 C13 1_555 1_555
Co1C O2 1_555 1_555
Co1_2 N2 1_555 1_555
O2C Co1 1_555 1_555
N2_2 Co1 1_555 1_555
C4 C5 1_555 1_555
C9 C10 1_555 1_555
C12 C13 1_555 1_555

#END
