
#######################################################################
#
#                 Cambridge Crystallographic Data Centre
#                                CCDC 
#
#######################################################################
#
# If this CIF has been generated from an entry in the Cambridge 
# Structural Database, then it will include bibliographic, chemical, 
# crystal, experimental, refinement or atomic coordinate data resulting 
# from the CCDC's data processing and validation procedures.
#
#######################################################################

data_TUSGOD
_symmetry_cell_setting           orthorhombic
_symmetry_space_group_name_H-M   'P b c m'
_symmetry_Int_Tables_number      57
_space_group_name_Hall           '-P 2c 2b'
loop_
_symmetry_equiv_pos_site_id
_symmetry_equiv_pos_as_xyz
1 x,y,z
2 x,y,1/2-z
3 -x,1/2+y,z
4 x,1/2-y,1/2+z
5 -x,-y,-z
6 -x,-y,1/2+z
7 x,1/2-y,-z
8 -x,1/2+y,1/2-z
_cell_length_a                   19.861(7)
_cell_length_b                   8.077(3)
_cell_length_c                   38.220(13)
_cell_angle_alpha                90
_cell_angle_beta                 90
_cell_angle_gamma                90
_cell_volume                     6131.15
loop_
_atom_site_label
_atom_site_type_symbol
_atom_site_fract_x
_atom_site_fract_y
_atom_site_fract_z
Ag1 Ag 0.91952(6) 0.2500 0.5000
Ag2 Ag 1.42761(8) 0.5728(2) 0.7500
N1 N 1.4127(8) 0.962(2) 0.7500
O1 O 1.4624(9) 0.868(3) 0.7500
O2 O 1.4205(11) 1.113(2) 0.7500
O3 O 1.3555(9) 0.899(3) 0.7500
C1 C 1.7779(6) 0.3091(14) 0.4736(3)
H1 H 1.8016 0.3514 0.4547
C2 C 1.7059(5) 0.3127(14) 0.4721(3)
H2 H 1.6849 0.3570 0.4525
C3 C 1.6660(7) 0.2500 0.5000
C4 C 1.5958(6) 0.2500 0.5000
C5 C 1.5627(5) 0.3114(13) 0.5286(3)
C6 C 1.5930(6) 0.3950(15) 0.5589(3)
H3 H 1.6382 0.4234 0.5612
C7 C 1.5442(5) 0.4238(14) 0.5828(3)
H4 H 1.5498 0.4733 0.6046
C8 C 1.4810(5) 0.3622(12) 0.5680(3)
C9 C 1.3947(5) 0.6062(15) 0.6698(3)
H5 H 1.3764 0.7081 0.6760
C10 C 1.3965(6) 0.5605(16) 0.6350(3)
H6 H 1.3781 0.6347 0.6190
C11 C 1.4216(5) 0.4227(14) 0.6222(3)
C12 C 1.4501(6) 0.3216(17) 0.6485(4)
H7 H 1.4716 0.2238 0.6422
C13 C 1.4467(6) 0.3630(18) 0.6817(4)
H8 H 1.4647 0.2897 0.6980
C14 C 1.4208(5) 0.3710(13) 0.5857(3)
C15 C 1.3582(5) 0.3300(13) 0.5718(3)
C16 C 1.2952(5) 0.3341(14) 0.5879(3)
H9 H 1.2883 0.3546 0.6116
C17 C 1.2455(6) 0.3045(13) 0.5648(3)
H10 H 1.1996 0.3011 0.5694
C18 C 1.2775(5) 0.2793(12) 0.5318(2)
C19 C 1.2426(7) 0.2500 0.5000
C20 C 1.1334(5) 0.3568(14) 0.4796(3)
H11 H 1.1555 0.4363 0.4663
C21 C 1.0610(5) 0.3491(15) 0.4784(3)
H12 H 1.0379 0.4141 0.4623
C22 C 1.1716(6) 0.2500 0.5000
N2 N 1.4924(4) 0.3012(10) 0.5356(2)
N3 N 1.3448(4) 0.2912(9) 0.5365(2)
N4 N 1.0264(6) 0.2500 0.5000
N5 N 1.8126(6) 0.2500 0.5000
N6 N 1.4181(4) 0.5089(12) 0.6942(2)
C2F C 1.7059(5) 0.1873(14) 0.5279(3)
C1F C 1.7779(6) 0.1909(14) 0.5264(3)
H1F H 1.8016 0.1486 0.5453
H2F H 1.6849 0.1430 0.5475
C18F C 1.2775(5) 0.2207(12) 0.4682(2)
C17F C 1.2455(6) 0.1955(13) 0.4352(3)
C16F C 1.2952(5) 0.1659(14) 0.4121(3)
C15F C 1.3582(5) 0.1700(13) 0.4282(3)
C14F C 1.4208(5) 0.1290(13) 0.4143(3)
C8F C 1.4810(5) 0.1378(12) 0.4320(3)
C7F C 1.5442(5) 0.0762(14) 0.4172(3)
C6F C 1.5930(6) 0.1050(15) 0.4411(3)
C5F C 1.5627(5) 0.1886(13) 0.4714(3)
N2F N 1.4924(4) 0.1988(10) 0.4644(2)
H3F H 1.6382 0.0766 0.4388
H4F H 1.5498 0.0267 0.3954
C11F C 1.4216(5) 0.0773(14) 0.3778(3)
C10F C 1.3965(6) -0.0605(16) 0.3650(3)
C9F C 1.3947(5) -0.1062(15) 0.3302(3)
H5F H 1.3764 -0.2081 0.3240
N6F N 1.4181(4) -0.0089(12) 0.3058(2)
C13F C 1.4467(6) 0.1370(18) 0.3183(4)
C12F C 1.4501(6) 0.1784(17) 0.3515(4)
H7F H 1.4716 0.2762 0.3578
H8F H 1.4647 0.2103 0.3020
H6F H 1.3781 -0.1347 0.3810
N3F N 1.3448(4) 0.2088(9) 0.4635(2)
H9F H 1.2883 0.1454 0.3884
H10F H 1.1996 0.1989 0.4306
C21F C 1.0610(5) 0.1509(15) 0.5216(3)
C20F C 1.1334(5) 0.1432(14) 0.5204(3)
H11F H 1.1555 0.0637 0.5337
H12F H 1.0379 0.0859 0.5377
N5_2 N 0.8126(6) 0.2500 0.5000
O1B O 1.5376(9) 0.368(3) 0.7500
N6A N 1.4181(4) 0.5089(12) 0.8058(2)
Ag2B Ag 1.57239(8) 1.0728(2) 0.7500
Ag1_2 Ag 1.91952(6) 0.2500 0.5000
Ag2C Ag 1.42761(8) -0.0728(2) 0.2500
loop_
_geom_bond_atom_site_label_1
_geom_bond_atom_site_label_2
_geom_bond_site_symmetry_1
_geom_bond_site_symmetry_2
Ag1 N4 1_555 1_555
Ag2 O1 1_555 1_555
N1 O1 1_555 1_555
O1 Ag2B 1_555 1_555
O2 N1 1_555 1_555
O3 N1 1_555 1_555
C1 H1 1_555 1_555
C2 C1 1_555 1_555
H2 C2 1_555 1_555
C3 C2 1_555 1_555
C4 C3 1_555 1_555
C5 C4 1_555 1_555
C6 C5 1_555 1_555
H3 C6 1_555 1_555
C7 C6 1_555 1_555
H4 C7 1_555 1_555
C8 C7 1_555 1_555
C9 H5 1_555 1_555
C10 C9 1_555 1_555
H6 C10 1_555 1_555
C11 C10 1_555 1_555
C12 C11 1_555 1_555
H7 C12 1_555 1_555
C13 C12 1_555 1_555
H8 C13 1_555 1_555
C14 C8 1_555 1_555
C15 C14 1_555 1_555
C16 C15 1_555 1_555
H9 C16 1_555 1_555
C17 C16 1_555 1_555
H10 C17 1_555 1_555
C18 C17 1_555 1_555
C19 C18 1_555 1_555
C20 H11 1_555 1_555
C21 C20 1_555 1_555
H12 C21 1_555 1_555
C22 C19 1_555 1_555
N2 C5 1_555 1_555
N3 C15 1_555 1_555
N4 C21 1_555 1_555
N5 C1 1_555 1_555
N6 Ag2 1_555 1_555
C2F C3 1_555 1_555
C1F N5 1_555 1_555
H1F C1F 1_555 1_555
H2F C2F 1_555 1_555
C18F C19 1_555 1_555
C17F C18F 1_555 1_555
C16F C17F 1_555 1_555
C15F C16F 1_555 1_555
C14F C15F 1_555 1_555
C8F C14F 1_555 1_555
C7F C8F 1_555 1_555
C6F C7F 1_555 1_555
C5F C4 1_555 1_555
N2F C8F 1_555 1_555
H3F C6F 1_555 1_555
H4F C7F 1_555 1_555
C11F C14F 1_555 1_555
C10F C11F 1_555 1_555
C9F C10F 1_555 1_555
H5F C9F 1_555 1_555
N6F C9F 1_555 1_555
C13F N6F 1_555 1_555
C12F C11F 1_555 1_555
H7F C12F 1_555 1_555
H8F C13F 1_555 1_555
H6F C10F 1_555 1_555
N3F C18F 1_555 1_555
H9F C16F 1_555 1_555
H10F C17F 1_555 1_555
C21F N4 1_555 1_555
C20F C22 1_555 1_555
H11F C20F 1_555 1_555
H12F C21F 1_555 1_555
N5_2 Ag1 1_555 1_555
O1B Ag2 1_555 1_555
N6A Ag2 1_555 1_555
Ag1_2 N5 1_555 1_555
Ag2C N6F 1_555 1_555
C8 N2 1_555 1_555
C9 N6 1_555 1_555
C11 C14 1_555 1_555
C13 N6 1_555 1_555
C18 N3 1_555 1_555
C20 C22 1_555 1_555
C2F C1F 1_555 1_555
C15F N3F 1_555 1_555
C6F C5F 1_555 1_555
C5F N2F 1_555 1_555
C13F C12F 1_555 1_555
C21F C20F 1_555 1_555

#END
