
#######################################################################
#
#                 Cambridge Crystallographic Data Centre
#                                CCDC 
#
#######################################################################
#
# If this CIF has been generated from an entry in the Cambridge 
# Structural Database, then it will include bibliographic, chemical, 
# crystal, experimental, refinement or atomic coordinate data resulting 
# from the CCDC's data processing and validation procedures.
#
#######################################################################

data_TUSGUJ
_symmetry_cell_setting           tetragonal
_symmetry_space_group_name_H-M   'I 4/m c m'
_symmetry_Int_Tables_number      140
_space_group_name_Hall           '-I 4 2c'
loop_
_symmetry_equiv_pos_site_id
_symmetry_equiv_pos_as_xyz
1 x,y,z
2 y,x,1/2-z
3 y,-x,z
4 -y,x,z
5 1/2+x,1/2+y,1/2+z
6 1/2+y,1/2+x,-z
7 1/2+y,1/2-x,1/2+z
8 1/2-y,1/2+x,1/2+z
9 -x,-y,z
10 x,-y,1/2-z
11 -x,y,1/2-z
12 -y,-x,1/2-z
13 1/2-x,1/2-y,1/2+z
14 1/2+x,1/2-y,-z
15 1/2-x,1/2+y,-z
16 1/2-y,1/2-x,-z
17 -x,-y,-z
18 -y,-x,1/2+z
19 -y,x,-z
20 y,-x,-z
21 1/2-x,1/2-y,1/2-z
22 1/2-y,1/2-x,z
23 1/2-y,1/2+x,1/2-z
24 1/2+y,1/2-x,1/2-z
25 x,y,-z
26 -x,y,1/2+z
27 x,-y,1/2+z
28 y,x,1/2+z
29 1/2+x,1/2+y,1/2-z
30 1/2-x,1/2+y,z
31 1/2+x,1/2-y,z
32 1/2+y,1/2+x,z
_cell_length_a                   39.1689(19)
_cell_length_b                   39.1689(19)
_cell_length_c                   28.991(2)
_cell_angle_alpha                90
_cell_angle_beta                 90
_cell_angle_gamma                90
_cell_volume                     44478.1
loop_
_atom_site_label
_atom_site_type_symbol
_atom_site_fract_x
_atom_site_fract_y
_atom_site_fract_z
Zn1 Zn 0.0000 0.0000 0.0000
Zn2 Zn 0.18785(3) 0.16877(3) 0.0000
Zn3 Zn -0.07459(4) 0.42541(4) 0.0000
Ag1 Ag 0.06042(3) 0.30806(3) 0.23925(3)
C1 C 0.1203(2) 0.2546(2) 0.0225(2)
H1 H 0.1081 0.2691 0.0417
C2 C 0.1430(2) 0.2275(2) 0.0367(3)
C3 C 0.1516(2) 0.2186(2) 0.0835(3)
C4 C 0.1749(2) 0.1953(2) 0.0973(3)
C5 C 0.1829(2) 0.1874(2) 0.1449(3)
H2 H 0.1732 0.1977 0.1707
C6 C 0.2064(2) 0.1627(2) 0.1453(3)
H3 H 0.2159 0.1522 0.1711
C7 C 0.2138(2) 0.1558(2) 0.0988(3)
C8 C 0.23745(19) 0.13143(19) 0.0832(3)
C9 C 0.2464(2) 0.12350(18) 0.0378(3)
C10 C 0.2721(2) 0.0997(2) 0.0230(2)
H4 H 0.2861 0.0867 0.0419
C11 C -0.0014(2) 0.3448(2) 0.0223(2)
H5 H 0.0132 0.3324 0.0413
C12 C -0.0289(2) 0.3683(2) 0.0377(3)
C13 C -0.0379(2) 0.3747(2) 0.0837(3)
C14 C -0.0621(2) 0.3968(2) 0.0975(2)
C15 C -0.0746(2) 0.4009(2) 0.1455(3)
H6 H -0.0669 0.3888 0.1711
C16 C 0.0315(3) 0.0725(3) 0.0000
C17 C 0.0679(3) 0.0575(3) 0.0000
C18 C 0.0742(4) 0.0222(3) 0.0000
C19 C 0.1085(4) 0.0110(3) 0.0000
H7 H 0.1279 0.0247 0.0000
C20 C 0.0239(4) 0.1078(3) 0.0000
H8 H 0.0390 0.1261 0.0000
N1 N 0.0936(3) 0.2737(3) 0.1880(4)
C21 C 0.1259(4) 0.2804(3) 0.1804(4)
H9 H 0.1363 0.2969 0.1986
C22 C 0.1459(3) 0.2640(3) 0.1462(4)
H10 H 0.1684 0.2704 0.1408
C23 C 0.1303(3) 0.2380(3) 0.1209(3)
C24 C 0.0964(3) 0.2306(3) 0.1278(4)
H11 H 0.0851 0.2144 0.1101
C25 C 0.0796(3) 0.2489(4) 0.1634(5)
H12 H 0.0571 0.2430 0.1700
N2 N 0.2885(3) 0.0798(3) 0.1961(3)
C26 C 0.3025(4) 0.1062(4) 0.1746(4)
H13 H 0.3235 0.1137 0.1855
C27 C 0.2886(3) 0.1239(3) 0.1369(4)
H14 H 0.3001 0.1419 0.1228
C28 C 0.2577(3) 0.1132(2) 0.1223(3)
C29 C 0.2421(3) 0.0864(3) 0.1434(4)
H15 H 0.2210 0.0786 0.1333
C30 C 0.2588(4) 0.0710(4) 0.1806(5)
H16 H 0.2476 0.0531 0.1954
C31 C 0.0045(3) 0.3115(3) 0.1648(5)
H17 H 0.0053 0.2880 0.1692
C32 C -0.0175(2) 0.3248(3) 0.1289(3)
H18 H -0.0318 0.3105 0.1121
C33 C -0.0165(2) 0.3580(3) 0.1210(3)
C34 C 0.0017(3) 0.3768(3) 0.1493(5)
H19 H 0.0015 0.4004 0.1459
C35 C 0.0211(3) 0.3629(4) 0.1838(4)
H20 H 0.0333 0.3777 0.2027
C36 C 0.1358(3) 0.1190(3) -0.0372(4)
H21 H 0.1450 0.1263 -0.0651
C37 C 0.1083(3) 0.0951(3) -0.0388(4)
H22 H 0.0995 0.0884 -0.0672
C38 C 0.0950(3) 0.0820(3) 0.0000
N3 N 0.1563(2) 0.2122(2) 0.0000
N4 N 0.19403(15) 0.17508(15) 0.07056(19)
N5 N 0.23127(19) 0.13697(19) 0.0000
N6 N -0.0442(2) 0.3821(2) 0.0000
N7 N -0.08077(18) 0.41923(18) 0.0689(3)
N8 N 0.0030(3) 0.0509(2) 0.0000
N9 N 0.0235(2) 0.3313(3) 0.1918(3)
N10 N 0.1486(2) 0.1310(2) 0.0000
O1 O -0.0367(3) 0.4633(3) 0.0000
C1X C 0.1203(2) 0.2546(2) -0.0225(2)
H1X H 0.1081 0.2691 -0.0417
C2X C 0.1430(2) 0.2275(2) -0.0367(3)
C3X C 0.1516(2) 0.2186(2) -0.0835(3)
C4X C 0.1749(2) 0.1953(2) -0.0973(3)
C5X C 0.1829(2) 0.1874(2) -0.1449(3)
H2X H 0.1732 0.1977 -0.1707
C6X C 0.2064(2) 0.1627(2) -0.1453(3)
H3X H 0.2159 0.1522 -0.1711
C7X C 0.2138(2) 0.1558(2) -0.0988(3)
C8X C 0.23745(19) 0.13143(19) -0.0832(3)
C9X C 0.2464(2) 0.12350(18) -0.0378(3)
C10X C 0.2721(2) 0.0997(2) -0.0230(2)
H4X H 0.2861 0.0867 -0.0419
C28X C 0.2577(3) 0.1132(2) -0.1223(3)
C27X C 0.2886(3) 0.1239(3) -0.1369(4)
C26X C 0.3025(4) 0.1062(4) -0.1746(4)
N2X N 0.2885(3) 0.0798(3) -0.1961(3)
C30X C 0.2588(4) 0.0710(4) -0.1806(5)
C29X C 0.2421(3) 0.0864(3) -0.1434(4)
H15X H 0.2210 0.0786 -0.1333
H16X H 0.2476 0.0531 -0.1954
H13X H 0.3235 0.1137 -0.1855
H14X H 0.3001 0.1419 -0.1228
N4X N 0.19403(15) 0.17508(15) -0.07056(19)
C23X C 0.1303(3) 0.2380(3) -0.1209(3)
C22X C 0.1459(3) 0.2640(3) -0.1462(4)
C21X C 0.1259(4) 0.2804(3) -0.1804(4)
N1X N 0.0936(3) 0.2737(3) -0.1880(4)
C25X C 0.0796(3) 0.2489(4) -0.1634(5)
C24X C 0.0964(3) 0.2306(3) -0.1278(4)
H11X H 0.0851 0.2144 -0.1101
H12X H 0.0571 0.2430 -0.1700
H9X H 0.1363 0.2969 -0.1986
H10X H 0.1684 0.2704 -0.1408
C11X C -0.0014(2) 0.3448(2) -0.0223(2)
H5X H 0.0132 0.3324 -0.0413
C12X C -0.0289(2) 0.3683(2) -0.0377(3)
C13X C -0.0379(2) 0.3747(2) -0.0837(3)
C14X C -0.0621(2) 0.3968(2) -0.0975(2)
C15X C -0.0746(2) 0.4009(2) -0.1455(3)
C15E C -0.0991(2) 0.4254(2) -0.1455(3)
C14E C -0.1032(2) 0.4379(2) -0.0975(2)
C13E C -0.1253(2) 0.4621(2) -0.0837(3)
C12E C -0.1317(2) 0.4711(2) -0.0377(3)
C11E C -0.1552(2) 0.4986(2) -0.0223(2)
C11EA C -0.1552(2) 0.4986(2) 0.0223(2)
H5EA H -0.1676 0.5132 0.0413
C12EA C -0.1317(2) 0.4711(2) 0.0377(3)
C13EA C -0.1253(2) 0.4621(2) 0.0837(3)
C14EA C -0.1032(2) 0.4379(2) 0.0975(2)
C15EA C -0.0991(2) 0.4254(2) 0.1455(3)
H6EA H -0.1112 0.4331 0.1711
C33EA C -0.1420(3) 0.4835(2) 0.1210(3)
C32EA C -0.1752(3) 0.4825(2) 0.1289(3)
C31EA C -0.1885(3) 0.5045(3) 0.1648(5)
H17EA H -0.2120 0.5053 0.1692
N9EA N -0.1687(3) 0.5235(2) 0.1918(3)
C35EA C -0.1371(4) 0.5211(3) 0.1838(4)
C34EA C -0.1232(3) 0.5017(3) 0.1493(5)
H19EA H -0.0996 0.5015 0.1459
H20EA H -0.1223 0.5333 0.2027
H18EA H -0.1895 0.4682 0.1121
N6EA N -0.1179(2) 0.4558(2) 0.0000
H5E H -0.1676 0.5132 -0.0413
C33E C -0.1420(3) 0.4835(2) -0.1210(3)
C32E C -0.1752(3) 0.4825(2) -0.1289(3)
C31E C -0.1885(3) 0.5045(3) -0.1648(5)
H17E H -0.2120 0.5053 -0.1692
N9E N -0.1687(3) 0.5235(2) -0.1918(3)
C35E C -0.1371(4) 0.5211(3) -0.1838(4)
C34E C -0.1232(3) 0.5017(3) -0.1493(5)
H19E H -0.0996 0.5015 -0.1459
H20E H -0.1223 0.5333 -0.2027
H18E H -0.1895 0.4682 -0.1121
N7E N -0.08077(18) 0.41923(18) -0.0689(3)
H6E H -0.1112 0.4331 -0.1711
H6X H -0.0669 0.3888 -0.1711
C33X C -0.0165(2) 0.3580(3) -0.1210(3)
C32X C -0.0175(2) 0.3248(3) -0.1289(3)
C31X C 0.0045(3) 0.3115(3) -0.1648(5)
H17X H 0.0053 0.2880 -0.1692
N9X N 0.0235(2) 0.3313(3) -0.1918(3)
C35X C 0.0211(3) 0.3629(4) -0.1838(4)
C34X C 0.0017(3) 0.3768(3) -0.1493(5)
H19X H 0.0015 0.4004 -0.1459
H20X H 0.0333 0.3777 -0.2027
H18X H -0.0318 0.3105 -0.1121
C20B C 0.1078(3) -0.0239(4) 0.0000
C16B C 0.0725(3) -0.0315(3) 0.0000
C17B C 0.0575(3) -0.0679(3) 0.0000
C18B C 0.0222(3) -0.0742(4) 0.0000
C19B C 0.0110(3) -0.1085(4) 0.0000
H7B H 0.0247 -0.1279 0.0000
C20H C -0.0239(4) -0.1078(3) 0.0000
C16H C -0.0315(3) -0.0725(3) 0.0000
C17H C -0.0679(3) -0.0575(3) 0.0000
C18H C -0.0742(4) -0.0222(3) 0.0000
C19H C -0.1085(4) -0.0110(3) 0.0000
H7H H -0.1279 -0.0247 0.0000
C20C C -0.1078(3) 0.0239(4) 0.0000
C16C C -0.0725(3) 0.0315(3) 0.0000
C17C C -0.0575(3) 0.0679(3) 0.0000
C18C C -0.0222(3) 0.0742(4) 0.0000
C19C C -0.0110(3) 0.1085(4) 0.0000
H7C H -0.0247 0.1279 0.0000
C38C C -0.0820(3) 0.0950(3) 0.0000
C37C C -0.0951(3) 0.1083(3) -0.0388(4)
C36C C -0.1190(3) 0.1358(3) -0.0372(4)
H21C H -0.1263 0.1450 -0.0651
N10C N -0.1310(2) 0.1486(2) 0.0000
C36R C -0.1190(3) 0.1358(3) 0.0372(4)
H21R H -0.1263 0.1450 0.0651
C37R C -0.0951(3) 0.1083(3) 0.0388(4)
H22R H -0.0884 0.0995 0.0672
H22C H -0.0884 0.0995 -0.0672
N8C N -0.0509(2) 0.0030(3) 0.0000
H8C H -0.1261 0.0390 0.0000
C38H C -0.0950(3) -0.0820(3) 0.0000
C37H C -0.1083(3) -0.0951(3) -0.0388(4)
C36H C -0.1358(3) -0.1190(3) -0.0372(4)
H21H H -0.1450 -0.1263 -0.0651
N10H N -0.1486(2) -0.1310(2) 0.0000
C36P C -0.1358(3) -0.1190(3) 0.0372(4)
H21P H -0.1450 -0.1263 0.0651
C37P C -0.1083(3) -0.0951(3) 0.0388(4)
H22P H -0.0995 -0.0884 0.0672
H22H H -0.0995 -0.0884 -0.0672
N8H N -0.0030(3) -0.0509(2) 0.0000
H8H H -0.0390 -0.1261 0.0000
C38B C 0.0820(3) -0.0950(3) 0.0000
C37B C 0.0951(3) -0.1083(3) -0.0388(4)
C36B C 0.1190(3) -0.1358(3) -0.0372(4)
H21B H 0.1263 -0.1450 -0.0651
N10B N 0.1310(2) -0.1486(2) 0.0000
C36S C 0.1190(3) -0.1358(3) 0.0372(4)
H21S H 0.1263 -0.1450 0.0651
C37S C 0.0951(3) -0.1083(3) 0.0388(4)
H22S H 0.0884 -0.0995 0.0672
H22B H 0.0884 -0.0995 -0.0672
N8B N 0.0509(2) -0.0030(3) 0.0000
H8B H 0.1261 -0.0390 0.0000
C36X C 0.1358(3) 0.1190(3) 0.0372(4)
H21X H 0.1450 0.1263 0.0651
C37X C 0.1083(3) 0.0951(3) 0.0388(4)
H22X H 0.0995 0.0884 0.0672
Zn2C Zn -0.16877(3) 0.18785(3) 0.0000
Zn2H Zn -0.18785(3) -0.16877(3) 0.0000
Zn2B Zn 0.16877(3) -0.18785(3) 0.0000
C1C C -0.2546(2) 0.1203(2) 0.0225(2)
H1C H -0.2691 0.1081 0.0417
C2C C -0.2275(2) 0.1430(2) 0.0367(3)
C3C C -0.2186(2) 0.1516(2) 0.0835(3)
C4C C -0.1953(2) 0.1749(2) 0.0973(3)
C5C C -0.1874(2) 0.1829(2) 0.1449(3)
H2C H -0.1977 0.1732 0.1707
C6C C -0.1627(2) 0.2064(2) 0.1453(3)
H3C H -0.1522 0.2159 0.1711
C7C C -0.1558(2) 0.2138(2) 0.0988(3)
C8C C -0.13143(19) 0.23745(19) 0.0832(3)
C9C C -0.12350(18) 0.2464(2) 0.0378(3)
C10C C -0.0997(2) 0.2721(2) 0.0230(2)
H4C H -0.0867 0.2861 0.0419
N1C N -0.2737(3) 0.0936(3) 0.1880(4)
C21C C -0.2804(3) 0.1259(4) 0.1804(4)
H9C H -0.2969 0.1363 0.1986
C22C C -0.2640(3) 0.1459(3) 0.1462(4)
H10C H -0.2704 0.1684 0.1408
C23C C -0.2380(3) 0.1303(3) 0.1209(3)
C24C C -0.2306(3) 0.0964(3) 0.1278(4)
H11C H -0.2144 0.0851 0.1101
C25C C -0.2489(4) 0.0796(3) 0.1634(5)
H12C H -0.2430 0.0571 0.1700
N2C N -0.0798(3) 0.2885(3) 0.1961(3)
C26C C -0.1062(4) 0.3025(4) 0.1746(4)
H13C H -0.1137 0.3235 0.1855
C27C C -0.1239(3) 0.2886(3) 0.1369(4)
H14C H -0.1419 0.3001 0.1228
C28C C -0.1132(2) 0.2577(3) 0.1223(3)
C29C C -0.0864(3) 0.2421(3) 0.1434(4)
H15C H -0.0786 0.2210 0.1333
C30C C -0.0710(4) 0.2588(4) 0.1806(5)
H16C H -0.0531 0.2476 0.1954
N3C N -0.2122(2) 0.1563(2) 0.0000
N4C N -0.17508(15) 0.19403(15) 0.07056(19)
N5C N -0.13697(19) 0.23127(19) 0.0000
C1R C -0.2546(2) 0.1203(2) -0.0225(2)
H1R H -0.2691 0.1081 -0.0417
C2R C -0.2275(2) 0.1430(2) -0.0367(3)
C3R C -0.2186(2) 0.1516(2) -0.0835(3)
C4R C -0.1953(2) 0.1749(2) -0.0973(3)
C5R C -0.1874(2) 0.1829(2) -0.1449(3)
H2R H -0.1977 0.1732 -0.1707
C6R C -0.1627(2) 0.2064(2) -0.1453(3)
H3R H -0.1522 0.2159 -0.1711
C7R C -0.1558(2) 0.2138(2) -0.0988(3)
C8R C -0.13143(19) 0.23745(19) -0.0832(3)
C9R C -0.12350(18) 0.2464(2) -0.0378(3)
C10R C -0.0997(2) 0.2721(2) -0.0230(2)
H4R H -0.0867 0.2861 -0.0419
C28R C -0.1132(2) 0.2577(3) -0.1223(3)
C27R C -0.1239(3) 0.2886(3) -0.1369(4)
C26R C -0.1062(4) 0.3025(4) -0.1746(4)
N2R N -0.0798(3) 0.2885(3) -0.1961(3)
C30R C -0.0710(4) 0.2588(4) -0.1806(5)
C29R C -0.0864(3) 0.2421(3) -0.1434(4)
H15R H -0.0786 0.2210 -0.1333
H16R H -0.0531 0.2476 -0.1954
H13R H -0.1137 0.3235 -0.1855
H14R H -0.1419 0.3001 -0.1228
N4R N -0.17508(15) 0.19403(15) -0.07056(19)
C23R C -0.2380(3) 0.1303(3) -0.1209(3)
C22R C -0.2640(3) 0.1459(3) -0.1462(4)
C21R C -0.2804(3) 0.1259(4) -0.1804(4)
N1R N -0.2737(3) 0.0936(3) -0.1880(4)
C25R C -0.2489(4) 0.0796(3) -0.1634(5)
C24R C -0.2306(3) 0.0964(3) -0.1278(4)
H11R H -0.2144 0.0851 -0.1101
H12R H -0.2430 0.0571 -0.1700
H9R H -0.2969 0.1363 -0.1986
H10R H -0.2704 0.1684 -0.1408
C1H C -0.1203(2) -0.2546(2) 0.0225(2)
H1H H -0.1081 -0.2691 0.0417
C2H C -0.1430(2) -0.2275(2) 0.0367(3)
C3H C -0.1516(2) -0.2186(2) 0.0835(3)
C4H C -0.1749(2) -0.1953(2) 0.0973(3)
C5H C -0.1829(2) -0.1874(2) 0.1449(3)
H2H H -0.1732 -0.1977 0.1707
C6H C -0.2064(2) -0.1627(2) 0.1453(3)
H3H H -0.2159 -0.1522 0.1711
C7H C -0.2138(2) -0.1558(2) 0.0988(3)
C8H C -0.23745(19) -0.13143(19) 0.0832(3)
C9H C -0.2464(2) -0.12350(18) 0.0378(3)
C10H C -0.2721(2) -0.0997(2) 0.0230(2)
H4H H -0.2861 -0.0867 0.0419
N1H N -0.0936(3) -0.2737(3) 0.1880(4)
C21H C -0.1259(4) -0.2804(3) 0.1804(4)
H9H H -0.1363 -0.2969 0.1986
C22H C -0.1459(3) -0.2640(3) 0.1462(4)
H10H H -0.1684 -0.2704 0.1408
C23H C -0.1303(3) -0.2380(3) 0.1209(3)
C24H C -0.0964(3) -0.2306(3) 0.1278(4)
H11H H -0.0851 -0.2144 0.1101
C25H C -0.0796(3) -0.2489(4) 0.1634(5)
H12H H -0.0571 -0.2430 0.1700
N2H N -0.2885(3) -0.0798(3) 0.1961(3)
C26H C -0.3025(4) -0.1062(4) 0.1746(4)
H13H H -0.3235 -0.1137 0.1855
C27H C -0.2886(3) -0.1239(3) 0.1369(4)
H14H H -0.3001 -0.1419 0.1228
C28H C -0.2577(3) -0.1132(2) 0.1223(3)
C29H C -0.2421(3) -0.0864(3) 0.1434(4)
H15H H -0.2210 -0.0786 0.1333
C30H C -0.2588(4) -0.0710(4) 0.1806(5)
H16H H -0.2476 -0.0531 0.1954
N3H N -0.1563(2) -0.2122(2) 0.0000
N4H N -0.19403(15) -0.17508(15) 0.07056(19)
N5H N -0.23127(19) -0.13697(19) 0.0000
C1P C -0.1203(2) -0.2546(2) -0.0225(2)
H1P H -0.1081 -0.2691 -0.0417
C2P C -0.1430(2) -0.2275(2) -0.0367(3)
C3P C -0.1516(2) -0.2186(2) -0.0835(3)
C4P C -0.1749(2) -0.1953(2) -0.0973(3)
C5P C -0.1829(2) -0.1874(2) -0.1449(3)
H2P H -0.1732 -0.1977 -0.1707
C6P C -0.2064(2) -0.1627(2) -0.1453(3)
H3P H -0.2159 -0.1522 -0.1711
C7P C -0.2138(2) -0.1558(2) -0.0988(3)
C8P C -0.23745(19) -0.13143(19) -0.0832(3)
C9P C -0.2464(2) -0.12350(18) -0.0378(3)
C10P C -0.2721(2) -0.0997(2) -0.0230(2)
H4P H -0.2861 -0.0867 -0.0419
C28P C -0.2577(3) -0.1132(2) -0.1223(3)
C27P C -0.2886(3) -0.1239(3) -0.1369(4)
C26P C -0.3025(4) -0.1062(4) -0.1746(4)
N2P N -0.2885(3) -0.0798(3) -0.1961(3)
C30P C -0.2588(4) -0.0710(4) -0.1806(5)
C29P C -0.2421(3) -0.0864(3) -0.1434(4)
H15P H -0.2210 -0.0786 -0.1333
H16P H -0.2476 -0.0531 -0.1954
H13P H -0.3235 -0.1137 -0.1855
H14P H -0.3001 -0.1419 -0.1228
N4P N -0.19403(15) -0.17508(15) -0.07056(19)
C23P C -0.1303(3) -0.2380(3) -0.1209(3)
C22P C -0.1459(3) -0.2640(3) -0.1462(4)
C21P C -0.1259(4) -0.2804(3) -0.1804(4)
N1P N -0.0936(3) -0.2737(3) -0.1880(4)
C25P C -0.0796(3) -0.2489(4) -0.1634(5)
C24P C -0.0964(3) -0.2306(3) -0.1278(4)
H11P H -0.0851 -0.2144 -0.1101
H12P H -0.0571 -0.2430 -0.1700
H9P H -0.1363 -0.2969 -0.1986
H10P H -0.1684 -0.2704 -0.1408
C1B C 0.2546(2) -0.1203(2) 0.0225(2)
H1B H 0.2691 -0.1081 0.0417
C2B C 0.2275(2) -0.1430(2) 0.0367(3)
C3B C 0.2186(2) -0.1516(2) 0.0835(3)
C4B C 0.1953(2) -0.1749(2) 0.0973(3)
C5B C 0.1874(2) -0.1829(2) 0.1449(3)
H2B H 0.1977 -0.1732 0.1707
C6B C 0.1627(2) -0.2064(2) 0.1453(3)
H3B H 0.1522 -0.2159 0.1711
C7B C 0.1558(2) -0.2138(2) 0.0988(3)
C8B C 0.13143(19) -0.23745(19) 0.0832(3)
C9B C 0.12350(18) -0.2464(2) 0.0378(3)
C10B C 0.0997(2) -0.2721(2) 0.0230(2)
H4B H 0.0867 -0.2861 0.0419
N1B N 0.2737(3) -0.0936(3) 0.1880(4)
C21B C 0.2804(3) -0.1259(4) 0.1804(4)
H9B H 0.2969 -0.1363 0.1986
C22B C 0.2640(3) -0.1459(3) 0.1462(4)
H10B H 0.2704 -0.1684 0.1408
C23B C 0.2380(3) -0.1303(3) 0.1209(3)
C24B C 0.2306(3) -0.0964(3) 0.1278(4)
H11B H 0.2144 -0.0851 0.1101
C25B C 0.2489(4) -0.0796(3) 0.1634(5)
H12B H 0.2430 -0.0571 0.1700
N2B N 0.0798(3) -0.2885(3) 0.1961(3)
C26B C 0.1062(4) -0.3025(4) 0.1746(4)
H13B H 0.1137 -0.3235 0.1855
C27B C 0.1239(3) -0.2886(3) 0.1369(4)
H14B H 0.1419 -0.3001 0.1228
C28B C 0.1132(2) -0.2577(3) 0.1223(3)
C29B C 0.0864(3) -0.2421(3) 0.1434(4)
H15B H 0.0786 -0.2210 0.1333
C30B C 0.0710(4) -0.2588(4) 0.1806(5)
H16B H 0.0531 -0.2476 0.1954
N3B N 0.2122(2) -0.1563(2) 0.0000
N4B N 0.17508(15) -0.19403(15) 0.07056(19)
N5B N 0.13697(19) -0.23127(19) 0.0000
C1S C 0.2546(2) -0.1203(2) -0.0225(2)
H1S H 0.2691 -0.1081 -0.0417
C2S C 0.2275(2) -0.1430(2) -0.0367(3)
C3S C 0.2186(2) -0.1516(2) -0.0835(3)
C4S C 0.1953(2) -0.1749(2) -0.0973(3)
C5S C 0.1874(2) -0.1829(2) -0.1449(3)
H2S H 0.1977 -0.1732 -0.1707
C6S C 0.1627(2) -0.2064(2) -0.1453(3)
H3S H 0.1522 -0.2159 -0.1711
C7S C 0.1558(2) -0.2138(2) -0.0988(3)
C8S C 0.13143(19) -0.23745(19) -0.0832(3)
C9S C 0.12350(18) -0.2464(2) -0.0378(3)
C10S C 0.0997(2) -0.2721(2) -0.0230(2)
H4S H 0.0867 -0.2861 -0.0419
C28S C 0.1132(2) -0.2577(3) -0.1223(3)
C27S C 0.1239(3) -0.2886(3) -0.1369(4)
C26S C 0.1062(4) -0.3025(4) -0.1746(4)
N2S N 0.0798(3) -0.2885(3) -0.1961(3)
C30S C 0.0710(4) -0.2588(4) -0.1806(5)
C29S C 0.0864(3) -0.2421(3) -0.1434(4)
H15S H 0.0786 -0.2210 -0.1333
H16S H 0.0531 -0.2476 -0.1954
H13S H 0.1137 -0.3235 -0.1855
H14S H 0.1419 -0.3001 -0.1228
N4S N 0.17508(15) -0.19403(15) -0.07056(19)
C23S C 0.2380(3) -0.1303(3) -0.1209(3)
C22S C 0.2640(3) -0.1459(3) -0.1462(4)
C21S C 0.2804(3) -0.1259(4) -0.1804(4)
N1S N 0.2737(3) -0.0936(3) -0.1880(4)
C25S C 0.2489(4) -0.0796(3) -0.1634(5)
C24S C 0.2306(3) -0.0964(3) -0.1278(4)
H11S H 0.2144 -0.0851 -0.1101
H12S H 0.2430 -0.0571 -0.1700
H9S H 0.2969 -0.1363 -0.1986
H10S H 0.2704 -0.1684 -0.1408
Ag1X Ag 0.06042(3) 0.30806(3) -0.23925(3)
Ag1C Ag -0.30806(3) 0.06042(3) 0.23925(3)
Ag1R Ag -0.30806(3) 0.06042(3) -0.23925(3)
Ag1H Ag -0.06042(3) -0.30806(3) 0.23925(3)
Ag1P Ag -0.06042(3) -0.30806(3) -0.23925(3)
Ag1B Ag 0.30806(3) -0.06042(3) 0.23925(3)
Ag1S Ag 0.30806(3) -0.06042(3) -0.23925(3)
C11C C -0.3448(2) -0.0014(2) 0.0223(2)
H5C H -0.3324 0.0132 0.0413
C12C C -0.3683(2) -0.0289(2) 0.0377(3)
C13C C -0.3747(2) -0.0379(2) 0.0837(3)
C14C C -0.3968(2) -0.0621(2) 0.0975(2)
C15C C -0.4009(2) -0.0746(2) 0.1455(3)
H6C H -0.3888 -0.0669 0.1711
C31C C -0.3115(3) 0.0045(3) 0.1648(5)
H17C H -0.2880 0.0053 0.1692
C32C C -0.3248(3) -0.0175(2) 0.1289(3)
H18C H -0.3105 -0.0318 0.1121
C33C C -0.3580(3) -0.0165(2) 0.1210(3)
C34C C -0.3768(3) 0.0017(3) 0.1493(5)
H19C H -0.4004 0.0015 0.1459
C35C C -0.3629(4) 0.0211(3) 0.1838(4)
H20C H -0.3777 0.0333 0.2027
N6C N -0.3821(2) -0.0442(2) 0.0000
N7C N -0.41923(18) -0.08077(18) 0.0689(3)
N9C N -0.3313(3) 0.0235(2) 0.1918(3)
C11R C -0.3448(2) -0.0014(2) -0.0223(2)
H5R H -0.3324 0.0132 -0.0413
C12R C -0.3683(2) -0.0289(2) -0.0377(3)
C13R C -0.3747(2) -0.0379(2) -0.0837(3)
C14R C -0.3968(2) -0.0621(2) -0.0975(2)
C15R C -0.4009(2) -0.0746(2) -0.1455(3)
C15N C -0.4254(2) -0.0991(2) -0.1455(3)
C14N C -0.4379(2) -0.1032(2) -0.0975(2)
C13N C -0.4621(2) -0.1253(2) -0.0837(3)
C12N C -0.4711(2) -0.1317(2) -0.0377(3)
C11N C -0.4986(2) -0.1552(2) -0.0223(2)
C11CA C -0.4986(2) -0.1552(2) 0.0223(2)
H5CA H -0.5132 -0.1676 0.0413
C12CA C -0.4711(2) -0.1317(2) 0.0377(3)
C13CA C -0.4621(2) -0.1253(2) 0.0837(3)
C14CA C -0.4379(2) -0.1032(2) 0.0975(2)
C15CA C -0.4254(2) -0.0991(2) 0.1455(3)
H6CA H -0.4331 -0.1112 0.1711
C33CA C -0.4835(2) -0.1420(3) 0.1210(3)
C32CA C -0.4825(2) -0.1752(3) 0.1289(3)
C31CA C -0.5045(3) -0.1885(3) 0.1648(5)
H17CA H -0.5053 -0.2120 0.1692
N9CA N -0.5235(2) -0.1687(3) 0.1918(3)
C35CA C -0.5211(3) -0.1371(4) 0.1838(4)
C34CA C -0.5017(3) -0.1232(3) 0.1493(5)
H19CA H -0.5015 -0.0996 0.1459
H20CA H -0.5333 -0.1223 0.2027
H18CA H -0.4682 -0.1895 0.1121
N6CA N -0.4558(2) -0.1179(2) 0.0000
H5N H -0.5132 -0.1676 -0.0413
C33N C -0.4835(2) -0.1420(3) -0.1210(3)
C32N C -0.4825(2) -0.1752(3) -0.1289(3)
C31N C -0.5045(3) -0.1885(3) -0.1648(5)
H17N H -0.5053 -0.2120 -0.1692
N9N N -0.5235(2) -0.1687(3) -0.1918(3)
C35N C -0.5211(3) -0.1371(4) -0.1838(4)
C34N C -0.5017(3) -0.1232(3) -0.1493(5)
H19N H -0.5015 -0.0996 -0.1459
H20N H -0.5333 -0.1223 -0.2027
H18N H -0.4682 -0.1895 -0.1121
N7N N -0.41923(18) -0.08077(18) -0.0689(3)
H6N H -0.4331 -0.1112 -0.1711
H6R H -0.3888 -0.0669 -0.1711
C33R C -0.3580(3) -0.0165(2) -0.1210(3)
C32R C -0.3248(3) -0.0175(2) -0.1289(3)
C31R C -0.3115(3) 0.0045(3) -0.1648(5)
H17R H -0.2880 0.0053 -0.1692
N9R N -0.3313(3) 0.0235(2) -0.1918(3)
C35R C -0.3629(4) 0.0211(3) -0.1838(4)
C34R C -0.3768(3) 0.0017(3) -0.1493(5)
H19R H -0.4004 0.0015 -0.1459
H20R H -0.3777 0.0333 -0.2027
H18R H -0.3105 -0.0318 -0.1121
Zn3C Zn -0.42541(4) -0.07459(4) 0.0000
O1C O -0.4633(3) -0.0367(3) 0.0000
N2A N 0.0798(3) 0.2885(3) 0.3039(3)
Ag1A Ag 0.30806(3) 0.06042(3) 0.26075(3)
Ag1AA Ag 0.30806(3) 0.06042(3) -0.26075(3)
Ag1EA Ag -0.19194(3) 0.56042(3) 0.23925(3)
Ag1E Ag -0.19194(3) 0.56042(3) -0.23925(3)
Ag1J Ag -0.06042(3) 0.30806(3) 0.26075(3)
Ag1Y Ag -0.06042(3) 0.30806(3) -0.26075(3)
Ag1K Ag -0.30806(3) -0.06042(3) 0.26075(3)
Ag1Q Ag -0.30806(3) -0.06042(3) -0.26075(3)
Ag1I Ag 0.06042(3) -0.30806(3) 0.26075(3)
Ag1Z Ag 0.06042(3) -0.30806(3) -0.26075(3)
N2AA N 0.0798(3) 0.2885(3) -0.3039(3)
N2J N -0.2885(3) 0.0798(3) 0.3039(3)
N2Y N -0.2885(3) 0.0798(3) -0.3039(3)
N2K N -0.0798(3) -0.2885(3) 0.3039(3)
N9H N -0.0235(2) -0.3313(3) 0.1918(3)
N2Q N -0.0798(3) -0.2885(3) -0.3039(3)
N9P N -0.0235(2) -0.3313(3) -0.1918(3)
N2I N 0.2885(3) -0.0798(3) 0.3039(3)
N9B N 0.3313(3) -0.0235(2) 0.1918(3)
N2Z N 0.2885(3) -0.0798(3) -0.3039(3)
N9S N 0.3313(3) -0.0235(2) -0.1918(3)
Ag1CA Ag -0.56042(3) -0.19194(3) 0.23925(3)
Ag1N Ag -0.56042(3) -0.19194(3) -0.23925(3)
N11 N 0.3795(3) 0.1205(3) 0.2594(6)
O2 O 0.4099(3) 0.1284(3) 0.2560(4)
O3 O 0.3574(3) 0.1426(3) 0.2546(9)
O2U O 0.3716(3) 0.0901(3) 0.2560(4)
loop_
_geom_bond_atom_site_label_1
_geom_bond_atom_site_label_2
_geom_bond_site_symmetry_1
_geom_bond_site_symmetry_2
Zn1 N8 1_555 1_555
Zn2 N3 1_555 1_555
Zn3 N6 1_555 1_555
Ag1 N1 1_555 1_555
C1 H1 1_555 1_555
C2 C1 1_555 1_555
C3 C2 1_555 1_555
C4 C3 1_555 1_555
C5 C4 1_555 1_555
H2 C5 1_555 1_555
C6 C5 1_555 1_555
H3 C6 1_555 1_555
C7 C6 1_555 1_555
C8 C7 1_555 1_555
C9 C8 1_555 1_555
C10 C9 1_555 1_555
H4 C10 1_555 1_555
C11 H5 1_555 1_555
C12 C11 1_555 1_555
C13 C12 1_555 1_555
C14 C13 1_555 1_555
C15 C14 1_555 1_555
H6 C15 1_555 1_555
C16 C17 1_555 1_555
C17 C18 1_555 1_555
C18 C19 1_555 1_555
C19 H7 1_555 1_555
C20 C16 1_555 1_555
H8 C20 1_555 1_555
N1 C21 1_555 1_555
C21 H9 1_555 1_555
C22 C21 1_555 1_555
H10 C22 1_555 1_555
C23 C3 1_555 1_555
C24 C23 1_555 1_555
H11 C24 1_555 1_555
C25 N1 1_555 1_555
H12 C25 1_555 1_555
N2 C26 1_555 1_555
C26 H13 1_555 1_555
C27 C26 1_555 1_555
H14 C27 1_555 1_555
C28 C8 1_555 1_555
C29 C28 1_555 1_555
H15 C29 1_555 1_555
C30 N2 1_555 1_555
H16 C30 1_555 1_555
C31 H17 1_555 1_555
C32 C31 1_555 1_555
H18 C32 1_555 1_555
C33 C13 1_555 1_555
C34 C33 1_555 1_555
H19 C34 1_555 1_555
C35 C34 1_555 1_555
H20 C35 1_555 1_555
C36 H21 1_555 1_555
C37 C36 1_555 1_555
H22 C37 1_555 1_555
C38 C17 1_555 1_555
N3 C2 1_555 1_555
N4 Zn2 1_555 1_555
N5 Zn2 1_555 1_555
N6 C12 1_555 1_555
N7 Zn3 1_555 1_555
N8 C16 1_555 1_555
N9 Ag1 1_555 1_555
N10 Zn2 1_555 1_555
O1 Zn3 1_555 1_555
N11 O2 1_555 1_555
O3 N11 1_555 1_555
C1X C1 1_555 1_555
H1X C1X 1_555 1_555
C2X N3 1_555 1_555
C3X C2X 1_555 1_555
C4X C3X 1_555 1_555
C5X C4X 1_555 1_555
H2X C5X 1_555 1_555
C6X C5X 1_555 1_555
H3X C6X 1_555 1_555
C7X C6X 1_555 1_555
C8X C7X 1_555 1_555
C9X N5 1_555 1_555
C10X C10 1_555 1_555
H4X C10X 1_555 1_555
C28X C8X 1_555 1_555
C27X C28X 1_555 1_555
C26X C27X 1_555 1_555
N2X C26X 1_555 1_555
C30X N2X 1_555 1_555
C29X C28X 1_555 1_555
H15X C29X 1_555 1_555
H16X C30X 1_555 1_555
H13X C26X 1_555 1_555
H14X C27X 1_555 1_555
N4X Zn2 1_555 1_555
C23X C3X 1_555 1_555
C22X C23X 1_555 1_555
C21X C22X 1_555 1_555
N1X C21X 1_555 1_555
C25X N1X 1_555 1_555
C24X C23X 1_555 1_555
H11X C24X 1_555 1_555
H12X C25X 1_555 1_555
H9X C21X 1_555 1_555
H10X C22X 1_555 1_555
C11X C11 1_555 1_555
H5X C11X 1_555 1_555
C12X N6 1_555 1_555
C13X C12X 1_555 1_555
C14X C13X 1_555 1_555
C15X C14X 1_555 1_555
C15E C15X 1_555 1_555
C14E C15E 1_555 1_555
C13E C14E 1_555 1_555
C12E C13E 1_555 1_555
C11E C12E 1_555 1_555
C11EA C11E 1_555 1_555
H5EA C11EA 1_555 1_555
C12EA C11EA 1_555 1_555
C13EA C12EA 1_555 1_555
C14EA N7 1_555 1_555
C15EA C15 1_555 1_555
H6EA C15EA 1_555 1_555
C33EA C13EA 1_555 1_555
C32EA C33EA 1_555 1_555
C31EA C32EA 1_555 1_555
H17EA C31EA 1_555 1_555
N9EA C31EA 1_555 1_555
C35EA N9EA 1_555 1_555
C34EA C33EA 1_555 1_555
H19EA C34EA 1_555 1_555
H20EA C35EA 1_555 1_555
H18EA C32EA 1_555 1_555
N6EA Zn3 1_555 1_555
H5E C11E 1_555 1_555
C33E C13E 1_555 1_555
C32E C33E 1_555 1_555
C31E C32E 1_555 1_555
H17E C31E 1_555 1_555
N9E C31E 1_555 1_555
C35E N9E 1_555 1_555
C34E C33E 1_555 1_555
H19E C34E 1_555 1_555
H20E C35E 1_555 1_555
H18E C32E 1_555 1_555
N7E Zn3 1_555 1_555
H6E C15E 1_555 1_555
H6X C15X 1_555 1_555
C33X C13X 1_555 1_555
C32X C33X 1_555 1_555
C31X C32X 1_555 1_555
H17X C31X 1_555 1_555
N9X C31X 1_555 1_555
C35X N9X 1_555 1_555
C34X C33X 1_555 1_555
H19X C34X 1_555 1_555
H20X C35X 1_555 1_555
H18X C32X 1_555 1_555
C20B C19 1_555 1_555
C16B C20B 1_555 1_555
C17B C16B 1_555 1_555
C18B C17B 1_555 1_555
C19B C18B 1_555 1_555
H7B C19B 1_555 1_555
C20H C19B 1_555 1_555
C16H C20H 1_555 1_555
C17H C16H 1_555 1_555
C18H C17H 1_555 1_555
C19H C18H 1_555 1_555
H7H C19H 1_555 1_555
C20C C19H 1_555 1_555
C16C C20C 1_555 1_555
C17C C16C 1_555 1_555
C18C N8 1_555 1_555
C19C C20 1_555 1_555
H7C C19C 1_555 1_555
C38C C17C 1_555 1_555
C37C C38C 1_555 1_555
C36C C37C 1_555 1_555
H21C C36C 1_555 1_555
N10C C36C 1_555 1_555
C36R N10C 1_555 1_555
H21R C36R 1_555 1_555
C37R C38C 1_555 1_555
H22R C37R 1_555 1_555
H22C C37C 1_555 1_555
N8C Zn1 1_555 1_555
H8C C20C 1_555 1_555
C38H C17H 1_555 1_555
C37H C38H 1_555 1_555
C36H C37H 1_555 1_555
H21H C36H 1_555 1_555
N10H C36H 1_555 1_555
C36P N10H 1_555 1_555
H21P C36P 1_555 1_555
C37P C38H 1_555 1_555
H22P C37P 1_555 1_555
H22H C37H 1_555 1_555
N8H Zn1 1_555 1_555
H8H C20H 1_555 1_555
C38B C17B 1_555 1_555
C37B C38B 1_555 1_555
C36B C37B 1_555 1_555
H21B C36B 1_555 1_555
N10B C36B 1_555 1_555
C36S N10B 1_555 1_555
H21S C36S 1_555 1_555
C37S C38B 1_555 1_555
H22S C37S 1_555 1_555
H22B C37B 1_555 1_555
N8B Zn1 1_555 1_555
H8B C20B 1_555 1_555
C36X N10 1_555 1_555
H21X C36X 1_555 1_555
C37X C38 1_555 1_555
H22X C37X 1_555 1_555
Zn2C N10C 1_555 1_555
Zn2H N10H 1_555 1_555
Zn2B N10B 1_555 1_555
C1C H1C 1_555 1_555
C2C C1C 1_555 1_555
C3C C2C 1_555 1_555
C4C C3C 1_555 1_555
C5C C4C 1_555 1_555
H2C C5C 1_555 1_555
C6C C5C 1_555 1_555
H3C C6C 1_555 1_555
C7C C6C 1_555 1_555
C8C C7C 1_555 1_555
C9C C8C 1_555 1_555
C10C C9C 1_555 1_555
H4C C10C 1_555 1_555
N1C C21C 1_555 1_555
C21C H9C 1_555 1_555
C22C C21C 1_555 1_555
H10C C22C 1_555 1_555
C23C C3C 1_555 1_555
C24C C23C 1_555 1_555
H11C C24C 1_555 1_555
C25C N1C 1_555 1_555
H12C C25C 1_555 1_555
N2C C26C 1_555 1_555
C26C H13C 1_555 1_555
C27C C26C 1_555 1_555
H14C C27C 1_555 1_555
C28C C8C 1_555 1_555
C29C C28C 1_555 1_555
H15C C29C 1_555 1_555
C30C N2C 1_555 1_555
H16C C30C 1_555 1_555
N3C Zn2C 1_555 1_555
N4C Zn2C 1_555 1_555
N5C Zn2C 1_555 1_555
C1R C1C 1_555 1_555
H1R C1R 1_555 1_555
C2R N3C 1_555 1_555
C3R C2R 1_555 1_555
C4R C3R 1_555 1_555
C5R C4R 1_555 1_555
H2R C5R 1_555 1_555
C6R C5R 1_555 1_555
H3R C6R 1_555 1_555
C7R C6R 1_555 1_555
C8R C7R 1_555 1_555
C9R N5C 1_555 1_555
C10R C10C 1_555 1_555
H4R C10R 1_555 1_555
C28R C8R 1_555 1_555
C27R C28R 1_555 1_555
C26R C27R 1_555 1_555
N2R C26R 1_555 1_555
C30R N2R 1_555 1_555
C29R C28R 1_555 1_555
H15R C29R 1_555 1_555
H16R C30R 1_555 1_555
H13R C26R 1_555 1_555
H14R C27R 1_555 1_555
N4R Zn2C 1_555 1_555
C23R C3R 1_555 1_555
C22R C23R 1_555 1_555
C21R C22R 1_555 1_555
N1R C21R 1_555 1_555
C25R N1R 1_555 1_555
C24R C23R 1_555 1_555
H11R C24R 1_555 1_555
H12R C25R 1_555 1_555
H9R C21R 1_555 1_555
H10R C22R 1_555 1_555
C1H H1H 1_555 1_555
C2H C1H 1_555 1_555
C3H C2H 1_555 1_555
C4H C3H 1_555 1_555
C5H C4H 1_555 1_555
H2H C5H 1_555 1_555
C6H C5H 1_555 1_555
H3H C6H 1_555 1_555
C7H C6H 1_555 1_555
C8H C7H 1_555 1_555
C9H C8H 1_555 1_555
C10H C9H 1_555 1_555
H4H C10H 1_555 1_555
N1H C21H 1_555 1_555
C21H H9H 1_555 1_555
C22H C21H 1_555 1_555
H10H C22H 1_555 1_555
C23H C3H 1_555 1_555
C24H C23H 1_555 1_555
H11H C24H 1_555 1_555
C25H N1H 1_555 1_555
H12H C25H 1_555 1_555
N2H C26H 1_555 1_555
C26H H13H 1_555 1_555
C27H C26H 1_555 1_555
H14H C27H 1_555 1_555
C28H C8H 1_555 1_555
C29H C28H 1_555 1_555
H15H C29H 1_555 1_555
C30H N2H 1_555 1_555
H16H C30H 1_555 1_555
N3H Zn2H 1_555 1_555
N4H Zn2H 1_555 1_555
N5H Zn2H 1_555 1_555
C1P C1H 1_555 1_555
H1P C1P 1_555 1_555
C2P N3H 1_555 1_555
C3P C2P 1_555 1_555
C4P C3P 1_555 1_555
C5P C4P 1_555 1_555
H2P C5P 1_555 1_555
C6P C5P 1_555 1_555
H3P C6P 1_555 1_555
C7P C6P 1_555 1_555
C8P C7P 1_555 1_555
C9P N5H 1_555 1_555
C10P C10H 1_555 1_555
H4P C10P 1_555 1_555
C28P C8P 1_555 1_555
C27P C28P 1_555 1_555
C26P C27P 1_555 1_555
N2P C26P 1_555 1_555
C30P N2P 1_555 1_555
C29P C28P 1_555 1_555
H15P C29P 1_555 1_555
H16P C30P 1_555 1_555
H13P C26P 1_555 1_555
H14P C27P 1_555 1_555
N4P Zn2H 1_555 1_555
C23P C3P 1_555 1_555
C22P C23P 1_555 1_555
C21P C22P 1_555 1_555
N1P C21P 1_555 1_555
C25P N1P 1_555 1_555
C24P C23P 1_555 1_555
H11P C24P 1_555 1_555
H12P C25P 1_555 1_555
H9P C21P 1_555 1_555
H10P C22P 1_555 1_555
C1B H1B 1_555 1_555
C2B C1B 1_555 1_555
C3B C2B 1_555 1_555
C4B C3B 1_555 1_555
C5B C4B 1_555 1_555
H2B C5B 1_555 1_555
C6B C5B 1_555 1_555
H3B C6B 1_555 1_555
C7B C6B 1_555 1_555
C8B C7B 1_555 1_555
C9B C8B 1_555 1_555
C10B C9B 1_555 1_555
H4B C10B 1_555 1_555
N1B C21B 1_555 1_555
C21B H9B 1_555 1_555
C22B C21B 1_555 1_555
H10B C22B 1_555 1_555
C23B C3B 1_555 1_555
C24B C23B 1_555 1_555
H11B C24B 1_555 1_555
C25B N1B 1_555 1_555
H12B C25B 1_555 1_555
N2B C26B 1_555 1_555
C26B H13B 1_555 1_555
C27B C26B 1_555 1_555
H14B C27B 1_555 1_555
C28B C8B 1_555 1_555
C29B C28B 1_555 1_555
H15B C29B 1_555 1_555
C30B N2B 1_555 1_555
H16B C30B 1_555 1_555
N3B Zn2B 1_555 1_555
N4B Zn2B 1_555 1_555
N5B Zn2B 1_555 1_555
C1S C1B 1_555 1_555
H1S C1S 1_555 1_555
C2S N3B 1_555 1_555
C3S C2S 1_555 1_555
C4S C3S 1_555 1_555
C5S C4S 1_555 1_555
H2S C5S 1_555 1_555
C6S C5S 1_555 1_555
H3S C6S 1_555 1_555
C7S C6S 1_555 1_555
C8S C7S 1_555 1_555
C9S N5B 1_555 1_555
C10S C10B 1_555 1_555
H4S C10S 1_555 1_555
C28S C8S 1_555 1_555
C27S C28S 1_555 1_555
C26S C27S 1_555 1_555
N2S C26S 1_555 1_555
C30S N2S 1_555 1_555
C29S C28S 1_555 1_555
H15S C29S 1_555 1_555
H16S C30S 1_555 1_555
H13S C26S 1_555 1_555
H14S C27S 1_555 1_555
N4S Zn2B 1_555 1_555
C23S C3S 1_555 1_555
C22S C23S 1_555 1_555
C21S C22S 1_555 1_555
N1S C21S 1_555 1_555
C25S N1S 1_555 1_555
C24S C23S 1_555 1_555
H11S C24S 1_555 1_555
H12S C25S 1_555 1_555
H9S C21S 1_555 1_555
H10S C22S 1_555 1_555
Ag1X N1X 1_555 1_555
Ag1C N1C 1_555 1_555
Ag1R N1R 1_555 1_555
Ag1H N1H 1_555 1_555
Ag1P N1P 1_555 1_555
Ag1B N1B 1_555 1_555
Ag1S N1S 1_555 1_555
C11C H5C 1_555 1_555
C12C C11C 1_555 1_555
C13C C12C 1_555 1_555
C14C C13C 1_555 1_555
C15C C14C 1_555 1_555
H6C C15C 1_555 1_555
C31C H17C 1_555 1_555
C32C C31C 1_555 1_555
H18C C32C 1_555 1_555
C33C C13C 1_555 1_555
C34C C33C 1_555 1_555
H19C C34C 1_555 1_555
C35C C34C 1_555 1_555
H20C C35C 1_555 1_555
N6C C12C 1_555 1_555
N7C C14C 1_555 1_555
N9C Ag1C 1_555 1_555
C11R C11C 1_555 1_555
H5R C11R 1_555 1_555
C12R N6C 1_555 1_555
C13R C12R 1_555 1_555
C14R C13R 1_555 1_555
C15R C14R 1_555 1_555
C15N C15R 1_555 1_555
C14N C15N 1_555 1_555
C13N C14N 1_555 1_555
C12N C13N 1_555 1_555
C11N C12N 1_555 1_555
C11CA C11N 1_555 1_555
H5CA C11CA 1_555 1_555
C12CA C11CA 1_555 1_555
C13CA C12CA 1_555 1_555
C14CA N7C 1_555 1_555
C15CA C15C 1_555 1_555
H6CA C15CA 1_555 1_555
C33CA C13CA 1_555 1_555
C32CA C33CA 1_555 1_555
C31CA C32CA 1_555 1_555
H17CA C31CA 1_555 1_555
N9CA C31CA 1_555 1_555
C35CA N9CA 1_555 1_555
C34CA C33CA 1_555 1_555
H19CA C34CA 1_555 1_555
H20CA C35CA 1_555 1_555
H18CA C32CA 1_555 1_555
N6CA C12N 1_555 1_555
H5N C11N 1_555 1_555
C33N C13N 1_555 1_555
C32N C33N 1_555 1_555
C31N C32N 1_555 1_555
H17N C31N 1_555 1_555
N9N C31N 1_555 1_555
C35N N9N 1_555 1_555
C34N C33N 1_555 1_555
H19N C34N 1_555 1_555
H20N C35N 1_555 1_555
H18N C32N 1_555 1_555
N7N C14R 1_555 1_555
H6N C15N 1_555 1_555
H6R C15R 1_555 1_555
C33R C13R 1_555 1_555
C32R C33R 1_555 1_555
C31R C32R 1_555 1_555
H17R C31R 1_555 1_555
N9R Ag1R 1_555 1_555
C35R N9R 1_555 1_555
C34R C33R 1_555 1_555
H19R C34R 1_555 1_555
H20R C35R 1_555 1_555
H18R C32R 1_555 1_555
Zn3C N6C 1_555 1_555
O1C Zn3C 1_555 1_555
N2A Ag1 1_555 1_555
Ag1A N2 1_555 1_555
Ag1AA N2X 1_555 1_555
Ag1EA N9EA 1_555 1_555
Ag1E N9E 1_555 1_555
Ag1J N2C 1_555 1_555
Ag1Y N2R 1_555 1_555
Ag1K N2H 1_555 1_555
Ag1Q N2P 1_555 1_555
Ag1I N2B 1_555 1_555
Ag1Z N2S 1_555 1_555
N2AA Ag1X 1_555 1_555
N2J Ag1C 1_555 1_555
N2Y Ag1R 1_555 1_555
N2K Ag1H 1_555 1_555
N9H Ag1H 1_555 1_555
N2Q Ag1P 1_555 1_555
N9P Ag1P 1_555 1_555
N2I Ag1B 1_555 1_555
N9B Ag1B 1_555 1_555
N2Z Ag1S 1_555 1_555
N9S Ag1S 1_555 1_555
Ag1CA N9CA 1_555 1_555
Ag1N N9N 1_555 1_555
O2U N11 1_555 1_555
C4 N4 1_555 1_555
C7 N4 1_555 1_555
C9 N5 1_555 1_555
C14 N7 1_555 1_555
C18 N8B 1_555 1_555
C22 C23 1_555 1_555
C24 C25 1_555 1_555
C27 C28 1_555 1_555
C29 C30 1_555 1_555
C31 N9 1_555 1_555
C32 C33 1_555 1_555
C35 N9 1_555 1_555
C36 N10 1_555 1_555
C37 C38 1_555 1_555
C1X C2X 1_555 1_555
C4X N4X 1_555 1_555
C7X N4X 1_555 1_555
C8X C9X 1_555 1_555
C9X C10X 1_555 1_555
C30X C29X 1_555 1_555
C25X C24X 1_555 1_555
C11X C12X 1_555 1_555
C14X N7E 1_555 1_555
C14E N7E 1_555 1_555
C12E N6EA 1_555 1_555
C12EA N6EA 1_555 1_555
C13EA C14EA 1_555 1_555
C14EA C15EA 1_555 1_555
C35EA C34EA 1_555 1_555
C35E C34E 1_555 1_555
N9X Ag1X 1_555 1_555
C35X C34X 1_555 1_555
C16B N8B 1_555 1_555
C18B N8H 1_555 1_555
C16H N8H 1_555 1_555
C18H N8C 1_555 1_555
C16C N8C 1_555 1_555
C17C C18C 1_555 1_555
C18C C19C 1_555 1_555
C36R C37R 1_555 1_555
C36P C37P 1_555 1_555
C36S C37S 1_555 1_555
C36X C37X 1_555 1_555
C2C N3C 1_555 1_555
C4C N4C 1_555 1_555
C7C N4C 1_555 1_555
C9C N5C 1_555 1_555
C22C C23C 1_555 1_555
C24C C25C 1_555 1_555
C27C C28C 1_555 1_555
C29C C30C 1_555 1_555
C1R C2R 1_555 1_555
C4R N4R 1_555 1_555
C7R N4R 1_555 1_555
C8R C9R 1_555 1_555
C9R C10R 1_555 1_555
C30R C29R 1_555 1_555
C25R C24R 1_555 1_555
C2H N3H 1_555 1_555
C4H N4H 1_555 1_555
C7H N4H 1_555 1_555
C9H N5H 1_555 1_555
C22H C23H 1_555 1_555
C24H C25H 1_555 1_555
C27H C28H 1_555 1_555
C29H C30H 1_555 1_555
C1P C2P 1_555 1_555
C4P N4P 1_555 1_555
C7P N4P 1_555 1_555
C8P C9P 1_555 1_555
C9P C10P 1_555 1_555
C30P C29P 1_555 1_555
C25P C24P 1_555 1_555
C2B N3B 1_555 1_555
C4B N4B 1_555 1_555
C7B N4B 1_555 1_555
C9B N5B 1_555 1_555
C22B C23B 1_555 1_555
C24B C25B 1_555 1_555
C27B C28B 1_555 1_555
C29B C30B 1_555 1_555
C1S C2S 1_555 1_555
C4S N4S 1_555 1_555
C7S N4S 1_555 1_555
C8S C9S 1_555 1_555
C9S C10S 1_555 1_555
C30S C29S 1_555 1_555
C25S C24S 1_555 1_555
C31C N9C 1_555 1_555
C32C C33C 1_555 1_555
C35C N9C 1_555 1_555
N7C Zn3C 1_555 1_555
C11R C12R 1_555 1_555
C14N N7N 1_555 1_555
C12CA N6CA 1_555 1_555
C13CA C14CA 1_555 1_555
C14CA C15CA 1_555 1_555
C35CA C34CA 1_555 1_555
N6CA Zn3C 1_555 1_555
C35N C34N 1_555 1_555
N7N Zn3C 1_555 1_555
C31R N9R 1_555 1_555
C35R C34R 1_555 1_555

#END
