
#######################################################################
#
#                 Cambridge Crystallographic Data Centre
#                                CCDC 
#
#######################################################################
#
# If this CIF has been generated from an entry in the Cambridge 
# Structural Database, then it will include bibliographic, chemical, 
# crystal, experimental, refinement or atomic coordinate data resulting 
# from the CCDC's data processing and validation procedures.
#
#######################################################################

data_TUSHAQ
_symmetry_cell_setting           triclinic
_symmetry_space_group_name_H-M   'P -1'
_symmetry_Int_Tables_number      2
_space_group_name_Hall           '-P 1'
loop_
_symmetry_equiv_pos_site_id
_symmetry_equiv_pos_as_xyz
1 x,y,z
2 -x,-y,-z
_cell_length_a                   6.5177(12)
_cell_length_b                   10.445(2)
_cell_length_c                   17.908(3)
_cell_angle_alpha                83.753(7)
_cell_angle_beta                 83.487(9)
_cell_angle_gamma                77.243(8)
_cell_volume                     1176.94
loop_
_atom_site_label
_atom_site_type_symbol
_atom_site_fract_x
_atom_site_fract_y
_atom_site_fract_z
Ag1 Ag 0.5000 0.0000 0.0000
C1 C 0.0886(6) -0.2989(4) 0.4724(2)
C2 C -0.0051(6) -0.2017(4) 0.4155(3)
H1 H -0.1392 -0.1476 0.4200
C3 C 0.1355(6) -0.2035(4) 0.3554(3)
H2 H 0.1179 -0.1513 0.3101
C4 C 0.3208(6) -0.3019(4) 0.3737(2)
C5 C 0.5076(6) -0.3266(4) 0.3264(2)
C6 C 0.6939(6) -0.4166(4) 0.3431(2)
C7 C 0.8774(7) -0.4506(5) 0.2916(3)
H3 H 0.8982 -0.4124 0.2427
C8 C 1.0145(7) -0.5475(4) 0.3265(3)
H4 H 1.1456 -0.5899 0.3054
C9 C 0.9248(6) -0.5744(4) 0.4015(2)
C10 C -0.0083(6) -0.3265(4) 0.5447(2)
C11 C 0.5083(7) -0.2532(4) 0.2493(3)
C12 C 0.6307(8) -0.1603(5) 0.2300(3)
H5 H 0.7140 -0.1423 0.2647
C13 C 0.6289(9) -0.0952(7) 0.1598(3)
H6 H 0.7158 -0.0349 0.1473
C14 C 0.3892(10) -0.1992(7) 0.1277(3)
H7 H 0.3011 -0.2116 0.0930
C15 C 0.3862(9) -0.2725(6) 0.1969(3)
H8 H 0.3014 -0.3342 0.2074
C16 C -0.2150(6) -0.2387(4) 0.5674(2)
C17 C -0.2285(7) -0.1047(4) 0.5714(3)
H9 H -0.1093 -0.0686 0.5599
C18 C -0.4200(7) -0.0270(5) 0.5927(3)
H10 H -0.4264 0.0628 0.5933
C19 C -0.5820(7) -0.1979(5) 0.6084(3)
H11 H -0.7042 -0.2306 0.6210
C20 C -0.3964(6) -0.2865(5) 0.5866(3)
H12 H -0.3953 -0.3753 0.5850
N1 N 0.2881(4) -0.3588(3) 0.44540(18)
N2 N 0.7289(5) -0.4924(3) 0.40930(18)
N3 N 0.5089(8) -0.1136(5) 0.1085(3)
N4 N -0.5956(6) -0.0695(4) 0.6122(3)
C10A C 1.0083(6) -0.6735(4) 0.4553(2)
C1A C 0.9114(6) -0.7011(4) 0.5276(2)
C2A C 1.0051(6) -0.7983(4) 0.5845(3)
H1A H 1.1392 -0.8524 0.5800
C3A C 0.8645(6) -0.7965(4) 0.6446(3)
H2A H 0.8821 -0.8487 0.6899
C4A C 0.6792(6) -0.6981(4) 0.6263(2)
C5A C 0.4924(6) -0.6734(4) 0.6736(2)
C6A C 0.3061(6) -0.5834(4) 0.6569(2)
C7A C 0.1226(7) -0.5494(5) 0.7084(3)
H3A H 0.1018 -0.5876 0.7573
C8A C -0.0145(7) -0.4525(4) 0.6735(3)
H4A H -0.1456 -0.4101 0.6946
C9A C 0.0752(6) -0.4256(4) 0.5985(2)
N2A N 0.2711(5) -0.5076(3) 0.59070(18)
C11A C 0.4917(7) -0.7468(4) 0.7507(3)
C12A C 0.3693(8) -0.8397(5) 0.7700(3)
H5A H 0.2860 -0.8577 0.7353
C13A C 0.3711(9) -0.9048(7) 0.8402(3)
H6A H 0.2842 -0.9651 0.8527
N3A N 0.4911(8) -0.8864(5) 0.8915(3)
C14A C 0.6108(10) -0.8008(7) 0.8723(3)
H7A H 0.6989 -0.7884 0.9070
C15A C 0.6138(9) -0.7275(6) 0.8031(3)
H8A H 0.6986 -0.6658 0.7926
N1A N 0.7119(4) -0.6412(3) 0.55460(18)
C16A C 1.2150(6) -0.7613(4) 0.4326(2)
C17A C 1.2285(7) -0.8953(4) 0.4286(3)
H9A H 1.1093 -0.9314 0.4401
C18A C 1.4200(7) -0.9730(5) 0.4073(3)
H10A H 1.4264 -1.0628 0.4067
N4A N 1.5956(6) -0.9305(4) 0.3878(3)
C19A C 1.5820(7) -0.8021(5) 0.3916(3)
H11A H 1.7042 -0.7694 0.3790
C20A C 1.3964(6) -0.7135(5) 0.4134(3)
H12A H 1.3953 -0.6247 0.4150
N3A_2 N 0.4911(8) 0.1136(5) -0.1085(3)
Ag1_2 Ag 0.5000 -1.0000 1.0000
loop_
_geom_bond_atom_site_label_1
_geom_bond_atom_site_label_2
_geom_bond_site_symmetry_1
_geom_bond_site_symmetry_2
Ag1 N3 1_555 1_555
C1 C2 1_555 1_555
C2 H1 1_555 1_555
C3 C2 1_555 1_555
H2 C3 1_555 1_555
C4 C3 1_555 1_555
C5 C4 1_555 1_555
C6 C5 1_555 1_555
C7 C6 1_555 1_555
H3 C7 1_555 1_555
C8 C7 1_555 1_555
H4 C8 1_555 1_555
C9 C8 1_555 1_555
C10 C1 1_555 1_555
C11 C5 1_555 1_555
C12 C11 1_555 1_555
H5 C12 1_555 1_555
C13 C12 1_555 1_555
H6 C13 1_555 1_555
C14 H7 1_555 1_555
C15 C11 1_555 1_555
H8 C15 1_555 1_555
C16 C10 1_555 1_555
C17 C16 1_555 1_555
H9 C17 1_555 1_555
C18 C17 1_555 1_555
H10 C18 1_555 1_555
C19 H11 1_555 1_555
C20 C16 1_555 1_555
H12 C20 1_555 1_555
N1 C1 1_555 1_555
N2 C6 1_555 1_555
N3 C13 1_555 1_555
N4 C18 1_555 1_555
C10A C9 1_555 1_555
C1A C10A 1_555 1_555
C2A C1A 1_555 1_555
H1A C2A 1_555 1_555
C3A C2A 1_555 1_555
H2A C3A 1_555 1_555
C4A C3A 1_555 1_555
C5A C4A 1_555 1_555
C6A C5A 1_555 1_555
C7A C6A 1_555 1_555
H3A C7A 1_555 1_555
C8A C7A 1_555 1_555
H4A C8A 1_555 1_555
C9A C10 1_555 1_555
N2A C6A 1_555 1_555
C11A C5A 1_555 1_555
C12A C11A 1_555 1_555
H5A C12A 1_555 1_555
C13A C12A 1_555 1_555
H6A C13A 1_555 1_555
N3A C13A 1_555 1_555
C14A N3A 1_555 1_555
H7A C14A 1_555 1_555
C15A C11A 1_555 1_555
H8A C15A 1_555 1_555
N1A C1A 1_555 1_555
C16A C10A 1_555 1_555
C17A C16A 1_555 1_555
H9A C17A 1_555 1_555
C18A C17A 1_555 1_555
H10A C18A 1_555 1_555
N4A C18A 1_555 1_555
C19A N4A 1_555 1_555
H11A C19A 1_555 1_555
C20A C16A 1_555 1_555
H12A C20A 1_555 1_555
N3A_2 Ag1 1_555 1_555
Ag1_2 N3A 1_555 1_555
C4 N1 1_555 1_555
C9 N2 1_555 1_555
C14 N3 1_555 1_555
C14 C15 1_555 1_555
C19 N4 1_555 1_555
C19 C20 1_555 1_555
C4A N1A 1_555 1_555
C8A C9A 1_555 1_555
C9A N2A 1_555 1_555
C14A C15A 1_555 1_555
C19A C20A 1_555 1_555

#END
