
#######################################################################
#
#                 Cambridge Crystallographic Data Centre
#                                CCDC 
#
#######################################################################
#
# If this CIF has been generated from an entry in the Cambridge 
# Structural Database, then it will include bibliographic, chemical, 
# crystal, experimental, refinement or atomic coordinate data resulting 
# from the CCDC's data processing and validation procedures.
#
#######################################################################

data_TUSKUN
_symmetry_cell_setting           orthorhombic
_symmetry_space_group_name_H-M   'P n n a'
_symmetry_Int_Tables_number      52
_space_group_name_Hall           '-P 2a 2bc'
loop_
_symmetry_equiv_pos_site_id
_symmetry_equiv_pos_as_xyz
1 x,y,z
2 1/2+x,y,-z
3 1/2+x,1/2-y,1/2+z
4 -x,1/2+y,1/2+z
5 -x,-y,-z
6 1/2-x,-y,z
7 1/2-x,1/2+y,1/2-z
8 x,1/2-y,1/2-z
_cell_length_a                   14.2977(3)
_cell_length_b                   15.1059(3)
_cell_length_c                   8.0009(1)
_cell_angle_alpha                90
_cell_angle_beta                 90
_cell_angle_gamma                90
_cell_volume                     1728.03
loop_
_atom_site_label
_atom_site_type_symbol
_atom_site_fract_x
_atom_site_fract_y
_atom_site_fract_z
Zn1 Zn 0.74674(3) 0.2500 0.2500
S1 S 0.64503(7) 0.18850(7) 0.06039(15)
O1 O 0.7998(2) 0.14379(19) -0.0953(3)
C1 C 0.7156(3) 0.1437(2) -0.0956(5)
C2 C 0.6631(4) 0.1019(4) -0.2419(7)
H1 H 0.6127 0.1401 -0.2751
H2 H 0.6385 0.0455 -0.2085
H3 H 0.7052 0.0940 -0.3342
N1 N 0.83934(15) 0.34164(14) 0.1544(3)
C3 C 0.8923(3) 0.3261(2) 0.0236(5)
H4 H 0.8869 0.2714 -0.0290
C4 C 0.9554(2) 0.3859(2) -0.0404(4)
H5 H 0.9912 0.3709 -0.1332
C5 C 0.96577(16) 0.46673(15) 0.0315(3)
C6 C 0.9109(3) 0.4834(2) 0.1663(5)
H6 H 0.9146 0.5379 0.2199
C7 C 0.8500(3) 0.4201(2) 0.2237(5)
H7 H 0.8141 0.4334 0.3173
C5D C 1.03423(16) 0.53327(15) -0.0315(3)
C4D C 1.0446(2) 0.6141(2) 0.0404(4)
C3D C 1.1077(3) 0.6739(2) -0.0236(5)
N1D N 1.16066(15) 0.65836(14) -0.1544(3)
C7D C 1.1500(3) 0.5799(2) -0.2237(5)
C6D C 1.0891(3) 0.5166(2) -0.1663(5)
H6D H 1.0854 0.4621 -0.2199
H7D H 1.1859 0.5666 -0.3173
H4D H 1.1131 0.7286 0.0290
H5D H 1.0088 0.6291 0.1332
S1G S 0.64503(7) 0.31150(7) 0.43961(15)
O1G O 0.7998(2) 0.35621(19) 0.5953(3)
C1G C 0.7156(3) 0.3563(2) 0.5956(5)
C2G C 0.6631(4) 0.3981(4) 0.7419(7)
H1G H 0.6127 0.3599 0.7751
H2G H 0.6385 0.4545 0.7085
H3G H 0.7052 0.4060 0.8342
N1G N 0.83934(15) 0.15836(14) 0.3456(3)
Zn1C Zn 1.25326(3) 0.7500 -0.2500
loop_
_geom_bond_atom_site_label_1
_geom_bond_atom_site_label_2
_geom_bond_site_symmetry_1
_geom_bond_site_symmetry_2
Zn1 S1 1_555 1_555
S1 C1 1_555 1_555
O1 C1 1_555 1_555
C1 C2 1_555 1_555
C2 H1 1_555 1_555
H2 C2 1_555 1_555
H3 C2 1_555 1_555
N1 Zn1 1_555 1_555
C3 N1 1_555 1_555
H4 C3 1_555 1_555
C4 C3 1_555 1_555
H5 C4 1_555 1_555
C5 C4 1_555 1_555
C6 C5 1_555 1_555
H6 C6 1_555 1_555
C7 N1 1_555 1_555
H7 C7 1_555 1_555
C5D C5 1_555 1_555
C4D C5D 1_555 1_555
C3D C4D 1_555 1_555
N1D C3D 1_555 1_555
C7D N1D 1_555 1_555
C6D C5D 1_555 1_555
H6D C6D 1_555 1_555
H7D C7D 1_555 1_555
H4D C3D 1_555 1_555
H5D C4D 1_555 1_555
S1G Zn1 1_555 1_555
O1G C1G 1_555 1_555
C1G S1G 1_555 1_555
C2G C1G 1_555 1_555
H1G C2G 1_555 1_555
H2G C2G 1_555 1_555
H3G C2G 1_555 1_555
N1G Zn1 1_555 1_555
Zn1C N1D 1_555 1_555
C6 C7 1_555 1_555
C7D C6D 1_555 1_555

#END
