
#######################################################################
#
#                 Cambridge Crystallographic Data Centre
#                                CCDC 
#
#######################################################################
#
# If this CIF has been generated from an entry in the Cambridge 
# Structural Database, then it will include bibliographic, chemical, 
# crystal, experimental, refinement or atomic coordinate data resulting 
# from the CCDC's data processing and validation procedures.
#
#######################################################################

data_TUSKIC
_symmetry_cell_setting           orthorhombic
_symmetry_space_group_name_H-M   'P 21 21 21'
_symmetry_Int_Tables_number      19
_space_group_name_Hall           'P 2ac 2ab'
loop_
_symmetry_equiv_pos_site_id
_symmetry_equiv_pos_as_xyz
1 x,y,z
2 1/2-x,-y,1/2+z
3 -x,1/2+y,1/2-z
4 1/2+x,1/2-y,-z
_cell_length_a                   6.978(2)
_cell_length_b                   9.341(2)
_cell_length_c                   21.172(4)
_cell_angle_alpha                90
_cell_angle_beta                 90
_cell_angle_gamma                90
_cell_volume                     1380.02
loop_
_atom_site_label
_atom_site_type_symbol
_atom_site_fract_x
_atom_site_fract_y
_atom_site_fract_z
Ca1 Ca 0.57235(12) 0.83806(9) 0.47771(4)
P1 P 0.56964(14) 1.54113(12) 0.54541(5)
O1 O 0.5794(5) 1.3802(3) 0.51977(15)
O2 O 0.5698(5) 1.1094(3) 0.48997(14)
O3 O 0.5667(5) 0.9856(3) 0.38070(15)
H1 H 0.559(7) 0.977(5) 0.345(3)
O4 O 0.7463(4) 1.6249(3) 0.52995(15)
O5 O 0.5553(5) 1.5028(3) 0.61698(15)
H2 H 0.5371 1.5778 0.6380
O6 O 0.3958(4) 1.6154(3) 0.51920(16)
C1 C 0.5660(7) 1.3500(4) 0.4541(2)
H3 H 0.6767 1.3920 0.4315
H4 H 0.4471 1.3919 0.4366
C2 C 0.5644(6) 1.1900(4) 0.44585(19)
C3 C 0.5576(8) 1.1374(4) 0.3798(2)
H5 H 0.4373 1.1691 0.3593
H6 H 0.6669 1.1766 0.3555
O7 O 0.5429(5) 0.8954(3) 0.59111(14)
H7 H 0.585(8) 0.842(4) 0.6200(16)
H8 H 0.533(10) 0.980(2) 0.605(2)
O8 O 0.6497(5) 0.6832(4) 0.39003(17)
H9 H 0.756(10) 0.624(7) 0.394(3)
H10 H 0.584(11) 0.638(8) 0.360(3)
Ca1_2 Ca 0.57235(12) 1.83806(9) 0.47771(4)
Ca1C Ca 1.07235(12) 1.66194(9) 0.52229(4)
Ca1C_2 Ca 0.07235(12) 1.66194(9) 0.52229(4)
O4_2 O 0.7463(4) 0.6249(3) 0.52995(15)
O4C O 0.2463(4) 0.8751(3) 0.47005(15)
O6_2 O 0.3958(4) 0.6154(3) 0.51920(16)
O6C O 0.8958(4) 0.8846(3) 0.48080(16)
Br1 Br 0.48351(7) -0.03981(5) 0.22762(2)
O9 O 0.6434(6) 0.7122(4) 0.69217(17)
H11 H 0.739(12) 0.713(8) 0.707(4)
H12 H 0.538(8) 0.741(5) 0.722(2)
O10 O 0.6688(6) 0.2780(4) 0.73570(18)
H13 H 0.759(11) 0.218(7) 0.742(3)
H14 H 0.735(10) 0.365(8) 0.739(3)
O11 O 0.5091(6) 0.1725(3) 0.62203(16)
H15 H 0.531(9) 0.220(5) 0.590(3)
H16 H 0.504(11) 0.208(6) 0.660(3)
loop_
_geom_bond_atom_site_label_1
_geom_bond_atom_site_label_2
_geom_bond_site_symmetry_1
_geom_bond_site_symmetry_2
Ca1 O2 1_555 1_555
P1 O1 1_555 1_555
O1 C1 1_555 1_555
O2 C2 1_555 1_555
O3 Ca1 1_555 1_555
H1 O3 1_555 1_555
O4 P1 1_555 1_555
O5 P1 1_555 1_555
H2 O5 1_555 1_555
O6 P1 1_555 1_555
C1 H3 1_555 1_555
H4 C1 1_555 1_555
C2 C1 1_555 1_555
C3 O3 1_555 1_555
H5 C3 1_555 1_555
H6 C3 1_555 1_555
O7 Ca1 1_555 1_555
H7 O7 1_555 1_555
H8 O7 1_555 1_555
O8 Ca1 1_555 1_555
H9 O8 1_555 1_555
H10 O8 1_555 1_555
O9 H11 1_555 1_555
H12 O9 1_555 1_555
O10 H13 1_555 1_555
H14 O10 1_555 1_555
O11 H15 1_555 1_555
H16 O11 1_555 1_555
Ca1_2 O4 1_555 1_555
Ca1C O4 1_555 1_555
Ca1C_2 O6 1_555 1_555
O4_2 Ca1 1_555 1_555
O4C Ca1 1_555 1_555
O6_2 Ca1 1_555 1_555
O6C Ca1 1_555 1_555
O6 Ca1_2 1_555 1_555
C2 C3 1_555 1_555

#END
