
#######################################################################
#
#                 Cambridge Crystallographic Data Centre
#                                CCDC 
#
#######################################################################
#
# If this CIF has been generated from an entry in the Cambridge 
# Structural Database, then it will include bibliographic, chemical, 
# crystal, experimental, refinement or atomic coordinate data resulting 
# from the CCDC's data processing and validation procedures.
#
#######################################################################

data_TUSLAU
_symmetry_cell_setting           monoclinic
_symmetry_space_group_name_H-M   'P 21/c'
_symmetry_Int_Tables_number      14
_space_group_name_Hall           '-P 2ybc'
loop_
_symmetry_equiv_pos_site_id
_symmetry_equiv_pos_as_xyz
1 x,y,z
2 x,1/2-y,1/2+z
3 -x,-y,-z
4 -x,1/2+y,1/2-z
_cell_length_a                   11.5306(1)
_cell_length_b                   15.8303(2)
_cell_length_c                   12.2904(1)
_cell_angle_alpha                90
_cell_angle_beta                 98.135(1)
_cell_angle_gamma                90
_cell_volume                     2220.83
loop_
_atom_site_label
_atom_site_type_symbol
_atom_site_fract_x
_atom_site_fract_y
_atom_site_fract_z
Zn1 Zn 0.60198(3) 0.34032(2) 0.61757(3)
S1 S 0.67260(8) 0.21231(5) 0.68739(7)
S2 S 0.46336(7) 0.35488(5) 0.46528(7)
O1 O 0.7499(2) 0.23483(16) 0.4998(2)
O2 O 0.3530(3) 0.2883(3) 0.6129(2)
N1 N 0.7420(2) 0.41412(15) 0.5809(2)
C1 C 0.7441(3) 0.4454(3) 0.4823(3)
H1 H 0.6755 0.4440 0.4325
C2 C 0.8429(3) 0.4802(3) 0.4489(3)
H2 H 0.8391 0.5019 0.3781
C3 C 0.9454(2) 0.48324(18) 0.5178(2)
C4 C 0.9417(3) 0.4540(3) 0.6210(3)
H3 H 1.0083 0.4569 0.6734
C5 C 0.8398(3) 0.4199(3) 0.6488(3)
H4 H 0.8407 0.3998 0.7200
N2 N 0.5605(2) 0.40229(15) 0.75507(18)
C6 C 0.5249(3) 0.35720(18) 0.8364(2)
H5 H 0.5169 0.2990 0.8279
C7 C 0.4999(3) 0.39334(18) 0.9320(2)
H6 H 0.4746 0.3597 0.9860
C8 C 0.5122(2) 0.47965(17) 0.9482(2)
C9 C 0.5475(3) 0.52606(19) 0.8627(2)
H7 H 0.5557 0.5844 0.8687
C10 C 0.5703(3) 0.48550(19) 0.7691(2)
H8 H 0.5936 0.5178 0.7128
C11 C 0.7394(3) 0.1850(2) 0.5734(3)
C12 C 0.3447(3) 0.3140(2) 0.5195(3)
C13 C 0.7800(3) 0.0958(2) 0.5657(3)
C14 C 0.7657(3) 0.0352(2) 0.6433(4)
H9 H 0.7332 0.0498 0.7058
C15 C 0.7999(4) -0.0477(3) 0.6281(5)
H10 H 0.7918 -0.0887 0.6807
C16 C 0.8453(5) -0.0683(3) 0.5357(6)
H11 H 0.8670 -0.1239 0.5251
C17 C 0.8600(5) -0.0090(4) 0.4573(6)
H12 H 0.8917 -0.0244 0.3946
C18 C 0.8276(4) 0.0738(3) 0.4720(4)
H13 H 0.8376 0.1145 0.4196
C19 C 0.2299(3) 0.3098(2) 0.4448(3)
C20 C 0.1298(3) 0.2975(2) 0.4934(4)
H14 H 0.1353 0.2934 0.5694
C21 C 0.0214(4) 0.2913(3) 0.4285(7)
H15 H -0.0458 0.2832 0.4611
C22 C 0.0134(5) 0.2971(4) 0.3183(8)
H16 H -0.0594 0.2917 0.2754
C23 C 0.1112(6) 0.3108(3) 0.2682(5)
H17 H 0.1043 0.3161 0.1922
C24 C 0.2214(4) 0.3167(3) 0.3330(4)
H18 H 0.2883 0.3252 0.3001
C3B C 1.0546(2) 0.51676(18) 0.4822(2)
C2B C 1.1571(3) 0.5198(3) 0.5511(3)
C1B C 1.2559(3) 0.5546(3) 0.5177(3)
N1B N 1.2580(2) 0.58588(15) 0.4191(2)
C5B C 1.1602(3) 0.5801(3) 0.3512(3)
C4B C 1.0583(3) 0.5460(3) 0.3790(3)
H3B H 0.9917 0.5431 0.3266
H4B H 1.1593 0.6002 0.2800
H1B H 1.3245 0.5560 0.5675
H2B H 1.1609 0.4981 0.6219
C8B C 0.4878(2) 0.52035(17) 1.0518(2)
C7B C 0.5001(3) 0.60666(18) 1.0680(2)
C6B C 0.4751(3) 0.64280(18) 1.1636(2)
N2B N 0.4395(2) 0.59771(15) 1.24493(18)
C10B C 0.4297(3) 0.51450(19) 1.2309(2)
C9B C 0.4525(3) 0.47394(19) 1.1373(2)
H7B H 0.4443 0.4156 1.1313
H8B H 0.4064 0.4822 1.2872
H5B H 0.4831 0.7010 1.1721
H6B H 0.5254 0.6403 1.0140
Zn1B Zn 1.39802(3) 0.65968(2) 0.38243(3)
S1B S 1.32740(8) 0.78769(5) 0.31261(7)
O1B O 1.2501(2) 0.76517(16) 0.5002(2)
C11B C 1.2606(3) 0.8150(2) 0.4266(3)
C13B C 1.2200(3) 0.9042(2) 0.4343(3)
C14B C 1.2343(3) 0.9648(2) 0.3567(4)
H9B H 1.2668 0.9502 0.2942
C15B C 1.2001(4) 1.0477(3) 0.3719(5)
H10B H 1.2082 1.0887 0.3193
C16B C 1.1547(5) 1.0683(3) 0.4643(6)
H11B H 1.1330 1.1239 0.4749
C17B C 1.1400(5) 1.0090(4) 0.5427(6)
H12B H 1.1083 1.0244 0.6054
C18B C 1.1724(4) 0.9262(3) 0.5280(4)
H13B H 1.1624 0.8855 0.5804
S2B S 1.53664(7) 0.64512(5) 0.53472(7)
O2B O 1.6470(3) 0.7117(3) 0.3871(2)
C12B C 1.6553(3) 0.6860(2) 0.4805(3)
C19B C 1.7701(3) 0.6902(2) 0.5552(3)
C20B C 1.8702(3) 0.7025(2) 0.5066(4)
H14B H 1.8647 0.7066 0.4306
C21B C 1.9786(4) 0.7087(3) 0.5715(7)
H15B H 2.0458 0.7168 0.5389
C22B C 1.9866(5) 0.7029(4) 0.6817(8)
H16B H 2.0594 0.7083 0.7246
C23B C 1.8888(6) 0.6892(3) 0.7318(5)
H17B H 1.8957 0.6839 0.8078
C24B C 1.7786(4) 0.6833(3) 0.6670(4)
H18B H 1.7117 0.6748 0.6999
Zn1B_2 Zn 0.39802(3) 0.65968(2) 1.38243(3)
N2B_2 N 1.4395(2) 0.59771(15) 0.24493(18)
loop_
_geom_bond_atom_site_label_1
_geom_bond_atom_site_label_2
_geom_bond_site_symmetry_1
_geom_bond_site_symmetry_2
Zn1 S1 1_555 1_555
S1 C11 1_555 1_555
S2 Zn1 1_555 1_555
O1 C11 1_555 1_555
O2 C12 1_555 1_555
N1 Zn1 1_555 1_555
C1 N1 1_555 1_555
H1 C1 1_555 1_555
C2 C1 1_555 1_555
H2 C2 1_555 1_555
C3 C2 1_555 1_555
C4 C3 1_555 1_555
H3 C4 1_555 1_555
C5 N1 1_555 1_555
H4 C5 1_555 1_555
N2 Zn1 1_555 1_555
C6 N2 1_555 1_555
H5 C6 1_555 1_555
C7 C6 1_555 1_555
H6 C7 1_555 1_555
C8 C7 1_555 1_555
C9 C8 1_555 1_555
H7 C9 1_555 1_555
C10 N2 1_555 1_555
H8 C10 1_555 1_555
C11 C13 1_555 1_555
C12 S2 1_555 1_555
C13 C14 1_555 1_555
C14 H9 1_555 1_555
C15 C14 1_555 1_555
H10 C15 1_555 1_555
C16 C15 1_555 1_555
H11 C16 1_555 1_555
C17 C16 1_555 1_555
H12 C17 1_555 1_555
C18 C13 1_555 1_555
H13 C18 1_555 1_555
C19 C12 1_555 1_555
C20 C19 1_555 1_555
H14 C20 1_555 1_555
C21 C20 1_555 1_555
H15 C21 1_555 1_555
C22 C21 1_555 1_555
H16 C22 1_555 1_555
C23 C22 1_555 1_555
H17 C23 1_555 1_555
C24 C19 1_555 1_555
H18 C24 1_555 1_555
C3B C3 1_555 1_555
C2B C3B 1_555 1_555
C1B C2B 1_555 1_555
N1B C1B 1_555 1_555
C5B N1B 1_555 1_555
C4B C3B 1_555 1_555
H3B C4B 1_555 1_555
H4B C5B 1_555 1_555
H1B C1B 1_555 1_555
H2B C2B 1_555 1_555
C8B C8 1_555 1_555
C7B C8B 1_555 1_555
C6B C7B 1_555 1_555
N2B C6B 1_555 1_555
C10B N2B 1_555 1_555
C9B C8B 1_555 1_555
H7B C9B 1_555 1_555
H8B C10B 1_555 1_555
H5B C6B 1_555 1_555
H6B C7B 1_555 1_555
Zn1B N1B 1_555 1_555
S1B Zn1B 1_555 1_555
O1B C11B 1_555 1_555
C11B S1B 1_555 1_555
C13B C11B 1_555 1_555
C14B C13B 1_555 1_555
H9B C14B 1_555 1_555
C15B C14B 1_555 1_555
H10B C15B 1_555 1_555
C16B C15B 1_555 1_555
H11B C16B 1_555 1_555
C17B C16B 1_555 1_555
H12B C17B 1_555 1_555
C18B C13B 1_555 1_555
H13B C18B 1_555 1_555
S2B Zn1B 1_555 1_555
O2B C12B 1_555 1_555
C12B S2B 1_555 1_555
C19B C12B 1_555 1_555
C20B C19B 1_555 1_555
H14B C20B 1_555 1_555
C21B C20B 1_555 1_555
H15B C21B 1_555 1_555
C22B C21B 1_555 1_555
H16B C22B 1_555 1_555
C23B C22B 1_555 1_555
H17B C23B 1_555 1_555
C24B C19B 1_555 1_555
H18B C24B 1_555 1_555
Zn1B_2 N2B 1_555 1_555
N2B_2 Zn1B 1_555 1_555
C4 C5 1_555 1_555
C9 C10 1_555 1_555
C17 C18 1_555 1_555
C23 C24 1_555 1_555
C5B C4B 1_555 1_555
C10B C9B 1_555 1_555
C17B C18B 1_555 1_555
C23B C24B 1_555 1_555

#END
