
#######################################################################
#
#                 Cambridge Crystallographic Data Centre
#                                CCDC 
#
#######################################################################
#
# If this CIF has been generated from an entry in the Cambridge 
# Structural Database, then it will include bibliographic, chemical, 
# crystal, experimental, refinement or atomic coordinate data resulting 
# from the CCDC's data processing and validation procedures.
#
#######################################################################

data_TUSLIC
_symmetry_cell_setting           triclinic
_symmetry_space_group_name_H-M   'P -1'
_symmetry_Int_Tables_number      2
_space_group_name_Hall           '-P 1'
loop_
_symmetry_equiv_pos_site_id
_symmetry_equiv_pos_as_xyz
1 x,y,z
2 -x,-y,-z
_cell_length_a                   8.9514(1)
_cell_length_b                   9.8974(1)
_cell_length_c                   11.5914(1)
_cell_angle_alpha                108.509(1)
_cell_angle_beta                 103.966(1)
_cell_angle_gamma                99.443(1)
_cell_volume                     912.145
loop_
_atom_site_label
_atom_site_type_symbol
_atom_site_fract_x
_atom_site_fract_y
_atom_site_fract_z
Cd1 Cd 0.38638(2) 0.59745(2) 0.597421(14)
S1 S 0.50956(8) 0.73666(8) 0.83734(6)
S2 S 0.39270(7) 0.31108(6) 0.50045(5)
O1 O 0.2451(2) 0.5298(2) 0.7420(2)
O2 O 0.1922(2) 0.4277(2) 0.3918(2)
N1 N 0.2269(2) 0.7494(2) 0.5505(2)
C1 C 0.0827(3) 0.7029(2) 0.4620(2)
H1 H 0.0421(3) 0.6025(2) 0.4135(2)
C2 C -0.0083(3) 0.7970(2) 0.4395(2)
H2 H -0.1075(3) 0.7594(2) 0.3766(2)
C3 C 0.0475(2) 0.9473(2) 0.5100(2)
C4 C 0.1967(3) 0.9946(3) 0.6018(3)
H3 H 0.2400(3) 1.0945(3) 0.6517(3)
C5 C 0.2807(3) 0.8942(3) 0.6192(3)
H4 H 0.3800(3) 0.9289(3) 0.6818(3)
C6 C 0.3477(3) 0.6181(2) 0.8423(2)
C7 C 0.2257(3) 0.3101(2) 0.3831(2)
C8 C 0.3329(3) 0.6216(3) 0.9688(2)
C9 C 0.4255(4) 0.7335(4) 1.0844(3)
H5 H 0.5018(4) 0.8099(4) 1.0849(3)
C10 C 0.4054(4) 0.7325(4) 1.1989(3)
H6 H 0.4660(4) 0.8095(4) 1.2754(3)
C11 C 0.2965(4) 0.6184(4) 1.1999(3)
H7 H 0.2861(4) 0.6155(4) 1.2770(3)
C12 C 0.2031(5) 0.5086(4) 1.0864(4)
H8 H 0.1278(5) 0.4320(4) 1.0867(4)
C13 C 0.2195(4) 0.5105(3) 0.9715(3)
H9 H 0.1535(4) 0.4363(3) 0.8950(3)
C14 C 0.1215(3) 0.1706(2) 0.2802(2)
C15 C -0.0246(3) 0.1743(3) 0.2052(2)
H10 H -0.0511(3) 0.2637(3) 0.2173(2)
C16 C -0.1296(3) 0.0454(3) 0.1133(3)
H11 H -0.2272(3) 0.0481(3) 0.0642(3)
C17 C -0.0904(4) -0.0864(3) 0.0941(3)
H12 H -0.1620(4) -0.1728(3) 0.0323(3)
C18 C 0.0537(4) -0.0919(3) 0.1654(3)
H13 H 0.0800(4) -0.1816(3) 0.1509(3)
C19 C 0.1598(3) 0.0360(2) 0.2589(2)
H14 H 0.2569(3) 0.0319(2) 0.3076(2)
C3A C -0.0475(2) 1.0527(2) 0.4900(2)
C2A C 0.0083(3) 1.2030(2) 0.5605(2)
C1A C -0.0827(3) 1.2971(2) 0.5380(2)
N1A N -0.2269(2) 1.2506(2) 0.4495(2)
C5A C -0.2807(3) 1.1058(3) 0.3808(3)
C4A C -0.1967(3) 1.0054(3) 0.3982(3)
H3A H -0.2400(3) 0.9055(3) 0.3483(3)
H4A H -0.3800(3) 1.0711(3) 0.3182(3)
H1A H -0.0421(3) 1.3975(2) 0.5865(2)
H2A H 0.1075(3) 1.2406(2) 0.6234(2)
S2A S 0.60730(7) 0.68892(6) 0.49955(5)
O2A O 0.8078(2) 0.5723(2) 0.6082(2)
C7A C 0.7743(3) 0.6899(2) 0.6169(2)
C14A C 0.8785(3) 0.8294(2) 0.7198(2)
C15A C 1.0246(3) 0.8257(3) 0.7948(2)
H10A H 1.0511(3) 0.7363(3) 0.7827(2)
C16A C 1.1296(3) 0.9546(3) 0.8867(3)
H11A H 1.2272(3) 0.9519(3) 0.9358(3)
C17A C 1.0904(4) 1.0864(3) 0.9059(3)
H12A H 1.1620(4) 1.1728(3) 0.9677(3)
C18A C 0.9463(4) 1.0919(3) 0.8346(3)
H13A H 0.9200(4) 1.1816(3) 0.8491(3)
C19A C 0.8402(3) 0.9640(2) 0.7411(2)
H14A H 0.7431(3) 0.9681(2) 0.6924(2)
Cd1A Cd 0.61362(2) 0.40255(2) 0.402579(14)
S1A S 0.49044(8) 0.26334(8) 0.16266(6)
O1A O 0.7549(2) 0.4702(2) 0.2580(2)
C6A C 0.6523(3) 0.3819(2) 0.1577(2)
C8A C 0.6671(3) 0.3784(3) 0.0312(2)
C9A C 0.5745(4) 0.2665(4) -0.0844(3)
H5A H 0.4982(4) 0.1901(4) -0.0849(3)
C10A C 0.5946(4) 0.2675(4) -0.1989(3)
H6A H 0.5340(4) 0.1905(4) -0.2754(3)
C11A C 0.7035(4) 0.3816(4) -0.1999(3)
H7A H 0.7139(4) 0.3845(4) -0.2770(3)
C12A C 0.7969(5) 0.4914(4) -0.0864(4)
H8A H 0.8722(5) 0.5680(4) -0.0867(4)
C13A C 0.7805(4) 0.4895(3) 0.0285(3)
H9A H 0.8465(4) 0.5637(3) 0.1050(3)
Cd1A_2 Cd -0.38638(2) 1.40255(2) 0.402579(14)
N1A_2 N 0.7731(2) 0.2506(2) 0.4495(2)
loop_
_geom_bond_atom_site_label_1
_geom_bond_atom_site_label_2
_geom_bond_site_symmetry_1
_geom_bond_site_symmetry_2
Cd1 S1 1_555 1_555
S1 C6 1_555 1_555
S2 Cd1 1_555 1_555
O1 Cd1 1_555 1_555
O2 Cd1 1_555 1_555
N1 Cd1 1_555 1_555
C1 N1 1_555 1_555
H1 C1 1_555 1_555
C2 C1 1_555 1_555
H2 C2 1_555 1_555
C3 C2 1_555 1_555
C4 C3 1_555 1_555
H3 C4 1_555 1_555
C5 N1 1_555 1_555
H4 C5 1_555 1_555
C6 O1 1_555 1_555
C7 S2 1_555 1_555
C8 C6 1_555 1_555
C9 C8 1_555 1_555
H5 C9 1_555 1_555
C10 C9 1_555 1_555
H6 C10 1_555 1_555
C11 C10 1_555 1_555
H7 C11 1_555 1_555
C12 C11 1_555 1_555
H8 C12 1_555 1_555
C13 C8 1_555 1_555
H9 C13 1_555 1_555
C14 C7 1_555 1_555
C15 C14 1_555 1_555
H10 C15 1_555 1_555
C16 C15 1_555 1_555
H11 C16 1_555 1_555
C17 C16 1_555 1_555
H12 C17 1_555 1_555
C18 C17 1_555 1_555
H13 C18 1_555 1_555
C19 C14 1_555 1_555
H14 C19 1_555 1_555
C3A C3 1_555 1_555
C2A C3A 1_555 1_555
C1A C2A 1_555 1_555
N1A C1A 1_555 1_555
C5A N1A 1_555 1_555
C4A C3A 1_555 1_555
H3A C4A 1_555 1_555
H4A C5A 1_555 1_555
H1A C1A 1_555 1_555
H2A C2A 1_555 1_555
S2A Cd1 1_555 1_555
O2A C7A 1_555 1_555
C7A S2A 1_555 1_555
C14A C7A 1_555 1_555
C15A C14A 1_555 1_555
H10A C15A 1_555 1_555
C16A C15A 1_555 1_555
H11A C16A 1_555 1_555
C17A C16A 1_555 1_555
H12A C17A 1_555 1_555
C18A C17A 1_555 1_555
H13A C18A 1_555 1_555
C19A C14A 1_555 1_555
H14A C19A 1_555 1_555
Cd1A S2 1_555 1_555
S1A Cd1A 1_555 1_555
O1A Cd1A 1_555 1_555
C6A S1A 1_555 1_555
C8A C6A 1_555 1_555
C9A C8A 1_555 1_555
H5A C9A 1_555 1_555
C10A C9A 1_555 1_555
H6A C10A 1_555 1_555
C11A C10A 1_555 1_555
H7A C11A 1_555 1_555
C12A C11A 1_555 1_555
H8A C12A 1_555 1_555
C13A C8A 1_555 1_555
H9A C13A 1_555 1_555
Cd1A_2 N1A 1_555 1_555
N1A_2 Cd1A 1_555 1_555
O2 C7 1_555 1_555
C4 C5 1_555 1_555
C12 C13 1_555 1_555
C18 C19 1_555 1_555
C5A C4A 1_555 1_555
S2A Cd1A 1_555 1_555
O2A Cd1A 1_555 1_555
C18A C19A 1_555 1_555
O1A C6A 1_555 1_555
C12A C13A 1_555 1_555

#END
