
#######################################################################
#
#                 Cambridge Crystallographic Data Centre
#                                CCDC 
#
#######################################################################
#
# If this CIF has been generated from an entry in the Cambridge 
# Structural Database, then it will include bibliographic, chemical, 
# crystal, experimental, refinement or atomic coordinate data resulting 
# from the CCDC's data processing and validation procedures.
#
#######################################################################

data_TUSPON
_symmetry_cell_setting           orthorhombic
_symmetry_space_group_name_H-M   'P 21 21 21'
_symmetry_Int_Tables_number      19
_space_group_name_Hall           'P 2ac 2ab'
loop_
_symmetry_equiv_pos_site_id
_symmetry_equiv_pos_as_xyz
1 x,y,z
2 1/2-x,-y,1/2+z
3 -x,1/2+y,1/2-z
4 1/2+x,1/2-y,-z
_cell_length_a                   12.7079(5)
_cell_length_b                   15.6471(6)
_cell_length_c                   19.2646(6)
_cell_angle_alpha                90
_cell_angle_beta                 90
_cell_angle_gamma                90
_cell_volume                     3830.61
loop_
_atom_site_label
_atom_site_type_symbol
_atom_site_fract_x
_atom_site_fract_y
_atom_site_fract_z
Ni1 Ni 0.54351(5) 0.09537(4) 0.91033(2)
Ni2 Ni 0.47195(5) 0.11149(4) 0.75947(2)
O1 O 0.6143(2) 0.0994(2) 0.81172(13)
O2 O 0.4120(3) 0.0794(2) 0.85482(14)
C1 C 0.6983(4) 0.0478(3) 0.8065(2)
C2 C 0.8648(5) -0.0021(4) 0.8495(3)
H1 H 0.9185 0.0017 0.8821
C3 C 0.7043(4) -0.0147(3) 0.7531(2)
H2 H 0.6869 0.0095 0.7076
C4 C 0.8712(5) -0.0622(3) 0.7986(3)
H3 H 0.9283 -0.0993 0.7966
C5 C 0.7908(4) -0.0672(3) 0.7498(2)
H4 H 0.7958 -0.1071 0.7141
C6 C 0.7792(4) 0.0545(3) 0.8541(2)
C7 C 0.2398(4) 0.0436(3) 0.8163(2)
C8 C 0.3265(4) -0.0432(3) 0.9034(3)
H5 H 0.3510 -0.0285 0.9501
C9 C 0.2383(5) -0.0948(4) 0.9050(3)
H6 H 0.2368 -0.1413 0.9352
C10 C 0.3274(4) 0.0276(3) 0.8588(2)
C11 C 0.1526(5) -0.0792(4) 0.8631(3)
H7 H 0.0940 -0.1147 0.8648
C12 C 0.1549(5) -0.0106(4) 0.8189(3)
H8 H 0.0976 -0.0004 0.7901
N1 N 0.4760(4) 0.0948(3) 1.00721(16)
N2 N 0.5303(4) 0.1341(3) 0.65935(16)
N3 N 0.6874(3) 0.1090(3) 0.96012(17)
H9 H 0.6842 0.1556 0.9884
N4 N 0.3230(3) 0.1253(2) 0.71826(17)
H10 H 0.3197 0.1769 0.6965
O3 O 0.4452(3) -0.01618(19) 0.72846(15)
O4 O 0.3330(3) -0.0928(2) 0.66438(17)
O5 O 0.5804(3) -0.0340(2) 0.92190(15)
O6 O 0.6838(3) -0.1181(2) 0.98606(17)
O7 O 0.5203(3) 0.2246(2) 0.90290(15)
O8 O 0.4616(3) 0.2397(2) 0.79312(14)
C13 C 0.7761(4) 0.1203(3) 0.9116(2)
H11 H 0.8415 0.1173 0.9376
H12 H 0.7716 0.1768 0.8911
C14 C 0.3766(4) 0.1115(3) 1.0234(2)
H13 H 0.3262 0.1308 0.9921
C15 C 0.6383(5) 0.0461(4) 1.0729(2)
H14 H 0.6457 -0.0048 1.1013
H15 H 0.6736 0.0924 1.0970
C16 C 0.6957(5) 0.0307(3) 1.0043(2)
H16 H 0.7701 0.0197 1.0141
C17 C 0.5233(5) 0.0676(3) 1.0680(2)
C18 C 0.4490(5) 0.0681(4) 1.1188(3)
H17 H 0.4584 0.0516 1.1648
C19 C 0.6500(4) -0.0461(3) 0.9674(2)
C20 C 0.5478(5) 0.1063(4) 0.5467(2)
H18 H 0.5335 0.0911 0.5010
C21 C 0.3618(4) 0.0887(3) 0.5963(2)
H19 H 0.3498 0.0454 0.5612
H20 H 0.3255 0.1401 0.5816
C22 C 0.4781(4) 0.1073(3) 0.5995(2)
C23 C 0.3127(5) 0.0579(3) 0.6651(2)
H21 H 0.2379 0.0457 0.6576
C24 C 0.2407(4) 0.1234(3) 0.7724(2)
H22 H 0.1726 0.1293 0.7502
H23 H 0.2503 0.1724 0.8026
C25 C 0.3677(4) -0.0235(3) 0.6884(2)
C26 C 0.6303(5) 0.1479(3) 0.6391(2)
H24 H 0.6837 0.1666 0.6684
C27 C 0.4699(4) 0.2637(3) 0.8555(2)
N5 N 0.3588(4) 0.0972(3) 1.0897(2)
H25 H 0.3000 0.1050 1.1109
N6 N 0.6431(4) 0.1316(3) 0.5722(2)
H26 H 0.7007 0.1360 0.5490
K1 K 0.50497(12) -0.14584(8) 0.81501(6)
C29 C 0.4150(5) 0.3441(4) 0.8767(3)
H30 H 0.3653 0.3601 0.8415
H31 H 0.4657 0.3890 0.8825
H32 H 0.3786 0.3349 0.9197
O12 O 0.7009(4) -0.2099(3) 0.8635(2)
O8B O 0.5384(3) -0.2603(2) 0.70688(14)
K1B K 0.49503(12) 0.35416(8) 0.68499(6)
C28 C 0.5894(8) 0.3372(10) 0.0503(6)
H27 H 0.6008 0.3969 0.0414
H28 H 0.6114 0.3239 0.0967
H29 H 0.5160 0.3243 0.0451
O13 O 0.6460(5) 0.2900(4) 0.0044(3)
H33 H 0.6076 0.2741 -0.0273
O9 O 0.0718(8) 0.7362(9) 0.7576(8)
O10 O 0.9389(8) 0.7123(10) 0.9049(11)
O11 O 0.2922(4) 0.7591(3) 0.7330(2)
loop_
_geom_bond_atom_site_label_1
_geom_bond_atom_site_label_2
_geom_bond_site_symmetry_1
_geom_bond_site_symmetry_2
Ni1 O1 1_555 1_555
Ni2 O1 1_555 1_555
O1 C1 1_555 1_555
O2 Ni1 1_555 1_555
C1 C3 1_555 1_555
C2 H1 1_555 1_555
C3 H2 1_555 1_555
C4 C2 1_555 1_555
H3 C4 1_555 1_555
C5 C3 1_555 1_555
H4 C5 1_555 1_555
C6 C1 1_555 1_555
C7 C10 1_555 1_555
C8 H5 1_555 1_555
C9 C8 1_555 1_555
H6 C9 1_555 1_555
C10 O2 1_555 1_555
C11 C9 1_555 1_555
H7 C11 1_555 1_555
C12 C7 1_555 1_555
H8 C12 1_555 1_555
N1 Ni1 1_555 1_555
N2 Ni2 1_555 1_555
N3 Ni1 1_555 1_555
H9 N3 1_555 1_555
N4 Ni2 1_555 1_555
H10 N4 1_555 1_555
O3 Ni2 1_555 1_555
O4 C25 1_555 1_555
O5 Ni1 1_555 1_555
O6 C19 1_555 1_555
O7 Ni1 1_555 1_555
O8 Ni2 1_555 1_555
C13 C6 1_555 1_555
H11 C13 1_555 1_555
H12 C13 1_555 1_555
C14 N1 1_555 1_555
H13 C14 1_555 1_555
C15 H14 1_555 1_555
H15 C15 1_555 1_555
C16 N3 1_555 1_555
H16 C16 1_555 1_555
C17 N1 1_555 1_555
C18 C17 1_555 1_555
H17 C18 1_555 1_555
C19 O5 1_555 1_555
C20 H18 1_555 1_555
C21 H19 1_555 1_555
H20 C21 1_555 1_555
C22 N2 1_555 1_555
C23 N4 1_555 1_555
H21 C23 1_555 1_555
C24 C7 1_555 1_555
H22 C24 1_555 1_555
H23 C24 1_555 1_555
C25 O3 1_555 1_555
C26 N2 1_555 1_555
H24 C26 1_555 1_555
C27 O7 1_555 1_555
N5 C14 1_555 1_555
H25 N5 1_555 1_555
N6 C20 1_555 1_555
H26 N6 1_555 1_555
C28 H27 1_555 1_555
H28 C28 1_555 1_555
H29 C28 1_555 1_555
K1 O3 1_555 1_555
C29 C27 1_555 1_555
H30 C29 1_555 1_555
H31 C29 1_555 1_555
H32 C29 1_555 1_555
O12 K1 1_555 1_555
O13 C28 1_555 1_555
H33 O13 1_555 1_555
O8B K1 1_555 1_555
K1B O8 1_555 1_555
Ni2 O2 1_555 1_555
C2 C6 1_555 1_555
C4 C5 1_555 1_555
C8 C10 1_555 1_555
C11 C12 1_555 1_555
N3 C13 1_555 1_555
N4 C24 1_555 1_555
O5 K1 1_555 1_555
O8 C27 1_555 1_555
C15 C16 1_555 1_555
C15 C17 1_555 1_555
C16 C19 1_555 1_555
C18 N5 1_555 1_555
C20 C22 1_555 1_555
C21 C22 1_555 1_555
C21 C23 1_555 1_555
C23 C25 1_555 1_555
C26 N6 1_555 1_555

#END
