
#######################################################################
#
#                 Cambridge Crystallographic Data Centre
#                                CCDC 
#
#######################################################################
#
# If this CIF has been generated from an entry in the Cambridge 
# Structural Database, then it will include bibliographic, chemical, 
# crystal, experimental, refinement or atomic coordinate data resulting 
# from the CCDC's data processing and validation procedures.
#
#######################################################################

data_TUSVUZ
_symmetry_cell_setting           monoclinic
_symmetry_space_group_name_H-M   'C c'
_symmetry_Int_Tables_number      9
_space_group_name_Hall           'C -2yc'
loop_
_symmetry_equiv_pos_site_id
_symmetry_equiv_pos_as_xyz
1 x,y,z
2 x,-y,1/2+z
3 1/2+x,1/2+y,z
4 1/2+x,1/2-y,1/2+z
_cell_length_a                   14.6409(4)
_cell_length_b                   15.3249(5)
_cell_length_c                   15.9885(4)
_cell_angle_alpha                90
_cell_angle_beta                 96.165(2)
_cell_angle_gamma                90
_cell_volume                     3566.6
loop_
_atom_site_label
_atom_site_type_symbol
_atom_site_fract_x
_atom_site_fract_y
_atom_site_fract_z
Co1 Co 0.58446(2) -0.03440(6) -0.09782(2)
Co2 Co 0.33914(2) -0.03460(6) -0.14546(2)
N1 N 0.7106(4) -0.1054(4) -0.0761(4)
N2 N 0.6584(4) 0.0600(4) -0.1686(4)
N3 N 0.2116(4) -0.1061(4) -0.1658(3)
N4 N 0.2660(4) 0.0587(4) -0.0739(4)
O1 O 0.6231(4) 0.0367(4) 0.0127(3)
O2 O 0.5098(4) 0.1344(4) 0.0083(3)
O3 O 0.5514(3) 0.1038(3) 0.2935(3)
O4 O 0.3985(4) 0.1250(4) 0.2802(3)
O5 O 0.3002(4) 0.0379(4) -0.2544(3)
O6 O 0.4133(3) 0.1350(3) -0.2518(3)
O7 O 0.5256(4) 0.1251(4) -0.5229(3)
O8 O 0.3734(3) 0.1043(3) -0.5360(3)
O9 O 0.4604(4) 0.04094(10) -0.1221(4)
H1 H 0.446(2) 0.089(2) -0.182(2)
H2 H 0.466(2) 0.064(2) -0.0886(18)
C1 C 0.7583(5) -0.1082(5) -0.0016(5)
H3 H 0.739(3) -0.087(2) 0.032(2)
C2 C 0.8375(5) -0.1585(5) 0.0148(5)
H4 H 0.867(2) -0.161(2) 0.074(2)
C3 C 0.8684(5) -0.2068(5) -0.0467(6)
H5 H 0.908(3) -0.233(3) -0.034(3)
C4 C 0.8203(5) -0.2022(5) -0.1282(4)
H6 H 0.840(4) -0.247(3) -0.178(3)
C5 C 0.7438(5) -0.1514(5) -0.1400(5)
H7 H 0.720(2) -0.137(2) -0.193(2)
C6 C 0.7323(6) 0.1027(5) -0.1365(6)
H8 H 0.7538 0.0916 -0.0807
C7 C 0.7794(7) 0.1613(7) -0.1786(9)
H9 H 0.8297 0.1910 -0.1518
C8 C 0.7503(6) 0.1759(6) -0.2629(6)
H10 H 0.796(4) 0.228(4) -0.271(4)
C9 C 0.6742(6) 0.1337(6) -0.2979(6)
H11 H 0.6521 0.1433 -0.3539
C10 C 0.6314(6) 0.0785(5) -0.2510(5)
H12 H 0.584(2) 0.046(2) -0.268(2)
C11 C 0.1640(5) -0.1102(5) -0.2437(4)
H13 H 0.189(2) -0.067(2) -0.292(2)
C12 C 0.0854(5) -0.1591(5) -0.2609(5)
H14 H 0.0538 -0.1598 -0.3146
C13 C 0.0543(5) -0.2079(5) -0.1956(5)
H15 H -0.007(3) -0.248(3) -0.204(2)
C14 C 0.1011(5) -0.2041(5) -0.1195(5)
H16 H 0.082(3) -0.224(3) -0.076(2)
C15 C 0.1807(4) -0.1520(5) -0.1059(5)
H17 H 0.228(3) -0.155(3) -0.051(2)
C16 C 0.1905(5) 0.0999(5) -0.1148(6)
H18 H 0.179(2) 0.0848(19) -0.1737(19)
C17 C 0.1417(6) 0.1617(6) -0.0706(8)
H19 H 0.0905 0.1894 -0.0980
C18 C 0.1685(5) 0.1806(4) 0.0098(8)
H20 H 0.150(3) 0.218(3) 0.057(3)
C19 C 0.2435(7) 0.1382(6) 0.0507(7)
H21 H 0.2623 0.1496 0.1071
C20 C 0.2921(5) 0.0764(5) 0.0049(5)
H22 H 0.3433 0.0482 0.0319
C21 C 0.5817(4) 0.1003(4) 0.0402(3)
C22 C 0.6274(4) 0.1385(4) 0.1241(4)
H23 H 0.686(3) 0.159(3) 0.106(3)
H24 H 0.636(3) 0.103(3) 0.162(3)
C23 C 0.5804(4) 0.2157(4) 0.1572(4)
H25 H 0.579(3) 0.265(3) 0.121(3)
H26 H 0.629(3) 0.230(3) 0.210(3)
C24 C 0.4857(5) 0.2001(4) 0.1851(4)
H27 H 0.450(4) 0.187(3) 0.138(3)
H28 H 0.4494(18) 0.2577(18) 0.1936(18)
C25 C 0.4771(5) 0.1374(4) 0.2603(4)
C26 C 0.3388(4) 0.1020(4) -0.2867(4)
C27 C 0.2952(5) 0.1394(4) -0.3666(4)
H29 H 0.233(3) 0.147(3) -0.363(2)
H30 H 0.290(3) 0.081(3) -0.413(3)
C28 C 0.3458(5) 0.2182(4) -0.4036(4)
H31 H 0.311(2) 0.249(2) -0.451(2)
H32 H 0.354(3) 0.264(4) -0.352(3)
C29 C 0.4413(4) 0.1997(5) -0.4299(4)
H33 H 0.483(3) 0.171(2) -0.382(2)
H34 H 0.449(2) 0.248(2) -0.4620(18)
C30 C 0.4456(5) 0.1379(4) -0.5018(4)
Co1A Co 0.58446(2) 0.03440(6) -0.59782(2)
Co1A_2 Co 0.58446(2) 0.03440(6) 0.40218(2)
Co2A Co 0.33914(2) 0.03460(6) 0.35454(2)
Co2A_2 Co 0.33914(2) 0.03460(6) -0.64546(2)
O3A O 0.5514(3) -0.1038(3) -0.2065(3)
O4A O 0.3985(4) -0.1250(4) -0.2198(3)
O7A O 0.5256(4) -0.1251(4) -0.0229(3)
O8A O 0.3734(3) -0.1043(3) -0.0360(3)
N5 N 0.0289(7) 0.0493(6) -0.3308(11)
C31 C 0.0320(11) 0.0205(10) -0.4097(14)
H35 H 0.0823 0.0371 -0.4369
C32 C -0.0341(12) -0.0324(8) -0.4545(12)
H36 H -0.0285 -0.0509 -0.5090
C33 C -0.1080(8) -0.0552(7) -0.4127(8)
H37 H -0.1533 -0.0925 -0.4372
C34 C -0.1133(4) -0.0199(6) -0.3303(8)
H38 H -0.1632 -0.0315 -0.3007
C35 C -0.0446(10) 0.0299(7) -0.2982(9)
H39 H -0.0503 0.0537 -0.2455
loop_
_geom_bond_atom_site_label_1
_geom_bond_atom_site_label_2
_geom_bond_site_symmetry_1
_geom_bond_site_symmetry_2
Co1 N1 1_555 1_555
Co2 N3 1_555 1_555
N1 C1 1_555 1_555
N2 Co1 1_555 1_555
N3 C11 1_555 1_555
N4 Co2 1_555 1_555
N5 C31 1_555 1_555
O1 Co1 1_555 1_555
O2 C21 1_555 1_555
O3 C25 1_555 1_555
O4 C25 1_555 1_555
O5 Co2 1_555 1_555
O6 C26 1_555 1_555
O7 C30 1_555 1_555
O8 C30 1_555 1_555
O9 Co1 1_555 1_555
H1 O9 1_555 1_555
H2 O9 1_555 1_555
C1 H3 1_555 1_555
C2 C1 1_555 1_555
H4 C2 1_555 1_555
C3 C2 1_555 1_555
H5 C3 1_555 1_555
C4 C3 1_555 1_555
H6 C4 1_555 1_555
C5 N1 1_555 1_555
H7 C5 1_555 1_555
C6 N2 1_555 1_555
H8 C6 1_555 1_555
C7 C6 1_555 1_555
H9 C7 1_555 1_555
C8 C7 1_555 1_555
H10 C8 1_555 1_555
C9 C8 1_555 1_555
H11 C9 1_555 1_555
C10 N2 1_555 1_555
H12 C10 1_555 1_555
C11 H13 1_555 1_555
C12 C11 1_555 1_555
H14 C12 1_555 1_555
C13 C12 1_555 1_555
H15 C13 1_555 1_555
C14 C13 1_555 1_555
H16 C14 1_555 1_555
C15 N3 1_555 1_555
H17 C15 1_555 1_555
C16 N4 1_555 1_555
H18 C16 1_555 1_555
C17 C16 1_555 1_555
H19 C17 1_555 1_555
C18 C17 1_555 1_555
H20 C18 1_555 1_555
C19 C18 1_555 1_555
H21 C19 1_555 1_555
C20 N4 1_555 1_555
H22 C20 1_555 1_555
C21 O1 1_555 1_555
C22 C21 1_555 1_555
H23 C22 1_555 1_555
H24 C22 1_555 1_555
C23 C22 1_555 1_555
H25 C23 1_555 1_555
H26 C23 1_555 1_555
C24 C23 1_555 1_555
H27 C24 1_555 1_555
H28 C24 1_555 1_555
C25 C24 1_555 1_555
C26 O5 1_555 1_555
C27 C26 1_555 1_555
H29 C27 1_555 1_555
H30 C27 1_555 1_555
C28 C27 1_555 1_555
H31 C28 1_555 1_555
H32 C28 1_555 1_555
C29 C28 1_555 1_555
H33 C29 1_555 1_555
H34 C29 1_555 1_555
C30 C29 1_555 1_555
C31 H35 1_555 1_555
C32 C31 1_555 1_555
H36 C32 1_555 1_555
C33 C32 1_555 1_555
H37 C33 1_555 1_555
C34 C33 1_555 1_555
H38 C34 1_555 1_555
C35 N5 1_555 1_555
H39 C35 1_555 1_555
Co1A O7 1_555 1_555
Co1A_2 O3 1_555 1_555
Co2A O4 1_555 1_555
Co2A_2 O8 1_555 1_555
O3A Co1 1_555 1_555
O4A Co2 1_555 1_555
O7A Co1 1_555 1_555
O8A Co2 1_555 1_555
Co2 O9 1_555 1_555
C4 C5 1_555 1_555
C9 C10 1_555 1_555
C14 C15 1_555 1_555
C19 C20 1_555 1_555
C34 C35 1_555 1_555

#END
