
#######################################################################
#
#                 Cambridge Crystallographic Data Centre
#                                CCDC 
#
#######################################################################
#
# If this CIF has been generated from an entry in the Cambridge 
# Structural Database, then it will include bibliographic, chemical, 
# crystal, experimental, refinement or atomic coordinate data resulting 
# from the CCDC's data processing and validation procedures.
#
#######################################################################

data_TUSWUZ
_symmetry_cell_setting           triclinic
_symmetry_space_group_name_H-M   'P -1'
_symmetry_Int_Tables_number      2
_space_group_name_Hall           '-P 1'
loop_
_symmetry_equiv_pos_site_id
_symmetry_equiv_pos_as_xyz
1 x,y,z
2 -x,-y,-z
_cell_length_a                   7.9665(3)
_cell_length_b                   8.1974(3)
_cell_length_c                   13.8096(4)
_cell_angle_alpha                85.704(2)
_cell_angle_beta                 73.5180(10)
_cell_angle_gamma                75.645(2)
_cell_volume                     837.763
loop_
_atom_site_label
_atom_site_type_symbol
_atom_site_fract_x
_atom_site_fract_y
_atom_site_fract_z
Co1 Co 0.21860(8) -0.48923(8) 0.14850(4)
V1 V 0.47144(10) -0.20308(9) 0.02777(5)
V2 V -0.04316(10) -0.15268(10) 0.28313(5)
Se1 Se 0.13495(6) -0.87495(6) 0.13059(3)
Se2 Se 0.34476(6) 0.01652(6) -0.15598(3)
O1 O 0.3171(4) -0.2742(4) 0.1176(2)
O2 O 0.0103(4) -0.3588(4) 0.2635(2)
O3 O 0.0653(5) -0.3807(5) 0.0421(3)
O4 O 0.4059(4) -0.6229(4) 0.0328(2)
O5 O 0.3688(4) -0.9466(4) 0.0870(2)
O6 O 0.1029(5) -0.6872(4) 0.1783(3)
O7 O 0.0970(4) -0.9852(4) 0.2416(2)
O8 O 0.1290(4) 0.0798(4) -0.1639(2)
O9 O 0.3072(4) -0.1222(4) -0.0585(2)
O10 O 0.3481(4) 0.1943(4) -0.1001(2)
O11 O -0.2308(4) -0.1062(4) 0.3705(2)
N1 N 0.3886(5) -0.5777(5) 0.2459(3)
N2 N 0.8889(5) -0.8034(5) 0.6062(3)
C1 C 0.5526(8) -0.5516(8) 0.2294(4)
H1 H 0.5998 -0.4994 0.1691
C2 C 0.6566(8) -0.5963(8) 0.2953(5)
H2 H 0.7698 -0.5730 0.2798
C3 C 0.5925(7) -0.6761(6) 0.3846(3)
C4 C 0.4281(9) -0.7142(12) 0.3989(5)
H3 H 0.3821 -0.7754 0.4554
C5 C 0.3320(9) -0.6610(11) 0.3288(5)
H4 H 0.2200 -0.6857 0.3411
C6 C 0.9550(10) -0.7417(13) 0.5175(5)
H5 H 1.0707 -0.7244 0.5029
C7 C 0.8648(10) -0.7005(14) 0.4441(5)
H6 H 0.9205 -0.6577 0.3824
C8 C 0.6956(6) -0.7219(6) 0.4613(4)
C9 C 0.6272(8) -0.7877(10) 0.5535(5)
H7 H 0.5119 -0.8063 0.5699
C10 C 0.7266(9) -0.8271(10) 0.6228(5)
H8 H 0.6755 -0.8729 0.6845
H9 H -0.035(7) -0.313(8) 0.070(5)
H10 H 0.056(9) -0.451(8) 0.013(6)
O4A O 0.5941(4) -0.3771(4) -0.0328(2)
O5_2 O 0.3688(4) 0.0534(4) 0.0870(2)
O5A O 0.6312(4) -0.0534(4) -0.0870(2)
O10A O 0.6519(4) -0.1943(4) 0.1001(2)
O7_2 O 0.0970(4) 0.0148(4) 0.2416(2)
O8A O -0.1290(4) -0.0798(4) 0.1639(2)
N2A N 0.1111(5) -0.1966(5) 0.3938(3)
V1A V 0.52856(10) -0.79692(9) -0.02777(5)
V1_2 V 0.47144(10) -1.20308(9) 0.02777(5)
V2_2 V -0.04316(10) -1.15268(10) 0.28313(5)
V2A V 0.04316(10) 0.15268(10) -0.28313(5)
V1A_2 V 0.52856(10) 0.20308(9) -0.02777(5)
V2A_2 V 1.04316(10) -0.84732(10) 0.71687(5)
loop_
_geom_bond_atom_site_label_1
_geom_bond_atom_site_label_2
_geom_bond_site_symmetry_1
_geom_bond_site_symmetry_2
Co1 O1 1_555 1_555
V1 O1 1_555 1_555
V2 O2 1_555 1_555
Se1 O5 1_555 1_555
Se2 O8 1_555 1_555
O2 Co1 1_555 1_555
O3 Co1 1_555 1_555
O4 Co1 1_555 1_555
O5 V1A 1_555 1_555
O6 Co1 1_555 1_555
O7 Se1 1_555 1_555
O8 V2A 1_555 1_555
O9 V1 1_555 1_555
O10 Se2 1_555 1_555
O11 V2 1_555 1_555
N1 Co1 1_555 1_555
N2 C6 1_555 1_555
C1 N1 1_555 1_555
H1 C1 1_555 1_555
C2 C1 1_555 1_555
H2 C2 1_555 1_555
C3 C2 1_555 1_555
C4 C3 1_555 1_555
H3 C4 1_555 1_555
C5 N1 1_555 1_555
H4 C5 1_555 1_555
C6 H5 1_555 1_555
C7 C6 1_555 1_555
H6 C7 1_555 1_555
C8 C3 1_555 1_555
C9 C8 1_555 1_555
H7 C9 1_555 1_555
C10 N2 1_555 1_555
H8 C10 1_555 1_555
H9 O3 1_555 1_555
H10 O3 1_555 1_555
O4A V1 1_555 1_555
O5_2 V1 1_555 1_555
O5A V1 1_555 1_555
O10A V1 1_555 1_555
O7_2 V2 1_555 1_555
O8A V2 1_555 1_555
N2A V2 1_555 1_555
V1A O4 1_555 1_555
V1_2 O5 1_555 1_555
V2_2 O7 1_555 1_555
V1A_2 O10 1_555 1_555
V2A_2 N2 1_555 1_555
Se1 O6 1_555 1_555
Se2 O9 1_555 1_555
C4 C5 1_555 1_555
C7 C8 1_555 1_555
C9 C10 1_555 1_555
O5_2 V1A_2 1_555 1_555
O5A V1A_2 1_555 1_555

#END
