
#######################################################################
#
#                 Cambridge Crystallographic Data Centre
#                                CCDC 
#
#######################################################################
#
# If this CIF has been generated from an entry in the Cambridge 
# Structural Database, then it will include bibliographic, chemical, 
# crystal, experimental, refinement or atomic coordinate data resulting 
# from the CCDC's data processing and validation procedures.
#
#######################################################################

data_TUSXAG
_symmetry_cell_setting           triclinic
_symmetry_space_group_name_H-M   'P -1'
_symmetry_Int_Tables_number      2
_space_group_name_Hall           '-P 1'
loop_
_symmetry_equiv_pos_site_id
_symmetry_equiv_pos_as_xyz
1 x,y,z
2 -x,-y,-z
_cell_length_a                   7.9489(19)
_cell_length_b                   8.128(2)
_cell_length_c                   13.709(4)
_cell_angle_alpha                85.838(6)
_cell_angle_beta                 73.736(8)
_cell_angle_gamma                75.594(9)
_cell_volume                     823.536
loop_
_atom_site_label
_atom_site_type_symbol
_atom_site_fract_x
_atom_site_fract_y
_atom_site_fract_z
V1 V 0.02871(11) 1.20381(11) 0.47188(7)
V2 V 0.53916(11) 1.15419(11) 0.21750(7)
Ni1 Ni 0.27906(9) 1.48943(8) 0.35283(5)
Se1 Se 0.36401(6) 0.87406(6) 0.37023(4)
Se2 Se 0.15754(6) 0.98277(6) 0.65598(4)
O1 O 0.1818(4) 1.2733(4) 0.3820(3)
O2 O 0.4847(4) 1.3614(4) 0.2373(3)
O3 O 0.4301(5) 1.3839(5) 0.4576(3)
O4 O -0.0935(4) 1.3781(4) 0.5321(3)
O5 O 0.1297(4) 0.9464(4) 0.4127(3)
O6 O 0.3989(5) 0.6836(4) 0.3226(3)
O7 O 0.4027(5) 0.9832(4) 0.2580(3)
O8 O 0.3750(4) 0.9182(5) 0.6623(3)
O9 O 0.1943(4) 1.1218(4) 0.5577(3)
O10 O 0.1531(4) 0.8041(4) 0.5995(3)
O11 O 0.7278(5) 1.1073(5) 0.1300(3)
C1 C 0.0509(8) 1.4442(9) -0.2746(5)
H1 H 0.0997 1.4933 -0.3360
C2 C 0.1547(8) 1.3991(9) -0.2078(5)
H2 H 0.2692 1.4201 -0.2237
C3 C 0.0883(7) 1.3219(7) -0.1164(4)
C4 C -0.0781(10) 1.2883(12) -0.1022(6)
H3 H -0.1265 1.2305 -0.0442
C5 C -0.1732(9) 1.3396(12) -0.1731(6)
H4 H -0.2853 1.3147 -0.1611
C6 C 0.4516(10) 1.2598(14) 0.0177(6)
H5 H 0.5671 1.2780 0.0033
C7 C 0.3597(10) 1.3004(15) -0.0559(6)
H6 H 0.4144 1.3451 -0.1176
C8 C 0.1907(7) 1.2763(7) -0.0400(4)
C9 C 0.1222(9) 1.2122(11) 0.0526(6)
H7 H 0.0065 1.1940 0.0691
C10 C 0.2209(9) 1.1736(11) 0.1226(6)
H8 H 0.1692 1.1281 0.1847
N1 N -0.1150(6) 1.4221(6) -0.2570(3)
N2 N 0.3848(6) 1.1974(6) 0.1065(3)
O5A O -0.1297(4) 1.0536(4) 0.5873(3)
O10A O -0.1531(4) 1.1959(4) 0.4005(3)
O8A O 0.6250(4) 1.0818(5) 0.3377(3)
O4A O 0.0935(4) 1.6219(4) 0.4679(3)
O6_2 O 0.3989(5) 1.6836(4) 0.3226(3)
N1A N 0.1150(6) 1.5779(6) 0.2570(3)
Ni1A Ni -0.27906(9) 1.51057(8) 0.64717(5)
V1A V -0.02871(11) 0.79619(11) 0.52812(7)
Ni1_2 Ni 0.27906(9) 0.48943(8) 0.35283(5)
V2A V 0.46084(11) 0.84581(11) 0.78250(7)
Ni1A_2 Ni -0.27906(9) 1.51057(8) -0.35283(5)
loop_
_geom_bond_atom_site_label_1
_geom_bond_atom_site_label_2
_geom_bond_site_symmetry_1
_geom_bond_site_symmetry_2
V1 O1 1_555 1_555
V2 O2 1_555 1_555
Ni1 O1 1_555 1_555
Se1 O5 1_555 1_555
Se2 O8 1_555 1_555
O2 Ni1 1_555 1_555
O3 Ni1 1_555 1_555
O4 V1 1_555 1_555
O5 V1 1_555 1_555
O6 Se1 1_555 1_555
O7 V2 1_555 1_555
O8 V2A 1_555 1_555
O9 V1 1_555 1_555
O10 Se2 1_555 1_555
O11 V2 1_555 1_555
C1 H1 1_555 1_555
C2 C1 1_555 1_555
H2 C2 1_555 1_555
C3 C2 1_555 1_555
C4 C3 1_555 1_555
H3 C4 1_555 1_555
C5 C4 1_555 1_555
H4 C5 1_555 1_555
C6 H5 1_555 1_555
C7 C6 1_555 1_555
H6 C7 1_555 1_555
C8 C3 1_555 1_555
C9 C8 1_555 1_555
H7 C9 1_555 1_555
C10 C9 1_555 1_555
H8 C10 1_555 1_555
N1 C1 1_555 1_555
N2 V2 1_555 1_555
O5A V1 1_555 1_555
O10A V1 1_555 1_555
O8A V2 1_555 1_555
O4A Ni1 1_555 1_555
O6_2 Ni1 1_555 1_555
N1A Ni1 1_555 1_555
Ni1A O4 1_555 1_555
V1A O5 1_555 1_555
Ni1_2 O6 1_555 1_555
Ni1A_2 N1 1_555 1_555
Se1 O7 1_555 1_555
Se2 O9 1_555 1_555
O10 V1A 1_555 1_555
C5 N1 1_555 1_555
C6 N2 1_555 1_555
C7 C8 1_555 1_555
C10 N2 1_555 1_555
O5A V1A 1_555 1_555

#END
