
#######################################################################
#
#                 Cambridge Crystallographic Data Centre
#                                CCDC 
#
#######################################################################
#
# If this CIF has been generated from an entry in the Cambridge 
# Structural Database, then it will include bibliographic, chemical, 
# crystal, experimental, refinement or atomic coordinate data resulting 
# from the CCDC's data processing and validation procedures.
#
#######################################################################

data_TUTDAP
_symmetry_cell_setting           monoclinic
_symmetry_space_group_name_H-M   'P 21/n'
_symmetry_Int_Tables_number      14
_space_group_name_Hall           '-P 2yn'
loop_
_symmetry_equiv_pos_site_id
_symmetry_equiv_pos_as_xyz
1 x,y,z
2 1/2-x,1/2+y,1/2-z
3 -x,-y,-z
4 1/2+x,1/2-y,1/2+z
_cell_length_a                   13.615(5)
_cell_length_b                   20.102(8)
_cell_length_c                   13.843(5)
_cell_angle_alpha                90
_cell_angle_beta                 100.520(6)
_cell_angle_gamma                90
_cell_volume                     3724.99
loop_
_atom_site_label
_atom_site_type_symbol
_atom_site_fract_x
_atom_site_fract_y
_atom_site_fract_z
Cd1 Cd 0.64457(6) 0.15017(4) 0.17595(6)
Cd2 Cd 0.70395(7) 0.12330(4) 0.42726(7)
Cl1 Cl 0.3782(4) 0.6327(2) 0.4013(5)
O1 O 0.6977(6) 0.2429(4) 0.4328(6)
O2 O 0.7571(6) 0.1981(3) 0.3105(7)
O3 O 0.8072(7) 0.5121(4) 0.1140(8)
O4 O 0.7613(6) 0.5613(3) 0.2389(7)
O5 O 0.5527(6) 0.1351(4) 0.3209(7)
O6 O 0.5309(6) 0.2242(4) 0.2228(7)
O7 O 0.2428(7) 0.3719(4) 0.5544(7)
O8 O 0.1949(8) 0.2699(5) 0.5740(8)
O9 O 0.5299(7) 0.0795(6) 0.0981(8)
O10 O 0.8808(17) 0.1183(10) 0.5014(11)
N1 N 0.3728(8) 0.5041(5) 0.4133(10)
N2 N 0.5092(8) 0.5526(5) 0.3527(10)
N3 N 0.4963(7) 0.4342(4) 0.3636(8)
N4 N 0.6375(7) 0.4858(4) 0.3216(9)
H1 H 0.6650 0.5239 0.3171
N5 N 0.3601(7) 0.3927(5) 0.4207(8)
H2 H 0.3091 0.4047 0.4450
C1 C 0.4266(10) 0.5546(6) 0.3890(11)
C2 C 0.5467(9) 0.4890(5) 0.3495(10)
C3 C 0.4110(8) 0.4428(5) 0.3949(9)
C4 C 0.6932(7) 0.4325(5) 0.2993(9)
C5 C 0.7612(9) 0.4424(5) 0.2342(9)
C6 C 0.8144(8) 0.3881(6) 0.2106(9)
H3 H 0.8592 0.3944 0.1681
C7 C 0.8047(8) 0.3259(5) 0.2463(10)
H4 H 0.8401 0.2903 0.2268
C8 C 0.7419(8) 0.3171(5) 0.3115(8)
C9 C 0.6858(8) 0.3689(5) 0.3392(10)
H5 H 0.6436 0.3615 0.3839
C10 C 0.7817(9) 0.5102(5) 0.1950(9)
C11 C 0.7312(8) 0.2486(5) 0.3568(10)
C12 C 0.3714(8) 0.3229(5) 0.4169(8)
C13 C 0.4343(7) 0.2921(6) 0.3594(9)
H6 H 0.4698 0.3185 0.3226
C14 C 0.4442(7) 0.2247(5) 0.3565(9)
C15 C 0.3923(10) 0.1858(6) 0.4130(10)
H7 H 0.4003 0.1398 0.4139
C16 C 0.3310(9) 0.2141(6) 0.4661(10)
H8 H 0.2964 0.1864 0.5021
C17 C 0.3153(8) 0.2831(6) 0.4709(8)
C18 C 0.5145(7) 0.1938(6) 0.2953(8)
C19 C 0.2474(9) 0.3109(6) 0.5342(9)
Cd1A Cd 0.85543(6) 0.65017(4) 0.32405(6)
Cd1C Cd 0.14457(6) 0.34983(4) 0.67595(6)
Cd2A Cd 0.79605(7) 0.62330(4) 0.07274(7)
O3A O 0.6928(7) 0.0121(4) 0.3860(8)
O4A O 0.7387(6) 0.0613(3) 0.2611(7)
O7C O 0.7428(7) 0.1281(4) 0.0544(7)
O8C O 0.6949(8) 0.2301(5) 0.0740(8)
loop_
_geom_bond_atom_site_label_1
_geom_bond_atom_site_label_2
_geom_bond_site_symmetry_1
_geom_bond_site_symmetry_2
Cd1 O2 1_555 1_555
Cd2 O1 1_555 1_555
Cl1 C1 1_555 1_555
O1 C11 1_555 1_555
O2 Cd2 1_555 1_555
O3 C10 1_555 1_555
O4 C10 1_555 1_555
O5 Cd1 1_555 1_555
O6 Cd1 1_555 1_555
O7 C19 1_555 1_555
O8 C19 1_555 1_555
O9 Cd1 1_555 1_555
O10 Cd2 1_555 1_555
N1 C1 1_555 1_555
N2 C1 1_555 1_555
N3 C2 1_555 1_555
N4 H1 1_555 1_555
N5 H2 1_555 1_555
C2 N2 1_555 1_555
C3 N1 1_555 1_555
C4 N4 1_555 1_555
C5 C4 1_555 1_555
C6 C5 1_555 1_555
H3 C6 1_555 1_555
C7 C6 1_555 1_555
H4 C7 1_555 1_555
C8 C7 1_555 1_555
C9 C4 1_555 1_555
H5 C9 1_555 1_555
C10 C5 1_555 1_555
C11 O2 1_555 1_555
C12 N5 1_555 1_555
C13 C12 1_555 1_555
H6 C13 1_555 1_555
C14 C13 1_555 1_555
C15 C14 1_555 1_555
H7 C15 1_555 1_555
C16 C15 1_555 1_555
H8 C16 1_555 1_555
C17 C12 1_555 1_555
C18 O5 1_555 1_555
C19 C17 1_555 1_555
Cd1A O4 1_555 1_555
Cd1C O7 1_555 1_555
Cd2A O3 1_555 1_555
O3A Cd2 1_555 1_555
O4A Cd1 1_555 1_555
O7C Cd1 1_555 1_555
O8C Cd1 1_555 1_555
Cd2 O5 1_555 1_555
Cd2 O4A 1_555 1_555
O4 Cd2A 1_555 1_555
O6 C18 1_555 1_555
O8 Cd1C 1_555 1_555
N3 C3 1_555 1_555
N4 C2 1_555 1_555
N5 C3 1_555 1_555
C8 C9 1_555 1_555
C8 C11 1_555 1_555
C14 C18 1_555 1_555
C16 C17 1_555 1_555

#END
