
#######################################################################
#
#                 Cambridge Crystallographic Data Centre
#                                CCDC 
#
#######################################################################
#
# If this CIF has been generated from an entry in the Cambridge 
# Structural Database, then it will include bibliographic, chemical, 
# crystal, experimental, refinement or atomic coordinate data resulting 
# from the CCDC's data processing and validation procedures.
#
#######################################################################

data_TUTDET
_symmetry_cell_setting           hexagonal
_symmetry_space_group_name_H-M   'P 63/m'
_symmetry_Int_Tables_number      176
_space_group_name_Hall           '-P 6c'
loop_
_symmetry_equiv_pos_site_id
_symmetry_equiv_pos_as_xyz
1 x,y,z
2 -y,x-y,z
3 -x+y,-x,z
4 -x,-y,1/2+z
5 y,-x+y,1/2+z
6 x-y,x,1/2+z
7 -x,-y,-z
8 y,-x+y,-z
9 x-y,x,-z
10 x,y,1/2-z
11 -y,x-y,1/2-z
12 -x+y,-x,1/2-z
_cell_length_a                   15.3164(10)
_cell_length_b                   15.3164(10)
_cell_length_c                   23.686(3)
_cell_angle_alpha                90
_cell_angle_beta                 90
_cell_angle_gamma                120
_cell_volume                     4812.11
loop_
_atom_site_label
_atom_site_type_symbol
_atom_site_fract_x
_atom_site_fract_y
_atom_site_fract_z
N3 N 0.8756(7) 0.2913(8) 0.0548(4)
H5 H 0.9213 0.2859 0.0762
H6 H 0.8286 0.2901 0.0781
C10 C 0.9263(13) 0.3891(12) 0.0247(7)
H7 H 0.9565 0.4430 0.0517
H8 H 0.8777 0.3961 0.0026
H9 H 0.9777 0.3916 0.0004
C11 C 0.8279(12) 0.2050(11) 0.0170(6)
H10 H 0.7960 0.1440 0.0388
H11 H 0.8779 0.2046 -0.0072
H12 H 0.7782 0.2095 -0.0055
N4 N 1.6151(15) 0.5502(14) 0.2500
H13 H 1.5997 0.5105 0.2807
C12 C 1.725(2) 0.626(2) 0.2500
H14 H 1.7611 0.5895 0.2500
H15 H 1.7426 0.6674 0.2169
C13 C 1.5516(18) 0.598(2) 0.2500
H16 H 1.4816 0.5466 0.2500
H17 H 1.5662 0.6388 0.2831
H13I H 1.5997 0.5105 0.2193
H15I H 1.7426 0.6674 0.2831
H17I H 1.5662 0.6388 0.2169
Cd1 Cd 0.6667 0.3333 0.14150(6)
Cl1 Cl 0.6667 0.3333 0.2500
Cl2 Cl 0.6667 0.3333 0.0330(3)
O1 O 0.7193(6) 0.2192(5) 0.1402(4)
O2 O 0.5563(6) 0.1114(6) 0.1498(4)
O3 O 0.6799(6) -0.2800(6) 0.1161(4)
O4 O 0.8294(10) -0.1588(11) 0.0917(9)
N1 N 0.5339(6) -0.2378(6) 0.1276(4)
H1 H 0.5558 -0.2797 0.1256
N2 N 0.3857(6) -0.2284(6) 0.1269(4)
C1 C 0.4310(8) -0.2815(7) 0.1276(5)
C2 C 0.6111(7) -0.1340(7) 0.1304(5)
C3 C 0.5887(8) -0.0555(8) 0.1373(5)
H2 H 0.5221 -0.0699 0.1386
C4 C 0.6689(7) 0.0454(6) 0.1423(4)
C5 C 0.7658(8) 0.0634(7) 0.1410(5)
H3 H 0.8184 0.1295 0.1445
C6 C 0.7883(7) -0.0116(7) 0.1348(5)
H4 H 0.8553 0.0038 0.1346
C7 C 0.7088(8) -0.1146(7) 0.1285(5)
C8 C 0.7456(9) -0.1890(9) 0.1176(8)
C9 C 0.6484(7) 0.1293(7) 0.1450(4)
O1A O -0.2192(5) -0.4999(8) 0.1402(4)
O2A O -0.1114(6) -0.5551(8) 0.1498(4)
O3A O 0.2800(6) -0.0401(8) 0.1161(4)
O4A O 0.1588(11) -0.0118(15) 0.0917(9)
N1A N 0.2378(6) -0.2283(8) 0.1276(4)
H1A H 0.2797 -0.1645 0.1256
N2A N 0.2284(6) -0.3859(8) 0.1269(4)
C1A C 0.2815(7) -0.2875(11) 0.1276(5)
C2A C 0.1340(7) -0.2549(10) 0.1304(5)
C3A C 0.0555(8) -0.3558(11) 0.1373(5)
H2A H 0.0699 -0.4080 0.1386
C4A C -0.0454(6) -0.3765(9) 0.1423(4)
C5A C -0.0634(7) -0.2976(11) 0.1410(5)
H3A H -0.1295 -0.3111 0.1445
C6A C 0.0116(7) -0.2001(10) 0.1348(5)
H4A H -0.0038 -0.1485 0.1346
C7A C 0.1146(7) -0.1766(11) 0.1285(5)
C8A C 0.1890(9) -0.0654(13) 0.1176(8)
C9A C -0.1293(7) -0.4809(10) 0.1450(4)
O1B O 0.4999(8) -0.7193(6) 0.1402(4)
O2B O 0.5551(8) -0.5563(6) 0.1498(4)
O3B O 0.0401(8) -0.6799(6) 0.1161(4)
O4B O 0.0118(15) -0.8294(10) 0.0917(9)
N1B N 0.2283(8) -0.5339(6) 0.1276(4)
H1B H 0.1645 -0.5558 0.1256
N2B N 0.3859(8) -0.3857(6) 0.1269(4)
C1B C 0.2875(11) -0.4310(8) 0.1276(5)
C2B C 0.2549(10) -0.6111(7) 0.1304(5)
C3B C 0.3558(11) -0.5887(8) 0.1373(5)
H2B H 0.4080 -0.5221 0.1386
C4B C 0.3765(9) -0.6689(7) 0.1423(4)
C5B C 0.2976(11) -0.7658(8) 0.1410(5)
H3B H 0.3111 -0.8184 0.1445
C6B C 0.2001(10) -0.7883(7) 0.1348(5)
H4B H 0.1485 -0.8553 0.1346
C7B C 0.1766(11) -0.7088(8) 0.1285(5)
C8B C 0.0654(13) -0.7456(9) 0.1176(8)
C9B C 0.4809(10) -0.6484(7) 0.1450(4)
Cd1I Cd 0.6667 0.3333 0.35850(6)
Cl2I Cl 0.6667 0.3333 0.4670(3)
O1I O 0.7193(6) 0.2192(5) 0.3598(4)
O2I O 0.5563(6) 0.1114(6) 0.3502(4)
O3I O 0.6799(6) -0.2800(6) 0.3839(4)
O4I O 0.8294(10) -0.1588(11) 0.4083(9)
N1I N 0.5339(6) -0.2378(6) 0.3724(4)
H1I H 0.5558 -0.2797 0.3744
N2I N 0.3857(6) -0.2284(6) 0.3731(4)
C1I C 0.4310(8) -0.2815(7) 0.3724(5)
C2I C 0.6111(7) -0.1340(7) 0.3696(5)
C3I C 0.5887(8) -0.0555(8) 0.3627(5)
H2I H 0.5221 -0.0699 0.3614
C4I C 0.6689(7) 0.0454(6) 0.3577(4)
C5I C 0.7658(8) 0.0634(7) 0.3590(5)
H3I H 0.8184 0.1295 0.3555
C6I C 0.7883(7) -0.0116(7) 0.3652(5)
H4I H 0.8553 0.0038 0.3654
C7I C 0.7088(8) -0.1146(7) 0.3715(5)
C8I C 0.7456(9) -0.1890(9) 0.3824(8)
C9I C 0.6484(7) 0.1293(7) 0.3550(4)
O1J O -0.2192(5) -0.4999(8) 0.3598(4)
O2J O -0.1114(6) -0.5551(8) 0.3502(4)
O3J O 0.2800(6) -0.0401(8) 0.3839(4)
O4J O 0.1588(11) -0.0118(15) 0.4083(9)
N1J N 0.2378(6) -0.2283(8) 0.3724(4)
H1J H 0.2797 -0.1645 0.3744
N2J N 0.2284(6) -0.3859(8) 0.3731(4)
C1J C 0.2815(7) -0.2875(11) 0.3724(5)
C2J C 0.1340(7) -0.2549(10) 0.3696(5)
C3J C 0.0555(8) -0.3558(11) 0.3627(5)
H2J H 0.0699 -0.4080 0.3614
C4J C -0.0454(6) -0.3765(9) 0.3577(4)
C5J C -0.0634(7) -0.2976(11) 0.3590(5)
H3J H -0.1295 -0.3111 0.3555
C6J C 0.0116(7) -0.2001(10) 0.3652(5)
H4J H -0.0038 -0.1485 0.3654
C7J C 0.1146(7) -0.1766(11) 0.3715(5)
C8J C 0.1890(9) -0.0654(13) 0.3824(8)
C9J C -0.1293(7) -0.4809(10) 0.3550(4)
O1K O 0.4999(8) -0.7193(6) 0.3598(4)
O2K O 0.5551(8) -0.5563(6) 0.3502(4)
O3K O 0.0401(8) -0.6799(6) 0.3839(4)
O4K O 0.0118(15) -0.8294(10) 0.4083(9)
N1K N 0.2283(8) -0.5339(6) 0.3724(4)
H1K H 0.1645 -0.5558 0.3744
N2K N 0.3859(8) -0.3857(6) 0.3731(4)
C1K C 0.2875(11) -0.4310(8) 0.3724(5)
C2K C 0.2549(10) -0.6111(7) 0.3696(5)
C3K C 0.3558(11) -0.5887(8) 0.3627(5)
H2K H 0.4080 -0.5221 0.3614
C4K C 0.3765(9) -0.6689(7) 0.3577(4)
C5K C 0.2976(11) -0.7658(8) 0.3590(5)
H3K H 0.3111 -0.8184 0.3555
C6K C 0.2001(10) -0.7883(7) 0.3652(5)
H4K H 0.1485 -0.8553 0.3654
C7K C 0.1766(11) -0.7088(8) 0.3715(5)
C8K C 0.0654(13) -0.7456(9) 0.3824(8)
C9K C 0.4809(10) -0.6484(7) 0.3550(4)
Cd1_2 Cd -0.3333 -0.6667 0.14150(6)
Cd1_3 Cd 0.6667 -0.6667 0.14150(6)
Cd1I_2 Cd -0.3333 -0.6667 0.35850(6)
Cd1I_3 Cd 0.6667 -0.6667 0.35850(6)
O1A_2 O 0.7808(5) 0.5001(8) 0.1402(4)
O1B_2 O 0.4999(8) 0.2807(6) 0.1402(4)
O1J_2 O 0.7808(5) 0.5001(8) 0.3598(4)
O1K_2 O 0.4999(8) 0.2807(6) 0.3598(4)
O5? O 0.8305(17) -0.1615(17) 0.1567(10)
loop_
_geom_bond_atom_site_label_1
_geom_bond_atom_site_label_2
_geom_bond_site_symmetry_1
_geom_bond_site_symmetry_2
Cd1 Cl1 1_555 1_555
Cl1 Cd1I 1_555 1_555
Cl2 Cd1 1_555 1_555
O1 Cd1 1_555 1_555
O2 C9 1_555 1_555
O3 C8 1_555 1_555
O4 C8 1_555 1_555
N1 H1 1_555 1_555
N2 C1 1_555 1_555
C1 N1 1_555 1_555
C2 N1 1_555 1_555
C3 C2 1_555 1_555
H2 C3 1_555 1_555
C4 C3 1_555 1_555
C5 C4 1_555 1_555
H3 C5 1_555 1_555
C6 C5 1_555 1_555
H4 C6 1_555 1_555
C7 C2 1_555 1_555
C8 C7 1_555 1_555
C9 O1 1_555 1_555
N3 H5 1_555 1_555
H6 N3 1_555 1_555
C10 N3 1_555 1_555
H7 C10 1_555 1_555
H8 C10 1_555 1_555
H9 C10 1_555 1_555
C11 N3 1_555 1_555
H10 C11 1_555 1_555
H11 C11 1_555 1_555
H12 C11 1_555 1_555
N4 H13 1_555 1_555
C12 N4 1_555 1_555
H14 C12 1_555 1_555
H15 C12 1_555 1_555
C13 N4 1_555 1_555
H16 C13 1_555 1_555
H17 C13 1_555 1_555
O1A C9A 1_555 1_555
O2A C9A 1_555 1_555
O3A C8A 1_555 1_555
O4A C8A 1_555 1_555
N1A H1A 1_555 1_555
N2A C1A 1_555 1_555
C1A N2 1_555 1_555
C2A N1A 1_555 1_555
C3A C2A 1_555 1_555
H2A C3A 1_555 1_555
C4A C3A 1_555 1_555
C5A C4A 1_555 1_555
H3A C5A 1_555 1_555
C6A C5A 1_555 1_555
H4A C6A 1_555 1_555
C7A C2A 1_555 1_555
C8A C7A 1_555 1_555
C9A C4A 1_555 1_555
O1B C9B 1_555 1_555
O2B C9B 1_555 1_555
O3B C8B 1_555 1_555
O4B C8B 1_555 1_555
N1B H1B 1_555 1_555
N2B C1 1_555 1_555
C1B N2A 1_555 1_555
C2B N1B 1_555 1_555
C3B C2B 1_555 1_555
H2B C3B 1_555 1_555
C4B C3B 1_555 1_555
C5B C4B 1_555 1_555
H3B C5B 1_555 1_555
C6B C5B 1_555 1_555
H4B C6B 1_555 1_555
C7B C2B 1_555 1_555
C8B C7B 1_555 1_555
C9B C4B 1_555 1_555
Cd1I Cl2I 1_555 1_555
O1I Cd1I 1_555 1_555
O2I C9I 1_555 1_555
O3I C8I 1_555 1_555
O4I C8I 1_555 1_555
N1I H1I 1_555 1_555
N2I C1I 1_555 1_555
C1I N1I 1_555 1_555
C2I N1I 1_555 1_555
C3I C2I 1_555 1_555
H2I C3I 1_555 1_555
C4I C3I 1_555 1_555
C5I C4I 1_555 1_555
H3I C5I 1_555 1_555
C6I C5I 1_555 1_555
H4I C6I 1_555 1_555
C7I C2I 1_555 1_555
C8I C7I 1_555 1_555
C9I O1I 1_555 1_555
O1J C9J 1_555 1_555
O2J C9J 1_555 1_555
O3J C8J 1_555 1_555
O4J C8J 1_555 1_555
N1J H1J 1_555 1_555
N2J C1J 1_555 1_555
C1J N2I 1_555 1_555
C2J N1J 1_555 1_555
C3J C2J 1_555 1_555
H2J C3J 1_555 1_555
C4J C3J 1_555 1_555
C5J C4J 1_555 1_555
H3J C5J 1_555 1_555
C6J C5J 1_555 1_555
H4J C6J 1_555 1_555
C7J C2J 1_555 1_555
C8J C7J 1_555 1_555
C9J C4J 1_555 1_555
O1K C9K 1_555 1_555
O2K C9K 1_555 1_555
O3K C8K 1_555 1_555
O4K C8K 1_555 1_555
N1K H1K 1_555 1_555
N2K C1I 1_555 1_555
C1K N2J 1_555 1_555
C2K N1K 1_555 1_555
C3K C2K 1_555 1_555
H2K C3K 1_555 1_555
C4K C3K 1_555 1_555
C5K C4K 1_555 1_555
H3K C5K 1_555 1_555
C6K C5K 1_555 1_555
H4K C6K 1_555 1_555
C7K C2K 1_555 1_555
C8K C7K 1_555 1_555
C9K C4K 1_555 1_555
Cd1_2 O1A 1_555 1_555
Cd1_3 O1B 1_555 1_555
Cd1I_2 O1J 1_555 1_555
Cd1I_3 O1K 1_555 1_555
O1A_2 Cd1 1_555 1_555
O1B_2 Cd1 1_555 1_555
O1J_2 Cd1I 1_555 1_555
O1K_2 Cd1I 1_555 1_555
H13I N4 1_555 1_555
H15I C12 1_555 1_555
H17I C13 1_555 1_555
C4 C9 1_555 1_555
C6 C7 1_555 1_555
N1A C1A 1_555 1_555
C6A C7A 1_555 1_555
N1B C1B 1_555 1_555
N2B C1B 1_555 1_555
C6B C7B 1_555 1_555
C4I C9I 1_555 1_555
C6I C7I 1_555 1_555
N1J C1J 1_555 1_555
C6J C7J 1_555 1_555
N1K C1K 1_555 1_555
N2K C1K 1_555 1_555
C6K C7K 1_555 1_555

#END
