
#######################################################################
#
#                 Cambridge Crystallographic Data Centre
#                                CCDC 
#
#######################################################################
#
# If this CIF has been generated from an entry in the Cambridge 
# Structural Database, then it will include bibliographic, chemical, 
# crystal, experimental, refinement or atomic coordinate data resulting 
# from the CCDC's data processing and validation procedures.
#
#######################################################################

data_TUTGUM
_symmetry_cell_setting           triclinic
_symmetry_space_group_name_H-M   'P -1'
_symmetry_Int_Tables_number      2
_space_group_name_Hall           '-P 1'
loop_
_symmetry_equiv_pos_site_id
_symmetry_equiv_pos_as_xyz
1 x,y,z
2 -x,-y,-z
_cell_length_a                   12.031(2)
_cell_length_b                   12.392(2)
_cell_length_c                   13.012(3)
_cell_angle_alpha                90.27(3)
_cell_angle_beta                 115.75(3)
_cell_angle_gamma                112.50(3)
_cell_volume                     1579.85
loop_
_atom_site_label
_atom_site_type_symbol
_atom_site_fract_x
_atom_site_fract_y
_atom_site_fract_z
Zn1 Zn 0.37199(5) 0.19578(5) 0.14353(4)
O1 O 0.5520(3) 0.3194(3) 0.2594(3)
O2 O 0.5654(4) 0.3933(4) 0.1078(3)
O3 O 1.2376(4) 0.7946(4) 0.5001(4)
O4 O 1.1532(4) 1.0088(3) 0.9764(3)
O5 O 1.3734(3) 1.1009(3) 1.0250(3)
N1 N 0.2478(4) 0.2778(4) 0.0802(3)
N2 N 0.0667(4) 0.3128(4) 0.0259(4)
N3 N -0.4553(4) 0.2603(4) -0.0895(4)
H1 H -0.4907 0.2747 -0.0491
N4 N -0.6568(4) 0.1039(4) -0.5617(3)
N5 N -0.6696(4) 0.1117(4) -0.7355(3)
C1 C -0.5925(5) 0.1561(5) -0.6218(4)
H2 H -0.5041 0.2165 -0.5881
C2 C -0.7916(6) 0.0257(5) -0.7483(5)
H3 H -0.8663 -0.0213 -0.8187
C3 C -0.7853(6) 0.0207(5) -0.6419(5)
H4 H -0.8540 -0.0290 -0.6259
C4 C -0.6081(5) 0.1407(5) -0.4393(4)
C5 C -0.6981(5) 0.1552(6) -0.4045(5)
H5 H -0.7869 0.1383 -0.4602
C6 C -0.6559(6) 0.1941(6) -0.2892(5)
H6 H -0.7153 0.2027 -0.2656
C7 C -0.5222(5) 0.2201(5) -0.2089(4)
C8 C -0.4309(5) 0.2071(4) -0.2434(4)
C9 C -0.4751(5) 0.1657(5) -0.3606(4)
H7 H -0.4168 0.1553 -0.3847
C10 C -0.3014(5) 0.2444(4) -0.1379(4)
C11 C -0.1711(5) 0.2571(4) -0.1152(4)
H8 H -0.1544 0.2391 -0.1750
C12 C -0.0701(5) 0.2967(4) -0.0023(4)
C13 C -0.0917(5) 0.3239(5) 0.0904(4)
H9 H -0.0200 0.3501 0.1661
C14 C -0.2190(5) 0.3121(5) 0.0697(4)
H10 H -0.2349 0.3290 0.1304
C15 C -0.3226(5) 0.2738(4) -0.0455(4)
C16 C 0.1690(6) 0.4157(6) 0.0329(7)
H11 H 0.1639 0.4874 0.0180
C17 C 0.2799(6) 0.3930(6) 0.0660(6)
H12 H 0.3650 0.4476 0.0774
C18 C 0.1174(5) 0.2319(5) 0.0554(4)
H13 H 0.0680 0.1540 0.0582
C19 C 0.6124(5) 0.3955(5) 0.2135(4)
C20 C 1.2496(5) 1.0256(4) 0.9566(4)
C21 C 0.7505(5) 0.4940(5) 0.2976(4)
C22 C 0.8260(6) 0.5759(5) 0.2541(5)
H14 H 0.7905 0.5717 0.1741
C23 C 0.9544(6) 0.6643(5) 0.3297(5)
H15 H 1.0056 0.7174 0.2998
C24 C 1.0070(5) 0.6739(4) 0.4490(4)
C25 C 0.9294(5) 0.5932(5) 0.4921(4)
H16 H 0.9625 0.6001 0.5722
C26 C 0.8025(5) 0.5022(5) 0.4165(4)
H17 H 0.7528 0.4469 0.4461
C27 C 1.1476(5) 0.7695(5) 0.5282(4)
C28 C 1.1729(5) 0.8325(4) 0.6396(4)
C29 C 1.0671(5) 0.8409(5) 0.6521(4)
H18 H 0.9784 0.8049 0.5911
C30 C 1.0937(5) 0.9033(5) 0.7559(4)
H19 H 1.0227 0.9079 0.7644
C31 C 1.2259(5) 0.9582(4) 0.8460(4)
C32 C 1.3315(5) 0.9504(4) 0.8339(4)
H20 H 1.4202 0.9869 0.8949
C33 C 1.3053(5) 0.8883(4) 0.7310(4)
H21 H 1.3767 0.8839 0.7231
Zn1_2 Zn -0.62801(5) 0.19578(5) -0.85647(4)
Zn1_3 Zn 1.37199(5) 1.19578(5) 1.14353(4)
O5_2 O 0.3734(3) 0.1009(3) 0.0250(3)
N5_2 N 0.3304(4) 0.1117(4) 0.2645(3)
O6 O 0.736(2) 0.633(2) 0.6439(19)
loop_
_geom_bond_atom_site_label_1
_geom_bond_atom_site_label_2
_geom_bond_site_symmetry_1
_geom_bond_site_symmetry_2
Zn1 O1 1_555 1_555
O1 C19 1_555 1_555
O2 C19 1_555 1_555
O3 C27 1_555 1_555
O4 C20 1_555 1_555
O5 C20 1_555 1_555
N1 Zn1 1_555 1_555
N2 C12 1_555 1_555
N3 H1 1_555 1_555
N4 C1 1_555 1_555
N5 C1 1_555 1_555
C1 H2 1_555 1_555
C2 N5 1_555 1_555
H3 C2 1_555 1_555
C3 N4 1_555 1_555
H4 C3 1_555 1_555
C4 N4 1_555 1_555
C5 C4 1_555 1_555
H5 C5 1_555 1_555
C6 C5 1_555 1_555
H6 C6 1_555 1_555
C7 N3 1_555 1_555
C8 C7 1_555 1_555
C9 C4 1_555 1_555
H7 C9 1_555 1_555
C10 C8 1_555 1_555
C11 C10 1_555 1_555
H8 C11 1_555 1_555
C12 C11 1_555 1_555
C13 C12 1_555 1_555
H9 C13 1_555 1_555
C14 C13 1_555 1_555
H10 C14 1_555 1_555
C15 N3 1_555 1_555
C16 N2 1_555 1_555
H11 C16 1_555 1_555
C17 N1 1_555 1_555
H12 C17 1_555 1_555
C18 N1 1_555 1_555
H13 C18 1_555 1_555
C19 C21 1_555 1_555
C20 C31 1_555 1_555
C21 C22 1_555 1_555
C22 H14 1_555 1_555
C23 C22 1_555 1_555
H15 C23 1_555 1_555
C24 C23 1_555 1_555
C25 C24 1_555 1_555
H16 C25 1_555 1_555
C26 C21 1_555 1_555
H17 C26 1_555 1_555
C27 C24 1_555 1_555
C28 C27 1_555 1_555
C29 C28 1_555 1_555
H18 C29 1_555 1_555
C30 C29 1_555 1_555
H19 C30 1_555 1_555
C31 C30 1_555 1_555
C32 C31 1_555 1_555
H20 C32 1_555 1_555
C33 C28 1_555 1_555
H21 C33 1_555 1_555
Zn1_2 N5 1_555 1_555
Zn1_3 O5 1_555 1_555
O5_2 Zn1 1_555 1_555
N5_2 Zn1 1_555 1_555
N2 C18 1_555 1_555
C2 C3 1_555 1_555
C6 C7 1_555 1_555
C8 C9 1_555 1_555
C10 C15 1_555 1_555
C14 C15 1_555 1_555
C16 C17 1_555 1_555
C25 C26 1_555 1_555
C32 C33 1_555 1_555

#END
