
#######################################################################
#
#                 Cambridge Crystallographic Data Centre
#                                CCDC 
#
#######################################################################
#
# If this CIF has been generated from an entry in the Cambridge 
# Structural Database, then it will include bibliographic, chemical, 
# crystal, experimental, refinement or atomic coordinate data resulting 
# from the CCDC's data processing and validation procedures.
#
#######################################################################

data_TUTGIA
_symmetry_cell_setting           monoclinic
_symmetry_space_group_name_H-M   'P 21/c'
_symmetry_Int_Tables_number      14
_space_group_name_Hall           '-P 2ybc'
loop_
_symmetry_equiv_pos_site_id
_symmetry_equiv_pos_as_xyz
1 x,y,z
2 -x,1/2+y,1/2-z
3 -x,-y,-z
4 x,1/2-y,1/2+z
_cell_length_a                   10.768(2)
_cell_length_b                   18.750(4)
_cell_length_c                   11.569(2)
_cell_angle_alpha                90
_cell_angle_beta                 99.52(3)
_cell_angle_gamma                90
_cell_volume                     2303.61
loop_
_atom_site_label
_atom_site_type_symbol
_atom_site_fract_x
_atom_site_fract_y
_atom_site_fract_z
Zn1 Zn 0.86481(4) 0.33712(2) -0.14318(4)
O1 O 0.7005(3) 0.36089(17) -0.0946(3)
O2 O 0.8233(3) 0.45149(18) -0.0306(3)
O3 O 0.8670(2) 0.39644(16) -0.2824(2)
O4 O 1.0024(3) 0.32639(17) -0.3548(3)
N1 N 1.0331(3) 0.33216(17) -0.0395(3)
N2 N 1.2184(3) 0.29003(17) 0.0439(3)
N3 N 1.6020(3) 0.08983(18) 0.1324(3)
H1 H 1.6821 0.0918 0.1347
N4 N 1.2750(3) -0.13007(17) 0.1954(3)
N5 N 1.1781(3) -0.23372(17) 0.1889(3)
C1 C 1.1125(4) 0.2783(2) -0.0327(4)
H2 H 1.0968 0.2366 -0.0762
C2 C 1.0921(4) 0.3816(2) 0.0386(4)
H3 H 1.0588 0.4257 0.0542
C3 C 1.2063(4) 0.3565(3) 0.0895(5)
H4 H 1.2649 0.3798 0.1447
C4 C 1.3224(4) 0.2407(2) 0.0717(4)
C5 C 1.4453(4) 0.2652(2) 0.0755(4)
H5 H 1.4598 0.3133 0.0630
C6 C 1.5458(4) 0.2186(2) 0.0975(3)
H6 H 1.6281 0.2347 0.1009
C7 C 1.5207(3) 0.1469(2) 0.1145(3)
C8 C 1.3964(3) 0.1223(2) 0.1133(3)
C9 C 1.2954(3) 0.1702(2) 0.0928(3)
H7 H 1.2131 0.1552 0.0933
C10 C 1.4054(3) 0.0467(2) 0.1359(3)
C11 C 1.5338(3) 0.0289(2) 0.1460(3)
C12 C 1.5769(4) -0.0408(2) 0.1677(3)
H8 H 1.6616 -0.0521 0.1722
C13 C 1.4892(4) -0.0922(2) 0.1823(4)
H9 H 1.5152 -0.1391 0.1974
C14 C 1.3624(4) -0.0750(2) 0.1747(3)
C15 C 1.3183(3) -0.0066(2) 0.1505(3)
H10 H 1.2330 0.0038 0.1440
C16 C 1.1888(4) -0.1260(2) 0.2708(3)
H11 H 1.1737 -0.0869 0.3161
C17 C 1.1304(4) -0.1900(2) 0.2661(3)
H12 H 1.0676 -0.2026 0.3086
C18 C 1.2649(4) -0.1963(2) 0.1493(4)
H13 H 1.3135 -0.2133 0.0959
C19 C 0.7175(4) 0.4229(2) -0.0513(4)
C20 C 0.6039(4) 0.4623(2) -0.0241(3)
C21 C 0.6200(4) 0.5229(2) 0.0448(3)
H14 H 0.7008 0.5385 0.0754
C22 C 0.4841(4) 0.4392(2) -0.0686(3)
H15 H 0.4727 0.3983 -0.1146
C23 C 0.9468(3) 0.3828(2) -0.3516(4)
C24 C 0.9713(3) 0.4442(2) -0.4292(3)
C25 C 0.9549(3) 0.5140(2) -0.3973(3)
H16 H 0.9248 0.5238 -0.3281
C26 C 1.0170(3) 0.4305(2) -0.5326(3)
H17 H 1.0287 0.3836 -0.5548
O1B O 0.2995(3) 0.63911(17) 0.0946(3)
O2B O 0.1767(3) 0.54851(18) 0.0306(3)
C19B C 0.2825(4) 0.5771(2) 0.0513(4)
C20B C 0.3961(4) 0.5377(2) 0.0241(3)
C21B C 0.3800(4) 0.4771(2) -0.0448(3)
H14B H 0.2992 0.4615 -0.0754
C22B C 0.5159(4) 0.5608(2) 0.0686(3)
H15B H 0.5273 0.6017 0.1146
O3B O 1.1330(2) 0.60356(16) -0.7176(2)
O4B O 0.9976(3) 0.67361(17) -0.6452(3)
C23B C 1.0532(3) 0.6172(2) -0.6484(4)
C24B C 1.0287(3) 0.5558(2) -0.5708(3)
C25B C 1.0451(3) 0.4860(2) -0.6027(3)
H16B H 1.0752 0.4762 -0.6719
C26B C 0.9830(3) 0.5695(2) -0.4674(3)
H17B H 0.9713 0.6164 -0.4452
Zn1B Zn 0.13519(4) 0.66288(2) 0.14318(4)
N1B N -0.0331(3) 0.66784(17) 0.0395(3)
N2B N -0.2184(3) 0.70997(17) -0.0439(3)
N3B N -0.6020(3) 0.91017(18) -0.1324(3)
H1B H -0.6821 0.9082 -0.1347
N4B N -0.2750(3) 1.13007(17) -0.1954(3)
N5B N -0.1781(3) 1.23372(17) -0.1889(3)
C1B C -0.1125(4) 0.7217(2) 0.0327(4)
H2B H -0.0968 0.7634 0.0762
C2B C -0.0921(4) 0.6184(2) -0.0386(4)
H3B H -0.0588 0.5743 -0.0542
C3B C -0.2063(4) 0.6435(3) -0.0895(5)
H4B H -0.2649 0.6202 -0.1447
C4B C -0.3224(4) 0.7593(2) -0.0717(4)
C5B C -0.4453(4) 0.7348(2) -0.0755(4)
H5B H -0.4598 0.6867 -0.0630
C6B C -0.5458(4) 0.7814(2) -0.0975(3)
H6B H -0.6281 0.7653 -0.1009
C7B C -0.5207(3) 0.8531(2) -0.1145(3)
C8B C -0.3964(3) 0.8777(2) -0.1133(3)
C9B C -0.2954(3) 0.8298(2) -0.0928(3)
H7B H -0.2131 0.8448 -0.0933
C10B C -0.4054(3) 0.9533(2) -0.1359(3)
C11B C -0.5338(3) 0.9711(2) -0.1460(3)
C12B C -0.5769(4) 1.0408(2) -0.1677(3)
H8B H -0.6616 1.0521 -0.1722
C13B C -0.4892(4) 1.0922(2) -0.1823(4)
H9B H -0.5152 1.1391 -0.1974
C14B C -0.3624(4) 1.0750(2) -0.1747(3)
C15B C -0.3183(3) 1.0066(2) -0.1505(3)
H10B H -0.2330 0.9962 -0.1440
C16B C -0.1888(4) 1.1260(2) -0.2708(3)
H11B H -0.1737 1.0869 -0.3161
C17B C -0.1304(4) 1.1900(2) -0.2661(3)
H12B H -0.0676 1.2026 -0.3086
C18B C -0.2649(4) 1.1963(2) -0.1493(4)
H13B H -0.3135 1.2133 -0.0959
Zn1_2 Zn -0.13519(4) 1.33712(2) -0.14318(4)
Zn1B_2 Zn 1.13519(4) -0.33712(2) 0.14318(4)
Zn1B_3 Zn 1.13519(4) 0.66288(2) -0.85682(4)
O3B_2 O 0.1330(2) 0.60356(16) 0.2824(2)
N5_2 N 0.1781(3) 0.76628(17) 0.1889(3)
N5B_2 N 0.8219(3) 0.23372(17) -0.1889(3)
loop_
_geom_bond_atom_site_label_1
_geom_bond_atom_site_label_2
_geom_bond_site_symmetry_1
_geom_bond_site_symmetry_2
Zn1 O1 1_555 1_555
O1 C19 1_555 1_555
O2 C19 1_555 1_555
O3 Zn1 1_555 1_555
O4 C23 1_555 1_555
N1 Zn1 1_555 1_555
N2 C1 1_555 1_555
N3 H1 1_555 1_555
N4 C14 1_555 1_555
N5 C17 1_555 1_555
C1 N1 1_555 1_555
H2 C1 1_555 1_555
C2 N1 1_555 1_555
H3 C2 1_555 1_555
C3 N2 1_555 1_555
H4 C3 1_555 1_555
C4 N2 1_555 1_555
C5 C4 1_555 1_555
H5 C5 1_555 1_555
C6 C5 1_555 1_555
H6 C6 1_555 1_555
C7 N3 1_555 1_555
C8 C7 1_555 1_555
C9 C4 1_555 1_555
H7 C9 1_555 1_555
C10 C8 1_555 1_555
C11 N3 1_555 1_555
C12 C11 1_555 1_555
H8 C12 1_555 1_555
C13 C12 1_555 1_555
H9 C13 1_555 1_555
C14 C13 1_555 1_555
C15 C10 1_555 1_555
H10 C15 1_555 1_555
C16 N4 1_555 1_555
H11 C16 1_555 1_555
C17 C16 1_555 1_555
H12 C17 1_555 1_555
C18 N4 1_555 1_555
H13 C18 1_555 1_555
C19 C20 1_555 1_555
C20 C21 1_555 1_555
C21 H14 1_555 1_555
C22 C20 1_555 1_555
H15 C22 1_555 1_555
C23 O3 1_555 1_555
C24 C23 1_555 1_555
C25 C24 1_555 1_555
H16 C25 1_555 1_555
C26 C24 1_555 1_555
H17 C26 1_555 1_555
O1B C19B 1_555 1_555
O2B C19B 1_555 1_555
C19B C20B 1_555 1_555
C20B C21B 1_555 1_555
C21B C22 1_555 1_555
H14B C21B 1_555 1_555
C22B C21 1_555 1_555
H15B C22B 1_555 1_555
O3B C23B 1_555 1_555
O4B C23B 1_555 1_555
C23B C24B 1_555 1_555
C24B C25B 1_555 1_555
C25B C26 1_555 1_555
H16B C25B 1_555 1_555
C26B C25 1_555 1_555
H17B C26B 1_555 1_555
Zn1B O1B 1_555 1_555
N1B Zn1B 1_555 1_555
N2B C1B 1_555 1_555
N3B H1B 1_555 1_555
N4B C14B 1_555 1_555
N5B C17B 1_555 1_555
C1B N1B 1_555 1_555
H2B C1B 1_555 1_555
C2B N1B 1_555 1_555
H3B C2B 1_555 1_555
C3B N2B 1_555 1_555
H4B C3B 1_555 1_555
C4B N2B 1_555 1_555
C5B C4B 1_555 1_555
H5B C5B 1_555 1_555
C6B C5B 1_555 1_555
H6B C6B 1_555 1_555
C7B N3B 1_555 1_555
C8B C7B 1_555 1_555
C9B C4B 1_555 1_555
H7B C9B 1_555 1_555
C10B C8B 1_555 1_555
C11B N3B 1_555 1_555
C12B C11B 1_555 1_555
H8B C12B 1_555 1_555
C13B C12B 1_555 1_555
H9B C13B 1_555 1_555
C14B C13B 1_555 1_555
C15B C10B 1_555 1_555
H10B C15B 1_555 1_555
C16B N4B 1_555 1_555
H11B C16B 1_555 1_555
C17B C16B 1_555 1_555
H12B C17B 1_555 1_555
C18B N4B 1_555 1_555
H13B C18B 1_555 1_555
Zn1_2 N5B 1_555 1_555
Zn1B_2 N5 1_555 1_555
Zn1B_3 O3B 1_555 1_555
O3B_2 Zn1B 1_555 1_555
N5_2 Zn1B 1_555 1_555
N5B_2 Zn1 1_555 1_555
N5 C18 1_555 1_555
C2 C3 1_555 1_555
C6 C7 1_555 1_555
C8 C9 1_555 1_555
C10 C11 1_555 1_555
C14 C15 1_555 1_555
C20B C22B 1_555 1_555
C24B C26B 1_555 1_555
N5B C18B 1_555 1_555
C2B C3B 1_555 1_555
C6B C7B 1_555 1_555
C8B C9B 1_555 1_555
C10B C11B 1_555 1_555
C14B C15B 1_555 1_555

#END
