
#######################################################################
#
#                 Cambridge Crystallographic Data Centre
#                                CCDC 
#
#######################################################################
#
# If this CIF has been generated from an entry in the Cambridge 
# Structural Database, then it will include bibliographic, chemical, 
# crystal, experimental, refinement or atomic coordinate data resulting 
# from the CCDC's data processing and validation procedures.
#
#######################################################################

data_TUTGOG
_symmetry_cell_setting           monoclinic
_symmetry_space_group_name_H-M   'C 2/c'
_symmetry_Int_Tables_number      15
_space_group_name_Hall           '-C 2yn'
loop_
_symmetry_equiv_pos_site_id
_symmetry_equiv_pos_as_xyz
1 x,y,z
2 -x,y,1/2-z
3 1/2+x,1/2+y,z
4 1/2-x,1/2+y,1/2-z
5 -x,-y,-z
6 x,-y,1/2+z
7 1/2-x,1/2-y,-z
8 1/2+x,1/2-y,1/2+z
_cell_length_a                   16.942(3)
_cell_length_b                   19.285(4)
_cell_length_c                   17.024(3)
_cell_angle_alpha                90
_cell_angle_beta                 113.06(3)
_cell_angle_gamma                90
_cell_volume                     5117.75
loop_
_atom_site_label
_atom_site_type_symbol
_atom_site_fract_x
_atom_site_fract_y
_atom_site_fract_z
Zn1 Zn 0.16025(2) 0.11990(2) 0.12285(2)
O1 O 0.07265(12) 0.07941(10) 0.02245(12)
O2 O 0.00956(12) 0.18175(11) -0.02081(13)
O3 O 0.11146(13) 0.15037(11) 0.20478(12)
O4 O 0.24565(12) 0.16478(10) 0.30009(12)
N1 N 0.21677(13) 0.20484(11) 0.10317(13)
N2 N 0.23658(13) 0.31502(11) 0.08555(13)
N3 N 0.14707(15) 0.59236(13) 0.02255(16)
H1 H 0.1684(18) 0.6288(14) 0.0499(19)
N4 N -0.14789(13) 0.52490(11) -0.25969(13)
N5 N -0.25514(13) 0.45863(12) -0.33946(13)
C1 C 0.25794(17) 0.50628(15) 0.11068(18)
H2 H 0.2969 0.5391 0.1457
C2 C 0.27544(17) 0.43649(15) 0.12154(17)
H3 H 0.3267 0.4214 0.1650
C3 C 0.21769(16) 0.38740(14) 0.06854(17)
C4 C 0.14231(16) 0.40745(14) 0.00343(16)
H4 H 0.1043 0.3745 -0.0324
C5 C -0.01699(16) 0.49561(13) -0.13948(16)
H5 H -0.0265 0.4486 -0.1549
C6 C -0.07308(16) 0.54601(14) -0.18653(16)
C7 C -0.05830(18) 0.61643(14) -0.16471(19)
H6 H -0.0977 0.6498 -0.1979
C8 C 0.01304(18) 0.63724(14) -0.0954(2)
H7 H 0.0230 0.6844 -0.0812
C9 C 0.18152(16) 0.52686(14) 0.04687(17)
C10 C 0.12422(15) 0.47794(13) -0.00752(16)
C11 C 0.05436(15) 0.51627(13) -0.06823(16)
C12 C 0.06971(17) 0.58704(14) -0.04723(18)
C13 C 0.17964(16) 0.26551(14) 0.08132(16)
H8 H 0.1205 0.2733 0.0648
C14 C 0.31519(17) 0.28383(15) 0.11045(18)
H9 H 0.3675 0.3052 0.1178
C15 C 0.30260(17) 0.21598(15) 0.12240(17)
H10 H 0.3456 0.1819 0.1409
C16 C -0.19053(16) 0.46501(13) -0.26447(16)
H11 H -0.1762 0.4321 -0.2203
C17 C -0.18680(17) 0.55900(14) -0.33520(19)
H12 H -0.1711 0.6022 -0.3503
C18 C -0.25300(17) 0.51798(14) -0.38434(17)
H13 H -0.2914 0.5283 -0.4402
C19 C 0.01401(17) 0.11822(16) -0.02876(17)
C20 C -0.05219(17) 0.08038(17) -0.10499(18)
H14 H -0.0592 0.0329 -0.0883
H15 H -0.1077 0.1040 -0.1223
C21 C -0.02474(15) 0.07836(14) -0.18016(16)
C22 C -0.01193(17) 0.01657(15) -0.21581(17)
H16 H -0.0197 -0.0259 -0.1927
C23 C -0.01289(16) 0.13960(14) -0.21612(16)
H17 H -0.0225 0.1821 -0.1942
C24 C 0.16663(19) 0.17241(14) 0.27552(17)
C25 C 0.12758(19) 0.21083(15) 0.33055(18)
H18 H 0.0991 0.2528 0.3002
H19 H 0.0835 0.1813 0.3370
C26 C 0.19069(17) 0.23121(14) 0.41813(17)
C27 C 0.25995(18) 0.27471(14) 0.42856(17)
H20 H 0.2674 0.2916 0.3801
C28 C 0.18204(18) 0.20652(15) 0.49084(18)
H21 H 0.1363 0.1767 0.4854
O1A O -0.07265(12) 0.07941(10) -0.52245(12)
O2A O -0.00956(12) 0.18175(11) -0.47919(13)
C19A C -0.01401(17) 0.11822(16) -0.47124(17)
C20A C 0.05219(17) 0.08038(17) -0.39501(18)
H14A H 0.0592 0.0329 -0.4117
H15A H 0.1077 0.1040 -0.3777
C21A C 0.02474(15) 0.07836(14) -0.31984(16)
C22A C 0.01193(17) 0.01657(15) -0.28419(17)
H16A H 0.0197 -0.0259 -0.3073
C23A C 0.01289(16) 0.13960(14) -0.28388(16)
H17A H 0.0225 0.1821 -0.3058
O3F O 0.38854(13) 0.34963(11) 0.79522(12)
O4F O 0.25435(12) 0.33522(10) 0.69991(12)
C24F C 0.33337(19) 0.32759(14) 0.72448(17)
C25F C 0.37242(19) 0.28917(15) 0.66945(18)
H18F H 0.4009 0.2472 0.6998
H19F H 0.4165 0.3187 0.6630
C26F C 0.30931(17) 0.26879(14) 0.58187(17)
C27F C 0.24005(18) 0.22529(14) 0.57144(17)
H20F H 0.2326 0.2084 0.6199
C28F C 0.31796(18) 0.29348(15) 0.50916(18)
H21F H 0.3637 0.3233 0.5146
Zn1A Zn -0.16025(2) 0.11990(2) -0.62285(2)
N1A N -0.21677(13) 0.20484(11) -0.60317(13)
N2A N -0.23658(13) 0.31502(11) -0.58555(13)
N3A N -0.14707(15) 0.59236(13) -0.52255(16)
H1A H -0.1684(18) 0.6288(14) -0.5499(19)
N4A N 0.14789(13) 0.52490(11) -0.24031(13)
N5A N 0.25514(13) 0.45863(12) -0.16054(13)
C1A C -0.25794(17) 0.50628(15) -0.61068(18)
H2A H -0.2969 0.5391 -0.6457
C2A C -0.27544(17) 0.43649(15) -0.62154(17)
H3A H -0.3267 0.4214 -0.6650
C3A C -0.21769(16) 0.38740(14) -0.56854(17)
C4A C -0.14231(16) 0.40745(14) -0.50343(16)
H4A H -0.1043 0.3745 -0.4676
C5A C 0.01699(16) 0.49561(13) -0.36052(16)
H5A H 0.0265 0.4486 -0.3451
C6A C 0.07308(16) 0.54601(14) -0.31347(16)
C7A C 0.05830(18) 0.61643(14) -0.33529(19)
H6A H 0.0977 0.6498 -0.3021
C8A C -0.01304(18) 0.63724(14) -0.4046(2)
H7A H -0.0230 0.6844 -0.4188
C9A C -0.18152(16) 0.52686(14) -0.54687(17)
C10A C -0.12422(15) 0.47794(13) -0.49248(16)
C11A C -0.05436(15) 0.51627(13) -0.43177(16)
C12A C -0.06971(17) 0.58704(14) -0.45277(18)
C13A C -0.17964(16) 0.26551(14) -0.58132(16)
H8A H -0.1205 0.2733 -0.5648
C14A C -0.31519(17) 0.28383(15) -0.61045(18)
H9A H -0.3675 0.3052 -0.6178
C15A C -0.30260(17) 0.21598(15) -0.62240(17)
H10A H -0.3456 0.1819 -0.6409
C16A C 0.19053(16) 0.46501(13) -0.23553(16)
H11A H 0.1762 0.4321 -0.2797
C17A C 0.18680(17) 0.55900(14) -0.16480(19)
H12A H 0.1711 0.6022 -0.1497
C18A C 0.25300(17) 0.51798(14) -0.11566(17)
H13A H 0.2914 0.5283 -0.0598
Zn1F Zn 0.33975(2) 0.38010(2) -0.12285(2)
Zn1F_2 Zn 0.33975(2) 0.38010(2) 0.87715(2)
Zn1G Zn -0.33975(2) 0.38010(2) -0.37715(2)
O3A O -0.11146(13) 0.15037(11) -0.70478(12)
N5F N -0.24486(13) 0.04137(12) -0.66054(13)
N5G N 0.24486(13) 0.04137(12) 0.16054(13)
O5 O 0.5000 0.15058(16) 0.2500
H22 H 0.5171 0.1795 0.2167
H22A H 0.4829 0.1795 0.2833
O6 O 0.43264(15) 0.20548(11) 0.36808(14)
H23 H 0.3791 0.1984 0.3518
H24 H 0.4446 0.2419 0.3987
loop_
_geom_bond_atom_site_label_1
_geom_bond_atom_site_label_2
_geom_bond_site_symmetry_1
_geom_bond_site_symmetry_2
Zn1 O1 1_555 1_555
O1 C19 1_555 1_555
O2 C19 1_555 1_555
O3 Zn1 1_555 1_555
O4 C24 1_555 1_555
N1 Zn1 1_555 1_555
N2 C3 1_555 1_555
N3 H1 1_555 1_555
N4 C6 1_555 1_555
N5 C16 1_555 1_555
C1 H2 1_555 1_555
C2 C1 1_555 1_555
H3 C2 1_555 1_555
C3 C2 1_555 1_555
C4 C3 1_555 1_555
H4 C4 1_555 1_555
C5 H5 1_555 1_555
C6 C5 1_555 1_555
C7 C6 1_555 1_555
H6 C7 1_555 1_555
C8 C7 1_555 1_555
H7 C8 1_555 1_555
C9 N3 1_555 1_555
C10 C4 1_555 1_555
C11 C5 1_555 1_555
C12 N3 1_555 1_555
C13 N1 1_555 1_555
H8 C13 1_555 1_555
C14 N2 1_555 1_555
H9 C14 1_555 1_555
C15 N1 1_555 1_555
H10 C15 1_555 1_555
C16 N4 1_555 1_555
H11 C16 1_555 1_555
C17 N4 1_555 1_555
H12 C17 1_555 1_555
C18 N5 1_555 1_555
H13 C18 1_555 1_555
C19 C20 1_555 1_555
C20 H14 1_555 1_555
H15 C20 1_555 1_555
C21 C20 1_555 1_555
C22 C21 1_555 1_555
H16 C22 1_555 1_555
C23 C21 1_555 1_555
H17 C23 1_555 1_555
C24 O3 1_555 1_555
C25 C24 1_555 1_555
H18 C25 1_555 1_555
H19 C25 1_555 1_555
C26 C25 1_555 1_555
C27 C26 1_555 1_555
H20 C27 1_555 1_555
C28 C26 1_555 1_555
H21 C28 1_555 1_555
O5 H22 1_555 1_555
O6 H23 1_555 1_555
H24 O6 1_555 1_555
O1A C19A 1_555 1_555
O2A C19A 1_555 1_555
C19A C20A 1_555 1_555
C20A H14A 1_555 1_555
H15A C20A 1_555 1_555
C21A C20A 1_555 1_555
C22A C22 1_555 1_555
H16A C22A 1_555 1_555
C23A C23 1_555 1_555
H17A C23A 1_555 1_555
O3F C24F 1_555 1_555
O4F C24F 1_555 1_555
C24F C25F 1_555 1_555
C25F H18F 1_555 1_555
H19F C25F 1_555 1_555
C26F C25F 1_555 1_555
C27F C28 1_555 1_555
H20F C27F 1_555 1_555
C28F C27 1_555 1_555
H21F C28F 1_555 1_555
Zn1A O1A 1_555 1_555
N1A Zn1A 1_555 1_555
N2A C3A 1_555 1_555
N3A H1A 1_555 1_555
N4A C6A 1_555 1_555
N5A C16A 1_555 1_555
C1A H2A 1_555 1_555
C2A C1A 1_555 1_555
H3A C2A 1_555 1_555
C3A C2A 1_555 1_555
C4A C3A 1_555 1_555
H4A C4A 1_555 1_555
C5A H5A 1_555 1_555
C6A C5A 1_555 1_555
C7A C6A 1_555 1_555
H6A C7A 1_555 1_555
C8A C7A 1_555 1_555
H7A C8A 1_555 1_555
C9A N3A 1_555 1_555
C10A C4A 1_555 1_555
C11A C5A 1_555 1_555
C12A N3A 1_555 1_555
C13A N1A 1_555 1_555
H8A C13A 1_555 1_555
C14A N2A 1_555 1_555
H9A C14A 1_555 1_555
C15A N1A 1_555 1_555
H10A C15A 1_555 1_555
C16A N4A 1_555 1_555
H11A C16A 1_555 1_555
C17A N4A 1_555 1_555
H12A C17A 1_555 1_555
C18A N5A 1_555 1_555
H13A C18A 1_555 1_555
Zn1F N5A 1_555 1_555
Zn1F_2 O3F 1_555 1_555
Zn1G N5 1_555 1_555
O3A Zn1A 1_555 1_555
N5F Zn1A 1_555 1_555
N5G Zn1 1_555 1_555
H22A O5 1_555 1_555
N2 C13 1_555 1_555
C1 C9 1_555 1_555
C8 C12 1_555 1_555
C9 C10 1_555 1_555
C10 C11 1_555 1_555
C11 C12 1_555 1_555
C14 C15 1_555 1_555
C17 C18 1_555 1_555
C21A C22A 1_555 1_555
C21A C23A 1_555 1_555
C26F C27F 1_555 1_555
C26F C28F 1_555 1_555
N2A C13A 1_555 1_555
C1A C9A 1_555 1_555
C8A C12A 1_555 1_555
C9A C10A 1_555 1_555
C10A C11A 1_555 1_555
C11A C12A 1_555 1_555
C14A C15A 1_555 1_555
C17A C18A 1_555 1_555

#END
