
#######################################################################
#
#                 Cambridge Crystallographic Data Centre
#                                CCDC 
#
#######################################################################
#
# If this CIF has been generated from an entry in the Cambridge 
# Structural Database, then it will include bibliographic, chemical, 
# crystal, experimental, refinement or atomic coordinate data resulting 
# from the CCDC's data processing and validation procedures.
#
#######################################################################

data_TUTGOF
_symmetry_cell_setting           monoclinic
_symmetry_space_group_name_H-M   'P 21/n'
_symmetry_Int_Tables_number      14
_space_group_name_Hall           '-P 2yn'
loop_
_symmetry_equiv_pos_site_id
_symmetry_equiv_pos_as_xyz
1 x,y,z
2 1/2-x,1/2+y,1/2-z
3 -x,-y,-z
4 1/2+x,1/2-y,1/2+z
_cell_length_a                   16.263(5)
_cell_length_b                   14.877(4)
_cell_length_c                   18.884(6)
_cell_angle_alpha                90
_cell_angle_beta                 111.985(5)
_cell_angle_gamma                90
_cell_volume                     4236.64
loop_
_atom_site_label
_atom_site_type_symbol
_atom_site_fract_x
_atom_site_fract_y
_atom_site_fract_z
Mn1 Mn 0.45121(5) 0.42529(5) 0.21451(4)
Mn2 Mn 0.55390(5) 0.14676(5) 0.28991(4)
O1 O 0.8356(2) 0.5606(2) 0.2147(2)
O2 O 0.9621(2) 0.4919(2) 0.2346(2)
O3 O 0.3322(2) 0.5077(2) 0.20254(19)
O4 O 0.4568(2) 0.5785(2) 0.21961(19)
O5 O 0.6147(2) 0.2754(2) 0.31687(19)
N1 N 0.9229(3) 0.1805(3) 0.3310(2)
H1 H 0.9763 0.1829 0.3323
O6 O 0.1073(2) 0.7971(2) 0.2949(2)
O7 O 0.0779(2) 0.6734(2) 0.2234(2)
O8 O 0.5872(2) 0.3979(2) 0.24339(19)
N2 N 0.4189(3) 0.8806(3) 0.5855(2)
N3 N 0.4175(3) 0.8869(3) 0.3170(2)
H2 H 0.4672 0.8900 0.3106
N4 N 0.4803(3) 0.4122(3) 0.3455(2)
H3 H 0.5165 0.3773 0.3352
H4 H 0.4245 0.4006 0.3276
C1 C 0.3619(3) 0.8138(3) 0.2885(3)
C2 C 0.3398(3) 0.6628(3) 0.2361(3)
C3 C 0.3783(3) 0.5791(3) 0.2179(3)
N5 N 0.9310(3) 0.0764(3) 0.5906(2)
C4 C 0.7629(3) 0.4092(3) 0.2574(3)
H5 H 0.7265 0.4589 0.2388
C5 C 0.3935(3) 0.7371(3) 0.2641(3)
H6 H 0.4518 0.7360 0.2668
C6 C 0.8848(3) 0.4919(3) 0.2353(3)
C7 C 0.9020(3) 0.3340(3) 0.2855(3)
H7 H 0.9599 0.3345 0.2874
C8 C 0.8694(3) 0.2565(3) 0.3085(3)
C9 C 0.2214(3) 0.7380(3) 0.2583(3)
C10 C 0.8497(3) 0.4098(3) 0.2600(3)
O9 O 0.5250(3) 0.1703(3) 0.1678(2)
C11 C 0.7309(3) 0.3345(3) 0.2825(3)
C12 C 0.9044(3) 0.0919(3) 0.4347(3)
C13 C 0.3924(3) 0.9577(3) 0.3571(3)
H8 H 0.3316 0.9754 0.3279
H9 H 0.4300 1.0096 0.3612
C14 C 0.2755(3) 0.8124(3) 0.2871(3)
H10 H 0.2540 0.8615 0.3055
C15 C 0.4001(3) 0.9292(3) 0.4364(3)
C16 C 0.8917(3) 0.0978(3) 0.3521(3)
H11 H 0.8290 0.0912 0.3214
H12 H 0.9225 0.0479 0.3399
C17 C 0.2529(3) 0.6636(3) 0.2329(3)
H13 H 0.2163 0.6141 0.2137
C18 C 0.7836(3) 0.2591(3) 0.3084(3)
H14 H 0.7616 0.2098 0.3259
C19 C 0.5129(4) 0.4891(4) 0.3925(3)
C20 C 0.1284(3) 0.7370(3) 0.2581(3)
C21 C 0.6366(3) 0.3357(3) 0.2801(3)
C22 C 0.8738(4) 0.0180(4) 0.4626(3)
H15 H 0.8434 -0.0279 0.4298
C23 C 0.3452(4) 0.9616(4) 0.4695(3)
H16 H 0.2999 1.0011 0.4427
C24 C 0.4544(4) 0.5468(4) 0.4071(3)
H17 H 0.3940 0.5343 0.3873
C25 C 0.8887(4) 0.0132(4) 0.5392(3)
H18 H 0.8681 -0.0372 0.5565
C26 C 0.4637(4) 0.8686(4) 0.4789(3)
H19 H 0.5017 0.8422 0.4585
C28 C 0.4703(4) 0.8478(4) 0.5516(3)
H21 H 0.5144 0.8075 0.5791
C29 C 0.6339(5) 0.5841(5) 0.4665(4)
H22 H 0.6943 0.5962 0.4873
C30 C 0.3561(4) 0.9365(4) 0.5427(3)
H23 H 0.3171 0.9602 0.5635
C31 C 0.4852(5) 0.6228(4) 0.4507(4)
H24 H 0.4458 0.6616 0.4605
C32 C 0.9494(5) 0.1552(4) 0.4879(4)
H25 H 0.9720 0.2060 0.4729
C33 C 0.5752(5) 0.6410(4) 0.4799(4)
H26 H 0.5960 0.6925 0.5090
C34 C 0.6023(4) 0.5076(4) 0.4212(4)
H27 H 0.6416 0.4695 0.4106
C35 C 0.9614(5) 0.1438(5) 0.5630(4)
H28 H 0.9938 0.1876 0.5973
Mn1A Mn 0.04879(5) 0.92529(5) 0.28549(4)
Mn1C Mn 0.95121(5) 0.07471(5) 0.71451(4)
Mn2A Mn 0.94610(5) 0.64676(5) 0.21009(4)
Mn2A_2 Mn -0.05390(5) 0.64676(5) 0.21009(4)
Mn2B Mn 0.44610(5) 0.85324(5) 0.71009(4)
O1A O 0.6644(2) 0.0606(2) 0.2853(2)
O2A O 0.5379(2) -0.0081(2) 0.2654(2)
O6A O 0.3927(2) 0.2971(2) 0.2051(2)
O7A O 0.4221(2) 0.1734(2) 0.2766(2)
N2B N 0.5811(3) 0.1194(3) 0.4145(2)
N5C N 0.4310(3) 0.4236(3) 0.0906(2)
C27 C 0.7565(8) 0.2515(8) 0.1019(5)
H20 H 0.7881 0.2543 0.1544
N6 N 0.6639(6) 0.1261(6) 0.1190(4)
H29 H 0.6218 0.0882 0.0982
H30 H 0.6927 0.1253 0.1675
C36 C 0.6856(7) 0.1899(7) 0.0732(5)
C37 C 0.6623(6) 0.2451(7) -0.0518(5)
H31 H 0.6305 0.2435 -0.1042
C38 C 0.7330(6) 0.3033(6) -0.0230(5)
H32 H 0.7489 0.3396 -0.0559
C39 C 0.7803(8) 0.3078(6) 0.0546(6)
H33 H 0.8273 0.3479 0.0747
C40 C 0.6376(5) 0.1894(7) -0.0052(4)
H34 H 0.5890 0.1515 -0.0259
C41 C 0.1966(8) 0.5795(9) 0.4029(5)
H35 H 0.2277 0.5843 0.3706
C42 C 0.1691(10) 0.6332(9) 0.5133(5)
H36 H 0.1795 0.6760 0.5516
C43 C 0.2119(4) 0.6371(4) 0.4636(4)
C44 C 0.1087(3) 0.5624(3) 0.5049(3)
H37 H 0.0830 0.5511 0.5405
C45 C 0.1349(4) 0.5167(4) 0.3927(4)
H38 H 0.1224 0.4763 0.3524
C46 C 0.0906(5) 0.5110(5) 0.4401(5)
H39 H 0.0445 0.4696 0.4282
N7 N 0.2783(3) 0.7035(3) 0.4723(3)
H40 H 0.2917 0.7416 0.5092
H41 H 0.3050 0.7055 0.4407
loop_
_geom_bond_atom_site_label_1
_geom_bond_atom_site_label_2
_geom_bond_site_symmetry_1
_geom_bond_site_symmetry_2
Mn1 O3 1_555 1_555
Mn2 O5 1_555 1_555
O1 C6 1_555 1_555
O2 C6 1_555 1_555
O3 C3 1_555 1_555
O4 Mn1 1_555 1_555
O5 C21 1_555 1_555
N1 H1 1_555 1_555
O6 C20 1_555 1_555
O7 C20 1_555 1_555
O8 Mn1 1_555 1_555
N2 C28 1_555 1_555
N3 H2 1_555 1_555
N4 Mn1 1_555 1_555
H3 N4 1_555 1_555
H4 N4 1_555 1_555
C1 N3 1_555 1_555
C2 C3 1_555 1_555
C3 O4 1_555 1_555
N5 C25 1_555 1_555
C4 H5 1_555 1_555
C5 C1 1_555 1_555
H6 C5 1_555 1_555
C6 C10 1_555 1_555
C7 H7 1_555 1_555
C8 N1 1_555 1_555
C9 C14 1_555 1_555
C10 C4 1_555 1_555
O9 Mn2 1_555 1_555
C11 C4 1_555 1_555
C12 C16 1_555 1_555
C13 N3 1_555 1_555
H8 C13 1_555 1_555
H9 C13 1_555 1_555
C14 C1 1_555 1_555
H10 C14 1_555 1_555
C15 C13 1_555 1_555
C16 N1 1_555 1_555
H11 C16 1_555 1_555
H12 C16 1_555 1_555
C17 C2 1_555 1_555
H13 C17 1_555 1_555
C18 C8 1_555 1_555
H14 C18 1_555 1_555
C19 N4 1_555 1_555
C20 C9 1_555 1_555
C21 O8 1_555 1_555
C22 C12 1_555 1_555
H15 C22 1_555 1_555
C23 C15 1_555 1_555
H16 C23 1_555 1_555
C24 C19 1_555 1_555
H17 C24 1_555 1_555
C25 C22 1_555 1_555
H18 C25 1_555 1_555
C26 C15 1_555 1_555
H19 C26 1_555 1_555
C27 H20 1_555 1_555
C28 C26 1_555 1_555
H21 C28 1_555 1_555
C29 H22 1_555 1_555
C30 N2 1_555 1_555
H23 C30 1_555 1_555
C31 C24 1_555 1_555
H24 C31 1_555 1_555
C32 C12 1_555 1_555
H25 C32 1_555 1_555
C33 C29 1_555 1_555
H26 C33 1_555 1_555
C34 C19 1_555 1_555
H27 C34 1_555 1_555
C35 N5 1_555 1_555
H28 C35 1_555 1_555
N6 H29 1_555 1_555
H30 N6 1_555 1_555
C36 C27 1_555 1_555
C37 H31 1_555 1_555
C38 C37 1_555 1_555
H32 C38 1_555 1_555
C39 C27 1_555 1_555
H33 C39 1_555 1_555
C40 C36 1_555 1_555
H34 C40 1_555 1_555
C41 H35 1_555 1_555
C42 H36 1_555 1_555
C43 C41 1_555 1_555
C44 C42 1_555 1_555
H37 C44 1_555 1_555
C45 C41 1_555 1_555
H38 C45 1_555 1_555
C46 C44 1_555 1_555
H39 C46 1_555 1_555
N7 C43 1_555 1_555
H40 N7 1_555 1_555
H41 N7 1_555 1_555
Mn1A O6 1_555 1_555
Mn1C N5 1_555 1_555
Mn2A O1 1_555 1_555
Mn2A_2 O7 1_555 1_555
Mn2B N2 1_555 1_555
O1A Mn2 1_555 1_555
O2A Mn2 1_555 1_555
O6A Mn1 1_555 1_555
O7A Mn2 1_555 1_555
N2B Mn2 1_555 1_555
N5C Mn1 1_555 1_555
O2 Mn2A 1_555 1_555
C2 C5 1_555 1_555
C7 C8 1_555 1_555
C7 C10 1_555 1_555
C9 C17 1_555 1_555
C11 C18 1_555 1_555
C11 C21 1_555 1_555
C23 C30 1_555 1_555
C29 C34 1_555 1_555
C31 C33 1_555 1_555
C32 C35 1_555 1_555
N6 C36 1_555 1_555
C37 C40 1_555 1_555
C38 C39 1_555 1_555
C42 C43 1_555 1_555
C45 C46 1_555 1_555

#END
