
#######################################################################
#
#                 Cambridge Crystallographic Data Centre
#                                CCDC 
#
#######################################################################
#
# If this CIF has been generated from an entry in the Cambridge 
# Structural Database, then it will include bibliographic, chemical, 
# crystal, experimental, refinement or atomic coordinate data resulting 
# from the CCDC's data processing and validation procedures.
#
#######################################################################

data_TUTHAS
_symmetry_cell_setting           monoclinic
_symmetry_space_group_name_H-M   'C 2/c'
_symmetry_Int_Tables_number      15
_space_group_name_Hall           '-C 2yn'
loop_
_symmetry_equiv_pos_site_id
_symmetry_equiv_pos_as_xyz
1 x,y,z
2 -x,y,1/2-z
3 1/2+x,1/2+y,z
4 1/2-x,1/2+y,1/2-z
5 -x,-y,-z
6 x,-y,1/2+z
7 1/2-x,1/2-y,-z
8 1/2+x,1/2-y,1/2+z
_cell_length_a                   19.143(6)
_cell_length_b                   14.876(5)
_cell_length_c                   16.423(5)
_cell_angle_alpha                90
_cell_angle_beta                 111.779(4)
_cell_angle_gamma                90
_cell_volume                     4342.98
loop_
_atom_site_label
_atom_site_type_symbol
_atom_site_fract_x
_atom_site_fract_y
_atom_site_fract_z
Mn1 Mn 0.78715(5) 1.11064(5) 0.04919(5)
O1 O 0.7984(2) 1.0250(2) 0.1656(2)
O2 O 0.7801(2) 0.9527(3) 0.0425(2)
N1 N 0.6772(3) 0.6493(3) 0.0820(3)
H1 H 0.6775 0.6501 0.0298
N2 N 0.4124(3) 0.6033(3) 0.0781(3)
O3 O 0.7052(3) 0.7366(2) 0.3908(2)
C1 C 0.7620(3) 0.8718(3) 0.1586(3)
C2 C 0.7373(3) 0.7992(3) 0.2757(3)
O4 O 0.7705(3) 0.8645(3) 0.4164(2)
C3 C 0.7828(3) 0.9536(3) 0.1208(3)
C4 C 0.7350(3) 0.7965(4) 0.1066(4)
H2 H 0.7353 0.7955 0.0501
C5 C 0.7073(3) 0.7212(4) 0.1374(3)
C6 C 0.5650(3) 0.5863(3) 0.1016(3)
C7 C 0.7640(3) 0.8724(3) 0.2451(3)
H3 H 0.7832 0.9217 0.2812
C8 C 0.7380(3) 0.7994(4) 0.3687(3)
C9 C 0.7069(3) 0.7249(4) 0.2221(4)
H4 H 0.6862 0.6778 0.2429
C10 C 0.6454(3) 0.5729(4) 0.1102(4)
H5 H 0.6757 0.5601 0.1710
H6 H 0.6480 0.5209 0.0758
C11 C 0.5191(6) 0.6452(9) 0.0502(12)
H7 H 0.5378 0.6853 0.0199
N3 N 0.6625(4) 1.1086(4) 0.0184(5)
C12 C 0.4565(6) 0.5477(13) 0.1285(10)
H8 H 0.4370 0.5090 0.1593
C13 C 0.5593(4) 1.1231(4) 0.0638(4)
H9 H 0.5419 1.1340 0.1088
C14 C 0.4439(4) 0.6507(5) 0.0386(4)
H10 H 0.4145 0.6927 -0.0015
C15 C 0.4254(5) 1.1130(5) -0.040(5)
H11 H 0.4163 1.1231 0.0125
H12 H 0.4033 1.0568 -0.0660
H13 H 0.4033 1.1608 -0.0812
C16 C 0.6149(4) 1.0965(5) -0.0624(4)
H14 H 0.6337 1.0866 -0.1064
C17 C 0.6365(5) 1.1200(5) 0.0825(4)
H15 H 0.6701 1.1259 0.1401
C18 C 0.5317(4) 0.5391(4) 0.1420(4)
H16 H 0.5599 0.4968 0.1825
C19 C 0.5364(5) 1.0981(4) -0.0846(4)
H17 H 0.5038 1.0909 -0.1425
C20 C 0.5089(3) 1.1103(3) -0.0198(4)
Mn1B Mn 1.28715(5) 1.61064(5) 0.04919(5)
Mn1B_2 Mn 0.28715(5) 0.61064(5) 0.04919(5)
Mn1C Mn 0.71285(5) 0.61064(5) 0.45081(5)
Mn1E Mn 0.78715(5) 0.88936(5) 0.54919(5)
Mn1A Mn 1.21285(5) 1.11064(5) 0.45081(5)
Mn1G Mn 1.28715(5) 1.38936(5) 0.54919(5)
O1B O 1.2984(2) 1.5250(2) 0.1656(2)
O2B O 1.2801(2) 1.4527(3) 0.0425(2)
N1B N 1.1772(3) 1.1493(3) 0.0820(3)
H1B H 1.1775 1.1501 0.0298
N2B N 0.9124(3) 1.1033(3) 0.0781(3)
N2_2 N 1.4124(3) 1.6033(3) 0.0781(3)
O3B O 1.2052(3) 1.2366(2) 0.3908(2)
O3C O 0.7948(3) 1.2366(2) 0.1092(2)
O3A O 1.2948(3) 1.7366(2) 0.1092(2)
C1B C 1.2620(3) 1.3718(3) 0.1586(3)
C2B C 1.2373(3) 1.2992(3) 0.2757(3)
O4B O 1.2705(3) 1.3645(3) 0.4164(2)
O4E O 0.7705(3) 1.1355(3) -0.0836(2)
O4G O 1.2705(3) 1.6355(3) -0.0836(2)
C3B C 1.2828(3) 1.4536(3) 0.1208(3)
C4B C 1.2350(3) 1.2965(4) 0.1066(4)
H2B H 1.2353 1.2955 0.0501
C5B C 1.2073(3) 1.2212(4) 0.1374(3)
C6B C 1.0650(3) 1.0863(3) 0.1016(3)
C7B C 1.2640(3) 1.3724(3) 0.2451(3)
H3B H 1.2832 1.4217 0.2812
C8B C 1.2380(3) 1.2994(4) 0.3687(3)
C9B C 1.2069(3) 1.2249(4) 0.2221(4)
H4B H 1.1862 1.1778 0.2429
C10B C 1.1454(3) 1.0729(4) 0.1102(4)
H5B H 1.1757 1.0601 0.1710
H6B H 1.1480 1.0209 0.0758
C11B C 1.0191(6) 1.1452(9) 0.0502(12)
H7B H 1.0378 1.1853 0.0199
N3B N 1.1625(4) 1.6086(4) 0.0184(5)
C12B C 0.9565(6) 1.0477(13) 0.1285(10)
H8B H 0.9370 1.0090 0.1593
C13B C 1.0593(4) 1.6231(4) 0.0638(4)
H9B H 1.0419 1.6340 0.1088
C14B C 0.9439(4) 1.1507(5) 0.0386(4)
H10B H 0.9145 1.1927 -0.0015
C15B C 0.9254(5) 1.6130(5) -0.040(5)
H11B H 0.9163 1.6231 0.0125
H12B H 0.9033 1.5568 -0.0660
H13B H 0.9033 1.6608 -0.0812
C16B C 1.1149(4) 1.5965(5) -0.0624(4)
H14B H 1.1337 1.5866 -0.1064
C17B C 1.1365(5) 1.6200(5) 0.0825(4)
H15B H 1.1701 1.6259 0.1401
C18B C 1.0317(4) 1.0391(4) 0.1420(4)
H16B H 1.0599 0.9968 0.1825
C19B C 1.0364(5) 1.5981(4) -0.0846(4)
H17B H 1.0038 1.5909 -0.1425
C20B C 1.0089(3) 1.6103(3) -0.0198(4)
N4 N 0.0000 0.4405(5) 0.7500
C21 C -0.0677(4) 0.3011(4) 0.7089(3)
H18 H -0.1126 0.2702 0.6818
C22 C -0.0646(4) 0.3960(3) 0.7107(4)
H19 H -0.1087 0.4285 0.6838
C23 C 0.0000 0.256(2) 0.7500
C24 C 0.0000 0.154(2) 0.7500
C21A C 0.0677(4) 0.3011(4) 0.7911(3)
H18A H 0.1126 0.2702 0.8182
C22A C 0.0646(4) 0.3960(3) 0.7893(4)
H19A H 0.1087 0.4285 0.8162
H20? H -0.0503 0.1324 0.7199
H21? H 0.0185 0.1324 0.8093
H22? H 0.0318 0.1324 0.7207
loop_
_geom_bond_atom_site_label_1
_geom_bond_atom_site_label_2
_geom_bond_site_symmetry_1
_geom_bond_site_symmetry_2
Mn1 O1 1_555 1_555
O1 C3 1_555 1_555
O2 Mn1 1_555 1_555
N1 H1 1_555 1_555
N2 C12 1_555 1_555
O3 C8 1_555 1_555
C1 C3 1_555 1_555
C2 C7 1_555 1_555
O4 C8 1_555 1_555
C3 O2 1_555 1_555
C4 C1 1_555 1_555
H2 C4 1_555 1_555
C5 N1 1_555 1_555
C6 C10 1_555 1_555
C7 C1 1_555 1_555
H3 C7 1_555 1_555
C8 C2 1_555 1_555
C9 C2 1_555 1_555
H4 C9 1_555 1_555
C10 N1 1_555 1_555
H5 C10 1_555 1_555
H6 C10 1_555 1_555
C11 C6 1_555 1_555
H7 C11 1_555 1_555
N3 Mn1 1_555 1_555
C12 H8 1_555 1_555
C13 H9 1_555 1_555
C14 N2 1_555 1_555
H10 C14 1_555 1_555
C15 H11 1_555 1_555
H12 C15 1_555 1_555
H13 C15 1_555 1_555
C16 N3 1_555 1_555
H14 C16 1_555 1_555
C17 N3 1_555 1_555
H15 C17 1_555 1_555
C18 C6 1_555 1_555
H16 C18 1_555 1_555
C19 C16 1_555 1_555
H17 C19 1_555 1_555
C20 C13 1_555 1_555
N4 C22 1_555 1_555
C21 H18 1_555 1_555
C22 C21 1_555 1_555
H19 C22 1_555 1_555
C23 C21 1_555 1_555
C24 C23 1_555 1_555
Mn1B O1B 1_555 1_555
Mn1B_2 N2 1_555 1_555
Mn1C O3 1_555 1_555
Mn1E O4 1_555 1_555
Mn1A O3B 1_555 1_555
Mn1G O4B 1_555 1_555
O1B C3B 1_555 1_555
O2B Mn1B 1_555 1_555
N1B H1B 1_555 1_555
N2B Mn1 1_555 1_555
N2_2 Mn1B 1_555 1_555
O3B C8B 1_555 1_555
O3C Mn1 1_555 1_555
O3A Mn1B 1_555 1_555
C1B C3B 1_555 1_555
C2B C7B 1_555 1_555
O4B C8B 1_555 1_555
O4E Mn1 1_555 1_555
O4G Mn1B 1_555 1_555
C3B O2B 1_555 1_555
C4B C1B 1_555 1_555
H2B C4B 1_555 1_555
C5B N1B 1_555 1_555
C6B C10B 1_555 1_555
C7B C1B 1_555 1_555
H3B C7B 1_555 1_555
C8B C2B 1_555 1_555
C9B C2B 1_555 1_555
H4B C9B 1_555 1_555
C10B N1B 1_555 1_555
H5B C10B 1_555 1_555
H6B C10B 1_555 1_555
C11B C6B 1_555 1_555
H7B C11B 1_555 1_555
N3B Mn1B 1_555 1_555
C12B N2B 1_555 1_555
H8B C12B 1_555 1_555
C13B H9B 1_555 1_555
C14B N2B 1_555 1_555
H10B C14B 1_555 1_555
C15B H11B 1_555 1_555
H12B C15B 1_555 1_555
H13B C15B 1_555 1_555
C16B N3B 1_555 1_555
H14B C16B 1_555 1_555
C17B N3B 1_555 1_555
H15B C17B 1_555 1_555
C18B C6B 1_555 1_555
H16B C18B 1_555 1_555
C19B C16B 1_555 1_555
H17B C19B 1_555 1_555
C20B C13B 1_555 1_555
C21A C23 1_555 1_555
H18A C21A 1_555 1_555
C22A N4 1_555 1_555
H19A C22A 1_555 1_555
C4 C5 1_555 1_555
C5 C9 1_555 1_555
C11 C14 1_555 1_555
C12 C18 1_555 1_555
C13 C17 1_555 1_555
C15 C20 1_555 1_555
C19 C20 1_555 1_555
C4B C5B 1_555 1_555
C5B C9B 1_555 1_555
C11B C14B 1_555 1_555
C12B C18B 1_555 1_555
C13B C17B 1_555 1_555
C15B C20B 1_555 1_555
C19B C20B 1_555 1_555
C21A C22A 1_555 1_555

#END
