
#######################################################################
#
#                 Cambridge Crystallographic Data Centre
#                                CCDC 
#
#######################################################################
#
# If this CIF has been generated from an entry in the Cambridge 
# Structural Database, then it will include bibliographic, chemical, 
# crystal, experimental, refinement or atomic coordinate data resulting 
# from the CCDC's data processing and validation procedures.
#
#######################################################################

data_TUTHEW
_symmetry_cell_setting           monoclinic
_symmetry_space_group_name_H-M   'P 21/n'
_symmetry_Int_Tables_number      14
_space_group_name_Hall           '-P 2yn'
loop_
_symmetry_equiv_pos_site_id
_symmetry_equiv_pos_as_xyz
1 x,y,z
2 1/2-x,1/2+y,1/2-z
3 -x,-y,-z
4 1/2+x,1/2-y,1/2+z
_cell_length_a                   16.403(5)
_cell_length_b                   15.202(4)
_cell_length_c                   17.988(6)
_cell_angle_alpha                90
_cell_angle_beta                 111.833(5)
_cell_angle_gamma                90
_cell_volume                     4163.73
loop_
_atom_site_label
_atom_site_type_symbol
_atom_site_fract_x
_atom_site_fract_y
_atom_site_fract_z
Mn1 Mn 0.54272(8) 0.37611(7) 0.27002(8)
Mn2 Mn 0.45639(8) 0.09017(7) 0.22971(7)
O1 O 0.6583(3) 0.4590(3) 0.2786(3)
O2 O 0.1581(3) 0.5084(3) 0.2768(3)
O3 O 0.0365(3) 0.4376(3) 0.2628(3)
N1 N 0.5776(4) 0.9225(4) -0.0959(4)
O4 O 0.9119(3) 0.6157(3) 0.2577(3)
O5 O 0.8950(4) 0.7544(3) 0.2136(4)
O6 O 0.3952(3) 0.2145(3) 0.2090(3)
O7 O 0.5349(3) 0.5296(3) 0.2609(4)
N2 N 0.0749(4) 0.1090(4) -0.0950(4)
O8 O 0.4125(3) 0.3496(3) 0.2591(3)
C1 C 0.1550(5) 0.3551(5) 0.2492(5)
C2 C 0.7738(5) 0.6850(5) 0.2304(5)
C3 C 0.2403(5) 0.3559(5) 0.2503(4)
H1 H 0.2733 0.4073 0.2633
N3 N 0.5849(4) 0.8381(4) 0.1813(4)
H2 H 0.5332 0.8373 0.1830
N4 N 0.0910(5) 0.1249(4) 0.1908(5)
H3 H 0.0437 0.1210 0.2008
C4 C 0.1413(5) 0.2019(5) 0.2123(5)
C5 C 0.6035(5) 0.9184(5) 0.0679(4)
C6 C 0.6189(5) 0.9938(5) 0.0313(5)
H4 H 0.6391 1.0447 0.0612
C7 C 0.2758(5) 0.2800(5) 0.2322(5)
C8 C 0.8677(5) 0.6858(5) 0.2359(5)
C9 C 0.6358(5) 0.7640(5) 0.2026(5)
C10 C 0.6017(5) 0.6865(5) 0.2236(5)
H5 H 0.5443 0.6863 0.2218
O9 O 0.4878(5) 0.0976(5) 0.3582(4)
C11 C 0.2267(5) 0.2039(5) 0.2126(5)
H6 H 0.2506 0.1535 0.1996
C12 C 0.6158(5) 0.9179(5) 0.1559(5)
H7 H 0.6778 0.9254 0.1879
H8 H 0.5848 0.9677 0.1664
C13 C 0.1137(5) 0.4385(5) 0.2634(5)
C14 C 0.6120(5) 0.5290(5) 0.2635(5)
C15 C 0.7229(5) 0.7608(5) 0.2058(5)
H9 H 0.7469 0.8102 0.1913
C16 C 0.7387(5) 0.6106(5) 0.2507(5)
H10 H 0.7726 0.5601 0.2670
C17 C 0.3683(5) 0.2806(5) 0.2331(5)
C18 C 0.1060(5) 0.2781(5) 0.2296(4)
H11 H 0.0487 0.2779 0.2281
C19 C 0.1028(4) 0.0729(5) 0.0659(4)
C20 C 0.1156(4) 0.0526(4) 0.1529(4)
H12 H 0.1767 0.0383 0.1827
H13 H 0.0806 0.0016 0.1542
C21 C 0.6041(5) 0.9931(5) -0.0493(5)
H14 H 0.6133 1.0450 -0.0724
C22 C 0.6515(5) 0.6114(5) 0.2466(5)
C23 C 0.1634(4) 0.0508(4) 0.0338(4)
H15 H 0.2156 0.0236 0.0653
C24 C 0.0302(4) 0.1174(5) 0.0192(4)
H16 H -0.0106 0.1371 0.0400
C25 C 0.5749(4) 0.8449(5) 0.0186(4)
H17 H 0.5628 0.7926 0.0393
N5 N 0.4973(4) 0.3844(5) 0.1325(5)
C26 C 0.1469(4) 0.0690(4) -0.0458(4)
H18 H 0.1889 0.0522 -0.0663
C27 C 0.5650(5) 0.8497(4) -0.0587(4)
H19 H 0.5480 0.7987 -0.0891
C28 C 0.0180(3) 0.1330(4) -0.0607(4)
H20 H -0.0330 0.1619 -0.0925
N6 N 0.5776(6) 0.1315(5) 0.4842(6)
C29 C 0.4899(4) 0.3816(2) -0.0035(4)
H21 H 0.5185 0.3680 -0.0381
C30 C 0.5541(5) 0.1215(4) 0.4042(5)
H22 H 0.5968 0.1358 0.3837
C31 C 0.4075(4) 0.4147(5) -0.0344(4)
H23 H 0.3787 0.4242 -0.0891
C32 C 0.4153(5) 0.4208(4) 0.0982(5)
H24 H 0.3883 0.4388 0.1328
C33 C 0.3696(3) 0.4331(3) 0.0188(3)
H25 H 0.3123 0.4542 0.0011
C34 C 0.6157(5) 0.3315(4) 0.0987(4)
H26 H 0.6410 0.3236 0.1557
H27 H 0.6520 0.3704 0.0823
H28 H 0.6117 0.2756 0.0727
C35 C 0.6618(5) 0.1712(5) 0.5348(5)
H29 H 0.6657 0.1726 0.5894
H30 H 0.6652 0.2301 0.5169
H31 H 0.7093 0.1369 0.5312
C36 C 0.5332(5) 0.3672(4) 0.0777(4)
C37 C 0.5123(4) 0.1213(4) 0.5189(4)
H32 H 0.5402 0.1216 0.5763
H33 H 0.4820 0.0666 0.5017
H34 H 0.4711 0.1690 0.5021
Mn1A Mn 0.95728(8) 0.87611(7) 0.22998(8)
Mn1C Mn 0.04272(8) 0.12389(7) -0.22998(8)
Mn2A Mn 0.04361(8) 0.59017(7) 0.27029(7)
Mn2B Mn 0.54361(8) 0.90983(7) -0.22971(7)
Mn2A_2 Mn 1.04361(8) 0.59017(7) 0.27029(7)
O2A O 0.3419(3) 0.0084(3) 0.2232(3)
O3A O 0.4635(3) -0.0624(3) 0.2372(3)
N1B N 0.4224(4) 0.0775(4) 0.0959(4)
O4A O 0.5881(3) 0.1157(3) 0.2423(3)
O5A O 0.6050(4) 0.2544(3) 0.2864(4)
N2C N 0.5749(4) 0.3910(4) 0.4050(4)
C38 C 0.2700(4) 0.2423(4) 0.4423(5)
H35 H 0.2537 0.2821 0.4000
C39 C 0.3138(5) 0.1244(4) 0.5594(4)
C40 C 0.3198(4) 0.2127(4) 0.5780(4)
H36 H 0.3403 0.2302 0.6313
C41 C 0.2959(5) 0.2752(5) 0.5186(6)
H37 H 0.2972 0.3351 0.5293
C42 C 0.335(3) 0.060(4) 0.6213(4)
H38 H 0.3262 0.0022 0.5980
H39 H 0.2984 0.0678 0.6516
H40 H 0.3957 0.0664 0.6561
N7 N 0.287(2) 0.0916(18) 0.4849(17)
C43 C 0.266(2) 0.154(2) 0.4243(16)
H41 H 0.2502 0.1361 0.3713
loop_
_geom_bond_atom_site_label_1
_geom_bond_atom_site_label_2
_geom_bond_site_symmetry_1
_geom_bond_site_symmetry_2
Mn1 O1 1_555 1_555
Mn2 O6 1_555 1_555
O1 C14 1_555 1_555
O2 C13 1_555 1_555
O3 C13 1_555 1_555
N1 C21 1_555 1_555
O4 C8 1_555 1_555
O5 C8 1_555 1_555
O6 C17 1_555 1_555
O7 Mn1 1_555 1_555
N2 C26 1_555 1_555
O8 Mn1 1_555 1_555
C1 C3 1_555 1_555
C2 C8 1_555 1_555
C3 H1 1_555 1_555
N3 H2 1_555 1_555
N4 H3 1_555 1_555
C4 N4 1_555 1_555
C5 C6 1_555 1_555
C6 H4 1_555 1_555
C7 C3 1_555 1_555
C9 N3 1_555 1_555
C10 C9 1_555 1_555
H5 C10 1_555 1_555
O9 Mn2 1_555 1_555
C11 C4 1_555 1_555
H6 C11 1_555 1_555
C12 N3 1_555 1_555
H7 C12 1_555 1_555
H8 C12 1_555 1_555
C13 C1 1_555 1_555
C14 O7 1_555 1_555
C15 C2 1_555 1_555
H9 C15 1_555 1_555
C16 C2 1_555 1_555
H10 C16 1_555 1_555
C17 O8 1_555 1_555
C18 C1 1_555 1_555
H11 C18 1_555 1_555
C19 C20 1_555 1_555
C20 N4 1_555 1_555
H12 C20 1_555 1_555
H13 C20 1_555 1_555
C21 C6 1_555 1_555
H14 C21 1_555 1_555
C22 C10 1_555 1_555
C23 C19 1_555 1_555
H15 C23 1_555 1_555
C24 C19 1_555 1_555
H16 C24 1_555 1_555
C25 C5 1_555 1_555
H17 C25 1_555 1_555
N5 Mn1 1_555 1_555
C26 C23 1_555 1_555
H18 C26 1_555 1_555
C27 N1 1_555 1_555
H19 C27 1_555 1_555
C28 N2 1_555 1_555
H20 C28 1_555 1_555
N6 C30 1_555 1_555
C29 H21 1_555 1_555
C30 O9 1_555 1_555
H22 C30 1_555 1_555
C31 C29 1_555 1_555
H23 C31 1_555 1_555
C32 N5 1_555 1_555
H24 C32 1_555 1_555
C33 C31 1_555 1_555
H25 C33 1_555 1_555
C34 H26 1_555 1_555
H27 C34 1_555 1_555
H28 C34 1_555 1_555
C35 N6 1_555 1_555
H29 C35 1_555 1_555
H30 C35 1_555 1_555
H31 C35 1_555 1_555
C36 N5 1_555 1_555
C37 N6 1_555 1_555
H32 C37 1_555 1_555
H33 C37 1_555 1_555
H34 C37 1_555 1_555
C38 H35 1_555 1_555
C39 C40 1_555 1_555
C40 H36 1_555 1_555
C41 C38 1_555 1_555
H37 C41 1_555 1_555
C42 C39 1_555 1_555
H38 C42 1_555 1_555
H39 C42 1_555 1_555
H40 C42 1_555 1_555
N7 C39 1_555 1_555
C43 C38 1_555 1_555
H41 C43 1_555 1_555
Mn1A O5 1_555 1_555
Mn1C N2 1_555 1_555
Mn2A O2 1_555 1_555
Mn2B N1 1_555 1_555
Mn2A_2 O4 1_555 1_555
O2A Mn2 1_555 1_555
O3A Mn2 1_555 1_555
N1B Mn2 1_555 1_555
O4A Mn2 1_555 1_555
O5A Mn1 1_555 1_555
N2C Mn1 1_555 1_555
O3 Mn2A 1_555 1_555
C4 C18 1_555 1_555
C5 C12 1_555 1_555
C7 C11 1_555 1_555
C7 C17 1_555 1_555
C9 C15 1_555 1_555
C14 C22 1_555 1_555
C16 C22 1_555 1_555
C24 C28 1_555 1_555
C25 C27 1_555 1_555
C29 C36 1_555 1_555
C32 C33 1_555 1_555
C34 C36 1_555 1_555
C40 C41 1_555 1_555
N7 C43 1_555 1_555

#END
