
#######################################################################
#
#                 Cambridge Crystallographic Data Centre
#                                CCDC 
#
#######################################################################
#
# If this CIF has been generated from an entry in the Cambridge 
# Structural Database, then it will include bibliographic, chemical, 
# crystal, experimental, refinement or atomic coordinate data resulting 
# from the CCDC's data processing and validation procedures.
#
#######################################################################

data_TUTHUM
_symmetry_cell_setting           monoclinic
_symmetry_space_group_name_H-M   'C 2/c'
_symmetry_Int_Tables_number      15
_space_group_name_Hall           '-C 2yn'
loop_
_symmetry_equiv_pos_site_id
_symmetry_equiv_pos_as_xyz
1 x,y,z
2 -x,y,1/2-z
3 1/2+x,1/2+y,z
4 1/2-x,1/2+y,1/2-z
5 -x,-y,-z
6 x,-y,1/2+z
7 1/2-x,1/2-y,-z
8 1/2+x,1/2-y,1/2+z
_cell_length_a                   17.950(7)
_cell_length_b                   15.228(5)
_cell_length_c                   16.336(6)
_cell_angle_alpha                90
_cell_angle_beta                 114.960(4)
_cell_angle_gamma                90
_cell_volume                     4048.28
loop_
_atom_site_label
_atom_site_type_symbol
_atom_site_fract_x
_atom_site_fract_y
_atom_site_fract_z
Mn1 Mn 0.27004(6) -0.10841(7) 0.04520(7)
O1 O 0.7429(3) -0.3699(2) 0.4074(3)
O2 O 0.7842(3) -0.5237(2) 0.1623(3)
O3 O 0.7548(3) -0.4555(2) 0.0333(2)
O4 O 0.7019(3) -0.2309(2) 0.3904(3)
N1 N 0.6885(4) -0.1432(3) 0.0848(3)
H1 H 0.6960 -0.1416 0.0362
C1 C 0.7255(4) -0.2982(3) 0.2723(3)
N2 N 0.4027(3) -0.0935(3) 0.0708(3)
C2 C 0.7469(4) -0.3733(3) 0.2392(3)
H2 H 0.7601 -0.4245 0.2734
C3 C 0.6555(4) -0.0674(3) 0.1105(4)
H3 H 0.6590 -0.0174 0.0756
H4 H 0.6893 -0.0547 0.1737
C4 C 0.7291(4) -0.2954(4) 0.1044(4)
H5 H 0.7297 -0.2948 0.0478
C5 C 0.7085(4) -0.2183(3) 0.1370(4)
C6 C 0.7487(4) -0.3720(3) 0.1542(4)
C7 C 0.5682(4) -0.0775(4) 0.0974(4)
C8 C 0.7058(4) -0.2211(3) 0.2210(4)
H6 H 0.6908 -0.1711 0.2431
C9 C 0.7644(4) -0.4546(3) 0.1151(3)
C10 C 0.5339(3) -0.0231(3) 0.1388(3)
H7 H 0.5657 0.0208 0.1772
C11 C 0.7236(4) -0.2995(3) 0.3637(4)
N3 N 0.1379(4) -0.1195(4) 0.0203(4)
C12 C 0.5155(5) -0.1387(4) 0.0399(5)
H8 H 0.5345 -0.1768 0.0085
C13 C 0.4536(4) -0.0325(3) 0.1246(3)
H9 H 0.4330 0.0061 0.1541
C14 C 0.4362(4) -0.1444(3) 0.0282(4)
H10 H 0.4028 -0.1863 -0.0120
C16 C 0.1113(4) -0.1074(4) 0.0875(5)
H11 H 0.1511 -0.0979 0.1459
C18 C -0.0281(3) -0.1177(3) -0.0108(3)
H13 H -0.0835 -0.1186 -0.0225
C19 C 0.0766(4) -0.1291(4) -0.0629(4)
H14 H 0.0903 -0.1382 -0.1112
C20 C 0.0281(4) -0.1082(4) 0.0742(4)
H15 H 0.0134 -0.1024 0.1222
C21 C -0.0063(4) -0.126(3) -0.0800(4)
H16 H -0.0465 -0.1297 -0.1389
Mn1A Mn 0.72996(6) -0.10841(7) 0.45480(7)
Mn1B Mn 0.77004(6) -0.60841(7) 0.04520(7)
Mn1C Mn 0.22996(6) -0.60841(7) 0.45480(7)
Mn1F Mn 0.22996(6) -0.39159(7) -0.04520(7)
Mn1G Mn 0.77004(6) -0.39159(7) 0.54520(7)
O1A O 0.2571(3) -0.3699(2) 0.0926(3)
O1F O 0.7571(3) -0.1301(2) 0.5926(3)
O1G O 0.2429(3) -0.1301(2) -0.0926(3)
O2A O 0.2158(3) -0.5237(2) 0.3377(3)
O2B O 0.2842(3) -0.0237(2) 0.1623(3)
O2C O 0.7158(3) -0.0237(2) 0.3377(3)
O3A O 0.2452(3) -0.4555(2) 0.4667(2)
O3B O 0.2548(3) 0.0445(2) 0.0333(2)
O3C O 0.7452(3) 0.0445(2) 0.4667(2)
O4A O 0.2981(3) -0.2309(2) 0.1096(3)
N1A N 0.3115(4) -0.1432(3) 0.4152(3)
H1A H 0.3040 -0.1416 0.4638
C1A C 0.2745(4) -0.2982(3) 0.2277(3)
N2A N 0.5973(3) -0.0935(3) 0.4292(3)
C2A C 0.2531(4) -0.3733(3) 0.2608(3)
H2A H 0.2399 -0.4245 0.2266
C3A C 0.3445(4) -0.0674(3) 0.3895(4)
H3A H 0.3410 -0.0174 0.4244
H4A H 0.3107 -0.0547 0.3263
C4A C 0.2709(4) -0.2954(4) 0.3956(4)
H5A H 0.2703 -0.2948 0.4522
C5A C 0.2915(4) -0.2183(3) 0.3630(4)
C6A C 0.2513(4) -0.3720(3) 0.3458(4)
C7A C 0.4318(4) -0.0775(4) 0.4026(4)
C8A C 0.2942(4) -0.2211(3) 0.2790(4)
H6A H 0.3092 -0.1711 0.2569
C9A C 0.2356(4) -0.4546(3) 0.3849(3)
C10A C 0.4661(3) -0.0231(3) 0.3612(3)
H7A H 0.4343 0.0208 0.3228
C11A C 0.2764(4) -0.2995(3) 0.1363(4)
N3A N 0.8621(4) -0.1195(4) 0.4797(4)
C12A C 0.4845(5) -0.1387(4) 0.4601(5)
H8A H 0.4655 -0.1768 0.4915
C13A C 0.5464(4) -0.0325(3) 0.3754(3)
H9A H 0.5670 0.0061 0.3459
C14A C 0.5638(4) -0.1444(3) 0.4718(4)
H10A H 0.5972 -0.1863 0.5120
C16A C 0.8887(4) -0.1074(4) 0.4125(5)
H11A H 0.8489 -0.0979 0.3541
C18A C 1.0281(3) -0.1177(3) 0.5108(3)
H13A H 1.0835 -0.1186 0.5225
C19A C 0.9234(4) -0.1291(4) 0.5629(4)
H14A H 0.9097 -0.1382 0.6112
C20A C 0.9719(4) -0.1082(4) 0.4258(4)
H15A H 0.9866 -0.1024 0.3778
C21A C 1.0063(4) -0.126(3) 0.5800(4)
H16A H 1.0465 -0.1297 0.6389
C15 C 0.5000 -0.7708(4) 0.2500
C17 C 0.4255(3) -0.6295(4) 0.207(4)
H12 H 0.3769 -0.6605 0.1765
N4 N 0.5000 -0.8432(4) 0.2500
C22 C 0.5000 -0.503(4) 0.2500
H17 H 0.5000 -0.4416 0.2500
C23 C 0.423(3) -0.5372(3) 0.209(3)
H18 H 0.3751 -0.5041 0.1848
C24 C 0.5000 -0.6762(5) 0.2500
C17A C 0.5745(3) -0.6295(4) 0.293(4)
H12A H 0.6231 -0.6605 0.3235
C23A C 0.577(3) -0.5372(3) 0.291(3)
H18A H 0.6249 -0.5041 0.3152
loop_
_geom_bond_atom_site_label_1
_geom_bond_atom_site_label_2
_geom_bond_site_symmetry_1
_geom_bond_site_symmetry_2
Mn1 N2 1_555 1_555
O1 C11 1_555 1_555
O2 C9 1_555 1_555
O3 C9 1_555 1_555
O4 C11 1_555 1_555
N1 H1 1_555 1_555
C1 C2 1_555 1_555
N2 C13 1_555 1_555
C2 H2 1_555 1_555
C3 N1 1_555 1_555
H3 C3 1_555 1_555
H4 C3 1_555 1_555
C4 H5 1_555 1_555
C5 N1 1_555 1_555
C6 C2 1_555 1_555
C7 C3 1_555 1_555
C8 C1 1_555 1_555
H6 C8 1_555 1_555
C9 C6 1_555 1_555
C10 C7 1_555 1_555
H7 C10 1_555 1_555
C11 C1 1_555 1_555
N3 Mn1 1_555 1_555
C12 C7 1_555 1_555
H8 C12 1_555 1_555
C13 C10 1_555 1_555
H9 C13 1_555 1_555
C14 N2 1_555 1_555
H10 C14 1_555 1_555
C15 N4 1_555 1_555
C16 N3 1_555 1_555
H11 C16 1_555 1_555
C17 H12 1_555 1_555
C18 H13 1_555 1_555
C19 N3 1_555 1_555
H14 C19 1_555 1_555
C20 C16 1_555 1_555
H15 C20 1_555 1_555
C21 C18 1_555 1_555
H16 C21 1_555 1_555
C22 H17 1_555 1_555
C23 C17 1_555 1_555
H18 C23 1_555 1_555
C24 C15 1_555 1_555
Mn1A O4 1_555 1_555
Mn1B O2 1_555 1_555
Mn1C O2A 1_555 1_555
Mn1F O1A 1_555 1_555
Mn1G O1 1_555 1_555
O1A C11A 1_555 1_555
O1F Mn1A 1_555 1_555
O1G Mn1 1_555 1_555
O2A C9A 1_555 1_555
O2B Mn1 1_555 1_555
O2C Mn1A 1_555 1_555
O3A Mn1C 1_555 1_555
O3B Mn1 1_555 1_555
O3C Mn1A 1_555 1_555
O4A Mn1 1_555 1_555
N1A H1A 1_555 1_555
C1A C2A 1_555 1_555
N2A Mn1A 1_555 1_555
C2A H2A 1_555 1_555
C3A N1A 1_555 1_555
H3A C3A 1_555 1_555
H4A C3A 1_555 1_555
C4A H5A 1_555 1_555
C5A N1A 1_555 1_555
C6A C2A 1_555 1_555
C7A C3A 1_555 1_555
C8A C1A 1_555 1_555
H6A C8A 1_555 1_555
C9A O3A 1_555 1_555
C10A C7A 1_555 1_555
H7A C10A 1_555 1_555
C11A O4A 1_555 1_555
N3A Mn1A 1_555 1_555
C12A C7A 1_555 1_555
H8A C12A 1_555 1_555
C13A N2A 1_555 1_555
H9A C13A 1_555 1_555
C14A N2A 1_555 1_555
H10A C14A 1_555 1_555
C16A N3A 1_555 1_555
H11A C16A 1_555 1_555
C17A C24 1_555 1_555
H12A C17A 1_555 1_555
C18A H13A 1_555 1_555
C19A N3A 1_555 1_555
H14A C19A 1_555 1_555
C20A C16A 1_555 1_555
H15A C20A 1_555 1_555
C21A C18A 1_555 1_555
H16A C21A 1_555 1_555
C23A C22 1_555 1_555
H18A C23A 1_555 1_555
O3 Mn1B 1_555 1_555
C4 C5 1_555 1_555
C4 C6 1_555 1_555
C5 C8 1_555 1_555
C12 C14 1_555 1_555
C17 C24 1_555 1_555
C18 C20 1_555 1_555
C19 C21 1_555 1_555
C22 C23 1_555 1_555
C1A C11A 1_555 1_555
C4A C5A 1_555 1_555
C4A C6A 1_555 1_555
C5A C8A 1_555 1_555
C6A C9A 1_555 1_555
C10A C13A 1_555 1_555
C12A C14A 1_555 1_555
C17A C23A 1_555 1_555
C18A C20A 1_555 1_555
C19A C21A 1_555 1_555

#END
