
#######################################################################
#
#                 Cambridge Crystallographic Data Centre
#                                CCDC 
#
#######################################################################
#
# If this CIF has been generated from an entry in the Cambridge 
# Structural Database, then it will include bibliographic, chemical, 
# crystal, experimental, refinement or atomic coordinate data resulting 
# from the CCDC's data processing and validation procedures.
#
#######################################################################

data_TUTJIB
_symmetry_cell_setting           orthorhombic
_symmetry_space_group_name_H-M   'P 21 21 21'
_symmetry_Int_Tables_number      19
_space_group_name_Hall           'P 2ac 2ab'
loop_
_symmetry_equiv_pos_site_id
_symmetry_equiv_pos_as_xyz
1 x,y,z
2 1/2-x,-y,1/2+z
3 -x,1/2+y,1/2-z
4 1/2+x,1/2-y,-z
_cell_length_a                   8.3436(8)
_cell_length_b                   9.4433(10)
_cell_length_c                   22.347(2)
_cell_angle_alpha                90
_cell_angle_beta                 90
_cell_angle_gamma                90
_cell_volume                     1760.75
loop_
_atom_site_label
_atom_site_type_symbol
_atom_site_fract_x
_atom_site_fract_y
_atom_site_fract_z
Cu1 Cu 0.15457(5) -0.05125(4) 0.957174(17)
S1 S -0.02206(16) -0.24008(11) 0.89727(5)
C1 C -0.1402(5) -0.2919(3) 0.95083(15)
N1 N -0.2240(5) -0.3293(4) 0.98828(15)
S2 S -0.07395(18) 0.09398(15) 1.13623(5)
C2 C -0.0160(4) 0.0450(4) 1.07066(15)
N2 N 0.0260(4) 0.0120(3) 1.02387(13)
C3 C 0.4397(5) -0.1702(4) 0.89119(16)
H1 H 0.4524 -0.2295 0.9241
C4 C 0.5427(5) -0.1849(4) 0.84286(17)
H2 H 0.6226 -0.2536 0.8431
C5 C 0.5247(5) -0.0965(4) 0.79473(15)
H3 H 0.5933 -0.1039 0.7621
C6 C 0.4045(5) 0.0037(4) 0.79489(14)
H4 H 0.3906 0.0641 0.7624
C7 C 0.3050(4) 0.0128(3) 0.84417(14)
C8 C 0.1668(4) 0.1056(3) 0.85187(13)
C9 C -0.0539(4) 0.2497(3) 0.82872(15)
C10 C -0.1714(6) 0.1678(5) 0.79032(18)
H5 H -0.1642 0.2001 0.7497
H6 H -0.2783 0.1827 0.8049
H7 H -0.1462 0.0687 0.7920
C11 C -0.0701(6) 0.4085(4) 0.81693(19)
H8 H -0.0687 0.4255 0.7746
H9 H 0.0176 0.4577 0.8354
H10 H -0.1694 0.4420 0.8334
C12 C -0.0539(4) 0.2042(3) 0.89705(15)
C13 C -0.2105(5) 0.1370(5) 0.91722(19)
H11 H -0.2035 0.1129 0.9589
H12 H -0.2302 0.0529 0.8942
H13 H -0.2968 0.2027 0.9113
C14 C -0.0064(6) 0.3245(3) 0.93908(17)
H14 H -0.0091 0.2915 0.9797
H15 H -0.0801 0.4018 0.9345
H16 H 0.1000 0.3560 0.9295
N3 N 0.3236(4) -0.0741(3) 0.89194(11)
N4 N 0.0794(3) 0.0982(2) 0.89926(11)
N5 N 0.1085(3) 0.2009(3) 0.81053(12)
O1 O 0.1741(4) 0.2330(3) 0.76124(10)
N1C N 0.2760(5) -0.1707(4) 1.01172(15)
Cu1C Cu -0.34543(5) -0.44875(4) 1.042826(17)
loop_
_geom_bond_atom_site_label_1
_geom_bond_atom_site_label_2
_geom_bond_site_symmetry_1
_geom_bond_site_symmetry_2
Cu1 S1 1_555 1_555
S1 C1 1_555 1_555
C1 N1 1_555 1_555
N1 Cu1C 1_555 1_555
S2 C2 1_555 1_555
C2 N2 1_555 1_555
N2 Cu1 1_555 1_555
C3 H1 1_555 1_555
C4 C3 1_555 1_555
H2 C4 1_555 1_555
C5 C4 1_555 1_555
H3 C5 1_555 1_555
C6 C5 1_555 1_555
H4 C6 1_555 1_555
C7 C6 1_555 1_555
C8 C7 1_555 1_555
C9 C10 1_555 1_555
C10 H5 1_555 1_555
H6 C10 1_555 1_555
H7 C10 1_555 1_555
C11 C9 1_555 1_555
H8 C11 1_555 1_555
H9 C11 1_555 1_555
H10 C11 1_555 1_555
C12 C9 1_555 1_555
C13 C12 1_555 1_555
H11 C13 1_555 1_555
H12 C13 1_555 1_555
H13 C13 1_555 1_555
C14 C12 1_555 1_555
H14 C14 1_555 1_555
H15 C14 1_555 1_555
H16 C14 1_555 1_555
N3 Cu1 1_555 1_555
N4 Cu1 1_555 1_555
N5 C8 1_555 1_555
O1 N5 1_555 1_555
N1C Cu1 1_555 1_555
C3 N3 1_555 1_555
C7 N3 1_555 1_555
C8 N4 1_555 1_555
C9 N5 1_555 1_555
C12 N4 1_555 1_555

#END
