
#######################################################################
#
#                 Cambridge Crystallographic Data Centre
#                                CCDC 
#
#######################################################################
#
# If this CIF has been generated from an entry in the Cambridge 
# Structural Database, then it will include bibliographic, chemical, 
# crystal, experimental, refinement or atomic coordinate data resulting 
# from the CCDC's data processing and validation procedures.
#
#######################################################################

data_TUTJAU
_symmetry_cell_setting           monoclinic
_symmetry_space_group_name_H-M   'P 21/n'
_symmetry_Int_Tables_number      14
_space_group_name_Hall           '-P 2yn'
loop_
_symmetry_equiv_pos_site_id
_symmetry_equiv_pos_as_xyz
1 x,y,z
2 1/2-x,1/2+y,1/2-z
3 -x,-y,-z
4 1/2+x,1/2-y,1/2+z
_cell_length_a                   16.361(5)
_cell_length_b                   15.209(4)
_cell_length_c                   17.463(6)
_cell_angle_alpha                90
_cell_angle_beta                 110.410(5)
_cell_angle_gamma                90
_cell_volume                     4072.6
loop_
_atom_site_label
_atom_site_type_symbol
_atom_site_fract_x
_atom_site_fract_y
_atom_site_fract_z
Mn1 Mn 0.45813(7) 0.43356(8) 0.23338(9)
Mn2 Mn 0.55023(7) 0.14904(8) 0.28169(8)
O1 O 0.8390(3) 0.5652(3) 0.2215(4)
O2 O 0.9626(3) 0.4976(4) 0.2413(4)
O3 O 0.4017(4) 0.3091(4) 0.2219(4)
O4 O 0.1608(3) 0.0151(3) 0.2865(4)
O5 O 0.0384(3) 0.0858(4) 0.2670(4)
O6 O 0.4190(3) 0.1726(4) 0.2719(4)
O7 O 0.6107(4) 0.2719(3) 0.3099(4)
O8 O 0.5918(3) 0.4080(4) 0.2598(4)
N1 N 0.9346(4) 0.0691(4) 0.5983(5)
C1 C 0.8476(5) 0.4155(5) 0.2619(5)
O9 O 0.5178(5) 0.1643(4) 0.1491(4)
N2 N 0.9139(4) 0.1868(4) 0.3198(5)
H1 H 0.9664 0.1898 0.3198
C2 C 0.7275(5) 0.3399(5) 0.2836(5)
N3 N 0.1036(5) 0.4008(4) 0.2145(5)
H2 H 0.0630 0.4097 0.2342
C3 C 0.8825(5) 0.1032(5) 0.3395(6)
C4 C 0.1621(5) 0.1685(5) 0.2640(6)
C5 C 0.2471(5) 0.1679(5) 0.2660(5)
H3 H 0.2791 0.1160 0.2780
C6 C 0.8849(5) 0.4976(5) 0.2399(5)
C7 C 0.7621(4) 0.4160(5) 0.2626(5)
H4 H 0.7287 0.4669 0.2491
C8 C 0.2847(5) 0.2424(5) 0.2504(5)
C9 C 0.8970(5) 0.3399(5) 0.2822(5)
H5 H 0.9543 0.3408 0.2833
N4 N 0.0785(4) 0.3819(5) -0.0847(5)
C10 C 0.7791(5) 0.2645(5) 0.3030(5)
H6 H 0.7562 0.2140 0.3179
C11 C 0.1509(5) 0.3224(5) 0.2323(5)
C12 C 0.1070(5) 0.4353(6) 0.0787(6)
C13 C 0.8627(5) 0.2617(5) 0.3011(5)
C14 C 0.3754(5) 0.2417(5) 0.2485(5)
C15 C 0.1219(5) 0.4665(5) 0.1640(6)
H7 H 0.1821 0.4851 0.1888
H8 H 0.0852 0.5173 0.1615
C16 C 0.9001(5) 0.0941(5) 0.4300(6)
C17 C 0.1192(5) 0.0846(5) 0.2754(6)
C18 C 0.2364(5) 0.3201(5) 0.2323(5)
H9 H 0.2613 0.3707 0.2201
C19 C 0.6371(5) 0.3388(5) 0.2844(6)
C21 C 0.1139(5) 0.2461(5) 0.2464(5)
H12 H 0.0562 0.2461 0.2441
C22 C 0.9593(5) 0.1415(4) 0.5693(5)
H13 H 0.9887 0.1847 0.6064
C23 C 0.8754(5) 0.0245(4) 0.4614(5)
H14 H 0.8423 -0.0173 0.4248
O10 O 0.4781(4) 0.4367(4) 0.3675(4)
C24 C 0.1638(5) 0.4539(5) 0.0387(5)
H15 H 0.2137 0.4867 0.0651
C25 C 0.8939(4) 0.0078(4) 0.5429(4)
H16 H 0.8783 -0.0457 0.5596
C27 C 0.9436(4) 0.1564(4) 0.4858(4)
H20 H 0.9626 0.2080 0.4688
C28 C 0.0372(5) 0.3839(5) 0.0354(5)
H21 H -0.0019 0.3647 0.0597
C29 C 0.1483(5) 0.4249(4) -0.0399(4)
H22 H 0.1905 0.4367 -0.0629
C30 C 0.0251(5) 0.3610(6) -0.0439(5)
H23 H -0.0243 0.3281 -0.0718
Mn1A Mn 0.04187(7) -0.06644(8) 0.26662(9)
Mn1C Mn 0.95813(7) 0.06644(8) 0.73338(9)
Mn2A Mn 0.94977(7) 0.64904(8) 0.21831(8)
Mn2C Mn 0.05023(7) 0.35096(8) -0.21831(8)
O1A O 0.6610(3) 0.0652(3) 0.2785(4)
O2A O 0.5374(3) -0.0024(4) 0.2587(4)
O4A O 0.3392(3) 0.5151(3) 0.2135(4)
O5A O 0.4616(3) 0.5858(4) 0.2330(4)
N1C N 0.4346(4) 0.4309(4) 0.0983(5)
N4C N 0.5785(4) 0.1181(5) 0.4153(5)
C20 C 0.8419(9) 0.4566(9) 0.6142(8)
H10 H 0.8882 0.4995 0.6233
H11 H 0.8484 0.4276 0.6654
C26 C 0.7756(5) 0.3298(4) 0.5394(5)
H17 H 0.7863 0.2950 0.5878
H18 H 0.7756 0.2926 0.4951
H19 H 0.7199 0.3583 0.5258
N5 N 0.8425(5) 0.3949(4) 0.5537(5)
C31 C 0.8387(4) 0.4367(4) 0.4786(4)
H24 H 0.8812 0.4829 0.4902
H25 H 0.7816 0.4608 0.4520
H26 H 0.8509 0.3941 0.4434
N6 N 0.6882(4) 0.5296(4) 0.5553(5)
C32 C 0.7566(5) 0.498(6) 0.579(5)
N7 N 0.6885(4) 0.8003(3) 0.4901(4)
N8 N 0.8417(4) 0.7203(4) 0.4319(4)
C33 C 0.7855(5) 0.6500(5) 0.3864(5)
H27 H 0.7480 0.6721 0.3345
H28 H 0.7508 0.6285 0.4167
H29 H 0.8206 0.6031 0.3779
C34 C 0.7351(3) 0.8012(4) 0.4605(4)
C35 C 0.7960(5) 0.8019(4) 0.4159(5)
H30 H 0.7645 0.8085 0.3578
H31 H 0.8366 0.8505 0.4341
C36 C 0.8697(4) 0.7022(4) 0.5176(4)
H32 H 0.9129 0.7445 0.5468
H33 H 0.8944 0.6442 0.5279
H34 H 0.8207 0.7056 0.5356
loop_
_geom_bond_atom_site_label_1
_geom_bond_atom_site_label_2
_geom_bond_site_symmetry_1
_geom_bond_site_symmetry_2
Mn1 O3 1_555 1_555
Mn2 O6 1_555 1_555
O1 C6 1_555 1_555
O2 C6 1_555 1_555
O3 C14 1_555 1_555
O4 C17 1_555 1_555
O5 C17 1_555 1_555
O6 C14 1_555 1_555
O7 Mn2 1_555 1_555
O8 Mn1 1_555 1_555
N1 C22 1_555 1_555
C1 C6 1_555 1_555
O9 Mn2 1_555 1_555
N2 H1 1_555 1_555
C2 C7 1_555 1_555
N3 H2 1_555 1_555
C3 N2 1_555 1_555
C4 C5 1_555 1_555
C5 H3 1_555 1_555
C7 C1 1_555 1_555
H4 C7 1_555 1_555
C8 C5 1_555 1_555
C9 C1 1_555 1_555
H5 C9 1_555 1_555
N4 C29 1_555 1_555
C10 C2 1_555 1_555
H6 C10 1_555 1_555
C11 N3 1_555 1_555
C12 C15 1_555 1_555
C13 N2 1_555 1_555
C14 C8 1_555 1_555
C15 N3 1_555 1_555
H7 C15 1_555 1_555
H8 C15 1_555 1_555
C16 C3 1_555 1_555
C17 C4 1_555 1_555
C18 C8 1_555 1_555
H9 C18 1_555 1_555
C19 O7 1_555 1_555
C20 H10 1_555 1_555
H11 C20 1_555 1_555
C21 C4 1_555 1_555
H12 C21 1_555 1_555
C22 H13 1_555 1_555
C23 C16 1_555 1_555
H14 C23 1_555 1_555
O10 Mn1 1_555 1_555
C24 C12 1_555 1_555
H15 C24 1_555 1_555
C25 N1 1_555 1_555
H16 C25 1_555 1_555
C26 H17 1_555 1_555
H18 C26 1_555 1_555
H19 C26 1_555 1_555
C27 C16 1_555 1_555
H20 C27 1_555 1_555
C28 C12 1_555 1_555
H21 C28 1_555 1_555
C29 C24 1_555 1_555
H22 C29 1_555 1_555
C30 N4 1_555 1_555
H23 C30 1_555 1_555
N5 C20 1_555 1_555
C31 N5 1_555 1_555
H24 C31 1_555 1_555
H25 C31 1_555 1_555
H26 C31 1_555 1_555
N6 C32 1_555 1_555
C32 C20 1_555 1_555
N7 C34 1_555 1_555
N8 C33 1_555 1_555
C33 H27 1_555 1_555
H28 C33 1_555 1_555
H29 C33 1_555 1_555
C34 C35 1_555 1_555
C35 N8 1_555 1_555
H30 C35 1_555 1_555
H31 C35 1_555 1_555
C36 N8 1_555 1_555
H32 C36 1_555 1_555
H33 C36 1_555 1_555
H34 C36 1_555 1_555
Mn1A O4 1_555 1_555
Mn1C N1 1_555 1_555
Mn2A O1 1_555 1_555
Mn2C N4 1_555 1_555
O1A Mn2 1_555 1_555
O2A Mn2 1_555 1_555
O4A Mn1 1_555 1_555
O5A Mn1 1_555 1_555
N1C Mn1 1_555 1_555
N4C Mn2 1_555 1_555
O2 Mn2A 1_555 1_555
O5 Mn1A 1_555 1_555
O8 C19 1_555 1_555
C2 C19 1_555 1_555
C9 C13 1_555 1_555
C10 C13 1_555 1_555
C11 C18 1_555 1_555
C11 C21 1_555 1_555
C22 C27 1_555 1_555
C23 C25 1_555 1_555
C26 N5 1_555 1_555
C28 C30 1_555 1_555

#END
