
#######################################################################
#
#                 Cambridge Crystallographic Data Centre
#                                CCDC 
#
#######################################################################
#
# If this CIF has been generated from an entry in the Cambridge 
# Structural Database, then it will include bibliographic, chemical, 
# crystal, experimental, refinement or atomic coordinate data resulting 
# from the CCDC's data processing and validation procedures.
#
#######################################################################

data_TUTLEZ01
_symmetry_cell_setting           monoclinic
_symmetry_space_group_name_H-M   'P 21/n'
_symmetry_Int_Tables_number      14
_space_group_name_Hall           '-P 2yn'
loop_
_symmetry_equiv_pos_site_id
_symmetry_equiv_pos_as_xyz
1 x,y,z
2 1/2+x,1/2-y,1/2+z
3 -x,-y,-z
4 1/2-x,1/2+y,1/2-z
_cell_length_a                   7.291(2)
_cell_length_b                   18.454(3)
_cell_length_c                   7.532(2)
_cell_angle_alpha                90
_cell_angle_beta                 91.68(3)
_cell_angle_gamma                90
_cell_volume                     1012.98
loop_
_atom_site_label
_atom_site_type_symbol
_atom_site_fract_x
_atom_site_fract_y
_atom_site_fract_z
Mn1 Mn 0.09591(8) 0.20604(3) 0.11173(7)
O1 O -0.0678(4) 0.26897(17) -0.0770(4)
O2 O -0.2806(4) 0.34929(16) -0.1614(4)
O3 O -0.0619(4) 0.26511(16) 0.3043(4)
O4 O -0.2683(4) 0.34499(16) 0.3922(4)
C1 C -0.1624(5) 0.3255(2) -0.0524(5)
C2 C -0.1284(6) 0.3679(2) 0.1191(5)
C3 C -0.1555(5) 0.3222(2) 0.2842(5)
C4 C -0.4127(8) 0.0706(4) 0.1558(9)
H1 H -0.5085 0.0719 0.2347
C5 C -0.2625(8) 0.1159(4) 0.1818(9)
H2 H -0.2612 0.1466 0.2799
C6 C -0.1301(8) 0.0734(4) -0.0578(9)
H3 H -0.0328 0.0732 -0.1349
C7 C -0.2730(2) 0.02632(10) -0.0931(3)
H4 H -0.2698 -0.0043 -0.1910
C8 C -0.4201(2) 0.02462(10) 0.0162(3)
N1 N -0.1215(2) 0.11834(10) 0.0764(3)
O5 O 0.3142(2) 0.29113(10) 0.1124(3)
H5 H -0.2156 0.4129 0.1077
H6 H 0.3819 0.2764 0.0059
H7 H 0.3895 0.2780 0.2186
H8 H -0.0166 0.3795 0.1226
C8B C -0.5799(2) -0.02462(10) -0.0162(3)
C4B C -0.5873(8) -0.0706(4) -0.1558(9)
H1B H -0.4915 -0.0719 -0.2347
C5B C -0.7375(8) -0.1159(4) -0.1818(9)
H2B H -0.7388 -0.1466 -0.2799
N1B N -0.8785(2) -0.11834(10) -0.0764(3)
C6B C -0.8699(8) -0.0734(4) 0.0578(9)
H3B H -0.9672 -0.0732 0.1349
C7B C -0.7270(2) -0.02632(10) 0.0931(3)
H4B H -0.7302 0.0043 0.1910
O1A O 0.4322(4) 0.23103(17) 0.4230(4)
O2A O 0.2194(4) 0.15071(16) 0.3386(4)
O3A O 0.4381(4) 0.23489(16) 0.8043(4)
O4A O 0.2317(4) 0.15501(16) 0.8922(4)
C1A C 0.3376(5) 0.1745(2) 0.4476(5)
C2A C 0.3716(6) 0.1321(2) 0.6191(5)
C3A C 0.3445(5) 0.1778(2) 0.7842(5)
H5A H 0.2844 0.0871 0.6077
H8A H 0.4834 0.1205 0.6226
Mn1A Mn 0.59591(8) 0.29396(3) 0.61173(7)
O5A O 0.8142(2) 0.20887(10) 0.6124(3)
H6A H 0.8819 0.2236 0.5059
H7A H 0.8895 0.2220 0.7186
O4A_2 O 0.2317(4) 0.15501(16) -0.1078(4)
Mn1A_2 Mn -0.40409(8) 0.29396(3) -0.38827(7)
Mn1A_3 Mn -0.40409(8) 0.29396(3) 0.61173(7)
Mn1B Mn -1.09591(8) -0.20604(3) -0.11173(7)
Mn1_2 Mn 0.09591(8) 0.20604(3) 1.11173(7)
O2_2 O 0.7194(4) 0.34929(16) 0.8386(4)
O4_2 O 0.7317(4) 0.34499(16) 0.3922(4)
N1A N 0.3785(2) 0.38166(10) 0.5764(3)
loop_
_geom_bond_atom_site_label_1
_geom_bond_atom_site_label_2
_geom_bond_site_symmetry_1
_geom_bond_site_symmetry_2
Mn1 O1 1_555 1_555
O1 C1 1_555 1_555
O2 C1 1_555 1_555
O3 Mn1 1_555 1_555
O4 C3 1_555 1_555
C1 C2 1_555 1_555
C2 C3 1_555 1_555
C3 O3 1_555 1_555
C4 H1 1_555 1_555
C5 C4 1_555 1_555
H2 C5 1_555 1_555
C6 H3 1_555 1_555
C7 C6 1_555 1_555
H4 C7 1_555 1_555
C8 C4 1_555 1_555
N1 Mn1 1_555 1_555
O5 Mn1 1_555 1_555
H5 C2 1_555 1_555
H6 O5 1_555 1_555
H7 O5 1_555 1_555
H8 C2 1_555 1_555
C8B C8 1_555 1_555
C4B C8B 1_555 1_555
H1B C4B 1_555 1_555
C5B C4B 1_555 1_555
H2B C5B 1_555 1_555
N1B C5B 1_555 1_555
C6B N1B 1_555 1_555
H3B C6B 1_555 1_555
C7B C8B 1_555 1_555
H4B C7B 1_555 1_555
O1A C1A 1_555 1_555
O2A Mn1 1_555 1_555
O3A C3A 1_555 1_555
O4A C3A 1_555 1_555
C1A O2A 1_555 1_555
C2A C1A 1_555 1_555
C3A C2A 1_555 1_555
H5A C2A 1_555 1_555
H8A C2A 1_555 1_555
Mn1A O1A 1_555 1_555
O5A Mn1A 1_555 1_555
H6A O5A 1_555 1_555
H7A O5A 1_555 1_555
O4A_2 Mn1 1_555 1_555
Mn1A_2 O2 1_555 1_555
Mn1A_3 O4 1_555 1_555
Mn1B N1B 1_555 1_555
Mn1_2 O4A 1_555 1_555
O2_2 Mn1A 1_555 1_555
O4_2 Mn1A 1_555 1_555
N1A Mn1A 1_555 1_555
C5 N1 1_555 1_555
C6 N1 1_555 1_555
C7 C8 1_555 1_555
C6B C7B 1_555 1_555
O3A Mn1A 1_555 1_555

#END
