
#######################################################################
#
#                 Cambridge Crystallographic Data Centre
#                                CCDC 
#
#######################################################################
#
# If this CIF has been generated from an entry in the Cambridge 
# Structural Database, then it will include bibliographic, chemical, 
# crystal, experimental, refinement or atomic coordinate data resulting 
# from the CCDC's data processing and validation procedures.
#
#######################################################################

data_TUTLEZ
_symmetry_cell_setting           monoclinic
_symmetry_space_group_name_H-M   'P 21/n'
_symmetry_Int_Tables_number      14
_space_group_name_Hall           '-P 2yn'
loop_
_symmetry_equiv_pos_site_id
_symmetry_equiv_pos_as_xyz
1 x,y,z
2 1/2+x,1/2-y,1/2+z
3 -x,-y,-z
4 1/2-x,1/2+y,1/2-z
_cell_length_a                   7.2974(10)
_cell_length_b                   18.7715(10)
_cell_length_c                   7.514(3)
_cell_angle_alpha                90
_cell_angle_beta                 91.743(12)
_cell_angle_gamma                90
_cell_volume                     1028.82
loop_
_atom_site_label
_atom_site_type_symbol
_atom_site_fract_x
_atom_site_fract_y
_atom_site_fract_z
Mn1 Mn 0.58767(6) 0.29346(3) 0.88688(6)
O1 O 0.4286(3) 0.23594(14) 0.6939(3)
O2 O 0.2242(3) 0.15679(13) 0.6061(3)
O3 O 0.4246(4) 0.23133(15) 1.0766(3)
O4 O 0.2137(3) 0.15165(13) 1.1604(3)
O5 O 0.8038(4) 0.20905(14) 0.8853(4)
N1 N 0.3705(4) 0.37991(16) 0.9225(4)
C1 C 0.0782(4) 0.47524(17) 0.9836(5)
C2 C 0.3682(7) 0.4258(3) 1.0561(6)
H1 H 0.4699 0.4263 1.1337
C3 C 0.2272(7) 0.4735(3) 1.0912(7)
H2 H 0.2369 0.5039 1.1889
C4 C 0.2249(8) 0.3808(4) 0.8262(9)
H3 H 0.2156 0.3487 0.7320
C5 C 0.0780(7) 0.4266(3) 0.8518(9)
H4 H -0.0240 0.4235 0.7750
C6 C 0.3377(4) 0.17916(18) 0.7140(4)
C7 C 0.3669(5) 0.13420(18) 0.8795(4)
H5 H 0.4919 0.1166 0.8838
H6 H 0.2856 0.0933 0.8725
C8 C 0.3314(4) 0.17553(18) 1.0513(4)
H7 H 0.875(8) 0.221(3) 0.982(8)
H8 H 0.851(9) 0.222(3) 0.773(10)
C1B C -0.0782(4) 0.52476(17) 1.0164(5)
C3B C -0.2272(7) 0.5265(3) 0.9088(7)
C2B C -0.3682(7) 0.5742(3) 0.9439(6)
N1B N -0.3705(4) 0.62009(16) 1.0775(4)
C4B C -0.2249(8) 0.6192(4) 1.1738(9)
H3B H -0.2156 0.6513 1.2680
C5B C -0.0780(7) 0.5734(3) 1.1482(9)
H4B H 0.0240 0.5765 1.2250
H1B H -0.4699 0.5737 0.8663
H2B H -0.2369 0.4961 0.8111
O1A O 0.9286(3) 0.26406(14) 1.1939(3)
O2A O 0.7242(3) 0.34321(13) 1.1061(3)
O3A O 0.9246(4) 0.26867(15) 1.5766(3)
O4A O 0.7137(3) 0.34835(13) 1.6604(3)
C6A C 0.8377(4) 0.32084(18) 1.2140(4)
C7A C 0.8669(5) 0.36580(18) 1.3795(4)
H5A H 0.9919 0.3834 1.3838
H6A H 0.7856 0.4067 1.3725
C8A C 0.8314(4) 0.32447(18) 1.5513(4)
Mn1A Mn 1.08767(6) 0.20654(3) 1.38688(6)
O5A O 1.3038(4) 0.29095(14) 1.3853(4)
H7A H 1.375(8) 0.279(3) 1.482(8)
H8A H 1.351(9) 0.278(3) 1.273(10)
O4A_2 O 0.7137(3) 0.34835(13) 0.6604(3)
Mn1A_2 Mn 0.08767(6) 0.20654(3) 0.38688(6)
Mn1A_3 Mn 0.08767(6) 0.20654(3) 1.38688(6)
Mn1B Mn -0.58767(6) 0.70654(3) 1.11312(6)
Mn1_2 Mn 0.58767(6) 0.29346(3) 1.88688(6)
O2_2 O 1.2242(3) 0.15679(13) 1.6061(3)
O4_2 O 1.2137(3) 0.15165(13) 1.1604(3)
N1A N 0.8705(4) 0.12009(16) 1.4225(4)
loop_
_geom_bond_atom_site_label_1
_geom_bond_atom_site_label_2
_geom_bond_site_symmetry_1
_geom_bond_site_symmetry_2
Mn1 O1 1_555 1_555
O1 C6 1_555 1_555
O2 C6 1_555 1_555
O3 Mn1 1_555 1_555
O4 C8 1_555 1_555
O5 Mn1 1_555 1_555
N1 Mn1 1_555 1_555
C1 C3 1_555 1_555
C2 N1 1_555 1_555
H1 C2 1_555 1_555
C3 C2 1_555 1_555
H2 C3 1_555 1_555
C4 N1 1_555 1_555
H3 C4 1_555 1_555
C5 C1 1_555 1_555
H4 C5 1_555 1_555
C6 C7 1_555 1_555
C7 H5 1_555 1_555
H6 C7 1_555 1_555
C8 O3 1_555 1_555
H7 O5 1_555 1_555
H8 O5 1_555 1_555
C1B C1 1_555 1_555
C3B C1B 1_555 1_555
C2B C3B 1_555 1_555
N1B C2B 1_555 1_555
C4B N1B 1_555 1_555
H3B C4B 1_555 1_555
C5B C1B 1_555 1_555
H4B C5B 1_555 1_555
H1B C2B 1_555 1_555
H2B C3B 1_555 1_555
O1A C6A 1_555 1_555
O2A Mn1 1_555 1_555
O3A C8A 1_555 1_555
O4A C8A 1_555 1_555
C6A O2A 1_555 1_555
C7A C6A 1_555 1_555
H5A C7A 1_555 1_555
H6A C7A 1_555 1_555
C8A C7A 1_555 1_555
Mn1A O1A 1_555 1_555
O5A Mn1A 1_555 1_555
H7A O5A 1_555 1_555
H8A O5A 1_555 1_555
O4A_2 Mn1 1_555 1_555
Mn1A_2 O2 1_555 1_555
Mn1A_3 O4 1_555 1_555
Mn1B N1B 1_555 1_555
Mn1_2 O4A 1_555 1_555
O2_2 Mn1A 1_555 1_555
O4_2 Mn1A 1_555 1_555
N1A Mn1A 1_555 1_555
C4 C5 1_555 1_555
C7 C8 1_555 1_555
C4B C5B 1_555 1_555
O3A Mn1A 1_555 1_555

#END
