
#######################################################################
#
#                 Cambridge Crystallographic Data Centre
#                                CCDC 
#
#######################################################################
#
# If this CIF has been generated from an entry in the Cambridge 
# Structural Database, then it will include bibliographic, chemical, 
# crystal, experimental, refinement or atomic coordinate data resulting 
# from the CCDC's data processing and validation procedures.
#
#######################################################################

data_TUTQEF
_symmetry_cell_setting           monoclinic
_symmetry_space_group_name_H-M   'P 21/c'
_symmetry_Int_Tables_number      14
_space_group_name_Hall           '-P 2ybc'
loop_
_symmetry_equiv_pos_site_id
_symmetry_equiv_pos_as_xyz
1 x,y,z
2 -x,1/2+y,1/2-z
3 -x,-y,-z
4 x,1/2-y,1/2+z
_cell_length_a                   14.4356(12)
_cell_length_b                   15.1833(7)
_cell_length_c                   22.3716(19)
_cell_angle_alpha                90
_cell_angle_beta                 127.298(5)
_cell_angle_gamma                90
_cell_volume                     3900.63
loop_
_atom_site_label
_atom_site_type_symbol
_atom_site_fract_x
_atom_site_fract_y
_atom_site_fract_z
C1 C 0.8836(6) 0.1892(5) 0.4281(4)
C2 C 0.9551(6) 0.1881(5) 0.5562(4)
C3 C 0.8338(5) 0.1735(6) 0.5333(4)
C4 C 0.7405(6) 0.1766(6) 0.4484(4)
C5 C 0.8305(7) 0.0836(6) 0.5640(5)
H1 H 0.8843 0.0853 0.6185
H2 H 0.7529 0.0748 0.5499
C6 C 0.8606(10) 0.0065(7) 0.5371(7)
H3 H 0.9375 0.0143 0.5511
H4 H 0.8056 0.0023 0.4834
H5 H 0.8582 -0.0465 0.5595
C7 C 0.8072(8) 0.2480(6) 0.5673(6)
H6 H 0.7321 0.2365 0.5561
H7 H 0.8651 0.2463 0.6215
C8 C 0.8053(11) 0.3389(8) 0.5406(7)
H8 H 0.7463 0.3423 0.4872
H9 H 0.8799 0.3519 0.5524
H10 H 0.7886 0.3808 0.5650
C9 C 0.4016(6) 0.2499(5) 0.1462(4)
C10 C 0.3368(6) 0.2798(5) 0.0215(4)
C11 C 0.4582(6) 0.2716(5) 0.0450(4)
C12 C 0.5462(6) 0.2434(5) 0.1262(4)
C13 C 0.4987(7) 0.3626(6) 0.0362(5)
H11 H 0.5786 0.3574 0.0540
H12 H 0.4512 0.3776 -0.0167
C14 C 0.4914(9) 0.4364(6) 0.0781(6)
H13 H 0.5404 0.4234 0.1308
H14 H 0.4123 0.4428 0.0604
H15 H 0.5167 0.4903 0.0696
C15 C 0.4593(7) 0.2023(6) -0.0052(5)
H16 H 0.4064 0.2213 -0.0571
H17 H 0.5369 0.1999 0.0081
C16 C 0.4249(9) 0.1106(7) 0.0010(6)
H18 H 0.3476 0.1119 -0.0129
H19 H 0.4784 0.0902 0.0519
H20 H 0.4269 0.0716 -0.0319
C17 C 0.1442(12) -0.0781(11) 0.1424(9)
H21 H 0.1482 -0.1369 0.1260
C18 C 0.0150(11) -0.0515(10) 0.0955(9)
H22 H 0.0093 0.0089 0.1073
H23 H -0.0192 -0.0543 0.0426
N1 N 0.7687(4) 0.1845(4) 0.4017(3)
N2 N 0.9738(5) 0.1936(4) 0.5044(3)
N3 N 0.5147(5) 0.2364(4) 0.1724(3)
N4 N 0.3140(5) 0.2688(4) 0.0720(3)
O1 O 0.9090(5) 0.1892(4) 0.3844(3)
O2 O 1.0368(4) 0.1912(5) 0.6237(3)
O3 O 0.6382(5) 0.1701(6) 0.4239(3)
O4 O 0.3767(5) 0.2436(4) 0.1901(3)
O5 O 0.2558(4) 0.2980(4) -0.0445(3)
O6 O 0.6481(5) 0.2296(5) 0.1507(3)
Na1 Na 0.8252(6) 0.1113(5) 0.2493(4)
Na2 Na 0.4015(5) 0.1517(5) 0.3130(4)
Ag1 Ag 1.14162(4) 0.21280(4) 0.53391(3)
Ag2 Ag 0.64009(4) 0.20754(4) 0.28668(3)
C19 C 0.5349(7) -0.0150(6) 0.1980(5)
H24 H 0.5714 0.0323 0.1892
C20 C 0.5472(7) -0.0991(7) 0.1673(5)
H25 H 0.5066 -0.0927 0.1137
H26 H 0.5110 -0.1470 0.1750
C21 C 0.6733(7) -0.1215(7) 0.2048(5)
H27 H 0.6785 -0.1767 0.1851
H28 H 0.7092 -0.0758 0.1948
C22 C 0.7272(8) -0.0462(7) 0.3190(6)
H29 H 0.7634 0.0013 0.3109
H30 H 0.7689 -0.0531 0.3727
C23 C 0.6019(8) -0.0239(6) 0.2823(5)
H31 H 0.5976 0.0309 0.3028
H32 H 0.5671 -0.0699 0.2930
C24 C 0.4072(9) 0.0107(7) 0.1584(6)
H33 H 0.4053 0.0693 0.1748
H34 H 0.3687 0.0137 0.1048
C25 C 0.3400(8) -0.0483(7) 0.1709(6)
H35 H 0.3779 -0.0522 0.2244
H36 H 0.3390 -0.1068 0.1531
C26 C 0.2128(8) -0.0160(8) 0.1299(6)
H37 H 0.2136 0.0421 0.1482
H38 H 0.1751 -0.0114 0.0765
C27 C 0.1925(12) -0.0843(10) 0.2249(8)
H39 H 0.2711 -0.1076 0.2542
H40 H 0.1962 -0.0257 0.2436
C28 C 0.1189(11) -0.1424(11) 0.2356(8)
H41 H 0.1214 -0.2023 0.2215
H42 H 0.1513 -0.1426 0.2883
C29 C -0.0529(12) -0.1110(11) 0.1108(8)
H43 H -0.1327 -0.0905 0.0820
H44 H -0.0539 -0.1703 0.0942
N5 N 0.7340(6) -0.1292(5) 0.2867(4)
N6 N -0.0026(10) -0.1132(8) 0.1909(7)
H45 H 0.806(3) -0.143(6) 0.309(4)
Na3 Na -0.0029(5) 0.0494(4) 0.2417(3)
O8 O 0.2273(7) 0.1283(5) 0.3314(4)
H48 H 0.253(10) 0.155(7) 0.371(3)
H49 H 0.180(9) 0.162(6) 0.296(4)
N4C N 1.3140(5) 0.2312(4) 0.5720(3)
Ag1C Ag 0.14162(4) 0.28720(4) 0.03391(3)
O7 O 1.0963(7) 0.2784(7) 0.2620(5)
H46 H 1.037(8) 0.289(10) 0.219(3)
H47 H 1.091(11) 0.298(10) 0.294(5)
loop_
_geom_bond_atom_site_label_1
_geom_bond_atom_site_label_2
_geom_bond_site_symmetry_1
_geom_bond_site_symmetry_2
C1 N1 1_555 1_555
C2 C3 1_555 1_555
C3 C4 1_555 1_555
C4 N1 1_555 1_555
C5 C3 1_555 1_555
H1 C5 1_555 1_555
H2 C5 1_555 1_555
C6 C5 1_555 1_555
H3 C6 1_555 1_555
H4 C6 1_555 1_555
H5 C6 1_555 1_555
C7 C3 1_555 1_555
H6 C7 1_555 1_555
H7 C7 1_555 1_555
C8 C7 1_555 1_555
H8 C8 1_555 1_555
H9 C8 1_555 1_555
H10 C8 1_555 1_555
C9 N3 1_555 1_555
C10 C11 1_555 1_555
C11 C12 1_555 1_555
C12 N3 1_555 1_555
C13 C11 1_555 1_555
H11 C13 1_555 1_555
H12 C13 1_555 1_555
C14 C13 1_555 1_555
H13 C14 1_555 1_555
H14 C14 1_555 1_555
H15 C14 1_555 1_555
C15 C11 1_555 1_555
H16 C15 1_555 1_555
H17 C15 1_555 1_555
C16 C15 1_555 1_555
H18 C16 1_555 1_555
H19 C16 1_555 1_555
H20 C16 1_555 1_555
C17 H21 1_555 1_555
C18 C17 1_555 1_555
H22 C18 1_555 1_555
H23 C18 1_555 1_555
N1 Ag2 1_555 1_555
N2 C1 1_555 1_555
N3 Ag2 1_555 1_555
N4 C9 1_555 1_555
O1 C1 1_555 1_555
O2 C2 1_555 1_555
O3 C4 1_555 1_555
O4 C9 1_555 1_555
O5 C10 1_555 1_555
O6 C12 1_555 1_555
Na1 O1 1_555 1_555
Na2 O3 1_555 1_555
Ag1 N2 1_555 1_555
C19 H24 1_555 1_555
C20 C19 1_555 1_555
H25 C20 1_555 1_555
H26 C20 1_555 1_555
C21 C20 1_555 1_555
H27 C21 1_555 1_555
H28 C21 1_555 1_555
C22 H29 1_555 1_555
H30 C22 1_555 1_555
C23 C19 1_555 1_555
H31 C23 1_555 1_555
H32 C23 1_555 1_555
C24 C19 1_555 1_555
H33 C24 1_555 1_555
H34 C24 1_555 1_555
C25 C24 1_555 1_555
H35 C25 1_555 1_555
H36 C25 1_555 1_555
C26 C17 1_555 1_555
H37 C26 1_555 1_555
H38 C26 1_555 1_555
C27 C17 1_555 1_555
H39 C27 1_555 1_555
H40 C27 1_555 1_555
C28 C27 1_555 1_555
H41 C28 1_555 1_555
H42 C28 1_555 1_555
C29 C18 1_555 1_555
H43 C29 1_555 1_555
H44 C29 1_555 1_555
N5 C21 1_555 1_555
N6 C28 1_555 1_555
H45 N5 1_555 1_555
Na3 N6 1_555 1_555
O7 H46 1_555 1_555
H47 O7 1_555 1_555
O8 Na2 1_555 1_555
H48 O8 1_555 1_555
H49 O8 1_555 1_555
N4C Ag1 1_555 1_555
Ag1C N4 1_555 1_555
C2 N2 1_555 1_555
C10 N4 1_555 1_555
O4 Na2 1_555 1_555
O6 Na1 1_555 1_555
C22 C23 1_555 1_555
C22 N5 1_555 1_555
C25 C26 1_555 1_555
C29 N6 1_555 1_555
Na3 O8 1_555 1_555

#END
