
#######################################################################
#
#                 Cambridge Crystallographic Data Centre
#                                CCDC 
#
#######################################################################
#
# If this CIF has been generated from an entry in the Cambridge 
# Structural Database, then it will include bibliographic, chemical, 
# crystal, experimental, refinement or atomic coordinate data resulting 
# from the CCDC's data processing and validation procedures.
#
#######################################################################

data_TUTQIJ
_symmetry_cell_setting           monoclinic
_symmetry_space_group_name_H-M   'C 2/c'
_symmetry_Int_Tables_number      15
_space_group_name_Hall           '-C 2yn'
loop_
_symmetry_equiv_pos_site_id
_symmetry_equiv_pos_as_xyz
1 x,y,z
2 -x,y,1/2-z
3 1/2+x,1/2+y,z
4 1/2-x,1/2+y,1/2-z
5 -x,-y,-z
6 x,-y,1/2+z
7 1/2-x,1/2-y,-z
8 1/2+x,1/2-y,1/2+z
_cell_length_a                   21.006(5)
_cell_length_b                   11.784(3)
_cell_length_c                   6.760(2)
_cell_angle_alpha                90
_cell_angle_beta                 94.16(4)
_cell_angle_gamma                90
_cell_volume                     1668.93
loop_
_atom_site_label
_atom_site_type_symbol
_atom_site_fract_x
_atom_site_fract_y
_atom_site_fract_z
Pb1 Pb 0.110723(15) 0.11404(3) 0.10543(5)
I1 I 0.05679(3) 0.16270(6) 0.51980(10)
O1 O 0.1791(3) -0.0375(6) 0.3198(10)
O2 O 0.2189(4) 0.1328(7) 0.2636(13)
N1 N 0.3607(4) -0.1709(7) 0.4316(13)
C1 C 0.3023(4) -0.1285(8) 0.3879(14)
H1 H 0.2684 -0.1780 0.3586
C2 C 0.2910(4) -0.0114(7) 0.3853(13)
C3 C 0.2261(4) 0.0304(9) 0.3237(13)
C4 C 0.3412(5) 0.0621(8) 0.4345(15)
H2 H 0.3350 0.1402 0.4330
C5 C 0.4001(4) 0.0172(10) 0.4851(15)
H3 H 0.4348 0.0643 0.5186
C6 C 0.4075(5) -0.0986(9) 0.4858(18)
H4 H 0.4473 -0.1282 0.5264
O1E O 0.1791(3) 0.0375(6) -0.1802(10)
N1C N 0.1393(4) 0.3291(7) 0.0684(13)
Pb1E Pb 0.110723(15) -0.11404(3) 0.60543(5)
Pb1C Pb 0.389277(15) -0.38596(3) 0.39457(5)
loop_
_geom_bond_atom_site_label_1
_geom_bond_atom_site_label_2
_geom_bond_site_symmetry_1
_geom_bond_site_symmetry_2
Pb1 I1 1_555 1_555
O1 Pb1 1_555 1_555
O2 Pb1 1_555 1_555
N1 C1 1_555 1_555
C1 H1 1_555 1_555
C2 C1 1_555 1_555
C3 O1 1_555 1_555
C4 C2 1_555 1_555
H2 C4 1_555 1_555
C5 C4 1_555 1_555
H3 C5 1_555 1_555
C6 N1 1_555 1_555
H4 C6 1_555 1_555
O1E Pb1 1_555 1_555
N1C Pb1 1_555 1_555
Pb1E O1 1_555 1_555
Pb1C N1 1_555 1_555
O2 C3 1_555 1_555
C2 C3 1_555 1_555
C5 C6 1_555 1_555

#END
