
#######################################################################
#
#                 Cambridge Crystallographic Data Centre
#                                CCDC 
#
#######################################################################
#
# If this CIF has been generated from an entry in the Cambridge 
# Structural Database, then it will include bibliographic, chemical, 
# crystal, experimental, refinement or atomic coordinate data resulting 
# from the CCDC's data processing and validation procedures.
#
#######################################################################

data_TUTQAB
_symmetry_cell_setting           triclinic
_symmetry_space_group_name_H-M   'P -1'
_symmetry_Int_Tables_number      2
_space_group_name_Hall           '-P 1'
loop_
_symmetry_equiv_pos_site_id
_symmetry_equiv_pos_as_xyz
1 x,y,z
2 -x,-y,-z
_cell_length_a                   7.3494(5)
_cell_length_b                   11.3548(8)
_cell_length_c                   11.3832(7)
_cell_angle_alpha                77.624(5)
_cell_angle_beta                 76.630(5)
_cell_angle_gamma                88.814(6)
_cell_volume                     902.3
loop_
_atom_site_label
_atom_site_type_symbol
_atom_site_fract_x
_atom_site_fract_y
_atom_site_fract_z
C1 C 0.9471(7) 0.8600(5) 0.2069(6)
H1 H 1.0699 0.8720 0.1510
H2 H 0.8808 0.9346 0.1935
C2 C 0.9674(8) 0.8285(7) 0.3378(7)
H3 H 1.0335 0.8940 0.3543
H4 H 0.8444 0.8185 0.3935
C3 C 1.0736(8) 0.7133(7) 0.3615(6)
H5 H 1.2030 0.7270 0.3160
H6 H 1.0715 0.6892 0.4489
C4 C 0.9848(7) 0.6138(5) 0.3211(6)
H7 H 0.8650 0.5890 0.3779
H8 H 1.0645 0.5446 0.3243
C5 C 0.9565(6) 0.6545(5) 0.1934(5)
H9 H 0.8928 0.5906 0.1725
H10 H 1.0773 0.6705 0.1354
C6 C 0.8105(8) 0.7946(5) 0.0536(4)
H11 H 0.7750 0.7210 0.0332
H12 H 0.9265 0.8257 -0.0047
C7 C 0.6652(8) 0.8831(5) 0.0377(4)
H13 H 0.6589 0.9026 -0.0485
H14 H 0.6984 0.9565 0.0594
C8 C 0.4847(5) 0.5559(3) 0.7411(3)
C9 C 0.4205(4) 0.7291(3) 0.6007(3)
C10 C 0.3545(4) 0.7944(3) 0.7061(3)
C11 C 0.3924(5) 0.7248(3) 0.8288(3)
C12 C 0.1407(5) 0.8072(3) 0.7237(3)
H15 H 0.0971 0.8535 0.7867
H16 H 0.1158 0.8529 0.6471
C13 C 0.0287(6) 0.6900(4) 0.7603(4)
H17 H -0.1019 0.7065 0.7691
H18 H 0.0489 0.6447 0.8374
H19 H 0.0676 0.6441 0.6976
C14 C 0.4503(5) 0.9196(3) 0.6732(3)
H20 H 0.4173 0.9656 0.5992
H21 H 0.4011 0.9609 0.7397
C15 C 0.6606(6) 0.9196(4) 0.6515(4)
H22 H 0.7088 1.0012 0.6316
H23 H 0.7116 0.8813 0.5842
H24 H 0.6954 0.8764 0.7249
N1 N 0.8454(4) 0.7645(3) 0.1814(3)
N2 N 0.4700(4) 0.6139(2) 0.6242(2)
N3 N 0.4553(4) 0.6119(2) 0.8384(2)
O1 O 0.5262(4) 0.4482(2) 0.7587(2)
O2 O 0.4173(3) 0.7840(2) 0.49426(19)
O3 O 0.3593(4) 0.7741(2) 0.9175(2)
Ag1 Ag 0.55254(4) 0.72775(3) 0.31583(2)
Ag2 Ag 0.5000 0.5000 0.5000
Ag3 Ag 0.5000 0.5000 1.0000
O4 O 0.4898(5) 0.8400(3) 0.1109(3)
H25 H 0.436(8) 0.799(5) 0.077(5)
C1A C 0.0529(7) 0.1400(5) 0.7931(6)
H1A H -0.0699 0.1280 0.8490
H2A H 0.1192 0.0654 0.8065
C2A C 0.0326(8) 0.1715(7) 0.6622(7)
H3A H -0.0335 0.1060 0.6457
H4A H 0.1556 0.1815 0.6065
C3A C -0.0736(8) 0.2867(7) 0.6385(6)
H5A H -0.2030 0.2730 0.6840
H6A H -0.0715 0.3108 0.5511
C4A C 0.0152(7) 0.3862(5) 0.6789(6)
H7A H 0.1350 0.4110 0.6221
H8A H -0.0645 0.4554 0.6757
C5A C 0.0435(6) 0.3455(5) 0.8066(5)
H9A H 0.1072 0.4094 0.8275
H10A H -0.0773 0.3295 0.8646
C6A C 0.1895(8) 0.2054(5) 0.9464(4)
H11A H 0.2250 0.2790 0.9668
H12A H 0.0735 0.1743 1.0047
C7A C 0.3348(8) 0.1169(5) 0.9623(4)
H13A H 0.3411 0.0974 1.0485
H14A H 0.3016 0.0435 0.9406
C8A C 0.5153(5) 0.4441(3) 0.2589(3)
C9A C 0.5795(4) 0.2709(3) 0.3993(3)
C10A C 0.6455(4) 0.2056(3) 0.2939(3)
C11A C 0.6076(5) 0.2752(3) 0.1712(3)
C12A C 0.8593(5) 0.1928(3) 0.2763(3)
H15A H 0.9029 0.1465 0.2133
H16A H 0.8842 0.1471 0.3529
C13A C 0.9713(6) 0.3100(4) 0.2397(4)
H17A H 1.1019 0.2935 0.2309
H18A H 0.9511 0.3553 0.1626
H19A H 0.9324 0.3559 0.3024
C14A C 0.5497(5) 0.0804(3) 0.3268(3)
H20A H 0.5827 0.0344 0.4008
H21A H 0.5989 0.0391 0.2603
C15A C 0.3394(6) 0.0804(4) 0.3485(4)
H22A H 0.2912 -0.0012 0.3684
H23A H 0.2884 0.1187 0.4158
H24A H 0.3046 0.1236 0.2751
N1A N 0.1546(4) 0.2355(3) 0.8186(3)
N2A N 0.5300(4) 0.3861(2) 0.3758(2)
N3A N 0.5447(4) 0.3881(2) 0.1616(2)
N3A_2 N 0.5447(4) 0.3881(2) 1.1616(2)
O1A O 0.4738(4) 0.5518(2) 0.2413(2)
O2A O 0.5827(3) 0.2160(2) 0.50574(19)
O3A O 0.6407(4) 0.2259(2) 0.0825(2)
Ag1A Ag 0.44746(4) 0.27225(3) 0.68417(2)
Ag3_2 Ag 0.5000 0.5000 0.0000
O4A O 0.5102(5) 0.1600(3) 0.8891(3)
H25A H 0.564(8) 0.201(5) 0.923(5)
loop_
_geom_bond_atom_site_label_1
_geom_bond_atom_site_label_2
_geom_bond_site_symmetry_1
_geom_bond_site_symmetry_2
C1 H1 1_555 1_555
H2 C1 1_555 1_555
C2 C1 1_555 1_555
H3 C2 1_555 1_555
H4 C2 1_555 1_555
C3 C2 1_555 1_555
H5 C3 1_555 1_555
H6 C3 1_555 1_555
C4 C3 1_555 1_555
H7 C4 1_555 1_555
H8 C4 1_555 1_555
C5 C4 1_555 1_555
H9 C5 1_555 1_555
H10 C5 1_555 1_555
C6 H11 1_555 1_555
H12 C6 1_555 1_555
C7 C6 1_555 1_555
H13 C7 1_555 1_555
H14 C7 1_555 1_555
C8 N2 1_555 1_555
C9 C10 1_555 1_555
C10 C11 1_555 1_555
C11 N3 1_555 1_555
C12 C10 1_555 1_555
H15 C12 1_555 1_555
H16 C12 1_555 1_555
C13 C12 1_555 1_555
H17 C13 1_555 1_555
H18 C13 1_555 1_555
H19 C13 1_555 1_555
C14 C10 1_555 1_555
H20 C14 1_555 1_555
H21 C14 1_555 1_555
C15 C14 1_555 1_555
H22 C15 1_555 1_555
H23 C15 1_555 1_555
H24 C15 1_555 1_555
N1 C1 1_555 1_555
N2 C9 1_555 1_555
N3 C8 1_555 1_555
O1 C8 1_555 1_555
O2 C9 1_555 1_555
O3 C11 1_555 1_555
Ag1 N1 1_555 1_555
Ag2 N2 1_555 1_555
Ag3 N3 1_555 1_555
O4 C7 1_555 1_555
H25 O4 1_555 1_555
C1A H1A 1_555 1_555
H2A C1A 1_555 1_555
C2A C1A 1_555 1_555
H3A C2A 1_555 1_555
H4A C2A 1_555 1_555
C3A C2A 1_555 1_555
H5A C3A 1_555 1_555
H6A C3A 1_555 1_555
C4A C3A 1_555 1_555
H7A C4A 1_555 1_555
H8A C4A 1_555 1_555
C5A C4A 1_555 1_555
H9A C5A 1_555 1_555
H10A C5A 1_555 1_555
C6A H11A 1_555 1_555
H12A C6A 1_555 1_555
C7A C6A 1_555 1_555
H13A C7A 1_555 1_555
H14A C7A 1_555 1_555
C8A N2A 1_555 1_555
C9A C10A 1_555 1_555
C10A C11A 1_555 1_555
C11A N3A 1_555 1_555
C12A C10A 1_555 1_555
H15A C12A 1_555 1_555
H16A C12A 1_555 1_555
C13A C12A 1_555 1_555
H17A C13A 1_555 1_555
H18A C13A 1_555 1_555
H19A C13A 1_555 1_555
C14A C10A 1_555 1_555
H20A C14A 1_555 1_555
H21A C14A 1_555 1_555
C15A C14A 1_555 1_555
H22A C15A 1_555 1_555
H23A C15A 1_555 1_555
H24A C15A 1_555 1_555
N1A C1A 1_555 1_555
N2A Ag2 1_555 1_555
N3A C8A 1_555 1_555
N3A_2 Ag3 1_555 1_555
O1A Ag1 1_555 1_555
O2A C9A 1_555 1_555
O3A C11A 1_555 1_555
Ag1A O1 1_555 1_555
Ag3_2 N3A 1_555 1_555
O4A C7A 1_555 1_555
H25A O4A 1_555 1_555
C5 N1 1_555 1_555
C6 N1 1_555 1_555
O2 Ag1 1_555 1_555
Ag1 Ag2 1_555 1_555
Ag1 O4 1_555 1_555
Ag2 Ag1A 1_555 1_555
C5A N1A 1_555 1_555
C6A N1A 1_555 1_555
C8A O1A 1_555 1_555
C9A N2A 1_555 1_555
N1A Ag1A 1_555 1_555
O2A Ag1A 1_555 1_555
Ag1A O4A 1_555 1_555

#END
