
#######################################################################
#
#                 Cambridge Crystallographic Data Centre
#                                CCDC 
#
#######################################################################
#
# If this CIF has been generated from an entry in the Cambridge 
# Structural Database, then it will include bibliographic, chemical, 
# crystal, experimental, refinement or atomic coordinate data resulting 
# from the CCDC's data processing and validation procedures.
#
#######################################################################

data_TUTQOP
_symmetry_cell_setting           monoclinic
_symmetry_space_group_name_H-M   'C 2/c'
_symmetry_Int_Tables_number      15
_space_group_name_Hall           '-C 2yn'
loop_
_symmetry_equiv_pos_site_id
_symmetry_equiv_pos_as_xyz
1 x,y,z
2 -x,y,1/2-z
3 1/2+x,1/2+y,z
4 1/2-x,1/2+y,1/2-z
5 -x,-y,-z
6 x,-y,1/2+z
7 1/2-x,1/2-y,-z
8 1/2+x,1/2-y,1/2+z
_cell_length_a                   12.373(2)
_cell_length_b                   18.784(3)
_cell_length_c                   7.9370(10)
_cell_angle_alpha                90
_cell_angle_beta                 93.25(5)
_cell_angle_gamma                90
_cell_volume                     1841.71
loop_
_atom_site_label
_atom_site_type_symbol
_atom_site_fract_x
_atom_site_fract_y
_atom_site_fract_z
Pb1 Pb 0.82802(2) 0.417849(15) 0.21406(3)
I1 I 0.69463(5) 0.55996(4) 0.38617(8)
N1 N 0.6873(5) 0.3262(4) 0.3175(9)
C1 C 0.4786(6) 0.1773(4) 0.5400(9)
C2 C 0.6985(6) 0.2571(5) 0.2911(10)
H1 H 0.7528 0.2417 0.2234
C3 C 0.6089(7) 0.3488(5) 0.4173(12)
H2 H 0.6018 0.3973 0.4379
O1 O 0.3972(4) 0.1987(3) 0.6115(8)
O2 O 0.5040(5) 0.1115(3) 0.5368(7)
C4 C 0.5397(6) 0.3020(4) 0.4888(10)
H3 H 0.4854 0.3189 0.5548
C5 C 0.6328(6) 0.2073(4) 0.3601(9)
H4 H 0.6427 0.1591 0.3390
C6 C 0.5507(5) 0.2296(4) 0.4625(8)
O3 O 1.0000 0.5234(4) 0.2500
H5 H 0.9876 0.5604 0.1758
Pb1A Pb 1.17198(2) 0.417849(15) 0.28594(3)
Pb1D Pb 1.17198(2) 0.582151(15) -0.21406(3)
Pb1E Pb 0.82802(2) 0.582151(15) 0.71406(3)
Pb1F Pb 0.67198(2) 0.082151(15) 0.78594(3)
Pb1F_2 Pb 1.67198(2) 0.082151(15) -0.21406(3)
Pb1G Pb 0.32802(2) 0.082151(15) 0.71406(3)
Pb1G_2 Pb 1.32802(2) 0.082151(15) -0.28594(3)
I1A I 1.30537(5) 0.55996(4) 0.11383(8)
I1D I 1.30537(5) 0.44004(4) 0.61383(8)
I1E I 0.69463(5) 0.44004(4) -0.11383(8)
N1A N 1.3127(5) 0.3262(4) 0.1825(9)
C1A C 1.5214(6) 0.1773(4) -0.0400(9)
C2A C 1.3015(6) 0.2571(5) 0.2089(10)
H1A H 1.2472 0.2417 0.2766
C3A C 1.3911(7) 0.3488(5) 0.0827(12)
H2A H 1.3982 0.3973 0.0621
O1A O 1.6028(4) 0.1987(3) -0.1115(8)
O1F O 1.1028(4) 0.3013(3) 0.3885(8)
O1G O 0.8972(4) 0.3013(3) 0.1115(8)
O2A O 1.4960(5) 0.1115(3) -0.0368(7)
O2F O 0.9960(5) 0.3885(3) 0.4632(7)
O2G O 1.0040(5) 0.3885(3) 0.0368(7)
C4A C 1.4603(6) 0.3020(4) 0.0112(10)
H3A H 1.5146 0.3189 -0.0548
C5A C 1.3672(6) 0.2073(4) 0.1399(9)
H4A H 1.3573 0.1591 0.1610
C6A C 1.4493(5) 0.2296(4) 0.0375(8)
H5A H 1.0124 0.5604 0.3242
loop_
_geom_bond_atom_site_label_1
_geom_bond_atom_site_label_2
_geom_bond_site_symmetry_1
_geom_bond_site_symmetry_2
Pb1 I1 1_555 1_555
I1 Pb1E 1_555 1_555
N1 Pb1 1_555 1_555
C1 O1 1_555 1_555
C2 N1 1_555 1_555
H1 C2 1_555 1_555
C3 N1 1_555 1_555
H2 C3 1_555 1_555
O1 Pb1G 1_555 1_555
O2 C1 1_555 1_555
C4 C3 1_555 1_555
H3 C4 1_555 1_555
C5 C2 1_555 1_555
H4 C5 1_555 1_555
C6 C1 1_555 1_555
O3 Pb1 1_555 1_555
H5 O3 1_555 1_555
Pb1A O3 1_555 1_555
Pb1D I1A 1_555 1_555
Pb1F O2 1_555 1_555
Pb1F_2 O1A 1_555 1_555
Pb1G O2 1_555 1_555
Pb1G_2 O2A 1_555 1_555
I1A Pb1A 1_555 1_555
I1D Pb1A 1_555 1_555
I1E Pb1 1_555 1_555
N1A Pb1A 1_555 1_555
C1A O1A 1_555 1_555
C2A N1A 1_555 1_555
H1A C2A 1_555 1_555
C3A N1A 1_555 1_555
H2A C3A 1_555 1_555
O1F Pb1A 1_555 1_555
O1G Pb1 1_555 1_555
O2A Pb1F_2 1_555 1_555
O2F Pb1 1_555 1_555
O2G Pb1 1_555 1_555
C4A C3A 1_555 1_555
H3A C4A 1_555 1_555
C5A C2A 1_555 1_555
H4A C5A 1_555 1_555
C6A C1A 1_555 1_555
H5A O3 1_555 1_555
C4 C6 1_555 1_555
C5 C6 1_555 1_555
Pb1A O2F 1_555 1_555
Pb1A O2G 1_555 1_555
C1A O2A 1_555 1_555
C4A C6A 1_555 1_555
C5A C6A 1_555 1_555

#END
