
#######################################################################
#
#                 Cambridge Crystallographic Data Centre
#                                CCDC 
#
#######################################################################
#
# If this CIF has been generated from an entry in the Cambridge 
# Structural Database, then it will include bibliographic, chemical, 
# crystal, experimental, refinement or atomic coordinate data resulting 
# from the CCDC's data processing and validation procedures.
#
#######################################################################

data_TUTZOX
_symmetry_cell_setting           monoclinic
_symmetry_space_group_name_H-M   'P 21/c'
_symmetry_Int_Tables_number      14
_space_group_name_Hall           '-P 2ybc'
loop_
_symmetry_equiv_pos_site_id
_symmetry_equiv_pos_as_xyz
1 x,y,z
2 x,1/2-y,1/2+z
3 -x,-y,-z
4 -x,1/2+y,1/2-z
_cell_length_a                   22.101(7)
_cell_length_b                   10.218(3)
_cell_length_c                   14.283(5)
_cell_angle_alpha                90
_cell_angle_beta                 91.276(6)
_cell_angle_gamma                90
_cell_volume                     3224.7
loop_
_atom_site_label
_atom_site_type_symbol
_atom_site_fract_x
_atom_site_fract_y
_atom_site_fract_z
La1 La 0.25820(2) 0.55662(5) 0.26501(3)
La2 La 0.249930(19) 0.75114(4) 0.02127(3)
O1 O 0.3696(3) 0.5107(9) 0.2181(5)
O2 O 0.3248(2) 0.6576(6) 0.1315(4)
O3 O 0.6932(3) 0.2436(6) 0.1433(4)
O4 O 0.7154(3) 0.4346(6) 0.0848(5)
O5 O 0.2140(3) 0.7675(6) 0.2008(4)
O6 O 0.1888(3) 0.9245(6) 0.1059(4)
O7 O -0.1433(3) 1.0199(9) 0.2056(5)
O8 O -0.1909(3) 1.1342(7) 0.1007(4)
O9 O 0.3211(4) 0.5672(8) 0.5337(5)
O10 O 0.3041(4) 0.4543(10) 0.4057(5)
O11 O 0.2151(2) 0.5243(6) 0.1036(4)
O12 O 0.1532(3) 0.6275(7) 0.0093(6)
C1 C 0.4834(5) 0.5524(13) 0.1248(7)
C2 C 0.4960(5) 0.4237(12) 0.1410(8)
H1 H 0.4664 0.3608 0.1293
C3 C 0.5528(4) 0.3859(10) 0.1749(7)
H2 H 0.5607 0.2977 0.1856
C4 C 0.5973(4) 0.4764(9) 0.1929(6)
C5 C 0.5842(4) 0.6065(10) 0.1764(8)
H3 H 0.6139 0.6695 0.1869
C6 C 0.5279(5) 0.6441(12) 0.1446(9)
H4 H 0.5194 0.7326 0.1363
C7 C 0.4232(5) 0.5956(16) 0.0860(8)
H5 H 0.4142 0.5441 0.0303
H6 H 0.4269 0.6860 0.0663
C8 C 0.3702(4) 0.5859(10) 0.1491(7)
C9 C 0.6597(4) 0.4344(10) 0.2258(6)
H7 H 0.6566 0.3757 0.2788
H8 H 0.6829 0.5104 0.2457
C10 C 0.6913(4) 0.3665(9) 0.1476(6)
C11 C 0.0813(4) 0.9674(9) 0.2053(6)
C12 C 0.0687(4) 1.0979(9) 0.1909(7)
H9 H 0.0967 1.1606 0.2104
C13 C 0.0153(4) 1.1373(10) 0.1481(7)
H10 H 0.0087 1.2261 0.1377
C14 C -0.0281(4) 1.0506(10) 0.1209(6)
C15 C -0.0157(4) 0.9177(9) 0.1349(7)
H11 H -0.0440 0.8553 0.1157
C16 C 0.0380(4) 0.8781(9) 0.1772(7)
H12 H 0.0451 0.7893 0.1868
C17 C 0.1396(4) 0.9200(12) 0.2508(7)
H13 H 0.1586 0.9919 0.2846
H14 H 0.1304 0.8521 0.2958
C18 C 0.1825(3) 0.8675(8) 0.1819(6)
C19 C -0.0864(4) 1.0936(12) 0.0730(7)
H15 H -0.0920 1.0431 0.0160
H16 H -0.0824 1.1847 0.0552
C20 C -0.1424(4) 1.0790(10) 0.1312(6)
C21 C 0.4431(4) 0.4444(9) 0.5064(7)
C22 C 0.4813(5) 0.4507(11) 0.5837(7)
H17 H 0.4689 0.4188 0.6412
C23 C 0.4615(5) 0.4949(11) 0.4247(7)
H18 H 0.4353 0.4933 0.3728
C24 C 0.3809(4) 0.3792(11) 0.5142(8)
H19 H 0.3792 0.3010 0.4757
H20 H 0.3742 0.3539 0.5786
C25 C 0.3317(4) 0.4765(11) 0.4812(7)
C26 C 0.0565(4) 0.4633(8) 0.0384(6)
C27 C 0.0131(4) 0.5197(9) 0.0935(6)
H21 H 0.0216 0.5340 0.1567
C28 C 0.0426(4) 0.4448(9) -0.0566(6)
H22 H 0.0713 0.4080 -0.0953
C29 C 0.1177(4) 0.4281(9) 0.0773(7)
H23 H 0.1311 0.3479 0.0478
H24 H 0.1147 0.4113 0.1439
C30 C 0.1644(4) 0.5331(9) 0.0627(6)
O13 O 0.2483(4) 0.3154(8) 0.2449(6)
C23B C 0.5385(5) 0.5051(11) 0.5753(7)
C21B C 0.5569(4) 0.5556(9) 0.4936(7)
C22B C 0.5187(5) 0.5493(11) 0.4163(7)
H17B H 0.5311 0.5812 0.3588
C24B C 0.6191(4) 0.6208(11) 0.4858(8)
H19B H 0.6208 0.6990 0.5243
H20B H 0.6258 0.6461 0.4214
C25B C 0.6683(4) 0.5235(11) 0.5188(7)
O9B O 0.6789(4) 0.4328(8) 0.4663(5)
O10B O 0.6959(4) 0.5457(10) 0.5943(5)
H18B H 0.5647 0.5067 0.6272
C28B C -0.0426(4) 0.5552(9) 0.0566(6)
C26B C -0.0565(4) 0.5367(8) -0.0384(6)
C27B C -0.0131(4) 0.4803(9) -0.0935(6)
H21B H -0.0216 0.4660 -0.1567
C29B C -0.1177(4) 0.5719(9) -0.0773(7)
H23B H -0.1311 0.6521 -0.0478
H24B H -0.1147 0.5887 -0.1439
C30B C -0.1644(4) 0.4669(9) -0.0627(6)
O11B O -0.2151(2) 0.4757(6) -0.1036(4)
O12B O -0.1532(3) 0.3725(7) -0.0093(6)
H22B H -0.0713 0.5920 0.0953
O1C O 0.6304(3) 1.0107(9) 0.2819(5)
O2C O 0.6752(2) 1.1576(6) 0.3685(4)
O3C O 0.3068(3) 0.7436(6) 0.3567(4)
O4C O 0.2846(3) 0.9346(6) 0.4152(5)
C1C C 0.5166(5) 1.0524(13) 0.3752(7)
C2C C 0.5040(5) 0.9237(12) 0.3590(8)
H1C H 0.5336 0.8608 0.3707
C3C C 0.4472(4) 0.8859(10) 0.3251(7)
H2C H 0.4393 0.7977 0.3144
C4C C 0.4027(4) 0.9764(9) 0.3071(6)
C5C C 0.4158(4) 1.1065(10) 0.3236(8)
H3C H 0.3861 1.1695 0.3131
C6C C 0.4721(5) 1.1441(12) 0.3554(9)
H4C H 0.4806 1.2326 0.3637
C7C C 0.5768(5) 1.0956(16) 0.4140(8)
H5C H 0.5858 1.0441 0.4697
H6C H 0.5731 1.1860 0.4337
C8C C 0.6298(4) 1.0859(10) 0.3509(7)
C9C C 0.3403(4) 0.9344(10) 0.2742(6)
H7C H 0.3434 0.8757 0.2212
H8C H 0.3171 1.0104 0.2543
C10C C 0.3087(4) 0.8665(9) 0.3524(6)
O5C O -0.2140(3) 0.2675(6) 0.2992(4)
O6C O -0.1888(3) 0.4245(6) 0.3941(4)
O7C O 0.1433(3) 0.5199(9) 0.2944(5)
O8C O 0.1909(3) 0.6342(7) 0.3993(4)
C11C C -0.0813(4) 0.4674(9) 0.2947(6)
C12C C -0.0687(4) 0.5979(9) 0.3091(7)
H9C H -0.0967 0.6606 0.2896
C13C C -0.0153(4) 0.6373(10) 0.3519(7)
H10C H -0.0087 0.7261 0.3623
C14C C 0.0281(4) 0.5506(10) 0.3791(6)
C15C C 0.0157(4) 0.4177(9) 0.3651(7)
H11C H 0.0440 0.3553 0.3843
C16C C -0.0380(4) 0.3781(9) 0.3228(7)
H12C H -0.0451 0.2893 0.3132
C17C C -0.1396(4) 0.4200(12) 0.2492(7)
H13C H -0.1586 0.4919 0.2154
H14C H -0.1304 0.3521 0.2042
C18C C -0.1825(3) 0.3675(8) 0.3181(6)
C19C C 0.0864(4) 0.5936(12) 0.4270(7)
H15C H 0.0920 0.5431 0.4840
H16C H 0.0824 0.6847 0.4448
C20C C 0.1424(4) 0.5790(10) 0.3688(6)
La1C La 0.74180(2) 1.05662(5) 0.23499(3)
La2C La 0.750070(19) 1.25114(4) 0.47873(3)
O13C O 0.7517(4) 0.8154(8) 0.2551(6)
O3B O 0.3068(3) 0.7564(6) -0.1433(4)
O4B O 0.2846(3) 0.5654(6) -0.0848(5)
O8B O 0.1909(3) 0.8658(7) -0.1007(4)
O9A O 0.3211(4) 0.9328(8) 0.0337(5)
La1C_2 La 0.74180(2) 0.05662(5) 0.23499(3)
La2B La 0.750070(19) 0.24886(4) -0.02127(3)
La1C_3 La -0.25820(2) 1.05662(5) 0.23499(3)
La2B_2 La -0.249930(19) 1.24886(4) -0.02127(3)
La2A La 0.249930(19) 0.74886(4) 0.52127(3)
La2C_2 La 0.750070(19) 0.25114(4) 0.47873(3)
La1B La 0.74180(2) 0.44338(5) 0.73499(3)
La1B_2 La -0.25820(2) 0.44338(5) -0.26501(3)
La2B_3 La -0.249930(19) 0.24886(4) -0.02127(3)
La1C_4 La -0.25820(2) 0.05662(5) 0.23499(3)
La2C_3 La -0.249930(19) 0.25114(4) 0.47873(3)
O3_2 O 0.6932(3) 1.2436(6) 0.1433(4)
O5C_2 O 0.7860(3) 1.2675(6) 0.2992(4)
O7_2 O 0.8567(3) 1.0199(9) 0.2056(5)
O8_2 O 0.8091(3) 1.1342(7) 0.1007(4)
O10C O 0.6959(4) 0.9543(10) 0.0943(5)
O11C O 0.7849(2) 1.0243(6) 0.3964(4)
O3A O 0.6932(3) 1.2564(6) 0.6433(4)
O4A O 0.7154(3) 1.0654(6) 0.5848(5)
O6C_2 O 0.8112(3) 1.4245(6) 0.3941(4)
O8A O 0.8091(3) 1.3658(7) 0.6007(4)
O9B_2 O 0.6789(4) 1.4328(8) 0.4663(5)
O12C O 0.8468(3) 1.1275(7) 0.4907(6)
O14 O 0.2449(6) 1.3141(9) -0.0904(7)
O15 O 0.2235(5) 1.1839(8) 0.0847(7)
loop_
_geom_bond_atom_site_label_1
_geom_bond_atom_site_label_2
_geom_bond_site_symmetry_1
_geom_bond_site_symmetry_2
La1 O1 1_555 1_555
La2 O2 1_555 1_555
O1 C8 1_555 1_555
O2 La1 1_555 1_555
O3 C10 1_555 1_555
O4 C10 1_555 1_555
O5 La1 1_555 1_555
O6 La2 1_555 1_555
O7 C20 1_555 1_555
O8 C20 1_555 1_555
O9 C25 1_555 1_555
O10 La1 1_555 1_555
O11 La1 1_555 1_555
O12 La2 1_555 1_555
C1 C2 1_555 1_555
C2 H1 1_555 1_555
C3 C2 1_555 1_555
H2 C3 1_555 1_555
C4 C3 1_555 1_555
C5 C4 1_555 1_555
H3 C5 1_555 1_555
C6 C1 1_555 1_555
H4 C6 1_555 1_555
C7 C1 1_555 1_555
H5 C7 1_555 1_555
H6 C7 1_555 1_555
C8 O2 1_555 1_555
C9 C4 1_555 1_555
H7 C9 1_555 1_555
H8 C9 1_555 1_555
C10 C9 1_555 1_555
C11 C12 1_555 1_555
C12 H9 1_555 1_555
C13 C12 1_555 1_555
H10 C13 1_555 1_555
C14 C13 1_555 1_555
C15 C14 1_555 1_555
H11 C15 1_555 1_555
C16 C11 1_555 1_555
H12 C16 1_555 1_555
C17 C11 1_555 1_555
H13 C17 1_555 1_555
H14 C17 1_555 1_555
C18 O5 1_555 1_555
C19 C14 1_555 1_555
H15 C19 1_555 1_555
H16 C19 1_555 1_555
C20 C19 1_555 1_555
C21 C22 1_555 1_555
C22 H17 1_555 1_555
C23 C21 1_555 1_555
H18 C23 1_555 1_555
C24 C21 1_555 1_555
H19 C24 1_555 1_555
H20 C24 1_555 1_555
C25 O10 1_555 1_555
C26 C27 1_555 1_555
C27 H21 1_555 1_555
C28 C26 1_555 1_555
H22 C28 1_555 1_555
C29 C26 1_555 1_555
H23 C29 1_555 1_555
H24 C29 1_555 1_555
C30 O11 1_555 1_555
O13 La1 1_555 1_555
C23B C22 1_555 1_555
C21B C23B 1_555 1_555
C22B C23 1_555 1_555
H17B C22B 1_555 1_555
C24B C21B 1_555 1_555
H19B C24B 1_555 1_555
H20B C24B 1_555 1_555
C25B C24B 1_555 1_555
O9B C25B 1_555 1_555
O10B C25B 1_555 1_555
H18B C23B 1_555 1_555
C28B C27 1_555 1_555
C26B C28B 1_555 1_555
C27B C28 1_555 1_555
H21B C27B 1_555 1_555
C29B C26B 1_555 1_555
H23B C29B 1_555 1_555
H24B C29B 1_555 1_555
C30B C29B 1_555 1_555
O11B C30B 1_555 1_555
O12B C30B 1_555 1_555
H22B C28B 1_555 1_555
O1C C8C 1_555 1_555
O2C C8C 1_555 1_555
O3C La1 1_555 1_555
O4C C10C 1_555 1_555
C1C C2C 1_555 1_555
C2C H1C 1_555 1_555
C3C C2C 1_555 1_555
H2C C3C 1_555 1_555
C4C C3C 1_555 1_555
C5C C4C 1_555 1_555
H3C C5C 1_555 1_555
C6C C1C 1_555 1_555
H4C C6C 1_555 1_555
C7C C1C 1_555 1_555
H5C C7C 1_555 1_555
H6C C7C 1_555 1_555
C8C C7C 1_555 1_555
C9C C4C 1_555 1_555
H7C C9C 1_555 1_555
H8C C9C 1_555 1_555
C10C O3C 1_555 1_555
O5C C18C 1_555 1_555
O6C C18C 1_555 1_555
O7C La1 1_555 1_555
O8C La1 1_555 1_555
C11C C12C 1_555 1_555
C12C H9C 1_555 1_555
C13C C12C 1_555 1_555
H10C C13C 1_555 1_555
C14C C13C 1_555 1_555
C15C C14C 1_555 1_555
H11C C15C 1_555 1_555
C16C C11C 1_555 1_555
H12C C16C 1_555 1_555
C17C C11C 1_555 1_555
H13C C17C 1_555 1_555
H14C C17C 1_555 1_555
C18C C17C 1_555 1_555
C19C C14C 1_555 1_555
H15C C19C 1_555 1_555
H16C C19C 1_555 1_555
C20C O7C 1_555 1_555
La1C O1C 1_555 1_555
La2C O2C 1_555 1_555
O13C La1C 1_555 1_555
O3B La2 1_555 1_555
O4B La2 1_555 1_555
O8B La2 1_555 1_555
O9A La2 1_555 1_555
La1C_2 O3 1_555 1_555
La2B O3 1_555 1_555
La1C_3 O7 1_555 1_555
La2B_2 O8 1_555 1_555
La2A O9 1_555 1_555
La2C_2 O9B 1_555 1_555
La1B O10B 1_555 1_555
La1B_2 O11B 1_555 1_555
La2B_3 O11B 1_555 1_555
La1C_4 O5C 1_555 1_555
La2C_3 O5C 1_555 1_555
O3_2 La1C 1_555 1_555
O5C_2 La1C 1_555 1_555
O7_2 La1C 1_555 1_555
O8_2 La1C 1_555 1_555
O10C La1C 1_555 1_555
O11C La1C 1_555 1_555
O3A La2C 1_555 1_555
O4A La2C 1_555 1_555
O6C_2 La2C 1_555 1_555
O8A La2C 1_555 1_555
O9B_2 La2C 1_555 1_555
O12C La2C 1_555 1_555
La2 O5 1_555 1_555
La2 O11 1_555 1_555
O4 La2B 1_555 1_555
O6 C18 1_555 1_555
O8 La1C_3 1_555 1_555
O12 C30 1_555 1_555
C5 C6 1_555 1_555
C7 C8 1_555 1_555
C15 C16 1_555 1_555
C17 C18 1_555 1_555
C24 C25 1_555 1_555
C29 C30 1_555 1_555
C21B C22B 1_555 1_555
C26B C27B 1_555 1_555
O12B La2B_3 1_555 1_555
O2C La1C 1_555 1_555
O3C La2A 1_555 1_555
O4C La2A 1_555 1_555
C5C C6C 1_555 1_555
C9C C10C 1_555 1_555
O6C La2C_3 1_555 1_555
O8C C20C 1_555 1_555
O8C La2A 1_555 1_555
C15C C16C 1_555 1_555
C19C C20C 1_555 1_555
La2C O5C_2 1_555 1_555
La2C O11C 1_555 1_555

#END
