
#######################################################################
#
#                 Cambridge Crystallographic Data Centre
#                                CCDC 
#
#######################################################################
#
# If this CIF has been generated from an entry in the Cambridge 
# Structural Database, then it will include bibliographic, chemical, 
# crystal, experimental, refinement or atomic coordinate data resulting 
# from the CCDC's data processing and validation procedures.
#
#######################################################################

data_TUTZOY
_symmetry_cell_setting           trigonal
_symmetry_space_group_name_H-M   'P 32 2 1'
_symmetry_Int_Tables_number      154
_space_group_name_Hall           'P 32 2"'
loop_
_symmetry_equiv_pos_site_id
_symmetry_equiv_pos_as_xyz
1 x,y,z
2 -y,x-y,2/3+z
3 -x+y,-x,1/3+z
4 y,x,-z
5 x-y,-y,1/3-z
6 -x,-x+y,2/3-z
_cell_length_a                   18.2994(3)
_cell_length_b                   18.2994(3)
_cell_length_c                   13.4631(5)
_cell_angle_alpha                90
_cell_angle_beta                 90
_cell_angle_gamma                120
_cell_volume                     3904.36
loop_
_atom_site_label
_atom_site_type_symbol
_atom_site_fract_x
_atom_site_fract_y
_atom_site_fract_z
Ga1 Ga 0.71714(3) 0.78770(3) 0.24104(3)
Ga2 Ga 0.76728(4) 0.76728(4) 0.0000
Ga3 Ga 0.69645(3) 0.54544(3) -0.08912(3)
Ga4 Ga 0.65607(3) 0.58168(3) 0.17932(3)
Ga5 Ga 0.47253(4) 0.47253(4) 0.0000
Ga6 Ga 0.58784(3) 0.37989(3) 0.08161(4)
S1 S 0.81725(8) 0.85762(7) 0.12671(8)
S2 S 0.59329(8) 0.78362(8) 0.21715(9)
S3 S 0.70745(8) 0.66977(7) 0.30623(8)
S4 S 0.74863(7) 0.63624(7) 0.04567(7)
S5 S 0.68274(9) 0.42132(8) -0.04388(9)
S6 S 0.56458(7) 0.52569(7) -0.13366(8)
S7 S 0.64187(9) 0.45723(8) 0.21969(8)
S8 S 0.45600(8) 0.34613(8) 0.03872(9)
N1 N 0.7592(3) 0.8640(3) 0.3613(3)
C1 C 0.8092(5) 0.9486(5) 0.3526(6)
C2 C 0.8286(5) 1.0001(5) 0.4332(6)
C3 C 0.7980(5) 0.9692(5) 0.5264(6)
C4 C 0.7409(4) 0.8822(4) 0.5335(4)
C5 C 0.7227(4) 0.8344(4) 0.4493(5)
C6 C 0.8179(5) 1.0246(5) 0.6161(6)
N2 N 0.5797(3) 0.2700(3) 0.1188(3)
C7 C 0.5078(4) 0.2110(4) 0.1804(5)
C8 C 0.5080(5) 0.1290(5) 0.2009(5)
H1 H 0.8320 0.9739 0.2859
H2 H 0.8664 1.0623 0.4244
H3 H 0.7143 0.8560 0.5984
H4 H 0.6791 0.7732 0.4538
H5 H 0.8800 1.0655 0.6170
H6 H 0.7866 1.0563 0.6107
H7 H 0.5106 0.2391 0.2452
H8 H 0.4544 0.1974 0.1452
H9 H 0.4582 0.0911 0.2430
H10 H 0.5611 0.1418 0.2366
H11 H 0.5049 0.1001 0.1366
H20 H 0.6323 0.2834 0.1558
H21 H 0.5770 0.2400 0.0557
Ga1C Ga 0.78770(3) 0.71714(3) -0.24104(3)
Ga1D Ga 0.92944(4) 1.21230(3) 1.09229(3)
Ga3C Ga 0.54544(3) 0.69645(3) 0.08912(3)
Ga4C Ga 0.58168(3) 0.65607(3) -0.17932(3)
Ga6C Ga 0.37989(3) 0.58784(3) -0.08161(4)
S1C S 0.85762(7) 0.81725(8) -0.12671(8)
S2C S 0.78362(8) 0.59329(8) -0.21715(9)
S3C S 0.66977(7) 0.70745(8) -0.30623(8)
S4C S 0.63624(7) 0.74863(7) -0.04567(7)
S5C S 0.42132(8) 0.68274(9) 0.04388(9)
S6C S 0.52569(7) 0.56458(7) 0.13366(8)
S7C S 0.45723(8) 0.64187(9) -0.21969(8)
S8C S 0.34613(8) 0.45600(8) -0.03872(9)
N1D N 0.8952(4) 1.1360(3) 0.9720(3)
N1C N 0.8640(3) 0.7592(3) -0.3613(3)
C1D C 0.8606(7) 1.0514(5) 0.9807(6)
C2D C 0.8285(7) 0.9999(5) 0.9001(6)
C3D C 0.8288(7) 1.0308(5) 0.8069(6)
C4D C 0.8587(6) 1.1178(4) 0.7998(4)
C5D C 0.8883(6) 1.1656(4) 0.8840(5)
C6D C 0.7933(7) 0.9754(5) 0.7172(6)
N2C N 0.2700(3) 0.5797(3) -0.1188(3)
C7C C 0.2110(4) 0.5078(4) -0.1804(5)
C8C C 0.1290(5) 0.5080(5) -0.2009(5)
H1D H 0.8581 1.0261 1.0474
H2D H 0.8041 0.9377 0.9089
H3D H 0.8583 1.1440 0.7349
H4D H 0.9059 1.2268 0.8795
H5D H 0.8145 0.9345 0.7163
H6D H 0.7303 0.9437 0.7226
H7C H 0.2391 0.5106 -0.2452
H8C H 0.1974 0.4544 -0.1452
H9C H 0.0911 0.4582 -0.2430
H10C H 0.1418 0.5611 -0.2366
H11C H 0.1001 0.5049 -0.1366
H20C H 0.2834 0.6323 -0.1558
H21C H 0.2400 0.5770 -0.0557
C9 C 0.9627(7) 0.6040(7) 0.9979(8)
C10 C 0.9245(5) 0.6040(5) 1.0957(6)
N3 N 0.8474(4) 0.5190(3) 1.1188(4)
H12 H 1.0130 0.6608 0.9856
H13 H 0.9804 0.5604 0.9982
H14 H 0.9202 0.5907 0.9439
H15 H 0.9676 0.6177 1.1487
H16 H 0.9074 0.6480 1.0945
H17 H 0.8385 0.5131 1.1923
H18 H 0.8564 0.4728 1.0935
H19 H 0.7967 0.5154 1.0861
loop_
_geom_bond_atom_site_label_1
_geom_bond_atom_site_label_2
_geom_bond_site_symmetry_1
_geom_bond_site_symmetry_2
Ga1 S1 1_555 1_555
Ga2 S1 1_555 1_555
Ga3 S4 1_555 1_555
Ga4 S3 1_555 1_555
Ga5 S6 1_555 1_555
Ga6 S5 1_555 1_555
S2 Ga1 1_555 1_555
S3 Ga1 1_555 1_555
S4 Ga2 1_555 1_555
S5 Ga3 1_555 1_555
S6 Ga3 1_555 1_555
S7 Ga4 1_555 1_555
S8 Ga5 1_555 1_555
N1 Ga1 1_555 1_555
C1 N1 1_555 1_555
C2 C1 1_555 1_555
C3 C2 1_555 1_555
C4 C3 1_555 1_555
C5 N1 1_555 1_555
C6 C3 1_555 1_555
N2 Ga6 1_555 1_555
C7 N2 1_555 1_555
C8 C7 1_555 1_555
C9 C10 1_555 1_555
C10 N3 1_555 1_555
N3 H17 1_555 1_555
H1 C1 1_555 1_555
H2 C2 1_555 1_555
H3 C4 1_555 1_555
H4 C5 1_555 1_555
H5 C6 1_555 1_555
H6 C6 1_555 1_555
H7 C7 1_555 1_555
H8 C7 1_555 1_555
H9 C8 1_555 1_555
H10 C8 1_555 1_555
H11 C8 1_555 1_555
H12 C9 1_555 1_555
H13 C9 1_555 1_555
H14 C9 1_555 1_555
H15 C10 1_555 1_555
H16 C10 1_555 1_555
H18 N3 1_555 1_555
H19 N3 1_555 1_555
H20 N2 1_555 1_555
H21 N2 1_555 1_555
Ga1C S1C 1_555 1_555
Ga1D N1D 1_555 1_555
Ga3C S2 1_555 1_555
Ga4C S6 1_555 1_555
Ga6C S5C 1_555 1_555
S1C Ga2 1_555 1_555
S2C Ga3 1_555 1_555
S3C Ga1C 1_555 1_555
S4C Ga2 1_555 1_555
S5C Ga3C 1_555 1_555
S6C Ga4 1_555 1_555
S7C Ga4C 1_555 1_555
S8C Ga5 1_555 1_555
N1D C1D 1_555 1_555
N1C Ga1C 1_555 1_555
C1D C2D 1_555 1_555
C2D C3D 1_555 1_555
C3D C4D 1_555 1_555
C4D C5D 1_555 1_555
C5D N1D 1_555 1_555
C6D C6 1_555 1_555
N2C Ga6C 1_555 1_555
C7C N2C 1_555 1_555
C8C C7C 1_555 1_555
H1D C1D 1_555 1_555
H2D C2D 1_555 1_555
H3D C4D 1_555 1_555
H4D C5D 1_555 1_555
H5D C6D 1_555 1_555
H6D C6D 1_555 1_555
H7C C7C 1_555 1_555
H8C C7C 1_555 1_555
H9C C8C 1_555 1_555
H10C C8C 1_555 1_555
H11C C8C 1_555 1_555
H20C N2C 1_555 1_555
H21C N2C 1_555 1_555
Ga4 S4 1_555 1_555
Ga5 S6C 1_555 1_555
Ga6 S7 1_555 1_555
Ga6 S8 1_555 1_555
C4 C5 1_555 1_555
Ga1C S2C 1_555 1_555
Ga3C S4C 1_555 1_555
Ga3C S6C 1_555 1_555
Ga4C S3C 1_555 1_555
Ga4C S4C 1_555 1_555
Ga6C S7C 1_555 1_555
Ga6C S8C 1_555 1_555
C3D C6D 1_555 1_555

#END
