
#######################################################################
#
#                 Cambridge Crystallographic Data Centre
#                                CCDC 
#
#######################################################################
#
# If this CIF has been generated from an entry in the Cambridge 
# Structural Database, then it will include bibliographic, chemical, 
# crystal, experimental, refinement or atomic coordinate data resulting 
# from the CCDC's data processing and validation procedures.
#
#######################################################################

data_TUTZUE
_symmetry_cell_setting           orthorhombic
_symmetry_space_group_name_H-M   'P b c m'
_symmetry_Int_Tables_number      57
_space_group_name_Hall           '-P 2c 2b'
loop_
_symmetry_equiv_pos_site_id
_symmetry_equiv_pos_as_xyz
1 x,y,z
2 x,1/2-y,-z
3 -x,1/2+y,1/2-z
4 -x,-y,1/2+z
5 -x,-y,-z
6 -x,1/2+y,z
7 x,1/2-y,1/2+z
8 x,y,1/2-z
_cell_length_a                   16.9354(8)
_cell_length_b                   18.6642(9)
_cell_length_c                   19.1575(11)
_cell_angle_alpha                90
_cell_angle_beta                 90
_cell_angle_gamma                90
_cell_volume                     6055.41
loop_
_atom_site_label
_atom_site_type_symbol
_atom_site_fract_x
_atom_site_fract_y
_atom_site_fract_z
C8 C 0.8163(15) 0.1719(10) 0.2500
C9 C 0.8912(15) 0.1404(10) 0.2500
N2 N 0.7485(12) 0.1467(11) 0.2168(7)
C10 C 0.750(2) 0.0838(11) 0.1770(9)
C11 C 0.823(2) 0.048(3) 0.1732(18)
C12 C 0.887(3) 0.0781(10) 0.2091(9)
H10 H 0.7026 0.0660 0.1513
H11 H 0.8295 0.0040 0.1443
H13 H 0.9390 0.1587 0.2751
H15 H 0.6977 0.1737 0.2216
N2G N 0.7485(12) 0.1467(11) 0.2832(7)
C10G C 0.750(2) 0.0838(11) 0.3230(9)
C11G C 0.823(2) 0.048(3) 0.3268(18)
C12G C 0.887(3) 0.0781(10) 0.2909(9)
H10G H 0.7026 0.0660 0.3487
H11G H 0.8295 0.0040 0.3557
H13G H 0.9390 0.1587 0.2249
H15G H 0.6977 0.1737 0.2784
Ga1 Ga 0.82472(9) 0.59381(9) -0.57030(10)
Ga2 Ga 0.84095(11) 0.59755(10) -0.7500
Ga3 Ga 0.65178(8) 0.63961(7) -0.84764(9)
Ga4 Ga 0.73406(8) 0.45154(6) -0.84851(9)
Ga5 Ga 0.48113(11) 0.67019(10) -0.7500
Ga6 Ga 0.54849(10) 0.49254(9) -0.7500
Ga7 Ga 0.63543(11) 0.32144(10) -0.7500
S1 S 0.91196(19) 0.62035(18) -0.6543(3)
S2 S 0.7219(2) 0.6687(2) -0.5572(2)
S3 S 0.7998(2) 0.4774(2) -0.5538(2)
S4 S 0.8088(2) 0.4772(2) -0.7500
S5 S 0.61971(17) 0.51906(14) -0.8497(2)
S6 S 0.7274(2) 0.6669(2) -0.7500
S7 S 0.54205(19) 0.70497(16) -0.8486(2)
S8 S 0.4373(3) 0.5561(2) -0.7500
S9 S 0.5166(3) 0.3763(2) -0.7500
S10 S 0.7057(2) 0.33530(16) -0.8482(2)
O1 O 0.3850(7) 0.7225(6) -0.7500
N1 N 0.8867(7) 0.6138(6) -0.4810(6)
C1 C 0.8753(10) 0.6759(7) -0.4427(7)
C2 C 0.9492(9) 0.5684(11) -0.4642(11)
C3 C 0.9919(9) 0.6503(9) -0.3748(8)
C4 C 0.9283(9) 0.6954(10) -0.3902(8)
C5 C 1.0024(13) 0.5861(10) -0.4110(9)
C6 C 1.0478(12) 0.6695(13) -0.3164(10)
C7 C 1.006(2) 0.646(2) -0.2500
H2 H 0.8285 0.7068 -0.4526
H3 H 0.9567 0.5229 -0.4910
H4 H 0.9204 0.7409 -0.3633
H5 H 1.0474 0.5537 -0.3993
H6 H 1.0599 0.7224 -0.3176
H7 H 1.0991 0.6426 -0.3222
H8 H 0.9538 0.6723 -0.2500
H9 H 1.0003 0.5957 -0.2500
Ga1G Ga 0.82472(9) 0.59381(9) -0.92970(10)
Ga1G_2 Ga 0.82472(9) 0.59381(9) 0.07030(10)
Ga3G Ga 0.65178(8) 0.63961(7) -0.65236(9)
Ga4G Ga 0.73406(8) 0.45154(6) -0.65149(9)
Ga7B Ga 0.36457(11) 0.82144(10) -0.7500
S1G S 0.91196(19) 0.62035(18) -0.8457(3)
S2G S 0.7219(2) 0.6687(2) -0.9428(2)
S3G S 0.7998(2) 0.4774(2) -0.9462(2)
S5G S 0.61971(17) 0.51906(14) -0.6503(2)
S7G S 0.54205(19) 0.70497(16) -0.6514(2)
S10G S 0.7057(2) 0.33530(16) -0.6518(2)
O1B O 0.6150(7) 0.2225(6) -0.7500
N1G N 0.8867(7) 0.6138(6) -0.0190(6)
N1G_2 N 0.8867(7) 0.6138(6) -1.0190(6)
C1G C 0.8753(10) 0.6759(7) -0.0573(7)
C2G C 0.9492(9) 0.5684(11) -0.0358(11)
C3G C 0.9919(9) 0.6503(9) -0.1252(8)
C4G C 0.9283(9) 0.6954(10) -0.1098(8)
C5G C 1.0024(13) 0.5861(10) -0.0890(9)
C6G C 1.0478(12) 0.6695(13) -0.1836(10)
H2G H 0.8285 0.7068 -0.0474
H3G H 0.9567 0.5229 -0.0090
H4G H 0.9204 0.7409 -0.1367
H5G H 1.0474 0.5537 -0.1007
H6G H 1.0599 0.7224 -0.1824
H7G H 1.0991 0.6426 -0.1778
H1? H 0.6530 0.1945 -0.7731
H12? H 0.9397 0.0649 0.1880
H14? H 0.8104 0.2169 0.2228
loop_
_geom_bond_atom_site_label_1
_geom_bond_atom_site_label_2
_geom_bond_site_symmetry_1
_geom_bond_site_symmetry_2
Ga1 S1 1_555 1_555
Ga2 S1 1_555 1_555
Ga3 S5 1_555 1_555
Ga4 S4 1_555 1_555
Ga5 S7 1_555 1_555
Ga6 S5 1_555 1_555
Ga7 S9 1_555 1_555
S2 Ga1 1_555 1_555
S3 Ga1 1_555 1_555
S4 Ga2 1_555 1_555
S5 Ga4 1_555 1_555
S6 Ga2 1_555 1_555
S7 Ga3 1_555 1_555
S8 Ga5 1_555 1_555
S9 Ga6 1_555 1_555
S10 Ga4 1_555 1_555
O1 Ga5 1_555 1_555
N1 Ga1 1_555 1_555
C1 N1 1_555 1_555
C2 N1 1_555 1_555
C3 C4 1_555 1_555
C4 C1 1_555 1_555
C5 C2 1_555 1_555
C6 C3 1_555 1_555
C7 C6 1_555 1_555
C8 C9 1_555 1_555
C9 C12 1_555 1_555
N2 C8 1_555 1_555
C10 N2 1_555 1_555
C11 C10 1_555 1_555
C12 C11 1_555 1_555
H2 C1 1_555 1_555
H3 C2 1_555 1_555
H4 C4 1_555 1_555
H5 C5 1_555 1_555
H6 C6 1_555 1_555
H7 C6 1_555 1_555
H8 C7 1_555 1_555
H9 C7 1_555 1_555
H10 C10 1_555 1_555
H11 C11 1_555 1_555
H13 C9 1_555 1_555
H15 N2 1_555 1_555
Ga1G S1G 1_555 1_555
Ga1G_2 N1G 1_555 1_555
Ga3G S2 1_555 1_555
Ga4G S3 1_555 1_555
Ga7B O1 1_555 1_555
S1G Ga2 1_555 1_555
S2G Ga3 1_555 1_555
S3G Ga4 1_555 1_555
S5G Ga6 1_555 1_555
S7G Ga5 1_555 1_555
S10G Ga7 1_555 1_555
O1B Ga7 1_555 1_555
N1G C1G 1_555 1_555
N1G_2 Ga1G 1_555 1_555
C1G C4G 1_555 1_555
C2G N1G 1_555 1_555
C3G C4G 1_555 1_555
C4G H4G 1_555 1_555
C5G C2G 1_555 1_555
C6G C7 1_555 1_555
N2G C8 1_555 1_555
C10G N2G 1_555 1_555
C11G C10G 1_555 1_555
C12G C9 1_555 1_555
H2G C1G 1_555 1_555
H3G C2G 1_555 1_555
H5G C5G 1_555 1_555
H6G C6G 1_555 1_555
H7G C6G 1_555 1_555
H10G C10G 1_555 1_555
H11G C11G 1_555 1_555
H13G C9 1_555 1_555
H15G N2G 1_555 1_555
Ga3 S6 1_555 1_555
Ga6 S8 1_555 1_555
Ga7 S10 1_555 1_555
S4 Ga4G 1_555 1_555
S6 Ga3G 1_555 1_555
C3 C5 1_555 1_555
N2 N2G 1_555 1_555
C12 C12G 1_555 1_555
Ga1G S2G 1_555 1_555
Ga1G S3G 1_555 1_555
Ga3G S5G 1_555 1_555
Ga3G S7G 1_555 1_555
Ga4G S5G 1_555 1_555
Ga4G S10G 1_555 1_555
C3G C5G 1_555 1_555
C3G C6G 1_555 1_555
C11G C12G 1_555 1_555

#END
