
#######################################################################
#
#                 Cambridge Crystallographic Data Centre
#                                CCDC 
#
#######################################################################
#
# If this CIF has been generated from an entry in the Cambridge 
# Structural Database, then it will include bibliographic, chemical, 
# crystal, experimental, refinement or atomic coordinate data resulting 
# from the CCDC's data processing and validation procedures.
#
#######################################################################

data_TUVGAS
_symmetry_cell_setting           triclinic
_symmetry_space_group_name_H-M   'P -1'
_symmetry_Int_Tables_number      2
_space_group_name_Hall           '-P 1'
loop_
_symmetry_equiv_pos_site_id
_symmetry_equiv_pos_as_xyz
1 x,y,z
2 -x,-y,-z
_cell_length_a                   15.767(3)
_cell_length_b                   17.806(4)
_cell_length_c                   19.406(4)
_cell_angle_alpha                74.59(3)
_cell_angle_beta                 81.61(3)
_cell_angle_gamma                76.64(3)
_cell_volume                     5089.39
loop_
_atom_site_label
_atom_site_type_symbol
_atom_site_fract_x
_atom_site_fract_y
_atom_site_fract_z
Gd1 Gd -0.22083(4) 0.93015(4) 0.26935(3)
Gd3 Gd -0.70092(4) 0.60697(4) 0.13304(3)
O3 O -0.1596(5) 0.8686(5) 0.3829(4)
O4 O -0.3279(5) 0.8552(5) 0.3503(4)
O6 O -0.2952(5) 1.0571(5) 0.2050(4)
O7 O -0.1358(5) 1.0278(4) 0.2683(4)
O8 O -0.8186(5) 0.6747(5) 0.0514(4)
O9 O -0.7380(5) 0.5558(5) 0.2656(4)
O10 O -0.6266(6) 0.4658(5) 0.1752(5)
O11 O -0.6090(5) 0.6375(5) 0.2066(4)
O12 O -0.6703(5) 0.7338(5) 0.0641(4)
N1 N -0.9668(7) 0.3375(6) 0.2352(6)
N2 N -0.8203(6) 0.5312(6) 0.1548(6)
N3 N -0.5462(7) 0.5911(6) 0.0756(5)
N4 N -0.3198(6) 0.4607(6) -0.0299(5)
N5 N 0.0078(7) 0.6752(7) 0.1179(6)
N6 N -0.1975(6) 0.7965(6) 0.2400(6)
N7 N -0.5551(7) 1.1224(6) 0.4683(6)
N8 N -0.3088(6) 1.0058(6) 0.3612(5)
N9 N -0.0292(7) 1.2203(6) 0.5647(6)
N10 N -0.2781(7) 1.3626(7) 0.6309(6)
N11 N -0.0541(6) 0.8678(5) 0.2571(5)
N12 N 0.2542(6) 1.0677(6) 0.4346(5)
N13 N 0.1941(6) 0.7139(6) 0.1818(6)
N14 N 0.4953(7) 0.9314(6) 0.3492(5)
N15 N 0.0824(7) 0.8551(7) 0.0182(6)
N16 N -0.2570(7) 0.6626(6) -0.1739(6)
N17 N -0.4702(7) 0.7808(7) -0.0577(7)
N18 N -0.1610(6) 0.9531(6) 0.1402(5)
N19 N -0.3493(6) 0.9148(6) 0.2040(5)
N20 N -0.5422(6) 0.7770(6) 0.1725(5)
C1 C -1.0227(7) 0.4340(7) 0.0515(6)
H1 H -1.0367 0.3900 0.0857
C2 C -0.9423(7) 0.5421(7) 0.0133(6)
H2 H -0.9031 0.5694 0.0223
C3 C -0.9642(7) 0.4778(7) 0.0659(6)
C4 C -0.9299(8) 0.4528(7) 0.1333(7)
C5 C -0.9514(8) 0.3881(8) 0.1883(7)
C6 C -0.8691(8) 0.4951(7) 0.1474(7)
C7 C -0.4714(8) 0.5776(7) 0.0609(6)
C8 C -0.3807(8) 0.5620(7) 0.0444(6)
C9 C -0.3459(7) 0.5070(7) 0.0042(6)
C10 C -0.2338(8) 0.5805(7) 0.0589(6)
H3 H -0.2092 0.5452 0.0303
C11 C -0.3256(7) 0.5975(7) 0.0739(6)
C12 C -0.3603(7) 0.6550(7) 0.1159(6)
H4 H -0.4206 0.6708 0.1244
C13 C -0.1802(8) 0.6140(7) 0.0847(6)
H5 H -0.1201 0.6009 0.0734
C14 C -0.2134(7) 0.6684(7) 0.1285(6)
C15 C -0.3060(7) 0.6866(7) 0.1433(6)
H6 H -0.3300 0.7213 0.1727
C16 C -0.1562(8) 0.7009(7) 0.1560(6)
C17 C -0.0657(8) 0.6870(7) 0.1351(6)
C18 C -0.1820(8) 0.7531(7) 0.2025(6)
C19 C -0.3458(8) 1.0460(7) 0.3963(7)
C20 C -0.4807(9) 1.1098(7) 0.4532(7)
C21 C -0.3888(8) 1.0975(7) 0.4414(6)
C22 C -0.3411(7) 1.1379(7) 0.4708(6)
C23 C -0.2478(8) 1.1203(7) 0.4648(7)
H7 H -0.2174 1.0823 0.4404
C24 C -0.3844(8) 1.1951(7) 0.5102(6)
H8 H -0.4452 1.2062 0.5168
C25 C -0.2030(8) 1.1586(7) 0.4943(6)
H9 H -0.1421 1.1470 0.4885
C26 C -0.3389(8) 1.2332(7) 0.5380(7)
H10 H -0.3695 1.2724 0.5609
C27 C -0.2457(7) 1.2160(7) 0.5337(6)
C28 C -0.1976(8) 1.2549(7) 0.5641(7)
C29 C -0.1041(8) 1.2355(7) 0.5630(7)
C30 C -0.2412(8) 1.3153(7) 0.6013(6)
C31 C 0.1545(7) 0.7619(7) 0.2100(6)
C32 C 0.0221(8) 0.8461(7) 0.2514(6)
C33 C 0.1146(7) 0.8224(7) 0.2456(6)
C34 C 0.1681(8) 0.8587(7) 0.2761(7)
C35 C 0.2617(8) 0.8370(7) 0.2672(6)
H11 H 0.2875 0.7991 0.2415
C36 C 0.1301(7) 0.9175(7) 0.3139(6)
H12 H 0.0696 0.9341 0.3187
C37 C 0.3141(7) 0.8704(7) 0.2955(6)
H13 H 0.3746 0.8544 0.2895
C38 C 0.1826(7) 0.9507(7) 0.3439(6)
H14 H 0.1566 0.9872 0.3710
C39 C 0.2764(8) 0.9297(7) 0.3341(7)
C40 C 0.3276(7) 0.9656(7) 0.3630(6)
C41 C 0.4208(9) 0.9468(8) 0.3542(7)
C42 C 0.2893(8) 1.0223(7) 0.4019(7)
C43 C -0.3964(9) 0.7690(8) -0.0715(7)
C44 C -0.2754(8) 0.7017(7) -0.1343(7)
C45 C -0.3051(8) 0.7543(7) -0.0876(6)
C46 C -0.2478(8) 0.7855(7) -0.0555(6)
C47 C -0.1563(8) 0.7700(7) -0.0710(6)
H15 H -0.1307 0.7362 -0.1009
C48 C -0.2834(7) 0.8378(7) -0.0119(6)
H16 H -0.3439 0.8504 -0.0025
C49 C -0.2328(8) 0.8711(7) 0.0174(7)
H17 H -0.2591 0.9060 0.0460
C50 C -0.1040(8) 0.8042(7) -0.0426(7)
H18 H -0.0439 0.7948 -0.0547
C51 C -0.1414(8) 0.8535(7) 0.0049(7)
C52 C -0.0876(8) 0.8846(7) 0.0387(7)
C53 C 0.0080(9) 0.8685(8) 0.0271(7)
C54 C -0.1269(8) 0.9248(7) 0.0943(7)
C55 C -0.4624(7) 0.8928(7) 0.1336(6)
C56 C -0.4028(8) 0.9029(7) 0.1748(7)
C57 C -0.5049(8) 0.8285(7) 0.1566(6)
C58 C -0.4815(7) 0.9463(7) 0.0665(6)
C59 C -0.4449(7) 1.0149(7) 0.0411(6)
H19 H -0.4066 1.0245 0.0685
C60 C -0.5361(8) 0.9337(7) 0.0212(7)
H20 H -0.5597 0.8881 0.0351
C2A C -1.0577(7) 0.4579(7) -0.0133(6)
H2A H -1.0969 0.4306 -0.0223
C3A C -1.0358(7) 0.5222(7) -0.0659(6)
C1A C -0.9773(7) 0.5660(7) -0.0515(6)
H1A H -0.9633 0.6100 -0.0857
C4A C -1.0701(8) 0.5472(7) -0.1333(7)
C5A C -1.0486(8) 0.6119(8) -0.1883(7)
N1A N -1.0332(7) 0.6625(6) -0.2352(6)
C6A C -1.1309(8) 0.5049(7) -0.1474(7)
N2A N -1.1797(6) 0.4688(6) -0.1548(6)
C60A C -0.4639(8) 1.0663(7) -0.0212(7)
C58A C -0.5185(7) 1.0537(7) -0.0665(6)
C55A C -0.5376(7) 1.1072(7) -0.1336(6)
C56A C -0.5972(8) 1.0971(7) -0.1748(7)
N19A N -0.6507(6) 1.0852(6) -0.2040(5)
C57A C -0.4951(8) 1.1715(7) -0.1566(6)
N20A N -0.4578(6) 1.2230(6) -0.1725(5)
C59A C -0.5551(7) 0.9851(7) -0.0411(6)
H19A H -0.5934 0.9755 -0.0685
H20A H -0.4403 1.1119 -0.0351
Gd1A Gd -0.77917(4) 1.06985(4) -0.26935(3)
Gd3A Gd -0.29908(4) 0.39303(4) -0.13304(3)
N3A N -0.4538(7) 0.4089(6) -0.0756(5)
N4A N -0.6802(6) 0.5393(6) 0.0299(5)
N5A N -1.0078(7) 0.3248(7) -0.1179(6)
N6A N -0.8025(6) 0.2035(6) -0.2400(6)
C7A C -0.5286(8) 0.4224(7) -0.0609(6)
C8A C -0.6193(8) 0.4380(7) -0.0444(6)
C9A C -0.6541(7) 0.4930(7) -0.0042(6)
C10A C -0.7662(8) 0.4195(7) -0.0589(6)
H3A H -0.7908 0.4548 -0.0303
C11A C -0.6744(7) 0.4025(7) -0.0739(6)
C12A C -0.6397(7) 0.3450(7) -0.1159(6)
H4A H -0.5794 0.3292 -0.1244
C13A C -0.8198(8) 0.3860(7) -0.0847(6)
H5A H -0.8799 0.3991 -0.0734
C14A C -0.7866(7) 0.3316(7) -0.1285(6)
C15A C -0.6940(7) 0.3134(7) -0.1433(6)
H6A H -0.6700 0.2787 -0.1727
C16A C -0.8438(8) 0.2991(7) -0.1560(6)
C17A C -0.9343(8) 0.3130(7) -0.1351(6)
C18A C -0.8180(8) 0.2469(7) -0.2025(6)
N11_2 N -1.0541(6) 0.8678(5) 0.2571(5)
N12_2 N -0.7458(6) 1.0677(6) 0.4346(5)
N13_2 N -0.8059(6) 0.7139(6) 0.1818(6)
N14_2 N -0.5047(7) 0.9314(6) 0.3492(5)
C31_2 C -0.8455(7) 0.7619(7) 0.2100(6)
C32_2 C -0.9779(8) 0.8461(7) 0.2514(6)
C33_2 C -0.8854(7) 0.8224(7) 0.2456(6)
C34_2 C -0.8319(8) 0.8587(7) 0.2761(7)
C35_2 C -0.7383(8) 0.8370(7) 0.2672(6)
H11_2 H -0.7125 0.7991 0.2415
C36_2 C -0.8699(7) 0.9175(7) 0.3139(6)
H12_2 H -0.9304 0.9341 0.3187
C37_2 C -0.6859(7) 0.8704(7) 0.2955(6)
H13_2 H -0.6254 0.8544 0.2895
C38_2 C -0.8174(7) 0.9507(7) 0.3439(6)
H14_2 H -0.8434 0.9872 0.3710
C39_2 C -0.7236(8) 0.9297(7) 0.3341(7)
C40_2 C -0.6724(7) 0.9656(7) 0.3630(6)
C41_2 C -0.5792(9) 0.9468(8) 0.3542(7)
C42_2 C -0.7107(8) 1.0223(7) 0.4019(7)
O3A O -0.8404(5) 1.1314(5) -0.3829(4)
O4A O -0.6721(5) 1.1448(5) -0.3503(4)
O6A O -0.7048(5) 0.9429(5) -0.2050(4)
O7A O -0.8642(5) 0.9722(4) -0.2683(4)
N7A N -0.4449(7) 0.8776(6) -0.4683(6)
N8A N -0.6912(6) 0.9942(6) -0.3612(5)
N9A N -0.9708(7) 0.7797(6) -0.5647(6)
N10A N -0.7219(7) 0.6374(7) -0.6309(6)
C19A C -0.6542(8) 0.9540(7) -0.3963(7)
C20A C -0.5193(9) 0.8902(7) -0.4532(7)
C21A C -0.6112(8) 0.9025(7) -0.4414(6)
C22A C -0.6589(7) 0.8621(7) -0.4708(6)
C23A C -0.7522(8) 0.8797(7) -0.4648(7)
H7A H -0.7826 0.9177 -0.4404
C24A C -0.6156(8) 0.8049(7) -0.5102(6)
H8A H -0.5548 0.7938 -0.5168
C25A C -0.7970(8) 0.8414(7) -0.4943(6)
H9A H -0.8579 0.8530 -0.4885
C26A C -0.6611(8) 0.7668(7) -0.5380(7)
H10A H -0.6305 0.7276 -0.5609
C27A C -0.7543(7) 0.7840(7) -0.5337(6)
C28A C -0.8024(8) 0.7451(7) -0.5641(7)
C29A C -0.8959(8) 0.7645(7) -0.5630(7)
C30A C -0.7588(8) 0.6847(7) -0.6013(6)
N15A N -1.0824(7) 1.1449(7) -0.0182(6)
N16A N -0.7430(7) 1.3374(6) 0.1739(6)
N17A N -0.5298(7) 1.2192(7) 0.0577(7)
N18A N -0.8390(6) 1.0469(6) -0.1402(5)
C43A C -0.6036(9) 1.2310(8) 0.0715(7)
C44A C -0.7246(8) 1.2983(7) 0.1343(7)
C45A C -0.6949(8) 1.2457(7) 0.0876(6)
C46A C -0.7522(8) 1.2145(7) 0.0555(6)
C47A C -0.8437(8) 1.2300(7) 0.0710(6)
H15A H -0.8693 1.2638 0.1009
C48A C -0.7166(7) 1.1622(7) 0.0119(6)
H16A H -0.6561 1.1496 0.0025
C49A C -0.7672(8) 1.1289(7) -0.0174(7)
H17A H -0.7409 1.0940 -0.0460
C50A C -0.8960(8) 1.1958(7) 0.0426(7)
H18A H -0.9561 1.2052 0.0547
C51A C -0.8586(8) 1.1465(7) -0.0049(7)
C52A C -0.9124(8) 1.1154(7) -0.0387(7)
C53A C -1.0080(9) 1.1315(8) -0.0271(7)
C54A C -0.8731(8) 1.0752(7) -0.0943(7)
O8A O -0.1814(5) 0.3253(5) -0.0514(4)
O9A O -0.2620(5) 0.4442(5) -0.2656(4)
O10A O -0.3734(6) 0.5342(5) -0.1752(5)
O11A O -0.3910(5) 0.3625(5) -0.2066(4)
O12A O -0.3297(5) 0.2662(5) -0.0641(4)
Gd3_2 Gd 0.29908(4) 0.60697(4) 0.13304(3)
Gd3A_2 Gd -1.29908(4) 0.39303(4) -0.13304(3)
N6A_2 N -0.8025(6) 1.2035(6) -0.2400(6)
N11A N -0.9459(6) 1.1322(5) -0.2571(5)
N2A_2 N -0.1797(6) 0.4688(6) -0.1548(6)
N13A N -0.1941(6) 0.2861(6) -0.1818(6)
Gd1A_2 Gd -0.77917(4) 0.06985(4) -0.26935(3)
Gd1_2 Gd -1.22083(4) 0.93015(4) 0.26935(3)
Gd2 Gd 0.20648(4) 0.33024(4) 0.42798(3)
O1 O 0.2614(5) 0.1873(5) 0.4935(4)
O2 O 0.3159(5) 0.4039(5) 0.3529(4)
O5 O 0.1613(5) 0.3832(5) 0.3073(4)
N21 N 0.4624(8) 0.2602(7) 0.6847(7)
N22 N 0.3352(7) 0.3159(6) 0.4932(6)
N23 N 0.5478(7) 0.1451(7) 0.2452(7)
N24 N 0.3023(6) 0.2509(6) 0.3472(5)
N25 N 0.0167(7) 0.0362(6) 0.1658(6)
N26 N 0.2576(6) -0.0987(6) 0.0730(6)
N27 N 0.1834(6) 0.4603(6) 0.4662(6)
N28 N -0.0459(6) 0.6030(6) 0.5663(5)
N29 N 0.4976(7) 0.6724(6) 0.6539(6)
N30 N 0.2496(6) 0.8170(6) 0.7260(6)
N31 N 0.2299(7) 0.6211(6) 0.8484(6)
N32 N 0.4621(7) 0.4816(6) 0.7465(6)
N33 N -0.0900(7) 0.4102(7) 0.6859(6)
N34 N 0.1447(6) 0.3072(6) 0.5563(6)
N35 N -0.0304(6) 0.1668(6) 0.2701(6)
N36 N 0.1136(6) 0.2365(6) 0.4117(5)
C61 C 0.3832(8) 0.3328(7) 0.5237(7)
C62 C 0.4534(8) 0.3041(8) 0.6290(7)
C63 C 0.4397(8) 0.3566(7) 0.5608(6)
C64 C 0.4698(8) 0.4281(7) 0.5296(7)
C65 C 0.5235(8) 0.4532(7) 0.5680(6)
H21 H 0.5389 0.4226 0.6129
C66 C 0.4472(8) 0.4771(7) 0.4612(7)
H22 H 0.4117 0.4614 0.4356
C67 C 0.3394(8) 0.2099(8) 0.3104(7)
C68 C 0.4751(8) 0.1510(7) 0.2547(7)
C69 C 0.3824(7) 0.1594(7) 0.2660(6)
C70 C 0.3339(7) 0.1235(7) 0.2338(6)
C71 C 0.2411(8) 0.1382(7) 0.2430(7)
H23 H 0.2118 0.1725 0.2715
C72 C 0.3741(8) 0.0707(7) 0.1896(6)
H24 H 0.4348 0.0603 0.1813
C73 C 0.1937(8) 0.1043(7) 0.2120(6)
H25 H 0.1330 0.1179 0.2179
C74 C 0.3276(8) 0.0346(7) 0.1588(7)
H26 H 0.3568 0.0007 0.1299
C75 C 0.2339(8) 0.0485(7) 0.1704(7)
C76 C 0.1861(8) 0.0113(7) 0.1392(6)
C77 C 0.0926(9) 0.0255(7) 0.1533(7)
C78 C 0.2249(8) -0.0493(8) 0.1010(7)
C79 C 0.1559(8) 0.5081(7) 0.4988(6)
C80 C 0.0293(8) 0.5850(7) 0.5522(6)
C81 C 0.1207(7) 0.5650(7) 0.5392(6)
C82 C 0.1737(8) 0.6017(7) 0.5699(6)
C83 C 0.2677(7) 0.5819(7) 0.5608(6)
H27 H 0.2948 0.5450 0.5342
C84 C 0.1368(7) 0.6567(7) 0.6121(6)
H28 H 0.0763 0.6699 0.6205
C85 C 0.3183(8) 0.6163(7) 0.5906(6)
H29 H 0.3790 0.6020 0.5842
C86 C 0.1875(8) 0.6913(7) 0.6410(6)
H30 H 0.1603 0.7278 0.6680
C87 C 0.2789(8) 0.6735(7) 0.6312(6)
C88 C 0.3290(8) 0.7110(7) 0.6614(7)
C89 C 0.4224(8) 0.6899(7) 0.6574(7)
C90 C 0.2868(8) 0.7715(7) 0.6981(6)
C91 C 0.2609(8) 0.5738(7) 0.8166(7)
C92 C 0.2976(8) 0.5151(7) 0.7777(7)
C93 C 0.3886(9) 0.4982(7) 0.7605(7)
C94 C 0.2422(8) 0.4805(7) 0.7484(7)
C95 C 0.1500(8) 0.4977(7) 0.7619(7)
H31 H 0.1248 0.5332 0.7903
C96 C 0.2791(8) 0.4243(7) 0.7057(7)
H32 H 0.3395 0.4094 0.6972
C97 C 0.0963(8) 0.4641(7) 0.7349(7)
H33 H 0.0360 0.4765 0.7454
C98 C 0.2253(7) 0.3935(7) 0.6780(6)
H34 H 0.2503 0.3590 0.6487
C99 C 0.1333(8) 0.4103(7) 0.6908(6)
C100 C 0.0785(8) 0.3792(7) 0.6561(6)
C101 C -0.0139(9) 0.3950(8) 0.6726(7)
C102 C 0.1145(7) 0.3377(7) 0.6025(6)
C103 C 0.0765(8) 0.1905(7) 0.4046(6)
C104 C 0.0295(7) 0.1369(7) 0.3930(6)
C105 C -0.0033(8) 0.1555(7) 0.3242(7)
C106 C 0.0481(7) 0.0481(7) 0.5150(6)
H35 H 0.0812 0.0801 0.5252
C107 C 0.0167(7) 0.0695(7) 0.4457(6)
C108 C -0.0323(8) 0.0158(7) 0.4336(6)
H36 H -0.0535 0.0256 0.3891
C66A C 0.5528(8) 0.5229(7) 0.5388(7)
C64A C 0.5302(8) 0.5719(7) 0.4704(7)
C63A C 0.5603(8) 0.6434(7) 0.4392(6)
C61A C 0.6168(8) 0.6672(7) 0.4763(7)
N22A N 0.6648(7) 0.6841(6) 0.5068(6)
C62A C 0.5466(8) 0.6959(8) 0.3710(7)
N21A N 0.5376(8) 0.7398(7) 0.3153(7)
C65A C 0.4765(8) 0.5468(7) 0.4320(6)
H21A H 0.4611 0.5774 0.3871
H22A H 0.5883 0.5386 0.5644
C108A C 0.0323(8) -0.0158(7) 0.5664(6)
C107A C -0.0167(7) -0.0695(7) 0.5543(6)
C104A C -0.0295(7) -0.1369(7) 0.6070(6)
C103A C -0.0765(8) -0.1905(7) 0.5954(6)
N36A N -0.1136(6) -0.2365(6) 0.5883(5)
C105A C 0.0033(8) -0.1555(7) 0.6758(7)
N35A N 0.0304(6) -0.1668(6) 0.7299(6)
C106A C -0.0481(7) -0.0481(7) 0.4850(6)
H35A H -0.0812 -0.0801 0.4748
H36A H 0.0535 -0.0256 0.6109
N27A N -0.1834(6) 0.5397(6) 0.5338(6)
N28A N 0.0459(6) 0.3970(6) 0.4337(5)
N29A N -0.4976(7) 0.3276(6) 0.3461(6)
N30A N -0.2496(6) 0.1830(6) 0.2740(6)
C79A C -0.1559(8) 0.4919(7) 0.5012(6)
C80A C -0.0293(8) 0.4150(7) 0.4478(6)
C81A C -0.1207(7) 0.4350(7) 0.4608(6)
C82A C -0.1737(8) 0.3983(7) 0.4301(6)
C83A C -0.2677(7) 0.4181(7) 0.4392(6)
H27A H -0.2948 0.4550 0.4658
C84A C -0.1368(7) 0.3433(7) 0.3879(6)
H28A H -0.0763 0.3301 0.3795
C85A C -0.3183(8) 0.3837(7) 0.4094(6)
H29A H -0.3790 0.3980 0.4158
C86A C -0.1875(8) 0.3087(7) 0.3590(6)
H30A H -0.1603 0.2722 0.3320
C87A C -0.2789(8) 0.3265(7) 0.3688(6)
C88A C -0.3290(8) 0.2890(7) 0.3386(7)
C89A C -0.4224(8) 0.3101(7) 0.3426(7)
C90A C -0.2868(8) 0.2285(7) 0.3019(6)
Gd2A Gd 0.79352(4) 0.66976(4) 0.57202(3)
O1A O 0.7386(5) 0.8127(5) 0.5065(4)
O2A O 0.6841(5) 0.5961(5) 0.6471(4)
O5A O 0.8387(5) 0.6168(5) 0.6927(4)
N23A N 0.4522(7) 0.8549(7) 0.7548(7)
N24A N 0.6977(6) 0.7491(6) 0.6528(5)
N25A N 0.9833(7) 0.9638(6) 0.8342(6)
N26A N 0.7424(6) 1.0987(6) 0.9270(6)
C67A C 0.6606(8) 0.7901(8) 0.6896(7)
C68A C 0.5249(8) 0.8490(7) 0.7453(7)
C69A C 0.6176(7) 0.8406(7) 0.7340(6)
C70A C 0.6661(7) 0.8765(7) 0.7662(6)
C71A C 0.7589(8) 0.8618(7) 0.7570(7)
H23A H 0.7882 0.8275 0.7285
C72A C 0.6259(8) 0.9293(7) 0.8104(6)
H24A H 0.5652 0.9397 0.8187
C73A C 0.8063(8) 0.8957(7) 0.7880(6)
H25A H 0.8670 0.8821 0.7821
C74A C 0.6724(8) 0.9654(7) 0.8412(7)
H26A H 0.6432 0.9993 0.8701
C75A C 0.7661(8) 0.9515(7) 0.8296(7)
C76A C 0.8139(8) 0.9887(7) 0.8608(6)
C77A C 0.9074(9) 0.9745(7) 0.8467(7)
C78A C 0.7751(8) 1.0493(8) 0.8990(7)
N31A N 0.7701(7) 0.3789(6) 0.1516(6)
N32A N 0.5379(7) 0.5184(6) 0.2535(6)
N33A N 1.0900(7) 0.5898(7) 0.3141(6)
N34A N 0.8553(6) 0.6928(6) 0.4437(6)
C91A C 0.7391(8) 0.4262(7) 0.1834(7)
C92A C 0.7024(8) 0.4849(7) 0.2223(7)
C93A C 0.6114(9) 0.5018(7) 0.2395(7)
C94A C 0.7578(8) 0.5195(7) 0.2516(7)
C95A C 0.8500(8) 0.5023(7) 0.2381(7)
H31A H 0.8752 0.4668 0.2097
C96A C 0.7209(8) 0.5757(7) 0.2943(7)
H32A H 0.6605 0.5906 0.3028
C97A C 0.9037(8) 0.5359(7) 0.2651(7)
H33A H 0.9640 0.5235 0.2546
C98A C 0.7747(7) 0.6065(7) 0.3220(6)
H34A H 0.7497 0.6410 0.3513
C99A C 0.8667(8) 0.5897(7) 0.3092(6)
C100A C 0.9215(8) 0.6208(7) 0.3439(6)
C101A C 1.0139(9) 0.6050(8) 0.3274(7)
C102A C 0.8855(7) 0.6623(7) 0.3975(6)
Gd2A_2 Gd -0.20648(4) 0.66976(4) 0.57202(3)
Gd2A_3 Gd -0.20648(4) -0.33024(4) 0.57202(3)
N27A_2 N 0.8166(6) 0.5397(6) 0.5338(6)
N28_2 N 0.9541(6) 0.6030(6) 0.5663(5)
N36A_2 N 0.8864(6) 0.7635(6) 0.5883(5)
O13 O -0.2142(5) 0.1598(5) 0.0992(5)
O14 O 0.1028(6) 0.7610(5) 0.8686(5)
O15 O 0.3774(6) 0.7375(6) -0.0752(5)
O16 O 0.5362(6) 0.3776(6) 0.1527(6)
loop_
_geom_bond_atom_site_label_1
_geom_bond_atom_site_label_2
_geom_bond_site_symmetry_1
_geom_bond_site_symmetry_2
Gd1 O3 1_555 1_555
Gd2 O1 1_555 1_555
Gd3 O8 1_555 1_555
O2 Gd2 1_555 1_555
O4 Gd1 1_555 1_555
O5 Gd2 1_555 1_555
O6 Gd1 1_555 1_555
O7 Gd1 1_555 1_555
O9 Gd3 1_555 1_555
O10 Gd3 1_555 1_555
O11 Gd3 1_555 1_555
O12 Gd3 1_555 1_555
N1 C5 1_555 1_555
N2 Gd3 1_555 1_555
N3 Gd3 1_555 1_555
N4 C9 1_555 1_555
N5 C17 1_555 1_555
N6 Gd1 1_555 1_555
N7 C20 1_555 1_555
N8 Gd1 1_555 1_555
N9 C29 1_555 1_555
N10 C30 1_555 1_555
N11 Gd1 1_555 1_555
N12 C42 1_555 1_555
N13 C31 1_555 1_555
N14 C41 1_555 1_555
N15 C53 1_555 1_555
N16 C44 1_555 1_555
N17 C43 1_555 1_555
N18 Gd1 1_555 1_555
N19 Gd1 1_555 1_555
N20 C57 1_555 1_555
N21 C62 1_555 1_555
N22 Gd2 1_555 1_555
N23 C68 1_555 1_555
N24 Gd2 1_555 1_555
N25 C77 1_555 1_555
N26 C78 1_555 1_555
N27 Gd2 1_555 1_555
N28 C80 1_555 1_555
N29 C89 1_555 1_555
N30 C90 1_555 1_555
N31 C91 1_555 1_555
N32 C93 1_555 1_555
N33 C101 1_555 1_555
N34 Gd2 1_555 1_555
N35 C105 1_555 1_555
N36 Gd2 1_555 1_555
C1 H1 1_555 1_555
C2 H2 1_555 1_555
C3 C1 1_555 1_555
C4 C3 1_555 1_555
C5 C4 1_555 1_555
C6 N2 1_555 1_555
C7 N3 1_555 1_555
C8 C7 1_555 1_555
C9 C8 1_555 1_555
C10 H3 1_555 1_555
C11 C8 1_555 1_555
C12 C11 1_555 1_555
H4 C12 1_555 1_555
C13 C10 1_555 1_555
H5 C13 1_555 1_555
C14 C13 1_555 1_555
C15 C12 1_555 1_555
H6 C15 1_555 1_555
C16 C14 1_555 1_555
C17 C16 1_555 1_555
C18 N6 1_555 1_555
C19 N8 1_555 1_555
C20 C21 1_555 1_555
C21 C19 1_555 1_555
C22 C21 1_555 1_555
C23 C22 1_555 1_555
H7 C23 1_555 1_555
C24 C22 1_555 1_555
H8 C24 1_555 1_555
C25 C23 1_555 1_555
H9 C25 1_555 1_555
C26 C24 1_555 1_555
H10 C26 1_555 1_555
C27 C25 1_555 1_555
C28 C27 1_555 1_555
C29 C28 1_555 1_555
C30 C28 1_555 1_555
C31 C33 1_555 1_555
C32 N11 1_555 1_555
C33 C32 1_555 1_555
C34 C33 1_555 1_555
C35 C34 1_555 1_555
H11 C35 1_555 1_555
C36 C34 1_555 1_555
H12 C36 1_555 1_555
C37 C35 1_555 1_555
H13 C37 1_555 1_555
C38 C36 1_555 1_555
H14 C38 1_555 1_555
C39 C37 1_555 1_555
C40 C39 1_555 1_555
C41 C40 1_555 1_555
C42 C40 1_555 1_555
C43 C45 1_555 1_555
C44 C45 1_555 1_555
C45 C46 1_555 1_555
C46 C47 1_555 1_555
C47 H15 1_555 1_555
C48 C46 1_555 1_555
H16 C48 1_555 1_555
C49 C48 1_555 1_555
H17 C49 1_555 1_555
C50 C47 1_555 1_555
H18 C50 1_555 1_555
C51 C49 1_555 1_555
C52 C51 1_555 1_555
C53 C52 1_555 1_555
C54 N18 1_555 1_555
C55 C56 1_555 1_555
C56 N19 1_555 1_555
C57 C55 1_555 1_555
C58 C55 1_555 1_555
C59 C58 1_555 1_555
H19 C59 1_555 1_555
C60 C58 1_555 1_555
H20 C60 1_555 1_555
C61 N22 1_555 1_555
C62 C63 1_555 1_555
C63 C61 1_555 1_555
C64 C63 1_555 1_555
C65 C64 1_555 1_555
H21 C65 1_555 1_555
C66 C64 1_555 1_555
H22 C66 1_555 1_555
C67 N24 1_555 1_555
C68 C69 1_555 1_555
C69 C67 1_555 1_555
C70 C69 1_555 1_555
C71 C70 1_555 1_555
H23 C71 1_555 1_555
C72 C70 1_555 1_555
H24 C72 1_555 1_555
C73 C71 1_555 1_555
H25 C73 1_555 1_555
C74 C72 1_555 1_555
H26 C74 1_555 1_555
C75 C73 1_555 1_555
C76 C75 1_555 1_555
C77 C76 1_555 1_555
C78 C76 1_555 1_555
C79 N27 1_555 1_555
C80 C81 1_555 1_555
C81 C79 1_555 1_555
C82 C81 1_555 1_555
C83 C82 1_555 1_555
H27 C83 1_555 1_555
C84 C82 1_555 1_555
H28 C84 1_555 1_555
C85 C83 1_555 1_555
H29 C85 1_555 1_555
C86 C84 1_555 1_555
H30 C86 1_555 1_555
C87 C85 1_555 1_555
C88 C87 1_555 1_555
C89 C88 1_555 1_555
C90 C88 1_555 1_555
C91 C92 1_555 1_555
C92 C93 1_555 1_555
C94 C92 1_555 1_555
C95 C94 1_555 1_555
H31 C95 1_555 1_555
C96 C94 1_555 1_555
H32 C96 1_555 1_555
C97 C95 1_555 1_555
H33 C97 1_555 1_555
C98 C96 1_555 1_555
H34 C98 1_555 1_555
C99 C97 1_555 1_555
C100 C99 1_555 1_555
C101 C100 1_555 1_555
C102 N34 1_555 1_555
C103 N36 1_555 1_555
C104 C103 1_555 1_555
C105 C104 1_555 1_555
C106 H35 1_555 1_555
C107 C104 1_555 1_555
C108 C107 1_555 1_555
H36 C108 1_555 1_555
C2A C1 1_555 1_555
H2A C2A 1_555 1_555
C3A C2A 1_555 1_555
C1A C2 1_555 1_555
H1A C1A 1_555 1_555
C4A C3A 1_555 1_555
C5A C4A 1_555 1_555
N1A C5A 1_555 1_555
C6A C4A 1_555 1_555
N2A C6A 1_555 1_555
C60A C59 1_555 1_555
C58A C60A 1_555 1_555
C55A C58A 1_555 1_555
C56A C55A 1_555 1_555
N19A C56A 1_555 1_555
C57A C55A 1_555 1_555
N20A C57A 1_555 1_555
C59A C60 1_555 1_555
H19A C59A 1_555 1_555
H20A C60A 1_555 1_555
C66A C65 1_555 1_555
C64A C66A 1_555 1_555
C63A C64A 1_555 1_555
C61A C63A 1_555 1_555
N22A C61A 1_555 1_555
C62A C63A 1_555 1_555
N21A C62A 1_555 1_555
C65A C66 1_555 1_555
H21A C65A 1_555 1_555
H22A C66A 1_555 1_555
C108A C106 1_555 1_555
C107A C108A 1_555 1_555
C104A C107A 1_555 1_555
C103A C104A 1_555 1_555
N36A C103A 1_555 1_555
C105A C104A 1_555 1_555
N35A C105A 1_555 1_555
C106A C108 1_555 1_555
H35A C106A 1_555 1_555
H36A C108A 1_555 1_555
Gd1A N19A 1_555 1_555
Gd3A N4 1_555 1_555
N3A Gd3A 1_555 1_555
N4A Gd3 1_555 1_555
N5A C17A 1_555 1_555
N6A C18A 1_555 1_555
C7A N3A 1_555 1_555
C8A C7A 1_555 1_555
C9A N4A 1_555 1_555
C10A H3A 1_555 1_555
C11A C8A 1_555 1_555
C12A C11A 1_555 1_555
H4A C12A 1_555 1_555
C13A C10A 1_555 1_555
H5A C13A 1_555 1_555
C14A C13A 1_555 1_555
C15A C12A 1_555 1_555
H6A C15A 1_555 1_555
C16A C14A 1_555 1_555
C17A C16A 1_555 1_555
C18A C16A 1_555 1_555
N11_2 C32_2 1_555 1_555
N12_2 C42_2 1_555 1_555
N13_2 Gd3 1_555 1_555
N14_2 C41_2 1_555 1_555
C31_2 N13_2 1_555 1_555
C32_2 C33_2 1_555 1_555
C33_2 C31_2 1_555 1_555
C34_2 C33_2 1_555 1_555
C35_2 C34_2 1_555 1_555
H11_2 C35_2 1_555 1_555
C36_2 C34_2 1_555 1_555
H12_2 C36_2 1_555 1_555
C37_2 C35_2 1_555 1_555
H13_2 C37_2 1_555 1_555
C38_2 C36_2 1_555 1_555
H14_2 C38_2 1_555 1_555
C39_2 C37_2 1_555 1_555
C40_2 C39_2 1_555 1_555
C41_2 C40_2 1_555 1_555
C42_2 C40_2 1_555 1_555
O3A Gd1A 1_555 1_555
O4A Gd1A 1_555 1_555
O6A Gd1A 1_555 1_555
O7A Gd1A 1_555 1_555
N7A C20A 1_555 1_555
N8A Gd1A 1_555 1_555
N9A C29A 1_555 1_555
N10A C30A 1_555 1_555
C19A N8A 1_555 1_555
C20A C21A 1_555 1_555
C21A C19A 1_555 1_555
C22A C21A 1_555 1_555
C23A C22A 1_555 1_555
H7A C23A 1_555 1_555
C24A C22A 1_555 1_555
H8A C24A 1_555 1_555
C25A C23A 1_555 1_555
H9A C25A 1_555 1_555
C26A C24A 1_555 1_555
H10A C26A 1_555 1_555
C27A C25A 1_555 1_555
C28A C27A 1_555 1_555
C29A C28A 1_555 1_555
C30A C28A 1_555 1_555
N15A C53A 1_555 1_555
N16A C44A 1_555 1_555
N17A C43A 1_555 1_555
N18A Gd1A 1_555 1_555
C43A C45A 1_555 1_555
C44A C45A 1_555 1_555
C45A C46A 1_555 1_555
C46A C47A 1_555 1_555
C47A H15A 1_555 1_555
C48A C46A 1_555 1_555
H16A C48A 1_555 1_555
C49A C48A 1_555 1_555
H17A C49A 1_555 1_555
C50A C47A 1_555 1_555
H18A C50A 1_555 1_555
C51A C49A 1_555 1_555
C52A C51A 1_555 1_555
C53A C52A 1_555 1_555
C54A N18A 1_555 1_555
O8A Gd3A 1_555 1_555
O9A Gd3A 1_555 1_555
O10A Gd3A 1_555 1_555
O11A Gd3A 1_555 1_555
O12A Gd3A 1_555 1_555
N27A C79A 1_555 1_555
N28A Gd2 1_555 1_555
N29A C89A 1_555 1_555
N30A C90A 1_555 1_555
C79A C81A 1_555 1_555
C80A N28A 1_555 1_555
C81A C80A 1_555 1_555
C82A C81A 1_555 1_555
C83A C82A 1_555 1_555
H27A C83A 1_555 1_555
C84A C82A 1_555 1_555
H28A C84A 1_555 1_555
C85A C83A 1_555 1_555
H29A C85A 1_555 1_555
C86A C84A 1_555 1_555
H30A C86A 1_555 1_555
C87A C85A 1_555 1_555
C88A C87A 1_555 1_555
C89A C88A 1_555 1_555
C90A C88A 1_555 1_555
Gd2A N22A 1_555 1_555
O1A Gd2A 1_555 1_555
O2A Gd2A 1_555 1_555
O5A Gd2A 1_555 1_555
N23A C68A 1_555 1_555
N24A Gd2A 1_555 1_555
N25A C77A 1_555 1_555
N26A C78A 1_555 1_555
C67A N24A 1_555 1_555
C68A C69A 1_555 1_555
C69A C67A 1_555 1_555
C70A C69A 1_555 1_555
C71A C70A 1_555 1_555
H23A C71A 1_555 1_555
C72A C70A 1_555 1_555
H24A C72A 1_555 1_555
C73A C71A 1_555 1_555
H25A C73A 1_555 1_555
C74A C72A 1_555 1_555
H26A C74A 1_555 1_555
C75A C73A 1_555 1_555
C76A C75A 1_555 1_555
C77A C76A 1_555 1_555
C78A C76A 1_555 1_555
N31A C91A 1_555 1_555
N32A C93A 1_555 1_555
N33A C101A 1_555 1_555
N34A Gd2A 1_555 1_555
C91A C92A 1_555 1_555
C92A C93A 1_555 1_555
C94A C92A 1_555 1_555
C95A C94A 1_555 1_555
H31A C95A 1_555 1_555
C96A C94A 1_555 1_555
H32A C96A 1_555 1_555
C97A C95A 1_555 1_555
H33A C97A 1_555 1_555
C98A C96A 1_555 1_555
H34A C98A 1_555 1_555
C99A C97A 1_555 1_555
C100A C99A 1_555 1_555
C101A C100A 1_555 1_555
C102A N34A 1_555 1_555
Gd3_2 N13 1_555 1_555
Gd2A_2 N28 1_555 1_555
Gd3A_2 N2A 1_555 1_555
Gd2A_3 N36A 1_555 1_555
N6A_2 Gd1A 1_555 1_555
N11A Gd1A 1_555 1_555
N2A_2 Gd3A 1_555 1_555
N13A Gd3A 1_555 1_555
Gd1A_2 N6A 1_555 1_555
Gd1_2 N11_2 1_555 1_555
N27A_2 Gd2A 1_555 1_555
N28_2 Gd2A 1_555 1_555
N36A_2 Gd2A 1_555 1_555
C2 C3 1_555 1_555
C4 C6 1_555 1_555
C10 C11 1_555 1_555
C14 C15 1_555 1_555
C16 C18 1_555 1_555
C26 C27 1_555 1_555
C38 C39 1_555 1_555
C50 C51 1_555 1_555
C52 C54 1_555 1_555
C74 C75 1_555 1_555
C86 C87 1_555 1_555
C98 C99 1_555 1_555
C100 C102 1_555 1_555
C106 C107 1_555 1_555
C3A C1A 1_555 1_555
C58A C59A 1_555 1_555
C64A C65A 1_555 1_555
C107A C106A 1_555 1_555
C8A C9A 1_555 1_555
C10A C11A 1_555 1_555
C14A C15A 1_555 1_555
C38_2 C39_2 1_555 1_555
C26A C27A 1_555 1_555
C50A C51A 1_555 1_555
C52A C54A 1_555 1_555
N27A Gd2A_2 1_555 1_555
C86A C87A 1_555 1_555
C74A C75A 1_555 1_555
C98A C99A 1_555 1_555
C100A C102A 1_555 1_555

#END
