
#######################################################################
#
#                 Cambridge Crystallographic Data Centre
#                                CCDC 
#
#######################################################################
#
# If this CIF has been generated from an entry in the Cambridge 
# Structural Database, then it will include bibliographic, chemical, 
# crystal, experimental, refinement or atomic coordinate data resulting 
# from the CCDC's data processing and validation procedures.
#
#######################################################################

data_TUVGIC
_symmetry_cell_setting           monoclinic
_symmetry_space_group_name_H-M   'C 2/c'
_symmetry_Int_Tables_number      15
_space_group_name_Hall           '-C 2yn'
loop_
_symmetry_equiv_pos_site_id
_symmetry_equiv_pos_as_xyz
1 x,y,z
2 -x,y,1/2-z
3 1/2+x,1/2+y,z
4 1/2-x,1/2+y,1/2-z
5 -x,-y,-z
6 x,-y,1/2+z
7 1/2-x,1/2-y,-z
8 1/2+x,1/2-y,1/2+z
_cell_length_a                   39.245(8)
_cell_length_b                   15.242(3)
_cell_length_c                   23.514(5)
_cell_angle_alpha                90
_cell_angle_beta                 115.77(3)
_cell_angle_gamma                90
_cell_volume                     12666.6
loop_
_atom_site_label
_atom_site_type_symbol
_atom_site_fract_x
_atom_site_fract_y
_atom_site_fract_z
W1 W 0.197203(19) 0.89370(4) 0.10813(3)
W2 W 0.181940(18) 0.80691(4) 0.34997(3)
W3 W 0.236550(17) 0.88780(4) 0.28196(3)
W4 W 0.161986(18) 1.04765(4) 0.19194(3)
W5 W 0.17336(2) 0.67674(4) 0.09602(3)
W6 W 0.071269(19) 0.98169(5) 0.10110(3)
W7 W 0.215394(18) 0.66951(4) 0.27001(3)
W8 W 0.107679(18) 0.97135(4) 0.26180(3)
W9 W 0.083531(19) 0.73583(4) 0.25355(3)
W10 W 0.11645(2) 0.59604(4) 0.17622(3)
W11 W 0.048432(19) 0.74481(5) 0.09263(3)
W12 W 0.10620(2) 0.82979(5) 0.01552(3)
P1 P 0.14189(12) 0.8197(3) 0.1833(2)
O1 O 0.2796(3) 0.9350(7) 0.3157(6)
O2 O 0.2037(3) 0.7739(8) 0.0917(5)
O3 O 0.0809(4) 0.8394(8) -0.0634(6)
O4 O 0.1900(3) 0.5926(7) 0.0681(5)
O5 O 0.1142(4) 0.4841(7) 0.1728(6)
O6 O 0.2250(3) 0.8728(7) 0.3519(5)
O7 O 0.1334(4) 0.7221(8) 0.0227(5)
O8 O 0.2271(3) 0.9437(7) 0.0846(6)
O9 O 0.0028(4) 0.7252(9) 0.0398(6)
O10 O 0.1117(3) 0.7529(7) 0.1788(5)
O11 O 0.1754(3) 0.9904(6) 0.1335(5)
O12 O 0.0838(3) 0.8588(7) 0.2536(5)
O13 O 0.1931(4) 0.8040(8) 0.4279(5)
O14 O 0.1515(3) 0.8921(7) 0.0297(6)
O15 O 0.0349(3) 1.0433(8) 0.0514(6)
O16 O 0.0903(3) 0.9267(7) 0.0469(5)
O17 O 0.1277(3) 0.9122(6) 0.1832(5)
O18 O 0.0615(4) 0.7084(7) 0.3000(6)
O19 O 0.0689(3) 0.6287(7) 0.1104(6)
O20 O 0.1802(3) 1.1503(7) 0.1989(6)
O21 O 0.0933(3) 1.0284(6) 0.3090(5)
O22 O 0.2500(3) 0.7653(7) 0.2892(5)
O23 O 0.0489(3) 0.8693(7) 0.0998(5)
O24 O 0.1403(3) 1.0564(6) 0.2497(5)
O25 O 0.2071(3) 0.6725(7) 0.1848(5)
O26 O 0.1509(3) 0.8094(6) 0.1265(5)
O27 O 0.1527(3) 0.9105(6) 0.3204(5)
O28 O 0.2443(3) 0.5825(7) 0.3007(5)
O29 O 0.0743(3) 0.7645(7) 0.0409(5)
O30 O 0.1119(3) 1.0644(7) 0.1260(5)
O31 O 0.1780(3) 0.8031(6) 0.2446(4)
O32 O 0.1359(3) 0.7447(6) 0.3145(5)
O33 O 0.2033(3) 0.9831(6) 0.2557(5)
O34 O 0.1664(3) 0.6161(6) 0.2399(5)
O35 O 0.0445(3) 0.7351(8) 0.1707(5)
O36 O 0.0702(3) 1.0034(7) 0.1800(5)
O37 O 0.0966(3) 0.6211(6) 0.2345(5)
O38 O 0.2269(3) 0.8759(6) 0.1961(5)
O39 O 0.1385(3) 0.6216(6) 0.1181(5)
O40 O 0.2079(3) 0.7042(6) 0.3427(4)
Co1 Co 0.11930(6) 0.31885(15) 0.03521(11)
O41 O 0.1696(4) 0.2459(8) 0.0896(6)
H1 H 0.1696 0.2187 0.1212
H2 H 0.1843 0.2186 0.0778
O42 O 0.1460(3) 0.4235(8) 0.0955(6)
H3 H 0.1575 0.4665 0.0888
H4 H 0.1402 0.4382 0.1252
N1 N 0.1519(3) 0.3629(7) -0.0151(5)
C1 C 0.1381(2) 0.3990(8) -0.0746(5)
H5 H 0.1129 0.3993 -0.1044
N2 N 0.1681(3) 0.4348(7) -0.0821(4)
N3 N 0.2005(2) 0.4208(7) -0.0273(5)
C2 C 0.1904(3) 0.3764(7) 0.0142(4)
H6 H 0.2068 0.3586 0.0548
C3 C 0.1675(6) 0.4744(12) -0.1366(8)
H7 H 0.1419 0.4708 -0.1700
H8 H 0.1837 0.4407 -0.1501
C4 C 0.1798(4) 0.5677(6) -0.1296(5)
C5 C 0.1882(4) 0.6001(7) -0.1773(5)
H9 H 0.1856 0.5641 -0.2109
C6 C 0.2005(4) 0.6861(7) -0.1748(5)
H10 H 0.2061 0.7078 -0.2067
C7 C 0.2044(3) 0.7399(6) -0.1246(6)
C8 C 0.1959(4) 0.7075(7) -0.0769(5)
H11 H 0.1985 0.7435 -0.0433
C9 C 0.1836(4) 0.6215(7) -0.0794(5)
H12 H 0.1780 0.5998 -0.0475
C10 C 0.2195(7) 0.8326(11) -0.1237(12)
H13 H 0.2469 0.8317 -0.1016
H14 H 0.2126 0.8515 -0.1667
N4 N 0.2055(3) 0.8925(7) -0.0944(6)
C11 C 0.2245(3) 0.9585(8) -0.0524(6)
H15 H 0.2502 0.9705 -0.0362
N5 N 0.1985(5) 1.0036(7) -0.0387(6)
H16 H 0.2033 1.0478 -0.0136
C12 C 0.1636(4) 0.9655(8) -0.0722(7)
H17 H 0.1411 0.9831 -0.0716
N6 N 0.1679(3) 0.8969(7) -0.1066(6)
N7 N 0.0973(3) 0.2103(6) -0.0235(5)
C13 C 0.0631(3) 0.1680(7) -0.0424(5)
H18 H 0.0439 0.1833 -0.0311
N8 N 0.0624(3) 0.0989(6) -0.0807(5)
N9 N 0.0961(3) 0.0986(8) -0.0856(6)
C14 C 0.1177(3) 0.1674(8) -0.0503(6)
H19 H 0.1418 0.1823 -0.0453
C15 C 0.0328(5) 0.0385(11) -0.1126(10)
H20 H 0.0131 0.0483 -0.0988
H21 H 0.0425 -0.0202 -0.0995
C16 C 0.0150(5) 0.0418(9) -0.1834(7)
C17 C 0.0075(6) -0.0361(10) -0.2176(8)
H22 H 0.0127 -0.0893 -0.1962
C18 C 0.0073(5) 0.1185(9) -0.2190(8)
H23 H 0.0127 0.1721 -0.1980
N10 N 0.0731(4) 0.3982(10) -0.0204(7)
C19 C 0.0502(4) 0.3925(9) -0.0841(7)
H24 H 0.0490 0.3454 -0.1101
N11 N 0.0294(5) 0.4685(12) -0.1027(7)
C20 C 0.0394(6) 0.5212(10) -0.0504(10)
H25 H 0.0296 0.5765 -0.0496
N12 N 0.0664(6) 0.4778(12) 0.0005(7)
C21 C 0.0105(5) 0.5086(16) -0.1634(9)
H26 H -0.0081(7) 0.538(3) -0.164(2)
H27 H 0.0033(13) 0.469(2) -0.1912(9)
C22 C 0.0357(6) 0.5674(14) -0.1757(11)
C23 C 0.0482(6) 0.5374(12) -0.2186(11)
H28 H 0.0437 0.4801 -0.2324
C24 C 0.0673(7) 0.5928(18) -0.2407(10)
H29 H 0.0757 0.5725 -0.2697
C25 C 0.0740(7) 0.6782(16) -0.2201(12)
C26 C 0.0616(7) 0.7083(12) -0.1772(12)
H30 H 0.0661 0.7661 -0.1632
C27 C 0.0424(7) 0.6528(16) -0.1551(10)
H31 H 0.0340 0.6732 -0.1261
C28 C 0.0935(9) 0.745(2) -0.2452(15)
H32 H 0.0838 0.8027 -0.2432
H33 H 0.1203 0.7450 -0.2169
C29 C 0.1147(3) 0.7214(10) -0.3357(7)
H34 H 0.1409 0.7229 -0.3135
N13 N 0.0892(5) 0.7306(10) -0.3102(7)
N14 N 0.0532(4) 0.7245(13) -0.3587(9)
C30 C 0.0565(4) 0.7116(13) -0.4141(7)
H35 H 0.0366 0.7052 -0.4541
N15 N 0.0945(5) 0.7096(10) -0.3999(7)
N7A N -0.0973(3) 0.2103(6) -0.4765(5)
C13A C -0.0631(3) 0.1680(7) -0.4576(5)
H18A H -0.0439 0.1833 -0.4689
N8A N -0.0624(3) 0.0989(6) -0.4193(5)
N9A N -0.0961(3) 0.0986(8) -0.4144(6)
C14A C -0.1177(3) 0.1674(8) -0.4497(6)
H19A H -0.1418 0.1823 -0.4547
C15A C -0.0328(5) 0.0385(11) -0.3874(10)
H20A H -0.0131 0.0483 -0.4012
H21A H -0.0425 -0.0202 -0.4005
C16A C -0.0150(5) 0.0418(9) -0.3166(7)
C17A C -0.0075(6) -0.0361(10) -0.2824(8)
H22A H -0.0127 -0.0893 -0.3038
C18A C -0.0073(5) 0.1185(9) -0.2810(8)
H23A H -0.0127 0.1721 -0.3020
Co1A Co -0.11930(6) 0.31885(15) -0.53521(11)
O41A O -0.1696(4) 0.2459(8) -0.5896(6)
H1A H -0.1696 0.2187 -0.6212
H2A H -0.1843 0.2186 -0.5778
O42A O -0.1460(3) 0.4235(8) -0.5955(6)
H3A H -0.1575 0.4665 -0.5888
H4A H -0.1402 0.4382 -0.6252
N1A N -0.1519(3) 0.3629(7) -0.4849(5)
C1A C -0.1381(2) 0.3990(8) -0.4254(5)
H5A H -0.1129 0.3993 -0.3956
N2A N -0.1681(3) 0.4348(7) -0.4179(4)
N3A N -0.2005(2) 0.4208(7) -0.4727(5)
C2A C -0.1904(3) 0.3764(7) -0.5142(4)
H6A H -0.2068 0.3586 -0.5548
C3A C -0.1675(6) 0.4744(12) -0.3634(8)
H7A H -0.1419 0.4708 -0.3300
H8A H -0.1837 0.4407 -0.3499
C4A C -0.1798(4) 0.5677(6) -0.3704(5)
C5A C -0.1882(4) 0.6001(7) -0.3227(5)
H9A H -0.1856 0.5641 -0.2891
C6A C -0.2005(4) 0.6861(7) -0.3252(5)
H10A H -0.2061 0.7078 -0.2933
C7A C -0.2044(3) 0.7399(6) -0.3754(6)
C8A C -0.1959(4) 0.7075(7) -0.4231(5)
H11A H -0.1985 0.7435 -0.4567
C9A C -0.1836(4) 0.6215(7) -0.4206(5)
H12A H -0.1780 0.5998 -0.4525
C10A C -0.2195(7) 0.8326(11) -0.3763(12)
H13A H -0.2469 0.8317 -0.3984
H14A H -0.2126 0.8515 -0.3333
N4A N -0.2055(3) 0.8925(7) -0.4056(6)
C11A C -0.2245(3) 0.9585(8) -0.4476(6)
H15A H -0.2502 0.9705 -0.4638
N5A N -0.1985(5) 1.0036(7) -0.4613(6)
H16A H -0.2033 1.0478 -0.4864
C12A C -0.1636(4) 0.9655(8) -0.4278(7)
H17A H -0.1411 0.9831 -0.4284
N6A N -0.1679(3) 0.8969(7) -0.3934(6)
N10A N -0.0731(4) 0.3982(10) -0.4796(7)
C19A C -0.0502(4) 0.3925(9) -0.4159(7)
H24A H -0.0490 0.3454 -0.3899
N11A N -0.0294(5) 0.4685(12) -0.3973(7)
C20A C -0.0394(6) 0.5212(10) -0.4496(10)
H25A H -0.0296 0.5765 -0.4504
N12A N -0.0664(6) 0.4778(12) -0.5005(7)
C21A C -0.0105(5) 0.5086(16) -0.3366(9)
H26A H 0.0081(7) 0.538(3) -0.336(2)
H27A H -0.0033(13) 0.469(2) -0.3088(9)
C22A C -0.0357(6) 0.5674(14) -0.3243(11)
C23A C -0.0482(6) 0.5374(12) -0.2814(11)
H28A H -0.0437 0.4801 -0.2676
C24A C -0.0673(7) 0.5928(18) -0.2593(10)
H29A H -0.0757 0.5725 -0.2303
C25A C -0.0740(7) 0.6782(16) -0.2799(12)
C26A C -0.0616(7) 0.7083(12) -0.3228(12)
H30A H -0.0661 0.7661 -0.3368
C27A C -0.0424(7) 0.6528(16) -0.3449(10)
H31A H -0.0340 0.6732 -0.3739
C28A C -0.0935(9) 0.745(2) -0.2548(15)
H32A H -0.0838 0.8027 -0.2568
H33A H -0.1203 0.7450 -0.2831
C29A C -0.1147(3) 0.7214(10) -0.1643(7)
H34A H -0.1409 0.7229 -0.1865
N13A N -0.0892(5) 0.7306(10) -0.1898(7)
N14A N -0.0532(4) 0.7245(13) -0.1413(9)
C30A C -0.0565(4) 0.7116(13) -0.0859(7)
H35A H -0.0366 0.7052 -0.0459
N15A N -0.0945(5) 0.7096(10) -0.1001(7)
Co1D Co -0.11930(6) 0.68115(15) -0.03521(11)
Co1E Co 0.11930(6) 0.68115(15) -0.46479(11)
N15D N -0.0945(5) 0.2904(10) -0.6001(7)
N15E N 0.0945(5) 0.2904(10) 0.1001(7)
O43 O 0.2163(4) 1.1344(10) 0.0555(7)
H36 H 0.2220(13) 1.1730(13) 0.0369(18)
H37 H 0.2306(11) 1.127(4) 0.0928(10)
loop_
_geom_bond_atom_site_label_1
_geom_bond_atom_site_label_2
_geom_bond_site_symmetry_1
_geom_bond_site_symmetry_2
W1 O2 1_555 1_555
W2 O6 1_555 1_555
W3 O1 1_555 1_555
W4 O11 1_555 1_555
W5 O2 1_555 1_555
W6 O15 1_555 1_555
W7 O22 1_555 1_555
W8 O12 1_555 1_555
W9 O10 1_555 1_555
W10 O5 1_555 1_555
W11 O9 1_555 1_555
W12 O3 1_555 1_555
P1 O10 1_555 1_555
O4 W5 1_555 1_555
O6 W3 1_555 1_555
O7 W5 1_555 1_555
O8 W1 1_555 1_555
O10 W10 1_555 1_555
O11 W1 1_555 1_555
O12 W9 1_555 1_555
O13 W2 1_555 1_555
O14 W1 1_555 1_555
O16 W6 1_555 1_555
O17 W4 1_555 1_555
O18 W9 1_555 1_555
O19 W10 1_555 1_555
O20 W4 1_555 1_555
O21 W8 1_555 1_555
O22 W3 1_555 1_555
O23 W6 1_555 1_555
O24 W4 1_555 1_555
O25 W5 1_555 1_555
O26 W1 1_555 1_555
O27 W2 1_555 1_555
O28 W7 1_555 1_555
O29 W11 1_555 1_555
O30 W4 1_555 1_555
O31 W2 1_555 1_555
O32 W2 1_555 1_555
O33 W3 1_555 1_555
O34 W7 1_555 1_555
O35 W9 1_555 1_555
O36 W6 1_555 1_555
O37 W9 1_555 1_555
O38 W1 1_555 1_555
O39 W5 1_555 1_555
O40 W2 1_555 1_555
Co1 O41 1_555 1_555
O41 H1 1_555 1_555
H2 O41 1_555 1_555
O42 Co1 1_555 1_555
H3 O42 1_555 1_555
H4 O42 1_555 1_555
N1 Co1 1_555 1_555
C1 N1 1_555 1_555
H5 C1 1_555 1_555
N2 C1 1_555 1_555
N3 N2 1_555 1_555
C2 N1 1_555 1_555
H6 C2 1_555 1_555
C3 N2 1_555 1_555
H7 C3 1_555 1_555
H8 C3 1_555 1_555
C4 C3 1_555 1_555
C5 C4 1_555 1_555
H9 C5 1_555 1_555
C6 C5 1_555 1_555
H10 C6 1_555 1_555
C7 C6 1_555 1_555
C8 C7 1_555 1_555
H11 C8 1_555 1_555
C9 C4 1_555 1_555
H12 C9 1_555 1_555
C10 C7 1_555 1_555
H13 C10 1_555 1_555
H14 C10 1_555 1_555
N4 C10 1_555 1_555
C11 N4 1_555 1_555
H15 C11 1_555 1_555
N5 C11 1_555 1_555
H16 N5 1_555 1_555
C12 N5 1_555 1_555
H17 C12 1_555 1_555
N6 N4 1_555 1_555
N7 Co1 1_555 1_555
C13 N7 1_555 1_555
H18 C13 1_555 1_555
N8 C13 1_555 1_555
N9 N8 1_555 1_555
C14 N7 1_555 1_555
H19 C14 1_555 1_555
C15 N8 1_555 1_555
H20 C15 1_555 1_555
H21 C15 1_555 1_555
C16 C15 1_555 1_555
C17 C16 1_555 1_555
H22 C17 1_555 1_555
C18 C16 1_555 1_555
H23 C18 1_555 1_555
N10 Co1 1_555 1_555
C19 N10 1_555 1_555
H24 C19 1_555 1_555
N11 C19 1_555 1_555
C20 N11 1_555 1_555
H25 C20 1_555 1_555
N12 N10 1_555 1_555
C21 N11 1_555 1_555
H26 C21 1_555 1_555
H27 C21 1_555 1_555
C22 C21 1_555 1_555
C23 C22 1_555 1_555
H28 C23 1_555 1_555
C24 C23 1_555 1_555
H29 C24 1_555 1_555
C25 C24 1_555 1_555
C26 C25 1_555 1_555
H30 C26 1_555 1_555
C27 C22 1_555 1_555
H31 C27 1_555 1_555
C28 C25 1_555 1_555
H32 C28 1_555 1_555
H33 C28 1_555 1_555
C29 H34 1_555 1_555
N13 C28 1_555 1_555
N14 N13 1_555 1_555
C30 N14 1_555 1_555
H35 C30 1_555 1_555
N15 C29 1_555 1_555
O43 H36 1_555 1_555
H37 O43 1_555 1_555
N7A C13A 1_555 1_555
C13A H18A 1_555 1_555
N8A C13A 1_555 1_555
N9A N8A 1_555 1_555
C14A N7A 1_555 1_555
H19A C14A 1_555 1_555
C15A N8A 1_555 1_555
H20A C15A 1_555 1_555
H21A C15A 1_555 1_555
C16A C15A 1_555 1_555
C17A C17 1_555 1_555
H22A C17A 1_555 1_555
C18A C18 1_555 1_555
H23A C18A 1_555 1_555
Co1A N7A 1_555 1_555
O41A Co1A 1_555 1_555
H1A O41A 1_555 1_555
H2A O41A 1_555 1_555
O42A Co1A 1_555 1_555
H3A O42A 1_555 1_555
H4A O42A 1_555 1_555
N1A Co1A 1_555 1_555
C1A N1A 1_555 1_555
H5A C1A 1_555 1_555
N2A C1A 1_555 1_555
N3A N2A 1_555 1_555
C2A N1A 1_555 1_555
H6A C2A 1_555 1_555
C3A N2A 1_555 1_555
H7A C3A 1_555 1_555
H8A C3A 1_555 1_555
C4A C3A 1_555 1_555
C5A C4A 1_555 1_555
H9A C5A 1_555 1_555
C6A C5A 1_555 1_555
H10A C6A 1_555 1_555
C7A C6A 1_555 1_555
C8A C7A 1_555 1_555
H11A C8A 1_555 1_555
C9A C4A 1_555 1_555
H12A C9A 1_555 1_555
C10A C7A 1_555 1_555
H13A C10A 1_555 1_555
H14A C10A 1_555 1_555
N4A C10A 1_555 1_555
C11A N4A 1_555 1_555
H15A C11A 1_555 1_555
N5A C11A 1_555 1_555
H16A N5A 1_555 1_555
C12A N5A 1_555 1_555
H17A C12A 1_555 1_555
N6A N4A 1_555 1_555
N10A Co1A 1_555 1_555
C19A N10A 1_555 1_555
H24A C19A 1_555 1_555
N11A C19A 1_555 1_555
C20A N11A 1_555 1_555
H25A C20A 1_555 1_555
N12A N10A 1_555 1_555
C21A N11A 1_555 1_555
H26A C21A 1_555 1_555
H27A C21A 1_555 1_555
C22A C21A 1_555 1_555
C23A C22A 1_555 1_555
H28A C23A 1_555 1_555
C24A C23A 1_555 1_555
H29A C24A 1_555 1_555
C25A C24A 1_555 1_555
C26A C25A 1_555 1_555
H30A C26A 1_555 1_555
C27A C22A 1_555 1_555
H31A C27A 1_555 1_555
C28A C25A 1_555 1_555
H32A C28A 1_555 1_555
H33A C28A 1_555 1_555
C29A H34A 1_555 1_555
N13A C28A 1_555 1_555
N14A N13A 1_555 1_555
C30A N14A 1_555 1_555
H35A C30A 1_555 1_555
N15A C29A 1_555 1_555
Co1D N15A 1_555 1_555
Co1E N15 1_555 1_555
N15D Co1A 1_555 1_555
N15E Co1 1_555 1_555
W3 O31 1_555 1_555
W3 O38 1_555 1_555
W4 O33 1_555 1_555
W5 O26 1_555 1_555
W6 O17 1_555 1_555
W6 O30 1_555 1_555
W7 O25 1_555 1_555
W7 O31 1_555 1_555
W7 O40 1_555 1_555
W8 O17 1_555 1_555
W8 O24 1_555 1_555
W8 O27 1_555 1_555
W8 O36 1_555 1_555
W9 O32 1_555 1_555
W10 O34 1_555 1_555
W10 O37 1_555 1_555
W10 O39 1_555 1_555
W11 O10 1_555 1_555
W11 O19 1_555 1_555
W11 O23 1_555 1_555
W11 O35 1_555 1_555
W12 O7 1_555 1_555
W12 O14 1_555 1_555
W12 O16 1_555 1_555
W12 O26 1_555 1_555
W12 O29 1_555 1_555
P1 O17 1_555 1_555
P1 O26 1_555 1_555
P1 O31 1_555 1_555
N3 C2 1_555 1_555
C8 C9 1_555 1_555
C12 N6 1_555 1_555
N9 C14 1_555 1_555
C20 N12 1_555 1_555
C26 C27 1_555 1_555
C29 N13 1_555 1_555
C30 N15 1_555 1_555
N9A C14A 1_555 1_555
C16A C17A 1_555 1_555
C16A C18A 1_555 1_555
N3A C2A 1_555 1_555
C8A C9A 1_555 1_555
C12A N6A 1_555 1_555
C20A N12A 1_555 1_555
C26A C27A 1_555 1_555
C29A N13A 1_555 1_555
C30A N15A 1_555 1_555

#END
