
#######################################################################
#
#                 Cambridge Crystallographic Data Centre
#                                CCDC 
#
#######################################################################
#
# If this CIF has been generated from an entry in the Cambridge 
# Structural Database, then it will include bibliographic, chemical, 
# crystal, experimental, refinement or atomic coordinate data resulting 
# from the CCDC's data processing and validation procedures.
#
#######################################################################

data_TUVGAU
_symmetry_cell_setting           triclinic
_symmetry_space_group_name_H-M   'P -1'
_symmetry_Int_Tables_number      2
_space_group_name_Hall           '-P 1'
loop_
_symmetry_equiv_pos_site_id
_symmetry_equiv_pos_as_xyz
1 x,y,z
2 -x,-y,-z
_cell_length_a                   11.7046(9)
_cell_length_b                   14.5353(11)
_cell_length_c                   28.585(2)
_cell_angle_alpha                85.5140(10)
_cell_angle_beta                 78.9940(10)
_cell_angle_gamma                66.8170(10)
_cell_volume                     4388.22
loop_
_atom_site_label
_atom_site_type_symbol
_atom_site_fract_x
_atom_site_fract_y
_atom_site_fract_z
Co1 Co 1.51744(14) 0.35577(11) 0.77552(5)
Co2 Co 0.26562(14) 0.94023(11) 0.70726(5)
Co3 Co 1.0000 0.5000 1.0000
B1 B 0.8703(12) 0.6665(10) 0.7628(4)
W1 W 0.98987(4) 0.40349(3) 0.780234(18)
W2 W 0.97034(4) 0.55107(3) 0.866935(16)
W3 W 0.63521(4) 0.69172(4) 0.863126(16)
W4 W 0.76260(4) 0.92568(3) 0.751080(17)
W5 W 0.65888(4) 0.54886(3) 0.773939(17)
W6 W 0.78524(4) 0.76572(4) 0.653851(17)
W7 W 0.55008(4) 0.79388(3) 0.761484(16)
W8 W 0.84930(4) 0.82287(3) 0.852606(16)
W9 W 1.08786(4) 0.63917(4) 0.657210(17)
W10 W 1.06330(4) 0.79659(3) 0.755837(17)
W11 W 1.18200(4) 0.52422(3) 0.769165(18)
W12 W 0.89584(5) 0.51863(4) 0.667344(18)
O1 O 1.2166(8) 0.6282(7) 0.6155(3)
O2 O 0.7184(8) 0.8351(6) 0.6079(3)
O3 O 1.0476(7) 0.5336(6) 0.6377(3)
O4 O 1.3445(7) 0.4704(6) 0.7635(3)
O5 O 1.0261(8) 0.2775(6) 0.7801(3)
O6 O 0.8054(7) 0.6368(6) 0.6350(3)
O7 O 1.1572(7) 0.4027(6) 0.7670(3)
O8 O 0.6867(7) 1.0476(6) 0.7380(3)
O9 O 0.9899(8) 0.5218(6) 0.9255(3)
O10 O 0.5994(7) 0.5892(5) 0.8402(3)
O11 O 0.9847(7) 0.4242(6) 0.8466(3)
O12 O 0.9604(8) 0.7336(6) 0.6261(3)
O13 O 0.5455(8) 0.7035(7) 0.9188(3)
O14 O 0.5131(7) 0.7858(6) 0.8296(3)
O15 O 0.8364(8) 0.8765(6) 0.9053(3)
O16 O 1.1429(7) 0.5174(5) 0.8381(3)
O17 O 0.8958(9) 0.4327(7) 0.6297(3)
O18 O 0.5281(7) 0.6714(6) 0.7595(3)
O19 O 1.0049(7) 0.8325(5) 0.8210(3)
O20 O 0.8839(6) 0.7597(5) 0.7751(2)
O21 O 1.1542(7) 0.6619(6) 0.7746(3)
O22 O 0.7597(7) 0.9368(6) 0.8183(3)
O23 O 0.9320(7) 0.9151(5) 0.7398(3)
O24 O 1.1654(7) 0.5498(6) 0.7049(3)
O25 O 0.9776(7) 0.4366(6) 0.7148(3)
O26 O 1.0823(7) 0.7433(6) 0.6955(3)
O27 O 1.1812(8) 0.8407(6) 0.7448(3)
O28 O 0.8978(7) 0.6530(5) 0.7089(3)
O29 O 0.8100(7) 0.4574(5) 0.7910(3)
O30 O 0.9634(7) 0.5773(5) 0.7859(3)
O31 O 0.7366(7) 0.6719(5) 0.7822(3)
O32 O 0.7412(7) 0.5386(6) 0.7109(3)
O33 O 0.7917(7) 0.8661(6) 0.6911(3)
O34 O 0.6232(7) 0.8857(5) 0.7683(3)
O35 O 0.4028(7) 0.8775(6) 0.7519(3)
O36 O 0.7073(7) 0.7880(6) 0.8657(3)
O37 O 0.9465(7) 0.6870(6) 0.8679(3)
O38 O 0.7923(7) 0.5933(5) 0.8756(3)
O39 O 0.5790(7) 0.4728(6) 0.7731(3)
O40 O 0.6380(7) 0.7732(6) 0.6980(3)
N1 N 1.5740(8) 0.3345(6) 0.7018(2)
N2 N 1.6143(9) 0.2480(5) 0.6766(3)
C1 C 1.6334(9) 0.2709(5) 0.6292(2)
H1 H 1.6609 0.2259 0.6041
N3 N 1.6048(9) 0.3715(6) 0.6251(2)
C2 C 1.5680(10) 0.4108(5) 0.6700(3)
H2 H 1.5434 0.4777 0.6776
C3 C 1.6171(17) 0.4207(12) 0.5789(4)
H3 H 1.7059 0.4039 0.5663
H4 H 1.5773 0.4926 0.5833
C4 C 1.5591(10) 0.3914(7) 0.5438(3)
C5 C 1.6366(8) 0.3303(8) 0.5061(3)
H5 H 1.7238 0.3066 0.5034
C6 C 1.5842(8) 0.3043(7) 0.4723(3)
H6 H 1.6362 0.2632 0.4469
C7 C 1.4543(9) 0.3395(7) 0.4762(3)
C8 C 1.3769(8) 0.4006(7) 0.5139(3)
H7 H 1.2896 0.4243 0.5166
C9 C 1.4293(9) 0.4266(7) 0.5477(3)
H8 H 1.3772 0.4677 0.5730
C10 C 1.3932(10) 0.3131(10) 0.4412(3)
H9 H 1.3635 0.2616 0.4548
H10 H 1.3203 0.3716 0.4352
N4 N 1.6234(7) 0.1842(5) 0.3388(2)
C11 C 1.6033(8) 0.2823(5) 0.3283(2)
H11 H 1.6438 0.3057 0.3018
N5 N 1.5130(7) 0.3401(4) 0.3638(3)
N6 N 1.4773(7) 0.2776(5) 0.3962(2)
C12 C 1.5456(7) 0.1813(5) 0.3808(2)
H12 H 1.5400 0.1240 0.3961
N7 N 1.4452(7) 0.2427(5) 0.7841(3)
C13 C 1.3846(7) 0.2121(5) 0.7560(2)
H13 H 1.3621 0.2409 0.7272
N8 N 1.3630(7) 0.1318(5) 0.7776(2)
N9 N 1.4102(7) 0.1127(5) 0.8191(2)
C14 C 1.4610(7) 0.1812(6) 0.8231(2)
H14 H 1.4995 0.1853 0.8481
C15 C 1.3933(9) 0.0383(8) 0.8538(4)
H15 H 1.4212 0.0448 0.8828
H16 H 1.4438 -0.0284 0.8412
C16 C 1.2590(6) 0.0529(6) 0.8646(3)
C17 C 1.2225(6) -0.0258(5) 0.8604(3)
H17 H 1.2833 -0.0895 0.8528
C18 C 1.0951(7) -0.0092(5) 0.8676(3)
H18 H 1.0707 -0.0619 0.8648
C19 C 1.0043(6) 0.0860(6) 0.8790(3)
C20 C 1.0408(6) 0.1646(5) 0.8831(3)
H19 H 0.9800 0.2284 0.8908
C21 C 1.1682(7) 0.1481(5) 0.8760(3)
H20 H 1.1926 0.2008 0.8788
C22 C 0.8687(9) 0.1045(10) 0.8849(4)
H21 H 0.8582 0.0412 0.8884
H22 H 0.8234 0.1434 0.9135
N10 N 0.6892(6) 0.2570(5) 0.7966(3)
C23 C 0.7040(7) 0.2369(6) 0.8430(2)
H23 H 0.6474 0.2708 0.8695
N11 N 0.8167(7) 0.1583(6) 0.8438(2)
N12 N 0.8716(6) 0.1298(5) 0.7978(3)
C24 C 0.7927(8) 0.1907(6) 0.7686(2)
H24 H 0.8070 0.1877 0.7355
N13 N 0.1167(7) 1.0020(6) 0.6689(3)
C25 C 0.0682(8) 0.9531(5) 0.6442(3)
H25 H 0.1014 0.8848 0.6383
N14 N -0.0377(7) 1.0226(7) 0.6297(3)
N15 N -0.0547(7) 1.1144(6) 0.6455(3)
C26 C 0.0408(8) 1.1016(5) 0.6697(3)
H26 H 0.0520 1.1518 0.6841
C27 C -0.1142(13) 1.0054(14) 0.5994(4)
H27 H -0.1981 1.0579 0.6046
H28 H -0.1221 0.9420 0.6079
C28 C -0.0577(13) 1.0041(11) 0.5489(4)
C29 C -0.052(2) 1.0852(14) 0.5222(8)
H29 H -0.0842 1.1465 0.5377
C30 C 0.003(2) 0.9162(13) 0.5239(7)
H30 H 0.0110 0.8561 0.5396
N16 N 0.3650(7) 1.0271(6) 0.6722(2)
C31 C 0.3373(7) 1.0822(6) 0.6318(3)
H31 H 0.2640 1.0984 0.6193
N17 N 0.4362(7) 1.1092(6) 0.6132(2)
N18 N 0.5250(6) 1.0709(6) 0.6420(3)
C32 C 0.4810(7) 1.0201(6) 0.6785(3)
H32 H 0.5226 0.9867 0.7032
C33 C 0.4598(17) 1.1529(10) 0.5669(3)
H33 H 0.5330 1.1700 0.5642
H34 H 0.3876 1.2133 0.5624
C34 C 0.4822(12) 1.0779(10) 0.5313(4)
C35 C 0.5995(13) 0.9981(11) 0.5205(6)
H35 H 0.6663 0.9960 0.5342
C36 C 0.3813(14) 1.0798(14) 0.5111(6)
H36 H 0.3024 1.1315 0.5182
N19 N 0.9119(8) 0.3981(6) 1.0009(3)
C37 C 0.8442(10) 0.3903(7) 0.9683(3)
H37 H 0.8272 0.4303 0.9414
N20 N 0.8059(10) 0.3129(7) 0.9822(3)
N21 N 0.8499(10) 0.2729(6) 1.0234(3)
C38 C 0.9154(9) 0.3256(6) 1.0350(3)
H38 H 0.9552 0.3142 1.0613
C39 C 0.8300(16) 0.1859(8) 1.0464(5)
H39 H 0.7435 0.1939 1.0469
H40 H 0.8430 0.1817 1.0791
C40 C 0.9165(12) 0.0925(9) 1.0214(5)
C41 C 0.8703(16) 0.0226(11) 1.0105(5)
H41 H 0.7842 0.0366 1.0171
C42 C 1.0466(12) 0.0662(11) 1.0100(5)
H42 H 1.0788 0.1118 1.0168
N22 N 1.1770(7) 0.3818(6) 0.9796(3)
C43 C 1.2042(8) 0.3309(7) 0.9378(3)
H43 H 1.1499 0.3419 0.9162
N23 N 1.3253(8) 0.2607(7) 0.9336(3)
N24 N 1.3730(6) 0.2683(6) 0.9727(3)
C44 C 1.2814(8) 0.3431(6) 1.0011(3)
H44 H 1.2887 0.3640 1.0299
C45 C 1.4972(10) 0.1977(8) 0.9799(5)
H45 H 1.5215 0.2203 1.0060
H46 H 1.5584 0.1957 0.9514
C46 C 1.4989(12) 0.0965(8) 0.9905(4)
C47 C 1.4316(15) 0.0759(12) 1.0321(5)
H47 H 1.3864 0.1261 1.0545
C48 C 1.5696(15) 0.0177(11) 0.9593(5)
H48 H 1.6193 0.0288 0.9317
O41 O 0.1670(8) 1.0549(6) 0.7558(3)
H49 H 0.2019 1.0964 0.7557
H50 H 0.0908 1.0826 0.7697
O42 O 1.4335(10) 0.3940(7) 0.8497(3)
H51 H 1.4446 0.4395 0.8629
H52 H 1.4114 0.3583 0.8716
N13A N -0.1167(7) 0.9980(6) 0.3311(3)
C25A C -0.0682(8) 1.0469(5) 0.3558(3)
H25A H -0.1014 1.1152 0.3617
N14A N 0.0377(7) 0.9774(7) 0.3703(3)
N15A N 0.0547(7) 0.8856(6) 0.3545(3)
C26A C -0.0408(8) 0.8984(5) 0.3303(3)
H26A H -0.0520 0.8482 0.3159
C27A C 0.1142(13) 0.9946(14) 0.4006(4)
H27A H 0.1981 0.9421 0.3954
H28A H 0.1221 1.0580 0.3921
C28A C 0.0577(13) 0.9959(11) 0.4511(4)
C29A C 0.052(2) 0.9148(14) 0.4778(8)
H29A H 0.0842 0.8535 0.4623
C30A C -0.003(2) 1.0838(13) 0.4761(7)
H30A H -0.0110 1.1439 0.4604
N16A N 0.6350(7) 0.9729(6) 0.3278(2)
C31A C 0.6627(7) 0.9178(6) 0.3682(3)
H31A H 0.7360 0.9016 0.3807
N17A N 0.5638(7) 0.8908(6) 0.3868(2)
N18A N 0.4750(6) 0.9291(6) 0.3580(3)
C32A C 0.5190(7) 0.9799(6) 0.3215(3)
H32A H 0.4774 1.0133 0.2968
C33A C 0.5402(17) 0.8471(10) 0.4331(3)
H33A H 0.4670 0.8300 0.4358
H34A H 0.6124 0.7867 0.4376
C34A C 0.5178(12) 0.9221(10) 0.4687(4)
C35A C 0.4005(13) 1.0019(11) 0.4795(6)
H35A H 0.3337 1.0040 0.4658
C36A C 0.6187(14) 0.9202(14) 0.4889(6)
H36A H 0.6976 0.8685 0.4818
N19A N 1.0881(8) -0.3981(6) 0.9991(3)
C37A C 1.1558(10) -0.3903(7) 1.0317(3)
H37A H 1.1728 -0.4303 1.0586
N20A N 1.1941(10) -0.3129(7) 1.0178(3)
N21A N 1.1501(10) -0.2729(6) 0.9766(3)
C38A C 1.0846(9) -0.3256(6) 0.9650(3)
H38A H 1.0448 -0.3142 0.9387
C39A C 1.1700(16) -0.1859(8) 0.9536(5)
H39A H 1.2565 -0.1939 0.9531
H40A H 1.1570 -0.1817 0.9209
C40A C 1.0835(12) -0.0925(9) 0.9786(5)
C41A C 1.1297(16) -0.0226(11) 0.9895(5)
H41A H 1.2158 -0.0366 0.9829
C42A C 0.9534(12) -0.0662(11) 0.9900(5)
H42A H 0.9212 -0.1118 0.9832
N22A N 1.8230(7) -0.3818(6) 1.0204(3)
C43A C 1.7958(8) -0.3309(7) 1.0622(3)
H43A H 1.8501 -0.3419 1.0838
N23A N 1.6747(8) -0.2607(7) 1.0664(3)
N24A N 1.6270(6) -0.2683(6) 1.0273(3)
C44A C 1.7186(8) -0.3431(6) 0.9989(3)
H44A H 1.7113 -0.3640 0.9701
C45A C 1.5028(10) -0.1977(8) 1.0201(5)
H45A H 1.4785 -0.2203 0.9940
H46A H 1.4416 -0.1957 1.0486
C46A C 1.5011(12) -0.0965(8) 1.0095(4)
C47A C 1.5684(15) -0.0759(12) 0.9679(5)
H47A H 1.6136 -0.1261 0.9455
C48A C 1.4304(15) -0.0177(11) 1.0407(5)
H48A H 1.3807 -0.0288 1.0683
Co1A Co -1.51744(14) 1.64423(11) 0.22448(5)
Co2A Co -0.26562(14) 1.05977(11) 0.29274(5)
B1A B -0.8703(12) 1.3335(10) 0.2372(4)
W1A W -0.98987(4) 1.59651(3) 0.219766(18)
W2A W -0.97034(4) 1.44893(3) 0.133065(16)
W3A W -0.63521(4) 1.30828(4) 0.136874(16)
W4A W -0.76260(4) 1.07432(3) 0.248920(17)
W5A W -0.65888(4) 1.45114(3) 0.226061(17)
W6A W -0.78524(4) 1.23428(4) 0.346149(17)
W7A W -0.55008(4) 1.20612(3) 0.238516(16)
W8A W -0.84930(4) 1.17713(3) 0.147394(16)
W9A W -1.08786(4) 1.36083(4) 0.342790(17)
W10A W -1.06330(4) 1.20341(3) 0.244163(17)
W11A W -1.18200(4) 1.47578(3) 0.230835(18)
W12A W -0.89584(5) 1.48137(4) 0.332656(18)
O1A O -1.2166(8) 1.3718(7) 0.3845(3)
O2A O -0.7184(8) 1.1649(6) 0.3921(3)
O3A O -1.0476(7) 1.4664(6) 0.3623(3)
O4A O -1.3445(7) 1.5296(6) 0.2365(3)
O5A O -1.0261(8) 1.7225(6) 0.2199(3)
O6A O -0.8054(7) 1.3632(6) 0.3650(3)
O7A O -1.1572(7) 1.5973(6) 0.2330(3)
O8A O -0.6867(7) 0.9524(6) 0.2620(3)
O9A O -0.9899(8) 1.4782(6) 0.0745(3)
O10A O -0.5994(7) 1.4108(5) 0.1598(3)
O11A O -0.9847(7) 1.5758(6) 0.1534(3)
O12A O -0.9604(8) 1.2664(6) 0.3739(3)
O13A O -0.5455(8) 1.2965(7) 0.0812(3)
O14A O -0.5131(7) 1.2142(6) 0.1704(3)
O15A O -0.8364(8) 1.1235(6) 0.0947(3)
O16A O -1.1429(7) 1.4826(5) 0.1619(3)
O17A O -0.8958(9) 1.5673(7) 0.3703(3)
O18A O -0.5281(7) 1.3286(6) 0.2405(3)
O19A O -1.0049(7) 1.1675(5) 0.1790(3)
O20A O -0.8839(6) 1.2403(5) 0.2249(2)
O21A O -1.1542(7) 1.3381(6) 0.2254(3)
O22A O -0.7597(7) 1.0632(6) 0.1817(3)
O23A O -0.9320(7) 1.0849(5) 0.2602(3)
O24A O -1.1654(7) 1.4502(6) 0.2951(3)
O25A O -0.9776(7) 1.5634(6) 0.2852(3)
O26A O -1.0823(7) 1.2567(6) 0.3045(3)
O27A O -1.1812(8) 1.1593(6) 0.2552(3)
O28A O -0.8978(7) 1.3470(5) 0.2911(3)
O29A O -0.8100(7) 1.5426(5) 0.2090(3)
O30A O -0.9634(7) 1.4227(5) 0.2141(3)
O31A O -0.7366(7) 1.3281(5) 0.2178(3)
O32A O -0.7412(7) 1.4614(6) 0.2891(3)
O33A O -0.7917(7) 1.1339(6) 0.3089(3)
O34A O -0.6232(7) 1.1143(5) 0.2317(3)
O35A O -0.4028(7) 1.1225(6) 0.2481(3)
O36A O -0.7073(7) 1.2120(6) 0.1343(3)
O37A O -0.9465(7) 1.3130(6) 0.1321(3)
O38A O -0.7923(7) 1.4067(5) 0.1244(3)
O39A O -0.5790(7) 1.5272(6) 0.2269(3)
O40A O -0.6380(7) 1.2268(6) 0.3020(3)
N1A N -1.5740(8) 1.6655(6) 0.2982(2)
N2A N -1.6143(9) 1.7520(5) 0.3234(3)
C1A C -1.6334(9) 1.7291(5) 0.3708(2)
H1A H -1.6609 1.7741 0.3959
N3A N -1.6048(9) 1.6285(6) 0.3749(2)
C2A C -1.5680(10) 1.5892(5) 0.3300(3)
H2A H -1.5434 1.5223 0.3224
C3A C -1.6171(17) 1.5793(12) 0.4211(4)
H3A H -1.7059 1.5961 0.4337
H4A H -1.5773 1.5074 0.4167
C4A C -1.5591(10) 1.6086(7) 0.4562(3)
C5A C -1.6366(8) 1.6697(8) 0.4939(3)
H5A H -1.7238 1.6934 0.4966
C6A C -1.5842(8) 1.6957(7) 0.5277(3)
H6A H -1.6362 1.7368 0.5531
C7A C -1.4543(9) 1.6605(7) 0.5238(3)
C8A C -1.3769(8) 1.5994(7) 0.4861(3)
H7A H -1.2896 1.5757 0.4834
C9A C -1.4293(9) 1.5734(7) 0.4523(3)
H8A H -1.3772 1.5323 0.4270
C10A C -1.3932(10) 1.6869(10) 0.5588(3)
H9A H -1.3635 1.7384 0.5452
H10A H -1.3203 1.6284 0.5648
N4A N -1.6234(7) 1.8158(5) 0.6612(2)
C11A C -1.6033(8) 1.7177(5) 0.6717(2)
H11A H -1.6438 1.6943 0.6982
N5A N -1.5130(7) 1.6599(4) 0.6362(3)
N6A N -1.4773(7) 1.7224(5) 0.6038(2)
C12A C -1.5456(7) 1.8187(5) 0.6192(2)
H12A H -1.5400 1.8760 0.6039
N7A N -1.4452(7) 1.7573(5) 0.2159(3)
C13A C -1.3846(7) 1.7879(5) 0.2440(2)
H13A H -1.3621 1.7591 0.2728
N8A N -1.3630(7) 1.8682(5) 0.2224(2)
N9A N -1.4102(7) 1.8873(5) 0.1809(2)
C14A C -1.4610(7) 1.8188(6) 0.1769(2)
H14A H -1.4995 1.8147 0.1519
C15A C -1.3933(9) 1.9617(8) 0.1462(4)
H15A H -1.4212 1.9552 0.1172
H16A H -1.4438 2.0284 0.1588
C16A C -1.2590(6) 1.9471(6) 0.1354(3)
C17A C -1.2225(6) 2.0258(5) 0.1396(3)
H17A H -1.2833 2.0895 0.1472
C18A C -1.0951(7) 2.0092(5) 0.1324(3)
H18A H -1.0707 2.0619 0.1352
C19A C -1.0043(6) 1.9140(6) 0.1210(3)
C20A C -1.0408(6) 1.8354(5) 0.1169(3)
H19A H -0.9800 1.7716 0.1092
C21A C -1.1682(7) 1.8519(5) 0.1240(3)
H20A H -1.1926 1.7992 0.1212
C22A C -0.8687(9) 1.8955(10) 0.1151(4)
H21A H -0.8582 1.9588 0.1116
H22A H -0.8234 1.8566 0.0865
N10A N -0.6892(6) 1.7430(5) 0.2034(3)
C23A C -0.7040(7) 1.7631(6) 0.1570(2)
H23A H -0.6474 1.7292 0.1305
N11A N -0.8167(7) 1.8417(6) 0.1562(2)
N12A N -0.8716(6) 1.8702(5) 0.2022(3)
C24A C -0.7927(8) 1.8093(6) 0.2314(2)
H24A H -0.8070 1.8123 0.2645
O41A O -0.1670(8) 0.9451(6) 0.2442(3)
H49A H -0.2019 0.9036 0.2443
H50A H -0.0908 0.9174 0.2303
O42A O -1.4335(10) 1.6060(7) 0.1503(3)
H51A H -1.4446 1.5605 0.1371
H52A H -1.4114 1.6417 0.1284
Co1_2 Co 0.51744(14) 0.35577(11) 0.77552(5)
Co1A_2 Co -0.51744(14) 1.64423(11) 0.22448(5)
Co2_2 Co -1.73438(14) 1.94023(11) 0.70726(5)
Co2_3 Co 1.26562(14) 0.94023(11) 0.70726(5)
Co2A_2 Co -1.26562(14) 1.05977(11) 0.29274(5)
Co2A_3 Co 0.73438(14) 1.05977(11) 0.29274(5)
Co2A_4 Co 1.73438(14) 0.05977(11) 0.29274(5)
Co3_2 Co -1.0000 1.5000 0.0000
Co3_3 Co 1.0000 -0.5000 1.0000
Co3_4 Co 2.0000 -0.5000 1.0000
O9A_2 O 1.0101(8) 0.4782(6) 1.0745(3)
O27_2 O 0.1812(8) 0.8407(6) 0.7448(3)
O27A_2 O -0.1812(8) 1.1593(6) 0.2552(3)
O39_2 O 1.5790(7) 0.4728(6) 0.7731(3)
O39A_2 O -1.5790(7) 1.5272(6) 0.2269(3)
N4_2 N -0.3766(7) 1.1842(5) 0.3388(2)
N4A_2 N 0.3766(7) 0.8158(5) 0.6612(2)
N10_2 N 1.6892(6) 0.2570(5) 0.7966(3)
N10A_2 N -1.6892(6) 1.7430(5) 0.2034(3)
N16A_2 N -0.3650(7) 0.9729(6) 0.3278(2)
N19A_2 N 1.0881(8) 0.6019(6) 0.9991(3)
N22A_2 N 0.8230(7) 0.6182(6) 1.0204(3)
O43 O 1.2863(16) 0.6833(14) 0.8524(7)
H53 H 1.309(16) 0.621(4) 0.859(7)
H54 H 1.336(14) 0.707(11) 0.861(7)
O44 O 0.274(2) 1.3288(17) 0.6560(8)
O45 O 1.418(3) 0.535(2) 0.9093(10)
O46 O 1.122(3) 0.261(2) 0.5779(12)
O47? O 1.581(4) 0.435(3) 0.9080(16)
loop_
_geom_bond_atom_site_label_1
_geom_bond_atom_site_label_2
_geom_bond_site_symmetry_1
_geom_bond_site_symmetry_2
Co1 O4 1_555 1_555
Co2 O35 1_555 1_555
Co3 O9 1_555 1_555
B1 O20 1_555 1_555
W1 O5 1_555 1_555
W2 O9 1_555 1_555
W3 O10 1_555 1_555
W4 O8 1_555 1_555
W5 O10 1_555 1_555
W6 O2 1_555 1_555
W7 O14 1_555 1_555
W8 O15 1_555 1_555
W9 O1 1_555 1_555
W10 O19 1_555 1_555
W11 O4 1_555 1_555
W12 O3 1_555 1_555
O3 W9 1_555 1_555
O6 W6 1_555 1_555
O7 W1 1_555 1_555
O11 W1 1_555 1_555
O12 W6 1_555 1_555
O13 W3 1_555 1_555
O14 W3 1_555 1_555
O16 W2 1_555 1_555
O17 W12 1_555 1_555
O18 W5 1_555 1_555
O19 W8 1_555 1_555
O20 W4 1_555 1_555
O21 W10 1_555 1_555
O22 W4 1_555 1_555
O23 W4 1_555 1_555
O24 W9 1_555 1_555
O25 W1 1_555 1_555
O26 W9 1_555 1_555
O27 W10 1_555 1_555
O28 B1 1_555 1_555
O29 W1 1_555 1_555
O30 B1 1_555 1_555
O31 B1 1_555 1_555
O32 W5 1_555 1_555
O33 W4 1_555 1_555
O34 W4 1_555 1_555
O35 W7 1_555 1_555
O36 W3 1_555 1_555
O37 W2 1_555 1_555
O38 W2 1_555 1_555
O39 W5 1_555 1_555
O40 W6 1_555 1_555
N1 Co1 1_555 1_555
N2 N1 1_555 1_555
C1 N2 1_555 1_555
H1 C1 1_555 1_555
N3 C1 1_555 1_555
C2 N1 1_555 1_555
H2 C2 1_555 1_555
C3 N3 1_555 1_555
H3 C3 1_555 1_555
H4 C3 1_555 1_555
C4 C3 1_555 1_555
C5 C4 1_555 1_555
H5 C5 1_555 1_555
C6 C5 1_555 1_555
H6 C6 1_555 1_555
C7 C6 1_555 1_555
C8 C7 1_555 1_555
H7 C8 1_555 1_555
C9 C4 1_555 1_555
H8 C9 1_555 1_555
C10 C7 1_555 1_555
H9 C10 1_555 1_555
H10 C10 1_555 1_555
N4 C11 1_555 1_555
C11 H11 1_555 1_555
N5 C11 1_555 1_555
N6 C10 1_555 1_555
C12 N4 1_555 1_555
H12 C12 1_555 1_555
N7 Co1 1_555 1_555
C13 N7 1_555 1_555
H13 C13 1_555 1_555
N8 C13 1_555 1_555
N9 N8 1_555 1_555
C14 N7 1_555 1_555
H14 C14 1_555 1_555
C15 N9 1_555 1_555
H15 C15 1_555 1_555
H16 C15 1_555 1_555
C16 C15 1_555 1_555
C17 C16 1_555 1_555
H17 C17 1_555 1_555
C18 C17 1_555 1_555
H18 C18 1_555 1_555
C19 C18 1_555 1_555
C20 C19 1_555 1_555
H19 C20 1_555 1_555
C21 C16 1_555 1_555
H20 C21 1_555 1_555
C22 C19 1_555 1_555
H21 C22 1_555 1_555
H22 C22 1_555 1_555
N10 C23 1_555 1_555
C23 H23 1_555 1_555
N11 C22 1_555 1_555
N12 N11 1_555 1_555
C24 N10 1_555 1_555
H24 C24 1_555 1_555
N13 Co2 1_555 1_555
C25 N13 1_555 1_555
H25 C25 1_555 1_555
N14 C25 1_555 1_555
N15 N14 1_555 1_555
C26 N13 1_555 1_555
H26 C26 1_555 1_555
C27 N14 1_555 1_555
H27 C27 1_555 1_555
H28 C27 1_555 1_555
C28 C27 1_555 1_555
C29 C28 1_555 1_555
H29 C29 1_555 1_555
C30 C28 1_555 1_555
H30 C30 1_555 1_555
N16 Co2 1_555 1_555
C31 N16 1_555 1_555
H31 C31 1_555 1_555
N17 C31 1_555 1_555
N18 N17 1_555 1_555
C32 N16 1_555 1_555
H32 C32 1_555 1_555
C33 N17 1_555 1_555
H33 C33 1_555 1_555
H34 C33 1_555 1_555
C34 C33 1_555 1_555
C35 C34 1_555 1_555
H35 C35 1_555 1_555
C36 C34 1_555 1_555
H36 C36 1_555 1_555
N19 Co3 1_555 1_555
C37 N19 1_555 1_555
H37 C37 1_555 1_555
N20 C37 1_555 1_555
N21 N20 1_555 1_555
C38 N19 1_555 1_555
H38 C38 1_555 1_555
C39 N21 1_555 1_555
H39 C39 1_555 1_555
H40 C39 1_555 1_555
C40 C39 1_555 1_555
C41 C40 1_555 1_555
H41 C41 1_555 1_555
C42 C40 1_555 1_555
H42 C42 1_555 1_555
N22 Co3 1_555 1_555
C43 N22 1_555 1_555
H43 C43 1_555 1_555
N23 C43 1_555 1_555
N24 N23 1_555 1_555
C44 N22 1_555 1_555
H44 C44 1_555 1_555
C45 N24 1_555 1_555
H45 C45 1_555 1_555
H46 C45 1_555 1_555
C46 C45 1_555 1_555
C47 C46 1_555 1_555
H47 C47 1_555 1_555
C48 C46 1_555 1_555
H48 C48 1_555 1_555
O41 Co2 1_555 1_555
H49 O41 1_555 1_555
H50 O41 1_555 1_555
O42 Co1 1_555 1_555
H51 O42 1_555 1_555
H52 O42 1_555 1_555
O43 H53 1_555 1_555
H54 O43 1_555 1_555
N13A C25A 1_555 1_555
C25A H25A 1_555 1_555
N14A C25A 1_555 1_555
N15A N14A 1_555 1_555
C26A N13A 1_555 1_555
H26A C26A 1_555 1_555
C27A N14A 1_555 1_555
H27A C27A 1_555 1_555
H28A C27A 1_555 1_555
C28A C27A 1_555 1_555
C29A C30 1_555 1_555
H29A C29A 1_555 1_555
C30A C29 1_555 1_555
H30A C30A 1_555 1_555
N16A C31A 1_555 1_555
C31A H31A 1_555 1_555
N17A C31A 1_555 1_555
N18A N17A 1_555 1_555
C32A N16A 1_555 1_555
H32A C32A 1_555 1_555
C33A N17A 1_555 1_555
H33A C33A 1_555 1_555
H34A C33A 1_555 1_555
C34A C33A 1_555 1_555
C35A C36 1_555 1_555
H35A C35A 1_555 1_555
C36A C35 1_555 1_555
H36A C36A 1_555 1_555
N19A C37A 1_555 1_555
C37A H37A 1_555 1_555
N20A C37A 1_555 1_555
N21A N20A 1_555 1_555
C38A N19A 1_555 1_555
H38A C38A 1_555 1_555
C39A N21A 1_555 1_555
H39A C39A 1_555 1_555
H40A C39A 1_555 1_555
C40A C39A 1_555 1_555
C41A C42 1_555 1_555
H41A C41A 1_555 1_555
C42A C41 1_555 1_555
H42A C42A 1_555 1_555
N22A C43A 1_555 1_555
C43A H43A 1_555 1_555
N23A C43A 1_555 1_555
N24A N23A 1_555 1_555
C44A N22A 1_555 1_555
H44A C44A 1_555 1_555
C45A N24A 1_555 1_555
H45A C45A 1_555 1_555
H46A C45A 1_555 1_555
C46A C45A 1_555 1_555
C47A C48 1_555 1_555
H47A C47A 1_555 1_555
C48A C47 1_555 1_555
H48A C48A 1_555 1_555
Co1A O4A 1_555 1_555
Co2A N13A 1_555 1_555
B1A O20A 1_555 1_555
W1A O5A 1_555 1_555
W2A O9A 1_555 1_555
W3A O10A 1_555 1_555
W4A O8A 1_555 1_555
W5A O10A 1_555 1_555
W6A O2A 1_555 1_555
W7A O14A 1_555 1_555
W8A O15A 1_555 1_555
W9A O1A 1_555 1_555
W10A O19A 1_555 1_555
W11A O4A 1_555 1_555
W12A O3A 1_555 1_555
O3A W9A 1_555 1_555
O6A W6A 1_555 1_555
O7A W1A 1_555 1_555
O9A Co3_2 1_555 1_555
O11A W1A 1_555 1_555
O12A W6A 1_555 1_555
O13A W3A 1_555 1_555
O14A W3A 1_555 1_555
O16A W2A 1_555 1_555
O17A W12A 1_555 1_555
O18A W5A 1_555 1_555
O19A W8A 1_555 1_555
O20A W4A 1_555 1_555
O21A W10A 1_555 1_555
O22A W4A 1_555 1_555
O23A W4A 1_555 1_555
O24A W9A 1_555 1_555
O25A W1A 1_555 1_555
O26A W9A 1_555 1_555
O27A W10A 1_555 1_555
O28A B1A 1_555 1_555
O29A W1A 1_555 1_555
O30A B1A 1_555 1_555
O31A B1A 1_555 1_555
O32A W5A 1_555 1_555
O33A W4A 1_555 1_555
O34A W4A 1_555 1_555
O35A Co2A 1_555 1_555
O36A W3A 1_555 1_555
O37A W2A 1_555 1_555
O38A W2A 1_555 1_555
O39A W5A 1_555 1_555
O40A W6A 1_555 1_555
N1A Co1A 1_555 1_555
N2A N1A 1_555 1_555
C1A N2A 1_555 1_555
H1A C1A 1_555 1_555
N3A C1A 1_555 1_555
C2A N1A 1_555 1_555
H2A C2A 1_555 1_555
C3A N3A 1_555 1_555
H3A C3A 1_555 1_555
H4A C3A 1_555 1_555
C4A C3A 1_555 1_555
C5A C4A 1_555 1_555
H5A C5A 1_555 1_555
C6A C5A 1_555 1_555
H6A C6A 1_555 1_555
C7A C6A 1_555 1_555
C8A C7A 1_555 1_555
H7A C8A 1_555 1_555
C9A C4A 1_555 1_555
H8A C9A 1_555 1_555
C10A C7A 1_555 1_555
H9A C10A 1_555 1_555
H10A C10A 1_555 1_555
N4A C11A 1_555 1_555
C11A H11A 1_555 1_555
N5A C11A 1_555 1_555
N6A C10A 1_555 1_555
C12A N4A 1_555 1_555
H12A C12A 1_555 1_555
N7A Co1A 1_555 1_555
C13A N7A 1_555 1_555
H13A C13A 1_555 1_555
N8A C13A 1_555 1_555
N9A N8A 1_555 1_555
C14A N7A 1_555 1_555
H14A C14A 1_555 1_555
C15A N9A 1_555 1_555
H15A C15A 1_555 1_555
H16A C15A 1_555 1_555
C16A C15A 1_555 1_555
C17A C16A 1_555 1_555
H17A C17A 1_555 1_555
C18A C17A 1_555 1_555
H18A C18A 1_555 1_555
C19A C18A 1_555 1_555
C20A C19A 1_555 1_555
H19A C20A 1_555 1_555
C21A C16A 1_555 1_555
H20A C21A 1_555 1_555
C22A C19A 1_555 1_555
H21A C22A 1_555 1_555
H22A C22A 1_555 1_555
N10A C23A 1_555 1_555
C23A H23A 1_555 1_555
N11A C22A 1_555 1_555
N12A N11A 1_555 1_555
C24A N10A 1_555 1_555
H24A C24A 1_555 1_555
O41A Co2A 1_555 1_555
H49A O41A 1_555 1_555
H50A O41A 1_555 1_555
O42A Co1A 1_555 1_555
H51A O42A 1_555 1_555
H52A O42A 1_555 1_555
Co1_2 O39 1_555 1_555
Co1A_2 O39A 1_555 1_555
Co2_2 N4A 1_555 1_555
Co2_3 O27 1_555 1_555
Co2A_2 O27A 1_555 1_555
Co2A_3 N16A 1_555 1_555
Co2A_4 N4 1_555 1_555
Co3_3 N19A 1_555 1_555
Co3_4 N22A 1_555 1_555
O9A_2 Co3 1_555 1_555
O27_2 Co2 1_555 1_555
O27A_2 Co2A 1_555 1_555
O39_2 Co1 1_555 1_555
O39A_2 Co1A 1_555 1_555
N4_2 Co2A 1_555 1_555
N4A_2 Co2 1_555 1_555
N10_2 Co1 1_555 1_555
N10A_2 Co1A 1_555 1_555
N16A_2 Co2A 1_555 1_555
N19A_2 Co3 1_555 1_555
N22A_2 Co3 1_555 1_555
W1 O30 1_555 1_555
W2 O11 1_555 1_555
W2 O30 1_555 1_555
W3 O31 1_555 1_555
W3 O38 1_555 1_555
W5 O29 1_555 1_555
W5 O31 1_555 1_555
W6 O28 1_555 1_555
W6 O33 1_555 1_555
W7 O18 1_555 1_555
W7 O31 1_555 1_555
W7 O34 1_555 1_555
W7 O40 1_555 1_555
W8 O20 1_555 1_555
W8 O22 1_555 1_555
W8 O36 1_555 1_555
W8 O37 1_555 1_555
W9 O12 1_555 1_555
W9 O28 1_555 1_555
W10 O20 1_555 1_555
W10 O23 1_555 1_555
W10 O26 1_555 1_555
W11 O7 1_555 1_555
W11 O16 1_555 1_555
W11 O21 1_555 1_555
W11 O24 1_555 1_555
W11 O30 1_555 1_555
W12 O6 1_555 1_555
W12 O25 1_555 1_555
W12 O28 1_555 1_555
W12 O32 1_555 1_555
N3 C2 1_555 1_555
C8 C9 1_555 1_555
N5 N6 1_555 1_555
N6 C12 1_555 1_555
N9 C14 1_555 1_555
C20 C21 1_555 1_555
N10 Co1_2 1_555 1_555
C23 N11 1_555 1_555
N12 C24 1_555 1_555
N15 C26 1_555 1_555
N18 C32 1_555 1_555
N21 C38 1_555 1_555
N24 C44 1_555 1_555
N15A C26A 1_555 1_555
C28A C29A 1_555 1_555
C28A C30A 1_555 1_555
N18A C32A 1_555 1_555
C34A C35A 1_555 1_555
C34A C36A 1_555 1_555
N21A C38A 1_555 1_555
C40A C41A 1_555 1_555
C40A C42A 1_555 1_555
N24A C44A 1_555 1_555
C46A C47A 1_555 1_555
C46A C48A 1_555 1_555
W1A O30A 1_555 1_555
W2A O11A 1_555 1_555
W2A O30A 1_555 1_555
W3A O31A 1_555 1_555
W3A O38A 1_555 1_555
W5A O29A 1_555 1_555
W5A O31A 1_555 1_555
W6A O28A 1_555 1_555
W6A O33A 1_555 1_555
W7A O18A 1_555 1_555
W7A O31A 1_555 1_555
W7A O34A 1_555 1_555
W7A O35A 1_555 1_555
W7A O40A 1_555 1_555
W8A O20A 1_555 1_555
W8A O22A 1_555 1_555
W8A O36A 1_555 1_555
W8A O37A 1_555 1_555
W9A O12A 1_555 1_555
W9A O28A 1_555 1_555
W10A O20A 1_555 1_555
W10A O23A 1_555 1_555
W10A O26A 1_555 1_555
W11A O7A 1_555 1_555
W11A O16A 1_555 1_555
W11A O21A 1_555 1_555
W11A O24A 1_555 1_555
W11A O30A 1_555 1_555
W12A O6A 1_555 1_555
W12A O25A 1_555 1_555
W12A O28A 1_555 1_555
W12A O32A 1_555 1_555
N3A C2A 1_555 1_555
C8A C9A 1_555 1_555
N5A N6A 1_555 1_555
N6A C12A 1_555 1_555
N9A C14A 1_555 1_555
C20A C21A 1_555 1_555
N10A Co1A_2 1_555 1_555
C23A N11A 1_555 1_555
N12A C24A 1_555 1_555

#END
