
#######################################################################
#
#                 Cambridge Crystallographic Data Centre
#                                CCDC 
#
#######################################################################
#
# If this CIF has been generated from an entry in the Cambridge 
# Structural Database, then it will include bibliographic, chemical, 
# crystal, experimental, refinement or atomic coordinate data resulting 
# from the CCDC's data processing and validation procedures.
#
#######################################################################

data_TUVJOK
_symmetry_cell_setting           monoclinic
_symmetry_space_group_name_H-M   'P 21/c'
_symmetry_Int_Tables_number      14
_space_group_name_Hall           '-P 2ybc'
loop_
_symmetry_equiv_pos_site_id
_symmetry_equiv_pos_as_xyz
1 x,y,z
2 -x,1/2+y,1/2-z
3 -x,-y,-z
4 x,1/2-y,1/2+z
_cell_length_a                   11.4189(8)
_cell_length_b                   9.2717(6)
_cell_length_c                   8.1398(6)
_cell_angle_alpha                90
_cell_angle_beta                 90.949(6)
_cell_angle_gamma                90
_cell_volume                     861.664
loop_
_atom_site_label
_atom_site_type_symbol
_atom_site_fract_x
_atom_site_fract_y
_atom_site_fract_z
Cu1 Cu 0.50000 0.00000 0.00000
S1 S 0.36992(3) 0.44422(4) 0.19039(5)
O1 O -0.04472(9) 0.05771(12) 0.32324(15)
N1 N 0.48049(11) 0.19897(14) 0.07200(16)
N2 N 0.34418(10) -0.05173(13) 0.10519(14)
N3 N -0.07616(12) -0.17270(16) 0.2465(2)
C1 C 0.43536(11) 0.30085(14) 0.12198(15)
C2 C 0.26263(12) -0.12372(16) 0.01944(17)
C3 C 0.14759(12) -0.13524(16) 0.07075(17)
C4 C 0.11628(11) -0.06955(14) 0.21646(15)
C5 C 0.20270(12) -0.00300(15) 0.31047(17)
C6 C 0.31553(12) 0.00342(15) 0.25128(17)
C7 C -0.00928(11) -0.05722(15) 0.26817(17)
H1 H 0.28360 -0.16790 -0.07840
H2 H 0.09260 -0.18620 0.00840
H3 H 0.18520 0.03680 0.41200
H4 H 0.37350 0.04760 0.31520
H5 H -0.0460(19) -0.252(3) 0.218(3)
H6 H -0.147(2) -0.163(3) 0.268(3)
Cu1A Cu 0.50000 -0.50000 -0.50000
Cu1A_2 Cu 0.50000 0.50000 0.50000
S1B S 0.63008(3) -0.44422(4) -0.19039(5)
S1A S 0.63008(3) -0.05578(4) 0.30961(5)
S1C S 0.36992(3) 0.05578(4) -0.30961(5)
O1B O 1.04472(9) -0.05771(12) -0.32324(15)
N1B N 0.51951(11) -0.19897(14) -0.07200(16)
N2B N 0.65582(10) 0.05173(13) -0.10519(14)
N3B N 1.07616(12) 0.17270(16) -0.2465(2)
C1B C 0.56464(11) -0.30085(14) -0.12198(15)
C2B C 0.73737(12) 0.12372(16) -0.01944(17)
C3B C 0.85241(12) 0.13524(16) -0.07075(17)
C4B C 0.88372(11) 0.06955(14) -0.21646(15)
C5B C 0.79730(12) 0.00300(15) -0.31047(17)
C6B C 0.68447(12) -0.00342(15) -0.25128(17)
C7B C 1.00928(11) 0.05722(15) -0.26817(17)
H1B H 0.71640 0.16790 0.07840
H2B H 0.90740 0.18620 -0.00840
H3B H 0.81480 -0.03680 -0.41200
H4B H 0.62650 -0.04760 -0.31520
H5B H 1.0460(19) 0.252(3) -0.218(3)
H6B H 1.147(2) 0.163(3) -0.268(3)
loop_
_geom_bond_atom_site_label_1
_geom_bond_atom_site_label_2
_geom_bond_site_symmetry_1
_geom_bond_site_symmetry_2
Cu1 N1 1_555 1_555
S1 C1 1_555 1_555
O1 C7 1_555 1_555
N1 C1 1_555 1_555
N2 Cu1 1_555 1_555
N3 C7 1_555 1_555
C2 N2 1_555 1_555
C3 C2 1_555 1_555
C4 C3 1_555 1_555
C5 C4 1_555 1_555
C6 N2 1_555 1_555
C7 C4 1_555 1_555
H1 C2 1_555 1_555
H2 C3 1_555 1_555
H3 C5 1_555 1_555
H4 C6 1_555 1_555
H5 N3 1_555 1_555
H6 N3 1_555 1_555
Cu1A S1B 1_555 1_555
Cu1A_2 S1 1_555 1_555
S1B C1B 1_555 1_555
S1A Cu1 1_555 1_555
S1C Cu1 1_555 1_555
O1B C7B 1_555 1_555
N1B Cu1 1_555 1_555
N2B Cu1 1_555 1_555
N3B C7B 1_555 1_555
C1B N1B 1_555 1_555
C2B N2B 1_555 1_555
C3B C2B 1_555 1_555
C4B C3B 1_555 1_555
C5B C4B 1_555 1_555
C6B N2B 1_555 1_555
C7B C4B 1_555 1_555
H1B C2B 1_555 1_555
H2B C3B 1_555 1_555
H3B C5B 1_555 1_555
H4B C6B 1_555 1_555
H5B N3B 1_555 1_555
H6B N3B 1_555 1_555
C5 C6 1_555 1_555
C5B C6B 1_555 1_555

#END
