
#######################################################################
#
#                 Cambridge Crystallographic Data Centre
#                                CCDC 
#
#######################################################################
#
# If this CIF has been generated from an entry in the Cambridge 
# Structural Database, then it will include bibliographic, chemical, 
# crystal, experimental, refinement or atomic coordinate data resulting 
# from the CCDC's data processing and validation procedures.
#
#######################################################################

data_TUVJIE
_symmetry_cell_setting           monoclinic
_symmetry_space_group_name_H-M   'P 21/c'
_symmetry_Int_Tables_number      14
_space_group_name_Hall           '-P 2ybc'
loop_
_symmetry_equiv_pos_site_id
_symmetry_equiv_pos_as_xyz
1 x,y,z
2 -x,1/2+y,1/2-z
3 -x,-y,-z
4 x,1/2-y,1/2+z
_cell_length_a                   12.6830(3)
_cell_length_b                   9.7708(2)
_cell_length_c                   8.0736(2)
_cell_angle_alpha                90
_cell_angle_beta                 101.934(2)
_cell_angle_gamma                90
_cell_volume                     978.881
loop_
_atom_site_label
_atom_site_type_symbol
_atom_site_fract_x
_atom_site_fract_y
_atom_site_fract_z
Cu1 Cu 0.54439(2) 0.05825(3) 0.18027(3)
O1 O 0.97479(17) -0.17232(19) 0.7797(3)
N1 N 0.68610(14) 0.02693(19) 0.3362(2)
N2 N 1.01996(18) 0.0472(2) 0.8034(3)
N3 N 0.47209(15) 0.1212(2) 0.3609(2)
N4 N 0.52314(15) 0.17101(19) 0.4855(2)
N5 N 0.57073(19) 0.2184(2) 0.6097(3)
N6 N 0.40510(15) 0.0312(2) 0.0150(2)
N7 N 0.31775(15) 0.0150(2) 0.0469(2)
N8 N 0.23416(18) 0.0012(3) 0.0742(3)
C1 C 0.71152(19) -0.1000(2) 0.3930(3)
C2 C 0.80032(19) -0.1269(2) 0.5174(3)
C3 C 0.86631(17) -0.0207(2) 0.5885(3)
C4 C 0.84191(19) 0.1095(2) 0.5258(3)
C5 C 0.75117(19) 0.1287(2) 0.4010(3)
C6 C 0.95928(18) -0.0539(3) 0.7317(3)
H1 H 0.66750 -0.17230 0.34650
H2 H 0.81610 -0.21620 0.55380
H3 H 0.88610 0.18310 0.56710
H4 H 0.73470 0.21680 0.36030
H5 H 1.0697(19) 0.029(3) 0.888(3)
H6 H 1.012(2) 0.1320(19) 0.773(4)
Cu1C Cu 0.54439(2) 0.44175(3) 0.68027(3)
Cu1B Cu 0.45561(2) -0.05825(3) -0.18027(3)
N5C N 0.57073(19) 0.2816(2) 0.1097(3)
N6B N 0.59490(15) -0.0312(2) -0.0150(2)
loop_
_geom_bond_atom_site_label_1
_geom_bond_atom_site_label_2
_geom_bond_site_symmetry_1
_geom_bond_site_symmetry_2
Cu1 N1 1_555 1_555
O1 C6 1_555 1_555
N1 C1 1_555 1_555
N2 C6 1_555 1_555
N3 Cu1 1_555 1_555
N4 N3 1_555 1_555
N5 N4 1_555 1_555
N6 Cu1 1_555 1_555
N7 N6 1_555 1_555
N8 N7 1_555 1_555
C1 C2 1_555 1_555
C2 C3 1_555 1_555
C3 C4 1_555 1_555
C4 C5 1_555 1_555
C5 N1 1_555 1_555
C6 C3 1_555 1_555
H1 C1 1_555 1_555
H2 C2 1_555 1_555
H3 C4 1_555 1_555
H4 C5 1_555 1_555
H5 N2 1_555 1_555
H6 N2 1_555 1_555
Cu1C N5 1_555 1_555
Cu1B N6 1_555 1_555
N5C Cu1 1_555 1_555
N6B Cu1 1_555 1_555
Cu1B N6B 1_555 1_555

#END
