
#######################################################################
#
#                 Cambridge Crystallographic Data Centre
#                                CCDC 
#
#######################################################################
#
# If this CIF has been generated from an entry in the Cambridge 
# Structural Database, then it will include bibliographic, chemical, 
# crystal, experimental, refinement or atomic coordinate data resulting 
# from the CCDC's data processing and validation procedures.
#
#######################################################################

data_TUVJEA
_symmetry_cell_setting           monoclinic
_symmetry_space_group_name_H-M   'P 21/n'
_symmetry_Int_Tables_number      14
_space_group_name_Hall           '-P 2yn'
loop_
_symmetry_equiv_pos_site_id
_symmetry_equiv_pos_as_xyz
1 x,y,z
2 1/2-x,1/2+y,1/2-z
3 -x,-y,-z
4 1/2+x,1/2-y,1/2+z
_cell_length_a                   20.8440(3)
_cell_length_b                   14.1347(2)
_cell_length_c                   22.2968(3)
_cell_angle_alpha                90
_cell_angle_beta                 98.3040(10)
_cell_angle_gamma                90
_cell_volume                     6500.29
loop_
_atom_site_label
_atom_site_type_symbol
_atom_site_fract_x
_atom_site_fract_y
_atom_site_fract_z
Cd1 Cd 0.70306(2) 0.70969(3) 0.756954(17)
Cd2 Cd 0.516648(19) 0.81537(3) 0.798566(18)
Cd3 Cd 0.67420(2) 0.72880(3) 0.937248(18)
Se1 Se 0.56434(3) 0.98945(4) 0.78892(2)
Se2 Se 0.54684(3) 0.75809(4) 0.91211(2)
Se3 Se 0.72044(3) 0.61555(4) 0.85913(2)
Se4 Se 0.73275(3) 0.62595(4) 0.65798(2)
Se5 Se 0.57450(3) 0.69917(5) 0.73013(3)
Br1 Br 0.70136(3) 0.65624(6) 1.04297(3)
P1 P 0.39364(7) 0.82062(12) 0.76097(6)
C1 C 0.5264(3) 1.0496(5) 0.9050(3)
H1 H 0.5553 1.0041 0.9229
C2 C 0.3442(4) 0.8513(6) 0.9548(3)
H2 H 0.3226 0.8628 0.9899
H3 H 0.3888 0.8337 0.9693
C3 C 0.8428(5) 0.8659(6) 0.5685(4)
H4 H 0.8641 0.914 0.5508
C4 C 0.3103(5) 0.5268(8) 0.6925(5)
H5 H 0.2942 0.5123 0.7302
H6 H 0.3001 0.4734 0.6655
C5 C 0.4097(4) 1.0067(7) 0.6191(4)
H7 H 0.4346 1.0556 0.6426
H8 H 0.429 0.996 0.5826
C6 C 0.7790(3) 0.7233(4) 0.6216(2)
C7 C 0.7764(5) 0.8662(5) 0.5646(3)
H9 H 0.7529 0.915 0.5438
C8 C 0.5103(3) 0.6328(4) 0.9100(3)
C9 C 0.3086(4) 0.9536(7) 0.6890(4)
H10 H 0.2868 0.9056 0.6624
H11 H 0.2858 0.9595 0.7238
C10 C 0.3743(3) 0.9229(5) 0.8623(3)
H12 H 0.4206 0.9143 0.8739
H13 H 0.368 0.9792 0.8372
C11 C 0.5188(3) 1.0630(4) 0.8423(3)
C12 C 0.4129(3) 0.9164(6) 0.6559(3)
H14 H 0.3942 0.8653 0.6301
H15 H 0.458 0.9008 0.6694
C13 C 0.3444(4) 0.7504(6) 0.8624(3)
H16 H 0.3883 0.7293 0.8766
H17 H 0.3223 0.7003 0.8379
C14 C 0.3469(3) 0.8368(5) 0.8243(3)
H18 H 0.3022 0.8521 0.8067
C15 C 0.3644(3) 0.7151(5) 0.7178(3)
H19 H 0.3798 0.7215 0.6785
C16 C 0.3097(4) 0.7684(7) 0.9167(3)
H20 H 0.3106 0.7118 0.9414
H21 H 0.2647 0.7848 0.9031
C17 C 0.4915(3) 1.1030(5) 0.9403(3)
H22 H 0.4971 1.0942 0.9821
C18 C 0.3779(3) 0.9233(5) 0.7101(3)
H23 H 0.398 0.977 0.7334
C19 C 0.3434(4) 0.9383(6) 0.9186(3)
H24 H 0.3665 0.9879 0.9429
H25 H 0.2989 0.9589 0.9071
C20 C 0.5538(3) 0.7085(6) 0.6005(3)
H26 H 0.544 0.6445 0.6029
C21 C 0.5706(3) 0.7623(5) 0.6523(3)
C22 C 0.4755(3) 1.1311(5) 0.8168(3)
H27 H 0.4695 1.1403 0.7751
C23 C 0.8400(3) 0.6319(5) 0.9411(3)
H28 H 0.8142 0.6256 0.9716
C24 C 0.4412(4) 1.1853(5) 0.8523(4)
H29 H 0.4134 1.2324 0.8349
C25 C 0.4484(4) 1.1691(5) 0.9141(4)
H30 H 0.4237 1.2036 0.9381
C26 C 0.7434(4) 0.7955(5) 0.5908(3)
H31 H 0.6984 0.7967 0.5877
C27 C 0.8511(3) 0.6348(5) 0.8352(3)
H32 H 0.8327 0.6308 0.7948
C28 C 0.2921(3) 0.7019(6) 0.7035(3)
H33 H 0.2729 0.7567 0.6817
H34 H 0.2738 0.6965 0.741
C29 C 0.4629(4) 0.6125(5) 0.9461(3)
H35 H 0.4512 0.6585 0.9723
C30 C 0.9457(3) 0.6533(6) 0.9100(3)
H36 H 0.9902 0.6625 0.9199
C31 C 0.5674(3) 0.8485(7) 0.5423(3)
H37 H 0.5655 0.8775 0.5047
C32 C 0.8448(3) 0.7224(5) 0.6254(4)
H38 H 0.8687 0.6738 0.6461
C33 C 0.9060(4) 0.6450(6) 0.9554(3)
H39 H 0.9245 0.6485 0.9959
C34 C 0.8127(3) 0.6283(5) 0.8804(3)
C35 C 0.3805(4) 0.5376(6) 0.7049(4)
H40 H 0.3978 0.5461 0.6671
H41 H 0.3998 0.4811 0.7245
C36 C 0.5282(3) 0.5628(5) 0.8726(3)
H42 H 0.5602 0.5741 0.8485
C37 C 0.9176(3) 0.6476(6) 0.8507(3)
H43 H 0.9434 0.6523 0.8201
C38 C 0.8767(4) 0.7944(6) 0.5984(4)
H44 H 0.9216 0.793 0.6011
C39 C 0.4971(4) 0.4734(5) 0.8712(4)
H45 H 0.5096 0.4257 0.8465
C40 C 0.5860(3) 0.8572(5) 0.6481(3)
H46 H 0.5972 0.8923 0.6833
C41 C 0.3979(4) 0.6260(6) 0.7471(4)
H47 H 0.3839 0.6149 0.7861
H48 H 0.4445 0.6353 0.7536
C42 C 0.5850(4) 0.9000(6) 0.5931(3)
H49 H 0.5962 0.9635 0.5906
C43 C 0.2756(4) 0.6121(7) 0.6648(4)
H50 H 0.2293 0.6011 0.6603
H51 H 0.2874 0.6222 0.6248
C44 C 0.5521(4) 0.7535(7) 0.5450(3)
H52 H 0.5405 0.7196 0.5094
C45 C 0.4334(4) 0.5268(6) 0.9437(4)
H53 H 0.4018 0.5151 0.9683
C46 C 0.3062(5) 1.0459(9) 0.6562(4)
H54 H 0.326 1.0946 0.6834
H55 H 0.2614 1.0634 0.6431
C47 C 0.4494(4) 0.4563(6) 0.9053(4)
H56 H 0.4279 0.3984 0.903
C48 C 0.3412(5) 1.0396(7) 0.6021(4)
H57 H 0.3412 1.1014 0.5831
H58 H 0.3184 0.9961 0.5729
Cd4 Cd 0.689368(19) 0.97862(3) 0.834545(17)
Se6 Se 0.73900(3) 0.88655(4) 0.74880(2)
Se7 Se 0.69566(3) 0.91425(4) 0.94654(2)
C49 C 0.8287(3) 0.8912(4) 0.7853(2)
C50 C 0.7829(3) 0.9347(5) 0.9837(3)
C51 C 0.8460(4) 0.8845(6) 0.8463(3)
H59 H 0.8146 0.8727 0.871
C52 C 0.8073(4) 1.0245(6) 0.9933(3)
H60 H 0.7804 1.0759 0.9818
C53 C 0.9109(4) 0.8954(6) 0.8718(4)
H61 H 0.9232 0.8935 0.9136
C54 C 0.8224(3) 0.8597(6) 1.0055(3)
H62 H 0.8067 0.798 1.0017
C55 C 0.8737(4) 0.9114(7) 0.7495(4)
H63 H 0.8616 0.9214 0.7082
C56 C 0.9563(4) 0.9089(7) 0.8333(5)
H64 H 1.0001 0.9122 0.849
C57 C 0.8855(4) 0.8771(8) 1.0329(4)
H65 H 0.9124 0.827 1.0472
C58 C 0.8690(5) 1.0403(8) 1.0189(4)
H66 H 0.8845 1.102 1.0227
C59 C 0.9080(5) 0.9686(9) 1.0388(4)
H67 H 0.9504 0.9805 1.0566
C60 C 0.9382(4) 0.9171(9) 0.7752(4)
H68 H 0.9695 0.9272 0.7501
Se4A Se 0.76725(3) 1.12595(4) 0.84202(2)
Cd4A Cd 0.810632(19) 0.47862(3) 0.665455(17)
loop_
_geom_bond_atom_site_label_1
_geom_bond_atom_site_label_2
_geom_bond_site_symmetry_1
_geom_bond_site_symmetry_2
Cd1 Se3 1_555 1_555
Cd2 Se1 1_555 1_555
Cd3 Se2 1_555 1_555
Se1 C11 1_555 1_555
Se2 Cd2 1_555 1_555
Se3 Cd3 1_555 1_555
Se4 Cd1 1_555 1_555
Se5 Cd1 1_555 1_555
Br1 Cd3 1_555 1_555
P1 Cd2 1_555 1_555
C1 H1 1_555 1_555
C2 H2 1_555 1_555
H3 C2 1_555 1_555
C3 H4 1_555 1_555
C4 H5 1_555 1_555
H6 C4 1_555 1_555
C5 H7 1_555 1_555
H8 C5 1_555 1_555
C6 Se4 1_555 1_555
C7 C3 1_555 1_555
H9 C7 1_555 1_555
C8 Se2 1_555 1_555
C9 H10 1_555 1_555
H11 C9 1_555 1_555
C10 H12 1_555 1_555
H13 C10 1_555 1_555
C11 C1 1_555 1_555
C12 C5 1_555 1_555
H14 C12 1_555 1_555
H15 C12 1_555 1_555
C13 H16 1_555 1_555
H17 C13 1_555 1_555
C14 P1 1_555 1_555
H18 C14 1_555 1_555
C15 P1 1_555 1_555
H19 C15 1_555 1_555
C16 C2 1_555 1_555
H20 C16 1_555 1_555
H21 C16 1_555 1_555
C17 C1 1_555 1_555
H22 C17 1_555 1_555
C18 P1 1_555 1_555
H23 C18 1_555 1_555
C19 C2 1_555 1_555
H24 C19 1_555 1_555
H25 C19 1_555 1_555
C20 H26 1_555 1_555
C21 Se5 1_555 1_555
C22 C11 1_555 1_555
H27 C22 1_555 1_555
C23 H28 1_555 1_555
C24 C22 1_555 1_555
H29 C24 1_555 1_555
C25 C17 1_555 1_555
H30 C25 1_555 1_555
C26 C6 1_555 1_555
H31 C26 1_555 1_555
C27 H32 1_555 1_555
C28 C15 1_555 1_555
H33 C28 1_555 1_555
H34 C28 1_555 1_555
C29 C8 1_555 1_555
H35 C29 1_555 1_555
C30 H36 1_555 1_555
C31 H37 1_555 1_555
C32 C6 1_555 1_555
H38 C32 1_555 1_555
C33 C23 1_555 1_555
H39 C33 1_555 1_555
C34 Se3 1_555 1_555
C35 C4 1_555 1_555
H40 C35 1_555 1_555
H41 C35 1_555 1_555
C36 C8 1_555 1_555
H42 C36 1_555 1_555
C37 C27 1_555 1_555
H43 C37 1_555 1_555
C38 C3 1_555 1_555
H44 C38 1_555 1_555
C39 C36 1_555 1_555
H45 C39 1_555 1_555
C40 C21 1_555 1_555
H46 C40 1_555 1_555
C41 C15 1_555 1_555
H47 C41 1_555 1_555
H48 C41 1_555 1_555
C42 C31 1_555 1_555
H49 C42 1_555 1_555
C43 C4 1_555 1_555
H50 C43 1_555 1_555
H51 C43 1_555 1_555
C44 C20 1_555 1_555
H52 C44 1_555 1_555
C45 C29 1_555 1_555
H53 C45 1_555 1_555
C46 C9 1_555 1_555
H54 C46 1_555 1_555
H55 C46 1_555 1_555
C47 C39 1_555 1_555
H56 C47 1_555 1_555
C48 C5 1_555 1_555
H57 C48 1_555 1_555
H58 C48 1_555 1_555
Cd4 Se1 1_555 1_555
Se6 Cd1 1_555 1_555
Se7 Cd3 1_555 1_555
C49 Se6 1_555 1_555
C50 Se7 1_555 1_555
C51 C49 1_555 1_555
H59 C51 1_555 1_555
C52 C50 1_555 1_555
H60 C52 1_555 1_555
C53 C51 1_555 1_555
H61 C53 1_555 1_555
C54 C50 1_555 1_555
H62 C54 1_555 1_555
C55 C49 1_555 1_555
H63 C55 1_555 1_555
C56 C53 1_555 1_555
H64 C56 1_555 1_555
C57 C54 1_555 1_555
H65 C57 1_555 1_555
C58 C52 1_555 1_555
H66 C58 1_555 1_555
C59 C57 1_555 1_555
H67 C59 1_555 1_555
C60 C55 1_555 1_555
H68 C60 1_555 1_555
Se4A Cd4 1_555 1_555
Cd4A Se4 1_555 1_555
Cd2 Se5 1_555 1_555
C7 C26 1_555 1_555
C9 C18 1_555 1_555
C10 C14 1_555 1_555
C10 C19 1_555 1_555
C12 C18 1_555 1_555
C13 C14 1_555 1_555
C13 C16 1_555 1_555
C20 C21 1_555 1_555
C23 C34 1_555 1_555
C24 C25 1_555 1_555
C27 C34 1_555 1_555
C28 C43 1_555 1_555
C30 C33 1_555 1_555
C30 C37 1_555 1_555
C31 C44 1_555 1_555
C32 C38 1_555 1_555
C35 C41 1_555 1_555
C40 C42 1_555 1_555
C45 C47 1_555 1_555
C46 C48 1_555 1_555
Cd4 Se6 1_555 1_555
Cd4 Se7 1_555 1_555
C56 C60 1_555 1_555
C58 C59 1_555 1_555

#END
