
#######################################################################
#
#                 Cambridge Crystallographic Data Centre
#                                CCDC 
#
#######################################################################
#
# If this CIF has been generated from an entry in the Cambridge 
# Structural Database, then it will include bibliographic, chemical, 
# crystal, experimental, refinement or atomic coordinate data resulting 
# from the CCDC's data processing and validation procedures.
#
#######################################################################

data_TUVKUR
_symmetry_cell_setting           monoclinic
_symmetry_space_group_name_H-M   'P 21/n'
_symmetry_Int_Tables_number      14
_space_group_name_Hall           '-P 2yn'
loop_
_symmetry_equiv_pos_site_id
_symmetry_equiv_pos_as_xyz
1 x,y,z
2 1/2-x,1/2+y,1/2-z
3 -x,-y,-z
4 1/2+x,1/2-y,1/2+z
_cell_length_a                   7.8345(4)
_cell_length_b                   18.0559(10)
_cell_length_c                   15.9748(8)
_cell_angle_alpha                90
_cell_angle_beta                 96.270(4)
_cell_angle_gamma                90
_cell_volume                     2246.26
loop_
_atom_site_label
_atom_site_type_symbol
_atom_site_fract_x
_atom_site_fract_y
_atom_site_fract_z
Cu1 Cu 0.34429(7) 0.30940(3) 0.63430(3)
Hg1 Hg 0.44984(2) 0.098684(11) 0.380036(12)
N1 N 0.6786(5) 0.2162(2) 0.2153(3)
C1 C 0.5824(6) 0.2237(3) 0.2639(3)
S1 S 0.44321(17) 0.23515(8) 0.33382(9)
N2 N -0.0094(5) 0.1440(2) 0.2302(3)
C2 C 0.0586(6) 0.1066(3) 0.2822(3)
S2 S 0.14764(16) 0.04871(8) 0.35501(9)
N3 N 0.5586(6) 0.0235(3) 0.1420(3)
C3 C 0.5998(6) 0.0243(3) 0.2134(3)
S3 S 0.66986(17) 0.02040(9) 0.31543(9)
N4 N 0.4841(5) 0.2060(3) 0.6185(3)
C4 C 0.5307(6) 0.1575(3) 0.5805(3)
S4 S 0.60131(18) 0.08646(8) 0.52917(8)
N5 N 0.4766(5) 0.3641(2) 0.5526(2)
N6 N 0.3931(5) 0.3970(2) 0.4824(2)
N7 N 0.1366(5) 0.3272(2) 0.4700(2)
N8 N 0.1653(5) 0.2818(2) 0.5378(2)
C5 C 0.6450(6) 0.3686(3) 0.5444(3)
C6 C 0.6671(6) 0.4051(3) 0.4692(3)
H1 H 0.7713 0.4160 0.4491
C7 C 0.5059(7) 0.4219(3) 0.4301(3)
C8 C 0.7783(6) 0.3357(4) 0.6062(3)
H2 H 0.7922 0.3658 0.6560
H3 H 0.8852 0.3333 0.5820
H4 H 0.7441 0.2866 0.6205
C9 C 0.4498(7) 0.4569(3) 0.3472(3)
H5 H 0.3950 0.4205 0.3096
H6 H 0.5479 0.4767 0.3238
H7 H 0.3703 0.4962 0.3548
C10 C 0.0789(6) 0.2196(3) 0.5178(3)
C11 C -0.0063(6) 0.2267(3) 0.4373(3)
H8 H -0.0772 0.1914 0.4089
C12 C 0.0328(6) 0.2948(3) 0.4072(3)
C13 C 0.0768(7) 0.1548(3) 0.5762(3)
H9 H 0.1759 0.1567 0.6171
H10 H 0.0784 0.1097 0.5445
H11 H -0.0254 0.1565 0.6043
C14 C -0.0146(7) 0.3307(3) 0.3240(3)
H12 H -0.0817 0.3742 0.3313
H13 H -0.0805 0.2967 0.2872
H14 H 0.0878 0.3443 0.2997
C15 C 0.2087(6) 0.4010(3) 0.4750(3)
H15 H 0.1672 0.4287 0.4248
H16 H 0.1725 0.4266 0.5234
Cu1C Cu -0.15571(7) 0.19060(3) 0.13430(3)
Cu1C_2 Cu 0.84429(7) 0.19060(3) 0.13430(3)
N1C N 0.1786(5) 0.2838(2) 0.7153(3)
N2C N 0.4906(5) 0.3560(2) 0.7302(3)
loop_
_geom_bond_atom_site_label_1
_geom_bond_atom_site_label_2
_geom_bond_site_symmetry_1
_geom_bond_site_symmetry_2
Cu1 N4 1_555 1_555
Hg1 S1 1_555 1_555
N1 C1 1_555 1_555
C1 S1 1_555 1_555
N2 C2 1_555 1_555
C2 S2 1_555 1_555
S2 Hg1 1_555 1_555
N3 C3 1_555 1_555
C3 S3 1_555 1_555
S3 Hg1 1_555 1_555
N4 C4 1_555 1_555
C4 S4 1_555 1_555
S4 Hg1 1_555 1_555
N5 Cu1 1_555 1_555
N6 N5 1_555 1_555
N7 N8 1_555 1_555
N8 Cu1 1_555 1_555
C5 N5 1_555 1_555
C6 C5 1_555 1_555
H1 C6 1_555 1_555
C7 N6 1_555 1_555
C8 C5 1_555 1_555
H2 C8 1_555 1_555
H3 C8 1_555 1_555
H4 C8 1_555 1_555
C9 C7 1_555 1_555
H5 C9 1_555 1_555
H6 C9 1_555 1_555
H7 C9 1_555 1_555
C10 N8 1_555 1_555
C11 C10 1_555 1_555
H8 C11 1_555 1_555
C12 N7 1_555 1_555
C13 C10 1_555 1_555
H9 C13 1_555 1_555
H10 C13 1_555 1_555
H11 C13 1_555 1_555
C14 C12 1_555 1_555
H12 C14 1_555 1_555
H13 C14 1_555 1_555
H14 C14 1_555 1_555
C15 N6 1_555 1_555
H15 C15 1_555 1_555
H16 C15 1_555 1_555
Cu1C N2 1_555 1_555
Cu1C_2 N1 1_555 1_555
N1C Cu1 1_555 1_555
N2C Cu1 1_555 1_555
N7 C15 1_555 1_555
C6 C7 1_555 1_555
C11 C12 1_555 1_555

#END
