
#######################################################################
#
#                 Cambridge Crystallographic Data Centre
#                                CCDC 
#
#######################################################################
#
# If this CIF has been generated from an entry in the Cambridge 
# Structural Database, then it will include bibliographic, chemical, 
# crystal, experimental, refinement or atomic coordinate data resulting 
# from the CCDC's data processing and validation procedures.
#
#######################################################################

data_TUVMUS
_symmetry_cell_setting           orthorhombic
_symmetry_space_group_name_H-M   'P c c n'
_symmetry_Int_Tables_number      56
_space_group_name_Hall           '-P 2ab 2ac'
loop_
_symmetry_equiv_pos_site_id
_symmetry_equiv_pos_as_xyz
1 x,y,z
2 1/2+x,1/2+y,-z
3 1/2-x,y,1/2+z
4 x,1/2-y,1/2+z
5 -x,-y,-z
6 1/2-x,1/2-y,z
7 1/2+x,-y,1/2-z
8 -x,1/2+y,1/2-z
_cell_length_a                   14.7106(8)
_cell_length_b                   10.4709(4)
_cell_length_c                   11.9540(6)
_cell_angle_alpha                90
_cell_angle_beta                 90
_cell_angle_gamma                90
_cell_volume                     1841.31
loop_
_atom_site_label
_atom_site_type_symbol
_atom_site_fract_x
_atom_site_fract_y
_atom_site_fract_z
Au1 Au 0.2500 0.2500 0.57319(2)
Tl1 Tl 0.2500 0.2500 0.82451(3)
Cl1 Cl 0.16951(11) -0.01377(15) 0.70057(11)
Cl2 Cl -0.03509(11) -0.08175(15) 0.73059(13)
Cl3 Cl -0.18323(10) 0.07945(16) 0.60738(14)
Cl4 Cl -0.12609(11) 0.30669(17) 0.45615(13)
Cl5 Cl 0.07563(10) 0.38628(15) 0.44008(12)
C1 C 0.1170(4) 0.1878(6) 0.5764(4)
C2 C 0.0866(4) 0.0808(6) 0.6372(4)
C3 C -0.0037(4) 0.0482(6) 0.6483(5)
C4 C -0.0703(4) 0.1178(6) 0.5941(5)
C5 C -0.0449(4) 0.2221(5) 0.5281(5)
C6 C 0.0462(4) 0.2540(5) 0.5226(5)
Cl1E Cl 0.33049(11) 0.51377(15) 0.70057(11)
Cl2E Cl 0.53509(11) 0.58175(15) 0.73059(13)
Cl3E Cl 0.68323(10) 0.42055(16) 0.60738(14)
Cl4E Cl 0.62609(11) 0.19331(17) 0.45615(13)
Cl5E Cl 0.42437(10) 0.11372(15) 0.44008(12)
C1E C 0.3830(4) 0.3122(6) 0.5764(4)
C2E C 0.4134(4) 0.4192(6) 0.6372(4)
C3E C 0.5037(4) 0.4518(6) 0.6483(5)
C4E C 0.5703(4) 0.3822(6) 0.5941(5)
C5E C 0.5449(4) 0.2779(5) 0.5281(5)
C6E C 0.4538(4) 0.2460(5) 0.5226(5)
Tl1B Tl 0.2500 0.2500 0.32451(3)
Au1B Au 0.2500 0.2500 1.07319(2)
loop_
_geom_bond_atom_site_label_1
_geom_bond_atom_site_label_2
_geom_bond_site_symmetry_1
_geom_bond_site_symmetry_2
Au1 Tl1 1_555 1_555
Tl1 Au1B 1_555 1_555
Cl1 C2 1_555 1_555
Cl2 C3 1_555 1_555
Cl3 C4 1_555 1_555
Cl4 C5 1_555 1_555
Cl5 C6 1_555 1_555
C1 Au1 1_555 1_555
C2 C1 1_555 1_555
C3 C2 1_555 1_555
C4 C3 1_555 1_555
C5 C4 1_555 1_555
C6 C1 1_555 1_555
Cl1E C2E 1_555 1_555
Cl2E C3E 1_555 1_555
Cl3E C4E 1_555 1_555
Cl4E C5E 1_555 1_555
Cl5E C6E 1_555 1_555
C1E Au1 1_555 1_555
C2E C1E 1_555 1_555
C3E C2E 1_555 1_555
C4E C3E 1_555 1_555
C5E C4E 1_555 1_555
C6E C1E 1_555 1_555
Tl1B Au1 1_555 1_555
C5 C6 1_555 1_555
C5E C6E 1_555 1_555

#END
