
#######################################################################
#
#                 Cambridge Crystallographic Data Centre
#                                CCDC 
#
#######################################################################
#
# If this CIF has been generated from an entry in the Cambridge 
# Structural Database, then it will include bibliographic, chemical, 
# crystal, experimental, refinement or atomic coordinate data resulting 
# from the CCDC's data processing and validation procedures.
#
#######################################################################

data_TUVPAD
_symmetry_cell_setting           triclinic
_symmetry_space_group_name_H-M   'P -1'
_symmetry_Int_Tables_number      2
_space_group_name_Hall           '-P 1'
loop_
_symmetry_equiv_pos_site_id
_symmetry_equiv_pos_as_xyz
1 x,y,z
2 -x,-y,-z
_cell_length_a                   8.3937(2)
_cell_length_b                   15.4728(4)
_cell_length_c                   29.2585(8)
_cell_angle_alpha                99.1330(10)
_cell_angle_beta                 96.0620(10)
_cell_angle_gamma                102.1610(10)
_cell_volume                     3629.3
loop_
_atom_site_label
_atom_site_type_symbol
_atom_site_fract_x
_atom_site_fract_y
_atom_site_fract_z
Au1 Au -0.06448(2) 0.54637(2) 0.72066(2)
Au2 Au 0.08316(2) 0.43001(2) 0.76289(2)
Au3 Au 0.43807(2) 0.52609(2) 0.79397(2)
Au4 Au 0.57706(2) 0.47081(2) 0.71644(2)
S1 S -0.11621(9) 0.44226(5) 0.65166(2)
S2 S 0.14545(9) 0.35497(5) 0.69608(2)
S3 S -0.00586(9) 0.65772(5) 0.78671(2)
S4 S 0.01725(11) 0.49462(5) 0.83215(2)
S5 S 0.42346(10) 0.39279(5) 0.82080(3)
S6 S 0.63031(9) 0.34702(5) 0.74296(2)
S7 S 0.45971(10) 0.66739(5) 0.77723(3)
S8 S 0.52842(10) 0.58639(5) 0.68046(2)
N1 N 0.0446(3) 0.33421(16) 0.60685(8)
N2 N -0.0066(3) 0.31544(17) 0.52632(8)
N3 N 0.0549(3) 0.66138(16) 0.87668(8)
N4 N 0.1174(3) 0.67877(16) 0.95724(8)
N5 N 0.5593(3) 0.25298(15) 0.80719(8)
N6 N 0.5345(3) 0.16432(16) 0.86429(8)
N7 N 0.4980(3) 0.75282(15) 0.70815(8)
N8 N 0.5245(3) 0.84533(16) 0.65319(8)
C1 C 0.1276(4) 0.2601(2) 0.60342(10)
C2 C 0.0358(4) 0.1749(2) 0.60480(11)
C3 C 0.1214(5) 0.1060(2) 0.60419(12)
H1 H 0.0632 0.0465 0.6048
C4 C 0.2871(5) 0.1232(3) 0.60274(12)
H2 H 0.3431 0.0759 0.6031
C5 C 0.3745(5) 0.2087(3) 0.60081(11)
H3 H 0.4895 0.2195 0.5996
C6 C 0.2949(4) 0.2792(2) 0.60068(10)
C7 C -0.1454(5) 0.1577(2) 0.60726(13)
H4 H -0.1636 0.1886 0.6375
H5 H -0.1908 0.0929 0.6038
H6 H -0.2001 0.1806 0.5820
C8 C 0.3873(4) 0.3725(2) 0.59810(11)
H7 H 0.5058 0.3776 0.6059
H8 H 0.3526 0.4167 0.6204
H9 H 0.3637 0.3839 0.5664
C9 C -0.0609(4) 0.3477(2) 0.48585(10)
C10 C -0.2219(4) 0.3595(2) 0.47679(10)
C11 C -0.2694(4) 0.3850(2) 0.43486(11)
H10 H -0.3773 0.3942 0.4286
C12 C -0.1635(4) 0.3972(2) 0.40215(11)
H11 H -0.1988 0.4139 0.3736
C13 C -0.0049(4) 0.3849(2) 0.41147(10)
H12 H 0.0681 0.3931 0.3890
C14 C 0.0485(4) 0.36075(19) 0.45309(10)
C15 C -0.3443(4) 0.3436(3) 0.51065(11)
H13 H -0.3234 0.3965 0.5357
H14 H -0.3325 0.2908 0.5241
H15 H -0.4563 0.3333 0.4941
C16 C 0.2229(4) 0.3520(2) 0.46406(11)
H16 H 0.2739 0.3487 0.4354
H17 H 0.2231 0.2972 0.4768
H18 H 0.2855 0.4045 0.4871
C17 C -0.0065(4) 0.3625(2) 0.56558(10)
H19 H -0.0410 0.4175 0.5673
C18 C 0.0275(4) 0.37722(19) 0.65037(10)
C19 C 0.0338(4) 0.75294(19) 0.88284(9)
C20 C -0.1226(4) 0.7663(2) 0.88859(10)
C21 C -0.1403(4) 0.8548(2) 0.89660(11)
H20 H -0.2456 0.8663 0.9000
C22 C -0.0061(5) 0.9263(2) 0.89963(12)
H21 H -0.0201 0.9862 0.9052
C23 C 0.1477(4) 0.9106(2) 0.89464(11)
H22 H 0.2391 0.9601 0.8972
C24 C 0.1710(4) 0.8231(2) 0.88585(10)
C25 C -0.2645(4) 0.6878(2) 0.88753(12)
H23 H -0.2421 0.6577 0.9138
H24 H -0.2782 0.6451 0.8580
H25 H -0.3655 0.7093 0.8901
C26 C 0.3375(4) 0.8060(2) 0.88031(11)
H26 H 0.4191 0.8635 0.8857
H27 H 0.3353 0.7735 0.8485
H28 H 0.3673 0.7698 0.9030
C27 C 0.1015(4) 0.63011(19) 0.91766(10)
H29 H 0.1210 0.5714 0.9153
C28 C 0.1660(4) 0.64019(19) 0.99639(10)
C29 C 0.0539(4) 0.6276(2) 1.02855(10)
C30 C 0.0980(5) 0.5927(2) 1.06723(11)
H30 H 0.0235 0.5842 1.0893
C31 C 0.2470(5) 0.5698(2) 1.07471(12)
H31 H 0.2739 0.5446 1.1013
C32 C 0.3571(5) 0.5837(2) 1.04332(12)
H32 H 0.4609 0.5691 1.0490
C33 C 0.3196(4) 0.6188(2) 1.00333(11)
C34 C -0.1119(4) 0.6487(2) 1.01952(12)
H33 H -0.1825 0.6017 0.9949
H34 H -0.0990 0.7070 1.0095
H35 H -0.1625 0.6510 1.0482
C35 C 0.4444(4) 0.6360(2) 0.97013(12)
H36 H 0.5527 0.6330 0.9851
H37 H 0.4502 0.6957 0.9623
H38 H 0.4110 0.5902 0.9415
C36 C 0.0262(4) 0.60706(19) 0.83341(10)
C37 C 0.6125(4) 0.18485(18) 0.77632(10)
C38 C 0.4947(4) 0.12673(19) 0.74134(10)
C39 C 0.5493(4) 0.0650(2) 0.71044(11)
H39 H 0.4727 0.0243 0.6863
C40 C 0.7126(5) 0.0622(2) 0.71447(12)
H40 H 0.7475 0.0198 0.6930
C41 C 0.8269(4) 0.1204(2) 0.74939(12)
H41 H 0.9394 0.1178 0.7515
C42 C 0.7781(4) 0.1828(2) 0.78142(10)
C43 C 0.3168(4) 0.1319(2) 0.73669(11)
H42 H 0.3051 0.1861 0.7245
H43 H 0.2796 0.1345 0.7674
H44 H 0.2498 0.0785 0.7151
C44 C 0.9002(4) 0.2468(2) 0.81979(11)
H45 H 0.8785 0.3070 0.8224
H46 H 1.0121 0.2489 0.8125
H47 H 0.8895 0.2260 0.8495
C45 C 0.5277(4) 0.23827(19) 0.85169(10)
H48 H 0.5007 0.2845 0.8728
C46 C 0.4913(4) 0.15272(18) 0.90925(10)
C47 C 0.3321(4) 0.15387(19) 0.91956(10)
C48 C 0.2926(4) 0.1351(2) 0.96253(11)
H49 H 0.1856 0.1363 0.9701
C49 C 0.4075(4) 0.1146(2) 0.99470(11)
H50 H 0.3789 0.1017 1.0238
C50 C 0.5633(4) 0.1133(2) 0.98382(11)
H51 H 0.6415 0.0999 1.0059
C51 C 0.6083(4) 0.13131(19) 0.94129(10)
C52 C 0.2015(4) 0.1710(2) 0.88468(11)
H52 H 0.2263 0.2348 0.8824
H53 H 0.0936 0.1548 0.8950
H54 H 0.1998 0.1344 0.8540
C53 C 0.7772(4) 0.1303(2) 0.92988(11)
H55 H 0.7692 0.0944 0.8986
H56 H 0.8349 0.1039 0.9530
H57 H 0.8383 0.1920 0.9306
C54 C 0.5398(4) 0.33017(19) 0.79132(10)
C55 C 0.4617(4) 0.82535(18) 0.74052(10)
C56 C 0.2986(4) 0.83316(19) 0.73848(10)
C57 C 0.2650(4) 0.9014(2) 0.77029(11)
H58 H 0.1547 0.9074 0.7705
C58 C 0.3910(4) 0.9607(2) 0.80176(11)
H59 H 0.3667 1.0077 0.8230
C59 C 0.5513(4) 0.9521(2) 0.80232(10)
H60 H 0.6362 0.9934 0.8240
C60 C 0.5913(4) 0.88369(19) 0.77168(10)
C61 C 0.1652(4) 0.7698(2) 0.70327(10)
H61 H 0.0581 0.7813 0.7092
H62 H 0.1667 0.7076 0.7059
H63 H 0.1837 0.7791 0.6717
C62 C 0.7655(4) 0.8733(2) 0.77213(11)
H64 H 0.7743 0.8165 0.7819
H65 H 0.8397 0.9236 0.7941
H66 H 0.7959 0.8730 0.7407
C63 C 0.5318(4) 0.77009(19) 0.66395(10)
H67 H 0.5600 0.7253 0.6422
C64 C 0.5663(4) 0.86193(19) 0.60903(10)
C65 C 0.4433(4) 0.8795(2) 0.57743(11)
C66 C 0.4841(4) 0.9017(2) 0.53536(11)
H68 H 0.4024 0.9137 0.5138
C67 C 0.6414(5) 0.9066(2) 0.52417(11)
H69 H 0.6672 0.9217 0.4951
C68 C 0.7608(4) 0.8895(2) 0.55546(11)
H70 H 0.8687 0.8930 0.5477
C69 C 0.7261(4) 0.8673(2) 0.59834(11)
C70 C 0.2713(4) 0.8722(2) 0.58938(11)
H71 H 0.2057 0.8940 0.5659
H72 H 0.2758 0.9087 0.6203
H73 H 0.2206 0.8092 0.5897
C71 C 0.8626(4) 0.8521(2) 0.63213(12)
H74 H 0.8459 0.7877 0.6327
H75 H 0.8610 0.8850 0.6635
H76 H 0.9691 0.8738 0.6220
C72 C 0.4964(4) 0.67106(19) 0.72132(10)
Au1_2 Au 0.93552(2) 0.54637(2) 0.72066(2)
Au4_2 Au -0.42294(2) 0.47081(2) 0.71644(2)
loop_
_geom_bond_atom_site_label_1
_geom_bond_atom_site_label_2
_geom_bond_site_symmetry_1
_geom_bond_site_symmetry_2
Au1 Au2 1_555 1_555
Au2 Au3 1_555 1_555
Au3 Au4 1_555 1_555
Au4 S6 1_555 1_555
S1 Au1 1_555 1_555
S2 Au2 1_555 1_555
S3 Au1 1_555 1_555
S4 Au2 1_555 1_555
S5 Au3 1_555 1_555
S6 C54 1_555 1_555
S7 Au3 1_555 1_555
S8 Au4 1_555 1_555
N1 C1 1_555 1_555
N2 C9 1_555 1_555
N3 C19 1_555 1_555
N4 C27 1_555 1_555
N5 C37 1_555 1_555
N6 C45 1_555 1_555
N7 C55 1_555 1_555
N8 C63 1_555 1_555
C1 C2 1_555 1_555
C2 C3 1_555 1_555
C3 H1 1_555 1_555
C4 C3 1_555 1_555
H2 C4 1_555 1_555
C5 C4 1_555 1_555
H3 C5 1_555 1_555
C6 C1 1_555 1_555
C7 C2 1_555 1_555
H4 C7 1_555 1_555
H5 C7 1_555 1_555
H6 C7 1_555 1_555
C8 C6 1_555 1_555
H7 C8 1_555 1_555
H8 C8 1_555 1_555
H9 C8 1_555 1_555
C9 C10 1_555 1_555
C10 C11 1_555 1_555
C11 H10 1_555 1_555
C12 C11 1_555 1_555
H11 C12 1_555 1_555
C13 C12 1_555 1_555
H12 C13 1_555 1_555
C14 C9 1_555 1_555
C15 C10 1_555 1_555
H13 C15 1_555 1_555
H14 C15 1_555 1_555
H15 C15 1_555 1_555
C16 C14 1_555 1_555
H16 C16 1_555 1_555
H17 C16 1_555 1_555
H18 C16 1_555 1_555
C17 N1 1_555 1_555
H19 C17 1_555 1_555
C18 S1 1_555 1_555
C19 C20 1_555 1_555
C20 C21 1_555 1_555
C21 H20 1_555 1_555
C22 C21 1_555 1_555
H21 C22 1_555 1_555
C23 C22 1_555 1_555
H22 C23 1_555 1_555
C24 C19 1_555 1_555
C25 C20 1_555 1_555
H23 C25 1_555 1_555
H24 C25 1_555 1_555
H25 C25 1_555 1_555
C26 C24 1_555 1_555
H26 C26 1_555 1_555
H27 C26 1_555 1_555
H28 C26 1_555 1_555
C27 N3 1_555 1_555
H29 C27 1_555 1_555
C28 N4 1_555 1_555
C29 C28 1_555 1_555
C30 C29 1_555 1_555
H30 C30 1_555 1_555
C31 C30 1_555 1_555
H31 C31 1_555 1_555
C32 C31 1_555 1_555
H32 C32 1_555 1_555
C33 C28 1_555 1_555
C34 C29 1_555 1_555
H33 C34 1_555 1_555
H34 C34 1_555 1_555
H35 C34 1_555 1_555
C35 C33 1_555 1_555
H36 C35 1_555 1_555
H37 C35 1_555 1_555
H38 C35 1_555 1_555
C36 S3 1_555 1_555
C37 C38 1_555 1_555
C38 C39 1_555 1_555
C39 H39 1_555 1_555
C40 C39 1_555 1_555
H40 C40 1_555 1_555
C41 C40 1_555 1_555
H41 C41 1_555 1_555
C42 C37 1_555 1_555
C43 C38 1_555 1_555
H42 C43 1_555 1_555
H43 C43 1_555 1_555
H44 C43 1_555 1_555
C44 C42 1_555 1_555
H45 C44 1_555 1_555
H46 C44 1_555 1_555
H47 C44 1_555 1_555
C45 N5 1_555 1_555
H48 C45 1_555 1_555
C46 N6 1_555 1_555
C47 C46 1_555 1_555
C48 C47 1_555 1_555
H49 C48 1_555 1_555
C49 C48 1_555 1_555
H50 C49 1_555 1_555
C50 C49 1_555 1_555
H51 C50 1_555 1_555
C51 C46 1_555 1_555
C52 C47 1_555 1_555
H52 C52 1_555 1_555
H53 C52 1_555 1_555
H54 C52 1_555 1_555
C53 C51 1_555 1_555
H55 C53 1_555 1_555
H56 C53 1_555 1_555
H57 C53 1_555 1_555
C54 S5 1_555 1_555
C55 C56 1_555 1_555
C56 C57 1_555 1_555
C57 H58 1_555 1_555
C58 C57 1_555 1_555
H59 C58 1_555 1_555
C59 C58 1_555 1_555
H60 C59 1_555 1_555
C60 C55 1_555 1_555
C61 C56 1_555 1_555
H61 C61 1_555 1_555
H62 C61 1_555 1_555
H63 C61 1_555 1_555
C62 C60 1_555 1_555
H64 C62 1_555 1_555
H65 C62 1_555 1_555
H66 C62 1_555 1_555
C63 N7 1_555 1_555
H67 C63 1_555 1_555
C64 N8 1_555 1_555
C65 C64 1_555 1_555
C66 C65 1_555 1_555
H68 C66 1_555 1_555
C67 C66 1_555 1_555
H69 C67 1_555 1_555
C68 C67 1_555 1_555
H70 C68 1_555 1_555
C69 C64 1_555 1_555
C70 C65 1_555 1_555
H71 C70 1_555 1_555
H72 C70 1_555 1_555
H73 C70 1_555 1_555
C71 C69 1_555 1_555
H74 C71 1_555 1_555
H75 C71 1_555 1_555
H76 C71 1_555 1_555
C72 S7 1_555 1_555
Au1_2 Au4 1_555 1_555
Au4_2 Au1 1_555 1_555
S2 C18 1_555 1_555
S4 C36 1_555 1_555
S8 C72 1_555 1_555
N1 C18 1_555 1_555
N2 C17 1_555 1_555
N3 C36 1_555 1_555
N5 C54 1_555 1_555
N7 C72 1_555 1_555
C5 C6 1_555 1_555
C13 C14 1_555 1_555
C23 C24 1_555 1_555
C32 C33 1_555 1_555
C41 C42 1_555 1_555
C50 C51 1_555 1_555
C59 C60 1_555 1_555
C68 C69 1_555 1_555

#END
