
#######################################################################
#
#                 Cambridge Crystallographic Data Centre
#                                CCDC 
#
#######################################################################
#
# If this CIF has been generated from an entry in the Cambridge 
# Structural Database, then it will include bibliographic, chemical, 
# crystal, experimental, refinement or atomic coordinate data resulting 
# from the CCDC's data processing and validation procedures.
#
#######################################################################

data_TUVVAH
_symmetry_cell_setting           triclinic
_symmetry_space_group_name_H-M   'P -1'
_symmetry_Int_Tables_number      2
_space_group_name_Hall           '-P 1'
loop_
_symmetry_equiv_pos_site_id
_symmetry_equiv_pos_as_xyz
1 x,y,z
2 -x,-y,-z
_cell_length_a                   8.554(1)
_cell_length_b                   9.250(1)
_cell_length_c                   10.322(1)
_cell_angle_alpha                88.79(1)
_cell_angle_beta                 72.78(1)
_cell_angle_gamma                65.83(1)
_cell_volume                     707.014
loop_
_atom_site_label
_atom_site_type_symbol
_atom_site_fract_x
_atom_site_fract_y
_atom_site_fract_z
Cu1 Cu 0.27850(6) 0.34060(5) 0.30466(4)
Cl1 Cl 0.18199(12) 0.28786(10) 0.14038(8)
Cl2 Cl 0.22337(12) 0.44624(9) 0.51270(8)
N1 N 0.4955(4) -0.1364(3) 0.3124(2)
N2 N 0.4821(4) 0.0023(3) 0.2638(3)
N3 N 0.3487(4) 0.1171(3) 0.3529(3)
C1 C 0.2680(5) 0.0543(4) 0.4607(3)
C2 C 0.1160(5) 0.1252(4) 0.5758(3)
H1 H 0.0513 0.2377 0.5959
C3 C 0.0652(5) 0.0231(4) 0.6583(3)
H2 H -0.0384 0.0666 0.7370
C4 C 0.1621(5) -0.1444(4) 0.6300(3)
H3 H 0.1205 -0.2100 0.6895
C5 C 0.3137(5) -0.2149(4) 0.5198(3)
H4 H 0.3810 -0.3274 0.5022
C6 C 0.3635(4) -0.1110(4) 0.4347(3)
C7 C 0.6123(4) -0.2851(4) 0.2242(3)
H5 H 0.6887 -0.3621 0.2726
H6 H 0.6925 -0.2659 0.1413
N4 N 0.5010(4) -0.3497(3) 0.1863(3)
N5 N 0.4750(4) -0.4694(3) 0.2504(3)
N6 N 0.3515(4) -0.4908(3) 0.2143(3)
C8 C 0.2926(5) -0.3816(4) 0.1262(3)
C9 C 0.1627(5) -0.3533(4) 0.0607(3)
H7 H 0.0956 -0.4154 0.0715
C10 C 0.1375(5) -0.2312(4) -0.0199(3)
H8 H 0.0499 -0.2076 -0.0656
C11 C 0.2380(5) -0.1400(4) -0.0366(3)
H9 H 0.2174 -0.0580 -0.0949
C12 C 0.3635(5) -0.1644(4) 0.0274(3)
H10 H 0.4291 -0.1009 0.0171
C13 C 0.3895(4) -0.2890(4) 0.1091(3)
N6_2 N 0.3515(4) 0.5092(3) 0.2143(3)
Cu1_2 Cu 0.27850(6) -0.65940(5) 0.30466(4)
loop_
_geom_bond_atom_site_label_1
_geom_bond_atom_site_label_2
_geom_bond_site_symmetry_1
_geom_bond_site_symmetry_2
Cu1 Cl1 1_555 1_555
Cl2 Cu1 1_555 1_555
N1 N2 1_555 1_555
N2 N3 1_555 1_555
N3 Cu1 1_555 1_555
C1 N3 1_555 1_555
C2 C1 1_555 1_555
H1 C2 1_555 1_555
C3 C2 1_555 1_555
H2 C3 1_555 1_555
C4 C3 1_555 1_555
H3 C4 1_555 1_555
C5 C4 1_555 1_555
H4 C5 1_555 1_555
C6 N1 1_555 1_555
C7 N1 1_555 1_555
H5 C7 1_555 1_555
H6 C7 1_555 1_555
N4 C7 1_555 1_555
N5 N4 1_555 1_555
N6 N5 1_555 1_555
C8 N6 1_555 1_555
C9 C8 1_555 1_555
H7 C9 1_555 1_555
C10 C9 1_555 1_555
H8 C10 1_555 1_555
C11 C10 1_555 1_555
H9 C11 1_555 1_555
C12 C11 1_555 1_555
H10 C12 1_555 1_555
C13 N4 1_555 1_555
N6_2 Cu1 1_555 1_555
Cu1_2 N6 1_555 1_555
C1 C6 1_555 1_555
C5 C6 1_555 1_555
C8 C13 1_555 1_555
C12 C13 1_555 1_555

#END
