
#######################################################################
#
#                 Cambridge Crystallographic Data Centre
#                                CCDC 
#
#######################################################################
#
# If this CIF has been generated from an entry in the Cambridge 
# Structural Database, then it will include bibliographic, chemical, 
# crystal, experimental, refinement or atomic coordinate data resulting 
# from the CCDC's data processing and validation procedures.
#
#######################################################################

data_TUVWAI
_symmetry_cell_setting           triclinic
_symmetry_space_group_name_H-M   'P -1'
_symmetry_Int_Tables_number      2
_space_group_name_Hall           '-P 1'
loop_
_symmetry_equiv_pos_site_id
_symmetry_equiv_pos_as_xyz
1 x,y,z
2 -x,-y,-z
_cell_length_a                   9.212(1)
_cell_length_b                   9.307(1)
_cell_length_c                   11.849(1)
_cell_angle_alpha                92.28(1)
_cell_angle_beta                 105.92(1)
_cell_angle_gamma                115.69(1)
_cell_volume                     865.471
loop_
_atom_site_label
_atom_site_type_symbol
_atom_site_fract_x
_atom_site_fract_y
_atom_site_fract_z
Ag1 Ag 0.36804(2) 0.59286(2) 0.322942(17)
N1 N -0.1743(2) 0.3023(2) 0.22550(17)
N2 N -0.0232(2) 0.3922(2) 0.20846(18)
N3 N 0.0971(2) 0.4222(2) 0.30832(18)
C1 C 0.0255(3) 0.3538(3) 0.3935(2)
C2 C 0.1005(3) 0.3537(3) 0.5135(2)
H1 H 0.2205 0.4054 0.5505
C3 C -0.0090(3) 0.2749(3) 0.5744(2)
H2 H 0.0367 0.2720 0.6561
C4 C -0.1868(3) 0.1981(3) 0.5202(2)
H3 H -0.2571 0.1460 0.5667
C5 C -0.2623(3) 0.1958(3) 0.4023(2)
H4 H -0.3824 0.1431 0.3654
C6 C -0.1502(3) 0.2764(2) 0.3404(2)
C7 C -0.3294(3) 0.2738(3) 0.1328(2)
H5 H -0.3154 0.2626 0.0535
H6 H -0.4250 0.1716 0.1364
N4 N -0.3677(2) 0.4071(2) 0.14814(16)
N5 N -0.4717(2) 0.3986(2) 0.21212(17)
N6 N -0.4738(2) 0.5371(2) 0.22320(18)
C8 C -0.3679(3) 0.6403(3) 0.1676(2)
C9 C -0.3248(3) 0.8017(3) 0.1573(2)
H7 H -0.3715 0.8594 0.1903
C10 C -0.2114(3) 0.8726(3) 0.0970(2)
H8 H -0.1800 0.9817 0.0871
C11 C -0.1404(3) 0.7876(3) 0.0496(2)
H9 H -0.0616 0.8421 0.0094
C12 C -0.1803(3) 0.6297(3) 0.0591(2)
H10 H -0.1317 0.5731 0.0272
C13 C -0.2978(3) 0.5576(3) 0.11933(19)
N7 N 0.3154(2) 0.8278(2) 0.16349(17)
O1 O 0.2540(3) 0.6835(2) 0.11804(17)
O2 O 0.3813(3) 0.8684(2) 0.27422(16)
O3 O 0.3147(3) 0.9312(2) 0.10033(17)
N8 N 0.5576(3) 0.7231(3) 0.5094(2)
C14 C 0.6589(3) 0.7902(3) 0.5980(2)
C15 C 0.7912(4) 0.8780(3) 0.7113(2)
H11 H 0.8111 0.8008 0.7592
H12 H 0.7552 0.9417 0.7545
H13 H 0.8965 0.9509 0.6969
N6_2 N 0.5262(2) 0.5371(2) 0.22320(18)
Ag1_2 Ag -0.63196(2) 0.59286(2) 0.322942(17)
loop_
_geom_bond_atom_site_label_1
_geom_bond_atom_site_label_2
_geom_bond_site_symmetry_1
_geom_bond_site_symmetry_2
Ag1 N3 1_555 1_555
N1 N2 1_555 1_555
N2 N3 1_555 1_555
N3 C1 1_555 1_555
C1 C2 1_555 1_555
C2 H1 1_555 1_555
C3 C2 1_555 1_555
H2 C3 1_555 1_555
C4 C3 1_555 1_555
H3 C4 1_555 1_555
C5 C4 1_555 1_555
H4 C5 1_555 1_555
C6 N1 1_555 1_555
C7 N1 1_555 1_555
H5 C7 1_555 1_555
H6 C7 1_555 1_555
N4 C7 1_555 1_555
N5 N4 1_555 1_555
N6 N5 1_555 1_555
C8 N6 1_555 1_555
C9 C8 1_555 1_555
H7 C9 1_555 1_555
C10 C9 1_555 1_555
H8 C10 1_555 1_555
C11 C10 1_555 1_555
H9 C11 1_555 1_555
C12 C11 1_555 1_555
H10 C12 1_555 1_555
C13 N4 1_555 1_555
N7 O1 1_555 1_555
O2 Ag1 1_555 1_555
O3 N7 1_555 1_555
N8 Ag1 1_555 1_555
C14 N8 1_555 1_555
C15 C14 1_555 1_555
H11 C15 1_555 1_555
H12 C15 1_555 1_555
H13 C15 1_555 1_555
N6_2 Ag1 1_555 1_555
Ag1_2 N6 1_555 1_555
C1 C6 1_555 1_555
C5 C6 1_555 1_555
C8 C13 1_555 1_555
C12 C13 1_555 1_555
N7 O2 1_555 1_555

#END
