
#######################################################################
#
#                 Cambridge Crystallographic Data Centre
#                                CCDC 
#
#######################################################################
#
# If this CIF has been generated from an entry in the Cambridge 
# Structural Database, then it will include bibliographic, chemical, 
# crystal, experimental, refinement or atomic coordinate data resulting 
# from the CCDC's data processing and validation procedures.
#
#######################################################################

data_TUVZUF
_symmetry_cell_setting           monoclinic
_symmetry_space_group_name_H-M   'P 21/n'
_symmetry_Int_Tables_number      14
_space_group_name_Hall           '-P 2yn'
loop_
_symmetry_equiv_pos_site_id
_symmetry_equiv_pos_as_xyz
1 x,y,z
2 1/2+x,1/2-y,1/2+z
3 -x,-y,-z
4 1/2-x,1/2+y,1/2-z
_cell_length_a                   7.8069(3)
_cell_length_b                   12.1012(5)
_cell_length_c                   15.2717(6)
_cell_angle_alpha                90
_cell_angle_beta                 94.6540(10)
_cell_angle_gamma                90
_cell_volume                     1438
loop_
_atom_site_label
_atom_site_type_symbol
_atom_site_fract_x
_atom_site_fract_y
_atom_site_fract_z
Li1 Li 0.3393(3) 0.86255(17) 1.06763(14)
Li2 Li 0.8610(2) 0.92369(17) 1.14720(13)
C1 C 0.74570(18) 0.56527(11) 0.96371(9)
H1 H 0.829(2) 0.5021(13) 0.9612(10)
H2 H 0.721(2) 0.5837(13) 1.0255(11)
C2 C 0.69683(14) 0.75624(9) 0.91349(7)
C3 C 0.69494(15) 0.82008(9) 1.00196(7)
N1 N 0.81566(13) 0.66282(8) 0.92488(7)
O1 O 0.83939(11) 0.85305(8) 1.03286(6)
O2 O 0.55728(12) 0.82938(8) 1.03533(6)
C4 C 0.92462(14) 0.65743(10) 0.85794(8)
C5 C 0.76645(13) 0.82136(9) 0.83590(7)
C6 C 0.80000(15) 0.94622(10) 0.85460(7)
N2 N 0.91733(12) 0.75840(8) 0.81509(6)
O3 O 1.01724(12) 0.57920(8) 0.84342(6)
O4 O 0.94580(13) 0.98229(8) 0.84565(7)
C7 C 0.96629(16) 0.77105(11) 0.72573(8)
H3 H 1.005(2) 0.8494(14) 0.7173(11)
H4 H 1.055(2) 0.7146(14) 0.7165(11)
O5 O 0.82106(12) 0.74819(8) 0.66369(6)
C8 C 0.68050(16) 0.82078(10) 0.67723(8)
H5 H 0.585(2) 0.7982(14) 0.6348(11)
H6 H 0.718(2) 0.9001(14) 0.6687(11)
N3 N 0.62926(12) 0.80837(8) 0.76556(6)
C9 C 0.50777(14) 0.73348(9) 0.78790(8)
N4 N 0.52812(12) 0.71820(8) 0.87766(6)
O6 O 0.39532(11) 0.69213(8) 0.73784(6)
C10 C 0.46480(17) 0.61856(11) 0.91660(9)
H7 H 0.360(2) 0.5936(14) 0.8813(11)
H8 H 0.443(2) 0.6342(14) 0.9787(11)
O7 O 0.58995(13) 0.53165(8) 0.91529(6)
O8 O 0.16438(13) 0.82575(10) 0.97920(7)
H9 H 0.176(3) 0.8493(19) 0.9262(17)
H10 H 0.059(3) 0.836(2) 0.9898(16)
O9 O 0.67049(12) 0.99698(7) 0.87655(6)
O10 O 0.67450(13) 1.01286(9) 1.18910(8)
H11 H 0.579(3) 1.016(2) 1.1570(17)
H12 H 0.641(4) 0.991(3) 1.242(2)
O5A O 0.32106(12) 0.75181(8) 1.16369(6)
O9B O 0.32951(12) 1.00302(7) 1.12345(6)
O4B O 1.05420(13) 1.01771(8) 1.15435(7)
O6A O 0.89532(11) 0.80787(8) 1.23784(6)
Li2B Li 1.1390(2) 1.07631(17) 0.85280(13)
Li1A Li 0.8393(3) 0.63745(17) 0.56763(14)
Li2A Li 0.3610(2) 0.57631(17) 0.64720(13)
Li1B Li 0.6607(3) 1.13745(17) 0.93237(14)
loop_
_geom_bond_atom_site_label_1
_geom_bond_atom_site_label_2
_geom_bond_site_symmetry_1
_geom_bond_site_symmetry_2
Li1 O2 1_555 1_555
Li2 O1 1_555 1_555
C1 H1 1_555 1_555
H2 C1 1_555 1_555
C2 C3 1_555 1_555
C3 O1 1_555 1_555
N1 C1 1_555 1_555
O2 C3 1_555 1_555
C4 N1 1_555 1_555
C5 C2 1_555 1_555
C6 C5 1_555 1_555
N2 C4 1_555 1_555
O3 C4 1_555 1_555
O4 C6 1_555 1_555
C7 N2 1_555 1_555
H3 C7 1_555 1_555
H4 C7 1_555 1_555
O5 C7 1_555 1_555
C8 O5 1_555 1_555
H5 C8 1_555 1_555
H6 C8 1_555 1_555
N3 C5 1_555 1_555
C9 N3 1_555 1_555
N4 C2 1_555 1_555
O6 C9 1_555 1_555
C10 N4 1_555 1_555
H7 C10 1_555 1_555
H8 C10 1_555 1_555
O7 C1 1_555 1_555
O8 Li1 1_555 1_555
H9 O8 1_555 1_555
H10 O8 1_555 1_555
O9 C6 1_555 1_555
O10 Li2 1_555 1_555
H11 O10 1_555 1_555
H12 O10 1_555 1_555
O5A Li1 1_555 1_555
O9B Li1 1_555 1_555
O4B Li2 1_555 1_555
O6A Li2 1_555 1_555
Li2B O4 1_555 1_555
Li1A O5 1_555 1_555
Li2A O6 1_555 1_555
Li1B O9 1_555 1_555
C2 N1 1_555 1_555
C5 N2 1_555 1_555
C8 N3 1_555 1_555
C9 N4 1_555 1_555
C10 O7 1_555 1_555

#END
