
#######################################################################
#
#                 Cambridge Crystallographic Data Centre
#                                CCDC 
#
#######################################################################
#
# If this CIF has been generated from an entry in the Cambridge 
# Structural Database, then it will include bibliographic, chemical, 
# crystal, experimental, refinement or atomic coordinate data resulting 
# from the CCDC's data processing and validation procedures.
#
#######################################################################

data_TUWNAA
_symmetry_cell_setting           triclinic
_symmetry_space_group_name_H-M   'P 1'
_symmetry_Int_Tables_number      1
_space_group_name_Hall           'P 1'
loop_
_symmetry_equiv_pos_site_id
_symmetry_equiv_pos_as_xyz
1 x,y,z
_cell_length_a                   7.8926(5)
_cell_length_b                   10.1888(7)
_cell_length_c                   14.0856(9)
_cell_angle_alpha                96.655(1)
_cell_angle_beta                 97.344(2)
_cell_angle_gamma                90.346(1)
_cell_volume                     1115.6
loop_
_atom_site_label
_atom_site_type_symbol
_atom_site_fract_x
_atom_site_fract_y
_atom_site_fract_z
Cl1 Cl 0.449(2) 0.8447(15) 0.5889(12)
O7 O 0.545(7) 0.831(5) 0.678(3)
O8 O 0.368(7) 0.724(4) 0.549(5)
O9 O 0.558(7) 0.884(6) 0.524(4)
O10 O 0.323(6) 0.943(4) 0.598(4)
Cl2 Cl 0.849(2) 0.4922(14) 0.0444(11)
O11 O 0.788(8) 0.614(5) 0.086(5)
O12 O 0.984(7) 0.459(6) 0.112(4)
O13 O 0.714(6) 0.395(4) 0.032(3)
O14 O 0.905(7) 0.507(6) -0.045(3)
O15 O 0.954(12) 0.018(8) 0.568(6)
H41 H 0.94(10) -0.07(3) 0.53(3)
H42 H 0.97(9) 0.06(5) 0.51(3)
O16 O 0.36(3) -0.69(3) 0.058(18)
Cu1 Cu 0.2341(7) 0.3029(6) 0.4451(5)
O1 O 0.497(6) 0.472(4) 0.525(3)
H1 H 0.4855 0.5516 0.5368
O2 O 0.298(5) 0.282(4) 0.317(3)
O3 O 0.427(5) 0.145(4) 0.214(3)
N1 N 0.398(6) 0.155(4) 0.466(3)
H2 H 0.3597 0.1019 0.5065
N2 N 0.160(6) 0.339(4) 0.577(3)
N3 N 0.122(6) 0.475(4) 0.427(3)
C1 C 0.539(7) 0.419(6) 0.610(5)
C2 C 0.539(9) 0.492(7) 0.699(5)
H3 H 0.5116 0.5808 0.7043
C3 C 0.579(9) 0.430(7) 0.780(5)
H4 H 0.5744 0.4777 0.8405
C4 C 0.624(9) 0.301(7) 0.776(5)
H5 H 0.6533 0.2619 0.8325
C5 C 0.626(8) 0.228(6) 0.686(5)
H6 H 0.6584 0.1406 0.6816
C6 C 0.581(7) 0.285(6) 0.602(4)
C7 C 0.576(7) 0.206(6) 0.506(4)
H7 H 0.6516 0.1315 0.5113
H8 H 0.6177 0.2601 0.4609
C8 C 0.401(7) 0.079(5) 0.369(4)
H9 H 0.5128 0.0382 0.3667
C9 C 0.376(7) 0.175(6) 0.293(4)
C10 C 0.263(8) -0.030(6) 0.349(5)
H10 H 0.2905 -0.0966 0.3909
H11 H 0.2559 -0.0684 0.2831
H12 H 0.1545 0.0074 0.3604
C11 C 0.182(8) 0.270(6) 0.651(5)
H13 H 0.2406 0.1909 0.6443
C12 C 0.123(9) 0.310(7) 0.738(5)
H14 H 0.1425 0.2596 0.7893
C13 C 0.037(10) 0.424(8) 0.747(5)
H15 H -0.0045 0.4514 0.8053
C14 C 0.008(9) 0.502(7) 0.671(5)
C15 C -0.080(9) 0.623(7) 0.674(6)
H16 H -0.1270 0.6540 0.7294
C16 C -0.096(9) 0.694(7) 0.598(6)
H17 H -0.1529 0.7742 0.6028
C17 C -0.030(8) 0.649(6) 0.512(5)
C18 C -0.040(8) 0.716(6) 0.432(5)
H18 H -0.0920 0.7978 0.4336
C19 C 0.026(9) 0.665(6) 0.351(5)
H19 H 0.0177 0.7098 0.2971
C20 C 0.108(7) 0.541(6) 0.352(4)
H20 H 0.1543 0.5064 0.2971
C21 C 0.053(7) 0.527(6) 0.507(4)
C22 C 0.074(8) 0.454(6) 0.587(5)
Cu2 Cu 0.6696(8) 0.0286(6) 0.1773(5)
O4 O 0.910(6) -0.135(4) 0.097(3)
H21 H 0.8485 -0.2015 0.0850
O5 O 0.793(5) 0.046(4) 0.307(3)
O6 O -0.035(5) 0.182(4) 0.412(3)
N4 N 0.830(6) 0.178(4) 0.161(3)
H22 H 0.7747 0.2323 0.1205
N5 N 0.541(6) -0.008(5) 0.045(3)
N6 N 0.567(6) -0.147(5) 0.192(3)
C23 C 0.915(8) -0.077(6) 0.014(4)
C24 C 0.875(9) -0.148(7) -0.077(5)
H23 H 0.8479 -0.2378 -0.0837
C25 C 0.876(9) -0.080(7) -0.156(5)
H24 H 0.8438 -0.1245 -0.2177
C26 C 0.924(9) 0.051(7) -0.147(5)
H25 H 0.9296 0.0934 -0.2013
C27 C 0.964(8) 0.118(6) -0.056(4)
H26 H 0.9955 0.2073 -0.0497
C28 C 0.957(7) 0.055(6) 0.026(4)
C29 C 0.991(7) 0.130(6) 0.123(4)
H27 H 1.0655 0.2055 0.1207
H28 H 1.0500 0.0742 0.1674
C30 C 0.871(7) 0.251(5) 0.258(4)
H29 H 0.9849 0.2927 0.2617
C31 C 0.879(7) 0.154(6) 0.331(4)
C32 C 0.743(8) 0.360(5) 0.279(4)
H30 H 0.7540 0.4280 0.2379
H31 H 0.7664 0.3968 0.3449
H32 H 0.6294 0.3229 0.2661
C33 C 0.524(8) 0.064(6) -0.028(5)
H33 H 0.5783 0.1466 -0.0191
C34 C 0.429(9) 0.024(7) -0.116(5)
H34 H 0.4186 0.0789 -0.1651
C35 C 0.352(9) -0.099(8) -0.130(6)
H35 H 0.2921 -0.1297 -0.1901
C36 C 0.364(9) -0.177(8) -0.057(5)
C37 C 0.286(9) -0.306(7) -0.065(5)
H36 H 0.2249 -0.3414 -0.1233
C38 C 0.301(9) -0.377(7) 0.009(6)
H37 H 0.2487 -0.4601 0.0018
C39 C 0.395(8) -0.328(7) 0.101(5)
C40 C 0.416(9) -0.395(7) 0.183(6)
H38 H 0.3662 -0.4781 0.1808
C41 C 0.508(9) -0.339(6) 0.265(5)
H39 H 0.5207 -0.3836 0.3195
C42 C 0.583(8) -0.215(6) 0.268(5)
H40 H 0.6475 -0.1780 0.3244
C43 C 0.475(7) -0.204(6) 0.110(4)
C44 C 0.458(8) -0.127(6) 0.031(4)
C31_2 C -0.121(7) 0.154(6) 0.331(4)
O6_2 O 0.965(5) 0.182(4) 0.412(3)
loop_
_geom_bond_atom_site_label_1
_geom_bond_atom_site_label_2
_geom_bond_site_symmetry_1
_geom_bond_site_symmetry_2
Cu1 O2 1_555 1_555
O1 H1 1_555 1_555
O2 C9 1_555 1_555
O3 C9 1_555 1_555
N1 Cu1 1_555 1_555
H2 N1 1_555 1_555
N2 Cu1 1_555 1_555
N3 Cu1 1_555 1_555
C1 O1 1_555 1_555
C2 C1 1_555 1_555
H3 C2 1_555 1_555
C3 C2 1_555 1_555
H4 C3 1_555 1_555
C4 C3 1_555 1_555
H5 C4 1_555 1_555
C5 C4 1_555 1_555
H6 C5 1_555 1_555
C6 C1 1_555 1_555
C7 N1 1_555 1_555
H7 C7 1_555 1_555
H8 C7 1_555 1_555
C8 N1 1_555 1_555
H9 C8 1_555 1_555
C9 C8 1_555 1_555
C10 C8 1_555 1_555
H10 C10 1_555 1_555
H11 C10 1_555 1_555
H12 C10 1_555 1_555
C11 N2 1_555 1_555
H13 C11 1_555 1_555
C12 C11 1_555 1_555
H14 C12 1_555 1_555
C13 C12 1_555 1_555
H15 C13 1_555 1_555
C14 C13 1_555 1_555
C15 C14 1_555 1_555
H16 C15 1_555 1_555
C16 C15 1_555 1_555
H17 C16 1_555 1_555
C17 C16 1_555 1_555
C18 C17 1_555 1_555
H18 C18 1_555 1_555
C19 C18 1_555 1_555
H19 C19 1_555 1_555
C20 N3 1_555 1_555
H20 C20 1_555 1_555
C21 N3 1_555 1_555
C22 N2 1_555 1_555
Cu2 O3 1_555 1_555
O4 H21 1_555 1_555
O5 Cu2 1_555 1_555
O6 Cu1 1_555 1_555
N4 Cu2 1_555 1_555
H22 N4 1_555 1_555
N5 Cu2 1_555 1_555
N6 Cu2 1_555 1_555
C23 O4 1_555 1_555
C24 C23 1_555 1_555
H23 C24 1_555 1_555
C25 C24 1_555 1_555
H24 C25 1_555 1_555
C26 C25 1_555 1_555
H25 C26 1_555 1_555
C27 C26 1_555 1_555
H26 C27 1_555 1_555
C28 C23 1_555 1_555
C29 N4 1_555 1_555
H27 C29 1_555 1_555
H28 C29 1_555 1_555
C30 N4 1_555 1_555
H29 C30 1_555 1_555
C31 O5 1_555 1_555
C32 C30 1_555 1_555
H30 C32 1_555 1_555
H31 C32 1_555 1_555
H32 C32 1_555 1_555
C33 N5 1_555 1_555
H33 C33 1_555 1_555
C34 C33 1_555 1_555
H34 C34 1_555 1_555
C35 C34 1_555 1_555
H35 C35 1_555 1_555
C36 C35 1_555 1_555
C37 C36 1_555 1_555
H36 C37 1_555 1_555
C38 C37 1_555 1_555
H37 C38 1_555 1_555
C39 C38 1_555 1_555
C40 C39 1_555 1_555
H38 C40 1_555 1_555
C41 C40 1_555 1_555
H39 C41 1_555 1_555
C42 N6 1_555 1_555
H40 C42 1_555 1_555
C43 N6 1_555 1_555
C44 N5 1_555 1_555
Cl1 O7 1_555 1_555
O8 Cl1 1_555 1_555
O9 Cl1 1_555 1_555
O10 Cl1 1_555 1_555
Cl2 O11 1_555 1_555
O12 Cl2 1_555 1_555
O13 Cl2 1_555 1_555
O14 Cl2 1_555 1_555
O15 H41 1_555 1_555
H42 O15 1_555 1_555
C31_2 O6 1_555 1_555
O6_2 C31 1_555 1_555
C5 C6 1_555 1_555
C6 C7 1_555 1_555
C14 C22 1_555 1_555
C17 C21 1_555 1_555
C19 C20 1_555 1_555
C21 C22 1_555 1_555
C27 C28 1_555 1_555
C28 C29 1_555 1_555
C30 C31 1_555 1_555
C36 C44 1_555 1_555
C39 C43 1_555 1_555
C41 C42 1_555 1_555
C43 C44 1_555 1_555

#END
