
#######################################################################
#
#                 Cambridge Crystallographic Data Centre
#                                CCDC 
#
#######################################################################
#
# If this CIF has been generated from an entry in the Cambridge 
# Structural Database, then it will include bibliographic, chemical, 
# crystal, experimental, refinement or atomic coordinate data resulting 
# from the CCDC's data processing and validation procedures.
#
#######################################################################

data_TUWPOR
_symmetry_cell_setting           triclinic
_symmetry_space_group_name_H-M   'P -1'
_symmetry_Int_Tables_number      2
_space_group_name_Hall           '-P 1'
loop_
_symmetry_equiv_pos_site_id
_symmetry_equiv_pos_as_xyz
1 x,y,z
2 -x,-y,-z
_cell_length_a                   8.7264(8)
_cell_length_b                   14.2760(13)
_cell_length_c                   15.1949(14)
_cell_angle_alpha                65.861(5)
_cell_angle_beta                 79.139(6)
_cell_angle_gamma                76.007(6)
_cell_volume                     1667.57
loop_
_atom_site_label
_atom_site_type_symbol
_atom_site_fract_x
_atom_site_fract_y
_atom_site_fract_z
Cd1 Cd -0.74981(7) 1.29010(4) 0.70758(4)
Cd2 Cd 0.0000 0.5000 0.5000
O1 O 0.0957(7) 0.9138(4) 0.3196(5)
O2 O -0.3731(7) 1.1040(4) 0.5280(4)
O3 O -1.5985(6) 1.6319(4) 1.1270(4)
O4 O -1.1248(6) 1.4989(4) 0.8823(4)
O5 O -0.5854(7) 1.2142(4) 0.6101(4)
O6 O -0.5897(7) 1.0862(5) 0.7534(4)
O7 O -0.9282(7) 1.4316(4) 0.7527(4)
O8 O -0.8610(7) 1.2740(4) 0.8624(4)
O9 O -0.0510(8) 0.7823(5) 0.2950(5)
O10 O 0.0935(8) 0.6435(5) 0.3969(5)
O11 O 0.2540(6) 0.4384(4) 0.5559(4)
O12 O -0.0838(7) 0.5818(4) 0.6057(4)
O13 O -1.4550(7) 1.6723(4) 1.2510(4)
O14 O -1.4429(8) 1.5080(4) 1.3559(4)
C1 C -1.4721(9) 1.5960(5) 1.0714(5)
C2 C -1.3558(10) 1.5141(6) 1.1070(6)
H1 H -1.3547 1.4799 1.1738
C3 C -1.2367(9) 1.4789(6) 1.0463(6)
H2 H -1.1588 1.4212 1.0731
C4 C -1.2335(9) 1.5284(6) 0.9479(5)
C5 C -1.3540(9) 1.6164(5) 0.9070(5)
C6 C -1.3596(10) 1.6688(6) 0.8054(6)
H3 H -1.2809 1.6470 0.7637
C7 C -1.4781(10) 1.7502(6) 0.7680(6)
H4 H -1.4796 1.7835 0.7011
C8 C -1.5969(11) 1.7841(6) 0.8285(6)
H5 H -1.6775 1.8397 0.8018
C9 C -1.5973(9) 1.7364(6) 0.9282(6)
H6 H -1.6771 1.7600 0.9684
C10 C -1.4737(9) 1.6505(6) 0.9686(5)
C11 C -1.0324(9) 1.3955(6) 0.9186(5)
H7 H -1.1026 1.3458 0.9538
H8 H -0.9626 1.3915 0.9632
C12 C -1.6100(10) 1.5716(6) 1.2283(5)
H9 H -1.5952 1.4986 1.2383
H10 H -1.7162 1.5913 1.2562
C13 C -0.2287(9) 0.9439(6) 0.5097(6)
H11 H -0.2849 0.9028 0.5646
C14 C -0.0271(10) 0.9509(6) 0.3767(6)
C15 C -0.1096(10) 0.8950(6) 0.4565(6)
H12 H -0.0886 0.8226 0.4777
C16 C -0.0569(9) 1.0651(6) 0.3442(6)
C17 C 0.0301(10) 1.1287(7) 0.2613(6)
H13 H 0.1053 1.0977 0.2244
C18 C 0.0058(10) 1.2320(7) 0.2355(7)
H14 H 0.0642 1.2723 0.1813
C19 C -0.1080(11) 1.2797(6) 0.2901(7)
H15 H -0.1244 1.3517 0.2717
C20 C -0.1943(10) 1.2229(6) 0.3689(6)
H16 H -0.2683 1.2559 0.4047
C21 C -0.1727(9) 1.1136(6) 0.3973(5)
C22 C -0.2621(10) 1.0488(6) 0.4824(5)
C23 C -0.4414(10) 1.0457(6) 0.6219(5)
H17 H -0.3582 1.0022 0.6631
H18 H -0.5039 1.0006 0.6169
C24 C 0.1573(10) 0.8051(7) 0.3587(7)
H19 H 0.1699 0.7844 0.4266
H20 H 0.2617 0.7918 0.3256
C25 C -0.5458(9) 1.1201(6) 0.6654(6)
C26 C -0.9368(9) 1.3679(6) 0.8385(5)
C27 C 0.0545(10) 0.7383(6) 0.3503(6)
C28 C -1.4923(10) 1.5839(7) 1.2815(6)
Cd1A Cd 0.74981(7) -0.29010(4) 0.29242(4)
Cd1A_2 Cd -0.25019(7) 0.70990(4) 0.29242(4)
Cd1_2 Cd 0.25019(7) 0.29010(4) 0.70758(4)
Cd1A_3 Cd -1.25019(7) 1.70990(4) 1.29242(4)
O1A O -0.0957(7) 0.0862(4) 0.6804(5)
O2A O 0.3731(7) -0.1040(4) 0.4720(4)
O3A O -0.4015(6) 1.3681(4) 0.8730(4)
O4A O -0.8752(6) 1.5011(4) 1.1177(4)
O5A O 0.5854(7) -0.2142(4) 0.3899(4)
O6A O 0.5897(7) -0.0862(5) 0.2466(4)
O7A O -1.0718(7) 1.5684(4) 1.2473(4)
O7A_2 O 0.9282(7) -0.4316(4) 0.2473(4)
O8A O -1.1390(7) 1.7260(4) 1.1376(4)
O8A_2 O 0.8610(7) -0.2740(4) 0.1376(4)
O9A O 0.0510(8) 0.2177(5) 0.7050(5)
O9A_2 O -0.9490(8) 1.2177(5) 0.7050(5)
O9_2 O 0.9490(8) -0.2177(5) 0.2950(5)
O10A O -0.0935(8) 0.3565(5) 0.6031(5)
O11A O -0.2540(6) 0.5616(4) 0.4441(4)
O11_2 O -0.7460(6) 1.4384(4) 0.5559(4)
O11A_2 O 0.7460(6) -0.4384(4) 0.4441(4)
O12A O 0.0838(7) 0.4182(4) 0.3943(4)
O13A O -0.5450(7) 1.3277(4) 0.7490(4)
O13_2 O 0.5450(7) -0.3277(4) 0.2510(4)
O14A O -0.5571(8) 1.4920(4) 0.6441(4)
C1A C -0.5279(9) 1.4040(5) 0.9286(5)
C2A C -0.6442(10) 1.4859(6) 0.8930(6)
H1A H -0.6453 1.5201 0.8262
C3A C -0.7633(9) 1.5211(6) 0.9537(6)
H2A H -0.8412 1.5788 0.9269
C4A C -0.7665(9) 1.4716(6) 1.0521(5)
C5A C -0.6460(9) 1.3836(5) 1.0930(5)
C6A C -0.6404(10) 1.3312(6) 1.1946(6)
H3A H -0.7191 1.3530 1.2363
C7A C -0.5219(10) 1.2498(6) 1.2320(6)
H4A H -0.5204 1.2165 1.2989
C8A C -0.4031(11) 1.2159(6) 1.1715(6)
H5A H -0.3225 1.1603 1.1982
C9A C -0.4027(9) 1.2636(6) 1.0718(6)
H6A H -0.3229 1.2400 1.0316
C10A C -0.5263(9) 1.3495(6) 1.0314(5)
C11A C -0.9676(9) 1.6045(6) 1.0814(5)
H7A H -0.8974 1.6542 1.0462
H8A H -1.0374 1.6085 1.0368
C12A C -0.3900(10) 1.4284(6) 0.7717(5)
H9A H -0.4048 1.5014 0.7617
H10A H -0.2838 1.4087 0.7438
C13A C 0.2287(9) 0.0561(6) 0.4903(6)
H11A H 0.2849 0.0972 0.4354
C14A C 0.0271(10) 0.0491(6) 0.6233(6)
C15A C 0.1096(10) 0.1050(6) 0.5435(6)
H12A H 0.0886 0.1774 0.5223
C16A C 0.0569(9) -0.0651(6) 0.6558(6)
C17A C -0.0301(10) -0.1287(7) 0.7387(6)
H13A H -0.1053 -0.0977 0.7756
C18A C -0.0058(10) -0.2320(7) 0.7645(7)
H14A H -0.0642 -0.2723 0.8187
C19A C 0.1080(11) -0.2797(6) 0.7099(7)
H15A H 0.1244 -0.3517 0.7283
C20A C 0.1943(10) -0.2229(6) 0.6311(6)
H16A H 0.2683 -0.2559 0.5953
C21A C 0.1727(9) -0.1136(6) 0.6027(5)
C22A C 0.2621(10) -0.0488(6) 0.5176(5)
C23A C 0.4414(10) -0.0457(6) 0.3781(5)
H17A H 0.3582 -0.0022 0.3369
H18A H 0.5039 -0.0006 0.3831
C24A C -0.1573(10) 0.1949(7) 0.6413(7)
H19A H -0.1699 0.2156 0.5734
H20A H -0.2617 0.2082 0.6744
C25A C 0.5458(9) -0.1201(6) 0.3346(6)
C26A C -1.0632(9) 1.6321(6) 1.1615(5)
C27A C -0.0545(10) 0.2617(6) 0.6497(6)
C28A C -0.5077(10) 1.4161(7) 0.7185(6)
Cd3 Cd 0.0000 1.0000 0.0000
O15 O 0.1483(8) 1.0959(5) 0.0165(5)
O16 O 0.1385(7) 0.8502(4) 0.0928(5)
O17 O -0.1402(8) 0.9975(5) 0.1447(5)
O15A O -0.1483(8) 0.9041(5) -0.0165(5)
O16A O -0.1385(7) 1.1498(4) -0.0928(5)
O17A O 0.1402(8) 1.0025(5) -0.1447(5)
O18 O 0.4441(8) 0.8507(5) 0.0958(5)
O19 O 0.4153(10) 0.0581(7) 0.0994(6)
O20 O 0.3972(7) 0.3452(5) 0.4234(4)
O21 O 0.5000 0.5000 0.5000
loop_
_geom_bond_atom_site_label_1
_geom_bond_atom_site_label_2
_geom_bond_site_symmetry_1
_geom_bond_site_symmetry_2
Cd1 O5 1_555 1_555
Cd2 O10 1_555 1_555
O1 C14 1_555 1_555
O2 C22 1_555 1_555
O3 C1 1_555 1_555
O4 C4 1_555 1_555
O5 C25 1_555 1_555
O6 C25 1_555 1_555
O7 Cd1 1_555 1_555
O8 Cd1 1_555 1_555
O9 C27 1_555 1_555
O10 C27 1_555 1_555
O11 Cd2 1_555 1_555
O12 Cd2 1_555 1_555
O13 C28 1_555 1_555
O14 C28 1_555 1_555
C1 C2 1_555 1_555
C2 H1 1_555 1_555
C3 C2 1_555 1_555
H2 C3 1_555 1_555
C4 C3 1_555 1_555
C5 C4 1_555 1_555
C6 C5 1_555 1_555
H3 C6 1_555 1_555
C7 C6 1_555 1_555
H4 C7 1_555 1_555
C8 C7 1_555 1_555
H5 C8 1_555 1_555
C9 C8 1_555 1_555
H6 C9 1_555 1_555
C10 C1 1_555 1_555
C11 O4 1_555 1_555
H7 C11 1_555 1_555
H8 C11 1_555 1_555
C12 O3 1_555 1_555
H9 C12 1_555 1_555
H10 C12 1_555 1_555
C13 H11 1_555 1_555
C14 C15 1_555 1_555
C15 C13 1_555 1_555
H12 C15 1_555 1_555
C16 C14 1_555 1_555
C17 C16 1_555 1_555
H13 C17 1_555 1_555
C18 C17 1_555 1_555
H14 C18 1_555 1_555
C19 C18 1_555 1_555
H15 C19 1_555 1_555
C20 C19 1_555 1_555
H16 C20 1_555 1_555
C21 C16 1_555 1_555
C22 C13 1_555 1_555
C23 O2 1_555 1_555
H17 C23 1_555 1_555
H18 C23 1_555 1_555
C24 O1 1_555 1_555
H19 C24 1_555 1_555
H20 C24 1_555 1_555
C25 C23 1_555 1_555
C26 O7 1_555 1_555
C27 C24 1_555 1_555
C28 C12 1_555 1_555
Cd3 O15 1_555 1_555
O16 Cd3 1_555 1_555
O17 Cd3 1_555 1_555
Cd1A O5A 1_555 1_555
Cd1A_2 O9 1_555 1_555
Cd1_2 O11 1_555 1_555
Cd1A_3 O13 1_555 1_555
O1A C14A 1_555 1_555
O2A C22A 1_555 1_555
O3A C1A 1_555 1_555
O4A C4A 1_555 1_555
O5A C25A 1_555 1_555
O6A C25A 1_555 1_555
O7A Cd1A_3 1_555 1_555
O7A_2 Cd1A 1_555 1_555
O8A Cd1A_3 1_555 1_555
O8A_2 Cd1A 1_555 1_555
O9A Cd1_2 1_555 1_555
O9A_2 Cd1 1_555 1_555
O9_2 Cd1A 1_555 1_555
O10A Cd2 1_555 1_555
O11A Cd2 1_555 1_555
O11_2 Cd1 1_555 1_555
O11A_2 Cd1A 1_555 1_555
O12A Cd2 1_555 1_555
O13A Cd1 1_555 1_555
O13_2 Cd1A 1_555 1_555
O14A C28A 1_555 1_555
C1A C2A 1_555 1_555
C2A H1A 1_555 1_555
C3A C2A 1_555 1_555
H2A C3A 1_555 1_555
C4A C3A 1_555 1_555
C5A C4A 1_555 1_555
C6A C5A 1_555 1_555
H3A C6A 1_555 1_555
C7A C6A 1_555 1_555
H4A C7A 1_555 1_555
C8A C7A 1_555 1_555
H5A C8A 1_555 1_555
C9A C8A 1_555 1_555
H6A C9A 1_555 1_555
C10A C1A 1_555 1_555
C11A O4A 1_555 1_555
H7A C11A 1_555 1_555
H8A C11A 1_555 1_555
C12A O3A 1_555 1_555
H9A C12A 1_555 1_555
H10A C12A 1_555 1_555
C13A H11A 1_555 1_555
C14A C15A 1_555 1_555
C15A C13A 1_555 1_555
H12A C15A 1_555 1_555
C16A C14A 1_555 1_555
C17A C16A 1_555 1_555
H13A C17A 1_555 1_555
C18A C17A 1_555 1_555
H14A C18A 1_555 1_555
C19A C18A 1_555 1_555
H15A C19A 1_555 1_555
C20A C19A 1_555 1_555
H16A C20A 1_555 1_555
C21A C16A 1_555 1_555
C22A C13A 1_555 1_555
C23A O2A 1_555 1_555
H17A C23A 1_555 1_555
H18A C23A 1_555 1_555
C24A O1A 1_555 1_555
H19A C24A 1_555 1_555
H20A C24A 1_555 1_555
C25A C23A 1_555 1_555
C26A O7A 1_555 1_555
C27A O9A 1_555 1_555
C28A O13A 1_555 1_555
O15A Cd3 1_555 1_555
O16A Cd3 1_555 1_555
O17A Cd3 1_555 1_555
O8 C26 1_555 1_555
C5 C10 1_555 1_555
C9 C10 1_555 1_555
C11 C26 1_555 1_555
C20 C21 1_555 1_555
C21 C22 1_555 1_555
Cd1A_2 O11A 1_555 1_555
O8A C26A 1_555 1_555
O10A C27A 1_555 1_555
C5A C10A 1_555 1_555
C9A C10A 1_555 1_555
C11A C26A 1_555 1_555
C12A C28A 1_555 1_555
C20A C21A 1_555 1_555
C21A C22A 1_555 1_555
C24A C27A 1_555 1_555

#END
