
#######################################################################
#
#                 Cambridge Crystallographic Data Centre
#                                CCDC 
#
#######################################################################
#
# If this CIF has been generated from an entry in the Cambridge 
# Structural Database, then it will include bibliographic, chemical, 
# crystal, experimental, refinement or atomic coordinate data resulting 
# from the CCDC's data processing and validation procedures.
#
#######################################################################

data_TUWPUX
_symmetry_cell_setting           monoclinic
_symmetry_space_group_name_H-M   'C 2/c'
_symmetry_Int_Tables_number      15
_space_group_name_Hall           '-C 2yn'
loop_
_symmetry_equiv_pos_site_id
_symmetry_equiv_pos_as_xyz
1 x,y,z
2 -x,y,1/2-z
3 1/2+x,1/2+y,z
4 1/2-x,1/2+y,1/2-z
5 -x,-y,-z
6 x,-y,1/2+z
7 1/2-x,1/2-y,-z
8 1/2+x,1/2-y,1/2+z
_cell_length_a                   20.1888(4)
_cell_length_b                   16.0041(4)
_cell_length_c                   23.7012(5)
_cell_angle_alpha                90
_cell_angle_beta                 92.152(2)
_cell_angle_gamma                90
_cell_volume                     7652.54
loop_
_atom_site_label
_atom_site_type_symbol
_atom_site_fract_x
_atom_site_fract_y
_atom_site_fract_z
O1 O 0.1989(8) -0.5467(10) -0.1576(9)
Cd1 Cd 0.289090(13) -0.440690(17) -0.172780(10)
O2 O 0.18814(14) -0.63473(19) 0.12226(11)
O3 O 0.17000(17) -0.7119(2) -0.10602(11)
O4 O 0.2915(2) -0.5856(3) -0.16774(15)
O5 O 0.2864(2) -0.5400(2) 0.23127(13)
O6 O 0.20828(19) -0.6355(2) 0.23522(13)
N1 N 0.40823(17) -0.4578(2) -0.17764(14)
N2 N 0.34238(16) -0.3079(2) -0.18314(14)
N3 N 0.32055(18) -0.4399(2) -0.06929(15)
N4 N 0.20712(16) -0.3733(2) -0.12029(14)
C1 C 0.4405(2) -0.5289(4) -0.17704(19)
H1 H 0.4157 -0.5778 -0.1760
C2 C 0.5092(3) -0.5363(5) -0.1778(2)
H2 H 0.5294 -0.5885 -0.1782
C3 C 0.5455(3) -0.4660(5) -0.17803(19)
H3 H 0.5915 -0.4693 -0.1781
C4 C 0.44426(19) -0.3869(3) -0.17803(14)
C5 C 0.4102(2) -0.3084(3) -0.18013(15)
C6 C 0.3430(3) -0.1592(3) -0.1928(2)
H4 H 0.3194 -0.1098 -0.1983
C7 C 0.3105(3) -0.2359(3) -0.1898(2)
H5 H 0.2644 -0.2366 -0.1925
C8 C 0.2413(2) -0.5850(3) 0.14471(16)
H6 H 0.2356 -0.5277 0.1321
H7 H 0.2829 -0.6055 0.1308
C9 C 0.18789(19) -0.6505(2) 0.06503(14)
C10 C 0.13744(18) -0.7063(2) 0.04529(14)
C11 C 0.09304(19) -0.7446(3) 0.08181(16)
H8 H 0.0955 -0.7324 0.1202
C12 C 0.0461(2) -0.8000(3) 0.06108(18)
H9 H 0.0169 -0.8247 0.0855
C13 C 0.0422(2) -0.8192(3) 0.0040(2)
H10 H 0.0108 -0.8576 -0.0095
C14 C 0.0836(2) -0.7826(3) -0.03240(18)
H11 H 0.0792 -0.7948 -0.0707
C15 C 0.13315(18) -0.7264(2) -0.01300(15)
C16 C 0.1790(2) -0.6891(3) -0.04987(15)
C17 C 0.2277(2) -0.6383(3) -0.02910(16)
H12 H 0.2587 -0.6166 -0.0532
C18 C 0.2318(2) -0.6179(3) 0.02883(16)
H13 H 0.2647 -0.5817 0.0424
C19 C 0.2227(2) -0.6951(3) -0.14178(16)
H14 H 0.2150 -0.7258 -0.1767
H15 H 0.2633 -0.7164 -0.1239
C20 C 0.2334(3) -0.6031(3) -0.15642(16)
C21 C 0.3739(2) -0.4713(3) -0.04462(18)
H16 H 0.4033 -0.5000 -0.0669
C22 C 0.3897(3) -0.4646(3) 0.0135(2)
H17 H 0.4289 -0.4870 0.0289
C23 C 0.3462(3) -0.4244(3) 0.0467(2)
H18 H 0.3553 -0.4189 0.0853
C24 C 0.2887(2) -0.3920(3) 0.02273(16)
C25 C 0.2769(2) -0.4003(2) -0.03665(15)
C26 C 0.2437(2) -0.5877(3) 0.20882(16)
C27 C 0.1510(2) -0.3454(3) -0.1429(2)
H19 H 0.1445 -0.3493 -0.1819
C28 C 0.1003(3) -0.3103(4) -0.1119(2)
H20 H 0.0612 -0.2919 -0.1298
C29 C 0.5491(3) -0.3105(5) -0.17893(19)
H21 H 0.5951 -0.3111 -0.1788
C30 C 0.2166(2) -0.3674(2) -0.06307(16)
C31 C 0.1688(2) -0.3309(3) -0.02834(19)
C32 C 0.1095(3) -0.3035(4) -0.0548(2)
H22 H 0.0764 -0.2807 -0.0334
C33 C 0.2394(3) -0.3524(3) 0.0554(2)
H23 H 0.2469 -0.3457 0.0940
C34 C 0.1829(3) -0.3251(3) 0.0312(2)
H24 H 0.1513 -0.3013 0.0538
C35 C 0.4470(3) -0.2342(3) -0.18137(18)
C36 C 0.5182(3) -0.2380(5) -0.1799(2)
H25 H 0.5428 -0.1888 -0.1796
C37 C 0.5146(2) -0.3877(4) -0.17811(17)
C38 C 0.4113(4) -0.1588(4) -0.1872(2)
H26 H 0.4340 -0.1082 -0.1873
Cd1E Cd 0.289090(13) -0.559310(17) 0.327220(10)
O5E O 0.2864(2) -0.4600(2) -0.26873(13)
O7 O 0.0617(5) -0.4790(7) -0.6866(7)
O8 O 0.0469(6) -0.4851(5) -0.5120(10)
O9 O 1.0000 -0.2697(9) -0.2500
O10 O 0.3298(2) -0.3886(3) -0.81569(15)
O11 O 0.3680(3) -0.2776(3) -0.72712(19)
O12? O 0.1735(9) -0.5615(12) -0.1528(10)
loop_
_geom_bond_atom_site_label_1
_geom_bond_atom_site_label_2
_geom_bond_site_symmetry_1
_geom_bond_site_symmetry_2
O1 Cd1 1_555 1_555
Cd1 O4 1_555 1_555
O2 C8 1_555 1_555
O3 C16 1_555 1_555
O4 C20 1_555 1_555
O5 C26 1_555 1_555
O6 C26 1_555 1_555
N1 Cd1 1_555 1_555
N2 Cd1 1_555 1_555
N3 Cd1 1_555 1_555
N4 Cd1 1_555 1_555
C1 N1 1_555 1_555
H1 C1 1_555 1_555
C2 C1 1_555 1_555
H2 C2 1_555 1_555
C3 C2 1_555 1_555
H3 C3 1_555 1_555
C4 N1 1_555 1_555
C5 N2 1_555 1_555
C6 H4 1_555 1_555
C7 N2 1_555 1_555
H5 C7 1_555 1_555
C8 H6 1_555 1_555
H7 C8 1_555 1_555
C9 O2 1_555 1_555
C10 C9 1_555 1_555
C11 C10 1_555 1_555
H8 C11 1_555 1_555
C12 C11 1_555 1_555
H9 C12 1_555 1_555
C13 C12 1_555 1_555
H10 C13 1_555 1_555
C14 C13 1_555 1_555
H11 C14 1_555 1_555
C15 C10 1_555 1_555
C16 C15 1_555 1_555
C17 C16 1_555 1_555
H12 C17 1_555 1_555
C18 C9 1_555 1_555
H13 C18 1_555 1_555
C19 O3 1_555 1_555
H14 C19 1_555 1_555
H15 C19 1_555 1_555
C20 O1 1_555 1_555
C21 N3 1_555 1_555
H16 C21 1_555 1_555
C22 C21 1_555 1_555
H17 C22 1_555 1_555
C23 C22 1_555 1_555
H18 C23 1_555 1_555
C24 C23 1_555 1_555
C25 N3 1_555 1_555
C26 C8 1_555 1_555
C27 N4 1_555 1_555
H19 C27 1_555 1_555
C28 C27 1_555 1_555
H20 C28 1_555 1_555
C29 H21 1_555 1_555
C30 N4 1_555 1_555
C31 C30 1_555 1_555
C32 C28 1_555 1_555
H22 C32 1_555 1_555
C33 C24 1_555 1_555
H23 C33 1_555 1_555
C34 C31 1_555 1_555
H24 C34 1_555 1_555
C35 C5 1_555 1_555
C36 C29 1_555 1_555
H25 C36 1_555 1_555
C37 C3 1_555 1_555
C38 C6 1_555 1_555
H26 C38 1_555 1_555
Cd1E O5 1_555 1_555
O5E Cd1 1_555 1_555
C4 C5 1_555 1_555
C4 C37 1_555 1_555
C6 C7 1_555 1_555
C14 C15 1_555 1_555
C17 C18 1_555 1_555
C19 C20 1_555 1_555
C24 C25 1_555 1_555
C25 C30 1_555 1_555
C29 C37 1_555 1_555
C31 C32 1_555 1_555
C33 C34 1_555 1_555
C35 C36 1_555 1_555
C35 C38 1_555 1_555

#END
