
#######################################################################
#
#                 Cambridge Crystallographic Data Centre
#                                CCDC 
#
#######################################################################
#
# If this CIF has been generated from an entry in the Cambridge 
# Structural Database, then it will include bibliographic, chemical, 
# crystal, experimental, refinement or atomic coordinate data resulting 
# from the CCDC's data processing and validation procedures.
#
#######################################################################

data_TUWROT01
_symmetry_cell_setting           monoclinic
_symmetry_space_group_name_H-M   'P 21/n'
_symmetry_Int_Tables_number      14
_space_group_name_Hall           '-P 2yn'
loop_
_symmetry_equiv_pos_site_id
_symmetry_equiv_pos_as_xyz
1 x,y,z
2 1/2-x,1/2+y,1/2-z
3 -x,-y,-z
4 1/2+x,1/2-y,1/2+z
_cell_length_a                   8.9408(12)
_cell_length_b                   10.8955(15)
_cell_length_c                   16.165(2)
_cell_angle_alpha                90
_cell_angle_beta                 92.645(2)
_cell_angle_gamma                90
_cell_volume                     1573.03
loop_
_atom_site_label
_atom_site_type_symbol
_atom_site_fract_x
_atom_site_fract_y
_atom_site_fract_z
C1 C 0.0195(4) 0.5791(3) 0.25691(19)
H1 H 0.0385 0.6475 0.2225
C2 C -0.1056(4) 0.5068(3) 0.2385(2)
H2 H -0.1703 0.5244 0.1918
C3 C -0.1341(4) 0.4086(3) 0.2895(2)
H3 H -0.2209 0.3595 0.2797
C4 C -0.0341(4) 0.3829(3) 0.3553(2)
H4 H -0.0507 0.3151 0.3906
C5 C 0.0905(3) 0.4572(3) 0.36882(19)
C6 C 0.2040(3) 0.4296(3) 0.43732(19)
C7 C 0.1876(3) 0.3111(3) 0.4815(2)
C8 C 0.1984(4) 0.2017(3) 0.4380(2)
H5 H 0.2212 0.2028 0.3812
C9 C 0.1759(4) 0.0913(3) 0.4777(2)
H6 H 0.1841 0.0164 0.4482
C10 C 0.1414(4) 0.0897(3) 0.5603(2)
H7 H 0.1241 0.0138 0.5872
C11 C 0.1322(4) 0.1983(3) 0.6033(2)
H8 H 0.1091 0.1969 0.6601
C12 C 0.1561(4) 0.3090(3) 0.5649(2)
H9 H 0.1511 0.3835 0.5952
C13 C 0.4247(3) 0.4847(3) 0.5170(2)
H10 H 0.4225 0.3973 0.5338
H11 H 0.4077 0.5358 0.5664
C14 C 0.1082(4) 0.9319(3) 0.2521(2)
C15 C 0.3750(4) 0.8081(3) 0.5209(2)
Hg1 Hg 0.322363(13) 0.673394(10) 0.351182(7)
N1 N 0.1138(3) 0.5556(2) 0.32135(16)
N2 N 0.3076(3) 0.5082(2) 0.45283(16)
N3 N 0.1708(3) 0.8397(3) 0.2529(2)
N4 N 0.3398(5) 0.7851(3) 0.5867(2)
S1 S 0.01417(9) 1.06421(8) 0.25149(5)
S2 S 0.42884(10) 0.84659(7) 0.42660(6)
C1B C 0.9805(4) 0.4209(3) 0.74309(19)
H1B H 0.9615 0.3525 0.7775
C2B C 1.1056(4) 0.4932(3) 0.7615(2)
H2B H 1.1703 0.4756 0.8082
C3B C 1.1341(4) 0.5914(3) 0.7105(2)
H3B H 1.2209 0.6405 0.7203
C4B C 1.0341(4) 0.6171(3) 0.6447(2)
H4B H 1.0507 0.6849 0.6094
C5B C 0.9095(3) 0.5428(3) 0.63118(19)
C6B C 0.7960(3) 0.5704(3) 0.56268(19)
C7B C 0.8124(3) 0.6889(3) 0.5185(2)
C8B C 0.8016(4) 0.7983(3) 0.5620(2)
H5B H 0.7788 0.7972 0.6188
C9B C 0.8241(4) 0.9087(3) 0.5223(2)
H6B H 0.8159 0.9836 0.5518
C10B C 0.8586(4) 0.9103(3) 0.4397(2)
H7B H 0.8759 0.9862 0.4128
C11B C 0.8678(4) 0.8017(3) 0.3967(2)
H8B H 0.8909 0.8031 0.3399
C12B C 0.8439(4) 0.6910(3) 0.4351(2)
H9B H 0.8489 0.6165 0.4048
C13B C 0.5753(3) 0.5153(3) 0.4830(2)
H10B H 0.5775 0.6027 0.4662
H11B H 0.5923 0.4642 0.4336
C14A C 0.3918(4) 0.4319(3) 0.2479(2)
C15B C 0.6250(4) 0.1919(3) 0.4791(2)
Hg1B Hg 0.677637(13) 0.326606(10) 0.648818(7)
Hg1A Hg 0.177637(13) 1.173394(10) 0.148818(7)
Hg1A_2 Hg 0.177637(13) 0.173394(10) 0.148818(7)
N1B N 0.8862(3) 0.4444(2) 0.67865(16)
N2B N 0.6924(3) 0.4918(2) 0.54717(16)
N3A N 0.3292(3) 0.3397(3) 0.2471(2)
N3B N 0.8292(3) 0.1603(3) 0.7471(2)
N4B N 0.6602(5) 0.2149(3) 0.4133(2)
S1A S 0.48583(9) 0.56421(8) 0.24851(5)
S1C S 0.51417(9) 0.43579(8) 0.75149(5)
S2B S 0.57116(10) 0.15341(7) 0.57340(6)
loop_
_geom_bond_atom_site_label_1
_geom_bond_atom_site_label_2
_geom_bond_site_symmetry_1
_geom_bond_site_symmetry_2
C1 H1 1_555 1_555
C2 C1 1_555 1_555
H2 C2 1_555 1_555
C3 C2 1_555 1_555
H3 C3 1_555 1_555
C4 C3 1_555 1_555
H4 C4 1_555 1_555
C5 C4 1_555 1_555
C6 C5 1_555 1_555
C7 C6 1_555 1_555
C8 C7 1_555 1_555
H5 C8 1_555 1_555
C9 C8 1_555 1_555
H6 C9 1_555 1_555
C10 C9 1_555 1_555
H7 C10 1_555 1_555
C11 C10 1_555 1_555
H8 C11 1_555 1_555
C12 C7 1_555 1_555
H9 C12 1_555 1_555
C13 H10 1_555 1_555
H11 C13 1_555 1_555
C14 N3 1_555 1_555
C15 N4 1_555 1_555
Hg1 N1 1_555 1_555
N1 C1 1_555 1_555
N2 C6 1_555 1_555
N3 Hg1 1_555 1_555
S1 C14 1_555 1_555
S2 C15 1_555 1_555
C1B H1B 1_555 1_555
C2B C1B 1_555 1_555
H2B C2B 1_555 1_555
C3B C2B 1_555 1_555
H3B C3B 1_555 1_555
C4B C3B 1_555 1_555
H4B C4B 1_555 1_555
C5B C4B 1_555 1_555
C6B C5B 1_555 1_555
C7B C6B 1_555 1_555
C8B C7B 1_555 1_555
H5B C8B 1_555 1_555
C9B C8B 1_555 1_555
H6B C9B 1_555 1_555
C10B C9B 1_555 1_555
H7B C10B 1_555 1_555
C11B C10B 1_555 1_555
H8B C11B 1_555 1_555
C12B C7B 1_555 1_555
H9B C12B 1_555 1_555
C13B C13 1_555 1_555
H10B C13B 1_555 1_555
H11B C13B 1_555 1_555
C14A N3A 1_555 1_555
C15B N4B 1_555 1_555
Hg1B N1B 1_555 1_555
Hg1A S1 1_555 1_555
Hg1A_2 N3A 1_555 1_555
N1B C1B 1_555 1_555
N2B C6B 1_555 1_555
N3B Hg1B 1_555 1_555
S1A Hg1 1_555 1_555
S1C Hg1B 1_555 1_555
S2B C15B 1_555 1_555
C5 N1 1_555 1_555
C11 C12 1_555 1_555
C13 N2 1_555 1_555
Hg1 N2 1_555 1_555
Hg1 S2 1_555 1_555
C5B N1B 1_555 1_555
C11B C12B 1_555 1_555
C13B N2B 1_555 1_555
C14A S1A 1_555 1_555
Hg1B N2B 1_555 1_555
Hg1B S2B 1_555 1_555

#END
