
#######################################################################
#
#                 Cambridge Crystallographic Data Centre
#                                CCDC 
#
#######################################################################
#
# If this CIF has been generated from an entry in the Cambridge 
# Structural Database, then it will include bibliographic, chemical, 
# crystal, experimental, refinement or atomic coordinate data resulting 
# from the CCDC's data processing and validation procedures.
#
#######################################################################

data_TUWWIT
_symmetry_cell_setting           monoclinic
_symmetry_space_group_name_H-M   'C 2/c'
_symmetry_Int_Tables_number      15
_space_group_name_Hall           '-C 2yn'
loop_
_symmetry_equiv_pos_site_id
_symmetry_equiv_pos_as_xyz
1 x,y,z
2 -x,y,1/2-z
3 1/2+x,1/2+y,z
4 1/2-x,1/2+y,1/2-z
5 -x,-y,-z
6 x,-y,1/2+z
7 1/2-x,1/2-y,-z
8 1/2+x,1/2-y,1/2+z
_cell_length_a                   23.9750(10)
_cell_length_b                   7.4020(10)
_cell_length_c                   20.0460(10)
_cell_angle_alpha                90
_cell_angle_beta                 93.850(10)
_cell_angle_gamma                90
_cell_volume                     3549.39
loop_
_atom_site_label
_atom_site_type_symbol
_atom_site_fract_x
_atom_site_fract_y
_atom_site_fract_z
Co1 Co 0.092089(12) 0.48475(4) 0.361811(15)
Cl1 Cl 0.08220(3) 0.39100(13) 0.25413(3)
N1 N 0.16821(8) 0.5645(3) 0.34507(10)
H1 H 0.1905 0.4686 0.3433
H2 H 0.1810 0.6372 0.3780
H3 H 0.1675 0.6237 0.3064
N2 N 0.01580(8) 0.4052(3) 0.37470(11)
H4 H 0.0160 0.2886 0.3855
H5 H -0.0054 0.4216 0.3370
H6 H 0.0020 0.4693 0.4074
N3 N 0.12224(9) 0.2488(3) 0.39110(11)
H7 H 0.1477 0.2643 0.4250
H8 H 0.1381 0.1956 0.3573
H9 H 0.0946 0.1797 0.4042
N4 N 0.09841(9) 0.5665(3) 0.45453(10)
H10 H 0.1295 0.6315 0.4618
H11 H 0.0998 0.4712 0.4816
H12 H 0.0689 0.6341 0.4625
N5 N 0.06488(11) 0.7231(3) 0.33412(14)
H13 H 0.0518 0.7799 0.3690
H14 H 0.0376 0.7114 0.3020
H15 H 0.0928 0.7868 0.3187
Cr1 Cr 0.147684(14) 0.00493(5) 0.101193(17)
C1 C 0.24190(9) -0.0417(3) 0.03038(10)
O1 O 0.28758(7) -0.0826(2) 0.01090(9)
O2 O 0.22248(6) -0.0935(2) 0.08554(7)
C2 C 0.20243(10) 0.0852(3) -0.01195(11)
O3 O 0.21600(8) 0.1430(3) -0.06539(9)
O4 O 0.15644(7) 0.1209(2) 0.01466(8)
C3 C 0.05632(10) -0.1973(3) 0.05552(11)
O5 O 0.10987(7) -0.2067(2) 0.05836(9)
O6 O 0.02476(8) -0.3177(3) 0.03444(10)
C4 C 0.03291(10) -0.0179(3) 0.08152(12)
O7 O 0.07040(7) 0.0927(2) 0.10462(9)
O8 O -0.01787(8) 0.0065(3) 0.07982(11)
C5 C 0.19254(9) 0.1703(3) 0.21601(12)
O9 O 0.22003(9) 0.2647(3) 0.25580(10)
O10 O 0.18246(7) 0.2054(2) 0.15352(8)
C6 C 0.16614(10) -0.0087(3) 0.23833(12)
O11 O 0.14748(7) -0.1104(2) 0.19026(8)
O12 O 0.16447(10) -0.0416(3) 0.29772(9)
K1 K 0.21410(3) 0.55864(8) 0.13936(3)
O1F O 0.21242(7) 0.5826(2) -0.01090(9)
O2_2 O 0.22248(6) 0.9065(2) 0.08554(7)
O3F O 0.28400(8) 0.3570(3) 0.06539(9)
O5_2 O 0.10987(7) 0.7933(2) 0.05836(9)
O9C O 0.27997(9) 0.7647(3) 0.24420(10)
O11_2 O 0.14748(7) 0.8896(2) 0.19026(8)
O12C O 0.33553(10) 0.4584(3) 0.20228(9)
K1_2 K 0.21410(3) -0.44136(8) 0.13936(3)
K1C K 0.28590(3) 0.05864(8) 0.36064(3)
K1F K 0.28590(3) -0.05864(8) -0.13936(3)
O13 O 0.0000 1.0044(6) 0.2500
H16 H 0.0287(15) 1.087(5) 0.2503(18)
H16A H -0.0287(15) 1.087(5) 0.2497(18)
loop_
_geom_bond_atom_site_label_1
_geom_bond_atom_site_label_2
_geom_bond_site_symmetry_1
_geom_bond_site_symmetry_2
Co1 Cl1 1_555 1_555
N1 Co1 1_555 1_555
H1 N1 1_555 1_555
H2 N1 1_555 1_555
H3 N1 1_555 1_555
N2 Co1 1_555 1_555
H4 N2 1_555 1_555
H5 N2 1_555 1_555
H6 N2 1_555 1_555
N3 Co1 1_555 1_555
H7 N3 1_555 1_555
H8 N3 1_555 1_555
H9 N3 1_555 1_555
N4 Co1 1_555 1_555
H10 N4 1_555 1_555
H11 N4 1_555 1_555
H12 N4 1_555 1_555
N5 Co1 1_555 1_555
H13 N5 1_555 1_555
H14 N5 1_555 1_555
H15 N5 1_555 1_555
Cr1 O2 1_555 1_555
C1 O1 1_555 1_555
O1 K1F 1_555 1_555
O2 C1 1_555 1_555
C2 C1 1_555 1_555
O3 C2 1_555 1_555
O4 Cr1 1_555 1_555
C3 O5 1_555 1_555
O5 Cr1 1_555 1_555
O6 C3 1_555 1_555
C4 C3 1_555 1_555
O7 Cr1 1_555 1_555
O8 C4 1_555 1_555
C5 O9 1_555 1_555
O9 K1 1_555 1_555
O10 Cr1 1_555 1_555
C6 C5 1_555 1_555
O11 Cr1 1_555 1_555
O12 C6 1_555 1_555
K1 O10 1_555 1_555
O13 H16 1_555 1_555
O1F K1 1_555 1_555
O2_2 K1 1_555 1_555
O3F K1 1_555 1_555
O5_2 K1 1_555 1_555
O9C K1 1_555 1_555
O11_2 K1 1_555 1_555
O12C K1 1_555 1_555
K1_2 O2 1_555 1_555
K1C O9 1_555 1_555
K1F O3 1_555 1_555
H16A O13 1_555 1_555
C2 O4 1_555 1_555
O5 K1_2 1_555 1_555
C4 O7 1_555 1_555
C5 O10 1_555 1_555
C6 O11 1_555 1_555
O11 K1_2 1_555 1_555
O12 K1C 1_555 1_555

#END
