
#######################################################################
#
#                 Cambridge Crystallographic Data Centre
#                                CCDC 
#
#######################################################################
#
# If this CIF has been generated from an entry in the Cambridge 
# Structural Database, then it will include bibliographic, chemical, 
# crystal, experimental, refinement or atomic coordinate data resulting 
# from the CCDC's data processing and validation procedures.
#
#######################################################################

data_TUWZOB
_symmetry_cell_setting           orthorhombic
_symmetry_space_group_name_H-M   'P c a 21'
_symmetry_Int_Tables_number      29
_space_group_name_Hall           'P 2c -2ac'
loop_
_symmetry_equiv_pos_site_id
_symmetry_equiv_pos_as_xyz
1 x,y,z
2 -x,-y,1/2+z
3 1/2+x,-y,z
4 1/2-x,y,1/2+z
_cell_length_a                   21.892(2)
_cell_length_b                   9.8994(11)
_cell_length_c                   14.8687(15)
_cell_angle_alpha                90
_cell_angle_beta                 90
_cell_angle_gamma                90
_cell_volume                     3222.31
loop_
_atom_site_label
_atom_site_type_symbol
_atom_site_fract_x
_atom_site_fract_y
_atom_site_fract_z
Cd1 Cd 0.185691(17) 0.61749(4) 0.92139(2)
Cd2 Cd 0.226042(16) 0.62657(4) 0.65961(3)
N1 N 0.18719(17) 0.4227(4) 0.6924(3)
N2 N 0.09547(17) 0.6128(4) 0.8432(3)
N3 N 0.19799(18) 0.8315(4) 0.9739(3)
N4 N 0.18058(17) 0.7279(4) 1.1849(3)
S1 S 0.17357(7) 0.21489(15) 0.79354(12)
S2 S 0.25470(6) 0.45221(16) 0.84139(11)
S3 S 0.02945(7) 0.71286(18) 0.71705(11)
S4 S 0.16054(7) 0.79481(14) 0.75090(10)
S5 S 0.26515(7) 0.99739(15) 1.06296(11)
S6 S 0.30657(6) 0.71767(16) 1.00343(10)
S7 S 0.06747(6) 0.72497(15) 1.14005(11)
S8 S 0.16024(6) 0.51516(13) 1.07848(10)
C1 C 0.2042(3) 0.3731(5) 0.7699(3)
C2 C 0.1352(2) 0.2156(5) 0.6910(4)
C3 C 0.1478(2) 0.3355(5) 0.6458(4)
C4 C 0.1228(3) 0.3589(6) 0.5618(4)
H1 H 0.1314 0.4387 0.5312
C5 C 0.0856(3) 0.2643(7) 0.5244(5)
H2 H 0.0679 0.2802 0.4685
C6 C 0.0742(3) 0.1448(7) 0.5692(6)
H3 H 0.0494 0.0803 0.5419
C7 C 0.0981(2) 0.1180(5) 0.6527(5)
H4 H 0.0897 0.0374 0.6824
C8 C 0.0979(2) 0.6989(5) 0.7758(3)
C9 C 0.0383(2) 0.5521(5) 0.8513(4)
C10 C -0.0051(2) 0.5961(5) 0.7890(4)
C11 C -0.0642(3) 0.5487(7) 0.7911(5)
H5 H -0.0933 0.5816 0.7510
C12 C -0.0796(3) 0.4521(7) 0.8534(5)
H6 H -0.1191 0.4175 0.8543
C13 C -0.0368(3) 0.4054(6) 0.9150(5)
H7 H -0.0477 0.3395 0.9566
C14 C 0.0217(2) 0.4567(6) 0.9148(5)
H8 H 0.0500 0.4272 0.9571
C15 C 0.2525(2) 0.8441(5) 1.0080(3)
C16 C 0.1905(3) 1.0464(6) 1.0395(4)
C17 C 0.1608(2) 0.9449(6) 0.9898(4)
C18 C 0.1012(2) 0.9611(6) 0.9624(4)
H9 H 0.0818 0.8955 0.9280
C19 C 0.0710(3) 1.0785(6) 0.9879(5)
H10 H 0.0308 1.0919 0.9696
C20 C 0.0995(3) 1.1756(7) 1.0398(5)
H11 H 0.0779 1.2520 1.0575
C21 C 0.1592(3) 1.1608(6) 1.0655(5)
H12 H 0.1784 1.2269 1.0999
C22 C 0.1407(2) 0.6606(5) 1.1368(3)
C23 C 0.0923(2) 0.8524(6) 1.2113(4)
C24 C 0.1545(2) 0.8379(5) 1.2281(3)
C25 C 0.1842(3) 0.9281(7) 1.2848(4)
H13 H 0.2256 0.9180 1.2971
C26 C 0.1518(3) 1.0323(7) 1.3223(4)
H14 H 0.1715 1.0949 1.3589
C27 C 0.0895(3) 1.0447(8) 1.3058(5)
H15 H 0.0679 1.1145 1.3329
C28 C 0.0596(3) 0.9574(7) 1.2511(5)
H16 H 0.0180 0.9674 1.2404
Cd2C Cd 0.273958(16) 0.62657(4) 1.15961(3)
N4C N 0.31942(17) 0.7279(4) 0.6849(3)
S6C S 0.19343(6) 0.71767(16) 0.50343(10)
S8C S 0.33976(6) 0.51516(13) 0.57848(10)
loop_
_geom_bond_atom_site_label_1
_geom_bond_atom_site_label_2
_geom_bond_site_symmetry_1
_geom_bond_site_symmetry_2
Cd1 N2 1_555 1_555
Cd2 N1 1_555 1_555
N1 C1 1_555 1_555
N2 C8 1_555 1_555
N3 Cd1 1_555 1_555
N4 C22 1_555 1_555
S1 C1 1_555 1_555
S2 Cd1 1_555 1_555
S3 C8 1_555 1_555
S4 Cd2 1_555 1_555
S5 C15 1_555 1_555
S6 C15 1_555 1_555
S7 C22 1_555 1_555
S8 Cd1 1_555 1_555
C1 S2 1_555 1_555
C2 S1 1_555 1_555
C3 N1 1_555 1_555
C4 C3 1_555 1_555
H1 C4 1_555 1_555
C5 C4 1_555 1_555
H2 C5 1_555 1_555
C6 C5 1_555 1_555
H3 C6 1_555 1_555
C7 C2 1_555 1_555
H4 C7 1_555 1_555
C8 S4 1_555 1_555
C9 N2 1_555 1_555
C10 S3 1_555 1_555
C11 C10 1_555 1_555
H5 C11 1_555 1_555
C12 C11 1_555 1_555
H6 C12 1_555 1_555
C13 C12 1_555 1_555
H7 C13 1_555 1_555
C14 C9 1_555 1_555
H8 C14 1_555 1_555
C15 N3 1_555 1_555
C16 S5 1_555 1_555
C17 N3 1_555 1_555
C18 C17 1_555 1_555
H9 C18 1_555 1_555
C19 C18 1_555 1_555
H10 C19 1_555 1_555
C20 C19 1_555 1_555
H11 C20 1_555 1_555
C21 C16 1_555 1_555
H12 C21 1_555 1_555
C22 S8 1_555 1_555
C23 S7 1_555 1_555
C24 N4 1_555 1_555
C25 C24 1_555 1_555
H13 C25 1_555 1_555
C26 C25 1_555 1_555
H14 C26 1_555 1_555
C27 C26 1_555 1_555
H15 C27 1_555 1_555
C28 C23 1_555 1_555
H16 C28 1_555 1_555
Cd2C N4 1_555 1_555
N4C Cd2 1_555 1_555
S6C Cd2 1_555 1_555
S8C Cd2 1_555 1_555
S6 Cd2C 1_555 1_555
S8 Cd2C 1_555 1_555
C2 C3 1_555 1_555
C6 C7 1_555 1_555
C9 C10 1_555 1_555
C13 C14 1_555 1_555
C16 C17 1_555 1_555
C20 C21 1_555 1_555
C23 C24 1_555 1_555
C27 C28 1_555 1_555

#END
