
#######################################################################
#
#                 Cambridge Crystallographic Data Centre
#                                CCDC 
#
#######################################################################
#
# If this CIF has been generated from an entry in the Cambridge 
# Structural Database, then it will include bibliographic, chemical, 
# crystal, experimental, refinement or atomic coordinate data resulting 
# from the CCDC's data processing and validation procedures.
#
#######################################################################

data_TUXBEV
_symmetry_cell_setting           monoclinic
_symmetry_space_group_name_H-M   'P 2/n'
_symmetry_Int_Tables_number      13
_space_group_name_Hall           '-P 2yac'
loop_
_symmetry_equiv_pos_site_id
_symmetry_equiv_pos_as_xyz
1 x,y,z
2 1/2-x,y,1/2-z
3 -x,-y,-z
4 1/2+x,-y,1/2+z
_cell_length_a                   11.8806(3)
_cell_length_b                   9.1001(3)
_cell_length_c                   16.6475(5)
_cell_angle_alpha                90
_cell_angle_beta                 105.427(2)
_cell_angle_gamma                90
_cell_volume                     1734.99
loop_
_atom_site_label
_atom_site_type_symbol
_atom_site_fract_x
_atom_site_fract_y
_atom_site_fract_z
Cd1 Cd 0.7500 0.73030(4) 0.7500
S1 S 0.50216(10) 0.71393(10) 0.86319(6)
O1 O 0.6112(3) 0.7476(3) 0.84234(18)
C1 C 0.8652(3) 0.0203(4) 0.8694(2)
N1 N 0.8780(2) -0.0925(3) 0.82132(17)
N2 N 0.7854(3) 0.5338(3) 0.91606(18)
H1 H 0.7345 0.5910 0.9280
N3 N 0.8217(3) 0.5463(3) 0.84589(18)
C2 C 0.8995(3) 0.4379(4) 0.8512(2)
C3 C 0.9927(4) 0.2287(4) 0.9548(2)
C4 C 0.9118(3) 0.3579(3) 0.9253(2)
C5 C 0.4950(3) 0.9650(4) 0.9610(2)
N4 N 0.9913(3) -0.0884(3) 0.8201(2)
C6 C 0.5343(4) 0.7302(4) 1.0302(3)
H2 H 0.5440 0.6290 1.0277
C7 C 0.5099(3) 0.8110(4) 0.9582(2)
C8 C 0.5447(4) 0.7982(4) 1.1077(3)
H3 H 0.5618 0.7415 1.1560
C9 C 0.4697(3) 1.0556(4) 0.8870(2)
H4 H 0.4634 1.0126 0.8353
C10 C 0.8372(3) 0.4224(4) 0.9650(2)
C11 C 0.9710(3) 0.0978(4) 0.8978(2)
C12 C 1.0491(3) 0.0247(4) 0.8641(2)
C13 C 1.1741(4) 0.0549(6) 0.8675(3)
H5 H 1.2169 0.0751 0.9239
H6 H 1.1785 0.1383 0.8331
H7 H 1.2072 -0.0294 0.8475
C14 C 0.7504(4) 0.0546(5) 0.8851(3)
H8 H 0.7240 -0.0288 0.9104
H9 H 0.6946 0.0770 0.8333
H10 H 0.7587 0.1377 0.9218
O2 O 0.4044(3) 0.7615(3) 0.7991(2)
O3 O 0.4972(4) 0.5610(3) 0.8855(2)
C15 C 0.9591(4) 0.4106(5) 0.7844(3)
H11 H 1.0292 0.4683 0.7950
H12 H 0.9080 0.4377 0.7314
H13 H 0.9785 0.3083 0.7837
C16 C 0.8039(4) 0.3862(5) 1.0434(3)
H14 H 0.7865 0.4752 1.0686
H15 H 0.8675 0.3364 1.0813
H16 H 0.7364 0.3238 1.0304
H17 H 1.018(3) -0.147(5) 0.785(3)
H18 H 1.079(5) 0.263(4) 0.968(3)
H19 H 0.987(4) 0.214(4) 1.011(3)
S1B S 0.49784(10) 1.28607(10) 1.13681(6)
O1B O 0.3888(3) 1.2524(3) 1.15766(18)
C5B C 0.5050(3) 1.0350(4) 1.0390(2)
C6B C 0.4657(4) 1.2698(4) 0.9698(3)
H2B H 0.4560 1.3710 0.9723
C7B C 0.4901(3) 1.1890(4) 1.0418(2)
C8B C 0.4553(4) 1.2018(4) 0.8923(3)
H3B H 0.4382 1.2585 0.8440
C9B C 0.5303(3) 0.9444(4) 1.1130(2)
H4B H 0.5366 0.9874 1.1647
O2B O 0.5956(3) 1.2385(3) 1.2009(2)
O3B O 0.5028(4) 1.4390(3) 1.1145(2)
C1A C 0.6348(3) 0.0203(4) 0.6306(2)
N1A N 0.6220(2) -0.0925(3) 0.67868(17)
N2A N 0.7146(3) 0.5338(3) 0.58394(18)
H1A H 0.7655 0.5910 0.5720
N3A N 0.6783(3) 0.5463(3) 0.65411(18)
C2A C 0.6005(3) 0.4379(4) 0.6488(2)
C3A C 0.5073(4) 0.2287(4) 0.5452(2)
C4A C 0.5882(3) 0.3579(3) 0.5747(2)
N4A N 0.5087(3) -0.0884(3) 0.6799(2)
C10A C 0.6628(3) 0.4224(4) 0.5350(2)
C11A C 0.5290(3) 0.0978(4) 0.6022(2)
C12A C 0.4509(3) 0.0247(4) 0.6359(2)
C13A C 0.3259(4) 0.0549(6) 0.6325(3)
H5A H 0.2831 0.0751 0.5761
H6A H 0.3215 0.1383 0.6669
H7A H 0.2928 -0.0294 0.6525
C14A C 0.7496(4) 0.0546(5) 0.6149(3)
H8A H 0.7760 -0.0288 0.5896
H9A H 0.8054 0.0770 0.6667
H10A H 0.7413 0.1377 0.5782
C15A C 0.5409(4) 0.4106(5) 0.7156(3)
H11A H 0.4708 0.4683 0.7050
H12A H 0.5920 0.4377 0.7686
H13A H 0.5215 0.3083 0.7163
C16A C 0.6961(4) 0.3862(5) 0.4566(3)
H14A H 0.7135 0.4752 0.4314
H15A H 0.6325 0.3364 0.4187
H16A H 0.7636 0.3238 0.4696
H17A H 0.482(3) -0.147(5) 0.715(3)
H18A H 0.421(5) 0.263(4) 0.532(3)
H19A H 0.513(4) 0.214(4) 0.489(3)
Cd1_2 Cd 0.7500 -0.26970(4) 0.7500
Cd1B Cd 0.2500 1.26970(4) 1.2500
O1A O 0.8888(3) 0.7476(3) 0.65766(18)
N1_2 N 0.8780(2) 0.9075(3) 0.82132(17)
N1A_2 N 0.6220(2) 0.9075(3) 0.67868(17)
O4 O 0.7500 0.5379(8) 0.2500
H20 H 0.795(7) 0.496(8) 0.302(3)
H20A H 0.705(7) 0.496(8) 0.198(3)
loop_
_geom_bond_atom_site_label_1
_geom_bond_atom_site_label_2
_geom_bond_site_symmetry_1
_geom_bond_site_symmetry_2
Cd1 O1 1_555 1_555
S1 O1 1_555 1_555
C1 N1 1_555 1_555
N1 N4 1_555 1_555
N2 H1 1_555 1_555
N3 Cd1 1_555 1_555
C2 N3 1_555 1_555
C3 C4 1_555 1_555
C4 C2 1_555 1_555
C5 C7 1_555 1_555
N4 C12 1_555 1_555
C6 H2 1_555 1_555
C7 S1 1_555 1_555
C8 C6 1_555 1_555
H3 C8 1_555 1_555
C9 C5 1_555 1_555
H4 C9 1_555 1_555
C10 N2 1_555 1_555
C11 C1 1_555 1_555
C12 C11 1_555 1_555
C13 C12 1_555 1_555
H5 C13 1_555 1_555
H6 C13 1_555 1_555
H7 C13 1_555 1_555
C14 C1 1_555 1_555
H8 C14 1_555 1_555
H9 C14 1_555 1_555
H10 C14 1_555 1_555
O2 S1 1_555 1_555
O3 S1 1_555 1_555
C15 C2 1_555 1_555
H11 C15 1_555 1_555
H12 C15 1_555 1_555
H13 C15 1_555 1_555
C16 C10 1_555 1_555
H14 C16 1_555 1_555
H15 C16 1_555 1_555
H16 C16 1_555 1_555
H17 N4 1_555 1_555
H18 C3 1_555 1_555
H19 C3 1_555 1_555
O4 H20 1_555 1_555
S1B O1B 1_555 1_555
O1B Cd1B 1_555 1_555
C5B C5 1_555 1_555
C6B H2B 1_555 1_555
C7B S1B 1_555 1_555
C8B C9 1_555 1_555
H3B C8B 1_555 1_555
C9B C8 1_555 1_555
H4B C9B 1_555 1_555
O2B S1B 1_555 1_555
O3B S1B 1_555 1_555
C1A N1A 1_555 1_555
N1A N4A 1_555 1_555
N2A H1A 1_555 1_555
N3A Cd1 1_555 1_555
C2A N3A 1_555 1_555
C3A C4A 1_555 1_555
C4A C2A 1_555 1_555
N4A C12A 1_555 1_555
C10A N2A 1_555 1_555
C11A C1A 1_555 1_555
C12A C11A 1_555 1_555
C13A C12A 1_555 1_555
H5A C13A 1_555 1_555
H6A C13A 1_555 1_555
H7A C13A 1_555 1_555
C14A C1A 1_555 1_555
H8A C14A 1_555 1_555
H9A C14A 1_555 1_555
H10A C14A 1_555 1_555
C15A C2A 1_555 1_555
H11A C15A 1_555 1_555
H12A C15A 1_555 1_555
H13A C15A 1_555 1_555
C16A C10A 1_555 1_555
H14A C16A 1_555 1_555
H15A C16A 1_555 1_555
H16A C16A 1_555 1_555
H17A N4A 1_555 1_555
H18A C3A 1_555 1_555
H19A C3A 1_555 1_555
Cd1_2 N1 1_555 1_555
O1A Cd1 1_555 1_555
N1_2 Cd1 1_555 1_555
N1A_2 Cd1 1_555 1_555
H20A O4 1_555 1_555
N2 N3 1_555 1_555
C3 C11 1_555 1_555
C4 C10 1_555 1_555
C6 C7 1_555 1_555
C5B C7B 1_555 1_555
C5B C9B 1_555 1_555
C6B C7B 1_555 1_555
C6B C8B 1_555 1_555
N1A Cd1_2 1_555 1_555
N2A N3A 1_555 1_555
C3A C11A 1_555 1_555
C4A C10A 1_555 1_555

#END
