
#######################################################################
#
#                 Cambridge Crystallographic Data Centre
#                                CCDC 
#
#######################################################################
#
# If this CIF has been generated from an entry in the Cambridge 
# Structural Database, then it will include bibliographic, chemical, 
# crystal, experimental, refinement or atomic coordinate data resulting 
# from the CCDC's data processing and validation procedures.
#
#######################################################################

data_TUXGAV
_symmetry_cell_setting           monoclinic
_symmetry_space_group_name_H-M   'C 2/c'
_symmetry_Int_Tables_number      15
_space_group_name_Hall           '-C 2yn'
loop_
_symmetry_equiv_pos_site_id
_symmetry_equiv_pos_as_xyz
1 x,y,z
2 -x,y,1/2-z
3 1/2+x,1/2+y,z
4 1/2-x,1/2+y,1/2-z
5 -x,-y,-z
6 x,-y,1/2+z
7 1/2-x,1/2-y,-z
8 1/2+x,1/2-y,1/2+z
_cell_length_a                   19.70(1)
_cell_length_b                   16.834(2)
_cell_length_c                   15.274(2)
_cell_angle_alpha                90
_cell_angle_beta                 119.073(2)
_cell_angle_gamma                90
_cell_volume                     4427.09
loop_
_atom_site_label
_atom_site_type_symbol
_atom_site_fract_x
_atom_site_fract_y
_atom_site_fract_z
Cu1 Cu 1.0000 1.09913(7) 0.7500
Cu2 Cu 0.7500 0.7500 0.5000
F1 F 1.0046(6) 1.2182(5) 1.0281(7)
F2 F 1.0332(7) 1.3138(6) 0.9735(8)
F3 F 1.1176(6) 1.2530(6) 1.0954(7)
F4 F 1.2933(6) 1.1265(5) 1.0212(9)
F5 F 1.2642(5) 1.1344(5) 0.8707(7)
F6 F 1.2500(4) 1.0279(4) 0.9264(7)
F7 F 0.9000(6) 0.9612(5) 0.5157(8)
F8 F 0.8872(5) 0.9470(3) 0.3798(6)
F9 F 0.8033(6) 0.9895(4) 0.4077(10)
F10 F 0.8552(6) 0.6071(4) 0.3417(7)
F11 F 0.8322(5) 0.6914(4) 0.2337(6)
F12 F 0.7453(7) 0.6263(6) 0.2375(9)
N1 N 0.9382(7) 0.6809(6) 0.6985(10)
N2 N 1.0000 0.9795(5) 0.7500
O1 O 0.8745(10) 0.7040(7) 0.6446(14)
O2 O 1.0051(5) 1.1745(4) 0.8586(8)
O3 O 1.1128(5) 1.1009(3) 0.8143(7)
O4 O 0.7979(4) 0.8444(3) 0.4867(5)
O5 O 0.7689(4) 0.6929(3) 0.4064(6)
C1 C 0.9371(6) 0.9374(5) 0.7372(8)
H1 H 0.8926 0.9645 0.7266
C2 C 0.9374(5) 0.8572(4) 0.7394(7)
H2 H 0.8942 0.8302 0.7337
C3 C 1.0000 0.8152(6) 0.7500
C4 C 1.0000 0.7261(8) 0.7500
C5 C 0.9573(7) 0.5985(5) 0.7185(12)
C6 C 0.9088(11) 0.5657(8) 0.7588(14)
H3 H 0.9359 0.5703 0.8305
H4 H 0.8981 0.5108 0.7404
H5 H 0.8609 0.5947 0.7319
C7 C 0.9305(11) 0.5645(7) 0.6113(14)
H6 H 0.8808 0.5391 0.5869
H7 H 0.9678 0.5264 0.6143
H8 H 0.9262 0.6070 0.5671
C8 C 1.0570(11) 1.2457(10) 1.0084(15)
C9 C 1.0662(8) 1.1911(6) 0.9334(12)
C10 C 1.1418(7) 1.1695(5) 0.9612(9)
H9 H 1.1817 1.1852 1.0234
C11 C 1.1588(7) 1.1260(5) 0.8996(10)
C12 C 1.2418(8) 1.1040(7) 0.9297(13)
C13 C 0.8519(9) 0.9359(6) 0.4236(12)
C14 C 0.8252(6) 0.8526(4) 0.4308(8)
C15 C 0.8274(6) 0.7977(5) 0.3642(8)
H10 H 0.8464 0.8127 0.3215
C16 C 0.8023(6) 0.7233(5) 0.3614(8)
C17 C 0.8059(10) 0.6629(5) 0.2888(13)
Cu2A Cu 1.2500 0.7500 1.0000
F1A F 0.9954(6) 1.2182(5) 0.4719(7)
F2A F 0.9668(7) 1.3138(6) 0.5265(8)
F3A F 0.8824(6) 1.2530(6) 0.4046(7)
F4A F 0.7067(6) 1.1265(5) 0.4788(9)
F5A F 0.7358(5) 1.1344(5) 0.6293(7)
F6A F 0.7500(4) 1.0279(4) 0.5736(7)
F7F F 0.6000(6) 0.5388(5) 0.4843(8)
F8F F 0.6128(5) 0.5530(3) 0.6202(6)
F9F F 0.6967(6) 0.5105(4) 0.5923(10)
F10F F 0.6448(6) 0.8929(4) 0.6583(7)
F11F F 0.6678(5) 0.8086(4) 0.7663(6)
F12F F 0.7547(7) 0.8737(6) 0.7625(9)
N1A N 1.0618(7) 0.6809(6) 0.8015(10)
O1A O 1.1255(10) 0.7040(7) 0.8554(14)
O1F O 0.6255(10) 0.7960(7) 0.3554(14)
O2A O 0.9949(5) 1.1745(4) 0.6414(8)
O3A O 0.8872(5) 1.1009(3) 0.6857(7)
O4F O 0.7021(4) 0.6556(3) 0.5133(5)
O5F O 0.7311(4) 0.8071(3) 0.5936(6)
C1A C 1.0629(6) 0.9374(5) 0.7628(8)
H1A H 1.1074 0.9645 0.7734
C2A C 1.0626(5) 0.8572(4) 0.7606(7)
H2A H 1.1058 0.8302 0.7663
C5A C 1.0427(7) 0.5985(5) 0.7815(12)
C6A C 1.0912(11) 0.5657(8) 0.7412(14)
H3A H 1.0641 0.5703 0.6695
H4A H 1.1019 0.5108 0.7596
H5A H 1.1391 0.5947 0.7681
C7A C 1.0695(11) 0.5645(7) 0.8887(14)
H6A H 1.1192 0.5391 0.9131
H7A H 1.0322 0.5264 0.8857
H8A H 1.0738 0.6070 0.9329
C8A C 0.9430(11) 1.2457(10) 0.4916(15)
C9A C 0.9338(8) 1.1911(6) 0.5666(12)
C10A C 0.8582(7) 1.1695(5) 0.5388(9)
H9A H 0.8183 1.1852 0.4766
C11A C 0.8412(7) 1.1260(5) 0.6004(10)
C12A C 0.7582(8) 1.1040(7) 0.5703(13)
C13F C 0.6481(9) 0.5641(6) 0.5764(12)
C14F C 0.6748(6) 0.6474(4) 0.5692(8)
C15F C 0.6726(6) 0.7023(5) 0.6358(8)
H10F H 0.6536 0.6873 0.6785
C16F C 0.6977(6) 0.7767(5) 0.6386(8)
C17F C 0.6941(10) 0.8371(5) 0.7112(13)
loop_
_geom_bond_atom_site_label_1
_geom_bond_atom_site_label_2
_geom_bond_site_symmetry_1
_geom_bond_site_symmetry_2
Cu1 N2 1_555 1_555
Cu2 O1 1_555 1_555
F1 C8 1_555 1_555
F2 C8 1_555 1_555
F3 C8 1_555 1_555
F4 C12 1_555 1_555
F5 C12 1_555 1_555
F6 C12 1_555 1_555
F7 C13 1_555 1_555
F8 C13 1_555 1_555
F9 C13 1_555 1_555
F10 C17 1_555 1_555
F11 C17 1_555 1_555
F12 C17 1_555 1_555
N1 O1 1_555 1_555
N2 C1 1_555 1_555
O2 Cu1 1_555 1_555
O3 Cu1 1_555 1_555
O4 Cu2 1_555 1_555
O5 Cu2 1_555 1_555
C1 H1 1_555 1_555
C2 C1 1_555 1_555
H2 C2 1_555 1_555
C3 C2 1_555 1_555
C4 N1 1_555 1_555
C5 N1 1_555 1_555
C6 C5 1_555 1_555
H3 C6 1_555 1_555
H4 C6 1_555 1_555
H5 C6 1_555 1_555
C7 C5 1_555 1_555
H6 C7 1_555 1_555
H7 C7 1_555 1_555
H8 C7 1_555 1_555
C8 C9 1_555 1_555
C9 O2 1_555 1_555
C10 C9 1_555 1_555
H9 C10 1_555 1_555
C11 O3 1_555 1_555
C12 C11 1_555 1_555
C13 C14 1_555 1_555
C14 O4 1_555 1_555
C15 C14 1_555 1_555
H10 C15 1_555 1_555
C16 O5 1_555 1_555
C17 C16 1_555 1_555
Cu2A O1A 1_555 1_555
F1A C8A 1_555 1_555
F2A C8A 1_555 1_555
F3A C8A 1_555 1_555
F4A C12A 1_555 1_555
F5A C12A 1_555 1_555
F6A C12A 1_555 1_555
F7F C13F 1_555 1_555
F8F C13F 1_555 1_555
F9F C13F 1_555 1_555
F10F C17F 1_555 1_555
F11F C17F 1_555 1_555
F12F C17F 1_555 1_555
N1A C4 1_555 1_555
O1A N1A 1_555 1_555
O1F Cu2 1_555 1_555
O2A Cu1 1_555 1_555
O3A Cu1 1_555 1_555
O4F Cu2 1_555 1_555
O5F Cu2 1_555 1_555
C1A N2 1_555 1_555
H1A C1A 1_555 1_555
C2A C3 1_555 1_555
H2A C2A 1_555 1_555
C5A C5 1_555 1_555
C6A C5A 1_555 1_555
H3A C6A 1_555 1_555
H4A C6A 1_555 1_555
H5A C6A 1_555 1_555
C7A C5A 1_555 1_555
H6A C7A 1_555 1_555
H7A C7A 1_555 1_555
H8A C7A 1_555 1_555
C8A C9A 1_555 1_555
C9A O2A 1_555 1_555
C10A C9A 1_555 1_555
H9A C10A 1_555 1_555
C11A O3A 1_555 1_555
C12A C11A 1_555 1_555
C13F C14F 1_555 1_555
C14F O4F 1_555 1_555
C15F C14F 1_555 1_555
H10F C15F 1_555 1_555
C16F O5F 1_555 1_555
C17F C16F 1_555 1_555
C3 C4 1_555 1_555
C10 C11 1_555 1_555
C15 C16 1_555 1_555
N1A C5A 1_555 1_555
C1A C2A 1_555 1_555
C10A C11A 1_555 1_555
C15F C16F 1_555 1_555

#END
