
#######################################################################
#
#                 Cambridge Crystallographic Data Centre
#                                CCDC 
#
#######################################################################
#
# If this CIF has been generated from an entry in the Cambridge 
# Structural Database, then it will include bibliographic, chemical, 
# crystal, experimental, refinement or atomic coordinate data resulting 
# from the CCDC's data processing and validation procedures.
#
#######################################################################

data_TUXLAA01
_symmetry_cell_setting           monoclinic
_symmetry_space_group_name_H-M   'P 21/c'
_symmetry_Int_Tables_number      14
_space_group_name_Hall           '-P 2ybc'
loop_
_symmetry_equiv_pos_site_id
_symmetry_equiv_pos_as_xyz
1 x,y,z
2 -x,1/2+y,1/2-z
3 -x,-y,-z
4 x,1/2-y,1/2+z
_cell_length_a                   6.6149(13)
_cell_length_b                   30.137(6)
_cell_length_c                   8.2217(16)
_cell_angle_alpha                90
_cell_angle_beta                 90.14(3)
_cell_angle_gamma                90
_cell_volume                     1639.02
loop_
_atom_site_label
_atom_site_type_symbol
_atom_site_fract_x
_atom_site_fract_y
_atom_site_fract_z
C1 C 0.8278(12) 0.2965(3) 0.4761(10)
C2 C 0.8986(13) 0.2539(3) 0.5198(14)
C3 C 1.0852(14) 0.2522(3) 0.6031(11)
H1 H 1.1339 0.2249 0.6389
C4 C 1.1959(14) 0.2896(3) 0.6324(12)
H2 H 1.3191 0.2882 0.6868
C5 C 1.1185(13) 0.3298(3) 0.5782(11)
H3 H 1.1957 0.3553 0.5939
C6 C 0.6219(14) 0.3080(3) 0.4032(11)
C7 C 0.8020(12) 0.2091(3) 0.4857(11)
C8 C 0.7514(14) 0.5342(2) 0.8754(8)
C9 C 0.7400(14) 0.5704(2) 0.7723(8)
C10 C 0.7332(14) 0.6132(2) 0.8385(11)
H4 H 0.7289 0.6378 0.7701
C11 C 0.7330(13) 0.6191(2) 1.0054(10)
H5 H 0.7286 0.6475 1.0494
C12 C 0.7396(18) 0.5822(3) 1.1071(11)
H6 H 0.7374 0.5854 1.2195
C13 C 0.7605(14) 0.4859(2) 0.8257(9)
C14 C 0.7418(14) 0.5649(2) 0.5876(9)
N1 N 0.9359(10) 0.3340(2) 0.5035(9)
N2 N 0.7490(13) 0.5420(2) 1.0388(7)
H7 H 0.7538 0.5194 1.1026
O1 O 0.6898(10) 0.3840(2) 0.7502(7)
H8 H 0.6858 0.4031 0.8343
H9 H 0.7593 0.3599 0.7838
O2 O 0.7724(10) 0.48929(17) 0.3262(7)
H10 H 0.8954 0.4984 0.3255
H11 H 0.7135 0.5092 0.3840
O3 O 0.7700(11) 0.40188(18) 0.2015(6)
H12 H 0.7783 0.4237 0.1271
H13 H 0.8098 0.3767 0.1522
O4 O 0.5566(9) 0.3454(2) 0.4200(7)
O5 O 0.5264(10) 0.2777(2) 0.3221(9)
H14 H 0.5305 0.2495 0.3198
O6 O 0.8698(12) 0.1767(2) 0.5650(10)
O7 O 0.6644(11) 0.2057(2) 0.3778(8)
O8 O 0.7934(9) 0.47803(19) 0.6767(7)
O9 O 0.7332(17) 0.45872(19) 0.9373(7)
O10 O 0.5721(8) 0.55731(19) 0.5210(8)
O11 O 0.9026(8) 0.57013(19) 0.5144(8)
Ca1 Ca 0.7548(3) 0.41249(4) 0.48454(17)
O10B O 0.4279(8) 0.44269(19) 0.4790(8)
O11B O 1.0974(8) 0.42987(19) 0.4856(8)
Ca1B Ca 0.2452(3) 0.58751(4) 0.51546(17)
Ca1B_2 Ca 1.2452(3) 0.58751(4) 0.51546(17)
loop_
_geom_bond_atom_site_label_1
_geom_bond_atom_site_label_2
_geom_bond_site_symmetry_1
_geom_bond_site_symmetry_2
C1 C2 1_555 1_555
C2 C3 1_555 1_555
C3 H1 1_555 1_555
C4 C3 1_555 1_555
H2 C4 1_555 1_555
C5 C4 1_555 1_555
H3 C5 1_555 1_555
C6 C1 1_555 1_555
C7 C2 1_555 1_555
C8 C9 1_555 1_555
C9 C10 1_555 1_555
C10 H4 1_555 1_555
C11 C10 1_555 1_555
H5 C11 1_555 1_555
C12 C11 1_555 1_555
H6 C12 1_555 1_555
C13 C8 1_555 1_555
C14 C9 1_555 1_555
N1 C1 1_555 1_555
N2 C8 1_555 1_555
H7 N2 1_555 1_555
O1 H8 1_555 1_555
H9 O1 1_555 1_555
O2 H10 1_555 1_555
H11 O2 1_555 1_555
O3 H12 1_555 1_555
H13 O3 1_555 1_555
O4 C6 1_555 1_555
O5 C6 1_555 1_555
H14 O5 1_555 1_555
O6 C7 1_555 1_555
O7 C7 1_555 1_555
O8 C13 1_555 1_555
O9 C13 1_555 1_555
O10 C14 1_555 1_555
O11 C14 1_555 1_555
Ca1 N1 1_555 1_555
O10B Ca1 1_555 1_555
O11B Ca1 1_555 1_555
Ca1B O10 1_555 1_555
Ca1B_2 O11 1_555 1_555
C5 N1 1_555 1_555
C12 N2 1_555 1_555
O1 Ca1 1_555 1_555
O2 Ca1 1_555 1_555
O3 Ca1 1_555 1_555
O4 Ca1 1_555 1_555
O8 Ca1 1_555 1_555

#END
