
#######################################################################
#
#                 Cambridge Crystallographic Data Centre
#                                CCDC 
#
#######################################################################
#
# If this CIF has been generated from an entry in the Cambridge 
# Structural Database, then it will include bibliographic, chemical, 
# crystal, experimental, refinement or atomic coordinate data resulting 
# from the CCDC's data processing and validation procedures.
#
#######################################################################

data_TUXNEF
_symmetry_cell_setting           monoclinic
_symmetry_space_group_name_H-M   'P 21/c'
_symmetry_Int_Tables_number      14
_space_group_name_Hall           '-P 2ybc'
loop_
_symmetry_equiv_pos_site_id
_symmetry_equiv_pos_as_xyz
1 x,y,z
2 x,1/2-y,1/2+z
3 -x,-y,-z
4 -x,1/2+y,1/2-z
_cell_length_a                   11.491(3)
_cell_length_b                   17.917(4)
_cell_length_c                   12.781(3)
_cell_angle_alpha                90
_cell_angle_beta                 116.142(7)
_cell_angle_gamma                90
_cell_volume                     2362.23
loop_
_atom_site_label
_atom_site_type_symbol
_atom_site_fract_x
_atom_site_fract_y
_atom_site_fract_z
Ni1 Ni 0.38434(7) 0.00080(6) 0.20199(7)
Ni2 Ni 0.5000 0.0000 0.5000
O1 O 0.3624(4) 0.0819(2) 0.4256(4)
O2 O 0.2523(4) 0.0585(3) 0.2324(4)
O3 O -0.3708(4) 0.4163(2) 0.0708(4)
O4 O -0.3214(4) 0.4025(3) 0.2611(4)
O5 O 0.5507(4) 0.0068(3) 0.3608(3)
O6 O 0.5602(4) -0.0518(3) 0.2141(4)
N1 N 0.2625(5) -0.0221(3) 0.0317(5)
N2 N 0.4394(5) 0.1046(3) 0.1549(5)
C1 C 0.0788(7) 0.1734(4) 0.2086(6)
H1 H 0.0789 0.1531 0.1418
C2 C 0.1720(7) 0.1517(4) 0.3147(6)
C3 C 0.1733(7) 0.1840(4) 0.4163(6)
H2 H 0.2363 0.1698 0.4893
C4 C 0.0821(7) 0.2361(4) 0.4077(7)
H3 H 0.0842 0.2571 0.4751
C5 C -0.1123(7) 0.3103(4) 0.2877(7)
H4 H -0.1095 0.3328 0.3543
C6 C -0.2103(6) 0.3281(4) 0.1817(7)
C7 C -0.2166(7) 0.2926(4) 0.0781(6)
H5 H -0.2851 0.3029 0.0059
C8 C -0.1223(7) 0.2442(4) 0.0864(7)
H6 H -0.1256 0.2226 0.0190
C9 C -0.0176(7) 0.2256(4) 0.1969(7)
C10 C -0.0145(7) 0.2583(4) 0.2983(7)
C11 C 0.2704(7) 0.0920(4) 0.3258(7)
C12 C -0.3089(7) 0.3871(4) 0.1704(7)
C13 C 0.8288(6) 0.0221(3) 0.4654(6)
H7 H 0.7828 0.0552 0.4891
C14 C 0.7623(6) -0.0295(4) 0.3807(6)
C15 C 0.8317(6) -0.0815(4) 0.3470(6)
H8 H 0.7870 -0.1167 0.2898
C16 C 0.9632(6) -0.0804(4) 0.3973(6)
H9 H 1.0074 -0.1160 0.3756
C17 C 0.9653(6) 0.0262(4) 0.5174(6)
C18 C 0.6179(6) -0.0270(3) 0.3175(6)
C19 C 0.3052(7) -0.0685(4) -0.0254(7)
H10 H 0.3863 -0.0903 0.0154
C20 C 0.2351(8) -0.0860(4) -0.1420(7)
H11 H 0.2678 -0.1191 -0.1784
C21 C 0.1158(8) -0.0530(4) -0.2028(7)
H12 H 0.0669 -0.0625 -0.2819
C22 C 0.0707(7) -0.0059(5) -0.1442(6)
H13 H -0.0107 0.0160 -0.1834
C23 C 0.1446(6) 0.0092(4) -0.0286(6)
H14 H 0.1129 0.0418 0.0094
C24 C 0.4152(6) 0.1227(4) 0.0446(6)
H15 H 0.3861 0.0856 -0.0119
C25 C 0.4317(7) 0.1934(4) 0.0123(7)
H16 H 0.4123 0.2038 -0.0649
C26 C 0.4772(7) 0.2489(4) 0.0953(8)
H17 H 0.4888 0.2972 0.0749
C27 C 0.5051(7) 0.2318(4) 0.2090(8)
H18 H 0.5370 0.2682 0.2666
C28 C 0.4848(7) 0.1588(4) 0.2365(7)
H19 H 0.5031 0.1473 0.3131
C16B C 1.0368(6) 0.0804(4) 0.6027(6)
C15B C 1.1683(6) 0.0815(4) 0.6530(6)
C14B C 1.2377(6) 0.0295(4) 0.6193(6)
C13B C 1.1712(6) -0.0221(3) 0.5346(6)
H7B H 1.2172 -0.0552 0.5109
C17B C 1.0347(6) -0.0262(4) 0.4826(6)
C18B C 1.3821(6) 0.0270(3) 0.6825(6)
O5B O 1.4493(4) -0.0068(3) 0.6392(3)
O6B O 1.4398(4) 0.0518(3) 0.7859(4)
H8B H 1.2130 0.1167 0.7102
H9B H 0.9926 0.1160 0.6244
O1B O 0.6376(4) -0.0819(2) 0.5744(4)
O2B O 0.7477(4) -0.0585(3) 0.7676(4)
O3B O 1.3708(4) -0.4163(2) 0.9292(4)
O4B O 1.3214(4) -0.4025(3) 0.7389(4)
C1B C 0.9212(7) -0.1734(4) 0.7914(6)
H1B H 0.9211 -0.1531 0.8582
C2B C 0.8280(7) -0.1517(4) 0.6853(6)
C3B C 0.8267(7) -0.1840(4) 0.5837(6)
H2B H 0.7637 -0.1698 0.5107
C4B C 0.9179(7) -0.2361(4) 0.5923(7)
H3B H 0.9158 -0.2571 0.5249
C5B C 1.1123(7) -0.3103(4) 0.7123(7)
H4B H 1.1095 -0.3328 0.6457
C6B C 1.2103(6) -0.3281(4) 0.8183(7)
C7B C 1.2166(7) -0.2926(4) 0.9219(6)
H5B H 1.2851 -0.3029 0.9941
C8B C 1.1223(7) -0.2442(4) 0.9136(7)
H6B H 1.1256 -0.2226 0.9810
C9B C 1.0176(7) -0.2256(4) 0.8031(7)
C10B C 1.0145(7) -0.2583(4) 0.7017(7)
C11B C 0.7296(7) -0.0920(4) 0.6742(7)
C12B C 1.3089(7) -0.3871(4) 0.8296(7)
Ni1B Ni 0.61566(7) -0.00080(6) 0.79801(7)
N1B N 0.7375(5) 0.0221(3) 0.9683(5)
C19B C 0.6948(7) 0.0685(4) 1.0254(7)
H10B H 0.6137 0.0903 0.9846
C20B C 0.7649(8) 0.0860(4) 1.1420(7)
H11B H 0.7322 0.1191 1.1784
C21B C 0.8842(8) 0.0530(4) 1.2028(7)
H12B H 0.9331 0.0625 1.2819
C22B C 0.9293(7) 0.0059(5) 1.1442(6)
H13B H 1.0107 -0.0160 1.1834
C23B C 0.8554(6) -0.0092(4) 1.0286(6)
H14B H 0.8871 -0.0418 0.9906
N2B N 0.5606(5) -0.1046(3) 0.8451(5)
C24B C 0.5848(6) -0.1227(4) 0.9554(6)
H15B H 0.6139 -0.0856 1.0119
C25B C 0.5683(7) -0.1934(4) 0.9877(7)
H16B H 0.5877 -0.2038 1.0649
C26B C 0.5228(7) -0.2489(4) 0.9047(8)
H17B H 0.5112 -0.2972 0.9251
C27B C 0.4949(7) -0.2318(4) 0.7910(8)
H18B H 0.4630 -0.2682 0.7334
C28B C 0.5152(7) -0.1588(4) 0.7635(7)
H19B H 0.4969 -0.1473 0.6869
O4C O 0.3214(4) -0.0975(3) 0.2389(4)
O3A O 0.6292(4) 0.0837(2) 0.5708(4)
O3C O 0.3708(4) -0.0837(2) 0.4292(4)
O5B_2 O 0.4493(4) -0.0068(3) 0.6392(3)
Ni2A Ni -0.5000 0.5000 0.0000
Ni1C Ni -0.38434(7) 0.50080(6) 0.29801(7)
Ni1B_2 Ni 1.61566(7) -0.00080(6) 0.79801(7)
Ni2_2 Ni 1.5000 0.0000 0.5000
Ni2A_2 Ni 1.5000 -0.5000 1.0000
Ni1A Ni 1.38434(7) -0.50080(6) 0.70199(7)
O4A O 0.6786(4) 0.0975(3) 0.7611(4)
O6B_2 O 0.4398(4) 0.0518(3) 0.7859(4)
loop_
_geom_bond_atom_site_label_1
_geom_bond_atom_site_label_2
_geom_bond_site_symmetry_1
_geom_bond_site_symmetry_2
Ni1 O2 1_555 1_555
Ni2 O1 1_555 1_555
O1 C11 1_555 1_555
O2 C11 1_555 1_555
O3 C12 1_555 1_555
O4 C12 1_555 1_555
O5 Ni1 1_555 1_555
O6 Ni1 1_555 1_555
N1 Ni1 1_555 1_555
N2 Ni1 1_555 1_555
C1 H1 1_555 1_555
C2 C1 1_555 1_555
C3 C2 1_555 1_555
H2 C3 1_555 1_555
C4 C3 1_555 1_555
H3 C4 1_555 1_555
C5 H4 1_555 1_555
C6 C5 1_555 1_555
C7 C6 1_555 1_555
H5 C7 1_555 1_555
C8 C7 1_555 1_555
H6 C8 1_555 1_555
C9 C1 1_555 1_555
C10 C4 1_555 1_555
C11 C2 1_555 1_555
C12 C6 1_555 1_555
C13 H7 1_555 1_555
C14 C13 1_555 1_555
C15 C14 1_555 1_555
H8 C15 1_555 1_555
C16 C15 1_555 1_555
H9 C16 1_555 1_555
C17 C13 1_555 1_555
C18 O5 1_555 1_555
C19 N1 1_555 1_555
H10 C19 1_555 1_555
C20 C19 1_555 1_555
H11 C20 1_555 1_555
C21 C20 1_555 1_555
H12 C21 1_555 1_555
C22 C21 1_555 1_555
H13 C22 1_555 1_555
C23 N1 1_555 1_555
H14 C23 1_555 1_555
C24 N2 1_555 1_555
H15 C24 1_555 1_555
C25 C24 1_555 1_555
H16 C25 1_555 1_555
C26 C25 1_555 1_555
H17 C26 1_555 1_555
C27 C26 1_555 1_555
H18 C27 1_555 1_555
C28 N2 1_555 1_555
H19 C28 1_555 1_555
C16B C17 1_555 1_555
C15B C16B 1_555 1_555
C14B C15B 1_555 1_555
C13B C14B 1_555 1_555
H7B C13B 1_555 1_555
C17B C16 1_555 1_555
C18B C14B 1_555 1_555
O5B C18B 1_555 1_555
O6B C18B 1_555 1_555
H8B C15B 1_555 1_555
H9B C16B 1_555 1_555
O1B Ni2 1_555 1_555
O2B C11B 1_555 1_555
O3B C12B 1_555 1_555
O4B C12B 1_555 1_555
C1B H1B 1_555 1_555
C2B C1B 1_555 1_555
C3B C2B 1_555 1_555
H2B C3B 1_555 1_555
C4B C3B 1_555 1_555
H3B C4B 1_555 1_555
C5B H4B 1_555 1_555
C6B C5B 1_555 1_555
C7B C6B 1_555 1_555
H5B C7B 1_555 1_555
C8B C7B 1_555 1_555
H6B C8B 1_555 1_555
C9B C1B 1_555 1_555
C10B C4B 1_555 1_555
C11B O1B 1_555 1_555
C12B C6B 1_555 1_555
Ni1B O2B 1_555 1_555
N1B Ni1B 1_555 1_555
C19B N1B 1_555 1_555
H10B C19B 1_555 1_555
C20B C19B 1_555 1_555
H11B C20B 1_555 1_555
C21B C20B 1_555 1_555
H12B C21B 1_555 1_555
C22B C21B 1_555 1_555
H13B C22B 1_555 1_555
C23B N1B 1_555 1_555
H14B C23B 1_555 1_555
N2B Ni1B 1_555 1_555
C24B N2B 1_555 1_555
H15B C24B 1_555 1_555
C25B C24B 1_555 1_555
H16B C25B 1_555 1_555
C26B C25B 1_555 1_555
H17B C26B 1_555 1_555
C27B C26B 1_555 1_555
H18B C27B 1_555 1_555
C28B N2B 1_555 1_555
H19B C28B 1_555 1_555
O4C Ni1 1_555 1_555
O3A Ni2 1_555 1_555
O3C Ni2 1_555 1_555
O5B_2 Ni2 1_555 1_555
Ni2A O3 1_555 1_555
Ni1C O4 1_555 1_555
Ni1B_2 O5B 1_555 1_555
Ni2_2 O5B 1_555 1_555
Ni2A_2 O3B 1_555 1_555
Ni1A O4B 1_555 1_555
O4A Ni1B 1_555 1_555
O6B_2 Ni1B 1_555 1_555
Ni2 O5 1_555 1_555
O6 C18 1_555 1_555
C5 C10 1_555 1_555
C8 C9 1_555 1_555
C9 C10 1_555 1_555
C14 C18 1_555 1_555
C17 C17B 1_555 1_555
C22 C23 1_555 1_555
C27 C28 1_555 1_555
C13B C17B 1_555 1_555
O6B Ni1B_2 1_555 1_555
C2B C11B 1_555 1_555
C5B C10B 1_555 1_555
C8B C9B 1_555 1_555
C9B C10B 1_555 1_555
Ni1B O5B_2 1_555 1_555
C22B C23B 1_555 1_555
C27B C28B 1_555 1_555

#END
