
#######################################################################
#
#                 Cambridge Crystallographic Data Centre
#                                CCDC 
#
#######################################################################
#
# If this CIF has been generated from an entry in the Cambridge 
# Structural Database, then it will include bibliographic, chemical, 
# crystal, experimental, refinement or atomic coordinate data resulting 
# from the CCDC's data processing and validation procedures.
#
#######################################################################

data_TUXNAB
_symmetry_cell_setting           monoclinic
_symmetry_space_group_name_H-M   'C c'
_symmetry_Int_Tables_number      9
_space_group_name_Hall           'C -2yc'
loop_
_symmetry_equiv_pos_site_id
_symmetry_equiv_pos_as_xyz
1 x,y,z
2 x,-y,1/2+z
3 1/2+x,1/2+y,z
4 1/2+x,1/2-y,1/2+z
_cell_length_a                   14.8583(2)
_cell_length_b                   20.3985(3)
_cell_length_c                   10.7258(1)
_cell_angle_alpha                90
_cell_angle_beta                 129.0067(6)
_cell_angle_gamma                90
_cell_volume                     2526.15
loop_
_atom_site_label
_atom_site_type_symbol
_atom_site_fract_x
_atom_site_fract_y
_atom_site_fract_z
Ni1 Ni 0.0853(9) 0.2247(4) 0.7115(11)
O1 O 0.1052(19) 0.1358(11) 0.6306(24)
O2 O 0.2544(17) 0.1869(10) 0.8241(26)
O3 O 0.7737(17) -0.1353(12) 0.9737(29)
O4 O 0.5955(23) -0.1806(10) 0.7909(30)
O5 O -0.0976(15) 0.2309(10) 0.5376(24)
N1 N 0.0953(35) 0.2667(16) 0.538(4)
N2 N 0.0887(30) 0.1780(14) 0.8963(29)
C1 C 0.4080(19) 0.0761(13) 0.871(4)
C2 C 0.2872(19) 0.0763(15) 0.755(4)
C3 C 0.2333(15) 0.0295(15) 0.6315(31)
C4 C 0.2987(16) -0.0231(14) 0.6429(27)
C5 C 0.4834(17) -0.0798(11) 0.7805(34)
C6 C 0.6043(17) -0.0786(14) 0.895(4)
C7 C 0.6597(14) -0.0304(15) 1.0156(29)
C8 C 0.5940(14) 0.0219(13) 1.0052(32)
C9 C 0.4736(14) 0.0241(13) 0.8816(34)
C10 C 0.4174(13) -0.0288(11) 0.7741(31)
C11 C 0.2157(18) 0.1329(13) 0.743(4)
C12 C 0.6646(16) -0.1360(13) 0.886(4)
C13 C 0.1893(26) 0.3052(18) 0.5941(20)
C14 C 0.1999(24) 0.3304(18) 0.482(5)
C15 C 0.1108(35) 0.3200(20) 0.317(4)
C16 C 0.0112(24) 0.2844(19) 0.2637(20)
C17 C 0.0103(24) 0.2534(14) 0.379(5)
C18 C 0.3140(20) 0.3671(17) 0.576(4)
C19 C 0.1378(27) 0.3487(17) 0.2141(34)
C20 C 0.1759(23) 0.1974(14) 1.050(4)
C21 C 0.1850(25) 0.1695(18) 1.1786(21)
C22 C 0.0977(33) 0.1244(19) 1.1389(31)
C23 C 0.0118(24) 0.1042(15) 0.980(4)
C24 C 0.0062(23) 0.1325(17) 0.8573(22)
C25 C 0.1201(31) 0.0921(14) 1.2829(29)
C26 C 0.2895(20) 0.1963(15) 1.3427(24)
O4B O 0.0955(23) 0.3194(10) 0.7909(30)
Ni1B Ni 0.5853(9) -0.2753(4) 0.7115(11)
O6 O -0.1000(21) 0.0432(9) 0.4496(25)
loop_
_geom_bond_atom_site_label_1
_geom_bond_atom_site_label_2
_geom_bond_site_symmetry_1
_geom_bond_site_symmetry_2
Ni1 O1 1_555 1_555
O1 C11 1_555 1_555
O2 Ni1 1_555 1_555
O3 C12 1_555 1_555
O4 C12 1_555 1_555
O5 Ni1 1_555 1_555
N1 Ni1 1_555 1_555
N2 Ni1 1_555 1_555
C1 C2 1_555 1_555
C2 C3 1_555 1_555
C3 C4 1_555 1_555
C4 C10 1_555 1_555
C5 C6 1_555 1_555
C6 C7 1_555 1_555
C7 C8 1_555 1_555
C8 C9 1_555 1_555
C9 C1 1_555 1_555
C10 C5 1_555 1_555
C11 O2 1_555 1_555
C12 C6 1_555 1_555
C13 N1 1_555 1_555
C14 C13 1_555 1_555
C15 C14 1_555 1_555
C16 C15 1_555 1_555
C17 N1 1_555 1_555
C18 C14 1_555 1_555
C19 C15 1_555 1_555
C20 N2 1_555 1_555
C21 C20 1_555 1_555
C22 C21 1_555 1_555
C23 C22 1_555 1_555
C24 N2 1_555 1_555
C25 C22 1_555 1_555
C26 C21 1_555 1_555
O4B Ni1 1_555 1_555
Ni1B O4 1_555 1_555
C2 C11 1_555 1_555
C9 C10 1_555 1_555
C16 C17 1_555 1_555
C23 C24 1_555 1_555

#END
