
#######################################################################
#
#                 Cambridge Crystallographic Data Centre
#                                CCDC 
#
#######################################################################
#
# If this CIF has been generated from an entry in the Cambridge 
# Structural Database, then it will include bibliographic, chemical, 
# crystal, experimental, refinement or atomic coordinate data resulting 
# from the CCDC's data processing and validation procedures.
#
#######################################################################

data_TUXNIJ
_symmetry_cell_setting           monoclinic
_symmetry_space_group_name_H-M   'P 21/m'
_symmetry_Int_Tables_number      11
_space_group_name_Hall           '-P 2yb'
loop_
_symmetry_equiv_pos_site_id
_symmetry_equiv_pos_as_xyz
1 x,y,z
2 x,1/2-y,z
3 -x,-y,-z
4 -x,1/2+y,-z
_cell_length_a                   7.4169(10)
_cell_length_b                   10.0460(13)
_cell_length_c                   11.0845(15)
_cell_angle_alpha                90
_cell_angle_beta                 102.520(2)
_cell_angle_gamma                90
_cell_volume                     806.268
loop_
_atom_site_label
_atom_site_type_symbol
_atom_site_fract_x
_atom_site_fract_y
_atom_site_fract_z
Cu1 Cu 0.42645(15) 0.2500 0.72001(10)
V1 V 0.71144(14) 0.05605(11) 0.94404(9)
V2 V 0.4873(2) 0.2500 1.11488(13)
V3 V 0.11038(19) 0.2500 0.94250(13)
O1 O 0.9225(6) 0.1162(5) 0.9339(4)
O2 O 0.5558(6) 0.1100(5) 0.8224(4)
O3 O 0.5177(10) 0.2500 1.2620(6)
O4 O 0.6553(6) 0.1168(5) 1.0734(4)
O5 O 0.7181(6) -0.1260(4) 0.9509(4)
O6 O 0.1668(9) 0.2500 0.8100(6)
C1 C 0.322(3) -0.0071(12) 0.5942(15)
H1 H 0.3790 -0.0487 0.6674
C2 C 0.237(4) -0.0832(15) 0.491(2)
H2 H 0.2444 -0.1755 0.4963
C3 C 0.146(3) -0.0276(17) 0.3858(16)
H3 H 0.0826 -0.0803 0.3214
C4 C 0.1474(16) 0.1114(12) 0.3741(9)
C5 C 0.2338(11) 0.1813(8) 0.4787(7)
C6 C 0.0502(11) 0.1846(12) 0.2697(7)
H4 H -0.0141 0.1390 0.2007
N1 N 0.3188(11) 0.1230(7) 0.5862(7)
C5A C 0.2338(11) 0.3187(8) 0.4787(7)
C4A C 0.1474(16) 0.3886(12) 0.3741(9)
C3A C 0.146(3) 0.5276(17) 0.3858(16)
C2A C 0.237(4) 0.5832(15) 0.491(2)
C1A C 0.322(3) 0.5071(12) 0.5942(15)
H1A H 0.3790 0.5487 0.6674
N1A N 0.3188(11) 0.3770(7) 0.5862(7)
H2A H 0.2444 0.6755 0.4963
H3A H 0.0826 0.5803 0.3214
C6A C 0.0502(11) 0.3154(12) 0.2697(7)
H4A H -0.0141 0.3610 0.2007
O2A O 0.5558(6) 0.3900(5) 0.8224(4)
V1A V 0.71144(14) 0.44395(11) 0.94404(9)
O1_2 O -0.0775(6) 0.1162(5) 0.9339(4)
O5B O 0.2819(6) 0.1260(4) 1.0491(4)
O4A O 0.6553(6) 0.3832(5) 1.0734(4)
O5C O 0.2819(6) 0.3740(4) 1.0491(4)
O1A O -0.0775(6) 0.3838(5) 0.9339(4)
V3_2 V 1.11038(19) 0.2500 0.94250(13)
V2B V 0.5127(2) -0.2500 0.88512(13)
V3B V 0.88962(19) -0.2500 1.05750(13)
O1A_2 O 0.9225(6) 0.3838(5) 0.9339(4)
O5A O 0.7181(6) 0.6260(4) 0.9509(4)
V1_2 V -0.28856(14) 0.05605(11) 0.94404(9)
V1B V 0.28856(14) -0.05605(11) 1.05596(9)
loop_
_geom_bond_atom_site_label_1
_geom_bond_atom_site_label_2
_geom_bond_site_symmetry_1
_geom_bond_site_symmetry_2
Cu1 O2 1_555 1_555
V1 O1 1_555 1_555
V2 O3 1_555 1_555
V3 O6 1_555 1_555
O1 V3_2 1_555 1_555
O2 V1 1_555 1_555
O4 V1 1_555 1_555
O5 V1 1_555 1_555
O6 Cu1 1_555 1_555
C1 H1 1_555 1_555
C2 C1 1_555 1_555
H2 C2 1_555 1_555
C3 C2 1_555 1_555
H3 C3 1_555 1_555
C4 C3 1_555 1_555
C5 C4 1_555 1_555
C6 C4 1_555 1_555
H4 C6 1_555 1_555
N1 Cu1 1_555 1_555
C5A C5 1_555 1_555
C4A C5A 1_555 1_555
C3A C4A 1_555 1_555
C2A C3A 1_555 1_555
C1A C2A 1_555 1_555
H1A C1A 1_555 1_555
N1A Cu1 1_555 1_555
H2A C2A 1_555 1_555
H3A C3A 1_555 1_555
C6A C6 1_555 1_555
H4A C6A 1_555 1_555
O2A Cu1 1_555 1_555
V1A O2A 1_555 1_555
O1_2 V3 1_555 1_555
O5B V2 1_555 1_555
O4A V2 1_555 1_555
O5C V2 1_555 1_555
O1A V3 1_555 1_555
V3_2 O1A_2 1_555 1_555
V2B O5 1_555 1_555
V3B O5 1_555 1_555
O1A_2 V1A 1_555 1_555
O5A V1A 1_555 1_555
V1_2 O1_2 1_555 1_555
V1B O5B 1_555 1_555
V2 O4 1_555 1_555
V3 O5B 1_555 1_555
V3 O5C 1_555 1_555
C1 N1 1_555 1_555
C5 N1 1_555 1_555
C5A N1A 1_555 1_555
C4A C6A 1_555 1_555
C1A N1A 1_555 1_555
V1A O4A 1_555 1_555

#END
