
#######################################################################
#
#                 Cambridge Crystallographic Data Centre
#                                CCDC 
#
#######################################################################
#
# If this CIF has been generated from an entry in the Cambridge 
# Structural Database, then it will include bibliographic, chemical, 
# crystal, experimental, refinement or atomic coordinate data resulting 
# from the CCDC's data processing and validation procedures.
#
#######################################################################

data_TUXRAF
_symmetry_cell_setting           orthorhombic
_symmetry_space_group_name_H-M   'P 21 21 2'
_symmetry_Int_Tables_number      18
_space_group_name_Hall           'P 2 2ab'
loop_
_symmetry_equiv_pos_site_id
_symmetry_equiv_pos_as_xyz
1 x,y,z
2 -x,-y,z
3 1/2+x,1/2-y,-z
4 1/2-x,1/2+y,-z
_cell_length_a                   17.36200(10)
_cell_length_b                   19.9100(2)
_cell_length_c                   6.4670(3)
_cell_angle_alpha                90
_cell_angle_beta                 90
_cell_angle_gamma                90
_cell_volume                     2235.5
loop_
_atom_site_label
_atom_site_type_symbol
_atom_site_fract_x
_atom_site_fract_y
_atom_site_fract_z
Ag1 Ag 0.403953(11) 0.145833(10) 0.24614(3)
N1 N 0.35696(13) 0.09904(11) -0.0272(4)
N2 N 0.41900(14) 0.19682(12) -0.4635(4)
C1 C 0.31333(17) 0.03467(14) -0.0266(5)
H1 H 0.3486 -0.0028 0.0137
C2 C 0.29005(16) 0.02653(13) -0.2566(6)
H2 H 0.3080 -0.0171 -0.3117
H3 H 0.2334 0.0293 -0.2728
O1 O 0.32809(12) 0.08249(10) -0.3635(3)
C3 C 0.36051(15) 0.11879(14) -0.2144(5)
C4 C 0.40000(15) 0.18140(13) -0.2783(4)
O2 O 0.41796(12) 0.22274(10) -0.1234(3)
C5 C 0.44803(16) 0.28327(14) -0.2250(5)
H4 H 0.4958 0.2990 -0.1569
H5 H 0.4095 0.3199 -0.2228
C6 C 0.46429(16) 0.26004(14) -0.4484(5)
H6 H 0.5203 0.2494 -0.4630
C7 C 0.16245(18) -0.02043(15) 0.3605(5)
H7 H 0.1501 -0.0594 0.4388
C8 C 0.22800(15) -0.01965(13) 0.2383(5)
H8 H 0.2611 -0.0577 0.2354
C9 C 0.24555(17) 0.03660(14) 0.1200(4)
C10 C 0.19779(18) 0.09274(16) 0.1291(5)
H9 H 0.2095 0.1314 0.0489
C11 C 0.11498(18) 0.03508(17) 0.3692(5)
H10 H 0.0700 0.0343 0.4527
C12 C 0.13327(17) 0.09214(16) 0.2550(7)
H11 H 0.1014 0.1308 0.2634
C13 C 0.36636(18) 0.32004(15) -0.6747(5)
H12 H 0.3275 0.2901 -0.6280
C14 C 0.44205(16) 0.31179(14) -0.6076(4)
C15 C 0.49868(18) 0.35532(16) -0.6817(4)
H13 H 0.5508 0.3492 -0.6409
C16 C 0.47955(19) 0.40741(16) -0.8142(5)
H14 H 0.5185 0.4372 -0.8615
C17 C 0.4043(2) 0.41628(15) -0.8780(5)
H15 H 0.3913 0.4524 -0.9677
C18 C 0.34739(19) 0.37199(15) -0.8102(5)
H16 H 0.2958 0.3772 -0.8562
N2_2 N 0.41900(14) 0.19682(12) 0.5365(4)
Ag1_2 Ag 0.403953(11) 0.145833(10) -0.75386(3)
S1 S 0.11911(4) 0.30823(4) 0.94790(13)
O3 O 0.14870(13) 0.37230(11) 1.0133(4)
O4 O 0.11974(15) 0.25647(13) 1.1029(4)
O5 O 0.05009(12) 0.31159(12) 0.8232(4)
C19 C 0.19079(16) 0.27989(15) 0.7613(7)
F1 F 0.17383(13) 0.21957(11) 0.6833(4)
F2 F 0.19720(14) 0.32259(12) 0.6027(4)
F3 F 0.26070(12) 0.27426(13) 0.8459(4)
C20 C 0.02047(18) 0.47015(17) 0.2863(5)
H17 H 0.0342 0.4495 0.1591
C21 C 0.0412(2) 0.44065(17) 0.4710(6)
H18 H 0.0698 0.4000 0.4707
C22 C 0.0207(2) 0.47000(19) 0.6561(6)
H19 H 0.0347 0.4494 0.7832
C20A C -0.02047(18) 0.52985(17) 0.2863(5)
H17A H -0.0342 0.5505 0.1591
C21A C -0.0412(2) 0.55935(17) 0.4710(6)
H18A H -0.0698 0.6000 0.4707
C22A C -0.0207(2) 0.53000(19) 0.6561(6)
H19A H -0.0347 0.5506 0.7832
loop_
_geom_bond_atom_site_label_1
_geom_bond_atom_site_label_2
_geom_bond_site_symmetry_1
_geom_bond_site_symmetry_2
Ag1 N1 1_555 1_555
N1 C1 1_555 1_555
N2 C4 1_555 1_555
C1 H1 1_555 1_555
C2 C1 1_555 1_555
H2 C2 1_555 1_555
H3 C2 1_555 1_555
O1 C2 1_555 1_555
C3 N1 1_555 1_555
C4 C3 1_555 1_555
O2 C4 1_555 1_555
C5 O2 1_555 1_555
H4 C5 1_555 1_555
H5 C5 1_555 1_555
C6 N2 1_555 1_555
H6 C6 1_555 1_555
C7 H7 1_555 1_555
C8 C7 1_555 1_555
H8 C8 1_555 1_555
C9 C1 1_555 1_555
C10 C9 1_555 1_555
H9 C10 1_555 1_555
C11 C7 1_555 1_555
H10 C11 1_555 1_555
C12 C10 1_555 1_555
H11 C12 1_555 1_555
C13 H12 1_555 1_555
C14 C6 1_555 1_555
C15 C14 1_555 1_555
H13 C15 1_555 1_555
C16 C15 1_555 1_555
H14 C16 1_555 1_555
C17 C16 1_555 1_555
H15 C17 1_555 1_555
C18 C13 1_555 1_555
H16 C18 1_555 1_555
S1 O3 1_555 1_555
O4 S1 1_555 1_555
O5 S1 1_555 1_555
C19 S1 1_555 1_555
F1 C19 1_555 1_555
F2 C19 1_555 1_555
F3 C19 1_555 1_555
C20 H17 1_555 1_555
C21 C20 1_555 1_555
H18 C21 1_555 1_555
C22 C21 1_555 1_555
H19 C22 1_555 1_555
C20A C20 1_555 1_555
H17A C20A 1_555 1_555
C21A C20A 1_555 1_555
H18A C21A 1_555 1_555
C22A C22 1_555 1_555
H19A C22A 1_555 1_555
N2_2 Ag1 1_555 1_555
Ag1_2 N2 1_555 1_555
O1 C3 1_555 1_555
C5 C6 1_555 1_555
C8 C9 1_555 1_555
C11 C12 1_555 1_555
C13 C14 1_555 1_555
C17 C18 1_555 1_555
C21A C22A 1_555 1_555

#END
