
#######################################################################
#
#                 Cambridge Crystallographic Data Centre
#                                CCDC 
#
#######################################################################
#
# If this CIF has been generated from an entry in the Cambridge 
# Structural Database, then it will include bibliographic, chemical, 
# crystal, experimental, refinement or atomic coordinate data resulting 
# from the CCDC's data processing and validation procedures.
#
#######################################################################

data_TUXZUH
_symmetry_cell_setting           monoclinic
_symmetry_space_group_name_H-M   'C 2/m'
_symmetry_Int_Tables_number      12
_space_group_name_Hall           '-C 2y'
loop_
_symmetry_equiv_pos_site_id
_symmetry_equiv_pos_as_xyz
1 x,y,z
2 -x,y,-z
3 1/2+x,1/2+y,z
4 1/2-x,1/2+y,-z
5 -x,-y,-z
6 x,-y,z
7 1/2-x,1/2-y,-z
8 1/2+x,1/2-y,z
_cell_length_a                   24.2377(6)
_cell_length_b                   7.0235(2)
_cell_length_c                   11.9725(1)
_cell_angle_alpha                90
_cell_angle_beta                 93.363(1)
_cell_angle_gamma                90
_cell_volume                     2034.61
loop_
_atom_site_label
_atom_site_type_symbol
_atom_site_fract_x
_atom_site_fract_y
_atom_site_fract_z
Cu1 Cu 0.3956(1) 0.0000 0.4255(1)
V1 V 0.5553(1) 0.5000 0.2915(1)
V2 V 0.4361(1) -0.2409(2) 0.9092(1)
V3 V 0.4283(1) 0.5000 0.1305(1)
V4 V 0.4416(1) 0.5000 0.4222(1)
V5 V 0.4751(1) 0.0000 0.6909(1)
O1 O 0.5262(3) 0.5000 0.4239(5)
O2 O 0.6196(3) 0.5000 0.3242(5)
O3 O 0.3707(2) -0.2232(7) 0.8962(4)
O4 O 0.4618(3) 0.0000 0.9042(9)
O5 O 0.4505(2) -0.2937(7) 1.0559(3)
O6 O 0.3627(3) 0.5000 0.1301(6)
O7 O 0.5500(3) 0.5000 0.1290(5)
O8 O 0.4544(2) -0.2330(7) 0.7466(3)
O9 O 0.4455(3) 0.0000 0.5644(5)
O10 O 0.4567(3) 0.5000 0.2647(5)
O11 O 0.4015(2) 0.3162(7) 0.4285(4)
O12 O 0.4576(2) 0.0000 0.3235(5)
N1 N 0.3400(3) 0.0000 0.2973(6)
N2 N 0.3272(3) 0.0000 0.5119(6)
C1 C 0.3501(4) 0.0000 0.1885(8)
C2 C 0.3081(5) 0.0000 0.1043(8)
C3 C 0.2543(4) 0.0000 0.1319(9)
C4 C 0.2433(4) 0.0000 0.2445(9)
C5 C 0.2864(4) 0.0000 0.3254(8)
C6 C 0.2792(4) 0.0000 0.4475(8)
C7 C 0.2284(4) 0.0000 0.4946(8)
C8 C 0.2261(4) 0.0000 0.6097(9)
C9 C 0.2751(4) 0.0000 0.6756(9)
C10 C 0.3245(4) 0.0000 0.6234(8)
O11E O 0.4015(2) -0.3162(7) 0.4285(4)
O8E O 0.4544(2) 0.2330(7) 0.7466(3)
V2E V 0.4361(1) 0.2409(2) 0.9092(1)
O5E O 0.4505(2) 0.2937(7) 0.0559(3)
O3E O 0.3707(2) 0.2232(7) 0.8962(4)
O8A O 0.5456(2) 0.7670(7) 0.2534(3)
O8D O 0.5456(2) 0.2330(7) 0.2534(3)
O7A O 0.4500(3) -0.5000 0.8710(5)
O5_2 O 0.4505(2) 0.7063(7) 0.0559(3)
O1A O 0.4738(3) 0.5000 0.5761(5)
O11E_2 O 0.4015(2) 0.6838(7) 0.4285(4)
O12A O 0.5424(2) 0.0000 0.6765(5)
V4A V 0.5584(1) 0.5000 0.5778(1)
V3_2 V 0.4283(1) -0.5000 1.1305(1)
V2A V 0.5639(1) 0.7591(2) 0.0908(1)
V2D V 0.5639(1) 0.2409(2) 0.0908(1)
V1A V 0.4447(1) -0.5000 0.7085(1)
V5A V 0.5249(1) 0.0000 0.3091(1)
V4_2 V 0.4416(1) -0.5000 0.4222(1)
V1A_2 V 0.4447(1) 0.5000 0.7085(1)
O5E_2 O 0.4505(2) 0.2937(7) 1.0559(3)
O7A_2 O 0.4500(3) 0.5000 0.8710(5)
V2E_2 V 0.4361(1) 0.2409(2) -0.0908(1)
loop_
_geom_bond_atom_site_label_1
_geom_bond_atom_site_label_2
_geom_bond_site_symmetry_1
_geom_bond_site_symmetry_2
Cu1 O9 1_555 1_555
V1 O1 1_555 1_555
V2 O3 1_555 1_555
V3 O6 1_555 1_555
V4 O1 1_555 1_555
V5 O8 1_555 1_555
O1 V4A 1_555 1_555
O2 V1 1_555 1_555
O4 V2 1_555 1_555
O5 V2 1_555 1_555
O7 V1 1_555 1_555
O8 V2 1_555 1_555
O9 V5 1_555 1_555
O10 V3 1_555 1_555
O11 Cu1 1_555 1_555
O12 Cu1 1_555 1_555
N1 Cu1 1_555 1_555
N2 Cu1 1_555 1_555
C1 N1 1_555 1_555
C2 C1 1_555 1_555
C3 C2 1_555 1_555
C4 C3 1_555 1_555
C5 N1 1_555 1_555
C6 N2 1_555 1_555
C7 C6 1_555 1_555
C8 C7 1_555 1_555
C9 C8 1_555 1_555
C10 N2 1_555 1_555
O11E Cu1 1_555 1_555
O8E V5 1_555 1_555
V2E O4 1_555 1_555
O5E V3 1_555 1_555
O3E V2E 1_555 1_555
O8A V1 1_555 1_555
O8D V1 1_555 1_555
O7A V2 1_555 1_555
O5_2 V3 1_555 1_555
O1A V4 1_555 1_555
O11E_2 V4 1_555 1_555
O12A V5 1_555 1_555
V4A O1A 1_555 1_555
V3_2 O5 1_555 1_555
V2A O7 1_555 1_555
V2D O7 1_555 1_555
V1A O8 1_555 1_555
V5A O12 1_555 1_555
V4_2 O11E 1_555 1_555
V1A_2 O8E 1_555 1_555
O5E_2 V2E 1_555 1_555
O7A_2 V2E 1_555 1_555
V2E_2 O5E 1_555 1_555
V4 O11 1_555 1_555
V4 O10 1_555 1_555
C4 C5 1_555 1_555
C5 C6 1_555 1_555
C9 C10 1_555 1_555
O8E V2E 1_555 1_555
O8A V2A 1_555 1_555
O8D V2D 1_555 1_555
O8D V5A 1_555 1_555
O7A V1A 1_555 1_555
O1A V1A_2 1_555 1_555
V1A_2 O7A_2 1_555 1_555

#END
