
#######################################################################
#
#                 Cambridge Crystallographic Data Centre
#                                CCDC 
#
#######################################################################
#
# If this CIF has been generated from an entry in the Cambridge 
# Structural Database, then it will include bibliographic, chemical, 
# crystal, experimental, refinement or atomic coordinate data resulting 
# from the CCDC's data processing and validation procedures.
#
#######################################################################

data_TUXZIW
_symmetry_cell_setting           triclinic
_symmetry_space_group_name_H-M   'P -1'
_symmetry_Int_Tables_number      2
_space_group_name_Hall           '-P 1'
loop_
_symmetry_equiv_pos_site_id
_symmetry_equiv_pos_as_xyz
1 x,y,z
2 -x,-y,-z
_cell_length_a                   11.0015(5)
_cell_length_b                   17.2805(7)
_cell_length_c                   17.9397(8)
_cell_angle_alpha                106.0200(10)
_cell_angle_beta                 99.4460(10)
_cell_angle_gamma                105.1800(10)
_cell_volume                     3059.27
loop_
_atom_site_label
_atom_site_type_symbol
_atom_site_fract_x
_atom_site_fract_y
_atom_site_fract_z
Cd1 Cd 0.24576(4) 0.98445(2) 0.50563(2)
S1 S 0.27999(14) 0.88998(10) 0.36465(9)
S2 S -0.18281(15) 0.93266(11) 0.36250(9)
N1 N 0.2315(4) 1.0889(3) 0.4455(2)
N2 N 0.2869(4) 0.8875(3) 0.5685(2)
N3 N -0.0276(4) 1.6144(3) 0.3327(3)
N4 N 0.5423(5) 0.9296(3) 0.4276(3)
C1 C 0.4743(5) 0.4110(3) 0.6470(3)
O1 O 0.3868(5) 0.2983(3) 0.8319(3)
H1 H 0.4204 0.2679 0.8499
N6 N 0.0302(5) 0.9064(3) 0.4460(3)
N7 N 0.4981(4) 0.3401(3) 0.6594(3)
C2 C 0.1708(4) 1.2157(3) 0.3912(3)
O2 O 0.0230(6) 1.6515(3) 0.1473(3)
H2 H 0.0561 1.6999 0.1474
C3 C 0.0139(5) 1.5515(3) 0.3489(3)
C4 C 0.0252(5) 1.4084(3) 0.3094(3)
H3 H 0.0052 1.3564 0.2691
C5 C 0.1293(5) 1.2772(3) 0.3621(3)
H4 H 0.0928 1.2614 0.3074
C6 C 0.4178(5) 0.6354(3) 0.6111(3)
H5 H 0.4790 0.6629 0.5888
C7 C 0.0942(4) 1.4197(3) 0.3861(3)
C8 C 0.1394(5) 1.3547(3) 0.4080(3)
H6 H 0.1814 1.3697 0.4618
C9 C 0.3196(5) 0.7488(3) 0.6130(3)
C10 C 0.5587(5) 0.4619(3) 0.6152(3)
H7 H 0.6305 0.4478 0.6023
C11 C 0.3301(5) 0.6723(3) 0.6289(3)
H8 H 0.2703 0.6474 0.6535
C12 C 0.3466(5) 0.5052(3) 0.6517(3)
H9 H 0.2740 0.5187 0.6636
C13 C 0.4309(4) 0.5575(3) 0.6218(3)
C14 C 0.1204(5) 1.4987(3) 0.4437(3)
H10 H 0.1654 1.5087 0.4959
C15 C 0.2471(5) 1.2338(3) 0.4672(3)
H11 H 0.2803 1.2897 0.5020
C16 C 0.3681(5) 0.4349(3) 0.6637(3)
H12 H 0.3097 0.4019 0.6838
C17 C 0.3977(5) 0.8691(3) 0.5719(3)
H13 H 0.4653 0.9038 0.5590
C18 C 0.5350(5) 0.5327(3) 0.6032(3)
H14 H 0.5916 0.5651 0.5818
C19 C 0.4246(6) 0.2958(3) 0.7035(3)
H15 H 0.4315 0.2391 0.6912
H16 H 0.3335 0.2899 0.6854
C20 C 0.4182(5) 0.8032(3) 0.5928(3)
H17 H 0.4979 0.7939 0.5939
C21 C 0.1963(5) 0.8397(3) 0.5920(3)
H18 H 0.1199 0.8530 0.5934
C22 C 0.1328(5) 1.1308(3) 0.3422(3)
H19 H 0.0858 1.1146 0.2892
C26 C -0.0139(5) 1.4714(3) 0.2912(3)
H21 H -0.0603 1.4608 0.2392
C27 C 0.2085(5) 0.7719(3) 0.6141(3)
H22 H 0.1412 0.7410 0.6302
C28 C 0.4346(5) 0.9148(3) 0.4019(3)
C29 C -0.0587(5) 0.9180(3) 0.4108(3)
C33 C 0.2745(5) 1.1707(3) 0.4920(3)
H26 H 0.3255 1.1855 0.5437
C36 C 0.0823(5) 1.5626(3) 0.4263(3)
H27 H 0.1022 1.6145 0.4667
C38 C 0.4682(7) 0.3393(4) 0.7931(3)
H29 H 0.5563 0.3401 0.8125
H30 H 0.4690 0.3978 0.8057
C44 C 0.1640(5) 1.0711(3) 0.3713(3)
H38 H 0.1361 1.0150 0.3369
C50 C 0.6152(6) 0.3219(4) 0.6465(4)
H43 H 0.6078 0.3008 0.5899
H44 H 0.6271 0.2799 0.6698
H45 H 0.6886 0.3731 0.6710
C57 C -0.0644(6) 1.6146(4) 0.2512(3)
H52 H -0.1185 1.6506 0.2491
H53 H -0.1150 1.5573 0.2159
C63 C 0.0594(8) 1.6482(5) 0.2213(4)
H64 H 0.1123 1.7045 0.2579
H65 H 0.1114 1.6106 0.2206
C65 C 0.0070(7) 1.6966(4) 0.3949(4)
H68 H -0.0225 1.6888 0.4406
H69 H -0.0336 1.7323 0.3749
H70 H 0.0998 1.7229 0.4102
Cd1A Cd -0.24576(4) 1.01555(2) 0.49437(2)
Cd1A_2 Cd 0.75424(4) 1.01555(2) 0.49437(2)
S2A S 0.18281(15) 1.06734(11) 0.63750(9)
N4A N 0.4577(5) 1.0704(3) 0.5724(3)
N5 N 0.2298(5) 0.3710(3) 0.1004(3)
N8 N 0.5336(5) -0.1632(3) 0.1513(3)
C25 C 0.2613(5) 0.3035(3) 0.1120(3)
C31 C 0.2082(6) 0.3805(4) 0.0223(4)
H23 H 0.1531 0.4158 0.0201
H24 H 0.1630 0.3251 -0.0183
C35 C 0.3314(5) 0.1639(4) 0.1393(3)
C37 C 0.3882(5) 0.0311(4) 0.1034(4)
H28 H 0.3636 0.0248 0.0494
C39 C 0.2541(6) 0.2316(4) 0.0490(3)
H31 H 0.2253 0.2293 -0.0035
C41 C 0.2876(6) 0.1653(4) 0.0620(3)
H33 H 0.2811 0.1192 0.0181
C42 C 0.4499(6) -0.0993(4) 0.0613(4)
H34 H 0.4252 -0.1017 0.0084
C43 C 0.2482(7) 0.4458(4) 0.1678(4)
H35 H 0.1874 0.4320 0.1987
H36 H 0.2339 0.4901 0.1486
H37 H 0.3354 0.4648 0.2009
C45 C 0.4382(5) -0.0339(4) 0.1234(3)
C47 C 0.3751(6) 0.0975(4) 0.1553(4)
H40 H 0.3971 0.1017 0.2089
C48 C 0.3340(6) 0.2333(4) 0.2008(3)
H41 H 0.3599 0.2344 0.2532
C49 C 0.4751(7) -0.0372(4) 0.1986(4)
H42 H 0.4688 0.0040 0.2424
C55 C 0.4974(7) -0.1593(4) 0.0782(4)
H50 H 0.5052 -0.2010 0.0354
C58 C 0.3005(6) 0.3011(4) 0.1892(4)
H54 H 0.3040 0.3460 0.2333
O3 O 0.3196(8) 0.4270(5) -0.0701(4)
H55 H 0.3206 0.3831 -0.1022
C62 C 0.3378(7) 0.4214(6) 0.0040(4)
H62 H 0.3808 0.4779 0.0431
H63 H 0.3946 0.3876 0.0091
C64 C 0.5217(7) -0.1009(5) 0.2102(4)
H67 H 0.5463 -0.1005 0.2625
N9 N 0.2491(5) 0.6417(3) 0.8975(3)
N10 N -0.0131(6) 1.1895(3) 0.8445(3)
C23 C 0.1419(6) 0.9324(4) 0.8543(3)
H20 H 0.1972 0.9612 0.8297
C24 C 0.1636(5) 0.8558(4) 0.8638(3)
C30 C 0.0336(5) 1.0435(4) 0.8645(3)
C32 C 0.0529(6) 0.9662(4) 0.8766(3)
H25 H -0.0022 0.9386 0.9021
C34 C 0.2216(6) 0.7117(4) 0.8874(3)
C40 C 0.0912(6) 0.8056(4) 0.9008(3)
H32 H 0.0226 0.8199 0.9184
C46 C 0.2914(6) 0.7602(4) 0.8485(3)
H39 H 0.3584 0.7450 0.8293
C51 C 0.0827(7) 1.1642(4) 0.8210(4)
H46 H 0.1357 1.1965 0.7977
C52 C 0.1074(7) 1.0929(4) 0.8294(3)
H47 H 0.1750 1.0779 0.8111
C53 C 0.2632(6) 0.8299(4) 0.8379(3)
H48 H 0.3130 0.8611 0.8123
C54 C -0.0658(6) 1.0701(4) 0.8895(4)
H49 H -0.1196 1.0396 0.9138
C56 C 0.1180(6) 0.7362(4) 0.9117(4)
H51 H 0.0665 0.7042 0.9358
C59 C 0.3598(6) 0.6210(4) 0.8743(4)
H56 H 0.3452 0.6052 0.8171
H57 H 0.3707 0.5745 0.8909
H58 H 0.4368 0.6697 0.8995
C60 C -0.0838(6) 1.1417(5) 0.8781(4)
H59 H -0.1513 1.1582 0.8954
C61 C 0.1825(8) 0.5934(5) 0.9432(4)
H60 H 0.1868 0.5360 0.9262
H61 H 0.0915 0.5897 0.9322
O4 O 0.1826(8) 0.5856(5) 1.0740(4)
H66 H 0.1121 0.5518 1.0454
C66 C 0.2430(9) 0.6345(5) 1.0307(5)
H71 H 0.3350 0.6406 1.0414
H72 H 0.2349 0.6908 1.0483
loop_
_geom_bond_atom_site_label_1
_geom_bond_atom_site_label_2
_geom_bond_site_symmetry_1
_geom_bond_site_symmetry_2
Cd1 S1 1_555 1_555
S1 C28 1_555 1_555
S2 C29 1_555 1_555
N1 Cd1 1_555 1_555
N2 Cd1 1_555 1_555
N3 C3 1_555 1_555
N4 C28 1_555 1_555
C1 N7 1_555 1_555
N5 C25 1_555 1_555
O1 H1 1_555 1_555
N6 Cd1 1_555 1_555
N7 C19 1_555 1_555
C2 C5 1_555 1_555
O2 H2 1_555 1_555
C3 C26 1_555 1_555
C4 H3 1_555 1_555
C5 H4 1_555 1_555
C6 H5 1_555 1_555
C7 C4 1_555 1_555
C8 C5 1_555 1_555
H6 C8 1_555 1_555
N8 C55 1_555 1_555
C9 C11 1_555 1_555
C10 C1 1_555 1_555
H7 C10 1_555 1_555
C11 C6 1_555 1_555
H8 C11 1_555 1_555
N9 C34 1_555 1_555
C12 H9 1_555 1_555
C13 C6 1_555 1_555
C14 C7 1_555 1_555
H10 C14 1_555 1_555
C15 C2 1_555 1_555
H11 C15 1_555 1_555
C16 C1 1_555 1_555
H12 C16 1_555 1_555
C17 N2 1_555 1_555
H13 C17 1_555 1_555
C18 C10 1_555 1_555
H14 C18 1_555 1_555
C19 H15 1_555 1_555
H16 C19 1_555 1_555
N10 C51 1_555 1_555
C20 C9 1_555 1_555
H17 C20 1_555 1_555
C21 N2 1_555 1_555
H18 C21 1_555 1_555
C22 C2 1_555 1_555
H19 C22 1_555 1_555
C23 H20 1_555 1_555
C24 C23 1_555 1_555
C25 C39 1_555 1_555
C26 C4 1_555 1_555
H21 C26 1_555 1_555
C27 C9 1_555 1_555
H22 C27 1_555 1_555
C29 N6 1_555 1_555
C30 C32 1_555 1_555
C31 N5 1_555 1_555
H23 C31 1_555 1_555
H24 C31 1_555 1_555
C32 C23 1_555 1_555
H25 C32 1_555 1_555
C33 N1 1_555 1_555
H26 C33 1_555 1_555
C34 C46 1_555 1_555
C35 C41 1_555 1_555
C36 C3 1_555 1_555
H27 C36 1_555 1_555
C37 H28 1_555 1_555
C38 O1 1_555 1_555
H29 C38 1_555 1_555
H30 C38 1_555 1_555
C39 H31 1_555 1_555
C40 C24 1_555 1_555
H32 C40 1_555 1_555
C41 C39 1_555 1_555
H33 C41 1_555 1_555
C42 H34 1_555 1_555
C43 N5 1_555 1_555
H35 C43 1_555 1_555
H36 C43 1_555 1_555
H37 C43 1_555 1_555
C44 N1 1_555 1_555
H38 C44 1_555 1_555
C45 C37 1_555 1_555
C46 H39 1_555 1_555
C47 C35 1_555 1_555
H40 C47 1_555 1_555
C48 C35 1_555 1_555
H41 C48 1_555 1_555
C49 C45 1_555 1_555
H42 C49 1_555 1_555
C50 N7 1_555 1_555
H43 C50 1_555 1_555
H44 C50 1_555 1_555
H45 C50 1_555 1_555
C51 H46 1_555 1_555
C52 C30 1_555 1_555
H47 C52 1_555 1_555
C53 C24 1_555 1_555
H48 C53 1_555 1_555
C54 C30 1_555 1_555
H49 C54 1_555 1_555
C55 C42 1_555 1_555
H50 C55 1_555 1_555
C56 C34 1_555 1_555
H51 C56 1_555 1_555
C57 N3 1_555 1_555
H52 C57 1_555 1_555
H53 C57 1_555 1_555
C58 C25 1_555 1_555
H54 C58 1_555 1_555
O3 H55 1_555 1_555
C59 N9 1_555 1_555
H56 C59 1_555 1_555
H57 C59 1_555 1_555
H58 C59 1_555 1_555
C60 N10 1_555 1_555
H59 C60 1_555 1_555
C61 N9 1_555 1_555
H60 C61 1_555 1_555
H61 C61 1_555 1_555
C62 C31 1_555 1_555
H62 C62 1_555 1_555
H63 C62 1_555 1_555
C63 O2 1_555 1_555
H64 C63 1_555 1_555
H65 C63 1_555 1_555
O4 H66 1_555 1_555
C64 N8 1_555 1_555
H67 C64 1_555 1_555
C65 N3 1_555 1_555
H68 C65 1_555 1_555
H69 C65 1_555 1_555
H70 C65 1_555 1_555
C66 C61 1_555 1_555
H71 C66 1_555 1_555
H72 C66 1_555 1_555
Cd1A S2 1_555 1_555
Cd1A_2 N4 1_555 1_555
S2A Cd1 1_555 1_555
N4A Cd1 1_555 1_555
C7 C8 1_555 1_555
C12 C13 1_555 1_555
C12 C16 1_555 1_555
C13 C18 1_555 1_555
C14 C36 1_555 1_555
C15 C33 1_555 1_555
C17 C20 1_555 1_555
C19 C38 1_555 1_555
C21 C27 1_555 1_555
C22 C44 1_555 1_555
C37 C47 1_555 1_555
C40 C56 1_555 1_555
C42 C45 1_555 1_555
C46 C53 1_555 1_555
C48 C58 1_555 1_555
C49 C64 1_555 1_555
C51 C52 1_555 1_555
C54 C60 1_555 1_555
C57 C63 1_555 1_555
O3 C62 1_555 1_555
O4 C66 1_555 1_555

#END
