
#######################################################################
#
#                 Cambridge Crystallographic Data Centre
#                                CCDC 
#
#######################################################################
#
# If this CIF has been generated from an entry in the Cambridge 
# Structural Database, then it will include bibliographic, chemical, 
# crystal, experimental, refinement or atomic coordinate data resulting 
# from the CCDC's data processing and validation procedures.
#
#######################################################################

data_TUXZIV
_symmetry_cell_setting           monoclinic
_symmetry_space_group_name_H-M   'C 2/m'
_symmetry_Int_Tables_number      12
_space_group_name_Hall           '-C 2y'
loop_
_symmetry_equiv_pos_site_id
_symmetry_equiv_pos_as_xyz
1 x,y,z
2 -x,y,-z
3 1/2+x,1/2+y,z
4 1/2-x,1/2+y,-z
5 -x,-y,-z
6 x,-y,z
7 1/2-x,1/2-y,-z
8 1/2+x,1/2-y,z
_cell_length_a                   24.344(3)
_cell_length_b                   6.897(3)
_cell_length_c                   12.028(2)
_cell_angle_alpha                90
_cell_angle_beta                 93.60(2)
_cell_angle_gamma                90
_cell_volume                     2015.52
loop_
_atom_site_label
_atom_site_type_symbol
_atom_site_fract_x
_atom_site_fract_y
_atom_site_fract_z
Ni1 Ni 0.39750(3) 0.0000 0.42247(6)
V1 V 0.44370(4) 0.5000 0.70718(7)
V2 V 0.43477(3) 0.24046(9) 0.91001(5)
V3 V 0.42822(4) 0.5000 0.13280(7)
V4 V 0.44240(4) 0.5000 0.42085(7)
V5 V 0.47459(4) 0.0000 0.68993(7)
O1 O 0.4735(1) 0.5000 0.5761(3)
O2 O 0.3802(2) 0.5000 0.6715(3)
O3 O 0.3701(1) 0.2210(4) 0.8971(2)
O4 O 0.4622(2) 0.0000 0.9070(3)
O5 O 0.4492(1) 0.2943(4) 1.0562(2)
O6 O 0.3634(2) 0.5000 0.1347(4)
O7 O 0.4487(1) 0.5000 0.8695(3)
O8 O 0.45182(10) 0.2321(4) 0.7460(2)
O9 O 0.4488(1) 0.0000 0.5627(3)
O10 O 0.4580(1) 0.5000 0.2665(3)
O11 O 0.40374(10) 0.3084(4) 0.4260(2)
O12 O 0.4584(1) 0.0000 0.3163(3)
N1 N 0.3277(2) 0.0000 0.5108(4)
N2 N 0.3400(2) 0.0000 0.2945(4)
C1 C 0.3256(3) 0.0000 0.6215(5)
C2 C 0.2763(3) 0.0000 0.6727(6)
C3 C 0.2284(3) 0.0000 0.6076(5)
C4 C 0.2298(3) 0.0000 0.4936(5)
C5 C 0.2808(2) 0.0000 0.4456(4)
C6 C 0.2869(2) 0.0000 0.3241(5)
C7 C 0.2432(3) 0.0000 0.2454(6)
C8 C 0.2534(3) 0.0000 0.1330(6)
C9 C 0.3069(3) 0.0000 0.1037(3)
C10 C 0.3486(3) 0.0000 0.1853(5)
H1 H 0.362(3) 0.0000 0.672(6)
H2 H 0.274(3) 0.0000 0.758(6)
H3 H 0.190(3) 0.0000 0.635(5)
H4 H 0.202(2) 0.0000 0.434(5)
H5 H 0.206(2) 0.0000 0.274(5)
H6 H 0.224(2) 0.0000 0.077(5)
H7 H 0.314(4) 0.0000 0.023(3)
H8 H 0.380(2) 0.0000 0.162(5)
O11E O 0.40374(10) -0.3084(4) 0.4260(2)
O8E O 0.45182(10) -0.2321(4) 0.7460(2)
V2E V 0.43477(3) -0.24046(9) 0.91001(5)
O5_2 O 0.4492(1) 0.2943(4) 0.0562(2)
O3E O 0.3701(1) -0.2210(4) 0.8971(2)
O8E_2 O 0.45182(10) 0.7679(4) 0.7460(2)
O5E O 0.4492(1) 0.7057(4) 0.0562(2)
O1A O 0.5265(1) 0.5000 0.4239(3)
O11E_2 O 0.40374(10) 0.6916(4) 0.4260(2)
O12A O 0.5416(1) 0.0000 0.6837(3)
V4A V 0.55760(4) 0.5000 0.57915(7)
V3_2 V 0.42822(4) 0.5000 1.13280(7)
V2E_2 V 0.43477(3) 0.75954(9) 0.91001(5)
V5A V 0.52541(4) 0.0000 0.31007(7)
V4_2 V 0.44240(4) -0.5000 0.42085(7)
V1_2 V 0.44370(4) -0.5000 0.70718(7)
O5E_2 O 0.4492(1) -0.2943(4) 1.0562(2)
O7_2 O 0.4487(1) -0.5000 0.8695(3)
V2_2 V 0.43477(3) 0.24046(9) -0.08999(5)
loop_
_geom_bond_atom_site_label_1
_geom_bond_atom_site_label_2
_geom_bond_site_symmetry_1
_geom_bond_site_symmetry_2
Ni1 O9 1_555 1_555
V1 O1 1_555 1_555
V2 O3 1_555 1_555
V3 O6 1_555 1_555
V4 O1 1_555 1_555
V5 O8 1_555 1_555
O1 V4A 1_555 1_555
O2 V1 1_555 1_555
O4 V2 1_555 1_555
O5 V2 1_555 1_555
O7 V1 1_555 1_555
O8 V1 1_555 1_555
O9 V5 1_555 1_555
O10 V3 1_555 1_555
O11 Ni1 1_555 1_555
O12 Ni1 1_555 1_555
N1 Ni1 1_555 1_555
N2 Ni1 1_555 1_555
C1 N1 1_555 1_555
C2 C1 1_555 1_555
C3 C2 1_555 1_555
C4 C3 1_555 1_555
C5 N1 1_555 1_555
C6 N2 1_555 1_555
C7 C6 1_555 1_555
C8 C7 1_555 1_555
C9 C8 1_555 1_555
C10 N2 1_555 1_555
H1 C1 1_555 1_555
H2 C2 1_555 1_555
H3 C3 1_555 1_555
H4 C4 1_555 1_555
H5 C7 1_555 1_555
H6 C8 1_555 1_555
H7 C9 1_555 1_555
H8 C10 1_555 1_555
O11E Ni1 1_555 1_555
O8E V5 1_555 1_555
V2E O4 1_555 1_555
O5_2 V3 1_555 1_555
O3E V2E 1_555 1_555
O8E_2 V1 1_555 1_555
O5E V3 1_555 1_555
O1A V4 1_555 1_555
O11E_2 V4 1_555 1_555
O12A V5 1_555 1_555
V4A O1A 1_555 1_555
V3_2 O5 1_555 1_555
V2E_2 O7 1_555 1_555
V5A O12 1_555 1_555
V4_2 O11E 1_555 1_555
V1_2 O8E 1_555 1_555
O5E_2 V2E 1_555 1_555
O7_2 V2E 1_555 1_555
V2_2 O5_2 1_555 1_555
V2 O8 1_555 1_555
V2 O7 1_555 1_555
V4 O11 1_555 1_555
V4 O10 1_555 1_555
C4 C5 1_555 1_555
C5 C6 1_555 1_555
C9 C10 1_555 1_555
O8E V2E 1_555 1_555
O8E_2 V2E_2 1_555 1_555
V1_2 O7_2 1_555 1_555

#END
