
#######################################################################
#
#                 Cambridge Crystallographic Data Centre
#                                CCDC 
#
#######################################################################
#
# If this CIF has been generated from an entry in the Cambridge 
# Structural Database, then it will include bibliographic, chemical, 
# crystal, experimental, refinement or atomic coordinate data resulting 
# from the CCDC's data processing and validation procedures.
#
#######################################################################

data_TUXZOB
_symmetry_cell_setting           monoclinic
_symmetry_space_group_name_H-M   'C 2/m'
_symmetry_Int_Tables_number      12
_space_group_name_Hall           '-C 2y'
loop_
_symmetry_equiv_pos_site_id
_symmetry_equiv_pos_as_xyz
1 x,y,z
2 -x,y,-z
3 1/2+x,1/2+y,z
4 1/2-x,1/2+y,-z
5 -x,-y,-z
6 x,-y,z
7 1/2-x,1/2-y,-z
8 1/2+x,1/2-y,z
_cell_length_a                   24.495(2)
_cell_length_b                   6.9399(5)
_cell_length_c                   12.0554(8)
_cell_angle_alpha                90
_cell_angle_beta                 93.568(2)
_cell_angle_gamma                90
_cell_volume                     2045.36
loop_
_atom_site_label
_atom_site_type_symbol
_atom_site_fract_x
_atom_site_fract_y
_atom_site_fract_z
Co1 Co 0.3986(1) 0.0000 0.4232(1)
V1 V 0.5562(1) 0.5000 0.2919(1)
V2 V 0.4352(1) -0.2404(2) 0.9107(1)
V3 V 0.4289(1) 0.5000 0.1327(2)
V4 V 0.4431(1) 0.5000 0.4210(1)
V5 V 0.4746(1) 0.0000 0.6936(2)
O1 O 0.5261(3) 0.5000 0.4231(6)
O2 O 0.6197(3) 0.5000 0.3276(6)
O3 O 0.3705(2) -0.2229(8) 0.8989(4)
O4 O 0.4620(3) 0.0000 0.9065(8)
O5 O 0.4500(2) -0.2951(8) 1.0568(4)
O6 O 0.3642(4) 0.5000 0.1369(7)
O7 O 0.5514(3) 0.5000 0.1294(5)
O8 O 0.4518(2) -0.2328(8) 0.7465(4)
O9 O 0.4486(3) 0.0000 0.5654(6)
O10 O 0.4582(3) 0.5000 0.2662(6)
O11 O 0.4043(2) 0.3066(8) 0.4262(4)
O12 O 0.4584(3) 0.0000 0.3122(6)
N1 N 0.3381(4) 0.0000 0.2919(7)
N2 N 0.3269(4) 0.0000 0.5100(7)
C1 C 0.3472(5) 0.0000 0.1835(9)
C2 C 0.2516(6) 0.0000 0.1327(10)
C3 C 0.2419(5) 0.0000 0.2443(10)
C4 C 0.2864(5) 0.0000 0.3242(9)
C5 C 0.2795(4) 0.0000 0.4454(9)
C6 C 0.2300(5) 0.0000 0.4927(11)
C7 C 0.2262(5) 0.0000 0.6074(9)
C8 C 0.2747(5) 0.0000 0.6727(11)
C9 C 0.3233(5) 0.0000 0.6227(10)
C10 C 0.303 0.0000 0.101
O11E O 0.4043(2) -0.3066(8) 0.4262(4)
O8E O 0.4518(2) 0.2328(8) 0.7465(4)
V2E V 0.4352(1) 0.2404(2) 0.9107(1)
O5E O 0.4500(2) 0.2951(8) 0.0568(4)
O3E O 0.3705(2) 0.2229(8) 0.8989(4)
O8A O 0.5482(2) 0.7672(8) 0.2535(4)
O8D O 0.5482(2) 0.2328(8) 0.2535(4)
O7A O 0.4486(3) -0.5000 0.8706(5)
O5_2 O 0.4500(2) 0.7049(8) 0.0568(4)
O1A O 0.4739(3) 0.5000 0.5769(6)
O11E_2 O 0.4043(2) 0.6934(8) 0.4262(4)
O12A O 0.5416(3) 0.0000 0.6878(6)
V4A V 0.5569(1) 0.5000 0.5790(1)
V3_2 V 0.4289(1) -0.5000 1.1327(2)
V2A V 0.5648(1) 0.7596(2) 0.0893(1)
V2D V 0.5648(1) 0.2404(2) 0.0893(1)
V1A V 0.4438(1) -0.5000 0.7081(1)
V5A V 0.5254(1) 0.0000 0.3064(2)
V4_2 V 0.4431(1) -0.5000 0.4210(1)
V1A_2 V 0.4438(1) 0.5000 0.7081(1)
O5E_2 O 0.4500(2) 0.2951(8) 1.0568(4)
O7A_2 O 0.4486(3) 0.5000 0.8706(5)
V2E_2 V 0.4352(1) 0.2404(2) -0.0893(1)
loop_
_geom_bond_atom_site_label_1
_geom_bond_atom_site_label_2
_geom_bond_site_symmetry_1
_geom_bond_site_symmetry_2
Co1 O9 1_555 1_555
V1 O1 1_555 1_555
V2 O3 1_555 1_555
V3 O6 1_555 1_555
V4 O1 1_555 1_555
V5 O8 1_555 1_555
O1 V4A 1_555 1_555
O2 V1 1_555 1_555
O4 V2 1_555 1_555
O5 V2 1_555 1_555
O7 V1 1_555 1_555
O8 V2 1_555 1_555
O9 V5 1_555 1_555
O10 V3 1_555 1_555
O11 Co1 1_555 1_555
O12 Co1 1_555 1_555
N1 Co1 1_555 1_555
N2 Co1 1_555 1_555
C1 N1 1_555 1_555
C2 C3 1_555 1_555
C3 C4 1_555 1_555
C4 N1 1_555 1_555
C5 N2 1_555 1_555
C6 C5 1_555 1_555
C7 C6 1_555 1_555
C8 C7 1_555 1_555
C9 N2 1_555 1_555
C10 C1 1_555 1_555
O11E Co1 1_555 1_555
O8E V5 1_555 1_555
V2E O4 1_555 1_555
O5E V3 1_555 1_555
O3E V2E 1_555 1_555
O8A V1 1_555 1_555
O8D V1 1_555 1_555
O7A V2 1_555 1_555
O5_2 V3 1_555 1_555
O1A V4 1_555 1_555
O11E_2 V4 1_555 1_555
O12A V5 1_555 1_555
V4A O1A 1_555 1_555
V3_2 O5 1_555 1_555
V2A O7 1_555 1_555
V2D O7 1_555 1_555
V1A O8 1_555 1_555
V5A O12 1_555 1_555
V4_2 O11E 1_555 1_555
V1A_2 O8E 1_555 1_555
O5E_2 V2E 1_555 1_555
O7A_2 V2E 1_555 1_555
V2E_2 O5E 1_555 1_555
V4 O11 1_555 1_555
V4 O10 1_555 1_555
C2 C10 1_555 1_555
C4 C5 1_555 1_555
C8 C9 1_555 1_555
O8E V2E 1_555 1_555
O8A V2A 1_555 1_555
O8D V2D 1_555 1_555
O8D V5A 1_555 1_555
O7A V1A 1_555 1_555
O1A V1A_2 1_555 1_555
V1A_2 O7A_2 1_555 1_555

#END
