
#######################################################################
#
#                 Cambridge Crystallographic Data Centre
#                                CCDC 
#
#######################################################################
#
# If this CIF has been generated from an entry in the Cambridge 
# Structural Database, then it will include bibliographic, chemical, 
# crystal, experimental, refinement or atomic coordinate data resulting 
# from the CCDC's data processing and validation procedures.
#
#######################################################################

data_TUYFIE
_symmetry_cell_setting           monoclinic
_symmetry_space_group_name_H-M   'P 21/n'
_symmetry_Int_Tables_number      14
_space_group_name_Hall           '-P 2yn'
loop_
_symmetry_equiv_pos_site_id
_symmetry_equiv_pos_as_xyz
1 x,y,z
2 1/2-x,1/2+y,1/2-z
3 -x,-y,-z
4 1/2+x,1/2-y,1/2+z
_cell_length_a                   9.9493(8)
_cell_length_b                   15.2347(11)
_cell_length_c                   10.8891(8)
_cell_angle_alpha                90
_cell_angle_beta                 107.253(9)
_cell_angle_gamma                90
_cell_volume                     1576.25
loop_
_atom_site_label
_atom_site_type_symbol
_atom_site_fract_x
_atom_site_fract_y
_atom_site_fract_z
Zn1 Zn 0.31091(6) 0.19430(4) 0.05955(5)
C1 C 0.1521(5) 0.3414(4) -0.0217(5)
C2 C 0.0676(5) 0.4208(3) -0.0107(5)
C3 C 0.0908(5) 0.4622(3) 0.1064(5)
H1 H 0.1520 0.4361 0.1787
C4 C -0.0272(5) 0.4587(3) -0.1215(5)
C5 C -0.0671(6) 0.4176(4) -0.2509(5)
C6 C 0.0735(6) 0.1375(4) -0.1602(6)
H2 H 0.0233 0.1791 -0.1293
C7 C 0.0099(7) 0.0967(5) -0.2760(7)
H3 H -0.0830 0.1100 -0.3205
C8 C 0.0827(10) 0.0363(6) -0.3269(6)
C9 C 0.2185(9) 0.0170(6) -0.2519(7)
H4 H 0.2708 -0.0255 -0.2787
C10 C 0.2744(7) 0.0599(5) -0.1403(6)
H5 H 0.3674 0.0479 -0.0945
C11 C 0.0288(15) -0.0061(9) -0.4534(7)
C12 C 0.6036(7) 0.2221(5) 0.0871(6)
C13 C 0.8559(8) 0.2331(10) 0.1481(9)
H6 H 0.8473 0.2129 0.2289
H7 H 0.9023 0.2890 0.1597
H8 H 0.9099 0.1915 0.1161
C14 C 0.7036(10) 0.2721(14) -0.0743(10)
H9 H 0.6063 0.2753 -0.1240
H10 H 0.7520 0.2318 -0.1142
H11 H 0.7456 0.3292 -0.0699
O1 O 0.1843(4) 0.2905(2) 0.0749(3)
O2 O 0.1919(4) 0.3315(3) -0.1175(4)
O3 O -0.1214(4) 0.3412(3) -0.2595(3)
O4 O -0.0560(5) 0.4594(3) -0.3437(4)
O5 O 0.4816(4) 0.2287(3) 0.0109(4)
N1 N 0.2051(5) 0.1186(3) -0.0913(4)
N2 N 0.7141(6) 0.2419(6) 0.0547(6)
C1B C -0.1521(5) 0.6586(4) 0.0217(5)
C2B C -0.0676(5) 0.5792(3) 0.0107(5)
C3B C -0.0908(5) 0.5378(3) -0.1064(5)
H1B H -0.1520 0.5639 -0.1787
C4B C 0.0272(5) 0.5413(3) 0.1215(5)
C5B C 0.0671(6) 0.5824(4) 0.2509(5)
O1B O -0.1843(4) 0.7095(2) -0.0749(3)
O2B O -0.1919(4) 0.6685(3) 0.1175(4)
O3B O 0.1214(4) 0.6588(3) 0.2595(3)
O4B O 0.0560(5) 0.5406(3) 0.3437(4)
C6B C -0.0735(6) -0.1375(4) -0.8398(6)
H2B H -0.0233 -0.1791 -0.8707
C7B C -0.0099(7) -0.0967(5) -0.7240(7)
H3B H 0.0830 -0.1100 -0.6795
C8B C -0.0827(10) -0.0363(6) -0.6731(6)
C9B C -0.2185(9) -0.0170(6) -0.7481(7)
H4B H -0.2708 0.0255 -0.7213
C10B C -0.2744(7) -0.0599(5) -0.8597(6)
H5B H -0.3674 -0.0479 -0.9055
C11B C -0.0288(15) 0.0061(9) -0.5466(7)
N1B N -0.2051(5) -0.1186(3) -0.9087(4)
Zn1B Zn -0.31091(6) -0.19430(4) -1.05955(5)
C12B C -0.6036(7) -0.2221(5) -1.0871(6)
C13B C -0.8559(8) -0.2331(10) -1.1481(9)
H6B H -0.8473 -0.2129 -1.2289
H7B H -0.9023 -0.2890 -1.1597
H8B H -0.9099 -0.1915 -1.1161
C14B C -0.7036(10) -0.2721(14) -0.9257(10)
H9B H -0.6063 -0.2753 -0.8760
H10B H -0.7520 -0.2318 -0.8858
H11B H -0.7456 -0.3292 -0.9301
O5B O -0.4816(4) -0.2287(3) -1.0109(4)
N2B N -0.7141(6) -0.2419(6) -1.0547(6)
Zn1A Zn 0.18909(6) 0.69430(4) 0.44045(5)
Zn1B_2 Zn -0.31091(6) 0.80570(4) -0.05955(5)
Zn1C Zn -0.18909(6) 0.30570(4) -0.44045(5)
O1B_2 O -0.1843(4) -0.2905(2) -1.0749(3)
O3A O -0.3786(4) -0.1588(3) -1.2405(3)
O3C O 0.3786(4) 0.1588(3) 0.2405(3)
loop_
_geom_bond_atom_site_label_1
_geom_bond_atom_site_label_2
_geom_bond_site_symmetry_1
_geom_bond_site_symmetry_2
Zn1 O1 1_555 1_555
C1 C2 1_555 1_555
C2 C3 1_555 1_555
C3 H1 1_555 1_555
C4 C2 1_555 1_555
C5 C4 1_555 1_555
C6 H2 1_555 1_555
C7 C6 1_555 1_555
H3 C7 1_555 1_555
C8 C7 1_555 1_555
C9 C8 1_555 1_555
H4 C9 1_555 1_555
C10 C9 1_555 1_555
H5 C10 1_555 1_555
C11 C8 1_555 1_555
C12 O5 1_555 1_555
C13 H6 1_555 1_555
H7 C13 1_555 1_555
H8 C13 1_555 1_555
C14 H9 1_555 1_555
H10 C14 1_555 1_555
H11 C14 1_555 1_555
O1 C1 1_555 1_555
O2 C1 1_555 1_555
O3 C5 1_555 1_555
O4 C5 1_555 1_555
O5 Zn1 1_555 1_555
N1 Zn1 1_555 1_555
N2 C12 1_555 1_555
C1B C2B 1_555 1_555
C2B C3B 1_555 1_555
C3B C4 1_555 1_555
H1B C3B 1_555 1_555
C4B C3 1_555 1_555
C5B C4B 1_555 1_555
O1B C1B 1_555 1_555
O2B C1B 1_555 1_555
O3B C5B 1_555 1_555
O4B C5B 1_555 1_555
C6B H2B 1_555 1_555
C7B C6B 1_555 1_555
H3B C7B 1_555 1_555
C8B C7B 1_555 1_555
C9B C8B 1_555 1_555
H4B C9B 1_555 1_555
C10B C9B 1_555 1_555
H5B C10B 1_555 1_555
C11B C11 1_555 1_555
N1B C6B 1_555 1_555
Zn1B N1B 1_555 1_555
C12B O5B 1_555 1_555
C13B H6B 1_555 1_555
H7B C13B 1_555 1_555
H8B C13B 1_555 1_555
C14B H9B 1_555 1_555
H10B C14B 1_555 1_555
H11B C14B 1_555 1_555
O5B Zn1B 1_555 1_555
N2B C12B 1_555 1_555
Zn1A O3B 1_555 1_555
Zn1B_2 O1B 1_555 1_555
Zn1C O3 1_555 1_555
O1B_2 Zn1B 1_555 1_555
O3A Zn1B 1_555 1_555
O3C Zn1 1_555 1_555
C6 N1 1_555 1_555
C10 N1 1_555 1_555
C13 N2 1_555 1_555
C14 N2 1_555 1_555
C2B C4B 1_555 1_555
C8B C11B 1_555 1_555
C10B N1B 1_555 1_555
C13B N2B 1_555 1_555
C14B N2B 1_555 1_555

#END
