
#######################################################################
#
#                 Cambridge Crystallographic Data Centre
#                                CCDC 
#
#######################################################################
#
# If this CIF has been generated from an entry in the Cambridge 
# Structural Database, then it will include bibliographic, chemical, 
# crystal, experimental, refinement or atomic coordinate data resulting 
# from the CCDC's data processing and validation procedures.
#
#######################################################################

data_TUYFEA
_symmetry_cell_setting           triclinic
_symmetry_space_group_name_H-M   'P -1'
_symmetry_Int_Tables_number      2
_space_group_name_Hall           '-P 1'
loop_
_symmetry_equiv_pos_site_id
_symmetry_equiv_pos_as_xyz
1 x,y,z
2 -x,-y,-z
_cell_length_a                   9.4379(6)
_cell_length_b                   10.0180(6)
_cell_length_c                   11.9812(8)
_cell_angle_alpha                73.711(6)
_cell_angle_beta                 72.646(6)
_cell_angle_gamma                88.515(5)
_cell_volume                     1035.78
loop_
_atom_site_label
_atom_site_type_symbol
_atom_site_fract_x
_atom_site_fract_y
_atom_site_fract_z
Zn1 Zn 0.46486(6) 0.92290(9) -1.11144(5)
Zn2 Zn 0.89035(6) 0.56945(8) -0.87888(5)
O1 O 0.5594(4) 0.9433(6) -1.2870(3)
N1 N 0.8942(4) 0.3761(6) -1.0350(4)
N2 N 0.6340(4) 0.9141(6) -0.9339(4)
N3 N 0.5961(5) 0.8455(6) -1.0099(4)
O2 O 0.7176(5) 1.0761(7) -1.2566(4)
N4 N 0.8335(4) 0.4050(6) -0.9208(4)
N5 N 0.6969(4) 0.2278(6) -0.9280(4)
C1 C 0.6820(5) 0.7399(7) -1.0128(5)
N6 N 0.8341(5) 0.2118(7) -1.1247(4)
H1 H 0.9086 0.2401 -1.1896
H2 H 0.7743 0.1444 -1.1174
C2 C 0.7653(6) 1.0601(9) -1.4566(5)
N7 N 0.7728(5) 0.7319(7) -0.9406(4)
C3 C 0.8031(6) 1.0318(9) -1.6529(5)
H3 H 0.7730 0.9922 -1.7043
N8 N 0.6817(6) 0.6497(8) -1.0751(5)
H4 H 0.6220 0.6576 -1.1182
H5 H 0.7413 0.5833 -1.0725
C4 C 0.8109(5) 0.2739(7) -1.0332(5)
C5 C 0.6770(6) 1.0244(9) -1.3235(5)
C6 C 0.7253(7) 1.0037(9) -1.5365(6)
H6 H 0.6405 0.9437 -1.5071
C7 C 0.7158(5) 0.3119(8) -0.8619(5)
C8 C 0.7371(6) 0.8412(8) -0.8948(5)
C9 C 0.9211(8) 1.1146(10) -1.6947(5)
H7 H 0.9758 1.1302 -1.7763
N9 N 0.6225(5) 0.3081(7) -0.7509(4)
H8 H 0.6368 0.3669 -0.7144
H9 H 0.5487 0.2469 -0.7166
N10 N 0.9727(7) 1.1828(10) -1.6255(5)
C10 C 0.8898(7) 1.1496(10) -1.5017(5)
H10 H 0.9195 1.1886 -1.4498
O3 O 0.7996(5) 0.5068(6) -0.7017(3)
O4 O 0.9425(5) 0.6484(8) -0.6646(4)
C11 C 0.7536(6) 0.5112(9) -0.4986(5)
C12 C 0.8417(7) 0.5621(9) -0.6314(5)
C13 C 0.6158(9) 0.4493(11) -0.2563(6)
H11 H 0.5679 0.4277 -0.1728
C14 C 0.6438(7) 0.4125(10) -0.4477(6)
H12 H 0.6159 0.3676 -0.4968
C15 C 0.7186(9) 0.5442(12) -0.3028(5)
H13 H 0.7469 0.5893 -0.2540
C16 C 0.7857(9) 0.5791(13) -0.4209(6)
H14 H 0.8580 0.6525 -0.4545
N11 N 0.5691(8) 0.3740(10) -0.3234(6)
N12 N 0.8005(7) 0.8716(9) -0.8181(6)
H15 H 0.7746 0.9425 -0.7912
H16 H 0.8672 0.8203 -0.7957
Zn1A Zn 0.53514(6) 0.07710(9) -0.88856(5)
Zn1A_2 Zn 0.53514(6) 1.07710(9) -0.88856(5)
Zn2A Zn 1.10965(6) 0.43055(8) -1.12112(5)
N1A N 1.1058(4) 0.6239(6) -0.9650(4)
N2A N 0.3660(4) 1.0859(6) -1.0661(4)
N5A N 0.3031(4) 0.7722(6) -1.0720(4)
loop_
_geom_bond_atom_site_label_1
_geom_bond_atom_site_label_2
_geom_bond_site_symmetry_1
_geom_bond_site_symmetry_2
Zn1 O1 1_555 1_555
Zn2 N4 1_555 1_555
O1 C5 1_555 1_555
N1 N4 1_555 1_555
N2 N3 1_555 1_555
N3 Zn1 1_555 1_555
O2 C5 1_555 1_555
N4 C7 1_555 1_555
N5 C4 1_555 1_555
C1 N3 1_555 1_555
N6 H1 1_555 1_555
H2 N6 1_555 1_555
C2 C5 1_555 1_555
N7 Zn2 1_555 1_555
C3 H3 1_555 1_555
N8 C1 1_555 1_555
H4 N8 1_555 1_555
H5 N8 1_555 1_555
C4 N1 1_555 1_555
C6 C2 1_555 1_555
H6 C6 1_555 1_555
C7 N5 1_555 1_555
C8 N2 1_555 1_555
C9 C3 1_555 1_555
H7 C9 1_555 1_555
N9 C7 1_555 1_555
H8 N9 1_555 1_555
H9 N9 1_555 1_555
N10 C9 1_555 1_555
C10 C2 1_555 1_555
H10 C10 1_555 1_555
O3 Zn2 1_555 1_555
O4 C12 1_555 1_555
C11 C12 1_555 1_555
C12 O3 1_555 1_555
C13 H11 1_555 1_555
C14 C11 1_555 1_555
H12 C14 1_555 1_555
C15 C13 1_555 1_555
H13 C15 1_555 1_555
C16 C11 1_555 1_555
H14 C16 1_555 1_555
N11 C13 1_555 1_555
N12 C8 1_555 1_555
H15 N12 1_555 1_555
H16 N12 1_555 1_555
Zn1A N5 1_555 1_555
Zn1A_2 N2 1_555 1_555
Zn2A N1 1_555 1_555
N1A Zn2 1_555 1_555
N2A Zn1 1_555 1_555
N5A Zn1 1_555 1_555
C1 N7 1_555 1_555
N6 C4 1_555 1_555
N7 C8 1_555 1_555
C3 C6 1_555 1_555
N10 C10 1_555 1_555
C14 N11 1_555 1_555
C15 C16 1_555 1_555

#END
