
#######################################################################
#
#                 Cambridge Crystallographic Data Centre
#                                CCDC 
#
#######################################################################
#
# If this CIF has been generated from an entry in the Cambridge 
# Structural Database, then it will include bibliographic, chemical, 
# crystal, experimental, refinement or atomic coordinate data resulting 
# from the CCDC's data processing and validation procedures.
#
#######################################################################

data_TUYGIF
_symmetry_cell_setting           monoclinic
_symmetry_space_group_name_H-M   'C 2/c'
_symmetry_Int_Tables_number      15
_space_group_name_Hall           '-C 2yn'
loop_
_symmetry_equiv_pos_site_id
_symmetry_equiv_pos_as_xyz
1 x,y,z
2 -x,y,1/2-z
3 1/2+x,1/2+y,z
4 1/2-x,1/2+y,1/2-z
5 -x,-y,-z
6 x,-y,1/2+z
7 1/2-x,1/2-y,-z
8 1/2+x,1/2-y,1/2+z
_cell_length_a                   17.8498(10)
_cell_length_b                   20.1539(4)
_cell_length_c                   6.5430(4)
_cell_angle_alpha                90
_cell_angle_beta                 98.468(7)
_cell_angle_gamma                90
_cell_volume                     2328.14
loop_
_atom_site_label
_atom_site_type_symbol
_atom_site_fract_x
_atom_site_fract_y
_atom_site_fract_z
Co1 Co 0.2500 0.7500 0.5000
Ca1 Ca 0.5000 0.37360(4) 0.7500
O1 O 0.40852(14) 0.45926(12) 0.6070(5)
O2 O 0.44501(17) 0.41030(13) 1.0528(5)
H1 H 0.4032 0.3880 1.0648
H2 H 0.4332 0.4530 1.0437
O3 O 0.36616(13) 0.35751(11) 0.5629(4)
O4 O 0.47548(15) 0.27888(12) 0.9510(5)
O5 O 0.07972(13) 0.32292(11) 0.4711(5)
O6 O 0.14714(14) 0.76900(12) 0.2878(4)
H3 H 0.1302 0.7327 0.2269
H4 H 0.1558 0.7972 0.1940
O7 O 0.01231(15) 0.41412(12) 0.4959(6)
O8 O 0.30936(15) 0.74845(10) 0.2491(4)
O9 O 0.11485(14) 0.63903(11) 0.4816(5)
O10 O 0.23867(13) 0.64836(11) 0.4845(4)
C1 C 0.35494(18) 0.41967(16) 0.5648(5)
C2 C 0.27547(17) 0.44545(15) 0.5242(5)
C3 C 0.21379(17) 0.40266(14) 0.5048(5)
H5 H 0.2212 0.3570 0.5057
C4 C 0.14107(18) 0.42854(15) 0.4841(5)
C5 C 0.07459(18) 0.38334(15) 0.4821(5)
C6 C 0.12921(18) 0.49636(15) 0.4754(5)
H6 H 0.0801 0.5131 0.4595
C7 C 0.19067(18) 0.53982(14) 0.4904(5)
C8 C 0.17956(18) 0.61447(14) 0.4848(5)
C9 C 0.26304(18) 0.51377(15) 0.5157(5)
H7 H 0.3043 0.5424 0.5274
H8 H 0.4560 0.2928 1.0557
H9 H 0.4784 0.2369 0.9608
H10 H 0.3331 0.7529 0.1458
H11 H 0.3018 0.7070 0.2632
H12 H -0.035(3) 0.391(2) 0.487(7)
O1A O 0.59148(14) 0.45926(12) 0.8930(5)
O2A O 0.55499(17) 0.41030(13) 0.4472(5)
H1A H 0.5968 0.3880 0.4352
H2A H 0.5668 0.4530 0.4563
O3A O 0.63384(13) 0.35751(11) 0.9371(4)
O4A O 0.52452(15) 0.27888(12) 0.5490(5)
O5A O 0.92028(13) 0.32292(11) 1.0289(5)
O7A O 0.98769(15) 0.41412(12) 1.0041(6)
O9A O 0.88515(14) 0.63903(11) 1.0184(5)
O10A O 0.76133(13) 0.64836(11) 1.0155(4)
C1A C 0.64506(18) 0.41967(16) 0.9352(5)
C2A C 0.72453(17) 0.44545(15) 0.9758(5)
C3A C 0.78621(17) 0.40266(14) 0.9952(5)
H5A H 0.7788 0.3570 0.9943
C4A C 0.85893(18) 0.42854(15) 1.0159(5)
C5A C 0.92541(18) 0.38334(15) 1.0179(5)
C6A C 0.87079(18) 0.49636(15) 1.0246(5)
H6A H 0.9199 0.5131 1.0405
C7A C 0.80933(18) 0.53982(14) 1.0096(5)
C8A C 0.82044(18) 0.61447(14) 1.0152(5)
C9A C 0.73696(18) 0.51377(15) 0.9843(5)
H7A H 0.6957 0.5424 0.9726
H8A H 0.5440 0.2928 0.4443
H9A H 0.5216 0.2369 0.5392
H12A H 1.035(3) 0.391(2) 1.013(7)
O6F O 0.35286(14) 0.73100(12) 0.7122(4)
H3F H 0.3698 0.7673 0.7731
H4F H 0.3442 0.7028 0.8060
O8F O 0.19064(15) 0.75155(10) 0.7509(4)
H10F H 0.1669 0.7471 0.8542
H11F H 0.1982 0.7930 0.7368
Co1A Co 0.7500 0.7500 1.0000
O10F O 0.26133(13) 0.85164(11) 0.5155(4)
loop_
_geom_bond_atom_site_label_1
_geom_bond_atom_site_label_2
_geom_bond_site_symmetry_1
_geom_bond_site_symmetry_2
Co1 O6 1_555 1_555
Ca1 O1 1_555 1_555
O1 C1 1_555 1_555
O2 Ca1 1_555 1_555
H1 O2 1_555 1_555
H2 O2 1_555 1_555
O3 Ca1 1_555 1_555
O4 Ca1 1_555 1_555
O5 C5 1_555 1_555
O6 H3 1_555 1_555
H4 O6 1_555 1_555
O7 C5 1_555 1_555
O8 Co1 1_555 1_555
O9 C8 1_555 1_555
O10 Co1 1_555 1_555
C1 O3 1_555 1_555
C2 C1 1_555 1_555
C3 C2 1_555 1_555
H5 C3 1_555 1_555
C4 C3 1_555 1_555
C5 C4 1_555 1_555
C6 C4 1_555 1_555
H6 C6 1_555 1_555
C7 C6 1_555 1_555
C8 O10 1_555 1_555
C9 C2 1_555 1_555
H7 C9 1_555 1_555
H8 O4 1_555 1_555
H9 O4 1_555 1_555
H10 O8 1_555 1_555
H11 O8 1_555 1_555
H12 O7 1_555 1_555
O1A Ca1 1_555 1_555
O2A Ca1 1_555 1_555
H1A O2A 1_555 1_555
H2A O2A 1_555 1_555
O3A Ca1 1_555 1_555
O4A Ca1 1_555 1_555
O5A C5A 1_555 1_555
O7A C5A 1_555 1_555
O9A C8A 1_555 1_555
O10A C8A 1_555 1_555
C1A O1A 1_555 1_555
C2A C1A 1_555 1_555
C3A C2A 1_555 1_555
H5A C3A 1_555 1_555
C4A C3A 1_555 1_555
C5A C4A 1_555 1_555
C6A C4A 1_555 1_555
H6A C6A 1_555 1_555
C7A C6A 1_555 1_555
C8A C7A 1_555 1_555
C9A C2A 1_555 1_555
H7A C9A 1_555 1_555
H8A O4A 1_555 1_555
H9A O4A 1_555 1_555
H12A O7A 1_555 1_555
O6F Co1 1_555 1_555
H3F O6F 1_555 1_555
H4F O6F 1_555 1_555
O8F Co1 1_555 1_555
H10F O8F 1_555 1_555
H11F O8F 1_555 1_555
Co1A O10A 1_555 1_555
O10F Co1 1_555 1_555
C7 C8 1_555 1_555
C7 C9 1_555 1_555
O3A C1A 1_555 1_555
C7A C9A 1_555 1_555

#END
