
#######################################################################
#
#                 Cambridge Crystallographic Data Centre
#                                CCDC 
#
#######################################################################
#
# If this CIF has been generated from an entry in the Cambridge 
# Structural Database, then it will include bibliographic, chemical, 
# crystal, experimental, refinement or atomic coordinate data resulting 
# from the CCDC's data processing and validation procedures.
#
#######################################################################

data_TUYHUS
_symmetry_cell_setting           triclinic
_symmetry_space_group_name_H-M   'P -1'
_symmetry_Int_Tables_number      2
_space_group_name_Hall           '-P 1'
loop_
_symmetry_equiv_pos_site_id
_symmetry_equiv_pos_as_xyz
1 x,y,z
2 -x,-y,-z
_cell_length_a                   8.4297(9)
_cell_length_b                   9.3528(10)
_cell_length_c                   11.2721(12)
_cell_angle_alpha                90.908(2)
_cell_angle_beta                 108.441(2)
_cell_angle_gamma                114.7740(10)
_cell_volume                     754.035
loop_
_atom_site_label
_atom_site_type_symbol
_atom_site_fract_x
_atom_site_fract_y
_atom_site_fract_z
Mn1 Mn 1.0000 1.0000 0.5000
Mn2 Mn 0.95169(4) 0.81034(3) 0.20990(3)
O1 O 0.17112(19) -0.03252(16) 0.39862(14)
O2 O 0.2242(2) 0.03852(19) 0.22558(15)
O3 O 0.7528(2) 0.60778(19) 0.26322(16)
O4 O 0.8551(2) 0.75135(18) 0.45201(17)
H1 H 0.7769 0.9835 -0.0349
H2 H 0.7147 1.1129 -0.0485
O5 O 0.9254(3) 0.3421(2) 0.81007(17)
O6 O 0.8441(3) 0.5511(2) 0.84002(17)
O7 O 0.6326(3) 0.2773(3) 0.83495(18)
O8 O 0.8015(2) 0.7362(2) 0.00903(15)
H3 H 0.8239 0.6836 -0.0403
H4 H 0.6837 0.7031 -0.0208
S1 S 0.77401(8) 0.38479(7) 0.79075(5)
N1 N 0.8296(3) 1.0341(2) 0.32088(17)
N2 N 0.8264(3) 0.9784(2) 0.20456(17)
N3 N 0.7202(3) 1.1568(2) 0.18015(18)
H5 H 0.6745 1.2193 0.1461
N4 N 0.7306(4) 1.0391(3) -0.0025(2)
C1 C 0.7602(3) 1.0563(3) 0.1212(2)
C2 C 0.7663(3) 1.1394(3) 0.3030(2)
H6 H 0.7542 1.1951 0.3660
C3 C 0.4409(3) 0.2120(2) 0.4208(2)
C4 C 0.5222(3) 0.3383(2) 0.3615(2)
H7 H 0.4736 0.3288 0.2737
C5 C 0.6756(3) 0.4779(2) 0.4336(2)
C6 C 0.7478(3) 0.4900(2) 0.5645(2)
H8 H 0.8493 0.5841 0.6133
C7 C 0.6701(3) 0.3633(2) 0.6230(2)
C8 C 0.5155(3) 0.2243(2) 0.5519(2)
H9 H 0.4619 0.1399 0.5913
C9 C 0.2697(3) 0.0649(2) 0.3427(2)
C10 C 0.7659(3) 0.6219(2) 0.3768(2)
Mn2A Mn 0.04831(4) 0.18966(3) 0.79010(3)
O1A O 0.82888(19) 1.03252(16) 0.60138(14)
O2A O 0.7758(2) 0.96148(19) 0.77442(15)
O3A O 0.2472(2) 0.39222(19) 0.73678(16)
O4A O 0.1449(2) 0.24865(18) 0.54799(17)
H1A H 0.2231 0.0165 1.0349
H2A H 0.2853 -0.1129 1.0485
O5A O 0.0746(3) 0.6579(2) 0.18993(17)
O6A O 0.1559(3) 0.4489(2) 0.15998(17)
O7A O 0.3674(3) 0.7227(3) 0.16505(18)
O8A O 0.1985(2) 0.2638(2) 0.99097(15)
H3A H 0.1761 0.3164 1.0403
H4A H 0.3163 0.2969 1.0208
S1A S 0.22599(8) 0.61521(7) 0.20925(5)
N1A N 0.1704(3) -0.0341(2) 0.67912(17)
N2A N 0.1736(3) 0.0216(2) 0.79544(17)
N3A N 0.2798(3) -0.1568(2) 0.81985(18)
H5A H 0.3255 -0.2193 0.8539
N4A N 0.2694(4) -0.0391(3) 1.0025(2)
C1A C 0.2398(3) -0.0563(3) 0.8788(2)
C2A C 0.2337(3) -0.1394(3) 0.6970(2)
H6A H 0.2458 -0.1951 0.6340
C3A C 0.5591(3) 0.7880(2) 0.5792(2)
C4A C 0.4778(3) 0.6617(2) 0.6385(2)
H7A H 0.5264 0.6712 0.7263
C5A C 0.3244(3) 0.5221(2) 0.5664(2)
C6A C 0.2522(3) 0.5100(2) 0.4355(2)
H8A H 0.1507 0.4159 0.3867
C7A C 0.3299(3) 0.6367(2) 0.3770(2)
C8A C 0.4845(3) 0.7757(2) 0.4481(2)
H9A H 0.5381 0.8601 0.4087
C9A C 0.7303(3) 0.9351(2) 0.6573(2)
C10A C 0.2341(3) 0.3781(2) 0.6232(2)
Mn1_2 Mn 0.0000 0.0000 0.5000
Mn2_2 Mn -0.04831(4) -0.18966(3) 0.20990(3)
Mn2_3 Mn -0.04831(4) 0.81034(3) 0.20990(3)
Mn2A_2 Mn 1.04831(4) 0.18966(3) 0.79010(3)
Mn2A_3 Mn 1.04831(4) 1.18966(3) 0.79010(3)
O1_2 O 1.17112(19) 0.96748(16) 0.39862(14)
O1A_2 O -0.17112(19) 0.03252(16) 0.60138(14)
O2_2 O 1.2242(2) 1.03852(19) 0.22558(15)
O2A_2 O -0.2242(2) -0.03852(19) 0.77442(15)
O4A_2 O 1.1449(2) 1.24865(18) 0.54799(17)
O5_2 O -0.0746(3) 0.3421(2) 0.81007(17)
O5A_2 O 1.0746(3) 0.6579(2) 0.18993(17)
N1A_2 N 1.1704(3) 0.9659(2) 0.67912(17)
O9 O 0.5731(2) 0.3557(2) 0.05665(17)
H10 H 0.6036 0.3664 -0.0088
H11 H 0.6466 0.4438 0.1074
loop_
_geom_bond_atom_site_label_1
_geom_bond_atom_site_label_2
_geom_bond_site_symmetry_1
_geom_bond_site_symmetry_2
Mn1 O4 1_555 1_555
Mn2 O3 1_555 1_555
O1 C9 1_555 1_555
O2 C9 1_555 1_555
O3 C10 1_555 1_555
O4 C10 1_555 1_555
H1 N4 1_555 1_555
H2 N4 1_555 1_555
O5 S1 1_555 1_555
O6 S1 1_555 1_555
O7 S1 1_555 1_555
O8 Mn2 1_555 1_555
H3 O8 1_555 1_555
H4 O8 1_555 1_555
S1 C7 1_555 1_555
N1 Mn1 1_555 1_555
N2 Mn2 1_555 1_555
N3 H5 1_555 1_555
N4 C1 1_555 1_555
C1 N2 1_555 1_555
C2 N1 1_555 1_555
H6 C2 1_555 1_555
C3 C4 1_555 1_555
C4 H7 1_555 1_555
C5 C4 1_555 1_555
C6 C5 1_555 1_555
H8 C6 1_555 1_555
C7 C6 1_555 1_555
C8 C3 1_555 1_555
H9 C8 1_555 1_555
C9 C3 1_555 1_555
C10 C5 1_555 1_555
O9 H10 1_555 1_555
H11 O9 1_555 1_555
Mn2A O3A 1_555 1_555
O1A Mn1 1_555 1_555
O2A C9A 1_555 1_555
O3A C10A 1_555 1_555
O4A C10A 1_555 1_555
H1A N4A 1_555 1_555
H2A N4A 1_555 1_555
O5A S1A 1_555 1_555
O6A S1A 1_555 1_555
O7A S1A 1_555 1_555
O8A Mn2A 1_555 1_555
H3A O8A 1_555 1_555
H4A O8A 1_555 1_555
S1A C7A 1_555 1_555
N1A N2A 1_555 1_555
N2A Mn2A 1_555 1_555
N3A H5A 1_555 1_555
N4A C1A 1_555 1_555
C1A N2A 1_555 1_555
C2A N1A 1_555 1_555
H6A C2A 1_555 1_555
C3A C4A 1_555 1_555
C4A H7A 1_555 1_555
C5A C4A 1_555 1_555
C6A C5A 1_555 1_555
H8A C6A 1_555 1_555
C7A C6A 1_555 1_555
C8A C3A 1_555 1_555
H9A C8A 1_555 1_555
C9A O1A 1_555 1_555
C10A C5A 1_555 1_555
Mn1_2 O1 1_555 1_555
Mn2_2 O1 1_555 1_555
Mn2_3 O5A 1_555 1_555
Mn2A_2 O5 1_555 1_555
Mn2A_3 O1A 1_555 1_555
O1_2 Mn1 1_555 1_555
O1A_2 Mn2A 1_555 1_555
O2_2 Mn2 1_555 1_555
O2A_2 Mn2A 1_555 1_555
O4A_2 Mn1 1_555 1_555
O5_2 Mn2A 1_555 1_555
O5A_2 Mn2 1_555 1_555
N1A_2 Mn1 1_555 1_555
Mn2 O1_2 1_555 1_555
O2 Mn2_2 1_555 1_555
N1 N2 1_555 1_555
N3 C1 1_555 1_555
N3 C2 1_555 1_555
C7 C8 1_555 1_555
O2A Mn2A_3 1_555 1_555
O4A Mn1_2 1_555 1_555
N1A Mn1_2 1_555 1_555
N3A C1A 1_555 1_555
N3A C2A 1_555 1_555
C3A C9A 1_555 1_555
C7A C8A 1_555 1_555
Mn1_2 O1A_2 1_555 1_555

#END
