
#######################################################################
#
#                 Cambridge Crystallographic Data Centre
#                                CCDC 
#
#######################################################################
#
# If this CIF has been generated from an entry in the Cambridge 
# Structural Database, then it will include bibliographic, chemical, 
# crystal, experimental, refinement or atomic coordinate data resulting 
# from the CCDC's data processing and validation procedures.
#
#######################################################################

data_TUYHOL
_symmetry_cell_setting           triclinic
_symmetry_space_group_name_H-M   'P -1'
_symmetry_Int_Tables_number      2
_space_group_name_Hall           '-P 1'
loop_
_symmetry_equiv_pos_site_id
_symmetry_equiv_pos_as_xyz
1 x,y,z
2 -x,-y,-z
_cell_length_a                   11.7554(13)
_cell_length_b                   14.4359(16)
_cell_length_c                   14.6933(17)
_cell_angle_alpha                111.146(2)
_cell_angle_beta                 112.698(2)
_cell_angle_gamma                93.215(1)
_cell_volume                     2089.45
loop_
_atom_site_label
_atom_site_type_symbol
_atom_site_fract_x
_atom_site_fract_y
_atom_site_fract_z
O36 O 0.237(6) 0.998(5) 0.486(5)
O37 O 0.964(7) 0.895(6) 0.589(6)
O38 O 0.828(6) 0.891(6) 0.349(5)
W1 W 1.07366(17) -0.09741(14) 0.19997(16)
W2 W 1.27859(17) -0.09177(15) 0.07574(17)
W3 W 1.25847(19) 0.13707(19) 0.25979(19)
W4 W 1.0189(2) -0.23191(15) -0.18294(17)
W5 W 1.20309(19) 0.00088(15) -0.12736(18)
W6 W 1.18801(17) 0.23282(14) 0.05962(18)
Ce1 Ce 1.0856(2) -0.52717(19) -0.3481(2)
Ce2 Ce 1.2860(2) 0.52395(18) 0.0646(2)
N1 N 1.268(3) -0.362(3) -0.260(3)
N2 N 1.623(3) -0.541(3) -0.262(3)
O1 O 1.109(6) -0.009(5) 0.097(5)
O2 O 1.104(6) -0.061(5) -0.034(5)
O3 O 1.087(6) 0.121(5) 0.101(5)
O4 O 0.956(6) -0.052(5) 0.057(5)
O5 O 1.194(3) -0.139(2) 0.145(3)
O6 O 1.181(3) 0.038(3) 0.286(3)
O7 O 0.945(3) -0.032(3) 0.208(3)
O8 O 0.954(3) -0.214(3) 0.082(3)
O9 O 1.108(3) -0.144(3) 0.289(3)
O10 O 1.334(3) 0.037(3) 0.187(3)
O11 O 1.300(3) -0.034(2) -0.008(3)
O12 O 1.176(3) -0.214(3) -0.054(3)
O13 O 1.414(3) -0.142(3) 0.118(3)
O14 O 1.123(3) 0.198(3) 0.267(3)
O15 O 1.373(3) 0.195(3) 0.378(3)
O16 O 1.109(3) -0.133(3) -0.208(3)
O17 O 0.917(3) -0.289(3) -0.133(3)
O18 O 1.023(3) -0.338(2) -0.275(3)
O19 O 1.252(3) 0.140(3) -0.025(3)
O20 O 1.295(3) 0.001(3) -0.188(3)
O21 O 1.288(3) 0.219(3) 0.188(3)
O22 O 1.269(3) 0.346(2) 0.079(3)
O23 O 1.115(3) -0.440(3) -0.469(3)
O24 O 1.166(3) -0.302(3) -0.480(3)
O25 O 1.225(3) -0.461(2) -0.146(2)
O26 O 1.392(3) -0.364(2) 0.003(2)
O27 O 1.301(3) -0.573(2) -0.318(3)
O28 O 1.477(3) -0.543(2) -0.167(3)
O29 O 1.870(3) -0.519(2) -0.151(2)
O30 O 1.914(3) -0.530(2) -0.284(2)
O31 O 1.083(3) -0.681(3) -0.302(3)
O32 O 1.084(4) -0.684(3) -0.515(3)
O33 O 1.365(3) 0.713(3) 0.210(3)
O34 O 1.077(3) 0.400(2) -0.092(2)
O35 O 1.352(3) 0.391(2) -0.071(2)
Si1 Si 1.0000 0.0000 0.0000
C1 C 1.178(5) -0.353(4) -0.428(4)
C2 C 1.282(4) -0.305(4) -0.315(4)
C3 C 1.377(4) -0.218(4) -0.267(4)
H1 H 1.3855 -0.1793 -0.3039
C4 C 1.460(4) -0.193(4) -0.160(4)
H2 H 1.5284 -0.1386 -0.1269
C5 C 1.450(4) -0.242(3) -0.096(4)
H3 H 1.5042 -0.2187 -0.0227
C6 C 1.352(4) -0.329(4) -0.151(4)
C7 C 1.316(4) -0.387(4) -0.096(4)
C8 C 1.420(4) -0.559(3) -0.267(4)
C9 C 1.495(4) -0.560(4) -0.330(4)
C10 C 1.443(5) -0.595(4) -0.442(4)
H4 H 1.3554 -0.6131 -0.4838
C11 C 1.525(4) -0.603(4) -0.490(4)
H5 H 1.4952 -0.6307 -0.5646
C12 C 1.654(4) -0.568(4) -0.422(4)
H6 H 1.7096 -0.5598 -0.4518
C13 C 1.703(4) -0.544(4) -0.312(4)
C14 C 1.842(4) -0.527(3) -0.245(4)
O39 O 1.121(4) 0.641(3) 0.023(3)
W1A W 0.92634(17) 0.09741(14) -0.19997(16)
W2A W 0.72141(17) 0.09177(15) -0.07574(17)
W3A W 0.74153(19) -0.13707(19) -0.25979(19)
W4A W 0.9811(2) 0.23191(15) 0.18294(17)
W5A W 0.79691(19) -0.00088(15) 0.12736(18)
W6A W 0.81199(17) -0.23282(14) -0.05962(18)
Ce1A Ce 0.9144(2) 0.52717(19) 0.3481(2)
Ce1A_2 Ce 0.9144(2) -0.47283(19) -0.6519(2)
Ce1_2 Ce 2.0856(2) -0.52717(19) -0.3481(2)
Ce1_3 Ce 0.0856(2) -0.52717(19) -0.3481(2)
Ce2A Ce 0.7140(2) -0.52395(18) -0.0646(2)
Ce2A_2 Ce 1.7140(2) -0.52395(18) -0.0646(2)
Ce2_2 Ce 1.2860(2) -0.47605(18) 0.0646(2)
Ce2A_3 Ce 0.7140(2) -0.52395(18) -1.0646(2)
N1A N 0.732(3) -0.638(3) -0.740(3)
N1A_2 N 0.732(3) 0.362(3) 0.260(3)
N2_2 N 0.623(3) -0.541(3) -0.262(3)
N2A N 1.377(3) 0.541(3) 0.262(3)
O1A O 0.891(6) 0.009(5) -0.097(5)
O2A O 0.896(6) 0.061(5) 0.034(5)
O3A O 0.913(6) -0.121(5) -0.101(5)
O4A O 1.044(6) 0.052(5) -0.057(5)
O5A O 0.806(3) 0.139(2) -0.145(3)
O6A O 0.819(3) -0.038(3) -0.286(3)
O7A O 1.055(3) 0.032(3) -0.208(3)
O8A O 1.046(3) 0.214(3) -0.082(3)
O9A O 0.892(3) 0.144(3) -0.289(3)
O10A O 0.666(3) -0.037(3) -0.187(3)
O11A O 0.700(3) 0.034(2) 0.008(3)
O12A O 0.824(3) 0.214(3) 0.054(3)
O13A O 0.586(3) 0.142(3) -0.118(3)
O14A O 0.877(3) -0.198(3) -0.267(3)
O15A O 0.627(3) -0.195(3) -0.378(3)
O16A O 0.891(3) 0.133(3) 0.208(3)
O17A O 1.083(3) 0.289(3) 0.133(3)
O18A O 0.977(3) 0.338(2) 0.275(3)
O19A O 0.748(3) -0.140(3) 0.025(3)
O20A O 0.705(3) -0.001(3) 0.188(3)
O21A O 0.712(3) -0.219(3) -0.188(3)
O22A O 0.731(3) -0.346(2) -0.079(3)
O23A O 0.885(3) -0.560(3) -0.531(3)
O23A_2 O 0.885(3) 0.440(3) 0.469(3)
O23_2 O 1.115(3) 0.560(3) 0.531(3)
O24A O 0.834(3) -0.698(3) -0.520(3)
O25A O 0.775(3) -0.539(2) -0.854(2)
O25_2 O 1.225(3) 0.539(2) -0.146(2)
O25A_2 O 0.775(3) 0.461(2) 0.146(2)
O25A_3 O 0.775(3) -0.539(2) 0.146(2)
O26A O 0.608(3) -0.636(2) -1.003(2)
O26_2 O 1.392(3) 0.636(2) 0.003(2)
O26A_2 O 0.608(3) -0.636(2) -0.003(2)
O27_2 O 0.301(3) -0.573(2) -0.318(3)
O27A O 0.699(3) 0.573(2) 0.318(3)
O28_2 O 0.477(3) -0.543(2) -0.167(3)
O28A O 1.523(3) 0.543(2) 0.167(3)
O29_2 O 0.870(3) -0.519(2) -0.151(2)
O29A O 1.130(3) 0.519(2) 0.151(2)
O30_2 O 0.914(3) -0.530(2) -0.284(2)
O30A O 1.086(3) 0.530(2) 0.284(2)
O31A O 0.917(3) 0.681(3) 0.302(3)
O32A O 0.916(4) 0.684(3) 0.515(3)
O33A O 0.635(3) -0.713(3) -0.210(3)
O34A O 0.923(3) -0.400(2) 0.092(2)
O35A O 0.648(3) -0.391(2) 0.071(2)
C1A C 0.822(5) -0.647(4) -0.572(4)
C2A C 0.718(4) -0.695(4) -0.685(4)
C3A C 0.623(4) -0.782(4) -0.733(4)
H1A H 0.6145 -0.8207 -0.6961
C4A C 0.540(4) -0.807(4) -0.840(4)
H2A H 0.4716 -0.8614 -0.8731
C5A C 0.550(4) -0.758(3) -0.904(4)
H3A H 0.4958 -0.7813 -0.9773
C6A C 0.648(4) -0.671(4) -0.849(4)
C7A C 0.684(4) -0.613(4) -0.904(4)
C8_2 C 0.420(4) -0.559(3) -0.267(4)
C9_2 C 0.495(4) -0.560(4) -0.330(4)
C10_2 C 0.443(5) -0.595(4) -0.442(4)
H4_2 H 0.3554 -0.6131 -0.4838
C11_2 C 0.525(4) -0.603(4) -0.490(4)
H5_2 H 0.4952 -0.6307 -0.5646
C12_2 C 0.654(4) -0.568(4) -0.422(4)
H6_2 H 0.7096 -0.5598 -0.4518
C13_2 C 0.703(4) -0.544(4) -0.312(4)
C14_2 C 0.842(4) -0.527(3) -0.245(4)
O39A O 0.879(4) -0.641(3) -0.023(3)
loop_
_geom_bond_atom_site_label_1
_geom_bond_atom_site_label_2
_geom_bond_site_symmetry_1
_geom_bond_site_symmetry_2
W1 O1 1_555 1_555
W2 O1 1_555 1_555
W3 O1 1_555 1_555
W4 O2 1_555 1_555
W5 O2 1_555 1_555
W6 O3 1_555 1_555
Ce1 N1 1_555 1_555
Ce2 O22 1_555 1_555
N1 C2 1_555 1_555
N2 C9 1_555 1_555
O1 Si1 1_555 1_555
O2 W2 1_555 1_555
O3 W3 1_555 1_555
O4 W1 1_555 1_555
O5 W1 1_555 1_555
O6 W1 1_555 1_555
O7 W1 1_555 1_555
O8 W1 1_555 1_555
O9 W1 1_555 1_555
O10 W2 1_555 1_555
O11 W2 1_555 1_555
O12 W2 1_555 1_555
O13 W2 1_555 1_555
O14 W3 1_555 1_555
O15 W3 1_555 1_555
O16 W4 1_555 1_555
O17 W4 1_555 1_555
O18 W4 1_555 1_555
O19 W5 1_555 1_555
O20 W5 1_555 1_555
O21 W3 1_555 1_555
O22 W6 1_555 1_555
O23 Ce1 1_555 1_555
O24 C1 1_555 1_555
O25 Ce1 1_555 1_555
O26 C7 1_555 1_555
O27 Ce1 1_555 1_555
O28 C8 1_555 1_555
O29 C14 1_555 1_555
O30 C14 1_555 1_555
O31 Ce1 1_555 1_555
O32 Ce1 1_555 1_555
O33 Ce2 1_555 1_555
O34 Ce2 1_555 1_555
O35 Ce2 1_555 1_555
Si1 O2 1_555 1_555
C1 O23 1_555 1_555
C2 C1 1_555 1_555
C3 C2 1_555 1_555
H1 C3 1_555 1_555
C4 C3 1_555 1_555
H2 C4 1_555 1_555
C5 C4 1_555 1_555
H3 C5 1_555 1_555
C6 N1 1_555 1_555
C7 O25 1_555 1_555
C8 O27 1_555 1_555
C9 C8 1_555 1_555
C10 C9 1_555 1_555
H4 C10 1_555 1_555
C11 C10 1_555 1_555
H5 C11 1_555 1_555
C12 C11 1_555 1_555
H6 C12 1_555 1_555
C13 N2 1_555 1_555
C14 C13 1_555 1_555
O39 Ce2 1_555 1_555
W1A O1A 1_555 1_555
W2A O1A 1_555 1_555
W3A O1A 1_555 1_555
W4A O3 1_555 1_555
W5A O4 1_555 1_555
W6A O8 1_555 1_555
Ce1A N1A_2 1_555 1_555
Ce1A_2 O23 1_555 1_555
Ce1_2 O30 1_555 1_555
Ce1_3 O27_2 1_555 1_555
Ce2A N2_2 1_555 1_555
Ce2A_2 N2 1_555 1_555
Ce2_2 O25 1_555 1_555
Ce2A_3 O25A 1_555 1_555
N1A Ce1A_2 1_555 1_555
N2_2 C9_2 1_555 1_555
N2A Ce2 1_555 1_555
O1A Si1 1_555 1_555
O2A Si1 1_555 1_555
O3A W4 1_555 1_555
O4A W5 1_555 1_555
O5A W1A 1_555 1_555
O6A W1A 1_555 1_555
O7A W5 1_555 1_555
O8A W6 1_555 1_555
O9A W1A 1_555 1_555
O10A W2A 1_555 1_555
O11A W2A 1_555 1_555
O12A W2A 1_555 1_555
O13A W2A 1_555 1_555
O14A W4 1_555 1_555
O15A W3A 1_555 1_555
O16A W4A 1_555 1_555
O17A W6 1_555 1_555
O18A W4A 1_555 1_555
O19A W5A 1_555 1_555
O20A W5A 1_555 1_555
O21A W3A 1_555 1_555
O22A W6A 1_555 1_555
O23A Ce1 1_555 1_555
O23A_2 Ce1A 1_555 1_555
O23_2 Ce1A 1_555 1_555
O24A C1A 1_555 1_555
O25A Ce1A_2 1_555 1_555
O25_2 Ce2 1_555 1_555
O25A_2 Ce1A 1_555 1_555
O25A_3 Ce2A 1_555 1_555
O26A Ce2A_3 1_555 1_555
O26_2 Ce2 1_555 1_555
O26A_2 Ce2A 1_555 1_555
O27_2 C8_2 1_555 1_555
O27A Ce1A 1_555 1_555
O28_2 Ce2A 1_555 1_555
O28A Ce2 1_555 1_555
O29_2 Ce2A 1_555 1_555
O29A Ce2 1_555 1_555
O30_2 Ce1 1_555 1_555
O30A Ce1A 1_555 1_555
O31A Ce1A 1_555 1_555
O32A Ce1A 1_555 1_555
O33A Ce2A 1_555 1_555
O34A Ce2A 1_555 1_555
O35A Ce2A 1_555 1_555
C1A O23A 1_555 1_555
C2A N1A 1_555 1_555
C3A C2A 1_555 1_555
H1A C3A 1_555 1_555
C4A C3A 1_555 1_555
H2A C4A 1_555 1_555
C5A C4A 1_555 1_555
H3A C5A 1_555 1_555
C6A N1A 1_555 1_555
C7A O25A 1_555 1_555
C8_2 O28_2 1_555 1_555
C9_2 C8_2 1_555 1_555
C10_2 C9_2 1_555 1_555
H4_2 C10_2 1_555 1_555
C11_2 C10_2 1_555 1_555
H5_2 C11_2 1_555 1_555
C12_2 C11_2 1_555 1_555
H6_2 C12_2 1_555 1_555
C13_2 N2_2 1_555 1_555
C14_2 O29_2 1_555 1_555
O39A Ce2A 1_555 1_555
W2 O5 1_555 1_555
W3 O6 1_555 1_555
W3 O10 1_555 1_555
W4 O12 1_555 1_555
W5 O11 1_555 1_555
W5 O16 1_555 1_555
W6 O19 1_555 1_555
W6 O21 1_555 1_555
Ce1 O18 1_555 1_555
O3 Si1 1_555 1_555
O4 Si1 1_555 1_555
O7 W5A 1_555 1_555
O14 W4A 1_555 1_555
O17 W6A 1_555 1_555
O26 Ce2_2 1_555 1_555
O28 Ce2A_2 1_555 1_555
O29 Ce2A_2 1_555 1_555
Si1 O3A 1_555 1_555
Si1 O4A 1_555 1_555
C5 C6 1_555 1_555
C6 C7 1_555 1_555
C12 C13 1_555 1_555
W1A O4A 1_555 1_555
W1A O7A 1_555 1_555
W1A O8A 1_555 1_555
W2A O2A 1_555 1_555
W2A O5A 1_555 1_555
W3A O3A 1_555 1_555
W3A O6A 1_555 1_555
W3A O10A 1_555 1_555
W3A O14A 1_555 1_555
W4A O2A 1_555 1_555
W4A O12A 1_555 1_555
W4A O17A 1_555 1_555
W5A O2A 1_555 1_555
W5A O11A 1_555 1_555
W5A O16A 1_555 1_555
W6A O3A 1_555 1_555
W6A O19A 1_555 1_555
W6A O21A 1_555 1_555
Ce1A O18A 1_555 1_555
Ce1A_2 O23A 1_555 1_555
Ce2A O22A 1_555 1_555
O26A C7A 1_555 1_555
O30_2 C14_2 1_555 1_555
C1A C2A 1_555 1_555
C5A C6A 1_555 1_555
C6A C7A 1_555 1_555
C12_2 C13_2 1_555 1_555
C13_2 C14_2 1_555 1_555

#END
