
#######################################################################
#
#                 Cambridge Crystallographic Data Centre
#                                CCDC 
#
#######################################################################
#
# If this CIF has been generated from an entry in the Cambridge 
# Structural Database, then it will include bibliographic, chemical, 
# crystal, experimental, refinement or atomic coordinate data resulting 
# from the CCDC's data processing and validation procedures.
#
#######################################################################

data_TUYHUR
_symmetry_cell_setting           tetragonal
_symmetry_space_group_name_H-M   'I 41/a'
_symmetry_Int_Tables_number      88
_space_group_name_Hall           '-I 4ad'
loop_
_symmetry_equiv_pos_site_id
_symmetry_equiv_pos_as_xyz
1 x,y,z
2 3/4-y,1/4+x,1/4+z
3 -x,1/2-y,z
4 1/4+y,1/4-x,1/4+z
5 1/2+x,1/2+y,1/2+z
6 1/4-y,3/4+x,3/4+z
7 1/2-x,-y,1/2+z
8 3/4+y,3/4-x,3/4+z
9 -x,-y,-z
10 1/4+y,3/4-x,3/4-z
11 x,1/2+y,-z
12 3/4-y,3/4+x,3/4-z
13 1/2-x,1/2-y,1/2-z
14 3/4+y,1/4-x,1/4-z
15 1/2+x,y,1/2-z
16 1/4-y,1/4+x,1/4-z
_cell_length_a                   21.999(2)
_cell_length_b                   21.999(2)
_cell_length_c                   16.7023(15)
_cell_angle_alpha                90
_cell_angle_beta                 90
_cell_angle_gamma                90
_cell_volume                     8083.18
loop_
_atom_site_label
_atom_site_type_symbol
_atom_site_fract_x
_atom_site_fract_y
_atom_site_fract_z
W1 W 1.10704(3) 0.71403(4) 0.72530(4)
W2 W 1.14645(4) 0.81453(3) 0.86709(4)
W3 W 1.04667(4) 0.85470(4) 0.72563(4)
Si1 Si 1.0000 0.7500 0.8750
O1 O 1.0554(5) 0.7741(5) 0.8190(7)
O2 O 1.0286(6) 0.6843(6) 0.6983(7)
O3 O 1.1065(6) 0.6549(6) 0.8088(7)
O4 O 1.1438(6) 0.7487(6) 0.9407(7)
O5 O 1.1685(6) 0.7571(6) 0.7851(8)
O6 O 1.0875(6) 0.7887(6) 0.6714(7)
O7 O 1.1502(6) 0.6778(7) 0.6548(8)
O8 O 1.1189(6) 0.8689(6) 0.7851(8)
O9 O 1.2147(6) 0.8444(7) 0.8896(9)
O10 O 1.0511(7) 0.9107(7) 0.6556(9)
W1B W 0.89296(3) 0.78597(4) 0.72530(4)
W1I W 0.96403(4) 0.64296(3) 1.02470(4)
W1K W 1.03597(4) 0.85704(3) 1.02470(4)
W2B W 0.85355(4) 0.68547(3) 0.86709(4)
W2I W 1.06453(3) 0.60355(4) 0.88291(4)
W2K W 0.93547(3) 0.89645(4) 0.88291(4)
W3B W 0.95333(4) 0.64530(4) 0.72563(4)
W3I W 1.10470(4) 0.70333(4) 1.02437(4)
W3K W 0.89530(4) 0.79667(4) 1.02437(4)
O1B O 0.9446(5) 0.7259(5) 0.8190(7)
O1I O 1.0241(5) 0.6946(5) 0.9310(7)
O1K O 0.9759(5) 0.8054(5) 0.9310(7)
O2B O 0.9714(6) 0.8157(6) 0.6983(7)
O2I O 0.9343(6) 0.7214(6) 1.0517(7)
O2K O 1.0657(6) 0.7786(6) 1.0517(7)
O3K O 1.0951(6) 0.8565(6) 0.9412(7)
O3B O 0.8935(6) 0.8451(6) 0.8088(7)
O3I O 0.9049(6) 0.6435(6) 0.9412(7)
O4K O 1.0013(6) 0.8938(6) 0.8093(7)
O4B O 0.8562(6) 0.7513(6) 0.9407(7)
O4I O 0.9987(6) 0.6062(6) 0.8093(7)
O5B O 0.8315(6) 0.7429(6) 0.7851(8)
O5I O 1.0071(6) 0.5815(6) 0.9649(8)
O5K O 0.9929(6) 0.9185(6) 0.9649(8)
O6B O 0.9125(6) 0.7113(6) 0.6714(7)
O6I O 1.0387(6) 0.6625(6) 1.0786(7)
O6K O 0.9613(6) 0.8375(6) 1.0786(7)
O7B O 0.8498(6) 0.8222(7) 0.6548(8)
O7I O 0.9278(7) 0.5998(6) 1.0952(8)
O7K O 1.0722(7) 0.9002(6) 1.0952(8)
O8B O 0.8811(6) 0.6311(6) 0.7851(8)
O8I O 1.1189(6) 0.6311(6) 0.9649(8)
O8K O 0.8811(6) 0.8689(6) 0.9649(8)
O9B O 0.7853(6) 0.6556(7) 0.8896(9)
O9I O 1.0944(7) 0.5353(6) 0.8604(9)
O9K O 0.9056(7) 0.9647(6) 0.8604(9)
O10B O 0.9489(7) 0.5893(7) 0.6556(9)
O10I O 1.1607(7) 0.6989(7) 1.0944(9)
O10K O 0.8393(7) 0.8011(7) 1.0944(9)
Ce1 Ce 0.82438(5) 0.85859(6) 0.36543(6)
N1 N 0.8643(7) 0.9177(8) 0.2380(9)
O11 O 0.7210(7) 0.9313(7) 0.1428(8)
O12 O 0.7491(6) 0.8888(7) 0.2593(8)
O13 O 1.0161(7) 0.9226(9) 0.2971(9)
O14 O 0.9347(7) 0.8849(9) 0.3570(9)
O15 O 0.8686(9) 0.7745(10) 0.2801(11)
H1 H 0.8636 0.7407 0.3039
H2 H 0.8579 0.7707 0.2315
O16 O 0.7409(10) 0.7748(11) 0.3286(12)
H3 H 0.7253 0.7542 0.3665
H4 H 0.7188 0.7699 0.2874
O17 O 0.7281(10) 0.8734(10) 0.4455(11)
H5 H 0.7248 0.8634 0.4944
H6 H 0.7133 0.9088 0.4396
O18 O 0.8657(8) 0.8781(9) 0.5049(10)
H7 H 0.8607 0.8629 0.5512
H8 H 0.8640 0.9166 0.5087
C1 C 0.7600(10) 0.9179(10) 0.1942(13)
C2 C 0.8258(9) 0.9354(9) 0.1802(11)
C3 C 0.8438(11) 0.9686(11) 0.1143(13)
H11 H 0.8160 0.9792 0.0748
C4 C 0.9041(9) 0.9859(11) 0.1083(13)
H12 H 0.9177 1.0096 0.0658
C5 C 0.9445(9) 0.9662(11) 0.1693(13)
H13 H 0.9857 0.9751 0.1667
C6 C 0.9212(9) 0.9338(11) 0.2317(12)
C7 C 0.9613(10) 0.9132(12) 0.3005(13)
Ce1A Ce 0.89141(6) 1.07438(5) 0.61543(6)
Ce1K Ce 0.89141(6) 0.57438(5) 0.38457(6)
Ce1G Ce 0.60859(6) 0.92562(5) 0.11543(6)
Ce1I Ce 1.10859(6) 0.92562(5) 0.38457(6)
Ce1J Ce 0.82438(5) 1.35859(6) 0.63457(6)
Ce1J_2 Ce 0.82438(5) 0.35859(6) 0.63457(6)
Ce1F Ce 0.67562(5) 1.14141(6) 0.86543(6)
Ce1O Ce 0.39141(6) 1.07438(5) 0.88457(6)
N1A N 0.8323(8) 1.1143(7) 0.4880(9)
N1K N 0.8323(8) 0.6143(7) 0.5120(9)
N1F N 0.6357(7) 1.0823(8) 0.7380(9)
N1G N 0.6677(8) 0.8857(7) -0.0120(9)
O11A O 0.8187(7) 0.9710(7) 0.3928(8)
O11K O 0.8187(7) 0.4710(7) 0.6072(8)
O11F O 0.7790(7) 1.0687(7) 0.6428(8)
O11L O 0.7790(7) 0.5687(7) 0.3572(8)
O12A O 0.8612(7) 0.9991(6) 0.5093(8)
O12K O 0.8612(7) 0.4991(6) 0.4907(8)
O12F O 0.7509(6) 1.1112(7) 0.7593(8)
O12G O 0.6388(7) 1.0009(6) 0.0093(8)
O13A O 0.8274(9) 1.2661(7) 0.5471(9)
O13K O 0.8274(9) 0.7661(7) 0.4529(9)
O13F O 0.4839(7) 1.0774(9) 0.7971(9)
O13H O 0.9839(7) 1.0774(9) 0.7029(9)
O13B O 0.9839(7) 0.5774(9) 0.2971(9)
O13N O 0.5161(7) 0.9226(9) 0.2029(9)
O14A O 0.8651(9) 1.1847(7) 0.6070(9)
O14K O 0.8651(9) 0.6847(7) 0.3930(9)
O14F O 0.5653(7) 1.1151(9) 0.8570(9)
O14G O 0.6349(9) 0.8153(7) 0.1070(9)
O15A O 0.9755(10) 1.1186(9) 0.5301(11)
O15K O 0.9755(10) 0.6186(9) 0.4699(11)
O15G O 0.5245(10) 0.8814(9) 0.0301(11)
H1A H 1.0093 1.1136 0.5539
H1K H 1.0093 0.6136 0.4461
H1G H 0.4907 0.8864 0.0539
H2A H 0.9793 1.1079 0.4815
H2K H 0.9793 0.6079 0.5185
H2G H 0.5207 0.8921 -0.0185
O16A O 0.9752(11) 0.9909(10) 0.5786(12)
O16K O 0.9752(11) 0.4909(10) 0.4214(12)
O16G O 0.5248(11) 1.0091(10) 0.0786(12)
H3A H 0.9958 0.9753 0.6165
H3K H 0.9958 0.4753 0.3835
H3G H 0.5042 1.0247 0.1165
H4A H 0.9801 0.9688 0.5374
H4K H 0.9801 0.4688 0.4626
H4G H 0.5199 1.0312 0.0374
O17A O 0.8766(10) 0.9781(10) 0.6955(11)
O17K O 0.8766(10) 0.4781(10) 0.3045(11)
O17G O 0.6234(10) 1.0219(10) 0.1955(11)
H5A H 0.8866 0.9748 0.7444
H5K H 0.8866 0.4748 0.2556
H5G H 0.6134 1.0252 0.2444
H6A H 0.8412 0.9633 0.6896
H6K H 0.8412 0.4633 0.3104
H6G H 0.6588 1.0367 0.1896
O18A O 0.8719(9) 1.1157(8) 0.7549(10)
O18K O 0.8719(9) 0.6157(8) 0.2451(10)
O18G O 0.6281(9) 0.8843(8) 0.2549(10)
H7A H 0.8871 1.1107 0.8012
H7K H 0.8871 0.6107 0.1988
H7G H 0.6129 0.8893 0.3012
H8A H 0.8334 1.1140 0.7587
H8K H 0.8334 0.6140 0.2413
H8G H 0.6666 0.8860 0.2587
C1A C 0.8321(10) 1.0100(10) 0.4442(13)
C1K C 0.8321(10) 0.5100(10) 0.5558(13)
C1F C 0.7400(10) 1.0821(10) 0.6942(13)
C2A C 0.8146(9) 1.0758(9) 0.4302(11)
C2K C 0.8146(9) 0.5758(9) 0.5698(11)
C2F C 0.6742(9) 1.0646(9) 0.6802(11)
C3A C 0.7814(11) 1.0938(11) 0.3643(13)
C3K C 0.7814(11) 0.5938(11) 0.6357(13)
C3F C 0.6562(11) 1.0314(11) 0.6143(13)
H11A H 0.7708 1.0660 0.3248
H11K H 0.7708 0.5660 0.6752
H11F H 0.6840 1.0208 0.5748
C4A C 0.7641(11) 1.1541(9) 0.3583(13)
C4K C 0.7641(11) 0.6541(9) 0.6417(13)
C4F C 0.5959(9) 1.0141(11) 0.6083(13)
H12A H 0.7404 1.1677 0.3158
H12K H 0.7404 0.6677 0.6842
H12F H 0.5823 0.9904 0.5658
C5A C 0.7838(11) 1.1945(9) 0.4193(13)
C5K C 0.7838(11) 0.6945(9) 0.5807(13)
C5F C 0.5555(9) 1.0338(11) 0.6693(13)
H13A H 0.7749 1.2357 0.4167
H13K H 0.7749 0.7357 0.5833
H13F H 0.5143 1.0249 0.6667
C6A C 0.8162(11) 1.1712(9) 0.4817(12)
C6K C 0.8162(11) 0.6712(9) 0.5183(12)
C6F C 0.5788(9) 1.0662(11) 0.7317(12)
C7A C 0.8368(12) 1.2113(10) 0.5505(13)
C7K C 0.8368(12) 0.7113(10) 0.4495(13)
C7F C 0.5387(10) 1.0868(12) 0.8005(13)
O19 O 0.0000 0.7500 0.532(3)
H10 H -0.0151 0.7169 0.5152
H10B H 0.0151 0.7831 0.5152
H9? H 0.0238 0.7605 0.5700
loop_
_geom_bond_atom_site_label_1
_geom_bond_atom_site_label_2
_geom_bond_site_symmetry_1
_geom_bond_site_symmetry_2
W1 O1 1_555 1_555
W2 O1 1_555 1_555
W3 O1 1_555 1_555
Ce1 N1 1_555 1_555
Si1 O1 1_555 1_555
N1 C2 1_555 1_555
O2 W1 1_555 1_555
O3 W1 1_555 1_555
O4 W2 1_555 1_555
O5 W1 1_555 1_555
O6 W1 1_555 1_555
O7 W1 1_555 1_555
O8 W2 1_555 1_555
O9 W2 1_555 1_555
O10 W3 1_555 1_555
O11 C1 1_555 1_555
O12 Ce1 1_555 1_555
O13 C7 1_555 1_555
O14 Ce1 1_555 1_555
O15 Ce1 1_555 1_555
H1 O15 1_555 1_555
H2 O15 1_555 1_555
O16 Ce1 1_555 1_555
H3 O16 1_555 1_555
H4 O16 1_555 1_555
O17 Ce1 1_555 1_555
H5 O17 1_555 1_555
H6 O17 1_555 1_555
O18 Ce1 1_555 1_555
H7 O18 1_555 1_555
H8 O18 1_555 1_555
O19 H10 1_555 1_555
C1 O12 1_555 1_555
C2 C1 1_555 1_555
C3 C2 1_555 1_555
H11 C3 1_555 1_555
C4 C3 1_555 1_555
H12 C4 1_555 1_555
C5 C4 1_555 1_555
H13 C5 1_555 1_555
C6 N1 1_555 1_555
C7 O14 1_555 1_555
W1B O1B 1_555 1_555
W1I O1I 1_555 1_555
W1K O1K 1_555 1_555
W2B O1B 1_555 1_555
W2I O3 1_555 1_555
W2K O1K 1_555 1_555
W3B O2 1_555 1_555
W3I O4 1_555 1_555
W3K O1K 1_555 1_555
Ce1A N1A 1_555 1_555
Ce1K N1K 1_555 1_555
Ce1G O11 1_555 1_555
Ce1I O13 1_555 1_555
Ce1J O13A 1_555 1_555
Ce1J_2 O11K 1_555 1_555
Ce1F N1F 1_555 1_555
Ce1O O13F 1_555 1_555
N1A C2A 1_555 1_555
N1K C2K 1_555 1_555
N1F C2F 1_555 1_555
N1G Ce1G 1_555 1_555
O1B Si1 1_555 1_555
O1I Si1 1_555 1_555
O1K Si1 1_555 1_555
O2B W3 1_555 1_555
O2I W1I 1_555 1_555
O2K W1K 1_555 1_555
O3K W2 1_555 1_555
O3B W1B 1_555 1_555
O3I W1I 1_555 1_555
O4K W3 1_555 1_555
O4B W2B 1_555 1_555
O4I W2I 1_555 1_555
O5B W1B 1_555 1_555
O5I W1I 1_555 1_555
O5K W1K 1_555 1_555
O6B W1B 1_555 1_555
O6I W1I 1_555 1_555
O6K W1K 1_555 1_555
O7B W1B 1_555 1_555
O7I W1I 1_555 1_555
O7K W1K 1_555 1_555
O8B W2B 1_555 1_555
O8I W2I 1_555 1_555
O8K W2K 1_555 1_555
O9B W2B 1_555 1_555
O9I W2I 1_555 1_555
O9K W2K 1_555 1_555
O10B W3B 1_555 1_555
O10I W3I 1_555 1_555
O10K W3K 1_555 1_555
O11A Ce1 1_555 1_555
O11K C1K 1_555 1_555
O11F Ce1A 1_555 1_555
O11L Ce1K 1_555 1_555
O12A Ce1A 1_555 1_555
O12K Ce1K 1_555 1_555
O12F Ce1F 1_555 1_555
O12G Ce1G 1_555 1_555
O13A C7A 1_555 1_555
O13K Ce1 1_555 1_555
O13F C7F 1_555 1_555
O13H Ce1A 1_555 1_555
O13B Ce1K 1_555 1_555
O13N Ce1G 1_555 1_555
O14A Ce1A 1_555 1_555
O14K Ce1K 1_555 1_555
O14F Ce1F 1_555 1_555
O14G Ce1G 1_555 1_555
O15A Ce1A 1_555 1_555
O15K Ce1K 1_555 1_555
O15G Ce1G 1_555 1_555
H1A O15A 1_555 1_555
H1K O15K 1_555 1_555
H1G O15G 1_555 1_555
H2A O15A 1_555 1_555
H2K O15K 1_555 1_555
H2G O15G 1_555 1_555
O16A Ce1A 1_555 1_555
O16K Ce1K 1_555 1_555
O16G Ce1G 1_555 1_555
H3A O16A 1_555 1_555
H3K O16K 1_555 1_555
H3G O16G 1_555 1_555
H4A O16A 1_555 1_555
H4K O16K 1_555 1_555
H4G O16G 1_555 1_555
O17A Ce1A 1_555 1_555
O17K Ce1K 1_555 1_555
O17G Ce1G 1_555 1_555
H5A O17A 1_555 1_555
H5K O17K 1_555 1_555
H5G O17G 1_555 1_555
H6A O17A 1_555 1_555
H6K O17K 1_555 1_555
H6G O17G 1_555 1_555
O18A Ce1A 1_555 1_555
O18K Ce1K 1_555 1_555
O18G Ce1G 1_555 1_555
H7A O18A 1_555 1_555
H7K O18K 1_555 1_555
H7G O18G 1_555 1_555
H8A O18A 1_555 1_555
H8K O18K 1_555 1_555
H8G O18G 1_555 1_555
H10B O19 1_555 1_555
C1A O11A 1_555 1_555
C1K O12K 1_555 1_555
C1F O11F 1_555 1_555
C2A C1A 1_555 1_555
C2K C1K 1_555 1_555
C2F C1F 1_555 1_555
C3A C2A 1_555 1_555
C3K C2K 1_555 1_555
C3F C2F 1_555 1_555
H11A C3A 1_555 1_555
H11K C3K 1_555 1_555
H11F C3F 1_555 1_555
C4A C3A 1_555 1_555
C4K C3K 1_555 1_555
C4F C3F 1_555 1_555
H12A C4A 1_555 1_555
H12K C4K 1_555 1_555
H12F C4F 1_555 1_555
C5A C4A 1_555 1_555
C5K C4K 1_555 1_555
C5F C4F 1_555 1_555
H13A C5A 1_555 1_555
H13K C5K 1_555 1_555
H13F C5F 1_555 1_555
C6A N1A 1_555 1_555
C6K N1K 1_555 1_555
C6F N1F 1_555 1_555
C7A O14A 1_555 1_555
C7K O13K 1_555 1_555
C7F O14F 1_555 1_555
W2 O5 1_555 1_555
W3 O6 1_555 1_555
W3 O8 1_555 1_555
C5 C6 1_555 1_555
C6 C7 1_555 1_555
W1B O2B 1_555 1_555
W1K O3K 1_555 1_555
W2B O3I 1_555 1_555
W2B O5B 1_555 1_555
W2I O1I 1_555 1_555
W2I O5I 1_555 1_555
W2K O3B 1_555 1_555
W2K O4K 1_555 1_555
W2K O5K 1_555 1_555
W3B O1B 1_555 1_555
W3B O4I 1_555 1_555
W3B O6B 1_555 1_555
W3B O8B 1_555 1_555
W3I O1I 1_555 1_555
W3I O2K 1_555 1_555
W3I O6I 1_555 1_555
W3I O8I 1_555 1_555
W3K O2I 1_555 1_555
W3K O4B 1_555 1_555
W3K O6K 1_555 1_555
W3K O8K 1_555 1_555
O12A C1A 1_555 1_555
O12F C1F 1_555 1_555
O14K C7K 1_555 1_555
C5A C6A 1_555 1_555
C5K C6K 1_555 1_555
C5F C6F 1_555 1_555
C6A C7A 1_555 1_555
C6K C7K 1_555 1_555
C6F C7F 1_555 1_555

#END
