
#######################################################################
#
#                 Cambridge Crystallographic Data Centre
#                                CCDC 
#
#######################################################################
#
# If this CIF has been generated from an entry in the Cambridge 
# Structural Database, then it will include bibliographic, chemical, 
# crystal, experimental, refinement or atomic coordinate data resulting 
# from the CCDC's data processing and validation procedures.
#
#######################################################################

data_TUYJAZ
_symmetry_cell_setting           tetragonal
_symmetry_space_group_name_H-M   'I 41/a'
_symmetry_Int_Tables_number      88
_space_group_name_Hall           '-I 4ad'
loop_
_symmetry_equiv_pos_site_id
_symmetry_equiv_pos_as_xyz
1 x,y,z
2 3/4-y,1/4+x,1/4+z
3 -x,1/2-y,z
4 1/4+y,1/4-x,1/4+z
5 1/2+x,1/2+y,1/2+z
6 1/4-y,3/4+x,3/4+z
7 1/2-x,-y,1/2+z
8 3/4+y,3/4-x,3/4+z
9 -x,-y,-z
10 1/4+y,3/4-x,3/4-z
11 x,1/2+y,-z
12 3/4-y,3/4+x,3/4-z
13 1/2-x,1/2-y,1/2-z
14 3/4+y,1/4-x,1/4-z
15 1/2+x,y,1/2-z
16 1/4-y,1/4+x,1/4-z
_cell_length_a                   21.8937(19)
_cell_length_b                   21.8937(19)
_cell_length_c                   16.7687(15)
_cell_angle_alpha                90
_cell_angle_beta                 90
_cell_angle_gamma                90
_cell_volume                     8037.81
loop_
_atom_site_label
_atom_site_type_symbol
_atom_site_fract_x
_atom_site_fract_y
_atom_site_fract_z
W1 W 0.89263(2) 0.78606(2) 0.72645(3)
W2 W 0.85251(2) 0.68487(2) 0.86695(3)
W3 W 0.95314(2) 0.64486(2) 0.72698(3)
Si1 Si 1.0000 0.7500 0.8750
O1 O 0.9452(3) 0.7255(3) 0.8191(4)
O2 O 0.8927(3) 0.8448(3) 0.8087(5)
O3 O 0.8312(4) 0.7415(4) 0.7840(5)
O4 O 0.9116(3) 0.7105(4) 0.6729(5)
O5 O 0.9716(3) 0.8157(4) 0.6995(5)
O6 O 0.8491(4) 0.8213(4) 0.6559(5)
O7 O 0.8799(4) 0.6307(4) 0.7852(5)
O8 O 0.8565(3) 0.7521(3) 0.9414(5)
O9 O 0.7836(4) 0.6535(4) 0.8901(5)
O10 O 0.9478(4) 0.5892(4) 0.6573(5)
W1B W 1.10737(2) 0.71394(2) 0.72645(3)
W1I W 1.03606(2) 0.85737(2) 1.02355(3)
W1K W 0.96394(2) 0.64263(2) 1.02355(3)
W2B W 1.14749(2) 0.81513(2) 0.86695(3)
W2I W 0.93487(2) 0.89749(2) 0.88305(3)
W2K W 1.06513(2) 0.60251(2) 0.88305(3)
W3B W 1.04686(2) 0.85514(2) 0.72698(3)
W3I W 0.89486(2) 0.79686(2) 1.02302(3)
W3K W 1.10514(2) 0.70314(2) 1.02302(3)
O1B O 1.0548(3) 0.7745(3) 0.8191(4)
O1I O 0.9755(3) 0.8048(3) 0.9309(4)
O1K O 1.0245(3) 0.6952(3) 0.9309(4)
O2K O 0.9052(3) 0.6427(3) 0.9413(5)
O2B O 1.1073(3) 0.6552(3) 0.8087(5)
O2I O 1.0948(3) 0.8573(3) 0.9413(5)
O3B O 1.1688(4) 0.7585(4) 0.7840(5)
O3I O 0.9915(4) 0.9188(4) 0.9660(5)
O3K O 1.0085(4) 0.5812(4) 0.9660(5)
O4B O 1.0884(3) 0.7895(4) 0.6729(5)
O4I O 0.9605(4) 0.8384(3) 1.0771(5)
O4K O 1.0395(4) 0.6616(3) 1.0771(5)
O5B O 1.0284(3) 0.6843(4) 0.6995(5)
O5I O 1.0657(4) 0.7784(3) 1.0505(5)
O5K O 0.9343(4) 0.7216(3) 1.0505(5)
O6B O 1.1509(4) 0.6787(4) 0.6559(5)
O6I O 1.0713(4) 0.9009(4) 1.0941(5)
O6K O 0.9287(4) 0.5991(4) 1.0941(5)
O7B O 1.1201(4) 0.8693(4) 0.7852(5)
O7I O 0.8807(4) 0.8701(4) 0.9648(5)
O7K O 1.1193(4) 0.6299(4) 0.9648(5)
O8K O 0.9979(3) 0.6065(3) 0.8086(5)
O8B O 1.1435(3) 0.7479(3) 0.9414(5)
O8I O 1.0021(3) 0.8935(3) 0.8086(5)
O9B O 1.2164(4) 0.8465(4) 0.8901(5)
O9I O 0.9035(4) 0.9664(4) 0.8599(5)
O9K O 1.0965(4) 0.5336(4) 0.8599(5)
O10B O 1.0522(4) 0.9108(4) 0.6573(5)
O10I O 0.8392(4) 0.8022(4) 1.0927(5)
O10K O 1.1608(4) 0.6978(4) 1.0927(5)
La1 La 0.82020(3) 0.35795(3) 0.63752(4)
N1 N 0.8629(4) 0.4171(4) 0.7650(6)
O11 O 0.7212(4) 0.4307(4) 0.8627(5)
O12 O 0.7474(4) 0.3890(4) 0.7459(5)
O13 O 0.9322(4) 0.3835(4) 0.6442(5)
O14 O 1.0147(4) 0.4247(4) 0.7002(5)
O15 O 0.8569(2) 0.3762(2) 0.4966(3)
H1 H 0.8307 0.3916 0.4649
H2 H 0.8880 0.3948 0.4882
O16 O 0.7215(2) 0.3834(2) 0.5568(3)
H3 H 0.7254 0.4206 0.5396
H4 H 0.7323 0.3607 0.5178
O17 O 0.7366(2) 0.2771(2) 0.6726(3)
H5 H 0.7281 0.2463 0.6447
H6 H 0.7042 0.2847 0.6924
O18 O 0.8732(2) 0.2707(2) 0.7183(3)
H7 H 0.8620 0.2377 0.6922
H8 H 0.9036 0.2573 0.7555
C1 C 0.7593(5) 0.4171(5) 0.8106(7)
C2 C 0.8247(5) 0.4347(5) 0.8235(7)
C3 C 0.8450(6) 0.4675(6) 0.8870(7)
H9 H 0.8179 0.4791 0.9270
C4 C 0.9057(6) 0.4836(6) 0.8921(8)
H10 H 0.9201 0.5059 0.9354
C5 C 0.9450(6) 0.4658(6) 0.8313(8)
H11 H 0.9862 0.4761 0.8329
C6 C 0.9216(6) 0.4328(5) 0.7686(7)
C7 C 0.9593(6) 0.4121(5) 0.6985(8)
La1E La 0.89205(3) 0.57020(3) 0.38752(4)
La1O La 0.89205(3) 0.07020(3) 0.61248(4)
La1C La 0.60795(3) 0.42980(3) 0.88752(4)
La1M La 1.10795(3) 0.42980(3) 0.61248(4)
La1J La 0.82020(3) 0.85795(3) 0.36248(4)
La1J_2 La 0.82020(3) -0.14205(3) 0.36248(4)
La1F La 0.67980(3) 0.64205(3) 0.13752(4)
La1K La 0.39205(3) 0.57020(3) 0.11248(4)
N1E N 0.8329(4) 0.6129(4) 0.5150(6)
N1O N 0.8329(4) 0.1129(4) 0.4850(6)
N1F N 0.6371(4) 0.5829(4) 0.2650(6)
N1C N 0.6671(4) 0.3871(4) 1.0150(6)
O11E O 0.8193(4) 0.4712(4) 0.6127(5)
O11O O 0.8193(4) -0.0288(4) 0.3873(5)
O11F O 0.7788(4) 0.5693(4) 0.3627(5)
O11L O 0.7788(4) 0.0693(4) 0.6373(5)
O12E O 0.8610(4) 0.4974(4) 0.4959(5)
O12O O 0.8610(4) -0.0026(4) 0.5041(5)
O12F O 0.7526(4) 0.6110(4) 0.2459(5)
O12C O 0.6390(4) 0.5026(4) 0.9959(5)
O13E O 0.8665(4) 0.6822(4) 0.3942(5)
O13O O 0.8665(4) 0.1822(4) 0.6058(5)
O13F O 0.5678(4) 0.6165(4) 0.1442(5)
O13C O 0.6335(4) 0.3178(4) 0.8942(5)
O14E O 0.8253(4) 0.7647(4) 0.4502(5)
O14O O 0.8253(4) 0.2647(4) 0.5498(5)
O14F O 0.4853(4) 0.5753(4) 0.2002(5)
O14H O 0.9853(4) 0.5753(4) 0.2998(5)
O14B O 0.9853(4) 0.0753(4) 0.7002(5)
O14N O 0.5147(4) 0.4247(4) 0.7998(5)
O15E O 0.8738(2) 0.6069(2) 0.2466(3)
O15O O 0.8738(2) 0.1069(2) 0.7534(3)
O15C O 0.6262(2) 0.3931(2) 0.7466(3)
H1E H 0.8584 0.5807 0.2149
H1O H 0.8584 0.0807 0.7851
H1C H 0.6416 0.4193 0.7149
H2E H 0.8552 0.6380 0.2382
H2O H 0.8552 0.1380 0.7618
H2C H 0.6448 0.3620 0.7382
O16E O 0.8666(2) 0.4715(2) 0.3068(3)
O16O O 0.8666(2) -0.0285(2) 0.6932(3)
O16C O 0.6334(2) 0.5285(2) 0.8068(3)
H3E H 0.8294 0.4754 0.2896
H3O H 0.8294 -0.0246 0.7104
H3C H 0.6706 0.5246 0.7896
H4E H 0.8893 0.4823 0.2678
H4O H 0.8893 -0.0177 0.7322
H4C H 0.6107 0.5177 0.7678
O17E O 0.9729(2) 0.4866(2) 0.4226(3)
O17O O 0.9729(2) -0.0134(2) 0.5774(3)
O17C O 0.5271(2) 0.5134(2) 0.9226(3)
H5E H 1.0037 0.4781 0.3947
H5O H 1.0037 -0.0219 0.6053
H5C H 0.4963 0.5219 0.8947
H6E H 0.9653 0.4542 0.4424
H6O H 0.9653 -0.0458 0.5576
H6C H 0.5347 0.5458 0.9424
O18E O 0.9793(2) 0.6232(2) 0.4683(3)
O18O O 0.9793(2) 0.1232(2) 0.5317(3)
O18C O 0.5207(2) 0.3768(2) 0.9683(3)
H7E H 1.0123 0.6120 0.4422
H7O H 1.0123 0.1120 0.5578
H7C H 0.4877 0.3880 0.9422
H8E H 0.9927 0.6536 0.5055
H8O H 0.9927 0.1536 0.4945
H8C H 0.5073 0.3464 1.0055
C1E C 0.8329(5) 0.5093(5) 0.5606(7)
C1O C 0.8329(5) 0.0093(5) 0.4394(7)
C1F C 0.7407(5) 0.5829(5) 0.3106(7)
C2E C 0.8153(5) 0.5747(5) 0.5735(7)
C2O C 0.8153(5) 0.0747(5) 0.4265(7)
C2F C 0.6753(5) 0.5653(5) 0.3235(7)
C3E C 0.7825(6) 0.5950(6) 0.6370(7)
C3O C 0.7825(6) 0.0950(6) 0.3630(7)
C3F C 0.6550(6) 0.5325(6) 0.3870(7)
H9E H 0.7709 0.5679 0.6770
H9O H 0.7709 0.0679 0.3230
H9F H 0.6821 0.5209 0.4270
C4E C 0.7664(6) 0.6557(6) 0.6421(8)
C4O C 0.7664(6) 0.1557(6) 0.3579(8)
C4F C 0.5943(6) 0.5164(6) 0.3921(8)
H10E H 0.7441 0.6701 0.6854
H10O H 0.7441 0.1701 0.3146
H10F H 0.5799 0.4941 0.4354
C5E C 0.7842(6) 0.6950(6) 0.5813(8)
C5O C 0.7842(6) 0.1950(6) 0.4187(8)
C5F C 0.5550(6) 0.5342(6) 0.3313(8)
H11E H 0.7739 0.7362 0.5829
H11O H 0.7739 0.2362 0.4171
H11F H 0.5138 0.5239 0.3329
C6E C 0.8172(5) 0.6716(6) 0.5186(7)
C6O C 0.8172(5) 0.1716(6) 0.4814(7)
C6F C 0.5784(6) 0.5672(5) 0.2686(7)
C7E C 0.8379(5) 0.7093(6) 0.4485(8)
C7O C 0.8379(5) 0.2093(6) 0.5515(8)
C7F C 0.5407(6) 0.5879(5) 0.1985(8)
O19 O 1.0000 0.2500 0.7813(12)
loop_
_geom_bond_atom_site_label_1
_geom_bond_atom_site_label_2
_geom_bond_site_symmetry_1
_geom_bond_site_symmetry_2
W1 O1 1_555 1_555
W2 O1 1_555 1_555
W3 O1 1_555 1_555
Si1 O1 1_555 1_555
La1 N1 1_555 1_555
N1 C2 1_555 1_555
O2 W1 1_555 1_555
O3 W1 1_555 1_555
O4 W1 1_555 1_555
O5 W1 1_555 1_555
O6 W1 1_555 1_555
O7 W2 1_555 1_555
O8 W2 1_555 1_555
O9 W2 1_555 1_555
O10 W3 1_555 1_555
O11 C1 1_555 1_555
O12 La1 1_555 1_555
O13 La1 1_555 1_555
O14 C7 1_555 1_555
O15 La1 1_555 1_555
H1 O15 1_555 1_555
H2 O15 1_555 1_555
O16 La1 1_555 1_555
H3 O16 1_555 1_555
H4 O16 1_555 1_555
O17 La1 1_555 1_555
H5 O17 1_555 1_555
H6 O17 1_555 1_555
O18 La1 1_555 1_555
H7 O18 1_555 1_555
H8 O18 1_555 1_555
C1 O12 1_555 1_555
C2 C1 1_555 1_555
C3 C2 1_555 1_555
H9 C3 1_555 1_555
C4 C3 1_555 1_555
H10 C4 1_555 1_555
C5 C4 1_555 1_555
H11 C5 1_555 1_555
C6 N1 1_555 1_555
C7 O13 1_555 1_555
W1B O1B 1_555 1_555
W1I O1I 1_555 1_555
W1K O1K 1_555 1_555
W2B O1B 1_555 1_555
W2I O2 1_555 1_555
W2K O1K 1_555 1_555
W3B O5 1_555 1_555
W3I O8 1_555 1_555
W3K O1K 1_555 1_555
La1E N1E 1_555 1_555
La1O N1O 1_555 1_555
La1C O11 1_555 1_555
La1M O14 1_555 1_555
La1J O14E 1_555 1_555
La1J_2 O11O 1_555 1_555
La1F N1F 1_555 1_555
La1K O14F 1_555 1_555
N1E C2E 1_555 1_555
N1O C2O 1_555 1_555
N1F C2F 1_555 1_555
N1C La1C 1_555 1_555
O1B Si1 1_555 1_555
O1I Si1 1_555 1_555
O1K Si1 1_555 1_555
O2K W2 1_555 1_555
O2B W1B 1_555 1_555
O2I W1I 1_555 1_555
O3B W1B 1_555 1_555
O3I W1I 1_555 1_555
O3K W1K 1_555 1_555
O4B W1B 1_555 1_555
O4I W1I 1_555 1_555
O4K W1K 1_555 1_555
O5B W3 1_555 1_555
O5I W1I 1_555 1_555
O5K W1K 1_555 1_555
O6B W1B 1_555 1_555
O6I W1I 1_555 1_555
O6K W1K 1_555 1_555
O7B W2B 1_555 1_555
O7I W2I 1_555 1_555
O7K W2K 1_555 1_555
O8K W3 1_555 1_555
O8B W2B 1_555 1_555
O8I W2I 1_555 1_555
O9B W2B 1_555 1_555
O9I W2I 1_555 1_555
O9K W2K 1_555 1_555
O10B W3B 1_555 1_555
O10I W3I 1_555 1_555
O10K W3K 1_555 1_555
O11E La1 1_555 1_555
O11O C1O 1_555 1_555
O11F La1E 1_555 1_555
O11L La1O 1_555 1_555
O12E La1E 1_555 1_555
O12O La1O 1_555 1_555
O12F La1F 1_555 1_555
O12C La1C 1_555 1_555
O13E La1E 1_555 1_555
O13O La1O 1_555 1_555
O13F La1F 1_555 1_555
O13C La1C 1_555 1_555
O14E C7E 1_555 1_555
O14O La1 1_555 1_555
O14F C7F 1_555 1_555
O14H La1E 1_555 1_555
O14B La1O 1_555 1_555
O14N La1C 1_555 1_555
O15E La1E 1_555 1_555
O15O La1O 1_555 1_555
O15C La1C 1_555 1_555
H1E O15E 1_555 1_555
H1O O15O 1_555 1_555
H1C O15C 1_555 1_555
H2E O15E 1_555 1_555
H2O O15O 1_555 1_555
H2C O15C 1_555 1_555
O16E La1E 1_555 1_555
O16O La1O 1_555 1_555
O16C La1C 1_555 1_555
H3E O16E 1_555 1_555
H3O O16O 1_555 1_555
H3C O16C 1_555 1_555
H4E O16E 1_555 1_555
H4O O16O 1_555 1_555
H4C O16C 1_555 1_555
O17E La1E 1_555 1_555
O17O La1O 1_555 1_555
O17C La1C 1_555 1_555
H5E O17E 1_555 1_555
H5O O17O 1_555 1_555
H5C O17C 1_555 1_555
H6E O17E 1_555 1_555
H6O O17O 1_555 1_555
H6C O17C 1_555 1_555
O18E La1E 1_555 1_555
O18O La1O 1_555 1_555
O18C La1C 1_555 1_555
H7E O18E 1_555 1_555
H7O O18O 1_555 1_555
H7C O18C 1_555 1_555
H8E O18E 1_555 1_555
H8O O18O 1_555 1_555
H8C O18C 1_555 1_555
C1E O11E 1_555 1_555
C1O O12O 1_555 1_555
C1F O11F 1_555 1_555
C2E C1E 1_555 1_555
C2O C1O 1_555 1_555
C2F C1F 1_555 1_555
C3E C2E 1_555 1_555
C3O C2O 1_555 1_555
C3F C2F 1_555 1_555
H9E C3E 1_555 1_555
H9O C3O 1_555 1_555
H9F C3F 1_555 1_555
C4E C3E 1_555 1_555
C4O C3O 1_555 1_555
C4F C3F 1_555 1_555
H10E C4E 1_555 1_555
H10O C4O 1_555 1_555
H10F C4F 1_555 1_555
C5E C4E 1_555 1_555
C5O C4O 1_555 1_555
C5F C4F 1_555 1_555
H11E C5E 1_555 1_555
H11O C5O 1_555 1_555
H11F C5F 1_555 1_555
C6E N1E 1_555 1_555
C6O N1O 1_555 1_555
C6F N1F 1_555 1_555
C7E O13E 1_555 1_555
C7O O13O 1_555 1_555
C7F O13F 1_555 1_555
W2 O3 1_555 1_555
W3 O4 1_555 1_555
W3 O7 1_555 1_555
C5 C6 1_555 1_555
C6 C7 1_555 1_555
W1B O5B 1_555 1_555
W1K O2K 1_555 1_555
W2B O2I 1_555 1_555
W2B O3B 1_555 1_555
W2I O1I 1_555 1_555
W2I O3I 1_555 1_555
W2K O2B 1_555 1_555
W2K O3K 1_555 1_555
W2K O8K 1_555 1_555
W3B O1B 1_555 1_555
W3B O4B 1_555 1_555
W3B O7B 1_555 1_555
W3B O8I 1_555 1_555
W3I O1I 1_555 1_555
W3I O4I 1_555 1_555
W3I O5K 1_555 1_555
W3I O7I 1_555 1_555
W3K O4K 1_555 1_555
W3K O5I 1_555 1_555
W3K O7K 1_555 1_555
W3K O8B 1_555 1_555
O12E C1E 1_555 1_555
O12F C1F 1_555 1_555
O14O C7O 1_555 1_555
C5E C6E 1_555 1_555
C5O C6O 1_555 1_555
C5F C6F 1_555 1_555
C6E C7E 1_555 1_555
C6O C7O 1_555 1_555
C6F C7F 1_555 1_555

#END
