
#######################################################################
#
#                 Cambridge Crystallographic Data Centre
#                                CCDC 
#
#######################################################################
#
# If this CIF has been generated from an entry in the Cambridge 
# Structural Database, then it will include bibliographic, chemical, 
# crystal, experimental, refinement or atomic coordinate data resulting 
# from the CCDC's data processing and validation procedures.
#
#######################################################################

data_TUYJED
_symmetry_cell_setting           tetragonal
_symmetry_space_group_name_H-M   'I 41/a'
_symmetry_Int_Tables_number      88
_space_group_name_Hall           '-I 4ad'
loop_
_symmetry_equiv_pos_site_id
_symmetry_equiv_pos_as_xyz
1 x,y,z
2 3/4-y,1/4+x,1/4+z
3 -x,1/2-y,z
4 1/4+y,1/4-x,1/4+z
5 1/2+x,1/2+y,1/2+z
6 1/4-y,3/4+x,3/4+z
7 1/2-x,-y,1/2+z
8 3/4+y,3/4-x,3/4+z
9 -x,-y,-z
10 1/4+y,3/4-x,3/4-z
11 x,1/2+y,-z
12 3/4-y,3/4+x,3/4-z
13 1/2-x,1/2-y,1/2-z
14 3/4+y,1/4-x,1/4-z
15 1/2+x,y,1/2-z
16 1/4-y,1/4+x,1/4-z
_cell_length_a                   21.917(2)
_cell_length_b                   21.917(2)
_cell_length_c                   16.5868(18)
_cell_angle_alpha                90
_cell_angle_beta                 90
_cell_angle_gamma                90
_cell_volume                     7967.55
loop_
_atom_site_label
_atom_site_type_symbol
_atom_site_fract_x
_atom_site_fract_y
_atom_site_fract_z
W1 W 0.64607(4) 0.68136(4) 0.13299(5)
W2 W 0.54440(4) 0.64329(4) 0.27504(5)
W3 W 0.60840(4) 0.78346(4) 0.27542(5)
Si1 Si 0.5000 0.7500 0.1250
O1 O 0.5547(6) 0.7244(6) 0.1815(8)
O2 O 0.6448(6) 0.7479(6) 0.0572(8)
O3 O 0.5930(6) 0.6399(6) 0.0582(8)
O4 O 0.6697(6) 0.7379(6) 0.2159(8)
O5 O 0.6171(6) 0.6277(6) 0.2148(8)
O6 O 0.7132(7) 0.6482(7) 0.1108(9)
O7 O 0.5474(8) 0.5849(9) 0.3452(10)
O8 O 0.5875(7) 0.7092(7) 0.3302(8)
O9 O 0.4691(6) 0.6849(7) 0.3041(8)
O10 O 0.6541(8) 0.8172(7) 0.3469(9)
W1M W 0.43136(4) 0.60393(4) 0.11701(5)
W1O W 0.56864(4) 0.89607(4) 0.11701(5)
W1B W 0.35393(4) 0.81864(4) 0.13299(5)
W2M W 0.39329(4) 0.70560(4) -0.02504(5)
W2O W 0.60671(4) 0.79440(4) -0.02504(5)
W2B W 0.45560(4) 0.85671(4) 0.27504(5)
W3M W 0.53346(4) 0.64160(4) -0.02542(5)
W3O W 0.46654(4) 0.85840(4) -0.02542(5)
W3B W 0.39160(4) 0.71654(4) 0.27542(5)
O1M O 0.4744(6) 0.6953(6) 0.0685(8)
O1O O 0.5256(6) 0.8047(6) 0.0685(8)
O1B O 0.4453(6) 0.7756(6) 0.1815(8)
O2M O 0.4979(6) 0.6052(6) 0.1928(8)
O2O O 0.5021(6) 0.8948(6) 0.1928(8)
O2B O 0.3552(6) 0.7521(6) 0.0572(8)
O3O O 0.6101(6) 0.8430(6) 0.1918(8)
O3M O 0.3899(6) 0.6570(6) 0.1918(8)
O3B O 0.4070(6) 0.8601(6) 0.0582(8)
O4M O 0.4879(6) 0.5803(6) 0.0341(8)
O4O O 0.5121(6) 0.9197(6) 0.0341(8)
O4B O 0.3303(6) 0.7621(6) 0.2159(8)
O5M O 0.3777(6) 0.6329(6) 0.0352(8)
O5O O 0.6223(6) 0.8671(6) 0.0352(8)
O5B O 0.3829(6) 0.8723(6) 0.2148(8)
O6M O 0.3982(7) 0.5368(7) 0.1392(9)
O6O O 0.6018(7) 0.9632(7) 0.1392(9)
O6B O 0.2868(7) 0.8518(7) 0.1108(9)
O7M O 0.3349(9) 0.7026(8) -0.0952(10)
O7O O 0.6651(9) 0.7974(8) -0.0952(10)
O7B O 0.4526(8) 0.9151(9) 0.3452(10)
O8M O 0.4592(7) 0.6625(7) -0.0802(8)
O8O O 0.5408(7) 0.8375(7) -0.0802(8)
O8B O 0.4125(7) 0.7908(7) 0.3302(8)
O9B O 0.5309(6) 0.8151(7) 0.3041(8)
O9M O 0.4349(7) 0.7809(6) -0.0541(8)
O9O O 0.5651(7) 0.7191(6) -0.0541(8)
O10M O 0.5672(7) 0.5959(8) -0.0969(9)
O10O O 0.4328(7) 0.9041(8) -0.0969(9)
O10B O 0.3459(8) 0.6828(7) 0.3469(9)
Nd1 Nd 0.88894(6) 0.42493(7) 0.11504(7)
N1 N 0.8315(9) 0.3854(9) -0.0117(11)
O11 O 0.8626(9) 0.3169(9) 0.1119(10)
O12 O 0.8245(12) 0.2326(10) 0.0515(11)
O13 O 0.8593(8) 0.5009(8) 0.0113(10)
O14 O 0.8171(8) 0.5286(8) -0.1062(10)
O15 O 0.8806(11) 0.5205(10) 0.1929(12)
H1 H 0.8449 0.5350 0.1870
H2 H 0.8901 0.5230 0.2424
O16 O 0.8725(8) 0.3887(10) 0.2566(10)
H3 H 0.8885 0.3932 0.3029
H4 H 0.8339 0.3894 0.2617
O17 O 0.9709(13) 0.5095(13) 0.0774(15)
O18 O 0.9716(10) 0.3829(11) 0.0287(13)
C1 C 0.8320(12) 0.2882(13) 0.0533(15)
C2 C 0.8142(11) 0.3267(12) -0.0154(14)
C3 C 0.7795(11) 0.3036(12) -0.0827(14)
H6 H 0.7687 0.2626 -0.0861
C4 C 0.7634(12) 0.3439(12) -0.1409(15)
H7 H 0.7397 0.3307 -0.1840
C5 C 0.7820(11) 0.4055(11) -0.1369(13)
H8 H 0.7728 0.4329 -0.1779
C6 C 0.8141(11) 0.4230(11) -0.0699(14)
C7 C 0.8312(12) 0.4906(12) -0.0551(15)
Nd1M Nd 1.17493(7) 0.36106(6) 0.13496(7)
Nd1C Nd 0.67493(7) 0.36106(6) 0.36504(7)
Nd1O Nd 0.82507(7) 0.13894(6) 0.13496(7)
Nd1E Nd 0.82507(7) 0.63894(6) -0.13496(7)
Nd1N Nd 1.38894(6) 0.42493(7) 0.38496(7)
Nd1N_2 Nd 0.38894(6) 0.42493(7) 0.38496(7)
Nd1B Nd 1.11106(6) 0.07507(7) 0.11504(7)
Nd1G Nd 1.17493(7) -0.13894(6) -0.13496(7)
N1M N 1.1354(9) 0.4185(9) 0.2617(11)
N1C N 0.6354(9) 0.4185(9) 0.2383(11)
N1B N 1.1685(9) 0.1146(9) -0.0117(11)
N1O N 0.8646(9) 0.0815(9) 0.2617(11)
O11M O 1.0669(9) 0.3874(9) 0.1381(10)
O11C O 0.5669(9) 0.3874(9) 0.3619(10)
O11B O 1.1374(9) 0.1831(9) 0.1119(10)
O11O O 0.9331(9) 0.1126(9) 0.1381(10)
O12M O 0.9826(10) 0.4255(12) 0.1985(11)
O12C O 0.4826(10) 0.4255(12) 0.3015(11)
O12B O 1.1755(12) 0.2674(10) 0.0515(11)
O12L O 0.6755(12) 0.2674(10) 0.4485(11)
O13M O 1.2509(8) 0.3907(8) 0.2387(10)
O13C O 0.7509(8) 0.3907(8) 0.2613(10)
O13B O 1.1407(8) -0.0009(8) 0.0113(10)
O13O O 0.7491(8) 0.1093(8) 0.2387(10)
O14M O 1.2786(8) 0.4329(8) 0.3562(10)
O14C O 0.7786(8) 0.4329(8) 0.1438(10)
O14B O 1.1829(8) -0.0286(8) -0.1062(10)
O14H O 1.1829(8) 0.4714(8) 0.1062(10)
O14F O 0.6829(8) 0.4714(8) 0.3938(10)
O14J O 0.8171(8) 0.0286(8) 0.1062(10)
O15M O 1.2705(10) 0.3694(11) 0.0571(12)
O15C O 0.7705(10) 0.3694(11) 0.4429(12)
O15O O 0.7295(10) 0.1306(11) 0.0571(12)
H1M H 1.2850 0.4051 0.0630
H1C H 0.7850 0.4051 0.4370
H1O H 0.7150 0.0949 0.0630
H2M H 1.2730 0.3599 0.0076
H2C H 0.7730 0.3599 0.4924
H2O H 0.7270 0.1401 0.0076
O16M O 1.1387(10) 0.3775(8) -0.0066(10)
O16C O 0.6387(10) 0.3775(8) 0.5066(10)
O16O O 0.8613(10) 0.1225(8) -0.0066(10)
H3M H 1.1432 0.3615 -0.0529
H3C H 0.6432 0.3615 0.5529
H3O H 0.8568 0.1385 -0.0529
H4M H 1.1394 0.4161 -0.0117
H4C H 0.6394 0.4161 0.5117
H4O H 0.8606 0.0839 -0.0117
O17M O 1.2595(13) 0.2791(13) 0.1726(15)
O17C O 0.7595(13) 0.2791(13) 0.3274(15)
O17O O 0.7405(13) 0.2209(13) 0.1726(15)
O18M O 1.1329(11) 0.2784(10) 0.2213(13)
O18C O 0.6329(11) 0.2784(10) 0.2787(13)
O18O O 0.8671(11) 0.2216(10) 0.2213(13)
C1M C 1.0382(13) 0.4180(12) 0.1967(15)
C1C C 0.5382(13) 0.4180(12) 0.3033(15)
C1B C 1.1680(12) 0.2118(13) 0.0533(15)
C2M C 1.0767(12) 0.4358(11) 0.2654(14)
C2C C 0.5767(12) 0.4358(11) 0.2346(14)
C2B C 1.1858(11) 0.1733(12) -0.0154(14)
C3M C 1.0536(12) 0.4705(11) 0.3327(14)
C3C C 0.5536(12) 0.4705(11) 0.1673(14)
C3B C 1.2205(11) 0.1964(12) -0.0827(14)
H6M H 1.0126 0.4813 0.3361
H6C H 0.5126 0.4813 0.1639
H6B H 1.2313 0.2374 -0.0861
C4M C 1.0939(12) 0.4866(12) 0.3909(15)
C4C C 0.5939(12) 0.4866(12) 0.1091(15)
C4B C 1.2366(12) 0.1561(12) -0.1409(15)
H7M H 1.0807 0.5103 0.4340
H7C H 0.5807 0.5103 0.0660
H7B H 1.2603 0.1693 -0.1840
C5M C 1.1555(11) 0.4680(11) 0.3869(13)
C5C C 0.6555(11) 0.4680(11) 0.1131(13)
C5B C 1.2180(11) 0.0945(11) -0.1369(13)
H8M H 1.1829 0.4772 0.4279
H8C H 0.6829 0.4772 0.0721
H8B H 1.2272 0.0671 -0.1779
C6M C 1.1730(11) 0.4359(11) 0.3199(14)
C6C C 0.6730(11) 0.4359(11) 0.1801(14)
C6B C 1.1859(11) 0.0770(11) -0.0699(14)
C7M C 1.2406(12) 0.4188(12) 0.3051(15)
C7C C 0.7406(12) 0.4188(12) 0.1949(15)
C7B C 1.1688(12) 0.0094(12) -0.0551(15)
O19 O 1.0000 0.2500 0.980(2)
H5 H 0.9716 0.2633 0.9497
H5B H 1.0284 0.2367 0.9497
loop_
_geom_bond_atom_site_label_1
_geom_bond_atom_site_label_2
_geom_bond_site_symmetry_1
_geom_bond_site_symmetry_2
W1 O1 1_555 1_555
W2 O1 1_555 1_555
W3 O1 1_555 1_555
Nd1 N1 1_555 1_555
Si1 O1 1_555 1_555
N1 C2 1_555 1_555
O2 W1 1_555 1_555
O3 W1 1_555 1_555
O4 W1 1_555 1_555
O5 W1 1_555 1_555
O6 W1 1_555 1_555
O7 W2 1_555 1_555
O8 W2 1_555 1_555
O9 W2 1_555 1_555
O10 W3 1_555 1_555
O11 Nd1 1_555 1_555
O12 C1 1_555 1_555
O13 Nd1 1_555 1_555
O14 C7 1_555 1_555
O15 Nd1 1_555 1_555
H1 O15 1_555 1_555
H2 O15 1_555 1_555
O16 Nd1 1_555 1_555
H3 O16 1_555 1_555
H4 O16 1_555 1_555
O17 Nd1 1_555 1_555
O18 Nd1 1_555 1_555
O19 H5 1_555 1_555
C1 O11 1_555 1_555
C2 C1 1_555 1_555
C3 C2 1_555 1_555
H6 C3 1_555 1_555
C4 C3 1_555 1_555
H7 C4 1_555 1_555
C5 C4 1_555 1_555
H8 C5 1_555 1_555
C6 N1 1_555 1_555
C7 O13 1_555 1_555
W1M O1M 1_555 1_555
W1O O1O 1_555 1_555
W1B O1B 1_555 1_555
W2M O1M 1_555 1_555
W2O O2 1_555 1_555
W2B O1B 1_555 1_555
W3M O3 1_555 1_555
W3O O1O 1_555 1_555
W3B O9 1_555 1_555
Nd1M N1M 1_555 1_555
Nd1C N1C 1_555 1_555
Nd1O O12 1_555 1_555
Nd1E O14 1_555 1_555
Nd1N O14M 1_555 1_555
Nd1N_2 O12C 1_555 1_555
Nd1B N1B 1_555 1_555
Nd1G O14B 1_555 1_555
N1M C2M 1_555 1_555
N1C C2C 1_555 1_555
N1B C2B 1_555 1_555
N1O Nd1O 1_555 1_555
O1M Si1 1_555 1_555
O1O Si1 1_555 1_555
O1B Si1 1_555 1_555
O2M W2 1_555 1_555
O2O W1O 1_555 1_555
O2B W1B 1_555 1_555
O3O W3 1_555 1_555
O3M W1M 1_555 1_555
O3B W1B 1_555 1_555
O4M W1M 1_555 1_555
O4O W1O 1_555 1_555
O4B W1B 1_555 1_555
O5M W1M 1_555 1_555
O5O W1O 1_555 1_555
O5B W1B 1_555 1_555
O6M W1M 1_555 1_555
O6O W1O 1_555 1_555
O6B W1B 1_555 1_555
O7M W2M 1_555 1_555
O7O W2O 1_555 1_555
O7B W2B 1_555 1_555
O8M W2M 1_555 1_555
O8O W2O 1_555 1_555
O8B W2B 1_555 1_555
O9B W3 1_555 1_555
O9M W2M 1_555 1_555
O9O W2O 1_555 1_555
O10M W3M 1_555 1_555
O10O W3O 1_555 1_555
O10B W3B 1_555 1_555
O11M Nd1M 1_555 1_555
O11C Nd1C 1_555 1_555
O11B Nd1B 1_555 1_555
O11O Nd1O 1_555 1_555
O12M Nd1 1_555 1_555
O12C C1C 1_555 1_555
O12B Nd1M 1_555 1_555
O12L Nd1C 1_555 1_555
O13M Nd1M 1_555 1_555
O13C Nd1C 1_555 1_555
O13B Nd1B 1_555 1_555
O13O Nd1O 1_555 1_555
O14M C7M 1_555 1_555
O14C Nd1 1_555 1_555
O14B C7B 1_555 1_555
O14H Nd1M 1_555 1_555
O14F Nd1C 1_555 1_555
O14J Nd1O 1_555 1_555
O15M Nd1M 1_555 1_555
O15C Nd1C 1_555 1_555
O15O Nd1O 1_555 1_555
H1M O15M 1_555 1_555
H1C O15C 1_555 1_555
H1O O15O 1_555 1_555
H2M O15M 1_555 1_555
H2C O15C 1_555 1_555
H2O O15O 1_555 1_555
O16M Nd1M 1_555 1_555
O16C Nd1C 1_555 1_555
O16O Nd1O 1_555 1_555
H3M O16M 1_555 1_555
H3C O16C 1_555 1_555
H3O O16O 1_555 1_555
H4M O16M 1_555 1_555
H4C O16C 1_555 1_555
H4O O16O 1_555 1_555
O17M Nd1M 1_555 1_555
O17C Nd1C 1_555 1_555
O17O Nd1O 1_555 1_555
O18M Nd1M 1_555 1_555
O18C Nd1C 1_555 1_555
O18O Nd1O 1_555 1_555
H5B O19 1_555 1_555
C1M O11M 1_555 1_555
C1C O11C 1_555 1_555
C1B O11B 1_555 1_555
C2M C1M 1_555 1_555
C2C C1C 1_555 1_555
C2B C1B 1_555 1_555
C3M C2M 1_555 1_555
C3C C2C 1_555 1_555
C3B C2B 1_555 1_555
H6M C3M 1_555 1_555
H6C C3C 1_555 1_555
H6B C3B 1_555 1_555
C4M C3M 1_555 1_555
C4C C3C 1_555 1_555
C4B C3B 1_555 1_555
H7M C4M 1_555 1_555
H7C C4C 1_555 1_555
H7B C4B 1_555 1_555
C5M C4M 1_555 1_555
C5C C4C 1_555 1_555
C5B C4B 1_555 1_555
H8M C5M 1_555 1_555
H8C C5C 1_555 1_555
H8B C5B 1_555 1_555
C6M N1M 1_555 1_555
C6C N1C 1_555 1_555
C6B N1B 1_555 1_555
C7M O13M 1_555 1_555
C7C O13C 1_555 1_555
C7B O13B 1_555 1_555
W2 O5 1_555 1_555
W3 O4 1_555 1_555
W3 O8 1_555 1_555
C5 C6 1_555 1_555
C6 C7 1_555 1_555
W1M O2M 1_555 1_555
W1O O3O 1_555 1_555
W2M O2B 1_555 1_555
W2M O5M 1_555 1_555
W2O O1O 1_555 1_555
W2O O5O 1_555 1_555
W2B O2O 1_555 1_555
W2B O5B 1_555 1_555
W2B O9B 1_555 1_555
W3M O1M 1_555 1_555
W3M O4M 1_555 1_555
W3M O8M 1_555 1_555
W3M O9O 1_555 1_555
W3O O3B 1_555 1_555
W3O O4O 1_555 1_555
W3O O8O 1_555 1_555
W3O O9M 1_555 1_555
W3B O1B 1_555 1_555
W3B O3M 1_555 1_555
W3B O4B 1_555 1_555
W3B O8B 1_555 1_555
O12M C1M 1_555 1_555
O12B C1B 1_555 1_555
O14C C7C 1_555 1_555
C5M C6M 1_555 1_555
C5C C6C 1_555 1_555
C5B C6B 1_555 1_555
C6M C7M 1_555 1_555
C6C C7C 1_555 1_555
C6B C7B 1_555 1_555

#END
