
#######################################################################
#
#                 Cambridge Crystallographic Data Centre
#                                CCDC 
#
#######################################################################
#
# If this CIF has been generated from an entry in the Cambridge 
# Structural Database, then it will include bibliographic, chemical, 
# crystal, experimental, refinement or atomic coordinate data resulting 
# from the CCDC's data processing and validation procedures.
#
#######################################################################

data_TUYJAA
_symmetry_cell_setting           monoclinic
_symmetry_space_group_name_H-M   'P 21/c'
_symmetry_Int_Tables_number      14
_space_group_name_Hall           '-P 2ybc'
loop_
_symmetry_equiv_pos_site_id
_symmetry_equiv_pos_as_xyz
1 x,y,z
2 -x,1/2+y,1/2-z
3 -x,-y,-z
4 x,1/2-y,1/2+z
_cell_length_a                   7.1916(5)
_cell_length_b                   13.5942(10)
_cell_length_c                   12.6821(9)
_cell_angle_alpha                90
_cell_angle_beta                 92.7150(10)
_cell_angle_gamma                90
_cell_volume                     1238.46
loop_
_atom_site_label
_atom_site_type_symbol
_atom_site_fract_x
_atom_site_fract_y
_atom_site_fract_z
Mn1 Mn 0.83328(4) 0.240188(19) 0.49354(2)
O1 O 0.71309(18) 0.11148(9) 0.41334(10)
O2 O 0.7355(2) -0.01851(10) 0.52238(10)
O3 O 0.77955(18) -0.04781(9) 0.06424(10)
O4 O 0.68092(18) -0.17522(9) 0.15508(10)
O5 O 1.11156(19) 0.19693(10) 0.45816(11)
H1 H 1.1803 0.2358 0.4248
H2 H 1.1665 0.1416 0.4621
O6 O 0.96492(18) 0.37293(9) 0.56497(10)
H3 H 1.0560 0.3891 0.5283
H4 H 0.8935 0.4226 0.5677
O7 O 0.56557(18) 0.30617(10) 0.52818(10)
H5 H 0.5251 0.3137 0.5896
H6 H 0.4735 0.3126 0.4842
N1 N 0.8470(2) 0.31559(11) 0.15943(12)
N2 N 0.7680(2) 0.40186(11) 0.19155(12)
H7 H 0.7307 0.4502 0.1495
N3 N 0.8227(2) 0.31506(11) 0.33513(11)
N4 N 0.6862(2) 0.47524(12) 0.35083(12)
H8 H 0.6445 0.5282 0.3176
H9 H 0.6815 0.4712 0.4199
C1 C 0.7563(2) 0.40106(13) 0.29653(14)
C2 C 0.8763(3) 0.26742(13) 0.24805(14)
H10 H 0.9311 0.2038 0.2510
C3 C 0.7187(3) 0.02001(14) 0.43188(15)
C4 C 0.7032(3) -0.04978(14) 0.34063(14)
H11 H 0.6657 -0.1157 0.3525
C5 C 0.7403(3) -0.02207(14) 0.24414(15)
H12 H 0.7747 0.0447 0.2344
C6 C 0.7326(2) -0.08710(14) 0.14865(14)
Mn1C Mn 0.83328(4) 0.259812(19) -0.00646(2)
N1C N 0.8470(2) 0.18441(11) 0.65943(12)
O8 O 0.45466(18) 0.16705(10) 0.23631(10)
H13 H 0.5345 0.1501 0.2844
H14 H 0.4020 0.2190 0.2572
loop_
_geom_bond_atom_site_label_1
_geom_bond_atom_site_label_2
_geom_bond_site_symmetry_1
_geom_bond_site_symmetry_2
Mn1 O1 1_555 1_555
O1 C3 1_555 1_555
O2 C3 1_555 1_555
O3 C6 1_555 1_555
O4 C6 1_555 1_555
O5 Mn1 1_555 1_555
H1 O5 1_555 1_555
H2 O5 1_555 1_555
O6 Mn1 1_555 1_555
H3 O6 1_555 1_555
H4 O6 1_555 1_555
O7 Mn1 1_555 1_555
H5 O7 1_555 1_555
H6 O7 1_555 1_555
N1 N2 1_555 1_555
N2 H7 1_555 1_555
N3 Mn1 1_555 1_555
N4 H8 1_555 1_555
H9 N4 1_555 1_555
C1 N2 1_555 1_555
C2 N1 1_555 1_555
H10 C2 1_555 1_555
C3 C4 1_555 1_555
C4 H11 1_555 1_555
C5 C4 1_555 1_555
H12 C5 1_555 1_555
C6 C5 1_555 1_555
O8 H13 1_555 1_555
H14 O8 1_555 1_555
Mn1C N1 1_555 1_555
N1C Mn1 1_555 1_555
N3 C1 1_555 1_555
N3 C2 1_555 1_555
N4 C1 1_555 1_555

#END
