
#######################################################################
#
#                 Cambridge Crystallographic Data Centre
#                                CCDC 
#
#######################################################################
#
# If this CIF has been generated from an entry in the Cambridge 
# Structural Database, then it will include bibliographic, chemical, 
# crystal, experimental, refinement or atomic coordinate data resulting 
# from the CCDC's data processing and validation procedures.
#
#######################################################################

data_TUYJII
_symmetry_cell_setting           triclinic
_symmetry_space_group_name_H-M   'P -1'
_symmetry_Int_Tables_number      2
_space_group_name_Hall           '-P 1'
loop_
_symmetry_equiv_pos_site_id
_symmetry_equiv_pos_as_xyz
1 x,y,z
2 -x,-y,-z
_cell_length_a                   10.443(5)
_cell_length_b                   11.542(5)
_cell_length_c                   13.197(5)
_cell_angle_alpha                87.510(5)
_cell_angle_beta                 70.648(5)
_cell_angle_gamma                85.711(5)
_cell_volume                     1496.31
loop_
_atom_site_label
_atom_site_type_symbol
_atom_site_fract_x
_atom_site_fract_y
_atom_site_fract_z
Cd1 Cd 0.61267(3) 0.88678(2) 0.04891(2)
O1 O 0.4885(4) 0.0752(3) 0.0850(3)
O2 O 0.5795(4) 0.0092(3) 0.2048(3)
O3 O 0.7205(4) 0.7100(3) -0.0359(3)
O4 O 0.7426(4) 0.7398(3) 0.1211(3)
N1 N 0.8070(4) 0.9765(3) -0.0514(3)
N2 N 1.0447(4) 0.9938(4) -0.4075(3)
N3 N 0.4315(4) 0.7877(3) 0.1588(3)
N4 N 0.4222(8) 0.5806(6) 0.4581(4)
C1 C 0.2459(6) 0.6681(6) 0.1885(5)
H1 H 0.1845 0.6361 0.1620
C2 C 0.8489(5) 1.0707(4) -0.0185(4)
H2 H 0.7983 1.1013 0.0479
C3 C 0.9646(6) 1.1237(5) -0.0797(5)
H3 H 0.9900 1.1899 -0.0554
C4 C 1.0416(5) 1.0779(5) -0.1767(4)
H4 H 1.1209 1.1116 -0.2180
C5 C 1.0004(5) 0.9812(4) -0.2126(4)
C6 C 0.8820(5) 0.9333(4) -0.1453(4)
H5 H 0.8543 0.8672 -0.1679
C7 C 1.0762(5) 0.9283(5) -0.3194(4)
H6 H 1.1732 0.9272 -0.3318
H7 H 1.0521 0.8487 -0.3187
C8 C 0.9007(5) 0.9944(5) -0.3968(4)
H8 H 0.8463 1.0316 -0.3304
H9 H 0.8746 0.9151 -0.3936
C9 C 1.1265(5) 0.9416(5) -0.5096(4)
H10 H 1.1055 0.8611 -0.5092
H11 H 1.2221 0.9431 -0.5179
C10 C 0.3430(5) 0.7372(4) 0.1240(4)
H12 H 0.3475 0.7497 0.0528
C11 C 0.2410(5) 0.6467(5) 0.2944(5)
H13 H 0.1770 0.5990 0.3392
C12 C 0.3317(5) 0.6968(4) 0.3322(4)
C13 C 0.4260(5) 0.7671(4) 0.2606(3)
H14 H 0.4879 0.8012 0.2850
C14 C 0.3329(6) 0.6789(5) 0.4462(4)
H15 H 0.3617 0.7486 0.4685
H16 H 0.2412 0.6670 0.4933
C15 C 0.5457(10) 0.5627(8) 0.4007(7)
H17 H 0.5956 0.6267 0.4102
H18 H 0.5507 0.5641 0.3259
C16 C 0.3828(12) 0.5499(11) 0.5771(7)
H19 H 0.4049 0.6124 0.6140
H20 H 0.2852 0.5431 0.6059
C17 C 0.7596(4) 0.6770(4) 0.0407(4)
C18 C 0.8271(5) 0.5566(4) 0.0405(6)
H21 H 0.8943 0.5582 0.0764
H22 H 0.8744 0.5341 -0.0332
C19 C 0.7271(4) 0.4657(4) 0.0957(4)
C20 C 0.5932(5) 0.4745(4) 0.0974(5)
H23 H 0.5618 0.5398 0.0667
C21 C 0.7689(5) 0.3678(4) 0.1441(5)
H24 H 0.8578 0.3598 0.1452
C22 C 0.5056(5) 0.3890(4) 0.1434(4)
H25 H 0.4165 0.3971 0.1431
C23 C 0.6823(6) 0.2829(4) 0.1904(4)
H26 H 0.7131 0.2185 0.2227
C24 C 0.5496(5) 0.2910(4) 0.1901(4)
C25 C 0.4548(6) 0.1940(4) 0.2375(4)
H27 H 0.4484 0.1792 0.3119
H28 H 0.3645 0.2169 0.2353
C26 C 0.5096(5) 0.0848(3) 0.1733(3)
N1A N 1.1930(4) 1.0235(3) -0.9486(3)
N2A N 0.9553(4) 1.0062(4) -0.5925(3)
C2A C 1.1511(5) 0.9293(4) -0.9815(4)
H2A H 1.2017 0.8987 -1.0479
C3A C 1.0354(6) 0.8763(5) -0.9203(5)
H3A H 1.0100 0.8101 -0.9446
C4A C 0.9584(5) 0.9221(5) -0.8233(4)
H4A H 0.8791 0.8884 -0.7820
C5A C 0.9996(5) 1.0188(4) -0.7874(4)
C6A C 1.1180(5) 1.0667(4) -0.8547(4)
H5A H 1.1457 1.1328 -0.8321
C7A C 0.9238(5) 1.0717(5) -0.6806(4)
H6A H 0.8268 1.0728 -0.6682
H7A H 0.9479 1.1513 -0.6813
C8A C 1.0993(5) 1.0056(5) -0.6032(4)
H8A H 1.1537 0.9684 -0.6696
H9A H 1.1254 1.0849 -0.6064
C9A C 0.8735(5) 1.0584(5) -0.4904(4)
H10A H 0.8945 1.1389 -0.4908
H11A H 0.7779 1.0569 -0.4821
N3A N 0.5685(4) 0.2123(3) 0.8412(3)
N4A N 0.5778(8) 0.4194(6) 0.5419(4)
C1A C 0.7541(6) 0.3319(6) 0.8115(5)
H1A H 0.8155 0.3639 0.8380
C10A C 0.6570(5) 0.2628(4) 0.8760(4)
H12A H 0.6525 0.2503 0.9472
C11A C 0.7590(5) 0.3533(5) 0.7056(5)
H13A H 0.8230 0.4010 0.6608
C12A C 0.6683(5) 0.3032(4) 0.6678(4)
C13A C 0.5740(5) 0.2329(4) 0.7394(3)
H14A H 0.5121 0.1988 0.7150
C14A C 0.6671(6) 0.3211(5) 0.5538(4)
H15A H 0.6383 0.2514 0.5315
H16A H 0.7588 0.3330 0.5067
C15A C 0.4543(10) 0.4373(8) 0.5993(7)
H17A H 0.4044 0.3733 0.5898
H18A H 0.4493 0.4359 0.6741
C16A C 0.6172(12) 0.4501(11) 0.4229(7)
H19A H 0.5951 0.3876 0.3860
H20A H 0.7148 0.4569 0.3941
Cd1A Cd 0.38733(3) 0.11322(2) -0.04891(2)
O1A O 0.5115(4) 0.9248(3) -0.0850(3)
O2A O 0.4205(4) 0.9908(3) -0.2048(3)
O3A O 0.2795(4) 0.2900(3) 0.0359(3)
O4A O 0.2574(4) 0.2602(3) -0.1211(3)
C17A C 0.2404(4) 0.3230(4) -0.0407(4)
C18A C 0.1729(5) 0.4434(4) -0.0405(6)
H21A H 0.1057 0.4418 -0.0764
H22A H 0.1256 0.4659 0.0332
C19A C 0.2729(4) 0.5343(4) -0.0957(4)
C20A C 0.4068(5) 0.5255(4) -0.0974(5)
H23A H 0.4382 0.4602 -0.0667
C21A C 0.2311(5) 0.6322(4) -0.1441(5)
H24A H 0.1422 0.6402 -0.1452
C22A C 0.4944(5) 0.6110(4) -0.1434(4)
H25A H 0.5835 0.6029 -0.1431
C23A C 0.3177(6) 0.7171(4) -0.1904(4)
H26A H 0.2869 0.7815 -0.2227
C24A C 0.4504(5) 0.7090(4) -0.1901(4)
C25A C 0.5452(6) 0.8060(4) -0.2375(4)
H27A H 0.5516 0.8208 -0.3119
H28A H 0.6355 0.7831 -0.2353
C26A C 0.4904(5) 0.9152(3) -0.1733(3)
Cd1_2 Cd 0.61267(3) -0.11322(2) 0.04891(2)
Cd1A_2 Cd 0.38733(3) 0.11322(2) 0.95109(2)
Cd1A_3 Cd 0.38733(3) 1.11322(2) -0.04891(2)
Cd1A_4 Cd 1.38733(3) 1.11322(2) -1.04891(2)
O1_2 O 0.4885(4) 1.0752(3) 0.0850(3)
O1A_2 O 0.5115(4) -0.0752(3) -0.0850(3)
O2_2 O 0.5795(4) 1.0092(3) 0.2048(3)
O2A_2 O 0.4205(4) -0.0092(3) -0.2048(3)
N1A_2 N 0.1930(4) 0.0235(3) 0.0514(3)
N3A_2 N 0.5685(4) 0.2123(3) -0.1588(3)
O5 O 0.1870(12) 0.2032(9) 0.5702(8)
O6 O 0.4163(10) 0.0584(10) 0.5872(6)
O7 O 0.2221(16) 0.3931(11) 0.4237(11)
O8 O 0.8886(13) 0.6271(12) 0.2587(9)
C27? C 0.4251(14) 0.4807(11) 0.4287(10)
H29? H 0.4286 0.4837 0.3543
H30? H 0.3407 0.4474 0.4707
C28? C 0.4549(16) 0.6020(10) 0.5620(8)
H31? H 0.4779 0.6819 0.5618
H32? H 0.3749 0.5902 0.6240
loop_
_geom_bond_atom_site_label_1
_geom_bond_atom_site_label_2
_geom_bond_site_symmetry_1
_geom_bond_site_symmetry_2
Cd1 O3 1_555 1_555
O1 C26 1_555 1_555
O2 C26 1_555 1_555
O3 C17 1_555 1_555
O4 Cd1 1_555 1_555
N1 Cd1 1_555 1_555
N2 C7 1_555 1_555
N3 Cd1 1_555 1_555
N4 C14 1_555 1_555
C1 H1 1_555 1_555
C2 N1 1_555 1_555
H2 C2 1_555 1_555
C3 C2 1_555 1_555
H3 C3 1_555 1_555
C4 C3 1_555 1_555
H4 C4 1_555 1_555
C5 C4 1_555 1_555
C6 N1 1_555 1_555
H5 C6 1_555 1_555
C7 C5 1_555 1_555
H6 C7 1_555 1_555
H7 C7 1_555 1_555
C8 N2 1_555 1_555
H8 C8 1_555 1_555
H9 C8 1_555 1_555
C9 N2 1_555 1_555
H10 C9 1_555 1_555
H11 C9 1_555 1_555
C10 N3 1_555 1_555
H12 C10 1_555 1_555
C11 C1 1_555 1_555
H13 C11 1_555 1_555
C12 C11 1_555 1_555
C13 N3 1_555 1_555
H14 C13 1_555 1_555
C14 C12 1_555 1_555
H15 C14 1_555 1_555
H16 C14 1_555 1_555
C15 N4 1_555 1_555
H17 C15 1_555 1_555
H18 C15 1_555 1_555
C16 N4 1_555 1_555
H19 C16 1_555 1_555
H20 C16 1_555 1_555
C17 O4 1_555 1_555
C18 C17 1_555 1_555
H21 C18 1_555 1_555
H22 C18 1_555 1_555
C19 C18 1_555 1_555
C20 C19 1_555 1_555
H23 C20 1_555 1_555
C21 C19 1_555 1_555
H24 C21 1_555 1_555
C22 C20 1_555 1_555
H25 C22 1_555 1_555
C23 C21 1_555 1_555
H26 C23 1_555 1_555
C24 C22 1_555 1_555
C25 C24 1_555 1_555
H27 C25 1_555 1_555
H28 C25 1_555 1_555
C26 C25 1_555 1_555
N1A C2A 1_555 1_555
N2A C7A 1_555 1_555
C2A H2A 1_555 1_555
C3A C2A 1_555 1_555
H3A C3A 1_555 1_555
C4A C3A 1_555 1_555
H4A C4A 1_555 1_555
C5A C4A 1_555 1_555
C6A N1A 1_555 1_555
H5A C6A 1_555 1_555
C7A C5A 1_555 1_555
H6A C7A 1_555 1_555
H7A C7A 1_555 1_555
C8A C9 1_555 1_555
H8A C8A 1_555 1_555
H9A C8A 1_555 1_555
C9A C8 1_555 1_555
H10A C9A 1_555 1_555
H11A C9A 1_555 1_555
N3A C10A 1_555 1_555
N4A C14A 1_555 1_555
C1A H1A 1_555 1_555
C10A C1A 1_555 1_555
H12A C10A 1_555 1_555
C11A C1A 1_555 1_555
H13A C11A 1_555 1_555
C12A C11A 1_555 1_555
C13A N3A 1_555 1_555
H14A C13A 1_555 1_555
C14A C12A 1_555 1_555
H15A C14A 1_555 1_555
H16A C14A 1_555 1_555
C15A C16 1_555 1_555
H17A C15A 1_555 1_555
H18A C15A 1_555 1_555
C16A C15 1_555 1_555
H19A C16A 1_555 1_555
H20A C16A 1_555 1_555
Cd1A O1 1_555 1_555
O1A Cd1 1_555 1_555
O2A C26A 1_555 1_555
O3A Cd1A 1_555 1_555
O4A Cd1A 1_555 1_555
C17A O3A 1_555 1_555
C18A C17A 1_555 1_555
H21A C18A 1_555 1_555
H22A C18A 1_555 1_555
C19A C18A 1_555 1_555
C20A C19A 1_555 1_555
H23A C20A 1_555 1_555
C21A C19A 1_555 1_555
H24A C21A 1_555 1_555
C22A C20A 1_555 1_555
H25A C22A 1_555 1_555
C23A C21A 1_555 1_555
H26A C23A 1_555 1_555
C24A C22A 1_555 1_555
C25A C24A 1_555 1_555
H27A C25A 1_555 1_555
H28A C25A 1_555 1_555
C26A O1A 1_555 1_555
Cd1_2 O1 1_555 1_555
Cd1A_2 N3A 1_555 1_555
Cd1A_3 O1A 1_555 1_555
Cd1A_4 N1A 1_555 1_555
O1_2 Cd1 1_555 1_555
O1A_2 Cd1A 1_555 1_555
O2_2 Cd1 1_555 1_555
O2A_2 Cd1A 1_555 1_555
N1A_2 Cd1A 1_555 1_555
N3A_2 Cd1A 1_555 1_555
O2 Cd1_2 1_555 1_555
C1 C10 1_555 1_555
C5 C6 1_555 1_555
C12 C13 1_555 1_555
C23 C24 1_555 1_555
N2A C8A 1_555 1_555
N2A C9A 1_555 1_555
C5A C6A 1_555 1_555
N4A C15A 1_555 1_555
N4A C16A 1_555 1_555
C12A C13A 1_555 1_555
O2A Cd1A_3 1_555 1_555
O4A C17A 1_555 1_555
C23A C24A 1_555 1_555
C25A C26A 1_555 1_555
Cd1_2 O1A_2 1_555 1_555
Cd1A_3 O1_2 1_555 1_555

#END
