
#######################################################################
#
#                 Cambridge Crystallographic Data Centre
#                                CCDC 
#
#######################################################################
#
# If this CIF has been generated from an entry in the Cambridge 
# Structural Database, then it will include bibliographic, chemical, 
# crystal, experimental, refinement or atomic coordinate data resulting 
# from the CCDC's data processing and validation procedures.
#
#######################################################################

data_TUYKUU
_symmetry_cell_setting           triclinic
_symmetry_space_group_name_H-M   'P -1'
_symmetry_Int_Tables_number      2
_space_group_name_Hall           '-P 1'
loop_
_symmetry_equiv_pos_site_id
_symmetry_equiv_pos_as_xyz
1 x,y,z
2 -x,-y,-z
_cell_length_a                   9.7800(18)
_cell_length_b                   10.5058(18)
_cell_length_c                   11.1899(19)
_cell_angle_alpha                95.450(18)
_cell_angle_beta                 92.327(12)
_cell_angle_gamma                107.404(9)
_cell_volume                     1089.25
loop_
_atom_site_label
_atom_site_type_symbol
_atom_site_fract_x
_atom_site_fract_y
_atom_site_fract_z
Ho1 Ho 0.17872(4) 0.38648(4) 0.05458(3)
O1 O 0.1785(6) 0.1596(6) 0.0078(5)
O2 O 0.2422(7) 0.2953(6) 0.2247(5)
C1 C 0.2118(9) 0.0980(10) 0.0904(8)
C2 C 0.2528(9) 0.1781(9) 0.2145(8)
O3 O 0.2185(6) -0.0187(6) 0.0802(5)
O4 O 0.2940(6) 0.1209(6) 0.2967(5)
Ho2 Ho 0.37559(4) -0.06312(4) 0.23904(3)
O5 O 0.2000(6) -0.2478(6) 0.2155(5)
O6 O 0.3253(6) -0.0846(6) 0.4417(5)
O7 O 0.5045(7) -0.2180(6) 0.2854(5)
O8 O 0.5786(6) 0.0568(6) 0.3701(5)
O9 O 0.5225(6) 0.1063(6) 0.1339(5)
O10 O 0.4305(6) -0.1563(6) 0.0520(5)
P1 P 0.0622(2) -0.3618(2) 0.21012(18)
C3 C 0.4268(8) -0.0428(8) 0.5211(7)
H1 H 0.5872 -0.1934 0.2584
H2 H 0.4581 -0.2961 0.2522
C4 C 0.5263(8) 0.0740(8) 0.0233(8)
C5 C -0.0058(9) -0.3416(10) 0.3553(8)
O11 O 0.0851(6) -0.4977(6) 0.1907(5)
O12 O -0.0528(6) -0.3494(6) 0.1216(5)
C6 C -0.1423(9) -0.4373(9) 0.3877(8)
H3 H -0.0174 -0.2527 0.3652
H4 H 0.0689 -0.3415 0.4150
N1 N -0.2395(8) -0.5075(9) 0.2985(7)
C7 C -0.1800(11) -0.4584(10) 0.5023(9)
O13 O 0.3582(6) -0.6166(6) -0.0858(5)
O14 O -0.0607(6) -0.7594(6) 0.0918(5)
O15 O 0.4148(6) -0.4697(6) 0.1294(5)
O16 O 0.2336(6) -0.4006(6) -0.0358(5)
H5 H -0.1928 -0.5032 0.2203
C8 C -0.3661(11) -0.5963(12) 0.3187(9)
C9 C -0.3101(12) -0.5468(12) 0.5244(9)
H6 H -0.1164 -0.4118 0.5670
C10 C 0.4829(9) -0.5440(9) -0.0624(7)
H7 H -0.0483 -0.7997 0.1518
H8 H -0.1176 -0.8225 0.0358
H9 H 0.3139 -0.3391 -0.0010
H10 H 0.1589 -0.3713 -0.0552
H11 H -0.4284 -0.6450 0.2540
C11 C -0.4021(11) -0.6145(11) 0.4315(9)
H12 H -0.3337 -0.5592 0.6031
H13 H -0.4904 -0.6738 0.4452
C3A C 0.5732(8) 0.0428(8) 0.4789(7)
C4A C 0.4737(8) -0.0740(8) -0.0233(8)
O8A O 0.4214(6) -0.0568(6) 0.6299(5)
O6A O 0.6747(6) 0.0846(6) 0.5583(5)
O10A O 0.5695(6) 0.1563(6) -0.0520(5)
O9A O 0.4775(6) -0.1063(6) -0.1339(5)
O1A O -0.1785(6) -0.1596(6) -0.0078(5)
O2A O -0.2422(7) -0.2953(6) -0.2247(5)
Ho1_2 Ho 0.17872(4) -0.61352(4) 0.05458(3)
Ho1A Ho -0.17872(4) -0.38648(4) -0.05458(3)
Ho2A Ho 0.62441(4) 0.06312(4) 0.76096(3)
Ho2A_2 Ho 0.62441(4) 0.06312(4) -0.23904(3)
O2_2 O 0.2422(7) -0.7047(6) 0.2247(5)
O12A O 0.0528(6) -0.6506(6) -0.1216(5)
O1_2 O 0.1785(6) -0.8404(6) 0.0078(5)
O16A O -0.2336(6) -0.5994(6) 0.0358(5)
O14A O 0.0607(6) -0.2406(6) -0.0918(5)
O11A O -0.0851(6) -0.5023(6) -0.1907(5)
O13A O -0.3582(6) -0.3834(6) 0.0858(5)
O15A O -0.4148(6) -0.5303(6) -0.1294(5)
C10A C 0.5171(9) -0.4560(9) 0.0624(7)
C2_2 C 0.2528(9) -0.8219(9) 0.2145(8)
P1A P -0.0622(2) -0.6382(2) -0.21012(18)
C1_2 C 0.2118(9) -0.9020(10) 0.0904(8)
H9A H -0.3139 -0.6609 0.0010
H10A H -0.1589 -0.6287 0.0552
H8A H 0.1176 -0.1775 -0.0358
H7A H 0.0483 -0.2003 -0.1518
O15A_2 O 0.5852(6) -0.5303(6) -0.1294(5)
O13A_2 O 0.6418(6) -0.3834(6) 0.0858(5)
O4_2 O 0.2940(6) -0.8791(6) 0.2967(5)
O5A O -0.2000(6) -0.7522(6) -0.2155(5)
C5A C 0.0058(9) -0.6584(10) -0.3553(8)
O3_2 O 0.2185(6) -1.0187(6) 0.0802(5)
Ho1A_2 Ho 0.82128(4) -0.38648(4) -0.05458(3)
Ho2_2 Ho 0.37559(4) -1.06312(4) 0.23904(3)
Ho2A_3 Ho -0.37559(4) -0.93688(4) -0.23904(3)
C6A C 0.1423(9) -0.5627(9) -0.3877(8)
H3A H 0.0174 -0.7473 -0.3652
H4A H -0.0689 -0.6585 -0.4150
O9A_2 O -0.5225(6) -1.1063(6) -0.1339(5)
O7A O -0.5045(7) -0.7820(6) -0.2854(5)
O3A O -0.2185(6) -0.9813(6) -0.0802(5)
O6A_2 O -0.3253(6) -0.9154(6) -0.4417(5)
O10A_2 O -0.4305(6) -0.8437(6) -0.0520(5)
O4A O -0.2940(6) -1.1209(6) -0.2967(5)
O8A_2 O -0.5786(6) -1.0568(6) -0.3701(5)
C7A C 0.1800(11) -0.5416(10) -0.5023(9)
N1A N 0.2395(8) -0.4925(9) -0.2985(7)
H1A H -0.5872 -0.8066 -0.2584
H2A H -0.4581 -0.7039 -0.2522
H6A H 0.1164 -0.5882 -0.5670
C9A C 0.3101(12) -0.4532(12) -0.5244(9)
H5A H 0.1928 -0.4968 -0.2203
C8A C 0.3661(11) -0.4037(12) -0.3187(9)
C11A C 0.4021(11) -0.3855(11) -0.4315(9)
H12A H 0.3337 -0.4408 -0.6031
H11A H 0.4284 -0.3550 -0.2540
H13A H 0.4904 -0.3262 -0.4452
O17 O 0.7987(9) 0.8738(10) 0.2570(7)
H14 H 0.8123 0.8888 0.1845
H15 H 0.8363 0.9460 0.3034
O18 O 0.8680(9) 0.1765(10) 0.3139(8)
H16 H 0.8200 0.2256 0.3439
H17 H 0.9460 0.1901 0.3566
O19 O 0.0825(13) 0.1165(12) 0.4643(11)
H18 H 0.0964 0.0404 0.4521
H19 H 0.1420 0.1520 0.4168
loop_
_geom_bond_atom_site_label_1
_geom_bond_atom_site_label_2
_geom_bond_site_symmetry_1
_geom_bond_site_symmetry_2
Ho1 O1 1_555 1_555
O1 C1 1_555 1_555
O2 Ho1 1_555 1_555
C1 C2 1_555 1_555
C2 O2 1_555 1_555
O3 C1 1_555 1_555
O4 C2 1_555 1_555
Ho2 O3 1_555 1_555
O5 Ho2 1_555 1_555
O6 Ho2 1_555 1_555
O7 Ho2 1_555 1_555
O8 Ho2 1_555 1_555
O9 Ho2 1_555 1_555
O10 Ho2 1_555 1_555
P1 O5 1_555 1_555
C3 O6 1_555 1_555
H1 O7 1_555 1_555
H2 O7 1_555 1_555
C4 O9 1_555 1_555
C5 P1 1_555 1_555
O11 P1 1_555 1_555
O12 P1 1_555 1_555
C6 C5 1_555 1_555
H3 C5 1_555 1_555
H4 C5 1_555 1_555
N1 C6 1_555 1_555
C7 C6 1_555 1_555
O13 C10 1_555 1_555
O14 H7 1_555 1_555
O15 Ho1_2 1_555 1_555
O16 H9 1_555 1_555
H5 N1 1_555 1_555
C8 N1 1_555 1_555
C9 C7 1_555 1_555
H6 C7 1_555 1_555
C10 C10A 1_555 1_555
H8 O14 1_555 1_555
H10 O16 1_555 1_555
H11 C8 1_555 1_555
C11 C8 1_555 1_555
H12 C9 1_555 1_555
H13 C11 1_555 1_555
O17 H14 1_555 1_555
H15 O17 1_555 1_555
O18 H16 1_555 1_555
H17 O18 1_555 1_555
O19 H18 1_555 1_555
H19 O19 1_555 1_555
C3A O8 1_555 1_555
C4A O10 1_555 1_555
O8A C3 1_555 1_555
O6A C3A 1_555 1_555
O10A C4 1_555 1_555
O9A C4A 1_555 1_555
O1A Ho1A 1_555 1_555
O2A Ho1A 1_555 1_555
Ho1_2 O11 1_555 1_555
Ho1A O12 1_555 1_555
Ho2A O8A 1_555 1_555
Ho2A_2 O10A 1_555 1_555
O2_2 Ho1_2 1_555 1_555
O12A Ho1_2 1_555 1_555
O1_2 Ho1_2 1_555 1_555
O16A Ho1A 1_555 1_555
O14A Ho1A 1_555 1_555
O11A Ho1A 1_555 1_555
O13A Ho1A 1_555 1_555
O15A Ho1A 1_555 1_555
C10A O15 1_555 1_555
C2_2 O2_2 1_555 1_555
P1A O12A 1_555 1_555
C1_2 O1_2 1_555 1_555
H9A O16A 1_555 1_555
H10A O16A 1_555 1_555
H8A O14A 1_555 1_555
H7A O14A 1_555 1_555
O15A_2 C10 1_555 1_555
O13A_2 C10A 1_555 1_555
O4_2 C2_2 1_555 1_555
O5A P1A 1_555 1_555
C5A P1A 1_555 1_555
O3_2 C1_2 1_555 1_555
Ho1A_2 O15A_2 1_555 1_555
Ho2_2 O4_2 1_555 1_555
Ho2A_3 O5A 1_555 1_555
C6A C5A 1_555 1_555
H3A C5A 1_555 1_555
H4A C5A 1_555 1_555
O9A_2 Ho2A_3 1_555 1_555
O7A Ho2A_3 1_555 1_555
O3A Ho2A_3 1_555 1_555
O6A_2 Ho2A_3 1_555 1_555
O10A_2 Ho2A_3 1_555 1_555
O4A Ho2A_3 1_555 1_555
O8A_2 Ho2A_3 1_555 1_555
C7A C6A 1_555 1_555
N1A C6A 1_555 1_555
H1A O7A 1_555 1_555
H2A O7A 1_555 1_555
H6A C7A 1_555 1_555
C9A C7A 1_555 1_555
H5A N1A 1_555 1_555
C8A N1A 1_555 1_555
C11A C9A 1_555 1_555
H12A C9A 1_555 1_555
H11A C8A 1_555 1_555
H13A C11A 1_555 1_555
O4 Ho2 1_555 1_555
C3 C3A 1_555 1_555
C4 C4A 1_555 1_555
O13 Ho1_2 1_555 1_555
O14 Ho1_2 1_555 1_555
O16 Ho1_2 1_555 1_555
C9 C11 1_555 1_555
O6A Ho2A 1_555 1_555
O9A Ho2A_2 1_555 1_555
O11A P1A 1_555 1_555
C2_2 C1_2 1_555 1_555
O13A_2 Ho1A_2 1_555 1_555
O3_2 Ho2_2 1_555 1_555
C8A C11A 1_555 1_555

#END
