
#######################################################################
#
#                 Cambridge Crystallographic Data Centre
#                                CCDC 
#
#######################################################################
#
# If this CIF has been generated from an entry in the Cambridge 
# Structural Database, then it will include bibliographic, chemical, 
# crystal, experimental, refinement or atomic coordinate data resulting 
# from the CCDC's data processing and validation procedures.
#
#######################################################################

data_TUYKOO
_symmetry_cell_setting           monoclinic
_symmetry_space_group_name_H-M   'P 21/c'
_symmetry_Int_Tables_number      14
_space_group_name_Hall           '-P 2ybc'
loop_
_symmetry_equiv_pos_site_id
_symmetry_equiv_pos_as_xyz
1 x,y,z
2 -x,1/2+y,1/2-z
3 -x,-y,-z
4 x,1/2-y,1/2+z
_cell_length_a                   11.498(2)
_cell_length_b                   10.564(2)
_cell_length_c                   36.382(7)
_cell_angle_alpha                90
_cell_angle_beta                 93.012(4)
_cell_angle_gamma                90
_cell_volume                     4413.03
loop_
_atom_site_label
_atom_site_type_symbol
_atom_site_fract_x
_atom_site_fract_y
_atom_site_fract_z
Gd1 Gd 0.88053(3) -0.16227(4) 0.710025(11)
Gd2 Gd 0.68564(3) -0.63604(3) 0.670680(9)
Gd3 Gd 0.82288(3) -0.29551(4) 0.391220(10)
Gd4 Gd 1.01628(3) -0.18274(3) 0.545250(10)
P1 P 0.69308(19) -0.4033(2) 0.74417(6)
P2 P 0.81086(19) -0.0945(2) 0.47257(6)
O1 O 0.7262(4) -0.2904(5) 0.72133(13)
O2 O 0.6942(5) -0.5247(5) 0.72238(15)
O3 O 0.7641(5) -0.4113(5) 0.77979(15)
O4 O 0.8193(5) -0.1465(5) 0.43446(14)
O5 O 0.8685(5) -0.1819(5) 0.50261(14)
O6 O 0.8558(5) 0.0398(5) 0.47627(15)
O7 O 0.9920(5) -0.0733(5) 0.66298(14)
O8 O 0.8300(5) -0.2468(5) 0.64919(15)
O9 O 0.8791(5) -0.2549(5) 0.59015(14)
O10 O 1.0627(4) -0.1042(4) 0.60774(14)
O11 O 0.8803(5) 0.0559(5) 0.72976(13)
O12 O 0.7036(5) -0.0486(5) 0.69021(14)
O13 O 0.6301(5) 0.1430(5) 0.67755(15)
O14 O 0.8161(5) 0.2462(5) 0.71220(14)
O15 O 0.4855(4) -0.6261(5) 0.68377(14)
O16 O 0.5610(5) -0.6716(5) 0.61704(14)
O17 O 0.3790(5) -0.7150(5) 0.59602(14)
O18 O 0.3006(5) -0.6528(5) 0.66141(14)
O19 O 1.0523(4) -0.5984(5) 0.56249(13)
O20 O 1.2382(5) -0.4877(5) 0.59532(13)
O21 O 1.1844(4) -0.3033(5) 0.56969(13)
O22 O 0.9866(5) -0.4118(5) 0.54238(13)
O23 O 1.0601(4) -0.5875(5) 0.64953(13)
O24 O 0.9804(4) -0.7914(5) 0.61122(14)
O25 O 0.8028(5) -0.7489(5) 0.62868(15)
O26 O 0.8803(5) -0.5469(5) 0.66575(14)
O27 O 0.8007(5) -0.1075(5) 0.35374(14)
H1 H 0.7866 -0.1182 0.3294
H2 H 0.8278 -0.0322 0.3620
O28 O 0.6586(5) -0.4367(5) 0.64038(15)
H3 H 0.7150 -0.3776 0.6424
H4 H 0.6015 -0.4280 0.6227
O29 O 0.8790(5) -0.1866(6) 0.77580(16)
H5 H 0.8589 -0.1117 0.7855
H6 H 0.8460 -0.2578 0.7839
O30 O 0.9812(4) -0.3585(5) 0.71011(13)
H7 H 0.9318 -0.4142 0.6989
H8 H 1.0334 -0.3868 0.7275
O31 O 1.0731(4) -0.1101(4) 0.73422(13)
H9 H 1.1182 -0.0501 0.7247
H10 H 1.1026 -0.1568 0.7532
O32 O 0.9161(4) 0.0207(5) 0.55624(15)
H11 H 0.9486 0.0738 0.5732
H12 H 0.8786 0.0538 0.5361
O33 O 1.0976(4) -0.2655(4) 0.48648(14)
H13 H 1.1500 -0.3172 0.4942
H14 H 1.0652 -0.3035 0.4661
N1 N 0.4953(5) -0.2310(6) 0.70362(17)
H15 H 0.5670 -0.1983 0.7079
N2 N 0.6442(5) 0.0655(6) 0.53122(17)
H16 H 0.6508 0.1248 0.5137
C1 C 0.5458(7) -0.3708(8) 0.7543(2)
H17 H 0.5145 -0.4462 0.7653
H18 H 0.5469 -0.3048 0.7728
C2 C 0.4633(6) -0.3311(6) 0.7237(2)
C3 C 0.3604(6) -0.3870(8) 0.7142(2)
H19 H 0.3382 -0.4598 0.7265
C4 C 0.2867(7) -0.3357(8) 0.6860(2)
H20 H 0.2160 -0.3744 0.6793
C5 C 0.3186(8) -0.2329(9) 0.6691(3)
H21 H 0.2674 -0.1955 0.6517
C6 C 0.4275(9) -0.1783(9) 0.6767(2)
H22 H 0.4522 -0.1084 0.6636
C7 C 0.6576(6) -0.0878(7) 0.48152(18)
H23 H 0.6214 -0.1684 0.4752
H24 H 0.6200 -0.0230 0.4662
C8 C 0.6406(6) -0.0592(7) 0.5205(2)
C9 C 0.6242(7) -0.1457(7) 0.54744(19)
H25 H 0.6175 -0.2311 0.5415
C10 C 0.6176(7) -0.1072(8) 0.5840(2)
H26 H 0.6086 -0.1666 0.6025
C11 C 0.6243(7) 0.0176(8) 0.5921(2)
H27 H 0.6192 0.0439 0.6164
C12 C 0.6383(7) 0.1044(8) 0.5657(2)
H28 H 0.6438 0.1900 0.5715
C13 C 0.9908(6) -0.1221(6) 0.6319(2)
C14 C 0.8894(7) -0.2178(8) 0.62261(19)
C15 C 0.8095(7) 0.1301(8) 0.7127(2)
C16 C 0.7053(6) 0.0686(7) 0.69107(19)
C17 C 0.4082(6) -0.6506(6) 0.65949(19)
C18 C 0.4546(6) -0.6853(6) 0.62028(19)
C19 C 0.9532(6) -0.6090(7) 0.64930(19)
C20 C 0.9069(6) -0.7265(6) 0.62730(18)
C21 C 1.0603(6) -0.4809(7) 0.55876(19)
C22 C 1.1701(6) -0.4163(6) 0.57610(19)
Gd2_2 Gd 0.68564(3) 0.36396(3) 0.670680(9)
Gd3B Gd 0.17712(3) -0.70449(4) 0.608780(10)
Gd3B_2 Gd 1.17712(3) -0.70449(4) 0.608780(10)
Gd4B Gd 0.98372(3) 0.18274(3) 0.454750(10)
O6B O 1.1442(5) -0.0398(5) 0.52373(15)
O13_2 O 0.6301(5) -0.8570(5) 0.67755(15)
O14_2 O 0.8161(5) -0.7538(5) 0.71220(14)
O17B O 0.6210(5) -0.2850(5) 0.40398(14)
O18B O 0.6994(5) -0.3472(5) 0.33859(14)
O19B O 0.9477(4) -0.4016(5) 0.43751(13)
O20B O 0.7618(5) -0.5123(5) 0.40468(13)
O23B O 0.9399(4) -0.4125(5) 0.35047(13)
O24B O 1.0196(4) -0.2086(5) 0.38878(14)
O34 O 0.3550(5) 0.7206(5) 0.50929(16)
H29 H 0.3222 0.6844 0.5269
H30 H 0.4137 0.6728 0.4982
O35 O 0.7378(5) 0.5710(5) 0.49597(16)
H31 H 0.7561 0.5516 0.5182
H32 H 0.7938 0.6088 0.4854
O36 O 0.4687(5) 0.6195(6) 0.59114(17)
H33 H 0.5270 0.6019 0.6056
H34 H 0.4222 0.5569 0.5901
O37 O 0.7610(10) 0.4781(11) 0.5653(3)
H35 H 0.6976 0.4964 0.5750
H36 H 0.8172 0.5090 0.5785
O38 O 0.3418(9) 0.9193(12) 0.5954(3)
H37 H 0.3944 0.8634 0.5937
H38 H 0.2891 0.8671 0.5883
O39 O 0.5163(5) 0.5923(6) 0.46748(15)
H39 H 0.5888 0.5830 0.4648
H40 H 0.4784 0.5670 0.4482
loop_
_geom_bond_atom_site_label_1
_geom_bond_atom_site_label_2
_geom_bond_site_symmetry_1
_geom_bond_site_symmetry_2
Gd1 O1 1_555 1_555
Gd2 O2 1_555 1_555
Gd3 O4 1_555 1_555
Gd4 O5 1_555 1_555
P1 O1 1_555 1_555
P2 O4 1_555 1_555
O2 P1 1_555 1_555
O3 P1 1_555 1_555
O5 P2 1_555 1_555
O6 P2 1_555 1_555
O7 Gd1 1_555 1_555
O8 Gd1 1_555 1_555
O9 Gd4 1_555 1_555
O10 Gd4 1_555 1_555
O11 Gd1 1_555 1_555
O12 Gd1 1_555 1_555
O13 C16 1_555 1_555
O14 C15 1_555 1_555
O15 Gd2 1_555 1_555
O16 Gd2 1_555 1_555
O17 C18 1_555 1_555
O18 C17 1_555 1_555
O19 C21 1_555 1_555
O20 C22 1_555 1_555
O21 Gd4 1_555 1_555
O22 Gd4 1_555 1_555
O23 C19 1_555 1_555
O24 C20 1_555 1_555
O25 Gd2 1_555 1_555
O26 Gd2 1_555 1_555
O27 Gd3 1_555 1_555
H1 O27 1_555 1_555
H2 O27 1_555 1_555
O28 Gd2 1_555 1_555
H3 O28 1_555 1_555
H4 O28 1_555 1_555
O29 Gd1 1_555 1_555
H5 O29 1_555 1_555
H6 O29 1_555 1_555
O30 Gd1 1_555 1_555
H7 O30 1_555 1_555
H8 O30 1_555 1_555
O31 Gd1 1_555 1_555
H9 O31 1_555 1_555
H10 O31 1_555 1_555
O32 Gd4 1_555 1_555
H11 O32 1_555 1_555
H12 O32 1_555 1_555
O33 Gd4 1_555 1_555
H13 O33 1_555 1_555
H14 O33 1_555 1_555
N1 H15 1_555 1_555
N2 H16 1_555 1_555
C1 P1 1_555 1_555
H17 C1 1_555 1_555
H18 C1 1_555 1_555
C2 N1 1_555 1_555
C3 C2 1_555 1_555
H19 C3 1_555 1_555
C4 C3 1_555 1_555
H20 C4 1_555 1_555
C5 C4 1_555 1_555
H21 C5 1_555 1_555
C6 N1 1_555 1_555
H22 C6 1_555 1_555
C7 P2 1_555 1_555
H23 C7 1_555 1_555
H24 C7 1_555 1_555
C8 N2 1_555 1_555
C9 C8 1_555 1_555
H25 C9 1_555 1_555
C10 C9 1_555 1_555
H26 C10 1_555 1_555
C11 C10 1_555 1_555
H27 C11 1_555 1_555
C12 N2 1_555 1_555
H28 C12 1_555 1_555
C13 O7 1_555 1_555
C14 O8 1_555 1_555
C15 O11 1_555 1_555
C16 O12 1_555 1_555
C17 O15 1_555 1_555
C18 O16 1_555 1_555
C19 O26 1_555 1_555
C20 O25 1_555 1_555
C21 O22 1_555 1_555
C22 O21 1_555 1_555
O34 H29 1_555 1_555
H30 O34 1_555 1_555
O35 H31 1_555 1_555
H32 O35 1_555 1_555
O36 H33 1_555 1_555
H34 O36 1_555 1_555
O37 H35 1_555 1_555
H36 O37 1_555 1_555
O38 H37 1_555 1_555
H38 O38 1_555 1_555
O39 H39 1_555 1_555
H40 O39 1_555 1_555
Gd2_2 O13 1_555 1_555
Gd3B O17 1_555 1_555
Gd3B_2 O19 1_555 1_555
Gd4B O6 1_555 1_555
O6B Gd4 1_555 1_555
O13_2 Gd2 1_555 1_555
O14_2 Gd2 1_555 1_555
O17B Gd3 1_555 1_555
O18B Gd3 1_555 1_555
O19B Gd3 1_555 1_555
O20B Gd3 1_555 1_555
O23B Gd3 1_555 1_555
O24B Gd3 1_555 1_555
O9 C14 1_555 1_555
O10 C13 1_555 1_555
O14 Gd2_2 1_555 1_555
O18 Gd3B 1_555 1_555
O20 Gd3B_2 1_555 1_555
O23 Gd3B_2 1_555 1_555
O24 Gd3B_2 1_555 1_555
C1 C2 1_555 1_555
C5 C6 1_555 1_555
C7 C8 1_555 1_555
C11 C12 1_555 1_555
C13 C14 1_555 1_555
C15 C16 1_555 1_555
C17 C18 1_555 1_555
C19 C20 1_555 1_555
C21 C22 1_555 1_555

#END
