
#######################################################################
#
#                 Cambridge Crystallographic Data Centre
#                                CCDC 
#
#######################################################################
#
# If this CIF has been generated from an entry in the Cambridge 
# Structural Database, then it will include bibliographic, chemical, 
# crystal, experimental, refinement or atomic coordinate data resulting 
# from the CCDC's data processing and validation procedures.
#
#######################################################################

data_TUYKII
_symmetry_cell_setting           monoclinic
_symmetry_space_group_name_H-M   'P 21/c'
_symmetry_Int_Tables_number      14
_space_group_name_Hall           '-P 2ybc'
loop_
_symmetry_equiv_pos_site_id
_symmetry_equiv_pos_as_xyz
1 x,y,z
2 -x,1/2+y,1/2-z
3 -x,-y,-z
4 x,1/2-y,1/2+z
_cell_length_a                   11.4253(6)
_cell_length_b                   10.5386(6)
_cell_length_c                   36.209(2)
_cell_angle_alpha                90
_cell_angle_beta                 93.2348(8)
_cell_angle_gamma                90
_cell_volume                     4352.86
loop_
_atom_site_label
_atom_site_type_symbol
_atom_site_fract_x
_atom_site_fract_y
_atom_site_fract_z
Dy1 Dy -0.12056(4) -0.16014(4) -0.289980(11)
Dy2 Dy -0.31509(3) -0.63552(4) -0.329360(11)
Dy3 Dy -0.17579(3) -0.29821(4) -0.609010(11)
Dy4 Dy 0.01603(4) -0.18139(4) -0.454070(11)
P1 P -0.3072(2) -0.4017(2) -0.25645(6)
P2 P -0.18645(19) -0.0958(2) -0.52795(6)
O1 O -0.2738(5) -0.2874(6) -0.27960(16)
O2 O -0.3049(5) -0.5240(5) -0.27813(16)
O3 O -0.2356(5) -0.4104(6) -0.21994(16)
O4 O -0.1771(5) -0.1522(5) -0.56592(15)
O5 O -0.1305(5) -0.1797(5) -0.49751(15)
O6 O -0.1441(5) 0.0402(5) -0.52521(16)
O7 O -0.0101(6) -0.0677(6) -0.33635(16)
O8 O -0.1707(5) -0.2456(5) -0.35070(15)
O9 O -0.1216(5) -0.2522(6) -0.40962(16)
O10 O 0.0616(5) -0.0998(6) -0.39160(16)
O11 O -0.1209(5) 0.0562(5) -0.27070(17)
O12 O -0.2971(5) -0.0490(5) -0.31076(18)
O13 O -0.3714(5) 0.1451(5) -0.32279(16)
O14 O -0.1841(5) 0.2476(5) -0.28797(17)
O15 O -0.5155(5) -0.6245(6) -0.31582(15)
O16 O -0.4394(5) -0.6723(5) -0.38281(16)
O17 O -0.6221(5) -0.7132(6) -0.40413(16)
O18 O -0.7002(5) -0.6502(5) -0.33810(15)
O19 O 0.0509(5) -0.5985(5) -0.43679(16)
O20 O 0.2382(5) -0.4853(5) -0.40385(17)
O21 O 0.1813(5) -0.3004(5) -0.42847(17)
O22 O -0.0148(5) -0.4081(5) -0.45727(17)
O23 O 0.0601(5) -0.5856(5) -0.35012(16)
O24 O -0.0196(5) -0.7889(6) -0.38895(16)
O25 O -0.2017(5) -0.7478(6) -0.37133(17)
O26 O -0.1215(5) -0.5461(5) -0.33373(17)
O27 O -0.1988(5) -0.1114(6) -0.64584(17)
H1 H -0.2130 -0.1221 -0.6702
H2 H -0.1717 -0.0361 -0.6376
O28 O -0.3415(6) -0.4364(6) -0.35932(19)
H3 H -0.2851 -0.3773 -0.3573
H4 H -0.3986 -0.4277 -0.3770
O29 O -0.1238(6) -0.1833(7) -0.22487(18)
H5 H -0.1440 -0.1084 -0.2152
H6 H -0.1569 -0.2545 -0.2168
O30 O -0.0208(5) -0.3565(5) -0.28987(17)
H7 H -0.0702 -0.4123 -0.3010
H8 H 0.0314 -0.3848 -0.2725
O31 O 0.0715(5) -0.1103(6) -0.26569(17)
H9 H 0.1165 -0.0503 -0.2753
H10 H 0.1010 -0.1570 -0.2467
O32 O -0.0858(5) 0.0198(5) -0.44383(16)
H11 H -0.0534 0.0728 -0.4269
H12 H -0.1234 0.0529 -0.4639
O33 O 0.0999(5) -0.2641(6) -0.51204(16)
H13 H 0.1522 -0.3157 -0.5043
H14 H 0.0674 -0.3020 -0.5325
N1 N -0.5051(7) -0.2272(8) -0.2975(3)
H15 H -0.4334 -0.1944 -0.2932
N2 N -0.3551(6) 0.0651(7) -0.4696(2)
H16 H -0.3484 0.1244 -0.4871
C1 C -0.4586(8) -0.3718(9) -0.2468(3)
H17 H -0.4906 -0.4493 -0.2371
H18 H -0.4595 -0.3085 -0.2274
C2 C -0.5377(9) -0.3290(10) -0.2776(3)
C3 C -0.6468(9) -0.3827(11) -0.2879(3)
H19 H -0.6732 -0.4542 -0.2758
C4 C -0.7140(10) -0.3279(10) -0.3162(3)
H20 H -0.7856 -0.3646 -0.3234
C5 C -0.6801(10) -0.2230(12) -0.3337(3)
H21 H -0.7295 -0.1852 -0.3518
C6 C -0.5728(9) -0.1728(10) -0.3247(3)
H22 H -0.5465 -0.1020 -0.3372
C7 C -0.3402(7) -0.0895(9) -0.5190(3)
H23 H -0.3756 -0.1714 -0.5248
H24 H -0.3785 -0.0269 -0.5352
C8 C -0.3604(7) -0.0566(9) -0.4799(3)
C9 C -0.3731(9) -0.1455(10) -0.4530(3)
H25 H -0.3744 -0.2313 -0.4591
C10 C -0.3842(9) -0.1078(11) -0.4167(3)
H26 H -0.3965 -0.1682 -0.3986
C11 C -0.3772(9) 0.0181(11) -0.4074(3)
H27 H -0.3817 0.0441 -0.3830
C12 C -0.3632(9) 0.1047(11) -0.4351(3)
H28 H -0.3593 0.1909 -0.4297
C13 C -0.0111(8) -0.1180(8) -0.3679(3)
C14 C -0.1104(7) -0.2168(8) -0.3775(2)
C15 C -0.1908(8) 0.1299(8) -0.2873(2)
C16 C -0.2976(7) 0.0697(8) -0.3095(2)
C17 C -0.5916(7) -0.6488(7) -0.3409(2)
C18 C -0.5466(7) -0.6800(7) -0.3793(2)
C19 C -0.0479(8) -0.6080(8) -0.3507(2)
C20 C -0.0947(8) -0.7262(8) -0.3726(2)
C21 C 0.0577(8) -0.4800(8) -0.4406(2)
C22 C 0.1689(7) -0.4169(8) -0.4227(2)
Dy2_2 Dy -0.31509(3) 0.36448(4) -0.329360(11)
Dy3B Dy -0.82421(3) -0.70179(4) -0.390990(11)
Dy3B_2 Dy 0.17579(3) -0.70179(4) -0.390990(11)
Dy4B Dy -0.01603(4) 0.18139(4) -0.545930(11)
O6B O 0.1441(5) -0.0402(5) -0.47479(16)
O13_2 O -0.3714(5) -0.8549(5) -0.32279(16)
O14_2 O -0.1841(5) -0.7524(5) -0.28797(17)
O17B O -0.3779(5) -0.2868(6) -0.59587(16)
O18B O -0.2998(5) -0.3498(5) -0.66190(15)
O19B O -0.0509(5) -0.4015(5) -0.56321(16)
O20B O -0.2382(5) -0.5147(5) -0.59615(17)
O23B O -0.0601(5) -0.4144(5) -0.64988(16)
O24B O 0.0196(5) -0.2111(6) -0.61105(16)
O34 O -0.6446(7) 0.7186(8) -0.4896(3)
H29 H -0.6774 0.6823 -0.4721
H30 H -0.5859 0.6708 -0.5007
O35 O -0.2599(7) 0.5667(8) -0.5041(2)
H31 H -0.2417 0.5473 -0.4818
H32 H -0.2039 0.6045 -0.5147
O36 O -0.5330(6) 0.6201(7) -0.4087(2)
H33 H -0.4747 0.6025 -0.3942
H34 H -0.5795 0.5575 -0.4097
O37 O -0.2415(13) 0.4812(13) -0.4344(4)
H35 H -0.3049 0.4996 -0.4247
H36 H -0.1853 0.5122 -0.4212
O38 O -0.6540(16) 0.918(2) -0.4028(5)
H37 H -0.6014 0.8617 -0.4045
H38 H -0.7068 0.8655 -0.4099
O39 O -0.4823(8) 0.5920(9) -0.5325(2)
H39 H -0.4098 0.5827 -0.5352
H40 H -0.5202 0.5668 -0.5518
loop_
_geom_bond_atom_site_label_1
_geom_bond_atom_site_label_2
_geom_bond_site_symmetry_1
_geom_bond_site_symmetry_2
Dy1 O1 1_555 1_555
Dy2 O2 1_555 1_555
Dy3 O4 1_555 1_555
Dy4 O5 1_555 1_555
P1 O1 1_555 1_555
P2 O4 1_555 1_555
O2 P1 1_555 1_555
O3 P1 1_555 1_555
O5 P2 1_555 1_555
O6 P2 1_555 1_555
O7 Dy1 1_555 1_555
O8 Dy1 1_555 1_555
O9 Dy4 1_555 1_555
O10 Dy4 1_555 1_555
O11 Dy1 1_555 1_555
O12 Dy1 1_555 1_555
O13 C16 1_555 1_555
O14 C15 1_555 1_555
O15 Dy2 1_555 1_555
O16 Dy2 1_555 1_555
O17 C18 1_555 1_555
O18 C17 1_555 1_555
O19 C21 1_555 1_555
O20 C22 1_555 1_555
O21 Dy4 1_555 1_555
O22 Dy4 1_555 1_555
O23 C19 1_555 1_555
O24 C20 1_555 1_555
O25 Dy2 1_555 1_555
O26 Dy2 1_555 1_555
O27 Dy3 1_555 1_555
H1 O27 1_555 1_555
H2 O27 1_555 1_555
O28 Dy2 1_555 1_555
H3 O28 1_555 1_555
H4 O28 1_555 1_555
O29 Dy1 1_555 1_555
H5 O29 1_555 1_555
H6 O29 1_555 1_555
O30 Dy1 1_555 1_555
H7 O30 1_555 1_555
H8 O30 1_555 1_555
O31 Dy1 1_555 1_555
H9 O31 1_555 1_555
H10 O31 1_555 1_555
O32 Dy4 1_555 1_555
H11 O32 1_555 1_555
H12 O32 1_555 1_555
O33 Dy4 1_555 1_555
H13 O33 1_555 1_555
H14 O33 1_555 1_555
N1 H15 1_555 1_555
N2 H16 1_555 1_555
C1 P1 1_555 1_555
H17 C1 1_555 1_555
H18 C1 1_555 1_555
C2 N1 1_555 1_555
C3 C2 1_555 1_555
H19 C3 1_555 1_555
C4 C3 1_555 1_555
H20 C4 1_555 1_555
C5 C4 1_555 1_555
H21 C5 1_555 1_555
C6 N1 1_555 1_555
H22 C6 1_555 1_555
C7 P2 1_555 1_555
H23 C7 1_555 1_555
H24 C7 1_555 1_555
C8 N2 1_555 1_555
C9 C8 1_555 1_555
H25 C9 1_555 1_555
C10 C9 1_555 1_555
H26 C10 1_555 1_555
C11 C10 1_555 1_555
H27 C11 1_555 1_555
C12 N2 1_555 1_555
H28 C12 1_555 1_555
C13 O7 1_555 1_555
C14 O8 1_555 1_555
C15 O11 1_555 1_555
C16 O12 1_555 1_555
C17 O15 1_555 1_555
C18 O16 1_555 1_555
C19 O26 1_555 1_555
C20 O25 1_555 1_555
C21 O22 1_555 1_555
C22 O21 1_555 1_555
O34 H29 1_555 1_555
H30 O34 1_555 1_555
O35 H31 1_555 1_555
H32 O35 1_555 1_555
O36 H33 1_555 1_555
H34 O36 1_555 1_555
O37 H35 1_555 1_555
H36 O37 1_555 1_555
O38 H37 1_555 1_555
H38 O38 1_555 1_555
O39 H39 1_555 1_555
H40 O39 1_555 1_555
Dy2_2 O13 1_555 1_555
Dy3B O17 1_555 1_555
Dy3B_2 O19 1_555 1_555
Dy4B O6 1_555 1_555
O6B Dy4 1_555 1_555
O13_2 Dy2 1_555 1_555
O14_2 Dy2 1_555 1_555
O17B Dy3 1_555 1_555
O18B Dy3 1_555 1_555
O19B Dy3 1_555 1_555
O20B Dy3 1_555 1_555
O23B Dy3 1_555 1_555
O24B Dy3 1_555 1_555
O9 C14 1_555 1_555
O10 C13 1_555 1_555
O14 Dy2_2 1_555 1_555
O18 Dy3B 1_555 1_555
O20 Dy3B_2 1_555 1_555
O23 Dy3B_2 1_555 1_555
O24 Dy3B_2 1_555 1_555
C1 C2 1_555 1_555
C5 C6 1_555 1_555
C7 C8 1_555 1_555
C11 C12 1_555 1_555
C13 C14 1_555 1_555
C15 C16 1_555 1_555
C17 C18 1_555 1_555
C19 C20 1_555 1_555
C21 C22 1_555 1_555

#END
