
#######################################################################
#
#                 Cambridge Crystallographic Data Centre
#                                CCDC 
#
#######################################################################
#
# If this CIF has been generated from an entry in the Cambridge 
# Structural Database, then it will include bibliographic, chemical, 
# crystal, experimental, refinement or atomic coordinate data resulting 
# from the CCDC's data processing and validation procedures.
#
#######################################################################

data_TUYLAB
_symmetry_cell_setting           monoclinic
_symmetry_space_group_name_H-M   'P 21/c'
_symmetry_Int_Tables_number      14
_space_group_name_Hall           '-P 2ybc'
loop_
_symmetry_equiv_pos_site_id
_symmetry_equiv_pos_as_xyz
1 x,y,z
2 -x,1/2+y,1/2-z
3 -x,-y,-z
4 x,1/2-y,1/2+z
_cell_length_a                   11.4607(6)
_cell_length_b                   10.5623(5)
_cell_length_c                   36.3048(18)
_cell_angle_alpha                90
_cell_angle_beta                 93.126(1)
_cell_angle_gamma                90
_cell_volume                     4388.21
loop_
_atom_site_label
_atom_site_type_symbol
_atom_site_fract_x
_atom_site_fract_y
_atom_site_fract_z
Tb1 Tb -0.11998(3) -0.16097(4) -0.289930(10)
Tb2 Tb -0.31479(3) -0.63581(4) -0.329290(11)
Tb3 Tb -0.17654(3) -0.29700(4) -0.608830(10)
Tb4 Tb 0.01629(3) -0.18202(4) -0.454380(11)
P1 P -0.30680(19) -0.4026(2) -0.25625(6)
P2 P -0.18736(18) -0.0947(2) -0.52757(6)
O1 O -0.2732(5) -0.2889(6) -0.27909(16)
O2 O -0.3051(5) -0.5246(5) -0.27780(16)
O3 O -0.2357(5) -0.4109(6) -0.22021(14)
O4 O -0.1790(5) -0.1498(5) -0.56544(14)
O5 O -0.1310(5) -0.1801(5) -0.49776(14)
O6 O -0.1451(5) 0.0404(5) -0.52451(15)
O7 O -0.0092(5) -0.0703(5) -0.33657(14)
O8 O -0.1713(5) -0.2462(5) -0.35106(15)
O9 O -0.1208(5) -0.2530(6) -0.40982(16)
O10 O 0.0609(5) -0.1015(5) -0.39193(15)
O11 O -0.1207(5) 0.0555(5) -0.27081(16)
O12 O -0.2967(5) -0.0480(5) -0.31012(16)
O13 O -0.3709(5) 0.1441(5) -0.32251(16)
O14 O -0.1850(5) 0.2470(6) -0.28772(16)
O15 O -0.5151(4) -0.6249(5) -0.31590(14)
O16 O -0.4388(4) -0.6719(5) -0.38289(15)
O17 O -0.6212(5) -0.7138(6) -0.40410(14)
O18 O -0.6992(5) -0.6510(6) -0.33829(15)
O19 O 0.0521(5) -0.5983(5) -0.43696(16)
O20 O 0.2385(5) -0.4875(5) -0.40436(16)
O21 O 0.1822(5) -0.3017(6) -0.42945(17)
O22 O -0.0126(5) -0.4089(5) -0.45715(16)
O23 O 0.0596(4) -0.5863(5) -0.35046(15)
O24 O -0.0195(5) -0.7898(5) -0.38904(15)
O25 O -0.2009(4) -0.7486(5) -0.37142(16)
O26 O -0.1212(4) -0.5467(5) -0.33364(15)
O27 O -0.1990(5) -0.1100(5) -0.64571(15)
H1 H -0.2132 -0.1207 -0.6701
H2 H -0.1720 -0.0347 -0.6375
O28 O -0.3412(5) -0.4350(6) -0.35924(16)
H3 H -0.2849 -0.3759 -0.3572
H4 H -0.3983 -0.4263 -0.3769
O29 O -0.1237(5) -0.1846(6) -0.22455(17)
H5 H -0.1439 -0.1097 -0.2149
H6 H -0.1568 -0.2559 -0.2164
O30 O -0.0205(5) -0.3571(5) -0.28960(16)
H7 H -0.0699 -0.4128 -0.3008
H8 H 0.0317 -0.3854 -0.2722
O31 O 0.0718(5) -0.1110(6) -0.26570(16)
H9 H 0.1169 -0.0511 -0.2753
H10 H 0.1013 -0.1577 -0.2467
O32 O -0.0851(5) 0.0198(6) -0.44352(15)
H11 H -0.0527 0.0729 -0.4266
H12 H -0.1226 0.0529 -0.4636
O33 O 0.0990(5) -0.2644(6) -0.51289(15)
H13 H 0.1514 -0.3161 -0.5051
H14 H 0.0666 -0.3024 -0.5333
N1 N -0.5045(7) -0.2275(8) -0.2971(2)
H15 H -0.4328 -0.1948 -0.2928
N2 N -0.3540(6) 0.0652(7) -0.4691(2)
H16 H -0.3474 0.1246 -0.4866
C1 C -0.4574(8) -0.3724(10) -0.2460(3)
H17 H -0.4894 -0.4493 -0.2360
H18 H -0.4579 -0.3083 -0.2269
C2 C -0.5364(8) -0.3302(9) -0.2773(3)
C3 C -0.6440(8) -0.3839(9) -0.2875(3)
H19 H -0.6690 -0.4558 -0.2754
C4 C -0.7132(10) -0.3313(10) -0.3153(3)
H20 H -0.7844 -0.3689 -0.3222
C5 C -0.6799(9) -0.2257(11) -0.3328(3)
H21 H -0.7305 -0.1875 -0.3504
C6 C -0.5695(9) -0.1738(10) -0.3246(3)
H22 H -0.5424 -0.1050 -0.3376
C7 C -0.3413(7) -0.0892(8) -0.5188(2)
H23 H -0.3765 -0.1708 -0.5246
H24 H -0.3796 -0.0264 -0.5347
C8 C -0.3599(7) -0.0570(8) -0.4795(2)
C9 C -0.3750(8) -0.1447(9) -0.4525(3)
H25 H -0.3794 -0.2302 -0.4587
C10 C -0.3839(9) -0.1079(11) -0.4164(3)
H26 H -0.3950 -0.1683 -0.3983
C11 C -0.3765(9) 0.0173(11) -0.4073(3)
H27 H -0.3815 0.0432 -0.3829
C12 C -0.3619(8) 0.1017(11) -0.4340(3)
H28 H -0.3571 0.1873 -0.4281
C13 C -0.0099(7) -0.1205(8) -0.3679(2)
C14 C -0.1096(7) -0.2156(8) -0.3776(2)
C15 C -0.1909(7) 0.1295(8) -0.2874(2)
C16 C -0.2959(7) 0.0687(8) -0.3091(2)
C17 C -0.5907(7) -0.6500(7) -0.3407(2)
C18 C -0.5468(7) -0.6832(8) -0.3794(2)
C19 C -0.0475(7) -0.6098(7) -0.3506(2)
C20 C -0.0938(7) -0.7276(8) -0.3726(2)
C21 C 0.0590(7) -0.4811(8) -0.4405(2)
C22 C 0.1697(7) -0.4176(8) -0.4232(2)
Tb2_2 Tb -0.31479(3) 0.36419(4) -0.329290(11)
Tb3B Tb -0.82346(3) -0.70300(4) -0.391170(10)
Tb3B_2 Tb 0.17654(3) -0.70300(4) -0.391170(10)
Tb4B Tb -0.01629(3) 0.18202(4) -0.545620(11)
O6B O 0.1451(5) -0.0404(5) -0.47549(15)
O13_2 O -0.3709(5) -0.8559(5) -0.32251(16)
O14_2 O -0.1850(5) -0.7530(6) -0.28772(16)
O17B O -0.3788(5) -0.2862(6) -0.59590(14)
O18B O -0.3008(5) -0.3490(6) -0.66171(15)
O19B O -0.0521(5) -0.4017(5) -0.56304(16)
O20B O -0.2385(5) -0.5125(5) -0.59564(16)
O23B O -0.0596(4) -0.4137(5) -0.64954(15)
O24B O 0.0195(5) -0.2102(5) -0.61096(15)
O34 O -0.6468(7) 0.7193(8) -0.4902(2)
H29 H -0.6796 0.6831 -0.4726
H30 H -0.5881 0.6715 -0.5012
O35 O -0.2614(6) 0.5698(7) -0.5040(2)
H31 H -0.2431 0.5504 -0.4817
H32 H -0.2054 0.6076 -0.5146
O36 O -0.5321(6) 0.6181(7) -0.40904(19)
H33 H -0.4738 0.6006 -0.3946
H34 H -0.5786 0.5555 -0.4101
O37 O -0.2412(13) 0.4829(15) -0.4343(4)
H35 H -0.3046 0.5013 -0.4246
H36 H -0.1850 0.5139 -0.4211
O38 O -0.6557(15) 0.9156(19) -0.4038(5)
H37 H -0.6031 0.8597 -0.4056
H38 H -0.7085 0.8634 -0.4109
O39 O -0.4818(8) 0.5920(8) -0.5326(2)
H39 H -0.4093 0.5826 -0.5353
H40 H -0.5197 0.5667 -0.5519
loop_
_geom_bond_atom_site_label_1
_geom_bond_atom_site_label_2
_geom_bond_site_symmetry_1
_geom_bond_site_symmetry_2
Tb1 O1 1_555 1_555
Tb2 O2 1_555 1_555
Tb3 O4 1_555 1_555
Tb4 O5 1_555 1_555
P1 O1 1_555 1_555
P2 O4 1_555 1_555
O2 P1 1_555 1_555
O3 P1 1_555 1_555
O5 P2 1_555 1_555
O6 P2 1_555 1_555
O7 Tb1 1_555 1_555
O8 Tb1 1_555 1_555
O9 Tb4 1_555 1_555
O10 Tb4 1_555 1_555
O11 Tb1 1_555 1_555
O12 Tb1 1_555 1_555
O13 C16 1_555 1_555
O14 C15 1_555 1_555
O15 Tb2 1_555 1_555
O16 Tb2 1_555 1_555
O17 C18 1_555 1_555
O18 C17 1_555 1_555
O19 C21 1_555 1_555
O20 C22 1_555 1_555
O21 Tb4 1_555 1_555
O22 Tb4 1_555 1_555
O23 C19 1_555 1_555
O24 C20 1_555 1_555
O25 Tb2 1_555 1_555
O26 Tb2 1_555 1_555
O27 Tb3 1_555 1_555
H1 O27 1_555 1_555
H2 O27 1_555 1_555
O28 Tb2 1_555 1_555
H3 O28 1_555 1_555
H4 O28 1_555 1_555
O29 Tb1 1_555 1_555
H5 O29 1_555 1_555
H6 O29 1_555 1_555
O30 Tb1 1_555 1_555
H7 O30 1_555 1_555
H8 O30 1_555 1_555
O31 Tb1 1_555 1_555
H9 O31 1_555 1_555
H10 O31 1_555 1_555
O32 Tb4 1_555 1_555
H11 O32 1_555 1_555
H12 O32 1_555 1_555
O33 Tb4 1_555 1_555
H13 O33 1_555 1_555
H14 O33 1_555 1_555
N1 H15 1_555 1_555
N2 H16 1_555 1_555
C1 P1 1_555 1_555
H17 C1 1_555 1_555
H18 C1 1_555 1_555
C2 N1 1_555 1_555
C3 C2 1_555 1_555
H19 C3 1_555 1_555
C4 C3 1_555 1_555
H20 C4 1_555 1_555
C5 C4 1_555 1_555
H21 C5 1_555 1_555
C6 N1 1_555 1_555
H22 C6 1_555 1_555
C7 P2 1_555 1_555
H23 C7 1_555 1_555
H24 C7 1_555 1_555
C8 N2 1_555 1_555
C9 C8 1_555 1_555
H25 C9 1_555 1_555
C10 C9 1_555 1_555
H26 C10 1_555 1_555
C11 C10 1_555 1_555
H27 C11 1_555 1_555
C12 N2 1_555 1_555
H28 C12 1_555 1_555
C13 O7 1_555 1_555
C14 O8 1_555 1_555
C15 O11 1_555 1_555
C16 O12 1_555 1_555
C17 O15 1_555 1_555
C18 O16 1_555 1_555
C19 O26 1_555 1_555
C20 O25 1_555 1_555
C21 O22 1_555 1_555
C22 O21 1_555 1_555
O34 H29 1_555 1_555
H30 O34 1_555 1_555
O35 H31 1_555 1_555
H32 O35 1_555 1_555
O36 H33 1_555 1_555
H34 O36 1_555 1_555
O37 H35 1_555 1_555
H36 O37 1_555 1_555
O38 H37 1_555 1_555
H38 O38 1_555 1_555
O39 H39 1_555 1_555
H40 O39 1_555 1_555
Tb2_2 O13 1_555 1_555
Tb3B O17 1_555 1_555
Tb3B_2 O19 1_555 1_555
Tb4B O6 1_555 1_555
O6B Tb4 1_555 1_555
O13_2 Tb2 1_555 1_555
O14_2 Tb2 1_555 1_555
O17B Tb3 1_555 1_555
O18B Tb3 1_555 1_555
O19B Tb3 1_555 1_555
O20B Tb3 1_555 1_555
O23B Tb3 1_555 1_555
O24B Tb3 1_555 1_555
O9 C14 1_555 1_555
O10 C13 1_555 1_555
O14 Tb2_2 1_555 1_555
O18 Tb3B 1_555 1_555
O20 Tb3B_2 1_555 1_555
O23 Tb3B_2 1_555 1_555
O24 Tb3B_2 1_555 1_555
C1 C2 1_555 1_555
C5 C6 1_555 1_555
C7 C8 1_555 1_555
C11 C12 1_555 1_555
C13 C14 1_555 1_555
C15 C16 1_555 1_555
C17 C18 1_555 1_555
C19 C20 1_555 1_555
C21 C22 1_555 1_555

#END
