
#######################################################################
#
#                 Cambridge Crystallographic Data Centre
#                                CCDC 
#
#######################################################################
#
# If this CIF has been generated from an entry in the Cambridge 
# Structural Database, then it will include bibliographic, chemical, 
# crystal, experimental, refinement or atomic coordinate data resulting 
# from the CCDC's data processing and validation procedures.
#
#######################################################################

data_TUYPEK
_symmetry_cell_setting           triclinic
_symmetry_space_group_name_H-M   'P -1'
_symmetry_Int_Tables_number      2
_space_group_name_Hall           '-P 1'
loop_
_symmetry_equiv_pos_site_id
_symmetry_equiv_pos_as_xyz
1 x,y,z
2 -x,-y,-z
_cell_length_a                   8.7413(8)
_cell_length_b                   9.7575(7)
_cell_length_c                   10.5669(11)
_cell_angle_alpha                93.426(7)
_cell_angle_beta                 106.973(9)
_cell_angle_gamma                107.390(7)
_cell_volume                     811.886
loop_
_atom_site_label
_atom_site_type_symbol
_atom_site_fract_x
_atom_site_fract_y
_atom_site_fract_z
Cu1 Cu -0.14730(4) 0.60575(3) -0.12929(3)
O1 O -0.0984(2) 0.6751(2) 0.06295(17)
O2 O -0.3561(2) 0.6392(2) 0.07590(18)
O3 O 0.2728(2) 0.74735(19) 0.26221(19)
O4 O 0.0973(2) 0.52305(18) 0.25307(17)
O5 O 0.7427(2) 0.7591(2) 0.77191(18)
O6 O -0.3603(2) 0.4527(2) -0.15552(19)
H1 H -0.3699 0.3659 -0.1841
H2 H -0.4248 0.4528 -0.1115
N1 N 0.2730(3) 0.7603(2) 0.5579(2)
N2 N 0.0824(3) 0.7492(2) -0.10238(19)
C1 C -0.2010(3) 0.6735(3) 0.1263(2)
C2 C 0.1474(3) 0.6605(3) 0.2783(2)
C3 C -0.1211(3) 0.7207(3) 0.2763(2)
C4 C -0.2112(3) 0.7693(3) 0.3476(3)
H3 H -0.3187 0.7716 0.3019
C5 C -0.1446(4) 0.8141(3) 0.4844(3)
H4 H -0.2068 0.8463 0.5301
C6 C 0.0151(4) 0.8111(3) 0.5538(3)
H5 H 0.0609 0.8405 0.6461
C7 C 0.1053(3) 0.7635(3) 0.4834(2)
C8 C 0.0421(3) 0.7181(3) 0.3459(2)
C9 C 0.5971(3) 0.7577(3) 0.7031(2)
C10 C 0.4050(3) 0.8872(3) 0.6102(3)
H6 H 0.3861 0.9751 0.5975
C11 C 0.5619(3) 0.8890(3) 0.6798(3)
H7 H 0.6488 0.9777 0.7132
C12 C 0.4571(3) 0.6272(3) 0.6423(3)
H8 H 0.4724 0.5374 0.6499
C13 C 0.3019(4) 0.6329(3) 0.5737(3)
H9 H 0.2127 0.5463 0.5363
C14 C 0.1139(3) 0.8908(3) -0.0683(3)
H10 H 0.0230 0.9230 -0.0716
C15 C 0.2739(3) 0.9918(3) -0.0286(3)
H11 H 0.2894 1.0897 -0.0061
C16 C 0.4123(3) 0.9473(3) -0.0223(2)
C17 C 0.3788(3) 0.8009(3) -0.0604(3)
H12 H 0.4673 0.7662 -0.0596
C18 C 0.2149(3) 0.7059(3) -0.0998(3)
H13 H 0.1954 0.6077 -0.1256
N2A N 0.9176(3) 1.2508(2) 0.10238(19)
C14A C 0.8861(3) 1.1092(3) 0.0683(3)
H10A H 0.9770 1.0770 0.0716
C15A C 0.7261(3) 1.0082(3) 0.0286(3)
H11A H 0.7106 0.9103 0.0061
C16A C 0.5877(3) 1.0527(3) 0.0223(2)
C17A C 0.6212(3) 1.1991(3) 0.0604(3)
H12A H 0.5327 1.2338 0.0596
C18A C 0.7851(3) 1.2941(3) 0.0998(3)
H13A H 0.8046 1.3923 0.1256
Cu1A Cu 0.14730(4) 0.39425(3) 0.12929(3)
O1A O 0.0984(2) 0.3249(2) -0.06295(17)
O2A O 0.3561(2) 0.3608(2) -0.07590(18)
O3A O -0.2728(2) 0.25265(19) -0.26221(19)
O4A O -0.0973(2) 0.47695(18) -0.25307(17)
O5A O -0.7427(2) 0.2409(2) -0.77191(18)
O6A O 0.3603(2) 0.5473(2) 0.15552(19)
H1A H 0.3699 0.6341 0.1841
H2A H 0.4248 0.5472 0.1115
N1A N -0.2730(3) 0.2397(2) -0.5579(2)
C1A C 0.2010(3) 0.3265(3) -0.1263(2)
C2A C -0.1474(3) 0.3395(3) -0.2783(2)
C3A C 0.1211(3) 0.2793(3) -0.2763(2)
C4A C 0.2112(3) 0.2307(3) -0.3476(3)
H3A H 0.3187 0.2284 -0.3019
C5A C 0.1446(4) 0.1859(3) -0.4844(3)
H4A H 0.2068 0.1537 -0.5301
C6A C -0.0151(4) 0.1889(3) -0.5538(3)
H5A H -0.0609 0.1595 -0.6461
C7A C -0.1053(3) 0.2365(3) -0.4834(2)
C8A C -0.0421(3) 0.2819(3) -0.3459(2)
C9A C -0.5971(3) 0.2423(3) -0.7031(2)
C10A C -0.4050(3) 0.1128(3) -0.6102(3)
H6A H -0.3861 0.0249 -0.5975
C11A C -0.5619(3) 0.1110(3) -0.6798(3)
H7A H -0.6488 0.0223 -0.7132
C12A C -0.4571(3) 0.3728(3) -0.6423(3)
H8A H -0.4724 0.4626 -0.6499
C13A C -0.3019(4) 0.3671(3) -0.5737(3)
H9A H -0.2127 0.4537 -0.5363
Cu1_2 Cu 0.85270(4) 0.60575(3) 0.87071(3)
Cu1A_2 Cu -0.85270(4) 0.39425(3) -0.87071(3)
Cu1A_3 Cu 1.14730(4) 1.39425(3) 0.12929(3)
O5_2 O -0.2573(2) 0.7591(2) -0.22809(18)
O5A_2 O 0.2573(2) 0.2409(2) 0.22809(18)
N2A_2 N -0.0824(3) 0.2508(2) 0.10238(19)
loop_
_geom_bond_atom_site_label_1
_geom_bond_atom_site_label_2
_geom_bond_site_symmetry_1
_geom_bond_site_symmetry_2
Cu1 O1 1_555 1_555
O1 C1 1_555 1_555
O2 C1 1_555 1_555
O3 C2 1_555 1_555
O4 C2 1_555 1_555
O5 C9 1_555 1_555
O6 Cu1 1_555 1_555
H1 O6 1_555 1_555
H2 O6 1_555 1_555
N1 C7 1_555 1_555
N2 Cu1 1_555 1_555
C1 C3 1_555 1_555
C2 C8 1_555 1_555
C3 C4 1_555 1_555
C4 H3 1_555 1_555
C5 C4 1_555 1_555
H4 C5 1_555 1_555
C6 C5 1_555 1_555
H5 C6 1_555 1_555
C7 C6 1_555 1_555
C8 C3 1_555 1_555
C9 C11 1_555 1_555
C10 N1 1_555 1_555
H6 C10 1_555 1_555
C11 C10 1_555 1_555
H7 C11 1_555 1_555
C12 C9 1_555 1_555
H8 C12 1_555 1_555
C13 N1 1_555 1_555
H9 C13 1_555 1_555
C14 N2 1_555 1_555
H10 C14 1_555 1_555
C15 C14 1_555 1_555
H11 C15 1_555 1_555
C16 C15 1_555 1_555
C17 C16 1_555 1_555
H12 C17 1_555 1_555
C18 N2 1_555 1_555
H13 C18 1_555 1_555
N2A C14A 1_555 1_555
C14A H10A 1_555 1_555
C15A C14A 1_555 1_555
H11A C15A 1_555 1_555
C16A C16 1_555 1_555
C17A C16A 1_555 1_555
H12A C17A 1_555 1_555
C18A N2A 1_555 1_555
H13A C18A 1_555 1_555
Cu1A O4 1_555 1_555
O1A Cu1A 1_555 1_555
O2A C1A 1_555 1_555
O3A C2A 1_555 1_555
O4A Cu1 1_555 1_555
O5A C9A 1_555 1_555
O6A Cu1A 1_555 1_555
H1A O6A 1_555 1_555
H2A O6A 1_555 1_555
N1A C7A 1_555 1_555
C1A O1A 1_555 1_555
C2A O4A 1_555 1_555
C3A C1A 1_555 1_555
C4A C3A 1_555 1_555
H3A C4A 1_555 1_555
C5A C4A 1_555 1_555
H4A C5A 1_555 1_555
C6A C5A 1_555 1_555
H5A C6A 1_555 1_555
C7A C6A 1_555 1_555
C8A C2A 1_555 1_555
C9A C11A 1_555 1_555
C10A N1A 1_555 1_555
H6A C10A 1_555 1_555
C11A C10A 1_555 1_555
H7A C11A 1_555 1_555
C12A C9A 1_555 1_555
H8A C12A 1_555 1_555
C13A N1A 1_555 1_555
H9A C13A 1_555 1_555
Cu1_2 O5 1_555 1_555
Cu1A_2 O5A 1_555 1_555
Cu1A_3 N2A 1_555 1_555
O5_2 Cu1 1_555 1_555
O5A_2 Cu1A 1_555 1_555
N2A_2 Cu1A 1_555 1_555
C7 C8 1_555 1_555
C12 C13 1_555 1_555
C17 C18 1_555 1_555
C15A C16A 1_555 1_555
C17A C18A 1_555 1_555
C3A C8A 1_555 1_555
C7A C8A 1_555 1_555
C12A C13A 1_555 1_555

#END
