
#######################################################################
#
#                 Cambridge Crystallographic Data Centre
#                                CCDC 
#
#######################################################################
#
# If this CIF has been generated from an entry in the Cambridge 
# Structural Database, then it will include bibliographic, chemical, 
# crystal, experimental, refinement or atomic coordinate data resulting 
# from the CCDC's data processing and validation procedures.
#
#######################################################################

data_TUYQAH
_symmetry_cell_setting           triclinic
_symmetry_space_group_name_H-M   'P -1'
_symmetry_Int_Tables_number      2
_space_group_name_Hall           '-P 1'
loop_
_symmetry_equiv_pos_site_id
_symmetry_equiv_pos_as_xyz
1 x,y,z
2 -x,-y,-z
_cell_length_a                   8.0600(8)
_cell_length_b                   10.2518(12)
_cell_length_c                   14.0582(15)
_cell_angle_alpha                68.969(8)
_cell_angle_beta                 85.257(8)
_cell_angle_gamma                78.479(8)
_cell_volume                     1062.32
loop_
_atom_site_label
_atom_site_type_symbol
_atom_site_fract_x
_atom_site_fract_y
_atom_site_fract_z
C1 C 0.2396(15) 0.5003(11) 0.1241(8)
C2 C 0.1292(17) 0.3995(11) 0.1726(8)
C3 C -0.0393(17) 0.4285(13) 0.1445(9)
H1 H -0.0808 0.5164 0.0959
C4 C -0.1495(18) 0.3324(14) 0.1855(10)
H2 H -0.2609 0.3544 0.1639
C5 C -0.0870(18) 0.2024(12) 0.2600(9)
H3 H -0.1573 0.1361 0.2886
C6 C 0.077(2) 0.1718(11) 0.2913(10)
H4 H 0.1148 0.0865 0.3435
C7 C 0.1919(16) 0.2667(10) 0.2465(8)
N1 N 0.3565(14) 0.2294(10) 0.2846(7)
H5 H 0.4286 0.2642 0.2335
H6 H 0.3868 0.1341 0.3086
O1 O 0.1605(13) 0.6247(10) 0.0644(8)
H7 H 0.2332 0.6791 0.0386
O2 O 0.3914(12) 0.4760(10) 0.1351(7)
Hg1 Hg 0.38167(6) 0.32382(5) 0.42645(4)
Hg2 Hg 0.87839(6) 0.35382(5) 0.45400(4)
Br1 Br 0.17040(16) 0.54437(11) 0.36105(8)
Br2 Br 0.61762(17) 0.14671(12) 0.52072(11)
Br3 Br 0.66465(19) 0.54315(15) 0.35119(12)
Br4 Br 1.10351(16) 0.16510(12) 0.54860(10)
Hg1_2 Hg 1.38167(6) 0.32382(5) 0.42645(4)
Hg2_2 Hg -0.12161(6) 0.35382(5) 0.45400(4)
Hg2A Hg 0.12161(6) 0.64618(5) 0.54600(4)
Br1_2 Br 1.17040(16) 0.54437(11) 0.36105(8)
Br1A Br 0.82960(16) 0.45563(11) 0.63895(8)
Br4_2 Br 0.10351(16) 0.16510(12) 0.54860(10)
C8 C 0.5168(19) 0.7847(12) 0.9800(9)
C9 C 0.6219(16) 0.8900(12) 0.9292(8)
C10 C 0.7866(18) 0.8674(12) 0.9576(9)
H8 H 0.8286 0.7841 1.0103
C11 C 0.894(2) 0.9638(14) 0.9110(11)
H9 H 1.0052 0.9477 0.9318
C12 C 0.827(2) 1.0831(15) 0.8332(11)
H10 H 0.8969 1.1489 0.8009
C13 C 0.670(2) 1.1119(13) 0.8002(11)
H11 H 0.6334 1.1954 0.7463
C14 C 0.557(2) 1.0164(13) 0.8466(9)
N2 N 0.4056(18) 1.0403(14) 0.8086(10)
H12 H 0.3750 1.1139 0.7554
H13 H 0.3372 0.9823 0.8367
O3 O 0.3662(14) 0.7958(10) 0.9613(8)
O4 O 0.5936(13) 0.6711(10) 1.0544(8)
H14 H 0.5351 0.6094 1.0719
loop_
_geom_bond_atom_site_label_1
_geom_bond_atom_site_label_2
_geom_bond_site_symmetry_1
_geom_bond_site_symmetry_2
C1 C2 1_555 1_555
C2 C3 1_555 1_555
C3 H1 1_555 1_555
C4 C3 1_555 1_555
H2 C4 1_555 1_555
C5 C4 1_555 1_555
H3 C5 1_555 1_555
C6 C5 1_555 1_555
H4 C6 1_555 1_555
C7 C2 1_555 1_555
N1 C7 1_555 1_555
H5 N1 1_555 1_555
H6 N1 1_555 1_555
O1 C1 1_555 1_555
H7 O1 1_555 1_555
O2 C1 1_555 1_555
Hg1 N1 1_555 1_555
Hg2 Br2 1_555 1_555
Br1 Hg1 1_555 1_555
Br2 Hg1 1_555 1_555
Br3 Hg2 1_555 1_555
Br4 Hg2 1_555 1_555
C8 C9 1_555 1_555
C9 C10 1_555 1_555
C10 H8 1_555 1_555
C11 C10 1_555 1_555
H9 C11 1_555 1_555
C12 C11 1_555 1_555
H10 C12 1_555 1_555
C13 C12 1_555 1_555
H11 C13 1_555 1_555
C14 C9 1_555 1_555
N2 C14 1_555 1_555
H12 N2 1_555 1_555
H13 N2 1_555 1_555
O3 C8 1_555 1_555
O4 C8 1_555 1_555
H14 O4 1_555 1_555
Hg1_2 Br4 1_555 1_555
Hg2_2 Br1 1_555 1_555
Hg2A Br1 1_555 1_555
Br1_2 Hg2 1_555 1_555
Br1A Hg2 1_555 1_555
Br4_2 Hg1 1_555 1_555
C6 C7 1_555 1_555
C13 C14 1_555 1_555
Hg1_2 Br1_2 1_555 1_555
Hg2_2 Br4_2 1_555 1_555

#END
