
#######################################################################
#
#                 Cambridge Crystallographic Data Centre
#                                CCDC 
#
#######################################################################
#
# If this CIF has been generated from an entry in the Cambridge 
# Structural Database, then it will include bibliographic, chemical, 
# crystal, experimental, refinement or atomic coordinate data resulting 
# from the CCDC's data processing and validation procedures.
#
#######################################################################

data_TUYQUB
_symmetry_cell_setting           monoclinic
_symmetry_space_group_name_H-M   'P 21/c'
_symmetry_Int_Tables_number      14
_space_group_name_Hall           '-P 2ybc'
loop_
_symmetry_equiv_pos_site_id
_symmetry_equiv_pos_as_xyz
1 x,y,z
2 -x,1/2+y,1/2-z
3 -x,-y,-z
4 x,1/2-y,1/2+z
_cell_length_a                   9.3144(2)
_cell_length_b                   19.1303(4)
_cell_length_c                   9.3496(2)
_cell_angle_alpha                90
_cell_angle_beta                 101.795(2)
_cell_angle_gamma                90
_cell_volume                     1630.8
loop_
_atom_site_label
_atom_site_type_symbol
_atom_site_fract_x
_atom_site_fract_y
_atom_site_fract_z
Cd1 Cd 0.08890(2) 0.007348(12) 0.23640(2)
O1 O -0.0141(3) 0.12498(16) 0.1343(3)
O2 O -0.1213(4) 0.2230(2) 0.1900(4)
O3 O 0.5564(4) 0.1581(2) 0.7096(4)
O4 O 0.4711(4) 0.2597(2) 0.7745(4)
O5 O -0.8716(3) 0.03275(17) -0.0304(3)
O6 O -0.7506(4) 0.1002(2) -0.1623(3)
O7 O -0.1166(3) 0.04247(19) 0.3585(3)
O8 O 0.0024(4) -0.1033(2) 0.3520(4)
O9 O 0.1830(4) -0.10330(19) 0.1376(4)
O10 O -0.2539(3) 0.01862(17) 0.5216(3)
N1 N -0.6356(4) 0.0341(2) 0.1956(4)
N2 N 0.1885(4) 0.13132(19) 0.3815(4)
C1 C -0.0234(5) 0.1780(2) 0.2147(5)
C2 C 0.0980(5) 0.1866(2) 0.3472(5)
C3 C 0.1153(5) 0.2484(2) 0.4240(5)
H1 H 0.0476 0.2857 0.3977
C4 C 0.2335(5) 0.2554(2) 0.5405(5)
H2 H 0.2485 0.2976 0.5953
C5 C 0.3293(5) 0.1997(2) 0.5754(5)
C6 C 0.3017(5) 0.1390(2) 0.4932(5)
H3 H 0.3672 0.1007 0.5180
C7 C 0.4635(5) 0.2034(2) 0.6931(5)
C8 C -0.2381(4) 0.0360(2) 0.3957(4)
C9 C -0.5121(5) 0.0266(2) 0.2981(4)
H4 H -0.5191 0.0046 0.3876
C10 C -0.3749(4) 0.0492(2) 0.2807(4)
C11 C -0.3667(5) 0.0833(2) 0.1517(5)
H5 H -0.2756 0.1009 0.1367
C12 C -0.7591(4) 0.0672(2) -0.0513(4)
C13 C -0.6233(4) 0.0650(2) 0.0699(4)
C14 C -0.4928(5) 0.0914(2) 0.0449(5)
H6 H -0.4894 0.1148 -0.0440
H7 H -0.084(5) -0.112(5) 0.290(7)
H8 H 0.254(7) -0.135(3) 0.170(9)
H9 H 0.145(9) -0.118(4) 0.046(4)
H10 H 0.013(9) -0.087(5) 0.445(4)
Cd1_2 Cd -0.91110(2) 0.007348(12) 0.23640(2)
Cd1B Cd -1.08890(2) -0.007348(12) -0.23640(2)
Cd1B_2 Cd -0.08890(2) -0.007348(12) 0.76360(2)
O5_2 O 0.1284(3) 0.03275(17) -0.0304(3)
O5B O -0.1284(3) -0.03275(17) 0.0304(3)
O10B O 0.2539(3) -0.01862(17) 0.4784(3)
N1_2 N 0.3644(4) 0.0341(2) 0.1956(4)
O11 O 0.7234(5) 0.2789(3) 0.9325(5)
H11 H 0.751(10) 0.259(4) 1.022(4)
H12 H 0.798(7) 0.275(5) 0.884(9)
loop_
_geom_bond_atom_site_label_1
_geom_bond_atom_site_label_2
_geom_bond_site_symmetry_1
_geom_bond_site_symmetry_2
Cd1 O1 1_555 1_555
O1 C1 1_555 1_555
O2 C1 1_555 1_555
O3 C7 1_555 1_555
O4 C7 1_555 1_555
O5 C12 1_555 1_555
O6 C12 1_555 1_555
O7 Cd1 1_555 1_555
O8 Cd1 1_555 1_555
O9 Cd1 1_555 1_555
O10 C8 1_555 1_555
N1 C9 1_555 1_555
N2 Cd1 1_555 1_555
C1 C2 1_555 1_555
C2 N2 1_555 1_555
C3 C2 1_555 1_555
H1 C3 1_555 1_555
C4 C3 1_555 1_555
H2 C4 1_555 1_555
C5 C4 1_555 1_555
C6 N2 1_555 1_555
H3 C6 1_555 1_555
C7 C5 1_555 1_555
C8 O7 1_555 1_555
C9 H4 1_555 1_555
C10 C8 1_555 1_555
C11 C10 1_555 1_555
H5 C11 1_555 1_555
C12 C13 1_555 1_555
C13 N1 1_555 1_555
C14 C11 1_555 1_555
H6 C14 1_555 1_555
H7 O8 1_555 1_555
H8 O9 1_555 1_555
H9 O9 1_555 1_555
H10 O8 1_555 1_555
O11 H11 1_555 1_555
H12 O11 1_555 1_555
Cd1_2 O5 1_555 1_555
Cd1B O5 1_555 1_555
Cd1B_2 O10 1_555 1_555
O5_2 Cd1 1_555 1_555
O5B Cd1 1_555 1_555
O10B Cd1 1_555 1_555
N1_2 Cd1 1_555 1_555
N1 Cd1_2 1_555 1_555
C5 C6 1_555 1_555
C9 C10 1_555 1_555
C13 C14 1_555 1_555

#END
