
#######################################################################
#
#                 Cambridge Crystallographic Data Centre
#                                CCDC 
#
#######################################################################
#
# If this CIF has been generated from an entry in the Cambridge 
# Structural Database, then it will include bibliographic, chemical, 
# crystal, experimental, refinement or atomic coordinate data resulting 
# from the CCDC's data processing and validation procedures.
#
#######################################################################

data_TUYWIU
_symmetry_cell_setting           triclinic
_symmetry_space_group_name_H-M   'P -1'
_symmetry_Int_Tables_number      2
_space_group_name_Hall           '-P 1'
loop_
_symmetry_equiv_pos_site_id
_symmetry_equiv_pos_as_xyz
1 x,y,z
2 -x,-y,-z
_cell_length_a                   7.242(4)
_cell_length_b                   8.246(4)
_cell_length_c                   9.774(5)
_cell_angle_alpha                94.028(10)
_cell_angle_beta                 105.527(8)
_cell_angle_gamma                110.504(9)
_cell_volume                     517.978
loop_
_atom_site_label
_atom_site_type_symbol
_atom_site_fract_x
_atom_site_fract_y
_atom_site_fract_z
Ag1 Ag 0.88414(7) 0.79919(7) -0.00791(5)
N1 N 0.5717(8) 0.6399(7) 0.1846(6)
H1 H 0.6993 0.6493 0.1930
H2 H 0.5119 0.5934 0.2476
N2 N 0.5588(7) 0.7677(6) -0.0208(5)
N3 N 0.1624(8) 0.7503(7) -0.0329(6)
O1 O 1.0182(8) 0.8153(7) 0.2623(5)
O3 O 1.1699(8) 1.0964(7) 0.2521(5)
C1 C 0.4429(10) 0.8193(9) -0.1268(7)
H3 H 0.4990 0.8635 -0.2002
C2 C 0.2658(10) 0.6877(9) 0.0682(7)
H4 H 0.2040 0.6360 0.1371
C3 C 0.4684(10) 0.6967(8) 0.0756(7)
C4 C 0.2516(10) 0.8115(9) -0.1346(7)
H5 H 0.1775 0.8496 -0.2127
C5 C 1.1307(10) 0.9712(9) 0.3200(7)
C6 C 1.4682(10) 1.0717(9) 0.5246(7)
H6 H 1.5261 1.1758 0.4818
H7 H 1.5281 1.1068 0.6309
C7 C 1.2325(10) 1.0156(9) 0.4826(7)
H8 H 1.1742 0.9113 0.5251
H9 H 1.2002 1.1120 0.5231
Ag1_2 Ag 1.88414(7) 0.79919(7) -0.00791(5)
Ag1_3 Ag -0.11586(7) 0.79919(7) -0.00791(5)
Ag1A Ag 1.11586(7) 1.20081(7) 0.00791(5)
Ag1A_2 Ag 2.11586(7) 1.20081(7) 1.00791(5)
Ag1_4 Ag 1.88414(7) 0.79919(7) 0.99209(5)
N1_2 N 1.5717(8) 0.6399(7) 0.1846(6)
H1_2 H 1.6993 0.6493 0.1930
H2_2 H 1.5119 0.5934 0.2476
N2_2 N 1.5588(7) 0.7677(6) -0.0208(5)
N3_2 N 1.1624(8) 0.7503(7) -0.0329(6)
N3_3 N 2.1624(8) 0.7503(7) -0.0329(6)
O1A O 1.9818(8) 1.1847(7) 0.7377(5)
O1_2 O 2.0182(8) 0.8153(7) 0.2623(5)
O3A O 1.8301(8) 0.9036(7) 0.7479(5)
O3A_2 O 0.8301(8) 0.9036(7) -0.2521(5)
O3A_3 O 1.8301(8) 0.9036(7) -0.2521(5)
C1_2 C 1.4429(10) 0.8193(9) -0.1268(7)
H3_2 H 1.4990 0.8635 -0.2002
C2_2 C 1.2658(10) 0.6877(9) 0.0682(7)
H4_2 H 1.2040 0.6360 0.1371
C3_2 C 1.4684(10) 0.6967(8) 0.0756(7)
C4_2 C 1.2516(10) 0.8115(9) -0.1346(7)
H5_2 H 1.1775 0.8496 -0.2127
C5A C 1.8693(10) 1.0288(9) 0.6800(7)
C6A C 1.5318(10) 0.9283(9) 0.4754(7)
H6A H 1.4739 0.8242 0.5182
H7A H 1.4719 0.8932 0.3691
C7A C 1.7675(10) 0.9844(9) 0.5174(7)
H8A H 1.8258 1.0887 0.4749
H9A H 1.7998 0.8880 0.4769
O2 O 0.0320(15) 0.5275(11) 0.3763(13)
H10 H 0.015(11) 0.621(6) 0.348(7)
H11 H -0.028(12) 0.513(9) 0.446(6)
O4 O 0.3591(11) 0.4467(8) 0.3635(7)
H12 H 0.311(13) 0.350(10) 0.352(9)
H13 H 0.256(12) 0.457(10) 0.391(8)
loop_
_geom_bond_atom_site_label_1
_geom_bond_atom_site_label_2
_geom_bond_site_symmetry_1
_geom_bond_site_symmetry_2
Ag1 N2 1_555 1_555
N1 H1 1_555 1_555
H2 N1 1_555 1_555
N2 C1 1_555 1_555
N3 C2 1_555 1_555
O1 Ag1 1_555 1_555
O2 H10 1_555 1_555
O3 C5 1_555 1_555
O4 H12 1_555 1_555
C1 H3 1_555 1_555
C2 H4 1_555 1_555
C3 N1 1_555 1_555
C4 N3 1_555 1_555
H5 C4 1_555 1_555
C5 O1 1_555 1_555
C6 H6 1_555 1_555
H7 C6 1_555 1_555
C7 C5 1_555 1_555
H8 C7 1_555 1_555
H9 C7 1_555 1_555
H11 O2 1_555 1_555
H13 O4 1_555 1_555
Ag1_2 N2_2 1_555 1_555
Ag1_3 N3 1_555 1_555
Ag1A O3 1_555 1_555
Ag1A_2 O1A 1_555 1_555
Ag1_4 O3A 1_555 1_555
N1_2 H1_2 1_555 1_555
H2_2 N1_2 1_555 1_555
N2_2 C1_2 1_555 1_555
N3_2 Ag1 1_555 1_555
N3_3 Ag1_2 1_555 1_555
O1A C5A 1_555 1_555
O1_2 Ag1_2 1_555 1_555
O3A C5A 1_555 1_555
O3A_2 Ag1 1_555 1_555
O3A_3 Ag1_2 1_555 1_555
C1_2 H3_2 1_555 1_555
C2_2 N3_2 1_555 1_555
H4_2 C2_2 1_555 1_555
C3_2 N1_2 1_555 1_555
C4_2 N3_2 1_555 1_555
H5_2 C4_2 1_555 1_555
C5A C7A 1_555 1_555
C6A C6 1_555 1_555
H6A C6A 1_555 1_555
H7A C6A 1_555 1_555
C7A C6A 1_555 1_555
H8A C7A 1_555 1_555
H9A C7A 1_555 1_555
N2 C3 1_555 1_555
C1 C4 1_555 1_555
C2 C3 1_555 1_555
C6 C7 1_555 1_555
N2_2 C3_2 1_555 1_555
C1_2 C4_2 1_555 1_555
C2_2 C3_2 1_555 1_555

#END
