
#######################################################################
#
#                 Cambridge Crystallographic Data Centre
#                                CCDC 
#
#######################################################################
#
# If this CIF has been generated from an entry in the Cambridge 
# Structural Database, then it will include bibliographic, chemical, 
# crystal, experimental, refinement or atomic coordinate data resulting 
# from the CCDC's data processing and validation procedures.
#
#######################################################################

data_TUYWEQ
_symmetry_cell_setting           orthorhombic
_symmetry_space_group_name_H-M   'F d d 2'
_symmetry_Int_Tables_number      43
_space_group_name_Hall           'F 2 -2d'
loop_
_symmetry_equiv_pos_site_id
_symmetry_equiv_pos_as_xyz
1 x,y,z
2 -x,-y,z
3 1/4+x,1/4-y,1/4+z
4 1/4-x,1/4+y,1/4+z
5 x,1/2+y,1/2+z
6 -x,1/2-y,1/2+z
7 1/4+x,3/4-y,3/4+z
8 1/4-x,3/4+y,3/4+z
9 1/2+x,y,1/2+z
10 1/2-x,-y,1/2+z
11 3/4+x,1/4-y,3/4+z
12 3/4-x,1/4+y,3/4+z
13 1/2+x,1/2+y,z
14 1/2-x,1/2-y,z
15 3/4+x,3/4-y,1/4+z
16 3/4-x,3/4+y,1/4+z
_cell_length_a                   13.170(3)
_cell_length_b                   26.176(5)
_cell_length_c                   7.7986(16)
_cell_angle_alpha                90
_cell_angle_beta                 90
_cell_angle_gamma                90
_cell_volume                     2688.47
loop_
_atom_site_label
_atom_site_type_symbol
_atom_site_fract_x
_atom_site_fract_y
_atom_site_fract_z
Ag1 Ag 0.02988(3) 0.246340(16) -0.49321(16)
C1 C -0.1904(4) 0.24881(15) -0.4554(6)
C2 C 0.0410(5) 0.3667(2) -0.4495(7)
H1 H -0.0193 0.3651 -0.5161
C3 C 0.0772(4) 0.4130(2) -0.3994(6)
H2 H 0.0412 0.4428 -0.4326
C4 C 0.2094(4) 0.37492(19) -0.2607(7)
C5 C 0.1710(3) 0.3274(2) -0.3137(6)
H3 H 0.2061 0.2972 -0.2807
N1 N 0.1632(3) 0.41825(16) -0.3033(5)
N2 N 0.0887(3) 0.32301(16) -0.4067(5)
N3 N 0.2952(5) 0.3765(2) -0.1658(7)
H4 H 0.3202 0.4061 -0.1327
H5 H 0.3261 0.3479 -0.1372
O1 O -0.1453(3) 0.27394(15) -0.5694(5)
O2 O -0.1500(3) 0.22191(16) -0.3449(5)
Ag1C Ag 0.22012(3) 0.496340(16) -0.24321(16)
Ag1M Ag -0.52988(3) 0.253660(16) -0.49321(16)
Ag1B Ag -0.72012(3) 0.003660(16) -0.24321(16)
C1M C -0.3096(4) 0.25119(15) -0.4554(6)
C2M C -0.5410(5) 0.1333(2) -0.4495(7)
H1M H -0.4807 0.1349 -0.5161
C3M C -0.5772(4) 0.0870(2) -0.3994(6)
H2M H -0.5412 0.0572 -0.4326
C4M C -0.7094(4) 0.12508(19) -0.2607(7)
C5M C -0.6710(3) 0.1726(2) -0.3137(6)
H3M H -0.7061 0.2028 -0.2807
N1G N 0.0868(3) 0.16825(16) -0.5533(5)
N1F N -0.5868(3) 0.33175(16) -0.5533(5)
N1M N -0.6632(3) 0.08175(16) -0.3033(5)
N2M N -0.5887(3) 0.17699(16) -0.4067(5)
N3M N -0.7952(5) 0.1235(2) -0.1658(7)
H4M H -0.8202 0.0939 -0.1327
H5M H -0.8261 0.1521 -0.1372
O1M O -0.3547(3) 0.22606(15) -0.5694(5)
O2M O -0.3500(3) 0.27809(16) -0.3449(5)
loop_
_geom_bond_atom_site_label_1
_geom_bond_atom_site_label_2
_geom_bond_site_symmetry_1
_geom_bond_site_symmetry_2
Ag1 N2 1_555 1_555
C1 O1 1_555 1_555
C2 H1 1_555 1_555
C3 C2 1_555 1_555
H2 C3 1_555 1_555
C4 C5 1_555 1_555
C5 H3 1_555 1_555
N1 C3 1_555 1_555
N2 C2 1_555 1_555
N3 C4 1_555 1_555
H4 N3 1_555 1_555
H5 N3 1_555 1_555
O1 Ag1 1_555 1_555
O2 Ag1 1_555 1_555
Ag1C N1 1_555 1_555
Ag1M N1F 1_555 1_555
Ag1B N1M 1_555 1_555
C1M C1 1_555 1_555
C2M H1M 1_555 1_555
C3M C2M 1_555 1_555
H2M C3M 1_555 1_555
C4M C5M 1_555 1_555
C5M H3M 1_555 1_555
N1G Ag1 1_555 1_555
N1M C3M 1_555 1_555
N2M Ag1M 1_555 1_555
N3M C4M 1_555 1_555
H4M N3M 1_555 1_555
H5M N3M 1_555 1_555
O1M Ag1M 1_555 1_555
O2M Ag1M 1_555 1_555
C1 O2 1_555 1_555
C4 N1 1_555 1_555
C5 N2 1_555 1_555
C1M O1M 1_555 1_555
C1M O2M 1_555 1_555
C2M N2M 1_555 1_555
C4M N1M 1_555 1_555
C5M N2M 1_555 1_555

#END
