
#######################################################################
#
#                 Cambridge Crystallographic Data Centre
#                                CCDC 
#
#######################################################################
#
# If this CIF has been generated from an entry in the Cambridge 
# Structural Database, then it will include bibliographic, chemical, 
# crystal, experimental, refinement or atomic coordinate data resulting 
# from the CCDC's data processing and validation procedures.
#
#######################################################################

data_TUYZIX
_symmetry_cell_setting           orthorhombic
_symmetry_space_group_name_H-M   'P b c a'
_symmetry_Int_Tables_number      61
_space_group_name_Hall           '-P 2ac 2ab'
loop_
_symmetry_equiv_pos_site_id
_symmetry_equiv_pos_as_xyz
1 x,y,z
2 1/2-x,-y,1/2+z
3 -x,1/2+y,1/2-z
4 1/2+x,1/2-y,-z
5 -x,-y,-z
6 1/2+x,y,1/2-z
7 x,1/2-y,1/2+z
8 1/2-x,1/2+y,z
_cell_length_a                   8.0697(7)
_cell_length_b                   18.2927(17)
_cell_length_c                   26.069(2)
_cell_angle_alpha                90
_cell_angle_beta                 90
_cell_angle_gamma                90
_cell_volume                     3848.22
loop_
_atom_site_label
_atom_site_type_symbol
_atom_site_fract_x
_atom_site_fract_y
_atom_site_fract_z
Ag1 Ag 0.245896(17) 0.074681(7) 0.273872(5)
C1 C 0.5644(2) -0.01106(9) 0.32242(6)
C2 C 0.4477(2) -0.04831(9) 0.35895(6)
C3 C 0.2984(2) -0.08330(9) 0.34910(7)
H1 H 0.2581 -0.0883 0.3150
C4 C 0.2088(2) -0.11106(10) 0.39069(7)
H2 H 0.1062 -0.1351 0.3848
C5 C 0.2681(2) -0.10383(10) 0.44068(7)
H3 H 0.2041 -0.1223 0.4684
C6 C 0.4193(2) -0.07009(9) 0.45077(7)
H4 H 0.4612 -0.0658 0.4847
C7 C 0.5058(2) -0.04306(9) 0.40894(6)
C8 C 0.3486(2) 0.15764(9) 0.38096(7)
H5 H 0.4238 0.1819 0.3587
C9 C 0.3580(2) 0.17293(9) 0.43341(7)
C10 C 0.2472(2) 0.13639(10) 0.46514(7)
H6 H 0.2488 0.1449 0.5011
C11 C 0.1346(2) 0.08769(10) 0.44457(7)
H7 H 0.0586 0.0624 0.4660
C12 C 0.1346(2) 0.07637(9) 0.39201(7)
H8 H 0.0571 0.0429 0.3779
C13 C 0.4873(2) 0.22448(10) 0.45385(7)
H9 H 0.4404 0.2530 0.4822
H10 H 0.5229 0.2576 0.4265
H11 H 0.5827 0.1964 0.4662
C14 C 0.3228(2) 0.18996(9) 0.18470(7)
H12 H 0.3749 0.1475 0.1712
C15 C 0.3169(2) 0.25216(9) 0.15392(7)
C16 C 0.2347(2) 0.31285(10) 0.17371(8)
H13 H 0.2245 0.3561 0.1538
C17 C 0.1677(3) 0.30987(10) 0.22263(8)
H14 H 0.1113 0.3509 0.2366
C18 C 0.1846(3) 0.24619(10) 0.25067(8)
H15 H 0.1414 0.2447 0.2846
C19 C 0.3991(3) 0.25273(11) 0.10227(8)
H16 H 0.5193 0.2567 0.1066
H17 H 0.3587 0.2945 0.0824
H18 H 0.3728 0.2073 0.0841
N1 N 0.70052(18) 0.01513(8) 0.34311(5)
N2 N 0.23985(18) 0.11085(8) 0.36009(6)
N3 N 0.25941(19) 0.18636(8) 0.23205(6)
O1 O 0.70193(16) 0.06986(7) 0.43220(5)
O2 O 0.83095(15) -0.04988(7) 0.41928(5)
S1 S 0.51344(5) -0.00371(2) 0.258881(16)
S2 S 0.70107(5) 0.00081(2) 0.405764(16)
Ag1E Ag 0.745896(17) 0.074681(7) 0.226128(5)
S1E S 0.01344(5) -0.00371(2) 0.241119(16)
loop_
_geom_bond_atom_site_label_1
_geom_bond_atom_site_label_2
_geom_bond_site_symmetry_1
_geom_bond_site_symmetry_2
Ag1 N2 1_555 1_555
C1 C2 1_555 1_555
C2 C3 1_555 1_555
C3 H1 1_555 1_555
C4 C3 1_555 1_555
H2 C4 1_555 1_555
C5 C4 1_555 1_555
H3 C5 1_555 1_555
C6 C5 1_555 1_555
H4 C6 1_555 1_555
C7 C2 1_555 1_555
C8 H5 1_555 1_555
C9 C8 1_555 1_555
C10 C9 1_555 1_555
H6 C10 1_555 1_555
C11 C10 1_555 1_555
H7 C11 1_555 1_555
C12 C11 1_555 1_555
H8 C12 1_555 1_555
C13 C9 1_555 1_555
H9 C13 1_555 1_555
H10 C13 1_555 1_555
H11 C13 1_555 1_555
C14 H12 1_555 1_555
C15 C14 1_555 1_555
C16 C15 1_555 1_555
H13 C16 1_555 1_555
C17 C16 1_555 1_555
H14 C17 1_555 1_555
C18 C17 1_555 1_555
H15 C18 1_555 1_555
C19 C15 1_555 1_555
H16 C19 1_555 1_555
H17 C19 1_555 1_555
H18 C19 1_555 1_555
N1 C1 1_555 1_555
N2 C8 1_555 1_555
N3 Ag1 1_555 1_555
O1 S2 1_555 1_555
O2 S2 1_555 1_555
S1 Ag1 1_555 1_555
S2 C7 1_555 1_555
Ag1E S1 1_555 1_555
S1E Ag1 1_555 1_555
C1 S1 1_555 1_555
C6 C7 1_555 1_555
C12 N2 1_555 1_555
C14 N3 1_555 1_555
C18 N3 1_555 1_555
N1 S2 1_555 1_555

#END
