
#######################################################################
#
#                 Cambridge Crystallographic Data Centre
#                                CCDC 
#
#######################################################################
#
# If this CIF has been generated from an entry in the Cambridge 
# Structural Database, then it will include bibliographic, chemical, 
# crystal, experimental, refinement or atomic coordinate data resulting 
# from the CCDC's data processing and validation procedures.
#
#######################################################################

data_TUZBAS
_symmetry_cell_setting           triclinic
_symmetry_space_group_name_H-M   'P -1'
_symmetry_Int_Tables_number      2
_space_group_name_Hall           '-P 1'
loop_
_symmetry_equiv_pos_site_id
_symmetry_equiv_pos_as_xyz
1 x,y,z
2 -x,-y,-z
_cell_length_a                   7.9460(2)
_cell_length_b                   14.9251(4)
_cell_length_c                   26.1355(6)
_cell_angle_alpha                104.9320(10)
_cell_angle_beta                 92.7760(10)
_cell_angle_gamma                91.083(2)
_cell_volume                     2989.78
loop_
_atom_site_label
_atom_site_type_symbol
_atom_site_fract_x
_atom_site_fract_y
_atom_site_fract_z
Ag1 Ag 0.98685(4) 0.05859(2) -0.042200(11)
Ag2 Ag 0.60291(4) 0.08071(2) -0.023364(13)
C1 C 0.7767(4) 0.0942(2) -0.13764(14)
C2 C 0.6853(4) 0.0971(3) -0.18835(14)
C3 C 0.5718(5) 0.0339(3) -0.22031(16)
H1 H 0.5418 -0.0208 -0.2117
C4 C 0.5037(6) 0.0541(4) -0.26564(18)
H2 H 0.4279 0.0118 -0.2881
C5 C 0.5461(6) 0.1361(4) -0.27821(18)
H3 H 0.4945 0.1492 -0.3081
C6 C 0.6628(5) 0.1984(3) -0.24740(16)
H4 H 0.6944 0.2526 -0.2562
C7 C 0.7313(4) 0.1767(3) -0.20251(14)
C8 C 1.2936(4) -0.0934(3) -0.10617(14)
C9 C 1.2306(4) -0.0805(3) -0.15878(14)
C10 C 1.1582(5) -0.0035(3) -0.17053(16)
H5 H 1.1446 0.0508 -0.1442
C11 C 1.1069(5) -0.0108(4) -0.22336(19)
H6 H 1.0554 0.0389 -0.2324
C12 C 1.1317(6) -0.0908(4) -0.26222(19)
H7 H 1.0960 -0.0941 -0.2971
C13 C 1.2080(5) -0.1665(3) -0.25085(16)
H8 H 1.2268 -0.2199 -0.2773
C14 C 1.2546(4) -0.1589(3) -0.19863(14)
C29 C 0.9336(5) 0.2643(3) 0.02319(15)
H17 H 0.8548 0.2597 -0.0049
C30 C 0.9395(4) 0.3445(3) 0.06383(14)
H18 H 0.8641 0.3913 0.0634
C31 C 1.0594(4) 0.3542(2) 0.10509(14)
C32 C 1.1656(5) 0.2814(3) 0.10351(14)
H19 H 1.2485 0.2852 0.1304
C33 C 1.1479(5) 0.2039(3) 0.06209(15)
H20 H 1.2202 0.1556 0.0621
C34 C 0.9592(5) 0.4997(3) 0.15327(16)
H21 H 0.9536 0.5252 0.1231
H22 H 0.9899 0.5481 0.1846
H23 H 0.8512 0.4729 0.1569
C35 C 0.5014(5) 0.2907(3) 0.02019(15)
H24 H 0.5642 0.2835 0.0497
C36 C 0.4191(4) 0.3720(3) 0.02492(14)
H25 H 0.4271 0.4182 0.0566
C37 C 0.3246(4) 0.3840(3) -0.01810(15)
C38 C 0.3202(5) 0.3140(3) -0.06444(16)
H26 H 0.2586 0.3200 -0.0945
C39 C 0.4070(5) 0.2360(3) -0.06561(17)
H27 H 0.4037 0.1898 -0.0973
C40 C 0.2252(5) 0.5288(3) 0.03010(16)
H28 H 0.1938 0.5002 0.0573
H29 H 0.1429 0.5731 0.0261
H30 H 0.3335 0.5598 0.0398
N1 N 0.8791(4) 0.1641(2) -0.11622(11)
N2 N 1.3608(4) -0.1726(2) -0.10755(11)
N5 N 1.0331(4) 0.1928(2) 0.02149(11)
N6 N 0.4980(4) 0.2212(2) -0.02366(13)
O1 O 1.0428(4) 0.2412(2) -0.17420(12)
O2 O 0.8111(5) 0.32504(19) -0.12531(12)
O3 O 1.5220(3) -0.2535(2) -0.18612(11)
O4 O 1.2489(4) -0.31932(18) -0.17307(11)
O9 O 1.0838(3) 0.42920(18) 0.14605(10)
O10 O 0.2334(4) 0.4594(2) -0.01883(11)
S1 S 0.74953(12) 0.00159(7) -0.11078(4)
S2 S 0.87960(15) 0.23892(7) -0.15377(4)
S3 S 1.28094(12) -0.00746(7) -0.04762(4)
S4 S 1.35425(13) -0.23895(7) -0.16939(4)
Ag2A Ag 1.39709(4) -0.08071(2) 0.023364(13)
Ag2_2 Ag 1.60291(4) 0.08071(2) -0.023364(13)
S3A S 0.71906(12) 0.00746(7) 0.04762(4)
S3_2 S 0.28094(12) -0.00746(7) -0.04762(4)
Ag3 Ag 0.03881(4) 0.45702(2) 0.549276(12)
Ag4 Ag 0.41252(4) 0.43561(2) 0.534809(12)
C15 C 0.2371(4) 0.4517(2) 0.65559(13)
C16 C 0.3369(4) 0.4544(2) 0.70533(14)
C17 C 0.4664(5) 0.5152(3) 0.73128(16)
H9 H 0.5027 0.5640 0.7181
C18 C 0.5403(5) 0.5007(3) 0.77762(17)
H10 H 0.6283 0.5404 0.7953
C19 C 0.4868(6) 0.4291(3) 0.79828(17)
H11 H 0.5393 0.4214 0.8294
C20 C 0.3570(5) 0.3692(3) 0.77329(15)
H12 H 0.3194 0.3211 0.7869
C21 C 0.2855(4) 0.3837(2) 0.72738(14)
C22 C -0.2815(4) 0.6208(3) 0.59187(14)
C23 C -0.2187(4) 0.6297(3) 0.64757(14)
C24 C -0.1433(5) 0.5650(3) 0.66978(15)
H13 H -0.1270 0.5049 0.6497
C25 C -0.0928(5) 0.5931(4) 0.72324(17)
H14 H -0.0385 0.5516 0.7391
C26 C -0.1215(5) 0.6812(4) 0.75328(17)
H15 H -0.0864 0.6979 0.7890
C27 C -0.2008(5) 0.7455(3) 0.73180(16)
H16 H -0.2218 0.8048 0.7522
C28 C -0.2473(5) 0.7172(3) 0.67863(14)
C41 C 0.0367(5) 0.2374(3) 0.52303(15)
H31 H 0.1118 0.2523 0.5526
C42 C -0.0062(5) 0.1463(3) 0.50150(15)
H32 H 0.0413 0.1008 0.5156
C43 C -0.1218(5) 0.1221(3) 0.45820(14)
C44 C -0.1814(5) 0.1911(3) 0.43775(15)
H33 H -0.2557 0.1777 0.4080
C45 C -0.1294(5) 0.2814(3) 0.46203(16)
H34 H -0.1721 0.3280 0.4478
C46 C -0.2753(6) 0.0026(3) 0.39372(17)
H35 H -0.3824 0.0307 0.4007
H36 H -0.2906 -0.0637 0.3841
H37 H -0.2272 0.0219 0.3651
C47 C 0.6104(5) 0.3046(3) 0.59235(17)
H38 H 0.6442 0.3620 0.6146
C48 C 0.6765(5) 0.2276(3) 0.60362(16)
H39 H 0.7530 0.2328 0.6324
C49 C 0.6267(5) 0.1420(3) 0.57118(16)
C50 C 0.5095(5) 0.1392(3) 0.52961(17)
H40 H 0.4695 0.0826 0.5078
C51 C 0.4535(5) 0.2200(3) 0.52096(16)
H41 H 0.3783 0.2170 0.4921
C52 C 0.8171(6) 0.0592(3) 0.6139(2)
H42 H 0.9132 0.0926 0.6063
H43 H 0.8464 -0.0035 0.6123
H44 H 0.7825 0.0887 0.6488
N3 N 0.1223(4) 0.3852(2) 0.64127(11)
N4 N -0.3519(4) 0.6928(2) 0.58243(12)
N7 N -0.0221(4) 0.3065(2) 0.50452(12)
N8 N 0.5015(4) 0.3037(2) 0.55202(13)
O5 O 0.1647(4) 0.22908(19) 0.65974(12)
O6 O -0.0379(3) 0.3333(2) 0.71028(11)
O7 O -0.2365(6) 0.8524(2) 0.63130(13)
O8 O -0.5148(4) 0.8014(2) 0.65278(12)
O11 O -0.1642(4) 0.03107(18) 0.44040(11)
O12 O 0.6823(4) 0.0592(2) 0.57591(13)
S5 S 0.26704(12) 0.53208(7) 0.62003(4)
S6 S 0.11918(14) 0.32158(7) 0.68477(4)
S7 S -0.26569(11) 0.51856(7) 0.54307(4)
S8 S -0.34657(17) 0.77930(8) 0.63779(4)
Ag4A Ag -0.41252(4) 0.56439(2) 0.465191(12)
Ag4_2 Ag -0.58748(4) 0.43561(2) 0.534809(12)
S7A S 0.26569(11) 0.48144(7) 0.45693(4)
S7_2 S 0.73431(11) 0.51856(7) 0.54307(4)
loop_
_geom_bond_atom_site_label_1
_geom_bond_atom_site_label_2
_geom_bond_site_symmetry_1
_geom_bond_site_symmetry_2
Ag1 N5 1_555 1_555
Ag2 N6 1_555 1_555
Ag3 N7 1_555 1_555
Ag4 N8 1_555 1_555
C1 C2 1_555 1_555
C2 C3 1_555 1_555
C3 H1 1_555 1_555
C4 C3 1_555 1_555
H2 C4 1_555 1_555
C5 C4 1_555 1_555
H3 C5 1_555 1_555
C6 C5 1_555 1_555
H4 C6 1_555 1_555
C7 C2 1_555 1_555
C8 C9 1_555 1_555
C9 C10 1_555 1_555
C10 H5 1_555 1_555
C11 C10 1_555 1_555
H6 C11 1_555 1_555
C12 C11 1_555 1_555
H7 C12 1_555 1_555
C13 C12 1_555 1_555
H8 C13 1_555 1_555
C14 C9 1_555 1_555
C15 C16 1_555 1_555
C16 C17 1_555 1_555
C17 H9 1_555 1_555
C18 C17 1_555 1_555
H10 C18 1_555 1_555
C19 C18 1_555 1_555
H11 C19 1_555 1_555
C20 C19 1_555 1_555
H12 C20 1_555 1_555
C21 C16 1_555 1_555
C22 C23 1_555 1_555
C23 C24 1_555 1_555
C24 H13 1_555 1_555
C25 C24 1_555 1_555
H14 C25 1_555 1_555
C26 C25 1_555 1_555
H15 C26 1_555 1_555
C27 C26 1_555 1_555
H16 C27 1_555 1_555
C28 C23 1_555 1_555
C29 H17 1_555 1_555
C30 C29 1_555 1_555
H18 C30 1_555 1_555
C31 C30 1_555 1_555
C32 C31 1_555 1_555
H19 C32 1_555 1_555
C33 C32 1_555 1_555
H20 C33 1_555 1_555
C34 H21 1_555 1_555
H22 C34 1_555 1_555
H23 C34 1_555 1_555
C35 H24 1_555 1_555
C36 C35 1_555 1_555
H25 C36 1_555 1_555
C37 C36 1_555 1_555
C38 C37 1_555 1_555
H26 C38 1_555 1_555
C39 C38 1_555 1_555
H27 C39 1_555 1_555
C40 H28 1_555 1_555
H29 C40 1_555 1_555
H30 C40 1_555 1_555
C41 H31 1_555 1_555
C42 C41 1_555 1_555
H32 C42 1_555 1_555
C43 C42 1_555 1_555
C44 C43 1_555 1_555
H33 C44 1_555 1_555
C45 C44 1_555 1_555
H34 C45 1_555 1_555
C46 H35 1_555 1_555
H36 C46 1_555 1_555
H37 C46 1_555 1_555
C47 H38 1_555 1_555
C48 C47 1_555 1_555
H39 C48 1_555 1_555
C49 C48 1_555 1_555
C50 C49 1_555 1_555
H40 C50 1_555 1_555
C51 C50 1_555 1_555
H41 C51 1_555 1_555
C52 H42 1_555 1_555
H43 C52 1_555 1_555
H44 C52 1_555 1_555
N1 C1 1_555 1_555
N2 C8 1_555 1_555
N3 C15 1_555 1_555
N4 C22 1_555 1_555
N5 C29 1_555 1_555
N6 C35 1_555 1_555
N7 C41 1_555 1_555
N8 C47 1_555 1_555
O1 S2 1_555 1_555
O2 S2 1_555 1_555
O3 S4 1_555 1_555
O4 S4 1_555 1_555
O5 S6 1_555 1_555
O6 S6 1_555 1_555
O7 S8 1_555 1_555
O8 S8 1_555 1_555
O9 C31 1_555 1_555
O10 C37 1_555 1_555
O11 C43 1_555 1_555
O12 C49 1_555 1_555
S1 Ag1 1_555 1_555
S2 C7 1_555 1_555
S3 Ag1 1_555 1_555
S4 C14 1_555 1_555
S5 Ag3 1_555 1_555
S6 C21 1_555 1_555
S7 Ag3 1_555 1_555
S8 C28 1_555 1_555
Ag2A S3 1_555 1_555
Ag2_2 S3 1_555 1_555
Ag4A S7 1_555 1_555
Ag4_2 S7 1_555 1_555
S3A Ag2 1_555 1_555
S3_2 Ag2 1_555 1_555
S7A Ag4 1_555 1_555
S7_2 Ag4 1_555 1_555
Ag2 S1 1_555 1_555
Ag4 S5 1_555 1_555
C1 S1 1_555 1_555
C6 C7 1_555 1_555
C8 S3 1_555 1_555
C13 C14 1_555 1_555
C15 S5 1_555 1_555
C20 C21 1_555 1_555
C22 S7 1_555 1_555
C27 C28 1_555 1_555
C33 N5 1_555 1_555
C34 O9 1_555 1_555
C39 N6 1_555 1_555
C40 O10 1_555 1_555
C45 N7 1_555 1_555
C46 O11 1_555 1_555
C51 N8 1_555 1_555
C52 O12 1_555 1_555
N1 S2 1_555 1_555
N2 S4 1_555 1_555
N3 S6 1_555 1_555
N4 S8 1_555 1_555

#END
