
#######################################################################
#
#                 Cambridge Crystallographic Data Centre
#                                CCDC 
#
#######################################################################
#
# If this CIF has been generated from an entry in the Cambridge 
# Structural Database, then it will include bibliographic, chemical, 
# crystal, experimental, refinement or atomic coordinate data resulting 
# from the CCDC's data processing and validation procedures.
#
#######################################################################

data_TUZGIE
_symmetry_cell_setting           monoclinic
_symmetry_space_group_name_H-M   'P 21/a'
_symmetry_Int_Tables_number      14
_space_group_name_Hall           '-P 2yab'
loop_
_symmetry_equiv_pos_site_id
_symmetry_equiv_pos_as_xyz
1 x,y,z
2 1/2-x,1/2+y,-z
3 -x,-y,-z
4 1/2+x,1/2-y,z
_cell_length_a                   12.934(3)
_cell_length_b                   9.938(4)
_cell_length_c                   14.079(4)
_cell_angle_alpha                90
_cell_angle_beta                 100.77(2)
_cell_angle_gamma                90
_cell_volume                     1777.81
loop_
_atom_site_label
_atom_site_type_symbol
_atom_site_fract_x
_atom_site_fract_y
_atom_site_fract_z
Sn1 Sn 0.22902(5) 0.12319(8) 0.05440(5)
S1 S 0.3872(2) -0.0962(3) -0.3243(2)
O1 O 0.2313(6) -0.0701(8) -0.0540(5)
O2 O 0.2708(6) -0.2152(7) -0.1607(5)
O3 O 0.5507(6) -0.1831(8) -0.4248(6)
C1 C 0.1664(9) -0.0178(12) 0.1388(9)
C2 C 0.1159(9) 0.2121(12) -0.0543(9)
C3 C 0.3941(8) 0.1343(11) 0.0551(8)
C4 C 0.2548(8) -0.0951(10) -0.1323(8)
C5 C 0.2514(8) 0.0128(11) -0.2117(8)
C6 C 0.1538(9) -0.0090(13) -0.2911(9)
C7 C 0.3504(8) 0.0204(10) -0.2481(7)
C8 C 0.4244(9) 0.1192(12) -0.2292(8)
C9 C 0.5096(8) 0.1014(11) -0.2757(7)
C10 C 0.5022(8) -0.0103(11) -0.3310(7)
C11 C 0.5719(9) -0.0728(12) -0.3880(8)
C12 C 0.6735(8) -0.0068(11) -0.3979(7)
C13 C 0.6847(8) 0.1294(12) -0.4099(7)
C14 C 0.7800(10) 0.1846(11) -0.4191(8)
C15 C 0.8664(8) 0.1002(13) -0.4186(9)
C16 C 0.8544(9) -0.0377(13) -0.4070(8)
C17 C 0.7596(9) -0.0904(11) -0.3957(8)
H1 H 0.1535 0.0244 0.1960
H2 H 0.1022 -0.0523 0.1031
H3 H 0.2150 -0.08940 0.1555
H4 H 0.0960 0.2971 -0.0326
H5 H 0.1447 0.2238 -0.1110
H6 H 0.0558 0.1554 -0.0683
H7 H 0.4266 0.0522 0.0790
H8 H 0.4053 0.1491 -0.0088
H9 H 0.4237 0.2064 0.0955
H10 H 0.2425 0.0971 -0.1825
H11 H 0.0921 -0.0006 -0.2640
H12 H 0.1526 0.0566 -0.3404
H13 H 0.1563 -0.0964 -0.3179
H14 H 0.4185 0.1932 -0.1880
H15 H 0.5672 0.1621 -0.2691
H16 H 0.6255 0.1866 -0.4118
H17 H 0.7870 0.2792 -0.4258
H18 H 0.9325 0.1363 -0.4261
H19 H 0.9127 -0.0958 -0.4068
H20 H 0.7529 -0.1845 -0.3864
O2A O 0.2292(6) 0.2848(7) 0.1607(5)
Sn1A Sn 0.27098(5) -0.37681(8) -0.05440(5)
loop_
_geom_bond_atom_site_label_1
_geom_bond_atom_site_label_2
_geom_bond_site_symmetry_1
_geom_bond_site_symmetry_2
Sn1 O1 1_555 1_555
S1 C7 1_555 1_555
O1 C4 1_555 1_555
O2 C4 1_555 1_555
O3 C11 1_555 1_555
C1 Sn1 1_555 1_555
C2 Sn1 1_555 1_555
C3 Sn1 1_555 1_555
C4 C5 1_555 1_555
C5 C6 1_555 1_555
C6 H11 1_555 1_555
C7 C5 1_555 1_555
C8 C7 1_555 1_555
C9 C8 1_555 1_555
C10 S1 1_555 1_555
C11 C10 1_555 1_555
C12 C11 1_555 1_555
C13 C12 1_555 1_555
C14 C13 1_555 1_555
C15 C14 1_555 1_555
C16 C15 1_555 1_555
C17 C12 1_555 1_555
H1 C1 1_555 1_555
H2 C1 1_555 1_555
H3 C1 1_555 1_555
H4 C2 1_555 1_555
H5 C2 1_555 1_555
H6 C2 1_555 1_555
H7 C3 1_555 1_555
H8 C3 1_555 1_555
H9 C3 1_555 1_555
H10 C5 1_555 1_555
H12 C6 1_555 1_555
H13 C6 1_555 1_555
H14 C8 1_555 1_555
H15 C9 1_555 1_555
H16 C13 1_555 1_555
H17 C14 1_555 1_555
H18 C15 1_555 1_555
H19 C16 1_555 1_555
H20 C17 1_555 1_555
O2A Sn1 1_555 1_555
Sn1A O2 1_555 1_555
C9 C10 1_555 1_555
C16 C17 1_555 1_555

#END
