
#######################################################################
#
#                 Cambridge Crystallographic Data Centre
#                                CCDC 
#
#######################################################################
#
# If this CIF has been generated from an entry in the Cambridge 
# Structural Database, then it will include bibliographic, chemical, 
# crystal, experimental, refinement or atomic coordinate data resulting 
# from the CCDC's data processing and validation procedures.
#
#######################################################################

data_TUZLAB
_symmetry_cell_setting           monoclinic
_symmetry_space_group_name_H-M   'P 21/c'
_symmetry_Int_Tables_number      14
_space_group_name_Hall           '-P 2ybc'
loop_
_symmetry_equiv_pos_site_id
_symmetry_equiv_pos_as_xyz
1 x,y,z
2 -x,1/2+y,1/2-z
3 -x,-y,-z
4 x,1/2-y,1/2+z
_cell_length_a                   10.623(2)
_cell_length_b                   7.9559(9)
_cell_length_c                   6.1932(5)
_cell_angle_alpha                90
_cell_angle_beta                 104.49(1)
_cell_angle_gamma                90
_cell_volume                     506.772
loop_
_atom_site_label
_atom_site_type_symbol
_atom_site_fract_x
_atom_site_fract_y
_atom_site_fract_z
Pb1 Pb -0.2993(1) 0.4370(2) 0.4776(3)
C1 C -0.453(2) 0.052(4) 0.450(2)
N1 N -0.182(1) 0.695(4) 0.182(5)
O1 O -0.351(1) 0.125(3) 0.557(3)
O2 O -0.474(2) 0.028(3) 0.243(2)
O3 O -0.283(1) 0.738(2) 0.214(4)
O4 O -0.131(2) 0.557(1) 0.209(3)
O5 O -0.100(1) 0.808(2) 0.174(3)
O6 O -0.150(2) 0.182(2) 0.382(3)
C1B C -0.547(2) -0.052(4) 0.550(2)
O1B O -0.649(1) -0.125(3) 0.443(3)
O2B O -0.526(2) -0.028(3) 0.757(2)
N1C N -0.182(1) 0.805(4) 0.682(5)
O3C O -0.283(1) 0.762(2) 0.714(4)
O4C O -0.131(2) 0.943(1) 0.709(3)
O5C O -0.100(1) 0.692(2) 0.674(3)
O6C O -0.150(2) 0.318(2) 0.882(3)
Pb1B Pb -0.7007(1) -0.4370(2) 0.5224(3)
O1C O -0.351(1) 0.375(3) 0.057(3)
O2A O -0.526(2) 0.528(3) 0.257(2)
O2C O -0.474(2) 0.472(3) 0.743(2)
Pb1C Pb -0.2993(1) 0.0630(2) 0.9776(3)
Pb1A Pb -0.7007(1) -0.0630(2) 0.0224(3)
Pb1C_2 Pb -0.2993(1) 0.0630(2) -0.0224(3)
Pb1C_3 Pb -0.2993(1) 1.0630(2) -0.0224(3)
Pb1A_2 Pb -0.7007(1) -0.0630(2) 1.0224(3)
Pb1C_4 Pb -0.2993(1) 1.0630(2) 0.9776(3)
O1A O -0.649(1) -0.375(3) 0.943(3)
O2A_2 O -0.526(2) -0.472(3) 0.257(2)
O2C_2 O -0.474(2) -0.528(3) 0.743(2)
O3A O -0.717(1) -0.762(2) 0.286(4)
O3B O -0.717(1) -0.738(2) 0.786(4)
O4B O -0.869(2) -0.557(1) 0.791(3)
O5A O -0.900(1) -0.692(2) 0.326(3)
O6B O -0.850(2) -0.182(2) 0.618(3)
O6A O -0.850(2) -0.318(2) 0.118(3)
loop_
_geom_bond_atom_site_label_1
_geom_bond_atom_site_label_2
_geom_bond_site_symmetry_1
_geom_bond_site_symmetry_2
Pb1 O1 1_555 1_555
C1 O1 1_555 1_555
N1 O3 1_555 1_555
O1 Pb1C 1_555 1_555
O2 C1 1_555 1_555
O3 Pb1 1_555 1_555
O4 Pb1 1_555 1_555
O5 N1 1_555 1_555
O6 Pb1 1_555 1_555
C1B C1 1_555 1_555
O1B C1B 1_555 1_555
O2B C1B 1_555 1_555
N1C O3C 1_555 1_555
O3C Pb1 1_555 1_555
O4C N1C 1_555 1_555
O5C Pb1 1_555 1_555
O6C Pb1 1_555 1_555
Pb1B O1B 1_555 1_555
O1C Pb1 1_555 1_555
O2A Pb1 1_555 1_555
O2C Pb1 1_555 1_555
Pb1C O2B 1_555 1_555
Pb1A O2 1_555 1_555
Pb1C_2 O2 1_555 1_555
Pb1C_3 O3 1_555 1_555
Pb1A_2 O2B 1_555 1_555
Pb1C_4 O3C 1_555 1_555
O1A Pb1B 1_555 1_555
O2A_2 Pb1B 1_555 1_555
O2C_2 Pb1B 1_555 1_555
O3A Pb1B 1_555 1_555
O3B Pb1B 1_555 1_555
O4B Pb1B 1_555 1_555
O5A Pb1B 1_555 1_555
O6B Pb1B 1_555 1_555
O6A Pb1B 1_555 1_555
N1 O4 1_555 1_555
O5 Pb1C_3 1_555 1_555
O6 Pb1C_2 1_555 1_555
O1B Pb1A 1_555 1_555
N1C O5C 1_555 1_555
O4C Pb1C_4 1_555 1_555
O6C Pb1C 1_555 1_555
O1C Pb1C_2 1_555 1_555
Pb1A O6A 1_555 1_555
Pb1A_2 O1A 1_555 1_555
Pb1A_2 O6B 1_555 1_555

#END
