
#######################################################################
#
#                 Cambridge Crystallographic Data Centre
#                                CCDC 
#
#######################################################################
#
# If this CIF has been generated from an entry in the Cambridge 
# Structural Database, then it will include bibliographic, chemical, 
# crystal, experimental, refinement or atomic coordinate data resulting 
# from the CCDC's data processing and validation procedures.
#
#######################################################################

data_TUZMOR01
_symmetry_cell_setting           triclinic
_symmetry_space_group_name_H-M   'P -1'
_symmetry_Int_Tables_number      2
_space_group_name_Hall           '-P 1'
loop_
_symmetry_equiv_pos_site_id
_symmetry_equiv_pos_as_xyz
1 x,y,z
2 -x,-y,-z
_cell_length_a                   7.048(4)
_cell_length_b                   7.100(3)
_cell_length_c                   8.112(4)
_cell_angle_alpha                103.814(7)
_cell_angle_beta                 95.828(8)
_cell_angle_gamma                103.003(7)
_cell_volume                     378.875
loop_
_atom_site_label
_atom_site_type_symbol
_atom_site_fract_x
_atom_site_fract_y
_atom_site_fract_z
Co1 Co 0.55659(6) 0.53678(6) 0.71402(5)
O1 O 0.5937(3) 0.3139(3) 0.8331(3)
N1 N 0.3430(4) 0.1504(4) 0.4885(3)
O2 O 0.6293(4) 0.7796(4) 0.9301(3)
N2 N 0.4464(4) 0.3032(4) 0.4758(3)
O3 O 0.8078(4) 0.1444(4) 0.9000(3)
N3 N 0.8626(4) 0.5589(4) 0.7288(3)
C1 C 0.9184(4) 0.4113(5) 0.7802(4)
C2 C 0.7612(5) 0.2748(5) 0.8416(4)
C3 C 1.0021(5) 0.6938(5) 0.6908(4)
H1 H 0.9692 0.8005 0.6574
N4 N 0.2465(5) 0.0059(5) 0.5045(4)
H2 H 0.677(6) 0.890(7) 0.924(5)
H3 H 0.563(6) 0.782(6) 1.000(6)
N5 N 1.2487(4) 0.5269(4) 0.7401(3)
C4 C 1.1936(5) 0.6800(5) 0.6995(4)
H4 H 1.2881 0.7807 0.6763
C5 C 1.1100(5) 0.3933(5) 0.7834(4)
H5 H 1.1430 0.2863 0.8162
Co1A Co 0.44341(6) 0.46322(6) 0.28598(5)
Co1_2 Co 1.55659(6) 0.53678(6) 0.71402(5)
N2A N 0.5536(4) 0.6968(4) 0.5242(3)
N5_2 N 0.2487(4) 0.5269(4) 0.7401(3)
loop_
_geom_bond_atom_site_label_1
_geom_bond_atom_site_label_2
_geom_bond_site_symmetry_1
_geom_bond_site_symmetry_2
Co1 O1 1_555 1_555
O1 C2 1_555 1_555
N1 N2 1_555 1_555
O2 Co1 1_555 1_555
N2 Co1 1_555 1_555
O3 C2 1_555 1_555
N3 Co1 1_555 1_555
C1 N3 1_555 1_555
C2 C1 1_555 1_555
C3 N3 1_555 1_555
H1 C3 1_555 1_555
N4 N1 1_555 1_555
H2 O2 1_555 1_555
H3 O2 1_555 1_555
N5 C4 1_555 1_555
C4 C3 1_555 1_555
H4 C4 1_555 1_555
C5 C1 1_555 1_555
H5 C5 1_555 1_555
Co1A N2 1_555 1_555
Co1_2 N5 1_555 1_555
N2A Co1 1_555 1_555
N5_2 Co1 1_555 1_555
N5 C5 1_555 1_555
Co1A N2A 1_555 1_555

#END
