
#######################################################################
#
#                 Cambridge Crystallographic Data Centre
#                                CCDC 
#
#######################################################################
#
# If this CIF has been generated from an entry in the Cambridge 
# Structural Database, then it will include bibliographic, chemical, 
# crystal, experimental, refinement or atomic coordinate data resulting 
# from the CCDC's data processing and validation procedures.
#
#######################################################################

data_TUZNAE
_symmetry_cell_setting           triclinic
_symmetry_space_group_name_H-M   'P -1'
_symmetry_Int_Tables_number      2
_space_group_name_Hall           '-P 1'
loop_
_symmetry_equiv_pos_site_id
_symmetry_equiv_pos_as_xyz
1 x,y,z
2 -x,-y,-z
_cell_length_a                   7.4957(7)
_cell_length_b                   7.5942(7)
_cell_length_c                   9.4664(8)
_cell_angle_alpha                83.1980(10)
_cell_angle_beta                 73.1330(10)
_cell_angle_gamma                62.1050(10)
_cell_volume                     455.668
loop_
_atom_site_label
_atom_site_type_symbol
_atom_site_fract_x
_atom_site_fract_y
_atom_site_fract_z
Mn1 Mn 0.5000 0.0000 0.0000
Mn2 Mn 0.0000 0.5000 0.0000
O1 O 0.2920(2) 0.00815(19) -0.12959(14)
O2 O 0.1257(2) 0.3255(2) -0.19141(14)
N1 N 0.3004(2) 0.3183(2) 0.06429(17)
N2 N 0.3476(2) 0.4056(2) 0.13191(16)
N3 N 0.3919(3) 0.4914(3) 0.1972(2)
N4 N 0.2738(2) -0.0641(2) -0.79888(15)
H1 H 0.1453 0.0004 -0.8140
H2 H 0.3121 -0.1952 -0.8024
O3 O 0.1439(3) 0.7011(3) -0.1204(2)
C1 C 0.2127(3) 0.1414(3) -0.21817(18)
C2 C 0.2223(3) 0.0807(3) -0.36649(18)
C3 C 0.3514(3) -0.1127(3) -0.42249(18)
H3 H 0.4281 -0.2102 -0.3649
C4 C 0.3665(3) -0.1613(3) -0.56335(19)
H4 H 0.4536 -0.2910 -0.6000
C5 C 0.1068(3) 0.2241(3) -0.45412(19)
H5 H 0.0189 0.3537 -0.4174
C6 C 0.1209(3) 0.1765(3) -0.59451(19)
H6 H 0.0429 0.2735 -0.6517
C7 C 0.2519(3) -0.0166(3) -0.65011(18)
H7 H 0.271(6) 0.621(6) -0.164(4)
H8 H 0.148(5) 0.790(5) -0.091(3)
Mn1_2 Mn 0.5000 0.0000 -1.0000
Mn1_3 Mn 0.5000 0.0000 1.0000
Mn2_2 Mn 1.0000 -0.5000 0.0000
O1A O 0.7080(2) -0.00815(19) 0.12959(14)
O2A O 0.8743(2) -0.3255(2) 0.19141(14)
O2A_2 O -0.1257(2) 0.6745(2) 0.19141(14)
N1A N 0.6996(2) -0.3183(2) -0.06429(17)
N1A_2 N -0.3004(2) 0.6817(2) -0.06429(17)
N2A N 0.6524(2) -0.4056(2) -0.13191(16)
N3A N 0.6081(3) -0.4914(3) -0.1972(2)
N4A N 0.7262(2) 0.0641(2) 0.79888(15)
N4_2 N 0.2738(2) -0.0641(2) 0.20112(15)
N4A_2 N 0.7262(2) 0.0641(2) -0.20112(15)
H1A H 0.8547 -0.0004 0.8140
H1_2 H 0.1453 0.0004 0.1860
H1A_2 H 0.8547 -0.0004 -0.1860
H2A H 0.6879 0.1952 0.8024
H2_2 H 0.3121 -0.1952 0.1976
H2A_2 H 0.6879 0.1952 -0.1976
O3A O -0.1439(3) 0.2989(3) 0.1204(2)
C1A C 0.7873(3) -0.1414(3) 0.21817(18)
C2A C 0.7777(3) -0.0807(3) 0.36649(18)
C3A C 0.6486(3) 0.1127(3) 0.42249(18)
H3A H 0.5719 0.2102 0.3649
C4A C 0.6335(3) 0.1613(3) 0.56335(19)
H4A H 0.5464 0.2910 0.6000
C5A C 0.8932(3) -0.2241(3) 0.45412(19)
H5A H 0.9811 -0.3537 0.4174
C6A C 0.8791(3) -0.1765(3) 0.59451(19)
H6A H 0.9571 -0.2735 0.6517
C7A C 0.7481(3) 0.0166(3) 0.65011(18)
H7A H -0.271(6) 0.379(6) 0.164(4)
H8A H -0.148(5) 0.210(5) 0.091(3)
loop_
_geom_bond_atom_site_label_1
_geom_bond_atom_site_label_2
_geom_bond_site_symmetry_1
_geom_bond_site_symmetry_2
Mn1 O1 1_555 1_555
Mn2 O2 1_555 1_555
O1 C1 1_555 1_555
O2 C1 1_555 1_555
N1 Mn1 1_555 1_555
N2 N1 1_555 1_555
N3 N2 1_555 1_555
N4 H1 1_555 1_555
H2 N4 1_555 1_555
O3 Mn2 1_555 1_555
C1 C2 1_555 1_555
C2 C3 1_555 1_555
C3 H3 1_555 1_555
C4 C3 1_555 1_555
H4 C4 1_555 1_555
C5 C2 1_555 1_555
H5 C5 1_555 1_555
C6 C5 1_555 1_555
H6 C6 1_555 1_555
C7 N4 1_555 1_555
H7 O3 1_555 1_555
H8 O3 1_555 1_555
Mn1_2 N4 1_555 1_555
Mn1_3 N4A 1_555 1_555
Mn2_2 O2A 1_555 1_555
O1A Mn1 1_555 1_555
O2A C1A 1_555 1_555
O2A_2 Mn2 1_555 1_555
N1A Mn1 1_555 1_555
N1A_2 Mn2 1_555 1_555
N2A N1A 1_555 1_555
N3A N2A 1_555 1_555
N4A H1A 1_555 1_555
N4_2 Mn1 1_555 1_555
N4A_2 Mn1 1_555 1_555
H1_2 N4_2 1_555 1_555
H1A_2 N4A_2 1_555 1_555
H2A N4A 1_555 1_555
H2_2 N4_2 1_555 1_555
H2A_2 N4A_2 1_555 1_555
O3A Mn2 1_555 1_555
C1A O1A 1_555 1_555
C2A C1A 1_555 1_555
C3A C2A 1_555 1_555
H3A C3A 1_555 1_555
C4A C3A 1_555 1_555
H4A C4A 1_555 1_555
C5A C2A 1_555 1_555
H5A C5A 1_555 1_555
C6A C5A 1_555 1_555
H6A C6A 1_555 1_555
C7A N4A 1_555 1_555
H7A O3A 1_555 1_555
H8A O3A 1_555 1_555
Mn2 N1 1_555 1_555
C4 C7 1_555 1_555
C6 C7 1_555 1_555
Mn2_2 N1A 1_555 1_555
C4A C7A 1_555 1_555
C6A C7A 1_555 1_555

#END
