
#######################################################################
#
#                 Cambridge Crystallographic Data Centre
#                                CCDC 
#
#######################################################################
#
# If this CIF has been generated from an entry in the Cambridge 
# Structural Database, then it will include bibliographic, chemical, 
# crystal, experimental, refinement or atomic coordinate data resulting 
# from the CCDC's data processing and validation procedures.
#
#######################################################################

data_TUZNIM
_symmetry_cell_setting           monoclinic
_symmetry_space_group_name_H-M   'P 21/n'
_symmetry_Int_Tables_number      14
_space_group_name_Hall           '-P 2yn'
loop_
_symmetry_equiv_pos_site_id
_symmetry_equiv_pos_as_xyz
1 x,y,z
2 1/2-x,1/2+y,1/2-z
3 -x,-y,-z
4 1/2+x,1/2-y,1/2+z
_cell_length_a                   11.9024(8)
_cell_length_b                   6.0183(2)
_cell_length_c                   14.8927(11)
_cell_angle_alpha                90
_cell_angle_beta                 110.524(9)
_cell_angle_gamma                90
_cell_volume                     999.083
loop_
_atom_site_label
_atom_site_type_symbol
_atom_site_fract_x
_atom_site_fract_y
_atom_site_fract_z
Cu1 Cu 0.0000 0.0000 0.0000
N1 N 0.0313(2) 0.1814(4) 0.1187(2)
N2 N -0.1555(2) -0.1396(4) -0.0116(2)
N3 N -0.0460(2) 0.2934(5) 0.1316(2)
Cu2 Cu 0.19720(3) 0.29431(6) 0.13750(3)
N4 N -0.2241(2) -0.0975(5) 0.0303(2)
N5 N -0.1186(3) 0.3966(6) 0.1454(3)
N6 N 0.1247(2) 0.6809(4) 0.1029(2)
N7 N 0.3599(2) 0.3812(5) 0.1401(2)
N8 N 0.2332(2) 0.3853(4) 0.2753(2)
N9 N -0.2889(3) -0.0599(7) 0.0691(3)
N10 N 0.1942(2) 0.7802(4) 0.1643(2)
C1 C 0.3765(3) 0.5572(6) 0.0914(3)
C2 C 0.4565(3) 0.2677(7) 0.1940(3)
C3 C 0.4884(4) 0.6281(7) 0.0978(3)
C4 C 0.5710(3) 0.3293(8) 0.2020(4)
C5 C 0.5874(3) 0.5128(8) 0.1530(3)
N1B N -0.0313(2) -0.1814(4) -0.1187(2)
N2B N 0.1555(2) 0.1396(4) 0.0116(2)
Cu2B Cu -0.19720(3) -0.29431(6) -0.13750(3)
N3B N 0.0460(2) -0.2934(5) -0.1316(2)
N4B N 0.2241(2) 0.0975(5) -0.0303(2)
N6B N -0.1247(2) -0.6809(4) -0.1029(2)
N8B N -0.2332(2) -0.3853(4) -0.2753(2)
N7B N -0.3599(2) -0.3812(5) -0.1401(2)
N5B N 0.1186(3) -0.3966(6) -0.1454(3)
N9B N 0.2889(3) 0.0599(7) -0.0691(3)
N10B N -0.1942(2) -0.7802(4) -0.1643(2)
C2B C -0.4565(3) -0.2677(7) -0.1940(3)
C1B C -0.3765(3) -0.5572(6) -0.0914(3)
N8A N 0.2668(2) 0.8853(4) 0.2247(2)
N8C N -0.2668(2) -0.8853(4) -0.2247(2)
C4B C -0.5710(3) -0.3293(8) -0.2020(4)
C3B C -0.4884(4) -0.6281(7) -0.0978(3)
Cu2A Cu 0.30280(3) 0.79431(6) 0.36250(3)
Cu2C Cu -0.30280(3) -0.79431(6) -0.36250(3)
C5B C -0.5874(3) -0.5128(8) -0.1530(3)
loop_
_geom_bond_atom_site_label_1
_geom_bond_atom_site_label_2
_geom_bond_site_symmetry_1
_geom_bond_site_symmetry_2
Cu1 N1 1_555 1_555
N1 N3 1_555 1_555
N2 Cu1 1_555 1_555
N3 N5 1_555 1_555
Cu2 N1 1_555 1_555
N4 N2 1_555 1_555
N6 Cu2 1_555 1_555
N7 Cu2 1_555 1_555
N8 Cu2 1_555 1_555
N9 N4 1_555 1_555
N10 N6 1_555 1_555
C1 N7 1_555 1_555
C2 N7 1_555 1_555
C3 C1 1_555 1_555
C4 C2 1_555 1_555
C5 C3 1_555 1_555
N1B Cu1 1_555 1_555
N2B Cu1 1_555 1_555
Cu2B N2 1_555 1_555
N3B N1B 1_555 1_555
N4B N2B 1_555 1_555
N6B Cu2B 1_555 1_555
N8B Cu2B 1_555 1_555
N7B Cu2B 1_555 1_555
N5B N3B 1_555 1_555
N9B N4B 1_555 1_555
N10B N6B 1_555 1_555
C2B N7B 1_555 1_555
C1B N7B 1_555 1_555
N8A N10 1_555 1_555
N8C N10B 1_555 1_555
C4B C2B 1_555 1_555
C3B C1B 1_555 1_555
Cu2A N8A 1_555 1_555
Cu2C N8C 1_555 1_555
C5B C4B 1_555 1_555
Cu2 N2B 1_555 1_555
C4 C5 1_555 1_555
N1B Cu2B 1_555 1_555
C3B C5B 1_555 1_555

#END
