
#######################################################################
#
#                 Cambridge Crystallographic Data Centre
#                                CCDC 
#
#######################################################################
#
# If this CIF has been generated from an entry in the Cambridge 
# Structural Database, then it will include bibliographic, chemical, 
# crystal, experimental, refinement or atomic coordinate data resulting 
# from the CCDC's data processing and validation procedures.
#
#######################################################################

data_TUZNEI
_symmetry_cell_setting           monoclinic
_symmetry_space_group_name_H-M   'P 21/n'
_symmetry_Int_Tables_number      14
_space_group_name_Hall           '-P 2yn'
loop_
_symmetry_equiv_pos_site_id
_symmetry_equiv_pos_as_xyz
1 x,y,z
2 1/2-x,1/2+y,1/2-z
3 -x,-y,-z
4 1/2+x,1/2-y,1/2+z
_cell_length_a                   11.9395(6)
_cell_length_b                   6.0952(3)
_cell_length_c                   15.2200(9)
_cell_angle_alpha                90
_cell_angle_beta                 111.266(3)
_cell_angle_gamma                90
_cell_volume                     1032.19
loop_
_atom_site_label
_atom_site_type_symbol
_atom_site_fract_x
_atom_site_fract_y
_atom_site_fract_z
Cu1 Cu 0.19846(2) 1.21109(5) 0.13819(2)
Cu2 Cu 0.0000 0.5000 0.0000
N1 N 0.19413(17) 0.7248(3) 0.16592(14)
N2 N 0.12461(19) 0.8220(3) 0.10443(15)
N3 N 0.26699(17) 0.6221(3) 0.22656(13)
N4 N 0.15838(17) 0.3679(4) 0.01502(14)
N5 N 0.03114(17) 0.3219(3) 0.11649(14)
N6 N 0.22419(19) 0.4008(4) -0.02786(16)
N7 N -0.04519(19) 0.2128(4) 0.13073(17)
N8 N 0.36177(17) 1.1255(3) 0.14227(14)
N9 N 0.2873(3) 0.4298(6) -0.0672(3)
N10 N -0.1172(2) 0.1116(5) 0.1445(2)
C1 C 0.4574(3) 1.2407(6) 0.1935(2)
H1 H 0.4463 1.3635 0.2256
C2 C 0.3782(3) 0.9515(5) 0.0953(2)
H2 H 0.3114 0.8721 0.0578
N11 N 0.5899(3) 1.0048(7) 0.1536(3)
C3 C 0.4908(3) 0.8849(6) 0.1001(3)
H3 H 0.4996 0.7609 0.0676
C4 C 0.5722(3) 1.1864(7) 0.2011(3)
H4 H 0.6371 1.2710 0.2378
Cu1B Cu -0.19846(2) -0.21109(5) -0.13819(2)
Cu1_2 Cu 0.19846(2) 0.21109(5) 0.13819(2)
Cu1B_2 Cu -0.19846(2) 0.78891(5) -0.13819(2)
Cu1A Cu 0.30154(2) 0.71109(5) 0.36181(2)
Cu1C Cu -0.30154(2) 0.28891(5) -0.36181(2)
Cu2_2 Cu 0.0000 1.5000 0.0000
Cu2_3 Cu 0.0000 -0.5000 0.0000
N1B N -0.19413(17) 0.2752(3) -0.16592(14)
N2B N -0.12461(19) 0.1780(3) -0.10443(15)
N3B N -0.26699(17) 0.3779(3) -0.22656(13)
N3A N 0.23301(17) 1.1221(3) 0.27344(13)
N3C N -0.23301(17) -0.1221(3) -0.27344(13)
N4B N -0.15838(17) 0.6321(4) -0.01502(14)
N4_2 N 0.15838(17) 1.3679(4) 0.01502(14)
N4B_2 N -0.15838(17) -0.3679(4) -0.01502(14)
N5B N -0.03114(17) 0.6781(3) -0.11649(14)
N5_2 N 0.03114(17) 1.3219(3) 0.11649(14)
N5B_2 N -0.03114(17) -0.3219(3) -0.11649(14)
N6B N -0.22419(19) 0.5992(4) 0.02786(16)
N7B N 0.04519(19) 0.7872(4) -0.13073(17)
N8B N -0.36177(17) -0.1255(3) -0.14227(14)
N9B N -0.2873(3) 0.5702(6) 0.0672(3)
N10B N 0.1172(2) 0.8884(5) -0.1445(2)
C1B C -0.4574(3) -0.2407(6) -0.1935(2)
H1B H -0.4463 -0.3635 -0.2256
C2B C -0.3782(3) 0.0485(5) -0.0953(2)
H2B H -0.3114 0.1279 -0.0578
N11B N -0.5899(3) -0.0048(7) -0.1536(3)
C3B C -0.4908(3) 0.1151(6) -0.1001(3)
H3B H -0.4996 0.2391 -0.0676
C4B C -0.5722(3) -0.1864(7) -0.2011(3)
H4B H -0.6371 -0.2710 -0.2378
loop_
_geom_bond_atom_site_label_1
_geom_bond_atom_site_label_2
_geom_bond_site_symmetry_1
_geom_bond_site_symmetry_2
Cu1 N2 1_555 1_555
Cu2 N2 1_555 1_555
N1 N2 1_555 1_555
N3 N1 1_555 1_555
N4 Cu2 1_555 1_555
N5 Cu2 1_555 1_555
N6 N4 1_555 1_555
N7 N5 1_555 1_555
N8 Cu1 1_555 1_555
N9 N6 1_555 1_555
N10 N7 1_555 1_555
C1 N8 1_555 1_555
H1 C1 1_555 1_555
C2 N8 1_555 1_555
H2 C2 1_555 1_555
N11 C3 1_555 1_555
C3 C2 1_555 1_555
H3 C3 1_555 1_555
C4 C1 1_555 1_555
H4 C4 1_555 1_555
Cu1B N2B 1_555 1_555
Cu1_2 N4 1_555 1_555
Cu1B_2 N4B 1_555 1_555
Cu1A N3 1_555 1_555
Cu1C N3B 1_555 1_555
Cu2_2 N4_2 1_555 1_555
Cu2_3 N4B_2 1_555 1_555
N1B N2B 1_555 1_555
N2B Cu2 1_555 1_555
N3B N1B 1_555 1_555
N3A Cu1 1_555 1_555
N3C Cu1B 1_555 1_555
N4B Cu2 1_555 1_555
N4_2 Cu1 1_555 1_555
N4B_2 Cu1B 1_555 1_555
N5B Cu2 1_555 1_555
N5_2 Cu1 1_555 1_555
N5B_2 Cu1B 1_555 1_555
N6B N4B 1_555 1_555
N7B N5B 1_555 1_555
N8B Cu1B 1_555 1_555
N9B N6B 1_555 1_555
N10B N7B 1_555 1_555
C1B N8B 1_555 1_555
H1B C1B 1_555 1_555
C2B N8B 1_555 1_555
H2B C2B 1_555 1_555
N11B C3B 1_555 1_555
C3B C2B 1_555 1_555
H3B C3B 1_555 1_555
C4B C1B 1_555 1_555
H4B C4B 1_555 1_555
N5 Cu1_2 1_555 1_555
N11 C4 1_555 1_555
Cu1B_2 N5B 1_555 1_555
Cu2_2 N5_2 1_555 1_555
Cu2_3 N5B_2 1_555 1_555
N11B C4B 1_555 1_555

#END
