
#######################################################################
#
#                 Cambridge Crystallographic Data Centre
#                                CCDC 
#
#######################################################################
#
# If this CIF has been generated from an entry in the Cambridge 
# Structural Database, then it will include bibliographic, chemical, 
# crystal, experimental, refinement or atomic coordinate data resulting 
# from the CCDC's data processing and validation procedures.
#
#######################################################################

data_TUZROW
_symmetry_cell_setting           monoclinic
_symmetry_space_group_name_H-M   'P 21/c'
_symmetry_Int_Tables_number      14
_space_group_name_Hall           '-P 2ybc'
loop_
_symmetry_equiv_pos_site_id
_symmetry_equiv_pos_as_xyz
1 x,y,z
2 -x,1/2+y,1/2-z
3 -x,-y,-z
4 x,1/2-y,1/2+z
_cell_length_a                   14.5979(10)
_cell_length_b                   13.6986(11)
_cell_length_c                   21.6725(16)
_cell_angle_alpha                90
_cell_angle_beta                 103.250(6)
_cell_angle_gamma                90
_cell_volume                     4218.5
loop_
_atom_site_label
_atom_site_type_symbol
_atom_site_fract_x
_atom_site_fract_y
_atom_site_fract_z
Ru1 Ru 0.35872(11) 0.77756(13) 0.22138(8)
Zn1 Zn 0.24011(18) 0.2776(2) -0.04385(12)
C1 C 0.285(2) 0.6135(19) 0.1435(11)
C2 C 0.2804(18) 0.535(2) 0.1002(11)
H1 H 0.2218 0.5055 0.0830
C3 C 0.359(2) 0.4994(17) 0.0824(11)
C4 C 0.4444(17) 0.542(2) 0.1093(11)
H2 H 0.5000 0.5190 0.0993
C5 C 0.4475(16) 0.6207(18) 0.1525(12)
H3 H 0.5054 0.6508 0.1703
C6 C 0.2019(19) 0.656(2) 0.1586(11)
C7 C 0.112(2) 0.6248(17) 0.1342(10)
H4 H 0.1012 0.5673 0.1100
C8 C 0.0355(18) 0.679(2) 0.1453(11)
C9 C 0.060(2) 0.7606(17) 0.1849(11)
H5 H 0.0123 0.8004 0.1945
C10 C 0.152(2) 0.7817(18) 0.2093(11)
H6 H 0.1652 0.8340 0.2380
C11 C 0.2999(14) 0.965(2) 0.1550(15)
C12 C 0.2754(14) 1.0305(17) 0.1060(15)
H7 H 0.2582 1.0945 0.1142
C13 C 0.2761(14) 1.002(2) 0.0437(12)
C14 C 0.2974(14) 0.908(3) 0.0335(11)
H8 H 0.2926 0.8863 -0.0083
C15 C 0.3261(13) 0.8439(17) 0.0832(13)
H9 H 0.3458 0.7809 0.0750
C16 C 0.3045(14) 0.982(2) 0.2216(14)
C17 C 0.2784(13) 1.068(2) 0.2430(12)
H10 H 0.2570 1.1181 0.2136
C18 C 0.2820(13) 1.0852(19) 0.3053(13)
C19 C 0.3111(14) 1.012(3) 0.3489(12)
H11 H 0.3152 1.0214 0.3924
C20 C 0.3341(14) 0.923(2) 0.3253(13)
H12 H 0.3528 0.8710 0.3540
C21 C 0.5439(19) 0.7689(18) 0.3066(14)
C22 C 0.639(2) 0.7846(16) 0.3325(11)
H13 H 0.6663 0.7572 0.3721
C23 C 0.6930(16) 0.8398(19) 0.3012(13)
H14 H 0.7574 0.8504 0.3182
C24 C 0.647(2) 0.8788(16) 0.2428(13)
H15 H 0.6790 0.9177 0.2191
C25 C 0.5475(18) 0.8577(19) 0.2198(12)
H16 H 0.5168 0.8826 0.1800
C26 C 0.485(2) 0.7038(17) 0.3363(12)
C27 C 0.5188(17) 0.651(2) 0.3916(12)
H17 H 0.5809 0.6605 0.4150
C28 C 0.460(2) 0.585(2) 0.4117(11)
H18 H 0.4824 0.5473 0.4481
C29 C 0.3678(19) 0.5767(17) 0.3773(13)
H19 H 0.3261 0.5324 0.3895
C30 C 0.3394(16) 0.635(2) 0.3249(13)
H20 H 0.2759 0.6310 0.3033
N1 N 0.3695(17) 0.6525(11) 0.1682(7)
N2 N 0.2246(15) 0.7368(16) 0.1969(9)
N3 N 0.3266(11) 0.8701(17) 0.1448(9)
N4 N 0.3311(11) 0.9065(13) 0.2636(12)
N5 N 0.4970(13) 0.8043(14) 0.2524(10)
N6 N 0.3953(15) 0.6959(14) 0.3019(7)
O1 O 0.4257(13) 0.3833(14) 0.0269(8)
O2 O 0.2694(12) 0.3864(11) 0.0141(7)
O3 O -0.1100(12) 0.7278(13) 0.0797(8)
O4 O -0.0984(11) 0.5750(15) 0.1192(7)
O5 O 0.2681(10) 1.1651(14) 0.0128(7)
O6 O 0.2179(10) 1.0511(11) -0.0613(8)
O7 O 0.1963(12) 1.2326(12) 0.2931(8)
O8 O 0.3001(10) 1.2078(10) 0.3862(8)
C31 C 0.352(2) 0.4173(19) 0.0364(11)
C32 C -0.0666(19) 0.664(3) 0.1106(13)
C33 C 0.2501(14) 1.079(2) -0.0075(13)
C34 C 0.2565(19) 1.184(2) 0.3297(15)
Zn1B Zn -0.24011(18) 0.7224(2) 0.04385(12)
Zn1_2 Zn 0.24011(18) 1.2776(2) -0.04385(12)
Zn1C Zn 0.24011(18) 1.2224(2) 0.45615(12)
O3B O 0.1100(12) 0.2722(13) -0.0797(8)
O5_2 O 0.2681(10) 0.1651(14) 0.0128(7)
O8C O 0.3001(10) 0.2922(10) -0.1138(8)
O9 O 0.1449(9) 0.0764(10) 0.8041(6)
O10 O 0.4626(12) 0.1678(15) 0.9343(8)
O11 O -0.134(3) 0.794(3) 0.868(2)
C35 C -0.012(6) 0.939(5) 0.892(5)
C36 C 0.093(3) 0.839(5) 0.843(3)
N7 N -0.003(3) 0.854(4) 0.852(3)
C40 C -0.061(4) 0.776(4) 0.851(5)
O12 O 0.4107(14) 0.7028(13) 0.9824(11)
O13 O 0.210(2) 0.687(3) 0.974(2)
C37 C 0.155(3) 0.624(3) 0.957(3)
N8 N 0.094(2) 0.670(3) 0.972(2)
C38 C -0.004(3) 0.621(5) 0.959(4)
C39 C 0.075(3) 0.765(3) 0.998(3)
O14 O 0.0377(14) 0.558(2) 0.7789(11)
C41? C 0.204(7) 0.649(7) 0.934(7)
C42? C 0.034(6) 0.684(12) 0.900(7)
C43? C 0.135(10) 0.691(16) 0.824(5)
N9? N 0.123(4) 0.718(8) 0.887(5)
O15? O 0.235(4) 0.720(4) 0.914(3)
loop_
_geom_bond_atom_site_label_1
_geom_bond_atom_site_label_2
_geom_bond_site_symmetry_1
_geom_bond_site_symmetry_2
Ru1 N1 1_555 1_555
Zn1 O2 1_555 1_555
C1 C2 1_555 1_555
C2 H1 1_555 1_555
C3 C2 1_555 1_555
C4 C3 1_555 1_555
H2 C4 1_555 1_555
C5 C4 1_555 1_555
H3 C5 1_555 1_555
C6 C1 1_555 1_555
C7 C6 1_555 1_555
H4 C7 1_555 1_555
C8 C7 1_555 1_555
C9 C8 1_555 1_555
H5 C9 1_555 1_555
C10 C9 1_555 1_555
H6 C10 1_555 1_555
C11 C12 1_555 1_555
C12 H7 1_555 1_555
C13 C12 1_555 1_555
C14 C13 1_555 1_555
H8 C14 1_555 1_555
C15 C14 1_555 1_555
H9 C15 1_555 1_555
C16 C11 1_555 1_555
C17 C16 1_555 1_555
H10 C17 1_555 1_555
C18 C17 1_555 1_555
C19 C18 1_555 1_555
H11 C19 1_555 1_555
C20 C19 1_555 1_555
H12 C20 1_555 1_555
C21 C22 1_555 1_555
C22 H13 1_555 1_555
C23 C22 1_555 1_555
H14 C23 1_555 1_555
C24 C23 1_555 1_555
H15 C24 1_555 1_555
C25 C24 1_555 1_555
H16 C25 1_555 1_555
C26 C21 1_555 1_555
C27 C26 1_555 1_555
H17 C27 1_555 1_555
C28 C27 1_555 1_555
H18 C28 1_555 1_555
C29 C28 1_555 1_555
H19 C29 1_555 1_555
C30 C29 1_555 1_555
H20 C30 1_555 1_555
N1 C1 1_555 1_555
N2 Ru1 1_555 1_555
N3 Ru1 1_555 1_555
N4 Ru1 1_555 1_555
N5 Ru1 1_555 1_555
N6 Ru1 1_555 1_555
O1 C31 1_555 1_555
O2 C31 1_555 1_555
O3 C32 1_555 1_555
O4 C32 1_555 1_555
O5 C33 1_555 1_555
O6 C33 1_555 1_555
O7 C34 1_555 1_555
O8 C34 1_555 1_555
C31 C3 1_555 1_555
C32 C8 1_555 1_555
C33 C13 1_555 1_555
C34 C18 1_555 1_555
O11 C40 1_555 1_555
C35 N7 1_555 1_555
C36 N7 1_555 1_555
N7 C40 1_555 1_555
O13 C37 1_555 1_555
C37 N8 1_555 1_555
N8 C38 1_555 1_555
C39 N8 1_555 1_555
Zn1B O3 1_555 1_555
Zn1_2 O5 1_555 1_555
Zn1C O8 1_555 1_555
O3B Zn1 1_555 1_555
O5_2 Zn1 1_555 1_555
O8C Zn1 1_555 1_555
C5 N1 1_555 1_555
C6 N2 1_555 1_555
C10 N2 1_555 1_555
C11 N3 1_555 1_555
C15 N3 1_555 1_555
C16 N4 1_555 1_555
C20 N4 1_555 1_555
C21 N5 1_555 1_555
C25 N5 1_555 1_555
C26 N6 1_555 1_555
C30 N6 1_555 1_555

#END
