
#######################################################################
#
#                 Cambridge Crystallographic Data Centre
#                                CCDC 
#
#######################################################################
#
# If this CIF has been generated from an entry in the Cambridge 
# Structural Database, then it will include bibliographic, chemical, 
# crystal, experimental, refinement or atomic coordinate data resulting 
# from the CCDC's data processing and validation procedures.
#
#######################################################################

data_TUZXIW
_symmetry_cell_setting           orthorhombic
_symmetry_space_group_name_H-M   'P b c n'
_symmetry_Int_Tables_number      60
_space_group_name_Hall           '-P 2n 2ab'
loop_
_symmetry_equiv_pos_site_id
_symmetry_equiv_pos_as_xyz
1 x,y,z
2 1/2-x,1/2-y,1/2+z
3 1/2+x,1/2-y,-z
4 -x,y,1/2-z
5 -x,-y,-z
6 1/2+x,1/2+y,1/2-z
7 1/2-x,1/2+y,z
8 x,-y,1/2+z
_cell_length_a                   24.789(5)
_cell_length_b                   22.241(5)
_cell_length_c                   17.334(4)
_cell_angle_alpha                90
_cell_angle_beta                 90
_cell_angle_gamma                90
_cell_volume                     9556.79
loop_
_atom_site_label
_atom_site_type_symbol
_atom_site_fract_x
_atom_site_fract_y
_atom_site_fract_z
W1 W -0.06057(2) 0.26721(2) -0.03603(3)
W2 W -0.073115(19) 0.08551(2) 0.13873(3)
W3 W 0.074991(19) 0.08528(2) 0.14443(3)
W4 W 0.141856(18) 0.21647(2) 0.14925(3)
W5 W 0.07523(2) 0.26405(2) -0.03192(3)
W6 W -0.138303(18) 0.21732(2) 0.13463(3)
W7 W 0.070027(19) 0.36072(2) 0.14230(3)
W8 W -0.065721(19) 0.36114(2) 0.14075(3)
W9 W 0.00478(2) 0.13293(2) -0.03289(3)
Ag1 Ag -0.20807(5) 0.27341(5) -0.04337(8)
Ag2 Ag -0.29605(5) 0.22330(5) 0.20167(9)
P1 P 0.00217(10) 0.22266(13) 0.13564(16)
C1 C -0.2671(5) 0.1589(6) -0.0269(9)
H1 H -0.2933 0.1876 -0.0155
C2 C -0.1827(6) 0.1366(7) -0.0653(9)
H2 H -0.1488 0.1495 -0.0812
C3 C -0.2389(5) 0.5037(6) 0.2127(8)
C4 C -0.2560(6) -0.0093(7) -0.0323(9)
C5 C -0.3176(7) -0.0918(7) -0.0484(11)
H3 H -0.3520 -0.1056 -0.0604
C6 C -0.2166(6) -0.0521(6) -0.0136(9)
H4 H -0.1815 -0.0398 -0.0032
C7 C -0.1783(6) 0.5857(7) 0.1825(11)
H5 H -0.1461 0.5983 0.1602
C8 C -0.2297(6) -0.1127(6) -0.0107(9)
H6 H -0.2038 -0.1406 0.0041
C9 C -0.3052(6) 0.4226(7) 0.1883(10)
H7 H -0.3309 0.4508 0.1737
C10 C -0.2427(5) 0.0552(6) -0.0384(8)
C11 C -0.2725(7) 0.5478(7) 0.2469(10)
H8 H -0.3049 0.5369 0.2700
C12 C -0.1926(6) 0.0752(7) -0.0608(9)
H9 H -0.1655 0.0478 -0.0729
C13 C -0.2567(8) 0.6070(8) 0.2453(11)
H10 H -0.2797 0.6353 0.2671
C14 C -0.1909(7) 0.5241(7) 0.1810(10)
H11 H -0.1671 0.4969 0.1586
C15 C -0.2811(6) 0.0990(7) -0.0205(9)
H12 H -0.3155 0.0880 -0.0045
C16 C -0.3071(7) -0.0304(6) -0.0511(10)
H13 H -0.3341 -0.0036 -0.0655
C17 C -0.2189(6) 0.3965(8) 0.2363(10)
H14 H -0.1841 0.4062 0.2520
C18 C -0.2547(5) 0.4419(6) 0.2127(9)
C19 C -0.3177(6) 0.3627(7) 0.1855(9)
H15 H -0.3509 0.3514 0.1652
C20 C -0.2358(7) 0.3373(7) 0.2359(10)
H16 H -0.2121 0.3081 0.2542
N1 N -0.2200(5) 0.1776(5) -0.0476(7)
N2 N -0.2799(5) -0.1312(5) -0.0293(8)
N3 N -0.2840(5) 0.3195(5) 0.2107(8)
N4 N -0.2103(5) 0.6270(6) 0.2144(8)
O1 O 0.2098(3) 0.2282(4) 0.1389(5)
O2 O -0.2052(3) 0.2305(4) 0.1161(5)
O3 O 0.1211(4) 0.2907(4) -0.0983(5)
O4 O -0.1041(4) 0.2951(4) -0.1048(5)
O5 O -0.1100(3) 0.2305(4) 0.0326(4)
O6 O 0.0013(3) 0.0710(4) 0.1602(5)
O7 O 0.0998(4) 0.0148(4) 0.1290(5)
O8 O -0.0852(3) 0.0885(4) 0.2471(4)
O9 O 0.0080(4) 0.2915(4) -0.0756(5)
O10 O 0.1173(3) 0.2973(4) 0.1665(4)
O11 O -0.0482(3) 0.1052(4) 0.0356(5)
O12 O 0.1431(3) 0.2060(4) 0.2574(4)
O13 O 0.0030(3) 0.4008(4) 0.1272(5)
O14 O 0.0608(3) 0.1878(4) -0.0736(4)
O15 O 0.1128(3) 0.4198(4) 0.1274(5)
O16 O 0.0695(3) 0.3297(4) 0.0390(4)
O17 O 0.1208(3) 0.2298(4) 0.0428(5)
O18 O -0.0976(4) 0.0155(4) 0.1212(5)
O19 O -0.0468(3) 0.1892(4) -0.0776(4)
O20 O 0.0526(3) 0.1892(3) 0.1631(4)
O21 O -0.0586(3) 0.3303(4) 0.0356(5)
O22 O -0.1360(3) 0.1330(4) 0.1207(5)
O23 O -0.1077(3) 0.4194(4) 0.1197(5)
O24 O -0.0489(3) 0.1899(4) 0.1586(4)
O25 O 0.0054(4) 0.0792(4) -0.1013(5)
O26 O -0.1131(3) 0.2978(4) 0.1573(4)
O27 O 0.0016(3) 0.2884(4) 0.1611(5)
O28 O 0.0561(3) 0.1059(4) 0.0401(4)
O29 O 0.1396(3) 0.1319(4) 0.1335(5)
O30 O 0.0048(3) 0.2226(4) 0.0436(4)
O31 O 0.0601(3) 0.3729(4) 0.2518(4)
W1C W 0.06057(2) 0.26721(2) 0.53603(3)
W2C W 0.073115(19) 0.08551(2) 0.36127(3)
W3C W -0.074991(19) 0.08528(2) 0.35557(3)
W4C W -0.141856(18) 0.21647(2) 0.35075(3)
W5C W -0.07523(2) 0.26405(2) 0.53192(3)
W6C W 0.138303(18) 0.21732(2) 0.36537(3)
W7C W -0.070027(19) 0.36072(2) 0.35770(3)
W8C W 0.065721(19) 0.36114(2) 0.35925(3)
W9C W -0.00478(2) 0.13293(2) 0.53289(3)
Ag1F Ag -0.29193(5) 0.77341(5) -0.04337(8)
Ag1F_2 Ag -0.29193(5) -0.22659(5) -0.04337(8)
Ag1B Ag 0.29193(5) 0.22659(5) 0.04337(8)
Ag1C Ag 0.20807(5) 0.27341(5) 0.54337(8)
Ag1A Ag -0.29193(5) 0.22659(5) 0.45663(8)
Ag2B Ag 0.20395(5) 0.27670(5) -0.20167(9)
Ag2F Ag -0.20395(5) 0.72330(5) 0.20167(9)
Ag2F_2 Ag -0.20395(5) -0.27670(5) 0.20167(9)
Ag2C Ag 0.29605(5) 0.22330(5) 0.29833(9)
Ag2A Ag -0.20395(5) 0.27670(5) 0.70167(9)
P1C P -0.00217(10) 0.22266(13) 0.36436(16)
C1F C -0.2329(5) 0.6589(6) -0.0269(9)
H1F H -0.2067 0.6876 -0.0155
C2F C -0.3173(6) 0.6366(7) -0.0653(9)
H2F H -0.3512 0.6495 -0.0812
C3F C -0.2611(5) 0.0037(6) 0.2127(8)
C4F C -0.2440(6) 0.4907(7) -0.0323(9)
C5F C -0.1824(7) 0.4082(7) -0.0484(11)
H3F H -0.1480 0.3944 -0.0604
C6F C -0.2834(6) 0.4479(6) -0.0136(9)
H4F H -0.3185 0.4602 -0.0032
C7F C -0.3217(6) 0.0857(7) 0.1825(11)
H5F H -0.3539 0.0983 0.1602
C8F C -0.2703(6) 0.3873(6) -0.0107(9)
H6F H -0.2962 0.3594 0.0041
C9F C -0.1948(6) -0.0774(7) 0.1883(10)
H7F H -0.1691 -0.0492 0.1737
C10F C -0.2573(5) 0.5552(6) -0.0384(8)
C11F C -0.2275(7) 0.0478(7) 0.2469(10)
H8F H -0.1951 0.0369 0.2700
C12F C -0.3074(6) 0.5752(7) -0.0608(9)
H9F H -0.3345 0.5478 -0.0729
C13F C -0.2433(8) 0.1070(8) 0.2453(11)
H10F H -0.2203 0.1353 0.2671
C14F C -0.3091(7) 0.0241(7) 0.1810(10)
H11F H -0.3329 -0.0031 0.1586
C15F C -0.2189(6) 0.5990(7) -0.0205(9)
H12F H -0.1845 0.5880 -0.0045
C16F C -0.1929(7) 0.4696(6) -0.0511(10)
H13F H -0.1659 0.4964 -0.0655
C17F C -0.2811(6) -0.1035(8) 0.2363(10)
H14F H -0.3159 -0.0938 0.2520
C18F C -0.2453(5) -0.0581(6) 0.2127(9)
C19F C -0.1823(6) -0.1373(7) 0.1855(9)
H15F H -0.1491 -0.1486 0.1652
C20F C -0.2642(7) -0.1627(7) 0.2359(10)
H16F H -0.2879 -0.1919 0.2542
N1F N -0.2800(5) 0.6776(5) -0.0476(7)
N2F N -0.2201(5) 0.3688(5) -0.0293(8)
N2_2 N -0.2799(5) 0.8688(5) -0.0293(8)
N3F N -0.2160(5) -0.1805(5) 0.2107(8)
N3F_2 N -0.2160(5) 0.8195(5) 0.2107(8)
N4F N -0.2897(5) 0.1270(6) 0.2144(8)
O1B O -0.2902(3) 0.2718(4) -0.1389(5)
O1D O -0.2098(3) 0.7718(4) -0.1389(5)
O1C O -0.2098(3) 0.2282(4) 0.3611(5)
O2C O 0.2052(3) 0.2305(4) 0.3839(5)
O2F O -0.2948(3) 0.7305(4) 0.1161(5)
O3B O -0.3789(4) 0.2093(4) 0.0983(5)
O3C O -0.1211(4) 0.2907(4) 0.5983(5)
O3D O -0.1211(4) 0.7093(4) 0.0983(5)
O4F O -0.3959(4) 0.7951(4) -0.1048(5)
O4C O 0.1041(4) 0.2951(4) 0.6048(5)
O5C O 0.1100(3) 0.2305(4) 0.4674(4)
O6C O -0.0013(3) 0.0710(4) 0.3398(5)
O7C O -0.0998(4) 0.0148(4) 0.3710(5)
O8C O 0.0852(3) 0.0885(4) 0.2529(4)
O9C O -0.0080(4) 0.2915(4) 0.5756(5)
O10C O -0.1173(3) 0.2973(4) 0.3335(4)
O11C O 0.0482(3) 0.1052(4) 0.4644(5)
O12C O -0.1431(3) 0.2060(4) 0.2426(4)
O13C O -0.0030(3) 0.4008(4) 0.3728(5)
O14C O -0.0608(3) 0.1878(4) 0.5736(4)
O15C O -0.1128(3) 0.4198(4) 0.3726(5)
O16C O -0.0695(3) 0.3297(4) 0.4610(4)
O17C O -0.1208(3) 0.2298(4) 0.4572(5)
O18C O 0.0976(4) 0.0155(4) 0.3788(5)
O19C O 0.0468(3) 0.1892(4) 0.5776(4)
O20C O -0.0526(3) 0.1892(3) 0.3369(4)
O21C O 0.0586(3) 0.3303(4) 0.4644(5)
O22C O 0.1360(3) 0.1330(4) 0.3793(5)
O23C O 0.1077(3) 0.4194(4) 0.3803(5)
O24C O 0.0489(3) 0.1899(4) 0.3414(4)
O25C O -0.0054(4) 0.0792(4) 0.6013(5)
O26C O 0.1131(3) 0.2978(4) 0.3427(4)
O27C O -0.0016(3) 0.2884(4) 0.3389(5)
O28C O -0.0561(3) 0.1059(4) 0.4599(4)
O29C O -0.1396(3) 0.1319(4) 0.3665(5)
O30C O -0.0048(3) 0.2226(4) 0.4564(4)
O31C O -0.0601(3) 0.3729(4) 0.2482(4)
C21 C -0.0389(9) 0.4707(9) -0.2140(12)
H17 H -0.0662 0.4922 -0.1897
C22 C 0.0000 0.3107(9) -0.2500
C23 C 0.0000 0.3760(11) -0.2500
C24 C -0.0488(10) 0.2790(7) -0.2522(6)
H18 H -0.0818 0.2988 -0.2548
C25 C -0.0457(10) 0.2157(9) -0.2503(7)
H19 H -0.0774 0.1934 -0.2493
C26 C -0.0391(8) 0.4084(8) -0.2123(11)
H20 H -0.0661 0.3883 -0.1853
N5 N 0.0000 0.4994(12) -0.2500
H21 H 0.0000 0.5380 -0.2500
N6 N 0.0000 0.1880(12) -0.2500
H22 H 0.0000 0.1493 -0.2500
C21C C 0.0389(9) 0.4707(9) -0.2860(12)
H17C H 0.0662 0.4922 -0.3103
C24C C 0.0488(10) 0.2790(7) -0.2478(6)
H18C H 0.0818 0.2988 -0.2452
C25C C 0.0457(10) 0.2157(9) -0.2497(7)
H19C H 0.0774 0.1934 -0.2507
C26C C 0.0391(8) 0.4084(8) -0.2877(11)
H20C H 0.0661 0.3883 -0.3147
O32 O 0.0660(5) 0.0808(5) -0.2508(6)
O33 O 0.4492(11) 0.0360(12) 0.0323(15)
loop_
_geom_bond_atom_site_label_1
_geom_bond_atom_site_label_2
_geom_bond_site_symmetry_1
_geom_bond_site_symmetry_2
W1 O4 1_555 1_555
W2 O6 1_555 1_555
W3 O6 1_555 1_555
W4 O1 1_555 1_555
W5 O3 1_555 1_555
W6 O2 1_555 1_555
W7 O10 1_555 1_555
W8 O13 1_555 1_555
W9 O11 1_555 1_555
Ag1 N1 1_555 1_555
Ag2 N3 1_555 1_555
P1 O20 1_555 1_555
C1 H1 1_555 1_555
C2 H2 1_555 1_555
C3 C11 1_555 1_555
C4 C6 1_555 1_555
C5 H3 1_555 1_555
C6 H4 1_555 1_555
C7 H5 1_555 1_555
C8 C6 1_555 1_555
H6 C8 1_555 1_555
C9 H7 1_555 1_555
C10 C4 1_555 1_555
C11 H8 1_555 1_555
C12 C2 1_555 1_555
H9 C12 1_555 1_555
C13 C11 1_555 1_555
H10 C13 1_555 1_555
C14 C3 1_555 1_555
H11 C14 1_555 1_555
C15 C1 1_555 1_555
H12 C15 1_555 1_555
C16 C4 1_555 1_555
H13 C16 1_555 1_555
C17 H14 1_555 1_555
C18 C3 1_555 1_555
C19 C9 1_555 1_555
H15 C19 1_555 1_555
C20 C17 1_555 1_555
H16 C20 1_555 1_555
N1 C1 1_555 1_555
N2 C5 1_555 1_555
N3 C19 1_555 1_555
N4 C7 1_555 1_555
O1 Ag1B 1_555 1_555
O2 Ag2 1_555 1_555
O3 Ag2B 1_555 1_555
O4 Ag1 1_555 1_555
O5 W1 1_555 1_555
O7 W3 1_555 1_555
O8 W2 1_555 1_555
O9 W1 1_555 1_555
O10 W4 1_555 1_555
O11 W2 1_555 1_555
O12 W4 1_555 1_555
O13 W7 1_555 1_555
O14 W5 1_555 1_555
O15 W7 1_555 1_555
O16 W5 1_555 1_555
O17 W4 1_555 1_555
O18 W2 1_555 1_555
O19 W1 1_555 1_555
O20 W3 1_555 1_555
O21 W1 1_555 1_555
O22 W2 1_555 1_555
O23 W8 1_555 1_555
O24 W2 1_555 1_555
O25 W9 1_555 1_555
O26 W6 1_555 1_555
O27 W7 1_555 1_555
O28 W3 1_555 1_555
O29 W3 1_555 1_555
O30 W1 1_555 1_555
O31 W7 1_555 1_555
C21 H17 1_555 1_555
C22 C23 1_555 1_555
C23 C26 1_555 1_555
C24 C22 1_555 1_555
H18 C24 1_555 1_555
C25 C24 1_555 1_555
H19 C25 1_555 1_555
C26 C21 1_555 1_555
H20 C26 1_555 1_555
N5 C21 1_555 1_555
H21 N5 1_555 1_555
N6 C25 1_555 1_555
H22 N6 1_555 1_555
W1C O4C 1_555 1_555
W2C O6C 1_555 1_555
W3C O8 1_555 1_555
W4C O1C 1_555 1_555
W5C O3C 1_555 1_555
W6C O12 1_555 1_555
W7C O10C 1_555 1_555
W8C O31 1_555 1_555
W9C O11C 1_555 1_555
Ag1F N1F 1_555 1_555
Ag1F_2 N2 1_555 1_555
Ag1C O4C 1_555 1_555
Ag1A O1C 1_555 1_555
Ag2F N4 1_555 1_555
Ag2F_2 N3F 1_555 1_555
Ag2C O2C 1_555 1_555
Ag2A O3C 1_555 1_555
P1C O20C 1_555 1_555
C1F H1F 1_555 1_555
C2F H2F 1_555 1_555
C3F C11F 1_555 1_555
C4F C6F 1_555 1_555
C5F H3F 1_555 1_555
C6F H4F 1_555 1_555
C7F H5F 1_555 1_555
C8F C6F 1_555 1_555
H6F C8F 1_555 1_555
C9F H7F 1_555 1_555
C10F C4F 1_555 1_555
C11F H8F 1_555 1_555
C12F C2F 1_555 1_555
H9F C12F 1_555 1_555
C13F C11F 1_555 1_555
H10F C13F 1_555 1_555
C14F C3F 1_555 1_555
H11F C14F 1_555 1_555
C15F C1F 1_555 1_555
H12F C15F 1_555 1_555
C16F C4F 1_555 1_555
H13F C16F 1_555 1_555
C17F H14F 1_555 1_555
C18F C3F 1_555 1_555
C19F C9F 1_555 1_555
H15F C19F 1_555 1_555
C20F C17F 1_555 1_555
H16F C20F 1_555 1_555
N1F C1F 1_555 1_555
N2F Ag1 1_555 1_555
N2_2 Ag1F 1_555 1_555
N3F C19F 1_555 1_555
N3F_2 Ag2F 1_555 1_555
N4F Ag2 1_555 1_555
O1B Ag1 1_555 1_555
O1D Ag1F 1_555 1_555
O2C W6C 1_555 1_555
O2F Ag2F 1_555 1_555
O3B Ag2 1_555 1_555
O3D Ag2F 1_555 1_555
O4F Ag1F 1_555 1_555
O5C W1C 1_555 1_555
O6C W3C 1_555 1_555
O7C W3C 1_555 1_555
O8C W3 1_555 1_555
O9C W1C 1_555 1_555
O10C W4C 1_555 1_555
O11C W2C 1_555 1_555
O12C W6 1_555 1_555
O13C W7C 1_555 1_555
O14C W5C 1_555 1_555
O15C W7C 1_555 1_555
O16C W5C 1_555 1_555
O17C W4C 1_555 1_555
O18C W2C 1_555 1_555
O19C W1C 1_555 1_555
O20C W3C 1_555 1_555
O21C W1C 1_555 1_555
O22C W2C 1_555 1_555
O23C W8C 1_555 1_555
O24C W2C 1_555 1_555
O25C W9C 1_555 1_555
O26C W6C 1_555 1_555
O27C W7C 1_555 1_555
O28C W3C 1_555 1_555
O29C W3C 1_555 1_555
O30C W1C 1_555 1_555
O31C W8 1_555 1_555
C21C N5 1_555 1_555
H17C C21C 1_555 1_555
C24C C22 1_555 1_555
H18C C24C 1_555 1_555
C25C N6 1_555 1_555
H19C C25C 1_555 1_555
C26C C23 1_555 1_555
H20C C26C 1_555 1_555
W4 O20 1_555 1_555
W4 O29 1_555 1_555
W5 O9 1_555 1_555
W5 O17 1_555 1_555
W5 O30 1_555 1_555
W6 O5 1_555 1_555
W6 O22 1_555 1_555
W6 O24 1_555 1_555
W7 O16 1_555 1_555
W8 O21 1_555 1_555
W8 O26 1_555 1_555
W8 O27 1_555 1_555
W9 O14 1_555 1_555
W9 O19 1_555 1_555
W9 O28 1_555 1_555
W9 O30 1_555 1_555
P1 O24 1_555 1_555
P1 O27 1_555 1_555
P1 O30 1_555 1_555
C2 N1 1_555 1_555
C5 C16 1_555 1_555
C7 C14 1_555 1_555
C8 N2 1_555 1_555
C9 C18 1_555 1_555
C10 C12 1_555 1_555
C10 C15 1_555 1_555
C13 N4 1_555 1_555
C17 C18 1_555 1_555
C20 N3 1_555 1_555
W2C O8C 1_555 1_555
W4C O12C 1_555 1_555
W4C O20C 1_555 1_555
W4C O29C 1_555 1_555
W5C O9C 1_555 1_555
W5C O17C 1_555 1_555
W5C O30C 1_555 1_555
W6C O5C 1_555 1_555
W6C O22C 1_555 1_555
W6C O24C 1_555 1_555
W7C O16C 1_555 1_555
W7C O31C 1_555 1_555
W8C O13C 1_555 1_555
W8C O21C 1_555 1_555
W8C O26C 1_555 1_555
W8C O27C 1_555 1_555
W9C O14C 1_555 1_555
W9C O19C 1_555 1_555
W9C O28C 1_555 1_555
W9C O30C 1_555 1_555
P1C O24C 1_555 1_555
P1C O27C 1_555 1_555
P1C O30C 1_555 1_555
C2F N1F 1_555 1_555
C5F C16F 1_555 1_555
C5F N2F 1_555 1_555
C7F C14F 1_555 1_555
C7F N4F 1_555 1_555
C8F N2F 1_555 1_555
C9F C18F 1_555 1_555
C10F C12F 1_555 1_555
C10F C15F 1_555 1_555
C13F N4F 1_555 1_555
C17F C18F 1_555 1_555
C20F N3F 1_555 1_555
C21C C26C 1_555 1_555
C24C C25C 1_555 1_555

#END
