
#######################################################################
#
#                 Cambridge Crystallographic Data Centre
#                                CCDC 
#
#######################################################################
#
# If this CIF has been generated from an entry in the Cambridge 
# Structural Database, then it will include bibliographic, chemical, 
# crystal, experimental, refinement or atomic coordinate data resulting 
# from the CCDC's data processing and validation procedures.
#
#######################################################################

data_TUZXUI
_symmetry_cell_setting           monoclinic
_symmetry_space_group_name_H-M   'P 2/c'
_symmetry_Int_Tables_number      13
_space_group_name_Hall           '-P 2yc'
loop_
_symmetry_equiv_pos_site_id
_symmetry_equiv_pos_as_xyz
1 x,y,z
2 -x,y,1/2-z
3 -x,-y,-z
4 x,-y,1/2+z
_cell_length_a                   16.85(2)
_cell_length_b                   11.236(15)
_cell_length_c                   22.86(2)
_cell_angle_alpha                90
_cell_angle_beta                 125.46(7)
_cell_angle_gamma                90
_cell_volume                     3525.25
loop_
_atom_site_label
_atom_site_type_symbol
_atom_site_fract_x
_atom_site_fract_y
_atom_site_fract_z
Na2 Na -0.6005(8) 0.1861(9) -0.9373(6)
Na3 Na -0.3753(7) 0.3479(8) -0.8140(5)
Na4 Na -0.5952(7) -0.4914(10) -0.9339(5)
O1 O -0.708(4) 0.348(4) -0.960(3)
O2 O -0.678(4) 0.125(4) -1.057(3)
O3 O -0.285(3) 0.333(3) -0.8721(18)
W1 W -0.62441(8) 0.02165(9) -0.68861(5)
W2 W -0.72070(7) 0.02195(9) -0.87466(5)
W3 W -0.62396(7) -0.30588(9) -0.68820(5)
W4 W -0.71976(7) -0.30595(9) -0.87383(5)
W5 W -0.59567(7) -0.14160(9) -0.93407(5)
P1 P -0.5000 -0.1433(6) -0.7500
Ag1 Ag -1.0000 -0.5000 -1.0000
Ag2 Ag -1.02046(18) 0.1588(2) -1.00896(11)
Ag3 Ag -0.5000 -0.4637(2) -0.7500
Ag4 Ag -0.5000 0.1802(2) -0.7500
C1 C -1.0903(18) 0.129(2) -0.8498(13)
H1 H -1.1466 0.1124 -0.8528
C2 C -1.0837(16) -0.5249(17) -1.2225(11)
H2 H -1.1414 -0.5396 -1.2673
C3 C -0.928(2) 0.190(3) -0.8456(16)
H3 H -0.8741 0.2113 -0.8448
C4 C -0.9997(19) -0.499(2) -1.2163(14)
C5 C -0.922(2) 0.194(2) -0.7838(16)
H4 H -0.8655 0.2220 -0.7418
C6 C -0.919(2) -0.460(2) -1.0905(15)
H5 H -0.8647 -0.4317 -1.0471
C7 C -0.916(2) -0.464(2) -1.1504(13)
H6 H -0.8591 -0.4442 -1.1465
C8 C -1.0027(16) 0.1744(19) -1.2199(12)
C9 C -0.924(2) 0.199(2) -1.1500(14)
H7 H -0.8636 0.2155 -1.1415
C10 C -1.0044(17) 0.1551(19) -0.7831(12)
C11 C -1.089(2) 0.145(2) -1.2276(14)
H8 H -1.1451 0.1256 -1.2725
C12 C -1.081(2) -0.529(2) -1.1587(14)
H9 H -1.1357 -0.5535 -1.1615
C13 C -1.094(2) 0.128(2) -0.9115(14)
H10 H -1.1520 0.1093 -0.9549
C14 C -0.930(2) 0.200(3) -1.0946(16)
H11 H -0.8753 0.2167 -1.0490
C15 C -1.091(2) 0.146(2) -1.1666(13)
H12 H -1.1490 0.1248 -1.1728
N1 N -0.9996(17) -0.497(2) -1.0946(12)
N2 N -1.0143(16) 0.1537(18) -0.9112(11)
N3 N -1.0184(19) 0.175(2) -1.1031(13)
O4 O -0.8267(19) -0.371(2) -0.9344(13)
O5 O -0.553(2) -0.432(3) -0.6940(18)
O6 O -0.5051(17) -0.257(2) -0.6028(17)
O7 O -0.5000 -0.648(5) -0.7500
O8 O -0.560(2) 0.153(3) -0.6921(18)
O9 O -0.639(2) 0.154(2) -0.8420(16)
O10 O -0.8288(19) 0.083(3) -0.9349(16)
O11 O -0.761(2) -0.137(2) -0.8829(16)
O12 O -0.715(2) -0.307(2) -0.7898(14)
O13 O -0.705(3) 0.005(3) -0.7874(19)
O14 O -0.505(2) -0.019(3) -0.6048(15)
O15 O -0.639(3) -0.439(3) -0.8444(18)
O16 O -0.6846(17) 0.084(2) -0.6579(11)
O17 O -0.639(2) -0.140(2) -1.0210(16)
O18 O -0.660(3) -0.132(3) -0.703(2)
O19 O -0.6843(18) -0.363(3) -0.6552(14)
O20 O -0.701(5) -0.038(6) -0.950(4)
O21 O -0.690(3) -0.250(3) -0.947(2)
O22 O -0.5654(18) -0.028(2) -0.7619(13)
O23 O -0.558(2) -0.246(3) -0.7599(18)
O24 O -0.483(2) -0.142(2) -0.8069(15)
O25 O -0.408(2) -0.141(2) -0.6730(15)
W1A W -0.37559(8) 0.02165(9) -0.81139(5)
W2B W -1.27930(7) -1.02195(9) -1.12534(5)
W2A W -0.27930(7) 0.02195(9) -0.62534(5)
W3B W -1.37604(7) -0.69412(9) -1.31180(5)
W3A W -0.37604(7) -0.30588(9) -0.81180(5)
W4B W -1.28024(7) -0.69405(9) -1.12617(5)
W4A W -0.28024(7) -0.30595(9) -0.62617(5)
W5B W -1.40433(7) -0.85840(9) -1.06593(5)
W5A W -0.40433(7) -0.14160(9) -0.56593(5)
Ag1A Ag -1.0000 -0.5000 -1.5000
Ag1A_2 Ag 0.0000 -0.5000 -0.5000
Ag2B Ag -0.97954(18) -1.1588(2) -0.99104(11)
Ag2A Ag -0.97954(18) 0.1588(2) -0.49104(11)
Ag2A_2 Ag -0.97954(18) 0.1588(2) -1.49104(11)
Ag3B Ag -1.5000 -0.5363(2) -1.2500
Ag4_2 Ag -0.5000 -0.8198(2) -0.7500
C1A C -0.9097(18) 0.129(2) -0.6502(13)
H1A H -0.8534 0.1124 -0.6472
C2A C -0.9163(16) -0.5249(17) -1.2775(11)
H2A H -0.8586 -0.5396 -1.2327
C3A C -1.072(2) 0.190(3) -0.6544(16)
H3A H -1.1259 0.2113 -0.6552
C4A C -1.0003(19) -0.499(2) -1.2837(14)
C5A C -1.078(2) 0.194(2) -0.7162(16)
H4A H -1.1345 0.2220 -0.7582
C6A C -1.081(2) -0.460(2) -1.4095(15)
H5A H -1.1353 -0.4317 -1.4529
C7A C -1.084(2) -0.464(2) -1.3496(13)
H6A H -1.1409 -0.4442 -1.3535
C8A C -0.9973(16) 0.1744(19) -1.2801(12)
C9A C -1.076(2) 0.199(2) -1.3500(14)
H7A H -1.1364 0.2155 -1.3585
C10A C -0.9956(17) 0.1551(19) -0.7169(12)
C11A C -0.911(2) 0.145(2) -1.2724(14)
H8A H -0.8549 0.1256 -1.2275
C12A C -0.919(2) -0.529(2) -1.3413(14)
H9A H -0.8643 -0.5535 -1.3385
C13A C -0.906(2) 0.128(2) -0.5885(14)
H10A H -0.8480 0.1093 -0.5451
C14A C -1.070(2) 0.200(3) -1.4054(16)
H11A H -1.1247 0.2167 -1.4510
C15A C -0.909(2) 0.146(2) -1.3334(13)
H12A H -0.8510 0.1248 -1.3272
N1A N -1.0004(17) -0.497(2) -1.4054(12)
N1B N -1.0004(17) -0.503(2) -0.9054(12)
N2A N -0.9857(16) 0.1537(18) -0.5888(11)
N2B N -0.9857(16) -1.1537(18) -1.0888(11)
N3A N -0.9816(19) 0.175(2) -1.3969(13)
N3B N -0.9816(19) -1.175(2) -0.8969(13)
O4B O -1.1733(19) -0.629(2) -1.0656(13)
O4A O -0.1733(19) -0.371(2) -0.5656(13)
O5A O -0.447(2) -0.432(3) -0.8060(18)
O5B O -1.447(2) -0.568(3) -1.3060(18)
O6A O -0.4949(17) -0.257(2) -0.8972(17)
O6B O -1.4949(17) -0.743(2) -1.3972(17)
O6C O -1.5051(17) -0.743(2) -1.1028(17)
O7_2 O -0.5000 0.352(5) -0.7500
O8A O -0.440(2) 0.153(3) -0.8079(18)
O9A O -0.361(2) 0.154(2) -0.6580(16)
O9B O -1.361(2) -1.154(2) -1.1580(16)
O10B O -1.1712(19) -1.083(3) -1.0651(16)
O10A O -0.1712(19) 0.083(3) -0.5651(16)
O11B O -1.239(2) -0.863(2) -1.1171(16)
O11A O -0.239(2) -0.137(2) -0.6171(16)
O12B O -1.285(2) -0.693(2) -1.2102(14)
O12A O -0.285(2) -0.307(2) -0.7102(14)
O13A O -0.295(3) 0.005(3) -0.7126(19)
O13B O -1.295(3) -1.005(3) -1.2126(19)
O14A O -0.495(2) -0.019(3) -0.8952(15)
O14C O -1.505(2) -0.981(3) -1.1048(15)
O15B O -1.361(3) -0.561(3) -1.1556(18)
O15A O -0.361(3) -0.439(3) -0.6556(18)
O16A O -0.3154(17) 0.084(2) -0.8421(11)
O17B O -1.361(2) -0.860(2) -0.9790(16)
O17A O -0.361(2) -0.140(2) -0.4790(16)
O18A O -0.340(3) -0.132(3) -0.797(2)
O18B O -1.340(3) -0.868(3) -1.297(2)
O19B O -1.3157(18) -0.637(3) -1.3448(14)
O20B O -1.299(5) -0.962(6) -1.050(4)
O20A O -0.299(5) -0.038(6) -0.550(4)
O21B O -1.310(3) -0.750(3) -1.053(2)
O21A O -0.310(3) -0.250(3) -0.553(2)
O22A O -0.4346(18) -0.028(2) -0.7381(13)
O22B O -1.4346(18) -0.972(2) -1.2381(13)
O23A O -0.442(2) -0.246(3) -0.7401(18)
O23B O -1.442(2) -0.754(3) -1.2401(18)
O24A O -0.517(2) -0.142(2) -0.6931(15)
O24B O -1.517(2) -0.858(2) -1.1931(15)
O25A O -0.592(2) -0.141(2) -0.8270(15)
O25C O -1.408(2) -0.859(2) -1.1730(15)
Na1 Na -0.7217(8) 0.3478(9) -0.8745(6)
O26? O -0.731(3) 0.057(4) -0.794(2)
O27? O -0.326(3) -0.152(4) -0.814(2)
O28? O -0.668(3) -0.018(3) -0.925(2)
O29? O -0.659(3) -0.261(4) -0.914(2)
loop_
_geom_bond_atom_site_label_1
_geom_bond_atom_site_label_2
_geom_bond_site_symmetry_1
_geom_bond_site_symmetry_2
W1 O8 1_555 1_555
W2 O9 1_555 1_555
W3 O5 1_555 1_555
W4 O4 1_555 1_555
W5 O17 1_555 1_555
P1 O22 1_555 1_555
Ag1 N1 1_555 1_555
Ag2 N2 1_555 1_555
Ag3 O5 1_555 1_555
Ag4 O8 1_555 1_555
C1 H1 1_555 1_555
C2 H2 1_555 1_555
C3 H3 1_555 1_555
C4 C2 1_555 1_555
C5 C3 1_555 1_555
H4 C5 1_555 1_555
C6 H5 1_555 1_555
C7 C4 1_555 1_555
H6 C7 1_555 1_555
C8 C9 1_555 1_555
C9 H7 1_555 1_555
C10 C1 1_555 1_555
C11 C8 1_555 1_555
H8 C11 1_555 1_555
C12 C2 1_555 1_555
H9 C12 1_555 1_555
C13 C1 1_555 1_555
H10 C13 1_555 1_555
C14 C9 1_555 1_555
H11 C14 1_555 1_555
C15 C11 1_555 1_555
H12 C15 1_555 1_555
N1 C6 1_555 1_555
N2 C3 1_555 1_555
N3 Ag2 1_555 1_555
O4 Ag1 1_555 1_555
O6 W3 1_555 1_555
O7 Ag3 1_555 1_555
O9 Ag4 1_555 1_555
O10 W2 1_555 1_555
O11 W2 1_555 1_555
O12 W3 1_555 1_555
O13 W1 1_555 1_555
O14 W1 1_555 1_555
O15 W4 1_555 1_555
O16 W1 1_555 1_555
O18 W1 1_555 1_555
O19 W3 1_555 1_555
O20 W2 1_555 1_555
O21 W4 1_555 1_555
O22 W1 1_555 1_555
O23 W3 1_555 1_555
O24 W5 1_555 1_555
O25 P1 1_555 1_555
W1A O8A 1_555 1_555
W2B O9B 1_555 1_555
W2A O25 1_555 1_555
W3B O5B 1_555 1_555
W3A O5A 1_555 1_555
W4B O4B 1_555 1_555
W4A O4A 1_555 1_555
W5B O6C 1_555 1_555
W5A O6 1_555 1_555
Ag1A N1A 1_555 1_555
Ag1A_2 O4A 1_555 1_555
Ag2B N2B 1_555 1_555
Ag2A N2A 1_555 1_555
Ag2A_2 N3A 1_555 1_555
Ag3B O5B 1_555 1_555
Ag4_2 O7 1_555 1_555
C1A H1A 1_555 1_555
C2A H2A 1_555 1_555
C3A H3A 1_555 1_555
C4A C4 1_555 1_555
C5A C3A 1_555 1_555
H4A C5A 1_555 1_555
C6A H5A 1_555 1_555
C7A C4A 1_555 1_555
H6A C7A 1_555 1_555
C8A C8 1_555 1_555
C9A C8A 1_555 1_555
H7A C9A 1_555 1_555
C10A C10 1_555 1_555
C11A C8A 1_555 1_555
H8A C11A 1_555 1_555
C12A C2A 1_555 1_555
H9A C12A 1_555 1_555
C13A C1A 1_555 1_555
H10A C13A 1_555 1_555
C14A C9A 1_555 1_555
H11A C14A 1_555 1_555
C15A C11A 1_555 1_555
H12A C15A 1_555 1_555
N1A C6A 1_555 1_555
N1B Ag1 1_555 1_555
N2A C3A 1_555 1_555
N3A C14A 1_555 1_555
N3B Ag2B 1_555 1_555
O4B Ag1 1_555 1_555
O5A Ag3 1_555 1_555
O6A W5 1_555 1_555
O6B W3B 1_555 1_555
O7_2 Ag4 1_555 1_555
O8A Ag4 1_555 1_555
O9A Ag4 1_555 1_555
O10B W2B 1_555 1_555
O10A W2A 1_555 1_555
O11B W2B 1_555 1_555
O11A W2A 1_555 1_555
O12B W3B 1_555 1_555
O12A W4A 1_555 1_555
O13A W1A 1_555 1_555
O13B W2B 1_555 1_555
O14A W5 1_555 1_555
O14C W5B 1_555 1_555
O15B W4B 1_555 1_555
O15A Ag3 1_555 1_555
O16A W1A 1_555 1_555
O17B W5B 1_555 1_555
O17A W5A 1_555 1_555
O18A W1A 1_555 1_555
O18B W3B 1_555 1_555
O19B W3B 1_555 1_555
O20B W2B 1_555 1_555
O20A W2A 1_555 1_555
O21B W4B 1_555 1_555
O21A W4A 1_555 1_555
O22A P1 1_555 1_555
O22B W2B 1_555 1_555
O23A P1 1_555 1_555
O23B W3B 1_555 1_555
O24A P1 1_555 1_555
O24B W5B 1_555 1_555
O25A W2 1_555 1_555
O25C W2B 1_555 1_555
W2 O13 1_555 1_555
W2 O22 1_555 1_555
W3 O18 1_555 1_555
W4 O11 1_555 1_555
W4 O12 1_555 1_555
W4 O23 1_555 1_555
W5 O20 1_555 1_555
W5 O21 1_555 1_555
W5 O25A 1_555 1_555
P1 O23 1_555 1_555
P1 O24 1_555 1_555
P1 O25A 1_555 1_555
Ag2 O10 1_555 1_555
Ag3 O15 1_555 1_555
Ag3 O23 1_555 1_555
Ag3 O23A 1_555 1_555
Ag4 O22 1_555 1_555
Ag4 O22A 1_555 1_555
C5 C10 1_555 1_555
C6 C7 1_555 1_555
C12 N1 1_555 1_555
C13 N2 1_555 1_555
C14 N3 1_555 1_555
C15 N3 1_555 1_555
O14 W5A 1_555 1_555
O22 O22A 1_555 1_555
O22 O24A 1_555 1_555
O22 O25A 1_555 1_555
O23 O23A 1_555 1_555
O23 O24A 1_555 1_555
O23 O25A 1_555 1_555
O24 O22A 1_555 1_555
O24 O23A 1_555 1_555
O24 O25A 1_555 1_555
O25 W5A 1_555 1_555
O25 O22A 1_555 1_555
O25 O23A 1_555 1_555
O25 O24A 1_555 1_555
W1A O14A 1_555 1_555
W1A O22A 1_555 1_555
W2A O9A 1_555 1_555
W2A O13A 1_555 1_555
W2A O22A 1_555 1_555
W3A O6A 1_555 1_555
W3A O18A 1_555 1_555
W3A O23A 1_555 1_555
W4B O11B 1_555 1_555
W4B O12B 1_555 1_555
W4B O23B 1_555 1_555
W4A O11A 1_555 1_555
W4A O15A 1_555 1_555
W4A O23A 1_555 1_555
W5B O20B 1_555 1_555
W5B O21B 1_555 1_555
W5B O25C 1_555 1_555
W5A O20A 1_555 1_555
W5A O21A 1_555 1_555
W5A O24A 1_555 1_555
Ag2B O10B 1_555 1_555
Ag3B O15B 1_555 1_555
Ag3B O23B 1_555 1_555
C1A C10A 1_555 1_555
C2A C4A 1_555 1_555
C5A C10A 1_555 1_555
C6A C7A 1_555 1_555
C12A N1A 1_555 1_555
C13A N2A 1_555 1_555
C15A N3A 1_555 1_555
O22B O25C 1_555 1_555
O23B O25C 1_555 1_555
O24B O25C 1_555 1_555

#END
