
#######################################################################
#
#                 Cambridge Crystallographic Data Centre
#                                CCDC 
#
#######################################################################
#
# If this CIF has been generated from an entry in the Cambridge 
# Structural Database, then it will include bibliographic, chemical, 
# crystal, experimental, refinement or atomic coordinate data resulting 
# from the CCDC's data processing and validation procedures.
#
#######################################################################

data_TUZYIX
_symmetry_cell_setting           orthorhombic
_symmetry_space_group_name_H-M   'P b c a'
_symmetry_Int_Tables_number      61
_space_group_name_Hall           '-P 2ac 2ab'
loop_
_symmetry_equiv_pos_site_id
_symmetry_equiv_pos_as_xyz
1 x,y,z
2 1/2-x,-y,1/2+z
3 1/2+x,1/2-y,-z
4 -x,1/2+y,1/2-z
5 -x,-y,-z
6 1/2+x,y,1/2-z
7 1/2-x,1/2+y,z
8 x,1/2-y,1/2+z
_cell_length_a                   8.58799(10)
_cell_length_b                   9.78703(12)
_cell_length_c                   21.83420(26)
_cell_angle_alpha                90
_cell_angle_beta                 90
_cell_angle_gamma                90
_cell_volume                     1835.18
loop_
_atom_site_label
_atom_site_type_symbol
_atom_site_fract_x
_atom_site_fract_y
_atom_site_fract_z
P1 P 0.19580(25) 0.43673(26) 0.16790(12)
Mg1 Mg -0.1366(4) 0.58342(33) 0.15797(17)
C1 C 0.1496(5) 0.4577(4) 0.24834(14)
C2 C 0.0983(7) 0.6018(5) 0.26220(31)
O1 O 0.2584(6) 0.2923(4) 0.15583(22)
O2 O 0.3268(4) 0.5413(4) 0.15305(23)
O3 O 0.0495(4) 0.4660(5) 0.13015(20)
O4 O 0.2777(5) 0.4243(5) 0.28548(19)
O5 O 0.1667(6) 0.6698(5) 0.30370(22)
O6 O -0.0126(6) 0.6562(5) 0.23261(24)
O7 O -0.0584(7) 0.7670(6) 0.11439(26)
O8 O -0.2774(6) 0.5222(5) 0.08250(27)
Mg1E Mg 0.3634(4) 0.58342(33) 0.34203(17)
O4E O -0.2223(5) 0.4243(5) 0.21452(19)
O5E O -0.3333(6) 0.6698(5) 0.19630(22)
O9 O 0.1790(7) 0.6060(6) 0.02014(26)
O10 O -0.5052(8) 0.7218(5) 0.05224(28)
loop_
_geom_bond_atom_site_label_1
_geom_bond_atom_site_label_2
_geom_bond_site_symmetry_1
_geom_bond_site_symmetry_2
P1 C1 1_555 1_555
Mg1 O3 1_555 1_555
C1 C2 1_555 1_555
C2 O5 1_555 1_555
O1 P1 1_555 1_555
O2 P1 1_555 1_555
O3 P1 1_555 1_555
O4 C1 1_555 1_555
O5 Mg1E 1_555 1_555
O6 Mg1 1_555 1_555
O7 Mg1 1_555 1_555
O8 Mg1 1_555 1_555
Mg1E O4 1_555 1_555
O4E Mg1 1_555 1_555
O5E Mg1 1_555 1_555
C2 O6 1_555 1_555

#END
