
#######################################################################
#
#                 Cambridge Crystallographic Data Centre
#                                CCDC 
#
#######################################################################
#
# If this CIF has been generated from an entry in the Cambridge 
# Structural Database, then it will include bibliographic, chemical, 
# crystal, experimental, refinement or atomic coordinate data resulting 
# from the CCDC's data processing and validation procedures.
#
#######################################################################

data_TUZYAP
_symmetry_cell_setting           orthorhombic
_symmetry_space_group_name_H-M   'P b c a'
_symmetry_Int_Tables_number      61
_space_group_name_Hall           '-P 2ac 2ab'
loop_
_symmetry_equiv_pos_site_id
_symmetry_equiv_pos_as_xyz
1 x,y,z
2 1/2-x,-y,1/2+z
3 1/2+x,1/2-y,-z
4 -x,1/2+y,1/2-z
5 -x,-y,-z
6 1/2+x,y,1/2-z
7 1/2-x,1/2+y,z
8 x,1/2-y,1/2+z
_cell_length_a                   8.6374(7)
_cell_length_b                   9.6892(9)
_cell_length_c                   11.8164(20)
_cell_angle_alpha                90
_cell_angle_beta                 90
_cell_angle_gamma                90
_cell_volume                     988.909
loop_
_atom_site_label
_atom_site_type_symbol
_atom_site_fract_x
_atom_site_fract_y
_atom_site_fract_z
Mg1 Mg 0.1341(11) 0.0615(9) 0.0807(10)
P1 P 0.2745(9) 0.3063(6) -0.0819(7)
O1 O 0.4042(16) 0.3753(13) -0.0119(10)
O2 O 0.1192(14) 0.3825(14) -0.0678(13)
O3 O 0.2660(18) 0.1508(7) -0.0549(12)
C1 C 0.3353(14) 0.3212(16) -0.2301(7)
C2 C 0.4094(20) 0.4516(11) -0.2722(16)
O4 O 0.5108(24) 0.5191(13) -0.2240(14)
O5 O 0.3077(15) 0.5088(14) -0.3291(17)
O6 O 0.2189(17) 0.2726(13) -0.3029(9)
Mg1F Mg 0.3659(11) 0.5615(9) 0.0807(10)
Mg1G Mg 0.1341(11) 0.4385(9) -0.4193(10)
Mg1B Mg 0.6341(11) 0.4385(9) -0.0807(10)
O1F O 0.0958(16) -0.1247(13) -0.0119(10)
O1B O -0.0958(16) 0.1247(13) 0.0119(10)
O4B O 0.0108(24) -0.0191(13) 0.2240(14)
O5G O 0.3077(15) -0.0088(14) 0.1709(17)
O6G O 0.2189(17) 0.2274(13) 0.1971(9)
loop_
_geom_bond_atom_site_label_1
_geom_bond_atom_site_label_2
_geom_bond_site_symmetry_1
_geom_bond_site_symmetry_2
Mg1 O3 1_555 1_555
P1 O1 1_555 1_555
O1 Mg1F 1_555 1_555
O2 P1 1_555 1_555
O3 P1 1_555 1_555
C1 P1 1_555 1_555
C2 C1 1_555 1_555
O4 C2 1_555 1_555
O5 C2 1_555 1_555
O6 C1 1_555 1_555
Mg1G O5 1_555 1_555
Mg1B O1 1_555 1_555
O1F Mg1 1_555 1_555
O1B Mg1 1_555 1_555
O4B Mg1 1_555 1_555
O5G Mg1 1_555 1_555
O6G Mg1 1_555 1_555
O4 Mg1B 1_555 1_555
O6 Mg1G 1_555 1_555

#END
