
#######################################################################
#
#                 Cambridge Crystallographic Data Centre
#                                CCDC 
#
#######################################################################
#
# If this CIF has been generated from an entry in the Cambridge 
# Structural Database, then it will include bibliographic, chemical, 
# crystal, experimental, refinement or atomic coordinate data resulting 
# from the CCDC's data processing and validation procedures.
#
#######################################################################

data_TUZZEU
_symmetry_cell_setting           orthorhombic
_symmetry_space_group_name_H-M   'P b c a'
_symmetry_Int_Tables_number      61
_space_group_name_Hall           '-P 2ac 2ab'
loop_
_symmetry_equiv_pos_site_id
_symmetry_equiv_pos_as_xyz
1 x,y,z
2 1/2-x,-y,1/2+z
3 1/2+x,1/2-y,-z
4 -x,1/2+y,1/2-z
5 -x,-y,-z
6 1/2+x,y,1/2-z
7 1/2-x,1/2+y,z
8 x,1/2-y,1/2+z
_cell_length_a                   8.55368(10)
_cell_length_b                   9.79697(13)
_cell_length_c                   21.89928(34)
_cell_angle_alpha                90
_cell_angle_beta                 90
_cell_angle_gamma                90
_cell_volume                     1835.16
loop_
_atom_site_label
_atom_site_type_symbol
_atom_site_fract_x
_atom_site_fract_y
_atom_site_fract_z
P1 P 0.19487(29) 0.43540(31) 0.16672(17)
Zn1 Zn -0.13597(18) 0.58042(15) 0.15718(10)
C1 C 0.1481(7) 0.4565(5) 0.24720(19)
C2 C 0.0960(9) 0.5994(6) 0.2628(4)
O1 O 0.2602(7) 0.2915(4) 0.15601(32)
O2 O 0.3259(5) 0.5402(5) 0.15306(33)
O3 O 0.0487(5) 0.4631(6) 0.12848(26)
O4 O 0.2770(6) 0.4216(6) 0.28357(25)
O5 O 0.1680(7) 0.6661(6) 0.30385(31)
O6 O -0.0127(8) 0.6572(6) 0.23318(33)
O7 O -0.0545(7) 0.7651(7) 0.1114(4)
O8 O -0.2808(7) 0.5117(6) 0.0839(4)
Zn1E Zn 0.36403(18) 0.58042(15) 0.34282(10)
O4E O -0.2230(6) 0.4216(6) 0.21643(25)
O5E O -0.3320(7) 0.6661(6) 0.19615(31)
O9 O 0.1757(7) 0.6037(7) 0.0198(4)
O10 O -0.5056(8) 0.7211(7) 0.0538(4)
loop_
_geom_bond_atom_site_label_1
_geom_bond_atom_site_label_2
_geom_bond_site_symmetry_1
_geom_bond_site_symmetry_2
P1 C1 1_555 1_555
Zn1 O3 1_555 1_555
C1 C2 1_555 1_555
C2 O5 1_555 1_555
O1 P1 1_555 1_555
O2 P1 1_555 1_555
O3 P1 1_555 1_555
O4 C1 1_555 1_555
O5 Zn1E 1_555 1_555
O6 Zn1 1_555 1_555
O7 Zn1 1_555 1_555
O8 Zn1 1_555 1_555
Zn1E O4 1_555 1_555
O4E Zn1 1_555 1_555
O5E Zn1 1_555 1_555
C2 O6 1_555 1_555

#END
