
#######################################################################
#
#                 Cambridge Crystallographic Data Centre
#                                CCDC 
#
#######################################################################
#
# If this CIF has been generated from an entry in the Cambridge 
# Structural Database, then it will include bibliographic, chemical, 
# crystal, experimental, refinement or atomic coordinate data resulting 
# from the CCDC's data processing and validation procedures.
#
#######################################################################

data_TUZZIY
_symmetry_cell_setting           orthorhombic
_symmetry_space_group_name_H-M   'P n a 21'
_symmetry_Int_Tables_number      33
_space_group_name_Hall           'P 2c -2n'
loop_
_symmetry_equiv_pos_site_id
_symmetry_equiv_pos_as_xyz
1 x,y,z
2 1/2-x,1/2+y,1/2+z
3 1/2+x,1/2-y,z
4 -x,-y,1/2+z
_cell_length_a                   10.28057(14)
_cell_length_b                   12.28914(17)
_cell_length_c                   5.03253(6)
_cell_angle_alpha                90
_cell_angle_beta                 90
_cell_angle_gamma                90
_cell_volume                     635.807
loop_
_atom_site_label
_atom_site_type_symbol
_atom_site_fract_x
_atom_site_fract_y
_atom_site_fract_z
Zn1 Zn 0.10116(18) 0.11444(11) 0.1513(7)
P1 P 0.17854(33) -0.01474(27) -0.3467(13)
C1 C 0.3444(6) -0.0488(6) -0.4639(17)
C2 C 0.3872(12) -0.1601(6) -0.3685(23)
O1 O 0.1929(8) -0.0070(6) -0.0419(11)
O2 O 0.1428(7) 0.0928(5) -0.4747(13)
O3 O 0.0895(7) -0.1087(5) -0.4245(15)
O4 O 0.4290(6) 0.0304(5) -0.3680(26)
O5 O 0.3332(8) -0.2413(6) -0.4709(15)
O6 O 0.4490(8) -0.1703(6) -0.1542(14)
Zn1_2 Zn 0.10116(18) 0.11444(11) -0.8487(7)
Zn1C Zn -0.10116(18) -0.11444(11) -0.3487(7)
Zn1A Zn 0.39884(18) -0.38556(11) -0.3487(7)
O2_2 O 0.1428(7) 0.0928(5) 0.5253(13)
O3C O -0.0895(7) 0.1087(5) 0.0755(15)
O5A O 0.1668(8) 0.2587(6) 0.0291(15)
K1 K 0.35680(30) 0.26105(21) -0.3654(15)
loop_
_geom_bond_atom_site_label_1
_geom_bond_atom_site_label_2
_geom_bond_site_symmetry_1
_geom_bond_site_symmetry_2
Zn1 O1 1_555 1_555
P1 C1 1_555 1_555
C1 C2 1_555 1_555
C2 O5 1_555 1_555
O1 P1 1_555 1_555
O2 P1 1_555 1_555
O3 P1 1_555 1_555
O4 C1 1_555 1_555
O5 Zn1A 1_555 1_555
O6 C2 1_555 1_555
Zn1_2 O2 1_555 1_555
Zn1C O3 1_555 1_555
O2_2 Zn1 1_555 1_555
O3C Zn1 1_555 1_555
O5A Zn1 1_555 1_555

#END
