
#######################################################################
#
#                 Cambridge Crystallographic Data Centre
#                                CCDC 
#
#######################################################################
#
# If this CIF has been generated from an entry in the Cambridge 
# Structural Database, then it will include bibliographic, chemical, 
# crystal, experimental, refinement or atomic coordinate data resulting 
# from the CCDC's data processing and validation procedures.
#
#######################################################################

data_TXANCU
_symmetry_cell_setting           orthorhombic
_symmetry_space_group_name_H-M   'P b c a'
_symmetry_Int_Tables_number      61
_space_group_name_Hall           '-P 2ac 2ab'
loop_
_symmetry_equiv_pos_site_id
_symmetry_equiv_pos_as_xyz
1 x,y,z
2 1/2-x,-y,1/2+z
3 1/2+x,1/2-y,-z
4 -x,1/2+y,1/2-z
5 -x,-y,-z
6 1/2+x,y,1/2-z
7 1/2-x,1/2+y,z
8 x,1/2-y,1/2+z
_cell_length_a                   21.536(4)
_cell_length_b                   16.956(4)
_cell_length_c                   10.839(1)
_cell_angle_alpha                90
_cell_angle_beta                 90
_cell_angle_gamma                90
_cell_volume                     3958.02
loop_
_atom_site_label
_atom_site_type_symbol
_atom_site_fract_x
_atom_site_fract_y
_atom_site_fract_z
Cu1 Cu -0.45290 -0.05190 0.04660
S1 S -0.36320 -0.39840 0.46530
S2 S -0.45300 -0.29510 0.35160
S3 S -0.42830 -0.03380 0.25400
S4 S -0.44880 -0.20130 0.22970
Cl1 Cl -0.55390 -0.08730 0.00480
C1 C -0.37870 -0.32450 0.37640
O1 O -0.33360 -0.21990 -0.18050
C2 C -0.26890 -0.20740 -0.15170
C3 C -0.24510 -0.24300 -0.05010
C4 C -0.18040 -0.23310 -0.02830
C5 C -0.14630 -0.18760 -0.11390
C6 C -0.17350 -0.15110 -0.20890
C7 C -0.23710 -0.15830 -0.23550
C8 C -0.07510 -0.17830 -0.07800
C9 C -0.42560 -0.12040 0.31420
O2 O -0.41070 -0.36300 -0.06660
C10 C -0.38550 -0.42710 0.01120
C11 C -0.42410 -0.44960 0.10180
C12 C -0.39910 -0.50950 0.17690
C13 C -0.33730 -0.53780 0.15950
C14 C -0.30050 -0.50660 0.06160
C15 C -0.32600 -0.44940 0.01480
C16 C -0.30890 -0.59970 0.24950
Cu1G Cu -0.45290 -0.44810 0.54660
S1G S -0.36320 -0.10160 -0.03470
C1G C -0.37870 -0.17550 -0.12360
S2G S -0.45300 -0.20490 -0.14840
S4G S -0.44880 -0.29870 -0.27030
C9G C -0.42560 -0.37960 -0.18580
S3G S -0.42830 -0.46620 -0.24600
Cu1G_2 Cu -0.45290 -0.44810 -0.45340
Cu1D Cu -0.54710 0.05190 -0.04660
S1C S -0.63680 0.10160 0.03470
S3D S -0.57170 0.03380 -0.25400
Cl1D Cl -0.44610 0.08730 -0.00480
O2G O -0.41070 -0.13700 0.43340
C10G C -0.38550 -0.07290 0.51120
C11G C -0.42410 -0.05040 0.60180
C12G C -0.39910 0.00950 0.67690
C13G C -0.33730 0.03780 0.65950
C14G C -0.30050 0.00660 0.56160
C15G C -0.32600 -0.05060 0.51480
C16G C -0.30890 0.09970 0.74950
O1G O -0.33360 -0.28010 0.31950
C2G C -0.26890 -0.29260 0.34830
C3G C -0.24510 -0.25700 0.44990
C4G C -0.18040 -0.26690 0.47170
C5G C -0.14630 -0.31240 0.38610
C6G C -0.17350 -0.34890 0.29110
C7G C -0.23710 -0.34170 0.26450
C8G C -0.07510 -0.32170 0.42200
loop_
_geom_bond_atom_site_label_1
_geom_bond_atom_site_label_2
_geom_bond_site_symmetry_1
_geom_bond_site_symmetry_2
Cu1 S3 1_555 1_555
S1 C1 1_555 1_555
S2 S4 1_555 1_555
S3 C9 1_555 1_555
S4 C9 1_555 1_555
Cl1 Cu1 1_555 1_555
C1 S2 1_555 1_555
O1 C2 1_555 1_555
C2 C3 1_555 1_555
C3 C4 1_555 1_555
C4 C5 1_555 1_555
C5 C6 1_555 1_555
C6 C7 1_555 1_555
C7 C2 1_555 1_555
C8 C5 1_555 1_555
C9 O2G 1_555 1_555
O2 C10 1_555 1_555
C10 C11 1_555 1_555
C11 C12 1_555 1_555
C12 C13 1_555 1_555
C13 C14 1_555 1_555
C14 C15 1_555 1_555
C15 C10 1_555 1_555
C16 C13 1_555 1_555
Cu1G S1 1_555 1_555
S1G Cu1 1_555 1_555
C1G O1 1_555 1_555
S2G C1G 1_555 1_555
S4G S2G 1_555 1_555
C9G O2 1_555 1_555
S3G C9G 1_555 1_555
Cu1G_2 S3G 1_555 1_555
Cu1D Cl1 1_555 1_555
S1C Cu1D 1_555 1_555
S3D Cu1D 1_555 1_555
Cl1D Cu1 1_555 1_555
O2G C10G 1_555 1_555
C10G C11G 1_555 1_555
C11G C12G 1_555 1_555
C12G C13G 1_555 1_555
C13G C14G 1_555 1_555
C14G C15G 1_555 1_555
C15G C10G 1_555 1_555
C16G C13G 1_555 1_555
O1G C1 1_555 1_555
C2G O1G 1_555 1_555
C3G C2G 1_555 1_555
C4G C3G 1_555 1_555
C5G C4G 1_555 1_555
C6G C5G 1_555 1_555
C7G C2G 1_555 1_555
C8G C5G 1_555 1_555
S1G C1G 1_555 1_555
S4G C9G 1_555 1_555
Cu1D Cl1D 1_555 1_555
C6G C7G 1_555 1_555

#END
