
#######################################################################
#
#                 Cambridge Crystallographic Data Centre
#                                CCDC 
#
#######################################################################
#
# If this CIF has been generated from an entry in the Cambridge 
# Structural Database, then it will include bibliographic, chemical, 
# crystal, experimental, refinement or atomic coordinate data resulting 
# from the CCDC's data processing and validation procedures.
#
#######################################################################

data_TYRSCU13
_symmetry_cell_setting           orthorhombic
_symmetry_space_group_name_H-M   'P 21 21 21'
_symmetry_Int_Tables_number      19
_space_group_name_Hall           'P 2ac 2ab'
loop_
_symmetry_equiv_pos_site_id
_symmetry_equiv_pos_as_xyz
1 x,y,z
2 1/2+x,1/2-y,-z
3 -x,1/2+y,1/2-z
4 1/2-x,-y,1/2+z
_cell_length_a                   6.0473(4)
_cell_length_b                   12.9046(7)
_cell_length_c                   22.0788(14)
_cell_angle_alpha                90
_cell_angle_beta                 90
_cell_angle_gamma                90
_cell_volume                     1722.99
loop_
_atom_site_label
_atom_site_type_symbol
_atom_site_fract_x
_atom_site_fract_y
_atom_site_fract_z
Cu1 Cu 0.15958(6) 0.61140(3) 0.034227(16)
N1 N 0.0462(5) 0.5616(2) 0.11463(12)
N2 N 0.7682(4) 0.8722(2) 0.05057(12)
O1 O -0.0268(4) 0.37298(19) -0.15377(10)
H1 H 0.0470 0.3255 -0.1702
O2 O 1.3402(4) 0.79981(18) 0.29723(10)
H2 H 1.3697 0.8545 0.3162
O3 O 0.4439(4) 0.56338(17) 0.06607(10)
O4 O 0.5913(4) 0.46892(18) 0.13994(10)
O5 O 0.3791(4) 0.84349(17) -0.00215(10)
O6 O 0.2174(4) 0.77541(17) 0.07843(10)
C1 C 0.0189(6) 0.3756(3) -0.09271(14)
C2 C 0.2207(5) 0.3432(2) -0.06871(15)
H3 H 0.3346 0.3196 -0.0949
C3 C 0.2555(6) 0.3454(2) -0.00665(16)
H4 H 0.3938 0.3234 0.0092
C4 C 0.0905(5) 0.3796(2) 0.03311(14)
C5 C -0.1093(6) 0.4130(2) 0.00775(15)
H5 H -0.2242 0.4367 0.0336
C6 C -0.1430(6) 0.4121(2) -0.05446(15)
H6 H -0.2786 0.4369 -0.0707
C7 C 0.1210(5) 0.3743(3) 0.10126(13)
H7 H 0.2324 0.3203 0.1103
H8 H -0.0205 0.3517 0.1196
C8 C 0.1938(5) 0.4758(2) 0.13244(14)
H9 H 0.1899 0.4668 0.1774
C9 C 0.4284(5) 0.5054(3) 0.11236(14)
C10 C 1.1558(6) 0.8154(3) 0.26161(13)
C11 C 1.1115(5) 0.9100(2) 0.23455(13)
H10 H 1.2085 0.9671 0.2403
C12 C 0.9238(6) 0.9205(3) 0.19893(14)
H11 H 0.8942 0.9854 0.1803
C13 C 0.7787(5) 0.8392(3) 0.18982(14)
C14 C 0.8266(6) 0.7441(3) 0.21699(14)
H12 H 0.7299 0.6870 0.2111
C15 C 1.0144(6) 0.7323(3) 0.25265(15)
H13 H 1.0458 0.6673 0.2709
C16 C 0.5758(5) 0.8503(3) 0.15071(14)
H14 H 0.5322 0.9243 0.1498
H15 H 0.4532 0.8111 0.1696
C17 C 0.6050(5) 0.8127(2) 0.08579(13)
H16 H 0.6586 0.7394 0.0877
C18 C 0.3814(5) 0.8118(2) 0.05231(14)
H17 H -0.095(3) 0.539(3) 0.114(2)
H18 H 0.785(9) 0.9397(14) 0.060(2)
H19 H 0.066(6) 0.6167(19) 0.1390(14)
H20 H 0.904(3) 0.845(3) 0.053(2)
Cu1A Cu 0.65958(6) 0.88860(3) -0.034227(16)
N2A N 0.2682(4) 0.6278(2) -0.05057(12)
O5A O -0.1209(4) 0.65651(17) 0.00215(10)
loop_
_geom_bond_atom_site_label_1
_geom_bond_atom_site_label_2
_geom_bond_site_symmetry_1
_geom_bond_site_symmetry_2
Cu1 N1 1_555 1_555
N1 C8 1_555 1_555
N2 C17 1_555 1_555
O1 H1 1_555 1_555
O2 H2 1_555 1_555
O3 Cu1 1_555 1_555
O4 C9 1_555 1_555
O5 C18 1_555 1_555
O6 Cu1 1_555 1_555
C1 O1 1_555 1_555
C2 C1 1_555 1_555
H3 C2 1_555 1_555
C3 C2 1_555 1_555
H4 C3 1_555 1_555
C4 C3 1_555 1_555
C5 C4 1_555 1_555
H5 C5 1_555 1_555
C6 C1 1_555 1_555
H6 C6 1_555 1_555
C7 C4 1_555 1_555
H7 C7 1_555 1_555
H8 C7 1_555 1_555
C8 C7 1_555 1_555
H9 C8 1_555 1_555
C9 O3 1_555 1_555
C10 O2 1_555 1_555
C11 C10 1_555 1_555
H10 C11 1_555 1_555
C12 C11 1_555 1_555
H11 C12 1_555 1_555
C13 C12 1_555 1_555
C14 C13 1_555 1_555
H12 C14 1_555 1_555
C15 C10 1_555 1_555
H13 C15 1_555 1_555
C16 C13 1_555 1_555
H14 C16 1_555 1_555
H15 C16 1_555 1_555
C17 C16 1_555 1_555
H16 C17 1_555 1_555
C18 O6 1_555 1_555
H17 N1 1_555 1_555
H18 N2 1_555 1_555
H19 N1 1_555 1_555
H20 N2 1_555 1_555
Cu1A N2 1_555 1_555
N2A Cu1 1_555 1_555
O5A Cu1 1_555 1_555
O5 Cu1A 1_555 1_555
C5 C6 1_555 1_555
C8 C9 1_555 1_555
C14 C15 1_555 1_555
C17 C18 1_555 1_555

#END
