
#######################################################################
#
#                 Cambridge Crystallographic Data Centre
#                                CCDC 
#
#######################################################################
#
# If this CIF has been generated from an entry in the Cambridge 
# Structural Database, then it will include bibliographic, chemical, 
# crystal, experimental, refinement or atomic coordinate data resulting 
# from the CCDC's data processing and validation procedures.
#
#######################################################################

data_TYRSCU10
_symmetry_cell_setting           orthorhombic
_symmetry_space_group_name_H-M   'P 21 21 21'
_symmetry_Int_Tables_number      19
_space_group_name_Hall           'P 2ac 2ab'
loop_
_symmetry_equiv_pos_site_id
_symmetry_equiv_pos_as_xyz
1 x,y,z
2 1/2+x,1/2-y,-z
3 -x,1/2+y,1/2-z
4 1/2-x,-y,1/2+z
_cell_length_a                   13.049(7)
_cell_length_b                   22.227(8)
_cell_length_c                   6.078(3)
_cell_angle_alpha                90
_cell_angle_beta                 90
_cell_angle_gamma                90
_cell_volume                     1762.86
loop_
_atom_site_label
_atom_site_type_symbol
_atom_site_fract_x
_atom_site_fract_y
_atom_site_fract_z
Cu1 Cu 0.38860 -0.03260 -0.33580
C1 C 0.31070 0.05320 -0.61080
C2 C 0.65460 0.00710 -0.24220
C3 C 0.41930 0.19950 -0.07240
C4 C 0.58680 -0.00670 -0.60510
C5 C 0.23400 0.25220 0.01840
C6 C 0.65710 0.06940 -0.27970
C7 C 0.41040 0.23560 0.11490
C8 C 0.58790 0.05490 -0.64100
C9 C 0.31630 0.26230 0.15700
C10 C 0.62630 0.09270 -0.47900
C11 C 0.49410 -0.11080 -0.07020
C12 C 0.31160 0.08700 -0.39010
C13 C 0.52280 -0.13060 -0.30610
C14 C 0.35070 0.15130 -0.41910
C15 C 0.62390 -0.10020 -0.38080
C16 C 0.33920 0.18970 -0.21300
C17 C 0.61910 -0.03160 -0.40890
C18 C 0.24470 0.21650 -0.16530
H1 H 0.67900 -0.01000 -0.09100
H2 H 0.48900 0.17900 -0.10900
H3 H 0.33200 0.05500 -0.09600
H4 H 0.56100 -0.03500 -0.73000
H5 H 0.43300 0.07300 -0.21200
H6 H 0.16300 0.27200 0.05300
H7 H 0.68200 0.09900 -0.15700
H8 H 0.46900 0.23600 0.22200
H9 H 0.56000 0.07300 -0.73900
H10 H 0.38900 -0.14500 -0.44300
H11 H 0.46700 -0.11100 -0.59600
H12 H 0.24000 0.09000 -0.33200
H13 H 0.53200 -0.17500 -0.31000
H14 H 0.42900 0.14900 -0.46100
H15 H 0.30900 0.17200 -0.54700
H16 H 0.68000 -0.11000 -0.26300
H17 H 0.64500 -0.11900 -0.53300
H18 H 0.18100 0.21000 -0.26800
N1 N 0.37120 0.05120 -0.22650
N2 N 0.43730 -0.11250 -0.45310
O1 O 0.34250 -0.00050 -0.61280
O2 O 0.43740 -0.06510 -0.05230
O3 O 0.27470 0.07860 -0.77540
O4 O 0.53080 -0.13840 0.09000
O5 O 0.30260 0.29850 0.34250
O6 O 0.63060 0.15410 -0.52220
O3C O 0.22530 -0.07860 -0.27540
Cu1C Cu 0.11140 0.03260 -0.83580
loop_
_geom_bond_atom_site_label_1
_geom_bond_atom_site_label_2
_geom_bond_site_symmetry_1
_geom_bond_site_symmetry_2
Cu1 N1 1_555 1_555
C1 C12 1_555 1_555
C2 C6 1_555 1_555
C3 C7 1_555 1_555
C4 C8 1_555 1_555
C5 C9 1_555 1_555
C6 C10 1_555 1_555
C7 C9 1_555 1_555
C8 C10 1_555 1_555
C9 O5 1_555 1_555
C10 O6 1_555 1_555
C11 C13 1_555 1_555
C12 C14 1_555 1_555
C13 C15 1_555 1_555
C14 C16 1_555 1_555
C15 C17 1_555 1_555
C16 C3 1_555 1_555
C17 C2 1_555 1_555
C18 C5 1_555 1_555
H1 C2 1_555 1_555
H2 C3 1_555 1_555
H3 N1 1_555 1_555
H4 C4 1_555 1_555
H5 N1 1_555 1_555
H6 C5 1_555 1_555
H7 C6 1_555 1_555
H8 C7 1_555 1_555
H9 C8 1_555 1_555
H10 N2 1_555 1_555
H11 N2 1_555 1_555
H12 C12 1_555 1_555
H13 C13 1_555 1_555
H14 C14 1_555 1_555
H15 C14 1_555 1_555
H16 C15 1_555 1_555
H17 C15 1_555 1_555
H18 C18 1_555 1_555
N1 C12 1_555 1_555
N2 Cu1 1_555 1_555
O1 Cu1 1_555 1_555
O2 Cu1 1_555 1_555
O3 C1 1_555 1_555
O4 C11 1_555 1_555
O3C Cu1 1_555 1_555
Cu1C O3 1_555 1_555
C1 O1 1_555 1_555
C4 C17 1_555 1_555
C11 O2 1_555 1_555
C13 N2 1_555 1_555
C16 C18 1_555 1_555

#END
