
#######################################################################
#
#                 Cambridge Crystallographic Data Centre
#                                CCDC 
#
#######################################################################
#
# If this CIF has been generated from an entry in the Cambridge 
# Structural Database, then it will include bibliographic, chemical, 
# crystal, experimental, refinement or atomic coordinate data resulting 
# from the CCDC's data processing and validation procedures.
#
#######################################################################

data_UBALAM
_symmetry_cell_setting           monoclinic
_symmetry_space_group_name_H-M   'C 2/c'
_symmetry_Int_Tables_number      15
_space_group_name_Hall           '-C 2yn'
loop_
_symmetry_equiv_pos_site_id
_symmetry_equiv_pos_as_xyz
1 x,y,z
2 -x,y,1/2-z
3 1/2+x,1/2+y,z
4 1/2-x,1/2+y,1/2-z
5 -x,-y,-z
6 x,-y,1/2+z
7 1/2-x,1/2-y,-z
8 1/2+x,1/2-y,1/2+z
_cell_length_a                   9.3162(8)
_cell_length_b                   20.6527(18)
_cell_length_c                   36.859(5)
_cell_angle_alpha                90
_cell_angle_beta                 94.048(8)
_cell_angle_gamma                90
_cell_volume                     7074.15
loop_
_atom_site_label
_atom_site_type_symbol
_atom_site_fract_x
_atom_site_fract_y
_atom_site_fract_z
O14 O 0.104(2) 0.4060(11) 0.1899(5)
O15 O 0.748(4) 0.3318(16) 0.2221(12)
Cd1 Cd 0.93981(4) 0.27867(2) -0.488104(12)
Cd2 Cd 1.32035(5) 0.36431(2) -0.520350(13)
Cd3 Cd 0.5000 0.33516(5) -0.2500
S1 S 1.07984(18) 0.23470(9) -0.43185(5)
S2 S 1.19020(17) 0.41438(9) -0.57549(5)
C1 C 0.8736(7) 0.3351(4) -0.36112(18)
C2 C 0.8302(6) 0.3752(3) -0.41720(16)
C3 C 0.6533(6) 0.3289(3) -0.38823(16)
C4 C 1.1113(8) 0.3485(6) -0.3325(2)
H1 H 1.1520 0.3307 -0.3539
H2 H 1.1681 0.3324 -0.3114
C5 C 1.1242(9) 0.4202(7) -0.3336(3)
C6 C 0.9149(8) 0.2970(5) -0.2988(2)
H3 H 0.9966 0.2824 -0.2832
H4 H 0.8579 0.2591 -0.3059
C7 C 0.8255(8) 0.3411(7) -0.2773(2)
C8 C 1.0185(6) 0.4345(3) -0.44604(18)
H5 H 1.0633 0.4292 -0.4217
H6 H 1.0018 0.4804 -0.4500
C9 C 1.1220(6) 0.4103(3) -0.47326(17)
C10 C 0.7718(6) 0.4247(3) -0.47641(16)
H7 H 0.8223 0.4458 -0.4953
H8 H 0.7138 0.4573 -0.4655
C11 C 0.6706(6) 0.3740(3) -0.49442(16)
C12 C 0.4699(8) 0.2671(4) -0.35926(19)
H9 H 0.5323 0.2294 -0.3591
H10 H 0.3726 0.2524 -0.3657
C13 C 0.4755(7) 0.2949(4) -0.32135(18)
C14 C 0.4179(6) 0.3194(4) -0.41993(16)
H11 H 0.4259 0.3636 -0.4284
H12 H 0.3194 0.3128 -0.4138
C15 C 0.4482(6) 0.2739(3) -0.45093(17)
C16 C 0.9440(13) 0.1388(5) -0.3474(3)
H13 H 0.9824 0.1251 -0.3247
C17 C 1.0277(10) 0.1702(4) -0.3694(2)
H14 H 1.1241 0.1774 -0.3622
C18 C 0.9711(7) 0.1926(3) -0.40349(18)
C19 C 0.8248(8) 0.1788(4) -0.4130(2)
H15 H 0.7835 0.1925 -0.4354
C20 C 0.7423(10) 0.1458(5) -0.3897(3)
H16 H 0.6460 0.1368 -0.3962
C21 C 1.3570(9) 0.5268(4) -0.6497(2)
H17 H 1.3251 0.5455 -0.6717
C22 C 1.2667(8) 0.4886(4) -0.6315(2)
H18 H 1.1742 0.4807 -0.6417
C23 C 1.3104(7) 0.4608(3) -0.5976(2)
C24 C 1.4522(7) 0.4750(4) -0.5837(2)
H19 H 1.4858 0.4591 -0.5611
C25 C 1.5404(8) 0.5122(4) -0.6036(2)
H20 H 1.6347 0.5200 -0.5947
N1 N 0.9267(5) 0.3666(3) -0.38863(15)
N2 N 0.7381(6) 0.3140(3) -0.35878(15)
N3 N 0.6913(5) 0.3597(3) -0.41832(14)
N4 N 0.9683(6) 0.3253(4) -0.33135(16)
N5 N 0.5121(5) 0.3113(3) -0.38737(14)
N6 N 0.8794(5) 0.4008(3) -0.44839(14)
N7 N 0.8039(10) 0.1265(4) -0.3575(2)
H21 H 0.7529 0.1058 -0.3428
N8 N 1.4919(7) 0.5374(3) -0.63579(18)
H22 H 1.5485 0.5608 -0.6477
O1 O 1.2174(7) 0.4487(6) -0.3497(3)
O2 O 0.576(3) 0.4436(10) -0.2486(7)
O3 O 1.0285(8) 0.4549(4) -0.3158(2)
H23 H 0.9738 0.4302 -0.3061
O4 O 0.8368(7) 0.4013(5) -0.28177(19)
O5 O 0.7461(6) 0.3163(5) -0.25502(17)
O6 O 1.2421(4) 0.4370(2) -0.47291(14)
O7 O 1.0862(5) 0.3641(2) -0.49485(13)
O8 O 0.7145(4) 0.31589(19) -0.49782(11)
O9 O 0.5515(4) 0.3954(2) -0.50632(14)
O10 O 0.4725(6) 0.3549(3) -0.31604(14)
O11 O 0.4766(7) 0.2545(4) -0.29549(16)
O12 O 0.5401(5) 0.2316(2) -0.44700(13)
O13 O 0.3759(5) 0.2828(2) -0.48132(12)
Cd1A Cd 0.06019(4) 0.27867(2) -0.011896(12)
Cd1F Cd 0.56019(4) 0.22133(2) -0.511896(12)
Cd1G Cd 0.43981(4) 0.22133(2) 0.011896(12)
Cd2A Cd -0.32035(5) 0.36431(2) 0.020350(13)
Cd2_2 Cd 0.32035(5) 0.36431(2) -0.520350(13)
Cd2A_2 Cd 0.67965(5) 0.36431(2) 0.020350(13)
S1A S -0.07984(18) 0.23470(9) -0.06815(5)
S2A S -0.19020(17) 0.41438(9) 0.07549(5)
C1A C 0.1264(7) 0.3351(4) -0.13888(18)
C2A C 0.1698(6) 0.3752(3) -0.08280(16)
C3A C 0.3467(6) 0.3289(3) -0.11177(16)
C4A C -0.1113(8) 0.3485(6) -0.1675(2)
H1A H -0.1520 0.3307 -0.1461
H2A H -0.1681 0.3324 -0.1886
C5A C -0.1242(9) 0.4202(7) -0.1664(3)
C6A C 0.0851(8) 0.2970(5) -0.2012(2)
H3A H 0.0034 0.2824 -0.2168
H4A H 0.1421 0.2591 -0.1941
C7A C 0.1745(8) 0.3411(7) -0.2227(2)
C8A C -0.0185(6) 0.4345(3) -0.05396(18)
H5A H -0.0633 0.4292 -0.0783
H6A H -0.0018 0.4804 -0.0500
C9A C -0.1220(6) 0.4103(3) -0.02674(17)
C10A C 0.2282(6) 0.4247(3) -0.02359(16)
H7A H 0.1777 0.4458 -0.0047
H8A H 0.2862 0.4573 -0.0345
C11A C 0.3294(6) 0.3740(3) -0.00558(16)
C12A C 0.5301(8) 0.2671(4) -0.14074(19)
H9A H 0.4677 0.2294 -0.1409
H10A H 0.6274 0.2524 -0.1343
C13A C 0.5245(7) 0.2949(4) -0.17865(18)
C14A C 0.5821(6) 0.3194(4) -0.08007(16)
H11A H 0.5741 0.3636 -0.0716
H12A H 0.6806 0.3128 -0.0862
C15A C 0.5518(6) 0.2739(3) -0.04907(17)
C16A C 0.0560(13) 0.1388(5) -0.1526(3)
H13A H 0.0176 0.1251 -0.1753
C17A C -0.0277(10) 0.1702(4) -0.1306(2)
H14A H -0.1241 0.1774 -0.1378
C18A C 0.0289(7) 0.1926(3) -0.09651(18)
C19A C 0.1752(8) 0.1788(4) -0.0870(2)
H15A H 0.2165 0.1925 -0.0646
C20A C 0.2577(10) 0.1458(5) -0.1103(3)
H16A H 0.3540 0.1368 -0.1038
C21A C -0.3570(9) 0.5268(4) 0.1497(2)
H17A H -0.3251 0.5455 0.1717
C22A C -0.2667(8) 0.4886(4) 0.1315(2)
H18A H -0.1742 0.4807 0.1417
C23A C -0.3104(7) 0.4608(3) 0.0976(2)
C24A C -0.4522(7) 0.4750(4) 0.0837(2)
H19A H -0.4858 0.4591 0.0611
C25A C -0.5404(8) 0.5122(4) 0.1036(2)
H20A H -0.6347 0.5200 0.0947
N1A N 0.0733(5) 0.3666(3) -0.11137(15)
N2A N 0.2619(6) 0.3140(3) -0.14122(15)
N3A N 0.3087(5) 0.3597(3) -0.08168(14)
N4A N 0.0317(6) 0.3253(4) -0.16865(16)
N5A N 0.4879(5) 0.3113(3) -0.11263(14)
N6A N 0.1206(5) 0.4008(3) -0.05161(14)
N7A N 0.1961(10) 0.1265(4) -0.1425(2)
H21A H 0.2471 0.1058 -0.1572
N8A N -0.4919(7) 0.5374(3) 0.13579(18)
H22A H -0.5485 0.5608 0.1477
O1A O -0.2174(7) 0.4487(6) -0.1503(3)
O2A O 0.424(3) 0.4436(10) -0.2514(7)
O3A O -0.0285(8) 0.4549(4) -0.1842(2)
H23A H 0.0262 0.4302 -0.1939
O4A O 0.1632(7) 0.4013(5) -0.21823(19)
O5A O 0.2539(6) 0.3163(5) -0.24498(17)
O6A O -0.2421(4) 0.4370(2) -0.02709(14)
O7A O -0.0862(5) 0.3641(2) -0.00515(13)
O8A O 0.2855(4) 0.31589(19) -0.00218(11)
O8F O 0.7855(4) 0.18411(19) -0.50218(11)
O8G O 0.2145(4) 0.18411(19) 0.00218(11)
O9A O 0.4485(4) 0.3954(2) 0.00632(14)
O9_2 O 1.5515(4) 0.3954(2) -0.50632(14)
O9A_2 O -0.5515(4) 0.3954(2) 0.00632(14)
O10A O 0.5275(6) 0.3549(3) -0.18396(14)
O11A O 0.5234(7) 0.2545(4) -0.20451(16)
O12A O 0.4599(5) 0.2316(2) -0.05300(13)
O12F O 0.9599(5) 0.2684(2) -0.55300(13)
O12G O 0.0401(5) 0.2684(2) 0.05300(13)
O13A O 0.6241(5) 0.2828(2) -0.01868(12)
O13F O 1.1241(5) 0.2172(2) -0.51868(12)
O13_2 O 1.3759(5) 0.2828(2) -0.48132(12)
O13G O -0.1241(5) 0.2172(2) 0.01868(12)
O13A_2 O -0.3759(5) 0.2828(2) -0.01868(12)
loop_
_geom_bond_atom_site_label_1
_geom_bond_atom_site_label_2
_geom_bond_site_symmetry_1
_geom_bond_site_symmetry_2
Cd1 S1 1_555 1_555
Cd2 S2 1_555 1_555
Cd3 O2 1_555 1_555
S1 C18 1_555 1_555
S2 C23 1_555 1_555
C1 N1 1_555 1_555
C2 N1 1_555 1_555
C3 N2 1_555 1_555
C4 H1 1_555 1_555
H2 C4 1_555 1_555
C5 C4 1_555 1_555
C6 H3 1_555 1_555
H4 C6 1_555 1_555
C7 C6 1_555 1_555
C8 H5 1_555 1_555
H6 C8 1_555 1_555
C9 C8 1_555 1_555
C10 H7 1_555 1_555
H8 C10 1_555 1_555
C11 C10 1_555 1_555
C12 H9 1_555 1_555
H10 C12 1_555 1_555
C13 C12 1_555 1_555
C14 H11 1_555 1_555
H12 C14 1_555 1_555
C15 C14 1_555 1_555
C16 H13 1_555 1_555
C17 C16 1_555 1_555
H14 C17 1_555 1_555
C18 C17 1_555 1_555
C19 C18 1_555 1_555
H15 C19 1_555 1_555
C20 C19 1_555 1_555
H16 C20 1_555 1_555
C21 H17 1_555 1_555
C22 C21 1_555 1_555
H18 C22 1_555 1_555
C23 C22 1_555 1_555
C24 C23 1_555 1_555
H19 C24 1_555 1_555
C25 C24 1_555 1_555
H20 C25 1_555 1_555
N2 C1 1_555 1_555
N3 C2 1_555 1_555
N4 C1 1_555 1_555
N5 C3 1_555 1_555
N6 C2 1_555 1_555
N7 C16 1_555 1_555
H21 N7 1_555 1_555
N8 C21 1_555 1_555
H22 N8 1_555 1_555
O1 C5 1_555 1_555
O2 O2A 1_555 1_555
O3 C5 1_555 1_555
H23 O3 1_555 1_555
O4 C7 1_555 1_555
O5 Cd3 1_555 1_555
O6 Cd2 1_555 1_555
O7 Cd1 1_555 1_555
O8 Cd1 1_555 1_555
O9 C11 1_555 1_555
O10 Cd3 1_555 1_555
O11 Cd3 1_555 1_555
O12 C15 1_555 1_555
O13 C15 1_555 1_555
Cd1A S1A 1_555 1_555
Cd1F O8 1_555 1_555
Cd1G O8A 1_555 1_555
Cd2A S2A 1_555 1_555
Cd2_2 O9 1_555 1_555
Cd2A_2 O9A 1_555 1_555
S1A C18A 1_555 1_555
S2A C23A 1_555 1_555
C1A N1A 1_555 1_555
C2A N1A 1_555 1_555
C3A N2A 1_555 1_555
C4A H1A 1_555 1_555
H2A C4A 1_555 1_555
C5A C4A 1_555 1_555
C6A H3A 1_555 1_555
H4A C6A 1_555 1_555
C7A C6A 1_555 1_555
C8A H5A 1_555 1_555
H6A C8A 1_555 1_555
C9A C8A 1_555 1_555
C10A H7A 1_555 1_555
H8A C10A 1_555 1_555
C11A C10A 1_555 1_555
C12A H9A 1_555 1_555
H10A C12A 1_555 1_555
C13A C12A 1_555 1_555
C14A H11A 1_555 1_555
H12A C14A 1_555 1_555
C15A C14A 1_555 1_555
C16A H13A 1_555 1_555
C17A C16A 1_555 1_555
H14A C17A 1_555 1_555
C18A C17A 1_555 1_555
C19A C18A 1_555 1_555
H15A C19A 1_555 1_555
C20A C19A 1_555 1_555
H16A C20A 1_555 1_555
C21A H17A 1_555 1_555
C22A C21A 1_555 1_555
H18A C22A 1_555 1_555
C23A C22A 1_555 1_555
C24A C23A 1_555 1_555
H19A C24A 1_555 1_555
C25A C24A 1_555 1_555
H20A C25A 1_555 1_555
N2A C1A 1_555 1_555
N3A C2A 1_555 1_555
N4A C1A 1_555 1_555
N5A C3A 1_555 1_555
N6A C2A 1_555 1_555
N7A C16A 1_555 1_555
H21A N7A 1_555 1_555
N8A C21A 1_555 1_555
H22A N8A 1_555 1_555
O1A C5A 1_555 1_555
O2A Cd3 1_555 1_555
O3A C5A 1_555 1_555
H23A O3A 1_555 1_555
O4A C7A 1_555 1_555
O5A Cd3 1_555 1_555
O6A Cd2A 1_555 1_555
O7A Cd1A 1_555 1_555
O8A Cd1A 1_555 1_555
O8F Cd1 1_555 1_555
O8G Cd1A 1_555 1_555
O9A C11A 1_555 1_555
O9_2 Cd2 1_555 1_555
O9A_2 Cd2A 1_555 1_555
O10A Cd3 1_555 1_555
O11A Cd3 1_555 1_555
O12A Cd1G 1_555 1_555
O12F Cd1 1_555 1_555
O12G Cd1A 1_555 1_555
O13A Cd1G 1_555 1_555
O13F Cd1 1_555 1_555
O13_2 Cd2 1_555 1_555
O13G Cd1A 1_555 1_555
O13A_2 Cd2A 1_555 1_555
Cd2 O7 1_555 1_555
C3 N3 1_555 1_555
C4 N4 1_555 1_555
C6 N4 1_555 1_555
C7 O5 1_555 1_555
C8 N6 1_555 1_555
C9 O6 1_555 1_555
C9 O7 1_555 1_555
C10 N6 1_555 1_555
C11 O8 1_555 1_555
C12 N5 1_555 1_555
C13 O10 1_555 1_555
C13 O11 1_555 1_555
C14 N5 1_555 1_555
C20 N7 1_555 1_555
C25 N8 1_555 1_555
O12 Cd1F 1_555 1_555
O13 Cd1F 1_555 1_555
O13 Cd2_2 1_555 1_555
Cd1F O8F 1_555 1_555
Cd1G O8G 1_555 1_555
Cd2A O7A 1_555 1_555
Cd2A_2 O13A 1_555 1_555
C3A N3A 1_555 1_555
C4A N4A 1_555 1_555
C6A N4A 1_555 1_555
C7A O5A 1_555 1_555
C8A N6A 1_555 1_555
C9A O6A 1_555 1_555
C9A O7A 1_555 1_555
C10A N6A 1_555 1_555
C11A O8A 1_555 1_555
C12A N5A 1_555 1_555
C13A O10A 1_555 1_555
C13A O11A 1_555 1_555
C14A N5A 1_555 1_555
C15A O12A 1_555 1_555
C15A O13A 1_555 1_555
C20A N7A 1_555 1_555
C25A N8A 1_555 1_555

#END
