
#######################################################################
#
#                 Cambridge Crystallographic Data Centre
#                                CCDC 
#
#######################################################################
#
# If this CIF has been generated from an entry in the Cambridge 
# Structural Database, then it will include bibliographic, chemical, 
# crystal, experimental, refinement or atomic coordinate data resulting 
# from the CCDC's data processing and validation procedures.
#
#######################################################################

data_UBALIU
_symmetry_cell_setting           monoclinic
_symmetry_space_group_name_H-M   'P 21/c'
_symmetry_Int_Tables_number      14
_space_group_name_Hall           '-P 2ybc'
loop_
_symmetry_equiv_pos_site_id
_symmetry_equiv_pos_as_xyz
1 x,y,z
2 -x,1/2+y,1/2-z
3 -x,-y,-z
4 x,1/2-y,1/2+z
_cell_length_a                   10.4882(4)
_cell_length_b                   19.2987(7)
_cell_length_c                   18.1601(8)
_cell_angle_alpha                90
_cell_angle_beta                 92.285(3)
_cell_angle_gamma                90
_cell_volume                     3672.84
loop_
_atom_site_label
_atom_site_type_symbol
_atom_site_fract_x
_atom_site_fract_y
_atom_site_fract_z
Zn1 Zn 0.47742(5) 0.03705(3) 0.87380(3)
Zn2 Zn -0.02358(5) 0.28091(3) 0.83282(3)
Zn3 Zn 0.13582(5) -0.07966(3) 1.00910(3)
S1 S 0.48473(16) 0.11486(11) 0.52716(8)
O1 O 0.1816(3) 0.01846(18) 1.0154(2)
N1 N 0.2480(3) 0.17057(19) 0.86690(19)
N2 N 0.4859(4) 0.31001(19) 0.7800(2)
C1 C 0.3607(4) 0.1886(2) 0.8981(2)
N3 N 0.3003(3) 0.24515(19) 0.76730(19)
N4 N 0.4449(3) 0.23343(18) 0.87234(19)
N5 N 0.4507(4) 0.0786(2) 0.7726(2)
C2 C 0.2927(4) 0.1211(2) 1.0026(2)
H1 H 0.2136 0.1465 0.9947
H2 H 0.3149 0.1226 1.0550
N6 N 0.3925(3) 0.15666(19) 0.96340(19)
C3 C 0.4079(4) 0.2616(2) 0.8067(2)
C4 C 0.2250(4) 0.2009(2) 0.8014(2)
O2 O 0.0178(4) 0.3171(2) 0.7343(2)
C5 C 0.2695(4) 0.0468(2) 0.9809(2)
C6 C 0.4701(5) 0.3367(2) 0.7054(2)
H3 H 0.4004 0.3121 0.6803
H4 H 0.5470 0.3271 0.6793
O3 O 0.0861(5) 0.3074(3) 0.6203(2)
C7 C 0.5952(4) 0.3355(2) 0.8237(3)
H5 H 0.5767 0.3304 0.8754
H6 H 0.6043 0.3846 0.8140
O4 O -0.0468(3) 0.19272(19) 0.8893(2)
C8 C 0.0637(5) 0.2824(3) 0.6815(3)
C9 C 0.0421(5) 0.1239(3) 0.7938(3)
H7 H 0.1027 0.0860 0.7982
H8 H -0.0238 0.1108 0.7575
N7 N 0.1077(4) 0.1856(2) 0.7679(2)
O5 O 0.0291(5) -0.0819(3) 0.9176(3)
C10 C 0.4595(6) 0.1063(3) 0.6230(3)
C11 C 0.3329(6) 0.1321(3) 0.4841(3)
C12 C 0.3606(5) 0.0546(3) 0.7246(3)
H9 H 0.2949 0.0280 0.7427
C13 C 0.3056(5) 0.1059(3) 0.4148(3)
H10 H 0.3588 0.0728 0.3951
C14 C 0.3606(6) 0.0673(3) 0.6502(3)
H11 H 0.2960 0.0501 0.6187
C15 C 0.5422(5) 0.1190(3) 0.7458(3)
H12 H 0.6032 0.1381 0.7784
C16 C 0.0879(5) 0.2067(3) 0.6913(2)
H13 H 0.0159 0.1813 0.6698
H14 H 0.1627 0.1942 0.6646
C17 C 0.2474(6) 0.1792(3) 0.5118(3)
H15 H 0.2618 0.1982 0.5585
C18 C 0.5490(6) 0.1332(3) 0.6718(3)
H16 H 0.6142 0.1610 0.6550
C19 C -0.0178(4) 0.1344(3) 0.8670(3)
O6 O -0.0397(4) 0.07933(19) 0.9025(2)
O7 O 0.3322(3) 0.01554(18) 0.9338(2)
O8 O 0.6165(3) 0.08764(17) 0.92542(18)
O9 O 0.7300(3) 0.14670(18) 1.0083(2)
C20 C 0.6250(4) 0.1324(2) 0.9751(2)
C21 C 0.5129(4) 0.1729(2) 1.0013(2)
H17 H 0.5049 0.1642 1.0536
H18 H 0.5301 0.2219 0.9953
O10 O 0.8137(3) 0.3268(2) 0.8507(2)
O11 O 0.7327(4) 0.2524(2) 0.7679(2)
C22 C 0.7219(5) 0.3008(2) 0.8112(3)
O12 O 0.4716(4) 0.44094(17) 0.63929(17)
C23 C 0.4428(4) 0.4144(2) 0.7012(2)
O13 O 0.3981(4) 0.4451(2) 0.7533(2)
N8 N 0.1159(4) 0.1747(2) 0.4000(2)
C24 C 0.1995(5) 0.1288(3) 0.3746(3)
H19 H 0.1851 0.1114 0.3273
C25 C 0.1403(5) 0.1978(3) 0.4694(3)
H20 H 0.0820 0.2279 0.4898
Zn1A Zn 0.52258(5) 0.53705(3) 0.62620(3)
Zn2_2 Zn 0.97642(5) 0.28091(3) 0.83282(3)
Zn2C Zn -0.02358(5) 0.21909(3) 0.33282(3)
Zn3B Zn -0.13582(5) 0.07966(3) 0.99090(3)
Zn3B_2 Zn 0.86418(5) 0.07966(3) 0.99090(3)
O6B O 0.0397(4) -0.07933(19) 1.0975(2)
O9B O 0.2700(3) -0.14670(18) 0.9917(2)
O10_2 O -0.1863(3) 0.3268(2) 0.8507(2)
O12A O 0.5284(4) -0.05906(17) 0.86071(17)
N8C N 0.1159(4) 0.3253(2) 0.9000(2)
O14 O 0.7780(6) 0.2410(3) 0.6140(3)
O15 O -0.1824(10) 0.0252(6) 0.7285(8)
O16 O 0.1601(18) -0.0487(9) 0.5625(8)
O17 O 0.1669(15) -0.1019(10) 0.4229(11)
O18 O 0.2127(15) -0.0775(8) 0.7993(8)
loop_
_geom_bond_atom_site_label_1
_geom_bond_atom_site_label_2
_geom_bond_site_symmetry_1
_geom_bond_site_symmetry_2
Zn1 N5 1_555 1_555
Zn2 O2 1_555 1_555
Zn3 O1 1_555 1_555
S1 C10 1_555 1_555
O1 C5 1_555 1_555
N1 C1 1_555 1_555
N2 C3 1_555 1_555
C1 N4 1_555 1_555
N3 C3 1_555 1_555
N4 C3 1_555 1_555
N5 C12 1_555 1_555
C2 H1 1_555 1_555
H2 C2 1_555 1_555
N6 C1 1_555 1_555
C4 N1 1_555 1_555
O2 C8 1_555 1_555
C5 C2 1_555 1_555
C6 N2 1_555 1_555
H3 C6 1_555 1_555
H4 C6 1_555 1_555
O3 C8 1_555 1_555
C7 N2 1_555 1_555
H5 C7 1_555 1_555
H6 C7 1_555 1_555
O4 Zn2 1_555 1_555
C8 C16 1_555 1_555
C9 H7 1_555 1_555
H8 C9 1_555 1_555
N7 C4 1_555 1_555
O5 Zn3 1_555 1_555
C10 C14 1_555 1_555
C11 S1 1_555 1_555
C12 H9 1_555 1_555
C13 C11 1_555 1_555
H10 C13 1_555 1_555
C14 C12 1_555 1_555
H11 C14 1_555 1_555
C15 N5 1_555 1_555
H12 C15 1_555 1_555
C16 N7 1_555 1_555
H13 C16 1_555 1_555
H14 C16 1_555 1_555
C17 C11 1_555 1_555
H15 C17 1_555 1_555
C18 C10 1_555 1_555
H16 C18 1_555 1_555
C19 O4 1_555 1_555
O6 C19 1_555 1_555
O7 Zn1 1_555 1_555
O8 Zn1 1_555 1_555
O9 C20 1_555 1_555
C20 O8 1_555 1_555
C21 N6 1_555 1_555
H17 C21 1_555 1_555
H18 C21 1_555 1_555
O10 C22 1_555 1_555
O11 C22 1_555 1_555
C22 C7 1_555 1_555
O12 C23 1_555 1_555
C23 C6 1_555 1_555
O13 C23 1_555 1_555
N8 C24 1_555 1_555
C24 C13 1_555 1_555
H19 C24 1_555 1_555
C25 C17 1_555 1_555
H20 C25 1_555 1_555
Zn1A O12 1_555 1_555
Zn2_2 O10 1_555 1_555
Zn2C N8 1_555 1_555
Zn3B O6 1_555 1_555
Zn3B_2 O9 1_555 1_555
O6B Zn3 1_555 1_555
O9B Zn3 1_555 1_555
O10_2 Zn2 1_555 1_555
O12A Zn1 1_555 1_555
N8C Zn2 1_555 1_555
N3 C4 1_555 1_555
C2 N6 1_555 1_555
C5 O7 1_555 1_555
C9 N7 1_555 1_555
C9 C19 1_555 1_555
C15 C18 1_555 1_555
C20 C21 1_555 1_555
N8 C25 1_555 1_555

#END
