
#######################################################################
#
#                 Cambridge Crystallographic Data Centre
#                                CCDC 
#
#######################################################################
#
# If this CIF has been generated from an entry in the Cambridge 
# Structural Database, then it will include bibliographic, chemical, 
# crystal, experimental, refinement or atomic coordinate data resulting 
# from the CCDC's data processing and validation procedures.
#
#######################################################################

data_UBAMAN
_symmetry_cell_setting           triclinic
_symmetry_space_group_name_H-M   'P -1'
_symmetry_Int_Tables_number      2
_space_group_name_Hall           '-P 1'
loop_
_symmetry_equiv_pos_site_id
_symmetry_equiv_pos_as_xyz
1 x,y,z
2 -x,-y,-z
_cell_length_a                   10.1195(9)
_cell_length_b                   12.6995(11)
_cell_length_c                   17.7334(15)
_cell_angle_alpha                71.677(4)
_cell_angle_beta                 73.808(4)
_cell_angle_gamma                79.069(4)
_cell_volume                     2064.57
loop_
_atom_site_label
_atom_site_type_symbol
_atom_site_fract_x
_atom_site_fract_y
_atom_site_fract_z
C1 C -0.4101(7) 0.0012(5) 0.8157(4)
H1 H -0.3423 0.0367 0.7682
H2 H -0.5016 0.0334 0.8073
C2 C -0.3934(6) -0.1227(5) 0.8249(4)
C3 C -0.4196(7) -0.1610(6) 0.7656(4)
H3 H -0.4471 -0.1101 0.7206
C4 C -0.4050(7) -0.2742(6) 0.7731(4)
H4 H -0.4240 -0.3003 0.7342
C5 C -0.3606(7) -0.3483(6) 0.8409(4)
H5 H -0.3501 -0.4250 0.8484
C6 C -0.3328(6) -0.3048(5) 0.8968(4)
C7 C -0.2766(6) -0.3799(5) 0.9651(4)
H6 H -0.2623 -0.4564 0.9710
C8 C -0.1929(10) -0.5343(6) 1.0941(5)
H7 H -0.1244 -0.5597 1.0519
H8 H -0.2825 -0.5497 1.0947
H9 H -0.1716 -0.5726 1.1461
C9 C -0.1493(6) -0.3718(5) 1.1290(4)
C10 C -0.0782(6) -0.4417(5) 1.1866(4)
H10 H -0.0569 -0.5177 1.1917
C11 C -0.0408(6) -0.3920(5) 1.2362(3)
C12 C -0.1400(6) -0.2214(5) 1.1728(4)
C13 C -0.1745(7) -0.0995(5) 1.1672(4)
H11 H -0.0907 -0.0643 1.1483
H12 H -0.2221 -0.0904 1.2201
H13 H -0.2328 -0.0656 1.1295
C14 C 0.0827(7) -0.5724(5) 1.3045(4)
H14 H 0.0298 -0.6175 1.3540
H15 H 0.1781 -0.5832 1.3070
H16 H 0.0753 -0.5937 1.2587
C15 C 0.1147(6) -0.4566(5) 1.4034(4)
H17 H 0.1309 -0.5339 1.4150
C16 C 0.1507(6) -0.4000(5) 1.4532(4)
C17 C 0.2091(7) -0.4641(6) 1.5179(4)
H18 H 0.2236 -0.5416 1.5300
C18 C 0.2446(7) -0.4080(6) 1.5636(4)
H19 H 0.2840 -0.4479 1.6072
C19 C 0.2217(7) -0.2935(6) 1.5447(4)
H20 H 0.2450 -0.2555 1.5754
C20 C 0.1631(6) -0.2350(6) 1.4787(4)
C21 C 0.1315(8) -0.1092(6) 1.4593(4)
H21 H 0.0437 -0.0897 1.4943
H22 H 0.2030 -0.0780 1.4695
C22 C -0.4816(7) -0.4220(6) 1.2968(4)
C23 C -0.4193(8) -0.1714(7) 1.4727(5)
C24 C -0.2858(7) 0.2872(5) 0.9818(4)
N1 N -0.3520(5) -0.1931(4) 0.8904(3)
N2 N -0.2469(5) -0.3426(4) 1.0165(3)
N3 N -0.1931(6) -0.4149(4) 1.0786(3)
N4 N -0.1800(5) -0.2602(4) 1.1205(3)
N5 N -0.0720(5) -0.2821(4) 1.2297(3)
N6 N 0.0293(5) -0.4546(4) 1.2954(3)
N7 N 0.0597(5) -0.3990(4) 1.3426(3)
N8 N 0.1278(5) -0.2869(4) 1.4339(3)
O1 O -0.3926(5) 0.0218(4) 0.8857(3)
H23 H -0.3982 0.0893 0.8787
O2 O 0.1253(5) -0.0645(4) 1.3761(3)
H24 H 0.1443 0.0001 1.3597
O3 O -0.1231(5) -0.1028(4) 0.9440(3)
H25 H -0.055(5) -0.106(6) 0.967(3)
H26 H -0.085(6) -0.096(6) 0.8921(15)
O4 O -0.4889(5) -0.2870(4) 1.1552(3)
O5 O -0.6603(5) -0.4202(4) 1.2190(3)
O6 O -0.6736(5) -0.2608(4) 1.2710(3)
O7 O -0.1732(6) -0.1981(7) 1.3931(4)
O8 O -0.2163(7) -0.0896(5) 1.4895(4)
O9 O -0.2247(8) -0.2903(5) 1.5380(5)
O10 O -0.3384(5) 0.0842(4) 1.0183(3)
O11 O -0.0988(5) 0.1208(4) 0.9913(3)
O12 O -0.2122(5) 0.1683(4) 0.8787(3)
F1 F -0.3967(4) -0.5026(4) 1.2646(3)
F2 F -0.5557(5) -0.4744(4) 1.3690(3)
F3 F -0.3990(5) -0.3589(4) 1.3083(3)
F4 F -0.4508(6) -0.2584(5) 1.4589(4)
F5 F -0.4493(6) -0.0820(6) 1.4154(5)
F6 F -0.4999(6) -0.1600(6) 1.5438(4)
F7 F -0.4078(4) 0.3300(3) 0.9626(2)
F8 F -0.3028(5) 0.2816(3) 1.0605(2)
F9 F -0.1941(5) 0.3600(3) 0.9367(3)
S1 S -0.58845(15) -0.33906(13) 1.22732(9)
S2 S -0.23721(17) -0.18845(14) 1.47514(10)
S3 S -0.22659(15) 0.14990(12) 0.96542(9)
Pb1 Pb -0.34849(2) -0.141647(17) 1.018150(13)
Pb2 Pb 0.05965(2) -0.189224(18) 1.301778(13)
O6_2 O 0.3264(5) -0.2608(4) 1.2710(3)
Pb2_2 Pb -0.94035(2) -0.189224(18) 1.301778(13)
C25 C -0.2002(8) 0.1674(6) 1.2653(4)
O13 O 0.0118(5) 0.2770(4) 1.1937(3)
O14 O 0.0001(5) 0.1551(4) 1.3329(3)
O15 O 0.0457(5) 0.0738(4) 1.2203(3)
F10 F -0.2734(5) 0.2569(4) 1.2848(3)
F11 F -0.2451(5) 0.0774(4) 1.3234(3)
F12 F -0.2266(5) 0.1650(4) 1.1964(3)
S4 S -0.01493(16) 0.16965(13) 1.25138(9)
loop_
_geom_bond_atom_site_label_1
_geom_bond_atom_site_label_2
_geom_bond_site_symmetry_1
_geom_bond_site_symmetry_2
C1 H1 1_555 1_555
H2 C1 1_555 1_555
C2 C1 1_555 1_555
C3 C2 1_555 1_555
H3 C3 1_555 1_555
C4 C3 1_555 1_555
H4 C4 1_555 1_555
C5 C4 1_555 1_555
H5 C5 1_555 1_555
C6 C5 1_555 1_555
C7 C6 1_555 1_555
H6 C7 1_555 1_555
C8 H7 1_555 1_555
H8 C8 1_555 1_555
H9 C8 1_555 1_555
C9 C10 1_555 1_555
C10 H10 1_555 1_555
C11 C10 1_555 1_555
C12 C13 1_555 1_555
C13 H11 1_555 1_555
H12 C13 1_555 1_555
H13 C13 1_555 1_555
C14 H14 1_555 1_555
H15 C14 1_555 1_555
H16 C14 1_555 1_555
C15 H17 1_555 1_555
C16 C15 1_555 1_555
C17 C16 1_555 1_555
H18 C17 1_555 1_555
C18 C17 1_555 1_555
H19 C18 1_555 1_555
C19 C18 1_555 1_555
H20 C19 1_555 1_555
C20 C19 1_555 1_555
C21 C20 1_555 1_555
H21 C21 1_555 1_555
H22 C21 1_555 1_555
C22 F1 1_555 1_555
C23 F4 1_555 1_555
C24 F7 1_555 1_555
N1 C2 1_555 1_555
N2 C7 1_555 1_555
N3 C8 1_555 1_555
N4 C9 1_555 1_555
N5 C11 1_555 1_555
N6 C11 1_555 1_555
N7 C15 1_555 1_555
N8 C16 1_555 1_555
O1 C1 1_555 1_555
H23 O1 1_555 1_555
O2 C21 1_555 1_555
H24 O2 1_555 1_555
O3 H25 1_555 1_555
H26 O3 1_555 1_555
O4 S1 1_555 1_555
O5 S1 1_555 1_555
O6 S1 1_555 1_555
O7 S2 1_555 1_555
O8 S2 1_555 1_555
O9 S2 1_555 1_555
O10 S3 1_555 1_555
O11 S3 1_555 1_555
O12 S3 1_555 1_555
F2 C22 1_555 1_555
F3 C22 1_555 1_555
F5 C23 1_555 1_555
F6 C23 1_555 1_555
F8 C24 1_555 1_555
F9 C24 1_555 1_555
S1 C22 1_555 1_555
S2 C23 1_555 1_555
S3 C24 1_555 1_555
Pb1 N1 1_555 1_555
Pb2 N5 1_555 1_555
C25 F10 1_555 1_555
O13 S4 1_555 1_555
O14 S4 1_555 1_555
O15 S4 1_555 1_555
F11 C25 1_555 1_555
F12 C25 1_555 1_555
S4 C25 1_555 1_555
O6_2 Pb2 1_555 1_555
Pb2_2 O6 1_555 1_555
C6 N1 1_555 1_555
C9 N3 1_555 1_555
C12 N4 1_555 1_555
C12 N5 1_555 1_555
C14 N6 1_555 1_555
C20 N8 1_555 1_555
N2 N3 1_555 1_555
N2 Pb1 1_555 1_555
N4 Pb1 1_555 1_555
N6 N7 1_555 1_555
N7 Pb2 1_555 1_555
N8 Pb2 1_555 1_555
O1 Pb1 1_555 1_555
O2 Pb2 1_555 1_555
O3 Pb1 1_555 1_555
O4 Pb1 1_555 1_555
O7 Pb2 1_555 1_555
O10 Pb1 1_555 1_555

#END
