
#######################################################################
#
#                 Cambridge Crystallographic Data Centre
#                                CCDC 
#
#######################################################################
#
# If this CIF has been generated from an entry in the Cambridge 
# Structural Database, then it will include bibliographic, chemical, 
# crystal, experimental, refinement or atomic coordinate data resulting 
# from the CCDC's data processing and validation procedures.
#
#######################################################################

data_UBEPEY
_symmetry_cell_setting           monoclinic
_symmetry_space_group_name_H-M   'P 21/c'
_symmetry_Int_Tables_number      14
_space_group_name_Hall           '-P 2ybc'
loop_
_symmetry_equiv_pos_site_id
_symmetry_equiv_pos_as_xyz
1 x,y,z
2 -x,1/2+y,1/2-z
3 -x,-y,-z
4 x,1/2-y,1/2+z
_cell_length_a                   20.855(3)
_cell_length_b                   19.540(3)
_cell_length_c                   26.642(4)
_cell_angle_alpha                90
_cell_angle_beta                 112.022(4)
_cell_angle_gamma                90
_cell_volume                     10064.7
loop_
_atom_site_label
_atom_site_type_symbol
_atom_site_fract_x
_atom_site_fract_y
_atom_site_fract_z
Cl1 Cl -1.0716(4) -0.3443(5) 0.9032(3)
Cl2 Cl -0.7304(5) -0.5651(7) 0.5985(4)
Cl3 Cl -0.3641(5) -0.8516(8) 0.5883(6)
Cl4 Cl -0.9385(13) -0.3060(9) 0.9786(5)
N1 N -0.4803(5) -1.1367(6) 0.9561(4)
O9 O -0.4413(5) -1.0877(4) 0.9734(3)
O10 O -0.4378(7) -1.1922(5) 0.9711(4)
O11 O -0.5463(8) -1.1366(6) 0.9307(4)
N2 N -0.6475(3) -0.5389(5) 1.01756(11)
O12 O -0.6803(6) -0.5054(8) 1.0312(3)
O13 O -0.6003(6) -0.5214(10) 1.0073(4)
O14 O -0.6581(6) -0.5920(10) 1.0127(3)
N3 N -1.29518(7) -0.60319(6) 0.58747(4)
O15 O -1.32848(17) -0.55481(11) 0.55879(15)
O16 O -1.28480(17) -0.65295(11) 0.56202(12)
O17 O -1.2738(3) -0.6017(6) 0.63802(5)
N4 N -0.83429(7) -0.31139(5) 0.59961(5)
O18 O -0.83444(18) -0.35228(13) 0.63564(9)
O19 O -0.8365(2) -0.24876(8) 0.6084(3)
O20 O -0.83173(18) -0.34134(19) 0.55895(8)
N5 N -1.19289(6) -0.60466(15) 0.92091(5)
O21 O -1.2274(4) -0.6002(10) 0.87125(8)
O22 O -1.13225(9) -0.5834(3) 0.9433(6)
O23 O -1.22705(11) -0.6315(3) 0.94549(12)
O1 O -1.1108(2) -0.3703(2) 0.7898(2)
O2 O -0.6143(2) -0.6784(2) 0.8202(2)
O3 O -0.8190(2) -0.7469(3) 0.8201(2)
O4 O -0.6511(2) -0.5555(2) 0.7103(2)
O5 O -0.5737(3) -0.5346(3) 0.8228(2)
O6 O -1.1436(3) -0.3920(3) 0.6770(2)
O7 O -0.6118(3) -0.6484(3) 0.9347(2)
O8 O -0.7222(4) -0.7768(4) 0.9314(3)
Sm1 Sm -0.542420(16) -0.487128(17) 0.750161(13)
Sm2 Sm -0.696203(16) -0.713210(16) 0.862779(13)
Sm3 Sm -1.041649(16) -0.438431(17) 0.749656(14)
Cl5 Cl -0.48315(9) -0.37471(8) 0.72458(7)
Cl6 Cl -0.95722(9) -0.55043(9) 0.77552(7)
C1 C -1.0252(3) -0.5247(3) 0.6403(3)
C2 C -1.1217(3) -0.6026(4) 0.6269(3)
H1 H -1.1464 -0.6346 0.5978
H2 H -1.1494 -0.5608 0.6213
C3 C -1.1229(3) -0.5968(4) 0.7189(3)
C4 C -1.1371(3) -0.6180(4) 0.8062(3)
H3 H -1.1666 -0.5773 0.7979
H4 H -1.1618 -0.6547 0.8165
C5 C -1.0446(4) -0.5406(4) 0.8589(3)
C6 C -0.9518(4) -0.4786(4) 0.9294(3)
H5 H -0.9358 -0.4819 0.9689
H6 H -0.9843 -0.4403 0.9177
C7 C -0.8978(3) -0.4278(3) 0.8689(3)
C8 C -0.8207(3) -0.3816(3) 0.8267(3)
H7 H -0.8537 -0.3435 0.8165
H8 H -0.7743 -0.3620 0.8442
C9 C -0.8833(4) -0.4224(3) 0.7347(3)
C10 C -0.9226(4) -0.4631(3) 0.6390(3)
H9 H -0.9525 -0.4227 0.6303
H10 H -0.8983 -0.4646 0.6139
C11 C -0.9460(3) -0.5902(4) 0.6168(3)
H11 H -0.9356 -0.5885 0.5835
C12 C -1.0121(3) -0.6336(4) 0.6096(3)
H12 H -1.0349 -0.6501 0.5719
C13 C -1.1157(3) -0.7063(3) 0.6879(3)
H13 H -1.1564 -0.7287 0.6605
C14 C -1.1183(3) -0.7094(3) 0.7444(3)
H14 H -1.1584 -0.7366 0.7444
C15 C -1.0329(4) -0.6524(4) 0.8915(3)
H15 H -1.0603 -0.6749 0.9102
C16 C -0.9743(4) -0.6082(4) 0.9306(3)
H16 H -0.9756 -0.6075 0.9674
C17 C -0.8248(4) -0.4922(3) 0.9412(3)
H17 H -0.8055 -0.4803 0.9802
C18 C -0.7823(3) -0.4602(3) 0.9106(3)
H18 H -0.7464 -0.4285 0.9338
C19 C -0.7674(3) -0.4543(3) 0.7712(3)
H19 H -0.7280 -0.4241 0.7745
C20 C -0.8022(3) -0.4840(4) 0.7134(3)
H20 H -0.7776 -0.4694 0.6898
C21 C -0.9151(3) -0.6852(3) 0.6760(3)
C22 C -1.0251(3) -0.7490(3) 0.6523(3)
H21 H -1.0639 -0.7551 0.6177
H22 H -0.9965 -0.7903 0.6591
C23 C -1.0179(3) -0.7651(3) 0.7460(3)
C24 C -1.0314(4) -0.7580(4) 0.8348(3)
H23 H -1.0723 -0.7715 0.8423
H24 H -0.9999 -0.7973 0.8432
C25 C -0.9276(4) -0.6949(3) 0.8946(3)
C26 C -0.8431(3) -0.6197(4) 0.9610(3)
H25 H -0.8123 -0.6594 0.9679
H26 H -0.8406 -0.6017 0.9960
C27 C -0.7761(3) -0.5791(3) 0.9063(3)
C28 C -0.7084(3) -0.5136(3) 0.8627(3)
H27 H -0.6749 -0.5513 0.8732
H28 H -0.6822 -0.4707 0.8722
C29 C -0.7635(3) -0.5732(3) 0.7743(3)
C30 C -0.8200(3) -0.6074(4) 0.6787(3)
H29 H -0.8110 -0.5895 0.6476
H30 H -0.7924 -0.6491 0.6910
C31 C -0.7124(3) -0.8553(3) 0.7767(2)
C32 C -0.6798(3) -0.9117(4) 0.8661(3)
H31 H -0.6960 -0.9540 0.8773
H32 H -0.7024 -0.8733 0.8764
C33 C -0.5717(3) -0.8453(3) 0.9090(2)
C34 C -0.4515(3) -0.8033(3) 0.9580(3)
H33 H -0.4745 -0.7625 0.9646
H34 H -0.4184 -0.8193 0.9930
C35 C -0.4317(3) -0.7293(3) 0.8895(3)
C36 C -0.3868(3) -0.6654(3) 0.8306(3)
H35 H -0.4103 -0.6265 0.8394
H36 H -0.3393 -0.6513 0.8367
C37 C -0.4879(4) -0.6615(3) 0.7431(2)
C38 C -0.5747(3) -0.6796(3) 0.6506(3)
H37 H -0.5969 -0.6386 0.6578
H38 H -0.5713 -0.6736 0.6151
C39 C -0.6601(3) -0.7427(3) 0.6754(3)
C40 C -0.7510(3) -0.8210(4) 0.6809(3)
H39 H -0.7909 -0.8390 0.6508
H40 H -0.7662 -0.7799 0.6944
C41 C -0.7339(3) -0.9462(3) 0.7165(3)
H41 H -0.7816 -0.9607 0.6941
C42 C -0.7104(3) -0.9746(3) 0.7752(3)
H42 H -0.7456 -1.0052 0.7798
C43 C -0.5587(3) -0.9634(3) 0.9113(3)
H43 H -0.5712 -0.9953 0.9350
C44 C -0.4877(3) -0.9297(3) 0.9412(3)
H44 H -0.4673 -0.9429 0.9799
C45 C -0.3491(3) -0.8147(4) 0.9273(3)
H45 H -0.3138 -0.8130 0.9646
C46 C -0.3281(3) -0.7706(3) 0.8862(3)
H46 H -0.2830 -0.7474 0.9042
C47 C -0.3896(3) -0.7144(3) 0.7407(3)
H47 H -0.3504 -0.6864 0.7399
C48 C -0.4480(3) -0.7197(3) 0.6831(3)
H48 H -0.4350 -0.6968 0.6552
C49 C -0.6270(3) -0.7948(3) 0.6094(3)
H49 H -0.6410 -0.7790 0.5715
C50 C -0.6839(3) -0.8386(4) 0.6189(3)
H50 H -0.7257 -0.8438 0.5855
C51 C -0.6313(3) -1.0052(3) 0.7371(3)
C52 C -0.6009(3) -1.0442(3) 0.8308(3)
H51 H -0.6283 -1.0639 0.8501
H52 H -0.5773 -1.0819 0.8205
C53 C -0.4852(3) -0.9938(3) 0.8687(3)
C54 C -0.3734(3) -0.9435(4) 0.9269(3)
H53 H -0.3529 -0.9834 0.9164
H54 H -0.3529 -0.9399 0.9665
C55 C -0.3476(3) -0.8844(3) 0.8556(3)
C56 C -0.3104(3) -0.8066(4) 0.7994(3)
H55 H -0.2750 -0.7707 0.8081
H56 H -0.2911 -0.8478 0.7895
C57 C -0.4102(3) -0.8294(3) 0.7150(3)
C58 C -0.5016(3) -0.8246(3) 0.6249(3)
H57 H -0.5076 -0.7935 0.5946
H58 H -0.4795 -0.8664 0.6189
C59 C -0.5820(3) -0.9027(3) 0.6423(2)
C60 C -0.6842(3) -0.9654(3) 0.6428(3)
H59 H -0.6620 -1.0050 0.6334
H60 H -0.7321 -0.9634 0.6169
N6 N -0.9647(3) -0.5237(3) 0.6316(2)
N7 N -1.0555(3) -0.5862(3) 0.6240(2)
N8 N -1.1149(3) -0.6330(3) 0.6789(2)
N9 N -1.1251(3) -0.6393(3) 0.7565(2)
N10 N -1.0741(3) -0.6032(3) 0.8512(2)
N11 N -0.9874(3) -0.5409(3) 0.9058(3)
N12 N -0.8927(3) -0.4646(3) 0.9145(2)
N13 N -0.8353(3) -0.4243(3) 0.8657(3)
N14 N -0.8241(3) -0.4165(3) 0.7790(2)
N15 N -0.8716(3) -0.4567(3) 0.6946(2)
N16 N -0.8921(3) -0.6249(3) 0.6614(3)
N17 N -0.9839(3) -0.6908(3) 0.6478(2)
N18 N -1.0515(3) -0.7418(3) 0.6944(2)
N19 N -1.0529(3) -0.7422(3) 0.7775(2)
N20 N -0.9974(3) -0.7020(3) 0.8705(3)
N21 N -0.9124(3) -0.6409(3) 0.9303(2)
N22 N -0.8189(3) -0.5661(3) 0.9324(2)
N23 N -0.7524(3) -0.5186(3) 0.8941(2)
N24 N -0.7454(3) -0.5157(3) 0.8035(2)
N25 N -0.7974(3) -0.5572(3) 0.7219(2)
N26 N -0.7290(3) -0.8720(3) 0.7241(2)
N27 N -0.7006(3) -0.9121(3) 0.8082(2)
N28 N -0.6051(3) -0.9060(3) 0.8952(2)
N29 N -0.5035(3) -0.8572(3) 0.9340(2)
N30 N -0.4141(3) -0.7847(3) 0.9235(2)
N31 N -0.3847(3) -0.7222(3) 0.8666(2)
N32 N -0.4222(3) -0.6827(3) 0.7736(2)
N33 N -0.5052(3) -0.6850(3) 0.6917(2)
N34 N -0.6181(3) -0.7378(3) 0.6481(2)
N35 N -0.6981(3) -0.8018(3) 0.6607(2)
N36 N -0.6840(3) -0.9750(3) 0.6971(2)
N37 N -0.6474(3) -1.0106(3) 0.7818(2)
N38 N -0.5496(3) -0.9987(3) 0.8669(2)
N39 N -0.4467(3) -0.9546(3) 0.9106(2)
N40 N -0.3562(3) -0.8828(3) 0.9036(2)
N41 N -0.3254(3) -0.8212(3) 0.8478(2)
N42 N -0.3691(3) -0.7851(3) 0.7539(2)
N43 N -0.4566(3) -0.7928(3) 0.6742(2)
N44 N -0.5682(3) -0.8416(3) 0.6253(2)
N45 N -0.6487(3) -0.9040(3) 0.6377(2)
O24 O -1.0497(2) -0.4764(2) 0.65710(19)
O25 O -1.1282(2) -0.5327(2) 0.71979(19)
O26 O -1.0667(3) -0.4903(3) 0.8293(2)
O27 O -0.9513(2) -0.4007(2) 0.83602(19)
O28 O -0.9394(2) -0.3972(2) 0.73101(19)
O29 O -0.7589(2) -0.6360(2) 0.8968(2)
O30 O -0.7481(2) -0.6320(3) 0.79279(19)
O31 O -0.8789(2) -0.7256(2) 0.7089(2)
O32 O -0.9655(2) -0.8024(2) 0.7608(2)
O33 O -0.8846(3) -0.7334(3) 0.8870(2)
O34 O -0.7098(2) -0.7964(3) 0.79364(19)
O35 O -0.5995(2) -0.7879(2) 0.9005(2)
O36 O -0.4822(2) -0.6928(3) 0.8819(2)
O37 O -0.5215(2) -0.6219(3) 0.76097(19)
O38 O -0.6659(2) -0.7009(2) 0.70834(19)
O39 O -0.5402(2) -0.9502(2) 0.65829(19)
O40 O -0.5779(2) -1.0288(2) 0.73371(19)
O41 O -0.4623(2) -1.0228(2) 0.83670(17)
O42 O -0.3541(2) -0.9337(2) 0.82675(19)
O43 O -0.4021(2) -0.8920(2) 0.7170(2)
Sm1A Sm -0.457580(16) -0.987128(17) 0.749839(13)
Sm3A Sm -0.958351(16) -0.938431(17) 0.750344(14)
O32A O -1.0345(2) -0.3024(2) 0.7392(2)
O39A O -0.4598(2) -0.4502(2) 0.84171(19)
O40A O -0.4221(2) -0.5288(2) 0.76629(19)
O41A O -0.5377(2) -0.5228(2) 0.66330(17)
O42A O -0.6459(2) -0.4337(2) 0.67325(19)
O43A O -0.5979(2) -0.3920(2) 0.7830(2)
loop_
_geom_bond_atom_site_label_1
_geom_bond_atom_site_label_2
_geom_bond_site_symmetry_1
_geom_bond_site_symmetry_2
O1 Sm3 1_555 1_555
O2 Sm2 1_555 1_555
O3 Sm2 1_555 1_555
O4 Sm1 1_555 1_555
O5 Sm1 1_555 1_555
O6 Sm3 1_555 1_555
O7 Sm2 1_555 1_555
O8 Sm2 1_555 1_555
N1 O9 1_555 1_555
N2 O12 1_555 1_555
N3 O15 1_555 1_555
N4 O18 1_555 1_555
N5 O21 1_555 1_555
O10 N1 1_555 1_555
O11 N1 1_555 1_555
O13 N2 1_555 1_555
O14 N2 1_555 1_555
O16 N3 1_555 1_555
O17 N3 1_555 1_555
O19 N4 1_555 1_555
O20 N4 1_555 1_555
O22 N5 1_555 1_555
O23 N5 1_555 1_555
Sm1 Cl5 1_555 1_555
Sm2 O29 1_555 1_555
Sm3 Cl6 1_555 1_555
C1 N6 1_555 1_555
C2 H1 1_555 1_555
H2 C2 1_555 1_555
C3 N8 1_555 1_555
C4 H3 1_555 1_555
H4 C4 1_555 1_555
C5 N10 1_555 1_555
C6 H5 1_555 1_555
H6 C6 1_555 1_555
C7 N12 1_555 1_555
C8 H7 1_555 1_555
H8 C8 1_555 1_555
C9 N14 1_555 1_555
C10 H9 1_555 1_555
H10 C10 1_555 1_555
C11 H11 1_555 1_555
C12 C11 1_555 1_555
H12 C12 1_555 1_555
C13 H13 1_555 1_555
C14 C13 1_555 1_555
H14 C14 1_555 1_555
C15 H15 1_555 1_555
C16 C15 1_555 1_555
H16 C16 1_555 1_555
C17 H17 1_555 1_555
C18 C17 1_555 1_555
H18 C18 1_555 1_555
C19 H19 1_555 1_555
C20 C19 1_555 1_555
H20 C20 1_555 1_555
C21 N16 1_555 1_555
C22 H21 1_555 1_555
H22 C22 1_555 1_555
C23 N18 1_555 1_555
C24 H23 1_555 1_555
H24 C24 1_555 1_555
C25 N20 1_555 1_555
C26 H25 1_555 1_555
H26 C26 1_555 1_555
C27 N22 1_555 1_555
C28 H27 1_555 1_555
H28 C28 1_555 1_555
C29 N24 1_555 1_555
C30 H29 1_555 1_555
H30 C30 1_555 1_555
C31 N26 1_555 1_555
C32 H31 1_555 1_555
H32 C32 1_555 1_555
C33 N28 1_555 1_555
C34 H33 1_555 1_555
H34 C34 1_555 1_555
C35 N30 1_555 1_555
C36 H35 1_555 1_555
H36 C36 1_555 1_555
C37 N32 1_555 1_555
C38 H37 1_555 1_555
H38 C38 1_555 1_555
C39 N34 1_555 1_555
C40 H39 1_555 1_555
H40 C40 1_555 1_555
C41 H41 1_555 1_555
C42 C41 1_555 1_555
H42 C42 1_555 1_555
C43 H43 1_555 1_555
C44 C43 1_555 1_555
H44 C44 1_555 1_555
C45 H45 1_555 1_555
C46 C45 1_555 1_555
H46 C46 1_555 1_555
C47 H47 1_555 1_555
C48 C47 1_555 1_555
H48 C48 1_555 1_555
C49 H49 1_555 1_555
C50 C49 1_555 1_555
H50 C50 1_555 1_555
C51 N36 1_555 1_555
C52 H51 1_555 1_555
H52 C52 1_555 1_555
C53 N38 1_555 1_555
C54 H53 1_555 1_555
H54 C54 1_555 1_555
C55 N40 1_555 1_555
C56 H55 1_555 1_555
H56 C56 1_555 1_555
C57 N42 1_555 1_555
C58 H57 1_555 1_555
H58 C58 1_555 1_555
C59 N44 1_555 1_555
C60 H59 1_555 1_555
H60 C60 1_555 1_555
N6 C10 1_555 1_555
N7 C1 1_555 1_555
N8 C2 1_555 1_555
N9 C3 1_555 1_555
N10 C4 1_555 1_555
N11 C5 1_555 1_555
N12 C6 1_555 1_555
N13 C7 1_555 1_555
N14 C8 1_555 1_555
N15 C9 1_555 1_555
N16 C11 1_555 1_555
N17 C12 1_555 1_555
N18 C13 1_555 1_555
N19 C14 1_555 1_555
N20 C15 1_555 1_555
N21 C16 1_555 1_555
N22 C17 1_555 1_555
N23 C18 1_555 1_555
N24 C19 1_555 1_555
N25 C20 1_555 1_555
N26 C40 1_555 1_555
N27 C31 1_555 1_555
N28 C32 1_555 1_555
N29 C33 1_555 1_555
N30 C34 1_555 1_555
N31 C35 1_555 1_555
N32 C36 1_555 1_555
N33 C37 1_555 1_555
N34 C38 1_555 1_555
N35 C39 1_555 1_555
N36 C41 1_555 1_555
N37 C42 1_555 1_555
N38 C43 1_555 1_555
N39 C44 1_555 1_555
N40 C45 1_555 1_555
N41 C46 1_555 1_555
N42 C47 1_555 1_555
N43 C48 1_555 1_555
N44 C49 1_555 1_555
N45 C50 1_555 1_555
O24 Sm3 1_555 1_555
O25 Sm3 1_555 1_555
O26 Sm3 1_555 1_555
O27 Sm3 1_555 1_555
O28 Sm3 1_555 1_555
O29 C27 1_555 1_555
O30 Sm2 1_555 1_555
O31 C21 1_555 1_555
O32 C23 1_555 1_555
O33 C25 1_555 1_555
O34 Sm2 1_555 1_555
O35 Sm2 1_555 1_555
O36 C35 1_555 1_555
O37 Sm1 1_555 1_555
O38 C39 1_555 1_555
O39 C59 1_555 1_555
O40 C51 1_555 1_555
O41 C53 1_555 1_555
O42 C55 1_555 1_555
O43 C57 1_555 1_555
Sm1A O39 1_555 1_555
Sm3A O32 1_555 1_555
O32A Sm3 1_555 1_555
O39A Sm1 1_555 1_555
O40A Sm1 1_555 1_555
O41A Sm1 1_555 1_555
O42A Sm1 1_555 1_555
O43A Sm1 1_555 1_555
C1 O24 1_555 1_555
C2 N7 1_555 1_555
C3 O25 1_555 1_555
C4 N9 1_555 1_555
C5 O26 1_555 1_555
C6 N11 1_555 1_555
C7 O27 1_555 1_555
C8 N13 1_555 1_555
C9 O28 1_555 1_555
C10 N15 1_555 1_555
C11 N6 1_555 1_555
C12 N7 1_555 1_555
C13 N8 1_555 1_555
C14 N9 1_555 1_555
C15 N10 1_555 1_555
C16 N11 1_555 1_555
C17 N12 1_555 1_555
C18 N13 1_555 1_555
C19 N14 1_555 1_555
C20 N15 1_555 1_555
C21 N17 1_555 1_555
C22 N17 1_555 1_555
C22 N18 1_555 1_555
C23 N19 1_555 1_555
C24 N19 1_555 1_555
C24 N20 1_555 1_555
C25 N21 1_555 1_555
C26 N21 1_555 1_555
C26 N22 1_555 1_555
C27 N23 1_555 1_555
C28 N23 1_555 1_555
C28 N24 1_555 1_555
C29 N25 1_555 1_555
C29 O30 1_555 1_555
C30 N16 1_555 1_555
C30 N25 1_555 1_555
C31 O34 1_555 1_555
C32 N27 1_555 1_555
C33 O35 1_555 1_555
C34 N29 1_555 1_555
C36 N31 1_555 1_555
C37 O37 1_555 1_555
C38 N33 1_555 1_555
C40 N35 1_555 1_555
C41 N26 1_555 1_555
C42 N27 1_555 1_555
C43 N28 1_555 1_555
C44 N29 1_555 1_555
C45 N30 1_555 1_555
C46 N31 1_555 1_555
C47 N32 1_555 1_555
C48 N33 1_555 1_555
C49 N34 1_555 1_555
C50 N35 1_555 1_555
C51 N37 1_555 1_555
C52 N37 1_555 1_555
C52 N38 1_555 1_555
C53 N39 1_555 1_555
C54 N39 1_555 1_555
C54 N40 1_555 1_555
C55 N41 1_555 1_555
C56 N41 1_555 1_555
C56 N42 1_555 1_555
C57 N43 1_555 1_555
C58 N43 1_555 1_555
C58 N44 1_555 1_555
C59 N45 1_555 1_555
C60 N36 1_555 1_555
C60 N45 1_555 1_555
O40 Sm1A 1_555 1_555
O41 Sm1A 1_555 1_555
O42 Sm1A 1_555 1_555
O43 Sm1A 1_555 1_555

#END
