
#######################################################################
#
#                 Cambridge Crystallographic Data Centre
#                                CCDC 
#
#######################################################################
#
# If this CIF has been generated from an entry in the Cambridge 
# Structural Database, then it will include bibliographic, chemical, 
# crystal, experimental, refinement or atomic coordinate data resulting 
# from the CCDC's data processing and validation procedures.
#
#######################################################################

data_UBEVIG
_symmetry_cell_setting           monoclinic
_symmetry_space_group_name_H-M   'C 2/c'
_symmetry_Int_Tables_number      15
_space_group_name_Hall           '-C 2yn'
loop_
_symmetry_equiv_pos_site_id
_symmetry_equiv_pos_as_xyz
1 x,y,z
2 1/2+x,1/2+y,z
3 x,-y,1/2+z
4 1/2+x,1/2-y,1/2+z
5 -x,-y,-z
6 1/2-x,1/2-y,-z
7 -x,y,1/2-z
8 1/2-x,1/2+y,1/2-z
_cell_length_a                   25.3092(14)
_cell_length_b                   12.0228(7)
_cell_length_c                   20.0491(11)
_cell_angle_alpha                90
_cell_angle_beta                 97.8200(10)
_cell_angle_gamma                90
_cell_volume                     6043.96
loop_
_atom_site_label
_atom_site_type_symbol
_atom_site_fract_x
_atom_site_fract_y
_atom_site_fract_z
Li1 Li -0.29201(17) 1.2599(4) -0.0715(2)
Li2 Li -0.11093(17) 1.0774(4) -0.0442(2)
Li3 Li -0.01800(17) 1.0976(4) 0.1749(2)
B1 B -0.20811(13) 1.1522(3) -0.04868(17)
H1 H -0.1911(10) 1.067(2) -0.0578(13)
H2 H -0.1742(10) 1.205(2) -0.0215(12)
H3 H -0.2247(10) 1.194(2) -0.0989(13)
H4 H -0.2416(10) 1.144(2) -0.0132(13)
B2 B -0.05054(13) 1.1088(3) 0.06364(17)
H5 H -0.0322(11) 1.032(2) 0.0909(14)
H6 H -0.0366(10) 1.187(2) 0.0978(13)
H7 H -0.0966(10) 1.104(2) 0.0566(12)
H8 H -0.0372(10) 1.115(2) 0.0117(14)
B3 B 0.07072(14) 1.0920(4) 0.23541(19)
H9 H 0.0450(13) 1.168(3) 0.2224(15)
H10 H 0.0512(12) 1.030(3) 0.2039(16)
H11 H -0.0743(11) 1.120(2) 0.2174(17)
H12 H 0.1130(12) 1.095(2) 0.2213(14)
N1 N -0.09491(10) 0.9088(2) -0.05609(17)
H13 H -0.0654(13) 0.906(2) -0.0295(16)
H14 H -0.0882(11) 0.905(2) -0.0958(18)
N2 N -0.10234(11) 1.1651(2) -0.13212(13)
H15 H -0.1355(15) 1.188(3) -0.1423(17)
H16 H -0.1002(12) 1.114(3) -0.1651(17)
N3 N -0.30635(9) 1.4025(2) -0.13079(14)
H17 H -0.3341(13) 1.392(2) -0.1637(16)
H18 H -0.3168(12) 1.447(3) -0.1009(16)
N4 N -0.35901(11) 1.1588(2) -0.08752(15)
H19 H -0.3834(13) 1.208(3) -0.0950(16)
H20 H -0.3638(14) 1.133(3) -0.0489(19)
C1 C -0.12704(11) 0.8115(2) -0.04239(14)
C2 C -0.09533(13) 0.7037(2) -0.04436(17)
H21 H -0.0844 0.6950 -0.0881
H22 H -0.1173 0.6418 -0.0353
H23 H -0.0644 0.7065 -0.0109
C3 C -0.17534(13) 0.8077(3) -0.09641(18)
H24 H -0.1942 0.8770 -0.0970
H25 H -0.1985 0.7482 -0.0869
H26 H -0.1638 0.7955 -0.1395
C4 C -0.14377(15) 0.8282(3) 0.02651(18)
H27 H -0.1126 0.8342 0.0595
H28 H -0.1648 0.7658 0.0372
H29 H -0.1645 0.8950 0.0266
C5 C -0.06645(11) 1.2595(2) -0.14150(15)
C6 C -0.01001(11) 1.2146(3) -0.13589(17)
H30 H -0.0014 1.1766 -0.0937
H31 H 0.0144 1.2751 -0.1382
H32 H -0.0073 1.1637 -0.1722
C7 C -0.07054(14) 1.3426(3) -0.0850(2)
H33 H -0.0613 1.3065 -0.0423
H34 H -0.1064 1.3704 -0.0885
H35 H -0.0465 1.4033 -0.0888
C8 C -0.08117(16) 1.3136(4) -0.2102(2)
H36 H -0.1166 1.3433 -0.2136
H37 H -0.0796 1.2590 -0.2449
H38 H -0.0565 1.3725 -0.2156
C9 C -0.26612(10) 1.4642(2) -0.16375(13)
C10 C -0.21854(11) 1.4860(3) -0.11038(16)
H39 H -0.2046 1.4165 -0.0922
H40 H -0.2296 1.5305 -0.0750
H41 H -0.1914 1.5248 -0.1303
C11 C -0.25024(13) 1.3898(3) -0.21868(16)
H42 H -0.2810 1.3743 -0.2509
H43 H -0.2359 1.3214 -0.1992
H44 H -0.2237 1.4266 -0.2407
C12 C -0.28873(13) 1.5742(3) -0.19325(18)
H45 H -0.3192 1.5598 -0.2262
H46 H -0.2620 1.6123 -0.2142
H47 H -0.2992 1.6196 -0.1579
C13 C -0.37050(11) 1.0677(2) -0.13672(15)
C14 C -0.42800(15) 1.0275(4) -0.1392(2)
H48 H -0.4340 1.0042 -0.0950
H49 H -0.4341 0.9661 -0.1698
H50 H -0.4520 1.0870 -0.1542
C15 C -0.33169(15) 0.9745(3) -0.11592(18)
H51 H -0.2959 1.0008 -0.1161
H52 H -0.3385 0.9138 -0.1470
H53 H -0.3361 0.9498 -0.0715
C16 C -0.36079(15) 1.1122(3) -0.20453(16)
H54 H -0.3245 1.1366 -0.2020
H55 H -0.3843 1.1736 -0.2169
H56 H -0.3674 1.0545 -0.2377
H4E H -0.2584(10) 1.356(2) 0.0132(13)
B3F B -0.07072(14) 1.0920(4) 0.26459(19)
Li1E Li -0.20799(17) 1.2401(4) 0.0715(2)
H11F H 0.0743(11) 1.120(2) 0.2826(17)
Li3F Li 0.01800(17) 1.0976(4) 0.3251(2)
loop_
_geom_bond_atom_site_label_1
_geom_bond_atom_site_label_2
_geom_bond_site_symmetry_1
_geom_bond_site_symmetry_2
Li1 H2 1_555 1_555
Li2 H1 1_555 1_555
Li3 H5 1_555 1_555
B1 H1 1_555 1_555
H2 Li2 1_555 1_555
H3 Li1 1_555 1_555
H4 Li1 1_555 1_555
B2 H5 1_555 1_555
H6 Li3 1_555 1_555
H7 Li2 1_555 1_555
H8 Li2 1_555 1_555
B3 H9 1_555 1_555
H9 Li3 1_555 1_555
H10 Li3 1_555 1_555
H11 Li3 1_555 1_555
H12 B3 1_555 1_555
N1 Li2 1_555 1_555
H13 N1 1_555 1_555
H14 N1 1_555 1_555
N2 Li2 1_555 1_555
H15 N2 1_555 1_555
H16 N2 1_555 1_555
N3 Li1 1_555 1_555
H17 N3 1_555 1_555
H18 N3 1_555 1_555
N4 Li1 1_555 1_555
H19 N4 1_555 1_555
H20 N4 1_555 1_555
C1 N1 1_555 1_555
C2 C1 1_555 1_555
H21 C2 1_555 1_555
H22 C2 1_555 1_555
H23 C2 1_555 1_555
C3 C1 1_555 1_555
H24 C3 1_555 1_555
H25 C3 1_555 1_555
H26 C3 1_555 1_555
C4 C1 1_555 1_555
H27 C4 1_555 1_555
H28 C4 1_555 1_555
H29 C4 1_555 1_555
C5 N2 1_555 1_555
C6 C5 1_555 1_555
H30 C6 1_555 1_555
H31 C6 1_555 1_555
H32 C6 1_555 1_555
C7 C5 1_555 1_555
H33 C7 1_555 1_555
H34 C7 1_555 1_555
H35 C7 1_555 1_555
C8 C5 1_555 1_555
H36 C8 1_555 1_555
H37 C8 1_555 1_555
H38 C8 1_555 1_555
C9 N3 1_555 1_555
C10 C9 1_555 1_555
H39 C10 1_555 1_555
H40 C10 1_555 1_555
H41 C10 1_555 1_555
C11 C9 1_555 1_555
H42 C11 1_555 1_555
H43 C11 1_555 1_555
H44 C11 1_555 1_555
C12 C9 1_555 1_555
H45 C12 1_555 1_555
H46 C12 1_555 1_555
H47 C12 1_555 1_555
C13 N4 1_555 1_555
C14 C13 1_555 1_555
H48 C14 1_555 1_555
H49 C14 1_555 1_555
H50 C14 1_555 1_555
C15 C13 1_555 1_555
H51 C15 1_555 1_555
H52 C15 1_555 1_555
H53 C15 1_555 1_555
C16 C13 1_555 1_555
H54 C16 1_555 1_555
H55 C16 1_555 1_555
H56 C16 1_555 1_555
H4E Li1 1_555 1_555
B3F H11 1_555 1_555
Li1E H4 1_555 1_555
H11F B3 1_555 1_555
Li3F H11F 1_555 1_555
B1 H2 1_555 1_555
B1 H3 1_555 1_555
B1 H4 1_555 1_555
B2 H6 1_555 1_555
B2 H7 1_555 1_555
B2 H8 1_555 1_555
B3 H10 1_555 1_555
H4E Li1E 1_555 1_555

#END
