
#######################################################################
#
#                 Cambridge Crystallographic Data Centre
#                                CCDC 
#
#######################################################################
#
# If this CIF has been generated from an entry in the Cambridge 
# Structural Database, then it will include bibliographic, chemical, 
# crystal, experimental, refinement or atomic coordinate data resulting 
# from the CCDC's data processing and validation procedures.
#
#######################################################################

data_UBEVOM
_symmetry_cell_setting           triclinic
_symmetry_space_group_name_H-M   'P -1'
_symmetry_Int_Tables_number      2
_space_group_name_Hall           '-P 1'
loop_
_symmetry_equiv_pos_site_id
_symmetry_equiv_pos_as_xyz
1 x,y,z
2 -x,-y,-z
_cell_length_a                   8.3580(7)
_cell_length_b                   7.8086(7)
_cell_length_c                   15.2242(13)
_cell_angle_alpha                90.021(1)
_cell_angle_beta                 94.237(2)
_cell_angle_gamma                90.005(2)
_cell_volume                     990.881
loop_
_atom_site_label
_atom_site_type_symbol
_atom_site_fract_x
_atom_site_fract_y
_atom_site_fract_z
N1 N 0.3544(2) 0.1837(2) 0.22192(11)
N2 N 0.1640(2) 0.0122(2) 0.08454(10)
N3 N 0.0797(2) 0.4312(2) 0.11269(11)
N4 N 0.4273(2) 0.2742(2) 0.00628(12)
Li1 Li 0.2585(4) 0.2540(4) 0.0987(2)
C1 C 0.2685(3) 0.0241(3) 0.23800(14)
H1 H 0.1629 0.0505 0.2567
H2 H 0.3266 -0.0398 0.2848
C2 C 0.2523(3) -0.0832(2) 0.15545(14)
H3 H 0.3580 -0.1129 0.1378
H4 H 0.1958 -0.1884 0.1668
C3 C 0.0263(3) 0.5495(2) 0.04127(12)
H5 H 0.1134 0.6261 0.0293
H6 H -0.0624 0.6181 0.0592
C4 C 0.4686(3) 0.4373(2) -0.03458(12)
H7 H 0.3743 0.4845 -0.0668
H8 H 0.5495 0.4176 -0.0760
H9 H 0.3418 0.2583 0.2637
H10 H 0.3893 0.2114 -0.0348
H11 H 0.1765 -0.0376 0.0365
H12 H 0.1089 0.4891 0.1597
H13 H 0.0510 0.0104 0.0920
H14 H 0.0061 0.3641 0.1206
H15 H 0.4584 0.1559 0.2231
H16 H 0.5084 0.2297 0.0361
C3A C -0.0263(3) 0.4505(2) -0.04127(12)
N3A N -0.0797(2) 0.5688(2) -0.11269(11)
H12A H -0.1089 0.5109 -0.1597
H14A H -0.0061 0.6359 -0.1206
H5A H -0.1134 0.3739 -0.0293
H6A H 0.0624 0.3819 -0.0592
C4A C 0.5314(3) 0.5627(2) 0.03458(12)
N4A N 0.5727(2) 0.7258(2) -0.00628(12)
H10A H 0.6107 0.7886 0.0348
H16A H 0.4916 0.7703 -0.0361
H7A H 0.6257 0.5155 0.0668
H8A H 0.4505 0.5824 0.0760
Li1A Li -0.2585(4) 0.7460(4) -0.0987(2)
N1A N -0.3544(2) 0.8163(2) -0.22192(11)
N2A N -0.1640(2) 0.9878(2) -0.08454(10)
C1A C -0.2685(3) 0.9759(3) -0.23800(14)
H1A H -0.1629 0.9495 -0.2567
H2A H -0.3266 1.0398 -0.2848
C2A C -0.2523(3) 1.0832(2) -0.15545(14)
H3A H -0.3580 1.1129 -0.1378
H4A H -0.1958 1.1884 -0.1668
H9A H -0.3418 0.7417 -0.2637
H11A H -0.1765 1.0376 -0.0365
H13A H -0.0510 0.9896 -0.0920
H15A H -0.4584 0.8441 -0.2231
Li1A_2 Li 0.7415(4) 0.7460(4) -0.0987(2)
N4A_2 N -0.4273(2) 0.7258(2) -0.00628(12)
H10A_2 H -0.3893 0.7886 0.0348
H16A_2 H -0.5084 0.7703 -0.0361
B1 B -0.2382(4) 0.0501(3) 0.14951(17)
H17 H -0.223(4) 0.155(4) 0.096(2)
H18 H -0.169(4) -0.069(4) 0.1364(18)
H19 H -0.366(7) 0.025(7) 0.142(3)
H20 H -0.189(8) 0.123(9) 0.205(4)
B2 B -0.2378(4) 0.4500(3) -0.35022(17)
H21 H -0.226(4) 0.349(4) -0.403(2)
H22 H -0.167(4) 0.576(4) -0.3575(18)
H23 H -0.365(7) 0.482(7) -0.362(3)
H24 H -0.224(5) 0.407(6) -0.285(3)
N5 N 0.6449(2) -0.3168(2) -0.72169(11)
N6 N 0.8365(2) -0.4880(2) -0.58452(10)
N7 N 0.9214(2) -0.0695(2) -0.61260(11)
N8 N 0.5733(2) -0.2256(2) -0.50631(12)
Li2 Li 0.7413(4) -0.2455(4) -0.5986(2)
C5 C 0.7479(3) -0.5829(2) -0.65541(14)
H25 H 0.6423 -0.6126 -0.6376
H26 H 0.8042 -0.6882 -0.6669
C6 C 0.7314(3) -0.4755(3) -0.73796(14)
H27 H 0.8370 -0.4484 -0.7566
H28 H 0.6737 -0.5396 -0.7848
C7 C 0.9737(3) 0.0494(2) -0.54131(12)
H29 H 0.8862 0.1256 -0.5295
H30 H 1.0622 0.1185 -0.5591
C8 C 0.5317(3) -0.0629(2) -0.46572(12)
H31 H 0.6262 -0.0156 -0.4336
H32 H 0.4513 -0.0829 -0.4241
H33 H 0.6533 -0.2445 -0.7599
H34 H 0.8898 -0.0206 -0.6562
H35 H 0.4910 -0.2781 -0.5381
H36 H 0.5200 -0.3442 -0.7201
H37 H 1.0231 -0.1501 -0.6303
H38 H 0.6092 -0.2972 -0.4650
H39 H 0.8361 -0.5390 -0.5327
H40 H 0.9573 -0.4933 -0.5995
C7A C 1.0263(3) -0.0494(2) -0.45869(12)
N7A N 1.0786(2) 0.0695(2) -0.38740(11)
H34A H 1.1102 0.0206 -0.3438
H37A H 0.9769 0.1501 -0.3697
H29A H 1.1138 -0.1256 -0.4705
H30A H 0.9378 -0.1185 -0.4409
C8A C 0.4683(3) 0.0629(2) -0.53428(12)
N8A N 0.4267(2) 0.2256(2) -0.49369(12)
H35A H 0.5090 0.2781 -0.4619
H38A H 0.3908 0.2972 -0.5350
H31A H 0.3738 0.0156 -0.5664
H32A H 0.5487 0.0829 -0.5759
Li2A Li 1.2587(4) 0.2455(4) -0.4014(2)
N5A N 1.3551(2) 0.3168(2) -0.27831(11)
N6A N 1.1635(2) 0.4880(2) -0.41548(10)
C5A C 1.2521(3) 0.5829(2) -0.34459(14)
H25A H 1.3577 0.6126 -0.3624
H26A H 1.1958 0.6882 -0.3331
C6A C 1.2686(3) 0.4755(3) -0.26204(14)
H27A H 1.1630 0.4484 -0.2434
H28A H 1.3263 0.5396 -0.2152
H33A H 1.3467 0.2445 -0.2401
H36A H 1.4800 0.3442 -0.2799
H39A H 1.1639 0.5390 -0.4673
H40A H 1.0427 0.4933 -0.4005
Li2A_2 Li 0.2587(4) 0.2455(4) -0.4014(2)
N8A_2 N 1.4267(2) 0.2256(2) -0.49369(12)
H35A_2 H 1.5090 0.2781 -0.4619
H38A_2 H 1.3908 0.2972 -0.5350
loop_
_geom_bond_atom_site_label_1
_geom_bond_atom_site_label_2
_geom_bond_site_symmetry_1
_geom_bond_site_symmetry_2
N1 Li1 1_555 1_555
N2 Li1 1_555 1_555
N3 Li1 1_555 1_555
N4 Li1 1_555 1_555
C1 N1 1_555 1_555
H1 C1 1_555 1_555
H2 C1 1_555 1_555
C2 N2 1_555 1_555
H3 C2 1_555 1_555
H4 C2 1_555 1_555
C3 N3 1_555 1_555
H5 C3 1_555 1_555
H6 C3 1_555 1_555
C4 N4 1_555 1_555
H7 C4 1_555 1_555
H8 C4 1_555 1_555
H9 N1 1_555 1_555
H10 N4 1_555 1_555
H11 N2 1_555 1_555
H12 N3 1_555 1_555
H13 N2 1_555 1_555
H14 N3 1_555 1_555
H15 N1 1_555 1_555
H16 N4 1_555 1_555
B1 H17 1_555 1_555
H18 B1 1_555 1_555
H19 B1 1_555 1_555
H20 B1 1_555 1_555
B2 H21 1_555 1_555
H22 B2 1_555 1_555
H23 B2 1_555 1_555
H24 B2 1_555 1_555
N5 Li2 1_555 1_555
N6 Li2 1_555 1_555
N7 Li2 1_555 1_555
N8 Li2 1_555 1_555
C5 N6 1_555 1_555
H25 C5 1_555 1_555
H26 C5 1_555 1_555
C6 N5 1_555 1_555
H27 C6 1_555 1_555
H28 C6 1_555 1_555
C7 N7 1_555 1_555
H29 C7 1_555 1_555
H30 C7 1_555 1_555
C8 N8 1_555 1_555
H31 C8 1_555 1_555
H32 C8 1_555 1_555
H33 N5 1_555 1_555
H34 N7 1_555 1_555
H35 N8 1_555 1_555
H36 N5 1_555 1_555
H37 N7 1_555 1_555
H38 N8 1_555 1_555
H39 N6 1_555 1_555
H40 N6 1_555 1_555
C3A C3 1_555 1_555
N3A C3A 1_555 1_555
H12A N3A 1_555 1_555
H14A N3A 1_555 1_555
H5A C3A 1_555 1_555
H6A C3A 1_555 1_555
C4A C4 1_555 1_555
N4A C4A 1_555 1_555
H10A N4A 1_555 1_555
H16A N4A 1_555 1_555
H7A C4A 1_555 1_555
H8A C4A 1_555 1_555
C7A C7 1_555 1_555
N7A C7A 1_555 1_555
H34A N7A 1_555 1_555
H37A N7A 1_555 1_555
H29A C7A 1_555 1_555
H30A C7A 1_555 1_555
C8A C8 1_555 1_555
N8A C8A 1_555 1_555
H35A N8A 1_555 1_555
H38A N8A 1_555 1_555
H31A C8A 1_555 1_555
H32A C8A 1_555 1_555
Li1A N3A 1_555 1_555
N1A Li1A 1_555 1_555
N2A Li1A 1_555 1_555
C1A N1A 1_555 1_555
H1A C1A 1_555 1_555
H2A C1A 1_555 1_555
C2A N2A 1_555 1_555
H3A C2A 1_555 1_555
H4A C2A 1_555 1_555
H9A N1A 1_555 1_555
H11A N2A 1_555 1_555
H13A N2A 1_555 1_555
H15A N1A 1_555 1_555
Li2A N7A 1_555 1_555
N5A Li2A 1_555 1_555
N6A Li2A 1_555 1_555
C5A N6A 1_555 1_555
H25A C5A 1_555 1_555
H26A C5A 1_555 1_555
C6A N5A 1_555 1_555
H27A C6A 1_555 1_555
H28A C6A 1_555 1_555
H33A N5A 1_555 1_555
H36A N5A 1_555 1_555
H39A N6A 1_555 1_555
H40A N6A 1_555 1_555
Li1A_2 N4A 1_555 1_555
Li2A_2 N8A 1_555 1_555
N4A_2 Li1A 1_555 1_555
N8A_2 Li2A 1_555 1_555
H10A_2 N4A_2 1_555 1_555
H16A_2 N4A_2 1_555 1_555
H35A_2 N8A_2 1_555 1_555
H38A_2 N8A_2 1_555 1_555
C1 C2 1_555 1_555
C5 C6 1_555 1_555
C1A C2A 1_555 1_555
C5A C6A 1_555 1_555

#END
