
#######################################################################
#
#                 Cambridge Crystallographic Data Centre
#                                CCDC 
#
#######################################################################
#
# If this CIF has been generated from an entry in the Cambridge 
# Structural Database, then it will include bibliographic, chemical, 
# crystal, experimental, refinement or atomic coordinate data resulting 
# from the CCDC's data processing and validation procedures.
#
#######################################################################

data_UBEWEF
_symmetry_cell_setting           orthorhombic
_symmetry_space_group_name_H-M   'P 21 21 21'
_symmetry_Int_Tables_number      19
_space_group_name_Hall           'P 2ac 2ab'
loop_
_symmetry_equiv_pos_site_id
_symmetry_equiv_pos_as_xyz
1 x,y,z
2 1/2-x,-y,1/2+z
3 -x,1/2+y,1/2-z
4 1/2+x,1/2-y,-z
_cell_length_a                   7.4816(6)
_cell_length_b                   8.1746(7)
_cell_length_c                   22.8228(18)
_cell_angle_alpha                90
_cell_angle_beta                 90
_cell_angle_gamma                90
_cell_volume                     1395.82
loop_
_atom_site_label
_atom_site_type_symbol
_atom_site_fract_x
_atom_site_fract_y
_atom_site_fract_z
Ag1 Ag 0.26549(4) 0.84456(3) 0.031806(10)
N1 N 0.1526(3) 0.7421(3) 0.12448(10)
N2 N 0.4442(3) 0.6432(3) 0.06526(10)
N3 N 0.6032(3) 0.5825(3) 0.04543(10)
N4 N 0.5594(3) 0.4915(3) 0.13369(9)
N5 N 0.5966(3) 0.4092(3) 0.18664(10)
H1 H 0.5426 0.3178 0.1849
H2 H 0.5823 0.4729 0.2157
N6 N 0.9348(3) 0.4595(3) 0.03189(11)
C1 C -0.0052(4) 0.7774(4) 0.14911(14)
H3 H -0.0778 0.8539 0.1306
C2 C -0.0662(4) 0.7079(4) 0.19983(14)
H4 H -0.1781 0.7346 0.2147
C3 C 0.0413(5) 0.5982(4) 0.22801(15)
H5 H 0.0051 0.5516 0.2633
C4 C 0.2053(4) 0.5567(4) 0.20351(13)
H6 H 0.2801 0.4816 0.2218
C5 C 0.2544(4) 0.6291(3) 0.15167(10)
C6 C 0.4193(4) 0.5885(3) 0.11834(11)
C7 C 0.6720(3) 0.4915(3) 0.08694(11)
C8 C 0.8460(4) 0.4097(4) 0.07983(11)
C9 C 0.9155(4) 0.2939(4) 0.11710(15)
H7 H 0.8508 0.2593 0.1496
C10 C 1.0827(5) 0.2296(5) 0.10568(17)
H8 H 1.1323 0.1515 0.1305
C11 C 1.1742(4) 0.2826(4) 0.05730(15)
H9 H 1.2878 0.2428 0.0491
C12 C 1.0949(4) 0.3958(4) 0.02118(13)
H10 H 1.1560 0.4293 -0.0122
Ag1C Ag 0.76549(4) 0.65544(3) -0.031806(10)
N3C N 0.1032(3) 0.9175(3) -0.04543(10)
N6C N 0.4348(3) 1.0405(3) -0.03189(11)
O1 O 0.5019(5) 0.0557(4) 0.11506(12)
O2 O 0.3976(3) 0.0946(3) 0.20112(11)
O3 O 0.5575(4) -0.1168(3) 0.18439(12)
N7 N 0.4884(4) 0.0098(4) 0.16654(11)
loop_
_geom_bond_atom_site_label_1
_geom_bond_atom_site_label_2
_geom_bond_site_symmetry_1
_geom_bond_site_symmetry_2
Ag1 N1 1_555 1_555
N1 C1 1_555 1_555
N2 Ag1 1_555 1_555
N3 N2 1_555 1_555
N4 N5 1_555 1_555
N5 H1 1_555 1_555
H2 N5 1_555 1_555
N6 C8 1_555 1_555
C1 H3 1_555 1_555
C2 C1 1_555 1_555
H4 C2 1_555 1_555
C3 C2 1_555 1_555
H5 C3 1_555 1_555
C4 C3 1_555 1_555
H6 C4 1_555 1_555
C5 N1 1_555 1_555
C6 N2 1_555 1_555
C7 N3 1_555 1_555
C8 C7 1_555 1_555
C9 C8 1_555 1_555
H7 C9 1_555 1_555
C10 C9 1_555 1_555
H8 C10 1_555 1_555
C11 C10 1_555 1_555
H9 C11 1_555 1_555
C12 N6 1_555 1_555
H10 C12 1_555 1_555
O1 N7 1_555 1_555
O2 N7 1_555 1_555
O3 N7 1_555 1_555
Ag1C N3 1_555 1_555
N3C Ag1 1_555 1_555
N6C Ag1 1_555 1_555
N4 C6 1_555 1_555
N4 C7 1_555 1_555
N6 Ag1C 1_555 1_555
C4 C5 1_555 1_555
C5 C6 1_555 1_555
C11 C12 1_555 1_555

#END
