
#######################################################################
#
#                 Cambridge Crystallographic Data Centre
#                                CCDC 
#
#######################################################################
#
# If this CIF has been generated from an entry in the Cambridge 
# Structural Database, then it will include bibliographic, chemical, 
# crystal, experimental, refinement or atomic coordinate data resulting 
# from the CCDC's data processing and validation procedures.
#
#######################################################################

data_UBEWON
_symmetry_cell_setting           monoclinic
_symmetry_space_group_name_H-M   'P 21/c'
_symmetry_Int_Tables_number      14
_space_group_name_Hall           '-P 2ybc'
loop_
_symmetry_equiv_pos_site_id
_symmetry_equiv_pos_as_xyz
1 x,y,z
2 x,1/2-y,1/2+z
3 -x,-y,-z
4 -x,1/2+y,1/2-z
_cell_length_a                   20.011(18)
_cell_length_b                   18.667(16)
_cell_length_c                   13.031(8)
_cell_angle_alpha                90
_cell_angle_beta                 90.37(2)
_cell_angle_gamma                90
_cell_volume                     4867.57
loop_
_atom_site_label
_atom_site_type_symbol
_atom_site_fract_x
_atom_site_fract_y
_atom_site_fract_z
N1 N -0.44704(12) 0.43707(12) -1.1188(2)
N2 N -0.39063(12) 0.48175(13) -0.9736(2)
N5 N -0.46780(12) 0.38685(12) -0.9555(2)
Li4 Li -0.5000 0.5000 -1.0000
C1 C -0.3827(2) 0.4654(2) -1.0823(3)
H1 H -0.3476(2) 0.4301(2) -1.0917(3)
H2 H -0.3709(2) 0.5083(2) -1.1200(3)
C2 C -0.4045(2) 0.4157(2) -0.9175(3)
H3 H -0.3688(2) 0.3813(2) -0.9283(3)
H4 H -0.4074(2) 0.4255(2) -0.8445(3)
C5 C -0.4602(2) 0.3698(2) -1.0643(2)
H9 H -0.5006(2) 0.3476(2) -1.0908(2)
H10 H -0.4233(2) 0.3367(2) -1.0737(2)
C7 C -0.4460(2) 0.4257(2) -1.2314(3)
H13 H -0.4197(2) 0.3833(2) -1.2463(3)
H14 H -0.4244(2) 0.4663(2) -1.2636(3)
C8 C -0.5144(2) 0.4167(2) -1.2765(2)
C9 C -0.5457(2) 0.3508(2) -1.2814(3)
H15 H -0.5233(2) 0.3105(2) -1.2572(3)
C10 C -0.6092(2) 0.3435(2) -1.3211(3)
H16 H -0.6299(2) 0.2989(2) -1.3214(3)
C11 C -0.6419(2) 0.4018(2) -1.3601(3)
H17 H -0.6845(2) 0.3968(2) -1.3880(3)
C12 C -0.6114(2) 0.4677(2) -1.3579(3)
H18 H -0.6335(2) 0.5074(2) -1.3845(3)
C13 C -0.5483(2) 0.4753(2) -1.3166(3)
H19 H -0.5282(2) 0.5202(2) -1.3157(3)
C14 C -0.3297(2) 0.5138(2) -0.9301(3)
H20 H -0.2932(2) 0.4802(2) -0.9376(3)
H21 H -0.3363(2) 0.5217(2) -0.8573(3)
C15 C -0.31044(15) 0.5837(2) -0.9795(2)
C16 C -0.2560(2) 0.5877(2) -1.0428(3)
H22 H -0.2321(2) 0.5462(2) -1.0578(3)
C17 C -0.2362(2) 0.6518(2) -1.0845(3)
H23 H -0.1991(2) 0.6537(2) -1.1269(3)
C18 C -0.2715(2) 0.7129(2) -1.0633(3)
H24 H -0.2582(2) 0.7563(2) -1.0914(3)
C19 C -0.3263(2) 0.7101(2) -1.0007(3)
H25 H -0.3504(2) 0.7516(2) -0.9868(3)
C20 C -0.3455(2) 0.6455(2) -0.9582(3)
H26 H -0.3824(2) 0.6437(2) -0.9151(3)
C21 C -0.4860(2) 0.3207(2) -0.8997(3)
H27 H -0.4511(2) 0.2854(2) -0.9093(3)
H28 H -0.5269(2) 0.3015(2) -0.9291(3)
C22 C -0.4959(2) 0.33228(15) -0.7864(3)
C23 C -0.5569(2) 0.3552(2) -0.7486(3)
H29 H -0.5918(2) 0.3644(2) -0.7942(3)
C24 C -0.5669(2) 0.3648(2) -0.6451(4)
H30 H -0.6082(2) 0.3798(2) -0.6209(4)
C25 C -0.5152(2) 0.3519(2) -0.5780(3)
H31 H -0.5218(2) 0.3583(2) -0.5080(3)
C26 C -0.4536(2) 0.3295(2) -0.6128(3)
H32 H -0.4186(2) 0.3213(2) -0.5669(3)
C27 C -0.4447(2) 0.3197(2) -0.7169(3)
H33 H -0.4034(2) 0.3042(2) -0.7407(3)
N1B N -0.55296(12) 0.56293(12) -0.8812(2)
N2B N -0.60937(12) 0.51825(13) -1.0264(2)
N5B N -0.53220(12) 0.61315(12) -1.0445(2)
C1B C -0.6173(2) 0.5346(2) -0.9177(3)
H1B H -0.6524(2) 0.5699(2) -0.9083(3)
H2B H -0.6291(2) 0.4917(2) -0.8800(3)
C2B C -0.5955(2) 0.5843(2) -1.0825(3)
H3B H -0.6312(2) 0.6187(2) -1.0717(3)
H4B H -0.5926(2) 0.5745(2) -1.1555(3)
C5B C -0.5398(2) 0.6302(2) -0.9357(2)
H9B H -0.4994(2) 0.6524(2) -0.9092(2)
H10B H -0.5767(2) 0.6633(2) -0.9263(2)
C7B C -0.5540(2) 0.5743(2) -0.7686(3)
H13B H -0.5803(2) 0.6167(2) -0.7537(3)
H14B H -0.5756(2) 0.5337(2) -0.7364(3)
C8B C -0.4856(2) 0.5833(2) -0.7235(2)
C9B C -0.4543(2) 0.6492(2) -0.7186(3)
H15B H -0.4767(2) 0.6895(2) -0.7428(3)
C10B C -0.3908(2) 0.6565(2) -0.6789(3)
H16B H -0.3701(2) 0.7011(2) -0.6786(3)
C11B C -0.3581(2) 0.5982(2) -0.6399(3)
H17B H -0.3155(2) 0.6032(2) -0.6120(3)
C12B C -0.3886(2) 0.5323(2) -0.6421(3)
H18B H -0.3665(2) 0.4926(2) -0.6155(3)
C13B C -0.4517(2) 0.5247(2) -0.6834(3)
H19B H -0.4718(2) 0.4798(2) -0.6843(3)
C14B C -0.6703(2) 0.4862(2) -1.0699(3)
H20B H -0.7068(2) 0.5198(2) -1.0624(3)
H21B H -0.6637(2) 0.4783(2) -1.1427(3)
C15B C -0.68956(15) 0.4163(2) -1.0205(2)
C16B C -0.7440(2) 0.4123(2) -0.9572(3)
H22B H -0.7679(2) 0.4538(2) -0.9422(3)
C17B C -0.7638(2) 0.3482(2) -0.9155(3)
H23B H -0.8009(2) 0.3463(2) -0.8731(3)
C18B C -0.7285(2) 0.2871(2) -0.9367(3)
H24B H -0.7418(2) 0.2437(2) -0.9086(3)
C19B C -0.6737(2) 0.2899(2) -0.9993(3)
H25B H -0.6496(2) 0.2484(2) -1.0132(3)
C20B C -0.6545(2) 0.3545(2) -1.0418(3)
H26B H -0.6176(2) 0.3563(2) -1.0849(3)
C21B C -0.5140(2) 0.6793(2) -1.1003(3)
H27B H -0.5489(2) 0.7146(2) -1.0907(3)
H28B H -0.4731(2) 0.6985(2) -1.0709(3)
C22B C -0.5041(2) 0.66772(15) -1.2136(3)
C23B C -0.4431(2) 0.6448(2) -1.2514(3)
H29B H -0.4082(2) 0.6356(2) -1.2058(3)
C24B C -0.4331(2) 0.6352(2) -1.3549(4)
H30B H -0.3918(2) 0.6202(2) -1.3791(4)
C25B C -0.4848(2) 0.6481(2) -1.4220(3)
H31B H -0.4782(2) 0.6417(2) -1.4920(3)
C26B C -0.5464(2) 0.6705(2) -1.3872(3)
H32B H -0.5814(2) 0.6787(2) -1.4331(3)
C27B C -0.5553(2) 0.6803(2) -1.2831(3)
H33B H -0.5966(2) 0.6958(2) -1.2593(3)
N3 N 0.10202(13) 0.55522(13) -0.4714(2)
N4 N 0.00255(12) 0.61110(13) -0.4171(2)
N6 N 0.02569(12) 0.60012(13) -0.5926(2)
Li1 Li 0.0000 0.5000 -0.5000
C3 C 0.0733(2) 0.6014(2) -0.3927(3)
H5 H 0.0959(2) 0.6474(2) -0.3919(3)
H6 H 0.0784(2) 0.5795(2) -0.3256(3)
C4 C 0.0963(2) 0.5923(2) -0.5695(3)
H7 H 0.1174(2) 0.6390(2) -0.5653(3)
H8 H 0.1181(2) 0.5649(2) -0.6229(3)
C6 C -0.0029(2) 0.6471(2) -0.5152(3)
H11 H 0.0212(2) 0.6922(2) -0.5132(3)
H12 H -0.0494(2) 0.6569(2) -0.5313(3)
C28 C -0.0294(2) 0.6547(2) -0.3360(3)
H34 H -0.0711(2) 0.6739(2) -0.3624(3)
H35 H -0.0004(2) 0.6948(2) -0.3193(3)
C29 C -0.0430(2) 0.6131(2) -0.2406(4)
C30 C -0.0900(2) 0.5593(2) -0.2416(3)
H36 H -0.1124(2) 0.5490(2) -0.3026(3)
C31 C -0.1048(2) 0.5201(2) -0.1548(5)
H37 H -0.1358(2) 0.4831(2) -0.1580(5)
C32 C -0.0738(3) 0.5360(3) -0.0647(5)
H38 H -0.0843(3) 0.5102(3) -0.0059(5)
C33 C -0.0275(3) 0.5894(3) -0.0595(4)
H39 H -0.0068(3) 0.6004(3) 0.0026(4)
C34 C -0.0110(2) 0.6279(2) -0.1486(5)
H40 H 0.0215(2) 0.6635(2) -0.1457(5)
C35 C 0.1733(2) 0.5404(2) -0.4457(3)
H41 H 0.1767(2) 0.5241(2) -0.3752(3)
H42 H 0.1990(2) 0.5842(2) -0.4521(3)
C36 C 0.2015(2) 0.4843(2) -0.5159(3)
C37 C 0.1850(2) 0.4129(2) -0.5016(3)
H43 H 0.1573(2) 0.4001(2) -0.4476(3)
C38 C 0.2089(2) 0.3608(2) -0.5662(3)
H44 H 0.1976(2) 0.3130(2) -0.5553(3)
C39 C 0.2490(2) 0.3788(2) -0.6462(3)
H45 H 0.2646(2) 0.3435(2) -0.6904(3)
C40 C 0.2664(2) 0.4492(2) -0.6615(3)
H46 H 0.2940(2) 0.4614(2) -0.7160(3)
C41 C 0.2431(2) 0.5021(2) -0.5962(3)
H47 H 0.2555(2) 0.5495(2) -0.6065(3)
C42 C 0.0170(2) 0.6309(2) -0.6964(3)
H48 H 0.0426(2) 0.6028(2) -0.7450(3)
H49 H 0.0345(2) 0.6793(2) -0.6969(3)
C43 C -0.0552(2) 0.6321(2) -0.7301(3)
C44 C -0.0843(2) 0.5717(2) -0.7730(3)
H50 H -0.0592(2) 0.5302(2) -0.7810(3)
C45 C -0.1498(2) 0.5728(2) -0.8036(3)
H51 H -0.1693(2) 0.5318(2) -0.8309(3)
C46 C -0.1872(2) 0.6346(2) -0.7943(3)
H52 H -0.2315(2) 0.6353(2) -0.8160(3)
C47 C -0.1587(2) 0.6948(2) -0.7530(3)
H53 H -0.1837(2) 0.7366(2) -0.7464(3)
C48 C -0.0933(2) 0.6934(2) -0.7214(3)
H54 H -0.0742(2) 0.7345(2) -0.6936(3)
N3B N -0.10202(13) 0.44478(13) -0.5286(2)
N4B N -0.00255(12) 0.38890(13) -0.5829(2)
N6B N -0.02569(12) 0.39988(13) -0.4074(2)
C3B C -0.0733(2) 0.3986(2) -0.6073(3)
H5B H -0.0959(2) 0.3526(2) -0.6081(3)
H6B H -0.0784(2) 0.4205(2) -0.6744(3)
C4B C -0.0963(2) 0.4077(2) -0.4305(3)
H7B H -0.1174(2) 0.3610(2) -0.4347(3)
H8B H -0.1181(2) 0.4351(2) -0.3771(3)
C6B C 0.0029(2) 0.3529(2) -0.4848(3)
H11B H -0.0212(2) 0.3078(2) -0.4868(3)
H12B H 0.0494(2) 0.3431(2) -0.4687(3)
C28B C 0.0294(2) 0.3453(2) -0.6640(3)
H34B H 0.0711(2) 0.3261(2) -0.6376(3)
H35B H 0.0004(2) 0.3052(2) -0.6807(3)
C29B C 0.0430(2) 0.3869(2) -0.7594(4)
C30B C 0.0900(2) 0.4407(2) -0.7584(3)
H36B H 0.1124(2) 0.4510(2) -0.6974(3)
C31B C 0.1048(2) 0.4799(2) -0.8452(5)
H37B H 0.1358(2) 0.5169(2) -0.8420(5)
C32B C 0.0738(3) 0.4640(3) -0.9353(5)
H38B H 0.0843(3) 0.4898(3) -0.9941(5)
C33B C 0.0275(3) 0.4106(3) -0.9405(4)
H39B H 0.0068(3) 0.3996(3) -1.0026(4)
C34B C 0.0110(2) 0.3721(2) -0.8514(5)
H40B H -0.0215(2) 0.3365(2) -0.8543(5)
C35B C -0.1733(2) 0.4596(2) -0.5543(3)
H41B H -0.1767(2) 0.4759(2) -0.6248(3)
H42B H -0.1990(2) 0.4158(2) -0.5479(3)
C36B C -0.2015(2) 0.5157(2) -0.4841(3)
C37B C -0.1850(2) 0.5871(2) -0.4984(3)
H43B H -0.1573(2) 0.5999(2) -0.5524(3)
C38B C -0.2089(2) 0.6392(2) -0.4338(3)
H44B H -0.1976(2) 0.6870(2) -0.4447(3)
C39B C -0.2490(2) 0.6212(2) -0.3538(3)
H45B H -0.2646(2) 0.6565(2) -0.3096(3)
C40B C -0.2664(2) 0.5508(2) -0.3385(3)
H46B H -0.2940(2) 0.5386(2) -0.2840(3)
C41B C -0.2431(2) 0.4979(2) -0.4038(3)
H47B H -0.2555(2) 0.4505(2) -0.3935(3)
C42B C -0.0170(2) 0.3691(2) -0.3036(3)
H48B H -0.0426(2) 0.3972(2) -0.2550(3)
H49B H -0.0345(2) 0.3207(2) -0.3031(3)
C43B C 0.0552(2) 0.3679(2) -0.2699(3)
C44B C 0.0843(2) 0.4283(2) -0.2270(3)
H50B H 0.0592(2) 0.4698(2) -0.2190(3)
C45B C 0.1498(2) 0.4272(2) -0.1964(3)
H51B H 0.1693(2) 0.4682(2) -0.1691(3)
C46B C 0.1872(2) 0.3654(2) -0.2057(3)
H52B H 0.2315(2) 0.3647(2) -0.1840(3)
C47B C 0.1587(2) 0.3052(2) -0.2470(3)
H53B H 0.1837(2) 0.2634(2) -0.2536(3)
C48B C 0.0933(2) 0.3066(2) -0.2786(3)
H54B H 0.0742(2) 0.2655(2) -0.3064(3)
Li2 Li 0.2230(4) 0.6998(4) -0.0031(6)
Li3 Li 0.2281(4) 0.7511(5) -0.2127(7)
B1 B 0.2991(3) 0.7864(4) -0.0763(8)
B2 B 0.1908(8) 0.6749(8) 0.1538(9)
B3 B 0.1892(5) 0.6392(4) -0.1520(9)
H55 H 0.2392(19) 0.7936(18) -0.0727(26)
H56 H 0.1647(17) 0.6894(21) -0.1277(27)
H57 H 0.3092(22) 0.7413(27) -0.0209(37)
H58 H 0.1539(24) 0.5963(30) -0.1678(38)
H59 H 0.1754(29) 0.6723(30) 0.2375(54)
H60 H 0.2306(35) 0.6244(33) -0.0839(55)
H61 H 0.3280(27) 0.8419(32) -0.0561(41)
H62 H 0.3118(33) 0.7706(35) -0.1603(57)
H63 H 0.2056(35) 0.7208(34) 0.1413(44)
H64 H 0.1470(49) 0.6873(45) 0.0822(92)
H65 H 0.2548(55) 0.6881(58) 0.1466(71)
H66 H 0.2201(37) 0.6484(38) -0.2261(61)
Li3A Li 0.2281(4) 0.7489(5) 0.2873(7)
B2A B 0.1908(8) 0.8251(8) -0.3462(9)
H59A H 0.1754(29) 0.8277(30) -0.2625(54)
H63A H 0.2056(35) 0.7792(34) -0.3587(44)
H64A H 0.1470(49) 0.8127(45) -0.4178(92)
H65A H 0.2548(55) 0.8119(58) -0.3534(71)
Li2A Li 0.2230(4) 0.8002(4) -0.5031(6)
Li2A_2 Li 0.2230(4) 0.8002(4) 0.4969(6)
B1A B 0.2991(3) 0.7136(4) 0.4237(8)
B3A B 0.1892(5) 0.8608(4) 0.3480(9)
H55A H 0.2392(19) 0.7064(18) 0.4273(26)
H56A H 0.1647(17) 0.8106(21) 0.3723(27)
H62A H 0.3118(33) 0.7294(35) 0.3397(57)
H66A H 0.2201(37) 0.8516(38) 0.2739(61)
Li3A_2 Li 0.2281(4) 0.7489(5) -0.7127(7)
B1A_2 B 0.2991(3) 0.7136(4) -0.5763(8)
B3A_2 B 0.1892(5) 0.8608(4) -0.6520(9)
H55A_2 H 0.2392(19) 0.7064(18) -0.5727(26)
H56A_2 H 0.1647(17) 0.8106(21) -0.6277(27)
H57A H 0.3092(22) 0.7587(27) -0.5209(37)
H60A H 0.2306(35) 0.8756(33) -0.5839(55)
H57A_2 H 0.3092(22) 0.7587(27) 0.4791(37)
H60A_2 H 0.2306(35) 0.8756(33) 0.4161(55)
H63A_2 H 0.2056(35) 0.7792(34) 0.6413(44)
H64A_2 H 0.1470(49) 0.8127(45) 0.5822(92)
H65A_2 H 0.2548(55) 0.8119(58) 0.6466(71)
H61A H 0.3280(27) 0.6581(32) 0.4439(41)
H58A H 0.1539(24) 0.9037(30) 0.3322(38)
H59_2 H 0.1754(29) 0.6723(30) -0.7625(54)
H62A_2 H 0.3118(33) 0.7294(35) -0.6603(57)
H63_2 H 0.2056(35) 0.7208(34) -0.8587(44)
H66A_2 H 0.2201(37) 0.8516(38) -0.7261(61)
H61A_2 H 0.3280(27) 0.6581(32) -0.5561(41)
H58A_2 H 0.1539(24) 0.9037(30) -0.6678(38)
H67? H 0.2860(26) 0.8263(28) 0.1986(42)
H68? H 0.2171(49) 0.6280(60) 0.1038(90)
loop_
_geom_bond_atom_site_label_1
_geom_bond_atom_site_label_2
_geom_bond_site_symmetry_1
_geom_bond_site_symmetry_2
N1 Li4 1_555 1_555
N2 Li4 1_555 1_555
N3 Li1 1_555 1_555
N4 Li1 1_555 1_555
N5 Li4 1_555 1_555
N6 Li1 1_555 1_555
Li1 N3B 1_555 1_555
Li2 H55 1_555 1_555
Li3 H55 1_555 1_555
Li4 N1B 1_555 1_555
B1 H55 1_555 1_555
B2 H59 1_555 1_555
B3 H56 1_555 1_555
C1 N1 1_555 1_555
H1 C1 1_555 1_555
H2 C1 1_555 1_555
C2 N2 1_555 1_555
H3 C2 1_555 1_555
H4 C2 1_555 1_555
C3 N3 1_555 1_555
H5 C3 1_555 1_555
H6 C3 1_555 1_555
C4 N3 1_555 1_555
H7 C4 1_555 1_555
H8 C4 1_555 1_555
C5 N1 1_555 1_555
H9 C5 1_555 1_555
H10 C5 1_555 1_555
C6 N4 1_555 1_555
H11 C6 1_555 1_555
H12 C6 1_555 1_555
C7 N1 1_555 1_555
H13 C7 1_555 1_555
H14 C7 1_555 1_555
C8 C7 1_555 1_555
C9 C8 1_555 1_555
H15 C9 1_555 1_555
C10 C9 1_555 1_555
H16 C10 1_555 1_555
C11 C10 1_555 1_555
H17 C11 1_555 1_555
C12 C11 1_555 1_555
H18 C12 1_555 1_555
C13 C8 1_555 1_555
H19 C13 1_555 1_555
C14 N2 1_555 1_555
H20 C14 1_555 1_555
H21 C14 1_555 1_555
C15 C14 1_555 1_555
C16 C15 1_555 1_555
H22 C16 1_555 1_555
C17 C16 1_555 1_555
H23 C17 1_555 1_555
C18 C17 1_555 1_555
H24 C18 1_555 1_555
C19 C18 1_555 1_555
H25 C19 1_555 1_555
C20 C15 1_555 1_555
H26 C20 1_555 1_555
C21 N5 1_555 1_555
H27 C21 1_555 1_555
H28 C21 1_555 1_555
C22 C21 1_555 1_555
C23 C22 1_555 1_555
H29 C23 1_555 1_555
C24 C23 1_555 1_555
H30 C24 1_555 1_555
C25 C24 1_555 1_555
H31 C25 1_555 1_555
C26 C25 1_555 1_555
H32 C26 1_555 1_555
C27 C22 1_555 1_555
H33 C27 1_555 1_555
C28 N4 1_555 1_555
H34 C28 1_555 1_555
H35 C28 1_555 1_555
C29 C28 1_555 1_555
C30 C29 1_555 1_555
H36 C30 1_555 1_555
C31 C30 1_555 1_555
H37 C31 1_555 1_555
C32 C31 1_555 1_555
H38 C32 1_555 1_555
C33 C32 1_555 1_555
H39 C33 1_555 1_555
C34 C29 1_555 1_555
H40 C34 1_555 1_555
C35 N3 1_555 1_555
H41 C35 1_555 1_555
H42 C35 1_555 1_555
C36 C35 1_555 1_555
C37 C36 1_555 1_555
H43 C37 1_555 1_555
C38 C37 1_555 1_555
H44 C38 1_555 1_555
C39 C38 1_555 1_555
H45 C39 1_555 1_555
C40 C39 1_555 1_555
H46 C40 1_555 1_555
C41 C36 1_555 1_555
H47 C41 1_555 1_555
C42 N6 1_555 1_555
H48 C42 1_555 1_555
H49 C42 1_555 1_555
C43 C42 1_555 1_555
C44 C43 1_555 1_555
H50 C44 1_555 1_555
C45 C44 1_555 1_555
H51 C45 1_555 1_555
C46 C45 1_555 1_555
H52 C46 1_555 1_555
C47 C46 1_555 1_555
H53 C47 1_555 1_555
C48 C43 1_555 1_555
H54 C48 1_555 1_555
H56 Li2 1_555 1_555
H57 Li2 1_555 1_555
H58 B3 1_555 1_555
H59 Li3A 1_555 1_555
H60 Li2 1_555 1_555
H61 B1 1_555 1_555
H62 Li3 1_555 1_555
H63 Li2 1_555 1_555
H64 Li2 1_555 1_555
H65 Li2 1_555 1_555
H66 Li3 1_555 1_555
N3B C3B 1_555 1_555
N4B Li1 1_555 1_555
N6B Li1 1_555 1_555
C3B N4B 1_555 1_555
H5B C3B 1_555 1_555
H6B C3B 1_555 1_555
C4B N3B 1_555 1_555
H7B C4B 1_555 1_555
H8B C4B 1_555 1_555
C6B N4B 1_555 1_555
H11B C6B 1_555 1_555
H12B C6B 1_555 1_555
C28B N4B 1_555 1_555
H34B C28B 1_555 1_555
H35B C28B 1_555 1_555
C29B C28B 1_555 1_555
C30B C29B 1_555 1_555
H36B C30B 1_555 1_555
C31B C30B 1_555 1_555
H37B C31B 1_555 1_555
C32B C31B 1_555 1_555
H38B C32B 1_555 1_555
C33B C32B 1_555 1_555
H39B C33B 1_555 1_555
C34B C29B 1_555 1_555
H40B C34B 1_555 1_555
C35B N3B 1_555 1_555
H41B C35B 1_555 1_555
H42B C35B 1_555 1_555
C36B C35B 1_555 1_555
C37B C36B 1_555 1_555
H43B C37B 1_555 1_555
C38B C37B 1_555 1_555
H44B C38B 1_555 1_555
C39B C38B 1_555 1_555
H45B C39B 1_555 1_555
C40B C39B 1_555 1_555
H46B C40B 1_555 1_555
C41B C36B 1_555 1_555
H47B C41B 1_555 1_555
C42B N6B 1_555 1_555
H48B C42B 1_555 1_555
H49B C42B 1_555 1_555
C43B C42B 1_555 1_555
C44B C43B 1_555 1_555
H50B C44B 1_555 1_555
C45B C44B 1_555 1_555
H51B C45B 1_555 1_555
C46B C45B 1_555 1_555
H52B C46B 1_555 1_555
C47B C46B 1_555 1_555
H53B C47B 1_555 1_555
C48B C43B 1_555 1_555
H54B C48B 1_555 1_555
N1B C1B 1_555 1_555
N2B Li4 1_555 1_555
N5B Li4 1_555 1_555
C1B N2B 1_555 1_555
H1B C1B 1_555 1_555
H2B C1B 1_555 1_555
C2B N2B 1_555 1_555
H3B C2B 1_555 1_555
H4B C2B 1_555 1_555
C5B N1B 1_555 1_555
H9B C5B 1_555 1_555
H10B C5B 1_555 1_555
C7B N1B 1_555 1_555
H13B C7B 1_555 1_555
H14B C7B 1_555 1_555
C8B C7B 1_555 1_555
C9B C8B 1_555 1_555
H15B C9B 1_555 1_555
C10B C9B 1_555 1_555
H16B C10B 1_555 1_555
C11B C10B 1_555 1_555
H17B C11B 1_555 1_555
C12B C11B 1_555 1_555
H18B C12B 1_555 1_555
C13B C8B 1_555 1_555
H19B C13B 1_555 1_555
C14B N2B 1_555 1_555
H20B C14B 1_555 1_555
H21B C14B 1_555 1_555
C15B C14B 1_555 1_555
C16B C15B 1_555 1_555
H22B C16B 1_555 1_555
C17B C16B 1_555 1_555
H23B C17B 1_555 1_555
C18B C17B 1_555 1_555
H24B C18B 1_555 1_555
C19B C18B 1_555 1_555
H25B C19B 1_555 1_555
C20B C15B 1_555 1_555
H26B C20B 1_555 1_555
C21B N5B 1_555 1_555
H27B C21B 1_555 1_555
H28B C21B 1_555 1_555
C22B C21B 1_555 1_555
C23B C22B 1_555 1_555
H29B C23B 1_555 1_555
C24B C23B 1_555 1_555
H30B C24B 1_555 1_555
C25B C24B 1_555 1_555
H31B C25B 1_555 1_555
C26B C25B 1_555 1_555
H32B C26B 1_555 1_555
C27B C22B 1_555 1_555
H33B C27B 1_555 1_555
Li3A H63 1_555 1_555
B2A H59A 1_555 1_555
H59A Li3 1_555 1_555
H63A Li3 1_555 1_555
H64A B2A 1_555 1_555
H65A B2A 1_555 1_555
Li2A H63A 1_555 1_555
Li2A_2 H55A 1_555 1_555
B1A H55A 1_555 1_555
B3A H56A 1_555 1_555
H55A Li3A 1_555 1_555
H56A Li3A 1_555 1_555
H62A Li3A 1_555 1_555
H66A Li3A 1_555 1_555
Li3A_2 H55A_2 1_555 1_555
B1A_2 H55A_2 1_555 1_555
B3A_2 H56A_2 1_555 1_555
H55A_2 Li2A 1_555 1_555
H56A_2 Li2A 1_555 1_555
H57A Li2A 1_555 1_555
H60A Li2A 1_555 1_555
H57A_2 Li2A_2 1_555 1_555
H60A_2 Li2A_2 1_555 1_555
H63A_2 Li2A_2 1_555 1_555
H64A_2 Li2A_2 1_555 1_555
H65A_2 Li2A_2 1_555 1_555
H61A B1A 1_555 1_555
H58A B3A 1_555 1_555
H59_2 Li3A_2 1_555 1_555
H62A_2 Li3A_2 1_555 1_555
H63_2 Li3A_2 1_555 1_555
H66A_2 Li3A_2 1_555 1_555
H61A_2 B1A_2 1_555 1_555
H58A_2 B3A_2 1_555 1_555
N2 C1 1_555 1_555
N4 C3 1_555 1_555
N5 C2 1_555 1_555
N5 C5 1_555 1_555
N6 C6 1_555 1_555
N6 C4 1_555 1_555
Li3 H56 1_555 1_555
B1 H57 1_555 1_555
B1 H62 1_555 1_555
B2 H63 1_555 1_555
B2 H64 1_555 1_555
B2 H65 1_555 1_555
B3 H60 1_555 1_555
B3 H66 1_555 1_555
C12 C13 1_555 1_555
C19 C20 1_555 1_555
C26 C27 1_555 1_555
C33 C34 1_555 1_555
C40 C41 1_555 1_555
C47 C48 1_555 1_555
N6B C4B 1_555 1_555
N6B C6B 1_555 1_555
C33B C34B 1_555 1_555
C40B C41B 1_555 1_555
C47B C48B 1_555 1_555
N5B C5B 1_555 1_555
N5B C2B 1_555 1_555
C12B C13B 1_555 1_555
C19B C20B 1_555 1_555
C26B C27B 1_555 1_555
B2A H63A 1_555 1_555
H64A Li2A 1_555 1_555
H65A Li2A 1_555 1_555
Li2A_2 H56A 1_555 1_555
B1A H57A_2 1_555 1_555
B1A H62A 1_555 1_555
B3A H60A_2 1_555 1_555
B3A H66A 1_555 1_555
Li3A_2 H56A_2 1_555 1_555
B1A_2 H57A 1_555 1_555
B1A_2 H62A_2 1_555 1_555
B3A_2 H60A 1_555 1_555
B3A_2 H66A_2 1_555 1_555

#END
