
#######################################################################
#
#                 Cambridge Crystallographic Data Centre
#                                CCDC 
#
#######################################################################
#
# If this CIF has been generated from an entry in the Cambridge 
# Structural Database, then it will include bibliographic, chemical, 
# crystal, experimental, refinement or atomic coordinate data resulting 
# from the CCDC's data processing and validation procedures.
#
#######################################################################

data_UBEXAA
_symmetry_cell_setting           monoclinic
_symmetry_space_group_name_H-M   'P 21/c'
_symmetry_Int_Tables_number      14
_space_group_name_Hall           '-P 2ybc'
loop_
_symmetry_equiv_pos_site_id
_symmetry_equiv_pos_as_xyz
1 x,y,z
2 x,1/2-y,1/2+z
3 -x,-y,-z
4 -x,1/2+y,1/2-z
_cell_length_a                   11.8674(10)
_cell_length_b                   10.3980(9)
_cell_length_c                   15.6954(14)
_cell_angle_alpha                90.00
_cell_angle_beta                 107.937(2)
_cell_angle_gamma                90.00
_cell_volume                     1842.63
loop_
_atom_site_label
_atom_site_type_symbol
_atom_site_fract_x
_atom_site_fract_y
_atom_site_fract_z
Mo1 Mo 0.42050(5) 0.34508(5) 1.11856(3)
Mo2 Mo 0.28047(4) 0.07204(5) 1.03556(3)
Cu1 Cu 0.27702(6) 0.16570(7) 0.80332(5)
P1 P 0.51548(13) 0.15732(14) 0.95797(10)
P2 P 0.41016(13) 0.40940(14) 0.90361(10)
O1 O 0.4320(4) 0.0976(4) 0.8741(3)
O2 O 0.2179(4) 0.1166(4) 0.9251(3)
O3 O 0.3272(4) 0.3488(4) 0.8188(3)
O4 O 0.4632(4) 0.1650(4) 1.0362(3)
O5 O 0.3619(4) 0.4028(4) 0.9829(3)
O6 O 0.6352(3) 0.0857(4) 0.9875(3)
O7 O 0.1660(4) -0.0018(4) 1.0590(3)
O8 O 0.3926(4) 0.0184(4) 1.1762(3)
O9 O 0.2840(3) 0.2334(4) 1.0905(3)
O10 O 0.5069(4) 0.2675(4) 1.2106(3)
O11 O 0.3606(4) 0.4691(4) 1.1600(3)
O12 O 0.4324(4) 0.5514(4) 0.8847(3)
N1 N 0.2140(4) -0.0116(5) 0.7604(3)
N2 N 0.1249(4) 0.2197(5) 0.7148(3)
C1 C 0.2633(5) -0.1252(6) 0.7840(4)
H1 H 0.3345 -0.1293 0.8303
C2 C 0.2130(6) -0.2402(6) 0.7423(4)
H2 H 0.2514 -0.3182 0.7600
C3 C 0.1055(6) -0.2364(6) 0.6746(4)
H3 H 0.0707 -0.3117 0.6467
C4 C 0.0494(5) -0.1160(6) 0.6487(4)
C5 C 0.1091(5) -0.0067(6) 0.6941(4)
C6 C -0.0615(6) -0.1001(7) 0.5805(4)
H4 H -0.1023 -0.1718 0.5513
C7 C -0.1079(6) 0.0194(6) 0.5580(4)
H5 H -0.1804 0.0277 0.5136
C8 C -0.0480(6) 0.1328(6) 0.6008(4)
C9 C 0.0595(5) 0.1182(6) 0.6692(4)
C10 C -0.0886(5) 0.2613(6) 0.5793(4)
H6 H -0.1601 0.2764 0.5351
C11 C -0.0229(5) 0.3615(6) 0.6234(4)
H7 H -0.0481 0.4455 0.6084
C12 C 0.0843(5) 0.3374(6) 0.6927(4)
H8 H 0.1275 0.4067 0.7235
C13 C 0.5471(5) 0.3175(6) 0.9323(4)
H9 H 0.5790 0.3173 0.8824
H10 H 0.6053 0.3559 0.9836
O12B O 0.5676(4) 0.4486(4) 1.1153(3)
O6B O 0.3648(3) -0.0857(4) 1.0125(3)
Mo2B Mo 0.71953(4) -0.07204(5) 0.96444(3)
Mo1B Mo 0.57950(5) 0.65492(5) 0.88144(3)
loop_
_geom_bond_atom_site_label_1
_geom_bond_atom_site_label_2
_geom_bond_site_symmetry_1
_geom_bond_site_symmetry_2
Mo1 O4 1_555 1_555
Mo2 O2 1_555 1_555
Cu1 O1 1_555 1_555
P1 O1 1_555 1_555
P2 O3 1_555 1_555
O2 Cu1 1_555 1_555
O3 Cu1 1_555 1_555
O4 Mo2 1_555 1_555
O5 Mo1 1_555 1_555
O6 P1 1_555 1_555
O7 Mo2 1_555 1_555
O8 Mo2 1_555 1_555
O9 Mo1 1_555 1_555
O10 Mo1 1_555 1_555
O11 Mo1 1_555 1_555
O12 P2 1_555 1_555
N1 Cu1 1_555 1_555
N2 Cu1 1_555 1_555
C1 N1 1_555 1_555
H1 C1 1_555 1_555
C2 C1 1_555 1_555
H2 C2 1_555 1_555
C3 C2 1_555 1_555
H3 C3 1_555 1_555
C4 C3 1_555 1_555
C5 N1 1_555 1_555
C6 C4 1_555 1_555
H4 C6 1_555 1_555
C7 C6 1_555 1_555
H5 C7 1_555 1_555
C8 C7 1_555 1_555
C9 N2 1_555 1_555
C10 C8 1_555 1_555
H6 C10 1_555 1_555
C11 C10 1_555 1_555
H7 C11 1_555 1_555
C12 N2 1_555 1_555
H8 C12 1_555 1_555
C13 P1 1_555 1_555
H9 C13 1_555 1_555
H10 C13 1_555 1_555
O12B Mo1 1_555 1_555
O6B Mo2 1_555 1_555
Mo2B O6 1_555 1_555
Mo1B O12 1_555 1_555
Mo2 O9 1_555 1_555
P1 O4 1_555 1_555
P2 C13 1_555 1_555
P2 O5 1_555 1_555
C4 C5 1_555 1_555
C5 C9 1_555 1_555
C8 C9 1_555 1_555
C11 C12 1_555 1_555

#END
