
#######################################################################
#
#                 Cambridge Crystallographic Data Centre
#                                CCDC 
#
#######################################################################
#
# If this CIF has been generated from an entry in the Cambridge 
# Structural Database, then it will include bibliographic, chemical, 
# crystal, experimental, refinement or atomic coordinate data resulting 
# from the CCDC's data processing and validation procedures.
#
#######################################################################

data_UBEXEE
_symmetry_cell_setting           triclinic
_symmetry_space_group_name_H-M   'P -1'
_symmetry_Int_Tables_number      2
_space_group_name_Hall           '-P 1'
loop_
_symmetry_equiv_pos_site_id
_symmetry_equiv_pos_as_xyz
1 x,y,z
2 -x,-y,-z
_cell_length_a                   7.9401(7)
_cell_length_b                   10.4771(9)
_cell_length_c                   12.8953(11)
_cell_angle_alpha                101.1370(10)
_cell_angle_beta                 104.176(2)
_cell_angle_gamma                110.0660(10)
_cell_volume                     930.597
loop_
_atom_site_label
_atom_site_type_symbol
_atom_site_fract_x
_atom_site_fract_y
_atom_site_fract_z
Mo1 Mo 0.51795(8) 0.53028(6) 0.38186(5)
Mo2 Mo 0.71399(9) 0.80793(6) 0.68030(5)
Cu1 Cu 0.38572(12) 0.84637(9) 0.29452(7)
P1 P 0.7455(2) 1.02507(18) 0.51926(14)
O1 O 0.6698(7) 0.8904(5) 0.5543(4)
O2 O 0.6330(7) 0.9911(5) 0.3954(4)
O3 O 0.7407(7) 1.1539(5) 0.5952(4)
O4 O 0.4235(7) 0.6356(5) 0.3231(4)
O5 O 0.7390(7) 0.5735(5) 0.3706(4)
O6 O 0.5776(8) 0.6215(5) 0.5400(4)
O7 O 0.3720(8) 0.3523(5) 0.2635(4)
O8 O 0.9424(8) 0.8318(6) 0.6946(5)
O9 O 0.7433(11) 0.9483(6) 0.7866(5)
O10 O 0.3901(10) 0.7636(8) 0.6454(6)
N1 N 0.1346(8) 0.7309(6) 0.1693(5)
N2 N 0.4827(8) 0.8504(6) 0.1653(5)
C1 C -0.0405(10) 0.6747(7) 0.1738(6)
H1 H -0.0556 0.6806 0.2436
C2 C -0.2037(11) 0.6065(8) 0.0763(6)
H2 H -0.3238 0.5691 0.0828
C3 C -0.1863(10) 0.5952(8) -0.0281(6)
H3 H -0.2936 0.5501 -0.0925
C4 C -0.0015(10) 0.6533(7) -0.0361(6)
C5 C 0.1533(10) 0.7212(7) 0.0663(5)
C6 C 0.0370(12) 0.6475(8) -0.1395(6)
H4 H -0.0642 0.6034 -0.2071
C7 C 0.2176(11) 0.7049(8) -0.1412(6)
H5 H 0.2383 0.6973 -0.2097
C8 C 0.3769(11) 0.7771(8) -0.0383(6)
C9 C 0.3420(10) 0.7832(7) 0.0641(6)
C10 C 0.5698(11) 0.8448(8) -0.0318(6)
H6 H 0.6007 0.8421 -0.0970
C11 C 0.7080(11) 0.9133(8) 0.0701(6)
H7 H 0.8339 0.9589 0.0747
C12 C 0.6626(10) 0.9159(7) 0.1691(6)
H8 H 0.7592 0.9639 0.2383
C13 C 0.9888(9) 1.0657(7) 0.5319(5)
H9 H 1.0652 1.0962 0.6106
H10 H 1.0351 1.1438 0.5017
H11 H 0.346(11) 0.716(8) 0.574(7)
H12 H 0.369(14) 0.819(11) 0.602(9)
C13A C 1.0112(9) 0.9343(7) 0.4681(5)
P1A P 1.2545(2) 0.97493(18) 0.48074(14)
O1A O 1.3302(7) 1.1096(5) 0.4457(4)
O2A O 1.3670(7) 1.0089(5) 0.6046(4)
O3A O 1.2593(7) 0.8461(5) 0.4048(4)
H9A H 0.9348 0.9038 0.3894
H10A H 0.9649 0.8562 0.4983
O6A O 0.4224(8) 0.3785(5) 0.4600(4)
Mo1A Mo 0.48205(8) 0.46972(6) 0.61814(5)
Mo2A Mo 0.28601(9) 0.19207(6) 0.31970(5)
O7A O 0.6280(8) 0.6477(5) 0.7365(4)
O4A O 0.5765(7) 0.3644(5) 0.6769(4)
O5A O 0.2610(7) 0.4265(5) 0.6294(4)
O8A O 0.0576(8) 0.1682(6) 0.3054(5)
O9A O 0.2567(11) 0.0517(6) 0.2134(5)
O10A O 0.6099(10) 0.2364(8) 0.3546(6)
H11A H 0.654(11) 0.284(8) 0.426(7)
H12A H 0.631(14) 0.181(11) 0.398(9)
Cu1A Cu 1.61428(12) 1.15363(9) 0.70548(7)
N1A N 1.8654(8) 1.2691(6) 0.8307(5)
N2A N 1.5173(8) 1.1496(6) 0.8347(5)
C1A C 2.0405(10) 1.3253(7) 0.8262(6)
H1A H 2.0556 1.3194 0.7564
C2A C 2.2037(11) 1.3935(8) 0.9237(6)
H2A H 2.3238 1.4309 0.9172
C3A C 2.1863(10) 1.4048(8) 1.0281(6)
H3A H 2.2936 1.4499 1.0925
C4A C 2.0015(10) 1.3467(7) 1.0361(6)
C5A C 1.8467(10) 1.2788(7) 0.9337(5)
C6A C 1.9630(12) 1.3525(8) 1.1395(6)
H4A H 2.0642 1.3966 1.2071
C7A C 1.7824(11) 1.2951(8) 1.1412(6)
H5A H 1.7617 1.3027 1.2097
C8A C 1.6231(11) 1.2229(8) 1.0383(6)
C9A C 1.6580(10) 1.2168(7) 0.9359(6)
C10A C 1.4302(11) 1.1552(8) 1.0318(6)
H6A H 1.3993 1.1579 1.0970
C11A C 1.2920(11) 1.0867(8) 0.9299(6)
H7A H 1.1661 1.0411 0.9253
C12A C 1.3374(10) 1.0841(7) 0.8309(6)
H8A H 1.2408 1.0361 0.7617
O3A_2 O 0.2593(7) 0.8461(5) 0.4048(4)
Cu1A_2 Cu 0.61428(12) 1.15363(9) 0.70548(7)
Mo2A_2 Mo 1.28601(9) 1.19207(6) 0.31970(5)
Cu1_2 Cu 1.38572(12) 0.84637(9) 0.29452(7)
O1A_2 O 0.3302(7) 0.1096(5) 0.4457(4)
Cu1A_3 Cu 0.61428(12) 0.15363(9) 0.70548(7)
O3_2 O 1.7407(7) 1.1539(5) 0.5952(4)
O4A_2 O 1.5765(7) 1.3644(5) 0.6769(4)
O11 O 0.8694(10) 0.4254(7) 0.5580(6)
loop_
_geom_bond_atom_site_label_1
_geom_bond_atom_site_label_2
_geom_bond_site_symmetry_1
_geom_bond_site_symmetry_2
Mo1 O4 1_555 1_555
Mo2 O1 1_555 1_555
Cu1 O2 1_555 1_555
P1 O1 1_555 1_555
O2 P1 1_555 1_555
O3 P1 1_555 1_555
O4 Cu1 1_555 1_555
O5 Mo1 1_555 1_555
O6 Mo1 1_555 1_555
O7 Mo1 1_555 1_555
O8 Mo2 1_555 1_555
O9 Mo2 1_555 1_555
O10 Mo2 1_555 1_555
N1 Cu1 1_555 1_555
N2 Cu1 1_555 1_555
C1 N1 1_555 1_555
H1 C1 1_555 1_555
C2 C1 1_555 1_555
H2 C2 1_555 1_555
C3 C2 1_555 1_555
H3 C3 1_555 1_555
C4 C3 1_555 1_555
C5 N1 1_555 1_555
C6 C4 1_555 1_555
H4 C6 1_555 1_555
C7 C6 1_555 1_555
H5 C7 1_555 1_555
C8 C7 1_555 1_555
C9 N2 1_555 1_555
C10 C8 1_555 1_555
H6 C10 1_555 1_555
C11 C10 1_555 1_555
H7 C11 1_555 1_555
C12 N2 1_555 1_555
H8 C12 1_555 1_555
C13 P1 1_555 1_555
H9 C13 1_555 1_555
H10 C13 1_555 1_555
H11 O10 1_555 1_555
H12 O10 1_555 1_555
C13A C13 1_555 1_555
P1A C13A 1_555 1_555
O1A P1A 1_555 1_555
O2A P1A 1_555 1_555
O3A P1A 1_555 1_555
H9A C13A 1_555 1_555
H10A C13A 1_555 1_555
O6A Mo1 1_555 1_555
Mo1A O6 1_555 1_555
Mo2A O7 1_555 1_555
O7A Mo2 1_555 1_555
O4A Mo1A 1_555 1_555
O5A Mo1A 1_555 1_555
O8A Mo2A 1_555 1_555
O9A Mo2A 1_555 1_555
O10A Mo2A 1_555 1_555
H11A O10A 1_555 1_555
H12A O10A 1_555 1_555
Cu1A O2A 1_555 1_555
N1A Cu1A 1_555 1_555
N2A Cu1A 1_555 1_555
C1A N1A 1_555 1_555
H1A C1A 1_555 1_555
C2A C1A 1_555 1_555
H2A C2A 1_555 1_555
C3A C2A 1_555 1_555
H3A C3A 1_555 1_555
C4A C3A 1_555 1_555
C5A N1A 1_555 1_555
C6A C4A 1_555 1_555
H4A C6A 1_555 1_555
C7A C6A 1_555 1_555
H5A C7A 1_555 1_555
C8A C7A 1_555 1_555
C9A N2A 1_555 1_555
C10A C8A 1_555 1_555
H6A C10A 1_555 1_555
C11A C10A 1_555 1_555
H7A C11A 1_555 1_555
C12A N2A 1_555 1_555
H8A C12A 1_555 1_555
O3A_2 Cu1 1_555 1_555
Cu1A_2 O3 1_555 1_555
Mo2A_2 O1A 1_555 1_555
Cu1_2 O3A 1_555 1_555
O1A_2 Mo2A 1_555 1_555
Cu1A_3 O4A 1_555 1_555
O3_2 Cu1A 1_555 1_555
O4A_2 Cu1A 1_555 1_555
Mo2 O6 1_555 1_555
C4 C5 1_555 1_555
C5 C9 1_555 1_555
C8 C9 1_555 1_555
C11 C12 1_555 1_555
O6A Mo1A 1_555 1_555
O6A Mo2A 1_555 1_555
Mo1A O7A 1_555 1_555
C4A C5A 1_555 1_555
C5A C9A 1_555 1_555
C8A C9A 1_555 1_555
C11A C12A 1_555 1_555

#END
