
#######################################################################
#
#                 Cambridge Crystallographic Data Centre
#                                CCDC 
#
#######################################################################
#
# If this CIF has been generated from an entry in the Cambridge 
# Structural Database, then it will include bibliographic, chemical, 
# crystal, experimental, refinement or atomic coordinate data resulting 
# from the CCDC's data processing and validation procedures.
#
#######################################################################

data_UBINUQ
_symmetry_cell_setting           triclinic
_symmetry_space_group_name_H-M   'P -1'
_symmetry_Int_Tables_number      2
_space_group_name_Hall           '-P 1'
loop_
_symmetry_equiv_pos_site_id
_symmetry_equiv_pos_as_xyz
1 x,y,z
2 -x,-y,-z
_cell_length_a                   7.7506(7)
_cell_length_b                   9.7954(7)
_cell_length_c                   13.0338(12)
_cell_angle_alpha                69.561(8)
_cell_angle_beta                 86.021(8)
_cell_angle_gamma                70.154(8)
_cell_volume                     870.805
loop_
_atom_site_label
_atom_site_type_symbol
_atom_site_fract_x
_atom_site_fract_y
_atom_site_fract_z
Mn1 Mn 1.01682(15) -0.23760(12) 0.04591(8)
O1 O 0.8627(7) -0.1166(6) 0.1486(4)
O2 O 0.7992(6) 0.1036(6) 0.0047(4)
O3 O 0.2197(6) 0.5272(5) 0.0370(4)
O4 O 0.2205(7) 0.5860(5) 0.1837(4)
O5 O 0.8091(8) -0.3474(7) 0.0807(5)
H1 H 0.7150 -0.3201 0.1257
H2 H 0.8139 -0.4218 0.0507
N1 N 0.9272(8) -0.1676(7) 0.8673(4)
C1 C 0.7832(9) 0.0284(8) 0.1036(6)
C2 C 0.6675(9) 0.1133(7) 0.1731(5)
C3 C 0.5330(9) 0.2551(7) 0.1231(5)
H3 H 0.5108 0.2928 0.0474
C4 C 0.4301(9) 0.3420(7) 0.1859(5)
C5 C 0.2820(9) 0.4941(8) 0.1324(5)
C6 C 0.4719(9) 0.2873(7) 0.2978(5)
H4 H 0.4085 0.3466 0.3395
C7 C 0.6092(9) 0.1431(7) 0.3497(5)
C8 C 0.7028(9) 0.0573(7) 0.2859(5)
H5 H 0.7908 -0.0393 0.3191
C9 C 0.6522(10) 0.0945(8) 0.4682(5)
H6 H 0.5793 0.1587 0.5044
C10 C 0.7820(10) -0.0292(8) 0.5279(5)
H7 H 0.8529 -0.0949 0.4922
C11 C 0.7907(11) -0.0386(9) 0.8172(6)
H8 H 0.7276 0.0224 0.8579
C12 C 0.7374(11) 0.0101(9) 0.7084(6)
H9 H 0.6398 0.1014 0.6776
C13 C 0.8274(10) -0.0751(8) 0.6452(5)
C14 C 0.9654(11) -0.2141(8) 0.6989(6)
H10 H 1.0263 -0.2800 0.6611
C15 C 1.0112(10) -0.2535(9) 0.8076(6)
H11 H 1.1064 -0.3454 0.8412
Mn1A Mn 0.98318(15) 0.23760(12) -0.04591(8)
Mn1_2 Mn 0.01682(15) 0.76240(12) 0.04591(8)
Mn1_3 Mn 1.01682(15) -0.23760(12) 1.04591(8)
O2A O 1.2008(6) -0.1036(6) -0.0047(4)
O3_2 O 1.2197(6) -0.4728(5) 0.0370(4)
O4_2 O 1.2205(7) -0.4140(5) 0.1837(4)
N1_2 N 0.9272(8) -0.1676(7) -0.1327(4)
O6 O 0.4697(13) 0.3326(11) 0.7773(8)
O7 O 0.071(5) 0.413(4) 0.593(3)
O8? O 0.083(6) 0.548(5) 0.469(4)
loop_
_geom_bond_atom_site_label_1
_geom_bond_atom_site_label_2
_geom_bond_site_symmetry_1
_geom_bond_site_symmetry_2
Mn1 O1 1_555 1_555
O1 C1 1_555 1_555
O2 C1 1_555 1_555
O3 C5 1_555 1_555
O4 C5 1_555 1_555
O5 Mn1 1_555 1_555
H1 O5 1_555 1_555
H2 O5 1_555 1_555
N1 C11 1_555 1_555
C1 C2 1_555 1_555
C2 C3 1_555 1_555
C3 H3 1_555 1_555
C4 C3 1_555 1_555
C5 C4 1_555 1_555
C6 C4 1_555 1_555
H4 C6 1_555 1_555
C7 C6 1_555 1_555
C8 C2 1_555 1_555
H5 C8 1_555 1_555
C9 C7 1_555 1_555
H6 C9 1_555 1_555
C10 C9 1_555 1_555
H7 C10 1_555 1_555
C11 H8 1_555 1_555
C12 C11 1_555 1_555
H9 C12 1_555 1_555
C13 C10 1_555 1_555
C14 C13 1_555 1_555
H10 C14 1_555 1_555
C15 N1 1_555 1_555
H11 C15 1_555 1_555
Mn1A O2 1_555 1_555
Mn1_2 O3 1_555 1_555
Mn1_3 N1 1_555 1_555
O2A Mn1 1_555 1_555
O3_2 Mn1 1_555 1_555
O4_2 Mn1 1_555 1_555
N1_2 Mn1 1_555 1_555
O4 Mn1_2 1_555 1_555
C7 C8 1_555 1_555
C12 C13 1_555 1_555
C14 C15 1_555 1_555

#END
