
#######################################################################
#
#                 Cambridge Crystallographic Data Centre
#                                CCDC 
#
#######################################################################
#
# If this CIF has been generated from an entry in the Cambridge 
# Structural Database, then it will include bibliographic, chemical, 
# crystal, experimental, refinement or atomic coordinate data resulting 
# from the CCDC's data processing and validation procedures.
#
#######################################################################

data_UBOBIW
_symmetry_cell_setting           tetragonal
_symmetry_space_group_name_H-M   'P -4 b 2'
_symmetry_Int_Tables_number      117
_space_group_name_Hall           'P -4 -2ab'
loop_
_symmetry_equiv_pos_site_id
_symmetry_equiv_pos_as_xyz
1 x,y,z
2 -x,-y,z
3 y,-x,-z
4 -y,x,-z
5 1/2+x,1/2-y,z
6 1/2-x,1/2+y,z
7 1/2+y,1/2+x,-z
8 1/2-y,1/2-x,-z
_cell_length_a                   13.888(3)
_cell_length_b                   13.888(3)
_cell_length_c                   3.7300(12)
_cell_angle_alpha                90
_cell_angle_beta                 90
_cell_angle_gamma                90
_cell_volume                     719.43
loop_
_atom_site_label
_atom_site_type_symbol
_atom_site_fract_x
_atom_site_fract_y
_atom_site_fract_z
Zn1 Zn 0.0000 0.5000 0.5000
Br1 Br 0.39584(3) 0.37050(3) 0.21397(11)
Cl1 Cl 0.08549(6) 0.58549(6) 0.0000
N1 N 0.1114(2) 0.3886(2) 0.5000
C1 C 0.2019(3) 0.4080(3) 0.3908(9)
H1 H 0.2177 0.4735 0.3125
C2 C 0.2719(3) 0.3396(2) 0.3861(9)
C3 C 0.2533(2) 0.2467(2) 0.5000
H2 H 0.3032 0.1968 0.5000
C1G C 0.0920(3) 0.2981(3) 0.6092(9)
H1G H 0.0265 0.2823 0.6875
C2G C 0.1604(2) 0.2281(3) 0.6139(9)
Br1G Br 0.12950(3) 0.10416(3) 0.78603(11)
Cl1_2 Cl 0.08549(6) 0.58549(6) 1.0000
Br1A Br -0.39584(3) 0.62950(3) 0.21397(11)
N1A N -0.1114(2) 0.6114(2) 0.5000
C1A C -0.2019(3) 0.5920(3) 0.3908(9)
H1A H -0.2177 0.5265 0.3125
C2A C -0.2719(3) 0.6604(2) 0.3861(9)
C3A C -0.2533(2) 0.7533(2) 0.5000
H2A H -0.3032 0.8032 0.5000
C1F C -0.0920(3) 0.7019(3) 0.6092(9)
H1F H -0.0265 0.7177 0.6875
C2F C -0.1604(2) 0.7719(3) 0.6139(9)
Br1F Br -0.12950(3) 0.89584(3) 0.78603(11)
Cl1A Cl -0.08549(6) 0.41451(6) 0.0000
Cl1A_2 Cl -0.08549(6) 0.41451(6) 1.0000
Zn1_2 Zn 0.0000 0.5000 -0.5000
Zn1_3 Zn 0.0000 0.5000 1.5000
loop_
_geom_bond_atom_site_label_1
_geom_bond_atom_site_label_2
_geom_bond_site_symmetry_1
_geom_bond_site_symmetry_2
Zn1 Cl1 1_555 1_555
Br1 C2 1_555 1_555
Cl1 Zn1_2 1_555 1_555
N1 Zn1 1_555 1_555
C1 N1 1_555 1_555
H1 C1 1_555 1_555
C2 C1 1_555 1_555
C3 C2 1_555 1_555
H2 C3 1_555 1_555
C1G N1 1_555 1_555
H1G C1G 1_555 1_555
C2G C3 1_555 1_555
Br1G C2G 1_555 1_555
Cl1_2 Zn1 1_555 1_555
Br1A C2A 1_555 1_555
N1A Zn1 1_555 1_555
C1A N1A 1_555 1_555
H1A C1A 1_555 1_555
C2A C1A 1_555 1_555
C3A C2A 1_555 1_555
H2A C3A 1_555 1_555
C1F N1A 1_555 1_555
H1F C1F 1_555 1_555
C2F C3A 1_555 1_555
Br1F C2F 1_555 1_555
Cl1A Zn1 1_555 1_555
Cl1A_2 Zn1 1_555 1_555
Zn1_2 Cl1A 1_555 1_555
Zn1_3 Cl1_2 1_555 1_555
C1G C2G 1_555 1_555
C1F C2F 1_555 1_555
Cl1A_2 Zn1_3 1_555 1_555

#END
