
#######################################################################
#
#                 Cambridge Crystallographic Data Centre
#                                CCDC 
#
#######################################################################
#
# If this CIF has been generated from an entry in the Cambridge 
# Structural Database, then it will include bibliographic, chemical, 
# crystal, experimental, refinement or atomic coordinate data resulting 
# from the CCDC's data processing and validation procedures.
#
#######################################################################

data_UBOBIW01
_symmetry_cell_setting           tetragonal
_symmetry_space_group_name_H-M   'P -4 b 2'
_symmetry_Int_Tables_number      117
_space_group_name_Hall           'P -4 -2ab'
loop_
_symmetry_equiv_pos_site_id
_symmetry_equiv_pos_as_xyz
1 x,y,z
2 y,-x,-z
3 -x,-y,z
4 -y,x,-z
5 1/2-x,1/2+y,z
6 1/2+y,1/2+x,-z
7 1/2+x,1/2-y,z
8 1/2-y,1/2-x,-z
_cell_length_a                   13.8260(2)
_cell_length_b                   13.8260(2)
_cell_length_c                   3.7044(1)
_cell_angle_alpha                90
_cell_angle_beta                 90
_cell_angle_gamma                90
_cell_volume                     708.127
loop_
_atom_site_label
_atom_site_type_symbol
_atom_site_fract_x
_atom_site_fract_y
_atom_site_fract_z
Br1 Br 0.601880(9) 0.630241(10) 0.79139(4)
Zn1 Zn 1.0000 0.5000 0.5000
Cl1 Cl 0.91425(2) 0.41425(2) 0.0000
N1 N 0.88778(8) 0.61222(8) 0.5000
C1 C 0.79759(9) 0.59182(9) 0.6136(4)
H1 H 0.7826 0.5281 0.6914
C2 C 0.72656(9) 0.66163(9) 0.6191(3)
C3 C 0.74504(8) 0.75496(8) 0.5000
H2 H 0.6965 0.8035 0.5000
Br1G Br 0.869759(10) 0.898120(9) 0.20861(4)
Br1B Br 1.398120(9) 0.369759(10) 0.79139(4)
Br1E Br 1.130241(10) 0.101880(9) 0.20861(4)
Zn1_2 Zn 1.0000 0.5000 -0.5000
Cl1_2 Cl 0.91425(2) 0.41425(2) 1.0000
Cl1B Cl 1.08575(2) 0.58575(2) 0.0000
Cl1B_2 Cl 1.08575(2) 0.58575(2) 1.0000
N1B N 1.11222(8) 0.38778(8) 0.5000
C1G C 0.90818(9) 0.70241(9) 0.3864(4)
C1B C 1.20241(9) 0.40818(9) 0.6136(4)
C1E C 1.09182(9) 0.29759(9) 0.3864(4)
H1G H 0.9719 0.7174 0.3086
H1B H 1.2174 0.4719 0.6914
H1E H 1.0281 0.2826 0.3086
C2G C 0.83837(9) 0.77344(9) 0.3809(3)
C2B C 1.27344(9) 0.33837(9) 0.6191(3)
C2E C 1.16163(9) 0.22656(9) 0.3809(3)
C3B C 1.25496(8) 0.24504(8) 0.5000
H2B H 1.3035 0.1965 0.5000
loop_
_geom_bond_atom_site_label_1
_geom_bond_atom_site_label_2
_geom_bond_site_symmetry_1
_geom_bond_site_symmetry_2
Br1 C2 1_555 1_555
Zn1 Cl1 1_555 1_555
Cl1 Zn1_2 1_555 1_555
N1 Zn1 1_555 1_555
C1 N1 1_555 1_555
H1 C1 1_555 1_555
C2 C1 1_555 1_555
C3 C2 1_555 1_555
H2 C3 1_555 1_555
Br1G C2G 1_555 1_555
Br1B C2B 1_555 1_555
Br1E C2E 1_555 1_555
Zn1_2 Cl1B 1_555 1_555
Cl1_2 Zn1 1_555 1_555
Cl1B Zn1 1_555 1_555
Cl1B_2 Zn1 1_555 1_555
N1B Zn1 1_555 1_555
C1G N1 1_555 1_555
C1B N1B 1_555 1_555
C1E N1B 1_555 1_555
H1G C1G 1_555 1_555
H1B C1B 1_555 1_555
H1E C1E 1_555 1_555
C2G C3 1_555 1_555
C2B C1B 1_555 1_555
C2E C1E 1_555 1_555
C3B C2B 1_555 1_555
H2B C3B 1_555 1_555
C1G C2G 1_555 1_555
C2E C3B 1_555 1_555

#END
