
#######################################################################
#
#                 Cambridge Crystallographic Data Centre
#                                CCDC 
#
#######################################################################
#
# If this CIF has been generated from an entry in the Cambridge 
# Structural Database, then it will include bibliographic, chemical, 
# crystal, experimental, refinement or atomic coordinate data resulting 
# from the CCDC's data processing and validation procedures.
#
#######################################################################

data_UBOBES
_symmetry_cell_setting           tetragonal
_symmetry_space_group_name_H-M   'P -4 b 2'
_symmetry_Int_Tables_number      117
_space_group_name_Hall           'P -4 -2ab'
loop_
_symmetry_equiv_pos_site_id
_symmetry_equiv_pos_as_xyz
1 x,y,z
2 -x,-y,z
3 y,-x,-z
4 -y,x,-z
5 1/2+x,1/2-y,z
6 1/2-x,1/2+y,z
7 1/2+y,1/2+x,-z
8 1/2-y,1/2-x,-z
_cell_length_a                   13.846(3)
_cell_length_b                   13.846(3)
_cell_length_c                   3.6542(10)
_cell_angle_alpha                90
_cell_angle_beta                 90
_cell_angle_gamma                90
_cell_volume                     700.553
loop_
_atom_site_label
_atom_site_type_symbol
_atom_site_fract_x
_atom_site_fract_y
_atom_site_fract_z
Zn1 Zn 0.0000 0.5000 0.5000
Cl1 Cl 0.08653(4) 0.58653(4) 0.0000
Cl2 Cl 0.38927(5) 0.37116(6) 0.2568(2)
N1 N 0.11182(14) 0.38818(14) 0.5000
C1 C 0.2030(2) 0.4094(2) 0.4029(8)
H1 H 0.2193 0.4757 0.3333
C2 C 0.27397(19) 0.3395(2) 0.3992(8)
C3 C 0.25398(17) 0.24602(17) 0.5000
H2 H 0.3040 0.1960 0.5000
C1G C 0.0906(2) 0.2970(2) 0.5971(8)
H1G H 0.0243 0.2807 0.6667
C2G C 0.1605(2) 0.22603(19) 0.6008(8)
Cl2G Cl 0.12884(6) 0.11073(5) 0.7432(2)
Cl1_2 Cl 0.08653(4) 0.58653(4) 1.0000
Cl2A Cl -0.38927(5) 0.62884(6) 0.2568(2)
N1A N -0.11182(14) 0.61182(14) 0.5000
C1A C -0.2030(2) 0.5906(2) 0.4029(8)
H1A H -0.2193 0.5243 0.3333
C2A C -0.27397(19) 0.6605(2) 0.3992(8)
C3A C -0.25398(17) 0.75398(17) 0.5000
H2A H -0.3040 0.8040 0.5000
C1F C -0.0906(2) 0.7030(2) 0.5971(8)
H1F H -0.0243 0.7193 0.6667
C2F C -0.1605(2) 0.77397(19) 0.6008(8)
Cl2F Cl -0.12884(6) 0.88927(5) 0.7432(2)
Cl1A Cl -0.08653(4) 0.41347(4) 0.0000
Cl1A_2 Cl -0.08653(4) 0.41347(4) 1.0000
Zn1_2 Zn 0.0000 0.5000 -0.5000
Zn1_3 Zn 0.0000 0.5000 1.5000
loop_
_geom_bond_atom_site_label_1
_geom_bond_atom_site_label_2
_geom_bond_site_symmetry_1
_geom_bond_site_symmetry_2
Zn1 Cl1 1_555 1_555
Cl1 Zn1_2 1_555 1_555
Cl2 C2 1_555 1_555
N1 Zn1 1_555 1_555
C1 N1 1_555 1_555
H1 C1 1_555 1_555
C2 C1 1_555 1_555
C3 C2 1_555 1_555
H2 C3 1_555 1_555
C1G N1 1_555 1_555
H1G C1G 1_555 1_555
C2G C3 1_555 1_555
Cl2G C2G 1_555 1_555
Cl1_2 Zn1 1_555 1_555
Cl2A C2A 1_555 1_555
N1A Zn1 1_555 1_555
C1A N1A 1_555 1_555
H1A C1A 1_555 1_555
C2A C1A 1_555 1_555
C3A C2A 1_555 1_555
H2A C3A 1_555 1_555
C1F N1A 1_555 1_555
H1F C1F 1_555 1_555
C2F C3A 1_555 1_555
Cl2F C2F 1_555 1_555
Cl1A Zn1 1_555 1_555
Cl1A_2 Zn1 1_555 1_555
Zn1_2 Cl1A 1_555 1_555
Zn1_3 Cl1_2 1_555 1_555
C1G C2G 1_555 1_555
C1F C2F 1_555 1_555
Cl1A_2 Zn1_3 1_555 1_555

#END
