
#######################################################################
#
#                 Cambridge Crystallographic Data Centre
#                                CCDC 
#
#######################################################################
#
# If this CIF has been generated from an entry in the Cambridge 
# Structural Database, then it will include bibliographic, chemical, 
# crystal, experimental, refinement or atomic coordinate data resulting 
# from the CCDC's data processing and validation procedures.
#
#######################################################################

data_UBOCOD01
_symmetry_cell_setting           orthorhombic
_symmetry_space_group_name_H-M   'P n m a'
_symmetry_Int_Tables_number      62
_space_group_name_Hall           '-P 2ac 2n'
loop_
_symmetry_equiv_pos_site_id
_symmetry_equiv_pos_as_xyz
1 x,y,z
2 1/2-x,-y,1/2+z
3 -x,1/2+y,-z
4 1/2+x,1/2-y,1/2-z
5 -x,-y,-z
6 1/2+x,y,1/2-z
7 x,1/2-y,z
8 1/2-x,1/2+y,1/2+z
_cell_length_a                   17.032(3)
_cell_length_b                   12.774(6)
_cell_length_c                   5.3950(15)
_cell_angle_alpha                90
_cell_angle_beta                 90
_cell_angle_gamma                90
_cell_volume                     1173.77
loop_
_atom_site_label
_atom_site_type_symbol
_atom_site_fract_x
_atom_site_fract_y
_atom_site_fract_z
Zn1 Zn 0.61072(3) 0.7500 -0.92222(10)
Br1 Br 0.61205(3) 0.58948(5) -1.12324(11)
N1 N 0.7067(2) 0.7500 -0.6919(7)
N2 N 1.0133(2) 0.7500 0.1961(7)
C1 C 0.7384(3) 0.6629(3) -0.6099(8)
H1 H 0.7192 0.5995 -0.6690
C2 C 0.7997(3) 0.6613(3) -0.4375(8)
H2 H 0.8199 0.5973 -0.3857
C3 C 0.8299(3) 0.7500 -0.3453(8)
C4 C 0.8913(2) 0.7500 -0.1519(9)
C5 C 0.9209(3) 0.6575(3) -0.0553(8)
H3 H 0.9007 0.5931 -0.1040
C6 C 0.9813(3) 0.6637(3) 0.1153(7)
H4 H 1.0007 0.6010 0.1778
Zn1E Zn 1.11072(3) 0.7500 0.42222(10)
Br1F Br 0.61205(3) 0.91052(5) -1.12324(11)
N2E N 0.5133(2) 0.7500 -0.6961(7)
C1F C 0.7384(3) 0.8371(3) -0.6099(8)
H1F H 0.7192 0.9005 -0.6690
C2F C 0.7997(3) 0.8387(3) -0.4375(8)
H2F H 0.8199 0.9027 -0.3857
C5F C 0.9209(3) 0.8425(3) -0.0553(8)
H3F H 0.9007 0.9069 -0.1040
C6F C 0.9813(3) 0.8363(3) 0.1153(7)
H4F H 1.0007 0.8990 0.1778
loop_
_geom_bond_atom_site_label_1
_geom_bond_atom_site_label_2
_geom_bond_site_symmetry_1
_geom_bond_site_symmetry_2
Zn1 Br1 1_555 1_555
N1 Zn1 1_555 1_555
N2 C6 1_555 1_555
C1 N1 1_555 1_555
H1 C1 1_555 1_555
C2 C1 1_555 1_555
H2 C2 1_555 1_555
C3 C2 1_555 1_555
C4 C3 1_555 1_555
C5 C4 1_555 1_555
H3 C5 1_555 1_555
C6 C5 1_555 1_555
H4 C6 1_555 1_555
Zn1E N2 1_555 1_555
Br1F Zn1 1_555 1_555
N2E Zn1 1_555 1_555
C1F N1 1_555 1_555
H1F C1F 1_555 1_555
C2F C3 1_555 1_555
H2F C2F 1_555 1_555
C5F C4 1_555 1_555
H3F C5F 1_555 1_555
C6F N2 1_555 1_555
H4F C6F 1_555 1_555
C1F C2F 1_555 1_555
C5F C6F 1_555 1_555

#END
