
#######################################################################
#
#                 Cambridge Crystallographic Data Centre
#                                CCDC 
#
#######################################################################
#
# If this CIF has been generated from an entry in the Cambridge 
# Structural Database, then it will include bibliographic, chemical, 
# crystal, experimental, refinement or atomic coordinate data resulting 
# from the CCDC's data processing and validation procedures.
#
#######################################################################

data_UBOCIX03
_symmetry_cell_setting           orthorhombic
_symmetry_space_group_name_H-M   'P n m a'
_symmetry_Int_Tables_number      62
_space_group_name_Hall           '-P 2ac 2n'
loop_
_symmetry_equiv_pos_site_id
_symmetry_equiv_pos_as_xyz
1 x,y,z
2 1/2-x,-y,1/2+z
3 1/2+x,1/2-y,1/2-z
4 -x,1/2+y,-z
5 -x,-y,-z
6 1/2+x,y,1/2-z
7 1/2-x,1/2+y,1/2+z
8 x,1/2-y,z
_cell_length_a                   17.349(3)
_cell_length_b                   12.407(2)
_cell_length_c                   5.114(1)
_cell_angle_alpha                90
_cell_angle_beta                 90
_cell_angle_gamma                90
_cell_volume                     1100.78
loop_
_atom_site_label
_atom_site_type_symbol
_atom_site_fract_x
_atom_site_fract_y
_atom_site_fract_z
Zn1 Zn 0.6094(1) 0.7500 0.0656(2)
Cl1 Cl 0.6104(1) 0.5903(1) -0.1233(4)
N1 N 0.7054(3) 0.7500 0.3035(17)
N2 N 1.0131(3) 0.7500 1.2019(17)
C1 C 0.7358(4) 0.6622(5) 0.3878(18)
C2 C 0.7962(4) 0.6580(5) 0.5569(17)
C3 C 0.8275(4) 0.7500 0.6509(18)
C4 C 0.8910(5) 0.7500 0.8441(16)
C5 C 0.9228(3) 0.8426(5) 0.9411(16)
C6 C 0.9822(3) 0.8400(5) 1.1086(16)
H1 H 0.7152 0.5974 0.3293
H2 H 0.8160 0.5917 0.6081
H3 H 0.9028 0.9089 0.8898
H4 H 1.0030 0.9053 1.1628
Zn1B Zn 1.1094(1) 0.7500 1.4344(2)
Cl1G Cl 0.6104(1) 0.9097(1) -0.1233(4)
N2B N 0.5131(3) 0.7500 0.2981(17)
C1G C 0.7358(4) 0.8378(5) 0.3878(18)
C2G C 0.7962(4) 0.8420(5) 0.5569(17)
C5G C 0.9228(3) 0.6574(5) 0.9411(16)
C6G C 0.9822(3) 0.6600(5) 1.1086(16)
H1G H 0.7152 0.9026 0.3293
H2G H 0.8160 0.9083 0.6081
H3G H 0.9028 0.5911 0.8898
H4G H 1.0030 0.5947 1.1628
loop_
_geom_bond_atom_site_label_1
_geom_bond_atom_site_label_2
_geom_bond_site_symmetry_1
_geom_bond_site_symmetry_2
Zn1 Cl1 1_555 1_555
N1 Zn1 1_555 1_555
N2 C6 1_555 1_555
C1 N1 1_555 1_555
C2 C1 1_555 1_555
C3 C2 1_555 1_555
C4 C3 1_555 1_555
C5 C4 1_555 1_555
C6 C5 1_555 1_555
H1 C1 1_555 1_555
H2 C2 1_555 1_555
H3 C5 1_555 1_555
H4 C6 1_555 1_555
Zn1B N2 1_555 1_555
Cl1G Zn1 1_555 1_555
N2B Zn1 1_555 1_555
C1G N1 1_555 1_555
C2G C3 1_555 1_555
C5G C4 1_555 1_555
C6G N2 1_555 1_555
H1G C1G 1_555 1_555
H2G C2G 1_555 1_555
H3G C5G 1_555 1_555
H4G C6G 1_555 1_555
C1G C2G 1_555 1_555
C5G C6G 1_555 1_555

#END
