
#######################################################################
#
#                 Cambridge Crystallographic Data Centre
#                                CCDC 
#
#######################################################################
#
# If this CIF has been generated from an entry in the Cambridge 
# Structural Database, then it will include bibliographic, chemical, 
# crystal, experimental, refinement or atomic coordinate data resulting 
# from the CCDC's data processing and validation procedures.
#
#######################################################################

data_UBOCOD
_symmetry_cell_setting           monoclinic
_symmetry_space_group_name_H-M   'C 2/c'
_symmetry_Int_Tables_number      15
_space_group_name_Hall           '-C 2yn'
loop_
_symmetry_equiv_pos_site_id
_symmetry_equiv_pos_as_xyz
1 x,y,z
2 1/2+x,1/2+y,z
3 -x,y,1/2-z
4 1/2-x,1/2+y,1/2-z
5 -x,-y,-z
6 1/2-x,1/2-y,-z
7 x,-y,1/2+z
8 1/2+x,1/2-y,1/2+z
_cell_length_a                   15.989(2)
_cell_length_b                   5.4211(7)
_cell_length_c                   15.0100(19)
_cell_angle_alpha                90
_cell_angle_beta                 113.440(3)
_cell_angle_gamma                90
_cell_volume                     1193.67
loop_
_atom_site_label
_atom_site_type_symbol
_atom_site_fract_x
_atom_site_fract_y
_atom_site_fract_z
Zn1 Zn 0.5000 0.08008(14) 0.2500
Br1 Br 0.57313(5) -0.11523(14) 0.16079(5)
N1 N 0.4031(2) 0.3059(7) 0.1519(3)
C1 C 0.4096(4) 0.3863(13) 0.0721(5)
H1 H 0.4584 0.3201 0.0552
C2 C 0.3512(5) 0.5588(14) 0.0110(5)
H2 H 0.3594 0.6115 -0.0475
C3 C 0.2818(3) 0.6571(9) 0.0316(3)
C4 C 0.2740(5) 0.5644(14) 0.1117(5)
H3 H 0.2235 0.6189 0.1283
C5 C 0.3353(5) 0.3957(12) 0.1702(5)
H4 H 0.3281 0.3392 0.2287
C3E C 0.2182(3) 0.8429(9) -0.0316(3)
C2E C 0.1488(5) 0.9412(14) -0.0110(5)
C1E C 0.0904(4) 1.1137(13) -0.0721(5)
N1E N 0.0969(2) 1.1941(7) -0.1519(3)
C5E C 0.1647(5) 1.1043(12) -0.1702(5)
C4E C 0.2260(5) 0.9356(14) -0.1117(5)
H3E H 0.2765 0.8811 -0.1283
H4E H 0.1719 1.1608 -0.2287
H1E H 0.0416 1.1799 -0.0552
H2E H 0.1406 0.8885 0.0475
Br1B Br 0.42687(5) -0.11523(14) 0.33921(5)
N1B N 0.5969(2) 0.3059(7) 0.3481(3)
Zn1G Zn 0.0000 1.41992(14) -0.2500
loop_
_geom_bond_atom_site_label_1
_geom_bond_atom_site_label_2
_geom_bond_site_symmetry_1
_geom_bond_site_symmetry_2
Zn1 Br1 1_555 1_555
N1 Zn1 1_555 1_555
C1 N1 1_555 1_555
H1 C1 1_555 1_555
C2 C1 1_555 1_555
H2 C2 1_555 1_555
C3 C2 1_555 1_555
C4 C3 1_555 1_555
H3 C4 1_555 1_555
C5 N1 1_555 1_555
H4 C5 1_555 1_555
C3E C3 1_555 1_555
C2E C3E 1_555 1_555
C1E C2E 1_555 1_555
N1E C1E 1_555 1_555
C5E N1E 1_555 1_555
C4E C3E 1_555 1_555
H3E C4E 1_555 1_555
H4E C5E 1_555 1_555
H1E C1E 1_555 1_555
H2E C2E 1_555 1_555
Br1B Zn1 1_555 1_555
N1B Zn1 1_555 1_555
Zn1G N1E 1_555 1_555
C4 C5 1_555 1_555
C5E C4E 1_555 1_555

#END
