
#######################################################################
#
#                 Cambridge Crystallographic Data Centre
#                                CCDC 
#
#######################################################################
#
# If this CIF has been generated from an entry in the Cambridge 
# Structural Database, then it will include bibliographic, chemical, 
# crystal, experimental, refinement or atomic coordinate data resulting 
# from the CCDC's data processing and validation procedures.
#
#######################################################################

data_UBOCIX09
_symmetry_cell_setting           monoclinic
_symmetry_space_group_name_H-M   'C 2/c'
_symmetry_Int_Tables_number      15
_space_group_name_Hall           '-C 2yn'
loop_
_symmetry_equiv_pos_site_id
_symmetry_equiv_pos_as_xyz
1 x,y,z
2 -x,y,1/2-z
3 1/2+x,1/2+y,z
4 1/2-x,1/2+y,1/2-z
5 -x,-y,-z
6 x,-y,1/2+z
7 1/2-x,1/2-y,-z
8 1/2+x,1/2-y,1/2+z
_cell_length_a                   15.860(5)
_cell_length_b                   5.1198(14)
_cell_length_c                   14.613(5)
_cell_angle_alpha                90
_cell_angle_beta                 110.286(6)
_cell_angle_gamma                90
_cell_volume                     1112.98
loop_
_atom_site_label
_atom_site_type_symbol
_atom_site_fract_x
_atom_site_fract_y
_atom_site_fract_z
Zn1 Zn 0.0000 -0.43380(11) -0.2500
Cl1 Cl 0.07096(8) -0.6256(3) -0.33844(9)
N1 N 0.09570(18) -0.2007(6) -0.15281(19)
C1 C 0.1656(3) -0.1153(12) -0.1718(3)
H1 H 0.1739 -0.1751 -0.2282
C2 C 0.2276(3) 0.0569(12) -0.1139(3)
H2 H 0.2766 0.1066 -0.1310
C3 C 0.0876(3) -0.1131(11) -0.0715(3)
H3 H 0.0393 -0.1721 -0.0550
C4 C 0.1462(3) 0.0598(11) -0.0097(4)
H4 H 0.1374 0.1128 0.0472
C5 C 0.2180(2) 0.1552(7) -0.0318(2)
Zn1F Zn 0.5000 0.93380(11) 0.2500
Cl1A Cl -0.07096(8) -0.6256(3) -0.16156(9)
N1F N 0.40430(18) 0.7007(6) 0.15281(19)
N1A N -0.09570(18) -0.2007(6) -0.34719(19)
C1F C 0.3344(3) 0.6153(12) 0.1718(3)
H1F H 0.3261 0.6751 0.2282
C2F C 0.2724(3) 0.4431(12) 0.1139(3)
H2F H 0.2234 0.3934 0.1310
C3F C 0.4124(3) 0.6131(11) 0.0715(3)
H3F H 0.4607 0.6721 0.0550
C4F C 0.3538(3) 0.4402(11) 0.0097(4)
H4F H 0.3626 0.3872 -0.0472
C5F C 0.2820(2) 0.3448(7) 0.0318(2)
loop_
_geom_bond_atom_site_label_1
_geom_bond_atom_site_label_2
_geom_bond_site_symmetry_1
_geom_bond_site_symmetry_2
Zn1 Cl1 1_555 1_555
N1 Zn1 1_555 1_555
C1 N1 1_555 1_555
H1 C1 1_555 1_555
C2 C1 1_555 1_555
H2 C2 1_555 1_555
C3 N1 1_555 1_555
H3 C3 1_555 1_555
C4 C3 1_555 1_555
H4 C4 1_555 1_555
C5 C2 1_555 1_555
Zn1F N1F 1_555 1_555
Cl1A Zn1 1_555 1_555
N1F C1F 1_555 1_555
N1A Zn1 1_555 1_555
C1F H1F 1_555 1_555
C2F C1F 1_555 1_555
H2F C2F 1_555 1_555
C3F N1F 1_555 1_555
H3F C3F 1_555 1_555
C4F C3F 1_555 1_555
H4F C4F 1_555 1_555
C5F C5 1_555 1_555
C4 C5 1_555 1_555
C2F C5F 1_555 1_555
C4F C5F 1_555 1_555

#END
