
#######################################################################
#
#                 Cambridge Crystallographic Data Centre
#                                CCDC 
#
#######################################################################
#
# If this CIF has been generated from an entry in the Cambridge 
# Structural Database, then it will include bibliographic, chemical, 
# crystal, experimental, refinement or atomic coordinate data resulting 
# from the CCDC's data processing and validation procedures.
#
#######################################################################

data_UBOCIX05
_symmetry_cell_setting           orthorhombic
_symmetry_space_group_name_H-M   'P n m a'
_symmetry_Int_Tables_number      62
_space_group_name_Hall           '-P 2ac 2n'
loop_
_symmetry_equiv_pos_site_id
_symmetry_equiv_pos_as_xyz
1 x,y,z
2 1/2-x,-y,1/2+z
3 -x,1/2+y,-z
4 1/2+x,1/2-y,1/2-z
5 -x,-y,-z
6 1/2+x,y,1/2-z
7 x,1/2-y,z
8 1/2-x,1/2+y,1/2+z
_cell_length_a                   17.319(4)
_cell_length_b                   12.389(3)
_cell_length_c                   5.1116(11)
_cell_angle_alpha                90
_cell_angle_beta                 90
_cell_angle_gamma                90
_cell_volume                     1096.77
loop_
_atom_site_label
_atom_site_type_symbol
_atom_site_fract_x
_atom_site_fract_y
_atom_site_fract_z
Zn1 Zn 1.10943(3) 0.2500 0.93494(10)
Cl1 Cl 1.11021(6) 0.09049(11) 1.1257(3)
N1 N 1.0129(2) 0.2500 0.7038(7)
N2 N 0.7058(2) 0.2500 -0.2004(7)
C1 C 0.8919(2) 0.2500 0.3452(9)
C2 C 0.8274(2) 0.2500 0.1543(9)
C3 C 0.9823(3) 0.1593(3) 0.6169(9)
H1 H 1.0034 0.0908 0.6812
C4 C 0.9225(3) 0.1560(3) 0.4407(10)
H2 H 0.9016 0.0864 0.3834
C5 C 0.7969(3) 0.1575(3) 0.0593(11)
H3 H 0.8179 0.0877 0.1151
C6 C 0.7367(3) 0.1609(3) -0.1148(10)
H4 H 0.7157 0.0923 -0.1786
Zn1C Zn 0.60943(3) 0.2500 -0.43494(10)
Cl1F Cl 1.11021(6) 0.40951(11) 1.1257(3)
N2C N 1.2058(2) 0.2500 0.7004(7)
C3F C 0.9823(3) 0.3407(3) 0.6169(9)
H1F H 1.0034 0.4092 0.6812
C4F C 0.9225(3) 0.3440(3) 0.4407(10)
H2F H 0.9016 0.4136 0.3834
C5F C 0.7969(3) 0.3425(3) 0.0593(11)
H3F H 0.8179 0.4123 0.1151
C6F C 0.7367(3) 0.3391(3) -0.1148(10)
H4F H 0.7157 0.4077 -0.1786
loop_
_geom_bond_atom_site_label_1
_geom_bond_atom_site_label_2
_geom_bond_site_symmetry_1
_geom_bond_site_symmetry_2
Zn1 Cl1 1_555 1_555
N1 Zn1 1_555 1_555
N2 C6 1_555 1_555
C1 C2 1_555 1_555
C2 C5 1_555 1_555
C3 N1 1_555 1_555
H1 C3 1_555 1_555
C4 C1 1_555 1_555
H2 C4 1_555 1_555
C5 H3 1_555 1_555
C6 C5 1_555 1_555
H4 C6 1_555 1_555
Zn1C N2 1_555 1_555
Cl1F Zn1 1_555 1_555
N2C Zn1 1_555 1_555
C3F N1 1_555 1_555
H1F C3F 1_555 1_555
C4F C1 1_555 1_555
H2F C4F 1_555 1_555
C5F C2 1_555 1_555
H3F C5F 1_555 1_555
C6F N2 1_555 1_555
H4F C6F 1_555 1_555
C3 C4 1_555 1_555
C3F C4F 1_555 1_555
C5F C6F 1_555 1_555

#END
