
#######################################################################
#
#                 Cambridge Crystallographic Data Centre
#                                CCDC 
#
#######################################################################
#
# If this CIF has been generated from an entry in the Cambridge 
# Structural Database, then it will include bibliographic, chemical, 
# crystal, experimental, refinement or atomic coordinate data resulting 
# from the CCDC's data processing and validation procedures.
#
#######################################################################

data_UBOCIX02
_symmetry_cell_setting           monoclinic
_symmetry_space_group_name_H-M   'C 2/c'
_symmetry_Int_Tables_number      15
_space_group_name_Hall           '-C 2yn'
loop_
_symmetry_equiv_pos_site_id
_symmetry_equiv_pos_as_xyz
1 x,y,z
2 -x,y,1/2-z
3 1/2+x,1/2+y,z
4 1/2-x,1/2+y,1/2-z
5 -x,-y,-z
6 x,-y,1/2+z
7 1/2-x,1/2-y,-z
8 1/2+x,1/2-y,1/2+z
_cell_length_a                   15.821(3)
_cell_length_b                   5.109(1)
_cell_length_c                   14.612(3)
_cell_angle_alpha                90
_cell_angle_beta                 110.33(3)
_cell_angle_gamma                90
_cell_volume                     1107.51
loop_
_atom_site_label
_atom_site_type_symbol
_atom_site_fract_x
_atom_site_fract_y
_atom_site_fract_z
Zn1 Zn 0.5000 0.5656(2) 0.7500
Cl1 Cl 0.4289(1) 0.3748(4) 0.8382(1)
N1 N 0.5954(3) 0.7992(9) 0.8470(3)
C1 C 0.5873(4) 0.8862(15) 0.9281(5)
C2 C 0.6457(4) 1.0617(16) 0.9898(5)
C3 C 0.7178(3) 1.1553(11) 0.9685(3)
C4 C 0.7276(4) 1.0571(16) 0.8861(4)
C5 C 0.6654(4) 0.8837(15) 0.8276(4)
H1 H 0.5392 0.8254 0.9448
H2 H 0.6362 1.1170 1.0461
H3 H 0.7767 1.1074 0.8692
H4 H 0.6737 0.8234 0.7712
Zn1F Zn 1.0000 1.9344(2) 1.2500
Cl1A Cl 0.5711(1) 0.3748(4) 0.6618(1)
N1F N 0.9046(3) 1.7008(9) 1.1530(3)
N1A N 0.4046(3) 0.7992(9) 0.6530(3)
C1F C 0.9127(4) 1.6138(15) 1.0719(5)
C2F C 0.8543(4) 1.4383(16) 1.0102(5)
C3F C 0.7822(3) 1.3447(11) 1.0315(3)
C4F C 0.7724(4) 1.4429(16) 1.1139(4)
C5F C 0.8346(4) 1.6163(15) 1.1724(4)
H1F H 0.9608 1.6746 1.0552
H2F H 0.8638 1.3830 0.9539
H3F H 0.7233 1.3926 1.1308
H4F H 0.8263 1.6766 1.2288
loop_
_geom_bond_atom_site_label_1
_geom_bond_atom_site_label_2
_geom_bond_site_symmetry_1
_geom_bond_site_symmetry_2
Zn1 Cl1 1_555 1_555
N1 Zn1 1_555 1_555
C1 N1 1_555 1_555
C2 C1 1_555 1_555
C3 C2 1_555 1_555
C4 C3 1_555 1_555
C5 N1 1_555 1_555
H1 C1 1_555 1_555
H2 C2 1_555 1_555
H3 C4 1_555 1_555
H4 C5 1_555 1_555
Zn1F N1F 1_555 1_555
Cl1A Zn1 1_555 1_555
N1F C1F 1_555 1_555
N1A Zn1 1_555 1_555
C1F C2F 1_555 1_555
C2F C3F 1_555 1_555
C3F C3 1_555 1_555
C4F C3F 1_555 1_555
C5F N1F 1_555 1_555
H1F C1F 1_555 1_555
H2F C2F 1_555 1_555
H3F C4F 1_555 1_555
H4F C5F 1_555 1_555
C4 C5 1_555 1_555
C4F C5F 1_555 1_555

#END
