
#######################################################################
#
#                 Cambridge Crystallographic Data Centre
#                                CCDC 
#
#######################################################################
#
# If this CIF has been generated from an entry in the Cambridge 
# Structural Database, then it will include bibliographic, chemical, 
# crystal, experimental, refinement or atomic coordinate data resulting 
# from the CCDC's data processing and validation procedures.
#
#######################################################################

data_UBOCIX06
_symmetry_cell_setting           orthorhombic
_symmetry_space_group_name_H-M   'P b a n'
_symmetry_Int_Tables_number      50
_space_group_name_Hall           '-P 2ab 2b'
loop_
_symmetry_equiv_pos_site_id
_symmetry_equiv_pos_as_xyz
1 x,y,z
2 1/2-x,1/2-y,z
3 1/2-x,y,-z
4 x,1/2-y,-z
5 -x,-y,-z
6 1/2+x,1/2+y,-z
7 1/2+x,-y,z
8 -x,1/2+y,z
_cell_length_a                   11.380(2)
_cell_length_b                   11.922(2)
_cell_length_c                   3.6199(6)
_cell_angle_alpha                90
_cell_angle_beta                 90
_cell_angle_gamma                90
_cell_volume                     491.12
loop_
_atom_site_label
_atom_site_type_symbol
_atom_site_fract_x
_atom_site_fract_y
_atom_site_fract_z
Zn1 Zn 0.2500 0.2500 0.5000
Cl1 Cl 0.2500 0.10492(4) 0.0000
N1 N 0.06146(15) 0.2500 0.5000
C1 C 0.00022(13) 0.15713(12) 0.5829(4)
H1 H 0.0437 0.0887 0.6448
C2 C -0.12151(12) 0.15338(12) 0.5853(4)
H2 H -0.1626 0.0835 0.6463
C3 C -0.18489(17) 0.2500 0.5000
Zn1_2 Zn 0.2500 0.2500 -0.5000
Zn1_3 Zn -0.7500 0.2500 0.5000
Zn1_4 Zn 0.2500 0.2500 1.5000
Cl1_2 Cl 0.2500 0.10492(4) 1.0000
Cl1A Cl 0.2500 0.39508(4) 0.0000
Cl1A_2 Cl 0.2500 0.39508(4) 1.0000
N1A N -0.56146(15) 0.2500 0.5000
N1A_2 N 0.43854(15) 0.2500 0.5000
C1C C 0.00022(13) 0.34287(12) 0.4171(4)
C1A C -0.50022(13) 0.34287(12) 0.5829(4)
C1B C -0.50022(13) 0.15713(12) 0.4171(4)
H1C H 0.0437 0.4113 0.3552
H1B H -0.5437 0.0887 0.3552
H1A H -0.5437 0.4113 0.6448
C2C C -0.12151(12) 0.34662(12) 0.4147(4)
C2A C -0.37849(12) 0.34662(12) 0.5853(4)
C2B C -0.37849(12) 0.15338(12) 0.4147(4)
H2C H -0.1626 0.4165 0.3537
H2B H -0.3374 0.0835 0.3537
H2A H -0.3374 0.4165 0.6463
C3A C -0.31511(17) 0.2500 0.5000
loop_
_geom_bond_atom_site_label_1
_geom_bond_atom_site_label_2
_geom_bond_site_symmetry_1
_geom_bond_site_symmetry_2
Zn1 Cl1 1_555 1_555
Cl1 Zn1_2 1_555 1_555
N1 Zn1 1_555 1_555
C1 N1 1_555 1_555
H1 C1 1_555 1_555
C2 C1 1_555 1_555
H2 C2 1_555 1_555
C3 C2 1_555 1_555
Zn1_2 Cl1A 1_555 1_555
Zn1_3 N1A 1_555 1_555
Zn1_4 Cl1_2 1_555 1_555
Cl1_2 Zn1 1_555 1_555
Cl1A Zn1 1_555 1_555
Cl1A_2 Zn1 1_555 1_555
N1A C1A 1_555 1_555
N1A_2 Zn1 1_555 1_555
C1C N1 1_555 1_555
C1A H1A 1_555 1_555
C1B N1A 1_555 1_555
H1C C1C 1_555 1_555
H1B C1B 1_555 1_555
C2C C3 1_555 1_555
C2A C1A 1_555 1_555
C2B C1B 1_555 1_555
H2C C2C 1_555 1_555
H2B C2B 1_555 1_555
H2A C2A 1_555 1_555
C3A C3 1_555 1_555
Zn1_4 Cl1A_2 1_555 1_555
C1C C2C 1_555 1_555
C2A C3A 1_555 1_555
C2B C3A 1_555 1_555

#END
