
#######################################################################
#
#                 Cambridge Crystallographic Data Centre
#                                CCDC 
#
#######################################################################
#
# If this CIF has been generated from an entry in the Cambridge 
# Structural Database, then it will include bibliographic, chemical, 
# crystal, experimental, refinement or atomic coordinate data resulting 
# from the CCDC's data processing and validation procedures.
#
#######################################################################

data_UBOCIX
_symmetry_cell_setting           monoclinic
_symmetry_space_group_name_H-M   'C 2/c'
_symmetry_Int_Tables_number      15
_space_group_name_Hall           '-C 2yn'
loop_
_symmetry_equiv_pos_site_id
_symmetry_equiv_pos_as_xyz
1 x,y,z
2 1/2+x,1/2+y,z
3 -x,y,1/2-z
4 1/2-x,1/2+y,1/2-z
5 -x,-y,-z
6 1/2-x,1/2-y,-z
7 x,-y,1/2+z
8 1/2+x,1/2-y,1/2+z
_cell_length_a                   15.830(2)
_cell_length_b                   5.1132(6)
_cell_length_c                   14.5963(18)
_cell_angle_alpha                90
_cell_angle_beta                 110.265(2)
_cell_angle_gamma                90
_cell_volume                     1108.32
loop_
_atom_site_label
_atom_site_type_symbol
_atom_site_fract_x
_atom_site_fract_y
_atom_site_fract_z
Zn1 Zn 0.5000 0.06617(12) 0.2500
Cl1 Cl 0.57108(9) -0.1249(3) 0.16167(10)
N1 N 0.40463(19) 0.2988(6) 0.1528(2)
C1 C 0.4132(3) 0.3868(12) 0.0718(4)
H1 H 0.4643 0.3244 0.0544
C2 C 0.3545(4) 0.5617(12) 0.0101(4)
H2 H 0.3644 0.6201 -0.0494
C3 C 0.2822(2) 0.6544(8) 0.0316(3)
C4 C 0.2726(4) 0.5572(13) 0.1144(4)
H3 H 0.2214 0.6116 0.1331
C5 C 0.3345(4) 0.3832(13) 0.1718(3)
H4 H 0.3255 0.3179 0.2309
Zn1G Zn 0.0000 1.43383(12) -0.2500
Cl1B Cl 0.42892(9) -0.1249(3) 0.33833(10)
N1E N 0.09537(19) 1.2012(6) -0.1528(2)
N1B N 0.59537(19) 0.2988(6) 0.3472(2)
C1E C 0.0868(3) 1.1132(12) -0.0718(4)
H1E H 0.0357 1.1756 -0.0544
C2E C 0.1455(4) 0.9383(12) -0.0101(4)
H2E H 0.1356 0.8799 0.0494
C3E C 0.2178(2) 0.8456(8) -0.0316(3)
C4E C 0.2274(4) 0.9428(13) -0.1144(4)
H3E H 0.2786 0.8884 -0.1331
C5E C 0.1655(4) 1.1168(13) -0.1718(3)
H4E H 0.1745 1.1821 -0.2309
loop_
_geom_bond_atom_site_label_1
_geom_bond_atom_site_label_2
_geom_bond_site_symmetry_1
_geom_bond_site_symmetry_2
Zn1 Cl1 1_555 1_555
N1 Zn1 1_555 1_555
C1 N1 1_555 1_555
H1 C1 1_555 1_555
C2 C1 1_555 1_555
H2 C2 1_555 1_555
C3 C2 1_555 1_555
C4 C3 1_555 1_555
H3 C4 1_555 1_555
C5 N1 1_555 1_555
H4 C5 1_555 1_555
Zn1G N1E 1_555 1_555
Cl1B Zn1 1_555 1_555
N1E C1E 1_555 1_555
N1B Zn1 1_555 1_555
C1E H1E 1_555 1_555
C2E C1E 1_555 1_555
H2E C2E 1_555 1_555
C3E C3 1_555 1_555
C4E C3E 1_555 1_555
H3E C4E 1_555 1_555
C5E N1E 1_555 1_555
H4E C5E 1_555 1_555
C4 C5 1_555 1_555
C2E C3E 1_555 1_555
C4E C5E 1_555 1_555

#END
