
#######################################################################
#
#                 Cambridge Crystallographic Data Centre
#                                CCDC 
#
#######################################################################
#
# If this CIF has been generated from an entry in the Cambridge 
# Structural Database, then it will include bibliographic, chemical, 
# crystal, experimental, refinement or atomic coordinate data resulting 
# from the CCDC's data processing and validation procedures.
#
#######################################################################

data_UBODOG
_symmetry_cell_setting           monoclinic
_symmetry_space_group_name_H-M   'C 2'
_symmetry_Int_Tables_number      5
_space_group_name_Hall           'C 2y'
loop_
_symmetry_equiv_pos_site_id
_symmetry_equiv_pos_as_xyz
1 x,y,z
2 -x,y,-z
3 1/2+x,1/2+y,z
4 1/2-x,1/2+y,-z
_cell_length_a                   21.421(4)
_cell_length_b                   11.107(2)
_cell_length_c                   15.888(3)
_cell_angle_alpha                90
_cell_angle_beta                 126.51(3)
_cell_angle_gamma                90
_cell_volume                     3038.28
loop_
_atom_site_label
_atom_site_type_symbol
_atom_site_fract_x
_atom_site_fract_y
_atom_site_fract_z
Cd1 Cd 0.0000 0.22166(7) 0.0000
Cd2 Cd 0.5000 -0.10031(5) 0.5000
O1 O 0.0982(6) 0.0605(10) 0.1254(9)
O2 O 0.0942(4) 0.1415(7) -0.0041(5)
O3 O 0.4054(5) 0.0517(8) 0.4417(5)
O4 O 0.4095(4) -0.0398(6) 0.3254(4)
N1 N -0.0501(5) 0.3569(7) -0.1329(6)
N2 N -0.0752(4) 0.4785(6) -0.2606(5)
C1 C 0.0606(6) 0.3874(10) -0.1392(7)
H1 H 0.0928 0.3623 -0.0673
H2 H 0.0806 0.4610 -0.1463
H3 H 0.0607 0.3262 -0.1818
C2 C -0.0237(5) 0.4080(7) -0.1752(7)
C3 C -0.1293(5) 0.3975(9) -0.1917(7)
C4 C -0.1867(6) 0.3735(9) -0.1795(8)
H4 H -0.1785 0.3204 -0.1285
C5 C -0.2565(6) 0.4315(10) -0.2459(9)
H5 H -0.2952 0.4208 -0.2368
C6 C -0.2712(7) 0.5051(10) -0.3257(10)
H6 H -0.3201 0.5395 -0.3707
C7 C -0.2157(7) 0.5290(9) -0.3405(9)
H7 H -0.2256 0.5778 -0.3947
C8 C -0.1427(5) 0.4753(7) -0.2687(7)
C9 C -0.0648(7) 0.5473(8) -0.3297(8)
H8 H -0.1105 0.5371 -0.4014
H9 H -0.0207 0.5150 -0.3248
C10 C -0.0519(5) 0.6805(7) -0.3041(7)
C11 C -0.0448(5) 0.7329(8) -0.2201(7)
H10 H -0.0477 0.6850 -0.1746
C12 C -0.0334(6) 0.8549(8) -0.2025(7)
H11 H -0.0290 0.8873 -0.1452
C13 C -0.0283(5) 0.9296(8) -0.2658(7)
C14 C -0.0373(5) 0.8793(8) -0.3552(7)
H12 H -0.0358 0.9289 -0.4011
C15 C -0.0485(5) 0.7558(7) -0.3733(7)
H13 H -0.0537 0.7226 -0.4309
C16 C -0.0103(6) 1.0614(7) -0.2371(6)
H14 H 0.0455 1.0720 -0.1903
H15 H -0.0312 1.0856 -0.1996
C17 C 0.0759(6) 1.1620(10) -0.3186(10)
H16 H 0.0894 1.1919 -0.3626
H17 H 0.0837 1.0764 -0.3108
H18 H 0.1082 1.1997 -0.2511
C18 C -0.0036(3) 1.1886(5) -0.3653(4)
N3 N -0.0433(3) 1.1416(5) -0.3304(4)
C19 C -0.1162(3) 1.1896(5) -0.3890(4)
C20 C -0.1216(3) 1.2664(5) -0.4602(4)
N4 N -0.0521(3) 1.2657(5) -0.4456(4)
C21 C -0.1775(5) 1.1742(9) -0.3817(7)
H19 H -0.1728 1.1238 -0.3315
C22 C -0.2454(6) 1.2363(10) -0.4517(8)
H20 H -0.2879 1.2276 -0.4502
C23 C -0.2495(6) 1.3127(10) -0.5253(8)
H21 H -0.2953 1.3548 -0.5719
C24 C -0.1890(5) 1.3276(8) -0.5308(7)
H22 H -0.1933 1.3777 -0.5809
C25 C 0.1229(6) 0.0714(10) 0.0708(9)
C26 C 0.1885(7) -0.0137(11) 0.0929(12)
H23 H 0.2156 -0.0468 0.1629
H24 H 0.1660 -0.0801 0.0436
C27 C 0.2460(5) 0.0530(9) 0.0833(7)
C28 C 0.2338(6) 0.0512(11) -0.0121(7)
H25 H 0.1933 0.0048 -0.0657
C29 C 0.2785(7) 0.1145(13) -0.0309(9)
H26 H 0.2693 0.1097 -0.0958
C30 C 0.3381(7) 0.1867(12) 0.0479(10)
H27 H 0.3694 0.2310 0.0366
C31 C 0.3498(6) 0.1909(10) 0.1441(9)
H28 H 0.3886 0.2398 0.1973
C32 C 0.3042(6) 0.1229(9) 0.1610(8)
C33 C 0.3233(7) 0.1323(11) 0.2678(8)
H29 H 0.2752 0.1244 0.2606
H30 H 0.3430 0.2128 0.2939
C34 C 0.3826(6) 0.0409(9) 0.3526(7)
Cd2B Cd 0.0000 1.39969(5) -0.5000
Cd2_2 Cd -0.5000 -0.10031(5) -0.5000
Cd2B_2 Cd 0.0000 1.39969(5) 0.5000
O1A O -0.0982(6) 0.0605(10) -0.1254(9)
O2A O -0.0942(4) 0.1415(7) 0.0041(5)
O3A O -0.4054(5) 0.0517(8) -0.4417(5)
O3A_2 O 0.5946(5) 0.0517(8) 0.5583(5)
O4A O -0.4095(4) -0.0398(6) -0.3254(4)
O4A_2 O 0.5905(4) -0.0398(6) 0.6746(4)
N1A N 0.0501(5) 0.3569(7) 0.1329(6)
N2A N 0.0752(4) 0.4785(6) 0.2606(5)
C1A C -0.0606(6) 0.3874(10) 0.1392(7)
H1A H -0.0928 0.3623 0.0673
H2A H -0.0806 0.4610 0.1463
H3A H -0.0607 0.3262 0.1818
C2A C 0.0237(5) 0.4080(7) 0.1752(7)
C3A C 0.1293(5) 0.3975(9) 0.1917(7)
C4A C 0.1867(6) 0.3735(9) 0.1795(8)
H4A H 0.1785 0.3204 0.1285
C5A C 0.2565(6) 0.4315(10) 0.2459(9)
H5A H 0.2952 0.4208 0.2368
C6A C 0.2712(7) 0.5051(10) 0.3257(10)
H6A H 0.3201 0.5395 0.3707
C7A C 0.2157(7) 0.5290(9) 0.3405(9)
H7A H 0.2256 0.5778 0.3947
C8A C 0.1427(5) 0.4753(7) 0.2687(7)
C9A C 0.0648(7) 0.5473(8) 0.3297(8)
H8A H 0.1105 0.5371 0.4014
H9A H 0.0207 0.5150 0.3248
C10A C 0.0519(5) 0.6805(7) 0.3041(7)
C11A C 0.0448(5) 0.7329(8) 0.2201(7)
H10A H 0.0477 0.6850 0.1746
C12A C 0.0334(6) 0.8549(8) 0.2025(7)
H11A H 0.0290 0.8873 0.1452
C13A C 0.0283(5) 0.9296(8) 0.2658(7)
C14A C 0.0373(5) 0.8793(8) 0.3552(7)
H12A H 0.0358 0.9289 0.4011
C15A C 0.0485(5) 0.7558(7) 0.3733(7)
H13A H 0.0537 0.7226 0.4309
C16A C 0.0103(6) 1.0614(7) 0.2371(6)
H14A H -0.0455 1.0720 0.1903
H15A H 0.0312 1.0856 0.1996
C17A C -0.0759(6) 1.1620(10) 0.3186(10)
H16A H -0.0894 1.1919 0.3626
H17A H -0.0837 1.0764 0.3108
H18A H -0.1082 1.1997 0.2511
C18A C 0.0036(3) 1.1886(5) 0.3653(4)
N3A N 0.0433(3) 1.1416(5) 0.3304(4)
C19A C 0.1162(3) 1.1896(5) 0.3890(4)
C20A C 0.1216(3) 1.2664(5) 0.4602(4)
N4A N 0.0521(3) 1.2657(5) 0.4456(4)
N4C N 0.5521(3) -0.2343(5) 0.4456(4)
N4B N 0.4479(3) -0.2343(5) 0.5544(4)
C21A C 0.1775(5) 1.1742(9) 0.3817(7)
H19A H 0.1728 1.1238 0.3315
C22A C 0.2454(6) 1.2363(10) 0.4517(8)
H20A H 0.2879 1.2276 0.4502
C23A C 0.2495(6) 1.3127(10) 0.5253(8)
H21A H 0.2953 1.3548 0.5719
C24A C 0.1890(5) 1.3276(8) 0.5308(7)
H22A H 0.1933 1.3777 0.5809
C25A C -0.1229(6) 0.0714(10) -0.0708(9)
C26A C -0.1885(7) -0.0137(11) -0.0929(12)
H23A H -0.2156 -0.0468 -0.1629
H24A H -0.1660 -0.0801 -0.0436
C27A C -0.2460(5) 0.0530(9) -0.0833(7)
C28A C -0.2338(6) 0.0512(11) 0.0121(7)
H25A H -0.1933 0.0048 0.0657
C29A C -0.2785(7) 0.1145(13) 0.0309(9)
H26A H -0.2693 0.1097 0.0958
C30A C -0.3381(7) 0.1867(12) -0.0479(10)
H27A H -0.3694 0.2310 -0.0366
C31A C -0.3498(6) 0.1909(10) -0.1441(9)
H28A H -0.3886 0.2398 -0.1973
C32A C -0.3042(6) 0.1229(9) -0.1610(8)
C33A C -0.3233(7) 0.1323(11) -0.2678(8)
H29A H -0.2752 0.1244 -0.2606
H30A H -0.3430 0.2128 -0.2939
C34A C -0.3826(6) 0.0409(9) -0.3526(7)
O5 O 0.0017(6) 0.3997(10) 0.3060(9)
loop_
_geom_bond_atom_site_label_1
_geom_bond_atom_site_label_2
_geom_bond_site_symmetry_1
_geom_bond_site_symmetry_2
Cd1 O1 1_555 1_555
Cd2 O3 1_555 1_555
O1 C25 1_555 1_555
O2 Cd1 1_555 1_555
O3 C34 1_555 1_555
O4 Cd2 1_555 1_555
N1 Cd1 1_555 1_555
N2 C2 1_555 1_555
C1 H1 1_555 1_555
H2 C1 1_555 1_555
H3 C1 1_555 1_555
C2 N1 1_555 1_555
C3 N1 1_555 1_555
C4 C3 1_555 1_555
H4 C4 1_555 1_555
C5 C4 1_555 1_555
H5 C5 1_555 1_555
C6 C5 1_555 1_555
H6 C6 1_555 1_555
C7 C6 1_555 1_555
H7 C7 1_555 1_555
C8 N2 1_555 1_555
C9 N2 1_555 1_555
H8 C9 1_555 1_555
H9 C9 1_555 1_555
C10 C9 1_555 1_555
C11 C10 1_555 1_555
H10 C11 1_555 1_555
C12 C11 1_555 1_555
H11 C12 1_555 1_555
C13 C12 1_555 1_555
C14 C13 1_555 1_555
H12 C14 1_555 1_555
C15 C10 1_555 1_555
H13 C15 1_555 1_555
C16 C13 1_555 1_555
H14 C16 1_555 1_555
H15 C16 1_555 1_555
C17 H16 1_555 1_555
H17 C17 1_555 1_555
H18 C17 1_555 1_555
C18 C17 1_555 1_555
N3 C16 1_555 1_555
C19 N3 1_555 1_555
C20 C19 1_555 1_555
N4 C18 1_555 1_555
C21 C19 1_555 1_555
H19 C21 1_555 1_555
C22 C21 1_555 1_555
H20 C22 1_555 1_555
C23 C22 1_555 1_555
H21 C23 1_555 1_555
C24 C20 1_555 1_555
H22 C24 1_555 1_555
C25 O2 1_555 1_555
C26 C25 1_555 1_555
H23 C26 1_555 1_555
H24 C26 1_555 1_555
C27 C26 1_555 1_555
C28 C27 1_555 1_555
H25 C28 1_555 1_555
C29 C28 1_555 1_555
H26 C29 1_555 1_555
C30 C29 1_555 1_555
H27 C30 1_555 1_555
C31 C30 1_555 1_555
H28 C31 1_555 1_555
C32 C27 1_555 1_555
C33 C32 1_555 1_555
H29 C33 1_555 1_555
H30 C33 1_555 1_555
C34 O4 1_555 1_555
Cd2B N4 1_555 1_555
Cd2_2 O3A 1_555 1_555
Cd2B_2 N4A 1_555 1_555
O1A Cd1 1_555 1_555
O2A Cd1 1_555 1_555
O3A C34A 1_555 1_555
O3A_2 Cd2 1_555 1_555
O4A Cd2_2 1_555 1_555
O4A_2 Cd2 1_555 1_555
N1A Cd1 1_555 1_555
N2A C2A 1_555 1_555
C1A H1A 1_555 1_555
H2A C1A 1_555 1_555
H3A C1A 1_555 1_555
C2A N1A 1_555 1_555
C3A N1A 1_555 1_555
C4A C3A 1_555 1_555
H4A C4A 1_555 1_555
C5A C4A 1_555 1_555
H5A C5A 1_555 1_555
C6A C5A 1_555 1_555
H6A C6A 1_555 1_555
C7A C6A 1_555 1_555
H7A C7A 1_555 1_555
C8A N2A 1_555 1_555
C9A N2A 1_555 1_555
H8A C9A 1_555 1_555
H9A C9A 1_555 1_555
C10A C9A 1_555 1_555
C11A C10A 1_555 1_555
H10A C11A 1_555 1_555
C12A C11A 1_555 1_555
H11A C12A 1_555 1_555
C13A C12A 1_555 1_555
C14A C13A 1_555 1_555
H12A C14A 1_555 1_555
C15A C10A 1_555 1_555
H13A C15A 1_555 1_555
C16A C13A 1_555 1_555
H14A C16A 1_555 1_555
H15A C16A 1_555 1_555
C17A H16A 1_555 1_555
H17A C17A 1_555 1_555
H18A C17A 1_555 1_555
C18A C17A 1_555 1_555
N3A C16A 1_555 1_555
C19A N3A 1_555 1_555
C20A C19A 1_555 1_555
N4A C18A 1_555 1_555
N4C Cd2 1_555 1_555
N4B Cd2 1_555 1_555
C21A C19A 1_555 1_555
H19A C21A 1_555 1_555
C22A C21A 1_555 1_555
H20A C22A 1_555 1_555
C23A C22A 1_555 1_555
H21A C23A 1_555 1_555
C24A C20A 1_555 1_555
H22A C24A 1_555 1_555
C25A O1A 1_555 1_555
C26A C25A 1_555 1_555
H23A C26A 1_555 1_555
H24A C26A 1_555 1_555
C27A C26A 1_555 1_555
C28A C27A 1_555 1_555
H25A C28A 1_555 1_555
C29A C28A 1_555 1_555
H26A C29A 1_555 1_555
C30A C29A 1_555 1_555
H27A C30A 1_555 1_555
C31A C30A 1_555 1_555
H28A C31A 1_555 1_555
C32A C27A 1_555 1_555
C33A C32A 1_555 1_555
H29A C33A 1_555 1_555
H30A C33A 1_555 1_555
C34A O4A 1_555 1_555
C1 C2 1_555 1_555
C3 C8 1_555 1_555
C7 C8 1_555 1_555
C14 C15 1_555 1_555
C18 N3 1_555 1_555
C20 N4 1_555 1_555
C23 C24 1_555 1_555
C31 C32 1_555 1_555
C33 C34 1_555 1_555
O2A C25A 1_555 1_555
C1A C2A 1_555 1_555
C3A C8A 1_555 1_555
C7A C8A 1_555 1_555
C14A C15A 1_555 1_555
C18A N3A 1_555 1_555
C20A N4A 1_555 1_555
C23A C24A 1_555 1_555
C31A C32A 1_555 1_555
C33A C34A 1_555 1_555

#END
