
#######################################################################
#
#                 Cambridge Crystallographic Data Centre
#                                CCDC 
#
#######################################################################
#
# If this CIF has been generated from an entry in the Cambridge 
# Structural Database, then it will include bibliographic, chemical, 
# crystal, experimental, refinement or atomic coordinate data resulting 
# from the CCDC's data processing and validation procedures.
#
#######################################################################

data_UBOFOI
_symmetry_cell_setting           monoclinic
_symmetry_space_group_name_H-M   'P 21/c'
_symmetry_Int_Tables_number      14
_space_group_name_Hall           '-P 2ybc'
loop_
_symmetry_equiv_pos_site_id
_symmetry_equiv_pos_as_xyz
1 x,y,z
2 -x,1/2+y,1/2-z
3 -x,-y,-z
4 x,1/2-y,1/2+z
_cell_length_a                   13.967(3)
_cell_length_b                   15.100(3)
_cell_length_c                   17.078(3)
_cell_angle_alpha                90
_cell_angle_beta                 105.38(3)
_cell_angle_gamma                90
_cell_volume                     3472.79
loop_
_atom_site_label
_atom_site_type_symbol
_atom_site_fract_x
_atom_site_fract_y
_atom_site_fract_z
C1 C 0.3238(6) 0.7648(5) 0.6063(4)
H1 H 0.2912 0.8200 0.6102
H2 H 0.3812 0.7754 0.5868
H3 H 0.2789 0.7262 0.5694
C2 C 0.3546(4) 0.7231(4) 0.6870(4)
C3 C 0.3624(4) 0.6350(4) 0.7897(3)
C4 C 0.3451(5) 0.5712(5) 0.8422(4)
H4 H 0.2952 0.5292 0.8256
C5 C 0.4057(6) 0.5728(5) 0.9207(4)
H5 H 0.3966 0.5305 0.9577
C6 C 0.4802(6) 0.6364(6) 0.9460(5)
H6 H 0.5193 0.6353 0.9993
C7 C 0.4972(5) 0.6997(5) 0.8947(4)
H7 H 0.5474 0.7414 0.9116
C8 C 0.4357(4) 0.6993(4) 0.8154(4)
C9 C 0.4791(4) 0.8395(4) 0.7492(4)
H8 H 0.5364 0.8429 0.7959
H9 H 0.5021 0.8448 0.7005
C10 C 0.4085(4) 0.9144(4) 0.7523(4)
C11 C 0.3573(5) 0.9152(4) 0.8107(4)
H10 H 0.3691 0.8711 0.8501
C12 C 0.2892(5) 0.9799(4) 0.8117(4)
H11 H 0.2547 0.9785 0.8514
C13 C 0.2705(5) 1.0471(4) 0.7552(4)
C14 C 0.3221(7) 1.0466(5) 0.6976(5)
H12 H 0.3103 1.0906 0.6582
C15 C 0.3914(6) 0.9818(5) 0.6971(5)
H13 H 0.4272 0.9841 0.6584
C16 C 0.1953(6) 1.1168(4) 0.7614(4)
H14 H 0.2288 1.1635 0.7974
H15 H 0.1466 1.0904 0.7856
C17 C 0.2563(5) 1.2847(4) 0.6915(4)
H16 H 0.2496 1.3035 0.7434
H17 H 0.3156 1.2500 0.6988
H18 H 0.2602 1.3357 0.6589
C18 C 0.1689(5) 1.2304(4) 0.6501(4)
C19 C 0.0349(5) 1.1801(4) 0.5656(4)
C20 C -0.0494(5) 1.1660(5) 0.5026(5)
H19 H -0.0678 1.2052 0.4592
C21 C -0.1053(6) 1.0910(5) 0.5066(6)
H20 H -0.1608 1.0786 0.4640
C22 C -0.0802(7) 1.0341(5) 0.5729(7)
H21 H -0.1207 0.9856 0.5743
C23 C 0.0021(6) 1.0471(5) 0.6362(6)
H22 H 0.0191 1.0086 0.6802
C24 C 0.0593(5) 1.1217(4) 0.6308(4)
C25 C 0.0028(4) 0.3806(3) 0.6877(3)
C26 C -0.0890(4) 0.3635(3) 0.6329(3)
C27 C -0.1457(4) 0.2943(4) 0.6485(3)
H23 H -0.2058 0.2809 0.6114
C28 C -0.1141(4) 0.2442(4) 0.7190(3)
H24 H -0.1532 0.1978 0.7287
C29 C -0.0249(4) 0.2633(3) 0.7747(3)
C30 C 0.0330(4) 0.3320(3) 0.7587(3)
H25 H 0.0928 0.3456 0.7961
C31 C 0.0745(4) 0.4466(3) 0.6693(3)
C32 C -0.1270(4) 0.4199(4) 0.5584(3)
C33 C 0.0127(4) 0.2105(3) 0.8510(3)
C34 C 0.4625(4) 0.5443(4) 0.5544(4)
H26 H 0.4360 0.5743 0.5914
C35 C 0.4187(4) 0.4644(4) 0.5227(3)
C36 C 0.5429(4) 0.5812(4) 0.5339(4)
C37 C 0.3298(4) 0.4341(4) 0.5513(3)
C38 C 0.5781(8) 0.6703(8) 0.5812(8)
Cd1 Cd 0.18987(3) 0.57243(2) 0.63024(2)
Cd2 Cd 0.11044(3) 1.36790(3) 0.49804(2)
N1 N 0.3121(3) 0.6516(3) 0.7086(3)
N2 N 0.4293(3) 0.7532(3) 0.7490(3)
N3 N 0.1441(4) 1.1557(3) 0.6839(3)
N4 N 0.1051(4) 1.2482(3) 0.5792(3)
O1 O 0.0772(3) 0.4556(2) 0.5956(2)
O2 O 0.1301(3) 0.4898(3) 0.7248(2)
O3 O -0.1255(3) 0.5018(2) 0.5672(2)
O4 O -0.1597(4) 0.3775(3) 0.4939(2)
O5 O 0.1013(3) 0.2209(3) 0.8904(2)
O6 O -0.0438(3) 0.1587(3) 0.8761(2)
O7 O 0.3105(3) 0.4753(3) 0.6083(3)
O8 O 0.2806(3) 0.3685(3) 0.5161(3)
O9 O 0.5321(8) 0.7038(8) 0.6260(7)
O10 O 0.6576(6) 0.7136(6) 0.5747(5)
C39 C 0.6993(12) 0.7900(12) 0.5792(10)
H27 H 0.6574 0.8336 0.5944
H28 H 0.7094 0.8052 0.5274
H29 H 0.7621 0.7883 0.6193
C1B C -0.3238(6) 0.2352(5) 0.3937(4)
H1B H -0.2912 0.1800 0.3898
H2B H -0.3812 0.2246 0.4132
H3B H -0.2789 0.2738 0.4306
C2B C -0.3546(4) 0.2769(4) 0.3130(4)
C3B C -0.3624(4) 0.3650(4) 0.2103(3)
C4B C -0.3451(5) 0.4288(5) 0.1578(4)
H4B H -0.2952 0.4708 0.1744
C5B C -0.4057(6) 0.4272(5) 0.0793(4)
H5B H -0.3966 0.4695 0.0423
C6B C -0.4802(6) 0.3636(6) 0.0540(5)
H6B H -0.5193 0.3647 0.0007
C7B C -0.4972(5) 0.3003(5) 0.1053(4)
H7B H -0.5474 0.2586 0.0884
C8B C -0.4357(4) 0.3007(4) 0.1846(4)
C9B C -0.4791(4) 0.1605(4) 0.2508(4)
H8B H -0.5364 0.1571 0.2041
H9B H -0.5021 0.1552 0.2995
C10B C -0.4085(4) 0.0856(4) 0.2477(4)
C11B C -0.3573(5) 0.0848(4) 0.1893(4)
H10B H -0.3691 0.1289 0.1499
C12B C -0.2892(5) 0.0201(4) 0.1883(4)
H11B H -0.2547 0.0215 0.1486
C13B C -0.2705(5) -0.0471(4) 0.2448(4)
C14B C -0.3221(7) -0.0466(5) 0.3024(5)
H12B H -0.3103 -0.0906 0.3418
C15B C -0.3914(6) 0.0182(5) 0.3029(5)
H13B H -0.4272 0.0159 0.3416
C16B C -0.1953(6) -0.1168(4) 0.2386(4)
H14B H -0.2288 -0.1635 0.2026
H15B H -0.1466 -0.0904 0.2144
C17B C -0.2563(5) -0.2847(4) 0.3085(4)
H16B H -0.2496 -0.3035 0.2566
H17B H -0.3156 -0.2500 0.3012
H18B H -0.2602 -0.3357 0.3411
C18B C -0.1689(5) -0.2304(4) 0.3499(4)
C19B C -0.0349(5) -0.1801(4) 0.4344(4)
C20B C 0.0494(5) -0.1660(5) 0.4974(5)
H19B H 0.0678 -0.2052 0.5408
C21B C 0.1053(6) -0.0910(5) 0.4934(6)
H20B H 0.1608 -0.0786 0.5360
C22B C 0.0802(7) -0.0341(5) 0.4271(7)
H21B H 0.1207 0.0144 0.4257
C23B C -0.0021(6) -0.0471(5) 0.3638(6)
H22B H -0.0191 -0.0086 0.3198
C24B C -0.0593(5) -0.1217(4) 0.3692(4)
C25B C -0.0028(4) 0.6194(3) 0.3123(3)
C26B C 0.0890(4) 0.6365(3) 0.3671(3)
C27B C 0.1457(4) 0.7057(4) 0.3515(3)
H23B H 0.2058 0.7191 0.3886
C28B C 0.1141(4) 0.7558(4) 0.2810(3)
H24B H 0.1532 0.8022 0.2713
C29B C 0.0249(4) 0.7367(3) 0.2253(3)
C30B C -0.0330(4) 0.6680(3) 0.2413(3)
H25B H -0.0928 0.6544 0.2039
C31B C -0.0745(4) 0.5534(3) 0.3307(3)
C32B C 0.1270(4) 0.5801(4) 0.4416(3)
C33B C -0.0127(4) 0.7895(3) 0.1490(3)
C34B C 0.5375(4) 0.4557(4) 0.4456(4)
H26B H 0.5640 0.4257 0.4086
C35B C 0.5813(4) 0.5356(4) 0.4773(3)
C36B C 0.4571(4) 0.4188(4) 0.4661(4)
C37B C 0.6702(4) 0.5659(4) 0.4487(3)
C38B C 0.4219(8) 0.3297(8) 0.4188(8)
Cd1B Cd -0.18987(3) 0.42757(2) 0.36976(2)
Cd1A Cd -0.18987(3) 0.07243(2) 0.86976(2)
Cd1B_2 Cd 0.81013(3) 0.42757(2) 0.36976(2)
Cd1C Cd 0.18987(3) 0.92757(2) 0.13024(2)
Cd2_2 Cd 0.11044(3) 0.36790(3) 0.49804(2)
Cd2B Cd -0.11044(3) 0.63210(3) 0.50196(2)
Cd2C Cd 0.11044(3) 0.13210(3) 0.99804(2)
Cd2B_2 Cd 0.88956(3) 0.63210(3) 0.50196(2)
Cd2A Cd -0.11044(3) 0.86790(3) 0.00196(2)
Cd2B_3 Cd -0.11044(3) -0.36790(3) 0.50196(2)
N1B N -0.3121(3) 0.3484(3) 0.2914(3)
N2B N -0.4293(3) 0.2468(3) 0.2510(3)
N3B N -0.1441(4) -0.1557(3) 0.3161(3)
N4B N -0.1051(4) -0.2482(3) 0.4208(3)
N4A N -0.1051(4) 0.7482(3) -0.0792(3)
O1B O -0.0772(3) 0.5444(2) 0.4044(2)
O1_2 O 0.0772(3) 1.4556(2) 0.5956(2)
O1A O -0.0772(3) 0.9556(2) -0.0956(2)
O2B O -0.1301(3) 0.5102(3) 0.2752(2)
O3B O 0.1255(3) 0.4982(2) 0.4328(2)
O3B_2 O 0.1255(3) 1.4982(2) 0.4328(2)
O3C O -0.1255(3) 0.9982(2) 0.0672(2)
O4B O 0.1597(4) 0.6225(3) 0.5061(2)
O5B O -0.1013(3) 0.7791(3) 0.1096(2)
O5C O 0.1013(3) 1.2791(3) 0.3904(2)
O6B O 0.0438(3) 0.8413(3) 0.1239(2)
O6A O 0.0438(3) 0.6587(3) 0.6239(2)
O6C O -0.0438(3) 1.3413(3) 0.3761(2)
O6C_2 O -0.0438(3) 0.3413(3) 0.3761(2)
O7B O 0.6895(3) 0.5247(3) 0.3917(3)
O7B_2 O -0.3105(3) 0.5247(3) 0.3917(3)
O8B O 0.7194(3) 0.6315(3) 0.4839(3)
O8_2 O 0.2806(3) 1.3685(3) 0.5161(3)
O8A O -0.2806(3) 0.8685(3) -0.0161(3)
O9B O 0.4679(8) 0.2962(8) 0.3740(7)
O10B O 0.3424(6) 0.2864(6) 0.4253(5)
C39B C 0.3007(12) 0.2100(12) 0.4208(10)
H27B H 0.3426 0.1664 0.4056
H28B H 0.2906 0.1948 0.4726
H29B H 0.2379 0.2117 0.3807
loop_
_geom_bond_atom_site_label_1
_geom_bond_atom_site_label_2
_geom_bond_site_symmetry_1
_geom_bond_site_symmetry_2
C1 H1 1_555 1_555
H2 C1 1_555 1_555
H3 C1 1_555 1_555
C2 C1 1_555 1_555
C3 C4 1_555 1_555
C4 H4 1_555 1_555
C5 C4 1_555 1_555
H5 C5 1_555 1_555
C6 C5 1_555 1_555
H6 C6 1_555 1_555
C7 C6 1_555 1_555
H7 C7 1_555 1_555
C8 C3 1_555 1_555
C9 H8 1_555 1_555
H9 C9 1_555 1_555
C10 C9 1_555 1_555
C11 C10 1_555 1_555
H10 C11 1_555 1_555
C12 C11 1_555 1_555
H11 C12 1_555 1_555
C13 C12 1_555 1_555
C14 C13 1_555 1_555
H12 C14 1_555 1_555
C15 C10 1_555 1_555
H13 C15 1_555 1_555
C16 C13 1_555 1_555
H14 C16 1_555 1_555
H15 C16 1_555 1_555
C17 H16 1_555 1_555
H17 C17 1_555 1_555
H18 C17 1_555 1_555
C18 C17 1_555 1_555
C19 C20 1_555 1_555
C20 H19 1_555 1_555
C21 C20 1_555 1_555
H20 C21 1_555 1_555
C22 C21 1_555 1_555
H21 C22 1_555 1_555
C23 C22 1_555 1_555
H22 C23 1_555 1_555
C24 C19 1_555 1_555
C25 C26 1_555 1_555
C26 C27 1_555 1_555
C27 H23 1_555 1_555
C28 C27 1_555 1_555
H24 C28 1_555 1_555
C29 C28 1_555 1_555
C30 C25 1_555 1_555
H25 C30 1_555 1_555
C31 C25 1_555 1_555
C32 C26 1_555 1_555
C33 C29 1_555 1_555
C34 H26 1_555 1_555
C35 C34 1_555 1_555
C36 C34 1_555 1_555
C37 C35 1_555 1_555
C38 C36 1_555 1_555
Cd1 N1 1_555 1_555
Cd2 N4 1_555 1_555
N1 C2 1_555 1_555
N2 C2 1_555 1_555
N3 C16 1_555 1_555
N4 C18 1_555 1_555
O1 C31 1_555 1_555
O2 C31 1_555 1_555
O3 C32 1_555 1_555
O4 C32 1_555 1_555
O5 C33 1_555 1_555
O6 C33 1_555 1_555
O7 C37 1_555 1_555
O8 C37 1_555 1_555
O9 C38 1_555 1_555
O10 C38 1_555 1_555
C39 O10 1_555 1_555
H27 C39 1_555 1_555
H28 C39 1_555 1_555
H29 C39 1_555 1_555
C1B H1B 1_555 1_555
H2B C1B 1_555 1_555
H3B C1B 1_555 1_555
C2B C1B 1_555 1_555
C3B C4B 1_555 1_555
C4B H4B 1_555 1_555
C5B C4B 1_555 1_555
H5B C5B 1_555 1_555
C6B C5B 1_555 1_555
H6B C6B 1_555 1_555
C7B C6B 1_555 1_555
H7B C7B 1_555 1_555
C8B C3B 1_555 1_555
C9B H8B 1_555 1_555
H9B C9B 1_555 1_555
C10B C9B 1_555 1_555
C11B C10B 1_555 1_555
H10B C11B 1_555 1_555
C12B C11B 1_555 1_555
H11B C12B 1_555 1_555
C13B C12B 1_555 1_555
C14B C13B 1_555 1_555
H12B C14B 1_555 1_555
C15B C10B 1_555 1_555
H13B C15B 1_555 1_555
C16B C13B 1_555 1_555
H14B C16B 1_555 1_555
H15B C16B 1_555 1_555
C17B H16B 1_555 1_555
H17B C17B 1_555 1_555
H18B C17B 1_555 1_555
C18B C17B 1_555 1_555
C19B C20B 1_555 1_555
C20B H19B 1_555 1_555
C21B C20B 1_555 1_555
H20B C21B 1_555 1_555
C22B C21B 1_555 1_555
H21B C22B 1_555 1_555
C23B C22B 1_555 1_555
H22B C23B 1_555 1_555
C24B C19B 1_555 1_555
C25B C26B 1_555 1_555
C26B C27B 1_555 1_555
C27B H23B 1_555 1_555
C28B C27B 1_555 1_555
H24B C28B 1_555 1_555
C29B C28B 1_555 1_555
C30B C25B 1_555 1_555
H25B C30B 1_555 1_555
C31B C25B 1_555 1_555
C32B C26B 1_555 1_555
C33B C29B 1_555 1_555
C34B H26B 1_555 1_555
C35B C36 1_555 1_555
C36B C35 1_555 1_555
C37B C35B 1_555 1_555
C38B C36B 1_555 1_555
Cd1B O4 1_555 1_555
Cd1A O6 1_555 1_555
Cd1B_2 O7B 1_555 1_555
Cd1C O6B 1_555 1_555
Cd2_2 O1 1_555 1_555
Cd2B O3 1_555 1_555
Cd2C O5 1_555 1_555
Cd2B_2 O8B 1_555 1_555
Cd2A N4A 1_555 1_555
Cd2B_3 N4B 1_555 1_555
N1B C2B 1_555 1_555
N2B C2B 1_555 1_555
N3B C16B 1_555 1_555
N4B C18B 1_555 1_555
O1B C31B 1_555 1_555
O1_2 Cd2 1_555 1_555
O1A Cd2A 1_555 1_555
O2B C31B 1_555 1_555
O3B C32B 1_555 1_555
O3B_2 Cd2 1_555 1_555
O3C Cd2A 1_555 1_555
O4B Cd1 1_555 1_555
O5B C33B 1_555 1_555
O5C Cd2 1_555 1_555
O6B C33B 1_555 1_555
O6A Cd1 1_555 1_555
O6C Cd2 1_555 1_555
O6C_2 Cd1B 1_555 1_555
O7B C37B 1_555 1_555
O7B_2 Cd1B 1_555 1_555
O8B C37B 1_555 1_555
O8_2 Cd2 1_555 1_555
O8A Cd2A 1_555 1_555
O9B C38B 1_555 1_555
O10B C38B 1_555 1_555
C39B O10B 1_555 1_555
H27B C39B 1_555 1_555
H28B C39B 1_555 1_555
H29B C39B 1_555 1_555
C3 N1 1_555 1_555
C7 C8 1_555 1_555
C8 N2 1_555 1_555
C9 N2 1_555 1_555
C14 C15 1_555 1_555
C18 N3 1_555 1_555
C19 N4 1_555 1_555
C23 C24 1_555 1_555
C24 N3 1_555 1_555
C29 C30 1_555 1_555
Cd1 O1 1_555 1_555
Cd1 O2 1_555 1_555
Cd1 O7 1_555 1_555
O6 Cd2C 1_555 1_555
O8 Cd2_2 1_555 1_555
C3B N1B 1_555 1_555
C7B C8B 1_555 1_555
C8B N2B 1_555 1_555
C9B N2B 1_555 1_555
C14B C15B 1_555 1_555
C18B N3B 1_555 1_555
C19B N4B 1_555 1_555
C23B C24B 1_555 1_555
C24B N3B 1_555 1_555
C29B C30B 1_555 1_555
C32B O4B 1_555 1_555
C34B C35B 1_555 1_555
C34B C36B 1_555 1_555
Cd1B N1B 1_555 1_555
Cd1B O1B 1_555 1_555
Cd1B O2B 1_555 1_555
Cd2_2 O3B 1_555 1_555
Cd2_2 O6C_2 1_555 1_555
Cd2B O1B 1_555 1_555
Cd2B O6A 1_555 1_555
Cd2A O5B 1_555 1_555
Cd2A O6B 1_555 1_555

#END
