
#######################################################################
#
#                 Cambridge Crystallographic Data Centre
#                                CCDC 
#
#######################################################################
#
# If this CIF has been generated from an entry in the Cambridge 
# Structural Database, then it will include bibliographic, chemical, 
# crystal, experimental, refinement or atomic coordinate data resulting 
# from the CCDC's data processing and validation procedures.
#
#######################################################################

data_UBOFIC
_symmetry_cell_setting           monoclinic
_symmetry_space_group_name_H-M   'C 2/c'
_symmetry_Int_Tables_number      15
_space_group_name_Hall           '-C 2yn'
loop_
_symmetry_equiv_pos_site_id
_symmetry_equiv_pos_as_xyz
1 x,y,z
2 -x,y,1/2-z
3 1/2+x,1/2+y,z
4 1/2-x,1/2+y,1/2-z
5 -x,-y,-z
6 x,-y,1/2+z
7 1/2-x,1/2-y,-z
8 1/2+x,1/2-y,1/2+z
_cell_length_a                   22.289(4)
_cell_length_b                   9.918(2)
_cell_length_c                   17.866(4)
_cell_angle_alpha                90
_cell_angle_beta                 123.07(3)
_cell_angle_gamma                90
_cell_volume                     3309.7
loop_
_atom_site_label
_atom_site_type_symbol
_atom_site_fract_x
_atom_site_fract_y
_atom_site_fract_z
C1 C 0.0779(3) 0.3349(5) 0.4224(3)
H1 H 0.0295 0.3158 0.3747
H2 H 0.0805 0.4248 0.4440
H3 H 0.0926 0.2717 0.4701
C2 C 0.1230(2) 0.3243(3) 0.3911(2)
C3 C 0.15809(17) 0.2724(3) 0.3133(2)
C4 C 0.1655(2) 0.2194(4) 0.2538(2)
H4 H 0.1321 0.1625 0.2088
C5 C 0.2306(3) 0.2579(5) 0.2646(3)
H5 H 0.2390 0.2236 0.2226
C6 C 0.2864(3) 0.3440(6) 0.3328(4)
H6 H 0.3267 0.3626 0.3314
C7 C 0.2813(2) 0.3938(4) 0.3936(3)
H7 H 0.3159 0.4479 0.4395
C8 C 0.21579(19) 0.3564(3) 0.3825(2)
C9 C 0.2395(3) 0.4616(3) 0.5155(2)
H8 H 0.2875 0.4249 0.5445
H9 H 0.2228 0.4460 0.5548
C10 C 0.2431(2) 0.6121(3) 0.5047(2)
C11 C 0.1929(2) 0.6802(4) 0.4253(2)
H10 H 0.1558 0.6333 0.3770
C12 C 0.3003(2) 0.6821(3) 0.5793(2)
H11 H 0.3330 0.6353 0.6310
C13 C 0.0015(2) -0.0774(3) 0.3552(2)
C14 C 0.0015(2) -0.2023(3) 0.3992(2)
C15 C -0.0575(2) -0.2951(4) 0.3511(3)
H12 H -0.0949 -0.2754 0.2931
C16 C -0.0581(2) -0.4101(4) 0.3903(3)
H13 H -0.0959 -0.4706 0.3601
C17 C -0.0001(2) -0.4376(3) 0.4788(2)
C18 C 0.0601(3) -0.3460(5) 0.5266(3)
H14 H 0.0982 -0.3670 0.5840
C19 C 0.0605(3) -0.2304(5) 0.4873(3)
H15 H 0.0985 -0.1702 0.5171
Cd1 Cd 0.0000 0.10274(3) 0.2500
N1 N 0.09982(14) 0.2539(2) 0.31971(17)
N2 N 0.19217(18) 0.3865(2) 0.43075(19)
O1 O -0.05688(15) -0.0562(3) 0.27601(18)
O2 O 0.05835(17) -0.0002(3) 0.39746(17)
C1F C 0.4221(3) 1.1651(5) 0.5776(3)
H1F H 0.4705 1.1842 0.6253
H2F H 0.4195 1.0752 0.5560
H3F H 0.4074 1.2283 0.5299
C2F C 0.3770(2) 1.1757(3) 0.6089(2)
C3F C 0.34191(17) 1.2276(3) 0.6867(2)
C4F C 0.3345(2) 1.2806(4) 0.7462(2)
H4F H 0.3679 1.3375 0.7912
C5F C 0.2694(3) 1.2421(5) 0.7354(3)
H5F H 0.2610 1.2764 0.7774
C6F C 0.2136(3) 1.1560(6) 0.6672(4)
H6F H 0.1733 1.1374 0.6686
C7F C 0.2187(2) 1.1062(4) 0.6064(3)
H7F H 0.1841 1.0521 0.5605
C8F C 0.28421(19) 1.1436(3) 0.6175(2)
C9F C 0.2605(3) 1.0384(3) 0.4845(2)
H8F H 0.2125 1.0751 0.4555
H9F H 0.2772 1.0540 0.4452
C10F C 0.2569(2) 0.8879(3) 0.4953(2)
C11F C 0.3071(2) 0.8198(4) 0.5747(2)
H10F H 0.3442 0.8667 0.6230
C12F C 0.1997(2) 0.8179(3) 0.4207(2)
H11F H 0.1670 0.8647 0.3690
C13D C -0.0015(2) -0.9226(3) 0.6448(2)
C14D C -0.0015(2) -0.7977(3) 0.6008(2)
C15D C 0.0575(2) -0.7049(4) 0.6489(3)
H12D H 0.0949 -0.7246 0.7069
C16D C 0.0581(2) -0.5899(4) 0.6097(3)
H13D H 0.0959 -0.5294 0.6399
C17D C 0.0001(2) -0.5624(3) 0.5212(2)
C18D C -0.0601(3) -0.6540(5) 0.4734(3)
H14D H -0.0982 -0.6330 0.4160
C19D C -0.0605(3) -0.7696(5) 0.5127(3)
H15D H -0.0985 -0.8298 0.4829
Cd1F Cd 0.5000 1.39726(3) 0.7500
Cd1D Cd 0.0000 -1.10274(3) 0.7500
N1F N 0.40018(14) 1.2461(2) 0.68029(17)
N1A N -0.09982(14) 0.2539(2) 0.18029(17)
N2F N 0.30783(18) 1.1135(2) 0.56925(19)
O1D O 0.05688(15) -0.9438(3) 0.72399(18)
O1A O 0.05688(15) -0.0562(3) 0.22399(18)
O2D O -0.05835(17) -0.9998(3) 0.60254(17)
O2A O -0.05835(17) -0.0002(3) 0.10254(17)
loop_
_geom_bond_atom_site_label_1
_geom_bond_atom_site_label_2
_geom_bond_site_symmetry_1
_geom_bond_site_symmetry_2
C1 H1 1_555 1_555
H2 C1 1_555 1_555
H3 C1 1_555 1_555
C2 C1 1_555 1_555
C3 C4 1_555 1_555
C4 H4 1_555 1_555
C5 C4 1_555 1_555
H5 C5 1_555 1_555
C6 C5 1_555 1_555
H6 C6 1_555 1_555
C7 C6 1_555 1_555
H7 C7 1_555 1_555
C8 C3 1_555 1_555
C9 H8 1_555 1_555
H9 C9 1_555 1_555
C10 C9 1_555 1_555
C11 C10 1_555 1_555
H10 C11 1_555 1_555
C12 C10 1_555 1_555
H11 C12 1_555 1_555
C13 C14 1_555 1_555
C14 C15 1_555 1_555
C15 H12 1_555 1_555
C16 C15 1_555 1_555
H13 C16 1_555 1_555
C17 C16 1_555 1_555
C18 C17 1_555 1_555
H14 C18 1_555 1_555
C19 C14 1_555 1_555
H15 C19 1_555 1_555
Cd1 N1 1_555 1_555
N1 C2 1_555 1_555
N2 C2 1_555 1_555
O1 C13 1_555 1_555
O2 C13 1_555 1_555
C1F H1F 1_555 1_555
H2F C1F 1_555 1_555
H3F C1F 1_555 1_555
C2F C1F 1_555 1_555
C3F C4F 1_555 1_555
C4F H4F 1_555 1_555
C5F C4F 1_555 1_555
H5F C5F 1_555 1_555
C6F C5F 1_555 1_555
H6F C6F 1_555 1_555
C7F C6F 1_555 1_555
H7F C7F 1_555 1_555
C8F C3F 1_555 1_555
C9F H8F 1_555 1_555
H9F C9F 1_555 1_555
C10F C9F 1_555 1_555
C11F C12 1_555 1_555
H10F C11F 1_555 1_555
C12F C11 1_555 1_555
H11F C12F 1_555 1_555
C13D C14D 1_555 1_555
C14D C15D 1_555 1_555
C15D H12D 1_555 1_555
C16D C15D 1_555 1_555
H13D C16D 1_555 1_555
C17D C17 1_555 1_555
C18D C17D 1_555 1_555
H14D C18D 1_555 1_555
C19D C14D 1_555 1_555
H15D C19D 1_555 1_555
Cd1F N1F 1_555 1_555
Cd1D O1D 1_555 1_555
N1F C2F 1_555 1_555
N1A Cd1 1_555 1_555
N2F C2F 1_555 1_555
O1D C13D 1_555 1_555
O1A Cd1 1_555 1_555
O2D C13D 1_555 1_555
O2A Cd1 1_555 1_555
C3 N1 1_555 1_555
C7 C8 1_555 1_555
C8 N2 1_555 1_555
C9 N2 1_555 1_555
C18 C19 1_555 1_555
Cd1 O1 1_555 1_555
Cd1 O2 1_555 1_555
C3F N1F 1_555 1_555
C7F C8F 1_555 1_555
C8F N2F 1_555 1_555
C9F N2F 1_555 1_555
C10F C11F 1_555 1_555
C10F C12F 1_555 1_555
C16D C17D 1_555 1_555
C18D C19D 1_555 1_555
Cd1D O2D 1_555 1_555

#END
