
#######################################################################
#
#                 Cambridge Crystallographic Data Centre
#                                CCDC 
#
#######################################################################
#
# If this CIF has been generated from an entry in the Cambridge 
# Structural Database, then it will include bibliographic, chemical, 
# crystal, experimental, refinement or atomic coordinate data resulting 
# from the CCDC's data processing and validation procedures.
#
#######################################################################

data_UBOFEY
_symmetry_cell_setting           monoclinic
_symmetry_space_group_name_H-M   'P 21/c'
_symmetry_Int_Tables_number      14
_space_group_name_Hall           '-P 2ybc'
loop_
_symmetry_equiv_pos_site_id
_symmetry_equiv_pos_as_xyz
1 x,y,z
2 -x,1/2+y,1/2-z
3 -x,-y,-z
4 x,1/2-y,1/2+z
_cell_length_a                   11.941(2)
_cell_length_b                   13.800(3)
_cell_length_c                   14.351(3)
_cell_angle_alpha                90
_cell_angle_beta                 97.81(3)
_cell_angle_gamma                90
_cell_volume                     2342.91
loop_
_atom_site_label
_atom_site_type_symbol
_atom_site_fract_x
_atom_site_fract_y
_atom_site_fract_z
O1 O -1.3299(2) 0.40090(19) 0.07625(17)
O2 O -1.4179(2) 0.5099(2) 0.15637(18)
C1 C -1.3427(3) 0.4478(3) 0.1494(3)
C2 C -1.2606(3) 0.4271(2) 0.2359(2)
C3 C -1.2639(3) 0.4804(3) 0.3174(2)
H1 H -1.3167 0.5298 0.3183
C4 C -1.1892(3) 0.4605(3) 0.3973(2)
H2 H -1.1901 0.4976 0.4513
C5 C -1.1816(3) 0.3537(2) 0.2364(2)
H3 H -1.1779 0.3185 0.1816
C6 C -1.1084(3) 0.3314(2) 0.3161(2)
H4 H -1.0567 0.2811 0.3160
C7 C -1.1134(3) 0.3856(3) 0.3963(2)
O3 O -0.5657(2) 0.18157(18) 0.4690(2)
O4 O -0.6409(2) 0.07498(19) 0.5589(2)
Cd1 Cd -0.437700(18) 0.073370(16) 0.441260(15)
N1 N -0.3445(2) 0.1399(2) 0.33332(18)
C8 C -0.4292(3) 0.0744(2) 0.0401(2)
O5 O -1.0487(2) 0.3669(2) 0.48191(16)
C9 C -0.1478(3) 0.0786(3) 0.3912(3)
H5 H -0.1570 0.0749 0.4544
N2 N -0.3220(2) 0.1490(2) 0.18230(18)
C10 C -0.2203(3) 0.1129(2) 0.2288(2)
C11 C -0.4879(3) 0.0835(3) -0.0483(2)
H6 H -0.4806 0.1401 -0.0821
C12 C -0.2353(3) 0.1080(2) 0.3235(2)
C13 C -0.1191(3) 0.0881(3) 0.1982(3)
H7 H -0.1101 0.0906 0.1349
C14 C -0.9491(3) 0.3142(3) 0.4863(2)
C15 C -0.7492(3) 0.2115(2) 0.5060(2)
C16 C -0.6439(3) 0.1514(3) 0.5120(3)
C17 C -0.3922(3) 0.1639(2) 0.2475(2)
C18 C -0.8682(3) 0.3364(3) 0.4293(3)
H8 H -0.8810 0.3853 0.3846
C19 C -0.3538(3) 0.1565(3) 0.0806(2)
H9 H -0.3928 0.2175 0.0663
H10 H -0.2858 0.1571 0.0505
C20 C -0.8310(3) 0.1927(3) 0.5630(3)
H11 H -0.8184 0.1446 0.6087
C21 C -0.4427(3) -0.0108(3) 0.0880(3)
H12 H -0.4041 -0.0191 0.1483
C22 C -0.9306(3) 0.2438(3) 0.5532(3)
H13 H -0.9851 0.2305 0.5919
C23 C -0.0462(3) 0.0552(3) 0.3607(3)
H14 H 0.0145 0.0360 0.4044
C24 C -0.0328(3) 0.0597(3) 0.2657(3)
H15 H 0.0365 0.0430 0.2477
C25 C -0.5071(3) 0.2063(3) 0.2250(3)
H16 H -0.5009 0.2742 0.2121
H17 H -0.5465 0.1744 0.1707
H18 H -0.5481 0.1976 0.2775
C26 C -0.7684(3) 0.2850(3) 0.4397(3)
H19 H -0.7133 0.2997 0.4020
O1C O -0.3299(2) 0.09910(19) 0.57625(17)
O1A O -0.6701(2) -0.09910(19) -0.57625(17)
O2A O -0.5821(2) 0.0099(2) 0.34363(18)
O2C O -0.4179(2) -0.0099(2) -0.34363(18)
O2A_2 O -0.5821(2) 0.0099(2) -0.65637(18)
C1A C -0.6573(3) -0.0522(3) -0.6494(3)
C2A C -0.7394(3) -0.0729(2) -0.7359(2)
C3A C -0.7361(3) -0.0196(3) -0.8174(2)
H1A H -0.6833 0.0298 -0.8183
C4A C -0.8108(3) -0.0395(3) -0.8973(2)
H2A H -0.8099 -0.0024 -0.9513
C5A C -0.8184(3) -0.1463(2) -0.7364(2)
H3A H -0.8221 -0.1815 -0.6816
C6A C -0.8916(3) -0.1686(2) -0.8161(2)
H4A H -0.9433 -0.2189 -0.8160
C7A C -0.8866(3) -0.1144(3) -0.8963(2)
O3B O -0.4343(2) -0.18157(18) -0.4690(2)
O3A O -1.4343(2) -0.31843(18) -0.9690(2)
O4B O -0.3591(2) -0.07498(19) 0.4411(2)
O4_2 O -0.6409(2) 0.07498(19) -0.4411(2)
O4A O -1.3591(2) -0.42502(19) -1.0589(2)
Cd1B Cd -0.562300(18) -0.073370(16) 0.558740(15)
Cd1C Cd -1.437700(18) 0.426630(16) -0.058740(15)
Cd1A Cd -1.562300(18) 0.573370(16) 0.058740(15)
Cd1B_2 Cd -0.562300(18) -0.073370(16) -0.441260(15)
Cd1_2 Cd -0.437700(18) 0.073370(16) -0.558740(15)
Cd1A_2 Cd -1.562300(18) -0.426630(16) -0.941260(15)
Cd1C_2 Cd -1.437700(18) -0.573370(16) -1.058740(15)
N1B N -0.6555(2) -0.1399(2) -0.33332(18)
C8B C -0.5708(3) -0.0744(2) -0.0401(2)
O5A O -0.9513(2) -0.1331(2) -0.98191(16)
C9B C -0.8522(3) -0.0786(3) -0.3912(3)
H5B H -0.8430 -0.0749 -0.4544
N2B N -0.6780(2) -0.1490(2) -0.18230(18)
C10B C -0.7797(3) -0.1129(2) -0.2288(2)
C11B C -0.5121(3) -0.0835(3) 0.0483(2)
H6B H -0.5194 -0.1401 0.0821
C12B C -0.7647(3) -0.1080(2) -0.3235(2)
C13B C -0.8809(3) -0.0881(3) -0.1982(3)
H7B H -0.8899 -0.0906 -0.1349
C14A C -1.0509(3) -0.1858(3) -0.9863(2)
C15A C -1.2508(3) -0.2885(2) -1.0060(2)
C16A C -1.3561(3) -0.3486(3) -1.0120(3)
C17B C -0.6078(3) -0.1639(2) -0.2475(2)
C18A C -1.1318(3) -0.1636(3) -0.9293(3)
H8A H -1.1190 -0.1147 -0.8846
C19B C -0.6462(3) -0.1565(3) -0.0806(2)
H9B H -0.6072 -0.2175 -0.0663
H10B H -0.7142 -0.1571 -0.0505
C20A C -1.1690(3) -0.3073(3) -1.0630(3)
H11A H -1.1816 -0.3554 -1.1087
C21B C -0.5573(3) 0.0108(3) -0.0880(3)
H12B H -0.5959 0.0191 -0.1483
C22A C -1.0694(3) -0.2562(3) -1.0532(3)
H13A H -1.0149 -0.2695 -1.0919
C23B C -0.9538(3) -0.0552(3) -0.3607(3)
H14B H -1.0145 -0.0360 -0.4044
C24B C -0.9672(3) -0.0597(3) -0.2657(3)
H15B H -1.0365 -0.0430 -0.2477
C25B C -0.4929(3) -0.2063(3) -0.2250(3)
H16B H -0.4991 -0.2742 -0.2121
H17B H -0.4535 -0.1744 -0.1707
H18B H -0.4519 -0.1976 -0.2775
C26A C -1.2316(3) -0.2150(3) -0.9397(3)
H19A H -1.2867 -0.2003 -0.9020
loop_
_geom_bond_atom_site_label_1
_geom_bond_atom_site_label_2
_geom_bond_site_symmetry_1
_geom_bond_site_symmetry_2
O1 C1 1_555 1_555
O2 C1 1_555 1_555
C1 C2 1_555 1_555
C2 C3 1_555 1_555
C3 H1 1_555 1_555
C4 C3 1_555 1_555
H2 C4 1_555 1_555
C5 C2 1_555 1_555
H3 C5 1_555 1_555
C6 C5 1_555 1_555
H4 C6 1_555 1_555
C7 C4 1_555 1_555
O3 Cd1 1_555 1_555
O4 C16 1_555 1_555
Cd1 N1 1_555 1_555
N1 C12 1_555 1_555
C8 C11 1_555 1_555
O5 C7 1_555 1_555
C9 H5 1_555 1_555
N2 C10 1_555 1_555
C10 C12 1_555 1_555
C11 H6 1_555 1_555
C12 C9 1_555 1_555
C13 C10 1_555 1_555
H7 C13 1_555 1_555
C14 O5 1_555 1_555
C15 C16 1_555 1_555
C16 O3 1_555 1_555
C17 N1 1_555 1_555
C18 C14 1_555 1_555
H8 C18 1_555 1_555
C19 C8 1_555 1_555
H9 C19 1_555 1_555
H10 C19 1_555 1_555
C20 C15 1_555 1_555
H11 C20 1_555 1_555
C21 C8 1_555 1_555
H12 C21 1_555 1_555
C22 C14 1_555 1_555
H13 C22 1_555 1_555
C23 C9 1_555 1_555
H14 C23 1_555 1_555
C24 C13 1_555 1_555
H15 C24 1_555 1_555
C25 C17 1_555 1_555
H16 C25 1_555 1_555
H17 C25 1_555 1_555
H18 C25 1_555 1_555
C26 C15 1_555 1_555
H19 C26 1_555 1_555
O1C Cd1 1_555 1_555
O1A C1A 1_555 1_555
O2A Cd1 1_555 1_555
O2C Cd1B_2 1_555 1_555
O2A_2 C1A 1_555 1_555
C1A C2A 1_555 1_555
C2A C3A 1_555 1_555
C3A H1A 1_555 1_555
C4A C3A 1_555 1_555
H2A C4A 1_555 1_555
C5A C2A 1_555 1_555
H3A C5A 1_555 1_555
C6A C5A 1_555 1_555
H4A C6A 1_555 1_555
C7A C4A 1_555 1_555
O3B Cd1B_2 1_555 1_555
O3A Cd1A_2 1_555 1_555
O4B Cd1 1_555 1_555
O4_2 Cd1B_2 1_555 1_555
O4A Cd1C_2 1_555 1_555
Cd1B O4 1_555 1_555
Cd1C O1 1_555 1_555
Cd1A O2 1_555 1_555
Cd1B_2 O1A 1_555 1_555
Cd1_2 O2A_2 1_555 1_555
N1B Cd1B_2 1_555 1_555
C8B C11B 1_555 1_555
O5A C7A 1_555 1_555
C9B H5B 1_555 1_555
N2B C10B 1_555 1_555
C10B C12B 1_555 1_555
C11B C21 1_555 1_555
H6B C11B 1_555 1_555
C12B N1B 1_555 1_555
C13B C10B 1_555 1_555
H7B C13B 1_555 1_555
C14A O5A 1_555 1_555
C15A C16A 1_555 1_555
C16A O3A 1_555 1_555
C17B N1B 1_555 1_555
C18A C14A 1_555 1_555
H8A C18A 1_555 1_555
C19B C8B 1_555 1_555
H9B C19B 1_555 1_555
H10B C19B 1_555 1_555
C20A C15A 1_555 1_555
H11A C20A 1_555 1_555
C21B C11 1_555 1_555
H12B C21B 1_555 1_555
C22A C14A 1_555 1_555
H13A C22A 1_555 1_555
C23B C9B 1_555 1_555
H14B C23B 1_555 1_555
C24B C13B 1_555 1_555
H15B C24B 1_555 1_555
C25B C17B 1_555 1_555
H16B C25B 1_555 1_555
H17B C25B 1_555 1_555
H18B C25B 1_555 1_555
C26A C15A 1_555 1_555
H19A C26A 1_555 1_555
C6 C7 1_555 1_555
N2 C17 1_555 1_555
N2 C19 1_555 1_555
C18 C26 1_555 1_555
C20 C22 1_555 1_555
C23 C24 1_555 1_555
C6A C7A 1_555 1_555
O4A C16A 1_555 1_555
C8B C21B 1_555 1_555
C9B C12B 1_555 1_555
N2B C17B 1_555 1_555
N2B C19B 1_555 1_555
C18A C26A 1_555 1_555
C20A C22A 1_555 1_555
C23B C24B 1_555 1_555

#END
