
#######################################################################
#
#                 Cambridge Crystallographic Data Centre
#                                CCDC 
#
#######################################################################
#
# If this CIF has been generated from an entry in the Cambridge 
# Structural Database, then it will include bibliographic, chemical, 
# crystal, experimental, refinement or atomic coordinate data resulting 
# from the CCDC's data processing and validation procedures.
#
#######################################################################

data_UBOGOJ
_symmetry_cell_setting           monoclinic
_symmetry_space_group_name_H-M   'C 2/c'
_symmetry_Int_Tables_number      15
_space_group_name_Hall           '-C 2yn'
loop_
_symmetry_equiv_pos_site_id
_symmetry_equiv_pos_as_xyz
1 x,y,z
2 -x,y,1/2-z
3 1/2+x,1/2+y,z
4 1/2-x,1/2+y,1/2-z
5 -x,-y,-z
6 x,-y,1/2+z
7 1/2-x,1/2-y,-z
8 1/2+x,1/2-y,1/2+z
_cell_length_a                   24.754(2)
_cell_length_b                   9.8619(8)
_cell_length_c                   13.4074(11)
_cell_angle_alpha                90
_cell_angle_beta                 96.983(2)
_cell_angle_gamma                90
_cell_volume                     3248.76
loop_
_atom_site_label
_atom_site_type_symbol
_atom_site_fract_x
_atom_site_fract_y
_atom_site_fract_z
Pb1 Pb 0.157239(5) 0.315523(13) 0.466412(10)
O1 O 0.20970(13) 0.5375(3) 0.4744(3)
O2 O 0.12877(10) 0.5341(3) 0.5237(2)
O3 O 0.10398(10) 0.3787(3) 0.3225(2)
O4 O 0.10937(13) 0.1557(3) 0.3099(2)
N1 N 0.24221(12) 0.2944(3) 0.3489(2)
N2 N 0.56293(12) 0.2342(3) 0.0395(2)
C1 C 0.27716(14) 0.3942(4) 0.3357(3)
H1 H 0.2690 0.4825 0.3579
C2 C 0.32426(14) 0.3772(4) 0.2919(3)
H2 H 0.3474 0.4524 0.2841
C3 C 0.33775(14) 0.2482(4) 0.2589(3)
C4 C 0.30212(14) 0.1425(4) 0.2760(3)
H3 H 0.3102 0.0522 0.2582
C5 C 0.25514(15) 0.1700(4) 0.3191(3)
H4 H 0.2310 0.0973 0.3278
C6 C 0.38634(14) 0.2186(4) 0.2113(3)
H5 H 0.3949 0.1260 0.2014
C7 C 0.41954(14) 0.3118(3) 0.1806(3)
H6 H 0.4110 0.4044 0.1906
C8 C 0.54699(15) 0.3593(4) 0.0593(3)
H7 H 0.5682 0.4335 0.0409
C9 C 0.50094(14) 0.3866(4) 0.1055(3)
H8 H 0.4917 0.4778 0.1187
C10 C 0.46834(14) 0.2817(4) 0.1326(3)
C11 C 0.48522(14) 0.1504(4) 0.1119(3)
H9 H 0.4646 0.0742 0.1284
C12 C 0.53199(14) 0.1326(4) 0.0674(3)
H10 H 0.5431 0.0423 0.0557
C13 C 0.17287(16) 0.5947(4) 0.5150(3)
C14 C 0.1809(2) 0.7371(5) 0.5545(4)
H11 H 0.1937 0.7343 0.6266
H12 H 0.1464 0.7864 0.5435
H13 H 0.2081 0.7834 0.5191
C15 C 0.09219(14) 0.2664(4) 0.2758(3)
C16 C 0.05716(17) 0.2766(5) 0.1768(3)
H14 H 0.0779 0.3191 0.1274
H15 H 0.0250 0.3318 0.1845
H16 H 0.0457 0.1857 0.1536
Pb1G Pb 0.657239(5) 0.184477(13) -0.033588(10)
N2G N 0.06293(12) 0.2658(3) 0.5395(2)
O5 O 0.3395(6) 0.495(2) 0.5357(13)
H17 H 0.3050(17) 0.49(3) 0.519(14)
H18 H 0.346(8) 0.52(3) 0.598(6)
loop_
_geom_bond_atom_site_label_1
_geom_bond_atom_site_label_2
_geom_bond_site_symmetry_1
_geom_bond_site_symmetry_2
Pb1 O1 1_555 1_555
O1 C13 1_555 1_555
O2 Pb1 1_555 1_555
O3 Pb1 1_555 1_555
O4 Pb1 1_555 1_555
N1 Pb1 1_555 1_555
N2 C8 1_555 1_555
C1 N1 1_555 1_555
H1 C1 1_555 1_555
C2 C1 1_555 1_555
H2 C2 1_555 1_555
C3 C2 1_555 1_555
C4 C3 1_555 1_555
H3 C4 1_555 1_555
C5 N1 1_555 1_555
H4 C5 1_555 1_555
C6 C3 1_555 1_555
H5 C6 1_555 1_555
C7 C6 1_555 1_555
H6 C7 1_555 1_555
C8 H7 1_555 1_555
C9 C8 1_555 1_555
H8 C9 1_555 1_555
C10 C7 1_555 1_555
C11 C10 1_555 1_555
H9 C11 1_555 1_555
C12 N2 1_555 1_555
H10 C12 1_555 1_555
C13 O2 1_555 1_555
C14 C13 1_555 1_555
H11 C14 1_555 1_555
H12 C14 1_555 1_555
H13 C14 1_555 1_555
C15 O3 1_555 1_555
C16 C15 1_555 1_555
H14 C16 1_555 1_555
H15 C16 1_555 1_555
H16 C16 1_555 1_555
O5 H17 1_555 1_555
H18 O5 1_555 1_555
Pb1G N2 1_555 1_555
N2G Pb1 1_555 1_555
O4 C15 1_555 1_555
C4 C5 1_555 1_555
C9 C10 1_555 1_555
C11 C12 1_555 1_555

#END
