
#######################################################################
#
#                 Cambridge Crystallographic Data Centre
#                                CCDC 
#
#######################################################################
#
# If this CIF has been generated from an entry in the Cambridge 
# Structural Database, then it will include bibliographic, chemical, 
# crystal, experimental, refinement or atomic coordinate data resulting 
# from the CCDC's data processing and validation procedures.
#
#######################################################################

data_UBOPUW
_symmetry_cell_setting           triclinic
_symmetry_space_group_name_H-M   'P -1'
_symmetry_Int_Tables_number      2
_space_group_name_Hall           '-P 1'
loop_
_symmetry_equiv_pos_site_id
_symmetry_equiv_pos_as_xyz
1 x,y,z
2 -x,-y,-z
_cell_length_a                   7.8433(15)
_cell_length_b                   10.5221(14)
_cell_length_c                   10.8374(12)
_cell_angle_alpha                76.796(10)
_cell_angle_beta                 77.881(12)
_cell_angle_gamma                80.354(13)
_cell_volume                     844.591
loop_
_atom_site_label
_atom_site_type_symbol
_atom_site_fract_x
_atom_site_fract_y
_atom_site_fract_z
Cu1 Cu 0.5000 0.0000 0.0000
Cu2 Cu 0.0000 0.0000 0.0000
N1 N 0.3571(3) -0.0221(3) -0.1657(3)
N2 N 0.1796(4) -0.0272(3) -0.1527(3)
N3 N 0.3054(4) -0.0722(3) -0.3378(3)
N4 N 0.3391(4) -0.1116(3) -0.4569(3)
C1 C 0.4293(4) -0.0481(3) -0.2791(3)
C2 C 0.1525(4) -0.0586(3) -0.2563(3)
N5 N 0.3288(3) 0.1588(3) 0.0298(3)
N6 N 0.1539(3) 0.1742(3) 0.0186(3)
N7 N 0.2057(4) 0.3440(3) 0.0815(3)
N8 N 0.1769(4) 0.4684(3) 0.1169(3)
C3 C 0.3563(4) 0.2621(3) 0.0687(3)
C4 C 0.0838(4) 0.2875(3) 0.0489(3)
N9 N 0.3284(4) -0.1196(3) 0.1262(3)
N10 N 0.1554(3) -0.1255(3) 0.1192(3)
N11 N 0.2304(4) -0.2785(3) 0.2767(3)
N12 N 0.2147(4) -0.3891(3) 0.3783(3)
C5 C 0.3691(4) -0.2117(3) 0.2224(3)
C6 C 0.1005(4) -0.2218(3) 0.2105(3)
H3 H 0.5560 -0.0546 -0.3151
H4 H 0.0375 -0.0710 -0.2761
H5 H 0.4626 0.2806 0.0821
H6 H -0.0470 0.3222 0.0460
H7 H 0.4730 -0.2266 0.2471
H8 H 0.0016 -0.2453 0.2257
H9 H 0.3483 -0.2038 -0.4353
H10 H 0.2670 -0.0738 -0.4939
H11 H 0.1155 0.4587 0.1923
H12 H 0.2794 0.4871 0.1246
H13 H 0.3045 -0.4340 0.3826
H14 H 0.1832 -0.3590 0.4585
N1A N 0.6429(3) 0.0221(3) 0.1657(3)
N2A N 0.8204(4) 0.0272(3) 0.1527(3)
N3A N 0.6946(4) 0.0722(3) 0.3378(3)
N4A N 0.6609(4) 0.1116(3) 0.4569(3)
C1A C 0.5707(4) 0.0481(3) 0.2791(3)
C2A C 0.8475(4) 0.0586(3) 0.2563(3)
H3A H 0.4440 0.0546 0.3151
H4A H 0.9625 0.0710 0.2761
H9A H 0.6517 0.2038 0.4353
H10A H 0.7330 0.0738 0.4939
N5A N 0.6712(3) -0.1588(3) -0.0298(3)
N6A N 0.8461(3) -0.1742(3) -0.0186(3)
N7A N 0.7943(4) -0.3440(3) -0.0815(3)
N8A N 0.8231(4) -0.4684(3) -0.1169(3)
C3A C 0.6437(4) -0.2621(3) -0.0687(3)
C4A C 0.9162(4) -0.2875(3) -0.0489(3)
H5A H 0.5374 -0.2806 -0.0821
H6A H 1.0470 -0.3222 -0.0460
H11A H 0.8845 -0.4587 -0.1923
H12A H 0.7206 -0.4871 -0.1246
N9A N 0.6716(4) 0.1196(3) -0.1262(3)
N10A N 0.8446(3) 0.1255(3) -0.1192(3)
N11A N 0.7696(4) 0.2785(3) -0.2767(3)
N12A N 0.7853(4) 0.3891(3) -0.3783(3)
C5A C 0.6309(4) 0.2117(3) -0.2224(3)
C6A C 0.8995(4) 0.2218(3) -0.2105(3)
H7A H 0.5270 0.2266 -0.2471
H8A H 0.9984 0.2453 -0.2257
H13A H 0.6955 0.4340 -0.3826
H14A H 0.8168 0.3590 -0.4585
N2A_2 N -0.1796(4) 0.0272(3) 0.1527(3)
N6A_2 N -0.1539(3) -0.1742(3) -0.0186(3)
N10A_2 N -0.1554(3) 0.1255(3) -0.1192(3)
Cu2_2 Cu 1.0000 0.0000 0.0000
O1 O 0.2894(4) 0.2923(3) 0.6604(3)
H1 H 0.2535 0.3780 0.6622
H2 H 0.2924 0.3049 0.5879
B1 B 0.1093(5) 0.2076(4) 0.4131(4)
F1 F -0.0209(3) 0.2951(2) 0.3597(2)
F2 F 0.0395(3) 0.1493(2) 0.5377(2)
F3 F 0.1692(3) 0.1083(2) 0.3406(2)
F4 F 0.2498(3) 0.2725(3) 0.4113(2)
B2 B 0.3622(6) 0.5544(4) 0.7778(4)
F5 F 0.2130(3) 0.4924(2) 0.8047(2)
F6 F 0.4925(3) 0.4702(2) 0.8377(2)
F7 F 0.3268(3) 0.6704(2) 0.8250(2)
F8 F 0.4214(3) 0.5816(3) 0.6448(2)
loop_
_geom_bond_atom_site_label_1
_geom_bond_atom_site_label_2
_geom_bond_site_symmetry_1
_geom_bond_site_symmetry_2
Cu1 N1 1_555 1_555
Cu2 N2 1_555 1_555
O1 H1 1_555 1_555
N1 N2 1_555 1_555
N2 C2 1_555 1_555
N3 N4 1_555 1_555
N4 H9 1_555 1_555
C1 N1 1_555 1_555
C2 N3 1_555 1_555
N5 Cu1 1_555 1_555
N6 Cu2 1_555 1_555
N7 N8 1_555 1_555
N8 H11 1_555 1_555
C3 N5 1_555 1_555
C4 N6 1_555 1_555
N9 Cu1 1_555 1_555
N10 Cu2 1_555 1_555
N11 N12 1_555 1_555
N12 H13 1_555 1_555
C5 N9 1_555 1_555
C6 N10 1_555 1_555
B1 F1 1_555 1_555
F2 B1 1_555 1_555
F3 B1 1_555 1_555
F4 B1 1_555 1_555
B2 F5 1_555 1_555
F6 B2 1_555 1_555
F7 B2 1_555 1_555
F8 B2 1_555 1_555
H2 O1 1_555 1_555
H3 C1 1_555 1_555
H4 C2 1_555 1_555
H5 C3 1_555 1_555
H6 C4 1_555 1_555
H7 C5 1_555 1_555
H8 C6 1_555 1_555
H10 N4 1_555 1_555
H12 N8 1_555 1_555
H14 N12 1_555 1_555
N1A Cu1 1_555 1_555
N2A N1A 1_555 1_555
N3A N4A 1_555 1_555
N4A H9A 1_555 1_555
C1A N1A 1_555 1_555
C2A N2A 1_555 1_555
H3A C1A 1_555 1_555
H4A C2A 1_555 1_555
H10A N4A 1_555 1_555
N5A Cu1 1_555 1_555
N6A N5A 1_555 1_555
N7A N8A 1_555 1_555
N8A H11A 1_555 1_555
C3A N5A 1_555 1_555
C4A N6A 1_555 1_555
H5A C3A 1_555 1_555
H6A C4A 1_555 1_555
H12A N8A 1_555 1_555
N9A Cu1 1_555 1_555
N10A N9A 1_555 1_555
N11A N12A 1_555 1_555
N12A H13A 1_555 1_555
C5A N9A 1_555 1_555
C6A N10A 1_555 1_555
H7A C5A 1_555 1_555
H8A C6A 1_555 1_555
H14A N12A 1_555 1_555
N2A_2 Cu2 1_555 1_555
N6A_2 Cu2 1_555 1_555
N10A_2 Cu2 1_555 1_555
Cu2_2 N2A 1_555 1_555
N3 C1 1_555 1_555
N5 N6 1_555 1_555
N7 C4 1_555 1_555
N7 C3 1_555 1_555
N9 N10 1_555 1_555
N11 C6 1_555 1_555
N11 C5 1_555 1_555
N3A C2A 1_555 1_555
N3A C1A 1_555 1_555
N6A Cu2_2 1_555 1_555
N7A C4A 1_555 1_555
N7A C3A 1_555 1_555
N10A Cu2_2 1_555 1_555
N11A C6A 1_555 1_555
N11A C5A 1_555 1_555

#END
