
#######################################################################
#
#                 Cambridge Crystallographic Data Centre
#                                CCDC 
#
#######################################################################
#
# If this CIF has been generated from an entry in the Cambridge 
# Structural Database, then it will include bibliographic, chemical, 
# crystal, experimental, refinement or atomic coordinate data resulting 
# from the CCDC's data processing and validation procedures.
#
#######################################################################

data_UBOQAD
_symmetry_cell_setting           triclinic
_symmetry_space_group_name_H-M   'P -1'
_symmetry_Int_Tables_number      2
_space_group_name_Hall           '-P 1'
loop_
_symmetry_equiv_pos_site_id
_symmetry_equiv_pos_as_xyz
1 x,y,z
2 -x,-y,-z
_cell_length_a                   10.285(2)
_cell_length_b                   11.727(2)
_cell_length_c                   15.521(3)
_cell_angle_alpha                104.99(3)
_cell_angle_beta                 91.45(3)
_cell_angle_gamma                103.49(3)
_cell_volume                     1751.1
loop_
_atom_site_label
_atom_site_type_symbol
_atom_site_fract_x
_atom_site_fract_y
_atom_site_fract_z
Cu1 Cu 0.5000 0.5000 0.0000
Cu2 Cu 0.50479(5) 0.49509(5) 0.24941(3)
Cu3 Cu 0.5000 0.5000 0.5000
N1 N 0.5987(4) 0.3763(3) 0.0727(2)
N2 N 0.5860(3) 0.3773(3) 0.1621(2)
N3 N 0.6892(4) 0.2380(3) 0.1030(2)
N4 N 0.7579(4) 0.1450(4) 0.0920(3)
C1 C 0.6619(4) 0.2910(4) 0.0394(3)
H1 H 0.6843 0.2704 -0.0193
C2 C 0.6413(4) 0.2941(4) 0.1779(3)
H2 H 0.6466 0.2764 0.2327
N5 N 0.5910(4) 0.6502(3) 0.0982(2)
N6 N 0.6053(4) 0.6514(3) 0.1878(2)
N7 N 0.7176(4) 0.8248(3) 0.1713(2)
N8 N 0.8023(4) 0.9450(3) 0.1883(3)
C3 C 0.6587(5) 0.7554(4) 0.0911(3)
H3 H 0.6652 0.7788 0.0382
C4 C 0.6837(5) 0.7586(4) 0.2297(3)
H4 H 0.7113 0.7846 0.2906
N9 N 0.3406(4) 0.4638(3) 0.0728(2)
N10 N 0.3412(3) 0.4571(3) 0.1599(2)
N11 N 0.1338(3) 0.4099(3) 0.1035(2)
N12 N -0.0082(4) 0.3796(4) 0.0978(2)
C5 C 0.2150(4) 0.4375(4) 0.0407(3)
H5 H 0.1861 0.4378 -0.0165
C6 C 0.2149(4) 0.4231(4) 0.1760(3)
H6 H 0.1864 0.4101 0.2299
N13 N 0.4059(4) 0.6116(3) 0.4242(2)
N14 N 0.4249(4) 0.6145(3) 0.3363(2)
N15 N 0.3245(4) 0.7566(3) 0.3965(2)
N16 N 0.2588(4) 0.8512(3) 0.4096(3)
C7 C 0.3451(4) 0.6983(4) 0.4589(3)
H7 H 0.3203 0.7167 0.5171
C8 C 0.3757(4) 0.7016(4) 0.3215(3)
H8 H 0.3757 0.7228 0.2677
N17 N 0.4061(3) 0.3471(3) 0.4058(2)
N18 N 0.4032(4) 0.3388(3) 0.3149(2)
N19 N 0.2867(4) 0.1693(3) 0.3356(3)
N20 N 0.2032(5) 0.0497(4) 0.3233(3)
C9 C 0.3367(4) 0.2433(4) 0.4158(3)
H9 H 0.3243 0.2245 0.4701
C10 C 0.3300(5) 0.2307(4) 0.2750(3)
H10 H 0.3100 0.1999 0.2133
N21 N 0.6673(3) 0.5235(3) 0.4261(2)
N22 N 0.6675(4) 0.5308(3) 0.3386(2)
N23 N 0.8750(4) 0.5749(4) 0.3953(2)
N24 N 1.0176(4) 0.6102(4) 0.4084(3)
C11 C 0.7928(5) 0.5491(4) 0.4583(3)
H11 H 0.8212 0.5496 0.5158
C12 C 0.7935(4) 0.5628(4) 0.3229(3)
H12 H 0.8225 0.5753 0.2690
H13 H 0.3344 0.9180 0.4274
H14 H 0.1934 0.8101 0.3580
H15 H 1.0484 0.7133 0.4209
H16 H 1.0549 0.5715 0.3545
H17 H 0.2224 -0.0079 0.2621
H18 H 0.1088 0.0530 0.3206
H19 H 0.8237 0.1760 0.1373
H20 H 0.7947 0.1305 0.0342
H21 H -0.0413 0.3476 0.0360
H22 H -0.0328 0.4574 0.1200
H23 H 0.8877 0.9230 0.1961
H24 H 0.7640 0.9913 0.1673
N1A N 0.4013(4) 0.6237(3) -0.0727(2)
N2A N 0.4140(3) 0.6227(3) -0.1621(2)
N3A N 0.3108(4) 0.7620(3) -0.1030(2)
N4A N 0.2421(4) 0.8550(4) -0.0920(3)
C1A C 0.3381(4) 0.7090(4) -0.0394(3)
H1A H 0.3157 0.7296 0.0193
C2A C 0.3587(4) 0.7059(4) -0.1779(3)
H2A H 0.3534 0.7236 -0.2327
H19A H 0.1763 0.8240 -0.1373
H20A H 0.2053 0.8695 -0.0342
N5A N 0.4090(4) 0.3498(3) -0.0982(2)
N6A N 0.3947(4) 0.3486(3) -0.1878(2)
N7A N 0.2824(4) 0.1752(3) -0.1713(2)
N8A N 0.1977(4) 0.0550(3) -0.1883(3)
C3A C 0.3413(5) 0.2446(4) -0.0911(3)
H3A H 0.3348 0.2212 -0.0382
C4A C 0.3163(5) 0.2414(4) -0.2297(3)
H4A H 0.2887 0.2154 -0.2906
H23A H 0.1123 0.0770 -0.1961
H24A H 0.2360 0.0087 -0.1673
N9A N 0.6594(4) 0.5362(3) -0.0728(2)
N10A N 0.6588(3) 0.5429(3) -0.1599(2)
N11A N 0.8662(3) 0.5901(3) -0.1035(2)
N12A N 1.0082(4) 0.6204(4) -0.0978(2)
C5A C 0.7850(4) 0.5625(4) -0.0407(3)
H5A H 0.8139 0.5622 0.0165
C6A C 0.7851(4) 0.5769(4) -0.1760(3)
H6A H 0.8136 0.5899 -0.2299
H21A H 1.0413 0.6524 -0.0360
H22A H 1.0328 0.5426 -0.1200
Cu2A Cu 0.49521(5) 0.50491(5) -0.24941(3)
N13A N 0.5941(4) 0.3884(3) -0.4242(2)
N14A N 0.5751(4) 0.3855(3) -0.3363(2)
N15A N 0.6755(4) 0.2434(3) -0.3965(2)
N16A N 0.7412(4) 0.1488(3) -0.4096(3)
C7A C 0.6549(4) 0.3017(4) -0.4589(3)
H7A H 0.6797 0.2833 -0.5171
C8A C 0.6243(4) 0.2984(4) -0.3215(3)
H8A H 0.6243 0.2772 -0.2677
H13A H 0.6656 0.0820 -0.4274
H14A H 0.8066 0.1899 -0.3580
N17A N 0.5939(3) 0.6529(3) -0.4058(2)
N18A N 0.5968(4) 0.6612(3) -0.3149(2)
N19A N 0.7133(4) 0.8307(3) -0.3356(3)
N20A N 0.7968(5) 0.9503(4) -0.3233(3)
C9A C 0.6633(4) 0.7567(4) -0.4158(3)
H9A H 0.6757 0.7755 -0.4701
C10A C 0.6700(5) 0.7693(4) -0.2750(3)
H10A H 0.6900 0.8001 -0.2133
H17A H 0.7776 1.0079 -0.2621
H18A H 0.8912 0.9470 -0.3206
N21A N 0.3327(3) 0.4765(3) -0.4261(2)
N22A N 0.3325(4) 0.4692(3) -0.3386(2)
N23A N 0.1250(4) 0.4251(4) -0.3953(2)
N24A N -0.0176(4) 0.3898(4) -0.4084(3)
C11A C 0.2072(5) 0.4509(4) -0.4583(3)
H11A H 0.1788 0.4504 -0.5158
C12A C 0.2065(4) 0.4372(4) -0.3229(3)
H12A H 0.1775 0.4247 -0.2690
H15A H -0.0484 0.2867 -0.4209
H16A H -0.0549 0.4285 -0.3545
N13A_2 N 0.5941(4) 0.3884(3) 0.5758(2)
N17A_2 N 0.5939(3) 0.6529(3) 0.5942(2)
N21A_2 N 0.3327(3) 0.4765(3) 0.5739(2)
Cu3_2 Cu 0.5000 0.5000 -0.5000
Si1 Si 0.94328(14) 0.27579(13) 0.82671(9)
F1 F 0.8904(3) 0.3564(3) 0.76400(17)
F2 F 0.8903(3) 0.3579(3) 0.91829(17)
F3 F 1.0935(3) 0.3789(3) 0.84870(16)
F4 F 0.7923(3) 0.1758(3) 0.8053(2)
F5 F 0.9968(3) 0.1942(3) 0.7359(2)
F6 F 1.0000(3) 0.1989(3) 0.8907(2)
B1 B 0.4304(6) -0.0468(6) 0.6495(4)
F7 F 0.4148(3) -0.1529(3) 0.6756(2)
F8 F 0.5080(3) 0.0517(3) 0.71592(19)
F9 F 0.3064(3) -0.0240(3) 0.6362(2)
F10 F 0.4961(3) -0.0587(3) 0.57181(18)
B2 B 1.0245(8) 0.7330(8) 0.6788(7)
F11 F 1.1266(6) 0.6917(6) 0.6892(7)
F12 F 1.0163(7) 0.7998(10) 0.6168(8)
F13 F 1.0003(6) 0.8105(4) 0.7640(5)
F14 F 0.9071(7) 0.6386(7) 0.6566(4)
O1 O 0.4948(4) 0.0318(4) 0.8934(3)
H25 H 0.5804 0.0191 0.9033
H26 H 0.4880 0.0336 0.8235
O2 O 1.0468(7) -0.0906(6) 0.5056(5)
O3 O 1.1298(8) 0.1670(7) 0.5799(5)
O5 O 0.6414(8) -0.1046(6) 0.9453(4)
O7 O 0.9063(10) -0.0140(8) 0.9285(8)
F15? F 1.119(3) 0.732(2) 0.7191(14)
F16? F 1.0948(19) 0.6993(17) 0.5901(13)
F17? F 1.0279(15) 0.8546(13) 0.6780(9)
F18? F 0.892(4) 0.670(3) 0.663(3)
O4? O 0.7835(9) -0.1408(7) 0.4337(4)
O6? O 0.7698(11) -0.0084(9) -0.0819(6)
loop_
_geom_bond_atom_site_label_1
_geom_bond_atom_site_label_2
_geom_bond_site_symmetry_1
_geom_bond_site_symmetry_2
Cu1 N1 1_555 1_555
Cu2 N2 1_555 1_555
Cu3 N13 1_555 1_555
Si1 F1 1_555 1_555
F2 Si1 1_555 1_555
F3 Si1 1_555 1_555
F4 Si1 1_555 1_555
F5 Si1 1_555 1_555
F6 Si1 1_555 1_555
B1 F7 1_555 1_555
F8 B1 1_555 1_555
F9 B1 1_555 1_555
F10 B1 1_555 1_555
B2 F11 1_555 1_555
F12 B2 1_555 1_555
F13 B2 1_555 1_555
F14 B2 1_555 1_555
O1 H25 1_555 1_555
N1 N2 1_555 1_555
N2 C2 1_555 1_555
N3 N4 1_555 1_555
N4 H19 1_555 1_555
C1 N1 1_555 1_555
H1 C1 1_555 1_555
C2 N3 1_555 1_555
H2 C2 1_555 1_555
N5 Cu1 1_555 1_555
N6 Cu2 1_555 1_555
N7 N8 1_555 1_555
N8 H23 1_555 1_555
C3 N5 1_555 1_555
H3 C3 1_555 1_555
C4 N6 1_555 1_555
H4 C4 1_555 1_555
N9 Cu1 1_555 1_555
N10 Cu2 1_555 1_555
N11 N12 1_555 1_555
N12 H21 1_555 1_555
C5 N9 1_555 1_555
H5 C5 1_555 1_555
C6 N10 1_555 1_555
H6 C6 1_555 1_555
N13 N14 1_555 1_555
N14 Cu2 1_555 1_555
N15 N16 1_555 1_555
N16 H13 1_555 1_555
C7 N13 1_555 1_555
H7 C7 1_555 1_555
C8 N14 1_555 1_555
H8 C8 1_555 1_555
N17 Cu3 1_555 1_555
N18 Cu2 1_555 1_555
N19 N20 1_555 1_555
N20 H17 1_555 1_555
C9 N17 1_555 1_555
H9 C9 1_555 1_555
C10 N18 1_555 1_555
H10 C10 1_555 1_555
N21 Cu3 1_555 1_555
N22 Cu2 1_555 1_555
N23 N24 1_555 1_555
N24 H15 1_555 1_555
C11 N21 1_555 1_555
H11 C11 1_555 1_555
C12 N22 1_555 1_555
H12 C12 1_555 1_555
H14 N16 1_555 1_555
H16 N24 1_555 1_555
H18 N20 1_555 1_555
H20 N4 1_555 1_555
H22 N12 1_555 1_555
H24 N8 1_555 1_555
H26 O1 1_555 1_555
N1A Cu1 1_555 1_555
N2A N1A 1_555 1_555
N3A N4A 1_555 1_555
N4A H19A 1_555 1_555
C1A N1A 1_555 1_555
H1A C1A 1_555 1_555
C2A N2A 1_555 1_555
H2A C2A 1_555 1_555
H20A N4A 1_555 1_555
N5A Cu1 1_555 1_555
N6A N5A 1_555 1_555
N7A N8A 1_555 1_555
N8A H23A 1_555 1_555
C3A N5A 1_555 1_555
H3A C3A 1_555 1_555
C4A N6A 1_555 1_555
H4A C4A 1_555 1_555
H24A N8A 1_555 1_555
N9A Cu1 1_555 1_555
N10A N9A 1_555 1_555
N11A N12A 1_555 1_555
N12A H21A 1_555 1_555
C5A N9A 1_555 1_555
H5A C5A 1_555 1_555
C6A N10A 1_555 1_555
H6A C6A 1_555 1_555
H22A N12A 1_555 1_555
Cu2A N2A 1_555 1_555
N13A N14A 1_555 1_555
N14A Cu2A 1_555 1_555
N15A N16A 1_555 1_555
N16A H13A 1_555 1_555
C7A N13A 1_555 1_555
H7A C7A 1_555 1_555
C8A N14A 1_555 1_555
H8A C8A 1_555 1_555
H14A N16A 1_555 1_555
N17A N18A 1_555 1_555
N18A Cu2A 1_555 1_555
N19A N20A 1_555 1_555
N20A H17A 1_555 1_555
C9A N17A 1_555 1_555
H9A C9A 1_555 1_555
C10A N18A 1_555 1_555
H10A C10A 1_555 1_555
H18A N20A 1_555 1_555
N21A N22A 1_555 1_555
N22A Cu2A 1_555 1_555
N23A N24A 1_555 1_555
N24A H15A 1_555 1_555
C11A N21A 1_555 1_555
H11A C11A 1_555 1_555
C12A N22A 1_555 1_555
H12A C12A 1_555 1_555
H16A N24A 1_555 1_555
N13A_2 Cu3 1_555 1_555
N17A_2 Cu3 1_555 1_555
N21A_2 Cu3 1_555 1_555
Cu3_2 N13A 1_555 1_555
N3 C1 1_555 1_555
N5 N6 1_555 1_555
N7 C4 1_555 1_555
N7 C3 1_555 1_555
N9 N10 1_555 1_555
N11 C6 1_555 1_555
N11 C5 1_555 1_555
N15 C8 1_555 1_555
N15 C7 1_555 1_555
N17 N18 1_555 1_555
N19 C10 1_555 1_555
N19 C9 1_555 1_555
N21 N22 1_555 1_555
N23 C12 1_555 1_555
N23 C11 1_555 1_555
N3A C2A 1_555 1_555
N3A C1A 1_555 1_555
N6A Cu2A 1_555 1_555
N7A C4A 1_555 1_555
N7A C3A 1_555 1_555
N10A Cu2A 1_555 1_555
N11A C6A 1_555 1_555
N11A C5A 1_555 1_555
N15A C8A 1_555 1_555
N15A C7A 1_555 1_555
N17A Cu3_2 1_555 1_555
N19A C10A 1_555 1_555
N19A C9A 1_555 1_555
N21A Cu3_2 1_555 1_555
N23A C12A 1_555 1_555
N23A C11A 1_555 1_555

#END
