
#######################################################################
#
#                 Cambridge Crystallographic Data Centre
#                                CCDC 
#
#######################################################################
#
# If this CIF has been generated from an entry in the Cambridge 
# Structural Database, then it will include bibliographic, chemical, 
# crystal, experimental, refinement or atomic coordinate data resulting 
# from the CCDC's data processing and validation procedures.
#
#######################################################################

data_UBORIM
_symmetry_cell_setting           monoclinic
_symmetry_space_group_name_H-M   'P c'
_symmetry_Int_Tables_number      7
_space_group_name_Hall           'P -2yc'
loop_
_symmetry_equiv_pos_site_id
_symmetry_equiv_pos_as_xyz
1 x,y,z
2 x,-y,1/2+z
_cell_length_a                   6.75700(10)
_cell_length_b                   11.7756(3)
_cell_length_c                   20.3694(5)
_cell_angle_alpha                90.00
_cell_angle_beta                 93.6290(10)
_cell_angle_gamma                90.00
_cell_volume                     1617.5
loop_
_atom_site_label
_atom_site_type_symbol
_atom_site_fract_x
_atom_site_fract_y
_atom_site_fract_z
Au1 Au 0.49688(6) 0.05034(3) 0.44263(5)
P1 P 0.2857(4) -0.0830(3) 0.39392(16)
P2 P -0.2875(4) 0.1911(2) 0.48087(15)
C1 C 0.103(2) -0.0221(14) 0.3344(8)
H1 H 0.1719 0.0212 0.3024
H2 H 0.0334 -0.0836 0.3111
C2 C -0.053(2) 0.0562(11) 0.3643(9)
H3 H -0.1521 0.0757 0.3298
H4 H -0.1182 0.0131 0.3972
C3 C 0.021(2) 0.1602(13) 0.3944(7)
H5 H 0.0995 0.1989 0.3629
H6 H 0.1105 0.1401 0.4318
C4 C -0.1302(18) 0.2444(12) 0.4180(6)
H7 H -0.2147 0.2686 0.3803
H8 H -0.0599 0.3108 0.4353
C5 C 0.4234(13) -0.1792(7) 0.3430(4)
C6 C 0.5320(15) -0.1315(7) 0.2943(4)
H9 H 0.5326 -0.0532 0.2884
C7 C 0.6398(17) -0.2008(11) 0.2544(5)
H10 H 0.7124 -0.1689 0.2217
C8 C 0.639(2) -0.3179(10) 0.2632(6)
H11 H 0.7110 -0.3642 0.2365
C9 C 0.530(2) -0.3656(6) 0.3119(7)
H12 H 0.5297 -0.4439 0.3178
C10 C 0.4226(18) -0.2963(7) 0.3518(6)
H13 H 0.3499 -0.3282 0.3844
C11 C 0.1436(13) -0.1676(8) 0.4484(4)
C12 C 0.1861(17) -0.1602(8) 0.5159(4)
H14 H 0.2895 -0.1143 0.5325
C13 C 0.074(2) -0.2213(11) 0.5586(4)
H15 H 0.1024 -0.2163 0.6038
C14 C -0.081(2) -0.2899(13) 0.5338(6)
H16 H -0.1557 -0.3307 0.5624
C15 C -0.1232(18) -0.2973(13) 0.4663(7)
H17 H -0.2266 -0.3432 0.4497
C16 C -0.0111(17) -0.2362(11) 0.4236(5)
H18 H -0.0395 -0.2412 0.3784
C17 C -0.4182(14) 0.3154(7) 0.5071(4)
C18 C -0.5564(16) 0.3645(8) 0.4623(4)
H19 H -0.5798 0.3329 0.4207
C19 C -0.6596(17) 0.4610(9) 0.4796(6)
H20 H -0.7521 0.4939 0.4497
C20 C -0.625(2) 0.5084(9) 0.5418(7)
H21 H -0.6935 0.5729 0.5534
C21 C -0.486(2) 0.4593(11) 0.5866(5)
H22 H -0.4628 0.4909 0.6282
C22 C -0.3831(19) 0.3628(10) 0.5693(4)
H23 H -0.2906 0.3300 0.5993
C23 C -0.1207(13) 0.1486(7) 0.5497(4)
C24 C -0.1601(16) 0.0563(8) 0.5894(6)
H24 H -0.2745 0.0136 0.5807
C25 C -0.028(2) 0.0278(9) 0.6420(6)
H25 H -0.0547 -0.0339 0.6685
C26 C 0.1426(19) 0.0917(13) 0.6549(6)
H26 H 0.2307 0.0726 0.6902
C27 C 0.1820(15) 0.1840(13) 0.6153(7)
H27 H 0.2964 0.2267 0.6240
C28 C 0.0503(16) 0.2125(9) 0.5627(6)
H28 H 0.0766 0.2742 0.5362
P2_2 P 0.7125(4) 0.1911(2) 0.48087(15)
Au1_2 Au -0.50312(6) 0.05034(3) 0.44263(5)
O1 O 0.273(3) 0.156(3) 0.2414(17)
O2 O 0.501(5) 0.262(3) 0.2974(12)
F1 F 0.538(4) 0.266(2) 0.1506(12)
F2 F 0.755(3) 0.201(3) 0.2118(13)
F3 F 0.555(4) 0.094(2) 0.1623(13)
C29 C 0.569(3) 0.1905(19) 0.1936(10)
C30 C 0.432(3) 0.204(2) 0.2498(12)
loop_
_geom_bond_atom_site_label_1
_geom_bond_atom_site_label_2
_geom_bond_site_symmetry_1
_geom_bond_site_symmetry_2
Au1 P1 1_555 1_555
P1 C1 1_555 1_555
P2 C4 1_555 1_555
C1 H1 1_555 1_555
H2 C1 1_555 1_555
C2 C1 1_555 1_555
H3 C2 1_555 1_555
H4 C2 1_555 1_555
C3 C2 1_555 1_555
H5 C3 1_555 1_555
H6 C3 1_555 1_555
C4 C3 1_555 1_555
H7 C4 1_555 1_555
H8 C4 1_555 1_555
C5 P1 1_555 1_555
C6 C5 1_555 1_555
H9 C6 1_555 1_555
C7 C6 1_555 1_555
H10 C7 1_555 1_555
C8 C7 1_555 1_555
H11 C8 1_555 1_555
C9 C8 1_555 1_555
H12 C9 1_555 1_555
C10 C5 1_555 1_555
H13 C10 1_555 1_555
C11 P1 1_555 1_555
C12 C11 1_555 1_555
H14 C12 1_555 1_555
C13 C12 1_555 1_555
H15 C13 1_555 1_555
C14 C13 1_555 1_555
H16 C14 1_555 1_555
C15 C14 1_555 1_555
H17 C15 1_555 1_555
C16 C11 1_555 1_555
H18 C16 1_555 1_555
C17 P2 1_555 1_555
C18 C17 1_555 1_555
H19 C18 1_555 1_555
C19 C18 1_555 1_555
H20 C19 1_555 1_555
C20 C19 1_555 1_555
H21 C20 1_555 1_555
C21 C20 1_555 1_555
H22 C21 1_555 1_555
C22 C17 1_555 1_555
H23 C22 1_555 1_555
C23 P2 1_555 1_555
C24 C23 1_555 1_555
H24 C24 1_555 1_555
C25 C24 1_555 1_555
H25 C25 1_555 1_555
C26 C25 1_555 1_555
H26 C26 1_555 1_555
C27 C26 1_555 1_555
H27 C27 1_555 1_555
C28 C23 1_555 1_555
H28 C28 1_555 1_555
O1 C30 1_555 1_555
O2 C30 1_555 1_555
F1 C29 1_555 1_555
F2 C29 1_555 1_555
F3 C29 1_555 1_555
C29 C30 1_555 1_555
P2_2 Au1 1_555 1_555
Au1_2 P2 1_555 1_555
C9 C10 1_555 1_555
C15 C16 1_555 1_555
C21 C22 1_555 1_555
C27 C28 1_555 1_555

#END
