
#######################################################################
#
#                 Cambridge Crystallographic Data Centre
#                                CCDC 
#
#######################################################################
#
# If this CIF has been generated from an entry in the Cambridge 
# Structural Database, then it will include bibliographic, chemical, 
# crystal, experimental, refinement or atomic coordinate data resulting 
# from the CCDC's data processing and validation procedures.
#
#######################################################################

data_UBOSEJ
_symmetry_cell_setting           monoclinic
_symmetry_space_group_name_H-M   'P 21/c'
_symmetry_Int_Tables_number      14
_space_group_name_Hall           '-P 2ybc'
loop_
_symmetry_equiv_pos_site_id
_symmetry_equiv_pos_as_xyz
1 x,y,z
2 -x,1/2+y,1/2-z
3 -x,-y,-z
4 x,1/2-y,1/2+z
_cell_length_a                   13.7149(3)
_cell_length_b                   25.0560(11)
_cell_length_c                   19.4449(8)
_cell_angle_alpha                90
_cell_angle_beta                 97.46(2)
_cell_angle_gamma                90
_cell_volume                     6625.5
loop_
_atom_site_label
_atom_site_type_symbol
_atom_site_fract_x
_atom_site_fract_y
_atom_site_fract_z
Au1 Au 0.33892(3) 0.64263(2) 0.11243(2)
Au2 Au 0.33602(3) 0.62529(2) -0.31032(2)
Au3 Au 0.31626(4) 0.75972(3) 0.13566(4)
P1 P 0.5054(2) 0.63000(14) -0.29299(15)
P2 P 0.17030(19) 0.63350(14) 0.09698(15)
P3 P 0.50726(19) 0.64526(13) 0.11436(14)
P4 P 0.1685(2) 0.61651(15) -0.31450(17)
N1 N 0.3360(13) 0.7522(8) 0.2896(11)
N2 N 0.2890(17) 0.7671(9) -0.0209(12)
C1 C 0.1197(7) 0.6614(5) 0.0150(5)
H1 H 0.0497 0.6540 0.0070
H2 H 0.1281 0.6999 0.0166
C2 C 0.1685(9) 0.6389(6) -0.0460(6)
H3 H 0.2385 0.6462 -0.0375
H4 H 0.1602 0.6005 -0.0471
C3 C 0.1290(8) 0.6611(5) -0.1162(6)
H5 H 0.0582 0.6566 -0.1236
H6 H 0.1430 0.6990 -0.1171
C4 C 0.1724(9) 0.6345(6) -0.1738(6)
H7 H 0.2423 0.6422 -0.1692
H8 H 0.1646 0.5962 -0.1701
C5 C 0.1241(9) 0.6530(7) -0.2456(6)
H9 H 0.0534 0.6485 -0.2486
H10 H 0.1373 0.6907 -0.2510
C6 C 0.5406(8) 0.6854(5) 0.0421(5)
H11 H 0.5169 0.7216 0.0457
H12 H 0.6116 0.6866 0.0440
C7 C 0.4947(8) 0.6606(6) -0.0276(6)
H13 H 0.5053 0.6223 -0.0258
H14 H 0.4243 0.6668 -0.0335
C8 C 0.5375(8) 0.6832(5) -0.0900(5)
H15 H 0.5180 0.7203 -0.0962
H16 H 0.6087 0.6820 -0.0811
C9 C 0.5043(9) 0.6536(5) -0.1542(6)
H17 H 0.5189 0.6161 -0.1457
H18 H 0.4333 0.6569 -0.1637
C10 C 0.5480(8) 0.6702(5) -0.2195(5)
H19 H 0.5311 0.7071 -0.2300
H20 H 0.6191 0.6677 -0.2105
C11 C 0.3275(11) 0.7559(7) 0.2313(12)
C12 C 0.3013(16) 0.7649(9) 0.0355(11)
C13 C 0.5606(7) 0.5686(4) -0.2774(5)
C14 C 0.6598(7) 0.5642(5) -0.2520(6)
H21 H 0.6976 0.5947 -0.2425
C15 C 0.7026(7) 0.5141(7) -0.2410(7)
H22 H 0.7690 0.5111 -0.2241
C16 C 0.6461(12) 0.4684(5) -0.2554(7)
H23 H 0.6747 0.4349 -0.2480
C17 C 0.5469(12) 0.4728(4) -0.2807(8)
H24 H 0.5091 0.4422 -0.2902
C18 C 0.5042(7) 0.5229(5) -0.2917(7)
H25 H 0.4378 0.5258 -0.3086
C19 C 0.5589(5) 0.6541(4) -0.3648(3)
C20 C 0.6539(5) 0.6746(4) -0.3558(4)
H26 H 0.6892 0.6763 -0.3116
C21 C 0.6962(5) 0.6927(5) -0.4127(5)
H27 H 0.7597 0.7064 -0.4066
C22 C 0.6435(7) 0.6903(5) -0.4787(4)
H28 H 0.6718 0.7023 -0.5167
C23 C 0.5485(7) 0.6698(5) -0.4877(3)
H29 H 0.5132 0.6681 -0.5319
C24 C 0.5062(5) 0.6517(4) -0.4308(4)
H30 H 0.4427 0.6380 -0.4369
C25 C 0.1098(5) 0.6630(3) 0.1640(4)
C26 C 0.1543(5) 0.6614(4) 0.2324(4)
H31 H 0.2149 0.6448 0.2434
C27 C 0.1081(6) 0.6847(4) 0.2845(3)
H32 H 0.1378 0.6836 0.3303
C28 C 0.0174(6) 0.7095(4) 0.2682(4)
H33 H -0.0135 0.7251 0.3030
C29 C -0.0271(5) 0.7111(5) 0.1998(5)
H34 H -0.0877 0.7278 0.1888
C30 C 0.0191(6) 0.6879(4) 0.1477(3)
H35 H -0.0106 0.6889 0.1019
C31 C 0.1305(6) 0.5661(3) 0.0930(5)
C32 C 0.0386(6) 0.5521(4) 0.1101(5)
H36 H -0.0023 0.5781 0.1249
C33 C 0.0078(7) 0.4992(5) 0.1052(6)
H37 H -0.0537 0.4899 0.1167
C34 C 0.0690(9) 0.4603(3) 0.0832(7)
H38 H 0.0484 0.4249 0.0799
C35 C 0.1609(8) 0.4743(4) 0.0660(7)
H39 H 0.2018 0.4482 0.0513
C36 C 0.1917(5) 0.5271(4) 0.0709(5)
H40 H 0.2532 0.5365 0.0594
C37 C 0.5734(5) 0.6708(4) 0.1930(3)
C38 C 0.5290(4) 0.6683(4) 0.2533(4)
H41 H 0.4645 0.6563 0.2514
C39 C 0.5810(6) 0.6837(4) 0.3163(3)
H42 H 0.5513 0.6820 0.3566
C40 C 0.6774(6) 0.7016(5) 0.3190(3)
H43 H 0.7122 0.7119 0.3612
C41 C 0.7217(5) 0.7041(5) 0.2588(4)
H44 H 0.7862 0.7161 0.2606
C42 C 0.6697(5) 0.6887(4) 0.1958(4)
H45 H 0.6994 0.6904 0.1554
C43 C 0.5577(6) 0.5817(3) 0.1049(5)
C44 C 0.4954(6) 0.5377(4) 0.1006(7)
H46 H 0.4287 0.5423 0.1031
C45 C 0.5328(11) 0.4869(3) 0.0924(8)
H47 H 0.4912 0.4574 0.0894
C46 C 0.6326(11) 0.4800(4) 0.0885(7)
H48 H 0.6576 0.4460 0.0831
C47 C 0.6949(7) 0.5240(6) 0.0929(7)
H49 H 0.7616 0.5194 0.0904
C48 C 0.6574(6) 0.5748(5) 0.1011(7)
H50 H 0.6991 0.6042 0.1040
C49 C 0.1310(9) 0.5494(4) -0.3022(6)
C50 C 0.0317(8) 0.5367(6) -0.3069(7)
H51 H -0.0155 0.5629 -0.3187
C51 C 0.0031(10) 0.4848(7) -0.2940(8)
H52 H -0.0634 0.4763 -0.2972
C52 C 0.0737(15) 0.4457(5) -0.2764(8)
H53 H 0.0546 0.4110 -0.2678
C53 C 0.1730(13) 0.4584(5) -0.2717(9)
H54 H 0.2203 0.4322 -0.2599
C54 C 0.2017(8) 0.5103(6) -0.2846(8)
H55 H 0.2681 0.5188 -0.2815
C55 C 0.1003(7) 0.6390(5) -0.3942(4)
C56 C 0.0217(9) 0.6742(6) -0.3963(5)
H56 H 0.0019 0.6866 -0.3552
C57 C -0.0275(9) 0.6907(6) -0.4597(7)
H57 H -0.0802 0.7142 -0.4610
C58 C 0.0020(10) 0.6721(7) -0.5211(5)
H58 H -0.0310 0.6831 -0.5635
C59 C 0.0806(11) 0.6369(8) -0.5190(4)
H59 H 0.1004 0.6244 -0.5601
C60 C 0.1298(8) 0.6203(6) -0.4556(6)
H60 H 0.1825 0.5968 -0.4543
Au3C Au 0.31626(4) 0.74028(3) -0.36434(4)
Au2C Au 0.33602(3) 0.87471(2) 0.18968(2)
Au4 Au -0.16501(4) 0.67595(3) -0.10467(3)
N3 N -0.1312(10) 0.6620(9) -0.2575(8)
N4 N -0.1968(10) 0.6880(8) 0.0508(9)
C61 C -0.1835(10) 0.6826(7) -0.0044(11)
C62 C -0.1459(10) 0.6663(8) -0.2009(11)
loop_
_geom_bond_atom_site_label_1
_geom_bond_atom_site_label_2
_geom_bond_site_symmetry_1
_geom_bond_site_symmetry_2
Au1 Au3 1_555 1_555
Au2 P1 1_555 1_555
Au3 C11 1_555 1_555
P1 C10 1_555 1_555
P2 Au1 1_555 1_555
P3 Au1 1_555 1_555
P4 Au2 1_555 1_555
N1 C11 1_555 1_555
N2 C12 1_555 1_555
C1 P2 1_555 1_555
H1 C1 1_555 1_555
H2 C1 1_555 1_555
C2 C1 1_555 1_555
H3 C2 1_555 1_555
H4 C2 1_555 1_555
C3 C2 1_555 1_555
H5 C3 1_555 1_555
H6 C3 1_555 1_555
C4 C3 1_555 1_555
H7 C4 1_555 1_555
H8 C4 1_555 1_555
C5 P4 1_555 1_555
H9 C5 1_555 1_555
H10 C5 1_555 1_555
C6 P3 1_555 1_555
H11 C6 1_555 1_555
H12 C6 1_555 1_555
C7 C6 1_555 1_555
H13 C7 1_555 1_555
H14 C7 1_555 1_555
C8 C7 1_555 1_555
H15 C8 1_555 1_555
H16 C8 1_555 1_555
C9 C8 1_555 1_555
H17 C9 1_555 1_555
H18 C9 1_555 1_555
C10 C9 1_555 1_555
H19 C10 1_555 1_555
H20 C10 1_555 1_555
C12 Au3 1_555 1_555
C13 P1 1_555 1_555
C14 C13 1_555 1_555
H21 C14 1_555 1_555
C15 C14 1_555 1_555
H22 C15 1_555 1_555
C16 C15 1_555 1_555
H23 C16 1_555 1_555
C17 C16 1_555 1_555
H24 C17 1_555 1_555
C18 C13 1_555 1_555
H25 C18 1_555 1_555
C19 P1 1_555 1_555
C20 C19 1_555 1_555
H26 C20 1_555 1_555
C21 C20 1_555 1_555
H27 C21 1_555 1_555
C22 C21 1_555 1_555
H28 C22 1_555 1_555
C23 C22 1_555 1_555
H29 C23 1_555 1_555
C24 C19 1_555 1_555
H30 C24 1_555 1_555
C25 P2 1_555 1_555
C26 C25 1_555 1_555
H31 C26 1_555 1_555
C27 C26 1_555 1_555
H32 C27 1_555 1_555
C28 C27 1_555 1_555
H33 C28 1_555 1_555
C29 C28 1_555 1_555
H34 C29 1_555 1_555
C30 C25 1_555 1_555
H35 C30 1_555 1_555
C31 P2 1_555 1_555
C32 C31 1_555 1_555
H36 C32 1_555 1_555
C33 C32 1_555 1_555
H37 C33 1_555 1_555
C34 C33 1_555 1_555
H38 C34 1_555 1_555
C35 C34 1_555 1_555
H39 C35 1_555 1_555
C36 C31 1_555 1_555
H40 C36 1_555 1_555
C37 P3 1_555 1_555
C38 C37 1_555 1_555
H41 C38 1_555 1_555
C39 C38 1_555 1_555
H42 C39 1_555 1_555
C40 C39 1_555 1_555
H43 C40 1_555 1_555
C41 C40 1_555 1_555
H44 C41 1_555 1_555
C42 C37 1_555 1_555
H45 C42 1_555 1_555
C43 P3 1_555 1_555
C44 C43 1_555 1_555
H46 C44 1_555 1_555
C45 C44 1_555 1_555
H47 C45 1_555 1_555
C46 C45 1_555 1_555
H48 C46 1_555 1_555
C47 C46 1_555 1_555
H49 C47 1_555 1_555
C48 C43 1_555 1_555
H50 C48 1_555 1_555
C49 P4 1_555 1_555
C50 C49 1_555 1_555
H51 C50 1_555 1_555
C51 C50 1_555 1_555
H52 C51 1_555 1_555
C52 C51 1_555 1_555
H53 C52 1_555 1_555
C53 C52 1_555 1_555
H54 C53 1_555 1_555
C54 C49 1_555 1_555
H55 C54 1_555 1_555
C55 P4 1_555 1_555
C56 C55 1_555 1_555
H56 C56 1_555 1_555
C57 C56 1_555 1_555
H57 C57 1_555 1_555
C58 C57 1_555 1_555
H58 C58 1_555 1_555
C59 C58 1_555 1_555
H59 C59 1_555 1_555
C60 C55 1_555 1_555
H60 C60 1_555 1_555
Au4 C61 1_555 1_555
N3 C62 1_555 1_555
N4 C61 1_555 1_555
C62 Au4 1_555 1_555
Au3C Au2 1_555 1_555
Au2C Au3 1_555 1_555
C4 C5 1_555 1_555
C17 C18 1_555 1_555
C23 C24 1_555 1_555
C29 C30 1_555 1_555
C35 C36 1_555 1_555
C41 C42 1_555 1_555
C47 C48 1_555 1_555
C53 C54 1_555 1_555
C59 C60 1_555 1_555

#END
