
#######################################################################
#
#                 Cambridge Crystallographic Data Centre
#                                CCDC 
#
#######################################################################
#
# If this CIF has been generated from an entry in the Cambridge 
# Structural Database, then it will include bibliographic, chemical, 
# crystal, experimental, refinement or atomic coordinate data resulting 
# from the CCDC's data processing and validation procedures.
#
#######################################################################

data_UBOVOY
_symmetry_cell_setting           orthorhombic
_symmetry_space_group_name_H-M   'P 21 21 21'
_symmetry_Int_Tables_number      19
_space_group_name_Hall           'P 2ac 2ab'
loop_
_symmetry_equiv_pos_site_id
_symmetry_equiv_pos_as_xyz
1 x,y,z
2 1/2-x,-y,1/2+z
3 -x,1/2+y,1/2-z
4 1/2+x,1/2-y,-z
_cell_length_a                   7.086(3)
_cell_length_b                   8.422(3)
_cell_length_c                   18.973(8)
_cell_angle_alpha                90
_cell_angle_beta                 90
_cell_angle_gamma                90
_cell_volume                     1132.28
loop_
_atom_site_label
_atom_site_type_symbol
_atom_site_fract_x
_atom_site_fract_y
_atom_site_fract_z
Mg1 Mg 0.55245(8) 0.61676(6) 0.85475(3)
O1 O 0.39659(16) 0.52280(15) 0.77185(7)
O2 O 0.38574(16) 0.33499(14) 0.68980(6)
O3 O 0.95169(19) 0.32741(16) 0.57487(6)
O4 O 0.68091(18) 0.20726(16) 0.59888(6)
O5 O 0.5153(2) 0.39593(15) 0.90434(7)
O6 O 0.7149(2) 0.67898(18) 0.94027(7)
H1 H 0.669(4) 0.694(3) 0.9874(14)
H2 H 0.819(4) 0.729(3) 0.9405(12)
N1 N 0.7710(2) 0.50707(18) 0.78748(8)
N2 N 0.9910(2) 0.42085(18) 0.71466(8)
H3 H 1.106(4) 0.394(3) 0.6922(14)
N3 N 0.5228(3) 0.2189(2) 0.99336(9)
C1 C 0.9537(3) 0.4978(2) 0.77523(9)
H4 H 1.0457 0.5394 0.8049
C2 C 0.8218(2) 0.3728(2) 0.68597(8)
C3 C 0.6854(2) 0.42670(19) 0.73206(8)
C4 C 0.4743(2) 0.4256(2) 0.73111(8)
C5 C 0.8168(2) 0.2949(2) 0.61517(8)
C6 C 0.5158(3) 0.3635(2) 0.96785(11)
H5 H 0.5108 0.4473 0.9997
C7 C 0.5201(4) 0.1901(4) 1.06879(13)
H6 H 0.5133 0.2896 1.0933
H7 H 0.6330 0.1350 1.0823
H8 H 0.4121 0.1266 1.0806
C8 C 0.5317(6) 0.0830(3) 0.94732(18)
H9 H 0.5691 0.1165 0.9010
H10 H 0.4099 0.0335 0.9450
H11 H 0.6222 0.0085 0.9653
Mg1B Mg 0.44755(8) 0.11676(6) 0.64525(3)
O2B O 0.61426(16) 0.83499(14) 0.81020(6)
O4B O 0.31909(18) 0.70726(16) 0.90112(6)
loop_
_geom_bond_atom_site_label_1
_geom_bond_atom_site_label_2
_geom_bond_site_symmetry_1
_geom_bond_site_symmetry_2
Mg1 O1 1_555 1_555
O1 C4 1_555 1_555
O2 C4 1_555 1_555
O3 C5 1_555 1_555
O4 C5 1_555 1_555
O5 Mg1 1_555 1_555
O6 Mg1 1_555 1_555
H1 O6 1_555 1_555
H2 O6 1_555 1_555
N1 Mg1 1_555 1_555
N2 H3 1_555 1_555
N3 C6 1_555 1_555
C1 N1 1_555 1_555
H4 C1 1_555 1_555
C2 N2 1_555 1_555
C3 N1 1_555 1_555
C4 C3 1_555 1_555
C5 C2 1_555 1_555
C6 O5 1_555 1_555
H5 C6 1_555 1_555
C7 N3 1_555 1_555
H6 C7 1_555 1_555
H7 C7 1_555 1_555
H8 C7 1_555 1_555
C8 N3 1_555 1_555
H9 C8 1_555 1_555
H10 C8 1_555 1_555
H11 C8 1_555 1_555
Mg1B O2 1_555 1_555
O2B Mg1 1_555 1_555
O4B Mg1 1_555 1_555
O4 Mg1B 1_555 1_555
N2 C1 1_555 1_555
C2 C3 1_555 1_555

#END
