
#######################################################################
#
#                 Cambridge Crystallographic Data Centre
#                                CCDC 
#
#######################################################################
#
# If this CIF has been generated from an entry in the Cambridge 
# Structural Database, then it will include bibliographic, chemical, 
# crystal, experimental, refinement or atomic coordinate data resulting 
# from the CCDC's data processing and validation procedures.
#
#######################################################################

data_UBOWEP
_symmetry_cell_setting           monoclinic
_symmetry_space_group_name_H-M   'P 21/n'
_symmetry_Int_Tables_number      14
_space_group_name_Hall           '-P 2yn'
loop_
_symmetry_equiv_pos_site_id
_symmetry_equiv_pos_as_xyz
1 x,y,z
2 1/2-x,1/2+y,1/2-z
3 -x,-y,-z
4 1/2+x,1/2-y,1/2+z
_cell_length_a                   9.0163(7)
_cell_length_b                   15.4376(13)
_cell_length_c                   18.4015(15)
_cell_angle_alpha                90
_cell_angle_beta                 96.262(3)
_cell_angle_gamma                90
_cell_volume                     2546.02
loop_
_atom_site_label
_atom_site_type_symbol
_atom_site_fract_x
_atom_site_fract_y
_atom_site_fract_z
C1 C 0.3339(5) 0.5306(3) 0.3003(3)
H1 H 0.3830 0.5220 0.2590
C2 C 0.4061(5) 0.5770(3) 0.3578(3)
H2 H 0.5015 0.5989 0.3553
C3 C 0.3341(5) 0.5900(3) 0.4184(3)
H3 H 0.3791 0.6217 0.4577
C4 C 0.1925(5) 0.5550(3) 0.4203(3)
H4 H 0.1420 0.5630 0.4613
C5 C 0.1274(4) 0.5087(3) 0.3615(2)
C6 C -0.0200(4) 0.4684(3) 0.3635(2)
H5 H -0.0725 0.4787 0.4034
C7 C -0.2208(4) 0.3802(3) 0.3134(2)
C8 C -0.3192(4) 0.3989(3) 0.3637(2)
H6 H -0.2946 0.4409 0.3993
C9 C -0.4545(4) 0.3557(3) 0.3618(2)
H7 H -0.5199 0.3686 0.3960
C10 C -0.4922(4) 0.2930(3) 0.3088(2)
C11 C -0.3959(4) 0.2757(3) 0.2566(2)
H8 H -0.4211 0.2347 0.2203
C12 C -0.2612(4) 0.3202(3) 0.2590(2)
H9 H -0.1975 0.3095 0.2235
C13 C -0.7305(4) 0.2692(3) 0.3518(3)
H10 H -0.7503 0.3309 0.3489
H11 H -0.6922 0.2551 0.4017
C14 C -0.8708(4) 0.2197(3) 0.3301(3)
H12 H -0.9540 0.2478 0.3498
H13 H -0.8912 0.2186 0.2772
C15 C -1.7646(5) -0.1863(3) 0.3946(3)
H14 H -1.8271 -0.1975 0.3520
C16 C -1.8107(5) -0.2107(3) 0.4619(3)
H15 H -1.9026 -0.2374 0.4641
C17 C -1.7185(5) -0.1945(3) 0.5245(3)
H16 H -1.7471 -0.2097 0.5698
C18 C -1.5826(5) -0.1555(3) 0.5194(2)
H17 H -1.5177 -0.1451 0.5613
C19 C -1.5430(4) -0.1318(3) 0.4516(2)
C20 C -1.4006(4) -0.0877(3) 0.4442(2)
H18 H -1.3270 -0.0864 0.4837
C21 C -1.2402(4) -0.0091(3) 0.3760(2)
C22 C -1.2459(4) 0.0603(3) 0.3280(2)
H19 H -1.3358 0.0745 0.3009
C23 C -1.1190(4) 0.1089(3) 0.3200(2)
H20 H -1.1238 0.1559 0.2882
C24 C -0.9852(4) 0.0864(3) 0.3597(2)
C25 C -0.9762(4) 0.0121(3) 0.4024(2)
H21 H -0.8843 -0.0061 0.4252
C26 C -1.1032(4) -0.0348(3) 0.4111(2)
H22 H -1.0971 -0.0838 0.4406
N1 N 0.1968(3) 0.4972(2) 0.30085(18)
N2 N -0.0777(3) 0.4197(2) 0.3120(2)
N3 N -1.6326(3) -0.1473(2) 0.38959(19)
N4 N -1.3772(3) -0.0516(2) 0.38490(19)
O1 O -0.6219(3) 0.24601(19) 0.30255(16)
O2 O -0.8548(3) 0.13261(19) 0.35768(16)
Ag1 Ag 0.06796(4) 0.42104(3) 0.210843(18)
N3A N 0.1326(3) 0.3527(2) 0.11041(19)
N4A N -0.1228(3) 0.4484(2) 0.11510(19)
Ag1A Ag -1.56796(4) -0.07896(3) 0.289157(18)
O3 O -0.2922(5) 0.1366(3) 0.1175(2)
O4 O -0.1529(5) 0.1516(5) 0.0206(2)
O5 O -0.3030(7) 0.2600(3) 0.0512(4)
O6 O -0.4077(4) 0.1424(4) -0.0011(3)
Cl1 Cl -0.28651(12) 0.17195(9) 0.04739(7)
loop_
_geom_bond_atom_site_label_1
_geom_bond_atom_site_label_2
_geom_bond_site_symmetry_1
_geom_bond_site_symmetry_2
C1 H1 1_555 1_555
C2 C1 1_555 1_555
H2 C2 1_555 1_555
C3 C2 1_555 1_555
H3 C3 1_555 1_555
C4 C3 1_555 1_555
H4 C4 1_555 1_555
C5 C4 1_555 1_555
C6 C5 1_555 1_555
H5 C6 1_555 1_555
C7 C8 1_555 1_555
C8 H6 1_555 1_555
C9 C8 1_555 1_555
H7 C9 1_555 1_555
C10 C9 1_555 1_555
C11 C10 1_555 1_555
H8 C11 1_555 1_555
C12 C7 1_555 1_555
H9 C12 1_555 1_555
C13 H10 1_555 1_555
H11 C13 1_555 1_555
C14 C13 1_555 1_555
H12 C14 1_555 1_555
H13 C14 1_555 1_555
C15 H14 1_555 1_555
C16 C15 1_555 1_555
H15 C16 1_555 1_555
C17 C16 1_555 1_555
H16 C17 1_555 1_555
C18 C17 1_555 1_555
H17 C18 1_555 1_555
C19 C18 1_555 1_555
C20 C19 1_555 1_555
H18 C20 1_555 1_555
C21 C22 1_555 1_555
C22 H19 1_555 1_555
C23 C22 1_555 1_555
H20 C23 1_555 1_555
C24 C23 1_555 1_555
C25 C24 1_555 1_555
H21 C25 1_555 1_555
C26 C21 1_555 1_555
H22 C26 1_555 1_555
N1 C1 1_555 1_555
N2 C6 1_555 1_555
N3 C15 1_555 1_555
N4 C20 1_555 1_555
O1 C10 1_555 1_555
O2 C14 1_555 1_555
Ag1 N1 1_555 1_555
O3 Cl1 1_555 1_555
O4 Cl1 1_555 1_555
O5 Cl1 1_555 1_555
O6 Cl1 1_555 1_555
N3A Ag1 1_555 1_555
N4A Ag1 1_555 1_555
Ag1A N3 1_555 1_555
C5 N1 1_555 1_555
C7 N2 1_555 1_555
C11 C12 1_555 1_555
C13 O1 1_555 1_555
C19 N3 1_555 1_555
C21 N4 1_555 1_555
C24 O2 1_555 1_555
C25 C26 1_555 1_555
N2 Ag1 1_555 1_555
N4 Ag1A 1_555 1_555

#END
