
#######################################################################
#
#                 Cambridge Crystallographic Data Centre
#                                CCDC 
#
#######################################################################
#
# If this CIF has been generated from an entry in the Cambridge 
# Structural Database, then it will include bibliographic, chemical, 
# crystal, experimental, refinement or atomic coordinate data resulting 
# from the CCDC's data processing and validation procedures.
#
#######################################################################

data_UBUNUC
_symmetry_cell_setting           monoclinic
_symmetry_space_group_name_H-M   'P 21/n'
_symmetry_Int_Tables_number      14
_space_group_name_Hall           '-P 2yn'
loop_
_symmetry_equiv_pos_site_id
_symmetry_equiv_pos_as_xyz
1 x,y,z
2 1/2-x,1/2+y,1/2-z
3 -x,-y,-z
4 1/2+x,1/2-y,1/2+z
_cell_length_a                   9.9581(14)
_cell_length_b                   6.3822(6)
_cell_length_c                   10.2433(15)
_cell_angle_alpha                90
_cell_angle_beta                 117.424(7)
_cell_angle_gamma                90
_cell_volume                     577.85
loop_
_atom_site_label
_atom_site_type_symbol
_atom_site_fract_x
_atom_site_fract_y
_atom_site_fract_z
Na1 Na 0.73364(16) 0.0284(2) 0.27697(15)
N1 N 0.5814(3) 0.0120(5) 0.4237(3)
C1 C 0.4834(4) 0.1640(6) 0.4101(4)
C2 C 0.6007(4) -0.1517(6) 0.5121(4)
C3 C 0.4834(4) 0.3361(6) 0.3044(4)
C4 C 0.7187(4) -0.3049(6) 0.5086(4)
O1 O 0.5671(3) 0.3182(4) 0.2483(3)
O2 O 0.3973(3) 0.4996(4) 0.2815(3)
H1 H 0.3475 0.4954 0.3288
O3 O 0.7791(3) -0.2591(4) 0.4320(3)
O4 O 0.7471(3) -0.4743(4) 0.5843(3)
O5 O 0.6015(3) -0.2092(4) 0.0777(3)
H2 H 0.5015 -0.2276 0.0381
H3 H 0.6381 -0.1813 0.0073
Na1B Na 0.26636(16) -0.0284(2) 0.72303(15)
Na1A Na 0.76636(16) 0.5284(2) 0.22303(15)
Na1A_2 Na 0.76636(16) -0.4716(2) 0.22303(15)
Na1C Na 0.23364(16) -0.5284(2) 0.77697(15)
Na1C_2 Na 0.23364(16) 0.4716(2) 0.77697(15)
N1B N 0.4186(3) -0.0120(5) 0.5763(3)
C1B C 0.5166(4) -0.1640(6) 0.5899(4)
C2B C 0.3993(4) 0.1517(6) 0.4879(4)
C3B C 0.5166(4) -0.3361(6) 0.6956(4)
C4B C 0.2813(4) 0.3049(6) 0.4914(4)
O1B O 0.4329(3) -0.3182(4) 0.7517(3)
O1A O 0.9329(3) -0.1818(4) 0.2517(3)
O1C O 0.0671(3) 0.1818(4) 0.7483(3)
O2B O 0.6027(3) -0.4996(4) 0.7185(3)
H1B H 0.6525 -0.4954 0.6712
O3B O 0.2209(3) 0.2591(4) 0.5680(3)
O3A O 0.7209(3) 0.2409(4) 0.0680(3)
O3C O 0.2791(3) -0.2409(4) 0.9320(3)
O4B O 0.2529(3) 0.4743(4) 0.4157(3)
O5A O 0.8985(3) 0.2908(4) 0.4223(3)
O5B O 0.3985(3) 0.2092(4) 0.9223(3)
O5C O 0.1015(3) -0.2908(4) 0.5777(3)
H2A H 0.9985 0.2724 0.4619
H2B H 0.4985 0.2276 0.9619
H2C H 0.0015 -0.2724 0.5381
H3A H 0.8619 0.3187 0.4927
H3B H 0.3619 0.1813 0.9927
H3C H 0.1381 -0.3187 0.5073
loop_
_geom_bond_atom_site_label_1
_geom_bond_atom_site_label_2
_geom_bond_site_symmetry_1
_geom_bond_site_symmetry_2
Na1 N1 1_555 1_555
N1 C1 1_555 1_555
C1 C3 1_555 1_555
C2 N1 1_555 1_555
C3 O1 1_555 1_555
C4 C2 1_555 1_555
O1 Na1 1_555 1_555
O2 C3 1_555 1_555
H1 O2 1_555 1_555
O3 Na1 1_555 1_555
O4 C4 1_555 1_555
O5 Na1 1_555 1_555
H2 O5 1_555 1_555
H3 O5 1_555 1_555
Na1B N1B 1_555 1_555
Na1A O1 1_555 1_555
Na1A_2 O3 1_555 1_555
Na1C O1B 1_555 1_555
Na1C_2 O1C 1_555 1_555
N1B C1B 1_555 1_555
C1B C2 1_555 1_555
C2B C1 1_555 1_555
C3B C1B 1_555 1_555
C4B C2B 1_555 1_555
O1B Na1B 1_555 1_555
O1A Na1 1_555 1_555
O1C Na1B 1_555 1_555
O2B C3B 1_555 1_555
H1B O2B 1_555 1_555
O3B Na1B 1_555 1_555
O3A Na1 1_555 1_555
O3C Na1B 1_555 1_555
O4B C4B 1_555 1_555
O5A Na1 1_555 1_555
O5B Na1B 1_555 1_555
O5C Na1B 1_555 1_555
H2A O5A 1_555 1_555
H2B O5B 1_555 1_555
H2C O5C 1_555 1_555
H3A O5A 1_555 1_555
H3B O5B 1_555 1_555
H3C O5C 1_555 1_555
C4 O3 1_555 1_555
O5 Na1A_2 1_555 1_555
Na1A O3A 1_555 1_555
Na1A O5A 1_555 1_555
Na1A_2 O1A 1_555 1_555
Na1C O3C 1_555 1_555
Na1C O5C 1_555 1_555
Na1C_2 O3B 1_555 1_555
Na1C_2 O5B 1_555 1_555
N1B C2B 1_555 1_555
C3B O1B 1_555 1_555
C4B O3B 1_555 1_555

#END
