
#######################################################################
#
#                 Cambridge Crystallographic Data Centre
#                                CCDC 
#
#######################################################################
#
# If this CIF has been generated from an entry in the Cambridge 
# Structural Database, then it will include bibliographic, chemical, 
# crystal, experimental, refinement or atomic coordinate data resulting 
# from the CCDC's data processing and validation procedures.
#
#######################################################################

data_UBUPEO
_symmetry_cell_setting           orthorhombic
_symmetry_space_group_name_H-M   'P b a m'
_symmetry_Int_Tables_number      55
_space_group_name_Hall           '-P 2 2ab'
loop_
_symmetry_equiv_pos_site_id
_symmetry_equiv_pos_as_xyz
1 x,y,z
2 -x,-y,z
3 1/2-x,1/2+y,-z
4 1/2+x,1/2-y,-z
5 -x,-y,-z
6 x,y,-z
7 1/2+x,1/2-y,z
8 1/2-x,1/2+y,z
_cell_length_a                   11.2006(7)
_cell_length_b                   5.8263(3)
_cell_length_c                   8.6056(3)
_cell_angle_alpha                90
_cell_angle_beta                 90
_cell_angle_gamma                90
_cell_volume                     561.585
loop_
_atom_site_label
_atom_site_type_symbol
_atom_site_fract_x
_atom_site_fract_y
_atom_site_fract_z
Cs1 Cs 0.127679(15) 0.21377(4) 0.0000
O1 O 0.37954(12) 0.2139(3) 0.1667(3)
O2 O 0.33338(14) -0.0165(3) 0.36105(19)
N1 N 0.5000 0.5000 0.3408(3)
C1 C 0.43932(18) 0.3374(4) 0.4175(3)
C2 C 0.37874(17) 0.1688(5) 0.3054(3)
Cs1_2 Cs 0.127679(15) 0.21377(4) 1.0000
Cs1A Cs -0.127679(15) -0.21377(4) 0.0000
Cs1A_2 Cs -0.127679(15) 0.78623(4) 0.0000
Cs1B Cs 0.372321(15) 0.71377(4) 0.0000
Cs1B_2 Cs 0.372321(15) -0.28623(4) 0.0000
Cs1C Cs 0.627679(15) 0.28623(4) 0.0000
Cs1C_2 Cs 0.627679(15) 0.28623(4) 1.0000
Cs1B_3 Cs 0.372321(15) 0.71377(4) 1.0000
Cs1B_4 Cs 0.372321(15) -0.28623(4) 1.0000
Cs1A_3 Cs 0.872321(15) 0.78623(4) 1.0000
Cs1C_3 Cs 0.627679(15) 1.28623(4) 1.0000
Cs1A_4 Cs 0.872321(15) 0.78623(4) 0.0000
Cs1C_4 Cs 0.627679(15) 1.28623(4) 0.0000
Cs1A_5 Cs -0.127679(15) -0.21377(4) 1.0000
Cs1A_6 Cs -0.127679(15) 0.78623(4) 1.0000
O1E O 0.37954(12) 0.2139(3) 0.8333(3)
O1D O 0.62046(12) 0.7861(3) 0.8333(3)
O1A O 0.62046(12) 0.7861(3) 0.1667(3)
O1B O 0.12046(12) -0.2861(3) -0.1667(3)
O1B_2 O 0.12046(12) 0.7139(3) -0.1667(3)
O1C O -0.12046(12) 0.2861(3) -0.1667(3)
O1E_2 O 0.37954(12) 0.2139(3) -0.1667(3)
O1F O -0.12046(12) 0.2861(3) 0.1667(3)
O1G O 0.12046(12) -0.2861(3) 0.1667(3)
O1G_2 O 0.12046(12) 0.7139(3) 0.1667(3)
O1G_3 O 0.12046(12) -0.2861(3) 1.1667(3)
O1G_4 O 0.12046(12) 0.7139(3) 1.1667(3)
O1F_2 O -0.12046(12) 0.2861(3) 1.1667(3)
O1_2 O 0.37954(12) 0.2139(3) 1.1667(3)
O1C_2 O -0.12046(12) 0.2861(3) 0.8333(3)
O1B_3 O 0.12046(12) -0.2861(3) 0.8333(3)
O1B_4 O 0.12046(12) 0.7139(3) 0.8333(3)
O2E O 0.33338(14) -0.0165(3) 0.63895(19)
O2D O 0.66662(14) 1.0165(3) 0.63895(19)
O2A O 0.66662(14) 1.0165(3) 0.36105(19)
O2B O 0.16662(14) 0.4835(3) -0.36105(19)
O2G O 0.16662(14) 0.4835(3) 0.36105(19)
O2G_2 O 0.16662(14) 0.4835(3) 1.36105(19)
O2B_2 O 0.16662(14) 0.4835(3) 0.63895(19)
N1D N 0.5000 0.5000 0.6592(3)
N1B N 0.0000 0.0000 -0.3408(3)
N1F N 0.0000 0.0000 0.3408(3)
N1F_2 N 0.0000 0.0000 1.3408(3)
N1B_2 N 0.0000 0.0000 0.6592(3)
C1A C 0.56068(18) 0.6626(4) 0.4175(3)
C1D C 0.56068(18) 0.6626(4) 0.5825(3)
C1E C 0.43932(18) 0.3374(4) 0.5825(3)
C2E C 0.37874(17) 0.1688(5) 0.6946(3)
C2D C 0.62126(17) 0.8312(5) 0.6946(3)
C2A C 0.62126(17) 0.8312(5) 0.3054(3)
loop_
_geom_bond_atom_site_label_1
_geom_bond_atom_site_label_2
_geom_bond_site_symmetry_1
_geom_bond_site_symmetry_2
Cs1 O1 1_555 1_555
O1 C2 1_555 1_555
O2 C2 1_555 1_555
N1 C1 1_555 1_555
C1 C2 1_555 1_555
Cs1_2 O1E 1_555 1_555
Cs1A O1B 1_555 1_555
Cs1A_2 O1B_2 1_555 1_555
Cs1B O1 1_555 1_555
Cs1B_2 O1 1_555 1_555
Cs1C O1 1_555 1_555
Cs1C_2 O1E 1_555 1_555
Cs1B_3 O1E 1_555 1_555
Cs1B_4 O1E 1_555 1_555
Cs1A_3 O1D 1_555 1_555
Cs1C_3 O1D 1_555 1_555
Cs1A_4 O1A 1_555 1_555
Cs1C_4 O1A 1_555 1_555
Cs1A_5 O1G_3 1_555 1_555
Cs1A_6 O1G_4 1_555 1_555
O1E C2E 1_555 1_555
O1D Cs1C_2 1_555 1_555
O1A Cs1B 1_555 1_555
O1B Cs1 1_555 1_555
O1B_2 Cs1 1_555 1_555
O1C Cs1 1_555 1_555
O1E_2 Cs1 1_555 1_555
O1F Cs1 1_555 1_555
O1G Cs1 1_555 1_555
O1G_2 Cs1 1_555 1_555
O1G_3 Cs1_2 1_555 1_555
O1G_4 Cs1_2 1_555 1_555
O1F_2 Cs1_2 1_555 1_555
O1_2 Cs1_2 1_555 1_555
O1C_2 Cs1_2 1_555 1_555
O1B_3 Cs1_2 1_555 1_555
O1B_4 Cs1_2 1_555 1_555
O2E Cs1B_4 1_555 1_555
O2D Cs1C_3 1_555 1_555
O2A Cs1C_4 1_555 1_555
O2B Cs1 1_555 1_555
O2G Cs1 1_555 1_555
O2G_2 Cs1_2 1_555 1_555
O2B_2 Cs1_2 1_555 1_555
N1D Cs1C_2 1_555 1_555
N1B Cs1 1_555 1_555
N1F Cs1 1_555 1_555
N1F_2 Cs1_2 1_555 1_555
N1B_2 Cs1_2 1_555 1_555
C1A N1 1_555 1_555
C1D N1D 1_555 1_555
C1E C1 1_555 1_555
C2E O2E 1_555 1_555
C2D O1D 1_555 1_555
C2A O1A 1_555 1_555
O2 Cs1B_2 1_555 1_555
N1 Cs1B 1_555 1_555
N1 Cs1C 1_555 1_555
Cs1A O1C 1_555 1_555
Cs1A O1F 1_555 1_555
Cs1A O1G 1_555 1_555
Cs1A N1B 1_555 1_555
Cs1A N1F 1_555 1_555
Cs1A_2 O1C 1_555 1_555
Cs1A_2 O1F 1_555 1_555
Cs1A_2 O1G_2 1_555 1_555
Cs1B O1B_2 1_555 1_555
Cs1B O1E_2 1_555 1_555
Cs1B O1G_2 1_555 1_555
Cs1B_2 O1B 1_555 1_555
Cs1B_2 O1E_2 1_555 1_555
Cs1B_2 O1G 1_555 1_555
Cs1C O1A 1_555 1_555
Cs1C O1E_2 1_555 1_555
Cs1C_2 O1_2 1_555 1_555
Cs1B_3 O1D 1_555 1_555
Cs1B_3 O1G_4 1_555 1_555
Cs1B_3 O1_2 1_555 1_555
Cs1B_3 O1B_4 1_555 1_555
Cs1B_3 N1D 1_555 1_555
Cs1B_4 O1G_3 1_555 1_555
Cs1B_4 O1_2 1_555 1_555
Cs1B_4 O1B_3 1_555 1_555
Cs1A_5 O1F_2 1_555 1_555
Cs1A_5 O1C_2 1_555 1_555
Cs1A_5 O1B_3 1_555 1_555
Cs1A_5 N1F_2 1_555 1_555
Cs1A_5 N1B_2 1_555 1_555
Cs1A_6 O1F_2 1_555 1_555
Cs1A_6 O1C_2 1_555 1_555
Cs1A_6 O1B_4 1_555 1_555
O2D C2D 1_555 1_555
O2A C2A 1_555 1_555
N1D C1E 1_555 1_555
C1A C1D 1_555 1_555
C1A C2A 1_555 1_555
C1D C2D 1_555 1_555
C1E C2E 1_555 1_555

#END
