
#######################################################################
#
#                 Cambridge Crystallographic Data Centre
#                                CCDC 
#
#######################################################################
#
# If this CIF has been generated from an entry in the Cambridge 
# Structural Database, then it will include bibliographic, chemical, 
# crystal, experimental, refinement or atomic coordinate data resulting 
# from the CCDC's data processing and validation procedures.
#
#######################################################################

data_UBUQEN
_symmetry_cell_setting           triclinic
_symmetry_space_group_name_H-M   'P -1'
_symmetry_Int_Tables_number      2
_space_group_name_Hall           '-P 1'
loop_
_symmetry_equiv_pos_site_id
_symmetry_equiv_pos_as_xyz
1 x,y,z
2 -x,-y,-z
_cell_length_a                   7.2794(4)
_cell_length_b                   9.0166(5)
_cell_length_c                   9.1923(5)
_cell_angle_alpha                89.7160(10)
_cell_angle_beta                 81.4320(10)
_cell_angle_gamma                82.3520(10)
_cell_volume                     591.232
loop_
_atom_site_label
_atom_site_type_symbol
_atom_site_fract_x
_atom_site_fract_y
_atom_site_fract_z
I1 I 0.5000 0.5000 -0.5000
K1 K 0.0000 0.0000 0.0000
O1 O 0.31987(19) -0.01438(14) -0.22298(14)
N1 N -0.0011(2) -0.21906(16) 0.24151(16)
C1 C 0.4156(3) -0.1633(2) -0.2212(2)
H1 H 0.5265 -0.1757 -0.2990
H2 H 0.3314 -0.2360 -0.2409
O2 O 0.31366(18) -0.17309(16) 0.03576(15)
N2 N 0.0634(3) -0.7598(2) 0.1838(2)
C2 C 0.4764(3) -0.1923(2) -0.0734(2)
H3 H 0.5423 -0.2954 -0.0707
H4 H 0.5634 -0.1215 -0.0544
C3 C 0.3475(3) -0.2303(2) 0.1755(2)
H5 H 0.4559 -0.1892 0.2055
H6 H 0.3770 -0.3406 0.1693
C4 C 0.1749(3) -0.1861(2) 0.2873(2)
H7 H 0.1916 -0.2390 0.3800
H8 H 0.1638 -0.0774 0.3081
C5 C -0.1617(3) -0.1772(2) 0.3578(2)
H9 H -0.1217 -0.1995 0.4548
H10 H -0.2613 -0.2392 0.3463
C6 C 0.2417(3) 0.0135(2) -0.3550(2)
H11 H 0.3398 -0.0115 -0.4413
H12 H 0.1414 -0.0498 -0.3595
C7 C 0.0060(3) -0.3711(2) 0.18591(19)
H13 H 0.1095 -0.3894 0.1023
H14 H -0.1124 -0.3796 0.1478
C8 C 0.0351(3) -0.4945(2) 0.30139(19)
H15 H 0.1504 -0.4842 0.3435
H16 H -0.0720 -0.4812 0.3824
C9 C 0.0512(3) -0.6442(2) 0.2364(2)
C6A C -0.2417(3) -0.0135(2) 0.3550(2)
O1A O -0.31987(19) 0.01438(14) 0.22298(14)
C1A C -0.4156(3) 0.1633(2) 0.2212(2)
H1A H -0.5265 0.1757 0.2990
H2A H -0.3314 0.2360 0.2409
C2A C -0.4764(3) 0.1923(2) 0.0734(2)
O2A O -0.31366(18) 0.17309(16) -0.03576(15)
C3A C -0.3475(3) 0.2303(2) -0.1755(2)
H5A H -0.4559 0.1892 -0.2055
H6A H -0.3770 0.3406 -0.1693
C4A C -0.1749(3) 0.1861(2) -0.2873(2)
N1A N 0.0011(2) 0.21906(16) -0.24151(16)
C5A C 0.1617(3) 0.1772(2) -0.3578(2)
H9A H 0.1217 0.1995 -0.4548
H10A H 0.2613 0.2392 -0.3463
C7A C -0.0060(3) 0.3711(2) -0.18591(19)
H13A H -0.1095 0.3894 -0.1023
H14A H 0.1124 0.3796 -0.1478
C8A C -0.0351(3) 0.4945(2) -0.30139(19)
H15A H -0.1504 0.4842 -0.3435
H16A H 0.0720 0.4812 -0.3824
C9A C -0.0512(3) 0.6442(2) -0.2364(2)
N2A N -0.0634(3) 0.7598(2) -0.1838(2)
H7A H -0.1916 0.2390 -0.3800
H8A H -0.1638 0.0774 -0.3081
H3A H -0.5423 0.2954 0.0707
H4A H -0.5634 0.1215 0.0544
H11A H -0.3398 0.0115 0.4413
H12A H -0.1414 0.0498 0.3595
N2_2 N 0.0634(3) 0.2402(2) 0.1838(2)
N2A_2 N -0.0634(3) -0.2402(2) -0.1838(2)
K1_2 K 0.0000 -1.0000 0.0000
K1_3 K 0.0000 1.0000 0.0000
loop_
_geom_bond_atom_site_label_1
_geom_bond_atom_site_label_2
_geom_bond_site_symmetry_1
_geom_bond_site_symmetry_2
K1 O1 1_555 1_555
O1 C1 1_555 1_555
N1 K1 1_555 1_555
C1 H1 1_555 1_555
H2 C1 1_555 1_555
O2 K1 1_555 1_555
N2 C9 1_555 1_555
C2 C1 1_555 1_555
H3 C2 1_555 1_555
H4 C2 1_555 1_555
C3 O2 1_555 1_555
H5 C3 1_555 1_555
H6 C3 1_555 1_555
C4 N1 1_555 1_555
H7 C4 1_555 1_555
H8 C4 1_555 1_555
C5 N1 1_555 1_555
H9 C5 1_555 1_555
H10 C5 1_555 1_555
C6 O1 1_555 1_555
H11 C6 1_555 1_555
H12 C6 1_555 1_555
C7 N1 1_555 1_555
H13 C7 1_555 1_555
H14 C7 1_555 1_555
C8 C7 1_555 1_555
H15 C8 1_555 1_555
H16 C8 1_555 1_555
C9 C8 1_555 1_555
C6A C5 1_555 1_555
O1A K1 1_555 1_555
C1A O1A 1_555 1_555
H1A C1A 1_555 1_555
H2A C1A 1_555 1_555
C2A C1A 1_555 1_555
O2A K1 1_555 1_555
C3A O2A 1_555 1_555
H5A C3A 1_555 1_555
H6A C3A 1_555 1_555
C4A C3A 1_555 1_555
N1A K1 1_555 1_555
C5A C6 1_555 1_555
H9A C5A 1_555 1_555
H10A C5A 1_555 1_555
C7A N1A 1_555 1_555
H13A C7A 1_555 1_555
H14A C7A 1_555 1_555
C8A C7A 1_555 1_555
H15A C8A 1_555 1_555
H16A C8A 1_555 1_555
C9A C8A 1_555 1_555
N2A C9A 1_555 1_555
H7A C4A 1_555 1_555
H8A C4A 1_555 1_555
H3A C2A 1_555 1_555
H4A C2A 1_555 1_555
H11A C6A 1_555 1_555
H12A C6A 1_555 1_555
N2_2 K1 1_555 1_555
N2A_2 K1 1_555 1_555
K1_2 N2 1_555 1_555
K1_3 N2A 1_555 1_555
O2 C2 1_555 1_555
C3 C4 1_555 1_555
C6A O1A 1_555 1_555
C2A O2A 1_555 1_555
C4A N1A 1_555 1_555
N1A C5A 1_555 1_555

#END
