
#######################################################################
#
#                 Cambridge Crystallographic Data Centre
#                                CCDC 
#
#######################################################################
#
# If this CIF has been generated from an entry in the Cambridge 
# Structural Database, then it will include bibliographic, chemical, 
# crystal, experimental, refinement or atomic coordinate data resulting 
# from the CCDC's data processing and validation procedures.
#
#######################################################################

data_UBURIU
_symmetry_cell_setting           monoclinic
_symmetry_space_group_name_H-M   'P 21/c'
_symmetry_Int_Tables_number      14
_space_group_name_Hall           '-P 2ybc'
loop_
_symmetry_equiv_pos_site_id
_symmetry_equiv_pos_as_xyz
1 x,y,z
2 -x,1/2+y,1/2-z
3 -x,-y,-z
4 x,1/2-y,1/2+z
_cell_length_a                   9.336(2)
_cell_length_b                   6.7742(14)
_cell_length_c                   13.874(3)
_cell_angle_alpha                90
_cell_angle_beta                 101.173(2)
_cell_angle_gamma                90
_cell_volume                     860.816
loop_
_atom_site_label
_atom_site_type_symbol
_atom_site_fract_x
_atom_site_fract_y
_atom_site_fract_z
Cs1 Cs 0.14724(3) 1.00162(3) 0.638387(16)
N1 N -0.1045(4) 1.5448(5) 0.5798(2)
N2 N -0.3174(4) 1.4834(3) 0.4554(3)
N3 N -0.3648(3) 1.2739(4) 0.65443(19)
H1 H -0.4420 1.3506 0.6269
N4 N -0.2065(3) 1.0892(4) 0.5872(2)
O1 O -0.0387(4) 1.4951(4) 0.6638(3)
O2 O -0.0623(3) 1.6843(3) 0.53506(19)
O3 O -0.3038(3) 1.6348(4) 0.40725(19)
O4 O -0.4229(3) 1.3670(4) 0.42629(18)
C1 C -0.2265(4) 1.4334(5) 0.5412(2)
C2 C -0.2625(3) 1.2571(5) 0.5943(2)
C3 C -0.2763(5) 0.9566(6) 0.6497(4)
H2 H -0.2098 0.9278 0.7109
H3 H -0.3057 0.8334 0.6159
C4 C -0.4088(4) 1.0704(6) 0.6684(3)
H4 H -0.4963 1.0349 0.6216
H5 H -0.4250 1.0489 0.7346
Cs1B Cs -0.14724(3) 0.99838(3) 0.361613(16)
Cs1A Cs -0.14724(3) 1.50162(3) 0.861613(16)
Cs1_2 Cs 0.14724(3) 2.00162(3) 0.638387(16)
Cs1B_2 Cs -0.14724(3) 1.99838(3) 0.361613(16)
N4B N 0.2065(3) 0.9108(4) 0.4128(2)
O1A O 0.0387(4) 0.9951(4) 0.8362(3)
O2_2 O -0.0623(3) 0.6843(3) 0.53506(19)
O2B O 0.0623(3) 1.3157(3) 0.46494(19)
O3B O 0.3038(3) 1.3652(4) 0.59275(19)
loop_
_geom_bond_atom_site_label_1
_geom_bond_atom_site_label_2
_geom_bond_site_symmetry_1
_geom_bond_site_symmetry_2
Cs1 N4 1_555 1_555
N1 O1 1_555 1_555
N2 O3 1_555 1_555
N3 H1 1_555 1_555
N4 C2 1_555 1_555
O1 Cs1A 1_555 1_555
O2 N1 1_555 1_555
O3 Cs1B_2 1_555 1_555
O4 N2 1_555 1_555
C1 N1 1_555 1_555
C2 N3 1_555 1_555
C3 N4 1_555 1_555
H2 C3 1_555 1_555
H3 C3 1_555 1_555
C4 N3 1_555 1_555
H4 C4 1_555 1_555
H5 C4 1_555 1_555
Cs1B N4 1_555 1_555
Cs1_2 O2 1_555 1_555
Cs1B_2 O2 1_555 1_555
N4B Cs1 1_555 1_555
O1A Cs1 1_555 1_555
O2_2 Cs1 1_555 1_555
O2B Cs1 1_555 1_555
O3B Cs1 1_555 1_555
N2 C1 1_555 1_555
C1 C2 1_555 1_555
C3 C4 1_555 1_555
Cs1B N4B 1_555 1_555
Cs1B O2_2 1_555 1_555
Cs1B O2B 1_555 1_555

#END
