
#######################################################################
#
#                 Cambridge Crystallographic Data Centre
#                                CCDC 
#
#######################################################################
#
# If this CIF has been generated from an entry in the Cambridge 
# Structural Database, then it will include bibliographic, chemical, 
# crystal, experimental, refinement or atomic coordinate data resulting 
# from the CCDC's data processing and validation procedures.
#
#######################################################################

data_UBUROA
_symmetry_cell_setting           triclinic
_symmetry_space_group_name_H-M   'P -1'
_symmetry_Int_Tables_number      2
_space_group_name_Hall           '-P 1'
loop_
_symmetry_equiv_pos_site_id
_symmetry_equiv_pos_as_xyz
1 x,y,z
2 -x,-y,-z
_cell_length_a                   9.3780(5)
_cell_length_b                   11.1991(16)
_cell_length_c                   13.5636(10)
_cell_angle_alpha                102.923(8)
_cell_angle_beta                 91.751(5)
_cell_angle_gamma                110.792(10)
_cell_volume                     1288.53
loop_
_atom_site_label
_atom_site_type_symbol
_atom_site_fract_x
_atom_site_fract_y
_atom_site_fract_z
C1 C -0.5831(5) -0.3554(4) 0.0639(3)
H1 H -0.5083 -0.3503 0.1130
C2 C -0.5703(5) -0.3683(4) -0.0364(3)
H2 H -0.4862 -0.3737 -0.0691
C3 C -0.7943(5) -0.3611(4) -0.0074(3)
H3 H -0.8926 -0.3607 -0.0179
C4 C -0.7402(5) -0.3771(4) -0.1871(3)
H4 H -0.8509 -0.4153 -0.2047
H5 H -0.6974 -0.4350 -0.2292
C5 C -0.7270(4) -0.2354(4) -0.3071(3)
C6 C -0.6800(4) -0.2449(4) -0.2117(3)
C7 C -0.5804(5) -0.1312(4) -0.1428(3)
H6 H -0.5468 -0.1362 -0.0791
C8 C -0.5308(6) -0.0115(4) -0.1675(4)
H7 H -0.4650 0.0637 -0.1204
C9 C -0.5778(6) -0.0028(4) -0.2605(4)
H8 H -0.5442 0.0782 -0.2770
C10 C -0.6760(5) -0.1150(4) -0.3308(3)
H9 H -0.7077 -0.1088 -0.3945
C11 C -0.8164(5) -0.3552(4) -0.5628(3)
H10 H -0.7314 -0.3795 -0.5695
C12 C -0.8334(5) -0.3603(4) -0.3821(3)
H11 H -0.7815 -0.4222 -0.3966
H12 H -0.9235 -0.4000 -0.3501
C27 C -1.0040(5) -0.3055(4) -0.4976(3)
H21 H -1.0715 -0.2892 -0.4524
C28 C -1.0061(5) -0.2986(4) -0.5958(3)
H22 H -1.0763 -0.2763 -0.6302
Ag1 Ag -0.81187(4) -0.33667(3) 0.22101(2)
N1 N -0.7044(4) -0.3718(3) -0.0803(2)
N2 N -0.7246(4) -0.3510(3) 0.0816(2)
N3 N -0.8832(4) -0.3409(3) -0.4777(2)
N4 N -0.8883(4) -0.3300(3) -0.6363(2)
Ag1_2 Ag -0.81187(4) -0.33667(3) -0.77899(2)
N4_2 N -0.8883(4) -0.3300(3) 0.3637(2)
C13 C -1.1737(5) -0.3410(4) -0.1806(3)
C14 C -1.0926(5) -0.2569(4) -0.0772(3)
C15 C -1.1512(5) -0.2824(5) 0.0108(3)
H13 H -1.2441 -0.3517 0.0075
C16 C -1.0709(5) -0.2044(4) 0.1049(3)
H14 H -1.1090 -0.2232 0.1645
C17 C -0.9332(5) -0.0979(4) 0.1103(3)
C18 C -0.8757(5) -0.0721(4) 0.0202(3)
H15 H -0.7846 -0.0012 0.0227
C19 C -0.9545(5) -0.1519(4) -0.0720(3)
H16 H -0.9151 -0.1357 -0.1319
C20 C -0.7724(5) 0.0839(4) 0.3593(3)
C21 C -0.8125(6) 0.0459(5) 0.4493(3)
H17 H -0.8838 -0.0378 0.4466
C22 C -0.7460(5) 0.1328(4) 0.5410(3)
H18 H -0.7739 0.1080 0.6008
C23 C -0.6374(5) 0.2575(4) 0.5468(3)
C24 C -0.5965(5) 0.2949(4) 0.4582(3)
H19 H -0.5232 0.3781 0.4619
C25 C -0.6641(5) 0.2094(4) 0.3633(3)
H20 H -0.6377 0.2352 0.3037
C26 C -0.5709(5) 0.3503(4) 0.6499(3)
O1 O -1.1019(4) -0.3484(4) -0.2532(2)
O2 O -1.3190(3) -0.4025(3) -0.18372(19)
H23 H -1.3550 -0.4459 -0.2421
O3 O -0.4494(3) 0.4492(3) 0.6508(2)
O4 O -0.6376(4) 0.3320(3) 0.7248(2)
N5 N -0.8353(9) 0.0068(8) 0.1902(5)
N6 N -0.8636(7) -0.0242(6) 0.2754(4)
N7? N -0.9057(11) -0.0680(9) 0.2263(6)
N8? N -0.8118(10) 0.0383(8) 0.2327(7)
loop_
_geom_bond_atom_site_label_1
_geom_bond_atom_site_label_2
_geom_bond_site_symmetry_1
_geom_bond_site_symmetry_2
C1 H1 1_555 1_555
C2 C1 1_555 1_555
H2 C2 1_555 1_555
C3 H3 1_555 1_555
C4 H4 1_555 1_555
H5 C4 1_555 1_555
C5 C6 1_555 1_555
C6 C4 1_555 1_555
C7 C6 1_555 1_555
H6 C7 1_555 1_555
C8 C7 1_555 1_555
H7 C8 1_555 1_555
C9 C8 1_555 1_555
H8 C9 1_555 1_555
C10 C5 1_555 1_555
H9 C10 1_555 1_555
C11 H10 1_555 1_555
C12 C5 1_555 1_555
H11 C12 1_555 1_555
H12 C12 1_555 1_555
C13 C14 1_555 1_555
C14 C15 1_555 1_555
C15 H13 1_555 1_555
C16 C15 1_555 1_555
H14 C16 1_555 1_555
C17 C16 1_555 1_555
C18 C17 1_555 1_555
H15 C18 1_555 1_555
C19 C14 1_555 1_555
H16 C19 1_555 1_555
C20 C21 1_555 1_555
C21 H17 1_555 1_555
C22 C21 1_555 1_555
H18 C22 1_555 1_555
C23 C22 1_555 1_555
C24 C23 1_555 1_555
H19 C24 1_555 1_555
C25 C20 1_555 1_555
H20 C25 1_555 1_555
C26 C23 1_555 1_555
C27 H21 1_555 1_555
C28 C27 1_555 1_555
H22 C28 1_555 1_555
O1 C13 1_555 1_555
O2 C13 1_555 1_555
H23 O2 1_555 1_555
O3 C26 1_555 1_555
O4 C26 1_555 1_555
Ag1 N2 1_555 1_555
N1 C2 1_555 1_555
N2 C1 1_555 1_555
N3 C11 1_555 1_555
N4 C11 1_555 1_555
N5 C17 1_555 1_555
N6 C20 1_555 1_555
Ag1_2 N4 1_555 1_555
N4_2 Ag1 1_555 1_555
C3 N1 1_555 1_555
C3 N2 1_555 1_555
C4 N1 1_555 1_555
C9 C10 1_555 1_555
C12 N3 1_555 1_555
C18 C19 1_555 1_555
C24 C25 1_555 1_555
C27 N3 1_555 1_555
C28 N4 1_555 1_555
N5 N6 1_555 1_555

#END
