
#######################################################################
#
#                 Cambridge Crystallographic Data Centre
#                                CCDC 
#
#######################################################################
#
# If this CIF has been generated from an entry in the Cambridge 
# Structural Database, then it will include bibliographic, chemical, 
# crystal, experimental, refinement or atomic coordinate data resulting 
# from the CCDC's data processing and validation procedures.
#
#######################################################################

data_UBUSER
_symmetry_cell_setting           monoclinic
_symmetry_space_group_name_H-M   'P 21/c'
_symmetry_Int_Tables_number      14
_space_group_name_Hall           '-P 2ybc'
loop_
_symmetry_equiv_pos_site_id
_symmetry_equiv_pos_as_xyz
1 x,y,z
2 -x,1/2+y,1/2-z
3 -x,-y,-z
4 x,1/2-y,1/2+z
_cell_length_a                   11.601(2)
_cell_length_b                   19.881(4)
_cell_length_c                   8.6741(17)
_cell_angle_alpha                90
_cell_angle_beta                 92.10(3)
_cell_angle_gamma                90
_cell_volume                     1999.25
loop_
_atom_site_label
_atom_site_type_symbol
_atom_site_fract_x
_atom_site_fract_y
_atom_site_fract_z
Cd1 Cd 0.29621(6) 0.19928(3) 0.76929(8)
O1 O 0.3016(6) 0.2211(3) 1.0359(7)
O2 O 0.3057(6) 0.1814(3) 1.2725(8)
N1 N 0.4945(6) 0.2032(4) 0.7670(9)
N2 N 1.0999(8) 0.2047(4) 0.7691(12)
N3 N 0.3140(7) 0.0962(4) 0.9143(9)
N4 N 0.3458(13) -0.0124(5) 1.1085(14)
C1 C 0.5566(9) 0.1538(6) 0.7026(14)
H1 H 0.5170 0.1180 0.6565
C2 C 0.6732(8) 0.1537(6) 0.7015(12)
H2 H 0.7112 0.1183 0.6551
C3 C 0.7360(9) 0.2052(6) 0.7684(12)
C4 C 0.6725(9) 0.2557(6) 0.8314(13)
H3 H 0.7105 0.2925 0.8761
C5 C 0.5554(8) 0.2535(5) 0.8303(13)
H4 H 0.5161 0.2886 0.8758
C6 C 0.8611(8) 0.2066(6) 0.7693(14)
C7 C 0.9209(10) 0.1484(7) 0.7775(17)
H5 H 0.8829 0.1074 0.7845
C8 C 1.0432(9) 0.1511(7) 0.7750(18)
H6 H 1.0837 0.1107 0.7779
C9 C 1.0421(9) 0.2596(7) 0.7668(18)
H7 H 1.0831 0.2998 0.7649
C10 C 0.9243(9) 0.2634(6) 0.7670(18)
H8 H 0.8880 0.3051 0.7656
C11 C 0.3182(9) 0.1032(5) 1.0664(11)
C12 C 0.3339(14) 0.0503(6) 1.1624(14)
H9 H 0.3366 0.0575 1.2684
C13 C 0.3394(12) -0.0200(5) 0.9578(16)
C14 C 0.3272(10) 0.0344(5) 0.8622(13)
H10 H 0.3282 0.0276 0.7562
C15 C 0.3520(14) -0.0895(7) 0.8930(17)
H11 H 0.3926 -0.0873 0.7987
H12 H 0.2770 -0.1087 0.8728
H13 H 0.3944 -0.1171 0.9661
C16 C 0.3072(8) 0.1726(5) 1.1315(13)
O3 O 0.2899(7) 0.1268(4) 0.5600(7)
H14 H 0.2703 0.1476 0.4818
Cd1C Cd 0.29621(6) 0.30072(3) 1.26929(8)
Cd1_2 Cd 1.29621(6) 0.19928(3) 0.76929(8)
O1C O 0.3016(6) 0.2789(3) 0.5359(7)
O2C O 0.3057(6) 0.3186(3) 0.7725(8)
N2_2 N 0.0999(8) 0.2047(4) 0.7691(12)
loop_
_geom_bond_atom_site_label_1
_geom_bond_atom_site_label_2
_geom_bond_site_symmetry_1
_geom_bond_site_symmetry_2
Cd1 O1 1_555 1_555
O1 C16 1_555 1_555
O2 C16 1_555 1_555
N1 Cd1 1_555 1_555
N2 C8 1_555 1_555
N3 Cd1 1_555 1_555
N4 C12 1_555 1_555
C1 N1 1_555 1_555
H1 C1 1_555 1_555
C2 C1 1_555 1_555
H2 C2 1_555 1_555
C3 C2 1_555 1_555
C4 C3 1_555 1_555
H3 C4 1_555 1_555
C5 N1 1_555 1_555
H4 C5 1_555 1_555
C6 C3 1_555 1_555
C7 C6 1_555 1_555
H5 C7 1_555 1_555
C8 C7 1_555 1_555
H6 C8 1_555 1_555
C9 N2 1_555 1_555
H7 C9 1_555 1_555
C10 C6 1_555 1_555
H8 C10 1_555 1_555
C11 N3 1_555 1_555
C12 C11 1_555 1_555
H9 C12 1_555 1_555
C13 N4 1_555 1_555
C14 N3 1_555 1_555
H10 C14 1_555 1_555
C15 C13 1_555 1_555
H11 C15 1_555 1_555
H12 C15 1_555 1_555
H13 C15 1_555 1_555
C16 C11 1_555 1_555
O3 Cd1 1_555 1_555
H14 O3 1_555 1_555
Cd1C O1 1_555 1_555
Cd1_2 N2 1_555 1_555
O1C Cd1 1_555 1_555
O2C Cd1 1_555 1_555
N2_2 Cd1 1_555 1_555
O2 Cd1C 1_555 1_555
C4 C5 1_555 1_555
C9 C10 1_555 1_555
C13 C14 1_555 1_555

#END
