
#######################################################################
#
#                 Cambridge Crystallographic Data Centre
#                                CCDC 
#
#######################################################################
#
# If this CIF has been generated from an entry in the Cambridge 
# Structural Database, then it will include bibliographic, chemical, 
# crystal, experimental, refinement or atomic coordinate data resulting 
# from the CCDC's data processing and validation procedures.
#
#######################################################################

data_UBUSIV
_symmetry_cell_setting           triclinic
_symmetry_space_group_name_H-M   'P -1'
_symmetry_Int_Tables_number      2
_space_group_name_Hall           '-P 1'
loop_
_symmetry_equiv_pos_site_id
_symmetry_equiv_pos_as_xyz
1 x,y,z
2 -x,-y,-z
_cell_length_a                   9.5078(6)
_cell_length_b                   12.6511(8)
_cell_length_c                   17.8591(12)
_cell_angle_alpha                78.441(2)
_cell_angle_beta                 78.6200(10)
_cell_angle_gamma                77.1240(10)
_cell_volume                     2025.3
loop_
_atom_site_label
_atom_site_type_symbol
_atom_site_fract_x
_atom_site_fract_y
_atom_site_fract_z
C1 C 0.1602(7) -0.7560(5) 0.3165(4)
C2 C -0.1776(7) -1.0232(5) 0.2888(4)
C3 C 0.0343(7) -0.3317(5) 0.4171(5)
C4 C 0.0837(7) -0.4425(5) 0.3917(4)
C5 C 0.0186(9) -0.4590(6) 0.3344(5)
H1 H -0.0474 -0.4013 0.3119
C6 C 0.1888(7) -0.5305(5) 0.4260(4)
C7 C -0.5211(7) -1.1524(5) 0.3319(4)
C8 C -0.6046(7) -1.0872(5) 0.3896(4)
C9 C -0.5725(8) -1.2380(6) 0.3116(5)
H2 H -0.6650 -1.2517 0.3340
C10 C -0.5456(7) -1.0143(5) 0.4128(4)
H3 H -0.5986 -0.9755 0.4516
C11 C -0.7571(7) -1.0989(5) 0.4257(4)
C12 C -0.3214(7) -1.0523(5) 0.3228(4)
C13 C -0.3777(7) -1.1337(5) 0.2988(4)
C14 C -0.1913(7) -0.7600(5) 0.3213(4)
H4 H -0.1674 -0.8074 0.3659
C15 C -0.1434(7) -0.7099(5) 0.1884(4)
C16 C -0.0525(7) -0.7259(5) 0.1157(4)
C17 C -0.0776(7) -0.6563(5) 0.0456(4)
C18 C -0.2657(7) -0.6215(5) 0.1911(4)
C19 C -0.3498(8) -0.6058(6) 0.2629(4)
H5 H -0.4314 -0.5495 0.2663
C20 C -0.2936(7) -0.5532(5) 0.1193(4)
C21 C 0.1549(8) -0.8251(6) 0.0520(5)
H6 H 0.2345 -0.8831 0.0535
C22 C -0.2048(7) -0.5711(5) 0.0505(4)
C23 C -0.3885(7) -0.4313(5) 0.0306(4)
C24 C -0.3108(8) -0.6743(6) 0.3286(4)
H7 H -0.3635 -0.6636 0.3771
C25 C 0.1391(9) -0.7592(7) -0.0184(5)
H8 H 0.2060 -0.7721 -0.0627
C26 C 0.0223(8) -0.6746(6) -0.0208(4)
H9 H 0.0092 -0.6284 -0.0675
C27 C -0.4782(7) -0.3392(5) -0.0123(4)
C28 C -0.4358(8) -0.3058(6) -0.0908(4)
C29 C -0.6355(9) -0.1535(6) -0.0983(5)
H10 H -0.6869 -0.0925 -0.1268
C30 C -0.6125(7) -0.2765(6) 0.0258(4)
C31 C -0.6747(9) -0.3034(7) 0.1030(5)
H11 H -0.6304 -0.3661 0.1331
C32 C 0.0484(8) -0.5608(6) 0.3085(5)
H12 H 0.0026 -0.5695 0.2693
C33 C 0.2178(7) -0.6328(5) 0.3992(4)
C34 C 0.3219(7) -0.7196(5) 0.4311(4)
H13 H 0.3428 -0.7863 0.4130
C35 C 0.3922(8) -0.7087(6) 0.4872(5)
H14 H 0.4590 -0.7674 0.5080
C36 C 0.3624(9) -0.6075(7) 0.5135(5)
H15 H 0.4105 -0.5992 0.5520
C37 C 0.2653(8) -0.5220(6) 0.4841(5)
H16 H 0.2482 -0.4558 0.5025
C38 C 0.1453(8) -0.6477(5) 0.3410(4)
C39 C -0.2922(8) -1.2028(6) 0.2464(4)
H17 H -0.1977 -1.1932 0.2248
C40 C -0.3466(9) -1.2831(7) 0.2274(5)
H18 H -0.2891 -1.3270 0.1925
C41 C -0.6857(8) -0.1817(6) -0.0192(5)
C42 C -0.8151(9) -0.1176(7) 0.0170(6)
H19 H -0.8633 -0.0556 -0.0120
C43 C -0.8684(10) -0.1453(8) 0.0922(7)
H20 H -0.9511 -0.1011 0.1150
C44 C -0.8006(10) -0.2395(8) 0.1360(6)
H21 H -0.8399 -0.2596 0.1876
C45 C -0.4050(7) -0.9964(5) 0.3790(4)
H22 H -0.3674 -0.9447 0.3954
C46 C -0.5143(9) -0.2128(6) -0.1341(5)
H23 H -0.4824 -0.1929 -0.1867
C47 C -0.4872(9) -1.3004(7) 0.2595(5)
H24 H -0.5231 -1.3548 0.2453
N1 N -0.1096(5) -0.7776(4) 0.2541(3)
N2 N 0.0643(6) -0.8118(4) 0.1183(3)
N3 N -0.4080(6) -0.4660(4) 0.1069(3)
N4 N -0.2655(6) -0.4940(4) -0.0051(3)
H25 H -0.2327 -0.4859 -0.0540
O1 O -0.1296(5) -1.0129(4) 0.2189(3)
O2 O -0.1069(4) -1.0023(3) 0.3370(3)
O4 O -0.0470(6) -0.2574(4) 0.3784(3)
O5 O 0.0771(6) -0.3134(4) 0.4753(3)
O6 O 0.2045(6) -0.7630(4) 0.2464(3)
O7 O 0.1212(5) -0.8365(4) 0.3643(3)
O8 O -0.8454(5) -1.1015(4) 0.3804(3)
O9 O -0.7992(5) -1.0986(4) 0.4960(3)
O10 O -0.3146(6) -0.3654(4) -0.1290(3)
Pb1 Pb 0.09940(3) -0.936640(19) 0.249760(15)
Pb2 Pb -0.06243(3) -1.128700(19) 0.463730(15)
H28 H -0.289(10) -0.325(6) -0.169(3)
O4_2 O -0.0470(6) -1.2574(4) 0.3784(3)
O5_2 O 0.0771(6) -1.3134(4) 0.4753(3)
O8_2 O 0.1546(5) -1.1015(4) 0.3804(3)
O9_2 O 0.2008(5) -1.0986(4) 0.4960(3)
Pb1_2 Pb -0.90060(3) -0.936640(19) 0.249760(15)
Pb2_2 Pb -0.06243(3) -0.128700(19) 0.463730(15)
Pb2_3 Pb -1.06243(3) -1.128700(19) 0.463730(15)
O3 O 0.449(3) -0.0649(14) 0.1337(19)
H26 H 0.4070 -0.0507 0.0941
H27 H 0.4213(18) -0.012(3) 0.1599(16)
loop_
_geom_bond_atom_site_label_1
_geom_bond_atom_site_label_2
_geom_bond_site_symmetry_1
_geom_bond_site_symmetry_2
C1 C38 1_555 1_555
C2 C12 1_555 1_555
C3 C4 1_555 1_555
C4 C5 1_555 1_555
C5 H1 1_555 1_555
C6 C4 1_555 1_555
C7 C8 1_555 1_555
C8 C10 1_555 1_555
C9 C7 1_555 1_555
H2 C9 1_555 1_555
C10 H3 1_555 1_555
C11 C8 1_555 1_555
C12 C13 1_555 1_555
C13 C7 1_555 1_555
C14 H4 1_555 1_555
C15 C16 1_555 1_555
C16 C17 1_555 1_555
C17 C22 1_555 1_555
C18 C15 1_555 1_555
C19 C18 1_555 1_555
H5 C19 1_555 1_555
C20 C18 1_555 1_555
C21 H6 1_555 1_555
C22 C20 1_555 1_555
C23 C27 1_555 1_555
C24 C14 1_555 1_555
H7 C24 1_555 1_555
C25 C21 1_555 1_555
H8 C25 1_555 1_555
C26 C17 1_555 1_555
H9 C26 1_555 1_555
C27 C28 1_555 1_555
C28 C46 1_555 1_555
C29 H10 1_555 1_555
C30 C27 1_555 1_555
C31 C30 1_555 1_555
H11 C31 1_555 1_555
C32 C5 1_555 1_555
H12 C32 1_555 1_555
C33 C6 1_555 1_555
C34 C33 1_555 1_555
H13 C34 1_555 1_555
C35 C34 1_555 1_555
H14 C35 1_555 1_555
C36 C35 1_555 1_555
H15 C36 1_555 1_555
C37 C6 1_555 1_555
H16 C37 1_555 1_555
C38 C32 1_555 1_555
C39 C13 1_555 1_555
H17 C39 1_555 1_555
C40 C39 1_555 1_555
H18 C40 1_555 1_555
C41 C29 1_555 1_555
C42 C41 1_555 1_555
H19 C42 1_555 1_555
C43 C42 1_555 1_555
H20 C43 1_555 1_555
C44 C31 1_555 1_555
H21 C44 1_555 1_555
C45 C10 1_555 1_555
H22 C45 1_555 1_555
C46 C29 1_555 1_555
H23 C46 1_555 1_555
C47 C9 1_555 1_555
H24 C47 1_555 1_555
N1 C14 1_555 1_555
N2 C16 1_555 1_555
N3 C20 1_555 1_555
N4 C22 1_555 1_555
H25 N4 1_555 1_555
O1 C2 1_555 1_555
O2 C2 1_555 1_555
O3 H26 1_555 1_555
H27 O3 1_555 1_555
O4 C3 1_555 1_555
O5 C3 1_555 1_555
O6 C1 1_555 1_555
O7 C1 1_555 1_555
O8 C11 1_555 1_555
O9 C11 1_555 1_555
O10 C28 1_555 1_555
Pb1 N1 1_555 1_555
Pb2 O2 1_555 1_555
H28 O10 1_555 1_555
O4_2 Pb2 1_555 1_555
O5_2 Pb2 1_555 1_555
O8_2 Pb1 1_555 1_555
O9_2 Pb2 1_555 1_555
Pb1_2 O8 1_555 1_555
Pb2_2 O4 1_555 1_555
Pb2_3 O8 1_555 1_555
C12 C45 1_555 1_555
C15 N1 1_555 1_555
C19 C24 1_555 1_555
C21 N2 1_555 1_555
C23 N3 1_555 1_555
C23 N4 1_555 1_555
C25 C26 1_555 1_555
C30 C41 1_555 1_555
C33 C38 1_555 1_555
C36 C37 1_555 1_555
C40 C47 1_555 1_555
C43 C44 1_555 1_555
N2 Pb1 1_555 1_555
O1 Pb1 1_555 1_555
O2 Pb1 1_555 1_555
O5 Pb2_2 1_555 1_555
O6 Pb1 1_555 1_555
O7 Pb1 1_555 1_555
O9 Pb2_3 1_555 1_555
Pb2 O8_2 1_555 1_555

#END
