
#######################################################################
#
#                 Cambridge Crystallographic Data Centre
#                                CCDC 
#
#######################################################################
#
# If this CIF has been generated from an entry in the Cambridge 
# Structural Database, then it will include bibliographic, chemical, 
# crystal, experimental, refinement or atomic coordinate data resulting 
# from the CCDC's data processing and validation procedures.
#
#######################################################################

data_UBUSOB
_symmetry_cell_setting           triclinic
_symmetry_space_group_name_H-M   'P -1'
_symmetry_Int_Tables_number      2
_space_group_name_Hall           '-P 1'
loop_
_symmetry_equiv_pos_site_id
_symmetry_equiv_pos_as_xyz
1 x,y,z
2 -x,-y,-z
_cell_length_a                   7.5611(5)
_cell_length_b                   10.0363(4)
_cell_length_c                   14.8279(9)
_cell_angle_alpha                91.1900(10)
_cell_angle_beta                 100.569(2)
_cell_angle_gamma                106.9660(10)
_cell_volume                     1054.68
loop_
_atom_site_label
_atom_site_type_symbol
_atom_site_fract_x
_atom_site_fract_y
_atom_site_fract_z
C1 C 0.8897(3) 0.5569(3) 0.59167(17)
H1 H 0.9838 0.6104 0.6390
C2 C 0.8638(3) 0.6122(3) 0.50583(17)
H2 H 0.9373 0.7013 0.4974
C3 C 0.7292(3) 0.5338(2) 0.43463(17)
H3 H 0.7122 0.5680 0.3769
C4 C 0.6170(3) 0.4008(2) 0.45009(15)
C5 C 0.6474(3) 0.3540(2) 0.53915(15)
C6 C 0.5249(3) 0.2231(2) 0.56182(14)
C7 C 0.4355(4) 0.0820(3) 0.67660(17)
H4 H 0.4527 0.0637 0.7383
C8 C 0.2866(4) -0.0103(3) 0.61438(18)
H5 H 0.2064 -0.0877 0.6348
C9 C 0.2597(4) 0.0143(3) 0.52303(17)
H6 H 0.1630 -0.0473 0.4805
C10 C 0.3804(3) 0.1342(2) 0.49445(15)
C11 C 0.3622(3) 0.1778(2) 0.40252(15)
C12 C 0.4710(3) 0.3060(2) 0.38350(15)
C13 C 0.2705(4) 0.1987(3) 0.26010(16)
C14 C 0.1762(4) 0.1799(3) 0.16144(17)
C15 C -0.0006(4) 0.1981(3) 0.13447(19)
C16 C 0.2666(4) 0.1585(3) 0.09196(19)
C17 C 1.2342(3) 0.3969(2) 0.82666(15)
C18 C 1.3767(3) 0.4569(2) 0.91445(14)
C19 C 1.3223(3) 0.5166(2) 0.98615(14)
H7 H 1.2029 0.5284 0.9769
C20 C 1.5580(3) 0.4412(2) 0.92889(14)
C21 C -0.0849(5) 0.1963(3) 0.0433(2)
H8 H -0.2038 0.2083 0.0273
C22 C 0.0114(5) 0.1765(3) -0.0220(2)
H9 H -0.0428 0.1765 -0.0836
C23 C 0.1852(5) 0.1565(3) -0.0005(2)
H10 H 0.2476 0.1419 -0.0466
C24 C 1.6378(3) 0.3894(2) 0.85456(14)
N1 N 0.7862(3) 0.4317(2) 0.60851(12)
N2 N 0.5534(3) 0.1943(2) 0.65156(12)
N3 N 0.2356(3) 0.1096(2) 0.32376(13)
N4 N 0.4097(3) 0.3179(2) 0.29219(13)
H11 H 0.4516 0.3877 0.2612
O1 O 1.2713(3) 0.3128(2) 0.77568(13)
O2 O 1.0831(2) 0.43061(19) 0.81300(11)
O3 O 0.9349(3) 0.1834(2) 0.68740(14)
O4 O 1.6717(2) 0.46563(18) 0.78892(11)
O5 O 1.6864(2) 0.28067(18) 0.86111(11)
F1 F -0.0964(2) 0.2207(2) 0.20222(11)
Cl1 Cl 0.48055(13) 0.13331(13) 0.12074(6)
Fe1 Fe 0.81553(4) 0.33142(3) 0.73714(2)
H12 H 1.060(6) 0.214(4) 0.716(3)
H13 H 0.894(5) 0.100(4) 0.695(2)
C1A C 2.1103(3) 0.4431(3) 1.40833(17)
H1A H 2.0162 0.3896 1.3610
C2A C 2.1362(3) 0.3878(3) 1.49417(17)
H2A H 2.0627 0.2987 1.5026
C3A C 2.2708(3) 0.4662(2) 1.56537(17)
H3A H 2.2878 0.4320 1.6231
C4A C 2.3830(3) 0.5992(2) 1.54991(15)
C5A C 2.3526(3) 0.6460(2) 1.46085(15)
C6A C 2.4751(3) 0.7769(2) 1.43818(14)
C7A C 2.5645(4) 0.9180(3) 1.32340(17)
H4A H 2.5473 0.9363 1.2617
C8A C 2.7134(4) 1.0103(3) 1.38562(18)
H5A H 2.7936 1.0877 1.3652
C9A C 2.7403(4) 0.9857(3) 1.47697(17)
H6A H 2.8370 1.0473 1.5195
C10A C 2.6196(3) 0.8658(2) 1.50555(15)
C11A C 2.6378(3) 0.8222(2) 1.59748(15)
C12A C 2.5290(3) 0.6940(2) 1.61650(15)
C13A C 2.7295(4) 0.8013(3) 1.73990(16)
C14A C 2.8238(4) 0.8201(3) 1.83856(17)
C15A C 3.0006(4) 0.8019(3) 1.86553(19)
C16A C 2.7334(4) 0.8415(3) 1.90804(19)
C17A C 1.7658(3) 0.6031(2) 1.17334(15)
C18A C 1.6233(3) 0.5431(2) 1.08555(14)
C19A C 1.6777(3) 0.4834(2) 1.01385(14)
H7A H 1.7971 0.4716 1.0231
C20A C 1.4420(3) 0.5588(2) 1.07111(14)
C21A C 3.0849(5) 0.8037(3) 1.9567(2)
H8A H 3.2038 0.7917 1.9727
C22A C 2.9886(5) 0.8235(3) 2.0220(2)
H9A H 3.0428 0.8235 2.0836
C23A C 2.8148(5) 0.8435(3) 2.0005(2)
H10A H 2.7524 0.8581 2.0466
C24A C 1.3622(3) 0.6106(2) 1.14544(14)
N1A N 2.2138(3) 0.5683(2) 1.39149(12)
N2A N 2.4466(3) 0.8057(2) 1.34844(12)
N3A N 2.7644(3) 0.8904(2) 1.67624(13)
N4A N 2.5903(3) 0.6821(2) 1.70781(13)
H11A H 2.5484 0.6123 1.7388
O1A O 1.7287(3) 0.6872(2) 1.22432(13)
O2A O 1.9169(2) 0.56939(19) 1.18700(11)
O3A O 2.0651(3) 0.8166(2) 1.31260(14)
O4A O 1.3283(2) 0.53437(18) 1.21108(11)
O4_2 O 0.6717(2) 0.46563(18) 0.78892(11)
O4A_2 O 2.3283(2) 0.53437(18) 1.21108(11)
O5A O 1.3136(2) 0.71933(18) 1.13889(11)
O5_2 O 0.6864(2) 0.28067(18) 0.86111(11)
O5A_2 O 2.3136(2) 0.71933(18) 1.13889(11)
F1A F 3.0964(2) 0.7793(2) 1.79778(11)
Cl1A Cl 2.51945(13) 0.86669(13) 1.87926(6)
Fe1A Fe 2.18447(4) 0.66858(3) 1.26286(2)
Fe1_2 Fe 1.81553(4) 0.33142(3) 0.73714(2)
Fe1A_2 Fe 1.18447(4) 0.66858(3) 1.26286(2)
H12A H 1.940(6) 0.786(4) 1.284(3)
H13A H 2.106(5) 0.900(4) 1.305(2)
loop_
_geom_bond_atom_site_label_1
_geom_bond_atom_site_label_2
_geom_bond_site_symmetry_1
_geom_bond_site_symmetry_2
C1 H1 1_555 1_555
C2 C1 1_555 1_555
H2 C2 1_555 1_555
C3 C2 1_555 1_555
H3 C3 1_555 1_555
C4 C3 1_555 1_555
C5 C4 1_555 1_555
C6 C5 1_555 1_555
C7 H4 1_555 1_555
C8 C7 1_555 1_555
H5 C8 1_555 1_555
C9 C8 1_555 1_555
H6 C9 1_555 1_555
C10 C6 1_555 1_555
C11 C10 1_555 1_555
C12 C4 1_555 1_555
C13 C14 1_555 1_555
C14 C15 1_555 1_555
C15 C21 1_555 1_555
C16 C14 1_555 1_555
C17 C18 1_555 1_555
C18 C19 1_555 1_555
C19 H7 1_555 1_555
C20 C18 1_555 1_555
C21 H8 1_555 1_555
C22 C21 1_555 1_555
H9 C22 1_555 1_555
C23 C16 1_555 1_555
H10 C23 1_555 1_555
C24 C20 1_555 1_555
N1 C1 1_555 1_555
N2 C6 1_555 1_555
N3 C11 1_555 1_555
N4 C12 1_555 1_555
H11 N4 1_555 1_555
O1 C17 1_555 1_555
O2 C17 1_555 1_555
O3 Fe1 1_555 1_555
O4 C24 1_555 1_555
O5 C24 1_555 1_555
F1 C15 1_555 1_555
Cl1 C16 1_555 1_555
Fe1 N1 1_555 1_555
H12 O3 1_555 1_555
H13 O3 1_555 1_555
C1A H1A 1_555 1_555
C2A C1A 1_555 1_555
H2A C2A 1_555 1_555
C3A C2A 1_555 1_555
H3A C3A 1_555 1_555
C4A C3A 1_555 1_555
C5A C4A 1_555 1_555
C6A C5A 1_555 1_555
C7A H4A 1_555 1_555
C8A C7A 1_555 1_555
H5A C8A 1_555 1_555
C9A C8A 1_555 1_555
H6A C9A 1_555 1_555
C10A C6A 1_555 1_555
C11A C10A 1_555 1_555
C12A C4A 1_555 1_555
C13A C14A 1_555 1_555
C14A C15A 1_555 1_555
C15A C21A 1_555 1_555
C16A C14A 1_555 1_555
C17A C18A 1_555 1_555
C18A C19A 1_555 1_555
C19A C20 1_555 1_555
H7A C19A 1_555 1_555
C20A C19 1_555 1_555
C21A H8A 1_555 1_555
C22A C21A 1_555 1_555
H9A C22A 1_555 1_555
C23A C16A 1_555 1_555
H10A C23A 1_555 1_555
C24A C20A 1_555 1_555
N1A C1A 1_555 1_555
N2A C6A 1_555 1_555
N3A C11A 1_555 1_555
N4A C12A 1_555 1_555
H11A N4A 1_555 1_555
O1A C17A 1_555 1_555
O2A C17A 1_555 1_555
O3A Fe1A 1_555 1_555
O4A C24A 1_555 1_555
O4_2 Fe1 1_555 1_555
O4A_2 Fe1A 1_555 1_555
O5A C24A 1_555 1_555
O5_2 Fe1 1_555 1_555
O5A_2 Fe1A 1_555 1_555
F1A C15A 1_555 1_555
Cl1A C16A 1_555 1_555
Fe1A N1A 1_555 1_555
Fe1_2 O4 1_555 1_555
Fe1A_2 O4A 1_555 1_555
H12A O3A 1_555 1_555
H13A O3A 1_555 1_555
C5 N1 1_555 1_555
C7 N2 1_555 1_555
C9 C10 1_555 1_555
C11 C12 1_555 1_555
C13 N3 1_555 1_555
C13 N4 1_555 1_555
C22 C23 1_555 1_555
N2 Fe1 1_555 1_555
O2 Fe1 1_555 1_555
O5 Fe1_2 1_555 1_555
C5A N1A 1_555 1_555
C7A N2A 1_555 1_555
C9A C10A 1_555 1_555
C11A C12A 1_555 1_555
C13A N3A 1_555 1_555
C13A N4A 1_555 1_555
C18A C20A 1_555 1_555
C22A C23A 1_555 1_555
N2A Fe1A 1_555 1_555
O2A Fe1A 1_555 1_555
O5A Fe1A_2 1_555 1_555

#END
