
#######################################################################
#
#                 Cambridge Crystallographic Data Centre
#                                CCDC 
#
#######################################################################
#
# If this CIF has been generated from an entry in the Cambridge 
# Structural Database, then it will include bibliographic, chemical, 
# crystal, experimental, refinement or atomic coordinate data resulting 
# from the CCDC's data processing and validation procedures.
#
#######################################################################

data_UBUTOC
_symmetry_cell_setting           monoclinic
_symmetry_space_group_name_H-M   'P 2/c'
_symmetry_Int_Tables_number      13
_space_group_name_Hall           '-P 2yc'
loop_
_symmetry_equiv_pos_site_id
_symmetry_equiv_pos_as_xyz
1 x,y,z
2 -x,y,1/2-z
3 -x,-y,-z
4 x,-y,1/2+z
_cell_length_a                   17.734(4)
_cell_length_b                   11.665(3)
_cell_length_c                   10.912(3)
_cell_angle_alpha                90
_cell_angle_beta                 103.446(5)
_cell_angle_gamma                90
_cell_volume                     2195.46
loop_
_atom_site_label
_atom_site_type_symbol
_atom_site_fract_x
_atom_site_fract_y
_atom_site_fract_z
Cd1 Cd 0.0000 -0.038890(13) 0.7500
C1 C 0.17449(12) -0.08237(16) 0.7225(2)
C2 C 0.23103(13) -0.0830(2) 0.6404(2)
H1 H 0.2159 -0.0483 0.5617
C3 C 0.29990(12) -0.12837(19) 0.6706(2)
H2 H 0.3151 -0.1607 0.7504
C4 C 0.35596(12) -0.1332(2) 0.5901(2)
C5 C 0.34977(14) -0.0650(2) 0.4845(3)
H3 H 0.3100 -0.0115 0.4633
C6 C 0.40300(15) -0.0767(3) 0.4104(3)
H4 H 0.3992 -0.0300 0.3402
C7 C 0.46116(14) -0.1563(3) 0.4394(2)
H5 H 0.4965 -0.1637 0.3888
C8 C 0.46724(14) -0.2250(2) 0.5434(2)
C9 C 0.41538(13) -0.2120(2) 0.6199(2)
H6 H 0.4207 -0.2568 0.6919
C10 C -0.04924(13) 0.21848(15) 0.8004(2)
H7 H -0.0844 0.1785 0.8355
C11 C -0.05080(12) 0.33614(15) 0.8033(2)
H8 H -0.0858 0.3740 0.8408
C12 C 0.0000 0.39785(19) 0.7500
C13 C 0.0000 0.52424(18) 0.7500
C14 C 0.02523(11) 0.58600(14) 0.65864(17)
H9 H 0.0432 0.5481 0.5960
C15 C 0.02349(11) 0.70365(14) 0.66142(18)
H10 H 0.0395 0.7439 0.5984
N1 N 0.0000 0.15836(17) 0.7500
N2 N 0.0000 0.76286(16) 0.7500
O1 O 0.10886(8) -0.04153(11) 0.67056(14)
O2 O -0.07886(9) -0.06801(14) 0.55287(15)
H11 H -0.0916(15) -0.022(2) 0.493(2)
H12 H -0.1199(12) -0.082(2) 0.574(2)
O3 O 0.19285(9) -0.12030(15) 0.83174(16)
O4 O 0.52264(12) -0.3066(2) 0.57759(18)
H13 H 0.5476(17) -0.322(3) 0.514(2)
Cd1_2 Cd 0.0000 0.961110(13) 0.7500
C1A C -0.17449(12) -0.08237(16) 0.7775(2)
C2A C -0.23103(13) -0.0830(2) 0.8596(2)
H1A H -0.2159 -0.0483 0.9383
C3A C -0.29990(12) -0.12837(19) 0.8294(2)
H2A H -0.3151 -0.1607 0.7496
C4A C -0.35596(12) -0.1332(2) 0.9099(2)
C5A C -0.34977(14) -0.0650(2) 1.0155(3)
H3A H -0.3100 -0.0115 1.0367
C6A C -0.40300(15) -0.0767(3) 1.0896(3)
H4A H -0.3992 -0.0300 1.1598
C7A C -0.46116(14) -0.1563(3) 1.0606(2)
H5A H -0.4965 -0.1637 1.1112
C8A C -0.46724(14) -0.2250(2) 0.9566(2)
C9A C -0.41538(13) -0.2120(2) 0.8801(2)
H6A H -0.4207 -0.2568 0.8081
C10A C 0.04924(13) 0.21848(15) 0.6996(2)
H7A H 0.0844 0.1785 0.6645
C11A C 0.05080(12) 0.33614(15) 0.6967(2)
H8A H 0.0858 0.3740 0.6592
C14A C -0.02523(11) 0.58600(14) 0.84136(17)
H9A H -0.0432 0.5481 0.9040
C15A C -0.02349(11) 0.70365(14) 0.83858(18)
H10A H -0.0395 0.7439 0.9016
N2_2 N 0.0000 -0.23714(16) 0.7500
O1A O -0.10886(8) -0.04153(11) 0.82944(14)
O2A O 0.07886(9) -0.06801(14) 0.94713(15)
H11A H 0.0916(15) -0.022(2) 1.007(2)
H12A H 0.1199(12) -0.082(2) 0.926(2)
O3A O -0.19285(9) -0.12030(15) 0.66826(16)
O4A O -0.52264(12) -0.3066(2) 0.92241(18)
H13A H -0.5476(17) -0.322(3) 0.986(2)
C16 C 0.29901(17) 0.6993(3) 0.2100(3)
H14 H 0.2643 0.7527 0.2286
C17 C 0.3440(2) 0.7260(3) 0.1263(3)
H15 H 0.3385 0.7984 0.0895
C18 C 0.40173(17) 0.5535(3) 0.1502(3)
H16 H 0.4375 0.5024 0.1308
C19 C 0.35952(16) 0.5189(3) 0.2348(3)
H17 H 0.3670 0.4463 0.2710
C20 C 0.30610(14) 0.5930(2) 0.2654(2)
C21 C 0.25718(13) 0.5578(2) 0.3515(2)
C22 C 0.23187(14) 0.4464(2) 0.3556(2)
H18 H 0.2468 0.3905 0.3054
C23 C 0.18436(14) 0.4184(2) 0.4344(2)
H19 H 0.1677 0.3429 0.4349
C24 C 0.18614(15) 0.5989(2) 0.5060(2)
H20 H 0.1708 0.6526 0.5584
C25 C 0.23338(14) 0.6358(2) 0.4302(2)
H21 H 0.2491 0.7120 0.4320
N3 N 0.39441(15) 0.6545(3) 0.0954(2)
N4 N 0.16103(12) 0.4927(2) 0.5095(2)
loop_
_geom_bond_atom_site_label_1
_geom_bond_atom_site_label_2
_geom_bond_site_symmetry_1
_geom_bond_site_symmetry_2
Cd1 N1 1_555 1_555
C1 C2 1_555 1_555
C2 H1 1_555 1_555
C3 C2 1_555 1_555
H2 C3 1_555 1_555
C4 C3 1_555 1_555
C5 C4 1_555 1_555
H3 C5 1_555 1_555
C6 C5 1_555 1_555
H4 C6 1_555 1_555
C7 C6 1_555 1_555
H5 C7 1_555 1_555
C8 C7 1_555 1_555
C9 C4 1_555 1_555
H6 C9 1_555 1_555
C10 H7 1_555 1_555
C11 C10 1_555 1_555
H8 C11 1_555 1_555
C12 C11 1_555 1_555
C13 C12 1_555 1_555
C14 C13 1_555 1_555
H9 C14 1_555 1_555
C15 C14 1_555 1_555
H10 C15 1_555 1_555
N1 C10 1_555 1_555
N2 C15 1_555 1_555
O1 Cd1 1_555 1_555
O2 Cd1 1_555 1_555
H11 O2 1_555 1_555
H12 O2 1_555 1_555
O3 C1 1_555 1_555
O4 C8 1_555 1_555
H13 O4 1_555 1_555
C16 H14 1_555 1_555
C17 C16 1_555 1_555
H15 C17 1_555 1_555
C18 H16 1_555 1_555
C19 C18 1_555 1_555
H17 C19 1_555 1_555
C20 C16 1_555 1_555
C21 C20 1_555 1_555
C22 C21 1_555 1_555
H18 C22 1_555 1_555
C23 C22 1_555 1_555
H19 C23 1_555 1_555
C24 H20 1_555 1_555
C25 C21 1_555 1_555
H21 C25 1_555 1_555
N3 C17 1_555 1_555
N4 C23 1_555 1_555
Cd1_2 N2 1_555 1_555
C1A C2A 1_555 1_555
C2A H1A 1_555 1_555
C3A C2A 1_555 1_555
H2A C3A 1_555 1_555
C4A C3A 1_555 1_555
C5A C4A 1_555 1_555
H3A C5A 1_555 1_555
C6A C5A 1_555 1_555
H4A C6A 1_555 1_555
C7A C6A 1_555 1_555
H5A C7A 1_555 1_555
C8A C7A 1_555 1_555
C9A C4A 1_555 1_555
H6A C9A 1_555 1_555
C10A N1 1_555 1_555
H7A C10A 1_555 1_555
C11A C12 1_555 1_555
H8A C11A 1_555 1_555
C14A C13 1_555 1_555
H9A C14A 1_555 1_555
C15A N2 1_555 1_555
H10A C15A 1_555 1_555
N2_2 Cd1 1_555 1_555
O1A Cd1 1_555 1_555
O2A Cd1 1_555 1_555
H11A O2A 1_555 1_555
H12A O2A 1_555 1_555
O3A C1A 1_555 1_555
O4A C8A 1_555 1_555
H13A O4A 1_555 1_555
C1 O1 1_555 1_555
C8 C9 1_555 1_555
C18 N3 1_555 1_555
C19 C20 1_555 1_555
C24 C25 1_555 1_555
C24 N4 1_555 1_555
C1A O1A 1_555 1_555
C8A C9A 1_555 1_555
C10A C11A 1_555 1_555
C14A C15A 1_555 1_555

#END
