
#######################################################################
#
#                 Cambridge Crystallographic Data Centre
#                                CCDC 
#
#######################################################################
#
# If this CIF has been generated from an entry in the Cambridge 
# Structural Database, then it will include bibliographic, chemical, 
# crystal, experimental, refinement or atomic coordinate data resulting 
# from the CCDC's data processing and validation procedures.
#
#######################################################################

data_UBUTES
_symmetry_cell_setting           triclinic
_symmetry_space_group_name_H-M   'P -1'
_symmetry_Int_Tables_number      2
_space_group_name_Hall           '-P 1'
loop_
_symmetry_equiv_pos_site_id
_symmetry_equiv_pos_as_xyz
1 x,y,z
2 -x,-y,-z
_cell_length_a                   7.5833(8)
_cell_length_b                   11.5589(12)
_cell_length_c                   13.5967(14)
_cell_angle_alpha                107.395(2)
_cell_angle_beta                 99.387(2)
_cell_angle_gamma                101.218(2)
_cell_volume                     1083.96
loop_
_atom_site_label
_atom_site_type_symbol
_atom_site_fract_x
_atom_site_fract_y
_atom_site_fract_z
Mn1 Mn 1.0000 0.0000 1.0000
Cl1 Cl 1.06392(12) 0.31932(7) 0.61745(7)
O1 O 0.78836(19) -0.08778(13) 0.85245(11)
C1 C 0.8069(4) 0.1256(2) 0.6237(2)
H1 H 0.7221 0.1724 0.6161
C2 C 0.3446(4) -0.3849(3) 0.5174(2)
H2 H 0.2834 -0.4365 0.4485
N1 N 1.0037(3) 0.19374(15) 0.99980(14)
O2 O 0.9379(2) -0.24293(17) 0.67683(14)
C3 C 0.8792(3) -0.0613(2) 0.64614(16)
C4 C 0.6219(3) -0.2456(2) 0.64241(17)
C5 C 0.5279(3) -0.2306(2) 0.72328(17)
O3 O 0.5309(3) -0.1445(2) 0.90457(15)
C6 C 1.1178(4) 0.1025(3) 0.63543(19)
H3 H 1.2400 0.1339 0.6346
C7 C 1.0011(3) 0.43578(17) 1.00005(15)
C8 C 0.9907(4) 0.40269(19) 1.08932(18)
H4 H 0.9818 0.4612 1.1511
C9 C 0.2513(4) -0.3708(3) 0.5969(2)
H5 H 0.1271 -0.4129 0.5819
C10 C 1.0621(3) -0.0131(2) 0.64636(18)
H6 H 1.1479 -0.0592 0.6540
C11 C 0.9906(4) 0.1706(2) 0.62585(18)
C12 C 1.0148(4) 0.34361(19) 0.91147(17)
H7 H 1.0241 0.3615 0.8499
C13 C 0.7525(3) 0.0085(2) 0.63334(19)
H8 H 0.6291 -0.0239 0.6312
C14 C 0.8251(3) -0.1853(2) 0.66024(16)
C15 C 0.9938(4) 0.2828(2) 1.08613(18)
H9 H 0.9886 0.2630 1.1472
C16 C 0.6219(3) -0.1478(2) 0.83547(18)
C17 C 1.0149(4) 0.2257(2) 0.91403(18)
H10 H 1.0232 0.1653 0.8531
C18 C 0.3414(3) -0.2944(2) 0.6986(2)
H11 H 0.2770 -0.2850 0.7520
C19 C 0.5287(4) -0.3228(3) 0.5396(2)
H12 H 0.5912 -0.3326 0.4855
O4 O 1.2293(3) 0.00217(16) 0.91427(14)
H13 H 1.2979 -0.0474 0.9171
H18 H 1.316(8) 0.070(5) 0.967(4)
Mn1_2 Mn 1.0000 1.0000 1.0000
Cl1A Cl 0.93608(12) -0.31932(7) 1.38255(7)
O1A O 1.21164(19) 0.08778(13) 1.14755(11)
C1A C 1.1931(4) -0.1256(2) 1.3763(2)
H1A H 1.2779 -0.1724 1.3839
C2A C 1.6554(4) 0.3849(3) 1.4826(2)
H2A H 1.7166 0.4365 1.5515
N1A N 0.9963(3) 0.80626(15) 1.00020(14)
N1A_2 N 0.9963(3) -0.19374(15) 1.00020(14)
O2A O 1.0621(2) 0.24293(17) 1.32317(14)
C3A C 1.1208(3) 0.0613(2) 1.35386(16)
C4A C 1.3781(3) 0.2456(2) 1.35759(17)
C5A C 1.4721(3) 0.2306(2) 1.27672(17)
O3A O 1.4691(3) 0.1445(2) 1.09543(15)
C6A C 0.8822(4) -0.1025(3) 1.36457(19)
H3A H 0.7600 -0.1339 1.3654
C7A C 0.9989(3) 0.56422(17) 0.99995(15)
C8A C 1.0093(4) 0.59731(19) 0.91068(18)
H4A H 1.0182 0.5388 0.8489
C9A C 1.7487(4) 0.3708(3) 1.4031(2)
H5A H 1.8729 0.4129 1.4181
C10A C 0.9379(3) 0.0131(2) 1.35364(18)
H6A H 0.8521 0.0592 1.3460
C11A C 1.0094(4) -0.1706(2) 1.37415(18)
C12A C 0.9852(4) 0.65639(19) 1.08853(17)
H7A H 0.9759 0.6385 1.1501
C13A C 1.2475(3) -0.0085(2) 1.36666(19)
H8A H 1.3709 0.0239 1.3688
C14A C 1.1749(3) 0.1853(2) 1.33976(16)
C15A C 1.0062(4) 0.7172(2) 0.91387(18)
H9A H 1.0114 0.7370 0.8528
C16A C 1.3781(3) 0.1478(2) 1.16453(18)
C17A C 0.9851(4) 0.7743(2) 1.08597(18)
H10A H 0.9768 0.8347 1.1469
C18A C 1.6586(3) 0.2944(2) 1.3014(2)
H11A H 1.7230 0.2850 1.2480
C19A C 1.4713(4) 0.3228(3) 1.4604(2)
H12A H 1.4088 0.3326 1.5145
O4A O 0.7707(3) -0.00217(16) 1.08573(14)
H13A H 0.7021 0.0474 1.0829
H18A H 0.684(8) -0.070(5) 1.033(4)
C20 C 1.5387(5) 0.4455(4) 0.7707(3)
H14 H 1.5446 0.4831 0.7192
C21 C 1.5090(3) 0.4637(3) 0.9467(2)
N2 N 1.5508(4) 0.3276(4) 0.7466(2)
C22 C 1.5182(4) 0.3401(3) 0.9215(2)
H15 H 1.5101 0.2994 0.9708
C23 C 1.5178(4) 0.5150(3) 0.8678(2)
H16 H 1.5095 0.5971 0.8801
C24 C 1.5399(5) 0.2773(4) 0.8211(3)
H17 H 1.5472 0.1947 0.8059
C20A C 1.4613(5) 0.5545(4) 1.2293(3)
H14A H 1.4554 0.5169 1.2808
C21A C 1.4910(3) 0.5363(3) 1.0533(2)
N2A N 1.4492(4) 0.6724(4) 1.2534(2)
C22A C 1.4818(4) 0.6599(3) 1.0785(2)
H15A H 1.4899 0.7006 1.0292
C23A C 1.4822(4) 0.4850(3) 1.1322(2)
H16A H 1.4905 0.4029 1.1199
C24A C 1.4601(5) 0.7227(4) 1.1789(3)
H17A H 1.4528 0.8053 1.1941
loop_
_geom_bond_atom_site_label_1
_geom_bond_atom_site_label_2
_geom_bond_site_symmetry_1
_geom_bond_site_symmetry_2
Mn1 O1 1_555 1_555
Cl1 C11 1_555 1_555
O1 C16 1_555 1_555
C1 H1 1_555 1_555
C2 H2 1_555 1_555
N1 Mn1 1_555 1_555
O2 C14 1_555 1_555
C3 C10 1_555 1_555
C4 C5 1_555 1_555
C5 C16 1_555 1_555
O3 C16 1_555 1_555
C6 H3 1_555 1_555
C7 C8 1_555 1_555
C8 H4 1_555 1_555
C9 C2 1_555 1_555
H5 C9 1_555 1_555
C10 C6 1_555 1_555
H6 C10 1_555 1_555
C11 C1 1_555 1_555
C12 C7 1_555 1_555
H7 C12 1_555 1_555
C13 C1 1_555 1_555
H8 C13 1_555 1_555
C14 C3 1_555 1_555
C15 N1 1_555 1_555
H9 C15 1_555 1_555
C17 N1 1_555 1_555
H10 C17 1_555 1_555
C18 C5 1_555 1_555
H11 C18 1_555 1_555
C19 C2 1_555 1_555
H12 C19 1_555 1_555
O4 Mn1 1_555 1_555
H13 O4 1_555 1_555
C20 H14 1_555 1_555
C21 C22 1_555 1_555
N2 C20 1_555 1_555
C22 H15 1_555 1_555
C23 C20 1_555 1_555
H16 C23 1_555 1_555
C24 N2 1_555 1_555
H17 C24 1_555 1_555
H18 O4 1_555 1_555
Mn1_2 N1A 1_555 1_555
Cl1A C11A 1_555 1_555
O1A Mn1 1_555 1_555
C1A H1A 1_555 1_555
C2A H2A 1_555 1_555
N1A C15A 1_555 1_555
N1A_2 Mn1 1_555 1_555
O2A C14A 1_555 1_555
C3A C10A 1_555 1_555
C4A C5A 1_555 1_555
C5A C16A 1_555 1_555
O3A C16A 1_555 1_555
C6A H3A 1_555 1_555
C7A C7 1_555 1_555
C8A C7A 1_555 1_555
H4A C8A 1_555 1_555
C9A C2A 1_555 1_555
H5A C9A 1_555 1_555
C10A C6A 1_555 1_555
H6A C10A 1_555 1_555
C11A C1A 1_555 1_555
C12A C7A 1_555 1_555
H7A C12A 1_555 1_555
C13A C1A 1_555 1_555
H8A C13A 1_555 1_555
C14A C3A 1_555 1_555
C15A C8A 1_555 1_555
H9A C15A 1_555 1_555
C16A O1A 1_555 1_555
C17A N1A 1_555 1_555
H10A C17A 1_555 1_555
C18A C5A 1_555 1_555
H11A C18A 1_555 1_555
C19A C2A 1_555 1_555
H12A C19A 1_555 1_555
O4A Mn1 1_555 1_555
H13A O4A 1_555 1_555
C20A H14A 1_555 1_555
C21A C21 1_555 1_555
N2A C20A 1_555 1_555
C22A C21A 1_555 1_555
H15A C22A 1_555 1_555
C23A C20A 1_555 1_555
H16A C23A 1_555 1_555
C24A N2A 1_555 1_555
H17A C24A 1_555 1_555
H18A O4A 1_555 1_555
C3 C13 1_555 1_555
C4 C14 1_555 1_555
C4 C19 1_555 1_555
C6 C11 1_555 1_555
C8 C15 1_555 1_555
C9 C18 1_555 1_555
C12 C17 1_555 1_555
C21 C23 1_555 1_555
C22 C24 1_555 1_555
C3A C13A 1_555 1_555
C4A C14A 1_555 1_555
C4A C19A 1_555 1_555
C6A C11A 1_555 1_555
C9A C18A 1_555 1_555
C12A C17A 1_555 1_555
C21A C23A 1_555 1_555
C22A C24A 1_555 1_555

#END
