
#######################################################################
#
#                 Cambridge Crystallographic Data Centre
#                                CCDC 
#
#######################################################################
#
# If this CIF has been generated from an entry in the Cambridge 
# Structural Database, then it will include bibliographic, chemical, 
# crystal, experimental, refinement or atomic coordinate data resulting 
# from the CCDC's data processing and validation procedures.
#
#######################################################################

data_UBUVAQ
_symmetry_cell_setting           triclinic
_symmetry_space_group_name_H-M   'P -1'
_symmetry_Int_Tables_number      2
_space_group_name_Hall           '-P 1'
loop_
_symmetry_equiv_pos_site_id
_symmetry_equiv_pos_as_xyz
1 x,y,z
2 -x,-y,-z
_cell_length_a                   10.0889(13)
_cell_length_b                   10.8234(14)
_cell_length_c                   29.795(4)
_cell_angle_alpha                84.817(2)
_cell_angle_beta                 81.1620(10)
_cell_angle_gamma                87.369(2)
_cell_volume                     3200.03
loop_
_atom_site_label
_atom_site_type_symbol
_atom_site_fract_x
_atom_site_fract_y
_atom_site_fract_z
C1 C -0.1312(6) 0.1457(6) 0.3803(2)
C2 C 0.0010(6) 0.1413(6) 0.3547(2)
H1 H 0.0167 0.1322 0.3236
C3 C 0.1022(6) 0.1516(6) 0.3796(2)
C4 C 0.0854(6) 0.1662(6) 0.4253(2)
H2 H 0.1592 0.1722 0.4401
C5 C -0.0460(6) 0.1721(7) 0.4495(2)
C6 C -0.1517(6) 0.1600(6) 0.4259(2)
H3 H -0.2389 0.1616 0.4415
C7 C -0.2497(6) 0.1327(6) 0.3565(2)
C8 C 0.2477(5) 0.1274(5) 0.35688(19)
C9 C -0.0166(6) 0.2805(6) 0.5149(2)
C10 C -0.0903(6) 0.1951(6) 0.6419(2)
H4 H -0.1059 0.1249 0.6621
C11 C -0.0738(6) 0.1797(6) 0.5948(2)
H5 H -0.0795 0.1025 0.5840
C12 C -0.0479(7) 0.2896(6) 0.5648(2)
C13 C -0.0463(6) 0.3979(7) 0.5808(2)
H6 H -0.0308 0.4696 0.5613
C14 C -0.0686(7) 0.4029(6) 0.6282(2)
H7 H -0.0726 0.4807 0.6394
C15 C -0.4552(6) 0.0270(5) 0.1641(2)
C16 C -0.4206(7) 0.0718(6) 0.1188(2)
H8 H -0.4079 0.1561 0.1113
C17 C -0.4050(6) -0.0095(6) 0.0847(2)
C18 C -0.4240(6) -0.1356(6) 0.0958(2)
H9 H -0.4136 -0.1900 0.0730
C19 C -0.4586(6) -0.1804(5) 0.14116(19)
C20 C -0.4742(6) -0.0991(6) 0.1753(2)
H10 H -0.4974 -0.1290 0.2056
C21 C -0.4701(7) 0.1069(6) 0.20181(19)
C22 C -0.4740(6) -0.3147(5) 0.1532(2)
C23 C -0.3313(6) -0.0177(6) 0.0021(2)
C24 C -0.2522(6) 0.2456(7) -0.0898(2)
H11 H -0.2478 0.3316 -0.0924
C25 C -0.2936(6) 0.1856(6) -0.0467(2)
H12 H -0.3192 0.2313 -0.0217
C26 C -0.2961(7) 0.0602(6) -0.0420(2)
C27 C -0.2645(6) -0.0006(7) -0.0812(2)
H13 H -0.2704 -0.0864 -0.0795
C28 C -0.2248(7) 0.0632(6) -0.1222(2)
H14 H -0.2010 0.0185 -0.1477
C29 C -0.5824(6) 0.6780(5) 0.3576(2)
C30 C -0.5574(7) 0.5978(6) 0.3233(2)
H15 H -0.5433 0.6295 0.2929
C31 C -0.5533(6) 0.4695(5) 0.3342(2)
C32 C -0.5764(8) 0.4274(6) 0.3784(2)
H16 H -0.5738 0.3420 0.3857
C33 C -0.6033(7) 0.5028(6) 0.4134(2)
C34 C -0.6052(6) 0.6318(6) 0.4034(2)
H17 H -0.6211 0.6852 0.4265
C35 C -0.5729(6) 0.8110(6) 0.3465(2)
C36 C -0.5287(7) 0.3831(5) 0.2967(2)
C37 C -0.6716(7) 0.4990(7) 0.4971(2)
C38 C -0.7299(6) 0.3954(6) 0.6205(2)
H18 H -0.7386 0.4320 0.6479
C39 C -0.7165(6) 0.4739(6) 0.5812(2)
H19 H -0.7246 0.5595 0.5824
C40 C -0.6903(6) 0.4211(6) 0.5395(2)
C41 C -0.6942(7) 0.2904(7) 0.5429(2)
H20 H -0.6857 0.2487 0.5166
C42 C -0.7104(7) 0.2245(7) 0.5849(2)
H21 H -0.7057 0.1383 0.5859
C43 C -1.0827(6) 0.3695(6) 0.1200(2)
C44 C -1.0694(6) 0.3389(6) 0.0764(2)
H22 H -1.1441 0.3226 0.0634
C45 C -0.9349(6) 0.3320(6) 0.0506(2)
C46 C -0.8254(6) 0.3550(6) 0.0733(2)
H23 H -0.7390 0.3535 0.0571
C47 C -0.8432(6) 0.3796(6) 0.1185(2)
C48 C -0.9761(7) 0.3855(8) 0.1409(2)
H24 H -0.9912 0.4011 0.1715
C49 C -1.2234(6) 0.3820(6) 0.1439(2)
C50 C -0.7255(6) 0.4021(6) 0.1374(2)
C51 C -0.9764(6) 0.2195(6) -0.0127(2)
C52 C -0.8931(7) 0.0865(7) -0.1260(2)
H25 H -0.8921 0.0092 -0.1374
C53 C -0.9285(6) 0.0947(7) -0.0787(2)
H26 H -0.9497 0.0243 -0.0590
C54 C -0.9307(7) 0.2108(6) -0.0621(2)
C55 C -0.9003(7) 0.3134(7) -0.0925(2)
H27 H -0.8993 0.3919 -0.0822
C56 C -0.8712(6) 0.2964(6) -0.1386(2)
H28 H -0.8578 0.3658 -0.1594
Co1 Co -0.08570(9) 0.32021(9) 0.73034(3)
Eu1 Eu -0.48419(3) 0.06185(3) 0.319600(9)
Eu2 Eu -0.49304(3) 0.42771(3) 0.179320(10)
N1 N -0.0721(6) 0.1884(5) 0.49584(18)
N2 N -0.0849(5) 0.3027(5) 0.65906(16)
N3 N -0.3745(6) 0.0453(5) 0.03932(18)
N4 N -0.2185(5) 0.1856(5) -0.12763(18)
N5 N -0.6263(6) 0.4478(5) 0.45888(18)
N6 N -0.7314(5) 0.2740(5) 0.62286(19)
N7 N -0.9126(5) 0.3105(5) 0.00434(18)
N8 N -0.8617(5) 0.1836(5) -0.15450(18)
O1 O -0.3594(4) 0.0985(5) 0.37915(15)
O2 O -0.2396(4) 0.1494(4) 0.31432(14)
O3 O 0.2722(4) 0.1032(4) 0.31587(16)
O4 O 0.3404(4) 0.1332(4) 0.37978(15)
O5 O 0.0630(5) 0.3520(5) 0.49281(16)
O6 O -0.5012(5) 0.2203(4) 0.19386(15)
O7 O -0.4533(5) 0.0618(4) 0.24047(15)
O8 O -0.5093(5) -0.3513(4) 0.19465(14)
O9 O -0.4605(5) -0.3912(4) 0.12321(15)
O10 O -0.3282(5) -0.1311(4) 0.00196(15)
O11 O -0.4948(4) 0.2760(4) 0.30507(14)
O12 O -0.5443(5) 0.4324(4) 0.25704(15)
O13 O -0.5769(5) 0.8566(4) 0.30545(15)
O14 O -0.5548(5) 0.8830(4) 0.37596(15)
O15 O -0.6996(4) 0.6141(4) 0.49715(15)
O16 O -0.6102(4) 0.3787(4) 0.11753(15)
O17 O -0.7363(4) 0.4431(4) 0.17680(15)
O18 O -1.2524(4) 0.4158(4) 0.18327(15)
O19 O -1.3179(4) 0.3640(4) 0.12150(16)
O20 O -1.0596(4) 0.1544(4) 0.01015(15)
O21 O -0.2670(5) 0.2325(5) 0.74709(15)
H29 H -0.2993 0.2147 0.7198
H30 H -0.3307 0.2864 0.7638
O22 O 0.0093(5) 0.1425(5) 0.73949(18)
H31 H 0.0636 0.1444 0.7632
H32 H 0.0653 0.1247 0.7116
O23 O 0.0977(5) 0.4047(5) 0.72140(16)
H33 H 0.0952 0.4664 0.7427
H34 H 0.1668 0.3433 0.7264
O24 O -0.1684(5) 0.5064(5) 0.72282(16)
H35 H -0.1319 0.5572 0.7425
H36 H -0.2641 0.5046 0.7312
O25 O -0.1096(5) 0.3445(5) 0.80059(15)
H37 H -0.1605 0.2779 0.8173
H38 H -0.1564 0.4222 0.8061
O26 O -0.3103(5) -0.1111(5) 0.3188(2)
H39 H -0.2776 -0.1317 0.2883
H40 H -0.3488 -0.1828 0.3365
Eu1_2 Eu 0.51581(3) 0.06185(3) 0.319600(9)
Eu1_3 Eu -0.48419(3) 1.06185(3) 0.319600(9)
Eu2_2 Eu -0.49304(3) -0.57229(3) 0.179320(10)
Eu2_3 Eu -1.49304(3) 0.42771(3) 0.179320(10)
O3_2 O -0.7278(4) 0.1032(4) 0.31587(16)
O4_2 O -0.6596(4) 0.1332(4) 0.37978(15)
O8_2 O -0.5093(5) 0.6487(4) 0.19465(14)
O9_2 O -0.4605(5) 0.6088(4) 0.12321(15)
O13_2 O -0.5769(5) -0.1434(4) 0.30545(15)
O14_2 O -0.5548(5) -0.1170(4) 0.37596(15)
O18_2 O -0.2524(4) 0.4158(4) 0.18327(15)
O19_2 O -0.3179(4) 0.3640(4) 0.12150(16)
O27 O -0.1274(12) 0.0791(10) 0.2180(4)
H41 H -0.1276 0.1494 0.2286
H42 H -0.1981 0.0417 0.2300
O28 O -0.2901(10) 0.7594(11) 0.2399(4)
H43 H -0.2619 0.8117 0.2179
H44 H -0.3671 0.7357 0.2368
O29 O -0.1528(11) 0.3726(8) 0.2617(3)
H45 H -0.1601 0.3674 0.2339
H46 H -0.1753 0.3049 0.2771
O30 O -0.4543(10) 0.3276(9) 0.0353(3)
H47 H -0.4662 0.3956 0.0195
H48 H -0.5077 0.2745 0.0297
O31 O -0.8431(17) 0.0587(17) 0.2331(6)
H49 H -0.7960 0.0905 0.2091
H50 H -0.8982 0.1134 0.2445
O32 O -0.5215(12) 0.1495(12) 0.4665(4)
H51 H -0.5554 0.1415 0.4425
H52 H -0.4442 0.1138 0.4643
loop_
_geom_bond_atom_site_label_1
_geom_bond_atom_site_label_2
_geom_bond_site_symmetry_1
_geom_bond_site_symmetry_2
C1 C2 1_555 1_555
C2 H1 1_555 1_555
C3 C2 1_555 1_555
C4 C3 1_555 1_555
H2 C4 1_555 1_555
C5 C4 1_555 1_555
C6 C1 1_555 1_555
H3 C6 1_555 1_555
C7 C1 1_555 1_555
C8 C3 1_555 1_555
C9 C12 1_555 1_555
C10 H4 1_555 1_555
C11 C10 1_555 1_555
H5 C11 1_555 1_555
C12 C11 1_555 1_555
C13 C12 1_555 1_555
H6 C13 1_555 1_555
C14 C13 1_555 1_555
H7 C14 1_555 1_555
C15 C16 1_555 1_555
C16 H8 1_555 1_555
C17 C16 1_555 1_555
C18 C17 1_555 1_555
H9 C18 1_555 1_555
C19 C18 1_555 1_555
C20 C15 1_555 1_555
H10 C20 1_555 1_555
C21 C15 1_555 1_555
C22 C19 1_555 1_555
C23 C26 1_555 1_555
C24 H11 1_555 1_555
C25 C24 1_555 1_555
H12 C25 1_555 1_555
C26 C25 1_555 1_555
C27 C26 1_555 1_555
H13 C27 1_555 1_555
C28 C27 1_555 1_555
H14 C28 1_555 1_555
C29 C30 1_555 1_555
C30 H15 1_555 1_555
C31 C30 1_555 1_555
C32 C31 1_555 1_555
H16 C32 1_555 1_555
C33 C32 1_555 1_555
C34 C29 1_555 1_555
H17 C34 1_555 1_555
C35 C29 1_555 1_555
C36 C31 1_555 1_555
C37 C40 1_555 1_555
C38 H18 1_555 1_555
C39 C38 1_555 1_555
H19 C39 1_555 1_555
C40 C39 1_555 1_555
C41 C40 1_555 1_555
H20 C41 1_555 1_555
C42 C41 1_555 1_555
H21 C42 1_555 1_555
C43 C44 1_555 1_555
C44 H22 1_555 1_555
C45 C44 1_555 1_555
C46 C45 1_555 1_555
H23 C46 1_555 1_555
C47 C46 1_555 1_555
C48 C43 1_555 1_555
H24 C48 1_555 1_555
C49 C43 1_555 1_555
C50 C47 1_555 1_555
C51 C54 1_555 1_555
C52 H25 1_555 1_555
C53 C52 1_555 1_555
H26 C53 1_555 1_555
C54 C53 1_555 1_555
C55 C54 1_555 1_555
H27 C55 1_555 1_555
C56 C55 1_555 1_555
H28 C56 1_555 1_555
Co1 N2 1_555 1_555
Eu1 O1 1_555 1_555
Eu2 O6 1_555 1_555
N1 C5 1_555 1_555
N2 C10 1_555 1_555
N3 C17 1_555 1_555
N4 C24 1_555 1_555
N5 C33 1_555 1_555
N6 C38 1_555 1_555
N7 C45 1_555 1_555
N8 C52 1_555 1_555
O1 C7 1_555 1_555
O2 C7 1_555 1_555
O3 C8 1_555 1_555
O4 C8 1_555 1_555
O5 C9 1_555 1_555
O6 C21 1_555 1_555
O7 C21 1_555 1_555
O8 C22 1_555 1_555
O9 C22 1_555 1_555
O10 C23 1_555 1_555
O11 C36 1_555 1_555
O12 C36 1_555 1_555
O13 C35 1_555 1_555
O14 C35 1_555 1_555
O15 C37 1_555 1_555
O16 C50 1_555 1_555
O17 C50 1_555 1_555
O18 C49 1_555 1_555
O19 C49 1_555 1_555
O20 C51 1_555 1_555
O21 Co1 1_555 1_555
H29 O21 1_555 1_555
H30 O21 1_555 1_555
O22 Co1 1_555 1_555
H31 O22 1_555 1_555
H32 O22 1_555 1_555
O23 Co1 1_555 1_555
H33 O23 1_555 1_555
H34 O23 1_555 1_555
O24 Co1 1_555 1_555
H35 O24 1_555 1_555
H36 O24 1_555 1_555
O25 Co1 1_555 1_555
H37 O25 1_555 1_555
H38 O25 1_555 1_555
O26 Eu1 1_555 1_555
H39 O26 1_555 1_555
H40 O26 1_555 1_555
O27 H41 1_555 1_555
H42 O27 1_555 1_555
O28 H43 1_555 1_555
H44 O28 1_555 1_555
O29 H45 1_555 1_555
H46 O29 1_555 1_555
O30 H47 1_555 1_555
H48 O30 1_555 1_555
O31 H49 1_555 1_555
H50 O31 1_555 1_555
O32 H51 1_555 1_555
H52 O32 1_555 1_555
Eu1_2 O3 1_555 1_555
Eu1_3 O13 1_555 1_555
Eu2_2 O8 1_555 1_555
Eu2_3 O18 1_555 1_555
O3_2 Eu1 1_555 1_555
O4_2 Eu1 1_555 1_555
O8_2 Eu2 1_555 1_555
O9_2 Eu2 1_555 1_555
O13_2 Eu1 1_555 1_555
O14_2 Eu1 1_555 1_555
O18_2 Eu2 1_555 1_555
O19_2 Eu2 1_555 1_555
C5 C6 1_555 1_555
C9 N1 1_555 1_555
C14 N2 1_555 1_555
C19 C20 1_555 1_555
C23 N3 1_555 1_555
C28 N4 1_555 1_555
C33 C34 1_555 1_555
C37 N5 1_555 1_555
C42 N6 1_555 1_555
C47 C48 1_555 1_555
C51 N7 1_555 1_555
C56 N8 1_555 1_555
Eu1 O2 1_555 1_555
Eu1 O7 1_555 1_555
Eu1 O11 1_555 1_555
Eu2 O12 1_555 1_555
Eu2 O16 1_555 1_555
Eu2 O17 1_555 1_555
O4 Eu1_2 1_555 1_555
O9 Eu2_2 1_555 1_555
O14 Eu1_3 1_555 1_555
O19 Eu2_3 1_555 1_555

#END
