
#######################################################################
#
#                 Cambridge Crystallographic Data Centre
#                                CCDC 
#
#######################################################################
#
# If this CIF has been generated from an entry in the Cambridge 
# Structural Database, then it will include bibliographic, chemical, 
# crystal, experimental, refinement or atomic coordinate data resulting 
# from the CCDC's data processing and validation procedures.
#
#######################################################################

data_UBUVEU
_symmetry_cell_setting           monoclinic
_symmetry_space_group_name_H-M   'P 21/c'
_symmetry_Int_Tables_number      14
_space_group_name_Hall           '-P 2ybc'
loop_
_symmetry_equiv_pos_site_id
_symmetry_equiv_pos_as_xyz
1 x,y,z
2 -x,1/2+y,1/2-z
3 -x,-y,-z
4 x,1/2-y,1/2+z
_cell_length_a                   16.62(4)
_cell_length_b                   9.60(2)
_cell_length_c                   12.69(3)
_cell_angle_alpha                90
_cell_angle_beta                 105.85(2)
_cell_angle_gamma                90
_cell_volume                     1947.74
loop_
_atom_site_label
_atom_site_type_symbol
_atom_site_fract_x
_atom_site_fract_y
_atom_site_fract_z
Ni1 Ni 0.27761(5) 0.53469(7) 1.12001(7)
C1 C 0.2586(4) 0.3679(6) 0.9158(6)
H1 H 0.3021 0.3190 0.9630
C2 C 0.2325(4) 0.3262(6) 0.8072(6)
C3 C 0.1674(4) 0.3989(6) 0.7361(6)
H2 H 0.1477 0.3728 0.6630
C4 C 0.1327(4) 0.5107(6) 0.7766(6)
C5 C 0.1629(4) 0.5426(6) 0.8878(5)
H3 H 0.1382 0.6160 0.9153
C6 C 0.0604(4) 0.5896(6) 0.7009(5)
C7 C -0.0119(4) 0.5225(6) 0.6758(6)
H4 H -0.0181 0.4380 0.7085
C8 C -0.0818(5) 0.5874(8) 0.5940(6)
H5 H -0.1321 0.5396 0.5694
C9 C -0.0739(4) 0.7176(7) 0.5535(7)
H6 H -0.1192 0.7599 0.5042
C10 C 0.0018(4) 0.7843(7) 0.5866(6)
H7 H 0.0075 0.8726 0.5595
C11 C 0.0703(4) 0.7226(6) 0.6601(6)
C12 C 0.2763(4) 0.2046(6) 0.7703(6)
C13 C 0.1503(4) 0.8017(6) 0.6928(7)
C14 C 0.4336(4) 0.3523(6) 1.1408(6)
H8 H 0.3994 0.2774 1.1461
C15 C 0.5174(4) 0.3268(7) 1.1533(6)
H9 H 0.5387 0.2367 1.1636
C16 C 0.5684(4) 0.4382(7) 1.1500(6)
H10 H 0.6255 0.4241 1.1609
C17 C 0.5358(4) 0.5710(7) 1.1307(6)
H11 H 0.5699 0.6469 1.1282
C18 C 0.4500(4) 0.5877(6) 1.1150(6)
C19 C 0.4066(4) 0.7233(6) 1.0889(6)
C20 C 0.4490(4) 0.8449(6) 1.0797(6)
H12 H 0.5063 0.8437 1.0875
C21 C 0.4051(4) 0.9664(7) 1.0590(6)
H13 H 0.4325 1.0493 1.0532
C22 C 0.3205(5) 0.9666(7) 1.0465(7)
H14 H 0.2900 1.0489 1.0326
C23 C 0.2820(4) 0.8417(6) 1.0553(6)
H15 H 0.2247 0.8411 1.0466
H16 H 0.349(4) 0.524(4) 1.316(5)
H17 H 0.295(2) 0.647(4) 1.293(4)
N1 N 0.2247(3) 0.4742(5) 0.9565(4)
N2 N 0.3989(3) 0.4782(5) 1.1214(5)
N3 N 0.3238(3) 0.7212(5) 1.0757(4)
O1 O 0.3391(3) 0.1592(4) 0.8411(4)
O2 O 0.2465(3) 0.1585(4) 0.6754(4)
O3 O 0.1962(3) 0.7912(6) 0.7893(5)
O4 O 0.1677(3) 0.8768(4) 0.6199(4)
O5 O 0.3353(3) 0.6011(5) 1.2812(4)
Ni1C Ni 0.27761(5) -0.03469(7) 0.62001(7)
Ni1C_2 Ni 0.27761(5) 0.96531(7) 0.62001(7)
O2C O 0.2465(3) 0.3415(4) 1.1754(4)
O4C O 0.1677(3) 0.6232(4) 1.1199(4)
loop_
_geom_bond_atom_site_label_1
_geom_bond_atom_site_label_2
_geom_bond_site_symmetry_1
_geom_bond_site_symmetry_2
Ni1 N1 1_555 1_555
C1 H1 1_555 1_555
C2 C1 1_555 1_555
C3 C2 1_555 1_555
H2 C3 1_555 1_555
C4 C3 1_555 1_555
C5 C4 1_555 1_555
H3 C5 1_555 1_555
C6 C4 1_555 1_555
C7 C6 1_555 1_555
H4 C7 1_555 1_555
C8 C7 1_555 1_555
H5 C8 1_555 1_555
C9 C8 1_555 1_555
H6 C9 1_555 1_555
C10 C9 1_555 1_555
H7 C10 1_555 1_555
C11 C6 1_555 1_555
C12 C2 1_555 1_555
C13 C11 1_555 1_555
C14 H8 1_555 1_555
C15 C14 1_555 1_555
H9 C15 1_555 1_555
C16 C15 1_555 1_555
H10 C16 1_555 1_555
C17 C16 1_555 1_555
H11 C17 1_555 1_555
C18 C17 1_555 1_555
C19 C18 1_555 1_555
C20 C19 1_555 1_555
H12 C20 1_555 1_555
C21 C20 1_555 1_555
H13 C21 1_555 1_555
C22 C21 1_555 1_555
H14 C22 1_555 1_555
C23 C22 1_555 1_555
H15 C23 1_555 1_555
H16 O5 1_555 1_555
H17 O5 1_555 1_555
N1 C1 1_555 1_555
N2 Ni1 1_555 1_555
N3 Ni1 1_555 1_555
O1 C12 1_555 1_555
O2 C12 1_555 1_555
O3 C13 1_555 1_555
O4 C13 1_555 1_555
O5 Ni1 1_555 1_555
Ni1C O2 1_555 1_555
Ni1C_2 O4 1_555 1_555
O2C Ni1 1_555 1_555
O4C Ni1 1_555 1_555
C5 N1 1_555 1_555
C10 C11 1_555 1_555
C14 N2 1_555 1_555
C18 N2 1_555 1_555
C19 N3 1_555 1_555
C23 N3 1_555 1_555

#END
