
#######################################################################
#
#                 Cambridge Crystallographic Data Centre
#                                CCDC 
#
#######################################################################
#
# If this CIF has been generated from an entry in the Cambridge 
# Structural Database, then it will include bibliographic, chemical, 
# crystal, experimental, refinement or atomic coordinate data resulting 
# from the CCDC's data processing and validation procedures.
#
#######################################################################

data_UCABOR
_symmetry_cell_setting           triclinic
_symmetry_space_group_name_H-M   'P 1'
_symmetry_Int_Tables_number      1
_space_group_name_Hall           'P 1'
loop_
_symmetry_equiv_pos_site_id
_symmetry_equiv_pos_as_xyz
1 x,y,z
_cell_length_a                   7.9811(2)
_cell_length_b                   12.1148(7)
_cell_length_c                   15.8321(11)
_cell_angle_alpha                87.137(10)
_cell_angle_beta                 85.415(8)
_cell_angle_gamma                75.549(7)
_cell_volume                     1476.91
loop_
_atom_site_label
_atom_site_type_symbol
_atom_site_fract_x
_atom_site_fract_y
_atom_site_fract_z
I1 I 0.46241(17) 0.17087(10) 0.28029(8)
I2 I 0.37528(15) 0.54156(9) 0.26084(8)
I3 I 0.99840(18) 0.73746(10) 0.44119(8)
I4 I 0.08419(15) 0.36732(9) 0.46112(8)
Cu1 Cu 0.7296(5) 0.4549(3) 0.3609(3)
Cu2 Cu 0.5747(4) 0.3396(2) 0.20718(17)
Cu3 Cu 0.3717(4) 0.3618(3) 0.36368(17)
Cu4 Cu 1.0893(4) 0.5473(2) 0.35868(17)
Cu5 Cu 0.8869(4) 0.5688(3) 0.51494(16)
S1 S 0.8488(7) 0.3281(4) 0.2551(3)
S2 S 0.8625(7) 0.5642(4) 0.2644(3)
S3 S 0.6083(7) 0.5816(4) 0.4663(4)
S4 S 0.5992(7) 0.3447(4) 0.4563(3)
O1 O 1.1036(19) 0.4337(10) -0.0434(9)
O2 O 0.3734(18) 0.4711(11) 0.7610(8)
N1 N 1.0273(19) 0.4357(12) 0.1358(9)
N2 N 0.439(2) 0.4817(13) 0.5852(10)
N3 N 0.5611(18) 0.3358(12) 0.0836(8)
N4 N 0.8938(18) 0.5656(12) 0.6400(10)
C1 C 0.918(3) 0.4432(16) 0.2107(11)
C2 C 1.086(3) 0.3300(15) 0.0904(11)
C3 C 1.021(3) 0.3438(14) -0.0020(10)
C4 C 1.034(2) 0.5412(13) 0.0039(11)
C5 C 1.088(3) 0.5256(14) 0.0892(12)
C6 C 0.527(3) 0.4706(13) 0.5176(11)
C7 C 0.381(3) 0.5882(14) 0.6325(11)
C8 C 0.425(3) 0.5591(15) 0.7213(12)
C9 C 0.440(3) 0.3704(15) 0.7213(10)
C10 C 0.385(3) 0.3803(16) 0.6256(11)
C11 C 0.556(3) 0.3369(15) 0.0115(13)
C12 C 0.535(3) 0.3358(16) -0.0845(11)
C13 C 0.914(3) 0.5744(16) 0.7084(12)
C14 C 0.9302(17) 0.5772(14) 0.7944(11)
H1 H 1.0412 0.2694 0.1221
H2 H 1.2138 0.3061 0.0870
H3 H 1.0600 0.2713 -0.0323
H4 H 0.8928 0.3692 -0.0006
H5 H 1.0768 0.6040 -0.0254
H6 H 0.9057 0.5623 0.0053
H7 H 1.0438 0.5979 0.1193
H8 H 1.2167 0.5069 0.0872
H9 H 0.2539 0.6192 0.6302
H10 H 0.4399 0.6462 0.6078
H11 H 0.5529 0.5427 0.7223
H12 H 0.3759 0.6277 0.7551
H13 H 0.3961 0.3091 0.7525
H14 H 0.5678 0.3500 0.7216
H15 H 0.4445 0.3104 0.5951
H16 H 0.2583 0.3908 0.6245
H17 H 0.4380 0.3024 -0.0936
H18 H 0.6416 0.2903 -0.1126
H19 H 0.5107 0.4141 -0.1080
H20 H 1.0470 0.5346 0.8076
H21 H 0.8443 0.5424 0.8256
H22 H 0.9109 0.6565 0.8109
I2_2 I 1.37528(15) 0.54156(9) 0.26084(8)
I4_2 I 1.08419(15) 0.36732(9) 0.46112(8)
Cu4_2 Cu 0.0893(4) 0.5473(2) 0.35868(17)
Cu5_2 Cu -0.1131(4) 0.5688(3) 0.51494(16)
I5 I 0.11806(15) -0.13376(9) 0.76417(7)
I6 I 0.01809(18) 0.23742(11) 0.76551(8)
I7 I 0.34163(15) 0.04273(9) 0.95757(8)
I8 I -0.55845(17) -0.32864(10) 0.95595(9)
Cu6 Cu -0.2702(5) -0.0452(3) 0.8613(3)
Cu7 Cu -0.0614(4) 0.0709(3) 0.69602(17)
Cu8 Cu 0.0885(4) 0.0476(2) 0.85906(17)
Cu9 Cu -0.6280(4) -0.1385(3) 0.86381(18)
Cu10 Cu -0.4797(4) -0.1625(3) 1.02641(17)
S5 S -0.3488(7) 0.0753(5) 0.7447(4)
S6 S -0.3694(7) -0.1582(4) 0.7723(3)
S7 S -0.1938(7) -0.1644(4) 0.9773(4)
S8 S -0.1711(7) 0.0708(4) 0.9481(4)
O3 O -0.6307(19) -0.0257(12) 0.4812(9)
O4 O 0.0969(17) -0.0730(10) 1.2373(8)
N5 N -0.4247(19) -0.0522(12) 0.6244(10)
N6 N -0.116(2) -0.0467(12) 1.1018(8)
N7 N -0.036(2) 0.0692(13) 0.5683(10)
N8 N -0.516(3) -0.1583(15) 1.1477(12)
C15 C -0.390(3) -0.0467(12) 0.6970(12)
C16 C -0.437(3) 0.0454(15) 0.5608(12)
C17 C -0.606(3) 0.0788(15) 0.5251(12)
C18 C -0.6351(17) -0.1092(13) 0.5428(10)
C19 C -0.456(3) -0.1530(14) 0.5824(11)
C20 C -0.155(2) -0.0481(14) 1.0172(10)
C21 C -0.1088(17) -0.1397(11) 1.1611(9)
C22 C 0.074(3) -0.1624(15) 1.2000(10)
C23 C 0.0843(19) 0.0277(12) 1.1781(8)
C24 C -0.080(2) 0.0535(14) 1.1344(9)
C25 C -0.020(3) 0.0673(14) 0.4995(11)
C26 C -0.013(3) 0.0727(15) 0.4064(11)
C27 C -0.519(3) -0.1674(16) 1.2242(13)
C28 C -0.5322(19) -0.1709(12) 1.3155(9)
H23 H -0.4153 0.1116 0.5885
H24 H -0.3453 0.0230 0.5144
H25 H -0.6097 0.1432 0.4836
H26 H -0.6986 0.1029 0.5705
H27 H -0.6667 -0.1739 0.5178
H28 H -0.7253 -0.0785 0.5880
H29 H -0.4591 -0.2158 0.6243
H30 H -0.3626 -0.1809 0.5377
H31 H -0.1196 -0.2082 1.1325
H32 H -0.2037 -0.1203 1.2062
H33 H 0.0849 -0.2269 1.2418
H34 H 0.1664 -0.1848 1.1542
H35 H 0.0896 0.0947 1.2101
H36 H 0.1842 0.0123 1.1353
H37 H -0.1770 0.0897 1.1747
H38 H -0.0725 0.1089 1.0869
H39 H -0.0406 0.1526 0.3864
H40 H -0.0969 0.0347 0.3867
H41 H 0.1042 0.0344 0.3839
H42 H -0.6172 -0.2138 1.3362
H43 H -0.5697 -0.0930 1.3360
H44 H -0.4189 -0.2083 1.3363
I5_2 I -0.88194(15) -0.13376(9) 0.76417(7)
I7_2 I -0.65837(15) 0.04273(9) 0.95757(8)
Cu9_2 Cu 0.3720(4) -0.1385(3) 0.86381(18)
Cu10_2 Cu 0.5203(4) -0.1625(3) 1.02641(17)
loop_
_geom_bond_atom_site_label_1
_geom_bond_atom_site_label_2
_geom_bond_site_symmetry_1
_geom_bond_site_symmetry_2
I1 Cu2 1_555 1_555
I2 Cu2 1_555 1_555
I3 Cu4 1_555 1_555
I4 Cu3 1_555 1_555
I5 Cu7 1_555 1_555
I6 Cu7 1_555 1_555
I7 Cu8 1_555 1_555
I8 Cu9 1_555 1_555
Cu1 S1 1_555 1_555
Cu2 S1 1_555 1_555
Cu3 I1 1_555 1_555
Cu4 S2 1_555 1_555
Cu5 I3 1_555 1_555
Cu6 S5 1_555 1_555
Cu7 S5 1_555 1_555
Cu8 I5 1_555 1_555
Cu9 S6 1_555 1_555
Cu10 I8 1_555 1_555
S1 C1 1_555 1_555
S2 Cu1 1_555 1_555
S3 Cu1 1_555 1_555
S4 Cu1 1_555 1_555
S5 C15 1_555 1_555
S6 Cu6 1_555 1_555
S7 Cu6 1_555 1_555
S8 Cu6 1_555 1_555
O1 C3 1_555 1_555
O2 C8 1_555 1_555
O3 C17 1_555 1_555
O4 C22 1_555 1_555
N1 C1 1_555 1_555
N2 C6 1_555 1_555
N3 Cu2 1_555 1_555
N4 Cu5 1_555 1_555
N5 C15 1_555 1_555
N6 C20 1_555 1_555
N7 Cu7 1_555 1_555
N8 Cu10 1_555 1_555
C1 S2 1_555 1_555
C2 N1 1_555 1_555
C3 C2 1_555 1_555
C4 O1 1_555 1_555
C5 N1 1_555 1_555
C6 S3 1_555 1_555
C7 N2 1_555 1_555
C8 C7 1_555 1_555
C9 O2 1_555 1_555
C10 N2 1_555 1_555
C11 N3 1_555 1_555
C12 C11 1_555 1_555
C13 N4 1_555 1_555
C14 C13 1_555 1_555
C15 S6 1_555 1_555
C16 N5 1_555 1_555
C17 C16 1_555 1_555
C18 O3 1_555 1_555
C19 N5 1_555 1_555
C20 S7 1_555 1_555
C21 N6 1_555 1_555
C22 C21 1_555 1_555
C23 O4 1_555 1_555
C24 N6 1_555 1_555
C25 N7 1_555 1_555
C26 C25 1_555 1_555
C27 N8 1_555 1_555
C28 C27 1_555 1_555
H1 C2 1_555 1_555
H2 C2 1_555 1_555
H3 C3 1_555 1_555
H4 C3 1_555 1_555
H5 C4 1_555 1_555
H6 C4 1_555 1_555
H7 C5 1_555 1_555
H8 C5 1_555 1_555
H9 C7 1_555 1_555
H10 C7 1_555 1_555
H11 C8 1_555 1_555
H12 C8 1_555 1_555
H13 C9 1_555 1_555
H14 C9 1_555 1_555
H15 C10 1_555 1_555
H16 C10 1_555 1_555
H17 C12 1_555 1_555
H18 C12 1_555 1_555
H19 C12 1_555 1_555
H20 C14 1_555 1_555
H21 C14 1_555 1_555
H22 C14 1_555 1_555
H23 C16 1_555 1_555
H24 C16 1_555 1_555
H25 C17 1_555 1_555
H26 C17 1_555 1_555
H27 C18 1_555 1_555
H28 C18 1_555 1_555
H29 C19 1_555 1_555
H30 C19 1_555 1_555
H31 C21 1_555 1_555
H32 C21 1_555 1_555
H33 C22 1_555 1_555
H34 C22 1_555 1_555
H35 C23 1_555 1_555
H36 C23 1_555 1_555
H37 C24 1_555 1_555
H38 C24 1_555 1_555
H39 C26 1_555 1_555
H40 C26 1_555 1_555
H41 C26 1_555 1_555
H42 C28 1_555 1_555
H43 C28 1_555 1_555
H44 C28 1_555 1_555
I2_2 Cu4 1_555 1_555
I4_2 Cu4 1_555 1_555
I5_2 Cu9 1_555 1_555
I7_2 Cu9 1_555 1_555
Cu4_2 I2 1_555 1_555
Cu5_2 I4 1_555 1_555
Cu9_2 I5 1_555 1_555
Cu10_2 I7 1_555 1_555
I2 Cu3 1_555 1_555
I4 Cu4_2 1_555 1_555
I6 Cu8 1_555 1_555
I7 Cu9_2 1_555 1_555
Cu3 S4 1_555 1_555
Cu5 S3 1_555 1_555
Cu5 I4_2 1_555 1_555
Cu8 S8 1_555 1_555
Cu10 S7 1_555 1_555
Cu10 I7_2 1_555 1_555
S4 C6 1_555 1_555
S8 C20 1_555 1_555
C4 C5 1_555 1_555
C9 C10 1_555 1_555
C18 C19 1_555 1_555
C23 C24 1_555 1_555

#END
