
#######################################################################
#
#                 Cambridge Crystallographic Data Centre
#                                CCDC 
#
#######################################################################
#
# If this CIF has been generated from an entry in the Cambridge 
# Structural Database, then it will include bibliographic, chemical, 
# crystal, experimental, refinement or atomic coordinate data resulting 
# from the CCDC's data processing and validation procedures.
#
#######################################################################

data_UCAKEQ
_symmetry_cell_setting           monoclinic
_symmetry_space_group_name_H-M   'P 21/c'
_symmetry_Int_Tables_number      14
_space_group_name_Hall           '-P 2ybc'
loop_
_symmetry_equiv_pos_site_id
_symmetry_equiv_pos_as_xyz
1 x,y,z
2 -x,1/2+y,1/2-z
3 -x,-y,-z
4 x,1/2-y,1/2+z
_cell_length_a                   10.7344(9)
_cell_length_b                   17.4781(16)
_cell_length_c                   11.1875(9)
_cell_angle_alpha                90
_cell_angle_beta                 103.965(6)
_cell_angle_gamma                90
_cell_volume                     2036.93
loop_
_atom_site_label
_atom_site_type_symbol
_atom_site_fract_x
_atom_site_fract_y
_atom_site_fract_z
Ag1 Ag 0.03528(3) 0.20584(2) -0.39701(3)
N1 N 0.1301(3) 0.1477(2) -0.2344(3)
N2 N 0.9282(3) 0.2259(2) 0.9573(3)
O1 O 0.4841(3) 0.4995(2) 0.3135(3)
C1 C 0.1289(4) 0.0711(3) -0.2245(4)
H1 H 0.0863 0.0419 -0.2939
C2 C 0.1867(4) 0.0336(3) -0.1179(4)
H2 H 0.1836 -0.0206 -0.1144
C3 C 0.2490(4) 0.0744(3) -0.0164(4)
H3 H 0.2894 0.0493 0.0583
C4 C 0.2510(4) 0.1540(2) -0.0264(4)
C5 C 0.1906(4) 0.1876(2) -0.1364(4)
H4 H 0.1921 0.2417 -0.1425
C6 C 0.3143(4) 0.2018(3) 0.0738(4)
C7 C 0.3696(4) 0.2439(3) 0.1533(4)
C8 C 0.4364(4) 0.2943(3) 0.2468(4)
C9 C 0.4295(4) 0.3735(3) 0.2266(4)
H5 H 0.3844 0.3935 0.1493
C10 C 0.4888(4) 0.4219(3) 0.3204(4)
C11 C 0.5566(4) 0.3926(3) 0.4323(4)
H6 H 0.5957 0.4265 0.4969
C12 C 0.5676(4) 0.3150(3) 0.4506(4)
C13 C 0.5059(4) 0.2651(3) 0.3584(4)
H7 H 0.5114 0.2114 0.3717
C14 C 0.4262(7) 0.5345(4) 0.1981(6)
H8 H 0.4722 0.5188 0.1364
H9 H 0.4304 0.5903 0.2072
H10 H 0.3363 0.5185 0.1716
C15 C 0.6448(4) 0.2831(3) 0.5633(4)
C16 C 0.7100(4) 0.2539(3) 0.6521(4)
C17 C 0.7863(4) 0.2159(3) 0.7578(4)
C18 C 0.8577(4) 0.2581(3) 0.8559(4)
H11 H 0.8561 0.3123 0.8502
C19 C 0.9298(4) 0.1490(3) 0.9645(4)
H12 H 0.9789 0.1255 1.0373
C20 C 0.8632(4) 0.1030(3) 0.8705(4)
H13 H 0.8675 0.0488 0.8778
C21 C 0.7901(4) 0.1371(3) 0.7658(4)
H14 H 0.7429 0.1067 0.6999
Ag1C Ag 1.03528(3) 0.29416(2) 1.10299(3)
N2C N -0.0718(3) 0.2741(2) -0.5427(3)
B1 B 0.1572(11) 0.0839(8) 0.3519(12)
F1 F 0.2740(13) 0.0488(9) 0.3105(13)
F2 F 0.1840(7) 0.1313(4) 0.4457(7)
F3 F 0.1249(10) 0.0125(6) 0.4007(9)
F4 F 0.0964(9) 0.1316(6) 0.2577(9)
O2 O -0.0934(8) 0.0792(5) 0.4842(8)
F5? F 0.0377(16) 0.0847(10) 0.4052(15)
F6? F 0.2590(11) 0.1279(7) 0.4137(11)
F7? F 0.1873(10) 0.0172(6) 0.3556(9)
F8? F 0.1046(14) 0.0829(10) 0.2390(15)
loop_
_geom_bond_atom_site_label_1
_geom_bond_atom_site_label_2
_geom_bond_site_symmetry_1
_geom_bond_site_symmetry_2
Ag1 N1 1_555 1_555
N1 C1 1_555 1_555
N2 C18 1_555 1_555
O1 C10 1_555 1_555
C1 H1 1_555 1_555
C2 C1 1_555 1_555
H2 C2 1_555 1_555
C3 C2 1_555 1_555
H3 C3 1_555 1_555
C4 C3 1_555 1_555
C5 N1 1_555 1_555
H4 C5 1_555 1_555
C6 C4 1_555 1_555
C7 C6 1_555 1_555
C8 C7 1_555 1_555
C9 C8 1_555 1_555
H5 C9 1_555 1_555
C10 C9 1_555 1_555
C11 C10 1_555 1_555
H6 C11 1_555 1_555
C12 C11 1_555 1_555
C13 C8 1_555 1_555
H7 C13 1_555 1_555
C14 O1 1_555 1_555
H8 C14 1_555 1_555
H9 C14 1_555 1_555
H10 C14 1_555 1_555
C15 C12 1_555 1_555
C16 C15 1_555 1_555
C17 C16 1_555 1_555
C18 C17 1_555 1_555
H11 C18 1_555 1_555
C19 N2 1_555 1_555
H12 C19 1_555 1_555
C20 C19 1_555 1_555
H13 C20 1_555 1_555
C21 C17 1_555 1_555
H14 C21 1_555 1_555
B1 F1 1_555 1_555
F2 B1 1_555 1_555
F3 B1 1_555 1_555
F4 B1 1_555 1_555
Ag1C N2 1_555 1_555
N2C Ag1 1_555 1_555
C4 C5 1_555 1_555
C12 C13 1_555 1_555
C20 C21 1_555 1_555

#END
