
#######################################################################
#
#                 Cambridge Crystallographic Data Centre
#                                CCDC 
#
#######################################################################
#
# If this CIF has been generated from an entry in the Cambridge 
# Structural Database, then it will include bibliographic, chemical, 
# crystal, experimental, refinement or atomic coordinate data resulting 
# from the CCDC's data processing and validation procedures.
#
#######################################################################

data_UCAKAM
_symmetry_cell_setting           monoclinic
_symmetry_space_group_name_H-M   'P 21/c'
_symmetry_Int_Tables_number      14
_space_group_name_Hall           '-P 2ybc'
loop_
_symmetry_equiv_pos_site_id
_symmetry_equiv_pos_as_xyz
1 x,y,z
2 -x,1/2+y,1/2-z
3 -x,-y,-z
4 x,1/2-y,1/2+z
_cell_length_a                   8.3889(16)
_cell_length_b                   18.5773(16)
_cell_length_c                   29.144(6)
_cell_angle_alpha                90
_cell_angle_beta                 98.787(11)
_cell_angle_gamma                90
_cell_volume                     4488.58
loop_
_atom_site_label
_atom_site_type_symbol
_atom_site_fract_x
_atom_site_fract_y
_atom_site_fract_z
Ag1 Ag -0.61994(3) 0.472412(14) 0.032769(10)
Ag2 Ag 0.88350(3) 0.528877(14) 0.533403(10)
O1 O 0.0028(4) 0.70239(14) 0.29050(10)
O2 O -1.3131(3) 0.32525(13) -0.23061(9)
N1 N -0.4568(3) 0.40204(14) 0.07684(10)
N2 N 0.7125(3) 0.45644(15) 0.49261(10)
N3 N -1.9784(3) 0.60268(14) -0.41779(9)
N4 N -0.7950(4) 0.54910(14) 0.00048(10)
C1 C -0.4231(4) 0.33376(19) 0.06548(13)
H1 H -0.4815 0.3133 0.0390
C2 C -0.3047(5) 0.29323(19) 0.09190(14)
H2 H -0.2826 0.2468 0.0827
C3 C -0.2190(5) 0.32225(19) 0.13227(13)
H3 H -0.1391 0.2956 0.1504
C4 C -0.2547(4) 0.39233(18) 0.14521(12)
C5 C -0.3748(4) 0.42995(18) 0.11623(12)
H4 H -0.3994 0.4765 0.1245
C6 C -0.1716(4) 0.42838(19) 0.18595(13)
C7 C -0.1058(5) 0.46344(19) 0.21820(13)
C8 C -0.0283(5) 0.5091(2) 0.25564(13)
C9 C -0.0574(5) 0.5837(2) 0.25377(13)
H5 H -0.1272 0.6034 0.2291
C10 C 0.0192(5) 0.6277(2) 0.28910(14)
C11 C 0.1231(4) 0.5986(2) 0.32690(13)
H6 H 0.1708 0.6283 0.3508
C12 C 0.1545(4) 0.52430(19) 0.32842(12)
C13 C 0.0782(4) 0.4794(2) 0.29272(13)
H7 H 0.0982 0.4301 0.2937
C14 C -0.0894(6) 0.7367(2) 0.25097(16)
H8 H -0.0386 0.7285 0.2241
H9 H -0.0949 0.7875 0.2566
H10 H -0.1965 0.7170 0.2458
C15 C 0.2695(5) 0.4947(2) 0.36599(13)
C16 C 0.3685(4) 0.46939(19) 0.39599(13)
C17 C 0.4851(4) 0.43845(19) 0.43218(12)
C18 C 0.6019(4) 0.48158(18) 0.45814(12)
H11 H 0.6031 0.5304 0.4512
C19 C 0.7088(5) 0.3848(2) 0.50242(14)
H12 H 0.7844 0.3663 0.5262
C20 C 0.5972(5) 0.3389(2) 0.47839(16)
H13 H 0.5976 0.2903 0.4861
C21 C 0.4844(5) 0.3651(2) 0.44269(15)
H14 H 0.4094 0.3344 0.4260
C22 C -2.0114(4) 0.67429(17) -0.41735(12)
H15 H -2.0883 0.6932 -0.4406
C23 C -1.9347(5) 0.72019(18) -0.38343(13)
H16 H -1.9613 0.7688 -0.3838
C24 C -1.8180(4) 0.69304(17) -0.34892(12)
H17 H -1.7640 0.7234 -0.3264
C25 C -1.7824(4) 0.61924(18) -0.34842(11)
C26 C -1.8673(4) 0.57666(17) -0.38368(12)
H18 H -1.8456 0.5276 -0.3835
C27 C -1.6668(4) 0.58542(18) -0.31313(12)
C28 C -1.5767(4) 0.5537(2) -0.28395(13)
C29 C -1.4694(4) 0.5126(2) -0.25031(13)
C30 C -1.4471(4) 0.4381(2) -0.25828(12)
H19 H -1.5019 0.4162 -0.2848
C31 C -1.3429(5) 0.3980(2) -0.22627(13)
C32 C -1.2581(4) 0.4307(2) -0.18675(13)
H20 H -1.1867 0.4039 -0.1659
C33 C -1.2808(4) 0.5042(2) -0.17859(12)
C34 C -1.3868(4) 0.5450(2) -0.21044(12)
H21 H -1.4019 0.5937 -0.2049
C35 C -1.3992(5) 0.2877(2) -0.27019(15)
H22 H -1.5132 0.2915 -0.2699
H23 H -1.3685 0.2378 -0.2688
H24 H -1.3733 0.3086 -0.2982
C36 C -1.1944(5) 0.53626(19) -0.13692(13)
C37 C -1.1181(4) 0.55890(19) -0.10146(13)
C38 C -1.0189(4) 0.58073(18) -0.05882(12)
C39 C -0.8920(4) 0.53574(17) -0.03985(12)
H25 H -0.8736 0.4942 -0.0560
C40 C -0.8217(5) 0.61136(19) 0.02324(13)
H26 H -0.7550 0.6224 0.0508
C41 C -0.9442(5) 0.65822(19) 0.00666(14)
H27 H -0.9593 0.6998 0.0232
C42 C -1.0452(5) 0.64365(19) -0.03466(13)
H28 H -1.1284 0.6750 -0.0460
Ag1B Ag -0.38006(3) 0.527588(14) -0.032769(10)
Ag2B Ag 1.11650(3) 0.471123(14) 0.466597(10)
Ag2_2 Ag -2.11650(3) 0.528877(14) -0.466597(10)
N3_2 N 1.0216(3) 0.60268(14) 0.58221(9)
S1 S 0.31189(12) 0.14510(5) 0.42246(3)
F1 F 0.3898(4) 0.12367(16) 0.33932(9)
F2 F 0.5561(3) 0.19207(15) 0.38406(10)
F3 F 0.3249(4) 0.23395(14) 0.35292(9)
O3 O 0.1488(3) 0.12525(14) 0.40222(11)
O4 O 0.4121(3) 0.08459(13) 0.44021(10)
O5 O 0.3249(4) 0.20716(13) 0.45232(10)
C43 C 0.4008(5) 0.1747(2) 0.37260(15)
S2 S 0.86678(12) 0.65426(5) 0.43349(3)
F4 F 0.5654(3) 0.63984(14) 0.39179(10)
F5 F 0.7396(4) 0.64065(19) 0.34565(9)
F6 F 0.6770(3) 0.73901(14) 0.37683(11)
O6 O 0.8931(3) 0.57781(12) 0.43310(11)
O7 O 0.7981(4) 0.68006(19) 0.47242(11)
O8 O 0.9988(3) 0.69671(14) 0.42110(11)
C44 C 0.7054(5) 0.6694(2) 0.38451(15)
loop_
_geom_bond_atom_site_label_1
_geom_bond_atom_site_label_2
_geom_bond_site_symmetry_1
_geom_bond_site_symmetry_2
Ag1 N1 1_555 1_555
Ag2 N2 1_555 1_555
S1 O3 1_555 1_555
S2 O6 1_555 1_555
F1 C43 1_555 1_555
F2 C43 1_555 1_555
F3 C43 1_555 1_555
F4 C44 1_555 1_555
F5 C44 1_555 1_555
F6 C44 1_555 1_555
O1 C10 1_555 1_555
O2 C31 1_555 1_555
O4 S1 1_555 1_555
O5 S1 1_555 1_555
O7 S2 1_555 1_555
O8 S2 1_555 1_555
N1 C1 1_555 1_555
N2 C18 1_555 1_555
N3 C22 1_555 1_555
N4 Ag1 1_555 1_555
C1 H1 1_555 1_555
C2 C1 1_555 1_555
H2 C2 1_555 1_555
C3 C2 1_555 1_555
H3 C3 1_555 1_555
C4 C3 1_555 1_555
C5 N1 1_555 1_555
H4 C5 1_555 1_555
C6 C4 1_555 1_555
C7 C6 1_555 1_555
C8 C7 1_555 1_555
C9 C8 1_555 1_555
H5 C9 1_555 1_555
C10 C9 1_555 1_555
C11 C10 1_555 1_555
H6 C11 1_555 1_555
C12 C11 1_555 1_555
C13 C8 1_555 1_555
H7 C13 1_555 1_555
C14 O1 1_555 1_555
H8 C14 1_555 1_555
H9 C14 1_555 1_555
H10 C14 1_555 1_555
C15 C12 1_555 1_555
C16 C15 1_555 1_555
C17 C16 1_555 1_555
C18 C17 1_555 1_555
H11 C18 1_555 1_555
C19 N2 1_555 1_555
H12 C19 1_555 1_555
C20 C19 1_555 1_555
H13 C20 1_555 1_555
C21 C17 1_555 1_555
H14 C21 1_555 1_555
C22 H15 1_555 1_555
C23 C22 1_555 1_555
H16 C23 1_555 1_555
C24 C23 1_555 1_555
H17 C24 1_555 1_555
C25 C24 1_555 1_555
C26 N3 1_555 1_555
H18 C26 1_555 1_555
C27 C25 1_555 1_555
C28 C27 1_555 1_555
C29 C28 1_555 1_555
C30 C29 1_555 1_555
H19 C30 1_555 1_555
C31 C30 1_555 1_555
C32 C31 1_555 1_555
H20 C32 1_555 1_555
C33 C32 1_555 1_555
C34 C29 1_555 1_555
H21 C34 1_555 1_555
C35 O2 1_555 1_555
H22 C35 1_555 1_555
H23 C35 1_555 1_555
H24 C35 1_555 1_555
C36 C33 1_555 1_555
C37 C36 1_555 1_555
C38 C37 1_555 1_555
C39 N4 1_555 1_555
H25 C39 1_555 1_555
C40 N4 1_555 1_555
H26 C40 1_555 1_555
C41 C40 1_555 1_555
H27 C41 1_555 1_555
C42 C38 1_555 1_555
H28 C42 1_555 1_555
C43 S1 1_555 1_555
C44 S2 1_555 1_555
Ag1B Ag1 1_555 1_555
Ag2B Ag2 1_555 1_555
Ag2_2 N3 1_555 1_555
N3_2 Ag2 1_555 1_555
C4 C5 1_555 1_555
C12 C13 1_555 1_555
C20 C21 1_555 1_555
C25 C26 1_555 1_555
C33 C34 1_555 1_555
C38 C39 1_555 1_555
C41 C42 1_555 1_555

#END
