
#######################################################################
#
#                 Cambridge Crystallographic Data Centre
#                                CCDC 
#
#######################################################################
#
# If this CIF has been generated from an entry in the Cambridge 
# Structural Database, then it will include bibliographic, chemical, 
# crystal, experimental, refinement or atomic coordinate data resulting 
# from the CCDC's data processing and validation procedures.
#
#######################################################################

data_UCALUH
_symmetry_cell_setting           triclinic
_symmetry_space_group_name_H-M   'P -1'
_symmetry_Int_Tables_number      2
_space_group_name_Hall           '-P 1'
loop_
_symmetry_equiv_pos_site_id
_symmetry_equiv_pos_as_xyz
1 x,y,z
2 -x,-y,-z
_cell_length_a                   8.5593(4)
_cell_length_b                   15.5490(8)
_cell_length_c                   15.5897(8)
_cell_angle_alpha                85.7660(10)
_cell_angle_beta                 83.7050(10)
_cell_angle_gamma                82.6390(10)
_cell_volume                     2041.54
loop_
_atom_site_label
_atom_site_type_symbol
_atom_site_fract_x
_atom_site_fract_y
_atom_site_fract_z
Dy1 Dy 0.53219(3) 0.318536(18) 0.720289(19)
Dy2 Dy 0.64375(3) 0.086466(18) 0.743581(18)
C1 C 0.2748(8) 0.5894(4) 0.6438(4)
C2 C 0.2575(8) 0.6318(5) 0.7197(5)
H1 H 0.2936 0.6040 0.7700
C3 C 0.1848(9) 0.7170(5) 0.7191(6)
H2 H 0.1728 0.7478 0.7688
C4 C 0.1308(9) 0.7549(5) 0.6437(6)
H3 H 0.0819 0.8118 0.6414
C5 C 0.1508(9) 0.7063(5) 0.5705(6)
H4 H 0.1112 0.7319 0.5202
C6 C 0.3523(8) 0.4989(4) 0.6438(4)
C7 C 0.4118(8) 0.3278(4) 0.5094(4)
H5 H 0.3536 0.3574 0.4670
C8 C 0.4852(8) 0.2407(4) 0.4931(4)
C9 C 0.5525(7) 0.1813(4) 0.5548(4)
C10 C 0.6207(8) 0.0998(4) 0.5269(4)
C11 C 0.7744(8) -0.0361(4) 0.5605(4)
H6 H 0.7705 -0.0381 0.4994
H7 H 0.7320 -0.0857 0.5900
H8 H 0.8823 -0.0366 0.5723
C12 C 0.6287(8) 0.0789(5) 0.4416(4)
H9 H 0.6785 0.0253 0.4244
C13 C 0.5609(9) 0.1395(5) 0.3817(4)
H10 H 0.5637 0.1261 0.3243
C14 C 0.4905(9) 0.2182(5) 0.4075(5)
H11 H 0.4448 0.2580 0.3672
C15 C 0.6376(8) -0.2070(4) 0.8076(4)
C16 C 0.7655(8) -0.2457(4) 0.7582(5)
H12 H 0.8357 -0.2127 0.7250
C17 C 0.7875(9) -0.3352(5) 0.7592(5)
H13 H 0.8742 -0.3642 0.7275
C18 C 0.6783(9) -0.3801(5) 0.8079(5)
H14 H 0.6881 -0.4404 0.8092
C19 C 0.5535(9) -0.3343(5) 0.8549(5)
H15 H 0.4811 -0.3658 0.8884
C20 C 0.6163(8) -0.1105(4) 0.8088(4)
C21 C 0.3768(8) 0.0452(4) 0.9259(4)
H16 H 0.3258 0.0054 0.9627
C22 C 0.3293(7) 0.1357(4) 0.9379(4)
C23 C 0.3944(7) 0.2053(4) 0.8899(4)
C24 C 0.3361(8) 0.2897(4) 0.9148(4)
C25 C 0.3764(9) 0.4400(4) 0.8999(5)
H17 H 0.3262 0.4358 0.9579
H18 H 0.3086 0.4775 0.8643
H19 H 0.4750 0.4633 0.8997
C26 C 0.2181(8) 0.3052(4) 0.9817(4)
H20 H 0.1833 0.3618 0.9965
C27 C 0.1510(8) 0.2358(5) 1.0272(4)
H21 H 0.0689 0.2457 1.0710
C28 C 0.2088(8) 0.1526(5) 1.0060(4)
H22 H 0.1673 0.1061 1.0374
N1 N 0.2238(7) 0.6252(4) 0.5689(4)
N2 N 0.3464(7) 0.4537(3) 0.5757(4)
H23 H 0.2990 0.4761 0.5320
N3 N 0.4205(6) 0.3676(3) 0.5777(4)
N4 N 0.5296(7) -0.2486(3) 0.8557(4)
N5 N 0.5074(6) -0.0761(3) 0.8682(3)
H24 H 0.4538 -0.1079 0.9048
N6 N 0.4851(6) 0.0149(3) 0.8678(3)
O1 O 0.4224(6) 0.4653(3) 0.7070(3)
O2 O 0.5565(5) 0.1981(3) 0.6381(3)
O3 O 0.6814(6) 0.0429(3) 0.5906(3)
O4 O 0.6923(5) -0.0646(3) 0.7564(3)
O5 O 0.5036(5) 0.1968(3) 0.8224(3)
O6 O 0.4058(6) 0.3548(3) 0.8663(3)
O7 O 0.7011(6) 0.3865(3) 0.7999(3)
O8 O 0.7346(6) 0.3692(3) 0.6175(3)
O9 O 0.2541(5) 0.3010(3) 0.7308(3)
O10 O 0.9185(5) 0.0438(3) 0.6929(3)
O11 O 0.7942(6) 0.0679(3) 0.8675(3)
O12 O 0.3773(5) 0.0638(3) 0.7102(3)
O13 O 0.8767(4) 0.5319(2) 0.5878(3)
O14 O 0.7859(5) 0.2175(3) 0.7325(3)
Na1 Na 0.9985(4) 0.4495(2) 0.7237(3)
O9_2 O 1.2541(5) 0.3010(3) 0.7308(3)
Na1_2 Na -0.0015(4) 0.4495(2) 0.7237(3)
Cl1 Cl 0.1119(2) 0.18694(11) 0.61019(11)
Cl2 Cl 0.8748(2) 0.05340(13) 0.17809(13)
Cl3 Cl 0.7737(3) 0.36039(16) 0.98912(14)
O15 O 0.7388(6) 0.1530(3) 1.0156(3)
O16 O 0.9710(6) 0.2336(3) 0.8511(3)
O17 O -0.0317(15) 0.5078(8) 0.9154(8)
loop_
_geom_bond_atom_site_label_1
_geom_bond_atom_site_label_2
_geom_bond_site_symmetry_1
_geom_bond_site_symmetry_2
Dy1 N3 1_555 1_555
Dy2 N6 1_555 1_555
C1 C2 1_555 1_555
C2 H1 1_555 1_555
C3 C2 1_555 1_555
H2 C3 1_555 1_555
C4 C3 1_555 1_555
H3 C4 1_555 1_555
C5 C4 1_555 1_555
H4 C5 1_555 1_555
C6 C1 1_555 1_555
C7 H5 1_555 1_555
C8 C7 1_555 1_555
C9 C8 1_555 1_555
C10 C9 1_555 1_555
C11 H6 1_555 1_555
H7 C11 1_555 1_555
H8 C11 1_555 1_555
C12 C10 1_555 1_555
H9 C12 1_555 1_555
C13 C12 1_555 1_555
H10 C13 1_555 1_555
C14 C8 1_555 1_555
H11 C14 1_555 1_555
C15 C16 1_555 1_555
C16 H12 1_555 1_555
C17 C16 1_555 1_555
H13 C17 1_555 1_555
C18 C17 1_555 1_555
H14 C18 1_555 1_555
C19 C18 1_555 1_555
H15 C19 1_555 1_555
C20 C15 1_555 1_555
C21 H16 1_555 1_555
C22 C21 1_555 1_555
C23 C22 1_555 1_555
C24 C23 1_555 1_555
C25 H17 1_555 1_555
H18 C25 1_555 1_555
H19 C25 1_555 1_555
C26 C24 1_555 1_555
H20 C26 1_555 1_555
C27 C26 1_555 1_555
H21 C27 1_555 1_555
C28 C22 1_555 1_555
H22 C28 1_555 1_555
N1 C1 1_555 1_555
N2 C6 1_555 1_555
H23 N2 1_555 1_555
N3 C7 1_555 1_555
N4 C15 1_555 1_555
N5 C20 1_555 1_555
H24 N5 1_555 1_555
N6 C21 1_555 1_555
O1 Dy1 1_555 1_555
O2 Dy1 1_555 1_555
O3 Dy2 1_555 1_555
O4 Dy2 1_555 1_555
O5 Dy1 1_555 1_555
O6 Dy1 1_555 1_555
O7 Dy1 1_555 1_555
O8 Dy1 1_555 1_555
O9 Dy1 1_555 1_555
O10 Dy2 1_555 1_555
O11 Dy2 1_555 1_555
O12 Dy2 1_555 1_555
O13 Na1 1_555 1_555
O14 Dy1 1_555 1_555
Na1 O7 1_555 1_555
O9_2 Na1 1_555 1_555
Na1_2 O9 1_555 1_555
Dy2 O2 1_555 1_555
Dy2 O5 1_555 1_555
Dy2 O14 1_555 1_555
C5 N1 1_555 1_555
C6 O1 1_555 1_555
C9 O2 1_555 1_555
C10 O3 1_555 1_555
C11 O3 1_555 1_555
C13 C14 1_555 1_555
C19 N4 1_555 1_555
C20 O4 1_555 1_555
C23 O5 1_555 1_555
C24 O6 1_555 1_555
C25 O6 1_555 1_555
C27 C28 1_555 1_555
N2 N3 1_555 1_555
N5 N6 1_555 1_555

#END
