
#######################################################################
#
#                 Cambridge Crystallographic Data Centre
#                                CCDC 
#
#######################################################################
#
# If this CIF has been generated from an entry in the Cambridge 
# Structural Database, then it will include bibliographic, chemical, 
# crystal, experimental, refinement or atomic coordinate data resulting 
# from the CCDC's data processing and validation procedures.
#
#######################################################################

data_UCAPEV
_symmetry_cell_setting           monoclinic
_symmetry_space_group_name_H-M   'P 21/c'
_symmetry_Int_Tables_number      14
_space_group_name_Hall           '-P 2ybc'
loop_
_symmetry_equiv_pos_site_id
_symmetry_equiv_pos_as_xyz
1 x,y,z
2 -x,1/2+y,1/2-z
3 -x,-y,-z
4 x,1/2-y,1/2+z
_cell_length_a                   5.2329(19)
_cell_length_b                   5.905(2)
_cell_length_c                   14.752(5)
_cell_angle_alpha                90
_cell_angle_beta                 105.816(12)
_cell_angle_gamma                90
_cell_volume                     438.584
loop_
_atom_site_label
_atom_site_type_symbol
_atom_site_fract_x
_atom_site_fract_y
_atom_site_fract_z
Cu1 Cu 0.5437(2) 0.3724(2) 0.17856(8)
C1 C 0.143(2) 0.3188(18) -0.0065(6)
C2 C -0.086(2) 0.3589(16) -0.0724(6)
H1 H -0.1391 0.2608 -0.1234
N1 N 0.2377(15) 0.4648(13) 0.0665(4)
N2 N 0.3019(14) 0.1435(13) 0.2377(6)
N3 N 0.0844(15) 0.1661(12) 0.2040(5)
N4 N -0.1548(14) 0.1864(15) 0.1695(6)
N5 N 0.317(3) 0.152(3) -0.0125(11)
H2 H 0.2834 0.0640 -0.0608
H3 H 0.4609 0.1340 0.0321
Cu1B Cu -0.5437(2) 0.6276(2) -0.17856(8)
Cu1A Cu 0.4563(2) -0.1276(2) 0.32144(8)
Cu1_2 Cu -0.4563(2) 0.3724(2) 0.17856(8)
Cu1C Cu -0.4563(2) 1.1276(2) -0.32144(8)
Cu1B_2 Cu 0.4563(2) 0.6276(2) -0.17856(8)
C1B C -0.143(2) 0.6812(18) 0.0065(6)
C2B C 0.086(2) 0.6411(16) 0.0724(6)
H1B H 0.1391 0.7392 0.1234
N1B N -0.2377(15) 0.5352(13) -0.0665(4)
N2A N 0.6981(14) 0.6435(13) 0.2623(6)
N2B N -0.3019(14) 0.8565(13) -0.2377(6)
N2C N -0.6981(14) 0.3565(13) -0.2623(6)
N3B N -0.0844(15) 0.8339(12) -0.2040(5)
N4_2 N 0.8452(14) 0.1864(15) 0.1695(6)
N4B N -0.8452(14) 0.8136(15) -0.1695(6)
N4B_2 N 0.1548(14) 0.8136(15) -0.1695(6)
N5B N -0.317(3) 0.848(3) 0.0125(11)
H2B H -0.2834 0.9360 0.0608
H3B H -0.4609 0.8660 -0.0321
loop_
_geom_bond_atom_site_label_1
_geom_bond_atom_site_label_2
_geom_bond_site_symmetry_1
_geom_bond_site_symmetry_2
Cu1 N1 1_555 1_555
C1 C2 1_555 1_555
C2 H1 1_555 1_555
N1 C1 1_555 1_555
N2 Cu1 1_555 1_555
N3 N2 1_555 1_555
N4 N3 1_555 1_555
N5 C1 1_555 1_555
H2 N5 1_555 1_555
H3 N5 1_555 1_555
Cu1B N1B 1_555 1_555
Cu1A N2 1_555 1_555
Cu1_2 N4 1_555 1_555
Cu1C N2B 1_555 1_555
Cu1B_2 N4B_2 1_555 1_555
C1B C2B 1_555 1_555
C2B N1 1_555 1_555
H1B C2B 1_555 1_555
N1B C2 1_555 1_555
N2A Cu1 1_555 1_555
N2B Cu1B 1_555 1_555
N2C Cu1B 1_555 1_555
N3B N2B 1_555 1_555
N4_2 Cu1 1_555 1_555
N4B Cu1B 1_555 1_555
N4B_2 N3B 1_555 1_555
N5B C1B 1_555 1_555
H2B N5B 1_555 1_555
H3B N5B 1_555 1_555
C1B N1B 1_555 1_555

#END
