
#######################################################################
#
#                 Cambridge Crystallographic Data Centre
#                                CCDC 
#
#######################################################################
#
# If this CIF has been generated from an entry in the Cambridge 
# Structural Database, then it will include bibliographic, chemical, 
# crystal, experimental, refinement or atomic coordinate data resulting 
# from the CCDC's data processing and validation procedures.
#
#######################################################################

data_UCAPUL
_symmetry_cell_setting           monoclinic
_symmetry_space_group_name_H-M   'P 21/c'
_symmetry_Int_Tables_number      14
_space_group_name_Hall           '-P 2ybc'
loop_
_symmetry_equiv_pos_site_id
_symmetry_equiv_pos_as_xyz
1 x,y,z
2 -x,1/2+y,1/2-z
3 -x,-y,-z
4 x,1/2-y,1/2+z
_cell_length_a                   19.2337(14)
_cell_length_b                   20.1215(14)
_cell_length_c                   8.9404(6)
_cell_angle_alpha                90
_cell_angle_beta                 98.4030(10)
_cell_angle_gamma                90
_cell_volume                     3422.89
loop_
_atom_site_label
_atom_site_type_symbol
_atom_site_fract_x
_atom_site_fract_y
_atom_site_fract_z
Cd1 Cd 0.073214(9) 0.175651(9) 0.15774(2)
Fe1 Fe -0.338346(19) 0.116235(18) 0.09782(4)
Fe2 Fe 0.426176(19) 0.120701(19) 0.36582(4)
N1 N 0.12017(12) 0.07040(11) 0.2339(2)
N2 N 0.05700(12) 0.09899(11) -0.0429(2)
N3 N -0.21125(10) 0.25105(11) 0.0224(2)
H1 H -0.2254 0.2579 0.1100
N4 N 0.29546(11) 0.25870(12) 0.4536(2)
H2 H 0.3077 0.2693 0.3664
O1 O -0.02177(9) 0.23859(9) 0.0717(2)
O2 O -0.10220(10) 0.17178(9) 0.1472(2)
O3 O -0.22183(11) 0.19099(10) -0.1907(2)
O4 O 0.16911(9) 0.21286(10) 0.30446(19)
O5 O 0.10885(9) 0.25920(10) 0.4674(2)
O6 O 0.31327(12) 0.19168(11) 0.6576(2)
O7 O 0.00963(10) 0.15433(9) 0.36275(19)
H3 H -0.0294 0.1557 0.3051
H4 H 0.0156 0.1878 0.4211
C1 C 0.15074(17) 0.05937(16) 0.3750(3)
H5 H 0.1510 0.0934 0.4455
C2 C 0.18181(17) 0.00012(17) 0.4212(3)
H6 H 0.2030 -0.0059 0.5206
C3 C 0.18095(17) -0.05003(16) 0.3172(4)
H7 H 0.2018 -0.0907 0.3453
C4 C 0.14927(16) -0.03975(14) 0.1721(3)
H8 H 0.1482 -0.0733 0.1003
C5 C 0.11865(14) 0.02164(12) 0.1333(3)
C6 C 0.08210(13) 0.03713(13) -0.0218(3)
C7 C 0.07460(16) -0.00871(15) -0.1389(3)
H9 H 0.0910 -0.0520 -0.1223
C8 C 0.04294(19) 0.01044(18) -0.2785(4)
H10 H 0.0381 -0.0196 -0.3583
C9 C 0.01836(19) 0.07361(18) -0.3012(3)
H11 H -0.0031 0.0873 -0.3962
C10 C 0.02592(17) 0.11632(15) -0.1814(3)
H12 H 0.0087 0.1594 -0.1966
C11 C -0.08418(13) 0.22194(13) 0.0826(3)
C12 C -0.13979(13) 0.27093(13) 0.0127(3)
H13 H -0.1310 0.3136 0.0626
H14 H -0.1350 0.2770 -0.0929
C13 C -0.24595(14) 0.20914(12) -0.0775(3)
C14 C -0.31627(14) 0.18739(13) -0.0507(3)
C15 C -0.35296(16) 0.13327(15) -0.1297(3)
H15 H -0.3365 0.1071 -0.2028
C16 C -0.41832(16) 0.12628(17) -0.0781(3)
H16 H -0.4524 0.0947 -0.1110
C17 C -0.42320(15) 0.17533(15) 0.0318(3)
H17 H -0.4612 0.1819 0.0836
C18 C -0.36026(14) 0.21303(13) 0.0501(3)
H18 H -0.3496 0.2484 0.1165
C19 C -0.2962(2) 0.10933(16) 0.3186(3)
H19 H -0.2912 0.1440 0.3882
C20 C -0.24728(17) 0.09019(18) 0.2261(4)
H20 H -0.2040 0.1101 0.2219
C21 C -0.2751(2) 0.03575(18) 0.1411(4)
H21 H -0.2532 0.0126 0.0709
C22 C -0.34088(18) 0.02203(16) 0.1789(4)
H22 H -0.3709 -0.0117 0.1380
C23 C -0.35426(17) 0.06711(15) 0.2877(3)
H23 H -0.3949 0.0690 0.3327
C24 C 0.16421(13) 0.24908(12) 0.4155(3)
C25 C 0.22977(13) 0.28441(14) 0.4897(3)
H24 H 0.2263 0.3309 0.4607
H25 H 0.2310 0.2823 0.5984
C26 C 0.33268(14) 0.21446(14) 0.5419(3)
C27 C 0.40248(14) 0.19528(14) 0.5033(3)
C28 C 0.43902(13) 0.22103(13) 0.3891(3)
H26 H 0.4224 0.2530 0.3176
C29 C 0.50539(15) 0.18912(14) 0.4040(3)
H27 H 0.5400 0.1965 0.3432
C30 C 0.51006(16) 0.14469(16) 0.5253(3)
H28 H 0.5483 0.1176 0.5590
C31 C 0.44728(16) 0.14796(16) 0.5874(3)
H29 H 0.4367 0.1235 0.6694
C32 C 0.33454(17) 0.08259(18) 0.2582(4)
H30 H 0.2899 0.0993 0.2643
C33 C 0.37795(18) 0.10079(15) 0.1525(3)
H31 H 0.3669 0.1314 0.0747
C34 C 0.44114(17) 0.06492(15) 0.1836(3)
H32 H 0.4793 0.0679 0.1309
C35 C 0.4363(2) 0.02417(15) 0.3075(4)
H33 H 0.4706 -0.0050 0.3523
C36 C 0.3703(2) 0.03487(17) 0.3529(4)
H34 H 0.3534 0.0137 0.4327
Cd1C Cd 0.073214(9) 0.324349(9) 0.65774(2)
O5C O 0.10885(9) 0.24080(10) -0.0326(2)
loop_
_geom_bond_atom_site_label_1
_geom_bond_atom_site_label_2
_geom_bond_site_symmetry_1
_geom_bond_site_symmetry_2
Cd1 N1 1_555 1_555
Fe1 C14 1_555 1_555
Fe2 C27 1_555 1_555
N1 C1 1_555 1_555
N2 Cd1 1_555 1_555
N3 H1 1_555 1_555
N4 H2 1_555 1_555
O1 Cd1 1_555 1_555
O2 C11 1_555 1_555
O3 C13 1_555 1_555
O4 Cd1 1_555 1_555
O5 C24 1_555 1_555
O6 C26 1_555 1_555
O7 Cd1 1_555 1_555
H3 O7 1_555 1_555
H4 O7 1_555 1_555
C1 H5 1_555 1_555
C2 C1 1_555 1_555
H6 C2 1_555 1_555
C3 C2 1_555 1_555
H7 C3 1_555 1_555
C4 C3 1_555 1_555
H8 C4 1_555 1_555
C5 N1 1_555 1_555
C6 N2 1_555 1_555
C7 C6 1_555 1_555
H9 C7 1_555 1_555
C8 C7 1_555 1_555
H10 C8 1_555 1_555
C9 C8 1_555 1_555
H11 C9 1_555 1_555
C10 N2 1_555 1_555
H12 C10 1_555 1_555
C11 O1 1_555 1_555
C12 N3 1_555 1_555
H13 C12 1_555 1_555
H14 C12 1_555 1_555
C13 N3 1_555 1_555
C14 C13 1_555 1_555
C15 Fe1 1_555 1_555
H15 C15 1_555 1_555
C16 Fe1 1_555 1_555
H16 C16 1_555 1_555
C17 Fe1 1_555 1_555
H17 C17 1_555 1_555
C18 Fe1 1_555 1_555
H18 C18 1_555 1_555
C19 Fe1 1_555 1_555
H19 C19 1_555 1_555
C20 Fe1 1_555 1_555
H20 C20 1_555 1_555
C21 Fe1 1_555 1_555
H21 C21 1_555 1_555
C22 Fe1 1_555 1_555
H22 C22 1_555 1_555
C23 Fe1 1_555 1_555
H23 C23 1_555 1_555
C24 O4 1_555 1_555
C25 N4 1_555 1_555
H24 C25 1_555 1_555
H25 C25 1_555 1_555
C26 N4 1_555 1_555
C27 C26 1_555 1_555
C28 Fe2 1_555 1_555
H26 C28 1_555 1_555
C29 Fe2 1_555 1_555
H27 C29 1_555 1_555
C30 Fe2 1_555 1_555
H28 C30 1_555 1_555
C31 Fe2 1_555 1_555
H29 C31 1_555 1_555
C32 Fe2 1_555 1_555
H30 C32 1_555 1_555
C33 Fe2 1_555 1_555
H31 C33 1_555 1_555
C34 Fe2 1_555 1_555
H32 C34 1_555 1_555
C35 Fe2 1_555 1_555
H33 C35 1_555 1_555
C36 Fe2 1_555 1_555
H34 C36 1_555 1_555
Cd1C O5 1_555 1_555
O5C Cd1 1_555 1_555
C4 C5 1_555 1_555
C5 C6 1_555 1_555
C9 C10 1_555 1_555
C11 C12 1_555 1_555
C14 C15 1_555 1_555
C14 C18 1_555 1_555
C15 C16 1_555 1_555
C16 C17 1_555 1_555
C17 C18 1_555 1_555
C19 C20 1_555 1_555
C19 C23 1_555 1_555
C20 C21 1_555 1_555
C21 C22 1_555 1_555
C22 C23 1_555 1_555
C24 C25 1_555 1_555
C27 C28 1_555 1_555
C27 C31 1_555 1_555
C28 C29 1_555 1_555
C29 C30 1_555 1_555
C30 C31 1_555 1_555
C32 C33 1_555 1_555
C32 C36 1_555 1_555
C33 C34 1_555 1_555
C34 C35 1_555 1_555
C35 C36 1_555 1_555

#END
