
#######################################################################
#
#                 Cambridge Crystallographic Data Centre
#                                CCDC 
#
#######################################################################
#
# If this CIF has been generated from an entry in the Cambridge 
# Structural Database, then it will include bibliographic, chemical, 
# crystal, experimental, refinement or atomic coordinate data resulting 
# from the CCDC's data processing and validation procedures.
#
#######################################################################

data_UCAQUM
_symmetry_cell_setting           monoclinic
_symmetry_space_group_name_H-M   'P 21/c'
_symmetry_Int_Tables_number      14
_space_group_name_Hall           '-P 2ybc'
loop_
_symmetry_equiv_pos_site_id
_symmetry_equiv_pos_as_xyz
1 x,y,z
2 -x,1/2+y,1/2-z
3 -x,-y,-z
4 x,1/2-y,1/2+z
_cell_length_a                   8.8163(18)
_cell_length_b                   8.1249(16)
_cell_length_c                   17.464(4)
_cell_angle_alpha                90
_cell_angle_beta                 91.82(3)
_cell_angle_gamma                90
_cell_volume                     1250.34
loop_
_atom_site_label
_atom_site_type_symbol
_atom_site_fract_x
_atom_site_fract_y
_atom_site_fract_z
Ce1 Ce 0.794143(17) 0.54043(2) 0.213717(9)
O1 O 0.55985(8) 0.39019(10) 0.15807(4)
H1 H 0.5474 0.3043 0.1817
O3 O 0.6646(2) 0.8036(3) 0.17121(12)
O4 O 0.7060(3) 0.6342(3) 0.07551(12)
O5 O 0.4429(2) 1.1000(3) 0.20303(12)
O6 O 0.3201(2) 0.8688(3) 0.17660(12)
O7 O 0.9027(3) 0.3118(3) 0.14225(14)
O8 O 1.1398(2) 0.2255(3) 0.17057(12)
O9 O 0.9888(2) -0.0556(3) 0.20747(12)
O10 O 1.0035(2) -0.3051(3) 0.15550(12)
C1 C 0.6074(3) 0.8921(4) -0.02850(17)
H3 H 0.6786 0.8197 -0.0476
C2 C 0.4606(3) 0.9919(4) 0.07665(17)
C3 C 0.5696(3) 0.8834(4) 0.04855(16)
C4 C 0.4083(3) 0.9820(4) 0.15837(17)
C5 C 0.6512(3) 0.7658(4) 0.10115(17)
C6 C 0.9985(3) 0.1692(4) -0.00791(16)
H4 H 0.9970 0.2830 -0.0134
C7 C 1.0027(3) 0.1014(4) 0.06561(16)
C8 C 1.0034(3) -0.0707(4) 0.07312(17)
C9 C 1.0158(3) 0.2198(4) 0.13235(16)
C10 C 0.9992(3) -0.1500(4) 0.15079(16)
H5 H 0.527(7) 0.391(6) 0.1129(14)
Ce1B Ce 0.205857(17) 1.45957(2) -0.213717(9)
Ce1A Ce 0.205857(17) 1.04043(2) 0.286283(9)
Ce1A_2 Ce 1.205857(17) 0.04043(2) 0.286283(9)
Ce1_2 Ce 0.794143(17) -0.45957(2) 0.213717(9)
Ce1C Ce 0.794143(17) 0.95957(2) -0.286283(9)
Ce1B_2 Ce 1.205857(17) -0.54043(2) -0.213717(9)
Ce1C_2 Ce 0.794143(17) -0.04043(2) -0.286283(9)
Ce1B_3 Ce 1.205857(17) 0.45957(2) -0.213717(9)
O1B O 0.44015(8) 1.60981(10) -0.15807(4)
H1B H 0.4526 1.6957 -0.1817
O3B O 0.3354(2) 1.1964(3) -0.17121(12)
O4B O 0.2940(3) 1.3658(3) -0.07551(12)
O5B O 0.5571(2) 0.9000(3) -0.20303(12)
O5A O 0.5571(2) 0.6000(3) 0.29697(12)
O5C O 0.4429(2) 1.4000(3) -0.29697(12)
O6B O 0.6799(2) 1.1312(3) -0.17660(12)
O6A O 0.6799(2) 0.3688(3) 0.32340(12)
O6C O 0.3201(2) 1.6312(3) -0.32340(12)
O7B O 1.0973(3) -0.3118(3) -0.14225(14)
O7B_2 O 0.0973(3) 1.6882(3) -0.14225(14)
O8B O 0.8602(2) -0.2255(3) -0.17057(12)
O8A O 0.8602(2) 0.7255(3) 0.32943(12)
O8C O 0.1398(2) 1.2745(3) -0.32943(12)
O9B O 1.0112(2) 0.0556(3) -0.20747(12)
O9A O 1.0112(2) 0.4444(3) 0.29253(12)
O9C O -0.0112(2) 1.5556(3) -0.29253(12)
O10B O 0.9965(2) 0.3051(3) -0.15550(12)
O10_2 O 1.0035(2) 0.6949(3) 0.15550(12)
O10B_2 O -0.0035(2) 1.3051(3) -0.15550(12)
C1B C 0.3926(3) 1.1079(4) 0.02850(17)
H3B H 0.3214 1.1803 0.0476
C2B C 0.5394(3) 1.0081(4) -0.07665(17)
C3B C 0.4304(3) 1.1166(4) -0.04855(16)
C4B C 0.5917(3) 1.0180(4) -0.15837(17)
C5B C 0.3488(3) 1.2342(4) -0.10115(17)
C6B C 1.0015(3) -0.1692(4) 0.00791(16)
H4B H 1.0030 -0.2830 0.0134
C7B C 0.9973(3) -0.1014(4) -0.06561(16)
C8B C 0.9966(3) 0.0707(4) -0.07312(17)
C9B C 0.9842(3) -0.2198(4) -0.13235(16)
C10B C 1.0008(3) 0.1500(4) -0.15079(16)
H5B H 0.473(7) 1.609(6) -0.1129(14)
K1 K 0.73176(8) 0.03303(10) 0.28598(4)
O2 O 0.66779(8) 0.04678(10) 0.44157(4)
H2 H 0.7150 -0.0259 0.4646
H6 H 0.702(6) 0.140(2) 0.458(3)
loop_
_geom_bond_atom_site_label_1
_geom_bond_atom_site_label_2
_geom_bond_site_symmetry_1
_geom_bond_site_symmetry_2
Ce1 O1 1_555 1_555
O1 H1 1_555 1_555
O2 H2 1_555 1_555
O3 Ce1 1_555 1_555
O4 Ce1 1_555 1_555
O5 C4 1_555 1_555
O6 C4 1_555 1_555
O7 Ce1 1_555 1_555
O8 C9 1_555 1_555
O9 C10 1_555 1_555
O10 C10 1_555 1_555
C1 H3 1_555 1_555
C2 C3 1_555 1_555
C3 C1 1_555 1_555
C4 C2 1_555 1_555
C5 O3 1_555 1_555
C6 H4 1_555 1_555
C7 C6 1_555 1_555
C8 C7 1_555 1_555
C9 O7 1_555 1_555
C10 C8 1_555 1_555
H5 O1 1_555 1_555
H6 O2 1_555 1_555
Ce1B O1B 1_555 1_555
Ce1A O5 1_555 1_555
Ce1A_2 O8 1_555 1_555
Ce1_2 O10 1_555 1_555
Ce1C O5B 1_555 1_555
Ce1B_2 O7B 1_555 1_555
Ce1C_2 O8B 1_555 1_555
Ce1B_3 O10B 1_555 1_555
O1B H1B 1_555 1_555
O3B Ce1B 1_555 1_555
O4B Ce1B 1_555 1_555
O5B C4B 1_555 1_555
O5A Ce1 1_555 1_555
O5C Ce1B 1_555 1_555
O6B Ce1C 1_555 1_555
O6A Ce1 1_555 1_555
O6C Ce1B 1_555 1_555
O7B C9B 1_555 1_555
O7B_2 Ce1B 1_555 1_555
O8B C9B 1_555 1_555
O8A Ce1 1_555 1_555
O8C Ce1B 1_555 1_555
O9B Ce1C_2 1_555 1_555
O9A Ce1 1_555 1_555
O9C Ce1B 1_555 1_555
O10B C10B 1_555 1_555
O10_2 Ce1 1_555 1_555
O10B_2 Ce1B 1_555 1_555
C1B C2 1_555 1_555
H3B C1B 1_555 1_555
C2B C1 1_555 1_555
C3B C1B 1_555 1_555
C4B O6B 1_555 1_555
C5B O3B 1_555 1_555
C6B C8 1_555 1_555
H4B C6B 1_555 1_555
C7B C6B 1_555 1_555
C8B C6 1_555 1_555
C9B C7B 1_555 1_555
C10B O9B 1_555 1_555
H5B O1B 1_555 1_555
O4 C5 1_555 1_555
O6 Ce1A 1_555 1_555
O9 Ce1A_2 1_555 1_555
C3 C5 1_555 1_555
C7 C9 1_555 1_555
O4B C5B 1_555 1_555
C2B C3B 1_555 1_555
C2B C4B 1_555 1_555
C3B C5B 1_555 1_555
C7B C8B 1_555 1_555
C8B C10B 1_555 1_555

#END
