
#######################################################################
#
#                 Cambridge Crystallographic Data Centre
#                                CCDC 
#
#######################################################################
#
# If this CIF has been generated from an entry in the Cambridge 
# Structural Database, then it will include bibliographic, chemical, 
# crystal, experimental, refinement or atomic coordinate data resulting 
# from the CCDC's data processing and validation procedures.
#
#######################################################################

data_UCASIC
_symmetry_cell_setting           monoclinic
_symmetry_space_group_name_H-M   'C 2'
_symmetry_Int_Tables_number      5
_space_group_name_Hall           'C 2y'
loop_
_symmetry_equiv_pos_site_id
_symmetry_equiv_pos_as_xyz
1 x,y,z
2 -x,y,-z
3 1/2+x,1/2+y,z
4 1/2-x,1/2+y,-z
_cell_length_a                   21.7375(3)
_cell_length_b                   8.8278(2)
_cell_length_c                   14.5771(3)
_cell_angle_alpha                90
_cell_angle_beta                 130.707(1)
_cell_angle_gamma                90
_cell_volume                     2120.48
loop_
_atom_site_label
_atom_site_type_symbol
_atom_site_fract_x
_atom_site_fract_y
_atom_site_fract_z
C1 C 0.11993(13) 0.5609(3) 0.5362(2)
H1 H 0.0854 0.5223 0.5541
C2 C 0.11968(14) 0.4435(3) 0.4538(2)
H2 H 0.1031 0.4958 0.3798
C3 C 0.38793(14) 0.3894(3) 0.8075(2)
H3 H 0.4151 0.4286 0.8905
C4 C 0.39317(15) 0.5096(3) 0.7330(2)
H4 H 0.4084 0.4583 0.6892
C5 C 0.08755(15) 0.7113(3) 0.4711(2)
C6 C -0.03419(16) 0.8464(3) 0.3216(3)
H5 H -0.0293 0.8519 0.2588
H6 H -0.0093 0.9386 0.3725
C7 C -0.12116(16) 0.8361(4) 0.2640(3)
H7 H -0.1501 0.9263 0.2144
H8 H -0.1253 0.8295 0.3270
H9 H -0.1454 0.7456 0.2128
C8 C 0.06176(15) 0.3151(3) 0.4176(2)
C9 C -0.07812(14) 0.2555(3) 0.2972(3)
H10 H -0.0708 0.2172 0.3677
H11 H -0.0756 0.1685 0.2569
C10 C -0.15852(16) 0.3343(4) 0.2104(3)
H12 H -0.2023 0.2631 0.1825
H13 H -0.1653 0.3712 0.1408
H14 H -0.1604 0.4201 0.2512
C11 C 0.42586(15) 0.2403(3) 0.8148(2)
C12 C 0.54868(15) 0.1053(3) 0.9142(3)
H15 H 0.5343 0.0783 0.8363
H16 H 0.5328 0.0205 0.9395
C13 C 0.63837(16) 0.1349(3) 1.0090(3)
H17 H 0.6684 0.0432 1.0212
H18 H 0.6517 0.1630 1.0853
H19 H 0.6535 0.2178 0.9823
C14 C 0.45472(15) 0.6331(3) 0.8151(2)
C15 C 0.59529(15) 0.6826(3) 0.9655(3)
H20 H 0.5896 0.7141 1.0248
H21 H 0.5936 0.7743 0.9248
C16 C 0.67427(14) 0.6002(3) 1.0287(2)
H22 H 0.7194 0.6672 1.0890
H23 H 0.6794 0.5698 0.9693
H24 H 0.6755 0.5100 1.0690
O1 O 0.31483(8) 0.57030(18) 0.64931(13)
O2 O 0.20074(9) 0.57114(19) 0.64322(13)
O3 O 0.20007(10) 0.39350(17) 0.52441(15)
O4 O 0.30432(9) 0.36918(18) 0.74171(16)
O5 O 0.00646(10) 0.71203(18) 0.39549(17)
O6 O -0.01499(10) 0.36454(19) 0.33658(17)
O7 O 0.50683(10) 0.24424(19) 0.90095(17)
O8 O 0.52983(9) 0.5799(2) 0.87682(14)
O9 O 0.12839(11) 0.81529(19) 0.48363(17)
O10 O 0.07995(11) 0.18735(19) 0.45615(18)
O11 O 0.38929(10) 0.13270(18) 0.75060(17)
O12 O 0.43943(11) 0.7592(2) 0.82446(19)
K1 K 0.23190(3) 0.07509(6) 0.57610(5)
B1 B 0.25507(18) 0.4753(3) 0.6404(3)
O13 O 0.28742(12) -0.1392(2) 0.75309(18)
H25 H 0.260(2) -0.208(4) 0.711(3)
H26 H 0.338(2) -0.155(4) 0.766(3)
O1C O 0.18517(8) 0.07030(18) 0.35069(13)
O3C O 0.29993(10) -0.10650(17) 0.47559(15)
O9_2 O 0.12839(11) -0.18471(19) 0.48363(17)
K1C K 0.26810(3) 0.57509(6) 0.42390(5)
K1_2 K 0.23190(3) 1.07509(6) 0.57610(5)
loop_
_geom_bond_atom_site_label_1
_geom_bond_atom_site_label_2
_geom_bond_site_symmetry_1
_geom_bond_site_symmetry_2
C1 H1 1_555 1_555
C2 C1 1_555 1_555
H2 C2 1_555 1_555
C3 H3 1_555 1_555
C4 C3 1_555 1_555
H4 C4 1_555 1_555
C5 C1 1_555 1_555
C6 H5 1_555 1_555
H6 C6 1_555 1_555
C7 C6 1_555 1_555
H7 C7 1_555 1_555
H8 C7 1_555 1_555
H9 C7 1_555 1_555
C8 C2 1_555 1_555
C9 H10 1_555 1_555
H11 C9 1_555 1_555
C10 C9 1_555 1_555
H12 C10 1_555 1_555
H13 C10 1_555 1_555
H14 C10 1_555 1_555
C11 C3 1_555 1_555
C12 H15 1_555 1_555
H16 C12 1_555 1_555
C13 C12 1_555 1_555
H17 C13 1_555 1_555
H18 C13 1_555 1_555
H19 C13 1_555 1_555
C14 C4 1_555 1_555
C15 H20 1_555 1_555
H21 C15 1_555 1_555
C16 C15 1_555 1_555
H22 C16 1_555 1_555
H23 C16 1_555 1_555
H24 C16 1_555 1_555
O1 C4 1_555 1_555
O2 C1 1_555 1_555
O3 C2 1_555 1_555
O4 C3 1_555 1_555
O5 C5 1_555 1_555
O6 C8 1_555 1_555
O7 C11 1_555 1_555
O8 C14 1_555 1_555
O9 C5 1_555 1_555
O10 C8 1_555 1_555
O11 C11 1_555 1_555
O12 C14 1_555 1_555
K1 O3 1_555 1_555
B1 O1 1_555 1_555
O13 K1 1_555 1_555
H25 O13 1_555 1_555
H26 O13 1_555 1_555
O1C K1 1_555 1_555
O3C K1 1_555 1_555
O9_2 K1 1_555 1_555
K1C O1 1_555 1_555
K1_2 O9 1_555 1_555
C6 O5 1_555 1_555
C9 O6 1_555 1_555
C12 O7 1_555 1_555
C15 O8 1_555 1_555
O2 B1 1_555 1_555
O3 B1 1_555 1_555
O3 K1C 1_555 1_555
O4 K1 1_555 1_555
O4 B1 1_555 1_555
O10 K1 1_555 1_555
O11 K1 1_555 1_555

#END
