
#######################################################################
#
#                 Cambridge Crystallographic Data Centre
#                                CCDC 
#
#######################################################################
#
# If this CIF has been generated from an entry in the Cambridge 
# Structural Database, then it will include bibliographic, chemical, 
# crystal, experimental, refinement or atomic coordinate data resulting 
# from the CCDC's data processing and validation procedures.
#
#######################################################################

data_UCASUM
_symmetry_cell_setting           monoclinic
_symmetry_space_group_name_H-M   'P 21/c'
_symmetry_Int_Tables_number      14
_space_group_name_Hall           '-P 2ybc'
loop_
_symmetry_equiv_pos_site_id
_symmetry_equiv_pos_as_xyz
1 x,y,z
2 x,1/2-y,1/2+z
3 -x,-y,-z
4 -x,1/2+y,1/2-z
_cell_length_a                   12.266(2)
_cell_length_b                   10.480(2)
_cell_length_c                   11.233(2)
_cell_angle_alpha                90
_cell_angle_beta                 113.59(1)
_cell_angle_gamma                90
_cell_volume                     1323.31
loop_
_atom_site_label
_atom_site_type_symbol
_atom_site_fract_x
_atom_site_fract_y
_atom_site_fract_z
Mn1 Mn 0.0000 0.0000 0.0000
O1 O 0.1730(3) 0.0662(4) 0.0822(4)
C1 C 0.2616(4) 0.0439(5) 0.0551(5)
C2 C 0.3734(5) 0.1207(6) 0.1315(6)
O2 O 0.4654(4) 0.1120(5) 0.1218(5)
O3 O 0.3550(4) 0.2029(5) 0.2110(5)
C3 C 0.4528(7) 0.2880(10) 0.2868(10)
C4 C 0.2689(5) -0.0383(5) -0.0360(5)
H1 H 0.337(5) -0.048(5) -0.031(5)
C5 C 0.1735(4) -0.1154(5) -0.1204(5)
C6 C 0.1953(5) -0.2059(5) -0.2144(5)
C7 C 0.2272(7) -0.1362(7) -0.3158(7)
H2 H 0.226(5) -0.195(6) -0.388(6)
H3 H 0.169(5) -0.078(6) -0.360(6)
H4 H 0.313(7) -0.092(7) -0.263(7)
C8 C 0.2844(6) -0.3107(7) -0.1472(7)
H5 H 0.356(5) -0.282(5) -0.103(6)
H6 H 0.300(6) -0.371(7) -0.200(7)
H7 H 0.259(6) -0.346(6) -0.077(6)
N1 N 0.0754(4) -0.2590(4) -0.2766(4)
O4 O 0.0459(4) -0.3357(5) -0.3691(5)
C9 C -0.0107(5) -0.2050(5) -0.2276(5)
C10 C -0.1100(6) -0.1385(7) -0.3368(6)
H8 H -0.151(5) -0.193(5) -0.411(5)
H9 H -0.161(6) -0.112(7) -0.303(6)
H10 H -0.081(6) -0.072(7) -0.379(7)
C11 C -0.0587(6) -0.3111(6) -0.1695(7)
H11 H -0.116(5) -0.279(5) -0.150(5)
H12 H 0.005(5) -0.346(6) -0.095(6)
H13 H -0.100(6) -0.378(6) -0.235(6)
N2 N 0.0644(4) -0.1161(4) -0.1272(4)
O4A O 0.0459(4) -0.1643(5) 0.1309(5)
Mn1A Mn 0.0000 -0.5000 -0.5000
O4C O -0.0459(4) 0.1643(5) -0.1309(5)
O1B O -0.1730(3) -0.0662(4) -0.0822(4)
N2B N -0.0644(4) 0.1161(4) 0.1272(4)
C5B C -0.1735(4) 0.1154(5) 0.1204(5)
C4B C -0.2689(5) 0.0383(5) 0.0360(5)
C6B C -0.1953(5) 0.2059(5) 0.2144(5)
C9B C 0.0107(5) 0.2050(5) 0.2276(5)
N1B N -0.0754(4) 0.2590(4) 0.2766(4)
O4B O -0.0459(4) 0.3357(5) 0.3691(5)
C10B C 0.1100(6) 0.1385(7) 0.3368(6)
H8B H 0.151(5) 0.193(5) 0.411(5)
H9B H 0.161(6) 0.112(7) 0.303(6)
H10B H 0.081(6) 0.072(7) 0.379(7)
C11B C 0.0587(6) 0.3111(6) 0.1695(7)
H11B H 0.116(5) 0.279(5) 0.150(5)
H12B H -0.005(5) 0.346(6) 0.095(6)
H13B H 0.100(6) 0.378(6) 0.235(6)
C1B C -0.2616(4) -0.0439(5) -0.0551(5)
H1B H -0.337(5) 0.048(5) 0.031(5)
C7B C -0.2272(7) 0.1362(7) 0.3158(7)
C8B C -0.2844(6) 0.3107(7) 0.1472(7)
Mn1A_2 Mn 0.0000 0.5000 0.5000
C2B C -0.3734(5) -0.1207(6) -0.1315(6)
H2B H -0.226(5) 0.195(6) 0.388(6)
H3B H -0.169(5) 0.078(6) 0.360(6)
H4B H -0.313(7) 0.092(7) 0.263(7)
H5B H -0.356(5) 0.282(5) 0.103(6)
H6B H -0.300(6) 0.371(7) 0.200(7)
H7B H -0.259(6) 0.346(6) 0.077(6)
O2B O -0.4654(4) -0.1120(5) -0.1218(5)
O3B O -0.3550(4) -0.2029(5) -0.2110(5)
C3B C -0.4528(7) -0.2880(10) -0.2868(10)
loop_
_geom_bond_atom_site_label_1
_geom_bond_atom_site_label_2
_geom_bond_site_symmetry_1
_geom_bond_site_symmetry_2
Mn1 O1 1_555 1_555
O1 C1 1_555 1_555
C1 C2 1_555 1_555
C2 O2 1_555 1_555
O3 C2 1_555 1_555
C3 O3 1_555 1_555
C4 C1 1_555 1_555
H1 C4 1_555 1_555
C5 C4 1_555 1_555
C6 C5 1_555 1_555
C7 C6 1_555 1_555
H2 C7 1_555 1_555
H3 C7 1_555 1_555
H4 C7 1_555 1_555
C8 C6 1_555 1_555
H5 C8 1_555 1_555
H6 C8 1_555 1_555
H7 C8 1_555 1_555
N1 C6 1_555 1_555
O4 N1 1_555 1_555
C9 N1 1_555 1_555
C10 C9 1_555 1_555
H8 C10 1_555 1_555
H9 C10 1_555 1_555
H10 C10 1_555 1_555
C11 C9 1_555 1_555
H11 C11 1_555 1_555
H12 C11 1_555 1_555
H13 C11 1_555 1_555
N2 Mn1 1_555 1_555
O4A Mn1 1_555 1_555
Mn1A O4 1_555 1_555
O4C Mn1 1_555 1_555
O1B Mn1 1_555 1_555
N2B Mn1 1_555 1_555
C5B N2B 1_555 1_555
C4B C5B 1_555 1_555
C6B C5B 1_555 1_555
C9B N2B 1_555 1_555
N1B C6B 1_555 1_555
O4B N1B 1_555 1_555
C10B C9B 1_555 1_555
H8B C10B 1_555 1_555
H9B C10B 1_555 1_555
H10B C10B 1_555 1_555
C11B C9B 1_555 1_555
H11B C11B 1_555 1_555
H12B C11B 1_555 1_555
H13B C11B 1_555 1_555
C1B O1B 1_555 1_555
H1B C4B 1_555 1_555
C7B C6B 1_555 1_555
C8B C6B 1_555 1_555
Mn1A_2 O4B 1_555 1_555
C2B C1B 1_555 1_555
H2B C7B 1_555 1_555
H3B C7B 1_555 1_555
H4B C7B 1_555 1_555
H5B C8B 1_555 1_555
H6B C8B 1_555 1_555
H7B C8B 1_555 1_555
O2B C2B 1_555 1_555
O3B C2B 1_555 1_555
C3B O3B 1_555 1_555
C5 N2 1_555 1_555
C9 N2 1_555 1_555
C4B C1B 1_555 1_555
C9B N1B 1_555 1_555

#END
