
#######################################################################
#
#                 Cambridge Crystallographic Data Centre
#                                CCDC 
#
#######################################################################
#
# If this CIF has been generated from an entry in the Cambridge 
# Structural Database, then it will include bibliographic, chemical, 
# crystal, experimental, refinement or atomic coordinate data resulting 
# from the CCDC's data processing and validation procedures.
#
#######################################################################

data_UCAXIG
_symmetry_cell_setting           triclinic
_symmetry_space_group_name_H-M   'P -1'
_symmetry_Int_Tables_number      2
_space_group_name_Hall           '-P 1'
loop_
_symmetry_equiv_pos_site_id
_symmetry_equiv_pos_as_xyz
1 x,y,z
2 -x,-y,-z
_cell_length_a                   10.096(4)
_cell_length_b                   10.756(4)
_cell_length_c                   12.167(5)
_cell_angle_alpha                74.097(10)
_cell_angle_beta                 76.083(10)
_cell_angle_gamma                81.210(10)
_cell_volume                     1228.02
loop_
_atom_site_label
_atom_site_type_symbol
_atom_site_fract_x
_atom_site_fract_y
_atom_site_fract_z
Mn1 Mn 0.89035(11) -0.26913(11) 0.71223(10)
Mn2 Mn 0.5000 0.5000 0.5000
O1 O 0.9572(7) -0.3035(7) 0.5421(6)
H1 H 0.892(4) -0.323(8) 0.520(3)
H2 H 0.990(8) -0.239(4) 0.493(2)
O2 O 0.7172(7) 0.4335(7) 0.4502(6)
H3 H 0.762(2) 0.495(4) 0.449(8)
H4 H 0.733(3) 0.372(6) 0.508(4)
O3 O 0.5393(8) 0.5045(7) 0.6695(7)
H5 H 0.591(8) 0.566(6) 0.652(3)
H6 H 0.593(8) 0.436(5) 0.687(4)
O4 O 0.6477(6) -0.2978(6) 0.7084(6)
O5 O 0.7327(6) -0.1088(6) 0.6689(6)
O6 O 0.1431(6) -0.2967(5) 0.7083(5)
O7 O 0.0146(6) -0.1094(6) 0.6913(6)
O8 O 0.2355(6) 0.3110(6) 0.5746(6)
O9 O 0.4558(6) 0.3010(6) 0.5750(6)
C1 C 0.1301(8) -0.1745(7) 0.6920(7)
C2 C 0.3807(9) -0.1694(8) 0.6869(8)
H7 H 0.3885 -0.2596 0.7098
C3 C 0.6336(9) -0.1747(8) 0.6820(8)
C4 C 0.2539(8) -0.1031(8) 0.6728(7)
C5 C 0.4974(8) -0.1033(8) 0.6675(7)
C6 C 0.2439(8) 0.0316(7) 0.6438(7)
H8 H 0.1588 0.0769 0.6374
C7 C 0.4828(8) 0.0322(7) 0.6367(7)
H9 H 0.5596 0.0761 0.6247
C8 C 0.3595(8) 0.1041(7) 0.6234(7)
C9 C 0.3503(9) 0.2466(8) 0.5870(7)
N1 N 0.8203(8) -0.2875(8) 0.9049(7)
N2 N 0.8988(8) -0.4856(8) 0.8047(7)
C10 C 0.7830(11) -0.1843(11) 0.9496(10)
H10 H 0.7868 -0.1014 0.9001
C11 C 0.7393(15) -0.1988(15) 1.0672(13)
H11 H 0.7128 -0.1268 1.0985
C12 C 0.7355(18) -0.3219(17) 1.1378(14)
H12 H 0.7059 -0.3335 1.2182
C13 C 0.7729(17) -0.4246(14) 1.0943(12)
H13 H 0.7689 -0.5077 1.1436
C14 C 0.8165(10) -0.4087(10) 0.9790(9)
C15 C 0.8598(9) -0.5174(8) 0.9187(8)
C16 C 0.8641(12) -0.6463(11) 0.9833(11)
H14 H 0.8434 -0.6673 1.0645
C17 C 0.8981(17) -0.7364(14) 0.9261(15)
H15 H 0.8929 -0.8223 0.9687
C18 C 0.9424(15) -0.7122(13) 0.8036(12)
H16 H 0.9740 -0.7769 0.7638
C19 C 0.9333(12) -0.5831(11) 0.7507(10)
H17 H 0.9529 -0.5601 0.6694
Mn1A Mn 0.10965(11) 1.26913(11) 0.28777(10)
Mn1_2 Mn -0.10965(11) -0.26913(11) 0.71223(10)
Mn1A_2 Mn 1.10965(11) 1.26913(11) 0.28777(10)
O1A O 0.0428(7) 1.3035(7) 0.4579(6)
H1A H 0.108(4) 1.323(8) 0.480(3)
H2A H 0.010(8) 1.239(4) 0.507(2)
O2A O 0.2828(7) 0.5665(7) 0.5498(6)
H3A H 0.238(2) 0.505(4) 0.551(8)
H4A H 0.267(3) 0.628(6) 0.492(4)
O3A O 0.4607(8) 0.4955(7) 0.3305(7)
H5A H 0.409(8) 0.434(6) 0.348(3)
H6A H 0.407(8) 0.564(5) 0.313(4)
O4A O 0.3523(6) 1.2978(6) 0.2916(6)
O5A O 0.2673(6) 1.1088(6) 0.3311(6)
O6A O 0.8569(6) 1.2967(5) 0.2917(5)
O6_2 O 1.1431(6) -0.2967(5) 0.7083(5)
O6A_2 O -0.1431(6) 1.2967(5) 0.2917(5)
O7A O 0.9854(6) 1.1094(6) 0.3087(6)
O7_2 O 1.0146(6) -0.1094(6) 0.6913(6)
O7A_2 O -0.0146(6) 1.1094(6) 0.3087(6)
O8A O 0.7645(6) 0.6890(6) 0.4254(6)
O9A O 0.5442(6) 0.6990(6) 0.4250(6)
C1A C 0.8699(8) 1.1745(7) 0.3080(7)
C2A C 0.6193(9) 1.1694(8) 0.3131(8)
H7A H 0.6115 1.2596 0.2902
C3A C 0.3664(9) 1.1747(8) 0.3180(8)
C4A C 0.7461(8) 1.1031(8) 0.3272(7)
C5A C 0.5026(8) 1.1033(8) 0.3325(7)
C6A C 0.7561(8) 0.9684(7) 0.3562(7)
H8A H 0.8412 0.9231 0.3626
C7A C 0.5172(8) 0.9678(7) 0.3633(7)
H9A H 0.4404 0.9239 0.3753
C8A C 0.6405(8) 0.8959(7) 0.3766(7)
C9A C 0.6497(9) 0.7534(8) 0.4130(7)
N1A N 0.1797(8) 1.2875(8) 0.0951(7)
N2A N 0.1012(8) 1.4856(8) 0.1953(7)
C10A C 0.2170(11) 1.1843(11) 0.0504(10)
H10A H 0.2132 1.1014 0.0999
C11A C 0.2607(15) 1.1988(15) -0.0672(13)
H11A H 0.2872 1.1268 -0.0985
C12A C 0.2645(18) 1.3219(17) -0.1378(14)
H12A H 0.2941 1.3335 -0.2182
C13A C 0.2271(17) 1.4246(14) -0.0943(12)
H13A H 0.2311 1.5077 -0.1436
C14A C 0.1835(10) 1.4087(10) 0.0210(9)
C15A C 0.1402(9) 1.5174(8) 0.0813(8)
C16A C 0.1359(12) 1.6463(11) 0.0167(11)
H14A H 0.1566 1.6673 -0.0645
C17A C 0.1019(17) 1.7364(14) 0.0739(15)
H15A H 0.1071 1.8223 0.0313
C18A C 0.0576(15) 1.7122(13) 0.1964(12)
H16A H 0.0260 1.7769 0.2362
C19A C 0.0667(12) 1.5831(11) 0.2493(10)
H17A H 0.0471 1.5601 0.3306
O10 O 0.1372(11) 0.8671(10) 0.3882(10)
O11 O 0.3651(13) 0.7585(12) 1.2574(13)
loop_
_geom_bond_atom_site_label_1
_geom_bond_atom_site_label_2
_geom_bond_site_symmetry_1
_geom_bond_site_symmetry_2
Mn1 O1 1_555 1_555
Mn2 O2 1_555 1_555
O1 H1 1_555 1_555
H2 O1 1_555 1_555
O2 H3 1_555 1_555
H4 O2 1_555 1_555
O3 Mn2 1_555 1_555
H5 O3 1_555 1_555
H6 O3 1_555 1_555
O4 Mn1 1_555 1_555
O5 Mn1 1_555 1_555
O6 C1 1_555 1_555
O7 C1 1_555 1_555
O8 C9 1_555 1_555
O9 Mn2 1_555 1_555
C1 C4 1_555 1_555
C2 H7 1_555 1_555
C3 O4 1_555 1_555
C4 C2 1_555 1_555
C5 C2 1_555 1_555
C6 C4 1_555 1_555
H8 C6 1_555 1_555
C7 C5 1_555 1_555
H9 C7 1_555 1_555
C8 C6 1_555 1_555
C9 O9 1_555 1_555
N1 Mn1 1_555 1_555
N2 Mn1 1_555 1_555
C10 N1 1_555 1_555
H10 C10 1_555 1_555
C11 C10 1_555 1_555
H11 C11 1_555 1_555
C12 C11 1_555 1_555
H12 C12 1_555 1_555
C13 C12 1_555 1_555
H13 C13 1_555 1_555
C14 N1 1_555 1_555
C15 N2 1_555 1_555
C16 C15 1_555 1_555
H14 C16 1_555 1_555
C17 C16 1_555 1_555
H15 C17 1_555 1_555
C18 C17 1_555 1_555
H16 C18 1_555 1_555
C19 N2 1_555 1_555
H17 C19 1_555 1_555
Mn1A O1A 1_555 1_555
Mn1_2 O6 1_555 1_555
Mn1A_2 O6A 1_555 1_555
O1A H1A 1_555 1_555
H2A O1A 1_555 1_555
O2A Mn2 1_555 1_555
H3A O2A 1_555 1_555
H4A O2A 1_555 1_555
O3A Mn2 1_555 1_555
H5A O3A 1_555 1_555
H6A O3A 1_555 1_555
O4A Mn1A 1_555 1_555
O5A Mn1A 1_555 1_555
O6A C1A 1_555 1_555
O6_2 Mn1 1_555 1_555
O6A_2 Mn1A 1_555 1_555
O7A Mn1A_2 1_555 1_555
O7_2 Mn1 1_555 1_555
O7A_2 Mn1A 1_555 1_555
O8A C9A 1_555 1_555
O9A Mn2 1_555 1_555
C1A O7A 1_555 1_555
C2A H7A 1_555 1_555
C3A O4A 1_555 1_555
C4A C1A 1_555 1_555
C5A C2A 1_555 1_555
C6A C4A 1_555 1_555
H8A C6A 1_555 1_555
C7A C5A 1_555 1_555
H9A C7A 1_555 1_555
C8A C6A 1_555 1_555
C9A O9A 1_555 1_555
N1A Mn1A 1_555 1_555
N2A Mn1A 1_555 1_555
C10A N1A 1_555 1_555
H10A C10A 1_555 1_555
C11A C10A 1_555 1_555
H11A C11A 1_555 1_555
C12A C11A 1_555 1_555
H12A C12A 1_555 1_555
C13A C12A 1_555 1_555
H13A C13A 1_555 1_555
C14A N1A 1_555 1_555
C15A N2A 1_555 1_555
C16A C15A 1_555 1_555
H14A C16A 1_555 1_555
C17A C16A 1_555 1_555
H15A C17A 1_555 1_555
C18A C17A 1_555 1_555
H16A C18A 1_555 1_555
C19A N2A 1_555 1_555
H17A C19A 1_555 1_555
O5 C3 1_555 1_555
O7 Mn1_2 1_555 1_555
C3 C5 1_555 1_555
C7 C8 1_555 1_555
C8 C9 1_555 1_555
C13 C14 1_555 1_555
C14 C15 1_555 1_555
C18 C19 1_555 1_555
O5A C3A 1_555 1_555
C2A C4A 1_555 1_555
C3A C5A 1_555 1_555
C7A C8A 1_555 1_555
C8A C9A 1_555 1_555
C13A C14A 1_555 1_555
C14A C15A 1_555 1_555
C18A C19A 1_555 1_555

#END
