
#######################################################################
#
#                 Cambridge Crystallographic Data Centre
#                                CCDC 
#
#######################################################################
#
# If this CIF has been generated from an entry in the Cambridge 
# Structural Database, then it will include bibliographic, chemical, 
# crystal, experimental, refinement or atomic coordinate data resulting 
# from the CCDC's data processing and validation procedures.
#
#######################################################################

data_UCAXAY
_symmetry_cell_setting           monoclinic
_symmetry_space_group_name_H-M   'C 2/c'
_symmetry_Int_Tables_number      15
_space_group_name_Hall           '-C 2yn'
loop_
_symmetry_equiv_pos_site_id
_symmetry_equiv_pos_as_xyz
1 x,y,z
2 1/2+x,1/2+y,z
3 -x,y,1/2-z
4 1/2-x,1/2+y,1/2-z
5 -x,-y,-z
6 1/2-x,1/2-y,-z
7 x,-y,1/2+z
8 1/2+x,1/2-y,1/2+z
_cell_length_a                   14.231(3)
_cell_length_b                   5.657(2)
_cell_length_c                   15.189(3)
_cell_angle_alpha                90
_cell_angle_beta                 94.59(2)
_cell_angle_gamma                90
_cell_volume                     1218.87
loop_
_atom_site_label
_atom_site_type_symbol
_atom_site_fract_x
_atom_site_fract_y
_atom_site_fract_z
Mn1 Mn 0.0000 0.42042(13) 0.7500
O1 O 0.04680(15) 0.1152(4) 0.67688(14)
O2 O 0.04760(16) -0.2795(4) 0.67587(14)
O3 O 0.13712(16) 0.4251(4) 0.82513(15)
N1 N 0.16627(19) 0.2362(5) 0.87201(18)
C1 C 0.0270(2) -0.0844(6) 0.7075(2)
C2 C 0.1305(3) 0.1894(7) 0.9497(2)
H1 H 0.0843 0.2877 0.9694
C3 C 0.1612(3) -0.0003(6) 1.0000(2)
H2 H 0.1348 -0.0303 1.0530
C4 C 0.2313(2) -0.1489(6) 0.9729(2)
C5 C 0.2662(2) -0.0961(7) 0.8915(2)
H3 H 0.3124 -0.1921 0.8704
C6 C 0.2332(2) 0.0950(6) 0.8422(2)
H4 H 0.2572 0.1269 0.7883
Mn1_2 Mn 0.0000 -0.57958(13) 0.7500
Mn1G Mn 0.5000 -0.92042(13) 1.2500
O1B O -0.04680(15) 0.1152(4) 0.82312(14)
O2B O -0.04760(16) -0.2795(4) 0.82413(14)
O2_2 O 0.04760(16) 0.7205(4) 0.67587(14)
O2B_2 O -0.04760(16) 0.7205(4) 0.82413(14)
O3E O 0.36288(16) -0.9251(4) 1.17487(15)
O3B O -0.13712(16) 0.4251(4) 0.67487(15)
N1E N 0.33373(19) -0.7362(5) 1.12799(18)
C1B C -0.0270(2) -0.0844(6) 0.7925(2)
C2E C 0.3695(3) -0.6894(7) 1.0503(2)
H1E H 0.4157 -0.7877 1.0306
C3E C 0.3388(3) -0.4997(6) 1.0000(2)
H2E H 0.3652 -0.4697 0.9470
C4E C 0.2687(2) -0.3511(6) 1.0271(2)
C5E C 0.2338(2) -0.4039(7) 1.1085(2)
H3E H 0.1876 -0.3079 1.1296
C6E C 0.2668(2) -0.5950(6) 1.1578(2)
H4E H 0.2428 -0.6269 1.2117
loop_
_geom_bond_atom_site_label_1
_geom_bond_atom_site_label_2
_geom_bond_site_symmetry_1
_geom_bond_site_symmetry_2
Mn1 O1 1_555 1_555
O1 C1 1_555 1_555
O2 C1 1_555 1_555
O3 Mn1 1_555 1_555
N1 O3 1_555 1_555
C1 C1B 1_555 1_555
C2 N1 1_555 1_555
H1 C2 1_555 1_555
C3 C2 1_555 1_555
H2 C3 1_555 1_555
C4 C3 1_555 1_555
C5 C4 1_555 1_555
H3 C5 1_555 1_555
C6 N1 1_555 1_555
H4 C6 1_555 1_555
Mn1_2 O2 1_555 1_555
Mn1G O3E 1_555 1_555
O1B Mn1 1_555 1_555
O2B Mn1_2 1_555 1_555
O2_2 Mn1 1_555 1_555
O2B_2 Mn1 1_555 1_555
O3E N1E 1_555 1_555
O3B Mn1 1_555 1_555
N1E C2E 1_555 1_555
C1B O1B 1_555 1_555
C2E H1E 1_555 1_555
C3E C2E 1_555 1_555
H2E C3E 1_555 1_555
C4E C4 1_555 1_555
C5E C4E 1_555 1_555
H3E C5E 1_555 1_555
C6E N1E 1_555 1_555
H4E C6E 1_555 1_555
C5 C6 1_555 1_555
O2B C1B 1_555 1_555
C3E C4E 1_555 1_555
C5E C6E 1_555 1_555

#END
