
#######################################################################
#
#                 Cambridge Crystallographic Data Centre
#                                CCDC 
#
#######################################################################
#
# If this CIF has been generated from an entry in the Cambridge 
# Structural Database, then it will include bibliographic, chemical, 
# crystal, experimental, refinement or atomic coordinate data resulting 
# from the CCDC's data processing and validation procedures.
#
#######################################################################

data_UCECIO
_symmetry_cell_setting           triclinic
_symmetry_space_group_name_H-M   'P -1'
_symmetry_Int_Tables_number      2
_space_group_name_Hall           '-P 1'
loop_
_symmetry_equiv_pos_site_id
_symmetry_equiv_pos_as_xyz
1 x,y,z
2 -x,-y,-z
_cell_length_a                   9.4860(2)
_cell_length_b                   9.8437(1)
_cell_length_c                   10.9604(3)
_cell_angle_alpha                66.711(1)
_cell_angle_beta                 86.387(1)
_cell_angle_gamma                68.479(1)
_cell_volume                     870.488
loop_
_atom_site_label
_atom_site_type_symbol
_atom_site_fract_x
_atom_site_fract_y
_atom_site_fract_z
Cu1 Cu -0.2896(1) -0.4158(1) 0.0600(1)
Mo1 Mo 0.0555(1) -0.7467(1) 0.2062(1)
Mo2 Mo 0.0909(1) -1.1090(1) 0.4227(1)
O1 O -0.1406(8) -0.6215(8) 0.1627(7)
O2 O 0.1425(11) -0.7007(11) 0.3090(9)
O3 O 0.1416(8) -0.7015(8) 0.0574(7)
O4 O 0.1175(12) -0.9667(10) 0.2501(8)
O5 O -0.0326(9) -0.8785(10) 0.4033(8)
O6 O 0.2758(10) -1.2417(11) 0.4665(9)
O7 O -0.0098(11) -1.1956(12) 0.3751(10)
N1 N -0.3344(10) -0.4629(10) -0.0940(8)
N2 N -0.4920(9) -0.2542(10) -0.0059(8)
N3 N -0.3236(9) -0.3260(10) 0.2005(8)
C1 C -0.2387(12) -0.5696(12) -0.1364(10)
C2 C -0.2780(13) -0.5888(13) -0.2479(11)
C3 C -0.4198(13) -0.4920(13) -0.3163(11)
C4 C -0.5192(13) -0.3760(13) -0.2761(11)
C5 C -0.4713(11) -0.3633(12) -0.1653(10)
C6 C -0.5637(11) -0.2427(11) -0.1129(10)
C7 C -0.7085(11) -0.1284(11) -0.1623(10)
C8 C -0.7758(11) -0.0300(12) -0.0964(10)
C9 C -0.7017(12) -0.0446(12) 0.0172(10)
C10 C -0.5563(11) -0.1618(11) 0.0613(10)
C11 C -0.4599(10) -0.2033(11) 0.1809(10)
C12 C -0.5020(11) -0.1318(13) 0.2709(11)
C13 C -0.4038(13) -0.1849(13) 0.3825(11)
C14 C -0.2644(12) -0.3080(13) 0.4010(10)
C15 C -0.2277(11) -0.3764(12) 0.3086(10)
O3A O -0.1416(8) -0.2985(8) -0.0574(7)
O5A O 0.0326(9) -1.1215(10) 0.5967(8)
Mo2A Mo -0.0909(1) -0.8910(1) 0.5773(1)
Cu1A Cu 0.2896(1) -0.5842(1) -0.0600(1)
loop_
_geom_bond_atom_site_label_1
_geom_bond_atom_site_label_2
_geom_bond_site_symmetry_1
_geom_bond_site_symmetry_2
Cu1 O1 1_555 1_555
Mo1 O1 1_555 1_555
Mo2 O4 1_555 1_555
O2 Mo1 1_555 1_555
O3 Mo1 1_555 1_555
O4 Mo1 1_555 1_555
O5 Mo1 1_555 1_555
O6 Mo2 1_555 1_555
O7 Mo2 1_555 1_555
N1 Cu1 1_555 1_555
N2 Cu1 1_555 1_555
N3 Cu1 1_555 1_555
C1 N1 1_555 1_555
C2 C1 1_555 1_555
C3 C2 1_555 1_555
C4 C3 1_555 1_555
C5 N1 1_555 1_555
C6 N2 1_555 1_555
C7 C6 1_555 1_555
C8 C7 1_555 1_555
C9 C8 1_555 1_555
C10 N2 1_555 1_555
C11 N3 1_555 1_555
C12 C11 1_555 1_555
C13 C12 1_555 1_555
C14 C13 1_555 1_555
C15 N3 1_555 1_555
O3A Cu1 1_555 1_555
O5A Mo2 1_555 1_555
Mo2A O5 1_555 1_555
Cu1A O3 1_555 1_555
Mo2 O5 1_555 1_555
C4 C5 1_555 1_555
C5 C6 1_555 1_555
C9 C10 1_555 1_555
C10 C11 1_555 1_555
C14 C15 1_555 1_555
O5A Mo2A 1_555 1_555

#END
