
#######################################################################
#
#                 Cambridge Crystallographic Data Centre
#                                CCDC 
#
#######################################################################
#
# If this CIF has been generated from an entry in the Cambridge 
# Structural Database, then it will include bibliographic, chemical, 
# crystal, experimental, refinement or atomic coordinate data resulting 
# from the CCDC's data processing and validation procedures.
#
#######################################################################

data_UCECUA
_symmetry_cell_setting           monoclinic
_symmetry_space_group_name_H-M   'P 21/n'
_symmetry_Int_Tables_number      14
_space_group_name_Hall           '-P 2yn'
loop_
_symmetry_equiv_pos_site_id
_symmetry_equiv_pos_as_xyz
1 x,y,z
2 1/2-x,1/2+y,1/2-z
3 -x,-y,-z
4 1/2+x,1/2-y,1/2+z
_cell_length_a                   16.5820(8)
_cell_length_b                   11.0229(5)
_cell_length_c                   20.079(1)
_cell_angle_alpha                90
_cell_angle_beta                 106.056(1)
_cell_angle_gamma                90
_cell_volume                     3526.91
loop_
_atom_site_label
_atom_site_type_symbol
_atom_site_fract_x
_atom_site_fract_y
_atom_site_fract_z
Mo1 Mo -0.0756(1) -0.0633(1) 0.1860(1)
Mo2 Mo -0.1436(1) -0.3409(1) 0.0417(1)
Mo3 Mo 0.1680(1) -0.3486(1) 0.3680(1)
Fe1 Fe -0.2522(1) -0.0703(1) 0.0362(1)
Fe2 Fe 0.0072(1) -0.3453(1) 0.2104(1)
O1 O -0.1815(3) -0.0882(5) 0.1322(3)
O2 O -0.0113(3) -0.0145(5) 0.1371(3)
O3 O -0.0804(3) 0.0516(5) 0.2438(3)
O4 O -0.0304(3) -0.1942(4) 0.2383(3)
O5 O -0.1919(3) -0.1980(4) 0.0056(3)
O6 O -0.2148(3) -0.4296(5) 0.0688(3)
O7 O -0.1100(3) -0.4205(5) -0.0182(3)
O8 O -0.0538(3) -0.3085(4) 0.1144(3)
O9 O 0.0679(3) -0.3815(4) 0.3064(3)
O10 O 0.1674(3) -0.4334(5) 0.4452(3)
O11 O 0.2473(3) -0.3992(5) 0.3358(3)
O12 O 0.1770(3) -0.1927(5) 0.3808(3)
N1 N -0.1821(4) 0.0807(6) 0.0148(3)
N2 N -0.3115(4) 0.0869(6) 0.0619(3)
N3 N -0.3564(4) -0.1351(5) 0.0714(3)
N4 N 0.1240(4) -0.3231(5) 0.1838(3)
N5 N 0.0403(4) -0.5223(5) 0.1878(3)
N6 N -0.0930(4) -0.4601(6) 0.2208(3)
C1 C -0.1161(5) 0.0687(7) -0.0106(4)
C2 C -0.0665(5) 0.1666(7) -0.0185(4)
C3 C -0.0863(5) 0.2812(8) -0.0003(5)
C4 C -0.1571(5) 0.2934(8) 0.0246(4)
C5 C -0.2024(5) 0.1931(7) 0.0323(4)
C6 C -0.2794(5) 0.1976(7) 0.0565(4)
C7 C -0.3191(5) 0.3021(8) 0.0702(5)
C8 C -0.3908(5) 0.2895(8) 0.0911(5)
C9 C -0.4234(5) 0.1758(8) 0.0964(5)
C10 C -0.3826(4) 0.0748(7) 0.0815(4)
C11 C -0.4083(4) -0.0510(7) 0.0852(4)
C12 C -0.4821(5) -0.0838(8) 0.1012(5)
C13 C -0.5013(6) -0.2070(8) 0.1018(5)
C14 C -0.4474(5) -0.2926(9) 0.0872(5)
C15 C -0.3755(5) -0.2534(8) 0.0735(5)
C16 C 0.1616(5) -0.2162(7) 0.1827(4)
C17 C 0.2386(5) -0.2089(8) 0.1668(5)
C18 C 0.2753(5) -0.3135(8) 0.1512(5)
C19 C 0.2355(5) -0.4227(7) 0.1507(4)
C20 C 0.1595(4) -0.4257(7) 0.1678(4)
C21 C 0.1139(4) -0.5391(7) 0.1716(4)
C22 C 0.1416(4) -0.6551(7) 0.1638(4)
C23 C 0.0923(5) -0.7537(7) 0.1720(4)
C24 C 0.0179(5) -0.7347(7) 0.1893(5)
C25 C -0.0068(4) -0.6167(7) 0.1967(4)
C26 C -0.0843(5) -0.5797(7) 0.2143(4)
C27 C -0.1434(5) -0.6592(8) 0.2247(5)
C28 C -0.2137(5) -0.6146(8) 0.2412(5)
C29 C -0.2252(5) -0.4929(7) 0.2446(5)
C30 C -0.1635(5) -0.4172(7) 0.2342(4)
H1 H -0.1027 -0.0081 -0.0235
H2 H -0.0205 0.1549 -0.0358
H3 H -0.0538 0.3481 -0.0044
H4 H -0.1733 0.3698 0.0359
H5 H -0.2977 0.3785 0.0652
H6 H -0.4175 0.3580 0.1018
H7 H -0.4724 0.1674 0.1099
H8 H -0.5175 -0.0252 0.1111
H9 H -0.5502 -0.2316 0.1120
H10 H -0.4599 -0.3749 0.0867
H11 H -0.3382 -0.3108 0.0653
H12 H 0.1364 -0.1457 0.1927
H13 H 0.2647 -0.1343 0.1667
H14 H 0.3267 -0.3100 0.1412
H15 H 0.2587 -0.4937 0.1390
H16 H 0.1922 -0.6673 0.1532
H17 H 0.1094 -0.8322 0.1659
H18 H -0.0147 -0.7999 0.1958
H19 H -0.1363 -0.7424 0.2208
H20 H -0.2530 -0.6680 0.2499
H21 H -0.2732 -0.4616 0.2537
H22 H -0.1706 -0.3337 0.2364
O10C O -0.3326(3) -0.0666(5) -0.0548(3)
Fe1C Fe 0.2478(1) -0.4297(1) 0.5362(1)
O13 O 0.0589(4) -0.0043(7) 0.3767(4)
loop_
_geom_bond_atom_site_label_1
_geom_bond_atom_site_label_2
_geom_bond_site_symmetry_1
_geom_bond_site_symmetry_2
Mo1 O1 1_555 1_555
Mo2 O5 1_555 1_555
Mo3 O9 1_555 1_555
Fe1 O1 1_555 1_555
Fe2 O4 1_555 1_555
O2 Mo1 1_555 1_555
O3 Mo1 1_555 1_555
O4 Mo1 1_555 1_555
O5 Fe1 1_555 1_555
O6 Mo2 1_555 1_555
O7 Mo2 1_555 1_555
O8 Mo2 1_555 1_555
O9 Fe2 1_555 1_555
O10 Mo3 1_555 1_555
O11 Mo3 1_555 1_555
O12 Mo3 1_555 1_555
N1 Fe1 1_555 1_555
N2 Fe1 1_555 1_555
N3 Fe1 1_555 1_555
N4 Fe2 1_555 1_555
N5 Fe2 1_555 1_555
N6 Fe2 1_555 1_555
C1 N1 1_555 1_555
C2 C1 1_555 1_555
C3 C2 1_555 1_555
C4 C3 1_555 1_555
C5 N1 1_555 1_555
C6 N2 1_555 1_555
C7 C6 1_555 1_555
C8 C7 1_555 1_555
C9 C8 1_555 1_555
C10 N2 1_555 1_555
C11 N3 1_555 1_555
C12 C11 1_555 1_555
C13 C12 1_555 1_555
C14 C13 1_555 1_555
C15 N3 1_555 1_555
C16 N4 1_555 1_555
C17 C16 1_555 1_555
C18 C17 1_555 1_555
C19 C18 1_555 1_555
C20 N4 1_555 1_555
C21 N5 1_555 1_555
C22 C21 1_555 1_555
C23 C22 1_555 1_555
C24 C23 1_555 1_555
C25 N5 1_555 1_555
C26 N6 1_555 1_555
C27 C26 1_555 1_555
C28 C27 1_555 1_555
C29 C28 1_555 1_555
C30 N6 1_555 1_555
H1 C1 1_555 1_555
H2 C2 1_555 1_555
H3 C3 1_555 1_555
H4 C4 1_555 1_555
H5 C7 1_555 1_555
H6 C8 1_555 1_555
H7 C9 1_555 1_555
H8 C12 1_555 1_555
H9 C13 1_555 1_555
H10 C14 1_555 1_555
H11 C15 1_555 1_555
H12 C16 1_555 1_555
H13 C17 1_555 1_555
H14 C18 1_555 1_555
H15 C19 1_555 1_555
H16 C22 1_555 1_555
H17 C23 1_555 1_555
H18 C24 1_555 1_555
H19 C27 1_555 1_555
H20 C28 1_555 1_555
H21 C29 1_555 1_555
H22 C30 1_555 1_555
O10C Fe1 1_555 1_555
Fe1C O10 1_555 1_555
Fe2 O8 1_555 1_555
C4 C5 1_555 1_555
C5 C6 1_555 1_555
C9 C10 1_555 1_555
C10 C11 1_555 1_555
C14 C15 1_555 1_555
C19 C20 1_555 1_555
C20 C21 1_555 1_555
C24 C25 1_555 1_555
C25 C26 1_555 1_555
C29 C30 1_555 1_555

#END
