
#######################################################################
#
#                 Cambridge Crystallographic Data Centre
#                                CCDC 
#
#######################################################################
#
# If this CIF has been generated from an entry in the Cambridge 
# Structural Database, then it will include bibliographic, chemical, 
# crystal, experimental, refinement or atomic coordinate data resulting 
# from the CCDC's data processing and validation procedures.
#
#######################################################################

data_UCEDEM
_symmetry_cell_setting           triclinic
_symmetry_space_group_name_H-M   'P -1'
_symmetry_Int_Tables_number      2
_space_group_name_Hall           '-P 1'
loop_
_symmetry_equiv_pos_site_id
_symmetry_equiv_pos_as_xyz
1 x,y,z
2 -x,-y,-z
_cell_length_a                   9.915(3)
_cell_length_b                   11.214(3)
_cell_length_c                   13.049(4)
_cell_angle_alpha                77.275(5)
_cell_angle_beta                 70.730(5)
_cell_angle_gamma                76.875(5)
_cell_volume                     1317.04
loop_
_atom_site_label
_atom_site_type_symbol
_atom_site_fract_x
_atom_site_fract_y
_atom_site_fract_z
Cu1 Cu 0.96478(7) 0.05308(7) 0.10296(6)
I1 I 1.14184(5) -0.16006(4) 0.06597(3)
P1 P 0.78235(15) 0.02670(13) 0.25675(11)
N1 N 1.0963(7) 0.1765(6) 0.0940(5)
N2 N 1.4650(7) 0.4490(6) 0.0082(5)
C1 C 0.9778(7) -0.0775(6) 0.3755(6)
H1 H 1.0430 -0.0384 0.3157
C2 C 1.0238(9) -0.1445(7) 0.4631(7)
H2 H 1.1189 -0.1494 0.4625
C3 C 0.9300(10) -0.2040(7) 0.5507(7)
H3 H 0.9607 -0.2497 0.6101
C4 C 0.7917(9) -0.1959(7) 0.5503(6)
H4 H 0.7280 -0.2367 0.6100
C5 C 0.7435(7) -0.1293(6) 0.4643(5)
H5 H 0.6483 -0.1256 0.4656
C6 C 0.8370(6) -0.0670(5) 0.3748(5)
C7 C 0.6443(6) -0.0526(5) 0.2508(5)
C8 C 0.6904(8) -0.1691(7) 0.2191(6)
H6 H 0.7885 -0.2027 0.2001
C9 C 0.5902(11) -0.2352(9) 0.2156(7)
H7 H 0.6219 -0.3136 0.1952
C10 C 0.4474(10) -0.1881(10) 0.2412(7)
H8 H 0.3815 -0.2337 0.2385
C11 C 0.4008(9) -0.0736(11) 0.2708(8)
H9 H 0.3027 -0.0400 0.2871
C12 C 0.4991(7) -0.0061(7) 0.2772(6)
H10 H 0.4657 0.0713 0.2995
C13 C 0.6789(6) 0.1709(5) 0.3075(5)
C14 C 0.6471(7) 0.1897(6) 0.4159(5)
H11 H 0.6772 0.1260 0.4668
C15 C 0.5725(9) 0.3001(7) 0.4485(6)
H12 H 0.5500 0.3099 0.5215
C16 C 0.5307(9) 0.3963(6) 0.3743(6)
H13 H 0.4832 0.4723 0.3960
C17 C 0.5590(9) 0.3799(7) 0.2684(6)
H14 H 0.5276 0.4441 0.2185
C18 C 0.6338(8) 0.2691(6) 0.2345(5)
H15 H 0.6544 0.2602 0.1614
C19 C 1.0333(11) 0.2971(9) 0.1018(10)
H16 H 0.9331 0.3157 0.1171
C20 C 1.1045(11) 0.3927(9) 0.0893(10)
H17 H 1.0558 0.4732 0.0963
C21 C 1.2479(9) 0.3635(7) 0.0663(6)
C22 C 1.3197(9) 0.2468(8) 0.0606(7)
H18 H 1.4199 0.2289 0.0466
C23 C 1.2362(9) 0.1491(9) 0.0771(7)
H19 H 1.2827 0.0672 0.0755
C24 C 1.3381(10) 0.4651(8) 0.0454(7)
H20 H 1.2906 0.5429 0.0628
Cu1A Cu 1.03522(7) -0.05308(7) -0.10296(6)
Cu1A_2 Cu 2.03522(7) 0.94692(7) -0.10296(6)
I1A I 0.85816(5) 0.16006(4) -0.06597(3)
P1A P 1.21765(15) -0.02670(13) -0.25675(11)
N1A N 1.9037(7) 0.8235(6) -0.0940(5)
N1A_2 N 0.9037(7) -0.1765(6) -0.0940(5)
N2A N 1.5350(7) 0.5510(6) -0.0082(5)
C1A C 1.0222(7) 0.0775(6) -0.3755(6)
H1A H 0.9570 0.0384 -0.3157
C2A C 0.9762(9) 0.1445(7) -0.4631(7)
H2A H 0.8811 0.1494 -0.4625
C3A C 1.0700(10) 0.2040(7) -0.5507(7)
H3A H 1.0393 0.2497 -0.6101
C4A C 1.2083(9) 0.1959(7) -0.5503(6)
H4A H 1.2720 0.2367 -0.6100
C5A C 1.2565(7) 0.1293(6) -0.4643(5)
H5A H 1.3517 0.1256 -0.4656
C6A C 1.1630(6) 0.0670(5) -0.3748(5)
C7A C 1.3557(6) 0.0526(5) -0.2508(5)
C8A C 1.3096(8) 0.1691(7) -0.2191(6)
H6A H 1.2115 0.2027 -0.2001
C9A C 1.4098(11) 0.2352(9) -0.2156(7)
H7A H 1.3781 0.3136 -0.1952
C10A C 1.5526(10) 0.1881(10) -0.2412(7)
H8A H 1.6185 0.2337 -0.2385
C11A C 1.5992(9) 0.0736(11) -0.2708(8)
H9A H 1.6973 0.0400 -0.2871
C12A C 1.5009(7) 0.0061(7) -0.2772(6)
H10A H 1.5343 -0.0713 -0.2995
C13A C 1.3211(6) -0.1709(5) -0.3075(5)
C14A C 1.3529(7) -0.1897(6) -0.4159(5)
H11A H 1.3228 -0.1260 -0.4668
C15A C 1.4275(9) -0.3001(7) -0.4485(6)
H12A H 1.4500 -0.3099 -0.5215
C16A C 1.4693(9) -0.3963(6) -0.3743(6)
H13A H 1.5168 -0.4723 -0.3960
C17A C 1.4410(9) -0.3799(7) -0.2684(6)
H14A H 1.4724 -0.4441 -0.2185
C18A C 1.3662(8) -0.2691(6) -0.2345(5)
H15A H 1.3456 -0.2602 -0.1614
C19A C 1.9667(11) 0.7029(9) -0.1018(10)
H16A H 2.0669 0.6843 -0.1171
C20A C 1.8955(11) 0.6073(9) -0.0893(10)
H17A H 1.9442 0.5268 -0.0963
C21A C 1.7521(9) 0.6365(7) -0.0663(6)
C22A C 1.6803(9) 0.7532(8) -0.0606(7)
H18A H 1.5801 0.7711 -0.0466
C23A C 1.7638(9) 0.8509(9) -0.0771(7)
H19A H 1.7173 0.9328 -0.0755
C24A C 1.6619(10) 0.5349(8) -0.0454(7)
H20A H 1.7094 0.4571 -0.0628
C25 C 0.9887(12) 0.6028(9) 0.3395(10)
H21 H 0.9922 0.6709 0.2787
H22 H 0.9528 0.6384 0.4068
Cl1 Cl 1.1601(4) 0.5264(3) 0.3287(3)
Cl2 Cl 0.8665(4) 0.5154(3) 0.3401(4)
loop_
_geom_bond_atom_site_label_1
_geom_bond_atom_site_label_2
_geom_bond_site_symmetry_1
_geom_bond_site_symmetry_2
Cu1 I1 1_555 1_555
I1 Cu1A 1_555 1_555
P1 Cu1 1_555 1_555
N1 Cu1 1_555 1_555
N2 C24 1_555 1_555
C1 H1 1_555 1_555
C2 C1 1_555 1_555
H2 C2 1_555 1_555
C3 C2 1_555 1_555
H3 C3 1_555 1_555
C4 C3 1_555 1_555
H4 C4 1_555 1_555
C5 C4 1_555 1_555
H5 C5 1_555 1_555
C6 P1 1_555 1_555
C7 P1 1_555 1_555
C8 C7 1_555 1_555
H6 C8 1_555 1_555
C9 C8 1_555 1_555
H7 C9 1_555 1_555
C10 C9 1_555 1_555
H8 C10 1_555 1_555
C11 C10 1_555 1_555
H9 C11 1_555 1_555
C12 C7 1_555 1_555
H10 C12 1_555 1_555
C13 P1 1_555 1_555
C14 C13 1_555 1_555
H11 C14 1_555 1_555
C15 C14 1_555 1_555
H12 C15 1_555 1_555
C16 C15 1_555 1_555
H13 C16 1_555 1_555
C17 C16 1_555 1_555
H14 C17 1_555 1_555
C18 C13 1_555 1_555
H15 C18 1_555 1_555
C19 N1 1_555 1_555
H16 C19 1_555 1_555
C20 C19 1_555 1_555
H17 C20 1_555 1_555
C21 C20 1_555 1_555
C22 C21 1_555 1_555
H18 C22 1_555 1_555
C23 N1 1_555 1_555
H19 C23 1_555 1_555
C24 C21 1_555 1_555
H20 C24 1_555 1_555
C25 H21 1_555 1_555
H22 C25 1_555 1_555
Cl1 C25 1_555 1_555
Cl2 C25 1_555 1_555
Cu1A I1A 1_555 1_555
Cu1A_2 N1A 1_555 1_555
I1A Cu1 1_555 1_555
P1A Cu1A 1_555 1_555
N1A C19A 1_555 1_555
N1A_2 Cu1A 1_555 1_555
N2A N2 1_555 1_555
C1A H1A 1_555 1_555
C2A C1A 1_555 1_555
H2A C2A 1_555 1_555
C3A C2A 1_555 1_555
H3A C3A 1_555 1_555
C4A C3A 1_555 1_555
H4A C4A 1_555 1_555
C5A C4A 1_555 1_555
H5A C5A 1_555 1_555
C6A P1A 1_555 1_555
C7A P1A 1_555 1_555
C8A C7A 1_555 1_555
H6A C8A 1_555 1_555
C9A C8A 1_555 1_555
H7A C9A 1_555 1_555
C10A C9A 1_555 1_555
H8A C10A 1_555 1_555
C11A C10A 1_555 1_555
H9A C11A 1_555 1_555
C12A C7A 1_555 1_555
H10A C12A 1_555 1_555
C13A P1A 1_555 1_555
C14A C13A 1_555 1_555
H11A C14A 1_555 1_555
C15A C14A 1_555 1_555
H12A C15A 1_555 1_555
C16A C15A 1_555 1_555
H13A C16A 1_555 1_555
C17A C16A 1_555 1_555
H14A C17A 1_555 1_555
C18A C13A 1_555 1_555
H15A C18A 1_555 1_555
C19A H16A 1_555 1_555
C20A C19A 1_555 1_555
H17A C20A 1_555 1_555
C21A C20A 1_555 1_555
C22A C21A 1_555 1_555
H18A C22A 1_555 1_555
C23A N1A 1_555 1_555
H19A C23A 1_555 1_555
C24A N2A 1_555 1_555
H20A C24A 1_555 1_555
C1 C6 1_555 1_555
C5 C6 1_555 1_555
C11 C12 1_555 1_555
C17 C18 1_555 1_555
C22 C23 1_555 1_555
C1A C6A 1_555 1_555
C5A C6A 1_555 1_555
C11A C12A 1_555 1_555
C17A C18A 1_555 1_555
C21A C24A 1_555 1_555
C22A C23A 1_555 1_555

#END
