
#######################################################################
#
#                 Cambridge Crystallographic Data Centre
#                                CCDC 
#
#######################################################################
#
# If this CIF has been generated from an entry in the Cambridge 
# Structural Database, then it will include bibliographic, chemical, 
# crystal, experimental, refinement or atomic coordinate data resulting 
# from the CCDC's data processing and validation procedures.
#
#######################################################################

data_UCEDIQ
_symmetry_cell_setting           monoclinic
_symmetry_space_group_name_H-M   'C 2/c'
_symmetry_Int_Tables_number      15
_space_group_name_Hall           '-C 2yn'
loop_
_symmetry_equiv_pos_site_id
_symmetry_equiv_pos_as_xyz
1 x,y,z
2 1/2+x,1/2+y,z
3 -x,y,1/2-z
4 1/2-x,1/2+y,1/2-z
5 -x,-y,-z
6 1/2-x,1/2-y,-z
7 x,-y,1/2+z
8 1/2+x,1/2-y,1/2+z
_cell_length_a                   13.4414(10)
_cell_length_b                   24.6684(10)
_cell_length_c                   13.8239(10)
_cell_angle_alpha                90
_cell_angle_beta                 96.796(5)
_cell_angle_gamma                90
_cell_volume                     4551.49
loop_
_atom_site_label
_atom_site_type_symbol
_atom_site_fract_x
_atom_site_fract_y
_atom_site_fract_z
B1 B 0.4967(9) 0.5002(3) 0.2412(7)
F1 F 0.4062(8) 0.4832(4) 0.2581(10)
F2 F 0.5070(11) 0.4922(5) 0.1474(7)
F3 F 0.5067(16) 0.5527(3) 0.2629(13)
F4 F 0.5671(11) 0.4720(5) 0.2960(11)
B1B B 0.5033(9) 0.5002(3) 0.2588(7)
F1B F 0.5938(8) 0.4832(4) 0.2419(10)
F2B F 0.4930(11) 0.4922(5) 0.3526(7)
F3B F 0.4933(16) 0.5527(3) 0.2371(13)
F4B F 0.4329(11) 0.4720(5) 0.2040(11)
Cu1 Cu 0.5000 0.21289(3) 0.2500
P1 P 0.47248(8) 0.16904(4) 0.10456(8)
N1 N 0.6071(3) 0.27160(13) 0.2196(2)
N2 N 0.8938(3) 0.40253(15) 0.2196(3)
C1 C 0.4675(3) 0.21821(15) 0.0046(3)
C2 C 0.3920(3) 0.25707(17) 0.0009(3)
H1 H 0.3426 0.2542 0.0425
C3 C 0.3897(4) 0.29971(17) -0.0635(3)
H2 H 0.3384 0.3252 -0.0655
C4 C 0.4618(4) 0.30503(19) -0.1246(4)
H3 H 0.4610 0.3344 -0.1668
C5 C 0.5350(4) 0.2667(2) -0.1227(4)
H4 H 0.5840 0.2699 -0.1646
C6 C 0.5375(4) 0.2229(2) -0.0592(3)
H5 H 0.5870 0.1967 -0.0600
C7 C 0.3622(3) 0.12704(15) 0.0730(3)
C8 C 0.3180(3) 0.10243(17) 0.1479(3)
H6 H 0.3459 0.1072 0.2122
C9 C 0.2326(4) 0.07087(18) 0.1274(4)
H7 H 0.2040 0.0544 0.1779
C10 C 0.1901(3) 0.06384(17) 0.0331(4)
H8 H 0.1326 0.0429 0.0200
C11 C 0.2327(3) 0.08768(18) -0.0420(4)
H9 H 0.2036 0.0831 -0.1060
C12 C 0.3194(3) 0.11864(17) -0.0223(3)
H10 H 0.3489 0.1338 -0.0735
C13 C 0.5780(3) 0.12497(17) 0.0880(3)
C14 C 0.6747(3) 0.14611(19) 0.0985(3)
H11 H 0.6838 0.1833 0.1063
C15 C 0.7568(4) 0.1132(2) 0.0975(4)
H12 H 0.8209 0.1280 0.1043
C16 C 0.7441(4) 0.0583(2) 0.0864(4)
H13 H 0.7997 0.0358 0.0865
C17 C 0.6508(4) 0.0367(2) 0.0754(4)
H14 H 0.6426 -0.0005 0.0675
C18 C 0.5678(4) 0.06936(17) 0.0758(4)
H15 H 0.5043 0.0539 0.0678
C19 C 0.7049(3) 0.26941(16) 0.2536(3)
H16 H 0.7287 0.2383 0.2866
C20 C 0.7717(3) 0.31043(16) 0.2425(3)
H17 H 0.8389 0.3067 0.2667
C21 C 0.7375(3) 0.35756(17) 0.1948(3)
C22 C 0.6376(3) 0.36009(19) 0.1575(3)
H18 H 0.6123 0.3907 0.1237
C23 C 0.5759(3) 0.31692(18) 0.1709(3)
H19 H 0.5090 0.3192 0.1449
C24 C 0.8056(4) 0.40395(18) 0.1863(3)
H20 H 0.7804 0.4352 0.1547
C25 C 0.9572(3) 0.44962(18) 0.2095(3)
H21 H 0.9182 0.4825 0.2123
H22 H 0.9831 0.4485 0.1470
Cu1_2 Cu 1.5000 0.21289(3) 0.2500
P1B P 0.52752(8) 0.16904(4) 0.39544(8)
N1B N 1.3929(3) 0.27160(13) 0.2804(2)
N1B_2 N 0.3929(3) 0.27160(13) 0.2804(2)
N2B N 1.1062(3) 0.40253(15) 0.2804(3)
C1B C 0.5325(3) 0.21821(15) 0.4954(3)
C2B C 0.6080(3) 0.25707(17) 0.4991(3)
H1B H 0.6574 0.2542 0.4575
C3B C 0.6103(4) 0.29971(17) 0.5635(3)
H2B H 0.6616 0.3252 0.5655
C4B C 0.5382(4) 0.30503(19) 0.6246(4)
H3B H 0.5390 0.3344 0.6668
C5B C 0.4650(4) 0.2667(2) 0.6227(4)
H4B H 0.4160 0.2699 0.6646
C6B C 0.4625(4) 0.2229(2) 0.5592(3)
H5B H 0.4130 0.1967 0.5600
C7B C 0.6378(3) 0.12704(15) 0.4270(3)
C8B C 0.6820(3) 0.10243(17) 0.3521(3)
H6B H 0.6541 0.1072 0.2878
C9B C 0.7674(4) 0.07087(18) 0.3726(4)
H7B H 0.7960 0.0544 0.3221
C10B C 0.8099(3) 0.06384(17) 0.4669(4)
H8B H 0.8674 0.0429 0.4800
C11B C 0.7673(3) 0.08768(18) 0.5420(4)
H9B H 0.7964 0.0831 0.6060
C12B C 0.6806(3) 0.11864(17) 0.5223(3)
H10B H 0.6511 0.1338 0.5735
C13B C 0.4220(3) 0.12497(17) 0.4120(3)
C14B C 0.3253(3) 0.14611(19) 0.4015(3)
H11B H 0.3162 0.1833 0.3937
C15B C 0.2432(4) 0.1132(2) 0.4025(4)
H12B H 0.1791 0.1280 0.3957
C16B C 0.2559(4) 0.0583(2) 0.4136(4)
H13B H 0.2003 0.0358 0.4135
C17B C 0.3492(4) 0.0367(2) 0.4246(4)
H14B H 0.3574 -0.0005 0.4325
C18B C 0.4322(4) 0.06936(17) 0.4242(4)
H15B H 0.4957 0.0539 0.4322
C19B C 1.2951(3) 0.26941(16) 0.2464(3)
H16B H 1.2713 0.2383 0.2134
C20B C 1.2283(3) 0.31043(16) 0.2575(3)
H17B H 1.1611 0.3067 0.2333
C21B C 1.2625(3) 0.35756(17) 0.3052(3)
C22B C 1.3624(3) 0.36009(19) 0.3425(3)
H18B H 1.3877 0.3907 0.3763
C23B C 1.4241(3) 0.31692(18) 0.3291(3)
H19B H 1.4910 0.3192 0.3551
C24B C 1.1944(4) 0.40395(18) 0.3137(3)
H20B H 1.2196 0.4352 0.3453
C25B C 1.0428(3) 0.44962(18) 0.2905(3)
H21B H 1.0818 0.4825 0.2877
H22B H 1.0169 0.4485 0.3530
loop_
_geom_bond_atom_site_label_1
_geom_bond_atom_site_label_2
_geom_bond_site_symmetry_1
_geom_bond_site_symmetry_2
Cu1 P1 1_555 1_555
P1 C1 1_555 1_555
N1 Cu1 1_555 1_555
N2 C24 1_555 1_555
C1 C2 1_555 1_555
C2 H1 1_555 1_555
C3 C2 1_555 1_555
H2 C3 1_555 1_555
C4 C3 1_555 1_555
H3 C4 1_555 1_555
C5 C4 1_555 1_555
H4 C5 1_555 1_555
C6 C1 1_555 1_555
H5 C6 1_555 1_555
C7 P1 1_555 1_555
C8 C7 1_555 1_555
H6 C8 1_555 1_555
C9 C8 1_555 1_555
H7 C9 1_555 1_555
C10 C9 1_555 1_555
H8 C10 1_555 1_555
C11 C10 1_555 1_555
H9 C11 1_555 1_555
C12 C7 1_555 1_555
H10 C12 1_555 1_555
C13 P1 1_555 1_555
C14 C13 1_555 1_555
H11 C14 1_555 1_555
C15 C14 1_555 1_555
H12 C15 1_555 1_555
C16 C15 1_555 1_555
H13 C16 1_555 1_555
C17 C16 1_555 1_555
H14 C17 1_555 1_555
C18 C13 1_555 1_555
H15 C18 1_555 1_555
C19 N1 1_555 1_555
H16 C19 1_555 1_555
C20 C19 1_555 1_555
H17 C20 1_555 1_555
C21 C20 1_555 1_555
C22 C21 1_555 1_555
H18 C22 1_555 1_555
C23 N1 1_555 1_555
H19 C23 1_555 1_555
C24 C21 1_555 1_555
H20 C24 1_555 1_555
C25 N2 1_555 1_555
H21 C25 1_555 1_555
H22 C25 1_555 1_555
B1 F1 1_555 1_555
F1 B1B 1_555 1_555
F2 B1 1_555 1_555
F3 B1 1_555 1_555
F4 B1 1_555 1_555
Cu1_2 N1B 1_555 1_555
P1B Cu1 1_555 1_555
N1B C19B 1_555 1_555
N1B_2 Cu1 1_555 1_555
N2B C24B 1_555 1_555
C1B P1B 1_555 1_555
C2B C1B 1_555 1_555
H1B C2B 1_555 1_555
C3B C2B 1_555 1_555
H2B C3B 1_555 1_555
C4B C3B 1_555 1_555
H3B C4B 1_555 1_555
C5B C4B 1_555 1_555
H4B C5B 1_555 1_555
C6B C1B 1_555 1_555
H5B C6B 1_555 1_555
C7B P1B 1_555 1_555
C8B C7B 1_555 1_555
H6B C8B 1_555 1_555
C9B C8B 1_555 1_555
H7B C9B 1_555 1_555
C10B C9B 1_555 1_555
H8B C10B 1_555 1_555
C11B C10B 1_555 1_555
H9B C11B 1_555 1_555
C12B C7B 1_555 1_555
H10B C12B 1_555 1_555
C13B P1B 1_555 1_555
C14B C13B 1_555 1_555
H11B C14B 1_555 1_555
C15B C14B 1_555 1_555
H12B C15B 1_555 1_555
C16B C15B 1_555 1_555
H13B C16B 1_555 1_555
C17B C16B 1_555 1_555
H14B C17B 1_555 1_555
C18B C13B 1_555 1_555
H15B C18B 1_555 1_555
C19B H16B 1_555 1_555
C20B C19B 1_555 1_555
H17B C20B 1_555 1_555
C21B C20B 1_555 1_555
C22B C21B 1_555 1_555
H18B C22B 1_555 1_555
C23B N1B 1_555 1_555
H19B C23B 1_555 1_555
C24B C21B 1_555 1_555
H20B C24B 1_555 1_555
C25B C25 1_555 1_555
H21B C25B 1_555 1_555
H22B C25B 1_555 1_555
B1B B1 1_555 1_555
F1B B1 1_555 1_555
F2B B1 1_555 1_555
F3B B1 1_555 1_555
F4B B1 1_555 1_555
C5 C6 1_555 1_555
C11 C12 1_555 1_555
C17 C18 1_555 1_555
C22 C23 1_555 1_555
F1 F2B 1_555 1_555
F1 F4B 1_555 1_555
F2 B1B 1_555 1_555
F2 F1B 1_555 1_555
F2 F4B 1_555 1_555
F3 B1B 1_555 1_555
F3 F3B 1_555 1_555
F4 B1B 1_555 1_555
F4 F1B 1_555 1_555
F4 F2B 1_555 1_555
N2B C25B 1_555 1_555
C5B C6B 1_555 1_555
C11B C12B 1_555 1_555
C17B C18B 1_555 1_555
C22B C23B 1_555 1_555
B1B F1B 1_555 1_555
B1B F2B 1_555 1_555
B1B F3B 1_555 1_555
B1B F4B 1_555 1_555

#END
