
#######################################################################
#
#                 Cambridge Crystallographic Data Centre
#                                CCDC 
#
#######################################################################
#
# If this CIF has been generated from an entry in the Cambridge 
# Structural Database, then it will include bibliographic, chemical, 
# crystal, experimental, refinement or atomic coordinate data resulting 
# from the CCDC's data processing and validation procedures.
#
#######################################################################

data_UCEROL01
_symmetry_cell_setting           triclinic
_symmetry_space_group_name_H-M   'P -1'
_symmetry_Int_Tables_number      2
_space_group_name_Hall           '-P 1'
loop_
_symmetry_equiv_pos_site_id
_symmetry_equiv_pos_as_xyz
1 x,y,z
2 -x,-y,-z
_cell_length_a                   10.7206(4)
_cell_length_b                   13.3783(5)
_cell_length_c                   13.6296(6)
_cell_angle_alpha                74.864(2)
_cell_angle_beta                 83.842(2)
_cell_angle_gamma                66.662(2)
_cell_volume                     1732.59
loop_
_atom_site_label
_atom_site_type_symbol
_atom_site_fract_x
_atom_site_fract_y
_atom_site_fract_z
Cu1 Cu 0.0000 0.5000 0.5000
O1 O 0.1199(2) 0.53196(16) 0.36775(16)
C1 C 0.3051(4) 0.5067(3) 0.2574(2)
F1 F 0.2611(3) 0.61334(18) 0.20906(17)
F2 F 0.2653(3) 0.4572(2) 0.20323(16)
F3 F 0.4380(2) 0.4675(2) 0.25311(14)
C2 C 0.2466(3) 0.4921(2) 0.3649(2)
C3 C 0.3369(3) 0.4372(2) 0.4465(2)
H1 H 0.4297 0.4115 0.4330
C4 C 0.2936(3) 0.4195(2) 0.5468(2)
C5 C 0.4004(3) 0.3537(3) 0.6291(2)
F4 F 0.52730(18) 0.31937(18) 0.59647(14)
F5 F 0.3903(2) 0.41300(15) 0.69684(14)
F6 F 0.3802(2) 0.26199(15) 0.68196(15)
O2 O 0.1744(2) 0.45132(16) 0.58134(15)
Cu2 Cu 0.0000 0.0000 1.0000
O3 O -0.15844(19) -0.00034(15) 0.94472(13)
C6 C -0.3730(3) 0.0597(3) 0.8766(2)
F7 F -0.33121(19) 0.05518(17) 0.78219(13)
F8 F -0.49760(18) 0.13820(16) 0.87243(14)
F9 F -0.38288(19) -0.03807(16) 0.92274(14)
C7 C -0.2721(3) 0.0806(2) 0.93239(19)
C8 C -0.3125(3) 0.1806(2) 0.9615(2)
H2 H -0.3982 0.2356 0.9432
C9 C -0.2270(3) 0.2004(2) 1.0175(2)
C10 C -0.2835(3) 0.3094(3) 1.0538(2)
F10 F -0.3180(2) 0.28889(17) 1.15081(14)
F11 F -0.3925(2) 0.38634(15) 1.00429(14)
F12 F -0.1936(2) 0.35541(18) 1.0441(2)
O4 O -0.10806(19) 0.13835(15) 1.04633(13)
O5 O 0.08091(18) 0.33961(15) 0.48975(13)
N1 N 0.0087(2) 0.28326(18) 0.48034(16)
C11 C -0.0034(3) 0.2598(2) 0.38028(19)
C12 C 0.1331(3) 0.1686(2) 0.3646(2)
H3 H 0.2012 0.2003 0.3482
H4 H 0.1259 0.1382 0.3100
H5 H 0.1582 0.1101 0.4258
C13 C -0.0322(3) 0.3637(2) 0.2938(2)
H6 H 0.0458 0.3836 0.2824
H7 H -0.1090 0.4244 0.3111
H8 H -0.0516 0.3487 0.2332
C14 C -0.1217(3) 0.2176(2) 0.40694(19)
C15 C -0.1126(3) 0.1255(2) 0.3579(2)
H9 H -0.1891 0.1046 0.3787
H10 H -0.0302 0.0615 0.3787
H11 H -0.1128 0.1519 0.2853
C16 C -0.2624(3) 0.3117(2) 0.3915(2)
H12 H -0.3305 0.2802 0.4094
H13 H -0.2730 0.3524 0.3215
H14 H -0.2723 0.3616 0.4338
N2 N -0.1031(2) 0.17287(18) 0.51984(16)
O6 O -0.16165(19) 0.10989(15) 0.57235(14)
C17 C -0.0322(3) 0.2188(2) 0.5588(2)
C18 C -0.0026(3) 0.1968(2) 0.6640(2)
C19 C -0.0372(3) 0.1255(2) 0.7478(2)
H15 H -0.0876 0.0839 0.7437
N3 N 0.0114(2) 0.12522(18) 0.83381(16)
N4 N 0.0763(2) 0.19793(18) 0.80522(16)
C20 C 0.1414(3) 0.2210(2) 0.8817(2)
H16 H 0.2391 0.1821 0.8779
H17 H 0.1117 0.1920 0.9489
C21 C 0.1085(4) 0.3434(3) 0.8669(3)
H18 H 0.0130 0.3810 0.8816
H19 H 0.1251 0.3752 0.7967
C22 C 0.2002(5) 0.3639(3) 0.9408(3)
H20 H 0.2953 0.3169 0.9351
H21 H 0.1907 0.4417 0.9226
C23 C 0.1521(5) 0.3357(4) 1.0416(4)
H22 H 0.2047 0.3456 1.0883
H23 H 0.1609 0.2589 1.0581
H24 H 0.0584 0.3835 1.0463
C24 C 0.0716(3) 0.2404(2) 0.70558(19)
H25 H 0.1108 0.2902 0.6700
Cu1_2 Cu 0.0000 -0.5000 1.5000
O1A O -0.1199(2) 0.46804(16) 0.63225(16)
C1A C -0.3051(4) 0.4933(3) 0.7426(2)
F1A F -0.2611(3) 0.38666(18) 0.79094(17)
F2A F -0.2653(3) 0.5428(2) 0.79677(16)
F3A F -0.4380(2) 0.5325(2) 0.74689(14)
C2A C -0.2466(3) 0.5079(2) 0.6351(2)
C3A C -0.3369(3) 0.5628(2) 0.5535(2)
H1A H -0.4297 0.5885 0.5670
C4A C -0.2936(3) 0.5805(2) 0.4532(2)
C5A C -0.4004(3) 0.6463(3) 0.3709(2)
F4A F -0.52730(18) 0.68063(18) 0.40353(14)
F5A F -0.3903(2) 0.58700(15) 0.30316(14)
F6A F -0.3802(2) 0.73801(15) 0.31804(15)
O2A O -0.1744(2) 0.54868(16) 0.41866(15)
O3A O 0.15844(19) 0.00034(15) 1.05528(13)
C6A C 0.3730(3) -0.0597(3) 1.1234(2)
F7A F 0.33121(19) -0.05518(17) 1.21781(13)
F8A F 0.49760(18) -0.13820(16) 1.12757(14)
F9A F 0.38288(19) 0.03807(16) 1.07726(14)
C7A C 0.2721(3) -0.0806(2) 1.06761(19)
C8A C 0.3125(3) -0.1806(2) 1.0385(2)
H2A H 0.3982 -0.2356 1.0568
C9A C 0.2270(3) -0.2004(2) 0.9825(2)
C10A C 0.2835(3) -0.3094(3) 0.9462(2)
F10A F 0.3180(2) -0.28889(17) 0.84919(14)
F11A F 0.3925(2) -0.38634(15) 0.99571(14)
F12A F 0.1936(2) -0.35541(18) 0.9559(2)
O4A O 0.10806(19) -0.13835(15) 0.95367(13)
O5A O -0.08091(18) 0.66039(15) 0.51025(13)
O5A_2 O -0.08091(18) -0.33961(15) 1.51025(13)
N1A N -0.0087(2) -0.28326(18) 1.51966(16)
C11A C 0.0034(3) -0.2598(2) 1.61972(19)
C12A C -0.1331(3) -0.1686(2) 1.6354(2)
H3A H -0.2012 -0.2003 1.6518
H4A H -0.1259 -0.1382 1.6900
H5A H -0.1582 -0.1101 1.5742
C13A C 0.0322(3) -0.3637(2) 1.7062(2)
H6A H -0.0458 -0.3836 1.7176
H7A H 0.1090 -0.4244 1.6889
H8A H 0.0516 -0.3487 1.7668
C14A C 0.1217(3) -0.2176(2) 1.59306(19)
C15A C 0.1126(3) -0.1255(2) 1.6421(2)
H9A H 0.1891 -0.1046 1.6213
H10A H 0.0302 -0.0615 1.6213
H11A H 0.1128 -0.1519 1.7147
C16A C 0.2624(3) -0.3117(2) 1.6085(2)
H12A H 0.3305 -0.2802 1.5906
H13A H 0.2730 -0.3524 1.6785
H14A H 0.2723 -0.3616 1.5662
N2A N 0.1031(2) -0.17287(18) 1.48016(16)
O6A O 0.16165(19) -0.10989(15) 1.42765(14)
C17A C 0.0322(3) -0.2188(2) 1.4412(2)
C18A C 0.0026(3) -0.1968(2) 1.3360(2)
C19A C 0.0372(3) -0.1255(2) 1.2522(2)
H15A H 0.0876 -0.0839 1.2563
N3A N -0.0114(2) -0.12522(18) 1.16619(16)
N4A N -0.0763(2) -0.19793(18) 1.19478(16)
C20A C -0.1414(3) -0.2210(2) 1.1183(2)
H16A H -0.2391 -0.1821 1.1221
H17A H -0.1117 -0.1920 1.0511
C21A C -0.1085(4) -0.3434(3) 1.1331(3)
H18A H -0.0130 -0.3810 1.1184
H19A H -0.1251 -0.3752 1.2033
C22A C -0.2002(5) -0.3639(3) 1.0592(3)
H20A H -0.2953 -0.3169 1.0649
H21A H -0.1907 -0.4417 1.0774
C23A C -0.1521(5) -0.3357(4) 0.9584(4)
H22A H -0.2047 -0.3456 0.9117
H23A H -0.1609 -0.2589 0.9419
H24A H -0.0584 -0.3835 0.9537
C24A C -0.0716(3) -0.2404(2) 1.29442(19)
H25A H -0.1108 -0.2902 1.3300
C25 C 0.3670(3) -0.0265(3) 0.7680(2)
H26 H 0.3671 -0.0612 0.8392
H27 H 0.2850 -0.0170 0.7378
H28 H 0.3721 0.0453 0.7593
C26 C 0.4894(3) -0.1008(3) 0.7167(2)
H29 H 0.5719 -0.1122 0.7490
H30 H 0.4842 -0.1735 0.7261
C27 C 0.4962(3) -0.0502(2) 0.6046(2)
C28 C 0.4676(3) -0.0921(3) 0.5315(2)
H31 H 0.4459 -0.1553 0.5519
C29 C 0.5301(3) 0.0439(3) 0.5702(2)
H32 H 0.5513 0.0743 0.6171
C25A C 0.6330(3) 0.0265(3) 0.2320(2)
H26A H 0.6329 0.0612 0.1608
H27A H 0.7150 0.0170 0.2622
H28A H 0.6279 -0.0453 0.2407
C26A C 0.5106(3) 0.1008(3) 0.2833(2)
H29A H 0.4281 0.1122 0.2510
H30A H 0.5158 0.1735 0.2739
C27A C 0.5038(3) 0.0502(2) 0.3954(2)
C28A C 0.5324(3) 0.0921(3) 0.4685(2)
H31A H 0.5541 0.1553 0.4481
C29A C 0.4699(3) -0.0439(3) 0.4298(2)
H32A H 0.4487 -0.0743 0.3829
loop_
_geom_bond_atom_site_label_1
_geom_bond_atom_site_label_2
_geom_bond_site_symmetry_1
_geom_bond_site_symmetry_2
Cu1 O1 1_555 1_555
O1 C2 1_555 1_555
C1 F1 1_555 1_555
F2 C1 1_555 1_555
F3 C1 1_555 1_555
C2 C1 1_555 1_555
C3 C2 1_555 1_555
H1 C3 1_555 1_555
C4 C3 1_555 1_555
C5 C4 1_555 1_555
F4 C5 1_555 1_555
F5 C5 1_555 1_555
F6 C5 1_555 1_555
O2 Cu1 1_555 1_555
Cu2 O3 1_555 1_555
O3 C7 1_555 1_555
C6 F7 1_555 1_555
F8 C6 1_555 1_555
F9 C6 1_555 1_555
C7 C6 1_555 1_555
C8 C7 1_555 1_555
H2 C8 1_555 1_555
C9 C8 1_555 1_555
C10 C9 1_555 1_555
F10 C10 1_555 1_555
F11 C10 1_555 1_555
F12 C10 1_555 1_555
O4 Cu2 1_555 1_555
O5 Cu1 1_555 1_555
N1 O5 1_555 1_555
C11 N1 1_555 1_555
C12 C11 1_555 1_555
H3 C12 1_555 1_555
H4 C12 1_555 1_555
H5 C12 1_555 1_555
C13 C11 1_555 1_555
H6 C13 1_555 1_555
H7 C13 1_555 1_555
H8 C13 1_555 1_555
C14 C11 1_555 1_555
C15 C14 1_555 1_555
H9 C15 1_555 1_555
H10 C15 1_555 1_555
H11 C15 1_555 1_555
C16 C14 1_555 1_555
H12 C16 1_555 1_555
H13 C16 1_555 1_555
H14 C16 1_555 1_555
N2 C14 1_555 1_555
O6 N2 1_555 1_555
C17 N1 1_555 1_555
C18 C17 1_555 1_555
C19 C18 1_555 1_555
H15 C19 1_555 1_555
N3 Cu2 1_555 1_555
N4 N3 1_555 1_555
C20 N4 1_555 1_555
H16 C20 1_555 1_555
H17 C20 1_555 1_555
C21 C20 1_555 1_555
H18 C21 1_555 1_555
H19 C21 1_555 1_555
C22 C21 1_555 1_555
H20 C22 1_555 1_555
H21 C22 1_555 1_555
C23 C22 1_555 1_555
H22 C23 1_555 1_555
H23 C23 1_555 1_555
H24 C23 1_555 1_555
C24 C18 1_555 1_555
H25 C24 1_555 1_555
C25 H26 1_555 1_555
H27 C25 1_555 1_555
H28 C25 1_555 1_555
C26 C25 1_555 1_555
H29 C26 1_555 1_555
H30 C26 1_555 1_555
C27 C26 1_555 1_555
C28 C27 1_555 1_555
H31 C28 1_555 1_555
C29 C27 1_555 1_555
H32 C29 1_555 1_555
Cu1_2 O5A_2 1_555 1_555
O1A Cu1 1_555 1_555
C1A F1A 1_555 1_555
F2A C1A 1_555 1_555
F3A C1A 1_555 1_555
C2A O1A 1_555 1_555
C3A C2A 1_555 1_555
H1A C3A 1_555 1_555
C4A C3A 1_555 1_555
C5A C4A 1_555 1_555
F4A C5A 1_555 1_555
F5A C5A 1_555 1_555
F6A C5A 1_555 1_555
O2A Cu1 1_555 1_555
O3A Cu2 1_555 1_555
C6A F7A 1_555 1_555
F8A C6A 1_555 1_555
F9A C6A 1_555 1_555
C7A O3A 1_555 1_555
C8A C7A 1_555 1_555
H2A C8A 1_555 1_555
C9A C8A 1_555 1_555
C10A C9A 1_555 1_555
F10A C10A 1_555 1_555
F11A C10A 1_555 1_555
F12A C10A 1_555 1_555
O4A Cu2 1_555 1_555
O5A Cu1 1_555 1_555
O5A_2 N1A 1_555 1_555
N1A C11A 1_555 1_555
C11A C12A 1_555 1_555
C12A H3A 1_555 1_555
H4A C12A 1_555 1_555
H5A C12A 1_555 1_555
C13A C11A 1_555 1_555
H6A C13A 1_555 1_555
H7A C13A 1_555 1_555
H8A C13A 1_555 1_555
C14A C11A 1_555 1_555
C15A C14A 1_555 1_555
H9A C15A 1_555 1_555
H10A C15A 1_555 1_555
H11A C15A 1_555 1_555
C16A C14A 1_555 1_555
H12A C16A 1_555 1_555
H13A C16A 1_555 1_555
H14A C16A 1_555 1_555
N2A C14A 1_555 1_555
O6A N2A 1_555 1_555
C17A N1A 1_555 1_555
C18A C17A 1_555 1_555
C19A C18A 1_555 1_555
H15A C19A 1_555 1_555
N3A Cu2 1_555 1_555
N4A N3A 1_555 1_555
C20A N4A 1_555 1_555
H16A C20A 1_555 1_555
H17A C20A 1_555 1_555
C21A C20A 1_555 1_555
H18A C21A 1_555 1_555
H19A C21A 1_555 1_555
C22A C21A 1_555 1_555
H20A C22A 1_555 1_555
H21A C22A 1_555 1_555
C23A C22A 1_555 1_555
H22A C23A 1_555 1_555
H23A C23A 1_555 1_555
H24A C23A 1_555 1_555
C24A C18A 1_555 1_555
H25A C24A 1_555 1_555
C25A H26A 1_555 1_555
H27A C25A 1_555 1_555
H28A C25A 1_555 1_555
C26A C25A 1_555 1_555
H29A C26A 1_555 1_555
H30A C26A 1_555 1_555
C27A C26A 1_555 1_555
C28A C29 1_555 1_555
H31A C28A 1_555 1_555
C29A C28 1_555 1_555
H32A C29A 1_555 1_555
C4 O2 1_555 1_555
C9 O4 1_555 1_555
N2 C17 1_555 1_555
C19 N3 1_555 1_555
N4 C24 1_555 1_555
C1A C2A 1_555 1_555
C4A O2A 1_555 1_555
C6A C7A 1_555 1_555
C9A O4A 1_555 1_555
N2A C17A 1_555 1_555
C19A N3A 1_555 1_555
N4A C24A 1_555 1_555
C27A C28A 1_555 1_555
C27A C29A 1_555 1_555

#END
