
#######################################################################
#
#                 Cambridge Crystallographic Data Centre
#                                CCDC 
#
#######################################################################
#
# If this CIF has been generated from an entry in the Cambridge 
# Structural Database, then it will include bibliographic, chemical, 
# crystal, experimental, refinement or atomic coordinate data resulting 
# from the CCDC's data processing and validation procedures.
#
#######################################################################

data_UCETIH01
_symmetry_cell_setting           triclinic
_symmetry_space_group_name_H-M   'P -1'
_symmetry_Int_Tables_number      2
_space_group_name_Hall           '-P 1'
loop_
_symmetry_equiv_pos_site_id
_symmetry_equiv_pos_as_xyz
1 x,y,z
2 -x,-y,-z
_cell_length_a                   10.5903(16)
_cell_length_b                   13.106(2)
_cell_length_c                   13.493(2)
_cell_angle_alpha                98.591(12)
_cell_angle_beta                 109.128(12)
_cell_angle_gamma                99.938(13)
_cell_volume                     1699.63
loop_
_atom_site_label
_atom_site_type_symbol
_atom_site_fract_x
_atom_site_fract_y
_atom_site_fract_z
Cu1 Cu 0.0000 0.0000 0.0000
O1 O 0.1535(3) 0.1300(3) 0.0362(2)
C1 C 0.3298(6) 0.2551(4) 0.0260(4)
F1 F 0.2497(4) 0.3136(3) -0.0184(4)
F2 F 0.3839(4) 0.2954(3) 0.1302(3)
F3 F 0.4336(3) 0.2690(2) -0.0084(2)
C2 C 0.2505(5) 0.1401(4) 0.0016(4)
C3 C 0.2940(5) 0.0630(4) -0.0534(4)
H1 H 0.3695 0.0835 -0.0753
C4 C 0.2271(5) -0.0442(4) -0.0766(4)
C5 C 0.2772(6) -0.1231(4) -0.1428(5)
F4 F 0.1757(3) -0.1732(2) -0.2340(2)
F5 F 0.3154(3) -0.1982(3) -0.0911(3)
F6 F 0.3816(4) -0.0795(2) -0.1681(3)
O2 O 0.1324(3) -0.0875(3) -0.0514(2)
Cu2 Cu 0.5000 0.5000 0.5000
O3 O 0.5106(3) 0.4439(2) 0.6304(2)
C6 C 0.4896(6) 0.4303(4) 0.7955(4)
F7 F 0.6238(3) 0.4396(2) 0.8367(2)
F8 F 0.4286(3) 0.3267(2) 0.7768(2)
F9 F 0.4538(3) 0.4818(2) 0.8711(2)
C7 C 0.4465(5) 0.4697(4) 0.6906(4)
C8 C 0.3457(5) 0.5281(3) 0.6724(4)
H2 H 0.3068 0.5430 0.7256
C9 C 0.3009(4) 0.5648(3) 0.5794(4)
C10 C 0.1886(5) 0.6251(4) 0.5623(4)
F10 F 0.1306(3) 0.6231(2) 0.6371(2)
F11 F 0.2384(3) 0.7278(2) 0.5673(2)
F12 F 0.0882(3) 0.5863(2) 0.4668(2)
O4 O 0.3450(3) 0.5578(2) 0.5023(2)
O5 O 0.0578(3) -0.0148(2) 0.1553(2)
N1 N 0.1772(4) -0.0308(3) 0.2087(3)
C11 C 0.1973(5) -0.1373(4) 0.2286(4)
C12 C 0.1227(5) -0.2234(4) 0.1242(4)
H3 H 0.0231 -0.2312 0.1028
H4 H 0.1449 -0.2912 0.1363
H5 H 0.1525 -0.2028 0.0670
C13 C 0.1299(5) -0.1588(4) 0.3103(4)
H6 H 0.1763 -0.1039 0.3768
H7 H 0.1375 -0.2286 0.3257
H8 H 0.0325 -0.1575 0.2805
C14 C 0.3552(5) -0.1156(3) 0.2732(4)
C15 C 0.4165(5) -0.1299(4) 0.1856(4)
H9 H 0.5169 -0.1151 0.2189
H10 H 0.3910 -0.0807 0.1387
H11 H 0.3808 -0.2031 0.1431
C16 C 0.4149(5) -0.1733(4) 0.3600(4)
H12 H 0.5155 -0.1552 0.3832
H13 H 0.3801 -0.2501 0.3315
H14 H 0.3880 -0.1521 0.4214
N2 N 0.3904(4) 0.0009(3) 0.3186(3)
O6 O 0.5106(3) 0.0511(2) 0.3826(2)
C17 C 0.2856(5) 0.0482(4) 0.2752(4)
C18 C 0.2901(5) 0.1587(4) 0.2994(3)
C19 C 0.4000(5) 0.2417(4) 0.3716(3)
H15 H 0.4876 0.2328 0.4128
N3 N 0.3642(4) 0.3344(3) 0.3742(3)
N4 N 0.2324(4) 0.3111(3) 0.3044(3)
C20 C 0.1603(4) 0.3967(3) 0.2884(3)
H16 H 0.2285 0.4631 0.2987
H17 H 0.1201 0.4076 0.3448
C21 C 0.0482(5) 0.3786(4) 0.1810(4)
H18 H -0.0228 0.3138 0.1705
H19 H 0.0866 0.3674 0.1236
C22 C -0.0172(5) 0.4729(4) 0.1729(4)
H20 H -0.0467 0.4875 0.2350
H21 H 0.0536 0.5360 0.1787
C23 C -0.1400(5) 0.4592(4) 0.0704(4)
H22 H -0.1752 0.5236 0.0720
H23 H -0.2123 0.3984 0.0648
H24 H -0.1118 0.4466 0.0082
C24 C 0.1836(5) 0.2069(4) 0.2590(3)
H25 H 0.0937 0.1731 0.2090
Cu1_2 Cu 1.0000 1.0000 1.0000
O1A O -0.1535(3) -0.1300(3) -0.0362(2)
C1A C -0.3298(6) -0.2551(4) -0.0260(4)
F1A F -0.2497(4) -0.3136(3) 0.0184(4)
F2A F -0.3839(4) -0.2954(3) -0.1302(3)
F3A F -0.4336(3) -0.2690(2) 0.0084(2)
C2A C -0.2505(5) -0.1401(4) -0.0016(4)
C3A C -0.2940(5) -0.0630(4) 0.0534(4)
H1A H -0.3695 -0.0835 0.0753
C4A C -0.2271(5) 0.0442(4) 0.0766(4)
C5A C -0.2772(6) 0.1231(4) 0.1428(5)
F4A F -0.1757(3) 0.1732(2) 0.2340(2)
F5A F -0.3154(3) 0.1982(3) 0.0911(3)
F6A F -0.3816(4) 0.0795(2) 0.1681(3)
O2A O -0.1324(3) 0.0875(3) 0.0514(2)
O3A O 0.4894(3) 0.5561(2) 0.3696(2)
C6A C 0.5104(6) 0.5697(4) 0.2045(4)
F7A F 0.3762(3) 0.5604(2) 0.1633(2)
F8A F 0.5714(3) 0.6733(2) 0.2232(2)
F9A F 0.5462(3) 0.5182(2) 0.1289(2)
C7A C 0.5535(5) 0.5303(4) 0.3094(4)
C8A C 0.6543(5) 0.4719(3) 0.3276(4)
H2A H 0.6932 0.4570 0.2744
C9A C 0.6991(4) 0.4352(3) 0.4206(4)
C10A C 0.8114(5) 0.3749(4) 0.4377(4)
F10A F 0.8694(3) 0.3769(2) 0.3629(2)
F11A F 0.7616(3) 0.2722(2) 0.4327(2)
F12A F 0.9118(3) 0.4137(2) 0.5332(2)
O4A O 0.6550(3) 0.4422(2) 0.4977(2)
O5A O -0.0578(3) 0.0148(2) -0.1553(2)
O5A_2 O 0.9422(3) 1.0148(2) 0.8447(2)
N1A N 0.8228(4) 1.0308(3) 0.7913(3)
C11A C 0.8027(5) 1.1373(4) 0.7714(4)
C12A C 0.8773(5) 1.2234(4) 0.8758(4)
H3A H 0.9769 1.2312 0.8972
H4A H 0.8551 1.2912 0.8637
H5A H 0.8475 1.2028 0.9330
C13A C 0.8701(5) 1.1588(4) 0.6897(4)
H6A H 0.8237 1.1039 0.6232
H7A H 0.8625 1.2286 0.6743
H8A H 0.9675 1.1575 0.7195
C14A C 0.6448(5) 1.1156(3) 0.7268(4)
C15A C 0.5835(5) 1.1299(4) 0.8144(4)
H9A H 0.4831 1.1151 0.7811
H10A H 0.6090 1.0807 0.8613
H11A H 0.6192 1.2031 0.8569
C16A C 0.5851(5) 1.1733(4) 0.6400(4)
H12A H 0.4845 1.1552 0.6168
H13A H 0.6199 1.2501 0.6685
H14A H 0.6120 1.1521 0.5786
N2A N 0.6096(4) 0.9991(3) 0.6814(3)
O6A O 0.4894(3) 0.9489(2) 0.6174(2)
C17A C 0.7144(5) 0.9518(4) 0.7248(4)
C18A C 0.7099(5) 0.8413(4) 0.7006(3)
C19A C 0.6000(5) 0.7583(4) 0.6284(3)
H15A H 0.5124 0.7672 0.5872
N3A N 0.6358(4) 0.6656(3) 0.6258(3)
N4A N 0.7676(4) 0.6889(3) 0.6956(3)
C20A C 0.8397(4) 0.6033(3) 0.7116(3)
H16A H 0.7715 0.5369 0.7013
H17A H 0.8799 0.5924 0.6552
C21A C 0.9518(5) 0.6214(4) 0.8190(4)
H18A H 1.0228 0.6862 0.8295
H19A H 0.9134 0.6326 0.8764
C22A C 1.0172(5) 0.5271(4) 0.8271(4)
H20A H 1.0467 0.5125 0.7650
H21A H 0.9464 0.4640 0.8213
C23A C 1.1400(5) 0.5408(4) 0.9296(4)
H22A H 1.1752 0.4764 0.9280
H23A H 1.2123 0.6016 0.9352
H24A H 1.1118 0.5534 0.9918
C24A C 0.8164(5) 0.7931(4) 0.7410(3)
H25A H 0.9063 0.8269 0.7910
C25 C 0.1308(5) 0.2198(4) 0.5350(4)
F13 F 0.0718(3) 0.2666(2) 0.4571(2)
F14 F 0.1264(3) 0.2762(2) 0.6269(2)
F15 F 0.2649(3) 0.2361(2) 0.5495(2)
C26 C 0.0630(5) 0.1051(4) 0.5154(4)
C27 C -0.0712(5) 0.0668(4) 0.4472(4)
H26 H -0.1202 0.1125 0.4104
C28 C 0.1348(5) 0.0382(4) 0.5679(4)
H27 H 0.2282 0.0647 0.6145
C25A C -0.1308(5) -0.2198(4) 0.4650(4)
F13A F -0.0718(3) -0.2666(2) 0.5429(2)
F14A F -0.1264(3) -0.2762(2) 0.3731(2)
F15A F -0.2649(3) -0.2361(2) 0.4505(2)
C26A C -0.0630(5) -0.1051(4) 0.4846(4)
C27A C 0.0712(5) -0.0668(4) 0.5528(4)
H26A H 0.1202 -0.1125 0.5896
C28A C -0.1348(5) -0.0382(4) 0.4321(4)
H27A H -0.2282 -0.0647 0.3855
loop_
_geom_bond_atom_site_label_1
_geom_bond_atom_site_label_2
_geom_bond_site_symmetry_1
_geom_bond_site_symmetry_2
Cu1 O1 1_555 1_555
O1 C2 1_555 1_555
C1 F1 1_555 1_555
F2 C1 1_555 1_555
F3 C1 1_555 1_555
C2 C1 1_555 1_555
C3 C2 1_555 1_555
H1 C3 1_555 1_555
C4 C3 1_555 1_555
C5 C4 1_555 1_555
F4 C5 1_555 1_555
F5 C5 1_555 1_555
F6 C5 1_555 1_555
O2 Cu1 1_555 1_555
Cu2 O3 1_555 1_555
O3 C7 1_555 1_555
C6 F7 1_555 1_555
F8 C6 1_555 1_555
F9 C6 1_555 1_555
C7 C6 1_555 1_555
C8 C7 1_555 1_555
H2 C8 1_555 1_555
C9 C8 1_555 1_555
C10 C9 1_555 1_555
F10 C10 1_555 1_555
F11 C10 1_555 1_555
F12 C10 1_555 1_555
O4 Cu2 1_555 1_555
O5 Cu1 1_555 1_555
N1 O5 1_555 1_555
C11 N1 1_555 1_555
C12 C11 1_555 1_555
H3 C12 1_555 1_555
H4 C12 1_555 1_555
H5 C12 1_555 1_555
C13 C11 1_555 1_555
H6 C13 1_555 1_555
H7 C13 1_555 1_555
H8 C13 1_555 1_555
C14 C11 1_555 1_555
C15 C14 1_555 1_555
H9 C15 1_555 1_555
H10 C15 1_555 1_555
H11 C15 1_555 1_555
C16 C14 1_555 1_555
H12 C16 1_555 1_555
H13 C16 1_555 1_555
H14 C16 1_555 1_555
N2 C14 1_555 1_555
O6 N2 1_555 1_555
C17 N1 1_555 1_555
C18 C17 1_555 1_555
C19 C18 1_555 1_555
H15 C19 1_555 1_555
N3 Cu2 1_555 1_555
N4 N3 1_555 1_555
C20 N4 1_555 1_555
H16 C20 1_555 1_555
H17 C20 1_555 1_555
C21 C20 1_555 1_555
H18 C21 1_555 1_555
H19 C21 1_555 1_555
C22 C21 1_555 1_555
H20 C22 1_555 1_555
H21 C22 1_555 1_555
C23 C22 1_555 1_555
H22 C23 1_555 1_555
H23 C23 1_555 1_555
H24 C23 1_555 1_555
C24 C18 1_555 1_555
H25 C24 1_555 1_555
C25 F13 1_555 1_555
F14 C25 1_555 1_555
F15 C25 1_555 1_555
C26 C25 1_555 1_555
C27 C26 1_555 1_555
H26 C27 1_555 1_555
C28 C26 1_555 1_555
H27 C28 1_555 1_555
Cu1_2 O5A_2 1_555 1_555
O1A Cu1 1_555 1_555
C1A F1A 1_555 1_555
F2A C1A 1_555 1_555
F3A C1A 1_555 1_555
C2A O1A 1_555 1_555
C3A C2A 1_555 1_555
H1A C3A 1_555 1_555
C4A C3A 1_555 1_555
C5A C4A 1_555 1_555
F4A C5A 1_555 1_555
F5A C5A 1_555 1_555
F6A C5A 1_555 1_555
O2A Cu1 1_555 1_555
O3A Cu2 1_555 1_555
C6A F7A 1_555 1_555
F8A C6A 1_555 1_555
F9A C6A 1_555 1_555
C7A O3A 1_555 1_555
C8A C7A 1_555 1_555
H2A C8A 1_555 1_555
C9A C8A 1_555 1_555
C10A C9A 1_555 1_555
F10A C10A 1_555 1_555
F11A C10A 1_555 1_555
F12A C10A 1_555 1_555
O4A Cu2 1_555 1_555
O5A Cu1 1_555 1_555
O5A_2 N1A 1_555 1_555
N1A C11A 1_555 1_555
C11A C12A 1_555 1_555
C12A H3A 1_555 1_555
H4A C12A 1_555 1_555
H5A C12A 1_555 1_555
C13A C11A 1_555 1_555
H6A C13A 1_555 1_555
H7A C13A 1_555 1_555
H8A C13A 1_555 1_555
C14A C11A 1_555 1_555
C15A C14A 1_555 1_555
H9A C15A 1_555 1_555
H10A C15A 1_555 1_555
H11A C15A 1_555 1_555
C16A C14A 1_555 1_555
H12A C16A 1_555 1_555
H13A C16A 1_555 1_555
H14A C16A 1_555 1_555
N2A C14A 1_555 1_555
O6A N2A 1_555 1_555
C17A N1A 1_555 1_555
C18A C17A 1_555 1_555
C19A C18A 1_555 1_555
H15A C19A 1_555 1_555
N3A Cu2 1_555 1_555
N4A N3A 1_555 1_555
C20A N4A 1_555 1_555
H16A C20A 1_555 1_555
H17A C20A 1_555 1_555
C21A C20A 1_555 1_555
H18A C21A 1_555 1_555
H19A C21A 1_555 1_555
C22A C21A 1_555 1_555
H20A C22A 1_555 1_555
H21A C22A 1_555 1_555
C23A C22A 1_555 1_555
H22A C23A 1_555 1_555
H23A C23A 1_555 1_555
H24A C23A 1_555 1_555
C24A C18A 1_555 1_555
H25A C24A 1_555 1_555
C25A F13A 1_555 1_555
F14A C25A 1_555 1_555
F15A C25A 1_555 1_555
C26A C25A 1_555 1_555
C27A C28 1_555 1_555
H26A C27A 1_555 1_555
C28A C27 1_555 1_555
H27A C28A 1_555 1_555
C4 O2 1_555 1_555
C9 O4 1_555 1_555
N2 C17 1_555 1_555
C19 N3 1_555 1_555
N4 C24 1_555 1_555
C1A C2A 1_555 1_555
C4A O2A 1_555 1_555
C6A C7A 1_555 1_555
C9A O4A 1_555 1_555
N2A C17A 1_555 1_555
C19A N3A 1_555 1_555
N4A C24A 1_555 1_555
C26A C27A 1_555 1_555
C26A C28A 1_555 1_555

#END
