
#######################################################################
#
#                 Cambridge Crystallographic Data Centre
#                                CCDC 
#
#######################################################################
#
# If this CIF has been generated from an entry in the Cambridge 
# Structural Database, then it will include bibliographic, chemical, 
# crystal, experimental, refinement or atomic coordinate data resulting 
# from the CCDC's data processing and validation procedures.
#
#######################################################################

data_UCETIH02
_symmetry_cell_setting           triclinic
_symmetry_space_group_name_H-M   'P -1'
_symmetry_Int_Tables_number      2
_space_group_name_Hall           '-P 1'
loop_
_symmetry_equiv_pos_site_id
_symmetry_equiv_pos_as_xyz
1 x,y,z
2 -x,-y,-z
_cell_length_a                   10.6489(7)
_cell_length_b                   13.1068(8)
_cell_length_c                   13.4746(8)
_cell_angle_alpha                98.614(4)
_cell_angle_beta                 109.029(4)
_cell_angle_gamma                99.544(5)
_cell_volume                     1710.89
loop_
_atom_site_label
_atom_site_type_symbol
_atom_site_fract_x
_atom_site_fract_y
_atom_site_fract_z
Cu1 Cu 0.5000 0.5000 0.5000
O1 O 0.3526(2) 0.36830(18) 0.46661(18)
C1 C 0.1759(4) 0.2435(3) 0.4755(3)
F1 F 0.2528(3) 0.1861(2) 0.5238(3)
F2 F 0.1287(3) 0.2018(2) 0.3728(2)
F3 F 0.0701(2) 0.23096(16) 0.5057(2)
C2 C 0.2541(3) 0.3584(3) 0.4988(3)
C3 C 0.2112(4) 0.4364(3) 0.5523(3)
H1 H 0.1359 0.4165 0.5740
C4 C 0.2752(4) 0.5428(3) 0.5750(3)
C5 C 0.2238(4) 0.6218(3) 0.6382(4)
F4 F 0.3226(3) 0.67108(19) 0.73063(19)
F5 F 0.1917(3) 0.69761(19) 0.5873(2)
F6 F 0.1177(3) 0.58058(19) 0.6593(3)
O2 O 0.3729(2) 0.58542(18) 0.55187(18)
Cu2 Cu 0.0000 0.0000 0.0000
O3 O -0.0102(2) 0.05641(15) -0.12998(17)
C6 C 0.0107(4) 0.0696(3) -0.2949(3)
F7 F -0.1228(2) 0.06340(18) -0.33488(16)
F8 F 0.0719(2) 0.17201(16) -0.27774(16)
F9 F 0.0433(2) 0.01724(16) -0.37180(16)
C7 C 0.0521(3) 0.0303(2) -0.1909(3)
C8 C 0.1522(3) -0.0283(2) -0.1739(3)
H2 H 0.1907 -0.0431 -0.2274
C9 C 0.1962(3) -0.0653(2) -0.0809(3)
C10 C 0.3103(4) -0.1262(3) -0.0644(3)
F10 F 0.36664(19) -0.12433(15) -0.13892(16)
F11 F 0.4089(2) -0.08698(17) 0.03132(16)
F12 F 0.2609(2) -0.22781(15) -0.06822(17)
O4 O 0.1544(2) -0.05837(16) -0.00318(17)
O5 O 0.4381(2) 0.51496(16) 0.33971(19)
N1 N 0.3191(3) 0.5296(2) 0.2866(2)
C11 C 0.2986(4) 0.6371(3) 0.2684(3)
C12 C 0.3608(4) 0.6575(3) 0.1843(3)
H3 H 0.4604 0.6712 0.2169
H4 H 0.3348 0.7192 0.1573
H5 H 0.3272 0.5952 0.1246
C13 C 0.3701(3) 0.7221(2) 0.3707(3)
H6 H 0.4691 0.7308 0.3916
H7 H 0.3416 0.7012 0.4283
H8 H 0.3459 0.7893 0.3583
C14 C 0.1404(3) 0.6143(2) 0.2246(3)
C15 C 0.0782(4) 0.6719(3) 0.1385(3)
H9 H -0.0214 0.6528 0.1162
H10 H 0.1046 0.6516 0.0764
H11 H 0.1112 0.7485 0.1671
C16 C 0.0810(3) 0.6281(3) 0.3140(3)
H12 H -0.0188 0.6127 0.2818
H13 H 0.1155 0.7012 0.3562
H14 H 0.1084 0.5791 0.3610
N2 N 0.1046(3) 0.4969(2) 0.1792(2)
O6 O -0.0151(2) 0.44680(17) 0.11702(19)
C17 C 0.2106(3) 0.4517(2) 0.2217(3)
C18 C 0.2076(3) 0.3410(2) 0.1983(3)
C19 C 0.0993(3) 0.2579(2) 0.1276(3)
H15 H 0.0119 0.2668 0.0868
N3 N 0.1351(3) 0.1656(2) 0.1252(2)
N4 N 0.2675(3) 0.18891(19) 0.1946(2)
C20 C 0.3398(3) 0.1023(2) 0.2100(3)
H16 H 0.3801 0.0916 0.1536
H17 H 0.2726 0.0360 0.1999
C21 C 0.4501(3) 0.1214(3) 0.3173(3)
H18 H 0.4116 0.1332 0.3746
H19 H 0.5203 0.1858 0.3273
C22 C 0.5155(4) 0.0256(3) 0.3257(3)
H20 H 0.4461 -0.0368 0.3216
H21 H 0.5443 0.0099 0.2633
C23 C 0.6381(4) 0.0420(3) 0.4284(3)
H22 H 0.6749 -0.0217 0.4284
H23 H 0.6101 0.0556 0.4906
H24 H 0.7084 0.1027 0.4323
C24 C 0.3136(3) 0.2923(2) 0.2388(3)
H25 H 0.4025 0.3262 0.2888
Cu1_2 Cu -0.5000 -0.5000 -0.5000
O1A O 0.6474(2) 0.63170(18) 0.53339(18)
C1A C 0.8241(4) 0.7565(3) 0.5245(3)
F1A F 0.7472(3) 0.8139(2) 0.4762(3)
F2A F 0.8713(3) 0.7982(2) 0.6272(2)
F3A F 0.9299(2) 0.76904(16) 0.4943(2)
C2A C 0.7459(3) 0.6416(3) 0.5012(3)
C3A C 0.7888(4) 0.5636(3) 0.4477(3)
H1A H 0.8641 0.5835 0.4260
C4A C 0.7248(4) 0.4572(3) 0.4250(3)
C5A C 0.7762(4) 0.3782(3) 0.3618(4)
F4A F 0.6774(3) 0.32892(19) 0.26937(19)
F5A F 0.8083(3) 0.30239(19) 0.4127(2)
F6A F 0.8823(3) 0.41942(19) 0.3407(3)
O2A O 0.6271(2) 0.41458(18) 0.44813(18)
O3A O 0.0102(2) -0.05641(15) 0.12998(17)
C6A C -0.0107(4) -0.0696(3) 0.2949(3)
F7A F 0.1228(2) -0.06340(18) 0.33488(16)
F8A F -0.0719(2) -0.17201(16) 0.27774(16)
F9A F -0.0433(2) -0.01724(16) 0.37180(16)
C7A C -0.0521(3) -0.0303(2) 0.1909(3)
C8A C -0.1522(3) 0.0283(2) 0.1739(3)
H2A H -0.1907 0.0431 0.2274
C9A C -0.1962(3) 0.0653(2) 0.0809(3)
C10A C -0.3103(4) 0.1262(3) 0.0644(3)
F10A F -0.36664(19) 0.12433(15) 0.13892(16)
F11A F -0.4089(2) 0.08698(17) -0.03132(16)
F12A F -0.2609(2) 0.22781(15) 0.06822(17)
O4A O -0.1544(2) 0.05837(16) 0.00318(17)
O5A O 0.5619(2) 0.48504(16) 0.66029(19)
O5A_2 O -0.4381(2) -0.51496(16) -0.33971(19)
N1A N -0.3191(3) -0.5296(2) -0.2866(2)
C11A C -0.2986(4) -0.6371(3) -0.2684(3)
C12A C -0.3608(4) -0.6575(3) -0.1843(3)
H3A H -0.4604 -0.6712 -0.2169
H4A H -0.3348 -0.7192 -0.1573
H5A H -0.3272 -0.5952 -0.1246
C13A C -0.3701(3) -0.7221(2) -0.3707(3)
H6A H -0.4691 -0.7308 -0.3916
H7A H -0.3416 -0.7012 -0.4283
H8A H -0.3459 -0.7893 -0.3583
C14A C -0.1404(3) -0.6143(2) -0.2246(3)
C15A C -0.0782(4) -0.6719(3) -0.1385(3)
H9A H 0.0214 -0.6528 -0.1162
H10A H -0.1046 -0.6516 -0.0764
H11A H -0.1112 -0.7485 -0.1671
C16A C -0.0810(3) -0.6281(3) -0.3140(3)
H12A H 0.0188 -0.6127 -0.2818
H13A H -0.1155 -0.7012 -0.3562
H14A H -0.1084 -0.5791 -0.3610
N2A N -0.1046(3) -0.4969(2) -0.1792(2)
O6A O 0.0151(2) -0.44680(17) -0.11702(19)
C17A C -0.2106(3) -0.4517(2) -0.2217(3)
C18A C -0.2076(3) -0.3410(2) -0.1983(3)
C19A C -0.0993(3) -0.2579(2) -0.1276(3)
H15A H -0.0119 -0.2668 -0.0868
N3A N -0.1351(3) -0.1656(2) -0.1252(2)
N4A N -0.2675(3) -0.18891(19) -0.1946(2)
C20A C -0.3398(3) -0.1023(2) -0.2100(3)
H16A H -0.3801 -0.0916 -0.1536
H17A H -0.2726 -0.0360 -0.1999
C21A C -0.4501(3) -0.1214(3) -0.3173(3)
H18A H -0.4116 -0.1332 -0.3746
H19A H -0.5203 -0.1858 -0.3273
C22A C -0.5155(4) -0.0256(3) -0.3257(3)
H20A H -0.4461 0.0368 -0.3216
H21A H -0.5443 -0.0099 -0.2633
C23A C -0.6381(4) -0.0420(3) -0.4284(3)
H22A H -0.6749 0.0217 -0.4284
H23A H -0.6101 -0.0556 -0.4906
H24A H -0.7084 -0.1027 -0.4323
C24A C -0.3136(3) -0.2923(2) -0.2388(3)
H25A H -0.4025 -0.3262 -0.2888
C25 C 0.3707(4) 0.2799(3) -0.0373(3)
F13 F 0.2383(2) 0.26455(15) -0.04902(17)
F14 F 0.3757(2) 0.22461(15) -0.12753(18)
F15 F 0.4296(2) 0.23332(15) 0.04222(18)
C26 C 0.4376(3) 0.3951(3) -0.0161(3)
C27 C 0.3686(4) 0.4619(3) -0.0700(3)
H26 H 0.2771 0.4353 -0.1185
C28 C 0.5698(4) 0.4337(3) 0.0547(3)
H27 H 0.6181 0.3883 0.0928
C25A C 0.6293(4) 0.7201(3) 0.0373(3)
F13A F 0.7617(2) 0.73545(15) 0.04902(17)
F14A F 0.6243(2) 0.77539(15) 0.12753(18)
F15A F 0.5704(2) 0.76668(15) -0.04222(18)
C26A C 0.5624(3) 0.6049(3) 0.0161(3)
C27A C 0.6314(4) 0.5381(3) 0.0700(3)
H26A H 0.7229 0.5647 0.1185
C28A C 0.4302(4) 0.5663(3) -0.0547(3)
H27A H 0.3819 0.6117 -0.0928
loop_
_geom_bond_atom_site_label_1
_geom_bond_atom_site_label_2
_geom_bond_site_symmetry_1
_geom_bond_site_symmetry_2
Cu1 O1 1_555 1_555
O1 C2 1_555 1_555
C1 F1 1_555 1_555
F2 C1 1_555 1_555
F3 C1 1_555 1_555
C2 C1 1_555 1_555
C3 C2 1_555 1_555
H1 C3 1_555 1_555
C4 C3 1_555 1_555
C5 C4 1_555 1_555
F4 C5 1_555 1_555
F5 C5 1_555 1_555
F6 C5 1_555 1_555
O2 Cu1 1_555 1_555
Cu2 O3 1_555 1_555
O3 C7 1_555 1_555
C6 F7 1_555 1_555
F8 C6 1_555 1_555
F9 C6 1_555 1_555
C7 C6 1_555 1_555
C8 C7 1_555 1_555
H2 C8 1_555 1_555
C9 C8 1_555 1_555
C10 C9 1_555 1_555
F10 C10 1_555 1_555
F11 C10 1_555 1_555
F12 C10 1_555 1_555
O4 Cu2 1_555 1_555
O5 Cu1 1_555 1_555
N1 O5 1_555 1_555
C11 N1 1_555 1_555
C12 C11 1_555 1_555
H3 C12 1_555 1_555
H4 C12 1_555 1_555
H5 C12 1_555 1_555
C13 C11 1_555 1_555
H6 C13 1_555 1_555
H7 C13 1_555 1_555
H8 C13 1_555 1_555
C14 C11 1_555 1_555
C15 C14 1_555 1_555
H9 C15 1_555 1_555
H10 C15 1_555 1_555
H11 C15 1_555 1_555
C16 C14 1_555 1_555
H12 C16 1_555 1_555
H13 C16 1_555 1_555
H14 C16 1_555 1_555
N2 C14 1_555 1_555
O6 N2 1_555 1_555
C17 N1 1_555 1_555
C18 C17 1_555 1_555
C19 C18 1_555 1_555
H15 C19 1_555 1_555
N3 Cu2 1_555 1_555
N4 N3 1_555 1_555
C20 N4 1_555 1_555
H16 C20 1_555 1_555
H17 C20 1_555 1_555
C21 C20 1_555 1_555
H18 C21 1_555 1_555
H19 C21 1_555 1_555
C22 C21 1_555 1_555
H20 C22 1_555 1_555
H21 C22 1_555 1_555
C23 C22 1_555 1_555
H22 C23 1_555 1_555
H23 C23 1_555 1_555
H24 C23 1_555 1_555
C24 C18 1_555 1_555
H25 C24 1_555 1_555
C25 F13 1_555 1_555
F14 C25 1_555 1_555
F15 C25 1_555 1_555
C26 C25 1_555 1_555
C27 C26 1_555 1_555
H26 C27 1_555 1_555
C28 C26 1_555 1_555
H27 C28 1_555 1_555
Cu1_2 O5A_2 1_555 1_555
O1A Cu1 1_555 1_555
C1A F1A 1_555 1_555
F2A C1A 1_555 1_555
F3A C1A 1_555 1_555
C2A O1A 1_555 1_555
C3A C2A 1_555 1_555
H1A C3A 1_555 1_555
C4A C3A 1_555 1_555
C5A C4A 1_555 1_555
F4A C5A 1_555 1_555
F5A C5A 1_555 1_555
F6A C5A 1_555 1_555
O2A Cu1 1_555 1_555
O3A Cu2 1_555 1_555
C6A F7A 1_555 1_555
F8A C6A 1_555 1_555
F9A C6A 1_555 1_555
C7A O3A 1_555 1_555
C8A C7A 1_555 1_555
H2A C8A 1_555 1_555
C9A C8A 1_555 1_555
C10A C9A 1_555 1_555
F10A C10A 1_555 1_555
F11A C10A 1_555 1_555
F12A C10A 1_555 1_555
O4A Cu2 1_555 1_555
O5A Cu1 1_555 1_555
O5A_2 N1A 1_555 1_555
N1A C11A 1_555 1_555
C11A C12A 1_555 1_555
C12A H3A 1_555 1_555
H4A C12A 1_555 1_555
H5A C12A 1_555 1_555
C13A C11A 1_555 1_555
H6A C13A 1_555 1_555
H7A C13A 1_555 1_555
H8A C13A 1_555 1_555
C14A C11A 1_555 1_555
C15A C14A 1_555 1_555
H9A C15A 1_555 1_555
H10A C15A 1_555 1_555
H11A C15A 1_555 1_555
C16A C14A 1_555 1_555
H12A C16A 1_555 1_555
H13A C16A 1_555 1_555
H14A C16A 1_555 1_555
N2A C14A 1_555 1_555
O6A N2A 1_555 1_555
C17A N1A 1_555 1_555
C18A C17A 1_555 1_555
C19A C18A 1_555 1_555
H15A C19A 1_555 1_555
N3A Cu2 1_555 1_555
N4A N3A 1_555 1_555
C20A N4A 1_555 1_555
H16A C20A 1_555 1_555
H17A C20A 1_555 1_555
C21A C20A 1_555 1_555
H18A C21A 1_555 1_555
H19A C21A 1_555 1_555
C22A C21A 1_555 1_555
H20A C22A 1_555 1_555
H21A C22A 1_555 1_555
C23A C22A 1_555 1_555
H22A C23A 1_555 1_555
H23A C23A 1_555 1_555
H24A C23A 1_555 1_555
C24A C18A 1_555 1_555
H25A C24A 1_555 1_555
C25A F13A 1_555 1_555
F14A C25A 1_555 1_555
F15A C25A 1_555 1_555
C26A C25A 1_555 1_555
C27A C28 1_555 1_555
H26A C27A 1_555 1_555
C28A C27 1_555 1_555
H27A C28A 1_555 1_555
C4 O2 1_555 1_555
C9 O4 1_555 1_555
N2 C17 1_555 1_555
C19 N3 1_555 1_555
N4 C24 1_555 1_555
C1A C2A 1_555 1_555
C4A O2A 1_555 1_555
C6A C7A 1_555 1_555
C9A O4A 1_555 1_555
N2A C17A 1_555 1_555
C19A N3A 1_555 1_555
N4A C24A 1_555 1_555
C26A C27A 1_555 1_555
C26A C28A 1_555 1_555

#END
