
#######################################################################
#
#                 Cambridge Crystallographic Data Centre
#                                CCDC 
#
#######################################################################
#
# If this CIF has been generated from an entry in the Cambridge 
# Structural Database, then it will include bibliographic, chemical, 
# crystal, experimental, refinement or atomic coordinate data resulting 
# from the CCDC's data processing and validation procedures.
#
#######################################################################

data_UCEXEG
_symmetry_cell_setting           triclinic
_symmetry_space_group_name_H-M   'P -1'
_symmetry_Int_Tables_number      2
_space_group_name_Hall           '-P 1'
loop_
_symmetry_equiv_pos_site_id
_symmetry_equiv_pos_as_xyz
1 x,y,z
2 -x,-y,-z
_cell_length_a                   10.7383(16)
_cell_length_b                   11.2808(16)
_cell_length_c                   26.138(4)
_cell_angle_alpha                85.111(3)
_cell_angle_beta                 88.148(2)
_cell_angle_gamma                62.415(2)
_cell_volume                     2796.04
loop_
_atom_site_label
_atom_site_type_symbol
_atom_site_fract_x
_atom_site_fract_y
_atom_site_fract_z
O24 O 0.9895(3) 0.5733(4) 0.34741(17)
C43 C 0.9863(5) 0.5172(5) 0.3897(2)
H34 H 1.0715 0.4666 0.4069
C44 C 0.7382(5) 0.5962(7) 0.3845(3)
H35 H 0.7529 0.6353 0.3523
H36 H 0.6724 0.6658 0.4045
H37 H 0.7016 0.5355 0.3784
C45 C 0.8821(7) 0.4514(7) 0.4626(3)
H38 H 0.9776 0.4092 0.4747
H39 H 0.8520 0.3843 0.4596
H40 H 0.8230 0.5136 0.4864
N3 N 0.8725(4) 0.5226(4) 0.4126(2)
O25 O 0.8233(7) 1.0336(7) 0.2033(3)
O26 O 0.8022(9) 0.9397(14) 0.2792(6)
H1 H 0.7618 0.9830 0.3036
C46 C 1.0404(10) 0.8717(14) 0.3158(6)
H41 H 1.1221 0.8775 0.3026
H42 H 1.0647 0.7797 0.3259
H43 H 1.0060 0.9238 0.3450
C47 C 0.9353(5) 0.9216(5) 0.2774(2)
H44 H 0.9268 1.0089 0.2655
H45 H 0.9777 0.8650 0.2494
Dy1 Dy 0.380183(14) 0.535776(13) 0.060334(6)
Dy2 Dy 0.411490(14) 1.117180(14) 0.399630(6)
Dy3 Dy 0.343750(14) 0.346446(14) 0.241848(6)
O1 O 0.4251(2) 0.7213(2) 0.03811(11)
O2 O 0.1509(2) 0.7116(2) 0.04076(11)
O3 O 0.5453(2) 0.6782(2) -0.03521(11)
O4 O 0.2434(2) 0.4554(2) 0.10049(10)
O5 O 0.2735(2) 0.3061(2) 0.16536(10)
O6 O -0.3697(2) 0.4502(2) 0.02968(10)
O7 O -0.4042(2) 0.4090(2) 0.11091(10)
O8 O 0.3344(2) 0.6444(2) 0.13418(10)
O9 O 0.3940(2) 0.5102(2) 0.20565(10)
O10 O 0.4359(3) 1.1159(2) 0.25497(11)
O11 O 0.4642(2) 0.9978(2) 0.32980(10)
O12 O 0.5636(3) 0.2433(3) 0.19416(12)
O13 O 0.2559(3) 0.4897(2) 0.31368(12)
O14 O 0.1585(2) 1.3028(2) 0.27430(11)
O15 O 0.2067(2) 1.2354(2) 0.35559(10)
O16 O -0.4871(2) 1.2929(2) 0.30491(11)
O17 O -0.3948(2) 1.1442(2) 0.37034(11)
O18 O 0.3556(2) 1.3475(2) 0.41598(10)
O19 O 0.4945(2) 1.1895(2) 0.47208(10)
O20 O 0.3027(2) 0.9681(2) 0.42068(11)
O21 O 0.2557(2) 1.1280(2) 0.47209(10)
O22 O 0.5847(2) 0.9131(2) 0.44097(10)
O23 O 0.1206(3) 0.5433(3) 0.21706(12)
C1 C 0.4898(3) 0.7463(3) 0.00121(16)
C2 C 0.4951(3) 0.8790(3) 0.00109(15)
C3 C 0.4718(3) 0.9451(3) 0.04502(16)
H2 H 0.4543 0.9074 0.0757
C4 C 0.5258(3) 0.9327(3) -0.04438(16)
H3 H 0.5447 0.8875 -0.0741
C5 C 0.2082(3) 0.3772(3) 0.12711(14)
C6 C 0.0752(3) 0.3784(3) 0.11155(14)
C7 C 0.0019(3) 0.4564(3) 0.06999(15)
H4 H 0.0378 0.5056 0.0500
C8 C -0.1282(3) 0.4646(4) 0.05651(16)
H5 H -0.1759 0.5153 0.0270
C9 C -0.1834(3) 0.3961(3) 0.08781(14)
C10 C -0.1088(3) 0.3143(3) 0.13021(16)
H6 H -0.1452 0.2661 0.1505
C11 C 0.0215(3) 0.3048(3) 0.14217(15)
H7 H 0.0725 0.2497 0.1704
C12 C -0.3234(3) 0.4142(3) 0.07570(14)
C13 C 0.3689(3) 0.6176(3) 0.18055(15)
C14 C 0.3835(3) 0.7228(3) 0.20753(14)
C15 C 0.3633(4) 0.8425(3) 0.18044(15)
H8 H 0.3380 0.8584 0.1459
C16 C 0.3811(4) 0.9376(3) 0.20522(15)
H9 H 0.3668 1.0177 0.1872
C17 C 0.4199(3) 0.9144(3) 0.25646(14)
C18 C 0.4366(4) 0.7961(3) 0.28351(15)
H10 H 0.4588 0.7810 0.3183
C19 C 0.4202(4) 0.7021(3) 0.25870(15)
H11 H 0.4342 0.6223 0.2769
C20 C 0.4407(3) 1.0179(3) 0.28255(15)
C21 C 0.1291(3) 1.2651(3) 0.31608(15)
C22 C -0.0071(3) 1.2593(3) 0.32206(15)
C23 C -0.1012(3) 1.3001(4) 0.28081(16)
H12 H -0.0790 1.3310 0.2495
C24 C -0.2268(3) 1.2949(4) 0.28624(16)
H13 H -0.2914 1.3287 0.2592
C25 C -0.2587(3) 1.2404(3) 0.33103(14)
C26 C -0.1658(4) 1.2006(4) 0.37244(17)
H14 H -0.1867 1.1674 0.4035
C27 C -0.0415(4) 1.2106(4) 0.36722(16)
H15 H 0.0199 1.1835 0.3951
C28 C -0.3895(3) 1.2251(3) 0.33547(14)
C29 C 0.2321(3) 1.0360(3) 0.45630(15)
C30 C 0.1142(3) 1.0154(3) 0.48064(15)
C31 C 0.0796(4) 0.9214(4) 0.46177(17)
H16 H 0.1340 0.8680 0.4363
C32 C 0.0335(3) 1.0916(4) 0.51934(16)
H17 H 0.0568 1.1526 0.5327
C33 C 0.4390(3) 1.3093(3) 0.45395(14)
C34 C 0.4709(3) 1.4080(3) 0.47715(14)
C35 C 0.4143(3) 1.5416(3) 0.45657(15)
H18 H 0.3568 1.5697 0.4276
C36 C 0.5558(4) 1.3689(3) 0.52055(15)
H19 H 0.5933 1.2805 0.5345
C37 C 0.0812(4) 0.8201(4) 0.05902(17)
H20 H 0.1242 0.8428 0.0841
C38 C -0.1292(7) 1.0320(5) 0.0690(3)
H21 H -0.0704 1.0429 0.0931
H22 H -0.2088 1.0313 0.0865
H23 H -0.1609 1.1051 0.0428
C39 C -0.1258(5) 0.8752(5) 0.0072(2)
H24 H -0.0628 0.7914 -0.0061
H25 H -0.1588 0.9448 -0.0203
H26 H -0.2043 0.8681 0.0230
C40 C -0.0002(5) 0.5707(5) 0.2248(2)
H27 H -0.0211 0.5293 0.2537
C41 C -0.0808(7) 0.7329(6) 0.1510(3)
H28 H 0.0175 0.7087 0.1496
H29 H -0.1341 0.8272 0.1549
H30 H -0.1087 0.7124 0.1197
C42 C -0.2479(6) 0.6779(8) 0.2073(4)
H31 H -0.2437 0.6209 0.2373
H32 H -0.2868 0.6560 0.1791
H33 H -0.3062 0.7699 0.2139
N1 N -0.0509(4) 0.9081(4) 0.04591(17)
N2 N -0.1064(4) 0.6577(4) 0.19424(18)
C4A C 0.4742(3) 1.0673(3) 0.04438(16)
C2A C 0.5049(3) 1.1210(3) -0.00109(15)
C1A C 0.5102(3) 1.2537(3) -0.00121(16)
O1A O 0.5749(2) 1.2787(2) -0.03811(11)
O3A O 0.4547(2) 1.3218(2) 0.03521(11)
C3A C 0.5282(3) 1.0549(3) -0.04502(16)
H2A H 0.5457 1.0926 -0.0757
H3A H 0.4553 1.1125 0.0741
C36A C 0.4442(4) 1.6311(3) 0.47945(15)
C34A C 0.5291(3) 1.5920(3) 0.52285(14)
C33A C 0.5610(3) 1.6907(3) 0.54605(14)
O18A O 0.6444(2) 1.6525(2) 0.58402(10)
O19A O 0.5055(2) 1.8105(2) 0.52792(10)
C35A C 0.5857(3) 1.4584(3) 0.54343(15)
H18A H 0.6432 1.4303 0.5724
H19A H 0.4067 1.7195 0.4655
C32A C -0.0335(3) 0.9084(4) 0.48066(16)
C30A C -0.1142(3) 0.9846(3) 0.51936(15)
C29A C -0.2321(3) 0.9640(3) 0.54370(15)
O20A O -0.3027(2) 1.0319(2) 0.57932(11)
O21A O -0.2557(2) 0.8720(2) 0.52791(10)
C31A C -0.0796(4) 1.0786(4) 0.53823(17)
H16A H -0.1340 1.1320 0.5637
H17A H -0.0568 0.8474 0.4673
O4_2 O 1.2434(2) 0.4554(2) 0.10049(10)
O5_2 O 1.2735(2) 0.3061(2) 0.16536(10)
O6_2 O 0.6303(2) 0.4502(2) 0.02968(10)
O7_2 O 0.5958(2) 0.4090(2) 0.11091(10)
C5_2 C 1.2082(3) 0.3772(3) 0.12711(14)
C6_2 C 1.0752(3) 0.3784(3) 0.11155(14)
C7_2 C 1.0019(3) 0.4564(3) 0.06999(15)
H4_2 H 1.0378 0.5056 0.0500
C8_2 C 0.8718(3) 0.4646(4) 0.05651(16)
H5_2 H 0.8241 0.5153 0.0270
C9_2 C 0.8166(3) 0.3961(3) 0.08781(14)
C10_2 C 0.8912(3) 0.3143(3) 0.13021(16)
H6_2 H 0.8548 0.2661 0.1505
C11_2 C 1.0215(3) 0.3048(3) 0.14217(15)
H7_2 H 1.0725 0.2497 0.1704
C12_2 C 0.6766(3) 0.4142(3) 0.07570(14)
Dy1A Dy 0.619817(14) 1.464224(13) -0.060334(6)
Dy3_2 Dy 1.343750(14) 0.346446(14) 0.241848(6)
O14_2 O 1.1585(2) 1.3028(2) 0.27430(11)
O15_2 O 1.2067(2) 1.2354(2) 0.35559(10)
O16_2 O 0.5129(2) 1.2929(2) 0.30491(11)
O17_2 O 0.6052(2) 1.1442(2) 0.37034(11)
C21_2 C 1.1291(3) 1.2651(3) 0.31608(15)
C22_2 C 0.9929(3) 1.2593(3) 0.32206(15)
C23_2 C 0.8988(3) 1.3001(4) 0.28081(16)
H12_2 H 0.9210 1.3310 0.2495
C24_2 C 0.7732(3) 1.2949(4) 0.28624(16)
H13_2 H 0.7086 1.3287 0.2592
C25_2 C 0.7413(3) 1.2404(3) 0.33103(14)
C26_2 C 0.8342(4) 1.2006(4) 0.37244(17)
H14_2 H 0.8133 1.1674 0.4035
C27_2 C 0.9585(4) 1.2106(4) 0.36722(16)
H15_2 H 1.0199 1.1835 0.3951
C28_2 C 0.6105(3) 1.2251(3) 0.33547(14)
O8_2 O 0.3344(2) -0.3556(2) 0.13418(10)
O9_2 O 0.3940(2) -0.4898(2) 0.20565(10)
O10_2 O 0.4359(3) 0.1159(2) 0.25497(11)
O11_2 O 0.4642(2) -0.0022(2) 0.32980(10)
C13_2 C 0.3689(3) -0.3824(3) 0.18055(15)
C14_2 C 0.3835(3) -0.2772(3) 0.20753(14)
C15_2 C 0.3633(4) -0.1575(3) 0.18044(15)
H8_2 H 0.3380 -0.1416 0.1459
C16_2 C 0.3811(4) -0.0624(3) 0.20522(15)
H9_2 H 0.3668 0.0177 0.1872
C17_2 C 0.4199(3) -0.0856(3) 0.25646(14)
C18_2 C 0.4366(4) -0.2039(3) 0.28351(15)
H10_2 H 0.4588 -0.2190 0.3183
C19_2 C 0.4202(4) -0.2979(3) 0.25870(15)
H11_2 H 0.4342 -0.3777 0.2769
C20_2 C 0.4407(3) 0.0179(3) 0.28255(15)
O2A O 0.8491(2) 1.2884(2) -0.04076(11)
C37A C 0.9188(4) 1.1799(4) -0.05902(17)
H20A H 0.8758 1.1572 -0.0841
C38A C 1.1292(7) 0.9680(5) -0.0690(3)
H21A H 1.0704 0.9571 -0.0931
H22A H 1.2088 0.9687 -0.0865
H23A H 1.1609 0.8949 -0.0428
C39A C 1.1258(5) 1.1248(5) -0.0072(2)
H24A H 1.0628 1.2086 0.0061
H25A H 1.1588 1.0552 0.0203
H26A H 1.2043 1.1319 -0.0230
N1A N 1.0509(4) 1.0919(4) -0.04591(17)
O12_2 O 1.5636(3) 0.2433(3) 0.19416(12)
O13_2 O 1.2559(3) 0.4897(2) 0.31368(12)
O23_2 O 1.1206(3) 0.5433(3) 0.21706(12)
C40_2 C 0.9998(5) 0.5707(5) 0.2248(2)
H27_2 H 0.9789 0.5293 0.2537
C41_2 C 0.9192(7) 0.7329(6) 0.1510(3)
H28_2 H 1.0175 0.7087 0.1496
H29_2 H 0.8659 0.8272 0.1549
H30_2 H 0.8913 0.7124 0.1197
C42_2 C 0.7521(6) 0.6779(8) 0.2073(4)
H31_2 H 0.7563 0.6209 0.2373
H32_2 H 0.7132 0.6560 0.1791
H33_2 H 0.6938 0.7699 0.2139
N2_2 N 0.8936(4) 0.6577(4) 0.19424(18)
Dy2_2 Dy 0.411490(14) 0.117180(14) 0.399630(6)
O22_2 O 0.5847(2) -0.0869(2) 0.44097(10)
O3A_2 O 0.4547(2) 0.3218(2) 0.03521(11)
O6A O 0.3697(2) 0.5498(2) -0.02968(10)
O16_3 O 0.5129(2) 0.2929(2) 0.30491(11)
O14_3 O 0.1585(2) 0.3028(2) 0.27430(11)
Dy1A_2 Dy 0.619817(14) 0.464224(13) -0.060334(6)
Dy1_2 Dy -0.619817(14) 0.535776(13) 0.060334(6)
Dy1A_3 Dy -0.380183(14) 0.464224(13) -0.060334(6)
Dy3_3 Dy 0.343750(14) 1.346446(14) 0.241848(6)
Dy3_4 Dy -0.656250(14) 1.346446(14) 0.241848(6)
Dy2_3 Dy -0.588510(14) 1.117180(14) 0.399630(6)
Dy1_3 Dy 0.380183(14) 1.535776(13) 0.060334(6)
Dy2A Dy 0.588510(14) 1.882820(14) 0.600370(6)
Dy2A_2 Dy -0.411490(14) 0.882820(14) 0.600370(6)
Dy1_4 Dy 1.380183(14) 0.535776(13) 0.060334(6)
O4A O 0.7566(2) 1.5446(2) -0.10049(10)
O8A O 0.6656(2) 1.3556(2) -0.13418(10)
O3_2 O 0.5453(2) 1.6782(2) -0.03521(11)
O6A_2 O 0.3697(2) 1.5498(2) -0.02968(10)
O6_3 O 0.6303(2) 1.4502(2) 0.02968(10)
O7A O 0.4042(2) 1.5910(2) -0.11091(10)
O9_3 O 1.3940(2) 0.5102(2) 0.20565(10)
O10_3 O 1.4359(3) 0.1159(2) 0.25497(11)
O16_4 O 1.5129(2) 0.2929(2) 0.30491(11)
O14_4 O 1.1585(2) 0.3028(2) 0.27430(11)
Dy3_5 Dy 1.343750(14) 1.346446(14) 0.241848(6)
Dy2_4 Dy 1.411490(14) 1.117180(14) 0.399630(6)
Dy1_5 Dy 0.380183(14) -0.464224(13) 0.060334(6)
Dy3_6 Dy 0.343750(14) -0.653554(14) 0.241848(6)
O15_3 O 0.2067(2) 0.2354(2) 0.35559(10)
O18_2 O 0.3556(2) 0.3475(2) 0.41598(10)
O19_2 O 0.4945(2) 0.1895(2) 0.47208(10)
O20_2 O 0.3027(2) -0.0319(2) 0.42068(11)
O21_2 O 0.2557(2) 0.1280(2) 0.47209(10)
O17_3 O 0.6052(2) 0.1442(2) 0.37034(11)
loop_
_geom_bond_atom_site_label_1
_geom_bond_atom_site_label_2
_geom_bond_site_symmetry_1
_geom_bond_site_symmetry_2
Dy1 O1 1_555 1_555
Dy2 O11 1_555 1_555
Dy3 O5 1_555 1_555
O1 C1 1_555 1_555
O2 Dy1 1_555 1_555
O3 C1 1_555 1_555
O4 Dy1 1_555 1_555
O5 C5 1_555 1_555
O6 C12 1_555 1_555
O7 C12 1_555 1_555
O8 Dy1 1_555 1_555
O9 Dy3 1_555 1_555
O10 C20 1_555 1_555
O11 C20 1_555 1_555
O12 Dy3 1_555 1_555
O13 Dy3 1_555 1_555
O14 C21 1_555 1_555
O15 Dy2 1_555 1_555
O16 C28 1_555 1_555
O17 C28 1_555 1_555
O18 Dy2 1_555 1_555
O19 Dy2 1_555 1_555
O20 Dy2 1_555 1_555
O21 Dy2 1_555 1_555
O22 Dy2 1_555 1_555
O23 Dy3 1_555 1_555
O24 C43 1_555 1_555
O26 H1 1_555 1_555
C1 C2 1_555 1_555
C2 C3 1_555 1_555
C3 H2 1_555 1_555
C4 C2 1_555 1_555
H3 C4 1_555 1_555
C5 O4 1_555 1_555
C6 C5 1_555 1_555
C7 C6 1_555 1_555
H4 C7 1_555 1_555
C8 C7 1_555 1_555
H5 C8 1_555 1_555
C9 C8 1_555 1_555
C10 C9 1_555 1_555
H6 C10 1_555 1_555
C11 C6 1_555 1_555
H7 C11 1_555 1_555
C12 C9 1_555 1_555
C13 O8 1_555 1_555
C14 C13 1_555 1_555
C15 C14 1_555 1_555
H8 C15 1_555 1_555
C16 C15 1_555 1_555
H9 C16 1_555 1_555
C17 C16 1_555 1_555
C18 C17 1_555 1_555
H10 C18 1_555 1_555
C19 C14 1_555 1_555
H11 C19 1_555 1_555
C20 C17 1_555 1_555
C21 O15 1_555 1_555
C22 C21 1_555 1_555
C23 C22 1_555 1_555
H12 C23 1_555 1_555
C24 C23 1_555 1_555
H13 C24 1_555 1_555
C25 C24 1_555 1_555
C26 C25 1_555 1_555
H14 C26 1_555 1_555
C27 C22 1_555 1_555
H15 C27 1_555 1_555
C28 C25 1_555 1_555
C29 O20 1_555 1_555
C30 C29 1_555 1_555
C31 C30 1_555 1_555
H16 C31 1_555 1_555
C32 C30 1_555 1_555
H17 C32 1_555 1_555
C33 O18 1_555 1_555
C34 C33 1_555 1_555
C35 C34 1_555 1_555
H18 C35 1_555 1_555
C36 C34 1_555 1_555
H19 C36 1_555 1_555
C37 O2 1_555 1_555
H20 C37 1_555 1_555
C38 H21 1_555 1_555
H22 C38 1_555 1_555
H23 C38 1_555 1_555
C39 H24 1_555 1_555
H25 C39 1_555 1_555
H26 C39 1_555 1_555
C40 O23 1_555 1_555
H27 C40 1_555 1_555
C41 H28 1_555 1_555
H29 C41 1_555 1_555
H30 C41 1_555 1_555
C42 H31 1_555 1_555
H32 C42 1_555 1_555
H33 C42 1_555 1_555
C43 H34 1_555 1_555
C44 H35 1_555 1_555
H36 C44 1_555 1_555
H37 C44 1_555 1_555
C45 H38 1_555 1_555
H39 C45 1_555 1_555
H40 C45 1_555 1_555
C46 H41 1_555 1_555
H42 C46 1_555 1_555
H43 C46 1_555 1_555
C47 O26 1_555 1_555
H44 C47 1_555 1_555
H45 C47 1_555 1_555
N1 C37 1_555 1_555
N2 C40 1_555 1_555
N3 C43 1_555 1_555
C4A C3 1_555 1_555
C2A C4A 1_555 1_555
C1A C2A 1_555 1_555
O1A C1A 1_555 1_555
O3A C1A 1_555 1_555
C3A C4 1_555 1_555
H2A C3A 1_555 1_555
H3A C4A 1_555 1_555
C36A C35 1_555 1_555
C34A C36A 1_555 1_555
C33A C34A 1_555 1_555
O18A C33A 1_555 1_555
O19A C33A 1_555 1_555
C35A C36 1_555 1_555
H18A C35A 1_555 1_555
H19A C36A 1_555 1_555
C32A C31 1_555 1_555
C30A C32A 1_555 1_555
C29A C30A 1_555 1_555
O20A C29A 1_555 1_555
O21A C29A 1_555 1_555
C31A C32 1_555 1_555
H16A C31A 1_555 1_555
H17A C32A 1_555 1_555
O4_2 C5_2 1_555 1_555
O5_2 C5_2 1_555 1_555
O6_2 Dy1 1_555 1_555
O7_2 Dy1 1_555 1_555
C5_2 C6_2 1_555 1_555
C6_2 C7_2 1_555 1_555
C7_2 H4_2 1_555 1_555
C8_2 C7_2 1_555 1_555
H5_2 C8_2 1_555 1_555
C9_2 C8_2 1_555 1_555
C10_2 C9_2 1_555 1_555
H6_2 C10_2 1_555 1_555
C11_2 C6_2 1_555 1_555
H7_2 C11_2 1_555 1_555
C12_2 O6_2 1_555 1_555
Dy1A O1A 1_555 1_555
Dy3_2 O5_2 1_555 1_555
O14_2 C21_2 1_555 1_555
O15_2 C21_2 1_555 1_555
O16_2 C28_2 1_555 1_555
O17_2 Dy2 1_555 1_555
C21_2 C22_2 1_555 1_555
C22_2 C23_2 1_555 1_555
C23_2 H12_2 1_555 1_555
C24_2 C23_2 1_555 1_555
H13_2 C24_2 1_555 1_555
C25_2 C24_2 1_555 1_555
C26_2 C25_2 1_555 1_555
H14_2 C26_2 1_555 1_555
C27_2 C22_2 1_555 1_555
H15_2 C27_2 1_555 1_555
C28_2 O17_2 1_555 1_555
O8_2 C13_2 1_555 1_555
O9_2 C13_2 1_555 1_555
O10_2 Dy3 1_555 1_555
O11_2 C20_2 1_555 1_555
C13_2 C14_2 1_555 1_555
C14_2 C15_2 1_555 1_555
C15_2 H8_2 1_555 1_555
C16_2 C15_2 1_555 1_555
H9_2 C16_2 1_555 1_555
C17_2 C16_2 1_555 1_555
C18_2 C17_2 1_555 1_555
H10_2 C18_2 1_555 1_555
C19_2 C14_2 1_555 1_555
H11_2 C19_2 1_555 1_555
C20_2 O10_2 1_555 1_555
O2A Dy1A 1_555 1_555
C37A O2A 1_555 1_555
H20A C37A 1_555 1_555
C38A H21A 1_555 1_555
H22A C38A 1_555 1_555
H23A C38A 1_555 1_555
C39A H24A 1_555 1_555
H25A C39A 1_555 1_555
H26A C39A 1_555 1_555
N1A C37A 1_555 1_555
O12_2 Dy3_2 1_555 1_555
O13_2 Dy3_2 1_555 1_555
O23_2 Dy3_2 1_555 1_555
C40_2 O23_2 1_555 1_555
H27_2 C40_2 1_555 1_555
C41_2 H28_2 1_555 1_555
H29_2 C41_2 1_555 1_555
H30_2 C41_2 1_555 1_555
C42_2 H31_2 1_555 1_555
H32_2 C42_2 1_555 1_555
H33_2 C42_2 1_555 1_555
N2_2 C40_2 1_555 1_555
Dy2_2 O11_2 1_555 1_555
O22_2 Dy2_2 1_555 1_555
O3A_2 Dy1 1_555 1_555
O6A Dy1 1_555 1_555
O16_3 Dy3 1_555 1_555
O14_3 Dy3 1_555 1_555
Dy1A_2 O3 1_555 1_555
Dy1_2 O6 1_555 1_555
Dy1A_3 O6 1_555 1_555
Dy3_3 O10 1_555 1_555
Dy3_4 O16 1_555 1_555
Dy2_3 O17 1_555 1_555
Dy1_3 O3A 1_555 1_555
Dy2A O18A 1_555 1_555
Dy2A_2 O20A 1_555 1_555
Dy1_4 O4_2 1_555 1_555
O4A Dy1A 1_555 1_555
O8A Dy1A 1_555 1_555
O3_2 Dy1A 1_555 1_555
O6A_2 Dy1A 1_555 1_555
O6_3 Dy1A 1_555 1_555
O7A Dy1A 1_555 1_555
O9_3 Dy3_2 1_555 1_555
O10_3 Dy3_2 1_555 1_555
O16_4 Dy3_2 1_555 1_555
O14_4 Dy3_2 1_555 1_555
Dy3_5 O14_2 1_555 1_555
Dy2_4 O15_2 1_555 1_555
Dy1_5 O8_2 1_555 1_555
Dy3_6 O9_2 1_555 1_555
O15_3 Dy2_2 1_555 1_555
O18_2 Dy2_2 1_555 1_555
O19_2 Dy2_2 1_555 1_555
O20_2 Dy2_2 1_555 1_555
O21_2 Dy2_2 1_555 1_555
O17_3 Dy2_2 1_555 1_555
O7 Dy1_2 1_555 1_555
O9 C13 1_555 1_555
O14 Dy3_3 1_555 1_555
O19 C33 1_555 1_555
O21 C29 1_555 1_555
C10 C11 1_555 1_555
C18 C19 1_555 1_555
C26 C27 1_555 1_555
C38 N1 1_555 1_555
C39 N1 1_555 1_555
C41 N2 1_555 1_555
C42 N2 1_555 1_555
C44 N3 1_555 1_555
C45 N3 1_555 1_555
C46 C47 1_555 1_555
C2A C3A 1_555 1_555
C34A C35A 1_555 1_555
O19A Dy2A 1_555 1_555
C30A C31A 1_555 1_555
O21A Dy2A_2 1_555 1_555
O6_2 Dy1A_2 1_555 1_555
O7_2 C12_2 1_555 1_555
C9_2 C12_2 1_555 1_555
C10_2 C11_2 1_555 1_555
O16_2 Dy3_3 1_555 1_555
C25_2 C28_2 1_555 1_555
C26_2 C27_2 1_555 1_555
C17_2 C20_2 1_555 1_555
C18_2 C19_2 1_555 1_555
C38A N1A 1_555 1_555
C39A N1A 1_555 1_555
C41_2 N2_2 1_555 1_555
C42_2 N2_2 1_555 1_555
O6A Dy1A_2 1_555 1_555
Dy1_3 O6_3 1_555 1_555
Dy1_3 O6A_2 1_555 1_555

#END
