
#######################################################################
#
#                 Cambridge Crystallographic Data Centre
#                                CCDC 
#
#######################################################################
#
# If this CIF has been generated from an entry in the Cambridge 
# Structural Database, then it will include bibliographic, chemical, 
# crystal, experimental, refinement or atomic coordinate data resulting 
# from the CCDC's data processing and validation procedures.
#
#######################################################################

data_UCEXAC
_symmetry_cell_setting           triclinic
_symmetry_space_group_name_H-M   'P -1'
_symmetry_Int_Tables_number      2
_space_group_name_Hall           '-P 1'
loop_
_symmetry_equiv_pos_site_id
_symmetry_equiv_pos_as_xyz
1 x,y,z
2 -x,-y,-z
_cell_length_a                   10.7622(9)
_cell_length_b                   11.3038(10)
_cell_length_c                   26.224(2)
_cell_angle_alpha                85.086(2)
_cell_angle_beta                 88.092(2)
_cell_angle_gamma                62.225(2)
_cell_volume                     2812.23
loop_
_atom_site_label
_atom_site_type_symbol
_atom_site_fract_x
_atom_site_fract_y
_atom_site_fract_z
O1 O 0.5750(13) 0.7799(11) 0.9616(4)
O2 O 0.4522(14) 0.8233(12) 1.0357(5)
O3 O 0.6649(13) 0.8563(12) 0.8651(4)
O4 O 0.6039(12) 0.9906(11) 0.7942(4)
O5 O 0.5630(13) 0.3865(11) 0.7450(4)
O6 O 0.5335(14) 0.5031(13) 0.6708(4)
O7 O 0.7564(12) 1.0479(12) 0.8992(4)
O8 O 0.7268(13) 1.1937(12) 0.8343(4)
O9 O 1.3703(11) 1.0492(10) 0.9700(4)
O10 O 1.4056(12) 1.0901(13) 0.8879(4)
O11 O 0.8499(13) 0.7837(13) 0.9583(5)
O12 O 0.4850(13) 0.2090(12) 0.6946(4)
O13 O 0.3896(13) 0.3586(13) 0.6292(5)
O14 O -0.1569(12) 0.1967(13) 0.7257(5)
O15 O -0.2053(12) 0.2643(12) 0.6444(4)
O16 O 0.8792(14) 0.9552(13) 0.7829(5)
O17 O 0.4365(13) 1.2568(13) 0.8055(5)
O18 O 0.7454(13) 1.0100(12) 0.6851(4)
O19 O 0.6445(12) 0.1523(11) 0.5851(4)
O20 O 0.5070(12) 0.3096(12) 0.5271(4)
O21 O 0.7465(12) 0.3727(13) 0.5288(4)
O22 O 0.6989(12) 0.5311(12) 0.5783(5)
O23 O 0.4154(12) 0.5885(11) 0.5580(4)
Tb1 Tb 0.58873(8) 0.38257(8) 0.60038(3)
C1 C 0.512(2) 0.753(2) 0.9987(9)
C2 C 0.5052(18) 0.6195(15) 0.9976(6)
C3 C 0.4730(19) 0.5662(17) 1.0439(6)
H1 H 0.4548 0.6121 1.0733
C4 C 0.5314(18) 0.5534(16) 0.9547(6)
H2 H 0.5523 0.5890 0.9243
C5 C 0.6291(18) 0.8821(18) 0.8182(6)
C6 C 0.612(2) 0.7775(17) 0.7919(6)
C7 C 0.5787(19) 0.8000(17) 0.7405(6)
H3 H 0.5675 0.8787 0.7223
C8 C 0.562(2) 0.7068(17) 0.7169(6)
H4 H 0.5389 0.7230 0.6823
C9 C 0.637(2) 0.6590(18) 0.8185(6)
H5 H 0.6669 0.6419 0.8525
C10 C 0.6176(19) 0.5639(17) 0.7939(6)
H6 H 0.6303 0.4848 0.8122
C11 C 0.5795(16) 0.5858(17) 0.7428(6)
C12 C 0.5575(16) 0.4821(16) 0.7186(7)
C13 C 0.7902(18) 1.1228(17) 0.8720(7)
C14 C 0.9233(17) 1.1228(16) 0.8875(5)
C15 C 0.9976(18) 1.0446(18) 0.9299(6)
H7 H 0.9614 0.9965 0.9501
C16 C 1.124(2) 1.0360(19) 0.9430(6)
H8 H 1.1713 0.9857 0.9727
C17 C 0.9789(19) 1.1923(18) 0.8571(6)
H9 H 0.9282 1.2467 0.8287
C18 C 1.1085(19) 1.1823(18) 0.8680(6)
H10 H 1.1454 1.2278 0.8466
C19 C 1.1831(16) 1.1045(17) 0.9110(6)
C20 C 1.330(2) 1.0816(17) 0.9227(7)
C21 C 0.3897(18) 0.2757(18) 0.6636(7)
C22 C 0.2571(17) 0.2584(17) 0.6679(6)
C23 C 0.165(2) 0.298(2) 0.6278(7)
H11 H 0.1839 0.3325 0.5969
C24 C 0.043(2) 0.285(2) 0.6330(7)
H12 H -0.0173 0.3089 0.6051
C25 C 0.2285(18) 0.2032(18) 0.7131(6)
H13 H 0.2925 0.1719 0.7401
C26 C 0.104(2) 0.1946(19) 0.7179(6)
H14 H 0.0856 0.1577 0.7484
Tb2 Tb 0.65614(8) 1.15364(8) 0.75811(3)
C27 C 0.0093(18) 0.2396(18) 0.6785(6)
C28 C -0.1259(18) 0.2336(16) 0.6834(7)
C29 C 0.5622(18) 0.1893(18) 0.5467(6)
C30 C 0.5287(18) 0.0902(17) 0.5226(6)
C31 C 0.444(2) 0.1316(17) 0.4795(7)
H15 H 0.4061 0.2202 0.4659
C32 C 0.5830(18) -0.0388(15) 0.5435(7)
H16 H 0.6381 -0.0652 0.5730
C33 C 0.769(2) 0.4648(19) 0.5434(7)
C34 C 0.8834(18) 0.4857(17) 0.5198(6)
C35 C 0.963(2) 0.4125(19) 0.4813(7)
H17 H 0.9395 0.3522 0.4675
C36 C 0.920(2) 0.5734(18) 0.5378(7)
H18 H 0.8673 0.6260 0.5636
C37 C 0.918(2) 0.678(2) 0.9395(8)
H19 H 0.8768 0.6556 0.9140
C38 C 1.126(3) 0.474(3) 0.9300(9)
H20 H 1.0661 0.4657 0.9057
H21 H 1.1583 0.3988 0.9552
H22 H 1.2051 0.4755 0.9126
C39 C 1.128(2) 0.623(2) 0.9934(8)
H23 H 1.0659 0.7058 1.0075
H24 H 1.2063 0.6303 0.9776
H25 H 1.1618 0.5517 1.0202
C40 C 1.001(3) 0.927(2) 0.7747(9)
H26 H 1.0196 0.9678 0.7452
C41 C 1.083(3) 0.784(3) 0.8465(11)
H27 H 0.9845 0.8107 0.8480
H28 H 1.1106 0.8113 0.8760
H29 H 1.1348 0.6882 0.8461
C42 C 1.250(3) 0.828(4) 0.7875(16)
H30 H 1.2393 0.8838 0.7565
H31 H 1.3116 0.7360 0.7814
H32 H 1.2894 0.8545 0.8138
N1 N 1.051(2) 0.5927(18) 0.9540(7)
N2 N 1.111(3) 0.842(2) 0.8040(8)
Tb3 Tb 0.62048(8) 0.96372(8) 0.93956(3)
O1A O 0.4250(13) 0.2201(11) 1.0384(4)
O2A O 0.5478(14) 0.1767(12) 0.9643(5)
O2A_2 O 0.5478(14) 1.1767(12) 0.9643(5)
O2_2 O 0.4522(14) -0.1767(12) 1.0357(5)
O3_2 O 0.6649(13) 1.8563(12) 0.8651(4)
O3A O 0.3351(13) 0.1437(12) 1.1349(4)
O4_2 O 0.6039(12) 1.9906(11) 0.7942(4)
O4_3 O 0.6039(12) -0.0094(11) 0.7942(4)
O5_2 O 0.5630(13) 1.3865(11) 0.7450(4)
O6_2 O 0.5335(14) 1.5031(13) 0.6708(4)
O6_3 O 1.5335(14) 0.5031(13) 0.6708(4)
O7_2 O -0.2436(12) 1.0479(12) 0.8992(4)
O7A O 0.2436(12) -0.0479(12) 1.1008(4)
O8_2 O -0.2732(13) 1.1937(12) 0.8343(4)
O8_3 O 0.7268(13) 0.1937(12) 0.8343(4)
O9_2 O 0.3703(11) 1.0492(10) 0.9700(4)
O9A O 0.6297(11) 0.9508(10) 1.0300(4)
O9_3 O 0.3703(11) 0.0492(10) 0.9700(4)
O9A_2 O 0.6297(11) -0.0492(10) 1.0300(4)
O10_2 O 0.4056(12) 1.0901(13) 0.8879(4)
O10A O 0.5944(12) -0.0901(13) 1.1121(4)
O11A O 0.1501(13) 0.2163(13) 1.0417(5)
O12_2 O 1.4850(13) 0.2090(12) 0.6946(4)
O12_3 O 0.4850(13) 1.2090(12) 0.6946(4)
O13_2 O 1.3896(13) 0.3586(13) 0.6292(5)
O14_2 O 0.8431(12) 0.1967(13) 0.7257(5)
O14_3 O 0.8431(12) 1.1967(13) 0.7257(5)
O15_2 O 0.7947(12) 0.2643(12) 0.6444(4)
O15_3 O 1.7947(12) 0.2643(12) 0.6444(4)
O16_2 O 0.8792(14) -0.0448(13) 0.7829(5)
O17_2 O 0.4365(13) 0.2568(13) 0.8055(5)
O18_2 O 0.7454(13) 0.0100(12) 0.6851(4)
O19A O 0.3555(12) -0.1523(11) 0.4149(4)
O19_2 O 1.6445(12) 0.1523(11) 0.5851(4)
O20A O 0.4930(12) -0.3096(12) 0.4729(4)
O20_2 O 1.5070(12) 0.3096(12) 0.5271(4)
O21A O 1.2535(12) 0.6273(13) 0.4712(4)
O21_2 O 1.7465(12) 0.3727(13) 0.5288(4)
O22A O 1.3011(12) 0.4689(12) 0.4217(5)
O22_2 O 1.6989(12) 0.5311(12) 0.5783(5)
O23_2 O 1.4154(12) 0.5885(11) 0.5580(4)
Tb1_2 Tb 1.58873(8) 0.38257(8) 0.60038(3)
Tb1_3 Tb -0.41127(8) 0.38257(8) 0.60038(3)
Tb1A Tb 0.41127(8) -0.38257(8) 0.39962(3)
Tb1A_2 Tb 1.41127(8) 0.61743(8) 0.39962(3)
Tb1_4 Tb 0.58873(8) 1.38257(8) 0.60038(3)
C1A C 0.488(2) 0.247(2) 1.0013(9)
C2A C 0.4948(18) 0.3805(15) 1.0024(6)
C3A C 0.5270(19) 0.4338(17) 0.9561(6)
H1A H 0.5452 0.3879 0.9267
C4A C 0.4686(18) 0.4466(16) 1.0453(6)
H2A H 0.4477 0.4110 1.0757
C5_2 C 0.6291(18) 1.8821(18) 0.8182(6)
C6_2 C 0.612(2) 1.7775(17) 0.7919(6)
C7_2 C 0.5787(19) 1.8000(17) 0.7405(6)
H3_2 H 0.5675 1.8787 0.7223
C8_2 C 0.562(2) 1.7068(17) 0.7169(6)
H4_2 H 0.5389 1.7230 0.6823
C9_2 C 0.637(2) 1.6590(18) 0.8185(6)
H5_2 H 0.6669 1.6419 0.8525
C10_2 C 0.6176(19) 1.5639(17) 0.7939(6)
H6_2 H 0.6303 1.4848 0.8122
C11_2 C 0.5795(16) 1.5858(17) 0.7428(6)
C12_2 C 0.5575(16) 1.4821(16) 0.7186(7)
C13_2 C -0.2098(18) 1.1228(17) 0.8720(7)
C14_2 C -0.0767(17) 1.1228(16) 0.8875(5)
C15_2 C -0.0024(18) 1.0446(18) 0.9299(6)
H7_2 H -0.0386 0.9965 0.9501
C16_2 C 0.124(2) 1.0360(19) 0.9430(6)
H8_2 H 0.1713 0.9857 0.9727
C17_2 C -0.0211(19) 1.1923(18) 0.8571(6)
H9_2 H -0.0718 1.2467 0.8287
C18_2 C 0.1085(19) 1.1823(18) 0.8680(6)
H10_2 H 0.1454 1.2278 0.8466
C19_2 C 0.1831(16) 1.1045(17) 0.9110(6)
C20_2 C 0.330(2) 1.0816(17) 0.9227(7)
C21_2 C 1.3897(18) 0.2757(18) 0.6636(7)
C22_2 C 1.2571(17) 0.2584(17) 0.6679(6)
C23_2 C 1.165(2) 0.298(2) 0.6278(7)
H11_2 H 1.1839 0.3325 0.5969
C24_2 C 1.043(2) 0.285(2) 0.6330(7)
H12_2 H 0.9827 0.3089 0.6051
C25_2 C 1.2285(18) 0.2032(18) 0.7131(6)
H13_2 H 1.2925 0.1719 0.7401
C26_2 C 1.104(2) 0.1946(19) 0.7179(6)
H14_2 H 1.0856 0.1577 0.7484
Tb2_2 Tb 0.65614(8) 0.15364(8) 0.75811(3)
Tb2_3 Tb -0.34386(8) 0.15364(8) 0.75811(3)
Tb2_4 Tb 1.65614(8) 0.15364(8) 0.75811(3)
Tb2_5 Tb 0.65614(8) 2.15364(8) 0.75811(3)
Tb2_6 Tb -0.34386(8) 1.15364(8) 0.75811(3)
C27_2 C 1.0093(18) 0.2396(18) 0.6785(6)
C28_2 C 0.8741(18) 0.2336(16) 0.6834(7)
C29A C 0.4378(18) -0.1893(18) 0.4533(6)
C30A C 0.4713(18) -0.0902(17) 0.4774(6)
C31A C 0.556(2) -0.1316(17) 0.5205(7)
H15A H 0.5939 -0.2202 0.5341
C32A C 0.4170(18) 0.0388(15) 0.4565(7)
H16A H 0.3619 0.0652 0.4270
C33A C 1.231(2) 0.5352(19) 0.4566(7)
C34A C 1.1166(18) 0.5143(17) 0.4802(6)
C35A C 1.037(2) 0.5875(19) 0.5187(7)
H17A H 1.0605 0.6478 0.5325
C36A C 1.080(2) 0.4266(18) 0.4622(7)
H18A H 1.1327 0.3740 0.4364
C37A C 0.082(2) 0.322(2) 1.0605(8)
H19A H 0.1232 0.3444 1.0860
C38A C -0.126(3) 0.526(3) 1.0700(9)
H20A H -0.0661 0.5343 1.0943
H21A H -0.1583 0.6012 1.0448
H22A H -0.2051 0.5245 1.0874
C39A C -0.128(2) 0.377(2) 1.0066(8)
H23A H -0.0659 0.2942 0.9925
H24A H -0.2063 0.3697 1.0224
H25A H -0.1618 0.4483 0.9798
C40_2 C 1.001(3) -0.073(2) 0.7747(9)
H26_2 H 1.0196 -0.0322 0.7452
C41_2 C 1.083(3) -0.216(3) 0.8465(11)
H27_2 H 0.9845 -0.1893 0.8480
H28_2 H 1.1106 -0.1887 0.8760
H29_2 H 1.1348 -0.3118 0.8461
C42_2 C 1.250(3) -0.172(4) 0.7875(16)
H30_2 H 1.2393 -0.1162 0.7565
H31_2 H 1.3116 -0.2640 0.7814
H32_2 H 1.2894 -0.1455 0.8138
N1A N -0.051(2) 0.4073(18) 1.0460(7)
N2_2 N 1.111(3) -0.158(2) 0.8040(8)
Tb3A Tb 0.37952(8) 0.03628(8) 1.06044(3)
Tb3A_2 Tb 0.37952(8) 1.03628(8) 1.06044(3)
Tb3_2 Tb 1.62048(8) 0.96372(8) 0.93956(3)
Tb3A_3 Tb 1.37952(8) 1.03628(8) 1.06044(3)
Tb3_3 Tb 0.62048(8) -0.03628(8) 0.93956(3)
Tb3_4 Tb 0.62048(8) 1.96372(8) 0.93956(3)
Tb3_5 Tb -0.37952(8) 0.96372(8) 0.93956(3)
O24 O 0.9891(17) 0.0711(17) 0.3474(7)
C43 C 0.987(3) 0.016(3) 0.3883(10)
H33 H 1.0723 -0.0366 0.4052
C44 C 0.738(3) 0.092(3) 0.3822(11)
H34 H 0.7521 0.1352 0.3511
H35 H 0.6661 0.1572 0.4020
H36 H 0.7098 0.0264 0.3741
C45 C 0.877(3) -0.047(3) 0.4600(10)
H37 H 0.9707 -0.0852 0.4735
H38 H 0.8535 -0.1181 0.4556
H39 H 0.8123 0.0123 0.4834
N3 N 0.869(2) 0.0252(19) 0.4117(8)
O25 O 0.830(3) 0.525(3) 0.2074(10)
O26 O 0.928(2) 0.420(2) 0.2757(8)
loop_
_geom_bond_atom_site_label_1
_geom_bond_atom_site_label_2
_geom_bond_site_symmetry_1
_geom_bond_site_symmetry_2
O1 C1 1_555 1_555
O2 C1 1_555 1_555
O3 C5 1_555 1_555
O4 C5 1_555 1_555
O5 C12 1_555 1_555
O6 Tb1 1_555 1_555
O7 C13 1_555 1_555
O8 C13 1_555 1_555
O9 C20 1_555 1_555
O10 C20 1_555 1_555
O11 C37 1_555 1_555
O12 C21 1_555 1_555
O13 Tb1 1_555 1_555
O14 C28 1_555 1_555
O15 C28 1_555 1_555
O16 Tb2 1_555 1_555
O17 Tb2 1_555 1_555
O18 Tb2 1_555 1_555
O19 Tb1 1_555 1_555
O20 Tb1 1_555 1_555
O21 Tb1 1_555 1_555
O22 Tb1 1_555 1_555
O23 Tb1 1_555 1_555
O24 C43 1_555 1_555
Tb1 O15_2 1_555 1_555
C1 C2 1_555 1_555
C2 C3 1_555 1_555
C3 H1 1_555 1_555
C4 C2 1_555 1_555
H2 C4 1_555 1_555
C5 C6 1_555 1_555
C6 C7 1_555 1_555
C7 H3 1_555 1_555
C8 C7 1_555 1_555
H4 C8 1_555 1_555
C9 C6 1_555 1_555
H5 C9 1_555 1_555
C10 C9 1_555 1_555
H6 C10 1_555 1_555
C11 C8 1_555 1_555
C12 O6 1_555 1_555
C13 C14 1_555 1_555
C14 C15 1_555 1_555
C15 H7 1_555 1_555
C16 C15 1_555 1_555
H8 C16 1_555 1_555
C17 C14 1_555 1_555
H9 C17 1_555 1_555
C18 C17 1_555 1_555
H10 C18 1_555 1_555
C19 C16 1_555 1_555
C20 C19 1_555 1_555
C21 O13 1_555 1_555
C22 C21 1_555 1_555
C23 C22 1_555 1_555
H11 C23 1_555 1_555
C24 C23 1_555 1_555
H12 C24 1_555 1_555
C25 C22 1_555 1_555
H13 C25 1_555 1_555
C26 C25 1_555 1_555
H14 C26 1_555 1_555
Tb2 O4 1_555 1_555
C27 C24 1_555 1_555
C28 C27 1_555 1_555
C29 O19 1_555 1_555
C30 C29 1_555 1_555
C31 C30 1_555 1_555
H15 C31 1_555 1_555
C32 C30 1_555 1_555
H16 C32 1_555 1_555
C33 O21 1_555 1_555
C34 C33 1_555 1_555
C35 C34 1_555 1_555
H17 C35 1_555 1_555
C36 C34 1_555 1_555
H18 C36 1_555 1_555
C37 H19 1_555 1_555
C38 H20 1_555 1_555
H21 C38 1_555 1_555
H22 C38 1_555 1_555
C39 H23 1_555 1_555
H24 C39 1_555 1_555
H25 C39 1_555 1_555
C40 O16 1_555 1_555
H26 C40 1_555 1_555
C41 H27 1_555 1_555
H28 C41 1_555 1_555
H29 C41 1_555 1_555
C42 H30 1_555 1_555
H31 C42 1_555 1_555
H32 C42 1_555 1_555
C43 H33 1_555 1_555
C44 H34 1_555 1_555
H35 C44 1_555 1_555
H36 C44 1_555 1_555
C45 H37 1_555 1_555
H38 C45 1_555 1_555
H39 C45 1_555 1_555
N1 C37 1_555 1_555
N2 C40 1_555 1_555
N3 C43 1_555 1_555
Tb3 O1 1_555 1_555
O1A C1A 1_555 1_555
O2A C1A 1_555 1_555
O2A_2 Tb3 1_555 1_555
O2_2 Tb3A 1_555 1_555
O3_2 C5_2 1_555 1_555
O3A Tb3A 1_555 1_555
O4_2 C5_2 1_555 1_555
O4_3 Tb2_2 1_555 1_555
O5_2 Tb2 1_555 1_555
O6_2 Tb1_4 1_555 1_555
O6_3 Tb1_2 1_555 1_555
O7_2 C13_2 1_555 1_555
O7A Tb3A 1_555 1_555
O8_2 C13_2 1_555 1_555
O8_3 Tb2_2 1_555 1_555
O9_2 Tb3 1_555 1_555
O9A Tb3 1_555 1_555
O9_3 Tb3A 1_555 1_555
O9A_2 Tb3A 1_555 1_555
O10_2 Tb3 1_555 1_555
O10A Tb3A 1_555 1_555
O11A C37A 1_555 1_555
O12_2 C21_2 1_555 1_555
O12_3 Tb2 1_555 1_555
O13_2 Tb1_2 1_555 1_555
O14_2 Tb2_2 1_555 1_555
O14_3 Tb2 1_555 1_555
O15_2 C28_2 1_555 1_555
O15_3 Tb1_2 1_555 1_555
O16_2 Tb2_2 1_555 1_555
O17_2 Tb2_2 1_555 1_555
O18_2 Tb2_2 1_555 1_555
O19A Tb1A 1_555 1_555
O19_2 Tb1_2 1_555 1_555
O20A Tb1A 1_555 1_555
O20_2 Tb1_2 1_555 1_555
O21A Tb1A_2 1_555 1_555
O21_2 Tb1_2 1_555 1_555
O22A Tb1A_2 1_555 1_555
O22_2 Tb1_2 1_555 1_555
O23_2 Tb1_2 1_555 1_555
Tb1_3 O15 1_555 1_555
C1A C2A 1_555 1_555
C2A C3A 1_555 1_555
C3A C4 1_555 1_555
H1A C3A 1_555 1_555
C4A C3 1_555 1_555
H2A C4A 1_555 1_555
C5_2 C6_2 1_555 1_555
C6_2 C7_2 1_555 1_555
C7_2 H3_2 1_555 1_555
C8_2 C7_2 1_555 1_555
H4_2 C8_2 1_555 1_555
C9_2 C6_2 1_555 1_555
H5_2 C9_2 1_555 1_555
C10_2 C9_2 1_555 1_555
H6_2 C10_2 1_555 1_555
C11_2 C8_2 1_555 1_555
C12_2 O5_2 1_555 1_555
C13_2 C14_2 1_555 1_555
C14_2 C15_2 1_555 1_555
C15_2 H7_2 1_555 1_555
C16_2 C15_2 1_555 1_555
H8_2 C16_2 1_555 1_555
C17_2 C14_2 1_555 1_555
H9_2 C17_2 1_555 1_555
C18_2 C17_2 1_555 1_555
H10_2 C18_2 1_555 1_555
C19_2 C16_2 1_555 1_555
C20_2 O9_2 1_555 1_555
C21_2 O13_2 1_555 1_555
C22_2 C21_2 1_555 1_555
C23_2 C22_2 1_555 1_555
H11_2 C23_2 1_555 1_555
C24_2 C23_2 1_555 1_555
H12_2 C24_2 1_555 1_555
C25_2 C22_2 1_555 1_555
H13_2 C25_2 1_555 1_555
C26_2 C25_2 1_555 1_555
H14_2 C26_2 1_555 1_555
Tb2_2 O5 1_555 1_555
Tb2_3 O14 1_555 1_555
Tb2_4 O12_2 1_555 1_555
Tb2_5 O4_2 1_555 1_555
Tb2_6 O8_2 1_555 1_555
C27_2 C24_2 1_555 1_555
C28_2 O14_2 1_555 1_555
C29A O19A 1_555 1_555
C30A C29A 1_555 1_555
C31A C32 1_555 1_555
H15A C31A 1_555 1_555
C32A C31 1_555 1_555
H16A C32A 1_555 1_555
C33A O21A 1_555 1_555
C34A C33A 1_555 1_555
C35A C36 1_555 1_555
H17A C35A 1_555 1_555
C36A C35 1_555 1_555
H18A C36A 1_555 1_555
C37A H19A 1_555 1_555
C38A H20A 1_555 1_555
H21A C38A 1_555 1_555
H22A C38A 1_555 1_555
C39A H23A 1_555 1_555
H24A C39A 1_555 1_555
H25A C39A 1_555 1_555
C40_2 O16_2 1_555 1_555
H26_2 C40_2 1_555 1_555
C41_2 H27_2 1_555 1_555
H28_2 C41_2 1_555 1_555
H29_2 C41_2 1_555 1_555
C42_2 H30_2 1_555 1_555
H31_2 C42_2 1_555 1_555
H32_2 C42_2 1_555 1_555
N1A C37A 1_555 1_555
N2_2 C40_2 1_555 1_555
Tb3A O1A 1_555 1_555
Tb3A_2 O2 1_555 1_555
Tb3_2 O9 1_555 1_555
Tb3A_3 O9 1_555 1_555
Tb3_3 O2A 1_555 1_555
Tb3_4 O3_2 1_555 1_555
Tb3_5 O7_2 1_555 1_555
O3 Tb3 1_555 1_555
O7 Tb3 1_555 1_555
O8 Tb2 1_555 1_555
O10 Tb3_2 1_555 1_555
O11 Tb3 1_555 1_555
O12 Tb2_2 1_555 1_555
O20 C29 1_555 1_555
O22 C33 1_555 1_555
C10 C11 1_555 1_555
C11 C12 1_555 1_555
C18 C19 1_555 1_555
C26 C27 1_555 1_555
C38 N1 1_555 1_555
C39 N1 1_555 1_555
C41 N2 1_555 1_555
C42 N2 1_555 1_555
C44 N3 1_555 1_555
C45 N3 1_555 1_555
O6_2 C12_2 1_555 1_555
O9_2 Tb3A_2 1_555 1_555
O9A Tb3A_2 1_555 1_555
O9_3 Tb3_3 1_555 1_555
O9A_2 Tb3_3 1_555 1_555
O10_2 C20_2 1_555 1_555
O11A Tb3A 1_555 1_555
O20A C29A 1_555 1_555
O22A C33A 1_555 1_555
C2A C4A 1_555 1_555
C10_2 C11_2 1_555 1_555
C11_2 C12_2 1_555 1_555
C18_2 C19_2 1_555 1_555
C19_2 C20_2 1_555 1_555
C26_2 C27_2 1_555 1_555
C27_2 C28_2 1_555 1_555
C30A C31A 1_555 1_555
C30A C32A 1_555 1_555
C34A C35A 1_555 1_555
C34A C36A 1_555 1_555
C38A N1A 1_555 1_555
C39A N1A 1_555 1_555
C41_2 N2_2 1_555 1_555
C42_2 N2_2 1_555 1_555

#END
