
#######################################################################
#
#                 Cambridge Crystallographic Data Centre
#                                CCDC 
#
#######################################################################
#
# If this CIF has been generated from an entry in the Cambridge 
# Structural Database, then it will include bibliographic, chemical, 
# crystal, experimental, refinement or atomic coordinate data resulting 
# from the CCDC's data processing and validation procedures.
#
#######################################################################

data_UCEZUY
_symmetry_cell_setting           hexagonal
_symmetry_space_group_name_H-M   'P 62 2 2'
_symmetry_Int_Tables_number      180
_space_group_name_Hall           "P 62 2' (0,0,4)"
loop_
_symmetry_equiv_pos_site_id
_symmetry_equiv_pos_as_xyz
1 x,y,z
2 -y,x-y,2/3+z
3 -x+y,-x,1/3+z
4 -x,-y,z
5 y,-x+y,2/3+z
6 x-y,x,1/3+z
7 y,x,2/3-z
8 x-y,-y,-z
9 -x,-x+y,1/3-z
10 -y,-x,2/3-z
11 -x+y,y,-z
12 x,x-y,1/3-z
_cell_length_a                   14.2476(7)
_cell_length_b                   14.2476(7)
_cell_length_c                   18.1928(11)
_cell_angle_alpha                90
_cell_angle_beta                 90
_cell_angle_gamma                120
_cell_volume                     3198.26
loop_
_atom_site_label
_atom_site_type_symbol
_atom_site_fract_x
_atom_site_fract_y
_atom_site_fract_z
Tl1 Tl 0.0000 0.0000 0.8333
Pt1 Pt 0.0000 0.0000 0.6667
C1 C -0.1204(16) 0.0398(16) 0.6633(11)
C2 C -0.2109(18) -0.0030(16) 0.6168(10)
C3 C -0.2937(16) 0.020(2) 0.6165(11)
C4 C -0.2876(19) 0.096(2) 0.6653(16)
C5 C -0.203(3) 0.142(2) 0.7138(14)
C6 C -0.1264(18) 0.111(2) 0.7147(11)
F1 F -0.2148(10) -0.0737(12) 0.5669(7)
F2 F -0.3758(14) -0.0355(18) 0.5680(9)
F3 F -0.3717(17) 0.116(2) 0.6692(13)
F4 F -0.2027(19) 0.2142(18) 0.7636(9)
F5 F -0.0457(13) 0.1657(12) 0.7648(7)
Tl1A Tl 0.0000 0.0000 0.5000
Pt1B Pt 0.0000 0.0000 1.0000
C1C C 0.1204(16) -0.0398(16) 0.6633(11)
C1H C 0.1204(16) 0.1602(23) 0.6700(11)
C1K C -0.1204(16) -0.1602(23) 0.6700(11)
C2C C 0.2109(18) 0.0030(16) 0.6168(10)
C2H C 0.2109(18) 0.2079(24) 0.7165(10)
C2K C -0.2109(18) -0.2079(24) 0.7165(10)
C3C C 0.2937(16) -0.020(2) 0.6165(11)
C3H C 0.2937(16) 0.3137(26) 0.7168(11)
C3K C -0.2937(16) -0.3137(26) 0.7168(11)
C4C C 0.2876(19) -0.096(2) 0.6653(16)
C4H C 0.2876(19) 0.3836(28) 0.6680(16)
C4K C -0.2876(19) -0.3836(28) 0.6680(16)
C5C C 0.203(3) -0.142(2) 0.7138(14)
C5H C 0.203(3) 0.345(4) 0.6195(14)
C5K C -0.203(3) -0.345(4) 0.6195(14)
C6C C 0.1264(18) -0.111(2) 0.7147(11)
C6H C 0.1264(18) 0.2374(27) 0.6186(11)
C6K C -0.1264(18) -0.2374(27) 0.6186(11)
F1C F 0.2148(10) 0.0737(12) 0.5669(7)
F1H F 0.2148(10) 0.1411(16) 0.7664(7)
F1K F -0.2148(10) -0.1411(16) 0.7664(7)
F2C F 0.3758(14) 0.0355(18) 0.5680(9)
F2H F 0.3758(14) 0.3403(23) 0.7653(9)
F2K F -0.3758(14) -0.3403(23) 0.7653(9)
F3C F 0.3717(17) -0.116(2) 0.6692(13)
F3H F 0.3717(17) 0.4877(26) 0.6641(13)
F3K F -0.3717(17) -0.4877(26) 0.6641(13)
F4C F 0.2027(19) -0.2142(18) 0.7636(9)
F4H F 0.2027(19) 0.4169(26) 0.5697(9)
F4K F -0.2027(19) -0.4169(26) 0.5697(9)
F5C F 0.0457(13) -0.1657(12) 0.7648(7)
F5H F 0.0457(13) 0.2114(18) 0.5685(7)
F5K F -0.0457(13) -0.2114(18) 0.5685(7)
N1 N 0.0000 0.5000 0.6667
C7 C 0.073(2) 0.482(2) 0.7096(14)
C8 C 0.073(4) 0.435(4) 0.7733(19)
C9 C 0.177(3) 0.477(5) 0.813(2)
C10 C 0.177(5) 0.454(5) 0.891(2)
C7C C -0.073(2) 0.518(2) 0.7096(14)
C7H C -0.073(2) 0.409(3) 0.6237(14)
C7K C 0.073(2) 0.591(3) 0.6237(14)
C8C C -0.073(4) 0.565(4) 0.7733(19)
C8H C -0.073(4) 0.362(6) 0.5600(19)
C8K C 0.073(4) 0.638(6) 0.5600(19)
C9C C -0.177(3) 0.523(5) 0.813(2)
C9H C -0.177(3) 0.300(6) 0.520(2)
C9K C 0.177(3) 0.700(6) 0.520(2)
C10C C -0.177(5) 0.546(5) 0.891(2)
C10H C -0.177(5) 0.277(7) 0.442(2)
C10K C 0.177(5) 0.723(7) 0.442(2)
C11? C 0.124(6) 0.507(6) 0.837(3)
C12? C 0.235(8) 0.543(11) 0.859(6)
loop_
_geom_bond_atom_site_label_1
_geom_bond_atom_site_label_2
_geom_bond_site_symmetry_1
_geom_bond_site_symmetry_2
Tl1 Pt1 1_555 1_555
Pt1 C1 1_555 1_555
C1 C2 1_555 1_555
C2 C3 1_555 1_555
C3 C4 1_555 1_555
C4 C5 1_555 1_555
C5 C6 1_555 1_555
C6 C1 1_555 1_555
F1 C2 1_555 1_555
F2 C3 1_555 1_555
F3 C4 1_555 1_555
F4 C5 1_555 1_555
F5 C6 1_555 1_555
N1 C7 1_555 1_555
C7 C8 1_555 1_555
C8 C9 1_555 1_555
C9 C10 1_555 1_555
Tl1A Pt1 1_555 1_555
Pt1B Tl1 1_555 1_555
C1C Pt1 1_555 1_555
C1H Pt1 1_555 1_555
C1K Pt1 1_555 1_555
C2C C1C 1_555 1_555
C2H C1H 1_555 1_555
C2K C1K 1_555 1_555
C3C C2C 1_555 1_555
C3H C2H 1_555 1_555
C3K C2K 1_555 1_555
C4C C3C 1_555 1_555
C4H C3H 1_555 1_555
C4K C3K 1_555 1_555
C5C C4C 1_555 1_555
C5H C4H 1_555 1_555
C5K C4K 1_555 1_555
C6C C1C 1_555 1_555
C6H C1H 1_555 1_555
C6K C1K 1_555 1_555
F1C C2C 1_555 1_555
F1H C2H 1_555 1_555
F1K C2K 1_555 1_555
F2C C3C 1_555 1_555
F2H C3H 1_555 1_555
F2K C3K 1_555 1_555
F3C C4C 1_555 1_555
F3H C4H 1_555 1_555
F3K C4K 1_555 1_555
F4C C5C 1_555 1_555
F4H C5H 1_555 1_555
F4K C5K 1_555 1_555
F5C C6C 1_555 1_555
F5H C6H 1_555 1_555
F5K C6K 1_555 1_555
C7C N1 1_555 1_555
C7H N1 1_555 1_555
C7K N1 1_555 1_555
C8C C7C 1_555 1_555
C8H C7H 1_555 1_555
C8K C7K 1_555 1_555
C9C C8C 1_555 1_555
C9H C8H 1_555 1_555
C9K C8K 1_555 1_555
C10C C9C 1_555 1_555
C10H C9H 1_555 1_555
C10K C9K 1_555 1_555
C5C C6C 1_555 1_555
C5H C6H 1_555 1_555
C5K C6K 1_555 1_555

#END
