
#######################################################################
#
#                 Cambridge Crystallographic Data Centre
#                                CCDC 
#
#######################################################################
#
# If this CIF has been generated from an entry in the Cambridge 
# Structural Database, then it will include bibliographic, chemical, 
# crystal, experimental, refinement or atomic coordinate data resulting 
# from the CCDC's data processing and validation procedures.
#
#######################################################################

data_UCIBAK
_symmetry_cell_setting           orthorhombic
_symmetry_space_group_name_H-M   'P c a a'
_symmetry_Int_Tables_number      54
_space_group_name_Hall           '-P 2ac 2c'
loop_
_symmetry_equiv_pos_site_id
_symmetry_equiv_pos_as_xyz
1 x,y,z
2 1/2-x,-y,1/2+z
3 x,-y,1/2-z
4 1/2-x,y,-z
5 -x,-y,-z
6 1/2+x,y,1/2-z
7 -x,y,1/2+z
8 1/2+x,-y,z
_cell_length_a                   12.6668(2)
_cell_length_b                   14.2938(3)
_cell_length_c                   35.0539(9)
_cell_angle_alpha                90
_cell_angle_beta                 90
_cell_angle_gamma                90
_cell_volume                     6346.74
loop_
_atom_site_label
_atom_site_type_symbol
_atom_site_fract_x
_atom_site_fract_y
_atom_site_fract_z
Pt1 Pt 0.61797(3) 0.0000 0.25000
Tl1 Tl 0.87301(3) 0.0000 0.25000
C1 C 0.6202(6) 0.0283(6) 0.1919(3)
C2 C 0.6935(7) 0.0840(6) 0.1744(3)
C3 C 0.7000(8) 0.0997(7) 0.1358(3)
C4 C 0.6269(9) 0.0580(8) 0.1123(3)
C5 C 0.5488(9) 0.0016(8) 0.1276(3)
C6 C 0.5490(8) -0.0120(7) 0.1666(3)
C7 C 0.6191(6) 0.1420(7) 0.2611(3)
C8 C 0.5482(7) 0.2069(7) 0.2441(3)
C9 C 0.5489(9) 0.3010(8) 0.2493(4)
C10 C 0.6197(10) 0.3379(9) 0.2759(4)
C11 C 0.6901(8) 0.2800(8) 0.2923(3)
C12 C 0.6891(7) 0.1846(6) 0.2851(3)
F1 F 0.7672(4) 0.1294(4) 0.19573(16)
F2 F 0.7754(5) 0.1543(4) 0.12091(19)
F3 F 0.6310(5) 0.0729(5) 0.07381(18)
F4 F 0.4777(5) -0.0379(5) 0.10456(17)
F5 F 0.4703(4) -0.0699(4) 0.17853(15)
F6 F 0.4740(4) 0.1736(4) 0.21908(17)
F7 F 0.4811(6) 0.3566(4) 0.2315(2)
F8 F 0.6198(5) 0.4317(4) 0.2829(2)
F9 F 0.7612(5) 0.3158(4) 0.3179(2)
F10 F 0.7614(4) 0.1349(4) 0.30446(15)
Pt1E Pt 1.11797(3) 0.0000 0.25000
Tl1E Tl 0.37301(3) 0.0000 0.25000
C1B C 0.6202(6) -0.0283(6) 0.3081(3)
C2B C 0.6935(7) -0.0840(6) 0.3256(3)
C3B C 0.7000(8) -0.0997(7) 0.3642(3)
C4B C 0.6269(9) -0.0580(8) 0.3877(3)
C5B C 0.5488(9) -0.0016(8) 0.3724(3)
C6B C 0.5490(8) 0.0120(7) 0.3334(3)
C7B C 0.6191(6) -0.1420(7) 0.2389(3)
C8B C 0.5482(7) -0.2069(7) 0.2559(3)
C9B C 0.5489(9) -0.3010(8) 0.2507(4)
C10B C 0.6197(10) -0.3379(9) 0.2241(4)
C11B C 0.6901(8) -0.2800(8) 0.2077(3)
C12B C 0.6891(7) -0.1846(6) 0.2149(3)
F1B F 0.7672(4) -0.1294(4) 0.30427(16)
F2B F 0.7754(5) -0.1543(4) 0.37909(19)
F3B F 0.6310(5) -0.0729(5) 0.42619(18)
F4B F 0.4777(5) 0.0379(5) 0.39544(17)
F5B F 0.4703(4) 0.0699(4) 0.32147(15)
F6B F 0.4740(4) -0.1736(4) 0.28092(17)
F7B F 0.4811(6) -0.3566(4) 0.2685(2)
F8B F 0.6198(5) -0.4317(4) 0.2171(2)
F9B F 0.7612(5) -0.3158(4) 0.1821(2)
F10B F 0.7614(4) -0.1349(4) 0.19554(15)
N1 N 0.0104(5) 0.3440(5) 0.0923(2)
C13 C -0.0017(7) 0.4432(6) 0.0782(3)
H1 H -0.0763 0.4551 0.0742
H2 H 0.0327 0.4478 0.0535
C14 C 0.0425(9) 0.5214(7) 0.1041(3)
H3 H 0.0133 0.5158 0.1296
H4 H 0.1187 0.5164 0.1058
C15 C 0.0119(9) 0.6152(7) 0.0868(4)
H5 H -0.0641 0.617 0.0834
H6 H 0.0442 0.6208 0.0618
C16 C 0.0455(9) 0.6982(8) 0.1113(4)
H7 H 0.016 0.6918 0.1364
H8 H 0.0204 0.7551 0.0999
H9 H 0.1211 0.6999 0.113
C17 C -0.0304(11) 0.3342(10) 0.1332(4)
H10 H 0.0157 0.3697 0.1499
H11 H -0.0249 0.269 0.1406
C18 C -0.1440(11) 0.3663(10) 0.1401(3)
H12 H -0.1515 0.4299 0.1307
H13 H -0.1911 0.327 0.1252
C19 C 0.1290(9) 0.3167(9) 0.0923(4)
H14 H 0.1573 0.3312 0.0673
H15 H 0.1649 0.3568 0.1105
C20 C -0.0525(7) 0.2803(7) 0.0658(3)
H16 H -0.0564 0.2188 0.0774
H17 H -0.124 0.3044 0.0642
C21 C -0.0106(8) 0.2689(8) 0.0255(3)
H18 H -0.0053 0.3297 0.0133
H19 H 0.0593 0.2413 0.0263
C22 C 0.1573(8) 0.2189(9) 0.1013(4)
H20 H 0.1341 0.2057 0.1272
H21 H 0.1175 0.1783 0.0844
C23 C 0.2695(8) 0.1932(11) 0.0984(4)
H22 H 0.313 0.2437 0.1081
H23 H 0.2832 0.1377 0.1135
C24 C 0.2951(10) 0.1756(10) 0.0593(3)
H24 H 0.356 0.1358 0.0579
H25 H 0.31 0.2337 0.0467
H26 H 0.2365 0.1455 0.047
C25 C -0.1775(12) 0.3634(9) 0.1805(3)
H27 H -0.253 0.3528 0.1813
H28 H -0.1437 0.3102 0.1925
C26 C -0.1542(11) 0.4457(9) 0.2026(4)
H29 H -0.1803 0.5000 0.1895
H30 H -0.0792 0.4511 0.2059
H31 H -0.1876 0.4409 0.2271
C27 C -0.0837(10) 0.2073(9) 0.0031(3)
H32 H -0.1535 0.2352 0.0033
H33 H -0.0597 0.2058 -0.0232
C28 C -0.0924(12) 0.1089(9) 0.0172(4)
H34 H -0.0255 0.0781 0.0145
H35 H -0.1449 0.0762 0.0027
H36 H -0.1124 0.1094 0.0437
P1 P 0.75000 0.5000(3) 0.00000
F11 F 0.75000 0.3949(9) 0.00000
F12 F 0.75000 0.6092(9) 0.00000
F13 F 0.7514(4) 0.5039(6) -0.0449(2)
F14 F 0.6262(4) 0.4988(6) -0.00032(17)
F13C F 0.7486(4) 0.5039(6) 0.0449(2)
F14C F 0.8738(4) 0.4988(6) 0.00032(17)
loop_
_geom_bond_atom_site_label_1
_geom_bond_atom_site_label_2
_geom_bond_site_symmetry_1
_geom_bond_site_symmetry_2
Pt1 Tl1 1_555 1_555
Tl1 Pt1E 1_555 1_555
N1 C13 1_555 1_555
P1 F11 1_555 1_555
C1 Pt1 1_555 1_555
C2 C1 1_555 1_555
C3 C2 1_555 1_555
C4 C3 1_555 1_555
C5 C4 1_555 1_555
C6 C1 1_555 1_555
C7 Pt1 1_555 1_555
C8 C7 1_555 1_555
C9 C8 1_555 1_555
C10 C9 1_555 1_555
C11 C10 1_555 1_555
C12 C7 1_555 1_555
C13 H1 1_555 1_555
H2 C13 1_555 1_555
C14 C13 1_555 1_555
H3 C14 1_555 1_555
H4 C14 1_555 1_555
C15 C14 1_555 1_555
H5 C15 1_555 1_555
H6 C15 1_555 1_555
C16 C15 1_555 1_555
H7 C16 1_555 1_555
H8 C16 1_555 1_555
H9 C16 1_555 1_555
C17 N1 1_555 1_555
H10 C17 1_555 1_555
H11 C17 1_555 1_555
C18 C17 1_555 1_555
H12 C18 1_555 1_555
H13 C18 1_555 1_555
C19 N1 1_555 1_555
H14 C19 1_555 1_555
H15 C19 1_555 1_555
C20 N1 1_555 1_555
H16 C20 1_555 1_555
H17 C20 1_555 1_555
C21 C20 1_555 1_555
H18 C21 1_555 1_555
H19 C21 1_555 1_555
F1 C2 1_555 1_555
F2 C3 1_555 1_555
F3 C4 1_555 1_555
F4 C5 1_555 1_555
F5 C6 1_555 1_555
F6 C8 1_555 1_555
F7 C9 1_555 1_555
F8 C10 1_555 1_555
F9 C11 1_555 1_555
F10 C12 1_555 1_555
F12 P1 1_555 1_555
F13 P1 1_555 1_555
F14 P1 1_555 1_555
C22 C19 1_555 1_555
H20 C22 1_555 1_555
H21 C22 1_555 1_555
C23 C22 1_555 1_555
H22 C23 1_555 1_555
H23 C23 1_555 1_555
C24 C23 1_555 1_555
H24 C24 1_555 1_555
H25 C24 1_555 1_555
H26 C24 1_555 1_555
C25 C18 1_555 1_555
H27 C25 1_555 1_555
H28 C25 1_555 1_555
C26 C25 1_555 1_555
H29 C26 1_555 1_555
H30 C26 1_555 1_555
H31 C26 1_555 1_555
C27 C21 1_555 1_555
H32 C27 1_555 1_555
H33 C27 1_555 1_555
C28 C27 1_555 1_555
H34 C28 1_555 1_555
H35 C28 1_555 1_555
H36 C28 1_555 1_555
Tl1E Pt1 1_555 1_555
C1B Pt1 1_555 1_555
C2B C1B 1_555 1_555
C3B C2B 1_555 1_555
C4B C3B 1_555 1_555
C5B C4B 1_555 1_555
C6B C1B 1_555 1_555
C7B Pt1 1_555 1_555
C8B C7B 1_555 1_555
C9B C8B 1_555 1_555
C10B C9B 1_555 1_555
C11B C10B 1_555 1_555
C12B C7B 1_555 1_555
F1B C2B 1_555 1_555
F2B C3B 1_555 1_555
F3B C4B 1_555 1_555
F4B C5B 1_555 1_555
F5B C6B 1_555 1_555
F6B C8B 1_555 1_555
F7B C9B 1_555 1_555
F8B C10B 1_555 1_555
F9B C11B 1_555 1_555
F10B C12B 1_555 1_555
F13C P1 1_555 1_555
F14C P1 1_555 1_555
C5 C6 1_555 1_555
C11 C12 1_555 1_555
C5B C6B 1_555 1_555
C11B C12B 1_555 1_555

#END
