
#######################################################################
#
#                 Cambridge Crystallographic Data Centre
#                                CCDC 
#
#######################################################################
#
# If this CIF has been generated from an entry in the Cambridge 
# Structural Database, then it will include bibliographic, chemical, 
# crystal, experimental, refinement or atomic coordinate data resulting 
# from the CCDC's data processing and validation procedures.
#
#######################################################################

data_UCICOA
_symmetry_cell_setting           tetragonal
_symmetry_space_group_name_H-M   'P 42 b c'
_symmetry_Int_Tables_number      106
_space_group_name_Hall           'P 4c -2ab'
loop_
_symmetry_equiv_pos_site_id
_symmetry_equiv_pos_as_xyz
1 x,y,z
2 -x,-y,z
3 -y,x,1/2+z
4 y,-x,1/2+z
5 1/2+x,1/2-y,z
6 1/2-x,1/2+y,z
7 1/2-y,1/2-x,1/2+z
8 1/2+y,1/2+x,1/2+z
_cell_length_a                   16.069(2)
_cell_length_b                   16.069(2)
_cell_length_c                   20.094(4)
_cell_angle_alpha                90
_cell_angle_beta                 90
_cell_angle_gamma                90
_cell_volume                     5188.53
loop_
_atom_site_label
_atom_site_type_symbol
_atom_site_fract_x
_atom_site_fract_y
_atom_site_fract_z
Cd1 Cd 0.63744(4) 0.00005(10) 0.12341(10)
Cd2 Cd 0.5000 0.0000 -0.12619(15)
C1 C 0.6299(12) 0.2798(11) 0.1281(9)
H1 H 0.6250 0.3313 0.1488
N1 N 0.6276(9) -0.1372(9) 0.1375(8)
N2 N 0.5391(10) -0.1092(9) -0.0657(8)
O1 O 0.5985(11) 0.0304(9) 0.2274(6)
C2 C 0.6089(11) -0.2021(11) 0.0895(10)
N3 N 0.6615(10) 0.2584(9) 0.0658(8)
O2 O 0.5935(11) -0.0259(9) 0.0213(8)
N4 N 0.5458(10) -0.2333(9) -0.0180(8)
C3 C 0.6663(11) -0.1753(12) 0.1890(9)
C4 C 0.6997(15) 0.3175(14) 0.0193(10)
H2 H 0.7044 0.3742 0.0277
C5 C 0.5722(12) 0.0967(11) 0.2450(7)
C6 C 0.5210(10) -0.1825(12) -0.0740(7)
C7 C 0.5688(12) -0.1021(12) -0.0049(11)
C8 C 0.6916(15) -0.1383(14) 0.2490(11)
H3 H 0.6830 -0.0823 0.2582
C9 C 0.5788(11) -0.1760(10) 0.0286(9)
N5 N 0.6646(10) -0.2619(8) 0.1800(8)
C10 C 0.4904(10) -0.2307(10) -0.1256(10)
H4 H 0.4732 -0.2015 -0.1631
N6 N 0.6277(10) 0.1403(8) 0.1089(8)
C11 C 0.5679(12) 0.1791(12) 0.2174(10)
C12 C 0.6302(12) -0.2742(9) 0.1197(11)
H5 H 0.6221 -0.3265 0.1009
C13 C 0.7271(15) 0.2814(13) -0.0363(9)
H6 H 0.7487 0.3145 -0.0701
C14 C 0.6069(11) 0.1965(10) 0.1509(8)
C15 C 0.7325(12) -0.1948(11) 0.2961(10)
H7 H 0.7578 -0.1744 0.3344
C16 C 0.5336(13) -0.3185(11) -0.0159(12)
H8 H 0.5476 -0.3472 0.0227
Cl1 Cl 0.7997(4) -0.0016(6) 0.1248(8)
C17 C 0.4818(8) -0.3166(8) -0.1292(7)
H9 H 0.4644 -0.3437 -0.1676
C18 C 0.5210(12) 0.1926(11) 0.3206(10)
N7 N 0.5392(9) 0.2320(8) 0.2646(8)
N8 N 0.5347(10) 0.1050(10) 0.3097(8)
C19 C 0.5330(13) 0.3154(12) 0.2630(12)
H10 H 0.5437 0.3477 0.2255
C20 C 0.6974(14) 0.1455(10) -0.0027(11)
H11 H 0.7041 0.0886 -0.0091
C21 C 0.6565(11) 0.1768(11) 0.0548(9)
C22 C 0.7324(12) -0.2816(14) 0.2818(11)
H12 H 0.7570 -0.3186 0.3114
C23 C 0.4886(11) 0.2225(10) 0.3827(12)
H13 H 0.4749 0.1905 0.4196
C24 C 0.5067(14) 0.3498(13) 0.3290(17)
H14 H 0.5071 0.4070 0.3361
C25 C 0.7242(15) 0.1971(16) -0.0447(10)
H15 H 0.7437 0.1760 -0.0849
C26 C 0.6969(14) -0.3104(11) 0.2255(12)
H16 H 0.6953 -0.3676 0.2187
C27 C 0.5022(9) -0.3612(11) -0.0679(11)
H17 H 0.4936 -0.4184 -0.0648
C28 C 0.4825(15) 0.2988(17) 0.3776(16)
H18 H 0.4570 0.3250 0.4135
Cd1A Cd 0.36256(4) -0.00005(10) 0.12341(10)
Cd2F Cd 0.5000 0.0000 0.37381(15)
C1A C 0.3701(12) -0.2798(11) 0.1281(9)
H1A H 0.3750 -0.3313 0.1488
N1A N 0.3724(9) 0.1372(9) 0.1375(8)
N2A N 0.4609(10) 0.1092(9) -0.0657(8)
O1A O 0.4015(11) -0.0304(9) 0.2274(6)
C2A C 0.3911(11) 0.2021(11) 0.0895(10)
N3A N 0.3385(10) -0.2584(9) 0.0658(8)
O2A O 0.4065(11) 0.0259(9) 0.0213(8)
N4A N 0.4542(10) 0.2333(9) -0.0180(8)
C3A C 0.3337(11) 0.1753(12) 0.1890(9)
C4A C 0.3003(15) -0.3175(14) 0.0193(10)
H2A H 0.2956 -0.3742 0.0277
C5A C 0.4278(12) -0.0967(11) 0.2450(7)
C6A C 0.4790(10) 0.1825(12) -0.0740(7)
C7A C 0.4312(12) 0.1021(12) -0.0049(11)
C8A C 0.3084(15) 0.1383(14) 0.2490(11)
H3A H 0.3170 0.0823 0.2582
C9A C 0.4212(11) 0.1760(10) 0.0286(9)
N5A N 0.3354(10) 0.2619(8) 0.1800(8)
C10A C 0.5096(10) 0.2307(10) -0.1256(10)
H4A H 0.5268 0.2015 -0.1631
N6A N 0.3723(10) -0.1403(8) 0.1089(8)
C11A C 0.4321(12) -0.1791(12) 0.2174(10)
C12A C 0.3698(12) 0.2742(9) 0.1197(11)
H5A H 0.3779 0.3265 0.1009
C13A C 0.2729(15) -0.2814(13) -0.0363(9)
H6A H 0.2513 -0.3145 -0.0701
C14A C 0.3931(11) -0.1965(10) 0.1509(8)
C15A C 0.2675(12) 0.1948(11) 0.2961(10)
H7A H 0.2422 0.1744 0.3344
C16A C 0.4664(13) 0.3185(11) -0.0159(12)
H8A H 0.4524 0.3472 0.0227
Cl1A Cl 0.2003(4) 0.0016(6) 0.1248(8)
C17A C 0.5182(8) 0.3166(8) -0.1292(7)
H9A H 0.5356 0.3437 -0.1676
C18A C 0.4790(12) -0.1926(11) 0.3206(10)
N7A N 0.4608(9) -0.2320(8) 0.2646(8)
N8A N 0.4653(10) -0.1050(10) 0.3097(8)
N8F N 0.3950(10) -0.0347(10) -0.1903(8)
N8G N 0.6050(10) 0.0347(10) -0.1903(8)
C19A C 0.4670(13) -0.3154(12) 0.2630(12)
H10A H 0.4563 -0.3477 0.2255
C20A C 0.3026(14) -0.1455(10) -0.0027(11)
H11A H 0.2959 -0.0886 -0.0091
C21A C 0.3435(11) -0.1768(11) 0.0548(9)
C22A C 0.2676(12) 0.2816(14) 0.2818(11)
H12A H 0.2430 0.3186 0.3114
C23A C 0.5114(11) -0.2225(10) 0.3827(12)
H13A H 0.5251 -0.1905 0.4196
C24A C 0.4933(14) -0.3498(13) 0.3290(17)
H14A H 0.4929 -0.4070 0.3361
C25A C 0.2758(15) -0.1971(16) -0.0447(10)
H15A H 0.2563 -0.1760 -0.0849
C26A C 0.3031(14) 0.3104(11) 0.2255(12)
H16A H 0.3047 0.3676 0.2187
C27A C 0.4978(9) 0.3612(11) -0.0679(11)
H17A H 0.5064 0.4184 -0.0648
C28A C 0.5175(15) -0.2988(17) 0.3776(16)
H18A H 0.5430 -0.3250 0.4135
loop_
_geom_bond_atom_site_label_1
_geom_bond_atom_site_label_2
_geom_bond_site_symmetry_1
_geom_bond_site_symmetry_2
Cd1 N1 1_555 1_555
Cd2 N2 1_555 1_555
C1 H1 1_555 1_555
N1 C2 1_555 1_555
N2 C6 1_555 1_555
O1 Cd1 1_555 1_555
C2 C9 1_555 1_555
N3 C1 1_555 1_555
O2 Cd1 1_555 1_555
N4 C6 1_555 1_555
C3 N1 1_555 1_555
C4 N3 1_555 1_555
H2 C4 1_555 1_555
C5 O1 1_555 1_555
C6 C10 1_555 1_555
C7 N2 1_555 1_555
C8 C3 1_555 1_555
H3 C8 1_555 1_555
C9 N4 1_555 1_555
N5 C3 1_555 1_555
C10 H4 1_555 1_555
N6 Cd1 1_555 1_555
C11 C5 1_555 1_555
C12 C2 1_555 1_555
H5 C12 1_555 1_555
C13 C4 1_555 1_555
H6 C13 1_555 1_555
C14 C1 1_555 1_555
C15 C8 1_555 1_555
H7 C15 1_555 1_555
C16 N4 1_555 1_555
H8 C16 1_555 1_555
Cl1 Cd1 1_555 1_555
C17 C10 1_555 1_555
H9 C17 1_555 1_555
C18 N7 1_555 1_555
N7 C11 1_555 1_555
N8 C5 1_555 1_555
C19 N7 1_555 1_555
H10 C19 1_555 1_555
C20 H11 1_555 1_555
C21 N3 1_555 1_555
C22 C15 1_555 1_555
H12 C22 1_555 1_555
C23 C18 1_555 1_555
H13 C23 1_555 1_555
C24 C19 1_555 1_555
H14 C24 1_555 1_555
C25 C13 1_555 1_555
H15 C25 1_555 1_555
C26 N5 1_555 1_555
H16 C26 1_555 1_555
C27 C16 1_555 1_555
H17 C27 1_555 1_555
C28 C23 1_555 1_555
H18 C28 1_555 1_555
Cd1A N1A 1_555 1_555
Cd2F N8 1_555 1_555
C1A H1A 1_555 1_555
N1A C2A 1_555 1_555
N2A Cd2 1_555 1_555
O1A Cd1A 1_555 1_555
C2A C9A 1_555 1_555
N3A C1A 1_555 1_555
O2A Cd1A 1_555 1_555
N4A C6A 1_555 1_555
C3A N1A 1_555 1_555
C4A N3A 1_555 1_555
H2A C4A 1_555 1_555
C5A O1A 1_555 1_555
C6A N2A 1_555 1_555
C7A N2A 1_555 1_555
C8A C3A 1_555 1_555
H3A C8A 1_555 1_555
C9A N4A 1_555 1_555
N5A C3A 1_555 1_555
C10A C6A 1_555 1_555
H4A C10A 1_555 1_555
N6A Cd1A 1_555 1_555
C11A C5A 1_555 1_555
C12A C2A 1_555 1_555
H5A C12A 1_555 1_555
C13A C4A 1_555 1_555
H6A C13A 1_555 1_555
C14A C1A 1_555 1_555
C15A C8A 1_555 1_555
H7A C15A 1_555 1_555
C16A N4A 1_555 1_555
H8A C16A 1_555 1_555
Cl1A Cd1A 1_555 1_555
C17A C10A 1_555 1_555
H9A C17A 1_555 1_555
C18A N7A 1_555 1_555
N7A C11A 1_555 1_555
N8A Cd2F 1_555 1_555
N8F Cd2 1_555 1_555
N8G Cd2 1_555 1_555
C19A N7A 1_555 1_555
H10A C19A 1_555 1_555
C20A H11A 1_555 1_555
C21A N3A 1_555 1_555
C22A C15A 1_555 1_555
H12A C22A 1_555 1_555
C23A C18A 1_555 1_555
H13A C23A 1_555 1_555
C24A C19A 1_555 1_555
H14A C24A 1_555 1_555
C25A C13A 1_555 1_555
H15A C25A 1_555 1_555
C26A N5A 1_555 1_555
H16A C26A 1_555 1_555
C27A C16A 1_555 1_555
H17A C27A 1_555 1_555
C28A C23A 1_555 1_555
H18A C28A 1_555 1_555
O2 C7 1_555 1_555
C7 C9 1_555 1_555
N5 C12 1_555 1_555
N6 C14 1_555 1_555
N6 C21 1_555 1_555
C11 C14 1_555 1_555
C17 C27 1_555 1_555
C18 N8 1_555 1_555
C20 C21 1_555 1_555
C20 C25 1_555 1_555
C22 C26 1_555 1_555
C24 C28 1_555 1_555
O2A C7A 1_555 1_555
C5A N8A 1_555 1_555
C7A C9A 1_555 1_555
N5A C12A 1_555 1_555
N6A C14A 1_555 1_555
N6A C21A 1_555 1_555
C11A C14A 1_555 1_555
C17A C27A 1_555 1_555
C18A N8A 1_555 1_555
C20A C21A 1_555 1_555
C20A C25A 1_555 1_555
C22A C26A 1_555 1_555
C24A C28A 1_555 1_555

#END
