
#######################################################################
#
#                 Cambridge Crystallographic Data Centre
#                                CCDC 
#
#######################################################################
#
# If this CIF has been generated from an entry in the Cambridge 
# Structural Database, then it will include bibliographic, chemical, 
# crystal, experimental, refinement or atomic coordinate data resulting 
# from the CCDC's data processing and validation procedures.
#
#######################################################################

data_UCICAM
_symmetry_cell_setting           orthorhombic
_symmetry_space_group_name_H-M   'P 21 21 21'
_symmetry_Int_Tables_number      19
_space_group_name_Hall           'P 2ac 2ab'
loop_
_symmetry_equiv_pos_site_id
_symmetry_equiv_pos_as_xyz
1 x,y,z
2 1/2-x,-y,1/2+z
3 1/2+x,1/2-y,-z
4 -x,1/2+y,1/2-z
_cell_length_a                   8.8568(2)
_cell_length_b                   18.7469(5)
_cell_length_c                   28.2809(7)
_cell_angle_alpha                90
_cell_angle_beta                 90
_cell_angle_gamma                90
_cell_volume                     4695.69
loop_
_atom_site_label
_atom_site_type_symbol
_atom_site_fract_x
_atom_site_fract_y
_atom_site_fract_z
C1 C 0.4164(9) 0.8839(4) 0.3039(3)
C2 C 0.2955(9) 0.8800(5) 0.2664(3)
C3 C 0.5648(9) 0.6226(4) 0.2487(4)
C4 C 0.5296(11) 0.6469(5) 0.1989(3)
C5 C 0.6499(9) 0.8230(5) 0.3268(3)
C6 C 0.7460(9) 0.8812(5) 0.3198(3)
H1 H 0.7087 0.9227 0.3060
C7 C 0.8936(11) 0.8778(5) 0.3329(4)
H2 H 0.9551 0.9175 0.3289
C8 C 0.9557(11) 0.8140(5) 0.3526(3)
C9 C 1.1082(10) 0.8092(5) 0.3643(3)
H3 H 1.1711 0.8484 0.3598
C10 C 1.1659(10) 0.7479(6) 0.3824(4)
H4 H 1.2680 0.7448 0.3898
C11 C 1.0705(11) 0.6895(5) 0.3899(4)
H5 H 1.1101 0.6474 0.4022
C12 C 0.9181(12) 0.6933(6) 0.3794(4)
H6 H 0.8564 0.6541 0.3850
C13 C 0.8562(10) 0.7553(5) 0.3604(3)
C14 C 0.6979(9) 0.7616(4) 0.3485(3)
C15 C 0.5270(10) 0.6582(4) 0.3298(3)
C16 C 0.4342(10) 0.5999(5) 0.3451(4)
H7 H 0.3919 0.5696 0.3226
C17 C 0.4068(12) 0.5879(5) 0.3916(4)
H8 H 0.3453 0.5502 0.4009
C18 C 0.4741(12) 0.6342(6) 0.4262(4)
C19 C 0.4403(15) 0.6228(9) 0.4753(5)
H9 H 0.3804 0.5847 0.4849
C20 C 0.5020(19) 0.6722(10) 0.5095(5)
H10 H 0.4804 0.6675 0.5416
C21 C 0.5905(15) 0.7244(7) 0.4940(4)
H11 H 0.6339 0.7541 0.5165
C22 C 0.6231(11) 0.7380(6) 0.4478(4)
H12 H 0.6814 0.7773 0.4395
C23 C 0.5655(10) 0.6904(5) 0.4116(3)
C24 C 0.5942(9) 0.7029(4) 0.3628(3)
C25 C 0.9348(18) 0.8486(10) 0.1991(8)
H13 H 0.9491 0.8647 0.2310
H14 H 0.9084 0.8885 0.1794
H15 H 1.0266 0.8275 0.1877
C26 C 0.775(2) 0.7766(11) 0.1359(8)
H16 H 0.7047 0.7394 0.1281
H17 H 0.8724 0.7651 0.1231
H18 H 0.7406 0.8209 0.1227
C27 C -0.121(2) 1.1654(9) 0.2423(6)
H19 H -0.1036 1.2100 0.2580
H20 H -0.1930 1.1379 0.2600
H21 H -0.1597 1.1741 0.2111
C28 C -0.007(2) 1.0446(7) 0.2048(7)
H22 H 0.0737 1.0112 0.2009
H23 H -0.0404 1.0611 0.1744
H24 H -0.0900 1.0217 0.2208
C29 C -0.112(5) 1.098(4) 0.3947(16)
H25 H -0.1138 1.1223 0.3648
H26 H -0.1328 1.1314 0.4196
H27 H -0.1866 1.0610 0.3948
C30 C 0.000(6) 1.005(3) 0.4510(14)
H28 H 0.0801 0.9959 0.4732
H29 H -0.0364 0.9610 0.4385
H30 H -0.0804 1.0298 0.4668
Cu1 Cu 0.46234(11) 0.76184(5) 0.25225(4)
Mn1 Mn 0.27279(16) 1.02228(7) 0.30948(5)
N1 N 0.5017(7) 0.8249(3) 0.3052(3)
N2 N 0.5337(8) 0.6733(3) 0.2809(3)
O1 O 0.2931(7) 0.8290(3) 0.2389(2)
O2 O 0.2029(7) 0.9308(3) 0.2662(2)
O3 O 0.4307(7) 0.9381(3) 0.3287(2)
O4 O 0.4536(9) 0.7031(3) 0.1933(2)
O5 O 0.5774(9) 0.6076(4) 0.1659(3)
O6 O 0.6157(7) 0.5617(3) 0.2556(2)
O7 O 0.6477(9) 0.8242(4) 0.2133(3)
O8 O 0.0853(9) 1.0905(4) 0.2876(3)
O9 O 0.1579(10) 1.0116(5) 0.3756(3)
S1 S 0.7878(4) 0.78454(18) 0.19748(17)
S2 S 0.0545(3) 1.11653(15) 0.23814(12)
S3 S 0.0711(10) 1.0596(6) 0.4037(4)
Mn1C Mn 0.72721(16) 0.52228(7) 0.19052(5)
O5C O 0.4226(9) 1.1076(4) 0.3341(3)
O6C O 0.3843(7) 1.0617(3) 0.2444(2)
C31 C 0.472(5) 0.946(2) 0.5344(6)
H31 H 0.4265 0.9026 0.5456
H32 H 0.3978 0.9834 0.5345
H33 H 0.5542 0.9589 0.5547
C32 C 0.530(6) 1.0297(11) 0.4653(16)
H34 H 0.5418 1.0401 0.4323
H35 H 0.6079 1.0530 0.4830
H36 H 0.4329 1.0467 0.4758
O10 O 0.3976(14) 0.9109(7) 0.4502(4)
S4 S 0.5412(9) 0.9329(5) 0.4746(3)
O11 O 0.217(3) 1.0636(10) 0.6048(9)
O12 O 0.589(4) 0.729(2) 0.0245(8)
O13 O 0.183(2) 0.7380(12) 0.1351(6)
O14 O 0.6477(14) 0.9731(8) 0.2258(6)
loop_
_geom_bond_atom_site_label_1
_geom_bond_atom_site_label_2
_geom_bond_site_symmetry_1
_geom_bond_site_symmetry_2
C1 C2 1_555 1_555
C2 O1 1_555 1_555
C3 C4 1_555 1_555
C4 O4 1_555 1_555
C5 C6 1_555 1_555
C6 H1 1_555 1_555
C7 C6 1_555 1_555
H2 C7 1_555 1_555
C8 C7 1_555 1_555
C9 C8 1_555 1_555
H3 C9 1_555 1_555
C10 C9 1_555 1_555
H4 C10 1_555 1_555
C11 C10 1_555 1_555
H5 C11 1_555 1_555
C12 C11 1_555 1_555
H6 C12 1_555 1_555
C13 C8 1_555 1_555
C14 C5 1_555 1_555
C15 C16 1_555 1_555
C16 H7 1_555 1_555
C17 C16 1_555 1_555
H8 C17 1_555 1_555
C18 C17 1_555 1_555
C19 C18 1_555 1_555
H9 C19 1_555 1_555
C20 C19 1_555 1_555
H10 C20 1_555 1_555
C21 C20 1_555 1_555
H11 C21 1_555 1_555
C22 C21 1_555 1_555
H12 C22 1_555 1_555
C23 C18 1_555 1_555
C24 C14 1_555 1_555
C25 H13 1_555 1_555
H14 C25 1_555 1_555
H15 C25 1_555 1_555
C26 H16 1_555 1_555
H17 C26 1_555 1_555
H18 C26 1_555 1_555
C27 H19 1_555 1_555
H20 C27 1_555 1_555
H21 C27 1_555 1_555
C28 H22 1_555 1_555
H23 C28 1_555 1_555
H24 C28 1_555 1_555
C29 H25 1_555 1_555
H26 C29 1_555 1_555
H27 C29 1_555 1_555
C30 H28 1_555 1_555
H29 C30 1_555 1_555
H30 C30 1_555 1_555
Cu1 N1 1_555 1_555
Mn1 O2 1_555 1_555
N1 C1 1_555 1_555
N2 C3 1_555 1_555
O1 Cu1 1_555 1_555
O2 C2 1_555 1_555
O3 C1 1_555 1_555
O4 Cu1 1_555 1_555
O5 C4 1_555 1_555
O6 C3 1_555 1_555
O7 Cu1 1_555 1_555
O8 Mn1 1_555 1_555
O9 Mn1 1_555 1_555
S1 C25 1_555 1_555
S2 C27 1_555 1_555
S3 C29 1_555 1_555
C31 H31 1_555 1_555
H32 C31 1_555 1_555
H33 C31 1_555 1_555
C32 H34 1_555 1_555
H35 C32 1_555 1_555
H36 C32 1_555 1_555
O10 S4 1_555 1_555
S4 C31 1_555 1_555
Mn1C O5 1_555 1_555
O5C Mn1 1_555 1_555
O6C Mn1 1_555 1_555
C5 N1 1_555 1_555
C12 C13 1_555 1_555
C13 C14 1_555 1_555
C15 C24 1_555 1_555
C15 N2 1_555 1_555
C22 C23 1_555 1_555
C23 C24 1_555 1_555
C26 S1 1_555 1_555
C28 S2 1_555 1_555
C30 S3 1_555 1_555
Cu1 N2 1_555 1_555
Mn1 O3 1_555 1_555
O6 Mn1C 1_555 1_555
O7 S1 1_555 1_555
O8 S2 1_555 1_555
O9 S3 1_555 1_555
C32 S4 1_555 1_555

#END
