
#######################################################################
#
#                 Cambridge Crystallographic Data Centre
#                                CCDC 
#
#######################################################################
#
# If this CIF has been generated from an entry in the Cambridge 
# Structural Database, then it will include bibliographic, chemical, 
# crystal, experimental, refinement or atomic coordinate data resulting 
# from the CCDC's data processing and validation procedures.
#
#######################################################################

data_UCIQIG01
_symmetry_cell_setting           triclinic
_symmetry_space_group_name_H-M   'P -1'
_symmetry_Int_Tables_number      2
_space_group_name_Hall           '-P 1'
loop_
_symmetry_equiv_pos_site_id
_symmetry_equiv_pos_as_xyz
1 x,y,z
2 -x,-y,-z
_cell_length_a                   9.588(1)
_cell_length_b                   10.8853(9)
_cell_length_c                   14.475(1)
_cell_angle_alpha                106.912(7)
_cell_angle_beta                 99.137(7)
_cell_angle_gamma                107.511(9)
_cell_volume                     1327.23
loop_
_atom_site_label
_atom_site_type_symbol
_atom_site_fract_x
_atom_site_fract_y
_atom_site_fract_z
Mn1 Mn 1.0000 0.0000 0.0000
N1 N 0.9956(3) 0.1444(2) 0.1216(2)
N2 N 0.8845(3) -0.1486(2) 0.0458(2)
C1 C 1.0598(3) 0.2855(3) 0.1475(2)
C2 C 1.0379(4) 0.3525(3) 0.2419(2)
C3 C 0.9621(4) 0.2540(3) 0.2727(2)
C4 C 0.9337(3) 0.1233(3) 0.1986(2)
C5 C 0.8575(3) -0.0045(3) 0.2040(2)
C6 C 0.6951(4) 0.0569(3) 0.3164(3)
C7 C 0.6455(4) 0.0612(3) 0.4018(3)
C8 C 0.6988(5) 0.0018(4) 0.4650(3)
C9 C 0.8003(4) -0.0616(4) 0.4428(3)
C10 C 0.8514(4) -0.0637(3) 0.3586(2)
C11 C 0.7997(4) -0.0040(3) 0.2942(2)
C12 C 0.8330(3) -0.1308(3) 0.1310(2)
C13 C 0.7499(4) -0.2625(3) 0.1323(2)
C14 C 0.7510(3) -0.3594(3) 0.0509(2)
C15 C 0.8343(3) -0.2900(3) -0.0042(2)
C16 C 1.1377(3) 0.3550(3) 0.0936(2)
C17 C 1.3476(4) 0.5869(3) 0.1780(2)
C18 C 1.3989(4) 0.7290(3) 0.2212(3)
C19 C 1.2988(4) 0.7954(3) 0.2200(3)
C20 C 1.1473(4) 0.7206(4) 0.1771(3)
C21 C 1.0955(4) 0.5781(3) 0.1350(3)
C22 C 1.1953(3) 0.5097(3) 0.1355(2)
N3 N 1.2352(3) 0.0086(3) 0.0815(2)
N4 N 1.4162(5) -0.3028(4) -0.0481(3)
C23 C 1.3294(4) -0.0153(4) 0.0496(3)
C24 C 1.4415(4) -0.0498(4) 0.0070(3)
C25 C 1.4282(4) -0.1911(4) -0.0243(3)
C16A C 0.8623(3) -0.3550(3) -0.0936(2)
C1A C 0.9402(3) -0.2855(3) -0.1475(2)
N1A N 1.0044(3) -0.1444(2) -0.1216(2)
C4A C 1.0663(3) -0.1233(3) -0.1986(2)
C3A C 1.0379(4) -0.2540(3) -0.2727(2)
C2A C 0.9621(4) -0.3525(3) -0.2419(2)
C5A C 1.1425(3) 0.0045(3) -0.2040(2)
C11A C 1.2003(4) 0.0040(3) -0.2942(2)
C6A C 1.3049(4) -0.0569(3) -0.3164(3)
C7A C 1.3545(4) -0.0612(3) -0.4018(3)
C8A C 1.3012(5) -0.0018(4) -0.4650(3)
C9A C 1.1997(4) 0.0616(4) -0.4428(3)
C10A C 1.1486(4) 0.0637(3) -0.3586(2)
C12A C 1.1670(3) 0.1308(3) -0.1310(2)
N2A N 1.1155(3) 0.1486(2) -0.0458(2)
C15A C 1.1657(3) 0.2900(3) 0.0042(2)
C14A C 1.2490(3) 0.3594(3) -0.0509(2)
C13A C 1.2501(4) 0.2625(3) -0.1323(2)
C22A C 0.8047(3) -0.5097(3) -0.1355(2)
C17A C 0.6524(4) -0.5869(3) -0.1780(2)
C18A C 0.6011(4) -0.7290(3) -0.2212(3)
C19A C 0.7012(4) -0.7954(3) -0.2200(3)
C20A C 0.8527(4) -0.7206(4) -0.1771(3)
C21A C 0.9045(4) -0.5781(3) -0.1350(3)
C24A C 1.5585(4) 0.0498(4) -0.0070(3)
C23A C 1.6706(4) 0.0153(4) -0.0496(3)
N3A N 1.7648(3) -0.0086(3) -0.0815(2)
C25A C 1.5718(4) 0.1911(4) 0.0243(3)
N4A N 1.5838(5) 0.3028(4) 0.0481(3)
N3A_2 N 0.7648(3) -0.0086(3) -0.0815(2)
Mn1_2 Mn 2.0000 0.0000 0.0000
C26 C 0.6098(5) -0.6042(4) -0.5392(3)
C27 C 0.5056(5) -0.6678(4) -0.6325(3)
C28 C 0.5457(6) -0.6354(5) -0.7128(3)
C29 C 0.6855(7) -0.5391(5) -0.6994(3)
C30 C 0.7873(6) -0.4753(4) -0.6056(3)
C31 C 0.7492(5) -0.5074(4) -0.5255(3)
Cl1 Cl 0.5668(2) -0.6456(1) -0.4380(1)
Cl2 Cl 0.3276(2) -0.7879(1) -0.6521(1)
Cl3 Cl 0.9642(2) -0.3518(1) -0.5856(1)
loop_
_geom_bond_atom_site_label_1
_geom_bond_atom_site_label_2
_geom_bond_site_symmetry_1
_geom_bond_site_symmetry_2
Mn1 N1 1_555 1_555
N1 C1 1_555 1_555
N2 Mn1 1_555 1_555
C1 C2 1_555 1_555
C2 C3 1_555 1_555
C3 C4 1_555 1_555
C4 N1 1_555 1_555
C5 C4 1_555 1_555
C6 C7 1_555 1_555
C7 C8 1_555 1_555
C8 C9 1_555 1_555
C9 C10 1_555 1_555
C10 C11 1_555 1_555
C11 C5 1_555 1_555
C12 N2 1_555 1_555
C13 C12 1_555 1_555
C14 C13 1_555 1_555
C15 N2 1_555 1_555
C16 C1 1_555 1_555
C17 C18 1_555 1_555
C18 C19 1_555 1_555
C19 C20 1_555 1_555
C20 C21 1_555 1_555
C21 C22 1_555 1_555
C22 C16 1_555 1_555
N3 Mn1 1_555 1_555
N4 C25 1_555 1_555
C23 N3 1_555 1_555
C24 C23 1_555 1_555
C25 C24 1_555 1_555
C26 C27 1_555 1_555
C27 C28 1_555 1_555
C28 C29 1_555 1_555
C29 C30 1_555 1_555
C30 C31 1_555 1_555
C31 C26 1_555 1_555
Cl1 C26 1_555 1_555
Cl2 C27 1_555 1_555
Cl3 C30 1_555 1_555
C16A C15 1_555 1_555
C1A C16A 1_555 1_555
N1A Mn1 1_555 1_555
C4A N1A 1_555 1_555
C3A C4A 1_555 1_555
C2A C1A 1_555 1_555
C5A C4A 1_555 1_555
C11A C5A 1_555 1_555
C6A C11A 1_555 1_555
C7A C6A 1_555 1_555
C8A C7A 1_555 1_555
C9A C8A 1_555 1_555
C10A C11A 1_555 1_555
C12A C5A 1_555 1_555
N2A Mn1 1_555 1_555
C15A C16 1_555 1_555
C14A C15A 1_555 1_555
C13A C12A 1_555 1_555
C22A C16A 1_555 1_555
C17A C22A 1_555 1_555
C18A C17A 1_555 1_555
C19A C18A 1_555 1_555
C20A C19A 1_555 1_555
C21A C22A 1_555 1_555
C24A C24 1_555 1_555
C23A C24A 1_555 1_555
N3A C23A 1_555 1_555
C25A C24A 1_555 1_555
N4A C25A 1_555 1_555
N3A_2 Mn1 1_555 1_555
Mn1_2 N3A 1_555 1_555
C5 C12 1_555 1_555
C6 C11 1_555 1_555
C14 C15 1_555 1_555
C17 C22 1_555 1_555
C1A N1A 1_555 1_555
C3A C2A 1_555 1_555
C9A C10A 1_555 1_555
C12A N2A 1_555 1_555
N2A C15A 1_555 1_555
C14A C13A 1_555 1_555
C20A C21A 1_555 1_555

#END
