
#######################################################################
#
#                 Cambridge Crystallographic Data Centre
#                                CCDC 
#
#######################################################################
#
# If this CIF has been generated from an entry in the Cambridge 
# Structural Database, then it will include bibliographic, chemical, 
# crystal, experimental, refinement or atomic coordinate data resulting 
# from the CCDC's data processing and validation procedures.
#
#######################################################################

data_UCIQAY01
_symmetry_cell_setting           triclinic
_symmetry_space_group_name_H-M   'P -1'
_symmetry_Int_Tables_number      2
_space_group_name_Hall           '-P 1'
loop_
_symmetry_equiv_pos_site_id
_symmetry_equiv_pos_as_xyz
1 x,y,z
2 -x,-y,-z
_cell_length_a                   9.261(3)
_cell_length_b                   10.218(2)
_cell_length_c                   13.294(3)
_cell_angle_alpha                98.88(2)
_cell_angle_beta                 94.63(2)
_cell_angle_gamma                110.64(2)
_cell_volume                     1150.65
loop_
_atom_site_label
_atom_site_type_symbol
_atom_site_fract_x
_atom_site_fract_y
_atom_site_fract_z
C26 C 0.1575(8) 0.7148(7) 0.5956(6)
C27 C 0.1316(5) 0.6056(6) 0.6256(4)
C28 C 0.0243(4) 0.4881(5) 0.5450(3)
C29 C -0.0255(5) 0.3426(6) 0.5660(3)
C30 C 0.1126(8) 0.7376(7) 0.5092(6)
C28A C -0.0243(4) 0.5119(5) 0.4550(3)
C27A C -0.1316(5) 0.3944(6) 0.3744(4)
C26A C -0.1575(8) 0.2852(7) 0.4044(6)
C30A C -0.1126(8) 0.2624(7) 0.4908(6)
C29A C 0.0255(5) 0.6574(6) 0.4340(3)
Mn1 Mn 0.0000 0.0000 0.0000
N1 N -0.0530(2) 0.2042(2) 0.0228(2)
N2 N -0.1802(3) 0.5663(2) 0.1640(2)
N3 N 0.0555(2) 0.0251(2) -0.1408(1)
N4 N 0.2229(2) 0.1136(2) 0.0621(2)
C1 C -0.0518(3) 0.3177(2) 0.0294(2)
C2 C -0.0443(3) 0.4586(2) 0.0324(2)
C3 C -0.1211(3) 0.5163(2) 0.1050(2)
C4 C -0.0436(3) -0.0300(2) -0.2332(2)
C5 C 0.0412(3) 0.0135(3) -0.3151(2)
C6 C 0.1898(3) 0.0917(3) -0.2735(2)
C7 C 0.2004(3) 0.0986(2) -0.1643(2)
C8 C 0.3369(3) 0.1673(2) -0.0955(2)
C9 C 0.3458(3) 0.1723(2) 0.0099(2)
C10 C 0.4856(3) 0.2442(3) 0.0822(2)
C11 C 0.4484(3) 0.2313(3) 0.1770(2)
C12 C 0.2847(3) 0.1497(2) 0.1654(2)
C13 C -0.2019(3) -0.1141(2) -0.2464(2)
C14 C -0.2868(3) -0.1732(3) -0.3538(2)
C15 C -0.2667(3) -0.2881(3) -0.4114(2)
C16 C -0.3463(4) -0.3463(4) -0.5110(3)
C17 C -0.4455(3) -0.2899(4) -0.5526(2)
C18 C -0.4662(4) -0.1770(4) -0.4960(2)
C19 C -0.3882(4) -0.1179(3) -0.3968(2)
C20 C 0.4836(3) 0.2426(2) -0.1365(2)
C21 C 0.5790(3) 0.1716(3) -0.1714(2)
C22 C 0.7122(3) 0.2417(3) -0.2116(2)
C23 C 0.7522(3) 0.3832(3) -0.2173(2)
C24 C 0.6618(3) 0.4561(3) -0.1805(2)
C25 C 0.5273(3) 0.3860(3) -0.1403(2)
C2A C 0.0443(3) 0.5414(2) -0.0324(2)
C1A C 0.0518(3) 0.6823(2) -0.0294(2)
N1A N 0.0530(2) 0.7958(2) -0.0228(2)
C3A C 0.1211(3) 0.4837(2) -0.1050(2)
N2A N 0.1802(3) 0.4337(2) -0.1640(2)
C13A C 0.2019(3) 0.1141(2) 0.2464(2)
C4A C 0.0436(3) 0.0300(2) 0.2332(2)
N3A N -0.0555(2) -0.0251(2) 0.1408(1)
C7A C -0.2004(3) -0.0986(2) 0.1643(2)
C6A C -0.1898(3) -0.0917(3) 0.2735(2)
C5A C -0.0412(3) -0.0135(3) 0.3151(2)
C8A C -0.3369(3) -0.1673(2) 0.0955(2)
C9A C -0.3458(3) -0.1723(2) -0.0099(2)
N4A N -0.2229(2) -0.1136(2) -0.0621(2)
C12A C -0.2847(3) -0.1497(2) -0.1654(2)
C11A C -0.4484(3) -0.2313(3) -0.1770(2)
C10A C -0.4856(3) -0.2442(3) -0.0822(2)
C20A C -0.4836(3) -0.2426(2) 0.1365(2)
C21A C -0.5790(3) -0.1716(3) 0.1714(2)
C22A C -0.7122(3) -0.2417(3) 0.2116(2)
C23A C -0.7522(3) -0.3832(3) 0.2173(2)
C24A C -0.6618(3) -0.4561(3) 0.1805(2)
C25A C -0.5273(3) -0.3860(3) 0.1403(2)
C14A C 0.2868(3) 0.1732(3) 0.3538(2)
C15A C 0.2667(3) 0.2881(3) 0.4114(2)
C16A C 0.3463(4) 0.3463(4) 0.5110(3)
C17A C 0.4455(3) 0.2899(4) 0.5526(2)
C18A C 0.4662(4) 0.1770(4) 0.4960(2)
C19A C 0.3882(4) 0.1179(3) 0.3968(2)
N1A_2 N 0.0530(2) -0.2042(2) -0.0228(2)
Mn1_2 Mn 0.0000 1.0000 0.0000
loop_
_geom_bond_atom_site_label_1
_geom_bond_atom_site_label_2
_geom_bond_site_symmetry_1
_geom_bond_site_symmetry_2
Mn1 N1 1_555 1_555
N1 C1 1_555 1_555
N2 C3 1_555 1_555
N3 Mn1 1_555 1_555
N4 Mn1 1_555 1_555
C1 C2 1_555 1_555
C2 C3 1_555 1_555
C4 N3 1_555 1_555
C5 C4 1_555 1_555
C6 C5 1_555 1_555
C7 N3 1_555 1_555
C8 C7 1_555 1_555
C9 N4 1_555 1_555
C10 C9 1_555 1_555
C11 C10 1_555 1_555
C12 N4 1_555 1_555
C13 C4 1_555 1_555
C14 C13 1_555 1_555
C15 C14 1_555 1_555
C16 C15 1_555 1_555
C17 C16 1_555 1_555
C18 C17 1_555 1_555
C19 C14 1_555 1_555
C20 C8 1_555 1_555
C21 C20 1_555 1_555
C22 C21 1_555 1_555
C23 C22 1_555 1_555
C24 C23 1_555 1_555
C25 C20 1_555 1_555
C26 C27 1_555 1_555
C27 C28 1_555 1_555
C28 C29 1_555 1_555
C29 C30A 1_555 1_555
C30 C26 1_555 1_555
C2A C2 1_555 1_555
C1A C2A 1_555 1_555
N1A C1A 1_555 1_555
C3A C2A 1_555 1_555
N2A C3A 1_555 1_555
C13A C12 1_555 1_555
C4A C13A 1_555 1_555
N3A Mn1 1_555 1_555
C7A N3A 1_555 1_555
C6A C7A 1_555 1_555
C5A C4A 1_555 1_555
C8A C7A 1_555 1_555
C9A C8A 1_555 1_555
N4A Mn1 1_555 1_555
C12A C13 1_555 1_555
C11A C12A 1_555 1_555
C10A C9A 1_555 1_555
C20A C8A 1_555 1_555
C21A C20A 1_555 1_555
C22A C21A 1_555 1_555
C23A C22A 1_555 1_555
C24A C23A 1_555 1_555
C25A C20A 1_555 1_555
C14A C13A 1_555 1_555
C15A C14A 1_555 1_555
C16A C15A 1_555 1_555
C17A C16A 1_555 1_555
C18A C17A 1_555 1_555
C19A C14A 1_555 1_555
C28A C28 1_555 1_555
C27A C28A 1_555 1_555
C26A C27A 1_555 1_555
C30A C26A 1_555 1_555
C29A C30 1_555 1_555
N1A_2 Mn1 1_555 1_555
Mn1_2 N1A 1_555 1_555
C6 C7 1_555 1_555
C8 C9 1_555 1_555
C11 C12 1_555 1_555
C18 C19 1_555 1_555
C24 C25 1_555 1_555
C4A N3A 1_555 1_555
C6A C5A 1_555 1_555
C9A N4A 1_555 1_555
N4A C12A 1_555 1_555
C11A C10A 1_555 1_555
C24A C25A 1_555 1_555
C18A C19A 1_555 1_555
C28A C29A 1_555 1_555

#END
