
#######################################################################
#
#                 Cambridge Crystallographic Data Centre
#                                CCDC 
#
#######################################################################
#
# If this CIF has been generated from an entry in the Cambridge 
# Structural Database, then it will include bibliographic, chemical, 
# crystal, experimental, refinement or atomic coordinate data resulting 
# from the CCDC's data processing and validation procedures.
#
#######################################################################

data_UCIREF
_symmetry_cell_setting           monoclinic
_symmetry_space_group_name_H-M   'P 21/c'
_symmetry_Int_Tables_number      14
_space_group_name_Hall           '-P 2ybc'
loop_
_symmetry_equiv_pos_site_id
_symmetry_equiv_pos_as_xyz
1 x,y,z
2 -x,1/2+y,1/2-z
3 -x,-y,-z
4 x,1/2-y,1/2+z
_cell_length_a                   7.299(2)
_cell_length_b                   12.154(4)
_cell_length_c                   14.759(4)
_cell_angle_alpha                90
_cell_angle_beta                 90.353(4)
_cell_angle_gamma                90
_cell_volume                     1309.28
loop_
_atom_site_label
_atom_site_type_symbol
_atom_site_fract_x
_atom_site_fract_y
_atom_site_fract_z
Ni1 Ni 0.20334(7) 0.01370(4) 0.52441(4)
S1 S -0.07679(14) 0.00044(8) 0.60971(7)
S2 S 0.37338(16) 0.03257(9) 0.64719(7)
S3 S 0.22059(14) 0.19285(8) 0.49948(7)
N1 N -0.0811(5) 0.1657(3) 0.7271(2)
N2 N 0.2811(5) 0.3533(3) 0.6190(2)
N3 N 0.3994(5) 0.2066(3) 0.7538(2)
C1 C 0.3519(6) 0.1713(3) 0.6721(3)
C2 C 0.2888(6) 0.2454(3) 0.6042(3)
N4 N -0.2235(5) 0.3167(3) 0.5998(3)
C3 C 0.3853(6) 0.3153(4) 0.7686(3)
H1 H 0.4143 0.3429 0.8257
C4 C -0.1252(6) 0.1352(3) 0.6427(3)
C5 C 0.3293(6) 0.3873(4) 0.7020(3)
H2 H 0.3248 0.4621 0.7151
C6 C -0.1764(7) 0.3459(4) 0.6840(3)
H3 H -0.1884 0.4193 0.7007
C7 C -0.1105(7) 0.2716(4) 0.7476(3)
H4 H -0.0860 0.2960 0.8062
S4 S -0.27230(15) 0.16276(8) 0.47417(7)
C8 C -0.2029(6) 0.2084(3) 0.5788(3)
Ni1B Ni -0.20334(7) -0.01370(4) 0.47559(4)
S1B S 0.07679(14) -0.00044(8) 0.39029(7)
S4B S 0.27230(15) -0.16276(8) 0.52583(7)
Na1 Na 0.2512(3) 0.50981(15) 0.50292(12)
O1 O 0.5128(5) 0.5965(3) 0.5781(2)
O2 O 0.0053(5) 0.4141(3) 0.4134(2)
loop_
_geom_bond_atom_site_label_1
_geom_bond_atom_site_label_2
_geom_bond_site_symmetry_1
_geom_bond_site_symmetry_2
Ni1 S1 1_555 1_555
S1 C4 1_555 1_555
S2 Ni1 1_555 1_555
S3 Ni1 1_555 1_555
N1 C4 1_555 1_555
N2 C2 1_555 1_555
N3 C1 1_555 1_555
C1 S2 1_555 1_555
C2 S3 1_555 1_555
N4 C6 1_555 1_555
C3 N3 1_555 1_555
H1 C3 1_555 1_555
C4 C8 1_555 1_555
C5 N2 1_555 1_555
H2 C5 1_555 1_555
C6 H3 1_555 1_555
C7 N1 1_555 1_555
H4 C7 1_555 1_555
S4 C8 1_555 1_555
C8 N4 1_555 1_555
Ni1B S1 1_555 1_555
S1B Ni1 1_555 1_555
S4B Ni1 1_555 1_555
C1 C2 1_555 1_555
C3 C5 1_555 1_555
C6 C7 1_555 1_555
S4 Ni1B 1_555 1_555
Ni1B S1B 1_555 1_555

#END
