
#######################################################################
#
#                 Cambridge Crystallographic Data Centre
#                                CCDC 
#
#######################################################################
#
# If this CIF has been generated from an entry in the Cambridge 
# Structural Database, then it will include bibliographic, chemical, 
# crystal, experimental, refinement or atomic coordinate data resulting 
# from the CCDC's data processing and validation procedures.
#
#######################################################################

data_UCISEF
_symmetry_cell_setting           monoclinic
_symmetry_space_group_name_H-M   'P 21/n'
_symmetry_Int_Tables_number      14
_space_group_name_Hall           '-P 2yn'
loop_
_symmetry_equiv_pos_site_id
_symmetry_equiv_pos_as_xyz
1 x,y,z
2 1/2-x,1/2+y,1/2-z
3 -x,-y,-z
4 1/2+x,1/2-y,1/2+z
_cell_length_a                   13.1714(6)
_cell_length_b                   16.3264(8)
_cell_length_c                   18.3847(8)
_cell_angle_alpha                90
_cell_angle_beta                 93.276(3)
_cell_angle_gamma                90
_cell_volume                     3947.01
loop_
_atom_site_label
_atom_site_type_symbol
_atom_site_fract_x
_atom_site_fract_y
_atom_site_fract_z
C1 C 0.0000(5) 0.0033(4) 0.2705(4)
C2 C -0.0459(5) 0.0778(4) 0.2481(3)
H1 H -0.1074 0.0763 0.2185
C3 C -0.0048(5) 0.1525(4) 0.2676(4)
C4 C 0.0841(5) 0.1546(4) 0.3114(4)
C5 C 0.1321(5) 0.0825(5) 0.3351(3)
C6 C 0.0906(5) 0.0076(4) 0.3136(4)
C7 C -0.0514(5) 0.2351(4) 0.2429(4)
H2 H -0.0555 0.2697 0.2875
C8 C 0.0171(5) 0.2797(4) 0.1923(4)
C9 C 0.0753(5) 0.2401(4) 0.1424(4)
H3 H 0.0722 0.1820 0.1401
C10 C 0.1375(5) 0.2803(4) 0.0960(4)
C11 C 0.1426(5) 0.3659(4) 0.1005(4)
C12 C 0.0878(5) 0.4069(4) 0.1510(4)
C13 C 0.0238(5) 0.3663(4) 0.1964(4)
C14 C 0.1998(5) 0.2352(4) 0.0416(4)
H4 H 0.2620 0.2686 0.0343
C15 C 0.2351(5) 0.1515(4) 0.0710(4)
C16 C 0.1977(5) 0.0777(4) 0.0452(3)
H5 H 0.1453 0.0785 0.0074
C17 C 0.2322(5) 0.0019(4) 0.0712(4)
C18 C 0.3081(5) 0.0030(4) 0.1281(4)
C19 C 0.3465(5) 0.0749(4) 0.1555(3)
C20 C 0.3117(5) 0.1493(4) 0.1265(4)
C21 C 0.1934(5) -0.0796(5) 0.0418(3)
H6 H 0.2545 -0.1136 0.0327
C22 C 0.1325(5) -0.1267(4) 0.0968(4)
C23 C 0.0760(5) -0.0867(4) 0.1474(3)
H7 H 0.0765 -0.0285 0.1476
C24 C 0.0188(5) -0.1264(4) 0.1976(4)
C25 C 0.0178(5) -0.2122(4) 0.1956(4)
C26 C 0.0712(5) -0.2544(4) 0.1451(4)
C27 C 0.1301(5) -0.2131(4) 0.0957(4)
C28 C -0.0438(5) -0.0812(4) 0.2512(3)
H8 H -0.0404 -0.1141 0.2972
C29 C -0.1583(5) 0.2312(5) 0.2064(4)
H9 H -0.1832 0.2868 0.1964
H10 H -0.2038 0.2033 0.2387
H11 H -0.1565 0.2008 0.1605
C30 C 0.1384(6) 0.2301(5) -0.0326(4)
H12 H 0.1792 0.2023 -0.0681
H13 H 0.1216 0.2855 -0.0499
H14 H 0.0755 0.1993 -0.0268
C31 C 0.1291(5) -0.0750(5) -0.0308(3)
H15 H 0.0662 -0.0448 -0.0236
H16 H 0.1125 -0.1306 -0.0479
H17 H 0.1678 -0.0467 -0.0673
C32 C -0.1555(5) -0.0798(5) 0.2232(4)
H18 H -0.1959 -0.0508 0.2582
H19 H -0.1806 -0.1361 0.2174
H20 H -0.1617 -0.0516 0.1761
O1 O 0.1331(4) 0.2272(3) 0.3333(3)
H21 H 0.0919 0.2580 0.3533
O2 O 0.2186(4) 0.0834(3) 0.3806(3)
H22 H 0.2417 0.1314 0.3836
O3 O 0.1385(4) -0.0650(3) 0.3356(3)
H23 H 0.1814 -0.0554 0.3700
O4 O 0.2043(4) 0.4150(3) 0.0613(2)
H24 H 0.2214 0.3896 0.0242
O5 O 0.0967(4) 0.4906(3) 0.1606(3)
H25 H 0.1286 0.5108 0.1266
O6 O -0.0279(4) 0.4077(3) 0.2479(3)
H26 H -0.0456 0.4539 0.2315
O7 O 0.3421(3) -0.0717(3) 0.1578(3)
H27 H 0.4047 -0.0687 0.1690
O8 O 0.4269(3) 0.0770(3) 0.2075(2)
H28 H 0.4068 0.0614 0.2477
O9 O 0.3535(4) 0.2216(3) 0.1537(3)
H29 H 0.4014 0.2109 0.1844
O10 O -0.0334(4) -0.2536(3) 0.2474(3)
H30 H -0.0763 -0.2852 0.2267
O11 O 0.0706(4) -0.3386(3) 0.1425(3)
H31 H 0.0137 -0.3560 0.1541
O12 O 0.1808(4) -0.2622(3) 0.0497(3)
H32 H 0.2236 -0.2341 0.0285
K1 K 0.25490(13) 0.32236(10) 0.25025(10)
C22A C 0.3675(5) 0.3733(4) 0.4032(4)
C23A C 0.4240(5) 0.4133(4) 0.3526(3)
H7A H 0.4235 0.4715 0.3524
C24A C 0.4812(5) 0.3736(4) 0.3024(4)
C25A C 0.4822(5) 0.2878(4) 0.3044(4)
C26A C 0.4288(5) 0.2456(4) 0.3549(4)
C27A C 0.3699(5) 0.2869(4) 0.4043(4)
O3A O 0.3615(4) 0.4350(3) 0.1644(3)
H23A H 0.3186 0.4446 0.1300
O7A O 0.1579(3) 0.4283(3) 0.3422(3)
H27A H 0.0953 0.4313 0.3310
K1A K 0.24510(13) -0.17764(10) 0.24975(10)
Br1 Br -0.15216(6) -0.42223(5) 0.19811(4)
O13 O 0.3023(5) 0.3836(4) -0.0567(3)
H33 H 0.2690 0.3888 -0.0968
C33 C 0.3868(7) 0.4390(6) -0.0539(5)
H34 H 0.3620 0.4951 -0.0610
H35 H 0.4323 0.4251 -0.0924
H36 H 0.4239 0.4346 -0.0063
O14 O 0.3374(5) -0.2232(4) -0.0388(3)
H37 H 0.3510 -0.1830 -0.0650
C34 C 0.3767(8) -0.2967(6) -0.0698(6)
H38 H 0.4489 -0.2893 -0.0781
H39 H 0.3392 -0.3084 -0.1162
H40 H 0.3687 -0.3425 -0.0361
O15 O 0.0639(5) -0.4301(4) 0.0163(4)
H41 H 0.0374 -0.4769 0.0153
C35 C 0.1314(6) -0.4241(6) -0.0381(4)
H43 H 0.1136 -0.3767 -0.0690
H44 H 0.1280 -0.4740 -0.0678
H45 H 0.2005 -0.4173 -0.0163
O16 O 0.3520(6) -0.0947(4) -0.1241(3)
H46 H 0.3566 -0.0931 -0.1694
C36 C 0.3985(9) -0.0255(7) -0.0925(6)
H47 H 0.3623 -0.0091 -0.0497
H48 H 0.3965 0.0194 -0.1280
H49 H 0.4694 -0.0382 -0.0776
O17 O 0.0247(5) 0.3170(5) 0.4232(4)
H50 H 0.0642 0.3068 0.4596
C37 C -0.0734(8) 0.3074(8) 0.4414(7)
H51 H -0.0841 0.3377 0.4863
H52 H -0.0872 0.2491 0.4490
H53 H -0.1194 0.3284 0.4020
H42? H 0.0325 -0.3856 0.0197
loop_
_geom_bond_atom_site_label_1
_geom_bond_atom_site_label_2
_geom_bond_site_symmetry_1
_geom_bond_site_symmetry_2
C1 C2 1_555 1_555
C2 H1 1_555 1_555
C3 C2 1_555 1_555
C4 C3 1_555 1_555
C5 C4 1_555 1_555
C6 C1 1_555 1_555
C7 C3 1_555 1_555
H2 C7 1_555 1_555
C8 C7 1_555 1_555
C9 C8 1_555 1_555
H3 C9 1_555 1_555
C10 C9 1_555 1_555
C11 C10 1_555 1_555
C12 C11 1_555 1_555
C13 C8 1_555 1_555
C14 C10 1_555 1_555
H4 C14 1_555 1_555
C15 C14 1_555 1_555
C16 C15 1_555 1_555
H5 C16 1_555 1_555
C17 C16 1_555 1_555
C18 C17 1_555 1_555
C19 C18 1_555 1_555
C20 C15 1_555 1_555
C21 C17 1_555 1_555
H6 C21 1_555 1_555
C22 C21 1_555 1_555
C23 C22 1_555 1_555
H7 C23 1_555 1_555
C24 C23 1_555 1_555
C25 C24 1_555 1_555
C26 C25 1_555 1_555
C27 C22 1_555 1_555
C28 C1 1_555 1_555
H8 C28 1_555 1_555
C29 C7 1_555 1_555
H9 C29 1_555 1_555
H10 C29 1_555 1_555
H11 C29 1_555 1_555
C30 C14 1_555 1_555
H12 C30 1_555 1_555
H13 C30 1_555 1_555
H14 C30 1_555 1_555
C31 C21 1_555 1_555
H15 C31 1_555 1_555
H16 C31 1_555 1_555
H17 C31 1_555 1_555
C32 C28 1_555 1_555
H18 C32 1_555 1_555
H19 C32 1_555 1_555
H20 C32 1_555 1_555
O1 C4 1_555 1_555
H21 O1 1_555 1_555
O2 C5 1_555 1_555
H22 O2 1_555 1_555
O3 C6 1_555 1_555
H23 O3 1_555 1_555
O4 C11 1_555 1_555
H24 O4 1_555 1_555
O5 C12 1_555 1_555
H25 O5 1_555 1_555
O6 C13 1_555 1_555
H26 O6 1_555 1_555
O7 C18 1_555 1_555
H27 O7 1_555 1_555
O8 C19 1_555 1_555
H28 O8 1_555 1_555
O9 C20 1_555 1_555
H29 O9 1_555 1_555
O10 C25 1_555 1_555
H30 O10 1_555 1_555
O11 C26 1_555 1_555
H31 O11 1_555 1_555
O12 C27 1_555 1_555
H32 O12 1_555 1_555
K1 C8 1_555 1_555
O13 H33 1_555 1_555
C33 O13 1_555 1_555
H34 C33 1_555 1_555
H35 C33 1_555 1_555
H36 C33 1_555 1_555
O14 H37 1_555 1_555
C34 O14 1_555 1_555
H38 C34 1_555 1_555
H39 C34 1_555 1_555
H40 C34 1_555 1_555
O15 H41 1_555 1_555
C35 O15 1_555 1_555
H43 C35 1_555 1_555
H44 C35 1_555 1_555
H45 C35 1_555 1_555
O16 H46 1_555 1_555
C36 O16 1_555 1_555
H47 C36 1_555 1_555
H48 C36 1_555 1_555
H49 C36 1_555 1_555
O17 H50 1_555 1_555
C37 O17 1_555 1_555
H51 C37 1_555 1_555
H52 C37 1_555 1_555
H53 C37 1_555 1_555
C22A K1 1_555 1_555
C23A K1 1_555 1_555
H7A C23A 1_555 1_555
C24A K1 1_555 1_555
C25A K1 1_555 1_555
C26A K1 1_555 1_555
C27A K1 1_555 1_555
O3A K1 1_555 1_555
H23A O3A 1_555 1_555
O7A K1 1_555 1_555
H27A O7A 1_555 1_555
K1A C22 1_555 1_555
C5 C6 1_555 1_555
C9 K1 1_555 1_555
C10 K1 1_555 1_555
C11 K1 1_555 1_555
C12 C13 1_555 1_555
C12 K1 1_555 1_555
C13 K1 1_555 1_555
C19 C20 1_555 1_555
C23 K1A 1_555 1_555
C24 C28 1_555 1_555
C24 K1A 1_555 1_555
C25 K1A 1_555 1_555
C26 C27 1_555 1_555
C26 K1A 1_555 1_555
C27 K1A 1_555 1_555
O1 K1 1_555 1_555
O3 K1A 1_555 1_555
O7 K1A 1_555 1_555
O9 K1 1_555 1_555
C22A C23A 1_555 1_555
C22A C27A 1_555 1_555
C23A C24A 1_555 1_555
C24A C25A 1_555 1_555
C25A C26A 1_555 1_555
C26A C27A 1_555 1_555

#END
