
#######################################################################
#
#                 Cambridge Crystallographic Data Centre
#                                CCDC 
#
#######################################################################
#
# If this CIF has been generated from an entry in the Cambridge 
# Structural Database, then it will include bibliographic, chemical, 
# crystal, experimental, refinement or atomic coordinate data resulting 
# from the CCDC's data processing and validation procedures.
#
#######################################################################

data_UCITOR
_symmetry_cell_setting           triclinic
_symmetry_space_group_name_H-M   'P -1'
_symmetry_Int_Tables_number      2
_space_group_name_Hall           '-P 1'
loop_
_symmetry_equiv_pos_site_id
_symmetry_equiv_pos_as_xyz
1 x,y,z
2 -x,-y,-z
_cell_length_a                   11.9276(9)
_cell_length_b                   12.5672(10)
_cell_length_c                   25.0317(19)
_cell_angle_alpha                100.238(3)
_cell_angle_beta                 96.555(3)
_cell_angle_gamma                100.003(3)
_cell_volume                     3595.34
loop_
_atom_site_label
_atom_site_type_symbol
_atom_site_fract_x
_atom_site_fract_y
_atom_site_fract_z
Ag2 Ag 1.10584(6) -0.10809(6) 0.17957(3)
O1 O 1.2450(4) 0.0537(4) 0.1842(2)
H1 H 1.2183 0.0975 0.1662
H2 H 1.3058 0.0390 0.1724
O8 O 1.2109(7) -0.2422(7) 0.3249(3)
O9 O 1.1356(7) -0.0917(7) 0.3190(3)
O10 O 1.2011(7) -0.1838(7) 0.2468(3)
N2 N 1.1921(9) -0.1652(9) 0.2964(4)
O11 O 1.2049(5) -0.2288(4) 0.0925(2)
O12 O 1.0646(4) -0.2948(4) 0.1309(2)
O13 O 1.1254(6) -0.3946(6) 0.0611(3)
N3 N 1.1265(7) -0.2991(6) 0.0942(2)
C1 C 0.9010(4) -0.0369(4) 0.0801(2)
C2 C 0.7106(4) -0.1103(4) 0.0356(2)
C3 C 0.7596(4) -0.0005(4) 0.01594(19)
C4 C 0.5966(4) 0.0217(4) 0.05822(19)
C5 C 0.9621(4) 0.1242(5) 0.0401(2)
H3 H 1.0384 0.1103 0.0502
H4 H 0.9554 0.1322 0.0021
C6 C 0.6823(4) 0.1826(4) 0.02497(18)
H5 H 0.6991 0.1833 -0.0120
H6 H 0.6049 0.1962 0.0262
C7 C 1.0360(4) 0.2827(4) 0.1184(2)
C8 C 0.8813(4) 0.2993(4) 0.05538(19)
H7 H 0.8888 0.3070 0.0176
C9 C 0.9245(4) 0.4098(4) 0.0961(2)
H8 H 0.9586 0.4678 0.0779
C10 C 0.7271(4) 0.3542(4) 0.09559(19)
C11 C 1.0835(4) 0.4683(5) 0.1777(2)
H9 H 1.1518 0.4415 0.1897
H10 H 1.1081 0.5323 0.1621
C12 C 0.8153(5) 0.5452(4) 0.1446(2)
H11 H 0.8632 0.5990 0.1292
H12 H 0.7363 0.5543 0.1370
C13 C 1.0611(4) 0.4758(4) 0.2743(2)
C14 C 0.9684(4) 0.5927(4) 0.2312(2)
H13 H 1.0123 0.6587 0.2219
C15 C 0.9532(5) 0.6129(4) 0.2930(2)
H14 H 0.9863 0.6891 0.3120
C16 C 0.7726(5) 0.5635(4) 0.2387(2)
C17 C 1.0459(4) 0.5418(5) 0.3720(2)
H15 H 1.0544 0.6178 0.3908
H16 H 1.1204 0.5212 0.3777
C18 C 0.7730(5) 0.5937(4) 0.3386(3)
H17 H 0.6938 0.5994 0.3280
H18 H 0.8102 0.6607 0.3647
C19 C 0.9790(4) 0.3684(4) 0.40207(19)
C20 C 0.8565(4) 0.4982(5) 0.4128(2)
C21 C 0.8008(4) 0.3882(5) 0.4317(2)
C22 C 0.6797(4) 0.4148(4) 0.3558(2)
C23 C 0.8847(5) 0.2116(4) 0.43583(19)
H19 H 0.8580 0.2123 0.4711
H20 H 0.9630 0.1992 0.4400
C24 C 0.6039(4) 0.2554(5) 0.3966(3)
H21 H 0.6008 0.2521 0.4349
H22 H 0.5300 0.2672 0.3810
C25 C 0.8556(4) 0.0446(4) 0.36126(18)
C26 C 0.6893(4) 0.0863(5) 0.3950(2)
H23 H 0.6703 0.0822 0.4318
C27 C 0.6605(4) -0.0282(5) 0.3564(2)
H24 H 0.6400 -0.0877 0.3762
C28 C 0.5399(5) 0.0875(5) 0.3265(2)
C29 C 0.7824(5) -0.1415(4) 0.3038(2)
H25 H 0.8636 -0.1440 0.3102
H26 H 0.7410 -0.1994 0.3193
C30 C 0.4960(4) -0.1079(5) 0.2769(2)
H27 H 0.4217 -0.0897 0.2668
H28 H 0.4827 -0.1733 0.2927
C31 C 0.8194(4) -0.1629(4) 0.2087(2)
C32 C 0.6266(4) -0.2084(4) 0.22081(19)
H29 H 0.5969 -0.2777 0.2319
C33 C 0.6344(4) -0.2278(4) 0.1586(2)
H30 H 0.6048 -0.3050 0.1404
C34 C 0.5091(4) -0.1074(4) 0.1795(2)
C35 C 0.8052(4) -0.2077(4) 0.1057(2)
H31 H 0.8843 -0.2165 0.1134
H32 H 0.7622 -0.2743 0.0810
C36 C 0.5298(4) -0.1567(4) 0.0816(2)
H33 H 0.5205 -0.2317 0.0612
H34 H 0.4552 -0.1359 0.0774
C37 C 0.6806(6) -0.2147(5) -0.0096(2)
H35 H 0.7493 -0.2293 -0.0235
H36 H 0.6268 -0.2042 -0.0389
H37 H 0.6468 -0.2761 0.0052
C38 C 0.7553(4) -0.0108(5) -0.0464(2)
H38 H 0.6765 -0.0304 -0.0639
H39 H 0.7959 -0.0668 -0.0602
H40 H 0.7907 0.0585 -0.0540
C39 C 0.8775(5) 0.6043(5) 0.4559(3)
H41 H 0.9332 0.6002 0.4860
H42 H 0.8066 0.6139 0.4690
H43 H 0.9060 0.6657 0.4399
C40 C 0.7801(5) 0.4029(6) 0.4916(2)
H44 H 0.8525 0.4288 0.5154
H45 H 0.7436 0.3334 0.4985
H46 H 0.7314 0.4556 0.4984
N4 N 0.8027(4) -0.1144(4) 0.07877(18)
N5 N 0.8782(4) 0.0285(4) 0.04382(18)
N6 N 0.6078(4) -0.0857(4) 0.05736(18)
N7 N 0.6866(3) 0.0747(3) 0.03698(17)
N8 N 0.9528(4) 0.2271(4) 0.07354(18)
N9 N 1.0102(4) 0.3833(4) 0.13527(17)
N10 N 0.7614(3) 0.2692(4) 0.06230(17)
N11 N 0.8240(4) 0.4339(4) 0.11743(18)
N12 N 1.0302(4) 0.5019(4) 0.22468(18)
N13 N 1.0129(4) 0.5347(3) 0.31391(19)
N14 N 0.8500(4) 0.5667(4) 0.2031(2)
N15 N 0.8293(4) 0.5871(4) 0.2910(2)
N16 N 0.9644(4) 0.4721(4) 0.39658(18)
N17 N 0.8859(4) 0.3178(4) 0.42214(19)
N18 N 0.7734(4) 0.4999(4) 0.3659(2)
N19 N 0.6928(4) 0.3493(4) 0.3939(2)
N20 N 0.8129(3) 0.1196(4) 0.39590(18)
N21 N 0.7659(4) -0.0354(4) 0.33265(17)
N22 N 0.6221(4) 0.1518(4) 0.36846(19)
N23 N 0.5641(4) -0.0189(4) 0.3176(2)
N24 N 0.7448(4) -0.1637(4) 0.24610(18)
N25 N 0.7567(4) -0.1946(4) 0.15697(17)
N26 N 0.5480(4) -0.1329(4) 0.22761(17)
N27 N 0.5642(3) -0.1552(3) 0.13907(17)
O14 O 0.9935(3) -0.0295(4) 0.10820(17)
O15 O 1.1156(3) 0.2446(4) 0.13722(15)
O16 O 1.1243(3) 0.4104(3) 0.28238(14)
O17 O 1.0620(3) 0.3285(3) 0.39208(15)
O18 O 0.9582(3) 0.0504(3) 0.35649(14)
O19 O 0.9250(3) -0.1389(3) 0.21919(18)
O20 O 0.5158(3) 0.0636(3) 0.07350(15)
O21 O 0.6289(3) 0.3562(3) 0.10487(15)
O22 O 0.6663(3) 0.5430(3) 0.22501(19)
O23 O 0.5971(3) 0.4009(4) 0.32031(18)
O24 O 0.4612(3) 0.1177(4) 0.30176(17)
O25 O 0.4361(3) -0.0506(3) 0.17246(17)
O2 O 0.9004(7) -0.3422(7) 0.0021(3)
O3 O 1.0770(9) -0.0505(8) 0.4209(4)
O4 O 1.4941(8) 0.4339(6) -0.0320(4)
O5 O 0.5286(7) 0.7661(6) 0.4141(3)
O6 O 0.5323(7) 0.6788(7) 0.3347(2)
O7 O 0.4015(6) 0.6192(6) 0.3818(3)
N1 N 0.4905(6) 0.6808(6) 0.3784(3)
O26 O 1.2893(10) 0.4938(8) -0.0134(4)
O27 O 0.8253(8) -0.1359(8) 0.4351(3)
Ag1 Ag 0.36186(4) 0.43604(4) 0.309211(19)
C41 C 0.3472(4) 0.6013(4) 0.2342(3)
H47 H 0.3357 0.6412 0.2675
C42 C 0.3413(4) 0.6490(4) 0.1881(3)
H48 H 0.3234 0.7186 0.1901
C43 C 0.3625(6) 0.5908(5) 0.1393(3)
H49 H 0.3602 0.6210 0.1079
C44 C 0.3873(5) 0.4871(5) 0.1378(3)
H50 H 0.4033 0.4470 0.1056
C45 C 0.3881(4) 0.4432(4) 0.1849(2)
C46 C 0.4089(4) 0.3274(4) 0.1839(2)
H51 H 0.3634 0.2935 0.2084
H52 H 0.3845 0.2835 0.1471
C47 C 0.5553(5) 0.2133(5) 0.1994(3)
H53 H 0.5233 0.1664 0.1639
H54 H 0.5211 0.1812 0.2276
C48 C 0.6881(6) 0.2265(7) 0.2095(4)
H55 H 0.7224 0.2731 0.1863
H56 H 0.7175 0.2614 0.2475
C49 C 0.7189(7) 0.1182(7) 0.1973(4)
H57 H 0.6751 0.0785 0.1622
H58 H 0.6951 0.0776 0.2249
C50 C 0.8461(7) 0.1180(7) 0.1948(3)
H59 H 0.8544 0.0428 0.1817
H60 H 0.8710 0.1609 0.1682
C51 C 0.9182(6) 0.1594(7) 0.2441(3)
H61 H 0.8828 0.1290 0.2726
H62 H 0.9235 0.2387 0.2528
C52 C 1.0397(5) 0.1368(5) 0.2464(2)
H63 H 1.0371 0.0579 0.2400
H64 H 1.0773 0.1663 0.2183
C53 C 1.2285(4) 0.1776(4) 0.3082(2)
H65 H 1.2324 0.1000 0.3018
H66 H 1.2682 0.2111 0.2818
C54 C 1.2845(4) 0.2330(5) 0.3655(2)
C55 C 1.2827(6) 0.1738(6) 0.4070(3)
H67 H 1.2502 0.0990 0.3996
C56 C 1.3310(7) 0.2291(7) 0.4605(3)
H68 H 1.3286 0.1918 0.4893
C57 C 1.3817(6) 0.3385(7) 0.4699(3)
H69 H 1.4153 0.3763 0.5051
C58 C 1.3817(5) 0.3922(6) 0.4252(2)
H70 H 1.4159 0.4665 0.4314
N28 N 0.3692(4) 0.4990(4) 0.2321(2)
N29 N 1.3347(4) 0.3408(4) 0.37417(19)
N30 N 0.5334(4) 0.3287(4) 0.20125(19)
H71 H 0.5859 0.3876 0.2110
N31 N 1.1046(3) 0.1904(4) 0.30171(17)
H72 H 1.0745 0.2251 0.3274
Ag1_2 Ag 1.36186(4) 0.43604(4) 0.309211(19)
N29_2 N 0.3347(4) 0.3408(4) 0.37417(19)
O28? O 1.0082(10) -0.1704(11) 0.3963(6)
O29? O 1.4332(12) 0.4950(9) -0.0130(5)
loop_
_geom_bond_atom_site_label_1
_geom_bond_atom_site_label_2
_geom_bond_site_symmetry_1
_geom_bond_site_symmetry_2
Ag1 N28 1_555 1_555
Ag2 O1 1_555 1_555
O1 H1 1_555 1_555
H2 O1 1_555 1_555
O5 N1 1_555 1_555
O6 N1 1_555 1_555
O7 N1 1_555 1_555
O8 N2 1_555 1_555
O9 N2 1_555 1_555
O10 Ag2 1_555 1_555
N2 O10 1_555 1_555
O11 N3 1_555 1_555
O12 Ag2 1_555 1_555
O13 N3 1_555 1_555
N3 O12 1_555 1_555
C1 N4 1_555 1_555
C2 C3 1_555 1_555
C3 C38 1_555 1_555
C4 N6 1_555 1_555
C5 H3 1_555 1_555
H4 C5 1_555 1_555
C6 H5 1_555 1_555
H6 C6 1_555 1_555
C7 N8 1_555 1_555
C8 H7 1_555 1_555
C9 C8 1_555 1_555
H8 C9 1_555 1_555
C10 N10 1_555 1_555
C11 H9 1_555 1_555
H10 C11 1_555 1_555
C12 H11 1_555 1_555
H12 C12 1_555 1_555
C13 N12 1_555 1_555
C14 H13 1_555 1_555
C15 C14 1_555 1_555
H14 C15 1_555 1_555
C16 N14 1_555 1_555
C17 H15 1_555 1_555
H16 C17 1_555 1_555
C18 H17 1_555 1_555
H18 C18 1_555 1_555
C19 N16 1_555 1_555
C20 C21 1_555 1_555
C21 C40 1_555 1_555
C22 N18 1_555 1_555
C23 H19 1_555 1_555
H20 C23 1_555 1_555
C24 H21 1_555 1_555
H22 C24 1_555 1_555
C25 N20 1_555 1_555
C26 H23 1_555 1_555
C27 C26 1_555 1_555
H24 C27 1_555 1_555
C28 N22 1_555 1_555
C29 H25 1_555 1_555
H26 C29 1_555 1_555
C30 H27 1_555 1_555
H28 C30 1_555 1_555
C31 N24 1_555 1_555
C32 H29 1_555 1_555
C33 C32 1_555 1_555
H30 C33 1_555 1_555
C34 N26 1_555 1_555
C35 H31 1_555 1_555
H32 C35 1_555 1_555
C36 H33 1_555 1_555
H34 C36 1_555 1_555
C37 C2 1_555 1_555
H35 C37 1_555 1_555
H36 C37 1_555 1_555
H37 C37 1_555 1_555
C38 H38 1_555 1_555
H39 C38 1_555 1_555
H40 C38 1_555 1_555
C39 C20 1_555 1_555
H41 C39 1_555 1_555
H42 C39 1_555 1_555
H43 C39 1_555 1_555
C40 H44 1_555 1_555
H45 C40 1_555 1_555
H46 C40 1_555 1_555
N4 C2 1_555 1_555
N5 C1 1_555 1_555
N6 C2 1_555 1_555
N7 C3 1_555 1_555
N8 C5 1_555 1_555
N9 C7 1_555 1_555
N10 C6 1_555 1_555
N11 C9 1_555 1_555
N12 C11 1_555 1_555
N13 C13 1_555 1_555
N14 C12 1_555 1_555
N15 C15 1_555 1_555
N16 C17 1_555 1_555
N17 C19 1_555 1_555
N18 C18 1_555 1_555
N19 C21 1_555 1_555
N20 C23 1_555 1_555
N21 C25 1_555 1_555
N22 C24 1_555 1_555
N23 C27 1_555 1_555
N24 C29 1_555 1_555
N25 C31 1_555 1_555
N26 C30 1_555 1_555
N27 C33 1_555 1_555
O14 C1 1_555 1_555
O15 C7 1_555 1_555
O16 C13 1_555 1_555
O17 C19 1_555 1_555
O18 C25 1_555 1_555
O19 Ag2 1_555 1_555
O20 C4 1_555 1_555
O21 C10 1_555 1_555
O22 C16 1_555 1_555
O23 C22 1_555 1_555
O24 C28 1_555 1_555
O25 C34 1_555 1_555
C41 H47 1_555 1_555
C42 C41 1_555 1_555
H48 C42 1_555 1_555
C43 C42 1_555 1_555
H49 C43 1_555 1_555
C44 C43 1_555 1_555
H50 C44 1_555 1_555
C45 C44 1_555 1_555
C46 C45 1_555 1_555
H51 C46 1_555 1_555
H52 C46 1_555 1_555
C47 H53 1_555 1_555
H54 C47 1_555 1_555
C48 C47 1_555 1_555
H55 C48 1_555 1_555
H56 C48 1_555 1_555
C49 C48 1_555 1_555
H57 C49 1_555 1_555
H58 C49 1_555 1_555
C50 C49 1_555 1_555
H59 C50 1_555 1_555
H60 C50 1_555 1_555
C51 C50 1_555 1_555
H61 C51 1_555 1_555
H62 C51 1_555 1_555
C52 C51 1_555 1_555
H63 C52 1_555 1_555
H64 C52 1_555 1_555
C53 H65 1_555 1_555
H66 C53 1_555 1_555
C54 C53 1_555 1_555
C55 C54 1_555 1_555
H67 C55 1_555 1_555
C56 C55 1_555 1_555
H68 C56 1_555 1_555
C57 C56 1_555 1_555
H69 C57 1_555 1_555
C58 C57 1_555 1_555
H70 C58 1_555 1_555
N28 C41 1_555 1_555
N29 C54 1_555 1_555
N30 C46 1_555 1_555
H71 N30 1_555 1_555
N31 C52 1_555 1_555
H72 N31 1_555 1_555
Ag1_2 N29 1_555 1_555
N29_2 Ag1 1_555 1_555
C3 N5 1_555 1_555
C4 N7 1_555 1_555
C5 N5 1_555 1_555
C6 N7 1_555 1_555
C8 N8 1_555 1_555
C8 N10 1_555 1_555
C9 N9 1_555 1_555
C10 N11 1_555 1_555
C11 N9 1_555 1_555
C12 N11 1_555 1_555
C14 N12 1_555 1_555
C14 N14 1_555 1_555
C15 N13 1_555 1_555
C16 N15 1_555 1_555
C17 N13 1_555 1_555
C18 N15 1_555 1_555
C20 N16 1_555 1_555
C20 N18 1_555 1_555
C21 N17 1_555 1_555
C22 N19 1_555 1_555
C23 N17 1_555 1_555
C24 N19 1_555 1_555
C26 N20 1_555 1_555
C26 N22 1_555 1_555
C27 N21 1_555 1_555
C28 N23 1_555 1_555
C29 N21 1_555 1_555
C30 N23 1_555 1_555
C31 O19 1_555 1_555
C32 N24 1_555 1_555
C32 N26 1_555 1_555
C33 N25 1_555 1_555
C34 N27 1_555 1_555
C35 N4 1_555 1_555
C35 N25 1_555 1_555
C36 N6 1_555 1_555
C36 N27 1_555 1_555
C45 N28 1_555 1_555
C47 N30 1_555 1_555
C53 N31 1_555 1_555
C58 N29 1_555 1_555

#END
