
#######################################################################
#
#                 Cambridge Crystallographic Data Centre
#                                CCDC 
#
#######################################################################
#
# If this CIF has been generated from an entry in the Cambridge 
# Structural Database, then it will include bibliographic, chemical, 
# crystal, experimental, refinement or atomic coordinate data resulting 
# from the CCDC's data processing and validation procedures.
#
#######################################################################

data_UCIVAF
_symmetry_cell_setting           triclinic
_symmetry_space_group_name_H-M   'P -1'
_symmetry_Int_Tables_number      2
_space_group_name_Hall           '-P 1'
loop_
_symmetry_equiv_pos_site_id
_symmetry_equiv_pos_as_xyz
1 x,y,z
2 -x,-y,-z
_cell_length_a                   8.2194(16)
_cell_length_b                   9.3156(19)
_cell_length_c                   13.358(3)
_cell_angle_alpha                97.93(3)
_cell_angle_beta                 105.24(3)
_cell_angle_gamma                94.29(3)
_cell_volume                     970.774
loop_
_atom_site_label
_atom_site_type_symbol
_atom_site_fract_x
_atom_site_fract_y
_atom_site_fract_z
Hg1 Hg 0.47800(5) 1.05180(5) -0.36298(4)
Cl1 Cl 0.6506(3) 0.9154(3) -0.2469(3)
Cl2 Cl 0.6430(3) 1.1851(3) -0.4677(2)
S1 S 0.2200(3) 1.1655(3) -0.3812(2)
O1 O 0.2472(8) 0.7146(7) 0.1411(6)
O2 O 0.4585(9) 0.8154(9) 0.0897(6)
N1 N -0.1713(11) 0.4617(10) 0.2582(7)
N2 N 0.1414(10) 0.9612(10) -0.1559(7)
N3 N 0.2208(10) 1.0394(9) -0.2150(7)
H1 H 0.3290 1.0624 -0.1957
N4 N -0.0365(10) 1.0481(10) -0.3277(8)
H2 H -0.0851 1.0033 -0.2892
H3 H -0.0967 1.0736 -0.3841
C1 C -0.4646(18) 0.4737(16) 0.2795(14)
H4 H -0.5737 0.4175 0.2632
H5 H -0.4758 0.5599 0.2475
H6 H -0.4209 0.5011 0.3544
C2 C -0.3431(15) 0.3826(12) 0.2375(11)
H7 H -0.3335 0.2952 0.2697
H8 H -0.3902 0.3523 0.1623
C3 C 0.056(2) 0.3389(17) 0.3595(13)
H9 H 0.1324 0.3428 0.4280
H10 H 0.1193 0.3473 0.3093
H11 H -0.0162 0.2477 0.3399
C4 C -0.0515(15) 0.4622(12) 0.3614(8)
H12 H -0.1142 0.4543 0.4130
H13 H 0.0216 0.5541 0.3826
C5 C -0.1316(13) 0.5362(11) 0.1855(8)
C6 C 0.0387(12) 0.5913(11) 0.1983(8)
H14 H 0.1239 0.5756 0.2558
C7 C 0.0778(11) 0.6677(10) 0.1261(8)
C8 C -0.0419(12) 0.6980(11) 0.0383(8)
C9 C -0.2106(13) 0.6423(13) 0.0271(9)
H15 H -0.2952 0.6596 -0.0301
C10 C -0.2555(13) 0.5630(12) 0.0976(9)
H16 H -0.3685 0.5271 0.0868
C11 C 0.0109(13) 0.7831(12) -0.0285(8)
H17 H -0.0698 0.8077 -0.0848
C12 C 0.1762(11) 0.8302(11) -0.0132(8)
C13 C 0.3037(13) 0.7870(11) 0.0724(8)
C14 C 0.2410(12) 0.9171(11) -0.0788(8)
H18 H 0.3576 0.9414 -0.0645
C15 C 0.1271(11) 1.0773(10) -0.3006(8)
Hg1A Hg 0.52200(5) 0.94820(5) -0.63702(4)
Cl2A Cl 0.3570(3) 0.8149(3) -0.5323(2)
loop_
_geom_bond_atom_site_label_1
_geom_bond_atom_site_label_2
_geom_bond_site_symmetry_1
_geom_bond_site_symmetry_2
Hg1 Cl1 1_555 1_555
Cl2 Hg1 1_555 1_555
S1 Hg1 1_555 1_555
O1 C7 1_555 1_555
O2 C13 1_555 1_555
N1 C2 1_555 1_555
N2 N3 1_555 1_555
N3 H1 1_555 1_555
N4 H2 1_555 1_555
H3 N4 1_555 1_555
C1 H4 1_555 1_555
H5 C1 1_555 1_555
H6 C1 1_555 1_555
C2 C1 1_555 1_555
H7 C2 1_555 1_555
H8 C2 1_555 1_555
C3 H9 1_555 1_555
H10 C3 1_555 1_555
H11 C3 1_555 1_555
C4 N1 1_555 1_555
H12 C4 1_555 1_555
H13 C4 1_555 1_555
C5 N1 1_555 1_555
C6 C5 1_555 1_555
H14 C6 1_555 1_555
C7 C6 1_555 1_555
C8 C7 1_555 1_555
C9 C8 1_555 1_555
H15 C9 1_555 1_555
C10 C5 1_555 1_555
H16 C10 1_555 1_555
C11 C8 1_555 1_555
H17 C11 1_555 1_555
C12 C11 1_555 1_555
C13 O1 1_555 1_555
C14 N2 1_555 1_555
H18 C14 1_555 1_555
C15 S1 1_555 1_555
Hg1A Cl2 1_555 1_555
Cl2A Hg1 1_555 1_555
N3 C15 1_555 1_555
N4 C15 1_555 1_555
C3 C4 1_555 1_555
C9 C10 1_555 1_555
C12 C13 1_555 1_555
C12 C14 1_555 1_555
Hg1A Cl2A 1_555 1_555

#END
