
#######################################################################
#
#                 Cambridge Crystallographic Data Centre
#                                CCDC 
#
#######################################################################
#
# If this CIF has been generated from an entry in the Cambridge 
# Structural Database, then it will include bibliographic, chemical, 
# crystal, experimental, refinement or atomic coordinate data resulting 
# from the CCDC's data processing and validation procedures.
#
#######################################################################

data_UCOBUJ
_symmetry_cell_setting           monoclinic
_symmetry_space_group_name_H-M   'C 2/c'
_symmetry_Int_Tables_number      15
_space_group_name_Hall           '-C 2yn'
loop_
_symmetry_equiv_pos_site_id
_symmetry_equiv_pos_as_xyz
1 x,y,z
2 1/2+x,1/2+y,z
3 -x,y,1/2-z
4 1/2-x,1/2+y,1/2-z
5 -x,-y,-z
6 1/2-x,1/2-y,-z
7 x,-y,1/2+z
8 1/2+x,1/2-y,1/2+z
_cell_length_a                   12.874(2)
_cell_length_b                   10.994(2)
_cell_length_c                   18.678(3)
_cell_angle_alpha                90
_cell_angle_beta                 97.801(3)
_cell_angle_gamma                90
_cell_volume                     2619.16
loop_
_atom_site_label
_atom_site_type_symbol
_atom_site_fract_x
_atom_site_fract_y
_atom_site_fract_z
Ag1 Ag 0.116250(14) 0.47703(2) 0.204531(11)
S1 S 0.13917(5) 0.28293(7) 0.27401(4)
C1 C 0.1462(2) 0.1562(3) 0.21370(16)
H1 H 0.1565 0.0808 0.2428
H2 H 0.0782 0.1490 0.1821
C2 C 0.2327(2) 0.1652(3) 0.16643(16)
H3 H 0.2236 0.2415 0.1382
H4 H 0.2256 0.0966 0.1318
S2 S 0.36354(5) 0.16265(6) 0.21646(4)
C3 C 0.3561(2) 0.2924(3) 0.27497(15)
H5 H 0.4243 0.3019 0.3060
H6 H 0.3442 0.3664 0.2448
C4 C 0.2706(2) 0.2830(3) 0.32253(15)
H7 H 0.2775 0.3521 0.3568
H8 H 0.2811 0.2072 0.3512
S3 S -0.00935(5) 0.47876(6) 0.09027(4)
C5 C 0.0465(2) 0.3741(3) 0.03083(15)
H9 H 0.1212 0.3948 0.0302
H10 H 0.0432 0.2905 0.0500
C6 C 0.0106(2) 0.6219(3) 0.04578(14)
H11 H -0.0147 0.6894 0.0740
H12 H 0.0865 0.6341 0.0446
S4 S 0.35774(5) 0.46169(6) 0.09297(4)
O1 O 0.26880(17) 0.4881(2) 0.13056(13)
O2 O 0.45737(19) 0.4827(3) 0.13525(15)
O3 O 0.3477(2) 0.3524(2) 0.05159(15)
C7 C 0.3462(2) 0.5811(3) 0.02481(16)
F1 F 0.41685(15) 0.5734(2) -0.01985(12)
F2 F 0.25244(15) 0.5750(3) -0.01523(12)
F3 F 0.3538(2) 0.6904(2) 0.05430(14)
Ag1C Ag 0.383750(14) 0.97703(2) 0.295469(11)
Ag1C_2 Ag 0.383750(14) -0.02297(2) 0.295469(11)
Ag1D Ag -0.116250(14) 0.52297(2) -0.204531(11)
S1C S 0.36083(5) 0.78293(7) 0.22599(4)
C1C C 0.3538(2) 0.6562(3) 0.28630(16)
H1C H 0.3435 0.5808 0.2572
H2C H 0.4218 0.6490 0.3179
C2C C 0.2673(2) 0.6652(3) 0.33357(16)
H3C H 0.2764 0.7415 0.3618
H4C H 0.2744 0.5966 0.3682
S2C S 0.13646(5) 0.66265(6) 0.28354(4)
S2_2 S 0.36354(5) 1.16265(6) 0.21646(4)
C3C C 0.1439(2) 0.7924(3) 0.22503(15)
H5C H 0.0757 0.8019 0.1940
H6C H 0.1558 0.8664 0.2552
C4C C 0.2294(2) 0.7830(3) 0.17747(15)
H7C H 0.2225 0.8521 0.1432
H8C H 0.2189 0.7072 0.1488
S3D S 0.00935(5) 0.52124(6) -0.09027(4)
S3C S 0.50935(5) 0.97876(6) 0.40973(4)
C5D C -0.0465(2) 0.6259(3) -0.03083(15)
H9D H -0.1212 0.6052 -0.0302
H10D H -0.0432 0.7095 -0.0500
C6D C -0.0106(2) 0.3781(3) -0.04578(14)
H11D H 0.0147 0.3106 -0.0740
H12D H -0.0865 0.3659 -0.0446
S4C S 0.14226(5) 0.96169(6) 0.40703(4)
O1C O 0.23120(17) 0.9881(2) 0.36944(13)
O2C O 0.04263(19) 0.9827(3) 0.36475(15)
O3C O 0.1523(2) 0.8524(2) 0.44841(15)
C7C C 0.1538(2) 1.0811(3) 0.47519(16)
F1C F 0.08315(15) 1.0734(2) 0.51985(12)
F2C F 0.24756(15) 1.0750(3) 0.51523(12)
F3C F 0.1462(2) 1.1904(2) 0.44570(14)
loop_
_geom_bond_atom_site_label_1
_geom_bond_atom_site_label_2
_geom_bond_site_symmetry_1
_geom_bond_site_symmetry_2
Ag1 S1 1_555 1_555
S1 C1 1_555 1_555
C1 H1 1_555 1_555
H2 C1 1_555 1_555
C2 C1 1_555 1_555
H3 C2 1_555 1_555
H4 C2 1_555 1_555
S2 C2 1_555 1_555
C3 S2 1_555 1_555
H5 C3 1_555 1_555
H6 C3 1_555 1_555
C4 S1 1_555 1_555
H7 C4 1_555 1_555
H8 C4 1_555 1_555
S3 Ag1 1_555 1_555
C5 S3 1_555 1_555
H9 C5 1_555 1_555
H10 C5 1_555 1_555
C6 S3 1_555 1_555
H11 C6 1_555 1_555
H12 C6 1_555 1_555
S4 O1 1_555 1_555
O1 Ag1 1_555 1_555
O2 S4 1_555 1_555
O3 S4 1_555 1_555
C7 S4 1_555 1_555
F1 C7 1_555 1_555
F2 C7 1_555 1_555
F3 C7 1_555 1_555
Ag1C S1C 1_555 1_555
Ag1C_2 S2 1_555 1_555
Ag1D S3D 1_555 1_555
S1C C1C 1_555 1_555
C1C H1C 1_555 1_555
H2C C1C 1_555 1_555
C2C C1C 1_555 1_555
H3C C2C 1_555 1_555
H4C C2C 1_555 1_555
S2C Ag1 1_555 1_555
S2_2 Ag1C 1_555 1_555
C3C S2C 1_555 1_555
H5C C3C 1_555 1_555
H6C C3C 1_555 1_555
C4C S1C 1_555 1_555
H7C C4C 1_555 1_555
H8C C4C 1_555 1_555
S3D C5D 1_555 1_555
S3C Ag1C 1_555 1_555
C5D C6 1_555 1_555
H9D C5D 1_555 1_555
H10D C5D 1_555 1_555
C6D C5 1_555 1_555
H11D C6D 1_555 1_555
H12D C6D 1_555 1_555
S4C O1C 1_555 1_555
O1C Ag1C 1_555 1_555
O2C S4C 1_555 1_555
O3C S4C 1_555 1_555
C7C S4C 1_555 1_555
F1C C7C 1_555 1_555
F2C C7C 1_555 1_555
F3C C7C 1_555 1_555
C3 C4 1_555 1_555
C2C S2C 1_555 1_555
C3C C4C 1_555 1_555
S3D C6D 1_555 1_555

#END
