
#######################################################################
#
#                 Cambridge Crystallographic Data Centre
#                                CCDC 
#
#######################################################################
#
# If this CIF has been generated from an entry in the Cambridge 
# Structural Database, then it will include bibliographic, chemical, 
# crystal, experimental, refinement or atomic coordinate data resulting 
# from the CCDC's data processing and validation procedures.
#
#######################################################################

data_UCOBUJ01
_symmetry_cell_setting           triclinic
_symmetry_space_group_name_H-M   'P -1'
_symmetry_Int_Tables_number      2
_space_group_name_Hall           '-P 1'
loop_
_symmetry_equiv_pos_site_id
_symmetry_equiv_pos_as_xyz
1 x,y,z
2 -x,-y,-z
_cell_length_a                   8.451(3)
_cell_length_b                   8.639(3)
_cell_length_c                   9.538(3)
_cell_angle_alpha                82.81(3)
_cell_angle_beta                 84.85(3)
_cell_angle_gamma                81.06(3)
_cell_volume                     680.725
loop_
_atom_site_label
_atom_site_type_symbol
_atom_site_fract_x
_atom_site_fract_y
_atom_site_fract_z
Ag1 Ag 0.11939(7) 0.11831(6) 0.09942(5)
S1 S -0.0067(3) -0.0137(3) 0.3216(2)
S2 S -0.0466(3) 0.3279(2) -0.0532(2)
S3 S 0.3228(3) -0.0491(3) -0.0490(2)
S4 S 0.3816(4) 0.3427(4) 0.3061(3)
F1 F 0.219(3) 0.294(2) 0.5385(12)
F2 F 0.3644(19) 0.449(2) 0.5468(11)
F3 F 0.161(3) 0.517(4) 0.410(3)
O1 O 0.458(3) 0.450(3) 0.2334(13)
O2 O 0.508(2) 0.207(3) 0.381(3)
O3 O 0.2686(9) 0.2685(9) 0.2451(7)
C1 C 0.1592(11) -0.0873(11) 0.4311(9)
C2 C -0.1042(11) 0.1450(11) 0.4171(9)
C3 C -0.1728(10) 0.4590(10) 0.0575(9)
C4 C 0.0799(11) 0.4613(10) -0.1487(8)
C5 C 0.4535(11) 0.0776(10) -0.1533(9)
C6 C 0.4623(11) -0.1676(10) 0.0648(10)
C7 C 0.285(2) 0.400(3) 0.4624(18)
H1 H 0.2266 -0.1735 0.3892
H2 H 0.2237 -0.0041 0.4329
H3 H -0.0306 0.2204 0.4189
H4 H -0.1965 0.1988 0.3681
H5 H -0.2370 0.5393 -0.0024
H6 H -0.2457 0.3995 0.1184
H7 H 0.1558 0.4033 -0.2126
H8 H 0.0134 0.5421 -0.2061
H9 H 0.5334 0.0134 -0.2091
H10 H 0.3900 0.1521 -0.2185
H11 H 0.4055 -0.2411 0.1277
H12 H 0.5428 -0.2291 0.0071
Ag1A Ag -0.11939(7) -0.11831(6) 0.90058(5)
Ag1A_2 Ag -0.11939(7) 0.88169(6) -0.09942(5)
Ag1A_3 Ag 0.88061(7) -0.11831(6) -0.09942(5)
S1A S 0.0067(3) 0.0137(3) 0.6784(2)
S2A S 0.0466(3) 0.6721(2) 0.0532(2)
S2A_2 S 0.0466(3) -0.3279(2) 1.0532(2)
S3A S 0.6772(3) 0.0491(3) 0.0490(2)
S3A_2 S -0.3228(3) 0.0491(3) 1.0490(2)
S4A S -0.3816(4) -0.3427(4) 0.6939(3)
F1A F -0.219(3) -0.294(2) 0.4615(12)
F2A F -0.3644(19) -0.449(2) 0.4532(11)
F3A F -0.161(3) -0.517(4) 0.590(3)
O1A O -0.458(3) -0.450(3) 0.7666(13)
O2A O -0.508(2) -0.207(3) 0.619(3)
O3A O -0.2686(9) -0.2685(9) 0.7549(7)
C1A C -0.1592(11) 0.0873(11) 0.5689(9)
C2A C 0.1042(11) -0.1450(11) 0.5829(9)
C3A C 0.1728(10) 0.5410(10) -0.0575(9)
C4A C -0.0799(11) 0.5387(10) 0.1487(8)
C5A C 0.5465(11) -0.0776(10) 0.1533(9)
C6A C 0.5377(11) 0.1676(10) -0.0648(10)
C7A C -0.285(2) -0.400(3) 0.5376(18)
H1A H -0.2266 0.1735 0.6108
H2A H -0.2237 0.0041 0.5671
H3A H 0.0306 -0.2204 0.5811
H4A H 0.1965 -0.1988 0.6319
H5A H 0.2370 0.4607 0.0024
H6A H 0.2457 0.6005 -0.1184
H7A H -0.1558 0.5967 0.2126
H8A H -0.0134 0.4579 0.2061
H9A H 0.4666 -0.0134 0.2091
H10A H 0.6100 -0.1521 0.2185
H11A H 0.5945 0.2411 -0.1277
H12A H 0.4572 0.2291 -0.0071
loop_
_geom_bond_atom_site_label_1
_geom_bond_atom_site_label_2
_geom_bond_site_symmetry_1
_geom_bond_site_symmetry_2
Ag1 S1 1_555 1_555
S1 C1 1_555 1_555
S2 Ag1 1_555 1_555
S3 Ag1 1_555 1_555
S4 O1 1_555 1_555
F1 C7 1_555 1_555
F2 C7 1_555 1_555
F3 C7 1_555 1_555
O2 S4 1_555 1_555
O3 Ag1 1_555 1_555
C1 H1 1_555 1_555
C2 S1 1_555 1_555
C3 S2 1_555 1_555
C4 S2 1_555 1_555
C5 S3 1_555 1_555
C6 S3 1_555 1_555
C7 S4 1_555 1_555
H2 C1 1_555 1_555
H3 C2 1_555 1_555
H4 C2 1_555 1_555
H5 C3 1_555 1_555
H6 C3 1_555 1_555
H7 C4 1_555 1_555
H8 C4 1_555 1_555
H9 C5 1_555 1_555
H10 C5 1_555 1_555
H11 C6 1_555 1_555
H12 C6 1_555 1_555
Ag1A S1A 1_555 1_555
Ag1A_2 S2A 1_555 1_555
Ag1A_3 S3A 1_555 1_555
S1A C1A 1_555 1_555
S2A C3A 1_555 1_555
S2A_2 Ag1A 1_555 1_555
S3A C5A 1_555 1_555
S3A_2 Ag1A 1_555 1_555
S4A O1A 1_555 1_555
F1A C7A 1_555 1_555
F2A C7A 1_555 1_555
F3A C7A 1_555 1_555
O2A S4A 1_555 1_555
O3A Ag1A 1_555 1_555
C1A C2 1_555 1_555
C2A C1 1_555 1_555
C3A C4 1_555 1_555
C4A C3 1_555 1_555
C5A C6 1_555 1_555
C6A C5 1_555 1_555
C7A S4A 1_555 1_555
H1A C1A 1_555 1_555
H2A C1A 1_555 1_555
H3A C2A 1_555 1_555
H4A C2A 1_555 1_555
H5A C3A 1_555 1_555
H6A C3A 1_555 1_555
H7A C4A 1_555 1_555
H8A C4A 1_555 1_555
H9A C5A 1_555 1_555
H10A C5A 1_555 1_555
H11A C6A 1_555 1_555
H12A C6A 1_555 1_555
S4 O3 1_555 1_555
S1A C2A 1_555 1_555
S2A C4A 1_555 1_555
S3A C6A 1_555 1_555
S4A O3A 1_555 1_555

#END
