
#######################################################################
#
#                 Cambridge Crystallographic Data Centre
#                                CCDC 
#
#######################################################################
#
# If this CIF has been generated from an entry in the Cambridge 
# Structural Database, then it will include bibliographic, chemical, 
# crystal, experimental, refinement or atomic coordinate data resulting 
# from the CCDC's data processing and validation procedures.
#
#######################################################################

data_UCOCIY
_symmetry_cell_setting           monoclinic
_symmetry_space_group_name_H-M   'P 21/c'
_symmetry_Int_Tables_number      14
_space_group_name_Hall           '-P 2ybc'
loop_
_symmetry_equiv_pos_site_id
_symmetry_equiv_pos_as_xyz
1 x,y,z
2 x,1/2-y,1/2+z
3 -x,-y,-z
4 -x,1/2+y,1/2-z
_cell_length_a                   10.9407(9)
_cell_length_b                   7.5356(6)
_cell_length_c                   9.5107(7)
_cell_angle_alpha                90
_cell_angle_beta                 102.229(1)
_cell_angle_gamma                90
_cell_volume                     766.315
loop_
_atom_site_label
_atom_site_type_symbol
_atom_site_fract_x
_atom_site_fract_y
_atom_site_fract_z
Ag1 Ag 0.716194(19) 0.14060(3) 0.34886(2)
S1 S 0.51305(6) -0.03647(9) 0.32284(7)
S2 S 0.88599(6) -0.10441(9) 0.37061(7)
C1 C 0.3944(2) 0.0929(4) 0.3833(3)
H1 H 0.3609 0.1824 0.3090
H2 H 0.3247 0.0133 0.3931
C2 C 0.5584(3) -0.1870(4) 0.4745(3)
H3 H 0.4854 -0.2611 0.4824
H4 H 0.6248 -0.2672 0.4555
C3 C 0.9395(3) -0.1693(4) 0.5569(3)
H5 H 0.8720 -0.2365 0.5878
H6 H 1.0120 -0.2499 0.5641
C4 C 1.0228(2) 0.0145(4) 0.3406(3)
H7 H 1.0938 -0.0694 0.3513
H8 H 1.0055 0.0596 0.2406
N1 N 0.7704(2) 0.4515(3) 0.5397(3)
O1 O 0.7739(2) 0.4401(3) 0.4090(2)
O2 O 0.74336(19) 0.3081(3) 0.5944(2)
C2B C 0.4416(3) 0.1870(4) 0.5255(3)
S1B S 0.48695(6) 0.03647(9) 0.67716(7)
C1B C 0.6056(2) -0.0929(4) 0.6167(3)
H1B H 0.6391 -0.1824 0.6910
H2B H 0.6753 -0.0133 0.6069
H3B H 0.5146 0.2611 0.5176
H4B H 0.3752 0.2672 0.5445
C4B C 0.9772(2) -0.0145(4) 0.6594(3)
S2B S 1.11401(6) 0.10441(9) 0.62939(7)
C3B C 1.0605(3) 0.1693(4) 0.4431(3)
H5B H 1.1280 0.2365 0.4122
H6B H 0.9880 0.2499 0.4359
H7B H 0.9062 0.0694 0.6487
H8B H 0.9945 -0.0596 0.7594
N1A N 0.7704(2) 0.0485(3) 0.0397(3)
O1A O 0.7739(2) 0.0599(3) -0.0910(2)
O2A O 0.74336(19) 0.1919(3) 0.0944(2)
Ag1B Ag 0.283806(19) -0.14060(3) 0.65114(2)
Ag1A Ag 0.716194(19) 0.35940(3) 0.84886(2)
Ag1B_2 Ag 1.283806(19) -0.14060(3) 0.65114(2)
Ag1A_2 Ag 0.716194(19) 0.35940(3) -0.15114(2)
S2B_2 S 0.11401(6) 0.10441(9) 0.62939(7)
O1B O 0.2261(2) -0.4401(3) 0.5910(2)
O2B O 0.25664(19) -0.3081(3) 0.4056(2)
O2C O 0.25664(19) -0.1919(3) 0.9056(2)
loop_
_geom_bond_atom_site_label_1
_geom_bond_atom_site_label_2
_geom_bond_site_symmetry_1
_geom_bond_site_symmetry_2
Ag1 S1 1_555 1_555
S1 C1 1_555 1_555
S2 Ag1 1_555 1_555
C1 H1 1_555 1_555
H2 C1 1_555 1_555
C2 S1 1_555 1_555
H3 C2 1_555 1_555
H4 C2 1_555 1_555
C3 S2 1_555 1_555
H5 C3 1_555 1_555
H6 C3 1_555 1_555
C4 S2 1_555 1_555
H7 C4 1_555 1_555
H8 C4 1_555 1_555
N1 O1 1_555 1_555
O1 Ag1 1_555 1_555
O2 Ag1 1_555 1_555
C2B C1 1_555 1_555
S1B C2B 1_555 1_555
C1B C2 1_555 1_555
H1B C1B 1_555 1_555
H2B C1B 1_555 1_555
H3B C2B 1_555 1_555
H4B C2B 1_555 1_555
C4B C3 1_555 1_555
S2B C4B 1_555 1_555
C3B C4 1_555 1_555
H5B C3B 1_555 1_555
H6B C3B 1_555 1_555
H7B C4B 1_555 1_555
H8B C4B 1_555 1_555
N1A O1A 1_555 1_555
O1A Ag1A_2 1_555 1_555
O2A Ag1 1_555 1_555
Ag1B S1B 1_555 1_555
Ag1A O2 1_555 1_555
Ag1B_2 S2B 1_555 1_555
Ag1A_2 O2A 1_555 1_555
S2B_2 Ag1B 1_555 1_555
O1B Ag1B 1_555 1_555
O2B Ag1B 1_555 1_555
O2C Ag1B 1_555 1_555
N1 O2 1_555 1_555
S1B C1B 1_555 1_555
S2B C3B 1_555 1_555
N1A O2A 1_555 1_555

#END
