
#######################################################################
#
#                 Cambridge Crystallographic Data Centre
#                                CCDC 
#
#######################################################################
#
# If this CIF has been generated from an entry in the Cambridge 
# Structural Database, then it will include bibliographic, chemical, 
# crystal, experimental, refinement or atomic coordinate data resulting 
# from the CCDC's data processing and validation procedures.
#
#######################################################################

data_UCOCOE
_symmetry_cell_setting           orthorhombic
_symmetry_space_group_name_H-M   'P n m a'
_symmetry_Int_Tables_number      62
_space_group_name_Hall           '-P 2ac 2n'
loop_
_symmetry_equiv_pos_site_id
_symmetry_equiv_pos_as_xyz
1 x,y,z
2 1/2+x,y,1/2-z
3 x,1/2-y,z
4 1/2-x,1/2+y,1/2+z
5 -x,-y,-z
6 1/2-x,-y,1/2+z
7 -x,1/2+y,-z
8 1/2+x,1/2-y,1/2-z
_cell_length_a                   9.655(2)
_cell_length_b                   14.749(2)
_cell_length_c                   6.9577(13)
_cell_angle_alpha                90
_cell_angle_beta                 90
_cell_angle_gamma                90
_cell_volume                     990.788
loop_
_atom_site_label
_atom_site_type_symbol
_atom_site_fract_x
_atom_site_fract_y
_atom_site_fract_z
Ag1 Ag 0.73986(3) 0.62788(2) 0.15897(5)
S1 S 0.54424(15) 0.7500 0.4257(2)
C1 C 0.5307(5) 0.5403(3) -0.2090(6)
H1 H 0.5678 0.5855 -0.3006
H2 H 0.4901 0.4901 -0.2847
C2 C 0.4174(5) 0.5843(3) -0.0893(6)
H3 H 0.4589 0.6323 -0.0082
H4 H 0.3495 0.6133 -0.1762
S2 S 0.67225(11) 0.49626(7) -0.06408(15)
O1 O 0.6957(5) 0.7500 0.3897(7)
O2 O 0.4839(3) 0.6680(2) 0.3401(5)
O3 O 0.5172(5) 0.7500 0.6359(6)
O4 O 0.7262(5) 0.7500 -0.1021(7)
H5 H 0.673(5) 0.7500 -0.200(6)
H6 H 0.807(3) 0.7500 -0.150(8)
O2B O 0.4839(3) 0.8320(2) 0.3401(5)
S2D S 0.32775(11) 0.50374(7) 0.06408(15)
C1D C 0.4693(5) 0.4597(3) 0.2090(6)
H1D H 0.4322 0.4145 0.3006
H2D H 0.5099 0.5099 0.2847
C2D C 0.5826(5) 0.4157(3) 0.0893(6)
H3D H 0.5411 0.3677 0.0082
H4D H 0.6505 0.3867 0.1762
Ag1D Ag 0.26014(3) 0.37212(2) -0.15897(5)
S2E S 0.82775(11) 0.50374(7) 0.43592(15)
O2A O 0.9839(3) 0.6680(2) 0.1599(5)
Ag1E Ag 0.76014(3) 0.37212(2) -0.34103(5)
Ag1B Ag 0.73986(3) 0.87212(2) 0.15897(5)
Ag1A Ag 0.23986(3) 0.62788(2) 0.34103(5)
Ag1G Ag 0.23986(3) 0.87212(2) 0.34103(5)
S2A S 0.17225(11) 0.49626(7) -0.43592(15)
O1D O 0.3043(5) 0.2500 -0.3897(7)
O2E O 0.0161(3) 0.3320(2) -0.1599(5)
O4D O 0.2738(5) 0.2500 0.1021(7)
H5D H 0.327(5) 0.2500 0.200(6)
H6D H 0.193(3) 0.2500 0.150(8)
loop_
_geom_bond_atom_site_label_1
_geom_bond_atom_site_label_2
_geom_bond_site_symmetry_1
_geom_bond_site_symmetry_2
Ag1 S2 1_555 1_555
S1 O1 1_555 1_555
C1 H1 1_555 1_555
H2 C1 1_555 1_555
C2 C1 1_555 1_555
H3 C2 1_555 1_555
H4 C2 1_555 1_555
S2 C1 1_555 1_555
O1 Ag1 1_555 1_555
O2 S1 1_555 1_555
O3 S1 1_555 1_555
O4 Ag1 1_555 1_555
H5 O4 1_555 1_555
H6 O4 1_555 1_555
O2B S1 1_555 1_555
S2D C2 1_555 1_555
C1D S2D 1_555 1_555
H1D C1D 1_555 1_555
H2D C1D 1_555 1_555
C2D S2 1_555 1_555
H3D C2D 1_555 1_555
H4D C2D 1_555 1_555
Ag1D S2D 1_555 1_555
S2E Ag1 1_555 1_555
O2A Ag1 1_555 1_555
Ag1E S2 1_555 1_555
Ag1B O1 1_555 1_555
Ag1A O2 1_555 1_555
Ag1G O2B 1_555 1_555
S2A Ag1D 1_555 1_555
O1D Ag1D 1_555 1_555
O2E Ag1D 1_555 1_555
O4D Ag1D 1_555 1_555
H5D O4D 1_555 1_555
H6D O4D 1_555 1_555
O4 Ag1B 1_555 1_555
S2D Ag1A 1_555 1_555
C1D C2D 1_555 1_555

#END
