
#######################################################################
#
#                 Cambridge Crystallographic Data Centre
#                                CCDC 
#
#######################################################################
#
# If this CIF has been generated from an entry in the Cambridge 
# Structural Database, then it will include bibliographic, chemical, 
# crystal, experimental, refinement or atomic coordinate data resulting 
# from the CCDC's data processing and validation procedures.
#
#######################################################################

data_UCOCEV
_symmetry_cell_setting           monoclinic
_symmetry_space_group_name_H-M   'P 21'
_symmetry_Int_Tables_number      4
_space_group_name_Hall           'P 2yb'
loop_
_symmetry_equiv_pos_site_id
_symmetry_equiv_pos_as_xyz
1 x,y,z
2 -x,1/2+y,-z
_cell_length_a                   6.4358(5)
_cell_length_b                   16.1040(13)
_cell_length_c                   8.3646(7)
_cell_angle_alpha                90
_cell_angle_beta                 107.6960(10)
_cell_angle_gamma                90
_cell_volume                     825.904
loop_
_atom_site_label
_atom_site_type_symbol
_atom_site_fract_x
_atom_site_fract_y
_atom_site_fract_z
Sr1 Sr 0.02286(3) 0.889795(13) 0.77741(2)
O1 O -0.3373(3) 0.87790(10) 0.5303(2)
H1 H -0.367(5) 0.8328(14) 0.481(4)
H2 H -0.353(5) 0.9149(15) 0.464(3)
O2 O 0.4158(3) 0.84918(11) 0.9468(2)
H3 H 0.456(5) 0.8027(13) 0.983(4)
H4 H 0.530(3) 0.8693(18) 0.946(4)
O3 O -0.1618(3) 0.78079(10) 0.9079(2)
O4 O -0.4119(3) 0.68869(10) 1.08944(19)
H5 H -0.411(5) 0.6975(18) 1.186(2)
O5 O -0.0986(3) 0.54439(9) 1.2563(2)
O6 O 0.0906(2) 0.67923(9) 0.98560(18)
O7 O 0.2856(3) 0.47033(9) 1.13780(19)
H6 H 0.381(4) 0.4895(18) 1.212(3)
O8 O -0.1178(3) 0.45095(11) 0.9253(2)
H7 H -0.242(3) 0.4591(19) 0.871(3)
C1 C -0.1049(3) 0.71517(13) 0.9845(3)
C2 C -0.2095(3) 0.66672(13) 1.0807(2)
C3 C -0.0767(3) 0.60100(13) 1.1513(2)
C4 C 0.1305(3) 0.60872(12) 1.0993(3)
H8 H 0.2499 0.6238 1.1995
C5 C 0.2082(4) 0.53544(13) 1.0153(3)
H9 H 0.3302 0.5542 0.9773
C6 C 0.0354(4) 0.49712(14) 0.8664(3)
H10 H -0.0401 0.5406 0.7905
H11 H 0.1045 0.4606 0.8054
O9 O 0.4790(2) 0.49852(11) 0.70847(19)
O10 O 0.6075(3) 0.53606(10) 0.4076(2)
H12 H 0.704(4) 0.5523(18) 0.377(4)
O11 O 0.5624(3) 0.72781(10) 0.3809(2)
O12 O 0.4032(3) 0.63437(9) 0.71404(18)
O13 O 0.0576(3) 0.74240(10) 0.6550(2)
H13 H 0.093(5) 0.7074(15) 0.723(3)
O14 O 0.1785(3) 0.87959(11) 0.52356(19)
H14 H 0.296(3) 0.891(2) 0.521(3)
C7 C 0.4774(4) 0.56818(15) 0.6452(3)
C8 C 0.5420(4) 0.59363(14) 0.5032(3)
C9 C 0.5169(4) 0.67820(14) 0.4846(3)
C10 C 0.4051(4) 0.70724(13) 0.6114(3)
H15 H 0.4840 0.7535 0.6794
C11 C 0.1622(4) 0.72909(13) 0.5272(3)
H16 H 0.0912 0.6822 0.4570
C12 C 0.1212(4) 0.80711(14) 0.4207(3)
H17 H 0.2067 0.8052 0.3432
H18 H -0.0316 0.8098 0.3555
Sr1A Sr -0.02286(3) 0.389795(13) 1.22259(2)
O5A O 0.0986(3) 1.04439(9) 0.7437(2)
O7A O -0.2856(3) 0.97033(9) 0.86220(19)
H6A H -0.381(4) 0.9895(18) 0.788(3)
O8A O 0.1178(3) 0.95095(11) 1.0747(2)
H7A H 0.242(3) 0.9591(19) 1.129(3)
loop_
_geom_bond_atom_site_label_1
_geom_bond_atom_site_label_2
_geom_bond_site_symmetry_1
_geom_bond_site_symmetry_2
Sr1 O1 1_555 1_555
O1 H1 1_555 1_555
H2 O1 1_555 1_555
O2 Sr1 1_555 1_555
H3 O2 1_555 1_555
H4 O2 1_555 1_555
O3 Sr1 1_555 1_555
O4 H5 1_555 1_555
O5 C3 1_555 1_555
O6 C1 1_555 1_555
O7 H6 1_555 1_555
O8 H7 1_555 1_555
C1 O3 1_555 1_555
C2 O4 1_555 1_555
C3 C2 1_555 1_555
C4 O6 1_555 1_555
H8 C4 1_555 1_555
C5 O7 1_555 1_555
H9 C5 1_555 1_555
C6 O8 1_555 1_555
H10 C6 1_555 1_555
H11 C6 1_555 1_555
O9 C7 1_555 1_555
O10 H12 1_555 1_555
O11 C9 1_555 1_555
O12 C7 1_555 1_555
O13 Sr1 1_555 1_555
H13 O13 1_555 1_555
O14 Sr1 1_555 1_555
H14 O14 1_555 1_555
C7 C8 1_555 1_555
C8 O10 1_555 1_555
C9 C8 1_555 1_555
C10 O12 1_555 1_555
H15 C10 1_555 1_555
C11 O13 1_555 1_555
H16 C11 1_555 1_555
C12 O14 1_555 1_555
H17 C12 1_555 1_555
H18 C12 1_555 1_555
Sr1A O5 1_555 1_555
O5A Sr1 1_555 1_555
O7A Sr1 1_555 1_555
H6A O7A 1_555 1_555
O8A Sr1 1_555 1_555
H7A O8A 1_555 1_555
O7 Sr1A 1_555 1_555
O8 Sr1A 1_555 1_555
C1 C2 1_555 1_555
C3 C4 1_555 1_555
C4 C5 1_555 1_555
C5 C6 1_555 1_555
C9 C10 1_555 1_555
C10 C11 1_555 1_555
C11 C12 1_555 1_555

#END
