
#######################################################################
#
#                 Cambridge Crystallographic Data Centre
#                                CCDC 
#
#######################################################################
#
# If this CIF has been generated from an entry in the Cambridge 
# Structural Database, then it will include bibliographic, chemical, 
# crystal, experimental, refinement or atomic coordinate data resulting 
# from the CCDC's data processing and validation procedures.
#
#######################################################################

data_UCOCEU
_symmetry_cell_setting           monoclinic
_symmetry_space_group_name_H-M   'P 21/m'
_symmetry_Int_Tables_number      11
_space_group_name_Hall           '-P 2yb'
loop_
_symmetry_equiv_pos_site_id
_symmetry_equiv_pos_as_xyz
1 x,y,z
2 x,1/2-y,z
3 -x,-y,-z
4 -x,1/2+y,-z
_cell_length_a                   5.1248(3)
_cell_length_b                   13.0696(8)
_cell_length_c                   6.4077(4)
_cell_angle_alpha                90
_cell_angle_beta                 106.046(4)
_cell_angle_gamma                90
_cell_volume                     412.461
loop_
_atom_site_label
_atom_site_type_symbol
_atom_site_fract_x
_atom_site_fract_y
_atom_site_fract_z
Ag1 Ag 0.11802(8) 0.2500 -0.00624(6)
S1 S -0.22155(18) 0.39853(7) -0.00420(15)
C1 C -0.0603(7) 0.4786(3) 0.2252(6)
H1 H -0.1787 0.5383 0.2262
H2 H -0.0454 0.4394 0.3602
C2 C -0.2191(7) 0.4831(3) -0.2275(6)
H3 H -0.3368 0.5427 -0.2232
H4 H -0.2982 0.4465 -0.3657
S2 S 0.5030(3) 0.2500 0.3506(2)
C3 C 0.3443(11) 0.2500 0.5435(8)
N1 N 0.2436(9) 0.2500 0.6838(8)
C2B C 0.2191(7) 0.5169(3) 0.2275(6)
S1B S 0.22155(18) 0.60147(7) 0.00420(15)
C1B C 0.0603(7) 0.5214(3) -0.2252(6)
H1B H 0.1787 0.4617 -0.2262
H2B H 0.0454 0.5606 -0.3602
H3B H 0.3368 0.4573 0.2232
H4B H 0.2982 0.5535 0.3657
S1A S -0.22155(18) 0.10147(7) -0.00420(15)
N1_2 N 0.2436(9) 0.2500 -0.3162(8)
Ag1_2 Ag 0.11802(8) 0.2500 0.99376(6)
Ag1B Ag -0.11802(8) 0.7500 0.00624(6)
loop_
_geom_bond_atom_site_label_1
_geom_bond_atom_site_label_2
_geom_bond_site_symmetry_1
_geom_bond_site_symmetry_2
Ag1 S1 1_555 1_555
S1 C1 1_555 1_555
C1 H1 1_555 1_555
H2 C1 1_555 1_555
C2 S1 1_555 1_555
H3 C2 1_555 1_555
H4 C2 1_555 1_555
S2 Ag1 1_555 1_555
C3 S2 1_555 1_555
N1 C3 1_555 1_555
C2B C1 1_555 1_555
S1B C2B 1_555 1_555
C1B C2 1_555 1_555
H1B C1B 1_555 1_555
H2B C1B 1_555 1_555
H3B C2B 1_555 1_555
H4B C2B 1_555 1_555
S1A Ag1 1_555 1_555
N1_2 Ag1 1_555 1_555
Ag1_2 N1 1_555 1_555
Ag1B S1B 1_555 1_555
S1B C1B 1_555 1_555

#END
