
#######################################################################
#
#                 Cambridge Crystallographic Data Centre
#                                CCDC 
#
#######################################################################
#
# If this CIF has been generated from an entry in the Cambridge 
# Structural Database, then it will include bibliographic, chemical, 
# crystal, experimental, refinement or atomic coordinate data resulting 
# from the CCDC's data processing and validation procedures.
#
#######################################################################

data_UCODOG
_symmetry_cell_setting           monoclinic
_symmetry_space_group_name_H-M   'P 21/n'
_symmetry_Int_Tables_number      14
_space_group_name_Hall           '-P 2yn'
loop_
_symmetry_equiv_pos_site_id
_symmetry_equiv_pos_as_xyz
1 x,y,z
2 1/2-x,1/2+y,1/2-z
3 -x,-y,-z
4 1/2+x,1/2-y,1/2+z
_cell_length_a                   10.8858(3)
_cell_length_b                   9.9530(2)
_cell_length_c                   13.3275(3)
_cell_angle_alpha                90
_cell_angle_beta                 95.0178(15)
_cell_angle_gamma                90
_cell_volume                     1438.45
loop_
_atom_site_label
_atom_site_type_symbol
_atom_site_fract_x
_atom_site_fract_y
_atom_site_fract_z
U1 U 0.617473(17) 0.705417(17) 0.327790(14)
O1 O 0.5419(3) 0.6416(3) 0.4305(3)
O2 O 0.6979(3) 0.7639(3) 0.2268(3)
O3 O 0.4276(3) 0.7658(3) 0.2330(3)
O4 O 0.2905(3) 0.6285(3) 0.2961(3)
O5 O -0.0625(3) 0.4240(3) 0.1211(3)
O6 O -0.0431(3) 0.5496(3) 0.2622(3)
O7 O -0.0575(3) 1.0253(3) 0.2809(3)
O8 O 0.0676(4) 0.8691(4) 0.3533(3)
O9 O 0.7827(3) 0.7945(4) 0.4450(3)
H1 H 0.798(5) 0.877(2) 0.454(4)
H2 H 0.848(3) 0.751(4) 0.460(4)
O10 O 0.7652(3) 0.5354(3) 0.3694(3)
H3 H 0.767(5) 0.466(3) 0.404(3)
H4 H 0.818(4) 0.529(5) 0.328(3)
N1 N 0.0961(4) 0.7338(4) 0.1901(3)
H8 H 0.1005(15) 0.705(3) 0.250(5)
C1 C 0.2203(5) 0.7937(5) 0.1763(4)
H9 H 0.2206 0.8899 0.1952
H10 H 0.2368 0.7873 0.1046
C2 C 0.3204(5) 0.7204(5) 0.2409(4)
C3 C 0.0655(5) 0.6148(5) 0.1245(4)
H11 H 0.1419 0.5653 0.1130
H12 H 0.0265 0.6448 0.0584
C4 C -0.0223(5) 0.5230(5) 0.1752(4)
C5 C -0.0031(5) 0.8380(5) 0.1815(4)
H13 H -0.0849 0.7948 0.1695
H14 H 0.0086 0.8991 0.1245
C6 C 0.0050(5) 0.9166(5) 0.2802(4)
U1A U -0.117473(17) 0.205417(17) 0.172210(14)
U1A_2 U -0.117473(17) 1.205417(17) 0.172210(14)
O5A O 0.5625(3) 0.9240(3) 0.3789(3)
O7A O 0.5575(3) 0.5253(3) 0.2191(3)
O11 O 0.7413(5) 0.3297(4) 0.4932(3)
H5 H 0.774(7) 0.252(4) 0.495(5)
H6 H 0.726(7) 0.345(6) 0.554(2)
O12 O 0.9759(4) 0.6448(5) 0.5289(3)
H7 H 0.991(6) 0.642(7) 0.5909(16)
O13 O 0.8345(4) 1.0573(4) 0.4641(3)
H15 H 0.876(4) 1.067(6) 0.5206(19)
H16 H 0.884(4) 1.073(6) 0.420(3)
loop_
_geom_bond_atom_site_label_1
_geom_bond_atom_site_label_2
_geom_bond_site_symmetry_1
_geom_bond_site_symmetry_2
U1 O1 1_555 1_555
O2 U1 1_555 1_555
O3 U1 1_555 1_555
O4 C2 1_555 1_555
O5 C4 1_555 1_555
O6 C4 1_555 1_555
O7 C6 1_555 1_555
O8 C6 1_555 1_555
O9 U1 1_555 1_555
H1 O9 1_555 1_555
H2 O9 1_555 1_555
O10 U1 1_555 1_555
H3 O10 1_555 1_555
H4 O10 1_555 1_555
O11 H5 1_555 1_555
H6 O11 1_555 1_555
O12 H7 1_555 1_555
N1 H8 1_555 1_555
C1 N1 1_555 1_555
H9 C1 1_555 1_555
H10 C1 1_555 1_555
C2 O3 1_555 1_555
C3 N1 1_555 1_555
H11 C3 1_555 1_555
H12 C3 1_555 1_555
C4 C3 1_555 1_555
C5 N1 1_555 1_555
H13 C5 1_555 1_555
H14 C5 1_555 1_555
C6 C5 1_555 1_555
O13 H15 1_555 1_555
H16 O13 1_555 1_555
U1A O5 1_555 1_555
U1A_2 O7 1_555 1_555
O5A U1 1_555 1_555
O7A U1 1_555 1_555
C1 C2 1_555 1_555

#END
