
#######################################################################
#
#                 Cambridge Crystallographic Data Centre
#                                CCDC 
#
#######################################################################
#
# If this CIF has been generated from an entry in the Cambridge 
# Structural Database, then it will include bibliographic, chemical, 
# crystal, experimental, refinement or atomic coordinate data resulting 
# from the CCDC's data processing and validation procedures.
#
#######################################################################

data_UCODAS
_symmetry_cell_setting           triclinic
_symmetry_space_group_name_H-M   'P -1'
_symmetry_Int_Tables_number      2
_space_group_name_Hall           '-P 1'
loop_
_symmetry_equiv_pos_site_id
_symmetry_equiv_pos_as_xyz
1 x,y,z
2 -x,-y,-z
_cell_length_a                   8.8634(4)
_cell_length_b                   12.6390(6)
_cell_length_c                   12.8768(6)
_cell_angle_alpha                89.1820(10)
_cell_angle_beta                 89.9130(10)
_cell_angle_gamma                86.9410(10)
_cell_volume                     1440.31
loop_
_atom_site_label
_atom_site_type_symbol
_atom_site_fract_x
_atom_site_fract_y
_atom_site_fract_z
Zn1 Zn 0.58057(5) 0.60145(4) 0.61549(4)
Zn2 Zn 0.05294(5) 0.60445(4) 0.88464(4)
Zn3 Zn 0.24296(5) 0.77118(4) 0.24707(3)
Zn4 Zn 0.66727(5) 0.91001(4) 0.90014(4)
Zn5 Zn 0.16639(5) 0.88420(4) 0.56085(4)
P1 P 0.29585(11) 0.71177(8) 0.72813(8)
H1 H 0.3831 0.7900 0.7497
P2 P 0.80154(11) 0.73085(8) 0.75991(8)
H2 H 0.9144 0.7829 0.7210
P3 P -0.01828(12) 0.90421(8) 0.34188(8)
H3 H -0.1239 0.8425 0.3099
P4 P -0.01674(13) 0.37003(9) 0.86947(8)
H4 H 0.0704 0.2832 0.8844
P5 P 0.52126(12) 0.86170(8) 0.12484(8)
H5 H 0.6173 0.8337 0.1998
P6 P 0.46814(12) 0.64801(8) 0.39083(8)
H6 H 0.5502 0.6320 0.3063
O1 O 0.1944(3) 0.7493(2) 0.6375(2)
O2 O 0.2110(3) 0.6860(2) 0.8264(2)
O3 O 0.3989(3) 0.6181(2) 0.6964(2)
O4 O 0.6762(3) 0.8129(2) 0.7858(2)
O5 O 0.7563(3) 0.6549(3) 0.6785(2)
O6 O 0.8601(3) 0.6740(3) 0.8573(2)
O7 O -0.0892(4) 1.0150(2) 0.3398(2)
O8 O 0.1071(3) 0.8953(2) 0.2608(2)
O9 O 0.0301(3) 0.8616(2) 0.4479(2)
O10 O 0.3902(3) 0.7881(2) 0.1358(2)
O11 O 0.4751(3) 0.9763(2) 0.1426(2)
O12 O 0.6026(4) 0.8380(2) 0.0251(2)
O13 O 0.0863(3) 0.4583(2) 0.8435(2)
O14 O -0.1223(4) 0.3486(2) 0.7800(2)
O15 O -0.1067(3) 0.3887(3) 0.9691(2)
O16 O 0.5766(3) 0.6663(2) 0.4785(2)
O17 O 0.3751(3) 0.5504(2) 0.4067(2)
O18 O 0.3652(3) 0.7458(2) 0.3704(2)
N1 N 0.8661(3) 0.9790(2) 0.9365(2)
H7 H 0.8793 1.0300 0.8872
C1 C 1.0053(5) 0.9083(3) 0.9357(4)
H8 H 1.0176 0.8776 0.8674
H9 H 0.9941 0.8508 0.9853
C2 C 0.8537(5) 1.0344(4) 1.0377(3)
H10 H 0.8351 0.9829 1.0923
H11 H 0.7678 1.0852 1.0353
N2 N 0.3710(4) 0.9306(3) 0.5095(2)
H12 H 0.4057 0.8806 0.4639
C3 C 0.4872(5) 0.9353(5) 0.5903(4)
H13 H 0.4522 0.9857 0.6423
H14 H 0.5002 0.8664 0.6241
C4 C 0.3603(5) 1.0328(4) 0.4507(4)
H15 H 0.2916 1.0268 0.3928
H16 H 0.3186 1.0879 0.4956
Zn1A Zn 0.41943(5) 0.39855(4) 0.38451(4)
Zn1_2 Zn -0.41943(5) 0.60145(4) 0.61549(4)
Zn2_2 Zn 1.05294(5) 0.60445(4) 0.88464(4)
Zn2A Zn -0.05294(5) 0.39555(4) 1.11536(4)
Zn2A_2 Zn 0.94706(5) 0.39555(4) 0.11536(4)
Zn3A Zn 0.75704(5) 0.22882(4) 0.75293(3)
Zn3A_2 Zn -0.24296(5) 0.22882(4) 0.75293(3)
Zn3_2 Zn 0.24296(5) 0.77118(4) 1.24707(3)
Zn3A_3 Zn 0.75704(5) 1.22882(4) 0.75293(3)
Zn3A_4 Zn -0.24296(5) 1.22882(4) 0.75293(3)
Zn4_2 Zn -0.33273(5) 0.91001(4) 0.90014(4)
Zn4A Zn 0.33273(5) 1.08999(4) 0.09986(4)
Zn4_3 Zn 0.66727(5) 0.91001(4) -0.09986(4)
Zn4A_2 Zn 1.33273(5) 1.08999(4) 1.09986(4)
Zn4A_3 Zn 0.33273(5) 1.08999(4) 1.09986(4)
Zn5A Zn 0.83361(5) 0.11580(4) 0.43915(4)
Zn5A_2 Zn -0.16639(5) 1.11580(4) 0.43915(4)
Zn5A_3 Zn 0.83361(5) 1.11580(4) 0.43915(4)
P1A P 0.70415(11) 0.28823(8) 0.27187(8)
H1A H 0.6169 0.2100 0.2503
P2_2 P -0.19846(11) 0.73085(8) 0.75991(8)
H2_2 H -0.0856 0.7829 0.7210
P3A P 0.01828(12) 1.09579(8) 0.65812(8)
H3A H 0.1239 1.1575 0.6901
P4A P 0.01674(13) 0.62997(9) 1.13053(8)
H4A H -0.0704 0.7168 1.1156
P5A P 0.47874(12) 1.13830(8) 0.87516(8)
H5A H 0.3827 1.1663 0.8002
P6A P 0.53186(12) 0.35199(8) 0.60917(8)
H6A H 0.4498 0.3680 0.6937
O1A O 0.8056(3) 0.2507(2) 0.3625(2)
O2A O 0.7890(3) 0.3140(2) 0.1736(2)
O2_2 O 1.2110(3) 0.6860(2) 0.8264(2)
O3A O 0.6011(3) 0.3819(2) 0.3036(2)
O4_2 O -0.3238(3) 0.8129(2) 0.7858(2)
O5_2 O -0.2437(3) 0.6549(3) 0.6785(2)
O5A O 0.2437(3) 0.3451(3) 0.3215(2)
O6_2 O -0.1399(3) 0.6740(3) 0.8573(2)
O7A O 0.0892(4) 0.9850(2) 0.6602(2)
O7_2 O 0.9108(4) 0.0150(2) 0.3398(2)
O8A O -0.1071(3) 1.1047(2) 0.7392(2)
O8A_2 O 0.8929(3) 0.1047(2) 0.7392(2)
O9A O -0.0301(3) 1.1384(2) 0.5521(2)
O9A_2 O 0.9699(3) 0.1384(2) 0.5521(2)
O10A O 0.6098(3) 1.2119(2) 0.8642(2)
O10A_2 O 0.6098(3) 0.2119(2) 0.8642(2)
O11A O 0.5249(3) 1.0237(2) 0.8574(2)
O11A_2 O -0.4751(3) 1.0237(2) 0.8574(2)
O12A O 0.3974(4) 1.1620(2) 0.9749(2)
O12_2 O 0.6026(4) 0.8380(2) 1.0251(2)
O12_3 O -0.3974(4) 0.8380(2) 1.0251(2)
O13A O -0.0863(3) 0.5417(2) 1.1565(2)
O13_2 O 1.0863(3) 0.4583(2) 0.8435(2)
O14A O 0.1223(4) 0.6514(2) 1.2200(2)
O14A_2 O 0.1223(4) 0.6514(2) 0.2200(2)
O14_2 O 0.8777(4) 0.3486(2) 0.7800(2)
O15A O 0.1067(3) 0.6113(3) 1.0309(2)
O15A_2 O 1.1067(3) 0.6113(3) 1.0309(2)
O16A O 0.4234(3) 0.3337(2) 0.5215(2)
O17A O 0.6249(3) 0.4496(2) 0.5933(2)
O18A O 0.6348(3) 0.2542(2) 0.6296(2)
N1A N 1.1339(3) 1.0210(2) 1.0635(2)
N1_2 N -0.1339(3) 0.9790(2) 0.9365(2)
H7A H 1.1207 0.9700 1.1128
H7_2 H -0.1207 1.0300 0.8872
C1A C 0.9947(5) 1.0917(3) 1.0643(4)
H8A H 0.9824 1.1224 1.1326
H9A H 1.0059 1.1492 1.0147
C2A C 1.1463(5) 0.9656(4) 0.9623(3)
H10A H 1.1649 1.0171 0.9077
H11A H 1.2322 0.9148 0.9647
N2A N 0.6290(4) 1.0694(3) 0.4905(2)
N2A_2 N 0.6290(4) 0.0694(3) 0.4905(2)
H12A H 0.5943 1.1194 0.5361
H12A_2 H 0.5943 0.1194 0.5361
C3A C 0.5128(5) 1.0647(5) 0.4097(4)
H13A H 0.5478 1.0143 0.3577
H14A H 0.4998 1.1336 0.3759
C4A C 0.6397(5) 0.9672(4) 0.5493(4)
H15A H 0.7084 0.9732 0.6072
H16A H 0.6814 0.9121 0.5044
N3 N 0.9023(4) 0.4150(3) 0.4853(3)
H17 H 0.8827 0.3537 0.4545
H18 H 0.8236 0.4332 0.5267
C5 C 1.0398(5) 0.3985(4) 0.5494(3)
H19 H 1.1222 0.3697 0.5069
H20 H 1.0219 0.3478 0.6047
C6 C 0.9171(5) 0.4983(4) 0.4045(3)
H21 H 0.8219 0.5095 0.3679
H22 H 0.9934 0.4749 0.3547
N3A N 1.0977(4) 0.5850(3) 0.5147(3)
H17A H 1.1173 0.6463 0.5455
H18A H 1.1764 0.5668 0.4733
C5A C 0.9602(5) 0.6015(4) 0.4506(3)
H19A H 0.8778 0.6303 0.4931
H20A H 0.9781 0.6522 0.3953
C6A C 1.0829(5) 0.5017(4) 0.5955(3)
H21A H 1.1781 0.4905 0.6321
H22A H 1.0066 0.5251 0.6453
N4 N 0.5710(4) 0.4009(3) 0.9699(3)
H23 H 0.6611 0.4022 1.0018
H24 H 0.5690 0.3398 0.9349
C7 C 0.4492(5) 0.4049(3) 1.0487(3)
H25 H 0.4661 0.3472 1.0984
H26 H 0.3526 0.3967 1.0152
C8 C 0.5538(6) 0.4910(3) 0.8960(3)
H27 H 0.4608 0.4861 0.8572
H28 H 0.6371 0.4877 0.8470
N4A N 0.4290(4) 0.5991(3) 1.0301(3)
H23A H 0.3389 0.5978 0.9982
H24A H 0.4310 0.6602 1.0651
C7A C 0.5508(5) 0.5951(3) 0.9513(3)
H25A H 0.5339 0.6528 0.9016
H26A H 0.6474 0.6033 0.9848
C8A C 0.4462(6) 0.5090(3) 1.1040(3)
H27A H 0.5392 0.5139 1.1428
H28A H 0.3629 0.5123 1.1530
loop_
_geom_bond_atom_site_label_1
_geom_bond_atom_site_label_2
_geom_bond_site_symmetry_1
_geom_bond_site_symmetry_2
Zn1 O3 1_555 1_555
Zn2 O2 1_555 1_555
Zn3 O8 1_555 1_555
Zn4 O4 1_555 1_555
Zn5 O1 1_555 1_555
P1 H1 1_555 1_555
P2 H2 1_555 1_555
P3 H3 1_555 1_555
P4 H4 1_555 1_555
P5 H5 1_555 1_555
P6 H6 1_555 1_555
O1 P1 1_555 1_555
O2 P1 1_555 1_555
O3 P1 1_555 1_555
O4 P2 1_555 1_555
O5 Zn1 1_555 1_555
O6 P2 1_555 1_555
O7 P3 1_555 1_555
O8 P3 1_555 1_555
O9 Zn5 1_555 1_555
O10 Zn3 1_555 1_555
O11 P5 1_555 1_555
O12 P5 1_555 1_555
O13 Zn2 1_555 1_555
O14 P4 1_555 1_555
O15 P4 1_555 1_555
O16 Zn1 1_555 1_555
O17 P6 1_555 1_555
O18 Zn3 1_555 1_555
N1 Zn4 1_555 1_555
H7 N1 1_555 1_555
C1 N1 1_555 1_555
H8 C1 1_555 1_555
H9 C1 1_555 1_555
C2 N1 1_555 1_555
H10 C2 1_555 1_555
H11 C2 1_555 1_555
N2 Zn5 1_555 1_555
H12 N2 1_555 1_555
C3 N2 1_555 1_555
H13 C3 1_555 1_555
H14 C3 1_555 1_555
C4 N2 1_555 1_555
H15 C4 1_555 1_555
H16 C4 1_555 1_555
N3 H17 1_555 1_555
H18 N3 1_555 1_555
C5 N3 1_555 1_555
H19 C5 1_555 1_555
H20 C5 1_555 1_555
C6 N3 1_555 1_555
H21 C6 1_555 1_555
H22 C6 1_555 1_555
N4 H23 1_555 1_555
H24 N4 1_555 1_555
C7 N4 1_555 1_555
H25 C7 1_555 1_555
H26 C7 1_555 1_555
C8 N4 1_555 1_555
H27 C8 1_555 1_555
H28 C8 1_555 1_555
Zn1A O17 1_555 1_555
Zn1_2 O5_2 1_555 1_555
Zn2_2 O6 1_555 1_555
Zn2A O15 1_555 1_555
Zn2A_2 O2A 1_555 1_555
Zn3A O8A_2 1_555 1_555
Zn3A_2 O14 1_555 1_555
Zn3_2 O14A 1_555 1_555
Zn3A_3 O10A 1_555 1_555
Zn3A_4 O8A 1_555 1_555
Zn4_2 O4_2 1_555 1_555
Zn4A O11 1_555 1_555
Zn4_3 O12 1_555 1_555
Zn4A_2 N1A 1_555 1_555
Zn4A_3 O12A 1_555 1_555
Zn5A O1A 1_555 1_555
Zn5A_2 O7 1_555 1_555
Zn5A_3 N2A 1_555 1_555
P1A H1A 1_555 1_555
P2_2 H2_2 1_555 1_555
P3A H3A 1_555 1_555
P4A H4A 1_555 1_555
P5A H5A 1_555 1_555
P6A H6A 1_555 1_555
O1A P1A 1_555 1_555
O2A P1A 1_555 1_555
O2_2 Zn2_2 1_555 1_555
O3A Zn1A 1_555 1_555
O4_2 P2_2 1_555 1_555
O5_2 P2_2 1_555 1_555
O5A Zn1A 1_555 1_555
O6_2 Zn2 1_555 1_555
O7A Zn5 1_555 1_555
O7_2 Zn5A 1_555 1_555
O8A P3A 1_555 1_555
O9A Zn5A_2 1_555 1_555
O9A_2 Zn5A 1_555 1_555
O10A P5A 1_555 1_555
O10A_2 Zn3A 1_555 1_555
O11A Zn4 1_555 1_555
O11A_2 Zn4_2 1_555 1_555
O12A P5A 1_555 1_555
O12_2 Zn4 1_555 1_555
O12_3 Zn4_2 1_555 1_555
O13A Zn2A 1_555 1_555
O13_2 Zn2_2 1_555 1_555
O14A P4A 1_555 1_555
O14A_2 Zn3 1_555 1_555
O14_2 Zn3A 1_555 1_555
O15A Zn2 1_555 1_555
O15A_2 Zn2_2 1_555 1_555
O16A Zn1A 1_555 1_555
O17A Zn1 1_555 1_555
O18A Zn3A 1_555 1_555
N1A H7A 1_555 1_555
N1_2 Zn4_2 1_555 1_555
H7_2 N1_2 1_555 1_555
C1A C2 1_555 1_555
H8A C1A 1_555 1_555
H9A C1A 1_555 1_555
C2A C1 1_555 1_555
H10A C2A 1_555 1_555
H11A C2A 1_555 1_555
N2A H12A 1_555 1_555
N2A_2 Zn5A 1_555 1_555
H12A_2 N2A_2 1_555 1_555
C3A C4 1_555 1_555
H13A C3A 1_555 1_555
H14A C3A 1_555 1_555
C4A C3 1_555 1_555
H15A C4A 1_555 1_555
H16A C4A 1_555 1_555
N3A H17A 1_555 1_555
H18A N3A 1_555 1_555
C5A C6 1_555 1_555
H19A C5A 1_555 1_555
H20A C5A 1_555 1_555
C6A C5 1_555 1_555
H21A C6A 1_555 1_555
H22A C6A 1_555 1_555
N4A H23A 1_555 1_555
H24A N4A 1_555 1_555
C7A C8 1_555 1_555
H25A C7A 1_555 1_555
H26A C7A 1_555 1_555
C8A C7 1_555 1_555
H27A C8A 1_555 1_555
H28A C8A 1_555 1_555
P2 O5 1_555 1_555
P3 O9 1_555 1_555
P4 O13 1_555 1_555
P5 O10 1_555 1_555
P6 O16 1_555 1_555
P6 O18 1_555 1_555
P1A O3A 1_555 1_555
P2_2 O6_2 1_555 1_555
P3A O7A 1_555 1_555
P3A O9A 1_555 1_555
P4A O13A 1_555 1_555
P4A O15A 1_555 1_555
P5A O11A 1_555 1_555
P6A O16A 1_555 1_555
P6A O17A 1_555 1_555
P6A O18A 1_555 1_555
N1A C1A 1_555 1_555
N1A C2A 1_555 1_555
N2A C3A 1_555 1_555
N2A C4A 1_555 1_555
N3A C5A 1_555 1_555
N3A C6A 1_555 1_555
N4A C7A 1_555 1_555
N4A C8A 1_555 1_555

#END
