
#######################################################################
#
#                 Cambridge Crystallographic Data Centre
#                                CCDC 
#
#######################################################################
#
# If this CIF has been generated from an entry in the Cambridge 
# Structural Database, then it will include bibliographic, chemical, 
# crystal, experimental, refinement or atomic coordinate data resulting 
# from the CCDC's data processing and validation procedures.
#
#######################################################################

data_UCODOG01
_symmetry_cell_setting           monoclinic
_symmetry_space_group_name_H-M   'P 21/n'
_symmetry_Int_Tables_number      14
_space_group_name_Hall           '-P 2yn'
loop_
_symmetry_equiv_pos_site_id
_symmetry_equiv_pos_as_xyz
1 x,y,z
2 1/2-x,1/2+y,1/2-z
3 -x,-y,-z
4 1/2+x,1/2-y,1/2+z
_cell_length_a                   10.8909(6)
_cell_length_b                   9.9608(3)
_cell_length_c                   13.3505(8)
_cell_angle_alpha                90
_cell_angle_beta                 95.065(3)
_cell_angle_gamma                90
_cell_volume                     1442.63
loop_
_atom_site_label
_atom_site_type_symbol
_atom_site_fract_x
_atom_site_fract_y
_atom_site_fract_z
U1 U 0.117259(14) 0.205673(17) 0.827907(12)
O1 O 0.1979(3) 0.2642(3) 0.7271(2)
O2 O 0.0416(3) 0.1420(3) 0.9301(2)
O3 O 0.0619(3) 0.4239(3) 0.8789(2)
O4 O 0.0435(3) 0.5503(3) 0.7378(2)
O5 O 0.0568(3) 1.0257(3) 0.7191(2)
O6 O -0.0673(3) 0.8684(4) 0.6464(2)
O7 O -0.4275(3) 0.7659(3) 0.7672(2)
O8 O -0.2900(3) 0.6290(3) 0.7039(2)
O9 O 0.2824(3) 0.2956(3) 0.9447(2)
H1 H 0.2796 0.3847 0.9604
H2 H 0.3513 0.2511 0.9593
O10 O 0.2652(3) 0.0356(3) 0.8693(2)
H3 H 0.3389 0.0094 0.8343
H4 H 0.2603 -0.0365 0.9151
N1 N -0.0960(3) 0.7341(4) 0.8102(3)
H11 H -0.1013 0.6990 0.7412
C1 C -0.0649(4) 0.6156(5) 0.8762(3)
H12 H -0.1397 0.5675 0.8882
H13 H -0.0259 0.6454 0.9404
C2 C 0.0219(4) 0.5233(5) 0.8254(4)
C3 C 0.0034(4) 0.8390(5) 0.8181(3)
H14 H 0.0837 0.7969 0.8297
H15 H -0.0078 0.8991 0.8738
C4 C -0.0052(4) 0.9172(5) 0.7194(4)
C5 C -0.2193(4) 0.7938(4) 0.8240(3)
H16 H -0.2193 0.8882 0.8061
H17 H -0.2358 0.7868 0.8940
C6 C -0.3194(4) 0.7212(5) 0.7586(3)
U1_2 U 0.117259(14) 1.205673(17) 0.827907(12)
U1A U -0.617259(14) 0.705673(17) 0.672093(12)
O5_2 O 0.0568(3) 0.0257(3) 0.7191(2)
O7A O -0.0725(3) 0.2659(3) 0.7328(2)
O11 O 0.3345(3) 0.5588(3) 0.9639(3)
H5 H 0.3745 0.5467 0.9173
H6 H 0.3783 0.5694 1.0223
O12 O 0.4763(3) 0.1444(4) 1.0296(3)
H7 H 0.4629 0.1568 1.0953
H8 H 0.5438 0.2042 1.0119
O13 O 0.2440(4) -0.1713(4) 0.9933(3)
H9 H 0.2637 -0.2499 0.9841
H10 H 0.2233 -0.1408 1.0415
loop_
_geom_bond_atom_site_label_1
_geom_bond_atom_site_label_2
_geom_bond_site_symmetry_1
_geom_bond_site_symmetry_2
U1 O1 1_555 1_555
O2 U1 1_555 1_555
O3 U1 1_555 1_555
O4 C2 1_555 1_555
O5 C4 1_555 1_555
O6 C4 1_555 1_555
O7 C6 1_555 1_555
O8 C6 1_555 1_555
O9 U1 1_555 1_555
H1 O9 1_555 1_555
H2 O9 1_555 1_555
O10 U1 1_555 1_555
H3 O10 1_555 1_555
H4 O10 1_555 1_555
O11 H5 1_555 1_555
H6 O11 1_555 1_555
O12 H7 1_555 1_555
H8 O12 1_555 1_555
O13 H9 1_555 1_555
H10 O13 1_555 1_555
N1 H11 1_555 1_555
C1 N1 1_555 1_555
H12 C1 1_555 1_555
H13 C1 1_555 1_555
C2 O3 1_555 1_555
C3 N1 1_555 1_555
H14 C3 1_555 1_555
H15 C3 1_555 1_555
C4 C3 1_555 1_555
C5 N1 1_555 1_555
H16 C5 1_555 1_555
H17 C5 1_555 1_555
C6 C5 1_555 1_555
U1_2 O5 1_555 1_555
U1A O7 1_555 1_555
O5_2 U1 1_555 1_555
O7A U1 1_555 1_555
C1 C2 1_555 1_555

#END
