
#######################################################################
#
#                 Cambridge Crystallographic Data Centre
#                                CCDC 
#
#######################################################################
#
# If this CIF has been generated from an entry in the Cambridge 
# Structural Database, then it will include bibliographic, chemical, 
# crystal, experimental, refinement or atomic coordinate data resulting 
# from the CCDC's data processing and validation procedures.
#
#######################################################################

data_UCOHOJ
_symmetry_cell_setting           monoclinic
_symmetry_space_group_name_H-M   'P 21'
_symmetry_Int_Tables_number      4
_space_group_name_Hall           'P 2yb'
loop_
_symmetry_equiv_pos_site_id
_symmetry_equiv_pos_as_xyz
1 x,y,z
2 -x,1/2+y,-z
_cell_length_a                   9.417(3)
_cell_length_b                   11.007(3)
_cell_length_c                   12.204(2)
_cell_angle_alpha                90
_cell_angle_beta                 98.31(2)
_cell_angle_gamma                90
_cell_volume                     1251.7
loop_
_atom_site_label
_atom_site_type_symbol
_atom_site_fract_x
_atom_site_fract_y
_atom_site_fract_z
Ag1 Ag 0.14844(9) 0.0057 0.15547(7)
O1 O 0.1530(8) 0.3076(8) -0.0772(7)
O2 O -0.066(1) 0.1410(9) -0.2731(7)
N1 N 0.1740(10) 0.1599(9) 0.0511(7)
N2 N -0.123(1) 0.3325(10) -0.2332(7)
C1 C 0.092(1) 0.210(1) -0.0305(9)
C2 C 0.305(1) 0.309(1) -0.026(1)
C3 C 0.311(1) 0.234(1) 0.0766(10)
C4 C -0.055(1) 0.182(1) -0.0771(10)
C5 C -0.085(1) 0.226(1) -0.1973(9)
C6 C -0.106(2) 0.197(2) -0.381(1)
C7 C -0.127(2) 0.330(2) -0.355(1)
C8 C -0.151(1) 0.252(2) -0.005(1)
C9 C -0.083(2) 0.043(1) -0.073(1)
C10 C 0.441(1) 0.154(1) 0.095(1)
C11 C 0.472(1) 0.094(1) 0.209(1)
C12 C 0.504(1) 0.162(1) 0.303(1)
C13 C 0.529(2) 0.109(2) 0.404(1)
C14 C 0.533(2) -0.017(2) 0.416(1)
C15 C 0.496(2) -0.087(2) 0.321(2)
C16 C 0.462(2) -0.031(1) 0.215(1)
C17 C -0.008(2) 0.409(2) -0.388(1)
C18 C -0.013(1) 0.544(1) -0.3591(9)
C19 C 0.112(1) 0.603(2) -0.315(1)
C20 C 0.117(2) 0.723(2) -0.292(1)
C21 C -0.004(3) 0.789(2) -0.312(1)
C22 C -0.136(2) 0.732(2) -0.352(2)
C23 C -0.139(2) 0.610(2) -0.377(1)
H1 H 0.3642 0.2760 -0.0751
H2 H 0.3345 0.3904 -0.0077
H3 H 0.3061 0.2835 0.1392
H4 H -0.1919 0.1608 -0.4191
H5 H -0.0316 0.1863 -0.4266
H6 H -0.2181 0.3601 -0.3909
H7 H -0.2500 0.2343 -0.0318
H8 H -0.1353 0.3358 -0.0089
H9 H -0.1306 0.2247 0.0697
H10 H -0.0670 0.0176 0.0038
H11 H -0.1803 0.0270 -0.1016
H12 H -0.0209 0.0014 -0.1123
H13 H 0.4308 0.0920 0.0413
H14 H 0.5219 0.2034 0.0864
H15 H 0.5074 0.2482 0.2978
H16 H 0.5419 0.1574 0.4685
H17 H 0.5611 -0.0549 0.4855
H18 H 0.4914 -0.1717 0.3273
H19 H 0.4351 -0.0798 0.1505
H20 H 0.0832 0.3769 -0.3517
H21 H -0.0069 0.4014 -0.4663
H22 H 0.1986 0.5548 -0.3016
H23 H 0.2043 0.7644 -0.2620
H24 H -0.0063 0.8774 -0.3002
H25 H -0.2267 0.7766 -0.3635
H26 H -0.2283 0.5714 -0.4076
N2A N 0.123(1) -0.1675(10) 0.2332(7)
Ag1A Ag -0.14844(9) 0.5057 -0.15547(7)
S1 S 0.5060(5) 0.0415(5) 0.7719(4)
F1 F 0.243(2) 0.082(2) 0.762(2)
F2 F 0.342(2) 0.147(1) 0.620(1)
F3 F 0.284(1) -0.030(1) 0.639(1)
O3 O 0.470(3) -0.055(2) 0.849(2)
O4 O 0.540(1) 0.149(1) 0.828(1)
O5 O 0.588(2) 0.014(4) 0.696(1)
C24 C 0.321(2) 0.067(2) 0.702(2)
loop_
_geom_bond_atom_site_label_1
_geom_bond_atom_site_label_2
_geom_bond_site_symmetry_1
_geom_bond_site_symmetry_2
Ag1 N1 1_555 1_555
S1 O3 1_555 1_555
F1 C24 1_555 1_555
F2 C24 1_555 1_555
F3 C24 1_555 1_555
O1 C1 1_555 1_555
O2 C5 1_555 1_555
O4 S1 1_555 1_555
O5 S1 1_555 1_555
N1 C1 1_555 1_555
N2 C5 1_555 1_555
C1 C4 1_555 1_555
C2 O1 1_555 1_555
C3 N1 1_555 1_555
C4 C5 1_555 1_555
C6 O2 1_555 1_555
C7 N2 1_555 1_555
C8 C4 1_555 1_555
C9 C4 1_555 1_555
C10 C3 1_555 1_555
C11 C10 1_555 1_555
C12 C11 1_555 1_555
C13 C12 1_555 1_555
C14 C13 1_555 1_555
C15 C14 1_555 1_555
C16 C11 1_555 1_555
C17 C7 1_555 1_555
C18 C17 1_555 1_555
C19 C18 1_555 1_555
C20 C19 1_555 1_555
C21 C20 1_555 1_555
C22 C21 1_555 1_555
C23 C18 1_555 1_555
C24 S1 1_555 1_555
H1 C2 1_555 1_555
H2 C2 1_555 1_555
H3 C3 1_555 1_555
H4 C6 1_555 1_555
H5 C6 1_555 1_555
H6 C7 1_555 1_555
H7 C8 1_555 1_555
H8 C8 1_555 1_555
H9 C8 1_555 1_555
H10 C9 1_555 1_555
H11 C9 1_555 1_555
H12 C9 1_555 1_555
H13 C10 1_555 1_555
H14 C10 1_555 1_555
H15 C12 1_555 1_555
H16 C13 1_555 1_555
H17 C14 1_555 1_555
H18 C15 1_555 1_555
H19 C16 1_555 1_555
H20 C17 1_555 1_555
H21 C17 1_555 1_555
H22 C19 1_555 1_555
H23 C20 1_555 1_555
H24 C21 1_555 1_555
H25 C22 1_555 1_555
H26 C23 1_555 1_555
N2A Ag1 1_555 1_555
Ag1A N2 1_555 1_555
C2 C3 1_555 1_555
C6 C7 1_555 1_555
C15 C16 1_555 1_555
C22 C23 1_555 1_555

#END
