
#######################################################################
#
#                 Cambridge Crystallographic Data Centre
#                                CCDC 
#
#######################################################################
#
# If this CIF has been generated from an entry in the Cambridge 
# Structural Database, then it will include bibliographic, chemical, 
# crystal, experimental, refinement or atomic coordinate data resulting 
# from the CCDC's data processing and validation procedures.
#
#######################################################################

data_UCOHUP
_symmetry_cell_setting           monoclinic
_symmetry_space_group_name_H-M   'P 21'
_symmetry_Int_Tables_number      4
_space_group_name_Hall           'P 2yb'
loop_
_symmetry_equiv_pos_site_id
_symmetry_equiv_pos_as_xyz
1 x,y,z
2 -x,1/2+y,-z
_cell_length_a                   14.684(4)
_cell_length_b                   10.869(3)
_cell_length_c                   16.467(6)
_cell_angle_alpha                90
_cell_angle_beta                 109.14(2)
_cell_angle_gamma                90
_cell_volume                     2482.86
loop_
_atom_site_label
_atom_site_type_symbol
_atom_site_fract_x
_atom_site_fract_y
_atom_site_fract_z
Ag1 Ag 0.75340(10) 0.3161 0.73497(9)
Ag2 Ag 1.24730(9) 0.2615(2) 0.69558(9)
O1 O 0.5575(8) 0.217(1) 0.8706(8)
O2 O 0.9386(8) 0.426(1) 0.5901(7)
O3 O 1.0530(9) 0.510(1) 0.7736(9)
O4 O 0.4889(10) 0.012(1) 0.7455(9)
N1 N 0.674(1) 0.253(2) 0.8137(8)
N2 N 0.8291(10) 0.375(2) 0.6496(9)
N3 N 1.165(1) 0.401(2) 0.7371(10)
N4 N 0.352(1) 0.118(2) 0.7064(10)
C1 C 0.588(1) 0.230(2) 0.801(1)
C2 C 0.646(1) 0.229(3) 0.950(1)
C3 C 0.726(1) 0.262(2) 0.9122(9)
C4 C 0.812(1) 0.181(2) 0.9453(10)
C5 C 0.897(1) 0.230(2) 1.000(1)
C6 C 0.978(2) 0.163(3) 1.037(2)
C7 C 0.978(3) 0.045(3) 1.019(2)
C8 C 0.896(2) -0.005(3) 0.960(2)
C9 C 0.812(2) 0.064(3) 0.923(3)
C10 C 0.917(1) 0.373(2) 0.652(1)
C11 C 0.850(2) 0.469(2) 0.529(1)
C12 C 0.772(1) 0.448(2) 0.572(1)
C13 C 0.688(1) 0.375(2) 0.516(1)
C14 C 0.694(2) 0.260(3) 0.487(1)
C15 C 0.620(2) 0.189(3) 0.442(2)
C16 C 0.532(2) 0.231(3) 0.417(2)
C17 C 0.513(1) 0.350(4) 0.442(2)
C18 C 0.600(2) 0.425(3) 0.496(1)
C19 C 0.509(1) 0.218(2) 0.714(1)
C20 C 0.546(1) 0.184(3) 0.643(1)
C21 C 0.460(2) 0.342(2) 0.699(2)
C22 C 0.445(1) 0.114(2) 0.725(1)
C23 C 0.419(1) -0.085(2) 0.755(2)
C24 C 0.321(2) -0.010(2) 0.719(1)
C25 C 0.265(2) -0.011(2) 0.780(1)
C26 C 0.300(2) 0.058(3) 0.855(2)
C27 C 0.243(3) 0.063(3) 0.914(1)
C28 C 0.160(3) 0.012(4) 0.894(3)
C29 C 0.130(2) -0.066(3) 0.828(3)
C30 C 0.183(2) -0.073(2) 0.759(2)
C31 C 1.002(1) 0.313(2) 0.715(1)
C32 C 0.979(1) 0.279(2) 0.803(1)
C33 C 1.031(2) 0.200(2) 0.672(1)
C34 C 1.078(1) 0.406(2) 0.739(1)
C35 C 1.135(2) 0.593(2) 0.785(2)
C36 C 1.219(2) 0.515(2) 0.772(1)
C37 C 1.304(1) 0.498(2) 0.846(1)
C38 C 1.302(1) 0.416(2) 0.911(1)
C39 C 1.386(1) 0.392(2) 0.979(1)
C40 C 1.472(1) 0.451(2) 0.984(1)
C41 C 1.474(1) 0.533(2) 0.919(1)
C42 C 1.390(1) 0.557(2) 0.851(1)
H1 H 0.6511 0.2190 1.0082
H2 H 0.7449 0.3444 0.9265
H3 H 0.8991 0.3154 1.0122
H4 H 1.0340 0.2013 1.0756
H5 H 1.0331 -0.0053 1.0460
H6 H 0.8963 -0.0886 0.9440
H7 H 0.7566 0.0271 0.8836
H8 H 0.8411 0.5034 0.4744
H9 H 0.7513 0.5238 0.5882
H10 H 0.7567 0.2263 0.5006
H11 H 0.6318 0.1076 0.4280
H12 H 0.4810 0.1817 0.3824
H13 H 0.4495 0.3822 0.4260
H14 H 0.5913 0.5048 0.5157
H15 H 0.5801 0.1081 0.6567
H16 H 0.5888 0.2465 0.6373
H17 H 0.4941 0.1760 0.5912
H18 H 0.5052 0.4036 0.6974
H19 H 0.4082 0.3414 0.6463
H20 H 0.4354 0.3600 0.7448
H21 H 0.4307 -0.1662 0.7766
H22 H 0.2825 -0.0434 0.6648
H23 H 0.3593 0.1015 0.8679
H24 H 0.2683 0.1033 0.9681
H25 H 0.1184 0.0304 0.9263
H26 H 0.0766 -0.1177 0.8226
H27 H 0.1573 -0.1174 0.7072
H28 H 0.9579 0.3505 0.8244
H29 H 0.9308 0.2175 0.7912
H30 H 1.0364 0.2489 0.8449
H31 H 0.9788 0.1441 0.6542
H32 H 1.0852 0.1607 0.7122
H33 H 1.0476 0.2266 0.6238
H34 H 1.1367 0.6787 0.7978
H35 H 1.2380 0.5521 0.7279
H36 H 1.243(1) 0.376(3) 0.908(2)
H37 H 1.384(2) 0.336(2) 1.023(1)
H38 H 1.529(1) 0.435(3) 1.030(1)
H39 H 1.533(1) 0.573(3) 0.922(2)
H40 H 1.392(2) 0.613(2) 0.807(1)
N4_2 N 1.352(1) 0.118(2) 0.7064(10)
Ag2_2 Ag 0.24730(9) 0.2615(2) 0.69558(9)
S1 S 0.1493(6) 0.3958(8) 0.4981(5)
F1 F 0.224(2) 0.483(2) 0.395(2)
F2 F 0.120(1) 0.342(2) 0.344(1)
F3 F 0.260(1) 0.296(2) 0.430(1)
O5 O 0.226(3) 0.451(4) 0.560(2)
O6 O 0.140(1) 0.283(2) 0.524(1)
O7 O 0.074(2) 0.485(3) 0.465(2)
C43 C 0.191(1) 0.378(2) 0.4116(10)
S2 S 1.3024(7) 0.0866(8) 1.1927(5)
F4 F 1.191(1) 0.268(3) 1.208(1)
F5 F 1.252(2) 0.269(3) 1.106(1)
F6 F 1.342(1) 0.300(3) 1.236(1)
O8 O 1.207(2) 0.026(3) 1.157(2)
O9 O 1.334(1) 0.057(2) 1.286(1)
O10 O 1.375(3) 0.084(5) 1.159(3)
C44 C 1.267(1) 0.240(2) 1.187(1)
O11 O 0.901(1) 0.210(2) 0.410(1)
H41 H 0.9420 0.2550 0.4550
H42 H 0.8400 0.1800 0.3800
loop_
_geom_bond_atom_site_label_1
_geom_bond_atom_site_label_2
_geom_bond_site_symmetry_1
_geom_bond_site_symmetry_2
Ag1 N1 1_555 1_555
Ag2 N3 1_555 1_555
S1 O5 1_555 1_555
S2 O8 1_555 1_555
F1 C43 1_555 1_555
F2 C43 1_555 1_555
F3 C43 1_555 1_555
F4 C44 1_555 1_555
F5 C44 1_555 1_555
F6 C44 1_555 1_555
O1 C1 1_555 1_555
O2 C10 1_555 1_555
O3 C34 1_555 1_555
O4 C22 1_555 1_555
O6 S1 1_555 1_555
O7 S1 1_555 1_555
O9 S2 1_555 1_555
O10 S2 1_555 1_555
O11 H41 1_555 1_555
N1 C1 1_555 1_555
N2 Ag1 1_555 1_555
N3 C34 1_555 1_555
N4 C22 1_555 1_555
C1 C19 1_555 1_555
C2 O1 1_555 1_555
C3 N1 1_555 1_555
C4 C3 1_555 1_555
C5 C4 1_555 1_555
C6 C5 1_555 1_555
C7 C6 1_555 1_555
C8 C7 1_555 1_555
C9 C4 1_555 1_555
C10 N2 1_555 1_555
C11 O2 1_555 1_555
C12 N2 1_555 1_555
C13 C12 1_555 1_555
C14 C13 1_555 1_555
C15 C14 1_555 1_555
C16 C15 1_555 1_555
C17 C16 1_555 1_555
C18 C13 1_555 1_555
C19 C20 1_555 1_555
C20 H15 1_555 1_555
C21 C19 1_555 1_555
C22 C19 1_555 1_555
C23 O4 1_555 1_555
C24 N4 1_555 1_555
C25 C24 1_555 1_555
C26 C25 1_555 1_555
C27 C26 1_555 1_555
C28 C27 1_555 1_555
C29 C28 1_555 1_555
C30 C25 1_555 1_555
C31 C10 1_555 1_555
C32 C31 1_555 1_555
C33 C31 1_555 1_555
C34 C31 1_555 1_555
C35 O3 1_555 1_555
C36 N3 1_555 1_555
C37 C36 1_555 1_555
C38 C37 1_555 1_555
C39 C38 1_555 1_555
C40 C39 1_555 1_555
C41 C40 1_555 1_555
C42 C37 1_555 1_555
C43 S1 1_555 1_555
C44 S2 1_555 1_555
H1 C2 1_555 1_555
H2 C3 1_555 1_555
H3 C5 1_555 1_555
H4 C6 1_555 1_555
H5 C7 1_555 1_555
H6 C8 1_555 1_555
H7 C9 1_555 1_555
H8 C11 1_555 1_555
H9 C12 1_555 1_555
H10 C14 1_555 1_555
H11 C15 1_555 1_555
H12 C16 1_555 1_555
H13 C17 1_555 1_555
H14 C18 1_555 1_555
H16 C20 1_555 1_555
H17 C20 1_555 1_555
H18 C21 1_555 1_555
H19 C21 1_555 1_555
H20 C21 1_555 1_555
H21 C23 1_555 1_555
H22 C24 1_555 1_555
H23 C26 1_555 1_555
H24 C27 1_555 1_555
H25 C28 1_555 1_555
H26 C29 1_555 1_555
H27 C30 1_555 1_555
H28 C32 1_555 1_555
H29 C32 1_555 1_555
H30 C32 1_555 1_555
H31 C33 1_555 1_555
H32 C33 1_555 1_555
H33 C33 1_555 1_555
H34 C35 1_555 1_555
H35 C36 1_555 1_555
H36 C38 1_555 1_555
H37 C39 1_555 1_555
H38 C40 1_555 1_555
H39 C41 1_555 1_555
H40 C42 1_555 1_555
H42 O11 1_555 1_555
N4_2 Ag2 1_555 1_555
Ag2_2 N4 1_555 1_555
C2 C3 1_555 1_555
C8 C9 1_555 1_555
C11 C12 1_555 1_555
C17 C18 1_555 1_555
C23 C24 1_555 1_555
C29 C30 1_555 1_555
C35 C36 1_555 1_555
C41 C42 1_555 1_555

#END
