
#######################################################################
#
#                 Cambridge Crystallographic Data Centre
#                                CCDC 
#
#######################################################################
#
# If this CIF has been generated from an entry in the Cambridge 
# Structural Database, then it will include bibliographic, chemical, 
# crystal, experimental, refinement or atomic coordinate data resulting 
# from the CCDC's data processing and validation procedures.
#
#######################################################################

data_UCOHUR
_symmetry_cell_setting           orthorhombic
_symmetry_space_group_name_H-M   'P b c a'
_symmetry_Int_Tables_number      61
_space_group_name_Hall           '-P 2ac 2ab'
loop_
_symmetry_equiv_pos_site_id
_symmetry_equiv_pos_as_xyz
1 x,y,z
2 1/2-x,-y,1/2+z
3 -x,1/2+y,1/2-z
4 1/2+x,1/2-y,-z
5 -x,-y,-z
6 1/2+x,y,1/2-z
7 x,1/2-y,1/2+z
8 1/2-x,1/2+y,z
_cell_length_a                   27.165(4)
_cell_length_b                   13.745(2)
_cell_length_c                   46.162(7)
_cell_angle_alpha                90
_cell_angle_beta                 90
_cell_angle_gamma                90
_cell_volume                     17236.1
loop_
_atom_site_label
_atom_site_type_symbol
_atom_site_fract_x
_atom_site_fract_y
_atom_site_fract_z
C1 C 0.7552(3) 0.6756(4) 0.35227(14)
C2 C 0.8072(3) 0.6738(5) 0.35125(14)
H1 H 0.8232 0.6864 0.3334
C3 C 0.8355(3) 0.6538(5) 0.37571(16)
C4 C 0.8108(3) 0.6337(5) 0.40183(15)
H2 H 0.8296 0.6197 0.4187
C5 C 0.7605(3) 0.6336(5) 0.40366(15)
H3 H 0.7449 0.6194 0.4216
C6 C 0.7314(3) 0.6546(4) 0.37898(15)
C7 C 0.6773(3) 0.6545(4) 0.38025(15)
C8 C 0.6527(3) 0.6373(5) 0.40696(16)
H4 H 0.6713 0.6276 0.4242
C9 C 0.6017(3) 0.6348(5) 0.40798(19)
H5 H 0.5855 0.6244 0.4259
C10 C 0.5741(3) 0.6475(5) 0.38261(19)
H6 H 0.5392 0.6444 0.3833
C11 C 0.5978(3) 0.6644(5) 0.35672(17)
H7 H 0.5789 0.6725 0.3396
C12 C 0.6498(3) 0.6701(5) 0.35511(15)
C13 C 0.6741(3) 0.6944(4) 0.32768(14)
C14 C 0.6472(3) 0.7182(5) 0.30253(15)
H8 H 0.6123 0.7171 0.3033
C15 C 0.6697(3) 0.7429(5) 0.27720(16)
H9 H 0.6505 0.7566 0.2605
C16 C 0.7209(3) 0.7481(4) 0.27571(15)
H10 H 0.7366 0.7659 0.2581
C17 C 0.7486(3) 0.7270(4) 0.30013(14)
H11 H 0.7835 0.7319 0.2992
C18 C 0.7261(3) 0.6986(4) 0.32638(14)
C19 C 0.8893(3) 0.6536(5) 0.37456(17)
H12 H 0.9058 0.6533 0.3927
C20 C 0.9180(3) 0.6537(6) 0.35102(18)
H13 H 0.9026 0.6524 0.3326
C21 C 0.9715(3) 0.6559(6) 0.3521(2)
H14 H 0.9872 0.6637 0.3704
C22 C 0.9989(4) 0.6474(8) 0.3289(2)
H15 H 0.9839 0.6396 0.3105
H16 H 1.0337 0.6491 0.3305
C23 C 0.7005(4) 0.8152(7) 0.47653(17)
C24 C 0.7153(4) 0.9093(8) 0.47444(18)
H17 H 0.7492 0.9254 0.4731
C25 C 0.6799(5) 0.9802(7) 0.4744(2)
H18 H 0.6894 1.0466 0.4732
C26 C 0.6295(5) 0.9557(8) 0.47601(17)
H19 H 0.6048 1.0047 0.4759
C27 C 0.6167(4) 0.8568(8) 0.47786(17)
H20 H 0.5830 0.8386 0.4788
C28 C 0.6520(4) 0.7871(7) 0.47838(16)
H21 H 0.6435 0.7204 0.4800
N1 N 0.7391(4) 0.7351(8) 0.47745(18)
O1 O 0.7818(4) 0.7604(9) 0.47450(19)
O2 O 0.7240(4) 0.6516(6) 0.4810(2)
C29 C 0.7231(3) -0.0343(5) 0.56883(19)
C30 C 0.7259(3) 0.0416(7) 0.54902(15)
H22 H 0.7394 0.0307 0.5303
C31 C 0.7089(4) 0.1336(6) 0.5566(2)
H23 H 0.7109 0.1855 0.5430
C32 C 0.6892(3) 0.1496(5) 0.5839(2)
H24 H 0.6776 0.2125 0.5891
C33 C 0.6864(3) 0.0737(7) 0.60374(16)
H25 H 0.6729 0.0846 0.6224
C34 C 0.7033(3) -0.0183(6) 0.59619(16)
H26 H 0.7014 -0.0702 0.6097
N2 N 0.7385(4) -0.1234(10) 0.5601(3)
O3 O 0.7643(3) -0.1336(7) 0.5359(2)
O4 O 0.7293(5) -0.1873(10) 0.5782(3)
C35 C 0.5581(3) 0.9227(7) 0.22831(17)
C36 C 0.5535(5) 0.8646(8) 0.2043(2)
H27 H 0.5489 0.7964 0.2062
C37 C 0.5558(7) 0.9077(9) 0.1775(2)
H28 H 0.5520 0.8689 0.1606
C38 C 0.5635(5) 1.0062(8) 0.1747(2)
H29 H 0.5650 1.0347 0.1560
C39 C 0.5689(4) 1.0629(8) 0.1986(2)
H30 H 0.5747 1.1308 0.1966
C40 C 0.5660(4) 1.0214(7) 0.2259(2)
H31 H 0.5695 1.0605 0.2428
N3 N 0.5550(3) 0.8780(7) 0.25699(16)
O5 O 0.5441(3) 0.7922(5) 0.25889(15)
O6 O 0.5625(3) 0.9285(7) 0.27804(14)
C41 C 0.5860(3) 0.3810(4) 0.26261(14)
C42 C 0.5755(3) 0.3809(5) 0.23314(13)
H32 H 0.5798 0.3231 0.2221
C43 C 0.5586(3) 0.4652(6) 0.21980(12)
H33 H 0.5515 0.4652 0.1997
C44 C 0.5523(3) 0.5497(4) 0.23594(18)
H34 H 0.5408 0.6073 0.2268
C45 C 0.5628(3) 0.5498(4) 0.26541(18)
H35 H 0.5585 0.6075 0.2764
C46 C 0.5796(3) 0.4654(5) 0.27875(12)
H36 H 0.5868 0.4655 0.2989
N4 N 0.6053(3) 0.2952(6) 0.2763(2)
O7 O 0.5999(4) 0.2168(6) 0.2637(3)
O8 O 0.6271(3) 0.3056(6) 0.29933(18)
Zn1 Zn 0.75044(3) 0.14559(5) 0.192561(15)
Zn2 Zn 0.46429(3) -0.15445(5) 0.404304(16)
Zn3 Zn 0.95086(3) -0.14347(5) 0.435662(15)
I1 I 0.697289(18) 0.29735(3) 0.200877(10)
I2 I 0.841937(18) 0.16188(4) 0.181227(11)
I3 I 0.474295(19) -0.24234(3) 0.452619(10)
I4 I 0.419856(19) -0.22858(4) 0.361046(11)
I5 I 1.017838(17) -0.05366(4) 0.408154(10)
I6 I 0.95903(2) -0.32050(3) 0.451566(11)
C47 C 0.6985(2) 0.0568(5) 0.24182(14)
H37 H 0.6708 0.0796 0.2313
C48 C 0.6912(2) 0.0195(5) 0.26916(14)
H38 H 0.6591 0.0153 0.2771
C49 C 0.7318(2) -0.0121(4) 0.28489(13)
C50 C 0.7779(2) -0.0087(4) 0.27175(13)
H39 H 0.8062 -0.0318 0.2817
C51 C 0.7818(2) 0.0285(4) 0.24424(13)
H40 H 0.8133 0.0302 0.2353
C52 C 0.5725(2) -0.1147(5) 0.40570(14)
H41 H 0.5676 -0.1222 0.4260
C53 C 0.6199(2) -0.1022(5) 0.39561(13)
H42 H 0.6470 -0.1016 0.4086
C54 C 0.6271(2) -0.0907(4) 0.36605(13)
C55 C 0.5865(2) -0.0895(5) 0.34776(13)
H43 H 0.5903 -0.0787 0.3276
C56 C 0.5403(2) -0.1043(5) 0.35968(13)
H44 H 0.5126 -0.1058 0.3471
C57 C 0.8914(2) -0.1013(5) 0.38258(13)
H45 H 0.9232 -0.0950 0.3743
C58 C 0.8508(2) -0.0870(4) 0.36509(13)
H46 H 0.8548 -0.0716 0.3452
C59 C 0.8040(2) -0.0954(4) 0.37702(13)
C60 C 0.8000(3) -0.1185(5) 0.40594(14)
H47 H 0.7685 -0.1243 0.4147
C61 C 0.8422(2) -0.1332(5) 0.42208(14)
H48 H 0.8391 -0.1505 0.4419
C62 C 0.7261(2) -0.0437(4) 0.31553(12)
C63 C 0.6776(2) -0.0774(4) 0.35386(13)
C64 C 0.7598(2) -0.0809(4) 0.35861(13)
C65 C 0.6013(3) 0.1054(5) -0.00871(14)
H49 H 0.6121 0.1703 -0.0118
C66 C 0.6195(3) 0.0548(5) 0.01496(14)
H50 H 0.6425 0.0842 0.0277
C67 C 0.6033(2) -0.0404(5) 0.01964(13)
C68 C 0.5695(2) -0.0804(5) 0.00059(13)
H51 H 0.5578 -0.1448 0.0034
C69 C 0.5531(2) -0.0252(5) -0.02274(14)
H52 H 0.5299 -0.0528 -0.0358
C70 C 0.7131(3) -0.0300(5) 0.16159(15)
H53 H 0.7265 -0.0628 0.1779
C71 C 0.6924(3) -0.0848(5) 0.13939(15)
H54 H 0.6917 -0.1538 0.1405
C72 C 0.6727(2) -0.0370(4) 0.11558(13)
C73 C 0.6734(3) 0.0644(5) 0.11515(14)
H55 H 0.6596 0.0991 0.0993
C74 C 0.6947(3) 0.1138(5) 0.13818(14)
H56 H 0.6950 0.1829 0.1379
C75 C 0.5761(3) -0.4879(5) 0.06066(14)
H57 H 0.5716 -0.5314 0.0449
C76 C 0.5930(3) -0.3937(5) 0.05496(14)
H58 H 0.5988 -0.3727 0.0356
C77 C 0.6011(2) -0.3314(5) 0.07827(14)
C78 C 0.5916(3) -0.3648(5) 0.10601(14)
H59 H 0.5972 -0.3240 0.1223
C79 C 0.5742(3) -0.4574(5) 0.10965(15)
H60 H 0.5674 -0.4795 0.1287
C80 C 0.6201(2) -0.0946(5) 0.04580(13)
C81 C 0.6502(2) -0.0922(5) 0.09118(14)
C82 C 0.6173(2) -0.2297(5) 0.07351(14)
N5 N 0.7431(2) 0.0624(4) 0.22945(11)
N6 N 0.5329(2) -0.1167(4) 0.38820(12)
N7 N 0.88773(19) -0.1238(4) 0.41066(11)
N8 N 0.6804(2) -0.0530(4) 0.32578(11)
N9 N 0.7157(2) -0.0921(4) 0.37133(11)
N10 N 0.76726(19) -0.0577(4) 0.33087(11)
N11 N 0.56905(19) 0.0663(4) -0.02739(11)
N12 N 0.7148(2) 0.0675(4) 0.16079(11)
N13 N 0.5662(2) -0.5188(4) 0.08736(11)
N14 N 0.6429(2) -0.0431(4) 0.06646(11)
N15 N 0.6382(2) -0.1844(4) 0.09597(11)
N16 N 0.6081(2) -0.1893(4) 0.04746(12)
Zn2B Zn 0.53571(3) -0.65445(5) 0.095696(16)
Zn3A Zn 0.54914(3) 0.14347(5) -0.064338(15)
N11A N 0.93095(19) -0.0663(4) 0.47261(11)
N13B N 0.4338(2) -0.0188(4) 0.41264(11)
C83? C 0.583(2) 0.355(2) 0.2652(7)
C84? C 0.579(2) 0.423(3) 0.2430(7)
C85? C 0.567(2) 0.519(2) 0.2494(10)
C86? C 0.560(2) 0.547(2) 0.2780(11)
C87? C 0.564(2) 0.479(3) 0.3002(8)
C88? C 0.576(2) 0.383(2) 0.2937(7)
H61? H 0.5842 0.4035 0.2235
H62? H 0.5645 0.5651 0.2343
H63? H 0.5518 0.6124 0.2824
H64? H 0.5590 0.4981 0.3197
H65? H 0.5788 0.3364 0.3089
N17? N 0.595(3) 0.253(3) 0.2591(8)
O9? O 0.5865(19) 0.219(3) 0.2351(7)
O10? O 0.609(2) 0.202(3) 0.2796(8)
loop_
_geom_bond_atom_site_label_1
_geom_bond_atom_site_label_2
_geom_bond_site_symmetry_1
_geom_bond_site_symmetry_2
C1 C2 1_555 1_555
C2 H1 1_555 1_555
C3 C2 1_555 1_555
C4 C3 1_555 1_555
H2 C4 1_555 1_555
C5 C4 1_555 1_555
H3 C5 1_555 1_555
C6 C1 1_555 1_555
C7 C6 1_555 1_555
C8 C7 1_555 1_555
H4 C8 1_555 1_555
C9 C8 1_555 1_555
H5 C9 1_555 1_555
C10 C9 1_555 1_555
H6 C10 1_555 1_555
C11 C10 1_555 1_555
H7 C11 1_555 1_555
C12 C7 1_555 1_555
C13 C12 1_555 1_555
C14 C13 1_555 1_555
H8 C14 1_555 1_555
C15 C14 1_555 1_555
H9 C15 1_555 1_555
C16 C15 1_555 1_555
H10 C16 1_555 1_555
C17 C16 1_555 1_555
H11 C17 1_555 1_555
C18 C1 1_555 1_555
C19 C3 1_555 1_555
H12 C19 1_555 1_555
C20 C19 1_555 1_555
H13 C20 1_555 1_555
C21 C20 1_555 1_555
H14 C21 1_555 1_555
C22 C21 1_555 1_555
H15 C22 1_555 1_555
H16 C22 1_555 1_555
C23 C24 1_555 1_555
C24 H17 1_555 1_555
C25 C24 1_555 1_555
H18 C25 1_555 1_555
C26 C25 1_555 1_555
H19 C26 1_555 1_555
C27 C26 1_555 1_555
H20 C27 1_555 1_555
C28 C23 1_555 1_555
H21 C28 1_555 1_555
N1 C23 1_555 1_555
O1 N1 1_555 1_555
O2 N1 1_555 1_555
C29 C30 1_555 1_555
C30 H22 1_555 1_555
C31 C30 1_555 1_555
H23 C31 1_555 1_555
C32 C31 1_555 1_555
H24 C32 1_555 1_555
C33 C32 1_555 1_555
H25 C33 1_555 1_555
C34 C29 1_555 1_555
H26 C34 1_555 1_555
N2 C29 1_555 1_555
O3 N2 1_555 1_555
O4 N2 1_555 1_555
C35 C36 1_555 1_555
C36 H27 1_555 1_555
C37 C36 1_555 1_555
H28 C37 1_555 1_555
C38 C37 1_555 1_555
H29 C38 1_555 1_555
C39 C38 1_555 1_555
H30 C39 1_555 1_555
C40 C35 1_555 1_555
H31 C40 1_555 1_555
N3 C35 1_555 1_555
O5 N3 1_555 1_555
O6 N3 1_555 1_555
C41 C42 1_555 1_555
C42 H32 1_555 1_555
C43 C42 1_555 1_555
H33 C43 1_555 1_555
C44 C43 1_555 1_555
H34 C44 1_555 1_555
C45 C44 1_555 1_555
H35 C45 1_555 1_555
C46 C41 1_555 1_555
H36 C46 1_555 1_555
N4 C41 1_555 1_555
O7 N4 1_555 1_555
O8 N4 1_555 1_555
Zn1 I1 1_555 1_555
Zn2 I3 1_555 1_555
Zn3 I5 1_555 1_555
I2 Zn1 1_555 1_555
I4 Zn2 1_555 1_555
I6 Zn3 1_555 1_555
C47 H37 1_555 1_555
C48 C47 1_555 1_555
H38 C48 1_555 1_555
C49 C48 1_555 1_555
C50 C49 1_555 1_555
H39 C50 1_555 1_555
C51 C50 1_555 1_555
H40 C51 1_555 1_555
C52 H41 1_555 1_555
C53 C52 1_555 1_555
H42 C53 1_555 1_555
C54 C53 1_555 1_555
C55 C54 1_555 1_555
H43 C55 1_555 1_555
C56 C55 1_555 1_555
H44 C56 1_555 1_555
C57 H45 1_555 1_555
C58 C57 1_555 1_555
H46 C58 1_555 1_555
C59 C58 1_555 1_555
C60 C59 1_555 1_555
H47 C60 1_555 1_555
C61 C60 1_555 1_555
H48 C61 1_555 1_555
C62 C49 1_555 1_555
C63 C54 1_555 1_555
C64 C59 1_555 1_555
C65 H49 1_555 1_555
C66 C65 1_555 1_555
H50 C66 1_555 1_555
C67 C66 1_555 1_555
C68 C67 1_555 1_555
H51 C68 1_555 1_555
C69 C68 1_555 1_555
H52 C69 1_555 1_555
C70 H53 1_555 1_555
C71 C70 1_555 1_555
H54 C71 1_555 1_555
C72 C71 1_555 1_555
C73 C72 1_555 1_555
H55 C73 1_555 1_555
C74 C73 1_555 1_555
H56 C74 1_555 1_555
C75 H57 1_555 1_555
C76 C75 1_555 1_555
H58 C76 1_555 1_555
C77 C76 1_555 1_555
C78 C77 1_555 1_555
H59 C78 1_555 1_555
C79 C78 1_555 1_555
H60 C79 1_555 1_555
C80 C67 1_555 1_555
C81 C72 1_555 1_555
C82 C77 1_555 1_555
N5 Zn1 1_555 1_555
N6 Zn2 1_555 1_555
N7 Zn3 1_555 1_555
N8 C62 1_555 1_555
N9 C63 1_555 1_555
N10 C62 1_555 1_555
N11 C65 1_555 1_555
N12 Zn1 1_555 1_555
N13 C75 1_555 1_555
N14 C80 1_555 1_555
N15 C81 1_555 1_555
N16 C80 1_555 1_555
Zn2B N13 1_555 1_555
Zn3A N11 1_555 1_555
N11A Zn3 1_555 1_555
N13B Zn2 1_555 1_555
C5 C6 1_555 1_555
C11 C12 1_555 1_555
C13 C18 1_555 1_555
C17 C18 1_555 1_555
C27 C28 1_555 1_555
C33 C34 1_555 1_555
C39 C40 1_555 1_555
C45 C46 1_555 1_555
C47 N5 1_555 1_555
C51 N5 1_555 1_555
C52 N6 1_555 1_555
C56 N6 1_555 1_555
C57 N7 1_555 1_555
C61 N7 1_555 1_555
C63 N8 1_555 1_555
C64 N9 1_555 1_555
C64 N10 1_555 1_555
C69 N11 1_555 1_555
C70 N12 1_555 1_555
C74 N12 1_555 1_555
C79 N13 1_555 1_555
C81 N14 1_555 1_555
C82 N15 1_555 1_555
C82 N16 1_555 1_555

#END
