
#######################################################################
#
#                 Cambridge Crystallographic Data Centre
#                                CCDC 
#
#######################################################################
#
# If this CIF has been generated from an entry in the Cambridge 
# Structural Database, then it will include bibliographic, chemical, 
# crystal, experimental, refinement or atomic coordinate data resulting 
# from the CCDC's data processing and validation procedures.
#
#######################################################################

data_UCOJED
_symmetry_cell_setting           orthorhombic
_symmetry_space_group_name_H-M   'P b c a'
_symmetry_Int_Tables_number      61
_space_group_name_Hall           '-P 2ac 2ab'
loop_
_symmetry_equiv_pos_site_id
_symmetry_equiv_pos_as_xyz
1 x,y,z
2 1/2-x,-y,1/2+z
3 -x,1/2+y,1/2-z
4 1/2+x,1/2-y,-z
5 -x,-y,-z
6 1/2+x,y,1/2-z
7 x,1/2-y,1/2+z
8 1/2-x,1/2+y,z
_cell_length_a                   27.110(5)
_cell_length_b                   13.785(3)
_cell_length_c                   45.814(9)
_cell_angle_alpha                90
_cell_angle_beta                 90
_cell_angle_gamma                90
_cell_volume                     17121.2
loop_
_atom_site_label
_atom_site_type_symbol
_atom_site_fract_x
_atom_site_fract_y
_atom_site_fract_z
C1 C 0.2932(14) 0.956(2) 1.0290(5)
H1 H 0.2915 0.9529 1.0505
H2 H 0.2904 1.0258 1.0236
C2 C 0.3452(12) 0.922(2) 1.0196(7)
H3 H 0.3506 0.9345 0.9986
H4 H 0.3709 0.9562 1.0309
C3 C 0.3476(11) 0.823(2) 1.0251(7)
H5 H 0.3482 0.8129 1.0465
H6 H 0.3790 0.7978 1.0171
C4 C 0.3022(11) 0.762(2) 1.0113(7)
H7 H 0.3051 0.6922 1.0162
H8 H 0.3011 0.7691 0.9898
C5 C 0.2526(11) 0.811(2) 1.0268(7)
H9 H 0.2229 0.7727 1.0216
H10 H 0.2562 0.8099 1.0483
C6 C 0.2480(12) 0.905(3) 1.0170(8)
H11 H 0.2173 0.9347 1.0244
H12 H 0.2476 0.9067 0.9954
C7 C 0.0594(10) 0.6466(18) 0.1866(5)
H13 H 0.0951 0.6311 0.1871
H14 H 0.0412 0.5860 0.1910
C8 C 0.0482(9) 0.7213(18) 0.2112(5)
H15 H 0.0552 0.6923 0.2305
H16 H 0.0694 0.7793 0.2088
C9 C -0.0005(10) 0.7473(19) 0.2095(5)
H17 H -0.0066 0.8005 0.2236
H18 H -0.0209 0.6912 0.2156
C10 C -0.0188(11) 0.7818(19) 0.1781(6)
H19 H -0.0011 0.8408 0.1717
H20 H -0.0547 0.7949 0.1781
C11 C -0.0050(9) 0.686(2) 0.1565(6)
H21 H -0.0195 0.6261 0.1646
H22 H -0.0184 0.6966 0.1366
C12 C 0.0460(8) 0.6793(16) 0.1555(4)
H23 H 0.0612 0.7427 0.1509
H24 H 0.0567 0.6309 0.1409
C13 C 0.2286(17) 0.722(3) 0.9397(12)
H25 H 0.2341 0.7877 0.9317
H26 H 0.2592 0.7026 0.9500
C14 C 0.1868(18) 0.729(3) 0.9626(11)
H27 H 0.1962 0.7743 0.9783
H28 H 0.1562 0.7529 0.9534
C15 C 0.1790(15) 0.638(3) 0.9740(8)
H29 H 0.1458 0.6376 0.9831
H30 H 0.2033 0.6278 0.9898
C16 C 0.1824(15) 0.549(3) 0.9519(9)
H31 H 0.1502 0.5413 0.9421
H32 H 0.1892 0.4894 0.9631
C17 C 0.2254(14) 0.563(3) 0.9273(10)
H33 H 0.2582 0.5577 0.9365
H34 H 0.2224 0.5116 0.9124
C18 C 0.2212(15) 0.652(3) 0.9140(8)
H35 H 0.1883 0.6610 0.9050
H36 H 0.2470 0.6616 0.8989
C19 C 0.3323(5) 0.6955(10) 0.1640(3)
C20 C 0.3807(5) 0.6910(10) 0.1763(3)
H37 H 0.3855 0.7032 0.1965
C21 C 0.4205(6) 0.6686(11) 0.1585(4)
C22 C 0.4149(6) 0.6556(11) 0.1286(3)
H38 H 0.4429 0.6422 0.1168
C23 C 0.3692(5) 0.6622(11) 0.1163(3)
H39 H 0.3654 0.6573 0.0958
C24 C 0.3263(5) 0.6769(10) 0.1348(3)
C25 C 0.2769(6) 0.6694(10) 0.1225(4)
C26 C 0.2669(6) 0.6517(12) 0.0928(4)
H40 H 0.2941 0.6491 0.0798
C27 C 0.2211(9) 0.6379(18) 0.0816(5)
H41 H 0.2163 0.6223 0.0616
C28 C 0.1815(8) 0.6477(15) 0.1005(5)
H42 H 0.1493 0.6372 0.0930
C29 C 0.1860(7) 0.6701(12) 0.1274(4)
H43 H 0.1577 0.6766 0.1395
C30 C 0.2364(6) 0.6857(10) 0.1395(4)
C31 C 0.2411(6) 0.7137(12) 0.1689(4)
C32 C 0.1989(7) 0.7347(14) 0.1880(4)
H44 H 0.1664 0.7253 0.1808
C33 C 0.2055(9) 0.7672(17) 0.2155(5)
H45 H 0.1779 0.7869 0.2268
C34 C 0.2511(8) 0.7718(11) 0.2268(4)
H46 H 0.2548 0.7922 0.2465
C35 C 0.2936(7) 0.7476(11) 0.2109(4)
H47 H 0.3250 0.7505 0.2200
C36 C 0.2899(6) 0.7184(10) 0.1807(3)
C37 C 0.4698(7) 0.6598(13) 0.1742(6)
H48 H 0.4944 0.6710 0.1582
C38 C 0.4837(9) 0.7291(14) 0.1959(5)
H49 H 0.4611 0.7790 0.2009
C39 C 0.5272(9) 0.7260(18) 0.2092(7)
H50 H 0.5380 0.7708 0.2237
C40 C 0.5572(11) 0.641(2) 0.1982(8)
H51 H 0.5688 0.6556 0.1782
H52 H 0.5867 0.6332 0.2107
C41 C 0.4807(8) 0.5531(15) 0.1840(6)
H53 H 0.4805 0.5098 0.1665
C42 C 0.5312(11) 0.552(2) 0.1976(7)
H54 H 0.5518 0.5018 0.1876
C43 C 0.4455(7) 0.5151(10) 0.2059(4)
C44 C 0.5208(8) 0.5191(13) 0.2285(6)
C45 C 0.4390(11) 0.4713(18) 0.2600(5)
H55 H 0.4609 0.4659 0.2769
H56 H 0.4236 0.4082 0.2561
H57 H 0.4133 0.5194 0.2640
N1 N 0.4703(7) 0.5044(10) 0.2320(4)
O1 O 0.4008(4) 0.4970(8) 0.2035(3)
O2 O 0.5498(7) 0.5086(12) 0.2479(5)
Zn1 Zn 0.24344(8) 0.65442(11) 0.31134(4)
Zn2 Zn -0.03271(6) 0.35688(11) 0.08311(5)
Zn3 Zn 0.44897(5) 0.35381(11) 0.07401(3)
I1 I 0.33636(6) 0.67180(11) 0.32062(3)
I2 I 0.19083(6) 0.80873(7) 0.30503(3)
I3 I -0.08519(5) 0.26389(10) 0.11872(5)
I4 I -0.00860(4) 0.28958(9) 0.03317(3)
I5 I 0.51659(3) 0.44655(8) 0.10070(2)
I6 I 0.44458(5) 0.17235(8) 0.06485(3)
C46 C 0.2726(5) 0.5489(9) 0.2583(3)
H58 H 0.3046 0.5562 0.2666
C47 C 0.2688(5) 0.5143(8) 0.2295(3)
H59 H 0.2972 0.4995 0.2181
C48 C 0.2213(4) 0.5026(7) 0.2183(3)
C49 C 0.1812(5) 0.5229(9) 0.2353(3)
H60 H 0.1489 0.5105 0.2282
C50 C 0.1881(6) 0.5604(10) 0.2619(3)
H61 H 0.1600 0.5803 0.2727
C51 C 0.0334(4) 0.3999(9) 0.1337(4)
H62 H 0.0035 0.3939 0.1444
C52 C 0.0780(5) 0.4172(9) 0.1489(3)
H63 H 0.0781 0.4239 0.1695
C53 C 0.1209(4) 0.4240(7) 0.1333(3)
C54 C 0.1177(5) 0.4163(10) 0.1037(3)
H64 H 0.1469 0.4226 0.0924
C55 C 0.0739(5) 0.3998(10) 0.0897(3)
H65 H 0.0732 0.3940 0.0690
C56 C 0.3407(5) 0.3844(9) 0.0837(2)
H66 H 0.3399 0.3698 0.0634
C57 C 0.2975(4) 0.3980(8) 0.0971(2)
H67 H 0.2671 0.3915 0.0870
C58 C 0.2993(4) 0.4230(7) 0.1273(2)
C59 C 0.3449(4) 0.4315(7) 0.1411(2)
H68 H 0.3478 0.4496 0.1610
C60 C 0.3851(4) 0.4121(7) 0.1241(2)
H69 H 0.4163 0.4155 0.1335
C61 C 0.2158(4) 0.4725(7) 0.1869(2)
C62 C 0.1703(4) 0.4382(7) 0.1480(3)
C63 C 0.2533(4) 0.4388(7) 0.1440(2)
C64 C 0.0597(6) 0.4806(11) 0.5328(3)
H70 H 0.0462 0.4470 0.5490
C65 C 0.0718(6) 0.4266(10) 0.5085(3)
H71 H 0.0646 0.3593 0.5075
C66 C 0.0951(4) 0.4745(9) 0.4853(2)
C67 C 0.1008(6) 0.5746(10) 0.4871(3)
H72 H 0.1144 0.6105 0.4714
C68 C 0.0859(5) 0.6211(10) 0.5128(2)
H73 H 0.0908 0.6892 0.5142
C69 C 0.1985(6) 0.6196(10) 0.3678(3)
H74 H 0.2038 0.6875 0.3693
C70 C 0.1776(7) 0.5690(10) 0.3917(3)
H75 H 0.1694 0.6022 0.4092
C71 C 0.1695(5) 0.4723(9) 0.3892(3)
C72 C 0.1851(8) 0.4258(11) 0.3655(3)
H76 H 0.1822 0.3572 0.3645
C73 C 0.2054(7) 0.4761(10) 0.3427(4)
H77 H 0.2160 0.4419 0.3258
C74 C 0.0858(6) 0.0370(10) 0.4011(3)
H78 H 0.0893 0.0049 0.3829
C75 C 0.1039(6) 0.1301(10) 0.4040(3)
H79 H 0.1197 0.1602 0.3879
C76 C 0.0993(4) 0.1797(9) 0.4296(3)
C77 C 0.0760(5) 0.1343(10) 0.4531(3)
H80 H 0.0711 0.1681 0.4710
C78 C 0.0597(5) 0.0372(11) 0.4500(4)
H81 H 0.0459 0.0032 0.4661
C79 C 0.1122(5) 0.4199(9) 0.4587(3)
C80 C 0.1465(4) 0.4200(9) 0.4151(2)
C81 C 0.1136(5) 0.2836(9) 0.4332(3)
N2 N 0.2339(4) 0.5717(7) 0.2744(2)
N3 N 0.0320(4) 0.3919(7) 0.1051(3)
N4 N 0.3855(3) 0.3896(7) 0.09661(18)
N5 N 0.1704(3) 0.4609(6) 0.1761(2)
N6 N 0.2093(3) 0.4235(7) 0.1308(2)
N7 N 0.2579(3) 0.4633(6) 0.1725(2)
N8 N 0.0654(4) 0.5761(8) 0.5352(2)
N9 N 0.2108(6) 0.5748(8) 0.3438(3)
N10 N 0.0643(3) -0.0081(8) 0.4224(3)
N11 N 0.1357(4) 0.4709(7) 0.4386(2)
N12 N 0.1367(4) 0.3256(7) 0.4109(2)
N13 N 0.1011(4) 0.3285(7) 0.4579(2)
Zn2B Zn 0.03271(6) -0.14312(11) 0.41689(5)
Zn3A Zn 0.05103(5) 0.64619(11) 0.57401(3)
N8A N 0.4346(4) 0.4239(8) 0.0352(2)
N10B N -0.0643(3) 0.4919(8) 0.0776(3)
loop_
_geom_bond_atom_site_label_1
_geom_bond_atom_site_label_2
_geom_bond_site_symmetry_1
_geom_bond_site_symmetry_2
C1 H1 1_555 1_555
H2 C1 1_555 1_555
C2 C1 1_555 1_555
H3 C2 1_555 1_555
H4 C2 1_555 1_555
C3 C2 1_555 1_555
H5 C3 1_555 1_555
H6 C3 1_555 1_555
C4 C3 1_555 1_555
H7 C4 1_555 1_555
H8 C4 1_555 1_555
C5 C4 1_555 1_555
H9 C5 1_555 1_555
H10 C5 1_555 1_555
C6 C1 1_555 1_555
H11 C6 1_555 1_555
H12 C6 1_555 1_555
C7 H13 1_555 1_555
H14 C7 1_555 1_555
C8 C7 1_555 1_555
H15 C8 1_555 1_555
H16 C8 1_555 1_555
C9 C8 1_555 1_555
H17 C9 1_555 1_555
H18 C9 1_555 1_555
C10 C9 1_555 1_555
H19 C10 1_555 1_555
H20 C10 1_555 1_555
C11 C10 1_555 1_555
H21 C11 1_555 1_555
H22 C11 1_555 1_555
C12 C7 1_555 1_555
H23 C12 1_555 1_555
H24 C12 1_555 1_555
C13 H25 1_555 1_555
H26 C13 1_555 1_555
C14 C13 1_555 1_555
H27 C14 1_555 1_555
H28 C14 1_555 1_555
C15 C14 1_555 1_555
H29 C15 1_555 1_555
H30 C15 1_555 1_555
C16 C15 1_555 1_555
H31 C16 1_555 1_555
H32 C16 1_555 1_555
C17 C16 1_555 1_555
H33 C17 1_555 1_555
H34 C17 1_555 1_555
C18 C13 1_555 1_555
H35 C18 1_555 1_555
H36 C18 1_555 1_555
C19 C20 1_555 1_555
C20 H37 1_555 1_555
C21 C20 1_555 1_555
C22 C21 1_555 1_555
H38 C22 1_555 1_555
C23 C22 1_555 1_555
H39 C23 1_555 1_555
C24 C19 1_555 1_555
C25 C24 1_555 1_555
C26 C25 1_555 1_555
H40 C26 1_555 1_555
C27 C26 1_555 1_555
H41 C27 1_555 1_555
C28 C27 1_555 1_555
H42 C28 1_555 1_555
C29 C28 1_555 1_555
H43 C29 1_555 1_555
C30 C25 1_555 1_555
C31 C30 1_555 1_555
C32 C31 1_555 1_555
H44 C32 1_555 1_555
C33 C32 1_555 1_555
H45 C33 1_555 1_555
C34 C33 1_555 1_555
H46 C34 1_555 1_555
C35 C34 1_555 1_555
H47 C35 1_555 1_555
C36 C19 1_555 1_555
C37 C21 1_555 1_555
H48 C37 1_555 1_555
C38 C37 1_555 1_555
H49 C38 1_555 1_555
C39 C38 1_555 1_555
H50 C39 1_555 1_555
C40 C39 1_555 1_555
H51 C40 1_555 1_555
H52 C40 1_555 1_555
C41 C37 1_555 1_555
H53 C41 1_555 1_555
C42 C40 1_555 1_555
H54 C42 1_555 1_555
C43 C41 1_555 1_555
C44 C42 1_555 1_555
C45 H55 1_555 1_555
H56 C45 1_555 1_555
H57 C45 1_555 1_555
N1 C43 1_555 1_555
O1 C43 1_555 1_555
O2 C44 1_555 1_555
Zn1 I1 1_555 1_555
Zn2 I3 1_555 1_555
Zn3 I5 1_555 1_555
I2 Zn1 1_555 1_555
I4 Zn2 1_555 1_555
I6 Zn3 1_555 1_555
C46 H58 1_555 1_555
C47 C46 1_555 1_555
H59 C47 1_555 1_555
C48 C47 1_555 1_555
C49 C48 1_555 1_555
H60 C49 1_555 1_555
C50 C49 1_555 1_555
H61 C50 1_555 1_555
C51 H62 1_555 1_555
C52 C51 1_555 1_555
H63 C52 1_555 1_555
C53 C52 1_555 1_555
C54 C53 1_555 1_555
H64 C54 1_555 1_555
C55 C54 1_555 1_555
H65 C55 1_555 1_555
C56 H66 1_555 1_555
C57 C56 1_555 1_555
H67 C57 1_555 1_555
C58 C57 1_555 1_555
C59 C58 1_555 1_555
H68 C59 1_555 1_555
C60 C59 1_555 1_555
H69 C60 1_555 1_555
C61 C48 1_555 1_555
C62 C53 1_555 1_555
C63 C58 1_555 1_555
C64 H70 1_555 1_555
C65 C64 1_555 1_555
H71 C65 1_555 1_555
C66 C65 1_555 1_555
C67 C66 1_555 1_555
H72 C67 1_555 1_555
C68 C67 1_555 1_555
H73 C68 1_555 1_555
C69 H74 1_555 1_555
C70 C69 1_555 1_555
H75 C70 1_555 1_555
C71 C70 1_555 1_555
C72 C71 1_555 1_555
H76 C72 1_555 1_555
C73 C72 1_555 1_555
H77 C73 1_555 1_555
C74 H78 1_555 1_555
C75 C74 1_555 1_555
H79 C75 1_555 1_555
C76 C75 1_555 1_555
C77 C76 1_555 1_555
H80 C77 1_555 1_555
C78 C77 1_555 1_555
H81 C78 1_555 1_555
C79 C66 1_555 1_555
C80 C71 1_555 1_555
C81 C76 1_555 1_555
N2 Zn1 1_555 1_555
N3 Zn2 1_555 1_555
N4 Zn3 1_555 1_555
N5 C61 1_555 1_555
N6 C62 1_555 1_555
N7 C61 1_555 1_555
N8 C64 1_555 1_555
N9 Zn1 1_555 1_555
N10 C74 1_555 1_555
N11 C79 1_555 1_555
N12 C80 1_555 1_555
N13 C79 1_555 1_555
Zn2B N10 1_555 1_555
Zn3A N8 1_555 1_555
N8A Zn3 1_555 1_555
N10B Zn2 1_555 1_555
C5 C6 1_555 1_555
C11 C12 1_555 1_555
C17 C18 1_555 1_555
C23 C24 1_555 1_555
C29 C30 1_555 1_555
C31 C36 1_555 1_555
C35 C36 1_555 1_555
C41 C42 1_555 1_555
C44 N1 1_555 1_555
C45 N1 1_555 1_555
C46 N2 1_555 1_555
C50 N2 1_555 1_555
C51 N3 1_555 1_555
C55 N3 1_555 1_555
C56 N4 1_555 1_555
C60 N4 1_555 1_555
C62 N5 1_555 1_555
C63 N6 1_555 1_555
C63 N7 1_555 1_555
C68 N8 1_555 1_555
C69 N9 1_555 1_555
C73 N9 1_555 1_555
C78 N10 1_555 1_555
C80 N11 1_555 1_555
C81 N12 1_555 1_555
C81 N13 1_555 1_555

#END
