
#######################################################################
#
#                 Cambridge Crystallographic Data Centre
#                                CCDC 
#
#######################################################################
#
# If this CIF has been generated from an entry in the Cambridge 
# Structural Database, then it will include bibliographic, chemical, 
# crystal, experimental, refinement or atomic coordinate data resulting 
# from the CCDC's data processing and validation procedures.
#
#######################################################################

data_UCOJAX
_symmetry_cell_setting           triclinic
_symmetry_space_group_name_H-M   'P -1'
_symmetry_Int_Tables_number      2
_space_group_name_Hall           '-P 1'
loop_
_symmetry_equiv_pos_site_id
_symmetry_equiv_pos_as_xyz
1 x,y,z
2 -x,-y,-z
_cell_length_a                   13.9348(1)
_cell_length_b                   25.2744(3)
_cell_length_c                   27.6186(4)
_cell_angle_alpha                98.360(1)
_cell_angle_beta                 94.318(1)
_cell_angle_gamma                92.105(1)
_cell_volume                     9585.21
loop_
_atom_site_label
_atom_site_type_symbol
_atom_site_fract_x
_atom_site_fract_y
_atom_site_fract_z
Fe6 Fe 0.98762(15) -0.51675(8) -0.24637(8)
N7 N 0.9845(9) -0.5208(5) -0.3191(5)
N8 N 1.0696(9) -0.5774(5) -0.2613(5)
N9 N 0.8718(9) -0.5622(5) -0.2488(5)
N10 N 0.9910(9) -0.5211(5) -0.1753(4)
N11 N 0.9154(9) -0.4502(5) -0.2385(5)
N12 N 1.0978(12) -0.4647(6) -0.2388(6)
C31 C 0.9302(11) -0.4912(7) -0.3472(7)
H25 H 0.8892 -0.4671 -0.3317
C32 C 0.9329(13) -0.4951(10) -0.3961(7)
H26 H 0.8979 -0.4725 -0.4136
C33 C 0.9899(13) -0.5341(9) -0.4205(7)
H27 H 0.9889 -0.5402 -0.4545
C34 C 1.0481(14) -0.5631(7) -0.3911(6)
H28 H 1.0912 -0.5866 -0.4054
C35 C 1.0415(12) -0.5569(7) -0.3415(5)
C36 C 1.0944(11) -0.5873(6) -0.3069(6)
C37 C 1.1598(13) -0.6240(6) -0.3235(7)
H29 H 1.1740 -0.6291 -0.3561
C38 C 1.2034(13) -0.6530(8) -0.2897(7)
H30 H 1.2485 -0.6780 -0.2989
C39 C 1.1788(11) -0.6439(7) -0.2431(7)
H31 H 1.2066 -0.6632 -0.2199
C40 C 1.1146(11) -0.6073(6) -0.2297(6)
H32 H 1.0999 -0.6020 -0.1971
C41 C 0.8111(11) -0.5847(7) -0.2864(6)
H33 H 0.8250 -0.5785 -0.3176
C42 C 0.7321(13) -0.6153(8) -0.2836(7)
H34 H 0.6943 -0.6301 -0.3119
C43 C 0.7079(14) -0.6246(8) -0.2388(7)
H35 H 0.6517 -0.6444 -0.2357
C44 C 0.7678(11) -0.6042(7) -0.1983(6)
H36 H 0.7536 -0.6109 -0.1674
C45 C 0.8487(11) -0.5737(6) -0.2035(6)
C46 C 0.9170(11) -0.5497(6) -0.1624(5)
C47 C 0.9084(14) -0.5592(7) -0.1150(6)
H37 H 0.8571 -0.5801 -0.1072
C48 C 0.9811(13) -0.5357(7) -0.0784(6)
H38 H 0.9777 -0.5399 -0.0457
C49 C 1.0540(15) -0.5075(7) -0.0922(7)
H39 H 1.1028 -0.4927 -0.0687
C50 C 1.0594(13) -0.4997(7) -0.1402(7)
H40 H 1.1109 -0.4794 -0.1486
C51 C 0.8212(12) -0.4476(8) -0.2368(6)
H41 H 0.7831 -0.4775 -0.2330
C52 C 0.7809(15) -0.3989(7) -0.2408(6)
H42 H 0.7141 -0.3982 -0.2416
C53 C 0.8266(16) -0.3555(8) -0.2436(8)
H43 H 0.7952 -0.3242 -0.2470
C54 C 0.9244(14) -0.3570(7) -0.2414(8)
H44 H 0.9625 -0.3263 -0.2425
C55 C 0.9663(15) -0.4062(7) -0.2375(8)
C56 C 1.0779(19) -0.4083(10) -0.2336(10)
C57 C 1.1355(19) -0.3742(9) -0.237(2)
H45 H 1.1153 -0.3408 -0.2423
C58 C 1.2368(17) -0.3831(9) -0.232(3)
H46 H 1.2821 -0.3550 -0.2317
C59 C 1.2654(18) -0.4341(12) -0.2287(17)
H47 H 1.3297 -0.4412 -0.2223
C60 C 1.1935(13) -0.4742(9) -0.2352(10)
H48 H 1.2114 -0.5095 -0.2373
Fe7 Fe 0.97823(15) 0.18269(8) 0.10227(8)
N1 N 0.9908(9) 0.1055(5) 0.1059(6)
N2 N 1.0387(9) 0.1628(5) 0.0407(4)
N3 N 1.1088(8) 0.2035(5) 0.1329(4)
N4 N 0.9823(8) 0.2596(5) 0.0948(4)
N5 N 0.9134(9) 0.1999(4) 0.1629(4)
N6 N 0.8438(9) 0.1650(5) 0.0750(4)
C1 C 0.9683(14) 0.0848(9) 0.1441(10)
H1 H 0.9444 0.1050 0.1711
C2 C 0.9829(14) 0.0290(9) 0.1421(10)
H2 H 0.9607 0.0111 0.1666
C3 C 1.0268(14) 0.0022(8) 0.1066(12)
H3 H 1.0364 -0.0340 0.1071
C4 C 1.0589(16) 0.0258(7) 0.0688(10)
H4 H 1.0915 0.0070 0.0441
C5 C 1.0391(12) 0.0811(7) 0.0695(8)
C6 C 1.0655(12) 0.1118(7) 0.0320(6)
C7 C 1.1184(16) 0.0931(10) -0.0041(9)
H5 H 1.1386 0.0583 -0.0057
C8 C 1.1434(13) 0.1214(10) -0.0373(9)
H6 H 1.1779 0.1071 -0.0633
C9 C 1.1154(14) 0.1745(10) -0.0320(6)
H7 H 1.1316 0.1967 -0.0544
C10 C 1.0615(12) 0.1942(7) 0.0087(6)
H8 H 1.0425 0.2293 0.0124
C11 C 1.1731(12) 0.1735(7) 0.1534(6)
H9 H 1.1538 0.1383 0.1554
C12 C 1.2631(14) 0.1902(8) 0.1715(6)
H10 H 1.3025 0.1680 0.1873
C13 C 1.2949(15) 0.2396(8) 0.1661(7)
H11 H 1.3583 0.2514 0.1759
C14 C 1.2313(12) 0.2729(6) 0.1455(6)
H12 H 1.2513 0.3078 0.1431
C15 C 1.1385(11) 0.2543(6) 0.1286(5)
C16 C 1.0672(10) 0.2855(5) 0.1082(5)
C17 C 1.0842(13) 0.3385(7) 0.1006(7)
H13 H 1.1436 0.3564 0.1102
C18 C 1.0098(16) 0.3632(8) 0.0784(9)
H14 H 1.0211 0.3970 0.0701
C19 C 0.9176(15) 0.3382(7) 0.0683(8)
H15 H 0.8661 0.3570 0.0573
C20 C 0.9039(12) 0.2840(7) 0.0749(7)
H16 H 0.8447 0.2655 0.0663
C21 C 0.9546(12) 0.2158(7) 0.2070(5)
H17 H 1.0210 0.2135 0.2123
C22 C 0.9028(13) 0.2362(8) 0.2467(7)
H18 H 0.9334 0.2453 0.2781
C23 C 0.8023(14) 0.2426(7) 0.2378(7)
H19 H 0.7664 0.2586 0.2625
C24 C 0.7598(12) 0.2246(7) 0.1916(6)
H20 H 0.6941 0.2275 0.1846
C25 C 0.8163(10) 0.2018(6) 0.1553(5)
C26 C 0.7763(11) 0.1766(6) 0.1071(5)
C27 C 0.6804(11) 0.1620(7) 0.0960(6)
H21 H 0.6366 0.1705 0.1194
C28 C 0.6485(15) 0.1343(7) 0.0499(7)
H22 H 0.5840 0.1240 0.0412
C29 C 0.7193(12) 0.1230(6) 0.0177(7)
H23 H 0.7022 0.1036 -0.0132
C30 C 0.8149(12) 0.1398(6) 0.0304(6)
H24 H 0.8597 0.1333 0.0072
Fe8 Fe 0.00999(14) -0.17299(8) 0.38418(8)
N13 N 0.0158(8) -0.2346(5) 0.4214(5)
N14 N 0.1517(8) -0.1702(5) 0.3975(5)
N15 N -0.0165(8) -0.1263(5) 0.4441(4)
N16 N -0.1308(7) -0.1789(4) 0.3728(4)
N17 N 0.0354(9) -0.2146(5) 0.3211(5)
N18 N 0.0068(8) -0.1149(5) 0.3443(5)
C61 C 0.0452(12) -0.0991(6) 0.4776(6)
H49 H 0.1105 -0.1018 0.4732
C62 C 0.0200(12) -0.0669(7) 0.5188(6)
H50 H 0.0667 -0.0469 0.5404
C63 C -0.0749(13) -0.0651(7) 0.5271(7)
H51 H -0.0940 -0.0455 0.5557
C64 C -0.1440(13) -0.0934(7) 0.4917(6)
H52 H -0.2095 -0.0922 0.4959
C65 C -0.1101(9) -0.1233(6) 0.4501(5)
C66 C -0.1749(9) -0.1506(5) 0.4117(5)
C67 C -0.2759(9) -0.1518(5) 0.4086(5)
H53 H -0.3065 -0.1340 0.4345
C68 C -0.3303(10) -0.1781(5) 0.3691(5)
H54 H -0.3972 -0.1790 0.3678
C69 C -0.2823(11) -0.2040(6) 0.3303(5)
H55 H -0.3171 -0.2209 0.3019
C70 C -0.1847(10) -0.2043(6) 0.3344(6)
H56 H -0.1542 -0.2232 0.3090
C71 C -0.0155(11) -0.0645(6) 0.3588(7)
H57 H -0.0282 -0.0544 0.3913
C72 C -0.0205(12) -0.0263(7) 0.3272(7)
H58 H -0.0417 0.0076 0.3379
C73 C 0.0053(11) -0.0384(7) 0.2814(7)
H59 H 0.0050 -0.0128 0.2604
C74 C 0.0331(11) -0.0912(8) 0.2657(6)
H60 H 0.0528 -0.1006 0.2343
C75 C 0.0305(9) -0.1289(5) 0.2980(5)
C76 C 0.0495(10) -0.1871(7) 0.2847(6)
C77 C 0.0810(11) -0.2097(8) 0.2410(6)
H61 H 0.0919 -0.1890 0.2165
C78 C 0.0966(14) -0.2654(8) 0.2337(7)
H62 H 0.1241 -0.2821 0.2062
C79 C 0.0697(14) -0.2919(8) 0.2687(8)
H63 H 0.0686 -0.3291 0.2635
C80 C 0.0440(11) -0.2668(7) 0.3109(6)
H64 H 0.0312 -0.2875 0.3352
C81 C 0.2139(10) -0.1353(5) 0.3835(6)
H65 H 0.1917 -0.1045 0.3726
C82 C 0.3107(9) -0.1444(6) 0.3850(5)
H66 H 0.3539 -0.1192 0.3763
C83 C 0.3433(11) -0.1900(6) 0.3992(6)
H67 H 0.4081 -0.1970 0.3976
C84 C 0.2837(13) -0.2254(7) 0.4154(7)
H68 H 0.3066 -0.2557 0.4270
C85 C 0.1862(12) -0.2147(6) 0.4140(6)
C86 C 0.1100(10) -0.2491(6) 0.4304(7)
C87 C 0.1272(12) -0.2899(8) 0.4584(8)
H69 H 0.1902 -0.2992 0.4653
C88 C 0.0531(15) -0.3164(8) 0.4760(9)
H70 H 0.0653 -0.3431 0.4953
C89 C -0.0416(12) -0.3027(8) 0.4644(8)
H71 H -0.0938 -0.3214 0.4741
C90 C -0.0550(12) -0.2613(7) 0.4388(8)
H72 H -0.1177 -0.2509 0.4330
O129 O 0.8194(16) 0.4413(9) 0.3620(11)
O130 O -0.0860(16) 0.3609(10) 0.3937(11)
O131 O 0.2752(9) 0.2580(5) 0.5289(5)
O132 O 0.463(2) -0.3413(15) -0.2462(7)
O133 O 1.0846(12) -0.2954(11) 0.0694(8)
O134 O -0.0568(11) -0.1261(8) 0.1507(5)
O135 O 0.4626(13) -0.6491(7) -0.2611(5)
O136 O 0.8809(10) -0.2158(7) 0.1829(7)
O137 O 0.1195(10) 0.2259(6) 0.3012(6)
O138 O 0.5716(9) 0.1079(5) 0.4991(5)
O139 O 0.6787(11) -0.1403(6) -0.0572(5)
O140 O 0.6945(9) -0.2507(4) -0.0326(4)
Mo1 Mo 0.25534(8) 0.42697(4) 0.50013(4)
Mo2 Mo 0.68320(8) 0.39133(4) 0.48152(4)
Mo3 Mo 0.66127(8) -0.42525(4) 0.10655(4)
Mo4 Mo 0.73727(8) -0.42059(4) -0.01221(4)
Mo5 Mo 0.61106(8) 0.39077(4) 0.56513(4)
Mo6 Mo 0.31146(8) -0.39545(4) 0.02503(4)
Mo7 Mo 0.36469(8) 0.41240(4) 0.57662(4)
Mo8 Mo 0.46683(8) -0.15212(4) 0.24945(4)
Mo9 Mo 0.53837(8) 0.15007(4) 0.25171(4)
Mo10 Mo 0.35019(8) 0.42803(4) 0.38568(4)
Mo11 Mo 0.36830(8) -0.39343(4) -0.06174(4)
Mo12 Mo 0.48139(8) -0.40951(4) 0.12193(4)
Mo13 Mo 0.61267(9) -0.40823(4) -0.08363(4)
Mo14 Mo 0.69241(8) 0.01554(4) 0.36173(4)
Mo15 Mo 0.52673(7) -0.01840(4) 0.38586(4)
Mo16 Mo 0.47609(8) 0.01929(4) 0.11553(4)
Mo17 Mo 0.69902(8) 0.11137(4) 0.28138(4)
Mo18 Mo 0.53071(8) 0.40856(4) 0.37837(4)
Mo19 Mo 0.31230(8) -0.01499(4) 0.14149(4)
Mo20 Mo 0.30697(7) -0.11139(4) 0.22242(4)
Mo21 Mo 0.31110(8) 0.03177(4) 0.34191(4)
Mo22 Mo 0.69081(8) -0.03408(4) 0.15732(4)
Mo23 Mo 0.31494(8) 0.10289(4) 0.28319(4)
Mo24 Mo 0.68891(7) -0.10488(4) 0.21580(4)
Fe1 Fe 0.5000 -0.5000 0.0000
Fe2 Fe 0.50417(12) -0.00087(7) 0.25087(6)
Fe3 Fe 0.5000 0.5000 0.5000
Fe4 Fe 0.47801(13) 0.22679(7) 0.42079(6)
Fe5 Fe 0.51125(13) -0.22740(7) 0.07897(6)
P1 P 0.5490(2) -0.34732(12) 0.02803(12)
P2 P 0.4691(3) 0.30800(14) 0.61228(14)
P3 P 0.4781(2) -0.11107(12) 0.13837(11)
P4 P 0.4421(2) 0.34864(12) 0.46899(12)
P5 P 0.5223(2) 0.11099(12) 0.36330(11)
P6 P 0.6561(2) 0.30175(13) 0.38469(13)
P7 P 0.8313(3) -0.34106(15) 0.08472(14)
P8 P 0.6334(3) -0.03037(14) 0.03985(12)
P9 P 0.1681(3) 0.34829(17) 0.40089(17)
P10 P 0.6166(2) -0.22970(12) 0.19100(11)
P11 P 0.3475(2) -0.30464(13) 0.12124(14)
P12 P 0.1865(3) -0.12931(14) 0.11537(13)
P13 P 0.3836(3) 0.22856(13) 0.30632(12)
P14 P 0.8471(4) 0.11989(19) 0.3805(2)
P15 P 0.4874(3) -0.30735(18) -0.11576(17)
P16 P 0.3587(3) 0.02558(15) 0.45934(12)
O1 O 0.3888(8) 0.0812(4) 0.4899(4)
O2 O 0.2863(6) 0.1077(3) 0.3517(3)
O3 O 0.4572(6) -0.1571(3) 0.0963(3)
O4 O 0.3723(6) 0.0327(3) 0.2808(3)
O5 O 0.6899(8) -0.4636(4) 0.1485(3)
O6 O 0.3878(6) -0.4463(3) -0.0159(3)
O7 O 0.4650(6) -0.3656(3) 0.0557(3)
O8 O 0.6319(6) -0.0347(3) 0.2195(3)
O9 O 0.6952(7) -0.0058(4) 0.0032(3)
O10 O 0.3585(6) -0.1811(3) 0.2047(3)
O11 O 0.4019(6) -0.2631(3) 0.0978(4)
O12 O 0.3793(6) -0.0927(3) 0.1535(3)
O13 O 0.3793(6) 0.4630(3) 0.5298(3)
O14 O 0.7971(6) 0.0716(3) 0.3954(3)
O15 O 0.8025(7) 0.1403(3) 0.3373(3)
O16 O 0.8841(12) 0.1621(5) 0.4215(4)
O17 O 0.1999(6) -0.4212(4) 0.0112(4)
O18 O 0.7240(7) 0.2709(3) 0.3490(3)
O19 O 0.7998(7) -0.0035(4) 0.1759(4)
O20 O 0.3978(7) -0.3327(4) -0.1020(3)
O21 O 0.7031(6) -0.0372(4) 0.0822(3)
O22 O 0.9472(8) 0.1047(8) 0.3720(8)
O23 O 0.4081(7) 0.2338(4) 0.3606(3)
O24 O 0.5395(9) 0.2228(5) 0.4915(4)
O25 O 0.4481(6) -0.0038(3) 0.4474(3)
O26 O 0.2735(6) 0.4675(3) 0.4398(3)
O27 O 0.6976(6) -0.1866(3) 0.2071(3)
O28 O 0.6583(6) 0.4347(3) 0.4231(3)
O29 O 0.4346(9) -0.2274(5) 0.0108(4)
O30 O 0.6230(5) 0.0941(3) 0.3499(3)
O31 O 0.5941(8) -0.0875(4) 0.0132(4)
O32 O 0.3562(6) 0.3804(3) 0.4514(3)
O33 O 0.2073(6) -0.0725(3) 0.1076(3)
O34 O 0.2971(7) -0.0062(4) 0.4913(3)
O35 O 0.2629(6) 0.3685(3) 0.5379(3)
O36 O 0.7959(6) -0.0913(4) 0.2475(3)
O37 O 0.5918(7) 0.2612(3) 0.4049(3)
O38 O 0.3301(7) 0.4674(4) 0.3427(3)
O39 O 0.3559(8) 0.1817(4) 0.4392(5)
O40 O 0.5488(6) 0.0035(3) 0.0539(3)
O41 O 0.4682(5) 0.1289(3) 0.3181(3)
O42 O 0.2092(6) 0.0884(3) 0.2504(3)
O43 O 0.8180(7) -0.4562(4) -0.0419(3)
O44 O 0.7787(8) -0.2870(3) 0.0849(4)
O45 O 0.2699(7) -0.4188(4) -0.0957(3)
O46 O 0.4742(8) 0.2849(4) 0.6612(4)
O47 O 0.6301(6) 0.0257(3) 0.4239(3)
O48 O 0.6604(6) -0.2842(3) 0.2007(3)
O49 O 0.2654(6) -0.0366(3) 0.2068(3)
O50 O 0.4438(6) -0.1693(3) 0.3039(3)
O51 O 0.5901(6) -0.2347(3) 0.1364(3)
O52 O 0.6147(6) 0.0343(3) 0.1510(3)
O53 O 0.1746(6) 0.4666(4) 0.5254(4)
O54 O 0.7139(6) -0.1103(3) 0.1469(3)
O55 O 0.4514(6) 0.0826(3) 0.1091(3)
O56 O 0.7405(6) 0.0362(3) 0.2973(3)
O57 O 0.5210(9) -0.2555(5) -0.0755(4)
O58 O 0.2191(9) 0.2923(4) 0.4038(5)
O59 O 0.4696(7) -0.4429(4) 0.1687(3)
O60 O 0.4152(6) 0.2893(3) 0.4542(3)
O61 O 0.2479(8) -0.1698(4) 0.0844(4)
O62 O 0.7962(6) 0.4135(4) 0.4997(3)
O63 O 0.5484(6) -0.0808(3) 0.3938(3)
O64 O 0.2450(6) -0.1159(4) 0.2710(3)
O65 O 0.5644(7) 0.1647(3) 0.1971(3)
O66 O 0.6302(7) -0.1796(3) 0.0598(3)
O67 O 0.5358(6) -0.0637(3) 0.1249(3)
O68 O 0.3037(6) 0.1850(3) 0.2899(3)
O69 O 0.1967(6) -0.1368(3) 0.1692(3)
O70 O 0.2270(7) 0.3798(4) 0.3687(3)
O71 O 0.5055(7) 0.4350(3) 0.6025(3)
O72 O 0.4118(6) -0.3425(3) 0.1467(3)
O73 O 0.5306(6) 0.1560(3) 0.4053(3)
O74 O 0.4004(6) 0.1163(3) 0.2275(3)
O75 O 0.7836(7) -0.3746(4) 0.1186(3)
O76 O 0.5728(7) -0.3436(4) -0.1190(3)
O77 O 0.6623(7) -0.4396(4) -0.1308(3)
O78 O 0.4325(6) 0.0138(3) 0.1803(3)
O79 O 0.4421(8) 0.2590(4) 0.5716(4)
O80 O 0.4295(5) -0.0765(3) 0.2541(3)
O81 O 0.5751(5) -0.0139(3) 0.3213(3)
O82 O 0.5571(7) 0.4424(4) 0.3329(3)
O83 O 0.6066(6) -0.1187(3) 0.2730(3)
O84 O 0.2759(6) -0.3380(3) 0.0820(3)
O85 O 0.6393(6) -0.3771(3) 0.0413(3)
O86 O 0.7067(7) 0.4127(4) 0.6030(4)
O87 O 0.6151(6) -0.4603(3) -0.0365(3)
O88 O 0.4691(7) -0.4355(3) -0.1030(3)
O89 O 0.5667(7) 0.3309(4) 0.6040(3)
O90 O 0.8363(7) -0.3685(4) 0.0328(3)
O91 O 0.3087(7) 0.4487(4) 0.6221(3)
O92 O 0.6457(6) 0.1803(3) 0.2962(3)
O93 O 0.7312(6) -0.4639(3) 0.0470(3)
O94 O 0.4643(6) 0.0614(3) 0.3761(3)
O95 O 0.1591(7) 0.3777(4) 0.4520(4)
O96 O 0.4704(7) 0.2190(3) 0.2752(3)
O97 O 0.6560(6) 0.3341(3) 0.5178(3)
O98 O 0.7228(6) 0.3336(3) 0.4258(3)
O99 O 0.3917(5) -0.0351(3) 0.3486(3)
O100 O 0.4615(6) 0.3640(3) 0.5243(3)
O101 O 0.3709(6) -0.0249(3) 0.0786(3)
O102 O 0.3256(7) -0.3379(3) -0.0131(3)
O103 O 0.7131(6) -0.3613(3) -0.0483(3)
O104 O 0.5790(6) 0.0754(3) 0.2490(3)
O105 O 0.2835(6) -0.2750(3) 0.1602(4)
O106 O 0.5307(6) 0.3657(3) 0.4449(3)
O107 O 0.4684(6) 0.4622(3) 0.4229(3)
O108 O 0.5336(6) -0.1305(3) 0.1822(3)
O109 O 0.5732(6) -0.2879(3) 0.0425(3)
O110 O 0.7640(7) 0.1155(3) 0.2334(3)
O111 O 0.5191(6) -0.3621(3) -0.0277(3)
O112 O 0.5984(6) -0.3652(3) 0.1407(3)
O113 O 0.2487(6) 0.0394(3) 0.1410(3)
O114 O 0.3497(6) -0.4369(3) 0.0831(3)
O115 O 0.5316(6) -0.2211(3) 0.2222(3)
O116 O 0.5421(6) -0.4623(3) 0.0737(3)
O117 O 0.2046(6) 0.0003(3) 0.3223(3)
O118 O 0.4141(7) 0.3666(3) 0.3546(3)
O119 O 0.6054(6) 0.4441(3) 0.5197(3)
O120 O 0.5987(6) 0.3385(3) 0.3555(3)
O121 O 0.0712(8) 0.3278(5) 0.3737(5)
O122 O 0.9328(8) -0.3227(5) 0.1100(4)
O123 O 0.3874(7) 0.3476(3) 0.6126(3)
O124 O 0.0829(7) -0.1483(4) 0.0920(4)
O125 O 0.4710(9) -0.2836(5) -0.1628(4)
O126 O 0.2938(7) 0.0336(3) 0.4156(3)
O127 O 0.3377(7) 0.2818(3) 0.2947(3)
O128 O 0.7567(7) -0.0391(4) 0.3642(4)
H73 H 1.0260 0.1198 0.3592
O6A O 0.6122(6) -0.5537(3) 0.0159(3)
O87A O 0.3849(6) -0.5397(3) 0.0365(3)
O116A O 0.4579(6) -0.5377(3) -0.0737(3)
O13A O 0.6207(6) 0.5370(3) 0.4702(3)
O107A O 0.5316(6) 0.5378(3) 0.5771(3)
O119A O 0.3946(6) 0.5559(3) 0.4803(3)
loop_
_geom_bond_atom_site_label_1
_geom_bond_atom_site_label_2
_geom_bond_site_symmetry_1
_geom_bond_site_symmetry_2
Mo1 Mo7 1_555 1_555
Mo2 Mo5 1_555 1_555
Mo3 Mo12 1_555 1_555
Mo4 Mo13 1_555 1_555
Mo5 O71 1_555 1_555
Mo6 Mo11 1_555 1_555
Mo7 O13 1_555 1_555
Mo8 Mo20 1_555 1_555
Mo9 Mo17 1_555 1_555
Mo10 Mo18 1_555 1_555
Mo11 O6 1_555 1_555
Mo12 O7 1_555 1_555
Mo13 O76 1_555 1_555
Mo14 Mo15 1_555 1_555
Mo15 O25 1_555 1_555
Mo16 Mo19 1_555 1_555
Mo17 O15 1_555 1_555
Mo18 O28 1_555 1_555
Mo19 O12 1_555 1_555
Mo20 O10 1_555 1_555
Mo21 Mo23 1_555 1_555
Mo22 Mo24 1_555 1_555
Mo23 O2 1_555 1_555
Mo24 O8 1_555 1_555
Fe1 O6 1_555 1_555
Fe2 O4 1_555 1_555
Fe3 O13 1_555 1_555
Fe4 O23 1_555 1_555
Fe5 O3 1_555 1_555
Fe6 N7 1_555 1_555
Fe7 N1 1_555 1_555
Fe8 N13 1_555 1_555
P1 O7 1_555 1_555
P2 O46 1_555 1_555
P3 O3 1_555 1_555
P4 O32 1_555 1_555
P5 O30 1_555 1_555
P6 O18 1_555 1_555
P7 O44 1_555 1_555
P8 O9 1_555 1_555
P9 O58 1_555 1_555
P10 O27 1_555 1_555
P11 O11 1_555 1_555
P12 O33 1_555 1_555
P13 O23 1_555 1_555
P14 O14 1_555 1_555
P15 O20 1_555 1_555
P16 O1 1_555 1_555
O2 Mo21 1_555 1_555
O4 Mo21 1_555 1_555
O5 Mo3 1_555 1_555
O6 Mo6 1_555 1_555
O7 Mo6 1_555 1_555
O8 Mo22 1_555 1_555
O10 Mo8 1_555 1_555
O11 Fe5 1_555 1_555
O12 Mo20 1_555 1_555
O13 Mo1 1_555 1_555
O14 Mo14 1_555 1_555
O15 P14 1_555 1_555
O16 P14 1_555 1_555
O17 Mo6 1_555 1_555
O19 Mo22 1_555 1_555
O20 Mo11 1_555 1_555
O21 Mo22 1_555 1_555
O22 P14 1_555 1_555
O24 Fe4 1_555 1_555
O25 P16 1_555 1_555
O26 Mo1 1_555 1_555
O27 Mo24 1_555 1_555
O28 Mo2 1_555 1_555
O29 Fe5 1_555 1_555
O30 Mo14 1_555 1_555
O31 P8 1_555 1_555
O32 Mo1 1_555 1_555
O33 Mo19 1_555 1_555
O34 P16 1_555 1_555
O35 Mo1 1_555 1_555
O36 Mo24 1_555 1_555
O37 Fe4 1_555 1_555
O38 Mo10 1_555 1_555
O39 Fe4 1_555 1_555
O40 Mo16 1_555 1_555
O41 Mo9 1_555 1_555
O42 Mo23 1_555 1_555
O43 Mo4 1_555 1_555
O45 Mo11 1_555 1_555
O47 Mo14 1_555 1_555
O48 P10 1_555 1_555
O49 Mo19 1_555 1_555
O50 Mo8 1_555 1_555
O51 Fe5 1_555 1_555
O52 Mo16 1_555 1_555
O53 Mo1 1_555 1_555
O54 Mo22 1_555 1_555
O55 Mo16 1_555 1_555
O56 Mo14 1_555 1_555
O57 P15 1_555 1_555
O59 Mo12 1_555 1_555
O60 Fe4 1_555 1_555
O61 P12 1_555 1_555
O62 Mo2 1_555 1_555
O63 Mo15 1_555 1_555
O64 Mo20 1_555 1_555
O65 Mo9 1_555 1_555
O66 Fe5 1_555 1_555
O67 Mo16 1_555 1_555
O68 Mo23 1_555 1_555
O69 Mo20 1_555 1_555
O70 Mo10 1_555 1_555
O71 Mo7 1_555 1_555
O72 Mo12 1_555 1_555
O73 Fe4 1_555 1_555
O74 Mo9 1_555 1_555
O75 Mo3 1_555 1_555
O76 P15 1_555 1_555
O77 Mo13 1_555 1_555
O78 Mo16 1_555 1_555
O79 P2 1_555 1_555
O80 Mo8 1_555 1_555
O81 Mo14 1_555 1_555
O82 Mo18 1_555 1_555
O83 Mo8 1_555 1_555
O84 Mo6 1_555 1_555
O85 Mo3 1_555 1_555
O86 Mo5 1_555 1_555
O87 Mo4 1_555 1_555
O88 Mo11 1_555 1_555
O89 Mo5 1_555 1_555
O90 Mo4 1_555 1_555
O91 Mo7 1_555 1_555
O92 Mo9 1_555 1_555
O93 Mo3 1_555 1_555
O94 Mo15 1_555 1_555
O95 Mo1 1_555 1_555
O96 Mo9 1_555 1_555
O97 Mo2 1_555 1_555
O98 Mo2 1_555 1_555
O99 Mo15 1_555 1_555
O100 Mo5 1_555 1_555
O101 Mo16 1_555 1_555
O102 Mo6 1_555 1_555
O103 Mo4 1_555 1_555
O104 Mo9 1_555 1_555
O105 P11 1_555 1_555
O106 Mo2 1_555 1_555
O107 Mo10 1_555 1_555
O108 Mo8 1_555 1_555
O109 Fe5 1_555 1_555
O110 Mo17 1_555 1_555
O111 Mo11 1_555 1_555
O112 Mo3 1_555 1_555
O113 Mo19 1_555 1_555
O114 Mo6 1_555 1_555
O115 Mo8 1_555 1_555
O116 Mo3 1_555 1_555
O117 Mo21 1_555 1_555
O118 Mo10 1_555 1_555
O119 Mo2 1_555 1_555
O120 Mo18 1_555 1_555
O121 P9 1_555 1_555
O122 P7 1_555 1_555
O123 Mo7 1_555 1_555
O124 P12 1_555 1_555
O125 P15 1_555 1_555
O126 Mo21 1_555 1_555
O127 P13 1_555 1_555
O128 Mo14 1_555 1_555
N1 C1 1_555 1_555
N2 Fe7 1_555 1_555
N3 Fe7 1_555 1_555
N4 Fe7 1_555 1_555
N5 Fe7 1_555 1_555
N6 Fe7 1_555 1_555
N7 C31 1_555 1_555
N8 Fe6 1_555 1_555
N9 Fe6 1_555 1_555
N10 Fe6 1_555 1_555
N11 Fe6 1_555 1_555
N12 Fe6 1_555 1_555
N13 C86 1_555 1_555
N14 Fe8 1_555 1_555
N15 Fe8 1_555 1_555
N16 Fe8 1_555 1_555
N17 Fe8 1_555 1_555
N18 Fe8 1_555 1_555
C1 H1 1_555 1_555
C2 C1 1_555 1_555
H2 C2 1_555 1_555
C3 C2 1_555 1_555
H3 C3 1_555 1_555
C4 C3 1_555 1_555
H4 C4 1_555 1_555
C5 N1 1_555 1_555
C6 N2 1_555 1_555
C7 C6 1_555 1_555
H5 C7 1_555 1_555
C8 C7 1_555 1_555
H6 C8 1_555 1_555
C9 C8 1_555 1_555
H7 C9 1_555 1_555
C10 N2 1_555 1_555
H8 C10 1_555 1_555
C11 N3 1_555 1_555
H9 C11 1_555 1_555
C12 C11 1_555 1_555
H10 C12 1_555 1_555
C13 C12 1_555 1_555
H11 C13 1_555 1_555
C14 C13 1_555 1_555
H12 C14 1_555 1_555
C15 N3 1_555 1_555
C16 N4 1_555 1_555
C17 C16 1_555 1_555
H13 C17 1_555 1_555
C18 C17 1_555 1_555
H14 C18 1_555 1_555
C19 C18 1_555 1_555
H15 C19 1_555 1_555
C20 N4 1_555 1_555
H16 C20 1_555 1_555
C21 N5 1_555 1_555
H17 C21 1_555 1_555
C22 C21 1_555 1_555
H18 C22 1_555 1_555
C23 C22 1_555 1_555
H19 C23 1_555 1_555
C24 C23 1_555 1_555
H20 C24 1_555 1_555
C25 N5 1_555 1_555
C26 N6 1_555 1_555
C27 C26 1_555 1_555
H21 C27 1_555 1_555
C28 C27 1_555 1_555
H22 C28 1_555 1_555
C29 C28 1_555 1_555
H23 C29 1_555 1_555
C30 N6 1_555 1_555
H24 C30 1_555 1_555
C31 H25 1_555 1_555
C32 C31 1_555 1_555
H26 C32 1_555 1_555
C33 C32 1_555 1_555
H27 C33 1_555 1_555
C34 C33 1_555 1_555
H28 C34 1_555 1_555
C35 N7 1_555 1_555
C36 N8 1_555 1_555
C37 C36 1_555 1_555
H29 C37 1_555 1_555
C38 C37 1_555 1_555
H30 C38 1_555 1_555
C39 C38 1_555 1_555
H31 C39 1_555 1_555
C40 N8 1_555 1_555
H32 C40 1_555 1_555
C41 N9 1_555 1_555
H33 C41 1_555 1_555
C42 C41 1_555 1_555
H34 C42 1_555 1_555
C43 C42 1_555 1_555
H35 C43 1_555 1_555
C44 C43 1_555 1_555
H36 C44 1_555 1_555
C45 N9 1_555 1_555
C46 N10 1_555 1_555
C47 C46 1_555 1_555
H37 C47 1_555 1_555
C48 C47 1_555 1_555
H38 C48 1_555 1_555
C49 C48 1_555 1_555
H39 C49 1_555 1_555
C50 N10 1_555 1_555
H40 C50 1_555 1_555
C51 N11 1_555 1_555
H41 C51 1_555 1_555
C52 C51 1_555 1_555
H42 C52 1_555 1_555
C53 C52 1_555 1_555
H43 C53 1_555 1_555
C54 C53 1_555 1_555
H44 C54 1_555 1_555
C55 N11 1_555 1_555
C56 N12 1_555 1_555
C57 C56 1_555 1_555
H45 C57 1_555 1_555
C58 C57 1_555 1_555
H46 C58 1_555 1_555
C59 C58 1_555 1_555
H47 C59 1_555 1_555
C60 N12 1_555 1_555
H48 C60 1_555 1_555
C61 N15 1_555 1_555
H49 C61 1_555 1_555
C62 C61 1_555 1_555
H50 C62 1_555 1_555
C63 C62 1_555 1_555
H51 C63 1_555 1_555
C64 C63 1_555 1_555
H52 C64 1_555 1_555
C65 N15 1_555 1_555
C66 N16 1_555 1_555
C67 C66 1_555 1_555
H53 C67 1_555 1_555
C68 C67 1_555 1_555
H54 C68 1_555 1_555
C69 C68 1_555 1_555
H55 C69 1_555 1_555
C70 N16 1_555 1_555
H56 C70 1_555 1_555
C71 N18 1_555 1_555
H57 C71 1_555 1_555
C72 C71 1_555 1_555
H58 C72 1_555 1_555
C73 C72 1_555 1_555
H59 C73 1_555 1_555
C74 C73 1_555 1_555
H60 C74 1_555 1_555
C75 N18 1_555 1_555
C76 N17 1_555 1_555
C77 C76 1_555 1_555
H61 C77 1_555 1_555
C78 C77 1_555 1_555
H62 C78 1_555 1_555
C79 C78 1_555 1_555
H63 C79 1_555 1_555
C80 N17 1_555 1_555
H64 C80 1_555 1_555
C81 N14 1_555 1_555
H65 C81 1_555 1_555
C82 C81 1_555 1_555
H66 C82 1_555 1_555
C83 C82 1_555 1_555
H67 C83 1_555 1_555
C84 C83 1_555 1_555
H68 C84 1_555 1_555
C85 N14 1_555 1_555
C86 C85 1_555 1_555
C87 C86 1_555 1_555
H69 C87 1_555 1_555
C88 C87 1_555 1_555
H70 C88 1_555 1_555
C89 C88 1_555 1_555
H71 C89 1_555 1_555
C90 N13 1_555 1_555
H72 C90 1_555 1_555
H73 O22 1_555 1_555
O6A Fe1 1_555 1_555
O87A Fe1 1_555 1_555
O116A Fe1 1_555 1_555
O13A Fe3 1_555 1_555
O107A Fe3 1_555 1_555
O119A Fe3 1_555 1_555
Mo4 O85 1_555 1_555
Mo4 O93 1_555 1_555
Mo5 O97 1_555 1_555
Mo5 O119 1_555 1_555
Mo7 O35 1_555 1_555
Mo7 O100 1_555 1_555
Mo10 O26 1_555 1_555
Mo10 O32 1_555 1_555
Mo11 O102 1_555 1_555
Mo12 O112 1_555 1_555
Mo12 O114 1_555 1_555
Mo12 O116 1_555 1_555
Mo13 O87 1_555 1_555
Mo13 O88 1_555 1_555
Mo13 O103 1_555 1_555
Mo13 O111 1_555 1_555
Mo15 O47 1_555 1_555
Mo15 O81 1_555 1_555
Mo17 O30 1_555 1_555
Mo17 O56 1_555 1_555
Mo17 O92 1_555 1_555
Mo17 O104 1_555 1_555
Mo18 O106 1_555 1_555
Mo18 O107 1_555 1_555
Mo18 O118 1_555 1_555
Mo19 O78 1_555 1_555
Mo19 O101 1_555 1_555
Mo20 O49 1_555 1_555
Mo20 O80 1_555 1_555
Mo21 O94 1_555 1_555
Mo21 O99 1_555 1_555
Mo22 O52 1_555 1_555
Mo22 O67 1_555 1_555
Mo23 O4 1_555 1_555
Mo23 O41 1_555 1_555
Mo23 O74 1_555 1_555
Mo24 O54 1_555 1_555
Mo24 O83 1_555 1_555
Mo24 O108 1_555 1_555
Fe1 O87 1_555 1_555
Fe1 O116 1_555 1_555
Fe2 O8 1_555 1_555
Fe2 O78 1_555 1_555
Fe2 O80 1_555 1_555
Fe2 O81 1_555 1_555
Fe2 O104 1_555 1_555
Fe3 O107 1_555 1_555
Fe3 O119 1_555 1_555
P1 O85 1_555 1_555
P1 O109 1_555 1_555
P1 O111 1_555 1_555
P2 O89 1_555 1_555
P2 O123 1_555 1_555
P3 O12 1_555 1_555
P3 O67 1_555 1_555
P3 O108 1_555 1_555
P4 O60 1_555 1_555
P4 O100 1_555 1_555
P4 O106 1_555 1_555
P5 O41 1_555 1_555
P5 O73 1_555 1_555
P5 O94 1_555 1_555
P6 O37 1_555 1_555
P6 O98 1_555 1_555
P6 O120 1_555 1_555
P7 O75 1_555 1_555
P7 O90 1_555 1_555
P8 O21 1_555 1_555
P8 O40 1_555 1_555
P9 O70 1_555 1_555
P9 O95 1_555 1_555
P10 O51 1_555 1_555
P10 O115 1_555 1_555
P11 O72 1_555 1_555
P11 O84 1_555 1_555
P12 O69 1_555 1_555
P13 O68 1_555 1_555
P13 O96 1_555 1_555
P16 O126 1_555 1_555
C4 C5 1_555 1_555
C5 C6 1_555 1_555
C9 C10 1_555 1_555
C14 C15 1_555 1_555
C15 C16 1_555 1_555
C19 C20 1_555 1_555
C24 C25 1_555 1_555
C25 C26 1_555 1_555
C29 C30 1_555 1_555
C34 C35 1_555 1_555
C35 C36 1_555 1_555
C39 C40 1_555 1_555
C44 C45 1_555 1_555
C45 C46 1_555 1_555
C49 C50 1_555 1_555
C54 C55 1_555 1_555
C55 C56 1_555 1_555
C59 C60 1_555 1_555
C64 C65 1_555 1_555
C65 C66 1_555 1_555
C69 C70 1_555 1_555
C74 C75 1_555 1_555
C75 C76 1_555 1_555
C79 C80 1_555 1_555
C84 C85 1_555 1_555
C89 C90 1_555 1_555

#END
