
#######################################################################
#
#                 Cambridge Crystallographic Data Centre
#                                CCDC 
#
#######################################################################
#
# If this CIF has been generated from an entry in the Cambridge 
# Structural Database, then it will include bibliographic, chemical, 
# crystal, experimental, refinement or atomic coordinate data resulting 
# from the CCDC's data processing and validation procedures.
#
#######################################################################

data_UCOJEB
_symmetry_cell_setting           triclinic
_symmetry_space_group_name_H-M   'P -1'
_symmetry_Int_Tables_number      2
_space_group_name_Hall           '-P 1'
loop_
_symmetry_equiv_pos_site_id
_symmetry_equiv_pos_as_xyz
1 x,y,z
2 -x,-y,-z
_cell_length_a                   13.5955(2)
_cell_length_b                   19.1463(1)
_cell_length_c                   21.4573(3)
_cell_angle_alpha                95.668(1)
_cell_angle_beta                 91.353(1)
_cell_angle_gamma                99.809(1)
_cell_volume                     5472.19
loop_
_atom_site_label
_atom_site_type_symbol
_atom_site_fract_x
_atom_site_fract_y
_atom_site_fract_z
Fe4 Fe -0.16557(6) 0.63125(4) 0.51832(4)
N1 N -0.1167(4) 0.7317(3) 0.5048(2)
N2 N -0.0352(4) 0.6451(3) 0.5646(2)
N3 N -0.2296(4) 0.6542(3) 0.5978(2)
N4 N -0.2096(4) 0.5334(3) 0.5393(2)
N5 N -0.2911(4) 0.6189(3) 0.4659(2)
N6 N -0.1115(4) 0.6036(3) 0.4366(2)
C1 C -0.1674(5) 0.7744(3) 0.4754(3)
H1 H -0.2327 0.7571 0.4605
C2 C -0.1243(5) 0.8437(4) 0.4668(4)
H2 H -0.1617 0.8729 0.4482
C3 C -0.0265(5) 0.8692(4) 0.4858(3)
H3 H 0.0035 0.9150 0.4787
C4 C 0.0274(5) 0.8250(3) 0.5158(3)
H4 H 0.0937 0.8406 0.5293
C5 C -0.0211(4) 0.7572(3) 0.5250(3)
C6 C 0.0246(4) 0.7085(3) 0.5610(3)
C7 C 0.1189(5) 0.7250(4) 0.5904(3)
H5 H 0.1592 0.7687 0.5869
C8 C 0.1526(5) 0.6757(4) 0.6248(4)
H6 H 0.2157 0.6860 0.6447
C9 C 0.0927(5) 0.6121(4) 0.6293(3)
H7 H 0.1141 0.5784 0.6523
C10 C -0.0015(5) 0.5982(4) 0.5990(3)
H8 H -0.0426 0.5548 0.6026
C11 C -0.2425(5) 0.7194(4) 0.6228(3)
H9 H -0.2174 0.7588 0.6022
C12 C -0.2918(6) 0.7300(4) 0.6779(3)
H10 H -0.2983 0.7758 0.6941
C13 C -0.3307(7) 0.6724(5) 0.7084(4)
H11 H -0.3647 0.6782 0.7451
C14 C -0.3179(6) 0.6047(4) 0.6827(3)
H12 H -0.3432 0.5647 0.7024
C15 C -0.2673(5) 0.5976(3) 0.6276(3)
C16 C -0.2549(4) 0.5285(3) 0.5954(3)
C17 C -0.2847(5) 0.4638(3) 0.6185(3)
H13 H -0.3102 0.4617 0.6582
C18 C -0.2759(5) 0.4011(3) 0.5809(4)
H14 H -0.2963 0.3568 0.5952
C19 C -0.2372(5) 0.4060(4) 0.5234(4)
H15 H -0.2334 0.3649 0.4972
C20 C -0.2034(5) 0.4726(3) 0.5041(3)
H16 H -0.1752 0.4751 0.4652
C21 C -0.3818(5) 0.6208(4) 0.4859(4)
H17 H -0.3891 0.6329 0.5284
C22 C -0.4664(5) 0.6055(4) 0.4465(4)
H18 H -0.5289 0.6084 0.4622
C23 C -0.4571(6) 0.5857(5) 0.3834(4)
H19 H -0.5128 0.5750 0.3559
C24 C -0.3619(6) 0.5825(4) 0.3624(4)
H20 H -0.3529 0.5693 0.3203
C25 C -0.2805(5) 0.5989(3) 0.4045(3)
C26 C -0.1783(5) 0.5956(3) 0.3866(3)
C27 C -0.1488(6) 0.5855(4) 0.3255(3)
H21 H -0.1953 0.5811 0.2923
C28 C -0.0492(6) 0.5819(4) 0.3138(4)
H22 H -0.0284 0.5757 0.2730
C29 C 0.0176(6) 0.5877(4) 0.3639(3)
H23 H 0.0841 0.5842 0.3577
C30 C -0.0163(5) 0.5987(4) 0.4238(3)
H24 H 0.0297 0.6031 0.4573
Fe5 Fe -0.05040(7) 0.20425(5) 0.15108(6)
N7 N -0.1621(4) 0.2498(3) 0.1834(3)
N8 N 0.0264(4) 0.2995(3) 0.1808(3)
N9 N -0.0192(5) 0.1641(3) 0.2285(3)
N10 N 0.0685(4) 0.1645(3) 0.1238(3)
N11 N -0.1395(5) 0.1162(4) 0.1166(4)
N12 N -0.0782(5) 0.2335(4) 0.0672(3)
C31 C -0.2581(6) 0.2207(5) 0.1842(5)
H25 H -0.2760 0.1718 0.1736
C32 C -0.3333(6) 0.2598(5) 0.2002(5)
H26 H -0.3993 0.2374 0.2016
C33 C -0.3070(6) 0.3321(5) 0.2139(4)
H27 H -0.3557 0.3598 0.2232
C34 C -0.2085(6) 0.3632(4) 0.2139(4)
H28 H -0.1897 0.4121 0.2235
C35 C -0.1376(5) 0.3213(3) 0.1996(3)
C36 C -0.0308(5) 0.3489(4) 0.1981(3)
C37 C 0.0113(6) 0.4203(4) 0.2118(5)
H29 H -0.0286 0.4538 0.2239
C38 C 0.1144(7) 0.4415(4) 0.2074(5)
H30 H 0.1437 0.4892 0.2159
C39 C 0.1712(6) 0.3909(4) 0.1904(4)
H31 H 0.2401 0.4035 0.1879
C40 C 0.1254(5) 0.3215(4) 0.1770(4)
H32 H 0.1647 0.2877 0.1647
C41 C -0.0750(7) 0.1595(4) 0.2797(4)
H33 H -0.1303 0.1821 0.2814
C42 C -0.0549(7) 0.1235(5) 0.3292(4)
H34 H -0.0980 0.1189 0.3621
C43 C 0.0327(8) 0.0939(6) 0.3287(5)
H35 H 0.0494 0.0695 0.3617
C44 C 0.0933(8) 0.1018(6) 0.2785(5)
H36 H 0.1537 0.0852 0.2785
C45 C 0.0641(6) 0.1341(4) 0.2286(4)
C46 C 0.1142(6) 0.1350(4) 0.1699(4)
C47 C 0.2008(7) 0.1072(6) 0.1587(5)
H37 H 0.2325 0.0888 0.1907
C48 C 0.2391(6) 0.1071(6) 0.1004(5)
H38 H 0.2971 0.0888 0.0924
C49 C 0.1909(7) 0.1346(5) 0.0535(5)
H39 H 0.2152 0.1338 0.0133
C50 C 0.1066(6) 0.1630(5) 0.0669(5)
H40 H 0.0749 0.1819 0.0352
C51 C -0.1710(8) 0.0588(5) 0.1459(7)
H41 H -0.1468 0.0571 0.1865
C52 C -0.2385(11) 0.0018(6) 0.1177(8)
H42 H -0.2579 -0.0380 0.1391
C53 C -0.2765(9) 0.0034(7) 0.0596(10)
H43 H -0.3239 -0.0344 0.0414
C54 C -0.2450(9) 0.0613(6) 0.0270(7)
H44 H -0.2691 0.0625 -0.0137
C55 C -0.1767(6) 0.1176(5) 0.0565(5)
C56 C -0.1380(6) 0.1823(6) 0.0275(5)
C57 C -0.1564(8) 0.1937(8) -0.0347(5)
H45 H -0.1978 0.1589 -0.0611
C58 C -0.1140(9) 0.2557(9) -0.0569(6)
H46 H -0.1238 0.2628 -0.0987
C59 C -0.0576(7) 0.3065(6) -0.0171(5)
H47 H -0.0312 0.3501 -0.0308
C60 C -0.0390(7) 0.2942(5) 0.0435(5)
H48 H 0.0025 0.3293 0.0695
O67 O -1.7891(11) 0.8823(10) 0.2218(7)
O69 O -0.9612(5) 0.5912(4) 0.1666(3)
O70 O -1.0813(6) 0.8119(8) 0.3037(4)
O71 O -1.5494(9) 0.9918(6) 0.0660(6)
O72 O -0.5562(13) -0.2731(7) -0.3629(7)
O73 O 0.0601(8) 0.4962(6) -0.0700(5)
O74 O -1.3126(7) 0.8133(5) 0.1793(4)
O76 O -1.7386(3) 0.7983(2) 0.23624(19)
O77 O -0.1445(16) 0.269(2) -0.1838(12)
Mo1 Mo -1.70610(3) 0.58598(2) 0.07822(2)
Mo2 Mo -1.39673(3) 0.68264(2) -0.05273(2)
Mo3 Mo -1.31768(3) 0.94523(2) 0.37856(2)
Mo4 Mo -1.34073(3) 0.55984(3) 0.15340(2)
Mo5 Mo -1.52764(3) 0.53524(2) 0.17871(2)
Mo6 Mo -1.47239(3) 0.80944(2) 0.44776(2)
Mo7 Mo -1.64560(4) 1.05976(3) 0.36405(2)
Mo8 Mo -1.65029(3) 0.65242(2) -0.01800(2)
Mo9 Mo -1.65826(4) 0.81593(2) 0.46445(2)
Mo10 Mo -1.75849(3) 0.95984(3) 0.41427(2)
Mo11 Mo -1.39139(3) 1.05198(2) 0.34272(2)
Mo12 Mo -1.26497(3) 0.64032(3) 0.01801(2)
Fe1 Fe -1.5000 1.0000 0.5000
Fe2 Fe -1.5000 0.5000 0.0000
Fe3 Fe -1.52918(6) 0.79410(4) 0.21300(4)
P1 P -1.56828(10) 0.89803(7) 0.33626(6)
P2 P -1.68428(10) 0.63906(7) 0.22810(7)
P3 P -1.35114(13) 0.77821(8) 0.32129(8)
P4 P -1.46914(10) 0.68230(7) 0.10024(6)
P5 P -1.52840(13) 0.81289(8) -0.03758(8)
P6 P -1.85340(12) 0.79236(9) 0.36777(9)
P7 P -1.1550(2) 0.69727(17) 0.15812(12)
O1 O -1.1775(6) 0.7712(4) 0.1842(3)
P9 P -1.5404(2) 1.07299(16) 0.22580(13)
O3 O -1.5719(6) 1.0001(4) 0.1863(3)
O5 O -1.7478(3) 0.6172(2) 0.16736(18)
O6 O -1.2652(3) 0.5528(2) 0.06944(18)
O7 O -1.7388(3) 0.8985(2) 0.48848(19)
O8 O -1.3942(3) 1.01167(19) 0.42441(17)
O9 O -1.6186(3) 0.5842(2) 0.24034(19)
O10 O -1.7523(3) 0.9848(2) 0.3290(2)
O11 O -1.2923(3) 0.7336(2) 0.0059(2)
O12 O -1.6602(3) 0.5031(2) 0.12280(18)
O13 O -1.5430(3) 0.6408(2) -0.08495(18)
O14 O -1.4152(3) 0.6038(2) 0.21738(18)
O15 O -1.4961(3) 0.6897(2) 0.03145(18)
O16 O -1.5942(3) 0.7556(2) 0.4070(2)
O17 O -1.6246(3) 0.5599(2) 0.00753(17)
O18 O -1.3932(3) 0.5881(2) -0.02236(18)
O19 O -1.6290(3) 1.0187(2) 0.44394(18)
O20 O -1.4582(3) 0.5105(2) 0.10223(18)
O21 O -1.3480(3) 0.9711(2) 0.29626(18)
O22 O -1.6946(3) 0.6850(2) 0.06344(18)
O23 O -1.5361(3) 0.88700(19) 0.48911(18)
O24 O -1.4413(3) 1.0772(3) 0.2577(2)
O25 O -1.4631(3) 0.7545(2) 0.1382(2)
O26 O -1.0467(4) 0.7060(4) 0.1825(3)
O27 O -1.9607(4) 0.7500(3) 0.3671(4)
O28 O -1.5329(3) 0.4627(3) 0.2169(2)
O29 O -1.6375(4) 0.8125(3) 0.1438(2)
O30 O -1.4244(5) 0.7770(3) 0.2673(2)
O31 O -1.8144(5) 0.7690(3) 0.3057(3)
O32 O -1.5015(4) 0.8534(3) 0.0309(2)
O33 O -1.5416(5) 1.1259(5) 0.1790(3)
O34 O -1.4395(4) 0.8930(3) 0.1932(2)
O35 O -1.3686(3) 0.6547(2) 0.10238(17)
O36 O -1.2989(4) 0.4949(3) 0.1868(2)
O37 O -1.2813(5) 0.7231(3) 0.3025(3)
O38 O -1.1608(3) 0.6909(2) 0.0869(2)
O39 O -1.2183(3) 0.6370(3) 0.1860(2)
O40 O -1.4971(3) 1.1112(2) 0.3802(2)
O41 O -1.8579(3) 0.8718(2) 0.3762(2)
O42 O -1.5515(3) 0.62705(19) 0.12462(17)
O43 O -1.2901(3) 1.1163(2) 0.3527(2)
O44 O -1.6228(3) 0.7586(2) -0.0340(2)
O45 O -1.8220(3) 0.5463(2) 0.0537(2)
O46 O -1.5447(4) 0.8705(3) -0.0790(2)
O47 O -1.2841(3) 0.8516(2) 0.3336(2)
O48 O -1.4467(4) 0.7659(2) 0.5082(2)
O49 O -1.6775(4) 0.7724(2) 0.5286(2)
O50 O -1.3440(3) 0.6765(2) -0.1224(2)
O51 O -1.5459(3) 0.97886(19) 0.33040(18)
O52 O -1.5972(3) 0.8556(2) 0.27301(19)
O53 O -1.6243(4) 1.0825(3) 0.2729(2)
O54 O -1.7535(3) 0.6278(3) -0.0643(2)
O55 O -1.7021(4) 1.1288(2) 0.3866(2)
O56 O -1.1990(3) 0.9836(2) 0.3959(2)
O57 O -1.6551(3) 0.8831(2) 0.38102(19)
O58 O -1.7611(4) 0.6368(3) 0.2820(2)
O59 O -1.6289(4) 0.7138(2) 0.2301(2)
O60 O -1.3997(3) 0.7556(2) 0.3807(2)
O61 O -1.4742(3) 0.87800(19) 0.36614(17)
O62 O -1.4393(3) 0.7800(2) -0.0586(2)
O63 O -1.7934(3) 0.7668(2) 0.4187(2)
O64 O -1.3401(3) 0.8854(2) 0.45475(19)
O65 O -1.8427(3) 1.0045(3) 0.4477(2)
O66 O -1.1822(3) 0.6228(3) -0.0352(2)
O8A O -1.6058(3) 0.98833(19) 0.57559(17)
O19A O -1.3710(3) 0.9813(2) 0.55606(18)
O23A O -1.4639(3) 1.11300(19) 0.51089(18)
O17A O -1.3754(3) 0.4401(2) -0.00753(17)
O18A O -1.6068(3) 0.4119(2) 0.02236(18)
O20A O -1.5418(3) 0.4895(2) -0.10223(18)
P8? P -1.1231(8) 0.6697(8) 0.1498(4)
O2? O -1.0512(19) 0.6125(15) 0.1389(12)
P10? P -1.5414(5) 1.1065(5) 0.2388(4)
O4? O -1.5231(16) 1.1905(10) 0.2553(10)
O68? O -1.7526(17) 0.9109(13) 0.1741(13)
O75? O -1.2760(6) 0.8306(4) 0.1099(4)
O78? O -1.949(3) 0.9112(18) 0.216(3)
loop_
_geom_bond_atom_site_label_1
_geom_bond_atom_site_label_2
_geom_bond_site_symmetry_1
_geom_bond_site_symmetry_2
Mo1 Mo8 1_555 1_555
Mo2 Mo12 1_555 1_555
Mo3 Mo11 1_555 1_555
Mo4 Mo5 1_555 1_555
Mo5 O9 1_555 1_555
Mo6 Mo9 1_555 1_555
Mo7 Mo10 1_555 1_555
Mo8 O13 1_555 1_555
Mo9 O7 1_555 1_555
Mo10 O7 1_555 1_555
Mo11 O8 1_555 1_555
Mo12 O6 1_555 1_555
Fe1 O8 1_555 1_555
Fe2 O17 1_555 1_555
Fe3 O25 1_555 1_555
Fe4 N1 1_555 1_555
Fe5 N7 1_555 1_555
P1 O51 1_555 1_555
P2 O5 1_555 1_555
P3 O30 1_555 1_555
P4 O15 1_555 1_555
P5 O32 1_555 1_555
P6 O27 1_555 1_555
P7 O1 1_555 1_555
P9 O3 1_555 1_555
O5 Mo1 1_555 1_555
O6 Mo4 1_555 1_555
O8 Mo3 1_555 1_555
O9 P2 1_555 1_555
O10 Mo7 1_555 1_555
O11 Mo2 1_555 1_555
O12 Mo1 1_555 1_555
O13 Mo2 1_555 1_555
O14 Mo4 1_555 1_555
O15 Mo2 1_555 1_555
O16 Mo6 1_555 1_555
O17 Mo1 1_555 1_555
O18 Mo2 1_555 1_555
O19 Mo7 1_555 1_555
O20 Mo4 1_555 1_555
O21 Mo3 1_555 1_555
O22 Mo1 1_555 1_555
O23 Mo6 1_555 1_555
O24 Mo11 1_555 1_555
O25 P4 1_555 1_555
O26 P7 1_555 1_555
O28 Mo5 1_555 1_555
O29 Fe3 1_555 1_555
O30 Fe3 1_555 1_555
O31 P6 1_555 1_555
O33 P9 1_555 1_555
O34 Fe3 1_555 1_555
O35 Mo4 1_555 1_555
O36 Mo4 1_555 1_555
O37 P3 1_555 1_555
O38 Mo12 1_555 1_555
O39 Mo4 1_555 1_555
O40 Mo7 1_555 1_555
O41 Mo10 1_555 1_555
O42 Mo1 1_555 1_555
O43 Mo11 1_555 1_555
O44 Mo8 1_555 1_555
O45 Mo1 1_555 1_555
O46 P5 1_555 1_555
O47 Mo3 1_555 1_555
O48 Mo6 1_555 1_555
O49 Mo9 1_555 1_555
O50 Mo2 1_555 1_555
O51 Mo7 1_555 1_555
O52 Fe3 1_555 1_555
O53 Mo7 1_555 1_555
O54 Mo8 1_555 1_555
O55 Mo7 1_555 1_555
O56 Mo3 1_555 1_555
O57 Mo9 1_555 1_555
O58 P2 1_555 1_555
O59 Fe3 1_555 1_555
O60 Mo6 1_555 1_555
O61 Mo3 1_555 1_555
O62 Mo2 1_555 1_555
O63 Mo9 1_555 1_555
O64 Mo3 1_555 1_555
O65 Mo10 1_555 1_555
O66 Mo12 1_555 1_555
N1 C1 1_555 1_555
N2 Fe4 1_555 1_555
N3 Fe4 1_555 1_555
N4 Fe4 1_555 1_555
N5 Fe4 1_555 1_555
N6 Fe4 1_555 1_555
N7 C31 1_555 1_555
N8 Fe5 1_555 1_555
N9 Fe5 1_555 1_555
N10 Fe5 1_555 1_555
N11 Fe5 1_555 1_555
N12 Fe5 1_555 1_555
C1 H1 1_555 1_555
C2 C1 1_555 1_555
H2 C2 1_555 1_555
C3 C2 1_555 1_555
H3 C3 1_555 1_555
C4 C3 1_555 1_555
H4 C4 1_555 1_555
C5 N1 1_555 1_555
C6 N2 1_555 1_555
C7 C6 1_555 1_555
H5 C7 1_555 1_555
C8 C7 1_555 1_555
H6 C8 1_555 1_555
C9 C8 1_555 1_555
H7 C9 1_555 1_555
C10 N2 1_555 1_555
H8 C10 1_555 1_555
C11 N3 1_555 1_555
H9 C11 1_555 1_555
C12 C11 1_555 1_555
H10 C12 1_555 1_555
C13 C12 1_555 1_555
H11 C13 1_555 1_555
C14 C13 1_555 1_555
H12 C14 1_555 1_555
C15 N3 1_555 1_555
C16 N4 1_555 1_555
C17 C16 1_555 1_555
H13 C17 1_555 1_555
C18 C17 1_555 1_555
H14 C18 1_555 1_555
C19 C18 1_555 1_555
H15 C19 1_555 1_555
C20 N4 1_555 1_555
H16 C20 1_555 1_555
C21 N5 1_555 1_555
H17 C21 1_555 1_555
C22 C21 1_555 1_555
H18 C22 1_555 1_555
C23 C22 1_555 1_555
H19 C23 1_555 1_555
C24 C23 1_555 1_555
H20 C24 1_555 1_555
C25 N5 1_555 1_555
C26 N6 1_555 1_555
C27 C26 1_555 1_555
H21 C27 1_555 1_555
C28 C27 1_555 1_555
H22 C28 1_555 1_555
C29 C28 1_555 1_555
H23 C29 1_555 1_555
C30 N6 1_555 1_555
H24 C30 1_555 1_555
C31 H25 1_555 1_555
C32 C31 1_555 1_555
H26 C32 1_555 1_555
C33 C32 1_555 1_555
H27 C33 1_555 1_555
C34 C33 1_555 1_555
H28 C34 1_555 1_555
C35 N7 1_555 1_555
C36 N8 1_555 1_555
C37 C36 1_555 1_555
H29 C37 1_555 1_555
C38 C37 1_555 1_555
H30 C38 1_555 1_555
C39 C38 1_555 1_555
H31 C39 1_555 1_555
C40 N8 1_555 1_555
H32 C40 1_555 1_555
C41 N9 1_555 1_555
H33 C41 1_555 1_555
C42 C41 1_555 1_555
H34 C42 1_555 1_555
C43 C42 1_555 1_555
H35 C43 1_555 1_555
C44 C43 1_555 1_555
H36 C44 1_555 1_555
C45 N9 1_555 1_555
C46 N10 1_555 1_555
C47 C46 1_555 1_555
H37 C47 1_555 1_555
C48 C47 1_555 1_555
H38 C48 1_555 1_555
C49 C48 1_555 1_555
H39 C49 1_555 1_555
C50 N10 1_555 1_555
H40 C50 1_555 1_555
C51 N11 1_555 1_555
H41 C51 1_555 1_555
C52 C51 1_555 1_555
H42 C52 1_555 1_555
C53 C52 1_555 1_555
H43 C53 1_555 1_555
C54 C53 1_555 1_555
H44 C54 1_555 1_555
C55 N11 1_555 1_555
C56 N12 1_555 1_555
C57 C56 1_555 1_555
H45 C57 1_555 1_555
C58 C57 1_555 1_555
H46 C58 1_555 1_555
C59 C58 1_555 1_555
H47 C59 1_555 1_555
C60 N12 1_555 1_555
H48 C60 1_555 1_555
O8A Fe1 1_555 1_555
O19A Fe1 1_555 1_555
O23A Fe1 1_555 1_555
O17A Fe2 1_555 1_555
O18A Fe2 1_555 1_555
O20A Fe2 1_555 1_555
Mo5 O12 1_555 1_555
Mo5 O14 1_555 1_555
Mo5 O20 1_555 1_555
Mo5 O42 1_555 1_555
Mo6 O61 1_555 1_555
Mo6 O64 1_555 1_555
Mo8 O15 1_555 1_555
Mo8 O17 1_555 1_555
Mo8 O22 1_555 1_555
Mo9 O16 1_555 1_555
Mo9 O23 1_555 1_555
Mo10 O10 1_555 1_555
Mo10 O19 1_555 1_555
Mo10 O57 1_555 1_555
Mo11 O21 1_555 1_555
Mo11 O40 1_555 1_555
Mo11 O51 1_555 1_555
Mo12 O11 1_555 1_555
Mo12 O18 1_555 1_555
Mo12 O35 1_555 1_555
Fe1 O19 1_555 1_555
Fe1 O23 1_555 1_555
Fe2 O18 1_555 1_555
Fe2 O20 1_555 1_555
P1 O52 1_555 1_555
P1 O57 1_555 1_555
P1 O61 1_555 1_555
P2 O59 1_555 1_555
P3 O47 1_555 1_555
P3 O60 1_555 1_555
P4 O35 1_555 1_555
P4 O42 1_555 1_555
P5 O44 1_555 1_555
P5 O62 1_555 1_555
P6 O41 1_555 1_555
P6 O63 1_555 1_555
P7 O38 1_555 1_555
P7 O39 1_555 1_555
P9 O24 1_555 1_555
P9 O53 1_555 1_555
C4 C5 1_555 1_555
C5 C6 1_555 1_555
C9 C10 1_555 1_555
C14 C15 1_555 1_555
C15 C16 1_555 1_555
C19 C20 1_555 1_555
C24 C25 1_555 1_555
C25 C26 1_555 1_555
C29 C30 1_555 1_555
C34 C35 1_555 1_555
C35 C36 1_555 1_555
C39 C40 1_555 1_555
C44 C45 1_555 1_555
C45 C46 1_555 1_555
C49 C50 1_555 1_555
C54 C55 1_555 1_555
C55 C56 1_555 1_555
C59 C60 1_555 1_555

#END
