
#######################################################################
#
#                 Cambridge Crystallographic Data Centre
#                                CCDC 
#
#######################################################################
#
# If this CIF has been generated from an entry in the Cambridge 
# Structural Database, then it will include bibliographic, chemical, 
# crystal, experimental, refinement or atomic coordinate data resulting 
# from the CCDC's data processing and validation procedures.
#
#######################################################################

data_UCOJUR
_symmetry_cell_setting           triclinic
_symmetry_space_group_name_H-M   'P -1'
_symmetry_Int_Tables_number      2
_space_group_name_Hall           '-P 1'
loop_
_symmetry_equiv_pos_site_id
_symmetry_equiv_pos_as_xyz
1 x,y,z
2 -x,-y,-z
_cell_length_a                   11.0736(5)
_cell_length_b                   11.0775(5)
_cell_length_c                   17.7972(8)
_cell_angle_alpha                85.178(1)
_cell_angle_beta                 79.964(1)
_cell_angle_gamma                68.271(1)
_cell_volume                     1996.53
loop_
_atom_site_label
_atom_site_type_symbol
_atom_site_fract_x
_atom_site_fract_y
_atom_site_fract_z
Mo1 Mo 0.25543(4) 0.05650(3) 0.29454(2)
Mo2 Mo 0.26463(4) -0.27776(4) 0.31391(2)
Mo3 Mo 0.58199(4) -0.46953(4) 0.26650(2)
Mo4 Mo 0.75122(4) -0.28140(4) 0.18410(2)
Mo5 Mo 0.54373(4) 0.03571(4) 0.18760(2)
Cu1 Cu 0.07316(5) -0.44491(5) 0.27307(3)
Cu2 Cu 0.80046(5) 0.14644(5) 0.22186(3)
P1 P 0.51515(11) -0.16963(11) 0.34396(7)
P2 P 0.42662(11) -0.19549(11) 0.15683(7)
O1 O 0.2695(3) -0.6076(4) 0.3100(2)
O2 O 0.9709(4) -0.0486(4) 0.2104(2)
O3 O 0.5975(3) -0.2245(3) 0.41084(17)
O4 O 0.3962(3) -0.0512(3) 0.36874(16)
O5 O 0.4678(3) -0.2752(3) 0.32278(16)
O6 O 0.6079(3) -0.1370(3) 0.27769(16)
O7 O 0.6611(3) 0.0881(3) 0.21300(17)
O8 O 0.5001(3) 0.1236(3) 0.10747(17)
O9 O 0.6668(3) -0.1177(3) 0.13335(16)
O10 O 0.3946(3) 0.1254(3) 0.26025(17)
O11 O 0.4135(3) -0.0681(3) 0.19299(16)
O12 O 0.4362(3) -0.1746(3) 0.06858(17)
O13 O 0.3059(3) -0.2264(3) 0.19004(16)
O14 O 0.8288(3) -0.3737(3) 0.10573(17)
O15 O 0.7254(3) -0.4077(3) 0.25761(17)
O16 O 0.6098(3) -0.5556(3) 0.35014(17)
O17 O 0.6403(3) -0.5847(3) 0.19898(18)
O18 O 0.5550(3) -0.3065(3) 0.17041(16)
O19 O 0.3971(3) -0.4369(3) 0.27395(17)
O20 O 0.2541(3) -0.3188(3) 0.40885(17)
O21 O 0.2071(3) -0.0976(3) 0.31901(17)
O22 O 0.1652(3) 0.1117(3) 0.22204(17)
O23 O 0.1622(3) 0.1582(3) 0.36690(17)
O24 O 0.1309(3) -0.3056(3) 0.28875(17)
O25 O 0.8785(3) -0.2570(3) 0.21595(17)
N1 N -0.0375(3) -0.4387(3) 0.3736(2)
N2 N 0.0016(3) -0.5757(3) 0.2574(2)
N3 N 0.1576(3) -0.4901(3) 0.1663(2)
N4 N -0.2178(4) -0.8649(3) 0.3350(2)
N5 N -0.1063(3) -0.7416(3) 0.2362(2)
N6 N -0.1436(4) -0.8149(3) 0.1134(2)
C1 C -0.0596(4) -0.3542(4) 0.4285(3)
H1 H -0.0161 -0.2957 0.4209
C2 C -0.1441(4) -0.3502(4) 0.4957(3)
H2 H -0.1564 -0.2912 0.5331
C3 C -0.2106(4) -0.4366(4) 0.5064(3)
H3 H -0.2688 -0.4359 0.5510
C4 C -0.1889(4) -0.5241(4) 0.4494(2)
H4 H -0.2339 -0.5812 0.4547
C5 C -0.0991(4) -0.5248(4) 0.3846(2)
C6 C -0.0694(4) -0.6103(4) 0.3181(2)
C7 C 0.0226(4) -0.6191(4) 0.1863(2)
C8 C 0.1288(4) -0.5846(4) 0.1368(3)
C9 C 0.2030(4) -0.6499(4) 0.0724(3)
H5 H 0.1841 -0.7163 0.0545
C10 C 0.3070(5) -0.6157(5) 0.0341(3)
H6 H 0.3586 -0.6586 -0.0096
C11 C 0.3316(4) -0.5162(4) 0.0628(3)
H7 H 0.3978 -0.4888 0.0371
C12 C 0.2577(4) -0.4580(4) 0.1295(3)
H8 H 0.2782 -0.3943 0.1496
C13 C -0.1669(4) -0.8641(4) 0.0534(3)
H9 H -0.2149 -0.9187 0.0623
C14 C -0.1220(5) -0.8365(5) -0.0209(3)
H10 H -0.1337 -0.8767 -0.0615
C15 C -0.0594(4) -0.7480(4) -0.0336(3)
H11 H -0.0303 -0.7260 -0.0832
C16 C -0.0400(4) -0.6919(4) 0.0282(2)
H12 H -0.0025 -0.6284 0.0205
C17 C -0.0773(4) -0.7322(4) 0.1011(3)
C18 C -0.0519(4) -0.6933(4) 0.1735(3)
C19 C -0.1084(4) -0.7141(4) 0.3080(2)
C20 C -0.1531(4) -0.8016(4) 0.3650(3)
C21 C -0.1247(4) -0.8281(4) 0.4375(3)
H13 H -0.0755 -0.7884 0.4561
C22 C -0.1704(4) -0.9161(4) 0.4837(3)
H14 H -0.1528 -0.9346 0.5335
C23 C -0.2415(5) -0.9745(5) 0.4543(3)
H15 H -0.2759 -1.0304 0.4845
C24 C -0.2612(5) -0.9489(4) 0.3791(3)
H16 H -0.3060 -0.9913 0.3586
H17 H 0.295(6) -0.673(6) 0.294(3)
H18 H 0.319(6) -0.560(6) 0.299(4)
H19 H 0.974(6) -0.127(6) 0.225(3)
H20 H 1.029(5) -0.062(5) 0.220(3)
O25_2 O -0.1215(3) -0.2570(3) 0.21595(17)
O17_2 O 0.6403(3) 0.4153(3) 0.19898(18)
N4_2 N 0.7822(4) 0.1351(3) 0.3350(2)
N5_2 N 0.8937(3) 0.2584(3) 0.2362(2)
N6_2 N 0.8564(4) 0.1851(3) 0.1134(2)
Cu2_2 Cu 0.80046(5) -0.85356(5) 0.22186(3)
Cu1_2 Cu 1.07316(5) -0.44491(5) 0.27307(3)
Cu2_3 Cu -0.19954(5) -0.85356(5) 0.22186(3)
O26 O 0.4672(4) 0.6534(4) 0.5028(3)
H23 H 0.462(6) 0.623(5) 0.539(3)
H24 H 0.394(7) 0.651(6) 0.476(4)
O27 O 0.3296(4) 0.0619(3) 0.0212(3)
H21 H 0.335(5) 0.077(5) -0.018(3)
H22 H 0.365(9) 0.094(9) 0.039(5)
loop_
_geom_bond_atom_site_label_1
_geom_bond_atom_site_label_2
_geom_bond_site_symmetry_1
_geom_bond_site_symmetry_2
Mo1 O4 1_555 1_555
Mo2 O5 1_555 1_555
Mo3 O5 1_555 1_555
Mo4 O6 1_555 1_555
Mo5 O6 1_555 1_555
Cu1 O1 1_555 1_555
Cu2 O2 1_555 1_555
P1 O3 1_555 1_555
P2 O11 1_555 1_555
O1 H17 1_555 1_555
O2 H19 1_555 1_555
O4 P1 1_555 1_555
O5 P1 1_555 1_555
O6 P1 1_555 1_555
O7 Mo5 1_555 1_555
O8 Mo5 1_555 1_555
O9 Mo4 1_555 1_555
O10 Mo1 1_555 1_555
O11 Mo1 1_555 1_555
O12 P2 1_555 1_555
O13 Mo2 1_555 1_555
O14 Mo4 1_555 1_555
O15 Mo3 1_555 1_555
O16 Mo3 1_555 1_555
O17 Mo3 1_555 1_555
O18 Mo3 1_555 1_555
O19 Mo2 1_555 1_555
O20 Mo2 1_555 1_555
O21 Mo1 1_555 1_555
O22 Mo1 1_555 1_555
O23 Mo1 1_555 1_555
O24 Mo2 1_555 1_555
O25 Mo4 1_555 1_555
O26 H23 1_555 1_555
O27 H21 1_555 1_555
N1 Cu1 1_555 1_555
N2 Cu1 1_555 1_555
N3 Cu1 1_555 1_555
N4 C20 1_555 1_555
N5 C18 1_555 1_555
N6 C13 1_555 1_555
C1 N1 1_555 1_555
H1 C1 1_555 1_555
C2 C1 1_555 1_555
H2 C2 1_555 1_555
C3 C2 1_555 1_555
H3 C3 1_555 1_555
C4 C3 1_555 1_555
H4 C4 1_555 1_555
C5 N1 1_555 1_555
C6 N2 1_555 1_555
C7 N2 1_555 1_555
C8 N3 1_555 1_555
C9 C8 1_555 1_555
H5 C9 1_555 1_555
C10 C9 1_555 1_555
H6 C10 1_555 1_555
C11 C10 1_555 1_555
H7 C11 1_555 1_555
C12 N3 1_555 1_555
H8 C12 1_555 1_555
C13 H9 1_555 1_555
C14 C13 1_555 1_555
H10 C14 1_555 1_555
C15 C14 1_555 1_555
H11 C15 1_555 1_555
C16 C15 1_555 1_555
H12 C16 1_555 1_555
C17 N6 1_555 1_555
C18 C7 1_555 1_555
C19 N5 1_555 1_555
C20 C19 1_555 1_555
C21 C20 1_555 1_555
H13 C21 1_555 1_555
C22 C21 1_555 1_555
H14 C22 1_555 1_555
C23 C22 1_555 1_555
H15 C23 1_555 1_555
C24 N4 1_555 1_555
H16 C24 1_555 1_555
H18 O1 1_555 1_555
H20 O2 1_555 1_555
H22 O27 1_555 1_555
H24 O26 1_555 1_555
O25_2 Cu1 1_555 1_555
O17_2 Cu2 1_555 1_555
N4_2 Cu2 1_555 1_555
N5_2 Cu2 1_555 1_555
N6_2 Cu2 1_555 1_555
Cu2_2 O17 1_555 1_555
Cu1_2 O25 1_555 1_555
Cu2_3 N4 1_555 1_555
Mo2 O21 1_555 1_555
Mo3 O19 1_555 1_555
Mo4 O18 1_555 1_555
Mo4 O15 1_555 1_555
Mo5 O10 1_555 1_555
Mo5 O11 1_555 1_555
Mo5 O9 1_555 1_555
Cu1 O24 1_555 1_555
Cu2 O7 1_555 1_555
P2 O13 1_555 1_555
P2 O18 1_555 1_555
N5 Cu2_3 1_555 1_555
N6 Cu2_3 1_555 1_555
C4 C5 1_555 1_555
C5 C6 1_555 1_555
C6 C19 1_555 1_555
C7 C8 1_555 1_555
C11 C12 1_555 1_555
C16 C17 1_555 1_555
C17 C18 1_555 1_555
C23 C24 1_555 1_555

#END
