
#######################################################################
#
#                 Cambridge Crystallographic Data Centre
#                                CCDC 
#
#######################################################################
#
# If this CIF has been generated from an entry in the Cambridge 
# Structural Database, then it will include bibliographic, chemical, 
# crystal, experimental, refinement or atomic coordinate data resulting 
# from the CCDC's data processing and validation procedures.
#
#######################################################################

data_UCOKAY
_symmetry_cell_setting           monoclinic
_symmetry_space_group_name_H-M   'C 2/c'
_symmetry_Int_Tables_number      15
_space_group_name_Hall           '-C 2yn'
loop_
_symmetry_equiv_pos_site_id
_symmetry_equiv_pos_as_xyz
1 x,y,z
2 1/2+x,1/2+y,z
3 x,-y,1/2+z
4 1/2+x,1/2-y,1/2+z
5 -x,-y,-z
6 1/2-x,1/2-y,-z
7 -x,y,1/2-z
8 1/2-x,1/2+y,1/2-z
_cell_length_a                   18.3609(1)
_cell_length_b                   16.0705(1)
_cell_length_c                   13.4127(9)
_cell_angle_alpha                90.00
_cell_angle_beta                 102.6690(1)
_cell_angle_gamma                90.00
_cell_volume                     3861.31
loop_
_atom_site_label
_atom_site_type_symbol
_atom_site_fract_x
_atom_site_fract_y
_atom_site_fract_z
Mo1 Mo -0.07622(4) -0.35749(4) 0.81895(5)
Mo2 Mo -0.09771(4) -0.15713(4) 0.88106(5)
Mo3 Mo 0.0000 -0.03578(6) 0.7500
Cu1 Cu -0.15246(5) 0.11092(6) 0.64749(7)
P1 P 0.07867(11) -0.21494(12) 0.86371(15)
O1 O -0.2057(3) 0.0741(3) 0.7817(4)
O2 O -0.0733(3) 0.0327(3) 0.7006(4)
O3 O 0.1181(3) -0.1845(3) 0.9724(4)
O4 O -0.0027(3) -0.2366(3) 0.8654(4)
O5 O 0.0000 -0.3869(4) 0.7500
O6 O -0.0824(3) -0.1564(3) 1.0110(4)
O7 O -0.0251(3) -0.0692(3) 0.8716(4)
O8 O 0.0811(3) -0.1431(3) 0.7886(4)
O9 O -0.1791(3) -0.1022(3) 0.8429(4)
O10 O -0.1357(3) -0.2667(3) 0.8535(4)
O11 O -0.1428(3) -0.4311(3) 0.7777(4)
O12 O 0.1181(3) -0.2907(3) 0.8355(4)
O13 O -0.0353(3) -0.3922(3) 0.9388(4)
C1 C -0.2326(4) -0.0448(5) 0.5758(6)
H1 H -0.1932 -0.0727 0.6179
C2 C -0.2840(4) 0.0761(5) 0.4972(6)
C3 C -0.3505(4) 0.0365(5) 0.4555(6)
H2 H -0.3903 0.0660 0.4164
C4 C -0.2698(4) 0.1680(5) 0.4889(6)
C5 C -0.3019(4) 0.2254(5) 0.4139(6)
C6 C -0.3563(4) 0.2147(5) 0.3148(5)
C7 C -0.3695(4) 0.1413(5) 0.2594(6)
H3 H -0.3432 0.0933 0.2835
C8 C -0.4390(4) 0.2851(5) 0.1878(6)
H4 H -0.4616 0.3344 0.1609
C9 C -0.4574(4) 0.2112(5) 0.1332(6)
H5 H -0.4938 0.2108 0.0728
C10 C -0.4212(4) 0.1399(5) 0.1697(6)
H6 H -0.4318 0.0904 0.1335
C11 C -0.2965(5) -0.0888(5) 0.5323(6)
H7 H -0.2990 -0.1458 0.5430
C12 C -0.3570(4) -0.0471(5) 0.4725(6)
H8 H -0.4009 -0.0753 0.4446
N1 N -0.2259(3) 0.0359(4) 0.5594(5)
N2 N -0.3899(3) 0.2868(4) 0.2779(4)
N3 N -0.2191(3) 0.1946(4) 0.5692(4)
N3E N -0.2809(3) 0.3054(4) 0.4308(4)
C4E C -0.2302(4) 0.3320(5) 0.5111(6)
C2E C -0.2160(4) 0.4239(5) 0.5028(6)
C3E C -0.1495(4) 0.4635(5) 0.5445(6)
H2E H -0.1097 0.4340 0.5836
C12E C -0.1430(4) 0.5471(5) 0.5275(6)
C11E C -0.2035(5) 0.5888(5) 0.4677(6)
C1E C -0.2674(4) 0.5448(5) 0.4242(6)
H1E H -0.3068 0.5727 0.3821
N1E N -0.2741(3) 0.4641(4) 0.4406(5)
H7E H -0.2010 0.6458 0.4570
H8E H -0.0991 0.5753 0.5554
C5E C -0.1981(4) 0.2746(5) 0.5861(6)
C6E C -0.1437(4) 0.2853(5) 0.6852(5)
C7E C -0.1305(4) 0.3587(5) 0.7406(6)
H3E H -0.1568 0.4067 0.7165
C10E C -0.0788(4) 0.3601(5) 0.8303(6)
C9E C -0.0426(4) 0.2888(5) 0.8668(6)
C8E C -0.0610(4) 0.2149(5) 0.8122(6)
H4E H -0.0384 0.1656 0.8391
N2E N -0.1101(3) 0.2132(4) 0.7221(4)
H5E H -0.0062 0.2892 0.9272
H6E H -0.0682 0.4096 0.8665
O2F O 0.0733(3) 0.0327(3) 0.7994(4)
O7F O 0.0251(3) -0.0692(3) 0.6284(4)
P1F P -0.07867(11) -0.21494(12) 0.63629(15)
O3F O -0.1181(3) -0.1845(3) 0.5276(4)
O4F O 0.0027(3) -0.2366(3) 0.6346(4)
O8F O -0.0811(3) -0.1431(3) 0.7114(4)
O12F O -0.1181(3) -0.2907(3) 0.6645(4)
Mo1F Mo 0.07622(4) -0.35749(4) 0.68105(5)
Mo2F Mo 0.09771(4) -0.15713(4) 0.61894(5)
Cu1F Cu 0.15246(5) 0.11092(6) 0.85251(7)
O6B O -0.0824(3) 0.1564(3) 0.5110(4)
O10F O 0.1357(3) -0.2667(3) 0.6465(4)
O11F O 0.1428(3) -0.4311(3) 0.7223(4)
O13F O 0.0353(3) -0.3922(3) 0.5612(4)
O9F O 0.1791(3) -0.1022(3) 0.6571(4)
O1F O 0.2057(3) 0.0741(3) 0.7183(4)
Cu1B Cu -0.15246(5) -0.11092(6) 1.14749(7)
Cu1E Cu -0.34754(5) 0.38908(6) 0.35251(7)
O6F O 0.0824(3) -0.1564(3) 0.4890(4)
O6D O 0.0824(3) 0.1564(3) 0.9890(4)
N1F N 0.2259(3) 0.0359(4) 0.9406(5)
N2C N 0.1101(3) 0.2132(4) 0.7779(4)
N3F N 0.2191(3) 0.1946(4) 0.9308(4)
Mo2B Mo -0.09771(4) 0.15713(4) 0.38106(5)
O14 O 0.1026(7) 0.0514(8) 0.5434(9)
O15 O 0.2289(3) 0.2197(3) 0.6281(5)
loop_
_geom_bond_atom_site_label_1
_geom_bond_atom_site_label_2
_geom_bond_site_symmetry_1
_geom_bond_site_symmetry_2
Mo1 O4 1_555 1_555
Mo2 O4 1_555 1_555
Mo3 O2 1_555 1_555
Cu1 O1 1_555 1_555
P1 O3 1_555 1_555
O2 Cu1 1_555 1_555
O4 P1 1_555 1_555
O5 Mo1 1_555 1_555
O6 Mo2 1_555 1_555
O7 Mo2 1_555 1_555
O8 Mo3 1_555 1_555
O9 Mo2 1_555 1_555
O10 Mo1 1_555 1_555
O11 Mo1 1_555 1_555
O12 P1 1_555 1_555
O13 Mo1 1_555 1_555
C1 H1 1_555 1_555
C2 C3 1_555 1_555
C3 H2 1_555 1_555
C4 C2 1_555 1_555
C5 C4 1_555 1_555
C6 C5 1_555 1_555
C7 C6 1_555 1_555
H3 C7 1_555 1_555
C8 H4 1_555 1_555
C9 C8 1_555 1_555
H5 C9 1_555 1_555
C10 C7 1_555 1_555
H6 C10 1_555 1_555
C11 C1 1_555 1_555
H7 C11 1_555 1_555
C12 C3 1_555 1_555
H8 C12 1_555 1_555
N1 Cu1 1_555 1_555
N2 C6 1_555 1_555
N3 Cu1 1_555 1_555
N3E C5 1_555 1_555
C4E N3E 1_555 1_555
C2E C4E 1_555 1_555
C3E C2E 1_555 1_555
H2E C3E 1_555 1_555
C12E C3E 1_555 1_555
C11E C12E 1_555 1_555
C1E C11E 1_555 1_555
H1E C1E 1_555 1_555
N1E C2E 1_555 1_555
H7E C11E 1_555 1_555
H8E C12E 1_555 1_555
C5E N3 1_555 1_555
C6E C5E 1_555 1_555
C7E C6E 1_555 1_555
H3E C7E 1_555 1_555
C10E C7E 1_555 1_555
C9E C10E 1_555 1_555
C8E C9E 1_555 1_555
H4E C8E 1_555 1_555
N2E Cu1 1_555 1_555
H5E C9E 1_555 1_555
H6E C10E 1_555 1_555
O2F Mo3 1_555 1_555
O7F Mo3 1_555 1_555
P1F O3F 1_555 1_555
O4F P1F 1_555 1_555
O8F Mo2 1_555 1_555
O12F Mo1 1_555 1_555
Mo1F O5 1_555 1_555
Mo2F O8 1_555 1_555
Cu1F O2F 1_555 1_555
O6B Cu1 1_555 1_555
O10F Mo1F 1_555 1_555
O11F Mo1F 1_555 1_555
O13F Mo1F 1_555 1_555
O9F Mo2F 1_555 1_555
O1F Cu1F 1_555 1_555
Cu1B O6 1_555 1_555
Cu1E N2 1_555 1_555
O6F Mo2F 1_555 1_555
O6D Cu1F 1_555 1_555
N1F Cu1F 1_555 1_555
N2C Cu1F 1_555 1_555
N3F Cu1F 1_555 1_555
Mo2B O6B 1_555 1_555
Mo2 O10 1_555 1_555
Mo3 O7 1_555 1_555
Mo3 O8F 1_555 1_555
P1 O8 1_555 1_555
O12 Mo1F 1_555 1_555
C1 N1 1_555 1_555
C2 N1 1_555 1_555
C4 N3 1_555 1_555
C8 N2 1_555 1_555
C9 C10 1_555 1_555
C11 C12 1_555 1_555
N3E Cu1E 1_555 1_555
C4E C5E 1_555 1_555
C1E N1E 1_555 1_555
N1E Cu1E 1_555 1_555
C6E N2E 1_555 1_555
C8E N2E 1_555 1_555
O7F Mo2F 1_555 1_555
P1F O8F 1_555 1_555
P1F O12F 1_555 1_555
O4F Mo1F 1_555 1_555
O4F Mo2F 1_555 1_555
Mo2F O10F 1_555 1_555

#END
