
#######################################################################
#
#                 Cambridge Crystallographic Data Centre
#                                CCDC 
#
#######################################################################
#
# If this CIF has been generated from an entry in the Cambridge 
# Structural Database, then it will include bibliographic, chemical, 
# crystal, experimental, refinement or atomic coordinate data resulting 
# from the CCDC's data processing and validation procedures.
#
#######################################################################

data_UCOPUZ
_symmetry_cell_setting           monoclinic
_symmetry_space_group_name_H-M   'P 21/c'
_symmetry_Int_Tables_number      14
_space_group_name_Hall           '-P 2ybc'
loop_
_symmetry_equiv_pos_site_id
_symmetry_equiv_pos_as_xyz
1 x,y,z
2 -x,1/2+y,1/2-z
3 -x,-y,-z
4 x,1/2-y,1/2+z
_cell_length_a                   10.9169(1)
_cell_length_b                   19.1132(2)
_cell_length_c                   14.0349(2)
_cell_angle_alpha                90
_cell_angle_beta                 93.681(1)
_cell_angle_gamma                90
_cell_volume                     2922.44
loop_
_atom_site_label
_atom_site_type_symbol
_atom_site_fract_x
_atom_site_fract_y
_atom_site_fract_z
Cd1 Cd 0.0000 0.5000 0.0000
O1 O -0.17985(12) 0.56269(7) 0.00747(10)
H1 H -0.191(2) 0.5800(11) 0.0615(10)
H2 H -0.182(2) 0.5975(8) -0.0306(12)
C1 C 0.10113(17) 0.76859(9) 0.13700(13)
C2 C 0.09442(17) 0.82967(9) 0.18929(12)
C3 C 0.01302(17) 0.77538(9) 0.20296(13)
C4 C 0.15521(17) 0.72838(9) 0.06725(13)
C5 C 0.12570(16) 0.65696(9) 0.05890(12)
N1 N 0.10412(14) 0.59803(8) 0.05637(11)
C6 C 0.24342(18) 0.75781(9) 0.00908(13)
N2 N 0.31380(17) 0.78314(8) -0.03788(13)
C7 C 0.13416(17) 0.89785(9) 0.21190(12)
C8 C 0.08130(16) 0.93385(9) 0.28700(13)
N3 N 0.03522(14) 0.96191(8) 0.34777(11)
C9 C 0.22630(17) 0.93140(9) 0.16116(12)
N4 N 0.29918(15) 0.95866(9) 0.11869(11)
C10 C -0.08858(17) 0.74963(9) 0.24738(13)
C11 C -0.14445(17) 0.68570(10) 0.21637(13)
N5 N -0.18730(15) 0.63416(8) 0.18845(12)
C12 C -0.14342(17) 0.79174(9) 0.31557(13)
N6 N -0.18471(16) 0.82901(8) 0.36949(12)
Cd1A Cd 0.0000 1.0000 0.5000
Cd1A_2 Cd 0.0000 0.0000 0.5000
O1B O 0.17985(12) 0.43731(7) -0.00747(10)
H1B H 0.191(2) 0.4200(11) -0.0615(10)
H2B H 0.182(2) 0.4025(8) 0.0306(12)
C1A C -0.10113(17) 0.26859(9) 0.36300(13)
C2A C -0.09442(17) 0.32967(9) 0.31071(12)
C3A C -0.01302(17) 0.27538(9) 0.29704(13)
C4A C -0.15521(17) 0.22838(9) 0.43275(13)
C5A C -0.12570(16) 0.15696(9) 0.44110(12)
N1A N -0.10412(14) 0.09803(8) 0.44363(11)
N1B N -0.10412(14) 0.40197(8) -0.05637(11)
C6A C -0.24342(18) 0.25781(9) 0.49092(13)
N2A N -0.31380(17) 0.28314(8) 0.53788(13)
C7A C -0.13416(17) 0.39785(9) 0.28810(12)
C8A C -0.08130(16) 0.43385(9) 0.21300(13)
N3A N -0.03522(14) 0.46191(8) 0.15223(11)
N3C N 0.03522(14) 0.53809(8) -0.15223(11)
C9A C -0.22630(17) 0.43140(9) 0.33884(12)
N4A N -0.29918(15) 0.45866(9) 0.38131(11)
C10A C 0.08858(17) 0.24963(9) 0.25262(13)
C11A C 0.14445(17) 0.18570(10) 0.28363(13)
N5A N 0.18730(15) 0.13416(8) 0.31155(12)
C12A C 0.14342(17) 0.29174(9) 0.18443(13)
N6A N 0.18471(16) 0.32901(8) 0.13051(12)
N7 N 0.33862(13) 0.51385(7) 0.29993(10)
C13 C 0.35805(16) 0.48225(9) 0.20256(12)
H3 H 0.3100 0.4384 0.1964
H4 H 0.3236 0.5149 0.1531
C14 C 0.48979(17) 0.46595(10) 0.18104(13)
H5 H 0.5306 0.4395 0.2348
H6 H 0.5356 0.5101 0.1732
C15 C 0.49055(17) 0.42275(9) 0.08973(13)
H7 H 0.4457 0.4485 0.0371
H8 H 0.4469 0.3781 0.0989
C16 C 0.62042(18) 0.40710(10) 0.06171(14)
H9 H 0.6628 0.4511 0.0496
H10 H 0.6166 0.3783 0.0038
H11 H 0.6653 0.3818 0.1137
C17 C 0.41452(17) 0.58012(9) 0.31699(13)
H12 H 0.4042 0.5962 0.3830
H13 H 0.5021 0.5678 0.3128
C18 C 0.38512(18) 0.64095(9) 0.24984(13)
H14 H 0.3018 0.6590 0.2595
H15 H 0.3873 0.6252 0.1828
C19 C 0.48005(18) 0.69860(9) 0.27046(14)
H16 H 0.4924 0.7052 0.3404
H17 H 0.5594 0.6838 0.2465
C20 C 0.4421(2) 0.76768(10) 0.22463(16)
H18 H 0.4316 0.7618 0.1552
H19 H 0.5057 0.8028 0.2400
H20 H 0.3644 0.7831 0.2490
C21 C 0.20185(16) 0.52897(10) 0.29972(13)
H21 H 0.1793 0.5602 0.2452
H22 H 0.1570 0.4844 0.2883
C22 C 0.15718(17) 0.56202(10) 0.38909(13)
H23 H 0.1960 0.6084 0.3996
H24 H 0.1800 0.5322 0.4451
C23 C 0.01883(18) 0.56991(11) 0.37746(14)
H25 H -0.0029 0.5928 0.3154
H26 H -0.0187 0.5227 0.3754
C24 C -0.03612(19) 0.61172(11) 0.45547(15)
H27 H -0.0153 0.5895 0.5174
H28 H -0.1256 0.6133 0.4438
H29 H -0.0032 0.6594 0.4559
C25 C 0.37947(16) 0.46452(9) 0.38060(12)
H30 H 0.4691 0.4572 0.3787
H31 H 0.3653 0.4880 0.4418
C26 C 0.31810(17) 0.39329(9) 0.38088(13)
H32 H 0.3315 0.3683 0.3206
H33 H 0.2286 0.3989 0.3859
C27 C 0.37266(18) 0.35118(9) 0.46565(13)
H34 H 0.4630 0.3494 0.4629
H35 H 0.3543 0.3752 0.5256
C28 C 0.3226(2) 0.27699(10) 0.46726(15)
H36 H 0.2336 0.2785 0.4724
H37 H 0.3611 0.2518 0.5222
H38 H 0.3410 0.2528 0.4082
loop_
_geom_bond_atom_site_label_1
_geom_bond_atom_site_label_2
_geom_bond_site_symmetry_1
_geom_bond_site_symmetry_2
Cd1 O1 1_555 1_555
O1 H1 1_555 1_555
H2 O1 1_555 1_555
C1 C2 1_555 1_555
C2 C3 1_555 1_555
C3 C1 1_555 1_555
C4 C1 1_555 1_555
C5 C4 1_555 1_555
N1 Cd1 1_555 1_555
C6 C4 1_555 1_555
N2 C6 1_555 1_555
C7 C2 1_555 1_555
C8 C7 1_555 1_555
N3 C8 1_555 1_555
C9 C7 1_555 1_555
N4 C9 1_555 1_555
C10 C3 1_555 1_555
C11 C10 1_555 1_555
N5 C11 1_555 1_555
C12 C10 1_555 1_555
N6 C12 1_555 1_555
N7 C13 1_555 1_555
C13 H3 1_555 1_555
H4 C13 1_555 1_555
C14 C13 1_555 1_555
H5 C14 1_555 1_555
H6 C14 1_555 1_555
C15 C14 1_555 1_555
H7 C15 1_555 1_555
H8 C15 1_555 1_555
C16 C15 1_555 1_555
H9 C16 1_555 1_555
H10 C16 1_555 1_555
H11 C16 1_555 1_555
C17 N7 1_555 1_555
H12 C17 1_555 1_555
H13 C17 1_555 1_555
C18 C17 1_555 1_555
H14 C18 1_555 1_555
H15 C18 1_555 1_555
C19 C18 1_555 1_555
H16 C19 1_555 1_555
H17 C19 1_555 1_555
C20 C19 1_555 1_555
H18 C20 1_555 1_555
H19 C20 1_555 1_555
H20 C20 1_555 1_555
C21 N7 1_555 1_555
H21 C21 1_555 1_555
H22 C21 1_555 1_555
C22 C21 1_555 1_555
H23 C22 1_555 1_555
H24 C22 1_555 1_555
C23 C22 1_555 1_555
H25 C23 1_555 1_555
H26 C23 1_555 1_555
C24 C23 1_555 1_555
H27 C24 1_555 1_555
H28 C24 1_555 1_555
H29 C24 1_555 1_555
C25 N7 1_555 1_555
H30 C25 1_555 1_555
H31 C25 1_555 1_555
C26 C25 1_555 1_555
H32 C26 1_555 1_555
H33 C26 1_555 1_555
C27 C26 1_555 1_555
H34 C27 1_555 1_555
H35 C27 1_555 1_555
C28 C27 1_555 1_555
H36 C28 1_555 1_555
H37 C28 1_555 1_555
H38 C28 1_555 1_555
Cd1A N3 1_555 1_555
Cd1A_2 N1A 1_555 1_555
O1B Cd1 1_555 1_555
H1B O1B 1_555 1_555
H2B O1B 1_555 1_555
C1A C2A 1_555 1_555
C2A C3A 1_555 1_555
C3A C1A 1_555 1_555
C4A C1A 1_555 1_555
C5A C4A 1_555 1_555
N1A C5A 1_555 1_555
N1B Cd1 1_555 1_555
C6A C4A 1_555 1_555
N2A C6A 1_555 1_555
C7A C2A 1_555 1_555
C8A C7A 1_555 1_555
N3A Cd1 1_555 1_555
N3C Cd1 1_555 1_555
C9A C7A 1_555 1_555
N4A C9A 1_555 1_555
C10A C3A 1_555 1_555
C11A C10A 1_555 1_555
N5A C11A 1_555 1_555
C12A C10A 1_555 1_555
N6A C12A 1_555 1_555
C5 N1 1_555 1_555
C8A N3A 1_555 1_555

#END
