
#######################################################################
#
#                 Cambridge Crystallographic Data Centre
#                                CCDC 
#
#######################################################################
#
# If this CIF has been generated from an entry in the Cambridge 
# Structural Database, then it will include bibliographic, chemical, 
# crystal, experimental, refinement or atomic coordinate data resulting 
# from the CCDC's data processing and validation procedures.
#
#######################################################################

data_UCOQUA
_symmetry_cell_setting           triclinic
_symmetry_space_group_name_H-M   'P -1'
_symmetry_Int_Tables_number      2
_space_group_name_Hall           '-P 1'
loop_
_symmetry_equiv_pos_site_id
_symmetry_equiv_pos_as_xyz
1 x,y,z
2 -x,-y,-z
_cell_length_a                   7.8287(7)
_cell_length_b                   8.8368(7)
_cell_length_c                   12.4402(11)
_cell_angle_alpha                88.074(3)
_cell_angle_beta                 81.756(3)
_cell_angle_gamma                85.783(6)
_cell_volume                     849.19
loop_
_atom_site_label
_atom_site_type_symbol
_atom_site_fract_x
_atom_site_fract_y
_atom_site_fract_z
Co1 Co 0.0000 0.5000 0.5000
O1 O 0.0542(11) 0.5296(10) 0.6552(6)
C1 C -0.0239(15) 0.6395(13) 0.7325(9)
H1 H -0.0051 0.7418 0.7024
H2 H 0.0283 0.6249 0.7995
H3 H -0.1484 0.6270 0.7486
Co2 Co 0.0000 0.0000 1.0000
O2 O -0.1794(11) -0.1423(10) 0.9588(6)
C2 C -0.328(2) -0.193(3) 1.0251(12)
H4 H -0.4245 -0.1155 1.0244
H5 H -0.3597 -0.2877 0.9969
H6 H -0.3035 -0.2102 1.0997
O3 O -0.1689(12) 0.1878(10) 0.9761(6)
C3 C -0.147(3) 0.313(2) 0.8997(13)
H7 H -0.1917 0.2892 0.8330
H8 H -0.2111 0.4042 0.9313
H9 H -0.0241 0.3309 0.8828
C4 C 0.2729(15) -0.0852(12) 0.5719(8)
C5 C 0.3716(13) -0.1461(12) 0.4781(8)
C6 C 0.3908(14) -0.2082(11) 0.5802(8)
C7 C 0.1546(13) 0.0238(11) 0.6255(8)
C8 C 0.0855(14) 0.1538(13) 0.5734(8)
N1 N 0.0277(12) 0.2616(10) 0.5326(7)
C9 C 0.1248(14) 0.0159(11) 0.7419(9)
N2 N 0.1001(12) 0.0121(10) 0.8345(7)
C10 C 0.4238(14) -0.1489(13) 0.3667(8)
C11 C 0.5567(14) -0.2593(13) 0.3241(8)
N3 N 0.6642(13) -0.3480(11) 0.2939(7)
C12 C 0.3522(14) -0.0448(12) 0.2929(8)
N4 N 0.2963(13) 0.0398(11) 0.2324(7)
C13 C 0.4769(13) -0.3126(12) 0.6450(8)
C14 C 0.4274(14) -0.3156(12) 0.7580(9)
N5 N 0.3802(14) -0.3142(13) 0.8515(8)
C15 C 0.6137(14) -0.4083(12) 0.5982(8)
N6 N 0.7338(12) -0.4855(11) 0.5582(8)
H10 H -0.255(9) 0.200(12) 1.027(6)
H11 H 0.09(4) 0.443(15) 0.681(3)
H12 H -0.17(2) -0.16(3) 0.891(5)
Co1_2 Co 1.0000 -0.5000 0.5000
Co1_3 Co -1.0000 1.5000 0.5000
O1A O -0.0542(11) 0.4704(10) 0.3448(6)
C1A C 0.0239(15) 0.3605(13) 0.2675(9)
H1A H 0.0051 0.2582 0.2976
H2A H -0.0283 0.3751 0.2005
H3A H 0.1484 0.3730 0.2514
Co2_2 Co 0.0000 1.0000 0.0000
O2A O 0.1794(11) 0.1423(10) 1.0412(6)
C2A C 0.328(2) 0.193(3) 0.9749(12)
H4A H 0.4245 0.1155 0.9756
H5A H 0.3597 0.2877 1.0031
H6A H 0.3035 0.2102 0.9003
O3A O 0.1689(12) -0.1878(10) 1.0239(6)
C3A C 0.147(3) -0.313(2) 1.1003(13)
H7A H 0.1917 -0.2892 1.1670
H8A H 0.2111 -0.4042 1.0687
H9A H 0.0241 -0.3309 1.1172
C4A C -0.2729(15) 1.0852(12) 0.4281(8)
C5A C -0.3716(13) 1.1461(12) 0.5219(8)
C6A C -0.3908(14) 1.2082(11) 0.4198(8)
C7A C -0.1546(13) 0.9762(11) 0.3745(8)
C8A C -0.0855(14) 0.8462(13) 0.4266(8)
N1A N -0.0277(12) 0.7384(10) 0.4674(7)
C9A C -0.1248(14) 0.9841(11) 0.2581(9)
N2A N -0.1001(12) 0.9879(10) 0.1655(7)
N2A_2 N -0.1001(12) -0.0121(10) 1.1655(7)
C10A C -0.4238(14) 1.1489(13) 0.6333(8)
C11A C -0.5567(14) 1.2593(13) 0.6759(8)
N3A N -0.6642(13) 1.3480(11) 0.7061(7)
C12A C -0.3522(14) 1.0448(12) 0.7071(8)
N4A N -0.2963(13) 0.9602(11) 0.7676(7)
C13A C -0.4769(13) 1.3126(12) 0.3550(8)
C14A C -0.4274(14) 1.3156(12) 0.2420(9)
N5A N -0.3802(14) 1.3142(13) 0.1485(8)
C15A C -0.6137(14) 1.4083(12) 0.4018(8)
N6A N 0.2662(12) 0.4855(11) 0.4418(8)
N6A_2 N -0.7338(12) 1.4855(11) 0.4418(8)
N6_2 N -0.2662(12) 0.5145(11) 0.5582(8)
H10A H 0.255(9) -0.200(12) 0.973(6)
H11A H -0.09(4) 0.557(15) 0.319(3)
H12A H 0.17(2) 0.16(3) 1.109(5)
loop_
_geom_bond_atom_site_label_1
_geom_bond_atom_site_label_2
_geom_bond_site_symmetry_1
_geom_bond_site_symmetry_2
Co1 O1 1_555 1_555
O1 C1 1_555 1_555
C1 H1 1_555 1_555
H2 C1 1_555 1_555
H3 C1 1_555 1_555
Co2 O2 1_555 1_555
O2 C2 1_555 1_555
C2 H4 1_555 1_555
H5 C2 1_555 1_555
H6 C2 1_555 1_555
O3 Co2 1_555 1_555
C3 O3 1_555 1_555
H7 C3 1_555 1_555
H8 C3 1_555 1_555
H9 C3 1_555 1_555
C4 C5 1_555 1_555
C5 C6 1_555 1_555
C6 C4 1_555 1_555
C7 C4 1_555 1_555
C8 C7 1_555 1_555
N1 Co1 1_555 1_555
C9 C7 1_555 1_555
N2 Co2 1_555 1_555
C10 C5 1_555 1_555
C11 C10 1_555 1_555
N3 C11 1_555 1_555
C12 C10 1_555 1_555
N4 C12 1_555 1_555
C13 C6 1_555 1_555
C14 C13 1_555 1_555
N5 C14 1_555 1_555
C15 C13 1_555 1_555
N6 C15 1_555 1_555
H10 O3 1_555 1_555
H11 O1 1_555 1_555
H12 O2 1_555 1_555
Co1_2 N6 1_555 1_555
Co1_3 N6A_2 1_555 1_555
O1A Co1 1_555 1_555
C1A O1A 1_555 1_555
H1A C1A 1_555 1_555
H2A C1A 1_555 1_555
H3A C1A 1_555 1_555
Co2_2 N2A 1_555 1_555
O2A Co2 1_555 1_555
C2A O2A 1_555 1_555
H4A C2A 1_555 1_555
H5A C2A 1_555 1_555
H6A C2A 1_555 1_555
O3A Co2 1_555 1_555
C3A O3A 1_555 1_555
H7A C3A 1_555 1_555
H8A C3A 1_555 1_555
H9A C3A 1_555 1_555
C4A C5A 1_555 1_555
C5A C6A 1_555 1_555
C6A C4A 1_555 1_555
C7A C4A 1_555 1_555
C8A C7A 1_555 1_555
N1A Co1 1_555 1_555
C9A C7A 1_555 1_555
N2A C9A 1_555 1_555
N2A_2 Co2 1_555 1_555
C10A C5A 1_555 1_555
C11A C10A 1_555 1_555
N3A C11A 1_555 1_555
C12A C10A 1_555 1_555
N4A C12A 1_555 1_555
C13A C6A 1_555 1_555
C14A C13A 1_555 1_555
N5A C14A 1_555 1_555
C15A C13A 1_555 1_555
N6A Co1 1_555 1_555
N6A_2 C15A 1_555 1_555
N6_2 Co1 1_555 1_555
H10A O3A 1_555 1_555
H11A O1A 1_555 1_555
H12A O2A 1_555 1_555
C8 N1 1_555 1_555
C9 N2 1_555 1_555
C8A N1A 1_555 1_555

#END
