
#######################################################################
#
#                 Cambridge Crystallographic Data Centre
#                                CCDC 
#
#######################################################################
#
# If this CIF has been generated from an entry in the Cambridge 
# Structural Database, then it will include bibliographic, chemical, 
# crystal, experimental, refinement or atomic coordinate data resulting 
# from the CCDC's data processing and validation procedures.
#
#######################################################################

data_UCOQEK
_symmetry_cell_setting           monoclinic
_symmetry_space_group_name_H-M   'P 21/c'
_symmetry_Int_Tables_number      14
_space_group_name_Hall           '-P 2ybc'
loop_
_symmetry_equiv_pos_site_id
_symmetry_equiv_pos_as_xyz
1 x,y,z
2 -x,1/2+y,1/2-z
3 -x,-y,-z
4 x,1/2-y,1/2+z
_cell_length_a                   10.9598(1)
_cell_length_b                   18.8191(2)
_cell_length_c                   13.9049(2)
_cell_angle_alpha                90
_cell_angle_beta                 93.516(1)
_cell_angle_gamma                90
_cell_volume                     2862.54
loop_
_atom_site_label
_atom_site_type_symbol
_atom_site_fract_x
_atom_site_fract_y
_atom_site_fract_z
Fe1 Fe 0.5000 0.0000 0.0000
O1 O 0.33229(11) 0.05681(6) 0.00423(9)
H1 H 0.3204(18) 0.0745(10) 0.0597(9)
H2 H 0.327(2) 0.0927(9) -0.0340(14)
C1 C 0.59647(15) 0.26669(9) 0.13997(11)
C2 C 0.58921(15) 0.32821(9) 0.19385(11)
C3 C 0.50767(15) 0.27305(9) 0.20596(11)
C4 C 0.64992(15) 0.22588(8) 0.06903(12)
C5 C 0.61794(15) 0.15364(9) 0.05818(11)
N1 N 0.59370(13) 0.09412(7) 0.05256(10)
C6 C 0.73810(16) 0.25570(9) 0.01059(12)
N2 N 0.80883(16) 0.28124(8) -0.03658(12)
C7 C 0.62850(15) 0.39742(8) 0.21764(11)
C8 C 0.57647(15) 0.43358(8) 0.29403(11)
N3 N 0.53224(13) 0.46194(7) 0.35673(10)
C9 C 0.72090(16) 0.43148(9) 0.16698(12)
N4 N 0.79445(14) 0.45877(8) 0.12401(10)
C10 C 0.40475(16) 0.24703(9) 0.24891(12)
C11 C 0.34911(16) 0.18264(9) 0.21614(12)
N5 N 0.30744(14) 0.13023(8) 0.18599(11)
C12 C 0.35000(16) 0.29052(9) 0.31726(12)
N6 N 0.31115(14) 0.32972(8) 0.37114(11)
Fe1A Fe 0.5000 0.5000 0.5000
Fe1A_2 Fe 0.5000 -0.5000 -0.5000
O1B O 0.66771(11) -0.05681(6) -0.00423(9)
H1B H 0.6796(18) -0.0745(10) -0.0597(9)
H2B H 0.673(2) -0.0927(9) 0.0340(14)
C1B C 0.40353(15) -0.26669(9) -0.13997(11)
C2B C 0.41079(15) -0.32821(9) -0.19385(11)
C3B C 0.49233(15) -0.27305(9) -0.20596(11)
C4B C 0.35008(15) -0.22588(8) -0.06903(12)
C5B C 0.38206(15) -0.15364(9) -0.05818(11)
N1B N 0.40630(13) -0.09412(7) -0.05256(10)
C6B C 0.26190(16) -0.25570(9) -0.01059(12)
N2B N 0.19117(16) -0.28124(8) 0.03658(12)
C7B C 0.37150(15) -0.39742(8) -0.21764(11)
C8B C 0.42353(15) -0.43358(8) -0.29403(11)
N3B N 0.46776(13) -0.46194(7) -0.35673(10)
N3A N 0.46776(13) -0.03806(7) 0.14327(10)
N3C N 0.53224(13) 0.03806(7) -0.14327(10)
C9B C 0.27910(16) -0.43148(9) -0.16698(12)
N4B N 0.20555(14) -0.45877(8) -0.12401(10)
C10B C 0.59525(16) -0.24703(9) -0.24891(12)
C11B C 0.65089(16) -0.18264(9) -0.21614(12)
N5B N 0.69256(14) -0.13023(8) -0.18599(11)
C12B C 0.65000(16) -0.29052(9) -0.31726(12)
N6B N 0.68885(14) -0.32972(8) -0.37114(11)
N7 N 0.83895(12) 0.01506(7) 0.29955(9)
C13 C 0.85881(15) -0.01686(9) 0.20119(11)
H3 H 0.8129 -0.0621 0.1955
H4 H 0.8227 0.0158 0.1514
C14 C 0.99010(15) -0.03153(9) 0.17850(12)
H5 H 1.0330 -0.0565 0.2334
H6 H 1.0330 0.0139 0.1683
C15 C 0.99202(16) -0.07725(9) 0.08801(12)
H7 H 0.9502 -0.1228 0.0994
H8 H 0.9461 -0.0527 0.0343
C16 C 1.12141(17) -0.09247(10) 0.05906(13)
H9 H 1.1629 -0.0476 0.0467
H10 H 1.1178 -0.1216 0.0006
H11 H 1.1667 -0.1180 0.1113
C17 C 0.91286(15) 0.08260(9) 0.31670(12)
H12 H 0.9024 0.0986 0.3835
H13 H 1.0003 0.0708 0.3121
C18 C 0.88240(16) 0.14434(9) 0.24960(12)
H14 H 0.7991 0.1620 0.2597
H15 H 0.8848 0.1287 0.1818
C19 C 0.97566(17) 0.20343(9) 0.27034(13)
H16 H 0.9877 0.2102 0.3409
H17 H 1.0550 0.1890 0.2461
C20 C 0.93589(19) 0.27344(10) 0.22376(15)
H18 H 0.9258 0.2673 0.1537
H19 H 0.9982 0.3097 0.2392
H20 H 0.8580 0.2884 0.2484
C21 C 0.70237(15) 0.02905(9) 0.29970(12)
H21 H 0.6790 0.0607 0.2448
H22 H 0.6591 -0.0166 0.2881
C22 C 0.65676(15) 0.06201(10) 0.39018(12)
H23 H 0.6961 0.1088 0.4021
H24 H 0.6779 0.0310 0.4463
C23 C 0.51924(16) 0.07102(11) 0.37748(13)
H25 H 0.4992 0.0953 0.3154
H26 H 0.4810 0.0234 0.3737
C24 C 0.46359(17) 0.11251(11) 0.45658(14)
H27 H 0.4827 0.0890 0.5186
H28 H 0.3747 0.1147 0.4439
H29 H 0.4972 0.1608 0.4587
C25 C 0.88052(15) -0.03492(9) 0.38104(12)
H30 H 0.9698 -0.0421 0.3787
H31 H 0.8665 -0.0111 0.4428
C26 C 0.82001(16) -0.10737(9) 0.38172(12)
H32 H 0.8336 -0.1328 0.3210
H33 H 0.7308 -0.1018 0.3869
C27 C 0.87467(17) -0.14995(9) 0.46742(12)
H34 H 0.9648 -0.1505 0.4654
H35 H 0.8544 -0.1261 0.5279
C28 C 0.82790(19) -0.22587(10) 0.46804(14)
H36 H 0.7389 -0.2256 0.4720
H37 H 0.8658 -0.2511 0.5238
H38 H 0.8488 -0.2499 0.4087
loop_
_geom_bond_atom_site_label_1
_geom_bond_atom_site_label_2
_geom_bond_site_symmetry_1
_geom_bond_site_symmetry_2
Fe1 O1 1_555 1_555
O1 H1 1_555 1_555
H2 O1 1_555 1_555
C1 C2 1_555 1_555
C2 C3 1_555 1_555
C3 C1 1_555 1_555
C4 C1 1_555 1_555
C5 C4 1_555 1_555
N1 Fe1 1_555 1_555
C6 C4 1_555 1_555
N2 C6 1_555 1_555
C7 C2 1_555 1_555
C8 C7 1_555 1_555
N3 C8 1_555 1_555
C9 C7 1_555 1_555
N4 C9 1_555 1_555
C10 C3 1_555 1_555
C11 C10 1_555 1_555
N5 C11 1_555 1_555
C12 C10 1_555 1_555
N6 C12 1_555 1_555
N7 C13 1_555 1_555
C13 H3 1_555 1_555
H4 C13 1_555 1_555
C14 C13 1_555 1_555
H5 C14 1_555 1_555
H6 C14 1_555 1_555
C15 C14 1_555 1_555
H7 C15 1_555 1_555
H8 C15 1_555 1_555
C16 C15 1_555 1_555
H9 C16 1_555 1_555
H10 C16 1_555 1_555
H11 C16 1_555 1_555
C17 N7 1_555 1_555
H12 C17 1_555 1_555
H13 C17 1_555 1_555
C18 C17 1_555 1_555
H14 C18 1_555 1_555
H15 C18 1_555 1_555
C19 C18 1_555 1_555
H16 C19 1_555 1_555
H17 C19 1_555 1_555
C20 C19 1_555 1_555
H18 C20 1_555 1_555
H19 C20 1_555 1_555
H20 C20 1_555 1_555
C21 N7 1_555 1_555
H21 C21 1_555 1_555
H22 C21 1_555 1_555
C22 C21 1_555 1_555
H23 C22 1_555 1_555
H24 C22 1_555 1_555
C23 C22 1_555 1_555
H25 C23 1_555 1_555
H26 C23 1_555 1_555
C24 C23 1_555 1_555
H27 C24 1_555 1_555
H28 C24 1_555 1_555
H29 C24 1_555 1_555
C25 N7 1_555 1_555
H30 C25 1_555 1_555
H31 C25 1_555 1_555
C26 C25 1_555 1_555
H32 C26 1_555 1_555
H33 C26 1_555 1_555
C27 C26 1_555 1_555
H34 C27 1_555 1_555
H35 C27 1_555 1_555
C28 C27 1_555 1_555
H36 C28 1_555 1_555
H37 C28 1_555 1_555
H38 C28 1_555 1_555
Fe1A N3 1_555 1_555
Fe1A_2 N3B 1_555 1_555
O1B Fe1 1_555 1_555
H1B O1B 1_555 1_555
H2B O1B 1_555 1_555
C1B C2B 1_555 1_555
C2B C3B 1_555 1_555
C3B C1B 1_555 1_555
C4B C1B 1_555 1_555
C5B C4B 1_555 1_555
N1B Fe1 1_555 1_555
C6B C4B 1_555 1_555
N2B C6B 1_555 1_555
C7B C2B 1_555 1_555
C8B C7B 1_555 1_555
N3B C8B 1_555 1_555
N3A Fe1 1_555 1_555
N3C Fe1 1_555 1_555
C9B C7B 1_555 1_555
N4B C9B 1_555 1_555
C10B C3B 1_555 1_555
C11B C10B 1_555 1_555
N5B C11B 1_555 1_555
C12B C10B 1_555 1_555
N6B C12B 1_555 1_555
C5 N1 1_555 1_555
C5B N1B 1_555 1_555

#END
