
#######################################################################
#
#                 Cambridge Crystallographic Data Centre
#                                CCDC 
#
#######################################################################
#
# If this CIF has been generated from an entry in the Cambridge 
# Structural Database, then it will include bibliographic, chemical, 
# crystal, experimental, refinement or atomic coordinate data resulting 
# from the CCDC's data processing and validation procedures.
#
#######################################################################

data_UCOQIO
_symmetry_cell_setting           monoclinic
_symmetry_space_group_name_H-M   'P 21/c'
_symmetry_Int_Tables_number      14
_space_group_name_Hall           '-P 2ybc'
loop_
_symmetry_equiv_pos_site_id
_symmetry_equiv_pos_as_xyz
1 x,y,z
2 -x,1/2+y,1/2-z
3 -x,-y,-z
4 x,1/2-y,1/2+z
_cell_length_a                   10.9297(3)
_cell_length_b                   18.9720(11)
_cell_length_c                   13.9619(8)
_cell_angle_alpha                90
_cell_angle_beta                 93.571(3)
_cell_angle_gamma                90
_cell_volume                     2889.49
loop_
_atom_site_label
_atom_site_type_symbol
_atom_site_fract_x
_atom_site_fract_y
_atom_site_fract_z
Mn1 Mn 0.0000 0.5000 0.0000
O1 O -0.17162(12) 0.55968(8) 0.00684(11)
H1 H -0.186(2) 0.5768(13) 0.0616(11)
H2 H -0.181(2) 0.5948(9) -0.0314(14)
C1 C 0.09730(16) 0.76776(10) 0.13843(14)
C2 C 0.09019(16) 0.82878(10) 0.19170(13)
C3 C 0.00873(16) 0.77424(10) 0.20465(13)
C4 C 0.15174(16) 0.72712(10) 0.06829(14)
C5 C 0.12110(16) 0.65535(11) 0.05876(13)
N1 N 0.09786(14) 0.59588(9) 0.05455(12)
C6 C 0.24021(18) 0.75661(10) 0.01014(14)
N2 N 0.31099(17) 0.78226(10) -0.03653(13)
C7 C 0.13041(16) 0.89731(10) 0.21509(13)
C8 C 0.07827(16) 0.93368(10) 0.29093(14)
N3 N 0.03353(14) 0.96176(9) 0.35295(12)
C9 C 0.22314(17) 0.93101(11) 0.16444(14)
N4 N 0.29675(15) 0.95802(10) 0.12184(12)
C10 C -0.09335(17) 0.74819(10) 0.24845(14)
C11 C -0.14950(17) 0.68405(11) 0.21670(14)
N5 N -0.19227(15) 0.63210(9) 0.18797(13)
C12 C -0.14826(17) 0.79128(11) 0.31678(15)
N6 N -0.18830(15) 0.82936(10) 0.37058(13)
Mn1A Mn 0.0000 1.0000 0.5000
Mn1A_2 Mn 0.0000 0.0000 -0.5000
O1B O 0.17162(12) 0.44032(8) -0.00684(11)
H1B H 0.186(2) 0.4232(13) -0.0616(11)
H2B H 0.181(2) 0.4052(9) 0.0314(14)
C1B C -0.09730(16) 0.23224(10) -0.13843(14)
C2B C -0.09019(16) 0.17122(10) -0.19170(13)
C3B C -0.00873(16) 0.22576(10) -0.20465(13)
C4B C -0.15174(16) 0.27288(10) -0.06829(14)
C5B C -0.12110(16) 0.34465(11) -0.05876(13)
N1B N -0.09786(14) 0.40412(9) -0.05455(12)
C6B C -0.24021(18) 0.24339(10) -0.01014(14)
N2B N -0.31099(17) 0.21774(10) 0.03653(13)
C7B C -0.13041(16) 0.10269(10) -0.21509(13)
C8B C -0.07827(16) 0.06632(10) -0.29093(14)
N3B N -0.03353(14) 0.03824(9) -0.35295(12)
N3A N -0.03353(14) 0.46176(9) 0.14705(12)
N3C N 0.03353(14) 0.53824(9) -0.14705(12)
C9B C -0.22314(17) 0.06899(11) -0.16444(14)
N4B N -0.29675(15) 0.04198(10) -0.12184(12)
C10B C 0.09335(17) 0.25181(10) -0.24845(14)
C11B C 0.14950(17) 0.31595(11) -0.21670(14)
N5B N 0.19227(15) 0.36790(9) -0.18797(13)
C12B C 0.14826(17) 0.20872(11) -0.31678(15)
N6B N 0.18830(15) 0.17064(10) -0.37058(13)
N7 N 0.33869(13) 0.51474(8) 0.29962(11)
C13 C 0.35807(16) 0.48294(10) 0.20138(13)
H3 H 0.3109 0.4384 0.1954
H4 H 0.3230 0.5157 0.1517
C14 C 0.48986(17) 0.46740(11) 0.17968(14)
H5 H 0.5315 0.4415 0.2340
H6 H 0.5345 0.5121 0.1709
C15 C 0.49090(17) 0.42303(11) 0.08836(14)
H7 H 0.4478 0.3780 0.0985
H8 H 0.4457 0.4484 0.0352
C16 C 0.62063(18) 0.40738(12) 0.05991(15)
H9 H 0.6633 0.4518 0.0488
H10 H 0.6168 0.3791 0.0010
H11 H 0.6651 0.3812 0.1116
C17 C 0.41309(17) 0.58154(10) 0.31656(14)
H12 H 0.4027 0.5975 0.3831
H13 H 0.5007 0.5696 0.3121
C18 C 0.38326(18) 0.64287(11) 0.24984(14)
H14 H 0.2999 0.6607 0.2598
H15 H 0.3855 0.6273 0.1823
C19 C 0.47722(18) 0.70134(11) 0.27052(15)
H16 H 0.4897 0.7078 0.3408
H17 H 0.5565 0.6869 0.2461
C20 C 0.4381(2) 0.77099(12) 0.22493(17)
H18 H 0.4272 0.7652 0.1552
H19 H 0.5013 0.8066 0.2402
H20 H 0.3606 0.7861 0.2500
C21 C 0.20171(15) 0.52906(11) 0.29971(14)
H21 H 0.1785 0.5604 0.2449
H22 H 0.1579 0.4839 0.2884
C22 C 0.15651(16) 0.56216(11) 0.38973(14)
H23 H 0.1782 0.5317 0.4459
H24 H 0.1958 0.6087 0.4010
C23 C 0.01904(17) 0.57074(12) 0.37734(15)
H25 H -0.0015 0.5945 0.3153
H26 H -0.0189 0.5234 0.3741
C24 C -0.03692(19) 0.61219(13) 0.45590(16)
H27 H -0.0163 0.5896 0.5179
H28 H -0.1262 0.6135 0.4439
H29 H -0.0046 0.6604 0.4568
C25 C 0.37995(16) 0.46515(10) 0.38071(14)
H30 H 0.3655 0.4888 0.4422
H31 H 0.4695 0.4581 0.3787
C26 C 0.31945(17) 0.39296(11) 0.38123(14)
H32 H 0.3330 0.3679 0.3206
H33 H 0.2300 0.3983 0.3865
C27 C 0.37443(18) 0.35068(11) 0.46618(14)
H34 H 0.4647 0.3495 0.4635
H35 H 0.3553 0.3746 0.5265
C28 C 0.3262(2) 0.27565(11) 0.46741(16)
H36 H 0.2372 0.2764 0.4725
H37 H 0.3650 0.2504 0.5225
H38 H 0.3453 0.2517 0.4080
loop_
_geom_bond_atom_site_label_1
_geom_bond_atom_site_label_2
_geom_bond_site_symmetry_1
_geom_bond_site_symmetry_2
Mn1 O1 1_555 1_555
O1 H1 1_555 1_555
H2 O1 1_555 1_555
C1 C2 1_555 1_555
C2 C3 1_555 1_555
C3 C1 1_555 1_555
C4 C1 1_555 1_555
C5 C4 1_555 1_555
N1 Mn1 1_555 1_555
C6 C4 1_555 1_555
N2 C6 1_555 1_555
C7 C2 1_555 1_555
C8 C7 1_555 1_555
N3 C8 1_555 1_555
C9 C7 1_555 1_555
N4 C9 1_555 1_555
C10 C3 1_555 1_555
C11 C10 1_555 1_555
N5 C11 1_555 1_555
C12 C10 1_555 1_555
N6 C12 1_555 1_555
N7 C13 1_555 1_555
C13 H3 1_555 1_555
H4 C13 1_555 1_555
C14 C13 1_555 1_555
H5 C14 1_555 1_555
H6 C14 1_555 1_555
C15 C14 1_555 1_555
H7 C15 1_555 1_555
H8 C15 1_555 1_555
C16 C15 1_555 1_555
H9 C16 1_555 1_555
H10 C16 1_555 1_555
H11 C16 1_555 1_555
C17 N7 1_555 1_555
H12 C17 1_555 1_555
H13 C17 1_555 1_555
C18 C17 1_555 1_555
H14 C18 1_555 1_555
H15 C18 1_555 1_555
C19 C18 1_555 1_555
H16 C19 1_555 1_555
H17 C19 1_555 1_555
C20 C19 1_555 1_555
H18 C20 1_555 1_555
H19 C20 1_555 1_555
H20 C20 1_555 1_555
C21 N7 1_555 1_555
H21 C21 1_555 1_555
H22 C21 1_555 1_555
C22 C21 1_555 1_555
H23 C22 1_555 1_555
H24 C22 1_555 1_555
C23 C22 1_555 1_555
H25 C23 1_555 1_555
H26 C23 1_555 1_555
C24 C23 1_555 1_555
H27 C24 1_555 1_555
H28 C24 1_555 1_555
H29 C24 1_555 1_555
C25 N7 1_555 1_555
H30 C25 1_555 1_555
H31 C25 1_555 1_555
C26 C25 1_555 1_555
H32 C26 1_555 1_555
H33 C26 1_555 1_555
C27 C26 1_555 1_555
H34 C27 1_555 1_555
H35 C27 1_555 1_555
C28 C27 1_555 1_555
H36 C28 1_555 1_555
H37 C28 1_555 1_555
H38 C28 1_555 1_555
Mn1A N3 1_555 1_555
Mn1A_2 N3B 1_555 1_555
O1B Mn1 1_555 1_555
H1B O1B 1_555 1_555
H2B O1B 1_555 1_555
C1B C2B 1_555 1_555
C2B C3B 1_555 1_555
C3B C1B 1_555 1_555
C4B C1B 1_555 1_555
C5B C4B 1_555 1_555
N1B Mn1 1_555 1_555
C6B C4B 1_555 1_555
N2B C6B 1_555 1_555
C7B C2B 1_555 1_555
C8B C7B 1_555 1_555
N3B C8B 1_555 1_555
N3A Mn1 1_555 1_555
N3C Mn1 1_555 1_555
C9B C7B 1_555 1_555
N4B C9B 1_555 1_555
C10B C3B 1_555 1_555
C11B C10B 1_555 1_555
N5B C11B 1_555 1_555
C12B C10B 1_555 1_555
N6B C12B 1_555 1_555
C5 N1 1_555 1_555
C5B N1B 1_555 1_555

#END
