
#######################################################################
#
#                 Cambridge Crystallographic Data Centre
#                                CCDC 
#
#######################################################################
#
# If this CIF has been generated from an entry in the Cambridge 
# Structural Database, then it will include bibliographic, chemical, 
# crystal, experimental, refinement or atomic coordinate data resulting 
# from the CCDC's data processing and validation procedures.
#
#######################################################################

data_UCOQAG
_symmetry_cell_setting           monoclinic
_symmetry_space_group_name_H-M   'P 21/c'
_symmetry_Int_Tables_number      14
_space_group_name_Hall           '-P 2ybc'
loop_
_symmetry_equiv_pos_site_id
_symmetry_equiv_pos_as_xyz
1 x,y,z
2 -x,1/2+y,1/2-z
3 -x,-y,-z
4 x,1/2-y,1/2+z
_cell_length_a                   10.9634(2)
_cell_length_b                   18.7609(5)
_cell_length_c                   13.8621(3)
_cell_angle_alpha                90
_cell_angle_beta                 93.516(1)
_cell_angle_gamma                90
_cell_volume                     2845.84
loop_
_atom_site_label
_atom_site_type_symbol
_atom_site_fract_x
_atom_site_fract_y
_atom_site_fract_z
Co1 Co 0.0000 0.5000 0.0000
O1 O -0.16592(19) 0.55530(11) 0.00532(14)
H1 H -0.185(3) 0.5714(19) 0.0604(14)
H2 H -0.173(3) 0.5923(12) -0.031(2)
C1 C 0.0929(3) 0.76611(16) 0.14005(18)
C2 C 0.0857(3) 0.82742(16) 0.19427(18)
C3 C 0.0043(3) 0.77248(15) 0.20640(19)
C4 C 0.1465(3) 0.72475(15) 0.06870(19)
C5 C 0.1145(3) 0.65279(18) 0.05760(18)
N1 N 0.0894(2) 0.59253(13) 0.05187(15)
C6 C 0.2345(3) 0.75478(15) 0.0101(2)
N2 N 0.3057(3) 0.78041(14) -0.03717(19)
C7 C 0.1268(3) 0.89660(15) 0.21877(18)
C8 C 0.0754(3) 0.93379(15) 0.2958(2)
N3 N 0.0320(2) 0.96253(13) 0.35889(16)
C9 C 0.2196(3) 0.93086(16) 0.1679(2)
N4 N 0.2942(2) 0.95755(14) 0.12524(17)
C10 C -0.0978(3) 0.74657(15) 0.24952(19)
C11 C -0.1536(3) 0.68225(17) 0.21732(19)
N5 N -0.1965(2) 0.62923(14) 0.18777(17)
C12 C -0.1515(3) 0.79043(16) 0.3187(2)
N6 N -0.1891(2) 0.82969(14) 0.37328(17)
Co1A Co 0.0000 1.0000 0.5000
Co1A_2 Co 0.0000 0.0000 0.5000
O1B O 0.16592(19) 0.44470(11) -0.00532(14)
H1B H 0.185(3) 0.4286(19) -0.0604(14)
H2B H 0.173(3) 0.4077(12) 0.031(2)
C1A C -0.0929(3) 0.26611(16) 0.35995(18)
C2A C -0.0857(3) 0.32742(16) 0.30573(18)
C3A C -0.0043(3) 0.27248(15) 0.29360(19)
C4A C -0.1465(3) 0.22475(15) 0.43130(19)
C5A C -0.1145(3) 0.15279(18) 0.44240(18)
N1A N -0.0894(2) 0.09253(13) 0.44813(15)
N1B N -0.0894(2) 0.40747(13) -0.05187(15)
C6A C -0.2345(3) 0.25478(15) 0.4899(2)
N2A N -0.3057(3) 0.28041(14) 0.53717(19)
C7A C -0.1268(3) 0.39660(15) 0.28123(18)
C8A C -0.0754(3) 0.43379(15) 0.2042(2)
N3A N -0.0320(2) 0.46253(13) 0.14111(16)
N3C N 0.0320(2) 0.53747(13) -0.14111(16)
C9A C -0.2196(3) 0.43086(16) 0.3321(2)
N4A N -0.2942(2) 0.45755(14) 0.37476(17)
C10A C 0.0978(3) 0.24657(15) 0.25048(19)
C11A C 0.1536(3) 0.18225(17) 0.28268(19)
N5A N 0.1965(2) 0.12923(14) 0.31223(17)
C12A C 0.1515(3) 0.29043(16) 0.1813(2)
N6A N 0.1891(2) 0.32969(14) 0.12672(17)
N7 N 0.3387(2) 0.51497(12) 0.29944(15)
C13 C 0.3585(3) 0.48326(16) 0.20091(18)
H3 H 0.3217 0.5159 0.1511
H4 H 0.3132 0.4377 0.1952
C14 C 0.4898(3) 0.46921(16) 0.17783(19)
H5 H 0.5335 0.4448 0.2330
H6 H 0.5318 0.5150 0.1669
C15 C 0.4921(3) 0.42272(16) 0.08735(19)
H7 H 0.4505 0.3770 0.0992
H8 H 0.4461 0.4470 0.0331
C16 C 0.6216(3) 0.40748(17) 0.0586(2)
H9 H 0.6635 0.4526 0.0473
H10 H 0.6181 0.3789 -0.0007
H11 H 0.6663 0.3812 0.1106
C17 C 0.4115(3) 0.58315(15) 0.31603(19)
H12 H 0.4010 0.5992 0.3830
H13 H 0.4990 0.5715 0.3115
C18 C 0.3812(3) 0.64484(16) 0.24936(19)
H14 H 0.2977 0.6623 0.2595
H15 H 0.3836 0.6291 0.1813
C19 C 0.4732(3) 0.70462(16) 0.2696(2)
H16 H 0.4852 0.7115 0.3404
H17 H 0.5527 0.6904 0.2453
C20 C 0.4335(3) 0.77455(17) 0.2232(2)
H18 H 0.4251 0.7687 0.1528
H19 H 0.4949 0.8112 0.2397
H20 H 0.3548 0.7890 0.2468
C21 C 0.2020(3) 0.52862(15) 0.29941(19)
H21 H 0.1786 0.5604 0.2443
H22 H 0.1592 0.4827 0.2876
C22 C 0.1556(3) 0.56149(17) 0.39031(19)
H23 H 0.1762 0.5302 0.4465
H24 H 0.1952 0.6083 0.4027
C23 C 0.0186(3) 0.57080(18) 0.3773(2)
H25 H -0.0010 0.5954 0.3151
H26 H -0.0198 0.5231 0.3731
C24 C -0.0371(3) 0.61227(18) 0.4568(2)
H27 H -0.0165 0.5892 0.5190
H28 H -0.1261 0.6136 0.4448
H29 H -0.0050 0.6610 0.4580
C25 C 0.3807(3) 0.46483(15) 0.38065(19)
H30 H 0.4699 0.4579 0.3780
H31 H 0.3668 0.4887 0.4428
C26 C 0.3212(3) 0.39220(16) 0.38167(19)
H32 H 0.3348 0.3667 0.3207
H33 H 0.2320 0.3974 0.3871
C27 C 0.3765(3) 0.34968(16) 0.46750(19)
H34 H 0.4666 0.3493 0.4652
H35 H 0.3563 0.3735 0.5282
C28 C 0.3302(3) 0.27359(17) 0.4680(2)
H36 H 0.2411 0.2737 0.4713
H37 H 0.3676 0.2484 0.5243
H38 H 0.3519 0.2494 0.4088
loop_
_geom_bond_atom_site_label_1
_geom_bond_atom_site_label_2
_geom_bond_site_symmetry_1
_geom_bond_site_symmetry_2
Co1 O1 1_555 1_555
O1 H1 1_555 1_555
H2 O1 1_555 1_555
C1 C2 1_555 1_555
C2 C3 1_555 1_555
C3 C1 1_555 1_555
C4 C1 1_555 1_555
C5 C4 1_555 1_555
N1 Co1 1_555 1_555
C6 C4 1_555 1_555
N2 C6 1_555 1_555
C7 C2 1_555 1_555
C8 C7 1_555 1_555
N3 C8 1_555 1_555
C9 C7 1_555 1_555
N4 C9 1_555 1_555
C10 C3 1_555 1_555
C11 C10 1_555 1_555
N5 C11 1_555 1_555
C12 C10 1_555 1_555
N6 C12 1_555 1_555
N7 C13 1_555 1_555
C13 H3 1_555 1_555
H4 C13 1_555 1_555
C14 C13 1_555 1_555
H5 C14 1_555 1_555
H6 C14 1_555 1_555
C15 C14 1_555 1_555
H7 C15 1_555 1_555
H8 C15 1_555 1_555
C16 C15 1_555 1_555
H9 C16 1_555 1_555
H10 C16 1_555 1_555
H11 C16 1_555 1_555
C17 N7 1_555 1_555
H12 C17 1_555 1_555
H13 C17 1_555 1_555
C18 C17 1_555 1_555
H14 C18 1_555 1_555
H15 C18 1_555 1_555
C19 C18 1_555 1_555
H16 C19 1_555 1_555
H17 C19 1_555 1_555
C20 C19 1_555 1_555
H18 C20 1_555 1_555
H19 C20 1_555 1_555
H20 C20 1_555 1_555
C21 N7 1_555 1_555
H21 C21 1_555 1_555
H22 C21 1_555 1_555
C22 C21 1_555 1_555
H23 C22 1_555 1_555
H24 C22 1_555 1_555
C23 C22 1_555 1_555
H25 C23 1_555 1_555
H26 C23 1_555 1_555
C24 C23 1_555 1_555
H27 C24 1_555 1_555
H28 C24 1_555 1_555
H29 C24 1_555 1_555
C25 N7 1_555 1_555
H30 C25 1_555 1_555
H31 C25 1_555 1_555
C26 C25 1_555 1_555
H32 C26 1_555 1_555
H33 C26 1_555 1_555
C27 C26 1_555 1_555
H34 C27 1_555 1_555
H35 C27 1_555 1_555
C28 C27 1_555 1_555
H36 C28 1_555 1_555
H37 C28 1_555 1_555
H38 C28 1_555 1_555
Co1A N3 1_555 1_555
Co1A_2 N1A 1_555 1_555
O1B Co1 1_555 1_555
H1B O1B 1_555 1_555
H2B O1B 1_555 1_555
C1A C2A 1_555 1_555
C2A C3A 1_555 1_555
C3A C1A 1_555 1_555
C4A C1A 1_555 1_555
C5A C4A 1_555 1_555
N1A C5A 1_555 1_555
N1B Co1 1_555 1_555
C6A C4A 1_555 1_555
N2A C6A 1_555 1_555
C7A C2A 1_555 1_555
C8A C7A 1_555 1_555
N3A Co1 1_555 1_555
N3C Co1 1_555 1_555
C9A C7A 1_555 1_555
N4A C9A 1_555 1_555
C10A C3A 1_555 1_555
C11A C10A 1_555 1_555
N5A C11A 1_555 1_555
C12A C10A 1_555 1_555
N6A C12A 1_555 1_555
C5 N1 1_555 1_555
C8A N3A 1_555 1_555

#END
