
#######################################################################
#
#                 Cambridge Crystallographic Data Centre
#                                CCDC 
#
#######################################################################
#
# If this CIF has been generated from an entry in the Cambridge 
# Structural Database, then it will include bibliographic, chemical, 
# crystal, experimental, refinement or atomic coordinate data resulting 
# from the CCDC's data processing and validation procedures.
#
#######################################################################

data_UCORAH
_symmetry_cell_setting           triclinic
_symmetry_space_group_name_H-M   'P -1'
_symmetry_Int_Tables_number      2
_space_group_name_Hall           '-P 1'
loop_
_symmetry_equiv_pos_site_id
_symmetry_equiv_pos_as_xyz
1 x,y,z
2 -x,-y,-z
_cell_length_a                   7.7992(4)
_cell_length_b                   8.8762(5)
_cell_length_c                   12.4565(6)
_cell_angle_alpha                87.501(2)
_cell_angle_beta                 81.428(2)
_cell_angle_gamma                85.617(2)
_cell_volume                     849.749
loop_
_atom_site_label
_atom_site_type_symbol
_atom_site_fract_x
_atom_site_fract_y
_atom_site_fract_z
Zn1 Zn 0.0000 0.5000 0.5000
O1 O 0.04364(17) 0.52073(16) 0.65955(10)
C1 C -0.0245(2) 0.6380(2) 0.73192(14)
H1 H -0.0230 0.7356 0.6920
H2 H 0.0469 0.6394 0.7902
H3 H -0.1443 0.6197 0.7633
Zn2 Zn 0.0000 0.0000 1.0000
O2 O 0.17116(16) 0.15017(15) 1.04336(10)
C2 C 0.3201(3) 0.2019(4) 0.97418(18)
H4 H 0.3959 0.1147 0.9464
H5 H 0.3840 0.2639 1.0156
H6 H 0.2824 0.2625 0.9132
O3 O 0.18180(17) -0.18206(15) 1.02710(10)
C3 C 0.1548(4) -0.3074(3) 1.10150(19)
H7 H 0.1370 -0.2720 1.1760
H8 H 0.2568 -0.3798 1.0913
H9 H 0.0519 -0.3568 1.0884
C4 C 0.27609(19) -0.08326(17) 0.57057(12)
C5 C 0.37094(19) -0.14423(17) 0.47733(12)
C6 C 0.39312(19) -0.20676(17) 0.57914(12)
C7 C 0.15694(19) 0.02480(17) 0.62542(12)
C8 C 0.08426(19) 0.15158(18) 0.57208(12)
N1 N 0.02520(17) 0.25774(16) 0.53055(11)
C9 C 0.12635(19) 0.01855(17) 0.74012(13)
N2 N 0.10342(19) 0.01287(16) 0.83345(11)
C10 C 0.42272(19) -0.14784(18) 0.36514(12)
C11 C 0.55409(19) -0.25805(18) 0.32381(12)
N3 N 0.66324(18) -0.34740(16) 0.29374(11)
C12 C 0.3498(2) -0.04444(18) 0.29199(13)
N4 N 0.2918(2) 0.03938(19) 0.23142(12)
C13 C 0.47690(19) -0.31278(18) 0.64380(12)
C14 C 0.4287(2) -0.31502(19) 0.75785(13)
N5 N 0.3828(2) -0.3131(2) 0.84995(13)
C15 C 0.61405(19) -0.41140(18) 0.59657(12)
N6 N 0.72872(17) -0.48933(16) 0.55636(11)
H10 H 0.137(2) 0.479(3) 0.677(2)
H11 H 0.248(3) -0.216(3) 0.9716(15)
H12 H 0.199(3) 0.119(3) 1.1045(12)
Zn1_2 Zn 1.0000 -0.5000 0.5000
Zn1_3 Zn -1.0000 1.5000 0.5000
O1A O -0.04364(17) 0.47927(16) 0.34045(10)
C1A C 0.0245(2) 0.3620(2) 0.26808(14)
H1A H 0.0230 0.2644 0.3080
H2A H -0.0469 0.3606 0.2098
H3A H 0.1443 0.3803 0.2367
Zn2_2 Zn 0.0000 1.0000 0.0000
O2A O -0.17116(16) -0.15017(15) 0.95664(10)
C2A C -0.3201(3) -0.2019(4) 1.02582(18)
H4A H -0.3959 -0.1147 1.0536
H5A H -0.3840 -0.2639 0.9844
H6A H -0.2824 -0.2625 1.0868
O3A O -0.18180(17) 0.18206(15) 0.97290(10)
C3A C -0.1548(4) 0.3074(3) 0.89850(19)
H7A H -0.1370 0.2720 0.8240
H8A H -0.2568 0.3798 0.9087
H9A H -0.0519 0.3568 0.9116
C4A C -0.27609(19) 1.08326(17) 0.42943(12)
C5A C -0.37094(19) 1.14423(17) 0.52267(12)
C6A C -0.39312(19) 1.20676(17) 0.42086(12)
C7A C -0.15694(19) 0.97520(17) 0.37458(12)
C8A C -0.08426(19) 0.84842(18) 0.42792(12)
N1A N -0.02520(17) 0.74226(16) 0.46945(11)
C9A C -0.12635(19) 0.98145(17) 0.25988(13)
N2A N -0.10342(19) 0.98713(16) 0.16655(11)
N2A_2 N -0.10342(19) -0.01287(16) 1.16655(11)
C10A C -0.42272(19) 1.14784(18) 0.63486(12)
C11A C -0.55409(19) 1.25805(18) 0.67619(12)
N3A N -0.66324(18) 1.34740(16) 0.70626(11)
C12A C -0.3498(2) 1.04444(18) 0.70801(13)
N4A N -0.2918(2) 0.96062(19) 0.76858(12)
C13A C -0.47690(19) 1.31278(18) 0.35620(12)
C14A C -0.4287(2) 1.31502(19) 0.24215(13)
N5A N -0.3828(2) 1.3131(2) 0.15005(13)
C15A C -0.61405(19) 1.41140(18) 0.40343(12)
N6A N 0.27128(17) 0.48933(16) 0.44364(11)
N6A_2 N -0.72872(17) 1.48933(16) 0.44364(11)
N6_2 N -0.27128(17) 0.51067(16) 0.55636(11)
H10A H -0.137(2) 0.521(3) 0.323(2)
H11A H -0.248(3) 0.216(3) 1.0284(15)
H12A H -0.199(3) -0.119(3) 0.8955(12)
loop_
_geom_bond_atom_site_label_1
_geom_bond_atom_site_label_2
_geom_bond_site_symmetry_1
_geom_bond_site_symmetry_2
Zn1 O1 1_555 1_555
O1 C1 1_555 1_555
C1 H1 1_555 1_555
H2 C1 1_555 1_555
H3 C1 1_555 1_555
Zn2 O2 1_555 1_555
O2 C2 1_555 1_555
C2 H4 1_555 1_555
H5 C2 1_555 1_555
H6 C2 1_555 1_555
O3 Zn2 1_555 1_555
C3 O3 1_555 1_555
H7 C3 1_555 1_555
H8 C3 1_555 1_555
H9 C3 1_555 1_555
C4 C5 1_555 1_555
C5 C6 1_555 1_555
C6 C4 1_555 1_555
C7 C4 1_555 1_555
C8 C7 1_555 1_555
N1 Zn1 1_555 1_555
C9 C7 1_555 1_555
N2 Zn2 1_555 1_555
C10 C5 1_555 1_555
C11 C10 1_555 1_555
N3 C11 1_555 1_555
C12 C10 1_555 1_555
N4 C12 1_555 1_555
C13 C6 1_555 1_555
C14 C13 1_555 1_555
N5 C14 1_555 1_555
C15 C13 1_555 1_555
N6 C15 1_555 1_555
H10 O1 1_555 1_555
H11 O3 1_555 1_555
H12 O2 1_555 1_555
Zn1_2 N6 1_555 1_555
Zn1_3 N6A_2 1_555 1_555
O1A Zn1 1_555 1_555
C1A O1A 1_555 1_555
H1A C1A 1_555 1_555
H2A C1A 1_555 1_555
H3A C1A 1_555 1_555
Zn2_2 N2A 1_555 1_555
O2A Zn2 1_555 1_555
C2A O2A 1_555 1_555
H4A C2A 1_555 1_555
H5A C2A 1_555 1_555
H6A C2A 1_555 1_555
O3A Zn2 1_555 1_555
C3A O3A 1_555 1_555
H7A C3A 1_555 1_555
H8A C3A 1_555 1_555
H9A C3A 1_555 1_555
C4A C5A 1_555 1_555
C5A C6A 1_555 1_555
C6A C4A 1_555 1_555
C7A C4A 1_555 1_555
C8A C7A 1_555 1_555
N1A Zn1 1_555 1_555
C9A C7A 1_555 1_555
N2A C9A 1_555 1_555
N2A_2 Zn2 1_555 1_555
C10A C5A 1_555 1_555
C11A C10A 1_555 1_555
N3A C11A 1_555 1_555
C12A C10A 1_555 1_555
N4A C12A 1_555 1_555
C13A C6A 1_555 1_555
C14A C13A 1_555 1_555
N5A C14A 1_555 1_555
C15A C13A 1_555 1_555
N6A Zn1 1_555 1_555
N6A_2 C15A 1_555 1_555
N6_2 Zn1 1_555 1_555
H10A O1A 1_555 1_555
H11A O3A 1_555 1_555
H12A O2A 1_555 1_555
C8 N1 1_555 1_555
C9 N2 1_555 1_555
C8A N1A 1_555 1_555

#END
