
#######################################################################
#
#                 Cambridge Crystallographic Data Centre
#                                CCDC 
#
#######################################################################
#
# If this CIF has been generated from an entry in the Cambridge 
# Structural Database, then it will include bibliographic, chemical, 
# crystal, experimental, refinement or atomic coordinate data resulting 
# from the CCDC's data processing and validation procedures.
#
#######################################################################

data_UCOXIT
_symmetry_cell_setting           triclinic
_symmetry_space_group_name_H-M   'P -1'
_symmetry_Int_Tables_number      2
_space_group_name_Hall           '-P 1'
loop_
_symmetry_equiv_pos_site_id
_symmetry_equiv_pos_as_xyz
1 x,y,z
2 -x,-y,-z
_cell_length_a                   11.1593(8)
_cell_length_b                   11.5796(9)
_cell_length_c                   19.8628(15)
_cell_angle_alpha                90.487(2)
_cell_angle_beta                 98.530(2)
_cell_angle_gamma                101.598(2)
_cell_volume                     2484.51
loop_
_atom_site_label
_atom_site_type_symbol
_atom_site_fract_x
_atom_site_fract_y
_atom_site_fract_z
Cu1 Cu 0.12571(5) 0.33248(5) 0.25937(3)
Cu2 Cu 0.14623(5) -0.17285(5) 0.30117(3)
O1 O 0.1145(3) 0.1976(3) 0.33060(18)
O2 O 0.0584(4) 0.0214(3) 0.27692(18)
O3 O 0.0011(3) -0.2872(3) 0.31850(18)
O4 O -0.1723(4) -0.3131(4) 0.3641(3)
O5 O 0.2986(3) -0.0638(3) 0.28610(17)
O6 O 0.4950(4) -0.0573(4) 0.2757(2)
O7 O 0.1796(3) -0.5508(3) 0.33742(16)
O8 O 0.1946(3) -0.4016(3) 0.26687(17)
N1 N 0.0846(4) 0.2930(3) 0.1583(2)
N2 N -0.0885(4) 0.1959(3) -0.1981(2)
N3 N 0.3064(3) 0.3306(4) 0.2534(2)
N4 N 0.9438(3) 0.3343(3) 0.2603(2)
N5 N 0.2879(3) -0.2364(3) 0.37483(19)
N6 N 0.1113(3) -0.0930(3) 0.39624(19)
C1 C 0.0910(7) 0.3815(5) 0.1159(3)
H1 H 0.1156 0.4583 0.1342
C2 C 0.0633(7) 0.3650(5) 0.0470(3)
H2 H 0.0727 0.4294 0.0192
C3 C 0.0208(5) 0.2513(4) 0.0182(2)
C4 C 0.0139(6) 0.1609(5) 0.0620(3)
C5 C 0.0478(6) 0.1834(5) 0.1308(3)
H3 H 0.0451 0.1202 0.1595
C6 C -0.0029(6) 0.2872(5) -0.1706(3)
C7 C 0.0358(6) 0.3079(5) -0.1023(3)
H4 H 0.0971 0.3733 -0.0864
C8 C -0.0163(5) 0.2314(5) -0.0572(3)
C9 C -0.1053(6) 0.1357(5) -0.0849(3)
H5 H -0.1428 0.0812 -0.0564
C10 C -0.1386(6) 0.1203(5) -0.1536(3)
C11 C 0.3870(5) 0.4276(5) 0.2448(3)
C12 C 0.5108(6) 0.4309(6) 0.2449(4)
C13 C 0.5579(4) 0.3310(4) 0.2540(2)
C14 C 0.4716(5) 0.2282(5) 0.2612(3)
C15 C 0.3500(4) 0.2317(4) 0.2601(3)
H6 H 0.2947 0.1614 0.2642
C16 C 0.9033(5) 0.4316(5) 0.2719(3)
C17 C 0.7805(5) 0.4343(5) 0.2701(3)
C18 C 0.6906(4) 0.3314(4) 0.2557(3)
C19 C 0.7332(5) 0.2294(5) 0.2451(3)
C20 C 0.8591(4) 0.2353(4) 0.2481(3)
H7 H 0.8858 0.1656 0.2411
C21 C 0.1808(5) -0.1448(4) 0.4551(2)
C22 C 0.3048(5) -0.1585(4) 0.4377(2)
C23 C 0.3841(5) -0.2011(5) 0.4992(3)
H8 H 0.3460 -0.2811 0.5086
H9 H 0.4656 -0.2021 0.4880
C24 C 0.3973(6) -0.1214(6) 0.5629(3)
H10 H 0.4481 -0.1498 0.6005
H11 H 0.4373 -0.0416 0.5543
C25 C 0.2695(7) -0.1219(6) 0.5811(3)
C26 C 0.1931(7) -0.0753(5) 0.5230(3)
C27 C 0.1444(5) 0.0361(4) 0.3955(3)
C28 C 0.1005(4) 0.0872(4) 0.3281(3)
C29 C -0.0246(5) -0.1347(4) 0.3936(3)
C30 C -0.0681(5) -0.2543(4) 0.3569(3)
C31 C 0.3977(5) -0.2076(5) 0.3412(3)
C32 C 0.3971(5) -0.1028(4) 0.2980(3)
C33 C 0.2554(5) -0.3629(4) 0.3878(3)
C34 C 0.2056(4) -0.4413(4) 0.3242(2)
H12 H -0.001(6) 0.080(6) 0.041(3)
H13 H 0.024(4) 0.331(4) -0.196(3)
H14 H -0.208(7) 0.048(7) -0.177(4)
H15 H 0.344(5) 0.491(5) 0.234(3)
H16 H 0.559(6) 0.483(6) 0.241(3)
H17 H 0.487(4) 0.170(4) 0.265(2)
H18 H 0.963(5) 0.493(4) 0.286(2)
H19 H 0.750(5) 0.510(5) 0.273(3)
H20 H 0.678(5) 0.150(5) 0.234(3)
H21 H 0.139(4) -0.224(4) 0.458(2)
H22 H 0.344(4) -0.080(4) 0.428(2)
H23 H 0.257(7) -0.065(6) 0.614(4)
H24 H 0.221(5) -0.201(6) 0.587(3)
H25 H 0.121(6) -0.083(5) 0.534(3)
H26 H 0.246(5) 0.002(5) 0.529(3)
H27 H 0.120(6) 0.062(6) 0.433(4)
H28 H 0.238(4) 0.062(4) 0.401(2)
H29 H -0.049(4) -0.145(4) 0.444(2)
H30 H -0.070(6) -0.076(5) 0.357(3)
H31 H 0.464(5) -0.195(4) 0.365(2)
H32 H 0.393(4) -0.268(4) 0.313(2)
H33 H 0.197(5) -0.374(4) 0.420(3)
H34 H 0.309(5) -0.388(5) 0.410(3)
O7_2 O 0.1796(3) 0.4492(3) 0.33742(16)
N4_2 N -0.0562(3) 0.3343(3) 0.2603(2)
N2A N 0.0885(4) -0.1959(3) 0.1981(2)
Cu1_2 Cu 0.12571(5) -0.66752(5) 0.25937(3)
Cu2A Cu -0.14623(5) 0.17285(5) -0.30117(3)
Cu1_3 Cu 1.12571(5) 0.33248(5) 0.25937(3)
O9 O 0.3527(6) 0.3084(7) 0.4287(3)
O10 O 0.8372(5) 0.9382(6) 0.1898(3)
O11 O 0.8358(7) 0.4778(6) 0.4475(4)
O12 O 0.6638(7) 0.7440(8) 0.4409(4)
O13 O 0.0285(7) 0.3413(7) 0.4490(3)
O14 O 0.5671(9) 0.4787(8) 0.4230(5)
O15 O 0.4657(10) 0.0072(10) 0.1380(4)
O16 O 0.6682(7) 0.8082(10) 0.2690(6)
O17 O 0.3081(16) 0.6586(14) 0.1431(10)
O18 O 0.7659(16) 0.9475(14) 0.0513(8)
O19 O 0.3365(19) 0.1786(19) 0.0743(10)
O20 O 0.380(2) 0.423(3) 0.0539(14)
O21 O 0.546(3) 1.173(2) -0.0611(12)
O22 O 0.597(3) 0.674(2) 0.1453(14)
O23 O 0.677(2) 1.138(2) 0.0650(14)
O24 O 0.654(3) 0.517(2) 0.0773(14)
loop_
_geom_bond_atom_site_label_1
_geom_bond_atom_site_label_2
_geom_bond_site_symmetry_1
_geom_bond_site_symmetry_2
Cu1 O1 1_555 1_555
Cu2 O3 1_555 1_555
O1 C28 1_555 1_555
O2 C28 1_555 1_555
O3 C30 1_555 1_555
O4 C30 1_555 1_555
O5 Cu2 1_555 1_555
O6 C32 1_555 1_555
O7 C34 1_555 1_555
O8 C34 1_555 1_555
N1 Cu1 1_555 1_555
N2 C6 1_555 1_555
N3 Cu1 1_555 1_555
N4 C16 1_555 1_555
N5 Cu2 1_555 1_555
N6 Cu2 1_555 1_555
C1 N1 1_555 1_555
H1 C1 1_555 1_555
C2 C1 1_555 1_555
H2 C2 1_555 1_555
C3 C2 1_555 1_555
C4 C3 1_555 1_555
C5 N1 1_555 1_555
H3 C5 1_555 1_555
C6 C7 1_555 1_555
C7 H4 1_555 1_555
C8 C3 1_555 1_555
C9 C8 1_555 1_555
H5 C9 1_555 1_555
C10 N2 1_555 1_555
C11 N3 1_555 1_555
C12 C11 1_555 1_555
C13 C12 1_555 1_555
C14 C13 1_555 1_555
C15 N3 1_555 1_555
H6 C15 1_555 1_555
C16 C17 1_555 1_555
C17 C18 1_555 1_555
C18 C13 1_555 1_555
C19 C18 1_555 1_555
C20 N4 1_555 1_555
H7 C20 1_555 1_555
C21 N6 1_555 1_555
C22 N5 1_555 1_555
C23 C22 1_555 1_555
H8 C23 1_555 1_555
H9 C23 1_555 1_555
C24 C23 1_555 1_555
H10 C24 1_555 1_555
H11 C24 1_555 1_555
C25 C24 1_555 1_555
C26 C21 1_555 1_555
C27 N6 1_555 1_555
C28 C27 1_555 1_555
C29 N6 1_555 1_555
C30 C29 1_555 1_555
C31 N5 1_555 1_555
C32 O5 1_555 1_555
C33 N5 1_555 1_555
C34 C33 1_555 1_555
H12 C4 1_555 1_555
H13 C6 1_555 1_555
H14 C10 1_555 1_555
H15 C11 1_555 1_555
H16 C12 1_555 1_555
H17 C14 1_555 1_555
H18 C16 1_555 1_555
H19 C17 1_555 1_555
H20 C19 1_555 1_555
H21 C21 1_555 1_555
H22 C22 1_555 1_555
H23 C25 1_555 1_555
H24 C25 1_555 1_555
H25 C26 1_555 1_555
H26 C26 1_555 1_555
H27 C27 1_555 1_555
H28 C27 1_555 1_555
H29 C29 1_555 1_555
H30 C29 1_555 1_555
H31 C31 1_555 1_555
H32 C31 1_555 1_555
H33 C33 1_555 1_555
H34 C33 1_555 1_555
O7_2 Cu1 1_555 1_555
N4_2 Cu1 1_555 1_555
N2A Cu2 1_555 1_555
Cu1_2 O7 1_555 1_555
Cu2A N2 1_555 1_555
Cu1_3 N4 1_555 1_555
C4 C5 1_555 1_555
C7 C8 1_555 1_555
C9 C10 1_555 1_555
C14 C15 1_555 1_555
C19 C20 1_555 1_555
C21 C22 1_555 1_555
C25 C26 1_555 1_555
C31 C32 1_555 1_555

#END
