
#######################################################################
#
#                 Cambridge Crystallographic Data Centre
#                                CCDC 
#
#######################################################################
#
# If this CIF has been generated from an entry in the Cambridge 
# Structural Database, then it will include bibliographic, chemical, 
# crystal, experimental, refinement or atomic coordinate data resulting 
# from the CCDC's data processing and validation procedures.
#
#######################################################################

data_UCOYOA01
_symmetry_cell_setting           monoclinic
_symmetry_space_group_name_H-M   'C 2/c'
_symmetry_Int_Tables_number      15
_space_group_name_Hall           '-C 2yn'
loop_
_symmetry_equiv_pos_site_id
_symmetry_equiv_pos_as_xyz
1 x,y,z
2 -x,y,1/2-z
3 1/2+x,1/2+y,z
4 1/2-x,1/2+y,1/2-z
5 -x,-y,-z
6 x,-y,1/2+z
7 1/2-x,1/2-y,-z
8 1/2+x,1/2-y,1/2+z
_cell_length_a                   13.878(4)
_cell_length_b                   11.029(3)
_cell_length_c                   8.761(2)
_cell_angle_alpha                90
_cell_angle_beta                 94.037(4)
_cell_angle_gamma                90
_cell_volume                     1337.64
loop_
_atom_site_label
_atom_site_type_symbol
_atom_site_fract_x
_atom_site_fract_y
_atom_site_fract_z
Co1 Co 1.0000 0.15079(3) 0.7500
O1 O 0.91702(10) 0.00972(13) 0.84248(14)
O2 O 0.92171(9) -0.11763(14) 1.03950(14)
N1 N 0.90791(12) 0.28215(15) 0.84738(19)
N2 N 0.77424(16) 0.2523(3) 0.6803(2)
C1 C 0.94599(19) 0.3384(3) 0.9736(3)
C2 C 0.8965(2) 0.4144(3) 1.0624(4)
C3 C 0.80005(19) 0.4376(2) 1.0183(3)
C4 C 0.75985(17) 0.3849(3) 0.8911(3)
C5 C 0.81463(14) 0.3052(2) 0.8060(2)
C6 C 0.95325(12) -0.03094(17) 0.96540(19)
H1 H 1.013(3) 0.332(3) 0.997(4)
H2 H 0.927(2) 0.451(3) 1.145(4)
H3 H 0.764(2) 0.492(3) 1.072(3)
H4 H 0.698(2) 0.395(3) 0.858(3)
H5 H 0.714(2) 0.261(3) 0.659(3)
H6 H 0.801(2) 0.205(3) 0.636(3)
Co1D Co 1.0000 -0.15079(3) 1.2500
O1D O 1.08298(10) -0.00972(13) 1.15752(14)
O1A O 1.08298(10) 0.00972(13) 0.65752(14)
O2D O 1.07829(9) 0.11763(14) 0.96050(14)
O2E O 0.92171(9) 0.11763(14) 0.53950(14)
N1A N 1.09209(12) 0.28215(15) 0.65262(19)
N2A N 1.22576(16) 0.2523(3) 0.8197(2)
C1A C 1.05401(19) 0.3384(3) 0.5264(3)
C2A C 1.1035(2) 0.4144(3) 0.4376(4)
C3A C 1.19995(19) 0.4376(2) 0.4817(3)
C4A C 1.24015(17) 0.3849(3) 0.6089(3)
C5A C 1.18537(14) 0.3052(2) 0.6940(2)
C6D C 1.04675(12) 0.03094(17) 1.03460(19)
H1A H 0.987(3) 0.332(3) 0.503(4)
H2A H 1.073(2) 0.451(3) 0.355(4)
H3A H 1.236(2) 0.492(3) 0.428(3)
H4A H 1.302(2) 0.395(3) 0.642(3)
H5A H 1.286(2) 0.261(3) 0.841(3)
H6A H 1.199(2) 0.205(3) 0.864(3)
loop_
_geom_bond_atom_site_label_1
_geom_bond_atom_site_label_2
_geom_bond_site_symmetry_1
_geom_bond_site_symmetry_2
Co1 O1 1_555 1_555
O1 C6 1_555 1_555
O2 C6 1_555 1_555
N1 Co1 1_555 1_555
N2 C5 1_555 1_555
C1 N1 1_555 1_555
C2 C1 1_555 1_555
C3 C2 1_555 1_555
C4 C3 1_555 1_555
C5 N1 1_555 1_555
C6 C6D 1_555 1_555
H1 C1 1_555 1_555
H2 C2 1_555 1_555
H3 C3 1_555 1_555
H4 C4 1_555 1_555
H5 N2 1_555 1_555
H6 N2 1_555 1_555
Co1D O2 1_555 1_555
O1D Co1D 1_555 1_555
O1A Co1 1_555 1_555
O2D Co1 1_555 1_555
O2E Co1 1_555 1_555
N1A Co1 1_555 1_555
N2A C5A 1_555 1_555
C1A N1A 1_555 1_555
C2A C1A 1_555 1_555
C3A C2A 1_555 1_555
C4A C3A 1_555 1_555
C5A N1A 1_555 1_555
C6D O1D 1_555 1_555
H1A C1A 1_555 1_555
H2A C2A 1_555 1_555
H3A C3A 1_555 1_555
H4A C4A 1_555 1_555
H5A N2A 1_555 1_555
H6A N2A 1_555 1_555
C4 C5 1_555 1_555
O2D C6D 1_555 1_555
C4A C5A 1_555 1_555

#END
