
#######################################################################
#
#                 Cambridge Crystallographic Data Centre
#                                CCDC 
#
#######################################################################
#
# If this CIF has been generated from an entry in the Cambridge 
# Structural Database, then it will include bibliographic, chemical, 
# crystal, experimental, refinement or atomic coordinate data resulting 
# from the CCDC's data processing and validation procedures.
#
#######################################################################

data_UCOYUG01
_symmetry_cell_setting           monoclinic
_symmetry_space_group_name_H-M   'C 2/c'
_symmetry_Int_Tables_number      15
_space_group_name_Hall           '-C 2yn'
loop_
_symmetry_equiv_pos_site_id
_symmetry_equiv_pos_as_xyz
1 x,y,z
2 -x,y,1/2-z
3 1/2+x,1/2+y,z
4 1/2-x,1/2+y,1/2-z
5 -x,-y,-z
6 x,-y,1/2+z
7 1/2-x,1/2-y,-z
8 1/2+x,1/2-y,1/2+z
_cell_length_a                   13.4876(14)
_cell_length_b                   11.2653(12)
_cell_length_c                   8.7010(9)
_cell_angle_alpha                90
_cell_angle_beta                 93.755(2)
_cell_angle_gamma                90
_cell_volume                     1319.21
loop_
_atom_site_label
_atom_site_type_symbol
_atom_site_fract_x
_atom_site_fract_y
_atom_site_fract_z
Cu1 Cu 0.5000 0.65891(3) 0.2500
N1 N 0.58587(13) 0.78179(17) 0.1510(2)
C1 C 0.54864(14) 0.47584(19) 0.0434(2)
C2 C 0.68101(16) 0.8067(2) 0.1954(3)
C3 C 0.5474(2) 0.8343(2) 0.0212(4)
H1 H 0.4818 0.8178 -0.0109
C4 C 0.5988(2) 0.9097(3) -0.0652(4)
H2 H 0.5689 0.9432 -0.1543
C5 C 0.73693(17) 0.8862(2) 0.1117(3)
H3 H 0.8018 0.9045 0.1463
C6 C 0.6967(2) 0.9361(2) -0.0186(3)
H4 H 0.7337 0.9873 -0.0761
O1 O 0.58070(10) 0.53059(13) 0.16186(16)
O2 O 0.58767(11) 0.38683(14) -0.01098(17)
N2 N 0.72181(16) 0.7551(2) 0.3230(2)
H5 H 0.6873 0.7072 0.3748
H6 H 0.7825 0.7700 0.3531
C1D C 0.45136(14) 0.52416(19) -0.0434(2)
O1D O 0.41930(10) 0.46941(13) -0.16186(16)
O2D O 0.41233(11) 0.61317(14) 0.01098(17)
N1A N 0.41413(13) 0.78179(17) 0.3490(2)
C2A C 0.31899(16) 0.8067(2) 0.3046(3)
C3A C 0.4526(2) 0.8343(2) 0.4788(4)
H1A H 0.5182 0.8178 0.5109
C4A C 0.4012(2) 0.9097(3) 0.5652(4)
H2A H 0.4311 0.9432 0.6543
C5A C 0.26307(17) 0.8862(2) 0.3883(3)
H3A H 0.1982 0.9045 0.3537
C6A C 0.3033(2) 0.9361(2) 0.5186(3)
H4A H 0.2663 0.9873 0.5761
N2A N 0.27819(16) 0.7551(2) 0.1770(2)
H5A H 0.3127 0.7072 0.1252
H6A H 0.2175 0.7700 0.1469
Cu1D Cu 0.5000 0.34109(3) -0.2500
O1A O 0.41930(10) 0.53059(13) 0.33814(16)
O2E O 0.58767(11) 0.61317(14) 0.48902(17)
loop_
_geom_bond_atom_site_label_1
_geom_bond_atom_site_label_2
_geom_bond_site_symmetry_1
_geom_bond_site_symmetry_2
Cu1 N1 1_555 1_555
N1 C2 1_555 1_555
C1 O1 1_555 1_555
C2 C5 1_555 1_555
C3 N1 1_555 1_555
H1 C3 1_555 1_555
C4 C3 1_555 1_555
H2 C4 1_555 1_555
C5 H3 1_555 1_555
C6 C4 1_555 1_555
H4 C6 1_555 1_555
O1 Cu1 1_555 1_555
O2 C1 1_555 1_555
N2 C2 1_555 1_555
H5 N2 1_555 1_555
H6 N2 1_555 1_555
C1D C1 1_555 1_555
O1D C1D 1_555 1_555
O2D Cu1 1_555 1_555
N1A Cu1 1_555 1_555
C2A N1A 1_555 1_555
C3A N1A 1_555 1_555
H1A C3A 1_555 1_555
C4A C3A 1_555 1_555
H2A C4A 1_555 1_555
C5A C2A 1_555 1_555
H3A C5A 1_555 1_555
C6A C4A 1_555 1_555
H4A C6A 1_555 1_555
N2A C2A 1_555 1_555
H5A N2A 1_555 1_555
H6A N2A 1_555 1_555
Cu1D O2 1_555 1_555
O1A Cu1 1_555 1_555
O2E Cu1 1_555 1_555
C5 C6 1_555 1_555
C1D O2D 1_555 1_555
O1D Cu1D 1_555 1_555
C5A C6A 1_555 1_555

#END
