
#######################################################################
#
#                 Cambridge Crystallographic Data Centre
#                                CCDC 
#
#######################################################################
#
# If this CIF has been generated from an entry in the Cambridge 
# Structural Database, then it will include bibliographic, chemical, 
# crystal, experimental, refinement or atomic coordinate data resulting 
# from the CCDC's data processing and validation procedures.
#
#######################################################################

data_UCOYUG
_symmetry_cell_setting           monoclinic
_symmetry_space_group_name_H-M   'C 2/c'
_symmetry_Int_Tables_number      15
_space_group_name_Hall           '-C 2yn'
loop_
_symmetry_equiv_pos_site_id
_symmetry_equiv_pos_as_xyz
1 x,y,z
2 1/2+x,1/2+y,z
3 -x,y,1/2-z
4 1/2-x,1/2+y,1/2-z
5 -x,-y,-z
6 1/2-x,1/2-y,-z
7 x,-y,1/2+z
8 1/2+x,1/2-y,1/2+z
_cell_length_a                   13.472(2)
_cell_length_b                   11.246(2)
_cell_length_c                   8.694(2)
_cell_angle_alpha                90
_cell_angle_beta                 93.75(1)
_cell_angle_gamma                90
_cell_volume                     1314.37
loop_
_atom_site_label
_atom_site_type_symbol
_atom_site_fract_x
_atom_site_fract_y
_atom_site_fract_z
Cu1 Cu 0.0000 0.15902(2) 0.2500
O1 O 0.08070(8) 0.03063(11) 0.16208(13)
O2 O 0.08790(9) -0.11331(11) -0.01109(14)
C1 C 0.04848(10) -0.02407(14) 0.0432(2)
N1 N 0.08601(10) 0.28189(13) 0.1509(2)
C2 C 0.18099(12) 0.3066(2) 0.1951(2)
C3 C 0.23740(14) 0.3867(2) 0.1118(2)
C4 C 0.1969(2) 0.4364(2) -0.0191(3)
C5 C 0.0991(2) 0.4104(3) -0.0662(3)
C6 C 0.0471(2) 0.3345(2) 0.0211(3)
N2 N 0.22169(15) 0.2557(2) 0.3234(2)
H1 H 0.303(2) 0.400(2) 0.138(3)
H2 H 0.2322(19) 0.488(2) -0.074(3)
H3 H 0.071(3) 0.443(3) -0.148(4)
H4 H -0.007(2) 0.320(3) 0.010(4)
H5 H 0.202(2) 0.205(3) 0.357(3)
H6 H 0.281(2) 0.272(3) 0.350(3)
C1D C -0.04848(10) 0.02407(14) -0.0432(2)
O1D O -0.08070(8) -0.03063(11) -0.16208(13)
O2D O -0.08790(9) 0.11331(11) 0.01109(14)
N1B N -0.08601(10) 0.28189(13) 0.3491(2)
C2B C -0.18099(12) 0.3066(2) 0.3049(2)
C3B C -0.23740(14) 0.3867(2) 0.3882(2)
C4B C -0.1969(2) 0.4364(2) 0.5191(3)
C5B C -0.0991(2) 0.4104(3) 0.5662(3)
C6B C -0.0471(2) 0.3345(2) 0.4789(3)
N2B N -0.22169(15) 0.2557(2) 0.1766(2)
H1B H -0.303(2) 0.400(2) 0.362(3)
H2B H -0.2322(19) 0.488(2) 0.574(3)
H3B H -0.071(3) 0.443(3) 0.648(4)
H4B H 0.007(2) 0.320(3) 0.490(4)
H5B H -0.202(2) 0.205(3) 0.143(3)
H6B H -0.281(2) 0.272(3) 0.150(3)
O1B O -0.08070(8) 0.03063(11) 0.33792(13)
O2F O 0.08790(9) 0.11331(11) 0.48891(14)
Cu1F Cu 0.0000 -0.15902(2) -0.2500
loop_
_geom_bond_atom_site_label_1
_geom_bond_atom_site_label_2
_geom_bond_site_symmetry_1
_geom_bond_site_symmetry_2
Cu1 O1 1_555 1_555
O1 C1 1_555 1_555
O2 C1 1_555 1_555
C1 C1D 1_555 1_555
N1 Cu1 1_555 1_555
C2 N1 1_555 1_555
C3 C2 1_555 1_555
C4 C3 1_555 1_555
C5 C4 1_555 1_555
C6 N1 1_555 1_555
N2 C2 1_555 1_555
H1 C3 1_555 1_555
H2 C4 1_555 1_555
H3 C5 1_555 1_555
H4 C6 1_555 1_555
H5 N2 1_555 1_555
H6 N2 1_555 1_555
C1D O1D 1_555 1_555
O1D Cu1F 1_555 1_555
O2D Cu1 1_555 1_555
N1B Cu1 1_555 1_555
C2B N1B 1_555 1_555
C3B C2B 1_555 1_555
C4B C3B 1_555 1_555
C5B C4B 1_555 1_555
C6B N1B 1_555 1_555
N2B C2B 1_555 1_555
H1B C3B 1_555 1_555
H2B C4B 1_555 1_555
H3B C5B 1_555 1_555
H4B C6B 1_555 1_555
H5B N2B 1_555 1_555
H6B N2B 1_555 1_555
O1B Cu1 1_555 1_555
O2F Cu1 1_555 1_555
Cu1F O2 1_555 1_555
C5 C6 1_555 1_555
C1D O2D 1_555 1_555
C5B C6B 1_555 1_555

#END
