
#######################################################################
#
#                 Cambridge Crystallographic Data Centre
#                                CCDC 
#
#######################################################################
#
# If this CIF has been generated from an entry in the Cambridge 
# Structural Database, then it will include bibliographic, chemical, 
# crystal, experimental, refinement or atomic coordinate data resulting 
# from the CCDC's data processing and validation procedures.
#
#######################################################################

data_UCOZER
_symmetry_cell_setting           orthorhombic
_symmetry_space_group_name_H-M   'P c n n'
_symmetry_Int_Tables_number      52
_space_group_name_Hall           '-P 2ab 2c'
loop_
_symmetry_equiv_pos_site_id
_symmetry_equiv_pos_as_xyz
1 x,y,z
2 -x,y,1/2+z
3 1/2+x,1/2-y,1/2+z
4 1/2+x,1/2+y,-z
5 -x,-y,-z
6 x,-y,1/2-z
7 1/2-x,1/2+y,1/2-z
8 1/2-x,1/2-y,z
_cell_length_a                   12.387(1)
_cell_length_b                   12.935(3)
_cell_length_c                   18.632(2)
_cell_angle_alpha                90
_cell_angle_beta                 90
_cell_angle_gamma                90
_cell_volume                     2985.33
loop_
_atom_site_label
_atom_site_type_symbol
_atom_site_fract_x
_atom_site_fract_y
_atom_site_fract_z
Cu1 Cu 0.03473(4) 0.17960(3) 0.07365(2)
O1 O 0.0905(3) 0.0323(2) 0.06809(15)
O2 O 0.0706(2) -0.1161(2) 0.0085(2)
C1 C 0.0466(3) -0.0245(3) 0.0220(2)
O3 O 0.1675(3) 0.2197(3) 0.1398(2)
O4 O 0.1640(4) 0.2208(3) -0.0032(2)
C2 C 0.25000 0.25000 0.1081(3)
C3 C 0.25000 0.25000 0.0255(3)
N1 N -0.0271(3) 0.3255(3) 0.0672(2)
C4 C 0.0049(4) 0.3976(3) 0.1132(2)
C5 C -0.0361(4) 0.4990(4) 0.1122(3)
C6 C -0.1130(4) 0.5226(3) 0.0615(3)
C7 C -0.1461(4) 0.4472(4) 0.0145(3)
C8 C -0.1034(4) 0.3486(4) 0.0181(3)
N2 N 0.0007(5) 0.5697(4) 0.1618(3)
N3 N -0.0647(3) 0.1477(3) 0.1636(2)
C9 C -0.0267(3) 0.1630(3) 0.2295(2)
C10 C -0.0907(3) 0.1606(3) 0.2907(2)
C11 C -0.1987(4) 0.1368(4) 0.2814(3)
C12 C -0.2380(4) 0.1196(5) 0.2135(3)
C13 C -0.1695(4) 0.1267(4) 0.1556(3)
N4 N -0.0475(4) 0.1885(4) 0.3562(2)
H1 H 0.0639 0.3806 0.1477
H2 H -0.1557 0.5926 0.0521
H3 H -0.1951 0.4618 -0.0161
H4 H -0.1322 0.295 -0.0151
H5 H -0.0099 0.6293 0.1519
H6 H 0.0685 0.5555 0.1795
H7 H 0.055 0.1842 0.2386
H8 H -0.2462 0.1346 0.3192
H9 H -0.313 0.1089 0.2038
H10 H -0.1925 0.1131 0.1002
H11 H 0.0302 0.1774 0.3596
H12 H -0.0857 0.1725 0.3849
C1D C -0.0466(3) 0.0245(3) -0.0220(2)
O1D O -0.0905(3) -0.0323(2) -0.06809(15)
O2D O -0.0706(2) 0.1161(2) -0.0085(2)
O3G O 0.3325(3) 0.2803(3) 0.1398(2)
O4G O 0.3360(4) 0.2792(3) -0.0032(2)
Cu1D Cu -0.03473(4) -0.17960(3) -0.07365(2)
N1D N 0.0271(3) -0.3255(3) -0.0672(2)
C4D C -0.0049(4) -0.3976(3) -0.1132(2)
C5D C 0.0361(4) -0.4990(4) -0.1122(3)
C6D C 0.1130(4) -0.5226(3) -0.0615(3)
C7D C 0.1461(4) -0.4472(4) -0.0145(3)
C8D C 0.1034(4) -0.3486(4) -0.0181(3)
N2D N -0.0007(5) -0.5697(4) -0.1618(3)
H1D H -0.0639 -0.3806 -0.1477
H2D H 0.1557 -0.5926 -0.0521
H3D H 0.1951 -0.4618 0.0161
H4D H 0.1322 -0.295 0.0151
H5D H 0.0099 -0.6293 -0.1519
H6D H -0.0685 -0.5555 -0.1795
N3D N 0.0647(3) -0.1477(3) -0.1636(2)
C9D C 0.0267(3) -0.1630(3) -0.2295(2)
C10D C 0.0907(3) -0.1606(3) -0.2907(2)
C11D C 0.1987(4) -0.1368(4) -0.2814(3)
C12D C 0.2380(4) -0.1196(5) -0.2135(3)
C13D C 0.1695(4) -0.1267(4) -0.1556(3)
N4D N 0.0475(4) -0.1885(4) -0.3562(2)
H7D H -0.055 -0.1842 -0.2386
H8D H 0.2462 -0.1346 -0.3192
H9D H 0.313 -0.1089 -0.2038
H10D H 0.1925 -0.1131 -0.1002
H11D H -0.0302 -0.1774 -0.3596
H12D H 0.0857 -0.1725 -0.3849
Cu1G Cu 0.46527(4) 0.32040(3) 0.07365(2)
O3D O -0.1675(3) -0.2197(3) -0.1398(2)
O4D O -0.1640(4) -0.2208(3) 0.0032(2)
O5 O 0.2354(5) 0.0399(5) 0.3197(3)
O6 O 0.25000 0.25000 0.2975(5)
loop_
_geom_bond_atom_site_label_1
_geom_bond_atom_site_label_2
_geom_bond_site_symmetry_1
_geom_bond_site_symmetry_2
Cu1 O1 1_555 1_555
O1 C1 1_555 1_555
O2 C1 1_555 1_555
C1 C1D 1_555 1_555
O3 Cu1 1_555 1_555
O4 Cu1 1_555 1_555
C2 O3 1_555 1_555
C3 O4 1_555 1_555
N1 Cu1 1_555 1_555
C4 N1 1_555 1_555
C5 C4 1_555 1_555
C6 C5 1_555 1_555
C7 C6 1_555 1_555
C8 N1 1_555 1_555
N2 C5 1_555 1_555
N3 Cu1 1_555 1_555
C9 N3 1_555 1_555
C10 C9 1_555 1_555
C11 C10 1_555 1_555
C12 C11 1_555 1_555
C13 N3 1_555 1_555
N4 C10 1_555 1_555
H1 C4 1_555 1_555
H2 C6 1_555 1_555
H3 C7 1_555 1_555
H4 C8 1_555 1_555
H5 N2 1_555 1_555
H6 N2 1_555 1_555
H7 C9 1_555 1_555
H8 C11 1_555 1_555
H9 C12 1_555 1_555
H10 C13 1_555 1_555
H11 N4 1_555 1_555
H12 N4 1_555 1_555
C1D O1D 1_555 1_555
O1D Cu1D 1_555 1_555
O2D Cu1 1_555 1_555
O3G C2 1_555 1_555
O4G C3 1_555 1_555
Cu1D O2 1_555 1_555
N1D Cu1D 1_555 1_555
C4D N1D 1_555 1_555
C5D C4D 1_555 1_555
C6D C5D 1_555 1_555
C7D C6D 1_555 1_555
C8D N1D 1_555 1_555
N2D C5D 1_555 1_555
H1D C4D 1_555 1_555
H2D C6D 1_555 1_555
H3D C7D 1_555 1_555
H4D C8D 1_555 1_555
H5D N2D 1_555 1_555
H6D N2D 1_555 1_555
N3D Cu1D 1_555 1_555
C9D N3D 1_555 1_555
C10D C9D 1_555 1_555
C11D C10D 1_555 1_555
C12D C11D 1_555 1_555
C13D N3D 1_555 1_555
N4D C10D 1_555 1_555
H7D C9D 1_555 1_555
H8D C11D 1_555 1_555
H9D C12D 1_555 1_555
H10D C13D 1_555 1_555
H11D N4D 1_555 1_555
H12D N4D 1_555 1_555
Cu1G O3G 1_555 1_555
O3D Cu1D 1_555 1_555
O4D Cu1D 1_555 1_555
C2 C3 1_555 1_555
C7 C8 1_555 1_555
C12 C13 1_555 1_555
C1D O2D 1_555 1_555
O4G Cu1G 1_555 1_555
C7D C8D 1_555 1_555
C12D C13D 1_555 1_555

#END
