
#######################################################################
#
#                 Cambridge Crystallographic Data Centre
#                                CCDC 
#
#######################################################################
#
# If this CIF has been generated from an entry in the Cambridge 
# Structural Database, then it will include bibliographic, chemical, 
# crystal, experimental, refinement or atomic coordinate data resulting 
# from the CCDC's data processing and validation procedures.
#
#######################################################################

data_UCOZAN
_symmetry_cell_setting           orthorhombic
_symmetry_space_group_name_H-M   'P c n n'
_symmetry_Int_Tables_number      52
_space_group_name_Hall           '-P 2ab 2c'
loop_
_symmetry_equiv_pos_site_id
_symmetry_equiv_pos_as_xyz
1 x,y,z
2 -x,y,1/2+z
3 1/2+x,1/2-y,1/2+z
4 1/2+x,1/2+y,-z
5 -x,-y,-z
6 x,-y,1/2-z
7 1/2-x,1/2+y,1/2-z
8 1/2-x,1/2-y,z
_cell_length_a                   12.318(3)
_cell_length_b                   13.014(2)
_cell_length_c                   18.675(2)
_cell_angle_alpha                90
_cell_angle_beta                 90
_cell_angle_gamma                90
_cell_volume                     2993.72
loop_
_atom_site_label
_atom_site_type_symbol
_atom_site_fract_x
_atom_site_fract_y
_atom_site_fract_z
Co1 Co 0.03895(9) 0.17881(8) 0.07388(6)
O1 O 0.0945(4) 0.0246(4) 0.0672(3)
O2 O 0.0620(4) -0.1204(4) 0.0053(3)
O3 O 0.1660(5) 0.2189(4) 0.1420(3)
O4 O 0.1654(5) 0.2184(4) -0.0018(3)
C1 C 0.0477(7) -0.0267(6) 0.0200(4)
C2 C 0.25000 0.25000 0.1093(7)
C3 C 0.25000 0.25000 0.0281(6)
N1 N -0.0257(5) 0.3299(5) 0.0680(3)
C4 C 0.0064(6) 0.4028(6) 0.1130(4)
C5 C -0.0355(8) 0.5030(6) 0.1119(4)
C6 C -0.1146(7) 0.5238(7) 0.0597(5)
C7 C -0.1464(7) 0.4511(7) 0.0132(5)
C8 C -0.1003(8) 0.3519(7) 0.0194(5)
N2 N 0.0008(8) 0.5721(5) 0.1613(4)
N3 N -0.0609(6) 0.1463(5) 0.1632(4)
C9 C -0.0263(7) 0.1622(6) 0.2295(4)
C10 C -0.0892(7) 0.1590(6) 0.2897(5)
C11 C -0.2001(8) 0.1369(7) 0.2800(5)
C12 C -0.2364(8) 0.1195(8) 0.2125(5)
C13 C -0.1657(8) 0.1261(7) 0.1535(5)
N4 N -0.0497(6) 0.1829(6) 0.3559(3)
H1 H 0.0652 0.3875 0.1563
H2 H -0.1485 0.5999 0.0564
H3 H -0.2053 0.464 -0.0272
H4 H -0.1302 0.2973 -0.02
H5 H 0.0611 0.1688 0.2408
H6 H -0.2547 0.1343 0.3257
H7 H -0.3222 0.1009 0.203
H8 H -0.2038 0.1133 0.1023
H9 H -0.0208 0.6351 0.1622
H10 H 0.0513 0.5625 0.1945
H11 H 0.0193 0.1966 0.363
H12 H -0.087 0.1817 0.3943
C1D C -0.0477(7) 0.0267(6) -0.0200(4)
O1D O -0.0945(4) -0.0246(4) -0.0672(3)
O2D O -0.0620(4) 0.1204(4) -0.0053(3)
O3G O 0.3340(5) 0.2811(4) 0.1420(3)
O4G O 0.3346(5) 0.2816(4) -0.0018(3)
Co1D Co -0.03895(9) -0.17881(8) -0.07388(6)
N1D N 0.0257(5) -0.3299(5) -0.0680(3)
C4D C -0.0064(6) -0.4028(6) -0.1130(4)
C5D C 0.0355(8) -0.5030(6) -0.1119(4)
C6D C 0.1146(7) -0.5238(7) -0.0597(5)
C7D C 0.1464(7) -0.4511(7) -0.0132(5)
C8D C 0.1003(8) -0.3519(7) -0.0194(5)
N2D N -0.0008(8) -0.5721(5) -0.1613(4)
H1D H -0.0652 -0.3875 -0.1563
H2D H 0.1485 -0.5999 -0.0564
H3D H 0.2053 -0.464 0.0272
H4D H 0.1302 -0.2973 0.02
H9D H 0.0208 -0.6351 -0.1622
H10D H -0.0513 -0.5625 -0.1945
N3D N 0.0609(6) -0.1463(5) -0.1632(4)
C9D C 0.0263(7) -0.1622(6) -0.2295(4)
C10D C 0.0892(7) -0.1590(6) -0.2897(5)
C11D C 0.2001(8) -0.1369(7) -0.2800(5)
C12D C 0.2364(8) -0.1195(8) -0.2125(5)
C13D C 0.1657(8) -0.1261(7) -0.1535(5)
N4D N 0.0497(6) -0.1829(6) -0.3559(3)
H5D H -0.0611 -0.1688 -0.2408
H6D H 0.2547 -0.1343 -0.3257
H7D H 0.3222 -0.1009 -0.203
H8D H 0.2038 -0.1133 -0.1023
H11D H -0.0193 -0.1966 -0.363
H12D H 0.087 -0.1817 -0.3943
Co1G Co 0.46105(9) 0.32119(8) 0.07388(6)
O3D O -0.1660(5) -0.2189(4) -0.1420(3)
O4D O -0.1654(5) -0.2184(4) 0.0018(3)
O5 O 0.2346(8) 0.0425(6) 0.3188(4)
O6 O 0.25000 0.25000 0.2965(7)
loop_
_geom_bond_atom_site_label_1
_geom_bond_atom_site_label_2
_geom_bond_site_symmetry_1
_geom_bond_site_symmetry_2
Co1 O1 1_555 1_555
O1 C1 1_555 1_555
O2 C1 1_555 1_555
O3 Co1 1_555 1_555
O4 Co1 1_555 1_555
C1 C1D 1_555 1_555
C2 O3 1_555 1_555
C3 O4 1_555 1_555
N1 Co1 1_555 1_555
C4 N1 1_555 1_555
C5 C4 1_555 1_555
C6 C5 1_555 1_555
C7 C6 1_555 1_555
C8 N1 1_555 1_555
N2 C5 1_555 1_555
N3 Co1 1_555 1_555
C9 N3 1_555 1_555
C10 C9 1_555 1_555
C11 C10 1_555 1_555
C12 C11 1_555 1_555
C13 N3 1_555 1_555
N4 C10 1_555 1_555
H1 C4 1_555 1_555
H2 C6 1_555 1_555
H3 C7 1_555 1_555
H4 C8 1_555 1_555
H5 C9 1_555 1_555
H6 C11 1_555 1_555
H7 C12 1_555 1_555
H8 C13 1_555 1_555
H9 N2 1_555 1_555
H10 N2 1_555 1_555
H11 N4 1_555 1_555
H12 N4 1_555 1_555
C1D O1D 1_555 1_555
O1D Co1D 1_555 1_555
O2D Co1 1_555 1_555
O3G C2 1_555 1_555
O4G C3 1_555 1_555
Co1D O2 1_555 1_555
N1D Co1D 1_555 1_555
C4D N1D 1_555 1_555
C5D C4D 1_555 1_555
C6D C5D 1_555 1_555
C7D C6D 1_555 1_555
C8D N1D 1_555 1_555
N2D C5D 1_555 1_555
H1D C4D 1_555 1_555
H2D C6D 1_555 1_555
H3D C7D 1_555 1_555
H4D C8D 1_555 1_555
H9D N2D 1_555 1_555
H10D N2D 1_555 1_555
N3D Co1D 1_555 1_555
C9D N3D 1_555 1_555
C10D C9D 1_555 1_555
C11D C10D 1_555 1_555
C12D C11D 1_555 1_555
C13D N3D 1_555 1_555
N4D C10D 1_555 1_555
H5D C9D 1_555 1_555
H6D C11D 1_555 1_555
H7D C12D 1_555 1_555
H8D C13D 1_555 1_555
H11D N4D 1_555 1_555
H12D N4D 1_555 1_555
Co1G O3G 1_555 1_555
O3D Co1D 1_555 1_555
O4D Co1D 1_555 1_555
C2 C3 1_555 1_555
C7 C8 1_555 1_555
C12 C13 1_555 1_555
C1D O2D 1_555 1_555
O4G Co1G 1_555 1_555
C7D C8D 1_555 1_555
C12D C13D 1_555 1_555

#END
