
#######################################################################
#
#                 Cambridge Crystallographic Data Centre
#                                CCDC 
#
#######################################################################
#
# If this CIF has been generated from an entry in the Cambridge 
# Structural Database, then it will include bibliographic, chemical, 
# crystal, experimental, refinement or atomic coordinate data resulting 
# from the CCDC's data processing and validation procedures.
#
#######################################################################

data_UCOZUJ
_symmetry_cell_setting           rhombohedral
_symmetry_space_group_name_H-M   'R -3 c'
_symmetry_Int_Tables_number      167
_space_group_name_Hall           '-R 3 2"c'
loop_
_symmetry_equiv_pos_site_id
_symmetry_equiv_pos_as_xyz
1 x,y,z
2 -y,x-y,z
3 -x+y,-x,z
4 y,x,1/2-z
5 x-y,-y,1/2-z
6 -x,-x+y,1/2-z
7 2/3+x,1/3+y,1/3+z
8 2/3-y,1/3+x-y,1/3+z
9 2/3-x+y,1/3-x,1/3+z
10 2/3+y,1/3+x,5/6-z
11 2/3+x-y,1/3-y,5/6-z
12 2/3-x,1/3-x+y,5/6-z
13 1/3+x,2/3+y,2/3+z
14 1/3-y,2/3+x-y,2/3+z
15 1/3-x+y,2/3-x,2/3+z
16 1/3+y,2/3+x,1/6-z
17 1/3+x-y,2/3-y,1/6-z
18 1/3-x,2/3-x+y,1/6-z
19 -x,-y,-z
20 y,-x+y,-z
21 x-y,x,-z
22 -y,-x,1/2+z
23 -x+y,y,1/2+z
24 x,x-y,1/2+z
25 1/3-x,2/3-y,2/3-z
26 1/3+y,2/3-x+y,2/3-z
27 1/3+x-y,2/3+x,2/3-z
28 1/3-y,2/3-x,1/6+z
29 1/3-x+y,2/3+y,1/6+z
30 1/3+x,2/3+x-y,1/6+z
31 2/3-x,1/3-y,1/3-z
32 2/3+y,1/3-x+y,1/3-z
33 2/3+x-y,1/3+x,1/3-z
34 2/3-y,1/3-x,5/6+z
35 2/3-x+y,1/3+y,5/6+z
36 2/3+x,1/3+x-y,5/6+z
_cell_length_a                   13.9483(3)
_cell_length_b                   13.9483(3)
_cell_length_c                   75.476(3)
_cell_angle_alpha                90
_cell_angle_beta                 90
_cell_angle_gamma                120
_cell_volume                     12716.9
loop_
_atom_site_label
_atom_site_type_symbol
_atom_site_fract_x
_atom_site_fract_y
_atom_site_fract_z
Sn1 Sn 0.085794(15) 0.904082(15) 0.083821(3)
Se1 Se 0.20649(3) 1.09783(2) 0.096921(5)
Se2 Se 0.0000 1.0000 0.060849(7)
Se3 Se 0.15180(2) 0.83194(3) 0.058903(5)
Sn1B Sn -0.181712(21) 0.914206(15) 0.083821(3)
Sn1A Sn 0.095918(15) 1.181712(21) 0.083821(3)
Sn1O Sn 0.237415(15) 0.752461(15) 0.082846(3)
Sn1Q Sn 0.247539(15) 0.484955(21) 0.082846(3)
Sn1P Sn 0.515045(21) 0.762585(15) 0.082846(3)
Sn1P_2 Sn -0.484955(21) 0.762585(15) 0.082846(3)
Sn1Q_2 Sn 0.247539(15) 1.484955(21) 0.082846(3)
Se1B Se -0.10866(4) 0.79351(3) 0.096921(5)
Se1A Se -0.09783(2) 1.10866(4) 0.096921(5)
Se1O Se 0.43116(2) 0.87316(3) 0.069746(5)
Se1Q Se 0.12684(3) 0.55801(4) 0.069746(5)
Se1P Se 0.44199(4) 0.56884(2) 0.069746(5)
Se2O Se 0.3333 0.6667 0.105818(7)
Se3O Se 0.16527(3) 0.81847(2) 0.107764(5)
Se3B Se -0.31986(4) 0.84820(2) 0.058903(5)
Se3P Se -0.34681(4) 0.83473(3) 0.107764(5)
Se3A Se 0.16806(3) 1.31986(4) 0.058903(5)
Se3Q Se 0.18153(2) 1.34681(4) 0.107764(5)
Se3Q_2 Se 0.18153(2) 0.34681(4) 0.107764(5)
Se3A_2 Se 0.16806(3) 0.31986(4) 0.058903(5)
Se3P_2 Se 0.65319(4) 0.83473(3) 0.107764(5)
Se3B_2 Se 0.68014(4) 0.84820(2) 0.058903(5)
Fe1 Fe 0.0000 1.0000 0.185205(10)
N1 N 0.05263(19) 0.91647(19) 0.19945(3)
N2 N 0.12981(19) 1.03386(19) 0.17048(3)
C1 C 0.0135(2) 0.8585(2) 0.21406(4)
H1 H -0.0491 0.8546 0.2191
C2 C 0.0602(3) 0.8022(3) 0.22242(5)
H2 H 0.0292 0.7627 0.2328
C3 C 0.1523(3) 0.8058(3) 0.21522(5)
H3 H 0.1847 0.7691 0.2206
C4 C 0.1960(2) 0.8655(2) 0.19964(5)
C5 C 0.2892(2) 0.8714(3) 0.19024(5)
H4 H 0.3262 0.8376 0.1951
C6 C 0.3233(2) 0.9249(3) 0.17462(5)
H5 H 0.3808 0.9238 0.1686
C7 C 0.2730(2) 0.9835(3) 0.16714(5)
C8 C 0.3032(3) 1.0404(3) 0.15118(5)
H6 H 0.3592 1.0411 0.1444
C9 C 0.2516(3) 1.0949(3) 0.14539(5)
H7 H 0.2730 1.1344 0.1348
C10 C 0.1653(3) 1.0910(3) 0.15560(5)
H8 H 0.1317 1.1303 0.1517
C11 C 0.1841(2) 0.9814(2) 0.17623(4)
C12 C 0.1440(2) 0.9198(2) 0.19242(4)
N1A N 0.08353(19) 1.13616(27) 0.19945(3)
N1B N -0.13616(27) 0.94737(19) 0.19945(3)
N2A N -0.03386(19) 1.09595(27) 0.17048(3)
N2B N -0.09595(27) 0.87019(19) 0.17048(3)
C1A C 0.1415(2) 1.1550(3) 0.21406(4)
C1B C -0.1550(3) 0.9865(2) 0.21406(4)
H1A H 0.1454 1.0963 0.2191
H1B H -0.0963 1.0491 0.2191
C2A C 0.1978(3) 1.2580(4) 0.22242(5)
C2B C -0.2580(4) 0.9398(3) 0.22242(5)
H2A H 0.2373 1.2665 0.2328
H2B H -0.2665 0.9708 0.2328
C3A C 0.1942(3) 1.3465(4) 0.21522(5)
C3B C -0.3465(4) 0.8477(3) 0.21522(5)
H3A H 0.2309 1.4156 0.2206
H3B H -0.4156 0.8153 0.2206
C4A C 0.1345(2) 1.3305(3) 0.19964(5)
C4B C -0.3305(3) 0.8040(2) 0.19964(5)
C5A C 0.1286(3) 1.4178(4) 0.19024(5)
C5B C -0.4178(4) 0.7108(2) 0.19024(5)
H4A H 0.1624 1.4886 0.1951
H4B H -0.4886 0.6738 0.1951
C6A C 0.0751(3) 1.3984(4) 0.17462(5)
C6B C -0.3984(4) 0.6767(2) 0.17462(5)
H5A H 0.0762 1.4570 0.1686
H5B H -0.4570 0.6192 0.1686
C7A C 0.0165(3) 1.2895(4) 0.16714(5)
C7B C -0.2895(4) 0.7270(2) 0.16714(5)
C8A C -0.0404(3) 1.2628(4) 0.15118(5)
C8B C -0.2628(4) 0.6968(3) 0.15118(5)
H6A H -0.0411 1.3181 0.1444
H6B H -0.3181 0.6408 0.1444
C9A C -0.0949(3) 1.1567(4) 0.14539(5)
C9B C -0.1567(4) 0.7484(3) 0.14539(5)
H7A H -0.1344 1.1386 0.1348
H7B H -0.1386 0.7270 0.1348
C10A C -0.0910(3) 1.0743(4) 0.15560(5)
C10B C -0.0743(4) 0.8347(3) 0.15560(5)
H8A H -0.1303 1.0014 0.1517
H8B H -0.0014 0.8683 0.1517
C11A C 0.0186(2) 1.2027(3) 0.17623(4)
C11B C -0.2027(3) 0.8159(2) 0.17623(4)
C12A C 0.0802(2) 1.2242(3) 0.19242(4)
C12B C -0.2242(3) 0.8560(2) 0.19242(4)
O1 O 0.0000 1.0000 0.2500
O2 O -0.2051(5) 0.7949(5) 0.2500
loop_
_geom_bond_atom_site_label_1
_geom_bond_atom_site_label_2
_geom_bond_site_symmetry_1
_geom_bond_site_symmetry_2
Sn1 Se1 1_555 1_555
Se1 Sn1A 1_555 1_555
Se2 Sn1 1_555 1_555
Se3 Sn1 1_555 1_555
Fe1 N1 1_555 1_555
N1 C1 1_555 1_555
N2 Fe1 1_555 1_555
C1 H1 1_555 1_555
C2 C1 1_555 1_555
H2 C2 1_555 1_555
C3 C2 1_555 1_555
H3 C3 1_555 1_555
C4 C3 1_555 1_555
C5 C4 1_555 1_555
H4 C5 1_555 1_555
C6 C5 1_555 1_555
H5 C6 1_555 1_555
C7 C6 1_555 1_555
C8 C7 1_555 1_555
H6 C8 1_555 1_555
C9 C8 1_555 1_555
H7 C9 1_555 1_555
C10 N2 1_555 1_555
H8 C10 1_555 1_555
C11 N2 1_555 1_555
C12 N1 1_555 1_555
Sn1B Se2 1_555 1_555
Sn1A Se2 1_555 1_555
Sn1O Se3 1_555 1_555
Sn1Q Se1Q 1_555 1_555
Sn1P Se1O 1_555 1_555
Sn1P_2 Se3B 1_555 1_555
Sn1Q_2 Se3A 1_555 1_555
Se1B Sn1 1_555 1_555
Se1A Sn1B 1_555 1_555
Se1O Sn1O 1_555 1_555
Se1Q Sn1O 1_555 1_555
Se1P Sn1Q 1_555 1_555
Se2O Sn1O 1_555 1_555
Se3O Sn1 1_555 1_555
Se3B Sn1B 1_555 1_555
Se3P Sn1B 1_555 1_555
Se3A Sn1A 1_555 1_555
Se3Q Sn1A 1_555 1_555
Se3Q_2 Sn1Q 1_555 1_555
Se3A_2 Sn1Q 1_555 1_555
Se3P_2 Sn1P 1_555 1_555
Se3B_2 Sn1P 1_555 1_555
N1A Fe1 1_555 1_555
N1B Fe1 1_555 1_555
N2A Fe1 1_555 1_555
N2B Fe1 1_555 1_555
C1A N1A 1_555 1_555
C1B N1B 1_555 1_555
H1A C1A 1_555 1_555
H1B C1B 1_555 1_555
C2A C1A 1_555 1_555
C2B C1B 1_555 1_555
H2A C2A 1_555 1_555
H2B C2B 1_555 1_555
C3A C2A 1_555 1_555
C3B C2B 1_555 1_555
H3A C3A 1_555 1_555
H3B C3B 1_555 1_555
C4A C3A 1_555 1_555
C4B C3B 1_555 1_555
C5A C4A 1_555 1_555
C5B C4B 1_555 1_555
H4A C5A 1_555 1_555
H4B C5B 1_555 1_555
C6A C5A 1_555 1_555
C6B C5B 1_555 1_555
H5A C6A 1_555 1_555
H5B C6B 1_555 1_555
C7A C6A 1_555 1_555
C7B C6B 1_555 1_555
C8A C7A 1_555 1_555
C8B C7B 1_555 1_555
H6A C8A 1_555 1_555
H6B C8B 1_555 1_555
C9A C8A 1_555 1_555
C9B C8B 1_555 1_555
H7A C9A 1_555 1_555
H7B C9B 1_555 1_555
C10A N2A 1_555 1_555
C10B N2B 1_555 1_555
H8A C10A 1_555 1_555
H8B C10B 1_555 1_555
C11A N2A 1_555 1_555
C11B N2B 1_555 1_555
C12A N1A 1_555 1_555
C12B N1B 1_555 1_555
C4 C12 1_555 1_555
C7 C11 1_555 1_555
C9 C10 1_555 1_555
C11 C12 1_555 1_555
Sn1B Se1B 1_555 1_555
Sn1A Se1A 1_555 1_555
Sn1O Se3O 1_555 1_555
Sn1Q Se2O 1_555 1_555
Sn1P Se1P 1_555 1_555
Sn1P Se2O 1_555 1_555
Sn1P_2 Se3P 1_555 1_555
Sn1Q_2 Se3Q 1_555 1_555
C4A C12A 1_555 1_555
C4B C12B 1_555 1_555
C7A C11A 1_555 1_555
C7B C11B 1_555 1_555
C9A C10A 1_555 1_555
C9B C10B 1_555 1_555
C11A C12A 1_555 1_555
C11B C12B 1_555 1_555

#END
