
#######################################################################
#
#                 Cambridge Crystallographic Data Centre
#                                CCDC 
#
#######################################################################
#
# If this CIF has been generated from an entry in the Cambridge 
# Structural Database, then it will include bibliographic, chemical, 
# crystal, experimental, refinement or atomic coordinate data resulting 
# from the CCDC's data processing and validation procedures.
#
#######################################################################

data_UCOZIV
_symmetry_cell_setting           monoclinic
_symmetry_space_group_name_H-M   'C 2/c'
_symmetry_Int_Tables_number      15
_space_group_name_Hall           '-C 2yn'
loop_
_symmetry_equiv_pos_site_id
_symmetry_equiv_pos_as_xyz
1 x,y,z
2 1/2+x,1/2+y,z
3 x,-y,1/2+z
4 1/2+x,1/2-y,1/2+z
5 -x,-y,-z
6 1/2-x,1/2-y,-z
7 -x,y,1/2-z
8 1/2-x,1/2+y,1/2-z
_cell_length_a                   16.478(3)
_cell_length_b                   5.484(1)
_cell_length_c                   16.592(2)
_cell_angle_alpha                90
_cell_angle_beta                 117.76(1)
_cell_angle_gamma                90
_cell_volume                     1326.78
loop_
_atom_site_label
_atom_site_type_symbol
_atom_site_fract_x
_atom_site_fract_y
_atom_site_fract_z
Co1 Co 0.0000 0.15731(7) 0.2500
O1 O -0.00146(11) -0.1391(3) 0.33066(10)
O2 O 0.00106(10) -0.5451(3) 0.33126(9)
C1 C 0.00000(12) -0.3419(4) 0.29690(12)
N1 N 0.14800(13) 0.1625(3) 0.32103(13)
C2 C 0.1981(2) 0.3065(5) 0.2959(2)
C3 C 0.2914(2) 0.3302(6) 0.3434(2)
C4 C 0.3411(2) 0.2051(5) 0.4245(2)
C5 C 0.2899(2) 0.0495(6) 0.4502(2)
C6 C 0.1966(2) 0.0367(6) 0.3981(2)
N2 N 0.4320(2) 0.2356(6) 0.4754(2)
H1 H 0.163(2) 0.394(6) 0.237(2)
H2 H 0.317(2) 0.426(7) 0.320(2)
H3 H 0.316(3) -0.021(9) 0.500(3)
H4 H 0.161(2) -0.065(7) 0.416(2)
H5 H 0.463(2) 0.303(5) 0.4533(19)
H6 H 0.457(3) 0.167(7) 0.521(3)
C1F C 0.00000(12) -0.3419(4) 0.20310(12)
O1F O 0.00146(11) -0.1391(3) 0.16934(10)
O2F O -0.00106(10) -0.5451(3) 0.16874(9)
N1F N -0.14800(13) 0.1625(3) 0.17897(13)
C2F C -0.1981(2) 0.3065(5) 0.2041(2)
C3F C -0.2914(2) 0.3302(6) 0.1566(2)
C4F C -0.3411(2) 0.2051(5) 0.0755(2)
C5F C -0.2899(2) 0.0495(6) 0.0498(2)
C6F C -0.1966(2) 0.0367(6) 0.1019(2)
N2F N -0.4320(2) 0.2356(6) 0.0246(2)
H1F H -0.163(2) 0.394(6) 0.263(2)
H2F H -0.317(2) 0.426(7) 0.180(2)
H3F H -0.316(3) -0.021(9) 0.000(3)
H4F H -0.161(2) -0.065(7) 0.084(2)
H5F H -0.463(2) 0.303(5) 0.0467(19)
H6F H -0.457(3) 0.167(7) -0.021(3)
O2_2 O 0.00106(10) 0.4549(3) 0.33126(9)
O2F_2 O -0.00106(10) 0.4549(3) 0.16874(9)
Co1_2 Co 0.0000 -0.84269(7) 0.2500
loop_
_geom_bond_atom_site_label_1
_geom_bond_atom_site_label_2
_geom_bond_site_symmetry_1
_geom_bond_site_symmetry_2
Co1 O1 1_555 1_555
O1 C1 1_555 1_555
O2 C1 1_555 1_555
C1 C1F 1_555 1_555
N1 Co1 1_555 1_555
C2 N1 1_555 1_555
C3 C2 1_555 1_555
C4 C3 1_555 1_555
C5 C4 1_555 1_555
C6 N1 1_555 1_555
N2 C4 1_555 1_555
H1 C2 1_555 1_555
H2 C3 1_555 1_555
H3 C5 1_555 1_555
H4 C6 1_555 1_555
H5 N2 1_555 1_555
H6 N2 1_555 1_555
C1F O1F 1_555 1_555
O1F Co1 1_555 1_555
O2F C1F 1_555 1_555
N1F Co1 1_555 1_555
C2F N1F 1_555 1_555
C3F C2F 1_555 1_555
C4F C3F 1_555 1_555
C5F C4F 1_555 1_555
C6F N1F 1_555 1_555
N2F C4F 1_555 1_555
H1F C2F 1_555 1_555
H2F C3F 1_555 1_555
H3F C5F 1_555 1_555
H4F C6F 1_555 1_555
H5F N2F 1_555 1_555
H6F N2F 1_555 1_555
O2_2 Co1 1_555 1_555
O2F_2 Co1 1_555 1_555
Co1_2 O2 1_555 1_555
C5 C6 1_555 1_555
O2F Co1_2 1_555 1_555
C5F C6F 1_555 1_555

#END
