
#######################################################################
#
#                 Cambridge Crystallographic Data Centre
#                                CCDC 
#
#######################################################################
#
# If this CIF has been generated from an entry in the Cambridge 
# Structural Database, then it will include bibliographic, chemical, 
# crystal, experimental, refinement or atomic coordinate data resulting 
# from the CCDC's data processing and validation procedures.
#
#######################################################################

data_UCOZIX
_symmetry_cell_setting           triclinic
_symmetry_space_group_name_H-M   'P -1'
_symmetry_Int_Tables_number      2
_space_group_name_Hall           '-P 1'
loop_
_symmetry_equiv_pos_site_id
_symmetry_equiv_pos_as_xyz
1 x,y,z
2 -x,-y,-z
_cell_length_a                   9.721(4)
_cell_length_b                   10.257(4)
_cell_length_c                   10.346(5)
_cell_angle_alpha                118.243(14)
_cell_angle_beta                 112.53(3)
_cell_angle_gamma                95.75(2)
_cell_volume                     787.58
loop_
_atom_site_label
_atom_site_type_symbol
_atom_site_fract_x
_atom_site_fract_y
_atom_site_fract_z
Sn1 Sn 0.18188(2) 0.47847(2) 0.54095(2)
Se1 Se 0.08954(4) 0.71048(4) 0.57226(5)
Se2 Se 0.27111(3) 0.36551(4) 0.32555(3)
Se3 Se 0.40236(4) 0.51597(4) 0.79131(4)
Mn1 Mn 0.51821(5) 0.38884(5) 0.58936(5)
N1 N 0.6864(3) 0.3295(3) 0.7544(3)
N2 N 0.5339(3) 0.1610(3) 0.4139(3)
C1 C 0.7607(4) 0.4125(4) 0.9218(4)
H1 H 0.7347 0.4993 0.9784
C2 C 0.8756(4) 0.3760(4) 1.0171(4)
H2 H 0.9246 0.4372 1.1341
C3 C 0.9146(4) 0.2487(4) 0.9351(4)
H3 H 0.9909 0.2224 0.9962
C4 C 0.8390(4) 0.1571(4) 0.7577(4)
C5 C 0.8745(4) 0.0233(4) 0.6632(5)
H4 H 0.9517 -0.0059 0.7193
C6 C 0.7970(4) -0.0610(4) 0.4937(4)
H5 H 0.8222 -0.1476 0.4350
C7 C 0.6782(4) -0.0218(4) 0.4014(4)
C8 C 0.5923(4) -0.1069(4) 0.2255(4)
H6 H 0.6101 -0.1971 0.1614
C9 C 0.4844(4) -0.0592(4) 0.1484(4)
H7 H 0.4281 -0.1156 0.0314
C10 C 0.4572(4) 0.0767(4) 0.2459(4)
H8 H 0.3829 0.1091 0.1912
C11 C 0.6415(3) 0.1120(3) 0.4920(3)
C12 C 0.7256(3) 0.2020(3) 0.6730(3)
Sn1A Sn -0.18188(2) 0.52153(2) 0.45905(2)
Se1A Se -0.08954(4) 0.28952(4) 0.42774(5)
Se2A Se 0.72889(3) 0.63449(4) 0.67445(3)
Mn1A Mn 0.48179(5) 0.61116(5) 0.41064(5)
loop_
_geom_bond_atom_site_label_1
_geom_bond_atom_site_label_2
_geom_bond_site_symmetry_1
_geom_bond_site_symmetry_2
Sn1 Se1 1_555 1_555
Se1 Sn1A 1_555 1_555
Se2 Sn1 1_555 1_555
Se3 Sn1 1_555 1_555
Mn1 Se2 1_555 1_555
N1 Mn1 1_555 1_555
N2 Mn1 1_555 1_555
C1 N1 1_555 1_555
H1 C1 1_555 1_555
C2 C1 1_555 1_555
H2 C2 1_555 1_555
C3 C2 1_555 1_555
H3 C3 1_555 1_555
C4 C3 1_555 1_555
C5 C4 1_555 1_555
H4 C5 1_555 1_555
C6 C5 1_555 1_555
H5 C6 1_555 1_555
C7 C6 1_555 1_555
C8 C7 1_555 1_555
H6 C8 1_555 1_555
C9 C8 1_555 1_555
H7 C9 1_555 1_555
C10 N2 1_555 1_555
H8 C10 1_555 1_555
C11 N2 1_555 1_555
C12 N1 1_555 1_555
Sn1A Se1A 1_555 1_555
Se1A Sn1 1_555 1_555
Se2A Mn1 1_555 1_555
Mn1A Se2 1_555 1_555
Se3 Mn1 1_555 1_555
C4 C12 1_555 1_555
C7 C11 1_555 1_555
C9 C10 1_555 1_555
C11 C12 1_555 1_555
Se2A Mn1A 1_555 1_555

#END
