
#######################################################################
#
#                 Cambridge Crystallographic Data Centre
#                                CCDC 
#
#######################################################################
#
# If this CIF has been generated from an entry in the Cambridge 
# Structural Database, then it will include bibliographic, chemical, 
# crystal, experimental, refinement or atomic coordinate data resulting 
# from the CCDC's data processing and validation procedures.
#
#######################################################################

data_UCUCEB
_symmetry_cell_setting           monoclinic
_symmetry_space_group_name_H-M   'P 21/c'
_symmetry_Int_Tables_number      14
_space_group_name_Hall           '-P 2ybc'
loop_
_symmetry_equiv_pos_site_id
_symmetry_equiv_pos_as_xyz
1 x,y,z
2 -x,1/2+y,1/2-z
3 -x,-y,-z
4 x,1/2-y,1/2+z
_cell_length_a                   11.441(2)
_cell_length_b                   9.2948(19)
_cell_length_c                   18.049(4)
_cell_angle_alpha                90
_cell_angle_beta                 99.37(3)
_cell_angle_gamma                90
_cell_volume                     1893.75
loop_
_atom_site_label
_atom_site_type_symbol
_atom_site_fract_x
_atom_site_fract_y
_atom_site_fract_z
Co1 Co -0.5000 0.0000 0.0000
C1 C -0.6838(4) -0.2299(6) -0.0774(3)
H1 H -0.7382 -0.1562 -0.0755
C2 C -0.7247(4) -0.3611(5) -0.1074(3)
C3 C -0.6443(5) -0.4693(6) -0.1140(3)
H2 H -0.6695 -0.5581 -0.1343
C4 C -0.5266(5) -0.4428(7) -0.0899(4)
H3 H -0.4697 -0.5116 -0.0957
C5 C -0.4943(5) -0.3121(6) -0.0571(4)
H4 H -0.4147 -0.2980 -0.0377
C6 C -0.8537(5) -0.3822(6) -0.1377(3)
C7 C -1.0155(5) -0.5610(7) -0.1663(4)
H5 H -1.0020 -0.5779 -0.2173
H6 H -1.0801 -0.4931 -0.1673
C8 C -1.0410(5) -0.7008(6) -0.1284(4)
H7 H -1.1218 -0.7027 -0.1184
H8 H -1.0286 -0.7830 -0.1592
C9 C -0.8841(4) -0.5829(6) -0.0507(3)
C10 C -0.9695(5) -0.7965(6) 0.0017(4)
C11 C -0.7637(5) -0.8928(6) 0.0142(3)
H9 H -0.7634 -0.8615 -0.0347
C12 C -0.8624(5) -0.8615(6) 0.0475(4)
C13 C -0.8658(5) -0.9081(7) 0.1193(4)
H10 H -0.9311 -0.8900 0.1425
C14 C -0.7686(6) -0.9833(7) 0.1559(4)
H11 H -0.7675 -1.0159 0.2047
C15 C -0.6724(5) -1.0100(7) 0.1192(4)
H12 H -0.6081 -1.0605 0.1448
C16 C -0.3484(5) -0.1332(6) 0.1460(4)
N1 N -0.5691(3) -0.2042(5) -0.0509(3)
N2 N -0.9072(3) -0.5086(5) -0.1185(3)
N3 N -0.9559(4) -0.7006(5) -0.0580(3)
N4 N -0.6680(4) -0.9666(5) 0.0492(3)
N5 N -0.4188(4) -0.1054(5) 0.0951(3)
O1 O -0.9076(3) -0.3016(4) -0.1838(2)
O2 O -1.0685(3) -0.8337(5) 0.0100(3)
S1 S -0.79517(12) -0.53253(15) 0.02654(9)
S2 S -0.2394(4) -0.1728(3) 0.2132(2)
Co1_2 Co -0.5000 -1.0000 0.0000
Co1_3 Co -0.5000 1.0000 0.0000
C1B C -0.3162(4) 0.2299(6) 0.0774(3)
H1B H -0.2618 0.1562 0.0755
C2B C -0.2753(4) 0.3611(5) 0.1074(3)
C3B C -0.3557(5) 0.4693(6) 0.1140(3)
H2B H -0.3305 0.5581 0.1343
C4B C -0.4734(5) 0.4428(7) 0.0899(4)
H3B H -0.5303 0.5116 0.0957
C5B C -0.5057(5) 0.3121(6) 0.0571(4)
H4B H -0.5853 0.2980 0.0377
C6B C -0.1463(5) 0.3822(6) 0.1377(3)
C7B C 0.0155(5) 0.5610(7) 0.1663(4)
H5B H 0.0020 0.5779 0.2173
H6B H 0.0801 0.4931 0.1673
C8B C 0.0410(5) 0.7008(6) 0.1284(4)
H7B H 0.1218 0.7027 0.1184
H8B H 0.0286 0.7830 0.1592
C9B C -0.1159(4) 0.5829(6) 0.0507(3)
C10B C -0.0305(5) 0.7965(6) -0.0017(4)
C11B C -0.2363(5) 0.8928(6) -0.0142(3)
H9B H -0.2366 0.8615 0.0347
C12B C -0.1376(5) 0.8615(6) -0.0475(4)
C13B C -0.1342(5) 0.9081(7) -0.1193(4)
H10B H -0.0689 0.8900 -0.1425
C14B C -0.2314(6) 0.9833(7) -0.1559(4)
H11B H -0.2325 1.0159 -0.2047
C15B C -0.3276(5) 1.0100(7) -0.1192(4)
H12B H -0.3919 1.0605 -0.1448
C16B C -0.6516(5) 0.1332(6) -0.1460(4)
N1B N -0.4309(3) 0.2042(5) 0.0509(3)
N2B N -0.0928(3) 0.5086(5) 0.1185(3)
N3B N -0.0441(4) 0.7006(5) 0.0580(3)
N4B N -0.3320(4) 0.9666(5) -0.0492(3)
N4_2 N -0.6680(4) 0.0334(5) 0.0492(3)
N4B_2 N -0.3320(4) -0.0334(5) -0.0492(3)
N5B N -0.5812(4) 0.1054(5) -0.0951(3)
O1B O -0.0924(3) 0.3016(4) 0.1838(2)
O2B O 0.0685(3) 0.8337(5) -0.0100(3)
S1B S -0.20483(12) 0.53253(15) -0.02654(9)
S2B S -0.7606(4) 0.1728(3) -0.2132(2)
C17 C -0.4433(12) 0.163(2) 0.2563(9)
O3 O -0.3347(11) 0.1417(17) 0.2937(7)
S3? S -0.301(3) 0.829(3) 0.2442(15)
loop_
_geom_bond_atom_site_label_1
_geom_bond_atom_site_label_2
_geom_bond_site_symmetry_1
_geom_bond_site_symmetry_2
Co1 N1 1_555 1_555
C1 H1 1_555 1_555
C2 C1 1_555 1_555
C3 C2 1_555 1_555
H2 C3 1_555 1_555
C4 C3 1_555 1_555
H3 C4 1_555 1_555
C5 C4 1_555 1_555
H4 C5 1_555 1_555
C6 C2 1_555 1_555
C7 H5 1_555 1_555
H6 C7 1_555 1_555
C8 C7 1_555 1_555
H7 C8 1_555 1_555
H8 C8 1_555 1_555
C9 N2 1_555 1_555
C10 C12 1_555 1_555
C11 H9 1_555 1_555
C12 C11 1_555 1_555
C13 C12 1_555 1_555
H10 C13 1_555 1_555
C14 C13 1_555 1_555
H11 C14 1_555 1_555
C15 C14 1_555 1_555
H12 C15 1_555 1_555
C16 N5 1_555 1_555
N1 C1 1_555 1_555
N2 C6 1_555 1_555
N3 C8 1_555 1_555
N4 C11 1_555 1_555
N5 Co1 1_555 1_555
O1 C6 1_555 1_555
O2 C10 1_555 1_555
S1 C9 1_555 1_555
S2 C16 1_555 1_555
C17 O3 1_555 1_555
Co1_2 N4 1_555 1_555
Co1_3 N4B 1_555 1_555
C1B H1B 1_555 1_555
C2B C1B 1_555 1_555
C3B C2B 1_555 1_555
H2B C3B 1_555 1_555
C4B C3B 1_555 1_555
H3B C4B 1_555 1_555
C5B C4B 1_555 1_555
H4B C5B 1_555 1_555
C6B C2B 1_555 1_555
C7B H5B 1_555 1_555
H6B C7B 1_555 1_555
C8B C7B 1_555 1_555
H7B C8B 1_555 1_555
H8B C8B 1_555 1_555
C9B N2B 1_555 1_555
C10B C12B 1_555 1_555
C11B H9B 1_555 1_555
C12B C11B 1_555 1_555
C13B C12B 1_555 1_555
H10B C13B 1_555 1_555
C14B C13B 1_555 1_555
H11B C14B 1_555 1_555
C15B C14B 1_555 1_555
H12B C15B 1_555 1_555
C16B N5B 1_555 1_555
N1B Co1 1_555 1_555
N2B C6B 1_555 1_555
N3B C8B 1_555 1_555
N4B C11B 1_555 1_555
N4_2 Co1 1_555 1_555
N4B_2 Co1 1_555 1_555
N5B Co1 1_555 1_555
O1B C6B 1_555 1_555
O2B C10B 1_555 1_555
S1B C9B 1_555 1_555
S2B C16B 1_555 1_555
C5 N1 1_555 1_555
C7 N2 1_555 1_555
C9 N3 1_555 1_555
C10 N3 1_555 1_555
C15 N4 1_555 1_555
C1B N1B 1_555 1_555
C5B N1B 1_555 1_555
C7B N2B 1_555 1_555
C9B N3B 1_555 1_555
C10B N3B 1_555 1_555
C15B N4B 1_555 1_555

#END
