
#######################################################################
#
#                 Cambridge Crystallographic Data Centre
#                                CCDC 
#
#######################################################################
#
# If this CIF has been generated from an entry in the Cambridge 
# Structural Database, then it will include bibliographic, chemical, 
# crystal, experimental, refinement or atomic coordinate data resulting 
# from the CCDC's data processing and validation procedures.
#
#######################################################################

data_UCUJOS
_symmetry_cell_setting           triclinic
_symmetry_space_group_name_H-M   'P -1'
_symmetry_Int_Tables_number      2
_space_group_name_Hall           '-P 1'
loop_
_symmetry_equiv_pos_site_id
_symmetry_equiv_pos_as_xyz
1 x,y,z
2 -x,-y,-z
_cell_length_a                   8.1532(16)
_cell_length_b                   10.396(2)
_cell_length_c                   12.492(3)
_cell_angle_alpha                99.87(3)
_cell_angle_beta                 106.06(3)
_cell_angle_gamma                107.33(3)
_cell_volume                     933.397
loop_
_atom_site_label
_atom_site_type_symbol
_atom_site_fract_x
_atom_site_fract_y
_atom_site_fract_z
Zn1 Zn -1.17372(9) -0.33887(6) 1.07515(5)
Cl1 Cl -1.3900(2) -0.24444(18) 1.05932(14)
Cl2 Cl -1.1883(2) -0.45097(15) 0.90080(12)
N1 N -0.9225(6) -0.1790(4) 1.1451(4)
N2 N -0.6268(7) -0.0588(5) 1.1787(4)
N3 N -0.7183(6) 0.0298(4) 1.1972(4)
N4 N -0.3073(6) 0.4548(4) 1.3099(4)
N5 N -0.0691(9) 0.5106(7) 1.2664(6)
N6 N -0.1972(6) 0.5499(4) 1.1913(4)
F1 F -0.8233(5) 0.3255(4) 1.3368(3)
F2 F -0.9417(6) 0.1402(4) 1.6369(3)
C1 C -0.7587(8) -0.1843(6) 1.1471(5)
H1 H -0.7396 -0.2678 1.1282
C2 C -0.8906(7) -0.0438(5) 1.1782(4)
H2 H -0.9776 -0.0059 1.1868
C3 C -0.6248(8) 0.1826(5) 1.2248(5)
H3 H -0.7156 0.2252 1.2035
H4 H -0.5460 0.2023 1.1793
C4 C -0.5096(8) 0.2483(5) 1.3535(5)
C5 C -0.6286(8) 0.2212(5) 1.4291(4)
C6 C -0.7787(9) 0.2569(6) 1.4195(5)
C7 C -0.8898(9) 0.2317(6) 1.4848(5)
H5 H -0.9930 0.2561 1.4726
C8 C -0.8370(9) 0.1675(6) 1.5701(5)
C9 C -0.6857(10) 0.1299(6) 1.5882(5)
H6 H -0.6542 0.0864 1.6456
C10 C -0.5807(10) 0.1588(6) 1.5181(5)
H7 H -0.4761 0.1362 1.5307
C11 C -0.4222(8) 0.4101(5) 1.3791(5)
H8 H -0.5192 0.4477 1.3639
H9 H -0.3479 0.4496 1.4607
C12 C -0.1341(7) 0.4532(6) 1.3392(4)
H10 H -0.0758 0.4195 1.3970
C13 C -0.3414(7) 0.5134(5) 1.2232(5)
H11 H -0.4503 0.5265 1.1904
O1 O -0.3708(6) 0.1920(4) 1.3868(4)
H12 H -0.3415 0.1683 1.3310
Zn1_2 Zn -0.17372(9) 0.66113(6) 1.07515(5)
N6_2 N -1.1972(6) -0.4501(4) 1.1913(4)
C14 C -0.7770(10) -0.1401(8) 0.8847(6)
H13 H -0.6699 -0.1617 0.9155
H14 H -0.8848 -0.2218 0.8657
H15 H -0.7786 -0.0659 0.9414
O2 O -0.7734(7) -0.0973(5) 0.7844(4)
H16 H -0.7036 -0.0155 0.8028
loop_
_geom_bond_atom_site_label_1
_geom_bond_atom_site_label_2
_geom_bond_site_symmetry_1
_geom_bond_site_symmetry_2
Zn1 Cl1 1_555 1_555
Cl2 Zn1 1_555 1_555
N1 Zn1 1_555 1_555
N2 N3 1_555 1_555
N3 C2 1_555 1_555
N4 C11 1_555 1_555
N5 N6 1_555 1_555
N6 C13 1_555 1_555
F1 C6 1_555 1_555
F2 C8 1_555 1_555
C1 N1 1_555 1_555
H1 C1 1_555 1_555
C2 N1 1_555 1_555
H2 C2 1_555 1_555
C3 N3 1_555 1_555
H3 C3 1_555 1_555
H4 C3 1_555 1_555
C4 C3 1_555 1_555
C5 C4 1_555 1_555
C6 C5 1_555 1_555
C7 C6 1_555 1_555
H5 C7 1_555 1_555
C8 C7 1_555 1_555
C9 C8 1_555 1_555
H6 C9 1_555 1_555
C10 C5 1_555 1_555
H7 C10 1_555 1_555
C11 C4 1_555 1_555
H8 C11 1_555 1_555
H9 C11 1_555 1_555
C12 N4 1_555 1_555
H10 C12 1_555 1_555
C13 N4 1_555 1_555
H11 C13 1_555 1_555
O1 C4 1_555 1_555
H12 O1 1_555 1_555
C14 H13 1_555 1_555
H14 C14 1_555 1_555
H15 C14 1_555 1_555
O2 C14 1_555 1_555
H16 O2 1_555 1_555
Zn1_2 N6 1_555 1_555
N6_2 Zn1 1_555 1_555
N2 C1 1_555 1_555
N5 C12 1_555 1_555
C9 C10 1_555 1_555

#END
