
#######################################################################
#
#                 Cambridge Crystallographic Data Centre
#                                CCDC 
#
#######################################################################
#
# If this CIF has been generated from an entry in the Cambridge 
# Structural Database, then it will include bibliographic, chemical, 
# crystal, experimental, refinement or atomic coordinate data resulting 
# from the CCDC's data processing and validation procedures.
#
#######################################################################

data_UCUJIM
_symmetry_cell_setting           monoclinic
_symmetry_space_group_name_H-M   'C 2/c'
_symmetry_Int_Tables_number      15
_space_group_name_Hall           '-C 2yn'
loop_
_symmetry_equiv_pos_site_id
_symmetry_equiv_pos_as_xyz
1 x,y,z
2 1/2+x,1/2+y,z
3 -x,y,1/2-z
4 1/2-x,1/2+y,1/2-z
5 -x,-y,-z
6 1/2-x,1/2-y,-z
7 x,-y,1/2+z
8 1/2+x,1/2-y,1/2+z
_cell_length_a                   22.782(5)
_cell_length_b                   9.3699(19)
_cell_length_c                   19.862(4)
_cell_angle_alpha                90
_cell_angle_beta                 121.91(3)
_cell_angle_gamma                90
_cell_volume                     3599.12
loop_
_atom_site_label
_atom_site_type_symbol
_atom_site_fract_x
_atom_site_fract_y
_atom_site_fract_z
Cu1 Cu 0.7500 0.7500 0.0000
Cl1 Cl 0.81831(7) 0.99802(13) 0.00059(8)
O1 O 0.71447(17) 1.2198(4) 0.1964(2)
F1 F 0.49724(15) 1.2870(3) 0.0666(2)
F2 F 0.52998(19) 1.7669(3) 0.1395(2)
N1 N 0.6937(2) 0.8678(4) 0.0323(2)
N2 N 0.6084(2) 0.9225(5) 0.0523(3)
N3 N 0.6428(2) 1.0424(4) 0.0532(2)
N4 N 0.6299(2) 1.1612(4) 0.2602(2)
N5 N 0.5772(2) 1.2139(5) 0.2659(3)
N6 N 0.6775(2) 1.2203(4) 0.3836(2)
C1 C 0.6925(3) 1.0066(6) 0.0413(3)
H1 H 0.7227 1.0709 0.0396
C2 C 0.6407(3) 0.8211(6) 0.0389(3)
H2 H 0.6283 0.7254 0.0344
C3 C 0.6186(3) 1.1831(5) 0.0601(3)
H3 H 0.5685 1.1856 0.0273
H4 H 0.6364 1.2546 0.0401
C4 C 0.6415(2) 1.2217(5) 0.1467(3)
C5 C 0.6167(3) 1.1116(5) 0.1828(3)
H5 H 0.5675 1.0952 0.1470
H6 H 0.6406 1.0220 0.1898
C6 C 0.6883(3) 1.1670(5) 0.3302(3)
H7 H 0.7311 1.1372 0.3400
C7 C 0.6088(3) 1.2481(6) 0.3417(3)
H8 H 0.5858 1.2879 0.3644
C8 C 0.6116(2) 1.3710(5) 0.1440(3)
C9 C 0.5421(3) 1.3966(5) 0.1053(3)
C10 C 0.5121(3) 1.5274(6) 0.1020(3)
H9 H 0.4644 1.5393 0.0749
C11 C 0.5565(3) 1.6374(6) 0.1409(3)
C12 C 0.6270(3) 1.6207(6) 0.1811(3)
H10 H 0.6561 1.6979 0.2065
C13 C 0.6541(3) 1.4876(6) 0.1834(3)
H11 H 0.7019 1.4756 0.2119
H12 H 0.737(3) 1.263(6) 0.174(4)
Cu1F Cu 0.7500 1.2500 0.5000
Cu1F_2 Cu 0.7500 0.2500 -0.5000
Cl1E Cl 0.68169(7) 0.50198(13) -0.00059(8)
O1E O 0.78553(17) 0.2802(4) -0.1964(2)
F1E F 1.00276(15) 0.2130(3) -0.0666(2)
F2E F 0.97002(19) -0.2669(3) -0.1395(2)
N1E N 0.8063(2) 0.6322(4) -0.0323(2)
N2E N 0.8916(2) 0.5775(5) -0.0523(3)
N3E N 0.8572(2) 0.4576(4) -0.0532(2)
N4E N 0.8701(2) 0.3388(4) -0.2602(2)
N5E N 0.9228(2) 0.2861(5) -0.2659(3)
N6E N 0.8225(2) 0.2797(4) -0.3836(2)
N6F N 0.6775(2) 0.7797(4) -0.1164(2)
N6C N 0.8225(2) 0.7203(4) 0.1164(2)
C1E C 0.8075(3) 0.4934(6) -0.0413(3)
H1E H 0.7773 0.4291 -0.0396
C2E C 0.8593(3) 0.6789(6) -0.0389(3)
H2E H 0.8717 0.7746 -0.0344
C3E C 0.8814(3) 0.3169(5) -0.0601(3)
H3E H 0.9315 0.3144 -0.0273
H4E H 0.8636 0.2454 -0.0401
C4E C 0.8585(2) 0.2783(5) -0.1467(3)
C5E C 0.8833(3) 0.3884(5) -0.1828(3)
H5E H 0.9325 0.4048 -0.1470
H6E H 0.8594 0.4780 -0.1898
C6E C 0.8117(3) 0.3330(5) -0.3302(3)
H7E H 0.7689 0.3628 -0.3400
C7E C 0.8912(3) 0.2519(6) -0.3417(3)
H8E H 0.9142 0.2121 -0.3644
C8E C 0.8884(2) 0.1290(5) -0.1440(3)
C9E C 0.9579(3) 0.1034(5) -0.1053(3)
C10E C 0.9879(3) -0.0274(6) -0.1020(3)
H9E H 1.0356 -0.0393 -0.0749
C11E C 0.9435(3) -0.1374(6) -0.1409(3)
C12E C 0.8730(3) -0.1207(6) -0.1811(3)
H10E H 0.8439 -0.1979 -0.2065
C13E C 0.8459(3) 0.0124(6) -0.1834(3)
H11E H 0.7981 0.0244 -0.2119
H12E H 0.763(3) 0.237(6) -0.174(4)
O2 O 0.7891(3) 1.3274(6) 0.1383(3)
H13 H 0.7639 1.3724 0.0975
C14 C 0.8551(4) 1.3039(7) 0.1464(4)
H14 H 0.8738 1.3936 0.1431
H15 H 0.8492 1.2422 0.1046
H16 H 0.8863 1.2603 0.1968
loop_
_geom_bond_atom_site_label_1
_geom_bond_atom_site_label_2
_geom_bond_site_symmetry_1
_geom_bond_site_symmetry_2
Cu1 Cl1 1_555 1_555
O1 C4 1_555 1_555
F1 C9 1_555 1_555
F2 C11 1_555 1_555
N1 Cu1 1_555 1_555
N2 N3 1_555 1_555
N3 C1 1_555 1_555
N4 N5 1_555 1_555
N5 C7 1_555 1_555
N6 C6 1_555 1_555
C1 N1 1_555 1_555
H1 C1 1_555 1_555
C2 N1 1_555 1_555
H2 C2 1_555 1_555
C3 N3 1_555 1_555
H3 C3 1_555 1_555
H4 C3 1_555 1_555
C4 C3 1_555 1_555
C5 N4 1_555 1_555
H5 C5 1_555 1_555
H6 C5 1_555 1_555
C6 N4 1_555 1_555
H7 C6 1_555 1_555
C7 N6 1_555 1_555
H8 C7 1_555 1_555
C8 C4 1_555 1_555
C9 C8 1_555 1_555
C10 C9 1_555 1_555
H9 C10 1_555 1_555
C11 C10 1_555 1_555
C12 C11 1_555 1_555
H10 C12 1_555 1_555
C13 C8 1_555 1_555
H11 C13 1_555 1_555
H12 O1 1_555 1_555
O2 H13 1_555 1_555
C14 O2 1_555 1_555
H14 C14 1_555 1_555
H15 C14 1_555 1_555
H16 C14 1_555 1_555
Cu1F N6 1_555 1_555
Cu1F_2 N6E 1_555 1_555
Cl1E Cu1 1_555 1_555
O1E C4E 1_555 1_555
F1E C9E 1_555 1_555
F2E C11E 1_555 1_555
N1E Cu1 1_555 1_555
N2E N3E 1_555 1_555
N3E C1E 1_555 1_555
N4E N5E 1_555 1_555
N5E C7E 1_555 1_555
N6E C6E 1_555 1_555
N6F Cu1 1_555 1_555
N6C Cu1 1_555 1_555
C1E N1E 1_555 1_555
H1E C1E 1_555 1_555
C2E N1E 1_555 1_555
H2E C2E 1_555 1_555
C3E N3E 1_555 1_555
H3E C3E 1_555 1_555
H4E C3E 1_555 1_555
C4E C3E 1_555 1_555
C5E N4E 1_555 1_555
H5E C5E 1_555 1_555
H6E C5E 1_555 1_555
C6E N4E 1_555 1_555
H7E C6E 1_555 1_555
C7E N6E 1_555 1_555
H8E C7E 1_555 1_555
C8E C4E 1_555 1_555
C9E C8E 1_555 1_555
C10E C9E 1_555 1_555
H9E C10E 1_555 1_555
C11E C10E 1_555 1_555
C12E C11E 1_555 1_555
H10E C12E 1_555 1_555
C13E C8E 1_555 1_555
H11E C13E 1_555 1_555
H12E O1E 1_555 1_555
N2 C2 1_555 1_555
C4 C5 1_555 1_555
C12 C13 1_555 1_555
N2E C2E 1_555 1_555
C4E C5E 1_555 1_555
C12E C13E 1_555 1_555

#END
