
#######################################################################
#
#                 Cambridge Crystallographic Data Centre
#                                CCDC 
#
#######################################################################
#
# If this CIF has been generated from an entry in the Cambridge 
# Structural Database, then it will include bibliographic, chemical, 
# crystal, experimental, refinement or atomic coordinate data resulting 
# from the CCDC's data processing and validation procedures.
#
#######################################################################

data_UCUJUY
_symmetry_cell_setting           monoclinic
_symmetry_space_group_name_H-M   'C 2/c'
_symmetry_Int_Tables_number      15
_space_group_name_Hall           '-C 2yn'
loop_
_symmetry_equiv_pos_site_id
_symmetry_equiv_pos_as_xyz
1 x,y,z
2 1/2+x,1/2+y,z
3 -x,y,1/2-z
4 1/2-x,1/2+y,1/2-z
5 -x,-y,-z
6 1/2-x,1/2-y,-z
7 x,-y,1/2+z
8 1/2+x,1/2-y,1/2+z
_cell_length_a                   24.017(5)
_cell_length_b                   9.5929(19)
_cell_length_c                   20.662(4)
_cell_angle_alpha                90
_cell_angle_beta                 124.65(3)
_cell_angle_gamma                90
_cell_volume                     3916.08
loop_
_atom_site_label
_atom_site_type_symbol
_atom_site_fract_x
_atom_site_fract_y
_atom_site_fract_z
Cd1 Cd 0.7500 0.7500 0.0000
Cl1 Cl 0.68052(10) 0.9733(2) -0.00737(13)
O1 O 0.7932(2) 0.7915(5) 0.3096(3)
H1 H 0.7758 0.7355 0.3230
F1 F 1.00344(19) 0.6981(5) 0.4401(3)
F2 F 0.9558(3) 0.2345(5) 0.3598(3)
N1 N 0.8325(3) 0.7906(7) 0.1326(3)
N2 N 0.9307(3) 0.8052(12) 0.2506(4)
N3 N 0.8800(3) 0.8460(7) 0.2559(3)
N4 N 0.8664(3) 0.9479(6) 0.4548(3)
N5 N 0.8985(3) 1.0646(7) 0.4585(4)
N6 N 0.8123(3) 1.1157(7) 0.4673(3)
C1 C 0.8224(3) 0.8342(8) 0.1846(4)
H2 H 0.7800 0.8548 0.1734
C2 C 0.8994(4) 0.7710(13) 0.1752(5)
H3 H 0.9220 0.7365 0.1541
C3 C 0.8913(4) 0.8898(8) 0.3296(4)
H4 H 0.8684 0.9777 0.3220
H5 H 0.9393 0.9042 0.3683
C4 C 0.8649(3) 0.7801(7) 0.3609(4)
C5 C 0.8884(3) 0.6311(8) 0.3596(4)
C6 C 0.9569(3) 0.5972(8) 0.3987(4)
C7 C 0.9802(4) 0.4657(9) 0.3990(5)
H6 H 1.0262 0.4467 0.4261
C8 C 0.9334(4) 0.3662(9) 0.3584(5)
C9 C 0.8656(4) 0.3897(9) 0.3189(5)
H7 H 0.8348 0.3175 0.2925
C10 C 0.8435(4) 0.5229(9) 0.3186(4)
H8 H 0.7973 0.5402 0.2902
C11 C 0.8887(4) 0.8125(8) 0.4468(4)
H9 H 0.8714 0.7412 0.4642
H10 H 0.9377 0.8089 0.4808
C12 C 0.8637(4) 1.1636(9) 0.4646(5)
H11 H 0.8736 1.2578 0.4669
C13 C 0.8150(4) 0.9814(9) 0.4604(5)
H12 H 0.7855 0.9175 0.4595
Cd1F Cd 0.7500 1.2500 0.5000
Cd1F_2 Cd 0.7500 0.2500 -0.5000
Cl1E Cl 0.81948(10) 0.5267(2) 0.00737(13)
O1E O 0.7068(2) 0.7085(5) -0.3096(3)
H1E H 0.7242 0.7645 -0.3230
F1E F 0.49656(19) 0.8019(5) -0.4401(3)
F2E F 0.5442(3) 1.2655(5) -0.3598(3)
N1E N 0.6675(3) 0.7094(7) -0.1326(3)
N2E N 0.5693(3) 0.6948(12) -0.2506(4)
N3E N 0.6200(3) 0.6540(7) -0.2559(3)
N4E N 0.6336(3) 0.5521(6) -0.4548(3)
N5E N 0.6015(3) 0.4354(7) -0.4585(4)
N6E N 0.6877(3) 0.3843(7) -0.4673(3)
N6F N 0.8123(3) 0.8843(7) -0.0327(3)
N6C N 0.6877(3) 0.6157(7) 0.0327(3)
C1E C 0.6776(3) 0.6658(8) -0.1846(4)
H2E H 0.7200 0.6452 -0.1734
C2E C 0.6006(4) 0.7290(13) -0.1752(5)
H3E H 0.5780 0.7635 -0.1541
C3E C 0.6087(4) 0.6102(8) -0.3296(4)
H4E H 0.6316 0.5223 -0.3220
H5E H 0.5607 0.5958 -0.3683
C4E C 0.6351(3) 0.7199(7) -0.3609(4)
C5E C 0.6116(3) 0.8689(8) -0.3596(4)
C6E C 0.5431(3) 0.9028(8) -0.3987(4)
C7E C 0.5198(4) 1.0343(9) -0.3990(5)
H6E H 0.4738 1.0533 -0.4261
C8E C 0.5666(4) 1.1338(9) -0.3584(5)
C9E C 0.6344(4) 1.1103(9) -0.3189(5)
H7E H 0.6652 1.1825 -0.2925
C10E C 0.6565(4) 0.9771(9) -0.3186(4)
H8E H 0.7027 0.9598 -0.2902
C11E C 0.6113(4) 0.6875(8) -0.4468(4)
H9E H 0.6286 0.7588 -0.4642
H10E H 0.5623 0.6911 -0.4808
C12E C 0.6363(4) 0.3364(9) -0.4646(5)
H11E H 0.6264 0.2422 -0.4669
C13E C 0.6850(4) 0.5186(9) -0.4604(5)
H12E H 0.7145 0.5825 -0.4595
O2 O 0.8541(8) 1.2636(19) 0.1143(12)
C14 C 0.9208(11) 1.228(3) 0.1670(14)
O3 O 0.7726(4) 1.1633(9) 0.1366(5)
H13 H 0.8142(19) 1.185(7) 0.139(4)
H14 H 0.748(4) 1.103(8) 0.095(4)
loop_
_geom_bond_atom_site_label_1
_geom_bond_atom_site_label_2
_geom_bond_site_symmetry_1
_geom_bond_site_symmetry_2
Cd1 Cl1 1_555 1_555
O1 H1 1_555 1_555
O2 C14 1_555 1_555
O3 H13 1_555 1_555
F1 C6 1_555 1_555
F2 C8 1_555 1_555
N1 Cd1 1_555 1_555
N2 N3 1_555 1_555
N3 C1 1_555 1_555
N4 N5 1_555 1_555
N5 C12 1_555 1_555
N6 C12 1_555 1_555
C1 N1 1_555 1_555
H2 C1 1_555 1_555
C2 N1 1_555 1_555
H3 C2 1_555 1_555
C3 N3 1_555 1_555
H4 C3 1_555 1_555
H5 C3 1_555 1_555
C4 O1 1_555 1_555
C5 C4 1_555 1_555
C6 C5 1_555 1_555
C7 C6 1_555 1_555
H6 C7 1_555 1_555
C8 C7 1_555 1_555
C9 C8 1_555 1_555
H7 C9 1_555 1_555
C10 C5 1_555 1_555
H8 C10 1_555 1_555
C11 N4 1_555 1_555
H9 C11 1_555 1_555
H10 C11 1_555 1_555
C12 H11 1_555 1_555
C13 N4 1_555 1_555
H12 C13 1_555 1_555
H14 O3 1_555 1_555
Cd1F N6 1_555 1_555
Cd1F_2 N6E 1_555 1_555
Cl1E Cd1 1_555 1_555
O1E H1E 1_555 1_555
F1E C6E 1_555 1_555
F2E C8E 1_555 1_555
N1E Cd1 1_555 1_555
N2E N3E 1_555 1_555
N3E C1E 1_555 1_555
N4E N5E 1_555 1_555
N5E C12E 1_555 1_555
N6E C12E 1_555 1_555
N6F Cd1 1_555 1_555
N6C Cd1 1_555 1_555
C1E N1E 1_555 1_555
H2E C1E 1_555 1_555
C2E N1E 1_555 1_555
H3E C2E 1_555 1_555
C3E N3E 1_555 1_555
H4E C3E 1_555 1_555
H5E C3E 1_555 1_555
C4E O1E 1_555 1_555
C5E C4E 1_555 1_555
C6E C5E 1_555 1_555
C7E C6E 1_555 1_555
H6E C7E 1_555 1_555
C8E C7E 1_555 1_555
C9E C8E 1_555 1_555
H7E C9E 1_555 1_555
C10E C5E 1_555 1_555
H8E C10E 1_555 1_555
C11E N4E 1_555 1_555
H9E C11E 1_555 1_555
H10E C11E 1_555 1_555
C12E H11E 1_555 1_555
C13E N4E 1_555 1_555
H12E C13E 1_555 1_555
N2 C2 1_555 1_555
N6 C13 1_555 1_555
C3 C4 1_555 1_555
C4 C11 1_555 1_555
C9 C10 1_555 1_555
N2E C2E 1_555 1_555
N6E C13E 1_555 1_555
C3E C4E 1_555 1_555
C4E C11E 1_555 1_555
C9E C10E 1_555 1_555

#END
