
#######################################################################
#
#                 Cambridge Crystallographic Data Centre
#                                CCDC 
#
#######################################################################
#
# If this CIF has been generated from an entry in the Cambridge 
# Structural Database, then it will include bibliographic, chemical, 
# crystal, experimental, refinement or atomic coordinate data resulting 
# from the CCDC's data processing and validation procedures.
#
#######################################################################

data_UCUJOR
_symmetry_cell_setting           monoclinic
_symmetry_space_group_name_H-M   'P 21/n'
_symmetry_Int_Tables_number      14
_space_group_name_Hall           '-P 2yn'
loop_
_symmetry_equiv_pos_site_id
_symmetry_equiv_pos_as_xyz
1 x,y,z
2 1/2+x,1/2-y,1/2+z
3 -x,-y,-z
4 1/2-x,1/2+y,1/2-z
_cell_length_a                   12.601(3)
_cell_length_b                   13.274(3)
_cell_length_c                   13.363(3)
_cell_angle_alpha                90
_cell_angle_beta                 97.02(2)
_cell_angle_gamma                90
_cell_volume                     2218.42
loop_
_atom_site_label
_atom_site_type_symbol
_atom_site_fract_x
_atom_site_fract_y
_atom_site_fract_z
Cs1 Cs 0.15919(9) 0.24791(9) -0.63476(8)
Ni1 Ni 0.3601(2) 0.3331(2) -0.3483(2)
N1 N 0.3140(8) 0.3685(8) -0.2061(7)
N2 N 0.3546(8) 0.4362(8) -0.0585(8)
N3 N 0.4994(9) 0.4088(8) -0.2764(8)
N4 N 0.5728(9) 0.4877(9) -0.1358(8)
N5 N 0.2991(8) 0.4677(8) -0.4119(8)
N6 N 0.1603(8) 0.5501(8) -0.4901(8)
N7 N 0.1991(8) 0.2926(8) -0.3941(7)
N8 N 0.0337(8) 0.3529(8) -0.4486(8)
N9 N 0.4134(8) 0.2789(8) -0.4829(8)
N10 N 0.4616(10) 0.1413(8) -0.5662(8)
N11 N 0.4133(9) 0.1900(9) -0.3063(8)
N12 N 0.4782(9) 0.0413(8) -0.3503(9)
C1 C 0.230(1) 0.356(1) -0.154(1)
C2 C 0.252(1) 0.400(1) -0.064(1)
C3 C 0.601(1) 0.443(1) -0.292(1)
C4 C 0.643(1) 0.490(1) -0.207(1)
C5 C 0.387(1) 0.4161(10) -0.1446(10)
C6 C 0.4895(10) 0.4384(10) -0.1828(10)
C7 C 0.329(1) 0.564(1) -0.435(1)
C8 C 0.245(1) 0.613(1) -0.483(1)
C9 C 0.125(1) 0.2186(10) -0.387(1)
C10 C 0.026(1) 0.252(1) -0.420(1)
C11 C 0.198(1) 0.4631(10) -0.4454(9)
C12 C 0.139(1) 0.3686(10) -0.4308(10)
C13 C 0.417(1) 0.303(1) -0.581(1)
C14 C 0.445(1) 0.221(1) -0.631(1)
C15 C 0.424(1) 0.124(1) -0.225(1)
C16 C 0.465(1) 0.033(1) -0.248(1)
C17 C 0.4435(10) 0.1812(10) -0.4791(9)
C18 C 0.444(1) 0.134(1) -0.3805(9)
H1 H 0.3940 0.4694 -0.0028
H2 H 0.0896 0.5638 -0.5201
H3 H 0.4809 0.0741 -0.5804
H4 H 0.1662 0.3211 -0.1775
H5 H 0.2055 0.4055 -0.0129
H6 H 0.6345 0.4339 -0.3517
H7 H 0.7112 0.5212 -0.1971
H8 H 0.3993 0.5905 -0.4205
H9 H 0.2448 0.6805 -0.5066
H10 H 0.1405 0.1527 -0.3616
H11 H -0.0383 0.2140 -0.4242
H12 H 0.4009 0.3673 -0.6106
H13 H 0.4533 0.2193 -0.7003
H14 H 0.4047 0.1406 -0.1605
H15 H 0.4815 -0.0230 -0.2076
Cs1A Cs 0.65919(9) 0.25209(9) -0.13476(8)
N3A N -0.0006(9) 0.0912(8) -0.7764(8)
N4A N 0.0728(9) 0.0123(9) -0.6358(8)
C3A C 0.101(1) 0.057(1) -0.792(1)
C4A C 0.143(1) 0.010(1) -0.707(1)
C6A C -0.0105(10) 0.0616(10) -0.6828(10)
C15A C -0.076(1) 0.376(1) -0.725(1)
H6A H 0.1345 0.0661 -0.8517
H7A H 0.2112 -0.0212 -0.6971
H14A H -0.0953 0.3594 -0.6605
loop_
_geom_bond_atom_site_label_1
_geom_bond_atom_site_label_2
_geom_bond_site_symmetry_1
_geom_bond_site_symmetry_2
Cs1 N7 1_555 1_555
Ni1 N1 1_555 1_555
N1 C1 1_555 1_555
N2 C2 1_555 1_555
N3 Ni1 1_555 1_555
N4 C4 1_555 1_555
N5 Ni1 1_555 1_555
N6 C8 1_555 1_555
N7 Ni1 1_555 1_555
N8 Cs1 1_555 1_555
N9 Cs1 1_555 1_555
N10 C14 1_555 1_555
N11 Ni1 1_555 1_555
N12 C16 1_555 1_555
C1 C2 1_555 1_555
C2 H5 1_555 1_555
C3 N3 1_555 1_555
C4 C3 1_555 1_555
C5 N1 1_555 1_555
C6 N3 1_555 1_555
C7 N5 1_555 1_555
C8 C7 1_555 1_555
C9 Cs1 1_555 1_555
C10 Cs1 1_555 1_555
C11 N5 1_555 1_555
C12 Cs1 1_555 1_555
C13 Cs1 1_555 1_555
C14 Cs1 1_555 1_555
C15 N11 1_555 1_555
C16 C15 1_555 1_555
C17 N9 1_555 1_555
C18 N11 1_555 1_555
H1 N2 1_555 1_555
H2 N6 1_555 1_555
H3 N10 1_555 1_555
H4 C1 1_555 1_555
H6 C3 1_555 1_555
H7 C4 1_555 1_555
H8 C7 1_555 1_555
H9 C8 1_555 1_555
H10 C9 1_555 1_555
H11 C10 1_555 1_555
H12 C13 1_555 1_555
H13 C14 1_555 1_555
H14 C15 1_555 1_555
H15 C16 1_555 1_555
Cs1A N3 1_555 1_555
N3A Cs1 1_555 1_555
N4A Cs1 1_555 1_555
C3A Cs1 1_555 1_555
C4A Cs1 1_555 1_555
C6A Cs1 1_555 1_555
C15A Cs1 1_555 1_555
H6A C3A 1_555 1_555
H7A C4A 1_555 1_555
H14A C15A 1_555 1_555
Ni1 N9 1_555 1_555
N2 C5 1_555 1_555
N4 Cs1A 1_555 1_555
N4 C6 1_555 1_555
N6 C11 1_555 1_555
N7 C9 1_555 1_555
N7 C12 1_555 1_555
N8 C12 1_555 1_555
N8 C10 1_555 1_555
N9 C13 1_555 1_555
N10 C17 1_555 1_555
N12 C18 1_555 1_555
C3 Cs1A 1_555 1_555
C4 Cs1A 1_555 1_555
C5 C6 1_555 1_555
C6 Cs1A 1_555 1_555
C9 C10 1_555 1_555
C11 C12 1_555 1_555
C13 C14 1_555 1_555
C15 Cs1A 1_555 1_555
C17 C18 1_555 1_555
N3A C3A 1_555 1_555
N3A C6A 1_555 1_555
N4A C4A 1_555 1_555
N4A C6A 1_555 1_555
C3A C4A 1_555 1_555

#END
