
#######################################################################
#
#                 Cambridge Crystallographic Data Centre
#                                CCDC 
#
#######################################################################
#
# If this CIF has been generated from an entry in the Cambridge 
# Structural Database, then it will include bibliographic, chemical, 
# crystal, experimental, refinement or atomic coordinate data resulting 
# from the CCDC's data processing and validation procedures.
#
#######################################################################

data_UCUKAF
_symmetry_cell_setting           monoclinic
_symmetry_space_group_name_H-M   'C 2/c'
_symmetry_Int_Tables_number      15
_space_group_name_Hall           '-C 2yn'
loop_
_symmetry_equiv_pos_site_id
_symmetry_equiv_pos_as_xyz
1 x,y,z
2 1/2+x,1/2+y,z
3 -x,y,1/2-z
4 1/2-x,1/2+y,1/2-z
5 -x,-y,-z
6 1/2-x,1/2-y,-z
7 x,-y,1/2+z
8 1/2+x,1/2-y,1/2+z
_cell_length_a                   22.876(5)
_cell_length_b                   9.3066(19)
_cell_length_c                   20.258(4)
_cell_angle_alpha                90
_cell_angle_beta                 122.26(3)
_cell_angle_gamma                90
_cell_volume                     3647.12
loop_
_atom_site_label
_atom_site_type_symbol
_atom_site_fract_x
_atom_site_fract_y
_atom_site_fract_z
Co1 Co 0.7500 0.7500 0.0000
Cl1 Cl 0.68638(6) 0.52690(14) -0.00080(7)
O1 O 0.78585(16) 0.2663(5) -0.1941(2)
F1 F 1.00281(14) 0.2029(3) -0.0686(2)
F2 F 0.9703(2) -0.2796(4) -0.1428(3)
N1 N 0.80961(18) 0.6228(4) -0.0327(2)
N2 N 0.8961(2) 0.5628(5) -0.0487(3)
N3 N 0.85990(19) 0.4448(4) -0.0516(2)
N4 N 0.9248(2) 0.2889(6) -0.2616(3)
N5 N 0.87085(18) 0.3342(4) -0.2560(2)
N6 N 0.82543(19) 0.2799(4) -0.3790(2)
C1 C 0.8643(2) 0.6668(6) -0.0366(3)
H2 H 0.8780 0.7624 -0.0312
C2 C 0.8084(2) 0.4838(6) -0.0428(3)
H3 H 0.7763 0.4213 -0.0437
C3 C 0.8817(3) 0.3025(6) -0.0607(3)
H4 H 0.8630 0.2310 -0.0422
H5 H 0.9317 0.2969 -0.0281
C4 C 0.8591(2) 0.2656(5) -0.1449(3)
C5 C 0.8892(2) 0.1163(5) -0.1442(3)
C6 C 0.9592(2) 0.0912(6) -0.1064(3)
C7 C 0.9874(3) -0.0377(6) -0.1051(3)
H6 H 1.0350 -0.0491 -0.0792
C8 C 0.9442(3) -0.1493(6) -0.1426(3)
C9 C 0.8730(3) -0.1334(6) -0.1821(3)
H7 H 0.8436 -0.2107 -0.2075
C10 C 0.8475(2) -0.0006(6) -0.1824(3)
H8 H 0.7998 0.0117 -0.2096
C11 C 0.8826(2) 0.3795(5) -0.1811(3)
H9 H 0.8576 0.4681 -0.1881
H10 H 0.9314 0.3986 -0.1454
C12 C 0.8128(2) 0.3271(5) -0.3268(3)
H11 H 0.7692 0.3522 -0.3375
C13 C 0.8952(3) 0.2574(7) -0.3356(3)
H12 H 0.9196 0.2226 -0.3570
H16 H 0.769(4) 0.194(10) -0.180(6)
Co1F Co 0.7500 0.2500 -0.5000
Co1F_2 Co 0.7500 1.2500 0.5000
Cl1E Cl 0.81362(6) 0.97310(14) 0.00080(7)
O1E O 0.71415(16) 1.2337(5) 0.1941(2)
F1E F 0.49719(14) 1.2971(3) 0.0686(2)
F2E F 0.5297(2) 1.7796(4) 0.1428(3)
N1E N 0.69039(18) 0.8772(4) 0.0327(2)
N2E N 0.6039(2) 0.9372(5) 0.0487(3)
N3E N 0.64010(19) 1.0552(4) 0.0516(2)
N4E N 0.5752(2) 1.2111(6) 0.2616(3)
N5E N 0.62915(18) 1.1658(4) 0.2560(2)
N6E N 0.67457(19) 1.2201(4) 0.3790(2)
N6F N 0.82543(19) 0.7201(4) 0.1210(2)
N6C N 0.67457(19) 0.7799(4) -0.1210(2)
C1E C 0.6357(2) 0.8332(6) 0.0366(3)
H2E H 0.6220 0.7376 0.0312
C2E C 0.6916(2) 1.0162(6) 0.0428(3)
H3E H 0.7237 1.0787 0.0437
C3E C 0.6183(3) 1.1975(6) 0.0607(3)
H4E H 0.6370 1.2690 0.0422
H5E H 0.5683 1.2031 0.0281
C4E C 0.6409(2) 1.2344(5) 0.1449(3)
C5E C 0.6108(2) 1.3837(5) 0.1442(3)
C6E C 0.5408(2) 1.4088(6) 0.1064(3)
C7E C 0.5126(3) 1.5377(6) 0.1051(3)
H6E H 0.4650 1.5491 0.0792
C8E C 0.5558(3) 1.6493(6) 0.1426(3)
C9E C 0.6270(3) 1.6334(6) 0.1821(3)
H7E H 0.6564 1.7107 0.2075
C10E C 0.6525(2) 1.5006(6) 0.1824(3)
H8E H 0.7002 1.4883 0.2096
C11E C 0.6174(2) 1.1205(5) 0.1811(3)
H9E H 0.6424 1.0319 0.1881
H10E H 0.5686 1.1014 0.1454
C12E C 0.6872(2) 1.1729(5) 0.3268(3)
H11E H 0.7308 1.1478 0.3375
C13E C 0.6048(3) 1.2426(7) 0.3356(3)
H12E H 0.5804 1.2774 0.3570
H16E H 0.731(4) 1.306(10) 0.180(6)
O2 O 0.8516(5) 0.3032(11) 0.1427(4)
H1 H 0.8482 0.2577 0.1061
C14 C 0.7859(2) 0.3275(6) 0.1292(3)
H13 H 0.7886 0.4005 0.1642
H14 H 0.7686 0.2402 0.1379
H15 H 0.7554 0.3586 0.0763
loop_
_geom_bond_atom_site_label_1
_geom_bond_atom_site_label_2
_geom_bond_site_symmetry_1
_geom_bond_site_symmetry_2
Co1 Cl1 1_555 1_555
O1 C4 1_555 1_555
O2 H1 1_555 1_555
F1 C6 1_555 1_555
F2 C8 1_555 1_555
N1 Co1 1_555 1_555
N2 N3 1_555 1_555
N3 C2 1_555 1_555
N4 N5 1_555 1_555
N5 C11 1_555 1_555
N6 C12 1_555 1_555
C1 N1 1_555 1_555
H2 C1 1_555 1_555
C2 N1 1_555 1_555
H3 C2 1_555 1_555
C3 N3 1_555 1_555
H4 C3 1_555 1_555
H5 C3 1_555 1_555
C4 C3 1_555 1_555
C5 C4 1_555 1_555
C6 C5 1_555 1_555
C7 C6 1_555 1_555
H6 C7 1_555 1_555
C8 C7 1_555 1_555
C9 C8 1_555 1_555
H7 C9 1_555 1_555
C10 C5 1_555 1_555
H8 C10 1_555 1_555
C11 C4 1_555 1_555
H9 C11 1_555 1_555
H10 C11 1_555 1_555
C12 N5 1_555 1_555
H11 C12 1_555 1_555
C13 N4 1_555 1_555
H12 C13 1_555 1_555
C14 O2 1_555 1_555
H13 C14 1_555 1_555
H14 C14 1_555 1_555
H15 C14 1_555 1_555
H16 O1 1_555 1_555
Co1F N6 1_555 1_555
Co1F_2 N6E 1_555 1_555
Cl1E Co1 1_555 1_555
O1E C4E 1_555 1_555
F1E C6E 1_555 1_555
F2E C8E 1_555 1_555
N1E Co1 1_555 1_555
N2E N3E 1_555 1_555
N3E C2E 1_555 1_555
N4E N5E 1_555 1_555
N5E C11E 1_555 1_555
N6E C12E 1_555 1_555
N6F Co1 1_555 1_555
N6C Co1 1_555 1_555
C1E N1E 1_555 1_555
H2E C1E 1_555 1_555
C2E N1E 1_555 1_555
H3E C2E 1_555 1_555
C3E N3E 1_555 1_555
H4E C3E 1_555 1_555
H5E C3E 1_555 1_555
C4E C3E 1_555 1_555
C5E C4E 1_555 1_555
C6E C5E 1_555 1_555
C7E C6E 1_555 1_555
H6E C7E 1_555 1_555
C8E C7E 1_555 1_555
C9E C8E 1_555 1_555
H7E C9E 1_555 1_555
C10E C5E 1_555 1_555
H8E C10E 1_555 1_555
C11E C4E 1_555 1_555
H9E C11E 1_555 1_555
H10E C11E 1_555 1_555
C12E N5E 1_555 1_555
H11E C12E 1_555 1_555
C13E N4E 1_555 1_555
H12E C13E 1_555 1_555
H16E O1E 1_555 1_555
N2 C1 1_555 1_555
N6 C13 1_555 1_555
C9 C10 1_555 1_555
N2E C1E 1_555 1_555
N6E C13E 1_555 1_555
C9E C10E 1_555 1_555

#END
