
#######################################################################
#
#                 Cambridge Crystallographic Data Centre
#                                CCDC 
#
#######################################################################
#
# If this CIF has been generated from an entry in the Cambridge 
# Structural Database, then it will include bibliographic, chemical, 
# crystal, experimental, refinement or atomic coordinate data resulting 
# from the CCDC's data processing and validation procedures.
#
#######################################################################

data_UCULIO
_symmetry_cell_setting           monoclinic
_symmetry_space_group_name_H-M   'P 21/n'
_symmetry_Int_Tables_number      14
_space_group_name_Hall           '-P 2yn'
loop_
_symmetry_equiv_pos_site_id
_symmetry_equiv_pos_as_xyz
1 x,y,z
2 1/2-x,1/2+y,1/2-z
3 -x,-y,-z
4 1/2+x,1/2-y,1/2+z
_cell_length_a                   7.674(3)
_cell_length_b                   27.815(9)
_cell_length_c                   26.611(9)
_cell_angle_alpha                90
_cell_angle_beta                 94.640(7)
_cell_angle_gamma                90
_cell_volume                     5661.56
loop_
_atom_site_label
_atom_site_type_symbol
_atom_site_fract_x
_atom_site_fract_y
_atom_site_fract_z
Cd1 Cd 0.53481(8) 0.14200(2) 0.85861(2)
C1 C 0.3573(9) 0.0587(3) 0.7898(3)
Cl1 Cl -0.5260(3) -0.10964(9) 0.81363(11)
N1 N 0.4801(9) 0.1383(2) 0.9429(3)
Cd2 Cd -0.40487(8) 0.18019(2) 0.60169(2)
C2 C 0.2147(10) 0.0205(3) 0.7858(3)
H1 H 0.1787 0.0144 0.7498
H2 H 0.2619 -0.0099 0.8008
Cl2 Cl 0.6166(5) -0.07637(12) 0.56389(15)
N2 N 0.6129(9) 0.2160(3) 0.8950(3)
Cd3 Cd 0.57348(7) 0.13884(2) 0.72704(2)
C3 C -0.1553(11) 0.1031(3) 0.8272(4)
Cl3 Cl 0.5094(7) 0.42058(14) 0.8231(2)
N3 N -0.5053(9) 0.2598(3) 0.5882(3)
C4 C -0.0047(13) 0.0837(3) 0.8006(5)
H3 H -0.0380 0.0849 0.7639
H4 H 0.0954 0.1058 0.8074
O4 O 0.4149(7) 0.07045(19) 0.8343(2)
N4 N -0.3715(9) 0.2000(3) 0.5191(3)
C5 C 0.0561(11) 0.0357(3) 0.8125(4)
H5 H 0.0972 0.0367 0.8492
O5 O 0.4039(7) 0.0764(2) 0.7503(2)
C6 C -0.0861(11) -0.0033(3) 0.8079(4)
O6 O -0.1851(8) 0.0951(2) 0.8716(2)
C7 C -0.0719(11) -0.0415(3) 0.8396(3)
H6 H 0.0312 -0.0453 0.8615
O7 O -0.2503(8) 0.1322(2) 0.8012(2)
C8 C -0.2038(13) -0.0746(3) 0.8406(4)
H7 H -0.1928 -0.1007 0.8637
O8 O -0.1691(9) 0.2134(2) 0.6437(3)
C9 C -0.3510(12) -0.0704(3) 0.8084(3)
O9 O -0.2906(8) 0.2108(2) 0.7171(3)
C10 C -0.3662(11) -0.0340(3) 0.7735(3)
H8 H -0.4659 -0.0318 0.7500
O10 O 0.4226(8) 0.1804(2) 0.7833(2)
C11 C -0.2317(11) 0.0000(3) 0.7734(4)
H9 H -0.2398 0.0255 0.7495
O11 O 0.2319(9) 0.1829(3) 0.8370(2)
C12 C 0.4154(15) 0.1014(4) 0.9659(4)
H10 H 0.3927 0.0726 0.9473
O12 O -0.2810(8) 0.1082(2) 0.5993(2)
C13 C 0.3784(16) 0.1025(5) 1.0163(5)
H11 H 0.3316 0.0750 1.0317
O13 O -0.2687(8) 0.0905(2) 0.6816(2)
C14 C 0.4105(14) 0.1432(5) 1.0428(4)
H12 H 0.3872 0.1442 1.0773
O14 O 0.3091(7) 0.1431(2) 0.5793(2)
C15 C 0.4771(12) 0.1841(4) 1.0207(3)
O15 O 0.3968(7) 0.15940(19) 0.6581(2)
C16 C 0.5154(15) 0.2281(5) 1.0456(4)
H13 H 0.4917 0.2307 1.0800
C17 C 0.5826(16) 0.2661(5) 1.0238(5)
H14 H 0.6075 0.2947 1.0425
C18 C 0.6166(12) 0.2632(4) 0.9721(4)
C19 C 0.6850(14) 0.3020(4) 0.9458(6)
H15 H 0.7123 0.3314 0.9629
C20 C 0.7114(16) 0.2977(4) 0.8967(6)
H16 H 0.7575 0.3239 0.8791
C21 C 0.6706(13) 0.2545(4) 0.8719(4)
H17 H 0.6848 0.2525 0.8368
C22 C 0.5131(10) 0.1795(3) 0.9701(3)
C23 C 0.5841(10) 0.2204(3) 0.9440(3)
C24 C -0.2249(10) 0.0847(3) 0.6377(3)
C25 C -0.0882(10) 0.0470(3) 0.6287(3)
H18 H -0.1382 0.0228 0.6043
H19 H -0.0522 0.0303 0.6607
C26 C 0.2904(9) 0.1388(3) 0.6245(3)
C27 C 0.1400(10) 0.1110(3) 0.6429(3)
H20 H 0.0432 0.1336 0.6478
H21 H 0.1776 0.0969 0.6762
C28 C 0.0711(10) 0.0709(3) 0.6080(3)
H22 H 0.0310 0.0859 0.5749
C29 C 0.2106(10) 0.0338(3) 0.5981(3)
C30 C 0.3423(12) 0.0204(3) 0.6340(3)
H23 H 0.3481 0.0349 0.6664
C31 C 0.4643(12) -0.0132(3) 0.6235(4)
H24 H 0.5538 -0.0219 0.6486
C32 C 0.4577(12) -0.0342(3) 0.5774(4)
C33 C 0.3318(16) -0.0215(4) 0.5404(4)
H25 H 0.3296 -0.0357 0.5079
C34 C 0.2093(12) 0.0121(3) 0.5508(4)
H26 H 0.1214 0.0208 0.5253
C35 C -0.1813(11) 0.2265(3) 0.6885(4)
C36 C -0.0585(12) 0.2653(3) 0.7096(3)
H27 H 0.0127 0.2763 0.6823
H28 H -0.1293 0.2930 0.7194
C37 C 0.2730(11) 0.1892(3) 0.7945(3)
C38 C 0.1444(14) 0.2049(4) 0.7513(5)
H29 H 0.2062 0.2040 0.7200
H30 H 0.0504 0.1805 0.7475
C39 C 0.0622(14) 0.2513(3) 0.7538(4)
H31 H -0.0174 0.2474 0.7815
C40 C 0.1788(14) 0.2929(3) 0.7717(3)
C41 C 0.1108(16) 0.3295(3) 0.7992(4)
H32 H -0.0071 0.3276 0.8075
C42 C 0.211(2) 0.3686(4) 0.8148(4)
H33 H 0.1625 0.3935 0.8338
C43 C 0.380(2) 0.3712(4) 0.8026(5)
C44 C 0.4531(16) 0.3364(4) 0.7756(5)
H34 H 0.5708 0.3389 0.7672
C45 C 0.3497(15) 0.2965(4) 0.7601(4)
H35 H 0.3988 0.2716 0.7413
C46 C -0.5666(12) 0.2879(4) 0.6220(4)
H36 H -0.5763 0.2754 0.6550
C47 C -0.6183(14) 0.3351(4) 0.6120(5)
H37 H -0.6627 0.3544 0.6375
C48 C -0.6040(13) 0.3532(4) 0.5647(5)
H38 H -0.6364 0.3855 0.5572
C49 C -0.5416(12) 0.3240(3) 0.5275(4)
C50 C -0.5207(15) 0.3385(4) 0.4762(5)
H39 H -0.5561 0.3700 0.4660
C51 C -0.4544(14) 0.3101(4) 0.4427(4)
H40 H -0.4412 0.3217 0.4097
C52 C -0.4031(12) 0.2627(4) 0.4555(3)
C53 C -0.3315(14) 0.2306(5) 0.4222(4)
H41 H -0.3141 0.2408 0.3889
C54 C -0.2875(14) 0.1861(4) 0.4362(4)
H42 H -0.2432 0.1643 0.4128
C55 C -0.3072(12) 0.1715(4) 0.4860(4)
H43 H -0.2728 0.1399 0.4961
C56 C -0.4899(11) 0.2763(3) 0.5408(3)
C57 C -0.4202(10) 0.2454(3) 0.5051(3)
Cd1_2 Cd -0.46519(8) 0.14200(2) 0.85861(2)
Cd2_2 Cd 0.59513(8) 0.18019(2) 0.60169(2)
Cd3_2 Cd -0.42652(7) 0.13884(2) 0.72704(2)
O6_2 O 0.8149(8) 0.0951(2) 0.8716(2)
O7_2 O 0.7497(8) 0.1322(2) 0.8012(2)
O9_2 O 0.7094(8) 0.2108(2) 0.7171(3)
O13_2 O 0.7313(8) 0.0905(2) 0.6816(2)
O14_2 O -0.6909(7) 0.1431(2) 0.5793(2)
O15_2 O -0.6032(7) 0.15940(19) 0.6581(2)
O1 O 0.1823(14) -0.0254(4) 0.9539(3)
H46 H 0.248(13) -0.019(4) 0.936(4)
H47 H 0.182(13) -0.034(3) 0.980(4)
O2 O 0.4872(15) -0.0046(4) 0.9061(4)
H48 H 0.580(12) -0.001(4) 0.920(4)
H49 H 0.475(14) 0.014(4) 0.890(4)
O3 O 0.8518(14) 0.0238(4) 0.9435(3)
H44 H 0.846(12) 0.045(3) 0.923(3)
H45 H 0.961(12) 0.000(3) 0.945(3)
loop_
_geom_bond_atom_site_label_1
_geom_bond_atom_site_label_2
_geom_bond_site_symmetry_1
_geom_bond_site_symmetry_2
Cd1 N1 1_555 1_555
C1 C2 1_555 1_555
O1 H46 1_555 1_555
Cl1 C9 1_555 1_555
N1 C12 1_555 1_555
Cd2 N3 1_555 1_555
C2 H1 1_555 1_555
H2 C2 1_555 1_555
O2 H48 1_555 1_555
Cl2 C32 1_555 1_555
N2 Cd1 1_555 1_555
Cd3 O5 1_555 1_555
C3 C4 1_555 1_555
O3 H44 1_555 1_555
Cl3 C43 1_555 1_555
N3 C46 1_555 1_555
C4 H3 1_555 1_555
H4 C4 1_555 1_555
O4 Cd1 1_555 1_555
N4 Cd2 1_555 1_555
C5 C2 1_555 1_555
H5 C5 1_555 1_555
O5 C1 1_555 1_555
C6 C5 1_555 1_555
O6 C3 1_555 1_555
C7 C6 1_555 1_555
H6 C7 1_555 1_555
O7 C3 1_555 1_555
C8 C7 1_555 1_555
H7 C8 1_555 1_555
O8 Cd2 1_555 1_555
C9 C8 1_555 1_555
O9 C35 1_555 1_555
C10 C9 1_555 1_555
H8 C10 1_555 1_555
O10 Cd1 1_555 1_555
C11 C6 1_555 1_555
H9 C11 1_555 1_555
O11 C37 1_555 1_555
C12 H10 1_555 1_555
O12 Cd2 1_555 1_555
C13 C12 1_555 1_555
H11 C13 1_555 1_555
O13 C24 1_555 1_555
C14 C13 1_555 1_555
H12 C14 1_555 1_555
O14 C26 1_555 1_555
C15 C14 1_555 1_555
O15 Cd3 1_555 1_555
C16 C15 1_555 1_555
H13 C16 1_555 1_555
C17 C16 1_555 1_555
H14 C17 1_555 1_555
C18 C17 1_555 1_555
C19 C18 1_555 1_555
H15 C19 1_555 1_555
C20 C19 1_555 1_555
H16 C20 1_555 1_555
C21 N2 1_555 1_555
H17 C21 1_555 1_555
C22 N1 1_555 1_555
C23 N2 1_555 1_555
C24 O12 1_555 1_555
C25 C24 1_555 1_555
H18 C25 1_555 1_555
H19 C25 1_555 1_555
C26 O15 1_555 1_555
C27 C26 1_555 1_555
H20 C27 1_555 1_555
H21 C27 1_555 1_555
C28 C25 1_555 1_555
H22 C28 1_555 1_555
C29 C28 1_555 1_555
C30 C29 1_555 1_555
H23 C30 1_555 1_555
C31 C30 1_555 1_555
H24 C31 1_555 1_555
C32 C31 1_555 1_555
C33 C32 1_555 1_555
H25 C33 1_555 1_555
C34 C29 1_555 1_555
H26 C34 1_555 1_555
C35 O8 1_555 1_555
C36 C35 1_555 1_555
H27 C36 1_555 1_555
H28 C36 1_555 1_555
C37 O10 1_555 1_555
C38 C37 1_555 1_555
H29 C38 1_555 1_555
H30 C38 1_555 1_555
C39 C36 1_555 1_555
H31 C39 1_555 1_555
C40 C39 1_555 1_555
C41 C40 1_555 1_555
H32 C41 1_555 1_555
C42 C41 1_555 1_555
H33 C42 1_555 1_555
C43 C42 1_555 1_555
C44 C43 1_555 1_555
H34 C44 1_555 1_555
C45 C40 1_555 1_555
H35 C45 1_555 1_555
C46 H36 1_555 1_555
C47 C46 1_555 1_555
H37 C47 1_555 1_555
C48 C47 1_555 1_555
H38 C48 1_555 1_555
C49 C48 1_555 1_555
C50 C49 1_555 1_555
H39 C50 1_555 1_555
C51 C50 1_555 1_555
H40 C51 1_555 1_555
C52 C51 1_555 1_555
C53 C52 1_555 1_555
H41 C53 1_555 1_555
C54 C53 1_555 1_555
H42 C54 1_555 1_555
C55 N4 1_555 1_555
H43 C55 1_555 1_555
C56 N3 1_555 1_555
C57 N4 1_555 1_555
H45 O3 1_555 1_555
H47 O1 1_555 1_555
H49 O2 1_555 1_555
Cd1_2 O6 1_555 1_555
Cd2_2 O14 1_555 1_555
Cd3_2 O7 1_555 1_555
O6_2 Cd1 1_555 1_555
O7_2 Cd1 1_555 1_555
O9_2 Cd3 1_555 1_555
O13_2 Cd3 1_555 1_555
O14_2 Cd2 1_555 1_555
O15_2 Cd2 1_555 1_555
C1 O4 1_555 1_555
Cd3 O10 1_555 1_555
Cd3 O7_2 1_555 1_555
C4 C5 1_555 1_555
O7 Cd1_2 1_555 1_555
O9 Cd3_2 1_555 1_555
C10 C11 1_555 1_555
O13 Cd3_2 1_555 1_555
C15 C22 1_555 1_555
O15 Cd2_2 1_555 1_555
C18 C23 1_555 1_555
C20 C21 1_555 1_555
C22 C23 1_555 1_555
C27 C28 1_555 1_555
C33 C34 1_555 1_555
C38 C39 1_555 1_555
C44 C45 1_555 1_555
C49 C56 1_555 1_555
C52 C57 1_555 1_555
C54 C55 1_555 1_555
C56 C57 1_555 1_555
Cd3_2 O15_2 1_555 1_555

#END
