
#######################################################################
#
#                 Cambridge Crystallographic Data Centre
#                                CCDC 
#
#######################################################################
#
# If this CIF has been generated from an entry in the Cambridge 
# Structural Database, then it will include bibliographic, chemical, 
# crystal, experimental, refinement or atomic coordinate data resulting 
# from the CCDC's data processing and validation procedures.
#
#######################################################################

data_UCULOU
_symmetry_cell_setting           monoclinic
_symmetry_space_group_name_H-M   'P 21/c'
_symmetry_Int_Tables_number      14
_space_group_name_Hall           '-P 2ybc'
loop_
_symmetry_equiv_pos_site_id
_symmetry_equiv_pos_as_xyz
1 x,y,z
2 -x,1/2+y,1/2-z
3 -x,-y,-z
4 x,1/2-y,1/2+z
_cell_length_a                   11.1744(6)
_cell_length_b                   8.5230(5)
_cell_length_c                   26.1459(14)
_cell_angle_alpha                90
_cell_angle_beta                 111.879(3)
_cell_angle_gamma                90
_cell_volume                     2310.76
loop_
_atom_site_label
_atom_site_type_symbol
_atom_site_fract_x
_atom_site_fract_y
_atom_site_fract_z
Cd1 Cd 0.635853(16) 0.57873(2) -0.015872(7)
O1 O 0.71599(19) 0.6608(3) 0.09384(9)
N1 N 0.7944(2) 0.3933(3) 0.02066(10)
C1 C 0.7125(3) 0.6007(4) -0.12785(13)
H1 H 0.6428 0.6729 -0.1404
O2 O 0.5170(2) 0.6215(2) 0.03831(8)
N2 N 0.7407(2) 0.5345(3) -0.07906(10)
C2 C 0.7809(4) 0.5690(5) -0.16178(16)
H2 H 0.7578 0.6184 -0.1967
O3 O 0.5314(2) 1.2819(3) 0.08968(9)
C3 C 0.8817(4) 0.4658(5) -0.14397(16)
H3 H 0.9292 0.4428 -0.1666
O4 O 0.3710(2) 1.1530(3) 0.02924(9)
C4 C 0.9148(3) 0.3943(4) -0.09256(15)
C5 C 0.8406(3) 0.4313(3) -0.06094(12)
C6 C 1.0201(3) 0.2859(4) -0.07096(19)
H10 H 1.0720 0.2627 -0.0917
C7 C 1.0460(3) 0.2168(4) -0.02181(19)
H11 H 1.1162 0.1456 -0.0083
C8 C 0.9704(2) 0.2481(3) 0.01062(14)
C9 C 0.8680(2) 0.3573(3) -0.00876(12)
C10 C 0.9918(3) 0.1761(4) 0.06152(17)
H12 H 1.0604 0.1031 0.0762
C11 C 0.9159(4) 0.2098(4) 0.08968(16)
H13 H 0.9288 0.1587 0.1236
C12 C 0.8176(3) 0.3214(4) 0.06837(14)
H14 H 0.7657 0.3465 0.0889
C13 C 0.4252(3) 0.9461(3) 0.14932(10)
C14 C 0.2980(3) 0.9236(3) 0.14199(13)
H15 H 0.2421 0.8721 0.1097
C15 C 0.2498(3) 0.9747(5) 0.18089(15)
H16 H 0.1618 0.9571 0.1753
C16 C 0.3288(4) 1.0505(4) 0.22734(14)
H17 H 0.2959 1.0858 0.2540
C17 C 0.4560(4) 1.0752(5) 0.23524(14)
H18 H 0.5110 1.1286 0.2673
C18 C 0.5043(3) 1.0221(5) 0.19640(12)
H19 H 0.5926 1.0383 0.2023
C19 C 0.4735(3) 0.8852(3) 0.10584(11)
H20 H 0.3960 0.8600 0.0722
C20 C 0.5484(2) 0.7303(3) 0.12604(9)
H21 H 0.6210 0.7494 0.1614
H22 H 0.4904 0.6520 0.1328
C21 C 0.6002(2) 0.6647(3) 0.08450(10)
C22 C 0.5523(3) 1.0041(3) 0.08918(12)
H23 H 0.5768 0.9589 0.0596
H24 H 0.6327 1.0259 0.1211
C23 C 0.4807(3) 1.1579(4) 0.06895(11)
Cd1B Cd 0.364147(16) 0.42127(2) 0.015872(7)
Cd1B_2 Cd 0.364147(16) 1.42127(2) 0.015872(7)
O2B O 0.4830(2) 0.3785(2) -0.03831(8)
O3B O 0.4686(2) 0.7181(3) -0.08968(9)
O4B O 0.6290(2) 0.8470(3) -0.02924(9)
O5 O 0.2585(4) 0.7897(5) 0.31407(14)
H8 H 0.3321 0.7944 0.3451
H9 H 0.2032 0.6959 0.3324
O6 O 0.0788(5) 0.5499(7) 0.27986(18)
H5 H -0.0033 0.5824 0.2540
H7 H 0.1439 0.4665 0.2806
H4 H 0.0580 0.2745 0.3087
H6 H 0.1731 0.1954 0.3368
O7 O 0.1171(4) 0.2196(6) 0.29680(16)
loop_
_geom_bond_atom_site_label_1
_geom_bond_atom_site_label_2
_geom_bond_site_symmetry_1
_geom_bond_site_symmetry_2
Cd1 N1 1_555 1_555
O1 C21 1_555 1_555
N1 C9 1_555 1_555
C1 H1 1_555 1_555
O2 Cd1 1_555 1_555
N2 Cd1 1_555 1_555
C2 C1 1_555 1_555
H2 C2 1_555 1_555
O3 C23 1_555 1_555
C3 C2 1_555 1_555
H3 C3 1_555 1_555
O4 C23 1_555 1_555
C4 C3 1_555 1_555
O5 H8 1_555 1_555
C5 N2 1_555 1_555
O6 H5 1_555 1_555
H4 O7 1_555 1_555
H6 O7 1_555 1_555
H7 O6 1_555 1_555
H9 O5 1_555 1_555
C6 C4 1_555 1_555
H10 C6 1_555 1_555
C7 C6 1_555 1_555
H11 C7 1_555 1_555
C8 C7 1_555 1_555
C9 C5 1_555 1_555
C10 C8 1_555 1_555
H12 C10 1_555 1_555
C11 C10 1_555 1_555
H13 C11 1_555 1_555
C12 N1 1_555 1_555
H14 C12 1_555 1_555
C13 C14 1_555 1_555
C14 H15 1_555 1_555
C15 C14 1_555 1_555
H16 C15 1_555 1_555
C16 C15 1_555 1_555
H17 C16 1_555 1_555
C17 C16 1_555 1_555
H18 C17 1_555 1_555
C18 C13 1_555 1_555
H19 C18 1_555 1_555
C19 C13 1_555 1_555
H20 C19 1_555 1_555
C20 C19 1_555 1_555
H21 C20 1_555 1_555
H22 C20 1_555 1_555
C21 O2 1_555 1_555
C22 C19 1_555 1_555
H23 C22 1_555 1_555
H24 C22 1_555 1_555
C23 C22 1_555 1_555
Cd1B O2 1_555 1_555
Cd1B_2 O3 1_555 1_555
O2B Cd1 1_555 1_555
O3B Cd1 1_555 1_555
O4B Cd1 1_555 1_555
C1 N2 1_555 1_555
O4 Cd1B_2 1_555 1_555
C4 C5 1_555 1_555
C8 C9 1_555 1_555
C11 C12 1_555 1_555
C17 C18 1_555 1_555
C20 C21 1_555 1_555
Cd1B O2B 1_555 1_555

#END
