
#######################################################################
#
#                 Cambridge Crystallographic Data Centre
#                                CCDC 
#
#######################################################################
#
# If this CIF has been generated from an entry in the Cambridge 
# Structural Database, then it will include bibliographic, chemical, 
# crystal, experimental, refinement or atomic coordinate data resulting 
# from the CCDC's data processing and validation procedures.
#
#######################################################################

data_UCUNAI
_symmetry_cell_setting           monoclinic
_symmetry_space_group_name_H-M   'P 21/c'
_symmetry_Int_Tables_number      14
_space_group_name_Hall           '-P 2ybc'
loop_
_symmetry_equiv_pos_site_id
_symmetry_equiv_pos_as_xyz
1 x,y,z
2 -x,1/2+y,1/2-z
3 -x,-y,-z
4 x,1/2-y,1/2+z
_cell_length_a                   13.4123(10)
_cell_length_b                   15.2719(10)
_cell_length_c                   13.6859(8)
_cell_angle_alpha                90
_cell_angle_beta                 91.274(3)
_cell_angle_gamma                90
_cell_volume                     2802.61
loop_
_atom_site_label
_atom_site_type_symbol
_atom_site_fract_x
_atom_site_fract_y
_atom_site_fract_z
Pb1 Pb -0.15974(3) 0.20686(3) -0.21839(3)
Pb2 Pb -0.40321(3) 0.44545(3) 0.35338(3)
Pb3 Pb -0.31488(3) 0.80883(3) -0.23980(3)
Pb4 Pb -0.14129(4) 0.53168(3) 0.41624(3)
S1 S -0.4162(2) 0.30468(17) -0.1941(2)
S2 S -0.0947(2) 0.71546(17) -0.1188(2)
O1 O -0.3608(7) 0.7088(5) -0.1093(6)
O3 O -0.3784(7) 0.6402(5) -0.2498(6)
O5 O -0.3602(6) 0.5243(5) 0.1977(6)
O7 O -0.3521(7) 0.3825(5) 0.1843(6)
O9 O -0.4942(6) 0.3276(6) -0.2651(6)
O11 O -0.3216(6) 0.2953(6) -0.2440(6)
O12 O -0.4404(7) 0.2320(5) -0.1309(7)
O13 O -0.1064(8) 0.3752(6) -0.2032(7)
O14 O -0.1582(7) 0.3054(5) -0.0741(6)
O15 O -0.1083(7) 0.4624(5) 0.2492(6)
O16 O -0.1427(6) 0.6018(5) 0.2519(6)
O17 O -0.1512(8) 0.7056(6) -0.2082(7)
O18 O -0.1323(9) 0.7855(6) -0.0582(8)
O19 O 0.0105(6) 0.7221(6) -0.1344(8)
O20 O -0.2436(6) 0.3951(5) 0.3932(6)
H11 H -0.255(10) 0.367(8) 0.450(5)
O21 O -0.3083(6) 0.5829(5) 0.3898(6)
H12 H -0.326(9) 0.614(8) 0.442(6)
O22 O -0.0034(11) 0.1593(9) -0.1128(12)
H13 H 0.0452 0.1554 -0.1478
H14 H -0.009(7) 0.187(14) -0.055(9)
C1 C -0.3804(8) 0.5534(7) -0.1080(8)
C2 C -0.3689(8) 0.5464(7) -0.0073(8)
H15 H -0.3571 0.5965 0.0298
C3 C -0.3748(8) 0.4649(6) 0.0393(7)
C4 C -0.3910(7) 0.3902(7) -0.0173(8)
H16 H -0.3950 0.3354 0.0119
C5 C -0.4008(8) 0.3991(7) -0.1166(8)
C6 C -0.3939(8) 0.4793(7) -0.1627(7)
H17 H -0.3984 0.4828 -0.2305
C7 C -0.3730(8) 0.6384(7) -0.1582(8)
C8 C -0.3609(8) 0.4567(7) 0.1461(7)
C9 C -0.1264(7) 0.4589(7) -0.0581(8)
C10 C -0.1278(7) 0.4582(6) 0.0443(7)
H18 H -0.1312 0.4052 0.0776
C11 C -0.1241(7) 0.5356(7) 0.0955(8)
C12 C -0.1188(8) 0.6161(7) 0.0479(8)
H19 H -0.1183 0.6684 0.0828
C13 C -0.1142(8) 0.6157(7) -0.0539(8)
C14 C -0.1187(7) 0.5382(7) -0.1085(8)
H20 H -0.1166 0.5394 -0.1764
C15 C -0.1302(8) 0.3751(7) -0.1167(8)
C16 C -0.1257(8) 0.5324(7) 0.2059(8)
Pb1C Pb -0.15974(3) 0.29314(3) 0.28161(3)
Pb3C Pb -0.31488(3) 0.69117(3) 0.26020(3)
Pb3A Pb -0.68512(3) 0.30883(3) -0.26020(3)
Pb4C Pb -0.14129(4) -0.03168(3) -0.08376(3)
O5C O -0.3602(6) 0.9757(5) -0.3023(6)
O9A O -0.5058(6) 0.8276(6) -0.2349(6)
O15C O -0.1083(7) 0.0376(5) -0.2508(6)
O16C O -0.1427(6) 0.8982(5) -0.2481(6)
O20C O -0.2436(6) 0.1049(5) -0.1068(6)
H11C H -0.255(10) 0.133(8) -0.050(5)
O21C O -0.3083(6) 0.9171(5) -0.1102(6)
H12C H -0.326(9) 0.886(8) -0.058(6)
O2 O -0.2551(17) -0.0316(16) 0.1115(12)
H1 H -0.23(3) 0.006(16) 0.155(19)
H2 H -0.28(3) -0.010(19) 0.055(14)
O4 O -0.2291(10) 0.2079(8) 0.0736(8)
H3 H -0.202(13) 0.228(10) 0.018(7)
H4 H -0.238(15) 0.246(8) 0.123(8)
O6 O -0.3496(10) -0.2093(11) 0.0612(10)
H5 H -0.403(8) -0.194(13) 0.096(14)
H6 H -0.292(7) -0.180(12) 0.071(16)
O8 O 0.0674(9) -0.0713(9) -0.1122(11)
H7 H 0.008(6) -0.097(10) -0.126(17)
H8 H 0.123(7) -0.104(10) -0.116(17)
O10 O -0.4252(13) 0.0696(11) 0.0592(11)
H9 H -0.361(6) 0.064(14) 0.080(19)
H10 H -0.454(14) 0.123(7) 0.06(2)
loop_
_geom_bond_atom_site_label_1
_geom_bond_atom_site_label_2
_geom_bond_site_symmetry_1
_geom_bond_site_symmetry_2
Pb1 O11 1_555 1_555
Pb2 O5 1_555 1_555
Pb3 O1 1_555 1_555
Pb4 O15 1_555 1_555
S1 O9 1_555 1_555
S2 O17 1_555 1_555
O1 C7 1_555 1_555
O2 H1 1_555 1_555
H2 O2 1_555 1_555
O3 Pb3 1_555 1_555
O4 H3 1_555 1_555
H4 O4 1_555 1_555
O5 C8 1_555 1_555
O6 H5 1_555 1_555
H6 O6 1_555 1_555
O7 Pb2 1_555 1_555
O8 H7 1_555 1_555
H8 O8 1_555 1_555
O9 Pb3A 1_555 1_555
O10 H9 1_555 1_555
H10 O10 1_555 1_555
O11 S1 1_555 1_555
O12 S1 1_555 1_555
O13 Pb1 1_555 1_555
O14 Pb1 1_555 1_555
O15 C16 1_555 1_555
O16 Pb4 1_555 1_555
O17 Pb3 1_555 1_555
O18 S2 1_555 1_555
O19 S2 1_555 1_555
O20 Pb2 1_555 1_555
H11 O20 1_555 1_555
O21 Pb2 1_555 1_555
H12 O21 1_555 1_555
O22 Pb1 1_555 1_555
H13 O22 1_555 1_555
H14 O22 1_555 1_555
C1 C2 1_555 1_555
C2 H15 1_555 1_555
C3 C2 1_555 1_555
C4 C3 1_555 1_555
H16 C4 1_555 1_555
C5 S1 1_555 1_555
C6 C1 1_555 1_555
H17 C6 1_555 1_555
C7 O3 1_555 1_555
C8 O7 1_555 1_555
C9 C10 1_555 1_555
C10 H18 1_555 1_555
C11 C10 1_555 1_555
C12 C11 1_555 1_555
H19 C12 1_555 1_555
C13 S2 1_555 1_555
C14 C9 1_555 1_555
H20 C14 1_555 1_555
C15 O13 1_555 1_555
C16 O16 1_555 1_555
Pb1C O15 1_555 1_555
Pb3C O5 1_555 1_555
Pb4C O15C 1_555 1_555
O5C Pb3 1_555 1_555
O9A Pb3 1_555 1_555
O15C Pb1 1_555 1_555
O16C Pb3 1_555 1_555
O20C Pb1 1_555 1_555
H11C O20C 1_555 1_555
O21C Pb3 1_555 1_555
H12C O21C 1_555 1_555
Pb4 O20 1_555 1_555
Pb4 O21 1_555 1_555
O14 C15 1_555 1_555
O16 Pb3C 1_555 1_555
O20 Pb1C 1_555 1_555
O21 Pb3C 1_555 1_555
C1 C7 1_555 1_555
C3 C8 1_555 1_555
C4 C5 1_555 1_555
C5 C6 1_555 1_555
C9 C15 1_555 1_555
C11 C16 1_555 1_555
C12 C13 1_555 1_555
C13 C14 1_555 1_555
Pb4C O20C 1_555 1_555

#END
