
#######################################################################
#
#                 Cambridge Crystallographic Data Centre
#                                CCDC 
#
#######################################################################
#
# If this CIF has been generated from an entry in the Cambridge 
# Structural Database, then it will include bibliographic, chemical, 
# crystal, experimental, refinement or atomic coordinate data resulting 
# from the CCDC's data processing and validation procedures.
#
#######################################################################

data_UCUPEN
_symmetry_cell_setting           triclinic
_symmetry_space_group_name_H-M   'P -1'
_symmetry_Int_Tables_number      2
_space_group_name_Hall           '-P 1'
loop_
_symmetry_equiv_pos_site_id
_symmetry_equiv_pos_as_xyz
1 x,y,z
2 -x,-y,-z
_cell_length_a                   8.7501(18)
_cell_length_b                   9.1116(18)
_cell_length_c                   10.350(2)
_cell_angle_alpha                83.10(3)
_cell_angle_beta                 75.86(3)
_cell_angle_gamma                68.69(3)
_cell_volume                     745.018
loop_
_atom_site_label
_atom_site_type_symbol
_atom_site_fract_x
_atom_site_fract_y
_atom_site_fract_z
Co1 Co 0.0000 0.0000 0.0000
Co2 Co 0.0000 0.0000 0.5000
Co3 Co -0.16462(4) -0.07713(5) -0.20445(4)
Co4 Co -0.56175(5) 0.13982(5) -0.10177(4)
O1 O -0.1796(2) 0.1204(2) -0.1072(2)
O2 O -0.4433(3) 0.2833(3) -0.0726(3)
C1 C -0.2920(3) 0.2560(4) -0.0806(3)
C2 C -0.2403(4) 0.3898(4) -0.0582(4)
H1 H -0.2544 0.3971 0.0370
H2 H -0.3165 0.4871 -0.0893
C3 C -0.0613(4) 0.3785(4) -0.1253(3)
H3 H -0.0321 0.3291 -0.2102
H4 H -0.0591 0.4847 -0.1443
C4 C 0.0727(3) 0.2893(3) -0.0491(3)
O3 O 0.2111(2) 0.3071(3) -0.0881(2)
O4 O 0.0402(2) 0.1977(2) 0.0495(2)
O5 O -0.1945(2) 0.0308(3) 0.1655(2)
O6 O -0.0737(2) 0.0773(2) 0.3145(2)
C5 C -0.1997(3) 0.0728(4) 0.2768(3)
C6 C -0.3679(4) 0.1236(6) 0.3717(4)
H5 H -0.3870 0.0297 0.4160
H6 H -0.4532 0.1723 0.3198
C7 C -0.3952(4) 0.2377(5) 0.4791(3)
H7 H -0.3114 0.2882 0.4531
H8 H -0.5049 0.3192 0.4850
C8 C -0.3842(4) 0.1575(4) 0.6130(3)
O7 O -0.2395(2) 0.0699(2) 0.6318(2)
O8 O -0.5165(3) 0.1762(3) 0.6976(2)
O9 O -0.1391(3) -0.2672(3) 0.6942(2)
O10 O -0.0261(3) -0.2086(3) 0.4848(2)
O11 O -0.3944(2) -0.0813(3) -0.1034(2)
H9 H -0.403(5) -0.143(5) -0.139(4)
C9 C -0.0855(3) -0.2933(4) 0.5713(3)
C10 C -0.0891(4) -0.4421(4) 0.5232(3)
H10 H -0.1507 -0.4911 0.5949
H11 H -0.1468 -0.4157 0.4501
C10A C 0.0891(4) -0.5579(4) 0.4768(3)
C9A C 0.0855(3) -0.7067(4) 0.4287(3)
O9A O 0.1391(3) -0.7328(3) 0.3058(2)
O10A O 0.0261(3) -0.7914(3) 0.5152(2)
H10A H 0.1507 -0.5089 0.4051
H11A H 0.1468 -0.5843 0.5499
O1A O 0.1796(2) -0.1204(2) 0.1072(2)
O2A O 0.4433(3) -0.2833(3) 0.0726(3)
C1A C 0.2920(3) -0.2560(4) 0.0806(3)
C2A C 0.2403(4) -0.3898(4) 0.0582(4)
H1A H 0.2544 -0.3971 -0.0370
H2A H 0.3165 -0.4871 0.0893
C3A C 0.0613(4) -0.3785(4) 0.1253(3)
H3A H 0.0321 -0.3291 0.2102
H4A H 0.0591 -0.4847 0.1443
C4A C -0.0727(3) -0.2893(3) 0.0491(3)
O3A O -0.2111(2) -0.3071(3) 0.0881(2)
O4A O -0.0402(2) -0.1977(2) -0.0495(2)
O5A O 0.1945(2) -0.0308(3) -0.1655(2)
O6A O 0.0737(2) -0.0773(2) -0.3145(2)
C5A C 0.1997(3) -0.0728(4) -0.2768(3)
C6A C 0.3679(4) -0.1236(6) -0.3717(4)
H5A H 0.3870 -0.0297 -0.4160
H6A H 0.4532 -0.1723 -0.3198
C7A C 0.3952(4) -0.2377(5) -0.4791(3)
H7A H 0.3114 -0.2882 -0.4531
H8A H 0.5049 -0.3192 -0.4850
C8A C 0.3842(4) -0.1575(4) -0.6130(3)
O7A O 0.2395(2) -0.0699(2) -0.6318(2)
O8A O 0.5165(3) -0.1762(3) -0.6976(2)
Co3A Co 0.16462(4) 0.07713(5) 0.20445(4)
Co4A Co 0.56175(5) -0.13982(5) 0.10177(4)
O11A O -0.6056(2) 0.0813(3) 0.1034(2)
H9A H -0.597(5) 0.143(5) 0.139(4)
O6A_2 O 0.0737(2) -0.0773(2) 0.6855(2)
O7A_2 O 0.2395(2) -0.0699(2) 0.3682(2)
O10A_2 O 0.0261(3) 0.2086(3) 0.5152(2)
O7_2 O -0.2395(2) 0.0699(2) -0.3682(2)
O9_2 O -0.1391(3) -0.2672(3) -0.3058(2)
O3_2 O -0.7889(2) 0.3071(3) -0.0881(2)
O8_2 O -0.5165(3) 0.1762(3) -0.3024(2)
Co4_2 Co 0.43825(5) 0.13982(5) -0.10177(4)
Co3_2 Co -0.16462(4) -0.07713(5) 0.79555(4)
Co4_3 Co -0.56175(5) 0.13982(5) 0.89823(4)
Co4A_2 Co -0.43825(5) -0.13982(5) 0.10177(4)
Co3A_2 Co 0.16462(4) -0.92287(5) 0.20445(4)
Co2_2 Co 0.0000 -1.0000 0.5000
Co2_3 Co 0.0000 0.0000 -0.5000
Co3A_3 Co 0.16462(4) 0.07713(5) -0.79555(4)
Co4A_3 Co 0.56175(5) -0.13982(5) -0.89823(4)
O9A_2 O 0.1391(3) 0.2672(3) 0.3058(2)
O11A_2 O 0.3944(2) 0.0813(3) 0.1034(2)
O3A_2 O 0.7889(2) -0.3071(3) 0.0881(2)
O8A_2 O 0.5165(3) -0.1762(3) 0.3024(2)
O11_2 O 0.6056(2) -0.0813(3) -0.1034(2)
Co3A_4 Co -0.83538(4) 0.07713(5) 0.20445(4)
H9A_2 H 0.403(5) 0.143(5) 0.139(4)
H9_2 H 0.597(5) -0.143(5) -0.139(4)
O12 O -0.268(2) 0.4542(16) 0.2812(13)
H12 H -0.3568 0.5167 0.2583
H13 H -0.1938 0.4094 0.2143
loop_
_geom_bond_atom_site_label_1
_geom_bond_atom_site_label_2
_geom_bond_site_symmetry_1
_geom_bond_site_symmetry_2
Co1 O1 1_555 1_555
Co2 O6 1_555 1_555
Co3 O1 1_555 1_555
Co4 O2 1_555 1_555
O1 C1 1_555 1_555
O2 C1 1_555 1_555
C1 C2 1_555 1_555
C2 H1 1_555 1_555
H2 C2 1_555 1_555
C3 C2 1_555 1_555
H3 C3 1_555 1_555
H4 C3 1_555 1_555
C4 C3 1_555 1_555
O3 C4 1_555 1_555
O4 Co1 1_555 1_555
O5 Co1 1_555 1_555
O6 C5 1_555 1_555
C5 O5 1_555 1_555
C6 C5 1_555 1_555
H5 C6 1_555 1_555
H6 C6 1_555 1_555
C7 C6 1_555 1_555
H7 C7 1_555 1_555
H8 C7 1_555 1_555
C8 C7 1_555 1_555
O7 Co2 1_555 1_555
O8 C8 1_555 1_555
O9 C9 1_555 1_555
O10 Co2 1_555 1_555
O11 Co3 1_555 1_555
H9 O11 1_555 1_555
C9 O10 1_555 1_555
C10 C9 1_555 1_555
H10 C10 1_555 1_555
H11 C10 1_555 1_555
O12 H12 1_555 1_555
H13 O12 1_555 1_555
C10A C10 1_555 1_555
C9A C10A 1_555 1_555
O9A C9A 1_555 1_555
O10A C9A 1_555 1_555
H10A C10A 1_555 1_555
H11A C10A 1_555 1_555
O1A Co1 1_555 1_555
O2A C1A 1_555 1_555
C1A O1A 1_555 1_555
C2A C1A 1_555 1_555
H1A C2A 1_555 1_555
H2A C2A 1_555 1_555
C3A C2A 1_555 1_555
H3A C3A 1_555 1_555
H4A C3A 1_555 1_555
C4A C3A 1_555 1_555
O3A C4A 1_555 1_555
O4A Co1 1_555 1_555
O5A Co1 1_555 1_555
O6A Co3 1_555 1_555
C5A O5A 1_555 1_555
C6A C5A 1_555 1_555
H5A C6A 1_555 1_555
H6A C6A 1_555 1_555
C7A C6A 1_555 1_555
H7A C7A 1_555 1_555
H8A C7A 1_555 1_555
C8A C7A 1_555 1_555
O7A C8A 1_555 1_555
O8A C8A 1_555 1_555
Co3A O4 1_555 1_555
Co4A O2A 1_555 1_555
O11A Co4 1_555 1_555
H9A O11A 1_555 1_555
O6A_2 Co2 1_555 1_555
O7A_2 Co2 1_555 1_555
O10A_2 Co2 1_555 1_555
O7_2 Co3 1_555 1_555
O9_2 Co3 1_555 1_555
O3_2 Co4 1_555 1_555
O8_2 Co4 1_555 1_555
Co4_2 O3 1_555 1_555
Co3_2 O7 1_555 1_555
Co4_3 O8 1_555 1_555
Co4A_2 O11 1_555 1_555
Co3A_2 O9A 1_555 1_555
Co2_2 O10A 1_555 1_555
Co2_3 O6A 1_555 1_555
Co3A_3 O7A 1_555 1_555
Co4A_3 O8A 1_555 1_555
O9A_2 Co3A 1_555 1_555
O11A_2 Co3A 1_555 1_555
O3A_2 Co4A 1_555 1_555
O8A_2 Co4A 1_555 1_555
O11_2 Co4A 1_555 1_555
Co3A_4 O11A 1_555 1_555
H9A_2 O11A_2 1_555 1_555
H9_2 O11_2 1_555 1_555
Co3 O4A 1_555 1_555
Co4 O11 1_555 1_555
C4 O4 1_555 1_555
O6 Co3A 1_555 1_555
C8 O7 1_555 1_555
O9 Co3_2 1_555 1_555
O1A Co3A 1_555 1_555
C4A O4A 1_555 1_555
O3A Co4A_2 1_555 1_555
O6A C5A 1_555 1_555
O7A Co2_3 1_555 1_555
Co3A O7A_2 1_555 1_555
Co4A O11A_2 1_555 1_555
O11A Co4A_2 1_555 1_555
O6A_2 Co3_2 1_555 1_555
O7_2 Co2_3 1_555 1_555
Co4_2 O11_2 1_555 1_555
Co4_2 O11A_2 1_555 1_555

#END
