
#######################################################################
#
#                 Cambridge Crystallographic Data Centre
#                                CCDC 
#
#######################################################################
#
# If this CIF has been generated from an entry in the Cambridge 
# Structural Database, then it will include bibliographic, chemical, 
# crystal, experimental, refinement or atomic coordinate data resulting 
# from the CCDC's data processing and validation procedures.
#
#######################################################################

data_UCUQEP
_symmetry_cell_setting           monoclinic
_symmetry_space_group_name_H-M   'P 21/n'
_symmetry_Int_Tables_number      14
_space_group_name_Hall           '-P 2yn'
loop_
_symmetry_equiv_pos_site_id
_symmetry_equiv_pos_as_xyz
1 x,y,z
2 1/2-x,1/2+y,1/2-z
3 -x,-y,-z
4 1/2+x,1/2-y,1/2+z
_cell_length_a                   8.8522(17)
_cell_length_b                   4.6071(9)
_cell_length_c                   15.377(3)
_cell_angle_alpha                90
_cell_angle_beta                 105.279(3)
_cell_angle_gamma                90
_cell_volume                     604.954
loop_
_atom_site_label
_atom_site_type_symbol
_atom_site_fract_x
_atom_site_fract_y
_atom_site_fract_z
Mn1 Mn 0.5000 0.0000 0.5000
N1 N 0.2500(6) -0.1785(12) 0.4551(3)
H1 H 0.225(6) -0.188(12) 0.505(4)
H2 H 0.271(8) -0.375(18) 0.434(5)
O1 O 0.0471(5) -0.2175(9) 0.1153(2)
O2 O -0.0975(4) 0.1801(9) 0.0767(2)
C1 C -0.0169(6) 0.0086(13) 0.1343(3)
C2 C 0.0029(6) 0.0721(11) 0.2326(3)
C3 C 0.1131(6) -0.0817(12) 0.2972(3)
H3 H 0.169(6) -0.238(12) 0.275(3)
C4 C 0.1341(5) -0.0209(13) 0.3883(3)
C5 C 0.0451(6) 0.1945(13) 0.4147(3)
H4 H 0.059(6) 0.229(12) 0.478(3)
C6 C -0.0673(7) 0.3441(13) 0.3495(4)
H5 H -0.119(6) 0.505(14) 0.369(3)
C7 C -0.0861(6) 0.2874(13) 0.2582(3)
H6 H -0.161(7) 0.387(15) 0.214(4)
Mn1C Mn 0.0000 -0.5000 0.0000
Mn1C_2 Mn 0.0000 0.5000 0.0000
Mn1C_3 Mn 1.0000 0.5000 1.0000
Mn1C_4 Mn 1.0000 -0.5000 1.0000
N1B N 0.7500(6) 0.1785(12) 0.5449(3)
H1B H 0.775(6) 0.188(12) 0.495(4)
H2B H 0.729(8) 0.375(18) 0.566(5)
O1B O 0.9529(5) 0.2175(9) 0.8847(2)
O1C O 0.5471(5) -0.2825(9) 0.6153(2)
O1A O 0.4529(5) 0.2825(9) 0.3847(2)
O2B O 1.0975(4) -0.1801(9) 0.9233(2)
O2C O 0.4025(4) 0.3199(9) 0.5767(2)
O2A O 0.5975(4) -0.3199(9) 0.4233(2)
C1B C 1.0169(6) -0.0086(13) 0.8657(3)
C2B C 0.9971(6) -0.0721(11) 0.7674(3)
C3B C 0.8869(6) 0.0817(12) 0.7028(3)
H3B H 0.831(6) 0.238(12) 0.725(3)
C4B C 0.8659(5) 0.0209(13) 0.6117(3)
C5B C 0.9549(6) -0.1945(13) 0.5853(3)
H4B H 0.941(6) -0.229(12) 0.522(3)
C6B C 1.0673(7) -0.3441(13) 0.6505(4)
H5B H 1.119(6) -0.505(14) 0.631(3)
C7B C 1.0861(6) -0.2874(13) 0.7418(3)
H6B H 1.161(7) -0.387(15) 0.786(4)
loop_
_geom_bond_atom_site_label_1
_geom_bond_atom_site_label_2
_geom_bond_site_symmetry_1
_geom_bond_site_symmetry_2
Mn1 N1 1_555 1_555
N1 H1 1_555 1_555
H2 N1 1_555 1_555
O1 C1 1_555 1_555
O2 C1 1_555 1_555
C1 C2 1_555 1_555
C2 C3 1_555 1_555
C3 H3 1_555 1_555
C4 N1 1_555 1_555
C5 C4 1_555 1_555
H4 C5 1_555 1_555
C6 C5 1_555 1_555
H5 C6 1_555 1_555
C7 C2 1_555 1_555
H6 C7 1_555 1_555
Mn1C O1 1_555 1_555
Mn1C_2 O2 1_555 1_555
Mn1C_3 O1B 1_555 1_555
Mn1C_4 O2B 1_555 1_555
N1B Mn1 1_555 1_555
H1B N1B 1_555 1_555
H2B N1B 1_555 1_555
O1B C1B 1_555 1_555
O1C Mn1 1_555 1_555
O1A Mn1 1_555 1_555
O2B C1B 1_555 1_555
O2C Mn1 1_555 1_555
O2A Mn1 1_555 1_555
C1B C2B 1_555 1_555
C2B C3B 1_555 1_555
C3B H3B 1_555 1_555
C4B N1B 1_555 1_555
C5B C4B 1_555 1_555
H4B C5B 1_555 1_555
C6B C5B 1_555 1_555
H5B C6B 1_555 1_555
C7B C2B 1_555 1_555
H6B C7B 1_555 1_555
C3 C4 1_555 1_555
C6 C7 1_555 1_555
C3B C4B 1_555 1_555
C6B C7B 1_555 1_555

#END
