
#######################################################################
#
#                 Cambridge Crystallographic Data Centre
#                                CCDC 
#
#######################################################################
#
# If this CIF has been generated from an entry in the Cambridge 
# Structural Database, then it will include bibliographic, chemical, 
# crystal, experimental, refinement or atomic coordinate data resulting 
# from the CCDC's data processing and validation procedures.
#
#######################################################################

data_UCUROA
_symmetry_cell_setting           monoclinic
_symmetry_space_group_name_H-M   'P 21/c'
_symmetry_Int_Tables_number      14
_space_group_name_Hall           '-P 2ybc'
loop_
_symmetry_equiv_pos_site_id
_symmetry_equiv_pos_as_xyz
1 x,y,z
2 -x,1/2+y,1/2-z
3 -x,-y,-z
4 x,1/2-y,1/2+z
_cell_length_a                   8.5031(11)
_cell_length_b                   17.2765(15)
_cell_length_c                   10.3894(14)
_cell_angle_alpha                90
_cell_angle_beta                 94.322(8)
_cell_angle_gamma                90
_cell_volume                     1521.9
loop_
_atom_site_label
_atom_site_type_symbol
_atom_site_fract_x
_atom_site_fract_y
_atom_site_fract_z
U1 U 0.30694(2) 0.314306(9) 0.914798(17)
O1 O 0.2770(5) 0.18248(18) 1.0015(4)
O2 O 0.4844(4) 0.16419(19) 1.2314(4)
N1 N 0.2031(5) 0.4387(2) 1.0386(4)
O3 O 0.4618(5) 0.19749(19) 0.8662(4)
O4 O 0.3563(5) 0.0659(2) 1.3042(4)
N2 N 0.0559(5) 0.3003(2) 1.0438(4)
C1 C 0.3936(6) 0.1569(3) 0.9464(5)
C2 C 0.4349(6) 0.0963(3) 1.2180(5)
C3 C 0.2692(6) 0.5086(3) 1.0335(5)
H1 H 0.3441 0.5169 0.9742
C4 C -0.1728(7) 0.2287(3) 1.0931(7)
H2 H -0.2378 0.1862 1.0748
C5 C 0.0135(6) 0.3552(3) 1.1270(5)
C6 C 0.0937(6) 0.4278(3) 1.1270(5)
C7 C -0.0367(6) 0.2382(3) 1.0274(6)
H3 H -0.0097 0.1999 0.9701
C8 C 0.4668(6) 0.0477(2) 1.1033(5)
C9 C 0.4524(6) 0.0765(2) 0.9766(5)
C10 C 0.1262(7) 0.5599(3) 1.2011(6)
H4 H 0.1015 0.6008 1.2541
C11 C 0.2310(7) 0.5697(3) 1.1134(6)
H5 H 0.2791 0.6176 1.1053
C12 C -0.2110(6) 0.2805(4) 1.1829(6)
H6 H -0.2990 0.2729 1.2294
C13 C -0.1167(6) 0.3454(3) 1.2044(6)
C14 C 0.0520(7) 0.4866(3) 1.2137(6)
C15 C -0.1478(7) 0.4053(4) 1.2933(6)
H7 H -0.2275 0.3980 1.3487
C16 C -0.0671(8) 0.4712(4) 1.3000(6)
H8 H -0.0885 0.5079 1.3618
O5 O 0.1574(5) 0.2972(2) 0.7920(4)
O6 O 0.4582(4) 0.3319(2) 1.0365(4)
C17 C 0.4861(6) 0.0285(3) 0.8759(5)
H9 H 0.4769 0.0477 0.7920
U1B U 0.69306(2) -0.314306(9) 1.085202(17)
U1C U 0.30694(2) 0.185694(9) 1.414798(17)
U1A U 0.69306(2) -0.185694(9) 0.585202(17)
O1B O 0.7230(5) -0.18248(18) 0.9985(4)
O2B O 0.5156(4) -0.16419(19) 0.7686(4)
O2C O 0.4844(4) 0.33581(19) 0.7314(4)
O2A O 0.5156(4) -0.33581(19) 1.2686(4)
N1B N 0.7969(5) -0.4387(2) 0.9614(4)
O3B O 0.5382(5) -0.19749(19) 1.1338(4)
O4B O 0.6437(5) -0.0659(2) 0.6958(4)
O4C O 0.3563(5) 0.4341(2) 0.8042(4)
O4A O 0.6437(5) -0.4341(2) 1.1958(4)
N2B N 0.9441(5) -0.3003(2) 0.9562(4)
C1B C 0.6064(6) -0.1569(3) 1.0536(5)
C2B C 0.5651(6) -0.0963(3) 0.7820(5)
C3B C 0.7308(6) -0.5086(3) 0.9665(5)
H1B H 0.6559 -0.5169 1.0258
C4B C 1.1728(7) -0.2287(3) 0.9069(7)
H2B H 1.2378 -0.1862 0.9252
C5B C 0.9865(6) -0.3552(3) 0.8730(5)
C6B C 0.9063(6) -0.4278(3) 0.8730(5)
C7B C 1.0367(6) -0.2382(3) 0.9726(6)
H3B H 1.0097 -0.1999 1.0299
C8B C 0.5332(6) -0.0477(2) 0.8967(5)
C9B C 0.5476(6) -0.0765(2) 1.0234(5)
C10B C 0.8738(7) -0.5599(3) 0.7989(6)
H4B H 0.8985 -0.6008 0.7459
C11B C 0.7690(7) -0.5697(3) 0.8866(6)
H5B H 0.7209 -0.6176 0.8947
C12B C 1.2110(6) -0.2805(4) 0.8171(6)
H6B H 1.2990 -0.2729 0.7706
C13B C 1.1167(6) -0.3454(3) 0.7956(6)
C14B C 0.9480(7) -0.4866(3) 0.7863(6)
C15B C 1.1478(7) -0.4053(4) 0.7067(6)
H7B H 1.2275 -0.3980 0.6513
C16B C 1.0671(8) -0.4712(4) 0.7000(6)
H8B H 1.0885 -0.5079 0.6382
O5B O 0.8426(5) -0.2972(2) 1.2080(4)
O6B O 0.5418(4) -0.3319(2) 0.9635(4)
C17B C 0.5139(6) -0.0285(3) 1.1241(5)
H9B H 0.5231 -0.0477 1.2080
loop_
_geom_bond_atom_site_label_1
_geom_bond_atom_site_label_2
_geom_bond_site_symmetry_1
_geom_bond_site_symmetry_2
U1 O1 1_555 1_555
O1 C1 1_555 1_555
O2 C2 1_555 1_555
N1 U1 1_555 1_555
O3 U1 1_555 1_555
O4 C2 1_555 1_555
N2 U1 1_555 1_555
C1 O3 1_555 1_555
C2 C8 1_555 1_555
C3 N1 1_555 1_555
H1 C3 1_555 1_555
C4 H2 1_555 1_555
C5 N2 1_555 1_555
C6 N1 1_555 1_555
C7 N2 1_555 1_555
H3 C7 1_555 1_555
C8 C9 1_555 1_555
C9 C1 1_555 1_555
C10 H4 1_555 1_555
C11 C3 1_555 1_555
H5 C11 1_555 1_555
C12 C4 1_555 1_555
H6 C12 1_555 1_555
C13 C5 1_555 1_555
C14 C6 1_555 1_555
C15 C13 1_555 1_555
H7 C15 1_555 1_555
C16 C14 1_555 1_555
H8 C16 1_555 1_555
O5 U1 1_555 1_555
O6 U1 1_555 1_555
C17 C9 1_555 1_555
H9 C17 1_555 1_555
U1B O1B 1_555 1_555
U1C O2 1_555 1_555
U1A O2B 1_555 1_555
O1B C1B 1_555 1_555
O2B C2B 1_555 1_555
O2C U1 1_555 1_555
O2A U1B 1_555 1_555
N1B U1B 1_555 1_555
O3B U1B 1_555 1_555
O4B U1A 1_555 1_555
O4C U1 1_555 1_555
O4A U1B 1_555 1_555
N2B U1B 1_555 1_555
C1B O3B 1_555 1_555
C2B O4B 1_555 1_555
C3B N1B 1_555 1_555
H1B C3B 1_555 1_555
C4B H2B 1_555 1_555
C5B N2B 1_555 1_555
C6B N1B 1_555 1_555
C7B N2B 1_555 1_555
H3B C7B 1_555 1_555
C8B C17 1_555 1_555
C9B C1B 1_555 1_555
C10B H4B 1_555 1_555
C11B C3B 1_555 1_555
H5B C11B 1_555 1_555
C12B C4B 1_555 1_555
H6B C12B 1_555 1_555
C13B C5B 1_555 1_555
C14B C6B 1_555 1_555
C15B C13B 1_555 1_555
H7B C15B 1_555 1_555
C16B C14B 1_555 1_555
H8B C16B 1_555 1_555
O5B U1B 1_555 1_555
O6B U1B 1_555 1_555
C17B C8 1_555 1_555
H9B C17B 1_555 1_555
O4 U1C 1_555 1_555
C4 C7 1_555 1_555
C5 C6 1_555 1_555
C10 C11 1_555 1_555
C10 C14 1_555 1_555
C12 C13 1_555 1_555
C15 C16 1_555 1_555
C2B C8B 1_555 1_555
C4B C7B 1_555 1_555
C5B C6B 1_555 1_555
C8B C9B 1_555 1_555
C9B C17B 1_555 1_555
C10B C11B 1_555 1_555
C10B C14B 1_555 1_555
C12B C13B 1_555 1_555
C15B C16B 1_555 1_555

#END
