
#######################################################################
#
#                 Cambridge Crystallographic Data Centre
#                                CCDC 
#
#######################################################################
#
# If this CIF has been generated from an entry in the Cambridge 
# Structural Database, then it will include bibliographic, chemical, 
# crystal, experimental, refinement or atomic coordinate data resulting 
# from the CCDC's data processing and validation procedures.
#
#######################################################################

data_UCUTIW
_symmetry_cell_setting           monoclinic
_symmetry_space_group_name_H-M   'C 2/c'
_symmetry_Int_Tables_number      15
_space_group_name_Hall           '-C 2yn'
loop_
_symmetry_equiv_pos_site_id
_symmetry_equiv_pos_as_xyz
1 x,y,z
2 1/2+x,1/2+y,z
3 -x,y,1/2-z
4 1/2-x,1/2+y,1/2-z
5 -x,-y,-z
6 1/2-x,1/2-y,-z
7 x,-y,1/2+z
8 1/2+x,1/2-y,1/2+z
_cell_length_a                   21.859(3)
_cell_length_b                   11.6653(17)
_cell_length_c                   7.3751(17)
_cell_angle_alpha                90
_cell_angle_beta                 100.301(3)
_cell_angle_gamma                90
_cell_volume                     1850.28
loop_
_atom_site_label
_atom_site_type_symbol
_atom_site_fract_x
_atom_site_fract_y
_atom_site_fract_z
Zn1 Zn 0.0000 0.11603(9) 0.7500
O1 O 0.07661(18) 0.0178(4) 0.8686(7)
O2 O 0.04754(17) -0.1353(3) 1.0131(6)
N1 N 0.0550(2) 0.2779(4) 0.8657(6)
C1 C 0.0851(2) -0.0784(5) 0.9445(8)
C2 C 0.1492(2) -0.1284(5) 0.9457(8)
C3 C 0.1877(5) -0.0926(9) 0.8375(16)
H1 H 0.1763 -0.0315 0.7579
C4 C 0.2471(5) -0.1472(10) 0.8417(16)
H2 H 0.2720 -0.1174 0.7632
C5 C 0.2689(3) -0.2316(5) 0.9411(10)
C6 C 0.1706(3) -0.2158(5) 1.0553(9)
H3 H 0.1454 -0.2447 1.1337
C7 C 0.1098(3) 0.2768(5) 0.9785(8)
H4 H 0.1271 0.2066 1.0197
C8 C 0.1422(3) 0.3769(6) 1.0374(10)
H5 H 0.1808 0.3733 1.1145
C9 C 0.1167(3) 0.4795(6) 0.9808(9)
H6 H 0.1381 0.5467 1.0186
C10 C 0.0587(3) 0.4855(5) 0.8663(8)
C11 C 0.0300(3) 0.3798(4) 0.8114(7)
C12 C 0.0283(3) 0.5901(5) 0.8058(9)
H7 H 0.0474 0.6594 0.8433
Zn1F Zn 0.0000 -0.11603(9) 1.2500
Zn1G Zn 0.5000 -0.61603(9) 1.2500
Zn1A Zn 0.5000 -0.38397(9) 0.7500
O1E O 0.42339(18) -0.5178(4) 1.1314(7)
O1B O -0.07661(18) 0.0178(4) 0.6314(7)
O2E O 0.45246(17) -0.3647(3) 0.9869(6)
O2F O 0.04754(17) 0.1353(3) 0.5131(6)
O2D O -0.04754(17) 0.1353(3) 0.9869(6)
N1B N -0.0550(2) 0.2779(4) 0.6343(6)
C1E C 0.4149(2) -0.4216(5) 1.0555(8)
C2E C 0.3508(2) -0.3716(5) 1.0543(8)
C3E C 0.3123(5) -0.4074(9) 1.1625(16)
H1E H 0.3237 -0.4685 1.2421
C4E C 0.2529(5) -0.3528(10) 1.1583(16)
H2E H 0.2280 -0.3826 1.2368
C5E C 0.2311(3) -0.2684(5) 1.0589(10)
C6E C 0.3294(3) -0.2842(5) 0.9447(9)
H3E H 0.3546 -0.2553 0.8663
C7B C -0.1098(3) 0.2768(5) 0.5215(8)
H4B H -0.1271 0.2066 0.4803
C8B C -0.1422(3) 0.3769(6) 0.4626(10)
H5B H -0.1808 0.3733 0.3855
C9B C -0.1167(3) 0.4795(6) 0.5192(9)
H6B H -0.1381 0.5467 0.4814
C10B C -0.0587(3) 0.4855(5) 0.6337(8)
C11B C -0.0300(3) 0.3798(4) 0.6886(7)
C12B C -0.0283(3) 0.5901(5) 0.6942(9)
H7B H -0.0474 0.6594 0.6567
loop_
_geom_bond_atom_site_label_1
_geom_bond_atom_site_label_2
_geom_bond_site_symmetry_1
_geom_bond_site_symmetry_2
Zn1 O1 1_555 1_555
O1 C1 1_555 1_555
O2 C1 1_555 1_555
N1 Zn1 1_555 1_555
C1 C2 1_555 1_555
C2 C3 1_555 1_555
C3 H1 1_555 1_555
C4 C3 1_555 1_555
H2 C4 1_555 1_555
C5 C4 1_555 1_555
C6 C2 1_555 1_555
H3 C6 1_555 1_555
C7 N1 1_555 1_555
H4 C7 1_555 1_555
C8 C7 1_555 1_555
H5 C8 1_555 1_555
C9 C8 1_555 1_555
H6 C9 1_555 1_555
C10 C9 1_555 1_555
C11 N1 1_555 1_555
C12 C10 1_555 1_555
H7 C12 1_555 1_555
Zn1F O2 1_555 1_555
Zn1G O1E 1_555 1_555
Zn1A O2E 1_555 1_555
O1E C1E 1_555 1_555
O1B Zn1 1_555 1_555
O2E C1E 1_555 1_555
O2F Zn1 1_555 1_555
O2D Zn1 1_555 1_555
N1B Zn1 1_555 1_555
C1E C2E 1_555 1_555
C2E C3E 1_555 1_555
C3E H1E 1_555 1_555
C4E C3E 1_555 1_555
H2E C4E 1_555 1_555
C5E C5 1_555 1_555
C6E C5 1_555 1_555
H3E C6E 1_555 1_555
C7B N1B 1_555 1_555
H4B C7B 1_555 1_555
C8B C7B 1_555 1_555
H5B C8B 1_555 1_555
C9B C8B 1_555 1_555
H6B C9B 1_555 1_555
C10B C9B 1_555 1_555
C11B C11 1_555 1_555
C12B C12 1_555 1_555
H7B C12B 1_555 1_555
C6 C5E 1_555 1_555
C10 C11 1_555 1_555
N1B C11B 1_555 1_555
C2E C6E 1_555 1_555
C4E C5E 1_555 1_555
C10B C11B 1_555 1_555
C10B C12B 1_555 1_555

#END
