
#######################################################################
#
#                 Cambridge Crystallographic Data Centre
#                                CCDC 
#
#######################################################################
#
# If this CIF has been generated from an entry in the Cambridge 
# Structural Database, then it will include bibliographic, chemical, 
# crystal, experimental, refinement or atomic coordinate data resulting 
# from the CCDC's data processing and validation procedures.
#
#######################################################################

data_UCUVAQ
_symmetry_cell_setting           monoclinic
_symmetry_space_group_name_H-M   'C 2/c'
_symmetry_Int_Tables_number      15
_space_group_name_Hall           '-C 2yn'
loop_
_symmetry_equiv_pos_site_id
_symmetry_equiv_pos_as_xyz
1 x,y,z
2 1/2+x,1/2+y,z
3 -x,y,1/2-z
4 1/2-x,1/2+y,1/2-z
5 -x,-y,-z
6 1/2-x,1/2-y,-z
7 x,-y,1/2+z
8 1/2+x,1/2-y,1/2+z
_cell_length_a                   18.326(2)
_cell_length_b                   14.0527(15)
_cell_length_c                   16.2888(17)
_cell_angle_alpha                90
_cell_angle_beta                 103.642(2)
_cell_angle_gamma                90
_cell_volume                     4076.51
loop_
_atom_site_label
_atom_site_type_symbol
_atom_site_fract_x
_atom_site_fract_y
_atom_site_fract_z
O6 O 0.5000 0.8808(19) 0.7500
Mn1 Mn 0.17979(4) 0.08285(5) 0.61941(5)
O1 O 0.2851(3) 0.0694(4) 0.6178(3)
O2 O 0.2684(4) 0.1376(5) 0.4930(5)
O3 O 0.1732(4) 0.1395(4) 0.7290(3)
O4 O 0.1208(4) 0.2801(5) 0.7000(4)
O5 O 0.1446(3) 0.2092(3) 0.5593(3)
H1 H 0.0982 0.2231 0.5462
H2 H 0.1765 0.2476 0.5474
N1 N 0.1654(3) -0.0535(4) 0.6765(3)
N2 N 0.1137(3) 0.0059(5) 0.5188(3)
C1 C 0.1914(5) -0.0821(6) 0.7554(5)
H3 H 0.2195 -0.0395 0.7940
C2 C 0.1788(6) -0.1733(7) 0.7838(6)
H4 H 0.1978 -0.1908 0.8398
C3 C 0.1379(6) -0.2358(7) 0.7271(7)
H5 H 0.1290 -0.2970 0.7443
C4 C 0.1099(4) -0.2088(6) 0.6447(6)
C5 C 0.0678(6) -0.2714(7) 0.5810(8)
H6 H 0.0580 -0.3335 0.5950
C6 C 0.0418(6) -0.2396(8) 0.4989(8)
H7 H 0.0137 -0.2803 0.4585
C7 C 0.0572(4) -0.1467(6) 0.4756(6)
C8 C 0.0327(5) -0.1108(9) 0.3933(7)
H8 H 0.0057 -0.1497 0.3507
C9 C 0.0483(6) -0.0201(9) 0.3758(6)
H9 H 0.0310 0.0038 0.3214
C10 C 0.0901(5) 0.0372(7) 0.4392(4)
H10 H 0.1021 0.0988 0.4261
C11 C 0.0981(4) -0.0852(5) 0.5363(5)
C12 C 0.1254(4) -0.1160(5) 0.6214(4)
C13 C 0.3070(4) 0.0912(5) 0.5530(6)
C14 C 0.3819(4) 0.0553(5) 0.5469(5)
C15 C 0.4345(8) 0.0169(10) 0.6168(10)
H11 H 0.4229 0.0146 0.6693
C16 C 0.5035(8) -0.0173(10) 0.6082(8)
H12 H 0.5368 -0.0409 0.6561
C17 C 0.5254(4) -0.0185(5) 0.5337(5)
C18 C 0.4032(5) 0.0554(5) 0.4739(6)
H13 H 0.3706 0.0804 0.4262
C19 C 0.1585(5) 0.2192(7) 0.7525(6)
C20 C 0.1859(6) 0.2421(7) 0.8423(7)
C21 C 0.1840(8) 0.3233(7) 0.8833(8)
H14 H 0.1598 0.3735 0.8506
C22 C 0.2116(8) 0.3429(8) 0.9640(7)
H15 H 0.2038 0.4040 0.9822
C23 C 0.2496(6) 0.2826(9) 1.0214(6)
C24 C 0.2232(6) 0.1853(10) 0.8947(6)
H16 H 0.2329 0.1238 0.8790
Mn1D Mn 0.82021(4) -0.08285(5) 0.38059(5)
Mn1E Mn 0.32021(4) 0.41715(5) 1.38059(5)
O1D O 0.7149(3) -0.0694(4) 0.3822(3)
O2D O 0.7316(4) -0.1376(5) 0.5070(5)
O3E O 0.3268(4) 0.3605(4) 1.2710(3)
O3D O 0.8268(4) -0.1395(4) 0.2710(3)
O4E O 0.3792(4) 0.2199(5) 1.3000(4)
O5D O 0.8554(3) -0.2092(3) 0.4407(3)
H1D H 0.9018 -0.2231 0.4538
H2D H 0.8235 -0.2476 0.4526
N1D N 0.8346(3) 0.0535(4) 0.3235(3)
N2D N 0.8863(3) -0.0059(5) 0.4812(3)
C1D C 0.8086(5) 0.0821(6) 0.2446(5)
H3D H 0.7805 0.0395 0.2060
C2D C 0.8212(6) 0.1733(7) 0.2162(6)
H4D H 0.8022 0.1908 0.1602
C3D C 0.8621(6) 0.2358(7) 0.2729(7)
H5D H 0.8710 0.2970 0.2557
C4D C 0.8901(4) 0.2088(6) 0.3553(6)
C5D C 0.9322(6) 0.2714(7) 0.4190(8)
H6D H 0.9420 0.3335 0.4050
C6D C 0.9582(6) 0.2396(8) 0.5011(8)
H7D H 0.9863 0.2803 0.5415
C7D C 0.9428(4) 0.1467(6) 0.5244(6)
C8D C 0.9673(5) 0.1108(9) 0.6067(7)
H8D H 0.9943 0.1497 0.6493
C9D C 0.9517(6) 0.0201(9) 0.6242(6)
H9D H 0.9690 -0.0038 0.6786
C10D C 0.9099(5) -0.0372(7) 0.5608(4)
H10D H 0.8979 -0.0988 0.5739
C11D C 0.9019(4) 0.0852(5) 0.4637(5)
C12D C 0.8746(4) 0.1160(5) 0.3786(4)
C13D C 0.6930(4) -0.0912(5) 0.4470(6)
C14D C 0.6181(4) -0.0553(5) 0.4531(5)
C15D C 0.5655(8) -0.0169(10) 0.3832(10)
H11D H 0.5771 -0.0146 0.3307
C16D C 0.4965(8) 0.0173(10) 0.3918(8)
H12D H 0.4632 0.0409 0.3439
C17D C 0.4746(4) 0.0185(5) 0.4663(5)
C18D C 0.5968(5) -0.0554(5) 0.5261(6)
H13D H 0.6294 -0.0804 0.5738
C19E C 0.3415(5) 0.2808(7) 1.2475(6)
C20E C 0.3141(6) 0.2579(7) 1.1577(7)
C21E C 0.3160(8) 0.1767(7) 1.1167(8)
H14E H 0.3402 0.1265 1.1494
C22E C 0.2884(8) 0.1571(8) 1.0360(7)
H15E H 0.2962 0.0960 1.0178
C23E C 0.2504(6) 0.2174(9) 0.9786(6)
C24E C 0.2768(6) 0.3147(10) 1.1053(6)
H16E H 0.2671 0.3762 1.1210
loop_
_geom_bond_atom_site_label_1
_geom_bond_atom_site_label_2
_geom_bond_site_symmetry_1
_geom_bond_site_symmetry_2
Mn1 O1 1_555 1_555
O1 C13 1_555 1_555
O2 C13 1_555 1_555
O3 Mn1 1_555 1_555
O4 C19 1_555 1_555
O5 Mn1 1_555 1_555
H1 O5 1_555 1_555
H2 O5 1_555 1_555
N1 Mn1 1_555 1_555
N2 Mn1 1_555 1_555
C1 N1 1_555 1_555
H3 C1 1_555 1_555
C2 C1 1_555 1_555
H4 C2 1_555 1_555
C3 C2 1_555 1_555
H5 C3 1_555 1_555
C4 C3 1_555 1_555
C5 C4 1_555 1_555
H6 C5 1_555 1_555
C6 C5 1_555 1_555
H7 C6 1_555 1_555
C7 C6 1_555 1_555
C8 C7 1_555 1_555
H8 C8 1_555 1_555
C9 C8 1_555 1_555
H9 C9 1_555 1_555
C10 N2 1_555 1_555
H10 C10 1_555 1_555
C11 N2 1_555 1_555
C12 N1 1_555 1_555
C13 C14 1_555 1_555
C14 C15 1_555 1_555
C15 H11 1_555 1_555
C16 C15 1_555 1_555
H12 C16 1_555 1_555
C17 C16 1_555 1_555
C18 C14 1_555 1_555
H13 C18 1_555 1_555
C19 O3 1_555 1_555
C20 C19 1_555 1_555
C21 C20 1_555 1_555
H14 C21 1_555 1_555
C22 C21 1_555 1_555
H15 C22 1_555 1_555
C23 C22 1_555 1_555
C24 C20 1_555 1_555
H16 C24 1_555 1_555
Mn1D O1D 1_555 1_555
Mn1E O3E 1_555 1_555
O1D C13D 1_555 1_555
O2D C13D 1_555 1_555
O3E C19E 1_555 1_555
O3D Mn1D 1_555 1_555
O4E C19E 1_555 1_555
O5D Mn1D 1_555 1_555
H1D O5D 1_555 1_555
H2D O5D 1_555 1_555
N1D Mn1D 1_555 1_555
N2D Mn1D 1_555 1_555
C1D N1D 1_555 1_555
H3D C1D 1_555 1_555
C2D C1D 1_555 1_555
H4D C2D 1_555 1_555
C3D C2D 1_555 1_555
H5D C3D 1_555 1_555
C4D C3D 1_555 1_555
C5D C4D 1_555 1_555
H6D C5D 1_555 1_555
C6D C5D 1_555 1_555
H7D C6D 1_555 1_555
C7D C6D 1_555 1_555
C8D C7D 1_555 1_555
H8D C8D 1_555 1_555
C9D C8D 1_555 1_555
H9D C9D 1_555 1_555
C10D N2D 1_555 1_555
H10D C10D 1_555 1_555
C11D N2D 1_555 1_555
C12D N1D 1_555 1_555
C13D C14D 1_555 1_555
C14D C15D 1_555 1_555
C15D H11D 1_555 1_555
C16D C15D 1_555 1_555
H12D C16D 1_555 1_555
C17D C17 1_555 1_555
C18D C17 1_555 1_555
H13D C18D 1_555 1_555
C19E C20E 1_555 1_555
C20E C21E 1_555 1_555
C21E H14E 1_555 1_555
C22E C21E 1_555 1_555
H15E C22E 1_555 1_555
C23E C23 1_555 1_555
C24E C23 1_555 1_555
H16E C24E 1_555 1_555
C4 C12 1_555 1_555
C7 C11 1_555 1_555
C9 C10 1_555 1_555
C11 C12 1_555 1_555
C18 C17D 1_555 1_555
C24 C23E 1_555 1_555
C4D C12D 1_555 1_555
C7D C11D 1_555 1_555
C9D C10D 1_555 1_555
C11D C12D 1_555 1_555
C14D C18D 1_555 1_555
C16D C17D 1_555 1_555
C20E C24E 1_555 1_555
C22E C23E 1_555 1_555

#END
