
#######################################################################
#
#                 Cambridge Crystallographic Data Centre
#                                CCDC 
#
#######################################################################
#
# If this CIF has been generated from an entry in the Cambridge 
# Structural Database, then it will include bibliographic, chemical, 
# crystal, experimental, refinement or atomic coordinate data resulting 
# from the CCDC's data processing and validation procedures.
#
#######################################################################

data_UDACIL
_symmetry_cell_setting           monoclinic
_symmetry_space_group_name_H-M   'P 21/n'
_symmetry_Int_Tables_number      14
_space_group_name_Hall           '-P 2yn'
loop_
_symmetry_equiv_pos_site_id
_symmetry_equiv_pos_as_xyz
1 x,y,z
2 1/2+x,1/2-y,1/2+z
3 -x,-y,-z
4 1/2-x,1/2+y,1/2-z
_cell_length_a                   11.9830(10)
_cell_length_b                   9.3804(8)
_cell_length_c                   14.7200(10)
_cell_angle_alpha                90
_cell_angle_beta                 100.577(2)
_cell_angle_gamma                90
_cell_volume                     1626.49
loop_
_atom_site_label
_atom_site_type_symbol
_atom_site_fract_x
_atom_site_fract_y
_atom_site_fract_z
Cl1 Cl 0.34743(9) 0.95034(12) 0.71037(7)
O4 O 0.4122(2) 1.3733(3) 0.8379(2)
H30 H 0.38145 1.37369 0.88745
H31 H 0.44696 1.45394 0.86276
O6 O 0.2545(4) 0.5038(8) 1.1181(4)
O7 O 0.4128(14) 0.9964(14) 1.2955(8)
Co1 Co 0.00000 1.00000 1.00000
Co2 Co 0.50000 1.00000 1.00000
N1 N 0.3462(2) 0.8771(3) 0.93513(18)
C1 C 0.3840(3) 0.7260(4) 0.9439(2)
C2 C 0.5080(3) 0.7150(4) 0.9312(2)
O1 O 0.5684(2) 0.8266(3) 0.94447(16)
O2 O 0.5416(2) 0.5972(3) 0.9091(2)
C3 C 0.2321(3) 0.9091(4) 0.9564(2)
C4 C 0.2427(3) 0.9129(4) 1.0620(2)
N2 N 0.1365(2) 0.9577(3) 1.09333(18)
C5 C 0.0975(6) 0.8355(8) 1.1551(5)
C6 C -0.0193(6) 0.8739(8) 1.1713(4)
N3 N -0.0918(2) 0.8855(3) 1.07149(19)
C7 C 0.2028(3) 1.0572(4) 0.9123(2)
C8 C 0.1441(3) 0.7986(4) 0.9127(2)
N4 N 0.0269(2) 0.8281(3) 0.92940(18)
C9 C -0.0565(6) 0.8451(9) 0.8369(5)
C10 C 0.1680(6) 1.0993(8) 1.1452(5)
O3 O 0.5088(2) 0.8881(3) 1.12446(16)
H1 H 0.33973 0.88894 0.86970
H2 H 0.33669 0.66921 0.89822
H3 H 0.37710 0.69098 1.00362
H4 H 0.30215 0.97757 1.08693
H5 H 0.26320 0.81967 1.08585
H8 H 0.14974 0.82827 1.21125
H9 H 0.09622 0.74703 1.12204
H10 H -0.01939 0.96197 1.20265
H11 H -0.04910 0.80114 1.20530
H16 H 0.16742 0.70668 0.93718
H17 H 0.14227 0.79691 0.84739
H20 H -0.06766 0.75462 0.80714
H21 H -0.02488 0.90937 0.79864
H22 H 0.19957 1.16311 1.10703
H23 H 0.21844 1.08327 1.20094
H28 H 0.53282 0.80272 1.13646
H29 H 0.53880 0.92720 1.17265
N2B N -0.1365(2) 1.0423(3) 0.90667(18)
N3B N 0.0918(2) 1.1145(3) 0.92851(19)
N4B N -0.0269(2) 1.1719(3) 1.07060(18)
N1B N 0.6538(2) 1.1229(3) 1.06487(18)
O1B O 0.4316(2) 1.1734(3) 1.05553(16)
O3B O 0.4912(2) 1.1119(3) 0.87554(16)
C7B C -0.2028(3) 0.9428(4) 1.0877(2)
C10B C -0.1680(6) 0.9007(8) 0.8548(5)
C9B C 0.0565(6) 1.1549(9) 1.1631(5)
C11? C -0.1152(5) 0.7440(7) 1.0116(4)
C12? C -0.0069(6) 0.7010(7) 0.9831(4)
Cl2? Cl -0.1763(2) 0.7842(3) 0.76718(17)
O5? O 0.0639(6) 0.7702(9) 1.2237(5)
O8? O -0.0937(7) 0.6067(8) 1.0144(5)
O9? O -0.0505(10) 0.5387(13) 0.9910(8)
O10? O -0.177(3) 0.599(4) 0.986(2)
H6? H 0.15398 1.04148 1.12978
H7? H 0.11673 0.88317 1.13156
H12? H -0.04686 0.87025 1.13112
H13? H -0.10610 0.79602 1.04087
H14? H -0.20214 0.94767 1.05061
H15? H -0.26097 0.87738 1.05883
H18? H -0.02128 0.83482 0.87046
H19? H 0.00450 0.74790 0.96161
H24? H -0.14030 0.67169 1.04835
H25? H -0.17277 0.76307 0.95956
H26? H 0.05130 0.68277 1.03461
H27? H -0.01754 0.61989 0.94390
loop_
_geom_bond_atom_site_label_1
_geom_bond_atom_site_label_2
_geom_bond_site_symmetry_1
_geom_bond_site_symmetry_2
Co1 N2 1_555 1_555
Co2 N1 1_555 1_555
N1 C1 1_555 1_555
C1 C2 1_555 1_555
C2 O1 1_555 1_555
O1 Co2 1_555 1_555
O2 C2 1_555 1_555
C3 N1 1_555 1_555
C4 C3 1_555 1_555
N2 C4 1_555 1_555
C5 N2 1_555 1_555
C6 C5 1_555 1_555
N3 Co1 1_555 1_555
C7 C3 1_555 1_555
C8 C3 1_555 1_555
N4 Co1 1_555 1_555
C9 N4 1_555 1_555
C10 N2 1_555 1_555
O3 Co2 1_555 1_555
O4 H30 1_555 1_555
H1 N1 1_555 1_555
H2 C1 1_555 1_555
H3 C1 1_555 1_555
H4 C4 1_555 1_555
H5 C4 1_555 1_555
H8 C5 1_555 1_555
H9 C5 1_555 1_555
H10 C6 1_555 1_555
H11 C6 1_555 1_555
H16 C8 1_555 1_555
H17 C8 1_555 1_555
H20 C9 1_555 1_555
H21 C9 1_555 1_555
H22 C10 1_555 1_555
H23 C10 1_555 1_555
H28 O3 1_555 1_555
H29 O3 1_555 1_555
H31 O4 1_555 1_555
N2B Co1 1_555 1_555
N3B Co1 1_555 1_555
N4B Co1 1_555 1_555
N1B Co2 1_555 1_555
O1B Co2 1_555 1_555
O3B Co2 1_555 1_555
C7B N3 1_555 1_555
C10B C9 1_555 1_555
C9B C10 1_555 1_555
C6 N3 1_555 1_555
C7 N3B 1_555 1_555
C8 N4 1_555 1_555
N2B C10B 1_555 1_555
N4B C9B 1_555 1_555

#END
