
#######################################################################
#
#                 Cambridge Crystallographic Data Centre
#                                CCDC 
#
#######################################################################
#
# If this CIF has been generated from an entry in the Cambridge 
# Structural Database, then it will include bibliographic, chemical, 
# crystal, experimental, refinement or atomic coordinate data resulting 
# from the CCDC's data processing and validation procedures.
#
#######################################################################

data_UDACEH
_symmetry_cell_setting           monoclinic
_symmetry_space_group_name_H-M   'P 21/c'
_symmetry_Int_Tables_number      14
_space_group_name_Hall           '-P 2ybc'
loop_
_symmetry_equiv_pos_site_id
_symmetry_equiv_pos_as_xyz
1 x,y,z
2 x,1/2-y,1/2+z
3 -x,-y,-z
4 -x,1/2+y,1/2-z
_cell_length_a                   11.9590(10)
_cell_length_b                   14.7310(10)
_cell_length_c                   17.536(2)
_cell_angle_alpha                90
_cell_angle_beta                 115.269(2)
_cell_angle_gamma                90
_cell_volume                     2793.68
loop_
_atom_site_label
_atom_site_type_symbol
_atom_site_fract_x
_atom_site_fract_y
_atom_site_fract_z
Zn1 Zn 0.73925(4) 0.28211(3) -0.40238(3)
Co1 Co 0.25376(4) 0.26671(3) -0.37960(3)
N1 N 0.5827(3) 0.1858(2) -0.4327(2)
C1 C 0.6402(3) 0.0954(3) -0.4108(3)
C2 C 0.7643(3) 0.0935(3) -0.4153(3)
O1 O 0.8094(2) 0.16895(17) -0.42517(17)
O2 O 0.8158(3) 0.0193(2) -0.4091(3)
C3 C 0.4742(3) 0.2058(2) -0.4142(2)
C4 C 0.3741(3) 0.1336(3) -0.4526(2)
N2 N 0.2542(2) 0.1606(2) -0.45055(18)
C5 C 0.1561(3) 0.1796(2) -0.5370(2)
C6 C 0.0459(3) 0.2147(2) -0.5269(2)
N3 N 0.0886(2) 0.2943(2) -0.46837(17)
C7 C -0.0090(3) 0.3245(3) -0.4424(2)
C8 C 0.4285(3) 0.2977(2) -0.4570(2)
N4 N 0.3368(2) 0.34219(19) -0.43297(18)
C9 C 0.3915(4) 0.4221(3) -0.3757(3)
C10 C 0.2904(4) 0.4564(2) -0.3539(3)
N5 N 0.2490(3) 0.3789(2) -0.31827(19)
C11 C 0.1335(3) 0.4020(3) -0.3086(3)
C12 C 0.5188(3) 0.2116(2) -0.3186(2)
N6 N 0.4161(3) 0.2270(2) -0.29213(18)
C13 C 0.3911(4) 0.1450(3) -0.2509(3)
C14 C 0.2796(4) 0.1680(4) -0.2350(3)
N7 N 0.1787(3) 0.1982(2) -0.3167(2)
C15 C 0.0744(3) 0.2392(3) -0.3040(3)
C16 C 0.0320(3) 0.3303(2) -0.3480(2)
N8 N -0.0829(3) 0.3590(2) -0.34060(18)
C17 C -0.0702(4) 0.3810(3) -0.2555(2)
C18 C -0.1949(4) 0.3844(3) -0.2530(3)
O3 O -0.2886(2) 0.35428(18) -0.31532(17)
O4 O -0.1997(3) 0.4162(3) -0.1889(2)
Cl1 Cl 0.65524(9) 0.36858(7) -0.52311(6)
H1 H 0.589(4) 0.049(3) -0.446(2)
H2 H 0.655(3) 0.082(2) -0.355(2)
H3 H 0.554(4) 0.189(3) -0.489(3)
H4 H 0.401(3) 0.076(2) -0.423(2)
H5 H 0.361(4) 0.122(3) -0.507(3)
H6 H 0.228(4) 0.111(3) -0.432(2)
H7 H 0.135(4) 0.124(3) -0.569(3)
H8 H 0.193(3) 0.225(2) -0.561(2)
H9 H 0.009(4) 0.173(3) -0.498(3)
H10 H -0.017(4) 0.233(3) -0.577(3)
H11 H 0.094(4) 0.339(3) -0.501(3)
H12 H -0.061(4) 0.283(3) -0.463(3)
H13 H -0.031(4) 0.388(3) -0.464(3)
H14 H 0.389(3) 0.289(2) -0.520(2)
H15 H 0.498(3) 0.336(2) -0.444(2)
H16 H 0.278(3) 0.363(2) -0.481(2)
H17 H 0.414(4) 0.465(3) -0.407(2)
H18 H 0.455(3) 0.399(2) -0.325(2)
H19 H 0.226(4) 0.478(3) -0.404(2)
H20 H 0.316(3) 0.506(3) -0.317(2)
H21 H 0.100(4) 0.455(3) -0.339(3)
H22 H 0.158(4) 0.411(3) -0.246(3)
H23 H 0.315(4) 0.370(3) -0.268(3)
H24 H 0.575(3) 0.265(2) -0.297(2)
H25 H 0.563(4) 0.155(3) -0.292(2)
H26 H 0.442(4) 0.277(3) -0.255(3)
H27 H 0.460(5) 0.135(3) -0.197(3)
H28 H 0.371(4) 0.097(3) -0.290(3)
H29 H 0.293(5) 0.221(3) -0.196(3)
H30 H 0.257(4) 0.117(3) -0.216(3)
H31 H 0.148(4) 0.151(3) -0.344(2)
H32 H 0.093(5) 0.238(3) -0.248(4)
H33 H 0.006(4) 0.196(3) -0.325(3)
H34 H -0.114(4) 0.408(3) -0.373(3)
H35 H -0.028(3) 0.436(3) -0.234(2)
H36 H -0.025(3) 0.332(3) -0.220(2)
N8_2 N 0.9171(3) 0.3590(2) -0.34060(18)
Zn1_2 Zn -0.26075(4) 0.28211(3) -0.40238(3)
H34_2 H 0.886(4) 0.408(3) -0.373(3)
O3_2 O 0.7114(2) 0.35428(18) -0.31532(17)
Cl2 Cl 0.46728(14) 0.37016(11) -0.13731(7)
Cl3 Cl 0.11269(8) 0.42120(6) -0.60533(6)
O5 O 0.0520(3) 0.04537(18) -0.4062(2)
H37 H 0.08605 -0.00301 -0.37711
H38 H -0.03966 0.03599 -0.42162
O6 O 0.7377(3) 0.2493(3) -0.1375(2)
H39 H 0.71377 0.21602 -0.10155
H40 H 0.78108 0.20372 -0.13940
O7 O 0.8430(3) 0.1669(2) -0.2352(2)
H41 H 0.80263 0.15824 -0.20031
H42 H 0.92739 0.13245 -0.19444
O8 O 0.311(2) -0.0260(13) -0.3791(13)
O9? O 0.3782(14) -0.0242(10) 0.6656(10)
loop_
_geom_bond_atom_site_label_1
_geom_bond_atom_site_label_2
_geom_bond_site_symmetry_1
_geom_bond_site_symmetry_2
Zn1 N1 1_555 1_555
Co1 N2 1_555 1_555
N1 C1 1_555 1_555
C1 C2 1_555 1_555
C2 O1 1_555 1_555
O1 Zn1 1_555 1_555
O2 C2 1_555 1_555
C3 N1 1_555 1_555
C4 C3 1_555 1_555
N2 C4 1_555 1_555
C5 N2 1_555 1_555
C6 C5 1_555 1_555
N3 Co1 1_555 1_555
C7 N3 1_555 1_555
C8 C3 1_555 1_555
N4 Co1 1_555 1_555
C9 N4 1_555 1_555
C10 C9 1_555 1_555
N5 Co1 1_555 1_555
C11 N5 1_555 1_555
C12 C3 1_555 1_555
N6 Co1 1_555 1_555
C13 N6 1_555 1_555
C14 C13 1_555 1_555
N7 Co1 1_555 1_555
C15 N7 1_555 1_555
C16 C7 1_555 1_555
N8 C16 1_555 1_555
C17 N8 1_555 1_555
C18 C17 1_555 1_555
O3 C18 1_555 1_555
O4 C18 1_555 1_555
Cl1 Zn1 1_555 1_555
O5 H37 1_555 1_555
O6 H39 1_555 1_555
O7 H41 1_555 1_555
H1 C1 1_555 1_555
H2 C1 1_555 1_555
H3 N1 1_555 1_555
H4 C4 1_555 1_555
H5 C4 1_555 1_555
H6 N2 1_555 1_555
H7 C5 1_555 1_555
H8 C5 1_555 1_555
H9 C6 1_555 1_555
H10 C6 1_555 1_555
H11 N3 1_555 1_555
H12 C7 1_555 1_555
H13 C7 1_555 1_555
H14 C8 1_555 1_555
H15 C8 1_555 1_555
H16 N4 1_555 1_555
H17 C9 1_555 1_555
H18 C9 1_555 1_555
H19 C10 1_555 1_555
H20 C10 1_555 1_555
H21 C11 1_555 1_555
H22 C11 1_555 1_555
H23 N5 1_555 1_555
H24 C12 1_555 1_555
H25 C12 1_555 1_555
H26 N6 1_555 1_555
H27 C13 1_555 1_555
H28 C13 1_555 1_555
H29 C14 1_555 1_555
H30 C14 1_555 1_555
H31 N7 1_555 1_555
H32 C15 1_555 1_555
H33 C15 1_555 1_555
H34 N8 1_555 1_555
H35 C17 1_555 1_555
H36 C17 1_555 1_555
H38 O5 1_555 1_555
H40 O6 1_555 1_555
H42 O7 1_555 1_555
N8_2 Zn1 1_555 1_555
Zn1_2 N8 1_555 1_555
H34_2 N8_2 1_555 1_555
O3_2 Zn1 1_555 1_555
C6 N3 1_555 1_555
C8 N4 1_555 1_555
C10 N5 1_555 1_555
C11 C16 1_555 1_555
C12 N6 1_555 1_555
C14 N7 1_555 1_555
C15 C16 1_555 1_555
O3 Zn1_2 1_555 1_555

#END
