
#######################################################################
#
#                 Cambridge Crystallographic Data Centre
#                                CCDC 
#
#######################################################################
#
# If this CIF has been generated from an entry in the Cambridge 
# Structural Database, then it will include bibliographic, chemical, 
# crystal, experimental, refinement or atomic coordinate data resulting 
# from the CCDC's data processing and validation procedures.
#
#######################################################################

data_UDAGOV
_symmetry_cell_setting           orthorhombic
_symmetry_space_group_name_H-M   'P n m a'
_symmetry_Int_Tables_number      62
_space_group_name_Hall           '-P 2ac 2n'
loop_
_symmetry_equiv_pos_site_id
_symmetry_equiv_pos_as_xyz
1 x,y,z
2 1/2+x,y,1/2-z
3 x,1/2-y,z
4 1/2-x,1/2+y,1/2+z
5 -x,-y,-z
6 1/2-x,-y,1/2+z
7 -x,1/2+y,-z
8 1/2+x,1/2-y,1/2-z
_cell_length_a                   13.139(3)
_cell_length_b                   11.112(2)
_cell_length_c                   15.395(3)
_cell_angle_alpha                90
_cell_angle_beta                 90
_cell_angle_gamma                90
_cell_volume                     2247.68
loop_
_atom_site_label
_atom_site_type_symbol
_atom_site_fract_x
_atom_site_fract_y
_atom_site_fract_z
Cu1 Cu 0.60522(6) 0.2500 0.67742(6)
K1 K 0.35722(13) 0.2500 0.74256(12)
O1 O 0.5223(3) 0.1304(3) 0.7217(3)
O2 O 0.7298(3) 0.2500 0.6272(3)
C1 C 0.7564(6) 0.2500 0.5389(5)
O3 O 0.2375(5) 0.2500 0.5986(5)
C2 C 0.5451(5) 0.0067(5) 0.7196(5)
C3 C 0.6680(9) 0.2500 0.4824(7)
H1 H 0.6269 0.3206 0.4942
H2 H 0.6901 0.2513 0.4222
C4 C 0.6570(6) -0.0140(7) 0.7436(6)
H3 H 0.7003 0.0242 0.7007
H4 H 0.6709 -0.0997 0.7449
H5 H 0.6704 0.0204 0.8004
C5 C 0.4782(8) -0.0533(7) 0.7869(7)
H6 H 0.4072 -0.0406 0.7722
H7 H 0.4920 -0.0189 0.8436
H8 H 0.4925 -0.1389 0.7882
C6 C 0.5291(7) -0.0402(8) 0.6300(7)
H9 H 0.4587 -0.0282 0.6132
H10 H 0.5450 -0.1254 0.6285
H11 H 0.5732 0.0025 0.5900
C7 C 0.2965(9) 0.2500 0.5213(8)
H12 H 0.3400 0.1784 0.5194
C8 C 0.2262(10) 0.2500 0.4476(9)
H13 H 0.2352 0.1781 0.4115
C9 C 0.8218(7) 0.1398(8) 0.5213(5)
H14 H 0.8806 0.1407 0.5594
H15 H 0.8443 0.1408 0.4613
H16 H 0.7823 0.0676 0.5319
C10 C 0.1218(9) 0.2500 0.4925(9)
H17 H 0.0831 0.3215 0.4752
C11 C 0.1352(9) 0.2500 0.5732(8)
H18 H 0.1019 0.1788 0.5978
H1B H 0.6269 0.1794 0.4942
C9B C 0.8218(7) 0.3602(8) 0.5213(5)
H14B H 0.8806 0.3593 0.5594
H15B H 0.8443 0.3592 0.4613
H16B H 0.7823 0.4324 0.5319
H12B H 0.3400 0.3216 0.5194
H13B H 0.2352 0.3219 0.4115
H17B H 0.0831 0.1785 0.4752
H18B H 0.1019 0.3212 0.5978
O1B O 0.5223(3) 0.3696(3) 0.7217(3)
C2B C 0.5451(5) 0.4933(5) 0.7196(5)
C4B C 0.6570(6) 0.5140(7) 0.7436(6)
H3B H 0.7003 0.4758 0.7007
H4B H 0.6709 0.5997 0.7449
H5B H 0.6704 0.4796 0.8004
C5B C 0.4782(8) 0.5533(7) 0.7869(7)
H6B H 0.4072 0.5406 0.7722
H7B H 0.4920 0.5189 0.8436
H8B H 0.4925 0.6389 0.7882
C6B C 0.5291(7) 0.5402(8) 0.6300(7)
H9B H 0.4587 0.5282 0.6132
H10B H 0.5450 0.6254 0.6285
H11B H 0.5732 0.4975 0.5900
O2A O 0.2298(3) 0.2500 0.8728(3)
K1A K 0.85722(13) 0.2500 0.75744(12)
loop_
_geom_bond_atom_site_label_1
_geom_bond_atom_site_label_2
_geom_bond_site_symmetry_1
_geom_bond_site_symmetry_2
Cu1 O1 1_555 1_555
K1 O1 1_555 1_555
O1 C2 1_555 1_555
O2 Cu1 1_555 1_555
C1 O2 1_555 1_555
O3 K1 1_555 1_555
C2 C4 1_555 1_555
C3 C1 1_555 1_555
H1 C3 1_555 1_555
H2 C3 1_555 1_555
C4 H3 1_555 1_555
H4 C4 1_555 1_555
H5 C4 1_555 1_555
C5 C2 1_555 1_555
H6 C5 1_555 1_555
H7 C5 1_555 1_555
H8 C5 1_555 1_555
C6 C2 1_555 1_555
H9 C6 1_555 1_555
H10 C6 1_555 1_555
H11 C6 1_555 1_555
C7 O3 1_555 1_555
H12 C7 1_555 1_555
C8 C7 1_555 1_555
H13 C8 1_555 1_555
C9 C1 1_555 1_555
H14 C9 1_555 1_555
H15 C9 1_555 1_555
H16 C9 1_555 1_555
C10 C8 1_555 1_555
H17 C10 1_555 1_555
C11 O3 1_555 1_555
H18 C11 1_555 1_555
H1B C3 1_555 1_555
C9B C1 1_555 1_555
H14B C9B 1_555 1_555
H15B C9B 1_555 1_555
H16B C9B 1_555 1_555
H12B C7 1_555 1_555
H13B C8 1_555 1_555
H17B C10 1_555 1_555
H18B C11 1_555 1_555
O1B Cu1 1_555 1_555
C2B O1B 1_555 1_555
C4B C2B 1_555 1_555
H3B C4B 1_555 1_555
H4B C4B 1_555 1_555
H5B C4B 1_555 1_555
C5B C2B 1_555 1_555
H6B C5B 1_555 1_555
H7B C5B 1_555 1_555
H8B C5B 1_555 1_555
C6B C2B 1_555 1_555
H9B C6B 1_555 1_555
H10B C6B 1_555 1_555
H11B C6B 1_555 1_555
O2A K1 1_555 1_555
K1A O2 1_555 1_555
K1 O1B 1_555 1_555
C10 C11 1_555 1_555

#END
