
#######################################################################
#
#                 Cambridge Crystallographic Data Centre
#                                CCDC 
#
#######################################################################
#
# If this CIF has been generated from an entry in the Cambridge 
# Structural Database, then it will include bibliographic, chemical, 
# crystal, experimental, refinement or atomic coordinate data resulting 
# from the CCDC's data processing and validation procedures.
#
#######################################################################

data_UDAKIU
_symmetry_cell_setting           monoclinic
_symmetry_space_group_name_H-M   'P 21/c'
_symmetry_Int_Tables_number      14
_space_group_name_Hall           '-P 2ybc'
loop_
_symmetry_equiv_pos_site_id
_symmetry_equiv_pos_as_xyz
1 x,y,z
2 -x,1/2+y,1/2-z
3 -x,-y,-z
4 x,1/2-y,1/2+z
_cell_length_a                   24.7379(15)
_cell_length_b                   3.9383(2)
_cell_length_c                   32.063(2)
_cell_angle_alpha                90
_cell_angle_beta                 106.3440(10)
_cell_angle_gamma                90
_cell_volume                     2997.51
loop_
_atom_site_label
_atom_site_type_symbol
_atom_site_fract_x
_atom_site_fract_y
_atom_site_fract_z
C1 C -0.4107(4) 0.257(2) -0.0215(2)
C2 C -0.3572(4) 0.206(3) -0.0193(2)
H1 H -0.3446 0.2427 -0.0437
C3 C -0.3200(4) 0.099(3) 0.0192(2)
H2 H -0.2827 0.0557 0.0202
C4 C -0.3373(3) 0.054(2) 0.0560(2)
C5 C -0.3919(4) 0.106(3) 0.0540(3)
H3 H -0.4048 0.0713 0.0782
C6 C -0.4292(4) 0.214(4) 0.0138(3)
H4 H -0.4669 0.2548 0.0119
C7 C -0.2950(3) -0.0534(19) 0.0977(2)
C8 C -0.2432(3) -0.198(3) 0.0985(2)
H5 H -0.2352 -0.2429 0.0724
C9 C -0.2174(3) -0.204(2) 0.1762(2)
C10 C -0.2667(3) -0.074(2) 0.1764(2)
H6 H -0.2751 -0.0348 0.2025
C11 C -0.3044(3) 0.001(2) 0.1383(2)
H7 H -0.3387 0.0936 0.1389
C12 C -0.1761(3) -0.2620(19) 0.2187(2)
C13 C -0.1259(3) -0.4313(19) 0.2226(2)
H8 H -0.1178 -0.5134 0.1978
C14 C -0.0875(3) -0.480(2) 0.2632(2)
H9 H -0.0542 -0.5966 0.2651
C15 C -0.1456(3) -0.204(2) 0.2958(2)
H10 H -0.1535 -0.1259 0.3208
C16 C -0.1850(3) -0.150(2) 0.2570(2)
H11 H -0.2182 -0.0362 0.2564
C17 C 0.1523(3) -1.001(2) 0.4634(2)
H12 H 0.1641 -1.1291 0.4432
C18 C 0.1908(3) -0.9258(19) 0.5023(2)
H13 H 0.2280 -0.9979 0.5077
C19 C 0.1743(3) -0.7430(19) 0.5333(2)
C20 C 0.1190(3) -0.647(2) 0.5237(2)
H14 H 0.1058 -0.5266 0.5439
C21 C 0.0823(3) -0.732(2) 0.4831(2)
H15 H 0.0447 -0.6674 0.4768
C22 C 0.2161(3) -0.6507(19) 0.5758(2)
C23 C 0.2699(2) -0.7084(19) 0.57982(18)
H16 H 0.2812 -0.8042 0.5571
C24 C 0.3076(3) -0.627(2) 0.6169(2)
H17 H 0.3454 -0.6621 0.6189
C25 C 0.2946(3) -0.4930(19) 0.6530(2)
C26 C 0.2377(3) -0.437(2) 0.6484(2)
H18 H 0.2267 -0.3461 0.6715
C27 C 0.3386(3) -0.4115(19) 0.6941(2)
C28 C 0.3899(3) -0.277(2) 0.6944(2)
H19 H 0.3990 -0.2458 0.6685
C29 C 0.4285(3) -0.188(2) 0.7340(2)
H20 H 0.4626 -0.0872 0.7342
C30 C 0.4162(3) -0.249(2) 0.7723(2)
C31 C 0.3655(3) -0.385(2) 0.7729(2)
H21 H 0.3572 -0.4200 0.7991
C32 C 0.3270(3) -0.470(2) 0.7341(2)
H22 H 0.2928 -0.5668 0.7343
N1 N -0.0976(2) -0.3597(16) 0.30024(17)
N2 N 0.0993(3) -0.8998(15) 0.45318(17)
N3 N -0.2034(3) -0.277(3) 0.1370(2)
N4 N 0.1976(3) -0.5139(18) 0.6104(2)
Cu1 Cu -0.04146(4) -0.4365(3) 0.35851(3)
Cu2 Cu 0.04516(4) -0.9627(3) 0.39321(3)
Br1 Br -0.46199(5) 0.4026(3) -0.07501(3)
Br2 Br 0.46758(4) -0.1200(3) 0.82602(3)
Br3 Br -0.05322(3) -0.92186(18) 0.40354(2)
Br4 Br 0.05633(3) -0.44188(19) 0.34866(2)
Cu1_2 Cu -0.04146(4) -1.4365(3) 0.35851(3)
Cu2_2 Cu 0.04516(4) 0.0373(3) 0.39321(3)
Br3_2 Br -0.05322(3) 0.07814(18) 0.40354(2)
Br4_2 Br 0.05633(3) -1.44188(19) 0.34866(2)
loop_
_geom_bond_atom_site_label_1
_geom_bond_atom_site_label_2
_geom_bond_site_symmetry_1
_geom_bond_site_symmetry_2
C1 C2 1_555 1_555
C2 H1 1_555 1_555
C3 C2 1_555 1_555
H2 C3 1_555 1_555
C4 C3 1_555 1_555
C5 C4 1_555 1_555
H3 C5 1_555 1_555
C6 C1 1_555 1_555
H4 C6 1_555 1_555
C7 C4 1_555 1_555
C8 C7 1_555 1_555
H5 C8 1_555 1_555
C9 C10 1_555 1_555
C10 H6 1_555 1_555
C11 C7 1_555 1_555
H7 C11 1_555 1_555
C12 C9 1_555 1_555
C13 C12 1_555 1_555
H8 C13 1_555 1_555
C14 C13 1_555 1_555
H9 C14 1_555 1_555
C15 H10 1_555 1_555
C16 C12 1_555 1_555
H11 C16 1_555 1_555
C17 H12 1_555 1_555
C18 C17 1_555 1_555
H13 C18 1_555 1_555
C19 C18 1_555 1_555
C20 C19 1_555 1_555
H14 C20 1_555 1_555
C21 C20 1_555 1_555
H15 C21 1_555 1_555
C22 C19 1_555 1_555
C23 C22 1_555 1_555
H16 C23 1_555 1_555
C24 C23 1_555 1_555
H17 C24 1_555 1_555
C25 C24 1_555 1_555
C26 C25 1_555 1_555
H18 C26 1_555 1_555
C27 C25 1_555 1_555
C28 C27 1_555 1_555
H19 C28 1_555 1_555
C29 C28 1_555 1_555
H20 C29 1_555 1_555
C30 C29 1_555 1_555
C31 C30 1_555 1_555
H21 C31 1_555 1_555
C32 C27 1_555 1_555
H22 C32 1_555 1_555
N1 C14 1_555 1_555
N2 C17 1_555 1_555
N3 C8 1_555 1_555
N4 C22 1_555 1_555
Cu1 N1 1_555 1_555
Cu2 N2 1_555 1_555
Br1 C1 1_555 1_555
Br2 C30 1_555 1_555
Br3 Cu1 1_555 1_555
Br4 Cu1 1_555 1_555
Cu1_2 Br3 1_555 1_555
Cu2_2 Br4 1_555 1_555
Br3_2 Cu1 1_555 1_555
Br4_2 Cu2 1_555 1_555
C5 C6 1_555 1_555
C9 N3 1_555 1_555
C10 C11 1_555 1_555
C15 C16 1_555 1_555
C15 N1 1_555 1_555
C21 N2 1_555 1_555
C26 N4 1_555 1_555
C31 C32 1_555 1_555
Cu2 Br3 1_555 1_555
Cu2 Br4 1_555 1_555
Cu1_2 Br4_2 1_555 1_555
Cu2_2 Br3_2 1_555 1_555

#END
