
#######################################################################
#
#                 Cambridge Crystallographic Data Centre
#                                CCDC 
#
#######################################################################
#
# If this CIF has been generated from an entry in the Cambridge 
# Structural Database, then it will include bibliographic, chemical, 
# crystal, experimental, refinement or atomic coordinate data resulting 
# from the CCDC's data processing and validation procedures.
#
#######################################################################

data_UDALUG
_symmetry_cell_setting           monoclinic
_symmetry_space_group_name_H-M   'P 21/n'
_symmetry_Int_Tables_number      14
_space_group_name_Hall           '-P 2yn'
loop_
_symmetry_equiv_pos_site_id
_symmetry_equiv_pos_as_xyz
1 x,y,z
2 1/2+x,1/2-y,1/2+z
3 -x,-y,-z
4 1/2-x,1/2+y,1/2-z
_cell_length_a                   9.7530(20)
_cell_length_b                   18.0247(20)
_cell_length_c                   11.9998(20)
_cell_angle_alpha                90
_cell_angle_beta                 95.5162(80)
_cell_angle_gamma                90
_cell_volume                     2099.73
loop_
_atom_site_label
_atom_site_type_symbol
_atom_site_fract_x
_atom_site_fract_y
_atom_site_fract_z
Zn1 Zn 1.19804(4) 0.28819(2) -0.50473(3)
Cl1 Cl 1.0018(1) 0.28373(6) -0.42562(9)
Cl2 Cl 1.1943(1) 0.36633(5) -0.64847(7)
P1 P 0.8997(1) 0.11775(5) -0.80881(6)
N1 N 1.2703(3) 0.1835(2) -0.5309(2)
O1 O 0.8359(2) 0.1775(2) -0.8832(2)
O2 O 1.0628(2) 0.1236(1) -0.7950(2)
N2 N 1.2982(3) 0.1514(2) -0.6308(2)
C1 C 1.2980(4) 0.1306(2) -0.4532(3)
C2 C 1.3410(4) 0.0657(2) -0.5030(3)
H1 H 1.3655 0.0202 -0.4664
C3 C 1.3410(3) 0.0805(2) -0.6149(3)
C4 C 1.2809(5) 0.1437(3) -0.3322(3)
H2 H 1.2497 0.1947 -0.3220
H3 H 1.3693 0.1359 -0.2876
H4 H 1.2126 0.1089 -0.3077
C5 C 1.3819(4) 0.0332(3) -0.7084(4)
H5 H 1.3696 0.0612 -0.7786
H6 H 1.3242 -0.0114 -0.7147
H7 H 1.4788 0.0188 -0.6931
C6 C 1.2703(4) 0.1910(2) -0.7359(3)
H8 H 1.3147 0.1644 -0.7951
H9 H 1.3114 0.2411 -0.7283
C7 C 1.1180(4) 0.1981(2) -0.7711(3)
H10 H 1.0710 0.2213 -0.7105
H11 H 1.1029 0.2296 -0.8387
C8 C 0.7297(4) 0.0097(2) -0.9012(3)
H12 H 0.6605 0.0467 -0.9003
C9 C 0.6951(4) -0.0599(2) -0.9421(3)
H13 H 0.6027 -0.0707 -0.9695
C10 C 0.7956(5) -0.1141(2) -0.9432(3)
H14 H 0.7719 -0.1621 -0.9714
C11 C 0.9306(4) -0.0986(2) -0.9033(3)
H15 H 0.9989 -0.1361 -0.9037
C12 C 0.9664(4) -0.0283(2) -0.8625(3)
H16 H 1.0592 -0.0178 -0.8358
C13 C 0.8661(3) 0.0267(2) -0.8608(3)
C14 C 0.7188(4) 0.1602(2) -0.6560(3)
H17 H 0.6653 0.1817 -0.7181
C15 C 0.6733(5) 0.1631(3) -0.5492(4)
H18 H 0.5872 0.1853 -0.5387
C16 C 0.7534(5) 0.1336(3) -0.4594(3)
H19 H 0.7229 0.1364 -0.3867
C17 C 0.8781(5) 0.0998(3) -0.4735(3)
H20 H 0.9322 0.0798 -0.4105
C18 C 0.9245(4) 0.0949(2) -0.5784(3)
H21 H 1.0097 0.0713 -0.5880
C19 C 0.8445(4) 0.1251(2) -0.6707(3)
O1A O 1.3359(2) 0.3225(2) -0.3832(2)
Zn1A Zn 0.69804(4) 0.21181(2) -1.00473(3)
loop_
_geom_bond_atom_site_label_1
_geom_bond_atom_site_label_2
_geom_bond_site_symmetry_1
_geom_bond_site_symmetry_2
Zn1 Cl1 1_555 1_555
Cl2 Zn1 1_555 1_555
P1 O1 1_555 1_555
N1 Zn1 1_555 1_555
O1 Zn1A 1_555 1_555
O2 P1 1_555 1_555
N2 N1 1_555 1_555
C1 N1 1_555 1_555
C2 C1 1_555 1_555
H1 C2 1_555 1_555
C3 N2 1_555 1_555
C4 C1 1_555 1_555
H2 C4 1_555 1_555
H3 C4 1_555 1_555
H4 C4 1_555 1_555
C5 C3 1_555 1_555
H5 C5 1_555 1_555
H6 C5 1_555 1_555
H7 C5 1_555 1_555
C6 N2 1_555 1_555
H8 C6 1_555 1_555
H9 C6 1_555 1_555
C7 O2 1_555 1_555
H10 C7 1_555 1_555
H11 C7 1_555 1_555
C8 H12 1_555 1_555
C9 C8 1_555 1_555
H13 C9 1_555 1_555
C10 C9 1_555 1_555
H14 C10 1_555 1_555
C11 C10 1_555 1_555
H15 C11 1_555 1_555
C12 C11 1_555 1_555
H16 C12 1_555 1_555
C13 P1 1_555 1_555
C14 H17 1_555 1_555
C15 C14 1_555 1_555
H18 C15 1_555 1_555
C16 C15 1_555 1_555
H19 C16 1_555 1_555
C17 C16 1_555 1_555
H20 C17 1_555 1_555
C18 C17 1_555 1_555
H21 C18 1_555 1_555
C19 P1 1_555 1_555
O1A Zn1 1_555 1_555
C2 C3 1_555 1_555
C6 C7 1_555 1_555
C8 C13 1_555 1_555
C12 C13 1_555 1_555
C14 C19 1_555 1_555
C18 C19 1_555 1_555

#END
