
#######################################################################
#
#                 Cambridge Crystallographic Data Centre
#                                CCDC 
#
#######################################################################
#
# If this CIF has been generated from an entry in the Cambridge 
# Structural Database, then it will include bibliographic, chemical, 
# crystal, experimental, refinement or atomic coordinate data resulting 
# from the CCDC's data processing and validation procedures.
#
#######################################################################

data_UDALIU
_symmetry_cell_setting           monoclinic
_symmetry_space_group_name_H-M   'P 21/n'
_symmetry_Int_Tables_number      14
_space_group_name_Hall           '-P 2yn'
loop_
_symmetry_equiv_pos_site_id
_symmetry_equiv_pos_as_xyz
1 x,y,z
2 1/2+x,1/2-y,1/2+z
3 -x,-y,-z
4 1/2-x,1/2+y,1/2-z
_cell_length_a                   9.751(6)
_cell_length_b                   18.126(2)
_cell_length_c                   11.946(3)
_cell_angle_alpha                90
_cell_angle_beta                 95.31(3)
_cell_angle_gamma                90
_cell_volume                     2102.35
loop_
_atom_site_label
_atom_site_type_symbol
_atom_site_fract_x
_atom_site_fract_y
_atom_site_fract_z
C1 C -0.3780(13) 0.4648(6) 0.7131(10)
H1 H -0.3592 0.4388 0.7828
H2 H -0.4747 0.4756 0.7013
H3 H -0.3266 0.5101 0.7158
C2 C -0.3368(11) 0.4182(8) 0.6188(12)
C3 C -0.3424(12) 0.4306(8) 0.5070(12)
H4 H -0.3702 0.4740 0.4701
C4 C 0.0354(12) 0.5282(8) 0.8608(10)
H5 H -0.0554 0.5175 0.8351
C5 C 0.0681(16) 0.5971(8) 0.8994(11)
H6 H 0.0007 0.6334 0.8988
N1 N -0.2955(9) 0.3478(6) 0.6348(8)
C6 C -0.2625(11) 0.3075(6) 0.7388(8)
H7 H -0.3008 0.2582 0.7306
H8 H -0.3060 0.3319 0.7986
C7 C -0.2988(12) 0.3664(8) 0.4574(10)
P1 P 0.1030(3) 0.38230(19) 0.8096(2)
C8 C 0.0805(13) 0.4059(6) 0.5797(10)
H9 H -0.0020 0.4300 0.5890
N2 N -0.2688(8) 0.3151(5) 0.5351(7)
C9 C 0.1356(12) 0.4729(6) 0.8590(8)
O1 O 0.1684(7) 0.3238(4) 0.8845(5)
C10 C -0.2841(13) 0.3549(7) 0.3355(9)
H10 H -0.2544 0.3052 0.3236
H11 H -0.2172 0.3888 0.3114
H12 H -0.3712 0.3632 0.2931
C11 C 0.1296(18) 0.3999(7) 0.4737(10)
H13 H 0.0787 0.4202 0.4116
C12 C 0.1591(12) 0.3747(6) 0.6709(9)
C13 C 0.1999(17) 0.6125(8) 0.9389(10)
H14 H 0.2215 0.6598 0.9652
C14 C -0.1113(11) 0.3017(7) 0.7722(9)
H15 H -0.0946 0.2712 0.8388
H16 H -0.0652 0.2794 0.7120
Cl1 Cl -0.1907(4) 0.13462(17) 0.6498(2)
O2 O -0.0588(7) 0.3761(4) 0.7949(5)
Co1 Co -0.19881(15) 0.21198(8) 0.50435(12)
C15 C 0.2672(13) 0.4920(8) 0.9011(10)
H17 H 0.3360 0.4563 0.9023
C16 C 0.2491(18) 0.3653(8) 0.4597(12)
H18 H 0.2789 0.3611 0.3883
C17 C 0.3015(16) 0.5608(10) 0.9409(10)
H19 H 0.3913 0.5720 0.9687
C18 C 0.2819(12) 0.3404(7) 0.6578(10)
H20 H 0.3339 0.3201 0.7194
C19 C 0.3275(15) 0.3362(8) 0.5514(13)
H21 H 0.4113 0.3137 0.5417
Cl2 Cl 0.0009(3) 0.21739(19) 0.4303(3)
Co1A Co 0.30119(15) 0.28802(8) 1.00435(12)
O1A O -0.3316(7) 0.1762(4) 0.3845(5)
loop_
_geom_bond_atom_site_label_1
_geom_bond_atom_site_label_2
_geom_bond_site_symmetry_1
_geom_bond_site_symmetry_2
C1 H1 1_555 1_555
H2 C1 1_555 1_555
H3 C1 1_555 1_555
C2 C1 1_555 1_555
C3 C2 1_555 1_555
H4 C3 1_555 1_555
C4 H5 1_555 1_555
C5 C4 1_555 1_555
H6 C5 1_555 1_555
N1 C2 1_555 1_555
C6 N1 1_555 1_555
H7 C6 1_555 1_555
H8 C6 1_555 1_555
C7 C3 1_555 1_555
P1 C9 1_555 1_555
C8 H9 1_555 1_555
N2 N1 1_555 1_555
C9 C4 1_555 1_555
O1 P1 1_555 1_555
C10 C7 1_555 1_555
H10 C10 1_555 1_555
H11 C10 1_555 1_555
H12 C10 1_555 1_555
C11 C8 1_555 1_555
H13 C11 1_555 1_555
C12 P1 1_555 1_555
C13 C5 1_555 1_555
H14 C13 1_555 1_555
C14 C6 1_555 1_555
H15 C14 1_555 1_555
H16 C14 1_555 1_555
Cl1 Co1 1_555 1_555
O2 P1 1_555 1_555
Co1 N2 1_555 1_555
C15 C9 1_555 1_555
H17 C15 1_555 1_555
C16 C11 1_555 1_555
H18 C16 1_555 1_555
C17 C13 1_555 1_555
H19 C17 1_555 1_555
C18 C12 1_555 1_555
H20 C18 1_555 1_555
C19 C16 1_555 1_555
H21 C19 1_555 1_555
Cl2 Co1 1_555 1_555
Co1A O1 1_555 1_555
O1A Co1 1_555 1_555
C7 N2 1_555 1_555
C8 C12 1_555 1_555
C14 O2 1_555 1_555
C15 C17 1_555 1_555
C18 C19 1_555 1_555

#END
