
#######################################################################
#
#                 Cambridge Crystallographic Data Centre
#                                CCDC 
#
#######################################################################
#
# If this CIF has been generated from an entry in the Cambridge 
# Structural Database, then it will include bibliographic, chemical, 
# crystal, experimental, refinement or atomic coordinate data resulting 
# from the CCDC's data processing and validation procedures.
#
#######################################################################

data_UDAMOD
_symmetry_cell_setting           orthorhombic
_symmetry_space_group_name_H-M   'P n n a'
_symmetry_Int_Tables_number      52
_space_group_name_Hall           '-P 2a 2bc'
loop_
_symmetry_equiv_pos_site_id
_symmetry_equiv_pos_as_xyz
1 x,y,z
2 1/2-x,-y,z
3 1/2-x,1/2+y,1/2-z
4 x,1/2-y,1/2-z
5 -x,-y,-z
6 1/2+x,y,-z
7 1/2+x,1/2-y,1/2+z
8 -x,1/2+y,1/2+z
_cell_length_a                   32.9876(14)
_cell_length_b                   15.2044(6)
_cell_length_c                   15.3966(6)
_cell_angle_alpha                90
_cell_angle_beta                 90
_cell_angle_gamma                90
_cell_volume                     7722.27
loop_
_atom_site_label
_atom_site_type_symbol
_atom_site_fract_x
_atom_site_fract_y
_atom_site_fract_z
Cu1 Cu 0.548110(14) 0.44833(4) 0.11052(3)
Cu2 Cu 0.587029(17) 0.30578(4) 0.38324(3)
Cu3 Cu 0.697130(18) 0.24630(4) 0.59046(4)
C1 C 0.51009(10) 0.4884(3) 0.0282(2)
N1 N 0.48991(10) 0.5116(3) -0.0282(2)
C2 C 0.55919(12) 0.3958(3) 0.2153(2)
C3 C 0.63168(12) 0.2780(3) 0.4518(3)
C4 C 0.70105(12) 0.2474(3) 0.7123(2)
N2 N 0.70105(12) 0.2526(3) 0.7877(2)
C5 C 0.63980(11) 0.4484(3) 0.0843(2)
H1 H 0.6402 0.4285 0.1414
C6 C 0.67618(11) 0.4559(3) 0.0408(2)
H2 H 0.7002 0.4410 0.0686
C7 C 0.67710(11) 0.4856(3) -0.0440(2)
C8 C 0.64040(12) 0.5071(3) -0.0796(2)
H3 H 0.6392 0.5277 -0.1365
C9 C 0.60530(12) 0.4987(3) -0.0323(3)
H4 H 0.5810 0.5152 -0.0581
C10 C 0.71525(11) 0.4929(3) -0.0934(2)
C11 C 0.71459(11) 0.4916(3) -0.1831(2)
H5 H 0.6900 0.4850 -0.2118
C12 C 0.7500 0.5000 -0.2312(3)
C13 C 0.7500 0.5000 -0.3274(3)
C14 C 0.77923(13) 0.5435(3) -0.3743(3)
H6 H 0.7997 0.5732 -0.3448
C15 C 0.77915(13) 0.5444(3) -0.4637(3)
H7 H 0.7991 0.5756 -0.4931
C16 C 0.7500 0.5000 -0.5101(3)
C17 C 0.7500 0.5000 -0.6069(3)
C18 C 0.77377(13) 0.5582(3) -0.6535(2)
H8 H 0.7898 0.5986 -0.6240
C19 C 0.77407(15) 0.5574(3) -0.7431(2)
H9 H 0.7907 0.5962 -0.7733
C20 C 0.7500 0.5000 -0.7873(4)
H10 H 0.7500 0.5000 -0.8477
C21 C 0.42951(18) -0.0708(4) 1.2543(3)
H11 H 0.4327 -0.0930 1.3102
C22 C 0.39763(17) -0.0993(4) 1.2035(3)
H12 H 0.3796 -0.1412 1.2244
C23 C 0.39302(15) -0.0648(3) 1.1217(3)
H13 H 0.3711 -0.0832 1.0883
C24 C 0.41946(14) -0.0041(3) 1.0868(3)
C25 C 0.45159(15) 0.0230(4) 1.1403(3)
H14 H 0.4702 0.0641 1.1199
C26 C 0.45589(17) -0.0112(4) 1.2236(3)
H15 H 0.4773 0.0075 1.2584
C27 C 0.41497(13) 0.0302(3) 0.9977(3)
C28 C 0.37759(15) 0.0454(4) 0.9610(3)
H16 H 0.3545 0.0348 0.9939
C29 C 0.37325(15) 0.0757(4) 0.8769(3)
H17 H 0.3473 0.0838 0.8548
C30 C 0.40575(12) 0.0944(3) 0.8249(3)
C31 C 0.44289(14) 0.0812(4) 0.8631(3)
H18 H 0.4661 0.0937 0.8311
C32 C 0.44728(14) 0.0507(4) 0.9462(3)
H19 H 0.4733 0.0437 0.9684
C33 C 0.40196(12) 0.1299(3) 0.7360(2)
C34 C 0.36501(12) 0.1476(3) 0.6964(3)
H20 H 0.3411 0.1354 0.7260
C35 C 0.36315(12) 0.1833(3) 0.6130(3)
C36 C 0.43239(12) 0.1864(3) 0.6048(3)
C37 C 0.43613(12) 0.1502(3) 0.6861(3)
H21 H 0.4618 0.1390 0.7084
C38 C 0.32408(12) 0.2010(3) 0.5678(3)
C39 C 0.28720(13) 0.2041(3) 0.6089(3)
H22 H 0.2858 0.1957 0.6686
C40 C 0.25236(13) 0.2195(3) 0.5628(3)
H23 H 0.2281 0.2226 0.5935
C41 C 0.28678(15) 0.2275(4) 0.4383(3)
H24 H 0.2873 0.2353 0.3784
C42 C 0.32285(14) 0.2141(4) 0.4794(3)
H25 H 0.3468 0.2138 0.4475
C43 C 0.46886(12) 0.2131(3) 0.5529(3)
C44 C 0.46632(13) 0.2276(3) 0.4645(3)
H26 H 0.4417 0.2201 0.4358
C45 C 0.50013(14) 0.2530(3) 0.4191(3)
H27 H 0.4975 0.2626 0.3597
C46 C 0.53877(13) 0.2500(3) 0.5400(3)
H28 H 0.5638 0.2575 0.5669
C47 C 0.50626(13) 0.2243(3) 0.5903(3)
H29 H 0.5097 0.2147 0.6495
N3 N 0.56977(11) 0.3613(3) 0.2783(3)
N4 N 0.65670(12) 0.2646(3) 0.5026(3)
N5 N 0.60428(9) 0.4682(2) 0.04864(19)
N6 N 0.7500 0.5000 -0.0476(3)
N7 N 0.25103(10) 0.2301(2) 0.4774(2)
N8 N 0.39661(10) 0.2018(2) 0.5669(2)
N9 N 0.53625(10) 0.2648(2) 0.4547(2)
Cu1A Cu 0.951890(14) 0.55167(4) 0.11052(3)
Cu1D Cu 0.451890(14) 0.55167(4) -0.11052(3)
Cu1E Cu 1.048110(14) 0.44833(4) -0.11052(3)
Cu2A Cu 0.912971(17) 0.69422(4) 0.38324(3)
Cu2E Cu 1.087029(17) 0.30578(4) 0.61676(3)
Cu3E Cu 0.197130(18) 0.24630(4) 0.40954(4)
Cu3C Cu 0.697130(18) 0.25370(4) 0.90954(4)
Cu3A Cu 0.802870(18) 0.75370(4) 0.59046(4)
Cu3F Cu 0.197130(18) 0.25370(4) 0.09046(4)
C1A C 0.98991(10) 0.5116(3) 0.0282(2)
N1A N 1.01009(10) 0.4884(3) -0.0282(2)
C2A C 0.94081(12) 0.6042(3) 0.2153(2)
C3A C 0.86832(12) 0.7220(3) 0.4518(3)
C4E C 0.20105(12) 0.2474(3) 0.2877(2)
N2E N 0.20105(12) 0.2526(3) 0.2123(2)
C5A C 0.86020(11) 0.5516(3) 0.0843(2)
H1A H 0.8598 0.5715 0.1414
C6A C 0.82382(11) 0.5441(3) 0.0408(2)
H2A H 0.7998 0.5590 0.0686
C7A C 0.82290(11) 0.5144(3) -0.0440(2)
C8A C 0.85960(12) 0.4929(3) -0.0796(2)
H3A H 0.8608 0.4723 -0.1365
C9A C 0.89470(12) 0.5013(3) -0.0323(3)
H4A H 0.9190 0.4848 -0.0581
C10A C 0.78475(11) 0.5071(3) -0.0934(2)
C11A C 0.78541(11) 0.5084(3) -0.1831(2)
H5A H 0.8100 0.5150 -0.2118
C14A C 0.72077(13) 0.4565(3) -0.3743(3)
H6A H 0.7003 0.4268 -0.3448
C15A C 0.72085(13) 0.4556(3) -0.4637(3)
H7A H 0.7009 0.4244 -0.4931
C18A C 0.72623(13) 0.4418(3) -0.6535(2)
H8A H 0.7102 0.4014 -0.6240
C19A C 0.72593(15) 0.4426(3) -0.7431(2)
H9A H 0.7093 0.4038 -0.7733
C21E C 0.92951(18) -0.0708(4) -0.2543(3)
H11E H 0.9327 -0.0930 -0.3102
C22E C 0.89763(17) -0.0993(4) -0.2035(3)
H12E H 0.8796 -0.1412 -0.2244
C23E C 0.89302(15) -0.0648(3) -0.1217(3)
H13E H 0.8711 -0.0832 -0.0883
C24E C 0.91946(14) -0.0041(3) -0.0868(3)
C25E C 0.95159(15) 0.0230(4) -0.1403(3)
H14E H 0.9702 0.0641 -0.1199
C26E C 0.95589(17) -0.0112(4) -0.2236(3)
H15E H 0.9773 0.0075 -0.2584
C27E C 0.91497(13) 0.0302(3) 0.0023(3)
C28E C 0.87759(15) 0.0454(4) 0.0390(3)
H16E H 0.8545 0.0348 0.0061
C29E C 0.87325(15) 0.0757(4) 0.1231(3)
H17E H 0.8473 0.0838 0.1452
C30E C 0.90575(12) 0.0944(3) 0.1751(3)
C31E C 0.94289(14) 0.0812(4) 0.1369(3)
H18E H 0.9661 0.0937 0.1689
C32E C 0.94728(14) 0.0507(4) 0.0538(3)
H19E H 0.9733 0.0437 0.0316
C33E C 0.90196(12) 0.1299(3) 0.2640(2)
C34E C 0.86501(12) 0.1476(3) 0.3036(3)
H20E H 0.8411 0.1354 0.2740
C35E C 0.86315(12) 0.1833(3) 0.3870(3)
C36E C 0.93239(12) 0.1864(3) 0.3952(3)
C37E C 0.93613(12) 0.1502(3) 0.3139(3)
H21E H 0.9618 0.1390 0.2916
C38E C 0.82408(12) 0.2010(3) 0.4322(3)
C39E C 0.78720(13) 0.2041(3) 0.3911(3)
H22E H 0.7858 0.1957 0.3314
C40E C 0.75236(13) 0.2195(3) 0.4372(3)
H23E H 0.7281 0.2226 0.4065
C41E C 0.78678(15) 0.2275(4) 0.5617(3)
H24E H 0.7873 0.2353 0.6216
C42E C 0.82285(14) 0.2141(4) 0.5206(3)
H25E H 0.8468 0.2138 0.5525
C43E C 0.96886(12) 0.2131(3) 0.4471(3)
C44E C 0.96632(13) 0.2276(3) 0.5355(3)
H26E H 0.9417 0.2201 0.5642
C45E C 1.00013(14) 0.2530(3) 0.5809(3)
H27E H 0.9975 0.2626 0.6403
C46E C 1.03877(13) 0.2500(3) 0.4600(3)
H28E H 1.0638 0.2575 0.4331
C47E C 1.00626(13) 0.2243(3) 0.4097(3)
H29E H 1.0097 0.2147 0.3505
N3A N 0.93023(11) 0.6387(3) 0.2783(3)
N4A N 0.84330(12) 0.7354(3) 0.5026(3)
N4E N 0.15670(12) 0.2646(3) 0.4974(3)
N5A N 0.89572(9) 0.5318(2) 0.04864(19)
N7E N 0.75103(10) 0.2301(2) 0.5226(2)
N8E N 0.89661(10) 0.2018(2) 0.4331(2)
N9E N 1.03625(10) 0.2648(2) 0.5453(2)
N9A N 0.96375(10) 0.7352(2) 0.4547(2)
loop_
_geom_bond_atom_site_label_1
_geom_bond_atom_site_label_2
_geom_bond_site_symmetry_1
_geom_bond_site_symmetry_2
Cu1 C1 1_555 1_555
Cu2 C3 1_555 1_555
Cu3 C4 1_555 1_555
C1 N1 1_555 1_555
N1 Cu1D 1_555 1_555
C2 Cu1 1_555 1_555
C3 N4 1_555 1_555
C4 N2 1_555 1_555
N2 Cu3C 1_555 1_555
C5 H1 1_555 1_555
C6 C5 1_555 1_555
H2 C6 1_555 1_555
C7 C6 1_555 1_555
C8 C7 1_555 1_555
H3 C8 1_555 1_555
C9 C8 1_555 1_555
H4 C9 1_555 1_555
C10 C7 1_555 1_555
C11 C10 1_555 1_555
H5 C11 1_555 1_555
C12 C11 1_555 1_555
C13 C12 1_555 1_555
C14 C13 1_555 1_555
H6 C14 1_555 1_555
C15 C14 1_555 1_555
H7 C15 1_555 1_555
C16 C15 1_555 1_555
C17 C16 1_555 1_555
C18 C17 1_555 1_555
H8 C18 1_555 1_555
C19 C18 1_555 1_555
H9 C19 1_555 1_555
C20 C19 1_555 1_555
H10 C20 1_555 1_555
C21 H11 1_555 1_555
C22 C21 1_555 1_555
H12 C22 1_555 1_555
C23 C22 1_555 1_555
H13 C23 1_555 1_555
C24 C23 1_555 1_555
C25 C24 1_555 1_555
H14 C25 1_555 1_555
C26 C21 1_555 1_555
H15 C26 1_555 1_555
C27 C24 1_555 1_555
C28 C27 1_555 1_555
H16 C28 1_555 1_555
C29 C28 1_555 1_555
H17 C29 1_555 1_555
C30 C29 1_555 1_555
C31 C30 1_555 1_555
H18 C31 1_555 1_555
C32 C27 1_555 1_555
H19 C32 1_555 1_555
C33 C30 1_555 1_555
C34 C33 1_555 1_555
H20 C34 1_555 1_555
C35 C34 1_555 1_555
C36 C37 1_555 1_555
C37 C33 1_555 1_555
H21 C37 1_555 1_555
C38 C35 1_555 1_555
C39 C38 1_555 1_555
H22 C39 1_555 1_555
C40 C39 1_555 1_555
H23 C40 1_555 1_555
C41 H24 1_555 1_555
C42 C38 1_555 1_555
H25 C42 1_555 1_555
C43 C36 1_555 1_555
C44 C43 1_555 1_555
H26 C44 1_555 1_555
C45 C44 1_555 1_555
H27 C45 1_555 1_555
C46 H28 1_555 1_555
C47 C43 1_555 1_555
H29 C47 1_555 1_555
N3 Cu2 1_555 1_555
N4 Cu3 1_555 1_555
N5 Cu1 1_555 1_555
N6 C10 1_555 1_555
N7 C40 1_555 1_555
N8 C35 1_555 1_555
N9 Cu2 1_555 1_555
Cu1A C1A 1_555 1_555
Cu1E N1A 1_555 1_555
Cu2A C3A 1_555 1_555
Cu2E N9E 1_555 1_555
Cu3E N7 1_555 1_555
Cu3A N4A 1_555 1_555
Cu3F N2E 1_555 1_555
C1A N1A 1_555 1_555
C2A Cu1A 1_555 1_555
C3A N4A 1_555 1_555
C4E Cu3E 1_555 1_555
N2E C4E 1_555 1_555
C5A H1A 1_555 1_555
C6A C5A 1_555 1_555
H2A C6A 1_555 1_555
C7A C6A 1_555 1_555
C8A C7A 1_555 1_555
H3A C8A 1_555 1_555
C9A C8A 1_555 1_555
H4A C9A 1_555 1_555
C10A N6 1_555 1_555
C11A C12 1_555 1_555
H5A C11A 1_555 1_555
C14A C13 1_555 1_555
H6A C14A 1_555 1_555
C15A C16 1_555 1_555
H7A C15A 1_555 1_555
C18A C17 1_555 1_555
H8A C18A 1_555 1_555
C19A C20 1_555 1_555
H9A C19A 1_555 1_555
C21E H11E 1_555 1_555
C22E C21E 1_555 1_555
H12E C22E 1_555 1_555
C23E C22E 1_555 1_555
H13E C23E 1_555 1_555
C24E C23E 1_555 1_555
C25E C24E 1_555 1_555
H14E C25E 1_555 1_555
C26E C21E 1_555 1_555
H15E C26E 1_555 1_555
C27E C24E 1_555 1_555
C28E C27E 1_555 1_555
H16E C28E 1_555 1_555
C29E C28E 1_555 1_555
H17E C29E 1_555 1_555
C30E C29E 1_555 1_555
C31E C30E 1_555 1_555
H18E C31E 1_555 1_555
C32E C27E 1_555 1_555
H19E C32E 1_555 1_555
C33E C30E 1_555 1_555
C34E C33E 1_555 1_555
H20E C34E 1_555 1_555
C35E C34E 1_555 1_555
C36E C37E 1_555 1_555
C37E C33E 1_555 1_555
H21E C37E 1_555 1_555
C38E C35E 1_555 1_555
C39E C38E 1_555 1_555
H22E C39E 1_555 1_555
C40E C39E 1_555 1_555
H23E C40E 1_555 1_555
C41E H24E 1_555 1_555
C42E C38E 1_555 1_555
H25E C42E 1_555 1_555
C43E C36E 1_555 1_555
C44E C43E 1_555 1_555
H26E C44E 1_555 1_555
C45E C44E 1_555 1_555
H27E C45E 1_555 1_555
C46E H28E 1_555 1_555
C47E C43E 1_555 1_555
H29E C47E 1_555 1_555
N3A Cu2A 1_555 1_555
N4E Cu3E 1_555 1_555
N5A Cu1A 1_555 1_555
N7E Cu3 1_555 1_555
N8E C35E 1_555 1_555
N9E C45E 1_555 1_555
N9A Cu2A 1_555 1_555
C2 N3 1_555 1_555
C5 N5 1_555 1_555
C9 N5 1_555 1_555
C25 C26 1_555 1_555
C31 C32 1_555 1_555
C36 N8 1_555 1_555
C41 C42 1_555 1_555
C41 N7 1_555 1_555
C45 N9 1_555 1_555
C46 C47 1_555 1_555
C46 N9 1_555 1_555
C2A N3A 1_555 1_555
C5A N5A 1_555 1_555
C7A C10A 1_555 1_555
C9A N5A 1_555 1_555
C10A C11A 1_555 1_555
C14A C15A 1_555 1_555
C18A C19A 1_555 1_555
C25E C26E 1_555 1_555
C31E C32E 1_555 1_555
C36E N8E 1_555 1_555
C40E N7E 1_555 1_555
C41E C42E 1_555 1_555
C41E N7E 1_555 1_555
C46E C47E 1_555 1_555
C46E N9E 1_555 1_555

#END
