
#######################################################################
#
#                 Cambridge Crystallographic Data Centre
#                                CCDC 
#
#######################################################################
#
# If this CIF has been generated from an entry in the Cambridge 
# Structural Database, then it will include bibliographic, chemical, 
# crystal, experimental, refinement or atomic coordinate data resulting 
# from the CCDC's data processing and validation procedures.
#
#######################################################################

data_UDANEU
_symmetry_cell_setting           triclinic
_symmetry_space_group_name_H-M   'P -1'
_symmetry_Int_Tables_number      2
_space_group_name_Hall           '-P 1'
loop_
_symmetry_equiv_pos_site_id
_symmetry_equiv_pos_as_xyz
1 x,y,z
2 -x,-y,-z
_cell_length_a                   11.483(5)
_cell_length_b                   15.437(5)
_cell_length_c                   24.340(5)
_cell_angle_alpha                89.665(5)
_cell_angle_beta                 84.459(5)
_cell_angle_gamma                71.488(5)
_cell_volume                     4070.81
loop_
_atom_site_label
_atom_site_type_symbol
_atom_site_fract_x
_atom_site_fract_y
_atom_site_fract_z
Cu1 Cu -0.36259(11) 0.34908(8) 0.56755(4)
Cu2 Cu -0.13859(9) 0.10070(8) 0.75959(4)
Cu3 Cu 0.0000 0.0000 1.0000
Cu4 Cu -0.24208(9) 0.69757(7) 0.86714(4)
Cu5 Cu -0.5000 0.5000 1.0000
C1 C -0.0025(7) 0.2353(6) 0.7411(3)
C2 C 0.0985(8) 0.2583(6) 0.7541(3)
C3 C 0.1370(8) 0.3259(6) 0.7289(4)
H1 H 0.2066 0.3387 0.7381
C4 C 0.0658(9) 0.3736(7) 0.6890(4)
H2 H 0.0856 0.4219 0.6719
C5 C -0.0340(9) 0.3509(7) 0.6743(4)
H3 H -0.0771 0.3818 0.6458
C6 C -0.0710(8) 0.2844(6) 0.7003(3)
H4 H -0.1409 0.2719 0.6911
C7 C 0.0783(7) 0.1414(5) 0.8023(3)
C8 C 0.1162(7) 0.0610(5) 0.8382(3)
C9 C 0.2183(8) -0.0136(6) 0.8228(3)
H5 H 0.2664 -0.0144 0.7897
C10 C 0.2472(7) -0.0859(6) 0.8569(3)
H6 H 0.3139 -0.1377 0.8465
C11 C 0.1788(7) -0.0827(5) 0.9059(3)
H7 H 0.2004 -0.1327 0.9286
C12 C 0.0513(7) 0.0590(6) 0.8881(3)
H8 H -0.0181 0.1089 0.8982
C13 C 0.2458(7) 0.2042(6) 0.8280(4)
H9 H 0.3186 0.2060 0.8048
H10 H 0.2698 0.1510 0.8509
C14 C 0.1968(8) 0.2918(7) 0.8656(3)
H11 H 0.2596 0.2931 0.8893
H12 H 0.1819 0.3450 0.8426
C15 C 0.0808(8) 0.2973(6) 0.9007(4)
H13 H 0.0935 0.2405 0.9201
H14 H 0.0163 0.3025 0.8767
C16 C 0.0360(9) 0.3750(6) 0.9425(4)
H15 H -0.0381 0.3709 0.9636
H16 H 0.0982 0.3679 0.9680
C17 C 0.0809(8) 0.5232(6) 0.9181(4)
C18 C 0.2008(10) 0.5091(7) 0.9295(4)
H17 H 0.2490 0.4520 0.9400
C19 C 0.2469(10) 0.5787(10) 0.9253(5)
H18 H 0.3281 0.5695 0.9322
C20 C 0.1743(9) 0.6641(8) 0.9107(5)
H19 H 0.2072 0.7120 0.9093
C21 C 0.0558(8) 0.6802(6) 0.8984(4)
H20 H 0.0081 0.7379 0.8885
C22 C 0.0093(7) 0.6081(6) 0.9013(3)
C23 C -0.1022(8) 0.5190(6) 0.9024(3)
C24 C -0.2065(9) 0.4822(6) 0.8967(4)
C25 C -0.2086(11) 0.4353(8) 0.8495(4)
H21 H -0.1448 0.4252 0.8212
C26 C -0.3052(12) 0.4037(8) 0.8443(4)
H22 H -0.3088 0.3726 0.8123
C27 C -0.3915(10) 0.4174(8) 0.8843(5)
H23 H -0.4539 0.3921 0.8807
C28 C -0.3026(10) 0.5000(8) 0.9362(4)
H24 H -0.3045 0.5357 0.9671
C29 C -0.0199(8) -0.0951(8) 0.7675(3)
H25 H 0.0502 -0.0769 0.7646
C30 C -0.0033(8) -0.1854(7) 0.7645(4)
H26 H 0.0760 -0.2272 0.7596
C31 C -0.1039(8) -0.2152(6) 0.7686(4)
H27 H -0.0939 -0.2774 0.7676
C32 C -0.2198(7) -0.1522(6) 0.7742(3)
C33 C -0.2270(7) -0.0619(6) 0.7773(3)
H28 H -0.3055 -0.0191 0.7819
C34 C -0.3276(6) -0.1830(5) 0.7768(3)
C35 C -0.4528(7) -0.2599(5) 0.7971(3)
C36 C -0.4950(6) -0.2072(5) 0.7535(3)
C37 C -0.5981(7) -0.2103(6) 0.7288(3)
H29 H -0.6284 -0.1734 0.6996
C38 C -0.6512(8) -0.2721(7) 0.7508(4)
H30 H -0.7196 -0.2777 0.7353
C39 C -0.6101(8) -0.3261(7) 0.7941(4)
H31 H -0.6506 -0.3669 0.8070
C40 C -0.5109(8) -0.3212(6) 0.8187(3)
H32 H -0.4831 -0.3571 0.8486
C41 C -0.4170(7) -0.1042(6) 0.6922(3)
H33 H -0.4285 -0.1388 0.6612
H34 H -0.3373 -0.0949 0.6847
C42 C -0.5161(7) -0.0125(6) 0.6961(3)
H35 H -0.5947 -0.0200 0.7092
H36 H -0.4972 0.0268 0.7225
C43 C -0.5250(7) 0.0308(6) 0.6412(3)
H37 H -0.5507 -0.0065 0.6161
H38 H -0.4437 0.0319 0.6268
C44 C -0.6146(7) 0.1276(6) 0.6426(3)
H39 H -0.6940 0.1260 0.6331
H40 H -0.6261 0.1534 0.6798
C45 C -0.5809(7) 0.1919(5) 0.5480(3)
C46 C -0.6455(7) 0.1538(6) 0.5145(4)
H41 H -0.6926 0.1179 0.5285
C47 C -0.6341(8) 0.1732(6) 0.4600(4)
H42 H -0.6758 0.1500 0.4360
C48 C -0.5632(8) 0.2258(6) 0.4386(3)
H43 H -0.5602 0.2377 0.4011
C49 C -0.4978(7) 0.2604(5) 0.4715(3)
H44 H -0.4485 0.2943 0.4572
C50 C -0.5085(6) 0.2427(5) 0.5268(3)
C51 C -0.4901(6) 0.2309(5) 0.6156(3)
C52 C -0.4516(7) 0.2381(6) 0.6711(3)
C53 C -0.3457(7) 0.1753(6) 0.6885(3)
H45 H -0.2973 0.1295 0.6637
C54 C -0.5217(8) 0.3078(6) 0.7068(3)
H46 H -0.5896 0.3531 0.6956
C55 C -0.4893(10) 0.3088(8) 0.7591(4)
H47 H -0.5363 0.3538 0.7847
C56 C -0.3842(9) 0.2411(8) 0.7735(4)
H48 H -0.3648 0.2407 0.8098
C57 C -0.3029(7) 0.5028(6) 0.6104(3)
C58 C -0.3342(8) 0.4932(7) 0.6660(4)
H49 H -0.3727 0.4507 0.6778
C59 C -0.3067(9) 0.5485(8) 0.7031(4)
H50 H -0.3287 0.5444 0.7405
C60 C -0.2475(9) 0.6095(8) 0.6862(4)
H51 H -0.2284 0.6444 0.7128
C61 C -0.2150(8) 0.6216(6) 0.6315(4)
H52 H -0.1749 0.6635 0.6205
C62 C -0.2458(7) 0.5672(6) 0.5936(3)
C63 C -0.2732(7) 0.4912(6) 0.5218(3)
C64 C -0.2363(8) 0.3724(6) 0.4460(4)
H53 H -0.2034 0.3265 0.4704
C65 C -0.2753(7) 0.4634(6) 0.4636(3)
C66 C -0.3157(9) 0.5267(7) 0.4245(4)
H54 H -0.3400 0.5880 0.4354
C67 C -0.2464(10) 0.3506(8) 0.3924(4)
H55 H -0.2240 0.2898 0.3805
C68 C -0.2895(13) 0.4190(9) 0.3572(5)
H56 H -0.2960 0.4038 0.3210
C69 C -0.1527(7) 0.6010(6) 0.5020(3)
H57 H -0.1326 0.6455 0.5239
H58 H -0.1975 0.6326 0.4721
C70 C -0.0339(8) 0.5282(6) 0.4783(3)
H59 H -0.0541 0.4887 0.4525
H60 H 0.0192 0.5578 0.4580
N1 N 0.0805(6) -0.0094(5) 0.9231(2)
N2 N -0.0155(5) 0.1630(4) 0.7721(2)
N3 N 0.1522(6) 0.1955(4) 0.7927(2)
N4 N 0.0085(7) 0.4670(5) 0.9190(3)
N5 N -0.1062(6) 0.6038(5) 0.8923(3)
N6 N -0.3980(9) 0.4654(8) 0.9309(4)
N7 N -0.4152(5) -0.1581(4) 0.7418(2)
N8 N -0.1300(6) -0.0295(5) 0.7745(2)
N9 N -0.3446(5) -0.2448(4) 0.8115(2)
N10 N -0.5698(5) 0.1861(4) 0.6041(2)
N11 N -0.4525(5) 0.2675(4) 0.5707(2)
N12 N -0.3108(6) 0.1776(5) 0.7386(3)
N13 N -0.3147(6) 0.4533(5) 0.5647(3)
N14 N -0.2299(6) 0.5584(4) 0.5363(3)
N15 N -0.3232(10) 0.5079(7) 0.3723(4)
O1 O -0.4908(4) 0.1396(4) 0.93215(18)
O2 O -0.4915(5) -0.0094(4) 0.86258(19)
O3 O -0.4491(4) -0.0860(3) 0.96841(19)
O4 O -0.2104(5) 0.8220(4) 0.90424(19)
O5 O -0.3324(4) -0.0464(4) 1.05097(19)
O6 O -0.1050(4) -0.1215(4) 0.9847(2)
O7 O -0.3076(4) 0.0016(3) 0.9374(2)
O8 O -0.2790(4) -0.2174(4) 1.00937(19)
O9 O -0.1541(4) 0.0859(4) 0.97353(19)
O10 O -0.2674(5) 0.1693(4) 0.8876(2)
O11 O -0.3858(4) 0.2033(4) 1.0004(2)
O12 O -0.5887(5) 0.3333(4) 0.9600(2)
O13 O -0.3998(5) 0.7203(4) 0.9345(2)
O14 O 0.0872(4) 0.1304(3) 0.59941(19)
O15 O 0.0015(5) 0.2701(4) 0.5260(2)
O16 O -0.1655(4) 0.2201(4) 0.5907(2)
O17 O 0.1228(4) 0.0896(3) 0.48381(18)
O18 O 0.2871(4) -0.0820(4) 0.4539(2)
O19 O -0.0360(5) -0.2268(4) 0.5943(2)
O20 O -0.1800(4) -0.0594(4) 0.62974(19)
O21 O -0.0227(4) 0.0235(3) 0.55481(18)
O22 O -0.0556(4) 0.0675(4) 0.67489(19)
O23 O 0.1902(5) 0.0059(4) 0.6815(2)
O24 O 0.2222(4) -0.0356(3) 0.56298(19)
O25 O -0.1111(4) 0.1487(3) 0.48464(18)
O26 O 0.0739(4) -0.1011(4) 0.62922(19)
Mo1 Mo -0.51128(6) 0.02142(5) 0.92996(3)
Mo2 Mo -0.56785(6) 0.23928(5) 0.99849(3)
Mo3 Mo -0.29545(6) 0.12104(5) 0.94636(3)
Mo4 Mo -0.24417(6) -0.12357(5) 0.96715(3)
Mo5 Mo -0.03224(6) 0.17659(5) 0.54876(3)
Mo6 Mo 0.16297(6) -0.04109(5) 0.49982(3)
Mo7 Mo -0.05192(6) -0.11411(5) 0.58768(3)
Mo8 Mo 0.08267(6) 0.02027(5) 0.63603(3)
Cu1_2 Cu -0.36259(11) 1.34908(8) 0.56755(4)
Cu1A Cu 0.36259(11) 0.65092(8) 0.43245(4)
Cu2A Cu 0.13859(9) -0.10070(8) 1.24041(4)
Cu2_2 Cu -0.13859(9) 1.10070(8) 0.75959(4)
Cu4A Cu 0.24208(9) -0.69757(7) 1.13286(4)
Cu4_2 Cu -0.24208(9) -0.30243(7) 0.86714(4)
Cu5_2 Cu 0.5000 -0.5000 1.0000
C1A C 0.0025(7) -0.2353(6) 1.2589(3)
C2A C -0.0985(8) -0.2583(6) 1.2459(3)
C3A C -0.1370(8) -0.3259(6) 1.2711(4)
H1A H -0.2066 -0.3387 1.2619
C4A C -0.0658(9) -0.3736(7) 1.3110(4)
H2A H -0.0856 -0.4219 1.3281
C5A C 0.0340(9) -0.3509(7) 1.3257(4)
H3A H 0.0771 -0.3818 1.3542
C6A C 0.0710(8) -0.2844(6) 1.2997(3)
H4A H 0.1409 -0.2719 1.3089
C7A C -0.0783(7) -0.1414(5) 1.1977(3)
C8A C -0.1162(7) -0.0610(5) 1.1618(3)
C9A C -0.2183(8) 0.0136(6) 1.1772(3)
H5A H -0.2664 0.0144 1.2103
C10A C -0.2472(7) 0.0859(6) 1.1431(3)
H6A H -0.3139 0.1377 1.1535
C11A C -0.1788(7) 0.0827(5) 1.0941(3)
H7A H -0.2004 0.1327 1.0714
C12A C -0.0513(7) -0.0590(6) 1.1119(3)
H8A H 0.0181 -0.1089 1.1018
C13A C -0.2458(7) -0.2042(6) 1.1720(4)
H9A H -0.3186 -0.2060 1.1952
H10A H -0.2698 -0.1510 1.1491
C14A C -0.1968(8) -0.2918(7) 1.1344(3)
H11A H -0.2596 -0.2931 1.1107
H12A H -0.1819 -0.3450 1.1574
C15A C -0.0808(8) -0.2973(6) 1.0993(4)
H13A H -0.0935 -0.2405 1.0799
H14A H -0.0163 -0.3025 1.1233
C16A C -0.0360(9) -0.3750(6) 1.0575(4)
H15A H 0.0381 -0.3709 1.0364
H16A H -0.0982 -0.3679 1.0320
C17A C -0.0809(8) -0.5232(6) 1.0819(4)
C18A C -0.2008(10) -0.5091(7) 1.0705(4)
H17A H -0.2490 -0.4520 1.0600
C19A C -0.2469(10) -0.5787(10) 1.0747(5)
H18A H -0.3281 -0.5695 1.0678
C20A C -0.1743(9) -0.6641(8) 1.0893(5)
H19A H -0.2072 -0.7120 1.0907
C21A C -0.0558(8) -0.6802(6) 1.1016(4)
H20A H -0.0081 -0.7379 1.1115
C22A C -0.0093(7) -0.6081(6) 1.0987(3)
C23A C 0.1022(8) -0.5190(6) 1.0976(3)
C24A C 0.2065(9) -0.4822(6) 1.1033(4)
C25A C 0.2086(11) -0.4353(8) 1.1505(4)
H21A H 0.1448 -0.4252 1.1788
C26A C 0.3052(12) -0.4037(8) 1.1557(4)
H22A H 0.3088 -0.3726 1.1877
C27A C 0.3915(10) -0.4174(8) 1.1157(5)
H23A H 0.4539 -0.3921 1.1193
C28A C 0.3026(10) -0.5000(8) 1.0638(4)
H24A H 0.3045 -0.5357 1.0329
C29_2 C -0.0199(8) 0.9049(8) 0.7675(3)
H25_2 H 0.0502 0.9231 0.7646
C30_2 C -0.0033(8) 0.8146(7) 0.7645(4)
H26_2 H 0.0760 0.7728 0.7596
C31_2 C -0.1039(8) 0.7848(6) 0.7686(4)
H27_2 H -0.0939 0.7226 0.7676
C32_2 C -0.2198(7) 0.8478(6) 0.7742(3)
C33_2 C -0.2270(7) 0.9381(6) 0.7773(3)
H28_2 H -0.3055 0.9809 0.7819
C34_2 C -0.3276(6) 0.8170(5) 0.7768(3)
C35_2 C -0.4528(7) 0.7401(5) 0.7971(3)
C36_2 C -0.4950(6) 0.7928(5) 0.7535(3)
C37_2 C -0.5981(7) 0.7897(6) 0.7288(3)
H29_2 H -0.6284 0.8266 0.6996
C38_2 C -0.6512(8) 0.7279(7) 0.7508(4)
H30_2 H -0.7196 0.7223 0.7353
C39_2 C -0.6101(8) 0.6739(7) 0.7941(4)
H31_2 H -0.6506 0.6331 0.8070
C40_2 C -0.5109(8) 0.6788(6) 0.8187(3)
H32_2 H -0.4831 0.6429 0.8486
C41_2 C -0.4170(7) 0.8958(6) 0.6922(3)
H33_2 H -0.4285 0.8612 0.6612
H34_2 H -0.3373 0.9051 0.6847
C42_2 C -0.5161(7) 0.9875(6) 0.6961(3)
H35_2 H -0.5947 0.9800 0.7092
H36_2 H -0.4972 1.0268 0.7225
C43_2 C -0.5250(7) 1.0308(6) 0.6412(3)
H37_2 H -0.5507 0.9935 0.6161
H38_2 H -0.4437 1.0319 0.6268
C44_2 C -0.6146(7) 1.1276(6) 0.6426(3)
H39_2 H -0.6940 1.1260 0.6331
H40_2 H -0.6261 1.1534 0.6798
C45_2 C -0.5809(7) 1.1919(5) 0.5480(3)
C46_2 C -0.6455(7) 1.1538(6) 0.5145(4)
H41_2 H -0.6926 1.1179 0.5285
C47_2 C -0.6341(8) 1.1732(6) 0.4600(4)
H42_2 H -0.6758 1.1500 0.4360
C48_2 C -0.5632(8) 1.2258(6) 0.4386(3)
H43_2 H -0.5602 1.2377 0.4011
C49_2 C -0.4978(7) 1.2604(5) 0.4715(3)
H44_2 H -0.4485 1.2943 0.4572
C50_2 C -0.5085(6) 1.2427(5) 0.5268(3)
C51_2 C -0.4901(6) 1.2309(5) 0.6156(3)
C52_2 C -0.4516(7) 1.2381(6) 0.6711(3)
C53_2 C -0.3457(7) 1.1753(6) 0.6885(3)
H45_2 H -0.2973 1.1295 0.6637
C54_2 C -0.5217(8) 1.3078(6) 0.7068(3)
H46_2 H -0.5896 1.3531 0.6956
C55_2 C -0.4893(10) 1.3088(8) 0.7591(4)
H47_2 H -0.5363 1.3538 0.7847
C56_2 C -0.3842(9) 1.2411(8) 0.7735(4)
H48_2 H -0.3648 1.2407 0.8098
C57A C 0.3029(7) 0.4972(6) 0.3896(3)
C58A C 0.3342(8) 0.5068(7) 0.3340(4)
H49A H 0.3727 0.5493 0.3222
C59A C 0.3067(9) 0.4515(8) 0.2969(4)
H50A H 0.3287 0.4556 0.2595
C60A C 0.2475(9) 0.3905(8) 0.3138(4)
H51A H 0.2284 0.3556 0.2872
C61A C 0.2150(8) 0.3784(6) 0.3685(4)
H52A H 0.1749 0.3365 0.3795
C62A C 0.2458(7) 0.4328(6) 0.4064(3)
C63A C 0.2732(7) 0.5088(6) 0.4782(3)
C64A C 0.2363(8) 0.6276(6) 0.5540(4)
H53A H 0.2034 0.6735 0.5296
C65A C 0.2753(7) 0.5366(6) 0.5364(3)
C66A C 0.3157(9) 0.4733(7) 0.5755(4)
H54A H 0.3400 0.4120 0.5646
C67A C 0.2464(10) 0.6494(8) 0.6076(4)
H55A H 0.2240 0.7102 0.6195
C68A C 0.2895(13) 0.5810(9) 0.6428(5)
H56A H 0.2960 0.5962 0.6790
C69A C 0.1527(7) 0.3990(6) 0.4980(3)
H57A H 0.1326 0.3545 0.4761
H58A H 0.1975 0.3674 0.5279
C70A C 0.0339(8) 0.4718(6) 0.5217(3)
H59A H 0.0541 0.5113 0.5475
H60A H -0.0192 0.4422 0.5420
N1A N -0.0805(6) 0.0094(5) 1.0769(2)
N2A N 0.0155(5) -0.1630(4) 1.2279(2)
N3A N -0.1522(6) -0.1955(4) 1.2073(2)
N4A N -0.0085(7) -0.4670(5) 1.0810(3)
N5A N 0.1062(6) -0.6038(5) 1.1077(3)
N6A N 0.3980(9) -0.4654(8) 1.0691(4)
N6A_2 N -0.6020(9) 0.5346(8) 1.0691(4)
N7_2 N -0.4152(5) 0.8419(4) 0.7418(2)
N8_2 N -0.1300(6) 0.9705(5) 0.7745(2)
N8A N 0.1300(6) 0.0295(5) 1.2255(2)
N9_2 N -0.3446(5) 0.7552(4) 0.8115(2)
N9A N 0.3446(5) -0.7552(4) 1.1885(2)
N10_2 N -0.5698(5) 1.1861(4) 0.6041(2)
N11_2 N -0.4525(5) 1.2675(4) 0.5707(2)
N12_2 N -0.3108(6) 1.1776(5) 0.7386(3)
N12A N 0.3108(6) -0.1776(5) 1.2614(3)
N13A N 0.3147(6) 0.5467(5) 0.4353(3)
N13_2 N -0.3147(6) 1.4533(5) 0.5647(3)
N14A N 0.2299(6) 0.4416(4) 0.4637(3)
N15A N 0.3232(10) 0.4921(7) 0.6277(4)
O1A O 0.4908(4) -0.1396(4) 1.06785(18)
O2A O 0.4915(5) 0.0094(4) 1.13742(19)
O3A O 0.4491(4) 0.0860(3) 1.03159(19)
O3A_2 O -0.5509(4) 0.0860(3) 1.03159(19)
O3_2 O 0.5509(4) -0.0860(3) 0.96841(19)
O4_2 O -0.2104(5) -0.1780(4) 0.90424(19)
O4A O 0.2104(5) -0.8220(4) 1.09576(19)
O4A_2 O 0.2104(5) 0.1780(4) 1.09576(19)
O5A O 0.3324(4) 0.0464(4) 0.94903(19)
O5A_2 O -0.6676(4) 0.0464(4) 0.94903(19)
O5_2 O 0.6676(4) -0.0464(4) 1.05097(19)
O6A O 0.1050(4) 0.1215(4) 1.0153(2)
O7A O 0.3076(4) -0.0016(3) 1.0626(2)
O8A O 0.2790(4) 0.2174(4) 0.99063(19)
O8A_2 O -0.7210(4) 0.2174(4) 0.99063(19)
O8_2 O 0.7210(4) -0.2174(4) 1.00937(19)
O9A O 0.1541(4) -0.0859(4) 1.02647(19)
O10A O 0.2674(5) -0.1693(4) 1.1124(2)
O11A O 0.3858(4) -0.2033(4) 0.9996(2)
O12A O 0.5887(5) -0.3333(4) 1.0400(2)
O13A O 0.3998(5) -0.7203(4) 1.0655(2)
O13A_2 O -0.6002(5) 0.2797(4) 1.0655(2)
O13_2 O 0.6002(5) -0.2797(4) 0.9345(2)
O14A O -0.0872(4) -0.1304(3) 1.40059(19)
O15A O -0.0015(5) -0.2701(4) 1.4740(2)
O16_2 O -0.1655(4) 1.2201(4) 0.5907(2)
O16A O 0.1655(4) -0.2201(4) 1.4093(2)
O17A O -0.1228(4) -0.0896(3) 0.51619(18)
O17A_2 O -0.1228(4) -0.0896(3) 1.51619(18)
O17_2 O 0.1228(4) 0.0896(3) 1.48381(18)
O18A O -0.2871(4) 0.0820(4) 1.5461(2)
O19A O 0.0360(5) 0.2268(4) 1.4057(2)
O20A O 0.1800(4) 0.0594(4) 1.37026(19)
O21A O 0.0227(4) -0.0235(3) 1.44519(18)
O21A_2 O 0.0227(4) -0.0235(3) 0.44519(18)
O21_2 O -0.0227(4) 0.0235(3) 1.55481(18)
O22A O 0.0556(4) -0.0675(4) 1.32511(19)
O23A O -0.1902(5) -0.0059(4) 1.3185(2)
O24A O -0.2222(4) 0.0356(3) 1.43702(19)
O25A O 0.1111(4) -0.1487(3) 0.51536(18)
O25A_2 O 0.1111(4) -0.1487(3) 1.51536(18)
O25_2 O -0.1111(4) 0.1487(3) 1.48464(18)
O26A O -0.0739(4) 0.1011(4) 1.37078(19)
Mo1A Mo 0.51128(6) -0.02142(5) 1.07004(3)
Mo1A_2 Mo -0.48872(6) -0.02142(5) 1.07004(3)
Mo1_2 Mo 0.48872(6) 0.02142(5) 0.92996(3)
Mo2A Mo 0.56785(6) -0.23928(5) 1.00151(3)
Mo2A_2 Mo -0.43215(6) -0.23928(5) 1.00151(3)
Mo2A_3 Mo -0.43215(6) 0.76072(5) 1.00151(3)
Mo2_2 Mo 0.43215(6) -0.76072(5) 0.99849(3)
Mo2_3 Mo 0.43215(6) 0.23928(5) 0.99849(3)
Mo3A Mo 0.29545(6) -0.12104(5) 1.05364(3)
Mo4A Mo 0.24417(6) 0.12357(5) 1.03285(3)
Mo4_2 Mo -0.24417(6) 0.87643(5) 0.96715(3)
Mo5A Mo 0.03224(6) -0.17659(5) 1.45124(3)
Mo5A_2 Mo 0.03224(6) -0.17659(5) 0.45124(3)
Mo5_2 Mo -0.03224(6) 1.17659(5) 0.54876(3)
Mo6A Mo -0.16297(6) 0.04109(5) 1.50018(3)
Mo6A_2 Mo -0.16297(6) 0.04109(5) 0.50018(3)
Mo6_2 Mo 0.16297(6) -0.04109(5) 1.49982(3)
Mo7A Mo 0.05192(6) 0.11411(5) 1.41232(3)
Mo7A_2 Mo 0.05192(6) 0.11411(5) 0.41232(3)
Mo8A Mo -0.08267(6) -0.02027(5) 1.36397(3)
loop_
_geom_bond_atom_site_label_1
_geom_bond_atom_site_label_2
_geom_bond_site_symmetry_1
_geom_bond_site_symmetry_2
Cu1 N11 1_555 1_555
Cu2 N2 1_555 1_555
Cu3 N1 1_555 1_555
Cu4 N5 1_555 1_555
Cu5 N6 1_555 1_555
C1 C2 1_555 1_555
C2 C3 1_555 1_555
C3 H1 1_555 1_555
C4 C3 1_555 1_555
H2 C4 1_555 1_555
C5 C4 1_555 1_555
H3 C5 1_555 1_555
C6 C1 1_555 1_555
H4 C6 1_555 1_555
C7 C8 1_555 1_555
C8 C9 1_555 1_555
C9 H5 1_555 1_555
C10 C9 1_555 1_555
H6 C10 1_555 1_555
C11 C10 1_555 1_555
H7 C11 1_555 1_555
C12 C8 1_555 1_555
H8 C12 1_555 1_555
C13 H9 1_555 1_555
H10 C13 1_555 1_555
C14 C13 1_555 1_555
H11 C14 1_555 1_555
H12 C14 1_555 1_555
C15 C14 1_555 1_555
H13 C15 1_555 1_555
H14 C15 1_555 1_555
C16 C15 1_555 1_555
H15 C16 1_555 1_555
H16 C16 1_555 1_555
C17 C18 1_555 1_555
C18 H17 1_555 1_555
C19 C18 1_555 1_555
H18 C19 1_555 1_555
C20 C19 1_555 1_555
H19 C20 1_555 1_555
C21 C20 1_555 1_555
H20 C21 1_555 1_555
C22 C17 1_555 1_555
C23 C24 1_555 1_555
C24 C25 1_555 1_555
C25 H21 1_555 1_555
C26 C25 1_555 1_555
H22 C26 1_555 1_555
C27 C26 1_555 1_555
H23 C27 1_555 1_555
C28 C24 1_555 1_555
H24 C28 1_555 1_555
C29 H25 1_555 1_555
C30 C29 1_555 1_555
H26 C30 1_555 1_555
C31 C30 1_555 1_555
H27 C31 1_555 1_555
C32 C31 1_555 1_555
C33 C32 1_555 1_555
H28 C33 1_555 1_555
C34 C32 1_555 1_555
C35 C36 1_555 1_555
C36 C37 1_555 1_555
C37 H29 1_555 1_555
C38 C37 1_555 1_555
H30 C38 1_555 1_555
C39 C38 1_555 1_555
H31 C39 1_555 1_555
C40 C35 1_555 1_555
H32 C40 1_555 1_555
C41 H33 1_555 1_555
H34 C41 1_555 1_555
C42 C41 1_555 1_555
H35 C42 1_555 1_555
H36 C42 1_555 1_555
C43 C42 1_555 1_555
H37 C43 1_555 1_555
H38 C43 1_555 1_555
C44 C43 1_555 1_555
H39 C44 1_555 1_555
H40 C44 1_555 1_555
C45 C46 1_555 1_555
C46 H41 1_555 1_555
C47 C46 1_555 1_555
H42 C47 1_555 1_555
C48 C47 1_555 1_555
H43 C48 1_555 1_555
C49 C48 1_555 1_555
H44 C49 1_555 1_555
C50 C45 1_555 1_555
C51 C52 1_555 1_555
C52 C53 1_555 1_555
C53 H45 1_555 1_555
C54 C52 1_555 1_555
H46 C54 1_555 1_555
C55 C54 1_555 1_555
H47 C55 1_555 1_555
C56 C55 1_555 1_555
H48 C56 1_555 1_555
C57 C58 1_555 1_555
C58 H49 1_555 1_555
C59 C58 1_555 1_555
H50 C59 1_555 1_555
C60 C59 1_555 1_555
H51 C60 1_555 1_555
C61 C60 1_555 1_555
H52 C61 1_555 1_555
C62 C57 1_555 1_555
C63 C65 1_555 1_555
C64 H53 1_555 1_555
C65 C64 1_555 1_555
C66 C65 1_555 1_555
H54 C66 1_555 1_555
C67 C64 1_555 1_555
H55 C67 1_555 1_555
C68 C67 1_555 1_555
H56 C68 1_555 1_555
C69 H57 1_555 1_555
H58 C69 1_555 1_555
C70 C69 1_555 1_555
H59 C70 1_555 1_555
H60 C70 1_555 1_555
N1 C11 1_555 1_555
N2 C1 1_555 1_555
N3 C2 1_555 1_555
N4 C16 1_555 1_555
N5 C22 1_555 1_555
N6 C27 1_555 1_555
N7 C34 1_555 1_555
N8 Cu2 1_555 1_555
N9 C34 1_555 1_555
N10 C44 1_555 1_555
N11 C50 1_555 1_555
N12 Cu2 1_555 1_555
N13 Cu1 1_555 1_555
N14 C62 1_555 1_555
N15 C66 1_555 1_555
O1 Mo1 1_555 1_555
O2 Mo1 1_555 1_555
O3 Mo1 1_555 1_555
O4 Cu4 1_555 1_555
O5 Mo4 1_555 1_555
O6 Cu3 1_555 1_555
O7 Mo1 1_555 1_555
O8 Mo4 1_555 1_555
O9 Cu3 1_555 1_555
O10 Mo3 1_555 1_555
O11 Mo2 1_555 1_555
O12 Mo2 1_555 1_555
O13 Cu4 1_555 1_555
O14 Mo5 1_555 1_555
O15 Mo5 1_555 1_555
O16 Cu1 1_555 1_555
O17 Mo5 1_555 1_555
O18 Mo6 1_555 1_555
O19 Mo7 1_555 1_555
O20 Mo7 1_555 1_555
O21 Mo5 1_555 1_555
O22 Cu2 1_555 1_555
O23 Mo8 1_555 1_555
O24 Mo6 1_555 1_555
O25 Mo5 1_555 1_555
O26 Mo7 1_555 1_555
Mo1 O3A_2 1_555 1_555
Mo2 O1 1_555 1_555
Mo3 O1 1_555 1_555
Mo4 O3 1_555 1_555
Mo5 O16 1_555 1_555
Mo6 O17 1_555 1_555
Mo7 O21 1_555 1_555
Mo8 O14 1_555 1_555
Cu1_2 N11_2 1_555 1_555
Cu1A N13A 1_555 1_555
Cu2A N2A 1_555 1_555
Cu2_2 N8_2 1_555 1_555
Cu4A N5A 1_555 1_555
Cu4_2 N9 1_555 1_555
Cu5_2 N6A 1_555 1_555
C1A C2A 1_555 1_555
C2A C3A 1_555 1_555
C3A H1A 1_555 1_555
C4A C3A 1_555 1_555
H2A C4A 1_555 1_555
C5A C4A 1_555 1_555
H3A C5A 1_555 1_555
C6A C1A 1_555 1_555
H4A C6A 1_555 1_555
C7A C8A 1_555 1_555
C8A C9A 1_555 1_555
C9A H5A 1_555 1_555
C10A C9A 1_555 1_555
H6A C10A 1_555 1_555
C11A C10A 1_555 1_555
H7A C11A 1_555 1_555
C12A C8A 1_555 1_555
H8A C12A 1_555 1_555
C13A H9A 1_555 1_555
H10A C13A 1_555 1_555
C14A C13A 1_555 1_555
H11A C14A 1_555 1_555
H12A C14A 1_555 1_555
C15A C14A 1_555 1_555
H13A C15A 1_555 1_555
H14A C15A 1_555 1_555
C16A C15A 1_555 1_555
H15A C16A 1_555 1_555
H16A C16A 1_555 1_555
C17A C18A 1_555 1_555
C18A H17A 1_555 1_555
C19A C18A 1_555 1_555
H18A C19A 1_555 1_555
C20A C19A 1_555 1_555
H19A C20A 1_555 1_555
C21A C20A 1_555 1_555
H20A C21A 1_555 1_555
C22A C17A 1_555 1_555
C23A C24A 1_555 1_555
C24A C25A 1_555 1_555
C25A H21A 1_555 1_555
C26A C25A 1_555 1_555
H22A C26A 1_555 1_555
C27A C26A 1_555 1_555
H23A C27A 1_555 1_555
C28A C24A 1_555 1_555
H24A C28A 1_555 1_555
C29_2 H25_2 1_555 1_555
C30_2 C29_2 1_555 1_555
H26_2 C30_2 1_555 1_555
C31_2 C30_2 1_555 1_555
H27_2 C31_2 1_555 1_555
C32_2 C31_2 1_555 1_555
C33_2 C32_2 1_555 1_555
H28_2 C33_2 1_555 1_555
C34_2 C32_2 1_555 1_555
C35_2 C36_2 1_555 1_555
C36_2 C37_2 1_555 1_555
C37_2 H29_2 1_555 1_555
C38_2 C37_2 1_555 1_555
H30_2 C38_2 1_555 1_555
C39_2 C38_2 1_555 1_555
H31_2 C39_2 1_555 1_555
C40_2 C35_2 1_555 1_555
H32_2 C40_2 1_555 1_555
C41_2 H33_2 1_555 1_555
H34_2 C41_2 1_555 1_555
C42_2 C41_2 1_555 1_555
H35_2 C42_2 1_555 1_555
H36_2 C42_2 1_555 1_555
C43_2 C42_2 1_555 1_555
H37_2 C43_2 1_555 1_555
H38_2 C43_2 1_555 1_555
C44_2 C43_2 1_555 1_555
H39_2 C44_2 1_555 1_555
H40_2 C44_2 1_555 1_555
C45_2 C46_2 1_555 1_555
C46_2 H41_2 1_555 1_555
C47_2 C46_2 1_555 1_555
H42_2 C47_2 1_555 1_555
C48_2 C47_2 1_555 1_555
H43_2 C48_2 1_555 1_555
C49_2 C48_2 1_555 1_555
H44_2 C49_2 1_555 1_555
C50_2 C45_2 1_555 1_555
C51_2 C52_2 1_555 1_555
C52_2 C53_2 1_555 1_555
C53_2 H45_2 1_555 1_555
C54_2 C52_2 1_555 1_555
H46_2 C54_2 1_555 1_555
C55_2 C54_2 1_555 1_555
H47_2 C55_2 1_555 1_555
C56_2 C55_2 1_555 1_555
H48_2 C56_2 1_555 1_555
C57A C58A 1_555 1_555
C58A H49A 1_555 1_555
C59A C58A 1_555 1_555
H50A C59A 1_555 1_555
C60A C59A 1_555 1_555
H51A C60A 1_555 1_555
C61A C60A 1_555 1_555
H52A C61A 1_555 1_555
C62A C57A 1_555 1_555
C63A C65A 1_555 1_555
C64A H53A 1_555 1_555
C65A C64A 1_555 1_555
C66A C65A 1_555 1_555
H54A C66A 1_555 1_555
C67A C64A 1_555 1_555
H55A C67A 1_555 1_555
C68A C67A 1_555 1_555
H56A C68A 1_555 1_555
C69A H57A 1_555 1_555
H58A C69A 1_555 1_555
C70A C70 1_555 1_555
H59A C70A 1_555 1_555
H60A C70A 1_555 1_555
N1A Cu3 1_555 1_555
N2A C1A 1_555 1_555
N3A C2A 1_555 1_555
N4A C16A 1_555 1_555
N5A C22A 1_555 1_555
N6A C27A 1_555 1_555
N6A_2 Cu5 1_555 1_555
N7_2 C34_2 1_555 1_555
N8_2 C29_2 1_555 1_555
N8A Cu2A 1_555 1_555
N9_2 Cu4 1_555 1_555
N9A Cu4A 1_555 1_555
N10_2 C44_2 1_555 1_555
N11_2 C50_2 1_555 1_555
N12_2 Cu2_2 1_555 1_555
N12A Cu2A 1_555 1_555
N13A C57A 1_555 1_555
N13_2 Cu1_2 1_555 1_555
N14A C62A 1_555 1_555
N15A C66A 1_555 1_555
O1A Mo1A 1_555 1_555
O2A Mo1A 1_555 1_555
O3A Mo1A 1_555 1_555
O3A_2 Mo2 1_555 1_555
O3_2 Mo1A 1_555 1_555
O4_2 Mo4 1_555 1_555
O4A Cu4A 1_555 1_555
O4A_2 Mo4A 1_555 1_555
O5A Mo1_2 1_555 1_555
O5A_2 Mo1 1_555 1_555
O5_2 Mo1A 1_555 1_555
O6A Cu3 1_555 1_555
O7A Mo1A 1_555 1_555
O8A Mo2_3 1_555 1_555
O8A_2 Mo2 1_555 1_555
O8_2 Mo2A 1_555 1_555
O9A Cu3 1_555 1_555
O10A Mo3A 1_555 1_555
O11A Mo2A 1_555 1_555
O12A Mo2A 1_555 1_555
O13A Cu4A 1_555 1_555
O13A_2 Mo2 1_555 1_555
O13_2 Mo2A 1_555 1_555
O14A Mo5A 1_555 1_555
O15A Mo5A 1_555 1_555
O16_2 Cu1_2 1_555 1_555
O16A Mo5A 1_555 1_555
O17A Mo7 1_555 1_555
O17A_2 Mo5A 1_555 1_555
O17_2 Mo6_2 1_555 1_555
O18A Mo6A 1_555 1_555
O19A Mo7A 1_555 1_555
O20A Mo7A 1_555 1_555
O21A Mo5A 1_555 1_555
O21A_2 Mo6 1_555 1_555
O21_2 Mo6A 1_555 1_555
O22A Cu2A 1_555 1_555
O23A Mo8A 1_555 1_555
O24A Mo6A 1_555 1_555
O25A Mo6 1_555 1_555
O25A_2 Mo5A 1_555 1_555
O25_2 Mo6A 1_555 1_555
O26A Mo7A 1_555 1_555
Mo1A_2 O3 1_555 1_555
Mo1_2 O3A 1_555 1_555
Mo2A O1A 1_555 1_555
Mo2A_2 O3 1_555 1_555
Mo2A_3 O13 1_555 1_555
Mo2_2 O13A 1_555 1_555
Mo2_3 O3A 1_555 1_555
Mo3A O1A 1_555 1_555
Mo4A O3A 1_555 1_555
Mo4_2 O4 1_555 1_555
Mo5A_2 O17A 1_555 1_555
Mo5_2 O16_2 1_555 1_555
Mo6A O17A_2 1_555 1_555
Mo6A_2 O21 1_555 1_555
Mo6_2 O21A 1_555 1_555
Mo7A O17_2 1_555 1_555
Mo7A_2 O17 1_555 1_555
Mo8A O14A 1_555 1_555
C5 C6 1_555 1_555
C7 N2 1_555 1_555
C7 N3 1_555 1_555
C12 N1 1_555 1_555
C13 N3 1_555 1_555
C17 N4 1_555 1_555
C21 C22 1_555 1_555
C23 N4 1_555 1_555
C23 N5 1_555 1_555
C28 N6 1_555 1_555
C29 N8 1_555 1_555
C33 N8 1_555 1_555
C35 N9 1_555 1_555
C36 N7 1_555 1_555
C39 C40 1_555 1_555
C41 N7 1_555 1_555
C45 N10 1_555 1_555
C49 C50 1_555 1_555
C51 N10 1_555 1_555
C51 N11 1_555 1_555
C53 N12 1_555 1_555
C56 N12 1_555 1_555
C57 N13 1_555 1_555
C61 C62 1_555 1_555
C63 N13 1_555 1_555
C63 N14 1_555 1_555
C68 N15 1_555 1_555
C69 N14 1_555 1_555
O5 Mo1A_2 1_555 1_555
O6 Mo4 1_555 1_555
O7 Mo3 1_555 1_555
O7 Mo4 1_555 1_555
O8 Mo2A_2 1_555 1_555
O9 Mo3 1_555 1_555
O11 Mo3 1_555 1_555
O21 Mo6 1_555 1_555
O21 Mo8 1_555 1_555
O22 Mo8 1_555 1_555
O24 Mo8 1_555 1_555
O25 Mo6A_2 1_555 1_555
O25 Mo7A_2 1_555 1_555
O26 Mo8 1_555 1_555
Mo7 O25A 1_555 1_555
Cu4_2 O4_2 1_555 1_555
C5A C6A 1_555 1_555
C7A N2A 1_555 1_555
C7A N3A 1_555 1_555
C11A N1A 1_555 1_555
C12A N1A 1_555 1_555
C13A N3A 1_555 1_555
C17A N4A 1_555 1_555
C21A C22A 1_555 1_555
C23A N4A 1_555 1_555
C23A N5A 1_555 1_555
C28A N6A 1_555 1_555
C33_2 N8_2 1_555 1_555
C34_2 N9_2 1_555 1_555
C35_2 N9_2 1_555 1_555
C36_2 N7_2 1_555 1_555
C39_2 C40_2 1_555 1_555
C41_2 N7_2 1_555 1_555
C45_2 N10_2 1_555 1_555
C49_2 C50_2 1_555 1_555
C51_2 N10_2 1_555 1_555
C51_2 N11_2 1_555 1_555
C53_2 N12_2 1_555 1_555
C56_2 N12_2 1_555 1_555
C61A C62A 1_555 1_555
C63A N13A 1_555 1_555
C63A N14A 1_555 1_555
C68A N15A 1_555 1_555
C69A C70A 1_555 1_555
C69A N14A 1_555 1_555
O3A_2 Mo1A_2 1_555 1_555
O3_2 Mo1_2 1_555 1_555
O3_2 Mo2A 1_555 1_555
O5A Mo4A 1_555 1_555
O6A Mo4A 1_555 1_555
O7A Mo3A 1_555 1_555
O7A Mo4A 1_555 1_555
O8A Mo4A 1_555 1_555
O9A Mo3A 1_555 1_555
O11A Mo3A 1_555 1_555
O17A Mo6A_2 1_555 1_555
O21A Mo6A 1_555 1_555
O21A Mo7A 1_555 1_555
O21A Mo8A 1_555 1_555
O21A_2 Mo5A_2 1_555 1_555
O21A_2 Mo6A_2 1_555 1_555
O21A_2 Mo7A_2 1_555 1_555
O21_2 Mo6_2 1_555 1_555
O22A Mo8A 1_555 1_555
O24A Mo8A 1_555 1_555
O25A Mo5A_2 1_555 1_555
O25A_2 Mo6_2 1_555 1_555
O25_2 Mo7A 1_555 1_555
O26A Mo8A 1_555 1_555

#END
