
#######################################################################
#
#                 Cambridge Crystallographic Data Centre
#                                CCDC 
#
#######################################################################
#
# If this CIF has been generated from an entry in the Cambridge 
# Structural Database, then it will include bibliographic, chemical, 
# crystal, experimental, refinement or atomic coordinate data resulting 
# from the CCDC's data processing and validation procedures.
#
#######################################################################

data_UDAVUR
_symmetry_cell_setting           triclinic
_symmetry_space_group_name_H-M   'P -1'
_symmetry_Int_Tables_number      2
_space_group_name_Hall           '-P 1'
loop_
_symmetry_equiv_pos_site_id
_symmetry_equiv_pos_as_xyz
1 x,y,z
2 -x,-y,-z
_cell_length_a                   16.682(3)
_cell_length_b                   17.620(3)
_cell_length_c                   18.817(4)
_cell_angle_alpha                67.50(3)
_cell_angle_beta                 75.79(3)
_cell_angle_gamma                66.37(3)
_cell_volume                     4653.74
loop_
_atom_site_label
_atom_site_type_symbol
_atom_site_fract_x
_atom_site_fract_y
_atom_site_fract_z
C41 C 0.5370(15) -0.031(2) 0.9112(15)
H33 H 0.5845 -0.0117 0.8899
C42 C 0.4865(17) -0.0182(17) 0.9789(14)
C43 C 0.4145(16) -0.0462(19) 1.0079(13)
H34 H 0.3807 -0.0373 1.0533
C44 C 0.3930(15) -0.0873(18) 0.9691(16)
H35 H 0.3448 -0.1060 0.9885
N1 N 0.443(2) -0.100(2) 0.9013(17)
H36 H 0.4292 -0.1243 0.8763
C45 C 0.513(3) -0.076(3) 0.876(3)
H37 H 0.5480 -0.0892 0.8324
C41A C 0.4630(15) 0.031(2) 1.0888(15)
H33A H 0.4155 0.0117 1.1101
C42A C 0.5135(17) 0.0182(17) 1.0211(14)
C43A C 0.5855(16) 0.0462(19) 0.9921(13)
H34A H 0.6193 0.0373 0.9467
C44A C 0.6070(15) 0.0873(18) 1.0309(16)
H35A H 0.6552 0.1060 1.0115
N1A N 0.557(2) 0.100(2) 1.0987(17)
C45A C 0.487(3) 0.076(3) 1.124(3)
H37A H 0.4520 0.0892 1.1676
O63 O 0.4765(13) -0.2638(15) 0.8955(11)
O64 O 1.487(5) -0.080(6) 0.475(4)
O65 O 1.384(5) 0.003(5) 0.376(4)
O66 O 0.829(3) -0.177(4) 0.414(3)
O67 O 0.846(3) -0.916(3) 0.154(2)
O68 O 0.688(3) -0.152(4) 0.434(3)
N10 N 1.280(2) -0.054(2) 0.3600(16)
N11 N 0.397(3) -0.171(3) 0.815(2)
Cu1 Cu -0.5000 -0.5000 0.5000
Cu2 Cu -0.05537(19) -0.3734(2) -0.02514(15)
Cu3 Cu 0.8392(3) -0.1420(3) -1.07325(18)
Cu4 Cu 0.43182(19) -0.2671(3) -0.52468(16)
P1 P -0.1846(3) -0.7031(4) -0.2109(3)
P2 P -0.2500(3) -0.4457(4) -0.2563(3)
W1 W -0.24892(6) -0.87221(7) -0.20763(5)
W2 W -0.03560(6) -0.88677(6) -0.25898(5)
W3 W -0.12423(6) -0.91338(6) -0.07211(5)
W4 W -0.27858(6) -0.28035(6) -0.18198(5)
W5 W -0.41131(6) -0.23969(7) -0.31242(5)
W6 W -0.19682(6) -0.25623(6) -0.36998(5)
W7 W -0.34294(6) -0.47347(7) -0.06160(5)
W8 W -0.02189(5) -0.47050(6) -0.30905(4)
W9 W -0.27884(6) -0.71415(7) -0.02115(4)
W10 W -0.46956(5) -0.43877(6) -0.19230(4)
W11 W 0.03816(5) -0.71170(6) -0.26526(5)
W12 W -0.10767(5) -0.50057(6) -0.12252(4)
W13 W -0.10112(5) -0.67056(6) -0.41032(4)
W14 W -0.31379(5) -0.65183(6) -0.35433(4)
W15 W -0.16118(5) -0.43015(6) -0.45246(4)
W16 W -0.40719(5) -0.68023(6) -0.15058(5)
W17 W -0.37417(5) -0.41049(6) -0.39582(4)
W18 W -0.04463(5) -0.74364(6) -0.07844(5)
C1 C 0.7014(16) -0.1882(19) -0.9653(14)
H1 H 0.6954 -0.2057 -1.0038
C2 C 1.166(2) -0.068(2) -1.4891(17)
H2 H 1.2133 -0.0486 -1.5014
C3 C 1.1143(16) -0.0715(19) -1.4162(14)
H3 H 1.1262 -0.0525 -1.3814
C4 C 1.0862(19) -0.124(2) -1.5232(15)
H4 H 1.0773 -0.1422 -1.5600
C5 C 1.0313(17) -0.1335(19) -1.4479(14)
H5 H 0.9884 -0.1588 -1.4360
C6 C 0.8686(17) -0.1197(19) -1.2322(15)
H6 H 0.8108 -0.1183 -1.2238
C7 C 1.0450(16) -0.1047(19) -1.3974(14)
C8 C 0.1724(15) -0.3438(17) -0.1634(12)
H7 H 0.2265 -0.3473 -0.1548
C9 C 0.9854(16) -0.1352(18) -1.1872(14)
H8 H 1.0132 -0.1454 -1.1456
C10 C 0.9100(15) -0.1085(17) -1.3100(13)
H9 H 0.8808 -0.0987 -1.3505
C11 C 0.4705(16) -0.2098(18) -0.6860(13)
H10 H 0.4120 -0.2037 -0.6837
C12 C 0.2887(14) -0.2843(17) -0.3067(13)
H11 H 0.2955 -0.2799 -0.2609
C13 C 1.0332(15) -0.1258(16) -1.2563(12)
H12 H 1.0908 -0.1277 -1.2616
C14 C 0.1106(13) -0.3549(15) -0.1007(11)
H13 H 0.1222 -0.3648 -0.0514
C15 C 0.5172(13) -0.1897(16) -0.7577(12)
H14 H 0.4912 -0.1721 -0.8025
C16 C 0.7258(15) -0.1436(17) -0.8512(12)
H15 H 0.7363 -0.1285 -0.8130
C17 C 0.6483(16) -0.2005(17) -0.8992(12)
H16 H 0.6034 -0.2213 -0.8945
C18 C 0.9959(14) -0.1133(15) -1.3202(11)
C19 C 0.5849(16) -0.2432(18) -0.6225(13)
H17 H 0.6081 -0.2597 -0.5765
C20 C -0.2072(14) -0.4140(17) 0.0651(13)
H18 H -0.2135 -0.4223 0.0211
C21 C -0.1366(14) -0.3676(16) 0.1238(11)
H19 H -0.0947 -0.3436 0.1205
C22 C -0.3831(14) -0.4662(16) 0.2787(12)
H20 H -0.3965 -0.4677 0.2342
C23 C 0.2190(14) -0.3232(15) -0.3756(11)
H21 H 0.1771 -0.3442 -0.3782
C24 C -0.3434(14) -0.4728(17) 0.4114(12)
H22 H -0.3281 -0.4775 0.4577
C25 C -0.4365(15) -0.4816(17) 0.3424(12)
H23 H -0.4883 -0.4886 0.3408
C26 C 0.3469(15) -0.2642(17) -0.3736(12)
H24 H 0.3885 -0.2419 -0.3727
C27 C 0.6388(13) -0.2251(15) -0.6927(11)
H25 H 0.6971 -0.2325 -0.6924
C28 C 0.1598(13) -0.3276(15) -0.2388(11)
C29 C 0.0149(14) -0.3360(16) -0.1817(11)
H26 H -0.0400 -0.3316 -0.1894
C30 C -0.3087(13) -0.4481(15) 0.2739(11)
C31 C 0.7737(15) -0.1294(16) -0.9236(12)
H27 H 0.8152 -0.1027 -0.9335
C32 C 0.2239(12) -0.3094(15) -0.3083(11)
C33 C -0.1895(13) -0.3864(16) 0.1912(12)
H28 H -0.1829 -0.3756 0.2337
C34 C 0.2791(13) -0.3042(16) -0.4367(12)
H29 H 0.2749 -0.3110 -0.4822
C35 C -0.2915(14) -0.4510(16) 0.3434(11)
H30 H -0.2431 -0.4377 0.3440
C36 C -0.2549(13) -0.4225(15) 0.1978(11)
C37 C -0.2626(12) -0.4334(14) 0.1309(10)
H31 H -0.3058 -0.4542 0.1308
C38 C 0.6053(13) -0.1965(15) -0.7618(11)
C39 C 0.0784(13) -0.3265(15) -0.2440(11)
H32 H 0.0655 -0.3190 -0.2922
C40 C 0.6600(12) -0.1820(15) -0.8365(10)
N2 N 1.1463(17) -0.0904(19) -1.5376(15)
N3 N 0.7630(12) -0.1519(15) -0.9789(10)
N4 N 0.9024(13) -0.1315(14) -1.1722(10)
N5 N 0.5044(12) -0.2377(15) -0.6192(11)
N6 N 0.3434(13) -0.2767(15) -0.4379(10)
N7 N -0.4170(11) -0.4875(13) 0.4110(9)
N8 N 0.0306(11) -0.3507(13) -0.1134(10)
N9 N -0.1450(11) -0.3838(12) 0.0620(9)
O1 O -0.1568(9) -0.4901(10) -0.2309(7)
O2 O -0.0373(9) -0.9505(11) -0.1499(8)
O3 O -0.0989(10) -1.0008(11) 0.0098(8)
O4 O -0.2855(10) -0.2182(12) -0.1273(9)
O5 O -0.5016(11) -0.1518(13) -0.3434(10)
O6 O -0.0552(9) -0.8456(11) -0.0736(8)
O7 O -0.3721(10) -0.4662(12) 0.0309(8)
O8 O -0.3041(12) -0.9359(13) -0.2092(10)
O9 O -0.0206(8) -0.6752(10) -0.3519(7)
O10 O -0.3170(8) -0.4759(10) -0.1897(7)
O11 O 0.1450(9) -0.7429(11) -0.2985(8)
O12 O -0.2041(9) -0.9407(11) -0.1081(8)
O13 O -0.5811(9) -0.4041(11) -0.1875(8)
O14 O -0.0639(9) -0.4985(10) -0.0506(7)
O15 O -0.2980(10) -0.7497(12) 0.0780(8)
O16 O -0.3865(9) -0.2152(11) -0.2330(8)
O17 O -0.0187(8) -0.4791(10) -0.2056(7)
O18 O -0.2655(7) -0.6761(9) -0.1546(6)
O19 O -0.1104(9) -0.4015(11) -0.5435(8)
O20 O -0.4585(9) -0.3205(10) -0.2368(8)
O21 O 0.0523(9) -0.7515(10) -0.1566(8)
O22 O -0.4536(8) -0.4387(10) -0.0963(7)
O23 O -0.3402(9) -0.7934(10) -0.1551(7)
O24 O -0.1649(8) -0.7088(9) -0.0362(7)
O25 O -0.2747(9) -0.7749(11) -0.3009(7)
O26 O -0.2119(9) -0.6694(10) -0.4264(8)
O27 O 0.0094(8) -0.7810(10) 0.0010(7)
O28 O -0.1728(9) -0.3731(10) -0.1551(7)
O29 O 0.0258(9) -0.8238(10) -0.2487(7)
O30 O -0.2020(8) -0.6578(9) -0.2966(7)
O31 O -0.1594(9) -0.8024(9) -0.1950(7)
O32 O -0.3405(8) -0.3555(10) -0.1139(7)
O33 O -0.1056(8) -0.6877(10) -0.1975(7)
O34 O 0.0744(9) -0.4560(11) -0.3499(8)
O35 O -0.2166(8) -0.5088(9) -0.0715(7)
O36 O -0.2756(9) -0.3451(10) -0.2737(7)
O37 O -0.4351(8) -0.4417(9) -0.2939(7)
O38 O -0.3830(9) -0.7145(10) -0.0475(7)
O39 O -0.2176(8) -0.2266(10) -0.2773(7)
O40 O -0.3356(9) -0.5308(10) -0.3886(7)
O41 O -0.0948(9) -0.3511(11) -0.3296(8)
O42 O -0.4555(9) -0.3742(10) -0.4541(7)
O43 O -0.5100(10) -0.6901(12) -0.1352(8)
O44 O -0.0766(8) -0.7928(9) -0.3477(8)
O45 O -0.3853(10) -0.6523(11) -0.4060(8)
O46 O -0.2195(9) -0.8327(10) -0.0315(8)
O47 O -0.3829(8) -0.6431(9) -0.2616(7)
O48 O -0.3939(8) -0.3044(10) -0.3824(7)
O49 O -0.3267(8) -0.5936(9) -0.0397(6)
O50 O -0.0703(9) -0.4721(10) -0.3897(7)
O51 O -0.2521(8) -0.4591(8) -0.3318(6)
O52 O 0.0181(8) -0.5973(10) -0.2740(7)
O53 O -0.2794(8) -0.3955(10) -0.4744(7)
O54 O -0.0618(8) -0.6223(9) -0.1034(7)
O55 O -0.1920(9) -0.3209(10) -0.4317(8)
O56 O -0.1431(8) -0.5477(10) -0.4406(7)
O57 O -0.4442(8) -0.5595(10) -0.1577(7)
O58 O -0.1537(9) -0.1796(11) -0.4320(8)
O59 O 0.0490(10) -0.9600(11) -0.3003(9)
O60 O -0.1373(9) -0.9196(11) -0.2559(8)
O61 O -0.3205(9) -0.1948(11) -0.3796(8)
O62 O -0.0379(9) -0.6858(11) -0.4927(8)
Cu2A Cu 0.05537(19) -0.6266(2) 0.02514(15)
Cu2A_2 Cu -0.94463(19) -0.6266(2) 1.02514(15)
Cu3A Cu -1.8392(3) -0.8580(3) 2.07325(18)
Cu4A Cu -1.43182(19) -0.7329(3) 1.52468(16)
Cu4A_2 Cu 0.56818(19) -0.7329(3) 0.52468(16)
Cu4_2 Cu -0.56818(19) -0.2671(3) -0.52468(16)
P1A P 0.1846(3) -0.2969(4) 0.2109(3)
P2A P 0.2500(3) -0.5543(4) 0.2563(3)
W1A W 0.24892(6) -0.12779(7) 0.20763(5)
W2A W 0.03560(6) -0.11323(6) 0.25898(5)
W3A W 0.12423(6) -0.08662(6) 0.07211(5)
W4A W 0.27858(6) -0.71965(6) 0.18198(5)
W5A W 0.41131(6) -0.76031(7) 0.31242(5)
W6A W 0.19682(6) -0.74377(6) 0.36998(5)
W7A W 0.34294(6) -0.52653(7) 0.06160(5)
W8A W 0.02189(5) -0.52950(6) 0.30905(4)
W9A W 0.27884(6) -0.28585(7) 0.02115(4)
W10A W 0.46956(5) -0.56123(6) 0.19230(4)
W11A W -0.03816(5) -0.28830(6) 0.26526(5)
W12A W 0.10767(5) -0.49943(6) 0.12252(4)
W13A W 0.10112(5) -0.32944(6) 0.41032(4)
W14A W 0.31379(5) -0.34817(6) 0.35433(4)
W15A W 0.16118(5) -0.56985(6) 0.45246(4)
W16A W 0.40719(5) -0.31977(6) 0.15058(5)
W17_2 W 0.62583(5) -0.41049(6) -0.39582(4)
W17A W 0.37417(5) -0.58951(6) 0.39582(4)
W18A W 0.04463(5) -0.25636(6) 0.07844(5)
C1A C -1.7014(16) -0.8118(19) 1.9653(14)
H1A H -1.6954 -0.7943 2.0038
C8A C -1.1724(15) -0.6562(17) 1.1634(12)
H7A H -1.2265 -0.6527 1.1548
C11A C -1.4705(16) -0.7902(18) 1.6860(13)
H10A H -1.4120 -0.7963 1.6837
C12A C -1.2887(14) -0.7157(17) 1.3067(13)
H11A H -1.2955 -0.7201 1.2609
C14A C -1.1106(13) -0.6451(15) 1.1007(11)
H13A H -1.1222 -0.6352 1.0514
C15A C -1.5172(13) -0.8103(16) 1.7577(12)
H14A H -1.4912 -0.8279 1.8025
C16A C -1.7258(15) -0.8564(17) 1.8512(12)
H15A H -1.7363 -0.8715 1.8130
C17A C -1.6483(16) -0.7995(17) 1.8992(12)
H16A H -1.6034 -0.7787 1.8945
C19A C -1.5849(16) -0.7568(18) 1.6225(13)
H17A H -1.6081 -0.7403 1.5765
C20A C -0.7928(14) -0.5860(17) 0.9349(13)
H18A H -0.7865 -0.5777 0.9789
C21A C -0.8634(14) -0.6324(16) 0.8762(11)
H19A H -0.9053 -0.6564 0.8795
C22A C -0.6169(14) -0.5338(16) 0.7213(12)
H20A H -0.6035 -0.5323 0.7658
C23A C -1.2190(14) -0.6768(15) 1.3756(11)
H21A H -1.1771 -0.6558 1.3782
C24A C -0.6566(14) -0.5272(17) 0.5886(12)
H22A H -0.6719 -0.5225 0.5423
C25A C -0.5635(15) -0.5184(17) 0.6576(12)
H23A H -0.5117 -0.5114 0.6592
C26A C -1.3469(15) -0.7358(17) 1.3736(12)
H24A H -1.3885 -0.7581 1.3727
C27A C -1.6388(13) -0.7749(15) 1.6927(11)
H25A H -1.6971 -0.7675 1.6924
C28A C -1.1598(13) -0.6724(15) 1.2388(11)
C29A C -1.0149(14) -0.6640(16) 1.1817(11)
H26A H -0.9600 -0.6684 1.1894
C30A C -0.6913(13) -0.5519(15) 0.7261(11)
C31A C -1.7737(15) -0.8706(16) 1.9236(12)
H27A H -1.8152 -0.8973 1.9335
C32A C -1.2239(12) -0.6906(15) 1.3083(11)
C33A C -0.8105(13) -0.6136(16) 0.8088(12)
H28A H -0.8171 -0.6244 0.7663
C34A C -1.2791(13) -0.6958(16) 1.4367(12)
H29A H -1.2749 -0.6890 1.4822
C35A C -0.7085(14) -0.5490(16) 0.6566(11)
H30A H -0.7569 -0.5623 0.6560
C36A C -0.7451(13) -0.5775(15) 0.8022(11)
C37A C -0.7374(12) -0.5666(14) 0.8691(10)
H31A H -0.6942 -0.5458 0.8692
C38A C -1.6053(13) -0.8035(15) 1.7618(11)
C39A C -1.0784(13) -0.6735(15) 1.2440(11)
H32A H -1.0655 -0.6810 1.2922
C40A C -1.6600(12) -0.8180(15) 1.8365(10)
N3A N -1.7630(12) -0.8481(15) 1.9789(10)
N5A N -1.5044(12) -0.7623(15) 1.6192(11)
N5A_2 N 0.4956(12) -0.7623(15) 0.6192(11)
N6A N -1.3434(13) -0.7233(15) 1.4379(10)
N6A_2 N 0.6566(13) -0.7233(15) 0.4379(10)
N7A N -0.5830(11) -0.5125(13) 0.5890(9)
N8A N -1.0306(11) -0.6493(13) 1.1134(10)
N9A N -0.8550(11) -0.6162(12) 0.9380(9)
O1A O 0.1568(9) -0.5099(10) 0.2309(7)
O2A O 0.0373(9) -0.0495(11) 0.1499(8)
O3A O 0.0989(10) 0.0008(11) -0.0098(8)
O4A O 0.2855(10) -0.7818(12) 0.1273(9)
O5A O 0.5016(11) -0.8482(13) 0.3434(10)
O6A O 0.0552(9) -0.1544(11) 0.0736(8)
O7A O 0.3721(10) -0.5338(12) -0.0309(8)
O8A O 0.3041(12) -0.0641(13) 0.2092(10)
O9A O 0.0206(8) -0.3248(10) 0.3519(7)
O10A O 0.3170(8) -0.5241(10) 0.1897(7)
O11A O -0.1450(9) -0.2571(11) 0.2985(8)
O12A O 0.2041(9) -0.0593(11) 0.1081(8)
O13A O 0.5811(9) -0.5959(11) 0.1875(8)
O14A O 0.0639(9) -0.5015(10) 0.0506(7)
O14_2 O -1.0639(9) -0.4985(10) 0.9494(7)
O14A_2 O -0.9361(9) -0.5015(10) 1.0506(7)
O15A O 0.2980(10) -0.2503(12) -0.0780(8)
O16A O 0.3865(9) -0.7848(11) 0.2330(8)
O17A O 0.0187(8) -0.5209(10) 0.2056(7)
O18A O 0.2655(7) -0.3239(9) 0.1546(6)
O19A O 0.1104(9) -0.5985(11) 0.5435(8)
O20A O 0.4585(9) -0.6795(10) 0.2368(8)
O21A O -0.0523(9) -0.2485(10) 0.1566(8)
O22A O 0.4536(8) -0.5613(10) 0.0963(7)
O23A O 0.3402(9) -0.2066(10) 0.1551(7)
O24A O 0.1649(8) -0.2912(9) 0.0362(7)
O25A O 0.2747(9) -0.2251(11) 0.3009(7)
O26A O 0.2119(9) -0.3306(10) 0.4264(8)
O27A O -0.0094(8) -0.2190(10) -0.0010(7)
O28A O 0.1728(9) -0.6269(10) 0.1551(7)
O29A O -0.0258(9) -0.1762(10) 0.2487(7)
O30A O 0.2020(8) -0.3422(9) 0.2966(7)
O31A O 0.1594(9) -0.1976(9) 0.1950(7)
O32A O 0.3405(8) -0.6445(10) 0.1139(7)
O33A O 0.1056(8) -0.3123(10) 0.1975(7)
O34A O -0.0744(9) -0.5440(11) 0.3499(8)
O35A O 0.2166(8) -0.4912(9) 0.0715(7)
O36A O 0.2756(9) -0.6549(10) 0.2737(7)
O37A O 0.4351(8) -0.5583(9) 0.2939(7)
O38A O 0.3830(9) -0.2855(10) 0.0475(7)
O39A O 0.2176(8) -0.7734(10) 0.2773(7)
O40A O 0.3356(9) -0.4692(10) 0.3886(7)
O41A O 0.0948(9) -0.6489(11) 0.3296(8)
O42_2 O 0.5445(9) -0.3742(10) -0.4541(7)
O42A O -1.5445(9) -0.6258(10) 1.4541(7)
O42A_2 O 0.4555(9) -0.6258(10) 0.4541(7)
O43A O 0.5100(10) -0.3099(12) 0.1352(8)
O44A O 0.0766(8) -0.2072(9) 0.3477(8)
O45A O 0.3853(10) -0.3477(11) 0.4060(8)
O46A O 0.2195(9) -0.1673(10) 0.0315(8)
O47A O 0.3829(8) -0.3569(9) 0.2616(7)
O48A O 0.3939(8) -0.6956(10) 0.3824(7)
O49A O 0.3267(8) -0.4064(9) 0.0397(6)
O50A O 0.0703(9) -0.5279(10) 0.3897(7)
O51A O 0.2521(8) -0.5409(8) 0.3318(6)
O52A O -0.0181(8) -0.4027(10) 0.2740(7)
O53A O 0.2794(8) -0.6045(10) 0.4744(7)
O54A O 0.0618(8) -0.3777(9) 0.1034(7)
O55A O 0.1920(9) -0.6791(10) 0.4317(8)
O56A O 0.1431(8) -0.4523(10) 0.4406(7)
O57A O 0.4442(8) -0.4405(10) 0.1577(7)
O58A O 0.1537(9) -0.8204(11) 0.4320(8)
O59A O -0.0490(10) -0.0400(11) 0.3003(9)
O60A O 0.1373(9) -0.0804(11) 0.2559(8)
O61A O 0.3205(9) -0.8052(11) 0.3796(8)
O62A O 0.0379(9) -0.3142(11) 0.4927(8)
loop_
_geom_bond_atom_site_label_1
_geom_bond_atom_site_label_2
_geom_bond_site_symmetry_1
_geom_bond_site_symmetry_2
Cu1 N7 1_555 1_555
Cu2 N8 1_555 1_555
Cu3 N3 1_555 1_555
Cu4 N5 1_555 1_555
P1 O18 1_555 1_555
P2 O1 1_555 1_555
W1 O8 1_555 1_555
W2 O2 1_555 1_555
W3 O2 1_555 1_555
W4 O4 1_555 1_555
W5 O5 1_555 1_555
W6 O36 1_555 1_555
W7 O7 1_555 1_555
W8 O1 1_555 1_555
W9 O15 1_555 1_555
W10 O10 1_555 1_555
W11 O9 1_555 1_555
W12 O1 1_555 1_555
W13 O9 1_555 1_555
W14 O25 1_555 1_555
W15 O19 1_555 1_555
W16 O18 1_555 1_555
W17 O37 1_555 1_555
W18 O6 1_555 1_555
C1 H1 1_555 1_555
C2 H2 1_555 1_555
C3 C2 1_555 1_555
H3 C3 1_555 1_555
C4 H4 1_555 1_555
C5 C4 1_555 1_555
H5 C5 1_555 1_555
C6 H6 1_555 1_555
C7 C3 1_555 1_555
C8 H7 1_555 1_555
C9 H8 1_555 1_555
C10 C6 1_555 1_555
H9 C10 1_555 1_555
C11 H10 1_555 1_555
C12 H11 1_555 1_555
C13 C9 1_555 1_555
H12 C13 1_555 1_555
C14 C8 1_555 1_555
H13 C14 1_555 1_555
C15 C11 1_555 1_555
H14 C15 1_555 1_555
C16 H15 1_555 1_555
C17 C1 1_555 1_555
H16 C17 1_555 1_555
C18 C7 1_555 1_555
C19 H17 1_555 1_555
C20 H18 1_555 1_555
C21 H19 1_555 1_555
C22 H20 1_555 1_555
C23 H21 1_555 1_555
C24 H22 1_555 1_555
C25 C22 1_555 1_555
H23 C25 1_555 1_555
C26 C12 1_555 1_555
H24 C26 1_555 1_555
C27 C19 1_555 1_555
H25 C27 1_555 1_555
C28 C8 1_555 1_555
C29 H26 1_555 1_555
C30 C22 1_555 1_555
C31 C16 1_555 1_555
H27 C31 1_555 1_555
C32 C12 1_555 1_555
C33 C21 1_555 1_555
H28 C33 1_555 1_555
C34 C23 1_555 1_555
H29 C34 1_555 1_555
C35 C24 1_555 1_555
H30 C35 1_555 1_555
C36 C30 1_555 1_555
C37 C20 1_555 1_555
H31 C37 1_555 1_555
C38 C15 1_555 1_555
C39 C28 1_555 1_555
H32 C39 1_555 1_555
C40 C16 1_555 1_555
C41 H33 1_555 1_555
C42 C41 1_555 1_555
C43 C42 1_555 1_555
H34 C43 1_555 1_555
C44 C43 1_555 1_555
H35 C44 1_555 1_555
N1 C44 1_555 1_555
H36 N1 1_555 1_555
N2 C2 1_555 1_555
N3 C1 1_555 1_555
N4 Cu3 1_555 1_555
N5 C11 1_555 1_555
N6 Cu4 1_555 1_555
N7 C24 1_555 1_555
N8 C14 1_555 1_555
N9 Cu2 1_555 1_555
C45 C41 1_555 1_555
H37 C45 1_555 1_555
O3 W3 1_555 1_555
O6 W3 1_555 1_555
O10 P2 1_555 1_555
O11 W11 1_555 1_555
O12 W1 1_555 1_555
O13 W10 1_555 1_555
O14 Cu2 1_555 1_555
O16 W4 1_555 1_555
O17 W8 1_555 1_555
O18 W9 1_555 1_555
O20 W5 1_555 1_555
O21 W11 1_555 1_555
O22 W7 1_555 1_555
O23 W1 1_555 1_555
O24 W9 1_555 1_555
O25 W1 1_555 1_555
O26 W13 1_555 1_555
O27 W18 1_555 1_555
O28 W4 1_555 1_555
O29 W2 1_555 1_555
O30 P1 1_555 1_555
O31 P1 1_555 1_555
O32 W4 1_555 1_555
O33 P1 1_555 1_555
O34 W8 1_555 1_555
O35 W7 1_555 1_555
O36 P2 1_555 1_555
O37 W10 1_555 1_555
O38 W9 1_555 1_555
O39 W4 1_555 1_555
O40 W14 1_555 1_555
O41 W6 1_555 1_555
O42 W17 1_555 1_555
O43 W16 1_555 1_555
O44 W2 1_555 1_555
O45 W14 1_555 1_555
O46 W3 1_555 1_555
O47 W14 1_555 1_555
O48 W5 1_555 1_555
O49 W7 1_555 1_555
O50 W8 1_555 1_555
O51 P2 1_555 1_555
O52 W8 1_555 1_555
O53 W15 1_555 1_555
O54 W12 1_555 1_555
O55 W6 1_555 1_555
O56 W13 1_555 1_555
O57 W10 1_555 1_555
O58 W6 1_555 1_555
O59 W2 1_555 1_555
O60 W1 1_555 1_555
O61 W5 1_555 1_555
O62 W13 1_555 1_555
Cu2A O14 1_555 1_555
Cu2A_2 N8A 1_555 1_555
Cu3A N3A 1_555 1_555
Cu4A N5A 1_555 1_555
Cu4A_2 N5A_2 1_555 1_555
Cu4_2 O42 1_555 1_555
P1A O18A 1_555 1_555
P2A O1A 1_555 1_555
W1A O8A 1_555 1_555
W2A O2A 1_555 1_555
W3A O2A 1_555 1_555
W4A O4A 1_555 1_555
W5A O5A 1_555 1_555
W6A O36A 1_555 1_555
W7A O7A 1_555 1_555
W8A O1A 1_555 1_555
W9A O15A 1_555 1_555
W10A O10A 1_555 1_555
W11A O9A 1_555 1_555
W12A O1A 1_555 1_555
W13A O9A 1_555 1_555
W14A O25A 1_555 1_555
W15A O19A 1_555 1_555
W16A O18A 1_555 1_555
W17_2 O42_2 1_555 1_555
W17A O37A 1_555 1_555
W18A O6A 1_555 1_555
C1A H1A 1_555 1_555
C8A H7A 1_555 1_555
C11A H10A 1_555 1_555
C12A H11A 1_555 1_555
C14A C8A 1_555 1_555
H13A C14A 1_555 1_555
C15A C11A 1_555 1_555
H14A C15A 1_555 1_555
C16A H15A 1_555 1_555
C17A C1A 1_555 1_555
H16A C17A 1_555 1_555
C19A H17A 1_555 1_555
C20A H18A 1_555 1_555
C21A H19A 1_555 1_555
C22A H20A 1_555 1_555
C23A H21A 1_555 1_555
C24A H22A 1_555 1_555
C25A C22A 1_555 1_555
H23A C25A 1_555 1_555
C26A C12A 1_555 1_555
H24A C26A 1_555 1_555
C27A C19A 1_555 1_555
H25A C27A 1_555 1_555
C28A C8A 1_555 1_555
C29A H26A 1_555 1_555
C30A C22A 1_555 1_555
C31A C16A 1_555 1_555
H27A C31A 1_555 1_555
C32A C12A 1_555 1_555
C33A C21A 1_555 1_555
H28A C33A 1_555 1_555
C34A C23A 1_555 1_555
H29A C34A 1_555 1_555
C35A C24A 1_555 1_555
H30A C35A 1_555 1_555
C36A C30A 1_555 1_555
C37A C20A 1_555 1_555
H31A C37A 1_555 1_555
C38A C15A 1_555 1_555
C39A C28A 1_555 1_555
H32A C39A 1_555 1_555
C40A C16A 1_555 1_555
C41A H33A 1_555 1_555
C42A C42 1_555 1_555
C43A C42A 1_555 1_555
H34A C43A 1_555 1_555
C44A C43A 1_555 1_555
H35A C44A 1_555 1_555
N1A C44A 1_555 1_555
N3A C1A 1_555 1_555
N5A C11A 1_555 1_555
N6A Cu4A 1_555 1_555
N6A_2 Cu4A_2 1_555 1_555
N7A Cu1 1_555 1_555
N8A C14A 1_555 1_555
N9A Cu2A_2 1_555 1_555
C45A C41A 1_555 1_555
H37A C45A 1_555 1_555
O3A W3A 1_555 1_555
O6A W3A 1_555 1_555
O10A P2A 1_555 1_555
O11A W11A 1_555 1_555
O12A W1A 1_555 1_555
O13A W10A 1_555 1_555
O14A Cu2 1_555 1_555
O14_2 Cu2A_2 1_555 1_555
O14A_2 Cu2A_2 1_555 1_555
O16A W4A 1_555 1_555
O17A W8A 1_555 1_555
O18A W9A 1_555 1_555
O20A W5A 1_555 1_555
O21A W11A 1_555 1_555
O22A W7A 1_555 1_555
O23A W1A 1_555 1_555
O24A W9A 1_555 1_555
O25A W1A 1_555 1_555
O26A W13A 1_555 1_555
O27A W18A 1_555 1_555
O28A W4A 1_555 1_555
O29A W2A 1_555 1_555
O30A P1A 1_555 1_555
O31A P1A 1_555 1_555
O32A W4A 1_555 1_555
O33A P1A 1_555 1_555
O34A W8A 1_555 1_555
O35A W7A 1_555 1_555
O36A P2A 1_555 1_555
O37A W10A 1_555 1_555
O38A W9A 1_555 1_555
O39A W4A 1_555 1_555
O40A W14A 1_555 1_555
O41A W6A 1_555 1_555
O42_2 Cu4 1_555 1_555
O42A Cu4A 1_555 1_555
O42A_2 Cu4A_2 1_555 1_555
O43A W16A 1_555 1_555
O44A W2A 1_555 1_555
O45A W14A 1_555 1_555
O46A W3A 1_555 1_555
O47A W14A 1_555 1_555
O48A W5A 1_555 1_555
O49A W7A 1_555 1_555
O50A W8A 1_555 1_555
O51A P2A 1_555 1_555
O52A W8A 1_555 1_555
O53A W15A 1_555 1_555
O54A W12A 1_555 1_555
O55A W6A 1_555 1_555
O56A W13A 1_555 1_555
O57A W10A 1_555 1_555
O58A W6A 1_555 1_555
O59A W2A 1_555 1_555
O60A W1A 1_555 1_555
O61A W5A 1_555 1_555
O62A W13A 1_555 1_555
W1 O31 1_555 1_555
W2 O31 1_555 1_555
W2 O60 1_555 1_555
W3 O12 1_555 1_555
W3 O31 1_555 1_555
W4 O36 1_555 1_555
W5 O16 1_555 1_555
W5 O36 1_555 1_555
W6 O39 1_555 1_555
W6 O61 1_555 1_555
W7 O10 1_555 1_555
W7 O32 1_555 1_555
W8 O41 1_555 1_555
W9 O46 1_555 1_555
W9 O49 1_555 1_555
W10 O20 1_555 1_555
W10 O22 1_555 1_555
W11 O29 1_555 1_555
W11 O33 1_555 1_555
W11 O52 1_555 1_555
W12 O14 1_555 1_555
W12 O17 1_555 1_555
W12 O28 1_555 1_555
W12 O35 1_555 1_555
W13 O30 1_555 1_555
W13 O44 1_555 1_555
W14 O26 1_555 1_555
W14 O30 1_555 1_555
W15 O50 1_555 1_555
W15 O51 1_555 1_555
W15 O55 1_555 1_555
W15 O56 1_555 1_555
W16 O23 1_555 1_555
W16 O38 1_555 1_555
W16 O47 1_555 1_555
W16 O57 1_555 1_555
W17 O40 1_555 1_555
W17 O48 1_555 1_555
W17 O51 1_555 1_555
W17 O53 1_555 1_555
W18 O21 1_555 1_555
W18 O24 1_555 1_555
W18 O33 1_555 1_555
W18 O54 1_555 1_555
C4 N2 1_555 1_555
C5 C7 1_555 1_555
C6 N4 1_555 1_555
C9 N4 1_555 1_555
C10 C18 1_555 1_555
C13 C18 1_555 1_555
C17 C40 1_555 1_555
C19 N5 1_555 1_555
C20 N9 1_555 1_555
C21 N9 1_555 1_555
C23 C32 1_555 1_555
C25 N7 1_555 1_555
C26 N6 1_555 1_555
C27 C38 1_555 1_555
C28 C32 1_555 1_555
C29 C39 1_555 1_555
C29 N8 1_555 1_555
C30 C35 1_555 1_555
C31 N3 1_555 1_555
C33 C36 1_555 1_555
C34 N6 1_555 1_555
C36 C37 1_555 1_555
C38 C40 1_555 1_555
N1 C45 1_555 1_555
Cu2A O14A 1_555 1_555
W1A O31A 1_555 1_555
W2A O31A 1_555 1_555
W2A O60A 1_555 1_555
W3A O12A 1_555 1_555
W3A O31A 1_555 1_555
W4A O36A 1_555 1_555
W5A O16A 1_555 1_555
W5A O36A 1_555 1_555
W6A O39A 1_555 1_555
W6A O61A 1_555 1_555
W7A O10A 1_555 1_555
W7A O32A 1_555 1_555
W8A O41A 1_555 1_555
W9A O46A 1_555 1_555
W9A O49A 1_555 1_555
W10A O20A 1_555 1_555
W10A O22A 1_555 1_555
W11A O29A 1_555 1_555
W11A O33A 1_555 1_555
W11A O52A 1_555 1_555
W12A O14A 1_555 1_555
W12A O17A 1_555 1_555
W12A O28A 1_555 1_555
W12A O35A 1_555 1_555
W13A O30A 1_555 1_555
W13A O44A 1_555 1_555
W14A O26A 1_555 1_555
W14A O30A 1_555 1_555
W15A O50A 1_555 1_555
W15A O51A 1_555 1_555
W15A O55A 1_555 1_555
W15A O56A 1_555 1_555
W16A O23A 1_555 1_555
W16A O38A 1_555 1_555
W16A O47A 1_555 1_555
W16A O57A 1_555 1_555
W17A O40A 1_555 1_555
W17A O42A_2 1_555 1_555
W17A O48A 1_555 1_555
W17A O51A 1_555 1_555
W17A O53A 1_555 1_555
W18A O21A 1_555 1_555
W18A O24A 1_555 1_555
W18A O33A 1_555 1_555
W18A O54A 1_555 1_555
C17A C40A 1_555 1_555
C19A N5A 1_555 1_555
C20A N9A 1_555 1_555
C21A N9A 1_555 1_555
C23A C32A 1_555 1_555
C24A N7A 1_555 1_555
C25A N7A 1_555 1_555
C26A N6A 1_555 1_555
C27A C38A 1_555 1_555
C28A C32A 1_555 1_555
C29A C39A 1_555 1_555
C29A N8A 1_555 1_555
C30A C35A 1_555 1_555
C31A N3A 1_555 1_555
C33A C36A 1_555 1_555
C34A N6A 1_555 1_555
C36A C37A 1_555 1_555
C38A C40A 1_555 1_555
C41A C42A 1_555 1_555
N1A C45A 1_555 1_555

#END
