
#######################################################################
#
#                 Cambridge Crystallographic Data Centre
#                                CCDC 
#
#######################################################################
#
# If this CIF has been generated from an entry in the Cambridge 
# Structural Database, then it will include bibliographic, chemical, 
# crystal, experimental, refinement or atomic coordinate data resulting 
# from the CCDC's data processing and validation procedures.
#
#######################################################################

data_UDAVIG
_symmetry_cell_setting           triclinic
_symmetry_space_group_name_H-M   'P -1'
_symmetry_Int_Tables_number      2
_space_group_name_Hall           '-P 1'
loop_
_symmetry_equiv_pos_site_id
_symmetry_equiv_pos_as_xyz
1 x,y,z
2 -x,-y,-z
_cell_length_a                   13.5618(15)
_cell_length_b                   15.2016(17)
_cell_length_c                   17.6478(19)
_cell_angle_alpha                70.277(2)
_cell_angle_beta                 76.339(2)
_cell_angle_gamma                86.548(2)
_cell_volume                     3327.21
loop_
_atom_site_label
_atom_site_type_symbol
_atom_site_fract_x
_atom_site_fract_y
_atom_site_fract_z
N1 N 0.212(5) 0.143(5) 0.605(4)
C1 C 0.163(9) 0.204(7) 0.584(7)
C2 C 0.145(3) 0.286(3) 0.522(2)
H1 H 0.2008 0.2978 0.4740
H2 H 0.1380 0.3378 0.5414
H3 H 0.0836 0.2772 0.5064
C3 C 0.4410(4) 0.4652(3) 0.1144(3)
C4 C 0.4830(4) 0.3748(4) 0.0076(3)
C5 C 0.6315(4) 0.4726(3) 0.0230(3)
C6 C 0.4495(5) 0.1204(4) 0.4523(4)
C7 C 0.6334(7) 0.0429(5) 0.4462(5)
C8 C 0.4908(6) -0.0325(5) 0.4078(4)
C9 C 0.4176(5) 0.1786(4) 0.2292(3)
H4 H 0.4557 0.1456 0.1970
C10 C 0.5718(4) 0.2608(4) 0.2053(4)
H5 H 0.5806 0.3129 0.1539
H6 H 0.6045 0.2068 0.1936
C11 C 0.6184(4) 0.2849(4) 0.2660(4)
H7 H 0.6279 0.2286 0.3102
H8 H 0.6839 0.3159 0.2382
C12 C 0.5797(4) 0.4124(4) 0.3199(3)
H9 H 0.6497 0.4202 0.3094
C13 C 0.2433(4) 0.2036(4) 0.3044(3)
C14 C 0.3094(5) 0.1562(4) 0.2604(3)
C15 C 0.2721(5) 0.0832(4) 0.2413(4)
H10 H 0.3178 0.0520 0.2115
C16 C 0.1747(6) 0.0572(5) 0.2640(4)
C17 C 0.1080(5) 0.1060(5) 0.3080(4)
H11 H 0.0392 0.0899 0.3247
C18 C 0.1428(5) 0.1786(4) 0.3274(4)
H12 H 0.0968 0.2103 0.3564
C19 C 0.1335(6) -0.0233(5) 0.2459(5)
H13 H 0.1889 -0.0597 0.2284
H14 H 0.0972 0.0015 0.2029
H15 H 0.0885 -0.0622 0.2951
C20 C 0.4096(4) 0.4647(4) 0.3802(3)
C21 C 0.5181(4) 0.4735(4) 0.3570(3)
C22 C 0.5663(5) 0.5454(4) 0.3687(3)
H16 H 0.6366 0.5515 0.3523
C23 C 0.5119(6) 0.6084(4) 0.4043(3)
C24 C 0.4062(5) 0.5999(4) 0.4259(4)
H17 H 0.3685 0.6425 0.4477
C25 C 0.3569(5) 0.5305(4) 0.4157(3)
H18 H 0.2865 0.5259 0.4326
C26 C 0.5661(6) 0.6860(4) 0.4147(4)
H19 H 0.6380 0.6769 0.4022
H20 H 0.5442 0.6854 0.4707
H21 H 0.5505 0.7450 0.3778
C27 C 0.7133(5) 0.2330(4) -0.0445(4)
H22 H 0.7693 0.2732 -0.0711
C28 C 0.6584(6) 0.2965(5) -0.1733(4)
H23 H 0.6873 0.2600 -0.2086
H24 H 0.7043 0.3486 -0.1860
C29 C 0.5583(6) 0.3317(4) -0.1889(4)
H25 H 0.5608 0.3499 -0.2476
H26 H 0.5421 0.3864 -0.1722
C30 C 0.4007(6) 0.2494(4) -0.1693(4)
H27 H 0.3975 0.2888 -0.2220
C31 C 0.6353(4) 0.1046(4) 0.0827(4)
C32 C 0.7119(4) 0.1727(4) 0.0376(4)
C33 C 0.7932(5) 0.1794(5) 0.0738(5)
H28 H 0.8436 0.2249 0.0437
C34 C 0.8007(6) 0.1212(5) 0.1516(5)
C35 C 0.7244(5) 0.0537(4) 0.1951(4)
H29 H 0.7274 0.0132 0.2475
C36 C 0.6441(5) 0.0457(4) 0.1618(4)
H30 H 0.5943 -0.0002 0.1926
C37 C 0.8855(6) 0.1322(6) 0.1912(6)
H31 H 0.8601 0.1629 0.2312
H32 H 0.9402 0.1690 0.1493
H33 H 0.9097 0.0717 0.2181
C38 C 0.3123(5) 0.1255(4) -0.0433(4)
C39 C 0.3199(5) 0.1841(4) -0.1250(4)
C40 C 0.2396(6) 0.1806(5) -0.1647(5)
H34 H 0.2437 0.2213 -0.2184
C41 C 0.1587(6) 0.1215(5) -0.1282(6)
C42 C 0.1529(5) 0.0656(5) -0.0461(5)
H35 H 0.0961 0.0269 -0.0177
C43 C 0.2275(5) 0.0658(5) -0.0057(4)
H36 H 0.2216 0.0250 0.0481
C44 C 0.0760(6) 0.1159(6) -0.1717(6)
H37 H 0.0854 0.1663 -0.2235
H38 H 0.0107 0.1206 -0.1375
H39 H 0.0796 0.0573 -0.1816
C45 C 0.8485(4) 0.5999(4) 0.1027(4)
H40 H 0.8340 0.6546 0.1153
C46 C 0.8512(5) 0.6933(4) -0.0386(3)
H41 H 0.9195 0.7178 -0.0667
H42 H 0.8144 0.7387 -0.0156
C47 C 0.7984(4) 0.6761(4) -0.0987(3)
H43 H 0.7256 0.6700 -0.0763
H44 H 0.8119 0.7276 -0.1507
C48 C 0.8386(4) 0.5729(4) -0.1794(3)
H45 H 0.8141 0.6201 -0.2194
C49 C 0.9017(4) 0.4358(4) 0.1545(3)
C50 C 0.8617(4) 0.5172(4) 0.1684(3)
C51 C 0.8423(4) 0.5210(5) 0.2492(3)
H46 H 0.8175 0.5758 0.2583
C52 C 0.8586(4) 0.4476(5) 0.3143(4)
C53 C 0.8935(5) 0.3663(5) 0.3004(3)
H47 H 0.9016 0.3144 0.3449
C54 C 0.9170(4) 0.3598(4) 0.2212(3)
H48 H 0.9430 0.3049 0.2131
C55 C 0.8404(6) 0.4523(6) 0.4019(4)
H49 H 0.8315 0.5162 0.3998
H50 H 0.8977 0.4275 0.4249
H51 H 0.7805 0.4163 0.4360
C56 C 0.9098(4) 0.4143(4) -0.1438(3)
C57 C 0.8723(4) 0.4910(4) -0.1994(3)
C58 C 0.8733(4) 0.4896(5) -0.2795(3)
H52 H 0.8483 0.5410 -0.3156
C59 C 0.9088(5) 0.4175(5) -0.3063(4)
C60 C 0.9459(5) 0.3429(5) -0.2491(4)
H53 H 0.9726 0.2925 -0.2653
C61 C 0.9450(4) 0.3401(4) -0.1711(3)
H54 H 0.9685 0.2874 -0.1353
C62 C 0.9115(6) 0.4171(6) -0.3917(4)
H55 H 0.8698 0.3663 -0.3881
H56 H 0.9801 0.4095 -0.4189
H57 H 0.8863 0.4751 -0.4228
Co1 Co 0.5000 0.5000 0.0000
Co2 Co 0.5000 0.0000 0.5000
Mn1 Mn 0.40225(6) 0.31608(5) 0.31424(5)
Mn2 Mn 0.51165(7) 0.17460(5) -0.03739(5)
Mn3 Mn 0.87472(6) 0.49613(5) -0.01293(5)
N2 N 0.4063(3) 0.4386(3) 0.1849(3)
N3 N 0.4728(3) 0.2987(3) 0.0128(3)
N4 N 0.7132(3) 0.4582(3) 0.0343(3)
N5 N 0.4212(4) 0.1934(3) 0.4225(3)
N6 N 0.7154(7) 0.0700(5) 0.4164(6)
N7 N 0.4839(7) -0.0540(5) 0.3534(4)
N8 N 0.4638(3) 0.2405(3) 0.2430(2)
N9 N 0.5473(3) 0.3481(3) 0.3001(3)
N10 N 0.4782(4) 0.2583(3) -0.1420(3)
N11 N 0.6458(4) 0.2377(3) -0.0856(3)
N12 N 0.8551(3) 0.6048(3) 0.0275(3)
N13 N 0.8384(3) 0.5890(3) -0.1117(3)
O1 O 0.2704(3) 0.2784(2) 0.3205(2)
O2 O 0.3575(3) 0.3989(2) 0.3737(2)
O3 O 0.5541(3) 0.0952(2) 0.0561(2)
O4 O 0.3820(3) 0.1221(3) 0.0005(2)
O5 O 0.9314(3) 0.4281(2) 0.0777(2)
O6 O 0.9135(3) 0.4088(2) -0.0673(2)
O7 O 0.5706(4) 0.0778(3) -0.1103(2)
H58 H 0.5206 0.0465 -0.1103
H59 H 0.6085 0.0391 -0.0837
C3A C 0.5590(4) 0.5348(3) -0.1144(3)
C4A C 0.5170(4) 0.6252(4) -0.0076(3)
C5A C 0.3685(4) 0.5274(3) -0.0230(3)
C6A C 0.5505(5) 0.8796(4) -0.4523(4)
C6A_2 C 0.5505(5) -0.1204(4) 0.5477(4)
C7A C 0.3666(7) -0.0429(5) 0.5538(5)
C8A C 0.5092(6) 0.0325(5) 0.5922(4)
C9A C 0.5824(5) 0.8214(4) -0.2292(3)
H4A H 0.5443 0.8544 -0.1970
C10A C 0.4282(4) 0.7392(4) -0.2053(4)
H5A H 0.4194 0.6871 -0.1539
H6A H 0.3955 0.7932 -0.1936
C11A C 0.3816(4) 0.7151(4) -0.2660(4)
H7A H 0.3721 0.7714 -0.3102
H8A H 0.3161 0.6841 -0.2382
C12A C 0.4203(4) 0.5876(4) -0.3199(3)
H9A H 0.3503 0.5798 -0.3094
C13A C 0.7567(4) 0.7964(4) -0.3044(3)
C14A C 0.6906(5) 0.8438(4) -0.2604(3)
C15A C 0.7279(5) 0.9168(4) -0.2413(4)
H10A H 0.6822 0.9480 -0.2115
C16A C 0.8253(6) 0.9428(5) -0.2640(4)
C17A C 0.8920(5) 0.8940(5) -0.3080(4)
H11A H 0.9608 0.9101 -0.3247
C18A C 0.8572(5) 0.8214(4) -0.3274(4)
H12A H 0.9032 0.7897 -0.3564
C19A C 0.8665(6) 1.0233(5) -0.2459(5)
H13A H 0.8111 1.0597 -0.2284
H14A H 0.9028 0.9985 -0.2029
H15A H 0.9115 1.0622 -0.2951
C20A C 0.5904(4) 0.5353(4) -0.3802(3)
C21A C 0.4819(4) 0.5265(4) -0.3570(3)
C22A C 0.4337(5) 0.4546(4) -0.3687(3)
H16A H 0.3634 0.4485 -0.3523
C23A C 0.4881(6) 0.3916(4) -0.4043(3)
C24A C 0.5938(5) 0.4001(4) -0.4259(4)
H17A H 0.6315 0.3575 -0.4477
C25A C 0.6431(5) 0.4695(4) -0.4157(3)
H18A H 0.7135 0.4741 -0.4326
C26A C 0.4339(6) 0.3140(4) -0.4147(4)
H19A H 0.3620 0.3231 -0.4022
H20A H 0.4558 0.3146 -0.4707
H21A H 0.4495 0.2550 -0.3778
C27A C 0.2867(5) 0.7670(4) 0.0445(4)
H22A H 0.2307 0.7268 0.0711
C28A C 0.3416(6) 0.7035(5) 0.1733(4)
H23A H 0.3127 0.7400 0.2086
H24A H 0.2957 0.6514 0.1860
C29A C 0.4417(6) 0.6683(4) 0.1889(4)
H25A H 0.4392 0.6501 0.2476
H26A H 0.4579 0.6136 0.1722
C30A C 0.5993(6) 0.7506(4) 0.1693(4)
H27A H 0.6025 0.7112 0.2220
C31A C 0.3647(4) 0.8954(4) -0.0827(4)
C32A C 0.2881(4) 0.8273(4) -0.0376(4)
C33A C 0.2068(5) 0.8206(5) -0.0738(5)
H28A H 0.1564 0.7751 -0.0437
C34A C 0.1993(6) 0.8788(5) -0.1516(5)
C35A C 0.2756(5) 0.9463(4) -0.1951(4)
H29A H 0.2726 0.9868 -0.2475
C36A C 0.3559(5) 0.9543(4) -0.1618(4)
H30A H 0.4057 1.0002 -0.1926
C37A C 0.1145(6) 0.8678(6) -0.1912(6)
H31A H 0.1399 0.8371 -0.2312
H32A H 0.0598 0.8310 -0.1493
H33A H 0.0903 0.9283 -0.2181
C38A C 0.6877(5) 0.8745(4) 0.0433(4)
C39A C 0.6801(5) 0.8159(4) 0.1250(4)
C40A C 0.7604(6) 0.8194(5) 0.1647(5)
H34A H 0.7563 0.7787 0.2184
C41A C 0.8413(6) 0.8785(5) 0.1282(6)
C42A C 0.8471(5) 0.9344(5) 0.0461(5)
H35A H 0.9039 0.9731 0.0177
C43A C 0.7725(5) 0.9342(5) 0.0057(4)
H36A H 0.7784 0.9750 -0.0481
C44A C 0.9240(6) 0.8841(6) 0.1717(6)
H37A H 0.9146 0.8337 0.2235
H38A H 0.9893 0.8794 0.1375
H39A H 0.9204 0.9427 0.1816
C45A C 0.1515(4) 0.4001(4) -0.1027(4)
H40A H 0.1660 0.3454 -0.1153
C46A C 0.1488(5) 0.3067(4) 0.0386(3)
H41A H 0.0805 0.2822 0.0667
H42A H 0.1856 0.2613 0.0156
C47A C 0.2016(4) 0.3239(4) 0.0987(3)
H43A H 0.2744 0.3300 0.0763
H44A H 0.1881 0.2724 0.1507
C48A C 0.1614(4) 0.4271(4) 0.1794(3)
H45A H 0.1859 0.3799 0.2194
C49A C 0.0983(4) 0.5642(4) -0.1545(3)
C50A C 0.1383(4) 0.4828(4) -0.1684(3)
C51A C 0.1577(4) 0.4790(5) -0.2492(3)
H46A H 0.1825 0.4242 -0.2583
C52A C 0.1414(4) 0.5524(5) -0.3143(4)
C53A C 0.1065(5) 0.6337(5) -0.3004(3)
H47A H 0.0984 0.6856 -0.3449
C54A C 0.0830(4) 0.6402(4) -0.2212(3)
H48A H 0.0570 0.6951 -0.2131
C55A C 0.1596(6) 0.5477(6) -0.4019(4)
H49A H 0.1685 0.4838 -0.3998
H50A H 0.1023 0.5725 -0.4249
H51A H 0.2195 0.5837 -0.4360
C56A C 0.0902(4) 0.5857(4) 0.1438(3)
C57A C 0.1277(4) 0.5090(4) 0.1994(3)
C58A C 0.1267(4) 0.5104(5) 0.2795(3)
H52A H 0.1517 0.4590 0.3156
C59A C 0.0912(5) 0.5825(5) 0.3063(4)
C60A C 0.0541(5) 0.6571(5) 0.2491(4)
H53A H 0.0274 0.7075 0.2653
C61A C 0.0550(4) 0.6599(4) 0.1711(3)
H54A H 0.0315 0.7126 0.1353
C62A C 0.0885(6) 0.5829(6) 0.3917(4)
H55A H 0.1302 0.6337 0.3881
H56A H 0.0199 0.5905 0.4189
H57A H 0.1137 0.5249 0.4228
Co2_2 Co 0.5000 1.0000 -0.5000
Mn1A Mn 0.59775(6) 0.68392(5) -0.31424(5)
Mn2A Mn 0.48835(7) 0.82540(5) 0.03739(5)
Mn3A Mn 0.12528(6) 0.50387(5) 0.01293(5)
N2A N 0.5937(3) 0.5614(3) -0.1849(3)
N3A N 0.5272(3) 0.7013(3) -0.0128(3)
N4A N 0.2868(3) 0.5418(3) -0.0343(3)
N5A N 0.5788(4) 0.8066(3) -0.4225(3)
N6A N 0.2846(7) -0.0700(5) 0.5836(6)
N7A N 0.5161(7) 0.0540(5) 0.6466(4)
N8A N 0.5362(3) 0.7595(3) -0.2430(2)
N9A N 0.4527(3) 0.6519(3) -0.3001(3)
N10A N 0.5218(4) 0.7417(3) 0.1420(3)
N11A N 0.3542(4) 0.7623(3) 0.0856(3)
N12A N 0.1449(3) 0.3952(3) -0.0275(3)
N13A N 0.1616(3) 0.4110(3) 0.1117(3)
O1A O 0.7296(3) 0.7216(2) -0.3205(2)
O2A O 0.6425(3) 0.6011(2) -0.3737(2)
O3A O 0.4459(3) 0.9048(2) -0.0561(2)
O4A O 0.6180(3) 0.8779(3) -0.0005(2)
O5A O 0.0686(3) 0.5719(2) -0.0777(2)
O6A O 0.0865(3) 0.5912(2) 0.0673(2)
O7A O 0.4294(4) 0.9222(3) 0.1103(2)
H58A H 0.4794 0.9535 0.1103
H59A H 0.3915 0.9609 0.0837
O8 O 0.6016(5) 0.1509(4) 0.7235(3)
H60 H 0.5769 0.1180 0.7016
H61 H 0.6148 0.1237 0.7716
O9 O 0.3271(11) 0.7644(10) 0.5209(9)
H62 H 0.3160 0.8089 0.5401
H63 H 0.2727 0.7727 0.5084
O10 O 0.7770(9) 0.2050(8) 0.5856(7)
H64 H 0.7265 0.1943 0.6259
H65 H 0.8167 0.2472 0.5832
O11 O 0.8907(15) 0.0531(14) 0.4915(11)
H66 H 0.8498 0.0508 0.4584
H67 H 0.8685 0.0909 0.5132
loop_
_geom_bond_atom_site_label_1
_geom_bond_atom_site_label_2
_geom_bond_site_symmetry_1
_geom_bond_site_symmetry_2
N1 C1 1_555 1_555
C1 C2 1_555 1_555
C2 H1 1_555 1_555
H2 C2 1_555 1_555
H3 C2 1_555 1_555
C3 Co1 1_555 1_555
C4 Co1 1_555 1_555
C5 Co1 1_555 1_555
C6 Co2 1_555 1_555
C7 Co2 1_555 1_555
C8 Co2 1_555 1_555
C9 H4 1_555 1_555
C10 H5 1_555 1_555
H6 C10 1_555 1_555
C11 C10 1_555 1_555
H7 C11 1_555 1_555
H8 C11 1_555 1_555
C12 H9 1_555 1_555
C13 C14 1_555 1_555
C14 C9 1_555 1_555
C15 C14 1_555 1_555
H10 C15 1_555 1_555
C16 C15 1_555 1_555
C17 C16 1_555 1_555
H11 C17 1_555 1_555
C18 C13 1_555 1_555
H12 C18 1_555 1_555
C19 C16 1_555 1_555
H13 C19 1_555 1_555
H14 C19 1_555 1_555
H15 C19 1_555 1_555
C20 C21 1_555 1_555
C21 C12 1_555 1_555
C22 C21 1_555 1_555
H16 C22 1_555 1_555
C23 C22 1_555 1_555
C24 C23 1_555 1_555
H17 C24 1_555 1_555
C25 C20 1_555 1_555
H18 C25 1_555 1_555
C26 C23 1_555 1_555
H19 C26 1_555 1_555
H20 C26 1_555 1_555
H21 C26 1_555 1_555
C27 H22 1_555 1_555
C28 H23 1_555 1_555
H24 C28 1_555 1_555
C29 C28 1_555 1_555
H25 C29 1_555 1_555
H26 C29 1_555 1_555
C30 H27 1_555 1_555
C31 C32 1_555 1_555
C32 C27 1_555 1_555
C33 C32 1_555 1_555
H28 C33 1_555 1_555
C34 C33 1_555 1_555
C35 C34 1_555 1_555
H29 C35 1_555 1_555
C36 C31 1_555 1_555
H30 C36 1_555 1_555
C37 C34 1_555 1_555
H31 C37 1_555 1_555
H32 C37 1_555 1_555
H33 C37 1_555 1_555
C38 C39 1_555 1_555
C39 C30 1_555 1_555
C40 C39 1_555 1_555
H34 C40 1_555 1_555
C41 C40 1_555 1_555
C42 C41 1_555 1_555
H35 C42 1_555 1_555
C43 C38 1_555 1_555
H36 C43 1_555 1_555
C44 C41 1_555 1_555
H37 C44 1_555 1_555
H38 C44 1_555 1_555
H39 C44 1_555 1_555
C45 H40 1_555 1_555
C46 H41 1_555 1_555
H42 C46 1_555 1_555
C47 C46 1_555 1_555
H43 C47 1_555 1_555
H44 C47 1_555 1_555
C48 H45 1_555 1_555
C49 C50 1_555 1_555
C50 C45 1_555 1_555
C51 C50 1_555 1_555
H46 C51 1_555 1_555
C52 C51 1_555 1_555
C53 C52 1_555 1_555
H47 C53 1_555 1_555
C54 C49 1_555 1_555
H48 C54 1_555 1_555
C55 C52 1_555 1_555
H49 C55 1_555 1_555
H50 C55 1_555 1_555
H51 C55 1_555 1_555
C56 C57 1_555 1_555
C57 C48 1_555 1_555
C58 C57 1_555 1_555
H52 C58 1_555 1_555
C59 C58 1_555 1_555
C60 C59 1_555 1_555
H53 C60 1_555 1_555
C61 C56 1_555 1_555
H54 C61 1_555 1_555
C62 C59 1_555 1_555
H55 C62 1_555 1_555
H56 C62 1_555 1_555
H57 C62 1_555 1_555
Co1 C3A 1_555 1_555
Co2 C6A_2 1_555 1_555
Mn1 N2 1_555 1_555
Mn2 N3 1_555 1_555
Mn3 N4 1_555 1_555
N2 C3 1_555 1_555
N3 C4 1_555 1_555
N4 C5 1_555 1_555
N5 C6 1_555 1_555
N6 C7 1_555 1_555
N7 C8 1_555 1_555
N8 C9 1_555 1_555
N9 C11 1_555 1_555
N10 C29 1_555 1_555
N11 C27 1_555 1_555
N12 C45 1_555 1_555
N13 C47 1_555 1_555
O1 C13 1_555 1_555
O2 C20 1_555 1_555
O3 C31 1_555 1_555
O4 C38 1_555 1_555
O5 C49 1_555 1_555
O6 C56 1_555 1_555
O7 Mn2 1_555 1_555
H58 O7 1_555 1_555
H59 O7 1_555 1_555
O8 H60 1_555 1_555
H61 O8 1_555 1_555
O9 H62 1_555 1_555
H63 O9 1_555 1_555
O10 H64 1_555 1_555
H65 O10 1_555 1_555
O11 H66 1_555 1_555
H67 O11 1_555 1_555
C3A N2A 1_555 1_555
C4A Co1 1_555 1_555
C5A Co1 1_555 1_555
C6A Co2_2 1_555 1_555
C7A Co2 1_555 1_555
C8A Co2 1_555 1_555
C9A H4A 1_555 1_555
C10A H5A 1_555 1_555
H6A C10A 1_555 1_555
C11A C10A 1_555 1_555
H7A C11A 1_555 1_555
H8A C11A 1_555 1_555
C12A H9A 1_555 1_555
C13A C14A 1_555 1_555
C14A C9A 1_555 1_555
C15A C14A 1_555 1_555
H10A C15A 1_555 1_555
C16A C15A 1_555 1_555
C17A C16A 1_555 1_555
H11A C17A 1_555 1_555
C18A C13A 1_555 1_555
H12A C18A 1_555 1_555
C19A C16A 1_555 1_555
H13A C19A 1_555 1_555
H14A C19A 1_555 1_555
H15A C19A 1_555 1_555
C20A C21A 1_555 1_555
C21A C12A 1_555 1_555
C22A C21A 1_555 1_555
H16A C22A 1_555 1_555
C23A C22A 1_555 1_555
C24A C23A 1_555 1_555
H17A C24A 1_555 1_555
C25A C20A 1_555 1_555
H18A C25A 1_555 1_555
C26A C23A 1_555 1_555
H19A C26A 1_555 1_555
H20A C26A 1_555 1_555
H21A C26A 1_555 1_555
C27A H22A 1_555 1_555
C28A H23A 1_555 1_555
H24A C28A 1_555 1_555
C29A C28A 1_555 1_555
H25A C29A 1_555 1_555
H26A C29A 1_555 1_555
C30A H27A 1_555 1_555
C31A C32A 1_555 1_555
C32A C27A 1_555 1_555
C33A C32A 1_555 1_555
H28A C33A 1_555 1_555
C34A C33A 1_555 1_555
C35A C34A 1_555 1_555
H29A C35A 1_555 1_555
C36A C31A 1_555 1_555
H30A C36A 1_555 1_555
C37A C34A 1_555 1_555
H31A C37A 1_555 1_555
H32A C37A 1_555 1_555
H33A C37A 1_555 1_555
C38A C39A 1_555 1_555
C39A C30A 1_555 1_555
C40A C39A 1_555 1_555
H34A C40A 1_555 1_555
C41A C40A 1_555 1_555
C42A C41A 1_555 1_555
H35A C42A 1_555 1_555
C43A C38A 1_555 1_555
H36A C43A 1_555 1_555
C44A C41A 1_555 1_555
H37A C44A 1_555 1_555
H38A C44A 1_555 1_555
H39A C44A 1_555 1_555
C45A H40A 1_555 1_555
C46A H41A 1_555 1_555
H42A C46A 1_555 1_555
C47A C46A 1_555 1_555
H43A C47A 1_555 1_555
H44A C47A 1_555 1_555
C48A H45A 1_555 1_555
C49A C50A 1_555 1_555
C50A C45A 1_555 1_555
C51A C50A 1_555 1_555
H46A C51A 1_555 1_555
C52A C51A 1_555 1_555
C53A C52A 1_555 1_555
H47A C53A 1_555 1_555
C54A C49A 1_555 1_555
H48A C54A 1_555 1_555
C55A C52A 1_555 1_555
H49A C55A 1_555 1_555
H50A C55A 1_555 1_555
H51A C55A 1_555 1_555
C56A C57A 1_555 1_555
C57A C48A 1_555 1_555
C58A C57A 1_555 1_555
H52A C58A 1_555 1_555
C59A C58A 1_555 1_555
C60A C59A 1_555 1_555
H53A C60A 1_555 1_555
C61A C56A 1_555 1_555
H54A C61A 1_555 1_555
C62A C59A 1_555 1_555
H55A C62A 1_555 1_555
H56A C62A 1_555 1_555
H57A C62A 1_555 1_555
Mn1A N2A 1_555 1_555
Mn2A N3A 1_555 1_555
Mn3A N4A 1_555 1_555
N3A C4A 1_555 1_555
N4A C5A 1_555 1_555
N5A C6A 1_555 1_555
N6A C7A 1_555 1_555
N7A C8A 1_555 1_555
N8A C9A 1_555 1_555
N9A C11A 1_555 1_555
N10A C29A 1_555 1_555
N11A C27A 1_555 1_555
N12A C45A 1_555 1_555
N13A C47A 1_555 1_555
O1A C13A 1_555 1_555
O2A C20A 1_555 1_555
O3A C31A 1_555 1_555
O4A C38A 1_555 1_555
O5A C49A 1_555 1_555
O6A C56A 1_555 1_555
O7A Mn2A 1_555 1_555
H58A O7A 1_555 1_555
H59A O7A 1_555 1_555
C10 N8 1_555 1_555
C12 N9 1_555 1_555
C17 C18 1_555 1_555
C24 C25 1_555 1_555
C28 N11 1_555 1_555
C30 N10 1_555 1_555
C35 C36 1_555 1_555
C42 C43 1_555 1_555
C46 N12 1_555 1_555
C48 N13 1_555 1_555
C53 C54 1_555 1_555
C60 C61 1_555 1_555
Mn1 N5 1_555 1_555
Mn1 N8 1_555 1_555
Mn1 N9 1_555 1_555
Mn1 O1 1_555 1_555
Mn1 O2 1_555 1_555
Mn2 N10 1_555 1_555
Mn2 N11 1_555 1_555
Mn2 O3 1_555 1_555
Mn2 O4 1_555 1_555
Mn3 N12 1_555 1_555
Mn3 N13 1_555 1_555
Mn3 O5 1_555 1_555
Mn3 O6 1_555 1_555
C10A N8A 1_555 1_555
C12A N9A 1_555 1_555
C17A C18A 1_555 1_555
C24A C25A 1_555 1_555
C28A N11A 1_555 1_555
C30A N10A 1_555 1_555
C35A C36A 1_555 1_555
C42A C43A 1_555 1_555
C46A N12A 1_555 1_555
C48A N13A 1_555 1_555
C53A C54A 1_555 1_555
C60A C61A 1_555 1_555
Mn1A N5A 1_555 1_555
Mn1A N8A 1_555 1_555
Mn1A N9A 1_555 1_555
Mn1A O1A 1_555 1_555
Mn1A O2A 1_555 1_555
Mn2A N10A 1_555 1_555
Mn2A N11A 1_555 1_555
Mn2A O3A 1_555 1_555
Mn2A O4A 1_555 1_555
Mn3A N12A 1_555 1_555
Mn3A N13A 1_555 1_555
Mn3A O5A 1_555 1_555
Mn3A O6A 1_555 1_555

#END
