
#######################################################################
#
#                 Cambridge Crystallographic Data Centre
#                                CCDC 
#
#######################################################################
#
# If this CIF has been generated from an entry in the Cambridge 
# Structural Database, then it will include bibliographic, chemical, 
# crystal, experimental, refinement or atomic coordinate data resulting 
# from the CCDC's data processing and validation procedures.
#
#######################################################################

data_UDAXUU
_symmetry_cell_setting           monoclinic
_symmetry_space_group_name_H-M   'P 21/c'
_symmetry_Int_Tables_number      14
_space_group_name_Hall           '-P 2ybc'
loop_
_symmetry_equiv_pos_site_id
_symmetry_equiv_pos_as_xyz
1 x,y,z
2 -x,1/2+y,1/2-z
3 -x,-y,-z
4 x,1/2-y,1/2+z
_cell_length_a                   10.0747(3)
_cell_length_b                   23.8833(6)
_cell_length_c                   11.3984(4)
_cell_angle_alpha                90
_cell_angle_beta                 116.6400(10)
_cell_angle_gamma                90
_cell_volume                     2451.49
loop_
_atom_site_label
_atom_site_type_symbol
_atom_site_fract_x
_atom_site_fract_y
_atom_site_fract_z
Au1 Au 0.287083(18) 0.136578(7) 0.434196(17)
Cu1 Cu 0.32544(6) 0.24297(2) 0.53925(5)
C1 C 0.4742(5) 0.10223(18) 0.4363(4)
C2 C 0.5224(5) 0.11142(18) 0.3425(4)
C3 C 0.6515(5) 0.08921(19) 0.3462(4)
C4 C 0.7401(5) 0.0552(2) 0.4504(5)
C5 C 0.6963(5) 0.0441(2) 0.5468(4)
C6 C 0.5670(5) 0.06765(19) 0.5375(4)
F1 F 0.4432(3) 0.14469(11) 0.2370(3)
F2 F 0.6922(3) 0.10047(12) 0.2509(3)
F3 F 0.8668(3) 0.03361(13) 0.4595(3)
F4 F 0.7811(3) 0.01089(14) 0.6486(3)
F5 F 0.5304(3) 0.05499(12) 0.6363(3)
C7 C 0.1011(5) 0.16818(17) 0.4416(4)
C8 C 0.0765(5) 0.15803(17) 0.5491(4)
C9 C -0.0478(5) 0.17528(19) 0.5608(4)
C10 C -0.1553(5) 0.2050(2) 0.4577(5)
C11 C -0.1372(5) 0.2157(2) 0.3469(4)
C12 C -0.0109(5) 0.19737(18) 0.3412(4)
F6 F 0.1787(3) 0.12962(11) 0.6546(3)
F7 F -0.0675(3) 0.16396(13) 0.6667(3)
F8 F -0.2797(3) 0.22182(13) 0.4637(3)
F9 F -0.2433(3) 0.24429(13) 0.2467(3)
F10 F 0.0021(3) 0.20983(12) 0.2303(2)
N1 N 0.4205(4) 0.21695(15) 0.7255(3)
C13 C 0.3768(4) 0.23986(16) 0.8078(4)
H1 H 0.3083 0.2689 0.7752
N2 N 0.4210(4) 0.22547(15) 0.9331(3)
C14 C 0.5199(5) 0.1835(2) 0.9788(5)
H2 H 0.5537 0.172 1.0654
C15 C 0.5723(5) 0.1571(2) 0.9006(5)
H3 H 0.6404 0.1279 0.9327
C16 C 0.5203(5) 0.1756(2) 0.7729(4)
H4 H 0.5554 0.1589 0.7185
N3 N 0.1714(4) 0.30077(17) 0.5144(4)
C17 C -0.1168(5) 0.45633(19) 0.5600(4)
C18 C -0.1135(6) 0.4788(2) 0.6743(5)
H5 H -0.0453 0.4656 0.7559
C19 C -0.2128(7) 0.5210(2) 0.6655(6)
H6 H -0.2098 0.5364 0.7415
C20 C -0.3149(7) 0.5400(2) 0.5450(7)
H7 H -0.3819 0.5678 0.5398
C21 C -0.3189(6) 0.5181(2) 0.4318(6)
H8 H -0.3886 0.5311 0.3505
C22 C -0.2198(5) 0.4770(2) 0.4388(5)
H9 H -0.2216 0.4629 0.3621
C23 C -0.0139(5) 0.41098(19) 0.5719(4)
H10 H 0.0522 0.4002 0.6566
C24 C -0.0055(5) 0.3836(2) 0.4738(5)
H11 H -0.0667 0.3944 0.3878
C25 C 0.0947(5) 0.3382(2) 0.4967(4)
Cu1C Cu 0.32544(6) 0.25703(2) 1.03925(5)
N2C N 0.4210(4) 0.27453(15) 0.4331(3)
loop_
_geom_bond_atom_site_label_1
_geom_bond_atom_site_label_2
_geom_bond_site_symmetry_1
_geom_bond_site_symmetry_2
Au1 Cu1 1_555 1_555
Cu1 N1 1_555 1_555
C1 Au1 1_555 1_555
C2 C1 1_555 1_555
C3 C2 1_555 1_555
C4 C3 1_555 1_555
C5 C4 1_555 1_555
C6 C1 1_555 1_555
F1 C2 1_555 1_555
F2 C3 1_555 1_555
F3 C4 1_555 1_555
F4 C5 1_555 1_555
F5 C6 1_555 1_555
C7 Au1 1_555 1_555
C8 C7 1_555 1_555
C9 C8 1_555 1_555
C10 C9 1_555 1_555
C11 C10 1_555 1_555
C12 C7 1_555 1_555
F6 C8 1_555 1_555
F7 C9 1_555 1_555
F8 C10 1_555 1_555
F9 C11 1_555 1_555
F10 C12 1_555 1_555
N1 C13 1_555 1_555
C13 H1 1_555 1_555
N2 C13 1_555 1_555
C14 N2 1_555 1_555
H2 C14 1_555 1_555
C15 C14 1_555 1_555
H3 C15 1_555 1_555
C16 N1 1_555 1_555
H4 C16 1_555 1_555
N3 Cu1 1_555 1_555
C17 C18 1_555 1_555
C18 H5 1_555 1_555
C19 C18 1_555 1_555
H6 C19 1_555 1_555
C20 C19 1_555 1_555
H7 C20 1_555 1_555
C21 C20 1_555 1_555
H8 C21 1_555 1_555
C22 C17 1_555 1_555
H9 C22 1_555 1_555
C23 C17 1_555 1_555
H10 C23 1_555 1_555
C24 C23 1_555 1_555
H11 C24 1_555 1_555
C25 N3 1_555 1_555
Cu1C N2 1_555 1_555
N2C Cu1 1_555 1_555
C5 C6 1_555 1_555
C11 C12 1_555 1_555
C15 C16 1_555 1_555
C21 C22 1_555 1_555
C24 C25 1_555 1_555

#END
