
#######################################################################
#
#                 Cambridge Crystallographic Data Centre
#                                CCDC 
#
#######################################################################
#
# If this CIF has been generated from an entry in the Cambridge 
# Structural Database, then it will include bibliographic, chemical, 
# crystal, experimental, refinement or atomic coordinate data resulting 
# from the CCDC's data processing and validation procedures.
#
#######################################################################

data_UDAYOP
_symmetry_cell_setting           monoclinic
_symmetry_space_group_name_H-M   'P 21/c'
_symmetry_Int_Tables_number      14
_space_group_name_Hall           '-P 2ybc'
loop_
_symmetry_equiv_pos_site_id
_symmetry_equiv_pos_as_xyz
1 x,y,z
2 -x,1/2+y,1/2-z
3 -x,-y,-z
4 x,1/2-y,1/2+z
_cell_length_a                   8.9117(18)
_cell_length_b                   19.347(4)
_cell_length_c                   12.415(3)
_cell_angle_alpha                90
_cell_angle_beta                 106.36(3)
_cell_angle_gamma                90
_cell_volume                     2053.86
loop_
_atom_site_label
_atom_site_type_symbol
_atom_site_fract_x
_atom_site_fract_y
_atom_site_fract_z
Mn1 Mn 0.78200(5) 0.11157(2) 0.33322(4)
Mn2 Mn 0.5000 0.0000 0.0000
Cl1 Cl 0.58702(9) 0.10838(4) 0.13859(6)
Cl2 Cl 0.97472(9) 0.09832(4) 0.52528(6)
Cl3 Cl 0.74936(10) -0.06518(4) 0.08638(7)
N1 N 0.6091(3) 0.45060(12) 0.3746(2)
N2 N 0.9583(3) 0.16307(12) 0.2617(2)
N3 N 0.5923(3) 0.12769(13) 0.4153(2)
N4 N 0.7783(3) 0.23208(11) 0.37304(19)
C1 C 0.5939(4) 0.38271(15) 0.3514(2)
H1 H 0.5224 0.3576 0.3776
C2 C 0.7062(4) 0.48635(16) 0.3319(3)
H2 H 0.7181 0.5334 0.3473
C3 C 0.7900(4) 0.45681(17) 0.2659(3)
H3 H 0.8546 0.4838 0.2358
C4 C 0.7768(4) 0.38752(16) 0.2453(3)
H4 H 0.8331 0.3668 0.2013
C5 C 0.6790(3) 0.34791(15) 0.2905(2)
C6 C 0.6725(3) 0.27049(14) 0.2782(2)
H5 H 0.5660 0.2554 0.2699
H6 H 0.6985 0.2583 0.2098
C7 C 1.0202(4) 0.13466(19) 0.1848(3)
H7 H 0.9819 0.0923 0.1535
C8 C 1.1377(5) 0.1658(2) 0.1511(3)
H8 H 1.1795 0.1446 0.0987
C9 C 1.1919(4) 0.2286(2) 0.1961(3)
H9 H 1.2726 0.2503 0.1753
C10 C 1.1272(4) 0.25983(19) 0.2723(3)
H10 H 1.1607 0.3032 0.3014
C11 C 1.0110(3) 0.22491(15) 0.3042(2)
C12 C 0.9426(3) 0.25344(15) 0.3934(2)
H11 H 1.0031 0.2370 0.4666
H12 H 0.9487 0.3035 0.3936
C13 C 0.4791(4) 0.08196(18) 0.4113(3)
H13 H 0.4832 0.0395 0.3771
C14 C 0.3558(4) 0.0946(2) 0.4555(3)
H14 H 0.2809 0.0609 0.4539
C15 C 0.3473(4) 0.1580(2) 0.5017(3)
H15 H 0.2642 0.1686 0.5302
C16 C 0.4622(4) 0.20622(18) 0.5056(3)
H16 H 0.4568 0.2497 0.5362
C17 C 0.5859(3) 0.18934(15) 0.4637(2)
C18 C 0.7248(3) 0.23612(15) 0.4754(2)
H17 H 0.6961 0.2834 0.4868
H18 H 0.8089 0.2223 0.5402
O1 O 0.7997(4) 0.00300(12) 0.3169(2)
Mn1B Mn 0.21800(5) -0.11157(2) -0.33322(4)
Mn2A Mn 0.5000 -0.5000 -0.5000
Mn2A_2 Mn 0.5000 0.5000 0.5000
Cl1B Cl 0.41298(9) -0.10838(4) -0.13859(6)
Cl2B Cl 0.02528(9) -0.09832(4) -0.52528(6)
Cl3B Cl 0.25064(10) 0.06518(4) -0.08638(7)
N1B N 0.3909(3) -0.45060(12) -0.3746(2)
N1A N 0.3909(3) -0.04940(12) 0.1254(2)
N1C N 0.6091(3) 0.04940(12) -0.1254(2)
N2B N 0.0417(3) -0.16307(12) -0.2617(2)
N3B N 0.4077(3) -0.12769(13) -0.4153(2)
N4B N 0.2217(3) -0.23208(11) -0.37304(19)
C1B C 0.4061(4) -0.38271(15) -0.3514(2)
H1B H 0.4776 -0.3576 -0.3776
C2B C 0.2938(4) -0.48635(16) -0.3319(3)
H2B H 0.2819 -0.5334 -0.3473
C3B C 0.2100(4) -0.45681(17) -0.2659(3)
H3B H 0.1454 -0.4838 -0.2358
C4B C 0.2232(4) -0.38752(16) -0.2453(3)
H4B H 0.1669 -0.3668 -0.2013
C5B C 0.3210(3) -0.34791(15) -0.2905(2)
C6B C 0.3275(3) -0.27049(14) -0.2782(2)
H5B H 0.4340 -0.2554 -0.2699
H6B H 0.3015 -0.2583 -0.2098
C7B C -0.0202(4) -0.13466(19) -0.1848(3)
H7B H 0.0181 -0.0923 -0.1535
C8B C -0.1377(5) -0.1658(2) -0.1511(3)
H8B H -0.1795 -0.1446 -0.0987
C9B C -0.1919(4) -0.2286(2) -0.1961(3)
H9B H -0.2726 -0.2503 -0.1753
C10B C -0.1272(4) -0.25983(19) -0.2723(3)
H10B H -0.1607 -0.3032 -0.3014
C11B C -0.0110(3) -0.22491(15) -0.3042(2)
C12B C 0.0574(3) -0.25344(15) -0.3934(2)
H11B H -0.0031 -0.2370 -0.4666
H12B H 0.0513 -0.3035 -0.3936
C13B C 0.5209(4) -0.08196(18) -0.4113(3)
H13B H 0.5168 -0.0395 -0.3771
C14B C 0.6442(4) -0.0946(2) -0.4555(3)
H14B H 0.7191 -0.0609 -0.4539
C15B C 0.6527(4) -0.1580(2) -0.5017(3)
H15B H 0.7358 -0.1686 -0.5302
C16B C 0.5378(4) -0.20622(18) -0.5056(3)
H16B H 0.5432 -0.2497 -0.5362
C17B C 0.4141(3) -0.18934(15) -0.4637(2)
C18B C 0.2752(3) -0.23612(15) -0.4754(2)
H17B H 0.3039 -0.2834 -0.4868
H18B H 0.1911 -0.2223 -0.5402
O1B O 0.2003(4) -0.00300(12) -0.3169(2)
loop_
_geom_bond_atom_site_label_1
_geom_bond_atom_site_label_2
_geom_bond_site_symmetry_1
_geom_bond_site_symmetry_2
Mn1 Cl1 1_555 1_555
Mn2 Cl1 1_555 1_555
Cl2 Mn1 1_555 1_555
Cl3 Mn2 1_555 1_555
N1 C1 1_555 1_555
N2 Mn1 1_555 1_555
N3 Mn1 1_555 1_555
N4 Mn1 1_555 1_555
C1 H1 1_555 1_555
C2 N1 1_555 1_555
H2 C2 1_555 1_555
C3 C2 1_555 1_555
H3 C3 1_555 1_555
C4 C3 1_555 1_555
H4 C4 1_555 1_555
C5 C1 1_555 1_555
C6 N4 1_555 1_555
H5 C6 1_555 1_555
H6 C6 1_555 1_555
C7 N2 1_555 1_555
H7 C7 1_555 1_555
C8 C7 1_555 1_555
H8 C8 1_555 1_555
C9 C8 1_555 1_555
H9 C9 1_555 1_555
C10 C9 1_555 1_555
H10 C10 1_555 1_555
C11 N2 1_555 1_555
C12 N4 1_555 1_555
H11 C12 1_555 1_555
H12 C12 1_555 1_555
C13 N3 1_555 1_555
H13 C13 1_555 1_555
C14 C13 1_555 1_555
H14 C14 1_555 1_555
C15 C14 1_555 1_555
H15 C15 1_555 1_555
C16 C15 1_555 1_555
H16 C16 1_555 1_555
C17 N3 1_555 1_555
C18 N4 1_555 1_555
H17 C18 1_555 1_555
H18 C18 1_555 1_555
O1 Mn1 1_555 1_555
Mn1B Cl1B 1_555 1_555
Mn2A N1B 1_555 1_555
Mn2A_2 N1 1_555 1_555
Cl1B Mn2 1_555 1_555
Cl2B Mn1B 1_555 1_555
Cl3B Mn2 1_555 1_555
N1B C1B 1_555 1_555
N1A Mn2 1_555 1_555
N1C Mn2 1_555 1_555
N2B Mn1B 1_555 1_555
N3B Mn1B 1_555 1_555
N4B Mn1B 1_555 1_555
C1B H1B 1_555 1_555
C2B N1B 1_555 1_555
H2B C2B 1_555 1_555
C3B C2B 1_555 1_555
H3B C3B 1_555 1_555
C4B C3B 1_555 1_555
H4B C4B 1_555 1_555
C5B C1B 1_555 1_555
C6B N4B 1_555 1_555
H5B C6B 1_555 1_555
H6B C6B 1_555 1_555
C7B N2B 1_555 1_555
H7B C7B 1_555 1_555
C8B C7B 1_555 1_555
H8B C8B 1_555 1_555
C9B C8B 1_555 1_555
H9B C9B 1_555 1_555
C10B C9B 1_555 1_555
H10B C10B 1_555 1_555
C11B N2B 1_555 1_555
C12B N4B 1_555 1_555
H11B C12B 1_555 1_555
H12B C12B 1_555 1_555
C13B N3B 1_555 1_555
H13B C13B 1_555 1_555
C14B C13B 1_555 1_555
H14B C14B 1_555 1_555
C15B C14B 1_555 1_555
H15B C15B 1_555 1_555
C16B C15B 1_555 1_555
H16B C16B 1_555 1_555
C17B N3B 1_555 1_555
C18B N4B 1_555 1_555
H17B C18B 1_555 1_555
H18B C18B 1_555 1_555
O1B Mn1B 1_555 1_555
C4 C5 1_555 1_555
C5 C6 1_555 1_555
C10 C11 1_555 1_555
C11 C12 1_555 1_555
C16 C17 1_555 1_555
C17 C18 1_555 1_555
C4B C5B 1_555 1_555
C5B C6B 1_555 1_555
C10B C11B 1_555 1_555
C11B C12B 1_555 1_555
C16B C17B 1_555 1_555
C17B C18B 1_555 1_555

#END
