
#######################################################################
#
#                 Cambridge Crystallographic Data Centre
#                                CCDC 
#
#######################################################################
#
# If this CIF has been generated from an entry in the Cambridge 
# Structural Database, then it will include bibliographic, chemical, 
# crystal, experimental, refinement or atomic coordinate data resulting 
# from the CCDC's data processing and validation procedures.
#
#######################################################################

data_UDEREB
_symmetry_cell_setting           monoclinic
_symmetry_space_group_name_H-M   'C 2/c'
_symmetry_Int_Tables_number      15
_space_group_name_Hall           '-C 2yn'
loop_
_symmetry_equiv_pos_site_id
_symmetry_equiv_pos_as_xyz
1 x,y,z
2 1/2+x,1/2+y,z
3 -x,y,1/2-z
4 1/2-x,1/2+y,1/2-z
5 -x,-y,-z
6 1/2-x,1/2-y,-z
7 x,-y,1/2+z
8 1/2+x,1/2-y,1/2+z
_cell_length_a                   16.042(4)
_cell_length_b                   12.199(3)
_cell_length_c                   15.050(4)
_cell_angle_alpha                90
_cell_angle_beta                 110.326(4)
_cell_angle_gamma                90
_cell_volume                     2761.83
loop_
_atom_site_label
_atom_site_type_symbol
_atom_site_fract_x
_atom_site_fract_y
_atom_site_fract_z
C1 C 0.2965(4) 0.3326(5) 0.2098(4)
Ag1 Ag 0.0000 0.14240(6) 0.2500
Ag2 Ag 0.5000 0.25349(13) 0.2500
C2 C 0.1191(4) 0.6451(5) 0.0721(4)
C3 C 0.1165(4) 0.5481(4) 0.1216(4)
C4 C 0.1948(4) 0.4809(5) 0.1494(4)
H1 H 0.2427 0.5113 0.1369
N1 N 0.3654(4) 0.2982(5) 0.2255(4)
O1 O 0.1978(3) 0.6670(4) 0.0621(4)
C5 C 0.1507(4) 0.3175(5) 0.2194(5)
C6 C 0.0377(4) 0.5240(5) 0.1378(5)
H2 H 0.0352 0.4614 0.1720
C7 C 0.2106(4) 0.3810(4) 0.1906(4)
C8 C -0.0361(4) 0.5897(6) 0.1048(5)
H3 H -0.0877 0.5718 0.1165
C9 C 0.0439(5) 0.7111(5) 0.0379(5)
H4 H 0.0456 0.7744 0.0042
N2 N 0.1043(4) 0.2634(5) 0.2434(5)
C10 C -0.0326(5) 0.6832(6) 0.0536(5)
H5 H -0.0827 0.7274 0.0298
O2 O -0.0122(5) 0.0073(8) 0.1390(6)
H6 H -0.0629 0.0069 0.1002
C11 C 0.2026(5) 0.7515(5) -0.0014(5)
H7 H 0.1886 0.8223 0.0193
H8 H 0.1616 0.7373 -0.0650
H9 H 0.0322 0.0184 0.1228
C1E C 0.2035(4) 1.1674(5) -0.2098(4)
Ag1G Ag 0.5000 1.35760(6) -0.2500
Ag2G Ag 0.0000 1.24651(13) -0.2500
C2E C 0.3809(4) 0.8549(5) -0.0721(4)
C3E C 0.3835(4) 0.9519(4) -0.1216(4)
C4E C 0.3052(4) 1.0191(5) -0.1494(4)
H1E H 0.2573 0.9887 -0.1369
N1E N 0.1346(4) 1.2018(5) -0.2255(4)
N1B N 0.6346(4) 0.2982(5) 0.2745(4)
O1E O 0.3022(3) 0.8330(4) -0.0621(4)
C5E C 0.3493(4) 1.1825(5) -0.2194(5)
C6E C 0.4623(4) 0.9760(5) -0.1378(5)
H2E H 0.4648 1.0386 -0.1720
C7E C 0.2894(4) 1.1190(4) -0.1906(4)
C8E C 0.5361(4) 0.9103(6) -0.1048(5)
H3E H 0.5877 0.9282 -0.1165
C9E C 0.4561(5) 0.7889(5) -0.0379(5)
H4E H 0.4544 0.7256 -0.0042
N2E N 0.3957(4) 1.2366(5) -0.2434(5)
N2B N -0.1043(4) 0.2634(5) 0.2566(5)
C10E C 0.5326(5) 0.8168(6) -0.0536(5)
H5E H 0.5827 0.7726 -0.0298
O2B O 0.0122(5) 0.0073(8) 0.3610(6)
H6B H 0.0629 0.0069 0.3998
C11E C 0.2974(5) 0.7485(5) 0.0014(5)
H7E H 0.3114 0.6777 -0.0193
H8E H 0.3384 0.7627 0.0650
H9B H -0.0322 0.0184 0.3772
B1 B 0.3034(6) 0.5521(8) 0.4222(8)
F1 F 0.3638(5) 0.4813(7) 0.4084(7)
F2 F 0.2249(4) 0.4985(7) 0.3833(5)
F3 F 0.3219(5) 0.5529(6) 0.5180(5)
F4 F 0.3027(7) 0.6444(6) 0.3856(9)
loop_
_geom_bond_atom_site_label_1
_geom_bond_atom_site_label_2
_geom_bond_site_symmetry_1
_geom_bond_site_symmetry_2
C1 N1 1_555 1_555
Ag1 N2 1_555 1_555
Ag2 N1 1_555 1_555
C2 C3 1_555 1_555
C3 C4 1_555 1_555
C4 H1 1_555 1_555
O1 C2 1_555 1_555
B1 F1 1_555 1_555
C5 C7 1_555 1_555
C6 C3 1_555 1_555
H2 C6 1_555 1_555
C7 C1 1_555 1_555
C8 C6 1_555 1_555
H3 C8 1_555 1_555
C9 C2 1_555 1_555
H4 C9 1_555 1_555
N2 C5 1_555 1_555
C10 C8 1_555 1_555
H5 C10 1_555 1_555
O2 Ag1 1_555 1_555
H6 O2 1_555 1_555
F2 B1 1_555 1_555
C11 O1 1_555 1_555
H7 C11 1_555 1_555
H8 C11 1_555 1_555
F3 B1 1_555 1_555
F4 B1 1_555 1_555
H9 O2 1_555 1_555
C1E N1E 1_555 1_555
Ag1G N2E 1_555 1_555
Ag2G N1E 1_555 1_555
C2E C3E 1_555 1_555
C3E C4E 1_555 1_555
C4E H1E 1_555 1_555
N1B Ag2 1_555 1_555
O1E C2E 1_555 1_555
C5E C7E 1_555 1_555
C6E C3E 1_555 1_555
H2E C6E 1_555 1_555
C7E C1E 1_555 1_555
C8E C6E 1_555 1_555
H3E C8E 1_555 1_555
C9E C2E 1_555 1_555
H4E C9E 1_555 1_555
N2E C5E 1_555 1_555
N2B Ag1 1_555 1_555
C10E C8E 1_555 1_555
H5E C10E 1_555 1_555
O2B Ag1 1_555 1_555
H6B O2B 1_555 1_555
C11E C11 1_555 1_555
H7E C11E 1_555 1_555
H8E C11E 1_555 1_555
H9B O2B 1_555 1_555
C4 C7 1_555 1_555
C9 C10 1_555 1_555
C4E C7E 1_555 1_555
O1E C11E 1_555 1_555
C9E C10E 1_555 1_555

#END
