
#######################################################################
#
#                 Cambridge Crystallographic Data Centre
#                                CCDC 
#
#######################################################################
#
# If this CIF has been generated from an entry in the Cambridge 
# Structural Database, then it will include bibliographic, chemical, 
# crystal, experimental, refinement or atomic coordinate data resulting 
# from the CCDC's data processing and validation procedures.
#
#######################################################################

data_UDERAX
_symmetry_cell_setting           monoclinic
_symmetry_space_group_name_H-M   'P 21/c'
_symmetry_Int_Tables_number      14
_space_group_name_Hall           '-P 2ybc'
loop_
_symmetry_equiv_pos_site_id
_symmetry_equiv_pos_as_xyz
1 x,y,z
2 -x,1/2+y,1/2-z
3 -x,-y,-z
4 x,1/2-y,1/2+z
_cell_length_a                   8.8051(11)
_cell_length_b                   14.0155(17)
_cell_length_c                   19.182(2)
_cell_angle_alpha                90
_cell_angle_beta                 94.398(2)
_cell_angle_gamma                90
_cell_volume                     2360.24
loop_
_atom_site_label
_atom_site_type_symbol
_atom_site_fract_x
_atom_site_fract_y
_atom_site_fract_z
Ag1 Ag 0.73187(3) 0.314668(18) 0.307122(13)
N1 N 1.3413(3) 0.4853(2) 0.26660(13)
N2 N 0.9661(3) 0.33198(18) 0.35542(13)
N3 N 1.5482(3) 0.2098(2) 0.31159(13)
N4 N 1.3076(3) -0.06742(19) 0.27381(13)
C1 C 1.2239(3) -0.0180(2) 0.58824(15)
H1 H 1.2346 -0.0032 0.6367
C2 C 1.1294(3) -0.0912(2) 0.56395(16)
H2 H 1.0761 -0.1272 0.5962
C3 C 1.1105(3) -0.1134(2) 0.49293(15)
H3 H 1.0470 -0.1649 0.4769
C4 C 1.1856(3) -0.0592(2) 0.44622(15)
H4 H 1.1709 -0.0729 0.3977
C5 C 1.2826(3) 0.0151(2) 0.46866(14)
C6 C 1.3617(3) 0.0778(2) 0.42420(14)
H5 H 1.4043 0.1327 0.4472
C7 C 1.3863(3) 0.0723(2) 0.35521(14)
C8 C 1.3405(3) -0.0048(2) 0.30982(14)
C9 C 1.4748(3) 0.1476(2) 0.32777(14)
C10 C 1.3035(3) 0.0338(2) 0.54100(14)
C11 C 1.3851(3) 0.1641(2) 0.61721(14)
H6 H 1.4030 0.1313 0.6628
H7 H 1.2795 0.1889 0.6128
C12 C 1.4969(3) 0.2432(2) 0.61103(13)
H8 H 1.4966 0.2867 0.6517
H9 H 1.6010 0.2175 0.6084
C13 C 1.5458(3) 0.3481(2) 0.51512(14)
C14 C 1.6942(3) 0.3664(2) 0.54091(15)
H10 H 1.7325 0.3399 0.5844
C15 C 1.7863(3) 0.4231(2) 0.50327(15)
H11 H 1.8885 0.4347 0.5207
C16 C 1.7316(3) 0.4636(2) 0.44006(15)
H12 H 1.7959 0.5029 0.4147
C17 C 1.5832(3) 0.4464(2) 0.41451(14)
H13 H 1.5457 0.4748 0.3716
C18 C 1.4868(3) 0.3878(2) 0.45086(13)
C19 C 1.3301(3) 0.3664(2) 0.42831(14)
H14 H 1.2774 0.3306 0.4609
C20 C 1.2456(3) 0.3888(2) 0.36851(13)
C21 C 1.2981(3) 0.4426(2) 0.31157(14)
C22 C 1.0891(3) 0.3574(2) 0.36064(13)
O1 O 1.4102(2) 0.10029(16) 0.56086(10)
O2 O 1.4475(2) 0.29225(17) 0.54761(10)
Ag1_2 Ag 1.73187(3) 0.314668(18) 0.307122(13)
Ag1A Ag 1.26813(3) -0.185332(18) 0.192878(13)
N3_2 N 0.5482(3) 0.2098(2) 0.31159(13)
N4A N 0.6924(3) 0.43258(19) 0.22619(13)
F1 F -0.1426(2) 0.21688(15) 0.19937(10)
F2 F 0.0545(2) 0.20695(14) 0.10192(8)
F3 F -0.0182(2) 0.05241(14) 0.16633(10)
F4 F 0.0599(2) 0.13371(16) 0.28937(9)
F5 F 0.1334(2) 0.29118(15) 0.22215(10)
F6 F 0.25711(18) 0.12698(15) 0.19208(8)
Sb1 Sb 0.05696(2) 0.171002(14) 0.196016(9)
loop_
_geom_bond_atom_site_label_1
_geom_bond_atom_site_label_2
_geom_bond_site_symmetry_1
_geom_bond_site_symmetry_2
Ag1 N2 1_555 1_555
N1 C21 1_555 1_555
N2 C22 1_555 1_555
N3 C9 1_555 1_555
N4 C8 1_555 1_555
C1 H1 1_555 1_555
C2 C1 1_555 1_555
H2 C2 1_555 1_555
C3 C2 1_555 1_555
H3 C3 1_555 1_555
C4 C3 1_555 1_555
H4 C4 1_555 1_555
C5 C4 1_555 1_555
C6 C5 1_555 1_555
H5 C6 1_555 1_555
C7 C6 1_555 1_555
C8 C7 1_555 1_555
C9 C7 1_555 1_555
C10 C1 1_555 1_555
C11 H6 1_555 1_555
H7 C11 1_555 1_555
C12 C11 1_555 1_555
H8 C12 1_555 1_555
H9 C12 1_555 1_555
C13 C14 1_555 1_555
C14 H10 1_555 1_555
C15 C14 1_555 1_555
H11 C15 1_555 1_555
C16 C15 1_555 1_555
H12 C16 1_555 1_555
C17 C16 1_555 1_555
H13 C17 1_555 1_555
C18 C13 1_555 1_555
C19 C18 1_555 1_555
H14 C19 1_555 1_555
C20 C19 1_555 1_555
C21 C20 1_555 1_555
C22 C20 1_555 1_555
O1 C10 1_555 1_555
O2 C12 1_555 1_555
F1 Sb1 1_555 1_555
F2 Sb1 1_555 1_555
F3 Sb1 1_555 1_555
F4 Sb1 1_555 1_555
F5 Sb1 1_555 1_555
F6 Sb1 1_555 1_555
Ag1_2 N3 1_555 1_555
Ag1A N4 1_555 1_555
N3_2 Ag1 1_555 1_555
N4A Ag1 1_555 1_555
C5 C10 1_555 1_555
C11 O1 1_555 1_555
C13 O2 1_555 1_555
C17 C18 1_555 1_555

#END
