
#######################################################################
#
#                 Cambridge Crystallographic Data Centre
#                                CCDC 
#
#######################################################################
#
# If this CIF has been generated from an entry in the Cambridge 
# Structural Database, then it will include bibliographic, chemical, 
# crystal, experimental, refinement or atomic coordinate data resulting 
# from the CCDC's data processing and validation procedures.
#
#######################################################################

data_UDESAZ
_symmetry_cell_setting           monoclinic
_symmetry_space_group_name_H-M   'P 21/c'
_symmetry_Int_Tables_number      14
_space_group_name_Hall           '-P 2ybc'
loop_
_symmetry_equiv_pos_site_id
_symmetry_equiv_pos_as_xyz
1 x,y,z
2 -x,1/2+y,1/2-z
3 -x,-y,-z
4 x,1/2-y,1/2+z
_cell_length_a                   16.288(5)
_cell_length_b                   10.715(5)
_cell_length_c                   21.808(5)
_cell_angle_alpha                90
_cell_angle_beta                 107.542(5)
_cell_angle_gamma                90
_cell_volume                     3629.07
loop_
_atom_site_label
_atom_site_type_symbol
_atom_site_fract_x
_atom_site_fract_y
_atom_site_fract_z
Co1 Co 0.74061(3) 0.12820(4) 0.75172(2)
Ni1 Ni 0.81931(3) -0.12086(4) 0.80862(2)
Ni2 Ni 0.63496(3) -0.05861(4) 0.66249(2)
C1 C 0.3447(2) -0.1499(3) 0.69034(18)
O1 O 0.66215(15) 0.1235(2) 0.65843(11)
O2 O 0.78666(16) -0.0504(2) 0.71822(11)
O3 O 0.81151(16) 0.0539(2) 0.83607(11)
O4 O 0.65195(18) -0.0151(2) 0.75376(12)
N1 N 0.6440(2) -0.0881(3) 0.57340(16)
N2 N 0.8167(2) -0.1808(3) 0.89572(15)
N3 N 0.3164(2) -0.2278(3) 0.71322(15)
N4 N 1.1648(2) -0.2572(3) 0.76129(15)
N5 N 0.8134(2) -0.2932(3) 0.76823(16)
N6 N 0.5016(2) -0.0351(3) 0.63456(16)
N7 N 0.61268(19) -0.2390(3) 0.68324(16)
N8 N 0.3690(2) -0.0524(3) 0.66405(19)
C2 C 0.8340(2) -0.0849(3) 0.68074(17)
C3 C 0.6640(2) 0.1328(4) 0.54906(18)
C4 C 0.6696(2) 0.1884(3) 0.60875(17)
C5 C 0.8640(2) 0.2248(4) 0.90531(18)
H1 H 0.8509 0.2793 0.8705
N9 N 1.0824(3) -0.1003(3) 0.7988(2)
C6 C 0.5746(2) -0.1835(3) 0.78016(18)
C7 C 0.5801(3) -0.3010(4) 0.5696(2)
H2 H 0.5253 -0.2592 0.5633
H3 H 0.5694 -0.3754 0.5430
C8 C 0.8573(3) 0.0006(4) 0.64037(18)
H4 H 0.8414 0.0839 0.6410
C9 C 1.1220(2) -0.1890(4) 0.77856(19)
C10 C 0.8467(2) 0.0974(3) 0.89468(17)
C11 C 0.6847(2) 0.3172(4) 0.61469(19)
H5 H 0.6859 0.3571 0.6528
N10 N 0.9494(2) -0.1144(3) 0.82541(15)
C12 C 0.6105(2) -0.0024(4) 0.84786(17)
H6 H 0.6372 0.0749 0.8576
C13 C 0.8655(2) 0.0171(4) 0.94939(17)
C14 C 0.8607(3) -0.2102(4) 0.68009(19)
C15 C 0.6138(2) -0.0643(3) 0.79300(17)
C16 C 0.8408(3) -0.3066(4) 0.7200(2)
H7 H 0.8492 -0.3884 0.7089
C17 C 0.4407(3) -0.0495(3) 0.64986(18)
C18 C 0.5316(2) -0.2295(4) 0.8221(2)
H8 H 0.5039 -0.3062 0.8130
C19 C 0.8429(3) -0.1123(4) 0.9458(2)
H9 H 0.8478 -0.1514 0.9848
C20 C 0.9205(3) 0.1943(4) 1.0192(2)
H10 H 0.9455 0.2264 1.0603
C21 C 0.8327(3) -0.4038(4) 0.8708(2)
H11 H 0.8937 -0.3855 0.8815
H12 H 0.8269 -0.4863 0.8873
C22 C 0.5687(3) -0.0522(4) 0.88842(19)
H13 H 0.5676 -0.0079 0.9249
C23 C 0.6976(3) 0.3856(4) 0.5651(2)
H14 H 0.7088 0.4706 0.5706
C24 C 0.9032(3) 0.0696(4) 1.0101(2)
H15 H 0.9172 0.0174 1.0459
C25 C 0.5283(3) -0.1668(4) 0.8758(2)
H16 H 0.4998 -0.2003 0.9031
C26 C 0.9025(3) -0.0354(5) 0.6004(2)
H17 H 0.9171 0.0234 0.5741
C27 C 0.6389(3) -0.2156(4) 0.5471(2)
H18 H 0.6963 -0.2515 0.5594
H19 H 0.6188 -0.2111 0.5005
C28 C 0.7915(3) -0.3094(4) 0.9045(2)
H20 H 0.7294 -0.3167 0.8878
H21 H 0.8082 -0.3284 0.9501
C29 C 0.6772(3) 0.2068(5) 0.5000(2)
H22 H 0.6741 0.1699 0.4608
C30 C 0.9001(3) 0.2707(4) 0.96658(19)
H23 H 0.9109 0.3558 0.9722
C31 C 0.6145(3) -0.3394(4) 0.6385(2)
H24 H 0.5808 -0.4090 0.6462
H25 H 0.6734 -0.3678 0.6469
C32 C 0.7948(3) -0.4058(4) 0.7986(2)
H26 H 0.8174 -0.4772 0.7816
H27 H 0.7328 -0.4159 0.7876
C33 C 0.5814(2) -0.2647(4) 0.7289(2)
H28 H 0.5605 -0.3454 0.7292
C34 C 0.9068(3) -0.2456(5) 0.6383(2)
H29 H 0.9238 -0.3283 0.6372
C35 C 0.6943(3) 0.3303(5) 0.5077(2)
H30 H 0.7036 0.3771 0.4745
C36 C 0.9273(3) -0.1584(5) 0.5983(2)
H31 H 0.9576 -0.1824 0.5703
C37 C 1.0110(3) -0.1144(3) 0.81113(18)
C38 C 0.6517(3) -0.0005(4) 0.53618(19)
H32 H 0.6493 -0.0250 0.4948
Co1A Co 0.25939(3) -0.37180(4) 0.74828(2)
Co1A_2 Co 1.25939(3) -0.37180(4) 0.74828(2)
N3A N 0.6836(2) 0.2722(3) 0.78678(15)
N4A N 0.8352(2) 0.2428(3) 0.73871(15)
loop_
_geom_bond_atom_site_label_1
_geom_bond_atom_site_label_2
_geom_bond_site_symmetry_1
_geom_bond_site_symmetry_2
Co1 O1 1_555 1_555
Ni1 O2 1_555 1_555
Ni2 O1 1_555 1_555
C1 N3 1_555 1_555
O1 C4 1_555 1_555
O2 Co1 1_555 1_555
O3 Co1 1_555 1_555
O4 Co1 1_555 1_555
N1 Ni2 1_555 1_555
N2 Ni1 1_555 1_555
N3 Co1A 1_555 1_555
N4 C9 1_555 1_555
N5 Ni1 1_555 1_555
N6 Ni2 1_555 1_555
N7 Ni2 1_555 1_555
N8 C1 1_555 1_555
C2 O2 1_555 1_555
C3 C4 1_555 1_555
C4 C11 1_555 1_555
C5 H1 1_555 1_555
N9 C9 1_555 1_555
C6 C15 1_555 1_555
C7 H2 1_555 1_555
H3 C7 1_555 1_555
C8 C2 1_555 1_555
H4 C8 1_555 1_555
C10 O3 1_555 1_555
C11 H5 1_555 1_555
N10 Ni1 1_555 1_555
C12 H6 1_555 1_555
C13 C10 1_555 1_555
C14 C2 1_555 1_555
C15 O4 1_555 1_555
C16 N5 1_555 1_555
H7 C16 1_555 1_555
C17 N6 1_555 1_555
C18 C6 1_555 1_555
H8 C18 1_555 1_555
C19 N2 1_555 1_555
H9 C19 1_555 1_555
C20 H10 1_555 1_555
C21 H11 1_555 1_555
H12 C21 1_555 1_555
C22 C12 1_555 1_555
H13 C22 1_555 1_555
C23 C11 1_555 1_555
H14 C23 1_555 1_555
C24 C13 1_555 1_555
H15 C24 1_555 1_555
C25 C18 1_555 1_555
H16 C25 1_555 1_555
C26 C8 1_555 1_555
H17 C26 1_555 1_555
C27 N1 1_555 1_555
H18 C27 1_555 1_555
H19 C27 1_555 1_555
C28 N2 1_555 1_555
H20 C28 1_555 1_555
H21 C28 1_555 1_555
C29 C3 1_555 1_555
H22 C29 1_555 1_555
C30 C5 1_555 1_555
H23 C30 1_555 1_555
C31 N7 1_555 1_555
H24 C31 1_555 1_555
H25 C31 1_555 1_555
C32 N5 1_555 1_555
H26 C32 1_555 1_555
H27 C32 1_555 1_555
C33 N7 1_555 1_555
H28 C33 1_555 1_555
C34 C14 1_555 1_555
H29 C34 1_555 1_555
C35 C23 1_555 1_555
H30 C35 1_555 1_555
C36 C26 1_555 1_555
H31 C36 1_555 1_555
C37 N9 1_555 1_555
C38 N1 1_555 1_555
H32 C38 1_555 1_555
Co1A_2 N4 1_555 1_555
N3A Co1 1_555 1_555
N4A Co1 1_555 1_555
Ni1 O3 1_555 1_555
Ni2 O2 1_555 1_555
Ni2 O4 1_555 1_555
N8 C17 1_555 1_555
C3 C38 1_555 1_555
C5 C10 1_555 1_555
C6 C33 1_555 1_555
C7 C27 1_555 1_555
C7 C31 1_555 1_555
N10 C37 1_555 1_555
C12 C15 1_555 1_555
C13 C19 1_555 1_555
C14 C16 1_555 1_555
C20 C24 1_555 1_555
C20 C30 1_555 1_555
C21 C28 1_555 1_555
C21 C32 1_555 1_555
C22 C25 1_555 1_555
C29 C35 1_555 1_555
C34 C36 1_555 1_555

#END
