
#######################################################################
#
#                 Cambridge Crystallographic Data Centre
#                                CCDC 
#
#######################################################################
#
# If this CIF has been generated from an entry in the Cambridge 
# Structural Database, then it will include bibliographic, chemical, 
# crystal, experimental, refinement or atomic coordinate data resulting 
# from the CCDC's data processing and validation procedures.
#
#######################################################################

data_UDESIG
_symmetry_cell_setting           monoclinic
_symmetry_space_group_name_H-M   'P 21/n'
_symmetry_Int_Tables_number      14
_space_group_name_Hall           '-P 2yn'
loop_
_symmetry_equiv_pos_site_id
_symmetry_equiv_pos_as_xyz
1 x,y,z
2 1/2-x,1/2+y,1/2-z
3 -x,-y,-z
4 1/2+x,1/2-y,1/2+z
_cell_length_a                   4.525(1)
_cell_length_b                   10.777(2)
_cell_length_c                   19.834(4)
_cell_angle_alpha                90
_cell_angle_beta                 90.47(2)
_cell_angle_gamma                90
_cell_volume                     967.191
loop_
_atom_site_label
_atom_site_type_symbol
_atom_site_fract_x
_atom_site_fract_y
_atom_site_fract_z
Rb1 Rb -0.41920(11) 0.36365(5) 0.86823(3)
O1 O -0.1139(8) 0.3771(3) 0.71542(18)
H1 H -0.2026 0.4445 0.6942
O2 O 0.1349(9) 0.2110(4) 0.79769(19)
O3 O 0.0290(9) 0.0458(3) 0.74256(19)
O4 O 0.4495(8) 0.0381(3) 0.64457(18)
O5 O 0.8207(8) 0.0948(4) 0.5395(2)
O6 O 0.5600(9) 0.1901(3) 0.46466(18)
O7 O 0.1631(9) 0.5748(3) 0.5490(2)
O8 O -0.1308(9) 0.5646(3) 0.6339(2)
C1 C 0.0734(10) 0.3317(4) 0.6710(2)
C2 C 0.1875(10) 0.2153(4) 0.6818(2)
C3 C 0.3687(10) 0.1476(4) 0.6356(2)
C4 C 0.4397(10) 0.2190(4) 0.5756(2)
C5 C 0.3359(10) 0.3373(4) 0.5639(3)
H2 H 0.3877 0.3792 0.5247
C6 C 0.1529(11) 0.3941(4) 0.6110(3)
N1 N 0.1091(9) 0.1537(4) 0.7440(2)
N2 N 0.6185(9) 0.1643(4) 0.5237(2)
N3 N 0.0564(10) 0.5174(4) 0.5971(3)
Rb1_2 Rb 0.58080(11) 0.36365(5) 0.86823(3)
Rb1A Rb -0.08080(11) -0.13635(5) 0.63177(3)
Rb1A_2 Rb 0.91920(11) -0.13635(5) 0.63177(3)
Rb1C Rb 0.08080(11) 0.13635(5) 0.36823(3)
Rb1C_2 Rb 1.08080(11) 0.13635(5) 0.36823(3)
Rb1A_3 Rb -0.08080(11) 0.86365(5) 0.63177(3)
O2_2 O -0.8651(9) 0.2110(4) 0.79769(19)
O3A O -0.5290(9) 0.5458(3) 0.75744(19)
O4A O -0.9495(8) 0.5381(3) 0.85543(18)
O4A_2 O 0.0505(8) 0.5381(3) 0.85543(18)
O5A O -0.3207(8) 0.5948(4) 0.9605(2)
O6C O -0.9400(9) 0.3099(3) 0.96466(18)
O6C_2 O 0.0600(9) 0.3099(3) 0.96466(18)
O8A O -0.3692(9) 0.0646(3) 0.8661(2)
loop_
_geom_bond_atom_site_label_1
_geom_bond_atom_site_label_2
_geom_bond_site_symmetry_1
_geom_bond_site_symmetry_2
Rb1 O1 1_555 1_555
O1 H1 1_555 1_555
O2 Rb1 1_555 1_555
O3 N1 1_555 1_555
O4 C3 1_555 1_555
O5 N2 1_555 1_555
O6 N2 1_555 1_555
O7 N3 1_555 1_555
O8 N3 1_555 1_555
C1 O1 1_555 1_555
C2 C1 1_555 1_555
C3 C2 1_555 1_555
C4 C3 1_555 1_555
C5 C4 1_555 1_555
H2 C5 1_555 1_555
C6 C1 1_555 1_555
N1 O2 1_555 1_555
N2 C4 1_555 1_555
N3 C6 1_555 1_555
Rb1_2 O2 1_555 1_555
Rb1A O3 1_555 1_555
Rb1A_2 O4 1_555 1_555
Rb1C O6 1_555 1_555
Rb1C_2 O6 1_555 1_555
Rb1A_3 O8 1_555 1_555
O2_2 Rb1 1_555 1_555
O3A Rb1 1_555 1_555
O4A Rb1 1_555 1_555
O4A_2 Rb1 1_555 1_555
O5A Rb1 1_555 1_555
O6C Rb1 1_555 1_555
O6C_2 Rb1 1_555 1_555
O8A Rb1 1_555 1_555
O4 Rb1A 1_555 1_555
O5 Rb1A_2 1_555 1_555
C2 N1 1_555 1_555
C5 C6 1_555 1_555
Rb1_2 O4A_2 1_555 1_555
Rb1_2 O6C_2 1_555 1_555

#END
