
#######################################################################
#
#                 Cambridge Crystallographic Data Centre
#                                CCDC 
#
#######################################################################
#
# If this CIF has been generated from an entry in the Cambridge 
# Structural Database, then it will include bibliographic, chemical, 
# crystal, experimental, refinement or atomic coordinate data resulting 
# from the CCDC's data processing and validation procedures.
#
#######################################################################

data_UDETUT
_symmetry_cell_setting           triclinic
_symmetry_space_group_name_H-M   'P -1'
_symmetry_Int_Tables_number      2
_space_group_name_Hall           '-P 1'
loop_
_symmetry_equiv_pos_site_id
_symmetry_equiv_pos_as_xyz
1 x,y,z
2 -x,-y,-z
_cell_length_a                   10.317(2)
_cell_length_b                   11.328(3)
_cell_length_c                   13.649(3)
_cell_angle_alpha                103.477(5)
_cell_angle_beta                 99.826(5)
_cell_angle_gamma                107.327(5)
_cell_volume                     1430.48
loop_
_atom_site_label
_atom_site_type_symbol
_atom_site_fract_x
_atom_site_fract_y
_atom_site_fract_z
Ru1 Ru 0.0000 0.5000 0.5000
Ru2 Ru 1.0000 1.0000 1.0000
Co1 Co 0.50105(8) 0.78506(8) 0.73666(7)
O1 O -0.0502(5) 0.6271(5) 0.4348(4)
O2 O 0.0792(4) 0.4418(4) 0.3811(4)
O3 O 0.5342(7) 0.5975(6) 0.7215(6)
O4 O 0.4364(5) 0.6690(6) 0.8405(5)
O5 O 0.5071(11) 0.5091(8) 0.8486(8)
O6 O 0.9409(5) 1.0311(5) 1.1341(4)
O7 O 1.0247(5) 0.8365(5) 1.0176(4)
N1 N 0.3082(5) 0.6931(6) 0.6313(5)
N2 N 0.5938(5) 0.8842(6) 0.6366(4)
N3 N 0.4648(5) 0.9604(5) 0.7814(4)
N4 N 0.6902(5) 0.8600(6) 0.8478(5)
N5 N 0.4906(9) 0.5882(8) 0.8035(8)
C1 C -0.1716(11) 0.6765(10) 0.2984(8)
H1 H -0.2644 0.6428 0.3073
H2 H -0.1771 0.6674 0.2260
H3 H -0.1286 0.7665 0.3382
C2 C -0.0848(8) 0.6024(8) 0.3357(7)
C3 C -0.0491(8) 0.5158(8) 0.2657(7)
H4 H -0.0885 0.4998 0.1953
C4 C 0.0404(7) 0.4501(7) 0.2908(6)
C5 C 0.0964(9) 0.3847(9) 0.2095(6)
H5 H 0.1677 0.3571 0.2417
H6 H 0.1362 0.4440 0.1734
H7 H 0.0215 0.3106 0.1608
C6 C 0.1981(7) 0.6320(6) 0.5825(5)
C7 C 0.6533(9) 0.7071(9) 0.5430(7)
H8 H 0.6710 0.6879 0.6079
H9 H 0.7251 0.6983 0.5085
H10 H 0.5632 0.6479 0.4994
C8 C 0.6543(7) 0.8440(8) 0.5640(6)
C9 C 0.7186(8) 0.9273(9) 0.5101(7)
H11 H 0.7626 0.8976 0.4606
C10 C 0.7176(8) 1.0480(10) 0.5288(7)
H12 H 0.7597 1.1009 0.4917
C11 C 0.6538(7) 1.0953(8) 0.6035(6)
C12 C 0.6463(8) 1.2217(8) 0.6297(7)
H13 H 0.6879 1.2798 0.5963
C13 C 0.5805(9) 1.2595(8) 0.7018(7)
H14 H 0.5756 1.3422 0.7159
C14 C 0.5178(7) 1.1740(7) 0.7572(6)
C15 C 0.4501(8) 1.2091(8) 0.8327(7)
H15 H 0.4440 1.2913 0.8502
C16 C 0.3924(8) 1.1208(7) 0.8812(7)
H16 H 0.3481 1.1437 0.9327
C17 C 0.3997(7) 0.9970(7) 0.8537(6)
C18 C 0.3335(8) 0.8990(7) 0.9044(6)
H17 H 0.2526 0.8321 0.8547
H18 H 0.3055 0.9407 0.9625
H19 H 0.4001 0.8615 0.9283
C19 C 0.5237(6) 1.0484(7) 0.7329(5)
C20 C 0.5920(6) 1.0078(7) 0.6562(5)
C21 C 0.7968(8) 0.9043(7) 0.9061(6)
C22 C 0.9535(9) 1.0492(10) 1.3092(7)
H20 H 0.9914 1.1420 1.3264
H21 H 0.9979 1.0223 1.3633
H22 H 0.8542 1.0216 1.3026
C23 C 0.9803(7) 0.9893(8) 1.2076(6)
C24 C 1.0401(8) 0.8930(8) 1.1987(6)
H23 H 1.0726 0.8754 1.2595
C25 C 1.0552(7) 0.8212(8) 1.1065(6)
C26 C 1.1022(10) 0.7070(9) 1.1047(8)
H24 H 1.0216 0.6284 1.0797
H25 H 1.1514 0.7159 1.1740
H26 H 1.1636 0.7040 1.0594
Ru2_2 Ru -1.0000 0.0000 0.0000
Co1A Co -0.50105(8) 0.21494(8) 0.26334(7)
O1A O 0.0502(5) 0.3729(5) 0.5652(4)
O2A O -0.0792(4) 0.5582(4) 0.6189(4)
O3A O -0.5342(7) 0.4025(6) 0.2785(6)
O4A O -0.4364(5) 0.3310(6) 0.1595(5)
O5A O -0.5071(11) 0.4909(8) 0.1514(8)
O6A O 1.0591(5) 0.9689(5) 0.8659(4)
O7A O 0.9753(5) 1.1635(5) 0.9824(4)
N1A N -0.3082(5) 0.3069(6) 0.3687(5)
N2A N -0.5938(5) 0.1158(6) 0.3634(4)
N3A N -0.4648(5) 0.0396(5) 0.2186(4)
N4A N -0.6902(5) 0.1400(6) 0.1522(5)
N5A N -0.4906(9) 0.4118(8) 0.1965(8)
C1A C 0.1716(11) 0.3235(10) 0.7016(8)
H1A H 0.2644 0.3572 0.6927
H2A H 0.1771 0.3326 0.7740
H3A H 0.1286 0.2335 0.6618
C2A C 0.0848(8) 0.3976(8) 0.6643(7)
C3A C 0.0491(8) 0.4842(8) 0.7343(7)
H4A H 0.0885 0.5002 0.8047
C4A C -0.0404(7) 0.5499(7) 0.7092(6)
C5A C -0.0964(9) 0.6153(9) 0.7905(6)
H5A H -0.1677 0.6429 0.7583
H6A H -0.1362 0.5560 0.8266
H7A H -0.0215 0.6894 0.8392
C6A C -0.1981(7) 0.3680(6) 0.4175(5)
C7A C -0.6533(9) 0.2929(9) 0.4570(7)
H8A H -0.6710 0.3121 0.3921
H9A H -0.7251 0.3017 0.4915
H10A H -0.5632 0.3521 0.5006
C8A C -0.6543(7) 0.1560(8) 0.4360(6)
C9A C -0.7186(8) 0.0727(9) 0.4899(7)
H11A H -0.7626 0.1024 0.5394
C10A C -0.7176(8) -0.0480(10) 0.4712(7)
H12A H -0.7597 -0.1009 0.5083
C11A C -0.6538(7) -0.0953(8) 0.3965(6)
C12A C -0.6463(8) -0.2217(8) 0.3703(7)
H13A H -0.6879 -0.2798 0.4037
C13A C -0.5805(9) -0.2595(8) 0.2982(7)
H14A H -0.5756 -0.3422 0.2841
C14A C -0.5178(7) -0.1740(7) 0.2428(6)
C15A C -0.4501(8) -0.2091(8) 0.1673(7)
H15A H -0.4440 -0.2913 0.1498
C16A C -0.3924(8) -0.1208(7) 0.1188(7)
H16A H -0.3481 -0.1437 0.0673
C17A C -0.3997(7) 0.0030(7) 0.1463(6)
C18A C -0.3335(8) 0.1010(7) 0.0956(6)
H17A H -0.2526 0.1679 0.1453
H18A H -0.3055 0.0593 0.0375
H19A H -0.4001 0.1385 0.0717
C19A C -0.5237(6) -0.0484(7) 0.2671(5)
C20A C -0.5920(6) -0.0078(7) 0.3438(5)
C21A C -0.7968(8) 0.0957(7) 0.0939(6)
C21A_2 C 1.2032(8) 1.0957(7) 1.0939(6)
C22A C 1.0465(9) 0.9508(10) 0.6908(7)
H20A H 1.0086 0.8580 0.6736
H21A H 1.0021 0.9777 0.6367
H22A H 1.1458 0.9784 0.6974
C23A C 1.0197(7) 1.0107(8) 0.7924(6)
C24A C 0.9599(8) 1.1070(8) 0.8013(6)
H23A H 0.9274 1.1246 0.7405
C25A C 0.9448(7) 1.1788(8) 0.8935(6)
C26A C 0.8978(10) 1.2930(9) 0.8953(8)
H24A H 0.9784 1.3716 0.9203
H25A H 0.8486 1.2841 0.8260
H26A H 0.8364 1.2960 0.9406
O8 O 0.7242(17) 0.505(2) 1.0178(12)
loop_
_geom_bond_atom_site_label_1
_geom_bond_atom_site_label_2
_geom_bond_site_symmetry_1
_geom_bond_site_symmetry_2
Ru1 O1 1_555 1_555
Ru2 O6 1_555 1_555
Co1 O3 1_555 1_555
O1 C2 1_555 1_555
O2 Ru1 1_555 1_555
O3 N5 1_555 1_555
O4 Co1 1_555 1_555
O5 N5 1_555 1_555
O6 C23 1_555 1_555
O7 Ru2 1_555 1_555
N1 Co1 1_555 1_555
N2 Co1 1_555 1_555
N3 Co1 1_555 1_555
N4 Co1 1_555 1_555
N5 O4 1_555 1_555
C1 H1 1_555 1_555
H2 C1 1_555 1_555
H3 C1 1_555 1_555
C2 C1 1_555 1_555
C3 C2 1_555 1_555
H4 C3 1_555 1_555
C4 O2 1_555 1_555
C5 C4 1_555 1_555
H5 C5 1_555 1_555
H6 C5 1_555 1_555
H7 C5 1_555 1_555
C6 Ru1 1_555 1_555
C7 H8 1_555 1_555
H9 C7 1_555 1_555
H10 C7 1_555 1_555
C8 N2 1_555 1_555
C9 C8 1_555 1_555
H11 C9 1_555 1_555
C10 C9 1_555 1_555
H12 C10 1_555 1_555
C11 C10 1_555 1_555
C12 C11 1_555 1_555
H13 C12 1_555 1_555
C13 C12 1_555 1_555
H14 C13 1_555 1_555
C14 C13 1_555 1_555
C15 C14 1_555 1_555
H15 C15 1_555 1_555
C16 C15 1_555 1_555
H16 C16 1_555 1_555
C17 N3 1_555 1_555
C18 C17 1_555 1_555
H17 C18 1_555 1_555
H18 C18 1_555 1_555
H19 C18 1_555 1_555
C19 N3 1_555 1_555
C20 N2 1_555 1_555
C21 Ru2 1_555 1_555
C22 H20 1_555 1_555
H21 C22 1_555 1_555
H22 C22 1_555 1_555
C23 C22 1_555 1_555
C24 C23 1_555 1_555
H23 C24 1_555 1_555
C25 O7 1_555 1_555
C26 C25 1_555 1_555
H24 C26 1_555 1_555
H25 C26 1_555 1_555
H26 C26 1_555 1_555
Ru2_2 C21A 1_555 1_555
Co1A O3A 1_555 1_555
O1A Ru1 1_555 1_555
O2A Ru1 1_555 1_555
O3A N5A 1_555 1_555
O4A Co1A 1_555 1_555
O5A N5A 1_555 1_555
O6A Ru2 1_555 1_555
O7A Ru2 1_555 1_555
N1A Co1A 1_555 1_555
N2A Co1A 1_555 1_555
N3A Co1A 1_555 1_555
N4A Co1A 1_555 1_555
N5A O4A 1_555 1_555
C1A H1A 1_555 1_555
H2A C1A 1_555 1_555
H3A C1A 1_555 1_555
C2A O1A 1_555 1_555
C3A C2A 1_555 1_555
H4A C3A 1_555 1_555
C4A O2A 1_555 1_555
C5A C4A 1_555 1_555
H5A C5A 1_555 1_555
H6A C5A 1_555 1_555
H7A C5A 1_555 1_555
C6A Ru1 1_555 1_555
C7A H8A 1_555 1_555
H9A C7A 1_555 1_555
H10A C7A 1_555 1_555
C8A N2A 1_555 1_555
C9A C8A 1_555 1_555
H11A C9A 1_555 1_555
C10A C9A 1_555 1_555
H12A C10A 1_555 1_555
C11A C10A 1_555 1_555
C12A C11A 1_555 1_555
H13A C12A 1_555 1_555
C13A C12A 1_555 1_555
H14A C13A 1_555 1_555
C14A C13A 1_555 1_555
C15A C14A 1_555 1_555
H15A C15A 1_555 1_555
C16A C15A 1_555 1_555
H16A C16A 1_555 1_555
C17A N3A 1_555 1_555
C18A C17A 1_555 1_555
H17A C18A 1_555 1_555
H18A C18A 1_555 1_555
H19A C18A 1_555 1_555
C19A N3A 1_555 1_555
C20A N2A 1_555 1_555
C21A N4A 1_555 1_555
C21A_2 Ru2 1_555 1_555
C22A H20A 1_555 1_555
H21A C22A 1_555 1_555
H22A C22A 1_555 1_555
C23A O6A 1_555 1_555
C24A C23A 1_555 1_555
H23A C24A 1_555 1_555
C25A O7A 1_555 1_555
C26A C25A 1_555 1_555
H24A C26A 1_555 1_555
H25A C26A 1_555 1_555
H26A C26A 1_555 1_555
N1 C6 1_555 1_555
N4 C21 1_555 1_555
C3 C4 1_555 1_555
C7 C8 1_555 1_555
C11 C20 1_555 1_555
C14 C19 1_555 1_555
C16 C17 1_555 1_555
C19 C20 1_555 1_555
C24 C25 1_555 1_555
N1A C6A 1_555 1_555
C1A C2A 1_555 1_555
C3A C4A 1_555 1_555
C7A C8A 1_555 1_555
C11A C20A 1_555 1_555
C14A C19A 1_555 1_555
C16A C17A 1_555 1_555
C19A C20A 1_555 1_555
C22A C23A 1_555 1_555
C24A C25A 1_555 1_555

#END
