
#######################################################################
#
#                 Cambridge Crystallographic Data Centre
#                                CCDC 
#
#######################################################################
#
# If this CIF has been generated from an entry in the Cambridge 
# Structural Database, then it will include bibliographic, chemical, 
# crystal, experimental, refinement or atomic coordinate data resulting 
# from the CCDC's data processing and validation procedures.
#
#######################################################################

data_UDETIH
_symmetry_cell_setting           monoclinic
_symmetry_space_group_name_H-M   'P 21/c'
_symmetry_Int_Tables_number      14
_space_group_name_Hall           '-P 2ybc'
loop_
_symmetry_equiv_pos_site_id
_symmetry_equiv_pos_as_xyz
1 x,y,z
2 -x,1/2+y,1/2-z
3 -x,-y,-z
4 x,1/2-y,1/2+z
_cell_length_a                   5.9774(13)
_cell_length_b                   21.475(5)
_cell_length_c                   12.971(3)
_cell_angle_alpha                90
_cell_angle_beta                 100.065(4)
_cell_angle_gamma                90
_cell_volume                     1639.39
loop_
_atom_site_label
_atom_site_type_symbol
_atom_site_fract_x
_atom_site_fract_y
_atom_site_fract_z
Zn1 Zn 0.0000 0.5000 0.5000
F1 F 0.7076(4) 0.75105(10) 0.6516(2)
O1 O -0.2142(4) 0.49824(10) 0.60795(17)
O2 O -0.3625(5) 0.51723(14) 0.7486(2)
O3 O 0.1517(4) 0.57797(10) 0.57774(17)
N1 N 0.0052(5) 0.67293(13) 0.8330(2)
N2 N 0.2756(5) 0.74807(12) 0.8145(2)
N3 N 0.5374(5) 0.82610(12) 0.8034(2)
N4 N 0.7433(4) 0.94161(12) 0.8932(2)
H1 H 0.6321 0.9691 0.8615
C1 C -0.2265(5) 0.52935(15) 0.6893(2)
C2 C -0.0719(5) 0.58496(14) 0.7155(2)
C3 C 0.1031(5) 0.60358(14) 0.6583(2)
C4 C 0.2285(5) 0.65887(14) 0.6987(2)
C5 C 0.1764(5) 0.69423(14) 0.7819(2)
C6 C -0.1074(6) 0.62020(15) 0.7993(3)
H2 H -0.2209 0.6063 0.8368
C7 C 0.4153(5) 0.68027(15) 0.6557(3)
H3 H 0.4667 0.6571 0.6019
C8 C 0.5204(5) 0.73328(15) 0.6907(3)
C9 C 0.4434(5) 0.77067(15) 0.7688(2)
C10 C -0.0447(6) 0.70476(17) 0.9272(3)
H4 H -0.2062 0.6981 0.9323
H5 H -0.0204 0.7501 0.9205
C11 C 0.1017(8) 0.6816(3) 1.0246(3)
H6 H 0.0698 0.6374 1.0344
H7 H 0.0697 0.7054 1.0848
H8 H 0.2620 0.6867 1.0188
C12 C 0.4429(6) 0.85961(16) 0.8846(3)
H9 H 0.3777 0.8295 0.9289
H10 H 0.3196 0.8876 0.8513
C13 C 0.6272(6) 0.89745(15) 0.9519(2)
H11 H 0.5586 0.9208 1.0044
H12 H 0.7412 0.8685 0.9904
C14 C 0.6390(7) 0.87038(16) 0.7382(3)
H13 H 0.5202 0.8986 0.7016
H14 H 0.7058 0.8474 0.6847
C15 C 0.8231(6) 0.90826(16) 0.8071(3)
H15 H 0.9482 0.8799 0.8373
H16 H 0.8856 0.9390 0.7628
Zn1C Zn 1.0000 1.0000 1.0000
Zn1C_2 Zn -1.0000 0.0000 0.0000
F1B F -0.7076(4) 0.24895(10) 0.3484(2)
O1B O 0.2142(4) 0.50176(10) 0.39205(17)
O2B O 0.3625(5) 0.48277(14) 0.2514(2)
O3B O -0.1517(4) 0.42203(10) 0.42226(17)
N1B N -0.0052(5) 0.32707(13) 0.1670(2)
N2B N -0.2756(5) 0.25193(12) 0.1855(2)
N3B N -0.5374(5) 0.17390(12) 0.1966(2)
N4B N -0.7433(4) 0.05839(12) 0.1068(2)
N4C N -0.2567(4) 0.55839(12) 0.3932(2)
N4A N 0.2567(4) 0.44161(12) 0.6068(2)
H1B H -0.6321 0.0309 0.1385
H1C H -0.3679 0.5309 0.3615
H1A H 0.3679 0.4691 0.6385
C1B C 0.2265(5) 0.47065(15) 0.3107(2)
C2B C 0.0719(5) 0.41504(14) 0.2845(2)
C3B C -0.1031(5) 0.39642(14) 0.3417(2)
C4B C -0.2285(5) 0.34113(14) 0.3013(2)
C5B C -0.1764(5) 0.30577(14) 0.2181(2)
C6B C 0.1074(6) 0.37980(15) 0.2007(3)
H2B H 0.2209 0.3937 0.1632
C7B C -0.4153(5) 0.31973(15) 0.3443(3)
H3B H -0.4667 0.3429 0.3981
C8B C -0.5204(5) 0.26672(15) 0.3093(3)
C9B C -0.4434(5) 0.22933(15) 0.2312(2)
C10B C 0.0447(6) 0.29524(17) 0.0728(3)
H4B H 0.2062 0.3019 0.0677
H5B H 0.0204 0.2499 0.0795
C11B C -0.1017(8) 0.3184(3) -0.0246(3)
H6B H -0.0698 0.3626 -0.0344
H7B H -0.0697 0.2946 -0.0848
H8B H -0.2620 0.3133 -0.0188
C12B C -0.4429(6) 0.14039(16) 0.1154(3)
H9B H -0.3777 0.1705 0.0711
H10B H -0.3196 0.1124 0.1487
C13B C -0.6272(6) 0.10255(15) 0.0481(2)
H11B H -0.5586 0.0792 -0.0044
H12B H -0.7412 0.1315 0.0096
C14B C -0.6390(7) 0.12962(16) 0.2618(3)
H13B H -0.5202 0.1014 0.2984
H14B H -0.7058 0.1526 0.3153
C15B C -0.8231(6) 0.09174(16) 0.1929(3)
H15B H -0.9482 0.1201 0.1627
H16B H -0.8856 0.0610 0.2372
O4 O 0.446(2) 0.5637(6) 0.9195(10)
C16 C 0.638(3) 0.5232(9) 0.9544(16)
C17 C 0.855(3) 0.4848(8) 0.9625(15)
loop_
_geom_bond_atom_site_label_1
_geom_bond_atom_site_label_2
_geom_bond_site_symmetry_1
_geom_bond_site_symmetry_2
Zn1 O1 1_555 1_555
F1 C8 1_555 1_555
O1 C1 1_555 1_555
O2 C1 1_555 1_555
O3 Zn1 1_555 1_555
O4 C16 1_555 1_555
N1 C5 1_555 1_555
N2 C5 1_555 1_555
N3 C9 1_555 1_555
N4 H1 1_555 1_555
C1 C2 1_555 1_555
C2 C3 1_555 1_555
C3 O3 1_555 1_555
C4 C3 1_555 1_555
C5 C4 1_555 1_555
C6 N1 1_555 1_555
H2 C6 1_555 1_555
C7 C4 1_555 1_555
H3 C7 1_555 1_555
C8 C7 1_555 1_555
C9 N2 1_555 1_555
C10 N1 1_555 1_555
H4 C10 1_555 1_555
H5 C10 1_555 1_555
C11 C10 1_555 1_555
H6 C11 1_555 1_555
H7 C11 1_555 1_555
H8 C11 1_555 1_555
C12 N3 1_555 1_555
H9 C12 1_555 1_555
H10 C12 1_555 1_555
C13 N4 1_555 1_555
H11 C13 1_555 1_555
H12 C13 1_555 1_555
C14 N3 1_555 1_555
H13 C14 1_555 1_555
H14 C14 1_555 1_555
C15 N4 1_555 1_555
H15 C15 1_555 1_555
H16 C15 1_555 1_555
C16 C17 1_555 1_555
Zn1C N4 1_555 1_555
Zn1C_2 N4B 1_555 1_555
F1B C8B 1_555 1_555
O1B Zn1 1_555 1_555
O2B C1B 1_555 1_555
O3B Zn1 1_555 1_555
N1B C5B 1_555 1_555
N2B C5B 1_555 1_555
N3B C9B 1_555 1_555
N4B H1B 1_555 1_555
N4C Zn1 1_555 1_555
N4A Zn1 1_555 1_555
H1C N4C 1_555 1_555
H1A N4A 1_555 1_555
C1B O1B 1_555 1_555
C2B C1B 1_555 1_555
C3B O3B 1_555 1_555
C4B C3B 1_555 1_555
C5B C4B 1_555 1_555
C6B N1B 1_555 1_555
H2B C6B 1_555 1_555
C7B C4B 1_555 1_555
H3B C7B 1_555 1_555
C8B C7B 1_555 1_555
C9B N2B 1_555 1_555
C10B N1B 1_555 1_555
H4B C10B 1_555 1_555
H5B C10B 1_555 1_555
C11B C10B 1_555 1_555
H6B C11B 1_555 1_555
H7B C11B 1_555 1_555
H8B C11B 1_555 1_555
C12B N3B 1_555 1_555
H9B C12B 1_555 1_555
H10B C12B 1_555 1_555
C13B N4B 1_555 1_555
H11B C13B 1_555 1_555
H12B C13B 1_555 1_555
C14B N3B 1_555 1_555
H13B C14B 1_555 1_555
H14B C14B 1_555 1_555
C15B N4B 1_555 1_555
H15B C15B 1_555 1_555
H16B C15B 1_555 1_555
C2 C6 1_555 1_555
C8 C9 1_555 1_555
C12 C13 1_555 1_555
C14 C15 1_555 1_555
C2B C3B 1_555 1_555
C2B C6B 1_555 1_555
C8B C9B 1_555 1_555
C12B C13B 1_555 1_555
C14B C15B 1_555 1_555

#END
