
#######################################################################
#
#                 Cambridge Crystallographic Data Centre
#                                CCDC 
#
#######################################################################
#
# If this CIF has been generated from an entry in the Cambridge 
# Structural Database, then it will include bibliographic, chemical, 
# crystal, experimental, refinement or atomic coordinate data resulting 
# from the CCDC's data processing and validation procedures.
#
#######################################################################

data_UDEWEG
_symmetry_cell_setting           triclinic
_symmetry_space_group_name_H-M   'P -1'
_symmetry_Int_Tables_number      2
_space_group_name_Hall           '-P 1'
loop_
_symmetry_equiv_pos_site_id
_symmetry_equiv_pos_as_xyz
1 x,y,z
2 -x,-y,-z
_cell_length_a                   5.6309(3)
_cell_length_b                   10.5165(5)
_cell_length_c                   11.3974(5)
_cell_angle_alpha                76.3200(10)
_cell_angle_beta                 77.3500(10)
_cell_angle_gamma                88.0630(10)
_cell_volume                     639.744
loop_
_atom_site_label
_atom_site_type_symbol
_atom_site_fract_x
_atom_site_fract_y
_atom_site_fract_z
C1 C -0.553(2) 0.0820(11) 0.8425(11)
C2 C -0.760(2) 0.1504(13) 0.8738(11)
H1 H -0.8292 0.2015 0.8119
C3 C -0.869(2) 0.1440(13) 0.9987(12)
H2 H -1.0074 0.1918 1.0182
C4 C -0.773(2) 0.0686(12) 1.0918(11)
H3 H -0.8482 0.0641 1.1739
C5 C -0.442(2) 0.0030(11) 0.9378(10)
C6 C -0.225(2) 0.4059(11) 0.1372(11)
C7 C -0.371(2) 0.3485(12) 0.0829(12)
H4 H -0.5006 0.2946 0.1317
C8 C -0.326(2) 0.3704(11) -0.0471(11)
H5 H -0.4260 0.3312 -0.0839
C9 C -0.134(2) 0.4497(12) -0.1194(12)
H6 H -0.1069 0.4640 -0.2050
C10 C -0.023(2) 0.4902(11) 0.0669(10)
Eu1 Eu 0.13897(11) 0.16638(6) 0.47352(5)
H7 H 0.1221 0.4675 0.4986
H8 H 0.1739 0.3732 0.5954
O1 O 0.1322(19) 0.3823(9) 0.5297(11)
O2 O 0.1306(15) -0.0500(8) 0.5815(8)
O3 O -0.3659(18) 0.5090(9) 0.3267(9)
O4 O -0.0855(17) 0.3299(9) 0.3463(8)
O5 O -0.5058(16) 0.2881(8) 0.3427(8)
O6 O -0.1929(14) 0.1582(8) 0.6542(8)
O7 O -0.4101(15) -0.0452(7) 0.6725(8)
O8 O -0.6008(16) 0.1652(8) 0.6179(7)
S1 S -0.3014(5) 0.3824(3) 0.3006(3)
S2 S -0.4284(5) 0.0904(3) 0.6849(3)
H9 H 0.2307 -0.0830 0.6319
C1A C -0.447(2) -0.0820(11) 1.1575(11)
C2A C -0.240(2) -0.1504(13) 1.1262(11)
H1A H -0.1708 -0.2015 1.1881
C3A C -0.131(2) -0.1440(13) 1.0013(12)
H2A H 0.0074 -0.1918 0.9818
C4A C -0.227(2) -0.0686(12) 0.9082(11)
H3A H -0.1518 -0.0641 0.8261
C5A C -0.558(2) -0.0030(11) 1.0622(10)
C6A C 0.225(2) 0.5941(11) -0.1372(11)
C7A C 0.371(2) 0.6515(12) -0.0829(12)
H4A H 0.5006 0.7054 -0.1317
C8A C 0.326(2) 0.6296(11) 0.0471(11)
H5A H 0.4260 0.6688 0.0839
C9A C 0.134(2) 0.5503(12) 0.1194(12)
H6A H 0.1069 0.5360 0.2050
C10A C 0.023(2) 0.5098(11) -0.0669(10)
Eu1A Eu -0.13897(11) -0.16638(6) 0.52648(5)
Eu1_2 Eu -0.86103(11) 0.16638(6) 0.47352(5)
Eu1A_2 Eu -1.13897(11) -0.16638(6) 1.52648(5)
Eu1_3 Eu -0.86103(11) 0.16638(6) 1.47352(5)
Eu1A_3 Eu -0.13897(11) -0.16638(6) 1.52648(5)
Eu1A_4 Eu -0.13897(11) 0.83362(6) -0.47352(5)
Eu1A_5 Eu 0.86103(11) 0.83362(6) -0.47352(5)
H7A H -0.1221 -0.4675 0.5014
H8A H -0.1739 -0.3732 0.4046
O1A O -0.1322(19) -0.3823(9) 0.4703(11)
O2A O -0.1306(15) 0.0500(8) 0.4185(8)
O3A O 0.3659(18) 0.4910(9) -0.3267(9)
O4A O 0.0855(17) 0.6701(9) -0.3463(8)
O4A_2 O 0.0855(17) -0.3299(9) 0.6537(8)
O5A O 0.5058(16) 0.7119(8) -0.3427(8)
O5_2 O 0.4942(16) 0.2881(8) 0.3427(8)
O5A_2 O -0.4942(16) -0.2881(8) 0.6573(8)
O6A O -0.8071(14) -0.1582(8) 1.3458(8)
O6A_2 O 0.1929(14) -0.1582(8) 0.3458(8)
O7A O -0.5899(15) 0.0452(7) 1.3275(8)
O7A_2 O 0.4101(15) 0.0452(7) 0.3275(8)
O8A O -0.3992(16) -0.1652(8) 1.3821(7)
O8_2 O 0.3992(16) 0.1652(8) 0.6179(7)
O8A_2 O -0.3992(16) -0.1652(8) 0.3821(7)
S1A S 0.3014(5) 0.6176(3) -0.3006(3)
S2A S -0.5716(5) -0.0904(3) 1.3151(3)
H9A H -0.2307 0.0830 0.3681
loop_
_geom_bond_atom_site_label_1
_geom_bond_atom_site_label_2
_geom_bond_site_symmetry_1
_geom_bond_site_symmetry_2
C1 C2 1_555 1_555
C2 H1 1_555 1_555
C3 C2 1_555 1_555
H2 C3 1_555 1_555
C4 C3 1_555 1_555
H3 C4 1_555 1_555
C5 C1 1_555 1_555
C6 C7 1_555 1_555
C7 H4 1_555 1_555
C8 C7 1_555 1_555
H5 C8 1_555 1_555
C9 C8 1_555 1_555
H6 C9 1_555 1_555
C10 C6 1_555 1_555
Eu1 O1 1_555 1_555
H7 O1 1_555 1_555
H8 O1 1_555 1_555
O2 Eu1 1_555 1_555
O3 S1 1_555 1_555
O4 Eu1 1_555 1_555
O5 S1 1_555 1_555
O6 Eu1 1_555 1_555
O7 S2 1_555 1_555
O8 S2 1_555 1_555
S1 C6 1_555 1_555
S2 C1 1_555 1_555
H9 O2 1_555 1_555
C1A C2A 1_555 1_555
C2A H1A 1_555 1_555
C3A C2A 1_555 1_555
H2A C3A 1_555 1_555
C4A C5 1_555 1_555
H3A C4A 1_555 1_555
C5A C4 1_555 1_555
C6A C7A 1_555 1_555
C7A H4A 1_555 1_555
C8A C7A 1_555 1_555
H5A C8A 1_555 1_555
C9A C10 1_555 1_555
H6A C9A 1_555 1_555
C10A C9 1_555 1_555
Eu1A O2 1_555 1_555
Eu1_2 O5 1_555 1_555
Eu1A_2 O6A 1_555 1_555
Eu1_3 O7A 1_555 1_555
Eu1A_3 O8A 1_555 1_555
Eu1A_4 O4A 1_555 1_555
Eu1A_5 O5A 1_555 1_555
H7A O1A 1_555 1_555
H8A O1A 1_555 1_555
O1A Eu1A 1_555 1_555
O2A Eu1 1_555 1_555
O3A S1A 1_555 1_555
O4A S1A 1_555 1_555
O4A_2 Eu1A 1_555 1_555
O5A S1A 1_555 1_555
O5_2 Eu1 1_555 1_555
O5A_2 Eu1A 1_555 1_555
O6A S2A 1_555 1_555
O6A_2 Eu1A 1_555 1_555
O7A S2A 1_555 1_555
O7A_2 Eu1 1_555 1_555
O8A S2A 1_555 1_555
O8_2 Eu1 1_555 1_555
O8A_2 Eu1A 1_555 1_555
S1A C6A 1_555 1_555
S2A C1A 1_555 1_555
H9A O2A 1_555 1_555
C5 C5A 1_555 1_555
C10 C10A 1_555 1_555
O4 S1 1_555 1_555
O6 S2 1_555 1_555
O7 Eu1A 1_555 1_555
O8 Eu1_2 1_555 1_555
C1A C5A 1_555 1_555
C3A C4A 1_555 1_555
C6A C10A 1_555 1_555
C8A C9A 1_555 1_555
Eu1A O2A 1_555 1_555

#END
