
#######################################################################
#
#                 Cambridge Crystallographic Data Centre
#                                CCDC 
#
#######################################################################
#
# If this CIF has been generated from an entry in the Cambridge 
# Structural Database, then it will include bibliographic, chemical, 
# crystal, experimental, refinement or atomic coordinate data resulting 
# from the CCDC's data processing and validation procedures.
#
#######################################################################

data_UDIBAM
_symmetry_cell_setting           triclinic
_symmetry_space_group_name_H-M   'P -1'
_symmetry_Int_Tables_number      2
_space_group_name_Hall           '-P 1'
loop_
_symmetry_equiv_pos_site_id
_symmetry_equiv_pos_as_xyz
1 x,y,z
2 -x,-y,-z
_cell_length_a                   13.9378(9)
_cell_length_b                   15.0600(10)
_cell_length_c                   17.7091(11)
_cell_angle_alpha                72.853(2)
_cell_angle_beta                 71.471(3)
_cell_angle_gamma                64.941(3)
_cell_volume                     3136.71
loop_
_atom_site_label
_atom_site_type_symbol
_atom_site_fract_x
_atom_site_fract_y
_atom_site_fract_z
Ni1 Ni 0.58226(4) -0.01125(4) 0.35562(3)
N1 N 0.4284(3) -0.0153(2) 0.4017(2)
N2 N 0.7391(3) -0.0124(3) 0.3211(2)
O1 O 0.5225(2) 0.1022(2) 0.42247(16)
O2 O 0.5961(2) -0.1220(2) 0.30067(16)
O3 O 0.5671(2) 0.0912(2) 0.24418(16)
O4 O 0.6357(2) -0.1286(2) 0.45484(16)
C1 C 0.3472(4) 0.0824(3) 0.4125(3)
C2 C 0.4048(4) -0.0747(3) 0.3626(3)
H1 H 0.4297 -0.0505 0.4531
C3 C 0.8016(4) -0.0330(3) 0.2508(3)
C4 C 0.7780(4) 0.0158(3) 0.3646(3)
P1 P 0.40267(9) 0.14268(8) 0.45386(6)
C5 C 0.5116(4) -0.1407(3) 0.3141(2)
C6 C 0.5180(4) 0.1011(3) 0.1938(3)
H2 H 0.2811 0.0759 0.4494
H3 H 0.3302 0.1217 0.3610
H4 H 0.3676 -0.0255 0.3208
C7 C 0.3266(4) -0.1263(3) 0.4122(3)
H5 H 0.7767 -0.0539 0.2187
C8 C 0.9040(4) -0.0252(4) 0.2217(3)
C9 C 0.8782(4) 0.0261(4) 0.3427(3)
H6 H 0.7345 0.0302 0.4148
O5 O 0.3573(2) 0.2567(2) 0.41579(16)
O6 O 0.5054(2) -0.2043(2) 0.28529(16)
C10 C 0.5505(4) 0.1561(3) 0.1065(2)
O7 O 0.4360(2) 0.0772(2) 0.20732(16)
C11 C 0.3285(4) -0.1766(3) 0.4909(2)
C12 C 0.2437(4) -0.1135(3) 0.3766(3)
H7 H 0.9454 -0.0418 0.1717
C13 C 0.9451(4) 0.0067(3) 0.2662(2)
H8 H 0.9006 0.0452 0.3775
H9 H 0.2948 0.2826 0.4404
H10 H 0.5066 0.2269 0.1066
C14 C 0.6646(4) 0.1505(3) 0.0740(2)
N3 N 0.5147(3) 0.1274(3) 0.05033(19)
Ni2 Ni 0.37978(4) 0.09184(4) 0.10960(3)
H11 H 0.3835 -0.1857 0.5146
C15 C 0.2462(4) -0.2137(4) 0.5344(3)
C16 C 0.1619(4) -0.1501(3) 0.4222(3)
H12 H 0.2434 -0.0809 0.3231
C17 C 1.0467(4) 0.0254(3) 0.2342(2)
C18 C 0.7477(4) 0.0617(4) 0.0639(3)
C19 C 0.6874(4) 0.2383(4) 0.0445(3)
C20 C 0.4983(4) 0.1971(3) -0.0273(2)
H13 H 0.5685 0.0698 0.0369
O8 O 0.3466(2) 0.1265(2) -0.00874(15)
O9 O 0.2976(2) 0.24230(19) 0.11777(16)
N4 N 0.2413(3) 0.0610(2) 0.16726(19)
O10 O 0.4697(2) -0.0562(2) 0.10259(18)
H14 H 0.2470 -0.2481 0.5874
C21 C 0.1632(4) -0.1999(4) 0.4998(3)
H15 H 0.1059 -0.1405 0.3993
C22 C 1.1247(4) -0.0190(3) 0.1710(3)
C23 C 1.0681(4) 0.0906(3) 0.2610(3)
H16 H 0.7341 0.0027 0.0835
C24 C 0.8533(4) 0.0583(4) 0.0244(3)
C25 C 0.7928(4) 0.2352(4) 0.0042(3)
H17 H 0.6318 0.2994 0.0517
P2 P 0.44096(9) 0.14526(8) -0.07378(6)
H18 H 0.5668 0.2010 -0.0614
H19 H 0.4490 0.2634 -0.0179
H20 H 0.2577 0.2760 0.0758
H21 H 0.2483 0.2482 0.1697
H22 H 0.1087 -0.2247 0.5297
C26 C 1.2187(4) 0.0009(3) 0.1406(3)
H23 H 1.1131 -0.0620 0.1493
H24 H 1.0173 0.1239 0.3019
C27 C 1.1644(4) 0.1069(3) 0.2279(3)
H25 H 0.9089 -0.0027 0.0168
C28 C 0.8750(4) 0.1450(4) -0.0034(3)
H26 H 0.8067 0.2940 -0.0172
O11 O 0.3939(3) 0.2289(2) -0.14253(17)
H27 H 1.2696 -0.0301 0.0986
H28 H 1.1773 0.1508 0.2475
H29 H 0.9459 0.1421 -0.0274
H30 H 0.4316 0.2148 -0.1866
O4A O 0.3643(2) 0.1286(2) 0.54516(16)
Ni1A Ni 0.41774(4) 0.01125(4) 0.64438(3)
O10A O 0.5303(2) 0.0562(2) -0.10259(18)
N4_2 N 1.2413(3) 0.0610(2) 0.16726(19)
Ni2A Ni 0.62022(4) -0.09184(4) -0.10960(3)
Ni2_2 Ni 1.37978(4) 0.09184(4) 0.10960(3)
Ni3 Ni 0.87718(4) 0.59101(4) 0.40704(3)
O12 O 1.0288(2) 0.5563(2) 0.55822(16)
Ni4 Ni -0.07857(4) 0.51009(4) 0.89012(3)
O13 O 0.1313(2) 0.37205(19) 1.04464(15)
C29 C 1.2710(4) 0.5201(3) 0.5051(3)
H31 H 1.2137 0.5594 0.4796
P3 P 1.09652(9) 0.35552(8) 0.97948(6)
O14 O 0.9772(2) 0.3958(2) 0.98504(16)
C30 C 1.0041(4) 0.3014(3) 0.5716(2)
H32 H 0.9359 0.2964 0.5746
C31 C 1.5620(4) 0.5908(4) 0.4232(3)
C32 C 1.5498(4) 0.5120(3) 0.4872(2)
N5 N 0.9878(3) 0.3731(3) 0.62000(19)
C33 C 1.3563(4) 0.6398(4) 0.7089(3)
C34 C 1.2814(4) 0.5900(4) 0.7211(3)
C35 C 1.6386(4) 0.4564(4) 0.5199(3)
H33 H 1.6371 0.4009 0.5603
H34 H 1.4253 0.6201 0.6754
N6 N 1.7405(3) 0.5566(3) 0.43550(19)
N7 N 0.7622(3) 0.5135(3) 0.9320(2)
C36 C 1.1549(4) 0.4120(3) 0.8796(2)
H35 H 1.1704 0.3721 0.8401
C37 C 1.1509(4) 0.6969(4) 0.8081(3)
H36 H 1.0825 0.7173 0.8423
C38 C 0.8303(4) 0.3633(3) 0.7302(3)
C39 C 0.7554(4) 0.4559(4) 0.7068(3)
O15 O 1.1418(3) 0.2403(2) 0.97865(17)
H37 H 1.2052 0.2154 0.9830
O16 O 1.2028(2) 0.2584(2) 0.63652(16)
H38 H 1.2427 0.2241 0.5918
C40 C 1.3212(5) 0.7147(4) 0.7478(3)
H39 H 1.3663 0.7495 0.7395
C41 C 0.7939(5) 0.2831(4) 0.7654(3)
C42 C 1.3477(4) 0.3941(4) 0.5983(3)
H40 H 1.3422 0.3431 0.6425
H41 H 1.5058 0.6315 0.3968
O17 O 0.9121(3) 0.6193(2) 0.78558(17)
C43 C 0.6860(5) 0.2965(4) 0.7740(3)
H42 H 1.2522 0.2530 0.6665
P4 P 1.06050(9) 0.35398(8) 0.46878(6)
C44 C 1.1011(4) 0.5700(3) 0.7791(2)
H43 H 1.1407 0.5205 0.7437
C45 C 0.9975(4) 0.6359(3) 0.7478(3)
O18 O 1.0079(3) 0.6956(2) 0.68249(17)
O19 O 1.1028(2) 0.2732(2) 0.41659(16)
H44 H 1.0623 0.2889 0.3861
H45 H 1.2222 0.4164 0.8801
H46 H 1.3041 0.5354 0.6967
H47 H 0.6637 0.2423 0.7958
N8 N 1.0756(3) 0.5118(3) 0.8590(2)
H48 H 1.0744 0.5466 0.8937
O20 O 0.9378(3) 0.4088(2) 0.82239(17)
C46 C 0.6472(4) 0.4680(4) 0.7178(3)
H49 H 0.5978 0.5312 0.7026
O21 O 1.1561(2) 0.3707(2) 0.47696(15)
C47 C 0.9483(4) 0.3474(3) 0.7086(2)
H50 H 0.9870 0.2757 0.7242
C48 C 0.6111(4) 0.3903(4) 0.7503(3)
C49 C 1.2213(5) 0.7429(4) 0.7997(3)
H51 H 1.2014 0.7926 0.8289
H52 H 0.7771 0.5103 0.6835
H53 H 0.8424 0.2204 0.7831
O22 O 1.0666(2) 0.4238(2) 0.71157(16)
H54 H 0.9348 0.4303 0.6030
H55 H 1.0544 0.2358 0.5899
C50 C 1.1788(4) 0.6219(3) 0.7676(3)
C51 C 0.9852(4) 0.4004(3) 0.7512(3)
H56 H 0.5389 0.3997 0.7564
C52 C 0.7021(4) 0.5307(3) 0.8814(3)
H57 H 0.7303 0.5463 0.8262
C53 C 0.2803(4) 0.5047(3) 0.9906(3)
H58 H 0.2398 0.5149 0.9539
C54 C 0.3838(4) 0.5097(3) 0.9603(3)
C55 C 0.4457(4) 0.4955(3) 1.0142(3)
H59 H 0.4113 0.5224 0.9047
C56 C 0.3992(4) 0.4732(3) 1.0944(3)
H60 H 0.5624 0.5396 0.8667
Ni3A Ni 1.12282(4) 0.40899(4) 0.59296(3)
Ni4A Ni 0.07857(4) 0.48991(4) 1.10988(3)
O12A O 0.9712(2) 0.4437(2) 0.44178(16)
O13A O -0.1313(2) 0.62795(19) 0.95536(15)
C29A C 1.7290(4) 0.4799(3) 0.4949(3)
Ni4_2 Ni 0.92143(4) 0.51009(4) 0.89012(3)
Ni3_2 Ni 1.87718(4) 0.59101(4) 0.40704(3)
H31A H 1.7863 0.4406 0.5204
C32A C 1.4502(4) 0.4880(3) 0.5128(2)
C35A C 1.3614(4) 0.5436(4) 0.4801(3)
O13_2 O 1.1313(2) 0.37205(19) 1.04464(15)
Ni4A_2 Ni 1.07857(4) 0.48991(4) 1.10988(3)
C31A C 1.4380(4) 0.4092(4) 0.5768(3)
N6A N 1.2595(3) 0.4434(3) 0.56450(19)
O13A_2 O 0.8687(2) 0.62795(19) 0.95536(15)
H41A H 1.4942 0.3685 0.6032
H33A H 1.3629 0.5991 0.4397
C42A C 1.6523(4) 0.6059(4) 0.4017(3)
H40A H 1.6578 0.6569 0.3575
C37A C -0.1509(4) 0.3031(4) 1.1919(3)
H36A H -0.0825 0.2827 1.1577
C50A C -0.1788(4) 0.3781(3) 1.2324(3)
C34A C -0.2814(4) 0.4100(4) 1.2789(3)
C47A C 0.0517(4) 0.6526(3) 1.2914(2)
C38A C 0.1697(4) 0.6367(3) 1.2698(3)
P4A P -0.06050(9) 0.64602(8) 1.53122(6)
C30A C -0.0041(4) 0.6986(3) 1.4284(2)
N8A N -0.0756(3) 0.4882(3) 1.1410(2)
N6_2 N -0.2595(3) 0.5566(3) 1.43550(19)
Ni3_3 Ni -0.12282(4) 0.59101(4) 1.40704(3)
O21A O -0.1561(2) 0.6293(2) 1.52304(15)
P3A P -0.09652(9) 0.64448(8) 1.02052(6)
O14A O 0.0228(2) 0.6042(2) 1.01496(16)
H50A H 0.0130 0.7243 1.2758
C40A C -0.3212(5) 0.2853(4) 1.2522(3)
H39A H -0.3663 0.2505 1.2605
C33A C -0.3563(4) 0.3602(4) 1.2911(3)
O17A O 0.0879(3) 0.3807(2) 1.21442(17)
C36A C -0.1549(4) 0.5880(3) 1.1204(2)
H45A H -0.2222 0.5836 1.1199
C49A C -0.2213(5) 0.2571(4) 1.2003(3)
H51A H -0.2014 0.2074 1.1711
C43A C 0.3140(5) 0.7035(4) 1.2260(3)
C48A C 0.3889(4) 0.6097(4) 1.2497(3)
C41A C 0.2061(5) 0.7169(4) 1.2346(3)
O20A O 0.0622(3) 0.5912(2) 1.17761(17)
O15A O -0.1418(3) 0.7597(2) 1.02135(17)
H37A H -0.2052 0.7846 1.0170
O22A O -0.0666(2) 0.5762(2) 1.28843(16)
N5A N 0.0122(3) 0.6269(3) 1.38000(19)
C45A C 0.0025(4) 0.3641(3) 1.2522(3)
H46A H -0.3041 0.4646 1.3033
O16A O -0.2028(2) 0.7416(2) 1.36348(16)
H56A H 0.4611 0.6003 1.2436
C39A C 0.2446(4) 0.5441(4) 1.2932(3)
H52A H 0.2229 0.4897 1.3165
C52A C 0.2979(4) 0.4693(3) 1.1186(3)
H57A H 0.2697 0.4537 1.1738
O19A O -0.1028(2) 0.7268(2) 1.58341(16)
H44A H -0.0623 0.7111 1.6139
N7A N 0.2378(3) 0.4865(3) 1.0680(2)
H34A H -0.4253 0.3799 1.3246
C46A C 0.3528(4) 0.5320(4) 1.2822(3)
H55A H -0.0544 0.7642 1.4101
C51A C 0.0148(4) 0.5996(3) 1.2488(3)
H48A H -0.0744 0.4534 1.1063
C53A C 0.7197(4) 0.4953(3) 1.0094(3)
O12A_2 O -0.0288(2) 0.4437(2) 1.44178(16)
H35A H -0.1704 0.6279 1.1599
H32A H 0.0641 0.7036 1.4254
C44A C -0.1011(4) 0.4300(3) 1.2209(2)
C56A C 0.6008(4) 0.5268(3) 0.9056(3)
C54A C 0.6162(4) 0.4903(3) 1.0397(3)
O12_2 O 0.0288(2) 0.5563(2) 1.55822(16)
Ni3A_2 Ni 0.12282(4) 0.40899(4) 1.59296(3)
H47A H 0.3363 0.7577 1.2042
H53A H 0.1576 0.7796 1.2169
H38A H -0.2427 0.7759 1.4082
H59A H 0.5887 0.4776 1.0953
H49A H 0.4022 0.4688 1.2974
H60A H 0.4376 0.4604 1.1333
H54A H 0.0652 0.5697 1.3970
H43A H -0.1407 0.4795 1.2563
H42A H -0.2522 0.7470 1.3335
C55A C 0.5543(4) 0.5045(3) 0.9858(3)
H58A H 0.7602 0.4851 1.0461
O18A O -0.0079(3) 0.3044(2) 1.31751(17)
loop_
_geom_bond_atom_site_label_1
_geom_bond_atom_site_label_2
_geom_bond_site_symmetry_1
_geom_bond_site_symmetry_2
Ni1 N1 1_555 1_555
N1 C1 1_555 1_555
N2 Ni1 1_555 1_555
O1 Ni1 1_555 1_555
O2 Ni1 1_555 1_555
O3 Ni1 1_555 1_555
O4 Ni1 1_555 1_555
C1 P1 1_555 1_555
C2 N1 1_555 1_555
H1 N1 1_555 1_555
C3 N2 1_555 1_555
C4 N2 1_555 1_555
P1 O1 1_555 1_555
C5 O2 1_555 1_555
C6 O3 1_555 1_555
H2 C1 1_555 1_555
H3 C1 1_555 1_555
H4 C2 1_555 1_555
C7 C2 1_555 1_555
H5 C3 1_555 1_555
C8 C3 1_555 1_555
C9 C4 1_555 1_555
H6 C4 1_555 1_555
O5 P1 1_555 1_555
O6 C5 1_555 1_555
C10 C6 1_555 1_555
O7 C6 1_555 1_555
C11 C7 1_555 1_555
C12 C7 1_555 1_555
H7 C8 1_555 1_555
C13 C8 1_555 1_555
H8 C9 1_555 1_555
H9 O5 1_555 1_555
H10 C10 1_555 1_555
C14 C10 1_555 1_555
N3 C10 1_555 1_555
Ni2 O7 1_555 1_555
H11 C11 1_555 1_555
C15 C11 1_555 1_555
C16 C12 1_555 1_555
H12 C12 1_555 1_555
C17 C13 1_555 1_555
C18 C14 1_555 1_555
C19 C14 1_555 1_555
C20 N3 1_555 1_555
H13 N3 1_555 1_555
O8 Ni2 1_555 1_555
O9 Ni2 1_555 1_555
N4 Ni2 1_555 1_555
O10 Ni2 1_555 1_555
H14 C15 1_555 1_555
C21 C15 1_555 1_555
H15 C16 1_555 1_555
C22 C17 1_555 1_555
C23 C17 1_555 1_555
H16 C18 1_555 1_555
C24 C18 1_555 1_555
C25 C19 1_555 1_555
H17 C19 1_555 1_555
P2 C20 1_555 1_555
H18 C20 1_555 1_555
H19 C20 1_555 1_555
H20 O9 1_555 1_555
H21 O9 1_555 1_555
H22 C21 1_555 1_555
C26 C22 1_555 1_555
H23 C22 1_555 1_555
H24 C23 1_555 1_555
C27 C23 1_555 1_555
H25 C24 1_555 1_555
C28 C24 1_555 1_555
H26 C25 1_555 1_555
O11 P2 1_555 1_555
H27 C26 1_555 1_555
H28 C27 1_555 1_555
H29 C28 1_555 1_555
H30 O11 1_555 1_555
Ni3 O12A 1_555 1_555
O12 Ni3A 1_555 1_555
Ni4 O13A 1_555 1_555
O13 Ni4A 1_555 1_555
C29 H31 1_555 1_555
P3 O14 1_555 1_555
O14 Ni4_2 1_555 1_555
C30 H32 1_555 1_555
C31 C32 1_555 1_555
C32 C35 1_555 1_555
N5 C30 1_555 1_555
C33 C34 1_555 1_555
C34 H46 1_555 1_555
C35 H33 1_555 1_555
H34 C33 1_555 1_555
N6 C29A 1_555 1_555
N7 C52 1_555 1_555
C36 P3 1_555 1_555
H35 C36 1_555 1_555
C37 H36 1_555 1_555
C38 C39 1_555 1_555
C39 C46 1_555 1_555
O15 P3 1_555 1_555
H37 O15 1_555 1_555
O16 H38 1_555 1_555
C40 C33 1_555 1_555
H39 C40 1_555 1_555
C41 C38 1_555 1_555
C42 H40 1_555 1_555
H41 C31 1_555 1_555
O17 C45 1_555 1_555
C43 C41 1_555 1_555
H42 O16 1_555 1_555
P4 C30 1_555 1_555
C44 H43 1_555 1_555
C45 C44 1_555 1_555
O18 C45 1_555 1_555
O19 P4 1_555 1_555
H44 O19 1_555 1_555
H45 C36 1_555 1_555
H47 C43 1_555 1_555
N8 C36 1_555 1_555
H48 N8 1_555 1_555
O20 C51 1_555 1_555
C46 H49 1_555 1_555
O21 P4 1_555 1_555
C47 N5 1_555 1_555
H50 C47 1_555 1_555
C48 C43 1_555 1_555
C49 C37 1_555 1_555
H51 C49 1_555 1_555
H52 C39 1_555 1_555
H53 C41 1_555 1_555
O22 C51 1_555 1_555
H54 N5 1_555 1_555
H55 C30 1_555 1_555
C50 C34 1_555 1_555
C51 C47 1_555 1_555
H56 C48 1_555 1_555
C52 H57 1_555 1_555
C53 H58 1_555 1_555
C54 C53 1_555 1_555
C55 C54 1_555 1_555
H59 C54 1_555 1_555
C56 C55 1_555 1_555
H60 C56A 1_555 1_555
O4A P1 1_555 1_555
Ni1A O4A 1_555 1_555
O10A P2 1_555 1_555
N4_2 C26 1_555 1_555
Ni2A O10A 1_555 1_555
Ni2_2 N4_2 1_555 1_555
Ni3A N5 1_555 1_555
Ni4A N8A 1_555 1_555
O12A P4 1_555 1_555
O13A P3A 1_555 1_555
C29A C35 1_555 1_555
Ni4_2 N7 1_555 1_555
Ni3_2 N6 1_555 1_555
H31A C29A 1_555 1_555
C32A C32 1_555 1_555
C35A C29 1_555 1_555
O13_2 P3 1_555 1_555
Ni4A_2 O13_2 1_555 1_555
C31A C42 1_555 1_555
N6A C29 1_555 1_555
O13A_2 Ni4_2 1_555 1_555
H41A C31A 1_555 1_555
H33A C35A 1_555 1_555
C42A C31 1_555 1_555
H40A C42A 1_555 1_555
C37A H36A 1_555 1_555
C50A C37A 1_555 1_555
C34A C50A 1_555 1_555
C47A C38A 1_555 1_555
C38A C41A 1_555 1_555
P4A C30A 1_555 1_555
C30A N5A 1_555 1_555
N8A C36A 1_555 1_555
N6_2 Ni3_3 1_555 1_555
Ni3_3 O21A 1_555 1_555
O21A P4A 1_555 1_555
P3A O14A 1_555 1_555
O14A Ni4A 1_555 1_555
H50A C47A 1_555 1_555
C40A H39A 1_555 1_555
C33A C34A 1_555 1_555
O17A Ni4A 1_555 1_555
C36A P3A 1_555 1_555
H45A C36A 1_555 1_555
C49A C37A 1_555 1_555
H51A C49A 1_555 1_555
C43A C48A 1_555 1_555
C48A H56A 1_555 1_555
C41A C43A 1_555 1_555
O20A Ni4A 1_555 1_555
O15A P3A 1_555 1_555
H37A O15A 1_555 1_555
O22A Ni3_3 1_555 1_555
N5A C47A 1_555 1_555
C45A O17A 1_555 1_555
H46A C34A 1_555 1_555
O16A Ni3_3 1_555 1_555
C39A C38A 1_555 1_555
H52A C39A 1_555 1_555
C52A C56 1_555 1_555
H57A C52A 1_555 1_555
O19A P4A 1_555 1_555
H44A O19A 1_555 1_555
N7A C53 1_555 1_555
H34A C33A 1_555 1_555
C46A C48A 1_555 1_555
H55A C30A 1_555 1_555
C51A C47A 1_555 1_555
H48A N8A 1_555 1_555
C53A N7 1_555 1_555
O12A_2 Ni3_3 1_555 1_555
H35A C36A 1_555 1_555
H32A C30A 1_555 1_555
C44A C50A 1_555 1_555
C56A C52 1_555 1_555
C54A C53A 1_555 1_555
O12_2 P4A 1_555 1_555
Ni3A_2 O12_2 1_555 1_555
H47A C43A 1_555 1_555
H53A C41A 1_555 1_555
H38A O16A 1_555 1_555
H59A C54A 1_555 1_555
H49A C46A 1_555 1_555
H60A C56 1_555 1_555
H54A N5A 1_555 1_555
H43A C44A 1_555 1_555
H42A O16A 1_555 1_555
C55A C55 1_555 1_555
H58A C53A 1_555 1_555
O18A C45A 1_555 1_555
C2 C5 1_555 1_555
C9 C13 1_555 1_555
N3 Ni2 1_555 1_555
C16 C21 1_555 1_555
O8 P2 1_555 1_555
C25 C28 1_555 1_555
C27 N4_2 1_555 1_555
N6 C42A 1_555 1_555
C37 C50 1_555 1_555
C38 C47 1_555 1_555
O16 Ni3A 1_555 1_555
C40 C49 1_555 1_555
C42 N6A 1_555 1_555
O17 Ni4_2 1_555 1_555
C44 N8 1_555 1_555
C44 C50 1_555 1_555
N8 Ni4_2 1_555 1_555
O20 Ni4_2 1_555 1_555
C46 C48 1_555 1_555
O21 Ni3A 1_555 1_555
O22 Ni3A 1_555 1_555
Ni3A N6A 1_555 1_555
Ni4A N7A 1_555 1_555
C32A C35A 1_555 1_555
C32A C31A 1_555 1_555
N8A C44A 1_555 1_555
Ni3_3 N5A 1_555 1_555
C40A C33A 1_555 1_555
C40A C49A 1_555 1_555
O20A C51A 1_555 1_555
O22A C51A 1_555 1_555
C45A C44A 1_555 1_555
C39A C46A 1_555 1_555
C52A N7A 1_555 1_555
C56A C55A 1_555 1_555
C54A C55A 1_555 1_555

#END
