
#######################################################################
#
#                 Cambridge Crystallographic Data Centre
#                                CCDC 
#
#######################################################################
#
# If this CIF has been generated from an entry in the Cambridge 
# Structural Database, then it will include bibliographic, chemical, 
# crystal, experimental, refinement or atomic coordinate data resulting 
# from the CCDC's data processing and validation procedures.
#
#######################################################################

data_UDIBUG
_symmetry_cell_setting           monoclinic
_symmetry_space_group_name_H-M   'P 21/c'
_symmetry_Int_Tables_number      14
_space_group_name_Hall           '-P 2ybc'
loop_
_symmetry_equiv_pos_site_id
_symmetry_equiv_pos_as_xyz
1 x,y,z
2 -x,1/2+y,1/2-z
3 -x,-y,-z
4 x,1/2-y,1/2+z
_cell_length_a                   7.7377(15)
_cell_length_b                   22.285(5)
_cell_length_c                   8.1491(16)
_cell_angle_alpha                90
_cell_angle_beta                 113.92(3)
_cell_angle_gamma                90
_cell_volume                     1284.5
loop_
_atom_site_label
_atom_site_type_symbol
_atom_site_fract_x
_atom_site_fract_y
_atom_site_fract_z
Bi1 Bi 0.33599(4) 0.546717(12) 0.33927(4)
Bi2 Bi 0.21955(4) 0.512536(12) 0.72856(4)
C1 C 0.7826(11) 0.7750(3) 0.7732(10)
O1 O 0.5124(8) 0.6212(2) 0.5021(7)
C2 C 0.5278(10) 0.7268(3) 0.5292(10)
C3 C 0.4320(10) 0.6712(3) 0.4343(11)
C4 C 0.6929(11) 0.7233(3) 0.6827(10)
H1 H 0.7449 0.6859 0.7261
O2 O 0.2842(8) 0.6731(2) 0.2941(8)
O3 O 1.0121(9) 0.7164(3) 0.9893(9)
C5 C 0.9550(12) 0.7721(3) 0.9434(11)
O4 O 1.0345(9) 0.8152(3) 1.0295(9)
C6 C 0.5372(10) 0.8342(3) 0.5514(10)
C7 C 0.4513(10) 0.7824(3) 0.4600(10)
H2 H 0.3436 0.7849 0.3535
C8 C 0.7019(10) 0.8299(3) 0.7079(10)
H3 H 0.7584 0.8646 0.7694
O5 O 0.4787(7) 0.9372(2) 0.5876(7)
C9 C 0.4514(9) 0.8934(3) 0.4821(9)
O6 O 0.3461(7) 0.8969(2) 0.3146(7)
O7 O 0.4011(6) 0.5012(2) 0.5923(6)
O8 O 0.0663(7) 0.5585(2) 0.4773(6)
O9 O -0.0957(8) 0.5479(3) 0.7459(8)
N1 N -0.0898(9) 0.5616(3) 0.9016(9)
O10 O -0.2282(10) 0.5468(3) 0.9320(9)
O11 O 0.0456(11) 0.5877(4) 1.0074(11)
Bi1_2 Bi 0.33599(4) 0.546717(12) 1.33927(4)
Bi1B Bi -0.33599(4) 0.453283(12) 0.66073(4)
Bi1B_2 Bi 0.66401(4) 0.453283(12) 0.66073(4)
Bi1C Bi 0.33599(4) 0.953283(12) 0.83927(4)
Bi2A Bi 0.78045(4) 1.012536(12) 0.77144(4)
Bi2B Bi -0.21955(4) 0.487464(12) 0.27144(4)
Bi2C Bi 0.21955(4) 0.987464(12) 0.22856(4)
O5A O 0.5213(7) 0.4372(2) 0.9124(7)
O5C O 0.4787(7) 0.5628(2) 0.0876(7)
O6C O 0.3461(7) 0.6031(2) 0.8146(7)
O7B O 0.5989(6) 0.4988(2) 0.4077(6)
O8B O -0.0663(7) 0.4415(2) 0.5227(6)
O9B O 0.0957(8) 0.4521(3) 0.2541(8)
O10B O 0.2282(10) 0.4532(3) 0.0680(9)
O11_2 O 0.0456(11) 0.5877(4) 0.0074(11)
loop_
_geom_bond_atom_site_label_1
_geom_bond_atom_site_label_2
_geom_bond_site_symmetry_1
_geom_bond_site_symmetry_2
Bi1 O1 1_555 1_555
Bi2 O7 1_555 1_555
C1 C4 1_555 1_555
O1 C3 1_555 1_555
C2 C3 1_555 1_555
C3 O2 1_555 1_555
C4 C2 1_555 1_555
H1 C4 1_555 1_555
O2 Bi1 1_555 1_555
O3 C5 1_555 1_555
C5 C1 1_555 1_555
O4 C5 1_555 1_555
C6 C7 1_555 1_555
C7 C2 1_555 1_555
H2 C7 1_555 1_555
C8 C1 1_555 1_555
H3 C8 1_555 1_555
O5 C9 1_555 1_555
C9 C6 1_555 1_555
O6 C9 1_555 1_555
O7 Bi1 1_555 1_555
O8 Bi1 1_555 1_555
O9 Bi2 1_555 1_555
N1 O9 1_555 1_555
O10 N1 1_555 1_555
O11 N1 1_555 1_555
Bi1_2 O11 1_555 1_555
Bi1B O9 1_555 1_555
Bi1B_2 O7 1_555 1_555
Bi1C O5 1_555 1_555
Bi2A O5 1_555 1_555
Bi2B O8 1_555 1_555
Bi2C O6 1_555 1_555
O5A Bi2 1_555 1_555
O5C Bi1 1_555 1_555
O6C Bi2 1_555 1_555
O7B Bi1 1_555 1_555
O8B Bi2 1_555 1_555
O9B Bi1 1_555 1_555
O10B Bi1 1_555 1_555
O11_2 Bi1 1_555 1_555
Bi2 O8 1_555 1_555
C6 C8 1_555 1_555
O10 Bi1B 1_555 1_555
Bi1B O8B 1_555 1_555
Bi1B_2 O5A 1_555 1_555
Bi1B_2 O7B 1_555 1_555
Bi2B O8B 1_555 1_555
Bi2B O9B 1_555 1_555

#END
