
#######################################################################
#
#                 Cambridge Crystallographic Data Centre
#                                CCDC 
#
#######################################################################
#
# If this CIF has been generated from an entry in the Cambridge 
# Structural Database, then it will include bibliographic, chemical, 
# crystal, experimental, refinement or atomic coordinate data resulting 
# from the CCDC's data processing and validation procedures.
#
#######################################################################

data_UDICUH
_symmetry_cell_setting           triclinic
_symmetry_space_group_name_H-M   'P -1'
_symmetry_Int_Tables_number      2
_space_group_name_Hall           '-P 1'
loop_
_symmetry_equiv_pos_site_id
_symmetry_equiv_pos_as_xyz
1 x,y,z
2 -x,-y,-z
_cell_length_a                   7.8825(16)
_cell_length_b                   8.4482(17)
_cell_length_c                   9.890(2)
_cell_angle_alpha                108.96(3)
_cell_angle_beta                 90.93(3)
_cell_angle_gamma                116.25(3)
_cell_volume                     548.617
loop_
_atom_site_label
_atom_site_type_symbol
_atom_site_fract_x
_atom_site_fract_y
_atom_site_fract_z
Bi1 Bi 0.13099(7) 0.13964(8) 0.90363(6)
O1 O -0.1008(17) -0.095(2) 0.7039(15)
O2 O -0.1978(16) 0.1211(18) 0.7643(12)
C1 C -0.575(2) -0.177(2) 0.5861(16)
C2 C -0.399(2) -0.177(2) 0.5758(16)
C3 C -0.218(2) -0.034(3) 0.6940(15)
O3 O -0.7033(19) 0.016(2) 0.7171(13)
O4 O -0.5541(15) -0.0773(18) 0.8444(11)
C4 C -0.380(2) -0.290(2) 0.4460(15)
H1 H -0.2618 -0.2882 0.4379
C5 C -0.728(2) -0.294(2) 0.4708(17)
H2 H -0.8464 -0.2971 0.4809
C6 C -0.613(2) -0.065(3) 0.7265(19)
C7 C -0.711(2) -0.408(3) 0.3395(19)
O5 O -0.8699(18) -0.5287(16) 0.0908(12)
C8 C -0.879(2) -0.514(2) 0.2198(16)
C9 C -0.534(2) -0.409(2) 0.3259(17)
O6 O -1.0464(16) -0.5860(19) 0.2584(13)
O7 O 0.1081(15) -0.0808(16) 0.9724(11)
O8 O -0.317(2) -0.471(2) 0.1798(16)
O9 O -0.618(2) -0.684(2) 0.1204(14)
C10 C -0.488(2) -0.535(3) 0.1957(18)
Bi2 Bi -0.25053(7) 0.25045(8) 1.03448(6)
Bi1_2 Bi -0.86901(7) -0.86036(8) -0.09637(6)
Bi1_3 Bi -0.86901(7) 0.13964(8) 0.90363(6)
Bi1A Bi -0.13099(7) -0.13964(8) 0.09637(6)
Bi1A_2 Bi -0.13099(7) -0.13964(8) 1.09637(6)
O3_2 O 0.2967(19) 0.016(2) 0.7171(13)
O4A O -0.4459(15) 0.0773(18) 1.1556(11)
O5_2 O 0.1301(18) 0.4713(16) 1.0908(12)
O5A O -0.1301(18) 0.5287(16) 0.9092(12)
O6_2 O -0.0464(16) 0.4140(19) 1.2584(13)
O7A O -0.1081(15) 0.0808(16) 1.0276(11)
O8_2 O -0.317(2) 0.529(2) 1.1798(16)
O8A O 0.317(2) 0.471(2) 0.8202(16)
O9_2 O 0.382(2) 0.316(2) 1.1204(14)
Bi2_2 Bi -1.25053(7) -0.74955(8) 0.03448(6)
Bi2_3 Bi -0.25053(7) -0.74955(8) 0.03448(6)
Bi2A Bi -0.74947(7) -0.25045(8) -0.03448(6)
Bi2A_2 Bi -0.74947(7) -0.25045(8) 0.96552(6)
Bi2A_3 Bi 0.25053(7) -0.25045(8) 0.96552(6)
loop_
_geom_bond_atom_site_label_1
_geom_bond_atom_site_label_2
_geom_bond_site_symmetry_1
_geom_bond_site_symmetry_2
Bi1 O1 1_555 1_555
O1 C3 1_555 1_555
O2 Bi1 1_555 1_555
C1 C2 1_555 1_555
C2 C3 1_555 1_555
C3 O2 1_555 1_555
O3 C6 1_555 1_555
O4 C6 1_555 1_555
C4 C2 1_555 1_555
H1 C4 1_555 1_555
C5 C1 1_555 1_555
H2 C5 1_555 1_555
C6 C1 1_555 1_555
C7 C5 1_555 1_555
O5 C8 1_555 1_555
C8 C7 1_555 1_555
C9 C4 1_555 1_555
O6 C8 1_555 1_555
O7 Bi1 1_555 1_555
O8 C10 1_555 1_555
O9 C10 1_555 1_555
C10 C9 1_555 1_555
Bi2 O2 1_555 1_555
Bi1_2 O5 1_555 1_555
Bi1_3 O3 1_555 1_555
Bi1A O8 1_555 1_555
Bi1A_2 O7 1_555 1_555
O3_2 Bi1 1_555 1_555
O4A Bi2 1_555 1_555
O5_2 Bi1 1_555 1_555
O5A Bi2 1_555 1_555
O6_2 Bi2 1_555 1_555
O7A Bi1 1_555 1_555
O8_2 Bi2 1_555 1_555
O8A Bi1 1_555 1_555
O9_2 Bi1 1_555 1_555
Bi2_2 O5 1_555 1_555
Bi2_3 O8 1_555 1_555
Bi2A O5 1_555 1_555
Bi2A_2 O4 1_555 1_555
Bi2A_3 O7 1_555 1_555
O4 Bi2 1_555 1_555
C7 C9 1_555 1_555
O6 Bi2_2 1_555 1_555
O9 Bi1_2 1_555 1_555
Bi2 O5_2 1_555 1_555
Bi2 O7A 1_555 1_555
Bi1A_2 O7A 1_555 1_555
O4A Bi2A_2 1_555 1_555

#END
