
#######################################################################
#
#                 Cambridge Crystallographic Data Centre
#                                CCDC 
#
#######################################################################
#
# If this CIF has been generated from an entry in the Cambridge 
# Structural Database, then it will include bibliographic, chemical, 
# crystal, experimental, refinement or atomic coordinate data resulting 
# from the CCDC's data processing and validation procedures.
#
#######################################################################

data_UDIDES
_symmetry_cell_setting           triclinic
_symmetry_space_group_name_H-M   'P -1'
_symmetry_Int_Tables_number      2
_space_group_name_Hall           '-P 1'
loop_
_symmetry_equiv_pos_site_id
_symmetry_equiv_pos_as_xyz
1 x,y,z
2 -x,-y,-z
_cell_length_a                   7.711(3)
_cell_length_b                   8.959(3)
_cell_length_c                   9.103(3)
_cell_angle_alpha                88.460(5)
_cell_angle_beta                 88.793(4)
_cell_angle_gamma                74.567(5)
_cell_volume                     605.904
loop_
_atom_site_label
_atom_site_type_symbol
_atom_site_fract_x
_atom_site_fract_y
_atom_site_fract_z
Zn1 Zn 1.01105(6) 0.13713(5) 0.09931(5)
Zn2 Zn 0.01507(6) 0.18846(5) 0.73393(5)
C1 C 0.3855(6) 0.2346(5) 0.8044(5)
C2 C 0.4257(6) 0.2685(5) 0.6489(5)
C3 C 0.5698(6) 0.1714(5) 0.5762(5)
H1 H 0.6471 0.0899 0.6271
C4 C 0.5993(6) 0.1956(5) 0.4269(5)
C5 C 0.4831(6) 0.3150(5) 0.3499(5)
H2 H 0.5023 0.3299 0.2500
C6 C 0.3370(6) 0.4130(5) 0.4222(5)
C7 C 0.3096(6) 0.3917(5) 0.5725(5)
H3 H 0.2146 0.4589 0.6217
C8 C 0.7534(6) 0.0908(5) 0.3446(5)
C9 C 0.2063(6) 0.5357(5) 0.3356(5)
N1 N 0.2234(5) 0.2231(4) 0.8463(4)
N2 N 0.2399(5) 0.1815(4) 0.9906(4)
N3 N 0.4062(5) 0.1691(5) 1.0324(4)
N4 N 0.5010(5) 0.2017(5) 0.9145(4)
O1 O 0.8986(4) 0.1039(3) -0.1033(3)
H4 H 0.7998 0.1319 -0.1000
O2 O 0.8907(5) 0.3807(4) 0.0924(4)
H5 H 0.8118 0.4037 0.0296
H6 H 0.9453 0.4504 0.0939
O3 O 1.1331(5) 0.1650(4) 0.3013(4)
H7 H 1.1516 0.1236 0.3859
H8 H 1.0726 0.2581 0.3148
O4 O 0.7797(4) 0.1265(4) 0.2131(3)
O5 O 0.8478(4) -0.0319(3) 0.4106(3)
O6 O 0.1857(6) 0.5154(5) 0.2028(4)
O7 O 0.1188(4) 0.6557(3) 0.4031(3)
Zn1_2 Zn 0.01105(6) 0.13713(5) 1.09931(5)
Zn1A Zn 0.98895(6) -0.13713(5) -0.09931(5)
Zn2_2 Zn 1.01507(6) 0.18846(5) -0.26607(5)
Zn2A Zn -0.01507(6) 0.81154(5) 0.26607(5)
Zn2A_2 Zn 0.98493(6) -0.18846(5) 0.26607(5)
N2_2 N 1.2399(5) 0.1815(4) -0.0094(4)
O1_2 O -0.1014(4) 0.1039(3) 0.8967(3)
O1A O 1.1014(4) -0.1039(3) 0.1033(3)
O5A O 0.1522(4) 0.0319(3) 0.5894(3)
O7A O -0.1188(4) 0.3443(3) 0.5969(3)
loop_
_geom_bond_atom_site_label_1
_geom_bond_atom_site_label_2
_geom_bond_site_symmetry_1
_geom_bond_site_symmetry_2
Zn1 O1 1_555 1_555
Zn2 N1 1_555 1_555
C1 C2 1_555 1_555
C2 C3 1_555 1_555
C3 H1 1_555 1_555
C4 C3 1_555 1_555
C5 C4 1_555 1_555
H2 C5 1_555 1_555
C6 C5 1_555 1_555
C7 C2 1_555 1_555
H3 C7 1_555 1_555
C8 C4 1_555 1_555
C9 C6 1_555 1_555
N1 C1 1_555 1_555
N2 N1 1_555 1_555
N3 N2 1_555 1_555
N4 C1 1_555 1_555
O1 H4 1_555 1_555
O2 Zn1 1_555 1_555
H5 O2 1_555 1_555
H6 O2 1_555 1_555
O3 Zn1 1_555 1_555
H7 O3 1_555 1_555
H8 O3 1_555 1_555
O4 Zn1 1_555 1_555
O5 C8 1_555 1_555
O6 C9 1_555 1_555
O7 C9 1_555 1_555
Zn1_2 N2 1_555 1_555
Zn1A O1 1_555 1_555
Zn2_2 O1 1_555 1_555
Zn2A O7 1_555 1_555
Zn2A_2 O5 1_555 1_555
N2_2 Zn1 1_555 1_555
O1_2 Zn2 1_555 1_555
O1A Zn1 1_555 1_555
O5A Zn2 1_555 1_555
O7A Zn2 1_555 1_555
C6 C7 1_555 1_555
C8 O4 1_555 1_555
N3 N4 1_555 1_555
Zn1_2 O1_2 1_555 1_555
Zn1A O1A 1_555 1_555
Zn2A_2 O1A 1_555 1_555

#END
