
#######################################################################
#
#                 Cambridge Crystallographic Data Centre
#                                CCDC 
#
#######################################################################
#
# If this CIF has been generated from an entry in the Cambridge 
# Structural Database, then it will include bibliographic, chemical, 
# crystal, experimental, refinement or atomic coordinate data resulting 
# from the CCDC's data processing and validation procedures.
#
#######################################################################

data_UDIDAO
_symmetry_cell_setting           orthorhombic
_symmetry_space_group_name_H-M   'P b c n'
_symmetry_Int_Tables_number      60
_space_group_name_Hall           '-P 2n 2ab'
loop_
_symmetry_equiv_pos_site_id
_symmetry_equiv_pos_as_xyz
1 x,y,z
2 1/2-x,1/2-y,1/2+z
3 1/2+x,1/2-y,-z
4 -x,y,1/2-z
5 -x,-y,-z
6 1/2+x,1/2+y,1/2-z
7 1/2-x,1/2+y,z
8 x,-y,1/2+z
_cell_length_a                   13.739(2)
_cell_length_b                   24.301(3)
_cell_length_c                   15.179(2)
_cell_angle_alpha                90
_cell_angle_beta                 90
_cell_angle_gamma                90
_cell_volume                     5067.83
loop_
_atom_site_label
_atom_site_type_symbol
_atom_site_fract_x
_atom_site_fract_y
_atom_site_fract_z
Co1 Co 0.38348(8) 0.24789(5) 0.20791(8)
Co2 Co 0.22504(8) 0.15664(5) 0.30095(8)
Co3 Co -0.19356(9) 0.41000(5) 0.50462(8)
Co4 Co 0.3554(2) 0.54169(12) 0.3232(2)
O1 O 0.2896(4) 0.2919(2) 0.2876(4)
O2 O 0.1976(4) 0.2293(2) 0.3594(4)
O3 O 0.2620(7) 0.4869(3) 0.3613(6)
O4 O 0.1542(5) 0.5146(3) 0.4581(5)
O5 O 0.1030(5) 0.4117(3) 0.1116(4)
O6 O 0.1773(4) 0.3364(2) 0.0757(4)
O7 O 0.1915(6) 0.1118(3) 0.4119(5)
O8 O 0.5000 0.3010(4) 0.2500
O9 O 0.2487(5) 0.0769(3) 0.2406(5)
O10 O -0.3058(6) 0.4429(4) 0.4176(6)
O11 O 0.3541(4) 0.2951(2) 0.1013(4)
N1 N -0.0902(5) 0.3652(3) 0.5859(5)
N2 N -0.1346(5) 0.3399(3) 0.6556(4)
N3 N -0.0774(5) 0.3010(3) 0.6841(4)
N4 N 0.0051(5) 0.3001(3) 0.6375(4)
N5 N 0.0793(5) 0.1511(3) 0.2620(5)
N6 N 0.0467(5) 0.0993(3) 0.2576(6)
N7 N 0.2716(5) 0.1903(3) 0.1839(4)
N8 N 0.2253(6) 0.1814(4) 0.1209(6)
N9 N 0.1761(7) 0.1742(5) 0.0572(7)
C1 C -0.0048(6) 0.3388(3) 0.5779(6)
C2 C 0.0703(6) 0.3526(3) 0.5090(5)
C3 C 0.1117(6) 0.3101(3) 0.4626(5)
H1 H 0.0945 0.2737 0.4741
C4 C 0.1810(6) 0.3228(4) 0.3973(5)
C5 C 0.2053(6) 0.3774(3) 0.3813(5)
H2 H 0.2502 0.3854 0.3373
C6 C 0.1650(6) 0.4198(3) 0.4285(5)
C7 C 0.0933(6) 0.4079(4) 0.4944(6)
H3 H 0.0633 0.4358 0.5262
C8 C 0.2265(6) 0.2774(4) 0.3438(6)
C9 C 0.1948(7) 0.4789(4) 0.4161(6)
C10 C 0.0000 0.1832(5) 0.2500
C11 C 0.0000 0.2451(5) 0.2500
C12 C 0.0574(6) 0.2731(3) 0.1917(6)
H4 H 0.0962 0.2539 0.1520
C13 C 0.0578(6) 0.3311(3) 0.1916(5)
C14 C 0.0000 0.3597(5) 0.2500
H5 H 0.0000 0.3980 0.2500
C15 C 0.1163(6) 0.3630(4) 0.1242(5)
O12 O 0.4052(13) 0.4754(7) 0.2410(12)
O13 O 0.4794(16) 0.5238(8) 0.4253(13)
O5C O -0.1030(5) 0.4117(3) 0.3884(4)
O6C O -0.1773(4) 0.3364(2) 0.4243(4)
N5C N -0.0793(5) 0.1511(3) 0.2380(5)
N6C N -0.0467(5) 0.0993(3) 0.2424(6)
C12C C -0.0574(6) 0.2731(3) 0.3083(6)
H4C H -0.0962 0.2539 0.3480
C13C C -0.0578(6) 0.3311(3) 0.3084(5)
C15C C -0.1163(6) 0.3630(4) 0.3758(5)
Co1C Co -0.38348(8) 0.24789(5) 0.29209(8)
Co2C Co -0.22504(8) 0.15664(5) 0.19905(8)
Co3C Co 0.19356(9) 0.41000(5) -0.00462(8)
Co4C Co -0.3554(2) 0.54169(12) 0.1768(2)
O1C O -0.2896(4) 0.2919(2) 0.2124(4)
O2C O -0.1976(4) 0.2293(2) 0.1406(4)
O3C O -0.2620(7) 0.4869(3) 0.1387(6)
O4C O -0.1542(5) 0.5146(3) 0.0419(5)
O7C O -0.1915(6) 0.1118(3) 0.0881(5)
O9C O -0.2487(5) 0.0769(3) 0.2594(5)
O10C O 0.3058(6) 0.4429(4) 0.0824(6)
O11C O -0.3541(4) 0.2951(2) 0.3987(4)
N1C N 0.0902(5) 0.3652(3) -0.0859(5)
N2C N 0.1346(5) 0.3399(3) -0.1556(4)
N3C N 0.0774(5) 0.3010(3) -0.1841(4)
N4C N -0.0051(5) 0.3001(3) -0.1375(4)
N7C N -0.2716(5) 0.1903(3) 0.3161(4)
N8C N -0.2253(6) 0.1814(4) 0.3791(6)
N9C N -0.1761(7) 0.1742(5) 0.4428(7)
C1C C 0.0048(6) 0.3388(3) -0.0779(6)
C2C C -0.0703(6) 0.3526(3) -0.0090(5)
C3C C -0.1117(6) 0.3101(3) 0.0374(5)
H1C H -0.0945 0.2737 0.0259
C4C C -0.1810(6) 0.3228(4) 0.1027(5)
C5C C -0.2053(6) 0.3774(3) 0.1187(5)
H2C H -0.2502 0.3854 0.1627
C6C C -0.1650(6) 0.4198(3) 0.0715(5)
C7C C -0.0933(6) 0.4079(4) 0.0056(6)
H3C H -0.0633 0.4358 -0.0262
C8C C -0.2265(6) 0.2774(4) 0.1562(6)
C9C C -0.1948(7) 0.4789(4) 0.0839(6)
O12C O -0.4052(13) 0.4754(7) 0.2590(12)
O13C O -0.4794(16) 0.5238(8) 0.0747(13)
Co1A Co 0.11652(8) 0.25211(5) -0.29209(8)
Co1A_2 Co 0.11652(8) 0.25211(5) 0.70791(8)
Co1B Co -0.11652(8) 0.25211(5) -0.20791(8)
Co1B_2 Co -0.11652(8) 0.25211(5) 0.79209(8)
Co1C_2 Co 0.61652(8) 0.24789(5) 0.29209(8)
Co2A Co 0.27496(8) 0.34336(5) -0.19905(8)
Co2B Co -0.27496(8) 0.34336(5) 0.69905(8)
Co3A Co -0.30644(9) 0.09000(5) 0.00462(8)
Co3B Co 0.30644(9) 0.09000(5) 0.49538(8)
Co3D Co 0.19356(9) 0.59000(5) 0.49538(8)
Co3G Co -0.19356(9) 0.59000(5) 0.00462(8)
Co4E Co -0.1446(2) 0.04169(12) 0.1768(2)
Co4F Co 0.1446(2) 0.04169(12) 0.3232(2)
O4D O -0.1542(5) 0.4854(3) 0.5419(5)
O4G O 0.1542(5) 0.4854(3) -0.0419(5)
O7A O 0.3085(6) 0.3882(3) -0.0881(5)
O7B O -0.3085(6) 0.3882(3) 0.5881(5)
O7E O -0.3085(6) 0.6118(3) 0.0881(5)
O7F O 0.3085(6) 0.6118(3) 0.4119(5)
O8_2 O -0.5000 0.3010(4) 0.2500
O9E O -0.2513(5) 0.5769(3) 0.2594(5)
O9F O 0.2513(5) 0.5769(3) 0.2406(5)
N2A N -0.3654(5) 0.1601(3) 0.1556(4)
N2B N 0.3654(5) 0.1601(3) 0.3444(4)
N3A N -0.4226(5) 0.1990(3) 0.1841(4)
N3B N 0.4226(5) 0.1990(3) 0.3159(4)
N4A N 0.4949(5) 0.1999(3) 0.1375(4)
N4B N -0.4949(5) 0.1999(3) 0.3625(4)
N6E N -0.4533(5) 0.5993(3) 0.2424(6)
N6F N 0.4533(5) 0.5993(3) 0.2576(6)
loop_
_geom_bond_atom_site_label_1
_geom_bond_atom_site_label_2
_geom_bond_site_symmetry_1
_geom_bond_site_symmetry_2
Co1 O1 1_555 1_555
Co2 O2 1_555 1_555
Co3 O10 1_555 1_555
Co4 O3 1_555 1_555
O1 C8 1_555 1_555
O2 C8 1_555 1_555
O3 C9 1_555 1_555
O4 C9 1_555 1_555
O5 C15 1_555 1_555
O6 C15 1_555 1_555
O7 Co2 1_555 1_555
O8 Co1 1_555 1_555
O9 Co2 1_555 1_555
O11 Co1 1_555 1_555
N1 Co3 1_555 1_555
N2 N1 1_555 1_555
N3 N2 1_555 1_555
N4 N3 1_555 1_555
N5 Co2 1_555 1_555
N6 N5 1_555 1_555
N7 Co1 1_555 1_555
N8 N7 1_555 1_555
N9 N8 1_555 1_555
C1 N1 1_555 1_555
C2 C1 1_555 1_555
C3 C2 1_555 1_555
H1 C3 1_555 1_555
C4 C3 1_555 1_555
C5 C4 1_555 1_555
H2 C5 1_555 1_555
C6 C5 1_555 1_555
C7 C2 1_555 1_555
H3 C7 1_555 1_555
C8 C4 1_555 1_555
C9 C6 1_555 1_555
C10 N5 1_555 1_555
C11 C10 1_555 1_555
C12 C11 1_555 1_555
H4 C12 1_555 1_555
C13 C12 1_555 1_555
C14 C13 1_555 1_555
H5 C14 1_555 1_555
C15 C13 1_555 1_555
O12 Co4 1_555 1_555
O13 Co4 1_555 1_555
O5C Co3 1_555 1_555
O6C Co3 1_555 1_555
N5C C10 1_555 1_555
N6C N6 1_555 1_555
C12C C11 1_555 1_555
H4C C12C 1_555 1_555
C13C C14 1_555 1_555
C15C O5C 1_555 1_555
Co1C O1C 1_555 1_555
Co2C N5C 1_555 1_555
Co3C O5 1_555 1_555
Co4C O3C 1_555 1_555
O1C C8C 1_555 1_555
O2C Co2C 1_555 1_555
O3C C9C 1_555 1_555
O4C C9C 1_555 1_555
O7C Co2C 1_555 1_555
O9C Co2C 1_555 1_555
O10C Co3C 1_555 1_555
O11C Co1C 1_555 1_555
N1C Co3C 1_555 1_555
N2C N1C 1_555 1_555
N3C N2C 1_555 1_555
N4C N3C 1_555 1_555
N7C Co1C 1_555 1_555
N8C N7C 1_555 1_555
N9C N8C 1_555 1_555
C1C N1C 1_555 1_555
C2C C1C 1_555 1_555
C3C C2C 1_555 1_555
H1C C3C 1_555 1_555
C4C C3C 1_555 1_555
C5C C4C 1_555 1_555
H2C C5C 1_555 1_555
C6C C5C 1_555 1_555
C7C C2C 1_555 1_555
H3C C7C 1_555 1_555
C8C O2C 1_555 1_555
C9C C6C 1_555 1_555
O12C Co4C 1_555 1_555
O13C Co4C 1_555 1_555
Co1A N3C 1_555 1_555
Co1A_2 N4 1_555 1_555
Co1B N4C 1_555 1_555
Co1B_2 N3 1_555 1_555
Co1C_2 O8 1_555 1_555
Co2A N2C 1_555 1_555
Co2B N2 1_555 1_555
Co3A O7C 1_555 1_555
Co3B O7 1_555 1_555
Co3D O4 1_555 1_555
Co3G O4C 1_555 1_555
Co4E N6C 1_555 1_555
Co4F O7 1_555 1_555
O4D Co3 1_555 1_555
O4G Co3C 1_555 1_555
O7A Co3C 1_555 1_555
O7B Co3 1_555 1_555
O7E Co4C 1_555 1_555
O7F Co4 1_555 1_555
O8_2 Co1C 1_555 1_555
O9E Co4C 1_555 1_555
O9F Co4 1_555 1_555
N2A Co2C 1_555 1_555
N2B Co2 1_555 1_555
N3A Co1C 1_555 1_555
N3B Co1 1_555 1_555
N4A Co1 1_555 1_555
N4B Co1C 1_555 1_555
N6E Co4C 1_555 1_555
N6F Co4 1_555 1_555
Co2 N7 1_555 1_555
O6 Co3C 1_555 1_555
O9 Co4F 1_555 1_555
N4 C1 1_555 1_555
N6 Co4F 1_555 1_555
C6 C7 1_555 1_555
O6C C15C 1_555 1_555
N5C N6C 1_555 1_555
C12C C13C 1_555 1_555
C13C C15C 1_555 1_555
Co2C N7C 1_555 1_555
O7C Co4E 1_555 1_555
O9C Co4E 1_555 1_555
N4C C1C 1_555 1_555
C4C C8C 1_555 1_555
C6C C7C 1_555 1_555
Co2A O7A 1_555 1_555
Co2B O7B 1_555 1_555
Co3D O7F 1_555 1_555
Co3G O7E 1_555 1_555
N2A N3A 1_555 1_555
N2B N3B 1_555 1_555

#END
