
#######################################################################
#
#                 Cambridge Crystallographic Data Centre
#                                CCDC 
#
#######################################################################
#
# If this CIF has been generated from an entry in the Cambridge 
# Structural Database, then it will include bibliographic, chemical, 
# crystal, experimental, refinement or atomic coordinate data resulting 
# from the CCDC's data processing and validation procedures.
#
#######################################################################

data_UDIFAQ
_symmetry_cell_setting           monoclinic
_symmetry_space_group_name_H-M   'C 2/c'
_symmetry_Int_Tables_number      15
_space_group_name_Hall           '-C 2yn'
loop_
_symmetry_equiv_pos_site_id
_symmetry_equiv_pos_as_xyz
1 x,y,z
2 -x,y,1/2-z
3 1/2+x,1/2+y,z
4 1/2-x,1/2+y,1/2-z
5 -x,-y,-z
6 x,-y,1/2+z
7 1/2-x,1/2-y,-z
8 1/2+x,1/2-y,1/2+z
_cell_length_a                   14.6438(15)
_cell_length_b                   25.7158(16)
_cell_length_c                   7.1582(6)
_cell_angle_alpha                90
_cell_angle_beta                 102.572(6)
_cell_angle_gamma                90
_cell_volume                     2630.98
loop_
_atom_site_label
_atom_site_type_symbol
_atom_site_fract_x
_atom_site_fract_y
_atom_site_fract_z
Zn1 Zn 0.10022(3) 0.992096(17) 0.41612(5)
O1 O 0.07208(17) 0.96958(10) 0.1435(3)
H1 H 0.0890 0.9383 0.1351
O2 O 0.1226(4) 1.34680(15) 0.6929(5)
N1 N 0.1102(2) 1.11597(11) 0.3633(4)
N2 N 0.10347(19) 1.07015(11) 0.2753(4)
N3 N 0.1097(2) 1.07625(11) 0.0953(4)
N4 N 0.1199(2) 1.12670(12) 0.0611(4)
N5 N 0.2550(2) 0.99366(12) 0.4692(4)
C1 C 0.1212(2) 1.15028(14) 0.2293(5)
C2 C 0.1306(3) 1.20665(15) 0.2606(5)
C3 C 0.1549(3) 1.23894(16) 0.1246(6)
H2 H 0.1650 1.2249 0.0112
C4 C 0.1649(4) 1.29216(18) 0.1557(7)
H3 H 0.1809 1.3136 0.0632
C5 C 0.1502(4) 1.31353(17) 0.3236(6)
H4 H 0.1578 1.3491 0.3453
C6 C 0.1252(4) 1.28159(17) 0.4605(6)
C7 C 0.1150(3) 1.22836(16) 0.4281(5)
H5 H 0.0976 1.2071 0.5197
C8 C 0.1095(5) 1.3025(2) 0.6404(7)
H6 H 0.0874 1.2795 0.7207
C9 C 0.3060(4) 0.95210(19) 0.4755(10)
H7 H 0.2764 0.9200 0.4726
C10 C 0.4023(4) 0.95238(19) 0.4893(10)
H8 H 0.4343 0.9211 0.4923
C11 C 0.4492(3) 0.99851(13) 0.4956(5)
C12 C 0.3959(3) 1.04113(18) 0.4928(10)
H9 H 0.4235 1.0738 0.5020
C13 C 0.3006(3) 1.0371(2) 0.4808(10)
H10 H 0.2746 1.0696 0.4549
N5D N 0.7450(2) 1.00634(12) 0.5308(4)
C9D C 0.6940(4) 1.04790(19) 0.5245(10)
H7D H 0.7236 1.0800 0.5274
C10D C 0.5977(4) 1.04762(19) 0.5107(10)
H8D H 0.5657 1.0789 0.5077
C11D C 0.5508(3) 1.00149(13) 0.5044(5)
C12D C 0.6041(3) 0.95887(18) 0.5072(10)
H9D H 0.5765 0.9262 0.4980
C13D C 0.6994(3) 0.9629(2) 0.5192(10)
H10D H 0.7254 0.9304 0.5451
Zn1A Zn -0.10022(3) 0.992096(17) 0.08388(5)
O1A O -0.07208(17) 0.96958(10) 0.3565(3)
H1A H -0.0890 0.9383 0.3649
O2A O -0.1226(4) 1.34680(15) -0.1929(5)
N1A N -0.1102(2) 1.11597(11) 0.1367(4)
N2A N -0.10347(19) 1.07015(11) 0.2247(4)
N3A N -0.1097(2) 1.07625(11) 0.4047(4)
N4A N -0.1199(2) 1.12670(12) 0.4389(4)
C1A C -0.1212(2) 1.15028(14) 0.2707(5)
C2A C -0.1306(3) 1.20665(15) 0.2394(5)
C3A C -0.1549(3) 1.23894(16) 0.3754(6)
H2A H -0.1650 1.2249 0.4888
C4A C -0.1649(4) 1.29216(18) 0.3443(7)
H3A H -0.1809 1.3136 0.4368
C5A C -0.1502(4) 1.31353(17) 0.1764(6)
H4A H -0.1578 1.3491 0.1547
C6A C -0.1252(4) 1.28159(17) 0.0395(6)
C7A C -0.1150(3) 1.22836(16) 0.0719(5)
H5A H -0.0976 1.2071 -0.0197
C8A C -0.1095(5) 1.3025(2) -0.1404(7)
H6A H -0.0874 1.2795 -0.2207
Zn1D Zn -0.10022(3) 1.007904(17) 0.58388(5)
Zn1D_2 Zn 0.89978(3) 1.007904(17) 0.58388(5)
Zn1E Zn 0.10022(3) 1.007904(17) -0.08388(5)
O1D O -0.07208(17) 1.03042(10) -0.1435(3)
O1E O 0.07208(17) 1.03042(10) 0.6435(3)
N3D N -0.1097(2) 0.92375(11) -0.0953(4)
N3E N 0.1097(2) 0.92375(11) 0.5953(4)
N5A N -0.2550(2) 0.99366(12) 0.0308(4)
O3 O 0.0000 1.18286(18) -0.2500
H11 H 0.0390 1.1610 -0.1850
H11A H -0.0390 1.1610 -0.3150
loop_
_geom_bond_atom_site_label_1
_geom_bond_atom_site_label_2
_geom_bond_site_symmetry_1
_geom_bond_site_symmetry_2
Zn1 O1 1_555 1_555
O1 H1 1_555 1_555
O2 C8 1_555 1_555
N1 N2 1_555 1_555
N2 Zn1 1_555 1_555
N3 N2 1_555 1_555
N4 N3 1_555 1_555
N5 Zn1 1_555 1_555
C1 N1 1_555 1_555
C2 C1 1_555 1_555
C3 C2 1_555 1_555
H2 C3 1_555 1_555
C4 C3 1_555 1_555
H3 C4 1_555 1_555
C5 C4 1_555 1_555
H4 C5 1_555 1_555
C6 C5 1_555 1_555
C7 C2 1_555 1_555
H5 C7 1_555 1_555
C8 C6 1_555 1_555
H6 C8 1_555 1_555
C9 N5 1_555 1_555
H7 C9 1_555 1_555
C10 C9 1_555 1_555
H8 C10 1_555 1_555
C11 C10 1_555 1_555
C12 C11 1_555 1_555
H9 C12 1_555 1_555
C13 N5 1_555 1_555
H10 C13 1_555 1_555
O3 H11 1_555 1_555
N5D C9D 1_555 1_555
C9D H7D 1_555 1_555
C10D C9D 1_555 1_555
H8D C10D 1_555 1_555
C11D C11 1_555 1_555
C12D C11D 1_555 1_555
H9D C12D 1_555 1_555
C13D N5D 1_555 1_555
H10D C13D 1_555 1_555
Zn1A O1 1_555 1_555
O1A Zn1 1_555 1_555
H1A O1A 1_555 1_555
O2A C8A 1_555 1_555
N1A N2A 1_555 1_555
N2A Zn1A 1_555 1_555
N3A N2A 1_555 1_555
N4A N3A 1_555 1_555
C1A N1A 1_555 1_555
C2A C1A 1_555 1_555
C3A C2A 1_555 1_555
H2A C3A 1_555 1_555
C4A C3A 1_555 1_555
H3A C4A 1_555 1_555
C5A C4A 1_555 1_555
H4A C5A 1_555 1_555
C6A C5A 1_555 1_555
C7A C2A 1_555 1_555
H5A C7A 1_555 1_555
C8A C6A 1_555 1_555
H6A C8A 1_555 1_555
Zn1D O1A 1_555 1_555
Zn1D_2 N5D 1_555 1_555
Zn1E O1 1_555 1_555
O1D Zn1A 1_555 1_555
O1E Zn1 1_555 1_555
N3D Zn1A 1_555 1_555
N3E Zn1 1_555 1_555
N5A Zn1A 1_555 1_555
H11A O3 1_555 1_555
N3 Zn1E 1_555 1_555
N4 C1 1_555 1_555
C6 C7 1_555 1_555
C12 C13 1_555 1_555
C10D C11D 1_555 1_555
C12D C13D 1_555 1_555
Zn1A O1A 1_555 1_555
N3A Zn1D 1_555 1_555
N4A C1A 1_555 1_555
C6A C7A 1_555 1_555
Zn1D O1E 1_555 1_555
Zn1E O1D 1_555 1_555

#END
