
#######################################################################
#
#                 Cambridge Crystallographic Data Centre
#                                CCDC 
#
#######################################################################
#
# If this CIF has been generated from an entry in the Cambridge 
# Structural Database, then it will include bibliographic, chemical, 
# crystal, experimental, refinement or atomic coordinate data resulting 
# from the CCDC's data processing and validation procedures.
#
#######################################################################

data_UDIFIY
_symmetry_cell_setting           orthorhombic
_symmetry_space_group_name_H-M   'P b c n'
_symmetry_Int_Tables_number      60
_space_group_name_Hall           '-P 2n 2ab'
loop_
_symmetry_equiv_pos_site_id
_symmetry_equiv_pos_as_xyz
1 x,y,z
2 1/2-x,1/2-y,1/2+z
3 1/2+x,1/2-y,-z
4 -x,y,1/2-z
5 -x,-y,-z
6 1/2+x,1/2+y,1/2-z
7 1/2-x,1/2+y,z
8 x,-y,1/2+z
_cell_length_a                   10.232(3)
_cell_length_b                   14.433(4)
_cell_length_c                   22.709(6)
_cell_angle_alpha                90
_cell_angle_beta                 90
_cell_angle_gamma                90
_cell_volume                     3353.63
loop_
_atom_site_label
_atom_site_type_symbol
_atom_site_fract_x
_atom_site_fract_y
_atom_site_fract_z
Zn1 Zn 0.5000 -0.11325(3) -0.7500
Zn2 Zn 0.5000 0.15608(3) -0.7500
O1 O 0.4700(4) -0.2821(3) -0.96985(15)
N1 N 0.3323(2) -0.18049(18) -0.73732(11)
C1 C 0.2767(3) -0.2575(2) -0.75729(11)
N2 N 0.2417(2) -0.13522(17) -0.70477(11)
C2 C 0.3355(3) -0.3288(2) -0.79493(13)
N3 N 0.1347(2) -0.18224(17) -0.70526(11)
C3 C 0.3400(3) -0.4207(2) -0.77604(15)
H1 H 0.3102 -0.4358 -0.7386
N4 N 0.1531(2) -0.26018(17) -0.73791(10)
C4 C 0.3893(4) -0.4892(2) -0.81201(16)
H2 H 0.3938 -0.5501 -0.7987
C5 C 0.4302(3) -0.4684(2) -0.86772(17)
H3 H 0.4608 -0.5149 -0.8925
C6 C 0.4270(3) -0.3754(2) -0.88737(15)
C7 C 0.3799(3) -0.3064(2) -0.85067(13)
H4 H 0.3797 -0.2451 -0.8633
C8 C 0.4676(4) -0.3558(3) -0.94786(17)
H5 H 0.500(3) -0.403(4) -0.981(2)
O2 O 0.7659(3) -0.1745(2) -0.37653(11)
N5 N 0.5815(2) -0.05520(17) -0.63274(10)
C9 C 0.6013(3) 0.02150(19) -0.60025(12)
N6 N 0.5386(3) -0.02382(15) -0.68382(11)
C10 C 0.6458(3) 0.01807(19) -0.53879(13)
N7 N 0.5315(2) 0.06844(16) -0.68238(10)
C11 C 0.6609(3) 0.0990(2) -0.50623(14)
H6 H 0.6454 0.1562 -0.5237
N8 N 0.5712(2) 0.09806(17) -0.62969(10)
C12 C 0.6982(4) 0.0945(2) -0.44689(14)
H7 H 0.7074 0.1486 -0.4252
C13 C 0.7226(3) 0.0108(2) -0.42097(13)
H8 H 0.7496 0.0081 -0.3819
C14 C 0.7070(3) -0.0704(2) -0.45312(14)
C15 C 0.6686(3) -0.0663(2) -0.51180(14)
H9 H 0.6577 -0.1208 -0.5331
C16 C 0.7246(4) -0.1611(3) -0.42532(16)
H10 H 0.7009 -0.2130 -0.4472
O1C O 0.5300(4) -0.2821(3) -0.53015(15)
N1C N 0.6677(2) -0.18049(18) -0.76268(11)
C1C C 0.7233(3) -0.2575(2) -0.74271(11)
N2C N 0.7583(2) -0.13522(17) -0.79523(11)
C2C C 0.6645(3) -0.3288(2) -0.70507(13)
N3C N 0.8653(2) -0.18224(17) -0.79474(11)
C3C C 0.6600(3) -0.4207(2) -0.72396(15)
H1C H 0.6898 -0.4358 -0.7614
N4C N 0.8469(2) -0.26018(17) -0.76209(10)
C4C C 0.6107(4) -0.4892(2) -0.68799(16)
H2C H 0.6062 -0.5501 -0.7013
C5C C 0.5698(3) -0.4684(2) -0.63228(17)
H3C H 0.5392 -0.5149 -0.6075
C6C C 0.5730(3) -0.3754(2) -0.61263(15)
C7C C 0.6201(3) -0.3064(2) -0.64933(13)
H4C H 0.6203 -0.2451 -0.6367
C8C C 0.5324(4) -0.3558(3) -0.55214(17)
H5C H 0.500(3) -0.403(4) -0.519(2)
O2C O 0.2341(3) -0.1745(2) -1.12347(11)
N5C N 0.4185(2) -0.05520(17) -0.86726(10)
C9C C 0.3987(3) 0.02150(19) -0.89975(12)
N6C N 0.4614(3) -0.02382(15) -0.81618(11)
C10C C 0.3542(3) 0.01807(19) -0.96121(13)
N7C N 0.4685(2) 0.06844(16) -0.81762(10)
C11C C 0.3391(3) 0.0990(2) -0.99377(14)
H6C H 0.3546 0.1562 -0.9763
N8C N 0.4288(2) 0.09806(17) -0.87031(10)
C12C C 0.3018(4) 0.0945(2) -1.05311(14)
H7C H 0.2926 0.1486 -1.0748
C13C C 0.2774(3) 0.0108(2) -1.07903(13)
H8C H 0.2504 0.0081 -1.1181
C14C C 0.2930(3) -0.0704(2) -1.04688(14)
C15C C 0.3314(3) -0.0663(2) -0.98820(14)
H9C H 0.3423 -0.1208 -0.9669
C16C C 0.2754(4) -0.1611(3) -1.07468(16)
H10C H 0.2991 -0.2130 -1.0528
Zn2E Zn 0.0000 -0.34392(3) -0.7500
Zn2E_2 Zn 1.0000 -0.34392(3) -0.7500
N4E N 0.6531(2) 0.23982(17) -0.76209(10)
N4F N 0.3469(2) 0.23982(17) -0.73791(10)
O3 O 0.5775(10) -0.3092(5) -1.1007(4)
H11 H 0.623(2) -0.3584(10) -1.0981(16)
H12 H 0.593(5) -0.2803(14) -1.0688(8)
loop_
_geom_bond_atom_site_label_1
_geom_bond_atom_site_label_2
_geom_bond_site_symmetry_1
_geom_bond_site_symmetry_2
Zn1 N1 1_555 1_555
Zn2 N7 1_555 1_555
O1 C8 1_555 1_555
N1 C1 1_555 1_555
C1 C2 1_555 1_555
N2 N1 1_555 1_555
C2 C3 1_555 1_555
N3 N2 1_555 1_555
C3 H1 1_555 1_555
N4 C1 1_555 1_555
C4 C3 1_555 1_555
H2 C4 1_555 1_555
C5 C4 1_555 1_555
H3 C5 1_555 1_555
C6 C5 1_555 1_555
C7 C2 1_555 1_555
H4 C7 1_555 1_555
C8 C6 1_555 1_555
H5 C8 1_555 1_555
O2 C16 1_555 1_555
N5 C9 1_555 1_555
C9 C10 1_555 1_555
N6 Zn1 1_555 1_555
C10 C11 1_555 1_555
N7 N6 1_555 1_555
C11 H6 1_555 1_555
N8 C9 1_555 1_555
C12 C11 1_555 1_555
H7 C12 1_555 1_555
C13 C12 1_555 1_555
H8 C13 1_555 1_555
C14 C13 1_555 1_555
C15 C10 1_555 1_555
H9 C15 1_555 1_555
C16 C14 1_555 1_555
H10 C16 1_555 1_555
O3 H11 1_555 1_555
H12 O3 1_555 1_555
O1C C8C 1_555 1_555
N1C Zn1 1_555 1_555
C1C N1C 1_555 1_555
N2C N1C 1_555 1_555
C2C C1C 1_555 1_555
N3C N2C 1_555 1_555
C3C C2C 1_555 1_555
H1C C3C 1_555 1_555
N4C C1C 1_555 1_555
C4C C3C 1_555 1_555
H2C C4C 1_555 1_555
C5C C4C 1_555 1_555
H3C C5C 1_555 1_555
C6C C5C 1_555 1_555
C7C C2C 1_555 1_555
H4C C7C 1_555 1_555
C8C C6C 1_555 1_555
H5C C8C 1_555 1_555
O2C C16C 1_555 1_555
N5C C9C 1_555 1_555
C9C C10C 1_555 1_555
N6C Zn1 1_555 1_555
C10C C11C 1_555 1_555
N7C Zn2 1_555 1_555
C11C H6C 1_555 1_555
N8C C9C 1_555 1_555
C12C C11C 1_555 1_555
H7C C12C 1_555 1_555
C13C C12C 1_555 1_555
H8C C13C 1_555 1_555
C14C C13C 1_555 1_555
C15C C10C 1_555 1_555
H9C C15C 1_555 1_555
C16C C14C 1_555 1_555
H10C C16C 1_555 1_555
Zn2E N4 1_555 1_555
Zn2E_2 N4C 1_555 1_555
N4E Zn2 1_555 1_555
N4F Zn2 1_555 1_555
N3 N4 1_555 1_555
C6 C7 1_555 1_555
N5 N6 1_555 1_555
N7 N8 1_555 1_555
C14 C15 1_555 1_555
N3C N4C 1_555 1_555
C6C C7C 1_555 1_555
N5C N6C 1_555 1_555
N6C N7C 1_555 1_555
N7C N8C 1_555 1_555
C14C C15C 1_555 1_555

#END
