
#######################################################################
#
#                 Cambridge Crystallographic Data Centre
#                                CCDC 
#
#######################################################################
#
# If this CIF has been generated from an entry in the Cambridge 
# Structural Database, then it will include bibliographic, chemical, 
# crystal, experimental, refinement or atomic coordinate data resulting 
# from the CCDC's data processing and validation procedures.
#
#######################################################################

data_UDIFEU
_symmetry_cell_setting           triclinic
_symmetry_space_group_name_H-M   'P -1'
_symmetry_Int_Tables_number      2
_space_group_name_Hall           '-P 1'
loop_
_symmetry_equiv_pos_site_id
_symmetry_equiv_pos_as_xyz
1 x,y,z
2 -x,-y,-z
_cell_length_a                   11.4833(14)
_cell_length_b                   13.5101(15)
_cell_length_c                   15.1777(17)
_cell_angle_alpha                97.560(3)
_cell_angle_beta                 100.423(4)
_cell_angle_gamma                103.200(5)
_cell_volume                     2217.58
loop_
_atom_site_label
_atom_site_type_symbol
_atom_site_fract_x
_atom_site_fract_y
_atom_site_fract_z
Zn1 Zn -0.03678(3) 0.45243(3) -0.11154(3)
Zn2 Zn -0.16295(3) 0.33983(3) -0.37926(3)
O1 O -0.3659(5) -0.3359(3) -0.3151(4)
O2 O -0.5447(4) 0.2163(4) -0.9692(3)
O3 O 0.1965(5) 1.1124(2) -0.1820(3)
N1 N -0.1996(3) 0.1507(2) -0.2929(2)
N2 N -0.1624(3) 0.2542(2) -0.2775(2)
N3 N -0.0992(3) 0.2893(2) -0.1930(2)
N4 N -0.0946(3) 0.2089(2) -0.1507(2)
N5 N -0.2609(4) 0.3080(3) -0.6528(2)
N6 N -0.2000(4) 0.3546(3) -0.5679(2)
N7 N -0.2127(3) 0.2860(2) -0.5144(2)
N8 N -0.2812(3) 0.1941(2) -0.5613(2)
N9 N -0.0153(3) 0.6290(2) -0.2191(2)
N10 N -0.0555(3) 0.5264(2) -0.23347(19)
N11 N -0.1027(2) 0.4923(2) -0.32120(19)
N12 N -0.0946(3) 0.5717(2) -0.36611(19)
N13 N -0.9703(3) 0.3376(2) -0.3751(2)
N14 N -0.3556(3) 0.3404(2) -0.3826(2)
N15 N -0.8520(3) 0.4483(2) -0.1230(2)
N16 N -0.2342(3) 0.4434(2) -0.12242(19)
N17 N -0.0244(3) 0.4009(2) 0.01715(19)
N18 N -0.0901(3) 0.3214(2) 0.0278(2)
N19 N -0.1555(5) 0.2467(3) 0.0373(3)
C1 C -0.1571(3) 0.1261(2) -0.2131(2)
C2 C -0.1773(3) 0.0195(3) -0.1958(3)
C3 C -0.1336(4) -0.0002(3) -0.1106(3)
H1 H -0.0900 0.0544 -0.0638
C4 C -0.1545(5) -0.0999(4) -0.0938(4)
H2 H -0.1235 -0.1124 -0.0365
C5 C -0.2196(5) -0.1809(4) -0.1623(4)
H3 H -0.2334 -0.2481 -0.1509
C6 C -0.2653(4) -0.1628(3) -0.2477(3)
C7 C -0.2444(4) -0.0622(3) -0.2644(3)
H4 H -0.2749 -0.0497 -0.3218
C8 C -0.3403(6) -0.2461(4) -0.3216(5)
H5 H -0.3687 -0.2289 -0.3774
C9 C -0.3098(4) 0.2104(3) -0.6462(2)
C10 C -0.3897(4) 0.1328(3) -0.7227(3)
C11 C -0.4267(4) 0.0285(3) -0.7168(3)
H6 H -0.3979 0.0070 -0.6632
C12 C -0.5047(5) -0.0426(4) -0.7895(3)
H7 H -0.5264 -0.1122 -0.7851
C13 C -0.5494(4) -0.0118(4) -0.8687(3)
H8 H -0.6033 -0.0595 -0.9170
C14 C -0.5139(4) 0.0914(4) -0.8757(3)
C15 C -0.4342(4) 0.1628(3) -0.8036(3)
H9 H -0.4097 0.2317 -0.8094
C16 C -0.5660(5) 0.1268(5) -0.9591(3)
H10 H -0.6180 0.0771 -1.0069
C17 C -0.0390(3) 0.6543(2) -0.3009(2)
C18 C -0.0075(3) 0.7621(3) -0.3155(2)
C19 C -0.0485(5) 0.7884(3) -0.3983(3)
H11 H -0.0967 0.7374 -0.4465
C20 C -0.0191(6) 0.8904(3) -0.4109(3)
H12 H -0.0467 0.9072 -0.4671
C21 C 0.0514(5) 0.9659(3) -0.3406(3)
H13 H 0.0715 1.0342 -0.3487
C22 C 0.0931(4) 0.9412(3) -0.2573(3)
C23 C 0.0637(4) 0.8391(3) -0.2449(3)
H14 H 0.0915 0.8228 -0.1886
C24 C 0.1663(6) 1.0209(4) -0.1805(4)
H15 H 0.1892 0.9994 -0.1257
C25 C -0.8985(3) 0.4125(3) -0.4054(2)
H16 H -0.9314 0.4643 -0.4259
C26 C -0.7787(3) 0.4155(3) -0.4087(2)
H17 H -0.7320 0.4693 -0.4299
C27 C -0.7278(3) 0.3387(2) -0.3805(2)
C28 C -0.8013(3) 0.2622(3) -0.3472(3)
H18 H -0.7707 0.2092 -0.3267
C29 C -0.9198(3) 0.2641(3) -0.3458(3)
H19 H -0.9677 0.2123 -0.3233
C30 C -0.5996(3) 0.3385(3) -0.3830(2)
C31 C -0.5110(4) 0.4293(3) -0.3742(3)
H20 H -0.5321 0.4920 -0.3687
C32 C -0.3924(3) 0.4272(3) -0.3743(3)
H21 H -0.3342 0.4896 -0.3679
C33 C -0.4418(3) 0.2523(3) -0.3936(3)
H22 H -0.4189 0.1904 -0.4012
C34 C -0.7768(4) 0.5223(3) -0.1507(3)
H23 H -0.8066 0.5766 -0.1690
C35 C -0.6578(4) 0.5230(3) -0.1525(3)
H24 H -0.6091 0.5772 -0.1720
C36 C -0.6093(3) 0.4439(3) -0.1270(2)
C37 C -0.6891(3) 0.3650(3) -0.1015(3)
H25 H -0.6629 0.3081 -0.0858
C38 C -0.8070(3) 0.3703(3) -0.1001(3)
H26 H -0.8582 0.3168 -0.0817
C39 C -0.4802(3) 0.4433(3) -0.1264(2)
C40 C -0.3929(4) 0.5305(3) -0.1307(3)
H27 H -0.4149 0.5921 -0.1350
C41 C -0.2740(4) 0.5274(3) -0.1276(3)
H28 H -0.2174 0.5881 -0.1294
C42 C -0.3181(4) 0.3587(3) -0.1196(3)
H29 H -0.2935 0.2982 -0.1158
C43 C -0.5623(4) 0.2473(3) -0.3942(3)
H30 H -0.6193 0.1838 -0.4028
C44 C -0.4390(4) 0.3555(3) -0.1215(3)
H31 H -0.4938 0.2934 -0.1203
Zn1_2 Zn -1.03678(3) 0.45243(3) -0.11154(3)
Zn1A Zn 0.03678(3) 0.54757(3) 0.11154(3)
Zn2_2 Zn -1.16295(3) 0.33983(3) -0.37926(3)
N13_2 N 0.0297(3) 0.3376(2) -0.3751(2)
N15_2 N 0.1480(3) 0.4483(2) -0.1230(2)
N17A N 0.0244(3) 0.5991(2) -0.01715(19)
O4 O -0.3262(10) 0.0098(4) -0.4826(4)
H32 H -0.3992 -0.0098 -0.5202
H33 H -0.2582 0.0102 -0.5122
loop_
_geom_bond_atom_site_label_1
_geom_bond_atom_site_label_2
_geom_bond_site_symmetry_1
_geom_bond_site_symmetry_2
Zn1 N3 1_555 1_555
Zn2 N2 1_555 1_555
O1 C8 1_555 1_555
O2 C16 1_555 1_555
O3 C24 1_555 1_555
N1 N2 1_555 1_555
N2 N3 1_555 1_555
N3 N4 1_555 1_555
N4 C1 1_555 1_555
N5 N6 1_555 1_555
N6 N7 1_555 1_555
N7 Zn2 1_555 1_555
N8 N7 1_555 1_555
N9 N10 1_555 1_555
N10 Zn1 1_555 1_555
N11 Zn2 1_555 1_555
N12 N11 1_555 1_555
N13 C25 1_555 1_555
N14 Zn2 1_555 1_555
N15 C34 1_555 1_555
N16 Zn1 1_555 1_555
N17 Zn1 1_555 1_555
N18 N17 1_555 1_555
N19 N18 1_555 1_555
C1 N1 1_555 1_555
C2 C1 1_555 1_555
C3 C2 1_555 1_555
H1 C3 1_555 1_555
C4 C3 1_555 1_555
H2 C4 1_555 1_555
C5 C4 1_555 1_555
H3 C5 1_555 1_555
C6 C5 1_555 1_555
C7 C2 1_555 1_555
H4 C7 1_555 1_555
C8 C6 1_555 1_555
H5 C8 1_555 1_555
C9 N5 1_555 1_555
C10 C9 1_555 1_555
C11 C10 1_555 1_555
H6 C11 1_555 1_555
C12 C11 1_555 1_555
H7 C12 1_555 1_555
C13 C12 1_555 1_555
H8 C13 1_555 1_555
C14 C13 1_555 1_555
C15 C10 1_555 1_555
H9 C15 1_555 1_555
C16 C14 1_555 1_555
H10 C16 1_555 1_555
C17 N9 1_555 1_555
C18 C17 1_555 1_555
C19 C18 1_555 1_555
H11 C19 1_555 1_555
C20 C19 1_555 1_555
H12 C20 1_555 1_555
C21 C20 1_555 1_555
H13 C21 1_555 1_555
C22 C21 1_555 1_555
C23 C18 1_555 1_555
H14 C23 1_555 1_555
C24 C22 1_555 1_555
H15 C24 1_555 1_555
C25 H16 1_555 1_555
C26 C25 1_555 1_555
H17 C26 1_555 1_555
C27 C26 1_555 1_555
C28 C27 1_555 1_555
H18 C28 1_555 1_555
C29 N13 1_555 1_555
H19 C29 1_555 1_555
C30 C27 1_555 1_555
C31 C30 1_555 1_555
H20 C31 1_555 1_555
C32 N14 1_555 1_555
H21 C32 1_555 1_555
C33 N14 1_555 1_555
H22 C33 1_555 1_555
C34 H23 1_555 1_555
C35 C34 1_555 1_555
H24 C35 1_555 1_555
C36 C35 1_555 1_555
C37 C36 1_555 1_555
H25 C37 1_555 1_555
C38 N15 1_555 1_555
H26 C38 1_555 1_555
C39 C36 1_555 1_555
C40 C39 1_555 1_555
H27 C40 1_555 1_555
C41 N16 1_555 1_555
H28 C41 1_555 1_555
C42 N16 1_555 1_555
H29 C42 1_555 1_555
C43 C30 1_555 1_555
H30 C43 1_555 1_555
C44 C39 1_555 1_555
H31 C44 1_555 1_555
O4 H32 1_555 1_555
H33 O4 1_555 1_555
Zn1_2 N15 1_555 1_555
Zn1A N17 1_555 1_555
Zn2_2 N13 1_555 1_555
N13_2 Zn2 1_555 1_555
N15_2 Zn1 1_555 1_555
N17A Zn1 1_555 1_555
N8 C9 1_555 1_555
N10 N11 1_555 1_555
N12 C17 1_555 1_555
C6 C7 1_555 1_555
C14 C15 1_555 1_555
C22 C23 1_555 1_555
C28 C29 1_555 1_555
C31 C32 1_555 1_555
C33 C43 1_555 1_555
C37 C38 1_555 1_555
C40 C41 1_555 1_555
C42 C44 1_555 1_555
Zn1A N17A 1_555 1_555

#END
