
#######################################################################
#
#                 Cambridge Crystallographic Data Centre
#                                CCDC 
#
#######################################################################
#
# If this CIF has been generated from an entry in the Cambridge 
# Structural Database, then it will include bibliographic, chemical, 
# crystal, experimental, refinement or atomic coordinate data resulting 
# from the CCDC's data processing and validation procedures.
#
#######################################################################

data_UDIHUM
_symmetry_cell_setting           monoclinic
_symmetry_space_group_name_H-M   'C 2/c'
_symmetry_Int_Tables_number      15
_space_group_name_Hall           '-C 2yn'
loop_
_symmetry_equiv_pos_site_id
_symmetry_equiv_pos_as_xyz
1 x,y,z
2 -x,y,1/2-z
3 1/2+x,1/2+y,z
4 1/2-x,1/2+y,1/2-z
5 -x,-y,-z
6 x,-y,1/2+z
7 1/2-x,1/2-y,-z
8 1/2+x,1/2-y,1/2+z
_cell_length_a                   18.9509(16)
_cell_length_b                   18.9576(16)
_cell_length_c                   22.668(2)
_cell_angle_alpha                90
_cell_angle_beta                 101.8700(10)
_cell_angle_gamma                90
_cell_volume                     7969.65
loop_
_atom_site_label
_atom_site_type_symbol
_atom_site_fract_x
_atom_site_fract_y
_atom_site_fract_z
C1 C 0.94432(14) -0.04783(13) 0.35410(11)
C2 C 0.91501(15) -0.00407(14) 0.40220(12)
C3 C 0.89415(15) -0.11140(14) 0.33431(12)
C4 C 1.02086(14) -0.07525(13) 0.37934(11)
C5 C 1.04669(15) -0.09381(14) 0.43952(12)
H1 H 1.0154 -0.0922 0.4672
C6 C 1.11788(16) -0.11458(15) 0.45904(12)
H2 H 1.1351 -0.1258 0.5003
C7 C 1.16399(15) -0.11912(15) 0.41926(13)
H3 H 1.2127 -0.1334 0.4330
C8 C 1.13821(15) -0.10250(14) 0.35870(12)
H4 H 1.1693 -0.1062 0.3309
C9 C 1.06776(14) -0.08078(14) 0.33883(12)
H5 H 1.0508 -0.0695 0.2975
C10 C 1.10669(14) 0.16835(13) 0.35523(11)
C11 C 1.14658(14) 0.23229(14) 0.33547(12)
C12 C 1.16022(14) 0.12469(14) 0.40308(12)
C13 C 1.04305(14) 0.19588(13) 0.38154(11)
C14 C 0.97618(14) 0.20211(13) 0.34190(12)
H6 H 0.9720 0.1909 0.3005
C15 C 0.91599(15) 0.22443(14) 0.36254(13)
H7 H 0.8709 0.2282 0.3352
C16 C 0.92102(15) 0.24131(15) 0.42290(13)
H8 H 0.8795 0.2560 0.4371
C17 C 0.98744(16) 0.23641(16) 0.46224(13)
H9 H 0.9914 0.2484 0.5035
C18 C 1.04816(16) 0.21419(15) 0.44197(12)
H10 H 1.0934 0.2114 0.4693
C19 C 0.63357(13) 0.14165(13) 0.35649(11)
C20 C 0.69289(14) 0.18665(14) 0.33706(12)
C21 C 0.60076(15) 0.18310(14) 0.40359(12)
C22 C 0.66691(13) 0.07162(13) 0.38283(11)
C23 C 0.66385(14) 0.01450(14) 0.34332(12)
H11 H 0.6428 0.0205 0.3018
C24 C 0.69129(15) -0.05084(15) 0.36406(13)
H12 H 0.6888 -0.0893 0.3368
C25 C 0.72246(15) -0.06000(15) 0.42460(13)
H13 H 0.7404 -0.1049 0.4391
C26 C 0.72717(15) -0.00361(16) 0.46364(13)
H14 H 0.7493 -0.0097 0.5049
C27 C 0.69990(15) 0.06174(15) 0.44328(12)
H15 H 0.7037 0.1002 0.4706
C28 C 0.58342(14) -0.02029(14) 0.14672(11)
C29 C 0.52854(15) -0.06140(14) 0.09844(12)
C30 C 0.65194(15) -0.06529(15) 0.16700(12)
C31 C 0.60460(13) 0.05034(14) 0.12166(11)
C32 C 0.60817(14) 0.06128(15) 0.06147(12)
H16 H 0.5997 0.0231 0.0337
C33 C 0.62415(15) 0.12785(16) 0.04189(12)
H17 H 0.6253 0.1352 0.0006
C34 C 0.63830(15) 0.18347(15) 0.08215(13)
H18 H 0.6489 0.2289 0.0686
C35 C 0.63696(15) 0.17253(14) 0.14256(12)
H19 H 0.6476 0.2104 0.1705
C36 C 0.62016(14) 0.10662(14) 0.16223(12)
H20 H 0.6192 0.0996 0.2035
Cu1 Cu 1.013666(16) 0.060465(16) 0.307623(13)
Cu2 Cu 0.514210(16) 0.060391(16) 0.307606(13)
F1 F 0.85291(9) 0.02883(9) 0.37671(7)
F2 F 0.96202(9) 0.04656(9) 0.42442(7)
F3 F 0.90100(9) -0.04094(9) 0.44857(7)
F4 F 0.82742(9) -0.09199(9) 0.30695(8)
F5 F 0.91949(9) -0.15087(8) 0.29330(7)
F6 F 0.88780(10) -0.15494(9) 0.37901(8)
F7 F 1.10064(9) 0.27113(8) 0.29417(7)
F8 F 1.17485(10) 0.27632(9) 0.37976(8)
F9 F 1.19961(9) 0.21282(9) 0.30786(8)
F10 F 1.19832(9) 0.16246(9) 0.44895(7)
F11 F 1.20885(8) 0.09128(9) 0.37722(7)
F12 F 1.12500(9) 0.07498(9) 0.42696(7)
F13 F 0.72222(8) 0.15063(9) 0.29643(7)
F14 F 0.66710(9) 0.24638(9) 0.30934(8)
F15 F 0.74741(9) 0.20395(10) 0.38208(8)
F16 F 0.55639(9) 0.14235(9) 0.42711(7)
F17 F 0.56110(9) 0.23828(8) 0.37764(7)
F18 F 0.64919(9) 0.21017(9) 0.45004(7)
F19 F 0.47232(8) -0.02002(9) 0.07558(7)
F20 F 0.50133(9) -0.11714(9) 0.12356(7)
F21 F 0.55454(9) -0.08687(9) 0.05220(7)
F22 F 0.70077(8) -0.02979(9) 0.20841(7)
F23 F 0.68533(9) -0.08239(10) 0.12258(8)
F24 F 0.63898(9) -0.12543(9) 0.19394(8)
K1 K 0.82142(3) 0.06128(3) 0.24977(3)
K2 K 0.5000 0.23836(4) 0.2500
K3 K 0.5000 -0.11851(4) 0.2500
O1 O 0.93978(9) -0.00549(9) 0.30409(8)
O2 O 1.08618(9) 0.12647(9) 0.30549(8)
O3 O 0.57969(9) 0.13363(9) 0.30608(8)
O4 O 0.55278(9) -0.01246(9) 0.19645(8)
C1A C 0.05568(14) -0.04783(13) 0.14590(11)
C2A C 0.08499(15) -0.00407(14) 0.09780(12)
C3A C 0.10585(15) -0.11140(14) 0.16569(12)
C4A C -0.02086(14) -0.07525(13) 0.12066(11)
C5A C -0.04669(15) -0.09381(14) 0.06048(12)
H1A H -0.0154 -0.0922 0.0328
C6A C -0.11788(16) -0.11458(15) 0.04096(12)
H2A H -0.1351 -0.1258 -0.0003
C7A C -0.16399(15) -0.11912(15) 0.08074(13)
H3A H -0.2127 -0.1334 0.0670
C8A C -0.13821(15) -0.10250(14) 0.14130(12)
H4A H -0.1693 -0.1062 0.1691
C9A C -0.06776(14) -0.08078(14) 0.16117(12)
H5A H -0.0508 -0.0695 0.2025
C10A C -0.10669(14) 0.16835(13) 0.14477(11)
C11A C -0.14658(14) 0.23229(14) 0.16453(12)
C12A C -0.16022(14) 0.12469(14) 0.09692(12)
C13A C -0.04305(14) 0.19588(13) 0.11846(11)
C14A C 0.02382(14) 0.20211(13) 0.15810(12)
H6A H 0.0280 0.1909 0.1995
C15A C 0.08401(15) 0.22443(14) 0.13746(13)
H7A H 0.1291 0.2282 0.1648
C16A C 0.07898(15) 0.24131(15) 0.07710(13)
H8A H 0.1205 0.2560 0.0629
C17A C 0.01256(16) 0.23641(16) 0.03776(13)
H9A H 0.0086 0.2484 -0.0035
C18A C -0.04816(16) 0.21419(15) 0.05803(12)
H10A H -0.0934 0.2114 0.0307
C19A C 0.36643(13) 0.14165(13) 0.14351(11)
C20A C 0.30711(14) 0.18665(14) 0.16294(12)
C21A C 0.39924(15) 0.18310(14) 0.09641(12)
C22A C 0.33309(13) 0.07162(13) 0.11717(11)
C23A C 0.33615(14) 0.01450(14) 0.15668(12)
H11A H 0.3572 0.0205 0.1982
C24A C 0.30871(15) -0.05084(15) 0.13594(13)
H12A H 0.3112 -0.0893 0.1632
C25A C 0.27754(15) -0.06000(15) 0.07540(13)
H13A H 0.2596 -0.1049 0.0609
C26A C 0.27283(15) -0.00361(16) 0.03636(13)
H14A H 0.2507 -0.0097 -0.0049
C27A C 0.30010(15) 0.06174(15) 0.05672(12)
H15A H 0.2963 0.1002 0.0294
C28A C 0.41658(14) -0.02029(14) 0.35328(11)
C29A C 0.47146(15) -0.06140(14) 0.40156(12)
C30A C 0.34806(15) -0.06529(15) 0.33300(12)
C31A C 0.39540(13) 0.05034(14) 0.37834(11)
C32A C 0.39183(14) 0.06128(15) 0.43853(12)
H16A H 0.4003 0.0231 0.4663
C33A C 0.37585(15) 0.12785(16) 0.45811(12)
H17A H 0.3747 0.1352 0.4994
C34A C 0.36170(15) 0.18347(15) 0.41785(13)
H18A H 0.3511 0.2289 0.4314
C35A C 0.36304(15) 0.17253(14) 0.35744(12)
H19A H 0.3524 0.2104 0.3295
C36A C 0.37984(14) 0.10662(14) 0.33777(12)
H20A H 0.3808 0.0996 0.2965
Cu1A Cu -0.013666(16) 0.060465(16) 0.192377(13)
Cu2A Cu 0.485790(16) 0.060391(16) 0.192394(13)
F1A F 0.14709(9) 0.02883(9) 0.12329(7)
F2A F 0.03798(9) 0.04656(9) 0.07558(7)
F3A F 0.09900(9) -0.04094(9) 0.05143(7)
F4A F 0.17258(9) -0.09199(9) 0.19305(8)
F5A F 0.08051(9) -0.15087(8) 0.20670(7)
F6A F 0.11220(10) -0.15494(9) 0.12099(8)
F7A F -0.10064(9) 0.27113(8) 0.20583(7)
F8A F -0.17485(10) 0.27632(9) 0.12024(8)
F9A F -0.19961(9) 0.21282(9) 0.19214(8)
F10A F -0.19832(9) 0.16246(9) 0.05105(7)
F11A F -0.20885(8) 0.09128(9) 0.12278(7)
F12A F -0.12500(9) 0.07498(9) 0.07304(7)
F13A F 0.27778(8) 0.15063(9) 0.20357(7)
F14A F 0.33290(9) 0.24638(9) 0.19066(8)
F15A F 0.25259(9) 0.20395(10) 0.11792(8)
F16A F 0.44361(9) 0.14235(9) 0.07289(7)
F17A F 0.43890(9) 0.23828(8) 0.12236(7)
F18A F 0.35081(9) 0.21017(9) 0.04996(7)
F19A F 0.52768(8) -0.02002(9) 0.42442(7)
F20A F 0.49867(9) -0.11714(9) 0.37644(7)
F21A F 0.44546(9) -0.08687(9) 0.44780(7)
F22A F 0.29923(8) -0.02979(9) 0.29159(7)
F23A F 0.31467(9) -0.08239(10) 0.37742(8)
F24A F 0.36102(9) -0.12543(9) 0.30606(8)
K1A K 0.17858(3) 0.06128(3) 0.25023(3)
O1A O 0.06022(9) -0.00549(9) 0.19591(8)
O2A O -0.08618(9) 0.12647(9) 0.19451(8)
O3A O 0.42031(9) 0.13363(9) 0.19392(8)
O4A O 0.44722(9) -0.01246(9) 0.30355(8)
Cu1_2 Cu 0.013666(16) 0.060465(16) 0.307623(13)
Cu1A_2 Cu 0.986334(16) 0.060465(16) 0.192377(13)
F5B F 0.41949(9) 0.34913(8) 0.29330(7)
F5C F 0.58051(9) 0.34913(8) 0.20670(7)
F7B F 0.60064(9) -0.22887(8) 0.29417(7)
F7C F 0.39936(9) -0.22887(8) 0.20583(7)
F9_2 F 0.19961(9) 0.21282(9) 0.30786(8)
F9A_2 F 0.80039(9) 0.21282(9) 0.19214(8)
F11_2 F 0.20885(8) 0.09128(9) 0.37722(7)
F11A_2 F 0.79115(8) 0.09128(9) 0.12278(7)
K1_2 K -0.17858(3) 0.06128(3) 0.24977(3)
K1A_2 K 1.17858(3) 0.06128(3) 0.25023(3)
K2B K 0.0000 -0.26164(4) 0.2500
K2B_2 K 1.0000 -0.26164(4) 0.2500
K3B K 0.0000 0.38149(4) 0.2500
K3B_2 K 1.0000 0.38149(4) 0.2500
O2_2 O 0.08618(9) 0.12647(9) 0.30549(8)
O2A_2 O 0.91382(9) 0.12647(9) 0.19451(8)
O5 O 0.7650(8) 0.3201(7) 0.3077(7)
O6 O 0.7343(9) 0.3205(8) 0.1922(7)
loop_
_geom_bond_atom_site_label_1
_geom_bond_atom_site_label_2
_geom_bond_site_symmetry_1
_geom_bond_site_symmetry_2
C1 C2 1_555 1_555
C2 F1 1_555 1_555
C3 C1 1_555 1_555
C4 C1 1_555 1_555
C5 C4 1_555 1_555
H1 C5 1_555 1_555
C6 C5 1_555 1_555
H2 C6 1_555 1_555
C7 C6 1_555 1_555
H3 C7 1_555 1_555
C8 C7 1_555 1_555
H4 C8 1_555 1_555
C9 C4 1_555 1_555
H5 C9 1_555 1_555
C10 C11 1_555 1_555
C11 F7 1_555 1_555
C12 C10 1_555 1_555
C13 C10 1_555 1_555
C14 C13 1_555 1_555
H6 C14 1_555 1_555
C15 C14 1_555 1_555
H7 C15 1_555 1_555
C16 C15 1_555 1_555
H8 C16 1_555 1_555
C17 C16 1_555 1_555
H9 C17 1_555 1_555
C18 C13 1_555 1_555
H10 C18 1_555 1_555
C19 C20 1_555 1_555
C20 F13 1_555 1_555
C21 C19 1_555 1_555
C22 C19 1_555 1_555
C23 C22 1_555 1_555
H11 C23 1_555 1_555
C24 C23 1_555 1_555
H12 C24 1_555 1_555
C25 C24 1_555 1_555
H13 C25 1_555 1_555
C26 C25 1_555 1_555
H14 C26 1_555 1_555
C27 C22 1_555 1_555
H15 C27 1_555 1_555
C28 C29 1_555 1_555
C29 F19 1_555 1_555
C30 C28 1_555 1_555
C31 C28 1_555 1_555
C32 C31 1_555 1_555
H16 C32 1_555 1_555
C33 C32 1_555 1_555
H17 C33 1_555 1_555
C34 C33 1_555 1_555
H18 C34 1_555 1_555
C35 C34 1_555 1_555
H19 C35 1_555 1_555
C36 C31 1_555 1_555
H20 C36 1_555 1_555
Cu1 O1 1_555 1_555
Cu2 O3 1_555 1_555
F1 K1 1_555 1_555
F2 C2 1_555 1_555
F3 C2 1_555 1_555
F4 C3 1_555 1_555
F5 C3 1_555 1_555
F6 C3 1_555 1_555
F7 K3B_2 1_555 1_555
F8 C11 1_555 1_555
F9 C11 1_555 1_555
F10 C12 1_555 1_555
F11 C12 1_555 1_555
F12 C12 1_555 1_555
F13 K1 1_555 1_555
F14 C20 1_555 1_555
F15 C20 1_555 1_555
F16 C21 1_555 1_555
F17 C21 1_555 1_555
F18 C21 1_555 1_555
F20 C29 1_555 1_555
F21 C29 1_555 1_555
F22 C30 1_555 1_555
F23 C30 1_555 1_555
F24 C30 1_555 1_555
K1 F4 1_555 1_555
K2 F14 1_555 1_555
K3 F20 1_555 1_555
O1 C1 1_555 1_555
O2 C10 1_555 1_555
O3 C19 1_555 1_555
O4 C28 1_555 1_555
C1A C2A 1_555 1_555
C2A F1A 1_555 1_555
C3A C1A 1_555 1_555
C4A C1A 1_555 1_555
C5A C4A 1_555 1_555
H1A C5A 1_555 1_555
C6A C5A 1_555 1_555
H2A C6A 1_555 1_555
C7A C6A 1_555 1_555
H3A C7A 1_555 1_555
C8A C7A 1_555 1_555
H4A C8A 1_555 1_555
C9A C4A 1_555 1_555
H5A C9A 1_555 1_555
C10A C11A 1_555 1_555
C11A F7A 1_555 1_555
C12A C10A 1_555 1_555
C13A C10A 1_555 1_555
C14A C13A 1_555 1_555
H6A C14A 1_555 1_555
C15A C14A 1_555 1_555
H7A C15A 1_555 1_555
C16A C15A 1_555 1_555
H8A C16A 1_555 1_555
C17A C16A 1_555 1_555
H9A C17A 1_555 1_555
C18A C13A 1_555 1_555
H10A C18A 1_555 1_555
C19A C20A 1_555 1_555
C20A F13A 1_555 1_555
C21A C19A 1_555 1_555
C22A C19A 1_555 1_555
C23A C22A 1_555 1_555
H11A C23A 1_555 1_555
C24A C23A 1_555 1_555
H12A C24A 1_555 1_555
C25A C24A 1_555 1_555
H13A C25A 1_555 1_555
C26A C25A 1_555 1_555
H14A C26A 1_555 1_555
C27A C22A 1_555 1_555
H15A C27A 1_555 1_555
C28A C29A 1_555 1_555
C29A F19A 1_555 1_555
C30A C28A 1_555 1_555
C31A C28A 1_555 1_555
C32A C31A 1_555 1_555
H16A C32A 1_555 1_555
C33A C32A 1_555 1_555
H17A C33A 1_555 1_555
C34A C33A 1_555 1_555
H18A C34A 1_555 1_555
C35A C34A 1_555 1_555
H19A C35A 1_555 1_555
C36A C31A 1_555 1_555
H20A C36A 1_555 1_555
Cu1A O1A 1_555 1_555
Cu2A Cu2 1_555 1_555
F1A K1A 1_555 1_555
F2A C2A 1_555 1_555
F3A C2A 1_555 1_555
F4A C3A 1_555 1_555
F5A C3A 1_555 1_555
F6A C3A 1_555 1_555
F7A K3B 1_555 1_555
F8A C11A 1_555 1_555
F9A C11A 1_555 1_555
F10A C12A 1_555 1_555
F11A C12A 1_555 1_555
F12A C12A 1_555 1_555
F13A K1A 1_555 1_555
F14A K2 1_555 1_555
F15A C20A 1_555 1_555
F16A C21A 1_555 1_555
F17A K2 1_555 1_555
F18A C21A 1_555 1_555
F20A K3 1_555 1_555
F21A C29A 1_555 1_555
F22A C30A 1_555 1_555
F23A C30A 1_555 1_555
F24A K3 1_555 1_555
K1A F4A 1_555 1_555
O1A C1A 1_555 1_555
O2A C10A 1_555 1_555
O3A K2 1_555 1_555
O4A Cu2 1_555 1_555
Cu1_2 Cu1A 1_555 1_555
Cu1A_2 Cu1 1_555 1_555
F5B K2 1_555 1_555
F5C K2 1_555 1_555
F7B K3 1_555 1_555
F7C K3 1_555 1_555
F9_2 K1A 1_555 1_555
F9A_2 K1 1_555 1_555
F11_2 K1A 1_555 1_555
F11A_2 K1 1_555 1_555
K1_2 F9A 1_555 1_555
K1A_2 F9 1_555 1_555
K2B F5A 1_555 1_555
K2B_2 F5 1_555 1_555
O2_2 K1A 1_555 1_555
O2A_2 K1 1_555 1_555
C8 C9 1_555 1_555
C17 C18 1_555 1_555
C26 C27 1_555 1_555
C35 C36 1_555 1_555
Cu1 O2 1_555 1_555
F11 K1A_2 1_555 1_555
F17 K2 1_555 1_555
F22 K1 1_555 1_555
F24 K3 1_555 1_555
K1 O1 1_555 1_555
K2 O3 1_555 1_555
K3 O4 1_555 1_555
K3 O4A 1_555 1_555
O2 K1A_2 1_555 1_555
O4 Cu2A 1_555 1_555
C8A C9A 1_555 1_555
C17A C18A 1_555 1_555
C19A O3A 1_555 1_555
C20A F14A 1_555 1_555
C21A F17A 1_555 1_555
C26A C27A 1_555 1_555
C28A O4A 1_555 1_555
C29A F20A 1_555 1_555
C30A F24A 1_555 1_555
C35A C36A 1_555 1_555
Cu1A O2A 1_555 1_555
Cu2A O3A 1_555 1_555
F11A K1_2 1_555 1_555
F22A K1A 1_555 1_555
K1A O1A 1_555 1_555
O2A K1_2 1_555 1_555
Cu1_2 O2_2 1_555 1_555
Cu1A_2 O2A_2 1_555 1_555

#END
