
#######################################################################
#
#                 Cambridge Crystallographic Data Centre
#                                CCDC 
#
#######################################################################
#
# If this CIF has been generated from an entry in the Cambridge 
# Structural Database, then it will include bibliographic, chemical, 
# crystal, experimental, refinement or atomic coordinate data resulting 
# from the CCDC's data processing and validation procedures.
#
#######################################################################

data_UDIHIZ
_symmetry_cell_setting           hexagonal
_symmetry_space_group_name_H-M   'P 61 2 2'
_symmetry_Int_Tables_number      178
_space_group_name_Hall           "P 61 2' (0,0,5)"
loop_
_symmetry_equiv_pos_site_id
_symmetry_equiv_pos_as_xyz
1 x,y,z
2 -y,x-y,1/3+z
3 -x+y,-x,2/3+z
4 -x,-y,1/2+z
5 y,-x+y,5/6+z
6 x-y,x,1/6+z
7 y,x,1/3-z
8 x-y,-y,-z
9 -x,-x+y,2/3-z
10 -y,-x,5/6-z
11 -x+y,y,1/2-z
12 x,x-y,1/6-z
_cell_length_a                   12.7819(6)
_cell_length_b                   12.7819(6)
_cell_length_c                   85.294(4)
_cell_angle_alpha                90
_cell_angle_beta                 90
_cell_angle_gamma                120
_cell_volume                     12068.1
loop_
_atom_site_label
_atom_site_type_symbol
_atom_site_fract_x
_atom_site_fract_y
_atom_site_fract_z
C21 C 0.7296(13) 0.9865(15) 0.89440(16)
O28 O 0.6527(11) 0.9260(11) 0.90509(13)
O29 O 0.7051(13) 1.0494(13) 0.88547(16)
O30 O 0.8078(17) 0.9576(18) 0.89066(19)
O31 O 0.9222(14) 0.7370(15) 0.86111(16)
O32 O 1.0559(15) 1.0594(13) 0.96671(16)
O33 O 1.467(2) 0.9386(19) 0.9243(2)
O34 O 0.6970(19) 0.1436(18) 0.9321(2)
Nd1 Nd 0.47516(4) 0.52484(4) 0.9167
Nd2 Nd 0.47148(6) 0.45832(7) 0.995278(6)
Nd3 Nd 0.61324(6) 0.40872(6) 0.953673(6)
Nd4 Nd 0.30613(6) 0.34102(7) 1.040570(7)
O1 O 0.3545(7) 0.5402(7) 0.98346(7)
O2 O 0.4600(7) 0.4615(7) 0.96486(7)
O3 O 0.4003(7) 0.5152(7) 0.94316(7)
O4 O 0.6497(7) 0.5096(9) 1.01153(8)
O5 O 0.5032(9) 0.4293(8) 1.02901(10)
C1 C 0.3432(11) 0.5613(11) 0.96713(11)
C2 C 0.4057(11) 0.5053(12) 0.95738(13)
C3 C 0.2120(10) 0.5024(13) 0.96233(11)
H1 H 0.1785 0.4157 0.9615
H2 H 0.2060 0.5322 0.9521
C4 C 0.6101(12) 0.4706(13) 1.02573(14)
C5 C 0.4124(12) 0.7005(11) 0.96447(13)
H3 H 0.3672 0.7346 0.9690
H4 H 0.4223 0.7172 0.9534
H5 H 0.4903 0.7355 0.9694
O6 O 0.6586(7) 0.7319(7) 0.91604(8)
O7 O 0.6438(7) 0.5769(7) 0.93616(7)
O8 O 0.2005(8) 0.3595(8) 1.06291(8)
O9 O 0.6526(7) 0.5246(7) 0.90338(7)
O10 O 0.4123(7) 0.2233(7) 0.94993(8)
C6 C 0.7772(12) 0.7469(12) 0.91972(13)
C7 C 0.7479(12) 0.6453(11) 0.93195(12)
C8 C 0.8299(10) 0.7259(10) 0.90509(12)
H6 H 0.9050 0.7286 0.9078
H7 H 0.8490 0.7913 0.8978
C9 C 0.7485(12) 0.6078(13) 0.89702(13)
C10 C 0.8569(12) 0.8683(11) 0.92682(13)
H8 H 0.8643 0.9300 0.9197
H9 H 0.9354 0.8783 0.9288
H10 H 0.8223 0.8746 0.9365
O11 O 0.1006(8) 0.1769(8) 1.03270(9)
O12 O 0.6391(7) 0.6376(7) 0.98539(8)
O13 O 0.7443(7) 0.6065(7) 0.96673(8)
O14 O 0.2829(7) 0.3537(8) 1.01160(8)
O15 O 0.2619(8) 0.2718(8) 0.98869(9)
C11 C 0.0368(10) 0.1987(12) 1.02040(12)
C12 C 0.7291(13) 0.6684(12) 0.97709(12)
C13 C 0.0856(12) 0.1900(11) 1.00423(12)
H11 H 0.0683 0.1075 1.0028
H12 H 0.0410 0.2056 0.9963
C14 C 0.2169(11) 0.2722(10) 1.00137(12)
C15 C -0.0959(13) 0.1115(12) 1.02186(14)
H13 H -0.1100 0.0303 1.0217
H14 H -0.1378 0.1229 1.0133
H15 H -0.1250 0.1253 1.0316
O16 O 0.6239(8) 0.2248(8) 0.96086(8)
O17 O 0.8100(7) 0.4390(7) 0.96474(8)
O18 O 0.4763(7) 0.6106(8) 1.01272(8)
O19 O 0.5768(7) 0.3643(7) 0.98129(8)
O20 O 0.4824(8) 0.2652(9) 1.00216(9)
C16 C 0.6925(11) 0.2362(11) 0.97481(12)
C17 C 0.7992(11) 0.3656(12) 0.97565(12)
C18 C 0.6068(12) 0.2030(12) 0.98940(12)
H16 H 0.5426 0.1196 0.9885
H17 H 0.6523 0.2104 0.9988
C19 C 0.5533(11) 0.2811(12) 0.99076(13)
C20 C 0.7414(15) 0.1474(14) 0.97484(15)
H18 H 0.6766 0.0671 0.9727
H19 H 0.7758 0.1491 0.9849
H20 H 0.8024 0.1707 0.9669
N1 N 0.3376(17) 0.1678(15) 1.0614(2)
O21 O 0.2899(10) 0.5601(11) 0.91306(13)
O22 O 0.7145(8) 0.3686(8) 0.93164(8)
O23 O 0.4517(10) 0.4933(9) 1.06151(9)
O24 O 0.3243(10) 0.1730(10) 1.02690(12)
O25 O 0.4265(16) 0.2671(13) 1.05811(17)
O26 O 0.2385(12) 0.1538(13) 1.05822(14)
O27 O 0.3471(19) 0.094(2) 1.0700(3)
Nd3I Nd 0.59128(6) 0.38676(6) 0.879660(6)
Nd4G Nd 0.96511(9) 0.65898(7) 0.959430(7)
O3I O 0.4848(7) 0.5997(7) 0.89017(7)
C3G C 0.7096(16) 0.4976(13) 1.03767(11)
C4G C 0.1395(18) 0.5294(13) 0.97427(14)
O6I O 0.2681(7) 0.3414(7) 0.91729(8)
O7I O 0.4231(7) 0.3562(7) 0.89717(7)
O8G O 0.8410(11) 0.6405(8) 0.93709(8)
O9I O 0.4754(7) 0.3474(7) 0.92995(7)
O10I O 0.7767(7) 0.5877(7) 0.88340(8)
C7G C 0.1026(16) 0.3547(11) 1.06805(12)
C9I C 0.3922(13) 0.2515(12) 0.93631(13)
O13G O 0.1378(10) 0.3935(7) 1.03327(8)
C11G C 0.8381(16) 0.8013(12) 0.97960(12)
C12G C 0.0607(18) 0.3316(12) 1.02291(12)
O17G O 0.3710(10) 0.5610(7) 1.03526(8)
O18G O 0.8657(11) 0.3894(8) 0.98728(8)
C17G C 0.4336(16) 0.6344(12) 1.02435(12)
O21I O 0.4399(11) 0.7101(10) 0.92027(13)
loop_
_geom_bond_atom_site_label_1
_geom_bond_atom_site_label_2
_geom_bond_site_symmetry_1
_geom_bond_site_symmetry_2
Nd1 O3 1_555 1_555
Nd2 O1 1_555 1_555
Nd3 O2 1_555 1_555
Nd4 O5 1_555 1_555
O1 C1 1_555 1_555
O2 Nd2 1_555 1_555
O3 C2 1_555 1_555
O4 Nd2 1_555 1_555
O5 C4 1_555 1_555
C1 C2 1_555 1_555
C2 O2 1_555 1_555
C3 C1 1_555 1_555
H1 C3 1_555 1_555
H2 C3 1_555 1_555
C4 O4 1_555 1_555
C5 C1 1_555 1_555
H3 C5 1_555 1_555
H4 C5 1_555 1_555
H5 C5 1_555 1_555
O6 Nd1 1_555 1_555
O7 Nd1 1_555 1_555
O8 Nd4 1_555 1_555
O9 Nd1 1_555 1_555
O10 Nd3 1_555 1_555
C6 O6 1_555 1_555
C7 O7 1_555 1_555
C8 C6 1_555 1_555
H6 C8 1_555 1_555
H7 C8 1_555 1_555
C9 O9 1_555 1_555
C10 C6 1_555 1_555
H8 C10 1_555 1_555
H9 C10 1_555 1_555
H10 C10 1_555 1_555
O11 Nd4 1_555 1_555
O12 Nd2 1_555 1_555
O13 Nd3 1_555 1_555
O14 Nd2 1_555 1_555
O15 Nd2 1_555 1_555
C11 O11 1_555 1_555
C12 O12 1_555 1_555
C13 C11 1_555 1_555
H11 C13 1_555 1_555
H12 C13 1_555 1_555
C14 O14 1_555 1_555
C15 C11 1_555 1_555
H13 C15 1_555 1_555
H14 C15 1_555 1_555
H15 C15 1_555 1_555
O16 Nd3 1_555 1_555
O17 Nd3 1_555 1_555
O18 Nd2 1_555 1_555
O19 Nd2 1_555 1_555
O20 Nd2 1_555 1_555
C16 O16 1_555 1_555
C17 O17 1_555 1_555
C18 C16 1_555 1_555
H16 C18 1_555 1_555
H17 C18 1_555 1_555
C19 O19 1_555 1_555
C20 C16 1_555 1_555
H18 C20 1_555 1_555
H19 C20 1_555 1_555
H20 C20 1_555 1_555
N1 O25 1_555 1_555
C21 O28 1_555 1_555
O21 Nd1 1_555 1_555
O22 Nd3 1_555 1_555
O23 Nd4 1_555 1_555
O24 Nd4 1_555 1_555
O25 Nd4 1_555 1_555
O26 Nd4 1_555 1_555
O27 N1 1_555 1_555
O29 C21 1_555 1_555
O30 C21 1_555 1_555
Nd3I O9 1_555 1_555
Nd4G O13 1_555 1_555
O3I Nd1 1_555 1_555
C3G C4 1_555 1_555
C4G C3 1_555 1_555
O6I Nd1 1_555 1_555
O7I Nd1 1_555 1_555
O8G C7 1_555 1_555
O9I Nd1 1_555 1_555
O10I C9 1_555 1_555
C7G O8 1_555 1_555
C9I O10 1_555 1_555
O13G Nd4 1_555 1_555
C11G C12 1_555 1_555
C12G C11 1_555 1_555
O17G Nd4 1_555 1_555
O18G C17 1_555 1_555
C17G O18 1_555 1_555
O21I Nd1 1_555 1_555
Nd3 O7 1_555 1_555
Nd3 O19 1_555 1_555
Nd3 O9I 1_555 1_555
Nd4 O14 1_555 1_555
C6 C7 1_555 1_555
C8 C9 1_555 1_555
O13 C12 1_555 1_555
O15 C14 1_555 1_555
C13 C14 1_555 1_555
O17 Nd4G 1_555 1_555
O20 C19 1_555 1_555
C16 C17 1_555 1_555
C18 C19 1_555 1_555
N1 O26 1_555 1_555
Nd3I O7I 1_555 1_555
Nd3I O10I 1_555 1_555
Nd4G O8G 1_555 1_555
O9I C9I 1_555 1_555
O13G C12G 1_555 1_555
O17G C17G 1_555 1_555

#END
