
#######################################################################
#
#                 Cambridge Crystallographic Data Centre
#                                CCDC 
#
#######################################################################
#
# If this CIF has been generated from an entry in the Cambridge 
# Structural Database, then it will include bibliographic, chemical, 
# crystal, experimental, refinement or atomic coordinate data resulting 
# from the CCDC's data processing and validation procedures.
#
#######################################################################

data_UDIJAU
_symmetry_cell_setting           triclinic
_symmetry_space_group_name_H-M   'P -1'
_symmetry_Int_Tables_number      2
_space_group_name_Hall           '-P 1'
loop_
_symmetry_equiv_pos_site_id
_symmetry_equiv_pos_as_xyz
1 x,y,z
2 -x,-y,-z
_cell_length_a                   6.9234(14)
_cell_length_b                   10.0974(19)
_cell_length_c                   11.302(2)
_cell_angle_alpha                95.269(4)
_cell_angle_beta                 90.604(4)
_cell_angle_gamma                94.431(4)
_cell_volume                     784.29
loop_
_atom_site_label
_atom_site_type_symbol
_atom_site_fract_x
_atom_site_fract_y
_atom_site_fract_z
Cu1 Cu 0.30055(6) 0.52096(4) 0.68138(3)
K1 K 0.16429(10) 0.38663(7) 0.37044(6)
F1 F 0.2594(5) 0.1841(3) 0.5469(2)
F2 F 0.3245(4) 0.2255(2) 0.7297(2)
F3 F 0.1094(4) 0.0690(2) 0.6722(3)
F4 F -0.2806(3) 0.3319(2) 0.5761(2)
F5 F -0.2533(3) 0.1329(2) 0.6212(2)
F6 F -0.1012(4) 0.2032(3) 0.47257(19)
F7 F -0.1847(5) 0.3979(3) 0.7996(2)
F8 F 0.1004(4) 0.3785(3) 0.86204(19)
F9 F -0.0995(5) 0.2085(3) 0.8401(2)
F10 F 0.6396(5) 0.8342(3) 1.0013(3)
F11 F 0.7957(3) 0.7065(3) 0.8861(2)
F12 F 0.5531(4) 0.6289(4) 0.9753(3)
F13 F 0.4612(4) 0.8992(3) 0.6621(3)
F14 F 0.7460(3) 0.8696(2) 0.7196(2)
F15 F 0.5676(5) 0.9911(2) 0.8296(2)
F16 F 0.2681(3) 0.8758(2) 0.9375(2)
F17 F 0.2039(3) 0.6643(2) 0.9071(2)
F18 F 0.1589(3) 0.7879(3) 0.76730(19)
O1 O 0.0928(3) 0.4100(2) 0.61726(19)
O2 O 0.4968(3) 0.6472(2) 0.7296(2)
C1 C 0.0234(5) 0.2937(3) 0.6617(3)
C2 C 0.1783(5) 0.1897(3) 0.6538(3)
C3 C -0.1567(5) 0.2378(3) 0.5834(3)
C4 C -0.0407(5) 0.3193(4) 0.7932(3)
C5 C 0.4868(5) 0.7527(3) 0.8136(3)
C6 C 0.6190(5) 0.7312(3) 0.9220(3)
C7 C 0.5649(5) 0.8816(3) 0.7577(3)
C8 C 0.2782(5) 0.7716(3) 0.8583(3)
K1A K -0.16429(10) 0.61337(7) 0.62956(6)
K1A_2 K 0.83571(10) 0.61337(7) 0.62956(6)
F4A F 0.2806(3) 0.6681(2) 0.4239(2)
F11A F 0.2043(3) 0.2935(3) 0.1139(2)
F14A F 0.2540(3) 0.1304(2) 0.2804(2)
O1A O -0.0928(3) 0.5900(2) 0.38274(19)
O2A O 0.5032(3) 0.3528(2) 0.2704(2)
loop_
_geom_bond_atom_site_label_1
_geom_bond_atom_site_label_2
_geom_bond_site_symmetry_1
_geom_bond_site_symmetry_2
Cu1 O1 1_555 1_555
K1 F6 1_555 1_555
F1 C2 1_555 1_555
F2 C2 1_555 1_555
F3 C2 1_555 1_555
F4 C3 1_555 1_555
F5 C3 1_555 1_555
F6 C3 1_555 1_555
F7 C4 1_555 1_555
F8 C4 1_555 1_555
F9 C4 1_555 1_555
F10 C6 1_555 1_555
F11 C6 1_555 1_555
F12 C6 1_555 1_555
F13 C7 1_555 1_555
F14 C7 1_555 1_555
F15 C7 1_555 1_555
F16 C8 1_555 1_555
F17 C8 1_555 1_555
F18 C8 1_555 1_555
O1 K1 1_555 1_555
O2 Cu1 1_555 1_555
C1 O1 1_555 1_555
C2 C1 1_555 1_555
C3 C1 1_555 1_555
C4 C1 1_555 1_555
C5 O2 1_555 1_555
C6 C5 1_555 1_555
C7 C5 1_555 1_555
C8 C5 1_555 1_555
K1A F4 1_555 1_555
K1A_2 F11 1_555 1_555
F4A K1 1_555 1_555
F11A K1 1_555 1_555
F14A K1 1_555 1_555
O1A K1 1_555 1_555
O2A K1 1_555 1_555
F14 K1A_2 1_555 1_555
O1 K1A 1_555 1_555
O2 K1A_2 1_555 1_555
K1A O1A 1_555 1_555

#END
