
#######################################################################
#
#                 Cambridge Crystallographic Data Centre
#                                CCDC 
#
#######################################################################
#
# If this CIF has been generated from an entry in the Cambridge 
# Structural Database, then it will include bibliographic, chemical, 
# crystal, experimental, refinement or atomic coordinate data resulting 
# from the CCDC's data processing and validation procedures.
#
#######################################################################

data_UDILAU
_symmetry_cell_setting           monoclinic
_symmetry_space_group_name_H-M   'P 21/n'
_symmetry_Int_Tables_number      14
_space_group_name_Hall           '-P 2yn'
loop_
_symmetry_equiv_pos_site_id
_symmetry_equiv_pos_as_xyz
1 x,y,z
2 1/2+x,1/2-y,1/2+z
3 -x,-y,-z
4 1/2-x,1/2+y,1/2-z
_cell_length_a                   10.0596(11)
_cell_length_b                   7.0800(8)
_cell_length_c                   20.418(2)
_cell_angle_alpha                90
_cell_angle_beta                 103.910(2)
_cell_angle_gamma                90
_cell_volume                     1411.56
loop_
_atom_site_label
_atom_site_type_symbol
_atom_site_fract_x
_atom_site_fract_y
_atom_site_fract_z
Pb1 Pb 0.688965(12) 0.750642(19) 0.189464(5)
N1 N 0.4390(3) 0.7278(4) 0.13031(15)
N2 N 0.5264(3) 0.6918(5) 0.26764(16)
N3 N 0.7685(4) 0.7790(5) 0.04715(17)
O1 O 0.6229(3) 1.0976(3) 0.19914(12)
O2 O 0.6608(3) 1.4010(4) 0.19320(13)
O3 O 0.7708(4) 0.6230(4) 0.07630(15)
O4 O 0.6980(3) 0.9118(4) 0.06341(14)
O5 O 0.8329(3) 0.8050(5) 0.00376(15)
C1 C 0.3972(4) 0.7444(5) 0.06377(18)
H1 H 0.462(4) 0.784(4) 0.039(2)
C2 C 0.2605(5) 0.7149(6) 0.0291(2)
H2 H 0.229(4) 0.721(4) -0.009(2)
C3 C 0.1664(5) 0.6697(6) 0.0640(2)
H3 H 0.081(4) 0.653(6) 0.0452(19)
C4 C 0.2066(4) 0.6534(5) 0.1349(2)
C5 C 0.1113(4) 0.6169(6) 0.1749(2)
H4 H 0.017(4) 0.596(6) 0.1496(19)
C6 C 0.1536(4) 0.6072(6) 0.2428(2)
H5 H 0.093(4) 0.582(5) 0.274(2)
C7 C 0.2950(4) 0.6280(5) 0.27635(18)
C8 C 0.3430(4) 0.6148(6) 0.3468(2)
H6 H 0.285(4) 0.590(5) 0.3718(19)
C9 C 0.4793(5) 0.6381(6) 0.3758(2)
H7 H 0.519(4) 0.618(6) 0.418(2)
C10 C 0.5673(4) 0.6758(6) 0.3341(2)
H8 H 0.663(4) 0.702(5) 0.3544(19)
C11 C 0.3911(4) 0.6660(5) 0.23821(18)
C12 C 0.3458(4) 0.6808(5) 0.16591(19)
C13 C 0.6005(4) 1.2522(5) 0.16821(16)
C14 C 0.4971(5) 1.2635(6) 0.10117(19)
H9 H 0.530(5) 1.365(6) 0.073(2)
H10 H 0.495(6) 1.152(8) 0.080(3)
H11 H 0.410(5) 1.325(7) 0.110(2)
O1C O 0.8771(3) 0.5976(3) 0.30086(12)
O2_2 O 0.6608(3) 0.4010(4) 0.19320(13)
O2C O 0.8392(3) 0.9010(4) 0.30680(13)
Pb1C Pb 0.811035(12) 1.250642(19) 0.310536(5)
Pb1_2 Pb 0.688965(12) 1.750642(19) 0.189464(5)
loop_
_geom_bond_atom_site_label_1
_geom_bond_atom_site_label_2
_geom_bond_site_symmetry_1
_geom_bond_site_symmetry_2
Pb1 N1 1_555 1_555
N1 C1 1_555 1_555
N2 Pb1 1_555 1_555
N3 O3 1_555 1_555
O1 Pb1 1_555 1_555
O2 C13 1_555 1_555
O3 Pb1 1_555 1_555
O4 Pb1 1_555 1_555
O5 N3 1_555 1_555
C1 H1 1_555 1_555
C2 C1 1_555 1_555
H2 C2 1_555 1_555
C3 C2 1_555 1_555
H3 C3 1_555 1_555
C4 C3 1_555 1_555
C5 C4 1_555 1_555
H4 C5 1_555 1_555
C6 C5 1_555 1_555
H5 C6 1_555 1_555
C7 C6 1_555 1_555
C8 C7 1_555 1_555
H6 C8 1_555 1_555
C9 C8 1_555 1_555
H7 C9 1_555 1_555
C10 N2 1_555 1_555
H8 C10 1_555 1_555
C11 N2 1_555 1_555
C12 N1 1_555 1_555
C13 O1 1_555 1_555
C14 C13 1_555 1_555
H9 C14 1_555 1_555
H10 C14 1_555 1_555
H11 C14 1_555 1_555
O1C Pb1 1_555 1_555
O2_2 Pb1 1_555 1_555
O2C Pb1 1_555 1_555
Pb1C O1 1_555 1_555
Pb1_2 O2 1_555 1_555
N3 O4 1_555 1_555
O2 Pb1C 1_555 1_555
C4 C12 1_555 1_555
C7 C11 1_555 1_555
C9 C10 1_555 1_555
C11 C12 1_555 1_555
O2C Pb1C 1_555 1_555

#END
