
#######################################################################
#
#                 Cambridge Crystallographic Data Centre
#                                CCDC 
#
#######################################################################
#
# If this CIF has been generated from an entry in the Cambridge 
# Structural Database, then it will include bibliographic, chemical, 
# crystal, experimental, refinement or atomic coordinate data resulting 
# from the CCDC's data processing and validation procedures.
#
#######################################################################

data_UDIPAZ
_symmetry_cell_setting           rhombohedral
_symmetry_space_group_name_H-M   'R -3'
_symmetry_Int_Tables_number      148
_space_group_name_Hall           '-R 3'
loop_
_symmetry_equiv_pos_site_id
_symmetry_equiv_pos_as_xyz
1 x,y,z
2 -y,x-y,z
3 -x+y,-x,z
4 2/3+x,1/3+y,1/3+z
5 2/3-y,1/3+x-y,1/3+z
6 2/3-x+y,1/3-x,1/3+z
7 1/3+x,2/3+y,2/3+z
8 1/3-y,2/3+x-y,2/3+z
9 1/3-x+y,2/3-x,2/3+z
10 -x,-y,-z
11 y,-x+y,-z
12 x-y,x,-z
13 1/3-x,2/3-y,2/3-z
14 1/3+y,2/3-x+y,2/3-z
15 1/3+x-y,2/3+x,2/3-z
16 2/3-x,1/3-y,1/3-z
17 2/3+y,1/3-x+y,1/3-z
18 2/3+x-y,1/3+x,1/3-z
_cell_length_a                   9.5480(10)
_cell_length_b                   9.5480(10)
_cell_length_c                   27.314(5)
_cell_angle_alpha                90
_cell_angle_beta                 90
_cell_angle_gamma                120.00
_cell_volume                     2156.46
loop_
_atom_site_label
_atom_site_type_symbol
_atom_site_fract_x
_atom_site_fract_y
_atom_site_fract_z
V1 V 0.0000 0.0000 0.0000
Na1 Na -0.0692(2) -0.3682(2) 0.01435(7)
C1 C -0.0852(6) -0.1733(6) 0.10955(16)
H1 H -0.0837 -0.1704 0.1454
O1 O -0.1604(6) -0.3387(5) 0.09338(14)
C2 C 0.0896(6) -0.0865(6) 0.09028(16)
H2 H 0.1455 -0.1405 0.1037
O2 O 0.0940(4) -0.0920(4) 0.03834(11)
S1 S -0.3333 0.3333 -0.03528(7)
O3 O -0.4593(4) 0.1746(4) -0.01661(13)
O4 O -0.3333 0.3333 -0.0897(2)
H3 H -0.237(8) -0.376(7) 0.0991(18)
Na1A Na 0.3682(2) 0.2990(3) 0.01435(7)
Na1B Na -0.2990(3) 0.0692(2) 0.01435(7)
Na1J Na -0.3682(2) -0.2990(3) -0.01435(7)
Na1K Na 0.2990(3) -0.0692(2) -0.01435(7)
Na1I Na 0.0692(2) 0.3682(2) -0.01435(7)
Na1K_2 Na -0.7010(3) -0.0692(2) -0.01435(7)
Na1_2 Na -0.0692(2) 0.6318(2) 0.01435(7)
Na1J_2 Na -0.3682(2) 0.7010(3) -0.01435(7)
Na1A_2 Na -0.6318(2) 0.2990(3) 0.01435(7)
Na1J_3 Na 0.6318(2) 0.7010(3) -0.01435(7)
Na1B_2 Na 0.7010(3) 1.0692(2) 0.01435(7)
Na1K_3 Na 0.2990(3) 0.9308(2) -0.01435(7)
C1A C 0.1733(6) 0.0881(8) 0.10955(16)
C1B C -0.0881(8) 0.0852(6) 0.10955(16)
C1J C -0.1733(6) -0.0881(8) -0.10955(16)
C1K C 0.0881(8) -0.0852(6) -0.10955(16)
C1I C 0.0852(6) 0.1733(6) -0.10955(16)
H1A H 0.1704 0.0867 0.1454
H1B H -0.0867 0.0837 0.1454
H1J H -0.1704 -0.0867 -0.1454
H1K H 0.0867 -0.0837 -0.1454
H1I H 0.0837 0.1704 -0.1454
O1A O 0.3387(5) 0.1783(8) 0.09338(14)
O1B O -0.1783(8) 0.1604(6) 0.09338(14)
O1J O -0.3387(5) -0.1783(8) -0.09338(14)
O1K O 0.1783(8) -0.1604(6) -0.09338(14)
O1I O 0.1604(6) 0.3387(5) -0.09338(14)
C2B C -0.1761(8) -0.0896(6) 0.09028(16)
C2J C -0.0865(6) -0.1761(8) -0.09028(16)
C2I C -0.0896(6) 0.0865(6) -0.09028(16)
C2A C 0.0865(6) 0.1761(8) 0.09028(16)
C2K C 0.1761(8) 0.0896(6) -0.09028(16)
H2B H -0.2860 -0.1455 0.1037
H2I H -0.1455 0.1405 -0.1037
H2A H 0.1405 0.2860 0.1037
H2J H -0.1405 -0.2860 -0.1037
H2K H 0.2860 0.1455 -0.1037
O2A O 0.0920(4) 0.1860(6) 0.03834(11)
O2B O -0.1860(6) -0.0940(4) 0.03834(11)
O2K O 0.1860(6) 0.0940(4) -0.03834(11)
O2I O -0.0940(4) 0.0920(4) -0.03834(11)
O2J O -0.0920(4) -0.1860(6) -0.03834(11)
S1I S 0.3333 0.6667 0.03528(7)
O3I O -0.5407(4) -0.1746(4) 0.01661(13)
O3J O 0.1746(4) -0.3661(6) 0.01661(13)
O3A O -0.1746(4) 0.3661(6) -0.01661(13)
O3J_2 O 0.1746(4) 0.6339(6) 0.01661(13)
O3B O -0.3661(6) 0.4593(4) -0.01661(13)
O3K O 0.3661(6) 0.5407(4) 0.01661(13)
O3I_2 O 0.4593(4) 0.8254(4) 0.01661(13)
O3K_2 O -0.6339(6) -0.4593(4) 0.01661(13)
O3_2 O 0.5407(4) 0.1746(4) -0.01661(13)
O3B_2 O -0.3661(6) -0.5407(4) -0.01661(13)
O3B_3 O 0.6339(6) 0.4593(4) -0.01661(13)
O3A_2 O -0.1746(4) -0.6339(6) -0.01661(13)
O3I_3 O 0.4593(4) -0.1746(4) 0.01661(13)
O4I O 0.3333 0.6667 0.0897(2)
H3I H 0.237(8) 0.376(7) -0.0991(18)
H3K H 0.139(11) -0.237(8) -0.0991(18)
H3J H -0.376(7) -0.139(11) -0.0991(18)
H3B H -0.139(11) 0.237(8) 0.0991(18)
H3A H 0.376(7) 0.139(11) 0.0991(18)
O5 O 0.4826(9) 1.0053(8) 0.12304(19)
H4 H 0.546(8) 1.034(8) 0.121(2)
H5 H 0.433(10) 0.903(12) 0.120(2)
loop_
_geom_bond_atom_site_label_1
_geom_bond_atom_site_label_2
_geom_bond_site_symmetry_1
_geom_bond_site_symmetry_2
V1 O2 1_555 1_555
Na1 O1 1_555 1_555
C1 H1 1_555 1_555
O1 C1 1_555 1_555
C2 C1 1_555 1_555
H2 C2 1_555 1_555
O2 Na1 1_555 1_555
S1 O3 1_555 1_555
O3 Na1B 1_555 1_555
O4 S1 1_555 1_555
O5 H4 1_555 1_555
H3 O1 1_555 1_555
H5 O5 1_555 1_555
Na1A O1A 1_555 1_555
Na1B O1B 1_555 1_555
Na1J O1J 1_555 1_555
Na1K O2 1_555 1_555
Na1I O1I 1_555 1_555
Na1K_2 O3 1_555 1_555
Na1_2 O3A 1_555 1_555
Na1J_2 O3B 1_555 1_555
Na1A_2 O3B 1_555 1_555
Na1J_3 O3K 1_555 1_555
Na1B_2 O3I_2 1_555 1_555
Na1K_3 O3I_2 1_555 1_555
C1A C2 1_555 1_555
C1B H1B 1_555 1_555
C1J H1J 1_555 1_555
C1K H1K 1_555 1_555
C1I H1I 1_555 1_555
H1A C1A 1_555 1_555
O1A C1A 1_555 1_555
O1B C1B 1_555 1_555
O1J C1J 1_555 1_555
O1K Na1K 1_555 1_555
O1I C1I 1_555 1_555
C2B C1 1_555 1_555
C2J C1J 1_555 1_555
C2I C1J 1_555 1_555
C2A C1A 1_555 1_555
C2K C1K 1_555 1_555
H2B C2B 1_555 1_555
H2I C2I 1_555 1_555
H2A C2A 1_555 1_555
H2J C2J 1_555 1_555
H2K C2K 1_555 1_555
O2A V1 1_555 1_555
O2B V1 1_555 1_555
O2K V1 1_555 1_555
O2I V1 1_555 1_555
O2J V1 1_555 1_555
S1I O3J_2 1_555 1_555
O3I Na1B 1_555 1_555
O3J Na1 1_555 1_555
O3A S1 1_555 1_555
O3J_2 Na1I 1_555 1_555
O3B S1 1_555 1_555
O3K Na1A 1_555 1_555
O3I_2 S1I 1_555 1_555
O3K_2 Na1J 1_555 1_555
O3_2 Na1K 1_555 1_555
O3B_2 Na1J 1_555 1_555
O3B_3 Na1A 1_555 1_555
O3A_2 Na1 1_555 1_555
O3I_3 Na1K 1_555 1_555
O4I S1I 1_555 1_555
H3I O1I 1_555 1_555
H3K O1K 1_555 1_555
H3J O1J 1_555 1_555
H3B O1B 1_555 1_555
H3A O1A 1_555 1_555
Na1 O2J 1_555 1_555
C2 O2 1_555 1_555
Na1A O2A 1_555 1_555
Na1A O2K 1_555 1_555
Na1B O2B 1_555 1_555
Na1B O2I 1_555 1_555
Na1J O2B 1_555 1_555
Na1J O2J 1_555 1_555
Na1K O2K 1_555 1_555
Na1I O2A 1_555 1_555
Na1I O2I 1_555 1_555
Na1I O3A 1_555 1_555
Na1K_2 O3I 1_555 1_555
Na1_2 O3J_2 1_555 1_555
Na1J_3 O3B_3 1_555 1_555
C1B C2B 1_555 1_555
C1B C2A 1_555 1_555
C1K O1K 1_555 1_555
C1K C2J 1_555 1_555
C1I C2I 1_555 1_555
C1I C2K 1_555 1_555
C2B O2B 1_555 1_555
C2J O2J 1_555 1_555
C2I O2I 1_555 1_555
C2A O2A 1_555 1_555
C2K O2K 1_555 1_555
S1I O3K 1_555 1_555

#END
