
#######################################################################
#
#                 Cambridge Crystallographic Data Centre
#                                CCDC 
#
#######################################################################
#
# If this CIF has been generated from an entry in the Cambridge 
# Structural Database, then it will include bibliographic, chemical, 
# crystal, experimental, refinement or atomic coordinate data resulting 
# from the CCDC's data processing and validation procedures.
#
#######################################################################

data_UDIQOO
_symmetry_cell_setting           monoclinic
_symmetry_space_group_name_H-M   'P 21/n'
_symmetry_Int_Tables_number      14
_space_group_name_Hall           '-P 2yn'
loop_
_symmetry_equiv_pos_site_id
_symmetry_equiv_pos_as_xyz
1 x,y,z
2 1/2-x,1/2+y,1/2-z
3 -x,-y,-z
4 1/2+x,1/2-y,1/2+z
_cell_length_a                   14.842(9)
_cell_length_b                   8.535(5)
_cell_length_c                   16.104(10)
_cell_angle_alpha                90
_cell_angle_beta                 101.345(9)
_cell_angle_gamma                90
_cell_volume                     2000.14
loop_
_atom_site_label
_atom_site_type_symbol
_atom_site_fract_x
_atom_site_fract_y
_atom_site_fract_z
Co1 Co -0.71873(3) 0.37938(6) 0.34706(3)
O1 O -0.70098(18) 0.3274(3) 0.47413(15)
O2 O -0.6085(2) 0.1300(3) 0.52318(19)
O3 O -0.73005(18) 0.1397(3) 0.31628(15)
O4 O -0.77716(18) -0.1010(3) 0.28202(15)
O5 O -0.71544(18) 0.6187(3) 0.37848(17)
H1 H -0.6723 0.6620 0.4134
H2 H -0.7418 0.6749 0.3373
N1 N -0.5713(2) 0.3565(3) 0.35414(19)
N2 N -0.2876(2) 0.2157(4) 0.2467(2)
N3 N -0.1972(2) 0.2252(4) 0.23983(19)
N4 N -0.2194(2) 0.3820(3) 0.34117(17)
N5 N -0.1994(2) 0.4911(4) 0.40746(19)
H3 H -0.2313 0.5784 0.3925
H4 H -0.2154 0.4510 0.4535
N6 N 0.1328(2) 0.3878(4) 0.32876(18)
C1 C -0.4531(3) 0.2169(6) 0.3072(4)
H5 H -0.4358 0.1251 0.2834
C2 C -0.5405(3) 0.2325(6) 0.3196(4)
H6 H -0.5813 0.1506 0.3025
C3 C -0.5093(3) 0.4646(5) 0.3802(3)
H7 H -0.5270 0.5510 0.4084
C4 C -0.4203(3) 0.4587(5) 0.3687(3)
H8 H -0.3800 0.5403 0.3880
C5 C -0.3908(3) 0.3329(4) 0.3290(2)
C6 C -0.3000(3) 0.3126(5) 0.3067(2)
C7 C -0.1565(3) 0.3245(4) 0.2978(2)
C8 C -0.0577(3) 0.3562(4) 0.3110(2)
C9 C -0.0049(3) 0.4201(5) 0.3820(2)
H9 H -0.0320 0.4540 0.4263
C10 C 0.0886(3) 0.4341(5) 0.3877(2)
H10 H 0.1227 0.4793 0.4364
C11 C 0.0810(3) 0.3324(5) 0.2589(3)
H11 H 0.1098 0.3040 0.2148
C12 C -0.0127(3) 0.3138(5) 0.2470(3)
H12 H -0.0454 0.2731 0.1964
C13 C -0.7672(2) 0.0151(4) 0.3314(2)
C14 C -0.8037(3) -0.0031(4) 0.4121(2)
C15 C -0.7651(3) 0.0748(4) 0.4853(2)
C16 C -0.6849(3) 0.1847(5) 0.4937(2)
C17 C -0.8022(3) 0.0511(5) 0.5577(3)
H13 H -0.7765 0.1017 0.6079
C18 C -0.8756(3) -0.0457(5) 0.5552(3)
H14 H -0.9000 -0.0593 0.6037
C19 C -0.9141(3) -0.1237(5) 0.4821(3)
H15 H -0.9645 -0.1889 0.4810
C20 C -0.8774(3) -0.1046(5) 0.4108(3)
H16 H -0.9018 -0.1595 0.3617
Co1A Co -0.78127(3) -0.12062(6) 0.15294(3)
Co1_2 Co 0.28127(3) 0.37938(6) 0.34706(3)
O4A O -0.72284(18) 0.3990(3) 0.21798(15)
N6_2 N -0.8672(2) 0.3878(4) 0.32876(18)
O6 O -0.9186(2) -0.6828(3) 0.0387(2)
H17 H -0.8985 -0.5995 0.0196
H18 H -0.9759 -0.6870 0.0383
loop_
_geom_bond_atom_site_label_1
_geom_bond_atom_site_label_2
_geom_bond_site_symmetry_1
_geom_bond_site_symmetry_2
Co1 O1 1_555 1_555
O1 C16 1_555 1_555
O2 C16 1_555 1_555
O3 Co1 1_555 1_555
O4 C13 1_555 1_555
O5 Co1 1_555 1_555
H1 O5 1_555 1_555
H2 O5 1_555 1_555
N1 Co1 1_555 1_555
N2 N3 1_555 1_555
N3 C7 1_555 1_555
N4 N5 1_555 1_555
N5 H3 1_555 1_555
H4 N5 1_555 1_555
N6 C10 1_555 1_555
C1 H5 1_555 1_555
C2 N1 1_555 1_555
H6 C2 1_555 1_555
C3 N1 1_555 1_555
H7 C3 1_555 1_555
C4 C3 1_555 1_555
H8 C4 1_555 1_555
C5 C1 1_555 1_555
C6 N2 1_555 1_555
C7 N4 1_555 1_555
C8 C7 1_555 1_555
C9 C8 1_555 1_555
H9 C9 1_555 1_555
C10 C9 1_555 1_555
H10 C10 1_555 1_555
C11 N6 1_555 1_555
H11 C11 1_555 1_555
C12 C8 1_555 1_555
H12 C12 1_555 1_555
C13 O3 1_555 1_555
C14 C13 1_555 1_555
C15 C14 1_555 1_555
C16 C15 1_555 1_555
C17 C15 1_555 1_555
H13 C17 1_555 1_555
C18 C17 1_555 1_555
H14 C18 1_555 1_555
C19 C18 1_555 1_555
H15 C19 1_555 1_555
C20 C14 1_555 1_555
H16 C20 1_555 1_555
O6 H17 1_555 1_555
H18 O6 1_555 1_555
Co1A O4 1_555 1_555
Co1_2 N6 1_555 1_555
O4A Co1 1_555 1_555
N6_2 Co1 1_555 1_555
N4 C6 1_555 1_555
C1 C2 1_555 1_555
C4 C5 1_555 1_555
C5 C6 1_555 1_555
C11 C12 1_555 1_555
C19 C20 1_555 1_555

#END
