
#######################################################################
#
#                 Cambridge Crystallographic Data Centre
#                                CCDC 
#
#######################################################################
#
# If this CIF has been generated from an entry in the Cambridge 
# Structural Database, then it will include bibliographic, chemical, 
# crystal, experimental, refinement or atomic coordinate data resulting 
# from the CCDC's data processing and validation procedures.
#
#######################################################################

data_UDIRAB
_symmetry_cell_setting           triclinic
_symmetry_space_group_name_H-M   'P -1'
_symmetry_Int_Tables_number      2
_space_group_name_Hall           '-P 1'
loop_
_symmetry_equiv_pos_site_id
_symmetry_equiv_pos_as_xyz
1 x,y,z
2 -x,-y,-z
_cell_length_a                   8.5894(16)
_cell_length_b                   10.0957(18)
_cell_length_c                   13.979(3)
_cell_angle_alpha                81.271(2)
_cell_angle_beta                 78.165(2)
_cell_angle_gamma                78.788(2)
_cell_volume                     1155.86
loop_
_atom_site_label
_atom_site_type_symbol
_atom_site_fract_x
_atom_site_fract_y
_atom_site_fract_z
Co1 Co 0.62920(5) 0.62608(4) 0.54738(3)
O1 O 0.8049(3) 0.7092(2) 0.61191(19)
O2 O 0.6301(3) 0.8404(2) 0.53049(18)
O3 O 0.5785(3) 1.3427(2) 0.50661(19)
O4 O 0.7269(3) 1.4307(2) 0.58424(17)
N1 N 0.4734(3) 0.6341(3) 0.6890(2)
N2 N -0.0391(4) 0.7080(4) 0.9362(2)
N3 N -0.1331(4) 0.7073(4) 1.0294(2)
N4 N 0.1171(3) 0.6224(3) 1.0433(2)
N5 N 0.2567(4) 0.5785(4) 1.0844(2)
H1 H 0.2771 0.4902 1.1060
H2 H 0.3418 0.6224 1.0766
N6 N -0.2383(3) 0.6287(3) 1.3986(2)
C1 C 0.2444(4) 0.6479(4) 0.8618(3)
C2 C 0.3655(4) 0.5371(4) 0.8503(3)
H3 H 0.3725 0.4652 0.9003
C3 C 0.4766(4) 0.5340(4) 0.7634(3)
H4 H 0.5577 0.4585 0.7564
C4 C 0.3573(5) 0.7425(4) 0.7016(3)
H5 H 0.3543 0.8141 0.6512
C5 C 0.2421(5) 0.7532(4) 0.7856(3)
H6 H 0.1632 0.8304 0.7912
C6 C 0.1105(4) 0.6578(4) 0.9458(3)
C7 C -0.0368(4) 0.6575(4) 1.0930(3)
C8 C -0.0964(4) 0.6458(4) 1.2000(3)
C9 C -0.2250(4) 0.7423(4) 1.2349(3)
H7 H -0.2666 0.8143 1.1923
C10 C -0.2906(4) 0.7300(4) 1.3336(3)
H8 H -0.3763 0.7961 1.3564
C11 C -0.1125(4) 0.5359(3) 1.3642(3)
H9 H -0.0733 0.4646 1.4081
C12 C -0.0389(4) 0.5419(4) 1.2666(3)
H10 H 0.0490 0.4764 1.2459
C13 C 0.7431(4) 0.8252(3) 0.5775(2)
C14 C 0.8031(4) 0.9490(3) 0.5937(3)
C15 C 0.7210(4) 1.0781(3) 0.5671(2)
H11 H 0.6310 1.0876 0.5378
C16 C 0.7733(4) 1.1928(3) 0.5844(2)
C17 C 0.6852(4) 1.3324(3) 0.5567(2)
C18 C 0.9106(5) 1.1774(4) 0.6259(3)
H12 H 0.9458 1.2536 0.6382
C19 C 0.9954(5) 1.0483(4) 0.6489(4)
H13 H 1.0896 1.0384 0.6741
C20 C 0.9397(5) 0.9345(4) 0.6344(3)
H14 H 0.9945 0.8482 0.6520
Co1A Co 0.37080(5) 1.37392(4) 0.45262(3)
Co1_2 Co 0.62920(5) 1.62608(4) 0.54738(3)
Co1_3 Co -0.37080(5) 0.62608(4) 1.54738(3)
O3A O 0.4215(3) 0.6573(2) 0.49339(19)
O4_2 O 0.7269(3) 0.4307(2) 0.58424(17)
N6_2 N 0.7617(3) 0.6287(3) 0.3986(2)
O5 O 0.7163(4) 0.7237(4) 0.8228(3)
H15 H 0.7339 0.7205 0.7611
H16 H 0.7960 0.7318 0.8476
O6 O 0.1590(14) 0.9477(11) 1.0043(9)
H17 H 0.2435 0.9836 0.9858
H18 H 0.0816 0.9793 0.9736
O7 O 0.4866(13) 0.9721(11) 0.8529(8)
H19 H 0.5541 1.0265 0.8429
H20 H 0.4277 0.9657 0.9096
O8 O 0.4955(14) 0.7791(13) 0.0193(10)
O9 O 0.3286(19) 0.8210(15) 0.1618(10)
loop_
_geom_bond_atom_site_label_1
_geom_bond_atom_site_label_2
_geom_bond_site_symmetry_1
_geom_bond_site_symmetry_2
Co1 O1 1_555 1_555
O1 C13 1_555 1_555
O2 Co1 1_555 1_555
O3 C17 1_555 1_555
O4 C17 1_555 1_555
N1 Co1 1_555 1_555
N2 N3 1_555 1_555
N3 C7 1_555 1_555
N4 N5 1_555 1_555
N5 H1 1_555 1_555
H2 N5 1_555 1_555
N6 C10 1_555 1_555
C1 C2 1_555 1_555
C2 H3 1_555 1_555
C3 N1 1_555 1_555
H4 C3 1_555 1_555
C4 N1 1_555 1_555
H5 C4 1_555 1_555
C5 C1 1_555 1_555
H6 C5 1_555 1_555
C6 N2 1_555 1_555
C7 N4 1_555 1_555
C8 C7 1_555 1_555
C9 C8 1_555 1_555
H7 C9 1_555 1_555
C10 C9 1_555 1_555
H8 C10 1_555 1_555
C11 N6 1_555 1_555
H9 C11 1_555 1_555
C12 C8 1_555 1_555
H10 C12 1_555 1_555
C13 O2 1_555 1_555
C14 C13 1_555 1_555
C15 C14 1_555 1_555
H11 C15 1_555 1_555
C16 C15 1_555 1_555
C17 C16 1_555 1_555
C18 C16 1_555 1_555
H12 C18 1_555 1_555
C19 C18 1_555 1_555
H13 C19 1_555 1_555
C20 C14 1_555 1_555
H14 C20 1_555 1_555
O5 H15 1_555 1_555
H16 O5 1_555 1_555
O6 H17 1_555 1_555
H18 O6 1_555 1_555
O7 H19 1_555 1_555
H20 O7 1_555 1_555
Co1A O3 1_555 1_555
Co1_2 O4 1_555 1_555
Co1_3 N6 1_555 1_555
O3A Co1 1_555 1_555
O4_2 Co1 1_555 1_555
N6_2 Co1 1_555 1_555
N4 C6 1_555 1_555
C1 C6 1_555 1_555
C2 C3 1_555 1_555
C4 C5 1_555 1_555
C11 C12 1_555 1_555
C19 C20 1_555 1_555

#END
