
#######################################################################
#
#                 Cambridge Crystallographic Data Centre
#                                CCDC 
#
#######################################################################
#
# If this CIF has been generated from an entry in the Cambridge 
# Structural Database, then it will include bibliographic, chemical, 
# crystal, experimental, refinement or atomic coordinate data resulting 
# from the CCDC's data processing and validation procedures.
#
#######################################################################

data_UDIREF
_symmetry_cell_setting           monoclinic
_symmetry_space_group_name_H-M   'P 21/c'
_symmetry_Int_Tables_number      14
_space_group_name_Hall           '-P 2ybc'
loop_
_symmetry_equiv_pos_site_id
_symmetry_equiv_pos_as_xyz
1 x,y,z
2 -x,1/2+y,1/2-z
3 -x,-y,-z
4 x,1/2-y,1/2+z
_cell_length_a                   10.105(4)
_cell_length_b                   28.745(12)
_cell_length_c                   13.072(5)
_cell_angle_alpha                90
_cell_angle_beta                 111.813(6)
_cell_angle_gamma                90
_cell_volume                     3525.14
loop_
_atom_site_label
_atom_site_type_symbol
_atom_site_fract_x
_atom_site_fract_y
_atom_site_fract_z
Ni1 Ni 0.04015(7) 0.03972(2) -0.26232(5)
O1 O -0.1567(4) 0.03160(11) -0.2399(3)
O2 O -0.1506(4) 0.05129(12) -0.4002(3)
O3 O -0.8166(4) 0.05140(11) -0.3319(3)
O4 O -0.6184(5) 0.0439(2) -0.1863(4)
O5 O 0.1843(4) 0.02970(12) -0.1059(3)
H1 H 0.1876 0.0129 -0.0514
H2 H 0.2588 0.0307 -0.1215
N1 N 0.0347(5) -0.03154(14) -0.2999(4)
N2 N -0.0694(7) -0.18930(15) -0.4825(4)
N3 N -0.0790(7) -0.23746(15) -0.4795(4)
N4 N 0.0207(5) -0.21164(14) -0.3113(4)
N5 N 0.1006(6) -0.21305(16) -0.1973(4)
H3 H 0.0323 -0.2058 -0.1720
H4 H 0.1559 -0.1879 -0.1898
N6 N -0.0364(4) -0.39025(13) -0.2793(3)
C1 C 0.0580(6) -0.09400(16) -0.4093(4)
H5 H 0.0824 -0.1041 -0.4675
C2 C 0.0679(6) -0.04814(17) -0.3824(4)
H6 H 0.0992 -0.0275 -0.4233
C3 C -0.0094(6) -0.06178(18) -0.2420(5)
H7 H -0.0323 -0.0505 -0.1839
C4 C -0.0227(6) -0.10809(18) -0.2633(5)
H8 H -0.0542 -0.1278 -0.2208
C5 C 0.0115(6) -0.12580(17) -0.3498(4)
C6 C -0.0088(6) -0.17472(17) -0.3816(5)
C7 C -0.0254(7) -0.24963(18) -0.3755(5)
C8 C -0.0235(6) -0.29778(16) -0.3365(5)
C9 C -0.0422(7) -0.30878(17) -0.2415(5)
H9 H -0.0486 -0.2855 -0.1942
C10 C -0.0513(6) -0.35505(18) -0.2165(5)
H10 H -0.0686 -0.3622 -0.1532
C11 C -0.0169(6) -0.37879(19) -0.3709(5)
H11 H -0.0074 -0.4026 -0.4160
C12 C -0.0101(7) -0.33381(18) -0.4025(5)
H12 H 0.0034 -0.3274 -0.4677
C13 C -0.6006(5) 0.05337(18) -0.3601(4)
C14 C -0.4543(6) 0.04645(19) -0.3191(5)
H13 H -0.4076 0.0392 -0.2450
C15 C -0.3777(6) 0.05005(19) -0.3852(4)
C16 C -0.4468(6) 0.0598(2) -0.4951(5)
H14 H -0.3951 0.0622 -0.5408
C17 C -0.5929(7) 0.0661(2) -0.5384(5)
H15 H -0.6397 0.0725 -0.6129
C18 C -0.6686(6) 0.0628(2) -0.4698(5)
H16 H -0.7669 0.0670 -0.4986
C19 C -0.6827(6) 0.04902(19) -0.2851(5)
C20 C -0.2190(5) 0.04405(17) -0.3397(4)
Ni1A Ni -0.04015(7) -0.46028(2) -0.23768(5)
Ni1_2 Ni -0.95985(7) 0.03972(2) -0.26232(5)
O3_2 O 0.1834(4) 0.05140(11) -0.3319(3)
N6A N 0.0364(4) 0.10975(13) -0.2207(3)
O6 O -0.2476(8) -0.8716(2) -0.0260(7)
N7 N -0.4430(10) -0.8307(3) -0.1032(8)
C21 C -0.3614(17) -0.7860(4) -0.0832(12)
H17 H -0.3614 -0.7719 -0.0166
H18 H -0.4054 -0.7652 -0.1440
H19 H -0.2650 -0.7921 -0.0763
C22 C -0.5992(14) -0.8285(7) -0.1493(15)
H20 H -0.6311 -0.8184 -0.2245
H21 H -0.6313 -0.8070 -0.1073
H22 H -0.6376 -0.8588 -0.1461
C23 C -0.3741(12) -0.8700(4) -0.0738(9)
H23 H -0.4251 -0.8978 -0.0905
O7 O -0.6083(15) -0.6924(5) -1.1433(10)
N8 N -0.4473(13) -0.6839(3) -0.9784(10)
C24 C -0.438(4) -0.6861(8) -0.8715(18)
H24 H -0.3629 -0.6658 -0.8273
H25 H -0.4165 -0.7175 -0.8453
H26 H -0.5263 -0.6767 -0.8664
C25 C -0.3131(19) -0.6755(6) -0.989(2)
H27 H -0.3282 -0.6704 -1.0650
H28 H -0.2521 -0.7019 -0.9619
H29 H -0.2692 -0.6485 -0.9468
C26 C -0.5552(18) -0.6876(5) -1.0581(19)
H30 H -0.6279 -0.6848 -1.0309
O8 O -0.3564(10) -0.8320(4) -0.8062(9)
N9 N -0.5086(9) -0.8927(3) -0.8473(7)
C27 C -0.6509(16) -0.9046(6) -0.8643(12)
H31 H -0.6530 -0.9219 -0.8022
H32 H -0.6900 -0.9232 -0.9297
H33 H -0.7064 -0.8768 -0.8727
C28 C -0.419(2) -0.9280(8) -0.8433(15)
H34 H -0.3237 -0.9164 -0.8200
H35 H -0.4458 -0.9417 -0.9151
H36 H -0.4252 -0.9510 -0.7920
C29 C -0.468(2) -0.8491(7) -0.8291(13)
H37 H -0.5417 -0.8283 -0.8355
O9 O -0.8352(6) -0.03784(17) -0.9729(4)
H38 H -0.8242 -0.0280 -0.9086
H39 H -0.9025 -0.0571 -1.0026
O10 O -0.1663(6) -0.30059(17) -0.6653(4)
H40 H -0.1709 -0.2768 -0.6277
H41 H -0.2326 -0.3036 -0.7282
loop_
_geom_bond_atom_site_label_1
_geom_bond_atom_site_label_2
_geom_bond_site_symmetry_1
_geom_bond_site_symmetry_2
Ni1 O1 1_555 1_555
O1 C20 1_555 1_555
O2 Ni1 1_555 1_555
O3 C19 1_555 1_555
O4 C19 1_555 1_555
O5 Ni1 1_555 1_555
H1 O5 1_555 1_555
H2 O5 1_555 1_555
O6 C23 1_555 1_555
O7 C26 1_555 1_555
O8 C29 1_555 1_555
N1 Ni1 1_555 1_555
N2 N3 1_555 1_555
N3 C7 1_555 1_555
N4 N5 1_555 1_555
N5 H3 1_555 1_555
H4 N5 1_555 1_555
N6 C10 1_555 1_555
N7 C21 1_555 1_555
N8 C24 1_555 1_555
N9 C27 1_555 1_555
C1 H5 1_555 1_555
C2 N1 1_555 1_555
H6 C2 1_555 1_555
C3 N1 1_555 1_555
H7 C3 1_555 1_555
C4 C3 1_555 1_555
H8 C4 1_555 1_555
C5 C1 1_555 1_555
C6 N2 1_555 1_555
C7 N4 1_555 1_555
C8 C7 1_555 1_555
C9 C8 1_555 1_555
H9 C9 1_555 1_555
C10 C9 1_555 1_555
H10 C10 1_555 1_555
C11 N6 1_555 1_555
H11 C11 1_555 1_555
C12 C8 1_555 1_555
H12 C12 1_555 1_555
C13 C14 1_555 1_555
C14 H13 1_555 1_555
C15 C14 1_555 1_555
C16 C15 1_555 1_555
H14 C16 1_555 1_555
C17 C16 1_555 1_555
H15 C17 1_555 1_555
C18 C13 1_555 1_555
H16 C18 1_555 1_555
C19 C13 1_555 1_555
C20 O2 1_555 1_555
C21 H17 1_555 1_555
H18 C21 1_555 1_555
H19 C21 1_555 1_555
C22 N7 1_555 1_555
H20 C22 1_555 1_555
H21 C22 1_555 1_555
H22 C22 1_555 1_555
C23 N7 1_555 1_555
H23 C23 1_555 1_555
C24 H24 1_555 1_555
H25 C24 1_555 1_555
H26 C24 1_555 1_555
C25 N8 1_555 1_555
H27 C25 1_555 1_555
H28 C25 1_555 1_555
H29 C25 1_555 1_555
C26 N8 1_555 1_555
H30 C26 1_555 1_555
C27 H31 1_555 1_555
H32 C27 1_555 1_555
H33 C27 1_555 1_555
C28 N9 1_555 1_555
H34 C28 1_555 1_555
H35 C28 1_555 1_555
H36 C28 1_555 1_555
C29 N9 1_555 1_555
H37 C29 1_555 1_555
O9 H38 1_555 1_555
H39 O9 1_555 1_555
O10 H40 1_555 1_555
H41 O10 1_555 1_555
Ni1A N6 1_555 1_555
Ni1_2 O3 1_555 1_555
O3_2 Ni1 1_555 1_555
N6A Ni1 1_555 1_555
N4 C6 1_555 1_555
C1 C2 1_555 1_555
C4 C5 1_555 1_555
C5 C6 1_555 1_555
C11 C12 1_555 1_555
C15 C20 1_555 1_555
C17 C18 1_555 1_555

#END
