
#######################################################################
#
#                 Cambridge Crystallographic Data Centre
#                                CCDC 
#
#######################################################################
#
# If this CIF has been generated from an entry in the Cambridge 
# Structural Database, then it will include bibliographic, chemical, 
# crystal, experimental, refinement or atomic coordinate data resulting 
# from the CCDC's data processing and validation procedures.
#
#######################################################################

data_UDIRIJ
_symmetry_cell_setting           monoclinic
_symmetry_space_group_name_H-M   'P 21/n'
_symmetry_Int_Tables_number      14
_space_group_name_Hall           '-P 2yn'
loop_
_symmetry_equiv_pos_site_id
_symmetry_equiv_pos_as_xyz
1 x,y,z
2 1/2-x,1/2+y,1/2-z
3 -x,-y,-z
4 1/2+x,1/2-y,1/2+z
_cell_length_a                   19.813(6)
_cell_length_b                   10.013(3)
_cell_length_c                   23.062(7)
_cell_angle_alpha                90
_cell_angle_beta                 92.469(4)
_cell_angle_gamma                90
_cell_volume                     4570.97
loop_
_atom_site_label
_atom_site_type_symbol
_atom_site_fract_x
_atom_site_fract_y
_atom_site_fract_z
Zn1 Zn 0.040410(16) 0.32011(3) -0.044110(14)
O1 O 0.03223(11) -0.3715(2) -0.01304(9)
O2 O 0.08277(11) -0.51157(18) -0.07200(9)
O3 O 0.11025(12) 0.19382(19) -0.10443(10)
O4 O 0.02993(10) 0.10972(19) -0.05250(9)
N1 N -0.38718(13) 0.2226(2) -0.47253(10)
N2 N -0.28752(12) 0.4158(3) -0.28784(10)
N3 N -0.24410(12) 0.4266(3) -0.24012(10)
N4 N -0.20969(11) 0.2617(2) -0.29373(10)
N5 N -0.16921(12) 0.1530(2) -0.30933(11)
H1 H -0.1560 0.1673 -0.3453
H2 H -0.1957 0.0818 -0.3088
N6 N -0.03722(12) 0.3254(2) -0.11524(11)
C1 C -0.35495(16) 0.3660(3) -0.39370(13)
H5 H -0.3623 0.4451 -0.3738
C2 C -0.39496(16) 0.3343(3) -0.44145(13)
H6 H -0.4293 0.3931 -0.4530
C3 C -0.33599(18) 0.1436(3) -0.45620(14)
H7 H -0.3282 0.0679 -0.4783
C4 C -0.29332(18) 0.1680(3) -0.40778(15)
H8 H -0.2585 0.1090 -0.3979
C5 C -0.30310(15) 0.2804(3) -0.37460(13)
C6 C -0.26646(15) 0.3168(3) -0.31982(13)
C7 C -0.19760(15) 0.3345(3) -0.24431(12)
C8 C -0.14125(15) 0.3193(3) -0.20106(13)
C9 C -0.07535(17) 0.2951(4) -0.21409(14)
H9 H -0.0645 0.2753 -0.2520
C10 C -0.02561(17) 0.3005(4) -0.17066(14)
H10 H 0.0188 0.2860 -0.1806
C11 C -0.10123(19) 0.3447(4) -0.10328(15)
H11 H -0.1112 0.3603 -0.0648
C12 C -0.15378(18) 0.3431(4) -0.14404(15)
H12 H -0.1977 0.3581 -0.1330
C13 C 0.08878(15) -0.2802(3) -0.09142(12)
C14 C 0.12257(19) -0.2994(3) -0.14219(15)
H13 H 0.1316 -0.3855 -0.1548
C15 C 0.1429(2) -0.1910(3) -0.17410(16)
H14 H 0.1657 -0.2043 -0.2080
C16 C 0.12923(18) -0.0629(3) -0.15567(14)
H15 H 0.1437 0.0098 -0.1769
C17 C 0.09430(15) -0.0421(3) -0.10596(12)
C18 C 0.07495(14) -0.1512(3) -0.07365(12)
H16 H 0.0524 -0.1376 -0.0396
C19 C 0.06584(14) -0.3955(3) -0.05592(13)
C20 C 0.07751(16) 0.0961(3) -0.08675(13)
Zn1_2 Zn 0.040410(16) -0.67989(3) -0.044110(14)
Zn1C Zn -0.459590(16) 0.17989(3) -0.544110(14)
Zn1B Zn -0.040410(16) -0.32011(3) 0.044110(14)
O1B O -0.03223(11) 0.3715(2) 0.01304(9)
O2_2 O 0.08277(11) 0.48843(18) -0.07200(9)
N1C N 0.11282(13) 0.2774(2) 0.02747(10)
Zn2 Zn -0.546820(16) 0.32352(3) 0.040060(14)
O5 O -0.54578(10) 0.11554(19) 0.04014(8)
O6 O -0.62546(12) 0.19921(19) 0.09227(9)
O7 O -0.58766(10) -0.50639(18) 0.06644(9)
O8 O -0.53529(11) -0.3693(2) 0.00767(10)
N7 N -0.97530(13) 0.1809(2) -0.38411(11)
N8 N -0.76613(13) 0.0704(3) -0.26111(11)
N9 N -0.72068(13) 0.0859(3) -0.21471(11)
N10 N -0.79627(12) 0.2454(2) -0.21088(10)
N11 N -0.83427(12) 0.3564(2) -0.19482(10)
H3 H -0.8493 0.3404 -0.1592
H4 H -0.8085 0.4295 -0.1930
N12 N -0.61492(13) 0.3026(2) -0.03664(11)
C21 C -0.90770(16) 0.2914(3) -0.30994(14)
H17 H -0.8987 0.3690 -0.2889
C22 C -0.95907(16) 0.2885(3) -0.35216(14)
H18 H -0.9840 0.3661 -0.3588
C23 C -0.93902(17) 0.0712(3) -0.37296(15)
H19 H -0.9495 -0.0054 -0.3943
C24 C -0.88707(17) 0.0649(3) -0.33186(14)
H20 H -0.8635 -0.0146 -0.3258
C25 C -0.86966(15) 0.1771(3) -0.29930(12)
C26 C -0.81149(14) 0.1671(3) -0.25831(12)
C27 C -0.73915(15) 0.1910(3) -0.18479(12)
C28 C -0.70003(15) 0.2356(3) -0.13286(12)
C29 C -0.63612(16) 0.1798(3) -0.12434(14)
H21 H -0.6203 0.1190 -0.1510
C30 C -0.59653(16) 0.2146(3) -0.07657(13)
H22 H -0.5543 0.1746 -0.0716
C31 C -0.67634(17) 0.3562(3) -0.04433(14)
H23 H -0.6904 0.4174 -0.0170
C32 C -0.72065(17) 0.3256(3) -0.09115(13)
H24 H -0.7632 0.3647 -0.0944
C33 C -0.61233(14) -0.0374(3) 0.09118(12)
C34 C -0.58703(14) -0.1460(3) 0.06184(12)
H25 H -0.5601 -0.1325 0.0303
C35 C -0.60187(14) -0.2749(3) 0.07951(12)
C36 C -0.64275(17) -0.2947(3) 0.12608(14)
H26 H -0.6535 -0.3810 0.1375
C37 C -0.66746(19) -0.1862(3) 0.15554(16)
H27 H -0.6944 -0.1993 0.1871
C38 C -0.65207(17) -0.0579(3) 0.13789(14)
H28 H -0.6687 0.0150 0.1578
C39 C -0.59410(15) 0.1016(3) 0.07354(12)
C40 C -0.57262(14) -0.3912(3) 0.04861(12)
Zn2_2 Zn -0.546820(16) -0.67648(3) 0.040060(14)
Zn2C Zn -1.046820(16) 0.17648(3) -0.459940(14)
Zn2B Zn -0.453180(16) -0.32352(3) -0.040060(14)
O7_2 O -0.58766(10) 0.49361(18) 0.06644(9)
O8B O -0.46471(11) 0.3693(2) -0.00767(10)
N7C N -0.47530(13) 0.3191(2) 0.11589(11)
O9 O -0.51709(18) -0.9221(3) -0.20406(15)
N13 N -0.47369(17) -0.7516(4) -0.25426(16)
C41 C -0.4626(2) -0.6092(5) -0.2592(2)
H29 H -0.4818 -0.5643 -0.2270
H30 H -0.4837 -0.5773 -0.2948
H31 H -0.4150 -0.5915 -0.2591
C42 C -0.4457(3) -0.8379(5) -0.2977(2)
H32 H -0.3981 -0.8487 -0.2895
H33 H -0.4531 -0.7987 -0.3354
H34 H -0.4674 -0.9236 -0.2968
C43 C -0.5063(2) -0.8044(5) -0.2112(2)
H35 H -0.5225 -0.7458 -0.1838
O10 O -0.23340(19) -0.6380(4) -1.01100(17)
N14 N -0.26042(16) -0.8388(4) -0.97520(15)
C44 C -0.2522(3) -0.9812(6) -0.9822(3)
H36 H -0.2276 -0.9985 -1.0163
H37 H -0.2958 -1.0228 -0.9860
H38 H -0.2277 -1.0168 -0.9488
C45 C -0.2999(3) -0.8020(9) -0.9296(2)
H39 H -0.2997 -0.7065 -0.9258
H40 H -0.2820 -0.8415 -0.8943
H41 H -0.3454 -0.8325 -0.9371
C46 C -0.2321(3) -0.7626(8) -1.0100(3)
H42 H -0.2072 -0.8039 -1.0383
loop_
_geom_bond_atom_site_label_1
_geom_bond_atom_site_label_2
_geom_bond_site_symmetry_1
_geom_bond_site_symmetry_2
Zn1 O3 1_555 1_555
Zn2 O5 1_555 1_555
O1 C19 1_555 1_555
O2 C19 1_555 1_555
O3 C20 1_555 1_555
O4 Zn1 1_555 1_555
O5 C39 1_555 1_555
O6 Zn2 1_555 1_555
O7 C40 1_555 1_555
O8 C40 1_555 1_555
O9 C43 1_555 1_555
O10 C46 1_555 1_555
N1 C2 1_555 1_555
N2 N3 1_555 1_555
N3 C7 1_555 1_555
N4 N5 1_555 1_555
N5 H1 1_555 1_555
H2 N5 1_555 1_555
N6 Zn1 1_555 1_555
N7 C22 1_555 1_555
N8 N9 1_555 1_555
N9 C27 1_555 1_555
N10 N11 1_555 1_555
N11 H3 1_555 1_555
H4 N11 1_555 1_555
N12 Zn2 1_555 1_555
N13 C41 1_555 1_555
N14 C44 1_555 1_555
C1 H5 1_555 1_555
C2 C1 1_555 1_555
H6 C2 1_555 1_555
C3 N1 1_555 1_555
H7 C3 1_555 1_555
C4 C3 1_555 1_555
H8 C4 1_555 1_555
C5 C1 1_555 1_555
C6 N2 1_555 1_555
C7 N4 1_555 1_555
C8 C7 1_555 1_555
C9 C8 1_555 1_555
H9 C9 1_555 1_555
C10 N6 1_555 1_555
H10 C10 1_555 1_555
C11 N6 1_555 1_555
H11 C11 1_555 1_555
C12 C8 1_555 1_555
H12 C12 1_555 1_555
C13 C14 1_555 1_555
C14 H13 1_555 1_555
C15 C14 1_555 1_555
H14 C15 1_555 1_555
C16 C15 1_555 1_555
H15 C16 1_555 1_555
C17 C16 1_555 1_555
C18 C13 1_555 1_555
H16 C18 1_555 1_555
C19 C13 1_555 1_555
C20 O4 1_555 1_555
C21 H17 1_555 1_555
C22 C21 1_555 1_555
H18 C22 1_555 1_555
C23 N7 1_555 1_555
H19 C23 1_555 1_555
C24 C23 1_555 1_555
H20 C24 1_555 1_555
C25 C21 1_555 1_555
C26 N8 1_555 1_555
C27 N10 1_555 1_555
C28 C27 1_555 1_555
C29 C28 1_555 1_555
H21 C29 1_555 1_555
C30 N12 1_555 1_555
H22 C30 1_555 1_555
C31 N12 1_555 1_555
H23 C31 1_555 1_555
C32 C28 1_555 1_555
H24 C32 1_555 1_555
C33 C34 1_555 1_555
C34 H25 1_555 1_555
C35 C34 1_555 1_555
C36 C35 1_555 1_555
H26 C36 1_555 1_555
C37 C36 1_555 1_555
H27 C37 1_555 1_555
C38 C33 1_555 1_555
H28 C38 1_555 1_555
C39 O6 1_555 1_555
C40 C35 1_555 1_555
C41 H29 1_555 1_555
H30 C41 1_555 1_555
H31 C41 1_555 1_555
C42 N13 1_555 1_555
H32 C42 1_555 1_555
H33 C42 1_555 1_555
H34 C42 1_555 1_555
C43 N13 1_555 1_555
H35 C43 1_555 1_555
C44 H36 1_555 1_555
H37 C44 1_555 1_555
H38 C44 1_555 1_555
C45 N14 1_555 1_555
H39 C45 1_555 1_555
H40 C45 1_555 1_555
H41 C45 1_555 1_555
C46 N14 1_555 1_555
H42 C46 1_555 1_555
Zn1_2 O2 1_555 1_555
Zn1C N1 1_555 1_555
Zn1B O1 1_555 1_555
Zn2_2 O7 1_555 1_555
Zn2C N7 1_555 1_555
Zn2B O8 1_555 1_555
O1B Zn1 1_555 1_555
O2_2 Zn1 1_555 1_555
O7_2 Zn2 1_555 1_555
O8B Zn2 1_555 1_555
N1C Zn1 1_555 1_555
N7C Zn2 1_555 1_555
N4 C6 1_555 1_555
N10 C26 1_555 1_555
C4 C5 1_555 1_555
C5 C6 1_555 1_555
C9 C10 1_555 1_555
C11 C12 1_555 1_555
C17 C18 1_555 1_555
C17 C20 1_555 1_555
C24 C25 1_555 1_555
C25 C26 1_555 1_555
C29 C30 1_555 1_555
C31 C32 1_555 1_555
C33 C39 1_555 1_555
C37 C38 1_555 1_555

#END
