
#######################################################################
#
#                 Cambridge Crystallographic Data Centre
#                                CCDC 
#
#######################################################################
#
# If this CIF has been generated from an entry in the Cambridge 
# Structural Database, then it will include bibliographic, chemical, 
# crystal, experimental, refinement or atomic coordinate data resulting 
# from the CCDC's data processing and validation procedures.
#
#######################################################################

data_UDIROQ
_symmetry_cell_setting           orthorhombic
_symmetry_space_group_name_H-M   'C m c 21'
_symmetry_Int_Tables_number      36
_space_group_name_Hall           'C 2n -2'
loop_
_symmetry_equiv_pos_site_id
_symmetry_equiv_pos_as_xyz
1 x,y,z
2 -x,-y,1/2+z
3 x,-y,1/2+z
4 -x,y,z
5 1/2+x,1/2+y,z
6 1/2-x,1/2-y,1/2+z
7 1/2+x,1/2-y,1/2+z
8 1/2-x,1/2+y,z
_cell_length_a                   44.9393(17)
_cell_length_b                   27.0903(10)
_cell_length_c                   28.1541(10)
_cell_angle_alpha                90
_cell_angle_beta                 90
_cell_angle_gamma                90
_cell_volume                     34275.3
loop_
_atom_site_label
_atom_site_type_symbol
_atom_site_fract_x
_atom_site_fract_y
_atom_site_fract_z
Gd1 Gd 0.042388(13) 0.72254(2) 0.43849(3)
Gd2 Gd 0.0000 0.61647(5) 0.50609(4)
Gd3 Gd 0.0000 0.61651(5) 0.37457(4)
Gd4 Gd 0.0000 0.48458(5) 0.66969(4)
Ru1 Ru 0.16505(3) 0.63758(5) 0.69255(4)
Ru2 Ru 0.16983(3) 0.64284(5) 0.19364(4)
O41 O 0.0326(2) 0.5095(5) 0.7299(4)
O42 O 0.0589(2) 0.4740(5) 0.7859(4)
O43 O 0.0377(3) 0.6511(5) 0.5529(4)
O44 O 0.0696(3) 0.6940(5) 0.5074(4)
O45 O 0.0639(2) 0.6958(5) 0.3654(5)
O46 O 0.0371(3) 0.6454(6) 0.3225(4)
O47 O 0.0447(3) 0.5080(6) 0.1301(5)
O48 O 0.0752(2) 0.4741(4) 0.0799(4)
O49 O 0.0000 0.5730(8) 0.5819(7)
O50 O 0.0000 0.5701(7) 0.6598(5)
O51 O -0.0244(2) 0.4089(4) 0.6997(4)
O52 O 0.0000 0.7038(6) 0.3890(5)
O53 O 0.03144(13) 0.6368(2) 0.4402(4)
O54 O 0.0000 0.7079(5) 0.4874(4)
O55 O 0.0000 0.5485(8) 0.4414(13)
N1 N 0.1998(3) 0.6131(5) 0.7365(4)
N2 N 0.1854(3) 0.5866(5) 0.6475(4)
N3 N 0.1483(3) 0.6872(5) 0.7398(5)
N4 N 0.1918(3) 0.6971(5) 0.6756(4)
N5 N 0.1321(3) 0.6535(5) 0.6465(4)
N6 N 0.1333(4) 0.5873(5) 0.7100(5)
N7 N 0.1341(3) 0.6588(4) 0.2375(4)
N8 N 0.1390(3) 0.5900(5) 0.1718(4)
N9 N 0.1882(3) 0.5934(4) 0.2399(4)
N10 N 0.2064(3) 0.6197(5) 0.1570(5)
N11 N 0.1939(3) 0.7035(5) 0.2116(5)
N12 N 0.1548(3) 0.6950(4) 0.1454(4)
C1 C 0.0543(3) 0.5023(6) 0.7503(5)
C2 C 0.0826(3) 0.5314(6) 0.7372(5)
C3 C 0.1094(4) 0.5231(6) 0.7580(6)
H1 H 0.1105 0.4985 0.7809
C4 C 0.1356(4) 0.5494(6) 0.7469(6)
H2 H 0.1535 0.5430 0.7623
C5 C 0.1052(3) 0.5928(5) 0.6870(5)
C6 C 0.1071(4) 0.6281(6) 0.6497(5)
C7 C 0.1362(3) 0.6859(5) 0.6085(5)
H3 H 0.1538 0.7036 0.6049
C8 C 0.1127(4) 0.6906(8) 0.5757(6)
H4 H 0.1149 0.7116 0.5498
C9 C 0.0860(4) 0.6644(7) 0.5814(5)
C10 C 0.0617(4) 0.6707(7) 0.5445(6)
C11 C 0.0829(3) 0.6337(7) 0.6146(5)
H5 H 0.0657 0.6148 0.6171
C12 C 0.0816(4) 0.5655(7) 0.7027(6)
H6 H 0.0633 0.5710 0.6882
C13 C 0.2045(3) 0.6279(6) 0.7817(5)
H7 H 0.1900 0.6462 0.7974
C14 C 0.2296(4) 0.6166(6) 0.8038(6)
H8 H 0.2320 0.6252 0.8355
C15 C 0.2521(4) 0.5921(6) 0.7806(6)
H9 H 0.2703 0.5867 0.7955
C16 C 0.2475(4) 0.5758(6) 0.7350(7)
H10 H 0.2623 0.5582 0.7195
C17 C 0.2211(4) 0.5853(6) 0.7120(6)
C18 C 0.2130(4) 0.5688(6) 0.6655(6)
C19 C 0.2292(4) 0.5376(7) 0.6396(6)
H11 H 0.2478 0.5273 0.6502
C20 C 0.2182(4) 0.5210(7) 0.5970(6)
H12 H 0.2295 0.4993 0.5788
C21 C 0.1912(5) 0.5359(7) 0.5812(6)
H13 H 0.1828 0.5228 0.5537
C22 C 0.1763(4) 0.5724(7) 0.6083(6)
H14 H 0.1589 0.5862 0.5961
C23 C 0.1276(5) 0.6820(8) 0.7686(7)
H15 H 0.1172 0.6523 0.7682
C24 C 0.1184(5) 0.7190(10) 0.8029(7)
H16 H 0.1032 0.7120 0.8242
C25 C 0.1318(4) 0.7632(7) 0.8041(6)
H17 H 0.1270 0.7863 0.8273
C26 C 0.1537(5) 0.7738(8) 0.7689(8)
H18 H 0.1621 0.8050 0.7657
C27 C 0.1618(5) 0.7335(10) 0.7389(6)
C28 C 0.1866(4) 0.7380(5) 0.7025(5)
C29 C 0.2044(4) 0.7819(6) 0.6985(6)
H19 H 0.2017 0.8087 0.7187
C30 C 0.2258(4) 0.7825(6) 0.6628(6)
H20 H 0.2365 0.8111 0.6562
C31 C 0.2309(4) 0.7395(7) 0.6373(6)
H21 H 0.2462 0.7387 0.6150
C32 C 0.2143(3) 0.6996(5) 0.6442(5)
H22 H 0.2185 0.6716 0.6262
C33 C 0.0616(5) 0.6706(8) 0.3307(6)
C34 C 0.0860(4) 0.6685(6) 0.2975(5)
C35 C 0.1096(3) 0.6979(6) 0.3021(5)
H23 H 0.1106 0.7217 0.3259
C36 C 0.1317(4) 0.6916(6) 0.2714(5)
H24 H 0.1476 0.7134 0.2743
C37 C 0.1086(3) 0.6297(7) 0.2299(4)
C38 C 0.1115(3) 0.5953(5) 0.1904(5)
C39 C 0.1462(4) 0.5572(5) 0.1368(6)
H25 H 0.1655 0.5538 0.1254
C40 C 0.1219(3) 0.5285(5) 0.1187(5)
H26 H 0.1261 0.5048 0.0958
C41 C 0.0924(3) 0.5334(5) 0.1332(5)
C42 C 0.0703(4) 0.5044(7) 0.1157(7)
C43 C 0.0881(3) 0.5668(5) 0.1723(5)
H27 H 0.0694 0.5696 0.1858
C44 C 0.0850(3) 0.6345(5) 0.2567(5)
H28 H 0.0678 0.6167 0.2500
C45 C 0.1744(4) 0.5737(6) 0.2826(5)
H29 H 0.1552 0.5827 0.2910
C46 C 0.1897(4) 0.5431(6) 0.3092(6)
H30 H 0.1814 0.5346 0.3383
C47 C 0.2161(4) 0.5228(7) 0.2986(6)
H31 H 0.2247 0.4987 0.3178
C48 C 0.2306(4) 0.5404(7) 0.2558(7)
H32 H 0.2493 0.5292 0.2466
C49 C 0.2142(4) 0.5766(6) 0.2281(5)
C50 C 0.2257(4) 0.5926(5) 0.1815(6)
C51 C 0.2542(4) 0.5794(6) 0.1646(6)
H33 H 0.2676 0.5629 0.1841
C52 C 0.2618(4) 0.5915(6) 0.1188(6)
H34 H 0.2799 0.5820 0.1056
C53 C 0.2407(3) 0.6194(6) 0.0923(6)
H35 H 0.2442 0.6276 0.0607
C54 C 0.2143(3) 0.6342(7) 0.1153(6)
H36 H 0.2018 0.6559 0.0993
C55 C 0.2153(4) 0.7054(8) 0.2471(6)
H37 H 0.2201 0.6766 0.2633
C56 C 0.2297(4) 0.7489(7) 0.2591(7)
H38 H 0.2437 0.7492 0.2834
C57 C 0.2231(5) 0.7920(8) 0.2346(7)
H39 H 0.2333 0.8212 0.2406
C58 C 0.2018(4) 0.7898(7) 0.2024(6)
H40 H 0.1965 0.8189 0.1873
C59 C 0.1869(4) 0.7468(6) 0.1896(5)
C60 C 0.1646(3) 0.7397(5) 0.1530(5)
C61 C 0.1546(4) 0.7789(8) 0.1261(6)
H41 H 0.1616 0.8102 0.1335
C62 C 0.1365(4) 0.7746(7) 0.0923(7)
H42 H 0.1302 0.8019 0.0749
C63 C 0.1254(4) 0.7228(9) 0.0813(6)
H43 H 0.1126 0.7169 0.0559
C64 C 0.1351(4) 0.6843(7) 0.1104(5)
H44 H 0.1282 0.6523 0.1059
C65 C 0.0000 0.5926(10) 0.6233(11)
H45 H 0.0000 0.6269 0.6250
C66 C 0.0000 0.3891(10) 0.7073(8)
C67 C 0.0000 0.3447(14) 0.7269(13)
H46 H 0.0000 0.3418 0.7609
H47 H -0.0174 0.3291 0.7142
O56 O 0.0000 0.5609(8) 0.3059(6)
O57 O 0.0413(3) 0.5546(6) 0.5099(5)
O58 O 0.09202(18) 0.7614(4) 0.4373(5)
O59 O 0.0300(5) 0.8018(7) 0.3914(8)
O60 O 0.0434(5) 0.5595(7) 0.3710(6)
O61 O 0.0368(4) 0.7937(6) 0.4933(7)
O62 O 0.0000 0.4274(7) 0.5949(12)
O51C O 0.0244(2) 0.4089(4) 0.6997(4)
H47C H 0.0174 0.3291 0.7142
Gd1C Gd -0.042388(13) 0.72254(2) 0.43849(3)
Ru1C Ru -0.16505(3) 0.63758(5) 0.69255(4)
Ru2C Ru -0.16983(3) 0.64284(5) 0.19364(4)
O41C O -0.0326(2) 0.5095(5) 0.7299(4)
O42C O -0.0589(2) 0.4740(5) 0.7859(4)
O43C O -0.0377(3) 0.6511(5) 0.5529(4)
O44C O -0.0696(3) 0.6940(5) 0.5074(4)
O45C O -0.0639(2) 0.6958(5) 0.3654(5)
O46C O -0.0371(3) 0.6454(6) 0.3225(4)
O47C O -0.0447(3) 0.5080(6) 0.1301(5)
O48C O -0.0752(2) 0.4741(4) 0.0799(4)
O53C O -0.03144(13) 0.6368(2) 0.4402(4)
N1C N -0.1998(3) 0.6131(5) 0.7365(4)
N2C N -0.1854(3) 0.5866(5) 0.6475(4)
N3C N -0.1483(3) 0.6872(5) 0.7398(5)
N4C N -0.1918(3) 0.6971(5) 0.6756(4)
N5C N -0.1321(3) 0.6535(5) 0.6465(4)
N6C N -0.1333(4) 0.5873(5) 0.7100(5)
N7C N -0.1341(3) 0.6588(4) 0.2375(4)
N8C N -0.1390(3) 0.5900(5) 0.1718(4)
N9C N -0.1882(3) 0.5934(4) 0.2399(4)
N10C N -0.2064(3) 0.6197(5) 0.1570(5)
N11C N -0.1939(3) 0.7035(5) 0.2116(5)
N12C N -0.1548(3) 0.6950(4) 0.1454(4)
C1C C -0.0543(3) 0.5023(6) 0.7503(5)
C2C C -0.0826(3) 0.5314(6) 0.7372(5)
C3C C -0.1094(4) 0.5231(6) 0.7580(6)
H1C H -0.1105 0.4985 0.7809
C4C C -0.1356(4) 0.5494(6) 0.7469(6)
H2C H -0.1535 0.5430 0.7623
C5C C -0.1052(3) 0.5928(5) 0.6870(5)
C6C C -0.1071(4) 0.6281(6) 0.6497(5)
C7C C -0.1362(3) 0.6859(5) 0.6085(5)
H3C H -0.1538 0.7036 0.6049
C8C C -0.1127(4) 0.6906(8) 0.5757(6)
H4C H -0.1149 0.7116 0.5498
C9C C -0.0860(4) 0.6644(7) 0.5814(5)
C10C C -0.0617(4) 0.6707(7) 0.5445(6)
C11C C -0.0829(3) 0.6337(7) 0.6146(5)
H5C H -0.0657 0.6148 0.6171
C12C C -0.0816(4) 0.5655(7) 0.7027(6)
H6C H -0.0633 0.5710 0.6882
C13C C -0.2045(3) 0.6279(6) 0.7817(5)
H7C H -0.1900 0.6462 0.7974
C14C C -0.2296(4) 0.6166(6) 0.8038(6)
H8C H -0.2320 0.6252 0.8355
C15C C -0.2521(4) 0.5921(6) 0.7806(6)
H9C H -0.2703 0.5867 0.7955
C16C C -0.2475(4) 0.5758(6) 0.7350(7)
H10C H -0.2623 0.5582 0.7195
C17C C -0.2211(4) 0.5853(6) 0.7120(6)
C18C C -0.2130(4) 0.5688(6) 0.6655(6)
C19C C -0.2292(4) 0.5376(7) 0.6396(6)
H11C H -0.2478 0.5273 0.6502
C20C C -0.2182(4) 0.5210(7) 0.5970(6)
H12C H -0.2295 0.4993 0.5788
C21C C -0.1912(5) 0.5359(7) 0.5812(6)
H13C H -0.1828 0.5228 0.5537
C22C C -0.1763(4) 0.5724(7) 0.6083(6)
H14C H -0.1589 0.5862 0.5961
C23C C -0.1276(5) 0.6820(8) 0.7686(7)
H15C H -0.1172 0.6523 0.7682
C24C C -0.1184(5) 0.7190(10) 0.8029(7)
H16C H -0.1032 0.7120 0.8242
C25C C -0.1318(4) 0.7632(7) 0.8041(6)
H17C H -0.1270 0.7863 0.8273
C26C C -0.1537(5) 0.7738(8) 0.7689(8)
H18C H -0.1621 0.8050 0.7657
C27C C -0.1618(5) 0.7335(10) 0.7389(6)
C28C C -0.1866(4) 0.7380(5) 0.7025(5)
C29C C -0.2044(4) 0.7819(6) 0.6985(6)
H19C H -0.2017 0.8087 0.7187
C30C C -0.2258(4) 0.7825(6) 0.6628(6)
H20C H -0.2365 0.8111 0.6562
C31C C -0.2309(4) 0.7395(7) 0.6373(6)
H21C H -0.2462 0.7387 0.6150
C32C C -0.2143(3) 0.6996(5) 0.6442(5)
H22C H -0.2185 0.6716 0.6262
C33C C -0.0616(5) 0.6706(8) 0.3307(6)
C34C C -0.0860(4) 0.6685(6) 0.2975(5)
C35C C -0.1096(3) 0.6979(6) 0.3021(5)
H23C H -0.1106 0.7217 0.3259
C36C C -0.1317(4) 0.6916(6) 0.2714(5)
H24C H -0.1476 0.7134 0.2743
C37C C -0.1086(3) 0.6297(7) 0.2299(4)
C38C C -0.1115(3) 0.5953(5) 0.1904(5)
C39C C -0.1462(4) 0.5572(5) 0.1368(6)
H25C H -0.1655 0.5538 0.1254
C40C C -0.1219(3) 0.5285(5) 0.1187(5)
H26C H -0.1261 0.5048 0.0958
C41C C -0.0924(3) 0.5334(5) 0.1332(5)
C42C C -0.0703(4) 0.5044(7) 0.1157(7)
C43C C -0.0881(3) 0.5668(5) 0.1723(5)
H27C H -0.0694 0.5696 0.1858
C44C C -0.0850(3) 0.6345(5) 0.2567(5)
H28C H -0.0678 0.6167 0.2500
C45C C -0.1744(4) 0.5737(6) 0.2826(5)
H29C H -0.1552 0.5827 0.2910
C46C C -0.1897(4) 0.5431(6) 0.3092(6)
H30C H -0.1814 0.5346 0.3383
C47C C -0.2161(4) 0.5228(7) 0.2986(6)
H31C H -0.2247 0.4987 0.3178
C48C C -0.2306(4) 0.5404(7) 0.2558(7)
H32C H -0.2493 0.5292 0.2466
C49C C -0.2142(4) 0.5766(6) 0.2281(5)
C50C C -0.2257(4) 0.5926(5) 0.1815(6)
C51C C -0.2542(4) 0.5794(6) 0.1646(6)
H33C H -0.2676 0.5629 0.1841
C52C C -0.2618(4) 0.5915(6) 0.1188(6)
H34C H -0.2799 0.5820 0.1056
C53C C -0.2407(3) 0.6194(6) 0.0923(6)
H35C H -0.2442 0.6276 0.0607
C54C C -0.2143(3) 0.6342(7) 0.1153(6)
H36C H -0.2018 0.6559 0.0993
C55C C -0.2153(4) 0.7054(8) 0.2471(6)
H37C H -0.2201 0.6766 0.2633
C56C C -0.2297(4) 0.7489(7) 0.2591(7)
H38C H -0.2437 0.7492 0.2834
C57C C -0.2231(5) 0.7920(8) 0.2346(7)
H39C H -0.2333 0.8212 0.2406
C58C C -0.2018(4) 0.7898(7) 0.2024(6)
H40C H -0.1965 0.8189 0.1873
C59C C -0.1869(4) 0.7468(6) 0.1896(5)
C60C C -0.1646(3) 0.7397(5) 0.1530(5)
C61C C -0.1546(4) 0.7789(8) 0.1261(6)
H41C H -0.1616 0.8102 0.1335
C62C C -0.1365(4) 0.7746(7) 0.0923(7)
H42C H -0.1302 0.8019 0.0749
C63C C -0.1254(4) 0.7228(9) 0.0813(6)
H43C H -0.1126 0.7169 0.0559
C64C C -0.1351(4) 0.6843(7) 0.1104(5)
H44C H -0.1282 0.6523 0.1059
O57C O -0.0413(3) 0.5546(6) 0.5099(5)
O58C O -0.09202(18) 0.7614(4) 0.4373(5)
O59C O -0.0300(5) 0.8018(7) 0.3914(8)
O60C O -0.0434(5) 0.5595(7) 0.3710(6)
O61C O -0.0368(4) 0.7937(6) 0.4933(7)
Gd4A Gd 0.0000 0.51542(5) 0.16969(4)
O47A O -0.0447(3) 0.4920(6) 0.6301(5)
O47B O 0.0447(3) 0.4920(6) 0.6301(5)
W1 W 0.273324(18) 0.15223(3) 0.38070(2)
W2 W 0.215283(19) 0.23035(3) 0.38223(2)
W3 W 0.211074(18) 0.12413(3) 0.32082(2)
W4 W 0.142018(18) 0.09369(3) 0.38569(3)
W5 W 0.204751(17) 0.00552(3) 0.38435(2)
W6 W 0.211132(18) 0.11926(3) 0.57093(2)
W7 W 0.267559(10) 0.032676(17) 0.44279(3)
W8 W 0.142347(18) 0.09019(3) 0.50485(3)
W9 W 0.273536(18) 0.14834(3) 0.51158(2)
W10 W 0.147105(12) 0.198778(18) 0.44817(3)
W11 W 0.216056(19) 0.22751(3) 0.51327(2)
W12 W 0.205423(18) 0.00303(3) 0.50321(2)
Si1 Si 0.20905(5) 0.11871(9) 0.44578(19)
O1 O 0.2479(3) -0.0056(4) 0.4903(4)
O2 O 0.21814(14) 0.0613(2) 0.4432(4)
O3 O 0.1297(2) 0.1588(4) 0.3990(4)
O4 O 0.1710(2) 0.1202(4) 0.3424(4)
O5 O 0.2534(3) 0.1322(4) 0.3233(4)
O6 O 0.1761(3) 0.2176(4) 0.4927(4)
O7 O 0.12475(15) 0.0730(2) 0.4457(5)
O8 O 0.17310(13) 0.1223(2) 0.4468(5)
O9 O 0.1716(3) 0.1146(4) 0.5462(3)
O10 O 0.2144(2) 0.0586(4) 0.3429(4)
O11 O 0.1270(3) 0.1563(5) 0.4941(4)
O12 O 0.2224(2) 0.1443(4) 0.4925(3)
O13 O 0.1754(3) 0.2192(4) 0.4006(4)
O14 O 0.2089(3) 0.1901(5) 0.5697(3)
O15 O 0.2224(3) 0.1447(4) 0.3980(4)
O16 O 0.2535(3) 0.1248(5) 0.5686(4)
O17 O 0.1144(3) 0.0685(5) 0.5407(4)
O18 O 0.1666(3) 0.0339(4) 0.5007(4)
O19 O 0.1678(2) 0.0374(4) 0.3875(4)
O20 O 0.2579(3) 0.2134(4) 0.5227(4)
O21 O 0.2067(3) 0.1078(5) 0.6294(4)
O22 O 0.2568(2) 0.2160(4) 0.3728(4)
O23 O 0.22394(16) 0.2404(2) 0.4461(5)
O24 O 0.2159(3) 0.0518(5) 0.5482(4)
O25 O 0.30042(15) 0.0023(3) 0.4401(5)
O26 O 0.3076(3) 0.1615(4) 0.3583(4)
O27 O 0.1988(3) -0.0455(5) 0.5405(4)
O28 O 0.2058(3) 0.1172(4) 0.2620(5)
O29 O 0.2739(3) 0.0821(4) 0.4893(3)
O30 O 0.19690(15) -0.0274(2) 0.4418(5)
O31 O 0.1974(3) -0.0414(4) 0.3457(4)
O32 O 0.2073(3) 0.1926(4) 0.3244(4)
O33 O 0.1236(2) 0.2479(3) 0.4502(5)
O34 O 0.2464(2) -0.0043(4) 0.3959(3)
O35 O 0.2146(3) 0.2868(4) 0.5353(4)
O36 O 0.1151(3) 0.0772(5) 0.3454(4)
O37 O 0.27845(14) 0.1643(2) 0.4454(5)
O38 O 0.3086(3) 0.1537(5) 0.5335(4)
O39 O 0.2746(2) 0.0838(4) 0.3967(4)
O40 O 0.2127(3) 0.2893(5) 0.3610(4)
loop_
_geom_bond_atom_site_label_1
_geom_bond_atom_site_label_2
_geom_bond_site_symmetry_1
_geom_bond_site_symmetry_2
W1 O5 1_555 1_555
W2 O13 1_555 1_555
W3 O4 1_555 1_555
W4 O3 1_555 1_555
W5 O2 1_555 1_555
W6 O9 1_555 1_555
W7 O1 1_555 1_555
W8 O7 1_555 1_555
W9 O12 1_555 1_555
W10 O3 1_555 1_555
W11 O6 1_555 1_555
W12 O1 1_555 1_555
Si1 O2 1_555 1_555
O2 W7 1_555 1_555
O4 W4 1_555 1_555
O5 W3 1_555 1_555
O6 W10 1_555 1_555
O7 W4 1_555 1_555
O8 W4 1_555 1_555
O9 W8 1_555 1_555
O10 W3 1_555 1_555
O11 W8 1_555 1_555
O12 W6 1_555 1_555
O13 W10 1_555 1_555
O14 W6 1_555 1_555
O15 W1 1_555 1_555
O16 W6 1_555 1_555
O17 W8 1_555 1_555
O18 W8 1_555 1_555
O19 W4 1_555 1_555
O20 W9 1_555 1_555
O21 W6 1_555 1_555
O22 W1 1_555 1_555
O23 W2 1_555 1_555
O24 W6 1_555 1_555
O25 W7 1_555 1_555
O26 W1 1_555 1_555
O27 W12 1_555 1_555
O28 W3 1_555 1_555
O29 W7 1_555 1_555
O30 W5 1_555 1_555
O31 W5 1_555 1_555
O32 W2 1_555 1_555
O33 W10 1_555 1_555
O34 W5 1_555 1_555
O35 W11 1_555 1_555
O36 W4 1_555 1_555
O37 W1 1_555 1_555
O38 W9 1_555 1_555
O39 W1 1_555 1_555
O40 W2 1_555 1_555
Gd1 O44 1_555 1_555
Gd2 O43 1_555 1_555
Gd3 O46 1_555 1_555
Gd4 O41 1_555 1_555
Ru1 N1 1_555 1_555
Ru2 N7 1_555 1_555
O41 C1 1_555 1_555
O42 C1 1_555 1_555
O43 C10 1_555 1_555
O44 C10 1_555 1_555
O45 Gd1 1_555 1_555
O46 C33 1_555 1_555
O47 C42 1_555 1_555
O48 C42 1_555 1_555
O49 Gd2 1_555 1_555
O50 Gd4 1_555 1_555
O51 Gd4 1_555 1_555
O52 Gd1 1_555 1_555
O53 Gd1 1_555 1_555
O54 Gd1 1_555 1_555
O55 Gd2 1_555 1_555
N1 C13 1_555 1_555
N2 Ru1 1_555 1_555
N3 Ru1 1_555 1_555
N4 Ru1 1_555 1_555
N5 Ru1 1_555 1_555
N6 Ru1 1_555 1_555
N7 C36 1_555 1_555
N8 Ru2 1_555 1_555
N9 Ru2 1_555 1_555
N10 Ru2 1_555 1_555
N11 Ru2 1_555 1_555
N12 Ru2 1_555 1_555
C1 C2 1_555 1_555
C2 C3 1_555 1_555
C3 H1 1_555 1_555
C4 N6 1_555 1_555
H2 C4 1_555 1_555
C5 N6 1_555 1_555
C6 N5 1_555 1_555
C7 N5 1_555 1_555
H3 C7 1_555 1_555
C8 C7 1_555 1_555
H4 C8 1_555 1_555
C9 C8 1_555 1_555
C10 C9 1_555 1_555
C11 C6 1_555 1_555
H5 C11 1_555 1_555
C12 C2 1_555 1_555
H6 C12 1_555 1_555
C13 H7 1_555 1_555
C14 C13 1_555 1_555
H8 C14 1_555 1_555
C15 C14 1_555 1_555
H9 C15 1_555 1_555
C16 C15 1_555 1_555
H10 C16 1_555 1_555
C17 N1 1_555 1_555
C18 N2 1_555 1_555
C19 C18 1_555 1_555
H11 C19 1_555 1_555
C20 C19 1_555 1_555
H12 C20 1_555 1_555
C21 C20 1_555 1_555
H13 C21 1_555 1_555
C22 N2 1_555 1_555
H14 C22 1_555 1_555
C23 N3 1_555 1_555
H15 C23 1_555 1_555
C24 C23 1_555 1_555
H16 C24 1_555 1_555
C25 C24 1_555 1_555
H17 C25 1_555 1_555
C26 C25 1_555 1_555
H18 C26 1_555 1_555
C27 N3 1_555 1_555
C28 N4 1_555 1_555
C29 C28 1_555 1_555
H19 C29 1_555 1_555
C30 C29 1_555 1_555
H20 C30 1_555 1_555
C31 C30 1_555 1_555
H21 C31 1_555 1_555
C32 N4 1_555 1_555
H22 C32 1_555 1_555
C33 O45 1_555 1_555
C34 C33 1_555 1_555
C35 C34 1_555 1_555
H23 C35 1_555 1_555
C36 C35 1_555 1_555
H24 C36 1_555 1_555
C37 N7 1_555 1_555
C38 N8 1_555 1_555
C39 N8 1_555 1_555
H25 C39 1_555 1_555
C40 C39 1_555 1_555
H26 C40 1_555 1_555
C41 C40 1_555 1_555
C42 C41 1_555 1_555
C43 C38 1_555 1_555
H27 C43 1_555 1_555
C44 C34 1_555 1_555
H28 C44 1_555 1_555
C45 N9 1_555 1_555
H29 C45 1_555 1_555
C46 C45 1_555 1_555
H30 C46 1_555 1_555
C47 C46 1_555 1_555
H31 C47 1_555 1_555
C48 C47 1_555 1_555
H32 C48 1_555 1_555
C49 N9 1_555 1_555
C50 N10 1_555 1_555
C51 C50 1_555 1_555
H33 C51 1_555 1_555
C52 C51 1_555 1_555
H34 C52 1_555 1_555
C53 C52 1_555 1_555
H35 C53 1_555 1_555
C54 N10 1_555 1_555
H36 C54 1_555 1_555
C55 N11 1_555 1_555
H37 C55 1_555 1_555
C56 C55 1_555 1_555
H38 C56 1_555 1_555
C57 C56 1_555 1_555
H39 C57 1_555 1_555
C58 C57 1_555 1_555
H40 C58 1_555 1_555
C59 N11 1_555 1_555
C60 N12 1_555 1_555
C61 C60 1_555 1_555
H41 C61 1_555 1_555
C62 C61 1_555 1_555
H42 C62 1_555 1_555
C63 C62 1_555 1_555
H43 C63 1_555 1_555
C64 N12 1_555 1_555
H44 C64 1_555 1_555
C65 O49 1_555 1_555
H45 C65 1_555 1_555
C66 O51 1_555 1_555
C67 C66 1_555 1_555
H46 C67 1_555 1_555
H47 C67 1_555 1_555
O56 Gd3 1_555 1_555
O57 Gd2 1_555 1_555
O58 Gd1 1_555 1_555
O59 Gd1 1_555 1_555
O60 Gd3 1_555 1_555
O61 Gd1 1_555 1_555
O62 Gd4 1_555 1_555
O51C Gd4 1_555 1_555
H47C C67 1_555 1_555
Gd1C O52 1_555 1_555
Ru1C N1C 1_555 1_555
Ru2C N7C 1_555 1_555
O41C Gd4 1_555 1_555
O42C C1C 1_555 1_555
O43C Gd2 1_555 1_555
O44C Gd1C 1_555 1_555
O45C Gd1C 1_555 1_555
O46C Gd3 1_555 1_555
O47C C42C 1_555 1_555
O48C C42C 1_555 1_555
O53C Gd2 1_555 1_555
N1C C13C 1_555 1_555
N2C Ru1C 1_555 1_555
N3C Ru1C 1_555 1_555
N4C Ru1C 1_555 1_555
N5C Ru1C 1_555 1_555
N6C Ru1C 1_555 1_555
N7C C36C 1_555 1_555
N8C Ru2C 1_555 1_555
N9C Ru2C 1_555 1_555
N10C Ru2C 1_555 1_555
N11C Ru2C 1_555 1_555
N12C Ru2C 1_555 1_555
C1C O41C 1_555 1_555
C2C C1C 1_555 1_555
C3C C2C 1_555 1_555
H1C C3C 1_555 1_555
C4C N6C 1_555 1_555
H2C C4C 1_555 1_555
C5C N6C 1_555 1_555
C6C N5C 1_555 1_555
C7C N5C 1_555 1_555
H3C C7C 1_555 1_555
C8C C7C 1_555 1_555
H4C C8C 1_555 1_555
C9C C8C 1_555 1_555
C10C O43C 1_555 1_555
C11C C6C 1_555 1_555
H5C C11C 1_555 1_555
C12C C2C 1_555 1_555
H6C C12C 1_555 1_555
C13C H7C 1_555 1_555
C14C C13C 1_555 1_555
H8C C14C 1_555 1_555
C15C C14C 1_555 1_555
H9C C15C 1_555 1_555
C16C C15C 1_555 1_555
H10C C16C 1_555 1_555
C17C N1C 1_555 1_555
C18C N2C 1_555 1_555
C19C C18C 1_555 1_555
H11C C19C 1_555 1_555
C20C C19C 1_555 1_555
H12C C20C 1_555 1_555
C21C C20C 1_555 1_555
H13C C21C 1_555 1_555
C22C N2C 1_555 1_555
H14C C22C 1_555 1_555
C23C N3C 1_555 1_555
H15C C23C 1_555 1_555
C24C C23C 1_555 1_555
H16C C24C 1_555 1_555
C25C C24C 1_555 1_555
H17C C25C 1_555 1_555
C26C C25C 1_555 1_555
H18C C26C 1_555 1_555
C27C N3C 1_555 1_555
C28C N4C 1_555 1_555
C29C C28C 1_555 1_555
H19C C29C 1_555 1_555
C30C C29C 1_555 1_555
H20C C30C 1_555 1_555
C31C C30C 1_555 1_555
H21C C31C 1_555 1_555
C32C N4C 1_555 1_555
H22C C32C 1_555 1_555
C33C O45C 1_555 1_555
C34C C33C 1_555 1_555
C35C C34C 1_555 1_555
H23C C35C 1_555 1_555
C36C C35C 1_555 1_555
H24C C36C 1_555 1_555
C37C N7C 1_555 1_555
C38C N8C 1_555 1_555
C39C N8C 1_555 1_555
H25C C39C 1_555 1_555
C40C C39C 1_555 1_555
H26C C40C 1_555 1_555
C41C C40C 1_555 1_555
C42C C41C 1_555 1_555
C43C C38C 1_555 1_555
H27C C43C 1_555 1_555
C44C C34C 1_555 1_555
H28C C44C 1_555 1_555
C45C N9C 1_555 1_555
H29C C45C 1_555 1_555
C46C C45C 1_555 1_555
H30C C46C 1_555 1_555
C47C C46C 1_555 1_555
H31C C47C 1_555 1_555
C48C C47C 1_555 1_555
H32C C48C 1_555 1_555
C49C N9C 1_555 1_555
C50C N10C 1_555 1_555
C51C C50C 1_555 1_555
H33C C51C 1_555 1_555
C52C C51C 1_555 1_555
H34C C52C 1_555 1_555
C53C C52C 1_555 1_555
H35C C53C 1_555 1_555
C54C N10C 1_555 1_555
H36C C54C 1_555 1_555
C55C N11C 1_555 1_555
H37C C55C 1_555 1_555
C56C C55C 1_555 1_555
H38C C56C 1_555 1_555
C57C C56C 1_555 1_555
H39C C57C 1_555 1_555
C58C C57C 1_555 1_555
H40C C58C 1_555 1_555
C59C N11C 1_555 1_555
C60C N12C 1_555 1_555
C61C C60C 1_555 1_555
H41C C61C 1_555 1_555
C62C C61C 1_555 1_555
H42C C62C 1_555 1_555
C63C C62C 1_555 1_555
H43C C63C 1_555 1_555
C64C N12C 1_555 1_555
H44C C64C 1_555 1_555
O57C Gd2 1_555 1_555
O58C Gd1C 1_555 1_555
O59C Gd1C 1_555 1_555
O60C Gd3 1_555 1_555
O61C Gd1C 1_555 1_555
Gd4A O47 1_555 1_555
O47A Gd4 1_555 1_555
O47B Gd4 1_555 1_555
W2 O15 1_555 1_555
W2 O22 1_555 1_555
W3 O15 1_555 1_555
W3 O32 1_555 1_555
W5 O10 1_555 1_555
W5 O19 1_555 1_555
W7 O34 1_555 1_555
W7 O39 1_555 1_555
W8 O8 1_555 1_555
W9 O16 1_555 1_555
W9 O29 1_555 1_555
W9 O37 1_555 1_555
W10 O8 1_555 1_555
W10 O11 1_555 1_555
W11 O12 1_555 1_555
W11 O14 1_555 1_555
W11 O20 1_555 1_555
W11 O23 1_555 1_555
W12 O2 1_555 1_555
W12 O18 1_555 1_555
W12 O24 1_555 1_555
W12 O30 1_555 1_555
Si1 O8 1_555 1_555
Si1 O12 1_555 1_555
Si1 O15 1_555 1_555
Gd2 O53 1_555 1_555
Gd2 O54 1_555 1_555
Gd3 O52 1_555 1_555
Gd3 O53 1_555 1_555
Gd3 O55 1_555 1_555
Gd3 O53C 1_555 1_555
O50 C65 1_555 1_555
O54 Gd1C 1_555 1_555
C3 C4 1_555 1_555
C5 C6 1_555 1_555
C5 C12 1_555 1_555
C9 C11 1_555 1_555
C16 C17 1_555 1_555
C17 C18 1_555 1_555
C21 C22 1_555 1_555
C26 C27 1_555 1_555
C27 C28 1_555 1_555
C31 C32 1_555 1_555
C37 C38 1_555 1_555
C37 C44 1_555 1_555
C41 C43 1_555 1_555
C48 C49 1_555 1_555
C49 C50 1_555 1_555
C53 C54 1_555 1_555
C58 C59 1_555 1_555
C59 C60 1_555 1_555
C63 C64 1_555 1_555
C66 O51C 1_555 1_555
Gd1C O53C 1_555 1_555
O44C C10C 1_555 1_555
O46C C33C 1_555 1_555
O47C Gd4A 1_555 1_555
C3C C4C 1_555 1_555
C5C C6C 1_555 1_555
C5C C12C 1_555 1_555
C9C C10C 1_555 1_555
C9C C11C 1_555 1_555
C16C C17C 1_555 1_555
C17C C18C 1_555 1_555
C21C C22C 1_555 1_555
C26C C27C 1_555 1_555
C27C C28C 1_555 1_555
C31C C32C 1_555 1_555
C37C C38C 1_555 1_555
C37C C44C 1_555 1_555
C41C C43C 1_555 1_555
C48C C49C 1_555 1_555
C49C C50C 1_555 1_555
C53C C54C 1_555 1_555
C58C C59C 1_555 1_555
C59C C60C 1_555 1_555
C63C C64C 1_555 1_555

#END
