
#######################################################################
#
#                 Cambridge Crystallographic Data Centre
#                                CCDC 
#
#######################################################################
#
# If this CIF has been generated from an entry in the Cambridge 
# Structural Database, then it will include bibliographic, chemical, 
# crystal, experimental, refinement or atomic coordinate data resulting 
# from the CCDC's data processing and validation procedures.
#
#######################################################################

data_UDIRUV
_symmetry_cell_setting           triclinic
_symmetry_space_group_name_H-M   'P -1'
_symmetry_Int_Tables_number      2
_space_group_name_Hall           '-P 1'
loop_
_symmetry_equiv_pos_site_id
_symmetry_equiv_pos_as_xyz
1 x,y,z
2 -x,-y,-z
_cell_length_a                   10.9814(10)
_cell_length_b                   11.5837(11)
_cell_length_c                   22.240(2)
_cell_angle_alpha                81.6300(10)
_cell_angle_beta                 84.5780(10)
_cell_angle_gamma                72.5130(10)
_cell_volume                     2665.7
loop_
_atom_site_label
_atom_site_type_symbol
_atom_site_fract_x
_atom_site_fract_y
_atom_site_fract_z
Cd1 Cd 0.48384(2) 0.36614(2) 0.378072(10)
Cd2 Cd 1.00235(2) -0.41343(2) 0.114563(10)
O1 O 1.1688(2) -0.5071(3) 0.04096(12)
O2 O 1.2102(2) -0.3823(3) 0.09521(13)
O3 O 0.8199(2) -0.3210(2) 0.18200(11)
O4 O 0.9990(2) -0.2799(2) 0.18865(12)
O5 O 0.6710(3) 0.2332(3) 0.33226(15)
O6 O 0.4970(3) 0.1850(3) 0.33388(14)
O7 O 0.2673(2) 0.3566(2) 0.39852(12)
O8 O 0.3150(2) 0.5045(2) 0.43097(11)
O9 O 0.8657(2) -0.5034(2) 0.07854(12)
H1 H 0.8557 -0.4976 0.0407
H2 H 0.8231 -0.5432 0.1023
O10 O 0.6305(3) 0.4700(3) 0.39345(12)
N1 N 0.9216(3) -0.4033(3) 0.82235(13)
N2 N 0.7348(4) 0.0415(3) 0.73895(14)
N3 N 0.6734(4) 0.1338(3) 0.69573(15)
N4 N 0.7102(3) -0.0411(3) 0.66027(12)
N5 N 0.7316(3) -0.1190(3) 0.61526(13)
H3 H 0.6834 -0.1647 0.6244
H4 H 0.8163 -0.1579 0.6190
N6 N 0.5228(3) 0.2709(3) 0.47930(13)
N7 N 0.4467(3) 0.5016(3) 0.28896(13)
N8 N 0.4775(3) 0.8289(4) 0.11813(18)
N9 N 0.4313(3) 0.9285(4) 0.07581(19)
N10 N 0.2713(2) 0.8769(3) 0.12396(12)
N11 N 0.1466(3) 0.8850(4) 0.1450(2)
H5 H 0.1264 0.8272 0.1247
H6 H 0.0997 0.9632 0.1316
N12 N 0.0927(3) 1.2501(3) -0.04226(13)
N13 N 0.8023(3) 0.5315(4) 0.35961(15)
C1 C 0.7836(4) -0.2852(4) 0.74597(19)
H7 H 0.7254 -0.2838 0.7179
C2 C 0.8384(4) -0.3916(4) 0.78259(18)
H8 H 0.8138 -0.4601 0.7785
C3 C 0.9542(6) -0.3033(4) 0.8260(2)
H9 H 1.0156 -0.3081 0.8531
C4 C 0.9023(6) -0.1926(4) 0.7920(2)
H10 H 0.9273 -0.1250 0.7972
C5 C 0.8152(3) -0.1826(3) 0.75112(15)
C6 C 0.7563(4) -0.0632(3) 0.71705(15)
C7 C 0.6613(3) 0.0816(3) 0.64875(16)
C8 C 0.6062(3) 0.1485(3) 0.59144(15)
C9 C 0.6296(3) 0.2572(3) 0.56974(16)
H11 H 0.6740 0.2915 0.5922
C10 C 0.5857(3) 0.3142(3) 0.51401(16)
H12 H 0.6014 0.3882 0.4998
C11 C 0.4924(3) 0.1706(3) 0.50264(16)
H13 H 0.4425 0.1418 0.4804
C12 C 0.5316(3) 0.1059(3) 0.55891(16)
H14 H 0.5080 0.0361 0.5740
C13 C 0.5213(3) 0.6250(4) 0.20649(16)
H15 H 0.5902 0.6414 0.1830
C14 C 0.5414(4) 0.5310(4) 0.25310(17)
H16 H 0.6252 0.4850 0.2603
C15 C 0.3277(3) 0.5693(3) 0.27651(16)
H17 H 0.2602 0.5515 0.3007
C16 C 0.2995(3) 0.6638(3) 0.23002(16)
H18 H 0.2148 0.7062 0.2224
C17 C 0.3975(3) 0.6955(3) 0.19463(15)
C18 C 0.3808(3) 0.7990(3) 0.14679(15)
C19 C 0.3065(3) 0.9568(3) 0.07998(16)
C20 C 0.2261(3) 1.0583(3) 0.03993(16)
C21 C 0.0935(4) 1.0985(4) 0.04312(19)
H19 H 0.0465 1.0618 0.0726
C22 C 0.0332(4) 1.1942(4) 0.00163(18)
H20 H -0.0556 1.2214 0.0047
C23 C 0.2204(3) 1.2107(3) -0.04476(17)
H21 H 0.2650 1.2485 -0.0750
C24 C 0.2889(3) 1.1172(3) -0.00498(17)
H22 H 0.3778 1.0935 -0.0084
C25 C 1.4261(4) -0.5740(4) -0.00773(18)
H23 H 1.3772 -0.6241 -0.0136
C26 C 1.3750(3) -0.4781(4) 0.02670(16)
C27 C 1.4504(4) -0.4046(4) 0.03336(18)
H24 H 1.4172 -0.3390 0.0557
C28 C 1.2428(3) -0.4535(4) 0.05577(16)
C29 C 0.2413(3) 0.4425(3) 0.42890(15)
C30 C 0.1160(3) 0.4725(3) 0.46557(15)
C31 C 0.0777(3) 0.5745(3) 0.49626(16)
H25 H 0.1297 0.6254 0.4938
C32 C 0.0360(3) 0.3988(3) 0.46983(17)
H26 H 0.0598 0.3301 0.4494
C33 C 0.8818(4) -0.2587(3) 0.19907(15)
C34 C 0.8111(3) -0.1494(3) 0.23127(16)
C35 C 0.8761(4) -0.0797(4) 0.25243(19)
H27 H 0.9648 -0.1018 0.2477
C36 C 0.8128(4) 0.0214(4) 0.2803(2)
H28 H 0.8590 0.0671 0.2939
C37 C 0.6807(3) 0.0563(3) 0.28849(16)
C38 C 0.6110(4) 0.1660(4) 0.32015(16)
C39 C 0.6155(3) -0.0141(4) 0.26843(18)
H29 H 0.5270 0.0062 0.2745
C40 C 0.6799(3) -0.1148(4) 0.23937(18)
H30 H 0.6338 -0.1597 0.2251
C41 C 0.9257(4) 0.5017(6) 0.3264(2)
H31 H 0.9574 0.4151 0.3259
H32 H 0.9847 0.5287 0.3460
H33 H 0.9167 0.5417 0.2854
C42 C 0.7504(6) 0.6483(5) 0.3793(3)
H34 H 0.6977 0.7023 0.3487
H35 H 0.8187 0.6801 0.3860
H36 H 0.6998 0.6417 0.4166
C43 C 0.7373(4) 0.4514(4) 0.36872(18)
H37 H 0.7753 0.3756 0.3554
Cd1A Cd -0.48384(2) 0.63386(2) 0.621928(10)
Cd1A_2 Cd 1.51616(2) -1.36614(2) 0.621928(10)
Cd1A_3 Cd 0.51616(2) 0.63386(2) -0.378072(10)
Cd2A Cd 0.99765(2) -0.58657(2) 0.885437(10)
Cd2A_2 Cd -0.00235(2) 1.41343(2) -0.114563(10)
Cd2A_3 Cd 1.99765(2) -0.58657(2) -0.114563(10)
Cd2A_4 Cd -1.00235(2) 1.41343(2) 0.885437(10)
O1A O 1.8312(2) -0.4929(3) -0.04096(12)
O1A_2 O -0.1688(2) 1.5071(3) -0.04096(12)
O2A O 1.7898(2) -0.6177(3) -0.09521(13)
O2A_2 O -0.2102(2) 1.3823(3) -0.09521(13)
O3A O -0.8199(2) 1.3210(2) 0.81800(11)
O3A_2 O 0.1801(2) 1.3210(2) -0.18200(11)
O4A O -0.9990(2) 1.2799(2) 0.81135(12)
O4A_2 O 0.0010(2) 1.2799(2) -0.18865(12)
O5A O -0.6710(3) 0.7668(3) 0.66774(15)
O6A O -0.4970(3) 0.8150(3) 0.66612(14)
O7A O -0.2673(2) 0.6434(2) 0.60148(12)
O8A O -0.3150(2) 0.4955(2) 0.56903(11)
O9A O 0.1343(2) 1.5034(2) -0.07854(12)
H1A H 0.1443 1.4976 -0.0407
H2A H 0.1769 1.5432 -0.1023
O10A O -0.6305(3) 0.5300(3) 0.60655(12)
N1A N 1.0784(3) -0.5967(3) 0.17765(13)
N1_2 N -0.0784(3) 1.5967(3) -0.17765(13)
N2A N 1.2652(4) -1.0415(3) 0.26105(14)
N3A N 1.3266(4) -1.1338(3) 0.30427(15)
N4A N 1.2898(3) -0.9589(3) 0.33973(12)
N5A N 1.2684(3) -0.8810(3) 0.38474(13)
H3A H 1.3166 -0.8353 0.3756
H4A H 1.1837 -0.8421 0.3810
N6A N 1.4772(3) -1.2709(3) 0.52070(13)
N6A_2 N -0.5228(3) 0.7291(3) 0.52070(13)
N7A N 0.5533(3) 0.4984(3) -0.28896(13)
N7A_2 N -0.4467(3) 0.4984(3) 0.71104(13)
N8A N 0.5225(3) 0.1711(4) -0.11813(18)
N9A N 0.5687(3) 0.0715(4) -0.07581(19)
N10A N 0.7287(2) 0.1231(3) -0.12396(12)
N11A N 0.8534(3) 0.1150(4) -0.1450(2)
H5A H 0.8736 0.1728 -0.1247
H6A H 0.9003 0.0368 -0.1316
N12A N 0.9073(3) -0.2501(3) 0.04226(13)
N13A N -0.8023(3) 0.4685(4) 0.64039(15)
C1A C 1.2164(4) -0.7148(4) 0.25403(19)
H7A H 1.2746 -0.7162 0.2821
C2A C 1.1616(4) -0.6084(4) 0.21741(18)
H8A H 1.1862 -0.5399 0.2215
C3A C 1.0458(6) -0.6967(4) 0.1740(2)
H9A H 0.9844 -0.6919 0.1469
C4A C 1.0977(6) -0.8074(4) 0.2080(2)
H10A H 1.0727 -0.8750 0.2028
C5A C 1.1848(3) -0.8174(3) 0.24888(15)
C6A C 1.2437(4) -0.9368(3) 0.28295(15)
C7A C 1.3387(3) -1.0816(3) 0.35125(16)
C8A C 1.3938(3) -1.1485(3) 0.40856(15)
C9A C 1.3704(3) -1.2572(3) 0.43026(16)
H11A H 1.3260 -1.2915 0.4078
C10A C 1.4143(3) -1.3142(3) 0.48599(16)
H12A H 1.3986 -1.3882 0.5002
C11A C 1.5076(3) -1.1706(3) 0.49736(16)
H13A H 1.5575 -1.1418 0.5196
C12A C 1.4684(3) -1.1059(3) 0.44109(16)
H14A H 1.4920 -1.0361 0.4260
C13A C 0.4787(3) 0.3750(4) -0.20649(16)
H15A H 0.4098 0.3586 -0.1830
C14A C 0.4586(4) 0.4690(4) -0.25310(17)
H16A H 0.3748 0.5150 -0.2603
C15A C 0.6723(3) 0.4307(3) -0.27651(16)
H17A H 0.7398 0.4485 -0.3007
C16A C 0.7005(3) 0.3362(3) -0.23002(16)
H18A H 0.7852 0.2938 -0.2224
C17A C 0.6025(3) 0.3045(3) -0.19463(15)
C18A C 0.6192(3) 0.2010(3) -0.14679(15)
C19A C 0.6935(3) 0.0432(3) -0.07998(16)
C20A C 0.7739(3) -0.0583(3) -0.03993(16)
C21A C 0.9065(4) -0.0985(4) -0.04312(19)
H19A H 0.9535 -0.0618 -0.0726
C22A C 0.9668(4) -0.1942(4) -0.00163(18)
H20A H 1.0556 -0.2214 -0.0047
C23A C 0.7796(3) -0.2107(3) 0.04476(17)
H21A H 0.7350 -0.2485 0.0750
C24A C 0.7111(3) -0.1172(3) 0.00498(17)
H22A H 0.6222 -0.0935 0.0084
C25A C 1.5739(4) -0.4260(4) 0.00773(18)
H23A H 1.6228 -0.3759 0.0136
C26A C 1.6250(3) -0.5219(4) -0.02670(16)
C27A C 1.5496(4) -0.5954(4) -0.03336(18)
H24A H 1.5828 -0.6610 -0.0557
C28A C 1.7572(3) -0.5465(4) -0.05577(16)
C29A C -0.2413(3) 0.5575(3) 0.57110(15)
C30A C -0.1160(3) 0.5275(3) 0.53443(15)
C31A C -0.0777(3) 0.4255(3) 0.50374(16)
H25A H -0.1297 0.3746 0.5062
C32A C -0.0360(3) 0.6012(3) 0.53017(17)
H26A H -0.0598 0.6699 0.5506
C33A C -0.8818(4) 1.2587(3) 0.80093(15)
C34A C -0.8111(3) 1.1494(3) 0.76873(16)
C35A C -0.8761(4) 1.0797(4) 0.74757(19)
H27A H -0.9648 1.1018 0.7523
C36A C -0.8128(4) 0.9786(4) 0.7197(2)
H28A H -0.8590 0.9329 0.7061
C37A C -0.6807(3) 0.9437(3) 0.71151(16)
C38A C -0.6110(4) 0.8340(4) 0.67985(16)
C39A C -0.6155(3) 1.0141(4) 0.73157(18)
H29A H -0.5270 0.9938 0.7255
C40A C -0.6799(3) 1.1148(4) 0.76063(18)
H30A H -0.6338 1.1597 0.7749
C41A C -0.9257(4) 0.4983(6) 0.6736(2)
H31A H -0.9574 0.5849 0.6741
H32A H -0.9847 0.4713 0.6540
H33A H -0.9167 0.4583 0.7146
C42A C -0.7504(6) 0.3517(5) 0.6207(3)
H34A H -0.6977 0.2977 0.6513
H35A H -0.8187 0.3199 0.6140
H36A H -0.6998 0.3583 0.5834
C43A C -0.7373(4) 0.5486(4) 0.63128(18)
H37A H -0.7753 0.6244 0.6446
O11 O 0.9886(4) 1.1628(4) 0.3976(2)
N14 N 0.9128(3) 0.9999(4) 0.42727(18)
C44 C 1.0295(5) 0.9125(5) 0.4109(3)
H38 H 1.0850 0.9538 0.3870
H39 H 1.0115 0.8566 0.3876
H40 H 1.0704 0.8684 0.4471
C45 C 0.8053(5) 0.9559(6) 0.4499(3)
H41 H 0.7316 1.0239 0.4559
H42 H 0.8247 0.9048 0.4878
H43 H 0.7881 0.9097 0.4209
C46 C 0.9048(5) 1.1179(6) 0.4188(2)
H44 H 0.8271 1.1714 0.4304
O12 O 0.7647(6) 0.3106(6) 0.1175(3)
N15 N 0.6097(4) 0.2242(5) 0.1228(2)
C47 C 0.6872(10) 0.1210(7) 0.0962(4)
H45 H 0.7751 0.1200 0.0949
H46 H 0.6620 0.1249 0.0556
H47 H 0.6770 0.0481 0.1201
C48 C 0.4815(6) 0.2282(10) 0.1371(4)
H48 H 0.4448 0.2862 0.1654
H49 H 0.4769 0.1490 0.1551
H50 H 0.4351 0.2522 0.1007
C49 C 0.6565(8) 0.3119(6) 0.1307(3)
H51 H 0.6023 0.3791 0.1475
loop_
_geom_bond_atom_site_label_1
_geom_bond_atom_site_label_2
_geom_bond_site_symmetry_1
_geom_bond_site_symmetry_2
Cd1 O5 1_555 1_555
Cd2 O1 1_555 1_555
O1 C28 1_555 1_555
O2 Cd2 1_555 1_555
O3 Cd2 1_555 1_555
O4 Cd2 1_555 1_555
O5 C38 1_555 1_555
O6 Cd1 1_555 1_555
O7 Cd1 1_555 1_555
O8 Cd1 1_555 1_555
O9 Cd2 1_555 1_555
H1 O9 1_555 1_555
H2 O9 1_555 1_555
O10 Cd1 1_555 1_555
N1 C2 1_555 1_555
N2 N3 1_555 1_555
N3 C7 1_555 1_555
N4 N5 1_555 1_555
N5 H3 1_555 1_555
H4 N5 1_555 1_555
N6 Cd1 1_555 1_555
N7 Cd1 1_555 1_555
N8 N9 1_555 1_555
N9 C19 1_555 1_555
N10 N11 1_555 1_555
N11 H5 1_555 1_555
H6 N11 1_555 1_555
N12 C22 1_555 1_555
N13 C41 1_555 1_555
C1 H7 1_555 1_555
C2 C1 1_555 1_555
H8 C2 1_555 1_555
C3 N1 1_555 1_555
H9 C3 1_555 1_555
C4 C3 1_555 1_555
H10 C4 1_555 1_555
C5 C1 1_555 1_555
C6 N2 1_555 1_555
C7 N4 1_555 1_555
C8 C7 1_555 1_555
C9 C8 1_555 1_555
H11 C9 1_555 1_555
C10 N6 1_555 1_555
H12 C10 1_555 1_555
C11 N6 1_555 1_555
H13 C11 1_555 1_555
C12 C8 1_555 1_555
H14 C12 1_555 1_555
C13 H15 1_555 1_555
C14 N7 1_555 1_555
H16 C14 1_555 1_555
C15 N7 1_555 1_555
H17 C15 1_555 1_555
C16 C15 1_555 1_555
H18 C16 1_555 1_555
C17 C13 1_555 1_555
C18 N8 1_555 1_555
C19 N10 1_555 1_555
C20 C19 1_555 1_555
C21 C20 1_555 1_555
H19 C21 1_555 1_555
C22 C21 1_555 1_555
H20 C22 1_555 1_555
C23 N12 1_555 1_555
H21 C23 1_555 1_555
C24 C20 1_555 1_555
H22 C24 1_555 1_555
C25 H23 1_555 1_555
C26 C25 1_555 1_555
C27 C26 1_555 1_555
H24 C27 1_555 1_555
C28 O2 1_555 1_555
C29 O7 1_555 1_555
C30 C29 1_555 1_555
C31 C30 1_555 1_555
H25 C31 1_555 1_555
C32 C30 1_555 1_555
H26 C32 1_555 1_555
C33 O3 1_555 1_555
C34 C33 1_555 1_555
C35 C34 1_555 1_555
H27 C35 1_555 1_555
C36 C35 1_555 1_555
H28 C36 1_555 1_555
C37 C36 1_555 1_555
C38 O6 1_555 1_555
C39 C37 1_555 1_555
H29 C39 1_555 1_555
C40 C34 1_555 1_555
H30 C40 1_555 1_555
C41 H31 1_555 1_555
H32 C41 1_555 1_555
H33 C41 1_555 1_555
C42 N13 1_555 1_555
H34 C42 1_555 1_555
H35 C42 1_555 1_555
H36 C42 1_555 1_555
C43 O10 1_555 1_555
H37 C43 1_555 1_555
O11 C46 1_555 1_555
N14 C44 1_555 1_555
C44 H38 1_555 1_555
H39 C44 1_555 1_555
H40 C44 1_555 1_555
C45 N14 1_555 1_555
H41 C45 1_555 1_555
H42 C45 1_555 1_555
H43 C45 1_555 1_555
C46 N14 1_555 1_555
H44 C46 1_555 1_555
O12 C49 1_555 1_555
N15 C47 1_555 1_555
C47 H45 1_555 1_555
H46 C47 1_555 1_555
H47 C47 1_555 1_555
C48 N15 1_555 1_555
H48 C48 1_555 1_555
H49 C48 1_555 1_555
H50 C48 1_555 1_555
C49 N15 1_555 1_555
H51 C49 1_555 1_555
Cd1A O5A 1_555 1_555
Cd1A_2 N6A 1_555 1_555
Cd1A_3 N7A 1_555 1_555
Cd2A N1 1_555 1_555
Cd2A_2 N12 1_555 1_555
Cd2A_3 O1A 1_555 1_555
Cd2A_4 O3A 1_555 1_555
O1A C28A 1_555 1_555
O1A_2 Cd2A_2 1_555 1_555
O2A Cd2A_3 1_555 1_555
O2A_2 Cd2A_2 1_555 1_555
O3A C33A 1_555 1_555
O3A_2 Cd2A_2 1_555 1_555
O4A Cd2A_4 1_555 1_555
O4A_2 Cd2A_2 1_555 1_555
O5A C38A 1_555 1_555
O6A Cd1A 1_555 1_555
O7A Cd1A 1_555 1_555
O8A Cd1A 1_555 1_555
O9A Cd2A_2 1_555 1_555
H1A O9A 1_555 1_555
H2A O9A 1_555 1_555
O10A Cd1A 1_555 1_555
N1A Cd2 1_555 1_555
N1_2 Cd2A_2 1_555 1_555
N2A N3A 1_555 1_555
N3A C7A 1_555 1_555
N4A N5A 1_555 1_555
N5A H3A 1_555 1_555
H4A N5A 1_555 1_555
N6A C10A 1_555 1_555
N6A_2 Cd1A 1_555 1_555
N7A C14A 1_555 1_555
N7A_2 Cd1A 1_555 1_555
N8A N9A 1_555 1_555
N9A C19A 1_555 1_555
N10A N11A 1_555 1_555
N11A H5A 1_555 1_555
H6A N11A 1_555 1_555
N12A Cd2 1_555 1_555
N13A C41A 1_555 1_555
C1A H7A 1_555 1_555
C2A N1A 1_555 1_555
H8A C2A 1_555 1_555
C3A N1A 1_555 1_555
H9A C3A 1_555 1_555
C4A C3A 1_555 1_555
H10A C4A 1_555 1_555
C5A C1A 1_555 1_555
C6A N2A 1_555 1_555
C7A N4A 1_555 1_555
C8A C7A 1_555 1_555
C9A C8A 1_555 1_555
H11A C9A 1_555 1_555
C10A C9A 1_555 1_555
H12A C10A 1_555 1_555
C11A N6A 1_555 1_555
H13A C11A 1_555 1_555
C12A C8A 1_555 1_555
H14A C12A 1_555 1_555
C13A H15A 1_555 1_555
C14A C13A 1_555 1_555
H16A C14A 1_555 1_555
C15A N7A 1_555 1_555
H17A C15A 1_555 1_555
C16A C15A 1_555 1_555
H18A C16A 1_555 1_555
C17A C13A 1_555 1_555
C18A N8A 1_555 1_555
C19A N10A 1_555 1_555
C20A C19A 1_555 1_555
C21A C20A 1_555 1_555
H19A C21A 1_555 1_555
C22A N12A 1_555 1_555
H20A C22A 1_555 1_555
C23A N12A 1_555 1_555
H21A C23A 1_555 1_555
C24A C20A 1_555 1_555
H22A C24A 1_555 1_555
C25A C27 1_555 1_555
H23A C25A 1_555 1_555
C26A C25A 1_555 1_555
C27A C25 1_555 1_555
H24A C27A 1_555 1_555
C28A O2A 1_555 1_555
C29A O7A 1_555 1_555
C30A C29A 1_555 1_555
C31A C32 1_555 1_555
H25A C31A 1_555 1_555
C32A C31 1_555 1_555
H26A C32A 1_555 1_555
C33A O4A 1_555 1_555
C34A C33A 1_555 1_555
C35A C34A 1_555 1_555
H27A C35A 1_555 1_555
C36A C35A 1_555 1_555
H28A C36A 1_555 1_555
C37A C36A 1_555 1_555
C38A O6A 1_555 1_555
C39A C37A 1_555 1_555
H29A C39A 1_555 1_555
C40A C34A 1_555 1_555
H30A C40A 1_555 1_555
C41A H31A 1_555 1_555
H32A C41A 1_555 1_555
H33A C41A 1_555 1_555
C42A N13A 1_555 1_555
H34A C42A 1_555 1_555
H35A C42A 1_555 1_555
H36A C42A 1_555 1_555
C43A O10A 1_555 1_555
H37A C43A 1_555 1_555
O4 C33 1_555 1_555
O8 C29 1_555 1_555
N4 C6 1_555 1_555
N10 C18 1_555 1_555
N13 C43 1_555 1_555
C4 C5 1_555 1_555
C5 C6 1_555 1_555
C9 C10 1_555 1_555
C11 C12 1_555 1_555
C13 C14 1_555 1_555
C16 C17 1_555 1_555
C17 C18 1_555 1_555
C23 C24 1_555 1_555
C26 C28 1_555 1_555
C37 C38 1_555 1_555
C39 C40 1_555 1_555
O8A C29A 1_555 1_555
N4A C6A 1_555 1_555
N10A C18A 1_555 1_555
N13A C43A 1_555 1_555
C1A C2A 1_555 1_555
C4A C5A 1_555 1_555
C5A C6A 1_555 1_555
C11A C12A 1_555 1_555
C16A C17A 1_555 1_555
C17A C18A 1_555 1_555
C21A C22A 1_555 1_555
C23A C24A 1_555 1_555
C26A C27A 1_555 1_555
C26A C28A 1_555 1_555
C30A C31A 1_555 1_555
C30A C32A 1_555 1_555
C37A C38A 1_555 1_555
C39A C40A 1_555 1_555

#END
