
#######################################################################
#
#                 Cambridge Crystallographic Data Centre
#                                CCDC 
#
#######################################################################
#
# If this CIF has been generated from an entry in the Cambridge 
# Structural Database, then it will include bibliographic, chemical, 
# crystal, experimental, refinement or atomic coordinate data resulting 
# from the CCDC's data processing and validation procedures.
#
#######################################################################

data_UDIRIK
_symmetry_cell_setting           orthorhombic
_symmetry_space_group_name_H-M   'C m c m'
_symmetry_Int_Tables_number      63
_space_group_name_Hall           '-C 2n 2'
loop_
_symmetry_equiv_pos_site_id
_symmetry_equiv_pos_as_xyz
1 x,y,z
2 -x,-y,1/2+z
3 -x,y,1/2-z
4 x,-y,-z
5 1/2+x,1/2+y,z
6 1/2-x,1/2-y,1/2+z
7 1/2-x,1/2+y,1/2-z
8 1/2+x,1/2-y,-z
9 -x,-y,-z
10 x,y,1/2-z
11 x,-y,1/2+z
12 -x,y,z
13 1/2-x,1/2-y,-z
14 1/2+x,1/2+y,1/2-z
15 1/2+x,1/2-y,1/2+z
16 1/2-x,1/2+y,z
_cell_length_a                   44.598(4)
_cell_length_b                   27.606(3)
_cell_length_c                   27.251(3)
_cell_angle_alpha                90
_cell_angle_beta                 90
_cell_angle_gamma                90
_cell_volume                     33550.7
loop_
_atom_site_label
_atom_site_type_symbol
_atom_site_fract_x
_atom_site_fract_y
_atom_site_fract_z
Er1 Er 0.5000 0.12112(3) 0.31812(2)
Er2 Er 0.541178(13) 0.22116(3) 0.2500
Er3 Er 0.5000 0.0000 0.5000
Ru1 Ru 0.669161(15) 0.13723(3) 0.50250(3)
O25 O 0.56825(16) 0.1954(3) 0.3153(3)
O26 O 0.53970(16) 0.1500(3) 0.3634(3)
O27 O 0.5369(2) 0.0124(4) 0.5522(4)
O28 O 0.5665(2) -0.0224(4) 0.6085(4)
O29 O 0.53040(15) 0.1368(3) 0.2500
O30 O 0.5000 0.2054(3) 0.3001(3)
O31 O 0.5000 0.0780(6) 0.4795(5)
O32 O 0.5000 0.0795(6) 0.3963(5)
N1 N 0.68995(16) 0.0888(3) 0.4572(3)
N2 N 0.70474(15) 0.1165(3) 0.5448(3)
N3 N 0.69394(15) 0.1970(3) 0.4847(2)
N4 N 0.65250(16) 0.1887(3) 0.5504(2)
N5 N 0.63528(15) 0.1535(3) 0.4545(2)
N6 N 0.63772(16) 0.0869(3) 0.5219(3)
C1 C 0.6793(2) 0.0722(4) 0.4147(3)
H1 H 0.6606 0.0838 0.4029
C2 C 0.6951(3) 0.0384(4) 0.3871(4)
H2 H 0.6868 0.0265 0.3573
C3 C 0.7227(3) 0.0219(4) 0.4031(5)
H3 H 0.7336 -0.0013 0.3845
C4 C 0.7341(2) 0.0398(4) 0.4466(4)
H4 H 0.7531 0.0294 0.4582
C5 C 0.7177(2) 0.0726(3) 0.4726(4)
C6 C 0.7259(2) 0.0907(4) 0.5211(4)
C7 C 0.7540(2) 0.0809(4) 0.5426(5)
H5 H 0.7690 0.0638 0.5250
C8 C 0.7593(3) 0.0971(4) 0.5913(4)
H6 H 0.7778 0.0903 0.6073
C9 C 0.7377(3) 0.1221(4) 0.6142(4)
H7 H 0.7409 0.1337 0.6466
C10 C 0.7106(2) 0.1313(4) 0.5906(3)
H8 H 0.6956 0.1488 0.6078
C11 C 0.71697(19) 0.1998(4) 0.4522(3)
H9 H 0.7234 0.1705 0.4372
C12 C 0.7313(2) 0.2409(4) 0.4397(4)
H10 H 0.7468 0.2412 0.4159
C13 C 0.7224(3) 0.2823(5) 0.4632(4)
H11 H 0.7323 0.3119 0.4563
C14 C 0.6996(2) 0.2817(4) 0.4961(4)
H12 H 0.6935 0.3110 0.5114
C15 C 0.68530(19) 0.2387(4) 0.5074(3)
C16 C 0.66135(19) 0.2339(4) 0.5437(3)
C17 C 0.6500(2) 0.2725(4) 0.5691(4)
H13 H 0.6566 0.3043 0.5615
C18 C 0.6290(3) 0.2656(5) 0.6057(5)
H14 H 0.6212 0.2921 0.6241
C19 C 0.6200(2) 0.2199(6) 0.6142(4)
H15 H 0.6059 0.2139 0.6395
C20 C 0.6313(2) 0.1799(4) 0.5858(4)
H16 H 0.6243 0.1480 0.5916
C21 C 0.6371(2) 0.1842(4) 0.4165(3)
H17 H 0.6552 0.2016 0.4114
C22 C 0.6135(2) 0.1913(4) 0.3845(3)
H18 H 0.6152 0.2152 0.3596
C23 C 0.5881(2) 0.1647(4) 0.3883(3)
C24 C 0.58633(18) 0.1351(4) 0.4282(4)
H19 H 0.5680 0.1186 0.4343
C25 C 0.60965(19) 0.1280(4) 0.4598(3)
C26 C 0.61017(19) 0.0931(3) 0.4996(3)
C27 C 0.5857(2) 0.0685(4) 0.5159(4)
H20 H 0.5666 0.0741 0.5018
C28 C 0.5892(2) 0.0336(4) 0.5551(4)
C29 C 0.6174(2) 0.0269(4) 0.5755(3)
H21 H 0.6202 0.0042 0.6013
C30 C 0.6414(2) 0.0539(4) 0.5577(3)
H22 H 0.6608 0.0488 0.5711
C31 C 0.5640(2) 0.1724(5) 0.3518(4)
C32 C 0.5618(3) 0.0062(5) 0.5734(6)
C33 C 0.5000 0.1073(11) 0.4452(10)
H23 H 0.5000 0.1416 0.4485
O33 O 0.5330(3) 0.2876(5) 0.3037(5)
O34 O 0.5356(2) 0.0582(4) 0.3149(3)
O35 O 0.5873(2) 0.2642(5) 0.2500
Er1B Er 0.5000 0.12112(3) 0.18188(2)
Er2B Er 0.458822(13) 0.22116(3) 0.2500
Ru1B Ru 0.330839(15) 0.13723(3) -0.00250(3)
O25B O 0.43175(16) 0.1954(3) 0.1847(3)
O26B O 0.46030(16) 0.1500(3) 0.1366(3)
O27B O 0.4631(2) 0.0124(4) -0.0522(4)
O28B O 0.4335(2) -0.0224(4) -0.1085(4)
O29B O 0.46960(15) 0.1368(3) 0.2500
O30B O 0.5000 0.2054(3) 0.1999(3)
O31B O 0.5000 0.0780(6) 0.0205(5)
O32B O 0.5000 0.0795(6) 0.1037(5)
N1B N 0.31005(16) 0.0888(3) 0.0428(3)
N2B N 0.29526(15) 0.1165(3) -0.0448(3)
N3B N 0.30606(15) 0.1970(3) 0.0153(2)
N4B N 0.34750(16) 0.1887(3) -0.0504(2)
N5B N 0.36472(15) 0.1535(3) 0.0455(2)
N6B N 0.36228(16) 0.0869(3) -0.0219(3)
C1B C 0.3207(2) 0.0722(4) 0.0853(3)
H1B H 0.3394 0.0838 0.0971
C2B C 0.3049(3) 0.0384(4) 0.1129(4)
H2B H 0.3132 0.0265 0.1427
C3B C 0.2773(3) 0.0219(4) 0.0969(5)
H3B H 0.2664 -0.0013 0.1155
C4B C 0.2659(2) 0.0398(4) 0.0534(4)
H4B H 0.2469 0.0294 0.0418
C5B C 0.2823(2) 0.0726(3) 0.0274(4)
C6B C 0.2741(2) 0.0907(4) -0.0211(4)
C7B C 0.2460(2) 0.0809(4) -0.0426(5)
H5B H 0.2310 0.0638 -0.0250
C8B C 0.2407(3) 0.0971(4) -0.0913(4)
H6B H 0.2222 0.0903 -0.1073
C9B C 0.2623(3) 0.1221(4) -0.1142(4)
H7B H 0.2591 0.1337 -0.1466
C10B C 0.2894(2) 0.1313(4) -0.0906(3)
H8B H 0.3044 0.1488 -0.1078
C11B C 0.28303(19) 0.1998(4) 0.0478(3)
H9B H 0.2766 0.1705 0.0628
C12B C 0.2687(2) 0.2409(4) 0.0603(4)
H10B H 0.2532 0.2412 0.0841
C13B C 0.2776(3) 0.2823(5) 0.0368(4)
H11B H 0.2677 0.3119 0.0437
C14B C 0.3004(2) 0.2817(4) 0.0039(4)
H12B H 0.3065 0.3110 -0.0114
C15B C 0.31470(19) 0.2387(4) -0.0074(3)
C16B C 0.33865(19) 0.2339(4) -0.0437(3)
C17B C 0.3500(2) 0.2725(4) -0.0691(4)
H13B H 0.3434 0.3043 -0.0615
C18B C 0.3710(3) 0.2656(5) -0.1057(5)
H14B H 0.3788 0.2921 -0.1241
C19B C 0.3800(2) 0.2199(6) -0.1142(4)
H15B H 0.3941 0.2139 -0.1395
C20B C 0.3687(2) 0.1799(4) -0.0858(4)
H16B H 0.3757 0.1480 -0.0916
C21B C 0.3629(2) 0.1842(4) 0.0835(3)
H17B H 0.3448 0.2016 0.0886
C22B C 0.3865(2) 0.1913(4) 0.1155(3)
H18B H 0.3848 0.2152 0.1404
C23B C 0.4119(2) 0.1647(4) 0.1117(3)
C24B C 0.41367(18) 0.1351(4) 0.0718(4)
H19B H 0.4320 0.1186 0.0657
C25B C 0.39035(19) 0.1280(4) 0.0402(3)
C26B C 0.38983(19) 0.0931(3) 0.0004(3)
C27B C 0.4143(2) 0.0685(4) -0.0159(4)
H20B H 0.4334 0.0741 -0.0018
C28B C 0.4108(2) 0.0336(4) -0.0551(4)
C29B C 0.3826(2) 0.0269(4) -0.0755(3)
H21B H 0.3798 0.0042 -0.1013
C30B C 0.3586(2) 0.0539(4) -0.0577(3)
H22B H 0.3392 0.0488 -0.0711
C31B C 0.4360(2) 0.1724(5) 0.1482(4)
C32B C 0.4382(3) 0.0062(5) -0.0734(6)
C33B C 0.5000 0.1073(11) 0.0548(10)
H23B H 0.5000 0.1416 0.0515
O33B O 0.4670(3) 0.2876(5) 0.1963(5)
O34B O 0.4644(2) 0.0582(4) 0.1851(3)
O35B O 0.4127(2) 0.2642(5) 0.2500
Ru1I Ru 0.669161(15) 0.13723(3) -0.00250(3)
O25I O 0.56825(16) 0.1954(3) 0.1847(3)
O26I O 0.53970(16) 0.1500(3) 0.1366(3)
O27I O 0.5369(2) 0.0124(4) -0.0522(4)
O28I O 0.5665(2) -0.0224(4) -0.1085(4)
N1I N 0.68995(16) 0.0888(3) 0.0428(3)
N2I N 0.70474(15) 0.1165(3) -0.0448(3)
N3I N 0.69394(15) 0.1970(3) 0.0153(2)
N4I N 0.65250(16) 0.1887(3) -0.0504(2)
N5I N 0.63528(15) 0.1535(3) 0.0455(2)
N6I N 0.63772(16) 0.0869(3) -0.0219(3)
C1I C 0.6793(2) 0.0722(4) 0.0853(3)
H1I H 0.6606 0.0838 0.0971
C2I C 0.6951(3) 0.0384(4) 0.1129(4)
H2I H 0.6868 0.0265 0.1427
C3I C 0.7227(3) 0.0219(4) 0.0969(5)
H3I H 0.7336 -0.0013 0.1155
C4I C 0.7341(2) 0.0398(4) 0.0534(4)
H4I H 0.7531 0.0294 0.0418
C5I C 0.7177(2) 0.0726(3) 0.0274(4)
C6I C 0.7259(2) 0.0907(4) -0.0211(4)
C7I C 0.7540(2) 0.0809(4) -0.0426(5)
H5I H 0.7690 0.0638 -0.0250
C8I C 0.7593(3) 0.0971(4) -0.0913(4)
H6I H 0.7778 0.0903 -0.1073
C9I C 0.7377(3) 0.1221(4) -0.1142(4)
H7I H 0.7409 0.1337 -0.1466
C10I C 0.7106(2) 0.1313(4) -0.0906(3)
H8I H 0.6956 0.1488 -0.1078
C11I C 0.71697(19) 0.1998(4) 0.0478(3)
H9I H 0.7234 0.1705 0.0628
C12I C 0.7313(2) 0.2409(4) 0.0603(4)
H10I H 0.7468 0.2412 0.0841
C13I C 0.7224(3) 0.2823(5) 0.0368(4)
H11I H 0.7323 0.3119 0.0437
C14I C 0.6996(2) 0.2817(4) 0.0039(4)
H12I H 0.6935 0.3110 -0.0114
C15I C 0.68530(19) 0.2387(4) -0.0074(3)
C16I C 0.66135(19) 0.2339(4) -0.0437(3)
C17I C 0.6500(2) 0.2725(4) -0.0691(4)
H13I H 0.6566 0.3043 -0.0615
C18I C 0.6290(3) 0.2656(5) -0.1057(5)
H14I H 0.6212 0.2921 -0.1241
C19I C 0.6200(2) 0.2199(6) -0.1142(4)
H15I H 0.6059 0.2139 -0.1395
C20I C 0.6313(2) 0.1799(4) -0.0858(4)
H16I H 0.6243 0.1480 -0.0916
C21I C 0.6371(2) 0.1842(4) 0.0835(3)
H17I H 0.6552 0.2016 0.0886
C22I C 0.6135(2) 0.1913(4) 0.1155(3)
H18I H 0.6152 0.2152 0.1404
C23I C 0.5881(2) 0.1647(4) 0.1117(3)
C24I C 0.58633(18) 0.1351(4) 0.0718(4)
H19I H 0.5680 0.1186 0.0657
C25I C 0.60965(19) 0.1280(4) 0.0402(3)
C26I C 0.61017(19) 0.0931(3) 0.0004(3)
C27I C 0.5857(2) 0.0685(4) -0.0159(4)
H20I H 0.5666 0.0741 -0.0018
C28I C 0.5892(2) 0.0336(4) -0.0551(4)
C29I C 0.6174(2) 0.0269(4) -0.0755(3)
H21I H 0.6202 0.0042 -0.1013
C30I C 0.6414(2) 0.0539(4) -0.0577(3)
H22I H 0.6608 0.0488 -0.0711
C31I C 0.5640(2) 0.1724(5) 0.1482(4)
C32I C 0.5618(3) 0.0062(5) -0.0734(6)
O33I O 0.5330(3) 0.2876(5) 0.1963(5)
O34I O 0.5356(2) 0.0582(4) 0.1851(3)
Ru1K Ru 0.330839(15) 0.13723(3) 0.50250(3)
O25K O 0.43175(16) 0.1954(3) 0.3153(3)
O26K O 0.46030(16) 0.1500(3) 0.3634(3)
O27K O 0.4631(2) 0.0124(4) 0.5522(4)
O28K O 0.4335(2) -0.0224(4) 0.6085(4)
N1K N 0.31005(16) 0.0888(3) 0.4572(3)
N2K N 0.29526(15) 0.1165(3) 0.5448(3)
N3K N 0.30606(15) 0.1970(3) 0.4847(2)
N4K N 0.34750(16) 0.1887(3) 0.5504(2)
N5K N 0.36472(15) 0.1535(3) 0.4545(2)
N6K N 0.36228(16) 0.0869(3) 0.5219(3)
C1K C 0.3207(2) 0.0722(4) 0.4147(3)
H1K H 0.3394 0.0838 0.4029
C2K C 0.3049(3) 0.0384(4) 0.3871(4)
H2K H 0.3132 0.0265 0.3573
C3K C 0.2773(3) 0.0219(4) 0.4031(5)
H3K H 0.2664 -0.0013 0.3845
C4K C 0.2659(2) 0.0398(4) 0.4466(4)
H4K H 0.2469 0.0294 0.4582
C5K C 0.2823(2) 0.0726(3) 0.4726(4)
C6K C 0.2741(2) 0.0907(4) 0.5211(4)
C7K C 0.2460(2) 0.0809(4) 0.5426(5)
H5K H 0.2310 0.0638 0.5250
C8K C 0.2407(3) 0.0971(4) 0.5913(4)
H6K H 0.2222 0.0903 0.6073
C9K C 0.2623(3) 0.1221(4) 0.6142(4)
H7K H 0.2591 0.1337 0.6466
C10K C 0.2894(2) 0.1313(4) 0.5906(3)
H8K H 0.3044 0.1488 0.6078
C11K C 0.28303(19) 0.1998(4) 0.4522(3)
H9K H 0.2766 0.1705 0.4372
C12K C 0.2687(2) 0.2409(4) 0.4397(4)
H10K H 0.2532 0.2412 0.4159
C13K C 0.2776(3) 0.2823(5) 0.4632(4)
H11K H 0.2677 0.3119 0.4563
C14K C 0.3004(2) 0.2817(4) 0.4961(4)
H12K H 0.3065 0.3110 0.5114
C15K C 0.31470(19) 0.2387(4) 0.5074(3)
C16K C 0.33865(19) 0.2339(4) 0.5437(3)
C17K C 0.3500(2) 0.2725(4) 0.5691(4)
H13K H 0.3434 0.3043 0.5615
C18K C 0.3710(3) 0.2656(5) 0.6057(5)
H14K H 0.3788 0.2921 0.6241
C19K C 0.3800(2) 0.2199(6) 0.6142(4)
H15K H 0.3941 0.2139 0.6395
C20K C 0.3687(2) 0.1799(4) 0.5858(4)
H16K H 0.3757 0.1480 0.5916
C21K C 0.3629(2) 0.1842(4) 0.4165(3)
H17K H 0.3448 0.2016 0.4114
C22K C 0.3865(2) 0.1913(4) 0.3845(3)
H18K H 0.3848 0.2152 0.3596
C23K C 0.4119(2) 0.1647(4) 0.3883(3)
C24K C 0.41367(18) 0.1351(4) 0.4282(4)
H19K H 0.4320 0.1186 0.4343
C25K C 0.39035(19) 0.1280(4) 0.4598(3)
C26K C 0.38983(19) 0.0931(3) 0.4996(3)
C27K C 0.4143(2) 0.0685(4) 0.5159(4)
H20K H 0.4334 0.0741 0.5018
C28K C 0.4108(2) 0.0336(4) 0.5551(4)
C29K C 0.3826(2) 0.0269(4) 0.5755(3)
H21K H 0.3798 0.0042 0.6013
C30K C 0.3586(2) 0.0539(4) 0.5577(3)
H22K H 0.3392 0.0488 0.5711
C31K C 0.4360(2) 0.1724(5) 0.3518(4)
C32K C 0.4382(3) 0.0062(5) 0.5734(6)
O33K O 0.4670(3) 0.2876(5) 0.3037(5)
O34K O 0.4644(2) 0.0582(4) 0.3149(3)
Er3A Er 0.5000 0.0000 0.0000
O27C O 0.5369(2) -0.0124(4) 0.4478(4)
O27H O 0.4631(2) -0.0124(4) 0.4478(4)
O31C O 0.5000 -0.0780(6) 0.5205(5)
W1 W 0.210113(10) 0.226497(16) 0.317565(14)
W2 W 0.267683(9) 0.148136(17) 0.317621(14)
W3 W 0.204603(10) 0.121534(17) 0.379239(14)
W4 W 0.197608(10) 0.006637(16) 0.311499(15)
W5 W 0.140722(13) 0.19842(2) 0.2500
W6 W 0.260780(13) 0.03299(2) 0.2500
W7 W 0.134937(10) 0.093779(18) 0.311658(16)
Si1 Si 0.20273(6) 0.11886(11) 0.2500
O1 O 0.1176(2) 0.2459(4) 0.2500
O2 O 0.10783(15) 0.0757(3) 0.3515(3)
O3 O 0.2939(2) 0.0036(3) 0.2500
O4 O 0.19041(15) -0.0407(2) 0.3506(2)
O5 O 0.30273(14) 0.1563(3) 0.3401(2)
O6 O 0.15995(14) 0.0382(2) 0.3083(2)
O7 O 0.12230(14) 0.1587(2) 0.2993(2)
O8 O 0.21648(12) 0.1439(2) 0.2980(2)
O9 O 0.16471(14) 0.1191(2) 0.3554(2)
O10 O 0.16994(13) 0.2172(2) 0.2982(2)
O11 O 0.11790(18) 0.0761(4) 0.2500
O12 O 0.21913(17) 0.2364(3) 0.2500
O13 O 0.20945(15) 0.2836(2) 0.3400(2)
O14 O 0.24737(13) 0.1290(2) 0.3769(2)
O15 O 0.27324(18) 0.1619(3) 0.2500
O16 O 0.26814(14) 0.0824(2) 0.2978(2)
O17 O 0.20030(15) 0.1143(2) 0.4404(2)
O18 O 0.20263(14) 0.1908(2) 0.3760(2)
O19 O 0.25158(14) 0.2116(2) 0.3269(2)
O20 O 0.18941(19) -0.0252(3) 0.2500
O21 O 0.16685(18) 0.1242(3) 0.2500
O22 O 0.23954(15) -0.0041(2) 0.2987(2)
O23 O 0.20875(13) 0.0574(2) 0.3561(2)
O24 O 0.21137(18) 0.0627(3) 0.2500
O8I O 0.21648(12) 0.1439(2) 0.2020(2)
W1I W 0.210113(10) 0.226497(16) 0.182435(14)
W2I W 0.267683(9) 0.148136(17) 0.182379(14)
W3I W 0.204603(10) 0.121534(17) 0.120761(14)
W4I W 0.197608(10) 0.006637(16) 0.188501(15)
W7I W 0.134937(10) 0.093779(18) 0.188342(16)
O2I O 0.10783(15) 0.0757(3) 0.1485(3)
O4I O 0.19041(15) -0.0407(2) 0.1494(2)
O5I O 0.30273(14) 0.1563(3) 0.1599(2)
O6I O 0.15995(14) 0.0382(2) 0.1917(2)
O7I O 0.12230(14) 0.1587(2) 0.2007(2)
O9I O 0.16471(14) 0.1191(2) 0.1446(2)
O10I O 0.16994(13) 0.2172(2) 0.2018(2)
O13I O 0.20945(15) 0.2836(2) 0.1600(2)
O14I O 0.24737(13) 0.1290(2) 0.1231(2)
O16I O 0.26814(14) 0.0824(2) 0.2022(2)
O17I O 0.20030(15) 0.1143(2) 0.0596(2)
O18I O 0.20263(14) 0.1908(2) 0.1240(2)
O19I O 0.25158(14) 0.2116(2) 0.1731(2)
O22I O 0.23954(15) -0.0041(2) 0.2013(2)
O23I O 0.20875(13) 0.0574(2) 0.1439(2)
loop_
_geom_bond_atom_site_label_1
_geom_bond_atom_site_label_2
_geom_bond_site_symmetry_1
_geom_bond_site_symmetry_2
W1 O8 1_555 1_555
W2 O5 1_555 1_555
W3 O8 1_555 1_555
W4 O4 1_555 1_555
W5 O1 1_555 1_555
W6 O3 1_555 1_555
W7 O2 1_555 1_555
Si1 O8 1_555 1_555
O6 W4 1_555 1_555
O7 W5 1_555 1_555
O8 W2 1_555 1_555
O9 W3 1_555 1_555
O10 W1 1_555 1_555
O11 W7 1_555 1_555
O12 W1 1_555 1_555
O13 W1 1_555 1_555
O14 W2 1_555 1_555
O15 W2 1_555 1_555
O16 W2 1_555 1_555
O17 W3 1_555 1_555
O18 W1 1_555 1_555
O19 W1 1_555 1_555
O20 W4 1_555 1_555
O21 W5 1_555 1_555
O22 W4 1_555 1_555
O23 W3 1_555 1_555
O24 W4 1_555 1_555
Er1 O26 1_555 1_555
Er2 O25 1_555 1_555
Er3 O27 1_555 1_555
Ru1 N1 1_555 1_555
O25 C31 1_555 1_555
O26 C31 1_555 1_555
O27 C32 1_555 1_555
O28 C32 1_555 1_555
O29 Er1 1_555 1_555
O30 Er1 1_555 1_555
O31 Er3 1_555 1_555
O32 Er1 1_555 1_555
N1 C1 1_555 1_555
N2 Ru1 1_555 1_555
N3 Ru1 1_555 1_555
N4 Ru1 1_555 1_555
N5 Ru1 1_555 1_555
N6 Ru1 1_555 1_555
C1 H1 1_555 1_555
C2 C1 1_555 1_555
H2 C2 1_555 1_555
C3 C2 1_555 1_555
H3 C3 1_555 1_555
C4 C3 1_555 1_555
H4 C4 1_555 1_555
C5 N1 1_555 1_555
C6 N2 1_555 1_555
C7 C6 1_555 1_555
H5 C7 1_555 1_555
C8 C7 1_555 1_555
H6 C8 1_555 1_555
C9 C8 1_555 1_555
H7 C9 1_555 1_555
C10 N2 1_555 1_555
H8 C10 1_555 1_555
C11 N3 1_555 1_555
H9 C11 1_555 1_555
C12 C11 1_555 1_555
H10 C12 1_555 1_555
C13 C12 1_555 1_555
H11 C13 1_555 1_555
C14 C13 1_555 1_555
H12 C14 1_555 1_555
C15 N3 1_555 1_555
C16 N4 1_555 1_555
C17 C16 1_555 1_555
H13 C17 1_555 1_555
C18 C17 1_555 1_555
H14 C18 1_555 1_555
C19 C18 1_555 1_555
H15 C19 1_555 1_555
C20 N4 1_555 1_555
H16 C20 1_555 1_555
C21 N5 1_555 1_555
H17 C21 1_555 1_555
C22 C21 1_555 1_555
H18 C22 1_555 1_555
C23 C22 1_555 1_555
C24 C23 1_555 1_555
H19 C24 1_555 1_555
C25 N5 1_555 1_555
C26 N6 1_555 1_555
C27 C26 1_555 1_555
H20 C27 1_555 1_555
C28 C27 1_555 1_555
C29 C28 1_555 1_555
H21 C29 1_555 1_555
C30 N6 1_555 1_555
H22 C30 1_555 1_555
C31 C23 1_555 1_555
C32 C28 1_555 1_555
C33 O31 1_555 1_555
H23 C33 1_555 1_555
O33 Er2 1_555 1_555
O34 Er1 1_555 1_555
O35 Er2 1_555 1_555
O8I Si1 1_555 1_555
W1I O12 1_555 1_555
W2I O15 1_555 1_555
W3I O8I 1_555 1_555
W4I O20 1_555 1_555
W7I O11 1_555 1_555
O2I W7I 1_555 1_555
O4I W4I 1_555 1_555
O5I W2I 1_555 1_555
O6I W4I 1_555 1_555
O7I W5 1_555 1_555
O9I W3I 1_555 1_555
O10I W5 1_555 1_555
O13I W1I 1_555 1_555
O14I W2I 1_555 1_555
O16I W6 1_555 1_555
O17I W3I 1_555 1_555
O18I W1I 1_555 1_555
O19I W1I 1_555 1_555
O22I W6 1_555 1_555
O23I W3I 1_555 1_555
Er1B O29 1_555 1_555
Er2B O30 1_555 1_555
Ru1B N1B 1_555 1_555
O25B Er2B 1_555 1_555
O26B Er1B 1_555 1_555
O27B C32B 1_555 1_555
O28B C32B 1_555 1_555
O29B Er1 1_555 1_555
O30B Er2 1_555 1_555
O31B C33B 1_555 1_555
O32B Er1B 1_555 1_555
N1B C1B 1_555 1_555
N2B Ru1B 1_555 1_555
N3B Ru1B 1_555 1_555
N4B Ru1B 1_555 1_555
N5B Ru1B 1_555 1_555
N6B Ru1B 1_555 1_555
C1B H1B 1_555 1_555
C2B C1B 1_555 1_555
H2B C2B 1_555 1_555
C3B C2B 1_555 1_555
H3B C3B 1_555 1_555
C4B C3B 1_555 1_555
H4B C4B 1_555 1_555
C5B N1B 1_555 1_555
C6B N2B 1_555 1_555
C7B C6B 1_555 1_555
H5B C7B 1_555 1_555
C8B C7B 1_555 1_555
H6B C8B 1_555 1_555
C9B C8B 1_555 1_555
H7B C9B 1_555 1_555
C10B N2B 1_555 1_555
H8B C10B 1_555 1_555
C11B N3B 1_555 1_555
H9B C11B 1_555 1_555
C12B C11B 1_555 1_555
H10B C12B 1_555 1_555
C13B C12B 1_555 1_555
H11B C13B 1_555 1_555
C14B C13B 1_555 1_555
H12B C14B 1_555 1_555
C15B N3B 1_555 1_555
C16B N4B 1_555 1_555
C17B C16B 1_555 1_555
H13B C17B 1_555 1_555
C18B C17B 1_555 1_555
H14B C18B 1_555 1_555
C19B C18B 1_555 1_555
H15B C19B 1_555 1_555
C20B N4B 1_555 1_555
H16B C20B 1_555 1_555
C21B N5B 1_555 1_555
H17B C21B 1_555 1_555
C22B C21B 1_555 1_555
H18B C22B 1_555 1_555
C23B C22B 1_555 1_555
C24B C23B 1_555 1_555
H19B C24B 1_555 1_555
C25B N5B 1_555 1_555
C26B N6B 1_555 1_555
C27B C26B 1_555 1_555
H20B C27B 1_555 1_555
C28B C27B 1_555 1_555
C29B C28B 1_555 1_555
H21B C29B 1_555 1_555
C30B N6B 1_555 1_555
H22B C30B 1_555 1_555
C31B O25B 1_555 1_555
C32B C28B 1_555 1_555
C33B O32B 1_555 1_555
H23B C33B 1_555 1_555
O33B Er2B 1_555 1_555
O34B Er1B 1_555 1_555
O35B Er2B 1_555 1_555
Ru1I N1I 1_555 1_555
O25I Er2 1_555 1_555
O26I Er1B 1_555 1_555
O27I C32I 1_555 1_555
O28I C32I 1_555 1_555
N1I C1I 1_555 1_555
N2I Ru1I 1_555 1_555
N3I Ru1I 1_555 1_555
N4I Ru1I 1_555 1_555
N5I Ru1I 1_555 1_555
N6I Ru1I 1_555 1_555
C1I H1I 1_555 1_555
C2I C1I 1_555 1_555
H2I C2I 1_555 1_555
C3I C2I 1_555 1_555
H3I C3I 1_555 1_555
C4I C3I 1_555 1_555
H4I C4I 1_555 1_555
C5I N1I 1_555 1_555
C6I N2I 1_555 1_555
C7I C6I 1_555 1_555
H5I C7I 1_555 1_555
C8I C7I 1_555 1_555
H6I C8I 1_555 1_555
C9I C8I 1_555 1_555
H7I C9I 1_555 1_555
C10I N2I 1_555 1_555
H8I C10I 1_555 1_555
C11I N3I 1_555 1_555
H9I C11I 1_555 1_555
C12I C11I 1_555 1_555
H10I C12I 1_555 1_555
C13I C12I 1_555 1_555
H11I C13I 1_555 1_555
C14I C13I 1_555 1_555
H12I C14I 1_555 1_555
C15I N3I 1_555 1_555
C16I N4I 1_555 1_555
C17I C16I 1_555 1_555
H13I C17I 1_555 1_555
C18I C17I 1_555 1_555
H14I C18I 1_555 1_555
C19I C18I 1_555 1_555
H15I C19I 1_555 1_555
C20I N4I 1_555 1_555
H16I C20I 1_555 1_555
C21I N5I 1_555 1_555
H17I C21I 1_555 1_555
C22I C21I 1_555 1_555
H18I C22I 1_555 1_555
C23I C22I 1_555 1_555
C24I C23I 1_555 1_555
H19I C24I 1_555 1_555
C25I N5I 1_555 1_555
C26I N6I 1_555 1_555
C27I C26I 1_555 1_555
H20I C27I 1_555 1_555
C28I C27I 1_555 1_555
C29I C28I 1_555 1_555
H21I C29I 1_555 1_555
C30I N6I 1_555 1_555
H22I C30I 1_555 1_555
C31I O25I 1_555 1_555
C32I C28I 1_555 1_555
O33I Er2 1_555 1_555
O34I Er1B 1_555 1_555
Ru1K N1K 1_555 1_555
O25K Er2B 1_555 1_555
O26K Er1 1_555 1_555
O27K Er3 1_555 1_555
O28K C32K 1_555 1_555
N1K C1K 1_555 1_555
N2K Ru1K 1_555 1_555
N3K Ru1K 1_555 1_555
N4K Ru1K 1_555 1_555
N5K Ru1K 1_555 1_555
N6K Ru1K 1_555 1_555
C1K H1K 1_555 1_555
C2K C1K 1_555 1_555
H2K C2K 1_555 1_555
C3K C2K 1_555 1_555
H3K C3K 1_555 1_555
C4K C3K 1_555 1_555
H4K C4K 1_555 1_555
C5K N1K 1_555 1_555
C6K N2K 1_555 1_555
C7K C6K 1_555 1_555
H5K C7K 1_555 1_555
C8K C7K 1_555 1_555
H6K C8K 1_555 1_555
C9K C8K 1_555 1_555
H7K C9K 1_555 1_555
C10K N2K 1_555 1_555
H8K C10K 1_555 1_555
C11K N3K 1_555 1_555
H9K C11K 1_555 1_555
C12K C11K 1_555 1_555
H10K C12K 1_555 1_555
C13K C12K 1_555 1_555
H11K C13K 1_555 1_555
C14K C13K 1_555 1_555
H12K C14K 1_555 1_555
C15K N3K 1_555 1_555
C16K N4K 1_555 1_555
C17K C16K 1_555 1_555
H13K C17K 1_555 1_555
C18K C17K 1_555 1_555
H14K C18K 1_555 1_555
C19K C18K 1_555 1_555
H15K C19K 1_555 1_555
C20K N4K 1_555 1_555
H16K C20K 1_555 1_555
C21K N5K 1_555 1_555
H17K C21K 1_555 1_555
C22K C21K 1_555 1_555
H18K C22K 1_555 1_555
C23K C22K 1_555 1_555
C24K C23K 1_555 1_555
H19K C24K 1_555 1_555
C25K N5K 1_555 1_555
C26K N6K 1_555 1_555
C27K C26K 1_555 1_555
H20K C27K 1_555 1_555
C28K C27K 1_555 1_555
C29K C28K 1_555 1_555
H21K C29K 1_555 1_555
C30K N6K 1_555 1_555
H22K C30K 1_555 1_555
C31K O25K 1_555 1_555
C32K O27K 1_555 1_555
O33K Er2B 1_555 1_555
O34K Er1 1_555 1_555
Er3A O27B 1_555 1_555
O27C Er3 1_555 1_555
O27H Er3 1_555 1_555
O31C Er3 1_555 1_555
W2 O19 1_555 1_555
W3 O14 1_555 1_555
W3 O18 1_555 1_555
W4 O23 1_555 1_555
W5 O10 1_555 1_555
W6 O16 1_555 1_555
W6 O22 1_555 1_555
W6 O24 1_555 1_555
W7 O6 1_555 1_555
W7 O7 1_555 1_555
W7 O9 1_555 1_555
W7 O21 1_555 1_555
Si1 O21 1_555 1_555
Si1 O24 1_555 1_555
O21 W7I 1_555 1_555
O24 W4I 1_555 1_555
Er2 O29 1_555 1_555
Er2 O30 1_555 1_555
O32 C33 1_555 1_555
C4 C5 1_555 1_555
C5 C6 1_555 1_555
C9 C10 1_555 1_555
C14 C15 1_555 1_555
C15 C16 1_555 1_555
C19 C20 1_555 1_555
C24 C25 1_555 1_555
C25 C26 1_555 1_555
C29 C30 1_555 1_555
O8I W1I 1_555 1_555
O8I W2I 1_555 1_555
W1I O10I 1_555 1_555
W2I O16I 1_555 1_555
W2I O19I 1_555 1_555
W3I O14I 1_555 1_555
W3I O18I 1_555 1_555
W4I O22I 1_555 1_555
W4I O23I 1_555 1_555
W7I O6I 1_555 1_555
W7I O7I 1_555 1_555
W7I O9I 1_555 1_555
Er1B O29B 1_555 1_555
Er1B O30B 1_555 1_555
Er2B O29B 1_555 1_555
Er2B O30B 1_555 1_555
O26B C31B 1_555 1_555
O31B Er3A 1_555 1_555
C4B C5B 1_555 1_555
C5B C6B 1_555 1_555
C9B C10B 1_555 1_555
C14B C15B 1_555 1_555
C15B C16B 1_555 1_555
C19B C20B 1_555 1_555
C23B C31B 1_555 1_555
C24B C25B 1_555 1_555
C25B C26B 1_555 1_555
C29B C30B 1_555 1_555
O26I C31I 1_555 1_555
O27I Er3A 1_555 1_555
C4I C5I 1_555 1_555
C5I C6I 1_555 1_555
C9I C10I 1_555 1_555
C14I C15I 1_555 1_555
C15I C16I 1_555 1_555
C19I C20I 1_555 1_555
C23I C31I 1_555 1_555
C24I C25I 1_555 1_555
C25I C26I 1_555 1_555
C29I C30I 1_555 1_555
O26K C31K 1_555 1_555
C4K C5K 1_555 1_555
C5K C6K 1_555 1_555
C9K C10K 1_555 1_555
C14K C15K 1_555 1_555
C15K C16K 1_555 1_555
C19K C20K 1_555 1_555
C23K C31K 1_555 1_555
C24K C25K 1_555 1_555
C25K C26K 1_555 1_555
C28K C32K 1_555 1_555
C29K C30K 1_555 1_555

#END
