
#######################################################################
#
#                 Cambridge Crystallographic Data Centre
#                                CCDC 
#
#######################################################################
#
# If this CIF has been generated from an entry in the Cambridge 
# Structural Database, then it will include bibliographic, chemical, 
# crystal, experimental, refinement or atomic coordinate data resulting 
# from the CCDC's data processing and validation procedures.
#
#######################################################################

data_UDISEH
_symmetry_cell_setting           rhombohedral
_symmetry_space_group_name_H-M   'R -3'
_symmetry_Int_Tables_number      148
_space_group_name_Hall           '-R 3'
loop_
_symmetry_equiv_pos_site_id
_symmetry_equiv_pos_as_xyz
1 x,y,z
2 -y,x-y,z
3 -x+y,-x,z
4 2/3+x,1/3+y,1/3+z
5 2/3-y,1/3+x-y,1/3+z
6 2/3-x+y,1/3-x,1/3+z
7 1/3+x,2/3+y,2/3+z
8 1/3-y,2/3+x-y,2/3+z
9 1/3-x+y,2/3-x,2/3+z
10 -x,-y,-z
11 y,-x+y,-z
12 x-y,x,-z
13 1/3-x,2/3-y,2/3-z
14 1/3+y,2/3-x+y,2/3-z
15 1/3+x-y,2/3+x,2/3-z
16 2/3-x,1/3-y,1/3-z
17 2/3+y,1/3-x+y,1/3-z
18 2/3+x-y,1/3+x,1/3-z
_cell_length_a                   19.451(7)
_cell_length_b                   19.451(7)
_cell_length_c                   22.254(7)
_cell_angle_alpha                90
_cell_angle_beta                 90
_cell_angle_gamma                120
_cell_volume                     7291.6
loop_
_atom_site_label
_atom_site_type_symbol
_atom_site_fract_x
_atom_site_fract_y
_atom_site_fract_z
O16 O -0.0588(4) 0.0777(4) -0.0329(3)
H20 H -0.0698 0.0329 -0.0184
H21 H -0.0979 0.0851 -0.0280
Eu1 Eu -0.28379(3) -0.18291(3) -0.28973(2)
Eu2 Eu 0.00876(11) -0.02059(10) -0.21218(5)
O1 O -0.2397(5) -0.0439(4) -0.2984(3)
O2 O -0.2348(7) -0.0804(7) -0.2067(4)
O3 O -0.1680(4) 0.1322(4) -0.0370(3)
O4 O -0.1565(4) 0.2454(4) -0.0623(3)
O5 O -0.0114(4) 0.2376(5) -0.1141(3)
O6 O 0.0264(4) 0.2815(5) -0.2068(3)
O7 O -0.0249(7) 0.1709(7) -0.3112(5)
O8 O -0.0556(8) 0.0858(10) -0.2395(6)
O9 O -0.3719(5) -0.3131(4) -0.3266(3)
O10 O -0.3957(5) -0.1976(5) -0.2351(3)
O11 O -0.0969(4) -0.0580(4) -0.1361(3)
H1 H -0.1241 -0.0348 -0.1353
H2 H -0.1060 -0.0942 -0.1107
O12 O -0.0415(13) -0.0192(13) -0.3192(8)
H3 H -0.0601 0.0111 -0.3274
H4 H -0.0397 -0.0491 -0.3462
C1 C -0.1749(6) 0.1555(6) -0.1443(4)
H5 H -0.2256 0.1504 -0.1567
C2 C -0.1117(6) 0.2245(6) -0.1833(4)
H6 H -0.1178 0.2709 -0.1762
C3 C -0.1318(7) 0.2013(5) -0.2492(4)
H7 H -0.1775 0.2064 -0.2593
H8 H -0.0877 0.2397 -0.2733
C4 C -0.1494(10) 0.1198(6) -0.2680(7)
H9 H -0.1740 0.1079 -0.3079
C5 C -0.2037(6) 0.0567(6) -0.2246(4)
H10 H -0.2544 0.0554 -0.2291
C6 C -0.1833(7) 0.0758(6) -0.1582(4)
H11 H -0.2250 0.0352 -0.1336
H12 H -0.1341 0.0768 -0.1491
C7 C -0.2216(7) -0.0254(7) -0.2453(4)
C8 C -0.1656(5) 0.1808(6) -0.0784(4)
C9 C -0.0281(6) 0.2478(5) -0.1678(4)
C10 C -0.0701(13) 0.1322(13) -0.2727(10)
H13 H -0.3470 -0.3133 -0.3575
H14 H -0.4172 -0.3509 -0.3263
H15 H -0.4315 -0.1837 -0.2516
H16 H -0.4143 -0.2163 -0.2032
O12B O 0.0223(18) 0.0415(13) -0.3192(8)
H3B H 0.0712 0.0601 -0.3274
H4B H -0.0094 0.0397 -0.3462
Eu1A Eu 0.18291(3) -0.10088(4) -0.28973(2)
O1A O 0.0439(4) -0.1958(6) -0.2984(3)
O2A O 0.0804(7) -0.1544(10) -0.2067(4)
O3A O -0.1322(4) -0.3002(6) -0.0370(3)
O4A O -0.2454(4) -0.4019(6) -0.0623(3)
O5A O -0.2376(5) -0.2490(6) -0.1141(3)
O6A O -0.2815(5) -0.2551(6) -0.2068(3)
O7A O -0.1709(7) -0.1958(10) -0.3112(5)
O8A O -0.0858(10) -0.1414(13) -0.2395(6)
O9A O 0.3131(4) -0.0588(6) -0.3266(3)
O10A O 0.1976(5) -0.1981(7) -0.2351(3)
O11A O 0.0580(4) -0.0389(6) -0.1361(3)
H1A H 0.0348 -0.0893 -0.1353
H2A H 0.0942 -0.0118 -0.1107
C1A C -0.1555(6) -0.3304(8) -0.1443(4)
H5A H -0.1504 -0.3760 -0.1567
C2A C -0.2245(6) -0.3362(8) -0.1833(4)
H6A H -0.2709 -0.3887 -0.1762
C3A C -0.2013(5) -0.3331(9) -0.2492(4)
H7A H -0.2064 -0.3839 -0.2593
H8A H -0.2397 -0.3274 -0.2733
C4A C -0.1198(6) -0.2692(12) -0.2680(7)
H9A H -0.1079 -0.2819 -0.3079
C5A C -0.0567(6) -0.2604(8) -0.2246(4)
H10A H -0.0554 -0.3098 -0.2291
C6A C -0.0758(6) -0.2591(9) -0.1582(4)
H11A H -0.0352 -0.2602 -0.1336
H12A H -0.0768 -0.2109 -0.1491
C7A C 0.0254(7) -0.1962(10) -0.2453(4)
C8A C -0.1808(6) -0.3464(8) -0.0784(4)
C9A C -0.2478(5) -0.2759(8) -0.1678(4)
C10A C -0.1322(13) -0.2023(18) -0.2727(10)
H13A H 0.3133 -0.0337 -0.3575
H14A H 0.3509 -0.0663 -0.3263
H15A H 0.1837 -0.2478 -0.2516
H16A H 0.2163 -0.1980 -0.2032
Eu1B Eu 0.10088(4) 0.28379(3) -0.28973(2)
O1B O 0.1958(6) 0.2397(5) -0.2984(3)
O2B O 0.1544(10) 0.2348(7) -0.2067(4)
O3B O 0.3002(6) 0.1680(4) -0.0370(3)
O4B O 0.4019(6) 0.1565(4) -0.0623(3)
O5B O 0.2490(6) 0.0114(4) -0.1141(3)
O6B O 0.2551(6) -0.0264(4) -0.2068(3)
O7B O 0.1958(10) 0.0249(7) -0.3112(5)
O8B O 0.1414(13) 0.0556(8) -0.2395(6)
O9B O 0.0588(6) 0.3719(5) -0.3266(3)
O10B O 0.1981(7) 0.3957(5) -0.2351(3)
O11B O 0.0389(6) 0.0969(4) -0.1361(3)
H1B H 0.0893 0.1241 -0.1353
H2B H 0.0118 0.1060 -0.1107
C1B C 0.3304(8) 0.1749(6) -0.1443(4)
H5B H 0.3760 0.2256 -0.1567
C2B C 0.3362(8) 0.1117(6) -0.1833(4)
H6B H 0.3887 0.1178 -0.1762
C3B C 0.3331(9) 0.1318(7) -0.2492(4)
H7B H 0.3839 0.1775 -0.2593
H8B H 0.3274 0.0877 -0.2733
C4B C 0.2692(12) 0.1494(10) -0.2680(7)
H9B H 0.2819 0.1740 -0.3079
C5B C 0.2604(8) 0.2037(6) -0.2246(4)
H10B H 0.3098 0.2544 -0.2291
C6B C 0.2591(9) 0.1833(7) -0.1582(4)
H11B H 0.2602 0.2250 -0.1336
H12B H 0.2109 0.1341 -0.1491
C7B C 0.1962(10) 0.2216(7) -0.2453(4)
C8B C 0.3464(8) 0.1656(5) -0.0784(4)
C9B C 0.2759(8) 0.0281(6) -0.1678(4)
C10B C 0.2023(18) 0.0701(13) -0.2727(10)
H13B H 0.0337 0.3470 -0.3575
H14B H 0.0663 0.4172 -0.3263
H15B H 0.2478 0.4315 -0.2516
H16B H 0.1980 0.4143 -0.2032
Eu1C Eu 0.38288(3) 0.15042(3) 0.04360(2)
Eu1D Eu -0.15042(3) 0.23245(4) 0.04360(2)
Eu1E Eu -0.23245(4) -0.38288(3) 0.04360(2)
O3F O 0.1653(4) -0.2011(4) -0.3703(3)
O3G O 0.2011(4) 0.3665(6) -0.3703(3)
O3H O -0.3665(6) -0.1653(4) -0.3703(3)
O4F O 0.1768(4) -0.0879(4) -0.3956(3)
O4G O 0.0879(4) 0.2648(6) -0.3956(3)
O4H O -0.2648(6) -0.1768(4) -0.3956(3)
O13? O -0.1772(14) -0.0562(12) -0.2212(9)
O14? O 0.0064(13) 0.1608(12) -0.2835(10)
O15? O -0.0671(12) 0.0407(14) -0.2454(8)
H17? H -0.1823 0.1972 -0.2589
H18? H -0.0914 0.2418 -0.2746
C11? C -0.1362(15) 0.1219(8) -0.2606(13)
H19? H -0.2512 0.0605 -0.2325
C12? C -0.0647(14) 0.1108(18) -0.2649(13)
loop_
_geom_bond_atom_site_label_1
_geom_bond_atom_site_label_2
_geom_bond_site_symmetry_1
_geom_bond_site_symmetry_2
Eu1 O1 1_555 1_555
Eu2 O11 1_555 1_555
O1 C7 1_555 1_555
O2 Eu1 1_555 1_555
O3 C8 1_555 1_555
O4 C8 1_555 1_555
O5 C9 1_555 1_555
O6 C9 1_555 1_555
O7 C10 1_555 1_555
O8 C10 1_555 1_555
O9 Eu1 1_555 1_555
O10 Eu1 1_555 1_555
O11 H1 1_555 1_555
H2 O11 1_555 1_555
O12 Eu2 1_555 1_555
H3 O12 1_555 1_555
H4 O12 1_555 1_555
C1 H5 1_555 1_555
C2 C1 1_555 1_555
H6 C2 1_555 1_555
C3 C2 1_555 1_555
H7 C3 1_555 1_555
H8 C3 1_555 1_555
C4 C3 1_555 1_555
H9 C4 1_555 1_555
C5 C4 1_555 1_555
H10 C5 1_555 1_555
C6 C1 1_555 1_555
H11 C6 1_555 1_555
H12 C6 1_555 1_555
C7 O2 1_555 1_555
C8 C1 1_555 1_555
C9 C2 1_555 1_555
C10 C4 1_555 1_555
H13 O9 1_555 1_555
H14 O9 1_555 1_555
H15 O10 1_555 1_555
H16 O10 1_555 1_555
O16 H20 1_555 1_555
H21 O16 1_555 1_555
O12B Eu2 1_555 1_555
H3B O12B 1_555 1_555
H4B O12 1_555 1_555
Eu1A O1A 1_555 1_555
O1A C7A 1_555 1_555
O2A Eu1A 1_555 1_555
O3A C8A 1_555 1_555
O4A C8A 1_555 1_555
O5A C9A 1_555 1_555
O6A Eu1 1_555 1_555
O7A Eu1 1_555 1_555
O8A Eu2 1_555 1_555
O9A Eu1A 1_555 1_555
O10A Eu1A 1_555 1_555
O11A Eu2 1_555 1_555
H1A O11A 1_555 1_555
H2A O11A 1_555 1_555
C1A H5A 1_555 1_555
C2A C1A 1_555 1_555
H6A C2A 1_555 1_555
C3A C2A 1_555 1_555
H7A C3A 1_555 1_555
H8A C3A 1_555 1_555
C4A C3A 1_555 1_555
H9A C4A 1_555 1_555
C5A C4A 1_555 1_555
H10A C5A 1_555 1_555
C6A C1A 1_555 1_555
H11A C6A 1_555 1_555
H12A C6A 1_555 1_555
C7A O2A 1_555 1_555
C8A C1A 1_555 1_555
C9A O6A 1_555 1_555
C10A O7A 1_555 1_555
H13A O9A 1_555 1_555
H14A O9A 1_555 1_555
H15A O10A 1_555 1_555
H16A O10A 1_555 1_555
Eu1B O6 1_555 1_555
O1B Eu1B 1_555 1_555
O2B Eu1B 1_555 1_555
O3B C8B 1_555 1_555
O4B C8B 1_555 1_555
O5B C9B 1_555 1_555
O6B Eu1A 1_555 1_555
O7B Eu1A 1_555 1_555
O8B Eu2 1_555 1_555
O9B Eu1B 1_555 1_555
O10B Eu1B 1_555 1_555
O11B Eu2 1_555 1_555
H1B O11B 1_555 1_555
H2B O11B 1_555 1_555
C1B H5B 1_555 1_555
C2B C1B 1_555 1_555
H6B C2B 1_555 1_555
C3B C2B 1_555 1_555
H7B C3B 1_555 1_555
H8B C3B 1_555 1_555
C4B C3B 1_555 1_555
H9B C4B 1_555 1_555
C5B C4B 1_555 1_555
H10B C5B 1_555 1_555
C6B C1B 1_555 1_555
H11B C6B 1_555 1_555
H12B C6B 1_555 1_555
C7B O1B 1_555 1_555
C8B C1B 1_555 1_555
C9B O6B 1_555 1_555
C10B O7B 1_555 1_555
H13B O9B 1_555 1_555
H14B O9B 1_555 1_555
H15B O10B 1_555 1_555
H16B O10B 1_555 1_555
Eu1C O3B 1_555 1_555
Eu1D O3 1_555 1_555
Eu1E O3A 1_555 1_555
O3F Eu1A 1_555 1_555
O3G Eu1B 1_555 1_555
O3H Eu1 1_555 1_555
O4F Eu1A 1_555 1_555
O4G Eu1B 1_555 1_555
O4H Eu1 1_555 1_555
O4 Eu1D 1_555 1_555
O7 Eu1B 1_555 1_555
O12 O12B 1_555 1_555
C5 C6 1_555 1_555
C5 C7 1_555 1_555
O12B H4B 1_555 1_555
O4A Eu1E 1_555 1_555
O8A C10A 1_555 1_555
C2A C9A 1_555 1_555
C4A C10A 1_555 1_555
C5A C6A 1_555 1_555
C5A C7A 1_555 1_555
O2B C7B 1_555 1_555
O4B Eu1C 1_555 1_555
O8B C10B 1_555 1_555
C2B C9B 1_555 1_555
C4B C10B 1_555 1_555
C5B C6B 1_555 1_555
C5B C7B 1_555 1_555

#END
