
#######################################################################
#
#                 Cambridge Crystallographic Data Centre
#                                CCDC 
#
#######################################################################
#
# If this CIF has been generated from an entry in the Cambridge 
# Structural Database, then it will include bibliographic, chemical, 
# crystal, experimental, refinement or atomic coordinate data resulting 
# from the CCDC's data processing and validation procedures.
#
#######################################################################

data_UDISAD
_symmetry_cell_setting           rhombohedral
_symmetry_space_group_name_H-M   'R -3'
_symmetry_Int_Tables_number      148
_space_group_name_Hall           '-R 3'
loop_
_symmetry_equiv_pos_site_id
_symmetry_equiv_pos_as_xyz
1 x,y,z
2 -y,x-y,z
3 -x+y,-x,z
4 2/3+x,1/3+y,1/3+z
5 2/3-y,1/3+x-y,1/3+z
6 2/3-x+y,1/3-x,1/3+z
7 1/3+x,2/3+y,2/3+z
8 1/3-y,2/3+x-y,2/3+z
9 1/3-x+y,2/3-x,2/3+z
10 -x,-y,-z
11 y,-x+y,-z
12 x-y,x,-z
13 1/3-x,2/3-y,2/3-z
14 1/3+y,2/3-x+y,2/3-z
15 1/3+x-y,2/3+x,2/3-z
16 2/3-x,1/3-y,1/3-z
17 2/3+y,1/3-x+y,1/3-z
18 2/3+x-y,1/3+x,1/3-z
_cell_length_a                   19.420(6)
_cell_length_b                   19.420(6)
_cell_length_c                   22.180(7)
_cell_angle_alpha                90
_cell_angle_beta                 90
_cell_angle_gamma                120
_cell_volume                     7244.2
loop_
_atom_site_label
_atom_site_type_symbol
_atom_site_fract_x
_atom_site_fract_y
_atom_site_fract_z
O13 O 0.7191(9) 0.4687(7) 0.3677(5)
H13 H 0.7535 0.4565 0.3565
H14 H 0.7376 0.5183 0.3631
Tb1 Tb 0.56577(4) 0.51610(4) 0.62257(3)
O1 O 0.8347(5) 0.6350(6) 0.3693(4)
C1 C 0.6933(8) 0.6099(8) 0.4994(5)
O2 O 0.6791(5) 0.5831(6) 0.4458(4)
O3 O 0.4697(7) 0.5326(7) 0.5693(5)
O4 O 0.6092(7) 0.6463(6) 0.6593(4)
O5 O 0.9046(6) 0.5258(7) 0.6312(4)
C2 C 0.7798(8) 0.6712(9) 0.5166(6)
H1 H 0.7861 0.7238 0.5092
O6 O 0.6389(6) 0.5875(6) 0.5393(4)
O7 O 0.8244(6) 0.7372(6) 0.3951(5)
C3 C 0.8331(7) 0.6785(9) 0.4109(6)
C4 C 0.8441(8) 0.6660(9) 0.4767(5)
H2 H 0.8952 0.7118 0.4884
C5 C 0.8865(10) 0.5290(9) 0.5778(5)
O8 O 0.9011(9) 0.4864(9) 0.5399(6)
C6 C 0.8733(9) 0.5948(10) 0.5574(6)
H3 H 0.9249 0.6434 0.5623
C7 C 0.8512(9) 0.5942(9) 0.4904(6)
H4 H 0.8918 0.5941 0.4650
H5 H 0.8011 0.5464 0.4819
Tb2 Tb 0.69412(12) 0.35203(19) 0.54473(8)
O9 O 0.7599(6) 0.3685(7) 0.4673(7)
C8 C 0.7995(10) 0.6694(12) 0.5826(8)
H6 H 0.8451 0.7204 0.5930
H7 H 0.7550 0.6630 0.6068
O10 O 0.7262(12) 0.4696(13) 0.5696(10)
C9 C 0.7388(13) 0.5283(13) 0.6034(9)
O11 O 0.6870(10) 0.5259(11) 0.6425(8)
C10 C 0.8173(12) 0.6051(12) 0.5995(8)
H8 H 0.8412 0.6172 0.6398
O12 O 0.698(2) 0.353(3) 0.657(2)
H9 H 0.424(3) 0.491(4) 0.569(10)
H10 H 0.466(8) 0.572(6) 0.582(8)
H11 H 0.614(12) 0.683(6) 0.635(3)
H12 H 0.593(11) 0.653(5) 0.693(4)
O12A O 0.647(3) 0.345(4) 0.657(2)
O12B O 0.655(4) 0.302(2) 0.657(2)
Tb1A Tb 0.48390(4) 0.04967(6) 0.62257(3)
O1A O 0.3650(6) 0.1997(8) 0.3693(4)
C1A C 0.3901(8) 0.0834(11) 0.4994(5)
O2A O 0.4169(6) 0.0960(8) 0.4458(4)
O3A O 0.4674(7) -0.0629(10) 0.5693(5)
O4A O 0.3537(6) -0.0371(9) 0.6593(4)
O5A O 0.4742(7) 0.3788(9) 0.6312(4)
C2A C 0.3288(9) 0.1086(12) 0.5166(6)
H1A H 0.2762 0.0623 0.5092
O6A O 0.4125(6) 0.0514(8) 0.5393(4)
O7A O 0.2628(6) 0.0872(8) 0.3951(5)
C3A C 0.3215(9) 0.1546(11) 0.4109(6)
C4A C 0.3340(9) 0.1781(12) 0.4767(5)
H2A H 0.2882 0.1834 0.4884
C5A C 0.4710(9) 0.3575(13) 0.5778(5)
O8A O 0.5136(9) 0.4147(13) 0.5399(6)
C6A C 0.4052(10) 0.2785(13) 0.5574(6)
H3A H 0.3566 0.2815 0.5623
C7A C 0.4058(9) 0.2570(13) 0.4904(6)
H4A H 0.4059 0.2977 0.4650
H5A H 0.4536 0.2547 0.4819
Tb2A Tb 0.64797(19) 0.34209(22) 0.54473(8)
O9A O 0.6315(7) 0.3914(9) 0.4673(7)
C8A C 0.3306(12) 0.1301(16) 0.5826(8)
H6A H 0.2796 0.1247 0.5930
H7A H 0.3370 0.0920 0.6068
O10A O 0.5304(13) 0.2566(18) 0.5696(10)
C9A C 0.4717(13) 0.2105(18) 0.6034(9)
O11A O 0.4741(11) 0.1611(15) 0.6425(8)
C10A C 0.3949(12) 0.2122(17) 0.5995(8)
H8A H 0.3828 0.2240 0.6398
H9A H 0.509(4) -0.067(5) 0.569(10)
H10A H 0.428(6) -0.106(10) 0.582(8)
H11A H 0.317(6) -0.069(13) 0.635(3)
H12A H 0.347(5) -0.060(12) 0.693(4)
Tb1B Tb 0.95033(6) 0.43423(4) 0.62257(3)
O1B O 0.8003(8) 0.1653(5) 0.3693(4)
C1B C 0.9166(11) 0.3067(8) 0.4994(5)
O2B O 0.9040(8) 0.3209(5) 0.4458(4)
O3B O 1.0629(10) 0.5303(7) 0.5693(5)
O4B O 1.0371(9) 0.3908(7) 0.6593(4)
O5B O 0.6212(9) 0.0954(6) 0.6312(4)
C2B C 0.8914(12) 0.2202(8) 0.5166(6)
H1B H 0.9377 0.2139 0.5092
O6B O 0.9486(8) 0.3611(6) 0.5393(4)
O7B O 0.9128(8) 0.1756(6) 0.3951(5)
C3B C 0.8454(11) 0.1669(7) 0.4109(6)
C4B C 0.8219(12) 0.1559(8) 0.4767(5)
H2B H 0.8166 0.1048 0.4884
C5B C 0.6425(13) 0.1135(10) 0.5778(5)
O8B O 0.5853(13) 0.0989(9) 0.5399(6)
C6B C 0.7215(13) 0.1267(9) 0.5574(6)
H3B H 0.7185 0.0751 0.5623
C7B C 0.7430(13) 0.1488(9) 0.4904(6)
H4B H 0.7023 0.1082 0.4650
H5B H 0.7453 0.1989 0.4819
Tb2B Tb 0.65791(22) 0.30588(12) 0.54473(8)
O9B O 0.6086(9) 0.2401(6) 0.4673(7)
C8B C 0.8699(16) 0.2005(10) 0.5826(8)
H6B H 0.8753 0.1549 0.5930
H7B H 0.9080 0.2450 0.6068
O10B O 0.7434(18) 0.2738(12) 0.5696(10)
C9B C 0.7895(18) 0.2612(13) 0.6034(9)
O11B O 0.8389(15) 0.3130(10) 0.6425(8)
C10B C 0.7878(17) 0.1827(12) 0.5995(8)
H8B H 0.7760 0.1588 0.6398
H9B H 1.067(5) 0.576(3) 0.569(10)
H10B H 1.106(10) 0.534(8) 0.582(8)
H11B H 1.069(13) 0.386(12) 0.635(3)
H12B H 1.060(12) 0.407(11) 0.693(4)
Tb1F Tb 0.89910(4) 0.18277(4) 0.28924(3)
Tb1G Tb 0.81723(4) 0.71634(6) 0.28924(3)
Tb1H Tb 0.28366(6) 0.10090(4) 0.28924(3)
O1C O 0.5014(5) -0.0317(6) 0.7026(4)
O1D O 1.0317(6) 0.5330(8) 0.7026(4)
O1E O 0.4670(8) 0.4986(5) 0.7026(4)
O7C O 0.4911(6) 0.0705(6) 0.7284(5)
O7D O 0.9295(6) 0.4205(8) 0.7284(5)
O7E O 0.5795(8) 0.5089(6) 0.7284(5)
C11? C 0.7968(17) 0.5759(19) 0.6017(13)
H15? H 0.8151 0.5805 0.6435
H16? H 0.9194 0.6464 0.5679
C12? C 0.723(2) 0.495(2) 0.5954(19)
H17? H 0.7615 0.6750 0.6075
H18? H 0.8520 0.7139 0.5911
O14? O 0.858(3) 0.4619(15) 0.5607(18)
O15? O 0.6646(17) 0.4909(18) 0.6229(13)
O16? O 0.737(2) 0.444(2) 0.5780(15)
loop_
_geom_bond_atom_site_label_1
_geom_bond_atom_site_label_2
_geom_bond_site_symmetry_1
_geom_bond_site_symmetry_2
Tb1 O3 1_555 1_555
O1 C3 1_555 1_555
C1 O2 1_555 1_555
O3 H9 1_555 1_555
O4 Tb1 1_555 1_555
O5 C5 1_555 1_555
C2 C1 1_555 1_555
H1 C2 1_555 1_555
O6 Tb1 1_555 1_555
O7 C3 1_555 1_555
C3 C4 1_555 1_555
C4 C2 1_555 1_555
H2 C4 1_555 1_555
C5 O8 1_555 1_555
O8 Tb1B 1_555 1_555
C6 C5 1_555 1_555
H3 C6 1_555 1_555
C7 C4 1_555 1_555
H4 C7 1_555 1_555
H5 C7 1_555 1_555
Tb2 O9 1_555 1_555
O9 Tb2A 1_555 1_555
C8 C2 1_555 1_555
H6 C8 1_555 1_555
H7 C8 1_555 1_555
O10 Tb2 1_555 1_555
C9 O10 1_555 1_555
O11 Tb1 1_555 1_555
C10 C6 1_555 1_555
H8 C10 1_555 1_555
O12 Tb2 1_555 1_555
H10 O3 1_555 1_555
H11 O4 1_555 1_555
H12 O4 1_555 1_555
O13 H13 1_555 1_555
H14 O13 1_555 1_555
O12A Tb2 1_555 1_555
O12B Tb2 1_555 1_555
Tb1A O3A 1_555 1_555
O1A C3A 1_555 1_555
C1A O2A 1_555 1_555
O3A H9A 1_555 1_555
O4A Tb1A 1_555 1_555
O5A Tb1 1_555 1_555
C2A C1A 1_555 1_555
H1A C2A 1_555 1_555
O6A Tb1A 1_555 1_555
O7A C3A 1_555 1_555
C3A C4A 1_555 1_555
C4A C2A 1_555 1_555
H2A C4A 1_555 1_555
C5A O5A 1_555 1_555
O8A Tb1 1_555 1_555
C6A C5A 1_555 1_555
H3A C6A 1_555 1_555
C7A C4A 1_555 1_555
H4A C7A 1_555 1_555
H5A C7A 1_555 1_555
Tb2A Tb2 1_555 1_555
O9A Tb2 1_555 1_555
C8A C2A 1_555 1_555
H6A C8A 1_555 1_555
H7A C8A 1_555 1_555
O10A Tb2 1_555 1_555
C9A O10A 1_555 1_555
O11A Tb1A 1_555 1_555
C10A C6A 1_555 1_555
H8A C10A 1_555 1_555
H10A O3A 1_555 1_555
H11A O4A 1_555 1_555
H12A O4A 1_555 1_555
Tb1B O5 1_555 1_555
O1B C3B 1_555 1_555
C1B O2B 1_555 1_555
O3B Tb1B 1_555 1_555
O4B Tb1B 1_555 1_555
O5B Tb1A 1_555 1_555
C2B C1B 1_555 1_555
H1B C2B 1_555 1_555
O6B Tb1B 1_555 1_555
O7B C3B 1_555 1_555
C3B C4B 1_555 1_555
C4B C2B 1_555 1_555
H2B C4B 1_555 1_555
C5B O5B 1_555 1_555
O8B Tb1A 1_555 1_555
C6B C5B 1_555 1_555
H3B C6B 1_555 1_555
C7B C4B 1_555 1_555
H4B C7B 1_555 1_555
H5B C7B 1_555 1_555
Tb2B Tb2 1_555 1_555
O9B Tb2 1_555 1_555
C8B C2B 1_555 1_555
H6B C8B 1_555 1_555
H7B C8B 1_555 1_555
O10B Tb2 1_555 1_555
C9B O10B 1_555 1_555
O11B Tb1B 1_555 1_555
C10B C6B 1_555 1_555
H8B C10B 1_555 1_555
H9B O3B 1_555 1_555
H10B O3B 1_555 1_555
H11B O4B 1_555 1_555
H12B O4B 1_555 1_555
Tb1F O1B 1_555 1_555
Tb1G O1 1_555 1_555
Tb1H O1A 1_555 1_555
O1C Tb1A 1_555 1_555
O1D Tb1B 1_555 1_555
O1E Tb1 1_555 1_555
O7C Tb1A 1_555 1_555
O7D Tb1B 1_555 1_555
O7E Tb1 1_555 1_555
C1 O6 1_555 1_555
O7 Tb1G 1_555 1_555
C6 C7 1_555 1_555
O9 Tb2B 1_555 1_555
C8 C10 1_555 1_555
O10 Tb2A 1_555 1_555
O10 Tb2B 1_555 1_555
C9 O11 1_555 1_555
C9 C10 1_555 1_555
O12 O12A 1_555 1_555
O12 O12B 1_555 1_555
O12 Tb2A 1_555 1_555
O12 Tb2B 1_555 1_555
O12A O12B 1_555 1_555
O12A Tb2A 1_555 1_555
O12A Tb2B 1_555 1_555
O12B Tb2A 1_555 1_555
O12B Tb2B 1_555 1_555
C1A O6A 1_555 1_555
O7A Tb1H 1_555 1_555
C5A O8A 1_555 1_555
C6A C7A 1_555 1_555
Tb2A O9A 1_555 1_555
Tb2A O10A 1_555 1_555
Tb2A Tb2B 1_555 1_555
Tb2A O9B 1_555 1_555
Tb2A O10B 1_555 1_555
O9A Tb2B 1_555 1_555
C8A C10A 1_555 1_555
O10A Tb2B 1_555 1_555
C9A O11A 1_555 1_555
C9A C10A 1_555 1_555
C1B O6B 1_555 1_555
O7B Tb1F 1_555 1_555
C5B O8B 1_555 1_555
C6B C7B 1_555 1_555
Tb2B O9B 1_555 1_555
Tb2B O10B 1_555 1_555
C8B C10B 1_555 1_555
C9B O11B 1_555 1_555
C9B C10B 1_555 1_555

#END
