
#######################################################################
#
#                 Cambridge Crystallographic Data Centre
#                                CCDC 
#
#######################################################################
#
# If this CIF has been generated from an entry in the Cambridge 
# Structural Database, then it will include bibliographic, chemical, 
# crystal, experimental, refinement or atomic coordinate data resulting 
# from the CCDC's data processing and validation procedures.
#
#######################################################################

data_UDISIK
_symmetry_cell_setting           orthorhombic
_symmetry_space_group_name_H-M   'I 2 2 2'
_symmetry_Int_Tables_number      23
_space_group_name_Hall           'I 2 2'
loop_
_symmetry_equiv_pos_site_id
_symmetry_equiv_pos_as_xyz
1 x,y,z
2 -x,-y,z
3 x,-y,-z
4 -x,y,-z
5 1/2+x,1/2+y,1/2+z
6 1/2-x,1/2-y,1/2+z
7 1/2+x,1/2-y,1/2-z
8 1/2-x,1/2+y,1/2-z
_cell_length_a                   3.797(4)
_cell_length_b                   10.769(7)
_cell_length_c                   11.312(6)
_cell_angle_alpha                90
_cell_angle_beta                 90
_cell_angle_gamma                90
_cell_volume                     462.546
loop_
_atom_site_label
_atom_site_type_symbol
_atom_site_fract_x
_atom_site_fract_y
_atom_site_fract_z
V1 V -0.5000 0.0000 -0.5000
F1 F -0.5000 -0.17104(15) -0.5000
F2 F 0.0000 0.0000 -0.5000
N1 N -0.5000 0.0000 -0.31180(18)
C1 C -0.5000 0.0000 -0.0654(2)
C2 C -0.6092(6) -0.1040(2) -0.1286(2)
H1 H -0.6818 0.1754 0.0892
C3 C -0.6083(6) -0.0998(2) -0.2503(2)
H2 H -0.3139 -0.1691 0.2919
V1_2 V 0.5000 0.0000 -0.5000
V1_3 V -0.5000 0.0000 0.5000
F1A F -0.5000 0.17104(15) -0.5000
F2_2 F -1.0000 0.0000 -0.5000
N1B N -0.5000 0.0000 0.31180(18)
N1B_2 N -0.5000 0.0000 -0.68820(18)
C1B C -0.5000 0.0000 0.0654(2)
C2B C -0.6092(6) 0.1040(2) 0.1286(2)
C2C C -0.3908(6) -0.1040(2) 0.1286(2)
C2A C -0.3908(6) 0.1040(2) -0.1286(2)
H1A H -0.3182 -0.1754 0.0892
H1C H -0.3182 0.1754 -0.0892
H1B H -0.6818 -0.1754 -0.0892
C3B C -0.6083(6) 0.0998(2) 0.2503(2)
C3C C -0.3917(6) -0.0998(2) 0.2503(2)
C3A C -0.3917(6) 0.0998(2) -0.2503(2)
H2A H -0.6861 0.1691 0.2919
H2B H -0.3139 0.1691 -0.2919
H2C H -0.6861 -0.1691 -0.2919
loop_
_geom_bond_atom_site_label_1
_geom_bond_atom_site_label_2
_geom_bond_site_symmetry_1
_geom_bond_site_symmetry_2
V1 F1 1_555 1_555
F2 V1 1_555 1_555
N1 V1 1_555 1_555
C1 C2 1_555 1_555
C2 C3 1_555 1_555
H1 C2B 1_555 1_555
C3 N1 1_555 1_555
H2 C3C 1_555 1_555
V1_2 F2 1_555 1_555
V1_3 N1B 1_555 1_555
F1A V1 1_555 1_555
F2_2 V1 1_555 1_555
N1B C3B 1_555 1_555
N1B_2 V1 1_555 1_555
C1B C1 1_555 1_555
C2B C1B 1_555 1_555
C2C C1B 1_555 1_555
C2A C1 1_555 1_555
H1A C2C 1_555 1_555
H1C C2A 1_555 1_555
H1B C2 1_555 1_555
C3B C2B 1_555 1_555
C3C N1B 1_555 1_555
C3A N1 1_555 1_555
H2A C3B 1_555 1_555
H2B C3A 1_555 1_555
H2C C3 1_555 1_555
C2C C3C 1_555 1_555
C2A C3A 1_555 1_555

#END
