
#######################################################################
#
#                 Cambridge Crystallographic Data Centre
#                                CCDC 
#
#######################################################################
#
# If this CIF has been generated from an entry in the Cambridge 
# Structural Database, then it will include bibliographic, chemical, 
# crystal, experimental, refinement or atomic coordinate data resulting 
# from the CCDC's data processing and validation procedures.
#
#######################################################################

data_UDISIL
_symmetry_cell_setting           rhombohedral
_symmetry_space_group_name_H-M   'R -3'
_symmetry_Int_Tables_number      148
_space_group_name_Hall           '-R 3'
loop_
_symmetry_equiv_pos_site_id
_symmetry_equiv_pos_as_xyz
1 x,y,z
2 -y,x-y,z
3 -x+y,-x,z
4 2/3+x,1/3+y,1/3+z
5 2/3-y,1/3+x-y,1/3+z
6 2/3-x+y,1/3-x,1/3+z
7 1/3+x,2/3+y,2/3+z
8 1/3-y,2/3+x-y,2/3+z
9 1/3-x+y,2/3-x,2/3+z
10 -x,-y,-z
11 y,-x+y,-z
12 x-y,x,-z
13 1/3-x,2/3-y,2/3-z
14 1/3+y,2/3-x+y,2/3-z
15 1/3+x-y,2/3+x,2/3-z
16 2/3-x,1/3-y,1/3-z
17 2/3+y,1/3-x+y,1/3-z
18 2/3+x-y,1/3+x,1/3-z
_cell_length_a                   19.468(8)
_cell_length_b                   19.468(8)
_cell_length_c                   22.231(8)
_cell_angle_alpha                90
_cell_angle_beta                 90
_cell_angle_gamma                120
_cell_volume                     7296.8
loop_
_atom_site_label
_atom_site_type_symbol
_atom_site_fract_x
_atom_site_fract_y
_atom_site_fract_z
O13 O 0.2749(10) 0.5305(7) 0.6342(6)
H17 H 0.2323 0.4865 0.6295
H18 H 0.2638 0.5672 0.6391
Gd1 Gd 0.30477(9) 0.64677(12) 0.45478(7)
Gd2 Gd 0.18312(4) 0.28413(4) 0.71029(3)
O1 O 0.1768(6) 0.2641(6) 0.6043(4)
O2 O 0.1660(5) 0.3666(5) 0.6297(3)
O3 O 0.3600(6) 0.4118(6) 0.4600(4)
O4 O 0.3216(5) 0.4180(7) 0.5529(4)
O5 O 0.2724(9) 0.5355(10) 0.4259(6)
O6 O 0.3167(8) 0.4815(10) 0.3606(7)
O7 O 0.0933(6) 0.4717(6) 0.3683(4)
O8 O 0.2944(17) 0.6427(19) 0.3475(13)
H1 H 0.2500 0.6132 0.3307
H2 H 0.3333 0.6667 0.3263
O9 O 0.0984(8) 0.5140(8) 0.4587(6)
O10 O 0.3127(5) 0.3707(6) 0.6735(4)
H3 H 0.3116 0.3848 0.6358
H4 H 0.3365 0.4144 0.6953
O11 O 0.1983(6) 0.3963(7) 0.7646(4)
H5 H 0.1522 0.3970 0.7674
H6 H 0.2153 0.3975 0.8027
O12 O 0.2371(7) 0.6283(7) 0.5304(6)
H7 H 0.1876 0.5955 0.5296
H8 H 0.2587 0.6535 0.5626
C1 C 0.1577(7) 0.3356(8) 0.5225(5)
H9 H 0.1059 0.2892 0.5101
C2 C 0.1502(9) 0.4079(9) 0.5081(5)
H10 H 0.2009 0.4568 0.5166
H11 H 0.1085 0.4079 0.5336
C3 C 0.1286(9) 0.4060(10) 0.4414(5)
H12 H 0.0779 0.3550 0.4351
C4 C 0.1904(10) 0.4030(11) 0.4000(6)
H13 H 0.1679 0.3928 0.3583
C5 C 0.2005(9) 0.3306(11) 0.4173(6)
H14 H 0.1507 0.2809 0.4081
H15 H 0.2432 0.3317 0.3924
C6 C 0.2205(7) 0.3306(8) 0.4830(5)
H16 H 0.2142 0.2772 0.4910
C7 C 0.1671(7) 0.3207(8) 0.5883(5)
C8 C 0.3054(7) 0.3904(8) 0.5000(5)
C9 C 0.1131(9) 0.4714(9) 0.4212(6)
C10 C 0.2671(11) 0.4786(13) 0.3976(8)
O8A O 0.3573(19) 0.6517(25) 0.3475(13)
H1A H 0.3868 0.6368 0.3307
O8B O 0.3483(25) 0.7056(17) 0.3475(13)
H1B H 0.3632 0.7500 0.3307
Gd1A Gd 0.35323(12) 0.65800(15) 0.45478(7)
Gd2A Gd 0.71587(4) 0.89899(6) 0.71029(3)
O1A O 0.7359(6) 0.9127(8) 0.6043(4)
O2A O 0.6334(5) 0.7994(7) 0.6297(3)
O3A O 0.5882(6) 0.9482(8) 0.4600(4)
O4A O 0.5820(7) 0.9036(9) 0.5529(4)
O5A O 0.4645(10) 0.7369(13) 0.4259(6)
O6A O 0.5185(10) 0.8352(13) 0.3606(7)
O7A O 0.5283(6) 0.6216(8) 0.3683(4)
O9A O 0.4860(8) 0.5844(11) 0.4587(6)
O10A O 0.6293(6) 0.9420(8) 0.6735(4)
H3A H 0.6152 0.9268 0.6358
H4A H 0.5856 0.9221 0.6953
O11A O 0.6037(7) 0.8020(9) 0.7646(4)
H5A H 0.6030 0.7552 0.7674
H6A H 0.6025 0.8178 0.8027
O12A O 0.3717(7) 0.6088(10) 0.5304(6)
H7A H 0.4045 0.5921 0.5296
H8A H 0.3465 0.6052 0.5626
C1A C 0.6644(8) 0.8221(11) 0.5225(5)
H9A H 0.7108 0.8167 0.5101
C2A C 0.5921(9) 0.7423(13) 0.5081(5)
H10A H 0.5432 0.7441 0.5166
H11A H 0.5921 0.7006 0.5336
C3A C 0.5940(10) 0.7226(13) 0.4414(5)
H12A H 0.6450 0.7229 0.4351
C4A C 0.5970(11) 0.7874(15) 0.4000(6)
H13A H 0.6072 0.7751 0.3583
C5A C 0.6694(11) 0.8699(14) 0.4173(6)
H14A H 0.7191 0.8698 0.4081
H15A H 0.6683 0.9115 0.3924
C6A C 0.6694(8) 0.8899(11) 0.4830(5)
H16A H 0.7228 0.9370 0.4910
C7A C 0.6793(8) 0.8464(11) 0.5883(5)
C8A C 0.6096(8) 0.9150(11) 0.5000(5)
C9A C 0.5286(9) 0.6417(13) 0.4212(6)
C10A C 0.5214(13) 0.7885(17) 0.3976(8)
Gd1B Gd 0.34200(15) 0.69523(9) 0.45478(7)
Gd2B Gd 0.10101(6) 0.81688(4) 0.71029(3)
O1B O 0.0873(8) 0.8232(6) 0.6043(4)
O2B O 0.2006(7) 0.8340(5) 0.6297(3)
O3B O 0.0518(8) 0.6400(6) 0.4600(4)
O4B O 0.0964(9) 0.6784(5) 0.5529(4)
O5B O 0.2631(13) 0.7276(9) 0.4259(6)
O6B O 0.1648(13) 0.6833(8) 0.3606(7)
O7B O 0.3784(8) 0.9067(6) 0.3683(4)
O9B O 0.4156(11) 0.9016(8) 0.4587(6)
O10B O 0.0580(8) 0.6873(5) 0.6735(4)
H3B H 0.0732 0.6884 0.6358
H4B H 0.0779 0.6635 0.6953
O11B O 0.1980(9) 0.8017(6) 0.7646(4)
H5B H 0.2448 0.8478 0.7674
H6B H 0.1822 0.7847 0.8027
O12B O 0.3912(10) 0.7629(7) 0.5304(6)
H7B H 0.4079 0.8124 0.5296
H8B H 0.3948 0.7413 0.5626
C1B C 0.1779(11) 0.8423(7) 0.5225(5)
H9B H 0.1833 0.8941 0.5101
C2B C 0.2577(13) 0.8498(9) 0.5081(5)
H10B H 0.2559 0.7991 0.5166
H11B H 0.2994 0.8915 0.5336
C3B C 0.2774(13) 0.8714(9) 0.4414(5)
H12B H 0.2771 0.9221 0.4351
C4B C 0.2126(15) 0.8096(10) 0.4000(6)
H13B H 0.2249 0.8321 0.3583
C5B C 0.1301(14) 0.7995(9) 0.4173(6)
H14B H 0.1302 0.8493 0.4081
H15B H 0.0885 0.7568 0.3924
C6B C 0.1101(11) 0.7795(7) 0.4830(5)
H16B H 0.0630 0.7858 0.4910
C7B C 0.1536(11) 0.8329(7) 0.5883(5)
C8B C 0.0850(11) 0.6946(7) 0.5000(5)
C9B C 0.3583(13) 0.8869(9) 0.4212(6)
C10B C 0.2115(17) 0.7329(11) 0.3976(8)
Gd2F Gd 0.51645(4) 0.95080(4) 0.37696(3)
Gd2G Gd 0.04920(4) 0.56566(6) 0.37696(3)
Gd2H Gd 0.43434(6) 0.48355(4) 0.37696(3)
O3C O 0.0267(6) 0.7451(6) 0.7933(4)
O3D O 0.2549(6) 0.2815(8) 0.7933(4)
O3E O 0.7185(8) 0.9733(6) 0.7933(4)
O6C O -0.0166(8) 0.8148(10) 0.6939(7)
O6D O 0.1852(10) 0.1685(13) 0.6939(7)
O6E O 0.8315(13) 1.0166(8) 0.6939(7)
O7C O 0.7600(6) 0.8050(6) 0.7016(4)
O7D O 0.1950(6) 0.9549(8) 0.7016(4)
O7E O 0.0451(8) 0.2400(6) 0.7016(4)
O9C O 0.7651(8) 0.8473(8) 0.7920(6)
O9D O 0.1527(8) 0.9177(11) 0.7920(6)
O9E O 0.0823(11) 0.2349(8) 0.7920(6)
O14? O 0.1542(19) 0.5452(19) 0.4472(13)
loop_
_geom_bond_atom_site_label_1
_geom_bond_atom_site_label_2
_geom_bond_site_symmetry_1
_geom_bond_site_symmetry_2
Gd1 O5 1_555 1_555
Gd2 O1 1_555 1_555
O1 C7 1_555 1_555
O2 Gd2 1_555 1_555
O3 C8 1_555 1_555
O4 C8 1_555 1_555
O5 C10 1_555 1_555
O6 C10 1_555 1_555
O7 C9 1_555 1_555
O8 Gd1 1_555 1_555
H1 O8 1_555 1_555
H2 O8 1_555 1_555
O9 C9 1_555 1_555
O10 Gd2 1_555 1_555
H3 O10 1_555 1_555
H4 O10 1_555 1_555
O11 Gd2 1_555 1_555
H5 O11 1_555 1_555
H6 O11 1_555 1_555
O12 Gd1 1_555 1_555
H7 O12 1_555 1_555
H8 O12 1_555 1_555
C1 H9 1_555 1_555
C2 C1 1_555 1_555
H10 C2 1_555 1_555
H11 C2 1_555 1_555
C3 C2 1_555 1_555
H12 C3 1_555 1_555
C4 C3 1_555 1_555
H13 C4 1_555 1_555
C5 C4 1_555 1_555
H14 C5 1_555 1_555
H15 C5 1_555 1_555
C6 C1 1_555 1_555
H16 C6 1_555 1_555
C7 O2 1_555 1_555
C8 C6 1_555 1_555
C9 C3 1_555 1_555
C10 C4 1_555 1_555
O13 H17 1_555 1_555
H18 O13 1_555 1_555
O8A Gd1 1_555 1_555
H1A O8A 1_555 1_555
O8B Gd1 1_555 1_555
H1B O8B 1_555 1_555
Gd1A Gd1 1_555 1_555
Gd2A O1A 1_555 1_555
O1A C7A 1_555 1_555
O2A Gd2A 1_555 1_555
O3A C8A 1_555 1_555
O4A C8A 1_555 1_555
O5A Gd1 1_555 1_555
O6A C10A 1_555 1_555
O7A C9A 1_555 1_555
O9A C9A 1_555 1_555
O10A Gd2A 1_555 1_555
H3A O10A 1_555 1_555
H4A O10A 1_555 1_555
O11A Gd2A 1_555 1_555
H5A O11A 1_555 1_555
H6A O11A 1_555 1_555
O12A Gd1 1_555 1_555
H7A O12A 1_555 1_555
H8A O12A 1_555 1_555
C1A H9A 1_555 1_555
C2A C1A 1_555 1_555
H10A C2A 1_555 1_555
H11A C2A 1_555 1_555
C3A C2A 1_555 1_555
H12A C3A 1_555 1_555
C4A C3A 1_555 1_555
H13A C4A 1_555 1_555
C5A C4A 1_555 1_555
H14A C5A 1_555 1_555
H15A C5A 1_555 1_555
C6A C1A 1_555 1_555
H16A C6A 1_555 1_555
C7A O2A 1_555 1_555
C8A C6A 1_555 1_555
C9A C3A 1_555 1_555
C10A O5A 1_555 1_555
Gd1B Gd1 1_555 1_555
Gd2B O1B 1_555 1_555
O1B C7B 1_555 1_555
O2B Gd2B 1_555 1_555
O3B C8B 1_555 1_555
O4B C8B 1_555 1_555
O5B Gd1 1_555 1_555
O6B C10B 1_555 1_555
O7B C9B 1_555 1_555
O9B C9B 1_555 1_555
O10B Gd2B 1_555 1_555
H3B O10B 1_555 1_555
H4B O10B 1_555 1_555
O11B Gd2B 1_555 1_555
H5B O11B 1_555 1_555
H6B O11B 1_555 1_555
O12B Gd1 1_555 1_555
H7B O12B 1_555 1_555
H8B O12B 1_555 1_555
C1B H9B 1_555 1_555
C2B C1B 1_555 1_555
H10B C2B 1_555 1_555
H11B C2B 1_555 1_555
C3B C2B 1_555 1_555
H12B C3B 1_555 1_555
C4B C3B 1_555 1_555
H13B C4B 1_555 1_555
C5B C4B 1_555 1_555
H14B C5B 1_555 1_555
H15B C5B 1_555 1_555
C6B C1B 1_555 1_555
H16B C6B 1_555 1_555
C7B O2B 1_555 1_555
C8B C6B 1_555 1_555
C9B C3B 1_555 1_555
C10B O5B 1_555 1_555
Gd2F O3A 1_555 1_555
Gd2G O7 1_555 1_555
Gd2H O3 1_555 1_555
O3C Gd2B 1_555 1_555
O3D Gd2 1_555 1_555
O3E Gd2A 1_555 1_555
O6C Gd2B 1_555 1_555
O6D Gd2 1_555 1_555
O6E Gd2A 1_555 1_555
O7C Gd2A 1_555 1_555
O7D Gd2B 1_555 1_555
O7E Gd2 1_555 1_555
O9C Gd2A 1_555 1_555
O9D Gd2B 1_555 1_555
O9E Gd2 1_555 1_555
O5 Gd1A 1_555 1_555
O5 Gd1B 1_555 1_555
O6 Gd2H 1_555 1_555
O8 O8A 1_555 1_555
O8 O8B 1_555 1_555
O8 Gd1A 1_555 1_555
O8 Gd1B 1_555 1_555
H2 O8A 1_555 1_555
H2 O8B 1_555 1_555
O9 Gd2G 1_555 1_555
O12 Gd1A 1_555 1_555
O12 Gd1B 1_555 1_555
C1 C7 1_555 1_555
C5 C6 1_555 1_555
O8A O8B 1_555 1_555
O8A Gd1A 1_555 1_555
O8A Gd1B 1_555 1_555
O8B Gd1A 1_555 1_555
O8B Gd1B 1_555 1_555
Gd1A O5A 1_555 1_555
Gd1A O12A 1_555 1_555
Gd1A Gd1B 1_555 1_555
Gd1A O5B 1_555 1_555
Gd1A O12B 1_555 1_555
O5A Gd1B 1_555 1_555
O6A Gd2F 1_555 1_555
O7A Gd2H 1_555 1_555
O9A Gd2H 1_555 1_555
O12A Gd1B 1_555 1_555
C1A C7A 1_555 1_555
C4A C10A 1_555 1_555
C5A C6A 1_555 1_555
Gd1B O5B 1_555 1_555
Gd1B O12B 1_555 1_555
O3B Gd2G 1_555 1_555
O6B Gd2G 1_555 1_555
O7B Gd2F 1_555 1_555
O9B Gd2F 1_555 1_555
C1B C7B 1_555 1_555
C4B C10B 1_555 1_555
C5B C6B 1_555 1_555

#END
