
#######################################################################
#
#                 Cambridge Crystallographic Data Centre
#                                CCDC 
#
#######################################################################
#
# If this CIF has been generated from an entry in the Cambridge 
# Structural Database, then it will include bibliographic, chemical, 
# crystal, experimental, refinement or atomic coordinate data resulting 
# from the CCDC's data processing and validation procedures.
#
#######################################################################

data_UDISUX
_symmetry_cell_setting           rhombohedral
_symmetry_space_group_name_H-M   'R -3'
_symmetry_Int_Tables_number      148
_space_group_name_Hall           '-R 3'
loop_
_symmetry_equiv_pos_site_id
_symmetry_equiv_pos_as_xyz
1 x,y,z
2 -y,x-y,z
3 -x+y,-x,z
4 2/3+x,1/3+y,1/3+z
5 2/3-y,1/3+x-y,1/3+z
6 2/3-x+y,1/3-x,1/3+z
7 1/3+x,2/3+y,2/3+z
8 1/3-y,2/3+x-y,2/3+z
9 1/3-x+y,2/3-x,2/3+z
10 -x,-y,-z
11 y,-x+y,-z
12 x-y,x,-z
13 1/3-x,2/3-y,2/3-z
14 1/3+y,2/3-x+y,2/3-z
15 1/3+x-y,2/3+x,2/3-z
16 2/3-x,1/3-y,1/3-z
17 2/3+y,1/3-x+y,1/3-z
18 2/3+x-y,1/3+x,1/3-z
_cell_length_a                   19.388(7)
_cell_length_b                   19.388(7)
_cell_length_c                   21.844(8)
_cell_angle_alpha                90
_cell_angle_beta                 90
_cell_angle_gamma                120
_cell_volume                     7110.97
loop_
_atom_site_label
_atom_site_type_symbol
_atom_site_fract_x
_atom_site_fract_y
_atom_site_fract_z
Yb1 Yb 0.848262(16) 0.231176(16) 1.045009(12)
Yb2 Yb 1.0000 0.0000 0.78510(2)
O1 O 0.8313(3) 0.1323(3) 0.96483(19)
O2 O 0.8422(3) 0.2471(3) 0.93957(19)
O3 O 0.9900(3) 0.2386(3) 0.8896(2)
O4 O 1.0302(3) 0.2819(3) 0.79459(19)
O5 O 0.9320(3) 0.0579(3) 0.7608(2)
O6 O 0.9932(3) 0.1658(3) 0.7040(2)
O7 O 0.7643(3) -0.0442(3) 0.6983(2)
O8 O 0.7680(3) -0.0799(3) 0.79215(19)
O9 O 0.8678(3) 0.1395(3) 1.0940(2)
H1 H 0.894(3) 0.151(4) 1.127(2)
H2 H 0.827(3) 0.091(2) 1.097(3)
O10 O 0.9776(3) 0.2790(3) 1.0090(2)
H3 H 1.020(3) 0.288(5) 1.025(2)
H4 H 0.975(4) 0.279(5) 0.9720(13)
O11 O 0.9043(3) -0.0537(3) 0.8603(2)
H5 H 0.901(4) -0.073(5) 0.896(2)
H6 H 0.858(3) -0.065(5) 0.848(3)
O12 O 1.0000 0.0000 0.6793(4)
H7 H 1.0331 0.0558 0.6798
C1 C 0.8236(4) 0.1583(4) 0.8567(3)
H8 H 0.7728 0.1555 0.8439
C2 C 0.8901(4) 0.2250(4) 0.8171(3)
H9 H 0.8855 0.2735 0.8241
C3 C 0.8715(4) 0.2046(4) 0.7493(3)
H10 H 0.9165 0.2446 0.7245
H11 H 0.8236 0.2077 0.7384
C4 C 0.8569(4) 0.1208(4) 0.7333(3)
H12 H 0.8355 0.1092 0.6906
C5 C 0.7933(4) 0.0568(4) 0.7740(3)
H13 H 0.7433 0.0585 0.7665
C6 C 0.8130(4) 0.0756(4) 0.8431(3)
H14 H 0.7692 0.0348 0.8684
H15 H 0.8625 0.0751 0.8533
C7 C 0.8335(4) 0.1797(4) 0.9245(3)
C8 C 0.9760(4) 0.2489(4) 0.8350(3)
C9 C 0.9339(4) 0.1159(4) 0.7328(3)
C10 C 0.7761(4) -0.0260(4) 0.7539(3)
H7B H 1.0227 -0.0331 0.6798
Yb1A Yb 0.768824(16) -0.382914(23) 1.045009(12)
O1A O 0.8677(3) -0.3010(4) 0.96483(19)
O2A O 0.7529(3) -0.4049(4) 0.93957(19)
O3A O 0.7614(3) -0.2486(4) 0.8896(2)
O4A O 0.7181(3) -0.2517(4) 0.79459(19)
O5A O 0.9421(3) -0.1259(4) 0.7608(2)
O6A O 0.8342(3) -0.1726(4) 0.7040(2)
O7A O 1.0442(3) -0.1915(4) 0.6983(2)
O8A O 1.0799(3) -0.1521(4) 0.79215(19)
O9A O 0.8605(3) -0.2717(4) 1.0940(2)
H1A H 0.849(4) -0.257(5) 1.127(2)
H2A H 0.909(2) -0.264(4) 1.097(3)
O10A O 0.7210(3) -0.3014(4) 1.0090(2)
H3A H 0.712(5) -0.268(6) 1.025(2)
H4A H 0.721(5) -0.304(6) 0.9720(13)
O11A O 1.0537(3) -0.0420(4) 0.8603(2)
H5A H 1.073(5) -0.026(6) 0.896(2)
H6A H 1.065(5) -0.077(6) 0.848(3)
C1A C 0.8417(4) -0.3347(6) 0.8567(3)
H8A H 0.8445 -0.3827 0.8439
C2A C 0.7750(4) -0.3349(6) 0.8171(3)
H9A H 0.7265 -0.3880 0.8241
C3A C 0.7954(4) -0.3331(6) 0.7493(3)
H10A H 0.7554 -0.3281 0.7245
H11A H 0.7923 -0.3841 0.7384
C4A C 0.8792(4) -0.2639(6) 0.7333(3)
H12A H 0.8908 -0.2737 0.6906
C5A C 0.9432(4) -0.2635(6) 0.7740(3)
H13A H 0.9415 -0.3152 0.7665
C6A C 0.9244(4) -0.2626(6) 0.8431(3)
H14A H 0.9652 -0.2656 0.8684
H15A H 0.9249 -0.2126 0.8533
C7A C 0.8203(4) -0.3462(6) 0.9245(3)
C8A C 0.7511(4) -0.2729(6) 0.8350(3)
C9A C 0.8841(4) -0.1820(6) 0.7328(3)
C10A C 1.0260(4) -0.1979(6) 0.7539(3)
Yb1B Yb 1.382914(23) 0.151738(16) 1.045009(12)
O1B O 1.3010(4) 0.1687(3) 0.96483(19)
O2B O 1.4049(4) 0.1578(3) 0.93957(19)
O3B O 1.2486(4) 0.0100(3) 0.8896(2)
O4B O 1.2517(4) -0.0302(3) 0.79459(19)
O5B O 1.1259(4) 0.0680(3) 0.7608(2)
O6B O 1.1726(4) 0.0068(3) 0.7040(2)
O7B O 1.1915(4) 0.2357(3) 0.6983(2)
O8B O 1.1521(4) 0.2320(3) 0.79215(19)
O9B O 1.2717(4) 0.1322(3) 1.0940(2)
H1B H 1.257(5) 0.106(3) 1.127(2)
H2B H 1.264(4) 0.173(3) 1.097(3)
O10B O 1.3014(4) 0.0224(3) 1.0090(2)
H3B H 1.268(6) -0.020(3) 1.025(2)
H4B H 1.304(6) 0.025(4) 0.9720(13)
O11B O 1.0420(4) 0.0957(3) 0.8603(2)
H5B H 1.026(6) 0.099(4) 0.896(2)
H6B H 1.077(6) 0.142(3) 0.848(3)
C1B C 1.3347(6) 0.1764(4) 0.8567(3)
H8B H 1.3827 0.2272 0.8439
C2B C 1.3349(6) 0.1099(4) 0.8171(3)
H9B H 1.3880 0.1145 0.8241
C3B C 1.3331(6) 0.1285(4) 0.7493(3)
H10B H 1.3281 0.0835 0.7245
H11B H 1.3841 0.1764 0.7384
C4B C 1.2639(6) 0.1431(4) 0.7333(3)
H12B H 1.2737 0.1645 0.6906
C5B C 1.2635(6) 0.2067(4) 0.7740(3)
H13B H 1.3152 0.2567 0.7665
C6B C 1.2626(6) 0.1870(4) 0.8431(3)
H14B H 1.2656 0.2308 0.8684
H15B H 1.2126 0.1375 0.8533
C7B C 1.3462(6) 0.1665(4) 0.9245(3)
C8B C 1.2729(6) 0.0240(4) 0.8350(3)
C9B C 1.1820(6) 0.0661(4) 0.7328(3)
C10B C 1.1979(6) 0.2239(4) 0.7539(3)
Yb1F Yb 1.181595(16) -0.102157(16) 0.711676(12)
Yb1G Yb 1.102157(16) 0.283753(23) 0.711676(12)
Yb1H Yb 0.716247(23) -0.181595(16) 0.711676(12)
O4C O 0.6969(3) -0.3848(3) 1.12792(19)
O4D O 1.3848(3) 0.0816(4) 1.12792(19)
O4E O 0.9184(4) 0.3031(3) 1.12792(19)
O6C O 0.6599(3) -0.5009(3) 1.0373(2)
O6D O 1.5009(3) 0.1607(4) 1.0373(2)
O6E O 0.8393(4) 0.3401(3) 1.0373(2)
O7C O 1.4310(3) 0.2891(3) 1.0316(2)
O7D O 0.7109(3) 0.1418(4) 1.0316(2)
O7E O 0.8582(4) -0.4310(3) 1.0316(2)
O8C O 1.4347(3) 0.2534(3) 1.12548(19)
O8D O 0.7466(3) 0.1812(4) 1.12548(19)
O8E O 0.8188(4) -0.4347(3) 1.12548(19)
O13 O 0.9553(3) 0.0891(3) 0.9646(2)
H16 H 0.922(4) 0.045(3) 0.981(4)
H17 H 0.934(4) 0.118(4) 0.960(4)
loop_
_geom_bond_atom_site_label_1
_geom_bond_atom_site_label_2
_geom_bond_site_symmetry_1
_geom_bond_site_symmetry_2
Yb1 O1 1_555 1_555
Yb2 O5 1_555 1_555
O1 C7 1_555 1_555
O2 Yb1 1_555 1_555
O3 C8 1_555 1_555
O4 C8 1_555 1_555
O5 C9 1_555 1_555
O6 C9 1_555 1_555
O7 C10 1_555 1_555
O8 C10 1_555 1_555
O9 Yb1 1_555 1_555
H1 O9 1_555 1_555
H2 O9 1_555 1_555
O10 Yb1 1_555 1_555
H3 O10 1_555 1_555
H4 O10 1_555 1_555
O11 Yb2 1_555 1_555
H5 O11 1_555 1_555
H6 O11 1_555 1_555
O12 Yb2 1_555 1_555
H7 O12 1_555 1_555
C1 H8 1_555 1_555
C2 C1 1_555 1_555
H9 C2 1_555 1_555
C3 C2 1_555 1_555
H10 C3 1_555 1_555
H11 C3 1_555 1_555
C4 C3 1_555 1_555
H12 C4 1_555 1_555
C5 C4 1_555 1_555
H13 C5 1_555 1_555
C6 C1 1_555 1_555
H14 C6 1_555 1_555
H15 C6 1_555 1_555
C7 O2 1_555 1_555
C8 C2 1_555 1_555
C9 C4 1_555 1_555
C10 C5 1_555 1_555
O13 H16 1_555 1_555
H17 O13 1_555 1_555
H7B O12 1_555 1_555
Yb1A O1A 1_555 1_555
O1A C7A 1_555 1_555
O2A Yb1A 1_555 1_555
O3A C8A 1_555 1_555
O4A C8A 1_555 1_555
O5A Yb2 1_555 1_555
O6A C9A 1_555 1_555
O7A C10A 1_555 1_555
O8A C10A 1_555 1_555
O9A Yb1A 1_555 1_555
H1A O9A 1_555 1_555
H2A O9A 1_555 1_555
O10A Yb1A 1_555 1_555
H3A O10A 1_555 1_555
H4A O10A 1_555 1_555
O11A Yb2 1_555 1_555
H5A O11A 1_555 1_555
H6A O11A 1_555 1_555
C1A H8A 1_555 1_555
C2A C1A 1_555 1_555
H9A C2A 1_555 1_555
C3A C2A 1_555 1_555
H10A C3A 1_555 1_555
H11A C3A 1_555 1_555
C4A C3A 1_555 1_555
H12A C4A 1_555 1_555
C5A C4A 1_555 1_555
H13A C5A 1_555 1_555
C6A C1A 1_555 1_555
H14A C6A 1_555 1_555
H15A C6A 1_555 1_555
C7A O2A 1_555 1_555
C8A C2A 1_555 1_555
C9A O5A 1_555 1_555
C10A C5A 1_555 1_555
Yb1B O1B 1_555 1_555
O1B C7B 1_555 1_555
O2B Yb1B 1_555 1_555
O3B C8B 1_555 1_555
O4B C8B 1_555 1_555
O5B Yb2 1_555 1_555
O6B C9B 1_555 1_555
O7B C10B 1_555 1_555
O8B C10B 1_555 1_555
O9B Yb1B 1_555 1_555
H1B O9B 1_555 1_555
H2B O9B 1_555 1_555
O10B Yb1B 1_555 1_555
H3B O10B 1_555 1_555
H4B O10B 1_555 1_555
O11B Yb2 1_555 1_555
H5B O11B 1_555 1_555
H6B O11B 1_555 1_555
C1B H8B 1_555 1_555
C2B C1B 1_555 1_555
H9B C2B 1_555 1_555
C3B C2B 1_555 1_555
H10B C3B 1_555 1_555
H11B C3B 1_555 1_555
C4B C3B 1_555 1_555
H12B C4B 1_555 1_555
C5B C4B 1_555 1_555
H13B C5B 1_555 1_555
C6B C1B 1_555 1_555
H14B C6B 1_555 1_555
H15B C6B 1_555 1_555
C7B O2B 1_555 1_555
C8B C2B 1_555 1_555
C9B O5B 1_555 1_555
C10B C5B 1_555 1_555
Yb1F O7A 1_555 1_555
Yb1G O4 1_555 1_555
Yb1H O7 1_555 1_555
O4C Yb1A 1_555 1_555
O4D Yb1B 1_555 1_555
O4E Yb1 1_555 1_555
O6C Yb1A 1_555 1_555
O6D Yb1B 1_555 1_555
O6E Yb1 1_555 1_555
O7C Yb1B 1_555 1_555
O7D Yb1 1_555 1_555
O7E Yb1A 1_555 1_555
O8C Yb1B 1_555 1_555
O8D Yb1 1_555 1_555
O8E Yb1A 1_555 1_555
O6 Yb1G 1_555 1_555
O8 Yb1H 1_555 1_555
C1 C7 1_555 1_555
C5 C6 1_555 1_555
O4A Yb1H 1_555 1_555
O6A Yb1H 1_555 1_555
O8A Yb1F 1_555 1_555
C1A C7A 1_555 1_555
C4A C9A 1_555 1_555
C5A C6A 1_555 1_555
O4B Yb1F 1_555 1_555
O6B Yb1F 1_555 1_555
O7B Yb1G 1_555 1_555
O8B Yb1G 1_555 1_555
C1B C7B 1_555 1_555
C4B C9B 1_555 1_555
C5B C6B 1_555 1_555

#END
