
#######################################################################
#
#                 Cambridge Crystallographic Data Centre
#                                CCDC 
#
#######################################################################
#
# If this CIF has been generated from an entry in the Cambridge 
# Structural Database, then it will include bibliographic, chemical, 
# crystal, experimental, refinement or atomic coordinate data resulting 
# from the CCDC's data processing and validation procedures.
#
#######################################################################

data_UDITEI
_symmetry_cell_setting           rhombohedral
_symmetry_space_group_name_H-M   'R -3'
_symmetry_Int_Tables_number      148
_space_group_name_Hall           '-R 3'
loop_
_symmetry_equiv_pos_site_id
_symmetry_equiv_pos_as_xyz
1 x,y,z
2 -y,x-y,z
3 -x+y,-x,z
4 2/3+x,1/3+y,1/3+z
5 2/3-y,1/3+x-y,1/3+z
6 2/3-x+y,1/3-x,1/3+z
7 1/3+x,2/3+y,2/3+z
8 1/3-y,2/3+x-y,2/3+z
9 1/3-x+y,2/3-x,2/3+z
10 -x,-y,-z
11 y,-x+y,-z
12 x-y,x,-z
13 1/3-x,2/3-y,2/3-z
14 1/3+y,2/3-x+y,2/3-z
15 1/3+x-y,2/3+x,2/3-z
16 2/3-x,1/3-y,1/3-z
17 2/3+y,1/3-x+y,1/3-z
18 2/3+x-y,1/3+x,1/3-z
_cell_length_a                   19.380(3)
_cell_length_b                   19.380(3)
_cell_length_c                   21.892(4)
_cell_angle_alpha                90
_cell_angle_beta                 90
_cell_angle_gamma                120
_cell_volume                     7120.72
loop_
_atom_site_label
_atom_site_type_symbol
_atom_site_fract_x
_atom_site_fract_y
_atom_site_fract_z
Ho1 Ho 0.848287(12) 0.231231(12) 1.044889(9)
Ho2 Ho 1.0000 0.0000 0.786153(19)
O1 O 0.83089(18) 0.13215(19) 0.96426(13)
O2 O 0.84166(19) 0.24639(19) 0.93862(14)
O3 O 0.98865(19) 0.2377(2) 0.88905(14)
O4 O 1.02884(19) 0.28138(19) 0.79480(14)
O5 O 0.9325(2) 0.0599(3) 0.76152(18)
O6 O 0.9913(2) 0.1658(2) 0.70237(17)
O7 O 0.7650(2) -0.0430(2) 0.69841(14)
O8 O 0.7685(2) -0.0789(2) 0.79199(14)
O9 O 0.8676(2) 0.1380(2) 1.09534(14)
H1 H 0.897(3) 0.155(4) 1.126(2)
H2 H 0.829(2) 0.092(2) 1.099(2)
O10 O 0.97823(19) 0.2776(2) 1.00819(15)
H3 H 1.024(2) 0.292(4) 1.024(2)
H4 H 0.977(3) 0.271(4) 0.9705(13)
O11 O 0.9042(2) -0.0557(2) 0.86346(19)
H5 H 0.907(4) -0.080(4) 0.894(3)
H6 H 0.858(3) -0.066(5) 0.854(3)
O12 O 1.0000 0.0000 0.6789(3)
H7 H 1.0331 0.0558 0.6794
C1 C 0.8233(3) 0.1575(3) 0.85656(19)
H8 H 0.7722 0.1544 0.8438
C2 C 0.8893(3) 0.2248(3) 0.81695(19)
H9 H 0.8845 0.2732 0.8239
C3 C 0.8705(3) 0.2035(3) 0.74950(19)
H10 H 0.9152 0.2437 0.7246
H11 H 0.8223 0.2062 0.7386
C4 C 0.8566(3) 0.1206(3) 0.73343(19)
H12 H 0.8348 0.1088 0.6909
C5 C 0.7931(3) 0.0561(3) 0.77464(19)
H13 H 0.7429 0.0576 0.7673
C6 C 0.8132(3) 0.0757(3) 0.84249(19)
H14 H 0.7698 0.0347 0.8679
H15 H 0.8630 0.0757 0.8523
C7 C 0.8330(3) 0.1794(3) 0.92335(19)
C8 C 0.9747(3) 0.2480(3) 0.83485(19)
C9 C 0.9325(3) 0.1163(3) 0.7326(2)
C10 C 0.7761(3) -0.0258(3) 0.7542(2)
H7B H 1.0227 -0.0331 0.6794
Ho1A Ho 0.768769(12) -0.382944(17) 1.044889(9)
O1A O 0.86785(19) -0.30126(26) 0.96426(13)
O2A O 0.75361(19) -0.40473(27) 0.93862(14)
O3A O 0.7623(2) -0.24905(28) 0.88905(14)
O4A O 0.71862(19) -0.25254(27) 0.79480(14)
O5A O 0.9401(3) -0.1274(4) 0.76152(18)
O6A O 0.8342(2) -0.1745(3) 0.70237(17)
O7A O 1.0430(2) -0.1920(3) 0.69841(14)
O8A O 1.0789(2) -0.1526(3) 0.79199(14)
O9A O 0.8620(2) -0.2704(3) 1.09534(14)
H1A H 0.845(4) -0.258(5) 1.126(2)
H2A H 0.908(2) -0.263(3) 1.099(2)
O10A O 0.7224(2) -0.29937(28) 1.00819(15)
H3A H 0.708(4) -0.268(4) 1.024(2)
H4A H 0.729(4) -0.294(5) 0.9705(13)
O11A O 1.0557(2) -0.0401(3) 0.86346(19)
H5A H 1.080(4) -0.013(6) 0.894(3)
H6A H 1.066(5) -0.076(6) 0.854(3)
C1A C 0.8425(3) -0.3342(4) 0.85656(19)
H8A H 0.8456 -0.3822 0.8438
C2A C 0.7752(3) -0.3355(4) 0.81695(19)
H9A H 0.7268 -0.3887 0.8239
C3A C 0.7965(3) -0.3330(4) 0.74950(19)
H10A H 0.7563 -0.3285 0.7246
H11A H 0.7938 -0.3839 0.7386
C4A C 0.8794(3) -0.2640(4) 0.73343(19)
H12A H 0.8912 -0.2740 0.6909
C5A C 0.9439(3) -0.2630(4) 0.77464(19)
H13A H 0.9424 -0.3147 0.7673
C6A C 0.9243(3) -0.2625(4) 0.84249(19)
H14A H 0.9653 -0.2649 0.8679
H15A H 0.9243 -0.2127 0.8523
C7A C 0.8206(3) -0.3464(4) 0.92335(19)
C8A C 0.7520(3) -0.2733(4) 0.83485(19)
C9A C 0.8837(3) -0.1838(4) 0.7326(2)
C10A C 1.0258(3) -0.1981(4) 0.7542(2)
Ho1B Ho 1.382944(17) 0.151713(12) 1.044889(9)
O1B O 1.30126(26) 0.16911(18) 0.96426(13)
O2B O 1.40473(27) 0.15834(19) 0.93862(14)
O3B O 1.24905(28) 0.01135(19) 0.88905(14)
O4B O 1.25254(27) -0.02884(19) 0.79480(14)
O5B O 1.1274(4) 0.0675(2) 0.76152(18)
O6B O 1.1745(3) 0.0087(2) 0.70237(17)
O7B O 1.1920(3) 0.2350(2) 0.69841(14)
O8B O 1.1526(3) 0.2315(2) 0.79199(14)
O9B O 1.2704(3) 0.1324(2) 1.09534(14)
H1B H 1.258(5) 0.103(3) 1.126(2)
H2B H 1.263(3) 0.171(2) 1.099(2)
O10B O 1.29937(28) 0.02177(19) 1.00819(15)
H3B H 1.268(4) -0.024(2) 1.024(2)
H4B H 1.294(5) 0.023(3) 0.9705(13)
O11B O 1.0401(3) 0.0958(2) 0.86346(19)
H5B H 1.013(6) 0.093(4) 0.894(3)
H6B H 1.076(6) 0.142(3) 0.854(3)
C1B C 1.3342(4) 0.1767(3) 0.85656(19)
H8B H 1.3822 0.2278 0.8438
C2B C 1.3355(4) 0.1107(3) 0.81695(19)
H9B H 1.3887 0.1155 0.8239
C3B C 1.3330(4) 0.1295(3) 0.74950(19)
H10B H 1.3285 0.0848 0.7246
H11B H 1.3839 0.1777 0.7386
C4B C 1.2640(4) 0.1434(3) 0.73343(19)
H12B H 1.2740 0.1652 0.6909
C5B C 1.2630(4) 0.2069(3) 0.77464(19)
H13B H 1.3147 0.2571 0.7673
C6B C 1.2625(4) 0.1868(3) 0.84249(19)
H14B H 1.2649 0.2302 0.8679
H15B H 1.2127 0.1370 0.8523
C7B C 1.3464(4) 0.1670(3) 0.92335(19)
C8B C 1.2733(4) 0.0253(3) 0.83485(19)
C9B C 1.1838(4) 0.0675(3) 0.7326(2)
C10B C 1.1981(4) 0.2239(3) 0.7542(2)
Ho1F Ho 1.181620(12) -0.102102(12) 0.711556(9)
Ho1G Ho 1.102102(12) 0.283723(17) 0.711556(9)
Ho1H Ho 0.716277(17) -0.181620(12) 0.711556(9)
O4C O 0.69551(19) -0.38529(19) 1.12813(14)
O4D O 1.38529(19) 0.08079(27) 1.12813(14)
O4E O 0.91921(27) 0.30449(19) 1.12813(14)
O6C O 0.6580(2) -0.5009(2) 1.03570(17)
O6D O 1.5009(2) 0.1588(3) 1.03570(17)
O6E O 0.8412(3) 0.3420(2) 1.03570(17)
O7C O 1.4317(2) 0.2903(2) 1.03174(14)
O7D O 0.7097(2) 0.1413(3) 1.03174(14)
O7E O 0.8587(3) -0.4317(2) 1.03174(14)
O8C O 1.4352(2) 0.2544(2) 1.12532(14)
O8D O 0.7456(2) 0.1807(3) 1.12532(14)
O8E O 0.8193(3) -0.4352(2) 1.12532(14)
O13 O 0.9508(2) 0.0860(2) 0.96525(18)
H16 H 0.921(4) 0.044(3) 0.985(3)
H17 H 0.930(4) 0.114(3) 0.961(3)
loop_
_geom_bond_atom_site_label_1
_geom_bond_atom_site_label_2
_geom_bond_site_symmetry_1
_geom_bond_site_symmetry_2
Ho1 O1 1_555 1_555
Ho2 O5 1_555 1_555
O1 C7 1_555 1_555
O2 Ho1 1_555 1_555
O3 C8 1_555 1_555
O4 C8 1_555 1_555
O5 C9 1_555 1_555
O6 C9 1_555 1_555
O7 C10 1_555 1_555
O8 C10 1_555 1_555
O9 Ho1 1_555 1_555
H1 O9 1_555 1_555
H2 O9 1_555 1_555
O10 Ho1 1_555 1_555
H3 O10 1_555 1_555
H4 O10 1_555 1_555
O11 Ho2 1_555 1_555
H5 O11 1_555 1_555
H6 O11 1_555 1_555
O12 Ho2 1_555 1_555
H7 O12 1_555 1_555
C1 H8 1_555 1_555
C2 C1 1_555 1_555
H9 C2 1_555 1_555
C3 C2 1_555 1_555
H10 C3 1_555 1_555
H11 C3 1_555 1_555
C4 C3 1_555 1_555
H12 C4 1_555 1_555
C5 C4 1_555 1_555
H13 C5 1_555 1_555
C6 C1 1_555 1_555
H14 C6 1_555 1_555
H15 C6 1_555 1_555
C7 O2 1_555 1_555
C8 C2 1_555 1_555
C9 C4 1_555 1_555
C10 C5 1_555 1_555
O13 H16 1_555 1_555
H17 O13 1_555 1_555
H7B O12 1_555 1_555
Ho1A O1A 1_555 1_555
O1A C7A 1_555 1_555
O2A Ho1A 1_555 1_555
O3A C8A 1_555 1_555
O4A C8A 1_555 1_555
O5A Ho2 1_555 1_555
O6A C9A 1_555 1_555
O7A C10A 1_555 1_555
O8A C10A 1_555 1_555
O9A Ho1A 1_555 1_555
H1A O9A 1_555 1_555
H2A O9A 1_555 1_555
O10A Ho1A 1_555 1_555
H3A O10A 1_555 1_555
H4A O10A 1_555 1_555
O11A Ho2 1_555 1_555
H5A O11A 1_555 1_555
H6A O11A 1_555 1_555
C1A H8A 1_555 1_555
C2A C1A 1_555 1_555
H9A C2A 1_555 1_555
C3A C2A 1_555 1_555
H10A C3A 1_555 1_555
H11A C3A 1_555 1_555
C4A C3A 1_555 1_555
H12A C4A 1_555 1_555
C5A C4A 1_555 1_555
H13A C5A 1_555 1_555
C6A C1A 1_555 1_555
H14A C6A 1_555 1_555
H15A C6A 1_555 1_555
C7A O2A 1_555 1_555
C8A C2A 1_555 1_555
C9A O5A 1_555 1_555
C10A C5A 1_555 1_555
Ho1B O1B 1_555 1_555
O1B C7B 1_555 1_555
O2B Ho1B 1_555 1_555
O3B C8B 1_555 1_555
O4B C8B 1_555 1_555
O5B Ho2 1_555 1_555
O6B C9B 1_555 1_555
O7B C10B 1_555 1_555
O8B C10B 1_555 1_555
O9B Ho1B 1_555 1_555
H1B O9B 1_555 1_555
H2B O9B 1_555 1_555
O10B Ho1B 1_555 1_555
H3B O10B 1_555 1_555
H4B O10B 1_555 1_555
O11B Ho2 1_555 1_555
H5B O11B 1_555 1_555
H6B O11B 1_555 1_555
C1B H8B 1_555 1_555
C2B C1B 1_555 1_555
H9B C2B 1_555 1_555
C3B C2B 1_555 1_555
H10B C3B 1_555 1_555
H11B C3B 1_555 1_555
C4B C3B 1_555 1_555
H12B C4B 1_555 1_555
C5B C4B 1_555 1_555
H13B C5B 1_555 1_555
C6B C1B 1_555 1_555
H14B C6B 1_555 1_555
H15B C6B 1_555 1_555
C7B O2B 1_555 1_555
C8B C2B 1_555 1_555
C9B O5B 1_555 1_555
C10B C5B 1_555 1_555
Ho1F O7A 1_555 1_555
Ho1G O4 1_555 1_555
Ho1H O7 1_555 1_555
O4C Ho1A 1_555 1_555
O4D Ho1B 1_555 1_555
O4E Ho1 1_555 1_555
O6C Ho1A 1_555 1_555
O6D Ho1B 1_555 1_555
O6E Ho1 1_555 1_555
O7C Ho1B 1_555 1_555
O7D Ho1 1_555 1_555
O7E Ho1A 1_555 1_555
O8C Ho1B 1_555 1_555
O8D Ho1 1_555 1_555
O8E Ho1A 1_555 1_555
O6 Ho1G 1_555 1_555
O8 Ho1H 1_555 1_555
C1 C7 1_555 1_555
C5 C6 1_555 1_555
O4A Ho1H 1_555 1_555
O6A Ho1H 1_555 1_555
O8A Ho1F 1_555 1_555
C1A C7A 1_555 1_555
C4A C9A 1_555 1_555
C5A C6A 1_555 1_555
O4B Ho1F 1_555 1_555
O6B Ho1F 1_555 1_555
O7B Ho1G 1_555 1_555
O8B Ho1G 1_555 1_555
C1B C7B 1_555 1_555
C4B C9B 1_555 1_555
C5B C6B 1_555 1_555

#END
