
#######################################################################
#
#                 Cambridge Crystallographic Data Centre
#                                CCDC 
#
#######################################################################
#
# If this CIF has been generated from an entry in the Cambridge 
# Structural Database, then it will include bibliographic, chemical, 
# crystal, experimental, refinement or atomic coordinate data resulting 
# from the CCDC's data processing and validation procedures.
#
#######################################################################

data_UDITAE
_symmetry_cell_setting           rhombohedral
_symmetry_space_group_name_H-M   'R -3'
_symmetry_Int_Tables_number      148
_space_group_name_Hall           '-R 3'
loop_
_symmetry_equiv_pos_site_id
_symmetry_equiv_pos_as_xyz
1 x,y,z
2 -y,x-y,z
3 -x+y,-x,z
4 2/3+x,1/3+y,1/3+z
5 2/3-y,1/3+x-y,1/3+z
6 2/3-x+y,1/3-x,1/3+z
7 1/3+x,2/3+y,2/3+z
8 1/3-y,2/3+x-y,2/3+z
9 1/3-x+y,2/3-x,2/3+z
10 -x,-y,-z
11 y,-x+y,-z
12 x-y,x,-z
13 1/3-x,2/3-y,2/3-z
14 1/3+y,2/3-x+y,2/3-z
15 1/3+x-y,2/3+x,2/3-z
16 2/3-x,1/3-y,1/3-z
17 2/3+y,1/3-x+y,1/3-z
18 2/3+x-y,1/3+x,1/3-z
_cell_length_a                   19.352(4)
_cell_length_b                   19.352(4)
_cell_length_c                   21.811(6)
_cell_angle_alpha                90
_cell_angle_beta                 90
_cell_angle_gamma                120
_cell_volume                     7073.88
loop_
_atom_site_label
_atom_site_type_symbol
_atom_site_fract_x
_atom_site_fract_y
_atom_site_fract_z
Tm1 Tm 0.848202(13) 0.617054(13) 0.044884(10)
Tm2 Tm 0.6667 0.3333 0.11828(2)
O1 O 0.9187(2) 0.6151(2) 0.12806(15)
O2 O 0.9155(2) 0.5716(2) 0.22264(15)
O3 O 0.8401(2) 0.4993(2) 0.03645(18)
O4 O 0.7935(2) 0.3917(2) 0.09402(19)
O5 O 0.8584(2) 0.2893(2) 0.03128(16)
O6 O 0.8191(2) 0.2539(2) 0.12521(16)
O7 O 0.9675(2) 0.4656(2) 0.29789(15)
O8 O 1.0710(2) 0.5798(2) 0.27254(16)
O9 O 0.9775(2) 0.6988(2) 0.00858(16)
H1 H 0.981(3) 0.707(3) -0.0299(6)
H2 H 1.0198(19) 0.734(2) 0.0261(18)
O10 O 0.8682(2) 0.7290(2) 0.09442(16)
H3 H 0.893(3) 0.738(3) 0.1285(12)
H4 H 0.829(2) 0.738(3) 0.097(2)
O11 O 0.6667 0.3333 0.0122(4)
O12 O 0.5714(2) 0.2922(2) 0.1941(2)
H5 H 0.5230(12) 0.257(3) 0.188(3)
H6 H 0.576(3) 0.320(3) 0.2257(19)
C1 C 1.0016(3) 0.5581(3) 0.1504(2)
H7 H 1.0539 0.6057 0.1572
C2 C 0.9996(3) 0.5368(3) 0.0827(2)
H8 H 1.0494 0.5391 0.0723
H9 H 0.9956 0.5765 0.0581
C3 C 0.9301(3) 0.4539(3) 0.0664(2)
H10 H 0.9397 0.4424 0.0245
C4 C 0.9292(3) 0.3892(3) 0.1076(2)
H11 H 0.9800 0.3908 0.1003
C5 C 0.9290(3) 0.4090(3) 0.1758(2)
H12 H 0.8800 0.4087 0.1857
H13 H 0.9315 0.3688 0.2008
C6 C 1.0007(3) 0.4912(3) 0.1899(2)
H14 H 1.0478 0.4883 0.1774
C7 C 0.9396(3) 0.5819(3) 0.1683(2)
C8 C 0.8486(3) 0.4486(3) 0.0661(2)
C9 C 0.8643(3) 0.3068(3) 0.0874(2)
C10 C 1.0125(3) 0.5125(3) 0.2569(2)
H15 H 0.621(2) 0.306(4) -0.005(3)
H15B H 0.685(4) 0.379(2) -0.005(3)
Tm1A Tm 0.382946(13) 0.231148(18) 0.044884(10)
O1A O 0.3849(2) 0.3036(3) 0.12806(15)
O2A O 0.4284(2) 0.3439(3) 0.22264(15)
O3A O 0.5007(2) 0.3408(3) 0.03645(18)
O4A O 0.6083(2) 0.4018(3) 0.09402(19)
O5A O 0.7107(2) 0.5691(3) 0.03128(16)
O6A O 0.7461(2) 0.5652(3) 0.12521(16)
O7A O 0.5344(2) 0.5019(3) 0.29789(15)
O8A O 0.4202(2) 0.4912(3) 0.27254(16)
O9A O 0.3012(2) 0.2787(3) 0.00858(16)
H1A H 0.293(3) 0.274(4) -0.0299(6)
H2A H 0.266(2) 0.2858(28) 0.0261(18)
O10A O 0.2710(2) 0.1392(3) 0.09442(16)
H3A H 0.262(3) 0.155(4) 0.1285(12)
H4A H 0.262(3) 0.091(4) 0.097(2)
O12A O 0.7078(2) 0.2792(3) 0.1941(2)
H5A H 0.743(3) 0.2660(32) 0.188(3)
H6A H 0.680(3) 0.256(4) 0.2257(19)
C1A C 0.4419(3) 0.4435(4) 0.1504(2)
H7A H 0.3943 0.4482 0.1572
C2A C 0.4632(3) 0.4628(4) 0.0827(2)
H8A H 0.4609 0.5103 0.0723
H9A H 0.4235 0.4191 0.0581
C3A C 0.5461(3) 0.4762(4) 0.0664(2)
H10A H 0.5576 0.4973 0.0245
C4A C 0.6108(3) 0.5400(4) 0.1076(2)
H11A H 0.6092 0.5892 0.1003
C5A C 0.5910(3) 0.5200(4) 0.1758(2)
H12A H 0.5913 0.4713 0.1857
H13A H 0.6312 0.5627 0.2008
C6A C 0.5088(3) 0.5095(4) 0.1899(2)
H14A H 0.5117 0.5595 0.1774
C7A C 0.4181(3) 0.3577(4) 0.1683(2)
C8A C 0.5514(3) 0.4000(4) 0.0661(2)
C9A C 0.6932(3) 0.5575(4) 0.0874(2)
C10A C 0.4875(3) 0.5000(4) 0.2569(2)
Tm1B Tm 0.768852(18) 0.151798(13) 0.044884(10)
O1B O 0.6964(3) 0.0813(2) 0.12806(15)
O2B O 0.6561(3) 0.0845(2) 0.22264(15)
O3B O 0.6592(3) 0.1599(2) 0.03645(18)
O4B O 0.5982(3) 0.2065(2) 0.09402(19)
O5B O 0.4309(3) 0.1416(2) 0.03128(16)
O6B O 0.4348(3) 0.1809(2) 0.12521(16)
O7B O 0.4981(3) 0.0325(2) 0.29789(15)
O8B O 0.5088(3) -0.0710(2) 0.27254(16)
O9B O 0.7213(3) 0.0225(2) 0.00858(16)
H1B H 0.726(4) 0.019(3) -0.0299(6)
H2B H 0.7142(28) -0.0198(19) 0.0261(18)
O10B O 0.8608(3) 0.1318(2) 0.09442(16)
H3B H 0.845(4) 0.107(3) 0.1285(12)
H4B H 0.909(4) 0.171(2) 0.097(2)
O12B O 0.7208(3) 0.4286(2) 0.1941(2)
H5B H 0.7340(32) 0.4770(12) 0.188(3)
H6B H 0.744(4) 0.424(3) 0.2257(19)
C1B C 0.5565(4) -0.0016(3) 0.1504(2)
H7B H 0.5518 -0.0539 0.1572
C2B C 0.5372(4) 0.0004(3) 0.0827(2)
H8B H 0.4897 -0.0494 0.0723
H9B H 0.5809 0.0044 0.0581
C3B C 0.5238(4) 0.0699(3) 0.0664(2)
H10B H 0.5027 0.0603 0.0245
C4B C 0.4600(4) 0.0708(3) 0.1076(2)
H11B H 0.4108 0.0200 0.1003
C5B C 0.4800(4) 0.0710(3) 0.1758(2)
H12B H 0.5287 0.1200 0.1857
H13B H 0.4373 0.0685 0.2008
C6B C 0.4905(4) -0.0007(3) 0.1899(2)
H14B H 0.4405 -0.0478 0.1774
C7B C 0.6423(4) 0.0604(3) 0.1683(2)
C8B C 0.6000(4) 0.1514(3) 0.0661(2)
C9B C 0.4425(4) 0.1357(3) 0.0874(2)
C10B C 0.5000(4) -0.0125(3) 0.2569(2)
Tm1C Tm 0.514869(13) -0.049613(13) 0.378217(10)
Tm1D Tm 1.049613(13) 0.564481(18) 0.378217(10)
Tm1E Tm 0.435519(18) 0.485131(13) 0.378217(10)
O7F O 0.3008(2) 0.1323(2) -0.03544(15)
O7G O 0.8677(2) 0.1686(3) -0.03544(15)
O7H O 0.8314(3) 0.6992(2) -0.03544(15)
O8F O 0.4043(2) 0.2465(2) -0.06079(16)
O8G O 0.7535(2) 0.1579(3) -0.06079(16)
O8H O 0.8421(3) 0.5957(2) -0.06079(16)
O13 O 0.8004(2) 0.4210(2) 0.29774(19)
H16 H 0.8505(9) 0.446(3) 0.292(3)
H17 H 0.785(3) 0.376(2) 0.315(3)
O14 O 1.2080(6) 0.6811(8) 0.2033(6)
O15? O 1.2272(10) 0.6248(12) 0.2459(9)
O16? O 1.2194(7) 0.5551(9) 0.2684(6)
loop_
_geom_bond_atom_site_label_1
_geom_bond_atom_site_label_2
_geom_bond_site_symmetry_1
_geom_bond_site_symmetry_2
Tm1 O1 1_555 1_555
Tm2 O4 1_555 1_555
O1 C7 1_555 1_555
O2 C7 1_555 1_555
O3 Tm1 1_555 1_555
O4 C8 1_555 1_555
O5 C9 1_555 1_555
O6 C9 1_555 1_555
O7 C10 1_555 1_555
O8 C10 1_555 1_555
O9 Tm1 1_555 1_555
H1 O9 1_555 1_555
H2 O9 1_555 1_555
O10 Tm1 1_555 1_555
H3 O10 1_555 1_555
H4 O10 1_555 1_555
O11 Tm2 1_555 1_555
O12 Tm2 1_555 1_555
H5 O12 1_555 1_555
H6 O12 1_555 1_555
C1 H7 1_555 1_555
C2 C1 1_555 1_555
H8 C2 1_555 1_555
H9 C2 1_555 1_555
C3 C2 1_555 1_555
H10 C3 1_555 1_555
C4 C3 1_555 1_555
H11 C4 1_555 1_555
C5 C4 1_555 1_555
H12 C5 1_555 1_555
H13 C5 1_555 1_555
C6 C1 1_555 1_555
H14 C6 1_555 1_555
C7 C1 1_555 1_555
C8 O3 1_555 1_555
C9 C4 1_555 1_555
C10 C6 1_555 1_555
H15 O11 1_555 1_555
O13 H16 1_555 1_555
H17 O13 1_555 1_555
H15B O11 1_555 1_555
Tm1A O1A 1_555 1_555
O1A C7A 1_555 1_555
O2A C7A 1_555 1_555
O3A Tm1A 1_555 1_555
O4A Tm2 1_555 1_555
O5A Tm1 1_555 1_555
O6A Tm1 1_555 1_555
O7A C10A 1_555 1_555
O8A C10A 1_555 1_555
O9A Tm1A 1_555 1_555
H1A O9A 1_555 1_555
H2A O9A 1_555 1_555
O10A Tm1A 1_555 1_555
H3A O10A 1_555 1_555
H4A O10A 1_555 1_555
O12A Tm2 1_555 1_555
H5A O12A 1_555 1_555
H6A O12A 1_555 1_555
C1A H7A 1_555 1_555
C2A C1A 1_555 1_555
H8A C2A 1_555 1_555
H9A C2A 1_555 1_555
C3A C2A 1_555 1_555
H10A C3A 1_555 1_555
C4A C3A 1_555 1_555
H11A C4A 1_555 1_555
C5A C4A 1_555 1_555
H12A C5A 1_555 1_555
H13A C5A 1_555 1_555
C6A C1A 1_555 1_555
H14A C6A 1_555 1_555
C7A C1A 1_555 1_555
C8A O3A 1_555 1_555
C9A O5A 1_555 1_555
C10A C6A 1_555 1_555
Tm1B O5 1_555 1_555
O1B Tm1B 1_555 1_555
O2B C7B 1_555 1_555
O3B Tm1B 1_555 1_555
O4B Tm2 1_555 1_555
O5B Tm1A 1_555 1_555
O6B Tm1A 1_555 1_555
O7B C10B 1_555 1_555
O8B C10B 1_555 1_555
O9B Tm1B 1_555 1_555
H1B O9B 1_555 1_555
H2B O9B 1_555 1_555
O10B Tm1B 1_555 1_555
H3B O10B 1_555 1_555
H4B O10B 1_555 1_555
O12B Tm2 1_555 1_555
H5B O12B 1_555 1_555
H6B O12B 1_555 1_555
C1B H7B 1_555 1_555
C2B C1B 1_555 1_555
H8B C2B 1_555 1_555
H9B C2B 1_555 1_555
C3B C2B 1_555 1_555
H10B C3B 1_555 1_555
C4B C3B 1_555 1_555
H11B C4B 1_555 1_555
C5B C4B 1_555 1_555
H12B C5B 1_555 1_555
H13B C5B 1_555 1_555
C6B C1B 1_555 1_555
H14B C6B 1_555 1_555
C7B O1B 1_555 1_555
C8B O3B 1_555 1_555
C9B O5B 1_555 1_555
C10B C6B 1_555 1_555
Tm1C O7B 1_555 1_555
Tm1D O7 1_555 1_555
Tm1E O7A 1_555 1_555
O7F Tm1A 1_555 1_555
O7G Tm1B 1_555 1_555
O7H Tm1 1_555 1_555
O8F Tm1A 1_555 1_555
O8G Tm1B 1_555 1_555
O8H Tm1 1_555 1_555
O6 Tm1B 1_555 1_555
O8 Tm1D 1_555 1_555
C3 C8 1_555 1_555
C5 C6 1_555 1_555
O4A C8A 1_555 1_555
O6A C9A 1_555 1_555
O8A Tm1E 1_555 1_555
C3A C8A 1_555 1_555
C4A C9A 1_555 1_555
C5A C6A 1_555 1_555
O4B C8B 1_555 1_555
O6B C9B 1_555 1_555
O8B Tm1C 1_555 1_555
C1B C7B 1_555 1_555
C3B C8B 1_555 1_555
C4B C9B 1_555 1_555
C5B C6B 1_555 1_555

#END
