
#######################################################################
#
#                 Cambridge Crystallographic Data Centre
#                                CCDC 
#
#######################################################################
#
# If this CIF has been generated from an entry in the Cambridge 
# Structural Database, then it will include bibliographic, chemical, 
# crystal, experimental, refinement or atomic coordinate data resulting 
# from the CCDC's data processing and validation procedures.
#
#######################################################################

data_UDOCAR
_symmetry_cell_setting           monoclinic
_symmetry_space_group_name_H-M   'P 21/m'
_symmetry_Int_Tables_number      11
_space_group_name_Hall           '-P 2yb'
loop_
_symmetry_equiv_pos_site_id
_symmetry_equiv_pos_as_xyz
1 x,y,z
2 x,1/2-y,z
3 -x,-y,-z
4 -x,1/2+y,-z
_cell_length_a                   7.6273(12)
_cell_length_b                   13.947(2)
_cell_length_c                   7.9549(13)
_cell_angle_alpha                90.00
_cell_angle_beta                 111.556(2)
_cell_angle_gamma                90.00
_cell_volume                     787.04
loop_
_atom_site_label
_atom_site_type_symbol
_atom_site_fract_x
_atom_site_fract_y
_atom_site_fract_z
Cu1 Cu 0.48476(14) 0.2500 0.30827(13)
Cl1 Cl 0.2970(3) 0.36660(12) 0.3519(2)
N1 N 0.7692(9) 0.2500 0.5766(9)
N2 N 0.6104(9) 0.2500 0.9659(9)
N3 N 0.6230(7) 0.3477(4) 1.2141(7)
C1 C 0.6007(12) 0.2500 0.7769(11)
H1 H 0.5300 0.3060 0.7168
H2 H 0.5300 0.1940 0.7168
C2 C 0.7864(11) 0.2500 0.7512(11)
C3 C 0.9605(12) 0.2500 0.8952(12)
H3 H 0.9668 0.2500 1.0142
C4 C 1.1243(12) 0.2500 0.8560(12)
H4 H 1.2423 0.2500 0.9487
C5 C 1.1089(12) 0.2500 0.6782(12)
H5 H 1.2166 0.2500 0.6495
C6 C 0.9319(12) 0.2500 0.5420(12)
H6 H 0.9236 0.2500 0.4224
C7 C 0.6494(8) 0.3392(4) 1.0566(7)
C8 C 0.7138(9) 0.4169(5) 0.9825(9)
H7 H 0.7208 0.4122 0.8685
C9 C 0.7667(10) 0.5005(5) 1.0827(10)
H8 H 0.8101 0.5527 1.0362
C10 C 0.7549(10) 0.5064(5) 1.2517(9)
H9 H 0.7984 0.5601 1.3243
C11 C 0.6764(9) 0.4298(5) 1.3090(9)
H10 H 0.6595 0.4352 1.4186
C7A C 0.6494(8) 0.1608(4) 1.0566(7)
N3A N 0.6230(7) 0.1523(4) 1.2141(7)
C11A C 0.6764(9) 0.0702(5) 1.3090(9)
C10A C 0.7549(10) -0.0064(5) 1.2517(9)
C9A C 0.7667(10) -0.0005(5) 1.0827(10)
C8A C 0.7138(9) 0.0831(5) 0.9825(9)
H7A H 0.7208 0.0878 0.8685
H8A H 0.8101 -0.0527 1.0362
H9A H 0.7984 -0.0601 1.3243
H10A H 0.6595 0.0648 1.4186
Cl1A Cl 0.2970(3) 0.13340(12) 0.3519(2)
N3_2 N 0.6230(7) 0.3477(4) 0.2141(7)
N3A_2 N 0.6230(7) 0.1523(4) 0.2141(7)
Cu1_2 Cu 0.48476(14) 0.2500 1.30827(13)
loop_
_geom_bond_atom_site_label_1
_geom_bond_atom_site_label_2
_geom_bond_site_symmetry_1
_geom_bond_site_symmetry_2
Cu1 Cl1 1_555 1_555
N1 Cu1 1_555 1_555
N2 C1 1_555 1_555
N3 C7 1_555 1_555
C1 H1 1_555 1_555
H2 C1 1_555 1_555
C2 N1 1_555 1_555
C3 C2 1_555 1_555
H3 C3 1_555 1_555
C4 C3 1_555 1_555
H4 C4 1_555 1_555
C5 C4 1_555 1_555
H5 C5 1_555 1_555
C6 N1 1_555 1_555
H6 C6 1_555 1_555
C7 N2 1_555 1_555
C8 C7 1_555 1_555
H7 C8 1_555 1_555
C9 C8 1_555 1_555
H8 C9 1_555 1_555
C10 C9 1_555 1_555
H9 C10 1_555 1_555
C11 N3 1_555 1_555
H10 C11 1_555 1_555
C7A N2 1_555 1_555
N3A C7A 1_555 1_555
C11A N3A 1_555 1_555
C10A C11A 1_555 1_555
C9A C10A 1_555 1_555
C8A C7A 1_555 1_555
H7A C8A 1_555 1_555
H8A C9A 1_555 1_555
H9A C10A 1_555 1_555
H10A C11A 1_555 1_555
Cl1A Cu1 1_555 1_555
N3_2 Cu1 1_555 1_555
N3A_2 Cu1 1_555 1_555
Cu1_2 N3 1_555 1_555
C1 C2 1_555 1_555
C5 C6 1_555 1_555
C10 C11 1_555 1_555
N3A Cu1_2 1_555 1_555
C9A C8A 1_555 1_555

#END
