
#######################################################################
#
#                 Cambridge Crystallographic Data Centre
#                                CCDC 
#
#######################################################################
#
# If this CIF has been generated from an entry in the Cambridge 
# Structural Database, then it will include bibliographic, chemical, 
# crystal, experimental, refinement or atomic coordinate data resulting 
# from the CCDC's data processing and validation procedures.
#
#######################################################################

data_UDOGEA
_symmetry_cell_setting           monoclinic
_symmetry_space_group_name_H-M   'C m'
_symmetry_Int_Tables_number      8
_space_group_name_Hall           'C -2y'
loop_
_symmetry_equiv_pos_site_id
_symmetry_equiv_pos_as_xyz
1 x,y,z
2 x,-y,z
3 1/2+x,1/2+y,z
4 1/2+x,1/2-y,z
_cell_length_a                   11.921(7)
_cell_length_b                   11.153(7)
_cell_length_c                   5.155(4)
_cell_angle_alpha                90
_cell_angle_beta                 113.38(3)
_cell_angle_gamma                90
_cell_volume                     629.108
loop_
_atom_site_label
_atom_site_type_symbol
_atom_site_fract_x
_atom_site_fract_y
_atom_site_fract_z
Cu1 Cu 0.12330(12) 0.0000 0.8313(2)
O1 O 0.2414(6) 0.0000 0.6550(19)
O2 O -0.0074(7) 0.0000 0.392(2)
O3 O 0.0081(7) 0.0000 0.0125(18)
O4 O 0.2567(6) 0.0000 0.2594(17)
C1 C 0.1932(9) 0.0000 0.4050(15)
C2 C 0.0493(7) 0.0000 0.261(2)
N1 N 0.1159(4) 0.18205(14) 0.8232(13)
C3 C 0.2262(3) 0.2436(3) 0.9350(10)
H1 H 0.2995 0.2014 1.0081
C4 C 0.2271(4) 0.3683(3) 0.9376(14)
H2 H 0.3009 0.4095 1.0125
C5 C 0.1176(6) 0.43131(14) 0.828(2)
C6 C 0.0072(4) 0.3697(4) 0.7166(16)
H3 H -0.0660 0.4119 0.6435
C7 C 0.0064(3) 0.2451(4) 0.7139(13)
H4 H -0.0674 0.2039 0.6391
Cu1_2 Cu 0.12330(12) 0.0000 -0.1687(2)
Cu1_3 Cu 0.12330(12) 1.0000 0.8313(2)
O3_2 O 0.0081(7) 0.0000 1.0125(18)
O4_2 O 0.2567(6) 0.0000 1.2594(17)
N1A N 0.1159(4) 0.81795(14) 0.8232(13)
N1A_2 N 0.1159(4) -0.18205(14) 0.8232(13)
C3A C 0.2262(3) 0.7564(3) 0.9350(10)
H1A H 0.2995 0.7986 1.0081
C4A C 0.2271(4) 0.6317(3) 0.9376(14)
H2A H 0.3009 0.5905 1.0125
C5A C 0.1176(6) 0.56869(14) 0.828(2)
C6A C 0.0072(4) 0.6303(4) 0.7166(16)
H3A H -0.0660 0.5881 0.6435
C7A C 0.0064(3) 0.7549(4) 0.7139(13)
H4A H -0.0674 0.7961 0.6391
loop_
_geom_bond_atom_site_label_1
_geom_bond_atom_site_label_2
_geom_bond_site_symmetry_1
_geom_bond_site_symmetry_2
Cu1 O1 1_555 1_555
O1 C1 1_555 1_555
O2 Cu1 1_555 1_555
O3 C2 1_555 1_555
O4 C1 1_555 1_555
C1 C2 1_555 1_555
C2 O2 1_555 1_555
N1 Cu1 1_555 1_555
C3 N1 1_555 1_555
H1 C3 1_555 1_555
C4 C3 1_555 1_555
H2 C4 1_555 1_555
C5 C4 1_555 1_555
C6 C5 1_555 1_555
H3 C6 1_555 1_555
C7 N1 1_555 1_555
H4 C7 1_555 1_555
Cu1_2 O3 1_555 1_555
Cu1_3 N1A 1_555 1_555
O3_2 Cu1 1_555 1_555
O4_2 Cu1 1_555 1_555
N1A C3A 1_555 1_555
N1A_2 Cu1 1_555 1_555
C3A H1A 1_555 1_555
C4A C3A 1_555 1_555
H2A C4A 1_555 1_555
C5A C5 1_555 1_555
C6A C5A 1_555 1_555
H3A C6A 1_555 1_555
C7A N1A 1_555 1_555
H4A C7A 1_555 1_555
O4 Cu1_2 1_555 1_555
C6 C7 1_555 1_555
C4A C5A 1_555 1_555
C6A C7A 1_555 1_555

#END
