
#######################################################################
#
#                 Cambridge Crystallographic Data Centre
#                                CCDC 
#
#######################################################################
#
# If this CIF has been generated from an entry in the Cambridge 
# Structural Database, then it will include bibliographic, chemical, 
# crystal, experimental, refinement or atomic coordinate data resulting 
# from the CCDC's data processing and validation procedures.
#
#######################################################################

data_UDOKIH
_symmetry_cell_setting           triclinic
_symmetry_space_group_name_H-M   'P -1'
_symmetry_Int_Tables_number      2
_space_group_name_Hall           '-P 1'
loop_
_symmetry_equiv_pos_site_id
_symmetry_equiv_pos_as_xyz
1 x,y,z
2 -x,-y,-z
_cell_length_a                   9.732(5)
_cell_length_b                   9.795(2)
_cell_length_c                   10.285(3)
_cell_angle_alpha                84.95(2)
_cell_angle_beta                 77.30(3)
_cell_angle_gamma                85.61(3)
_cell_volume                     951.067
loop_
_atom_site_label
_atom_site_type_symbol
_atom_site_fract_x
_atom_site_fract_y
_atom_site_fract_z
Cu1 Cu 0.16864(5) 0.03215(5) 0.92648(4)
Cu2 Cu 0.51122(5) -0.35467(4) 1.07458(4)
O1 O 0.2122(3) -0.0513(3) 1.0969(3)
O2 O 0.4812(3) -0.2574(3) 0.9051(3)
O3 O 0.3365(3) 0.4771(3) 1.0352(3)
O4 O 0.2896(3) 0.2314(3) 0.9298(3)
O5 O 0.0116(3) 0.1504(3) 1.0368(3)
O6 O -0.1437(3) 0.3774(3) 1.2003(4)
O7 O 0.0580(3) 0.5807(3) 1.1975(4)
N1 N 0.0988(4) 0.0957(4) 0.7641(3)
H7 H 0.1360(4) 0.1800(4) 0.7408(3)
H8 H 0.0038(4) 0.0951(4) 0.7797(3)
N2 N 0.3244(3) -0.0899(3) 0.8437(3)
N3 N 0.3595(3) -0.2288(3) 1.1589(3)
N4 N 0.5258(4) -0.4746(4) 1.2357(3)
H9 H 0.5445(4) -0.5646(4) 1.2171(3)
H10 H 0.5975(4) -0.4514(4) 1.2572(3)
C1 C 0.1515(5) 0.0135(5) 0.6480(4)
H11 H 0.1183(5) 0.0573(5) 0.5714(4)
H12 H 0.1143(5) -0.0768(5) 0.6673(4)
C2 C 0.3106(5) -0.0009(5) 0.6149(4)
H13 H 0.3468(5) 0.0866(5) 0.6237(4)
H14 H 0.3419(5) -0.0223(5) 0.5223(4)
C3 C 0.3737(5) -0.1104(5) 0.7019(4)
H15 H 0.3485(5) -0.1999(5) 0.6845(4)
H16 H 0.4757(5) -0.1088(5) 0.6786(4)
C4 C 0.3789(4) -0.1656(4) 0.9290(4)
C5 C 0.3119(4) -0.1454(4) 1.0736(4)
C6 C 0.2922(5) -0.2262(5) 1.3000(4)
H17 H 0.1969(5) -0.2559(5) 1.3136(4)
H18 H 0.2861(5) -0.1327(5) 1.3259(4)
C7 C 0.3724(5) -0.3180(5) 1.3883(4)
H19 H 0.4608(5) -0.2778(5) 1.3869(4)
H20 H 0.3178(5) -0.3202(5) 1.4795(4)
C8 C 0.4040(5) -0.4640(5) 1.3481(4)
H21 H 0.4228(5) -0.5229(5) 1.4238(4)
H22 H 0.3221(5) -0.4958(5) 1.3232(4)
C9 C 0.2173(4) 0.4263(4) 1.0566(4)
C10 C 0.1965(4) 0.3002(4) 1.0048(4)
C11 C 0.0547(4) 0.2630(4) 1.0573(4)
C12 C -0.0199(4) 0.3715(4) 1.1383(4)
C13 C 0.0843(4) 0.4761(4) 1.1373(4)
O5A O -0.0116(3) -0.1504(3) 0.9632(3)
O3_2 O 0.3365(3) -0.5229(3) 1.0352(3)
O3A O 0.6635(3) -0.4771(3) 0.9648(3)
O4A O 0.7104(3) -0.2314(3) 1.0702(3)
Cu2_2 Cu 0.51122(5) 0.64533(4) 1.07458(4)
Cu2A Cu 0.48878(5) 0.35467(4) 0.92542(4)
Cu1A Cu -0.16864(5) -0.03215(5) 1.07352(4)
O8 O 0.2648(4) 0.1484(4) 1.2678(4)
H1 H 0.3415(4) 0.1969(4) 1.2032(4)
H2 H 0.2403(4) 0.0966(4) 1.2027(4)
O9 O 1.2300(4) -0.6228(4) 0.6362(4)
H3 H 1.1890(4) -0.6385(4) 0.5620(4)
H4 H 1.1738(4) -0.5802(4) 0.7217(4)
O10 O 0.0777(7) 0.3117(7) 1.4454(5)
H5 H 0.1275(7) 0.2712(7) 1.3620(5)
H6 H 0.0591(7) 0.3964(7) 1.3807(5)
loop_
_geom_bond_atom_site_label_1
_geom_bond_atom_site_label_2
_geom_bond_site_symmetry_1
_geom_bond_site_symmetry_2
Cu1 O1 1_555 1_555
Cu2 O2 1_555 1_555
O1 C5 1_555 1_555
O2 C4 1_555 1_555
O3 C9 1_555 1_555
O4 Cu1 1_555 1_555
O5 Cu1 1_555 1_555
O6 C12 1_555 1_555
O7 C13 1_555 1_555
O8 H1 1_555 1_555
H2 O8 1_555 1_555
O9 H3 1_555 1_555
H4 O9 1_555 1_555
O10 H5 1_555 1_555
H6 O10 1_555 1_555
N1 Cu1 1_555 1_555
H7 N1 1_555 1_555
H8 N1 1_555 1_555
N2 Cu1 1_555 1_555
N3 Cu2 1_555 1_555
N4 Cu2 1_555 1_555
H9 N4 1_555 1_555
H10 N4 1_555 1_555
C1 N1 1_555 1_555
H11 C1 1_555 1_555
H12 C1 1_555 1_555
C2 C1 1_555 1_555
H13 C2 1_555 1_555
H14 C2 1_555 1_555
C3 N2 1_555 1_555
H15 C3 1_555 1_555
H16 C3 1_555 1_555
C4 N2 1_555 1_555
C5 N3 1_555 1_555
C6 N3 1_555 1_555
H17 C6 1_555 1_555
H18 C6 1_555 1_555
C7 C6 1_555 1_555
H19 C7 1_555 1_555
H20 C7 1_555 1_555
C8 N4 1_555 1_555
H21 C8 1_555 1_555
H22 C8 1_555 1_555
C9 C10 1_555 1_555
C10 O4 1_555 1_555
C11 O5 1_555 1_555
C12 C11 1_555 1_555
C13 C9 1_555 1_555
O5A Cu1 1_555 1_555
O3_2 Cu2 1_555 1_555
O3A Cu2 1_555 1_555
O4A Cu2 1_555 1_555
Cu2_2 O3 1_555 1_555
Cu2A O3 1_555 1_555
Cu1A O5 1_555 1_555
O4 Cu2A 1_555 1_555
C2 C3 1_555 1_555
C4 C5 1_555 1_555
C7 C8 1_555 1_555
C10 C11 1_555 1_555
C12 C13 1_555 1_555
O5A Cu1A 1_555 1_555

#END
