
#######################################################################
#
#                 Cambridge Crystallographic Data Centre
#                                CCDC 
#
#######################################################################
#
# If this CIF has been generated from an entry in the Cambridge 
# Structural Database, then it will include bibliographic, chemical, 
# crystal, experimental, refinement or atomic coordinate data resulting 
# from the CCDC's data processing and validation procedures.
#
#######################################################################

data_UDOKEE
_symmetry_cell_setting           monoclinic
_symmetry_space_group_name_H-M   'P 21/c'
_symmetry_Int_Tables_number      14
_space_group_name_Hall           '-P 2ybc'
loop_
_symmetry_equiv_pos_site_id
_symmetry_equiv_pos_as_xyz
1 x,y,z
2 -x,1/2+y,1/2-z
3 -x,-y,-z
4 x,1/2-y,1/2+z
_cell_length_a                   10.777(3)
_cell_length_b                   25.189(6)
_cell_length_c                   21.629(5)
_cell_angle_alpha                90
_cell_angle_beta                 94.988(4)
_cell_angle_gamma                90
_cell_volume                     5849.21
loop_
_atom_site_label
_atom_site_type_symbol
_atom_site_fract_x
_atom_site_fract_y
_atom_site_fract_z
Mn1 Mn 0.58449(10) 0.23827(4) 0.70484(5)
Mo1 Mo 0.76537(6) 0.23889(3) 0.59702(3)
Mo2 Mo 0.37304(6) 0.23871(3) 0.79884(3)
Mo3 Mo 0.60308(6) 0.14817(3) 0.80798(3)
Mo4 Mo 0.78022(6) 0.14512(3) 0.69663(3)
Mo5 Mo 0.56821(6) 0.33951(3) 0.61626(3)
Mo6 Mo 0.36402(6) 0.24780(3) 0.59875(3)
Mo7 Mo 0.38076(6) 0.14648(3) 0.68911(3)
Mo8 Mo 0.81249(6) 0.31930(3) 0.72002(3)
Mo9 Mo 0.60632(7) 0.31811(3) 0.81906(3)
Na1 Na 0.5802(5) 0.0187(2) 0.7168(3)
Na2 Na 0.0793(3) 0.22312(14) 0.68647(16)
Na3 Na 0.5430(3) 0.27447(14) 0.45687(15)
C7 C 0.7161(9) -0.0869(4) 0.7939(5)
H9 H 0.6601 -0.1077 0.7659
H10 H 0.6709 -0.0764 0.8288
C8 C 0.8230(8) -0.1206(4) 0.8169(4)
H11 H 0.7939 -0.1507 0.8396
H12 H 0.8652 -0.1340 0.7822
C9 C 0.9454(8) -0.0400(4) 0.8276(4)
H13 H 0.9938 -0.0486 0.7932
H14 H 0.9971 -0.0187 0.8570
C10 C 0.8321(9) -0.0089(4) 0.8044(5)
H15 H 0.7878 0.0024 0.8392
H16 H 0.8570 0.0225 0.7827
C11 C 0.9521(8) -0.1016(3) 0.9157(4)
C12 C 1.1061(8) -0.0738(3) 0.9906(4)
N6 N 0.9088(6) -0.0888(3) 0.8575(3)
N7 N 0.9329(7) -0.1509(3) 0.9376(3)
N8 N 1.0067(6) -0.0641(3) 0.9520(3)
N9 N 1.1341(7) -0.0397(3) 1.0370(3)
N10 N 1.1865(7) -0.1146(3) 0.9840(3)
O2 O 0.2166(5) 0.2416(2) 0.7756(3)
O3 O 0.3816(5) 0.2729(2) 0.3771(2)
O4 O 0.4254(5) 0.3094(2) 0.7995(2)
O5 O 0.4150(5) 0.1603(2) 0.7821(2)
O6 O 0.2225(5) 0.1486(2) 0.6939(3)
O7 O 0.2072(5) 0.2512(2) 0.6088(3)
O8 O 0.3886(5) 0.1710(2) 0.6071(2)
O9 O 0.3781(5) 0.2511(2) 0.5208(2)
O10 O 0.4165(5) 0.0810(2) 0.6824(3)
O11 O 0.4089(5) 0.23355(19) 0.6999(2)
O12 O 0.6120(5) 0.3396(2) 0.3858(2)
O13 O 0.6162(6) 0.2005(2) 0.3952(3)
O14 O 0.6032(6) 0.3855(2) 0.8195(3)
O15 O 0.7801(5) 0.3052(2) 0.8034(2)
O16 O 0.8221(6) 0.3862(2) 0.7209(3)
O17 O 0.9633(5) 0.2974(2) 0.7195(3)
O18 O 0.9378(5) 0.1524(2) 0.7001(3)
O19 O 0.9233(5) 0.2418(2) 0.5997(3)
O20 O 0.7154(5) 0.2469(2) 0.5206(2)
O21 O 0.7419(5) 0.1658(2) 0.6097(2)
O22 O 0.7517(5) 0.0795(2) 0.6883(3)
O23 O 0.5850(5) 0.1634(2) 0.7058(2)
O24 O 0.5682(5) 0.2508(2) 0.6184(2)
O25 O 0.5713(5) 0.3430(2) 0.5371(3)
O26 O 0.5762(6) 0.4034(2) 0.6408(3)
O27 O 0.6089(5) 0.3126(2) 0.7153(2)
O28 O 0.5792(5) 0.2338(2) 0.7915(2)
O29 O 0.7559(5) 0.2337(2) 0.6977(2)
O30 O 0.7668(5) 0.1526(2) 0.7865(2)
O31 O 0.4011(5) 0.3215(2) 0.6217(2)
O32 O 0.7532(5) 0.3172(2) 0.6268(2)
O33 O 0.7512(7) -0.0413(3) 0.7630(3)
O34 O 0.5795(5) 0.0810(2) 0.8017(3)
O35 O 0.5786(17) -0.0300(7) 0.6243(9)
O36 O 0.4282(10) -0.0253(4) 0.7624(5)
Mo2C Mo 0.37304(6) 0.26129(3) 0.29884(3)
Mo3C Mo 0.60308(6) 0.35183(3) 0.30798(3)
Mo9C Mo 0.60632(7) 0.18189(3) 0.31906(3)
Na2_2 Na 1.0793(3) 0.22312(14) 0.68647(16)
O3C O 0.3816(5) 0.2271(2) 0.8771(2)
O12C O 0.6120(5) 0.1604(2) 0.8858(2)
O13C O 0.6162(6) 0.2995(2) 0.8952(3)
O17_2 O -0.0367(5) 0.2974(2) 0.7195(3)
O18_2 O -0.0622(5) 0.1524(2) 0.7001(3)
O19_2 O -0.0767(5) 0.2418(2) 0.5997(3)
C1 C 0.7154(10) 0.5210(4) 0.5933(5)
H1 H 0.7927 0.5082 0.5789
H2 H 0.6795 0.4922 0.6156
C2 C 0.7430(9) 0.5648(4) 0.6360(5)
H3 H 0.8050 0.5538 0.6687
H4 H 0.6682 0.5749 0.6549
C3 C 0.7078(9) 0.6244(3) 0.5501(4)
H5 H 0.7450 0.6527 0.5276
H6 H 0.6300 0.6375 0.5638
C4 C 0.6824(9) 0.5785(4) 0.5087(5)
H7 H 0.6240 0.5889 0.4741
H8 H 0.7591 0.5675 0.4920
C5 C 0.8957(8) 0.6346(4) 0.6193(4)
C6 C 1.0196(8) 0.7060(4) 0.6002(4)
N1 N 0.7897(7) 0.6102(3) 0.6029(4)
N2 N 0.9577(8) 0.6232(4) 0.6745(4)
N3 N 0.9457(7) 0.6665(3) 0.5797(3)
N4 N 1.0031(7) 0.7367(3) 0.6505(4)
N5 N 1.1137(8) 0.7202(4) 0.5665(4)
O1 O 0.6317(6) 0.5347(3) 0.5407(3)
O37 O 0.755(4) 0.4875(18) 0.895(2)
O38 O 0.936(3) 0.6735(12) 0.9935(13)
O39 O 0.3858(8) 0.9708(3) 0.0817(4)
O40 O 0.173(3) 0.6240(14) 0.0206(16)
O41 O 0.565(2) 0.3799(10) 0.0083(12)
loop_
_geom_bond_atom_site_label_1
_geom_bond_atom_site_label_2
_geom_bond_site_symmetry_1
_geom_bond_site_symmetry_2
Mn1 O11 1_555 1_555
Mo1 O19 1_555 1_555
Mo2 O2 1_555 1_555
Mo3 O5 1_555 1_555
Mo4 O18 1_555 1_555
Mo5 O24 1_555 1_555
Mo6 O7 1_555 1_555
Mo7 O5 1_555 1_555
Mo8 O15 1_555 1_555
Mo9 O4 1_555 1_555
Na1 O10 1_555 1_555
Na2 O2 1_555 1_555
Na3 O3 1_555 1_555
C1 H1 1_555 1_555
H2 C1 1_555 1_555
C2 C1 1_555 1_555
H3 C2 1_555 1_555
H4 C2 1_555 1_555
C3 H5 1_555 1_555
H6 C3 1_555 1_555
C4 C3 1_555 1_555
H7 C4 1_555 1_555
H8 C4 1_555 1_555
C5 N1 1_555 1_555
C6 N3 1_555 1_555
C7 H9 1_555 1_555
H10 C7 1_555 1_555
C8 C7 1_555 1_555
H11 C8 1_555 1_555
H12 C8 1_555 1_555
C9 H13 1_555 1_555
H14 C9 1_555 1_555
C10 C9 1_555 1_555
H15 C10 1_555 1_555
H16 C10 1_555 1_555
C11 N6 1_555 1_555
C12 N8 1_555 1_555
N1 C2 1_555 1_555
N2 C5 1_555 1_555
N3 C5 1_555 1_555
N4 C6 1_555 1_555
N5 C6 1_555 1_555
N6 C8 1_555 1_555
N7 C11 1_555 1_555
N8 C11 1_555 1_555
N9 C12 1_555 1_555
N10 C12 1_555 1_555
O1 C1 1_555 1_555
O3 Mo2C 1_555 1_555
O4 Mo2 1_555 1_555
O5 Mo2 1_555 1_555
O6 Mo7 1_555 1_555
O7 Na2 1_555 1_555
O8 Mo6 1_555 1_555
O9 Mo6 1_555 1_555
O10 Mo7 1_555 1_555
O11 Mo2 1_555 1_555
O12 Na3 1_555 1_555
O13 Na3 1_555 1_555
O14 Mo9 1_555 1_555
O15 Mo9 1_555 1_555
O16 Mo8 1_555 1_555
O17 Mo8 1_555 1_555
O18 Na2_2 1_555 1_555
O19 Na2_2 1_555 1_555
O20 Mo1 1_555 1_555
O21 Mo1 1_555 1_555
O22 Mo4 1_555 1_555
O23 Mn1 1_555 1_555
O24 Mn1 1_555 1_555
O25 Mo5 1_555 1_555
O26 Mo5 1_555 1_555
O27 Mn1 1_555 1_555
O28 Mn1 1_555 1_555
O29 Mn1 1_555 1_555
O30 Mo3 1_555 1_555
O31 Mo5 1_555 1_555
O32 Mo1 1_555 1_555
O33 Na1 1_555 1_555
O34 Mo3 1_555 1_555
O35 Na1 1_555 1_555
O36 Na1 1_555 1_555
Mo3C O12 1_555 1_555
Mo9C O13 1_555 1_555
Na2_2 O17 1_555 1_555
O3C Mo2 1_555 1_555
O12C Mo3 1_555 1_555
O13C Mo9 1_555 1_555
O17_2 Na2 1_555 1_555
O18_2 Na2 1_555 1_555
O19_2 Na2 1_555 1_555
Mo1 O24 1_555 1_555
Mo1 O29 1_555 1_555
Mo2 O28 1_555 1_555
Mo3 O23 1_555 1_555
Mo3 O28 1_555 1_555
Mo4 O21 1_555 1_555
Mo4 O23 1_555 1_555
Mo4 O29 1_555 1_555
Mo4 O30 1_555 1_555
Mo5 O27 1_555 1_555
Mo5 O32 1_555 1_555
Mo6 O11 1_555 1_555
Mo6 O24 1_555 1_555
Mo6 O31 1_555 1_555
Mo7 O8 1_555 1_555
Mo7 O11 1_555 1_555
Mo7 O23 1_555 1_555
Mo8 O27 1_555 1_555
Mo8 O29 1_555 1_555
Mo8 O32 1_555 1_555
Mo9 O27 1_555 1_555
Mo9 O28 1_555 1_555
Na1 O22 1_555 1_555
Na1 O34 1_555 1_555
Na2 O6 1_555 1_555
Na3 O9 1_555 1_555
Na3 O20 1_555 1_555
Na3 O25 1_555 1_555
C3 N1 1_555 1_555
C4 O1 1_555 1_555
C7 O33 1_555 1_555
C9 N6 1_555 1_555
C10 O33 1_555 1_555

#END
