
#######################################################################
#
#                 Cambridge Crystallographic Data Centre
#                                CCDC 
#
#######################################################################
#
# If this CIF has been generated from an entry in the Cambridge 
# Structural Database, then it will include bibliographic, chemical, 
# crystal, experimental, refinement or atomic coordinate data resulting 
# from the CCDC's data processing and validation procedures.
#
#######################################################################

data_UDOQAF
_symmetry_cell_setting           monoclinic
_symmetry_space_group_name_H-M   'P 21/c'
_symmetry_Int_Tables_number      14
_space_group_name_Hall           '-P 2ybc'
loop_
_symmetry_equiv_pos_site_id
_symmetry_equiv_pos_as_xyz
1 x,y,z
2 x,1/2-y,1/2+z
3 -x,-y,-z
4 -x,1/2+y,1/2-z
_cell_length_a                   9.3222(7)
_cell_length_b                   21.2995(16)
_cell_length_c                   8.3524(6)
_cell_angle_alpha                90.00
_cell_angle_beta                 92.787(2)
_cell_angle_gamma                90.00
_cell_volume                     1656.48
loop_
_atom_site_label
_atom_site_type_symbol
_atom_site_fract_x
_atom_site_fract_y
_atom_site_fract_z
Cu1 Cu 0.02996(5) 0.37919(2) 0.60516(6)
V1 V 0.28104(8) 0.32015(3) 0.33807(9)
V2 V 0.24987(8) 0.32703(3) 0.92987(9)
O1 O 0.0957(3) 0.33308(14) 0.8243(4)
O2 O 0.1503(3) 0.33932(13) 0.4607(4)
O3 O 0.2069(4) 0.32422(14) 0.1375(4)
O4 O 0.4143(3) 0.36851(14) 0.3617(4)
O5 O 0.3475(3) 0.24269(13) 0.3772(4)
O6 O 0.3499(3) 0.38780(13) 0.8961(4)
N1 N 0.1391(4) 0.46137(16) 0.6406(4)
N2 N -0.1188(4) 0.42940(15) 0.6963(4)
N3 N -0.1393(3) 0.31876(16) 0.5813(4)
C1 C 0.2740(5) 0.4721(2) 0.6055(5)
H1 H 0.3259 0.4407 0.5571
C2 C 0.3393(5) 0.5294(2) 0.6398(5)
H2 H 0.4341 0.5363 0.6146
C3 C 0.2628(5) 0.5760(2) 0.7114(5)
H3 H 0.3053 0.6148 0.7339
C4 C 0.1220(5) 0.56495(19) 0.7498(5)
H4 H 0.0683 0.5958 0.7979
C5 C 0.0639(5) 0.50633(19) 0.7144(5)
C6 C -0.0841(5) 0.4874(2) 0.7522(5)
C7 C -0.1833(5) 0.5221(2) 0.8321(5)
H5 H -0.1608 0.5621 0.8701
C8 C -0.3179(5) 0.4960(2) 0.8548(5)
H6 H -0.3857 0.5185 0.9094
C9 C -0.3513(5) 0.4361(2) 0.7957(5)
H7 H -0.4412 0.4186 0.8091
C10 C -0.2479(5) 0.40367(19) 0.7169(5)
C11 C -0.2600(4) 0.33924(19) 0.6503(5)
C12 C -0.3777(5) 0.3004(2) 0.6641(5)
H8 H -0.4603 0.3153 0.7093
C13 C -0.3711(5) 0.2390(2) 0.6097(5)
H9 H -0.4485 0.2119 0.6191
C14 C -0.2463(5) 0.2188(2) 0.5408(5)
H10 H -0.2397 0.1778 0.5030
C15 C -0.1319(5) 0.25980(19) 0.5287(5)
H11 H -0.0485 0.2460 0.4831
O3_2 O 0.2069(4) 0.32422(14) 1.1375(4)
O5A O 0.3475(3) 0.25731(13) 0.8772(4)
V2_2 V 0.24987(8) 0.32703(3) -0.07013(9)
V2A V 0.24987(8) 0.17297(3) 0.42987(9)
loop_
_geom_bond_atom_site_label_1
_geom_bond_atom_site_label_2
_geom_bond_site_symmetry_1
_geom_bond_site_symmetry_2
Cu1 O1 1_555 1_555
V1 O2 1_555 1_555
V2 O1 1_555 1_555
O2 Cu1 1_555 1_555
O3 V1 1_555 1_555
O4 V1 1_555 1_555
O5 V1 1_555 1_555
O6 V2 1_555 1_555
N1 Cu1 1_555 1_555
N2 Cu1 1_555 1_555
N3 Cu1 1_555 1_555
C1 N1 1_555 1_555
H1 C1 1_555 1_555
C2 C1 1_555 1_555
H2 C2 1_555 1_555
C3 C2 1_555 1_555
H3 C3 1_555 1_555
C4 C3 1_555 1_555
H4 C4 1_555 1_555
C5 N1 1_555 1_555
C6 N2 1_555 1_555
C7 C6 1_555 1_555
H5 C7 1_555 1_555
C8 C7 1_555 1_555
H6 C8 1_555 1_555
C9 C8 1_555 1_555
H7 C9 1_555 1_555
C10 N2 1_555 1_555
C11 N3 1_555 1_555
C12 C11 1_555 1_555
H8 C12 1_555 1_555
C13 C12 1_555 1_555
H9 C13 1_555 1_555
C14 C13 1_555 1_555
H10 C14 1_555 1_555
C15 N3 1_555 1_555
H11 C15 1_555 1_555
O3_2 V2 1_555 1_555
O5A V2 1_555 1_555
V2_2 O3 1_555 1_555
V2A O5 1_555 1_555
C4 C5 1_555 1_555
C5 C6 1_555 1_555
C9 C10 1_555 1_555
C10 C11 1_555 1_555
C14 C15 1_555 1_555

#END
