
#######################################################################
#
#                 Cambridge Crystallographic Data Centre
#                                CCDC 
#
#######################################################################
#
# If this CIF has been generated from an entry in the Cambridge 
# Structural Database, then it will include bibliographic, chemical, 
# crystal, experimental, refinement or atomic coordinate data resulting 
# from the CCDC's data processing and validation procedures.
#
#######################################################################

data_UDOYUJ
_symmetry_cell_setting           monoclinic
_symmetry_space_group_name_H-M   'P 21/c'
_symmetry_Int_Tables_number      14
_space_group_name_Hall           '-P 2ybc'
loop_
_symmetry_equiv_pos_site_id
_symmetry_equiv_pos_as_xyz
1 x,y,z
2 -x,1/2+y,1/2-z
3 -x,-y,-z
4 x,1/2-y,1/2+z
_cell_length_a                   8.6914(9)
_cell_length_b                   8.7813(11)
_cell_length_c                   10.2709(13)
_cell_angle_alpha                90
_cell_angle_beta                 111.547(6)
_cell_angle_gamma                90
_cell_volume                     729.112
loop_
_atom_site_label
_atom_site_type_symbol
_atom_site_fract_x
_atom_site_fract_y
_atom_site_fract_z
Co1 Co 0.61747(3) 0.17728(2) 0.94714(2)
P1 P 0.40977(5) 0.15407(5) 1.15679(4)
O1 O 0.55813(15) 0.15079(15) 1.11147(14)
O2 O 0.31189(15) 0.00554(14) 1.12220(14)
O3 O 0.45894(16) 0.19281(15) 1.31082(14)
C1 C 0.1254(2) 0.33444(18) 1.09183(19)
N1 N -0.16268(17) 0.28808(17) 1.04682(15)
C2 C 0.2759(2) 0.3044(2) 1.0559(2)
C3 C -0.0243(2) 0.2629(2) 1.01977(18)
C4 C -0.1558(2) 0.3875(2) 1.14794(19)
C5 C 0.1299(2) 0.4369(2) 1.1964(2)
C6 C -0.0118(2) 0.4632(2) 1.2244(2)
H1 H -0.031(3) 0.193(3) 0.948(2)
H2 H 0.242(3) 0.272(3) 0.962(3)
H3 H 0.344(3) 0.397(3) 1.071(2)
H4 H -0.246(3) 0.401(3) 1.168(2)
H5 H -0.012(3) 0.532(3) 1.296(2)
H6 H 0.227(3) 0.490(3) 1.246(2)
Co1_2 Co -0.38253(3) 0.17728(2) 0.94714(2)
Co1B Co 0.38253(3) -0.17728(2) 1.05286(2)
Co1C Co 0.61747(3) 0.32272(2) 1.44714(2)
O2B O 0.68811(15) -0.00554(14) 0.87780(14)
O3C O 0.45894(16) 0.30719(15) 0.81082(14)
N1_2 N 0.83732(17) 0.28808(17) 1.04682(15)
loop_
_geom_bond_atom_site_label_1
_geom_bond_atom_site_label_2
_geom_bond_site_symmetry_1
_geom_bond_site_symmetry_2
Co1 O1 1_555 1_555
P1 O1 1_555 1_555
O2 P1 1_555 1_555
O3 P1 1_555 1_555
C1 C2 1_555 1_555
N1 C3 1_555 1_555
C2 P1 1_555 1_555
C3 C1 1_555 1_555
C4 N1 1_555 1_555
C5 C1 1_555 1_555
C6 C4 1_555 1_555
H1 C3 1_555 1_555
H2 C2 1_555 1_555
H3 C2 1_555 1_555
H4 C4 1_555 1_555
H5 C6 1_555 1_555
H6 C5 1_555 1_555
Co1_2 N1 1_555 1_555
Co1B O2 1_555 1_555
Co1C O3 1_555 1_555
O2B Co1 1_555 1_555
O3C Co1 1_555 1_555
N1_2 Co1 1_555 1_555
C5 C6 1_555 1_555

#END
