
#######################################################################
#
#                 Cambridge Crystallographic Data Centre
#                                CCDC 
#
#######################################################################
#
# If this CIF has been generated from an entry in the Cambridge 
# Structural Database, then it will include bibliographic, chemical, 
# crystal, experimental, refinement or atomic coordinate data resulting 
# from the CCDC's data processing and validation procedures.
#
#######################################################################

data_UDOYIV
_symmetry_cell_setting           monoclinic
_symmetry_space_group_name_H-M   'C 2/c'
_symmetry_Int_Tables_number      15
_space_group_name_Hall           '-C 2yn'
loop_
_symmetry_equiv_pos_site_id
_symmetry_equiv_pos_as_xyz
1 x,y,z
2 1/2+x,1/2+y,z
3 x,-y,1/2+z
4 1/2+x,1/2-y,1/2+z
5 -x,-y,-z
6 1/2-x,1/2-y,-z
7 -x,y,1/2-z
8 1/2-x,1/2+y,1/2-z
_cell_length_a                   17.3718(5)
_cell_length_b                   13.31890(10)
_cell_length_c                   7.4432(2)
_cell_angle_alpha                90
_cell_angle_beta                 110.686(2)
_cell_angle_gamma                90
_cell_volume                     1611.13
loop_
_atom_site_label
_atom_site_type_symbol
_atom_site_fract_x
_atom_site_fract_y
_atom_site_fract_z
Br1 Br 0.41132(4) 0.94209(6) 0.06721(11)
Cu1 Cu 0.5000 1.08006(11) 0.2500
Cu2 Cu 0.5000 0.80756(10) 0.2500
Br2 Br 0.41141(5) 1.20265(7) 0.04500(12)
N1 N 0.4282(3) 0.6936(5) 0.1131(8)
C1 C 0.4140(4) 0.5137(6) 0.0988(10)
H1 H 0.4370 0.4511 0.1414
C2 C 0.4581(4) 0.6004(6) 0.1737(9)
C3 C 0.3347(4) 0.5203(6) -0.0415(10)
C4 C 0.3051(4) 0.6173(6) -0.1029(10)
H2 H 0.2529 0.6256 -0.1953
C5 C 0.3527(4) 0.6996(7) -0.0271(11)
H3 H 0.3324 0.7627 -0.0738
C6 C 0.2828(5) 0.4298(6) -0.1183(12)
H4 H 0.3127 0.3706 -0.0600
H5 H 0.2690 0.4265 -0.2549
H6 H 0.2333 0.4342 -0.0892
C2F C 0.5419(4) 0.6004(6) 0.3263(9)
N1F N 0.5718(3) 0.6936(5) 0.3869(8)
C5F C 0.6473(4) 0.6996(7) 0.5271(11)
C4F C 0.6949(4) 0.6173(6) 0.6029(10)
C3F C 0.6653(4) 0.5203(6) 0.5415(10)
C1F C 0.5860(4) 0.5137(6) 0.4012(10)
H1F H 0.5630 0.4511 0.3586
C6F C 0.7172(5) 0.4298(6) 0.6183(12)
H4F H 0.6873 0.3706 0.5600
H5F H 0.7310 0.4265 0.7549
H6F H 0.7667 0.4342 0.5892
H2F H 0.7471 0.6256 0.6953
H3F H 0.6676 0.7627 0.5738
Br1F Br 0.58868(4) 0.94209(6) 0.43279(11)
Br2F Br 0.58859(5) 1.20265(7) 0.45500(12)
Br2B Br 0.41141(5) 0.79735(7) 0.54500(12)
Br2D Br 0.58859(5) 0.79735(7) -0.04500(12)
Cu2B Cu 0.5000 1.19244(10) -0.2500
Cu2B_2 Cu 0.5000 1.19244(10) 0.7500
loop_
_geom_bond_atom_site_label_1
_geom_bond_atom_site_label_2
_geom_bond_site_symmetry_1
_geom_bond_site_symmetry_2
Br1 Cu1 1_555 1_555
Cu1 Br2 1_555 1_555
Cu2 Br1 1_555 1_555
Br2 Cu2B 1_555 1_555
N1 Cu2 1_555 1_555
C1 H1 1_555 1_555
C2 N1 1_555 1_555
C3 C1 1_555 1_555
C4 C3 1_555 1_555
H2 C4 1_555 1_555
C5 N1 1_555 1_555
H3 C5 1_555 1_555
C6 C3 1_555 1_555
H4 C6 1_555 1_555
H5 C6 1_555 1_555
H6 C6 1_555 1_555
C2F C2 1_555 1_555
N1F Cu2 1_555 1_555
C5F N1F 1_555 1_555
C4F C5F 1_555 1_555
C3F C4F 1_555 1_555
C1F C2F 1_555 1_555
H1F C1F 1_555 1_555
C6F C3F 1_555 1_555
H4F C6F 1_555 1_555
H5F C6F 1_555 1_555
H6F C6F 1_555 1_555
H2F C4F 1_555 1_555
H3F C5F 1_555 1_555
Br1F Cu1 1_555 1_555
Br2F Cu1 1_555 1_555
Br2B Cu2 1_555 1_555
Br2D Cu2 1_555 1_555
Cu2B_2 Br2F 1_555 1_555
Cu2 Br1F 1_555 1_555
C1 C2 1_555 1_555
C4 C5 1_555 1_555
C2F N1F 1_555 1_555
C3F C1F 1_555 1_555

#END
