
#######################################################################
#
#                 Cambridge Crystallographic Data Centre
#                                CCDC 
#
#######################################################################
#
# If this CIF has been generated from an entry in the Cambridge 
# Structural Database, then it will include bibliographic, chemical, 
# crystal, experimental, refinement or atomic coordinate data resulting 
# from the CCDC's data processing and validation procedures.
#
#######################################################################

data_UDOYIX
_symmetry_cell_setting           triclinic
_symmetry_space_group_name_H-M   'P -1'
_symmetry_Int_Tables_number      2
_space_group_name_Hall           '-P 1'
loop_
_symmetry_equiv_pos_site_id
_symmetry_equiv_pos_as_xyz
1 x,y,z
2 -x,-y,-z
_cell_length_a                   11.9569(12)
_cell_length_b                   13.5982(13)
_cell_length_c                   22.846(2)
_cell_angle_alpha                90.041(8)
_cell_angle_beta                 93.515(8)
_cell_angle_gamma                115.036(7)
_cell_volume                     3357.78
loop_
_atom_site_label
_atom_site_type_symbol
_atom_site_fract_x
_atom_site_fract_y
_atom_site_fract_z
Na1 Na 0.54417(13) 0.60674(12) 0.21956(7)
Na2 Na 0.61888(13) 0.42069(12) 0.28800(7)
Na3 Na 0.62728(13) 0.58164(12) -0.03930(7)
Na4 Na 0.61919(14) 0.60525(13) 0.47483(7)
O1 O 0.6042(2) 0.6670(2) 0.12826(12)
H1 H 0.5594 0.6354 0.0835
O2 O 0.5021(2) 0.6066(2) 0.03105(12)
O3 O 0.4527(2) 0.4188(2) 0.22794(12)
O4 O 0.4252(3) 0.3534(2) 0.12557(12)
H2 H 0.4401 0.3892 0.1607
O5 O 0.6906(2) 0.6132(2) 0.29047(12)
O6 O 0.6616(3) 0.6785(2) 0.38493(13)
H3 H 0.6731 0.6439 0.3460
O7 O 0.5379(3) 0.3575(2) 0.37690(13)
H4 H 0.5402 0.3881 0.4136
O8 O 0.5549(3) 0.4213(2) 0.47946(12)
O9 O 0.4506(3) 0.7168(2) 0.24426(13)
O10 O 0.6414(3) 0.2875(3) 0.22947(14)
O11 O 0.8106(3) 0.4400(3) 0.33307(14)
O12 O 0.8126(3) 0.6986(3) 0.01141(15)
O13 O 0.7720(3) 0.5429(3) -0.09610(14)
O14 O 0.8098(3) 0.7168(3) 0.51721(17)
C1 C 0.6679(3) 0.7745(3) 0.12004(17)
C2 C 0.7817(4) 0.8307(4) 0.15255(19)
H5 H 0.8115 0.7934 0.1785
C3 C 0.8495(4) 0.9407(4) 0.1462(2)
H6 H 0.9244 0.9771 0.1680
C4 C 0.8065(4) 0.9967(4) 0.1076(2)
H7 H 0.8524 1.0707 0.1030
C5 C 0.6938(4) 0.9416(3) 0.07581(19)
H8 H 0.6658 0.9801 0.0498
C6 C 0.6208(3) 0.8305(3) 0.08137(17)
C7 C 0.4959(3) 0.7787(3) 0.04972(17)
C8 C 0.4271(4) 0.8399(4) 0.0426(2)
H9 H 0.4588 0.9092 0.0597
C9 C 0.3130(4) 0.8007(4) 0.0110(2)
H10 H 0.2690 0.8430 0.0073
C10 C 0.2658(4) 0.6984(4) -0.0150(2)
H11 H 0.1908 0.6720 -0.0373
C11 C 0.3303(4) 0.6349(4) -0.0077(2)
H12 H 0.2966 0.5653 -0.0245
C12 C 0.4452(3) 0.6727(3) 0.02451(17)
C13 C 0.3368(3) 0.3715(3) 0.24415(18)
C14 C 0.3002(4) 0.4198(4) 0.2886(2)
H13 H 0.3585 0.4832 0.3073
C15 C 0.1821(4) 0.3771(4) 0.3057(2)
H14 H 0.1608 0.4114 0.3354
C16 C 0.0934(5) 0.2823(4) 0.2785(2)
H15 H 0.0120 0.2537 0.2891
C17 C 0.1281(4) 0.2310(4) 0.2356(2)
H16 H 0.0687 0.1674 0.2176
C18 C 0.2489(3) 0.2713(3) 0.21850(18)
C19 C 0.2808(3) 0.2033(3) 0.17725(17)
C20 C 0.2240(4) 0.0906(3) 0.1817(2)
H17 H 0.1705 0.0611 0.2114
C21 C 0.2439(4) 0.0209(4) 0.1440(2)
H18 H 0.2042 -0.0538 0.1481
C22 C 0.3235(4) 0.0642(4) 0.1002(2)
H19 H 0.3365 0.0184 0.0739
C23 C 0.3840(4) 0.1755(4) 0.09514(19)
H20 H 0.4385 0.2041 0.0658
C24 C 0.3644(4) 0.2452(3) 0.13354(17)
C25 C 0.8078(3) 0.6853(3) 0.28252(18)
C26 C 0.8826(4) 0.6518(4) 0.2512(2)
H21 H 0.8506 0.5807 0.2365
C27 C 1.0022(4) 0.7211(4) 0.2414(2)
H22 H 1.0501 0.6973 0.2199
C28 C 1.0514(4) 0.8267(4) 0.2638(2)
H23 H 1.1325 0.8744 0.2577
C29 C 0.9785(4) 0.8600(4) 0.2951(2)
H24 H 1.0128 0.9305 0.3109
C30 C 0.8556(4) 0.7931(3) 0.30433(18)
C31 C 0.7809(3) 0.8406(3) 0.33377(18)
C32 C 0.8013(4) 0.9476(3) 0.3231(2)
H25 H 0.8567 0.9853 0.2954
C33 C 0.7426(4) 0.9999(4) 0.3517(2)
H26 H 0.7597 1.0719 0.3441
C34 C 0.6584(4) 0.9441(4) 0.3918(2)
H27 H 0.6191 0.9787 0.4117
C35 C 0.6321(4) 0.8366(4) 0.4025(2)
H28 H 0.5743 0.7991 0.4293
C36 C 0.6918(4) 0.7844(3) 0.37351(18)
C37 C 0.4809(4) 0.2495(3) 0.38587(18)
C38 C 0.3945(4) 0.1832(4) 0.3424(2)
H29 H 0.3775 0.2139 0.3086
C39 C 0.3342(5) 0.0726(4) 0.3493(2)
H30 H 0.2778 0.0291 0.3198
C40 C 0.3569(4) 0.0268(4) 0.3991(2)
H31 H 0.3155 -0.0477 0.4039
C41 C 0.4418(4) 0.0921(3) 0.44214(19)
H32 H 0.4559 0.0602 0.4761
C42 C 0.5073(3) 0.2036(3) 0.43693(17)
C43 C 0.6034(3) 0.2671(3) 0.48389(17)
C44 C 0.6777(4) 0.2218(3) 0.51187(19)
H33 H 0.6700 0.1545 0.4983
C45 C 0.7617(4) 0.2725(4) 0.5586(2)
H34 H 0.8102 0.2403 0.5755
C46 C 0.7729(4) 0.3718(4) 0.5800(2)
H35 H 0.8271 0.4057 0.6122
C47 C 0.7035(4) 0.4200(4) 0.55326(19)
H36 H 0.7122 0.4869 0.5678
C48 C 0.6200(4) 0.3716(3) 0.50484(17)
C49 C 0.4831(5) 0.8216(4) 0.2201(2)
H37 H 0.4842 0.8178 0.1778
H38 H 0.5641 0.8727 0.2361
C50 C 0.3847(5) 0.8558(4) 0.2373(2)
H39 H 0.4154 0.9343 0.2392
H40 H 0.3120 0.8258 0.2101
C51 C 0.3570(5) 0.8085(4) 0.2969(2)
H41 H 0.2730 0.7933 0.3056
H42 H 0.4139 0.8576 0.3271
C52 C 0.3743(4) 0.7047(4) 0.2924(2)
H43 H 0.4142 0.6939 0.3285
H44 H 0.2950 0.6427 0.2852
C53 C 0.7127(6) 0.3169(5) 0.1801(3)
H45 H 0.7867 0.3835 0.1883
H46 H 0.6653 0.3272 0.1466
C54 C 0.7456(6) 0.2237(4) 0.1685(3)
H47 H 0.7454 0.2115 0.1266
H48 H 0.8271 0.2387 0.1864
C55 C 0.6555(6) 0.1331(5) 0.1932(3)
H49 H 0.6943 0.0946 0.2162
H50 H 0.6005 0.0839 0.1626
C56 C 0.5846(6) 0.1715(5) 0.2313(3)
H51 H 0.4986 0.1430 0.2167
H52 H 0.5886 0.1482 0.2712
C57 C 0.8654(7) 0.5140(6) 0.3815(3)
H53 H 0.8062 0.5376 0.3964
H54 H 0.9364 0.5773 0.3700
C58 C 0.9045(7) 0.4534(6) 0.4275(3)
H55 H 0.9862 0.4986 0.4453
H56 H 0.8464 0.4295 0.4580
C59 C 0.9049(6) 0.3589(7) 0.3948(3)
H57 H 0.9886 0.3665 0.3914
H58 H 0.8579 0.2915 0.4138
C60 C 0.8494(7) 0.3625(6) 0.3406(3)
H59 H 0.9077 0.3703 0.3113
H60 H 0.7789 0.2931 0.3328
C61 C 0.8777(4) 0.6733(4) 0.0593(2)
H61 H 0.8930 0.6112 0.0489
H62 H 0.8291 0.6560 0.0934
C62 C 0.9992(4) 0.7721(4) 0.0726(2)
H63 H 0.9971 0.8099 0.1082
H64 H 1.0676 0.7516 0.0769
C63 C 1.0108(4) 0.8416(4) 0.0203(2)
H65 H 1.0530 0.9181 0.0314
H66 H 1.0557 0.8254 -0.0094
C64 C 0.8793(4) 0.8119(4) -0.0016(2)
H67 H 0.8463 0.8558 0.0184
H68 H 0.8737 0.8226 -0.0434
C65 C 0.7298(5) 0.4584(5) -0.1401(3)
H69 H 0.7132 0.4849 -0.1775
H70 H 0.6547 0.3982 -0.1294
C66 C 0.8317(5) 0.4235(5) -0.1437(3)
H71 H 0.8196 0.3629 -0.1185
H72 H 0.8375 0.4028 -0.1836
C67 C 0.9421(5) 0.5200(5) -0.1234(3)
H73 H 0.9915 0.5006 -0.0945
H74 H 0.9920 0.5525 -0.1561
C68 C 0.9018(5) 0.5966(5) -0.0975(3)
H75 H 0.9400 0.6185 -0.0581
H76 H 0.9249 0.6609 -0.1209
C69 C 0.8248(6) 0.8034(7) 0.5564(3)
H77 H 0.7888 0.7749 0.5931
H78 H 0.7839 0.8459 0.5394
C70 C 0.9555(7) 0.8700(7) 0.5666(4)
H79 H 0.9883 0.8483 0.6016
H80 H 0.9719 0.9459 0.5711
C71 C 1.0116(7) 0.8519(6) 0.5140(4)
H81 H 1.0895 0.8485 0.5249
H82 H 1.0263 0.9101 0.4867
C72 C 0.9201(5) 0.7466(6) 0.4873(3)
H83 H 0.9041 0.7541 0.4458
H84 H 0.9514 0.6916 0.4918
Na3A Na 0.37272(13) 0.41836(12) 0.03930(7)
Na4A Na 0.38081(14) 0.39475(13) 0.52517(7)
O2A O 0.4979(2) 0.3934(2) -0.03105(12)
O4A O 0.5748(3) 0.6466(2) -0.12557(12)
O8A O 0.4451(3) 0.5787(2) 0.52054(12)
loop_
_geom_bond_atom_site_label_1
_geom_bond_atom_site_label_2
_geom_bond_site_symmetry_1
_geom_bond_site_symmetry_2
Na1 O1 1_555 1_555
Na2 O3 1_555 1_555
Na3 O2 1_555 1_555
Na4 O6 1_555 1_555
O1 H1 1_555 1_555
O2 C12 1_555 1_555
O3 Na1 1_555 1_555
O4 H2 1_555 1_555
O5 Na1 1_555 1_555
O6 H3 1_555 1_555
O7 Na2 1_555 1_555
H4 O7 1_555 1_555
O8 Na4 1_555 1_555
O9 Na1 1_555 1_555
O10 Na2 1_555 1_555
O11 Na2 1_555 1_555
O12 Na3 1_555 1_555
O13 Na3 1_555 1_555
O14 Na4 1_555 1_555
C1 O1 1_555 1_555
C2 C1 1_555 1_555
H5 C2 1_555 1_555
C3 C2 1_555 1_555
H6 C3 1_555 1_555
C4 C3 1_555 1_555
H7 C4 1_555 1_555
C5 C4 1_555 1_555
H8 C5 1_555 1_555
C6 C1 1_555 1_555
C7 C6 1_555 1_555
C8 C7 1_555 1_555
H9 C8 1_555 1_555
C9 C8 1_555 1_555
H10 C9 1_555 1_555
C10 C9 1_555 1_555
H11 C10 1_555 1_555
C11 C10 1_555 1_555
H12 C11 1_555 1_555
C12 C7 1_555 1_555
C13 O3 1_555 1_555
C14 C13 1_555 1_555
H13 C14 1_555 1_555
C15 C14 1_555 1_555
H14 C15 1_555 1_555
C16 C15 1_555 1_555
H15 C16 1_555 1_555
C17 C16 1_555 1_555
H16 C17 1_555 1_555
C18 C13 1_555 1_555
C19 C18 1_555 1_555
C20 C19 1_555 1_555
H17 C20 1_555 1_555
C21 C20 1_555 1_555
H18 C21 1_555 1_555
C22 C21 1_555 1_555
H19 C22 1_555 1_555
C23 C22 1_555 1_555
H20 C23 1_555 1_555
C24 O4 1_555 1_555
C25 O5 1_555 1_555
C26 C25 1_555 1_555
H21 C26 1_555 1_555
C27 C26 1_555 1_555
H22 C27 1_555 1_555
C28 C27 1_555 1_555
H23 C28 1_555 1_555
C29 C28 1_555 1_555
H24 C29 1_555 1_555
C30 C25 1_555 1_555
C31 C30 1_555 1_555
C32 C31 1_555 1_555
H25 C32 1_555 1_555
C33 C32 1_555 1_555
H26 C33 1_555 1_555
C34 C33 1_555 1_555
H27 C34 1_555 1_555
C35 C34 1_555 1_555
H28 C35 1_555 1_555
C36 O6 1_555 1_555
C37 O7 1_555 1_555
C38 C37 1_555 1_555
H29 C38 1_555 1_555
C39 C38 1_555 1_555
H30 C39 1_555 1_555
C40 C39 1_555 1_555
H31 C40 1_555 1_555
C41 C40 1_555 1_555
H32 C41 1_555 1_555
C42 C37 1_555 1_555
C43 C42 1_555 1_555
C44 C43 1_555 1_555
H33 C44 1_555 1_555
C45 C44 1_555 1_555
H34 C45 1_555 1_555
C46 C45 1_555 1_555
H35 C46 1_555 1_555
C47 C46 1_555 1_555
H36 C47 1_555 1_555
C48 O8 1_555 1_555
C49 O9 1_555 1_555
H37 C49 1_555 1_555
H38 C49 1_555 1_555
C50 C49 1_555 1_555
H39 C50 1_555 1_555
H40 C50 1_555 1_555
C51 C50 1_555 1_555
H41 C51 1_555 1_555
H42 C51 1_555 1_555
C52 O9 1_555 1_555
H43 C52 1_555 1_555
H44 C52 1_555 1_555
C53 O10 1_555 1_555
H45 C53 1_555 1_555
H46 C53 1_555 1_555
C54 C53 1_555 1_555
H47 C54 1_555 1_555
H48 C54 1_555 1_555
C55 C54 1_555 1_555
H49 C55 1_555 1_555
H50 C55 1_555 1_555
C56 O10 1_555 1_555
H51 C56 1_555 1_555
H52 C56 1_555 1_555
C57 O11 1_555 1_555
H53 C57 1_555 1_555
H54 C57 1_555 1_555
C58 C57 1_555 1_555
H55 C58 1_555 1_555
H56 C58 1_555 1_555
C59 C58 1_555 1_555
H57 C59 1_555 1_555
H58 C59 1_555 1_555
C60 O11 1_555 1_555
H59 C60 1_555 1_555
H60 C60 1_555 1_555
C61 O12 1_555 1_555
H61 C61 1_555 1_555
H62 C61 1_555 1_555
C62 C61 1_555 1_555
H63 C62 1_555 1_555
H64 C62 1_555 1_555
C63 C62 1_555 1_555
H65 C63 1_555 1_555
H66 C63 1_555 1_555
C64 O12 1_555 1_555
H67 C64 1_555 1_555
H68 C64 1_555 1_555
C65 O13 1_555 1_555
H69 C65 1_555 1_555
H70 C65 1_555 1_555
C66 C65 1_555 1_555
H71 C66 1_555 1_555
H72 C66 1_555 1_555
C67 C66 1_555 1_555
H73 C67 1_555 1_555
H74 C67 1_555 1_555
C68 O13 1_555 1_555
H75 C68 1_555 1_555
H76 C68 1_555 1_555
C69 O14 1_555 1_555
H77 C69 1_555 1_555
H78 C69 1_555 1_555
C70 C69 1_555 1_555
H79 C70 1_555 1_555
H80 C70 1_555 1_555
C71 C70 1_555 1_555
H81 C71 1_555 1_555
H82 C71 1_555 1_555
C72 O14 1_555 1_555
H83 C72 1_555 1_555
H84 C72 1_555 1_555
Na3A O2 1_555 1_555
Na4A O8 1_555 1_555
O2A Na3 1_555 1_555
O4A Na3 1_555 1_555
O8A Na4 1_555 1_555
Na2 O5 1_555 1_555
O4 Na3A 1_555 1_555
C5 C6 1_555 1_555
C11 C12 1_555 1_555
C17 C18 1_555 1_555
C19 C24 1_555 1_555
C23 C24 1_555 1_555
C29 C30 1_555 1_555
C31 C36 1_555 1_555
C35 C36 1_555 1_555
C41 C42 1_555 1_555
C43 C48 1_555 1_555
C47 C48 1_555 1_555
C51 C52 1_555 1_555
C55 C56 1_555 1_555
C59 C60 1_555 1_555
C63 C64 1_555 1_555
C67 C68 1_555 1_555
C71 C72 1_555 1_555
Na3A O2A 1_555 1_555
Na4A O8A 1_555 1_555

#END
