
#######################################################################
#
#                 Cambridge Crystallographic Data Centre
#                                CCDC 
#
#######################################################################
#
# If this CIF has been generated from an entry in the Cambridge 
# Structural Database, then it will include bibliographic, chemical, 
# crystal, experimental, refinement or atomic coordinate data resulting 
# from the CCDC's data processing and validation procedures.
#
#######################################################################

data_UDUGEH
_symmetry_cell_setting           triclinic
_symmetry_space_group_name_H-M   'P -1'
_symmetry_Int_Tables_number      2
_space_group_name_Hall           '-P 1'
loop_
_symmetry_equiv_pos_site_id
_symmetry_equiv_pos_as_xyz
1 x,y,z
2 -x,-y,-z
_cell_length_a                   9.234(4)
_cell_length_b                   9.365(5)
_cell_length_c                   10.594(4)
_cell_angle_alpha                80.08(6)
_cell_angle_beta                 75.52(5)
_cell_angle_gamma                76.39(6)
_cell_volume                     855.836
loop_
_atom_site_label
_atom_site_type_symbol
_atom_site_fract_x
_atom_site_fract_y
_atom_site_fract_z
Tb1 Tb 0.91209(3) 0.07156(3) 0.68010(3)
Co1 Co 1.0000 0.0000 1.0000
O1 O 1.1685(5) -0.0335(6) 0.6792(5)
O2 O 1.0225(6) 0.2842(5) 0.5765(5)
C1 C 1.2556(7) -0.0626(8) 0.7595(7)
O3 O 0.9058(5) -0.1051(5) 0.8875(5)
O4 O 0.9378(6) 0.1835(5) 0.8627(5)
O5 O 0.6941(6) -0.0252(7) 0.8182(6)
O6 O 0.7395(6) 0.2884(6) 0.7807(6)
O7 O 1.0568(5) 0.1261(5) 0.4381(5)
C2 C 0.7683(16) 0.3912(10) 0.9604(11)
H1 H 0.8396 0.3713 1.0165
H2 H 0.6685 0.3836 1.0125
H3 H 0.7655 0.4892 0.9146
O8 O 0.7315(6) 0.1553(7) 0.5502(5)
O9 O 1.2099(5) -0.0537(6) 0.8806(5)
C3 C 0.6810(12) -0.1917(10) 1.0186(9)
H4 H 0.7518 -0.2435 1.0718
H5 H 0.6404 -0.2618 0.9885
H6 H 0.5992 -0.1272 1.0696
C4 C 0.8165(9) 0.2820(7) 0.8640(7)
C5 C 0.7622(8) -0.1015(8) 0.9020(7)
C6 C 1.4231(9) -0.1143(13) 0.7075(9)
H7 H 1.4423 -0.1175 0.6146
H8 H 1.4562 -0.2115 0.7501
H9 H 1.4782 -0.0472 0.7244
C7 C 1.1664(11) 0.3428(9) 0.3607(9)
H10 H 1.2011 0.2971 0.2811
H11 H 1.2527 0.3547 0.3900
H12 H 1.1024 0.4379 0.3448
C8 C 1.0773(7) 0.2471(7) 0.4641(7)
H13 H 0.641(8) 0.225(11) 0.584(13)
H14 H 0.684(15) 0.097(16) 0.513(17)
Tb1A Tb 1.08791(3) -0.07156(3) 0.31990(3)
O1A O 0.8315(5) 0.0335(6) 0.3208(5)
O2A O 0.9775(6) -0.2842(5) 0.4235(5)
C1A C 0.7444(7) 0.0626(8) 0.2405(7)
O3A O 1.0942(5) 0.1051(5) 0.1125(5)
O4A O 1.0622(6) -0.1835(5) 0.1373(5)
O5A O 1.3059(6) 0.0252(7) 0.1818(6)
O6A O 1.2605(6) -0.2884(6) 0.2193(6)
O7A O 0.9432(5) -0.1261(5) 0.5619(5)
C2A C 1.2317(16) -0.3912(10) 0.0396(11)
H1A H 1.1604 -0.3713 -0.0165
H2A H 1.3315 -0.3836 -0.0125
H3A H 1.2345 -0.4892 0.0854
O8A O 1.2685(6) -0.1553(7) 0.4498(5)
O9A O 0.7901(5) 0.0537(6) 0.1194(5)
C3A C 1.3190(12) 0.1917(10) -0.0186(9)
H4A H 1.2482 0.2435 -0.0718
H5A H 1.3596 0.2618 0.0115
H6A H 1.4008 0.1272 -0.0696
C4A C 1.1835(9) -0.2820(7) 0.1360(7)
C5A C 1.2378(8) 0.1015(8) 0.0980(7)
C6A C 0.5769(9) 0.1143(13) 0.2925(9)
H7A H 0.5577 0.1175 0.3854
H8A H 0.5438 0.2115 0.2499
H9A H 0.5218 0.0472 0.2756
C7A C 0.8336(11) -0.3428(9) 0.6393(9)
H10A H 0.7989 -0.2971 0.7189
H11A H 0.7473 -0.3547 0.6100
H12A H 0.8976 -0.4379 0.6552
C8A C 0.9227(7) -0.2471(7) 0.5359(7)
H13A H 1.359(8) -0.225(11) 0.416(13)
H14A H 1.316(15) -0.097(16) 0.487(17)
Co1_2 Co 1.0000 0.0000 0.0000
O3A_2 O 1.0942(5) 0.1051(5) 1.1125(5)
O4A_2 O 1.0622(6) -0.1835(5) 1.1373(5)
O9A_2 O 0.7901(5) 0.0537(6) 1.1194(5)
O10 O 0.4642(8) 0.4578(8) 0.7540(8)
H15 H 0.5508 0.4074 0.7465
C9 C 0.3940(11) 0.4201(11) 0.6737(11)
O11 O 0.4493(10) 0.3206(12) 0.6077(11)
C10 C 0.2343(13) 0.5014(17) 0.6744(14)
H16 H 0.2064 0.5752 0.7336
H17 H 0.1664 0.4331 0.7026
H18 H 0.2274 0.5483 0.5875
loop_
_geom_bond_atom_site_label_1
_geom_bond_atom_site_label_2
_geom_bond_site_symmetry_1
_geom_bond_site_symmetry_2
Tb1 O1 1_555 1_555
Co1 O3 1_555 1_555
O1 C1 1_555 1_555
O2 Tb1 1_555 1_555
C1 O9 1_555 1_555
O3 Tb1 1_555 1_555
O4 Tb1 1_555 1_555
O5 Tb1 1_555 1_555
O6 Tb1 1_555 1_555
O7 Tb1 1_555 1_555
C2 H1 1_555 1_555
H2 C2 1_555 1_555
H3 C2 1_555 1_555
O8 Tb1 1_555 1_555
O9 Co1 1_555 1_555
C3 H4 1_555 1_555
H5 C3 1_555 1_555
H6 C3 1_555 1_555
C4 O4 1_555 1_555
C5 O3 1_555 1_555
C6 C1 1_555 1_555
H7 C6 1_555 1_555
H8 C6 1_555 1_555
H9 C6 1_555 1_555
C7 H10 1_555 1_555
H11 C7 1_555 1_555
H12 C7 1_555 1_555
C8 O2 1_555 1_555
H13 O8 1_555 1_555
H14 O8 1_555 1_555
O10 H15 1_555 1_555
C9 O10 1_555 1_555
O11 C9 1_555 1_555
C10 C9 1_555 1_555
H16 C10 1_555 1_555
H17 C10 1_555 1_555
H18 C10 1_555 1_555
Tb1A O7 1_555 1_555
O1A Tb1A 1_555 1_555
O2A Tb1A 1_555 1_555
C1A O1A 1_555 1_555
O3A Tb1A 1_555 1_555
O4A Tb1A 1_555 1_555
O5A Tb1A 1_555 1_555
O6A Tb1A 1_555 1_555
O7A Tb1 1_555 1_555
C2A H1A 1_555 1_555
H2A C2A 1_555 1_555
H3A C2A 1_555 1_555
O8A Tb1A 1_555 1_555
O9A C1A 1_555 1_555
C3A H4A 1_555 1_555
H5A C3A 1_555 1_555
H6A C3A 1_555 1_555
C4A O4A 1_555 1_555
C5A O3A 1_555 1_555
C6A C1A 1_555 1_555
H7A C6A 1_555 1_555
H8A C6A 1_555 1_555
H9A C6A 1_555 1_555
C7A H10A 1_555 1_555
H11A C7A 1_555 1_555
H12A C7A 1_555 1_555
C8A O2A 1_555 1_555
H13A O8A 1_555 1_555
H14A O8A 1_555 1_555
Co1_2 O3A 1_555 1_555
O3A_2 Co1 1_555 1_555
O4A_2 Co1 1_555 1_555
O9A_2 Co1 1_555 1_555
Co1 O4 1_555 1_555
O5 C5 1_555 1_555
O6 C4 1_555 1_555
O7 C8 1_555 1_555
C2 C4 1_555 1_555
C3 C5 1_555 1_555
C7 C8 1_555 1_555
Tb1A O7A 1_555 1_555
O4A Co1_2 1_555 1_555
O5A C5A 1_555 1_555
O6A C4A 1_555 1_555
O7A C8A 1_555 1_555
C2A C4A 1_555 1_555
O9A Co1_2 1_555 1_555
C3A C5A 1_555 1_555
C7A C8A 1_555 1_555

#END
