
#######################################################################
#
#                 Cambridge Crystallographic Data Centre
#                                CCDC 
#
#######################################################################
#
# If this CIF has been generated from an entry in the Cambridge 
# Structural Database, then it will include bibliographic, chemical, 
# crystal, experimental, refinement or atomic coordinate data resulting 
# from the CCDC's data processing and validation procedures.
#
#######################################################################

data_UDUHUY
_symmetry_cell_setting           tetragonal
_symmetry_space_group_name_H-M   'I -4 2 d'
_symmetry_Int_Tables_number      122
_space_group_name_Hall           'I -4 2bw'
loop_
_symmetry_equiv_pos_site_id
_symmetry_equiv_pos_as_xyz
1 x,y,z
2 -x,-y,z
3 x,1/2-y,1/4-z
4 -x,1/2+y,1/4-z
5 y,1/2+x,1/4+z
6 -y,1/2-x,1/4+z
7 -y,x,-z
8 y,-x,-z
9 1/2+x,1/2+y,1/2+z
10 1/2-x,1/2-y,1/2+z
11 1/2+x,-y,3/4-z
12 1/2-x,y,3/4-z
13 1/2+y,x,3/4+z
14 1/2-y,-x,3/4+z
15 1/2-y,1/2+x,1/2-z
16 1/2+y,1/2-x,1/2-z
_cell_length_a                   23.6091(13)
_cell_length_b                   23.6091(13)
_cell_length_c                   13.4932(8)
_cell_angle_alpha                90
_cell_angle_beta                 90
_cell_angle_gamma                90
_cell_volume                     7520.97
loop_
_atom_site_label
_atom_site_type_symbol
_atom_site_fract_x
_atom_site_fract_y
_atom_site_fract_z
Er1 Er 1.2500 1.003002(16) 0.8750
Mn1 Mn 1.10291(3) 1.01813(3) 1.00423(7)
O1 O 1.2144(2) 1.0813(2) 0.7846(4)
O2 O 1.16370(16) 1.05619(17) 0.9096(4)
O3 O 1.2631(2) 0.9770(2) 0.7157(4)
O4 O 1.33820(14) 1.00449(19) 0.6312(3)
O5 O 1.17982(18) 0.93880(18) 0.8572(5)
O6 O 1.09984(14) 0.93197(13) 0.9386(3)
O7 O 1.03803(13) 0.97203(14) 1.0988(3)
C1 C 1.1719(3) 1.0892(3) 0.8391(6)
C2 C 1.1331(4) 1.1381(5) 0.8204(11)
H1 H 1.0955 1.1231 0.8082
H2 H 1.1311 1.1605 0.8806
C3 C 1.1476(6) 1.1769(7) 0.7374(18)
H3 H 1.1156 1.2008 0.7204
H4 H 1.1589 1.1556 0.6791
C4 C 1.1956(12) 1.2113(10) 0.776(2)
H5 H 1.2076 1.2377 0.7261
H6 H 1.2265 1.1868 0.7930
H7 H 1.1835 1.2317 0.8339
C5 C 1.2869(2) 0.9930(3) 0.6382(5)
C6 C 1.2515(3) 0.9989(5) 0.5477(7)
H8 H 1.2533 1.0382 0.5266
H9 H 1.2687 0.9764 0.4958
C7 C 1.1915(4) 0.9829(10) 0.5544(11)
H10 H 1.1767 0.9940 0.6185
H11 H 1.1881 0.9421 0.5487
C8 C 1.1579(8) 1.0106(13) 0.4744(17)
H12 H 1.1183 1.0039 0.4854
H13 H 1.1687 0.9952 0.4113
H14 H 1.1651 1.0506 0.4748
C9 C 1.1406(2) 0.9104(2) 0.8886(5)
C10 C 1.1405(4) 0.8479(3) 0.8709(10)
H15 H 1.1018 0.8354 0.8611
H16 H 1.1550 0.8290 0.9295
C11 C 1.1753(7) 0.8299(5) 0.7828(16)
H17 H 1.2088 0.8536 0.7793
H18 H 1.1878 0.7912 0.7929
C12 C 1.1448(16) 0.833(2) 0.686(2)
H19 H 1.1708 0.8258 0.6330
H20 H 1.1290 0.8705 0.6782
H21 H 1.1149 0.8057 0.6848
C13 C 1.0000 1.0000 1.1414(5)
C14 C 0.9858(8) 0.9765(8) 1.2429(9)
C15 C 0.980(3) 1.0245(15) 1.3149(19)
C16 C 1.0000 1.0000 1.412(3)
O7A O 0.96197(13) 1.02797(14) 1.0988(3)
C14A C 1.0142(8) 1.0235(8) 1.2429(9)
C15A C 1.020(3) 0.9755(15) 1.3149(19)
Mn1A Mn 0.89709(3) 0.98187(3) 1.00423(7)
O1A O 0.7856(2) 0.9187(2) 0.7846(4)
O2A O 0.83630(16) 0.94381(17) 0.9096(4)
O5A O 0.82018(18) 1.06120(18) 0.8572(5)
O6A O 0.90016(14) 1.06803(13) 0.9386(3)
C1A C 0.8281(3) 0.9108(3) 0.8391(6)
C2A C 0.8669(4) 0.8619(5) 0.8204(11)
H1A H 0.9045 0.8769 0.8082
H2A H 0.8689 0.8395 0.8806
C3A C 0.8524(6) 0.8231(7) 0.7374(18)
H3A H 0.8844 0.7992 0.7204
H4A H 0.8411 0.8444 0.6791
C4A C 0.8044(12) 0.7887(10) 0.776(2)
H5A H 0.7924 0.7623 0.7261
H6A H 0.7735 0.8132 0.7930
H7A H 0.8165 0.7683 0.8339
C9A C 0.8594(2) 1.0896(2) 0.8886(5)
C10A C 0.8595(4) 1.1521(3) 0.8709(10)
H15A H 0.8982 1.1646 0.8611
H16A H 0.8450 1.1710 0.9295
C11A C 0.8247(7) 1.1701(5) 0.7828(16)
H17A H 0.7912 1.1464 0.7793
H18A H 0.8122 1.2088 0.7929
C12A C 0.8552(16) 1.167(2) 0.686(2)
H19A H 0.8292 1.1742 0.6330
H20A H 0.8710 1.1295 0.6782
H21A H 0.8851 1.1943 0.6848
O3K O 1.2369(2) 0.9770(2) 1.0343(4)
O4K O 1.16180(14) 1.00449(19) 1.1188(3)
C5K C 1.2131(2) 0.9930(3) 1.1118(5)
C6K C 1.2485(3) 0.9989(5) 1.2023(7)
H8K H 1.2467 1.0382 1.2234
H9K H 1.2313 0.9764 1.2542
C7K C 1.3085(4) 0.9829(10) 1.1956(11)
H10K H 1.3233 0.9940 1.1315
H11K H 1.3119 0.9421 1.2013
C8K C 1.3421(8) 1.0106(13) 1.2756(17)
H12K H 1.3817 1.0039 1.2646
H13K H 1.3313 0.9952 1.3387
H14K H 1.3349 1.0506 1.2752
Er1A Er 0.7500 0.996998(16) 0.8750
Mn1F Mn 0.98187(3) 1.10291(3) 0.99577(7)
Mn1G Mn 1.01813(3) 0.89709(3) 0.99577(7)
Mn1K Mn 1.39709(3) 1.01813(3) 0.74577(7)
O1K O 1.2856(2) 1.0813(2) 0.9654(4)
O2K O 1.33630(16) 1.05619(17) 0.8404(4)
O4J O 0.83820(14) 0.99551(19) 1.1188(3)
O5K O 1.32018(18) 0.93880(18) 0.8928(5)
O6F O 1.06803(13) 1.09984(14) 1.0614(3)
O6G O 0.93197(13) 0.90016(14) 1.0614(3)
O7F O 1.02797(14) 1.03803(13) 0.9012(3)
O7G O 0.97203(14) 0.96197(13) 0.9012(3)
loop_
_geom_bond_atom_site_label_1
_geom_bond_atom_site_label_2
_geom_bond_site_symmetry_1
_geom_bond_site_symmetry_2
Er1 O1 1_555 1_555
Mn1 O2 1_555 1_555
O1 C1 1_555 1_555
O2 Er1 1_555 1_555
O3 Er1 1_555 1_555
O4 C5 1_555 1_555
O5 Er1 1_555 1_555
O6 Mn1 1_555 1_555
O7 Mn1 1_555 1_555
C1 O2 1_555 1_555
C2 C1 1_555 1_555
H1 C2 1_555 1_555
H2 C2 1_555 1_555
C3 C2 1_555 1_555
H3 C3 1_555 1_555
H4 C3 1_555 1_555
C4 C3 1_555 1_555
H5 C4 1_555 1_555
H6 C4 1_555 1_555
H7 C4 1_555 1_555
C5 O3 1_555 1_555
C6 C5 1_555 1_555
H8 C6 1_555 1_555
H9 C6 1_555 1_555
C7 C6 1_555 1_555
H10 C7 1_555 1_555
H11 C7 1_555 1_555
C8 C7 1_555 1_555
H12 C8 1_555 1_555
H13 C8 1_555 1_555
H14 C8 1_555 1_555
C9 O5 1_555 1_555
C10 C9 1_555 1_555
H15 C10 1_555 1_555
H16 C10 1_555 1_555
C11 C10 1_555 1_555
H17 C11 1_555 1_555
H18 C11 1_555 1_555
C12 C11 1_555 1_555
H19 C12 1_555 1_555
H20 C12 1_555 1_555
H21 C12 1_555 1_555
C13 O7 1_555 1_555
C14 C13 1_555 1_555
C15 C14 1_555 1_555
C16 C15 1_555 1_555
O7A C13 1_555 1_555
C14A C13 1_555 1_555
C15A C14 1_555 1_555
Mn1A O7A 1_555 1_555
O1A C1A 1_555 1_555
O2A Mn1A 1_555 1_555
O5A C9A 1_555 1_555
O6A Mn1A 1_555 1_555
C1A O2A 1_555 1_555
C2A C1A 1_555 1_555
H1A C2A 1_555 1_555
H2A C2A 1_555 1_555
C3A C2A 1_555 1_555
H3A C3A 1_555 1_555
H4A C3A 1_555 1_555
C4A C3A 1_555 1_555
H5A C4A 1_555 1_555
H6A C4A 1_555 1_555
H7A C4A 1_555 1_555
C9A O6A 1_555 1_555
C10A C9A 1_555 1_555
H15A C10A 1_555 1_555
H16A C10A 1_555 1_555
C11A C10A 1_555 1_555
H17A C11A 1_555 1_555
H18A C11A 1_555 1_555
C12A C11A 1_555 1_555
H19A C12A 1_555 1_555
H20A C12A 1_555 1_555
H21A C12A 1_555 1_555
O3K Er1 1_555 1_555
O4K Mn1 1_555 1_555
C5K O3K 1_555 1_555
C6K C5K 1_555 1_555
H8K C6K 1_555 1_555
H9K C6K 1_555 1_555
C7K C6K 1_555 1_555
H10K C7K 1_555 1_555
H11K C7K 1_555 1_555
C8K C7K 1_555 1_555
H12K C8K 1_555 1_555
H13K C8K 1_555 1_555
H14K C8K 1_555 1_555
Er1A O1A 1_555 1_555
Mn1F O7A 1_555 1_555
Mn1G O6 1_555 1_555
Mn1K O4 1_555 1_555
O1K Er1 1_555 1_555
O2K Er1 1_555 1_555
O4J Mn1A 1_555 1_555
O5K Er1 1_555 1_555
O6F Mn1 1_555 1_555
O6G Mn1A 1_555 1_555
O7F Mn1 1_555 1_555
O7G Mn1A 1_555 1_555
O6 C9 1_555 1_555
O7 Mn1G 1_555 1_555
C14 C14A 1_555 1_555
C15 C14A 1_555 1_555
C15 C15A 1_555 1_555
C16 C15A 1_555 1_555
C14A C15A 1_555 1_555
O2A Er1A 1_555 1_555
O5A Er1A 1_555 1_555
O6A Mn1F 1_555 1_555
O4K C5K 1_555 1_555
Mn1F O6F 1_555 1_555
Mn1F O7F 1_555 1_555
Mn1G O6G 1_555 1_555
Mn1G O7G 1_555 1_555
Mn1K O2K 1_555 1_555

#END
