
#######################################################################
#
#                 Cambridge Crystallographic Data Centre
#                                CCDC 
#
#######################################################################
#
# If this CIF has been generated from an entry in the Cambridge 
# Structural Database, then it will include bibliographic, chemical, 
# crystal, experimental, refinement or atomic coordinate data resulting 
# from the CCDC's data processing and validation procedures.
#
#######################################################################

data_UDUHAE
_symmetry_cell_setting           triclinic
_symmetry_space_group_name_H-M   'P -1'
_symmetry_Int_Tables_number      2
_space_group_name_Hall           '-P 1'
loop_
_symmetry_equiv_pos_site_id
_symmetry_equiv_pos_as_xyz
1 x,y,z
2 -x,-y,-z
_cell_length_a                   9.185(3)
_cell_length_b                   9.353(2)
_cell_length_c                   10.602(2)
_cell_angle_alpha                80.03(3)
_cell_angle_beta                 75.47(3)
_cell_angle_gamma                76.72(3)
_cell_volume                     851.61
loop_
_atom_site_label
_atom_site_type_symbol
_atom_site_fract_x
_atom_site_fract_y
_atom_site_fract_z
Eu1 Eu 0.08818(15) 0.92832(14) 0.31979(9)
Co1 Co 0.0000 1.0000 0.0000
O1 O -0.1716(16) 1.0397(19) 0.3213(11)
O2 O -0.025(2) 0.7154(18) 0.4240(13)
C1 C -0.258(3) 1.061(3) 0.2414(17)
O3 O 0.098(2) 1.1042(16) 0.1112(11)
O4 O 0.063(2) 0.8145(17) 0.1385(11)
O5 O 0.3075(18) 1.027(2) 0.1805(14)
O6 O 0.261(2) 0.7108(19) 0.2177(14)
O7 O -0.0587(17) 0.8755(18) 0.5606(10)
C2 C 0.228(4) 0.605(4) 0.040(2)
H1 H 0.1555 0.6266 -0.0149
H2 H 0.2294 0.5064 0.0856
H3 H 0.3286 0.6110 -0.0130
O8 O 0.271(2) 0.840(2) 0.4463(15)
O9 O -0.2098(19) 1.0515(19) 0.1196(13)
C3 C 0.324(3) 1.192(3) -0.015(2)
H4 H 0.2550 1.2452 -0.0700
H5 H 0.4073 1.1290 -0.0656
H6 H 0.3625 1.2614 0.0184
C4 C 0.183(3) 0.716(3) 0.140(2)
C5 C 0.240(2) 1.101(3) 0.0961(18)
C6 C -0.419(3) 1.118(4) 0.289(2)
H7 H -0.4391 1.1215 0.3819
H8 H -0.4784 1.0548 0.2716
H9 H -0.4460 1.2160 0.2454
C7 C -0.167(3) 0.659(3) 0.641(2)
H10 H -0.2011 0.7063 0.7198
H11 H -0.1031 0.5646 0.6577
H12 H -0.2543 0.6465 0.6129
C8 C -0.078(3) 0.754(3) 0.5358(18)
H13 H 0.370(9) 0.777(17) 0.432(14)
H14 H 0.26(3) 0.84(4) 0.538(9)
Eu1A Eu -0.08818(15) 1.07168(14) -0.31979(9)
O1A O 0.1716(16) 0.9603(19) -0.3213(11)
O2A O 0.025(2) 1.2846(18) -0.4240(13)
C1A C 0.258(3) 0.939(3) -0.2414(17)
O3A O -0.098(2) 0.8958(16) -0.1112(11)
O4A O -0.063(2) 1.1855(17) -0.1385(11)
O5A O -0.3075(18) 0.973(2) -0.1805(14)
O6A O -0.261(2) 1.2892(19) -0.2177(14)
O7A O 0.0587(17) 1.1245(18) -0.5606(10)
C2A C -0.228(4) 1.395(4) -0.040(2)
H1A H -0.1555 1.3734 0.0149
H2A H -0.2294 1.4936 -0.0856
H3A H -0.3286 1.3890 0.0130
O8A O -0.271(2) 1.160(2) -0.4463(15)
O9A O 0.2098(19) 0.9485(19) -0.1196(13)
C3A C -0.324(3) 0.808(3) 0.015(2)
H4A H -0.2550 0.7548 0.0700
H5A H -0.4073 0.8710 0.0656
H6A H -0.3625 0.7386 -0.0184
C4A C -0.183(3) 1.284(3) -0.140(2)
C5A C -0.240(2) 0.899(3) -0.0961(18)
C6A C 0.419(3) 0.882(4) -0.289(2)
H7A H 0.4391 0.8785 -0.3819
H8A H 0.4784 0.9452 -0.2716
H9A H 0.4460 0.7840 -0.2454
C7A C 0.167(3) 1.341(3) -0.641(2)
H10A H 0.2011 1.2937 -0.7198
H11A H 0.1031 1.4354 -0.6577
H12A H 0.2543 1.3535 -0.6129
C8A C 0.078(3) 1.246(3) -0.5358(18)
H13A H -0.370(9) 1.223(17) -0.432(14)
H14A H -0.26(3) 1.16(4) -0.538(9)
Eu1_2 Eu 0.08818(15) 0.92832(14) -0.68021(9)
Eu1A_2 Eu -0.08818(15) 1.07168(14) 0.68021(9)
O7_2 O -0.0587(17) 0.8755(18) -0.4394(10)
O7A_2 O 0.0587(17) 1.1245(18) 0.4394(10)
O10 O 0.540(2) 0.539(2) 0.2489(19)
H15 H 0.4530 0.5887 0.2552
C9 C 0.606(4) 0.578(4) 0.328(3)
O11 O 0.552(3) 0.684(3) 0.391(2)
C10 C 0.765(4) 0.499(4) 0.328(3)
H16 H 0.7941 0.4250 0.2689
H17 H 0.7713 0.4522 0.4150
H18 H 0.8331 0.5680 0.3000
loop_
_geom_bond_atom_site_label_1
_geom_bond_atom_site_label_2
_geom_bond_site_symmetry_1
_geom_bond_site_symmetry_2
Eu1 O1 1_555 1_555
Co1 O3 1_555 1_555
O1 C1 1_555 1_555
O2 Eu1 1_555 1_555
C1 O9 1_555 1_555
O3 Eu1 1_555 1_555
O4 Eu1 1_555 1_555
O5 Eu1 1_555 1_555
O6 Eu1 1_555 1_555
O7 Eu1 1_555 1_555
C2 H1 1_555 1_555
H2 C2 1_555 1_555
H3 C2 1_555 1_555
O8 Eu1 1_555 1_555
O9 Co1 1_555 1_555
C3 H4 1_555 1_555
H5 C3 1_555 1_555
H6 C3 1_555 1_555
C4 O4 1_555 1_555
C5 O3 1_555 1_555
C6 C1 1_555 1_555
H7 C6 1_555 1_555
H8 C6 1_555 1_555
H9 C6 1_555 1_555
C7 H10 1_555 1_555
H11 C7 1_555 1_555
H12 C7 1_555 1_555
C8 O2 1_555 1_555
H13 O8 1_555 1_555
H14 O8 1_555 1_555
O10 H15 1_555 1_555
C9 O10 1_555 1_555
O11 C9 1_555 1_555
C10 C9 1_555 1_555
H16 C10 1_555 1_555
H17 C10 1_555 1_555
H18 C10 1_555 1_555
Eu1A O1A 1_555 1_555
O1A C1A 1_555 1_555
O2A Eu1A 1_555 1_555
C1A O9A 1_555 1_555
O3A Co1 1_555 1_555
O4A Co1 1_555 1_555
O5A Eu1A 1_555 1_555
O6A Eu1A 1_555 1_555
O7A Eu1A 1_555 1_555
C2A H1A 1_555 1_555
H2A C2A 1_555 1_555
H3A C2A 1_555 1_555
O8A Eu1A 1_555 1_555
O9A Co1 1_555 1_555
C3A H4A 1_555 1_555
H5A C3A 1_555 1_555
H6A C3A 1_555 1_555
C4A O4A 1_555 1_555
C5A O3A 1_555 1_555
C6A C1A 1_555 1_555
H7A C6A 1_555 1_555
H8A C6A 1_555 1_555
H9A C6A 1_555 1_555
C7A H10A 1_555 1_555
H11A C7A 1_555 1_555
H12A C7A 1_555 1_555
C8A O2A 1_555 1_555
H13A O8A 1_555 1_555
H14A O8A 1_555 1_555
Eu1_2 O7A 1_555 1_555
Eu1A_2 O7 1_555 1_555
O7_2 Eu1A 1_555 1_555
O7A_2 Eu1 1_555 1_555
Co1 O4 1_555 1_555
O5 C5 1_555 1_555
O6 C4 1_555 1_555
O7 C8 1_555 1_555
C2 C4 1_555 1_555
C3 C5 1_555 1_555
C7 C8 1_555 1_555
Eu1A O3A 1_555 1_555
Eu1A O4A 1_555 1_555
O5A C5A 1_555 1_555
O6A C4A 1_555 1_555
O7A C8A 1_555 1_555
C2A C4A 1_555 1_555
C3A C5A 1_555 1_555
C7A C8A 1_555 1_555
Eu1_2 O7_2 1_555 1_555
Eu1A_2 O7A_2 1_555 1_555

#END
