
#######################################################################
#
#                 Cambridge Crystallographic Data Centre
#                                CCDC 
#
#######################################################################
#
# If this CIF has been generated from an entry in the Cambridge 
# Structural Database, then it will include bibliographic, chemical, 
# crystal, experimental, refinement or atomic coordinate data resulting 
# from the CCDC's data processing and validation procedures.
#
#######################################################################

data_UDUJOU
_symmetry_cell_setting           triclinic
_symmetry_space_group_name_H-M   'P -1'
_symmetry_Int_Tables_number      2
_space_group_name_Hall           '-P 1'
loop_
_symmetry_equiv_pos_site_id
_symmetry_equiv_pos_as_xyz
1 x,y,z
2 -x,-y,-z
_cell_length_a                   9.1422(14)
_cell_length_b                   9.3251(13)
_cell_length_c                   10.5417(14)
_cell_angle_alpha                80.305(16)
_cell_angle_beta                 75.470(17)
_cell_angle_gamma                77.340(17)
_cell_volume                     842.664
loop_
_atom_site_label
_atom_site_type_symbol
_atom_site_fract_x
_atom_site_fract_y
_atom_site_fract_z
Yb1 Yb 0.91250(3) 0.07177(3) 0.68036(3)
Co1 Co 1.0000 0.0000 1.0000
O1 O 1.1668(5) -0.0296(5) 0.6763(4)
O2 O 1.0229(6) 0.2794(5) 0.5757(5)
C1 C 1.2539(7) -0.0583(8) 0.7578(6)
O3 O 0.9062(5) -0.1073(5) 0.8858(5)
O4 O 0.9383(5) 0.1803(5) 0.8606(5)
O5 O 0.6958(5) -0.0216(6) 0.8154(5)
O6 O 0.7406(6) 0.2901(6) 0.7785(5)
O7 O 1.0592(5) 0.1228(5) 0.4343(5)
C2 C 0.7734(14) 0.3882(10) 0.9620(9)
H1 H 0.8465 0.3665 1.0172
H2 H 0.6731 0.3798 1.0154
H3 H 0.7717 0.4872 0.9178
O8 O 0.7356(6) 0.1543(6) 0.5521(4)
O9 O 1.2106(5) -0.0520(6) 0.8789(4)
C3 C 0.6741(10) -0.1899(9) 1.0138(9)
H4 H 0.7419 -0.2434 1.0691
H5 H 0.6328 -0.2586 0.9807
H6 H 0.5916 -0.1253 1.0641
C4 C 0.8184(8) 0.2814(7) 0.8622(7)
C5 C 0.7612(7) -0.1005(7) 0.9007(6)
C6 C 1.4227(8) -0.1125(12) 0.7019(8)
H7 H 1.4393 -0.1149 0.6086
H8 H 1.4541 -0.2102 0.7438
H9 H 1.4819 -0.0467 0.7176
C7 C 1.1661(10) 0.3430(8) 0.3592(9)
H10 H 1.2018 0.2985 0.2786
H11 H 1.2525 0.3574 0.3886
H12 H 1.1004 0.4368 0.3443
C8 C 1.0777(7) 0.2432(7) 0.4628(6)
H13 H 0.753(7) 0.113(6) 0.483(4)
H14 H 0.642(3) 0.179(13) 0.551(11)
Yb1A Yb 1.08750(3) -0.07177(3) 0.31964(3)
O1A O 0.8332(5) 0.0296(5) 0.3237(4)
O2A O 0.9771(6) -0.2794(5) 0.4243(5)
C1A C 0.7461(7) 0.0583(8) 0.2422(6)
O3A O 1.0938(5) 0.1073(5) 0.1142(5)
O4A O 1.0617(5) -0.1803(5) 0.1394(5)
O5A O 1.3042(5) 0.0216(6) 0.1846(5)
O6A O 1.2594(6) -0.2901(6) 0.2215(5)
O7A O 0.9408(5) -0.1228(5) 0.5657(5)
C2A C 1.2266(14) -0.3882(10) 0.0380(9)
H1A H 1.1535 -0.3665 -0.0172
H2A H 1.3269 -0.3798 -0.0154
H3A H 1.2283 -0.4872 0.0822
O8A O 1.2644(6) -0.1543(6) 0.4479(4)
O9A O 0.7894(5) 0.0520(6) 0.1211(4)
C3A C 1.3259(10) 0.1899(9) -0.0138(9)
H4A H 1.2581 0.2434 -0.0691
H5A H 1.3672 0.2586 0.0193
H6A H 1.4084 0.1253 -0.0641
C4A C 1.1816(8) -0.2814(7) 0.1378(7)
C5A C 1.2388(7) 0.1005(7) 0.0993(6)
C6A C 0.5773(8) 0.1125(12) 0.2981(8)
H7A H 0.5607 0.1149 0.3914
H8A H 0.5459 0.2102 0.2562
H9A H 0.5181 0.0467 0.2824
C7A C 0.8339(10) -0.3430(8) 0.6408(9)
H10A H 0.7982 -0.2985 0.7214
H11A H 0.7475 -0.3574 0.6114
H12A H 0.8996 -0.4368 0.6557
C8A C 0.9223(7) -0.2432(7) 0.5372(6)
H13A H 1.247(7) -0.113(6) 0.517(4)
H14A H 1.358(3) -0.179(13) 0.449(11)
Co1_2 Co 1.0000 0.0000 0.0000
O3A_2 O 1.0938(5) 0.1073(5) 1.1142(5)
O4A_2 O 1.0617(5) -0.1803(5) 1.1394(5)
O9A_2 O 0.7894(5) 0.0520(6) 1.1211(4)
O10 O 0.4666(7) 0.4586(7) 0.7538(7)
H15 H 0.5534 0.4084 0.7468
C9 C 0.3968(10) 0.4199(10) 0.6748(9)
O11 O 0.4527(9) 0.3188(10) 0.6079(9)
C10 C 0.2370(11) 0.5009(12) 0.6774(11)
H16 H 0.2109 0.5744 0.7372
H17 H 0.1673 0.4325 0.7063
H18 H 0.2296 0.5483 0.5904
loop_
_geom_bond_atom_site_label_1
_geom_bond_atom_site_label_2
_geom_bond_site_symmetry_1
_geom_bond_site_symmetry_2
Yb1 O1 1_555 1_555
Co1 O3 1_555 1_555
O1 C1 1_555 1_555
O2 Yb1 1_555 1_555
C1 O9 1_555 1_555
O3 Yb1 1_555 1_555
O4 Yb1 1_555 1_555
O5 Yb1 1_555 1_555
O6 Yb1 1_555 1_555
O7 Yb1 1_555 1_555
C2 H1 1_555 1_555
H2 C2 1_555 1_555
H3 C2 1_555 1_555
O8 Yb1 1_555 1_555
O9 Co1 1_555 1_555
C3 H4 1_555 1_555
H5 C3 1_555 1_555
H6 C3 1_555 1_555
C4 O4 1_555 1_555
C5 O3 1_555 1_555
C6 C1 1_555 1_555
H7 C6 1_555 1_555
H8 C6 1_555 1_555
H9 C6 1_555 1_555
C7 H10 1_555 1_555
H11 C7 1_555 1_555
H12 C7 1_555 1_555
C8 O2 1_555 1_555
H13 O8 1_555 1_555
H14 O8 1_555 1_555
O10 H15 1_555 1_555
C9 O10 1_555 1_555
O11 C9 1_555 1_555
C10 C9 1_555 1_555
H16 C10 1_555 1_555
H17 C10 1_555 1_555
H18 C10 1_555 1_555
Yb1A O7 1_555 1_555
O1A Yb1A 1_555 1_555
O2A Yb1A 1_555 1_555
C1A O1A 1_555 1_555
O3A Yb1A 1_555 1_555
O4A Yb1A 1_555 1_555
O5A Yb1A 1_555 1_555
O6A Yb1A 1_555 1_555
O7A Yb1 1_555 1_555
C2A H1A 1_555 1_555
H2A C2A 1_555 1_555
H3A C2A 1_555 1_555
O8A Yb1A 1_555 1_555
O9A C1A 1_555 1_555
C3A H4A 1_555 1_555
H5A C3A 1_555 1_555
H6A C3A 1_555 1_555
C4A O4A 1_555 1_555
C5A O3A 1_555 1_555
C6A C1A 1_555 1_555
H7A C6A 1_555 1_555
H8A C6A 1_555 1_555
H9A C6A 1_555 1_555
C7A H10A 1_555 1_555
H11A C7A 1_555 1_555
H12A C7A 1_555 1_555
C8A O2A 1_555 1_555
H13A O8A 1_555 1_555
H14A O8A 1_555 1_555
Co1_2 O3A 1_555 1_555
O3A_2 Co1 1_555 1_555
O4A_2 Co1 1_555 1_555
O9A_2 Co1 1_555 1_555
Co1 O4 1_555 1_555
O5 C5 1_555 1_555
O6 C4 1_555 1_555
O7 C8 1_555 1_555
C2 C4 1_555 1_555
C3 C5 1_555 1_555
C7 C8 1_555 1_555
Yb1A O7A 1_555 1_555
O4A Co1_2 1_555 1_555
O5A C5A 1_555 1_555
O6A C4A 1_555 1_555
O7A C8A 1_555 1_555
C2A C4A 1_555 1_555
O9A Co1_2 1_555 1_555
C3A C5A 1_555 1_555
C7A C8A 1_555 1_555

#END
