
#######################################################################
#
#                 Cambridge Crystallographic Data Centre
#                                CCDC 
#
#######################################################################
#
# If this CIF has been generated from an entry in the Cambridge 
# Structural Database, then it will include bibliographic, chemical, 
# crystal, experimental, refinement or atomic coordinate data resulting 
# from the CCDC's data processing and validation procedures.
#
#######################################################################

data_UDUJIO
_symmetry_cell_setting           triclinic
_symmetry_space_group_name_H-M   'P -1'
_symmetry_Int_Tables_number      2
_space_group_name_Hall           '-P 1'
loop_
_symmetry_equiv_pos_site_id
_symmetry_equiv_pos_as_xyz
1 x,y,z
2 -x,-y,-z
_cell_length_a                   9.1197(13)
_cell_length_b                   9.2341(15)
_cell_length_c                   10.7006(13)
_cell_angle_alpha                80.788(17)
_cell_angle_beta                 74.980(15)
_cell_angle_gamma                77.734(17)
_cell_volume                     845.184
loop_
_atom_site_label
_atom_site_type_symbol
_atom_site_fract_x
_atom_site_fract_y
_atom_site_fract_z
Yb1 Yb 0.91158(4) 0.07201(5) 0.67885(4)
Mn1 Mn 1.0000 0.0000 1.0000
O1 O 1.2155(6) -0.0492(8) 0.8682(6)
O2 O 1.1647(5) -0.0299(7) 0.6747(5)
O3 O 1.0238(6) 0.2785(6) 0.5772(6)
O4 O 0.8997(6) -0.1097(7) 0.8834(7)
O5 O 0.6951(6) -0.0202(7) 0.8116(6)
O6 O 0.9318(6) 0.1849(7) 0.8583(6)
O7 O 0.7376(6) 0.1558(7) 0.5535(6)
C1 C 0.8109(9) 0.2856(9) 0.8577(9)
C2 C 1.2540(8) -0.0580(10) 0.7533(9)
C3 C 0.7622(15) 0.3950(13) 0.9550(12)
H1 H 0.8301 0.3722 1.0134
H2 H 0.6585 0.3899 1.0035
H3 H 0.7664 0.4937 0.9110
C4 C 1.0784(8) 0.2447(9) 0.4628(9)
C5 C 0.7559(9) -0.1018(10) 0.8943(10)
C6 C 0.6606(13) -0.1877(13) 1.0055(11)
H4 H 0.7247 -0.2435 1.0615
H5 H 0.6168 -0.2549 0.9722
H6 H 0.5792 -0.1196 1.0540
C7 C 1.4227(9) -0.1116(15) 0.6939(11)
H7 H 1.4368 -0.1156 0.6023
H8 H 1.4555 -0.2092 0.7349
H9 H 1.4829 -0.0440 0.7066
O8 O 0.7379(6) 0.2902(7) 0.7735(6)
C8 C 1.1673(11) 0.3435(11) 0.3642(11)
H10 H 1.1682 0.4313 0.4013
H11 H 1.1204 0.3716 0.2912
H12 H 1.2712 0.2922 0.3358
O9 O 1.0601(6) 0.1233(6) 0.4351(6)
H13 H 0.750(8) 0.117(8) 0.473(4)
H14 H 0.661(8) 0.238(7) 0.533(9)
Yb1A Yb 1.08842(4) -0.07201(5) 0.32115(4)
O1A O 0.7845(6) 0.0492(8) 0.1318(6)
O2A O 0.8353(5) 0.0299(7) 0.3253(5)
O3A O 0.9762(6) -0.2785(6) 0.4228(6)
O4A O 1.1003(6) 0.1097(7) 0.1166(7)
O5A O 1.3049(6) 0.0202(7) 0.1884(6)
O6A O 1.0682(6) -0.1849(7) 0.1417(6)
O7A O 1.2624(6) -0.1558(7) 0.4465(6)
C1A C 1.1891(9) -0.2856(9) 0.1423(9)
C2A C 0.7460(8) 0.0580(10) 0.2467(9)
C3A C 1.2378(15) -0.3950(13) 0.0450(12)
H1A H 1.1699 -0.3722 -0.0134
H2A H 1.3415 -0.3899 -0.0035
H3A H 1.2336 -0.4937 0.0890
C4A C 0.9216(8) -0.2447(9) 0.5372(9)
C5A C 1.2441(9) 0.1018(10) 0.1057(10)
C6A C 1.3394(13) 0.1877(13) -0.0055(11)
H4A H 1.2753 0.2435 -0.0615
H5A H 1.3832 0.2549 0.0278
H6A H 1.4208 0.1196 -0.0540
C7A C 0.5773(9) 0.1116(15) 0.3061(11)
H7A H 0.5632 0.1156 0.3977
H8A H 0.5445 0.2092 0.2651
H9A H 0.5171 0.0440 0.2934
O8A O 1.2621(6) -0.2902(7) 0.2265(6)
C8A C 0.8327(11) -0.3435(11) 0.6358(11)
H10A H 0.8318 -0.4313 0.5987
H11A H 0.8796 -0.3716 0.7088
H12A H 0.7288 -0.2922 0.6642
O9A O 0.9399(6) -0.1233(6) 0.5649(6)
H13A H 1.250(8) -0.117(8) 0.527(4)
H14A H 1.339(8) -0.238(7) 0.467(9)
Mn1_2 Mn 1.0000 0.0000 0.0000
O1A_2 O 0.7845(6) 0.0492(8) 1.1318(6)
O4A_2 O 1.1003(6) 0.1097(7) 1.1166(7)
O6A_2 O 1.0682(6) -0.1849(7) 1.1417(6)
O10 O 1.4547(9) 0.3206(12) 0.6078(11)
C9 C 1.3948(11) 0.4164(13) 0.6771(12)
O11 O 1.4650(7) 0.4578(8) 0.7539(8)
C10 C 1.2361(11) 0.5005(15) 0.6804(14)
H15 H 1.2113 0.5746 0.7397
H16 H 1.1641 0.4330 0.7088
H17 H 1.2302 0.5482 0.5948
H18 H 1.562(8) 0.391(13) 0.730(14)
loop_
_geom_bond_atom_site_label_1
_geom_bond_atom_site_label_2
_geom_bond_site_symmetry_1
_geom_bond_site_symmetry_2
Yb1 O2 1_555 1_555
Mn1 O1 1_555 1_555
O1 C2 1_555 1_555
O2 C2 1_555 1_555
O3 Yb1 1_555 1_555
O4 Yb1 1_555 1_555
O5 Yb1 1_555 1_555
O6 Yb1 1_555 1_555
O7 Yb1 1_555 1_555
C1 O6 1_555 1_555
C2 C7 1_555 1_555
C3 C1 1_555 1_555
H1 C3 1_555 1_555
H2 C3 1_555 1_555
H3 C3 1_555 1_555
C4 O3 1_555 1_555
C5 O4 1_555 1_555
C6 C5 1_555 1_555
H4 C6 1_555 1_555
H5 C6 1_555 1_555
H6 C6 1_555 1_555
C7 H7 1_555 1_555
H8 C7 1_555 1_555
H9 C7 1_555 1_555
O8 Yb1 1_555 1_555
C8 C4 1_555 1_555
H10 C8 1_555 1_555
H11 C8 1_555 1_555
H12 C8 1_555 1_555
O9 Yb1 1_555 1_555
H13 O7 1_555 1_555
H14 O7 1_555 1_555
O10 C9 1_555 1_555
C9 O11 1_555 1_555
O11 H18 1_555 1_555
C10 C9 1_555 1_555
H15 C10 1_555 1_555
H16 C10 1_555 1_555
H17 C10 1_555 1_555
Yb1A O9 1_555 1_555
O1A C2A 1_555 1_555
O2A Yb1A 1_555 1_555
O3A Yb1A 1_555 1_555
O4A Yb1A 1_555 1_555
O5A Yb1A 1_555 1_555
O6A Yb1A 1_555 1_555
O7A Yb1A 1_555 1_555
C1A O6A 1_555 1_555
C2A O2A 1_555 1_555
C3A C1A 1_555 1_555
H1A C3A 1_555 1_555
H2A C3A 1_555 1_555
H3A C3A 1_555 1_555
C4A O3A 1_555 1_555
C5A O4A 1_555 1_555
C6A C5A 1_555 1_555
H4A C6A 1_555 1_555
H5A C6A 1_555 1_555
H6A C6A 1_555 1_555
C7A C2A 1_555 1_555
H7A C7A 1_555 1_555
H8A C7A 1_555 1_555
H9A C7A 1_555 1_555
O8A Yb1A 1_555 1_555
C8A C4A 1_555 1_555
H10A C8A 1_555 1_555
H11A C8A 1_555 1_555
H12A C8A 1_555 1_555
O9A Yb1 1_555 1_555
H13A O7A 1_555 1_555
H14A O7A 1_555 1_555
Mn1_2 O1A 1_555 1_555
O1A_2 Mn1 1_555 1_555
O4A_2 Mn1 1_555 1_555
O6A_2 Mn1 1_555 1_555
Mn1 O4 1_555 1_555
Mn1 O6 1_555 1_555
O5 C5 1_555 1_555
C1 O8 1_555 1_555
C4 O9 1_555 1_555
Yb1A O9A 1_555 1_555
O4A Mn1_2 1_555 1_555
O5A C5A 1_555 1_555
O6A Mn1_2 1_555 1_555
C1A O8A 1_555 1_555
C4A O9A 1_555 1_555

#END
