
#######################################################################
#
#                 Cambridge Crystallographic Data Centre
#                                CCDC 
#
#######################################################################
#
# If this CIF has been generated from an entry in the Cambridge 
# Structural Database, then it will include bibliographic, chemical, 
# crystal, experimental, refinement or atomic coordinate data resulting 
# from the CCDC's data processing and validation procedures.
#
#######################################################################

data_UDUJUZ
_symmetry_cell_setting           orthorhombic
_symmetry_space_group_name_H-M   'P b c n'
_symmetry_Int_Tables_number      60
_space_group_name_Hall           '-P 2n 2ab'
loop_
_symmetry_equiv_pos_site_id
_symmetry_equiv_pos_as_xyz
1 x,y,z
2 1/2-x,1/2-y,1/2+z
3 -x,y,1/2-z
4 1/2+x,1/2-y,-z
5 -x,-y,-z
6 1/2+x,1/2+y,1/2-z
7 x,-y,1/2+z
8 1/2-x,1/2+y,z
_cell_length_a                   25.548(3)
_cell_length_b                   26.416(3)
_cell_length_c                   11.7932(11)
_cell_angle_alpha                90
_cell_angle_beta                 90
_cell_angle_gamma                90
_cell_volume                     7958.95
loop_
_atom_site_label
_atom_site_type_symbol
_atom_site_fract_x
_atom_site_fract_y
_atom_site_fract_z
Er1 Er 0.639793(9) 0.279301(9) 0.329089(19)
Ru1 Ru 0.5000 0.13365(2) 0.2500
Ru2 Ru 0.744510(16) 0.118480(15) 0.50726(3)
C1 C 0.5422(2) 0.2858(2) 0.1261(5)
H1 H 0.5433 0.2501 0.1343
C2 C 0.5125(2) 0.3064(2) 0.0377(5)
H2 H 0.4935 0.2848 -0.0119
C3 C 0.5110(2) 0.3574(2) 0.0230(5)
H3 H 0.4921 0.3716 -0.0386
C4 C 0.5376(2) 0.3891(2) 0.0996(5)
C5 C 0.5357(2) 0.4430(2) 0.0935(5)
H4 H 0.5195 0.4586 0.0300
C6 C 0.5562(2) 0.4723(2) 0.1754(5)
H5 H 0.5538 0.5081 0.1703
C7 C 0.5820(2) 0.4492(2) 0.2710(5)
C8 C 0.5999(2) 0.4776(2) 0.3639(5)
H6 H 0.5951 0.5133 0.3659
C9 C 0.6242(2) 0.4533(2) 0.4513(5)
H7 H 0.6355 0.4717 0.5161
C10 C 0.6323(2) 0.4010(2) 0.4445(5)
H8 H 0.6513 0.3850 0.5038
C11 C 0.5887(2) 0.3964(2) 0.2754(5)
C12 C 0.5650(2) 0.3652(2) 0.1884(5)
C13 C 0.7886(2) 0.0359(2) 0.6728(4)
H9 H 0.8036 0.0630 0.7149
C14 C 0.7955(2) -0.0135(2) 0.7113(5)
H10 H 0.8148 -0.0196 0.7788
C15 C 0.7746(2) -0.0533(2) 0.6526(5)
H11 H 0.7794 -0.0870 0.6788
C16 C 0.7458(2) -0.0439(2) 0.5530(4)
C17 C 0.7204(2) -0.0827(2) 0.4881(5)
H12 H 0.7233 -0.1170 0.5114
C18 C 0.6925(2) -0.0712(2) 0.3945(5)
H13 H 0.6764 -0.0977 0.3524
C19 C 0.6867(2) -0.0198(2) 0.3576(4)
C20 C 0.6569(2) -0.0059(2) 0.2624(4)
H14 H 0.6408 -0.0311 0.2167
C21 C 0.6513(2) 0.0443(2) 0.2362(4)
H15 H 0.6313 0.0542 0.1720
C22 C 0.6753(2) 0.0809(2) 0.3048(4)
H16 H 0.6702 0.1156 0.2867
C23 C 0.7101(2) 0.0194(2) 0.4203(4)
C24 C 0.74042(19) 0.0071(2) 0.5198(4)
C25 C 0.8133(2) 0.1162(2) 0.4173(5)
C26 C 0.6774(2) 0.12398(19) 0.5991(4)
C27 C 0.7181(2) 0.1795(2) 0.4278(4)
C28 C 0.7157(2) 0.34325(19) 0.1224(4)
C29 C 0.5626(2) 0.0724(2) 0.4318(4)
H17 H 0.5738 0.1041 0.4611
C30 C 0.5776(2) 0.0279(2) 0.4874(5)
H18 H 0.5984 0.0300 0.5540
C31 C 0.5628(2) -0.0185(2) 0.4472(5)
H19 H 0.5732 -0.0486 0.4853
C32 C 0.5318(2) -0.0211(2) 0.3483(5)
C33 C 0.5152(2) -0.0678(2) 0.2969(5)
H20 H 0.5258 -0.0991 0.3294
C34 C 0.5169(2) 0.02503(19) 0.2981(5)
C35 C 0.5430(2) 0.1865(2) 0.3228(4)
C36 C 0.5559(2) 0.13623(19) 0.1264(5)
N1 N 0.56889(18) 0.31421(17) 0.1992(4)
N2 N 0.61499(18) 0.37243(18) 0.3599(4)
N3 N 0.76154(17) 0.04666(17) 0.5783(4)
N4 N 0.70491(17) 0.06934(16) 0.3938(4)
N5 N 0.63851(19) 0.12896(19) 0.6498(4)
N6 N 0.8540(2) 0.1165(2) 0.3743(6)
N7 N 0.69040(18) 0.32313(18) 0.1906(4)
N8 N 0.53270(17) 0.07133(17) 0.3379(3)
N9 N 0.57201(19) 0.21828(17) 0.3519(4)
N10 N 0.69622(19) 0.21148(18) 0.3794(4)
N11 N 0.58796(19) 0.14149(18) 0.0572(4)
O1 O 0.61531(17) 0.28134(15) 0.5206(3)
H21 H 0.6077 0.3125 0.5281
H22 H 0.6011 0.2573 0.5573
O2 O 0.71293(14) 0.31438(14) 0.4246(3)
H23 H 0.7395 0.3114 0.3818
H24 H 0.7229 0.3009 0.4864
O3 O 0.64671(15) 0.22845(15) 0.1580(3)
H25 H 0.6307 0.2002 0.1592
H26 H 0.6451 0.2510 0.1068
Er1B Er 0.360207(9) 0.279301(9) 0.170911(19)
Ru2B Ru 0.255490(16) 0.118480(15) -0.00726(3)
Ru2A Ru 0.755490(16) 0.381520(15) 0.00726(3)
Ru2C Ru 0.244510(16) 0.381520(15) 0.49274(3)
C1B C 0.4578(2) 0.2858(2) 0.3739(5)
H1B H 0.4567 0.2501 0.3657
C2B C 0.4875(2) 0.3064(2) 0.4623(5)
H2B H 0.5065 0.2848 0.5119
C3B C 0.4890(2) 0.3574(2) 0.4770(5)
H3B H 0.5079 0.3716 0.5386
C4B C 0.4624(2) 0.3891(2) 0.4004(5)
C5B C 0.4643(2) 0.4430(2) 0.4065(5)
H4B H 0.4805 0.4586 0.4700
C6B C 0.4438(2) 0.4723(2) 0.3246(5)
H5B H 0.4462 0.5081 0.3297
C7B C 0.4180(2) 0.4492(2) 0.2290(5)
C8B C 0.4001(2) 0.4776(2) 0.1361(5)
H6B H 0.4049 0.5133 0.1341
C9B C 0.3758(2) 0.4533(2) 0.0487(5)
H7B H 0.3645 0.4717 -0.0161
C10B C 0.3677(2) 0.4010(2) 0.0555(5)
H8B H 0.3487 0.3850 -0.0038
C11B C 0.4113(2) 0.3964(2) 0.2246(5)
C12B C 0.4350(2) 0.3652(2) 0.3116(5)
C13B C 0.2114(2) 0.0359(2) -0.1728(4)
H9B H 0.1964 0.0630 -0.2149
C14B C 0.2045(2) -0.0135(2) -0.2113(5)
H10B H 0.1852 -0.0196 -0.2788
C15B C 0.2254(2) -0.0533(2) -0.1526(5)
H11B H 0.2206 -0.0870 -0.1788
C16B C 0.2542(2) -0.0439(2) -0.0530(4)
C17B C 0.2796(2) -0.0827(2) 0.0119(5)
H12B H 0.2767 -0.1170 -0.0114
C18B C 0.3075(2) -0.0712(2) 0.1055(5)
H13B H 0.3236 -0.0977 0.1476
C19B C 0.3133(2) -0.0198(2) 0.1424(4)
C20B C 0.3431(2) -0.0059(2) 0.2376(4)
H14B H 0.3592 -0.0311 0.2833
C21B C 0.3487(2) 0.0443(2) 0.2638(4)
H15B H 0.3687 0.0542 0.3280
C22B C 0.3247(2) 0.0809(2) 0.1952(4)
H16B H 0.3298 0.1156 0.2133
C23B C 0.2899(2) 0.0194(2) 0.0797(4)
C24B C 0.25958(19) 0.0071(2) -0.0198(4)
C25B C 0.1867(2) 0.1162(2) 0.0827(5)
C26B C 0.3226(2) 0.12398(19) -0.0991(4)
C27B C 0.2819(2) 0.1795(2) 0.0722(4)
C28B C 0.2843(2) 0.34325(19) 0.3776(4)
C28A C 0.7843(2) 0.15675(19) 0.6224(4)
C28C C 0.2157(2) 0.15675(19) -0.1224(4)
C29B C 0.4374(2) 0.0724(2) 0.0682(4)
H17B H 0.4262 0.1041 0.0389
C30B C 0.4224(2) 0.0279(2) 0.0126(5)
H18B H 0.4016 0.0300 -0.0540
C31B C 0.4372(2) -0.0185(2) 0.0528(5)
H19B H 0.4268 -0.0486 0.0147
C32B C 0.4682(2) -0.0211(2) 0.1517(5)
C33B C 0.4848(2) -0.0678(2) 0.2031(5)
H20B H 0.4742 -0.0991 0.1706
C34B C 0.4831(2) 0.02503(19) 0.2019(5)
C35B C 0.4570(2) 0.1865(2) 0.1772(4)
C36B C 0.4441(2) 0.13623(19) 0.3736(5)
N1B N 0.43111(18) 0.31421(17) 0.3008(4)
N2B N 0.38501(18) 0.37243(18) 0.1401(4)
N3B N 0.23846(17) 0.04666(17) -0.0783(4)
N4B N 0.29509(17) 0.06934(16) 0.1062(4)
N5B N 0.36149(19) 0.12896(19) -0.1498(4)
N6B N 0.1460(2) 0.1165(2) 0.1257(6)
N7B N 0.30960(18) 0.32313(18) 0.3094(4)
N8B N 0.46730(17) 0.07133(17) 0.1621(3)
N9B N 0.42799(19) 0.21828(17) 0.1481(4)
N10B N 0.30378(19) 0.21148(18) 0.1206(4)
N11B N 0.41204(19) 0.14149(18) 0.4428(4)
O1B O 0.38469(17) 0.28134(15) -0.0206(3)
H21B H 0.3923 0.3125 -0.0281
H22B H 0.3989 0.2573 -0.0573
O2B O 0.28707(14) 0.31438(14) 0.0754(3)
H23B H 0.2605 0.3114 0.1182
H24B H 0.2771 0.3009 0.0136
O3B O 0.35329(15) 0.22845(15) 0.3420(3)
H25B H 0.3693 0.2002 0.3408
H26B H 0.3549 0.2510 0.3932
O4 O 0.56227(15) 0.20641(15) 0.6439(3)
H27 H 0.5801 0.1807 0.6246
H28 H 0.5567 0.2081 0.7149
O5 O 0.5678(7) 0.3645(5) 0.7018(13)
O7 O 0.45213(16) 0.20708(16) 0.6195(4)
H29 H 0.4852 0.2107 0.6229
H30 H 0.4415 0.1822 0.5799
O8 O 0.36507(15) 0.26804(16) 0.5596(3)
H31 H 0.3593 0.2993 0.5673
H32 H 0.3930 0.2547 0.5852
O9 O 0.69826(16) 0.20681(16) 0.7989(4)
H33 H 0.6811 0.1857 0.7591
H34 H 0.6760 0.2249 0.8337
O10 O 0.7397(3) 0.2774(2) 0.6374(5)
H35 H 0.7707 0.2891 0.6391
H36 H 0.7024 0.2966 0.6666
O11 O 0.6588(3) 0.3357(3) 0.6722(5)
H37 H 0.6868 0.3528 0.6652
H38 H 0.6492 0.3493 0.7341
O6? O 0.5462(6) 0.4060(5) 0.7435(12)
loop_
_geom_bond_atom_site_label_1
_geom_bond_atom_site_label_2
_geom_bond_site_symmetry_1
_geom_bond_site_symmetry_2
Er1 N1 1_555 1_555
Ru1 C35 1_555 1_555
Ru2 C25 1_555 1_555
C1 H1 1_555 1_555
C2 C1 1_555 1_555
H2 C2 1_555 1_555
C3 C2 1_555 1_555
H3 C3 1_555 1_555
C4 C3 1_555 1_555
C5 C4 1_555 1_555
H4 C5 1_555 1_555
C6 C5 1_555 1_555
H5 C6 1_555 1_555
C7 C6 1_555 1_555
C8 C7 1_555 1_555
H6 C8 1_555 1_555
C9 C8 1_555 1_555
H7 C9 1_555 1_555
C10 C9 1_555 1_555
H8 C10 1_555 1_555
C11 C7 1_555 1_555
C12 C4 1_555 1_555
C13 H9 1_555 1_555
C14 C13 1_555 1_555
H10 C14 1_555 1_555
C15 C14 1_555 1_555
H11 C15 1_555 1_555
C16 C15 1_555 1_555
C17 C16 1_555 1_555
H12 C17 1_555 1_555
C18 C17 1_555 1_555
H13 C18 1_555 1_555
C19 C18 1_555 1_555
C20 C19 1_555 1_555
H14 C20 1_555 1_555
C21 C20 1_555 1_555
H15 C21 1_555 1_555
C22 C21 1_555 1_555
H16 C22 1_555 1_555
C23 C19 1_555 1_555
C24 C16 1_555 1_555
C25 N6 1_555 1_555
C26 Ru2 1_555 1_555
C27 Ru2 1_555 1_555
C28 N7 1_555 1_555
C29 H17 1_555 1_555
C30 C29 1_555 1_555
H18 C30 1_555 1_555
C31 C30 1_555 1_555
H19 C31 1_555 1_555
C32 C31 1_555 1_555
C33 C32 1_555 1_555
H20 C33 1_555 1_555
C34 C32 1_555 1_555
C35 N9 1_555 1_555
C36 Ru1 1_555 1_555
N1 C1 1_555 1_555
N2 Er1 1_555 1_555
N3 Ru2 1_555 1_555
N4 Ru2 1_555 1_555
N5 C26 1_555 1_555
N7 Er1 1_555 1_555
N8 Ru1 1_555 1_555
N9 Er1 1_555 1_555
N10 Er1 1_555 1_555
N11 C36 1_555 1_555
O1 Er1 1_555 1_555
H21 O1 1_555 1_555
H22 O1 1_555 1_555
O2 Er1 1_555 1_555
H23 O2 1_555 1_555
H24 O2 1_555 1_555
O3 Er1 1_555 1_555
H25 O3 1_555 1_555
H26 O3 1_555 1_555
O4 H27 1_555 1_555
H28 O4 1_555 1_555
O7 H29 1_555 1_555
H30 O7 1_555 1_555
O8 H31 1_555 1_555
H32 O8 1_555 1_555
O9 H33 1_555 1_555
H34 O9 1_555 1_555
O10 H35 1_555 1_555
H36 O10 1_555 1_555
O11 H37 1_555 1_555
H38 O11 1_555 1_555
Er1B N1B 1_555 1_555
Ru2B C25B 1_555 1_555
Ru2A C28 1_555 1_555
Ru2C C28B 1_555 1_555
C1B H1B 1_555 1_555
C2B C1B 1_555 1_555
H2B C2B 1_555 1_555
C3B C2B 1_555 1_555
H3B C3B 1_555 1_555
C4B C3B 1_555 1_555
C5B C4B 1_555 1_555
H4B C5B 1_555 1_555
C6B C5B 1_555 1_555
H5B C6B 1_555 1_555
C7B C6B 1_555 1_555
C8B C7B 1_555 1_555
H6B C8B 1_555 1_555
C9B C8B 1_555 1_555
H7B C9B 1_555 1_555
C10B C9B 1_555 1_555
H8B C10B 1_555 1_555
C11B C7B 1_555 1_555
C12B C4B 1_555 1_555
C13B H9B 1_555 1_555
C14B C13B 1_555 1_555
H10B C14B 1_555 1_555
C15B C14B 1_555 1_555
H11B C15B 1_555 1_555
C16B C15B 1_555 1_555
C17B C16B 1_555 1_555
H12B C17B 1_555 1_555
C18B C17B 1_555 1_555
H13B C18B 1_555 1_555
C19B C18B 1_555 1_555
C20B C19B 1_555 1_555
H14B C20B 1_555 1_555
C21B C20B 1_555 1_555
H15B C21B 1_555 1_555
C22B C21B 1_555 1_555
H16B C22B 1_555 1_555
C23B C19B 1_555 1_555
C24B C16B 1_555 1_555
C25B N6B 1_555 1_555
C26B Ru2B 1_555 1_555
C27B Ru2B 1_555 1_555
C28B N7B 1_555 1_555
C28A Ru2 1_555 1_555
C28C Ru2B 1_555 1_555
C29B H17B 1_555 1_555
C30B C29B 1_555 1_555
H18B C30B 1_555 1_555
C31B C30B 1_555 1_555
H19B C31B 1_555 1_555
C32B C31B 1_555 1_555
C33B C33 1_555 1_555
H20B C33B 1_555 1_555
C34B C34 1_555 1_555
C35B Ru1 1_555 1_555
C36B Ru1 1_555 1_555
N1B C1B 1_555 1_555
N2B Er1B 1_555 1_555
N3B Ru2B 1_555 1_555
N4B Ru2B 1_555 1_555
N5B C26B 1_555 1_555
N7B Er1B 1_555 1_555
N8B Ru1 1_555 1_555
N9B Er1B 1_555 1_555
N10B Er1B 1_555 1_555
N11B C36B 1_555 1_555
O1B Er1B 1_555 1_555
H21B O1B 1_555 1_555
H22B O1B 1_555 1_555
O2B Er1B 1_555 1_555
H23B O2B 1_555 1_555
H24B O2B 1_555 1_555
O3B Er1B 1_555 1_555
H25B O3B 1_555 1_555
H26B O3B 1_555 1_555
C10 N2 1_555 1_555
C11 C12 1_555 1_555
C11 N2 1_555 1_555
C12 N1 1_555 1_555
C13 N3 1_555 1_555
C22 N4 1_555 1_555
C23 C24 1_555 1_555
C23 N4 1_555 1_555
C24 N3 1_555 1_555
C27 N10 1_555 1_555
C29 N8 1_555 1_555
C34 N8 1_555 1_555
C10B N2B 1_555 1_555
C11B C12B 1_555 1_555
C11B N2B 1_555 1_555
C12B N1B 1_555 1_555
C13B N3B 1_555 1_555
C22B N4B 1_555 1_555
C23B C24B 1_555 1_555
C23B N4B 1_555 1_555
C24B N3B 1_555 1_555
C27B N10B 1_555 1_555
C29B N8B 1_555 1_555
C32B C33B 1_555 1_555
C32B C34B 1_555 1_555
C34B N8B 1_555 1_555
C35B N9B 1_555 1_555

#END
