
#######################################################################
#
#                 Cambridge Crystallographic Data Centre
#                                CCDC 
#
#######################################################################
#
# If this CIF has been generated from an entry in the Cambridge 
# Structural Database, then it will include bibliographic, chemical, 
# crystal, experimental, refinement or atomic coordinate data resulting 
# from the CCDC's data processing and validation procedures.
#
#######################################################################

data_UDUJAG
_symmetry_cell_setting           triclinic
_symmetry_space_group_name_H-M   'P -1'
_symmetry_Int_Tables_number      2
_space_group_name_Hall           '-P 1'
loop_
_symmetry_equiv_pos_site_id
_symmetry_equiv_pos_as_xyz
1 x,y,z
2 -x,-y,-z
_cell_length_a                   6.3426(14)
_cell_length_b                   8.3896(19)
_cell_length_c                   9.146(2)
_cell_angle_alpha                80.024(18)
_cell_angle_beta                 82.476(18)
_cell_angle_gamma                87.501(18)
_cell_volume                     475.082
loop_
_atom_site_label
_atom_site_type_symbol
_atom_site_fract_x
_atom_site_fract_y
_atom_site_fract_z
Dy1 Dy 0.27947(8) 0.27310(7) 0.28951(6)
O1 O 0.0170(16) 0.1273(12) 0.2033(10)
O2 O 0.0517(15) 0.2402(11) 0.5308(10)
O3 O 0.2678(13) 0.3893(10) 0.0228(10)
O4 O 0.7300(14) 0.0117(11) 0.5835(9)
O5 O 0.4162(14) 0.5623(12) -0.1753(10)
C1 C 0.5804(17) 0.0647(16) 0.5053(13)
O6 O 0.5551(14) 0.2037(9) 0.4414(9)
O7 O 0.4906(15) 0.1020(12) 0.1454(10)
O8 O -0.0277(13) 0.4557(10) 0.2650(11)
O9 O 0.3136(16) 0.5086(13) 0.4200(12)
C2 C 0.4095(19) 0.4860(14) -0.0432(13)
O3A O 0.7322(13) 0.6107(10) -0.0228(10)
C2A C 0.5905(19) 0.5140(14) 0.0432(13)
O5A O 0.5838(14) 0.4377(12) 0.1753(10)
C1A C 0.4196(17) -0.0647(16) 0.4947(13)
O6A O 0.4449(14) -0.2037(9) 0.5586(9)
O4A O 0.2700(14) -0.0117(11) 0.4165(9)
Dy1A Dy 0.72053(8) -0.27310(7) 0.71049(6)
O1A O 0.9830(16) -0.1273(12) 0.7967(10)
O2A O 0.9483(15) -0.2402(11) 0.4692(10)
O7A O 0.5094(15) -0.1020(12) 0.8546(10)
O8A O 1.0277(13) -0.4557(10) 0.7350(11)
O9A O 0.6864(16) -0.5086(13) 0.5800(12)
Dy1A_2 Dy 0.72053(8) 0.72690(7) -0.28951(6)
O3A_2 O 0.7322(13) -0.3893(10) 0.9772(10)
O5_2 O 0.4162(14) -0.4377(12) 0.8247(10)
Cl1 Cl 0.8351(6) 0.2147(4) -0.1123(4)
O10 O 0.6613(17) -0.2077(13) 0.2406(11)
loop_
_geom_bond_atom_site_label_1
_geom_bond_atom_site_label_2
_geom_bond_site_symmetry_1
_geom_bond_site_symmetry_2
Dy1 O1 1_555 1_555
O2 Dy1 1_555 1_555
O3 Dy1 1_555 1_555
O4 C1 1_555 1_555
O5 C2 1_555 1_555
C1 O6 1_555 1_555
O6 Dy1 1_555 1_555
O7 Dy1 1_555 1_555
O8 Dy1 1_555 1_555
O9 Dy1 1_555 1_555
C2 O3 1_555 1_555
O3A C2A 1_555 1_555
C2A C2 1_555 1_555
O5A Dy1 1_555 1_555
C1A C1 1_555 1_555
O6A C1A 1_555 1_555
O4A Dy1 1_555 1_555
Dy1A O4 1_555 1_555
O1A Dy1A 1_555 1_555
O2A Dy1A 1_555 1_555
O7A Dy1A 1_555 1_555
O8A Dy1A 1_555 1_555
O9A Dy1A 1_555 1_555
Dy1A_2 O5 1_555 1_555
O3A_2 Dy1A 1_555 1_555
O5_2 Dy1A 1_555 1_555
O3A Dy1A_2 1_555 1_555
C2A O5A 1_555 1_555
C1A O4A 1_555 1_555
O6A Dy1A 1_555 1_555

#END
