
#######################################################################
#
#                 Cambridge Crystallographic Data Centre
#                                CCDC 
#
#######################################################################
#
# If this CIF has been generated from an entry in the Cambridge 
# Structural Database, then it will include bibliographic, chemical, 
# crystal, experimental, refinement or atomic coordinate data resulting 
# from the CCDC's data processing and validation procedures.
#
#######################################################################

data_UDUKIO
_symmetry_cell_setting           orthorhombic
_symmetry_space_group_name_H-M   'P 21 21 21'
_symmetry_Int_Tables_number      19
_space_group_name_Hall           'P 2ac 2ab'
loop_
_symmetry_equiv_pos_site_id
_symmetry_equiv_pos_as_xyz
1 x,y,z
2 1/2-x,-y,1/2+z
3 -x,1/2+y,1/2-z
4 1/2+x,1/2-y,-z
_cell_length_a                   10.8466(6)
_cell_length_b                   27.2848(15)
_cell_length_c                   31.3415(19)
_cell_angle_alpha                90
_cell_angle_beta                 90
_cell_angle_gamma                90
_cell_volume                     9275.43
loop_
_atom_site_label
_atom_site_type_symbol
_atom_site_fract_x
_atom_site_fract_y
_atom_site_fract_z
Nd1 Nd 0.35571(5) 0.82971(2) 0.508475(19)
Ru1 Ru 0.37075(8) 0.63858(3) 0.46937(3)
C1 C 0.3711(11) 0.7083(5) 0.3906(4)
H1 H 0.3813 0.7341 0.4106
C2 C 0.3710(15) 0.7207(6) 0.3474(5)
H2 H 0.3899 0.7533 0.3388
C3 C 0.3435(19) 0.6857(8) 0.3174(6)
H3 H 0.3350 0.6937 0.2881
C4 C 0.3278(14) 0.6358(8) 0.3330(5)
C5 C 0.304(3) 0.5962(9) 0.3053(6)
H4 H 0.2972 0.6019 0.2755
C6 C 0.2902(18) 0.5485(8) 0.3210(6)
H5 H 0.2756 0.5225 0.3015
C7 C 0.2978(16) 0.5372(7) 0.3673(6)
C8 C 0.2860(15) 0.4919(6) 0.3848(7)
H6 H 0.2720 0.4640 0.3673
C9 C 0.2945(14) 0.4876(6) 0.4275(6)
H7 H 0.2861 0.4564 0.4406
C10 C 0.3148(11) 0.5276(5) 0.4516(5)
H8 H 0.3188 0.5233 0.4816
C11 C 0.3233(12) 0.5778(5) 0.3936(4)
C12 C 0.3369(11) 0.6257(5) 0.3764(4)
C13 C 0.4093(9) 0.7029(4) 0.4917(3)
C14 C 0.6881(12) 0.8490(4) 0.5218(3)
C15 C 0.0524(11) 0.8704(4) 0.5349(4)
C16 C 0.3841(9) 0.6115(4) 0.5291(4)
C17 C 0.4329(14) 0.7755(7) 0.6039(5)
H9 H 0.4090 0.7477 0.5876
C18 C 0.4806(15) 0.7695(8) 0.6455(6)
H10 H 0.4876 0.7379 0.6580
C19 C 0.517(3) 0.8115(14) 0.6677(9)
H11 H 0.5498 0.8086 0.6957
C20 C 0.506(3) 0.8556(11) 0.6496(9)
H12 H 0.5320 0.8841 0.6646
C21 C 0.4592(13) 0.8596(7) 0.6111(5)
C22 C 0.4442(14) 0.9082(7) 0.5906(7)
C23 C 0.4653(17) 0.9516(9) 0.6155(7)
H13 H 0.4869 0.9483 0.6447
C24 C 0.455(2) 0.9969(8) 0.5986(9)
H14 H 0.4719 1.0258 0.6144
C25 C 0.4174(18) 0.9978(7) 0.5550(9)
H15 H 0.4075 1.0283 0.5407
C26 C 0.3958(15) 0.9555(5) 0.5342(7)
C27 C 0.3518(14) 0.9567(4) 0.4895(8)
C28 C 0.3312(18) 1.0003(6) 0.4666(9)
H16 H 0.3446 1.0309 0.4803
C29 C 0.292(2) 0.9996(9) 0.4254(10)
H17 H 0.2816 1.0291 0.4098
C30 C 0.2700(19) 0.9558(7) 0.4071(7)
H18 H 0.2415 0.9548 0.3784
C31 C 0.2866(15) 0.9138(6) 0.4282(6)
H19 H 0.2670 0.8836 0.4147
N1 N 0.3581(9) 0.6631(4) 0.4058(3)
N2 N 0.3294(8) 0.5718(4) 0.4368(3)
N3 N 0.4354(8) 0.7424(3) 0.5049(3)
N4 N 0.5858(8) 0.8432(3) 0.5144(3)
N5 N 0.1599(10) 0.8705(3) 0.5360(3)
N6 N 0.3919(10) 0.6003(4) 0.5638(4)
N7 N 0.4214(9) 0.8213(5) 0.5873(3)
N8 N 0.4058(9) 0.9115(5) 0.5498(4)
N9 N 0.3306(12) 0.9136(4) 0.4682(5)
O1 O 0.2037(7) 0.7711(3) 0.5450(3)
H47 H 0.2050 0.7431 0.5569
H48 H 0.1350 0.7678 0.5322
O2 O 0.2014(8) 0.7979(3) 0.4560(3)
H49 H 0.1728 0.8098 0.4329
H50 H 0.1336 0.7876 0.4662
O3 O 0.4549(8) 0.8225(3) 0.4367(2)
H51 H 0.4535 0.8343 0.4116
H52 H 0.5314 0.8215 0.4308
Ru1C Ru 0.87075(8) 0.86142(3) 0.53063(3)
Ru1C_2 Ru -0.12925(8) 0.86142(3) 0.53063(3)
C14C C 0.1881(12) 0.6510(4) 0.4782(3)
C15C C 0.5524(11) 0.6296(4) 0.4651(4)
Nd2 Nd 0.40330(5) 0.83076(2) 0.00131(2)
Ru2 Ru 0.41783(7) 0.63252(3) 0.02602(3)
C32 C 0.3904(11) 0.6825(4) 0.1141(4)
H20 H 0.3939 0.7125 0.0987
C33 C 0.3803(14) 0.6849(7) 0.1584(5)
H21 H 0.3763 0.7158 0.1722
C34 C 0.3763(15) 0.6430(7) 0.1817(5)
H22 H 0.3710 0.6444 0.2119
C35 C 0.3802(13) 0.5948(6) 0.1594(4)
C36 C 0.3696(15) 0.5512(7) 0.1800(5)
H23 H 0.3606 0.5506 0.2101
C37 C 0.3719(14) 0.5068(7) 0.1570(5)
H24 H 0.3684 0.4763 0.1716
C38 C 0.3795(11) 0.5081(5) 0.1112(4)
C39 C 0.3714(12) 0.4671(5) 0.0859(5)
H25 H 0.3641 0.4357 0.0987
C40 C 0.3739(11) 0.4710(4) 0.0436(5)
H26 H 0.3716 0.4425 0.0262
C41 C 0.3803(10) 0.5199(4) 0.0242(4)
H27 H 0.3797 0.5232 -0.0059
C42 C 0.3824(9) 0.5554(4) 0.0914(4)
C43 C 0.3832(11) 0.5989(5) 0.1143(4)
C44 C 0.4504(9) 0.7009(4) 0.0150(4)
C45 C 0.7385(10) 0.8524(4) -0.0140(3)
C46 C 0.1045(9) 0.8749(3) -0.0318(3)
C47 C 0.4414(11) 0.6177(4) -0.0356(4)
C48 C 0.3956(14) 0.9272(5) 0.0752(5)
H28 H 0.3921 0.8996 0.0937
C49 C 0.3767(15) 0.9724(5) 0.0931(5)
H29 H 0.3536 0.9760 0.1221
C50 C 0.3926(13) 1.0122(5) 0.0670(6)
H30 H 0.3876 1.0445 0.0781
C51 C 0.4159(12) 1.0044(4) 0.0244(5)
H31 H 0.4189 1.0318 0.0057
C52 C 0.4354(10) 0.9574(4) 0.0076(4)
C53 C 0.4737(10) 0.9477(4) -0.0359(4)
C54 C 0.5181(13) 0.9861(5) -0.0629(5)
H32 H 0.5211 1.0189 -0.0528
C55 C 0.5557(13) 0.9750(5) -0.1029(5)
H33 H 0.5839 1.0007 -0.1209
C56 C 0.5545(13) 0.9271(6) -0.1187(5)
H34 H 0.5824 0.9190 -0.1466
C57 C 0.5083(11) 0.8913(4) -0.0898(5)
C58 C 0.5074(12) 0.8396(6) -0.1039(5)
C59 C 0.5513(19) 0.8265(7) -0.1438(6)
H35 H 0.5869 0.8504 -0.1621
C60 C 0.543(2) 0.7806(11) -0.1561(7)
H36 H 0.5685 0.7718 -0.1841
C61 C 0.501(2) 0.7474(8) -0.1310(9)
H37 H 0.5002 0.7141 -0.1399
C62 C 0.4565(15) 0.7604(6) -0.0896(6)
H38 H 0.4253 0.7357 -0.0712
N10 N 0.3952(8) 0.6416(4) 0.0922(3)
N11 N 0.3867(7) 0.5587(3) 0.0480(3)
N12 N 0.4753(8) 0.7430(3) 0.0086(4)
N13 N 0.2106(7) 0.8730(3) -0.0307(3)
N14 N 0.6353(8) 0.8417(3) -0.0045(3)
N15 N 0.4532(12) 0.6118(4) -0.0710(4)
N16 N 0.4191(10) 0.9185(4) 0.0330(4)
N17 N 0.4671(9) 0.9017(3) -0.0509(3)
N18 N 0.4581(10) 0.8076(4) -0.0765(4)
O4 O 0.4943(8) 0.8204(3) 0.0733(3)
H53 H 0.5672 0.8268 0.0814
H54 H 0.4483 0.8177 0.0951
O5 O 0.2339(9) 0.8311(6) 0.0575(4)
H55 H 0.2641 0.8254 0.0820
H56 H 0.1564 0.8270 0.0558
O6 O 0.2394(7) 0.7689(3) -0.0210(5)
H57 H 0.2127 0.7405 -0.0145
H58 H 0.1616 0.7720 -0.0228
Ru2C Ru 0.91783(7) 0.86748(3) -0.02602(3)
Ru2C_2 Ru -0.08217(7) 0.86748(3) -0.02602(3)
C45C C 0.2385(10) 0.6476(4) 0.0140(3)
C46C C 0.6045(9) 0.6251(3) 0.0318(3)
Ru3 Ru 0.69278(12) 0.76909(5) 0.24973(4)
C63 C 0.6963(14) 0.7199(7) 0.1604(4)
H39 H 0.7001 0.7521 0.1489
C64 C 0.6951(15) 0.6798(11) 0.1327(5)
H40 H 0.6996 0.6854 0.1029
C65 C 0.6879(17) 0.6351(10) 0.1468(6)
H41 H 0.6849 0.6068 0.1292
C66 C 0.685(4) 0.6342(14) 0.197(2)
C67 C 0.6754(16) 0.5998(19) 0.2028(10)
H42 H 0.6708 0.5784 0.1789
C68 C 0.666(2) 0.5746(7) 0.2489(10)
H43 H 0.6606 0.5405 0.2545
C69 C 0.6692(18) 0.6160(9) 0.2824(6)
C70 C 0.6618(15) 0.6132(9) 0.3293(7)
H44 H 0.6553 0.5827 0.3437
C71 C 0.6646(14) 0.6566(8) 0.3511(6)
H45 H 0.6584 0.6562 0.3813
C72 C 0.6763(13) 0.7010(7) 0.3304(4)
H46 H 0.6813 0.7302 0.3468
C73 C 0.6748(14) 0.6626(8) 0.2638(5)
C74 C 0.6821(15) 0.6714(9) 0.2181(6)
C75 C 0.8808(15) 0.7696(8) 0.2520(5)
C76 C 0.6927(15) 0.8148(8) 0.2985(5)
C77 C 0.7027(18) 0.8222(8) 0.2093(4)
C78 C 0.5025(18) 0.7737(7) 0.2463(5)
N19 N 0.6921(11) 0.7138(6) 0.2034(4)
N20 N 0.6806(11) 0.7041(5) 0.2872(4)
N21 N 0.9878(13) 0.7730(8) 0.2512(4)
N22 N 0.6920(16) 0.8401(7) 0.3292(4)
N23 N 0.7091(18) 0.8570(8) 0.1859(5)
N24 N 0.4004(16) 0.7729(7) 0.2435(5)
O7 O 0.7211(11) 0.8412(7) 0.0990(4)
O8 O 0.7076(8) 0.8191(3) 0.4171(3)
H59 H 0.7025 0.8258 0.3907
H60 H 0.7590 0.8417 0.4226
O9 O 0.4525(14) 0.8588(7) 0.3569(4)
H61 H 0.3779 0.8508 0.3614
H62 H 0.4468 0.8806 0.3377
O10 O 0.884(2) 0.9846(9) 0.2749(6)
O11 O 0.887(2) 0.9067(8) 0.3461(5)
O12 O 0.343(3) 0.8112(8) 0.1455(7)
O13 O 0.1067(17) 0.5899(11) 0.2223(6)
O14 O 0.211(2) 0.8129(8) 0.2829(10)
O16 O 0.061(3) 0.8529(8) 0.3087(7)
O17 O 0.167(2) 0.8271(8) 0.3738(7)
O18 O 0.041(4) 0.9794(8) 0.2004(8)
O19 O 0.9558(16) 0.8962(5) 0.1579(4)
O21 O 0.265(2) 0.9577(12) 0.1942(7)
O22 O 0.349(4) 0.4449(8) 0.2591(11)
O15? O -0.0046(18) 0.5995(11) 0.2354(6)
O20? O 0.069(2) 0.8343(8) 0.3957(7)
loop_
_geom_bond_atom_site_label_1
_geom_bond_atom_site_label_2
_geom_bond_site_symmetry_1
_geom_bond_site_symmetry_2
Nd1 N3 1_555 1_555
Nd2 N12 1_555 1_555
Ru1 C13 1_555 1_555
Ru2 C44 1_555 1_555
Ru3 C75 1_555 1_555
C1 H1 1_555 1_555
C2 C1 1_555 1_555
H2 C2 1_555 1_555
C3 C2 1_555 1_555
H3 C3 1_555 1_555
C4 C3 1_555 1_555
C5 C4 1_555 1_555
H4 C5 1_555 1_555
C6 C5 1_555 1_555
H5 C6 1_555 1_555
C7 C6 1_555 1_555
C8 C7 1_555 1_555
H6 C8 1_555 1_555
C9 C8 1_555 1_555
H7 C9 1_555 1_555
C10 C9 1_555 1_555
H8 C10 1_555 1_555
C11 C7 1_555 1_555
C12 C4 1_555 1_555
C13 N3 1_555 1_555
C14 N4 1_555 1_555
C15 N5 1_555 1_555
C16 Ru1 1_555 1_555
C17 H9 1_555 1_555
C18 C17 1_555 1_555
H10 C18 1_555 1_555
C19 C18 1_555 1_555
H11 C19 1_555 1_555
C20 C19 1_555 1_555
H12 C20 1_555 1_555
C21 C20 1_555 1_555
C22 C21 1_555 1_555
C23 C22 1_555 1_555
H13 C23 1_555 1_555
C24 C23 1_555 1_555
H14 C24 1_555 1_555
C25 C24 1_555 1_555
H15 C25 1_555 1_555
C26 C25 1_555 1_555
C27 C26 1_555 1_555
C28 C27 1_555 1_555
H16 C28 1_555 1_555
C29 C28 1_555 1_555
H17 C29 1_555 1_555
C30 C29 1_555 1_555
H18 C30 1_555 1_555
C31 C30 1_555 1_555
H19 C31 1_555 1_555
C32 H20 1_555 1_555
C33 C32 1_555 1_555
H21 C33 1_555 1_555
C34 C33 1_555 1_555
H22 C34 1_555 1_555
C35 C34 1_555 1_555
C36 C35 1_555 1_555
H23 C36 1_555 1_555
C37 C36 1_555 1_555
H24 C37 1_555 1_555
C38 C37 1_555 1_555
C39 C38 1_555 1_555
H25 C39 1_555 1_555
C40 C39 1_555 1_555
H26 C40 1_555 1_555
C41 C40 1_555 1_555
H27 C41 1_555 1_555
C42 C38 1_555 1_555
C43 C35 1_555 1_555
C44 N12 1_555 1_555
C45 N14 1_555 1_555
C46 N13 1_555 1_555
C47 Ru2 1_555 1_555
C48 H28 1_555 1_555
C49 C48 1_555 1_555
H29 C49 1_555 1_555
C50 C49 1_555 1_555
H30 C50 1_555 1_555
C51 C50 1_555 1_555
H31 C51 1_555 1_555
C52 C51 1_555 1_555
C53 C52 1_555 1_555
C54 C53 1_555 1_555
H32 C54 1_555 1_555
C55 C54 1_555 1_555
H33 C55 1_555 1_555
C56 C55 1_555 1_555
H34 C56 1_555 1_555
C57 C56 1_555 1_555
C58 C57 1_555 1_555
C59 C58 1_555 1_555
H35 C59 1_555 1_555
C60 C59 1_555 1_555
H36 C60 1_555 1_555
C61 C60 1_555 1_555
H37 C61 1_555 1_555
C62 C61 1_555 1_555
H38 C62 1_555 1_555
C63 H39 1_555 1_555
C64 C63 1_555 1_555
H40 C64 1_555 1_555
C65 C64 1_555 1_555
H41 C65 1_555 1_555
C66 C65 1_555 1_555
C67 C66 1_555 1_555
H42 C67 1_555 1_555
C68 C67 1_555 1_555
H43 C68 1_555 1_555
C69 C68 1_555 1_555
C70 C69 1_555 1_555
H44 C70 1_555 1_555
C71 C70 1_555 1_555
H45 C71 1_555 1_555
C72 C71 1_555 1_555
H46 C72 1_555 1_555
C73 C69 1_555 1_555
C74 C66 1_555 1_555
C75 N21 1_555 1_555
C76 Ru3 1_555 1_555
C77 Ru3 1_555 1_555
C78 Ru3 1_555 1_555
N1 Ru1 1_555 1_555
N2 Ru1 1_555 1_555
N4 Nd1 1_555 1_555
N5 Nd1 1_555 1_555
N6 C16 1_555 1_555
N7 Nd1 1_555 1_555
N8 Nd1 1_555 1_555
N9 Nd1 1_555 1_555
N10 Ru2 1_555 1_555
N11 Ru2 1_555 1_555
N13 Nd2 1_555 1_555
N14 Nd2 1_555 1_555
N15 C47 1_555 1_555
N16 Nd2 1_555 1_555
N17 Nd2 1_555 1_555
N18 Nd2 1_555 1_555
N19 Ru3 1_555 1_555
N20 Ru3 1_555 1_555
N22 C76 1_555 1_555
N23 C77 1_555 1_555
N24 C78 1_555 1_555
O1 Nd1 1_555 1_555
H47 O1 1_555 1_555
H48 O1 1_555 1_555
O2 Nd1 1_555 1_555
H49 O2 1_555 1_555
H50 O2 1_555 1_555
O3 Nd1 1_555 1_555
H51 O3 1_555 1_555
H52 O3 1_555 1_555
O4 Nd2 1_555 1_555
H53 O4 1_555 1_555
H54 O4 1_555 1_555
O5 Nd2 1_555 1_555
H55 O5 1_555 1_555
H56 O5 1_555 1_555
O6 Nd2 1_555 1_555
H57 O6 1_555 1_555
H58 O6 1_555 1_555
O8 H59 1_555 1_555
H60 O8 1_555 1_555
O9 H61 1_555 1_555
H62 O9 1_555 1_555
Ru1C C14 1_555 1_555
Ru1C_2 C15 1_555 1_555
Ru2C C45 1_555 1_555
Ru2C_2 C46 1_555 1_555
C14C Ru1 1_555 1_555
C15C Ru1 1_555 1_555
C45C Ru2 1_555 1_555
C46C Ru2 1_555 1_555
C1 N1 1_555 1_555
C10 N2 1_555 1_555
C11 C12 1_555 1_555
C11 N2 1_555 1_555
C12 N1 1_555 1_555
C17 N7 1_555 1_555
C21 N7 1_555 1_555
C22 N8 1_555 1_555
C26 N8 1_555 1_555
C27 N9 1_555 1_555
C31 N9 1_555 1_555
C32 N10 1_555 1_555
C41 N11 1_555 1_555
C42 C43 1_555 1_555
C42 N11 1_555 1_555
C43 N10 1_555 1_555
C48 N16 1_555 1_555
C52 N16 1_555 1_555
C53 N17 1_555 1_555
C57 N17 1_555 1_555
C58 N18 1_555 1_555
C62 N18 1_555 1_555
C63 N19 1_555 1_555
C72 N20 1_555 1_555
C73 C74 1_555 1_555
C73 N20 1_555 1_555
C74 N19 1_555 1_555

#END
