
#######################################################################
#
#                 Cambridge Crystallographic Data Centre
#                                CCDC 
#
#######################################################################
#
# If this CIF has been generated from an entry in the Cambridge 
# Structural Database, then it will include bibliographic, chemical, 
# crystal, experimental, refinement or atomic coordinate data resulting 
# from the CCDC's data processing and validation procedures.
#
#######################################################################

data_UDUKAG
_symmetry_cell_setting           orthorhombic
_symmetry_space_group_name_H-M   'P b c n'
_symmetry_Int_Tables_number      60
_space_group_name_Hall           '-P 2n 2ab'
loop_
_symmetry_equiv_pos_site_id
_symmetry_equiv_pos_as_xyz
1 x,y,z
2 1/2-x,1/2-y,1/2+z
3 -x,y,1/2-z
4 1/2+x,1/2-y,-z
5 -x,-y,-z
6 1/2+x,1/2+y,1/2-z
7 x,-y,1/2+z
8 1/2-x,1/2+y,z
_cell_length_a                   25.497(3)
_cell_length_b                   26.744(2)
_cell_length_c                   11.8709(11)
_cell_angle_alpha                90
_cell_angle_beta                 90
_cell_angle_gamma                90
_cell_volume                     8094.67
loop_
_atom_site_label
_atom_site_type_symbol
_atom_site_fract_x
_atom_site_fract_y
_atom_site_fract_z
Nd1 Nd 0.639335(11) 0.277782(9) 1.33343(2)
Ru1 Ru 0.5000 0.131274(18) 1.2500
Ru2 Ru 0.754350(16) 0.383092(13) 1.00703(3)
C1 C 0.71097(19) 0.46455(18) 1.1711(4)
H1 H 0.6963 0.4379 1.2136
C2 C 0.7037(2) 0.51377(18) 1.2089(4)
H2 H 0.6843 0.5199 1.2758
C3 C 0.7243(2) 0.55295(18) 1.1500(4)
H3 H 0.7194 0.5863 1.1755
C4 C 0.7526(2) 0.54340(17) 1.0516(4)
C5 C 0.7774(2) 0.58151(18) 0.9858(4)
H4 H 0.7740 0.6155 1.0082
C6 C 0.8054(2) 0.57042(17) 0.8928(4)
H5 H 0.8210 0.5965 0.8501
C7 C 0.8118(2) 0.51950(17) 0.8577(4)
C8 C 0.8413(2) 0.50558(17) 0.7621(4)
H6 H 0.8569 0.5304 0.7157
C9 C 0.8470(2) 0.45609(17) 0.7371(4)
H7 H 0.8674 0.4462 0.6739
C10 C 0.82284(19) 0.41995(17) 0.8044(4)
H8 H 0.8274 0.3857 0.7857
C11 C 0.78845(19) 0.48114(16) 0.9204(4)
C12 C 0.75870(19) 0.49313(16) 1.0186(4)
C13 C 0.7159(2) 0.34461(17) 1.1226(4)
C14 C 0.6847(2) 0.38589(17) 0.9201(4)
C15 C 0.8218(2) 0.37722(16) 1.0972(4)
C16 C 0.7219(2) 0.17693(17) 1.4257(4)
C17 C 0.6297(2) 0.40146(19) 1.4448(5)
H9 H 0.6477 0.3858 1.5053
C18 C 0.6226(2) 0.4535(2) 1.4487(5)
H10 H 0.6344 0.4722 1.5120
C19 C 0.5987(2) 0.4770(2) 1.3609(5)
H11 H 0.5941 0.5122 1.3619
C20 C 0.5811(2) 0.44892(19) 1.2694(4)
C21 C 0.5561(2) 0.4711(2) 1.1734(5)
H12 H 0.5539 0.5065 1.1673
C22 C 0.5356(2) 0.4421(2) 1.0916(5)
H13 H 0.5199 0.4575 1.0278
C23 C 0.5369(2) 0.3889(2) 1.0984(4)
C24 C 0.5106(2) 0.3580(2) 1.0223(4)
H14 H 0.4922 0.3721 0.9604
C25 C 0.5114(2) 0.3078(2) 1.0375(4)
H15 H 0.4924 0.2866 0.9880
C26 C 0.5404(2) 0.2874(2) 1.1268(4)
H16 H 0.5414 0.2520 1.1349
C27 C 0.5637(2) 0.36603(19) 1.1883(4)
C28 C 0.5870(2) 0.39635(18) 1.2746(4)
C29 C 0.56219(19) 0.07038(17) 1.4302(4)
H17 H 0.5732 0.1017 1.4594
C30 C 0.5776(2) 0.02683(19) 1.4861(4)
H18 H 0.5983 0.0290 1.5524
C31 C 0.5631(2) -0.01899(18) 1.4455(4)
H19 H 0.5736 -0.0487 1.4831
C32 C 0.5323(2) -0.02152(17) 1.3476(4)
C33 C 0.5153(2) -0.06747(16) 1.2967(4)
H20 H 0.5256 -0.0984 1.3291
C34 C 0.51704(19) 0.02420(15) 1.2980(4)
C35 C 0.5417(2) 0.18364(17) 1.3261(4)
C36 C 0.5569(2) 0.13451(16) 1.1296(4)
N1 N 0.73765(15) 0.45391(14) 1.0781(3)
N2 N 0.79377(16) 0.43149(13) 0.8935(3)
N3 N 0.69127(18) 0.32405(15) 1.1902(3)
N4 N 0.6441(2) 0.38534(17) 0.8775(4)
N5 N 0.86058(19) 0.37139(15) 1.1467(4)
N6 N 0.70203(19) 0.20940(15) 1.3759(4)
N7 N 0.61254(17) 0.37314(15) 1.3609(3)
N8 N 0.56662(17) 0.31539(15) 1.2006(3)
N9 N 0.56921(17) 0.21475(14) 1.3603(3)
N10 N 0.53277(16) 0.06981(13) 1.3382(3)
N11 N 0.58866(18) 0.14043(14) 1.0609(3)
O1 O 0.61526(16) 0.27934(13) 1.5324(3)
H21 H 0.6266 0.3008 1.5794
H22 H 0.5925 0.2582 1.5544
O2 O 0.71578(14) 0.31391(12) 1.4304(3)
H23 H 0.7274 0.2948 1.4819
H24 H 0.7415 0.3133 1.3848
O3 O 0.64545(15) 0.22734(13) 1.1538(3)
H25 H 0.6329 0.1985 1.1404
H26 H 0.6488 0.2451 1.0948
Nd1B Nd 0.360665(11) 0.277782(9) 1.16657(2)
Ru2B Ru 0.245650(16) 0.383092(13) 1.49297(3)
Ru2A Ru 0.745650(16) 0.116908(13) 1.50703(3)
Ru2C Ru 0.254350(16) 0.116908(13) 0.99297(3)
C1B C 0.28903(19) 0.46455(18) 1.3289(4)
H1B H 0.3037 0.4379 1.2864
C2B C 0.2963(2) 0.51377(18) 1.2911(4)
H2B H 0.3157 0.5199 1.2242
C3B C 0.2757(2) 0.55295(18) 1.3500(4)
H3B H 0.2806 0.5863 1.3245
C4B C 0.2474(2) 0.54340(17) 1.4484(4)
C5B C 0.2226(2) 0.58151(18) 1.5142(4)
H4B H 0.2260 0.6155 1.4918
C6B C 0.1946(2) 0.57042(17) 1.6072(4)
H5B H 0.1790 0.5965 1.6499
C7B C 0.1882(2) 0.51950(17) 1.6423(4)
C8B C 0.1587(2) 0.50558(17) 1.7379(4)
H6B H 0.1431 0.5304 1.7843
C9B C 0.1530(2) 0.45609(17) 1.7629(4)
H7B H 0.1326 0.4462 1.8261
C10B C 0.17716(19) 0.41995(17) 1.6956(4)
H8B H 0.1726 0.3857 1.7143
C11B C 0.21155(19) 0.48114(16) 1.5796(4)
C12B C 0.24130(19) 0.49313(16) 1.4814(4)
C13B C 0.2841(2) 0.34461(17) 1.3774(4)
C14B C 0.3153(2) 0.38589(17) 1.5799(4)
C15B C 0.1782(2) 0.37722(16) 1.4028(4)
C16B C 0.2781(2) 0.17693(17) 1.0743(4)
C16A C 0.7781(2) 0.32307(17) 0.9257(4)
C16C C 0.2219(2) 0.32307(17) 1.5743(4)
C17B C 0.3703(2) 0.40146(19) 1.0552(5)
H9B H 0.3523 0.3858 0.9947
C18B C 0.3774(2) 0.4535(2) 1.0513(5)
H10B H 0.3656 0.4722 0.9880
C19B C 0.4013(2) 0.4770(2) 1.1391(5)
H11B H 0.4059 0.5122 1.1381
C20B C 0.4189(2) 0.44892(19) 1.2306(4)
C21B C 0.4439(2) 0.4711(2) 1.3266(5)
H12B H 0.4461 0.5065 1.3327
C22B C 0.4644(2) 0.4421(2) 1.4084(5)
H13B H 0.4801 0.4575 1.4722
C23B C 0.4631(2) 0.3889(2) 1.4016(4)
C24B C 0.4894(2) 0.3580(2) 1.4777(4)
H14B H 0.5078 0.3721 1.5396
C25B C 0.4886(2) 0.3078(2) 1.4625(4)
H15B H 0.5076 0.2866 1.5120
C26B C 0.4596(2) 0.2874(2) 1.3732(4)
H16B H 0.4586 0.2520 1.3651
C27B C 0.4363(2) 0.36603(19) 1.3117(4)
C28B C 0.4130(2) 0.39635(18) 1.2254(4)
C29B C 0.43781(19) 0.07038(17) 1.0698(4)
H17B H 0.4268 0.1017 1.0406
C30B C 0.4224(2) 0.02683(19) 1.0139(4)
H18B H 0.4017 0.0290 0.9476
C31B C 0.4369(2) -0.01899(18) 1.0545(4)
H19B H 0.4264 -0.0487 1.0169
C32B C 0.4677(2) -0.02152(17) 1.1524(4)
C33B C 0.4847(2) -0.06747(16) 1.2033(4)
H20B H 0.4744 -0.0984 1.1709
C34B C 0.48296(19) 0.02420(15) 1.2020(4)
C35B C 0.4583(2) 0.18364(17) 1.1739(4)
C36B C 0.4431(2) 0.13451(16) 1.3704(4)
N1B N 0.26235(15) 0.45391(14) 1.4219(3)
N2B N 0.20623(16) 0.43149(13) 1.6065(3)
N3B N 0.30873(18) 0.32405(15) 1.3098(3)
N4B N 0.3559(2) 0.38534(17) 1.6225(4)
N5B N 0.13942(19) 0.37139(15) 1.3533(4)
N6B N 0.29797(19) 0.20940(15) 1.1241(4)
N7B N 0.38746(17) 0.37314(15) 1.1391(3)
N8B N 0.43338(17) 0.31539(15) 1.2994(3)
N9B N 0.43079(17) 0.21475(14) 1.1397(3)
N10B N 0.46723(16) 0.06981(13) 1.1618(3)
N11B N 0.41134(18) 0.14043(14) 1.4391(3)
O1B O 0.38474(16) 0.27934(13) 0.9676(3)
H21B H 0.3734 0.3008 0.9206
H22B H 0.4075 0.2582 0.9456
O2B O 0.28422(14) 0.31391(12) 1.0696(3)
H23B H 0.2726 0.2948 1.0181
H24B H 0.2585 0.3133 1.1152
O3B O 0.35455(15) 0.22734(13) 1.3462(3)
H25B H 0.3671 0.1985 1.3596
H26B H 0.3512 0.2451 1.4052
O4 O 0.56272(15) 0.20420(13) 1.6502(3)
H27 H 0.5797 0.1769 1.6478
H28 H 0.5555 0.2017 1.7199
O5 O 0.45366(17) 0.20588(14) 1.6145(3)
H29 H 0.4403 0.1855 1.5676
H30 H 0.4868 0.2077 1.6210
O6 O 0.7399(2) 0.27625(17) 0.6378(4)
H31 H 0.7732 0.2754 0.6429
H32 H 0.7308 0.2483 0.6654
O7 O 0.30333(18) 0.20595(16) 1.7033(4)
H33 H 0.3240 0.2221 1.6606
H34 H 0.3179 0.1815 1.7367
O8 O 0.6630(2) 0.3373(2) 0.6732(4)
H35 H 0.6789 0.3100 0.7116
H36 H 0.6566 0.3475 0.7486
O9 O 0.36574(16) 0.26829(14) 1.5631(3)
H37 H 0.3981 0.2605 1.5644
H38 H 0.3668 0.3000 1.5614
O10 O 0.5492(6) 0.5879(5) 1.2431(13)
O11? O 0.5555(8) 0.6263(6) 1.2346(15)
loop_
_geom_bond_atom_site_label_1
_geom_bond_atom_site_label_2
_geom_bond_site_symmetry_1
_geom_bond_site_symmetry_2
Nd1 N3 1_555 1_555
Ru1 C35 1_555 1_555
Ru2 C13 1_555 1_555
C1 H1 1_555 1_555
C2 C1 1_555 1_555
H2 C2 1_555 1_555
C3 C2 1_555 1_555
H3 C3 1_555 1_555
C4 C3 1_555 1_555
C5 C4 1_555 1_555
H4 C5 1_555 1_555
C6 C5 1_555 1_555
H5 C6 1_555 1_555
C7 C6 1_555 1_555
C8 C7 1_555 1_555
H6 C8 1_555 1_555
C9 C8 1_555 1_555
H7 C9 1_555 1_555
C10 C9 1_555 1_555
H8 C10 1_555 1_555
C11 C7 1_555 1_555
C12 C4 1_555 1_555
C13 N3 1_555 1_555
C14 Ru2 1_555 1_555
C15 Ru2 1_555 1_555
C16 N6 1_555 1_555
C17 H9 1_555 1_555
C18 C17 1_555 1_555
H10 C18 1_555 1_555
C19 C18 1_555 1_555
H11 C19 1_555 1_555
C20 C19 1_555 1_555
C21 C20 1_555 1_555
H12 C21 1_555 1_555
C22 C21 1_555 1_555
H13 C22 1_555 1_555
C23 C22 1_555 1_555
C24 C23 1_555 1_555
H14 C24 1_555 1_555
C25 C24 1_555 1_555
H15 C25 1_555 1_555
C26 C25 1_555 1_555
H16 C26 1_555 1_555
C27 C23 1_555 1_555
C28 C20 1_555 1_555
C29 H17 1_555 1_555
C30 C29 1_555 1_555
H18 C30 1_555 1_555
C31 C30 1_555 1_555
H19 C31 1_555 1_555
C32 C31 1_555 1_555
C33 C32 1_555 1_555
H20 C33 1_555 1_555
C34 C32 1_555 1_555
C35 N9 1_555 1_555
C36 Ru1 1_555 1_555
N1 Ru2 1_555 1_555
N2 Ru2 1_555 1_555
N4 C14 1_555 1_555
N5 C15 1_555 1_555
N6 Nd1 1_555 1_555
N7 Nd1 1_555 1_555
N8 Nd1 1_555 1_555
N9 Nd1 1_555 1_555
N10 Ru1 1_555 1_555
N11 C36 1_555 1_555
O1 Nd1 1_555 1_555
H21 O1 1_555 1_555
H22 O1 1_555 1_555
O2 Nd1 1_555 1_555
H23 O2 1_555 1_555
H24 O2 1_555 1_555
O3 Nd1 1_555 1_555
H25 O3 1_555 1_555
H26 O3 1_555 1_555
O4 H27 1_555 1_555
H28 O4 1_555 1_555
O5 H29 1_555 1_555
H30 O5 1_555 1_555
O6 H31 1_555 1_555
H32 O6 1_555 1_555
O7 H33 1_555 1_555
H34 O7 1_555 1_555
O8 H35 1_555 1_555
H36 O8 1_555 1_555
O9 H37 1_555 1_555
H38 O9 1_555 1_555
Nd1B N3B 1_555 1_555
Ru2B C13B 1_555 1_555
Ru2A C16 1_555 1_555
Ru2C C16B 1_555 1_555
C1B H1B 1_555 1_555
C2B C1B 1_555 1_555
H2B C2B 1_555 1_555
C3B C2B 1_555 1_555
H3B C3B 1_555 1_555
C4B C3B 1_555 1_555
C5B C4B 1_555 1_555
H4B C5B 1_555 1_555
C6B C5B 1_555 1_555
H5B C6B 1_555 1_555
C7B C6B 1_555 1_555
C8B C7B 1_555 1_555
H6B C8B 1_555 1_555
C9B C8B 1_555 1_555
H7B C9B 1_555 1_555
C10B C9B 1_555 1_555
H8B C10B 1_555 1_555
C11B C7B 1_555 1_555
C12B C4B 1_555 1_555
C13B N3B 1_555 1_555
C14B Ru2B 1_555 1_555
C15B Ru2B 1_555 1_555
C16B N6B 1_555 1_555
C16A Ru2 1_555 1_555
C16C Ru2B 1_555 1_555
C17B H9B 1_555 1_555
C18B C17B 1_555 1_555
H10B C18B 1_555 1_555
C19B C18B 1_555 1_555
H11B C19B 1_555 1_555
C20B C19B 1_555 1_555
C21B C20B 1_555 1_555
H12B C21B 1_555 1_555
C22B C21B 1_555 1_555
H13B C22B 1_555 1_555
C23B C22B 1_555 1_555
C24B C23B 1_555 1_555
H14B C24B 1_555 1_555
C25B C24B 1_555 1_555
H15B C25B 1_555 1_555
C26B C25B 1_555 1_555
H16B C26B 1_555 1_555
C27B C23B 1_555 1_555
C28B C20B 1_555 1_555
C29B H17B 1_555 1_555
C30B C29B 1_555 1_555
H18B C30B 1_555 1_555
C31B C30B 1_555 1_555
H19B C31B 1_555 1_555
C32B C31B 1_555 1_555
C33B C33 1_555 1_555
H20B C33B 1_555 1_555
C34B C34 1_555 1_555
C35B Ru1 1_555 1_555
C36B Ru1 1_555 1_555
N1B Ru2B 1_555 1_555
N2B Ru2B 1_555 1_555
N4B C14B 1_555 1_555
N5B C15B 1_555 1_555
N6B Nd1B 1_555 1_555
N7B Nd1B 1_555 1_555
N8B Nd1B 1_555 1_555
N9B Nd1B 1_555 1_555
N10B Ru1 1_555 1_555
N11B C36B 1_555 1_555
O1B Nd1B 1_555 1_555
H21B O1B 1_555 1_555
H22B O1B 1_555 1_555
O2B Nd1B 1_555 1_555
H23B O2B 1_555 1_555
H24B O2B 1_555 1_555
O3B Nd1B 1_555 1_555
H25B O3B 1_555 1_555
H26B O3B 1_555 1_555
C1 N1 1_555 1_555
C10 N2 1_555 1_555
C11 C12 1_555 1_555
C11 N2 1_555 1_555
C12 N1 1_555 1_555
C17 N7 1_555 1_555
C26 N8 1_555 1_555
C27 C28 1_555 1_555
C27 N8 1_555 1_555
C28 N7 1_555 1_555
C29 N10 1_555 1_555
C34 N10 1_555 1_555
C1B N1B 1_555 1_555
C10B N2B 1_555 1_555
C11B C12B 1_555 1_555
C11B N2B 1_555 1_555
C12B N1B 1_555 1_555
C17B N7B 1_555 1_555
C26B N8B 1_555 1_555
C27B C28B 1_555 1_555
C27B N8B 1_555 1_555
C28B N7B 1_555 1_555
C29B N10B 1_555 1_555
C32B C33B 1_555 1_555
C32B C34B 1_555 1_555
C34B N10B 1_555 1_555
C35B N9B 1_555 1_555

#END
