
#######################################################################
#
#                 Cambridge Crystallographic Data Centre
#                                CCDC 
#
#######################################################################
#
# If this CIF has been generated from an entry in the Cambridge 
# Structural Database, then it will include bibliographic, chemical, 
# crystal, experimental, refinement or atomic coordinate data resulting 
# from the CCDC's data processing and validation procedures.
#
#######################################################################

data_UDUKAH
_symmetry_cell_setting           triclinic
_symmetry_space_group_name_H-M   'P -1'
_symmetry_Int_Tables_number      2
_space_group_name_Hall           '-P 1'
loop_
_symmetry_equiv_pos_site_id
_symmetry_equiv_pos_as_xyz
1 x,y,z
2 -x,-y,-z
_cell_length_a                   9.132(3)
_cell_length_b                   9.304(2)
_cell_length_c                   10.519(2)
_cell_angle_alpha                80.38(3)
_cell_angle_beta                 75.49(3)
_cell_angle_gamma                77.32(3)
_cell_volume                     838.161
loop_
_atom_site_label
_atom_site_type_symbol
_atom_site_fract_x
_atom_site_fract_y
_atom_site_fract_z
Tm1 Tm 0.9119(2) 0.07193(15) 0.68033(15)
Co1 Co 1.0000 0.0000 1.0000
O1 O 1.1703(19) -0.0296(19) 0.681(2)
O2 O 1.021(2) 0.282(2) 0.5776(18)
O3 O 0.903(3) -0.110(2) 0.887(2)
O4 O 0.939(3) 0.1784(19) 0.8614(17)
O5 O 0.691(2) -0.017(2) 0.815(2)
O6 O 0.738(2) 0.2887(17) 0.7762(16)
C1 C 0.784(5) 0.389(3) 0.963(4)
H1 H 0.8594 0.3642 1.0160
H2 H 0.6844 0.3806 1.0178
H3 H 0.7824 0.4890 0.9205
O7 O 0.728(2) 0.155(2) 0.5516(18)
O8 O 1.208(3) -0.051(2) 0.879(2)
C2 C 0.670(5) -0.185(4) 1.009(3)
H4 H 0.7329 -0.2411 1.0680
H5 H 0.6276 -0.2521 0.9743
H6 H 0.5873 -0.1179 1.0573
C3 C 0.825(3) 0.283(3) 0.858(3)
C4 C 0.761(3) -0.104(4) 0.903(3)
C5 C 1.159(4) 0.351(3) 0.357(4)
H7 H 1.1964 0.3081 0.2747
H8 H 1.2447 0.3669 0.3866
H9 H 1.0909 0.4434 0.3434
C6 C 1.074(3) 0.246(3) 0.459(2)
O9 O 1.058(3) 0.1233(19) 0.4363(18)
C7 C 1.408(4) -0.113(4) 0.707(4)
H10 H 1.4616 -0.1343 0.7774
H11 H 1.4492 -0.0389 0.6415
H12 H 1.4189 -0.2019 0.6675
C8 C 1.255(3) -0.062(3) 0.757(3)
Tm1A Tm 1.0881(2) -0.07193(15) 0.31967(15)
O1A O 0.8297(19) 0.0296(19) 0.319(2)
O2A O 0.979(2) -0.282(2) 0.4224(18)
O3A O 1.097(3) 0.110(2) 0.113(2)
O4A O 1.061(3) -0.1784(19) 0.1386(17)
O5A O 1.309(2) 0.017(2) 0.185(2)
O6A O 1.262(2) -0.2887(17) 0.2238(16)
C1A C 1.216(5) -0.389(3) 0.037(4)
H1A H 1.1406 -0.3642 -0.0160
H2A H 1.3156 -0.3806 -0.0178
H3A H 1.2176 -0.4890 0.0795
O7A O 1.272(2) -0.155(2) 0.4484(18)
O8A O 0.792(3) 0.051(2) 0.121(2)
C2A C 1.330(5) 0.185(4) -0.009(3)
H4A H 1.2671 0.2411 -0.0680
H5A H 1.3724 0.2521 0.0257
H6A H 1.4127 0.1179 -0.0573
C3A C 1.175(3) -0.283(3) 0.142(3)
C4A C 1.239(3) 0.104(4) 0.097(3)
C5A C 0.841(4) -0.351(3) 0.643(4)
H7A H 0.8036 -0.3081 0.7253
H8A H 0.7553 -0.3669 0.6134
H9A H 0.9091 -0.4434 0.6566
C6A C 0.926(3) -0.246(3) 0.541(2)
O9A O 0.942(3) -0.1233(19) 0.5637(18)
C7A C 0.592(4) 0.113(4) 0.293(4)
H10A H 0.5384 0.1343 0.2226
H11A H 0.5508 0.0389 0.3585
H12A H 0.5811 0.2019 0.3325
C8A C 0.745(3) 0.062(3) 0.243(3)
Co1_2 Co 1.0000 0.0000 0.0000
O3A_2 O 1.097(3) 0.110(2) 1.113(2)
O4A_2 O 1.061(3) -0.1784(19) 1.1386(17)
O8A_2 O 0.792(3) 0.051(2) 1.121(2)
O10 O 0.465(3) 0.452(2) 0.754(3)
H13 H 0.5517 0.4014 0.7465
C9 C 0.393(4) 0.409(6) 0.685(4)
O11 O 0.456(3) 0.323(3) 0.610(3)
C10 C 0.242(5) 0.494(4) 0.672(4)
H14 H 0.2106 0.5696 0.7309
H15 H 0.1687 0.4292 0.6946
H16 H 0.2475 0.5399 0.5828
loop_
_geom_bond_atom_site_label_1
_geom_bond_atom_site_label_2
_geom_bond_site_symmetry_1
_geom_bond_site_symmetry_2
Tm1 O1 1_555 1_555
Co1 O3 1_555 1_555
O1 C8 1_555 1_555
O2 Tm1 1_555 1_555
O3 Tm1 1_555 1_555
O4 Tm1 1_555 1_555
O5 Tm1 1_555 1_555
O6 Tm1 1_555 1_555
C1 H1 1_555 1_555
H2 C1 1_555 1_555
H3 C1 1_555 1_555
O7 Tm1 1_555 1_555
O8 Co1 1_555 1_555
C2 H4 1_555 1_555
H5 C2 1_555 1_555
H6 C2 1_555 1_555
C3 O4 1_555 1_555
C4 O3 1_555 1_555
C5 H7 1_555 1_555
H8 C5 1_555 1_555
H9 C5 1_555 1_555
C6 O2 1_555 1_555
O9 Tm1 1_555 1_555
C7 H10 1_555 1_555
H11 C7 1_555 1_555
H12 C7 1_555 1_555
C8 O8 1_555 1_555
O10 H13 1_555 1_555
C9 O10 1_555 1_555
O11 C9 1_555 1_555
C10 C9 1_555 1_555
H14 C10 1_555 1_555
H15 C10 1_555 1_555
H16 C10 1_555 1_555
Tm1A O9 1_555 1_555
O1A Tm1A 1_555 1_555
O2A Tm1A 1_555 1_555
O3A Tm1A 1_555 1_555
O4A Tm1A 1_555 1_555
O5A Tm1A 1_555 1_555
O6A Tm1A 1_555 1_555
C1A H1A 1_555 1_555
H2A C1A 1_555 1_555
H3A C1A 1_555 1_555
O7A Tm1A 1_555 1_555
O8A C8A 1_555 1_555
C2A H4A 1_555 1_555
H5A C2A 1_555 1_555
H6A C2A 1_555 1_555
C3A O4A 1_555 1_555
C4A O3A 1_555 1_555
C5A H7A 1_555 1_555
H8A C5A 1_555 1_555
H9A C5A 1_555 1_555
C6A O2A 1_555 1_555
O9A Tm1 1_555 1_555
C7A H10A 1_555 1_555
H11A C7A 1_555 1_555
H12A C7A 1_555 1_555
C8A O1A 1_555 1_555
Co1_2 O3A 1_555 1_555
O3A_2 Co1 1_555 1_555
O4A_2 Co1 1_555 1_555
O8A_2 Co1 1_555 1_555
Co1 O4 1_555 1_555
O5 C4 1_555 1_555
O6 C3 1_555 1_555
C1 C3 1_555 1_555
C2 C4 1_555 1_555
C5 C6 1_555 1_555
C6 O9 1_555 1_555
C7 C8 1_555 1_555
Tm1A O9A 1_555 1_555
O4A Co1_2 1_555 1_555
O5A C4A 1_555 1_555
O6A C3A 1_555 1_555
C1A C3A 1_555 1_555
O8A Co1_2 1_555 1_555
C2A C4A 1_555 1_555
C5A C6A 1_555 1_555
C6A O9A 1_555 1_555
C7A C8A 1_555 1_555

#END
