
#######################################################################
#
#                 Cambridge Crystallographic Data Centre
#                                CCDC 
#
#######################################################################
#
# If this CIF has been generated from an entry in the Cambridge 
# Structural Database, then it will include bibliographic, chemical, 
# crystal, experimental, refinement or atomic coordinate data resulting 
# from the CCDC's data processing and validation procedures.
#
#######################################################################

data_UDUKEL
_symmetry_cell_setting           triclinic
_symmetry_space_group_name_H-M   'P -1'
_symmetry_Int_Tables_number      2
_space_group_name_Hall           '-P 1'
loop_
_symmetry_equiv_pos_site_id
_symmetry_equiv_pos_as_xyz
1 x,y,z
2 -x,-y,-z
_cell_length_a                   9.2215(14)
_cell_length_b                   9.3172(13)
_cell_length_c                   10.7812(13)
_cell_angle_alpha                80.191(16)
_cell_angle_beta                 74.908(16)
_cell_angle_gamma                76.940(17)
_cell_volume                     865.076
loop_
_atom_site_label
_atom_site_type_symbol
_atom_site_fract_x
_atom_site_fract_y
_atom_site_fract_z
Tb1 Tb 0.91115(3) 0.07184(3) 0.67858(3)
Mn1 Mn 1.0000 0.0000 1.0000
O1 O 1.1687(4) -0.0332(5) 0.6754(4)
O2 O 1.0230(5) 0.2854(5) 0.5759(4)
C1 C 1.2571(7) -0.0604(7) 0.7530(6)
O3 O 0.8997(5) -0.1081(5) 0.8850(4)
O4 O 0.9294(5) 0.1888(5) 0.8618(4)
O5 O 0.6920(5) -0.0246(6) 0.8148(5)
O6 O 0.7352(5) 0.2890(5) 0.7775(4)
O7 O 1.0567(5) 0.1259(4) 0.4390(4)
C2 C 0.7533(12) 0.3947(9) 0.9566(8)
H1 H 0.8227 0.3765 1.0127
H2 H 0.6532 0.3831 1.0067
H3 H 0.7490 0.4939 0.9130
O8 O 0.7319(5) 0.1571(5) 0.5511(4)
O9 O 1.2147(5) -0.0505(6) 0.8708(4)
C3 C 0.6690(10) -0.1883(9) 1.0088(7)
H4 H 0.7356 -0.2410 1.0636
H5 H 0.6281 -0.2577 0.9779
H6 H 0.5867 -0.1219 1.0571
C4 C 0.8082(8) 0.2865(7) 0.8588(6)
C5 C 0.7565(8) -0.1019(7) 0.8971(6)
C6 C 1.4238(8) -0.1133(11) 0.6986(8)
H7 H 1.4413 -0.1160 0.6072
H8 H 1.4557 -0.2111 0.7397
H9 H 1.4813 -0.0469 0.7140
C7 C 1.1676(10) 0.3439(8) 0.3634(8)
H10 H 1.2021 0.2988 0.2845
H11 H 1.2543 0.3557 0.3915
H12 H 1.1042 0.4393 0.3488
C8 C 1.0781(7) 0.2478(7) 0.4645(6)
H13 H 0.627(3) 0.205(10) 0.574(9)
H14 H 0.737(9) 0.107(8) 0.479(5)
Tb1A Tb 1.08885(3) -0.07184(3) 0.32142(3)
O1A O 0.8313(4) 0.0332(5) 0.3246(4)
O2A O 0.9770(5) -0.2854(5) 0.4241(4)
C1A C 0.7429(7) 0.0604(7) 0.2470(6)
O3A O 1.1003(5) 0.1081(5) 0.1150(4)
O4A O 1.0706(5) -0.1888(5) 0.1382(4)
O5A O 1.3080(5) 0.0246(6) 0.1852(5)
O6A O 1.2648(5) -0.2890(5) 0.2225(4)
O7A O 0.9433(5) -0.1259(4) 0.5610(4)
C2A C 1.2467(12) -0.3947(9) 0.0434(8)
H1A H 1.1773 -0.3765 -0.0127
H2A H 1.3468 -0.3831 -0.0067
H3A H 1.2510 -0.4939 0.0870
O8A O 1.2681(5) -0.1571(5) 0.4489(4)
O9A O 0.7853(5) 0.0505(6) 0.1292(4)
C3A C 1.3310(10) 0.1883(9) -0.0088(7)
H4A H 1.2644 0.2410 -0.0636
H5A H 1.3719 0.2577 0.0221
H6A H 1.4133 0.1219 -0.0571
C4A C 1.1918(8) -0.2865(7) 0.1412(6)
C5A C 1.2435(8) 0.1019(7) 0.1029(6)
C6A C 0.5762(8) 0.1133(11) 0.3014(8)
H7A H 0.5587 0.1160 0.3928
H8A H 0.5443 0.2111 0.2603
H9A H 0.5187 0.0469 0.2860
C7A C 0.8324(10) -0.3439(8) 0.6366(8)
H10A H 0.7979 -0.2988 0.7155
H11A H 0.7457 -0.3557 0.6085
H12A H 0.8958 -0.4393 0.6512
C8A C 0.9219(7) -0.2478(7) 0.5355(6)
H13A H 1.373(3) -0.205(10) 0.426(9)
H14A H 1.263(9) -0.107(8) 0.521(5)
Mn1_2 Mn 1.0000 0.0000 0.0000
O3A_2 O 1.1003(5) 0.1081(5) 1.1150(4)
O4A_2 O 1.0706(5) -0.1888(5) 1.1382(4)
O9A_2 O 0.7853(5) 0.0505(6) 1.1292(4)
O10 O 0.4612(6) 0.4575(6) 0.7543(6)
H15 H 0.5477 0.4072 0.7469
C9 C 0.3923(9) 0.4193(9) 0.6756(8)
O11 O 0.4499(8) 0.3199(9) 0.6097(7)
C10 C 0.2337(10) 0.5026(11) 0.6785(10)
H16 H 0.2074 0.5755 0.7377
H17 H 0.1637 0.4350 0.7060
H18 H 0.2275 0.5511 0.5935
loop_
_geom_bond_atom_site_label_1
_geom_bond_atom_site_label_2
_geom_bond_site_symmetry_1
_geom_bond_site_symmetry_2
Tb1 O1 1_555 1_555
Mn1 O3 1_555 1_555
O1 C1 1_555 1_555
O2 Tb1 1_555 1_555
C1 O9 1_555 1_555
O3 Tb1 1_555 1_555
O4 Tb1 1_555 1_555
O5 Tb1 1_555 1_555
O6 Tb1 1_555 1_555
O7 Tb1 1_555 1_555
C2 H1 1_555 1_555
H2 C2 1_555 1_555
H3 C2 1_555 1_555
O8 Tb1 1_555 1_555
O9 Mn1 1_555 1_555
C3 H4 1_555 1_555
H5 C3 1_555 1_555
H6 C3 1_555 1_555
C4 O4 1_555 1_555
C5 O3 1_555 1_555
C6 C1 1_555 1_555
H7 C6 1_555 1_555
H8 C6 1_555 1_555
H9 C6 1_555 1_555
C7 H10 1_555 1_555
H11 C7 1_555 1_555
H12 C7 1_555 1_555
C8 O2 1_555 1_555
H13 O8 1_555 1_555
H14 O8 1_555 1_555
O10 H15 1_555 1_555
C9 O10 1_555 1_555
O11 C9 1_555 1_555
C10 C9 1_555 1_555
H16 C10 1_555 1_555
H17 C10 1_555 1_555
H18 C10 1_555 1_555
Tb1A O7 1_555 1_555
O1A Tb1A 1_555 1_555
O2A Tb1A 1_555 1_555
C1A O1A 1_555 1_555
O3A Tb1A 1_555 1_555
O4A Tb1A 1_555 1_555
O5A Tb1A 1_555 1_555
O6A Tb1A 1_555 1_555
O7A Tb1 1_555 1_555
C2A H1A 1_555 1_555
H2A C2A 1_555 1_555
H3A C2A 1_555 1_555
O8A Tb1A 1_555 1_555
O9A C1A 1_555 1_555
C3A H4A 1_555 1_555
H5A C3A 1_555 1_555
H6A C3A 1_555 1_555
C4A O4A 1_555 1_555
C5A O3A 1_555 1_555
C6A C1A 1_555 1_555
H7A C6A 1_555 1_555
H8A C6A 1_555 1_555
H9A C6A 1_555 1_555
C7A H10A 1_555 1_555
H11A C7A 1_555 1_555
H12A C7A 1_555 1_555
C8A O2A 1_555 1_555
H13A O8A 1_555 1_555
H14A O8A 1_555 1_555
Mn1_2 O3A 1_555 1_555
O3A_2 Mn1 1_555 1_555
O4A_2 Mn1 1_555 1_555
O9A_2 Mn1 1_555 1_555
Mn1 O4 1_555 1_555
O5 C5 1_555 1_555
O6 C4 1_555 1_555
O7 C8 1_555 1_555
C2 C4 1_555 1_555
C3 C5 1_555 1_555
C7 C8 1_555 1_555
Tb1A O7A 1_555 1_555
O4A Mn1_2 1_555 1_555
O5A C5A 1_555 1_555
O6A C4A 1_555 1_555
O7A C8A 1_555 1_555
C2A C4A 1_555 1_555
O9A Mn1_2 1_555 1_555
C3A C5A 1_555 1_555
C7A C8A 1_555 1_555

#END
