
#######################################################################
#
#                 Cambridge Crystallographic Data Centre
#                                CCDC 
#
#######################################################################
#
# If this CIF has been generated from an entry in the Cambridge 
# Structural Database, then it will include bibliographic, chemical, 
# crystal, experimental, refinement or atomic coordinate data resulting 
# from the CCDC's data processing and validation procedures.
#
#######################################################################

data_UDUKOU
_symmetry_cell_setting           orthorhombic
_symmetry_space_group_name_H-M   'P n m a'
_symmetry_Int_Tables_number      62
_space_group_name_Hall           '-P 2ac 2n'
loop_
_symmetry_equiv_pos_site_id
_symmetry_equiv_pos_as_xyz
1 x,y,z
2 1/2-x,-y,1/2+z
3 -x,1/2+y,-z
4 1/2+x,1/2-y,1/2-z
5 -x,-y,-z
6 1/2+x,y,1/2-z
7 x,1/2-y,z
8 1/2-x,1/2+y,1/2+z
_cell_length_a                   21.4922(12)
_cell_length_b                   26.3727(15)
_cell_length_c                   17.1830(10)
_cell_angle_alpha                90
_cell_angle_beta                 90
_cell_angle_gamma                90
_cell_volume                     9739.45
loop_
_atom_site_label
_atom_site_type_symbol
_atom_site_fract_x
_atom_site_fract_y
_atom_site_fract_z
Nd1 Nd -0.287625(15) 0.426143(14) 0.746807(19)
Ru1 Ru -0.54403(2) 0.47269(2) 0.75404(3)
N1 N -0.5217(2) 0.5347(2) 0.6798(3)
N2 N -0.5264(2) 0.5323(2) 0.8345(3)
N3 N -0.5686(3) 0.3938(3) 0.6206(4)
N4 N -0.5669(3) 0.3862(2) 0.8758(4)
N5 N -0.1921(2) 0.4827(2) 0.7375(3)
N6 N -0.3033(3) 0.4548(3) 0.6025(4)
N7 N -0.3207(3) 0.5206(2) 0.7233(4)
N8 N -0.3083(3) 0.4811(2) 0.8698(3)
C1 C -0.5189(3) 0.5356(3) 0.6021(4)
H1 H -0.5289 0.5055 0.5742
C2 C -0.5018(4) 0.5787(3) 0.5601(5)
H2 H -0.5001 0.5775 0.5049
C3 C -0.4877(4) 0.6225(3) 0.5982(5)
H3 H -0.4759 0.6519 0.5700
C4 C -0.4908(3) 0.6236(3) 0.6803(5)
C5 C -0.4786(4) 0.6683(3) 0.7259(6)
H4 H -0.4667 0.6988 0.7005
C6 C -0.4839(4) 0.6676(3) 0.8038(5)
H5 H -0.4766 0.6978 0.8325
C7 C -0.5006(3) 0.6220(3) 0.8446(5)
C8 C -0.5072(4) 0.6196(3) 0.9253(5)
H6 H -0.5005 0.6488 0.9566
C9 C -0.5237(4) 0.5739(3) 0.9587(5)
H7 H -0.5295 0.5717 1.0134
C10 C -0.5318(3) 0.5309(3) 0.9123(4)
H8 H -0.5416 0.4996 0.9366
C11 C -0.5115(3) 0.5773(3) 0.8016(4)
C12 C -0.5079(3) 0.5786(3) 0.7184(4)
C13 C -0.5596(3) 0.4229(3) 0.6704(4)
C14 C -0.4526(3) 0.4509(3) 0.7513(3)
C15 C -0.5585(3) 0.4182(3) 0.8313(4)
C16 C -0.1381(3) 0.4848(2) 0.7411(3)
C17 C -0.2975(4) 0.4220(4) 0.5441(5)
H9 H -0.2844 0.3885 0.5564
C18 C -0.3093(5) 0.4330(6) 0.4672(6)
H10 H -0.3026 0.4087 0.4271
C19 C -0.3313(4) 0.4808(6) 0.4512(5)
H11 H -0.3421 0.4893 0.3993
C20 C -0.3380(4) 0.5166(5) 0.5090(5)
H12 H -0.3527 0.5498 0.4977
C21 C -0.3224(3) 0.5024(4) 0.5851(5)
C22 C -0.3244(3) 0.5392(3) 0.6500(5)
C23 C -0.3291(4) 0.5915(4) 0.6353(7)
H13 H -0.3307 0.6043 0.5837
C24 C -0.3316(4) 0.6238(3) 0.6994(8)
H14 H -0.3337 0.6594 0.6913
C25 C -0.3309(4) 0.6052(3) 0.7733(7)
H15 H -0.3336 0.6274 0.8167
C26 C -0.3260(3) 0.5526(3) 0.7841(6)
C27 C -0.3268(3) 0.5303(3) 0.8630(5)
C28 C -0.3464(4) 0.5581(4) 0.9269(6)
H16 H -0.3610 0.5918 0.9210
C29 C -0.3441(4) 0.5353(4) 0.9999(6)
H17 H -0.3563 0.5542 1.0444
C30 C -0.3248(4) 0.4866(5) 1.0086(5)
H18 H -0.3234 0.4708 1.0583
C31 C -0.3073(4) 0.4609(4) 0.9417(5)
H19 H -0.2938 0.4267 0.9469
O1 O -0.2087(2) 0.3963(2) 0.8422(3)
H24 H -0.2176 0.3784 0.8843
H25 H -0.1710 0.3949 0.8418
O2 O -0.2069(2) 0.3774(2) 0.6723(3)
H26 H -0.1673 0.3874 0.6673
H27 H -0.2008 0.3505 0.6753
O3 O -0.3306(2) 0.3629(2) 0.8403(3)
H28 H -0.3682 0.3579 0.8535
H29 H -0.3136 0.3578 0.8843
O4 O -0.3327(2) 0.3502(2) 0.6767(3)
H30 H -0.3076 0.3428 0.6477
H31 H -0.3725 0.3524 0.6592
N13 N -0.4028(3) 0.4373(2) 0.7486(3)
Nd1E Nd -0.787625(15) 0.426143(14) 0.753193(19)
Nd1E_2 Nd 0.212375(15) 0.426143(14) 0.753193(19)
Ru1E Ru -0.04403(2) 0.47269(2) 0.74596(3)
N1E N -0.0217(2) 0.5347(2) 0.8202(3)
N2E N -0.0264(2) 0.5323(2) 0.6655(3)
N3E N -0.0686(3) 0.3938(3) 0.8794(4)
N4E N -0.0669(3) 0.3862(2) 0.6242(4)
N5E N -0.6921(2) 0.4827(2) 0.7625(3)
N6E N -0.8033(3) 0.4548(3) 0.8975(4)
N7E N -0.8207(3) 0.5206(2) 0.7767(4)
N8E N -0.8083(3) 0.4811(2) 0.6302(3)
C1E C -0.0189(3) 0.5356(3) 0.8979(4)
H1E H -0.0289 0.5055 0.9258
C2E C -0.0018(4) 0.5787(3) 0.9399(5)
H2E H -0.0001 0.5775 0.9951
C3E C 0.0123(4) 0.6225(3) 0.9018(5)
H3E H 0.0241 0.6519 0.9300
C4E C 0.0092(3) 0.6236(3) 0.8197(5)
C5E C 0.0214(4) 0.6683(3) 0.7741(6)
H4E H 0.0333 0.6988 0.7995
C6E C 0.0161(4) 0.6676(3) 0.6962(5)
H5E H 0.0234 0.6978 0.6675
C7E C -0.0006(3) 0.6220(3) 0.6554(5)
C8E C -0.0072(4) 0.6196(3) 0.5747(5)
H6E H -0.0005 0.6488 0.5434
C9E C -0.0237(4) 0.5739(3) 0.5413(5)
H7E H -0.0295 0.5717 0.4866
C10E C -0.0318(3) 0.5309(3) 0.5877(4)
H8E H -0.0416 0.4996 0.5634
C11E C -0.0115(3) 0.5773(3) 0.6984(4)
C12E C -0.0079(3) 0.5786(3) 0.7816(4)
C13E C -0.0596(3) 0.4229(3) 0.8296(4)
C14E C 0.0474(3) 0.4509(3) 0.7487(3)
C15E C -0.0585(3) 0.4182(3) 0.6687(4)
C16E C -0.6381(3) 0.4848(2) 0.7589(3)
C17E C -0.7975(4) 0.4220(4) 0.9559(5)
H9E H -0.7844 0.3885 0.9436
C18E C -0.8093(5) 0.4330(6) 1.0328(6)
H10E H -0.8026 0.4087 1.0729
C19E C -0.8313(4) 0.4808(6) 1.0488(5)
H11E H -0.8421 0.4893 1.1007
C20E C -0.8380(4) 0.5166(5) 0.9910(5)
H12E H -0.8527 0.5498 1.0023
C21E C -0.8224(3) 0.5024(4) 0.9149(5)
C22E C -0.8244(3) 0.5392(3) 0.8500(5)
C23E C -0.8291(4) 0.5915(4) 0.8647(7)
H13E H -0.8307 0.6043 0.9163
C24E C -0.8316(4) 0.6238(3) 0.8006(8)
H14E H -0.8337 0.6594 0.8087
C25E C -0.8309(4) 0.6052(3) 0.7267(7)
H15E H -0.8336 0.6274 0.6833
C26E C -0.8260(3) 0.5526(3) 0.7159(6)
C27E C -0.8268(3) 0.5303(3) 0.6370(5)
C28E C -0.8464(4) 0.5581(4) 0.5731(6)
H16E H -0.8610 0.5918 0.5790
C29E C -0.8441(4) 0.5353(4) 0.5001(6)
H17E H -0.8563 0.5542 0.4556
C30E C -0.8248(4) 0.4866(5) 0.4914(5)
H18E H -0.8234 0.4708 0.4417
C31E C -0.8073(4) 0.4609(4) 0.5583(5)
H19E H -0.7938 0.4267 0.5531
O1E O -0.7087(2) 0.3963(2) 0.6578(3)
H24E H -0.7176 0.3784 0.6157
H25E H -0.6710 0.3949 0.6582
O2E O -0.7069(2) 0.3774(2) 0.8277(3)
H26E H -0.6673 0.3874 0.8327
H27E H -0.7008 0.3505 0.8247
O3E O -0.8306(2) 0.3629(2) 0.6597(3)
H28E H -0.8682 0.3579 0.6465
H29E H -0.8136 0.3578 0.6157
O4E O -0.8327(2) 0.3502(2) 0.8233(3)
H30E H -0.8076 0.3428 0.8523
H31E H -0.8725 0.3524 0.8408
N13E N 0.0972(3) 0.4373(2) 0.7514(3)
N13E_2 N -0.9028(3) 0.4373(2) 0.7514(3)
Ru2 Ru -0.21173(3) 0.7500 0.57609(5)
N9 N -0.1796(3) 0.6997(2) 0.6626(3)
N10 N -0.0775(5) 0.7500 0.4932(7)
N11 N -0.3455(4) 0.7500 0.6580(5)
N12 N -0.2581(3) 0.6635(3) 0.4648(4)
C32 C -0.1796(3) 0.6489(3) 0.6614(5)
H20 H -0.1931 0.6320 0.6155
C33 C -0.1607(4) 0.6198(3) 0.7247(6)
H21 H -0.1617 0.5839 0.7217
C34 C -0.1410(4) 0.6426(4) 0.7900(6)
H22 H -0.1280 0.6228 0.8333
C35 C -0.1396(3) 0.6961(3) 0.7945(5)
C36 C -0.1593(3) 0.7232(3) 0.7288(4)
C37 C -0.1190(4) 0.7240(4) 0.8616(5)
H23 H -0.1052 0.7062 0.9065
C38 C -0.1265(5) 0.7500 0.5243(7)
C39 C -0.2976(4) 0.7500 0.6271(6)
C40 C -0.2410(3) 0.6963(3) 0.5052(4)
N9F N -0.1796(3) 0.8003(2) 0.6626(3)
N12F N -0.2581(3) 0.8365(3) 0.4648(4)
C32F C -0.1796(3) 0.8511(3) 0.6614(5)
H20F H -0.1931 0.8680 0.6155
C33F C -0.1607(4) 0.8802(3) 0.7247(6)
H21F H -0.1617 0.9161 0.7217
C34F C -0.1410(4) 0.8574(4) 0.7900(6)
H22F H -0.1280 0.8772 0.8333
C35F C -0.1396(3) 0.8039(3) 0.7945(5)
C36F C -0.1593(3) 0.7768(3) 0.7288(4)
C37F C -0.1190(4) 0.7760(4) 0.8616(5)
H23F H -0.1052 0.7938 0.9065
C40F C -0.2410(3) 0.8037(3) 0.5052(4)
O5 O 0.0576(4) 0.2500 0.9603(5)
O6 O -0.0522(4) 0.2500 1.0484(5)
O7 O 0.0493(4) 0.7500 0.5274(9)
O8 O -0.2626(6) 0.6811(5) 0.9301(7)
H32 H -0.2383 0.6942 0.9677
H33 H -0.2490 0.6868 0.8863
O9 O -0.3005(9) 0.7500 0.8226(8)
O11 O -0.0002(10) 0.2500 0.7459(8)
O12 O 0.0540(4) 0.3309(3) 0.6230(6)
O14 O 0.0621(5) 0.3468(5) 0.9010(9)
O16 O -0.0974(7) 0.2876(6) 0.8398(10)
O19 O -0.1226(6) 0.3309(4) 0.4977(8)
O10? O -0.1875(6) 0.7292(5) 1.0455(8)
O13? O -0.0884(8) 0.2784(6) 0.6337(12)
O15? O 0.0407(5) 0.3260(6) 0.8450(9)
O17? O -0.1137(6) 0.2979(5) 0.9291(10)
O18? O -0.3144(12) 0.7195(6) 1.2270(19)
O20? O -0.1471(6) 0.3131(5) 0.4291(9)
loop_
_geom_bond_atom_site_label_1
_geom_bond_atom_site_label_2
_geom_bond_site_symmetry_1
_geom_bond_site_symmetry_2
Nd1 N5 1_555 1_555
Ru1 N1 1_555 1_555
Ru2 N9 1_555 1_555
N1 C1 1_555 1_555
N2 Ru1 1_555 1_555
N3 C13 1_555 1_555
N4 C15 1_555 1_555
N5 C16 1_555 1_555
N6 Nd1 1_555 1_555
N7 Nd1 1_555 1_555
N8 Nd1 1_555 1_555
N9 C32 1_555 1_555
N10 C38 1_555 1_555
N11 C39 1_555 1_555
N12 C40 1_555 1_555
C1 H1 1_555 1_555
C2 C1 1_555 1_555
H2 C2 1_555 1_555
C3 C2 1_555 1_555
H3 C3 1_555 1_555
C4 C3 1_555 1_555
C5 C4 1_555 1_555
H4 C5 1_555 1_555
C6 C5 1_555 1_555
H5 C6 1_555 1_555
C7 C6 1_555 1_555
C8 C7 1_555 1_555
H6 C8 1_555 1_555
C9 C8 1_555 1_555
H7 C9 1_555 1_555
C10 N2 1_555 1_555
H8 C10 1_555 1_555
C11 N2 1_555 1_555
C12 N1 1_555 1_555
C13 Ru1 1_555 1_555
C14 Ru1 1_555 1_555
C15 Ru1 1_555 1_555
C16 Ru1E 1_555 1_555
C17 N6 1_555 1_555
H9 C17 1_555 1_555
C18 C17 1_555 1_555
H10 C18 1_555 1_555
C19 C18 1_555 1_555
H11 C19 1_555 1_555
C20 C19 1_555 1_555
H12 C20 1_555 1_555
C21 N6 1_555 1_555
C22 N7 1_555 1_555
C23 C22 1_555 1_555
H13 C23 1_555 1_555
C24 C23 1_555 1_555
H14 C24 1_555 1_555
C25 C24 1_555 1_555
H15 C25 1_555 1_555
C26 N7 1_555 1_555
C27 N8 1_555 1_555
C28 C27 1_555 1_555
H16 C28 1_555 1_555
C29 C28 1_555 1_555
H17 C29 1_555 1_555
C30 C29 1_555 1_555
H18 C30 1_555 1_555
C31 N8 1_555 1_555
H19 C31 1_555 1_555
C32 H20 1_555 1_555
C33 C32 1_555 1_555
H21 C33 1_555 1_555
C34 C33 1_555 1_555
H22 C34 1_555 1_555
C35 C34 1_555 1_555
C36 N9 1_555 1_555
C37 C35 1_555 1_555
H23 C37 1_555 1_555
C38 Ru2 1_555 1_555
C39 Ru2 1_555 1_555
C40 Ru2 1_555 1_555
O1 Nd1 1_555 1_555
H24 O1 1_555 1_555
H25 O1 1_555 1_555
O2 Nd1 1_555 1_555
H26 O2 1_555 1_555
H27 O2 1_555 1_555
O3 Nd1 1_555 1_555
H28 O3 1_555 1_555
H29 O3 1_555 1_555
O4 Nd1 1_555 1_555
H30 O4 1_555 1_555
H31 O4 1_555 1_555
O8 H32 1_555 1_555
H33 O8 1_555 1_555
N13 Nd1 1_555 1_555
Nd1E N5E 1_555 1_555
Nd1E_2 N13E 1_555 1_555
Ru1E N1E 1_555 1_555
N1E C1E 1_555 1_555
N2E Ru1E 1_555 1_555
N3E C13E 1_555 1_555
N4E C15E 1_555 1_555
N5E C16E 1_555 1_555
N6E Nd1E 1_555 1_555
N7E Nd1E 1_555 1_555
N8E Nd1E 1_555 1_555
N9F Ru2 1_555 1_555
N12F C40F 1_555 1_555
C1E H1E 1_555 1_555
C2E C1E 1_555 1_555
H2E C2E 1_555 1_555
C3E C2E 1_555 1_555
H3E C3E 1_555 1_555
C4E C3E 1_555 1_555
C5E C4E 1_555 1_555
H4E C5E 1_555 1_555
C6E C5E 1_555 1_555
H5E C6E 1_555 1_555
C7E C6E 1_555 1_555
C8E C7E 1_555 1_555
H6E C8E 1_555 1_555
C9E C8E 1_555 1_555
H7E C9E 1_555 1_555
C10E N2E 1_555 1_555
H8E C10E 1_555 1_555
C11E N2E 1_555 1_555
C12E N1E 1_555 1_555
C13E Ru1E 1_555 1_555
C14E Ru1E 1_555 1_555
C15E Ru1E 1_555 1_555
C16E Ru1 1_555 1_555
C17E N6E 1_555 1_555
H9E C17E 1_555 1_555
C18E C17E 1_555 1_555
H10E C18E 1_555 1_555
C19E C18E 1_555 1_555
H11E C19E 1_555 1_555
C20E C19E 1_555 1_555
H12E C20E 1_555 1_555
C21E N6E 1_555 1_555
C22E N7E 1_555 1_555
C23E C22E 1_555 1_555
H13E C23E 1_555 1_555
C24E C23E 1_555 1_555
H14E C24E 1_555 1_555
C25E C24E 1_555 1_555
H15E C25E 1_555 1_555
C26E N7E 1_555 1_555
C27E N8E 1_555 1_555
C28E C27E 1_555 1_555
H16E C28E 1_555 1_555
C29E C28E 1_555 1_555
H17E C29E 1_555 1_555
C30E C29E 1_555 1_555
H18E C30E 1_555 1_555
C31E N8E 1_555 1_555
H19E C31E 1_555 1_555
C32F N9F 1_555 1_555
H20F C32F 1_555 1_555
C33F C32F 1_555 1_555
H21F C33F 1_555 1_555
C34F C33F 1_555 1_555
H22F C34F 1_555 1_555
C35F C34F 1_555 1_555
C36F C36 1_555 1_555
C37F C37 1_555 1_555
H23F C37F 1_555 1_555
C40F Ru2 1_555 1_555
O1E Nd1E 1_555 1_555
H24E O1E 1_555 1_555
H25E O1E 1_555 1_555
O2E Nd1E 1_555 1_555
H26E O2E 1_555 1_555
H27E O2E 1_555 1_555
O3E Nd1E 1_555 1_555
H28E O3E 1_555 1_555
H29E O3E 1_555 1_555
O4E Nd1E 1_555 1_555
H30E O4E 1_555 1_555
H31E O4E 1_555 1_555
N13E C14E 1_555 1_555
N13E_2 Nd1E 1_555 1_555
C4 C12 1_555 1_555
C7 C11 1_555 1_555
C9 C10 1_555 1_555
C11 C12 1_555 1_555
C14 N13 1_555 1_555
C20 C21 1_555 1_555
C21 C22 1_555 1_555
C25 C26 1_555 1_555
C26 C27 1_555 1_555
C30 C31 1_555 1_555
C35 C36 1_555 1_555
N9F C36F 1_555 1_555
C4E C12E 1_555 1_555
C7E C11E 1_555 1_555
C9E C10E 1_555 1_555
C11E C12E 1_555 1_555
C20E C21E 1_555 1_555
C21E C22E 1_555 1_555
C25E C26E 1_555 1_555
C26E C27E 1_555 1_555
C30E C31E 1_555 1_555
C35F C36F 1_555 1_555
C35F C37F 1_555 1_555

#END
