
#######################################################################
#
#                 Cambridge Crystallographic Data Centre
#                                CCDC 
#
#######################################################################
#
# If this CIF has been generated from an entry in the Cambridge 
# Structural Database, then it will include bibliographic, chemical, 
# crystal, experimental, refinement or atomic coordinate data resulting 
# from the CCDC's data processing and validation procedures.
#
#######################################################################

data_UDUKOV
_symmetry_cell_setting           triclinic
_symmetry_space_group_name_H-M   'P -1'
_symmetry_Int_Tables_number      2
_space_group_name_Hall           '-P 1'
loop_
_symmetry_equiv_pos_site_id
_symmetry_equiv_pos_as_xyz
1 x,y,z
2 -x,-y,-z
_cell_length_a                   9.1959(18)
_cell_length_b                   9.2980(17)
_cell_length_c                   10.7347(15)
_cell_angle_alpha                80.442(19)
_cell_angle_beta                 74.89(2)
_cell_angle_gamma                77.22(2)
_cell_volume                     858.424
loop_
_atom_site_label
_atom_site_type_symbol
_atom_site_fract_x
_atom_site_fract_y
_atom_site_fract_z
Ho1 Ho 0.91156(7) 0.07218(7) 0.67839(7)
Mn1 Mn 1.0000 0.0000 1.0000
O1 O 1.1673(7) -0.0313(9) 0.6765(8)
O2 O 1.0249(10) 0.2849(8) 0.5752(9)
C1 C 1.2592(13) -0.0603(14) 0.7518(15)
O3 O 0.9014(10) -0.1066(9) 0.8822(9)
O4 O 0.9297(9) 0.1873(9) 0.8602(8)
O5 O 0.6921(9) -0.0205(10) 0.8130(9)
O6 O 0.7364(9) 0.2900(9) 0.7750(9)
O7 O 1.0575(9) 0.1255(8) 0.4388(8)
C2 C 0.760(2) 0.3923(17) 0.9587(17)
H1 H 0.8322 0.3707 1.0130
H2 H 0.6602 0.3821 1.0109
H3 H 0.7574 0.4920 0.9166
O8 O 0.7340(9) 0.1577(11) 0.5515(8)
O9 O 1.2137(9) -0.0483(10) 0.8705(9)
C3 C 0.6675(19) -0.1872(17) 1.0077(16)
H4 H 0.7337 -0.2402 1.0628
H5 H 0.6269 -0.2566 0.9756
H6 H 0.5847 -0.1213 1.0564
C4 C 0.8085(15) 0.2862(13) 0.8583(13)
C5 C 0.7567(15) -0.0992(14) 0.8956(14)
C6 C 1.4199(15) -0.110(2) 0.6976(16)
H7 H 1.4364 -0.1125 0.6058
H8 H 1.4525 -0.2080 0.7381
H9 H 1.4777 -0.0433 0.7128
C7 C 1.1655(17) 0.3441(15) 0.3648(15)
H10 H 1.2016 0.3012 0.2843
H11 H 1.2514 0.3574 0.3939
H12 H 1.1001 0.4386 0.3520
C8 C 1.0801(14) 0.2461(13) 0.4617(13)
H13 H 0.728(11) 0.125(10) 0.473(6)
H14 H 0.646(11) 0.236(12) 0.554(14)
Ho1A Ho 1.08844(7) -0.07218(7) 0.32161(7)
O1A O 0.8327(7) 0.0313(9) 0.3235(8)
O2A O 0.9751(10) -0.2849(8) 0.4248(9)
C1A C 0.7408(13) 0.0603(14) 0.2482(15)
O3A O 1.0986(10) 0.1066(9) 0.1178(9)
O4A O 1.0703(9) -0.1873(9) 0.1398(8)
O5A O 1.3079(9) 0.0205(10) 0.1870(9)
O6A O 1.2636(9) -0.2900(9) 0.2250(9)
O7A O 0.9425(9) -0.1255(8) 0.5612(8)
C2A C 1.240(2) -0.3923(17) 0.0413(17)
H1A H 1.1678 -0.3707 -0.0130
H2A H 1.3398 -0.3821 -0.0109
H3A H 1.2426 -0.4920 0.0834
O8A O 1.2660(9) -0.1577(11) 0.4485(8)
O9A O 0.7863(9) 0.0483(10) 0.1295(9)
C3A C 1.3325(19) 0.1872(17) -0.0077(16)
H4A H 1.2663 0.2402 -0.0628
H5A H 1.3731 0.2566 0.0244
H6A H 1.4153 0.1213 -0.0564
C4A C 1.1915(15) -0.2862(13) 0.1417(13)
C5A C 1.2433(15) 0.0992(14) 0.1044(14)
C6A C 0.5801(15) 0.110(2) 0.3024(16)
H7A H 0.5636 0.1125 0.3942
H8A H 0.5475 0.2080 0.2619
H9A H 0.5223 0.0433 0.2872
C7A C 0.8345(17) -0.3441(15) 0.6352(15)
H10A H 0.7984 -0.3012 0.7157
H11A H 0.7486 -0.3574 0.6061
H12A H 0.8999 -0.4386 0.6480
C8A C 0.9199(14) -0.2461(13) 0.5383(13)
H13A H 1.272(11) -0.125(10) 0.527(6)
H14A H 1.354(11) -0.236(12) 0.446(14)
Mn1_2 Mn 1.0000 0.0000 0.0000
O3A_2 O 1.0986(10) 0.1066(9) 1.1178(9)
O4A_2 O 1.0703(9) -0.1873(9) 1.1398(8)
O9A_2 O 0.7863(9) 0.0483(10) 1.1295(9)
O10 O 0.4597(12) 0.4561(11) 0.7542(12)
H15 H 0.5466 0.4069 0.7481
C9 C 0.3949(17) 0.4171(16) 0.6735(18)
O11 O 0.4525(13) 0.3205(15) 0.6067(15)
C10 C 0.2366(16) 0.4999(19) 0.6799(18)
H16 H 0.2125 0.5725 0.7398
H17 H 0.1663 0.4322 0.7087
H18 H 0.2282 0.5489 0.5953
loop_
_geom_bond_atom_site_label_1
_geom_bond_atom_site_label_2
_geom_bond_site_symmetry_1
_geom_bond_site_symmetry_2
Ho1 O1 1_555 1_555
Mn1 O3 1_555 1_555
O1 C1 1_555 1_555
O2 Ho1 1_555 1_555
C1 O9 1_555 1_555
O3 Ho1 1_555 1_555
O4 Ho1 1_555 1_555
O5 Ho1 1_555 1_555
O6 Ho1 1_555 1_555
O7 Ho1 1_555 1_555
C2 H1 1_555 1_555
H2 C2 1_555 1_555
H3 C2 1_555 1_555
O8 Ho1 1_555 1_555
O9 Mn1 1_555 1_555
C3 H4 1_555 1_555
H5 C3 1_555 1_555
H6 C3 1_555 1_555
C4 O4 1_555 1_555
C5 O3 1_555 1_555
C6 C1 1_555 1_555
H7 C6 1_555 1_555
H8 C6 1_555 1_555
H9 C6 1_555 1_555
C7 H10 1_555 1_555
H11 C7 1_555 1_555
H12 C7 1_555 1_555
C8 O2 1_555 1_555
H13 O8 1_555 1_555
H14 O8 1_555 1_555
O10 H15 1_555 1_555
C9 O10 1_555 1_555
O11 C9 1_555 1_555
C10 C9 1_555 1_555
H16 C10 1_555 1_555
H17 C10 1_555 1_555
H18 C10 1_555 1_555
Ho1A O7 1_555 1_555
O1A Ho1A 1_555 1_555
O2A Ho1A 1_555 1_555
C1A O1A 1_555 1_555
O3A Ho1A 1_555 1_555
O4A Ho1A 1_555 1_555
O5A Ho1A 1_555 1_555
O6A Ho1A 1_555 1_555
O7A Ho1 1_555 1_555
C2A H1A 1_555 1_555
H2A C2A 1_555 1_555
H3A C2A 1_555 1_555
O8A Ho1A 1_555 1_555
O9A C1A 1_555 1_555
C3A H4A 1_555 1_555
H5A C3A 1_555 1_555
H6A C3A 1_555 1_555
C4A O4A 1_555 1_555
C5A O3A 1_555 1_555
C6A C1A 1_555 1_555
H7A C6A 1_555 1_555
H8A C6A 1_555 1_555
H9A C6A 1_555 1_555
C7A H10A 1_555 1_555
H11A C7A 1_555 1_555
H12A C7A 1_555 1_555
C8A O2A 1_555 1_555
H13A O8A 1_555 1_555
H14A O8A 1_555 1_555
Mn1_2 O3A 1_555 1_555
O3A_2 Mn1 1_555 1_555
O4A_2 Mn1 1_555 1_555
O9A_2 Mn1 1_555 1_555
Mn1 O4 1_555 1_555
O5 C5 1_555 1_555
O6 C4 1_555 1_555
O7 C8 1_555 1_555
C2 C4 1_555 1_555
C3 C5 1_555 1_555
C7 C8 1_555 1_555
Ho1A O7A 1_555 1_555
O4A Mn1_2 1_555 1_555
O5A C5A 1_555 1_555
O6A C4A 1_555 1_555
O7A C8A 1_555 1_555
C2A C4A 1_555 1_555
O9A Mn1_2 1_555 1_555
C3A C5A 1_555 1_555
C7A C8A 1_555 1_555

#END
