
#######################################################################
#
#                 Cambridge Crystallographic Data Centre
#                                CCDC 
#
#######################################################################
#
# If this CIF has been generated from an entry in the Cambridge 
# Structural Database, then it will include bibliographic, chemical, 
# crystal, experimental, refinement or atomic coordinate data resulting 
# from the CCDC's data processing and validation procedures.
#
#######################################################################

data_UDULEM
_symmetry_cell_setting           triclinic
_symmetry_space_group_name_H-M   'P -1'
_symmetry_Int_Tables_number      2
_space_group_name_Hall           '-P 1'
loop_
_symmetry_equiv_pos_site_id
_symmetry_equiv_pos_as_xyz
1 x,y,z
2 -x,-y,-z
_cell_length_a                   9.202(2)
_cell_length_b                   9.371(2)
_cell_length_c                   10.636(2)
_cell_angle_alpha                79.938(17)
_cell_angle_beta                 75.510(16)
_cell_angle_gamma                76.643(17)
_cell_volume                     857.289
loop_
_atom_site_label
_atom_site_type_symbol
_atom_site_fract_x
_atom_site_fract_y
_atom_site_fract_z
Gd1 Gd 0.91176(4) 0.07161(4) 0.68024(3)
Co1 Co 1.0000 0.0000 1.0000
O1 O 1.1697(5) -0.0351(6) 0.6792(4)
O2 O 1.0237(6) 0.2846(6) 0.5758(4)
C1 C 1.2553(7) -0.0632(8) 0.7602(6)
O3 O 0.9052(5) -0.1057(6) 0.8883(4)
O4 O 0.9368(5) 0.1836(5) 0.8624(4)
O5 O 0.6936(5) -0.0255(7) 0.8195(5)
O6 O 0.7390(6) 0.2880(6) 0.7810(5)
O7 O 1.0560(5) 0.1261(5) 0.4386(4)
C2 C 0.7705(14) 0.3901(12) 0.9610(9)
H1 H 0.8433 0.3683 1.0158
H2 H 0.6707 0.3828 1.0138
H3 H 0.7686 0.4886 0.9161
O8 O 0.7283(6) 0.1555(7) 0.5515(4)
O9 O 1.2107(5) -0.0534(6) 0.8797(4)
C3 C 0.6790(10) -0.1897(10) 1.0172(8)
H4 H 0.7483 -0.2423 1.0715
H5 H 0.6377 -0.2590 0.9866
H6 H 0.5971 -0.1246 1.0670
C4 C 0.8154(9) 0.2828(8) 0.8635(6)
C5 C 0.7625(8) -0.1018(8) 0.9033(6)
C6 C 1.4234(8) -0.1156(13) 0.7092(8)
H7 H 1.4430 -0.1190 0.6166
H8 H 1.4554 -0.2126 0.7522
H9 H 1.4792 -0.0488 0.7259
C7 C 1.1653(10) 0.3425(9) 0.3597(8)
H10 H 1.1995 0.2964 0.2807
H11 H 1.2522 0.3556 0.3877
H12 H 1.1007 0.4370 0.3435
C8 C 1.0774(7) 0.2469(8) 0.4638(6)
H13 H 0.630(6) 0.220(10) 0.566(9)
H14 H 0.751(9) 0.117(9) 0.469(4)
Gd1A Gd 1.08824(4) -0.07161(4) 0.31976(3)
O1A O 0.8303(5) 0.0351(6) 0.3208(4)
O2A O 0.9763(6) -0.2846(6) 0.4242(4)
C1A C 0.7447(7) 0.0632(8) 0.2398(6)
O3A O 1.0948(5) 0.1057(6) 0.1117(4)
O4A O 1.0632(5) -0.1836(5) 0.1376(4)
O5A O 1.3064(5) 0.0255(7) 0.1805(5)
O6A O 1.2610(6) -0.2880(6) 0.2190(5)
O7A O 0.9440(5) -0.1261(5) 0.5614(4)
C2A C 1.2295(14) -0.3901(12) 0.0390(9)
H1A H 1.1567 -0.3683 -0.0158
H2A H 1.3293 -0.3828 -0.0138
H3A H 1.2314 -0.4886 0.0839
O8A O 1.2717(6) -0.1555(7) 0.4485(4)
O9A O 0.7893(5) 0.0534(6) 0.1203(4)
C3A C 1.3210(10) 0.1897(10) -0.0172(8)
H4A H 1.2517 0.2423 -0.0715
H5A H 1.3623 0.2590 0.0134
H6A H 1.4029 0.1246 -0.0670
C4A C 1.1846(9) -0.2828(8) 0.1365(6)
C5A C 1.2375(8) 0.1018(8) 0.0967(6)
C6A C 0.5766(8) 0.1156(13) 0.2908(8)
H7A H 0.5570 0.1190 0.3834
H8A H 0.5446 0.2126 0.2478
H9A H 0.5208 0.0488 0.2741
C7A C 0.8347(10) -0.3425(9) 0.6403(8)
H10A H 0.8005 -0.2964 0.7193
H11A H 0.7478 -0.3556 0.6123
H12A H 0.8993 -0.4370 0.6565
C8A C 0.9226(7) -0.2469(8) 0.5362(6)
H13A H 1.370(6) -0.220(10) 0.434(9)
H14A H 1.249(9) -0.117(9) 0.531(4)
Co1_2 Co 1.0000 0.0000 0.0000
O3A_2 O 1.0948(5) 0.1057(6) 1.1117(4)
O4A_2 O 1.0632(5) -0.1836(5) 1.1376(4)
O9A_2 O 0.7893(5) 0.0534(6) 1.1203(4)
O10 O 0.4621(7) 0.4574(8) 0.7543(7)
H15 H 0.5488 0.4074 0.7473
C9 C 0.3932(10) 0.4205(13) 0.6738(9)
O11 O 0.4480(9) 0.3184(11) 0.6070(8)
C10 C 0.2345(12) 0.4995(16) 0.6749(11)
H16 H 0.2064 0.5731 0.7337
H17 H 0.1668 0.4305 0.7033
H18 H 0.2271 0.5463 0.5883
loop_
_geom_bond_atom_site_label_1
_geom_bond_atom_site_label_2
_geom_bond_site_symmetry_1
_geom_bond_site_symmetry_2
Gd1 O1 1_555 1_555
Co1 O3 1_555 1_555
O1 C1 1_555 1_555
O2 Gd1 1_555 1_555
C1 O9 1_555 1_555
O3 Gd1 1_555 1_555
O4 Gd1 1_555 1_555
O5 Gd1 1_555 1_555
O6 Gd1 1_555 1_555
O7 Gd1 1_555 1_555
C2 H1 1_555 1_555
H2 C2 1_555 1_555
H3 C2 1_555 1_555
O8 Gd1 1_555 1_555
O9 Co1 1_555 1_555
C3 H4 1_555 1_555
H5 C3 1_555 1_555
H6 C3 1_555 1_555
C4 O4 1_555 1_555
C5 O3 1_555 1_555
C6 C1 1_555 1_555
H7 C6 1_555 1_555
H8 C6 1_555 1_555
H9 C6 1_555 1_555
C7 H10 1_555 1_555
H11 C7 1_555 1_555
H12 C7 1_555 1_555
C8 O2 1_555 1_555
H13 O8 1_555 1_555
H14 O8 1_555 1_555
O10 H15 1_555 1_555
C9 O10 1_555 1_555
O11 C9 1_555 1_555
C10 C9 1_555 1_555
H16 C10 1_555 1_555
H17 C10 1_555 1_555
H18 C10 1_555 1_555
Gd1A O7 1_555 1_555
O1A Gd1A 1_555 1_555
O2A Gd1A 1_555 1_555
C1A O1A 1_555 1_555
O3A Gd1A 1_555 1_555
O4A Gd1A 1_555 1_555
O5A Gd1A 1_555 1_555
O6A Gd1A 1_555 1_555
O7A Gd1 1_555 1_555
C2A H1A 1_555 1_555
H2A C2A 1_555 1_555
H3A C2A 1_555 1_555
O8A Gd1A 1_555 1_555
O9A C1A 1_555 1_555
C3A H4A 1_555 1_555
H5A C3A 1_555 1_555
H6A C3A 1_555 1_555
C4A O4A 1_555 1_555
C5A O3A 1_555 1_555
C6A C1A 1_555 1_555
H7A C6A 1_555 1_555
H8A C6A 1_555 1_555
H9A C6A 1_555 1_555
C7A H10A 1_555 1_555
H11A C7A 1_555 1_555
H12A C7A 1_555 1_555
C8A O2A 1_555 1_555
H13A O8A 1_555 1_555
H14A O8A 1_555 1_555
Co1_2 O3A 1_555 1_555
O3A_2 Co1 1_555 1_555
O4A_2 Co1 1_555 1_555
O9A_2 Co1 1_555 1_555
Co1 O4 1_555 1_555
O5 C5 1_555 1_555
O6 C4 1_555 1_555
O7 C8 1_555 1_555
C2 C4 1_555 1_555
C3 C5 1_555 1_555
C7 C8 1_555 1_555
Gd1A O7A 1_555 1_555
O4A Co1_2 1_555 1_555
O5A C5A 1_555 1_555
O6A C4A 1_555 1_555
O7A C8A 1_555 1_555
C2A C4A 1_555 1_555
O9A Co1_2 1_555 1_555
C3A C5A 1_555 1_555
C7A C8A 1_555 1_555

#END
