
#######################################################################
#
#                 Cambridge Crystallographic Data Centre
#                                CCDC 
#
#######################################################################
#
# If this CIF has been generated from an entry in the Cambridge 
# Structural Database, then it will include bibliographic, chemical, 
# crystal, experimental, refinement or atomic coordinate data resulting 
# from the CCDC's data processing and validation procedures.
#
#######################################################################

data_UDULIQ
_symmetry_cell_setting           triclinic
_symmetry_space_group_name_H-M   'P -1'
_symmetry_Int_Tables_number      2
_space_group_name_Hall           '-P 1'
loop_
_symmetry_equiv_pos_site_id
_symmetry_equiv_pos_as_xyz
1 x,y,z
2 -x,-y,-z
_cell_length_a                   9.2324(19)
_cell_length_b                   9.3075(19)
_cell_length_c                   10.823(2)
_cell_angle_alpha                79.93(3)
_cell_angle_beta                 74.89(3)
_cell_angle_gamma                76.74(2)
_cell_volume                     867.359
loop_
_atom_site_label
_atom_site_type_symbol
_atom_site_fract_x
_atom_site_fract_y
_atom_site_fract_z
Eu1 Eu 0.91045(4) 0.07130(5) 0.67900(4)
Mn1 Mn 1.0000 0.0000 1.0000
O1 O 1.1697(6) -0.0367(7) 0.6764(5)
O2 O 1.0237(7) 0.2866(7) 0.5762(6)
C1 C 1.2574(9) -0.0604(10) 0.7522(7)
O3 O 0.8986(6) -0.1076(7) 0.8866(5)
O4 O 0.9291(7) 0.1899(7) 0.8625(5)
O5 O 0.6917(7) -0.0296(8) 0.8156(6)
O6 O 0.7328(7) 0.2898(8) 0.7783(6)
O7 O 1.0568(6) 0.1275(7) 0.4396(5)
C2 C 0.7524(16) 0.3952(14) 0.9560(11)
H1 H 0.8221 0.3764 1.0116
H2 H 0.6521 0.3855 1.0065
H3 H 0.7492 0.4942 0.9115
O8 O 0.7291(7) 0.1565(8) 0.5515(6)
O9 O 1.2132(6) -0.0523(8) 0.8704(6)
C3 C 0.6709(13) -0.1908(13) 1.0140(10)
H4 H 0.7388 -0.2429 1.0679
H5 H 0.6302 -0.2611 0.9844
H6 H 0.5886 -0.1247 1.0626
C4 C 0.8046(11) 0.2861(10) 0.8604(8)
C5 C 0.7571(9) -0.1024(11) 0.9001(8)
C6 C 1.4242(10) -0.1138(15) 0.7002(10)
H7 H 1.4433 -0.1170 0.6091
H8 H 1.4555 -0.2116 0.7421
H9 H 1.4809 -0.0471 0.7160
C7 C 1.1689(12) 0.3454(12) 0.3648(10)
H10 H 1.2037 0.3011 0.2859
H11 H 1.2555 0.3562 0.3934
H12 H 1.1059 0.4415 0.3504
C8 C 1.0786(8) 0.2487(10) 0.4648(8)
H13 H 0.626(5) 0.208(12) 0.581(11)
H14 H 0.706(12) 0.082(10) 0.513(11)
Eu1A Eu 1.08955(4) -0.07130(5) 0.32100(4)
O1A O 0.8303(6) 0.0367(7) 0.3236(5)
O2A O 0.9763(7) -0.2866(7) 0.4238(6)
C1A C 0.7426(9) 0.0604(10) 0.2478(7)
O3A O 1.1014(6) 0.1076(7) 0.1134(5)
O4A O 1.0709(7) -0.1899(7) 0.1375(5)
O5A O 1.3083(7) 0.0296(8) 0.1844(6)
O6A O 1.2672(7) -0.2898(8) 0.2217(6)
O7A O 0.9432(6) -0.1275(7) 0.5604(5)
C2A C 1.2476(16) -0.3952(14) 0.0440(11)
H1A H 1.1779 -0.3764 -0.0116
H2A H 1.3479 -0.3855 -0.0065
H3A H 1.2508 -0.4942 0.0885
O8A O 1.2709(7) -0.1565(8) 0.4485(6)
O9A O 0.7868(6) 0.0523(8) 0.1296(6)
C3A C 1.3291(13) 0.1908(13) -0.0140(10)
H4A H 1.2612 0.2429 -0.0679
H5A H 1.3698 0.2611 0.0156
H6A H 1.4114 0.1247 -0.0626
C4A C 1.1954(11) -0.2861(10) 0.1396(8)
C5A C 1.2429(9) 0.1024(11) 0.0999(8)
C6A C 0.5758(10) 0.1138(15) 0.2998(10)
H7A H 0.5567 0.1170 0.3909
H8A H 0.5445 0.2116 0.2579
H9A H 0.5191 0.0471 0.2840
C7A C 0.8311(12) -0.3454(12) 0.6352(10)
H10A H 0.7963 -0.3011 0.7141
H11A H 0.7445 -0.3562 0.6066
H12A H 0.8941 -0.4415 0.6496
C8A C 0.9214(8) -0.2487(10) 0.5352(8)
H13A H 1.374(5) -0.208(12) 0.419(11)
H14A H 1.294(12) -0.082(10) 0.487(11)
Mn1_2 Mn 1.0000 0.0000 0.0000
O3A_2 O 1.1014(6) 0.1076(7) 1.1134(5)
O4A_2 O 1.0709(7) -0.1899(7) 1.1375(5)
O9A_2 O 0.7868(6) 0.0523(8) 1.1296(6)
O10 O 0.4584(9) 0.4583(9) 0.7532(8)
H15 H 0.5450 0.4080 0.7458
C9 C 0.3908(12) 0.4227(16) 0.6727(11)
O11 O 0.4498(10) 0.3218(14) 0.6081(10)
C10 C 0.2326(13) 0.5034(18) 0.6754(15)
H16 H 0.2049 0.5765 0.7342
H17 H 0.1642 0.4343 0.7031
H18 H 0.2257 0.5517 0.5906
loop_
_geom_bond_atom_site_label_1
_geom_bond_atom_site_label_2
_geom_bond_site_symmetry_1
_geom_bond_site_symmetry_2
Eu1 O1 1_555 1_555
Mn1 O3 1_555 1_555
O1 C1 1_555 1_555
O2 Eu1 1_555 1_555
C1 O9 1_555 1_555
O3 Eu1 1_555 1_555
O4 Eu1 1_555 1_555
O5 Eu1 1_555 1_555
O6 Eu1 1_555 1_555
O7 Eu1 1_555 1_555
C2 H1 1_555 1_555
H2 C2 1_555 1_555
H3 C2 1_555 1_555
O8 Eu1 1_555 1_555
O9 Mn1 1_555 1_555
C3 H4 1_555 1_555
H5 C3 1_555 1_555
H6 C3 1_555 1_555
C4 O4 1_555 1_555
C5 O3 1_555 1_555
C6 C1 1_555 1_555
H7 C6 1_555 1_555
H8 C6 1_555 1_555
H9 C6 1_555 1_555
C7 H10 1_555 1_555
H11 C7 1_555 1_555
H12 C7 1_555 1_555
C8 O2 1_555 1_555
H13 O8 1_555 1_555
H14 O8 1_555 1_555
O10 H15 1_555 1_555
C9 O10 1_555 1_555
O11 C9 1_555 1_555
C10 C9 1_555 1_555
H16 C10 1_555 1_555
H17 C10 1_555 1_555
H18 C10 1_555 1_555
Eu1A O7 1_555 1_555
O1A Eu1A 1_555 1_555
O2A Eu1A 1_555 1_555
C1A O1A 1_555 1_555
O3A Eu1A 1_555 1_555
O4A Eu1A 1_555 1_555
O5A Eu1A 1_555 1_555
O6A Eu1A 1_555 1_555
O7A Eu1 1_555 1_555
C2A H1A 1_555 1_555
H2A C2A 1_555 1_555
H3A C2A 1_555 1_555
O8A Eu1A 1_555 1_555
O9A C1A 1_555 1_555
C3A H4A 1_555 1_555
H5A C3A 1_555 1_555
H6A C3A 1_555 1_555
C4A O4A 1_555 1_555
C5A O3A 1_555 1_555
C6A C1A 1_555 1_555
H7A C6A 1_555 1_555
H8A C6A 1_555 1_555
H9A C6A 1_555 1_555
C7A H10A 1_555 1_555
H11A C7A 1_555 1_555
H12A C7A 1_555 1_555
C8A O2A 1_555 1_555
H13A O8A 1_555 1_555
H14A O8A 1_555 1_555
Mn1_2 O3A 1_555 1_555
O3A_2 Mn1 1_555 1_555
O4A_2 Mn1 1_555 1_555
O9A_2 Mn1 1_555 1_555
Mn1 O4 1_555 1_555
O5 C5 1_555 1_555
O6 C4 1_555 1_555
O7 C8 1_555 1_555
C2 C4 1_555 1_555
C3 C5 1_555 1_555
C7 C8 1_555 1_555
Eu1A O7A 1_555 1_555
O4A Mn1_2 1_555 1_555
O5A C5A 1_555 1_555
O6A C4A 1_555 1_555
O7A C8A 1_555 1_555
C2A C4A 1_555 1_555
O9A Mn1_2 1_555 1_555
C3A C5A 1_555 1_555
C7A C8A 1_555 1_555

#END
