
#######################################################################
#
#                 Cambridge Crystallographic Data Centre
#                                CCDC 
#
#######################################################################
#
# If this CIF has been generated from an entry in the Cambridge 
# Structural Database, then it will include bibliographic, chemical, 
# crystal, experimental, refinement or atomic coordinate data resulting 
# from the CCDC's data processing and validation procedures.
#
#######################################################################

data_UDULUC
_symmetry_cell_setting           triclinic
_symmetry_space_group_name_H-M   'P -1'
_symmetry_Int_Tables_number      2
_space_group_name_Hall           '-P 1'
loop_
_symmetry_equiv_pos_site_id
_symmetry_equiv_pos_as_xyz
1 x,y,z
2 -x,-y,-z
_cell_length_a                   9.133(2)
_cell_length_b                   9.324(2)
_cell_length_c                   10.5234(19)
_cell_angle_alpha                80.25(3)
_cell_angle_beta                 75.52(3)
_cell_angle_gamma                77.16(3)
_cell_volume                     839.802
loop_
_atom_site_label
_atom_site_type_symbol
_atom_site_fract_x
_atom_site_fract_y
_atom_site_fract_z
Er1 Er 0.91290(8) 0.07200(9) 0.67962(8)
Co1 Co 1.0000 0.0000 1.0000
O1 O 1.1693(10) -0.0313(10) 0.6792(9)
O2 O 1.0237(11) 0.2844(10) 0.5772(10)
C1 C 1.2565(14) -0.0619(16) 0.7567(17)
O3 O 0.9066(11) -0.1067(10) 0.8843(10)
O4 O 0.9391(11) 0.1824(11) 0.8609(10)
O5 O 0.6956(10) -0.0208(12) 0.8162(11)
O6 O 0.7417(12) 0.2905(10) 0.7802(11)
O7 O 1.0574(11) 0.1255(10) 0.4359(10)
C2 C 0.774(3) 0.387(2) 0.9675(18)
H1 H 0.8487 0.3623 1.0212
H2 H 0.6739 0.3783 1.0221
H3 H 0.7719 0.4862 0.9246
O8 O 0.7353(11) 0.1581(11) 0.5513(11)
O9 O 1.2109(10) -0.0500(11) 0.8792(10)
C3 C 0.6777(19) -0.1921(19) 1.0152(18)
H4 H 0.7488 -0.2441 1.0685
H5 H 0.6370 -0.2622 0.9835
H6 H 0.5950 -0.1290 1.0672
C4 C 0.8159(16) 0.2797(15) 0.8630(16)
C5 C 0.7593(17) -0.1002(18) 0.9003(16)
C6 C 1.4256(16) -0.111(2) 0.7054(19)
H7 H 1.4460 -0.1148 0.6119
H8 H 1.4589 -0.2079 0.7488
H9 H 1.4803 -0.0424 0.7227
C7 C 1.1671(18) 0.3438(17) 0.3581(17)
H10 H 1.2021 0.2980 0.2780
H11 H 1.2540 0.3590 0.3864
H12 H 1.1009 0.4375 0.3426
C8 C 1.0806(17) 0.2460(15) 0.4626(17)
H13 H 0.708(14) 0.119(15) 0.483(11)
H14 H 0.633(6) 0.211(13) 0.582(12)
Er1A Er 1.08710(8) -0.07200(9) 0.32038(8)
O1A O 0.8307(10) 0.0313(10) 0.3208(9)
O2A O 0.9763(11) -0.2844(10) 0.4228(10)
C1A C 0.7435(14) 0.0619(16) 0.2433(17)
O3A O 1.0934(11) 0.1067(10) 0.1157(10)
O4A O 1.0609(11) -0.1824(11) 0.1391(10)
O5A O 1.3044(10) 0.0208(12) 0.1838(11)
O6A O 1.2583(12) -0.2905(10) 0.2198(11)
O7A O 0.9426(11) -0.1255(10) 0.5641(10)
C2A C 1.226(3) -0.387(2) 0.0325(18)
H1A H 1.1513 -0.3623 -0.0212
H2A H 1.3261 -0.3783 -0.0221
H3A H 1.2281 -0.4862 0.0754
O8A O 1.2647(11) -0.1581(11) 0.4487(11)
O9A O 0.7891(10) 0.0500(11) 0.1208(10)
C3A C 1.3223(19) 0.1921(19) -0.0152(18)
H4A H 1.2512 0.2441 -0.0685
H5A H 1.3630 0.2622 0.0165
H6A H 1.4050 0.1290 -0.0672
C4A C 1.1841(16) -0.2797(15) 0.1370(16)
C5A C 1.2407(17) 0.1002(18) 0.0997(16)
C6A C 0.5744(16) 0.111(2) 0.2946(19)
H7A H 0.5540 0.1148 0.3881
H8A H 0.5411 0.2079 0.2512
H9A H 0.5197 0.0424 0.2773
C7A C 0.8329(18) -0.3438(17) 0.6419(17)
H10A H 0.7979 -0.2980 0.7220
H11A H 0.7460 -0.3590 0.6136
H12A H 0.8991 -0.4375 0.6574
C8A C 0.9194(17) -0.2460(15) 0.5374(17)
H13A H 1.292(14) -0.119(15) 0.517(11)
H14A H 1.367(6) -0.211(13) 0.418(12)
Co1_2 Co 1.0000 0.0000 0.0000
O3A_2 O 1.0934(11) 0.1067(10) 1.1157(10)
O4A_2 O 1.0609(11) -0.1824(11) 1.1391(10)
O9A_2 O 0.7891(10) 0.0500(11) 1.1208(10)
O10 O 0.4697(12) 0.4561(12) 0.7502(13)
H15 H 0.5567 0.4060 0.7433
C9 C 0.399(2) 0.416(2) 0.671(2)
O11 O 0.4563(17) 0.3218(18) 0.6020(17)
C10 C 0.238(2) 0.503(2) 0.6723(18)
H16 H 0.2130 0.5760 0.7324
H17 H 0.1660 0.4365 0.7005
H18 H 0.2318 0.5511 0.5851
loop_
_geom_bond_atom_site_label_1
_geom_bond_atom_site_label_2
_geom_bond_site_symmetry_1
_geom_bond_site_symmetry_2
Er1 O1 1_555 1_555
Co1 O3 1_555 1_555
O1 C1 1_555 1_555
O2 Er1 1_555 1_555
C1 O9 1_555 1_555
O3 Er1 1_555 1_555
O4 Er1 1_555 1_555
O5 Er1 1_555 1_555
O6 Er1 1_555 1_555
O7 Er1 1_555 1_555
C2 H1 1_555 1_555
H2 C2 1_555 1_555
H3 C2 1_555 1_555
O8 Er1 1_555 1_555
O9 Co1 1_555 1_555
C3 H4 1_555 1_555
H5 C3 1_555 1_555
H6 C3 1_555 1_555
C4 O4 1_555 1_555
C5 O3 1_555 1_555
C6 C1 1_555 1_555
H7 C6 1_555 1_555
H8 C6 1_555 1_555
H9 C6 1_555 1_555
C7 H10 1_555 1_555
H11 C7 1_555 1_555
H12 C7 1_555 1_555
C8 O2 1_555 1_555
H13 O8 1_555 1_555
H14 O8 1_555 1_555
O10 H15 1_555 1_555
C9 O10 1_555 1_555
O11 C9 1_555 1_555
C10 C9 1_555 1_555
H16 C10 1_555 1_555
H17 C10 1_555 1_555
H18 C10 1_555 1_555
Er1A O7 1_555 1_555
O1A Er1A 1_555 1_555
O2A Er1A 1_555 1_555
C1A O1A 1_555 1_555
O3A Er1A 1_555 1_555
O4A Er1A 1_555 1_555
O5A Er1A 1_555 1_555
O6A Er1A 1_555 1_555
O7A Er1 1_555 1_555
C2A H1A 1_555 1_555
H2A C2A 1_555 1_555
H3A C2A 1_555 1_555
O8A Er1A 1_555 1_555
O9A C1A 1_555 1_555
C3A H4A 1_555 1_555
H5A C3A 1_555 1_555
H6A C3A 1_555 1_555
C4A O4A 1_555 1_555
C5A O3A 1_555 1_555
C6A C1A 1_555 1_555
H7A C6A 1_555 1_555
H8A C6A 1_555 1_555
H9A C6A 1_555 1_555
C7A H10A 1_555 1_555
H11A C7A 1_555 1_555
H12A C7A 1_555 1_555
C8A O2A 1_555 1_555
H13A O8A 1_555 1_555
H14A O8A 1_555 1_555
Co1_2 O3A 1_555 1_555
O3A_2 Co1 1_555 1_555
O4A_2 Co1 1_555 1_555
O9A_2 Co1 1_555 1_555
Co1 O4 1_555 1_555
O5 C5 1_555 1_555
O6 C4 1_555 1_555
O7 C8 1_555 1_555
C2 C4 1_555 1_555
C3 C5 1_555 1_555
C7 C8 1_555 1_555
Er1A O7A 1_555 1_555
O4A Co1_2 1_555 1_555
O5A C5A 1_555 1_555
O6A C4A 1_555 1_555
O7A C8A 1_555 1_555
C2A C4A 1_555 1_555
O9A Co1_2 1_555 1_555
C3A C5A 1_555 1_555
C7A C8A 1_555 1_555

#END
