
#######################################################################
#
#                 Cambridge Crystallographic Data Centre
#                                CCDC 
#
#######################################################################
#
# If this CIF has been generated from an entry in the Cambridge 
# Structural Database, then it will include bibliographic, chemical, 
# crystal, experimental, refinement or atomic coordinate data resulting 
# from the CCDC's data processing and validation procedures.
#
#######################################################################

data_UDULAI
_symmetry_cell_setting           triclinic
_symmetry_space_group_name_H-M   'P -1'
_symmetry_Int_Tables_number      2
_space_group_name_Hall           '-P 1'
loop_
_symmetry_equiv_pos_site_id
_symmetry_equiv_pos_as_xyz
1 x,y,z
2 -x,-y,-z
_cell_length_a                   9.2303(15)
_cell_length_b                   9.3111(14)
_cell_length_c                   10.7954(15)
_cell_angle_alpha                80.169(17)
_cell_angle_beta                 79.913(18)
_cell_angle_gamma                76.947(18)
_cell_volume                     881.496
loop_
_atom_site_label
_atom_site_type_symbol
_atom_site_fract_x
_atom_site_fract_y
_atom_site_fract_z
Gd1 Gd 0.91082(3) 0.07172(3) 0.67875(3)
Mn1 Mn 1.0000 0.0000 1.0000
O1 O 1.1699(5) -0.0343(5) 0.6756(4)
O2 O 1.0239(6) 0.2863(5) 0.5753(5)
C1 C 1.2579(6) -0.0618(7) 0.7535(6)
O3 O 0.8998(5) -0.1072(5) 0.8850(4)
O4 O 0.9296(5) 0.1890(5) 0.8616(4)
O5 O 0.6901(5) -0.0254(6) 0.8155(5)
O6 O 0.7348(5) 0.2900(5) 0.7759(5)
O7 O 1.0573(5) 0.1268(4) 0.4401(4)
C2 C 0.7541(12) 0.3937(11) 0.9578(10)
H1 H 0.8251 0.3760 1.0167
H2 H 0.6580 0.3794 1.0030
H3 H 0.7451 0.4940 0.9152
O8 O 0.7292(5) 0.1558(6) 0.5520(5)
O9 O 1.2130(5) -0.0499(6) 0.8703(5)
C3 C 0.6707(11) -0.1894(10) 1.0134(8)
H4 H 0.7398 -0.2438 1.0700
H5 H 0.6253 -0.2574 0.9833
H6 H 0.5940 -0.1206 1.0578
C4 C 0.8080(8) 0.2857(7) 0.8606(6)
C5 C 0.7562(7) -0.1026(7) 0.8992(6)
C6 C 1.4242(8) -0.1123(12) 0.6995(9)
H7 H 1.4332 -0.1123 0.6096
H8 H 1.4616 -0.2109 0.7395
H9 H 1.4815 -0.0452 0.7159
C7 C 1.1672(10) 0.3445(8) 0.3627(8)
H10 H 1.1984 0.2962 0.2879
H11 H 1.2541 0.3567 0.3942
H12 H 1.1048 0.4402 0.3422
C8 C 1.0778(6) 0.2484(6) 0.4654(6)
H13 H 0.622(2) 0.189(15) 0.566(12)
H14 H 0.752(9) 0.131(10) 0.467(3)
Gd1A Gd 1.08918(3) -0.07172(3) 0.32125(3)
O1A O 0.8301(5) 0.0343(5) 0.3244(4)
O2A O 0.9761(6) -0.2863(5) 0.4247(5)
C1A C 0.7421(6) 0.0618(7) 0.2465(6)
O3A O 1.1002(5) 0.1072(5) 0.1150(4)
O4A O 1.0704(5) -0.1890(5) 0.1384(4)
O5A O 1.3099(5) 0.0254(6) 0.1845(5)
O6A O 1.2652(5) -0.2900(5) 0.2241(5)
O7A O 0.9427(5) -0.1268(4) 0.5599(4)
C2A C 1.2459(12) -0.3937(11) 0.0422(10)
H1A H 1.1749 -0.3760 -0.0167
H2A H 1.3420 -0.3794 -0.0030
H3A H 1.2549 -0.4940 0.0848
O8A O 1.2708(5) -0.1558(6) 0.4480(5)
O9A O 0.7870(5) 0.0499(6) 0.1297(5)
C3A C 1.3293(11) 0.1894(10) -0.0134(8)
H4A H 1.2602 0.2438 -0.0700
H5A H 1.3747 0.2574 0.0167
H6A H 1.4060 0.1206 -0.0578
C4A C 1.1920(8) -0.2857(7) 0.1394(6)
C5A C 1.2438(7) 0.1026(7) 0.1008(6)
C6A C 0.5758(8) 0.1123(12) 0.3005(9)
H7A H 0.5668 0.1123 0.3904
H8A H 0.5384 0.2109 0.2605
H9A H 0.5185 0.0452 0.2841
C7A C 0.8328(10) -0.3445(8) 0.6373(8)
H10A H 0.8016 -0.2962 0.7121
H11A H 0.7459 -0.3567 0.6058
H12A H 0.8952 -0.4402 0.6578
C8A C 0.9222(6) -0.2484(6) 0.5346(6)
H13A H 1.378(2) -0.189(15) 0.434(12)
H14A H 1.248(9) -0.131(10) 0.533(3)
Mn1_2 Mn 1.0000 0.0000 0.0000
O3A_2 O 1.1002(5) 0.1072(5) 1.1150(4)
O4A_2 O 1.0704(5) -0.1890(5) 1.1384(4)
O9A_2 O 0.7870(5) 0.0499(6) 1.1297(5)
O10 O 0.4598(7) 0.4582(7) 0.7542(7)
H15 H 0.5464 0.4104 0.7496
C9 C 0.3918(9) 0.4203(11) 0.6750(9)
O11 O 0.4486(9) 0.3220(10) 0.6082(9)
C10 C 0.2357(11) 0.5035(13) 0.6790(12)
H16 H 0.2165 0.5734 0.7388
H17 H 0.1684 0.4355 0.7047
H18 H 0.2203 0.5561 0.5963
loop_
_geom_bond_atom_site_label_1
_geom_bond_atom_site_label_2
_geom_bond_site_symmetry_1
_geom_bond_site_symmetry_2
Gd1 O1 1_555 1_555
Mn1 O3 1_555 1_555
O1 C1 1_555 1_555
O2 Gd1 1_555 1_555
C1 O9 1_555 1_555
O3 Gd1 1_555 1_555
O4 Gd1 1_555 1_555
O5 Gd1 1_555 1_555
O6 Gd1 1_555 1_555
O7 Gd1 1_555 1_555
C2 H1 1_555 1_555
H2 C2 1_555 1_555
H3 C2 1_555 1_555
O8 Gd1 1_555 1_555
O9 Mn1 1_555 1_555
C3 H4 1_555 1_555
H5 C3 1_555 1_555
H6 C3 1_555 1_555
C4 O4 1_555 1_555
C5 O3 1_555 1_555
C6 C1 1_555 1_555
H7 C6 1_555 1_555
H8 C6 1_555 1_555
H9 C6 1_555 1_555
C7 H10 1_555 1_555
H11 C7 1_555 1_555
H12 C7 1_555 1_555
C8 O2 1_555 1_555
H13 O8 1_555 1_555
H14 O8 1_555 1_555
O10 H15 1_555 1_555
C9 O10 1_555 1_555
O11 C9 1_555 1_555
C10 C9 1_555 1_555
H16 C10 1_555 1_555
H17 C10 1_555 1_555
H18 C10 1_555 1_555
Gd1A O7 1_555 1_555
O1A Gd1A 1_555 1_555
O2A Gd1A 1_555 1_555
C1A O1A 1_555 1_555
O3A Gd1A 1_555 1_555
O4A Gd1A 1_555 1_555
O5A Gd1A 1_555 1_555
O6A Gd1A 1_555 1_555
O7A Gd1 1_555 1_555
C2A H1A 1_555 1_555
H2A C2A 1_555 1_555
H3A C2A 1_555 1_555
O8A Gd1A 1_555 1_555
O9A C1A 1_555 1_555
C3A H4A 1_555 1_555
H5A C3A 1_555 1_555
H6A C3A 1_555 1_555
C4A O4A 1_555 1_555
C5A O3A 1_555 1_555
C6A C1A 1_555 1_555
H7A C6A 1_555 1_555
H8A C6A 1_555 1_555
H9A C6A 1_555 1_555
C7A H10A 1_555 1_555
H11A C7A 1_555 1_555
H12A C7A 1_555 1_555
C8A O2A 1_555 1_555
H13A O8A 1_555 1_555
H14A O8A 1_555 1_555
Mn1_2 O3A 1_555 1_555
O3A_2 Mn1 1_555 1_555
O4A_2 Mn1 1_555 1_555
O9A_2 Mn1 1_555 1_555
Mn1 O4 1_555 1_555
O5 C5 1_555 1_555
O6 C4 1_555 1_555
O7 C8 1_555 1_555
C2 C4 1_555 1_555
C3 C5 1_555 1_555
C7 C8 1_555 1_555
Gd1A O7A 1_555 1_555
O4A Mn1_2 1_555 1_555
O5A C5A 1_555 1_555
O6A C4A 1_555 1_555
O7A C8A 1_555 1_555
C2A C4A 1_555 1_555
O9A Mn1_2 1_555 1_555
C3A C5A 1_555 1_555
C7A C8A 1_555 1_555

#END
