
#######################################################################
#
#                 Cambridge Crystallographic Data Centre
#                                CCDC 
#
#######################################################################
#
# If this CIF has been generated from an entry in the Cambridge 
# Structural Database, then it will include bibliographic, chemical, 
# crystal, experimental, refinement or atomic coordinate data resulting 
# from the CCDC's data processing and validation procedures.
#
#######################################################################

data_UDUMIP02
_symmetry_cell_setting           orthorhombic
_symmetry_space_group_name_H-M   'F d d d'
_symmetry_Int_Tables_number      70
_space_group_name_Hall           '-F 2uv 2vw'
loop_
_symmetry_equiv_pos_site_id
_symmetry_equiv_pos_as_xyz
1 x,y,z
2 x,1/4-y,1/4-z
3 1/4-x,y,1/4-z
4 1/4-x,1/4-y,z
5 x,1/2+y,1/2+z
6 1/2+x,y,1/2+z
7 1/2+x,1/2+y,z
8 x,3/4-y,3/4-z
9 3/4-x,y,3/4-z
10 3/4-x,3/4-y,z
11 3/4-x,1/2+y,1/4-z
12 3/4-x,1/4-y,1/2+z
13 1/2+x,3/4-y,1/4-z
14 1/4-x,3/4-y,1/2+z
15 1/2+x,1/4-y,3/4-z
16 1/4-x,1/2+y,3/4-z
17 -x,-y,-z
18 -x,3/4+y,3/4+z
19 3/4+x,-y,3/4+z
20 3/4+x,3/4+y,-z
21 -x,1/2-y,1/2-z
22 1/2-x,-y,1/2-z
23 1/2-x,1/2-y,-z
24 -x,1/4+y,1/4+z
25 1/4+x,-y,1/4+z
26 1/4+x,1/4+y,-z
27 1/4+x,1/2-y,3/4+z
28 1/4+x,3/4+y,1/2-z
29 1/2-x,1/4+y,3/4+z
30 3/4+x,1/4+y,1/2-z
31 1/2-x,3/4+y,1/4+z
32 3/4+x,1/2-y,1/4+z
_cell_length_a                   14.655(3)
_cell_length_b                   25.896(5)
_cell_length_c                   36.317(7)
_cell_angle_alpha                90
_cell_angle_beta                 90
_cell_angle_gamma                90
_cell_volume                     13782.5
loop_
_atom_site_label
_atom_site_type_symbol
_atom_site_fract_x
_atom_site_fract_y
_atom_site_fract_z
Ag1 Ag 0.125 0.44221(2) 0.125
Ag2 Ag 0.06701(2) 0.34157(1) -0.092070(8)
Ag3 Ag -0.125 0.31605(1) -0.125
Ag4 Ag 0.27505(2) 0.31820(1) -0.124990(7)
O1 O 0.0383(2) 0.37389(9) 0.09204(7)
O2 O 0.0314(2) 0.40918(9) 0.03583(7)
O3 O -0.1461(2) 0.23993(9) -0.06452(7)
O4 O -0.0911(2) 0.31976(9) -0.06857(7)
O5 O -0.1469(2) 0.21225(9) 0.11133(7)
O6 O -0.1838(2) 0.16610(9) 0.06134(7)
O7 O 0.2336(2) 0.34015(9) -0.06870(7)
O8 O 0.2963(2) 0.41874(9) -0.06570(7)
O9 O 0.2093(2) 0.26760(9) 0.09576(7)
O10 O 0.1429(2) 0.24942(9) 0.04117(7)
O11 O 0.2999(2) 0.45327(10) 0.10784(7)
O12 O 0.3324(2) 0.50030(9) 0.05782(7)
C1 C -0.0377(2) 0.3286(1) 0.04341(9)
C2 C -0.0704(2) 0.2900(1) 0.06706(9)
C3 C -0.1199(2) 0.2491(1) 0.05218(10)
C4 C -0.1344(2) 0.2461(1) 0.01432(9)
C5 C -0.1007(2) 0.2842(1) -0.00915(9)
C6 C -0.0529(2) 0.3257(1) 0.00558(10)
C7 C 0.0142(2) 0.3725(1) 0.05974(9)
C8 C -0.1139(2) 0.2805(1) -0.05009(9)
C9 C -0.1538(2) 0.2058(1) 0.07620(9)
C10 C 0.2556(2) 0.3759(1) -0.00988(10)
C11 C 0.2232(2) 0.3311(1) 0.00710(10)
C12 C 0.2239(2) 0.3269(1) 0.04529(9)
C13 C 0.2530(2) 0.3678(1) 0.06726(9)
C14 C 0.2799(2) 0.4136(1) 0.05014(9)
C15 C 0.2819(2) 0.4176(1) 0.01199(10)
C16 C 0.2619(2) 0.3786(1) -0.05111(10)
C17 C 0.1922(2) 0.2782(1) 0.06385(10)
C18 C 0.3074(2) 0.4601(1) 0.07205(10)
H1 H -0.0535 0.2902 0.0912
H2 H -0.1624 0.218 0.0066
H3 H -0.0291 0.3541 -0.0101
H4 H 0.0551 0.4358 0.0412
H5 H 0.202 0.3043 -0.0096
H6 H 0.2508 0.3631 0.0931
H7 H 0.3052 0.446 0.0017
H8 H 0.1205 0.2234 0.051
H9 H 0.3117 0.4791 0.1227
Ag1Q Ag -0.125 0.19221(2) -0.125
Ag1AA Ag 0.375 0.19221(2) 0.375
Ag2B Ag 0.18299(2) 0.34157(1) 0.342070(8)
Ag2G Ag 0.06701(2) 0.40843(1) -0.157930(8)
Ag2H Ag -0.31701(2) 0.34157(1) -0.157930(8)
Ag2EA Ag -0.18299(2) 0.15843(1) 0.157930(8)
Ag2S Ag -0.18299(2) 0.09157(1) 0.092070(8)
Ag2V Ag 0.43299(2) 0.15843(1) 0.092070(8)
Ag2DA Ag 0.43299(2) 0.09157(1) 0.157930(8)
Ag2M Ag 0.18299(2) 0.40843(1) 0.407930(8)
Ag3W Ag 0.125 0.56605(1) 0.125
Ag3G Ag -0.125 0.43395(1) -0.125
Ag3B Ag 0.375 0.31605(1) 0.375
Ag4B Ag -0.02505(2) 0.31820(1) 0.374990(7)
Ag4G Ag 0.27505(2) 0.43180(1) -0.125010(7)
Ag4H Ag 0.47495(2) 0.31820(1) -0.125010(7)
Ag4V Ag 0.22495(2) 0.18180(1) 0.124990(7)
Ag4M Ag -0.02505(2) 0.43180(1) 0.375010(7)
Ag4EA Ag 0.02505(2) 0.18180(1) 0.125010(7)
Ag4E Ag -0.22495(2) 0.31820(1) 0.375010(7)
O1B O 0.2117(2) 0.37389(9) 0.15796(7)
O2B O 0.2186(2) 0.40918(9) 0.21417(7)
O3B O 0.3961(2) 0.23993(9) 0.31452(7)
O3W O 0.1461(2) 0.48993(9) 0.18548(7)
O3Y O 0.1039(2) 0.48993(9) 0.06452(7)
O4B O 0.3411(2) 0.31976(9) 0.31857(7)
O4H O -0.1589(2) 0.31976(9) -0.18143(7)
O5B O 0.3969(2) 0.21225(9) 0.13867(7)
O5Z O 0.1031(2) 0.28775(9) -0.13867(7)
O5T O 0.1469(2) 0.28775(9) 0.38867(7)
O6B O 0.4338(2) 0.16610(9) 0.18866(7)
O6Y O 0.0662(2) 0.41610(9) -0.06134(7)
O6W O 0.1838(2) 0.41610(9) 0.31134(7)
O7B O 0.0164(2) 0.34015(9) 0.31870(7)
O8B O -0.0463(2) 0.41874(9) 0.31570(7)
O8G O 0.2963(2) 0.33126(9) -0.18430(7)
O8M O -0.0463(2) 0.33126(9) 0.43430(7)
O9B O 0.0407(2) 0.26760(9) 0.15424(7)
O9V O 0.2907(2) 0.23240(9) -0.09576(7)
O9EA O -0.0407(2) 0.23240(9) 0.34576(7)
O10B O 0.1071(2) 0.24942(9) 0.20883(7)
O11B O -0.0499(2) 0.45327(10) 0.14216(7)
O12B O -0.0824(2) 0.50030(9) 0.19218(7)
C1B C 0.2877(2) 0.3286(1) 0.20659(9)
C2B C 0.3204(2) 0.2900(1) 0.18294(9)
C3B C 0.3699(2) 0.2491(1) 0.19782(10)
C4B C 0.3844(2) 0.2461(1) 0.23568(9)
C5B C 0.3507(2) 0.2842(1) 0.25915(9)
C6B C 0.3029(2) 0.3257(1) 0.24442(10)
C7B C 0.2358(2) 0.3725(1) 0.19026(9)
C8B C 0.3639(2) 0.2805(1) 0.30009(9)
C9B C 0.4038(2) 0.2058(1) 0.17380(9)
C10B C -0.0056(2) 0.3759(1) 0.25988(10)
C11B C 0.0268(2) 0.3311(1) 0.24290(10)
C12B C 0.0261(2) 0.3269(1) 0.20471(9)
C13B C -0.0030(2) 0.3678(1) 0.18274(9)
C14B C -0.0299(2) 0.4136(1) 0.19986(9)
C15B C -0.0319(2) 0.4176(1) 0.23801(10)
C16B C -0.0119(2) 0.3786(1) 0.30111(10)
C17B C 0.0578(2) 0.2782(1) 0.18615(10)
C18B C -0.0574(2) 0.4601(1) 0.17795(10)
H1B H 0.3035 0.2902 0.1588
H2B H 0.4124 0.218 0.2434
H3B H 0.2791 0.3541 0.2601
H4B H 0.1949 0.4358 0.2088
H5B H 0.048 0.3043 0.2596
H6B H -0.0008 0.3631 0.1569
H7B H -0.0552 0.446 0.2483
H8B H 0.1295 0.2234 0.199
H9B H -0.0617 0.4791 0.1273
loop_
_geom_bond_atom_site_label_1
_geom_bond_atom_site_label_2
_geom_bond_site_symmetry_1
_geom_bond_site_symmetry_2
Ag1 O1 1_555 1_555
Ag2 Ag3 1_555 1_555
Ag3 O4 1_555 1_555
Ag4 Ag2 1_555 1_555
O1 C7 1_555 1_555
O2 C7 1_555 1_555
O3 C8 1_555 1_555
O4 Ag2 1_555 1_555
O5 C9 1_555 1_555
O6 C9 1_555 1_555
O7 Ag2 1_555 1_555
O8 C16 1_555 1_555
O9 C17 1_555 1_555
O10 C17 1_555 1_555
O11 Ag1 1_555 1_555
O12 C18 1_555 1_555
C1 C2 1_555 1_555
C2 C3 1_555 1_555
C3 C4 1_555 1_555
C4 C5 1_555 1_555
C5 C6 1_555 1_555
C6 C1 1_555 1_555
C7 C1 1_555 1_555
C8 O4 1_555 1_555
C9 C3 1_555 1_555
C10 C11 1_555 1_555
C11 C12 1_555 1_555
C12 C13 1_555 1_555
C13 C14 1_555 1_555
C14 C15 1_555 1_555
C15 C10 1_555 1_555
C16 O7 1_555 1_555
C17 C12 1_555 1_555
C18 O11 1_555 1_555
H1 C2 1_555 1_555
H2 C4 1_555 1_555
H3 C6 1_555 1_555
H4 O2 1_555 1_555
H5 C11 1_555 1_555
H6 C13 1_555 1_555
H7 C15 1_555 1_555
H8 O10 1_555 1_555
H9 O11 1_555 1_555
Ag1Q Ag3 1_555 1_555
Ag1AA Ag3B 1_555 1_555
Ag2B Ag2M 1_555 1_555
Ag2G Ag2 1_555 1_555
Ag2H Ag3 1_555 1_555
Ag2EA O5 1_555 1_555
Ag2S O6 1_555 1_555
Ag2V Ag2DA 1_555 1_555
Ag2DA O6B 1_555 1_555
Ag2M Ag4M 1_555 1_555
Ag3W Ag1 1_555 1_555
Ag3G Ag3 1_555 1_555
Ag3B Ag2B 1_555 1_555
Ag4B Ag2B 1_555 1_555
Ag4G Ag4 1_555 1_555
Ag4H Ag4 1_555 1_555
Ag4V O9 1_555 1_555
Ag4M Ag4B 1_555 1_555
Ag4EA Ag2EA 1_555 1_555
Ag4E Ag4B 1_555 1_555
O1B Ag1 1_555 1_555
O2B C7B 1_555 1_555
O3B Ag1AA 1_555 1_555
O3W Ag1 1_555 1_555
O3Y Ag1 1_555 1_555
O4B Ag2B 1_555 1_555
O4H Ag3 1_555 1_555
O5B Ag2V 1_555 1_555
O5Z Ag2 1_555 1_555
O5T Ag2B 1_555 1_555
O6B C9B 1_555 1_555
O6Y Ag2 1_555 1_555
O6W Ag2B 1_555 1_555
O7B Ag2B 1_555 1_555
O8B Ag4M 1_555 1_555
O8G Ag4 1_555 1_555
O8M Ag4B 1_555 1_555
O9B Ag4EA 1_555 1_555
O9V Ag4 1_555 1_555
O9EA Ag4B 1_555 1_555
O10B C17B 1_555 1_555
O11B Ag1 1_555 1_555
O12B C18B 1_555 1_555
C1B C2B 1_555 1_555
C2B C3B 1_555 1_555
C3B C4B 1_555 1_555
C4B C5B 1_555 1_555
C5B C6B 1_555 1_555
C6B C1B 1_555 1_555
C7B O1B 1_555 1_555
C8B O3B 1_555 1_555
C9B O5B 1_555 1_555
C10B C11B 1_555 1_555
C11B C12B 1_555 1_555
C12B C13B 1_555 1_555
C13B C14B 1_555 1_555
C14B C15B 1_555 1_555
C15B C10B 1_555 1_555
C16B O7B 1_555 1_555
C17B O9B 1_555 1_555
C18B O11B 1_555 1_555
H1B C2B 1_555 1_555
H2B C4B 1_555 1_555
H3B C6B 1_555 1_555
H4B O2B 1_555 1_555
H5B C11B 1_555 1_555
H6B C13B 1_555 1_555
H7B C15B 1_555 1_555
H8B O10B 1_555 1_555
H9B O11B 1_555 1_555
Ag4 O7 1_555 1_555
O3 Ag1Q 1_555 1_555
O8 Ag4G 1_555 1_555
C5 C8 1_555 1_555
C10 C16 1_555 1_555
C14 C18 1_555 1_555
Ag2G Ag3G 1_555 1_555
Ag2G Ag4G 1_555 1_555
Ag2H O4H 1_555 1_555
Ag2EA Ag2S 1_555 1_555
Ag2V Ag4V 1_555 1_555
Ag3B O4B 1_555 1_555
Ag4B O7B 1_555 1_555
Ag4V Ag4EA 1_555 1_555
O4B C8B 1_555 1_555
O8B C16B 1_555 1_555
C1B C7B 1_555 1_555
C3B C9B 1_555 1_555
C5B C8B 1_555 1_555
C10B C16B 1_555 1_555
C12B C17B 1_555 1_555
C14B C18B 1_555 1_555

#END
