
#######################################################################
#
#                 Cambridge Crystallographic Data Centre
#                                CCDC 
#
#######################################################################
#
# If this CIF has been generated from an entry in the Cambridge 
# Structural Database, then it will include bibliographic, chemical, 
# crystal, experimental, refinement or atomic coordinate data resulting 
# from the CCDC's data processing and validation procedures.
#
#######################################################################

data_UDUMIP03
_symmetry_cell_setting           orthorhombic
_symmetry_space_group_name_H-M   'F d d d'
_symmetry_Int_Tables_number      70
_space_group_name_Hall           '-F 2uv 2vw'
loop_
_symmetry_equiv_pos_site_id
_symmetry_equiv_pos_as_xyz
1 x,y,z
2 3/4-x,3/4-y,z
3 3/4-x,y,3/4-z
4 x,3/4-y,3/4-z
5 x,1/2+y,1/2+z
6 3/4-x,1/4-y,1/2+z
7 3/4-x,1/2+y,1/4-z
8 x,1/4-y,1/4-z
9 1/2+x,y,1/2+z
10 1/4-x,3/4-y,1/2+z
11 1/4-x,y,1/4-z
12 1/2+x,3/4-y,1/4-z
13 1/2+x,1/2+y,z
14 1/4-x,1/4-y,z
15 1/4-x,1/2+y,3/4-z
16 1/2+x,1/4-y,3/4-z
17 -x,-y,-z
18 1/4+x,1/4+y,-z
19 1/4+x,-y,1/4+z
20 -x,1/4+y,1/4+z
21 -x,1/2-y,1/2-z
22 1/4+x,3/4+y,1/2-z
23 1/4+x,1/2-y,3/4+z
24 -x,3/4+y,3/4+z
25 1/2-x,-y,1/2-z
26 3/4+x,1/4+y,1/2-z
27 3/4+x,-y,3/4+z
28 1/2-x,1/4+y,3/4+z
29 1/2-x,1/2-y,-z
30 3/4+x,3/4+y,-z
31 3/4+x,1/2-y,1/4+z
32 1/2-x,3/4+y,1/4+z
_cell_length_a                   14.6248(5)
_cell_length_b                   25.9012(8)
_cell_length_c                   36.3162(11)
_cell_angle_alpha                90
_cell_angle_beta                 90
_cell_angle_gamma                90
_cell_volume                     13756.6
loop_
_atom_site_label
_atom_site_type_symbol
_atom_site_fract_x
_atom_site_fract_y
_atom_site_fract_z
Ag1 Ag 0.725080(17) 0.568420(10) 0.124970(6)
Ag2 Ag 0.932970(16) 0.658430(9) 0.092110(7)
Ag3 Ag 0.8750 0.433770(12) -0.1250
Ag4 Ag 0.6250 0.307420(13) 0.1250
O1 O 0.93358(15) 0.58393(8) 0.06138(6)
O2 O 0.70892(18) 0.48234(9) 0.15416(6)
O3 O 0.89684(15) 0.53766(8) 0.11132(6)
O4 O 0.64290(17) 0.50083(9) 0.20871(7)
H1 H 0.6165 0.5288 0.1983
O5 O 0.73350(15) 0.41007(8) 0.31857(6)
O6 O 0.71205(17) 0.37594(9) 0.09207(6)
O7 O 0.79638(15) 0.33118(8) 0.31559(6)
O8 O 0.71860(16) 0.34088(8) 0.03576(6)
H2 H 0.6891 0.3182 0.0424
O9 O 0.84100(15) 0.43008(8) -0.06866(6)
O10 O 0.83232(16) 0.24956(8) 0.19226(6)
O11 O 0.89601(15) 0.51011(8) -0.06454(6)
O12 O 0.80040(17) 0.29681(9) 0.14233(6)
H3 H 0.8168 0.2691 0.1345
C1 C 0.86973(19) 0.50104(10) 0.05206(8)
C2 C 0.7236(2) 0.42327(11) 0.20475(8)
C3 C 0.7234(2) 0.41903(11) 0.24305(8)
H4 H 0.7019 0.4462 0.2574
C4 C 0.8201(2) 0.45989(11) 0.06699(8)
H5 H 0.8090 0.4582 0.0922
C5 C 0.75529(19) 0.37407(11) 0.25985(8)
C6 C 0.78741(19) 0.42143(10) 0.04349(8)
C7 C 0.78199(19) 0.33227(11) 0.23819(8)
H6 H 0.8011 0.3018 0.2493
C8 C 0.8028(2) 0.42435(11) 0.00543(8)
H7 H 0.7811 0.3985 -0.0100
C9 C 0.7801(2) 0.33614(11) 0.19996(8)
C10 C 0.85066(19) 0.46598(11) -0.00923(7)
C11 C 0.75262(19) 0.38214(11) 0.18282(8)
H8 H 0.7537 0.3852 0.1573
C12 C 0.88440(19) 0.50412(11) 0.01431(8)
H9 H 0.9170 0.5318 0.0046
C13 C 0.90385(19) 0.54419(11) 0.07614(8)
C14 C 0.6918(2) 0.47192(11) 0.18615(8)
C15 C 0.7356(2) 0.37745(11) 0.05970(8)
C16 C 0.76154(19) 0.37127(11) 0.30090(8)
C17 C 0.8076(2) 0.28994(11) 0.17814(8)
C18 C 0.86386(19) 0.46951(11) -0.05015(8)
Ag1B Ag 1.024920(17) 0.568420(10) -0.374970(6)
Ag1J Ag 0.524920(17) 0.568420(10) 0.125030(6)
Ag1G Ag 0.725080(17) 0.681580(10) 0.125030(6)
Ag1X Ag 0.774920(17) 0.431580(10) 0.375030(6)
Ag1EA Ag 0.774920(17) 0.318420(10) 0.374970(6)
Ag1H Ag 1.225080(17) 0.568420(10) -0.375030(6)
Ag1E Ag 1.024920(17) 0.681580(10) -0.375030(6)
Ag2B Ag 0.817030(16) 0.658430(9) -0.342110(7)
Ag2G Ag 0.932970(16) 0.591570(9) 0.157890(7)
Ag2CA Ag 0.682970(16) 0.408430(9) -0.092110(7)
Ag2W Ag 1.067030(16) 0.408430(9) -0.157890(7)
Ag2EA Ag 0.567030(16) 0.408430(9) 0.342110(7)
Ag2F Ag 0.817030(16) 0.158430(9) 0.157890(7)
Ag2E Ag 0.817030(16) 0.591570(9) -0.407890(7)
Ag2DA Ag 0.682970(16) 0.841570(9) 0.342110(7)
Ag3Q Ag 1.1250 0.683770(12) 0.1250
Ag3A Ag 0.8750 0.316230(12) -0.1250
Ag3CA Ag 0.6250 0.183770(12) 0.1250
Ag3Y Ag 0.6250 0.683770(12) -0.3750
Ag4Q Ag 0.8750 0.557420(13) -0.1250
Ag4B Ag 1.1250 0.307420(13) -0.3750
Ag4R Ag 0.8750 0.692580(13) 0.3750
O1B O 0.81642(15) 0.58393(8) -0.31138(6)
O2X O 0.79108(18) 0.51766(9) 0.34584(6)
O2B O 1.04108(18) 0.48234(9) -0.40416(6)
O3B O 0.85316(15) 0.53766(8) -0.36132(6)
O3G O 0.89684(15) 0.71234(8) 0.13868(6)
O3E O 0.85316(15) 0.71234(8) -0.38868(6)
O4X O 0.85710(17) 0.49917(9) 0.29129(7)
H1X H 0.8835 0.4712 0.3017
O5X O 0.76650(15) 0.58993(8) 0.18143(6)
O5AA O 0.76650(15) 0.66007(8) 0.06857(6)
O5R O 0.98350(15) 0.58993(8) -0.43143(6)
O5Q O 0.98350(15) 0.66007(8) -0.31857(6)
O6B O 1.03795(17) 0.37594(9) -0.34207(6)
O6J O 0.53795(17) 0.37594(9) 0.15793(6)
O7X O 0.70362(15) 0.66882(8) 0.18441(6)
O7AA O 0.70362(15) 0.58118(8) 0.06559(6)
O7Q O 1.04638(15) 0.58118(8) -0.31559(6)
O8B O 1.03140(16) 0.34088(8) -0.28576(6)
H2B H 1.0609 0.3182 -0.2924
O9B O 0.90900(15) 0.43008(8) -0.18134(6)
O9Q O 1.09100(15) 0.68008(8) 0.06866(6)
O9AA O 0.65900(15) 0.68008(8) -0.31866(6)
O10X O 0.66768(16) 0.75044(8) 0.30774(6)
O10F O 0.91768(16) 0.74956(8) 0.05774(6)
O10D O 0.83232(16) 0.74956(8) -0.30774(6)
O11B O 0.85399(15) 0.51011(8) -0.18546(6)
O11EA O 0.60399(15) 0.26011(8) 0.18546(6)
O11CA O 0.64601(15) 0.26011(8) 0.06454(6)
O12X O 0.69960(17) 0.70319(9) 0.35767(6)
O12J O 0.44960(17) 0.29681(9) 0.10767(6)
H3X H 0.6832 0.7309 0.3655
H3J H 0.4332 0.2691 0.1155
C1B C 0.88027(19) 0.50104(10) -0.30206(8)
C2X C 0.7764(2) 0.57673(11) 0.29525(8)
C3X C 0.7766(2) 0.58097(11) 0.25695(8)
H4X H 0.7981 0.5538 0.2426
C4B C 0.9299(2) 0.45989(11) -0.31699(8)
H5B H 0.9410 0.4582 -0.3422
C5X C 0.74471(19) 0.62593(11) 0.24015(8)
C6B C 0.96259(19) 0.42143(10) -0.29349(8)
C7X C 0.71801(19) 0.66773(11) 0.26181(8)
H6X H 0.6989 0.6982 0.2507
C8B C 0.9472(2) 0.42435(11) -0.25543(8)
H7B H 0.9689 0.3985 -0.2400
C9X C 0.7199(2) 0.66386(11) 0.30004(8)
C10B C 0.89934(19) 0.46598(11) -0.24077(7)
C11X C 0.74738(19) 0.61786(11) 0.31718(8)
H8X H 0.7463 0.6148 0.3427
C12B C 0.86560(19) 0.50412(11) -0.26431(8)
H9B H 0.8330 0.5318 -0.2546
C13B C 0.84615(19) 0.54419(11) -0.32614(8)
C14X C 0.8082(2) 0.52808(11) 0.31385(8)
C15B C 1.0144(2) 0.37745(11) -0.30970(8)
C16X C 0.73846(19) 0.62873(11) 0.19910(8)
C17X C 0.6924(2) 0.71006(11) 0.32186(8)
C18B C 0.88614(19) 0.46951(11) -0.19985(8)
loop_
_geom_bond_atom_site_label_1
_geom_bond_atom_site_label_2
_geom_bond_site_symmetry_1
_geom_bond_site_symmetry_2
Ag1 O2 1_555 1_555
Ag2 O1 1_555 1_555
Ag3 O9 1_555 1_555
Ag4 O6 1_555 1_555
O1 C13 1_555 1_555
O2 C14 1_555 1_555
O3 Ag1 1_555 1_555
O4 H1 1_555 1_555
O5 C16 1_555 1_555
O6 C15 1_555 1_555
O7 C16 1_555 1_555
O8 H2 1_555 1_555
O9 C18 1_555 1_555
O10 C17 1_555 1_555
O11 C18 1_555 1_555
O12 Ag4 1_555 1_555
H3 O12 1_555 1_555
C1 C4 1_555 1_555
C2 C3 1_555 1_555
C3 H4 1_555 1_555
C4 H5 1_555 1_555
C5 C3 1_555 1_555
C6 C4 1_555 1_555
C7 C5 1_555 1_555
H6 C7 1_555 1_555
C8 C6 1_555 1_555
H7 C8 1_555 1_555
C9 C7 1_555 1_555
C10 C8 1_555 1_555
C11 C2 1_555 1_555
H8 C11 1_555 1_555
C12 C1 1_555 1_555
H9 C12 1_555 1_555
C13 O3 1_555 1_555
C14 O4 1_555 1_555
C15 O8 1_555 1_555
C16 C5 1_555 1_555
C17 O12 1_555 1_555
C18 C10 1_555 1_555
Ag1B Ag1H 1_555 1_555
Ag1J Ag1 1_555 1_555
Ag1G Ag1 1_555 1_555
Ag1X O5 1_555 1_555
Ag1EA O7 1_555 1_555
Ag1E Ag1B 1_555 1_555
Ag2B Ag2E 1_555 1_555
Ag2G Ag2 1_555 1_555
Ag2CA Ag3 1_555 1_555
Ag2W Ag3 1_555 1_555
Ag2EA O5 1_555 1_555
Ag2F O10 1_555 1_555
Ag2E O3B 1_555 1_555
Ag2DA O10X 1_555 1_555
Ag3Q Ag2 1_555 1_555
Ag3A Ag3 1_555 1_555
Ag3CA Ag4 1_555 1_555
Ag3Y Ag2B 1_555 1_555
Ag4Q Ag3 1_555 1_555
Ag4B O6B 1_555 1_555
Ag4R O12X 1_555 1_555
O1B Ag2B 1_555 1_555
O2X Ag1X 1_555 1_555
O2B Ag1B 1_555 1_555
O3B Ag1B 1_555 1_555
O3G Ag2 1_555 1_555
O3E Ag1E 1_555 1_555
O4X H1X 1_555 1_555
O5X Ag1 1_555 1_555
O5AA Ag2 1_555 1_555
O5R Ag1B 1_555 1_555
O5Q Ag1E 1_555 1_555
O6B C15B 1_555 1_555
O6J Ag4 1_555 1_555
O7X Ag1G 1_555 1_555
O7AA Ag1 1_555 1_555
O7Q Ag1B 1_555 1_555
O8B H2B 1_555 1_555
O9B Ag3 1_555 1_555
O9Q Ag2 1_555 1_555
O9AA Ag2B 1_555 1_555
O10X C17X 1_555 1_555
O10F Ag2 1_555 1_555
O10D Ag2B 1_555 1_555
O11B Ag4Q 1_555 1_555
O11EA Ag4 1_555 1_555
O11CA Ag4 1_555 1_555
O12X H3X 1_555 1_555
O12J Ag4 1_555 1_555
H3J O12J 1_555 1_555
C1B C4B 1_555 1_555
C2X C3X 1_555 1_555
C3X H4X 1_555 1_555
C4B H5B 1_555 1_555
C5X C3X 1_555 1_555
C6B C4B 1_555 1_555
C7X C5X 1_555 1_555
H6X C7X 1_555 1_555
C8B C6B 1_555 1_555
H7B C8B 1_555 1_555
C9X C7X 1_555 1_555
C10B C8B 1_555 1_555
C11X C2X 1_555 1_555
H8X C11X 1_555 1_555
C12B C1B 1_555 1_555
H9B C12B 1_555 1_555
C13B O1B 1_555 1_555
C14X O2X 1_555 1_555
C15B O8B 1_555 1_555
C16X O5X 1_555 1_555
C17X O12X 1_555 1_555
C18B O9B 1_555 1_555
O3 Ag2G 1_555 1_555
O9 Ag2CA 1_555 1_555
O11 Ag4Q 1_555 1_555
C1 C13 1_555 1_555
C2 C14 1_555 1_555
C6 C15 1_555 1_555
C9 C11 1_555 1_555
C9 C17 1_555 1_555
C10 C12 1_555 1_555
Ag1G O3G 1_555 1_555
Ag1G O5AA 1_555 1_555
Ag1X Ag1EA 1_555 1_555
Ag2B O3E 1_555 1_555
Ag2B O5Q 1_555 1_555
Ag2G O5X 1_555 1_555
Ag2W O9B 1_555 1_555
Ag2F Ag3CA 1_555 1_555
Ag2E O5R 1_555 1_555
Ag3Q O9Q 1_555 1_555
Ag3Y O9AA 1_555 1_555
O3B C13B 1_555 1_555
O4X C14X 1_555 1_555
O7X C16X 1_555 1_555
O11B C18B 1_555 1_555
C1B C13B 1_555 1_555
C2X C14X 1_555 1_555
C5X C16X 1_555 1_555
C6B C15B 1_555 1_555
C9X C11X 1_555 1_555
C9X C17X 1_555 1_555
C10B C12B 1_555 1_555
C10B C18B 1_555 1_555

#END
