
#######################################################################
#
#                 Cambridge Crystallographic Data Centre
#                                CCDC 
#
#######################################################################
#
# If this CIF has been generated from an entry in the Cambridge 
# Structural Database, then it will include bibliographic, chemical, 
# crystal, experimental, refinement or atomic coordinate data resulting 
# from the CCDC's data processing and validation procedures.
#
#######################################################################

data_UDUMIP
_symmetry_cell_setting           orthorhombic
_symmetry_space_group_name_H-M   'F d d d'
_symmetry_Int_Tables_number      70
_space_group_name_Hall           '-F 2uv 2vw'
loop_
_symmetry_equiv_pos_site_id
_symmetry_equiv_pos_as_xyz
1 x,y,z
2 x,1/2+y,1/2+z
3 x,1/4-y,1/4-z
4 1/2+x,y,1/2+z
5 1/4-x,y,1/4-z
6 1/2+x,1/2+y,z
7 1/4-x,1/4-y,z
8 1/4+x,1/4+y,-z
9 1/4+x,-y,1/4+z
10 -x,1/4+y,1/4+z
11 1/4+x,3/4+y,1/2-z
12 1/4+x,1/2-y,3/4+z
13 3/4+x,1/4+y,1/2-z
14 1/2-x,1/4+y,3/4+z
15 3/4+x,1/2-y,1/4+z
16 1/2-x,3/4+y,1/4+z
17 -x,-y,-z
18 -x,1/2-y,1/2-z
19 -x,3/4+y,3/4+z
20 1/2-x,-y,1/2-z
21 3/4+x,-y,3/4+z
22 1/2-x,1/2-y,-z
23 3/4+x,3/4+y,-z
24 3/4-x,3/4-y,z
25 3/4-x,y,3/4-z
26 x,3/4-y,3/4-z
27 3/4-x,1/4-y,1/2+z
28 3/4-x,1/2+y,1/4-z
29 1/4-x,3/4-y,1/2+z
30 1/2+x,3/4-y,1/4-z
31 1/4-x,1/2+y,3/4-z
32 1/2+x,1/4-y,3/4-z
_cell_length_a                   14.8775(2)
_cell_length_b                   25.9261(2)
_cell_length_c                   36.3777(2)
_cell_angle_alpha                90
_cell_angle_beta                 90
_cell_angle_gamma                90
_cell_volume                     14031.4
loop_
_atom_site_label
_atom_site_type_symbol
_atom_site_fract_x
_atom_site_fract_y
_atom_site_fract_z
Ag1 Ag -0.52540(4) -0.18237(2) 0.375050(14)
Ag2 Ag -0.31766(4) -0.09136(2) 0.408350(16)
Ag3 Ag -0.1250 -0.06538(3) 0.3750
Ag4 Ag -0.1250 0.05845(3) 0.3750
O1 O -0.3935(4) -0.0001(2) 0.54112(15)
O2 O -0.5469(3) -0.16908(17) 0.43440(12)
O3 O -0.5835(3) -0.25009(18) 0.55781(13)
O4 O -0.5499(4) -0.2034(2) 0.60751(13)
O5 O -0.1046(3) 0.01058(17) 0.43560(12)
O6 O -0.1596(3) -0.06882(16) 0.43114(11)
C1 C -0.5034(4) -0.1181(2) 0.56681(18)
H1 H -0.5051 -0.1149 0.5923
C2 C -0.5304(4) -0.1640(2) 0.54994(17)
C3 C -0.5328(4) -0.1675(2) 0.51196(18)
H2 H -0.5532 -0.1977 0.5010
C4 C -0.5051(4) -0.1264(2) 0.48993(17)
C5 C -0.4743(4) -0.0818(2) 0.50673(18)
H3 H -0.4537 -0.0546 0.4923
C6 C -0.4739(4) -0.0771(2) 0.54494(18)
C7 C -0.4414(4) -0.0287(2) 0.56339(18)
C8 C -0.5124(4) -0.1293(2) 0.44889(17)
C9 C -0.5581(4) -0.2098(3) 0.57193(18)
C10 C -0.1492(4) -0.0337(2) 0.49083(16)
C11 C -0.1968(4) -0.0749(2) 0.50537(17)
H4 H -0.2188 -0.1005 0.4899
C12 C -0.1363(4) -0.0300(2) 0.44976(16)
C13 C -0.2119(4) -0.0781(2) 0.54324(17)
C14 C -0.2640(4) -0.1220(2) 0.55925(17)
C15 C -0.1794(4) -0.0401(2) 0.56679(17)
H5 H -0.1897 -0.0422 0.5920
C16 C -0.1307(4) 0.0013(2) 0.55184(17)
O7 O -0.2874(3) -0.12346(17) 0.59164(12)
O8 O -0.2808(4) -0.15850(19) 0.53595(13)
C17 C -0.0961(4) 0.0438(2) 0.57645(17)
C18 C -0.1163(4) 0.0040(2) 0.51486(16)
H6 H -0.0840 0.0317 0.5054
O9 O -0.1027(3) 0.03793(17) 0.61129(11)
O10 O -0.0666(3) 0.08387(17) 0.56156(12)
O11 O -0.4840(3) -0.09113(17) 0.43125(11)
O12 O -0.4580(3) -0.01826(18) 0.59535(12)
H7 H -0.308(6) -0.186(4) 0.548(3)
H8 H -0.377(6) 0.021(3) 0.549(2)
H9 H -0.569(6) -0.231(4) 0.618(3)
O5X O -0.1454(3) 0.01058(17) 0.31440(12)
O6X O -0.0904(3) -0.06882(16) 0.31886(11)
C10X C -0.1008(4) -0.0337(2) 0.25917(16)
C11X C -0.0532(4) -0.0749(2) 0.24463(17)
H4X H -0.0312 -0.1005 0.2601
C12X C -0.1137(4) -0.0300(2) 0.30024(16)
C13X C -0.0381(4) -0.0781(2) 0.20676(17)
C14X C 0.0140(4) -0.1220(2) 0.19075(17)
C15X C -0.0706(4) -0.0401(2) 0.18321(17)
H5X H -0.0603 -0.0422 0.1580
C16X C -0.1193(4) 0.0013(2) 0.19816(17)
O7X O 0.0374(3) -0.12346(17) 0.15836(12)
O8X O 0.0308(4) -0.15850(19) 0.21405(13)
C17X C -0.1539(4) 0.0438(2) 0.17355(17)
C18X C -0.1337(4) 0.0040(2) 0.23514(16)
H6X H -0.1660 0.0317 0.2446
O9X O -0.1473(3) 0.03793(17) 0.13871(11)
O10X O -0.1834(3) 0.08387(17) 0.18844(12)
H7X H 0.058(6) -0.186(4) 0.202(3)
Ag2X Ag 0.06766(4) -0.09136(2) 0.341650(16)
O1X O 0.1435(4) -0.0001(2) 0.20888(15)
O2X O 0.2969(3) -0.16908(17) 0.31560(12)
O3X O 0.3335(3) -0.25009(18) 0.19219(13)
O4X O 0.2999(4) -0.2034(2) 0.14249(13)
C1X C 0.2534(4) -0.1181(2) 0.18319(18)
H1X H 0.2551 -0.1149 0.1577
C2X C 0.2804(4) -0.1640(2) 0.20006(17)
C3X C 0.2828(4) -0.1675(2) 0.23804(18)
H2X H 0.3032 -0.1977 0.2490
C4X C 0.2551(4) -0.1264(2) 0.26007(17)
C5X C 0.2243(4) -0.0818(2) 0.24327(18)
H3X H 0.2037 -0.0546 0.2577
C6X C 0.2239(4) -0.0771(2) 0.20506(18)
C7X C 0.1914(4) -0.0287(2) 0.18661(18)
C8X C 0.2624(4) -0.1293(2) 0.30111(17)
C9X C 0.3081(4) -0.2098(3) 0.17807(18)
O11X O 0.2340(3) -0.09113(17) 0.31875(11)
O12X O 0.2080(3) -0.01826(18) 0.15465(12)
H8X H 0.127(6) 0.021(3) 0.201(2)
H9X H 0.319(6) -0.231(4) 0.132(3)
Ag1X Ag 0.27540(4) -0.18237(2) 0.374950(14)
Ag1X_2 Ag -0.72460(4) -0.18237(2) 0.374950(14)
Ag1Y Ag -0.52540(4) -0.06763(2) 0.374950(14)
Ag2Y Ag -0.31766(4) -0.15864(2) 0.341650(16)
O11Y O -0.4840(3) -0.15887(17) 0.31875(11)
O12R O -0.5420(3) -0.26826(18) 0.34535(12)
O9T O -0.3527(3) -0.03793(17) 0.36129(11)
O10V O -0.3166(3) -0.16613(17) 0.43844(12)
Ag3W Ag -0.1250 -0.18462(3) 0.3750
O7G O -0.0374(3) 0.12654(17) 0.40836(12)
O7M O -0.2126(3) 0.12654(17) 0.34164(12)
Ag4O Ag -0.3750 -0.19155(3) 0.6250
Ag2H Ag -0.06766(4) 0.09136(2) 0.658350(16)
Ag2G Ag -0.06766(4) 0.15864(2) 0.591650(16)
Ag1I Ag -0.47460(4) 0.06763(2) 0.625050(14)
Ag4J Ag 0.1250 -0.19155(3) 0.1250
Ag2S Ag -0.18234(4) 0.09136(2) 0.091650(16)
Ag2M Ag -0.18234(4) 0.15864(2) 0.158350(16)
Ag1W Ag 0.27540(4) -0.06763(2) 0.375050(14)
Ag2W Ag 0.06766(4) -0.15864(2) 0.408350(16)
O9P O 0.1027(3) -0.03793(17) 0.38871(11)
O10R O 0.0666(3) -0.16613(17) 0.31156(12)
Ag1L Ag 0.22460(4) 0.06763(2) 0.124950(14)
Ag1_2 Ag 0.47460(4) -0.18237(2) 0.375050(14)
O11W O 0.2340(3) -0.15887(17) 0.43125(11)
O12V O 0.2920(3) -0.26826(18) 0.40465(12)
loop_
_geom_bond_atom_site_label_1
_geom_bond_atom_site_label_2
_geom_bond_site_symmetry_1
_geom_bond_site_symmetry_2
Ag1 O2 1_555 1_555
Ag2 Ag3 1_555 1_555
Ag3 Ag4 1_555 1_555
Ag4 O5 1_555 1_555
O1 C7 1_555 1_555
O2 C8 1_555 1_555
O3 C9 1_555 1_555
O4 C9 1_555 1_555
O5 C12 1_555 1_555
O6 Ag2 1_555 1_555
C1 H1 1_555 1_555
C2 C1 1_555 1_555
C3 C2 1_555 1_555
H2 C3 1_555 1_555
C4 C3 1_555 1_555
C5 C4 1_555 1_555
H3 C5 1_555 1_555
C6 C1 1_555 1_555
C7 C6 1_555 1_555
C8 C4 1_555 1_555
C9 C2 1_555 1_555
C10 C11 1_555 1_555
C11 H4 1_555 1_555
C12 O6 1_555 1_555
C13 C11 1_555 1_555
C14 C13 1_555 1_555
C15 C13 1_555 1_555
H5 C15 1_555 1_555
C16 C15 1_555 1_555
O7 C14 1_555 1_555
O8 C14 1_555 1_555
C17 C16 1_555 1_555
C18 C10 1_555 1_555
H6 C18 1_555 1_555
O9 C17 1_555 1_555
O10 C17 1_555 1_555
O11 Ag2 1_555 1_555
O12 C7 1_555 1_555
H7 O8 1_555 1_555
H8 O1 1_555 1_555
H9 O4 1_555 1_555
O5X Ag4 1_555 1_555
O6X Ag3 1_555 1_555
C10X C11X 1_555 1_555
C11X H4X 1_555 1_555
C12X O5X 1_555 1_555
C13X C11X 1_555 1_555
C14X C13X 1_555 1_555
C15X C13X 1_555 1_555
H5X C15X 1_555 1_555
C16X C15X 1_555 1_555
O7X C14X 1_555 1_555
O8X C14X 1_555 1_555
C17X C16X 1_555 1_555
C18X C10X 1_555 1_555
H6X C18X 1_555 1_555
O9X C17X 1_555 1_555
O10X C17X 1_555 1_555
H7X O8X 1_555 1_555
Ag2X Ag3 1_555 1_555
O1X C7X 1_555 1_555
O2X C8X 1_555 1_555
O3X C9X 1_555 1_555
O4X C9X 1_555 1_555
C1X H1X 1_555 1_555
C2X C1X 1_555 1_555
C3X C2X 1_555 1_555
H2X C3X 1_555 1_555
C4X C3X 1_555 1_555
C5X C4X 1_555 1_555
H3X C5X 1_555 1_555
C6X C1X 1_555 1_555
C7X C6X 1_555 1_555
C8X C4X 1_555 1_555
C9X C2X 1_555 1_555
O11X Ag2X 1_555 1_555
O12X C7X 1_555 1_555
H8X O1X 1_555 1_555
H9X O4X 1_555 1_555
Ag1X O2X 1_555 1_555
Ag1X_2 Ag1 1_555 1_555
Ag1Y Ag1 1_555 1_555
Ag2Y Ag1 1_555 1_555
O11Y Ag1 1_555 1_555
O12R Ag1 1_555 1_555
O9T Ag2 1_555 1_555
O10V Ag2 1_555 1_555
Ag3W Ag3 1_555 1_555
O7G Ag4 1_555 1_555
O7M Ag4 1_555 1_555
Ag4O O7 1_555 1_555
Ag2H O9 1_555 1_555
Ag2G O10 1_555 1_555
Ag1I O12 1_555 1_555
Ag4J O7X 1_555 1_555
Ag2S O9X 1_555 1_555
Ag2M O10X 1_555 1_555
Ag1W Ag2X 1_555 1_555
Ag2W Ag2X 1_555 1_555
O9P Ag2X 1_555 1_555
O10R Ag2X 1_555 1_555
Ag1L O12X 1_555 1_555
Ag1_2 Ag1X 1_555 1_555
O11W Ag1X 1_555 1_555
O12V Ag1X 1_555 1_555
Ag2 Ag1Y 1_555 1_555
Ag2 Ag2Y 1_555 1_555
Ag3 O6 1_555 1_555
C5 C6 1_555 1_555
C8 O11 1_555 1_555
C10 C12 1_555 1_555
C16 C18 1_555 1_555
O11 Ag1Y 1_555 1_555
O6X Ag2X 1_555 1_555
O6X C12X 1_555 1_555
C10X C12X 1_555 1_555
C16X C18X 1_555 1_555
C5X C6X 1_555 1_555
C8X O11X 1_555 1_555
O11X Ag1W 1_555 1_555
Ag1X Ag1W 1_555 1_555
Ag1X Ag2W 1_555 1_555
Ag2Y Ag3W 1_555 1_555
Ag2Y O11Y 1_555 1_555
Ag3W Ag2W 1_555 1_555
Ag2H Ag2G 1_555 1_555
Ag2S Ag2M 1_555 1_555
Ag2W O11W 1_555 1_555

#END
