
#######################################################################
#
#                 Cambridge Crystallographic Data Centre
#                                CCDC 
#
#######################################################################
#
# If this CIF has been generated from an entry in the Cambridge 
# Structural Database, then it will include bibliographic, chemical, 
# crystal, experimental, refinement or atomic coordinate data resulting 
# from the CCDC's data processing and validation procedures.
#
#######################################################################

data_UDUMOV
_symmetry_cell_setting           monoclinic
_symmetry_space_group_name_H-M   'P 21/c'
_symmetry_Int_Tables_number      14
_space_group_name_Hall           '-P 2ybc'
loop_
_symmetry_equiv_pos_site_id
_symmetry_equiv_pos_as_xyz
1 x,y,z
2 x,1/2-y,1/2+z
3 -x,-y,-z
4 -x,1/2+y,1/2-z
_cell_length_a                   8.113(3)
_cell_length_b                   26.755(9)
_cell_length_c                   9.781(4)
_cell_angle_alpha                90
_cell_angle_beta                 109.68(3)
_cell_angle_gamma                90
_cell_volume                     1999.08
loop_
_atom_site_label
_atom_site_type_symbol
_atom_site_fract_x
_atom_site_fract_y
_atom_site_fract_z
Cu1 Cu 0.30695(10) 0.31859(3) 0.20645(9)
N1 N 0.1596(7) 0.2740(2) 0.0499(6)
N2 N 0.2171(7) 0.2474(2) -0.0211(6)
N3 N 0.2657(8) 0.2203(2) -0.0905(7)
N4 N 0.4615(7) 0.3759(2) 0.3171(6)
C1 C 0.4503(10) 0.4213(3) 0.2601(9)
H1 H 0.3761(10) 0.4264(3) 0.1653(9)
C2 C 0.5451(12) 0.4612(3) 0.3367(12)
H2 H 0.5322(12) 0.4928(3) 0.2951(12)
C3 C 0.6583(13) 0.4536(4) 0.4746(13)
H3 H 0.7244(13) 0.4799(4) 0.5277(13)
C4 C 0.6730(11) 0.4071(4) 0.5331(10)
H4 H 0.7503(11) 0.4011(4) 0.6262(10)
C5 C 0.5710(10) 0.3686(3) 0.4520(9)
H5 H 0.5793(10) 0.3369(3) 0.4929(9)
N5 N 0.5214(6) 0.2789(2) 0.2202(6)
C6 C 0.5429(9) 0.2326(3) 0.2725(8)
H6 H 0.4564(9) 0.2191(3) 0.3040(8)
C7 C 0.6861(11) 0.2040(3) 0.2823(9)
H7 H 0.6976(11) 0.1722(3) 0.3223(9)
C8 C 0.8129(10) 0.2229(3) 0.2325(8)
H8 H 0.9116(10) 0.2042(3) 0.2385(8)
C9 C 0.7905(10) 0.2696(3) 0.1742(9)
H9 H 0.8733(10) 0.2828(3) 0.1377(9)
C10 C 0.6472(9) 0.2971(3) 0.1690(8)
H10 H 0.6346(9) 0.3291(3) 0.1297(8)
N6 N 0.0993(7) 0.3648(2) 0.1848(6)
C11 C -0.0022(9) 0.3795(3) 0.0525(8)
H11 H 0.0122(9) 0.3645(3) -0.0285(8)
C12 C -0.1277(11) 0.4162(3) 0.0323(10)
H12 H -0.1989(11) 0.4257(3) -0.0602(10)
C13 C -0.1429(13) 0.4382(3) 0.1547(12)
H13 H -0.2251(13) 0.4634(3) 0.1453(12)
C14 C -0.0387(12) 0.4234(3) 0.2897(11)
H14 H -0.0484(12) 0.4386(3) 0.3722(11)
C15 C 0.0806(9) 0.3858(3) 0.3021(8)
H15 H 0.1494(9) 0.3749(3) 0.3939(8)
N3A N 0.2657(8) 0.2797(2) 0.4095(7)
Cu1A Cu 0.30695(10) 0.18141(3) -0.29355(9)
P1 P 0.2729(3) 0.09712(8) 0.2791(2)
F1 F 0.2069(8) 0.0589(2) 0.1481(6)
F2 F 0.3378(8) 0.1349(2) 0.4134(6)
F3 F 0.3527(55) 0.1273(13) 0.1877(39)
F4 F 0.1128(45) 0.1274(12) 0.2287(40)
F5 F 0.1897(62) 0.0663(10) 0.3748(40)
F6 F 0.4444(40) 0.0637(15) 0.3460(38)
F7? F 0.4620(27) 0.0970(15) 0.2803(34)
F8? F 0.3135(67) 0.0544(7) 0.3814(18)
F9? F 0.0780(24) 0.1021(22) 0.2650(37)
F10? F 0.2380(80) 0.1435(11) 0.1700(29)
loop_
_geom_bond_atom_site_label_1
_geom_bond_atom_site_label_2
_geom_bond_site_symmetry_1
_geom_bond_site_symmetry_2
Cu1 N1 1_555 1_555
N1 N2 1_555 1_555
N2 N3 1_555 1_555
N3 Cu1A 1_555 1_555
N4 Cu1 1_555 1_555
C1 N4 1_555 1_555
H1 C1 1_555 1_555
C2 C1 1_555 1_555
H2 C2 1_555 1_555
C3 C2 1_555 1_555
H3 C3 1_555 1_555
C4 C3 1_555 1_555
H4 C4 1_555 1_555
C5 N4 1_555 1_555
H5 C5 1_555 1_555
N5 Cu1 1_555 1_555
C6 N5 1_555 1_555
H6 C6 1_555 1_555
C7 C6 1_555 1_555
H7 C7 1_555 1_555
C8 C7 1_555 1_555
H8 C8 1_555 1_555
C9 C8 1_555 1_555
H9 C9 1_555 1_555
C10 N5 1_555 1_555
H10 C10 1_555 1_555
N6 Cu1 1_555 1_555
C11 N6 1_555 1_555
H11 C11 1_555 1_555
C12 C11 1_555 1_555
H12 C12 1_555 1_555
C13 C12 1_555 1_555
H13 C13 1_555 1_555
C14 C13 1_555 1_555
H14 C14 1_555 1_555
C15 N6 1_555 1_555
H15 C15 1_555 1_555
P1 F1 1_555 1_555
F2 P1 1_555 1_555
F3 P1 1_555 1_555
F4 P1 1_555 1_555
F5 P1 1_555 1_555
F6 P1 1_555 1_555
N3A Cu1 1_555 1_555
C4 C5 1_555 1_555
C9 C10 1_555 1_555
C14 C15 1_555 1_555

#END
