
#######################################################################
#
#                 Cambridge Crystallographic Data Centre
#                                CCDC 
#
#######################################################################
#
# If this CIF has been generated from an entry in the Cambridge 
# Structural Database, then it will include bibliographic, chemical, 
# crystal, experimental, refinement or atomic coordinate data resulting 
# from the CCDC's data processing and validation procedures.
#
#######################################################################

data_UDUMOX
_symmetry_cell_setting           triclinic
_symmetry_space_group_name_H-M   'P -1'
_symmetry_Int_Tables_number      2
_space_group_name_Hall           '-P 1'
loop_
_symmetry_equiv_pos_site_id
_symmetry_equiv_pos_as_xyz
1 x,y,z
2 -x,-y,-z
_cell_length_a                   12.730(3)
_cell_length_b                   13.032(2)
_cell_length_c                   20.711(4)
_cell_angle_alpha                75.680(14)
_cell_angle_beta                 74.842(14)
_cell_angle_gamma                68.987(14)
_cell_volume                     3050.52
loop_
_atom_site_label
_atom_site_type_symbol
_atom_site_fract_x
_atom_site_fract_y
_atom_site_fract_z
Tb1 Tb -0.11032(7) 0.59327(6) 0.67110(3)
Tb2 Tb -0.61234(7) 1.09541(6) 0.82937(3)
Tb3 Tb -0.86731(7) 1.33098(6) 0.74159(3)
Tb4 Tb -0.36354(7) 0.83338(6) 0.76495(3)
O1 O -0.8123(9) 1.1932(9) 0.8425(4)
O2 O -0.9908(10) 1.2682(11) 0.8404(6)
C1 C -0.9172(16) 1.2079(15) 0.8734(8)
C2 C -0.9384(19) 1.147(2) 0.9416(9)
H1 H -0.8881 1.1530 0.9674
H2 H -0.9178 1.0683 0.9389
C3 C -1.060(2) 1.184(3) 0.9801(11)
H3 H -1.0655 1.1386 1.0244
H4 H -1.1104 1.1755 0.9559
H5 H -1.0806 1.2604 0.9844
O3 O -0.8220(10) 1.1649(9) 0.7060(5)
O4 O -0.6849(11) 1.0418(9) 0.7572(5)
C4 C -0.7664(16) 1.0668(14) 0.7268(7)
C5 C -0.793(3) 0.9748(16) 0.7105(14)
H6 H -0.8575 1.0082 0.6874
H7 H -0.7278 0.9385 0.6783
C6 C -0.817(4) 0.895(3) 0.7618(15)
H8 H -0.8308 0.8406 0.7438
H9 H -0.8845 0.9282 0.7930
H10 H -0.7538 0.8594 0.7849
O5 O -0.5418(12) 1.2544(10) 0.7999(6)
O6 O -0.6725(9) 1.2889(10) 0.7424(5)
C7 C -0.6046(15) 1.3227(15) 0.7618(8)
C8 C -0.593(2) 1.4345(18) 0.7338(11)
H11 H -0.5294 1.4285 0.6958
H12 H -0.6622 1.4817 0.7166
C9 C -0.576(3) 1.488(2) 0.7811(14)
H13 H -0.5714 1.5603 0.7593
H14 H -0.5064 1.4435 0.7970
H15 H -0.6395 1.4947 0.8189
O7 O -0.6721(11) 1.1890(11) 0.9282(6)
O8 O -0.5173(16) 1.1803(16) 0.9610(7)
H16 H -0.4881 1.1312 0.9375
C10 C -0.624(2) 1.2203(18) 0.9609(9)
C11 C -0.695(2) 1.309(2) 1.0011(10)
H17 H -0.7037 1.2734 1.0484
H18 H -0.6516 1.3588 0.9955
C12 C -0.799(3) 1.371(2) 0.9898(14)
H19 H -0.8313 1.4271 1.0183
H20 H -0.8478 1.3249 0.9999
H21 H -0.7944 1.4064 0.9430
O9 O -0.6787(9) 0.9628(10) 0.9166(5)
O10 O -0.5323(9) 0.8841(9) 0.8445(4)
C13 C -0.6086(14) 0.8782(15) 0.8969(7)
C14 C -0.6089(19) 0.7617(16) 0.9354(7)
H22 H -0.5328 0.7197 0.9446
H23 H -0.6611 0.7692 0.9787
C15 C -0.641(2) 0.700(2) 0.9004(11)
H24 H -0.6393 0.6279 0.9276
H25 H -0.5892 0.6900 0.8579
H26 H -0.7177 0.7392 0.8922
O11 O -0.4580(9) 1.0382(9) 0.7395(5)
O12 O -0.3568(13) 0.9562(10) 0.6544(4)
C16 C -0.4249(15) 1.0379(15) 0.6760(7)
C17 C -0.4629(18) 1.1502(17) 0.6303(8)
H27 H -0.5439 1.1686 0.6306
H28 H -0.4542 1.2064 0.6499
C18 C -0.402(3) 1.157(2) 0.5605(12)
H29 H -0.4340 1.2300 0.5358
H30 H -0.4103 1.1020 0.5403
H31 H -0.3226 1.1435 0.5592
O13 O -0.4911(10) 0.7848(10) 0.7168(5)
O14 O -0.3094(10) 0.6969(9) 0.6897(4)
C19 C -0.4126(16) 0.7204(14) 0.6843(7)
C20 C -0.4340(16) 0.6622(15) 0.6360(7)
H32 H -0.4201 0.5839 0.6556
H33 H -0.3795 0.6670 0.5937
C21 C -0.557(2) 0.7116(19) 0.6207(10)
H34 H -0.5645 0.6708 0.5905
H35 H -0.5702 0.7885 0.5999
H36 H -0.6112 0.7062 0.6623
O15 O -0.4446(10) 1.0392(9) 0.8794(5)
O16 O -0.3019(10) 0.9072(10) 0.8353(5)
C22 C -0.3427(17) 0.9821(15) 0.8702(7)
C23 C -0.2643(18) 1.003(2) 0.9034(11)
H37 H -0.2978 1.0784 0.9131
H38 H -0.2606 0.9527 0.9466
C24 C -0.157(4) 0.991(4) 0.8689(14)
H39 H -0.1155 1.0110 0.8940
H40 H -0.1586 1.0389 0.8255
H41 H -0.1195 0.9149 0.8626
O17 O -0.3194(11) 0.6648(9) 0.8388(4)
O18 O -0.1837(9) 0.5409(8) 0.7831(5)
C25 C -0.2639(14) 0.5680(15) 0.8318(6)
C26 C -0.294(3) 0.4758(17) 0.8883(9)
H42 H -0.2383 0.4486 0.9177
H43 H -0.3686 0.5076 0.9154
C27 C -0.297(3) 0.384(3) 0.8637(15)
H44 H -0.3134 0.3287 0.9014
H45 H -0.2234 0.3525 0.8365
H46 H -0.3548 0.4096 0.8367
O19 O -0.1676(10) 0.7815(11) 0.7191(6)
O20 O -0.0403(11) 0.7509(10) 0.6288(5)
C28 C -0.1011(14) 0.8160(16) 0.6690(8)
C29 C -0.080(2) 0.9233(18) 0.6604(11)
H47 H -0.1545 0.9799 0.6680
H48 H -0.0419 0.9179 0.6964
C30 C -0.019(3) 0.962(2) 0.6008(16)
H49 H -0.0154 1.0333 0.6027
H50 H -0.0552 0.9686 0.5641
H51 H 0.0575 0.9102 0.5937
O21 O 0.0436(9) 0.5370(9) 0.7310(5)
O22 O 0.1213(12) 0.4524(10) 0.8191(5)
C31 C 0.0673(15) 0.5393(16) 0.7863(7)
C32 C 0.027(2) 0.6486(16) 0.8126(9)
H52 H 0.0451 0.7053 0.7754
H53 H -0.0559 0.6704 0.8262
C33 C 0.076(2) 0.648(2) 0.8705(10)
H54 H 0.0443 0.7207 0.8833
H55 H 0.1574 0.6296 0.8573
H56 H 0.0565 0.5939 0.9083
O23 O -0.0328(9) 0.3846(8) 0.6978(4)
O24 O -0.1859(10) 0.4586(9) 0.6531(5)
C34 C -0.1177(14) 0.3753(15) 0.6800(7)
C35 C -0.1255(17) 0.2588(14) 0.6918(9)
H57 H -0.0627 0.2164 0.6611
H58 H -0.1147 0.2235 0.7377
C36 C -0.235(2) 0.251(2) 0.6827(15)
H59 H -0.2312 0.1740 0.6919
H60 H -0.2449 0.2824 0.6369
H61 H -0.2976 0.2911 0.7135
O25 O -0.1659(10) 0.6795(10) 0.5604(5)
O26 O -0.0118(12) 0.6883(13) 0.4837(5)
H62 H 0.0215 0.6344 0.5092
C37 C -0.1222(18) 0.7182(15) 0.5086(7)
C38 C -0.182(2) 0.8204(19) 0.4605(9)
H63 H -0.1502 0.8799 0.4564
H64 H -0.1659 0.8012 0.4158
C39 C -0.304(3) 0.860(3) 0.4837(10)
H65 H -0.3376 0.9224 0.4513
H66 H -0.3203 0.8830 0.5268
H67 H -0.3356 0.8014 0.4883
O27 O 0.0593(10) 0.5360(9) 0.5859(4)
O28 O 0.1975(9) 0.3989(9) 0.6296(5)
C40 C 0.1637(19) 0.4757(15) 0.5843(7)
C41 C 0.2425(17) 0.4970(19) 0.5195(9)
H68 H 0.2654 0.4330 0.4971
H69 H 0.1990 0.5605 0.4910
C42 C 0.329(4) 0.515(5) 0.5210(14)
H70 H 0.3722 0.5257 0.4756
H71 H 0.3751 0.4524 0.5480
H72 H 0.3091 0.5807 0.5404
Tb3_2 Tb 0.13269(7) 0.33098(6) 0.74159(3)
O21_2 O -0.9564(9) 1.5370(9) 0.7310(5)
O22_2 O -0.8787(12) 1.4524(10) 0.8191(5)
O23_2 O -1.0328(9) 1.3846(8) 0.6978(4)
O28_2 O -0.8025(9) 1.3989(9) 0.6296(5)
loop_
_geom_bond_atom_site_label_1
_geom_bond_atom_site_label_2
_geom_bond_site_symmetry_1
_geom_bond_site_symmetry_2
Tb1 O14 1_555 1_555
Tb2 O1 1_555 1_555
Tb3 O1 1_555 1_555
Tb4 O10 1_555 1_555
O1 C1 1_555 1_555
O2 Tb3 1_555 1_555
C1 O2 1_555 1_555
C2 C1 1_555 1_555
H1 C2 1_555 1_555
H2 C2 1_555 1_555
C3 C2 1_555 1_555
H3 C3 1_555 1_555
H4 C3 1_555 1_555
H5 C3 1_555 1_555
O3 Tb3 1_555 1_555
O4 Tb2 1_555 1_555
C4 O3 1_555 1_555
C5 C4 1_555 1_555
H6 C5 1_555 1_555
H7 C5 1_555 1_555
C6 C5 1_555 1_555
H8 C6 1_555 1_555
H9 C6 1_555 1_555
H10 C6 1_555 1_555
O5 Tb2 1_555 1_555
O6 Tb2 1_555 1_555
C7 O5 1_555 1_555
C8 C7 1_555 1_555
H11 C8 1_555 1_555
H12 C8 1_555 1_555
C9 C8 1_555 1_555
H13 C9 1_555 1_555
H14 C9 1_555 1_555
H15 C9 1_555 1_555
O7 Tb2 1_555 1_555
O8 H16 1_555 1_555
C10 O7 1_555 1_555
C11 C10 1_555 1_555
H17 C11 1_555 1_555
H18 C11 1_555 1_555
C12 C11 1_555 1_555
H19 C12 1_555 1_555
H20 C12 1_555 1_555
H21 C12 1_555 1_555
O9 Tb2 1_555 1_555
O10 Tb2 1_555 1_555
C13 O9 1_555 1_555
C14 C13 1_555 1_555
H22 C14 1_555 1_555
H23 C14 1_555 1_555
C15 C14 1_555 1_555
H24 C15 1_555 1_555
H25 C15 1_555 1_555
H26 C15 1_555 1_555
O11 Tb2 1_555 1_555
O12 Tb4 1_555 1_555
C16 O11 1_555 1_555
C17 C16 1_555 1_555
H27 C17 1_555 1_555
H28 C17 1_555 1_555
C18 C17 1_555 1_555
H29 C18 1_555 1_555
H30 C18 1_555 1_555
H31 C18 1_555 1_555
O13 Tb4 1_555 1_555
O14 Tb4 1_555 1_555
C19 O13 1_555 1_555
C20 C19 1_555 1_555
H32 C20 1_555 1_555
H33 C20 1_555 1_555
C21 C20 1_555 1_555
H34 C21 1_555 1_555
H35 C21 1_555 1_555
H36 C21 1_555 1_555
O15 Tb2 1_555 1_555
O16 Tb4 1_555 1_555
C22 O15 1_555 1_555
C23 C22 1_555 1_555
H37 C23 1_555 1_555
H38 C23 1_555 1_555
C24 C23 1_555 1_555
H39 C24 1_555 1_555
H40 C24 1_555 1_555
H41 C24 1_555 1_555
O17 Tb4 1_555 1_555
O18 Tb1 1_555 1_555
C25 O17 1_555 1_555
C26 C25 1_555 1_555
H42 C26 1_555 1_555
H43 C26 1_555 1_555
C27 C26 1_555 1_555
H44 C27 1_555 1_555
H45 C27 1_555 1_555
H46 C27 1_555 1_555
O19 Tb1 1_555 1_555
O20 Tb1 1_555 1_555
C28 O19 1_555 1_555
C29 C28 1_555 1_555
H47 C29 1_555 1_555
H48 C29 1_555 1_555
C30 C29 1_555 1_555
H49 C30 1_555 1_555
H50 C30 1_555 1_555
H51 C30 1_555 1_555
O21 Tb1 1_555 1_555
O22 C31 1_555 1_555
C31 O21 1_555 1_555
C32 C31 1_555 1_555
H52 C32 1_555 1_555
H53 C32 1_555 1_555
C33 C32 1_555 1_555
H54 C33 1_555 1_555
H55 C33 1_555 1_555
H56 C33 1_555 1_555
O23 Tb1 1_555 1_555
O24 Tb1 1_555 1_555
C34 O23 1_555 1_555
C35 C34 1_555 1_555
H57 C35 1_555 1_555
H58 C35 1_555 1_555
C36 C35 1_555 1_555
H59 C36 1_555 1_555
H60 C36 1_555 1_555
H61 C36 1_555 1_555
O25 Tb1 1_555 1_555
O26 H62 1_555 1_555
C37 O25 1_555 1_555
C38 C37 1_555 1_555
H63 C38 1_555 1_555
H64 C38 1_555 1_555
C39 C38 1_555 1_555
H65 C39 1_555 1_555
H66 C39 1_555 1_555
H67 C39 1_555 1_555
O27 Tb1 1_555 1_555
O28 C40 1_555 1_555
C40 O27 1_555 1_555
C41 C40 1_555 1_555
H68 C41 1_555 1_555
H69 C41 1_555 1_555
C42 C41 1_555 1_555
H70 C42 1_555 1_555
H71 C42 1_555 1_555
H72 C42 1_555 1_555
Tb3_2 O21 1_555 1_555
O21_2 Tb3 1_555 1_555
O22_2 Tb3 1_555 1_555
O23_2 Tb3 1_555 1_555
O28_2 Tb3 1_555 1_555
Tb3 O6 1_555 1_555
Tb4 O11 1_555 1_555
Tb4 O19 1_555 1_555
O4 C4 1_555 1_555
O6 C7 1_555 1_555
O8 C10 1_555 1_555
O10 C13 1_555 1_555
O12 C16 1_555 1_555
O14 C19 1_555 1_555
O16 C22 1_555 1_555
O18 C25 1_555 1_555
O20 C28 1_555 1_555
O22 Tb3_2 1_555 1_555
O23 Tb3_2 1_555 1_555
O24 C34 1_555 1_555
O26 C37 1_555 1_555
O28 Tb3_2 1_555 1_555

#END
