
#######################################################################
#
#                 Cambridge Crystallographic Data Centre
#                                CCDC 
#
#######################################################################
#
# If this CIF has been generated from an entry in the Cambridge 
# Structural Database, then it will include bibliographic, chemical, 
# crystal, experimental, refinement or atomic coordinate data resulting 
# from the CCDC's data processing and validation procedures.
#
#######################################################################

data_UDUNIS
_symmetry_cell_setting           monoclinic
_symmetry_space_group_name_H-M   'C c'
_symmetry_Int_Tables_number      9
_space_group_name_Hall           'C -2yc'
loop_
_symmetry_equiv_pos_site_id
_symmetry_equiv_pos_as_xyz
1 x,y,z
2 x,-y,1/2+z
3 1/2+x,1/2+y,z
4 1/2+x,1/2-y,1/2+z
_cell_length_a                   16.014(2)
_cell_length_b                   16.653(3)
_cell_length_c                   8.4294(10)
_cell_angle_alpha                90
_cell_angle_beta                 116.061(9)
_cell_angle_gamma                90
_cell_volume                     2019.4
loop_
_atom_site_label
_atom_site_type_symbol
_atom_site_fract_x
_atom_site_fract_y
_atom_site_fract_z
Tb1 Tb 0.31848(3) 0.854056(15) 0.33360(3)
Tb2 Tb 0.57055(2) 0.75694(2) 0.59890(3)
O1 O 0.4556(4) 0.8336(4) 0.6222(7)
O2 O 0.2058(5) 0.7731(4) 0.0630(8)
O3 O 0.4184(5) 0.7524(3) 0.3074(9)
O4 O 0.6581(5) 0.6391(4) 0.7797(9)
O5 O 0.2649(5) 0.8839(4) 0.0180(7)
C1 C 0.5666(8) 0.9800(6) 0.2671(16)
H1 H 0.5195 1.0175 0.1960
H2 H 0.5908 0.9532 0.1954
H3 H 0.6159 1.0081 0.3612
O6 O 0.6613(5) 0.8272(5) 0.8467(9)
O7 O 0.5220(5) 0.6647(5) 0.7637(12)
O8 O 0.5791(5) 0.8651(4) 0.4435(10)
C2 C 0.3670(11) 0.6332(8) 0.135(2)
H4 H 0.3909 0.5801 0.1378
H5 H 0.3557 0.6585 0.0250
H6 H 0.3099 0.6301 0.1458
C3 C 0.2180(6) 0.8214(5) -0.0416(10)
O9 O 0.7963(5) 0.7635(4) 0.9622(9)
C4 C 0.5893(6) 0.6185(4) 0.8072(11)
O10 O 0.3382(4) 0.8927(3) 0.6347(8)
C5 C 0.4360(7) 0.6812(5) 0.2839(11)
O11 O 0.4410(4) 0.9230(4) 0.3078(8)
C6 C 0.7433(6) 0.8212(4) 0.9582(10)
C7 C 0.1749(9) 0.8036(8) -0.2358(12)
H7 H 0.1926 0.8444 -0.2956
H8 H 0.1085 0.8028 -0.2809
H9 H 0.1961 0.7522 -0.2550
C8 C 0.5248(6) 0.9187(4) 0.3438(10)
C9 C 0.5886(9) 0.5389(7) 0.8886(18)
H10 H 0.6455 0.5109 0.9136
H11 H 0.5370 0.5077 0.8081
H12 H 0.5830 0.5469 0.9963
C10 C 0.4137(6) 0.8565(4) 0.7112(9)
C11 C 0.4554(9) 0.8378(8) 0.9048(11)
H13 H 0.4155 0.8578 0.9537
H14 H 0.5153 0.8628 0.9631
H15 H 0.4621 0.7807 0.9215
O12 O 0.5140(6) 0.6509(5) 0.3874(12)
C12 C 0.7855(10) 0.8845(8) 1.0959(18)
H16 H 0.7402 0.9255 1.0792
H17 H 0.8379 0.9077 1.0863
H18 H 0.8055 0.8610 1.2108
O13 O 0.2891(4) 0.9944(3) 0.3187(8)
H19 H 0.270(6) 1.026(4) 0.373(11)
H20 H 0.320(5) 1.018(4) 0.275(10)
Tb1C Tb 0.81848(3) 0.645944(15) 0.83360(3)
Tb2C Tb 0.07055(2) 0.74306(2) 0.09890(3)
O2C O 0.7058(5) 0.7269(4) 0.5630(8)
O4C O 0.1581(5) 0.8609(4) 0.2797(9)
O9C O 0.2963(5) 0.7365(4) 0.4622(9)
loop_
_geom_bond_atom_site_label_1
_geom_bond_atom_site_label_2
_geom_bond_site_symmetry_1
_geom_bond_site_symmetry_2
Tb1 O1 1_555 1_555
Tb2 O1 1_555 1_555
O1 C10 1_555 1_555
O2 Tb1 1_555 1_555
O3 Tb1 1_555 1_555
O4 Tb2 1_555 1_555
O5 Tb1 1_555 1_555
C1 H1 1_555 1_555
H2 C1 1_555 1_555
H3 C1 1_555 1_555
O6 Tb2 1_555 1_555
O7 Tb2 1_555 1_555
O8 Tb2 1_555 1_555
C2 H4 1_555 1_555
H5 C2 1_555 1_555
H6 C2 1_555 1_555
C3 O2 1_555 1_555
O9 C6 1_555 1_555
C4 O4 1_555 1_555
O10 Tb1 1_555 1_555
C5 O3 1_555 1_555
O11 Tb1 1_555 1_555
C6 O6 1_555 1_555
C7 C3 1_555 1_555
H7 C7 1_555 1_555
H8 C7 1_555 1_555
H9 C7 1_555 1_555
C8 C1 1_555 1_555
C9 C4 1_555 1_555
H10 C9 1_555 1_555
H11 C9 1_555 1_555
H12 C9 1_555 1_555
C10 O10 1_555 1_555
C11 C10 1_555 1_555
H13 C11 1_555 1_555
H14 C11 1_555 1_555
H15 C11 1_555 1_555
O12 Tb2 1_555 1_555
C12 C6 1_555 1_555
H16 C12 1_555 1_555
H17 C12 1_555 1_555
H18 C12 1_555 1_555
O13 Tb1 1_555 1_555
H19 O13 1_555 1_555
H20 O13 1_555 1_555
Tb1C O4 1_555 1_555
Tb2C O2 1_555 1_555
O2C Tb2 1_555 1_555
O4C Tb1 1_555 1_555
O9C Tb1 1_555 1_555
Tb2 O3 1_555 1_555
O5 C3 1_555 1_555
O7 C4 1_555 1_555
O8 C8 1_555 1_555
C2 C5 1_555 1_555
O9 Tb1C 1_555 1_555
C5 O12 1_555 1_555
O11 C8 1_555 1_555
Tb1C O2C 1_555 1_555
Tb2C O4C 1_555 1_555

#END
