
#######################################################################
#
#                 Cambridge Crystallographic Data Centre
#                                CCDC 
#
#######################################################################
#
# If this CIF has been generated from an entry in the Cambridge 
# Structural Database, then it will include bibliographic, chemical, 
# crystal, experimental, refinement or atomic coordinate data resulting 
# from the CCDC's data processing and validation procedures.
#
#######################################################################

data_UDUNEM
_symmetry_cell_setting           monoclinic
_symmetry_space_group_name_H-M   'C 2/c'
_symmetry_Int_Tables_number      15
_space_group_name_Hall           '-C 2yn'
loop_
_symmetry_equiv_pos_site_id
_symmetry_equiv_pos_as_xyz
1 x,y,z
2 1/2+x,1/2+y,z
3 x,-y,1/2+z
4 1/2+x,1/2-y,1/2+z
5 -x,-y,-z
6 1/2-x,1/2-y,-z
7 -x,y,1/2-z
8 1/2-x,1/2+y,1/2-z
_cell_length_a                   20.9996(12)
_cell_length_b                   7.9149(7)
_cell_length_c                   22.6724(15)
_cell_angle_alpha                90
_cell_angle_beta                 111.24(3)
_cell_angle_gamma                90
_cell_volume                     3512.39
loop_
_atom_site_label
_atom_site_type_symbol
_atom_site_fract_x
_atom_site_fract_y
_atom_site_fract_z
Rh1 Rh 0.281668(18) 0.64225(5) 0.036071(17)
O1 O 0.19255(16) 0.5105(5) 0.01147(15)
O2 O 0.25756(17) 0.7603(5) 0.10480(15)
O3 O 0.19737(16) 0.9637(5) 0.03729(15)
O4 O 0.13246(16) 0.7134(5) -0.05679(15)
N1 N 0.3345(2) 0.4281(5) 0.10249(19)
N2 N 0.3340(2) 0.1574(6) 0.13347(19)
N3 N 0.39517(19) 0.2342(6) 0.16637(18)
N4 N 0.5000 0.2283(8) 0.2500
C1 C 0.2996(3) 0.2785(7) 0.0966(2)
H1 H 0.2540 0.2643 0.0679
C2 C 0.3944(2) 0.3953(7) 0.1467(2)
H2 H 0.4312 0.4730 0.1623
C3 C 0.4488(2) 0.1363(7) 0.2106(2)
C4 C 0.4449(3) -0.0355(7) 0.2080(2)
H3 H 0.4064 -0.0924 0.1790
C5 C 0.5000 -0.1235(10) 0.2500
H4 H 0.5000 -0.2435 0.2500
C6 C 0.1379(2) 0.5714(7) -0.0293(2)
C7 C 0.0757(2) 0.4634(7) -0.0453(2)
C8 C 0.0821(3) 0.2926(7) -0.0296(2)
H5 H 0.1261 0.2463 -0.0076
C9 C 0.0249(3) 0.1889(8) -0.0457(3)
H6 H 0.0298 0.0720 -0.0355
C10 C -0.0391(3) 0.2573(10) -0.0765(3)
H7 H -0.0784 0.1873 -0.0874
C11 C -0.0462(3) 0.4272(10) -0.0917(3)
H8 H -0.0905 0.4733 -0.1123
C12 C 0.0108(3) 0.5315(8) -0.0771(3)
H9 H 0.0057 0.6475 -0.0887
C13 C 0.2193(2) 0.8905(7) 0.0913(2)
C14 C 0.1974(2) 0.9611(7) 0.1423(2)
C15 C 0.2152(3) 0.8762(8) 0.1997(3)
H10 H 0.2424 0.7770 0.2068
C16 C 0.1931(3) 0.9366(10) 0.2466(3)
H11 H 0.2056 0.8787 0.2858
C17 C 0.1534(3) 1.0788(8) 0.2366(3)
H12 H 0.1386 1.1194 0.2690
C18 C 0.1350(3) 1.1632(8) 0.1795(3)
H13 H 0.1072 1.2614 0.1724
C19 C 0.1570(3) 1.1043(8) 0.1328(3)
H14 H 0.1444 1.1629 0.0936
C3F C 0.5512(2) 0.1363(7) 0.2894(2)
N3F N 0.60483(19) 0.2342(6) 0.33363(18)
N2F N 0.6660(2) 0.1574(6) 0.36653(19)
C1F C 0.7004(3) 0.2785(7) 0.4034(2)
N1F N 0.6655(2) 0.4281(5) 0.39751(19)
C2F C 0.6056(2) 0.3953(7) 0.3533(2)
H2F H 0.5688 0.4730 0.3377
H1F H 0.7460 0.2643 0.4321
C4F C 0.5551(3) -0.0355(7) 0.2920(2)
H3F H 0.5936 -0.0924 0.3210
O2E O 0.24244(17) 0.7397(5) -0.10480(15)
O3E O 0.30263(16) 0.5363(5) -0.03729(15)
C13E C 0.2807(2) 0.6095(7) -0.0913(2)
C14E C 0.3026(2) 0.5389(7) -0.1423(2)
C15E C 0.2848(3) 0.6238(8) -0.1997(3)
H10E H 0.2576 0.7230 -0.2068
C16E C 0.3069(3) 0.5634(10) -0.2466(3)
H11E H 0.2944 0.6213 -0.2858
C17E C 0.3466(3) 0.4212(8) -0.2366(3)
H12E H 0.3614 0.3806 -0.2690
C18E C 0.3650(3) 0.3368(8) -0.1795(3)
H13E H 0.3928 0.2386 -0.1724
C19E C 0.3430(3) 0.3957(8) -0.1328(3)
H14E H 0.3556 0.3371 -0.0936
O1E O 0.30745(16) 0.9895(5) -0.01147(15)
O4E O 0.36754(16) 0.7866(5) 0.05679(15)
C6E C 0.3621(2) 0.9286(7) 0.0293(2)
C7E C 0.4243(2) 1.0366(7) 0.0453(2)
C8E C 0.4179(3) 1.2074(7) 0.0296(2)
H5E H 0.3739 1.2537 0.0076
C9E C 0.4751(3) 1.3111(8) 0.0457(3)
H6E H 0.4702 1.4280 0.0355
C10E C 0.5391(3) 1.2427(10) 0.0765(3)
H7E H 0.5784 1.3127 0.0874
C11E C 0.5462(3) 1.0728(10) 0.0917(3)
H8E H 0.5905 1.0267 0.1123
C12E C 0.4892(3) 0.9685(8) 0.0771(3)
H9E H 0.4943 0.8525 0.0887
Rh1E Rh 0.218332(18) 0.85775(5) -0.036071(17)
Rh1F Rh 0.718332(18) 0.64225(5) 0.463929(17)
N1E N 0.1655(2) 1.0719(5) -0.10249(19)
loop_
_geom_bond_atom_site_label_1
_geom_bond_atom_site_label_2
_geom_bond_site_symmetry_1
_geom_bond_site_symmetry_2
Rh1 O1 1_555 1_555
O1 C6 1_555 1_555
O2 Rh1 1_555 1_555
O3 C13 1_555 1_555
O4 C6 1_555 1_555
N1 Rh1 1_555 1_555
N2 N3 1_555 1_555
N3 C2 1_555 1_555
N4 C3 1_555 1_555
C1 N1 1_555 1_555
H1 C1 1_555 1_555
C2 N1 1_555 1_555
H2 C2 1_555 1_555
C3 N3 1_555 1_555
C4 C3 1_555 1_555
H3 C4 1_555 1_555
C5 C4 1_555 1_555
H4 C5 1_555 1_555
C6 C7 1_555 1_555
C7 C8 1_555 1_555
C8 H5 1_555 1_555
C9 C8 1_555 1_555
H6 C9 1_555 1_555
C10 C9 1_555 1_555
H7 C10 1_555 1_555
C11 C10 1_555 1_555
H8 C11 1_555 1_555
C12 C7 1_555 1_555
H9 C12 1_555 1_555
C13 O2 1_555 1_555
C14 C13 1_555 1_555
C15 C14 1_555 1_555
H10 C15 1_555 1_555
C16 C15 1_555 1_555
H11 C16 1_555 1_555
C17 C16 1_555 1_555
H12 C17 1_555 1_555
C18 C17 1_555 1_555
H13 C18 1_555 1_555
C19 C14 1_555 1_555
H14 C19 1_555 1_555
C3F N4 1_555 1_555
N3F C3F 1_555 1_555
N2F N3F 1_555 1_555
C1F N2F 1_555 1_555
N1F C1F 1_555 1_555
C2F N3F 1_555 1_555
H2F C2F 1_555 1_555
H1F C1F 1_555 1_555
C4F C5 1_555 1_555
H3F C4F 1_555 1_555
O2E C13E 1_555 1_555
O3E Rh1 1_555 1_555
C13E O3E 1_555 1_555
C14E C13E 1_555 1_555
C15E C14E 1_555 1_555
H10E C15E 1_555 1_555
C16E C15E 1_555 1_555
H11E C16E 1_555 1_555
C17E C16E 1_555 1_555
H12E C17E 1_555 1_555
C18E C17E 1_555 1_555
H13E C18E 1_555 1_555
C19E C14E 1_555 1_555
H14E C19E 1_555 1_555
O1E C6E 1_555 1_555
O4E Rh1 1_555 1_555
C6E O4E 1_555 1_555
C7E C6E 1_555 1_555
C8E C7E 1_555 1_555
H5E C8E 1_555 1_555
C9E C8E 1_555 1_555
H6E C9E 1_555 1_555
C10E C9E 1_555 1_555
H7E C10E 1_555 1_555
C11E C10E 1_555 1_555
H8E C11E 1_555 1_555
C12E C7E 1_555 1_555
H9E C12E 1_555 1_555
Rh1E Rh1 1_555 1_555
Rh1F N1F 1_555 1_555
N1E Rh1E 1_555 1_555
O3 Rh1E 1_555 1_555
O4 Rh1E 1_555 1_555
N2 C1 1_555 1_555
C11 C12 1_555 1_555
C18 C19 1_555 1_555
C3F C4F 1_555 1_555
N1F C2F 1_555 1_555
O2E Rh1E 1_555 1_555
C18E C19E 1_555 1_555
O1E Rh1E 1_555 1_555
C11E C12E 1_555 1_555

#END
