
#######################################################################
#
#                 Cambridge Crystallographic Data Centre
#                                CCDC 
#
#######################################################################
#
# If this CIF has been generated from an entry in the Cambridge 
# Structural Database, then it will include bibliographic, chemical, 
# crystal, experimental, refinement or atomic coordinate data resulting 
# from the CCDC's data processing and validation procedures.
#
#######################################################################

data_UDUNAI
_symmetry_cell_setting           monoclinic
_symmetry_space_group_name_H-M   'C 2/c'
_symmetry_Int_Tables_number      15
_space_group_name_Hall           '-C 2yn'
loop_
_symmetry_equiv_pos_site_id
_symmetry_equiv_pos_as_xyz
1 x,y,z
2 1/2+x,1/2+y,z
3 x,-y,1/2+z
4 1/2+x,1/2-y,1/2+z
5 -x,-y,-z
6 1/2-x,1/2-y,-z
7 -x,y,1/2-z
8 1/2-x,1/2+y,1/2-z
_cell_length_a                   16.1055(10)
_cell_length_b                   22.3797(10)
_cell_length_c                   8.2944(10)
_cell_angle_alpha                90
_cell_angle_beta                 112.381(10)
_cell_angle_gamma                90
_cell_volume                     2764.4
loop_
_atom_site_label
_atom_site_type_symbol
_atom_site_fract_x
_atom_site_fract_y
_atom_site_fract_z
Rh1 Rh 0.23079(4) 0.20340(3) 0.54653(7)
O1 O 0.1709(4) 0.1808(2) 0.2912(7)
O2 O 0.2077(4) 0.2682(2) 0.2036(6)
O3 O 0.1150(4) 0.2427(3) 0.5398(7)
O4 O 0.1519(4) 0.3297(2) 0.4524(7)
C1 C 0.1010(6) 0.2971(4) 0.4962(11)
C2 C 0.1744(5) 0.2167(3) 0.1760(10)
C3 C 0.1359(8) 0.1946(4) -0.0090(11)
H1 H 0.1131 0.1548 -0.0116
H2 H 0.1820 0.1943 -0.0558
H3 H 0.0881 0.2205 -0.0777
C4 C 0.0186(7) 0.3262(5) 0.5038(15)
H4 H -0.0153 0.2973 0.5385
H5 H -0.0176 0.3417 0.3908
H6 H 0.0360 0.3584 0.5868
N1 N 0.1976(4) 0.1143(3) 0.6285(7)
C5 C 0.1277(5) 0.0993(3) 0.6625(8)
H7 H 0.0839 0.1256 0.6669
N2 N 0.1281(4) 0.0406(2) 0.6898(7)
N3 N 0.2003(5) 0.0157(3) 0.6700(10)
C6 C 0.2380(6) 0.0614(4) 0.6335(12)
H8 H 0.2903 0.0581 0.6116
C7 C 0.0629(4) 0.0047(3) 0.7227(8)
C8 C 0.0675(5) -0.0564(3) 0.7231(8)
H9 H 0.1141 -0.0764 0.7060
C9 C 0.0000 -0.0865(4) 0.7500
H10 H 0.0000 -0.1281 0.7500
N4 N 0.0000 0.0365(3) 0.7500
C8F C -0.0675(5) -0.0564(3) 0.7769(8)
C7F C -0.0629(4) 0.0047(3) 0.7773(8)
N2F N -0.1281(4) 0.0406(2) 0.8102(7)
C5F C -0.1277(5) 0.0993(3) 0.8375(8)
N1F N -0.1976(4) 0.1143(3) 0.8715(7)
C6F C -0.2380(6) 0.0614(4) 0.8665(12)
N3F N -0.2003(5) 0.0157(3) 0.8300(10)
H8F H -0.2903 0.0581 0.8884
H7F H -0.0839 0.1256 0.8331
H9F H -0.1141 -0.0764 0.7940
O1E O 0.3291(4) 0.3192(2) 0.7088(7)
O2E O 0.2923(4) 0.2318(2) 0.7964(6)
C2E C 0.3256(5) 0.2833(3) 0.8240(10)
C3E C 0.3641(8) 0.3054(4) 1.0090(11)
H1E H 0.3869 0.3452 1.0116
H2E H 0.3180 0.3057 1.0558
H3E H 0.4119 0.2795 1.0777
O3E O 0.3850(4) 0.2573(3) 0.4602(7)
O4E O 0.3481(4) 0.1703(2) 0.5476(7)
C1E C 0.3990(6) 0.2029(4) 0.5038(11)
C4E C 0.4814(7) 0.1738(5) 0.4962(15)
H4E H 0.5153 0.2027 0.4615
H5E H 0.5176 0.1583 0.6092
H6E H 0.4640 0.1416 0.4132
Rh1E Rh 0.26921(4) 0.29660(3) 0.45347(7)
Rh1F Rh -0.23079(4) 0.20340(3) 0.95347(7)
N1E N 0.3024(4) 0.3857(3) 0.3715(7)
loop_
_geom_bond_atom_site_label_1
_geom_bond_atom_site_label_2
_geom_bond_site_symmetry_1
_geom_bond_site_symmetry_2
Rh1 O1 1_555 1_555
O1 C2 1_555 1_555
O2 C2 1_555 1_555
O3 Rh1 1_555 1_555
O4 C1 1_555 1_555
C1 O3 1_555 1_555
C2 C3 1_555 1_555
C3 H1 1_555 1_555
H2 C3 1_555 1_555
H3 C3 1_555 1_555
C4 C1 1_555 1_555
H4 C4 1_555 1_555
H5 C4 1_555 1_555
H6 C4 1_555 1_555
N1 Rh1 1_555 1_555
C5 N1 1_555 1_555
H7 C5 1_555 1_555
N2 C5 1_555 1_555
N3 N2 1_555 1_555
C6 N1 1_555 1_555
H8 C6 1_555 1_555
C7 N2 1_555 1_555
C8 C7 1_555 1_555
H9 C8 1_555 1_555
C9 C8 1_555 1_555
H10 C9 1_555 1_555
N4 C7 1_555 1_555
C8F C9 1_555 1_555
C7F N4 1_555 1_555
N2F C7F 1_555 1_555
C5F N2F 1_555 1_555
N1F C5F 1_555 1_555
C6F N1F 1_555 1_555
N3F N2F 1_555 1_555
H8F C6F 1_555 1_555
H7F C5F 1_555 1_555
H9F C8F 1_555 1_555
O1E C2E 1_555 1_555
O2E Rh1 1_555 1_555
C2E O2E 1_555 1_555
C3E C2E 1_555 1_555
H1E C3E 1_555 1_555
H2E C3E 1_555 1_555
H3E C3E 1_555 1_555
O3E C1E 1_555 1_555
O4E Rh1 1_555 1_555
C1E O4E 1_555 1_555
C4E C1E 1_555 1_555
H4E C4E 1_555 1_555
H5E C4E 1_555 1_555
H6E C4E 1_555 1_555
Rh1E Rh1 1_555 1_555
Rh1F N1F 1_555 1_555
N1E Rh1E 1_555 1_555
O2 Rh1E 1_555 1_555
O4 Rh1E 1_555 1_555
N3 C6 1_555 1_555
C8F C7F 1_555 1_555
C6F N3F 1_555 1_555
O1E Rh1E 1_555 1_555
O3E Rh1E 1_555 1_555

#END
