
#######################################################################
#
#                 Cambridge Crystallographic Data Centre
#                                CCDC 
#
#######################################################################
#
# If this CIF has been generated from an entry in the Cambridge 
# Structural Database, then it will include bibliographic, chemical, 
# crystal, experimental, refinement or atomic coordinate data resulting 
# from the CCDC's data processing and validation procedures.
#
#######################################################################

data_UDUVUL
_symmetry_cell_setting           orthorhombic
_symmetry_space_group_name_H-M   'P b c a'
_symmetry_Int_Tables_number      61
_space_group_name_Hall           '-P 2ac 2ab'
loop_
_symmetry_equiv_pos_site_id
_symmetry_equiv_pos_as_xyz
1 x,y,z
2 1/2-x,-y,1/2+z
3 1/2+x,1/2-y,-z
4 -x,1/2+y,1/2-z
5 -x,-y,-z
6 1/2+x,y,1/2-z
7 1/2-x,1/2+y,z
8 x,1/2-y,1/2+z
_cell_length_a                   6.1458(3)
_cell_length_b                   8.2749(4)
_cell_length_c                   24.2995(11)
_cell_angle_alpha                90
_cell_angle_beta                 90
_cell_angle_gamma                90
_cell_volume                     1235.77
loop_
_atom_site_label
_atom_site_type_symbol
_atom_site_fract_x
_atom_site_fract_y
_atom_site_fract_z
S1 S -0.11102(11) 0.24713(8) 0.69546(2)
H1 H -0.182(6) 0.253(4) 0.6475(12)
C1 C 0.0621(4) 0.0714(3) 0.68613(8)
H2 H 0.142(4) 0.057(3) 0.7234(11)
H3 H -0.029(5) -0.023(4) 0.6839(11)
C2 C 0.2284(3) 0.0829(2) 0.63964(7)
H4 H 0.293(4) 0.187(3) 0.6382(9)
H5 H 0.340(4) 0.001(3) 0.6436(9)
S2 S 0.11652(7) 0.04671(5) 0.573398(17)
O1 O -0.0356(2) 0.17785(15) 0.56133(5)
O2 O 0.3006(2) 0.05000(15) 0.53498(5)
O3 O 0.0128(2) -0.11106(16) 0.57597(5)
Na1 Na -0.37169(11) 0.18754(9) 0.51844(3)
O1B O -0.5356(2) 0.32215(15) 0.43867(5)
O2_2 O -0.6994(2) 0.05000(15) 0.53498(5)
O2D O -0.3006(2) -0.05000(15) 0.46502(5)
O2B O -0.1994(2) 0.45000(15) 0.46502(5)
O3F O -0.5128(2) 0.38894(16) 0.57597(5)
Na1B Na 0.12831(11) 0.31246(9) 0.48156(3)
Na1_2 Na 0.62831(11) 0.18754(9) 0.51844(3)
Na1D Na 0.37169(11) -0.18754(9) 0.48156(3)
Na1F Na -0.12831(11) -0.31246(9) 0.51844(3)
loop_
_geom_bond_atom_site_label_1
_geom_bond_atom_site_label_2
_geom_bond_site_symmetry_1
_geom_bond_site_symmetry_2
S1 H1 1_555 1_555
C1 S1 1_555 1_555
H2 C1 1_555 1_555
H3 C1 1_555 1_555
C2 C1 1_555 1_555
H4 C2 1_555 1_555
H5 C2 1_555 1_555
S2 C2 1_555 1_555
O1 S2 1_555 1_555
O2 S2 1_555 1_555
O3 S2 1_555 1_555
Na1 O1 1_555 1_555
O1B Na1 1_555 1_555
O2_2 Na1 1_555 1_555
O2D Na1 1_555 1_555
O2B Na1 1_555 1_555
O3F Na1 1_555 1_555
Na1B O1 1_555 1_555
Na1_2 O2 1_555 1_555
Na1D O2 1_555 1_555
Na1F O3 1_555 1_555
O2 Na1B 1_555 1_555
O2D Na1F 1_555 1_555
O2B Na1B 1_555 1_555

#END
