
#######################################################################
#
#                 Cambridge Crystallographic Data Centre
#                                CCDC 
#
#######################################################################
#
# If this CIF has been generated from an entry in the Cambridge 
# Structural Database, then it will include bibliographic, chemical, 
# crystal, experimental, refinement or atomic coordinate data resulting 
# from the CCDC's data processing and validation procedures.
#
#######################################################################

data_UDUXAT
_symmetry_cell_setting           monoclinic
_symmetry_space_group_name_H-M   'C 2/c'
_symmetry_Int_Tables_number      15
_space_group_name_Hall           '-C 2yn'
loop_
_symmetry_equiv_pos_site_id
_symmetry_equiv_pos_as_xyz
1 x,y,z
2 1/2+x,1/2+y,z
3 -x,y,1/2-z
4 1/2-x,1/2+y,1/2-z
5 -x,-y,-z
6 1/2-x,1/2-y,-z
7 x,-y,1/2+z
8 1/2+x,1/2-y,1/2+z
_cell_length_a                   9.7390(4)
_cell_length_b                   23.8590(10)
_cell_length_c                   8.5312(4)
_cell_angle_alpha                90
_cell_angle_beta                 114.7320(10)
_cell_angle_gamma                90
_cell_volume                     1800.5
loop_
_atom_site_label
_atom_site_type_symbol
_atom_site_fract_x
_atom_site_fract_y
_atom_site_fract_z
La1 La 0.5000 0.506465(9) 0.7500
Ni1 Ni 0.5000 0.33859(2) 0.2500
O1 O 0.3730(3) 0.41760(9) 0.5855(3)
O2 O 0.4288(2) 0.40194(9) 0.3602(3)
O3 O 0.2951(3) 0.33494(9) 0.0435(3)
O4 O 0.0546(3) 0.31396(11) -0.0226(4)
O5 O 0.6443(2) 0.47668(9) 0.5902(3)
O6 O 0.7921(2) 0.45955(9) 0.4593(3)
N1 N 0.3913(3) 0.28968(10) 0.3677(3)
H3 H 0.4419 0.2584 0.4068
N2 N 1.0000 0.40180(15) 0.7500
H4 H 0.9617 0.3800 0.6587
H5 H 1.0383 0.3800 0.8413
C1 C 0.3964(3) 0.38654(12) 0.4834(4)
C2 C 0.3938(4) 0.32364(13) 0.5123(4)
H6 H 0.3035 0.3145 0.5327
H7 H 0.4842 0.3134 0.6176
C3 C 0.2385(4) 0.27687(14) 0.2375(4)
H8 H 0.2335 0.2367 0.2064
H9 H 0.1652 0.2833 0.2883
C4 C 0.1924(4) 0.31198(13) 0.0741(4)
C5 C 0.7663(3) 0.45831(12) 0.5895(4)
C6 C 0.8756(3) 0.43440(13) 0.7608(4)
H10 H 0.9192 0.4656 0.8434
H11 H 0.8191 0.4100 0.8070
La1F La 0.5000 0.493535(9) 0.2500
La1_2 La 1.5000 0.506465(9) 0.7500
La1F_2 La 1.5000 0.493535(9) 1.2500
La1F_3 La 0.5000 0.493535(9) 1.2500
Ni1_2 Ni 0.5000 0.33859(2) 1.2500
O1B O 0.6270(3) 0.41760(9) 0.9145(3)
O2B O 0.5712(2) 0.40194(9) 1.1398(3)
O2F O 0.4288(2) 0.59806(9) 0.8602(3)
O2D O 0.5712(2) 0.59806(9) 0.6398(3)
O2B_2 O 0.5712(2) 0.40194(9) 0.1398(3)
O3B O 0.7049(3) 0.33494(9) 1.4565(3)
O3B_2 O 0.7049(3) 0.33494(9) 0.4565(3)
O4B O 0.9454(3) 0.31396(11) 1.5226(4)
O5B O 1.3557(2) 0.47668(9) 0.9098(3)
O5F O 0.6443(2) 0.52332(9) 1.0902(3)
O5D O 0.3557(2) 0.52332(9) 0.4098(3)
O5B_2 O 0.3557(2) 0.47668(9) 0.9098(3)
O6B O 1.2079(2) 0.45955(9) 1.0407(3)
O6F O 0.7921(2) 0.54045(9) 0.9593(3)
O6D O 0.2079(2) 0.54045(9) 0.5407(3)
N1B N 0.6087(3) 0.28968(10) 1.1323(3)
N1B_2 N 0.6087(3) 0.28968(10) 0.1323(3)
H3B H 0.5581 0.2584 1.0932
H3B_2 H 0.5581 0.2584 0.0932
C1B C 0.6036(3) 0.38654(12) 1.0166(4)
C2B C 0.6062(4) 0.32364(13) 0.9877(4)
H6B H 0.6965 0.3145 0.9673
H7B H 0.5158 0.3134 0.8824
C3B C 0.7615(4) 0.27687(14) 1.2625(4)
H8B H 0.7665 0.2367 1.2936
H9B H 0.8348 0.2833 1.2117
C4B C 0.8076(4) 0.31198(13) 1.4259(4)
C5B C 1.2337(3) 0.45831(12) 0.9105(4)
C6B C 1.1244(3) 0.43440(13) 0.7392(4)
H10B H 1.0808 0.4656 0.6566
H11B H 1.1809 0.4100 0.6930
O7 O 0.958(3) 0.4153(7) 0.255(4)
H2 H 1.0410 0.4162 0.2436
H1? H 0.9572 0.4361 0.3381
loop_
_geom_bond_atom_site_label_1
_geom_bond_atom_site_label_2
_geom_bond_site_symmetry_1
_geom_bond_site_symmetry_2
La1 O1 1_555 1_555
Ni1 O2 1_555 1_555
O1 C1 1_555 1_555
O2 C1 1_555 1_555
O3 Ni1 1_555 1_555
O4 C4 1_555 1_555
O5 La1 1_555 1_555
O6 C5 1_555 1_555
O7 H2 1_555 1_555
N1 Ni1 1_555 1_555
H3 N1 1_555 1_555
N2 H4 1_555 1_555
H5 N2 1_555 1_555
C1 C2 1_555 1_555
C2 N1 1_555 1_555
H6 C2 1_555 1_555
H7 C2 1_555 1_555
C3 N1 1_555 1_555
H8 C3 1_555 1_555
H9 C3 1_555 1_555
C4 O3 1_555 1_555
C5 O5 1_555 1_555
C6 N2 1_555 1_555
H10 C6 1_555 1_555
H11 C6 1_555 1_555
La1F O2 1_555 1_555
La1_2 O5B 1_555 1_555
La1F_2 O5B 1_555 1_555
La1F_3 O2B 1_555 1_555
Ni1_2 O2B 1_555 1_555
O1B La1 1_555 1_555
O2B C1B 1_555 1_555
O2F La1 1_555 1_555
O2D La1 1_555 1_555
O2B_2 Ni1 1_555 1_555
O3B Ni1_2 1_555 1_555
O3B_2 Ni1 1_555 1_555
O4B C4B 1_555 1_555
O5B C5B 1_555 1_555
O5F La1 1_555 1_555
O5D La1 1_555 1_555
O5B_2 La1 1_555 1_555
O6B La1F_2 1_555 1_555
O6F La1 1_555 1_555
O6D La1 1_555 1_555
N1B Ni1_2 1_555 1_555
N1B_2 Ni1 1_555 1_555
H3B N1B 1_555 1_555
H3B_2 N1B_2 1_555 1_555
C1B O1B 1_555 1_555
C2B N1B 1_555 1_555
H6B C2B 1_555 1_555
H7B C2B 1_555 1_555
C3B N1B 1_555 1_555
H8B C3B 1_555 1_555
H9B C3B 1_555 1_555
C4B O3B 1_555 1_555
C5B O6B 1_555 1_555
C6B N2 1_555 1_555
H10B C6B 1_555 1_555
H11B C6B 1_555 1_555
O5 La1F 1_555 1_555
O6 La1F 1_555 1_555
C3 C4 1_555 1_555
C5 C6 1_555 1_555
La1F O2B_2 1_555 1_555
La1F O5D 1_555 1_555
La1F_3 O5F 1_555 1_555
La1F_3 O5B_2 1_555 1_555
C1B C2B 1_555 1_555
C3B C4B 1_555 1_555
C5B C6B 1_555 1_555

#END
