
#######################################################################
#
#                 Cambridge Crystallographic Data Centre
#                                CCDC 
#
#######################################################################
#
# If this CIF has been generated from an entry in the Cambridge 
# Structural Database, then it will include bibliographic, chemical, 
# crystal, experimental, refinement or atomic coordinate data resulting 
# from the CCDC's data processing and validation procedures.
#
#######################################################################

data_UDUXOG01
_symmetry_cell_setting           monoclinic
_symmetry_space_group_name_H-M   'C 2/c'
_symmetry_Int_Tables_number      15
_space_group_name_Hall           '-C 2yn'
loop_
_symmetry_equiv_pos_site_id
_symmetry_equiv_pos_as_xyz
1 x,y,z
2 1/2+x,1/2+y,z
3 -x,y,1/2-z
4 1/2-x,1/2+y,1/2-z
5 -x,-y,-z
6 1/2-x,1/2-y,-z
7 x,-y,1/2+z
8 1/2+x,1/2-y,1/2+z
_cell_length_a                   25.9907(8)
_cell_length_b                   16.5992(3)
_cell_length_c                   22.8473(7)
_cell_angle_alpha                90
_cell_angle_beta                 93.4370(10)
_cell_angle_gamma                90
_cell_volume                     9839.16
loop_
_atom_site_label
_atom_site_type_symbol
_atom_site_fract_x
_atom_site_fract_y
_atom_site_fract_z
Mo1 Mo 0.14832(2) -0.42483(3) 0.01712(2)
Mo2 Mo 0.15582(2) -0.37949(4) 0.15909(2)
Mo3 Mo 0.23989(2) -0.46867(3) 0.05927(2)
Mo4 Mo 0.26925(2) -0.43415(4) 0.21446(2)
Mo5 Mo 0.34984(2) -0.51547(3) 0.12318(3)
Mo6 Mo 0.37479(2) -0.37997(3) 0.02881(2)
Mo7 Mo 0.39855(2) -0.34647(4) 0.18306(2)
Mo8 Mo 0.42633(2) -0.20139(4) 0.09473(3)
Mo9 Mo 0.39536(2) -0.26213(3) -0.04156(2)
Na1 Na 0.2500 -0.2500 0.0000
Na2 Na 0.07268(12) 0.05431(19) 0.08061(13)
Na3 Na 0.03759(13) -0.1109(2) 0.16775(14)
Na4 Na 0.0000 -0.2613(9) 0.2500
Na5 Na 0.30754(15) -0.2211(2) 0.28274(16)
Na6 Na 0.3499(4) -0.1312(5) 0.3990(5)
O1 O 0.21725(17) -0.3851(3) 0.00309(19)
O2 O 0.13708(19) -0.4967(3) -0.0342(2)
O3 O 0.14456(17) -0.3289(3) 0.08349(19)
O4 O 0.38253(17) -0.1724(3) 0.02666(19)
O5 O 0.06995(18) -0.4410(3) 0.0420(2)
O6 O 0.16945(17) -0.4799(3) 0.0910(2)
O7 O 0.23721(17) -0.3733(3) 0.13351(19)
O8 O 0.19569(18) -0.4542(3) 0.2078(2)
O9 O 0.1601(2) -0.2945(3) 0.2017(2)
O10 O 0.0965(2) -0.4180(3) 0.1710(2)
O11 O 0.31274(16) -0.4315(3) 0.05776(19)
O12 O 0.27618(17) -0.5201(3) 0.13669(19)
O13 O 0.24306(19) -0.5539(3) 0.0195(2)
O14 O 0.33544(17) -0.4115(3) 0.18099(19)
O15 O 0.2705(2) -0.3496(3) 0.2576(2)
O16 O 0.2861(2) -0.5115(3) 0.2613(2)
O17 O 0.40364(17) -0.4377(3) 0.10788(19)
O18 O 0.3549(2) -0.5860(3) 0.0684(2)
O19 O 0.3765(2) -0.5638(3) 0.1839(2)
O20 O 0.36440(17) -0.2916(3) 0.10357(19)
O21 O 0.33054(17) -0.3125(3) -0.02205(19)
O22 O 0.43547(16) -0.3041(3) 0.02846(19)
O23 O 0.39639(19) -0.4533(3) -0.0144(2)
O24 O 0.4384(2) -0.4068(3) 0.2270(2)
O25 O 0.3760(2) -0.2760(3) 0.2290(2)
O26 O 0.45240(18) -0.2841(3) 0.1491(2)
O27 O 0.4028(2) -0.1349(3) 0.1430(2)
O28 O 0.4846(2) -0.1636(4) 0.0777(3)
O29 O 0.41330(19) -0.3154(3) -0.0997(2)
O30 O 0.03974(18) -0.3151(3) 0.0537(2)
O31 O 0.2732(2) -0.2144(4) 0.1046(3)
O32 O -0.0034(2) -0.0271(3) 0.0917(3)
O33 O 0.0485(2) 0.1471(4) 0.1532(2)
O34 O 0.0316(2) 0.1351(4) 0.0047(3)
O35 O 0.1617(3) 0.1021(4) 0.0565(3)
O36 O 0.1118(2) -0.0200(4) 0.1668(3)
O37 O 0.0826(2) -0.1891(4) 0.2438(3)
O38 O -0.0131(3) -0.2308(5) 0.1513(3)
O39 O 0.0000 -0.0441(5) 0.2500
O40 O 0.3651(3) -0.2582(6) 0.3659(4)
O41 O 0.3499(3) -0.0957(5) 0.2610(5)
O42 O 0.2396(3) -0.1751(4) 0.2137(3)
O43 O 0.2606(4) -0.1755(5) 0.3619(4)
O44 O 0.3487(5) -0.1660(7) 0.4972(6)
O45 O 0.4270(4) -0.0882(6) 0.3873(6)
O46 O 0.0592(15) -0.376(2) 0.2837(17)
C1 C 0.0350(3) -0.3910(5) 0.0523(3)
C2 C -0.0173(3) -0.4260(5) 0.0638(5)
H1 H -0.0157 -0.4837 0.0617
H2 H -0.0267 -0.4102 0.1021
H3 H -0.0425 -0.4064 0.0349
Mo1E Mo 0.35168(2) -0.07517(3) -0.01712(2)
Mo2E Mo 0.34418(2) -0.12051(4) -0.15909(2)
Mo3E Mo 0.26011(2) -0.03133(3) -0.05927(2)
Mo4E Mo 0.23075(2) -0.06585(4) -0.21446(2)
Mo5E Mo 0.15016(2) 0.01547(3) -0.12318(3)
Mo6E Mo 0.12521(2) -0.12003(3) -0.02881(2)
Mo6G Mo -0.12521(2) -0.12003(3) 0.52881(2)
Mo7E Mo 0.10145(2) -0.15353(4) -0.18306(2)
Mo8E Mo 0.07367(2) -0.29861(4) -0.09473(3)
Mo9E Mo 0.10464(2) -0.23787(3) 0.04156(2)
Mo9G Mo -0.10464(2) -0.23787(3) 0.45844(2)
Na2E Na 0.42732(12) -0.55431(19) -0.08061(13)
Na2B Na -0.07268(12) 0.05431(19) 0.41939(13)
Na3E Na 0.46241(13) -0.3891(2) -0.16775(14)
Na3B Na -0.03759(13) -0.1109(2) 0.33225(14)
Na5E Na 0.19246(15) -0.2789(2) -0.28274(16)
Na6E Na 0.1501(4) -0.3688(5) -0.3990(5)
O1E O 0.28275(17) -0.1149(3) -0.00309(19)
O2E O 0.36292(19) -0.0033(3) 0.0342(2)
O3E O 0.35544(17) -0.1711(3) -0.08349(19)
O4E O 0.11747(17) -0.3276(3) -0.02666(19)
O5E O 0.43005(18) -0.0590(3) -0.0420(2)
O6E O 0.33055(17) -0.0201(3) -0.0910(2)
O7E O 0.26279(17) -0.1267(3) -0.13351(19)
O8E O 0.30431(18) -0.0458(3) -0.2078(2)
O9E O 0.3399(2) -0.2055(3) -0.2017(2)
O10E O 0.4035(2) -0.0820(3) -0.1710(2)
O11E O 0.18726(16) -0.0685(3) -0.05776(19)
O12E O 0.22382(17) 0.0201(3) -0.13669(19)
O13E O 0.25694(19) 0.0539(3) -0.0195(2)
O14E O 0.16456(17) -0.0885(3) -0.18099(19)
O15E O 0.2295(2) -0.1504(3) -0.2576(2)
O16E O 0.2139(2) 0.0115(3) -0.2613(2)
O17E O 0.09636(17) -0.0623(3) -0.10788(19)
O18E O 0.1451(2) 0.0860(3) -0.0684(2)
O19E O 0.1235(2) 0.0638(3) -0.1839(2)
O20E O 0.13560(17) -0.2084(3) -0.10357(19)
O21E O 0.16946(17) -0.1875(3) 0.02205(19)
O22E O 0.06453(16) -0.1959(3) -0.02846(19)
O23E O 0.10361(19) -0.0467(3) 0.0144(2)
O23G O -0.10361(19) -0.0467(3) 0.4856(2)
O24E O 0.0616(2) -0.0932(3) -0.2270(2)
O25E O 0.1240(2) -0.2240(3) -0.2290(2)
O26E O 0.04760(18) -0.2159(3) -0.1491(2)
O27E O 0.0972(2) -0.3651(3) -0.1430(2)
O28E O 0.0154(2) -0.3364(4) -0.0777(3)
O29E O 0.08670(19) -0.1846(3) 0.0997(2)
O29G O -0.08670(19) -0.1846(3) 0.4003(2)
O30E O 0.46026(18) -0.1849(3) -0.0537(2)
O31E O 0.2268(2) -0.2856(4) -0.1046(3)
O32B O 0.0034(2) -0.0271(3) 0.4083(3)
O33B O -0.0485(2) 0.1471(4) 0.3468(2)
O34B O -0.0316(2) 0.1351(4) 0.4953(3)
O35B O -0.1617(3) 0.1021(4) 0.4435(3)
O36B O -0.1118(2) -0.0200(4) 0.3332(3)
O37B O -0.0826(2) -0.1891(4) 0.2562(3)
O38B O 0.0131(3) -0.2308(5) 0.3487(3)
O40E O 0.1349(3) -0.2418(6) -0.3659(4)
O41E O 0.1501(3) -0.4043(5) -0.2610(5)
O42E O 0.2604(3) -0.3249(4) -0.2137(3)
O43E O 0.2394(4) -0.3245(5) -0.3619(4)
O44E O 0.1513(5) -0.3340(7) -0.4972(6)
O45E O 0.0730(4) -0.4118(6) -0.3873(6)
O46B O -0.0592(15) -0.376(2) 0.2163(17)
C1E C 0.4650(3) -0.1090(5) -0.0523(3)
C2E C 0.5173(3) -0.0740(5) -0.0638(5)
H1E H 0.5157 -0.0163 -0.0617
H2E H 0.5267 -0.0898 -0.1021
H3E H 0.5425 -0.0936 -0.0349
O47 O 0.0000 -0.6864(10) 0.2500
O48 O 0.4007(5) -0.7335(6) 0.0748(6)
O49 O 0.1962(4) -0.4803(9) -0.1434(5)
O50 O 0.0558(4) -0.5645(10) 0.2134(6)
O51 O 0.0374(10) -0.5119(14) 0.2997(10)
O52 O 0.2465(13) -0.277(2) 0.4582(14)
O53 O 0.1681(9) -0.3482(13) 0.3340(10)
O54 O 0.2984(3) -0.4522(5) -0.1022(3)
loop_
_geom_bond_atom_site_label_1
_geom_bond_atom_site_label_2
_geom_bond_site_symmetry_1
_geom_bond_site_symmetry_2
Mo1 O1 1_555 1_555
Mo2 O3 1_555 1_555
Mo3 O1 1_555 1_555
Mo4 O7 1_555 1_555
Mo5 O11 1_555 1_555
Mo6 O11 1_555 1_555
Mo7 O14 1_555 1_555
Mo8 O4 1_555 1_555
Mo9 O4 1_555 1_555
Na1 O1 1_555 1_555
Na2 O32 1_555 1_555
Na3 O32 1_555 1_555
Na4 O37 1_555 1_555
Na5 O15 1_555 1_555
Na6 O40 1_555 1_555
O2 Mo1 1_555 1_555
O3 Mo1 1_555 1_555
O4 Mo1E 1_555 1_555
O5 Mo1 1_555 1_555
O6 Mo1 1_555 1_555
O7 Mo2 1_555 1_555
O8 Mo2 1_555 1_555
O9 Mo2 1_555 1_555
O10 Mo2 1_555 1_555
O11 Mo3 1_555 1_555
O12 Mo3 1_555 1_555
O13 Mo3 1_555 1_555
O14 Mo4 1_555 1_555
O15 Mo4 1_555 1_555
O16 Mo4 1_555 1_555
O17 Mo5 1_555 1_555
O18 Mo5 1_555 1_555
O19 Mo5 1_555 1_555
O20 Mo6 1_555 1_555
O21 Mo6 1_555 1_555
O22 Mo6 1_555 1_555
O23 Mo6 1_555 1_555
O24 Mo7 1_555 1_555
O25 Mo7 1_555 1_555
O26 Mo7 1_555 1_555
O27 Mo8 1_555 1_555
O28 Mo8 1_555 1_555
O29 Mo9 1_555 1_555
O30 C1 1_555 1_555
O31 Na1 1_555 1_555
O33 Na2 1_555 1_555
O34 Na2 1_555 1_555
O35 Na2 1_555 1_555
O36 Na2 1_555 1_555
O37 Na3 1_555 1_555
O38 Na3 1_555 1_555
O39 Na3 1_555 1_555
O40 Na5 1_555 1_555
O41 Na5 1_555 1_555
O42 Na5 1_555 1_555
O43 Na5 1_555 1_555
O44 Na6 1_555 1_555
O45 Na6 1_555 1_555
O46 Na4 1_555 1_555
C1 O5 1_555 1_555
C2 C1 1_555 1_555
H1 C2 1_555 1_555
H2 C2 1_555 1_555
H3 C2 1_555 1_555
Mo1E O1E 1_555 1_555
Mo2E O3E 1_555 1_555
Mo3E O1E 1_555 1_555
Mo4E O7E 1_555 1_555
Mo5E O11E 1_555 1_555
Mo6E O11E 1_555 1_555
Mo6G O23G 1_555 1_555
Mo7E O14E 1_555 1_555
Mo8E O4E 1_555 1_555
Mo9E O3 1_555 1_555
Mo9G O29G 1_555 1_555
Na2E O23 1_555 1_555
Na2B O23G 1_555 1_555
Na3E O29 1_555 1_555
Na3B O39 1_555 1_555
Na5E O15E 1_555 1_555
Na6E O40E 1_555 1_555
O1E Na1 1_555 1_555
O2E Mo1E 1_555 1_555
O3E Mo9 1_555 1_555
O4E Mo1 1_555 1_555
O5E Mo1E 1_555 1_555
O6E Mo1E 1_555 1_555
O7E Mo2E 1_555 1_555
O8E Mo2E 1_555 1_555
O9E Mo2E 1_555 1_555
O10E Mo2E 1_555 1_555
O11E Mo3E 1_555 1_555
O12E Mo3E 1_555 1_555
O13E Mo3E 1_555 1_555
O14E Mo4E 1_555 1_555
O15E Mo4E 1_555 1_555
O16E Mo4E 1_555 1_555
O17E Mo5E 1_555 1_555
O18E Mo5E 1_555 1_555
O19E Mo5E 1_555 1_555
O20E Mo6E 1_555 1_555
O21E Na1 1_555 1_555
O22E Mo6E 1_555 1_555
O23E Na2 1_555 1_555
O24E Mo7E 1_555 1_555
O25E Mo7E 1_555 1_555
O26E Mo7E 1_555 1_555
O27E Mo8E 1_555 1_555
O28E Mo8E 1_555 1_555
O29E Na3 1_555 1_555
O29G Na3B 1_555 1_555
O30E Mo9 1_555 1_555
O31E Na1 1_555 1_555
O32B Na2B 1_555 1_555
O33B Na2B 1_555 1_555
O34B Na2B 1_555 1_555
O35B Na2B 1_555 1_555
O36B Na2B 1_555 1_555
O37B Na4 1_555 1_555
O38B Na4 1_555 1_555
O40E Na5E 1_555 1_555
O41E Na5E 1_555 1_555
O42E Na5E 1_555 1_555
O43E Na5E 1_555 1_555
O44E Na6E 1_555 1_555
O45E Na6E 1_555 1_555
O46B Na4 1_555 1_555
C1E O5E 1_555 1_555
C2E C1E 1_555 1_555
H1E C2E 1_555 1_555
H2E C2E 1_555 1_555
H3E C2E 1_555 1_555
Mo2 O6 1_555 1_555
Mo3 O6 1_555 1_555
Mo3 O7 1_555 1_555
Mo4 O8 1_555 1_555
Mo4 O12 1_555 1_555
Mo5 O12 1_555 1_555
Mo5 O14 1_555 1_555
Mo6 O17 1_555 1_555
Mo7 O17 1_555 1_555
Mo7 O20 1_555 1_555
Mo8 O20 1_555 1_555
Mo8 O22 1_555 1_555
Mo8 O26 1_555 1_555
Mo9 O21 1_555 1_555
Mo9 O22 1_555 1_555
Na1 O21 1_555 1_555
Na3 O36 1_555 1_555
Na4 O38 1_555 1_555
Na5 O25 1_555 1_555
Na6 O43 1_555 1_555
O30 Mo9E 1_555 1_555
Mo1E O3E 1_555 1_555
Mo2E O6E 1_555 1_555
Mo3E O6E 1_555 1_555
Mo3E O7E 1_555 1_555
Mo4E O8E 1_555 1_555
Mo4E O12E 1_555 1_555
Mo5E O12E 1_555 1_555
Mo5E O14E 1_555 1_555
Mo6E O17E 1_555 1_555
Mo6E O21E 1_555 1_555
Mo6E O23E 1_555 1_555
Mo7E O17E 1_555 1_555
Mo7E O20E 1_555 1_555
Mo8E O20E 1_555 1_555
Mo8E O22E 1_555 1_555
Mo8E O26E 1_555 1_555
Mo9E O4E 1_555 1_555
Mo9E O21E 1_555 1_555
Mo9E O22E 1_555 1_555
Mo9E O29E 1_555 1_555
Na3B O32B 1_555 1_555
Na3B O36B 1_555 1_555
Na3B O37B 1_555 1_555
Na3B O38B 1_555 1_555
Na5E O25E 1_555 1_555
Na6E O43E 1_555 1_555
O30E C1E 1_555 1_555

#END
