
#######################################################################
#
#                 Cambridge Crystallographic Data Centre
#                                CCDC 
#
#######################################################################
#
# If this CIF has been generated from an entry in the Cambridge 
# Structural Database, then it will include bibliographic, chemical, 
# crystal, experimental, refinement or atomic coordinate data resulting 
# from the CCDC's data processing and validation procedures.
#
#######################################################################

data_UDUYAU
_symmetry_cell_setting           monoclinic
_symmetry_space_group_name_H-M   'P 21/n'
_symmetry_Int_Tables_number      14
_space_group_name_Hall           '-P 2yn'
loop_
_symmetry_equiv_pos_site_id
_symmetry_equiv_pos_as_xyz
1 x,y,z
2 1/2-x,1/2+y,1/2-z
3 -x,-y,-z
4 1/2+x,1/2-y,1/2+z
_cell_length_a                   6.9563(11)
_cell_length_b                   11.584(2)
_cell_length_c                   20.060(3)
_cell_angle_alpha                90
_cell_angle_beta                 90.271(5)
_cell_angle_gamma                90
_cell_volume                     1616.45
loop_
_atom_site_label
_atom_site_type_symbol
_atom_site_fract_x
_atom_site_fract_y
_atom_site_fract_z
Ag1 Ag 0.04519(3) -0.028628(19) 0.122801(11)
N1 N 0.1079(4) -0.1022(2) 0.23083(13)
H1 H 0.0363 -0.0617 0.2598
H2 H 0.0657 -0.1756 0.2320
N2 N -0.2897(4) -0.0347(2) 0.13631(16)
H3 H -0.3146 -0.0632 0.1771
H4 H -0.3382 -0.0847 0.1063
N3 N -0.2333(4) 0.1277(2) -0.04850(13)
N4 N 0.3826(4) -0.3305(2) 0.38636(13)
C1 C -0.2783(4) 0.0771(3) 0.00970(15)
H5 H -0.2622 -0.0024 0.0131
C2 C 0.3201(4) -0.0935(3) 0.38217(17)
H6 H 0.3001 -0.0141 0.3812
C3 C 0.3692(4) -0.2681(3) 0.44222(15)
H7 H 0.3808 -0.3058 0.4830
C4 C -0.3470(4) 0.1354(3) 0.06464(16)
C5 C 0.3312(4) -0.1557(3) 0.32310(15)
C6 C 0.3644(4) -0.2743(3) 0.32845(15)
H8 H 0.3745 -0.3169 0.2893
C7 C -0.3746(5) 0.2542(3) 0.05791(17)
H9 H -0.4206 0.2974 0.0935
C8 C 0.3390(4) -0.1501(3) 0.44215(16)
H10 H 0.3315 -0.1096 0.4821
C9 C -0.3334(5) 0.3069(3) -0.00161(17)
H11 H -0.3526 0.3859 -0.0068
C10 C -0.2636(4) 0.2420(3) -0.05352(17)
H12 H -0.2363 0.2786 -0.0937
C11 C 0.3063(5) -0.1015(3) 0.25533(16)
H13 H 0.3512 -0.0223 0.2573
H14 H 0.3864 -0.1425 0.2237
C12 C -0.3925(5) 0.0750(3) 0.12915(16)
H15 H -0.5297 0.0607 0.1312
H16 H -0.3584 0.1251 0.1661
Ag1B Ag -0.04519(3) 0.028628(19) -0.122801(11)
Ag1A Ag 0.45481(3) -0.528628(19) 0.377199(11)
N3B N 0.2333(4) -0.1277(2) 0.04850(13)
N4A N 0.1174(4) 0.1695(2) 0.11364(13)
P1 P 0.74018(13) 0.62393(7) 0.16233(4)
F1 F 0.7579(4) 0.52866(18) 0.21854(13)
F2 F 0.7217(3) 0.7249(2) 0.21651(12)
F3 F 0.9663(3) 0.6428(2) 0.16267(13)
F4 F 0.7170(4) 0.71905(19) 0.10383(12)
F5 F 0.5096(3) 0.6095(2) 0.16439(13)
F6 F 0.7550(5) 0.52789(19) 0.10652(14)
loop_
_geom_bond_atom_site_label_1
_geom_bond_atom_site_label_2
_geom_bond_site_symmetry_1
_geom_bond_site_symmetry_2
Ag1 N1 1_555 1_555
N1 H1 1_555 1_555
H2 N1 1_555 1_555
N2 Ag1 1_555 1_555
H3 N2 1_555 1_555
H4 N2 1_555 1_555
N3 C1 1_555 1_555
N4 C3 1_555 1_555
C1 H5 1_555 1_555
C2 H6 1_555 1_555
C3 H7 1_555 1_555
C4 C1 1_555 1_555
C5 C2 1_555 1_555
C6 N4 1_555 1_555
H8 C6 1_555 1_555
C7 C4 1_555 1_555
H9 C7 1_555 1_555
C8 C2 1_555 1_555
H10 C8 1_555 1_555
C9 C7 1_555 1_555
H11 C9 1_555 1_555
C10 N3 1_555 1_555
H12 C10 1_555 1_555
C11 N1 1_555 1_555
H13 C11 1_555 1_555
H14 C11 1_555 1_555
C12 N2 1_555 1_555
H15 C12 1_555 1_555
H16 C12 1_555 1_555
P1 F1 1_555 1_555
F2 P1 1_555 1_555
F3 P1 1_555 1_555
F4 P1 1_555 1_555
F5 P1 1_555 1_555
F6 P1 1_555 1_555
Ag1B N3 1_555 1_555
Ag1A N4 1_555 1_555
N3B Ag1 1_555 1_555
N4A Ag1 1_555 1_555
C3 C8 1_555 1_555
C4 C12 1_555 1_555
C5 C6 1_555 1_555
C5 C11 1_555 1_555
C9 C10 1_555 1_555

#END
