
#######################################################################
#
#                 Cambridge Crystallographic Data Centre
#                                CCDC 
#
#######################################################################
#
# If this CIF has been generated from an entry in the Cambridge 
# Structural Database, then it will include bibliographic, chemical, 
# crystal, experimental, refinement or atomic coordinate data resulting 
# from the CCDC's data processing and validation procedures.
#
#######################################################################

data_UDUYEY
_symmetry_cell_setting           orthorhombic
_symmetry_space_group_name_H-M   'F d d 2'
_symmetry_Int_Tables_number      43
_space_group_name_Hall           'F 2 -2d'
loop_
_symmetry_equiv_pos_site_id
_symmetry_equiv_pos_as_xyz
1 x,y,z
2 -x,-y,z
3 1/4+x,1/4-y,1/4+z
4 1/4-x,1/4+y,1/4+z
5 x,1/2+y,1/2+z
6 -x,1/2-y,1/2+z
7 1/4+x,3/4-y,3/4+z
8 1/4-x,3/4+y,3/4+z
9 1/2+x,y,1/2+z
10 1/2-x,-y,1/2+z
11 3/4+x,1/4-y,3/4+z
12 3/4-x,1/4+y,3/4+z
13 1/2+x,1/2+y,z
14 1/2-x,1/2-y,z
15 3/4+x,3/4-y,1/4+z
16 3/4-x,3/4+y,1/4+z
_cell_length_a                   18.988(3)
_cell_length_b                   32.249(6)
_cell_length_c                   12.883(2)
_cell_angle_alpha                90
_cell_angle_beta                 90
_cell_angle_gamma                90
_cell_volume                     7888.83
loop_
_atom_site_label
_atom_site_type_symbol
_atom_site_fract_x
_atom_site_fract_y
_atom_site_fract_z
Cu1 Cu 0.94362(3) 0.221410(19) 0.13402(4)
O1 O 1.0258(2) 0.21314(13) 0.2238(3)
O2 O 1.0911(3) 0.26709(19) 0.1777(4)
O3 O 0.8590(2) 0.22242(12) 0.0479(3)
O4 O 0.8358(2) 0.16359(14) 0.1289(5)
N1 N 0.8914(2) 0.25056(13) 0.2485(3)
N2 N 0.7602(2) 0.43467(13) 0.7749(3)
C1 C 0.8983(3) 0.24184(17) 0.3503(4)
H1 H 0.9299 0.2213 0.3697
C2 C 0.8608(3) 0.26183(17) 0.4273(4)
H2 H 0.8683 0.2549 0.4965
C3 C 0.8124(3) 0.29185(14) 0.4024(4)
C4 C 0.8042(3) 0.30058(19) 0.2972(5)
H3 H 0.7718 0.3205 0.2758
C5 C 0.8443(3) 0.27966(17) 0.2248(4)
H4 H 0.8380 0.2863 0.1552
C6 C 0.7696(3) 0.31317(18) 0.4853(4)
H5 H 0.7473 0.2919 0.5272
H6 H 0.8020 0.3281 0.5302
C7 C 0.7137(3) 0.34300(18) 0.4510(5)
H7 H 0.6850 0.3299 0.3980
H8 H 0.7360 0.3671 0.4201
C8 C 0.6663(3) 0.35713(19) 0.5390(5)
H9 H 0.6275 0.3729 0.5096
H10 H 0.6464 0.3328 0.5721
C9 C 0.7015(3) 0.38344(15) 0.6215(5)
C10 C 0.7441(3) 0.41616(17) 0.5972(4)
H11 H 0.7545 0.4217 0.5281
C11 C 0.7718(3) 0.44097(17) 0.6741(4)
H12 H 0.8000 0.4632 0.6547
C12 C 0.7200(4) 0.40184(17) 0.7989(5)
H13 H 0.7115 0.3965 0.8687
C13 C 0.6905(3) 0.37572(18) 0.7271(5)
H14 H 0.6636 0.3532 0.7483
C14 C 1.0826(4) 0.2345(3) 0.2237(5)
C15 C 1.1433(4) 0.2170(3) 0.2868(7)
H15 H 1.1846 0.2336 0.2759
H16 H 1.1525 0.1890 0.2652
H17 H 1.1311 0.2172 0.3591
C16 C 0.8226(3) 0.1898(2) 0.0627(5)
C17 C 0.7590(4) 0.1858(3) -0.0080(6)
H18 H 0.7302 0.1631 0.0149
H19 H 0.7745 0.1807 -0.0778
H20 H 0.7322 0.2110 -0.0059
O5 O 0.9779(3) 0.28664(15) 0.0658(4)
H21 H 1.0175 0.2760 0.0731
H22 H 0.9795 0.3068 0.0257
Cu1K Cu 0.80638(3) 0.471410(19) 0.88402(4)
N2O N 0.9898(2) 0.18467(13) 0.0249(3)
O6 O 0.7594(3) 0.09240(19) 0.1507(5)
H23 H 0.7813 0.1140 0.1647
H24 H 0.7643 0.0762 0.0993
loop_
_geom_bond_atom_site_label_1
_geom_bond_atom_site_label_2
_geom_bond_site_symmetry_1
_geom_bond_site_symmetry_2
Cu1 O1 1_555 1_555
O1 C14 1_555 1_555
O2 C14 1_555 1_555
O3 Cu1 1_555 1_555
O4 C16 1_555 1_555
N1 Cu1 1_555 1_555
N2 C11 1_555 1_555
C1 N1 1_555 1_555
H1 C1 1_555 1_555
C2 C1 1_555 1_555
H2 C2 1_555 1_555
C3 C2 1_555 1_555
C4 C3 1_555 1_555
H3 C4 1_555 1_555
C5 N1 1_555 1_555
H4 C5 1_555 1_555
C6 C3 1_555 1_555
H5 C6 1_555 1_555
H6 C6 1_555 1_555
C7 C6 1_555 1_555
H7 C7 1_555 1_555
H8 C7 1_555 1_555
C8 C7 1_555 1_555
H9 C8 1_555 1_555
H10 C8 1_555 1_555
C9 C8 1_555 1_555
C10 C9 1_555 1_555
H11 C10 1_555 1_555
C11 C10 1_555 1_555
H12 C11 1_555 1_555
C12 N2 1_555 1_555
H13 C12 1_555 1_555
C13 C9 1_555 1_555
H14 C13 1_555 1_555
C14 C15 1_555 1_555
C15 H15 1_555 1_555
H16 C15 1_555 1_555
H17 C15 1_555 1_555
C16 O3 1_555 1_555
C17 C16 1_555 1_555
H18 C17 1_555 1_555
H19 C17 1_555 1_555
H20 C17 1_555 1_555
O5 Cu1 1_555 1_555
H21 O5 1_555 1_555
H22 O5 1_555 1_555
O6 H23 1_555 1_555
H24 O6 1_555 1_555
Cu1K N2 1_555 1_555
N2O Cu1 1_555 1_555
C4 C5 1_555 1_555
C12 C13 1_555 1_555

#END
