
#######################################################################
#
#                 Cambridge Crystallographic Data Centre
#                                CCDC 
#
#######################################################################
#
# If this CIF has been generated from an entry in the Cambridge 
# Structural Database, then it will include bibliographic, chemical, 
# crystal, experimental, refinement or atomic coordinate data resulting 
# from the CCDC's data processing and validation procedures.
#
#######################################################################

data_UDUZAU
_symmetry_cell_setting           orthorhombic
_symmetry_space_group_name_H-M   'P b c a'
_symmetry_Int_Tables_number      61
_space_group_name_Hall           '-P 2ac 2ab'
loop_
_symmetry_equiv_pos_site_id
_symmetry_equiv_pos_as_xyz
1 x,y,z
2 1/2+x,y,1/2-z
3 x,1/2-y,1/2+z
4 1/2-x,1/2+y,z
5 -x,-y,-z
6 1/2-x,-y,1/2+z
7 -x,1/2+y,1/2-z
8 1/2+x,1/2-y,-z
_cell_length_a                   14.0956(12)
_cell_length_b                   13.7479(11)
_cell_length_c                   14.6188(12)
_cell_angle_alpha                90
_cell_angle_beta                 90
_cell_angle_gamma                90
_cell_volume                     2832.9
loop_
_atom_site_label
_atom_site_type_symbol
_atom_site_fract_x
_atom_site_fract_y
_atom_site_fract_z
Co1 Co -0.29943(3) 0.85181(4) -0.55173(3)
O1 O -0.19251(16) 0.85885(19) -0.45637(15)
O2 O -0.52122(17) 0.9046(2) -0.54651(15)
O3 O -0.41000(15) 0.84435(19) -0.63950(15)
O4 O -0.28538(17) 0.6968(2) -0.54510(17)
O5 O -0.3568(2) 0.5931(2) -0.4589(2)
O6 O -0.3899(2) 0.7473(2) -0.44921(18)
O7 O -0.3242(2) 0.9984(2) -0.5308(2)
C1 C -0.5641(2) 0.8673(3) -0.6988(2)
C2 C -0.2018(2) 0.8804(3) -0.3737(2)
O8 O -0.27580(17) 0.9004(3) -0.33250(18)
N1 N -0.3457(2) 0.6780(2) -0.4827(2)
N2 N 0.0491(2) 0.8815(3) -0.2151(2)
C3 C -0.1110(2) 0.8836(3) -0.3178(2)
C4 C -0.4935(2) 0.8728(2) -0.6210(2)
C5 C 0.0563(3) 0.8824(3) -0.3056(3)
C6 C -0.0227(2) 0.8817(3) -0.3589(3)
C7 C -0.1160(3) 0.8841(3) -0.2234(2)
C8 C -0.0345(3) 0.8823(3) -0.1723(3)
N3 N -0.69709(19) 0.8630(2) -0.84152(18)
C9 C -0.5360(2) 0.8656(3) -0.7893(2)
C10 C -0.6036(2) 0.8641(3) -0.8576(2)
C11 C -0.7236(2) 0.8640(3) -0.7536(2)
C12 C -0.6605(3) 0.8656(3) -0.6819(2)
H1 H -0.272(4) 1.035(5) -0.519(4)
H2 H -0.790(3) 0.860(3) -0.744(3)
H3 H -0.682(2) 0.865(3) -0.625(3)
H4 H -0.585(3) 0.862(3) -0.925(3)
H5 H 0.118(3) 0.879(3) -0.330(3)
H6 H -0.167(3) 0.890(3) -0.190(3)
H7 H -0.361(4) 1.008(5) -0.501(4)
H8 H -0.472(3) 0.866(3) -0.806(3)
H9 H -0.022(3) 0.882(3) -0.415(3)
H10 H -0.028(3) 0.892(3) -0.110(3)
H11 H 0.102(3) 0.882(3) -0.182(3)
N3A N -0.19709(19) 0.8630(2) -0.65848(18)
Co1A Co -0.79943(3) 0.85181(4) -0.94827(3)
loop_
_geom_bond_atom_site_label_1
_geom_bond_atom_site_label_2
_geom_bond_site_symmetry_1
_geom_bond_site_symmetry_2
Co1 O1 1_555 1_555
O1 C2 1_555 1_555
O2 C4 1_555 1_555
O3 Co1 1_555 1_555
O4 Co1 1_555 1_555
O5 N1 1_555 1_555
O6 N1 1_555 1_555
O7 Co1 1_555 1_555
C1 C4 1_555 1_555
C2 O8 1_555 1_555
N1 O4 1_555 1_555
N2 C5 1_555 1_555
C3 C2 1_555 1_555
C4 O3 1_555 1_555
C5 C6 1_555 1_555
C6 C3 1_555 1_555
C7 C3 1_555 1_555
C8 N2 1_555 1_555
N3 C10 1_555 1_555
C9 C1 1_555 1_555
C10 C9 1_555 1_555
C11 N3 1_555 1_555
C12 C1 1_555 1_555
H1 O7 1_555 1_555
H2 C11 1_555 1_555
H3 C12 1_555 1_555
H4 C10 1_555 1_555
H5 C5 1_555 1_555
H6 C7 1_555 1_555
H7 O7 1_555 1_555
H8 C9 1_555 1_555
H9 C6 1_555 1_555
H10 C8 1_555 1_555
H11 N2 1_555 1_555
N3A Co1 1_555 1_555
Co1A N3 1_555 1_555
C7 C8 1_555 1_555
C11 C12 1_555 1_555

#END
