
#######################################################################
#
#                 Cambridge Crystallographic Data Centre
#                                CCDC 
#
#######################################################################
#
# If this CIF has been generated from an entry in the Cambridge 
# Structural Database, then it will include bibliographic, chemical, 
# crystal, experimental, refinement or atomic coordinate data resulting 
# from the CCDC's data processing and validation procedures.
#
#######################################################################

data_UFACEK
_symmetry_cell_setting           monoclinic
_symmetry_space_group_name_H-M   'P 21'
_symmetry_Int_Tables_number      4
_space_group_name_Hall           'P 2yb'
loop_
_symmetry_equiv_pos_site_id
_symmetry_equiv_pos_as_xyz
1 x,y,z
2 -x,1/2+y,-z
_cell_length_a                   9.2203(18)
_cell_length_b                   19.744(4)
_cell_length_c                   9.3552(19)
_cell_angle_alpha                90
_cell_angle_beta                 101.72(3)
_cell_angle_gamma                90
_cell_volume                     1667.57
loop_
_atom_site_label
_atom_site_type_symbol
_atom_site_fract_x
_atom_site_fract_y
_atom_site_fract_z
La1 La 0.46937(8) 0.05700(3) 0.39796(8)
La2 La 0.28724(8) 0.07667(3) -0.06572(8)
N1 N 0.5695(13) -0.0629(6) 0.5397(14)
N2 N 0.7476(13) 0.0334(6) 0.3592(13)
N3 N 0.0116(13) 0.1009(6) -0.0272(13)
N4 N 0.1862(13) 0.1969(6) -0.2076(13)
O1 O 0.3674(11) -0.0545(5) 0.2910(11)
O2 O 0.2676(12) -0.1539(5) 0.3372(12)
O3 O 0.9397(13) -0.0864(6) 0.8710(13)
O4 O 0.8767(12) -0.1922(5) 0.9100(13)
H1 H 0.9385 -0.1884 0.9860
O5 O 1.2708(11) 0.0173(5) 0.5298(11)
O6 O 1.1288(10) 0.0513(5) 0.6871(10)
O7 O 0.6354(11) -0.0298(6) 0.0010(12)
O8 O 0.5132(10) 0.0364(5) 0.1292(10)
O9 O 0.4727(13) 0.2909(5) 0.0127(13)
O10 O 0.3905(11) 0.1868(5) 0.0408(11)
O11 O -0.1719(12) 0.2227(5) -0.5537(12)
O12 O -0.0761(13) 0.3223(5) -0.6098(13)
H2 H -0.1476 0.3221 -0.6782
O13 O 0.2497(11) 0.0993(5) 0.2010(11)
O14 O 0.1265(12) 0.1662(6) 0.3299(12)
O15 O -0.3697(10) 0.0818(5) -0.3545(10)
O16 O -0.5110(11) 0.1124(5) -0.2007(11)
O17 O 0.3846(11) -0.0285(5) -0.1875(11)
H3 H 0.4683 -0.0311 -0.1295
H4 H 0.3985 -0.0053 -0.2600
O18 O 0.1967(11) -0.0318(5) 0.0239(11)
H5 H 0.2358 -0.0457 0.1090
H6 H 0.1178 -0.0542 -0.0071
O19 O 0.3764(12) 0.1608(5) 0.5188(12)
H7 H 0.2862 0.1573 0.4756
H8 H 0.3869 0.1431 0.6031
O20 O 0.5648(11) 0.1658(5) 0.3042(12)
H9 H 0.5504 0.1549 0.2145
H10 H 0.6562 0.1606 0.3414
C1 C 0.3653(16) -0.1095(7) 0.3636(16)
C2 C 0.4906(16) -0.1192(7) 0.4931(16)
C3 C 0.5209(16) -0.1821(8) 0.5549(17)
H15 H 0.4613 -0.2191 0.5205
C4 C 0.6448(16) -0.1899(7) 0.6723(17)
H16 H 0.6699 -0.2318 0.7156
C5 C 0.7253(16) -0.1331(7) 0.7187(17)
C6 C 0.8590(16) -0.1344(7) 0.8433(17)
C7 C 0.6853(16) -0.0696(8) 0.6544(16)
H17 H 0.7393 -0.0315 0.6913
C8 C 1.1461(15) 0.0313(7) 0.5627(16)
C9 C 1.0120(16) 0.0184(7) 0.4480(16)
C10 C 1.0192(16) -0.0138(7) 0.3160(16)
H18 H 1.1094 -0.0302 0.3007
C11 C 0.8936(15) -0.0214(7) 0.2089(17)
H19 H 0.8999 -0.0431 0.1221
C12 C 0.7616(16) 0.0021(7) 0.2280(16)
C13 C 0.6267(15) 0.0021(7) 0.1096(16)
C14 C 0.8687(15) 0.0397(7) 0.4643(16)
H20 H 0.8590 0.0590 0.5526
C15 C 0.1360(16) 0.1339(7) 0.2190(16)
C16 C -0.0017(16) 0.1304(7) 0.0937(16)
C17 C -0.1335(16) 0.1583(7) 0.1211(17)
H21 H -0.1360 0.1813 0.2073
C18 C -0.2594(16) 0.1499(7) 0.0130(16)
H22 H -0.3503 0.1665 0.0259
C19 C -0.2479(16) 0.1164(7) -0.1148(16)
C20 C -0.3863(15) 0.1042(7) -0.2261(16)
C21 C -0.1135(15) 0.0917(7) -0.1310(15)
H23 H -0.1075 0.0679 -0.2154
C22 C 0.3880(16) 0.2428(7) -0.0274(16)
C23 C 0.2723(16) 0.2512(7) -0.1661(16)
C24 C 0.2569(17) 0.3121(7) -0.2392(17)
H24 H 0.3219 0.3478 -0.2089
C25 C 0.1432(17) 0.3188(7) -0.3577(17)
H25 H 0.1294 0.3596 -0.4083
C26 C 0.0477(16) 0.2643(7) -0.4030(16)
C27 C -0.0788(16) 0.2672(7) -0.5298(16)
C28 C 0.0747(16) 0.2054(7) -0.3223(16)
H26 H 0.0109 0.1691 -0.3497
La1_2 La 1.46937(8) 0.05700(3) 0.39796(8)
La1_3 La -0.53063(8) 0.05700(3) -0.60204(8)
La2_2 La 1.28724(8) 0.07667(3) 0.93428(8)
La2_3 La -0.71276(8) 0.07667(3) -0.06572(8)
O5_2 O 0.2708(11) 0.0173(5) 0.5298(11)
O6_2 O 0.1288(10) 0.0513(5) -0.3129(10)
O15_2 O 0.6303(10) 0.0818(5) 0.6455(10)
O16_2 O 0.4890(11) 0.1124(5) -0.2007(11)
O21 O 0.7230(12) 0.3388(5) 0.1594(13)
H11 H 0.6464 0.3190 0.1118
H12 H 0.7003 0.3796 0.1734
O22 O 0.1319(14) 0.7993(6) 0.0723(16)
H13 H 0.1775 0.8147 0.1540
H14 H 0.1779 0.8119 0.0068
loop_
_geom_bond_atom_site_label_1
_geom_bond_atom_site_label_2
_geom_bond_site_symmetry_1
_geom_bond_site_symmetry_2
La1 N1 1_555 1_555
La2 N3 1_555 1_555
N1 C2 1_555 1_555
N2 La1 1_555 1_555
N3 C16 1_555 1_555
N4 La2 1_555 1_555
O1 La1 1_555 1_555
O2 C1 1_555 1_555
O3 C6 1_555 1_555
O4 H1 1_555 1_555
O5 C8 1_555 1_555
O6 C8 1_555 1_555
O7 C13 1_555 1_555
O8 La1 1_555 1_555
O9 C22 1_555 1_555
O10 La2 1_555 1_555
O11 C27 1_555 1_555
O12 H2 1_555 1_555
O13 La1 1_555 1_555
O14 C15 1_555 1_555
O15 C20 1_555 1_555
O16 C20 1_555 1_555
O17 La2 1_555 1_555
H3 O17 1_555 1_555
H4 O17 1_555 1_555
O18 La2 1_555 1_555
H5 O18 1_555 1_555
H6 O18 1_555 1_555
O19 La1 1_555 1_555
H7 O19 1_555 1_555
H8 O19 1_555 1_555
O20 La1 1_555 1_555
H9 O20 1_555 1_555
H10 O20 1_555 1_555
O21 H11 1_555 1_555
H12 O21 1_555 1_555
O22 H13 1_555 1_555
H14 O22 1_555 1_555
C1 O1 1_555 1_555
C2 C1 1_555 1_555
C3 C2 1_555 1_555
H15 C3 1_555 1_555
C4 C3 1_555 1_555
H16 C4 1_555 1_555
C5 C4 1_555 1_555
C6 O4 1_555 1_555
C7 N1 1_555 1_555
H17 C7 1_555 1_555
C8 C9 1_555 1_555
C9 C10 1_555 1_555
C10 H18 1_555 1_555
C11 C10 1_555 1_555
H19 C11 1_555 1_555
C12 N2 1_555 1_555
C13 O8 1_555 1_555
C14 N2 1_555 1_555
H20 C14 1_555 1_555
C15 O13 1_555 1_555
C16 C15 1_555 1_555
C17 C16 1_555 1_555
H21 C17 1_555 1_555
C18 C17 1_555 1_555
H22 C18 1_555 1_555
C19 C18 1_555 1_555
C20 C19 1_555 1_555
C21 N3 1_555 1_555
H23 C21 1_555 1_555
C22 O10 1_555 1_555
C23 N4 1_555 1_555
C24 C23 1_555 1_555
H24 C24 1_555 1_555
C25 C24 1_555 1_555
H25 C25 1_555 1_555
C26 C25 1_555 1_555
C27 O12 1_555 1_555
C28 N4 1_555 1_555
H26 C28 1_555 1_555
La1_2 O5 1_555 1_555
La1_3 O15 1_555 1_555
La2_2 O6 1_555 1_555
La2_3 O16 1_555 1_555
O5_2 La1 1_555 1_555
O6_2 La2 1_555 1_555
O15_2 La1 1_555 1_555
O16_2 La2 1_555 1_555
La2 O8 1_555 1_555
La2 O13 1_555 1_555
C5 C6 1_555 1_555
C5 C7 1_555 1_555
C9 C14 1_555 1_555
C11 C12 1_555 1_555
C12 C13 1_555 1_555
C19 C21 1_555 1_555
C22 C23 1_555 1_555
C26 C27 1_555 1_555
C26 C28 1_555 1_555

#END
