
#######################################################################
#
#                 Cambridge Crystallographic Data Centre
#                                CCDC 
#
#######################################################################
#
# If this CIF has been generated from an entry in the Cambridge 
# Structural Database, then it will include bibliographic, chemical, 
# crystal, experimental, refinement or atomic coordinate data resulting 
# from the CCDC's data processing and validation procedures.
#
#######################################################################

data_UFACEK01
_symmetry_cell_setting           monoclinic
_symmetry_space_group_name_H-M   'P 21/c'
_symmetry_Int_Tables_number      14
_space_group_name_Hall           '-P 2ybc'
loop_
_symmetry_equiv_pos_site_id
_symmetry_equiv_pos_as_xyz
1 x,y,z
2 -x,1/2+y,1/2-z
3 -x,-y,-z
4 x,1/2-y,1/2+z
_cell_length_a                   9.314(5)
_cell_length_b                   19.122(9)
_cell_length_c                   9.346(5)
_cell_angle_alpha                90
_cell_angle_beta                 101.757(7)
_cell_angle_gamma                90
_cell_volume                     1629.62
loop_
_atom_site_label
_atom_site_type_symbol
_atom_site_fract_x
_atom_site_fract_y
_atom_site_fract_z
La1 La 0.41102(4) -0.492750(19) -0.23630(4)
O1 O 0.5141(5) -0.3748(2) -0.1349(5)
O2 O 0.6220(6) -0.2775(3) -0.1900(6)
O3 O -0.0564(6) -0.3413(3) -0.7098(6)
O4 O 0.0309(6) -0.2401(3) -0.7730(6)
O5 O 0.2496(5) -0.3999(3) 0.1626(5)
O6 O 0.3724(4) -0.4669(2) 0.0308(5)
O7 O -0.3838(5) -0.4574(3) -0.3574(5)
O8 O -0.2458(5) -0.4818(2) -0.5207(5)
O9 O 0.3169(5) -0.6033(3) -0.1377(5)
O10 O 0.4994(5) -0.6022(3) -0.3524(6)
N1 N 0.3116(6) -0.3684(3) -0.3803(6)
N2 N 0.1339(6) -0.4660(3) -0.1962(5)
C1 C 0.1968(7) -0.3610(4) -0.4947(7)
H1 H 0.1320 -0.3994 -0.5210
C2 C 0.1704(7) -0.2997(3) -0.5744(7)
C3 C 0.2678(8) -0.2448(4) -0.5407(8)
H2 H 0.2546 -0.2030 -0.5968
C4 C 0.3852(8) -0.2518(3) -0.4235(8)
H3 H 0.4530 -0.2146 -0.3969
C5 C 0.4018(7) -0.3134(3) -0.3468(7)
C6 C 0.5242(7) -0.3223(4) -0.2133(8)
C7 C 0.0365(8) -0.2967(4) -0.6943(8)
C8 C 0.1239(7) -0.4347(3) -0.0700(7)
C9 C -0.0067(6) -0.4088(4) -0.0446(7)
H4 H -0.0101 -0.3859 0.0449
C10 C -0.1346(7) -0.4166(3) -0.1526(7)
H5 H -0.2254 -0.3985 -0.1377
C11 C -0.1267(7) -0.4510(3) -0.2808(7)
C12 C 0.0127(7) -0.4735(4) -0.2976(7)
H6 H 0.0205 -0.4953 -0.3871
C13 C 0.2588(7) -0.4326(3) 0.0520(7)
C14 C -0.2624(6) -0.4647(3) -0.3942(6)
H8 H 0.3530 -0.6225 -0.0551
H9 H 0.2523 -0.6259 -0.1941
H11 H 0.5741 -0.6194 -0.2941
H12 H 0.4220 -0.6289 -0.3544
H13 H -0.0432 -0.2174 -0.8263
La1B La 0.58898(4) -0.507250(19) 0.23630(4)
La1_2 La -0.58898(4) -0.492750(19) -0.23630(4)
La1B_2 La -0.41102(4) -0.507250(19) -0.76370(4)
O6B O 0.6276(4) -0.5331(2) -0.0308(5)
O7_2 O 0.6162(5) -0.4574(3) -0.3574(5)
O8B O 0.2458(5) -0.5182(2) -0.4793(5)
O11 O 0.2273(7) -0.7218(4) -0.5684(8)
H7 H 0.2640 -0.7499 -0.4934
H10 H 0.1908 -0.6799 -0.5669
loop_
_geom_bond_atom_site_label_1
_geom_bond_atom_site_label_2
_geom_bond_site_symmetry_1
_geom_bond_site_symmetry_2
La1 O1 1_555 1_555
O1 C6 1_555 1_555
O2 C6 1_555 1_555
O3 C7 1_555 1_555
O4 C7 1_555 1_555
O5 C13 1_555 1_555
O6 La1 1_555 1_555
O7 C14 1_555 1_555
O8 C14 1_555 1_555
O9 La1 1_555 1_555
O10 La1 1_555 1_555
O11 H7 1_555 1_555
N1 La1 1_555 1_555
N2 La1 1_555 1_555
C1 N1 1_555 1_555
H1 C1 1_555 1_555
C2 C1 1_555 1_555
C3 C2 1_555 1_555
H2 C3 1_555 1_555
C4 C3 1_555 1_555
H3 C4 1_555 1_555
C5 N1 1_555 1_555
C6 C5 1_555 1_555
C7 C2 1_555 1_555
C8 N2 1_555 1_555
C9 C8 1_555 1_555
H4 C9 1_555 1_555
C10 C9 1_555 1_555
H5 C10 1_555 1_555
C11 C10 1_555 1_555
C12 N2 1_555 1_555
H6 C12 1_555 1_555
C13 O6 1_555 1_555
C14 C11 1_555 1_555
H8 O9 1_555 1_555
H9 O9 1_555 1_555
H10 O11 1_555 1_555
H11 O10 1_555 1_555
H12 O10 1_555 1_555
H13 O4 1_555 1_555
La1B O6 1_555 1_555
La1_2 O7 1_555 1_555
La1B_2 O8 1_555 1_555
O6B La1 1_555 1_555
O7_2 La1 1_555 1_555
O8B La1 1_555 1_555
C4 C5 1_555 1_555
C8 C13 1_555 1_555
C11 C12 1_555 1_555
La1B O6B 1_555 1_555

#END
