
#######################################################################
#
#                 Cambridge Crystallographic Data Centre
#                                CCDC 
#
#######################################################################
#
# If this CIF has been generated from an entry in the Cambridge 
# Structural Database, then it will include bibliographic, chemical, 
# crystal, experimental, refinement or atomic coordinate data resulting 
# from the CCDC's data processing and validation procedures.
#
#######################################################################

data_UFADIP
_symmetry_cell_setting           monoclinic
_symmetry_space_group_name_H-M   'C 2/c'
_symmetry_Int_Tables_number      15
_space_group_name_Hall           '-C 2yn'
loop_
_symmetry_equiv_pos_site_id
_symmetry_equiv_pos_as_xyz
1 x,y,z
2 1/2+x,1/2+y,z
3 -x,y,1/2-z
4 1/2-x,1/2+y,1/2-z
5 -x,-y,-z
6 1/2-x,1/2-y,-z
7 x,-y,1/2+z
8 1/2+x,1/2-y,1/2+z
_cell_length_a                   11.1170(15)
_cell_length_b                   6.780(1)
_cell_length_c                   30.567(4)
_cell_angle_alpha                90
_cell_angle_beta                 99.124(15)
_cell_angle_gamma                90
_cell_volume                     2274.78
loop_
_atom_site_label
_atom_site_type_symbol
_atom_site_fract_x
_atom_site_fract_y
_atom_site_fract_z
C1 C 0.3275(6) 0.1809(9) 0.1192(2)
C2 C 0.4084(7) 0.1212(10) 0.0912(2)
C3 C 0.3665(8) 0.0504(11) 0.0492(2)
H1 H 0.4213 0.0098 0.031
C4 C 0.2426(8) 0.0402(11) 0.0345(3)
C5 C 0.1588(7) 0.0946(12) 0.0613(3)
H2 H 0.0755 0.0843 0.0514
C6 C 0.2028(6) 0.1643(11) 0.1032(3)
H3 H 0.1475 0.2018 0.1215
N1 N 0.4651(5) 0.4579(8) 0.17108(18)
O1 O 0.4400(5) 0.1331(7) 0.20070(16)
O2 O 0.2573(5) 0.3374(8) 0.18720(17)
O3 O 0.50000 -0.2706(11) 0.25000
H4 H 0.529(8) -0.332(12) 0.275(2)
O4 O 0.7099(5) 0.3237(9) 0.20865(19)
H5 H 0.745(8) 0.302(11) 0.187(2)
H6 H 0.647(5) 0.369(10) 0.196(3)
S1 S 0.37118(14) 0.2828(2) 0.17335(5)
Na1 Na 0.6445(3) -0.0014(4) 0.23596(10)
Cl1 Cl 0.56406(16) 0.1333(3) 0.10764(7)
Cl2 Cl 0.1903(3) -0.0354(3) -0.01953(7)
Br1 Br 0.39296(7) 0.65862(11) 0.13323(2)
C1B C 0.6725(6) 0.1809(9) 0.3808(2)
C2B C 0.5916(7) 0.1212(10) 0.4088(2)
C3B C 0.6335(8) 0.0504(11) 0.4508(2)
H1B H 0.5787 0.0098 0.469
C4B C 0.7574(8) 0.0402(11) 0.4655(3)
C5B C 0.8412(7) 0.0946(12) 0.4387(3)
H2B H 0.9245 0.0843 0.4486
C6B C 0.7972(6) 0.1643(11) 0.3968(3)
H3B H 0.8525 0.2018 0.3785
N1B N 0.5349(5) 0.4579(8) 0.32892(18)
O1B O 0.5600(5) 0.1331(7) 0.29930(16)
O2B O 0.7427(5) 0.3374(8) 0.31280(17)
O2A O 0.7573(5) -0.1626(8) 0.18720(17)
O2C O 0.2427(5) -0.1626(8) 0.31280(17)
H4B H 0.471(8) -0.332(12) 0.225(2)
O4C O 0.7901(5) -0.1763(9) 0.29135(19)
O4A O 0.2099(5) -0.1763(9) 0.20865(19)
O4B O 0.2901(5) 0.3237(9) 0.29135(19)
H5C H 0.755(8) -0.198(11) 0.313(2)
H5A H 0.245(8) -0.198(11) 0.187(2)
H5B H 0.255(8) 0.302(11) 0.313(2)
H6C H 0.853(5) -0.131(10) 0.304(3)
H6A H 0.147(5) -0.131(10) 0.196(3)
H6B H 0.353(5) 0.369(10) 0.304(3)
S1B S 0.62882(14) 0.2828(2) 0.32665(5)
Na1B Na 0.3555(3) -0.0014(4) 0.26404(10)
Na1A Na 0.1445(3) 0.4986(4) 0.23596(10)
Na1C Na 0.8555(3) 0.4986(4) 0.26404(10)
Na1C_2 Na 0.8555(3) -0.5014(4) 0.26404(10)
Cl1B Cl 0.43594(16) 0.1333(3) 0.39236(7)
Cl2B Cl 0.8097(3) -0.0354(3) 0.51953(7)
Br1B Br 0.60704(7) 0.65862(11) 0.36677(2)
loop_
_geom_bond_atom_site_label_1
_geom_bond_atom_site_label_2
_geom_bond_site_symmetry_1
_geom_bond_site_symmetry_2
C1 C2 1_555 1_555
C2 C3 1_555 1_555
C3 H1 1_555 1_555
C4 C3 1_555 1_555
C5 C4 1_555 1_555
H2 C5 1_555 1_555
C6 C1 1_555 1_555
H3 C6 1_555 1_555
N1 S1 1_555 1_555
O1 S1 1_555 1_555
O2 S1 1_555 1_555
O3 H4 1_555 1_555
O4 H5 1_555 1_555
H6 O4 1_555 1_555
S1 C1 1_555 1_555
Na1 O1 1_555 1_555
Cl1 C2 1_555 1_555
Cl2 C4 1_555 1_555
Br1 N1 1_555 1_555
C1B C2B 1_555 1_555
C2B C3B 1_555 1_555
C3B H1B 1_555 1_555
C4B C3B 1_555 1_555
C5B C4B 1_555 1_555
H2B C5B 1_555 1_555
C6B C1B 1_555 1_555
H3B C6B 1_555 1_555
N1B S1B 1_555 1_555
O1B Na1 1_555 1_555
O2B S1B 1_555 1_555
O2A Na1 1_555 1_555
O2C Na1B 1_555 1_555
H4B O3 1_555 1_555
O4C Na1 1_555 1_555
O4A H5A 1_555 1_555
O4B H5B 1_555 1_555
H5C O4C 1_555 1_555
H6C O4C 1_555 1_555
H6A O4A 1_555 1_555
H6B O4B 1_555 1_555
S1B C1B 1_555 1_555
Na1B O1 1_555 1_555
Na1A O2 1_555 1_555
Na1C O4 1_555 1_555
Na1C_2 O4C 1_555 1_555
Cl1B C2B 1_555 1_555
Cl2B C4B 1_555 1_555
Br1B N1B 1_555 1_555
C5 C6 1_555 1_555
O3 Na1 1_555 1_555
O3 Na1B 1_555 1_555
O4 Na1 1_555 1_555
C5B C6B 1_555 1_555
O1B S1B 1_555 1_555
O1B Na1B 1_555 1_555
O2B Na1C 1_555 1_555
O4A Na1B 1_555 1_555
O4B Na1B 1_555 1_555
O4B Na1A 1_555 1_555

#END
