
#######################################################################
#
#                 Cambridge Crystallographic Data Centre
#                                CCDC 
#
#######################################################################
#
# If this CIF has been generated from an entry in the Cambridge 
# Structural Database, then it will include bibliographic, chemical, 
# crystal, experimental, refinement or atomic coordinate data resulting 
# from the CCDC's data processing and validation procedures.
#
#######################################################################

data_UFAFAJ
_symmetry_cell_setting           monoclinic
_symmetry_space_group_name_H-M   'P 21/c'
_symmetry_Int_Tables_number      14
_space_group_name_Hall           '-P 2ybc'
loop_
_symmetry_equiv_pos_site_id
_symmetry_equiv_pos_as_xyz
1 x,y,z
2 -x,1/2+y,1/2-z
3 -x,-y,-z
4 x,1/2-y,1/2+z
_cell_length_a                   8.271(1)
_cell_length_b                   13.067(2)
_cell_length_c                   22.207(2)
_cell_angle_alpha                90
_cell_angle_beta                 90.140(2)
_cell_angle_gamma                90
_cell_volume                     2400.06
loop_
_atom_site_label
_atom_site_type_symbol
_atom_site_fract_x
_atom_site_fract_y
_atom_site_fract_z
Ni1 Ni 0.5000 0.5000 0.5000
K1 K -0.04263(11) 0.51950(6) 0.17024(4)
N1 N 0.1579(4) 0.6009(2) 0.27356(14)
N2 N 0.2288(5) 0.8652(3) 0.39120(16)
O1 O -0.2843(4) 0.4976(2) 0.25695(13)
O2 O -0.3427(4) 0.6163(2) 0.15473(14)
O3 O -0.0790(4) 0.6762(2) 0.08341(13)
O4 O 0.1728(4) 0.5284(2) 0.07367(12)
O5 O 0.2242(3) 0.3857(2) 0.16313(12)
O6 O -0.0334(4) 0.3540(2) 0.24499(12)
S1 S 0.38775(13) 0.48585(7) 0.40962(4)
S2 S 0.43037(13) 0.66007(7) 0.48093(4)
C1 C -0.4432(6) 0.5184(4) 0.2352(2)
H1 H -0.5184 0.5191 0.2687
H2 H -0.4763 0.4648 0.2076
C2 C -0.4478(6) 0.6182(4) 0.2041(2)
H3 H -0.5570 0.6324 0.1905
H4 H -0.4155 0.6720 0.2318
C3 C -0.3468(6) 0.7057(4) 0.1196(2)
H5 H -0.3095 0.7636 0.1432
H6 H -0.4568 0.7194 0.1066
C4 C -0.2412(6) 0.6917(4) 0.0663(2)
H7 H -0.2785 0.6332 0.0432
H8 H -0.2484 0.7517 0.0408
C5 C 0.0254(6) 0.6647(4) 0.0331(2)
H9 H 0.0360 0.7298 0.0125
H10 H -0.0212 0.6159 0.0050
C6 C 0.1863(6) 0.6287(4) 0.0522(2)
H11 H 0.2604 0.6308 0.0185
H12 H 0.2282 0.6729 0.0837
C7 C 0.3235(5) 0.4777(4) 0.08011(19)
H13 H 0.3939 0.5161 0.1068
H14 H 0.3761 0.4714 0.0413
C8 C 0.2907(6) 0.3754(4) 0.10550(19)
H15 H 0.2160 0.3388 0.0796
H16 H 0.3904 0.3365 0.1078
C9 C 0.1869(6) 0.2907(3) 0.1902(2)
H17 H 0.2836 0.2490 0.1931
H18 H 0.1082 0.2543 0.1658
C10 C 0.1208(6) 0.3092(4) 0.2507(2)
H19 H 0.1128 0.2451 0.2725
H20 H 0.1920 0.3545 0.2730
C11 C -0.1054(6) 0.3763(4) 0.3006(2)
H21 H -0.0490 0.4326 0.3199
H22 H -0.0995 0.3171 0.3268
C12 C -0.2778(6) 0.4047(4) 0.2898(2)
H23 H -0.3315 0.3508 0.2673
H24 H -0.3331 0.4127 0.3280
C13 C 0.3545(4) 0.6152(3) 0.41369(15)
C14 C 0.2763(4) 0.6752(2) 0.37046(14)
C15 C 0.2118(5) 0.6326(3) 0.31712(16)
C16 C 0.2502(5) 0.7801(3) 0.38195(16)
K1B K 1.04263(11) 0.48050(6) 0.82976(4)
K1A K 0.04263(11) 1.01950(6) 0.32976(4)
K1C K 0.95737(11) -0.01950(6) 0.67024(4)
N1B N 0.8421(4) 0.3991(2) 0.72644(14)
N2B N 0.7712(5) 0.1348(3) 0.60880(16)
N2A N -0.2288(5) 0.3652(3) 0.10880(16)
N2C N 1.2288(5) 0.6348(3) 0.89120(16)
O1B O 1.2843(4) 0.5024(2) 0.74305(13)
O2B O 1.3427(4) 0.3837(2) 0.84527(14)
O3B O 1.0790(4) 0.3238(2) 0.91659(13)
O4B O 0.8272(4) 0.4716(2) 0.92633(12)
O5B O 0.7758(3) 0.6143(2) 0.83687(12)
O6B O 1.0334(4) 0.6460(2) 0.75501(12)
S1B S 0.61225(13) 0.51415(7) 0.59038(4)
S2B S 0.56963(13) 0.33993(7) 0.51907(4)
C1B C 1.4432(6) 0.4816(4) 0.7648(2)
H1B H 1.5184 0.4809 0.7313
H2B H 1.4763 0.5352 0.7924
C2B C 1.4478(6) 0.3818(4) 0.7959(2)
H3B H 1.5570 0.3676 0.8095
H4B H 1.4155 0.3280 0.7682
C3B C 1.3468(6) 0.2943(4) 0.8804(2)
H5B H 1.3095 0.2364 0.8568
H6B H 1.4568 0.2806 0.8934
C4B C 1.2412(6) 0.3083(4) 0.9337(2)
H7B H 1.2785 0.3668 0.9568
H8B H 1.2484 0.2483 0.9592
C5B C 0.9746(6) 0.3353(4) 0.9669(2)
H9B H 0.9640 0.2702 0.9875
H10B H 1.0212 0.3841 0.9950
C6B C 0.8137(6) 0.3713(4) 0.9478(2)
H11B H 0.7396 0.3692 0.9815
H12B H 0.7718 0.3271 0.9163
C7B C 0.6765(5) 0.5223(4) 0.91989(19)
H13B H 0.6061 0.4839 0.8932
H14B H 0.6239 0.5286 0.9587
C8B C 0.7093(6) 0.6246(4) 0.89450(19)
H15B H 0.7840 0.6612 0.9204
H16B H 0.6096 0.6635 0.8922
C9B C 0.8131(6) 0.7093(3) 0.8098(2)
H17B H 0.7164 0.7510 0.8069
H18B H 0.8918 0.7457 0.8342
C10B C 0.8792(6) 0.6908(4) 0.7493(2)
H19B H 0.8872 0.7549 0.7275
H20B H 0.8080 0.6455 0.7270
C11B C 1.1054(6) 0.6237(4) 0.6994(2)
H21B H 1.0490 0.5674 0.6801
H22B H 1.0995 0.6829 0.6732
C12B C 1.2778(6) 0.5953(4) 0.7102(2)
H23B H 1.3315 0.6492 0.7327
H24B H 1.3331 0.5873 0.6720
C13B C 0.6455(4) 0.3848(3) 0.58631(15)
C14B C 0.7237(4) 0.3248(2) 0.62954(14)
C15B C 0.7882(5) 0.3674(3) 0.68288(16)
C16B C 0.7498(5) 0.2199(3) 0.61805(16)
Cl1 Cl 0.11657(19) 0.41379(12) 0.56953(7)
C17 C 0.0361(7) 0.5200(4) 0.5271(2)
H25 H -0.0443 0.5560 0.5507
H26 H 0.1220 0.5676 0.5171
Cl1B Cl -0.11657(19) 0.58621(12) 0.43047(7)
C17B C -0.0361(7) 0.4800(4) 0.4729(2)
H25B H 0.0443 0.4440 0.4493
H26B H -0.1220 0.4324 0.4829
loop_
_geom_bond_atom_site_label_1
_geom_bond_atom_site_label_2
_geom_bond_site_symmetry_1
_geom_bond_site_symmetry_2
Ni1 S1 1_555 1_555
K1 N1 1_555 1_555
Cl1 C17 1_555 1_555
N1 C15 1_555 1_555
N2 C16 1_555 1_555
O1 K1 1_555 1_555
O2 K1 1_555 1_555
O3 K1 1_555 1_555
O4 K1 1_555 1_555
O5 K1 1_555 1_555
O6 K1 1_555 1_555
S1 C13 1_555 1_555
S2 Ni1 1_555 1_555
C1 O1 1_555 1_555
H1 C1 1_555 1_555
H2 C1 1_555 1_555
C2 O2 1_555 1_555
H3 C2 1_555 1_555
H4 C2 1_555 1_555
C3 O2 1_555 1_555
H5 C3 1_555 1_555
H6 C3 1_555 1_555
C4 O3 1_555 1_555
H7 C4 1_555 1_555
H8 C4 1_555 1_555
C5 O3 1_555 1_555
H9 C5 1_555 1_555
H10 C5 1_555 1_555
C6 O4 1_555 1_555
H11 C6 1_555 1_555
H12 C6 1_555 1_555
C7 O4 1_555 1_555
H13 C7 1_555 1_555
H14 C7 1_555 1_555
C8 O5 1_555 1_555
H15 C8 1_555 1_555
H16 C8 1_555 1_555
C9 O5 1_555 1_555
H17 C9 1_555 1_555
H18 C9 1_555 1_555
C10 O6 1_555 1_555
H19 C10 1_555 1_555
H20 C10 1_555 1_555
C11 O6 1_555 1_555
H21 C11 1_555 1_555
H22 C11 1_555 1_555
C12 O1 1_555 1_555
H23 C12 1_555 1_555
H24 C12 1_555 1_555
C13 S2 1_555 1_555
C14 C13 1_555 1_555
C15 C14 1_555 1_555
C16 C14 1_555 1_555
C17 H25 1_555 1_555
H26 C17 1_555 1_555
K1B N1B 1_555 1_555
K1A N2 1_555 1_555
K1C N2B 1_555 1_555
Cl1B C17B 1_555 1_555
N1B C15B 1_555 1_555
N2B C16B 1_555 1_555
N2A K1 1_555 1_555
N2C K1B 1_555 1_555
O1B K1B 1_555 1_555
O2B K1B 1_555 1_555
O3B K1B 1_555 1_555
O4B K1B 1_555 1_555
O5B K1B 1_555 1_555
O6B K1B 1_555 1_555
S1B Ni1 1_555 1_555
S2B Ni1 1_555 1_555
C1B O1B 1_555 1_555
H1B C1B 1_555 1_555
H2B C1B 1_555 1_555
C2B O2B 1_555 1_555
H3B C2B 1_555 1_555
H4B C2B 1_555 1_555
C3B O2B 1_555 1_555
H5B C3B 1_555 1_555
H6B C3B 1_555 1_555
C4B O3B 1_555 1_555
H7B C4B 1_555 1_555
H8B C4B 1_555 1_555
C5B O3B 1_555 1_555
H9B C5B 1_555 1_555
H10B C5B 1_555 1_555
C6B O4B 1_555 1_555
H11B C6B 1_555 1_555
H12B C6B 1_555 1_555
C7B O4B 1_555 1_555
H13B C7B 1_555 1_555
H14B C7B 1_555 1_555
C8B O5B 1_555 1_555
H15B C8B 1_555 1_555
H16B C8B 1_555 1_555
C9B O5B 1_555 1_555
H17B C9B 1_555 1_555
H18B C9B 1_555 1_555
C10B O6B 1_555 1_555
H19B C10B 1_555 1_555
H20B C10B 1_555 1_555
C11B O6B 1_555 1_555
H21B C11B 1_555 1_555
H22B C11B 1_555 1_555
C12B O1B 1_555 1_555
H23B C12B 1_555 1_555
H24B C12B 1_555 1_555
C13B S1B 1_555 1_555
C14B C13B 1_555 1_555
C15B C14B 1_555 1_555
C16B C14B 1_555 1_555
C17B C17 1_555 1_555
H25B C17B 1_555 1_555
H26B C17B 1_555 1_555
C1 C2 1_555 1_555
C3 C4 1_555 1_555
C5 C6 1_555 1_555
C7 C8 1_555 1_555
C9 C10 1_555 1_555
C11 C12 1_555 1_555
S2B C13B 1_555 1_555
C1B C2B 1_555 1_555
C3B C4B 1_555 1_555
C5B C6B 1_555 1_555
C7B C8B 1_555 1_555
C9B C10B 1_555 1_555
C11B C12B 1_555 1_555

#END
