
#######################################################################
#
#                 Cambridge Crystallographic Data Centre
#                                CCDC 
#
#######################################################################
#
# If this CIF has been generated from an entry in the Cambridge 
# Structural Database, then it will include bibliographic, chemical, 
# crystal, experimental, refinement or atomic coordinate data resulting 
# from the CCDC's data processing and validation procedures.
#
#######################################################################

data_UFALES
_symmetry_cell_setting           monoclinic
_symmetry_space_group_name_H-M   'P 21/n'
_symmetry_Int_Tables_number      14
_space_group_name_Hall           '-P 2yn'
loop_
_symmetry_equiv_pos_site_id
_symmetry_equiv_pos_as_xyz
1 x,y,z
2 1/2+x,1/2-y,1/2+z
3 -x,-y,-z
4 1/2-x,1/2+y,1/2-z
_cell_length_a                   11.0950(10)
_cell_length_b                   12.917(2)
_cell_length_c                   11.2940(10)
_cell_angle_alpha                90
_cell_angle_beta                 104.210(10)
_cell_angle_gamma                90
_cell_volume                     1569.06
loop_
_atom_site_label
_atom_site_type_symbol
_atom_site_fract_x
_atom_site_fract_y
_atom_site_fract_z
Cu1 Cu -0.35816(2) -0.272250(19) -0.42098(2)
O1 O -0.19115(13) -0.07694(11) -0.13299(12)
O2 O -0.03284(13) -0.04383(12) -0.21455(13)
O3 O -0.18354(16) 0.11630(12) -0.45716(13)
O4 O -0.25690(14) 0.14781(11) -0.29495(13)
O5 O -0.47871(18) -0.19667(16) -0.62147(17)
N1 N -0.30305(16) -0.38833(13) -0.51142(15)
H1 H -0.3150 -0.4492 -0.4772
H2 H -0.3476 -0.3885 -0.5896
N2 N -0.19467(15) -0.20459(12) -0.42505(14)
H3 H -0.1407 -0.2171 -0.3517
N3 N -0.40104(13) -0.15723(12) -0.32004(13)
H4 H -0.3574 -0.1701 -0.2421
N4 N -0.51631(15) -0.33851(13) -0.40356(15)
H5 H -0.5739 -0.3362 -0.4752
H6 H -0.5025 -0.4053 -0.3816
C1 C -0.1702(2) -0.37455(17) -0.5065(2)
H7 H -0.1485 -0.4128 -0.5722
H8 H -0.1198 -0.4000 -0.4294
C2 C -0.1474(2) -0.26091(17) -0.5193(2)
H9 H -0.0592 -0.2480 -0.5080
H10 H -0.1903 -0.2373 -0.6003
C3 C -0.19580(18) -0.09129(15) -0.44559(17)
H11 H -0.2520 -0.0757 -0.5239
H12 H -0.1132 -0.0691 -0.4490
C4 C -0.23593(17) -0.03035(15) -0.34602(16)
C5 C -0.37174(17) -0.04922(15) -0.34549(18)
H13 H -0.3929 -0.0046 -0.2845
H14 H -0.4238 -0.0293 -0.4244
C6 C -0.53313(18) -0.16822(16) -0.3195(2)
H15 H -0.5854 -0.1400 -0.3943
H16 H -0.5500 -0.1306 -0.2510
C7 C -0.5608(2) -0.28154(17) -0.3093(2)
H17 H -0.5192 -0.3069 -0.2288
H18 H -0.6496 -0.2918 -0.3210
C8 C -0.14581(17) -0.05329(14) -0.22056(17)
C9 C -0.22364(18) 0.08844(15) -0.36823(17)
H19 H -0.5552(9) -0.192(2) -0.648(2)
H20 H -0.4454(19) -0.173(2) -0.6734(19)
Cu1C Cu -0.14184(2) 0.227750(19) -0.07902(2)
O4C O -0.24310(14) -0.35219(11) -0.20505(13)
O6 O -0.68027(17) 0.44558(18) -0.19797(16)
H21 H -0.6092(13) 0.455(2) -0.207(2)
H22 H -0.676(2) 0.421(2) -0.1305(15)
O7 O -0.86770(19) 0.59442(18) -0.28242(18)
H23 H -0.8073(17) 0.5577(18) -0.255(2)
H24 H -0.864(2) 0.620(2) -0.3474(15)
O8 O -0.14949(16) 0.32544(14) -0.48996(16)
H25 H -0.1929(19) 0.3602(14) -0.457(2)
H26 H -0.162(3) 0.2637(7) -0.484(3)
loop_
_geom_bond_atom_site_label_1
_geom_bond_atom_site_label_2
_geom_bond_site_symmetry_1
_geom_bond_site_symmetry_2
Cu1 O5 1_555 1_555
O1 C8 1_555 1_555
O2 C8 1_555 1_555
O3 C9 1_555 1_555
O4 C9 1_555 1_555
O5 H19 1_555 1_555
O6 H21 1_555 1_555
O7 H23 1_555 1_555
O8 H25 1_555 1_555
N1 Cu1 1_555 1_555
H1 N1 1_555 1_555
H2 N1 1_555 1_555
N2 Cu1 1_555 1_555
H3 N2 1_555 1_555
N3 Cu1 1_555 1_555
H4 N3 1_555 1_555
N4 Cu1 1_555 1_555
H5 N4 1_555 1_555
H6 N4 1_555 1_555
C1 N1 1_555 1_555
H7 C1 1_555 1_555
H8 C1 1_555 1_555
C2 N2 1_555 1_555
H9 C2 1_555 1_555
H10 C2 1_555 1_555
C3 N2 1_555 1_555
H11 C3 1_555 1_555
H12 C3 1_555 1_555
C4 C3 1_555 1_555
C5 N3 1_555 1_555
H13 C5 1_555 1_555
H14 C5 1_555 1_555
C6 N3 1_555 1_555
H15 C6 1_555 1_555
H16 C6 1_555 1_555
C7 N4 1_555 1_555
H17 C7 1_555 1_555
H18 C7 1_555 1_555
C8 C4 1_555 1_555
C9 C4 1_555 1_555
H20 O5 1_555 1_555
H22 O6 1_555 1_555
H24 O7 1_555 1_555
H26 O8 1_555 1_555
Cu1C O4 1_555 1_555
O4C Cu1 1_555 1_555
C1 C2 1_555 1_555
C4 C5 1_555 1_555
C6 C7 1_555 1_555

#END
