
#######################################################################
#
#                 Cambridge Crystallographic Data Centre
#                                CCDC 
#
#######################################################################
#
# If this CIF has been generated from an entry in the Cambridge 
# Structural Database, then it will include bibliographic, chemical, 
# crystal, experimental, refinement or atomic coordinate data resulting 
# from the CCDC's data processing and validation procedures.
#
#######################################################################

data_UFANEU
_symmetry_cell_setting           monoclinic
_symmetry_space_group_name_H-M   'P 21/n'
_symmetry_Int_Tables_number      14
_space_group_name_Hall           '-P 2yn'
loop_
_symmetry_equiv_pos_site_id
_symmetry_equiv_pos_as_xyz
1 x,y,z
2 1/2+x,1/2-y,1/2+z
3 -x,-y,-z
4 1/2-x,1/2+y,1/2-z
_cell_length_a                   19.872(4)
_cell_length_b                   7.242(3)
_cell_length_c                   20.776(4)
_cell_angle_alpha                90
_cell_angle_beta                 96.47(2)
_cell_angle_gamma                90
_cell_volume                     2970.89
loop_
_atom_site_label
_atom_site_type_symbol
_atom_site_fract_x
_atom_site_fract_y
_atom_site_fract_z
Zn1 Zn 0.39288(3) 0.23144(8) 0.23884(3)
Fe1 Fe 0.55358(4) 0.7189(1) 0.17864(4)
Fe2 Fe 0.16712(4) 0.2217(1) 0.10257(4)
N1 N 0.3062(3) 0.2100(7) 0.1806(2)
N2 N 0.4412(3) 0.4419(8) 0.1899(3)
N3 N 0.4598(3) 0.0403(7) 0.2075(3)
N4 N 0.5884(4) 0.674(1) 0.3244(3)
N5 N 0.6362(3) 0.3716(8) 0.1566(3)
N6 N 0.3725(3) 0.0381(7) 0.3103(3)
N7 N 0.2028(4) -0.1214(9) 0.0264(3)
N8 N 0.3772(3) 0.4374(8) 0.3030(3)
N9 N 0.5368(3) 0.7571(6) 0.0841(2)
N10 N 0.6351(3) 0.8645(7) 0.1658(3)
N11 N 0.0784(2) 0.2411(6) 0.0497(2)
N12 N 0.1947(3) 0.3688(7) 0.0298(2)
C1 C 0.2544(3) 0.2123(8) 0.1514(3)
C2 C 0.4819(3) 0.5529(9) 0.1854(3)
C3 C 0.4962(3) -0.0719(9) 0.1955(3)
C4 C 0.5745(3) 0.6900(9) 0.2694(3)
C5 C 0.6064(3) 0.5009(8) 0.1654(3)
C6 C 0.3568(3) -0.0722(8) 0.3440(3)
C7 C 0.1891(3) 0.0055(8) 0.0548(3)
C8 C 0.3618(3) 0.5494(8) 0.3365(3)
C9 C 0.4797(4) 0.7052(9) 0.0468(4)
C10 C 0.4744(5) 0.726(1) -0.0188(4)
C11 C 0.5273(7) 0.797(1) -0.0471(4)
C12 C 0.5847(5) 0.851(1) -0.0104(4)
C13 C 0.5889(4) 0.8333(8) 0.0571(3)
C14 C 0.6440(3) 0.8924(8) 0.1036(4)
C15 C 0.7027(4) 0.967(1) 0.0859(5)
C16 C 0.7544(5) 1.012(1) 0.1319(6)
C17 C 0.7441(4) 0.985(1) 0.1962(6)
C18 C 0.6841(4) 0.914(1) 0.2108(4)
C19 C 0.0192(3) 0.1927(8) 0.0678(3)
C20 C -0.0403(3) 0.2035(8) 0.0270(3)
C21 C -0.0374(3) 0.2660(9) -0.0350(3)
C22 C 0.0233(3) 0.3205(8) -0.0542(3)
C23 C 0.0812(3) 0.3110(7) -0.0102(3)
C24 C 0.1469(3) 0.3792(8) -0.0216(3)
C25 C 0.1626(4) 0.4556(9) -0.0794(3)
C26 C 0.2265(4) 0.5183(9) -0.0838(4)
C27 C 0.2736(4) 0.5102(9) -0.0314(4)
C28 C 0.2564(3) 0.4347(9) 0.0257(4)
H1 H 0.4410 0.6527 0.0687
H2 H 0.4305 0.6898 -0.0470
H3 H 0.5247 0.8074 -0.0958
H4 H 0.6258 0.9053 -0.0305
H5 H 0.7072 0.9868 0.0377
H6 H 0.7991 1.0616 0.1197
H7 H 0.7820 1.0185 0.2316
H8 H 0.6770 0.8978 0.2594
H9 H 0.0177 0.1451 0.1139
H10 H -0.0847 0.1653 0.0422
H11 H -0.0804 0.2714 -0.0668
H12 H 0.0272 0.3659 -0.0997
H13 H 0.1267 0.4658 -0.1181
H14 H 0.2394 0.5706 -0.1262
H15 H 0.3216 0.5600 -0.0338
H16 H 0.2925 0.4252 0.0648
C6C C 0.1432(3) 0.4278(8) 0.1560(3)
Fe2C Fe 0.33288(4) 0.7217(1) 0.39743(4)
C8C C 0.1382(3) 0.0494(8) 0.1635(3)
C3_2 C 0.4962(3) 0.9281(9) 0.1955(3)
Fe1_2 Fe 0.55358(4) -0.2811(1) 0.17864(4)
Fe2C_2 Fe 0.33288(4) -0.2783(1) 0.39743(4)
O1 O 0.927(1) 0.745(2) 0.2000(6)
O2 O 0.3387(5) 0.784(1) 0.1012(7)
loop_
_geom_bond_atom_site_label_1
_geom_bond_atom_site_label_2
_geom_bond_site_symmetry_1
_geom_bond_site_symmetry_2
Zn1 N1 1_555 1_555
Fe1 N9 1_555 1_555
Fe2 N11 1_555 1_555
N1 C1 1_555 1_555
N2 Zn1 1_555 1_555
N3 Zn1 1_555 1_555
N4 C4 1_555 1_555
N5 C5 1_555 1_555
N6 Zn1 1_555 1_555
N7 C7 1_555 1_555
N8 Zn1 1_555 1_555
N9 C9 1_555 1_555
N10 Fe1 1_555 1_555
N11 C19 1_555 1_555
N12 Fe2 1_555 1_555
C1 Fe2 1_555 1_555
C2 Fe1 1_555 1_555
C3 N3 1_555 1_555
C4 Fe1 1_555 1_555
C5 Fe1 1_555 1_555
C6 N6 1_555 1_555
C7 Fe2 1_555 1_555
C8 N8 1_555 1_555
C9 C10 1_555 1_555
C10 C11 1_555 1_555
C11 C12 1_555 1_555
C12 C13 1_555 1_555
C13 N9 1_555 1_555
C14 N10 1_555 1_555
C15 C14 1_555 1_555
C16 C15 1_555 1_555
C17 C16 1_555 1_555
C18 N10 1_555 1_555
C19 C20 1_555 1_555
C20 C21 1_555 1_555
C21 C22 1_555 1_555
C22 C23 1_555 1_555
C23 N11 1_555 1_555
C24 N12 1_555 1_555
C25 C24 1_555 1_555
C26 C25 1_555 1_555
C27 C26 1_555 1_555
C28 N12 1_555 1_555
H1 C9 1_555 1_555
H2 C10 1_555 1_555
H3 C11 1_555 1_555
H4 C12 1_555 1_555
H5 C15 1_555 1_555
H6 C16 1_555 1_555
H7 C17 1_555 1_555
H8 C18 1_555 1_555
H9 C19 1_555 1_555
H10 C20 1_555 1_555
H11 C21 1_555 1_555
H12 C22 1_555 1_555
H13 C25 1_555 1_555
H14 C26 1_555 1_555
H15 C27 1_555 1_555
H16 C28 1_555 1_555
C6C Fe2 1_555 1_555
Fe2C C8 1_555 1_555
C8C Fe2 1_555 1_555
C3_2 Fe1 1_555 1_555
Fe1_2 C3 1_555 1_555
Fe2C_2 C6 1_555 1_555
N2 C2 1_555 1_555
C13 C14 1_555 1_555
C17 C18 1_555 1_555
C23 C24 1_555 1_555
C27 C28 1_555 1_555

#END
