
#######################################################################
#
#                 Cambridge Crystallographic Data Centre
#                                CCDC 
#
#######################################################################
#
# If this CIF has been generated from an entry in the Cambridge 
# Structural Database, then it will include bibliographic, chemical, 
# crystal, experimental, refinement or atomic coordinate data resulting 
# from the CCDC's data processing and validation procedures.
#
#######################################################################

data_UFANIZ
_symmetry_cell_setting           monoclinic
_symmetry_space_group_name_H-M   'P 21/c'
_symmetry_Int_Tables_number      14
_space_group_name_Hall           '-P 2ybc'
loop_
_symmetry_equiv_pos_site_id
_symmetry_equiv_pos_as_xyz
1 x,y,z
2 -x,1/2+y,1/2-z
3 -x,-y,-z
4 x,1/2-y,1/2+z
_cell_length_a                   5.9929(19)
_cell_length_b                   21.444(7)
_cell_length_c                   12.941(4)
_cell_angle_alpha                90
_cell_angle_beta                 100.000(6)
_cell_angle_gamma                90
_cell_volume                     1637.8
loop_
_atom_site_label
_atom_site_type_symbol
_atom_site_fract_x
_atom_site_fract_y
_atom_site_fract_z
Co1 Co 0.0000 0.5000 0.5000
F1 F 0.7082(4) 0.75015(11) 0.6509(2)
O1 O -0.2117(4) 0.49855(11) 0.60796(18)
O2 O -0.3630(5) 0.51763(14) 0.7489(2)
O3 O 0.1497(4) 0.57748(11) 0.57773(18)
N1 N 0.0061(5) 0.67336(14) 0.8333(2)
N2 N 0.2771(5) 0.74823(13) 0.8144(2)
N3 N 0.5385(5) 0.82611(13) 0.8024(2)
N4 N 0.7445(5) 0.94221(13) 0.8923(2)
H1 H 0.6350 0.9699 0.8596
C1 C -0.2258(6) 0.52957(16) 0.6897(3)
C2 C -0.0717(6) 0.58516(15) 0.7163(3)
C3 C 0.1028(5) 0.60363(15) 0.6586(2)
C4 C 0.2291(6) 0.65877(15) 0.6987(3)
C5 C 0.1775(6) 0.69436(15) 0.7821(3)
C6 C -0.1066(6) 0.62088(16) 0.8003(3)
H2 H -0.2200 0.6073 0.8382
C7 C 0.4150(6) 0.67974(16) 0.6554(3)
H3 H 0.4659 0.6563 0.6016
C8 C 0.5207(6) 0.73289(16) 0.6899(3)
C9 C 0.4447(6) 0.77050(16) 0.7682(3)
C10 C -0.0428(7) 0.70562(18) 0.9280(3)
H4 H -0.2044 0.6997 0.9330
H5 H -0.0157 0.7509 0.9217
C11 C 0.1017(9) 0.6815(3) 1.0257(4)
H6 H 0.0652 0.6376 1.0356
H7 H 0.0729 0.7058 1.0861
H8 H 0.2618 0.6852 1.0195
C12 C 0.4430(6) 0.86036(17) 0.8834(3)
H9 H 0.3759 0.8305 0.9276
H10 H 0.3213 0.8886 0.8493
C13 C 0.6263(6) 0.89811(16) 0.9515(3)
H11 H 0.5570 0.9217 1.0036
H12 H 0.7389 0.8691 0.9905
C14 C 0.6436(7) 0.87004(17) 0.7375(3)
H13 H 0.5268 0.8985 0.6999
H14 H 0.7115 0.8467 0.6847
C15 C 0.8267(6) 0.90781(18) 0.8076(3)
H15 H 0.9492 0.8792 0.8393
H16 H 0.8928 0.9380 0.7634
Co1C Co 1.0000 1.0000 1.0000
Co1C_2 Co -1.0000 0.0000 0.0000
F1B F -0.7082(4) 0.24985(11) 0.3491(2)
O1B O 0.2117(4) 0.50145(11) 0.39204(18)
O2B O 0.3630(5) 0.48237(14) 0.2511(2)
O3B O -0.1497(4) 0.42252(11) 0.42227(18)
N1B N -0.0061(5) 0.32664(14) 0.1667(2)
N2B N -0.2771(5) 0.25177(13) 0.1856(2)
N3B N -0.5385(5) 0.17389(13) 0.1976(2)
N4B N -0.7445(5) 0.05779(13) 0.1077(2)
N4C N -0.2555(5) 0.55779(13) 0.3923(2)
N4A N 0.2555(5) 0.44221(13) 0.6077(2)
H1B H -0.6350 0.0301 0.1404
H1C H -0.3650 0.5301 0.3596
H1A H 0.3650 0.4699 0.6404
C1B C 0.2258(6) 0.47043(16) 0.3103(3)
C2B C 0.0717(6) 0.41484(15) 0.2837(3)
C3B C -0.1028(5) 0.39637(15) 0.3414(2)
C4B C -0.2291(6) 0.34123(15) 0.3013(3)
C5B C -0.1775(6) 0.30564(15) 0.2179(3)
C6B C 0.1066(6) 0.37912(16) 0.1997(3)
H2B H 0.2200 0.3927 0.1618
C7B C -0.4150(6) 0.32026(16) 0.3446(3)
H3B H -0.4659 0.3437 0.3984
C8B C -0.5207(6) 0.26711(16) 0.3101(3)
C9B C -0.4447(6) 0.22950(16) 0.2318(3)
C10B C 0.0428(7) 0.29438(18) 0.0720(3)
H4B H 0.2044 0.3003 0.0670
H5B H 0.0157 0.2491 0.0783
C11B C -0.1017(9) 0.3185(3) -0.0257(4)
H6B H -0.0652 0.3624 -0.0356
H7B H -0.0729 0.2942 -0.0861
H8B H -0.2618 0.3148 -0.0195
C12B C -0.4430(6) 0.13964(17) 0.1166(3)
H9B H -0.3759 0.1695 0.0724
H10B H -0.3213 0.1114 0.1507
C13B C -0.6263(6) 0.10189(16) 0.0485(3)
H11B H -0.5570 0.0783 -0.0036
H12B H -0.7389 0.1309 0.0095
C14B C -0.6436(7) 0.12996(17) 0.2625(3)
H13B H -0.5268 0.1015 0.3001
H14B H -0.7115 0.1533 0.3153
C15B C -0.8267(6) 0.09219(18) 0.1924(3)
H15B H -0.9492 0.1208 0.1607
H16B H -0.8928 0.0620 0.2366
O4 O 0.444(3) 0.5623(8) 0.9211(12)
C16 C 0.642(4) 0.5217(11) 0.9551(19)
C17 C 0.863(3) 0.4826(8) 0.9615(13)
loop_
_geom_bond_atom_site_label_1
_geom_bond_atom_site_label_2
_geom_bond_site_symmetry_1
_geom_bond_site_symmetry_2
Co1 O1 1_555 1_555
F1 C8 1_555 1_555
O1 C1 1_555 1_555
O2 C1 1_555 1_555
O3 Co1 1_555 1_555
O4 C16 1_555 1_555
N1 C5 1_555 1_555
N2 C5 1_555 1_555
N3 C9 1_555 1_555
N4 H1 1_555 1_555
C1 C2 1_555 1_555
C2 C3 1_555 1_555
C3 O3 1_555 1_555
C4 C3 1_555 1_555
C5 C4 1_555 1_555
C6 N1 1_555 1_555
H2 C6 1_555 1_555
C7 C4 1_555 1_555
H3 C7 1_555 1_555
C8 C7 1_555 1_555
C9 N2 1_555 1_555
C10 N1 1_555 1_555
H4 C10 1_555 1_555
H5 C10 1_555 1_555
C11 C10 1_555 1_555
H6 C11 1_555 1_555
H7 C11 1_555 1_555
H8 C11 1_555 1_555
C12 N3 1_555 1_555
H9 C12 1_555 1_555
H10 C12 1_555 1_555
C13 N4 1_555 1_555
H11 C13 1_555 1_555
H12 C13 1_555 1_555
C14 N3 1_555 1_555
H13 C14 1_555 1_555
H14 C14 1_555 1_555
C15 N4 1_555 1_555
H15 C15 1_555 1_555
H16 C15 1_555 1_555
C16 C17 1_555 1_555
Co1C N4 1_555 1_555
Co1C_2 N4B 1_555 1_555
F1B C8B 1_555 1_555
O1B Co1 1_555 1_555
O2B C1B 1_555 1_555
O3B Co1 1_555 1_555
N1B C5B 1_555 1_555
N2B C5B 1_555 1_555
N3B C9B 1_555 1_555
N4B H1B 1_555 1_555
N4C Co1 1_555 1_555
N4A Co1 1_555 1_555
H1C N4C 1_555 1_555
H1A N4A 1_555 1_555
C1B O1B 1_555 1_555
C2B C1B 1_555 1_555
C3B O3B 1_555 1_555
C4B C3B 1_555 1_555
C5B C4B 1_555 1_555
C6B N1B 1_555 1_555
H2B C6B 1_555 1_555
C7B C4B 1_555 1_555
H3B C7B 1_555 1_555
C8B C7B 1_555 1_555
C9B N2B 1_555 1_555
C10B N1B 1_555 1_555
H4B C10B 1_555 1_555
H5B C10B 1_555 1_555
C11B C10B 1_555 1_555
H6B C11B 1_555 1_555
H7B C11B 1_555 1_555
H8B C11B 1_555 1_555
C12B N3B 1_555 1_555
H9B C12B 1_555 1_555
H10B C12B 1_555 1_555
C13B N4B 1_555 1_555
H11B C13B 1_555 1_555
H12B C13B 1_555 1_555
C14B N3B 1_555 1_555
H13B C14B 1_555 1_555
H14B C14B 1_555 1_555
C15B N4B 1_555 1_555
H15B C15B 1_555 1_555
H16B C15B 1_555 1_555
C2 C6 1_555 1_555
C8 C9 1_555 1_555
C12 C13 1_555 1_555
C14 C15 1_555 1_555
C2B C3B 1_555 1_555
C2B C6B 1_555 1_555
C8B C9B 1_555 1_555
C12B C13B 1_555 1_555
C14B C15B 1_555 1_555

#END
