
#######################################################################
#
#                 Cambridge Crystallographic Data Centre
#                                CCDC 
#
#######################################################################
#
# If this CIF has been generated from an entry in the Cambridge 
# Structural Database, then it will include bibliographic, chemical, 
# crystal, experimental, refinement or atomic coordinate data resulting 
# from the CCDC's data processing and validation procedures.
#
#######################################################################

data_UFANAS
_symmetry_cell_setting           monoclinic
_symmetry_space_group_name_H-M   'P 21/n'
_symmetry_Int_Tables_number      14
_space_group_name_Hall           '-P 2yn'
loop_
_symmetry_equiv_pos_site_id
_symmetry_equiv_pos_as_xyz
1 x,y,z
2 1/2-x,1/2+y,1/2-z
3 -x,-y,-z
4 1/2+x,1/2-y,1/2+z
_cell_length_a                   12.8930(7)
_cell_length_b                   19.1972(12)
_cell_length_c                   16.0167(9)
_cell_angle_alpha                90
_cell_angle_beta                 100.595(4)
_cell_angle_gamma                90
_cell_volume                     3896.7
loop_
_atom_site_label
_atom_site_type_symbol
_atom_site_fract_x
_atom_site_fract_y
_atom_site_fract_z
U1 U 0.87940(2) 0.756084(13) 0.041755(17)
Rb1 Rb 0.63070(5) 0.75297(4) -0.20856(4)
I1 I 0.47114(4) 0.85253(3) -0.10820(3)
I2 I 0.77162(4) 0.86432(3) -0.32274(3)
O1 O 0.7815(4) 0.7547(3) -0.0589(3)
O2 O 0.9777(4) 0.7589(3) 0.1401(3)
N1 N 0.7872(5) 0.8624(3) 0.0991(4)
N2 N 0.9633(5) 0.8665(3) -0.0118(4)
N3 N 1.0220(5) 0.7191(3) -0.0458(4)
N4 N 0.8838(5) 0.6213(3) 0.0414(4)
N5 N 0.7325(5) 0.7109(3) 0.1191(4)
N6 N 0.7695(6) 0.6231(4) -0.2749(4)
N7 N 0.5250(5) 0.6359(3) -0.1434(4)
C1 C 0.8062(6) 0.8761(4) 0.1832(5)
H1 H 0.8553 0.8490 0.2187
C2 C 0.7555(6) 0.9290(4) 0.2186(5)
H2 H 0.7695 0.9366 0.2770
C3 C 0.6831(6) 0.9706(4) 0.1656(5)
H3 H 0.6477 1.0064 0.1877
C4 C 0.6654(6) 0.9574(4) 0.0800(5)
H4 H 0.6181 0.9849 0.0433
C5 C 0.7175(6) 0.9033(4) 0.0478(5)
H5 H 0.7042 0.8950 -0.0104
C6 C 0.9275(6) 0.8900(4) -0.0909(5)
H6 H 0.8644 0.8720 -0.1205
C7 C 0.9792(7) 0.9394(4) -0.1304(5)
H7 H 0.9507 0.9549 -0.1848
C8 C 1.0745(6) 0.9655(4) -0.0875(5)
H8 H 1.1125 0.9977 -0.1131
C9 C 1.1119(6) 0.9422(4) -0.0049(6)
H9 H 1.1748 0.9595 0.0260
C10 C 1.0550(6) 0.8936(4) 0.0301(5)
H10 H 1.0806 0.8786 0.0853
C11 C 1.1258(6) 0.7329(4) -0.0156(5)
H11 H 1.1452 0.7471 0.0407
C12 C 1.2021(7) 0.7272(4) -0.0631(5)
H12 H 1.2717 0.7386 -0.0406
C13 C 1.1747(7) 0.7042(4) -0.1449(5)
H13 H 1.2256 0.7008 -0.1791
C14 C 1.0723(7) 0.6862(4) -0.1765(5)
H14 H 1.0537 0.6680 -0.2310
C15 C 0.9970(6) 0.6956(4) -0.1263(5)
H15 H 0.9269 0.6854 -0.1488
C16 C 0.9496(6) 0.5836(4) 0.1001(5)
H16 H 0.9989 0.6067 0.1403
C17 C 0.9456(7) 0.5110(4) 0.1019(6)
H17 H 0.9916 0.4863 0.1430
C18 C 0.8743(6) 0.4763(4) 0.0434(5)
H18 H 0.8715 0.4278 0.0438
C19 C 0.8057(6) 0.5142(4) -0.0169(5)
H19 H 0.7559 0.4917 -0.0573
C20 C 0.8131(6) 0.5858(4) -0.0154(5)
H20 H 0.7669 0.6110 -0.0557
C21 C 0.7563(6) 0.6765(4) 0.1934(5)
H21 H 0.8269 0.6679 0.2159
C22 C 0.6806(6) 0.6535(4) 0.2377(5)
H22 H 0.7001 0.6306 0.2894
C23 C 0.5767(7) 0.6647(4) 0.2047(5)
H23 H 0.5243 0.6490 0.2329
C24 C 0.5508(6) 0.7002(4) 0.1277(5)
H24 H 0.4806 0.7089 0.1041
C25 C 0.6305(6) 0.7223(4) 0.0869(5)
H25 H 0.6128 0.7459 0.0355
C26 C 0.8144(7) 0.6543(5) -0.3329(6)
H26 H 0.8025 0.7017 -0.3418
C27 C 0.8777(7) 0.6209(5) -0.3807(5)
H27 H 0.9065 0.6450 -0.4213
C28 C 0.8973(7) 0.5507(5) -0.3668(6)
H28 H 0.9405 0.5265 -0.3974
C29 C 0.8516(6) 0.5173(4) -0.3070(6)
H29 H 0.8625 0.4700 -0.2965
C30 C 0.7902(7) 0.5549(5) -0.2635(6)
H30 H 0.7601 0.5317 -0.2229
C31 C 0.5434(6) 0.5698(4) -0.1659(5)
H31 H 0.5913 0.5630 -0.2021
C32 C 0.4964(7) 0.5122(4) -0.1393(5)
H32 H 0.5121 0.4681 -0.1573
C33 C 0.4256(7) 0.5205(4) -0.0854(5)
H33 H 0.3918 0.4824 -0.0664
C34 C 0.4064(6) 0.5880(4) -0.0605(5)
H34 H 0.3607 0.5960 -0.0229
C35 C 0.4564(6) 0.6431(4) -0.0926(5)
H35 H 0.4404 0.6880 -0.0773
Rb1C Rb 1.13070(5) 0.74703(4) 0.29144(4)
O2C O 0.4777(4) 0.7411(3) -0.3599(3)
loop_
_geom_bond_atom_site_label_1
_geom_bond_atom_site_label_2
_geom_bond_site_symmetry_1
_geom_bond_site_symmetry_2
U1 O1 1_555 1_555
Rb1 I1 1_555 1_555
I2 Rb1 1_555 1_555
O1 Rb1 1_555 1_555
O2 U1 1_555 1_555
N1 U1 1_555 1_555
N2 U1 1_555 1_555
N3 U1 1_555 1_555
N4 U1 1_555 1_555
N5 U1 1_555 1_555
N6 Rb1 1_555 1_555
N7 Rb1 1_555 1_555
C1 N1 1_555 1_555
H1 C1 1_555 1_555
C2 C1 1_555 1_555
H2 C2 1_555 1_555
C3 C2 1_555 1_555
H3 C3 1_555 1_555
C4 C3 1_555 1_555
H4 C4 1_555 1_555
C5 N1 1_555 1_555
H5 C5 1_555 1_555
C6 N2 1_555 1_555
H6 C6 1_555 1_555
C7 C6 1_555 1_555
H7 C7 1_555 1_555
C8 C7 1_555 1_555
H8 C8 1_555 1_555
C9 C8 1_555 1_555
H9 C9 1_555 1_555
C10 N2 1_555 1_555
H10 C10 1_555 1_555
C11 N3 1_555 1_555
H11 C11 1_555 1_555
C12 C11 1_555 1_555
H12 C12 1_555 1_555
C13 C12 1_555 1_555
H13 C13 1_555 1_555
C14 C13 1_555 1_555
H14 C14 1_555 1_555
C15 N3 1_555 1_555
H15 C15 1_555 1_555
C16 N4 1_555 1_555
H16 C16 1_555 1_555
C17 C16 1_555 1_555
H17 C17 1_555 1_555
C18 C17 1_555 1_555
H18 C18 1_555 1_555
C19 C18 1_555 1_555
H19 C19 1_555 1_555
C20 N4 1_555 1_555
H20 C20 1_555 1_555
C21 N5 1_555 1_555
H21 C21 1_555 1_555
C22 C21 1_555 1_555
H22 C22 1_555 1_555
C23 C22 1_555 1_555
H23 C23 1_555 1_555
C24 C23 1_555 1_555
H24 C24 1_555 1_555
C25 N5 1_555 1_555
H25 C25 1_555 1_555
C26 N6 1_555 1_555
H26 C26 1_555 1_555
C27 C26 1_555 1_555
H27 C27 1_555 1_555
C28 C27 1_555 1_555
H28 C28 1_555 1_555
C29 C28 1_555 1_555
H29 C29 1_555 1_555
C30 N6 1_555 1_555
H30 C30 1_555 1_555
C31 N7 1_555 1_555
H31 C31 1_555 1_555
C32 C31 1_555 1_555
H32 C32 1_555 1_555
C33 C32 1_555 1_555
H33 C33 1_555 1_555
C34 C33 1_555 1_555
H34 C34 1_555 1_555
C35 N7 1_555 1_555
H35 C35 1_555 1_555
Rb1C O2 1_555 1_555
O2C Rb1 1_555 1_555
C4 C5 1_555 1_555
C9 C10 1_555 1_555
C14 C15 1_555 1_555
C19 C20 1_555 1_555
C24 C25 1_555 1_555
C29 C30 1_555 1_555
C34 C35 1_555 1_555

#END
