
#######################################################################
#
#                 Cambridge Crystallographic Data Centre
#                                CCDC 
#
#######################################################################
#
# If this CIF has been generated from an entry in the Cambridge 
# Structural Database, then it will include bibliographic, chemical, 
# crystal, experimental, refinement or atomic coordinate data resulting 
# from the CCDC's data processing and validation procedures.
#
#######################################################################

data_UFANEV
_symmetry_cell_setting           tetragonal
_symmetry_space_group_name_H-M   'I 41 2 2'
_symmetry_Int_Tables_number      98
_space_group_name_Hall           'I 4bw 2bw'
loop_
_symmetry_equiv_pos_site_id
_symmetry_equiv_pos_as_xyz
1 x,y,z
2 1/2-x,1/2-y,1/2+z
3 -y,1/2+x,1/4+z
4 1/2+y,-x,3/4+z
5 1/2-x,y,3/4-z
6 x,1/2-y,1/4-z
7 1/2+y,1/2+x,1/2-z
8 -y,-x,-z
9 1/2+x,1/2+y,1/2+z
10 -x,-y,z
11 1/2-y,x,3/4+z
12 y,1/2-x,1/4+z
13 -x,1/2+y,1/4-z
14 1/2+x,-y,3/4-z
15 y,x,-z
16 1/2-y,1/2-x,1/2-z
_cell_length_a                   17.0901(9)
_cell_length_b                   17.0901(9)
_cell_length_c                   23.987(2)
_cell_angle_alpha                90
_cell_angle_beta                 90
_cell_angle_gamma                90
_cell_volume                     7005.92
loop_
_atom_site_label
_atom_site_type_symbol
_atom_site_fract_x
_atom_site_fract_y
_atom_site_fract_z
Ag1 Ag 1.11460(5) 0.7500 1.1250
N1 N 1.0365(4) 0.7258(4) 1.0454(3)
N2 N 1.1414(4) 0.8215(5) 0.9018(3)
C1 C 0.8998(6) 0.5593(6) 0.7766(3)
H1 H 0.8440 0.5700 0.7775
H2 H 0.9079 0.5031 0.7763
C2 C 0.9185(4) 0.5680(5) 0.8721(3)
C3 C 0.8666(5) 0.5083(5) 0.8824(4)
H3 H 0.8439 0.4820 0.8525
C4 C 0.8478(7) 0.4869(7) 0.9353(5)
H4 H 0.8118 0.4471 0.9416
C5 C 0.8827(8) 0.5248(8) 0.9796(5)
H5 H 0.8693 0.5105 1.0157
C6 C 0.9354(7) 0.5818(7) 0.9717(3)
H6 H 0.9598 0.6042 1.0024
C7 C 0.9544(5) 0.6082(6) 0.9185(3)
C8 C 1.0106(5) 0.6674(5) 0.9053(3)
H7 H 1.0237 0.6715 0.8677
C9 C 1.0473(5) 0.7182(5) 0.9395(3)
C10 C 1.0389(4) 0.7210(5) 0.9997(3)
C11 C 1.1005(5) 0.7724(6) 0.9185(3)
O1 O 0.9392(4) 0.5952(4) 0.8228(2)
Ag1C Ag 1.2500 0.88540(5) 0.8750
Ag1K Ag 0.7500 0.38540(5) 0.3750
Ag1H Ag 0.61460(5) 0.2500 0.6250
N1O N 0.7742(4) 0.4635(4) 0.4546(3)
N1E N 1.0365(4) 0.7742(4) 1.2046(3)
N2O N 0.6785(5) 0.3586(4) 0.5982(3)
N2B N 1.1785(5) 0.6414(4) 1.1518(3)
N2G N 1.1785(5) 0.8586(4) 1.0982(3)
C1O C 0.9407(6) 0.6002(6) 0.7234(3)
H1O H 0.9300 0.6560 0.7225
H2O H 0.9969 0.5921 0.7237
C2O C 0.9320(5) 0.5815(4) 0.6279(3)
C3O C 0.9917(5) 0.6334(5) 0.6176(4)
H3O H 1.0180 0.6561 0.6475
C4O C 1.0131(7) 0.6522(7) 0.5647(5)
H4O H 1.0529 0.6882 0.5584
C5O C 0.9752(8) 0.6173(8) 0.5204(5)
H5O H 0.9895 0.6307 0.4843
C6O C 0.9182(7) 0.5646(7) 0.5283(3)
H6O H 0.8958 0.5402 0.4976
C7O C 0.8918(6) 0.5456(5) 0.5815(3)
C8O C 0.8326(5) 0.4894(5) 0.5947(3)
H7O H 0.8285 0.4763 0.6323
C9O C 0.7818(5) 0.4527(5) 0.5605(3)
C10O C 0.7790(5) 0.4611(4) 0.5003(3)
C11O C 0.7276(6) 0.3995(5) 0.5815(3)
O1O O 0.9048(4) 0.5608(4) 0.6772(2)
F1 F 0.6903(5) 0.4163(3) 0.0193(2)
F2 F 0.6618(4) 0.2887(4) 0.0719(2)
F3 F 0.7947(3) 0.3083(4) 0.0178(2)
Sb1 Sb 0.69019(3) 0.30981(3) 0.0000
F1G F 0.5837(3) 0.3097(5) -0.0193(2)
F2G F 0.7113(4) 0.3382(4) -0.0719(2)
F3G F 0.6917(4) 0.2053(3) -0.0178(2)
loop_
_geom_bond_atom_site_label_1
_geom_bond_atom_site_label_2
_geom_bond_site_symmetry_1
_geom_bond_site_symmetry_2
Ag1 N1 1_555 1_555
N1 C10 1_555 1_555
N2 C11 1_555 1_555
C1 H1 1_555 1_555
H2 C1 1_555 1_555
C2 C3 1_555 1_555
C3 H3 1_555 1_555
C4 C3 1_555 1_555
H4 C4 1_555 1_555
C5 C4 1_555 1_555
H5 C5 1_555 1_555
C6 C5 1_555 1_555
H6 C6 1_555 1_555
C7 C2 1_555 1_555
C8 C7 1_555 1_555
H7 C8 1_555 1_555
C9 C8 1_555 1_555
C10 C9 1_555 1_555
C11 C9 1_555 1_555
F1 Sb1 1_555 1_555
F2 Sb1 1_555 1_555
F3 Sb1 1_555 1_555
O1 C1 1_555 1_555
Sb1 F1G 1_555 1_555
Ag1C N2 1_555 1_555
Ag1K N1O 1_555 1_555
Ag1H N2O 1_555 1_555
N1O C10O 1_555 1_555
N1E Ag1 1_555 1_555
N2O C11O 1_555 1_555
N2B Ag1 1_555 1_555
N2G Ag1 1_555 1_555
C1O C1 1_555 1_555
H1O C1O 1_555 1_555
H2O C1O 1_555 1_555
C2O C3O 1_555 1_555
C3O H3O 1_555 1_555
C4O C3O 1_555 1_555
H4O C4O 1_555 1_555
C5O C4O 1_555 1_555
H5O C5O 1_555 1_555
C6O C5O 1_555 1_555
H6O C6O 1_555 1_555
C7O C2O 1_555 1_555
C8O C7O 1_555 1_555
H7O C8O 1_555 1_555
C9O C8O 1_555 1_555
C10O C9O 1_555 1_555
C11O C9O 1_555 1_555
F2G Sb1 1_555 1_555
F3G Sb1 1_555 1_555
O1O C1O 1_555 1_555
C2 O1 1_555 1_555
C6 C7 1_555 1_555
C2O O1O 1_555 1_555
C6O C7O 1_555 1_555

#END
