
#######################################################################
#
#                 Cambridge Crystallographic Data Centre
#                                CCDC 
#
#######################################################################
#
# If this CIF has been generated from an entry in the Cambridge 
# Structural Database, then it will include bibliographic, chemical, 
# crystal, experimental, refinement or atomic coordinate data resulting 
# from the CCDC's data processing and validation procedures.
#
#######################################################################

data_UFARUP
_symmetry_cell_setting           orthorhombic
_symmetry_space_group_name_H-M   'P n m a'
_symmetry_Int_Tables_number      62
_space_group_name_Hall           '-P 2ac 2n'
loop_
_symmetry_equiv_pos_site_id
_symmetry_equiv_pos_as_xyz
1 x,y,z
2 1/2-x,-y,1/2+z
3 -x,1/2+y,-z
4 1/2+x,1/2-y,1/2-z
5 -x,-y,-z
6 1/2+x,y,1/2-z
7 x,1/2-y,z
8 1/2-x,1/2+y,1/2+z
_cell_length_a                   14.4247(17)
_cell_length_b                   16.2067(19)
_cell_length_c                   15.7309(18)
_cell_angle_alpha                90
_cell_angle_beta                 90
_cell_angle_gamma                90
_cell_volume                     3677.52
loop_
_atom_site_label
_atom_site_type_symbol
_atom_site_fract_x
_atom_site_fract_y
_atom_site_fract_z
C1 C 0.8249(3) 0.6804(2) 1.1657(2)
Cd1 Cd 0.622660(11) 0.457091(10) 1.024369(11)
Cd2 Cd 1.107380(11) 0.543270(10) 1.059250(11)
Cd3 Cd 0.746338(16) 0.7500 0.987244(18)
O1 O 0.64452(13) 0.65608(12) 1.03090(16)
C2 C 1.1199(2) 0.7500 1.0836(2)
H1 H 1.1751 0.7500 1.1141
N1 N 0.86338(13) 0.49248(14) 0.80237(14)
C3 C 0.76629(16) 0.53129(15) 0.69938(16)
C4 C 0.77343(16) 0.51141(15) 0.78442(16)
O2 O 0.72798(12) 0.47965(12) 0.92266(11)
C5 C 0.56103(16) 0.64209(15) 1.02317(16)
O3 O 0.61987(12) 0.52549(16) 0.83446(13)
N2 N 1.07676(13) 0.68091(12) 1.05978(13)
O4 O 0.95946(12) 0.56957(11) 0.99704(13)
O5 O 0.52915(12) 0.56971(11) 1.02511(14)
C6 C 0.99822(15) 0.70714(14) 1.01760(14)
C7 C 0.70209(17) 0.50640(17) 0.85098(16)
N3 N 0.7001(2) 0.7500 0.8460(2)
C8 C 0.90694(17) 0.50135(17) 0.72811(16)
H2 H 0.9701 0.4919 0.7216
N4 N 0.8017(2) 0.7500 1.1281(2)
C9 C 0.93327(16) 0.64312(14) 0.98495(15)
C10 C 0.7679(3) 0.7500 0.7889(3)
H3 H 0.8289 0.7500 0.8081
C11 C 0.6141(3) 0.7500 0.8169(3)
H4 H 0.5657 0.7500 0.8560
O6 O 0.85932(12) 0.65989(11) 0.94871(14)
N5 N 0.85240(14) 0.52497(13) 0.66381(13)
C12 C 0.6627(4) 0.7500 0.6734(3)
H5 H 0.6506 0.7500 0.6153
H6 H 0.8089 0.6310 1.1397
C13 C 0.7521(4) 0.7500 0.7035(3)
H7 H 0.8017 0.7500 0.6658
C14 C 0.5924(4) 0.7500 0.7313(4)
H8 H 0.5310 0.7500 0.7135
C15 C 0.8718(4) 0.6775(3) 1.2412(3)
H9 H 0.8873 0.6273 1.2660
C16 C 0.8953(6) 0.7500 1.2792(4)
H10 H 0.9270 0.7500 1.3307
O7 O 0.69850(13) 0.56407(13) 0.56853(11)
O8 O 0.60448(13) 0.55216(16) 0.67858(14)
C17 C 0.68644(17) 0.55060(17) 0.64495(16)
C18 C 0.48942(15) 0.70721(14) 1.01125(15)
N6 N 0.39966(14) 0.68083(13) 0.99793(14)
C19 C 0.3504(2) 0.7500 0.9908(2)
H11 H 0.2867 0.7500 0.9816
H12 H 0.606(2) 0.5454(18) 0.7326(7)
C1F C 0.8249(3) 0.8196(2) 1.1657(2)
Cd1F Cd 0.622660(11) 1.042909(10) 1.024369(11)
Cd1D Cd 0.377340(11) 0.542909(10) 0.975631(11)
Cd1A Cd 0.877340(11) 0.542909(10) 0.524369(11)
Cd1B Cd 0.377340(11) 0.957091(10) 0.975631(11)
Cd1A_2 Cd 0.877340(11) 0.542909(10) 1.524369(11)
Cd2F Cd 1.107380(11) 0.956730(10) 1.059250(11)
Cd2D Cd 0.892620(11) 0.456730(10) 0.940750(11)
Cd2E Cd 0.607380(11) 0.543270(10) 0.440750(11)
Cd2B Cd 0.892620(11) 1.043270(10) 0.940750(11)
Cd2E_2 Cd 0.607380(11) 0.543270(10) 1.440750(11)
O1F O 0.64452(13) 0.84392(12) 1.03090(16)
N1A N 0.63662(13) 0.50752(14) 1.30237(14)
N1D N 1.13662(13) 0.50752(14) 1.19763(14)
N1B N 1.13662(13) 0.99248(14) 1.19763(14)
C3A C 0.73371(16) 0.46871(15) 1.19938(16)
C4A C 0.72657(16) 0.48859(15) 1.28442(16)
O2A O 0.77202(12) 0.52035(12) 1.42266(11)
O2D O 1.27202(12) 0.52035(12) 1.07734(11)
O2F O 0.72798(12) 1.02035(12) 0.92266(11)
O2B O 1.27202(12) 0.97965(12) 1.07734(11)
C5F C 0.56103(16) 0.85791(15) 1.02317(16)
O3A O 0.88013(12) 0.47451(16) 1.33446(13)
N2F N 1.07676(13) 0.81909(12) 1.05978(13)
O4F O 0.95946(12) 0.93043(11) 0.99704(13)
O4D O 1.04054(12) 0.43043(11) 1.00296(13)
O4B O 1.04054(12) 1.06957(11) 1.00296(13)
O5F O 0.52915(12) 0.93029(11) 1.02511(14)
O5D O 0.47085(12) 0.43029(11) 0.97489(14)
O5B O 0.47085(12) 1.06971(11) 0.97489(14)
C6F C 0.99822(15) 0.79286(14) 1.01760(14)
C7A C 0.79791(17) 0.49360(17) 1.35098(16)
C8A C 0.59306(17) 0.49865(17) 1.22811(16)
H2A H 0.5299 0.5081 1.2216
C9F C 0.93327(16) 0.85688(14) 0.98495(15)
O6F O 0.85932(12) 0.84011(11) 0.94871(14)
N5A N 0.64760(14) 0.47503(13) 1.16381(13)
N5G N 0.64760(14) 1.02497(13) 1.16381(13)
H6F H 0.8089 0.8690 1.1397
C15F C 0.8718(4) 0.8225(3) 1.2412(3)
H9F H 0.8873 0.8727 1.2660
O7A O 0.80150(13) 0.43593(13) 1.06853(11)
O7E O 1.19850(13) 0.56407(13) 0.93147(11)
O7G O 0.80150(13) 1.06407(13) 1.06853(11)
O7C O 1.19850(13) 0.93593(13) 0.93147(11)
O8A O 0.89552(13) 0.44784(16) 1.17858(14)
C17A C 0.81356(17) 0.44940(17) 1.14495(16)
C18F C 0.48942(15) 0.79279(14) 1.01125(15)
N6F N 0.39966(14) 0.81917(13) 0.99793(14)
N6D N 0.60034(14) 0.31917(13) 1.00207(14)
N6B N 0.60034(14) 1.18083(13) 1.00207(14)
H12A H 0.894(2) 0.4546(18) 1.2326(7)
loop_
_geom_bond_atom_site_label_1
_geom_bond_atom_site_label_2
_geom_bond_site_symmetry_1
_geom_bond_site_symmetry_2
C1 N4 1_555 1_555
Cd1 O2 1_555 1_555
Cd2 N2 1_555 1_555
Cd3 O1 1_555 1_555
O1 C5 1_555 1_555
C2 H1 1_555 1_555
N1 C4 1_555 1_555
C3 C4 1_555 1_555
C4 C7 1_555 1_555
O2 C7 1_555 1_555
C5 O5 1_555 1_555
O3 C7 1_555 1_555
N2 C2 1_555 1_555
O4 Cd2 1_555 1_555
O5 Cd1 1_555 1_555
C6 N2 1_555 1_555
N3 Cd3 1_555 1_555
C8 N1 1_555 1_555
H2 C8 1_555 1_555
N4 Cd3 1_555 1_555
C9 O4 1_555 1_555
C10 N3 1_555 1_555
H3 C10 1_555 1_555
C11 N3 1_555 1_555
H4 C11 1_555 1_555
O6 Cd3 1_555 1_555
N5 C3 1_555 1_555
C12 H5 1_555 1_555
H6 C1 1_555 1_555
C13 C10 1_555 1_555
H7 C13 1_555 1_555
C14 C11 1_555 1_555
H8 C14 1_555 1_555
C15 C1 1_555 1_555
H9 C15 1_555 1_555
C16 C15 1_555 1_555
H10 C16 1_555 1_555
O7 C17 1_555 1_555
O8 C17 1_555 1_555
C17 C3 1_555 1_555
C18 C5 1_555 1_555
N6 C18 1_555 1_555
C19 N6 1_555 1_555
H11 C19 1_555 1_555
H12 O8 1_555 1_555
C1F N4 1_555 1_555
Cd1F O2F 1_555 1_555
Cd1D O5 1_555 1_555
Cd1A N5 1_555 1_555
Cd1B O5F 1_555 1_555
Cd1A_2 O2A 1_555 1_555
Cd2F N1B 1_555 1_555
Cd2D N1 1_555 1_555
Cd2E O7 1_555 1_555
Cd2B O2F 1_555 1_555
Cd2E_2 N1A 1_555 1_555
O1F Cd3 1_555 1_555
N1A C4A 1_555 1_555
N1D Cd2 1_555 1_555
C3A C4A 1_555 1_555
C4A C7A 1_555 1_555
O2A Cd2E_2 1_555 1_555
O2D Cd2 1_555 1_555
O2B Cd2F 1_555 1_555
C5F O1F 1_555 1_555
O3A C7A 1_555 1_555
N2F C2 1_555 1_555
O4F Cd2F 1_555 1_555
O4D Cd2 1_555 1_555
O4B Cd2F 1_555 1_555
O5F Cd1F 1_555 1_555
O5D Cd1 1_555 1_555
O5B Cd1F 1_555 1_555
C6F C6 1_555 1_555
C7A O2A 1_555 1_555
C8A N1A 1_555 1_555
H2A C8A 1_555 1_555
C9F O4F 1_555 1_555
O6F Cd3 1_555 1_555
N5A Cd1 1_555 1_555
N5G Cd1F 1_555 1_555
H6F C1F 1_555 1_555
C15F C16 1_555 1_555
H9F C15F 1_555 1_555
O7A Cd1 1_555 1_555
O7E Cd2 1_555 1_555
O7G Cd1F 1_555 1_555
O7C Cd2F 1_555 1_555
O8A C17A 1_555 1_555
C17A C3A 1_555 1_555
C18F C18 1_555 1_555
N6F C19 1_555 1_555
N6D Cd1 1_555 1_555
N6B Cd1F 1_555 1_555
H12A O8A 1_555 1_555
O2 Cd2D 1_555 1_555
O4 Cd2D 1_555 1_555
C6 C9 1_555 1_555
C8 N5 1_555 1_555
C9 O6 1_555 1_555
C12 C13 1_555 1_555
C12 C14 1_555 1_555
O7 Cd1A 1_555 1_555
N6 Cd1D 1_555 1_555
C1F C15F 1_555 1_555
Cd1D O5D 1_555 1_555
Cd1B O5B 1_555 1_555
Cd1B N6F 1_555 1_555
Cd2F N2F 1_555 1_555
Cd2D O4D 1_555 1_555
Cd2D O7A 1_555 1_555
Cd2B O4F 1_555 1_555
Cd2B O4B 1_555 1_555
Cd2B O7G 1_555 1_555
C3A N5A 1_555 1_555
C5F O5F 1_555 1_555
C5F C18F 1_555 1_555
N2F C6F 1_555 1_555
C6F C9F 1_555 1_555
C8A N5A 1_555 1_555
C9F O6F 1_555 1_555
O7A C17A 1_555 1_555
C18F N6F 1_555 1_555

#END
