
#######################################################################
#
#                 Cambridge Crystallographic Data Centre
#                                CCDC 
#
#######################################################################
#
# If this CIF has been generated from an entry in the Cambridge 
# Structural Database, then it will include bibliographic, chemical, 
# crystal, experimental, refinement or atomic coordinate data resulting 
# from the CCDC's data processing and validation procedures.
#
#######################################################################

data_UFARID
_symmetry_cell_setting           triclinic
_symmetry_space_group_name_H-M   'P -1'
_symmetry_Int_Tables_number      2
_space_group_name_Hall           '-P 1'
loop_
_symmetry_equiv_pos_site_id
_symmetry_equiv_pos_as_xyz
1 x,y,z
2 -x,-y,-z
_cell_length_a                   7.8165(12)
_cell_length_b                   12.3313(18)
_cell_length_c                   13.2004(19)
_cell_angle_alpha                91.682(3)
_cell_angle_beta                 93.090(3)
_cell_angle_gamma                98.945(3)
_cell_volume                     1254.13
loop_
_atom_site_label
_atom_site_type_symbol
_atom_site_fract_x
_atom_site_fract_y
_atom_site_fract_z
Ag1 Ag 0.99765(8) 0.76012(5) 0.93803(4)
S1 S 0.8748(2) 0.93655(14) 0.90182(12)
S2 S 1.2952(2) 0.70925(14) 0.91101(12)
N1 N 0.8166(7) 0.7090(4) 0.7915(4)
N2 N 1.2316(7) 0.8643(4) 0.7682(4)
N3 N 0.9347(10) 0.7057(7) 1.0960(6)
C1 C 0.7982(10) 0.6113(6) 0.7474(6)
H1 H 0.8370 0.5556 0.7840
C2 C 0.7262(11) 0.5848(7) 0.6514(7)
H2 H 0.7165 0.5131 0.6253
C3 C 0.6705(10) 0.6605(7) 0.5961(6)
H3 H 0.6230 0.6428 0.5305
C4 C 0.6832(9) 0.7685(6) 0.6366(5)
C5 C 0.6249(9) 0.8552(7) 0.5832(5)
H4 H 0.5757 0.8422 0.5174
C6 C 0.6405(9) 0.9554(7) 0.6269(5)
H5 H 0.6013 1.0117 0.5914
C7 C 0.7139(8) 0.9763(6) 0.7240(5)
H6 H 0.7231 1.0471 0.7523
C8 C 0.7734(8) 0.8980(5) 0.7801(4)
C9 C 0.7568(8) 0.7908(5) 0.7378(4)
C10 C 0.6941(8) 0.9232(5) 0.9829(4)
H7 H 0.6306 0.8491 0.9744
H8 H 0.7386 0.9341 1.0530
C11 C 0.5704(8) 1.0038(5) 0.9611(4)
H9 H 0.5160 0.9884 0.8934
H10 H 0.6347 1.0778 0.9635
C12 C 1.2010(9) 0.9467(6) 0.7129(6)
H11 H 1.2077 1.0156 0.7448
C13 C 1.1592(10) 0.9362(7) 0.6094(6)
H12 H 1.1331 0.9963 0.5742
C14 C 1.1564(10) 0.8398(7) 0.5600(5)
H13 H 1.1318 0.8330 0.4902
C15 C 1.1912(9) 0.7478(6) 0.6149(5)
C16 C 1.1920(10) 0.6428(7) 0.5711(5)
H14 H 1.1639 0.6293 0.5020
C17 C 1.2334(10) 0.5618(7) 0.6289(6)
H15 H 1.2410 0.4941 0.5980
C18 C 1.2656(9) 0.5759(6) 0.7346(5)
H16 H 1.2883 0.5177 0.7736
C19 C 1.2627(8) 0.6768(5) 0.7784(5)
C20 C 1.2273(8) 0.7650(5) 0.7192(5)
C21 C 1.3110(8) 0.5790(5) 0.9690(5)
H17 H 1.2746 0.5820 1.0379
H18 H 1.2329 0.5210 0.9315
C22 C 1.4940(9) 0.5520(5) 0.9706(5)
H19 H 1.5742 0.6129 1.0024
H20 H 1.5265 0.5411 0.9016
C23 C 0.9436(11) 0.7225(8) 1.1791(8)
C24 C 0.9597(11) 0.7399(8) 1.2875(6)
H21 H 0.9909 0.6756 1.3183
H22 H 0.8510 0.7538 1.3113
H23 H 1.0479 0.8018 1.3053
Ag1A Ag 0.00235(8) 1.23988(5) 1.06197(4)
Ag1A_2 Ag 2.00235(8) 0.23988(5) 1.06197(4)
S1A S 0.1252(2) 1.06345(14) 1.09818(12)
S2A S 1.7048(2) 0.29075(14) 1.08899(12)
S2A_2 S -0.2952(2) 1.29075(14) 1.08899(12)
N1A N 0.1834(7) 1.2910(4) 1.2085(4)
N2A N 1.7684(7) 0.1357(4) 1.2318(4)
N3A N 0.0653(10) 1.2943(7) 0.9040(6)
C1A C 0.2018(10) 1.3887(6) 1.2526(6)
H1A H 0.1630 1.4444 1.2160
C2A C 0.2738(11) 1.4152(7) 1.3486(7)
H2A H 0.2835 1.4869 1.3747
C3A C 0.3295(10) 1.3395(7) 1.4039(6)
H3A H 0.3770 1.3572 1.4695
C4A C 0.3168(9) 1.2315(6) 1.3634(5)
C5A C 0.3751(9) 1.1448(7) 1.4168(5)
H4A H 0.4243 1.1578 1.4826
C6A C 0.3595(9) 1.0446(7) 1.3731(5)
H5A H 0.3987 0.9883 1.4086
C7A C 0.2861(8) 1.0237(6) 1.2760(5)
H6A H 0.2769 0.9529 1.2477
C8A C 0.2266(8) 1.1020(5) 1.2199(4)
C9A C 0.2432(8) 1.2092(5) 1.2622(4)
C10A C 0.3059(8) 1.0768(5) 1.0171(4)
H7A H 0.3694 1.1509 1.0256
H8A H 0.2614 1.0659 0.9470
C11A C 0.4296(8) 0.9962(5) 1.0389(4)
H9A H 0.4840 1.0116 1.1066
H10A H 0.3653 0.9222 1.0365
C12A C 1.7990(9) 0.0533(6) 1.2871(6)
H11A H 1.7923 -0.0156 1.2552
C13A C 1.8408(10) 0.0638(7) 1.3906(6)
H12A H 1.8669 0.0037 1.4258
C14A C 1.8436(10) 0.1602(7) 1.4400(5)
H13A H 1.8682 0.1670 1.5098
C15A C 1.8088(9) 0.2522(6) 1.3851(5)
C16A C 1.8080(10) 0.3572(7) 1.4289(5)
H14A H 1.8361 0.3707 1.4980
C17A C 1.7666(10) 0.4382(7) 1.3711(6)
H15A H 1.7590 0.5059 1.4020
C18A C 1.7344(9) 0.4241(6) 1.2654(5)
H16A H 1.7117 0.4823 1.2264
C19A C 1.7373(8) 0.3232(5) 1.2216(5)
C20A C 1.7727(8) 0.2350(5) 1.2808(5)
C21A C 1.6890(8) 0.4210(5) 1.0310(5)
H17A H 1.7254 0.4180 0.9621
H18A H 1.7671 0.4790 1.0685
C22A C 1.5060(9) 0.4480(5) 1.0294(5)
H19A H 1.4258 0.3871 0.9976
H20A H 1.4735 0.4589 1.0984
C23A C 0.0564(11) 1.2775(8) 0.8209(8)
C24A C 0.0403(11) 1.2601(8) 0.7125(6)
H21A H 0.0091 1.3244 0.6817
H22A H 0.1490 1.2462 0.6887
H23A H -0.0479 1.1982 0.6947
Cl1 Cl 0.5376(3) 0.27803(19) 0.72575(18)
O1 O 0.6228(14) 0.2513(10) 0.6495(7)
O2 O 0.4344(13) 0.1937(8) 0.7523(11)
O3 O 0.4474(11) 0.3567(6) 0.7061(10)
O4 O 0.6606(16) 0.3072(12) 0.7935(8)
loop_
_geom_bond_atom_site_label_1
_geom_bond_atom_site_label_2
_geom_bond_site_symmetry_1
_geom_bond_site_symmetry_2
Ag1 S1 1_555 1_555
S1 C8 1_555 1_555
S2 Ag1 1_555 1_555
Cl1 O1 1_555 1_555
N1 Ag1 1_555 1_555
N2 C12 1_555 1_555
N3 Ag1 1_555 1_555
O2 Cl1 1_555 1_555
O3 Cl1 1_555 1_555
O4 Cl1 1_555 1_555
C1 N1 1_555 1_555
H1 C1 1_555 1_555
C2 C1 1_555 1_555
H2 C2 1_555 1_555
C3 C2 1_555 1_555
H3 C3 1_555 1_555
C4 C3 1_555 1_555
C5 C4 1_555 1_555
H4 C5 1_555 1_555
C6 C5 1_555 1_555
H5 C6 1_555 1_555
C7 C6 1_555 1_555
H6 C7 1_555 1_555
C8 C7 1_555 1_555
C9 N1 1_555 1_555
C10 S1 1_555 1_555
H7 C10 1_555 1_555
H8 C10 1_555 1_555
C11 C10 1_555 1_555
H9 C11 1_555 1_555
H10 C11 1_555 1_555
C12 H11 1_555 1_555
C13 C12 1_555 1_555
H12 C13 1_555 1_555
C14 C13 1_555 1_555
H13 C14 1_555 1_555
C15 C14 1_555 1_555
C16 C15 1_555 1_555
H14 C16 1_555 1_555
C17 C16 1_555 1_555
H15 C17 1_555 1_555
C18 C17 1_555 1_555
H16 C18 1_555 1_555
C19 S2 1_555 1_555
C20 N2 1_555 1_555
C21 S2 1_555 1_555
H17 C21 1_555 1_555
H18 C21 1_555 1_555
C22 C21 1_555 1_555
H19 C22 1_555 1_555
H20 C22 1_555 1_555
C23 N3 1_555 1_555
C24 C23 1_555 1_555
H21 C24 1_555 1_555
H22 C24 1_555 1_555
H23 C24 1_555 1_555
Ag1A S1A 1_555 1_555
Ag1A_2 S2A 1_555 1_555
S1A C8A 1_555 1_555
S2A C19A 1_555 1_555
S2A_2 Ag1A 1_555 1_555
N1A Ag1A 1_555 1_555
N2A C12A 1_555 1_555
N3A Ag1A 1_555 1_555
C1A N1A 1_555 1_555
H1A C1A 1_555 1_555
C2A C1A 1_555 1_555
H2A C2A 1_555 1_555
C3A C2A 1_555 1_555
H3A C3A 1_555 1_555
C4A C3A 1_555 1_555
C5A C4A 1_555 1_555
H4A C5A 1_555 1_555
C6A C5A 1_555 1_555
H5A C6A 1_555 1_555
C7A C6A 1_555 1_555
H6A C7A 1_555 1_555
C8A C7A 1_555 1_555
C9A N1A 1_555 1_555
C10A S1A 1_555 1_555
H7A C10A 1_555 1_555
H8A C10A 1_555 1_555
C11A C11 1_555 1_555
H9A C11A 1_555 1_555
H10A C11A 1_555 1_555
C12A H11A 1_555 1_555
C13A C12A 1_555 1_555
H12A C13A 1_555 1_555
C14A C13A 1_555 1_555
H13A C14A 1_555 1_555
C15A C14A 1_555 1_555
C16A C15A 1_555 1_555
H14A C16A 1_555 1_555
C17A C16A 1_555 1_555
H15A C17A 1_555 1_555
C18A C17A 1_555 1_555
H16A C18A 1_555 1_555
C19A C18A 1_555 1_555
C20A N2A 1_555 1_555
C21A S2A 1_555 1_555
H17A C21A 1_555 1_555
H18A C21A 1_555 1_555
C22A C22 1_555 1_555
H19A C22A 1_555 1_555
H20A C22A 1_555 1_555
C23A N3A 1_555 1_555
C24A C23A 1_555 1_555
H21A C24A 1_555 1_555
H22A C24A 1_555 1_555
H23A C24A 1_555 1_555
C4 C9 1_555 1_555
C8 C9 1_555 1_555
C15 C20 1_555 1_555
C18 C19 1_555 1_555
C19 C20 1_555 1_555
C4A C9A 1_555 1_555
C8A C9A 1_555 1_555
C10A C11A 1_555 1_555
C15A C20A 1_555 1_555
C19A C20A 1_555 1_555
C21A C22A 1_555 1_555

#END
