
#######################################################################
#
#                 Cambridge Crystallographic Data Centre
#                                CCDC 
#
#######################################################################
#
# If this CIF has been generated from an entry in the Cambridge 
# Structural Database, then it will include bibliographic, chemical, 
# crystal, experimental, refinement or atomic coordinate data resulting 
# from the CCDC's data processing and validation procedures.
#
#######################################################################

data_UFASIE
_symmetry_cell_setting           monoclinic
_symmetry_space_group_name_H-M   'P 21/n'
_symmetry_Int_Tables_number      14
_space_group_name_Hall           '-P 2yn'
loop_
_symmetry_equiv_pos_site_id
_symmetry_equiv_pos_as_xyz
1 x,y,z
2 1/2-x,1/2+y,1/2-z
3 -x,-y,-z
4 1/2+x,1/2-y,1/2+z
_cell_length_a                   9.7821(13)
_cell_length_b                   12.1686(17)
_cell_length_c                   17.221(2)
_cell_angle_alpha                90
_cell_angle_beta                 103.282(2)
_cell_angle_gamma                90
_cell_volume                     1995.06
loop_
_atom_site_label
_atom_site_type_symbol
_atom_site_fract_x
_atom_site_fract_y
_atom_site_fract_z
Cd1 Cd 0.0000 1.0000 0.0000
C1 C 0.2018(3) 0.8600(3) 0.14919(18)
H1 H 0.1272 0.8578 0.1743
C2 C 0.3356(3) 0.8149(2) 0.18169(18)
C3 C 0.4097(3) 0.8364(3) 0.12476(19)
H2 H 0.5026 0.8172 0.1271
C4 C 0.3265(3) 0.6691(3) 0.37155(18)
H3 H 0.2609 0.6534 0.4014
C5 C 0.2842(3) 0.7299(3) 0.30266(18)
H4 H 0.1920 0.7546 0.2872
C6 C 0.3787(3) 0.7543(2) 0.25664(18)
C7 C 0.5160(3) 0.7166(3) 0.28452(19)
H5 H 0.5842 0.7326 0.2564
C8 C 0.5506(3) 0.6558(3) 0.35378(19)
H6 H 0.6424 0.6307 0.3708
C9 C -0.1574(4) 0.8867(3) 0.1256(2)
N1 N 0.1953(3) 0.9057(2) 0.07888(14)
N2 N 0.3239(3) 0.8901(2) 0.06530(17)
N3 N 0.4584(3) 0.6313(2) 0.39754(14)
N4 N -0.1581(3) 0.9134(3) 0.06147(17)
S1 S -0.15401(13) 0.84502(9) 0.21607(6)
H13 H 0.348(4) 0.910(3) 0.023(2)
Cd1C Cd 0.5000 0.5000 0.5000
Cd1C_2 Cd -0.5000 1.5000 -0.5000
C1B C -0.2018(3) 1.1400(3) -0.14919(18)
H1B H -0.1272 1.1422 -0.1743
C2B C -0.3356(3) 1.1851(2) -0.18169(18)
C3B C -0.4097(3) 1.1636(3) -0.12476(19)
H2B H -0.5026 1.1828 -0.1271
C4B C -0.3265(3) 1.3309(3) -0.37155(18)
H3B H -0.2609 1.3466 -0.4014
C5B C -0.2842(3) 1.2701(3) -0.30266(18)
H4B H -0.1920 1.2454 -0.2872
C6B C -0.3787(3) 1.2457(2) -0.25664(18)
C7B C -0.5160(3) 1.2834(3) -0.28452(19)
H5B H -0.5842 1.2674 -0.2564
C8B C -0.5506(3) 1.3442(3) -0.35378(19)
H6B H -0.6424 1.3693 -0.3708
C9B C 0.1574(4) 1.1133(3) -0.1256(2)
N1B N -0.1953(3) 1.0943(2) -0.07888(14)
N2B N -0.3239(3) 1.1099(2) -0.06530(17)
N3B N -0.4584(3) 1.3687(2) -0.39754(14)
N3C N -0.0416(3) 0.8687(2) -0.10246(14)
N3A N 0.0416(3) 1.1313(2) 0.10246(14)
N4B N 0.1581(3) 1.0866(3) -0.06147(17)
S1B S 0.15401(13) 1.15498(9) -0.21607(6)
H13B H -0.348(4) 1.090(3) -0.023(2)
Cd2 Cd 1.0000 0.0000 0.5000
C10 C 0.7018(4) 0.1147(3) 0.4283(2)
H7 H 0.7095 0.1548 0.4751
C11 C 0.5726(3) 0.0800(3) 0.37919(19)
C12 C 0.6114(4) 0.0278(3) 0.3172(2)
H8 H 0.5511 -0.0045 0.2734
C13 C 0.1953(4) 0.0210(3) 0.3723(2)
H9 H 0.1216 -0.0174 0.3398
C14 C 0.3203(4) 0.0292(3) 0.3492(2)
H10 H 0.3285 -0.0021 0.3012
C15 C 0.4343(3) 0.0832(2) 0.39637(18)
C16 C 0.4104(4) 0.1354(3) 0.4642(2)
H11 H 0.4807 0.1777 0.4960
C17 C 0.2831(4) 0.1240(3) 0.4835(2)
H12 H 0.2702 0.1583 0.5296
C18 C 0.9713(3) -0.2505(3) 0.41549(19)
N5 N 0.8098(3) 0.0837(3) 0.40004(18)
N6 N 0.7507(3) 0.0314(3) 0.3306(2)
N7 N 0.1753(3) 0.0661(2) 0.43973(16)
N8 N 0.9857(4) -0.1572(3) 0.42821(19)
S2 S 0.95043(11) -0.38171(8) 0.39766(6)
H14 H 0.794(5) -0.002(4) 0.300(3)
Cd2_2 Cd 0.0000 0.0000 0.5000
Cd2_3 Cd 2.0000 0.0000 0.5000
C10B C 1.2982(4) -0.1147(3) 0.5717(2)
H7B H 1.2905 -0.1548 0.5249
C11B C 1.4274(3) -0.0800(3) 0.62081(19)
C12B C 1.3886(4) -0.0278(3) 0.6828(2)
H8B H 1.4489 0.0045 0.7266
C13B C 1.8047(4) -0.0210(3) 0.6277(2)
H9B H 1.8784 0.0174 0.6602
C14B C 1.6797(4) -0.0292(3) 0.6508(2)
H10B H 1.6715 0.0021 0.6988
C15B C 1.5657(3) -0.0832(2) 0.60363(18)
C16B C 1.5896(4) -0.1354(3) 0.5358(2)
H11B H 1.5193 -0.1777 0.5040
C17B C 1.7169(4) -0.1240(3) 0.5165(2)
H12B H 1.7298 -0.1583 0.4704
C18B C 1.0287(3) 0.2505(3) 0.58451(19)
N5B N 1.1902(3) -0.0837(3) 0.59996(18)
N6B N 1.2493(3) -0.0314(3) 0.6694(2)
N7B N 1.8247(3) -0.0661(2) 0.56027(16)
N7_2 N 1.1753(3) 0.0661(2) 0.43973(16)
N7B_2 N 0.8247(3) -0.0661(2) 0.56027(16)
N8B N 1.0143(4) 0.1572(3) 0.57179(19)
S2B S 1.04957(11) 0.38171(8) 0.60234(6)
H14B H 1.206(5) 0.002(4) 0.700(3)
loop_
_geom_bond_atom_site_label_1
_geom_bond_atom_site_label_2
_geom_bond_site_symmetry_1
_geom_bond_site_symmetry_2
Cd1 N1 1_555 1_555
Cd2 N5 1_555 1_555
C1 H1 1_555 1_555
C2 C1 1_555 1_555
C3 C2 1_555 1_555
H2 C3 1_555 1_555
C4 H3 1_555 1_555
C5 C4 1_555 1_555
H4 C5 1_555 1_555
C6 C2 1_555 1_555
C7 C6 1_555 1_555
H5 C7 1_555 1_555
C8 C7 1_555 1_555
H6 C8 1_555 1_555
C9 N4 1_555 1_555
C10 H7 1_555 1_555
C11 C10 1_555 1_555
C12 C11 1_555 1_555
H8 C12 1_555 1_555
C13 H9 1_555 1_555
C14 C13 1_555 1_555
H10 C14 1_555 1_555
C15 C11 1_555 1_555
C16 C15 1_555 1_555
H11 C16 1_555 1_555
C17 C16 1_555 1_555
H12 C17 1_555 1_555
C18 N8 1_555 1_555
N1 C1 1_555 1_555
N2 C3 1_555 1_555
N3 C4 1_555 1_555
N4 Cd1 1_555 1_555
N5 C10 1_555 1_555
N6 C12 1_555 1_555
N7 C13 1_555 1_555
N8 Cd2 1_555 1_555
S1 C9 1_555 1_555
S2 C18 1_555 1_555
H13 N2 1_555 1_555
H14 N6 1_555 1_555
Cd1C N3 1_555 1_555
Cd1C_2 N3B 1_555 1_555
Cd2_2 N7 1_555 1_555
Cd2_3 N7B 1_555 1_555
C1B H1B 1_555 1_555
C2B C1B 1_555 1_555
C3B C2B 1_555 1_555
H2B C3B 1_555 1_555
C4B H3B 1_555 1_555
C5B C4B 1_555 1_555
H4B C5B 1_555 1_555
C6B C2B 1_555 1_555
C7B C6B 1_555 1_555
H5B C7B 1_555 1_555
C8B C7B 1_555 1_555
H6B C8B 1_555 1_555
C9B N4B 1_555 1_555
C10B H7B 1_555 1_555
C11B C10B 1_555 1_555
C12B C11B 1_555 1_555
H8B C12B 1_555 1_555
C13B H9B 1_555 1_555
C14B C13B 1_555 1_555
H10B C14B 1_555 1_555
C15B C11B 1_555 1_555
C16B C15B 1_555 1_555
H11B C16B 1_555 1_555
C17B C16B 1_555 1_555
H12B C17B 1_555 1_555
C18B N8B 1_555 1_555
N1B Cd1 1_555 1_555
N2B C3B 1_555 1_555
N3B C4B 1_555 1_555
N3C Cd1 1_555 1_555
N3A Cd1 1_555 1_555
N4B Cd1 1_555 1_555
N5B Cd2 1_555 1_555
N6B C12B 1_555 1_555
N7B C13B 1_555 1_555
N7_2 Cd2 1_555 1_555
N7B_2 Cd2 1_555 1_555
N8B Cd2 1_555 1_555
S1B C9B 1_555 1_555
S2B C18B 1_555 1_555
H13B N2B 1_555 1_555
H14B N6B 1_555 1_555
C5 C6 1_555 1_555
C8 N3 1_555 1_555
C14 C15 1_555 1_555
C17 N7 1_555 1_555
N1 N2 1_555 1_555
N5 N6 1_555 1_555
C1B N1B 1_555 1_555
C5B C6B 1_555 1_555
C8B N3B 1_555 1_555
C10B N5B 1_555 1_555
C14B C15B 1_555 1_555
C17B N7B 1_555 1_555
N1B N2B 1_555 1_555
N5B N6B 1_555 1_555

#END
