
#######################################################################
#
#                 Cambridge Crystallographic Data Centre
#                                CCDC 
#
#######################################################################
#
# If this CIF has been generated from an entry in the Cambridge 
# Structural Database, then it will include bibliographic, chemical, 
# crystal, experimental, refinement or atomic coordinate data resulting 
# from the CCDC's data processing and validation procedures.
#
#######################################################################

data_UFASOK
_symmetry_cell_setting           triclinic
_symmetry_space_group_name_H-M   'P -1'
_symmetry_Int_Tables_number      2
_space_group_name_Hall           '-P 1'
loop_
_symmetry_equiv_pos_site_id
_symmetry_equiv_pos_as_xyz
1 x,y,z
2 -x,-y,-z
_cell_length_a                   5.7016(11)
_cell_length_b                   15.523(3)
_cell_length_c                   17.355(3)
_cell_angle_alpha                93.514(3)
_cell_angle_beta                 94.945(3)
_cell_angle_gamma                95.979(3)
_cell_volume                     1518.15
loop_
_atom_site_label
_atom_site_type_symbol
_atom_site_fract_x
_atom_site_fract_y
_atom_site_fract_z
Cd1 Cd 0.04915(7) 0.75730(3) 0.01394(2)
C1 C -0.2480(10) 0.7235(4) -0.1652(3)
C2 C 0.4968(10) 0.6394(3) 0.0018(3)
C3 C 0.4077(11) 0.8115(4) 0.1880(4)
C4 C -0.4143(10) 0.8717(3) 0.0133(3)
N1 N -0.1225(10) 0.7421(4) -0.1102(3)
N2 N 0.3213(9) 0.6596(3) -0.0252(3)
N3 N 0.5751(10) 0.8571(4) 0.2061(4)
N4 N -0.2289(10) 0.8566(4) 0.0353(3)
S1 S -0.4116(3) 0.69738(11) -0.24635(10)
S2 S 0.7479(3) 0.60889(10) 0.04111(9)
S3 S 0.1624(3) 0.74438(10) 0.16426(9)
S4 S -0.6806(3) 0.89589(10) -0.01773(10)
Cd1_2 Cd 1.04915(7) 0.75730(3) 0.01394(2)
Cd1_3 Cd -0.95085(7) 0.75730(3) 0.01394(2)
S2_2 S -0.2521(3) 0.60889(10) 0.04111(9)
S4_2 S 0.3194(3) 0.89589(10) -0.01773(10)
Cd2 Cd 0.05681(7) 0.25543(3) 0.51086(3)
C5 C 0.5582(11) 0.3425(4) 0.4523(3)
C6 C -0.4385(11) 0.1687(4) 0.5733(4)
C7 C 0.4243(10) 0.3910(4) 0.6327(3)
H1 H 0.5002 0.4163 0.5930
C8 C 0.5016(9) 0.4069(3) 0.7113(3)
C9 C 0.3372(10) 0.3568(4) 0.7485(3)
H2 H 0.3365 0.3523 0.8016
C10 C 0.7125(10) 0.4622(3) 0.7458(3)
C11 C 0.8774(10) 0.4986(4) 0.6997(4)
H3 H 0.8570 0.4863 0.6463
C12 C 1.0689(10) 0.5522(4) 0.7320(4)
H4 H 1.1772 0.5772 0.7005
C13 C 0.9516(11) 0.5353(4) 0.8550(4)
H5 H 0.9797 0.5482 0.9083
C14 C 0.7529(11) 0.4811(4) 0.8255(4)
H6 H 0.6473 0.4574 0.8585
C15 C -0.3010(10) 0.1231(4) 0.3857(4)
H7 H -0.3850 0.0997 0.4245
C16 C -0.3697(10) 0.1067(3) 0.3062(3)
C17 C -0.1937(10) 0.1537(3) 0.2711(3)
H8 H -0.1845 0.1567 0.2181
C18 C -0.5870(9) 0.0553(3) 0.2696(3)
C19 C -0.7355(10) 0.0079(4) 0.3148(4)
H9 H -0.6990 0.0086 0.3681
C20 C -0.9389(10) -0.0407(4) 0.2796(4)
H10 H -1.0383 -0.0733 0.3092
C21 C -0.8558(11) 0.0055(4) 0.1597(4)
H11 H -0.8988 0.0042 0.1066
C22 C -0.6527(10) 0.0551(4) 0.1909(4)
H12 H -0.5602 0.0881 0.1595
N5 N 0.3691(9) 0.3065(4) 0.4447(3)
N6 N -0.2490(9) 0.2042(4) 0.5823(3)
N7 N 0.2301(8) 0.3356(3) 0.6216(3)
N8 N 0.1795(9) 0.3161(3) 0.6932(3)
H13 H 0.0591 0.2814 0.7024
N9 N 1.1023(8) 0.5693(3) 0.8084(3)
H14 H 1.2248 0.6031 0.8279
N10 N -0.1031(8) 0.1757(3) 0.3986(3)
N11 N -0.0402(8) 0.1939(3) 0.3273(3)
H15 H 0.0839 0.2275 0.3194
N12 N -0.9915(8) -0.0404(3) 0.2039(3)
H16 H -1.1177 -0.0711 0.1828
S5 S 0.8259(3) 0.39500(11) 0.46459(10)
S6 S -0.7056(3) 0.11643(11) 0.55659(11)
Cd2_2 Cd 1.05681(7) 0.25543(3) 0.51086(3)
Cd2_3 Cd -0.94319(7) 0.25543(3) 0.51086(3)
S5_2 S -0.1741(3) 0.39500(11) 0.46459(10)
S6_2 S 0.2944(3) 0.11643(11) 0.55659(11)
loop_
_geom_bond_atom_site_label_1
_geom_bond_atom_site_label_2
_geom_bond_site_symmetry_1
_geom_bond_site_symmetry_2
Cd1 N1 1_555 1_555
Cd2 N5 1_555 1_555
C1 N1 1_555 1_555
C2 N2 1_555 1_555
C3 N3 1_555 1_555
C4 N4 1_555 1_555
C5 N5 1_555 1_555
C6 N6 1_555 1_555
C7 H1 1_555 1_555
C8 C7 1_555 1_555
C9 C8 1_555 1_555
H2 C9 1_555 1_555
C10 C8 1_555 1_555
C11 C10 1_555 1_555
H3 C11 1_555 1_555
C12 C11 1_555 1_555
H4 C12 1_555 1_555
C13 H5 1_555 1_555
C14 C10 1_555 1_555
H6 C14 1_555 1_555
C15 H7 1_555 1_555
C16 C15 1_555 1_555
C17 C16 1_555 1_555
H8 C17 1_555 1_555
C18 C16 1_555 1_555
C19 C18 1_555 1_555
H9 C19 1_555 1_555
C20 C19 1_555 1_555
H10 C20 1_555 1_555
C21 H11 1_555 1_555
C22 C18 1_555 1_555
H12 C22 1_555 1_555
N2 Cd1 1_555 1_555
N4 Cd1 1_555 1_555
N6 Cd2 1_555 1_555
N7 Cd2 1_555 1_555
N8 C9 1_555 1_555
H13 N8 1_555 1_555
N9 C12 1_555 1_555
H14 N9 1_555 1_555
N10 Cd2 1_555 1_555
N11 C17 1_555 1_555
H15 N11 1_555 1_555
N12 C20 1_555 1_555
H16 N12 1_555 1_555
S1 C1 1_555 1_555
S2 C2 1_555 1_555
S3 Cd1 1_555 1_555
S4 C4 1_555 1_555
S5 C5 1_555 1_555
S6 C6 1_555 1_555
Cd1_2 S2 1_555 1_555
Cd1_3 S4 1_555 1_555
Cd2_2 S5 1_555 1_555
Cd2_3 S6 1_555 1_555
S2_2 Cd1 1_555 1_555
S4_2 Cd1 1_555 1_555
S5_2 Cd2 1_555 1_555
S6_2 Cd2 1_555 1_555
C3 S3 1_555 1_555
C7 N7 1_555 1_555
C13 C14 1_555 1_555
C13 N9 1_555 1_555
C15 N10 1_555 1_555
C21 C22 1_555 1_555
C21 N12 1_555 1_555
N7 N8 1_555 1_555
N10 N11 1_555 1_555

#END
