
#######################################################################
#
#                 Cambridge Crystallographic Data Centre
#                                CCDC 
#
#######################################################################
#
# If this CIF has been generated from an entry in the Cambridge 
# Structural Database, then it will include bibliographic, chemical, 
# crystal, experimental, refinement or atomic coordinate data resulting 
# from the CCDC's data processing and validation procedures.
#
#######################################################################

data_UFASAW
_symmetry_cell_setting           orthorhombic
_symmetry_space_group_name_H-M   'C m c a'
_symmetry_Int_Tables_number      64
_space_group_name_Hall           '-C 2ac 2'
loop_
_symmetry_equiv_pos_site_id
_symmetry_equiv_pos_as_xyz
1 x,y,z
2 1/2+x,1/2+y,z
3 -x,1/2-y,1/2+z
4 -x,1/2+y,1/2-z
5 x,-y,-z
6 1/2-x,-y,1/2+z
7 1/2-x,y,1/2-z
8 1/2+x,1/2-y,-z
9 -x,-y,-z
10 1/2-x,1/2-y,-z
11 x,1/2+y,1/2-z
12 x,1/2-y,1/2+z
13 -x,y,z
14 1/2+x,y,1/2-z
15 1/2+x,-y,1/2+z
16 1/2-x,1/2+y,z
_cell_length_a                   16.6207(7)
_cell_length_b                   15.3719(12)
_cell_length_c                   37.354(3)
_cell_angle_alpha                90
_cell_angle_beta                 90
_cell_angle_gamma                90
_cell_volume                     9543.64
loop_
_atom_site_label
_atom_site_type_symbol
_atom_site_fract_x
_atom_site_fract_y
_atom_site_fract_z
C1 C 0.2774(11) -0.5016(12) 0.7051(4)
C2 C 0.2615(11) -0.5694(12) 0.7328(4)
C3 C 0.2500 -0.7034(17) 0.7500
H1 H 0.2500 -0.7652 0.7500
C4 C 0.3958(10) -0.2186(12) 0.6566(4)
C5 C 0.4561(9) -0.2869(11) 0.6523(4)
C6 C 0.5000 -0.4222(18) 0.6458(7)
H2 H 0.5000 -0.4836 0.6428
C7 C 0.3950(10) 0.1433(11) 0.6470(4)
C8 C 0.4575(10) 0.2080(11) 0.6546(4)
C9 C 0.5000 0.3388(16) 0.6689(6)
H3 H 0.5000 0.3989 0.6748
C10 C 0.2181(12) -0.4028(16) 0.5672(5)
H4 H 0.1695 -0.4134 0.5798
C11 C 0.3527(14) -0.3854(19) 0.5668(5)
H5 H 0.4027 -0.3821 0.5790
C12 C 0.2822(12) -0.3787(11) 0.5111(5)
C13 C 0.2850(13) -0.3682(17) 0.4712(6)
C14 C 0.2163(13) -0.3914(18) 0.5298(5)
H6 H 0.1660 -0.3930 0.5177
C15 C 0.3541(15) -0.375(2) 0.5293(6)
H7 H 0.4034 -0.3663 0.5169
C16 C 0.2224(12) -0.3744(16) 0.4133(5)
H8 H 0.1757 -0.3866 0.3996
C17 C 0.2179(12) -0.3804(16) 0.4506(5)
H9 H 0.1678 -0.3931 0.4617
C18 C 0.3543(13) -0.3390(18) 0.4174(5)
H10 H 0.4040 -0.3241 0.4065
C19 C 0.3528(13) -0.3457(18) 0.4543(6)
H11 H 0.4002 -0.3343 0.4677
Cd1 Cd 0.29760(6) -0.39562(7) 0.64790(3)
Cd2 Cd 0.29857(6) 0.31922(7) 0.66431(3)
Cd3 Cd 0.5000 -0.03842(13) 0.65114(7)
N1 N 0.2693(9) -0.6554(9) 0.7208(4)
N2 N 0.4324(8) -0.3720(9) 0.6482(3)
N3 N 0.4346(8) 0.2884(9) 0.6639(3)
N4 N 0.2899(8) -0.3985(10) 0.5857(4)
N5 N 0.2913(9) -0.3517(9) 0.3961(4)
O1 O 0.2925(7) -0.5290(8) 0.6730(3)
O2 O 0.2716(7) -0.4226(8) 0.7118(3)
O3 O 0.3259(6) -0.2535(8) 0.6561(3)
O4 O 0.4084(7) -0.1399(9) 0.6602(4)
O5 O 0.4086(7) 0.0647(8) 0.6387(3)
O6 O 0.3159(6) 0.1686(7) 0.6485(3)
O10 O 0.5000 -0.070(2) 0.5925(9)
O11 O 0.5000 0.0033(19) 0.7095(7)
C1F C 0.2226(11) -0.5016(12) 0.7949(4)
C2F C 0.2385(11) -0.5694(12) 0.7672(4)
C4L C 0.6042(10) -0.2186(12) 0.6566(4)
C5L C 0.5439(9) -0.2869(11) 0.6523(4)
C7L C 0.6050(10) 0.1433(11) 0.6470(4)
C8L C 0.5425(10) 0.2080(11) 0.6546(4)
C10D C 0.2181(12) 0.4028(16) 0.4328(5)
H4D H 0.1695 0.4134 0.4202
C11D C 0.3527(14) 0.3854(19) 0.4332(5)
H5D H 0.4027 0.3821 0.4210
C12D C 0.2822(12) 0.3787(11) 0.4889(5)
C13D C 0.2850(13) 0.3682(17) 0.5288(6)
C14D C 0.2163(13) 0.3914(18) 0.4702(5)
H6D H 0.1660 0.3930 0.4823
C15D C 0.3541(15) 0.375(2) 0.4707(6)
H7D H 0.4034 0.3663 0.4831
C16D C 0.2224(12) 0.3744(16) 0.5867(5)
H8D H 0.1757 0.3866 0.6004
C17D C 0.2179(12) 0.3804(16) 0.5494(5)
H9D H 0.1678 0.3931 0.5383
C18D C 0.3543(13) 0.3390(18) 0.5826(5)
H10D H 0.4040 0.3241 0.5935
C19D C 0.3528(13) 0.3457(18) 0.5457(6)
H11D H 0.4002 0.3343 0.5323
Cd1L Cd 0.70240(6) -0.39562(7) 0.64790(3)
Cd1O Cd 0.20240(6) 0.10438(7) 0.64790(3)
Cd1F Cd 0.20240(6) -0.39562(7) 0.85210(3)
Cd1A Cd 0.79760(6) 0.10438(7) 0.64790(3)
Cd1D Cd 0.29760(6) 0.39562(7) 0.35210(3)
Cd2L Cd 0.70143(6) 0.31922(7) 0.66431(3)
Cd2_2 Cd 0.29857(6) -0.68078(7) 0.66431(3)
Cd2D Cd 0.29857(6) -0.31922(7) 0.33569(3)
Cd2O Cd 0.20143(6) -0.18078(7) 0.66431(3)
Cd2F Cd 0.20143(6) -0.68078(7) 0.83569(3)
Cd2A Cd 0.79857(6) -0.18078(7) 0.66431(3)
N1F N 0.2307(9) -0.6554(9) 0.7792(4)
N1_2 N 0.2693(9) 0.3446(9) 0.7208(4)
N1L N 0.7307(9) 0.3446(9) 0.7208(4)
N2L N 0.5676(8) -0.3720(9) 0.6482(3)
N3L N 0.5654(8) 0.2884(9) 0.6639(3)
N4D N 0.2899(8) 0.3985(10) 0.4143(4)
N4L N 0.7101(8) -0.3985(10) 0.5857(4)
N5D N 0.2913(9) 0.3517(9) 0.6039(4)
N5H N 0.7087(9) 0.3517(9) 0.6039(4)
O1F O 0.2075(7) -0.5290(8) 0.8270(3)
O1_2 O 0.2925(7) 0.4710(8) 0.6730(3)
O1L O 0.7075(7) -0.5290(8) 0.6730(3)
O1L_2 O 0.7075(7) 0.4710(8) 0.6730(3)
O2F O 0.2284(7) -0.4226(8) 0.7882(3)
O2L O 0.7284(7) -0.4226(8) 0.7118(3)
O3L O 0.6741(6) -0.2535(8) 0.6561(3)
O3O O 0.1741(6) 0.2465(8) 0.6561(3)
O3A O 0.8259(6) 0.2465(8) 0.6561(3)
O4L O 0.5916(7) -0.1399(9) 0.6602(4)
O5L O 0.5914(7) 0.0647(8) 0.6387(3)
O6L O 0.6841(6) 0.1686(7) 0.6485(3)
O6O O 0.1841(6) -0.3314(7) 0.6485(3)
O6A O 0.8159(6) -0.3314(7) 0.6485(3)
N6 N 0.0000 0.300(3) 0.5193(8)
O7 O 0.0000 0.3840(19) 0.5138(9)
O8 O 0.0000 0.2539(17) 0.4945(6)
O9 O 0.0000 0.2717(17) 0.5523(8)
O12 O 0.5000 0.082(3) 0.5583(10)
O13 O 0.3945(15) 0.1223(17) 0.7319(7)
O14 O 0.5000 0.761(3) 0.7448(14)
loop_
_geom_bond_atom_site_label_1
_geom_bond_atom_site_label_2
_geom_bond_site_symmetry_1
_geom_bond_site_symmetry_2
C1 C2 1_555 1_555
C2 N1 1_555 1_555
C3 H1 1_555 1_555
C4 C5 1_555 1_555
C5 N2 1_555 1_555
C6 H2 1_555 1_555
C7 C8 1_555 1_555
C8 N3 1_555 1_555
C9 H3 1_555 1_555
C10 H4 1_555 1_555
C11 H5 1_555 1_555
C12 C13 1_555 1_555
C13 C17 1_555 1_555
C14 C10 1_555 1_555
H6 C14 1_555 1_555
C15 C11 1_555 1_555
H7 C15 1_555 1_555
C16 H8 1_555 1_555
C17 C16 1_555 1_555
H9 C17 1_555 1_555
C18 H10 1_555 1_555
C19 C13 1_555 1_555
H11 C19 1_555 1_555
Cd1 N2 1_555 1_555
Cd2 N3 1_555 1_555
Cd3 O4 1_555 1_555
N1 C3 1_555 1_555
N2 C6 1_555 1_555
N3 C9 1_555 1_555
N4 C10 1_555 1_555
N5 C16 1_555 1_555
N6 O7 1_555 1_555
O1 C1 1_555 1_555
O2 C1 1_555 1_555
O3 C4 1_555 1_555
O4 C4 1_555 1_555
O5 C7 1_555 1_555
O6 C7 1_555 1_555
O8 N6 1_555 1_555
O9 N6 1_555 1_555
O10 Cd3 1_555 1_555
O11 Cd3 1_555 1_555
C1F C2F 1_555 1_555
C2F C2 1_555 1_555
C4L C5L 1_555 1_555
C5L C5 1_555 1_555
C7L C8L 1_555 1_555
C8L C8 1_555 1_555
C10D H4D 1_555 1_555
C11D H5D 1_555 1_555
C12D C13D 1_555 1_555
C13D C17D 1_555 1_555
C14D C10D 1_555 1_555
H6D C14D 1_555 1_555
C15D C11D 1_555 1_555
H7D C15D 1_555 1_555
C16D H8D 1_555 1_555
C17D C16D 1_555 1_555
H9D C17D 1_555 1_555
C18D H10D 1_555 1_555
C19D C13D 1_555 1_555
H11D C19D 1_555 1_555
Cd1L N2L 1_555 1_555
Cd1O O6 1_555 1_555
Cd1F O1F 1_555 1_555
Cd1A O3A 1_555 1_555
Cd1D N4D 1_555 1_555
Cd2L N1L 1_555 1_555
Cd2_2 N1 1_555 1_555
Cd2D N5 1_555 1_555
Cd2O O3 1_555 1_555
Cd2F N1F 1_555 1_555
Cd2A O3L 1_555 1_555
N1F C3 1_555 1_555
N1_2 Cd2 1_555 1_555
N2L C6 1_555 1_555
N3L C9 1_555 1_555
N4D C10D 1_555 1_555
N4L Cd1L 1_555 1_555
N5D Cd2 1_555 1_555
N5H Cd2L 1_555 1_555
O1F C1F 1_555 1_555
O1_2 Cd2 1_555 1_555
O1L Cd1L 1_555 1_555
O1L_2 Cd2L 1_555 1_555
O2F C1F 1_555 1_555
O2L Cd1L 1_555 1_555
O3L C4L 1_555 1_555
O3O Cd2 1_555 1_555
O3A Cd2L 1_555 1_555
O4L Cd3 1_555 1_555
O5L Cd3 1_555 1_555
O6L C7L 1_555 1_555
O6O Cd1 1_555 1_555
O6A Cd1L 1_555 1_555
C11 N4 1_555 1_555
C12 C14 1_555 1_555
C12 C15 1_555 1_555
C18 C19 1_555 1_555
C18 N5 1_555 1_555
Cd1 N4 1_555 1_555
Cd1 O1 1_555 1_555
Cd1 O2 1_555 1_555
Cd1 O3 1_555 1_555
Cd2 O6 1_555 1_555
Cd3 O5 1_555 1_555
O1 Cd2_2 1_555 1_555
C2F N1F 1_555 1_555
C4L O4L 1_555 1_555
C5L N2L 1_555 1_555
C7L O5L 1_555 1_555
C8L N3L 1_555 1_555
C11D N4D 1_555 1_555
C12D C14D 1_555 1_555
C12D C15D 1_555 1_555
C16D N5D 1_555 1_555
C18D C19D 1_555 1_555
C18D N5D 1_555 1_555
Cd1L O3L 1_555 1_555
Cd1O O3O 1_555 1_555
Cd1F O2F 1_555 1_555
Cd1A O6L 1_555 1_555
Cd2L N3L 1_555 1_555
Cd2L O6L 1_555 1_555
Cd2O O6O 1_555 1_555
Cd2F O1F 1_555 1_555
Cd2A O6A 1_555 1_555

#END
