
#######################################################################
#
#                 Cambridge Crystallographic Data Centre
#                                CCDC 
#
#######################################################################
#
# If this CIF has been generated from an entry in the Cambridge 
# Structural Database, then it will include bibliographic, chemical, 
# crystal, experimental, refinement or atomic coordinate data resulting 
# from the CCDC's data processing and validation procedures.
#
#######################################################################

data_UFASEA
_symmetry_cell_setting           monoclinic
_symmetry_space_group_name_H-M   'P 2/c'
_symmetry_Int_Tables_number      13
_space_group_name_Hall           '-P 2yc'
loop_
_symmetry_equiv_pos_site_id
_symmetry_equiv_pos_as_xyz
1 x,y,z
2 -x,y,1/2-z
3 -x,-y,-z
4 x,-y,1/2+z
_cell_length_a                   19.374(2)
_cell_length_b                   14.8874(18)
_cell_length_c                   15.3721(18)
_cell_angle_alpha                90
_cell_angle_beta                 111.753(2)
_cell_angle_gamma                90
_cell_volume                     4118.02
loop_
_atom_site_label
_atom_site_type_symbol
_atom_site_fract_x
_atom_site_fract_y
_atom_site_fract_z
K1 K 0.9623(2) 0.4236(2) 0.3551(3)
N10 N 0.5358 0.4191 0.7620
O11 O 0.5000 0.4922 0.7500
O12 O 0.6054 0.4188 0.7854
O13 O 0.5000 0.3465 0.7500
N10A N 0.4642 0.4191 0.7380
O12A O 0.3946 0.4188 0.7146
N12 N 0.4643 0.0831 0.2272
O17 O 0.3950 0.0833 0.1830
O18 O 0.5000 0.0099 0.2500
O19 O 0.5000 0.1558 0.2500
N12A N 0.5357 0.0831 0.2728
O17A O 0.6050 0.0833 0.3170
O25 O 0.0286(12) 0.1084(16) 0.4879(16)
O27 O 0.9806(13) 0.3249(16) 0.4559(17)
O28 O 1.0000 0.549(2) 0.2500
Cd1 Cd 0.81809(4) 1.08663(5) 0.17834(5)
Cd2 Cd 0.81936(4) 1.31636(5) 0.54457(5)
Cd3 Cd 0.18033(4) 1.18117(5) -0.25468(5)
Cd4 Cd 0.81554(4) 1.41939(5) 0.11364(5)
C1 C 0.8252(5) 1.0995(6) 0.5560(7)
C2 C 0.8196(5) 1.1235(6) 0.4619(6)
C3 C 0.8138(6) 1.0775(6) 0.3814(7)
C4 C 0.8168(6) 0.9810(7) 0.3579(8)
C5 C 0.8076(6) 1.2187(6) 0.3499(7)
H1 H 0.8032 1.2737 0.3168
C6 C 0.8288(6) 1.3988(6) 0.7475(7)
C7 C 0.8232(5) 1.3747(6) 0.8372(6)
C8 C 0.8205(6) 1.4235(7) 0.9139(7)
C9 C 0.8224(6) 1.5197(7) 0.9367(7)
C10 C 0.8139(6) 1.2817(7) 0.9394(7)
H2 H 0.8112 1.2270 0.9700
C11 C 0.9049(8) 1.2723(10) 0.1951(8)
C12 C 0.9594(7) 1.2054(8) 0.2278(9)
C13 C 1.0000 1.0679(13) 0.2500
H3 H 1.0000 1.0041 0.2500
C14 C 0.6606(7) 1.3692(9) 0.5596(9)
H4 H 0.6947 1.3845 0.6204
C15 C 0.5864(7) 1.3850(9) 0.5407(9)
H5 H 0.5705 1.4130 0.5856
C16 C 0.5369(6) 1.3594(7) 0.4562(8)
C17 C 0.5605(8) 1.3184(10) 0.3950(10)
H6 H 0.5263 1.2964 0.3370
C18 C 0.6371(7) 1.3088(11) 0.4189(9)
H7 H 0.6543 1.2821 0.3745
C19 C 0.4553(6) 1.3722(9) 0.4346(9)
C20 C 0.4282(7) 1.3677(9) 0.5091(9)
H8 H 0.4610 1.3566 0.5716
C21 C 0.3519(7) 1.3803(9) 0.4875(9)
H9 H 0.3336 1.3757 0.5368
C22 C 0.3311(7) 1.4022(9) 0.3321(8)
H10 H 0.2967 1.4128 0.2703
C23 C 0.4047(7) 1.3916(9) 0.3455(8)
H11 H 0.4207 1.3976 0.2945
C24 C 0.3627(7) 1.1957(9) -0.2088(8)
H12 H 0.3450 1.2265 -0.2671
C25 C 0.4398(7) 1.1845(9) -0.1648(9)
H13 H 0.4730 1.2051 -0.1929
C26 C 0.4652(6) 1.1424(7) -0.0788(8)
C27 C 0.4130(7) 1.1121(9) -0.0442(10)
H14 H 0.4293 1.0830 0.0150
C28 C 0.3390(7) 1.1229(9) -0.0930(9)
H15 H 0.3045 1.0990 -0.0684
C29 C 0.5463(6) 1.1314(8) -0.0255(8)
C30 C 0.5964(7) 1.1132(9) -0.0643(8)
H16 H 0.5798 1.1084 -0.1306
C31 C 0.6696(7) 1.1015(8) -0.0133(8)
H17 H 0.7025 1.0884 -0.0446
C32 C 0.6473(7) 1.1257(10) 0.1200(9)
H18 H 0.6652 1.1309 0.1863
C33 C 0.5740(7) 1.1366(9) 0.0725(9)
H19 H 0.5415 1.1478 0.1049
N1 N 0.8147(5) 1.2158(6) 0.4379(5)
N2 N 0.8069(5) 1.1394(5) 0.3099(6)
N3 N 0.8185(5) 1.2851(5) 0.8562(6)
N4 N 0.8134(5) 1.3639(5) 0.9773(6)
N5 N 0.9364(6) 1.1209(7) 0.2165(8)
N6 N 0.6878(5) 1.3354(6) 0.5017(7)
N7 N 0.3046(5) 1.3982(7) 0.4029(6)
N8 N 0.3135(5) 1.1672(7) -0.1761(7)
N9 N 0.6968(5) 1.1080(6) 0.0805(6)
O1 O 0.8283(5) 1.0192(5) 0.5778(5)
O2 O 0.8281(4) 1.1646(5) 0.6110(5)
O3 O 0.8164(7) 0.9204(5) 0.4094(6)
O4 O 0.8198(4) 0.9672(4) 0.2776(5)
O5 O 0.8289(4) 1.3339(5) 0.6944(5)
O6 O 0.8348(5) 1.4800(5) 0.7288(5)
O7 O 0.8259(8) 1.5799(7) 0.8866(8)
O8 O 0.8225(4) 1.5362(4) 1.0187(5)
O9 O 0.8389(5) 1.2514(6) 0.1574(5)
O10 O 0.9228(6) 1.3565(7) 0.2019(8)
O23 O 0.9552(6) 1.3241(8) 0.6170(11)
O24 O 0.0445(6) 1.1696(8) -0.3171(9)
Cd1C Cd 0.81809(4) 0.91337(5) -0.32166(5)
Cd1C_2 Cd 0.81809(4) 0.91337(5) 0.67834(5)
Cd1A Cd 1.18191(4) 1.08663(5) 0.32166(5)
Cd2C Cd 0.81936(4) 0.68364(5) 0.04457(5)
Cd2C_2 Cd 0.81936(4) 1.68364(5) 1.04457(5)
Cd2C_3 Cd 0.81936(4) 1.68364(5) 0.04457(5)
Cd2A Cd 0.18064(4) 1.31636(5) -0.04457(5)
Cd3A Cd 0.81967(4) 1.18117(5) 0.75468(5)
Cd3B Cd 0.81967(4) 0.81883(5) 0.25468(5)
Cd3A_2 Cd 0.81967(4) 1.18117(5) -0.24532(5)
Cd3B_2 Cd 0.81967(4) 1.81883(5) 0.25468(5)
Cd3C Cd 0.18033(4) 0.81883(5) -0.75468(5)
Cd4A Cd 1.18446(4) 1.41939(5) 0.38636(5)
Cd4_2 Cd 0.81554(4) 1.41939(5) 1.11364(5)
Cd4A_2 Cd 0.18446(4) 1.41939(5) 0.38636(5)
Cd4C Cd 0.81554(4) 1.58061(5) 0.61364(5)
C1C C 0.8252(5) 0.9005(6) 0.0560(7)
C2C C 0.8196(5) 0.8765(6) -0.0381(6)
C3C C 0.8138(6) 0.9225(6) -0.1186(7)
C4C C 0.8168(6) 1.0190(7) -0.1421(8)
C5C C 0.8076(6) 0.7813(6) -0.1501(7)
H1C H 0.8032 0.7263 -0.1832
C6C C 0.8288(6) 1.6012(6) 0.2475(7)
C7C C 0.8232(5) 1.6253(6) 0.3372(6)
C8C C 0.8205(6) 1.5765(7) 0.4139(7)
C9C C 0.8224(6) 1.4803(7) 0.4367(7)
C10C C 0.8139(6) 1.7183(7) 0.4394(7)
H2C H 0.8112 1.7730 0.4700
C11A C 1.0951(8) 1.2723(10) 0.3049(8)
C12A C 1.0406(7) 1.2054(8) 0.2722(9)
C14A C 0.3394(7) 1.3692(9) -0.0596(9)
H4A H 0.3053 1.3845 -0.1204
C15A C 0.4136(7) 1.3850(9) -0.0407(9)
H5A H 0.4295 1.4130 -0.0856
C16A C 0.4631(6) 1.3594(7) 0.0438(8)
C17A C 0.4395(8) 1.3184(10) 0.1050(10)
H6A H 0.4737 1.2964 0.1630
C18A C 0.3629(7) 1.3088(11) 0.0811(9)
H7A H 0.3457 1.2821 0.1255
C19A C 0.5447(6) 1.3722(9) 0.0654(9)
C20A C 0.5718(7) 1.3677(9) -0.0091(9)
H8A H 0.5390 1.3566 -0.0716
C21A C 0.6481(7) 1.3803(9) 0.0125(9)
H9A H 0.6664 1.3757 -0.0368
C22A C 0.6689(7) 1.4022(9) 0.1679(8)
H10A H 0.7033 1.4128 0.2297
C23A C 0.5953(7) 1.3916(9) 0.1545(8)
H11A H 0.5793 1.3976 0.2055
C24C C 0.3627(7) 0.8043(9) -0.7088(8)
H12C H 0.3450 0.7735 -0.7671
C25C C 0.4398(7) 0.8155(9) -0.6648(9)
H13C H 0.4730 0.7949 -0.6929
C26C C 0.4652(6) 0.8576(7) -0.5788(8)
C27C C 0.4130(7) 0.8879(9) -0.5442(10)
H14C H 0.4293 0.9170 -0.4850
C28C C 0.3390(7) 0.8771(9) -0.5930(9)
H15C H 0.3045 0.9010 -0.5684
C29C C 0.5463(6) 0.8686(8) -0.5255(8)
C30C C 0.5964(7) 0.8868(9) -0.5643(8)
H16C H 0.5798 0.8916 -0.6306
C31C C 0.6696(7) 0.8985(8) -0.5133(8)
H17C H 0.7025 0.9116 -0.5446
C32C C 0.6473(7) 0.8743(10) -0.3800(9)
H18C H 0.6652 0.8691 -0.3137
C33C C 0.5740(7) 0.8634(9) -0.4275(9)
H19C H 0.5415 0.8522 -0.3951
N1C N 0.8147(5) 0.7842(6) -0.0621(5)
N2C N 0.8069(5) 0.8606(5) -0.1901(6)
N3C N 0.8185(5) 1.7149(5) 0.3562(6)
N3A N 0.1815(5) 1.2851(5) -0.3562(6)
N4C N 0.8134(5) 1.6361(5) 0.4773(6)
N4_2 N 0.8134(5) 1.3639(5) -0.0227(6)
N4A N 1.1866(5) 1.3639(5) 0.5227(6)
N5A N 1.0636(6) 1.1209(7) 0.2835(8)
N5C N 0.9364(6) 0.8791(7) -0.2835(8)
N6A N 0.3122(5) 1.3354(6) -0.0017(7)
N6C N 0.6878(5) 0.6646(6) 0.0017(7)
N7A N 0.6954(5) 1.3982(7) 0.0971(6)
N7_2 N 1.3046(5) 1.3982(7) 0.4029(6)
N8C N 0.3135(5) 0.8328(7) -0.6761(7)
N8A N 0.6865(5) 1.1672(7) 0.6761(7)
N9C N 0.6968(5) 0.8920(6) -0.4195(6)
O1C O 0.8283(5) 0.9808(5) 0.0778(5)
O1_2 O 0.8283(5) 1.0192(5) -0.4222(5)
O2C O 0.8281(4) 0.8354(5) 0.1110(5)
O2A O 0.1719(4) 1.1646(5) -0.1110(5)
O3C O 0.8164(7) 1.0796(5) -0.0906(6)
O4C O 0.8198(4) 1.0328(4) -0.2224(5)
O4B O 0.1802(4) 1.0328(4) -0.2776(5)
O4C_2 O 0.8198(4) 1.0328(4) 0.7776(5)
O5C O 0.8289(4) 1.6661(5) 0.1944(5)
O5A O 0.1711(4) 1.3339(5) -0.1944(5)
O5C_2 O 0.8289(4) 0.6661(5) 0.1944(5)
O6C O 0.8348(5) 1.5200(5) 0.2288(5)
O6B O 1.1652(5) 1.5200(5) 0.2712(5)
O7C O 0.8259(8) 1.4201(7) 0.3866(8)
O8C O 0.8225(4) 1.4638(4) 0.5187(5)
O8_2 O 0.8225(4) 1.5362(4) 0.0187(5)
O8_3 O 0.8225(4) 0.5362(4) 0.0187(5)
O8A O 1.1775(4) 1.5362(4) 0.4813(5)
O9A O 1.1611(5) 1.2514(6) 0.3426(5)
O9C O 0.8389(5) 0.7486(6) -0.3426(5)
O10A O 1.0772(6) 1.3565(7) 0.2981(8)
O23C O 0.9552(6) 0.6759(8) 0.1170(11)
O24A O 0.9555(6) 1.1696(8) 0.8171(9)
N11? N 0.5348 0.3572 0.7634
O14? O 0.5000 0.4306 0.7500
O15? O 0.6047 0.3573 0.7903
O16? O 0.5000 0.2839 0.7500
N13? N 0.5200 0.0090 0.2258
O20? O 0.5601 0.0090 0.1773
O21? O 0.5000 -0.0643 0.2500
O22? O 0.5000 0.0823 0.2500
O26? O 0.986(4) 0.027(5) 0.554(4)
O29? O 0.996(2) 0.498(3) 0.451(2)
loop_
_geom_bond_atom_site_label_1
_geom_bond_atom_site_label_2
_geom_bond_site_symmetry_1
_geom_bond_site_symmetry_2
Cd1 N2 1_555 1_555
Cd2 N1 1_555 1_555
Cd3 N8 1_555 1_555
Cd4 O9 1_555 1_555
C1 C2 1_555 1_555
C2 C3 1_555 1_555
C3 C4 1_555 1_555
C4 O3 1_555 1_555
C5 H1 1_555 1_555
C6 C7 1_555 1_555
C7 C8 1_555 1_555
C8 C9 1_555 1_555
C9 O7 1_555 1_555
C10 H2 1_555 1_555
C11 C12 1_555 1_555
C12 N5 1_555 1_555
C13 H3 1_555 1_555
C14 H4 1_555 1_555
C15 C14 1_555 1_555
H5 C15 1_555 1_555
C16 C15 1_555 1_555
C17 C16 1_555 1_555
H6 C17 1_555 1_555
C18 C17 1_555 1_555
H7 C18 1_555 1_555
C19 C16 1_555 1_555
C20 C19 1_555 1_555
H8 C20 1_555 1_555
C21 C20 1_555 1_555
H9 C21 1_555 1_555
C22 H10 1_555 1_555
C23 C19 1_555 1_555
H11 C23 1_555 1_555
C24 H12 1_555 1_555
C25 C24 1_555 1_555
H13 C25 1_555 1_555
C26 C25 1_555 1_555
C27 C26 1_555 1_555
H14 C27 1_555 1_555
C28 C27 1_555 1_555
H15 C28 1_555 1_555
C29 C26 1_555 1_555
C30 C29 1_555 1_555
H16 C30 1_555 1_555
C31 C30 1_555 1_555
H17 C31 1_555 1_555
C32 H18 1_555 1_555
C33 C29 1_555 1_555
H19 C33 1_555 1_555
N1 C2 1_555 1_555
N2 C3 1_555 1_555
N3 C7 1_555 1_555
N4 C8 1_555 1_555
N5 Cd1 1_555 1_555
N6 Cd2 1_555 1_555
N7 C21 1_555 1_555
N8 C24 1_555 1_555
N9 Cd1 1_555 1_555
O1 C1 1_555 1_555
O2 Cd2 1_555 1_555
O4 Cd1 1_555 1_555
O5 Cd2 1_555 1_555
O6 C6 1_555 1_555
O8 C9 1_555 1_555
O9 Cd1 1_555 1_555
O10 Cd4 1_555 1_555
N10 O11 1_555 1_555
O11 N10A 1_555 1_555
O12 N10 1_555 1_555
O13 N10 1_555 1_555
N12 O17 1_555 1_555
O18 N12 1_555 1_555
O19 N12 1_555 1_555
O23 Cd2 1_555 1_555
O24 Cd3 1_555 1_555
Cd1C N2C 1_555 1_555
Cd1C_2 O1 1_555 1_555
Cd1A N5A 1_555 1_555
Cd2C N1C 1_555 1_555
Cd2C_2 O8 1_555 1_555
Cd2C_3 O5C 1_555 1_555
Cd2A N6A 1_555 1_555
Cd3A N3 1_555 1_555
Cd3B O4 1_555 1_555
Cd3A_2 O4C 1_555 1_555
Cd3B_2 N3C 1_555 1_555
Cd3C N8C 1_555 1_555
Cd4A N4A 1_555 1_555
Cd4_2 N4 1_555 1_555
Cd4A_2 N7 1_555 1_555
Cd4C O6 1_555 1_555
C1C C2C 1_555 1_555
C2C C3C 1_555 1_555
C3C C4C 1_555 1_555
C4C O3C 1_555 1_555
C5C H1C 1_555 1_555
C6C C7C 1_555 1_555
C7C C8C 1_555 1_555
C8C C9C 1_555 1_555
C9C O7C 1_555 1_555
C10C H2C 1_555 1_555
C11A C12A 1_555 1_555
C12A C12 1_555 1_555
C14A H4A 1_555 1_555
C15A C14A 1_555 1_555
H5A C15A 1_555 1_555
C16A C15A 1_555 1_555
C17A C16A 1_555 1_555
H6A C17A 1_555 1_555
C18A C17A 1_555 1_555
H7A C18A 1_555 1_555
C19A C16A 1_555 1_555
C20A C19A 1_555 1_555
H8A C20A 1_555 1_555
C21A C20A 1_555 1_555
H9A C21A 1_555 1_555
C22A H10A 1_555 1_555
C23A C19A 1_555 1_555
H11A C23A 1_555 1_555
C24C H12C 1_555 1_555
C25C C24C 1_555 1_555
H13C C25C 1_555 1_555
C26C C25C 1_555 1_555
C27C C26C 1_555 1_555
H14C C27C 1_555 1_555
C28C C27C 1_555 1_555
H15C C28C 1_555 1_555
C29C C26C 1_555 1_555
C30C C29C 1_555 1_555
H16C C30C 1_555 1_555
C31C C30C 1_555 1_555
H17C C31C 1_555 1_555
C32C H18C 1_555 1_555
C33C C29C 1_555 1_555
H19C C33C 1_555 1_555
N1C C2C 1_555 1_555
N2C C3C 1_555 1_555
N3C C7C 1_555 1_555
N3A Cd3 1_555 1_555
N4C Cd4C 1_555 1_555
N4_2 Cd4 1_555 1_555
N5A C13 1_555 1_555
N5C Cd1C 1_555 1_555
N6A C14A 1_555 1_555
N6C Cd2C 1_555 1_555
N7A Cd4 1_555 1_555
N7_2 Cd4A 1_555 1_555
N8C C24C 1_555 1_555
N8A Cd3A 1_555 1_555
N9C Cd1C 1_555 1_555
O1C Cd1 1_555 1_555
O1_2 Cd1C 1_555 1_555
O2C Cd2C 1_555 1_555
O2A Cd3 1_555 1_555
O4C Cd1C 1_555 1_555
O4B Cd3 1_555 1_555
O4C_2 Cd1C_2 1_555 1_555
O5C Cd3B_2 1_555 1_555
O5A Cd3 1_555 1_555
O5C_2 Cd2C 1_555 1_555
O6C Cd4 1_555 1_555
O6B Cd4A 1_555 1_555
O8C Cd2 1_555 1_555
O8_2 Cd4 1_555 1_555
O8_3 Cd2C 1_555 1_555
O8A Cd4A 1_555 1_555
O9A Cd1A 1_555 1_555
O9C Cd1C 1_555 1_555
O10A Cd4A 1_555 1_555
N10A N10 1_555 1_555
O12A N10A 1_555 1_555
N12A N12 1_555 1_555
O17A N12A 1_555 1_555
O23C Cd2C 1_555 1_555
O24A Cd3A 1_555 1_555
C1 O2 1_555 1_555
C4 O4 1_555 1_555
C5 N1 1_555 1_555
C5 N2 1_555 1_555
C6 O5 1_555 1_555
C10 N3 1_555 1_555
C10 N4 1_555 1_555
C11 O9 1_555 1_555
C11 O10 1_555 1_555
C13 N5 1_555 1_555
C14 N6 1_555 1_555
C18 N6 1_555 1_555
C22 C23 1_555 1_555
C22 N7 1_555 1_555
C28 N8 1_555 1_555
C31 N9 1_555 1_555
C32 C33 1_555 1_555
C32 N9 1_555 1_555
O2 Cd3A 1_555 1_555
O5 Cd3A 1_555 1_555
O8 Cd4_2 1_555 1_555
O13 N10A 1_555 1_555
O18 N12A 1_555 1_555
O19 N12A 1_555 1_555
Cd2C_3 O8_2 1_555 1_555
Cd2A O2A 1_555 1_555
Cd2A O5A 1_555 1_555
Cd3A O4C_2 1_555 1_555
Cd3B O2C 1_555 1_555
Cd3B O5C_2 1_555 1_555
Cd4A O9A 1_555 1_555
Cd4C O8C 1_555 1_555
C1C O1C 1_555 1_555
C1C O2C 1_555 1_555
C4C O4C 1_555 1_555
C5C N1C 1_555 1_555
C5C N2C 1_555 1_555
C6C O5C 1_555 1_555
C6C O6C 1_555 1_555
C8C N4C 1_555 1_555
C9C O8C 1_555 1_555
C10C N3C 1_555 1_555
C10C N4C 1_555 1_555
C11A O9A 1_555 1_555
C11A O10A 1_555 1_555
C12A N5A 1_555 1_555
C18A N6A 1_555 1_555
C21A N7A 1_555 1_555
C22A C23A 1_555 1_555
C22A N7A 1_555 1_555
C28C N8C 1_555 1_555
C31C N9C 1_555 1_555
C32C C33C 1_555 1_555
C32C N9C 1_555 1_555

#END
