
#######################################################################
#
#                 Cambridge Crystallographic Data Centre
#                                CCDC 
#
#######################################################################
#
# If this CIF has been generated from an entry in the Cambridge 
# Structural Database, then it will include bibliographic, chemical, 
# crystal, experimental, refinement or atomic coordinate data resulting 
# from the CCDC's data processing and validation procedures.
#
#######################################################################

data_UFATAW
_symmetry_cell_setting           monoclinic
_symmetry_space_group_name_H-M   'P 21/c'
_symmetry_Int_Tables_number      14
_space_group_name_Hall           '-P 2ybc'
loop_
_symmetry_equiv_pos_site_id
_symmetry_equiv_pos_as_xyz
1 x,y,z
2 x,1/2-y,1/2+z
3 -x,-y,-z
4 -x,1/2+y,1/2-z
_cell_length_a                   12.49400(10)
_cell_length_b                   12.0800(3)
_cell_length_c                   7.1600(3)
_cell_angle_alpha                90
_cell_angle_beta                 105.2640(10)
_cell_angle_gamma                90
_cell_volume                     1042.52
loop_
_atom_site_label
_atom_site_type_symbol
_atom_site_fract_x
_atom_site_fract_y
_atom_site_fract_z
Na1 Na 0.51268(6) 0.68316(5) -0.25367(9)
S1 S 0.63218(3) 0.57656(3) 0.22544(5)
O1 O 0.58125(11) 0.66148(10) 0.08673(16)
O2 O 0.55192(10) 0.50288(10) 0.27538(19)
O3 O 0.70769(10) 0.62568(11) 0.39595(15)
C1 C 0.71423(13) 0.49101(13) 0.1142(2)
H1 H 0.6606(17) 0.4555(18) 0.005(3)
H2 H 0.7453(19) 0.4345(19) 0.208(3)
O4 O 0.68967(9) 0.58223(11) -0.25615(16)
H3 H 0.698(2) 0.601(2) -0.369(4)
C2 C 0.78967(12) 0.59583(13) -0.1285(2)
C3 C 0.80549(12) 0.55308(12) 0.0590(2)
C4 C 0.90826(13) 0.56561(13) 0.1910(2)
H4 H 0.9210(18) 0.5351(18) 0.315(3)
C5 C 0.99296(13) 0.61849(13) 0.1342(2)
C6 C 0.97869(14) 0.65959(14) -0.0513(3)
H5 H 1.0387(19) 0.689(2) -0.085(3)
C7 C 0.87651(13) 0.64914(14) -0.1826(2)
H6 H 0.8617(17) 0.6796(18) -0.314(3)
N1 N 1.10174(12) 0.62824(13) 0.2711(2)
O5 O 1.11698(13) 0.58883(14) 0.4319(2)
O6 O 1.17458(12) 0.67840(15) 0.2188(3)
O7 O 0.41280(12) 0.82522(12) -0.1144(2)
H7 H 0.346(3) 0.828(3) -0.141(4)
H8 H 0.430(4) 0.888(4) -0.154(6)
O1A O 0.58125(11) 0.83852(10) -0.41327(16)
O2B O 0.44808(10) 0.49712(10) -0.27538(19)
O7A O 0.41280(12) 0.67478(12) -0.6144(2)
Na1A Na 0.51268(6) 0.81684(5) 0.24633(9)
Na1B Na 0.48732(6) 0.31684(5) 0.25367(9)
H7A H 0.346(3) 0.672(3) -0.641(4)
H8A H 0.430(4) 0.612(4) -0.654(6)
loop_
_geom_bond_atom_site_label_1
_geom_bond_atom_site_label_2
_geom_bond_site_symmetry_1
_geom_bond_site_symmetry_2
Na1 O1 1_555 1_555
S1 O1 1_555 1_555
O1 Na1A 1_555 1_555
O2 S1 1_555 1_555
O3 S1 1_555 1_555
C1 S1 1_555 1_555
H1 C1 1_555 1_555
H2 C1 1_555 1_555
O4 Na1 1_555 1_555
H3 O4 1_555 1_555
C2 O4 1_555 1_555
C3 C1 1_555 1_555
C4 C3 1_555 1_555
H4 C4 1_555 1_555
C5 C4 1_555 1_555
C6 C5 1_555 1_555
H5 C6 1_555 1_555
C7 C2 1_555 1_555
H6 C7 1_555 1_555
N1 C5 1_555 1_555
O5 N1 1_555 1_555
O6 N1 1_555 1_555
O7 Na1 1_555 1_555
H7 O7 1_555 1_555
H8 O7 1_555 1_555
O1A Na1 1_555 1_555
O2B Na1 1_555 1_555
O7A Na1 1_555 1_555
Na1A O7 1_555 1_555
Na1B O2 1_555 1_555
H7A O7A 1_555 1_555
H8A O7A 1_555 1_555
C2 C3 1_555 1_555
C6 C7 1_555 1_555

#END
