
#######################################################################
#
#                 Cambridge Crystallographic Data Centre
#                                CCDC 
#
#######################################################################
#
# If this CIF has been generated from an entry in the Cambridge 
# Structural Database, then it will include bibliographic, chemical, 
# crystal, experimental, refinement or atomic coordinate data resulting 
# from the CCDC's data processing and validation procedures.
#
#######################################################################

data_UFATIF
_symmetry_cell_setting           monoclinic
_symmetry_space_group_name_H-M   'P 21/c'
_symmetry_Int_Tables_number      14
_space_group_name_Hall           '-P 2ybc'
loop_
_symmetry_equiv_pos_site_id
_symmetry_equiv_pos_as_xyz
1 x,y,z
2 -x,1/2+y,1/2-z
3 -x,-y,-z
4 x,1/2-y,1/2+z
_cell_length_a                   13.3013(4)
_cell_length_b                   7.5995(2)
_cell_length_c                   14.3627(5)
_cell_angle_alpha                90
_cell_angle_beta                 110.4358(13)
_cell_angle_gamma                90
_cell_volume                     1360.46
loop_
_atom_site_label
_atom_site_type_symbol
_atom_site_fract_x
_atom_site_fract_y
_atom_site_fract_z
Cu1 Cu 0.06869(2) 0.32218(4) 0.18306(2)
Cl1 Cl 0.02299(5) 0.49362(8) 0.29132(5)
N1 N -0.06403(17) 0.3676(3) 0.06718(16)
N2 N 0.02801(18) 0.2029(3) -0.01057(17)
N3 N 0.10751(17) 0.1963(3) 0.08111(15)
O1 O 0.20742(14) 0.2859(2) 0.27978(13)
C1 C -0.1526(2) 0.4609(4) 0.0643(2)
H2 H -0.1546 0.5129 0.1237
C2 C -0.2386(2) 0.4819(4) -0.0214(2)
H3 H -0.2995 0.5471 -0.0212
C3 C -0.2361(2) 0.4064(4) -0.1093(2)
H4 H -0.2954 0.4196 -0.1694
C4 C -0.1470(2) 0.3127(4) -0.1080(2)
H5 H -0.1431 0.2615 -0.1670
C5 C -0.0625(2) 0.2951(3) -0.01755(19)
C6 C 0.1953(2) 0.1134(3) 0.0907(2)
C7 C 0.2839(2) 0.1015(3) 0.18328(19)
C8 C 0.3728(2) -0.0017(4) 0.1838(2)
H6 H 0.3712 -0.0579 0.1243
C9 C 0.4610(2) -0.0222(4) 0.2681(2)
H7 H 0.5192 -0.0943 0.2676
C10 C 0.4641(2) 0.0640(4) 0.3546(2)
H8 H 0.5254 0.0516 0.4132
C11 C 0.3792(2) 0.1677(4) 0.3565(2)
H9 H 0.3836 0.2264 0.4162
C12 C 0.2864(2) 0.1877(3) 0.27169(19)
H13 H 0.039(3) 0.162(5) -0.058(3)
H14 H 0.205(2) 0.056(4) 0.038(2)
Cu1A Cu -0.06869(2) 0.82218(4) 0.31694(2)
Cl1A Cl -0.02299(5) -0.00638(8) 0.20868(5)
O2 O -0.2927(2) 0.0363(3) 0.06849(16)
H1 H -0.2536 -0.0244 0.1163
C13 C -0.3562(3) 0.1496(5) 0.1018(3)
H10 H -0.3098 0.2271 0.1536
H11 H -0.4016 0.0801 0.1290
H12 H -0.4016 0.2207 0.0461
loop_
_geom_bond_atom_site_label_1
_geom_bond_atom_site_label_2
_geom_bond_site_symmetry_1
_geom_bond_site_symmetry_2
Cu1 Cl1 1_555 1_555
Cl1 Cu1A 1_555 1_555
N1 Cu1 1_555 1_555
N2 N3 1_555 1_555
N3 Cu1 1_555 1_555
O1 Cu1 1_555 1_555
O2 H1 1_555 1_555
C1 N1 1_555 1_555
H2 C1 1_555 1_555
C2 C1 1_555 1_555
H3 C2 1_555 1_555
C3 C2 1_555 1_555
H4 C3 1_555 1_555
C4 C3 1_555 1_555
H5 C4 1_555 1_555
C5 N1 1_555 1_555
C6 N3 1_555 1_555
C7 C6 1_555 1_555
C8 C7 1_555 1_555
H6 C8 1_555 1_555
C9 C8 1_555 1_555
H7 C9 1_555 1_555
C10 C9 1_555 1_555
H8 C10 1_555 1_555
C11 C10 1_555 1_555
H9 C11 1_555 1_555
C12 O1 1_555 1_555
C13 O2 1_555 1_555
H10 C13 1_555 1_555
H11 C13 1_555 1_555
H12 C13 1_555 1_555
H13 N2 1_555 1_555
H14 C6 1_555 1_555
Cl1A Cu1 1_555 1_555
N2 C5 1_555 1_555
C4 C5 1_555 1_555
C7 C12 1_555 1_555
C11 C12 1_555 1_555

#END
