
#######################################################################
#
#                 Cambridge Crystallographic Data Centre
#                                CCDC 
#
#######################################################################
#
# If this CIF has been generated from an entry in the Cambridge 
# Structural Database, then it will include bibliographic, chemical, 
# crystal, experimental, refinement or atomic coordinate data resulting 
# from the CCDC's data processing and validation procedures.
#
#######################################################################

data_UFATEA
_symmetry_cell_setting           tetragonal
_symmetry_space_group_name_H-M   'P 43 21 2'
_symmetry_Int_Tables_number      96
_space_group_name_Hall           'P 4nw 2abw'
loop_
_symmetry_equiv_pos_site_id
_symmetry_equiv_pos_as_xyz
1 x,y,z
2 -x,-y,1/2+z
3 1/2+x,1/2-y,1/4-z
4 1/2-x,1/2+y,3/4-z
5 -y,-x,1/2-z
6 y,x,-z
7 1/2+y,1/2-x,1/4+z
8 1/2-y,1/2+x,3/4+z
_cell_length_a                   11.678(3)
_cell_length_b                   11.678(3)
_cell_length_c                   8.6608(12)
_cell_angle_alpha                90
_cell_angle_beta                 90
_cell_angle_gamma                90
_cell_volume                     1181.12
loop_
_atom_site_label
_atom_site_type_symbol
_atom_site_fract_x
_atom_site_fract_y
_atom_site_fract_z
Ni1 Ni -0.27886(3) 0.27886(3) -0.2500
O1 O -0.3684(2) 0.3743(2) -0.0659(3)
O2 O -0.3959(2) 0.1909(2) -0.1143(3)
N1 N -0.6474(2) 0.2475(2) 0.3489(3)
C1 C -0.4138(3) 0.2792(3) -0.0331(3)
C2 C -0.4923(3) 0.2691(3) 0.1061(4)
C3 C -0.5441(3) 0.3649(3) 0.1694(4)
H1 H -0.062 0.0280 -0.6187
C4 C -0.6210(3) 0.3507(3) 0.2914(4)
H2 H -0.6551 0.4152 0.3343
C5 C -0.5938(3) 0.1552(3) 0.2900(4)
H3 H -0.6091 0.0837 0.3325
C6 C -0.3377(3) 0.0163(3) -0.5821(4)
H4 H -0.4032 -0.0185 -0.6211
Ni1B Ni -0.77886(3) 0.22114(3) 0.5000
O1D O -0.3743(2) 0.3684(2) -0.4341(3)
O2D O -0.1909(2) 0.3959(2) -0.3857(3)
N1B N -0.1474(2) 0.2525(2) -0.0989(3)
N1F N -0.2525(2) 0.1474(2) -0.4011(3)
C4F C -0.1493(3) 0.1210(3) -0.4586(4)
C3F C -0.1351(3) 0.0441(3) -0.5806(4)
C2F C -0.2309(3) -0.0077(3) -0.6439(4)
C1F C -0.2208(3) -0.0862(3) -0.7831(3)
O1F O -0.1257(2) -0.1316(2) -0.8159(3)
Ni1C Ni -0.22114(3) -0.22114(3) -1.0000
O2F O -0.3091(2) -0.1041(2) -0.8643(3)
C5F C -0.3448(3) 0.0938(3) -0.4600(4)
H3F H -0.4163 0.1091 -0.4175
H2F H -0.0848 0.1551 -0.4157
C6G C -0.5163(3) 0.1623(3) 0.1679(4)
H4G H -0.4815 0.0968 0.1289
H1G H -0.5280 0.438 0.1313
loop_
_geom_bond_atom_site_label_1
_geom_bond_atom_site_label_2
_geom_bond_site_symmetry_1
_geom_bond_site_symmetry_2
Ni1 O1 1_555 1_555
O1 C1 1_555 1_555
O2 Ni1 1_555 1_555
N1 C4 1_555 1_555
C1 O2 1_555 1_555
C2 C1 1_555 1_555
C3 C2 1_555 1_555
H1 C3F 1_555 1_555
C4 C3 1_555 1_555
H2 C4 1_555 1_555
C5 N1 1_555 1_555
H3 C5 1_555 1_555
C6 H4 1_555 1_555
Ni1B N1 1_555 1_555
O1D Ni1 1_555 1_555
O2D Ni1 1_555 1_555
N1B Ni1 1_555 1_555
N1F Ni1 1_555 1_555
C4F N1F 1_555 1_555
C3F C4F 1_555 1_555
C2F C6 1_555 1_555
C1F C2F 1_555 1_555
O1F C1F 1_555 1_555
Ni1C O1F 1_555 1_555
O2F C1F 1_555 1_555
C5F C6 1_555 1_555
H3F C5F 1_555 1_555
H2F C4F 1_555 1_555
C6G C2 1_555 1_555
H4G C6G 1_555 1_555
H1G C3 1_555 1_555
C5 C6G 1_555 1_555
N1F C5F 1_555 1_555
C3F C2F 1_555 1_555
Ni1C O2F 1_555 1_555

#END
