
#######################################################################
#
#                 Cambridge Crystallographic Data Centre
#                                CCDC 
#
#######################################################################
#
# If this CIF has been generated from an entry in the Cambridge 
# Structural Database, then it will include bibliographic, chemical, 
# crystal, experimental, refinement or atomic coordinate data resulting 
# from the CCDC's data processing and validation procedures.
#
#######################################################################

data_UFAVAZ
_symmetry_cell_setting           monoclinic
_symmetry_space_group_name_H-M   'P 21/n'
_symmetry_Int_Tables_number      14
_space_group_name_Hall           '-P 2yn'
loop_
_symmetry_equiv_pos_site_id
_symmetry_equiv_pos_as_xyz
1 x,y,z
2 1/2-x,1/2+y,1/2-z
3 -x,-y,-z
4 1/2+x,1/2-y,1/2+z
_cell_length_a                   4.8474(6)
_cell_length_b                   25.814(3)
_cell_length_c                   15.3589(18)
_cell_angle_alpha                90
_cell_angle_beta                 92.348(2)
_cell_angle_gamma                90
_cell_volume                     1920.26
loop_
_atom_site_label
_atom_site_type_symbol
_atom_site_fract_x
_atom_site_fract_y
_atom_site_fract_z
Cu1 Cu 0.27298(11) 0.17409(2) 0.32731(3)
S1 S 0.7348(3) 0.41365(4) 0.32523(8)
S2 S 0.7007(3) 0.43783(5) 0.13238(8)
N1 N 0.3914(7) 0.24939(13) 0.3182(2)
N2 N 0.3517(7) 0.59993(13) 0.1671(2)
C1 C 0.2985(9) 0.28745(18) 0.3691(3)
H1 H 0.1606 0.2793 0.4072
C2 C 0.3935(9) 0.33742(17) 0.3686(3)
H2 H 0.3199 0.3623 0.4049
C3 C 0.6010(9) 0.35030(16) 0.3132(3)
C4 C 0.6955(9) 0.31225(16) 0.2592(3)
H3 H 0.8303 0.3198 0.2197
C5 C 0.5904(9) 0.26317(17) 0.2638(3)
H4 H 0.6600 0.2379 0.2275
C6 C 0.9158(9) 0.42436(17) 0.2273(3)
H5 H 1.0419 0.4532 0.2369
H6 H 1.0259 0.3939 0.2159
C7 C 0.2508(9) 0.56618(18) 0.1081(3)
H7 H 0.1037 0.5767 0.0714
C8 C 0.3509(10) 0.51720(17) 0.0983(3)
H8 H 0.2747 0.4955 0.0553
C9 C 0.5662(10) 0.49988(16) 0.1527(3)
C10 C 0.6657(9) 0.53387(17) 0.2162(3)
H9 H 0.8065 0.5238 0.2555
C11 C 0.5550(10) 0.58249(17) 0.2206(3)
H10 H 0.6258 0.6048 0.2635
O1 O 0.4120(6) 0.15926(11) 0.21196(18)
O2 O 0.0122(7) 0.18779(13) 0.1542(2)
O3 O 0.6161(9) 0.1392(2) 0.0552(3)
C12 C 0.2475(10) 0.16961(18) 0.1486(3)
C13 C 0.3464(11) 0.1569(2) 0.0587(3)
H11 H 0.2247 0.1308 0.0329
H12 H 0.3280 0.1878 0.0229
O4 O 0.6878(6) 0.16023(11) 0.39935(19)
O5 O 1.1066(6) 0.18780(10) 0.44035(17)
O6 O 0.5218(8) 0.16301(16) 0.5683(2)
C14 C 0.8580(9) 0.17639(16) 0.4552(3)
C15 C 0.7772(9) 0.18365(18) 0.5477(3)
H13 H 0.9184 0.1680 0.5858
H14 H 0.7756 0.2205 0.5602
H15 H 0.408(11) 0.176(2) 0.540(3)
H16 H 0.709(13) 0.158(2) 0.093(4)
Cu1A Cu 0.22702(11) 0.67409(2) 0.17269(3)
Cu1_2 Cu 1.27298(11) 0.17409(2) 0.32731(3)
N2A N 0.1483(7) 0.09993(13) 0.3329(2)
O5_2 O 0.1066(6) 0.18780(10) 0.44035(17)
O7 O 0.3137(14) 0.0112(2) 0.1064(4)
O8 O 0.7624(14) 0.0437(3) 0.0490(4)
loop_
_geom_bond_atom_site_label_1
_geom_bond_atom_site_label_2
_geom_bond_site_symmetry_1
_geom_bond_site_symmetry_2
Cu1 N1 1_555 1_555
S1 C3 1_555 1_555
S2 C6 1_555 1_555
N1 C1 1_555 1_555
N2 C7 1_555 1_555
C1 H1 1_555 1_555
C2 C1 1_555 1_555
H2 C2 1_555 1_555
C3 C2 1_555 1_555
C4 C3 1_555 1_555
H3 C4 1_555 1_555
C5 N1 1_555 1_555
H4 C5 1_555 1_555
C6 S1 1_555 1_555
H5 C6 1_555 1_555
H6 C6 1_555 1_555
C7 H7 1_555 1_555
C8 C7 1_555 1_555
H8 C8 1_555 1_555
C9 S2 1_555 1_555
C10 C9 1_555 1_555
H9 C10 1_555 1_555
C11 N2 1_555 1_555
H10 C11 1_555 1_555
O1 Cu1 1_555 1_555
O2 C12 1_555 1_555
O3 C13 1_555 1_555
C12 O1 1_555 1_555
C13 C12 1_555 1_555
H11 C13 1_555 1_555
H12 C13 1_555 1_555
O4 Cu1 1_555 1_555
O5 C14 1_555 1_555
O6 C15 1_555 1_555
C14 O4 1_555 1_555
C15 C14 1_555 1_555
H13 C15 1_555 1_555
H14 C15 1_555 1_555
H15 O6 1_555 1_555
H16 O3 1_555 1_555
Cu1A N2 1_555 1_555
Cu1_2 O5 1_555 1_555
N2A Cu1 1_555 1_555
O5_2 Cu1 1_555 1_555
C4 C5 1_555 1_555
C8 C9 1_555 1_555
C10 C11 1_555 1_555

#END
