
#######################################################################
#
#                 Cambridge Crystallographic Data Centre
#                                CCDC 
#
#######################################################################
#
# If this CIF has been generated from an entry in the Cambridge 
# Structural Database, then it will include bibliographic, chemical, 
# crystal, experimental, refinement or atomic coordinate data resulting 
# from the CCDC's data processing and validation procedures.
#
#######################################################################

data_UFAVED
_symmetry_cell_setting           monoclinic
_symmetry_space_group_name_H-M   'C 2/c'
_symmetry_Int_Tables_number      15
_space_group_name_Hall           '-C 2yn'
loop_
_symmetry_equiv_pos_site_id
_symmetry_equiv_pos_as_xyz
1 x,y,z
2 1/2+x,1/2+y,z
3 -x,y,1/2-z
4 1/2-x,1/2+y,1/2-z
5 -x,-y,-z
6 1/2-x,1/2-y,-z
7 x,-y,1/2+z
8 1/2+x,1/2-y,1/2+z
_cell_length_a                   9.4326(11)
_cell_length_b                   23.545(3)
_cell_length_c                   10.1694(12)
_cell_angle_alpha                90
_cell_angle_beta                 116.783(2)
_cell_angle_gamma                90
_cell_volume                     2016.23
loop_
_atom_site_label
_atom_site_type_symbol
_atom_site_fract_x
_atom_site_fract_y
_atom_site_fract_z
Cu1 Cu 0.0000 0.20900(4) 0.7500
O1 O -0.0012(4) 0.26723(17) 0.6066(4)
O2 O 0.1280(7) 0.3294(3) 0.5375(6)
O3 O 0.2636(5) 0.22765(19) 0.8233(5)
H1 H 0.333(7) 0.227(2) 0.910(7)
C1 C 0.1236(7) 0.2918(3) 0.6200(6)
C2 C 0.2808(7) 0.2744(3) 0.7466(7)
H2 H 0.3554 0.2650 0.7085
H3 H 0.3241 0.3061 0.8139
N1 N -0.0314(5) 0.1480(2) 0.6000(5)
S1 S -0.1006(2) 0.01009(7) 0.26344(19)
C3 C 0.0826(7) 0.1386(2) 0.5571(6)
H4 H 0.1741 0.1607 0.5987
C4 C 0.0704(7) 0.0982(3) 0.4553(6)
H5 H 0.1516 0.0932 0.4282
C5 C -0.0662(7) 0.0648(2) 0.3933(6)
C6 C -0.1849(8) 0.0748(3) 0.4364(7)
H6 H -0.2791 0.0541 0.3954
C7 C -0.1594(7) 0.1159(3) 0.5412(7)
H7 H -0.2372 0.1213 0.5724
Cu1_2 Cu 0.0000 0.20900(4) -0.2500
O1B O 0.0012(4) 0.26723(17) 0.8934(4)
O2B O -0.1280(7) 0.3294(3) 0.9625(6)
O3B O -0.2636(5) 0.22765(19) 0.6767(5)
H1B H -0.333(7) 0.227(2) 0.590(7)
C1B C -0.1236(7) 0.2918(3) 0.8800(6)
C2B C -0.2808(7) 0.2744(3) 0.7534(7)
H2B H -0.3554 0.2650 0.7915
H3B H -0.3241 0.3061 0.6861
N1B N 0.0314(5) 0.1480(2) -0.1000(5)
N1B_2 N 0.0314(5) 0.1480(2) 0.9000(5)
S1B S 0.1006(2) 0.01009(7) 0.23656(19)
C3B C -0.0826(7) 0.1386(2) -0.0571(6)
H4B H -0.1741 0.1607 -0.0987
C4B C -0.0704(7) 0.0982(3) 0.0447(6)
H5B H -0.1516 0.0932 0.0718
C5B C 0.0662(7) 0.0648(2) 0.1067(6)
C6B C 0.1849(8) 0.0748(3) 0.0636(7)
H6B H 0.2791 0.0541 0.1046
C7B C 0.1594(7) 0.1159(3) -0.0412(7)
H7B H 0.2372 0.1213 -0.0724
O4 O 0.5000 0.1307(5) 0.7500
O5 O 0.5000 0.0155(5) 0.7500
O6 O 0.5076(16) 0.0530(4) 0.994(2)
loop_
_geom_bond_atom_site_label_1
_geom_bond_atom_site_label_2
_geom_bond_site_symmetry_1
_geom_bond_site_symmetry_2
Cu1 O1 1_555 1_555
O1 C1 1_555 1_555
O2 C1 1_555 1_555
O3 Cu1 1_555 1_555
H1 O3 1_555 1_555
C1 C2 1_555 1_555
C2 O3 1_555 1_555
H2 C2 1_555 1_555
H3 C2 1_555 1_555
N1 Cu1 1_555 1_555
S1 C5 1_555 1_555
C3 N1 1_555 1_555
H4 C3 1_555 1_555
C4 C3 1_555 1_555
H5 C4 1_555 1_555
C5 C4 1_555 1_555
C6 C5 1_555 1_555
H6 C6 1_555 1_555
C7 N1 1_555 1_555
H7 C7 1_555 1_555
Cu1_2 N1B 1_555 1_555
O1B Cu1 1_555 1_555
O2B C1B 1_555 1_555
O3B Cu1 1_555 1_555
H1B O3B 1_555 1_555
C1B O1B 1_555 1_555
C2B O3B 1_555 1_555
H2B C2B 1_555 1_555
H3B C2B 1_555 1_555
N1B C3B 1_555 1_555
N1B_2 Cu1 1_555 1_555
S1B S1 1_555 1_555
C3B H4B 1_555 1_555
C4B C3B 1_555 1_555
H5B C4B 1_555 1_555
C5B S1B 1_555 1_555
C6B C5B 1_555 1_555
H6B C6B 1_555 1_555
C7B N1B 1_555 1_555
H7B C7B 1_555 1_555
C6 C7 1_555 1_555
C1B C2B 1_555 1_555
C4B C5B 1_555 1_555
C6B C7B 1_555 1_555

#END
