
#######################################################################
#
#                 Cambridge Crystallographic Data Centre
#                                CCDC 
#
#######################################################################
#
# If this CIF has been generated from an entry in the Cambridge 
# Structural Database, then it will include bibliographic, chemical, 
# crystal, experimental, refinement or atomic coordinate data resulting 
# from the CCDC's data processing and validation procedures.
#
#######################################################################

data_UFAWAZ
_symmetry_cell_setting           monoclinic
_symmetry_space_group_name_H-M   'C 2/c'
_symmetry_Int_Tables_number      15
_space_group_name_Hall           '-C 2yn'
loop_
_symmetry_equiv_pos_site_id
_symmetry_equiv_pos_as_xyz
1 x,y,z
2 1/2+x,1/2+y,z
3 x,-y,1/2+z
4 1/2+x,1/2-y,1/2+z
5 -x,-y,-z
6 1/2-x,1/2-y,-z
7 -x,y,1/2-z
8 1/2-x,1/2+y,1/2-z
_cell_length_a                   17.055(2)
_cell_length_b                   16.642(4)
_cell_length_c                   15.302(2)
_cell_angle_alpha                90
_cell_angle_beta                 119.130(10)
_cell_angle_gamma                90
_cell_volume                     3793.82
loop_
_atom_site_label
_atom_site_type_symbol
_atom_site_fract_x
_atom_site_fract_y
_atom_site_fract_z
Ag1 Ag 0.408369(13) 0.478158(14) 0.398313(15)
Cl1 Cl 0.48746(5) 0.38441(4) 0.54771(5)
P1 P 0.25461(4) 0.52073(4) 0.31224(5)
N1 N 0.48195(14) 0.41581(13) 0.31609(16)
N2 N 0.5000 0.5333(2) 0.2500
C1 C 0.5000 0.4534(2) 0.2500
C2 C 0.5000 0.2927(3) 0.2500
C3 C 0.4852(2) 0.33603(18) 0.3164(2)
C4 C 0.22927(15) 0.58938(15) 0.20913(18)
C5 C 0.26633(19) 0.57086(19) 0.1484(2)
C6 C 0.2476(2) 0.6169(2) 0.0656(2)
C7 C 0.1912(2) 0.68168(19) 0.0415(2)
C8 C 0.1547(2) 0.70060(19) 0.1008(2)
C9 C 0.17401(19) 0.65535(18) 0.1844(2)
C10 C 0.17024(16) 0.44192(15) 0.25202(18)
C11 C 0.19122(19) 0.36443(17) 0.2882(2)
C12 C 0.1290(2) 0.30336(18) 0.2451(2)
C13 C 0.0457(2) 0.31956(19) 0.1656(2)
C14 C 0.02441(19) 0.39624(19) 0.1289(2)
C15 C 0.08687(18) 0.45719(17) 0.1714(2)
C16 C 0.22025(16) 0.57232(16) 0.39315(18)
C17 C 0.2851(2) 0.6129(2) 0.4746(2)
C18 C 0.2641(3) 0.6517(3) 0.5405(3)
C19 C 0.1788(2) 0.6503(2) 0.5258(3)
C20 C 0.1138(2) 0.6107(2) 0.4457(3)
C21 C 0.13348(19) 0.5707(2) 0.3794(2)
H1 H 0.496(2) 0.5620(15) 0.2935(17)
H2 H 0.5000 0.2369(7) 0.2500
H3 H 0.4768(16) 0.3119(13) 0.3661(14)
H4 H 0.3045(16) 0.5264(11) 0.169(2)
H5 H 0.272(2) 0.6049(19) 0.025(2)
H6 H 0.1724(18) 0.7110(15) -0.0170(13)
H7 H 0.1176(17) 0.7445(13) 0.086(2)
H8 H 0.1479(16) 0.6681(16) 0.2231(17)
H9 H 0.2482(9) 0.3545(16) 0.3421(13)
H10 H 0.1430(19) 0.2513(9) 0.269(2)
H11 H 0.0063(15) 0.2766(12) 0.140(2)
H12 H -0.0317(10) 0.4088(17) 0.0758(14)
H13 H 0.0696(17) 0.5085(9) 0.1425(19)
H14 H 0.3431(10) 0.6157(19) 0.485(2)
H15 H 0.3077(16) 0.6807(18) 0.5939(17)
H16 H 0.1644(18) 0.6741(15) 0.5706(17)
H17 H 0.0548(10) 0.616(2) 0.434(2)
H18 H 0.0887(15) 0.5448(17) 0.3231(15)
N1F N 0.51805(14) 0.41581(13) 0.18391(16)
C3F C 0.5148(2) 0.33603(18) 0.1836(2)
H3F H 0.5232(16) 0.3119(13) 0.1339(14)
H1F H 0.504(2) 0.5620(15) 0.2065(17)
Cl1D Cl 0.51254(5) 0.61559(4) 0.45229(5)
Ag1D Ag 0.591631(13) 0.521842(14) 0.601687(15)
P1D P 0.74539(4) 0.47927(4) 0.68776(5)
C4D C 0.77073(15) 0.41062(15) 0.79087(18)
C5D C 0.73367(19) 0.42914(19) 0.8516(2)
C6D C 0.7524(2) 0.3831(2) 0.9344(2)
C7D C 0.8088(2) 0.31832(19) 0.9585(2)
C8D C 0.8453(2) 0.29940(19) 0.8992(2)
C9D C 0.82599(19) 0.34465(18) 0.8156(2)
C10D C 0.82976(16) 0.55808(15) 0.74798(18)
C11D C 0.80878(19) 0.63557(17) 0.7118(2)
C12D C 0.8710(2) 0.69664(18) 0.7549(2)
C13D C 0.9543(2) 0.68044(19) 0.8344(2)
C14D C 0.97559(19) 0.60376(19) 0.8711(2)
C15D C 0.91313(18) 0.54281(17) 0.8286(2)
C16D C 0.77975(16) 0.42768(16) 0.60685(18)
C17D C 0.7149(2) 0.3871(2) 0.5254(2)
C18D C 0.7359(3) 0.3483(3) 0.4595(3)
C19D C 0.8212(2) 0.3497(2) 0.4742(3)
C20D C 0.8862(2) 0.3893(2) 0.5543(3)
C21D C 0.86652(19) 0.4293(2) 0.6206(2)
H4D H 0.6955(16) 0.4736(11) 0.831(2)
H5D H 0.728(2) 0.3951(19) 0.975(2)
H6D H 0.8276(18) 0.2890(15) 1.0170(13)
H7D H 0.8824(17) 0.2555(13) 0.914(2)
H8D H 0.8521(16) 0.3319(16) 0.7769(17)
H9D H 0.7518(9) 0.6455(16) 0.6579(13)
H10D H 0.8570(19) 0.7487(9) 0.731(2)
H11D H 0.9937(15) 0.7234(12) 0.860(2)
H12D H 1.0317(10) 0.5912(17) 0.9242(14)
H13D H 0.9304(17) 0.4915(9) 0.8575(19)
H14D H 0.6569(10) 0.3843(19) 0.515(2)
H15D H 0.6923(16) 0.3193(18) 0.4061(17)
H16D H 0.8356(18) 0.3259(15) 0.4294(17)
H17D H 0.9452(10) 0.384(2) 0.566(2)
H18D H 0.9113(15) 0.4552(17) 0.6769(15)
Ag1F Ag 0.591631(13) 0.478158(14) 0.101687(15)
N1D N 0.51805(14) 0.58419(13) 0.68391(16)
loop_
_geom_bond_atom_site_label_1
_geom_bond_atom_site_label_2
_geom_bond_site_symmetry_1
_geom_bond_site_symmetry_2
Ag1 Cl1 1_555 1_555
Cl1 Ag1D 1_555 1_555
P1 Ag1 1_555 1_555
N1 Ag1 1_555 1_555
N2 C1 1_555 1_555
C1 N1 1_555 1_555
C2 C3 1_555 1_555
C3 N1 1_555 1_555
C4 P1 1_555 1_555
C5 C4 1_555 1_555
C6 C5 1_555 1_555
C7 C6 1_555 1_555
C8 C7 1_555 1_555
C9 C4 1_555 1_555
C10 P1 1_555 1_555
C11 C10 1_555 1_555
C12 C11 1_555 1_555
C13 C12 1_555 1_555
C14 C13 1_555 1_555
C15 C10 1_555 1_555
C16 P1 1_555 1_555
C17 C16 1_555 1_555
C18 C17 1_555 1_555
C19 C18 1_555 1_555
C20 C19 1_555 1_555
C21 C16 1_555 1_555
H1 N2 1_555 1_555
H2 C2 1_555 1_555
H3 C3 1_555 1_555
H4 C5 1_555 1_555
H5 C6 1_555 1_555
H6 C7 1_555 1_555
H7 C8 1_555 1_555
H8 C9 1_555 1_555
H9 C11 1_555 1_555
H10 C12 1_555 1_555
H11 C13 1_555 1_555
H12 C14 1_555 1_555
H13 C15 1_555 1_555
H14 C17 1_555 1_555
H15 C18 1_555 1_555
H16 C19 1_555 1_555
H17 C20 1_555 1_555
H18 C21 1_555 1_555
N1F C1 1_555 1_555
C3F C2 1_555 1_555
H3F C3F 1_555 1_555
H1F N2 1_555 1_555
Cl1D Ag1 1_555 1_555
Ag1D Cl1D 1_555 1_555
P1D Ag1D 1_555 1_555
C4D P1D 1_555 1_555
C5D C4D 1_555 1_555
C6D C5D 1_555 1_555
C7D C6D 1_555 1_555
C8D C7D 1_555 1_555
C9D C4D 1_555 1_555
C10D P1D 1_555 1_555
C11D C10D 1_555 1_555
C12D C11D 1_555 1_555
C13D C12D 1_555 1_555
C14D C13D 1_555 1_555
C15D C10D 1_555 1_555
C16D P1D 1_555 1_555
C17D C16D 1_555 1_555
C18D C17D 1_555 1_555
C19D C18D 1_555 1_555
C20D C19D 1_555 1_555
C21D C16D 1_555 1_555
H4D C5D 1_555 1_555
H5D C6D 1_555 1_555
H6D C7D 1_555 1_555
H7D C8D 1_555 1_555
H8D C9D 1_555 1_555
H9D C11D 1_555 1_555
H10D C12D 1_555 1_555
H11D C13D 1_555 1_555
H12D C14D 1_555 1_555
H13D C15D 1_555 1_555
H14D C17D 1_555 1_555
H15D C18D 1_555 1_555
H16D C19D 1_555 1_555
H17D C20D 1_555 1_555
H18D C21D 1_555 1_555
Ag1F N1F 1_555 1_555
N1D Ag1D 1_555 1_555
C8 C9 1_555 1_555
C14 C15 1_555 1_555
C20 C21 1_555 1_555
N1F C3F 1_555 1_555
C8D C9D 1_555 1_555
C14D C15D 1_555 1_555
C20D C21D 1_555 1_555

#END
