
#######################################################################
#
#                 Cambridge Crystallographic Data Centre
#                                CCDC 
#
#######################################################################
#
# If this CIF has been generated from an entry in the Cambridge 
# Structural Database, then it will include bibliographic, chemical, 
# crystal, experimental, refinement or atomic coordinate data resulting 
# from the CCDC's data processing and validation procedures.
#
#######################################################################

data_UFAXII
_symmetry_cell_setting           orthorhombic
_symmetry_space_group_name_H-M   'P n m a'
_symmetry_Int_Tables_number      62
_space_group_name_Hall           '-P 2ac 2n'
loop_
_symmetry_equiv_pos_site_id
_symmetry_equiv_pos_as_xyz
1 x,y,z
2 1/2+x,y,1/2-z
3 x,1/2-y,z
4 1/2-x,1/2+y,1/2+z
5 -x,-y,-z
6 1/2-x,-y,1/2+z
7 -x,1/2+y,-z
8 1/2+x,1/2-y,1/2-z
_cell_length_a                   8.9304(4)
_cell_length_b                   21.3533(12)
_cell_length_c                   7.5895(3)
_cell_angle_alpha                90
_cell_angle_beta                 90
_cell_angle_gamma                90
_cell_volume                     1447.27
loop_
_atom_site_label
_atom_site_type_symbol
_atom_site_fract_x
_atom_site_fract_y
_atom_site_fract_z
Cu1 Cu 0.75590(4) 0.2500 0.62891(6)
S1 S 0.76638(9) 0.2500 0.93515(13)
C1 C 0.5462(2) 0.36175(10) 0.6268(3)
H1 H 0.5456 0.3559 0.7482
C2 C 0.4521(2) 0.40667(10) 0.5560(3)
C3 C 0.4507(3) 0.41488(11) 0.3753(3)
H2 H 0.3860 0.4435 0.3229
C4 C 0.5480(4) 0.37949(13) 0.2744(4)
H3 H 0.5517 0.3848 0.1529
C5 C 0.6390(3) 0.33648(12) 0.3552(3)
H4 H 0.7045 0.3132 0.2860
C6 C 0.3485(2) 0.44396(10) 0.6696(3)
N1 N 0.6378(2) 0.32644(8) 0.5295(3)
N2 N 0.3939(2) 0.45502(10) 0.8325(3)
H5 H 0.4850 0.4483 0.8643
H6 H 0.3416 0.4779 0.9023
O1 O 0.22639(18) 0.46248(9) 0.6120(2)
C7 C 0.5838(3) 0.2500 0.9612(4)
N3 N 0.4560(3) 0.2500 0.9782(4)
C1B C 0.5462(2) 0.13825(10) 0.6268(3)
H1B H 0.5456 0.1441 0.7482
C2B C 0.4521(2) 0.09333(10) 0.5560(3)
C3B C 0.4507(3) 0.08512(11) 0.3753(3)
H2B H 0.3860 0.0565 0.3229
C4B C 0.5480(4) 0.12051(13) 0.2744(4)
H3B H 0.5517 0.1152 0.1529
C5B C 0.6390(3) 0.16352(12) 0.3552(3)
H4B H 0.7045 0.1868 0.2860
C6B C 0.3485(2) 0.05604(10) 0.6696(3)
N1B N 0.6378(2) 0.17356(8) 0.5295(3)
N2B N 0.3939(2) 0.04498(10) 0.8325(3)
H5B H 0.4850 0.0517 0.8643
H6B H 0.3416 0.0221 0.9023
O1B O 0.22639(18) 0.03752(9) 0.6120(2)
N3A N 0.9560(3) 0.2500 0.5218(4)
Cu1A Cu 0.25590(4) 0.2500 0.87109(6)
loop_
_geom_bond_atom_site_label_1
_geom_bond_atom_site_label_2
_geom_bond_site_symmetry_1
_geom_bond_site_symmetry_2
Cu1 S1 1_555 1_555
S1 C7 1_555 1_555
C1 H1 1_555 1_555
C2 C1 1_555 1_555
C3 C2 1_555 1_555
H2 C3 1_555 1_555
C4 C3 1_555 1_555
H3 C4 1_555 1_555
C5 C4 1_555 1_555
H4 C5 1_555 1_555
C6 C2 1_555 1_555
N1 Cu1 1_555 1_555
N2 C6 1_555 1_555
H5 N2 1_555 1_555
H6 N2 1_555 1_555
O1 C6 1_555 1_555
C7 N3 1_555 1_555
N3 Cu1A 1_555 1_555
C1B H1B 1_555 1_555
C2B C1B 1_555 1_555
C3B C2B 1_555 1_555
H2B C3B 1_555 1_555
C4B C3B 1_555 1_555
H3B C4B 1_555 1_555
C5B C4B 1_555 1_555
H4B C5B 1_555 1_555
C6B C2B 1_555 1_555
N1B Cu1 1_555 1_555
N2B C6B 1_555 1_555
H5B N2B 1_555 1_555
H6B N2B 1_555 1_555
O1B C6B 1_555 1_555
N3A Cu1 1_555 1_555
C1 N1 1_555 1_555
C5 N1 1_555 1_555
C1B N1B 1_555 1_555
C5B N1B 1_555 1_555

#END
