
#######################################################################
#
#                 Cambridge Crystallographic Data Centre
#                                CCDC 
#
#######################################################################
#
# If this CIF has been generated from an entry in the Cambridge 
# Structural Database, then it will include bibliographic, chemical, 
# crystal, experimental, refinement or atomic coordinate data resulting 
# from the CCDC's data processing and validation procedures.
#
#######################################################################

data_UFAYEF
_symmetry_cell_setting           monoclinic
_symmetry_space_group_name_H-M   'C 2/c'
_symmetry_Int_Tables_number      15
_space_group_name_Hall           '-C 2yn'
loop_
_symmetry_equiv_pos_site_id
_symmetry_equiv_pos_as_xyz
1 x,y,z
2 1/2+x,1/2+y,z
3 -x,y,1/2-z
4 1/2-x,1/2+y,1/2-z
5 -x,-y,-z
6 1/2-x,1/2-y,-z
7 x,-y,1/2+z
8 1/2+x,1/2-y,1/2+z
_cell_length_a                   20.0909(4)
_cell_length_b                   11.34660(10)
_cell_length_c                   15.6407(4)
_cell_angle_alpha                90
_cell_angle_beta                 95.4760(10)
_cell_angle_gamma                90
_cell_volume                     3549.24
loop_
_atom_site_label
_atom_site_type_symbol
_atom_site_fract_x
_atom_site_fract_y
_atom_site_fract_z
Co1 Co 0.5000 0.00017(6) 0.2500
O1 O 0.39327(13) -0.0092(2) 0.22512(17)
H1 H 0.3829 -0.0064 0.1732
H2 H 0.3650 0.0104 0.2531
O2 O 0.50956(13) -0.0050(2) 0.11931(16)
H3 H 0.5318 0.0515 0.1060
H4 H 0.4752 -0.0157 0.0880
C1 C 0.5563(2) -0.7494(4) 0.2538(3)
H5 H 0.5965 -0.7903 0.2568
C2 C 0.5498(2) -0.2493(3) 0.2202(3)
H6 H 0.5848 -0.2080 0.1991
C3 C 0.5585(2) -0.6280(4) 0.2536(4)
H7 H 0.5994 -0.5893 0.2558
C4 C 0.5517(2) -0.3699(4) 0.2194(3)
H8 H 0.5875 -0.4088 0.1985
C5 C 0.5000 -0.5641(5) 0.2500
C6 C 0.5000 -0.4342(5) 0.2500
N1 N 0.5000 -0.1881(4) 0.2500
N2 N 0.5000 -0.8114(4) 0.2500
C3B C 0.4415(2) -0.6280(4) 0.2464(4)
C1B C 0.4437(2) -0.7494(4) 0.2462(3)
H5B H 0.4035 -0.7903 0.2432
H7B H 0.4006 -0.5893 0.2442
C2B C 0.4502(2) -0.2493(3) 0.2798(3)
H6B H 0.4152 -0.2080 0.3009
C4B C 0.4483(2) -0.3699(4) 0.2806(3)
H8B H 0.4125 -0.4088 0.3015
O1B O 0.60673(13) -0.0092(2) 0.27488(17)
H1B H 0.6171 -0.0064 0.3268
H2B H 0.6350 0.0104 0.2469
O2B O 0.49044(13) -0.0050(2) 0.38069(16)
H3B H 0.4682 0.0515 0.3940
H4B H 0.5248 -0.0157 0.4120
N2_2 N 0.5000 0.1886(4) 0.2500
Co1_2 Co 0.5000 -0.99983(6) 0.2500
Co2 Co 0.2500 -0.2500 0.5000
O3 O 0.21289(15) -0.3873(3) 0.4256(2)
H9 H 0.1915 -0.4313 0.4543
H10 H 0.2364 -0.4290 0.3889
O4 O 0.27910(16) -0.1715(3) 0.38541(19)
H11 H 0.2845 -0.1005 0.3929
H12 H 0.2568 -0.2019 0.3343
C7 C 0.0351(2) -0.1549(4) 0.4961(3)
H13 H -0.0038 -0.1988 0.4980
C8 C 0.1499(2) -0.0396(4) 0.4841(3)
H14 H 0.1891 0.0019 0.4780
C9 C 0.0918(2) 0.0239(4) 0.4892(4)
H15 H 0.0931 0.1058 0.4879
C10 C 0.0955(2) -0.2118(4) 0.4933(3)
H16 H 0.0959 -0.2937 0.4955
C11 C 0.03188(19) -0.0328(4) 0.4963(3)
N3 N 0.15326(16) -0.1565(3) 0.4876(2)
C11D C -0.03188(19) 0.0328(4) 0.5037(3)
C7D C -0.0351(2) 0.1549(4) 0.5039(3)
H13D H 0.0038 0.1988 0.5020
C10D C -0.0955(2) 0.2118(4) 0.5067(3)
H16D H -0.0959 0.2937 0.5045
N3D N -0.15326(16) 0.1565(3) 0.5124(2)
C8D C -0.1499(2) 0.0396(4) 0.5159(3)
H14D H -0.1891 -0.0019 0.5220
C9D C -0.0918(2) -0.0239(4) 0.5108(4)
H15D H -0.0931 -0.1058 0.5121
O3E O 0.28711(15) -0.1127(3) 0.5744(2)
H9E H 0.3085 -0.0687 0.5457
H10E H 0.2636 -0.0710 0.6111
O4E O 0.22090(16) -0.3285(3) 0.61459(19)
H11E H 0.2155 -0.3995 0.6071
H12E H 0.2432 -0.2981 0.6657
N3E N 0.34674(16) -0.3435(3) 0.5124(2)
Co2A Co -0.2500 0.2500 0.5000
O5 O 0.08718(13) -0.6592(2) 0.55844(19)
O6 O 0.11521(13) -0.5317(2) 0.45967(19)
O7 O 0.20436(15) -0.5620(2) 0.67514(18)
O8 O 0.22173(17) -0.7441(3) 0.72660(18)
C12 C 0.21783(19) -0.6702(4) 0.6674(2)
C13 C 0.12666(18) -0.6200(3) 0.5093(2)
C14 C 0.23237(18) -0.7127(3) 0.5800(2)
C15 C 0.19192(17) -0.6834(3) 0.5059(2)
C16 C 0.21005(18) -0.7209(3) 0.4265(2)
H17 H 0.1831 -0.7012 0.3769
C16E C 0.28995(18) -0.7791(3) 0.5735(2)
C15E C 0.30808(17) -0.8166(3) 0.4941(2)
C13E C 0.37334(18) -0.8800(3) 0.4907(2)
O5E O 0.41282(13) -0.8408(2) 0.44156(19)
O6E O 0.38479(13) -0.9683(2) 0.54033(19)
C14E C 0.26763(18) -0.7873(3) 0.4200(2)
C12E C 0.28217(19) -0.8298(4) 0.3326(2)
O7E O 0.29564(15) -0.9380(2) 0.32486(18)
O8E O 0.27827(17) -0.7559(3) 0.27340(18)
H17E H 0.3169 -0.7988 0.6231
O9 O 0.28888(18) -0.5089(3) 0.3184(2)
H18 H 0.2634 -0.4771 0.2626
H19 H 0.2837 -0.5912 0.3098
loop_
_geom_bond_atom_site_label_1
_geom_bond_atom_site_label_2
_geom_bond_site_symmetry_1
_geom_bond_site_symmetry_2
Co1 O1 1_555 1_555
O1 H1 1_555 1_555
H2 O1 1_555 1_555
O2 Co1 1_555 1_555
H3 O2 1_555 1_555
H4 O2 1_555 1_555
C1 H5 1_555 1_555
C2 H6 1_555 1_555
C3 C1 1_555 1_555
H7 C3 1_555 1_555
C4 C2 1_555 1_555
H8 C4 1_555 1_555
C5 C3 1_555 1_555
C6 C4 1_555 1_555
N1 Co1 1_555 1_555
N2 C1 1_555 1_555
Co2 O3 1_555 1_555
O3 H9 1_555 1_555
H10 O3 1_555 1_555
O4 Co2 1_555 1_555
H11 O4 1_555 1_555
H12 O4 1_555 1_555
C7 H13 1_555 1_555
C8 H14 1_555 1_555
C9 C8 1_555 1_555
H15 C9 1_555 1_555
C10 C7 1_555 1_555
H16 C10 1_555 1_555
C11 C7 1_555 1_555
N3 Co2 1_555 1_555
O5 C13 1_555 1_555
O6 C13 1_555 1_555
O7 C12 1_555 1_555
O8 C12 1_555 1_555
C12 C14 1_555 1_555
C13 C15 1_555 1_555
C14 C15 1_555 1_555
C15 C16 1_555 1_555
C16 H17 1_555 1_555
O9 H18 1_555 1_555
H19 O9 1_555 1_555
C3B C5 1_555 1_555
C1B N2 1_555 1_555
H5B C1B 1_555 1_555
H7B C3B 1_555 1_555
C2B N1 1_555 1_555
H6B C2B 1_555 1_555
C4B C6 1_555 1_555
H8B C4B 1_555 1_555
O1B Co1 1_555 1_555
H1B O1B 1_555 1_555
H2B O1B 1_555 1_555
O2B Co1 1_555 1_555
H3B O2B 1_555 1_555
H4B O2B 1_555 1_555
N2_2 Co1 1_555 1_555
Co1_2 N2 1_555 1_555
C11D C11 1_555 1_555
C7D C11D 1_555 1_555
H13D C7D 1_555 1_555
C10D C7D 1_555 1_555
H16D C10D 1_555 1_555
N3D C10D 1_555 1_555
C8D N3D 1_555 1_555
H14D C8D 1_555 1_555
C9D C11D 1_555 1_555
H15D C9D 1_555 1_555
O3E Co2 1_555 1_555
H9E O3E 1_555 1_555
H10E O3E 1_555 1_555
O4E Co2 1_555 1_555
H11E O4E 1_555 1_555
H12E O4E 1_555 1_555
N3E Co2 1_555 1_555
Co2A N3D 1_555 1_555
C16E C14 1_555 1_555
C15E C16E 1_555 1_555
C13E C15E 1_555 1_555
O5E C13E 1_555 1_555
O6E C13E 1_555 1_555
C14E C16 1_555 1_555
C12E C14E 1_555 1_555
O7E C12E 1_555 1_555
O8E C12E 1_555 1_555
H17E C16E 1_555 1_555
C2 N1 1_555 1_555
C5 C6 1_555 1_555
C8 N3 1_555 1_555
C9 C11 1_555 1_555
C10 N3 1_555 1_555
C3B C1B 1_555 1_555
C2B C4B 1_555 1_555
C8D C9D 1_555 1_555
C15E C14E 1_555 1_555

#END
