
#######################################################################
#
#                 Cambridge Crystallographic Data Centre
#                                CCDC 
#
#######################################################################
#
# If this CIF has been generated from an entry in the Cambridge 
# Structural Database, then it will include bibliographic, chemical, 
# crystal, experimental, refinement or atomic coordinate data resulting 
# from the CCDC's data processing and validation procedures.
#
#######################################################################

data_UFEBEN
_symmetry_cell_setting           monoclinic
_symmetry_space_group_name_H-M   'C 2/c'
_symmetry_Int_Tables_number      15
_space_group_name_Hall           '-C 2yn'
loop_
_symmetry_equiv_pos_site_id
_symmetry_equiv_pos_as_xyz
1 x,y,z
2 1/2+x,1/2+y,z
3 -x,y,1/2-z
4 1/2-x,1/2+y,1/2-z
5 -x,-y,-z
6 1/2-x,1/2-y,-z
7 x,-y,1/2+z
8 1/2+x,1/2-y,1/2+z
_cell_length_a                   38.885(12)
_cell_length_b                   8.920(3)
_cell_length_c                   10.471(3)
_cell_angle_alpha                90
_cell_angle_beta                 92.140(6)
_cell_angle_gamma                90
_cell_volume                     3629.38
loop_
_atom_site_label
_atom_site_type_symbol
_atom_site_fract_x
_atom_site_fract_y
_atom_site_fract_z
Au1 Au 1.0000 0.5000 1.0000
Au2 Au 1.0000 0.28914(7) 1.2500
Cl1 Cl 1.05705(11) 0.2795(4) 1.2262(4)
N1 N 0.9756(2) 0.3296(9) 0.9080(8)
N2 N 0.9496(3) 0.2029(11) 0.7550(9)
C1 C 0.9594(3) 0.3390(14) 0.7979(13)
H1 H 0.9552 0.4283 0.7542
C2 C 0.9760(3) 0.1836(13) 0.9411(12)
H2 H 0.9857 0.1434 1.0159
C3 C 0.9595(3) 0.1060(13) 0.8462(12)
H3 H 0.9557 0.0031 0.8447
C4 C 0.9314(4) 0.1689(15) 0.6315(11)
H4 H 0.9359 0.2487 0.5715
H5 H 0.9406 0.0769 0.5974
C5 C 0.8944(3) 0.1525(17) 0.6405(13)
H6 H 0.8849 0.2435 0.6756
H7 H 0.8896 0.0707 0.6982
C6 C 0.8772(4) 0.1212(18) 0.5104(13)
H8 H 0.8841 0.1981 0.4510
H9 H 0.8854 0.0257 0.4793
C7 C 0.8395(4) 0.117(2) 0.5121(14)
H10 H 0.8315 0.2071 0.5542
H11 H 0.8326 0.0319 0.5626
C8 C 0.8217(4) 0.107(2) 0.3810(15)
H12 H 0.8297 0.1893 0.3296
H13 H 0.8290 0.0147 0.3411
C9 C 0.7844(4) 0.110(2) 0.3769(15)
H14 H 0.7772 0.2002 0.4202
H15 H 0.7765 0.0254 0.4260
C10 C 0.7662(4) 0.106(2) 0.2493(16)
H16 H 0.7742 0.1900 0.1999
H17 H 0.7732 0.0151 0.2061
C11 C 0.7285(4) 0.110(2) 0.2466(16)
H18 H 0.7206 0.0267 0.2973
H19 H 0.7216 0.2014 0.2886
C12 C 0.7108(4) 0.103(2) 0.1223(16)
H20 H 0.7174 0.0113 0.0803
H21 H 0.7187 0.1862 0.0711
C13 C 0.6730(5) 0.109(2) 0.1237(18)
H22 H 0.6664 0.1992 0.1681
H23 H 0.6651 0.0240 0.1724
C14 C 0.6551(6) 0.107(3) -0.005(2)
H24 H 0.6620 0.1944 -0.0524
H25 H 0.6623 0.0187 -0.0509
C15 C 0.6185(6) 0.106(3) 0.001(2)
H26 H 0.6084 0.1039 -0.0837
H27 H 0.6111 0.1946 0.0445
H28 H 0.6114 0.0189 0.0473
Au1F Au 1.0000 0.5000 1.5000
Au2F Au 1.0000 0.71086(7) 0.7500
Cl1B Cl 0.94295(11) 0.2795(4) 1.2738(4)
N1D N 1.0244(2) 0.6704(9) 1.0920(8)
N2D N 1.0504(3) 0.7971(11) 1.2450(9)
C1D C 1.0406(3) 0.6610(14) 1.2021(13)
H1D H 1.0448 0.5717 1.2458
C2D C 1.0240(3) 0.8164(13) 1.0589(12)
H2D H 1.0143 0.8566 0.9841
C3D C 1.0405(3) 0.8940(13) 1.1538(12)
H3D H 1.0443 0.9969 1.1553
C4D C 1.0686(4) 0.8311(15) 1.3685(11)
H4D H 1.0641 0.7513 1.4285
H5D H 1.0594 0.9231 1.4026
C5D C 1.1056(3) 0.8475(17) 1.3595(13)
H6D H 1.1151 0.7565 1.3244
H7D H 1.1104 0.9293 1.3018
C6D C 1.1228(4) 0.8788(18) 1.4896(13)
H8D H 1.1159 0.8019 1.5490
H9D H 1.1146 0.9743 1.5207
C7D C 1.1605(4) 0.883(2) 1.4879(14)
H10D H 1.1685 0.7929 1.4458
H11D H 1.1674 0.9681 1.4374
C8D C 1.1783(4) 0.893(2) 1.6190(15)
H12D H 1.1703 0.8107 1.6704
H13D H 1.1710 0.9853 1.6589
C9D C 1.2156(4) 0.890(2) 1.6231(15)
H14D H 1.2228 0.7998 1.5798
H15D H 1.2235 0.9746 1.5740
C10D C 1.2338(4) 0.894(2) 1.7507(16)
H16D H 1.2258 0.8100 1.8001
H17D H 1.2268 0.9849 1.7939
C11D C 1.2715(4) 0.890(2) 1.7534(16)
H18D H 1.2794 0.9733 1.7027
H19D H 1.2784 0.7986 1.7114
C12D C 1.2892(4) 0.897(2) 1.8777(16)
H20D H 1.2826 0.9887 1.9197
H21D H 1.2813 0.8138 1.9289
C13D C 1.3270(5) 0.891(2) 1.8763(18)
H22D H 1.3336 0.8008 1.8319
H23D H 1.3349 0.9760 1.8276
C14D C 1.3449(6) 0.893(3) 2.005(2)
H24D H 1.3380 0.8056 2.0524
H25D H 1.3377 0.9813 2.0509
C15D C 1.3815(6) 0.894(3) 1.999(2)
H26D H 1.3916 0.8961 2.0837
H27D H 1.3889 0.8054 1.9555
H28D H 1.3886 0.9811 1.9527
loop_
_geom_bond_atom_site_label_1
_geom_bond_atom_site_label_2
_geom_bond_site_symmetry_1
_geom_bond_site_symmetry_2
Au1 Au2 1_555 1_555
Au2 Cl1 1_555 1_555
N1 Au1 1_555 1_555
N2 C1 1_555 1_555
C1 N1 1_555 1_555
H1 C1 1_555 1_555
C2 N1 1_555 1_555
H2 C2 1_555 1_555
C3 N2 1_555 1_555
H3 C3 1_555 1_555
C4 N2 1_555 1_555
H4 C4 1_555 1_555
H5 C4 1_555 1_555
C5 C4 1_555 1_555
H6 C5 1_555 1_555
H7 C5 1_555 1_555
C6 C5 1_555 1_555
H8 C6 1_555 1_555
H9 C6 1_555 1_555
C7 C6 1_555 1_555
H10 C7 1_555 1_555
H11 C7 1_555 1_555
C8 C7 1_555 1_555
H12 C8 1_555 1_555
H13 C8 1_555 1_555
C9 C8 1_555 1_555
H14 C9 1_555 1_555
H15 C9 1_555 1_555
C10 C9 1_555 1_555
H16 C10 1_555 1_555
H17 C10 1_555 1_555
C11 C10 1_555 1_555
H18 C11 1_555 1_555
H19 C11 1_555 1_555
C12 C11 1_555 1_555
H20 C12 1_555 1_555
H21 C12 1_555 1_555
C13 C12 1_555 1_555
H22 C13 1_555 1_555
H23 C13 1_555 1_555
C14 C13 1_555 1_555
H24 C14 1_555 1_555
H25 C14 1_555 1_555
C15 C14 1_555 1_555
H26 C15 1_555 1_555
H27 C15 1_555 1_555
H28 C15 1_555 1_555
Au1F Au2 1_555 1_555
Au2F Au1 1_555 1_555
Cl1B Au2 1_555 1_555
N1D Au1 1_555 1_555
N2D C1D 1_555 1_555
C1D N1D 1_555 1_555
H1D C1D 1_555 1_555
C2D N1D 1_555 1_555
H2D C2D 1_555 1_555
C3D N2D 1_555 1_555
H3D C3D 1_555 1_555
C4D N2D 1_555 1_555
H4D C4D 1_555 1_555
H5D C4D 1_555 1_555
C5D C4D 1_555 1_555
H6D C5D 1_555 1_555
H7D C5D 1_555 1_555
C6D C5D 1_555 1_555
H8D C6D 1_555 1_555
H9D C6D 1_555 1_555
C7D C6D 1_555 1_555
H10D C7D 1_555 1_555
H11D C7D 1_555 1_555
C8D C7D 1_555 1_555
H12D C8D 1_555 1_555
H13D C8D 1_555 1_555
C9D C8D 1_555 1_555
H14D C9D 1_555 1_555
H15D C9D 1_555 1_555
C10D C9D 1_555 1_555
H16D C10D 1_555 1_555
H17D C10D 1_555 1_555
C11D C10D 1_555 1_555
H18D C11D 1_555 1_555
H19D C11D 1_555 1_555
C12D C11D 1_555 1_555
H20D C12D 1_555 1_555
H21D C12D 1_555 1_555
C13D C12D 1_555 1_555
H22D C13D 1_555 1_555
H23D C13D 1_555 1_555
C14D C13D 1_555 1_555
H24D C14D 1_555 1_555
H25D C14D 1_555 1_555
C15D C14D 1_555 1_555
H26D C15D 1_555 1_555
H27D C15D 1_555 1_555
H28D C15D 1_555 1_555
C2 C3 1_555 1_555
C2D C3D 1_555 1_555

#END
