
#######################################################################
#
#                 Cambridge Crystallographic Data Centre
#                                CCDC 
#
#######################################################################
#
# If this CIF has been generated from an entry in the Cambridge 
# Structural Database, then it will include bibliographic, chemical, 
# crystal, experimental, refinement or atomic coordinate data resulting 
# from the CCDC's data processing and validation procedures.
#
#######################################################################

data_UFEJAS
_symmetry_cell_setting           triclinic
_symmetry_space_group_name_H-M   'P -1'
_symmetry_Int_Tables_number      2
_space_group_name_Hall           '-P 1'
loop_
_symmetry_equiv_pos_site_id
_symmetry_equiv_pos_as_xyz
1 x,y,z
2 -x,-y,-z
_cell_length_a                   7.379(3)
_cell_length_b                   9.836(4)
_cell_length_c                   10.049(4)
_cell_angle_alpha                86.656(6)
_cell_angle_beta                 74.064(4)
_cell_angle_gamma                68.017(4)
_cell_volume                     649.527
loop_
_atom_site_label
_atom_site_type_symbol
_atom_site_fract_x
_atom_site_fract_y
_atom_site_fract_z
Cu1 Cu 0.52574(5) 0.79573(4) 0.71409(3)
C1 C 0.2664(9) 0.7580(6) 0.9664(4)
H1 H 0.2896 0.7161 1.0528
H2 H 0.1266 0.8268 0.9870
C2 C 0.2877(9) 0.6482(6) 0.8805(4)
H3 H 0.1533 0.6501 0.8864
H4 H 0.3610 0.5555 0.9151
C3 C 0.7493(4) 0.6896(3) 0.4065(3)
C4 C 1.0300(5) 0.5160(4) 0.2386(3)
C5 C 0.7817(5) 0.7230(4) 0.1626(3)
C6 C 0.8517(4) 0.6405(3) 0.2690(3)
C7 C -0.2112(5) 1.2417(4) 0.6069(4)
C8 C -0.2500(4) 1.0125(3) 0.6830(3)
C9 C 0.0655(5) 1.0371(3) 0.6662(3)
C10 C -0.1345(4) 1.1006(3) 0.6575(3)
N1 N 0.3970(4) 0.8396(3) 0.9170(2)
H5 H 0.4937 0.8144 0.9623
H6 H 0.3238 0.9364 0.9335
N2 N 0.3900(4) 0.6505(3) 0.7367(3)
H7 H 0.2998 0.6755 0.6862
H8 H 0.4833 0.5607 0.7060
N3 N 0.6641(4) 0.7308(3) 0.5179(3)
N4 N 1.1764(5) 0.4124(4) 0.2148(4)
N5 N 0.7235(5) 0.7919(4) 0.0765(3)
N6 N 0.2270(4) 0.9799(3) 0.6738(3)
N7 N -0.2760(6) 1.3556(4) 0.5654(5)
N8 N -0.3389(4) 0.9370(3) 0.7050(3)
Cu1_2 Cu -0.47426(5) 0.79573(4) 0.71409(3)
Cu1A Cu 1.47426(5) 0.20427(4) 0.28591(3)
N4A N 0.8236(5) 0.5876(4) 0.7852(4)
N8_2 N 0.6611(4) 0.9370(3) 0.7050(3)
loop_
_geom_bond_atom_site_label_1
_geom_bond_atom_site_label_2
_geom_bond_site_symmetry_1
_geom_bond_site_symmetry_2
Cu1 N1 1_555 1_555
C1 H1 1_555 1_555
H2 C1 1_555 1_555
C2 C1 1_555 1_555
H3 C2 1_555 1_555
H4 C2 1_555 1_555
C3 C6 1_555 1_555
C4 C6 1_555 1_555
C5 C6 1_555 1_555
C7 C10 1_555 1_555
C8 C10 1_555 1_555
C9 C10 1_555 1_555
N1 C1 1_555 1_555
H5 N1 1_555 1_555
H6 N1 1_555 1_555
N2 Cu1 1_555 1_555
H7 N2 1_555 1_555
H8 N2 1_555 1_555
N3 Cu1 1_555 1_555
N4 C4 1_555 1_555
N5 C5 1_555 1_555
N6 Cu1 1_555 1_555
N7 C7 1_555 1_555
N8 C8 1_555 1_555
Cu1_2 N8 1_555 1_555
Cu1A N4 1_555 1_555
N4A Cu1 1_555 1_555
N8_2 Cu1 1_555 1_555
C2 N2 1_555 1_555
C3 N3 1_555 1_555
C9 N6 1_555 1_555

#END
