
#######################################################################
#
#                 Cambridge Crystallographic Data Centre
#                                CCDC 
#
#######################################################################
#
# If this CIF has been generated from an entry in the Cambridge 
# Structural Database, then it will include bibliographic, chemical, 
# crystal, experimental, refinement or atomic coordinate data resulting 
# from the CCDC's data processing and validation procedures.
#
#######################################################################

data_UFEMEY
_symmetry_cell_setting           monoclinic
_symmetry_space_group_name_H-M   'C 2/c'
_symmetry_Int_Tables_number      15
_space_group_name_Hall           '-C 2yn'
loop_
_symmetry_equiv_pos_site_id
_symmetry_equiv_pos_as_xyz
1 x,y,z
2 1/2+x,1/2+y,z
3 -x,y,1/2-z
4 1/2-x,1/2+y,1/2-z
5 -x,-y,-z
6 1/2-x,1/2-y,-z
7 x,-y,1/2+z
8 1/2+x,1/2-y,1/2+z
_cell_length_a                   26.8861(10)
_cell_length_b                   14.6844(5)
_cell_length_c                   17.1846(6)
_cell_angle_alpha                90
_cell_angle_beta                 117.672(2)
_cell_angle_gamma                90
_cell_volume                     6008.57
loop_
_atom_site_label
_atom_site_type_symbol
_atom_site_fract_x
_atom_site_fract_y
_atom_site_fract_z
B1 B 0.09165(16) 0.9228(3) 0.1413(2)
H1 H 0.0718 0.9812 0.1258
C1 C 0.02632(14) 0.8789(2) -0.0189(2)
H2 H 0.0071 0.9339 -0.0363
C2 C 0.01680(13) 0.8038(2) -0.0715(2)
C3 C 0.05596(13) 0.7385(2) -0.0178(2)
C4 C -0.02623(16) 0.8011(2) -0.1603(3)
C5 C 0.06675(14) 0.6427(2) -0.0371(2)
C6 C 0.02440(19) 0.6142(3) -0.1290(3)
H3 H -0.0127 0.6170 -0.1343
H4 H 0.0323 0.5531 -0.1398
H5 H 0.0268 0.6546 -0.1710
C7 C 0.12592(17) 0.6371(3) -0.0269(3)
H6 H 0.1287 0.6752 -0.0701
H7 H 0.1342 0.5753 -0.0350
H8 H 0.1523 0.6574 0.0308
C8 C 0.06217(18) 0.5782(2) 0.0292(3)
H9 H 0.0891 0.5954 0.0876
H10 H 0.0695 0.5169 0.0179
H11 H 0.0250 0.5817 0.0237
C9 C 0.07387(14) 0.9231(3) 0.2755(2)
H12 H 0.0628 0.9837 0.2721
C10 C 0.08057(15) 0.8629(3) 0.3408(2)
C11 C 0.09716(13) 0.7800(3) 0.3183(2)
C12 C 0.07605(18) 0.8865(3) 0.4180(3)
C13 C 0.11000(16) 0.6893(3) 0.3642(2)
C14 C 0.17374(17) 0.6815(3) 0.4223(3)
H13 H 0.1924 0.6883 0.3867
H14 H 0.1825 0.6230 0.4504
H15 H 0.1861 0.7284 0.4663
C15 C 0.0800(2) 0.6796(3) 0.4212(3)
H16 H 0.0941 0.7247 0.4669
H17 H 0.0869 0.6200 0.4470
H18 H 0.0404 0.6882 0.3854
C16 C 0.08964(17) 0.6125(3) 0.2964(3)
H19 H 0.0499 0.6181 0.2597
H20 H 0.0978 0.5548 0.3261
H21 H 0.1085 0.6164 0.2609
C17 C 0.18069(14) 1.0183(2) 0.1878(2)
H22 H 0.1640 1.0754 0.1787
C18 C 0.23733(13) 1.0017(2) 0.2203(2)
C19 C 0.24258(13) 0.9057(2) 0.2212(2)
C20 C 0.27771(14) 1.0725(2) 0.2499(2)
C21 C 0.29411(13) 0.8470(2) 0.2468(2)
C22 C 0.34437(16) 0.9052(3) 0.2585(4)
H23 H 0.3340 0.9424 0.2073
H24 H 0.3750 0.8662 0.2664
H25 H 0.3556 0.9435 0.3092
C23 C 0.30670(17) 0.7968(3) 0.3311(2)
H26 H 0.3164 0.8399 0.3780
H27 H 0.3375 0.7557 0.3455
H28 H 0.2741 0.7630 0.3233
C24 C 0.28291(16) 0.7783(2) 0.1737(3)
H29 H 0.2511 0.7414 0.1641
H30 H 0.3153 0.7401 0.1905
H31 H 0.2754 0.8102 0.1206
Cu1 Cu 0.149826(16) 0.74112(2) 0.18350(2)
N1 N 0.08609(10) 0.77357(16) 0.06257(16)
N2 N 0.06725(11) 0.86039(17) 0.06070(16)
N3 N -0.06231(16) 0.8034(3) -0.2309(2)
N4 N 0.10174(11) 0.79257(18) 0.24494(17)
N5 N 0.08581(10) 0.88049(18) 0.21810(17)
N6 N 0.07420(19) 0.9081(4) 0.4805(3)
N7 N 0.19203(11) 0.86864(16) 0.19336(16)
N8 N 0.15412(10) 0.93941(16) 0.17167(16)
N9 N 0.30701(12) 1.13452(19) 0.27442(18)
Cu1C Cu 0.350174(16) 1.24112(2) 0.31650(2)
N9C N 0.19299(12) 0.63452(19) 0.22558(18)
loop_
_geom_bond_atom_site_label_1
_geom_bond_atom_site_label_2
_geom_bond_site_symmetry_1
_geom_bond_site_symmetry_2
B1 H1 1_555 1_555
C1 H2 1_555 1_555
C2 C1 1_555 1_555
C3 C2 1_555 1_555
C4 C2 1_555 1_555
C5 C3 1_555 1_555
C6 C5 1_555 1_555
H3 C6 1_555 1_555
H4 C6 1_555 1_555
H5 C6 1_555 1_555
C7 C5 1_555 1_555
H6 C7 1_555 1_555
H7 C7 1_555 1_555
H8 C7 1_555 1_555
C8 C5 1_555 1_555
H9 C8 1_555 1_555
H10 C8 1_555 1_555
H11 C8 1_555 1_555
C9 H12 1_555 1_555
C10 C9 1_555 1_555
C11 C10 1_555 1_555
C12 C10 1_555 1_555
C13 C11 1_555 1_555
C14 C13 1_555 1_555
H13 C14 1_555 1_555
H14 C14 1_555 1_555
H15 C14 1_555 1_555
C15 C13 1_555 1_555
H16 C15 1_555 1_555
H17 C15 1_555 1_555
H18 C15 1_555 1_555
C16 C13 1_555 1_555
H19 C16 1_555 1_555
H20 C16 1_555 1_555
H21 C16 1_555 1_555
C17 H22 1_555 1_555
C18 C17 1_555 1_555
C19 C18 1_555 1_555
C20 C18 1_555 1_555
C21 C19 1_555 1_555
C22 C21 1_555 1_555
H23 C22 1_555 1_555
H24 C22 1_555 1_555
H25 C22 1_555 1_555
C23 C21 1_555 1_555
H26 C23 1_555 1_555
H27 C23 1_555 1_555
H28 C23 1_555 1_555
C24 C21 1_555 1_555
H29 C24 1_555 1_555
H30 C24 1_555 1_555
H31 C24 1_555 1_555
Cu1 N1 1_555 1_555
N1 C3 1_555 1_555
N2 B1 1_555 1_555
N3 C4 1_555 1_555
N4 C11 1_555 1_555
N5 B1 1_555 1_555
N6 C12 1_555 1_555
N7 C19 1_555 1_555
N8 B1 1_555 1_555
N9 C20 1_555 1_555
Cu1C N9 1_555 1_555
N9C Cu1 1_555 1_555
C1 N2 1_555 1_555
C9 N5 1_555 1_555
C17 N8 1_555 1_555
Cu1 N4 1_555 1_555
Cu1 N7 1_555 1_555
N1 N2 1_555 1_555
N4 N5 1_555 1_555
N7 N8 1_555 1_555

#END
