
#######################################################################
#
#                 Cambridge Crystallographic Data Centre
#                                CCDC 
#
#######################################################################
#
# If this CIF has been generated from an entry in the Cambridge 
# Structural Database, then it will include bibliographic, chemical, 
# crystal, experimental, refinement or atomic coordinate data resulting 
# from the CCDC's data processing and validation procedures.
#
#######################################################################

data_UFENAV
_symmetry_cell_setting           monoclinic
_symmetry_space_group_name_H-M   'C 2/c'
_symmetry_Int_Tables_number      15
_space_group_name_Hall           '-C 2yn'
loop_
_symmetry_equiv_pos_site_id
_symmetry_equiv_pos_as_xyz
1 x,y,z
2 1/2+x,1/2+y,z
3 -x,y,1/2-z
4 1/2-x,1/2+y,1/2-z
5 -x,-y,-z
6 1/2-x,1/2-y,-z
7 x,-y,1/2+z
8 1/2+x,1/2-y,1/2+z
_cell_length_a                   13.7723(6)
_cell_length_b                   6.5066(3)
_cell_length_c                   9.1685(4)
_cell_angle_alpha                90
_cell_angle_beta                 129.316(2)
_cell_angle_gamma                90
_cell_volume                     635.639
loop_
_atom_site_label
_atom_site_type_symbol
_atom_site_fract_x
_atom_site_fract_y
_atom_site_fract_z
Fe1 Fe 1.0000 0.24985(10) 0.2500
O1 O 0.8944(2) 0.5025(4) 0.2550(3)
N1 N 0.8543(3) 0.0346(5) 0.1709(5)
H1 H 0.8842 -0.0545 0.2644
H2 H 0.8288 -0.0330 0.0676
H3 H 0.7898 0.1024 0.1482
C1 C 0.9426(3) 0.5605(5) 0.4166(5)
O2 O 0.9062(2) 0.7082(4) 0.4594(3)
Fe1F Fe 1.0000 0.75015(10) 0.7500
O1D O 1.1056(2) 0.4975(4) 0.7450(3)
O1B O 1.1056(2) 0.5025(4) 0.2450(3)
N1B N 1.1457(3) 0.0346(5) 0.3291(5)
H1B H 1.1158 -0.0545 0.2356
H2B H 1.1712 -0.0330 0.4324
H3B H 1.2102 0.1024 0.3518
C1D C 1.0574(3) 0.4395(5) 0.5834(5)
O2D O 1.0938(2) 0.2918(4) 0.5406(3)
O2F O 0.9062(2) 0.2918(4) -0.0406(3)
loop_
_geom_bond_atom_site_label_1
_geom_bond_atom_site_label_2
_geom_bond_site_symmetry_1
_geom_bond_site_symmetry_2
Fe1 O1 1_555 1_555
O1 C1 1_555 1_555
N1 Fe1 1_555 1_555
H1 N1 1_555 1_555
H2 N1 1_555 1_555
H3 N1 1_555 1_555
C1 O2 1_555 1_555
O2 Fe1F 1_555 1_555
Fe1F O1D 1_555 1_555
O1D C1D 1_555 1_555
O1B Fe1 1_555 1_555
N1B Fe1 1_555 1_555
H1B N1B 1_555 1_555
H2B N1B 1_555 1_555
H3B N1B 1_555 1_555
C1D C1 1_555 1_555
O2D Fe1 1_555 1_555
O2F Fe1 1_555 1_555
C1D O2D 1_555 1_555

#END
