
#######################################################################
#
#                 Cambridge Crystallographic Data Centre
#                                CCDC 
#
#######################################################################
#
# If this CIF has been generated from an entry in the Cambridge 
# Structural Database, then it will include bibliographic, chemical, 
# crystal, experimental, refinement or atomic coordinate data resulting 
# from the CCDC's data processing and validation procedures.
#
#######################################################################

data_UFESUU
_symmetry_cell_setting           triclinic
_symmetry_space_group_name_H-M   'P -1'
_symmetry_Int_Tables_number      2
_space_group_name_Hall           '-P 1'
loop_
_symmetry_equiv_pos_site_id
_symmetry_equiv_pos_as_xyz
1 x,y,z
2 -x,-y,-z
_cell_length_a                   6.3450(15)
_cell_length_b                   8.1285(19)
_cell_length_c                   8.659(2)
_cell_angle_alpha                75.091(4)
_cell_angle_beta                 83.106(4)
_cell_angle_gamma                88.947(4)
_cell_volume                     428.4
loop_
_atom_site_label
_atom_site_type_symbol
_atom_site_fract_x
_atom_site_fract_y
_atom_site_fract_z
Ag1 Ag -0.5000 0.5000 0.5000
C1 C -0.1848(4) 0.2296(4) 0.6570(4)
H1 H -0.2759 0.2044 0.7527
C2 C -0.0517(4) 0.3417(3) 0.4115(3)
C3 C -0.0100(5) 0.4354(4) 0.2536(4)
H2 H -0.1068 0.5135 0.2055
C4 C 0.1796(6) 0.4088(5) 0.1707(4)
H3 H 0.2116 0.4708 0.0642
C5 C 0.3272(6) 0.2912(5) 0.2408(4)
H4 H 0.4534 0.2756 0.1798
C6 C 0.2880(5) 0.1985(4) 0.3985(4)
H5 H 0.3860 0.1214 0.4463
C7 C 0.0959(4) 0.2250(3) 0.4834(3)
C8 C 0.0956(5) 0.0237(4) 0.7611(4)
H6 H 0.1499 -0.0660 0.7126
H7 H -0.0173 -0.0252 0.8456
C9 C 0.2728(4) 0.0856(4) 0.8366(3)
H8 H 0.5000 0.0000 1.0000
N1 N -0.2288(3) 0.3405(3) 0.5255(3)
N2 N 0.0063(4) 0.1558(3) 0.6392(3)
O1 O 0.3445(3) -0.0360(3) 0.9434(3)
O2 O 0.3355(3) 0.2318(3) 0.7959(3)
Ag1_2 Ag 1.5000 -0.5000 1.5000
C1A C 1.1848(4) -0.2296(4) 1.3430(4)
H1A H 1.2759 -0.2044 1.2473
C2A C 1.0517(4) -0.3417(3) 1.5885(3)
C3A C 1.0100(5) -0.4354(4) 1.7464(4)
H2A H 1.1068 -0.5135 1.7945
C4A C 0.8204(6) -0.4088(5) 1.8293(4)
H3A H 0.7884 -0.4708 1.9358
C5A C 0.6728(6) -0.2912(5) 1.7592(4)
H4A H 0.5466 -0.2756 1.8202
C6A C 0.7120(5) -0.1985(4) 1.6015(4)
H5A H 0.6140 -0.1214 1.5537
C7A C 0.9041(4) -0.2250(3) 1.5166(3)
C8A C 0.9044(5) -0.0237(4) 1.2389(4)
H6A H 0.8501 0.0660 1.2874
H7A H 1.0173 0.0252 1.1544
C9A C 0.7272(4) -0.0856(4) 1.1634(3)
N1A N 1.2288(3) -0.3405(3) 1.4745(3)
N1A_2 N -0.7712(3) 0.6595(3) 0.4745(3)
N2A N 0.9937(4) -0.1558(3) 1.3608(3)
O1A O 0.6555(3) 0.0360(3) 1.0566(3)
O2A O 0.6645(3) -0.2318(3) 1.2041(3)
loop_
_geom_bond_atom_site_label_1
_geom_bond_atom_site_label_2
_geom_bond_site_symmetry_1
_geom_bond_site_symmetry_2
Ag1 N1 1_555 1_555
C1 H1 1_555 1_555
C2 C3 1_555 1_555
C3 H2 1_555 1_555
C4 C3 1_555 1_555
H3 C4 1_555 1_555
C5 C4 1_555 1_555
H4 C5 1_555 1_555
C6 C5 1_555 1_555
H5 C6 1_555 1_555
C7 C2 1_555 1_555
C8 H6 1_555 1_555
H7 C8 1_555 1_555
C9 C8 1_555 1_555
H8 O1 1_555 1_555
N1 C1 1_555 1_555
N2 C1 1_555 1_555
O1 C9 1_555 1_555
O2 C9 1_555 1_555
Ag1_2 N1A 1_555 1_555
C1A H1A 1_555 1_555
C2A C3A 1_555 1_555
C3A H2A 1_555 1_555
C4A C3A 1_555 1_555
H3A C4A 1_555 1_555
C5A C4A 1_555 1_555
H4A C5A 1_555 1_555
C6A C5A 1_555 1_555
H5A C6A 1_555 1_555
C7A C2A 1_555 1_555
C8A H6A 1_555 1_555
H7A C8A 1_555 1_555
C9A C8A 1_555 1_555
N1A C1A 1_555 1_555
N1A_2 Ag1 1_555 1_555
N2A C1A 1_555 1_555
O1A H8 1_555 1_555
O2A C9A 1_555 1_555
C2 N1 1_555 1_555
C6 C7 1_555 1_555
C7 N2 1_555 1_555
C8 N2 1_555 1_555
C2A N1A 1_555 1_555
C6A C7A 1_555 1_555
C7A N2A 1_555 1_555
C8A N2A 1_555 1_555
C9A O1A 1_555 1_555

#END
