
#######################################################################
#
#                 Cambridge Crystallographic Data Centre
#                                CCDC 
#
#######################################################################
#
# If this CIF has been generated from an entry in the Cambridge 
# Structural Database, then it will include bibliographic, chemical, 
# crystal, experimental, refinement or atomic coordinate data resulting 
# from the CCDC's data processing and validation procedures.
#
#######################################################################

data_UFETEG
_symmetry_cell_setting           monoclinic
_symmetry_space_group_name_H-M   'C 2/c'
_symmetry_Int_Tables_number      15
_space_group_name_Hall           '-C 2yn'
loop_
_symmetry_equiv_pos_site_id
_symmetry_equiv_pos_as_xyz
1 x,y,z
2 -x,y,1/2-z
3 1/2+x,1/2+y,z
4 1/2-x,1/2+y,1/2-z
5 -x,-y,-z
6 x,-y,1/2+z
7 1/2-x,1/2-y,-z
8 1/2+x,1/2-y,1/2+z
_cell_length_a                   12.0160(10)
_cell_length_b                   13.9560(10)
_cell_length_c                   8.7780(10)
_cell_angle_alpha                90
_cell_angle_beta                 101.111(5)
_cell_angle_gamma                90
_cell_volume                     1444.44
loop_
_atom_site_label
_atom_site_type_symbol
_atom_site_fract_x
_atom_site_fract_y
_atom_site_fract_z
Cu1 Cu 0.2500 0.2500 0.5000
O1 O 0.3009(3) 0.3655(2) 0.4062(3)
O2 O 0.3719(3) 0.4133(2) 0.2024(4)
N1 N 0.3065(3) 0.1851(2) 0.3318(4)
C1 C 0.3082(4) 0.0904(3) 0.3019(5)
H1 H 0.2810(4) 0.0478(3) 0.3676(5)
C2 C 0.3491(5) 0.0549(3) 0.1764(6)
H2 H 0.3518(5) -0.0107(3) 0.1593(6)
C3 C 0.3862(5) 0.1194(3) 0.0767(5)
H3 H 0.4138(5) 0.0977(3) -0.0091(5)
C4 C 0.3815(4) 0.2155(3) 0.1063(5)
H4 H 0.4048(4) 0.2596(3) 0.0395(5)
C5 C 0.3425(4) 0.2467(3) 0.2344(5)
C6 C 0.3382(4) 0.3499(3) 0.2807(5)
K1 K 0.5000 0.5000 0.5000
I1 I 0.5000 0.73171(4) 0.2500
O1A O 0.6991(3) 0.3655(2) 0.0938(3)
O2A O 0.6281(3) 0.4133(2) 0.2976(4)
N1A N 0.6935(3) 0.1851(2) 0.1682(4)
C1A C 0.6918(4) 0.0904(3) 0.1981(5)
H1A H 0.7190(4) 0.0478(3) 0.1324(5)
C2A C 0.6509(5) 0.0549(3) 0.3236(6)
H2A H 0.6482(5) -0.0107(3) 0.3407(6)
C3A C 0.6138(5) 0.1194(3) 0.4233(5)
H3A H 0.5862(5) 0.0977(3) 0.5091(5)
C4A C 0.6185(4) 0.2155(3) 0.3937(5)
H4A H 0.5952(4) 0.2596(3) 0.4605(5)
C5A C 0.6575(4) 0.2467(3) 0.2656(5)
C6A C 0.6618(4) 0.3499(3) 0.2193(5)
Cu1A Cu 0.7500 0.2500 0.0000
O1D O 0.6991(3) 0.6345(2) 0.5938(3)
O1F O 0.1991(3) 0.1345(2) 0.5938(3)
O2D O 0.6281(3) 0.5867(2) 0.7976(4)
O2E O 0.3719(3) 0.5867(2) 0.7024(4)
N1F N 0.1935(3) 0.3149(2) 0.6682(4)
K1A K 0.5000 0.5000 0.0000
I1D I 0.5000 0.26829(4) 0.7500
loop_
_geom_bond_atom_site_label_1
_geom_bond_atom_site_label_2
_geom_bond_site_symmetry_1
_geom_bond_site_symmetry_2
Cu1 O1 1_555 1_555
O1 C6 1_555 1_555
O2 C6 1_555 1_555
N1 Cu1 1_555 1_555
C1 N1 1_555 1_555
H1 C1 1_555 1_555
C2 C1 1_555 1_555
H2 C2 1_555 1_555
C3 C2 1_555 1_555
H3 C3 1_555 1_555
C4 C3 1_555 1_555
H4 C4 1_555 1_555
C5 N1 1_555 1_555
C6 C5 1_555 1_555
K1 O1 1_555 1_555
I1 K1 1_555 1_555
O1A C6A 1_555 1_555
O2A K1 1_555 1_555
N1A C1A 1_555 1_555
C1A H1A 1_555 1_555
C2A C1A 1_555 1_555
H2A C2A 1_555 1_555
C3A C2A 1_555 1_555
H3A C3A 1_555 1_555
C4A C3A 1_555 1_555
H4A C4A 1_555 1_555
C5A N1A 1_555 1_555
C6A O2A 1_555 1_555
Cu1A O1A 1_555 1_555
O1D K1 1_555 1_555
O1F Cu1 1_555 1_555
O2D K1 1_555 1_555
O2E K1 1_555 1_555
N1F Cu1 1_555 1_555
K1A O2 1_555 1_555
I1D K1 1_555 1_555
O2 K1 1_555 1_555
C4 C5 1_555 1_555
I1 K1A 1_555 1_555
O1A K1A 1_555 1_555
O2A K1A 1_555 1_555
N1A Cu1A 1_555 1_555
C4A C5A 1_555 1_555
C5A C6A 1_555 1_555

#END
