
#######################################################################
#
#                 Cambridge Crystallographic Data Centre
#                                CCDC 
#
#######################################################################
#
# If this CIF has been generated from an entry in the Cambridge 
# Structural Database, then it will include bibliographic, chemical, 
# crystal, experimental, refinement or atomic coordinate data resulting 
# from the CCDC's data processing and validation procedures.
#
#######################################################################

data_UFETIJ
_symmetry_cell_setting           monoclinic
_symmetry_space_group_name_H-M   'C 2/c'
_symmetry_Int_Tables_number      15
_space_group_name_Hall           '-C 2yn'
loop_
_symmetry_equiv_pos_site_id
_symmetry_equiv_pos_as_xyz
1 x,y,z
2 1/2+x,1/2+y,z
3 -x,y,1/2-z
4 1/2-x,1/2+y,1/2-z
5 -x,-y,-z
6 1/2-x,1/2-y,-z
7 x,-y,1/2+z
8 1/2+x,1/2-y,1/2+z
_cell_length_a                   29.696(5)
_cell_length_b                   8.3122(13)
_cell_length_c                   26.116(5)
_cell_angle_alpha                90
_cell_angle_beta                 101.192(3)
_cell_angle_gamma                90
_cell_volume                     6323.85
loop_
_atom_site_label
_atom_site_type_symbol
_atom_site_fract_x
_atom_site_fract_y
_atom_site_fract_z
Y1 Y 0.050260(13) -0.08970(4) 0.304780(15)
Y2 Y -0.039070(12) -0.76270(4) 0.298080(15)
Cu1 Cu 0.245710(19) -0.09036(7) 0.10493(2)
Cu2 Cu 0.20806(2) 0.20276(9) 0.51166(3)
I1 I 0.185510(12) 0.09301(4) 0.046630(13)
I2 I 0.262770(11) -0.38631(4) 0.077360(12)
C1 C 0.13209(15) 0.0312(5) 0.24273(18)
C2 C 0.17626(15) -0.0435(5) 0.23514(18)
C3 C 0.18933(15) -0.0409(5) 0.18722(18)
H1 H 0.1704 0.0126 0.1599
C4 C 0.2541(2) -0.1874(7) 0.2177(2)
H2 H 0.2803 -0.2395 0.2116
C5 C 0.2445(2) -0.1927(8) 0.2676(2)
H3 H 0.2644 -0.2434 0.2946
C6 C 0.20483(19) -0.1218(7) 0.2763(2)
H4 H 0.1972 -0.1259 0.3092
C7 C 0.03901(14) 0.1418(5) 0.40037(15)
C8 C 0.06931(16) 0.2540(5) 0.43747(17)
C9 C 0.11442(16) 0.2127(6) 0.45504(19)
H5 H 0.1242 0.1127 0.4455
C10 C 0.1308(2) 0.4505(6) 0.4971(2)
H6 H 0.1518 0.5202 0.5167
C11 C 0.0858(2) 0.5005(7) 0.4819(2)
H7 H 0.0770 0.6015 0.4917
C12 C 0.0543(2) 0.4015(6) 0.4525(2)
H8 H 0.0237 0.4321 0.4428
C13 C -0.00888(15) -0.4101(5) 0.34202(16)
C14 C -0.05467(16) -0.4196(5) 0.35837(17)
C15 C -0.0747(2) -0.2876(7) 0.3776(2)
H9 H -0.0578 -0.1931 0.3847
C16 C -0.1396(2) -0.4324(9) 0.3765(3)
H10 H -0.1698 -0.4401 0.3809
C17 C -0.11912(18) -0.5656(7) 0.3601(2)
H11 H -0.1351 -0.6623 0.3559
C18 C 0.08746(13) -0.4387(4) 0.27806(15)
C19 C 0.12143(14) -0.4065(4) 0.32786(16)
C20 C 0.15826(15) -0.5059(5) 0.34502(17)
H12 H 0.1599 -0.6034 0.3280
C21 C 0.18539(15) -0.3330(6) 0.41113(17)
H13 H 0.2073 -0.3029 0.4400
C22 C 0.14708(16) -0.2378(5) 0.39604(17)
H14 H 0.1431 -0.1485 0.4161
N1 N 0.22744(14) -0.1104(5) 0.17754(16)
N2 N 0.14500(14) 0.3072(5) 0.48485(16)
N3 N -0.07697(12) -0.5599(5) 0.35002(15)
N4 N -0.1179(2) -0.2930(7) 0.3863(2)
N5 N 0.19190(12) -0.4677(5) 0.38527(14)
N6 N 0.11563(12) -0.2700(4) 0.35363(13)
O1 O 0.11138(11) 0.1209(4) 0.20678(14)
O2 O 0.11908(10) -0.0018(4) 0.28455(12)
O3 O 0.05889(11) 0.0204(4) 0.38579(12)
O4 O -0.00221(10) 0.1789(4) 0.38441(12)
O5 O 0.00434(10) -0.5337(3) 0.32188(12)
O6 O 0.01285(11) -0.2798(3) 0.34989(12)
O7 O 0.06288(10) -0.3226(3) 0.25946(11)
O8 O 0.08728(10) -0.5773(3) 0.25929(12)
O9 O 0.03655(9) 0.1871(3) 0.28865(10)
O10 O 0.02785(9) -0.0396(3) 0.21447(11)
Y1B Y -0.050260(13) -0.08970(4) 0.195220(15)
Y2B Y 0.039070(12) 0.23730(4) 0.201920(15)
Y2_2 Y -0.039070(12) 0.23730(4) 0.298080(15)
Y2B_2 Y 0.039070(12) -0.76270(4) 0.201920(15)
Cu1C Cu 0.254290(19) -0.59036(7) 0.39507(2)
Cu2F Cu 0.20806(2) -0.20276(9) 0.01166(3)
Cu2C Cu 0.29194(2) -0.29724(9) -0.01166(3)
I1F I 0.185510(12) -0.09301(4) 0.546630(13)
I2F I 0.262770(11) 0.38631(4) 0.577360(12)
I2C I 0.237230(11) 0.11369(4) 0.422640(12)
N5C N 0.30810(12) 0.0323(5) 0.11473(14)
O1B O -0.11138(11) -0.8791(4) 0.29322(14)
O4_2 O -0.00221(10) -0.8211(4) 0.38441(12)
O8B O -0.08728(10) -0.5773(3) 0.24071(12)
O9_2 O 0.03655(9) -0.8129(3) 0.28865(10)
O9B O -0.03655(9) -0.8129(3) 0.21135(10)
O10B O -0.02785(9) -0.0396(3) 0.28553(11)
O10B_2 O -0.02785(9) -1.0396(3) 0.28553(11)
loop_
_geom_bond_atom_site_label_1
_geom_bond_atom_site_label_2
_geom_bond_site_symmetry_1
_geom_bond_site_symmetry_2
Y1 N6 1_555 1_555
Y2 N3 1_555 1_555
Cu1 I1 1_555 1_555
Cu2 N2 1_555 1_555
I1 Cu2F 1_555 1_555
I2 Cu1 1_555 1_555
C1 C2 1_555 1_555
C2 C3 1_555 1_555
C3 H1 1_555 1_555
C4 H2 1_555 1_555
C5 C4 1_555 1_555
H3 C5 1_555 1_555
C6 C2 1_555 1_555
H4 C6 1_555 1_555
C7 C8 1_555 1_555
C8 C9 1_555 1_555
C9 H5 1_555 1_555
C10 H6 1_555 1_555
C11 C10 1_555 1_555
H7 C11 1_555 1_555
C12 C8 1_555 1_555
H8 C12 1_555 1_555
C13 C14 1_555 1_555
C14 C15 1_555 1_555
C15 H9 1_555 1_555
C16 H10 1_555 1_555
C17 C16 1_555 1_555
H11 C17 1_555 1_555
C18 C19 1_555 1_555
C19 C20 1_555 1_555
C20 H12 1_555 1_555
C21 H13 1_555 1_555
C22 C21 1_555 1_555
H14 C22 1_555 1_555
N1 Cu1 1_555 1_555
N2 C9 1_555 1_555
N3 C14 1_555 1_555
N4 C15 1_555 1_555
N5 C20 1_555 1_555
N6 C19 1_555 1_555
O1 C1 1_555 1_555
O2 Y1 1_555 1_555
O3 Y1 1_555 1_555
O4 C7 1_555 1_555
O5 Y2 1_555 1_555
O6 Y1 1_555 1_555
O7 Y1 1_555 1_555
O8 C18 1_555 1_555
O9 Y1 1_555 1_555
O10 Y1 1_555 1_555
Y1B O10 1_555 1_555
Y2B O1 1_555 1_555
Y2_2 O4 1_555 1_555
Y2B_2 O8 1_555 1_555
Cu1C N5 1_555 1_555
Cu2F I2 1_555 1_555
Cu2C I2 1_555 1_555
I1F Cu2 1_555 1_555
I2F Cu2 1_555 1_555
I2C Cu2 1_555 1_555
N5C Cu1 1_555 1_555
O1B Y2 1_555 1_555
O4_2 Y2 1_555 1_555
O8B Y2 1_555 1_555
O9_2 Y2 1_555 1_555
O9B Y2 1_555 1_555
O10B Y1 1_555 1_555
O10B_2 Y2 1_555 1_555
C1 O2 1_555 1_555
C3 N1 1_555 1_555
C4 N1 1_555 1_555
C5 C6 1_555 1_555
C7 O3 1_555 1_555
C10 N2 1_555 1_555
C11 C12 1_555 1_555
C13 O5 1_555 1_555
C13 O6 1_555 1_555
C16 N4 1_555 1_555
C17 N3 1_555 1_555
C18 O7 1_555 1_555
C21 N5 1_555 1_555
C22 N6 1_555 1_555
O9 Y2B 1_555 1_555
O9 Y2_2 1_555 1_555
O10 Y2B 1_555 1_555
Y1B O10B 1_555 1_555
Y2_2 O10B 1_555 1_555
Y2B_2 O9_2 1_555 1_555
Y2B_2 O9B 1_555 1_555

#END
