
#######################################################################
#
#                 Cambridge Crystallographic Data Centre
#                                CCDC 
#
#######################################################################
#
# If this CIF has been generated from an entry in the Cambridge 
# Structural Database, then it will include bibliographic, chemical, 
# crystal, experimental, refinement or atomic coordinate data resulting 
# from the CCDC's data processing and validation procedures.
#
#######################################################################

data_UFETAB01
_symmetry_cell_setting           orthorhombic
_symmetry_space_group_name_H-M   'P c a 21'
_symmetry_Int_Tables_number      29
_space_group_name_Hall           'P 2c -2ac'
loop_
_symmetry_equiv_pos_site_id
_symmetry_equiv_pos_as_xyz
1 x,y,z
2 -x,-y,1/2+z
3 1/2+x,-y,z
4 1/2-x,y,1/2+z
_cell_length_a                   7.4132(6)
_cell_length_b                   6.3750(7)
_cell_length_c                   12.6411(12)
_cell_angle_alpha                90
_cell_angle_beta                 90
_cell_angle_gamma                90
_cell_volume                     597.408
loop_
_atom_site_label
_atom_site_type_symbol
_atom_site_fract_x
_atom_site_fract_y
_atom_site_fract_z
Ag1 Ag 0.86785(4) 1.08536(5) 0.17865(7)
C1 C 0.8932(6) 0.5773(7) 0.1652(9)
H1 H 0.9493 0.5734 0.2310
C2 C 0.7691(6) 0.4795(8) 0.0242(4)
H2 H 0.7202 0.3982 -0.0297
C3 C 0.7349(8) 0.8300(7) -0.0597(4)
H3 H 0.7140 0.9681 -0.0299
H4 H 0.6249 0.7855 -0.0947
C4 C 0.8882(5) 0.8429(9) -0.1415(4)
N1 N 0.7768(5) 0.6854(6) 0.0241(3)
N2 N 0.8569(4) 0.7529(7) 0.1146(3)
N3 N 0.8413(5) 0.4041(6) 0.1125(3)
O1 O 0.8854(3) 1.0029(7) -0.1998(3)
O2 O 0.9973(5) 0.7003(6) -0.1449(3)
Ag1_2 Ag 0.86785(4) 0.08536(5) 0.17865(7)
Ag1A Ag 1.13215(4) 0.91464(5) -0.32135(7)
Ag1C Ag 0.63215(4) 1.08536(5) -0.32135(7)
N3_2 N 0.8413(5) 1.4041(6) 0.1125(3)
O1A O 1.1146(3) 0.9971(7) 0.3002(3)
O1C O 0.6146(3) 1.0029(7) 0.3002(3)
loop_
_geom_bond_atom_site_label_1
_geom_bond_atom_site_label_2
_geom_bond_site_symmetry_1
_geom_bond_site_symmetry_2
Ag1 N2 1_555 1_555
C1 H1 1_555 1_555
C2 H2 1_555 1_555
C3 H3 1_555 1_555
H4 C3 1_555 1_555
C4 C3 1_555 1_555
N1 C2 1_555 1_555
N2 C1 1_555 1_555
N3 C1 1_555 1_555
O1 C4 1_555 1_555
O2 C4 1_555 1_555
Ag1_2 N3 1_555 1_555
Ag1A O1 1_555 1_555
Ag1C O1 1_555 1_555
N3_2 Ag1 1_555 1_555
O1A Ag1 1_555 1_555
O1C Ag1 1_555 1_555
C2 N3 1_555 1_555
C3 N1 1_555 1_555
N1 N2 1_555 1_555

#END
