
#######################################################################
#
#                 Cambridge Crystallographic Data Centre
#                                CCDC 
#
#######################################################################
#
# If this CIF has been generated from an entry in the Cambridge 
# Structural Database, then it will include bibliographic, chemical, 
# crystal, experimental, refinement or atomic coordinate data resulting 
# from the CCDC's data processing and validation procedures.
#
#######################################################################

data_UFEVOR
_symmetry_cell_setting           triclinic
_symmetry_space_group_name_H-M   'P -1'
_symmetry_Int_Tables_number      2
_space_group_name_Hall           '-P 1'
loop_
_symmetry_equiv_pos_site_id
_symmetry_equiv_pos_as_xyz
1 x,y,z
2 -x,-y,-z
_cell_length_a                   9.780(2)
_cell_length_b                   10.532(2)
_cell_length_c                   11.572(2)
_cell_angle_alpha                63.37(3)
_cell_angle_beta                 77.83(3)
_cell_angle_gamma                82.84(3)
_cell_volume                     1040.94
loop_
_atom_site_label
_atom_site_type_symbol
_atom_site_fract_x
_atom_site_fract_y
_atom_site_fract_z
Cd1 Cd 0.00352(5) 0.41516(5) 0.69231(4)
Cl1 Cl -0.18793(15) 0.48108(16) 0.54090(14)
Cl2 Cl 0.04104(17) 0.15385(16) 0.73807(16)
N1 N 0.3920(5) 0.2910(5) 0.8580(5)
N2 N 0.1843(5) 0.3820(5) 0.8057(5)
N3 N 0.2741(5) -0.2404(5) 0.9105(5)
N4 N 0.1655(5) -0.3551(5) 1.1139(4)
N5 N 0.8922(5) -0.1372(5) 0.6362(5)
N6 N 0.9762(5) -0.3562(5) 0.6775(5)
C1 C 0.5457(6) 0.1219(6) 0.7941(6)
C2 C 0.4342(6) 0.0446(6) 0.8129(5)
H1 H 0.3498 0.0584 0.8613
C3 C 0.4415(6) -0.0531(6) 0.7630(5)
C4 C 0.5683(6) -0.0707(6) 0.6898(5)
H2 H 0.5767 -0.1361 0.6550
C5 C 0.6813(6) 0.0070(6) 0.6681(5)
C6 C 0.6705(6) 0.1040(6) 0.7201(6)
H3 H 0.7470 0.1569 0.7053
C7 C 0.5350(6) 0.2347(6) 0.8424(6)
H4 H 0.5670 0.1946 0.9261
H5 H 0.5956 0.3116 0.7805
C8 C 0.3159(7) 0.3601(6) 0.7639(6)
H6 H 0.3533 0.3904 0.6753
C9 C 0.1766(7) 0.3219(7) 0.9366(7)
H7 H 0.0953 0.3197 0.9959
C10 C 0.3023(7) 0.2646(7) 0.9718(6)
H8 H 0.3223 0.2171 1.0564
C11 C 0.3129(6) -0.1282(6) 0.7784(5)
H9 H 0.2355 -0.0594 0.7575
H10 H 0.3297 -0.1691 0.7162
C12 C 0.1759(6) -0.2360(6) 1.0088(6)
H11 H 0.1206 -0.1553 1.0022
C13 C 0.2628(6) -0.4452(6) 1.0810(6)
H12 H 0.2787 -0.5402 1.1363
C14 C 0.3315(6) -0.3762(6) 0.9578(6)
H13 H 0.4034 -0.4129 0.9135
C15 C 0.8156(5) -0.0030(6) 0.5782(6)
H14 H 0.7931 0.0080 0.4964
H15 H 0.8747 0.0742 0.5581
C16 C 0.8980(6) -0.2519(6) 0.6081(5)
H16 H 0.8517 -0.2545 0.5469
C17 C 1.0245(6) -0.3084(6) 0.7531(6)
H17 H 1.0844 -0.3601 0.8125
C18 C 0.9726(6) -0.1742(6) 0.7294(6)
H18 H 0.9890 -0.1193 0.7691
Cd1A Cd -0.00352(5) 0.58484(5) 0.30769(4)
Cd1A_2 Cd -0.00352(5) -0.41516(5) 1.30769(4)
Cd1_2 Cd 1.00352(5) -0.58484(5) 0.69231(4)
Cl1A Cl 0.18793(15) 0.51892(16) 0.45910(14)
N4A N -0.1655(5) 0.3551(5) 0.8861(4)
N6_2 N -0.0238(5) 0.6438(5) 0.6775(5)
O1 O 0.5471(5) 0.6196(5) 0.6605(5)
C19 C 0.4761(9) 0.6847(7) 0.5521(7)
H19 H 0.3807 0.7064 0.5814
H20 H 0.4784 0.6210 0.5129
H21 H 0.5211 0.7707 0.4886
loop_
_geom_bond_atom_site_label_1
_geom_bond_atom_site_label_2
_geom_bond_site_symmetry_1
_geom_bond_site_symmetry_2
Cd1 Cl1 1_555 1_555
Cl1 Cd1A 1_555 1_555
Cl2 Cd1 1_555 1_555
N1 C7 1_555 1_555
N2 Cd1 1_555 1_555
N3 C11 1_555 1_555
N4 C12 1_555 1_555
N5 C15 1_555 1_555
N6 C16 1_555 1_555
C1 C2 1_555 1_555
C2 H1 1_555 1_555
C3 C2 1_555 1_555
C4 C3 1_555 1_555
H2 C4 1_555 1_555
C5 C4 1_555 1_555
C6 C1 1_555 1_555
H3 C6 1_555 1_555
C7 C1 1_555 1_555
H4 C7 1_555 1_555
H5 C7 1_555 1_555
C8 N1 1_555 1_555
H6 C8 1_555 1_555
C9 N2 1_555 1_555
H7 C9 1_555 1_555
C10 N1 1_555 1_555
H8 C10 1_555 1_555
C11 C3 1_555 1_555
H9 C11 1_555 1_555
H10 C11 1_555 1_555
C12 N3 1_555 1_555
H11 C12 1_555 1_555
C13 N4 1_555 1_555
H12 C13 1_555 1_555
C14 N3 1_555 1_555
H13 C14 1_555 1_555
C15 C5 1_555 1_555
H14 C15 1_555 1_555
H15 C15 1_555 1_555
C16 N5 1_555 1_555
H16 C16 1_555 1_555
C17 N6 1_555 1_555
H17 C17 1_555 1_555
C18 N5 1_555 1_555
H18 C18 1_555 1_555
O1 C19 1_555 1_555
C19 H19 1_555 1_555
H20 C19 1_555 1_555
H21 C19 1_555 1_555
Cd1A Cl1A 1_555 1_555
Cd1A_2 N4 1_555 1_555
Cd1_2 N6 1_555 1_555
Cl1A Cd1 1_555 1_555
N4A Cd1 1_555 1_555
N6_2 Cd1 1_555 1_555
N2 C8 1_555 1_555
C5 C6 1_555 1_555
C9 C10 1_555 1_555
C13 C14 1_555 1_555
C17 C18 1_555 1_555

#END
