
#######################################################################
#
#                 Cambridge Crystallographic Data Centre
#                                CCDC 
#
#######################################################################
#
# If this CIF has been generated from an entry in the Cambridge 
# Structural Database, then it will include bibliographic, chemical, 
# crystal, experimental, refinement or atomic coordinate data resulting 
# from the CCDC's data processing and validation procedures.
#
#######################################################################

data_UFEVUX
_symmetry_cell_setting           monoclinic
_symmetry_space_group_name_H-M   'P 21/c'
_symmetry_Int_Tables_number      14
_space_group_name_Hall           '-P 2ybc'
loop_
_symmetry_equiv_pos_site_id
_symmetry_equiv_pos_as_xyz
1 x,y,z
2 -x,1/2+y,1/2-z
3 -x,-y,-z
4 x,1/2-y,1/2+z
_cell_length_a                   10.7409(16)
_cell_length_b                   10.2112(15)
_cell_length_c                   19.623(3)
_cell_angle_alpha                90
_cell_angle_beta                 103.429(3)
_cell_angle_gamma                90
_cell_volume                     2093.36
loop_
_atom_site_label
_atom_site_type_symbol
_atom_site_fract_x
_atom_site_fract_y
_atom_site_fract_z
C1 C 0.2469(4) 0.2101(4) 0.30148(19)
C2 C 0.3242(4) 0.2692(4) 0.35972(19)
H1 H 0.2917 0.3365 0.3824
C3 C 0.4507(4) 0.2285(4) 0.38472(19)
C4 C 0.4968(4) 0.1271(4) 0.3506(2)
H2 H 0.5810 0.0993 0.3668
C5 C 0.4200(4) 0.0665(4) 0.29308(19)
C6 C 0.2963(4) 0.1088(4) 0.2692(2)
H3 H 0.2445 0.0684 0.2304
C7 C 0.1109(4) 0.2559(4) 0.2730(2)
H4 H 0.0582 0.1821 0.2528
H5 H 0.0769 0.2905 0.3110
C8 C 0.0624(4) 0.3459(4) 0.1504(2)
H6 H 0.0258 0.2702 0.1279
C9 C 0.1344(4) 0.5401(4) 0.1694(2)
H7 H 0.1577 0.6259 0.1623
C10 C 0.1509(5) 0.4806(4) 0.2325(2)
H8 H 0.1865 0.5171 0.2761
C11 C 0.5337(4) 0.2951(4) 0.4479(2)
H9 H 0.5733 0.3717 0.4327
H10 H 0.4805 0.3243 0.4787
C12 C 0.7506(4) 0.1939(4) 0.4759(2)
H11 H 0.7861 0.2495 0.4479
C13 C 0.7255(5) 0.0399(5) 0.5443(2)
H12 H 0.7414 -0.0329 0.5736
C14 C 0.6170(4) 0.1090(5) 0.5305(2)
H13 H 0.5444 0.0926 0.5473
C15 C 0.4691(5) -0.0491(5) 0.2592(2)
H14 H 0.4130 -0.0647 0.2135
H15 H 0.5536 -0.0290 0.2523
C16 C 0.5784(4) -0.2138(5) 0.3471(2)
H16 H 0.6594 -0.1765 0.3544
C17 C 0.4233(5) -0.3371(5) 0.3552(3)
H17 H 0.3755 -0.4034 0.3694
C18 C 0.3768(4) -0.2448(5) 0.3065(2)
H18 H 0.2924 -0.2365 0.2812
Cd1 Cd 0.0000 0.5000 0.0000
H19 H -0.028(4) 0.745(4) 0.059(2)
H20 H -0.108(6) 0.749(6) 0.010(3)
N1 N 0.1050(3) 0.3572(3) 0.21947(15)
N2 N 0.0785(3) 0.4548(4) 0.11776(17)
N3 N 0.6333(3) 0.2087(3) 0.48665(15)
N4 N 0.8102(3) 0.0925(4) 0.50896(16)
N5 N 0.4758(3) -0.1670(3) 0.30151(18)
N6 N 0.5529(4) -0.3175(4) 0.3805(2)
O1 O -0.0694(4) 0.7106(4) 0.0331(2)
C1B C -0.2469(4) 0.7899(4) -0.30148(19)
C2B C -0.3242(4) 0.7308(4) -0.35972(19)
H1B H -0.2917 0.6635 -0.3824
C3B C -0.4507(4) 0.7715(4) -0.38472(19)
C4B C -0.4968(4) 0.8729(4) -0.3506(2)
H2B H -0.5810 0.9007 -0.3668
C5B C -0.4200(4) 0.9335(4) -0.29308(19)
C6B C -0.2963(4) 0.8912(4) -0.2692(2)
H3B H -0.2445 0.9316 -0.2304
C7B C -0.1109(4) 0.7441(4) -0.2730(2)
H4B H -0.0582 0.8179 -0.2528
H5B H -0.0769 0.7095 -0.3110
C8B C -0.0624(4) 0.6541(4) -0.1504(2)
H6B H -0.0258 0.7298 -0.1279
C9B C -0.1344(4) 0.4599(4) -0.1694(2)
H7B H -0.1577 0.3741 -0.1623
C10B C -0.1509(5) 0.5194(4) -0.2325(2)
H8B H -0.1865 0.4829 -0.2761
C11B C -0.5337(4) 0.7049(4) -0.4479(2)
H9B H -0.5733 0.6283 -0.4327
H10B H -0.4805 0.6757 -0.4787
C12B C -0.7506(4) 0.8061(4) -0.4759(2)
H11B H -0.7861 0.7505 -0.4479
C13B C -0.7255(5) 0.9601(5) -0.5443(2)
H12B H -0.7414 1.0329 -0.5736
C14B C -0.6170(4) 0.8910(5) -0.5305(2)
H13B H -0.5444 0.9074 -0.5473
C15B C -0.4691(5) 1.0491(5) -0.2592(2)
H14B H -0.4130 1.0647 -0.2135
H15B H -0.5536 1.0290 -0.2523
C16B C -0.5784(4) 1.2138(5) -0.3471(2)
H16B H -0.6594 1.1765 -0.3544
C17B C -0.4233(5) 1.3371(5) -0.3552(3)
H17B H -0.3755 1.4034 -0.3694
C18B C -0.3768(4) 1.2448(5) -0.3065(2)
H18B H -0.2924 1.2365 -0.2812
Cd1C Cd 1.0000 0.0000 0.5000
Cd1C_2 Cd -1.0000 1.0000 -0.5000
H19B H 0.028(4) 0.255(4) -0.059(2)
H20B H 0.108(6) 0.251(6) -0.010(3)
N1B N -0.1050(3) 0.6428(3) -0.21947(15)
N2B N -0.0785(3) 0.5452(4) -0.11776(17)
N3B N -0.6333(3) 0.7913(3) -0.48665(15)
N4B N -0.8102(3) 0.9075(4) -0.50896(16)
N4C N -0.1898(3) 0.4075(4) 0.00896(16)
N4A N 0.1898(3) 0.5925(4) -0.00896(16)
N5B N -0.4758(3) 1.1670(3) -0.30151(18)
N6B N -0.5529(4) 1.3175(4) -0.3805(2)
O1B O 0.0694(4) 0.2894(4) -0.0331(2)
Cl1 Cl 0.12006(12) 0.89763(13) 0.13645(6)
H21 H 0.707(4) 0.624(5) 0.443(2)
H22 H 0.806(6) 0.530(6) 0.440(3)
O2 O 0.7748(4) 0.5838(4) 0.4663(2)
H23 H 0.936(3) 0.025(7) 0.112(3)
H24 H 0.817(5) 0.041(7) 0.0579(19)
O3 O 0.8568(6) 0.0561(5) 0.1011(3)
loop_
_geom_bond_atom_site_label_1
_geom_bond_atom_site_label_2
_geom_bond_site_symmetry_1
_geom_bond_site_symmetry_2
C1 C2 1_555 1_555
C2 H1 1_555 1_555
C3 C2 1_555 1_555
C4 C3 1_555 1_555
H2 C4 1_555 1_555
C5 C4 1_555 1_555
C6 C1 1_555 1_555
H3 C6 1_555 1_555
C7 C1 1_555 1_555
H4 C7 1_555 1_555
H5 C7 1_555 1_555
C8 H6 1_555 1_555
C9 H7 1_555 1_555
C10 C9 1_555 1_555
H8 C10 1_555 1_555
C11 C3 1_555 1_555
H9 C11 1_555 1_555
H10 C11 1_555 1_555
C12 H11 1_555 1_555
C13 H12 1_555 1_555
C14 C13 1_555 1_555
H13 C14 1_555 1_555
C15 C5 1_555 1_555
H14 C15 1_555 1_555
H15 C15 1_555 1_555
C16 H16 1_555 1_555
C17 H17 1_555 1_555
C18 C17 1_555 1_555
H18 C18 1_555 1_555
Cd1 N2 1_555 1_555
H19 O1 1_555 1_555
H20 O1 1_555 1_555
N1 C7 1_555 1_555
N2 C8 1_555 1_555
N3 C11 1_555 1_555
N4 C12 1_555 1_555
N5 C15 1_555 1_555
N6 C16 1_555 1_555
O1 Cd1 1_555 1_555
H21 O2 1_555 1_555
H22 O2 1_555 1_555
H23 O3 1_555 1_555
H24 O3 1_555 1_555
C1B C2B 1_555 1_555
C2B H1B 1_555 1_555
C3B C2B 1_555 1_555
C4B C3B 1_555 1_555
H2B C4B 1_555 1_555
C5B C4B 1_555 1_555
C6B C1B 1_555 1_555
H3B C6B 1_555 1_555
C7B C1B 1_555 1_555
H4B C7B 1_555 1_555
H5B C7B 1_555 1_555
C8B H6B 1_555 1_555
C9B H7B 1_555 1_555
C10B C9B 1_555 1_555
H8B C10B 1_555 1_555
C11B C3B 1_555 1_555
H9B C11B 1_555 1_555
H10B C11B 1_555 1_555
C12B H11B 1_555 1_555
C13B H12B 1_555 1_555
C14B C13B 1_555 1_555
H13B C14B 1_555 1_555
C15B C5B 1_555 1_555
H14B C15B 1_555 1_555
H15B C15B 1_555 1_555
C16B H16B 1_555 1_555
C17B H17B 1_555 1_555
C18B C17B 1_555 1_555
H18B C18B 1_555 1_555
Cd1C N4 1_555 1_555
Cd1C_2 N4B 1_555 1_555
H19B O1B 1_555 1_555
H20B O1B 1_555 1_555
N1B C7B 1_555 1_555
N2B Cd1 1_555 1_555
N3B C11B 1_555 1_555
N4B C12B 1_555 1_555
N4C Cd1 1_555 1_555
N4A Cd1 1_555 1_555
N5B C15B 1_555 1_555
N6B C16B 1_555 1_555
O1B Cd1 1_555 1_555
C5 C6 1_555 1_555
C8 N1 1_555 1_555
C9 N2 1_555 1_555
C10 N1 1_555 1_555
C12 N3 1_555 1_555
C13 N4 1_555 1_555
C14 N3 1_555 1_555
C16 N5 1_555 1_555
C17 N6 1_555 1_555
C18 N5 1_555 1_555
C5B C6B 1_555 1_555
C8B N1B 1_555 1_555
C8B N2B 1_555 1_555
C9B N2B 1_555 1_555
C10B N1B 1_555 1_555
C12B N3B 1_555 1_555
C13B N4B 1_555 1_555
C14B N3B 1_555 1_555
C16B N5B 1_555 1_555
C17B N6B 1_555 1_555
C18B N5B 1_555 1_555

#END
