
#######################################################################
#
#                 Cambridge Crystallographic Data Centre
#                                CCDC 
#
#######################################################################
#
# If this CIF has been generated from an entry in the Cambridge 
# Structural Database, then it will include bibliographic, chemical, 
# crystal, experimental, refinement or atomic coordinate data resulting 
# from the CCDC's data processing and validation procedures.
#
#######################################################################

data_UFEWAE
_symmetry_cell_setting           triclinic
_symmetry_space_group_name_H-M   'P -1'
_symmetry_Int_Tables_number      2
_space_group_name_Hall           '-P 1'
loop_
_symmetry_equiv_pos_site_id
_symmetry_equiv_pos_as_xyz
1 x,y,z
2 -x,-y,-z
_cell_length_a                   9.795(5)
_cell_length_b                   11.219(6)
_cell_length_c                   13.129(6)
_cell_angle_alpha                64.551(16)
_cell_angle_beta                 67.682(16)
_cell_angle_gamma                74.765(19)
_cell_volume                     1196.57
loop_
_atom_site_label
_atom_site_type_symbol
_atom_site_fract_x
_atom_site_fract_y
_atom_site_fract_z
I1 I 0.82603(3) -0.12519(3) 0.58171(3)
I2 I 0.75285(4) 0.24333(3) 0.66839(3)
I3 I 1.06704(4) -0.14216(4) 0.82048(3)
Cd1 Cd 0.95552(4) 0.02991(4) 0.64238(3)
I1A I 1.17397(3) 0.12519(3) 0.41829(3)
I2A I 1.24715(4) -0.24333(3) 0.33161(3)
I3A I 0.93296(4) 0.14216(4) 0.17952(3)
Cd1A Cd 1.04448(4) -0.02991(4) 0.35762(3)
Cd2 Cd 0.5000 0.5000 0.0000
N1 N 0.5428(4) 0.3205(4) 0.3652(3)
N2 N 0.5431(4) 0.4439(4) 0.1815(3)
N3 N 0.3808(4) -0.0656(4) 0.9256(3)
N4 N 0.4854(4) -0.2736(4) 0.9616(3)
N5 N -0.0428(4) 0.4889(4) 0.7516(3)
N6 N -0.2444(4) 0.4950(4) 0.8994(3)
C1 C 0.3965(5) 0.2270(5) 0.5786(4)
C2 C 0.3903(5) 0.1307(5) 0.6921(4)
H1 H 0.4637 0.0555 0.7015
C3 C 0.2774(5) 0.1453(4) 0.7903(3)
C4 C 0.1694(5) 0.2545(5) 0.7755(4)
H2 H 0.0920 0.2648 0.8429
C5 C 0.1731(5) 0.3487(4) 0.6637(4)
C6 C 0.2876(5) 0.3339(4) 0.5656(3)
H3 H 0.2908 0.3983 0.4887
C7 C 0.5259(5) 0.2053(5) 0.4757(4)
H4 H 0.6188 0.1817 0.4971
H5 H 0.5118 0.1290 0.4631
C8 C 0.5199(5) 0.3272(5) 0.2675(4)
H6 H 0.4907 0.2566 0.2616
C9 C 0.5833(5) 0.5155(5) 0.2265(4)
H7 H 0.6066 0.6044 0.1849
C10 C 0.5847(5) 0.4394(5) 0.3397(4)
H8 H 0.6096 0.4642 0.3906
C11 C 0.2648(5) 0.0479(5) 0.9161(4)
H9 H 0.2682 0.0960 0.9629
H10 H 0.1668 0.0143 0.9518
C12 C 0.3605(5) -0.1930(5) 0.9628(4)
H11 H 0.2662 -0.2220 0.9874
C13 C 0.5927(5) -0.1907(5) 0.9198(4)
H12 H 0.6960 -0.2195 0.9074
C14 C 0.5311(5) -0.0641(5) 0.8992(4)
H13 H 0.5807 0.0113 0.8721
C15 C 0.0544(5) 0.4685(5) 0.6434(4)
H14 H 0.1040 0.5493 0.5889
H15 H -0.0069 0.4564 0.6042
C16 C -0.1871(5) 0.4696(5) 0.8010(4)
H16 H -0.2404 0.4417 0.7694
C17 C -0.1324(5) 0.5306(5) 0.9134(4)
H17 H -0.1411 0.5536 0.9774
C18 C -0.0066(5) 0.5285(5) 0.8226(4)
H18 H 0.0873 0.5501 0.8106
Cd2_2 Cd 0.5000 -0.5000 1.0000
Cd2_3 Cd -0.5000 0.5000 1.0000
Cd2_4 Cd 0.5000 1.5000 -1.0000
Cd2_5 Cd 1.5000 0.5000 -1.0000
N1A N 0.4572(4) 0.6795(4) -0.3652(3)
N2A N 0.4569(4) 0.5561(4) -0.1815(3)
N3A N 0.6192(4) 1.0656(4) -0.9256(3)
N4A N 0.5146(4) 1.2736(4) -0.9616(3)
N4_2 N 0.4854(4) 0.7264(4) -0.0384(3)
N4A_2 N 0.5146(4) 0.2736(4) 0.0384(3)
N5A N 1.0428(4) 0.5111(4) -0.7516(3)
N6A N 1.2444(4) 0.5050(4) -0.8994(3)
N6_2 N 0.7556(4) 0.4950(4) -0.1006(3)
N6A_2 N 0.2444(4) 0.5050(4) 0.1006(3)
C1A C 0.6035(5) 0.7730(5) -0.5786(4)
C2A C 0.6097(5) 0.8693(5) -0.6921(4)
H1A H 0.5363 0.9445 -0.7015
C3A C 0.7226(5) 0.8547(4) -0.7903(3)
C4A C 0.8306(5) 0.7455(5) -0.7755(4)
H2A H 0.9080 0.7352 -0.8429
C5A C 0.8269(5) 0.6513(4) -0.6637(4)
C6A C 0.7124(5) 0.6661(4) -0.5656(3)
H3A H 0.7092 0.6017 -0.4887
C7A C 0.4741(5) 0.7947(5) -0.4757(4)
H4A H 0.3812 0.8183 -0.4971
H5A H 0.4882 0.8710 -0.4631
C8A C 0.4801(5) 0.6728(5) -0.2675(4)
H6A H 0.5093 0.7434 -0.2616
C9A C 0.4167(5) 0.4845(5) -0.2265(4)
H7A H 0.3934 0.3956 -0.1849
C10A C 0.4153(5) 0.5606(5) -0.3397(4)
H8A H 0.3904 0.5358 -0.3906
C11A C 0.7352(5) 0.9521(5) -0.9161(4)
H9A H 0.7318 0.9040 -0.9629
H10A H 0.8332 0.9857 -0.9518
C12A C 0.6395(5) 1.1930(5) -0.9628(4)
H11A H 0.7338 1.2220 -0.9874
C13A C 0.4073(5) 1.1907(5) -0.9198(4)
H12A H 0.3040 1.2195 -0.9074
C14A C 0.4689(5) 1.0641(5) -0.8992(4)
H13A H 0.4193 0.9887 -0.8721
C15A C 0.9456(5) 0.5315(5) -0.6434(4)
H14A H 0.8960 0.4507 -0.5889
H15A H 1.0069 0.5436 -0.6042
C16A C 1.1871(5) 0.5304(5) -0.8010(4)
H16A H 1.2404 0.5583 -0.7694
C17A C 1.1324(5) 0.4694(5) -0.9134(4)
H17A H 1.1411 0.4464 -0.9774
C18A C 1.0066(5) 0.4715(5) -0.8226(4)
H18A H 0.9127 0.4499 -0.8106
loop_
_geom_bond_atom_site_label_1
_geom_bond_atom_site_label_2
_geom_bond_site_symmetry_1
_geom_bond_site_symmetry_2
I1 Cd1 1_555 1_555
I2 Cd1 1_555 1_555
I3 Cd1 1_555 1_555
Cd1 I1A 1_555 1_555
Cd2 N2 1_555 1_555
N1 C7 1_555 1_555
N2 C8 1_555 1_555
N3 C11 1_555 1_555
N4 C12 1_555 1_555
N5 C15 1_555 1_555
N6 C16 1_555 1_555
C1 C2 1_555 1_555
C2 H1 1_555 1_555
C3 C2 1_555 1_555
C4 C3 1_555 1_555
H2 C4 1_555 1_555
C5 C4 1_555 1_555
C6 C1 1_555 1_555
H3 C6 1_555 1_555
C7 C1 1_555 1_555
H4 C7 1_555 1_555
H5 C7 1_555 1_555
C8 N1 1_555 1_555
H6 C8 1_555 1_555
C9 N2 1_555 1_555
H7 C9 1_555 1_555
C10 N1 1_555 1_555
H8 C10 1_555 1_555
C11 C3 1_555 1_555
H9 C11 1_555 1_555
H10 C11 1_555 1_555
C12 N3 1_555 1_555
H11 C12 1_555 1_555
C13 N4 1_555 1_555
H12 C13 1_555 1_555
C14 N3 1_555 1_555
H13 C14 1_555 1_555
C15 C5 1_555 1_555
H14 C15 1_555 1_555
H15 C15 1_555 1_555
C16 N5 1_555 1_555
H16 C16 1_555 1_555
C17 N6 1_555 1_555
H17 C17 1_555 1_555
C18 N5 1_555 1_555
H18 C18 1_555 1_555
I1A Cd1A 1_555 1_555
I2A Cd1A 1_555 1_555
I3A Cd1A 1_555 1_555
Cd1A I1 1_555 1_555
Cd2_2 N4 1_555 1_555
Cd2_3 N6 1_555 1_555
Cd2_4 N4A 1_555 1_555
Cd2_5 N6A 1_555 1_555
N1A C7A 1_555 1_555
N2A Cd2 1_555 1_555
N3A C11A 1_555 1_555
N4A C12A 1_555 1_555
N4_2 Cd2 1_555 1_555
N4A_2 Cd2 1_555 1_555
N5A C15A 1_555 1_555
N6A C16A 1_555 1_555
N6_2 Cd2 1_555 1_555
N6A_2 Cd2 1_555 1_555
C1A C2A 1_555 1_555
C2A H1A 1_555 1_555
C3A C2A 1_555 1_555
C4A C3A 1_555 1_555
H2A C4A 1_555 1_555
C5A C4A 1_555 1_555
C6A C1A 1_555 1_555
H3A C6A 1_555 1_555
C7A C1A 1_555 1_555
H4A C7A 1_555 1_555
H5A C7A 1_555 1_555
C8A N1A 1_555 1_555
H6A C8A 1_555 1_555
C9A N2A 1_555 1_555
H7A C9A 1_555 1_555
C10A N1A 1_555 1_555
H8A C10A 1_555 1_555
C11A C3A 1_555 1_555
H9A C11A 1_555 1_555
H10A C11A 1_555 1_555
C12A N3A 1_555 1_555
H11A C12A 1_555 1_555
C13A N4A 1_555 1_555
H12A C13A 1_555 1_555
C14A N3A 1_555 1_555
H13A C14A 1_555 1_555
C15A C5A 1_555 1_555
H14A C15A 1_555 1_555
H15A C15A 1_555 1_555
C16A N5A 1_555 1_555
H16A C16A 1_555 1_555
C17A N6A 1_555 1_555
H17A C17A 1_555 1_555
C18A N5A 1_555 1_555
H18A C18A 1_555 1_555
C5 C6 1_555 1_555
C9 C10 1_555 1_555
C13 C14 1_555 1_555
C17 C18 1_555 1_555
N2A C8A 1_555 1_555
C5A C6A 1_555 1_555
C9A C10A 1_555 1_555
C13A C14A 1_555 1_555
C17A C18A 1_555 1_555

#END
