
#######################################################################
#
#                 Cambridge Crystallographic Data Centre
#                                CCDC 
#
#######################################################################
#
# If this CIF has been generated from an entry in the Cambridge 
# Structural Database, then it will include bibliographic, chemical, 
# crystal, experimental, refinement or atomic coordinate data resulting 
# from the CCDC's data processing and validation procedures.
#
#######################################################################

data_UFEWUY
_symmetry_cell_setting           monoclinic
_symmetry_space_group_name_H-M   'C 2'
_symmetry_Int_Tables_number      5
_space_group_name_Hall           'C 2y'
loop_
_symmetry_equiv_pos_site_id
_symmetry_equiv_pos_as_xyz
1 x,y,z
2 -x,y,-z
3 1/2+x,1/2+y,z
4 1/2-x,1/2+y,-z
_cell_length_a                   9.2125(6)
_cell_length_b                   11.6265(5)
_cell_length_c                   9.8446(7)
_cell_angle_alpha                90
_cell_angle_beta                 102.397(3)
_cell_angle_gamma                90
_cell_volume                     1029.86
loop_
_atom_site_label
_atom_site_type_symbol
_atom_site_fract_x
_atom_site_fract_y
_atom_site_fract_z
U1 U 0.228754(17) 0.4796 0.339436(15)
O1 O 0.4108(5) 0.4316(4) 0.3432(4)
O2 O 0.0465(5) 0.5242(3) 0.3413(4)
O3 O 0.1646(5) 0.2938(3) 0.4088(4)
O4 O 0.1663(5) 0.1485(3) 0.5536(4)
O5 O 0.2619(6) 0.1112(4) 0.8364(4)
O6 O 0.0528(5) 0.1927(4) 0.8750(4)
O7 O 0.1417(5) 0.3677(4) 0.1331(4)
H1 H 0.0717 0.3242 0.1632
H2 H 0.1698 0.3295 0.0668
N1 N 0.2594(5) 0.4428(4) 0.6097(6)
N2 N 0.2483(6) 0.3918(4) 0.8861(6)
C1 C 0.2245(7) 0.3360(5) 0.6487(6)
C2 C 0.2186(6) 0.3107(5) 0.7845(6)
C3 C 0.2921(6) 0.4957(7) 0.8497(6)
H3 H 0.3190 0.5523 0.9172
C4 C 0.2979(7) 0.5201(5) 0.7105(7)
H4 H 0.3295 0.5924 0.6887
C5 C 0.1828(6) 0.2528(5) 0.5298(6)
C6 C 0.1691(7) 0.1957(5) 0.8345(6)
U1C U 0.271246(17) -0.0204 0.660564(15)
O4C O 0.3337(5) 0.6485(3) 0.4464(4)
O5C O 0.2381(6) 0.6112(4) 0.1636(4)
loop_
_geom_bond_atom_site_label_1
_geom_bond_atom_site_label_2
_geom_bond_site_symmetry_1
_geom_bond_site_symmetry_2
U1 O1 1_555 1_555
O2 U1 1_555 1_555
O3 U1 1_555 1_555
O4 C5 1_555 1_555
O5 C6 1_555 1_555
O6 C6 1_555 1_555
O7 U1 1_555 1_555
H1 O7 1_555 1_555
H2 O7 1_555 1_555
N1 U1 1_555 1_555
N2 C2 1_555 1_555
C1 N1 1_555 1_555
C2 C1 1_555 1_555
C3 N2 1_555 1_555
H3 C3 1_555 1_555
C4 N1 1_555 1_555
H4 C4 1_555 1_555
C5 O3 1_555 1_555
C6 C2 1_555 1_555
U1C O4 1_555 1_555
O4C U1 1_555 1_555
O5C U1 1_555 1_555
O5 U1C 1_555 1_555
C1 C5 1_555 1_555
C3 C4 1_555 1_555

#END
