
#######################################################################
#
#                 Cambridge Crystallographic Data Centre
#                                CCDC 
#
#######################################################################
#
# If this CIF has been generated from an entry in the Cambridge 
# Structural Database, then it will include bibliographic, chemical, 
# crystal, experimental, refinement or atomic coordinate data resulting 
# from the CCDC's data processing and validation procedures.
#
#######################################################################

data_UFEXOT
_symmetry_cell_setting           rhombohedral
_symmetry_space_group_name_H-M   'R -3'
_symmetry_Int_Tables_number      148
_space_group_name_Hall           '-R 3'
loop_
_symmetry_equiv_pos_site_id
_symmetry_equiv_pos_as_xyz
1 x,y,z
2 -y,x-y,z
3 -x+y,-x,z
4 2/3+x,1/3+y,1/3+z
5 2/3-y,1/3+x-y,1/3+z
6 2/3-x+y,1/3-x,1/3+z
7 1/3+x,2/3+y,2/3+z
8 1/3-y,2/3+x-y,2/3+z
9 1/3-x+y,2/3-x,2/3+z
10 -x,-y,-z
11 y,-x+y,-z
12 x-y,x,-z
13 1/3-x,2/3-y,2/3-z
14 1/3+y,2/3-x+y,2/3-z
15 1/3+x-y,2/3+x,2/3-z
16 2/3-x,1/3-y,1/3-z
17 2/3+y,1/3-x+y,1/3-z
18 2/3+x-y,1/3+x,1/3-z
_cell_length_a                   27.294(4)
_cell_length_b                   27.294(4)
_cell_length_c                   6.9565(13)
_cell_angle_alpha                90
_cell_angle_beta                 90
_cell_angle_gamma                120.00
_cell_volume                     4488.03
loop_
_atom_site_label
_atom_site_type_symbol
_atom_site_fract_x
_atom_site_fract_y
_atom_site_fract_z
Er1 Er 0.747263(9) 0.341704(9) 0.11645(3)
Cu1 Cu 1.0000 0.5000 0.0000
O1 O 0.78788(14) 0.39840(15) -0.1586(5)
O3 O 0.84571(16) 0.39787(18) 0.1785(6)
O4 O 0.93860(19) 0.4494(2) 0.1673(7)
O5 O 0.6667 0.3333 0.3333
O6 O 0.75692(15) 0.34114(14) 0.4457(5)
H3 H 0.7883 0.3458 0.4793
N1 N 0.84315(19) 0.4587(2) -0.3853(7)
N2 N 0.9385(2) 0.4874(3) -0.1773(8)
C1 C 0.8378(2) 0.4342(2) -0.2103(8)
C2 C 0.8880(2) 0.4507(3) -0.1031(8)
C3 C 0.9420(3) 0.5095(3) -0.3500(10)
H4 H 0.9771 0.5348 -0.4017
C4 C 0.8934(3) 0.4947(3) -0.4530(9)
H5 H 0.8963 0.5107 -0.5734
C5 C 0.8896(2) 0.4305(3) 0.0954(8)
O7 O 0.6667 0.3333 0.0159(15)
Er1I Er 1.252737(9) 0.658296(9) -0.11645(3)
Er1N Er 0.738892(13) 0.413930(9) -0.44978(3)
Er1E Er 1.261108(13) 0.586070(9) 0.44978(3)
Er1M Er 0.675037(9) 0.261108(13) -0.44978(3)
Er1D Er 1.324963(9) 0.738892(13) 0.44978(3)
Er1A Er 0.658296(9) 0.405559(13) 0.11645(3)
Er1B Er 0.594441(13) 0.252737(9) 0.11645(3)
Er1L Er 0.586070(9) 0.324963(9) 0.55022(3)
Er1M_2 Er 0.675037(9) 0.261108(13) 0.55022(3)
Er1N_2 Er 0.738892(13) 0.413930(9) 0.55022(3)
Er1D_2 Er 1.324963(9) 0.738892(13) -0.55022(3)
Er1E_2 Er 1.261108(13) 0.586070(9) -0.55022(3)
Er1K Er 1.405559(13) 0.747263(9) -0.11645(3)
Er1J Er 1.341704(9) 0.594441(13) -0.11645(3)
Er1L_2 Er 0.586070(9) 0.324963(9) -0.44978(3)
Er1C Er 1.413930(9) 0.675037(9) 0.44978(3)
Cu1M Cu 0.8333 0.1667 -0.3333
Cu1D Cu 1.1667 0.8333 0.3333
Cu1N Cu 0.8333 0.6667 -0.3333
Cu1E Cu 1.1667 0.3333 0.3333
O1I O 1.21212(14) 0.60160(15) 0.1586(5)
O1M O 0.73173(15) 0.27719(21) -0.1747(5)
O1D O 1.26827(15) 0.72281(21) 0.1747(5)
O1N O 0.72281(21) 0.45455(14) -0.1747(5)
O1E O 1.27719(21) 0.54545(14) 0.1747(5)
O1B O 0.61052(21) 0.21212(14) -0.1586(5)
O1K O 1.38948(21) 0.78788(14) 0.1586(5)
O3I O 1.15429(16) 0.60213(18) -0.1785(6)
O3M O 0.73120(18) 0.21883(24) -0.5118(6)
O3D O 1.26880(18) 0.78117(24) 0.5118(6)
O3N O 0.78117(24) 0.51238(16) -0.5118(6)
O3E O 1.21883(24) 0.48762(16) 0.5118(6)
O4I O 1.06140(19) 0.5506(2) -0.1673(7)
O4M O 0.7827(2) 0.17747(28) -0.5006(7)
O4D O 1.2173(2) 0.82253(28) 0.5006(7)
O4N O 0.82253(28) 0.60527(19) -0.5006(7)
O4E O 1.17747(28) 0.39473(19) 0.5006(7)
O4G O 0.8839(2) 0.15587(28) -0.1660(7)
O4P O 1.1161(2) 0.84413(28) 0.1660(7)
O5C O 1.3334 0.6666 -0.3334
O5_2 O 0.6667 0.3333 -0.6667
O5C_2 O 1.3334 0.6666 0.6666
O6M O 0.67447(14) 0.25089(21) 0.2210(5)
O6N O 0.74911(21) 0.42359(15) 0.2210(5)
O6I O 1.24308(15) 0.65886(14) -0.4457(5)
O6D O 1.32553(14) 0.74911(21) -0.2210(5)
O6E O 1.25089(21) 0.57641(15) -0.2210(5)
O6_2 O 0.75692(15) 0.34114(14) -0.5543(5)
O6A O 0.65886(14) 0.41578(21) -0.5543(5)
O6N_2 O 0.74911(21) 0.42359(15) -0.7790(5)
O6E_2 O 1.25089(21) 0.57641(15) 0.7790(5)
O6I_2 O 1.24308(15) 0.65886(14) 0.5543(5)
O6J O 1.34114(14) 0.58422(21) 0.5543(5)
O6B O 0.58422(21) 0.24308(15) -0.5543(5)
O6M_2 O 0.67447(14) 0.25089(21) -0.7790(5)
O6D_2 O 1.32553(14) 0.74911(21) 0.7790(5)
O6K O 1.41578(21) 0.75692(15) 0.5543(5)
H3M H 0.6791 0.2242 0.1874
H3N H 0.7758 0.4550 0.1874
H3I H 1.2117 0.6542 -0.4793
H3D H 1.3209 0.7758 -0.1874
H3E H 1.2242 0.5450 -0.1874
H3_2 H 0.7883 0.3458 -0.5207
H3A H 0.6542 0.4425 -0.5207
H3N_2 H 0.7758 0.4550 -0.8126
H3E_2 H 1.2242 0.5450 0.8126
H3I_2 H 1.2117 0.6542 0.5207
H3J H 1.3458 0.5575 0.5207
H3B H 0.5575 0.2117 -0.5207
H3M_2 H 0.6791 0.2242 -0.8126
H3D_2 H 1.3209 0.7758 0.8126
H3K H 1.4425 0.7883 0.5207
N1I N 1.15685(19) 0.5413(2) 0.3853(7)
N1M N 0.7920(2) 0.28222(28) 0.0520(7)
N1D N 1.2080(2) 0.71778(28) -0.0520(7)
N1N N 0.71778(28) 0.50982(19) 0.0520(7)
N1E N 1.28222(28) 0.49018(19) -0.0520(7)
N1B N 0.61555(28) 0.15685(19) -0.3853(7)
N1K N 1.38445(28) 0.84315(19) 0.3853(7)
N2I N 1.0615(2) 0.5126(3) 0.1773(8)
N2M N 0.8207(3) 0.2156(4) -0.1560(8)
N2D N 1.1793(3) 0.7844(4) 0.1560(8)
N2N N 0.7844(4) 0.6052(2) -0.1560(8)
N2E N 1.2156(4) 0.3948(2) 0.1560(8)
N2G N 0.8459(3) 0.1178(4) -0.5106(8)
N2P N 1.1541(3) 0.8822(4) 0.5106(8)
C1I C 1.1622(2) 0.5658(2) 0.2103(8)
C1M C 0.7675(2) 0.2631(3) -0.1230(8)
C1D C 1.2325(2) 0.7369(3) 0.1230(8)
C1N C 0.7369(3) 0.5045(2) -0.1230(8)
C1E C 1.2631(3) 0.4955(2) 0.1230(8)
C2I C 1.1120(2) 0.5493(3) 0.1031(8)
C2M C 0.7840(3) 0.2294(4) -0.2302(8)
C2D C 1.2160(3) 0.7706(4) 0.2302(8)
C2N C 0.7706(4) 0.5547(2) -0.2302(8)
C2E C 1.2294(4) 0.4453(2) 0.2302(8)
C3I C 1.0580(3) 0.4905(3) 0.3500(10)
C3M C 0.8428(3) 0.2342(4) 0.0167(10)
C3D C 1.1572(3) 0.7658(4) -0.0167(10)
C3N C 0.7658(4) 0.6087(3) 0.0167(10)
C3E C 1.2342(4) 0.3913(3) -0.0167(10)
H4I H 1.0229 0.4652 0.4017
H4M H 0.8681 0.2244 0.0684
H4D H 1.1319 0.7756 -0.0684
H4N H 0.7756 0.6438 0.0684
H4E H 1.2244 0.3562 -0.0684
C4I C 1.1066(3) 0.5053(3) 0.4530(9)
C4M C 0.8280(3) 0.2680(4) 0.1197(9)
C4D C 1.1720(3) 0.7320(4) -0.1197(9)
C4N C 0.7320(4) 0.5601(3) 0.1197(9)
C4E C 1.2680(4) 0.4399(3) -0.1197(9)
H5I H 1.1037 0.4893 0.5734
H5M H 0.8440 0.2811 0.2401
H5D H 1.1560 0.7189 -0.2401
H5N H 0.7189 0.5630 0.2401
H5E H 1.2811 0.4370 -0.2401
C5I C 1.1104(2) 0.5695(3) -0.0954(8)
C5M C 0.7638(3) 0.2076(4) -0.4287(8)
C5D C 1.2362(3) 0.7924(4) 0.4287(8)
C5N C 0.7924(4) 0.5563(2) -0.4287(8)
C5E C 1.2076(4) 0.4437(2) 0.4287(8)
O7I O 1.3333 0.6667 -0.0159(15)
O7N O 0.6667 0.3334 -0.3492(15)
O7E O 1.3333 0.6666 0.3492(15)
O2 O 0.8707(4) 0.3548(4) 0.5347(11)
H1 H 0.880(7) 0.384(3) 0.475(15)
H2 H 0.861(7) 0.360(5) 0.642(9)
O8 O 0.9971(10) 0.5836(7) -0.825(3)
H6? H 0.6667 0.3333 -0.1063
O9? O 1.0082(6) 0.6234(8) -0.835(3)
loop_
_geom_bond_atom_site_label_1
_geom_bond_atom_site_label_2
_geom_bond_site_symmetry_1
_geom_bond_site_symmetry_2
Er1 O1 1_555 1_555
Cu1 O4 1_555 1_555
O1 C1 1_555 1_555
O2 H1 1_555 1_555
H2 O2 1_555 1_555
O3 Er1 1_555 1_555
O4 C5 1_555 1_555
O5 Er1 1_555 1_555
O6 Er1 1_555 1_555
H3 O6 1_555 1_555
N1 C1 1_555 1_555
N2 Cu1 1_555 1_555
C1 C2 1_555 1_555
C2 N2 1_555 1_555
C3 N2 1_555 1_555
H4 C3 1_555 1_555
C4 N1 1_555 1_555
H5 C4 1_555 1_555
C5 O3 1_555 1_555
O7 Er1 1_555 1_555
Er1I O1I 1_555 1_555
Er1N O1 1_555 1_555
Er1E O1I 1_555 1_555
Er1M O1M 1_555 1_555
Er1D O1D 1_555 1_555
Er1A O5 1_555 1_555
Er1B O5 1_555 1_555
Er1L O5 1_555 1_555
Er1M_2 O5 1_555 1_555
Er1N_2 O5 1_555 1_555
Er1D_2 O5C 1_555 1_555
Er1E_2 O5C 1_555 1_555
Er1K O1K 1_555 1_555
Er1J O1E 1_555 1_555
Er1L_2 O5_2 1_555 1_555
Er1C O5C_2 1_555 1_555
Cu1M O4M 1_555 1_555
Cu1D O4D 1_555 1_555
Cu1N O4N 1_555 1_555
Cu1E O4E 1_555 1_555
O1I C1I 1_555 1_555
O1M Er1 1_555 1_555
O1D Er1I 1_555 1_555
O1N Er1N 1_555 1_555
O1E Er1E 1_555 1_555
O1B Er1M 1_555 1_555
O1K Er1D 1_555 1_555
O3I Er1I 1_555 1_555
O3M Er1M 1_555 1_555
O3D Er1D 1_555 1_555
O3N Er1N 1_555 1_555
O3E Er1E 1_555 1_555
O4I Cu1 1_555 1_555
O4M C5M 1_555 1_555
O4D C5D 1_555 1_555
O4N C5N 1_555 1_555
O4E C5E 1_555 1_555
O4G Cu1M 1_555 1_555
O4P Cu1D 1_555 1_555
O5C Er1I 1_555 1_555
O5_2 Er1N 1_555 1_555
O5C_2 Er1E 1_555 1_555
O6M Er1 1_555 1_555
O6N Er1 1_555 1_555
O6I Er1I 1_555 1_555
O6D Er1I 1_555 1_555
O6E Er1I 1_555 1_555
O6_2 Er1N 1_555 1_555
O6A Er1N 1_555 1_555
O6N_2 Er1N 1_555 1_555
O6E_2 Er1E 1_555 1_555
O6I_2 Er1E 1_555 1_555
O6J Er1E 1_555 1_555
O6B Er1M 1_555 1_555
O6M_2 Er1M 1_555 1_555
O6D_2 Er1D 1_555 1_555
O6K Er1D 1_555 1_555
H3M O6M 1_555 1_555
H3N O6N 1_555 1_555
H3I O6I 1_555 1_555
H3D O6D 1_555 1_555
H3E O6E 1_555 1_555
H3_2 O6_2 1_555 1_555
H3A O6A 1_555 1_555
H3N_2 O6N_2 1_555 1_555
H3E_2 O6E_2 1_555 1_555
H3I_2 O6I_2 1_555 1_555
H3J O6J 1_555 1_555
H3B O6B 1_555 1_555
H3M_2 O6M_2 1_555 1_555
H3D_2 O6D_2 1_555 1_555
H3K O6K 1_555 1_555
N1I Er1E 1_555 1_555
N1M Er1 1_555 1_555
N1D Er1I 1_555 1_555
N1N Er1A 1_555 1_555
N1E Er1J 1_555 1_555
N1B Er1M 1_555 1_555
N1K Er1D 1_555 1_555
N2I Cu1 1_555 1_555
N2M Cu1M 1_555 1_555
N2D Cu1D 1_555 1_555
N2N Cu1N 1_555 1_555
N2E Cu1E 1_555 1_555
N2G Cu1M 1_555 1_555
N2P Cu1D 1_555 1_555
C1I N1I 1_555 1_555
C1M O1M 1_555 1_555
C1D O1D 1_555 1_555
C1N O1N 1_555 1_555
C1E O1E 1_555 1_555
C2I N2I 1_555 1_555
C2M N2M 1_555 1_555
C2D N2D 1_555 1_555
C2N N2N 1_555 1_555
C2E N2E 1_555 1_555
C3I N2I 1_555 1_555
C3M N2M 1_555 1_555
C3D N2D 1_555 1_555
C3N N2N 1_555 1_555
C3E N2E 1_555 1_555
H4I C3I 1_555 1_555
H4M C3M 1_555 1_555
H4D C3D 1_555 1_555
H4N C3N 1_555 1_555
H4E C3E 1_555 1_555
C4I N1I 1_555 1_555
C4M N1M 1_555 1_555
C4D N1D 1_555 1_555
C4N N1N 1_555 1_555
C4E N1E 1_555 1_555
H5I C4I 1_555 1_555
H5M C4M 1_555 1_555
H5D C4D 1_555 1_555
H5N C4N 1_555 1_555
H5E C4E 1_555 1_555
C5I O3I 1_555 1_555
C5M O3M 1_555 1_555
C5D O3D 1_555 1_555
C5N O3N 1_555 1_555
C5E O3E 1_555 1_555
O7I Er1I 1_555 1_555
O7N Er1N 1_555 1_555
O7E Er1E 1_555 1_555
O6 Er1M_2 1_555 1_555
O6 Er1N_2 1_555 1_555
N1 Er1N 1_555 1_555
C2 C5 1_555 1_555
C3 C4 1_555 1_555
O7 Er1A 1_555 1_555
O7 Er1B 1_555 1_555
Er1M O5_2 1_555 1_555
Er1M O6_2 1_555 1_555
Er1M O7N 1_555 1_555
Er1D O5C_2 1_555 1_555
Er1D O6I_2 1_555 1_555
Er1D O7E 1_555 1_555
Er1A O1N 1_555 1_555
Er1A O6N 1_555 1_555
Er1B O1B 1_555 1_555
Er1B O6M 1_555 1_555
Er1M_2 O6M 1_555 1_555
Er1N_2 O6N 1_555 1_555
Er1D_2 O6I 1_555 1_555
Er1D_2 O6D 1_555 1_555
Er1E_2 O6I 1_555 1_555
Er1E_2 O6E 1_555 1_555
Er1K O5C 1_555 1_555
Er1K O6D 1_555 1_555
Er1K O7I 1_555 1_555
Er1J O5C 1_555 1_555
Er1J O6E 1_555 1_555
Er1J O7I 1_555 1_555
Er1L_2 O6A 1_555 1_555
Er1L_2 O6B 1_555 1_555
Er1L_2 O7N 1_555 1_555
Er1C O6J 1_555 1_555
Er1C O6K 1_555 1_555
Er1C O7E 1_555 1_555
O4I C5I 1_555 1_555
N1M C1M 1_555 1_555
N1D C1D 1_555 1_555
N1N C1N 1_555 1_555
N1E C1E 1_555 1_555
C1I C2I 1_555 1_555
C1M C2M 1_555 1_555
C1D C2D 1_555 1_555
C1N C2N 1_555 1_555
C1E C2E 1_555 1_555
C2I C5I 1_555 1_555
C2M C5M 1_555 1_555
C2D C5D 1_555 1_555
C2N C5N 1_555 1_555
C2E C5E 1_555 1_555
C3I C4I 1_555 1_555
C3M C4M 1_555 1_555
C3D C4D 1_555 1_555
C3N C4N 1_555 1_555
C3E C4E 1_555 1_555

#END
