
#######################################################################
#
#                 Cambridge Crystallographic Data Centre
#                                CCDC 
#
#######################################################################
#
# If this CIF has been generated from an entry in the Cambridge 
# Structural Database, then it will include bibliographic, chemical, 
# crystal, experimental, refinement or atomic coordinate data resulting 
# from the CCDC's data processing and validation procedures.
#
#######################################################################

data_UFEYUA
_symmetry_cell_setting           monoclinic
_symmetry_space_group_name_H-M   'C 2/c'
_symmetry_Int_Tables_number      15
_space_group_name_Hall           '-C 2yn'
loop_
_symmetry_equiv_pos_site_id
_symmetry_equiv_pos_as_xyz
1 x,y,z
2 1/2+x,1/2+y,z
3 -x,y,1/2-z
4 1/2-x,1/2+y,1/2-z
5 -x,-y,-z
6 1/2-x,1/2-y,-z
7 x,-y,1/2+z
8 1/2+x,1/2-y,1/2+z
_cell_length_a                   13.4043(4)
_cell_length_b                   9.7710(4)
_cell_length_c                   10.3943(4)
_cell_angle_alpha                90
_cell_angle_beta                 109.6182(16)
_cell_angle_gamma                90
_cell_volume                     1282.35
loop_
_atom_site_label
_atom_site_type_symbol
_atom_site_fract_x
_atom_site_fract_y
_atom_site_fract_z
Na1 Na 1.0000 1.11071(8) 0.7500
C1 C 0.86617(12) 0.82561(17) 0.79916(15)
H1 H 0.8867 0.7877 0.7277
C2 C 0.81200(11) 0.74193(16) 0.85867(14)
H2 H 0.7970 0.6502 0.8279
C3 C 0.80380(11) 0.93086(16) 0.99973(14)
H3 H 0.7826 0.9734 1.0686
C4 C 0.85865(13) 1.00482(16) 0.93438(15)
H4 H 0.8742 1.0974 0.9617
N1 N 0.89294(10) 0.95759(14) 0.83345(13)
C5 C 0.77774(10) 0.79110(16) 0.96655(13)
N2 N 1.04908(10) 1.31930(14) 0.64423(12)
H5 H 1.1213 1.3315 0.6776
H6 H 1.0289 1.3082 0.5511
C6 C 0.99633(12) 1.43942(17) 0.67604(15)
H7 H 0.9209 1.4396 0.6173
H8 H 1.0297 1.5236 0.6563
Na1G Na 0.5000 0.38929(8) 1.2500
C1E C 0.63383(12) 0.67439(17) 1.20084(15)
H1E H 0.6133 0.7123 1.2723
C2E C 0.68800(11) 0.75807(16) 1.14133(14)
H2E H 0.7030 0.8498 1.1721
C3E C 0.69620(11) 0.56914(16) 1.00027(14)
H3E H 0.7174 0.5266 0.9314
C4E C 0.64135(13) 0.49518(16) 1.06562(15)
H4E H 0.6258 0.4026 1.0383
N1E N 0.60706(10) 0.54241(14) 1.16655(13)
N1B N 1.10706(10) 0.95759(14) 0.66655(13)
C5E C 0.72226(10) 0.70890(16) 1.03345(13)
N2B N 0.95092(10) 1.31930(14) 0.85577(12)
H5B H 0.8787 1.3315 0.8224
H6B H 0.9711 1.3082 0.9489
C6B C 1.00367(12) 1.43942(17) 0.82396(15)
H7B H 1.0791 1.4396 0.8827
H8B H 0.9703 1.5236 0.8437
loop_
_geom_bond_atom_site_label_1
_geom_bond_atom_site_label_2
_geom_bond_site_symmetry_1
_geom_bond_site_symmetry_2
Na1 N1 1_555 1_555
C1 H1 1_555 1_555
C2 C1 1_555 1_555
H2 C2 1_555 1_555
C3 H3 1_555 1_555
C4 C3 1_555 1_555
H4 C4 1_555 1_555
N1 C1 1_555 1_555
C5 C2 1_555 1_555
N2 Na1 1_555 1_555
H5 N2 1_555 1_555
H6 N2 1_555 1_555
C6 N2 1_555 1_555
H7 C6 1_555 1_555
H8 C6 1_555 1_555
Na1G N1E 1_555 1_555
C1E H1E 1_555 1_555
C2E C1E 1_555 1_555
H2E C2E 1_555 1_555
C3E H3E 1_555 1_555
C4E C3E 1_555 1_555
H4E C4E 1_555 1_555
N1E C1E 1_555 1_555
N1B Na1 1_555 1_555
C5E C5 1_555 1_555
N2B Na1 1_555 1_555
H5B N2B 1_555 1_555
H6B N2B 1_555 1_555
C6B C6 1_555 1_555
H7B C6B 1_555 1_555
H8B C6B 1_555 1_555
C3 C5 1_555 1_555
C4 N1 1_555 1_555
C2E C5E 1_555 1_555
C3E C5E 1_555 1_555
C4E N1E 1_555 1_555
N2B C6B 1_555 1_555

#END
