
#######################################################################
#
#                 Cambridge Crystallographic Data Centre
#                                CCDC 
#
#######################################################################
#
# If this CIF has been generated from an entry in the Cambridge 
# Structural Database, then it will include bibliographic, chemical, 
# crystal, experimental, refinement or atomic coordinate data resulting 
# from the CCDC's data processing and validation procedures.
#
#######################################################################

data_UFEZAH
_symmetry_cell_setting           orthorhombic
_symmetry_space_group_name_H-M   'P n m a'
_symmetry_Int_Tables_number      62
_space_group_name_Hall           '-P 2ac 2n'
loop_
_symmetry_equiv_pos_site_id
_symmetry_equiv_pos_as_xyz
1 x,y,z
2 1/2-x,-y,1/2+z
3 -x,1/2+y,-z
4 1/2+x,1/2-y,1/2-z
5 -x,-y,-z
6 1/2+x,y,1/2-z
7 x,1/2-y,z
8 1/2-x,1/2+y,1/2+z
_cell_length_a                   15.18440(40)
_cell_length_b                   13.07700(29)
_cell_length_c                   8.34570(20)
_cell_angle_alpha                90
_cell_angle_beta                 90
_cell_angle_gamma                90
_cell_volume                     1657.18
loop_
_atom_site_label
_atom_site_type_symbol
_atom_site_fract_x
_atom_site_fract_y
_atom_site_fract_z
Na1 Na 0.34237(6) 0.2500 -0.18739(10)
Na2 Na 0.13317(6) 0.2500 1.16665(9)
N1 N 0.13385(13) 0.2500 0.8824(2)
N2 N 0.42211(9) 0.12758(9) -0.35820(15)
H1 H 0.4063 0.1421 -0.4621
H2 H 0.4809 0.1434 -0.3492
N3 N 0.34413(12) 0.2500 0.0954(2)
N4 N 0.45107(9) -0.12871(10) -0.16560(16)
H3 H 0.4337 -0.1409 -0.0617
H4 H 0.5089 -0.1492 -0.1722
C1 C 0.15627(10) 0.16265(13) 0.79952(17)
H5 H 0.1437 0.0993 0.8504
C2 C 0.41536(12) 0.01618(12) -0.34026(19)
H6 H 0.4479 -0.0177 -0.4283
H7 H 0.3528 -0.0046 -0.3476
C3 C 0.19470(9) 0.15767(12) 0.65186(17)
H8 H 0.2069 0.0926 0.6063
C4 C 0.45199(14) -0.01715(12) -0.1840(2)
H9 H 0.5133 0.0078 -0.1744
H10 H 0.4172 0.0141 -0.0965
C5 C 0.21752(13) 0.2500 0.5621(2)
C6 C 0.25805(13) 0.2500 0.4136(2)
C7 C 0.28134(9) 0.15738(11) 0.32394(16)
H11 H 0.2686 0.0923 0.3689
C8 C 0.32082(10) 0.16267(12) 0.17744(17)
H12 H 0.3336 0.0994 0.1265
Na2A Na 0.36683(6) -0.2500 -0.33335(9)
Na2A_2 Na 0.36683(6) 0.7500 -0.33335(9)
N2F N 0.42211(9) 0.37242(9) -0.35820(15)
H1F H 0.4063 0.3579 -0.4621
H2F H 0.4809 0.3566 -0.3492
N4F N 0.45107(9) 0.62871(10) -0.16560(16)
N4G N 0.04893(9) 0.37129(10) 1.33440(16)
N4A N 0.04893(9) 0.12871(10) 1.33440(16)
H3F H 0.4337 0.6409 -0.0617
H3G H 0.0663 0.3591 1.4383
H3A H 0.0663 0.1409 1.4383
H4F H 0.5089 0.6492 -0.1722
H4G H -0.0089 0.3508 1.3278
H4A H -0.0089 0.1492 1.3278
C1F C 0.15627(10) 0.33735(13) 0.79952(17)
H5F H 0.1437 0.4007 0.8504
C2F C 0.41536(12) 0.48382(12) -0.34026(19)
H6F H 0.4479 0.5177 -0.4283
H7F H 0.3528 0.5046 -0.3476
C3F C 0.19470(9) 0.34233(12) 0.65186(17)
H8F H 0.2069 0.4074 0.6063
C4F C 0.45199(14) 0.51715(12) -0.1840(2)
H9F H 0.5133 0.4922 -0.1744
H10F H 0.4172 0.4859 -0.0965
C7F C 0.28134(9) 0.34262(11) 0.32394(16)
H11F H 0.2686 0.4077 0.3689
C8F C 0.32082(10) 0.33733(12) 0.17744(17)
H12F H 0.3336 0.4006 0.1265
loop_
_geom_bond_atom_site_label_1
_geom_bond_atom_site_label_2
_geom_bond_site_symmetry_1
_geom_bond_site_symmetry_2
Na1 N2 1_555 1_555
Na2 N1 1_555 1_555
N1 C1 1_555 1_555
N2 H1 1_555 1_555
H2 N2 1_555 1_555
N3 Na1 1_555 1_555
N4 H3 1_555 1_555
H4 N4 1_555 1_555
C1 H5 1_555 1_555
C2 N2 1_555 1_555
H6 C2 1_555 1_555
H7 C2 1_555 1_555
C3 C1 1_555 1_555
H8 C3 1_555 1_555
C4 N4 1_555 1_555
H9 C4 1_555 1_555
H10 C4 1_555 1_555
C5 C3 1_555 1_555
C6 C5 1_555 1_555
C7 C6 1_555 1_555
H11 C7 1_555 1_555
C8 N3 1_555 1_555
H12 C8 1_555 1_555
Na2A N4 1_555 1_555
Na2A_2 N4F 1_555 1_555
N2F Na1 1_555 1_555
H1F N2F 1_555 1_555
H2F N2F 1_555 1_555
N4F H3F 1_555 1_555
N4G Na2 1_555 1_555
N4A Na2 1_555 1_555
H3G N4G 1_555 1_555
H3A N4A 1_555 1_555
H4F N4F 1_555 1_555
H4G N4G 1_555 1_555
H4A N4A 1_555 1_555
C1F N1 1_555 1_555
H5F C1F 1_555 1_555
C2F N2F 1_555 1_555
H6F C2F 1_555 1_555
H7F C2F 1_555 1_555
C3F C5 1_555 1_555
H8F C3F 1_555 1_555
C4F N4F 1_555 1_555
H9F C4F 1_555 1_555
H10F C4F 1_555 1_555
C7F C6 1_555 1_555
H11F C7F 1_555 1_555
C8F N3 1_555 1_555
H12F C8F 1_555 1_555
C2 C4 1_555 1_555
C7 C8 1_555 1_555
C1F C3F 1_555 1_555
C2F C4F 1_555 1_555
C7F C8F 1_555 1_555

#END
