
#######################################################################
#
#                 Cambridge Crystallographic Data Centre
#                                CCDC 
#
#######################################################################
#
# If this CIF has been generated from an entry in the Cambridge 
# Structural Database, then it will include bibliographic, chemical, 
# crystal, experimental, refinement or atomic coordinate data resulting 
# from the CCDC's data processing and validation procedures.
#
#######################################################################

data_UFIDUJ
_symmetry_cell_setting           triclinic
_symmetry_space_group_name_H-M   'P -1'
_symmetry_Int_Tables_number      2
_space_group_name_Hall           '-P 1'
loop_
_symmetry_equiv_pos_site_id
_symmetry_equiv_pos_as_xyz
1 x,y,z
2 -x,-y,-z
_cell_length_a                   6.5950(4)
_cell_length_b                   7.7044(4)
_cell_length_c                   14.1038(8)
_cell_angle_alpha                75.446(3)
_cell_angle_beta                 83.563(4)
_cell_angle_gamma                84.134(3)
_cell_volume                     687.208
loop_
_atom_site_label
_atom_site_type_symbol
_atom_site_fract_x
_atom_site_fract_y
_atom_site_fract_z
Ru1 Ru 1.0000 1.0000 0.0000
Cl1 Cl 0.79499(8) 0.83430(7) -0.06628(4)
Cl2 Cl 1.23029(8) 0.74609(7) 0.04794(4)
N1 N 0.8244(3) 0.9335(3) 0.13306(14)
N2 N 0.6365(3) 0.8697(3) 0.14236(14)
H1 H 0.5760 0.8512 0.0936
C1 C 0.8632(4) 0.9446(3) 0.22168(17)
H2 H 0.9843 0.9862 0.2360
C2 C 0.6983(4) 0.8856(3) 0.29142(17)
C3 C 0.6535(4) 0.8679(4) 0.39352(19)
H3 H 0.7473 0.9006 0.4313
C4 C 0.4709(4) 0.8022(4) 0.43681(19)
H4 H 0.4388 0.7879 0.5056
C5 C 0.3304(4) 0.7557(4) 0.38092(19)
H5 H 0.2051 0.7113 0.4133
C6 C 0.3676(4) 0.7720(3) 0.28129(18)
H6 H 0.2719 0.7402 0.2442
C7 C 0.5552(4) 0.8385(3) 0.23746(16)
Na1 Na 1.0000 0.5000 0.0000
O1 O 0.8516(3) 0.4593(3) 0.15991(14)
O2 O 0.7191(3) 0.3747(3) 0.31539(14)
C8 C 1.0527(5) 0.2723(5) 0.3726(2)
H7 H 1.1723 0.3110 0.3948
H8 H 1.0946 0.2269 0.3138
H9 H 0.9935 0.1766 0.4248
C9 C 0.8961(5) 0.4290(4) 0.3485(2)
H10 H 0.8547 0.4758 0.4077
H11 H 0.9564 0.5266 0.2965
C10 C 0.7140(4) 0.3971(3) 0.21803(18)
C11 C 0.5223(4) 0.3410(4) 0.1933(2)
H12 H 0.5332 0.3433 0.1232
H13 H 0.4072 0.4238 0.2083
H14 H 0.4996 0.2189 0.2323
Cl1A Cl 1.20501(8) 0.16570(7) 0.06628(4)
Cl1A_2 Cl 1.20501(8) 1.16570(7) 0.06628(4)
Cl2A Cl 0.76971(8) 0.25391(7) -0.04794(4)
Cl2A_2 Cl 0.76971(8) 1.25391(7) -0.04794(4)
N1A N 1.1756(3) 1.0665(3) -0.13306(14)
N2A N 1.3635(3) 1.1303(3) -0.14236(14)
H1A H 1.4240 1.1488 -0.0936
C1A C 1.1368(4) 1.0554(3) -0.22168(17)
H2A H 1.0157 1.0138 -0.2360
C2A C 1.3017(4) 1.1144(3) -0.29142(17)
C3A C 1.3465(4) 1.1321(4) -0.39352(19)
H3A H 1.2527 1.0994 -0.4313
C4A C 1.5291(4) 1.1978(4) -0.43681(19)
H4A H 1.5612 1.2121 -0.5056
C5A C 1.6696(4) 1.2443(4) -0.38092(19)
H5A H 1.7949 1.2887 -0.4133
C6A C 1.6324(4) 1.2280(3) -0.28129(18)
H6A H 1.7281 1.2598 -0.2442
C7A C 1.4448(4) 1.1615(3) -0.23746(16)
Na1_2 Na 1.0000 1.5000 0.0000
O1A O 1.1484(3) 0.5407(3) -0.15991(14)
O2A O 1.2809(3) 0.6253(3) -0.31539(14)
C8A C 0.9473(5) 0.7277(5) -0.3726(2)
H7A H 0.8277 0.6890 -0.3948
H8A H 0.9054 0.7731 -0.3138
H9A H 1.0065 0.8234 -0.4248
C9A C 1.1039(5) 0.5710(4) -0.3485(2)
H10A H 1.1453 0.5242 -0.4077
H11A H 1.0436 0.4734 -0.2965
C10A C 1.2860(4) 0.6029(3) -0.21803(18)
C11A C 1.4777(4) 0.6590(4) -0.1933(2)
H12A H 1.4668 0.6567 -0.1232
H13A H 1.5928 0.5762 -0.2083
H14A H 1.5004 0.7811 -0.2323
loop_
_geom_bond_atom_site_label_1
_geom_bond_atom_site_label_2
_geom_bond_site_symmetry_1
_geom_bond_site_symmetry_2
Ru1 Cl1 1_555 1_555
Cl1 Na1 1_555 1_555
Cl2 Ru1 1_555 1_555
N1 Ru1 1_555 1_555
N2 N1 1_555 1_555
H1 N2 1_555 1_555
C1 N1 1_555 1_555
H2 C1 1_555 1_555
C2 C1 1_555 1_555
C3 C2 1_555 1_555
H3 C3 1_555 1_555
C4 C3 1_555 1_555
H4 C4 1_555 1_555
C5 C4 1_555 1_555
H5 C5 1_555 1_555
C6 C5 1_555 1_555
H6 C6 1_555 1_555
C7 N2 1_555 1_555
Na1 Cl2 1_555 1_555
O1 Na1 1_555 1_555
O2 C9 1_555 1_555
C8 H7 1_555 1_555
H8 C8 1_555 1_555
H9 C8 1_555 1_555
C9 C8 1_555 1_555
H10 C9 1_555 1_555
H11 C9 1_555 1_555
C10 O1 1_555 1_555
C11 C10 1_555 1_555
H12 C11 1_555 1_555
H13 C11 1_555 1_555
H14 C11 1_555 1_555
Cl1A Na1 1_555 1_555
Cl1A_2 Ru1 1_555 1_555
Cl2A Na1 1_555 1_555
Cl2A_2 Ru1 1_555 1_555
N1A Ru1 1_555 1_555
N2A N1A 1_555 1_555
H1A N2A 1_555 1_555
C1A N1A 1_555 1_555
H2A C1A 1_555 1_555
C2A C1A 1_555 1_555
C3A C2A 1_555 1_555
H3A C3A 1_555 1_555
C4A C3A 1_555 1_555
H4A C4A 1_555 1_555
C5A C4A 1_555 1_555
H5A C5A 1_555 1_555
C6A C5A 1_555 1_555
H6A C6A 1_555 1_555
C7A N2A 1_555 1_555
Na1_2 Cl1A_2 1_555 1_555
O1A Na1 1_555 1_555
O2A C9A 1_555 1_555
C8A H7A 1_555 1_555
H8A C8A 1_555 1_555
H9A C8A 1_555 1_555
C9A C8A 1_555 1_555
H10A C9A 1_555 1_555
H11A C9A 1_555 1_555
C10A O1A 1_555 1_555
C11A C10A 1_555 1_555
H12A C11A 1_555 1_555
H13A C11A 1_555 1_555
H14A C11A 1_555 1_555
C2 C7 1_555 1_555
C6 C7 1_555 1_555
O2 C10 1_555 1_555
Cl2A_2 Na1_2 1_555 1_555
C2A C7A 1_555 1_555
C6A C7A 1_555 1_555
O2A C10A 1_555 1_555

#END
