
#######################################################################
#
#                 Cambridge Crystallographic Data Centre
#                                CCDC 
#
#######################################################################
#
# If this CIF has been generated from an entry in the Cambridge 
# Structural Database, then it will include bibliographic, chemical, 
# crystal, experimental, refinement or atomic coordinate data resulting 
# from the CCDC's data processing and validation procedures.
#
#######################################################################

data_UFIJIE
_symmetry_cell_setting           triclinic
_symmetry_space_group_name_H-M   'P -1'
_symmetry_Int_Tables_number      2
_space_group_name_Hall           '-P 1'
loop_
_symmetry_equiv_pos_site_id
_symmetry_equiv_pos_as_xyz
1 x,y,z
2 -x,-y,-z
_cell_length_a                   7.3438(4)
_cell_length_b                   10.3247(4)
_cell_length_c                   11.6813(5)
_cell_angle_alpha                76.285(3)
_cell_angle_beta                 80.914(4)
_cell_angle_gamma                87.551(4)
_cell_volume                     849.642
loop_
_atom_site_label
_atom_site_type_symbol
_atom_site_fract_x
_atom_site_fract_y
_atom_site_fract_z
H1 H -0.005(6) -0.328(2) 0.317(4)
H2 H -0.042(5) -0.464(3) 0.292(3)
H3 H 0.424(7) -0.675(3) 0.192(5)
H4 H 0.582(3) -0.583(5) 0.189(5)
C1 C -0.2752(3) 0.0249(2) 0.02084(18)
C2 C -0.0967(3) 0.02513(19) -0.16048(17)
C3 C -0.1660(3) -0.1849(2) -0.02003(18)
C4 C 0.4247(3) -0.2329(2) 0.39817(18)
C5 C 0.2448(3) -0.23534(19) 0.57947(18)
C6 C 0.3116(3) -0.02475(19) 0.43984(18)
N1 N -0.1916(3) 0.09293(16) -0.08616(15)
N2 N -0.2552(3) -0.11202(16) 0.05271(14)
H5 H -0.3027 -0.1531 0.1235
N3 N -0.0890(3) -0.11250(17) -0.12754(15)
H6 H -0.0320 -0.1543 -0.1783
N4 N 0.2290(3) -0.09928(17) 0.54602(16)
H7 H 0.1634 -0.0589 0.5948
N5 N 0.3416(3) -0.30274(17) 0.50441(15)
N6 N 0.4124(3) -0.09611(16) 0.36902(15)
H8 H 0.4721 -0.0537 0.3022
O1 O 0.0249(3) -0.4184(2) 0.3290(2)
O2 O 0.4544(4) -0.5896(2) 0.1940(3)
S1 S 0.28767(9) 0.13937(5) 0.39848(5)
S2 S -0.15064(10) -0.35131(5) 0.02006(5)
S3 S 0.54659(8) -0.31142(5) 0.29911(5)
S4 S -0.39971(8) 0.10147(5) 0.11941(5)
S5 S 0.02003(8) 0.10104(5) -0.29410(4)
S6 S 0.13869(9) -0.31374(5) 0.71580(5)
K1 K 0.27654(8) -0.56072(5) 0.45153(5)
K2 K 0.28763(11) -0.36797(6) 0.08889(6)
N1A N 0.1916(3) -0.09293(16) 0.08616(15)
N5A N 0.6584(3) -0.69726(17) 0.49559(15)
O1A O -0.0249(3) -0.5816(2) 0.6710(2)
S1_2 S 0.28767(9) -0.86063(5) 0.39848(5)
S2A S 0.15064(10) -0.64869(5) -0.02006(5)
S3A S 0.45341(8) -0.68858(5) 0.70089(5)
S4A S 0.39971(8) -0.10147(5) -0.11941(5)
K1_2 K 0.27654(8) 0.43928(5) 0.45153(5)
K1A K -0.27654(8) -0.43928(5) 0.54847(5)
K1A_2 K 0.72346(8) -0.43928(5) 0.54847(5)
K2A K -0.28763(11) -0.63203(6) -0.08889(6)
K2A_2 K -0.28763(11) 0.36797(6) -0.08889(6)
loop_
_geom_bond_atom_site_label_1
_geom_bond_atom_site_label_2
_geom_bond_site_symmetry_1
_geom_bond_site_symmetry_2
H1 O1 1_555 1_555
H2 O1 1_555 1_555
H3 O2 1_555 1_555
H4 O2 1_555 1_555
C1 N1 1_555 1_555
C2 N1 1_555 1_555
C3 N2 1_555 1_555
C4 N5 1_555 1_555
C5 N4 1_555 1_555
C6 N4 1_555 1_555
N1 K2A_2 1_555 1_555
N2 C1 1_555 1_555
H5 N2 1_555 1_555
N3 C2 1_555 1_555
H6 N3 1_555 1_555
N4 H7 1_555 1_555
N5 C5 1_555 1_555
N6 C4 1_555 1_555
H8 N6 1_555 1_555
O1 K1 1_555 1_555
O2 K1 1_555 1_555
S1 C6 1_555 1_555
S2 C3 1_555 1_555
S3 C4 1_555 1_555
S4 C1 1_555 1_555
S5 C2 1_555 1_555
S6 C5 1_555 1_555
K1 N5 1_555 1_555
K2 O1 1_555 1_555
N1A K2 1_555 1_555
N5A K1 1_555 1_555
O1A K1 1_555 1_555
S1_2 K1 1_555 1_555
S2A K2 1_555 1_555
S3A K1 1_555 1_555
S4A K2 1_555 1_555
K1_2 S1 1_555 1_555
K1A O1 1_555 1_555
K1A_2 N5 1_555 1_555
K2A S2 1_555 1_555
K2A_2 S4 1_555 1_555
C3 N3 1_555 1_555
C6 N6 1_555 1_555
O2 K2 1_555 1_555
S2 K2 1_555 1_555
S3 K1 1_555 1_555
S3 K2 1_555 1_555
S3 K1A_2 1_555 1_555
N5A K1A_2 1_555 1_555
O1A K1A 1_555 1_555
S2A K2A 1_555 1_555
S3A K1A_2 1_555 1_555

#END
