
#######################################################################
#
#                 Cambridge Crystallographic Data Centre
#                                CCDC 
#
#######################################################################
#
# If this CIF has been generated from an entry in the Cambridge 
# Structural Database, then it will include bibliographic, chemical, 
# crystal, experimental, refinement or atomic coordinate data resulting 
# from the CCDC's data processing and validation procedures.
#
#######################################################################

data_UFIKAX01
_symmetry_cell_setting           monoclinic
_symmetry_space_group_name_H-M   'C c'
_symmetry_Int_Tables_number      9
_space_group_name_Hall           'C -2yc'
loop_
_symmetry_equiv_pos_site_id
_symmetry_equiv_pos_as_xyz
1 x,y,z
2 x,-y,1/2+z
3 1/2+x,1/2+y,z
4 1/2+x,1/2-y,1/2+z
_cell_length_a                   5.41409(8)
_cell_length_b                   21.2829(3)
_cell_length_c                   14.9761(2)
_cell_angle_alpha                90
_cell_angle_beta                 92.3402(13)
_cell_angle_gamma                90
_cell_volume                     1724.22
loop_
_atom_site_label
_atom_site_type_symbol
_atom_site_fract_x
_atom_site_fract_y
_atom_site_fract_z
C1 C 1.7343(17) -0.2685(4) -0.3049(5)
C2 C 0.9070(14) -0.4561(3) -0.0077(4)
C3 C 1.1797(15) -0.4042(3) -0.0952(5)
C4 C 1.7465(13) -0.1558(3) -0.3012(5)
C5 C 1.4804(15) -0.2061(4) -0.2120(6)
C6 C 0.9029(16) -0.3429(3) -0.0098(5)
N1 N 1.5792(13) -0.1534(3) -0.2393(4)
N2 N 0.8157(12) -0.3992(3) 0.0186(4)
H1 H 0.6970 -0.3990 0.0550
N3 N 1.5553(16) -0.2633(3) -0.2454(5)
H2 H 1.4848 -0.2969 -0.2274
N4 N 1.0895(14) -0.3474(3) -0.0663(5)
H3 H 1.1553 -0.3134 -0.0851
N5 N 1.8253(13) -0.2120(3) -0.3327(5)
H4 H 1.9373 -0.2121 -0.3718
N6 N 1.0919(13) -0.4581(3) -0.0641(4)
S1 S 1.8636(4) -0.08899(8) -0.34535(14)
S2 S 1.4001(4) -0.40269(9) -0.17249(16)
S3 S 1.2575(4) -0.20699(9) -0.13576(15)
S4 S 0.7788(4) -0.52200(8) 0.03093(16)
S5 S 1.8299(6) -0.33710(10) -0.3448(2)
S6 S 0.7824(5) -0.27566(9) 0.02312(17)
Cs1 Cs 0.86302(7) -0.51206(2) -0.24038(4)
Cs2 Cs 0.77855(9) -0.11470(2) -0.02780(5)
N1_2 N 0.5792(13) -0.1534(3) -0.2393(4)
N1B N 1.0792(13) -0.6534(3) -0.2393(4)
N6B N 0.5919(13) 0.0419(3) -0.0641(4)
S1B S 0.3636(4) -0.58899(8) -0.34535(14)
S1B_2 S 1.3636(4) -0.58899(8) -0.34535(14)
S2_2 S 0.4001(4) -0.40269(9) -0.17249(16)
S3_2 S 0.2575(4) -0.20699(9) -0.13576(15)
S4A S 0.7788(4) -0.47800(8) -0.46907(16)
S4B S 0.2788(4) -0.02200(8) 0.03093(16)
S4B_2 S 1.2788(4) -0.02200(8) 0.03093(16)
S5_2 S 0.8299(6) -0.33710(10) -0.3448(2)
S5C S 0.3299(6) -0.16290(10) 0.1552(2)
Cs1_2 Cs 1.86302(7) -0.51206(2) -0.24038(4)
Cs1A Cs 0.86302(7) -0.48794(2) 0.25962(4)
Cs1B Cs 1.36302(7) -0.01206(2) -0.24038(4)
Cs1B_2 Cs 2.36302(7) -0.01206(2) -0.24038(4)
Cs2_2 Cs 1.77855(9) -0.11470(2) -0.02780(5)
Cs2B Cs 0.27855(9) -0.61470(2) -0.02780(5)
Cs2B_2 Cs 1.27855(9) -0.61470(2) -0.02780(5)
Cs2C Cs 2.27855(9) -0.38530(2) -0.52780(5)
loop_
_geom_bond_atom_site_label_1
_geom_bond_atom_site_label_2
_geom_bond_site_symmetry_1
_geom_bond_site_symmetry_2
C1 N3 1_555 1_555
C2 N2 1_555 1_555
C3 N4 1_555 1_555
C4 N1 1_555 1_555
C5 N1 1_555 1_555
C6 N2 1_555 1_555
N1 Cs1B 1_555 1_555
N2 H1 1_555 1_555
N3 C5 1_555 1_555
H2 N3 1_555 1_555
N4 C6 1_555 1_555
H3 N4 1_555 1_555
N5 C1 1_555 1_555
H4 N5 1_555 1_555
N6 C2 1_555 1_555
S1 C4 1_555 1_555
S2 C3 1_555 1_555
S3 C5 1_555 1_555
S4 C2 1_555 1_555
S5 C1 1_555 1_555
S6 C6 1_555 1_555
Cs1 N6 1_555 1_555
Cs2 S3 1_555 1_555
N1_2 Cs2 1_555 1_555
N1B Cs1 1_555 1_555
N6B Cs2 1_555 1_555
S1B Cs1 1_555 1_555
S1B_2 Cs1 1_555 1_555
S2_2 Cs1 1_555 1_555
S3_2 Cs2 1_555 1_555
S4A Cs1 1_555 1_555
S4B Cs2 1_555 1_555
S4B_2 Cs2 1_555 1_555
S5_2 Cs1 1_555 1_555
S5C Cs2 1_555 1_555
Cs1_2 S2 1_555 1_555
Cs1A S4 1_555 1_555
Cs1B S1 1_555 1_555
Cs1B_2 S1 1_555 1_555
Cs2_2 N1 1_555 1_555
Cs2B S4 1_555 1_555
Cs2B_2 N6 1_555 1_555
Cs2C S5 1_555 1_555
C3 N6 1_555 1_555
C4 N5 1_555 1_555
S2 Cs1 1_555 1_555
S3 Cs2_2 1_555 1_555
S4 Cs2B_2 1_555 1_555
S5 Cs1_2 1_555 1_555
S6 Cs2 1_555 1_555
N1B Cs2B_2 1_555 1_555
S1B_2 Cs1_2 1_555 1_555
S4B_2 Cs2_2 1_555 1_555

#END
