
#######################################################################
#
#                 Cambridge Crystallographic Data Centre
#                                CCDC 
#
#######################################################################
#
# If this CIF has been generated from an entry in the Cambridge 
# Structural Database, then it will include bibliographic, chemical, 
# crystal, experimental, refinement or atomic coordinate data resulting 
# from the CCDC's data processing and validation procedures.
#
#######################################################################

data_UFILAX
_symmetry_cell_setting           monoclinic
_symmetry_space_group_name_H-M   'P 21/c'
_symmetry_Int_Tables_number      14
_space_group_name_Hall           '-P 2ybc'
loop_
_symmetry_equiv_pos_site_id
_symmetry_equiv_pos_as_xyz
1 x,y,z
2 -x,1/2+y,1/2-z
3 -x,-y,-z
4 x,1/2-y,1/2+z
_cell_length_a                   14.1690(7)
_cell_length_b                   29.1810(17)
_cell_length_c                   12.3036(7)
_cell_angle_alpha                90
_cell_angle_beta                 107.161(2)
_cell_angle_gamma                90
_cell_volume                     4860.63
loop_
_atom_site_label
_atom_site_type_symbol
_atom_site_fract_x
_atom_site_fract_y
_atom_site_fract_z
S1 S -0.8286(3) 0.10700(12) 0.8151(3)
O3 O -0.7348(7) 0.0949(4) 0.8068(11)
O4 O -0.9105(9) 0.1019(4) 0.7149(10)
O5 O -0.8318(9) 0.1473(4) 0.8778(12)
C41 C -0.8563(14) 0.0631(6) 0.9005(17)
F1 F -0.8533(8) 0.0225(3) 0.8526(11)
F2 F -0.9427(9) 0.0657(4) 0.9128(14)
F3 F -0.7911(11) 0.0595(6) 1.0001(10)
Pd1 Pd -0.28211(5) 0.36122(2) -0.07442(6)
P1 P -0.26451(19) 0.42780(8) -0.1605(2)
P2 P -0.32302(19) 0.39167(8) 0.0770(2)
Fe1 Fe -0.21526(10) 0.49326(4) 0.07279(12)
N1 N -0.2602(6) 0.1782(2) 0.2918(6)
O1 O -0.3033(5) 0.29973(19) 0.0008(5)
O2 O -0.1411(5) 0.2857(2) 0.0458(6)
C1 C -0.2235(8) 0.2784(3) 0.0524(8)
C2 C -0.1703(8) 0.1882(3) 0.2821(8)
H1 H -0.1145 0.1737 0.3310
C3 C -0.1579(8) 0.2187(3) 0.2029(8)
H2 H -0.0943 0.2246 0.1971
C4 C -0.2387(7) 0.2410(3) 0.1316(8)
C5 C -0.3303(7) 0.2297(3) 0.1402(8)
H3 H -0.3871 0.2431 0.0907
C6 C -0.3393(8) 0.1986(3) 0.2210(8)
H4 H -0.4025 0.1916 0.2266
C7 C -0.1879(7) 0.4700(3) -0.0674(8)
C8 C -0.1924(7) 0.5181(3) -0.0733(8)
H5 H -0.2387 0.5369 -0.1326
C9 C -0.1169(8) 0.5346(3) 0.0244(9)
H6 H -0.1036 0.5672 0.0456
C10 C -0.0671(8) 0.4972(3) 0.0865(9)
H7 H -0.0128 0.4991 0.1587
C11 C -0.1094(6) 0.4567(3) 0.0333(8)
H8 H -0.0886 0.4250 0.0581
C12 C -0.3079(7) 0.4509(3) 0.1185(8)
C13 C -0.2388(7) 0.4696(3) 0.2180(8)
H9 H -0.1914 0.4521 0.2791
C14 C -0.2507(8) 0.5175(4) 0.2128(9)
H10 H -0.2112 0.5397 0.2689
C15 C -0.3246(8) 0.5289(3) 0.1117(9)
H11 H -0.3461 0.5604 0.0858
C16 C -0.3624(7) 0.4887(3) 0.0538(9)
H12 H -0.4158 0.4865 -0.0191
C17 C -0.2037(8) 0.4206(3) -0.2716(8)
C18 C -0.2579(10) 0.4162(4) -0.3841(10)
H13 H -0.3273 0.4170 -0.4054
C19 C -0.2084(12) 0.4106(5) -0.4666(11)
H14 H -0.2446 0.4077 -0.5438
C20 C -0.1082(13) 0.4094(4) -0.4349(14)
H15 H -0.0752 0.4062 -0.4905
C21 C -0.0546(11) 0.4127(5) -0.3224(13)
H16 H 0.0148 0.4113 -0.3013
C22 C -0.1022(9) 0.4182(4) -0.2396(10)
H17 H -0.0656 0.4203 -0.1625
C23 C -0.3825(7) 0.4534(3) -0.2364(8)
C24 C -0.3883(8) 0.4940(3) -0.2937(9)
H18 H -0.3298 0.5101 -0.2895
C25 C -0.4768(10) 0.5119(4) -0.3571(10)
H19 H -0.4794 0.5400 -0.3952
C26 C -0.5619(10) 0.4877(5) -0.3637(10)
H20 H -0.6233 0.4993 -0.4071
C27 C -0.5575(9) 0.4469(5) -0.3071(11)
H21 H -0.6159 0.4306 -0.3124
C28 C -0.4677(7) 0.4295(4) -0.2425(9)
H22 H -0.4649 0.4017 -0.2032
C29 C -0.4526(7) 0.3806(3) 0.0643(9)
C30 C -0.4965(8) 0.4036(4) 0.1355(9)
H23 H -0.4614 0.4265 0.1849
C31 C -0.5909(9) 0.3930(4) 0.1338(11)
H24 H -0.6198 0.4083 0.1832
C32 C -0.6437(8) 0.3605(4) 0.0616(12)
H25 H -0.7086 0.3533 0.0608
C33 C -0.6003(10) 0.3385(4) -0.0095(13)
H26 H -0.6372 0.3164 -0.0598
C34 C -0.5051(8) 0.3474(3) -0.0110(10)
H27 H -0.4768 0.3317 -0.0605
C35 C -0.2535(7) 0.3608(3) 0.2052(8)
C36 C -0.3012(8) 0.3369(3) 0.2697(9)
H28 H -0.3705 0.3376 0.2505
C37 C -0.2481(9) 0.3122(4) 0.3617(9)
H29 H -0.2813 0.2958 0.4052
C38 C -0.1467(9) 0.3111(3) 0.3914(9)
H30 H -0.1110 0.2937 0.4546
C39 C -0.0972(8) 0.3353(4) 0.3286(9)
H31 H -0.0279 0.3348 0.3486
C40 C -0.1514(9) 0.3599(4) 0.2365(9)
H32 H -0.1183 0.3766 0.1935
Pd1C Pd -0.28211(5) 0.13878(2) 0.42558(6)
N1C N -0.2602(6) 0.3218(2) -0.2082(6)
O6 O -1.0068(10) 0.3520(4) 0.0179(10)
H33 H -1.045(10) 0.330(4) 0.035(14)
H34 H -0.944(4) 0.355(5) 0.061(11)
C42 C -0.5782(14) 0.1782(6) 0.9075(18)
H35 H -0.6380 0.1627 0.8592
Cl1 Cl -0.5380(6) 0.2193(2) 0.8289(7)
Cl2 Cl -0.6061(4) 0.2074(2) 1.0234(6)
Cl3 Cl -0.4852(5) 0.13928(17) 0.9573(5)
C43 C -0.827(3) 0.2065(11) 0.228(3)
H36 H -0.7578 0.1959 0.2548
Cl4 Cl -0.894(3) 0.1717(10) 0.114(2)
Cl5 Cl -0.8815(13) 0.2031(11) 0.3403(17)
Cl6 Cl -0.831(3) 0.2632(10) 0.178(3)
C44? C -0.8021(19) 0.1969(9) 0.121(3)
H37? H -0.7904 0.1922 0.0467
Cl7? Cl -0.9274(13) 0.2042(10) 0.105(2)
Cl8? Cl -0.7394(17) 0.2464(8) 0.189(2)
Cl9? Cl -0.758(2) 0.1498(7) 0.212(2)
loop_
_geom_bond_atom_site_label_1
_geom_bond_atom_site_label_2
_geom_bond_site_symmetry_1
_geom_bond_site_symmetry_2
S1 O3 1_555 1_555
Pd1 P1 1_555 1_555
P1 C7 1_555 1_555
P2 Pd1 1_555 1_555
Fe1 C7 1_555 1_555
N1 C2 1_555 1_555
O1 Pd1 1_555 1_555
O2 C1 1_555 1_555
C1 O1 1_555 1_555
C2 H1 1_555 1_555
C3 C2 1_555 1_555
H2 C3 1_555 1_555
C4 C1 1_555 1_555
C5 C4 1_555 1_555
H3 C5 1_555 1_555
C6 N1 1_555 1_555
H4 C6 1_555 1_555
C7 C8 1_555 1_555
C8 Fe1 1_555 1_555
H5 C8 1_555 1_555
C9 Fe1 1_555 1_555
H6 C9 1_555 1_555
C10 Fe1 1_555 1_555
H7 C10 1_555 1_555
C11 Fe1 1_555 1_555
H8 C11 1_555 1_555
C12 P2 1_555 1_555
C13 Fe1 1_555 1_555
H9 C13 1_555 1_555
C14 Fe1 1_555 1_555
H10 C14 1_555 1_555
C15 Fe1 1_555 1_555
H11 C15 1_555 1_555
C16 Fe1 1_555 1_555
H12 C16 1_555 1_555
C17 P1 1_555 1_555
C18 C17 1_555 1_555
H13 C18 1_555 1_555
C19 C18 1_555 1_555
H14 C19 1_555 1_555
C20 C19 1_555 1_555
H15 C20 1_555 1_555
C21 C20 1_555 1_555
H16 C21 1_555 1_555
C22 C17 1_555 1_555
H17 C22 1_555 1_555
C23 P1 1_555 1_555
C24 C23 1_555 1_555
H18 C24 1_555 1_555
C25 C24 1_555 1_555
H19 C25 1_555 1_555
C26 C25 1_555 1_555
H20 C26 1_555 1_555
C27 C26 1_555 1_555
H21 C27 1_555 1_555
C28 C23 1_555 1_555
H22 C28 1_555 1_555
C29 P2 1_555 1_555
C30 C29 1_555 1_555
H23 C30 1_555 1_555
C31 C30 1_555 1_555
H24 C31 1_555 1_555
C32 C31 1_555 1_555
H25 C32 1_555 1_555
C33 C32 1_555 1_555
H26 C33 1_555 1_555
C34 C29 1_555 1_555
H27 C34 1_555 1_555
C35 P2 1_555 1_555
C36 C35 1_555 1_555
H28 C36 1_555 1_555
C37 C36 1_555 1_555
H29 C37 1_555 1_555
C38 C37 1_555 1_555
H30 C38 1_555 1_555
C39 C38 1_555 1_555
H31 C39 1_555 1_555
C40 C35 1_555 1_555
H32 C40 1_555 1_555
O4 S1 1_555 1_555
O5 S1 1_555 1_555
C41 S1 1_555 1_555
F1 C41 1_555 1_555
F2 C41 1_555 1_555
F3 C41 1_555 1_555
O6 H33 1_555 1_555
H34 O6 1_555 1_555
C42 H35 1_555 1_555
Cl1 C42 1_555 1_555
Cl2 C42 1_555 1_555
Cl3 C42 1_555 1_555
C43 H36 1_555 1_555
Cl4 C43 1_555 1_555
Cl5 C43 1_555 1_555
Cl6 C43 1_555 1_555
Pd1C N1 1_555 1_555
N1C Pd1 1_555 1_555
Fe1 C12 1_555 1_555
C3 C4 1_555 1_555
C5 C6 1_555 1_555
C7 C11 1_555 1_555
C8 C9 1_555 1_555
C9 C10 1_555 1_555
C10 C11 1_555 1_555
C12 C13 1_555 1_555
C12 C16 1_555 1_555
C13 C14 1_555 1_555
C14 C15 1_555 1_555
C15 C16 1_555 1_555
C21 C22 1_555 1_555
C27 C28 1_555 1_555
C33 C34 1_555 1_555
C39 C40 1_555 1_555

#END
