
#######################################################################
#
#                 Cambridge Crystallographic Data Centre
#                                CCDC 
#
#######################################################################
#
# If this CIF has been generated from an entry in the Cambridge 
# Structural Database, then it will include bibliographic, chemical, 
# crystal, experimental, refinement or atomic coordinate data resulting 
# from the CCDC's data processing and validation procedures.
#
#######################################################################

data_UFIMUS
_symmetry_cell_setting           monoclinic
_symmetry_space_group_name_H-M   'P 21/c'
_symmetry_Int_Tables_number      14
_space_group_name_Hall           '-P 2ybc'
loop_
_symmetry_equiv_pos_site_id
_symmetry_equiv_pos_as_xyz
1 x,y,z
2 -x,1/2+y,1/2-z
3 -x,-y,-z
4 x,1/2-y,1/2+z
_cell_length_a                   8.6580(17)
_cell_length_b                   13.735(3)
_cell_length_c                   6.5009(13)
_cell_angle_alpha                90
_cell_angle_beta                 98.09(3)
_cell_angle_gamma                90
_cell_volume                     765.378
loop_
_atom_site_label
_atom_site_type_symbol
_atom_site_fract_x
_atom_site_fract_y
_atom_site_fract_z
Ag1 Ag 0.38172(4) 0.03897(3) 0.21508(7)
C1 C 0.1079(5) -0.1058(3) 0.2395(7)
H1 H 0.1881 -0.1502 0.2316
C2 C -0.0375(5) -0.1404(3) 0.2585(7)
H2 H -0.0543 -0.2071 0.2652
C3 C -0.1602(5) -0.0762(3) 0.2679(7)
N1 N 0.1396(4) -0.0097(3) 0.2318(6)
C4 C 0.0213(5) 0.0523(3) 0.2416(6)
H3 H 0.0418 0.1187 0.2377
C5 C -0.1302(4) 0.0229(3) 0.2573(6)
C6 C -0.2551(5) 0.1005(3) 0.2591(7)
O1 O -0.2346(4) 0.1769(2) 0.1630(6)
O2 O -0.3681(3) 0.0820(2) 0.3547(5)
C7 C -0.3191(5) -0.1190(3) 0.2857(7)
O3 O -0.3274(4) -0.1666(3) 0.4472(5)
O4 O -0.4266(4) -0.1078(2) 0.1347(5)
Ag2 Ag -0.44506(4) 0.26184(3) 0.04059(7)
Ag1_2 Ag -0.61828(4) 0.03897(3) 0.21508(7)
Ag1B Ag -0.38172(4) -0.03897(3) -0.21508(7)
O2_2 O 0.6319(3) 0.0820(2) 0.3547(5)
O2C O -0.3681(3) 0.4180(2) -0.1453(5)
O3A O -0.6726(4) 0.3334(3) 0.0528(5)
O4_2 O 0.5734(4) -0.1078(2) 0.1347(5)
O4B O 0.4266(4) 0.1078(2) -0.1347(5)
O4B_2 O -0.5734(4) 0.1078(2) -0.1347(5)
Ag2C Ag -0.44506(4) 0.23816(3) 0.54059(7)
Ag2A Ag -0.55494(4) -0.23816(3) 0.45941(7)
Ag2B Ag -0.55494(4) -0.26184(3) -0.04059(7)
loop_
_geom_bond_atom_site_label_1
_geom_bond_atom_site_label_2
_geom_bond_site_symmetry_1
_geom_bond_site_symmetry_2
Ag1 N1 1_555 1_555
C1 H1 1_555 1_555
C2 C1 1_555 1_555
H2 C2 1_555 1_555
C3 C2 1_555 1_555
N1 C1 1_555 1_555
C4 N1 1_555 1_555
H3 C4 1_555 1_555
C5 C3 1_555 1_555
C6 C5 1_555 1_555
O1 C6 1_555 1_555
O2 C6 1_555 1_555
C7 C3 1_555 1_555
O3 C7 1_555 1_555
O4 C7 1_555 1_555
Ag2 O1 1_555 1_555
Ag1_2 O2 1_555 1_555
Ag1B O4 1_555 1_555
O2_2 Ag1 1_555 1_555
O2C Ag2 1_555 1_555
O3A Ag2 1_555 1_555
O4_2 Ag1 1_555 1_555
O4B Ag1 1_555 1_555
O4B_2 Ag2 1_555 1_555
Ag2C O2 1_555 1_555
Ag2A O3 1_555 1_555
Ag2B O4 1_555 1_555
C4 C5 1_555 1_555
O4 Ag1_2 1_555 1_555
Ag1_2 O4B_2 1_555 1_555
Ag1B O4B_2 1_555 1_555

#END
