
#######################################################################
#
#                 Cambridge Crystallographic Data Centre
#                                CCDC 
#
#######################################################################
#
# If this CIF has been generated from an entry in the Cambridge 
# Structural Database, then it will include bibliographic, chemical, 
# crystal, experimental, refinement or atomic coordinate data resulting 
# from the CCDC's data processing and validation procedures.
#
#######################################################################

data_UFIPEF
_symmetry_cell_setting           monoclinic
_symmetry_space_group_name_H-M   'P 21/c'
_symmetry_Int_Tables_number      14
_space_group_name_Hall           '-P 2ybc'
loop_
_symmetry_equiv_pos_site_id
_symmetry_equiv_pos_as_xyz
1 x,y,z
2 -x,1/2+y,1/2-z
3 -x,-y,-z
4 x,1/2-y,1/2+z
_cell_length_a                   7.2157(19)
_cell_length_b                   14.067(4)
_cell_length_c                   8.462(2)
_cell_angle_alpha                90
_cell_angle_beta                 96.441(6)
_cell_angle_gamma                90
_cell_volume                     853.499
loop_
_atom_site_label
_atom_site_type_symbol
_atom_site_fract_x
_atom_site_fract_y
_atom_site_fract_z
Au1 Au -0.52017(3) 0.759840(18) -0.25182(3)
Fe1 Fe 0.0000 1.0000 0.0000
C1 C -0.3277(9) 0.8479(5) -0.1531(8)
C2 C 0.2898(9) 0.8316(5) 0.1506(8)
N1 N -0.2141(8) 0.8979(4) -0.0964(7)
N2 N 0.1797(7) 0.8836(4) 0.0953(7)
N3 N -0.1277(7) 1.0072(4) 0.2195(7)
C3 C -0.1911(10) 1.0923(5) 0.4523(9)
H1 H -0.1865 1.1495 0.5077
C4 C -0.1256(9) 1.0863(5) 0.3052(8)
H2 H -0.0771 1.1410 0.2638
C5 C -0.2629(10) 1.0121(5) 0.5146(9)
H3 H -0.3068 1.0133 0.6138
C6 C -0.2015(10) 0.9314(5) 0.2813(8)
H4 H -0.2082 0.8756 0.2220
C7 C -0.2682(11) 0.9296(6) 0.4257(10)
H5 H -0.3163 0.8738 0.4637
Au1B Au 0.52017(3) 1.240160(18) 0.25182(3)
Au1C Au 0.47983(3) 0.740160(18) 0.24818(3)
Au1A Au -0.47983(3) 1.259840(18) -0.24818(3)
C1B C 0.3277(9) 1.1521(5) 0.1531(8)
C2B C -0.2898(9) 1.1684(5) -0.1506(8)
C2C C -0.7102(9) 0.6684(5) -0.3494(8)
C2A C 0.7102(9) 1.3316(5) 0.3494(8)
N1B N 0.2141(8) 1.1021(4) 0.0964(7)
N2B N -0.1797(7) 1.1164(4) -0.0953(7)
N3B N 0.1277(7) 0.9928(4) -0.2195(7)
C3B C 0.1911(10) 0.9077(5) -0.4523(9)
H1B H 0.1865 0.8505 -0.5077
C4B C 0.1256(9) 0.9137(5) -0.3052(8)
H2B H 0.0771 0.8590 -0.2638
C5B C 0.2629(10) 0.9879(5) -0.5146(9)
H3B H 0.3068 0.9867 -0.6138
C6B C 0.2015(10) 1.0686(5) -0.2813(8)
H4B H 0.2082 1.1244 -0.2220
C7B C 0.2682(11) 1.0704(6) -0.4257(10)
H5B H 0.3163 1.1262 -0.4637
loop_
_geom_bond_atom_site_label_1
_geom_bond_atom_site_label_2
_geom_bond_site_symmetry_1
_geom_bond_site_symmetry_2
Au1 C1 1_555 1_555
Fe1 N1 1_555 1_555
C1 N1 1_555 1_555
C2 N2 1_555 1_555
N2 Fe1 1_555 1_555
N3 Fe1 1_555 1_555
C3 H1 1_555 1_555
C4 N3 1_555 1_555
H2 C4 1_555 1_555
C5 C3 1_555 1_555
H3 C5 1_555 1_555
C6 N3 1_555 1_555
H4 C6 1_555 1_555
C7 C5 1_555 1_555
H5 C7 1_555 1_555
Au1B C1B 1_555 1_555
Au1C C2 1_555 1_555
Au1A C2B 1_555 1_555
C1B N1B 1_555 1_555
C2B N2B 1_555 1_555
C2C Au1 1_555 1_555
C2A Au1B 1_555 1_555
N1B Fe1 1_555 1_555
N2B Fe1 1_555 1_555
N3B Fe1 1_555 1_555
C3B H1B 1_555 1_555
C4B N3B 1_555 1_555
H2B C4B 1_555 1_555
C5B C3B 1_555 1_555
H3B C5B 1_555 1_555
C6B N3B 1_555 1_555
H4B C6B 1_555 1_555
C7B C5B 1_555 1_555
H5B C7B 1_555 1_555
C3 C4 1_555 1_555
C6 C7 1_555 1_555
C3B C4B 1_555 1_555
C6B C7B 1_555 1_555

#END
