
#######################################################################
#
#                 Cambridge Crystallographic Data Centre
#                                CCDC 
#
#######################################################################
#
# If this CIF has been generated from an entry in the Cambridge 
# Structural Database, then it will include bibliographic, chemical, 
# crystal, experimental, refinement or atomic coordinate data resulting 
# from the CCDC's data processing and validation procedures.
#
#######################################################################

data_UFIQIK
_symmetry_cell_setting           orthorhombic
_symmetry_space_group_name_H-M   'P n a 21'
_symmetry_Int_Tables_number      33
_space_group_name_Hall           'P 2c -2n'
loop_
_symmetry_equiv_pos_site_id
_symmetry_equiv_pos_as_xyz
1 x,y,z
2 -x,-y,1/2+z
3 1/2+x,1/2-y,z
4 1/2-x,1/2+y,1/2+z
_cell_length_a                   13.3391(12)
_cell_length_b                   16.4657(15)
_cell_length_c                   18.2177(16)
_cell_angle_alpha                90
_cell_angle_beta                 90
_cell_angle_gamma                90
_cell_volume                     4001.29
loop_
_atom_site_label
_atom_site_type_symbol
_atom_site_fract_x
_atom_site_fract_y
_atom_site_fract_z
Mn1 Mn 0.88161(4) 0.41316(3) 0.50903(3)
Mn2 Mn 0.88935(4) 0.90536(3) 0.32769(3)
O1 O 0.9033(2) 0.51165(17) 0.6029(2)
O2 O 0.8824(2) 0.55281(17) 0.48825(18)
O3 O 0.8881(2) 0.83989(18) 0.42773(18)
O4 O 0.8486(2) 0.93356(14) 0.51132(18)
O5 O 0.8583(3) 0.8455(2) 0.77100(19)
O6 O 0.8597(3) 0.7175(2) 0.7975(2)
O7 O 0.8703(2) 0.34593(19) 0.40821(19)
O8 O 0.9063(3) 0.43401(16) 0.31881(19)
O9 O 0.8985(2) 0.05157(18) 0.36151(18)
O10 O 0.8890(2) 0.00686(16) 0.24690(19)
O11 O 0.8626(3) 0.2015(2) 0.0461(2)
O12 O 0.8696(3) 0.33011(19) 0.0660(2)
N1 N 0.8623(3) 0.7739(2) 0.7538(2)
N2 N 0.8693(2) 0.2587(2) 0.0872(2)
N3 N 0.8733(3) 0.3122(2) 0.5868(2)
N4 N 0.8547(3) 0.1892(2) 0.6326(2)
N5 N 1.0467(3) 0.41163(17) 0.4923(2)
N6 N 1.2022(3) 0.4491(2) 0.47101(19)
H1 H 1.2447 0.4806 0.4789
N7 N 0.7163(2) 0.42874(18) 0.5068(2)
N8 N 0.5613(3) 0.4401(2) 0.4682(2)
H2 H 0.5143 0.4367 0.4329
N9 N 0.7228(2) 0.91198(17) 0.3362(2)
N10 N 0.5707(3) 0.8870(3) 0.3803(3)
H3 H 0.5000 0.8743 0.4174
N11 N 1.0559(3) 0.91022(16) 0.3355(2)
N12 N 1.2109(3) 0.9562(2) 0.3249(3)
N13 N 0.8866(2) 0.8036(2) 0.2510(2)
N14 N 0.8875(3) 0.6818(2) 0.2033(3)
H4 H 0.8878 0.6272 0.2002
C1 C 0.8839(3) 0.6538(2) 0.5815(3)
C2 C 0.8816(3) 0.7163(2) 0.5293(3)
H5 H 0.8853 0.7032 0.4786
C3 C 0.8738(3) 0.7973(2) 0.5508(2)
C4 C 0.8681(3) 0.8163(2) 0.6246(3)
H6 H 0.8629 0.8712 0.6403
C5 C 0.8706(3) 0.7536(2) 0.6750(3)
C6 C 0.8784(3) 0.6728(2) 0.6552(3)
H7 H 0.8799 0.6314 0.6915
C7 C 0.8909(3) 0.5668(2) 0.5551(3)
C8 C 0.8694(3) 0.8625(2) 0.4921(3)
C9 C 0.8872(3) 0.2941(2) 0.2885(2)
C10 C 0.8929(3) 0.2145(2) 0.3139(2)
H8 H 0.8984 0.2042 0.3651
C11 C 0.8910(3) 0.1498(2) 0.2649(2)
C12 C 0.8832(3) 0.1634(2) 0.1903(3)
H9 H 0.8818 0.1194 0.1566
C13 C 0.8776(3) 0.2428(2) 0.1663(2)
C14 C 0.8792(3) 0.3091(2) 0.2134(3)
H10 H 0.8746 0.3630 0.1950
C15 C 0.8876(3) 0.3639(2) 0.3431(2)
C16 C 0.8937(3) 0.0630(3) 0.2931(3)
C17 C 0.8627(3) 0.2336(3) 0.5712(3)
H11 H 0.8613 0.2120 0.5229
C18 C 0.8712(3) 0.3165(3) 0.6621(3)
H12 H 0.8768 0.3650 0.6899
C19 C 0.8600(3) 0.2411(3) 0.6911(3)
H13 H 0.8568 0.2274 0.7416
C20 C 1.1147(3) 0.4695(2) 0.5014(3)
H14 H 1.1027 0.5192 0.5264
C21 C 1.0976(3) 0.3506(2) 0.4535(2)
H15 H 1.0696 0.3003 0.4385
C22 C 1.1929(3) 0.3752(2) 0.4407(2)
H16 H 1.2433 0.3457 0.4152
C23 C 0.6533(3) 0.4106(3) 0.4543(3)
H17 H 0.6703 0.3801 0.4118
C24 C 0.6601(3) 0.4727(2) 0.5566(3)
H18 H 0.6853 0.4950 0.6011
C25 C 0.5655(3) 0.4795(3) 0.5334(3)
H19 H 0.5120 0.5065 0.5577
C26 C 0.6653(3) 0.8590(3) 0.3755(3)
H20 H 0.6886 0.8096 0.3964
C27 C 0.6604(3) 0.9714(2) 0.3176(3)
H21 H 0.6793 1.0176 0.2896
C28 C 0.5683(3) 0.9582(2) 0.3430(2)
H22 H 0.5115 0.9922 0.3364
C29 C 1.1183(3) 0.9559(3) 0.2954(3)
H23 H 1.0995 0.9838 0.2519
C30 C 1.1128(3) 0.8821(3) 0.3906(3)
H24 H 1.0891 0.8470 0.4281
C31 C 1.2062(3) 0.9092(2) 0.3863(3)
H25 H 1.2592 0.8979 0.4196
C32 C 0.8861(3) 0.7250(3) 0.2654(3)
H26 H 0.8847 0.7024 0.3133
C33 C 0.8877(3) 0.8089(3) 0.1756(3)
H27 H 0.8879 0.8583 0.1487
C34 C 0.8884(3) 0.7346(3) 0.1457(3)
H28 H 0.8894 0.7215 0.0949
H32 H 0.8518 0.1330 0.6389
H34 H 1.2631 0.9865 0.3031
Mn2_2 Mn 0.88935(4) -0.09464(3) 0.32769(3)
O9_2 O 0.8985(2) 1.05157(18) 0.36151(18)
O10_2 O 0.8890(2) 1.00686(16) 0.24690(19)
O13 O 0.9177(2) 0.51121(16) 0.18384(17)
H31 H 0.9260 0.4880 0.2223
H33 H 0.9801 0.4918 0.1574
O14 O 0.7911(2) 0.02034(17) 0.63578(17)
H29 H 0.7291 0.0103 0.6429
H30 H 0.7965 0.0529 0.5995
loop_
_geom_bond_atom_site_label_1
_geom_bond_atom_site_label_2
_geom_bond_site_symmetry_1
_geom_bond_site_symmetry_2
Mn1 O1 1_555 1_555
Mn2 O3 1_555 1_555
O1 C7 1_555 1_555
O2 Mn1 1_555 1_555
O3 C8 1_555 1_555
O4 C8 1_555 1_555
O5 N1 1_555 1_555
O6 N1 1_555 1_555
O7 Mn1 1_555 1_555
O8 C15 1_555 1_555
O9 C16 1_555 1_555
O10 C16 1_555 1_555
O11 N2 1_555 1_555
O12 N2 1_555 1_555
N1 C5 1_555 1_555
N2 C13 1_555 1_555
N3 Mn1 1_555 1_555
N4 C17 1_555 1_555
N5 Mn1 1_555 1_555
N6 H1 1_555 1_555
N7 Mn1 1_555 1_555
N8 H2 1_555 1_555
N9 Mn2 1_555 1_555
N10 H3 1_555 1_555
N11 Mn2 1_555 1_555
N12 C29 1_555 1_555
N13 Mn2 1_555 1_555
N14 H4 1_555 1_555
C1 C2 1_555 1_555
C2 H5 1_555 1_555
C3 C2 1_555 1_555
C4 C3 1_555 1_555
H6 C4 1_555 1_555
C5 C4 1_555 1_555
C6 C1 1_555 1_555
H7 C6 1_555 1_555
C7 O2 1_555 1_555
C8 C3 1_555 1_555
C9 C10 1_555 1_555
C10 H8 1_555 1_555
C11 C10 1_555 1_555
C12 C11 1_555 1_555
H9 C12 1_555 1_555
C13 C12 1_555 1_555
C14 C9 1_555 1_555
H10 C14 1_555 1_555
C15 O7 1_555 1_555
C16 C11 1_555 1_555
C17 N3 1_555 1_555
H11 C17 1_555 1_555
C18 N3 1_555 1_555
H12 C18 1_555 1_555
C19 N4 1_555 1_555
H13 C19 1_555 1_555
C20 N5 1_555 1_555
H14 C20 1_555 1_555
C21 N5 1_555 1_555
H15 C21 1_555 1_555
C22 N6 1_555 1_555
H16 C22 1_555 1_555
C23 N7 1_555 1_555
H17 C23 1_555 1_555
C24 N7 1_555 1_555
H18 C24 1_555 1_555
C25 N8 1_555 1_555
H19 C25 1_555 1_555
C26 N9 1_555 1_555
H20 C26 1_555 1_555
C27 N9 1_555 1_555
H21 C27 1_555 1_555
C28 N10 1_555 1_555
H22 C28 1_555 1_555
C29 N11 1_555 1_555
H23 C29 1_555 1_555
C30 N11 1_555 1_555
H24 C30 1_555 1_555
C31 N12 1_555 1_555
H25 C31 1_555 1_555
C32 N13 1_555 1_555
H26 C32 1_555 1_555
C33 N13 1_555 1_555
H27 C33 1_555 1_555
C34 N14 1_555 1_555
H28 C34 1_555 1_555
O13 H31 1_555 1_555
O14 H29 1_555 1_555
H30 O14 1_555 1_555
H32 N4 1_555 1_555
H33 O13 1_555 1_555
H34 N12 1_555 1_555
Mn2_2 O9 1_555 1_555
O9_2 Mn2 1_555 1_555
O10_2 Mn2 1_555 1_555
O10 Mn2_2 1_555 1_555
N6 C20 1_555 1_555
N8 C23 1_555 1_555
N10 C26 1_555 1_555
N14 C32 1_555 1_555
C1 C7 1_555 1_555
C5 C6 1_555 1_555
C9 C15 1_555 1_555
C13 C14 1_555 1_555
C18 C19 1_555 1_555
C21 C22 1_555 1_555
C24 C25 1_555 1_555
C27 C28 1_555 1_555
C30 C31 1_555 1_555
C33 C34 1_555 1_555

#END
