
#######################################################################
#
#                 Cambridge Crystallographic Data Centre
#                                CCDC 
#
#######################################################################
#
# If this CIF has been generated from an entry in the Cambridge 
# Structural Database, then it will include bibliographic, chemical, 
# crystal, experimental, refinement or atomic coordinate data resulting 
# from the CCDC's data processing and validation procedures.
#
#######################################################################

data_UFIRUX
_symmetry_cell_setting           orthorhombic
_symmetry_space_group_name_H-M   'C m c m'
_symmetry_Int_Tables_number      63
_space_group_name_Hall           '-C 2n 2'
loop_
_symmetry_equiv_pos_site_id
_symmetry_equiv_pos_as_xyz
1 x,y,z
2 1/2+x,1/2+y,z
3 -x,-y,1/2+z
4 x,-y,-z
5 -x,y,1/2-z
6 1/2-x,1/2-y,1/2+z
7 1/2+x,1/2-y,-z
8 1/2-x,1/2+y,1/2-z
9 -x,-y,-z
10 1/2-x,1/2-y,-z
11 x,y,1/2-z
12 -x,y,z
13 x,-y,1/2+z
14 1/2+x,1/2+y,1/2-z
15 1/2-x,1/2+y,z
16 1/2+x,1/2-y,1/2+z
_cell_length_a                   7.490(4)
_cell_length_b                   21.803(11)
_cell_length_c                   8.154(4)
_cell_angle_alpha                90
_cell_angle_beta                 90
_cell_angle_gamma                90
_cell_volume                     1331.58
loop_
_atom_site_label
_atom_site_type_symbol
_atom_site_fract_x
_atom_site_fract_y
_atom_site_fract_z
In1 In 0.2500 0.2500 0.5000
C1 C 0.0000 0.0640(5) 0.505(2)
C2 C 0.0000 0.1321(5) 0.5115(19)
C3 C 0.1576(12) 0.0320(4) 0.496(2)
H1 H 0.2649 0.0531 0.4855
O1 O 0.1474(9) 0.1586(3) 0.5028(14)
O2 O 0.2936(14) 0.2426(6) 0.2500
F2 F 0.0000 0.2905(4) 0.4527(12)
In1K In -0.2500 0.2500 0.5000
In1J In 0.2500 0.2500 0.0000
In1N In 0.2500 -0.2500 0.5000
In1A In -0.2500 -0.2500 0.5000
In1J_2 In 0.2500 0.2500 1.0000
In1K_2 In 0.7500 0.2500 0.5000
C1H C 0.0000 -0.0640(5) 0.495(2)
C2H C 0.0000 -0.1321(5) 0.4885(19)
C3C C 0.1576(12) -0.0320(4) 0.504(2)
C3H C -0.1576(12) -0.0320(4) 0.504(2)
C3K C -0.1576(12) 0.0320(4) 0.496(2)
H1K H -0.2649 0.0531 0.4855
H1H H -0.2649 -0.0531 0.5145
H1C H 0.2649 -0.0531 0.5145
O1K O -0.1474(9) 0.1586(3) 0.5028(14)
O1C O 0.1474(9) -0.1586(3) 0.4972(14)
O1H O -0.1474(9) -0.1586(3) 0.4972(14)
O1I O 0.3526(9) 0.3414(3) 0.4972(14)
O1F O -0.3526(9) 0.3414(3) 0.4972(14)
O2I O 0.2064(14) 0.2574(6) 0.7500
O2K O -0.2936(14) 0.2426(6) 0.2500
O2O O -0.2064(14) 0.2574(6) 0.7500
F2I F 0.5000 0.2095(4) 0.5473(12)
F2I_2 F -0.5000 0.2095(4) 0.5473(12)
O3 O 0.0000 0.3800(10) 0.7500
F1? F 0.2936(14) 0.2426(6) 0.2500
O4? O 0.03(4) 0.393(2) 0.2500
loop_
_geom_bond_atom_site_label_1
_geom_bond_atom_site_label_2
_geom_bond_site_symmetry_1
_geom_bond_site_symmetry_2
In1 O1 1_555 1_555
C1 C2 1_555 1_555
C2 O1 1_555 1_555
C3 C1 1_555 1_555
H1 C3 1_555 1_555
O2 In1 1_555 1_555
F2 In1 1_555 1_555
In1K F2 1_555 1_555
In1J O2 1_555 1_555
In1N O1C 1_555 1_555
In1A O1H 1_555 1_555
In1J_2 O2I 1_555 1_555
In1K_2 F2I 1_555 1_555
C1H C2H 1_555 1_555
C2H O1C 1_555 1_555
C3C C3 1_555 1_555
C3H C1H 1_555 1_555
C3K C1 1_555 1_555
H1K C3K 1_555 1_555
H1H C3H 1_555 1_555
H1C C3C 1_555 1_555
O1K C2 1_555 1_555
O1H C2H 1_555 1_555
O1I In1 1_555 1_555
O1F In1K 1_555 1_555
O2I In1 1_555 1_555
O2K In1K 1_555 1_555
O2O In1K 1_555 1_555
F2I In1 1_555 1_555
F2I_2 In1K 1_555 1_555
In1K O1K 1_555 1_555
C1H C3C 1_555 1_555
C3H C3K 1_555 1_555

#END
