
#######################################################################
#
#                 Cambridge Crystallographic Data Centre
#                                CCDC 
#
#######################################################################
#
# If this CIF has been generated from an entry in the Cambridge 
# Structural Database, then it will include bibliographic, chemical, 
# crystal, experimental, refinement or atomic coordinate data resulting 
# from the CCDC's data processing and validation procedures.
#
#######################################################################

data_UFITEJ
_symmetry_cell_setting           monoclinic
_symmetry_space_group_name_H-M   'C c'
_symmetry_Int_Tables_number      9
_space_group_name_Hall           'C -2yc'
loop_
_symmetry_equiv_pos_site_id
_symmetry_equiv_pos_as_xyz
1 x,y,z
2 x,-y,1/2+z
3 1/2+x,1/2+y,z
4 1/2+x,1/2-y,1/2+z
_cell_length_a                   9.6445(19)
_cell_length_b                   14.747(3)
_cell_length_c                   12.310(2)
_cell_angle_alpha                90
_cell_angle_beta                 108.457(5)
_cell_angle_gamma                90
_cell_volume                     1660.76
loop_
_atom_site_label
_atom_site_type_symbol
_atom_site_fract_x
_atom_site_fract_y
_atom_site_fract_z
Fe1 Fe 0.94516(11) 0.05297(8) 0.33709(8)
Fe2 Fe 0.84090(13) 0.21031(8) 0.10724(9)
Cl1 Cl 0.9656(4) -0.05096(17) 0.2084(2)
Cl2 Cl 0.9947(4) 0.31512(18) 0.2163(2)
O1 O 0.8215(8) 0.1403(5) 0.2337(5)
H1 H 0.7338 0.1507 0.2481
O2 O 0.9672(7) 0.1469(5) 0.4720(5)
O3 O 1.1439(8) 0.1115(5) 0.3495(5)
O4 O 1.1400(9) 0.2342(5) 0.5892(5)
O5 O 1.3098(9) 0.2079(5) 0.4589(6)
O6 O 0.7291(8) -0.1122(5) 0.4885(6)
O7 O 1.0107(7) -0.1455(4) 0.5770(5)
O8 O 1.0590(7) -0.0341(5) 0.4697(5)
O9 O 0.7729(7) -0.0020(5) 0.3787(5)
C1 C 1.0907(10) 0.1842(6) 0.5044(6)
C2 C 1.1910(10) 0.1667(6) 0.4312(7)
C3 C 0.8113(10) -0.0630(6) 0.4527(7)
C4 C 0.9733(9) -0.0820(5) 0.5041(6)
Fe2C Fe 1.34090(13) 0.28969(8) 0.60724(9)
Fe2A Fe 0.84090(13) -0.21031(8) 0.60724(9)
O4C O 0.6400(9) 0.2658(5) 0.0892(5)
O5C O 0.8098(9) 0.2921(5) -0.0411(6)
O6A O 0.7291(8) 0.1122(5) -0.0115(6)
O7A O 1.0107(7) 0.1455(4) 0.0770(5)
O10 O 0.6170(11) 0.2255(7) 0.3215(7)
O11 O 0.7192(12) 0.2043(7) 0.5574(9)
N1 N 0.3436(12) 0.1347(8) 0.2077(9)
H2 H 0.2940 0.1273 0.2570
H3 H 0.2892 0.1657 0.1471
H4 H 0.4256 0.1652 0.2414
C5 C 0.3789(16) 0.0477(9) 0.1715(11)
H5 H 0.2885 0.0149 0.1367
H6 H 0.4345 0.0140 0.2389
C6 C 0.4643(18) 0.0490(13) 0.0883(14)
H7 H 0.5535 0.0833 0.1214
H8 H 0.4916 -0.0126 0.0764
C7 C 0.381(2) 0.0898(15) -0.0256(15)
H9 H 0.4408 0.0891 -0.0748
H10 H 0.3550 0.1512 -0.0148
H11 H 0.2938 0.0551 -0.0600
loop_
_geom_bond_atom_site_label_1
_geom_bond_atom_site_label_2
_geom_bond_site_symmetry_1
_geom_bond_site_symmetry_2
Fe1 Cl1 1_555 1_555
Fe2 Cl2 1_555 1_555
O1 Fe1 1_555 1_555
H1 O1 1_555 1_555
O2 Fe1 1_555 1_555
O3 Fe1 1_555 1_555
O4 C1 1_555 1_555
O5 C2 1_555 1_555
O6 C3 1_555 1_555
O7 C4 1_555 1_555
O8 Fe1 1_555 1_555
O9 Fe1 1_555 1_555
C1 O2 1_555 1_555
C2 O3 1_555 1_555
C3 O9 1_555 1_555
C4 O8 1_555 1_555
N1 H2 1_555 1_555
H3 N1 1_555 1_555
H4 N1 1_555 1_555
C5 N1 1_555 1_555
H5 C5 1_555 1_555
H6 C5 1_555 1_555
C6 C5 1_555 1_555
H7 C6 1_555 1_555
H8 C6 1_555 1_555
C7 C6 1_555 1_555
H9 C7 1_555 1_555
H10 C7 1_555 1_555
H11 C7 1_555 1_555
Fe2C O4 1_555 1_555
Fe2A O6 1_555 1_555
O4C Fe2 1_555 1_555
O5C Fe2 1_555 1_555
O6A Fe2 1_555 1_555
O7A Fe2 1_555 1_555
Fe2 O1 1_555 1_555
O5 Fe2C 1_555 1_555
O7 Fe2A 1_555 1_555
C1 C2 1_555 1_555
C3 C4 1_555 1_555

#END
