
#######################################################################
#
#                 Cambridge Crystallographic Data Centre
#                                CCDC 
#
#######################################################################
#
# If this CIF has been generated from an entry in the Cambridge 
# Structural Database, then it will include bibliographic, chemical, 
# crystal, experimental, refinement or atomic coordinate data resulting 
# from the CCDC's data processing and validation procedures.
#
#######################################################################

data_UFITAF
_symmetry_cell_setting           orthorhombic
_symmetry_space_group_name_H-M   'F d d 2'
_symmetry_Int_Tables_number      43
_space_group_name_Hall           'F 2 -2d'
loop_
_symmetry_equiv_pos_site_id
_symmetry_equiv_pos_as_xyz
1 x,y,z
2 -x,-y,z
3 1/4+x,1/4-y,1/4+z
4 1/4-x,1/4+y,1/4+z
5 x,1/2+y,1/2+z
6 -x,1/2-y,1/2+z
7 1/4+x,3/4-y,3/4+z
8 1/4-x,3/4+y,3/4+z
9 1/2+x,y,1/2+z
10 1/2-x,-y,1/2+z
11 3/4+x,1/4-y,3/4+z
12 3/4-x,1/4+y,3/4+z
13 1/2+x,1/2+y,z
14 1/2-x,1/2-y,z
15 3/4+x,3/4-y,1/4+z
16 3/4-x,3/4+y,1/4+z
_cell_length_a                   15.1807(16)
_cell_length_b                   23.807(2)
_cell_length_c                   8.6398(7)
_cell_angle_alpha                90
_cell_angle_beta                 90
_cell_angle_gamma                90
_cell_volume                     3122.48
loop_
_atom_site_label
_atom_site_type_symbol
_atom_site_fract_x
_atom_site_fract_y
_atom_site_fract_z
Fe1 Fe 0.569672(16) 0.054222(10) 0.26315(3)
Cl1 Cl 0.67649(3) -0.00608(2) 0.15938(7)
O1 O 0.5000 0.0000 0.3424(3)
O2 O 0.65888(10) 0.12325(6) 0.19679(18)
O3 O 0.63205(9) 0.07342(6) 0.46823(17)
C1 C 0.68825(11) 0.11216(8) 0.4639(2)
C2 C 0.70425(12) 0.14015(7) 0.3063(2)
O4 O 0.73129(9) 0.13034(6) 0.57619(17)
O5 O 0.76237(9) 0.17807(6) 0.30352(16)
Fe1A Fe 0.430328(16) -0.054222(10) 0.26315(3)
Fe1B Fe 0.819672(16) 0.195778(10) 0.51315(3)
Fe1J Fe 0.319672(16) 0.195778(10) 0.01315(3)
Cl1A Cl 0.32351(3) 0.00608(2) 0.15938(7)
O2J O 0.40888(10) 0.12675(6) -0.05321(18)
O2A O 0.34112(10) -0.12325(6) 0.19679(18)
O3J O 0.38205(9) 0.17658(6) 0.21823(17)
O3A O 0.36795(9) -0.07342(6) 0.46823(17)
C1J C 0.43825(11) 0.13784(8) 0.2139(2)
C2J C 0.45425(12) 0.10985(7) 0.0563(2)
O4J O 0.48129(9) 0.11966(6) 0.32619(17)
O4G O 0.51871(9) -0.11966(6) 0.32619(17)
O5J O 0.51237(9) 0.07193(6) 0.05352(16)
O5G O 0.48763(9) -0.07193(6) 0.05352(16)
K1 K 0.72330(5) 0.16841(3) -0.09280(9)
O6 O 0.81611(15) 0.07408(10) -0.0098(3)
H1 H 0.789(2) 0.0518(14) 0.069(4)
H2 H 0.8749(11) 0.0626(14) -0.030(5)
O7 O 0.64358(17) 0.26332(12) 0.0318(3)
H3 H 0.667(2) 0.2795(16) -0.062(3)
H4 H 0.5827(8) 0.2651(18) 0.006(4)
loop_
_geom_bond_atom_site_label_1
_geom_bond_atom_site_label_2
_geom_bond_site_symmetry_1
_geom_bond_site_symmetry_2
Fe1 Cl1 1_555 1_555
O1 Fe1 1_555 1_555
O2 Fe1 1_555 1_555
O3 Fe1 1_555 1_555
C1 O3 1_555 1_555
C2 O2 1_555 1_555
O4 C1 1_555 1_555
O5 C2 1_555 1_555
O6 H1 1_555 1_555
O7 H3 1_555 1_555
H2 O6 1_555 1_555
H4 O7 1_555 1_555
Fe1A O1 1_555 1_555
Fe1B O4 1_555 1_555
Fe1J O2J 1_555 1_555
Cl1A Fe1A 1_555 1_555
O2J C2J 1_555 1_555
O2A Fe1A 1_555 1_555
O3J Fe1J 1_555 1_555
O3A Fe1A 1_555 1_555
C1J O3J 1_555 1_555
C2J C1J 1_555 1_555
O4J Fe1 1_555 1_555
O4G Fe1A 1_555 1_555
O5J Fe1 1_555 1_555
O5G Fe1A 1_555 1_555
C1 C2 1_555 1_555
O5 Fe1B 1_555 1_555
C1J O4J 1_555 1_555
C2J O5J 1_555 1_555

#END
