
#######################################################################
#
#                 Cambridge Crystallographic Data Centre
#                                CCDC 
#
#######################################################################
#
# If this CIF has been generated from an entry in the Cambridge 
# Structural Database, then it will include bibliographic, chemical, 
# crystal, experimental, refinement or atomic coordinate data resulting 
# from the CCDC's data processing and validation procedures.
#
#######################################################################

data_UFITOT
_symmetry_cell_setting           monoclinic
_symmetry_space_group_name_H-M   'P 21/c'
_symmetry_Int_Tables_number      14
_space_group_name_Hall           '-P 2ybc'
loop_
_symmetry_equiv_pos_site_id
_symmetry_equiv_pos_as_xyz
1 x,y,z
2 -x,1/2+y,1/2-z
3 -x,-y,-z
4 x,1/2-y,1/2+z
_cell_length_a                   8.1335(16)
_cell_length_b                   8.5877(17)
_cell_length_c                   17.729(4)
_cell_angle_alpha                90
_cell_angle_beta                 91.18(3)
_cell_angle_gamma                90
_cell_volume                     1238.07
loop_
_atom_site_label
_atom_site_type_symbol
_atom_site_fract_x
_atom_site_fract_y
_atom_site_fract_z
Fe1 Fe 0.07550(9) 0.74919(8) 0.08984(4)
Cl1 Cl 0.31618(18) 0.83467(18) 0.13816(9)
Cl2 Cl -0.0363(2) 0.6503(2) 0.19340(9)
O1 O -0.1219(4) 0.6552(4) 0.0236(2)
O2 O -0.1778(4) 0.4491(4) -0.0487(2)
O3 O 0.1311(4) 0.8473(4) -0.0183(2)
O4 O 0.0590(4) 1.0500(4) -0.09012(19)
C1 C -0.0873(6) 0.5298(5) -0.0072(3)
C2 C 0.0556(6) 0.9693(6) -0.0314(3)
Fe1B Fe -0.07550(9) 0.25081(8) -0.08984(4)
Fe1B_2 Fe -0.07550(9) 1.25081(8) -0.08984(4)
Cl1B Cl -0.31618(18) 0.16533(18) -0.13816(9)
Cl2B Cl 0.0363(2) 0.3497(2) -0.19340(9)
O1B O 0.1219(4) 0.3448(4) -0.0236(2)
O2B O 0.1778(4) 0.5509(4) 0.0487(2)
O3B O -0.1311(4) 1.1527(4) 0.0183(2)
O3B_2 O -0.1311(4) 0.1527(4) 0.0183(2)
O4B O -0.0590(4) 0.9500(4) 0.09012(19)
O4_2 O 0.0590(4) 0.0500(4) -0.09012(19)
C1B C 0.0873(6) 0.4702(5) 0.0072(3)
C2B C -0.0556(6) 1.0307(6) 0.0314(3)
N1 N 0.4940(6) 0.7204(5) 0.8610(3)
H1 H 0.4200 0.7879 0.8398
C3 C 0.4220(11) 0.5626(9) 0.8571(5)
H2 H 0.4018 0.5347 0.8052
H3 H 0.3203 0.5611 0.8836
H4 H 0.4971 0.4893 0.8798
C4 C 0.5272(9) 0.7722(9) 0.9431(5)
H5 H 0.5725 0.8754 0.9436
H6 H 0.6038 0.7017 0.9670
H7 H 0.4260 0.7717 0.9701
C5 C 0.6476(9) 0.7312(8) 0.8181(4)
H8 H 0.6911 0.8348 0.8222
H9 H 0.6250 0.7073 0.7661
H10 H 0.7265 0.6584 0.8383
O5 O 0.2819(7) 0.9226(8) 0.8003(3)
H11 H 0.198(4) 0.873(5) 0.769(2)
H12 H 0.224(5) 0.984(5) 0.836(2)
loop_
_geom_bond_atom_site_label_1
_geom_bond_atom_site_label_2
_geom_bond_site_symmetry_1
_geom_bond_site_symmetry_2
Fe1 Cl1 1_555 1_555
Cl2 Fe1 1_555 1_555
O1 Fe1 1_555 1_555
O2 C1 1_555 1_555
O3 Fe1 1_555 1_555
O4 C2 1_555 1_555
C1 O1 1_555 1_555
C2 O3 1_555 1_555
N1 H1 1_555 1_555
C3 N1 1_555 1_555
H2 C3 1_555 1_555
H3 C3 1_555 1_555
H4 C3 1_555 1_555
C4 N1 1_555 1_555
H5 C4 1_555 1_555
H6 C4 1_555 1_555
H7 C4 1_555 1_555
C5 N1 1_555 1_555
H8 C5 1_555 1_555
H9 C5 1_555 1_555
H10 C5 1_555 1_555
O5 H11 1_555 1_555
H12 O5 1_555 1_555
Fe1B O2 1_555 1_555
Fe1B_2 O4 1_555 1_555
Cl1B Fe1B 1_555 1_555
Cl2B Fe1B 1_555 1_555
O1B Fe1B 1_555 1_555
O2B Fe1 1_555 1_555
O3B Fe1B_2 1_555 1_555
O3B_2 Fe1B 1_555 1_555
O4B Fe1 1_555 1_555
O4_2 Fe1B 1_555 1_555
C1B C1 1_555 1_555
C2B C2 1_555 1_555
O1B C1B 1_555 1_555
O2B C1B 1_555 1_555
O3B C2B 1_555 1_555
O4B C2B 1_555 1_555

#END
