
#######################################################################
#
#                 Cambridge Crystallographic Data Centre
#                                CCDC 
#
#######################################################################
#
# If this CIF has been generated from an entry in the Cambridge 
# Structural Database, then it will include bibliographic, chemical, 
# crystal, experimental, refinement or atomic coordinate data resulting 
# from the CCDC's data processing and validation procedures.
#
#######################################################################

data_UFIVAH
_symmetry_cell_setting           triclinic
_symmetry_space_group_name_H-M   'P -1'
_symmetry_Int_Tables_number      2
_space_group_name_Hall           '-P 1'
loop_
_symmetry_equiv_pos_site_id
_symmetry_equiv_pos_as_xyz
1 x,y,z
2 -x,-y,-z
_cell_length_a                   13.3055(7)
_cell_length_b                   13.8637(7)
_cell_length_c                   17.0327(9)
_cell_angle_alpha                68.1790(10)
_cell_angle_beta                 71.4860(10)
_cell_angle_gamma                88.2780(10)
_cell_volume                     2751.99
loop_
_atom_site_label
_atom_site_type_symbol
_atom_site_fract_x
_atom_site_fract_y
_atom_site_fract_z
As1 As 0.60513(12) 0.64917(11) 0.32252(11)
W1 W 0.78478(5) 0.88777(5) 0.23594(5)
W2 W 0.39405(5) 0.78422(5) 0.40948(5)
W3 W 0.81915(6) 0.52945(6) 0.21264(6)
W4 W 0.75811(5) 0.76555(5) 0.08061(5)
W5 W 0.53188(5) 0.89664(5) 0.18413(5)
W6 W 0.64966(5) 0.77124(5) 0.46093(5)
W7 W 0.36346(6) 0.67048(6) 0.27156(5)
W8 W 0.58736(6) 0.54245(5) 0.16934(5)
W9 W 0.85033(5) 0.65203(5) 0.36340(5)
Ni1 Ni 0.38940(15) 0.50444(14) 0.47835(14)
Ni2 Ni 0.58216(16) 0.39002(15) 0.39221(14)
Ni3 Ni 1.0000 0.5000 0.5000
Ni4 Ni 0.5000 0.5000 0.0000
Ni5 Ni 0.8289(2) 0.9838(2) -0.1487(2)
C1 C 0.751(2) 1.1181(19) -0.0448(18)
C2 C 0.712(2) 0.4791(19) -0.1085(19)
C3 C 0.721(2) 0.5798(19) -0.0960(19)
C4 C 1.088(2) 0.373(2) 0.391(2)
C5 C 0.910(2) 1.191(2) -0.036(2)
C6 C 0.856(3) 1.141(3) -0.083(3)
C7 C 0.937(2) 0.277(2) 0.396(2)
C8 C 0.979(2) 0.369(2) 0.411(2)
C9 C 0.969(5) 0.995(5) -0.330(5)
C10 C 0.901(5) 1.080(4) -0.341(4)
C11 C 0.647(2) 0.159(2) 0.265(2)
C12 C 0.623(3) 0.246(2) 0.290(2)
C13 C 0.642(3) 0.181(3) 0.170(3)
C14 C 1.049(6) 1.044(6) -0.422(5)
C15 C 0.831(4) 0.640(4) -0.156(4)
N1 N 0.9143(12) 0.3864(11) 0.4860(11)
N2 N 1.1248(13) 0.4650(13) 0.4056(12)
N3 N 0.6210(14) 0.6236(13) -0.0811(13)
N4 N 0.3785(13) 0.5866(14) 0.0413(13)
N5 N 0.7050(13) 1.0417(14) -0.0735(14)
N6 N 0.9210(15) 1.0696(14) -0.1155(14)
N7 N 0.951(2) 0.926(2) -0.222(2)
N8 N 0.838(3) 1.102(3) -0.263(3)
N9 N 0.5704(17) 0.0592(15) 0.3279(15)
N10 N 0.6065(14) 0.2466(13) 0.3752(12)
O1 O 0.2525(9) 0.6581(10) 0.2439(10)
O2 O 0.6520(9) 0.9241(9) 0.2173(9)
O3 O 0.5255(9) 0.8164(8) 0.4251(8)
O4 O 0.9683(9) 0.6235(9) 0.3895(8)
O5 O 0.8848(9) 0.8002(9) 0.2773(8)
O6 O 0.7265(9) 0.8941(8) 0.3493(8)
O7 O 0.3557(9) 0.5541(9) 0.3648(7)
O8 O 0.6690(8) 0.6754(8) 0.0685(8)
O9 O 0.8207(10) 0.8498(10) -0.0272(10)
O10 O 0.3869(9) 0.6496(8) 0.4882(8)
O11 O 0.5562(8) 0.5364(8) 0.4100(8)
O12 O 0.7611(8) 0.5431(9) 0.4400(8)
O13 O 0.8688(9) 0.6129(9) 0.2662(8)
O14 O 0.4201(9) 0.8182(9) 0.1842(8)
O15 O 0.7832(9) 0.7227(9) 0.4494(8)
O16 O 0.3072(8) 0.7436(9) 0.3543(8)
O17 O 0.7295(9) 0.4970(9) 0.1542(8)
O18 O 0.4469(9) 0.9070(9) 0.2924(8)
O19 O 0.5780(9) 0.6413(9) 0.5264(7)
O20 O 0.5250(10) 1.0174(9) 0.1047(9)
O21 O 0.5085(8) 0.7241(8) 0.3040(8)
O22 O 0.6377(10) 0.8250(10) 0.5402(9)
O23 O 0.7394(9) 0.4394(8) 0.3175(8)
O24 O 0.5392(8) 0.4528(8) 0.2808(8)
O25 O 0.9263(10) 0.4643(10) 0.1826(10)
O26 O 0.6285(9) 0.8392(8) 0.1113(8)
O27 O 0.8601(10) 1.0065(10) 0.1772(9)
O28 O 0.3064(10) 0.8453(9) 0.4706(9)
O29 O 0.4723(9) 0.6277(9) 0.1898(8)
O30 O 0.6898(8) 0.7179(8) 0.3409(7)
O31 O 0.8045(9) 0.8299(9) 0.1478(9)
O32 O 0.5485(10) 0.4824(10) 0.1092(9)
O33 O 0.6690(9) 0.6317(8) 0.2290(8)
O34 O 0.8517(8) 0.6668(8) 0.1016(8)
O35 O 0.7167(18) 0.8888(16) -0.1639(16)
As1A As 1.39487(12) 0.35083(11) 0.67748(11)
W1A W 1.21522(5) 0.11223(5) 0.76406(5)
W2A W 1.60595(5) 0.21578(5) 0.59052(5)
W2A_2 W 0.60595(5) 0.21578(5) 0.59052(5)
W3A W 1.18085(6) 0.47055(6) 0.78736(6)
W4A W 1.24189(5) 0.23445(5) 0.91939(5)
W5A W 1.46812(5) 0.10336(5) 0.81587(5)
W6A W 1.35034(5) 0.22876(5) 0.53907(5)
W6A_2 W 0.35034(5) 0.22876(5) 0.53907(5)
W7A W 1.63654(6) 0.32952(6) 0.72844(5)
W8A W 1.41264(6) 0.45755(5) 0.83066(5)
W8A_2 W 0.41264(6) 0.45755(5) -0.16934(5)
W9A W 1.14967(5) 0.34797(5) 0.63660(5)
Ni1A Ni 1.61060(15) 0.49556(14) 0.52165(14)
Ni1A_2 Ni 0.61060(15) 0.49556(14) 0.52165(14)
Ni1_2 Ni 1.38940(15) 0.50444(14) 0.47835(14)
Ni2A Ni 1.41784(16) 0.60998(15) 0.60779(14)
Ni2A_2 Ni 0.41784(16) 0.60998(15) 0.60779(14)
Ni5A Ni 1.1711(2) 0.0162(2) 1.1487(2)
C1A C 1.249(2) -0.1181(19) 1.0448(18)
C2A C 0.288(2) 0.5209(19) 0.1085(19)
C3A C 0.279(2) 0.4202(19) 0.0960(19)
C4A C 0.912(2) 0.627(2) 0.609(2)
C5A C 1.090(2) -0.191(2) 1.036(2)
C6A C 1.144(3) -0.141(3) 1.083(3)
C7A C 1.063(2) 0.723(2) 0.604(2)
C8A C 1.021(2) 0.631(2) 0.589(2)
C9A C 1.031(5) 0.005(5) 1.330(5)
C10A C 1.099(5) -0.080(4) 1.341(4)
C11A C 1.353(2) 0.841(2) 0.735(2)
C12A C 1.377(3) 0.754(2) 0.710(2)
C13A C 1.358(3) 0.819(3) 0.830(3)
C14A C 0.951(6) -0.044(6) 1.422(5)
C15A C 0.169(4) 0.360(4) 0.156(4)
N1A N 1.0857(12) 0.6136(11) 0.5140(11)
N2A N 0.8752(13) 0.5350(13) 0.5944(12)
N3A N 0.3790(14) 0.3764(13) 0.0811(13)
N4A N 0.6215(13) 0.4134(14) -0.0413(13)
N5A N 1.2950(13) -0.0417(14) 1.0735(14)
N6A N 1.0790(15) -0.0696(14) 1.1155(14)
N7A N 1.049(2) 0.074(2) 1.222(2)
N8A N 1.162(3) -0.102(3) 1.263(3)
N9A N 1.4296(17) 0.9408(15) 0.6721(15)
N10A N 1.3935(14) 0.7534(13) 0.6248(12)
O1A O 1.7475(9) 0.3419(10) 0.7561(10)
O2A O 1.3480(9) 0.0759(9) 0.7827(9)
O3A O 1.4745(9) 0.1836(8) 0.5749(8)
O4A O 1.0317(9) 0.3765(9) 0.6105(8)
O5A O 1.1152(9) 0.1998(9) 0.7227(8)
O6A O 1.2735(9) 0.1059(8) 0.6507(8)
O7A O 1.6443(9) 0.4459(9) 0.6352(7)
O8A O 1.3310(8) 0.3246(8) 0.9315(8)
O9A O 1.1793(10) 0.1502(10) 1.0272(10)
O10A O 0.6131(9) 0.3504(8) 0.5118(8)
O10A_2 O 1.6131(9) 0.3504(8) 0.5118(8)
O10_2 O 1.3869(9) 0.6496(8) 0.4882(8)
O11A O 1.4438(8) 0.4636(8) 0.5900(8)
O11A_2 O 0.4438(8) 0.4636(8) 0.5900(8)
O11_2 O 1.5562(8) 0.5364(8) 0.4100(8)
O12A O 1.2389(8) 0.4569(9) 0.5600(8)
O12A_2 O 0.2389(8) 0.4569(9) 0.5600(8)
O12_2 O 1.7611(8) 0.5431(9) 0.4400(8)
O13A O 1.1312(9) 0.3871(9) 0.7338(8)
O14A O 1.5799(9) 0.1818(9) 0.8158(8)
O15A O 1.2168(9) 0.2773(9) 0.5506(8)
O16A O 1.6928(8) 0.2564(9) 0.6457(8)
O17A O 1.2705(9) 0.5030(9) 0.8458(8)
O18A O 1.5531(9) 0.0930(9) 0.7076(8)
O19A O 0.4220(9) 0.3587(9) 0.4736(7)
O19A_2 O 1.4220(9) 0.3587(9) 0.4736(7)
O19_2 O 1.5780(9) 0.6413(9) 0.5264(7)
O20A O 1.4750(10) -0.0174(9) 0.8953(9)
O21A O 1.4915(8) 0.2759(8) 0.6960(8)
O22A O 1.3623(10) 0.1750(10) 0.4598(9)
O23A O 1.2606(9) 0.5606(8) 0.6825(8)
O24A O 1.4608(8) 0.5472(8) 0.7192(8)
O25A O 1.0737(10) 0.5357(10) 0.8174(10)
O26A O 1.3715(9) 0.1608(8) 0.8887(8)
O27A O 1.1399(10) -0.0065(10) 0.8228(9)
O28A O 1.6936(10) 0.1547(9) 0.5294(9)
O29A O 1.5277(9) 0.3723(9) 0.8102(8)
O30A O 1.3102(8) 0.2821(8) 0.6591(7)
O31A O 1.1955(9) 0.1701(9) 0.8522(9)
O32A O 0.4515(10) 0.5176(10) -0.1092(9)
O32A_2 O 1.4515(10) 0.5176(10) 0.8908(9)
O33A O 1.3310(9) 0.3683(8) 0.7710(8)
O34A O 1.1483(8) 0.3332(8) 0.8984(8)
O35A O 1.2833(18) 0.1112(16) 1.1639(16)
O36 O 0.5275(14) 0.7981(12) 0.9854(12)
O37 O 0.355(2) 0.330(2) 0.2946(19)
loop_
_geom_bond_atom_site_label_1
_geom_bond_atom_site_label_2
_geom_bond_site_symmetry_1
_geom_bond_site_symmetry_2
As1 O11 1_555 1_555
W1 O2 1_555 1_555
W2 O3 1_555 1_555
W3 O13 1_555 1_555
W4 O8 1_555 1_555
W5 O2 1_555 1_555
W6 O3 1_555 1_555
W7 O1 1_555 1_555
W8 O8 1_555 1_555
W9 O4 1_555 1_555
Ni1 O7 1_555 1_555
Ni2 N10 1_555 1_555
Ni3 N1 1_555 1_555
Ni4 N3 1_555 1_555
Ni5 N5 1_555 1_555
C1 C6 1_555 1_555
C2 C3 1_555 1_555
C3 C15 1_555 1_555
C4 C8 1_555 1_555
C5 C6 1_555 1_555
C6 N6 1_555 1_555
C7 C8 1_555 1_555
C8 N1 1_555 1_555
C9 C10 1_555 1_555
C10 N8 1_555 1_555
C11 C12 1_555 1_555
C12 N10 1_555 1_555
C13 C11 1_555 1_555
C14 C9 1_555 1_555
N2 Ni3 1_555 1_555
N3 C3 1_555 1_555
N4 Ni4 1_555 1_555
N5 C1 1_555 1_555
N6 Ni5 1_555 1_555
N7 Ni5 1_555 1_555
N8 Ni5 1_555 1_555
N9 C11 1_555 1_555
O4 Ni3 1_555 1_555
O5 W1 1_555 1_555
O6 W1 1_555 1_555
O7 W7 1_555 1_555
O9 W4 1_555 1_555
O10 W2 1_555 1_555
O11 Ni1 1_555 1_555
O12 W9 1_555 1_555
O13 W9 1_555 1_555
O14 W5 1_555 1_555
O15 W6 1_555 1_555
O16 W2 1_555 1_555
O17 W3 1_555 1_555
O18 W2 1_555 1_555
O19 W6 1_555 1_555
O20 W5 1_555 1_555
O21 As1 1_555 1_555
O22 W6 1_555 1_555
O23 W3 1_555 1_555
O24 W8 1_555 1_555
O25 W3 1_555 1_555
O26 W4 1_555 1_555
O27 W1 1_555 1_555
O28 W2 1_555 1_555
O29 W7 1_555 1_555
O30 As1 1_555 1_555
O31 W1 1_555 1_555
O32 W8 1_555 1_555
O33 As1 1_555 1_555
O34 W3 1_555 1_555
O35 Ni5 1_555 1_555
As1A O11A 1_555 1_555
W1A O2A 1_555 1_555
W2A O3A 1_555 1_555
W2A_2 O10A 1_555 1_555
W3A O13A 1_555 1_555
W4A O8A 1_555 1_555
W5A O2A 1_555 1_555
W6A O3A 1_555 1_555
W6A_2 O19A 1_555 1_555
W7A O1A 1_555 1_555
W8A O8A 1_555 1_555
W8A_2 O32A 1_555 1_555
W9A O4A 1_555 1_555
Ni1A O7A 1_555 1_555
Ni1A_2 O11 1_555 1_555
Ni1_2 O10_2 1_555 1_555
Ni2A N10A 1_555 1_555
Ni2A_2 O10 1_555 1_555
Ni5A N5A 1_555 1_555
C1A C6A 1_555 1_555
C2A N4 1_555 1_555
C3A C2A 1_555 1_555
C4A C8A 1_555 1_555
C5A C6A 1_555 1_555
C6A N6A 1_555 1_555
C7A C8A 1_555 1_555
C8A N1A 1_555 1_555
C9A C10A 1_555 1_555
C10A N8A 1_555 1_555
C11A C12A 1_555 1_555
C12A N10A 1_555 1_555
C13A C11A 1_555 1_555
C14A C9A 1_555 1_555
C15A C3A 1_555 1_555
N1A Ni3 1_555 1_555
N2A Ni3 1_555 1_555
N3A Ni4 1_555 1_555
N4A Ni4 1_555 1_555
N5A C1A 1_555 1_555
N6A Ni5A 1_555 1_555
N7A Ni5A 1_555 1_555
N8A Ni5A 1_555 1_555
N9A C11A 1_555 1_555
O4A Ni3 1_555 1_555
O5A W1A 1_555 1_555
O6A W1A 1_555 1_555
O7A W7A 1_555 1_555
O9A W4A 1_555 1_555
O10A Ni2 1_555 1_555
O10A_2 W2A 1_555 1_555
O10_2 Ni2A 1_555 1_555
O11A Ni1A 1_555 1_555
O11A_2 Ni1 1_555 1_555
O11_2 Ni1A 1_555 1_555
O12A W9A 1_555 1_555
O12A_2 Ni1 1_555 1_555
O12_2 Ni1A 1_555 1_555
O13A W9A 1_555 1_555
O14A W5A 1_555 1_555
O15A W6A 1_555 1_555
O16A W2A 1_555 1_555
O17A W3A 1_555 1_555
O18A W2A 1_555 1_555
O19A Ni1 1_555 1_555
O19A_2 W6A 1_555 1_555
O19_2 Ni1A 1_555 1_555
O20A W5A 1_555 1_555
O21A As1A 1_555 1_555
O22A W6A 1_555 1_555
O23A W3A 1_555 1_555
O24A W8A 1_555 1_555
O25A W3A 1_555 1_555
O26A W4A 1_555 1_555
O27A W1A 1_555 1_555
O28A W2A 1_555 1_555
O29A W7A 1_555 1_555
O30A As1A 1_555 1_555
O31A W1A 1_555 1_555
O32A Ni4 1_555 1_555
O32A_2 W8A 1_555 1_555
O33A As1A 1_555 1_555
O34A W3A 1_555 1_555
O35A Ni5A 1_555 1_555
W1 O30 1_555 1_555
W2 O21 1_555 1_555
W3 O33 1_555 1_555
W4 O31 1_555 1_555
W4 O33 1_555 1_555
W4 O34 1_555 1_555
W5 O18 1_555 1_555
W5 O21 1_555 1_555
W5 O26 1_555 1_555
W6 O6 1_555 1_555
W6 O30 1_555 1_555
W7 O14 1_555 1_555
W7 O16 1_555 1_555
W7 O21 1_555 1_555
W8 O17 1_555 1_555
W8 O29 1_555 1_555
W8 O33 1_555 1_555
W9 O5 1_555 1_555
W9 O15 1_555 1_555
W9 O30 1_555 1_555
Ni1 O10 1_555 1_555
Ni2 O11 1_555 1_555
Ni2 O23 1_555 1_555
Ni2 O24 1_555 1_555
Ni2 O19A 1_555 1_555
Ni4 O32 1_555 1_555
Ni5 O9 1_555 1_555
C2 N4A 1_555 1_555
C4 N2 1_555 1_555
C9 N7 1_555 1_555
O12 Ni1A_2 1_555 1_555
O19 Ni1A_2 1_555 1_555
O19 Ni2A_2 1_555 1_555
W1A O30A 1_555 1_555
W2A O21A 1_555 1_555
W3A O33A 1_555 1_555
W4A O31A 1_555 1_555
W4A O33A 1_555 1_555
W4A O34A 1_555 1_555
W5A O18A 1_555 1_555
W5A O21A 1_555 1_555
W5A O26A 1_555 1_555
W6A O6A 1_555 1_555
W6A O30A 1_555 1_555
W7A O14A 1_555 1_555
W7A O16A 1_555 1_555
W7A O21A 1_555 1_555
W8A O17A 1_555 1_555
W8A O29A 1_555 1_555
W8A O33A 1_555 1_555
W9A O5A 1_555 1_555
W9A O15A 1_555 1_555
W9A O30A 1_555 1_555
Ni1A O10A_2 1_555 1_555
Ni1A_2 O10A 1_555 1_555
Ni1A_2 O11A_2 1_555 1_555
Ni1_2 O11A 1_555 1_555
Ni1_2 O11_2 1_555 1_555
Ni1_2 O12A 1_555 1_555
Ni1_2 O19A_2 1_555 1_555
Ni2A O11A 1_555 1_555
Ni2A O19_2 1_555 1_555
Ni2A O23A 1_555 1_555
Ni2A O24A 1_555 1_555
Ni2A_2 O11A_2 1_555 1_555
Ni5A O9A 1_555 1_555
C3A N3A 1_555 1_555
C4A N2A 1_555 1_555
C9A N7A 1_555 1_555

#END
