
#######################################################################
#
#                 Cambridge Crystallographic Data Centre
#                                CCDC 
#
#######################################################################
#
# If this CIF has been generated from an entry in the Cambridge 
# Structural Database, then it will include bibliographic, chemical, 
# crystal, experimental, refinement or atomic coordinate data resulting 
# from the CCDC's data processing and validation procedures.
#
#######################################################################

data_UFIVUC
_symmetry_cell_setting           triclinic
_symmetry_space_group_name_H-M   'P -1'
_symmetry_Int_Tables_number      2
_space_group_name_Hall           '-P 1'
loop_
_symmetry_equiv_pos_site_id
_symmetry_equiv_pos_as_xyz
1 x,y,z
2 -x,-y,-z
_cell_length_a                   9.5010(19)
_cell_length_b                   9.6299(19)
_cell_length_c                   12.795(3)
_cell_angle_alpha                95.85(3)
_cell_angle_beta                 91.86(3)
_cell_angle_gamma                111.73(3)
_cell_volume                     1078.68
loop_
_atom_site_label
_atom_site_type_symbol
_atom_site_fract_x
_atom_site_fract_y
_atom_site_fract_z
C1 C 1.3737(4) 0.5260(4) 0.5335(3)
H1 H 1.2891 0.5434 0.5565
C2 C 1.4979(4) 0.4358(4) 0.3988(3)
H2 H 1.4963 0.3920 0.3304
C3 C 1.3712(3) 0.4620(4) 0.4317(3)
C4 C 1.2332(3) 0.4098(4) 0.3554(3)
C5 C 1.0059(3) 0.4592(3) 0.3045(2)
C6 C 0.9042(3) 0.3116(3) 0.2750(2)
H3 H 0.9286 0.2311 0.2919
C7 C 0.7662(3) 0.2854(3) 0.2203(2)
C8 C 0.6610(3) 0.1260(3) 0.1830(2)
C9 C 0.7280(3) 0.4058(3) 0.1976(2)
H4 H 0.6339 0.3880 0.1635
C10 C 0.8304(3) 0.5528(3) 0.2259(2)
C11 C 0.7950(3) 0.6837(3) 0.1955(2)
C12 C 0.2834(3) 0.7783(3) 0.0760(3)
H5 H 0.3189 0.8830 0.0850
C13 C 0.1354(3) 0.6995(3) 0.0367(3)
H6 H 0.0739 0.7509 0.0193
C14 C 0.0788(3) 0.5447(3) 0.0232(2)
C15 C 0.1757(3) 0.4756(3) 0.0530(3)
H7 H 0.1413 0.3711 0.0468
C16 C 0.3226(3) 0.5611(3) 0.0916(3)
H8 H 0.3855 0.5123 0.1114
C17 C 0.9690(3) 0.5780(3) 0.2792(2)
H9 H 1.0378 0.6761 0.2980
N1 N 0.3787(3) 0.7124(3) 0.1019(2)
N2 N 1.1447(3) 0.4905(3) 0.3639(2)
H10 H 1.1752 0.5690 0.4100
O1 O 0.6565(3) 0.8244(3) -0.0218(2)
H11 H 0.7499 0.8776 -0.0255
H12 H 0.6020 0.8617 -0.0542
O2 O 0.6545(2) 0.6604(2) 0.17973(19)
O3 O 0.8992(3) 0.8040(3) 0.1851(3)
O4 O 0.5377(3) 0.1006(2) 0.1354(2)
O5 O 0.7077(2) 0.0234(2) 0.2027(2)
O6 O 1.2052(3) 0.2986(3) 0.2912(2)
Zn1 Zn 0.60884(4) 0.82344(4) 0.12935(3)
C1A C 1.6263(4) 0.4740(4) 0.4665(3)
H1A H 1.7109 0.4566 0.4435
C2A C 1.5021(4) 0.5642(4) 0.6012(3)
H2A H 1.5037 0.6080 0.6696
C3A C 1.6288(3) 0.5380(4) 0.5683(3)
C4A C 1.7668(3) 0.5902(4) 0.6446(3)
C5A C 1.9941(3) 0.5408(3) 0.6955(2)
C6A C 2.0958(3) 0.6884(3) 0.7250(2)
H3A H 2.0714 0.7689 0.7081
C7A C 2.2338(3) 0.7146(3) 0.7797(2)
C8A C 2.3390(3) 0.8740(3) 0.8170(2)
C9A C 2.2720(3) 0.5942(3) 0.8024(2)
H4A H 2.3661 0.6120 0.8365
C10A C 2.1696(3) 0.4472(3) 0.7741(2)
C11A C 2.2050(3) 0.3163(3) 0.8045(2)
C17A C 2.0310(3) 0.4220(3) 0.7208(2)
H9A H 1.9622 0.3239 0.7020
N2A N 1.8553(3) 0.5095(3) 0.6361(2)
H10A H 1.8248 0.4310 0.5900
O2A O 2.3455(2) 0.3396(2) 0.82027(19)
O3A O 2.1008(3) 0.1960(3) 0.8149(3)
O4A O 2.4623(3) 0.8994(2) 0.8646(2)
O5A O 2.2923(2) 0.9766(2) 0.7973(2)
O6A O 1.7948(3) 0.7014(3) 0.7088(2)
C12A C -0.2834(3) 0.2217(3) -0.0760(3)
H5A H -0.3189 0.1170 -0.0850
C13A C -0.1354(3) 0.3005(3) -0.0367(3)
H6A H -0.0739 0.2491 -0.0193
C14A C -0.0788(3) 0.4553(3) -0.0232(2)
C15A C -0.1757(3) 0.5244(3) -0.0530(3)
H7A H -0.1413 0.6289 -0.0468
C16A C -0.3226(3) 0.4389(3) -0.0916(3)
H8A H -0.3855 0.4877 -0.1114
N1A N -0.3787(3) 0.2876(3) -0.1019(2)
O1A O -0.6565(3) 0.1756(3) 0.0218(2)
H11A H -0.7499 0.1224 0.0255
H12A H -0.6020 0.1383 0.0542
Zn1A Zn -0.60884(4) 0.17656(4) -0.12935(3)
O2A_2 O -0.6545(2) 0.3396(2) -0.17973(19)
O5_2 O 0.7077(2) 1.0234(2) 0.2027(2)
O5A_2 O -0.7077(2) -0.0234(2) -0.2027(2)
Zn1_2 Zn 0.60884(4) -0.17656(4) 0.12935(3)
Zn1A_2 Zn 2.39116(4) 0.17656(4) 0.87065(3)
Zn1A_3 Zn 2.39116(4) 1.17656(4) 0.87065(3)
O7 O 0.9218(3) 0.9091(3) 0.8887(2)
H13 H 0.9810 0.9959 0.8766
H14 H 0.8931 0.8508 0.8311
loop_
_geom_bond_atom_site_label_1
_geom_bond_atom_site_label_2
_geom_bond_site_symmetry_1
_geom_bond_site_symmetry_2
C1 H1 1_555 1_555
C2 H2 1_555 1_555
C3 C1 1_555 1_555
C4 C3 1_555 1_555
C5 C6 1_555 1_555
C6 H3 1_555 1_555
C7 C6 1_555 1_555
C8 C7 1_555 1_555
C9 C7 1_555 1_555
H4 C9 1_555 1_555
C10 C9 1_555 1_555
C11 C10 1_555 1_555
C12 H5 1_555 1_555
C13 C12 1_555 1_555
H6 C13 1_555 1_555
C14 C13 1_555 1_555
C15 C14 1_555 1_555
H7 C15 1_555 1_555
C16 C15 1_555 1_555
H8 C16 1_555 1_555
C17 C5 1_555 1_555
H9 C17 1_555 1_555
N1 C12 1_555 1_555
N2 C4 1_555 1_555
H10 N2 1_555 1_555
O1 H11 1_555 1_555
H12 O1 1_555 1_555
O2 C11 1_555 1_555
O3 C11 1_555 1_555
O4 C8 1_555 1_555
O5 C8 1_555 1_555
O6 C4 1_555 1_555
Zn1 N1 1_555 1_555
O7 H13 1_555 1_555
H14 O7 1_555 1_555
C1A C2 1_555 1_555
H1A C1A 1_555 1_555
C2A C1 1_555 1_555
H2A C2A 1_555 1_555
C3A C1A 1_555 1_555
C4A C3A 1_555 1_555
C5A C6A 1_555 1_555
C6A H3A 1_555 1_555
C7A C6A 1_555 1_555
C8A C7A 1_555 1_555
C9A C7A 1_555 1_555
H4A C9A 1_555 1_555
C10A C9A 1_555 1_555
C11A C10A 1_555 1_555
C17A C5A 1_555 1_555
H9A C17A 1_555 1_555
N2A C4A 1_555 1_555
H10A N2A 1_555 1_555
O2A C11A 1_555 1_555
O3A C11A 1_555 1_555
O4A C8A 1_555 1_555
O5A C8A 1_555 1_555
O6A C4A 1_555 1_555
C12A H5A 1_555 1_555
C13A C12A 1_555 1_555
H6A C13A 1_555 1_555
C14A C14 1_555 1_555
C15A C14A 1_555 1_555
H7A C15A 1_555 1_555
C16A C15A 1_555 1_555
H8A C16A 1_555 1_555
N1A C12A 1_555 1_555
O1A H11A 1_555 1_555
H12A O1A 1_555 1_555
Zn1A N1A 1_555 1_555
O2A_2 Zn1A 1_555 1_555
O5_2 Zn1 1_555 1_555
O5A_2 Zn1A 1_555 1_555
Zn1_2 O5 1_555 1_555
Zn1A_2 O2A 1_555 1_555
Zn1A_3 O5A 1_555 1_555
C2 C3 1_555 1_555
C5 N2 1_555 1_555
C10 C17 1_555 1_555
C16 N1 1_555 1_555
O1 Zn1 1_555 1_555
O2 Zn1 1_555 1_555
C2A C3A 1_555 1_555
C5A N2A 1_555 1_555
C10A C17A 1_555 1_555
C13A C14A 1_555 1_555
C16A N1A 1_555 1_555
O1A Zn1A 1_555 1_555

#END
