
#######################################################################
#
#                 Cambridge Crystallographic Data Centre
#                                CCDC 
#
#######################################################################
#
# If this CIF has been generated from an entry in the Cambridge 
# Structural Database, then it will include bibliographic, chemical, 
# crystal, experimental, refinement or atomic coordinate data resulting 
# from the CCDC's data processing and validation procedures.
#
#######################################################################

data_UFIWOX
_symmetry_cell_setting           monoclinic
_symmetry_space_group_name_H-M   'P 21/n'
_symmetry_Int_Tables_number      14
_space_group_name_Hall           '-P 2yn'
loop_
_symmetry_equiv_pos_site_id
_symmetry_equiv_pos_as_xyz
1 x,y,z
2 1/2-x,1/2+y,1/2-z
3 -x,-y,-z
4 1/2+x,1/2-y,1/2+z
_cell_length_a                   9.0957(2)
_cell_length_b                   15.1667(3)
_cell_length_c                   12.0825(3)
_cell_angle_alpha                90
_cell_angle_beta                 109.627(2)
_cell_angle_gamma                90
_cell_volume                     1569.96
loop_
_atom_site_label
_atom_site_type_symbol
_atom_site_fract_x
_atom_site_fract_y
_atom_site_fract_z
Er1 Er 0.74581(3) 0.009718(17) 0.25300(2)
Cl1 Cl 0.78169(12) 0.17866(7) 0.32462(9)
O1 O 0.5895(3) -0.08304(19) 0.0989(2)
O2 O 0.8908(4) 0.0164(2) 0.1295(3)
H1 H 0.9757 -0.0111 0.1413
H2 H 0.8504 0.0497 0.0711
O3 O 0.4110(3) -0.09152(19) -0.0821(2)
O4 O 0.5101(4) 0.0119(2) 0.2861(3)
H3 H 0.4804 0.0583 0.3115
H4 H 0.4531 -0.0337 0.2727
O5 O 1.0177(4) 0.0094(2) 0.3615(3)
O6 O 0.7931(4) -0.1376(2) 0.2956(3)
H5 H 0.8449 -0.1537 0.3646
H6 H 0.7585 -0.1758 0.2422
O7 O 1.2028(3) 0.00751(18) 0.5392(3)
C1 C 0.5000(4) -0.0510(3) 0.0050(3)
C2 C 1.0635(5) 0.0049(3) 0.4704(4)
O1B O 0.4105(3) 0.08304(19) -0.0989(2)
O3B O 0.5890(3) 0.09152(19) 0.0821(2)
C1B C 0.5000(4) 0.0510(3) -0.0050(3)
O5B O 0.9823(4) -0.0094(2) 0.6385(3)
O7B O 0.7972(3) -0.00751(18) 0.4608(3)
C2B C 0.9365(5) -0.0049(3) 0.5296(4)
Er1B Er 0.25419(3) -0.009718(17) -0.25300(2)
Cl1B Cl 0.21831(12) -0.17866(7) -0.32462(9)
O2B O 0.1092(4) -0.0164(2) -0.1295(3)
H1B H 0.0243 0.0111 -0.1413
H2B H 0.1496 -0.0497 -0.0711
O4B O 0.4899(4) -0.0119(2) -0.2861(3)
H3B H 0.5196 -0.0583 -0.3115
H4B H 0.5469 0.0337 -0.2727
O6B O 0.2069(4) 0.1376(2) -0.2956(3)
H5B H 0.1551 0.1537 -0.3646
H6B H 0.2415 0.1758 -0.2422
Er1B_2 Er 1.25419(3) -0.009718(17) 0.74700(2)
O5B_2 O -0.0177(4) -0.0094(2) -0.3615(3)
O7_2 O 0.2028(3) 0.00751(18) -0.4608(3)
Cl2 Cl 1.29560(12) -0.56627(7) 0.37089(9)
O8 O 1.0879(4) -0.4072(2) 0.0499(3)
H7 H 1.1476 -0.4426 0.0310
N1 N 0.8037(4) -0.2424(2) -0.1321(3)
C3 C 0.8751(6) -0.2185(4) -0.2237(4)
H8 H 0.8251 -0.1651 -0.2651
H9 H 0.8597 -0.2671 -0.2799
H10 H 0.9871 -0.2078 -0.1857
C4 C 0.6301(6) -0.2538(3) -0.1921(5)
H11 H 0.5843 -0.1979 -0.2279
H12 H 0.5823 -0.2719 -0.1341
H13 H 0.6112 -0.2991 -0.2531
C5 C 0.8296(6) -0.1704(3) -0.0442(4)
H14 H 0.7787 -0.1164 -0.0833
H15 H 0.9419 -0.1598 -0.0076
H16 H 0.7853 -0.1874 0.0162
C6 C 0.8695(5) -0.3291(3) -0.0738(4)
H17 H 0.8240 -0.3419 -0.0117
H18 H 0.8368 -0.3768 -0.1329
C7 C 1.0467(5) -0.3299(3) -0.0194(4)
H19 H 1.0949 -0.3304 -0.0817
H20 H 1.0834 -0.2769 0.0300
O9 O 0.8912(4) -0.2312(2) 0.4902(3)
H21 H 0.8397 -0.2785 0.4854
H22 H 0.9648 -0.2190 0.5527
loop_
_geom_bond_atom_site_label_1
_geom_bond_atom_site_label_2
_geom_bond_site_symmetry_1
_geom_bond_site_symmetry_2
Er1 Cl1 1_555 1_555
O1 Er1 1_555 1_555
O2 Er1 1_555 1_555
H1 O2 1_555 1_555
H2 O2 1_555 1_555
O3 C1 1_555 1_555
O4 Er1 1_555 1_555
H3 O4 1_555 1_555
H4 O4 1_555 1_555
O5 Er1 1_555 1_555
O6 Er1 1_555 1_555
H5 O6 1_555 1_555
H6 O6 1_555 1_555
O7 C2 1_555 1_555
C1 O1 1_555 1_555
C2 O5 1_555 1_555
O8 H7 1_555 1_555
N1 C3 1_555 1_555
C3 H8 1_555 1_555
H9 C3 1_555 1_555
H10 C3 1_555 1_555
C4 N1 1_555 1_555
H11 C4 1_555 1_555
H12 C4 1_555 1_555
H13 C4 1_555 1_555
C5 N1 1_555 1_555
H14 C5 1_555 1_555
H15 C5 1_555 1_555
H16 C5 1_555 1_555
C6 N1 1_555 1_555
H17 C6 1_555 1_555
H18 C6 1_555 1_555
C7 O8 1_555 1_555
H19 C7 1_555 1_555
H20 C7 1_555 1_555
O9 H21 1_555 1_555
H22 O9 1_555 1_555
O1B C1B 1_555 1_555
O3B Er1 1_555 1_555
C1B C1 1_555 1_555
O5B C2B 1_555 1_555
O7B Er1 1_555 1_555
C2B C2 1_555 1_555
Er1B O3 1_555 1_555
Cl1B Er1B 1_555 1_555
O2B Er1B 1_555 1_555
H1B O2B 1_555 1_555
H2B O2B 1_555 1_555
O4B Er1B 1_555 1_555
H3B O4B 1_555 1_555
H4B O4B 1_555 1_555
O6B Er1B 1_555 1_555
H5B O6B 1_555 1_555
H6B O6B 1_555 1_555
Er1B_2 O7 1_555 1_555
O5B_2 Er1B 1_555 1_555
O7_2 Er1B 1_555 1_555
C6 C7 1_555 1_555
O1B Er1B 1_555 1_555
O3B C1B 1_555 1_555
O5B Er1B_2 1_555 1_555
O7B C2B 1_555 1_555

#END
