
#######################################################################
#
#                 Cambridge Crystallographic Data Centre
#                                CCDC 
#
#######################################################################
#
# If this CIF has been generated from an entry in the Cambridge 
# Structural Database, then it will include bibliographic, chemical, 
# crystal, experimental, refinement or atomic coordinate data resulting 
# from the CCDC's data processing and validation procedures.
#
#######################################################################

data_UFIYIR
_symmetry_cell_setting           monoclinic
_symmetry_space_group_name_H-M   'P 21/c'
_symmetry_Int_Tables_number      14
_space_group_name_Hall           '-P 2ybc'
loop_
_symmetry_equiv_pos_site_id
_symmetry_equiv_pos_as_xyz
1 x,y,z
2 x,1/2-y,1/2+z
3 -x,-y,-z
4 -x,1/2+y,1/2-z
_cell_length_a                   6.7719(10)
_cell_length_b                   10.3293(15)
_cell_length_c                   20.152(3)
_cell_angle_alpha                90
_cell_angle_beta                 97.573(3)
_cell_angle_gamma                90
_cell_volume                     1397.32
loop_
_atom_site_label
_atom_site_type_symbol
_atom_site_fract_x
_atom_site_fract_y
_atom_site_fract_z
In1 In 0.14349(10) 0.43048(7) 0.23968(3)
In2 In 0.65935(10) 0.26706(7) 0.26636(3)
O1 O 0.1773(9) 0.2361(6) 0.2001(3)
O2 O 0.4848(10) 0.2043(7) 0.1725(3)
O3 O 0.1148(10) 0.1204(9) -0.1583(3)
O4 O -0.1912(10) 0.1735(8) -0.1369(3)
O5 O 0.4676(10) 0.6240(6) 0.1692(3)
O6 O 0.2151(10) 0.4862(7) 0.1406(3)
O7 O 0.1362(10) 0.6272(7) 0.2556(4)
O8 O 0.4463(10) 0.4110(7) 0.2762(4)
O9 O -0.1684(10) 0.4029(7) 0.2149(4)
C1 C 0.2975(14) 0.2061(9) 0.1586(5)
C2 C 0.2121(14) 0.1773(9) 0.0885(4)
C3 C 0.3379(14) 0.1397(11) 0.0426(5)
H1 H 0.4715(14) 0.1227(11) 0.0569(5)
C4 C 0.2638(15) 0.1276(11) -0.0243(5)
H2 H 0.3480(15) 0.1035(11) -0.0551(5)
C5 C 0.0651(15) 0.1511(9) -0.0455(5)
C6 C -0.0616(15) 0.1863(10) -0.0009(5)
H3 H -0.1953(15) 0.2017(10) -0.0160(5)
C7 C 0.0083(15) 0.1992(10) 0.0664(5)
H4 H -0.0780(15) 0.2219(10) 0.0968(5)
C8 C -0.0103(16) 0.1459(10) -0.1199(5)
C9 C 0.3685(14) 0.5469(9) 0.1294(4)
C10 C 0.4378(15) 0.5227(10) 0.0619(4)
C11 C 0.6300(16) 0.5532(10) 0.0522(5)
C12 C 0.3091(15) 0.4694(11) 0.0101(5)
H5 H 0.091(14) 0.6672(97) 0.2862(49)
H6 H -0.201(13) 0.4740(90) 0.2037(44)
H7 H 0.736(15) 0.612(11) 0.0912(53)
H8 H 0.1722 0.5000 0.0118
H9 H 0.496(15) 0.452(10) 0.3072(52)
C12B C 0.6909(15) 0.5306(11) -0.0101(5)
C10B C 0.5622(15) 0.4773(10) -0.0619(4)
C9B C 0.6315(14) 0.4531(9) -0.1294(4)
O5B O 0.5324(10) 0.3760(6) -0.1692(3)
O6B O 0.7849(10) 0.5138(7) -0.1406(3)
C11B C 0.3700(16) 0.4468(10) -0.0522(5)
H7B H 0.264(15) 0.388(11) -0.0912(53)
H8B H 0.8278 0.5000 -0.0118
O1A O 0.1773(9) 0.2639(6) 0.7001(3)
O2A O 0.4848(10) 0.2957(7) 0.6725(3)
O3A O 0.1148(10) 0.3796(9) 0.3417(3)
O4A O -0.1912(10) 0.3265(8) 0.3631(3)
C1A C 0.2975(14) 0.2939(9) 0.6586(5)
C2A C 0.2121(14) 0.3227(9) 0.5885(4)
C3A C 0.3379(14) 0.3603(11) 0.5426(5)
H1A H 0.4715(14) 0.3773(11) 0.5569(5)
C4A C 0.2638(15) 0.3724(11) 0.4757(5)
H2A H 0.3480(15) 0.3965(11) 0.4449(5)
C5A C 0.0651(15) 0.3489(9) 0.4545(5)
C6A C -0.0616(15) 0.3137(10) 0.4991(5)
H3A H -0.1953(15) 0.2983(10) 0.4840(5)
C7A C 0.0083(15) 0.3008(10) 0.5664(5)
H4A H -0.0780(15) 0.2781(10) 0.5968(5)
C8A C -0.0103(16) 0.3541(10) 0.3801(5)
In1A In 0.14349(10) 0.06952(7) 0.73968(3)
In2A In 0.65935(10) 0.23294(7) 0.76636(3)
O7C O 0.8638(10) 0.1272(7) 0.2444(4)
H5C H 0.909(14) 0.1672(97) 0.2138(49)
O9_2 O 0.8316(10) 0.4029(7) 0.2149(4)
H6_2 H 0.799(13) 0.4740(90) 0.2037(44)
O8A O 0.4463(10) 0.0890(7) 0.7762(4)
H9A H 0.496(15) 0.048(10) 0.8072(52)
O4A_2 O 0.8088(10) 0.3265(8) 0.3631(3)
O5C O 0.5324(10) 0.1240(6) 0.3308(3)
In1A_2 In 0.14349(10) 0.06952(7) -0.26032(3)
In2A_2 In -0.34065(10) 0.23294(7) -0.23364(3)
In2C In 0.34065(10) 0.76706(7) 0.23364(3)
In2_2 In -0.34065(10) 0.26706(7) 0.26636(3)
In2A_3 In 0.65935(10) 0.23294(7) -0.23364(3)
In1B In 0.85651(10) 0.56952(7) -0.23968(3)
O3_2 O 0.1148(10) 0.1204(9) 0.8417(3)
O6A O 0.2151(10) 0.0138(7) 0.6406(3)
O7A O 0.1362(10) -0.1272(7) 0.7556(4)
O9A O -0.1684(10) 0.0971(7) 0.7149(4)
O4_2 O 0.8088(10) 0.1735(8) 0.8631(3)
O5B_2 O 0.5324(10) 0.3760(6) 0.8308(3)
O7B O 0.8638(10) 0.3728(7) 0.7444(4)
O9A_2 O 0.8316(10) 0.0971(7) 0.7149(4)
In1C In 0.85651(10) -0.06952(7) 0.26032(3)
In1_2 In 1.14349(10) 0.43048(7) 0.23968(3)
H5A H 0.091(14) -0.1672(97) 0.7862(49)
H6A H -0.201(13) 0.0260(90) 0.7037(44)
H5B H 0.909(14) 0.3328(97) 0.7138(49)
H6A_2 H 0.799(13) 0.0260(90) 0.7037(44)
loop_
_geom_bond_atom_site_label_1
_geom_bond_atom_site_label_2
_geom_bond_site_symmetry_1
_geom_bond_site_symmetry_2
In1 O1 1_555 1_555
In2 O2 1_555 1_555
O1 C1 1_555 1_555
O2 C1 1_555 1_555
O3 C8 1_555 1_555
O4 C8 1_555 1_555
O5 C9 1_555 1_555
O6 In1 1_555 1_555
O7 In1 1_555 1_555
O8 In1 1_555 1_555
O9 In1 1_555 1_555
C1 C2 1_555 1_555
C2 C3 1_555 1_555
C3 H1 1_555 1_555
C4 C3 1_555 1_555
H2 C4 1_555 1_555
C5 C4 1_555 1_555
C6 C5 1_555 1_555
H3 C6 1_555 1_555
C7 C2 1_555 1_555
H4 C7 1_555 1_555
C8 C5 1_555 1_555
C9 O6 1_555 1_555
C10 C9 1_555 1_555
C11 C10 1_555 1_555
C12 C10 1_555 1_555
H5 O7 1_555 1_555
H6 O9 1_555 1_555
H7 C11 1_555 1_555
H8 C12 1_555 1_555
H9 O8 1_555 1_555
C12B C11 1_555 1_555
C10B C12B 1_555 1_555
C9B C10B 1_555 1_555
O5B C9B 1_555 1_555
O6B C9B 1_555 1_555
C11B C12 1_555 1_555
H7B C11B 1_555 1_555
H8B C12B 1_555 1_555
O1A C1A 1_555 1_555
O2A C1A 1_555 1_555
O3A In1 1_555 1_555
O4A C8A 1_555 1_555
C1A C2A 1_555 1_555
C2A C3A 1_555 1_555
C3A H1A 1_555 1_555
C4A C3A 1_555 1_555
H2A C4A 1_555 1_555
C5A C4A 1_555 1_555
C6A C5A 1_555 1_555
H3A C6A 1_555 1_555
C7A C2A 1_555 1_555
H4A C7A 1_555 1_555
C8A O3A 1_555 1_555
In1A O1A 1_555 1_555
In2A O2A 1_555 1_555
O7C In2 1_555 1_555
H5C O7C 1_555 1_555
O9_2 In2 1_555 1_555
H6_2 O9_2 1_555 1_555
O8A In1A 1_555 1_555
H9A O8A 1_555 1_555
O4A_2 In2 1_555 1_555
O5C In2 1_555 1_555
In1A_2 O3 1_555 1_555
In2A_2 O4 1_555 1_555
In2C O5 1_555 1_555
In2_2 O9 1_555 1_555
In2A_3 O5B 1_555 1_555
In1B O6B 1_555 1_555
O3_2 In1A 1_555 1_555
O6A In1A 1_555 1_555
O7A In1A 1_555 1_555
O9A In1A 1_555 1_555
O4_2 In2A 1_555 1_555
O5B_2 In2A 1_555 1_555
O7B In2A 1_555 1_555
O9A_2 In2A 1_555 1_555
In1C O7C 1_555 1_555
In1_2 O9_2 1_555 1_555
H5A O7A 1_555 1_555
H6A O9A 1_555 1_555
H5B O7B 1_555 1_555
H6A_2 O9A_2 1_555 1_555
In2 O8 1_555 1_555
O7 In2C 1_555 1_555
C6 C7 1_555 1_555
C10B C11B 1_555 1_555
O4A In2_2 1_555 1_555
C5A C8A 1_555 1_555
C6A C7A 1_555 1_555
In2A O8A 1_555 1_555

#END
