
#######################################################################
#
#                 Cambridge Crystallographic Data Centre
#                                CCDC 
#
#######################################################################
#
# If this CIF has been generated from an entry in the Cambridge 
# Structural Database, then it will include bibliographic, chemical, 
# crystal, experimental, refinement or atomic coordinate data resulting 
# from the CCDC's data processing and validation procedures.
#
#######################################################################

data_UFOCID
_symmetry_cell_setting           rhombohedral
_symmetry_space_group_name_H-M   'R 3 2'
_symmetry_Int_Tables_number      155
_space_group_name_Hall           'R 3 2"'
loop_
_symmetry_equiv_pos_site_id
_symmetry_equiv_pos_as_xyz
1 x,y,z
2 -y,x-y,z
3 -x+y,-x,z
4 y,x,-z
5 x-y,-y,-z
6 -x,-x+y,-z
7 2/3+x,1/3+y,1/3+z
8 2/3-y,1/3+x-y,1/3+z
9 2/3-x+y,1/3-x,1/3+z
10 2/3+y,1/3+x,1/3-z
11 2/3+x-y,1/3-y,1/3-z
12 2/3-x,1/3-x+y,1/3-z
13 1/3+x,2/3+y,2/3+z
14 1/3-y,2/3+x-y,2/3+z
15 1/3-x+y,2/3-x,2/3+z
16 1/3+y,2/3+x,2/3-z
17 1/3+x-y,2/3-y,2/3-z
18 1/3-x,2/3-x+y,2/3-z
_cell_length_a                   9.59930(10)
_cell_length_b                   9.59930(10)
_cell_length_c                   20.4611(4)
_cell_angle_alpha                90
_cell_angle_beta                 90
_cell_angle_gamma                120
_cell_volume                     1632.82
loop_
_atom_site_label
_atom_site_type_symbol
_atom_site_fract_x
_atom_site_fract_y
_atom_site_fract_z
Y1 Y 0.3333 0.6667 0.400999(6)
O1 O 0.13663(9) 0.52284(9) 0.48669(4)
H1 H 0.1604(18) 0.4842(19) 0.5177(7)
O2 O 0.34774(10) 0.84640(11) 0.32025(5)
H2 H 0.4211(16) 0.9092(19) 0.2968(8)
H3 H 0.2619(16) 0.823(2) 0.3009(8)
O3 O 0.10463(10) 0.70342(10) 0.40555(4)
O4 O -0.15324(10) 0.61125(12) 0.43023(4)
C1 C 0.0000 0.53527(13) 0.5000
C2 C -0.01970(12) 0.62187(13) 0.43950(5)
O1E O -0.13663(9) 0.38621(13) 0.51331(4)
H1E H -0.1604(18) 0.3238(26) 0.4823(7)
O3E O -0.10463(10) 0.59879(14) 0.59445(4)
O4E O 0.15324(10) 0.76449(16) 0.56977(4)
C2E C 0.01970(12) 0.64157(18) 0.56050(5)
O2A O 0.15360(11) 0.50134(15) 0.32025(5)
H2A H 0.0908(19) 0.5119(25) 0.2968(8)
H3A H 0.177(2) 0.4389(26) 0.3009(8)
O2B O 0.49866(15) 0.65226(10) 0.32025(5)
H2B H 0.4881(25) 0.5789(16) 0.2968(8)
H3B H 0.5611(26) 0.7381(16) 0.3009(8)
Y1C Y 0.6667 1.3333 0.599001(6)
O1C O 0.52284(9) 1.13663(9) 0.51331(4)
H1C H 0.4842(19) 1.1604(18) 0.4823(7)
O2C O 0.84640(11) 1.34774(10) 0.67975(5)
H2C H 0.9092(19) 1.4211(16) 0.7032(8)
H3C H 0.823(2) 1.2619(16) 0.6991(8)
O3C O 0.70342(10) 1.10463(10) 0.59445(4)
O4C O 0.61125(12) 0.84676(10) 0.56977(4)
C1B C 0.53527(13) 1.0000 0.5000
C2C C 0.62187(13) 0.98030(12) 0.56050(5)
O1B O 0.38621(13) 0.86337(9) 0.48669(4)
H1B H 0.3238(26) 0.8396(18) 0.5177(7)
O3B O 0.59879(14) 0.89537(10) 0.40555(4)
O4B O 0.76449(16) 1.15324(10) 0.43023(4)
C2B C 0.64157(18) 1.01970(12) 0.43950(5)
O1A O 0.47716(9) 0.61379(13) 0.48669(4)
H1A H 0.5158(19) 0.6762(26) 0.5177(7)
O3A O 0.29658(10) 0.40121(14) 0.40555(4)
O4A O 0.38875(12) 0.23551(16) 0.43023(4)
C1A C 0.46473(13) 0.46473(13) 0.5000
C2A C 0.37813(13) 0.35843(18) 0.43950(5)
O1D O 0.61379(13) 0.47716(9) 0.51331(4)
H1D H 0.6762(26) 0.5158(19) 0.4823(7)
O3D O 0.40121(14) 0.29658(10) 0.59445(4)
O4D O 0.23551(16) 0.38875(12) 0.56977(4)
C2D C 0.35843(18) 0.37813(13) 0.56050(5)
O2D O 0.50134(15) 1.15360(11) 0.67975(5)
H2D H 0.5119(25) 1.0908(19) 0.7032(8)
H3D H 0.4389(26) 1.177(2) 0.6991(8)
O2E O 0.65226(10) 1.49866(15) 0.67975(5)
H2E H 0.5789(16) 1.4881(25) 0.7032(8)
H3E H 0.7381(16) 1.5611(26) 0.6991(8)
Y1C_2 Y -0.3333 0.3333 0.599001(6)
Y1C_3 Y 0.6667 0.3333 0.599001(6)
O1D_2 O 0.61379(13) 1.47716(9) 0.51331(4)
O1E_2 O 0.86337(9) 1.38621(13) 0.51331(4)
O3D_2 O 0.40121(14) 1.29658(10) 0.59445(4)
O3E_2 O 0.89537(10) 1.59879(14) 0.59445(4)
O5 O 0.3333 0.6667 0.1667
loop_
_geom_bond_atom_site_label_1
_geom_bond_atom_site_label_2
_geom_bond_site_symmetry_1
_geom_bond_site_symmetry_2
Y1 O1 1_555 1_555
O1 H1 1_555 1_555
O2 Y1 1_555 1_555
H2 O2 1_555 1_555
H3 O2 1_555 1_555
O3 Y1 1_555 1_555
O4 C2 1_555 1_555
C1 O1 1_555 1_555
C2 O3 1_555 1_555
O1E C1 1_555 1_555
H1E O1E 1_555 1_555
O3E C2E 1_555 1_555
O4E C2E 1_555 1_555
C2E C1 1_555 1_555
O2A Y1 1_555 1_555
H2A O2A 1_555 1_555
H3A O2A 1_555 1_555
O2B Y1 1_555 1_555
H2B O2B 1_555 1_555
H3B O2B 1_555 1_555
Y1C O1C 1_555 1_555
O1C H1C 1_555 1_555
O2C Y1C 1_555 1_555
H2C O2C 1_555 1_555
H3C O2C 1_555 1_555
O3C Y1C 1_555 1_555
O4C C2C 1_555 1_555
C1B O1C 1_555 1_555
C2C O3C 1_555 1_555
O1B Y1 1_555 1_555
H1B O1B 1_555 1_555
O3B Y1 1_555 1_555
O4B C2B 1_555 1_555
C2B C1B 1_555 1_555
O1A Y1 1_555 1_555
H1A O1A 1_555 1_555
O3A Y1 1_555 1_555
O4A C2A 1_555 1_555
C1A O1A 1_555 1_555
C2A O3A 1_555 1_555
O1D C1A 1_555 1_555
H1D O1D 1_555 1_555
O3D C2D 1_555 1_555
O4D C2D 1_555 1_555
C2D C1A 1_555 1_555
O2D Y1C 1_555 1_555
H2D O2D 1_555 1_555
H3D O2D 1_555 1_555
O2E Y1C 1_555 1_555
H2E O2E 1_555 1_555
H3E O2E 1_555 1_555
Y1C_2 O1E 1_555 1_555
Y1C_3 O1D 1_555 1_555
O1D_2 Y1C 1_555 1_555
O1E_2 Y1C 1_555 1_555
O3D_2 Y1C 1_555 1_555
O3E_2 Y1C 1_555 1_555
C1 C2 1_555 1_555
O3E Y1C_2 1_555 1_555
C1B C2C 1_555 1_555
C1B O1B 1_555 1_555
O3B C2B 1_555 1_555
C1A C2A 1_555 1_555
O3D Y1C_3 1_555 1_555

#END
