
#######################################################################
#
#                 Cambridge Crystallographic Data Centre
#                                CCDC 
#
#######################################################################
#
# If this CIF has been generated from an entry in the Cambridge 
# Structural Database, then it will include bibliographic, chemical, 
# crystal, experimental, refinement or atomic coordinate data resulting 
# from the CCDC's data processing and validation procedures.
#
#######################################################################

data_UFOCEZ
_symmetry_cell_setting           rhombohedral
_symmetry_space_group_name_H-M   'R 3 2'
_symmetry_Int_Tables_number      155
_space_group_name_Hall           'R 3 2"'
loop_
_symmetry_equiv_pos_site_id
_symmetry_equiv_pos_as_xyz
1 x,y,z
2 -y,x-y,z
3 -x+y,-x,z
4 y,x,-z
5 x-y,-y,-z
6 -x,-x+y,-z
7 2/3+x,1/3+y,1/3+z
8 2/3-y,1/3+x-y,1/3+z
9 2/3-x+y,1/3-x,1/3+z
10 2/3+y,1/3+x,1/3-z
11 2/3+x-y,1/3-y,1/3-z
12 2/3-x,1/3-x+y,1/3-z
13 1/3+x,2/3+y,2/3+z
14 1/3-y,2/3+x-y,2/3+z
15 1/3-x+y,2/3-x,2/3+z
16 1/3+y,2/3+x,2/3-z
17 1/3+x-y,2/3-y,2/3-z
18 1/3-x,2/3-x+y,2/3-z
_cell_length_a                   9.55760(10)
_cell_length_b                   9.55760(10)
_cell_length_c                   20.3233(4)
_cell_angle_alpha                90
_cell_angle_beta                 90
_cell_angle_gamma                120
_cell_volume                     1607.76
loop_
_atom_site_label
_atom_site_type_symbol
_atom_site_fract_x
_atom_site_fract_y
_atom_site_fract_z
Yb1 Yb 0.3333 0.6667 0.401726(4)
O1 O 0.34917(16) 0.84620(17) 0.32194(7)
H1 H 0.425(2) 0.908(3) 0.2979(10)
H2 H 0.266(2) 0.833(3) 0.3034(12)
O2 O 0.13724(15) 0.52278(14) 0.48676(6)
H3 H 0.161(3) 0.482(3) 0.5162(9)
O3 O 0.10665(15) 0.70489(15) 0.40553(6)
O4 O -0.15311(16) 0.61085(18) 0.42923(7)
C1 C 0.0000 0.5343(2) 0.5000
C2 C -0.0189(2) 0.6222(2) 0.43903(8)
O2E O -0.13724(15) 0.38554(21) 0.51324(6)
H3E H -0.161(3) 0.321(4) 0.4838(9)
O3E O -0.10665(15) 0.59824(21) 0.59447(6)
O4E O 0.15311(16) 0.76396(24) 0.57077(7)
C2E C 0.0189(2) 0.6411(3) 0.56097(8)
O1A O 0.15380(17) 0.50297(23) 0.32194(7)
H1A H 0.092(3) 0.517(4) 0.2979(10)
H2A H 0.167(3) 0.433(4) 0.3034(12)
O1B O 0.49703(23) 0.65083(16) 0.32194(7)
H1B H 0.483(4) 0.575(2) 0.2979(10)
H2B H 0.567(4) 0.734(2) 0.3034(12)
Yb1C Yb 0.6667 1.3333 0.598274(4)
O1C O 0.84620(17) 1.34917(16) 0.67806(7)
H1C H 0.908(3) 1.425(2) 0.7021(10)
H2C H 0.833(3) 1.266(2) 0.6966(12)
O2C O 0.52278(14) 1.13724(15) 0.51324(6)
H3C H 0.482(3) 1.161(3) 0.4838(9)
O3C O 0.70489(15) 1.10665(15) 0.59447(6)
O4C O 0.61085(18) 0.84689(16) 0.57077(7)
C1B C 0.5343(2) 1.0000 0.5000
C2C C 0.6222(2) 0.9811(2) 0.56097(8)
O2B O 0.38554(21) 0.86276(15) 0.48676(6)
H3B H 0.321(4) 0.839(3) 0.5162(9)
O3B O 0.59824(21) 0.89335(15) 0.40553(6)
O4B O 0.76396(24) 1.15311(16) 0.42923(7)
C2B C 0.6411(3) 1.0189(2) 0.43903(8)
O2A O 0.47722(14) 0.61446(21) 0.48676(6)
H3A H 0.518(3) 0.679(4) 0.5162(9)
O3A O 0.29511(15) 0.40176(21) 0.40553(6)
O4A O 0.38915(18) 0.23604(24) 0.42923(7)
C1A C 0.4657(2) 0.4657(2) 0.5000
C2A C 0.3778(2) 0.3589(3) 0.43903(8)
O2D O 0.61446(21) 0.47722(14) 0.51324(6)
H3D H 0.679(4) 0.518(3) 0.4838(9)
O3D O 0.40176(21) 0.29511(15) 0.59447(6)
O4D O 0.23604(24) 0.38915(18) 0.57077(7)
C2D C 0.3589(3) 0.3778(2) 0.56097(8)
O1D O 0.50297(23) 1.15380(17) 0.67806(7)
H1D H 0.517(4) 1.092(3) 0.7021(10)
H2D H 0.433(4) 1.167(3) 0.6966(12)
O1E O 0.65083(16) 1.49703(23) 0.67806(7)
H1E H 0.575(2) 1.483(4) 0.7021(10)
H2E H 0.734(2) 1.567(4) 0.6966(12)
Yb1C_2 Yb -0.3333 0.3333 0.598274(4)
Yb1C_3 Yb 0.6667 0.3333 0.598274(4)
O2D_2 O 0.61446(21) 1.47722(14) 0.51324(6)
O2E_2 O 0.86276(15) 1.38554(21) 0.51324(6)
O3D_2 O 0.40176(21) 1.29511(15) 0.59447(6)
O3E_2 O 0.89335(15) 1.59824(21) 0.59447(6)
O5 O 0.3333 0.6667 0.1667
loop_
_geom_bond_atom_site_label_1
_geom_bond_atom_site_label_2
_geom_bond_site_symmetry_1
_geom_bond_site_symmetry_2
Yb1 O1 1_555 1_555
O1 H1 1_555 1_555
H2 O1 1_555 1_555
O2 Yb1 1_555 1_555
H3 O2 1_555 1_555
O3 Yb1 1_555 1_555
O4 C2 1_555 1_555
C1 O2 1_555 1_555
C2 O3 1_555 1_555
O2E C1 1_555 1_555
H3E O2E 1_555 1_555
O3E C2E 1_555 1_555
O4E C2E 1_555 1_555
C2E C1 1_555 1_555
O1A Yb1 1_555 1_555
H1A O1A 1_555 1_555
H2A O1A 1_555 1_555
O1B Yb1 1_555 1_555
H1B O1B 1_555 1_555
H2B O1B 1_555 1_555
Yb1C O1C 1_555 1_555
O1C H1C 1_555 1_555
H2C O1C 1_555 1_555
O2C Yb1C 1_555 1_555
H3C O2C 1_555 1_555
O3C Yb1C 1_555 1_555
O4C C2C 1_555 1_555
C1B O2C 1_555 1_555
C2C O3C 1_555 1_555
O2B Yb1 1_555 1_555
H3B O2B 1_555 1_555
O3B Yb1 1_555 1_555
O4B C2B 1_555 1_555
C2B C1B 1_555 1_555
O2A Yb1 1_555 1_555
H3A O2A 1_555 1_555
O3A Yb1 1_555 1_555
O4A C2A 1_555 1_555
C1A O2A 1_555 1_555
C2A O3A 1_555 1_555
O2D C1A 1_555 1_555
H3D O2D 1_555 1_555
O3D C2D 1_555 1_555
O4D C2D 1_555 1_555
C2D C1A 1_555 1_555
O1D Yb1C 1_555 1_555
H1D O1D 1_555 1_555
H2D O1D 1_555 1_555
O1E Yb1C 1_555 1_555
H1E O1E 1_555 1_555
H2E O1E 1_555 1_555
Yb1C_2 O2E 1_555 1_555
Yb1C_3 O2D 1_555 1_555
O2D_2 Yb1C 1_555 1_555
O2E_2 Yb1C 1_555 1_555
O3D_2 Yb1C 1_555 1_555
O3E_2 Yb1C 1_555 1_555
C1 C2 1_555 1_555
O3E Yb1C_2 1_555 1_555
C1B C2C 1_555 1_555
C1B O2B 1_555 1_555
O3B C2B 1_555 1_555
C1A C2A 1_555 1_555
O3D Yb1C_3 1_555 1_555

#END
