
#######################################################################
#
#                 Cambridge Crystallographic Data Centre
#                                CCDC 
#
#######################################################################
#
# If this CIF has been generated from an entry in the Cambridge 
# Structural Database, then it will include bibliographic, chemical, 
# crystal, experimental, refinement or atomic coordinate data resulting 
# from the CCDC's data processing and validation procedures.
#
#######################################################################

data_UFODAW
_symmetry_cell_setting           rhombohedral
_symmetry_space_group_name_H-M   'R 3 2'
_symmetry_Int_Tables_number      155
_space_group_name_Hall           'R 3 2"'
loop_
_symmetry_equiv_pos_site_id
_symmetry_equiv_pos_as_xyz
1 x,y,z
2 -y,x-y,z
3 -x+y,-x,z
4 y,x,-z
5 x-y,-y,-z
6 -x,-x+y,-z
7 2/3+x,1/3+y,1/3+z
8 2/3-y,1/3+x-y,1/3+z
9 2/3-x+y,1/3-x,1/3+z
10 2/3+y,1/3+x,1/3-z
11 2/3+x-y,1/3-y,1/3-z
12 2/3-x,1/3-x+y,1/3-z
13 1/3+x,2/3+y,2/3+z
14 1/3-y,2/3+x-y,2/3+z
15 1/3-x+y,2/3-x,2/3+z
16 1/3+y,2/3+x,2/3-z
17 1/3+x-y,2/3-y,2/3-z
18 1/3-x,2/3-x+y,2/3-z
_cell_length_a                   9.6757(2)
_cell_length_b                   9.6757(2)
_cell_length_c                   20.7397(8)
_cell_angle_alpha                90
_cell_angle_beta                 90
_cell_angle_gamma                120
_cell_volume                     1681.5
loop_
_atom_site_label
_atom_site_type_symbol
_atom_site_fract_x
_atom_site_fract_y
_atom_site_fract_z
Sm1 Sm 0.6667 0.3333 0.600687(6)
O1 O 0.86455(18) 0.47621(18) 0.51336(7)
O2 O 0.6553(2) 0.1534(2) 0.68349(8)
H1 H 0.581(2) 0.089(3) 0.7072(13)
H2 H 0.742(2) 0.170(4) 0.6994(15)
O3 O 0.89982(19) 0.2984(2) 0.59404(7)
H3 H 0.817(11) 0.483(14) 0.482(3)
O4 O 1.15400(19) 0.3877(2) 0.56747(8)
C1 C 1.0000 0.4638(3) 0.5000
C2 C 1.0213(2) 0.3779(2) 0.55958(10)
O1E O 1.13545(18) 0.61166(25) 0.48664(7)
O3E O 1.10018(19) 0.39858(28) 0.40596(7)
H3E H 1.183(11) 0.666(18) 0.518(3)
O4E O 0.84600(19) 0.23370(28) 0.43253(8)
C2E C 0.9787(2) 0.3566(3) 0.44042(10)
O2A O 0.8466(2) 0.5019(3) 0.68349(8)
H1A H 0.911(3) 0.492(4) 0.7072(13)
H2A H 0.830(4) 0.572(4) 0.6994(15)
O2B O 0.4981(3) 0.3447(2) 0.68349(8)
H1B H 0.508(4) 0.419(2) 0.7072(13)
H2B H 0.428(4) 0.258(2) 0.6994(15)
Sm1C Sm 0.3333 -0.3333 0.399313(6)
O1C O 0.47621(18) -0.13545(18) 0.48664(7)
O2C O 0.1534(2) -0.3447(2) 0.31651(8)
H1C H 0.089(3) -0.419(2) 0.2928(13)
H2C H 0.170(4) -0.258(2) 0.3006(15)
O3C O 0.2984(2) -0.10018(19) 0.40596(7)
H3C H 0.483(14) -0.183(11) 0.518(3)
O4C O 0.3877(2) 0.15400(19) 0.43253(8)
C1B C 0.4638(3) 0.0000 0.5000
C2C C 0.3779(2) 0.0213(2) 0.44042(10)
O1B O 0.61166(25) 0.13545(18) 0.51336(7)
O3B O 0.39858(28) 0.10018(19) 0.59404(7)
H3B H 0.666(18) 0.183(11) 0.482(3)
O4B O 0.23370(28) -0.15400(19) 0.56747(8)
C2B C 0.3566(3) -0.0213(2) 0.55958(10)
O1A O 0.52379(18) 0.38834(25) 0.51336(7)
O3A O 0.7016(2) 0.60142(28) 0.59404(7)
H3A H 0.517(14) 0.334(18) 0.482(3)
O4A O 0.6123(2) 0.76630(28) 0.56747(8)
C1A C 0.5362(3) 0.5362(3) 0.5000
C2A C 0.6221(2) 0.6434(3) 0.55958(10)
O1D O 0.38834(25) 0.52379(18) 0.48664(7)
O3D O 0.60142(28) 0.7016(2) 0.40596(7)
H3D H 0.334(18) 0.517(14) 0.518(3)
O4D O 0.76630(28) 0.6123(2) 0.43253(8)
C2D C 0.6434(3) 0.6221(2) 0.44042(10)
O2D O 0.5019(3) -0.1534(2) 0.31651(8)
H1D H 0.492(4) -0.089(3) 0.2928(13)
H2D H 0.572(4) -0.170(4) 0.3006(15)
O2E O 0.3447(2) -0.5019(3) 0.31651(8)
H1E H 0.419(2) -0.492(4) 0.2928(13)
H2E H 0.258(2) -0.572(4) 0.3006(15)
Sm1C_2 Sm 0.3333 0.6667 0.399313(6)
Sm1C_3 Sm 1.3333 0.6667 0.399313(6)
O1D_2 O 0.38834(25) -0.47621(18) 0.48664(7)
O1E_2 O 0.13545(18) -0.38834(25) 0.48664(7)
O3D_2 O 0.60142(28) -0.2984(2) 0.40596(7)
O3E_2 O 0.10018(19) -0.60142(28) 0.40596(7)
O5 O 0.6667 0.3333 0.8333
loop_
_geom_bond_atom_site_label_1
_geom_bond_atom_site_label_2
_geom_bond_site_symmetry_1
_geom_bond_site_symmetry_2
Sm1 O1 1_555 1_555
O1 H3 1_555 1_555
O2 Sm1 1_555 1_555
H1 O2 1_555 1_555
H2 O2 1_555 1_555
O3 Sm1 1_555 1_555
O4 C2 1_555 1_555
C1 O1 1_555 1_555
C2 O3 1_555 1_555
O1E C1 1_555 1_555
O3E C2E 1_555 1_555
H3E O1E 1_555 1_555
O4E C2E 1_555 1_555
C2E C1 1_555 1_555
O2A Sm1 1_555 1_555
H1A O2A 1_555 1_555
H2A O2A 1_555 1_555
O2B Sm1 1_555 1_555
H1B O2B 1_555 1_555
H2B O2B 1_555 1_555
Sm1C O1C 1_555 1_555
O1C H3C 1_555 1_555
O2C Sm1C 1_555 1_555
H1C O2C 1_555 1_555
H2C O2C 1_555 1_555
O3C Sm1C 1_555 1_555
O4C C2C 1_555 1_555
C1B O1C 1_555 1_555
C2C O3C 1_555 1_555
O1B Sm1 1_555 1_555
O3B Sm1 1_555 1_555
H3B O1B 1_555 1_555
O4B C2B 1_555 1_555
C2B C1B 1_555 1_555
O1A Sm1 1_555 1_555
O3A Sm1 1_555 1_555
H3A O1A 1_555 1_555
O4A C2A 1_555 1_555
C1A O1A 1_555 1_555
C2A O3A 1_555 1_555
O1D C1A 1_555 1_555
O3D C2D 1_555 1_555
H3D O1D 1_555 1_555
O4D C2D 1_555 1_555
C2D C1A 1_555 1_555
O2D Sm1C 1_555 1_555
H1D O2D 1_555 1_555
H2D O2D 1_555 1_555
O2E Sm1C 1_555 1_555
H1E O2E 1_555 1_555
H2E O2E 1_555 1_555
Sm1C_2 O1D 1_555 1_555
Sm1C_3 O1E 1_555 1_555
O1D_2 Sm1C 1_555 1_555
O1E_2 Sm1C 1_555 1_555
O3D_2 Sm1C 1_555 1_555
O3E_2 Sm1C 1_555 1_555
C1 C2 1_555 1_555
O3E Sm1C_3 1_555 1_555
C1B C2C 1_555 1_555
C1B O1B 1_555 1_555
O3B C2B 1_555 1_555
C1A C2A 1_555 1_555
O3D Sm1C_2 1_555 1_555

#END
