
#######################################################################
#
#                 Cambridge Crystallographic Data Centre
#                                CCDC 
#
#######################################################################
#
# If this CIF has been generated from an entry in the Cambridge 
# Structural Database, then it will include bibliographic, chemical, 
# crystal, experimental, refinement or atomic coordinate data resulting 
# from the CCDC's data processing and validation procedures.
#
#######################################################################

data_UFODOK
_symmetry_cell_setting           rhombohedral
_symmetry_space_group_name_H-M   'R 3 2'
_symmetry_Int_Tables_number      155
_space_group_name_Hall           'R 3 2"'
loop_
_symmetry_equiv_pos_site_id
_symmetry_equiv_pos_as_xyz
1 x,y,z
2 -y,x-y,z
3 -x+y,-x,z
4 y,x,-z
5 x-y,-y,-z
6 -x,-x+y,-z
7 2/3+x,1/3+y,1/3+z
8 2/3-y,1/3+x-y,1/3+z
9 2/3-x+y,1/3-x,1/3+z
10 2/3+y,1/3+x,1/3-z
11 2/3+x-y,1/3-y,1/3-z
12 2/3-x,1/3-x+y,1/3-z
13 1/3+x,2/3+y,2/3+z
14 1/3-y,2/3+x-y,2/3+z
15 1/3-x+y,2/3-x,2/3+z
16 1/3+y,2/3+x,2/3-z
17 1/3+x-y,2/3-y,2/3-z
18 1/3-x,2/3-x+y,2/3-z
_cell_length_a                   9.7054(3)
_cell_length_b                   9.7054(3)
_cell_length_c                   20.9040(12)
_cell_angle_alpha                90
_cell_angle_beta                 90
_cell_angle_gamma                120
_cell_volume                     1705.25
loop_
_atom_site_label
_atom_site_type_symbol
_atom_site_fract_x
_atom_site_fract_y
_atom_site_fract_z
Nd1 Nd 0.3333 0.6667 0.398579(4)
O1 O 0.13443(12) 0.52439(12) 0.48661(5)
H1 H 0.165(3) 0.489(3) 0.5175(9)
O2 O 0.34295(16) 0.84653(17) 0.31477(7)
H2 H 0.417(2) 0.912(3) 0.2910(12)
H3 H 0.2597(19) 0.830(3) 0.2975(13)
O3 O 0.09842(14) 0.70045(15) 0.40603(5)
O4 O -0.15434(14) 0.61312(16) 0.43376(6)
C1 C 0.0000 0.53693(18) 0.5000
C2 C -0.02213(17) 0.62195(18) 0.44096(7)
O1E O -0.13443(12) 0.38996(17) 0.51339(5)
H1E H -0.165(3) 0.324(4) 0.4825(9)
O3E O -0.09842(14) 0.60203(21) 0.59397(5)
O4E O 0.15434(14) 0.76746(21) 0.56624(6)
C2E C 0.02213(17) 0.64408(25) 0.55904(7)
O2A O 0.15347(17) 0.49642(23) 0.31477(7)
H2A H 0.088(3) 0.505(4) 0.2910(12)
H3A H 0.170(3) 0.4297(36) 0.2975(13)
O2B O 0.50358(23) 0.65705(16) 0.31477(7)
H2B H 0.495(4) 0.583(2) 0.2910(12)
H3B H 0.5703(36) 0.7403(19) 0.2975(13)
Nd1C Nd 0.6667 1.3333 0.601421(4)
O1C O 0.52439(12) 1.13443(12) 0.51339(5)
H1C H 0.489(3) 1.165(3) 0.4825(9)
O2C O 0.84653(17) 1.34295(16) 0.68523(7)
H2C H 0.912(3) 1.417(2) 0.7090(12)
H3C H 0.830(3) 1.2597(19) 0.7025(13)
O3C O 0.70045(15) 1.09842(14) 0.59397(5)
O4C O 0.61312(16) 0.84566(14) 0.56624(6)
C1B C 0.53693(18) 1.0000 0.5000
C2C C 0.62195(18) 0.97787(17) 0.55904(7)
O1B O 0.38996(17) 0.86557(12) 0.48661(5)
H1B H 0.324(4) 0.835(3) 0.5175(9)
O3B O 0.60203(21) 0.90158(14) 0.40603(5)
O4B O 0.76746(21) 1.15434(14) 0.43376(6)
C2B C 0.64408(25) 1.02213(17) 0.44096(7)
O1A O 0.47561(12) 0.61004(17) 0.48661(5)
H1A H 0.511(3) 0.676(4) 0.5175(9)
O3A O 0.29955(15) 0.39797(21) 0.40603(5)
O4A O 0.38688(16) 0.23254(21) 0.43376(6)
C1A C 0.46307(18) 0.46307(18) 0.5000
C2A C 0.37805(18) 0.35592(25) 0.44096(7)
O1D O 0.61004(17) 0.47561(12) 0.51339(5)
H1D H 0.676(4) 0.511(3) 0.4825(9)
O3D O 0.39797(21) 0.29955(15) 0.59397(5)
O4D O 0.23254(21) 0.38688(16) 0.56624(6)
C2D C 0.35592(25) 0.37805(18) 0.55904(7)
O2D O 0.49642(23) 1.15347(17) 0.68523(7)
H2D H 0.505(4) 1.088(3) 0.7090(12)
H3D H 0.4297(36) 1.170(3) 0.7025(13)
O2E O 0.65705(16) 1.50358(23) 0.68523(7)
H2E H 0.583(2) 1.495(4) 0.7090(12)
H3E H 0.7403(19) 1.5703(36) 0.7025(13)
Nd1C_2 Nd -0.3333 0.3333 0.601421(4)
Nd1C_3 Nd 0.6667 0.3333 0.601421(4)
O1D_2 O 0.61004(17) 1.47561(12) 0.51339(5)
O1E_2 O 0.86557(12) 1.38996(17) 0.51339(5)
O3D_2 O 0.39797(21) 1.29955(15) 0.59397(5)
O3E_2 O 0.90158(14) 1.60203(21) 0.59397(5)
O5 O 0.3333 0.6667 0.1667
loop_
_geom_bond_atom_site_label_1
_geom_bond_atom_site_label_2
_geom_bond_site_symmetry_1
_geom_bond_site_symmetry_2
Nd1 O1 1_555 1_555
O1 H1 1_555 1_555
O2 Nd1 1_555 1_555
H2 O2 1_555 1_555
H3 O2 1_555 1_555
O3 Nd1 1_555 1_555
O4 C2 1_555 1_555
C1 O1 1_555 1_555
C2 O3 1_555 1_555
O1E C1 1_555 1_555
H1E O1E 1_555 1_555
O3E C2E 1_555 1_555
O4E C2E 1_555 1_555
C2E C1 1_555 1_555
O2A Nd1 1_555 1_555
H2A O2A 1_555 1_555
H3A O2A 1_555 1_555
O2B Nd1 1_555 1_555
H2B O2B 1_555 1_555
H3B O2B 1_555 1_555
Nd1C O1C 1_555 1_555
O1C H1C 1_555 1_555
O2C Nd1C 1_555 1_555
H2C O2C 1_555 1_555
H3C O2C 1_555 1_555
O3C Nd1C 1_555 1_555
O4C C2C 1_555 1_555
C1B O1C 1_555 1_555
C2C O3C 1_555 1_555
O1B Nd1 1_555 1_555
H1B O1B 1_555 1_555
O3B Nd1 1_555 1_555
O4B C2B 1_555 1_555
C2B C1B 1_555 1_555
O1A Nd1 1_555 1_555
H1A O1A 1_555 1_555
O3A Nd1 1_555 1_555
O4A C2A 1_555 1_555
C1A O1A 1_555 1_555
C2A O3A 1_555 1_555
O1D C1A 1_555 1_555
H1D O1D 1_555 1_555
O3D C2D 1_555 1_555
O4D C2D 1_555 1_555
C2D C1A 1_555 1_555
O2D Nd1C 1_555 1_555
H2D O2D 1_555 1_555
H3D O2D 1_555 1_555
O2E Nd1C 1_555 1_555
H2E O2E 1_555 1_555
H3E O2E 1_555 1_555
Nd1C_2 O1E 1_555 1_555
Nd1C_3 O1D 1_555 1_555
O1D_2 Nd1C 1_555 1_555
O1E_2 Nd1C 1_555 1_555
O3D_2 Nd1C 1_555 1_555
O3E_2 Nd1C 1_555 1_555
C1 C2 1_555 1_555
O3E Nd1C_2 1_555 1_555
C1B C2C 1_555 1_555
C1B O1B 1_555 1_555
O3B C2B 1_555 1_555
C1A C2A 1_555 1_555
O3D Nd1C_3 1_555 1_555

#END
