
#######################################################################
#
#                 Cambridge Crystallographic Data Centre
#                                CCDC 
#
#######################################################################
#
# If this CIF has been generated from an entry in the Cambridge 
# Structural Database, then it will include bibliographic, chemical, 
# crystal, experimental, refinement or atomic coordinate data resulting 
# from the CCDC's data processing and validation procedures.
#
#######################################################################

data_UFODUQ
_symmetry_cell_setting           rhombohedral
_symmetry_space_group_name_H-M   'R 3 2'
_symmetry_Int_Tables_number      155
_space_group_name_Hall           'R 3 2"'
loop_
_symmetry_equiv_pos_site_id
_symmetry_equiv_pos_as_xyz
1 x,y,z
2 -y,x-y,z
3 -x+y,-x,z
4 y,x,-z
5 x-y,-y,-z
6 -x,-x+y,-z
7 2/3+x,1/3+y,1/3+z
8 2/3-y,1/3+x-y,1/3+z
9 2/3-x+y,1/3-x,1/3+z
10 2/3+y,1/3+x,1/3-z
11 2/3+x-y,1/3-y,1/3-z
12 2/3-x,1/3-x+y,1/3-z
13 1/3+x,2/3+y,2/3+z
14 1/3-y,2/3+x-y,2/3+z
15 1/3-x+y,2/3-x,2/3+z
16 1/3+y,2/3+x,2/3-z
17 1/3+x-y,2/3-y,2/3-z
18 1/3-x,2/3-x+y,2/3-z
_cell_length_a                   9.5506(2)
_cell_length_b                   9.5506(2)
_cell_length_c                   20.2948(8)
_cell_angle_alpha                90
_cell_angle_beta                 90
_cell_angle_gamma                120
_cell_volume                     1603.16
loop_
_atom_site_label
_atom_site_type_symbol
_atom_site_fract_x
_atom_site_fract_y
_atom_site_fract_z
Lu1 Lu 0.3333 0.6667 0.402106(7)
O1 O 0.1377(2) 0.5227(2) 0.48676(10)
H1 H 0.156(4) 0.486(4) 0.5191(12)
O2 O 0.3496(2) 0.8454(3) 0.32242(11)
H2 H 0.422(3) 0.911(4) 0.2975(15)
H3 H 0.262(2) 0.833(4) 0.3101(18)
O3 O 0.1070(2) 0.7053(2) 0.40573(10)
O4 O -0.1532(2) 0.6112(3) 0.42904(11)
C1 C 0.0000 0.5349(3) 0.5000
C2 C -0.0188(3) 0.6225(3) 0.43899(13)
O1E O -0.1377(2) 0.3850(3) 0.51324(10)
H1E H -0.156(4) 0.330(6) 0.4809(12)
O3E O -0.1070(2) 0.5983(3) 0.59427(10)
O4E O 0.1532(2) 0.7644(4) 0.57096(11)
C2E C 0.0188(3) 0.6413(4) 0.56101(13)
O2A O 0.1546(3) 0.5042(4) 0.32242(11)
H2A H 0.089(4) 0.511(5) 0.2975(15)
H3A H 0.167(4) 0.429(4) 0.3101(18)
O2B O 0.4958(4) 0.6504(2) 0.32242(11)
H2B H 0.489(5) 0.578(3) 0.2975(15)
H3B H 0.571(4) 0.738(2) 0.3101(18)
Lu1C Lu 0.6667 1.3333 0.597894(7)
O1C O 0.5227(2) 1.1377(2) 0.51324(10)
H1C H 0.486(4) 1.156(4) 0.4809(12)
O2C O 0.8454(3) 1.3496(2) 0.67758(11)
H2C H 0.911(4) 1.422(3) 0.7025(15)
H3C H 0.833(4) 1.262(2) 0.6899(18)
O3C O 0.7053(2) 1.1070(2) 0.59427(10)
O4C O 0.6112(3) 0.8468(2) 0.57096(11)
C1B C 0.5349(3) 1.0000 0.5000
C2C C 0.6225(3) 0.9812(3) 0.56101(13)
O1B O 0.3850(3) 0.8623(2) 0.48676(10)
H1B H 0.330(6) 0.844(4) 0.5191(12)
O3B O 0.5983(3) 0.8930(2) 0.40573(10)
O4B O 0.7644(4) 1.1532(2) 0.42904(11)
C2B C 0.6413(4) 1.0188(3) 0.43899(13)
O1A O 0.4773(2) 0.6150(3) 0.48676(10)
H1A H 0.514(4) 0.670(6) 0.5191(12)
O3A O 0.2947(2) 0.4017(3) 0.40573(10)
O4A O 0.3888(3) 0.2356(4) 0.42904(11)
C1A C 0.4651(3) 0.4651(3) 0.5000
C2A C 0.3775(3) 0.3587(4) 0.43899(13)
O1D O 0.6150(3) 0.4773(2) 0.51324(10)
H1D H 0.670(6) 0.514(4) 0.4809(12)
O3D O 0.4017(3) 0.2947(2) 0.59427(10)
O4D O 0.2356(4) 0.3888(3) 0.57096(11)
C2D C 0.3587(4) 0.3775(3) 0.56101(13)
O2D O 0.5042(4) 1.1546(3) 0.67758(11)
H2D H 0.511(5) 1.089(4) 0.7025(15)
H3D H 0.429(4) 1.167(4) 0.6899(18)
O2E O 0.6504(2) 1.4958(4) 0.67758(11)
H2E H 0.578(3) 1.489(5) 0.7025(15)
H3E H 0.738(2) 1.571(4) 0.6899(18)
Lu1C_2 Lu -0.3333 0.3333 0.597894(7)
Lu1C_3 Lu 0.6667 0.3333 0.597894(7)
O1D_2 O 0.6150(3) 1.4773(2) 0.51324(10)
O1E_2 O 0.8623(2) 1.3850(3) 0.51324(10)
O3D_2 O 0.4017(3) 1.2947(2) 0.59427(10)
O3E_2 O 0.8930(2) 1.5983(3) 0.59427(10)
O5 O 0.3333 0.6667 0.1667
loop_
_geom_bond_atom_site_label_1
_geom_bond_atom_site_label_2
_geom_bond_site_symmetry_1
_geom_bond_site_symmetry_2
Lu1 O1 1_555 1_555
O1 H1 1_555 1_555
O2 Lu1 1_555 1_555
H2 O2 1_555 1_555
H3 O2 1_555 1_555
O3 Lu1 1_555 1_555
O4 C2 1_555 1_555
C1 O1 1_555 1_555
C2 O3 1_555 1_555
O1E C1 1_555 1_555
H1E O1E 1_555 1_555
O3E C2E 1_555 1_555
O4E C2E 1_555 1_555
C2E C1 1_555 1_555
O2A Lu1 1_555 1_555
H2A O2A 1_555 1_555
H3A O2A 1_555 1_555
O2B Lu1 1_555 1_555
H2B O2B 1_555 1_555
H3B O2B 1_555 1_555
Lu1C O1C 1_555 1_555
O1C H1C 1_555 1_555
O2C Lu1C 1_555 1_555
H2C O2C 1_555 1_555
H3C O2C 1_555 1_555
O3C Lu1C 1_555 1_555
O4C C2C 1_555 1_555
C1B O1C 1_555 1_555
C2C O3C 1_555 1_555
O1B Lu1 1_555 1_555
H1B O1B 1_555 1_555
O3B Lu1 1_555 1_555
O4B C2B 1_555 1_555
C2B C1B 1_555 1_555
O1A Lu1 1_555 1_555
H1A O1A 1_555 1_555
O3A Lu1 1_555 1_555
O4A C2A 1_555 1_555
C1A O1A 1_555 1_555
C2A O3A 1_555 1_555
O1D C1A 1_555 1_555
H1D O1D 1_555 1_555
O3D C2D 1_555 1_555
O4D C2D 1_555 1_555
C2D C1A 1_555 1_555
O2D Lu1C 1_555 1_555
H2D O2D 1_555 1_555
H3D O2D 1_555 1_555
O2E Lu1C 1_555 1_555
H2E O2E 1_555 1_555
H3E O2E 1_555 1_555
Lu1C_2 O1E 1_555 1_555
Lu1C_3 O1D 1_555 1_555
O1D_2 Lu1C 1_555 1_555
O1E_2 Lu1C 1_555 1_555
O3D_2 Lu1C 1_555 1_555
O3E_2 Lu1C 1_555 1_555
C1 C2 1_555 1_555
O3E Lu1C_2 1_555 1_555
C1B C2C 1_555 1_555
C1B O1B 1_555 1_555
O3B C2B 1_555 1_555
C1A C2A 1_555 1_555
O3D Lu1C_3 1_555 1_555

#END
