
#######################################################################
#
#                 Cambridge Crystallographic Data Centre
#                                CCDC 
#
#######################################################################
#
# If this CIF has been generated from an entry in the Cambridge 
# Structural Database, then it will include bibliographic, chemical, 
# crystal, experimental, refinement or atomic coordinate data resulting 
# from the CCDC's data processing and validation procedures.
#
#######################################################################

data_UFODEA
_symmetry_cell_setting           rhombohedral
_symmetry_space_group_name_H-M   'R 3 2'
_symmetry_Int_Tables_number      155
_space_group_name_Hall           'R 3 2"'
loop_
_symmetry_equiv_pos_site_id
_symmetry_equiv_pos_as_xyz
1 x,y,z
2 -y,x-y,z
3 -x+y,-x,z
4 y,x,-z
5 x-y,-y,-z
6 -x,-x+y,-z
7 2/3+x,1/3+y,1/3+z
8 2/3-y,1/3+x-y,1/3+z
9 2/3-x+y,1/3-x,1/3+z
10 2/3+y,1/3+x,1/3-z
11 2/3+x-y,1/3-y,1/3-z
12 2/3-x,1/3-x+y,1/3-z
13 1/3+x,2/3+y,2/3+z
14 1/3-y,2/3+x-y,2/3+z
15 1/3-x+y,2/3-x,2/3+z
16 1/3+y,2/3+x,2/3-z
17 1/3+x-y,2/3-y,2/3-z
18 1/3-x,2/3-x+y,2/3-z
_cell_length_a                   9.7043(2)
_cell_length_b                   9.7043(2)
_cell_length_c                   21.0053(8)
_cell_angle_alpha                90
_cell_angle_beta                 90
_cell_angle_gamma                120
_cell_volume                     1713.12
loop_
_atom_site_label
_atom_site_type_symbol
_atom_site_fract_x
_atom_site_fract_y
_atom_site_fract_z
Pu1 Pu 0.3333 0.6667 0.398297(3)
O1 O 0.13437(16) 0.52507(16) 0.48660(6)
H1 H 0.159(3) 0.499(3) 0.5190(10)
O2 O 0.3423(2) 0.8464(2) 0.31422(8)
H2 H 0.418(2) 0.912(4) 0.2933(14)
H3 H 0.258(2) 0.828(4) 0.2959(15)
O3 O 0.09741(18) 0.7009(2) 0.40626(7)
O4 O -0.15460(18) 0.6140(2) 0.43438(7)
C1 C 0.0000 0.5375(2) 0.5000
C2 C -0.0227(2) 0.6227(2) 0.44118(8)
O1E O -0.13437(16) 0.39070(23) 0.51340(6)
H1E H -0.159(3) 0.340(4) 0.4810(10)
O3E O -0.09741(18) 0.60349(27) 0.59374(7)
O4E O 0.15460(18) 0.76860(27) 0.56562(7)
C2E C 0.0227(2) 0.6454(3) 0.55882(8)
O2A O 0.1536(2) 0.4959(3) 0.31422(8)
H2A H 0.088(4) 0.506(4) 0.2933(14)
H3A H 0.172(4) 0.430(4) 0.2959(15)
O2B O 0.5041(3) 0.6577(2) 0.31422(8)
H2B H 0.494(4) 0.582(2) 0.2933(14)
H3B H 0.570(4) 0.742(2) 0.2959(15)
Pu1C Pu 0.6667 1.3333 0.601703(3)
O1C O 0.52507(16) 1.13437(16) 0.51340(6)
H1C H 0.499(3) 1.159(3) 0.4810(10)
O2C O 0.8464(2) 1.3423(2) 0.68578(8)
H2C H 0.912(4) 1.418(2) 0.7067(14)
H3C H 0.828(4) 1.258(2) 0.7041(15)
O3C O 0.7009(2) 1.09741(18) 0.59374(7)
O4C O 0.6140(2) 0.84540(18) 0.56562(7)
C1B C 0.5375(2) 1.0000 0.5000
C2C C 0.6227(2) 0.9773(2) 0.55882(8)
O1B O 0.39070(23) 0.86563(16) 0.48660(6)
H1B H 0.340(4) 0.841(3) 0.5190(10)
O3B O 0.60349(27) 0.90259(18) 0.40626(7)
O4B O 0.76860(27) 1.15460(18) 0.43438(7)
C2B C 0.6454(3) 1.0227(2) 0.44118(8)
O1A O 0.47493(16) 0.60930(23) 0.48660(6)
H1A H 0.501(3) 0.660(4) 0.5190(10)
O3A O 0.2991(2) 0.39651(27) 0.40626(7)
O4A O 0.3860(2) 0.23140(27) 0.43438(7)
C1A C 0.4625(2) 0.4625(2) 0.5000
C2A C 0.3773(2) 0.3546(3) 0.44118(8)
O1D O 0.60930(23) 0.47493(16) 0.51340(6)
H1D H 0.660(4) 0.501(3) 0.4810(10)
O3D O 0.39651(27) 0.2991(2) 0.59374(7)
O4D O 0.23140(27) 0.3860(2) 0.56562(7)
C2D C 0.3546(3) 0.3773(2) 0.55882(8)
O2D O 0.4959(3) 1.1536(2) 0.68578(8)
H2D H 0.506(4) 1.088(4) 0.7067(14)
H3D H 0.430(4) 1.172(4) 0.7041(15)
O2E O 0.6577(2) 1.5041(3) 0.68578(8)
H2E H 0.582(2) 1.494(4) 0.7067(14)
H3E H 0.742(2) 1.570(4) 0.7041(15)
Pu1C_2 Pu -0.3333 0.3333 0.601703(3)
Pu1C_3 Pu 0.6667 0.3333 0.601703(3)
O1D_2 O 0.60930(23) 1.47493(16) 0.51340(6)
O1E_2 O 0.86563(16) 1.39070(23) 0.51340(6)
O3D_2 O 0.39651(27) 1.2991(2) 0.59374(7)
O3E_2 O 0.90259(18) 1.60349(27) 0.59374(7)
O5 O 0.3333 0.6667 0.1667
loop_
_geom_bond_atom_site_label_1
_geom_bond_atom_site_label_2
_geom_bond_site_symmetry_1
_geom_bond_site_symmetry_2
Pu1 O1 1_555 1_555
O1 H1 1_555 1_555
O2 Pu1 1_555 1_555
H2 O2 1_555 1_555
H3 O2 1_555 1_555
O3 Pu1 1_555 1_555
O4 C2 1_555 1_555
C1 O1 1_555 1_555
C2 O3 1_555 1_555
O1E C1 1_555 1_555
H1E O1E 1_555 1_555
O3E C2E 1_555 1_555
O4E C2E 1_555 1_555
C2E C1 1_555 1_555
O2A Pu1 1_555 1_555
H2A O2A 1_555 1_555
H3A O2A 1_555 1_555
O2B Pu1 1_555 1_555
H2B O2B 1_555 1_555
H3B O2B 1_555 1_555
Pu1C O1C 1_555 1_555
O1C H1C 1_555 1_555
O2C Pu1C 1_555 1_555
H2C O2C 1_555 1_555
H3C O2C 1_555 1_555
O3C Pu1C 1_555 1_555
O4C C2C 1_555 1_555
C1B O1C 1_555 1_555
C2C O3C 1_555 1_555
O1B Pu1 1_555 1_555
H1B O1B 1_555 1_555
O3B Pu1 1_555 1_555
O4B C2B 1_555 1_555
C2B C1B 1_555 1_555
O1A Pu1 1_555 1_555
H1A O1A 1_555 1_555
O3A Pu1 1_555 1_555
O4A C2A 1_555 1_555
C1A O1A 1_555 1_555
C2A O3A 1_555 1_555
O1D C1A 1_555 1_555
H1D O1D 1_555 1_555
O3D C2D 1_555 1_555
O4D C2D 1_555 1_555
C2D C1A 1_555 1_555
O2D Pu1C 1_555 1_555
H2D O2D 1_555 1_555
H3D O2D 1_555 1_555
O2E Pu1C 1_555 1_555
H2E O2E 1_555 1_555
H3E O2E 1_555 1_555
Pu1C_2 O1E 1_555 1_555
Pu1C_3 O1D 1_555 1_555
O1D_2 Pu1C 1_555 1_555
O1E_2 Pu1C 1_555 1_555
O3D_2 Pu1C 1_555 1_555
O3E_2 Pu1C 1_555 1_555
C1 C2 1_555 1_555
O3E Pu1C_2 1_555 1_555
C1B C2C 1_555 1_555
C1B O1B 1_555 1_555
O3B C2B 1_555 1_555
C1A C2A 1_555 1_555
O3D Pu1C_3 1_555 1_555

#END
