
#######################################################################
#
#                 Cambridge Crystallographic Data Centre
#                                CCDC 
#
#######################################################################
#
# If this CIF has been generated from an entry in the Cambridge 
# Structural Database, then it will include bibliographic, chemical, 
# crystal, experimental, refinement or atomic coordinate data resulting 
# from the CCDC's data processing and validation procedures.
#
#######################################################################

data_UFOFIG
_symmetry_cell_setting           rhombohedral
_symmetry_space_group_name_H-M   'R 3 2'
_symmetry_Int_Tables_number      155
_space_group_name_Hall           'R 3 2"'
loop_
_symmetry_equiv_pos_site_id
_symmetry_equiv_pos_as_xyz
1 x,y,z
2 -y,x-y,z
3 -x+y,-x,z
4 y,x,-z
5 x-y,-y,-z
6 -x,-x+y,-z
7 2/3+x,1/3+y,1/3+z
8 2/3-y,1/3+x-y,1/3+z
9 2/3-x+y,1/3-x,1/3+z
10 2/3+y,1/3+x,1/3-z
11 2/3+x-y,1/3-y,1/3-z
12 2/3-x,1/3-x+y,1/3-z
13 1/3+x,2/3+y,2/3+z
14 1/3-y,2/3+x-y,2/3+z
15 1/3-x+y,2/3-x,2/3+z
16 1/3+y,2/3+x,2/3-z
17 1/3+x-y,2/3-y,2/3-z
18 1/3-x,2/3-x+y,2/3-z
_cell_length_a                   9.6450(3)
_cell_length_b                   9.6450(3)
_cell_length_c                   20.6028(14)
_cell_angle_alpha                90
_cell_angle_beta                 90
_cell_angle_gamma                120
_cell_volume                     1659.82
loop_
_atom_site_label
_atom_site_type_symbol
_atom_site_fract_x
_atom_site_fract_y
_atom_site_fract_z
Gd1 Gd 0.3333 0.6667 0.400007(4)
O1 O 0.13532(13) 0.52325(14) 0.48669(6)
H1 H 0.154(3) 0.484(3) 0.5170(10)
O2 O 0.34585(17) 0.84672(18) 0.31780(7)
H2 H 0.417(2) 0.907(3) 0.2905(12)
H3 H 0.261(2) 0.836(3) 0.3004(14)
O3 O 0.10229(15) 0.70258(17) 0.40572(6)
O4 O -0.15411(16) 0.61118(18) 0.43141(7)
C1 C 0.0000 0.5357(2) 0.5000
C2 C -0.02071(19) 0.62185(19) 0.43997(8)
O1E O -0.13532(13) 0.38793(19) 0.51331(6)
H1E H -0.154(3) 0.330(4) 0.4830(10)
O3E O -0.10229(15) 0.60029(23) 0.59428(6)
O4E O 0.15411(16) 0.76529(24) 0.56859(7)
C2E C 0.02071(19) 0.64256(27) 0.56003(8)
O2A O 0.15328(18) 0.49913(25) 0.31780(7)
H2A H 0.093(3) 0.510(4) 0.2905(12)
H3A H 0.164(3) 0.425(4) 0.3004(14)
O2B O 0.50087(25) 0.65415(17) 0.31780(7)
H2B H 0.490(4) 0.583(2) 0.2905(12)
H3B H 0.575(4) 0.739(2) 0.3004(14)
Gd1C Gd 0.6667 1.3333 0.599993(4)
O1C O 0.52325(14) 1.13532(13) 0.51331(6)
H1C H 0.484(3) 1.154(3) 0.4830(10)
O2C O 0.84672(18) 1.34585(17) 0.68220(7)
H2C H 0.907(3) 1.417(2) 0.7095(12)
H3C H 0.836(3) 1.261(2) 0.6996(14)
O3C O 0.70258(17) 1.10229(15) 0.59428(6)
O4C O 0.61118(18) 0.84589(16) 0.56859(7)
C1B C 0.5357(2) 1.0000 0.5000
C2C C 0.62185(19) 0.97929(19) 0.56003(8)
O1B O 0.38793(19) 0.86468(13) 0.48669(6)
H1B H 0.330(4) 0.846(3) 0.5170(10)
O3B O 0.60029(23) 0.89771(15) 0.40572(6)
O4B O 0.76529(24) 1.15411(16) 0.43141(7)
C2B C 0.64256(27) 1.02071(19) 0.43997(8)
O1A O 0.47675(14) 0.61207(19) 0.48669(6)
H1A H 0.516(3) 0.670(4) 0.5170(10)
O3A O 0.29742(17) 0.39971(23) 0.40572(6)
O4A O 0.38882(18) 0.23471(24) 0.43141(7)
C1A C 0.4643(2) 0.4643(2) 0.5000
C2A C 0.37815(19) 0.35744(27) 0.43997(8)
O1D O 0.61207(19) 0.47675(14) 0.51331(6)
H1D H 0.670(4) 0.516(3) 0.4830(10)
O3D O 0.39971(23) 0.29742(17) 0.59428(6)
O4D O 0.23471(24) 0.38882(18) 0.56859(7)
C2D C 0.35744(27) 0.37815(19) 0.56003(8)
O2D O 0.49913(25) 1.15328(18) 0.68220(7)
H2D H 0.510(4) 1.093(3) 0.7095(12)
H3D H 0.425(4) 1.164(3) 0.6996(14)
O2E O 0.65415(17) 1.50087(25) 0.68220(7)
H2E H 0.583(2) 1.490(4) 0.7095(12)
H3E H 0.739(2) 1.575(4) 0.6996(14)
Gd1C_2 Gd -0.3333 0.3333 0.599993(4)
Gd1C_3 Gd 0.6667 0.3333 0.599993(4)
O1D_2 O 0.61207(19) 1.47675(14) 0.51331(6)
O1E_2 O 0.86468(13) 1.38793(19) 0.51331(6)
O3D_2 O 0.39971(23) 1.29742(17) 0.59428(6)
O3E_2 O 0.89771(15) 1.60029(23) 0.59428(6)
O5 O 0.3333 0.6667 0.1667
loop_
_geom_bond_atom_site_label_1
_geom_bond_atom_site_label_2
_geom_bond_site_symmetry_1
_geom_bond_site_symmetry_2
Gd1 O1 1_555 1_555
O1 H1 1_555 1_555
O2 Gd1 1_555 1_555
H2 O2 1_555 1_555
H3 O2 1_555 1_555
O3 Gd1 1_555 1_555
O4 C2 1_555 1_555
C1 O1 1_555 1_555
C2 O3 1_555 1_555
O1E C1 1_555 1_555
H1E O1E 1_555 1_555
O3E C2E 1_555 1_555
O4E C2E 1_555 1_555
C2E C1 1_555 1_555
O2A Gd1 1_555 1_555
H2A O2A 1_555 1_555
H3A O2A 1_555 1_555
O2B Gd1 1_555 1_555
H2B O2B 1_555 1_555
H3B O2B 1_555 1_555
Gd1C O1C 1_555 1_555
O1C H1C 1_555 1_555
O2C Gd1C 1_555 1_555
H2C O2C 1_555 1_555
H3C O2C 1_555 1_555
O3C Gd1C 1_555 1_555
O4C C2C 1_555 1_555
C1B O1C 1_555 1_555
C2C O3C 1_555 1_555
O1B Gd1 1_555 1_555
H1B O1B 1_555 1_555
O3B Gd1 1_555 1_555
O4B C2B 1_555 1_555
C2B C1B 1_555 1_555
O1A Gd1 1_555 1_555
H1A O1A 1_555 1_555
O3A Gd1 1_555 1_555
O4A C2A 1_555 1_555
C1A O1A 1_555 1_555
C2A O3A 1_555 1_555
O1D C1A 1_555 1_555
H1D O1D 1_555 1_555
O3D C2D 1_555 1_555
O4D C2D 1_555 1_555
C2D C1A 1_555 1_555
O2D Gd1C 1_555 1_555
H2D O2D 1_555 1_555
H3D O2D 1_555 1_555
O2E Gd1C 1_555 1_555
H2E O2E 1_555 1_555
H3E O2E 1_555 1_555
Gd1C_2 O1E 1_555 1_555
Gd1C_3 O1D 1_555 1_555
O1D_2 Gd1C 1_555 1_555
O1E_2 Gd1C 1_555 1_555
O3D_2 Gd1C 1_555 1_555
O3E_2 Gd1C 1_555 1_555
C1 C2 1_555 1_555
O3E Gd1C_2 1_555 1_555
C1B C2C 1_555 1_555
C1B O1B 1_555 1_555
O3B C2B 1_555 1_555
C1A C2A 1_555 1_555
O3D Gd1C_3 1_555 1_555

#END
