
#######################################################################
#
#                 Cambridge Crystallographic Data Centre
#                                CCDC 
#
#######################################################################
#
# If this CIF has been generated from an entry in the Cambridge 
# Structural Database, then it will include bibliographic, chemical, 
# crystal, experimental, refinement or atomic coordinate data resulting 
# from the CCDC's data processing and validation procedures.
#
#######################################################################

data_UFOFUS
_symmetry_cell_setting           rhombohedral
_symmetry_space_group_name_H-M   'R 3 2'
_symmetry_Int_Tables_number      155
_space_group_name_Hall           'R 3 2"'
loop_
_symmetry_equiv_pos_site_id
_symmetry_equiv_pos_as_xyz
1 x,y,z
2 -y,x-y,z
3 -x+y,-x,z
4 y,x,-z
5 x-y,-y,-z
6 -x,-x+y,-z
7 2/3+x,1/3+y,1/3+z
8 2/3-y,1/3+x-y,1/3+z
9 2/3-x+y,1/3-x,1/3+z
10 2/3+y,1/3+x,1/3-z
11 2/3+x-y,1/3-y,1/3-z
12 2/3-x,1/3-x+y,1/3-z
13 1/3+x,2/3+y,2/3+z
14 1/3-y,2/3+x-y,2/3+z
15 1/3-x+y,2/3-x,2/3+z
16 1/3+y,2/3+x,2/3-z
17 1/3+x-y,2/3-y,2/3-z
18 1/3-x,2/3-x+y,2/3-z
_cell_length_a                   9.58370(10)
_cell_length_b                   9.58370(10)
_cell_length_c                   20.4083(4)
_cell_angle_alpha                90
_cell_angle_beta                 90
_cell_angle_gamma                120
_cell_volume                     1623.32
loop_
_atom_site_label
_atom_site_type_symbol
_atom_site_fract_x
_atom_site_fract_y
_atom_site_fract_z
Er1 Er 0.6667 0.3333 0.598650(5)
O1 O 0.6519(2) 0.1538(2) 0.67924(7)
H1 H 0.572(2) 0.088(3) 0.7017(11)
H2 H 0.732(2) 0.178(4) 0.7044(12)
O2 O 0.86307(17) 0.47708(17) 0.51313(6)
H3 H 0.840(3) 0.515(3) 0.4828(11)
O3 O 1.15340(19) 0.3892(2) 0.57004(7)
O4 O 0.89478(18) 0.29618(19) 0.59452(7)
C1 C 1.0000 0.4653(3) 0.5000
C2 C 1.0192(2) 0.3777(2) 0.56053(9)
O2E O 1.13693(17) 0.61401(24) 0.48687(6)
H3E H 1.160(3) 0.675(4) 0.5172(11)
O3E O 0.84660(19) 0.23580(28) 0.42996(7)
O4E O 1.10522(18) 0.40140(26) 0.40548(7)
C2E C 0.9808(2) 0.3585(3) 0.43947(9)
O1A O 0.8462(2) 0.4981(3) 0.67924(7)
H1A H 0.912(3) 0.484(4) 0.7017(11)
H2A H 0.822(4) 0.554(4) 0.7044(12)
O1B O 0.5019(3) 0.3481(2) 0.67924(7)
H1B H 0.516(4) 0.428(2) 0.7017(11)
H2B H 0.446(4) 0.268(2) 0.7044(12)
Er1C Er 0.3333 -0.3333 0.401350(5)
O1C O 0.1538(2) -0.3481(2) 0.32076(7)
H1C H 0.088(3) -0.428(2) 0.2983(11)
H2C H 0.178(4) -0.268(2) 0.2956(12)
O2C O 0.47708(17) -0.13693(17) 0.48687(6)
H3C H 0.515(3) -0.160(3) 0.5172(11)
O3C O 0.3892(2) 0.15340(19) 0.42996(7)
O4C O 0.29618(19) -0.10522(18) 0.40548(7)
C1B C 0.4653(3) 0.0000 0.5000
C2C C 0.3777(2) 0.0192(2) 0.43947(9)
O2B O 0.61401(24) 0.13693(17) 0.51313(6)
H3B H 0.675(4) 0.160(3) 0.4828(11)
O3B O 0.23580(28) -0.15340(19) 0.57004(7)
O4B O 0.40140(26) 0.10522(18) 0.59452(7)
C2B C 0.3585(3) -0.0192(2) 0.56053(9)
O2A O 0.52292(17) 0.38599(24) 0.51313(6)
H3A H 0.485(3) 0.325(4) 0.4828(11)
O3A O 0.6108(2) 0.76420(28) 0.57004(7)
O4A O 0.70382(19) 0.59860(26) 0.59452(7)
C1A C 0.5347(3) 0.5347(3) 0.5000
C2A C 0.6223(2) 0.6415(3) 0.56053(9)
O2D O 0.38599(24) 0.52292(17) 0.48687(6)
H3D H 0.325(4) 0.485(3) 0.5172(11)
O3D O 0.76420(28) 0.6108(2) 0.42996(7)
O4D O 0.59860(26) 0.70382(19) 0.40548(7)
C2D C 0.6415(3) 0.6223(2) 0.43947(9)
O1D O 0.4981(3) -0.1538(2) 0.32076(7)
H1D H 0.484(4) -0.088(3) 0.2983(11)
H2D H 0.554(4) -0.178(4) 0.2956(12)
O1E O 0.3481(2) -0.4981(3) 0.32076(7)
H1E H 0.428(2) -0.484(4) 0.2983(11)
H2E H 0.268(2) -0.554(4) 0.2956(12)
Er1C_2 Er 0.3333 0.6667 0.401350(5)
Er1C_3 Er 1.3333 0.6667 0.401350(5)
O2D_2 O 0.38599(24) -0.47708(17) 0.48687(6)
O2E_2 O 0.13693(17) -0.38599(24) 0.48687(6)
O4D_2 O 0.59860(26) -0.29618(19) 0.40548(7)
O4E_2 O 0.10522(18) -0.59860(26) 0.40548(7)
O5 O 0.6667 0.3333 0.8333
loop_
_geom_bond_atom_site_label_1
_geom_bond_atom_site_label_2
_geom_bond_site_symmetry_1
_geom_bond_site_symmetry_2
Er1 O1 1_555 1_555
O1 H1 1_555 1_555
H2 O1 1_555 1_555
O2 Er1 1_555 1_555
H3 O2 1_555 1_555
O3 C2 1_555 1_555
O4 Er1 1_555 1_555
C1 O2 1_555 1_555
C2 O4 1_555 1_555
O2E C1 1_555 1_555
H3E O2E 1_555 1_555
O3E C2E 1_555 1_555
O4E C2E 1_555 1_555
C2E C1 1_555 1_555
O1A Er1 1_555 1_555
H1A O1A 1_555 1_555
H2A O1A 1_555 1_555
O1B Er1 1_555 1_555
H1B O1B 1_555 1_555
H2B O1B 1_555 1_555
Er1C O1C 1_555 1_555
O1C H1C 1_555 1_555
H2C O1C 1_555 1_555
O2C Er1C 1_555 1_555
H3C O2C 1_555 1_555
O3C C2C 1_555 1_555
O4C Er1C 1_555 1_555
C1B O2C 1_555 1_555
C2C O4C 1_555 1_555
O2B Er1 1_555 1_555
H3B O2B 1_555 1_555
O3B C2B 1_555 1_555
O4B Er1 1_555 1_555
C2B C1B 1_555 1_555
O2A Er1 1_555 1_555
H3A O2A 1_555 1_555
O3A C2A 1_555 1_555
O4A Er1 1_555 1_555
C1A O2A 1_555 1_555
C2A O4A 1_555 1_555
O2D C1A 1_555 1_555
H3D O2D 1_555 1_555
O3D C2D 1_555 1_555
O4D C2D 1_555 1_555
C2D C1A 1_555 1_555
O1D Er1C 1_555 1_555
H1D O1D 1_555 1_555
H2D O1D 1_555 1_555
O1E Er1C 1_555 1_555
H1E O1E 1_555 1_555
H2E O1E 1_555 1_555
Er1C_2 O2D 1_555 1_555
Er1C_3 O2E 1_555 1_555
O2D_2 Er1C 1_555 1_555
O2E_2 Er1C 1_555 1_555
O4D_2 Er1C 1_555 1_555
O4E_2 Er1C 1_555 1_555
C1 C2 1_555 1_555
O4E Er1C_3 1_555 1_555
C1B C2C 1_555 1_555
C1B O2B 1_555 1_555
O4B C2B 1_555 1_555
C1A C2A 1_555 1_555
O4D Er1C_2 1_555 1_555

#END
