
#######################################################################
#
#                 Cambridge Crystallographic Data Centre
#                                CCDC 
#
#######################################################################
#
# If this CIF has been generated from an entry in the Cambridge 
# Structural Database, then it will include bibliographic, chemical, 
# crystal, experimental, refinement or atomic coordinate data resulting 
# from the CCDC's data processing and validation procedures.
#
#######################################################################

data_UFOFEC
_symmetry_cell_setting           rhombohedral
_symmetry_space_group_name_H-M   'R 3 2'
_symmetry_Int_Tables_number      155
_space_group_name_Hall           'R 3 2"'
loop_
_symmetry_equiv_pos_site_id
_symmetry_equiv_pos_as_xyz
1 x,y,z
2 -y,x-y,z
3 -x+y,-x,z
4 y,x,-z
5 x-y,-y,-z
6 -x,-x+y,-z
7 2/3+x,1/3+y,1/3+z
8 2/3-y,1/3+x-y,1/3+z
9 2/3-x+y,1/3-x,1/3+z
10 2/3+y,1/3+x,1/3-z
11 2/3+x-y,1/3-y,1/3-z
12 2/3-x,1/3-x+y,1/3-z
13 1/3+x,2/3+y,2/3+z
14 1/3-y,2/3+x-y,2/3+z
15 1/3-x+y,2/3-x,2/3+z
16 1/3+y,2/3+x,2/3-z
17 1/3+x-y,2/3-y,2/3-z
18 1/3-x,2/3-x+y,2/3-z
_cell_length_a                   9.59550(10)
_cell_length_b                   9.59550(10)
_cell_length_c                   20.4457(3)
_cell_angle_alpha                90
_cell_angle_beta                 90
_cell_angle_gamma                120
_cell_volume                     1630.3
loop_
_atom_site_label
_atom_site_type_symbol
_atom_site_fract_x
_atom_site_fract_y
_atom_site_fract_z
Ho1 Ho 0.3333 0.6667 0.401026(4)
O1 O 0.13673(12) 0.52306(13) 0.48676(5)
H1 H 0.157(3) 0.481(3) 0.5162(9)
O2 O 0.34741(15) 0.84629(16) 0.32011(6)
H2 H 0.425(2) 0.906(3) 0.2964(10)
H3 H 0.2658(19) 0.833(3) 0.2994(12)
O3 O 0.10446(14) 0.70305(15) 0.40539(5)
O4 O -0.15336(14) 0.61146(17) 0.43027(6)
C1 C 0.0000 0.53503(18) 0.5000
C2 C -0.01974(17) 0.62203(18) 0.43949(7)
O1E O -0.13673(12) 0.38633(18) 0.51324(5)
H1E H -0.157(3) 0.324(4) 0.4838(9)
O3E O -0.10446(14) 0.59859(21) 0.59461(5)
O4E O 0.15336(14) 0.76482(22) 0.56973(6)
C2E C 0.01974(17) 0.64177(25) 0.56051(7)
O2A O 0.15371(16) 0.50112(22) 0.32011(6)
H2A H 0.094(3) 0.519(4) 0.2964(10)
H3A H 0.167(3) 0.4328(36) 0.2994(12)
O2B O 0.49888(22) 0.65259(15) 0.32011(6)
H2B H 0.481(4) 0.575(2) 0.2964(10)
H3B H 0.5672(36) 0.7342(19) 0.2994(12)
Ho1C Ho 0.6667 1.3333 0.598974(4)
O1C O 0.52306(13) 1.13673(12) 0.51324(5)
H1C H 0.481(3) 1.157(3) 0.4838(9)
O2C O 0.84629(16) 1.34741(15) 0.67989(6)
H2C H 0.906(3) 1.425(2) 0.7036(10)
H3C H 0.833(3) 1.2658(19) 0.7006(12)
O3C O 0.70305(15) 1.10446(14) 0.59461(5)
O4C O 0.61146(17) 0.84664(14) 0.56973(6)
C1B C 0.53503(18) 1.0000 0.5000
C2C C 0.62203(18) 0.98026(17) 0.56051(7)
O1B O 0.38633(18) 0.86327(12) 0.48676(5)
H1B H 0.324(4) 0.843(3) 0.5162(9)
O3B O 0.59859(21) 0.89554(14) 0.40539(5)
O4B O 0.76482(22) 1.15336(14) 0.43027(6)
C2B C 0.64177(25) 1.01974(17) 0.43949(7)
O1A O 0.47694(13) 0.61367(18) 0.48676(5)
H1A H 0.519(3) 0.676(4) 0.5162(9)
O3A O 0.29695(15) 0.40141(21) 0.40539(5)
O4A O 0.38854(17) 0.23518(22) 0.43027(6)
C1A C 0.46497(18) 0.46497(18) 0.5000
C2A C 0.37797(18) 0.35823(25) 0.43949(7)
O1D O 0.61367(18) 0.47694(13) 0.51324(5)
H1D H 0.676(4) 0.519(3) 0.4838(9)
O3D O 0.40141(21) 0.29695(15) 0.59461(5)
O4D O 0.23518(22) 0.38854(17) 0.56973(6)
C2D C 0.35823(25) 0.37797(18) 0.56051(7)
O2D O 0.50112(22) 1.15371(16) 0.67989(6)
H2D H 0.519(4) 1.094(3) 0.7036(10)
H3D H 0.4328(36) 1.167(3) 0.7006(12)
O2E O 0.65259(15) 1.49888(22) 0.67989(6)
H2E H 0.575(2) 1.481(4) 0.7036(10)
H3E H 0.7342(19) 1.5672(36) 0.7006(12)
Ho1C_2 Ho -0.3333 0.3333 0.598974(4)
Ho1C_3 Ho 0.6667 0.3333 0.598974(4)
O1D_2 O 0.61367(18) 1.47694(13) 0.51324(5)
O1E_2 O 0.86327(12) 1.38633(18) 0.51324(5)
O3D_2 O 0.40141(21) 1.29695(15) 0.59461(5)
O3E_2 O 0.89554(14) 1.59859(21) 0.59461(5)
O5 O 0.3333 0.6667 0.1667
loop_
_geom_bond_atom_site_label_1
_geom_bond_atom_site_label_2
_geom_bond_site_symmetry_1
_geom_bond_site_symmetry_2
Ho1 O1 1_555 1_555
O1 H1 1_555 1_555
O2 Ho1 1_555 1_555
H2 O2 1_555 1_555
H3 O2 1_555 1_555
O3 Ho1 1_555 1_555
O4 C2 1_555 1_555
C1 O1 1_555 1_555
C2 O3 1_555 1_555
O1E C1 1_555 1_555
H1E O1E 1_555 1_555
O3E C2E 1_555 1_555
O4E C2E 1_555 1_555
C2E C1 1_555 1_555
O2A Ho1 1_555 1_555
H2A O2A 1_555 1_555
H3A O2A 1_555 1_555
O2B Ho1 1_555 1_555
H2B O2B 1_555 1_555
H3B O2B 1_555 1_555
Ho1C O1C 1_555 1_555
O1C H1C 1_555 1_555
O2C Ho1C 1_555 1_555
H2C O2C 1_555 1_555
H3C O2C 1_555 1_555
O3C Ho1C 1_555 1_555
O4C C2C 1_555 1_555
C1B O1C 1_555 1_555
C2C O3C 1_555 1_555
O1B Ho1 1_555 1_555
H1B O1B 1_555 1_555
O3B Ho1 1_555 1_555
O4B C2B 1_555 1_555
C2B C1B 1_555 1_555
O1A Ho1 1_555 1_555
H1A O1A 1_555 1_555
O3A Ho1 1_555 1_555
O4A C2A 1_555 1_555
C1A O1A 1_555 1_555
C2A O3A 1_555 1_555
O1D C1A 1_555 1_555
H1D O1D 1_555 1_555
O3D C2D 1_555 1_555
O4D C2D 1_555 1_555
C2D C1A 1_555 1_555
O2D Ho1C 1_555 1_555
H2D O2D 1_555 1_555
H3D O2D 1_555 1_555
O2E Ho1C 1_555 1_555
H2E O2E 1_555 1_555
H3E O2E 1_555 1_555
Ho1C_2 O1E 1_555 1_555
Ho1C_3 O1D 1_555 1_555
O1D_2 Ho1C 1_555 1_555
O1E_2 Ho1C 1_555 1_555
O3D_2 Ho1C 1_555 1_555
O3E_2 Ho1C 1_555 1_555
C1 C2 1_555 1_555
O3E Ho1C_2 1_555 1_555
C1B C2C 1_555 1_555
C1B O1B 1_555 1_555
O3B C2B 1_555 1_555
C1A C2A 1_555 1_555
O3D Ho1C_3 1_555 1_555

#END
