
#######################################################################
#
#                 Cambridge Crystallographic Data Centre
#                                CCDC 
#
#######################################################################
#
# If this CIF has been generated from an entry in the Cambridge 
# Structural Database, then it will include bibliographic, chemical, 
# crystal, experimental, refinement or atomic coordinate data resulting 
# from the CCDC's data processing and validation procedures.
#
#######################################################################

data_UFOFOM
_symmetry_cell_setting           rhombohedral
_symmetry_space_group_name_H-M   'R 3 2'
_symmetry_Int_Tables_number      155
_space_group_name_Hall           'R 3 2"'
loop_
_symmetry_equiv_pos_site_id
_symmetry_equiv_pos_as_xyz
1 x,y,z
2 -y,x-y,z
3 -x+y,-x,z
4 y,x,-z
5 x-y,-y,-z
6 -x,-x+y,-z
7 2/3+x,1/3+y,1/3+z
8 2/3-y,1/3+x-y,1/3+z
9 2/3-x+y,1/3-x,1/3+z
10 2/3+y,1/3+x,1/3-z
11 2/3+x-y,1/3-y,1/3-z
12 2/3-x,1/3-x+y,1/3-z
13 1/3+x,2/3+y,2/3+z
14 1/3-y,2/3+x-y,2/3+z
15 1/3-x+y,2/3-x,2/3+z
16 1/3+y,2/3+x,2/3-z
17 1/3+x-y,2/3-y,2/3-z
18 1/3-x,2/3-x+y,2/3-z
_cell_length_a                   9.6458(3)
_cell_length_b                   9.6458(3)
_cell_length_c                   20.6369(8)
_cell_angle_alpha                90
_cell_angle_beta                 90
_cell_angle_gamma                120
_cell_volume                     1662.84
loop_
_atom_site_label
_atom_site_type_symbol
_atom_site_fract_x
_atom_site_fract_y
_atom_site_fract_z
Eu1 Eu 0.3333 0.6667 0.399662(7)
O1 O 0.3457(2) 0.8468(2) 0.31732(9)
H1 H 0.420(2) 0.911(3) 0.2934(12)
H2 H 0.261(2) 0.826(4) 0.2983(14)
O2 O 0.1355(2) 0.52379(19) 0.48644(8)
H3 H 0.168(3) 0.493(3) 0.5158(11)
O3 O -0.1539(2) 0.6114(2) 0.43213(9)
O4 O 0.1010(2) 0.7018(2) 0.40580(8)
C1 C 0.0000 0.5354(3) 0.5000
C2 C -0.0209(3) 0.6220(3) 0.44012(11)
O2E O -0.1355(2) 0.38829(28) 0.51356(8)
H3E H -0.168(3) 0.325(4) 0.4842(11)
O3E O 0.1539(2) 0.7653(3) 0.56787(9)
O4E O -0.1010(2) 0.6008(3) 0.59420(8)
C2E C 0.0209(3) 0.6429(4) 0.55988(11)
O1A O 0.1532(2) 0.4989(3) 0.31732(9)
H1A H 0.089(3) 0.509(4) 0.2934(12)
H2A H 0.174(4) 0.435(4) 0.2983(14)
O1B O 0.5011(3) 0.6543(2) 0.31732(9)
H1B H 0.491(4) 0.580(2) 0.2934(12)
H2B H 0.565(4) 0.739(2) 0.2983(14)
Eu1C Eu 0.6667 1.3333 0.600338(7)
O1C O 0.8468(2) 1.3457(2) 0.68268(9)
H1C H 0.911(3) 1.420(2) 0.7066(12)
H2C H 0.826(4) 1.261(2) 0.7017(14)
O2C O 0.52379(19) 1.1355(2) 0.51356(8)
H3C H 0.493(3) 1.168(3) 0.4842(11)
O3C O 0.6114(2) 0.8461(2) 0.56787(9)
O4C O 0.7018(2) 1.1010(2) 0.59420(8)
C1B C 0.5354(3) 1.0000 0.5000
C2C C 0.6220(3) 0.9791(3) 0.55988(11)
O2B O 0.38829(28) 0.8645(2) 0.48644(8)
H3B H 0.325(4) 0.832(3) 0.5158(11)
O3B O 0.7653(3) 1.1539(2) 0.43213(9)
O4B O 0.6008(3) 0.8990(2) 0.40580(8)
C2B C 0.6429(4) 1.0209(3) 0.44012(11)
O2A O 0.47621(19) 0.61171(28) 0.48644(8)
H3A H 0.507(3) 0.675(4) 0.5158(11)
O3A O 0.3886(2) 0.2347(3) 0.43213(9)
O4A O 0.2982(2) 0.3992(3) 0.40580(8)
C1A C 0.4646(3) 0.4646(3) 0.5000
C2A C 0.3780(3) 0.3571(4) 0.44012(11)
O2D O 0.61171(28) 0.47621(19) 0.51356(8)
H3D H 0.675(4) 0.507(3) 0.4842(11)
O3D O 0.2347(3) 0.3886(2) 0.56787(9)
O4D O 0.3992(3) 0.2982(2) 0.59420(8)
C2D C 0.3571(4) 0.3780(3) 0.55988(11)
O1D O 0.4989(3) 1.1532(2) 0.68268(9)
H1D H 0.509(4) 1.089(3) 0.7066(12)
H2D H 0.435(4) 1.174(4) 0.7017(14)
O1E O 0.6543(2) 1.5011(3) 0.68268(9)
H1E H 0.580(2) 1.491(4) 0.7066(12)
H2E H 0.739(2) 1.565(4) 0.7017(14)
Eu1C_2 Eu -0.3333 0.3333 0.600338(7)
Eu1C_3 Eu 0.6667 0.3333 0.600338(7)
O2D_2 O 0.61171(28) 1.47621(19) 0.51356(8)
O2E_2 O 0.8645(2) 1.38829(28) 0.51356(8)
O4D_2 O 0.3992(3) 1.2982(2) 0.59420(8)
O4E_2 O 0.8990(2) 1.6008(3) 0.59420(8)
O5 O 0.3333 0.6667 0.1667
loop_
_geom_bond_atom_site_label_1
_geom_bond_atom_site_label_2
_geom_bond_site_symmetry_1
_geom_bond_site_symmetry_2
Eu1 O1 1_555 1_555
O1 H1 1_555 1_555
H2 O1 1_555 1_555
O2 Eu1 1_555 1_555
H3 O2 1_555 1_555
O3 C2 1_555 1_555
O4 Eu1 1_555 1_555
C1 O2 1_555 1_555
C2 O4 1_555 1_555
O2E C1 1_555 1_555
H3E O2E 1_555 1_555
O3E C2E 1_555 1_555
O4E C2E 1_555 1_555
C2E C1 1_555 1_555
O1A Eu1 1_555 1_555
H1A O1A 1_555 1_555
H2A O1A 1_555 1_555
O1B Eu1 1_555 1_555
H1B O1B 1_555 1_555
H2B O1B 1_555 1_555
Eu1C O1C 1_555 1_555
O1C H1C 1_555 1_555
H2C O1C 1_555 1_555
O2C Eu1C 1_555 1_555
H3C O2C 1_555 1_555
O3C C2C 1_555 1_555
O4C Eu1C 1_555 1_555
C1B O2C 1_555 1_555
C2C O4C 1_555 1_555
O2B Eu1 1_555 1_555
H3B O2B 1_555 1_555
O3B C2B 1_555 1_555
O4B Eu1 1_555 1_555
C2B C1B 1_555 1_555
O2A Eu1 1_555 1_555
H3A O2A 1_555 1_555
O3A C2A 1_555 1_555
O4A Eu1 1_555 1_555
C1A O2A 1_555 1_555
C2A O4A 1_555 1_555
O2D C1A 1_555 1_555
H3D O2D 1_555 1_555
O3D C2D 1_555 1_555
O4D C2D 1_555 1_555
C2D C1A 1_555 1_555
O1D Eu1C 1_555 1_555
H1D O1D 1_555 1_555
H2D O1D 1_555 1_555
O1E Eu1C 1_555 1_555
H1E O1E 1_555 1_555
H2E O1E 1_555 1_555
Eu1C_2 O2E 1_555 1_555
Eu1C_3 O2D 1_555 1_555
O2D_2 Eu1C 1_555 1_555
O2E_2 Eu1C 1_555 1_555
O4D_2 Eu1C 1_555 1_555
O4E_2 Eu1C 1_555 1_555
C1 C2 1_555 1_555
O4E Eu1C_2 1_555 1_555
C1B C2C 1_555 1_555
C1B O2B 1_555 1_555
O4B C2B 1_555 1_555
C1A C2A 1_555 1_555
O4D Eu1C_3 1_555 1_555

#END
