
#######################################################################
#
#                 Cambridge Crystallographic Data Centre
#                                CCDC 
#
#######################################################################
#
# If this CIF has been generated from an entry in the Cambridge 
# Structural Database, then it will include bibliographic, chemical, 
# crystal, experimental, refinement or atomic coordinate data resulting 
# from the CCDC's data processing and validation procedures.
#
#######################################################################

data_UFOFIF
_symmetry_cell_setting           monoclinic
_symmetry_space_group_name_H-M   'P 21'
_symmetry_Int_Tables_number      4
_space_group_name_Hall           'P 2yb'
loop_
_symmetry_equiv_pos_site_id
_symmetry_equiv_pos_as_xyz
1 x,y,z
2 -x,1/2+y,-z
_cell_length_a                   7.3785(3)
_cell_length_b                   14.4288(7)
_cell_length_c                   11.7625(5)
_cell_angle_alpha                90
_cell_angle_beta                 98.9990(18)
_cell_angle_gamma                90
_cell_volume                     1236.86
loop_
_atom_site_label
_atom_site_type_symbol
_atom_site_fract_x
_atom_site_fract_y
_atom_site_fract_z
Nb1 Nb 0.05643(3) 0.74152(3) 0.66021(2)
Mn1 Mn 0.49947(7) 0.49998(4) 0.47582(4)
Mn2 Mn 0.02896(6) 0.97329(4) 1.02693(4)
O1 O 0.6077(3) 0.40392(18) 0.6213(2)
O2 O 0.3867(3) 0.59406(19) 0.3316(2)
O3 O 0.0492(3) 0.85133(18) 1.1408(2)
O4 O 0.0150(3) 1.08863(17) 0.8995(2)
N1 N 0.4306(3) 0.7223(2) 0.8710(2)
N2 N 0.0444(4) 0.7862(2) 0.3739(2)
N3 N 0.3212(4) 0.5692(2) 0.5815(2)
N4 N -0.2762(3) 0.6006(2) 0.5236(2)
N5 N -0.2828(4) 0.8984(2) 0.5806(2)
N6 N 0.3231(3) 0.92695(19) 0.6288(2)
N7 N -0.0105(3) 0.87461(19) 0.8870(2)
N8 N -0.0545(3) 0.5764(2) 0.8412(2)
N9 N 0.3380(3) 0.97237(19) 1.0257(2)
N10 N 0.7174(3) 0.97582(19) 1.0247(2)
C1 C 0.3068(4) 0.7275(2) 0.7987(2)
C2 C 0.0517(4) 0.7678(2) 0.4691(2)
C3 C 0.2294(4) 0.6267(2) 0.6076(2)
C4 C -0.1662(4) 0.6508(2) 0.5680(2)
C5 C -0.1729(4) 0.8422(2) 0.6069(2)
C6 C 0.2331(4) 0.8644(2) 0.6419(2)
C7 C 0.0069(4) 0.8270(2) 0.8112(2)
C8 C -0.0204(4) 0.6346(2) 0.7818(2)
C9 C 0.4097(4) 0.9624(2) 0.9289(2)
C10 C 0.5973(4) 0.9646(2) 0.9273(2)
C11 C 0.6458(4) 0.9865(2) 1.1225(2)
C12 C 0.4590(4) 0.9848(2) 1.1230(2)
H1 H 0.3290 0.9533 0.8585
H2 H 0.6418 0.9581 0.8561
H3 H 0.7264 0.9951 1.1930
H4 H 0.4140 0.9926 1.1938
Mn1_2 Mn -0.50053(7) 0.49998(4) 0.47582(4)
Mn1A Mn -0.49947(7) 0.99998(4) 0.52418(4)
Mn1A_2 Mn 0.50053(7) 0.99998(4) 0.52418(4)
Mn2A Mn -0.02896(6) 0.47329(4) 0.97307(4)
Mn2_2 Mn 1.02896(6) 0.97329(4) 1.02693(4)
N4_2 N 0.7238(3) 0.6006(2) 0.5236(2)
N5A N 0.2828(4) 0.3984(2) 0.4194(2)
N6A N 0.6769(3) 0.42695(19) 0.3712(2)
N8A N 0.0545(3) 1.0764(2) 1.1588(2)
N10_2 N -0.2826(3) 0.97582(19) 1.0247(2)
O5 O 0.2786(3) 0.71752(18) 1.0901(2)
O6 O 0.0061(3) 0.56205(19) 1.3293(2)
O7 O 0.7314(3) 0.7289(2) 1.0599(2)
O8 O 0.6016(3) 0.7577(2) 1.2926(2)
loop_
_geom_bond_atom_site_label_1
_geom_bond_atom_site_label_2
_geom_bond_site_symmetry_1
_geom_bond_site_symmetry_2
Nb1 C1 1_555 1_555
Mn1 O1 1_555 1_555
Mn2 O3 1_555 1_555
O2 Mn1 1_555 1_555
O4 Mn2 1_555 1_555
N1 C1 1_555 1_555
N2 C2 1_555 1_555
N3 Mn1 1_555 1_555
N4 C4 1_555 1_555
N5 C5 1_555 1_555
N6 C6 1_555 1_555
N7 Mn2 1_555 1_555
N8 C8 1_555 1_555
N9 Mn2 1_555 1_555
N10 C10 1_555 1_555
C2 Nb1 1_555 1_555
C3 Nb1 1_555 1_555
C4 Nb1 1_555 1_555
C5 Nb1 1_555 1_555
C6 Nb1 1_555 1_555
C7 Nb1 1_555 1_555
C8 Nb1 1_555 1_555
C9 N9 1_555 1_555
C10 C9 1_555 1_555
C11 N10 1_555 1_555
C12 N9 1_555 1_555
H1 C9 1_555 1_555
H2 C10 1_555 1_555
H3 C11 1_555 1_555
H4 C12 1_555 1_555
Mn1_2 N4 1_555 1_555
Mn1A N5 1_555 1_555
Mn1A_2 N6 1_555 1_555
Mn2A N8 1_555 1_555
Mn2_2 N10 1_555 1_555
N4_2 Mn1 1_555 1_555
N5A Mn1 1_555 1_555
N6A Mn1 1_555 1_555
N8A Mn2 1_555 1_555
N10_2 Mn2 1_555 1_555
N3 C3 1_555 1_555
N7 C7 1_555 1_555
C11 C12 1_555 1_555

#END
