
#######################################################################
#
#                 Cambridge Crystallographic Data Centre
#                                CCDC 
#
#######################################################################
#
# If this CIF has been generated from an entry in the Cambridge 
# Structural Database, then it will include bibliographic, chemical, 
# crystal, experimental, refinement or atomic coordinate data resulting 
# from the CCDC's data processing and validation procedures.
#
#######################################################################

data_UFOGED
_symmetry_cell_setting           rhombohedral
_symmetry_space_group_name_H-M   'R 3 2'
_symmetry_Int_Tables_number      155
_space_group_name_Hall           'R 3 2"'
loop_
_symmetry_equiv_pos_site_id
_symmetry_equiv_pos_as_xyz
1 x,y,z
2 -y,x-y,z
3 -x+y,-x,z
4 y,x,-z
5 x-y,-y,-z
6 -x,-x+y,-z
7 2/3+x,1/3+y,1/3+z
8 2/3-y,1/3+x-y,1/3+z
9 2/3-x+y,1/3-x,1/3+z
10 2/3+y,1/3+x,1/3-z
11 2/3+x-y,1/3-y,1/3-z
12 2/3-x,1/3-x+y,1/3-z
13 1/3+x,2/3+y,2/3+z
14 1/3-y,2/3+x-y,2/3+z
15 1/3-x+y,2/3-x,2/3+z
16 1/3+y,2/3+x,2/3-z
17 1/3+x-y,2/3-y,2/3-z
18 1/3-x,2/3-x+y,2/3-z
_cell_length_a                   9.7336(2)
_cell_length_b                   9.7336(2)
_cell_length_c                   21.1384(6)
_cell_angle_alpha                90
_cell_angle_beta                 90
_cell_angle_gamma                120
_cell_volume                     1734.4
loop_
_atom_site_label
_atom_site_type_symbol
_atom_site_fract_x
_atom_site_fract_y
_atom_site_fract_z
Ce1 Ce 0.6667 0.3333 0.602669(5)
O1 O 0.86638(15) 0.47447(15) 0.51361(6)
H1 H 0.843(3) 0.502(3) 0.4815(9)
O2 O 0.65801(19) 0.1527(2) 0.68667(7)
H2 H 0.585(2) 0.095(3) 0.7121(12)
H3 H 0.743(2) 0.175(4) 0.7061(13)
O3 O 0.90430(17) 0.29939(18) 0.59335(6)
O4 O 1.15522(16) 0.38591(19) 0.56471(6)
C1 C 1.0000 0.4614(2) 0.5000
C2 C 1.0237(2) 0.3770(2) 0.55834(8)
O1E O 1.13362(15) 0.60809(21) 0.48639(6)
H1E H 1.157(3) 0.659(4) 0.5185(9)
O3E O 1.09570(17) 0.39509(25) 0.40665(6)
O4E O 0.84478(16) 0.23069(25) 0.43529(6)
C2E C 0.9763(2) 0.3533(3) 0.44166(8)
O2A O 0.8473(2) 0.50531(28) 0.68667(7)
H2A H 0.905(3) 0.490(4) 0.7121(12)
H3A H 0.825(4) 0.568(4) 0.7061(13)
O2B O 0.49469(28) 0.34199(19) 0.68667(7)
H2B H 0.510(4) 0.415(2) 0.7121(12)
H3B H 0.432(4) 0.257(2) 0.7061(13)
Ce1C Ce 0.3333 -0.3333 0.397331(5)
O1C O 0.47447(15) -0.13362(15) 0.48639(6)
H1C H 0.502(3) -0.157(3) 0.5185(9)
O2C O 0.1527(2) -0.34199(19) 0.31333(7)
H2C H 0.095(3) -0.415(2) 0.2879(12)
H3C H 0.175(4) -0.257(2) 0.2939(13)
O3C O 0.29939(18) -0.09570(17) 0.40665(6)
O4C O 0.38591(19) 0.15522(16) 0.43529(6)
C1B C 0.4614(2) 0.0000 0.5000
C2C C 0.3770(2) 0.0237(2) 0.44166(8)
O1B O 0.60809(21) 0.13362(15) 0.51361(6)
H1B H 0.659(4) 0.157(3) 0.4815(9)
O3B O 0.39509(25) 0.09570(17) 0.59335(6)
O4B O 0.23069(25) -0.15522(16) 0.56471(6)
C2B C 0.3533(3) -0.0237(2) 0.55834(8)
O1A O 0.52553(15) 0.39191(21) 0.51361(6)
H1A H 0.498(3) 0.341(4) 0.4815(9)
O3A O 0.70061(18) 0.60491(25) 0.59335(6)
O4A O 0.61409(19) 0.76931(25) 0.56471(6)
C1A C 0.5386(2) 0.5386(2) 0.5000
C2A C 0.6230(2) 0.6467(3) 0.55834(8)
O1D O 0.39191(21) 0.52553(15) 0.48639(6)
H1D H 0.341(4) 0.498(3) 0.5185(9)
O3D O 0.60491(25) 0.70061(18) 0.40665(6)
O4D O 0.76931(25) 0.61409(19) 0.43529(6)
C2D C 0.6467(3) 0.6230(2) 0.44166(8)
O2D O 0.50531(28) -0.1527(2) 0.31333(7)
H2D H 0.490(4) -0.095(3) 0.2879(12)
H3D H 0.568(4) -0.175(4) 0.2939(13)
O2E O 0.34199(19) -0.50531(28) 0.31333(7)
H2E H 0.415(2) -0.490(4) 0.2879(12)
H3E H 0.257(2) -0.568(4) 0.2939(13)
Ce1C_2 Ce 0.3333 0.6667 0.397331(5)
Ce1C_3 Ce 1.3333 0.6667 0.397331(5)
O1D_2 O 0.39191(21) -0.47447(15) 0.48639(6)
O1E_2 O 0.13362(15) -0.39191(21) 0.48639(6)
O3D_2 O 0.60491(25) -0.29939(18) 0.40665(6)
O3E_2 O 0.09570(17) -0.60491(25) 0.40665(6)
O5 O 0.6667 0.3333 0.8333
loop_
_geom_bond_atom_site_label_1
_geom_bond_atom_site_label_2
_geom_bond_site_symmetry_1
_geom_bond_site_symmetry_2
Ce1 O1 1_555 1_555
O1 H1 1_555 1_555
O2 Ce1 1_555 1_555
H2 O2 1_555 1_555
H3 O2 1_555 1_555
O3 Ce1 1_555 1_555
O4 C2 1_555 1_555
C1 O1 1_555 1_555
C2 O3 1_555 1_555
O1E C1 1_555 1_555
H1E O1E 1_555 1_555
O3E C2E 1_555 1_555
O4E C2E 1_555 1_555
C2E C1 1_555 1_555
O2A Ce1 1_555 1_555
H2A O2A 1_555 1_555
H3A O2A 1_555 1_555
O2B Ce1 1_555 1_555
H2B O2B 1_555 1_555
H3B O2B 1_555 1_555
Ce1C O1C 1_555 1_555
O1C H1C 1_555 1_555
O2C Ce1C 1_555 1_555
H2C O2C 1_555 1_555
H3C O2C 1_555 1_555
O3C Ce1C 1_555 1_555
O4C C2C 1_555 1_555
C1B O1C 1_555 1_555
C2C O3C 1_555 1_555
O1B Ce1 1_555 1_555
H1B O1B 1_555 1_555
O3B Ce1 1_555 1_555
O4B C2B 1_555 1_555
C2B C1B 1_555 1_555
O1A Ce1 1_555 1_555
H1A O1A 1_555 1_555
O3A Ce1 1_555 1_555
O4A C2A 1_555 1_555
C1A O1A 1_555 1_555
C2A O3A 1_555 1_555
O1D C1A 1_555 1_555
H1D O1D 1_555 1_555
O3D C2D 1_555 1_555
O4D C2D 1_555 1_555
C2D C1A 1_555 1_555
O2D Ce1C 1_555 1_555
H2D O2D 1_555 1_555
H3D O2D 1_555 1_555
O2E Ce1C 1_555 1_555
H2E O2E 1_555 1_555
H3E O2E 1_555 1_555
Ce1C_2 O1D 1_555 1_555
Ce1C_3 O1E 1_555 1_555
O1D_2 Ce1C 1_555 1_555
O1E_2 Ce1C 1_555 1_555
O3D_2 Ce1C 1_555 1_555
O3E_2 Ce1C 1_555 1_555
C1 C2 1_555 1_555
O3E Ce1C_3 1_555 1_555
C1B C2C 1_555 1_555
C1B O1B 1_555 1_555
O3B C2B 1_555 1_555
C1A C2A 1_555 1_555
O3D Ce1C_2 1_555 1_555

#END
