
#######################################################################
#
#                 Cambridge Crystallographic Data Centre
#                                CCDC 
#
#######################################################################
#
# If this CIF has been generated from an entry in the Cambridge 
# Structural Database, then it will include bibliographic, chemical, 
# crystal, experimental, refinement or atomic coordinate data resulting 
# from the CCDC's data processing and validation procedures.
#
#######################################################################

data_UFOMIM
_symmetry_cell_setting           triclinic
_symmetry_space_group_name_H-M   'P -1'
_symmetry_Int_Tables_number      2
_space_group_name_Hall           '-P 1'
loop_
_symmetry_equiv_pos_site_id
_symmetry_equiv_pos_as_xyz
1 x,y,z
2 -x,-y,-z
_cell_length_a                   8.7707(18)
_cell_length_b                   10.712(2)
_cell_length_c                   13.511(3)
_cell_angle_alpha                104.73(3)
_cell_angle_beta                 104.84(3)
_cell_angle_gamma                102.52(3)
_cell_volume                     1131.48
loop_
_atom_site_label
_atom_site_type_symbol
_atom_site_fract_x
_atom_site_fract_y
_atom_site_fract_z
Cu1 Cu 0.0000 1.0000 1.0000
Cu2 Cu 0.5000 1.0000 1.5000
S1 S 0.31204(18) 0.81320(15) 1.26711(12)
S2 S 0.7610(3) 1.3190(2) 1.3618(2)
N1 N 0.1584(6) 0.9712(5) 1.1663(4)
N2 N 0.6025(6) 1.1339(5) 1.4411(4)
N3 N 0.0529(5) 1.2007(4) 1.0823(3)
N4 N 0.1518(6) 1.3934(4) 1.2166(4)
N5 N 0.2081(5) 1.0474(4) 0.9626(3)
N6 N 0.4671(5) 1.1476(4) 0.9840(4)
N7 N 0.3231(5) 1.0894(4) 1.5079(3)
N8 N 0.1401(6) 1.1665(5) 1.5664(4)
C1 C 0.2233(6) 0.9083(5) 1.2088(4)
C2 C 0.6662(7) 1.2102(6) 1.4079(5)
C3 C 0.1039(7) 1.2582(5) 1.1871(4)
H1 H 0.1067 1.2105 1.2359
C4 C 0.1292(8) 1.4243(6) 1.1240(5)
H2 H 0.1523 1.5106 1.1183
C5 C 0.0669(7) 1.3060(5) 1.0415(5)
H3 H 0.0380 1.2971 0.9683
C6 C 0.2291(11) 1.4885(6) 1.3281(5)
H4 H 0.1958 1.4454 1.3774
H5 H 0.1897 1.5671 1.3336
C7 C 0.4129(12) 1.5333(9) 1.3611(8)
H6 H 0.4581 1.5943 1.4344
H7 H 0.4466 1.5787 1.3139
H8 H 0.4525 1.4560 1.3563
C8 C 0.3533(6) 1.1244(5) 1.0323(4)
H9 H 0.3746 1.1589 1.1066
C9 C 0.3898(8) 1.0803(7) 0.8764(5)
H10 H 0.4365 1.0762 0.8216
C10 C 0.2302(8) 1.0201(7) 0.8652(5)
H11 H 0.1480 0.9675 0.7996
C11 C 0.6367(7) 1.2367(7) 1.0340(6)
H12 H 0.7057 1.2011 0.9956
H13 H 0.6783 1.2391 1.1084
C12 C 0.6476(10) 1.3770(7) 1.0321(8)
H14 H 0.7606 1.4331 1.0653
H15 H 0.5812 1.4132 1.0713
H16 H 0.6080 1.3751 0.9584
C13 C 0.2486(6) 1.0960(6) 1.5811(4)
H17 H 0.2681 1.0573 1.6356
C14 C 0.1432(8) 1.2036(7) 1.4781(5)
H18 H 0.0798 1.2523 1.4479
C15 C 0.2577(7) 1.1555(6) 1.4424(5)
H19 H 0.2866 1.1661 1.3828
C16 C 0.0417(7) 1.2014(7) 1.6370(5)
H20 H 0.0136 1.1293 1.6664
H21 H -0.0605 1.2101 1.5945
C17 C 0.1347(10) 1.3299(9) 1.7269(7)
H22 H 0.0681 1.3508 1.7714
H23 H 0.1614 1.4016 1.6977
H24 H 0.2348 1.3208 1.7697
Cu2_2 Cu -0.5000 1.0000 0.5000
S1A S -0.31204(18) 1.18680(15) 0.73289(12)
S1A_2 S 0.68796(18) 1.18680(15) 1.73289(12)
S2A S 0.2390(3) 0.6810(2) 1.6382(2)
N1A N -0.1584(6) 1.0288(5) 0.8337(4)
N2A N 0.3975(6) 0.8661(5) 1.5589(4)
N3A N -0.0529(5) 0.7993(4) 0.9177(3)
N4A N -0.1518(6) 0.6066(4) 0.7834(4)
N5A N -0.2081(5) 0.9526(4) 1.0374(3)
N6A N -0.4671(5) 0.8524(4) 1.0160(4)
N7A N 0.6769(5) 0.9106(4) 1.4921(3)
N8A N 0.8599(6) 0.8335(5) 1.4336(4)
C1A C -0.2233(6) 1.0917(5) 0.7912(4)
C2A C 0.3338(7) 0.7898(6) 1.5921(5)
C3A C -0.1039(7) 0.7418(5) 0.8129(4)
H1A H -0.1067 0.7895 0.7641
C4A C -0.1292(8) 0.5757(6) 0.8760(5)
H2A H -0.1523 0.4894 0.8817
C5A C -0.0669(7) 0.6940(5) 0.9585(5)
H3A H -0.0380 0.7029 1.0317
C6A C -0.2291(11) 0.5115(6) 0.6719(5)
H4A H -0.1958 0.5546 0.6226
H5A H -0.1897 0.4329 0.6664
C7A C -0.4129(12) 0.4667(9) 0.6389(8)
H6A H -0.4581 0.4057 0.5656
H7A H -0.4466 0.4213 0.6861
H8A H -0.4525 0.5440 0.6437
C8A C -0.3533(6) 0.8756(5) 0.9677(4)
H9A H -0.3746 0.8411 0.8934
C9A C -0.3898(8) 0.9197(7) 1.1236(5)
H10A H -0.4365 0.9238 1.1784
C10A C -0.2302(8) 0.9799(7) 1.1348(5)
H11A H -0.1480 1.0325 1.2004
C11A C -0.6367(7) 0.7633(7) 0.9660(6)
H12A H -0.7057 0.7989 1.0044
H13A H -0.6783 0.7609 0.8916
C12A C -0.6476(10) 0.6230(7) 0.9679(8)
H14A H -0.7606 0.5669 0.9347
H15A H -0.5812 0.5868 0.9287
H16A H -0.6080 0.6249 1.0416
C13A C 0.7514(6) 0.9040(6) 1.4189(4)
H17A H 0.7319 0.9427 1.3644
C14A C 0.8568(8) 0.7964(7) 1.5219(5)
H18A H 0.9202 0.7477 1.5521
C15A C 0.7423(7) 0.8445(6) 1.5576(5)
H19A H 0.7134 0.8339 1.6172
C16A C 0.9583(7) 0.7986(7) 1.3630(5)
H20A H 0.9864 0.8707 1.3336
H21A H 1.0605 0.7899 1.4055
C17A C 0.8653(10) 0.6701(9) 1.2731(7)
H22A H 0.9319 0.6492 1.2286
H23A H 0.8386 0.5984 1.3023
H24A H 0.7652 0.6792 1.2303
loop_
_geom_bond_atom_site_label_1
_geom_bond_atom_site_label_2
_geom_bond_site_symmetry_1
_geom_bond_site_symmetry_2
Cu1 N1 1_555 1_555
Cu2 S1 1_555 1_555
S1 C1 1_555 1_555
S2 C2 1_555 1_555
N1 C1 1_555 1_555
N2 Cu2 1_555 1_555
N3 Cu1 1_555 1_555
N4 C3 1_555 1_555
N5 Cu1 1_555 1_555
N6 C8 1_555 1_555
N7 Cu2 1_555 1_555
N8 C13 1_555 1_555
C2 N2 1_555 1_555
C3 N3 1_555 1_555
H1 C3 1_555 1_555
C4 N4 1_555 1_555
H2 C4 1_555 1_555
C5 N3 1_555 1_555
H3 C5 1_555 1_555
C6 N4 1_555 1_555
H4 C6 1_555 1_555
H5 C6 1_555 1_555
C7 C6 1_555 1_555
H6 C7 1_555 1_555
H7 C7 1_555 1_555
H8 C7 1_555 1_555
C8 N5 1_555 1_555
H9 C8 1_555 1_555
C9 N6 1_555 1_555
H10 C9 1_555 1_555
C10 N5 1_555 1_555
H11 C10 1_555 1_555
C11 N6 1_555 1_555
H12 C11 1_555 1_555
H13 C11 1_555 1_555
C12 C11 1_555 1_555
H14 C12 1_555 1_555
H15 C12 1_555 1_555
H16 C12 1_555 1_555
C13 N7 1_555 1_555
H17 C13 1_555 1_555
C14 N8 1_555 1_555
H18 C14 1_555 1_555
C15 N7 1_555 1_555
H19 C15 1_555 1_555
C16 N8 1_555 1_555
H20 C16 1_555 1_555
H21 C16 1_555 1_555
C17 C16 1_555 1_555
H22 C17 1_555 1_555
H23 C17 1_555 1_555
H24 C17 1_555 1_555
Cu2_2 S1A 1_555 1_555
S1A C1A 1_555 1_555
S1A_2 Cu2 1_555 1_555
S2A C2A 1_555 1_555
N1A Cu1 1_555 1_555
N2A Cu2 1_555 1_555
N3A Cu1 1_555 1_555
N4A C3A 1_555 1_555
N5A Cu1 1_555 1_555
N6A C8A 1_555 1_555
N7A Cu2 1_555 1_555
N8A C13A 1_555 1_555
C1A N1A 1_555 1_555
C2A N2A 1_555 1_555
C3A N3A 1_555 1_555
H1A C3A 1_555 1_555
C4A N4A 1_555 1_555
H2A C4A 1_555 1_555
C5A N3A 1_555 1_555
H3A C5A 1_555 1_555
C6A N4A 1_555 1_555
H4A C6A 1_555 1_555
H5A C6A 1_555 1_555
C7A C6A 1_555 1_555
H6A C7A 1_555 1_555
H7A C7A 1_555 1_555
H8A C7A 1_555 1_555
C8A N5A 1_555 1_555
H9A C8A 1_555 1_555
C9A N6A 1_555 1_555
H10A C9A 1_555 1_555
C10A N5A 1_555 1_555
H11A C10A 1_555 1_555
C11A N6A 1_555 1_555
H12A C11A 1_555 1_555
H13A C11A 1_555 1_555
C12A C11A 1_555 1_555
H14A C12A 1_555 1_555
H15A C12A 1_555 1_555
H16A C12A 1_555 1_555
C13A N7A 1_555 1_555
H17A C13A 1_555 1_555
C14A N8A 1_555 1_555
H18A C14A 1_555 1_555
C15A N7A 1_555 1_555
H19A C15A 1_555 1_555
C16A N8A 1_555 1_555
H20A C16A 1_555 1_555
H21A C16A 1_555 1_555
C17A C16A 1_555 1_555
H22A C17A 1_555 1_555
H23A C17A 1_555 1_555
H24A C17A 1_555 1_555
C4 C5 1_555 1_555
C9 C10 1_555 1_555
C14 C15 1_555 1_555
C4A C5A 1_555 1_555
C9A C10A 1_555 1_555
C14A C15A 1_555 1_555

#END
