
#######################################################################
#
#                 Cambridge Crystallographic Data Centre
#                                CCDC 
#
#######################################################################
#
# If this CIF has been generated from an entry in the Cambridge 
# Structural Database, then it will include bibliographic, chemical, 
# crystal, experimental, refinement or atomic coordinate data resulting 
# from the CCDC's data processing and validation procedures.
#
#######################################################################

data_UFOMEH
_symmetry_cell_setting           monoclinic
_symmetry_space_group_name_H-M   'P m'
_symmetry_Int_Tables_number      6
_space_group_name_Hall           'P -2y'
loop_
_symmetry_equiv_pos_site_id
_symmetry_equiv_pos_as_xyz
1 x,y,z
2 x,-y,z
_cell_length_a                   12.500(6)
_cell_length_b                   13.627(6)
_cell_length_c                   12.614(6)
_cell_angle_alpha                90
_cell_angle_beta                 119.680(12)
_cell_angle_gamma                90
_cell_volume                     1866.75
loop_
_atom_site_label
_atom_site_type_symbol
_atom_site_fract_x
_atom_site_fract_y
_atom_site_fract_z
C21 C 0.2249(16) 0.2109(11) 0.1617(16)
C22 C 0.1985(16) 0.2126(12) 0.0362(16)
C23 C 0.3148(16) 0.2129(12) 0.0366(16)
C24 C 0.4127(17) 0.2115(12) 0.1624(16)
C25 C 0.3573(16) 0.2103(12) 0.2396(17)
C26 C 0.1529(18) 0.2668(8) 0.1953(17)
C27 C 0.1019(19) 0.2701(10) -0.0485(18)
C28 C 0.3274(17) 0.2705(12) -0.0478(18)
C29 C 0.5183(19) 0.2674(11) 0.1970(17)
C30 C 0.4104(18) 0.2651(10) 0.3468(19)
C31 C 0.0496(17) 0.3232(7) 0.1056(18)
C32 C 0.0246(16) 0.3249(8) -0.0138(17)
C33 C 0.1141(17) 0.3267(11) -0.1387(16)
C34 C 0.2253(18) 0.3270(12) -0.1384(16)
C35 C 0.4394(17) 0.3254(12) -0.0122(18)
C36 C 0.5327(17) 0.3240(12) 0.1078(18)
C37 C 0.5757(17) 0.3212(11) 0.3106(17)
C38 C 0.5225(17) 0.3201(11) 0.3842(16)
C39 C 0.3348(19) 0.3199(10) 0.3833(16)
C40 C 0.2083(18) 0.3207(9) 0.3088(17)
C41 C 0.0430(20) 0.4136(6) 0.1630(20)
C42 C -0.0110(20) 0.4149(6) -0.0820(20)
C43 C 0.0420(20) 0.4153(6) -0.1620(20)
C44 C 0.2750(20) 0.4153(7) -0.1620(20)
C45 C 0.4070(20) 0.4149(7) -0.0830(30)
C46 C 0.5960(30) 0.4139(7) 0.1660(20)
C47 C 0.6220(30) 0.4130(7) 0.2910(20)
C48 C 0.5120(20) 0.4123(7) 0.4350(30)
C49 C 0.3960(20) 0.4123(7) 0.4340(20)
C50 C 0.1420(30) 0.4128(6) 0.2880(20)
C51 C -0.0110(40) 0.5000 0.0980(20)
C52 C -0.0190(70) 0.5000 -0.0220(50)
C53 C 0.0960(40) 0.5000 -0.1790(50)
C54 C 0.2020(20) 0.5000 -0.1980(40)
C55 C 0.4700(30) 0.5000 -0.0210(40)
C56 C 0.5830(40) 0.5000 0.0980(20)
C57 C 0.6110(60) 0.5000 0.3450(30)
C58 C 0.5740(30) 0.5000 0.4400(30)
C59 C 0.3320(30) 0.5000 0.4270(60)
C60 C 0.1970(40) 0.5000 0.3520(30)
C41A C 0.0430(20) 0.5864(6) 0.1630(20)
C31A C 0.0496(17) 0.6768(7) 0.1056(18)
C26A C 0.1529(18) 0.7332(8) 0.1953(17)
C21A C 0.2249(16) 0.7891(11) 0.1617(16)
C22A C 0.1985(16) 0.7874(12) 0.0362(16)
C23A C 0.3148(16) 0.7871(12) 0.0366(16)
C24A C 0.4127(17) 0.7885(12) 0.1624(16)
C25A C 0.3573(16) 0.7897(12) 0.2396(17)
C30A C 0.4104(18) 0.7349(10) 0.3468(19)
C38A C 0.5225(17) 0.6799(11) 0.3842(16)
C37A C 0.5757(17) 0.6788(11) 0.3106(17)
C29A C 0.5183(19) 0.7326(11) 0.1970(17)
C36A C 0.5327(17) 0.6760(12) 0.1078(18)
C35A C 0.4394(17) 0.6746(12) -0.0122(18)
C28A C 0.3274(17) 0.7295(12) -0.0478(18)
C34A C 0.2253(18) 0.6730(12) -0.1384(16)
C33A C 0.1141(17) 0.6733(11) -0.1387(16)
C27A C 0.1019(19) 0.7299(10) -0.0485(18)
C32A C 0.0246(16) 0.6751(8) -0.0138(17)
C42A C -0.0110(20) 0.5851(6) -0.0820(20)
C43A C 0.0420(20) 0.5847(6) -0.1620(20)
C45A C 0.4070(20) 0.5851(7) -0.0830(30)
C44A C 0.2750(20) 0.5847(7) -0.1620(20)
C47A C 0.6220(30) 0.5870(7) 0.2910(20)
C46A C 0.5960(30) 0.5861(7) 0.1660(20)
C49A C 0.3960(20) 0.5877(7) 0.4340(20)
C39A C 0.3348(19) 0.6801(10) 0.3833(16)
C40A C 0.2083(18) 0.6793(9) 0.3088(17)
C50A C 0.1420(30) 0.5872(6) 0.2880(20)
C48A C 0.5120(20) 0.5877(7) 0.4350(30)
Hg1 Hg 1.1479(10) 0.0000 0.8240(10)
Hg2 Hg 0.4615(10) 0.0000 -0.5497(10)
I1 I 1.3811(11) 0.0000 0.8906(11)
I2 I 0.9782(11) 0.0000 0.8888(11)
I3 I 0.2257(11) 0.0000 -0.6098(11)
I4 I 0.6339(11) 0.0000 -0.6117(11)
N1 N 1.0730(30) 0.1186(14) 0.6490(20)
C1 C 1.1470(30) 0.1685(14) 0.6290(20)
C2 C 1.1050(20) 0.2379(13) 0.5329(19)
C3 C 0.9750(20) 0.2497(14) 0.4580(20)
C4 C 0.9000(30) 0.1907(14) 0.4880(20)
C5 C 0.9510(30) 0.1290(16) 0.5800(20)
N2 N 0.5570(20) 0.1155(13) -0.3810(20)
C6 C 0.6570(20) 0.1689(12) -0.3532(19)
C7 C 0.7130(20) 0.2381(14) -0.2600(20)
C8 C 0.6540(20) 0.2502(16) -0.1890(20)
C9 C 0.5460(20) 0.1971(13) -0.2120(20)
C10 C 0.5040(30) 0.1315(16) -0.3080(20)
N3 N 0.9132(12) 0.5000 0.3190(20)
N4 N 0.8013(4) 0.3449(9) 0.1414(9)
N5 N 0.7310(13) 0.5000 -0.0450(20)
C11 C 1.0044(18) 0.4470(20) 0.5170(30)
C12 C 0.9396(17) 0.4198(4) 0.3960(30)
C13 C 0.9059(13) 0.3095(17) 0.3610(20)
C14 C 0.8426(10) 0.2865(16) 0.2413(15)
C15 C 0.8095(18) 0.1885(19) 0.2040(20)
C16 C 0.7461(17) 0.1873(16) 0.0780(20)
C17 C 0.7424(8) 0.2878(14) 0.0406(14)
C18 C 0.6896(13) 0.3235(15) -0.0760(20)
C19 C 0.6825(15) 0.4210(17) -0.1190(30)
C20 C 0.6252(18) 0.4530(20) -0.2430(30)
H1 H 1.2323 0.1592 0.6798
H2 H 1.1603 0.2749 0.5193
H3 H 0.8143 0.1960 0.4420
H4 H 0.8990 0.0907 0.5976
H5 H 0.6938 0.1587 -0.4017
H6 H 0.7835 0.2737 -0.2454
H7 H 0.5065 0.2058 -0.1654
H8 H 0.4334 0.0946 -0.3262
H9 H 1.0408 0.4052 0.5852
H10 H 0.8272 0.1339 0.2558
H11 H 0.7124 0.1323 0.0268
H12 H 0.5932 0.4128 -0.3122
C12A C 0.9396(17) 0.5802(4) 0.3960(30)
C11A C 1.0044(18) 0.5530(20) 0.5170(30)
H9A H 1.0408 0.5948 0.5852
C13A C 0.9059(13) 0.6905(17) 0.3610(20)
C3A C 0.9750(20) 0.7503(14) 0.4580(20)
C2A C 1.1050(20) 0.7621(13) 0.5329(19)
C1A C 1.1470(30) 0.8315(14) 0.6290(20)
N1A N 1.0730(30) 0.8814(14) 0.6490(20)
C5A C 0.9510(30) 0.8710(16) 0.5800(20)
C4A C 0.9000(30) 0.8093(14) 0.4880(20)
H3A H 0.8143 0.8040 0.4420
H4A H 0.8990 0.9093 0.5976
H1A H 1.2323 0.8408 0.6798
H2A H 1.1603 0.7251 0.5193
C14A C 0.8426(10) 0.7135(16) 0.2413(15)
N4A N 0.8013(4) 0.6551(9) 0.1414(9)
C17A C 0.7424(8) 0.7122(14) 0.0406(14)
C16A C 0.7461(17) 0.8127(16) 0.0780(20)
C15A C 0.8095(18) 0.8115(19) 0.2040(20)
H10A H 0.8272 0.8661 0.2558
H11A H 0.7124 0.8677 0.0268
C18A C 0.6896(13) 0.6765(15) -0.0760(20)
C8A C 0.6540(20) 0.7498(16) -0.1890(20)
C7A C 0.7130(20) 0.7619(14) -0.2600(20)
C6A C 0.6570(20) 0.8311(12) -0.3532(19)
N2A N 0.5570(20) 0.8845(13) -0.3810(20)
C10A C 0.5040(30) 0.8685(16) -0.3080(20)
C9A C 0.5460(20) 0.8029(13) -0.2120(20)
H7A H 0.5065 0.7942 -0.1654
H8A H 0.4334 0.9054 -0.3262
H5A H 0.6938 0.8413 -0.4017
H6A H 0.7835 0.7263 -0.2454
C19A C 0.6825(15) 0.5790(17) -0.1190(30)
C20A C 0.6252(18) 0.5470(20) -0.2430(30)
H12A H 0.5932 0.5872 -0.3122
N1A_2 N 1.0730(30) -0.1186(14) 0.6490(20)
N2A_2 N 0.5570(20) -0.1155(13) -0.3810(20)
Hg1_2 Hg 1.1479(10) 1.0000 0.8240(10)
Hg2_2 Hg 0.4615(10) 1.0000 -0.5497(10)
loop_
_geom_bond_atom_site_label_1
_geom_bond_atom_site_label_2
_geom_bond_site_symmetry_1
_geom_bond_site_symmetry_2
Hg1 I1 1_555 1_555
Hg2 I3 1_555 1_555
I2 Hg1 1_555 1_555
I4 Hg2 1_555 1_555
N1 Hg1 1_555 1_555
C1 N1 1_555 1_555
C2 C1 1_555 1_555
C3 C2 1_555 1_555
C4 C3 1_555 1_555
C5 N1 1_555 1_555
N2 Hg2 1_555 1_555
C6 N2 1_555 1_555
C7 C6 1_555 1_555
C8 C7 1_555 1_555
C9 C8 1_555 1_555
C10 N2 1_555 1_555
N3 C12 1_555 1_555
N4 C14 1_555 1_555
N5 C19 1_555 1_555
C11 C12 1_555 1_555
C12 C13 1_555 1_555
C13 C3 1_555 1_555
C14 C13 1_555 1_555
C15 C14 1_555 1_555
C16 C15 1_555 1_555
C17 N4 1_555 1_555
C18 C8 1_555 1_555
C19 C18 1_555 1_555
C20 C19 1_555 1_555
C21 C22 1_555 1_555
C22 C23 1_555 1_555
C23 C24 1_555 1_555
C24 C25 1_555 1_555
C25 C21 1_555 1_555
C26 C21 1_555 1_555
C27 C22 1_555 1_555
C28 C23 1_555 1_555
C29 C24 1_555 1_555
C30 C25 1_555 1_555
C31 C26 1_555 1_555
C32 C27 1_555 1_555
C33 C27 1_555 1_555
C34 C28 1_555 1_555
C35 C28 1_555 1_555
C36 C29 1_555 1_555
C37 C29 1_555 1_555
C38 C30 1_555 1_555
C39 C30 1_555 1_555
C40 C26 1_555 1_555
C41 C31 1_555 1_555
C42 C32 1_555 1_555
C43 C33 1_555 1_555
C44 C34 1_555 1_555
C45 C35 1_555 1_555
C46 C36 1_555 1_555
C47 C37 1_555 1_555
C48 C38 1_555 1_555
C49 C39 1_555 1_555
C50 C40 1_555 1_555
C51 C41 1_555 1_555
C52 C42 1_555 1_555
C53 C43 1_555 1_555
C54 C44 1_555 1_555
C55 C45 1_555 1_555
C56 C46 1_555 1_555
C57 C47 1_555 1_555
C58 C48 1_555 1_555
C59 C49 1_555 1_555
C60 C50 1_555 1_555
H1 C1 1_555 1_555
H2 C2 1_555 1_555
H3 C4 1_555 1_555
H4 C5 1_555 1_555
H5 C6 1_555 1_555
H6 C7 1_555 1_555
H7 C9 1_555 1_555
H8 C10 1_555 1_555
H9 C11 1_555 1_555
H10 C15 1_555 1_555
H11 C16 1_555 1_555
H12 C20 1_555 1_555
C12A N3 1_555 1_555
C11A C11 1_555 1_555
H9A C11A 1_555 1_555
C13A C12A 1_555 1_555
C3A C13A 1_555 1_555
C2A C3A 1_555 1_555
C1A C2A 1_555 1_555
N1A C1A 1_555 1_555
C5A N1A 1_555 1_555
C4A C3A 1_555 1_555
H3A C4A 1_555 1_555
H4A C5A 1_555 1_555
H1A C1A 1_555 1_555
H2A C2A 1_555 1_555
C14A C13A 1_555 1_555
N4A C14A 1_555 1_555
C17A N4A 1_555 1_555
C16A C17A 1_555 1_555
C15A C14A 1_555 1_555
H10A C15A 1_555 1_555
H11A C16A 1_555 1_555
C18A C17A 1_555 1_555
C8A C18A 1_555 1_555
C7A C8A 1_555 1_555
C6A C7A 1_555 1_555
N2A C6A 1_555 1_555
C10A N2A 1_555 1_555
C9A C8A 1_555 1_555
H7A C9A 1_555 1_555
H8A C10A 1_555 1_555
H5A C6A 1_555 1_555
H6A C7A 1_555 1_555
C19A N5 1_555 1_555
C20A C20 1_555 1_555
H12A C20A 1_555 1_555
C41A C51 1_555 1_555
C31A C41A 1_555 1_555
C26A C31A 1_555 1_555
C21A C26A 1_555 1_555
C22A C21A 1_555 1_555
C23A C22A 1_555 1_555
C24A C23A 1_555 1_555
C25A C21A 1_555 1_555
C30A C25A 1_555 1_555
C38A C30A 1_555 1_555
C37A C38A 1_555 1_555
C29A C24A 1_555 1_555
C36A C29A 1_555 1_555
C35A C36A 1_555 1_555
C28A C23A 1_555 1_555
C34A C28A 1_555 1_555
C33A C34A 1_555 1_555
C27A C22A 1_555 1_555
C32A C31A 1_555 1_555
C42A C52 1_555 1_555
C43A C53 1_555 1_555
C45A C55 1_555 1_555
C44A C54 1_555 1_555
C47A C57 1_555 1_555
C46A C56 1_555 1_555
C49A C59 1_555 1_555
C39A C30A 1_555 1_555
C40A C26A 1_555 1_555
C50A C60 1_555 1_555
C48A C58 1_555 1_555
N1A_2 Hg1 1_555 1_555
N2A_2 Hg2 1_555 1_555
Hg1_2 N1A 1_555 1_555
Hg2_2 N2A 1_555 1_555
C4 C5 1_555 1_555
C9 C10 1_555 1_555
C16 C17 1_555 1_555
C17 C18 1_555 1_555
C31 C32 1_555 1_555
C33 C34 1_555 1_555
C35 C36 1_555 1_555
C37 C38 1_555 1_555
C39 C40 1_555 1_555
C41 C50 1_555 1_555
C42 C43 1_555 1_555
C44 C45 1_555 1_555
C46 C47 1_555 1_555
C48 C49 1_555 1_555
C51 C52 1_555 1_555
C53 C54 1_555 1_555
C55 C56 1_555 1_555
C57 C58 1_555 1_555
C59 C60 1_555 1_555
C12A C11A 1_555 1_555
C5A C4A 1_555 1_555
C16A C15A 1_555 1_555
C18A C19A 1_555 1_555
C10A C9A 1_555 1_555
C19A C20A 1_555 1_555
C41A C50A 1_555 1_555
C24A C25A 1_555 1_555
C38A C48A 1_555 1_555
C37A C29A 1_555 1_555
C37A C47A 1_555 1_555
C36A C46A 1_555 1_555
C35A C28A 1_555 1_555
C35A C45A 1_555 1_555
C34A C44A 1_555 1_555
C33A C27A 1_555 1_555
C33A C43A 1_555 1_555
C27A C32A 1_555 1_555
C32A C42A 1_555 1_555
C42A C43A 1_555 1_555
C45A C44A 1_555 1_555
C47A C46A 1_555 1_555
C49A C39A 1_555 1_555
C49A C48A 1_555 1_555
C39A C40A 1_555 1_555
C40A C50A 1_555 1_555

#END
