
#######################################################################
#
#                 Cambridge Crystallographic Data Centre
#                                CCDC 
#
#######################################################################
#
# If this CIF has been generated from an entry in the Cambridge 
# Structural Database, then it will include bibliographic, chemical, 
# crystal, experimental, refinement or atomic coordinate data resulting 
# from the CCDC's data processing and validation procedures.
#
#######################################################################

data_UFONUY
_symmetry_cell_setting           triclinic
_symmetry_space_group_name_H-M   'P -1'
_symmetry_Int_Tables_number      2
_space_group_name_Hall           '-P 1'
loop_
_symmetry_equiv_pos_site_id
_symmetry_equiv_pos_as_xyz
1 x,y,z
2 -x,-y,-z
_cell_length_a                   10.295(3)
_cell_length_b                   10.763(8)
_cell_length_c                   8.386(6)
_cell_angle_alpha                112.57(4)
_cell_angle_beta                 99.01(4)
_cell_angle_gamma                93.35(4)
_cell_volume                     840.268
loop_
_atom_site_label
_atom_site_type_symbol
_atom_site_fract_x
_atom_site_fract_y
_atom_site_fract_z
Zn1 Zn 0.5000 0.5000 0.5000
Fe1 Fe 0.0000 1.0000 0.0000
S1 S 0.1882(2) 0.9822(2) 0.3444(2)
F1 F 0.1280(4) 0.2958(4) 0.6255(6)
F2 F 0.0659(4) 0.4760(6) 0.639(1)
F3 F 0.1333(5) 0.4513(5) 0.8698(6)
F4 F 0.629(1) 0.7489(6) 1.1400(9)
F5 F 0.4656(6) 0.8271(8) 1.1381(9)
F6 F 0.598(1) 0.8720(6) 1.0289(8)
O1 O 0.3292(3) 0.4255(3) 0.5646(4)
O2 O 0.5609(3) 0.6287(3) 0.7646(4)
N1 N 0.3913(4) 0.6520(4) 0.4568(5)
C1 C 0.4332(6) 0.7856(5) 0.5496(6)
C2 C 0.3695(7) 0.8858(5) 0.5197(7)
C3 C 0.2583(6) 0.8500(5) 0.3858(6)
C4 C 0.2130(5) 0.7125(5) 0.2905(7)
C5 C 0.2812(5) 0.6188(5) 0.3316(7)
C6 C 0.0976(6) 0.8987(5) 0.1289(8)
C7 C -0.0369(7) 0.8478(7) 0.078(1)
C8 C -0.0705(9) 0.7990(7) -0.105(2)
C9 C 0.040(1) 0.8193(7) -0.169(1)
C10 C 0.1467(7) 0.8812(6) -0.0269(9)
C11 C 0.1551(6) 0.4249(6) 0.7105(8)
C12 C 0.2933(5) 0.4821(5) 0.7072(6)
C13 C 0.3599(5) 0.5913(5) 0.8577(6)
C14 C 0.4851(5) 0.6542(4) 0.8733(6)
C15 C 0.5434(5) 0.7742(6) 1.0469(7)
H1 H 0.5108 0.8107 0.6415
H2 H 0.4014 0.9802 0.5896
H3 H 0.1364 0.6835 0.1970
H4 H 0.2482 0.5235 0.2670
H5 H -0.0962 0.8464 0.1577
H6 H -0.1579 0.7610 -0.1752
H7 H 0.0426 0.7967 -0.2917
H8 H 0.2375 0.9071 -0.0327
H9 H 0.3161 0.6246 0.9563
C6A C -0.0976(6) 1.1013(5) -0.1289(8)
S1A S -0.1882(2) 1.0178(2) -0.3444(2)
C3A C -0.2583(6) 1.1500(5) -0.3858(6)
C2A C -0.3695(7) 1.1142(5) -0.5197(7)
C1A C -0.4332(6) 1.2144(5) -0.5496(6)
N1A N -0.3913(4) 1.3480(4) -0.4568(5)
C5A C -0.2812(5) 1.3812(5) -0.3316(7)
C4A C -0.2130(5) 1.2875(5) -0.2905(7)
H3A H -0.1364 1.3165 -0.1970
H4A H -0.2482 1.4765 -0.2670
H1A H -0.5108 1.1893 -0.6415
H2A H -0.4014 1.0198 -0.5896
C7A C 0.0369(7) 1.1522(7) -0.078(1)
C8A C 0.0705(9) 1.2010(7) 0.105(2)
H5A H 0.0962 1.1536 -0.1577
C9A C -0.040(1) 1.1807(7) 0.169(1)
C10A C -0.1467(7) 1.1188(6) 0.0269(9)
H7A H -0.0426 1.2033 0.2917
H8A H -0.2375 1.0929 0.0327
H6A H 0.1579 1.2390 0.1752
F1A F 0.8720(4) 0.7042(4) 0.3745(6)
F2A F 0.9341(4) 0.5240(6) 0.361(1)
F3A F 0.8667(5) 0.5487(5) 0.1302(6)
F4A F 0.371(1) 0.2511(6) -0.1400(9)
F5A F 0.5344(6) 0.1729(8) -0.1381(9)
F6A F 0.402(1) 0.1280(6) -0.0289(8)
O1A O 0.6708(3) 0.5745(3) 0.4354(4)
O2A O 0.4391(3) 0.3713(3) 0.2354(4)
C11A C 0.8449(6) 0.5751(6) 0.2895(8)
C12A C 0.7067(5) 0.5179(5) 0.2928(6)
C13A C 0.6401(5) 0.4087(5) 0.1423(6)
C14A C 0.5149(5) 0.3458(4) 0.1267(6)
C15A C 0.4566(5) 0.2258(6) -0.0469(7)
H9A H 0.6839 0.3754 0.0437
N1A_2 N 0.6087(4) 0.3480(4) 0.5432(5)
Zn1_2 Zn -0.5000 1.5000 -0.5000
loop_
_geom_bond_atom_site_label_1
_geom_bond_atom_site_label_2
_geom_bond_site_symmetry_1
_geom_bond_site_symmetry_2
Zn1 O1 1_555 1_555
Fe1 C6 1_555 1_555
S1 C3 1_555 1_555
F1 C11 1_555 1_555
F2 C11 1_555 1_555
F3 C11 1_555 1_555
F4 C15 1_555 1_555
F5 C15 1_555 1_555
F6 C15 1_555 1_555
O1 C12 1_555 1_555
O2 Zn1 1_555 1_555
N1 Zn1 1_555 1_555
C1 N1 1_555 1_555
C2 C1 1_555 1_555
C3 C2 1_555 1_555
C4 C3 1_555 1_555
C5 N1 1_555 1_555
C6 S1 1_555 1_555
C7 Fe1 1_555 1_555
C8 Fe1 1_555 1_555
C9 Fe1 1_555 1_555
C10 Fe1 1_555 1_555
C11 C12 1_555 1_555
C12 C13 1_555 1_555
C13 C14 1_555 1_555
C14 O2 1_555 1_555
C15 C14 1_555 1_555
H1 C1 1_555 1_555
H2 C2 1_555 1_555
H3 C4 1_555 1_555
H4 C5 1_555 1_555
H5 C7 1_555 1_555
H6 C8 1_555 1_555
H7 C9 1_555 1_555
H8 C10 1_555 1_555
H9 C13 1_555 1_555
C6A Fe1 1_555 1_555
S1A C6A 1_555 1_555
C3A S1A 1_555 1_555
C2A C3A 1_555 1_555
C1A C2A 1_555 1_555
N1A C1A 1_555 1_555
C5A N1A 1_555 1_555
C4A C3A 1_555 1_555
H3A C4A 1_555 1_555
H4A C5A 1_555 1_555
H1A C1A 1_555 1_555
H2A C2A 1_555 1_555
C7A Fe1 1_555 1_555
C8A Fe1 1_555 1_555
H5A C7A 1_555 1_555
C9A Fe1 1_555 1_555
C10A Fe1 1_555 1_555
H7A C9A 1_555 1_555
H8A C10A 1_555 1_555
H6A C8A 1_555 1_555
F1A C11A 1_555 1_555
F2A C11A 1_555 1_555
F3A C11A 1_555 1_555
F4A C15A 1_555 1_555
F5A C15A 1_555 1_555
F6A C15A 1_555 1_555
O1A Zn1 1_555 1_555
O2A Zn1 1_555 1_555
C11A C12A 1_555 1_555
C12A O1A 1_555 1_555
C13A C12A 1_555 1_555
C14A O2A 1_555 1_555
C15A C14A 1_555 1_555
H9A C13A 1_555 1_555
N1A_2 Zn1 1_555 1_555
Zn1_2 N1A 1_555 1_555
C4 C5 1_555 1_555
C6 C7 1_555 1_555
C6 C10 1_555 1_555
C7 C8 1_555 1_555
C8 C9 1_555 1_555
C9 C10 1_555 1_555
C6A C7A 1_555 1_555
C6A C10A 1_555 1_555
C5A C4A 1_555 1_555
C7A C8A 1_555 1_555
C8A C9A 1_555 1_555
C9A C10A 1_555 1_555
C13A C14A 1_555 1_555

#END
