
#######################################################################
#
#                 Cambridge Crystallographic Data Centre
#                                CCDC 
#
#######################################################################
#
# If this CIF has been generated from an entry in the Cambridge 
# Structural Database, then it will include bibliographic, chemical, 
# crystal, experimental, refinement or atomic coordinate data resulting 
# from the CCDC's data processing and validation procedures.
#
#######################################################################

data_UFONOS
_symmetry_cell_setting           triclinic
_symmetry_space_group_name_H-M   'P -1'
_symmetry_Int_Tables_number      2
_space_group_name_Hall           '-P 1'
loop_
_symmetry_equiv_pos_site_id
_symmetry_equiv_pos_as_xyz
1 x,y,z
2 -x,-y,-z
_cell_length_a                   10.267(3)
_cell_length_b                   10.752(4)
_cell_length_c                   8.378(3)
_cell_angle_alpha                112.70(3)
_cell_angle_beta                 100.92(2)
_cell_angle_gamma                92.56(3)
_cell_volume                     830.653
loop_
_atom_site_label
_atom_site_type_symbol
_atom_site_fract_x
_atom_site_fract_y
_atom_site_fract_z
Cu1 Cu 1.0000 0.0000 1.0000
Fe1 Fe 0.5000 0.5000 0.5000
S1 S 0.6957(2) 0.4809(1) 0.8492(2)
F1 F 1.3883(4) 0.2074(3) 0.8774(5)
F2 F 1.3661(4) 0.0546(4) 0.6245(4)
F3 F 1.4475(4) 0.0203(5) 0.8492(9)
F4 F 1.0217(6) -0.2978(7) 0.3423(6)
F5 F 0.9297(9) -0.3726(4) 0.4779(6)
F6 F 0.8456(5) -0.2497(5) 0.3816(7)
O1 O 1.1869(3) 0.0831(3) 0.9411(3)
O2 O 0.9459(2) -0.1201(3) 0.7402(3)
N1 N 0.8983(3) 0.1449(3) 0.9577(4)
C1 C 0.9448(4) 0.2774(4) 1.0521(5)
C2 C 0.8823(5) 0.3800(4) 1.0221(5)
C3 C 0.7677(4) 0.3466(4) 0.8883(5)
C4 C 0.7175(4) 0.2094(4) 0.7911(5)
C5 C 0.7857(4) 0.1134(3) 0.8308(5)
C6 C 0.6015(4) 0.3989(4) 0.6304(6)
C7 C 0.6495(6) 0.3805(5) 0.4752(7)
C8 C 0.538(1) 0.3184(6) 0.3325(9)
C9 C 0.4286(9) 0.2992(6) 0.393(1)
C10 C 0.4636(6) 0.3479(6) 0.578(1)
C11 C 1.3553(5) 0.0764(5) 0.7870(6)
C12 C 1.2168(4) 0.0244(4) 0.7977(5)
C13 C 1.1448(4) -0.0862(4) 0.6451(5)
C14 C 1.0196(4) -0.1461(4) 0.6317(4)
C15 C 0.9574(4) -0.2667(5) 0.4556(5)
H1 H 1.0247 0.3014 1.1436
H2 H 0.9168 0.4731 1.0932
H3 H 0.6383 0.1836 0.6985
H4 H 0.7506 0.0188 0.7640
H5 H 0.7413 0.4046 0.4705
H6 H 0.5355 0.2939 0.2090
H7 H 0.3387 0.2611 0.3221
H8 H 0.4058 0.3468 0.6562
H9 H 1.1859 -0.1216 0.5450
C6A C 0.3985(4) 0.6011(4) 0.3696(6)
S1A S 0.3043(2) 0.5191(1) 0.1508(2)
C3A C 0.2323(4) 0.6534(4) 0.1117(5)
C2A C 0.1177(5) 0.6200(4) -0.0221(5)
C1A C 0.0552(4) 0.7226(4) -0.0521(5)
N1A N 0.1017(3) 0.8551(3) 0.0423(4)
C5A C 0.2143(4) 0.8866(3) 0.1692(5)
C4A C 0.2825(4) 0.7906(4) 0.2089(5)
H3A H 0.3617 0.8164 0.3015
H4A H 0.2494 0.9812 0.2360
H1A H -0.0247 0.6986 -0.1436
H2A H 0.0832 0.5269 -0.0932
C7A C 0.3505(6) 0.6195(5) 0.5248(7)
C8A C 0.462(1) 0.6816(6) 0.6675(9)
H5A H 0.2587 0.5954 0.5295
C9A C 0.5714(9) 0.7008(6) 0.607(1)
C10A C 0.5364(6) 0.6521(6) 0.422(1)
H7A H 0.6613 0.7389 0.6779
H8A H 0.5942 0.6532 0.3438
H6A H 0.4645 0.7061 0.7910
F1A F 0.6117(4) -0.2074(3) 1.1226(5)
F2A F 0.6339(4) -0.0546(4) 1.3755(4)
F3A F 0.5525(4) -0.0203(5) 1.1508(9)
F4A F 0.9783(6) 0.2978(7) 1.6577(6)
F5A F 1.0703(9) 0.3726(4) 1.5221(6)
F6A F 1.1544(5) 0.2497(5) 1.6184(7)
O1A O 0.8131(3) -0.0831(3) 1.0589(3)
O2A O 1.0541(2) 0.1201(3) 1.2598(3)
C11A C 0.6447(5) -0.0764(5) 1.2130(6)
C12A C 0.7832(4) -0.0244(4) 1.2023(5)
C13A C 0.8552(4) 0.0862(4) 1.3549(5)
C14A C 0.9804(4) 0.1461(4) 1.3683(4)
C15A C 1.0426(4) 0.2667(5) 1.5444(5)
H9A H 0.8141 0.1216 1.4550
N1A_2 N 1.1017(3) -0.1449(3) 1.0423(4)
Cu1_2 Cu 0.0000 1.0000 0.0000
loop_
_geom_bond_atom_site_label_1
_geom_bond_atom_site_label_2
_geom_bond_site_symmetry_1
_geom_bond_site_symmetry_2
Cu1 O1 1_555 1_555
Fe1 C6 1_555 1_555
S1 C3 1_555 1_555
F1 C11 1_555 1_555
F2 C11 1_555 1_555
F3 C11 1_555 1_555
F4 C15 1_555 1_555
F5 C15 1_555 1_555
F6 C15 1_555 1_555
O1 C12 1_555 1_555
O2 Cu1 1_555 1_555
N1 Cu1 1_555 1_555
C1 N1 1_555 1_555
C2 C1 1_555 1_555
C3 C2 1_555 1_555
C4 C3 1_555 1_555
C5 N1 1_555 1_555
C6 S1 1_555 1_555
C7 Fe1 1_555 1_555
C8 Fe1 1_555 1_555
C9 Fe1 1_555 1_555
C10 Fe1 1_555 1_555
C11 C12 1_555 1_555
C12 C13 1_555 1_555
C13 C14 1_555 1_555
C14 O2 1_555 1_555
C15 C14 1_555 1_555
H1 C1 1_555 1_555
H2 C2 1_555 1_555
H3 C4 1_555 1_555
H4 C5 1_555 1_555
H5 C7 1_555 1_555
H6 C8 1_555 1_555
H7 C9 1_555 1_555
H8 C10 1_555 1_555
H9 C13 1_555 1_555
C6A Fe1 1_555 1_555
S1A C6A 1_555 1_555
C3A S1A 1_555 1_555
C2A C3A 1_555 1_555
C1A C2A 1_555 1_555
N1A C1A 1_555 1_555
C5A N1A 1_555 1_555
C4A C3A 1_555 1_555
H3A C4A 1_555 1_555
H4A C5A 1_555 1_555
H1A C1A 1_555 1_555
H2A C2A 1_555 1_555
C7A Fe1 1_555 1_555
C8A Fe1 1_555 1_555
H5A C7A 1_555 1_555
C9A Fe1 1_555 1_555
C10A Fe1 1_555 1_555
H7A C9A 1_555 1_555
H8A C10A 1_555 1_555
H6A C8A 1_555 1_555
F1A C11A 1_555 1_555
F2A C11A 1_555 1_555
F3A C11A 1_555 1_555
F4A C15A 1_555 1_555
F5A C15A 1_555 1_555
F6A C15A 1_555 1_555
O1A Cu1 1_555 1_555
O2A Cu1 1_555 1_555
C11A C12A 1_555 1_555
C12A O1A 1_555 1_555
C13A C12A 1_555 1_555
C14A O2A 1_555 1_555
C15A C14A 1_555 1_555
H9A C13A 1_555 1_555
N1A_2 Cu1 1_555 1_555
Cu1_2 N1A 1_555 1_555
C4 C5 1_555 1_555
C6 C7 1_555 1_555
C6 C10 1_555 1_555
C7 C8 1_555 1_555
C8 C9 1_555 1_555
C9 C10 1_555 1_555
C6A C7A 1_555 1_555
C6A C10A 1_555 1_555
C5A C4A 1_555 1_555
C7A C8A 1_555 1_555
C8A C9A 1_555 1_555
C9A C10A 1_555 1_555
C13A C14A 1_555 1_555

#END
