
#######################################################################
#
#                 Cambridge Crystallographic Data Centre
#                                CCDC 
#
#######################################################################
#
# If this CIF has been generated from an entry in the Cambridge 
# Structural Database, then it will include bibliographic, chemical, 
# crystal, experimental, refinement or atomic coordinate data resulting 
# from the CCDC's data processing and validation procedures.
#
#######################################################################

data_UFOPEL
_symmetry_cell_setting           monoclinic
_symmetry_space_group_name_H-M   'P 21/c'
_symmetry_Int_Tables_number      14
_space_group_name_Hall           '-P 2ybc'
loop_
_symmetry_equiv_pos_site_id
_symmetry_equiv_pos_as_xyz
1 x,y,z
2 -x,1/2+y,1/2-z
3 -x,-y,-z
4 x,1/2-y,1/2+z
_cell_length_a                   10.7943(6)
_cell_length_b                   26.6244(17)
_cell_length_c                   15.7716(9)
_cell_angle_alpha                90
_cell_angle_beta                 95.485(1)
_cell_angle_gamma                90
_cell_volume                     4511.87
loop_
_atom_site_label
_atom_site_type_symbol
_atom_site_fract_x
_atom_site_fract_y
_atom_site_fract_z
Mn1 Mn 0.09287(5) 0.35341(2) 0.79986(3)
Mn2 Mn 0.04341(5) 0.30482(2) 0.57465(3)
Mn3 Mn 0.31957(5) 0.37081(2) 0.64894(3)
Mn4 Mn 0.39231(5) 0.29652(2) 0.85234(3)
C1 C -0.1119(4) 0.42329(14) 0.8770(2)
H1 H -0.150(3) 0.4187(11) 0.824(2)
C2 C -0.1740(4) 0.44506(16) 0.9398(3)
H2 H -0.259(3) 0.4535(14) 0.925(2)
C3 C -0.1123(4) 0.45066(16) 1.0197(3)
H3 H -0.158(4) 0.4640(16) 1.066(3)
C4 C 0.0101(4) 0.43451(15) 1.0333(3)
H4 H 0.054(3) 0.4371(14) 1.088(2)
C5 C 0.0670(3) 0.41346(14) 0.9670(2)
C6 C 0.1977(3) 0.39509(14) 0.9767(2)
C7 C 0.2929(4) 0.41489(14) 1.0429(2)
C8 C 0.4027(4) 0.43535(15) 1.0200(2)
H5 H 0.417(3) 0.4363(13) 0.963(2)
C9 C 0.4904(4) 0.45200(16) 1.0824(3)
H6 H 0.566(4) 0.4637(14) 1.073(2)
C10 C 0.4656(4) 0.44777(16) 1.1660(3)
H7 H 0.525(3) 0.4567(15) 1.206(2)
C11 C 0.3557(4) 0.42728(18) 1.1843(2)
H8 H 0.331(3) 0.4221(14) 1.243(2)
C12 C 0.4646(4) 0.47555(16) 0.6349(2)
H9 H 0.523(3) 0.4582(13) 0.676(2)
C13 C 0.4813(5) 0.52481(16) 0.6097(3)
H10 H 0.543(3) 0.5425(14) 0.632(2)
C14 C 0.3990(4) 0.54491(16) 0.5468(3)
H11 H 0.397(3) 0.5762(14) 0.522(2)
C15 C 0.3048(4) 0.51462(15) 0.5089(2)
H12 H 0.246(3) 0.5248(14) 0.463(2)
C16 C 0.2929(3) 0.46557(14) 0.5365(2)
C17 C 0.1933(3) 0.43229(14) 0.4998(2)
C18 C 0.1155(4) 0.44793(14) 0.4199(2)
C19 C -0.0121(4) 0.45106(14) 0.4158(2)
H13 H -0.053(3) 0.4440(13) 0.461(2)
C20 C -0.0767(4) 0.46792(15) 0.3413(2)
H14 H -0.159(3) 0.4695(13) 0.333(2)
C21 C -0.0105(4) 0.48012(16) 0.2736(3)
H15 H -0.051(4) 0.4913(16) 0.227(3)
C22 C 0.1157(4) 0.47517(15) 0.2827(2)
H16 H 0.157(3) 0.4843(13) 0.239(2)
C23 C 0.5374(4) 0.21743(15) 0.7651(3)
H17 H 0.589(4) 0.2196(15) 0.811(2)
C24 C 0.5580(4) 0.18571(16) 0.6994(3)
H18 H 0.634(4) 0.1695(15) 0.698(2)
C25 C 0.4678(4) 0.18168(15) 0.6315(2)
H19 H 0.476(3) 0.1613(14) 0.589(2)
C26 C 0.3584(4) 0.20837(15) 0.6317(2)
H20 H 0.294(3) 0.2040(13) 0.593(2)
C27 C 0.3425(3) 0.23960(13) 0.7000(2)
C28 C 0.2233(3) 0.26906(13) 0.70779(19)
C29 C 0.1144(3) 0.23229(13) 0.7048(2)
C30 C 0.1125(4) 0.19149(14) 0.7595(2)
H21 H 0.185(4) 0.1862(15) 0.798(2)
C31 C 0.0123(4) 0.15916(15) 0.7506(3)
H22 H 0.005(4) 0.1308(10) 0.783(2)
C32 C -0.0809(4) 0.16719(16) 0.6863(3)
H23 H -0.149(4) 0.1462(15) 0.675(2)
C33 C -0.0764(4) 0.20900(15) 0.6350(3)
H24 H -0.139(3) 0.2168(12) 0.592(2)
C34 C 0.5682(4) 0.3200(2) 0.5749(3)
H25 H 0.618(3) 0.3467(11) 0.602(2)
H26 H 0.599(4) 0.3124(14) 0.5205(15)
H27 H 0.589(5) 0.2899(11) 0.611(2)
C35 C -0.1555(4) 0.28743(19) 0.8335(3)
H28 H -0.197(4) 0.2913(16) 0.8848(17)
H29 H -0.171(5) 0.2526(8) 0.815(3)
H30 H -0.197(4) 0.3082(13) 0.789(2)
O1 O 0.4419(3) 0.33585(11) 0.55860(17)
H31 H 0.404(4) 0.3202(16) 0.521(2)
O2 O -0.0257(2) 0.29541(10) 0.84718(17)
H32 H 0.013(4) 0.2775(16) 0.889(3)
O3 O 0.3438(2) 0.34417(9) 0.93123(14)
O4 O 0.0816(2) 0.36081(9) 0.50722(14)
O5 O 0.2326(2) 0.29472(8) 0.78644(13)
O6 O 0.2040(2) 0.30349(8) 0.64047(13)
N1 N 0.6758(3) 0.34415(16) 1.0046(2)
N2 N 0.6145(3) 0.31871(14) 0.9589(2)
N3 N 0.5573(3) 0.29018(13) 0.9120(2)
N4 N -0.2077(4) 0.34660(15) 0.3989(2)
N5 N -0.1635(3) 0.32409(13) 0.4551(2)
N6 N -0.1231(3) 0.29849(12) 0.51545(18)
N7 N 0.3216(3) 0.27131(12) 0.43321(18)
N8 N 0.2202(3) 0.26264(12) 0.45395(18)
N9 N 0.1193(3) 0.25329(13) 0.47427(18)
N10 N 0.2828(3) 0.48040(13) 0.8218(2)
N11 N 0.2478(3) 0.44589(12) 0.78274(18)
N12 N 0.2075(3) 0.41005(11) 0.74172(18)
N13 N 0.6099(5) 0.4087(2) 0.8080(4)
N14 N 0.5295(4) 0.37965(18) 0.7797(2)
N15 N 0.4594(4) 0.35449(12) 0.75768(19)
N16 N -0.1824(4) 0.40834(16) 0.6354(3)
N17 N -0.1057(3) 0.38059(13) 0.65835(19)
N18 N -0.0267(3) 0.35090(12) 0.68155(17)
N19 N 0.0059(3) 0.40726(11) 0.88897(18)
N20 N 0.2253(3) 0.36212(11) 0.92137(17)
N21 N 0.2660(3) 0.41087(13) 1.12452(19)
N22 N 0.3722(3) 0.44648(12) 0.60004(17)
N23 N 0.1763(3) 0.39127(11) 0.54046(17)
N24 N 0.1816(3) 0.45914(12) 0.35433(18)
N25 N 0.4318(3) 0.24391(11) 0.76563(17)
N26 N 0.0206(3) 0.24111(11) 0.64401(17)
Mn4C Mn 0.39231(5) 0.20348(2) 0.35234(3)
N7C N 0.3216(3) 0.22869(12) 0.93321(18)
loop_
_geom_bond_atom_site_label_1
_geom_bond_atom_site_label_2
_geom_bond_site_symmetry_1
_geom_bond_site_symmetry_2
Mn1 O2 1_555 1_555
Mn2 O4 1_555 1_555
Mn3 O1 1_555 1_555
Mn4 O3 1_555 1_555
C1 H1 1_555 1_555
C2 C1 1_555 1_555
H2 C2 1_555 1_555
C3 C2 1_555 1_555
H3 C3 1_555 1_555
C4 C3 1_555 1_555
H4 C4 1_555 1_555
C5 C4 1_555 1_555
C6 C5 1_555 1_555
C7 C6 1_555 1_555
C8 C7 1_555 1_555
H5 C8 1_555 1_555
C9 C8 1_555 1_555
H6 C9 1_555 1_555
C10 C9 1_555 1_555
H7 C10 1_555 1_555
C11 C10 1_555 1_555
H8 C11 1_555 1_555
C12 H9 1_555 1_555
C13 C12 1_555 1_555
H10 C13 1_555 1_555
C14 C13 1_555 1_555
H11 C14 1_555 1_555
C15 C14 1_555 1_555
H12 C15 1_555 1_555
C16 C15 1_555 1_555
C17 C16 1_555 1_555
C18 C17 1_555 1_555
C19 C18 1_555 1_555
H13 C19 1_555 1_555
C20 C19 1_555 1_555
H14 C20 1_555 1_555
C21 C20 1_555 1_555
H15 C21 1_555 1_555
C22 C21 1_555 1_555
H16 C22 1_555 1_555
C23 H17 1_555 1_555
C24 C23 1_555 1_555
H18 C24 1_555 1_555
C25 C24 1_555 1_555
H19 C25 1_555 1_555
C26 C25 1_555 1_555
H20 C26 1_555 1_555
C27 C26 1_555 1_555
C28 C27 1_555 1_555
C29 C28 1_555 1_555
C30 C29 1_555 1_555
H21 C30 1_555 1_555
C31 C30 1_555 1_555
H22 C31 1_555 1_555
C32 C31 1_555 1_555
H23 C32 1_555 1_555
C33 C32 1_555 1_555
H24 C33 1_555 1_555
C34 H25 1_555 1_555
H26 C34 1_555 1_555
H27 C34 1_555 1_555
C35 H28 1_555 1_555
H29 C35 1_555 1_555
H30 C35 1_555 1_555
O1 C34 1_555 1_555
H31 O1 1_555 1_555
O2 C35 1_555 1_555
H32 O2 1_555 1_555
O3 N20 1_555 1_555
O4 N23 1_555 1_555
O5 Mn1 1_555 1_555
O6 Mn2 1_555 1_555
N1 N2 1_555 1_555
N2 N3 1_555 1_555
N3 Mn4 1_555 1_555
N4 N5 1_555 1_555
N5 N6 1_555 1_555
N6 Mn2 1_555 1_555
N7 N8 1_555 1_555
N8 N9 1_555 1_555
N9 Mn2 1_555 1_555
N10 N11 1_555 1_555
N11 N12 1_555 1_555
N12 Mn1 1_555 1_555
N13 N14 1_555 1_555
N14 N15 1_555 1_555
N15 Mn3 1_555 1_555
N16 N17 1_555 1_555
N17 N18 1_555 1_555
N18 Mn1 1_555 1_555
N19 Mn1 1_555 1_555
N20 Mn1 1_555 1_555
N21 C7 1_555 1_555
N22 Mn3 1_555 1_555
N23 Mn3 1_555 1_555
N24 C18 1_555 1_555
N25 Mn4 1_555 1_555
N26 Mn2 1_555 1_555
Mn4C N7 1_555 1_555
N7C Mn4 1_555 1_555
Mn2 N18 1_555 1_555
Mn3 O6 1_555 1_555
Mn3 N12 1_555 1_555
Mn4 O5 1_555 1_555
Mn4 N15 1_555 1_555
C1 N19 1_555 1_555
C5 N19 1_555 1_555
C6 N20 1_555 1_555
C11 N21 1_555 1_555
C12 N22 1_555 1_555
C16 N22 1_555 1_555
C17 N23 1_555 1_555
C22 N24 1_555 1_555
C23 N25 1_555 1_555
C27 N25 1_555 1_555
C28 O5 1_555 1_555
C28 O6 1_555 1_555
C29 N26 1_555 1_555
C33 N26 1_555 1_555

#END
