
#######################################################################
#
#                 Cambridge Crystallographic Data Centre
#                                CCDC 
#
#######################################################################
#
# If this CIF has been generated from an entry in the Cambridge 
# Structural Database, then it will include bibliographic, chemical, 
# crystal, experimental, refinement or atomic coordinate data resulting 
# from the CCDC's data processing and validation procedures.
#
#######################################################################

data_UFUFIM
_symmetry_cell_setting           monoclinic
_symmetry_space_group_name_H-M   'P 21/c'
_symmetry_Int_Tables_number      14
_space_group_name_Hall           '-P 2ybc'
loop_
_symmetry_equiv_pos_site_id
_symmetry_equiv_pos_as_xyz
1 x,y,z
2 -x,1/2+y,1/2-z
3 -x,-y,-z
4 x,1/2-y,1/2+z
_cell_length_a                   8.2461(11)
_cell_length_b                   28.040(4)
_cell_length_c                   8.1257(11)
_cell_angle_alpha                90
_cell_angle_beta                 98.276(3)
_cell_angle_gamma                90
_cell_volume                     1859.26
loop_
_atom_site_label
_atom_site_type_symbol
_atom_site_fract_x
_atom_site_fract_y
_atom_site_fract_z
Ag1 Ag 0.69369(4) 0.501480(13) 0.06409(4)
Ag2 Ag 0.93552(4) 0.461294(12) -0.19897(4)
Ag3 Ag 0.80289(4) 0.497728(12) 0.44356(4)
Ag4 Ag 0.43172(4) 0.456884(12) 0.28376(4)
P1 P 0.50929(10) 0.56769(3) 0.29632(10)
P2 P 0.98059(10) 0.42972(3) 0.20853(10)
O1 O 0.5700(3) 0.56523(11) 0.1284(3)
O2 O 0.6505(3) 0.56160(9) 0.4391(3)
O3 O 0.3688(3) 0.53353(10) 0.3116(4)
O4 O 0.9379(4) 0.43561(11) 0.3834(3)
O5 O 1.1230(3) 0.46151(9) 0.1764(4)
O6 O 0.8323(3) 0.43564(10) 0.0736(3)
O7 O 1.0694(4) 0.39867(13) -0.2683(5)
O8 O 0.5390(4) 0.39247(13) 0.1934(4)
C1 C 0.4309(4) 0.62756(13) 0.3135(4)
C2 C 0.3106(4) 0.63709(15) 0.4123(5)
H1 H 0.2693 0.6123 0.4698
C3 C 0.2511(6) 0.68269(17) 0.4269(6)
H2 H 0.1707 0.6885 0.4937
C4 C 0.3120(6) 0.71979(16) 0.3413(7)
H3 H 0.2720 0.7506 0.3500
C5 C 0.4299(6) 0.71118(17) 0.2450(7)
H4 H 0.4708 0.7362 0.1882
C6 C 0.4901(5) 0.66576(15) 0.2302(5)
H5 H 0.5713 0.6606 0.1637
C7 C 1.0468(4) 0.36847(14) 0.1951(4)
C8 C 0.9756(5) 0.33809(14) 0.0694(5)
H6 H 0.8885 0.3488 -0.0072
C9 C 1.0338(6) 0.29201(16) 0.0579(6)
H7 H 0.9877 0.2723 -0.0284
C10 C 1.1593(6) 0.27523(17) 0.1735(7)
H8 H 1.1970 0.2442 0.1659
C11 C 1.1750(4) 0.35103(14) 0.3115(5)
H9 H 1.2240 0.3707 0.3964
C12 C 1.2288(5) 0.30451(16) 0.3004(6)
H10 H 1.3126 0.2930 0.3793
Ag1B Ag 0.30631(4) 0.498520(13) -0.06409(4)
Ag2_2 Ag 0.93552(4) 0.461294(12) 0.80103(4)
Ag2B Ag 0.06448(4) 0.538706(12) 0.19897(4)
Ag2B_2 Ag 1.06448(4) 0.538706(12) 0.19897(4)
Ag3_2 Ag 0.80289(4) 0.497728(12) -0.55644(4)
Ag4_2 Ag 1.43172(4) 0.456884(12) 0.28376(4)
Ag4B Ag 0.56828(4) 0.543116(12) -0.28376(4)
Ag4B_2 Ag 0.56828(4) 0.543116(12) 0.71624(4)
O2B O 0.3495(3) 0.43840(9) 0.5609(3)
O3B O 0.6312(3) 0.46647(10) -0.3116(4)
O5_2 O 0.1230(3) 0.46151(9) 0.1764(4)
O5B O 0.8770(3) 0.53849(9) -0.1764(4)
loop_
_geom_bond_atom_site_label_1
_geom_bond_atom_site_label_2
_geom_bond_site_symmetry_1
_geom_bond_site_symmetry_2
Ag1 Ag3 1_555 1_555
Ag2 O6 1_555 1_555
Ag3 O2 1_555 1_555
Ag4 O3 1_555 1_555
P1 O1 1_555 1_555
P2 O4 1_555 1_555
O1 Ag1 1_555 1_555
O2 P1 1_555 1_555
O3 P1 1_555 1_555
O4 Ag3 1_555 1_555
O5 P2 1_555 1_555
O6 Ag1 1_555 1_555
O7 Ag2 1_555 1_555
O8 Ag4 1_555 1_555
C1 P1 1_555 1_555
C2 C1 1_555 1_555
H1 C2 1_555 1_555
C3 C2 1_555 1_555
H2 C3 1_555 1_555
C4 C3 1_555 1_555
H3 C4 1_555 1_555
C5 C4 1_555 1_555
H4 C5 1_555 1_555
C6 C1 1_555 1_555
H5 C6 1_555 1_555
C7 P2 1_555 1_555
C8 C7 1_555 1_555
H6 C8 1_555 1_555
C9 C8 1_555 1_555
H7 C9 1_555 1_555
C10 C9 1_555 1_555
H8 C10 1_555 1_555
C11 C7 1_555 1_555
H9 C11 1_555 1_555
C12 C10 1_555 1_555
H10 C12 1_555 1_555
Ag1B Ag1 1_555 1_555
Ag2_2 Ag3 1_555 1_555
Ag2B O3 1_555 1_555
Ag2B_2 O5 1_555 1_555
Ag3_2 Ag2 1_555 1_555
Ag4_2 O5 1_555 1_555
Ag4B Ag1 1_555 1_555
Ag4B_2 O2 1_555 1_555
O2B Ag4 1_555 1_555
O3B Ag2 1_555 1_555
O5_2 Ag4 1_555 1_555
O5B Ag2 1_555 1_555
Ag4 Ag1B 1_555 1_555
P2 O6 1_555 1_555
C5 C6 1_555 1_555
C11 C12 1_555 1_555
Ag2B O5_2 1_555 1_555
Ag4B O3B 1_555 1_555
Ag4B O5B 1_555 1_555

#END
