
#######################################################################
#
#                 Cambridge Crystallographic Data Centre
#                                CCDC 
#
#######################################################################
#
# If this CIF has been generated from an entry in the Cambridge 
# Structural Database, then it will include bibliographic, chemical, 
# crystal, experimental, refinement or atomic coordinate data resulting 
# from the CCDC's data processing and validation procedures.
#
#######################################################################

data_UFUGEI
_symmetry_cell_setting           triclinic
_symmetry_space_group_name_H-M   'P -1'
_symmetry_Int_Tables_number      2
_space_group_name_Hall           '-P 1'
loop_
_symmetry_equiv_pos_site_id
_symmetry_equiv_pos_as_xyz
1 x,y,z
2 -x,-y,-z
_cell_length_a                   10.3210(3)
_cell_length_b                   11.0145(5)
_cell_length_c                   17.2161(7)
_cell_angle_alpha                73.670(3)
_cell_angle_beta                 77.567(3)
_cell_angle_gamma                72.873(3)
_cell_volume                     1776.06
loop_
_atom_site_label
_atom_site_type_symbol
_atom_site_fract_x
_atom_site_fract_y
_atom_site_fract_z
Ce1 Ce 0.515505(10) 0.252832(10) 0.248900(6)
Na1 Na 0.5000 0.0000 0.0000
Na2 Na 0.5000 0.5000 0.5000
Na3 Na 0.49724(7) 0.25391(7) -0.24639(4)
Na4 Na -0.13976(7) 0.70181(7) 0.25858(4)
N1 N 0.36430(15) 0.38381(14) 0.13278(9)
O1 O 0.29282(13) 0.42248(13) 0.28191(7)
O2 O 0.10762(13) 0.58333(13) 0.24733(8)
O3 O 0.60479(13) 0.21606(13) 0.10922(7)
O4 O 0.56053(14) 0.19602(13) -0.00712(8)
C1 C 0.40040(19) 0.35223(18) 0.06010(11)
C2 C 0.3203(2) 0.4100(2) -0.00233(12)
H1 H 0.3454 0.3843 -0.0516
C3 C 0.2021(2) 0.5070(2) 0.01049(12)
H2 H 0.1480 0.5490 -0.0308
C4 C 0.1656(2) 0.5405(2) 0.08535(12)
H3 H 0.0872 0.6057 0.0950
C5 C 0.24814(18) 0.47489(18) 0.14579(11)
C6 C 0.21185(18) 0.49768(18) 0.23134(11)
C7 C 0.53164(19) 0.24688(18) 0.05244(11)
N2 N 0.39133(15) 0.12151(15) 0.37994(9)
O5 O 0.52754(13) 0.28725(13) 0.38383(7)
O6 O 0.43569(14) 0.29436(13) 0.51281(8)
O7 O 0.39733(13) 0.09216(12) 0.23190(7)
O8 O 0.30678(13) -0.08015(13) 0.28168(8)
C8 C 0.32950(18) 0.03345(18) 0.37508(11)
C9 C 0.2541(2) -0.03115(19) 0.44203(12)
H4 H 0.2147 -0.0940 0.4373
C10 C 0.2394(2) 0.0008(2) 0.51648(12)
H5 H 0.1878 -0.0393 0.5624
C11 C 0.3019(2) 0.0929(2) 0.52182(11)
H6 H 0.2925 0.1158 0.5711
C12 C 0.37888(18) 0.15024(18) 0.45240(11)
C13 C 0.45244(18) 0.25118(18) 0.45109(11)
C14 C 0.34508(17) 0.01114(18) 0.29016(11)
N3 N 0.77509(15) 0.24768(15) 0.23923(9)
O9 O 0.58123(13) 0.46420(12) 0.21434(8)
O10 O 0.71913(13) 0.58696(13) 0.21579(8)
O11 O 0.68821(13) 0.03481(12) 0.27194(8)
O12 O 0.90235(13) -0.09093(13) 0.25488(8)
C15 C 0.87062(18) 0.13420(18) 0.24883(11)
C16 C 1.0060(2) 0.1266(2) 0.25155(12)
H7 H 1.0707 0.0466 0.2580
C17 C 1.0428(2) 0.2408(2) 0.24440(14)
H8 H 1.1329 0.2385 0.2463
C18 C 0.94396(19) 0.35857(19) 0.23440(13)
H9 H 0.9663 0.4364 0.2299
C19 C 0.81123(18) 0.35774(18) 0.23130(11)
C20 C 0.69665(18) 0.48087(18) 0.21970(11)
C21 C 0.81877(18) 0.01493(18) 0.25886(10)
O13 O 0.42166(13) 0.09128(13) -0.13156(8)
H10 H 0.3303 0.1188 -0.1317
H11 H 0.4400 0.0214 -0.1506
O14 O 0.56787(14) 0.41873(13) -0.36633(8)
H12 H 0.5482 0.4888 -0.3484
H13 H 0.6517 0.3869 -0.3685
O15 O 0.61725(13) 0.31187(13) -0.16675(8)
H14 H 0.5810 0.2758 -0.1196
H15 H 0.5587 0.3898 -0.1732
O16 O 0.37027(13) 0.20257(13) -0.31922(7)
H16 H 0.3588 0.1231 -0.3088
H17 H 0.3830 0.2315 -0.3732
O17 O -0.13291(14) 0.57964(14) 0.39965(9)
H18 H -0.0507 0.5208 0.4042
H19 H -0.1855 0.5219 0.4004
O18 O -0.14137(14) 0.81574(14) 0.11782(8)
H20 H -0.1226 0.8942 0.0999
H21 H -0.1137 0.7955 0.0718
O19 O 0.28979(14) 0.07154(13) 0.09184(8)
H22 H 0.2580 0.0079 0.1118
H23 H 0.3209 0.0696 0.1358
O20 O 0.71292(14) 0.39236(14) 0.43056(9)
H24 H 0.6767 0.3476 0.4088
H25 H 0.7843 0.3334 0.4497
Ce1A Ce 0.484495(10) -0.252832(10) -0.248900(6)
Ce1A_2 Ce 0.484495(10) 0.747168(10) -0.248900(6)
Na2_2 Na 0.5000 0.5000 -0.5000
Na2_3 Na 0.5000 -0.5000 -0.5000
Na2_4 Na 0.5000 -0.5000 0.5000
Na3A Na 0.50276(7) -0.25391(7) 0.24639(4)
Na3A_2 Na 0.50276(7) 0.74609(7) 0.24639(4)
Na3A_3 Na -0.49724(7) 0.74609(7) 0.24639(4)
Na4A Na 1.13976(7) -0.70181(7) -0.25858(4)
Na4_2 Na 0.86024(7) 0.70181(7) 0.25858(4)
Na4_3 Na 0.86024(7) -0.29819(7) 0.25858(4)
Na4A_2 Na 0.13976(7) 0.29819(7) -0.25858(4)
Na4A_3 Na 0.13976(7) 1.29819(7) -0.25858(4)
N1A N 0.63570(15) -0.38381(14) -0.13278(9)
O1A O 0.70718(13) -0.42248(13) -0.28191(7)
O2A O 0.89238(13) -0.58333(13) -0.24733(8)
O3A O 0.39521(13) -0.21606(13) -0.10922(7)
O4A O 0.43947(14) -0.19602(13) 0.00712(8)
C1A C 0.59960(19) -0.35223(18) -0.06010(11)
C2A C 0.6797(2) -0.4100(2) 0.00233(12)
H1A H 0.6546 -0.3843 0.0516
C3A C 0.7979(2) -0.5070(2) -0.01049(12)
H2A H 0.8520 -0.5490 0.0308
C4A C 0.8344(2) -0.5405(2) -0.08535(12)
H3A H 0.9128 -0.6057 -0.0950
C5A C 0.75186(18) -0.47489(18) -0.14579(11)
C6A C 0.78815(18) -0.49768(18) -0.23134(11)
C7A C 0.46836(19) -0.24688(18) -0.05244(11)
N2A N 0.60867(15) -0.12151(15) -0.37994(9)
O5A O 0.47246(13) -0.28725(13) -0.38383(7)
O6A O 0.56431(14) -0.29436(13) -0.51281(8)
O6A_2 O 0.56431(14) 0.70564(13) 0.48719(8)
O7A O 0.60267(13) -0.09216(12) -0.23190(7)
O8A O 0.69322(13) 0.08015(13) -0.28168(8)
C8A C 0.67050(18) -0.03345(18) -0.37508(11)
C9A C 0.7459(2) 0.03115(19) -0.44203(12)
H4A H 0.7853 0.0940 -0.4373
C10A C 0.7606(2) -0.0008(2) -0.51648(12)
H5A H 0.8122 0.0393 -0.5624
C11A C 0.6981(2) -0.0929(2) -0.52182(11)
H6A H 0.7075 -0.1158 -0.5711
C12A C 0.62112(18) -0.15024(18) -0.45240(11)
C13A C 0.54756(18) -0.25118(18) -0.45109(11)
C14A C 0.65492(17) -0.01114(18) -0.29016(11)
N3A N 0.22491(15) 0.75232(15) -0.23923(9)
N3A_2 N 0.22491(15) -0.24768(15) -0.23923(9)
O9A O 0.41877(13) 0.53580(12) -0.21434(8)
O9A_2 O 0.41877(13) -0.46420(12) -0.21434(8)
O10A O 0.28087(13) 0.41304(13) -0.21579(8)
O10_2 O -0.28087(13) 0.58696(13) 0.21579(8)
O10_3 O 0.71913(13) -0.41304(13) 0.21579(8)
O10A_2 O 1.28087(13) -0.58696(13) -0.21579(8)
O11A O 0.31179(13) 0.96519(12) -0.27194(8)
O11A_2 O 0.31179(13) -0.03481(12) -0.27194(8)
O12A O 0.09765(13) 1.09093(13) -0.25488(8)
O12_2 O -0.09765(13) 0.90907(13) 0.25488(8)
O12A_2 O 1.09765(13) -0.90907(13) -0.25488(8)
C15A C 0.12938(18) 0.86580(18) -0.24883(11)
C16A C -0.0060(2) 0.8734(2) -0.25155(12)
H7A H -0.0707 0.9534 -0.2580
C17A C -0.0428(2) 0.7592(2) -0.24440(14)
H8A H -0.1329 0.7615 -0.2463
C18A C 0.05604(19) 0.64143(19) -0.23440(13)
H9A H 0.0337 0.5636 -0.2299
C19A C 0.18877(18) 0.64226(18) -0.23130(11)
C20A C 0.30335(18) 0.51913(18) -0.21970(11)
C21A C 0.18123(18) 0.98507(18) -0.25886(10)
O13A O 0.57834(13) -0.09128(13) 0.13156(8)
H10A H 0.6697 -0.1188 0.1317
H11A H 0.5600 -0.0214 0.1506
O14A O 0.43213(14) -0.41873(13) 0.36633(8)
O14_2 O 0.56787(14) 0.41873(13) 0.63367(8)
O14A_2 O 0.43213(14) 0.58127(13) 0.36633(8)
H12A H 0.4518 -0.4888 0.3484
H12_2 H 0.5482 0.4888 0.6516
H12A_2 H 0.4518 0.5112 0.3484
H13A H 0.3483 -0.3869 0.3685
H13_2 H 0.6517 0.3869 0.6315
H13A_2 H 0.3483 0.6131 0.3685
O15A O 0.38275(13) -0.31187(13) 0.16675(8)
H14A H 0.4190 -0.2758 0.1196
H15A H 0.4413 -0.3898 0.1732
O16A O -0.37027(13) 0.79743(13) 0.31922(7)
O16A_2 O 0.62973(13) -0.20257(13) 0.31922(7)
O16_2 O 1.37027(13) -0.79743(13) -0.31922(7)
H16A H -0.3588 0.8769 0.3088
H16A_2 H 0.6412 -0.1231 0.3088
H16_2 H 1.3588 -0.8769 -0.3088
H17A H -0.3830 0.7685 0.3732
H17A_2 H 0.6170 -0.2315 0.3732
H17_2 H 1.3830 -0.7685 -0.3732
O17A O 1.13291(14) -0.57964(14) -0.39965(9)
H18A H 1.0507 -0.5208 -0.4042
H19A H 1.1855 -0.5219 -0.4004
O18A O 1.14137(14) -0.81574(14) -0.11782(8)
H20A H 1.1226 -0.8942 -0.0999
H21A H 1.1137 -0.7955 -0.0718
O19A O 0.71021(14) -0.07154(13) -0.09184(8)
H22A H 0.7420 -0.0079 -0.1118
H23A H 0.6791 -0.0696 -0.1358
O20A O 0.28708(14) 0.60764(14) 0.56944(9)
H24A H 0.3233 0.6524 0.5912
H25A H 0.2157 0.6666 0.5503
O21 O 0.86848(14) 0.08579(14) 0.04707(8)
H26 H 0.8644 0.0931 -0.0055
H27 H 0.7914 0.1145 0.0658
O22 O 0.85819(14) 0.11948(14) -0.12823(8)
H28 H 0.8001 0.1999 -0.1524
H29 H 0.9231 0.1085 -0.1640
O23 O 0.83544(15) 0.28109(14) -0.34943(9)
H30 H 0.8099 0.2128 -0.3188
H31 H 0.8628 0.3211 -0.3195
O24 O 0.94379(15) 0.23758(15) -0.50380(9)
H32 H 0.9189 0.2458 -0.4496
H33 H 1.0063 0.2773 -0.5288
O25 O 0.12172(14) 0.40533(14) 0.43422(8)
H34 H 0.1851 0.4137 0.3895
H35 H 0.1618 0.4140 0.4664
O26 O 0.05092(15) 0.24426(14) 0.03279(9)
H36 H -0.0051 0.1896 0.0458
H37 H 0.1216 0.1991 0.0606
loop_
_geom_bond_atom_site_label_1
_geom_bond_atom_site_label_2
_geom_bond_site_symmetry_1
_geom_bond_site_symmetry_2
Ce1 N1 1_555 1_555
Na1 O4 1_555 1_555
Na2 O6 1_555 1_555
Na3 O13 1_555 1_555
Na4 O2 1_555 1_555
N1 C1 1_555 1_555
O1 Ce1 1_555 1_555
O2 C6 1_555 1_555
O3 Ce1 1_555 1_555
O4 C7 1_555 1_555
C1 C2 1_555 1_555
C2 H1 1_555 1_555
C3 C2 1_555 1_555
H2 C3 1_555 1_555
C4 C3 1_555 1_555
H3 C4 1_555 1_555
C5 N1 1_555 1_555
C6 O1 1_555 1_555
C7 O3 1_555 1_555
N2 Ce1 1_555 1_555
O5 Ce1 1_555 1_555
O6 C13 1_555 1_555
O7 Ce1 1_555 1_555
O8 C14 1_555 1_555
C8 N2 1_555 1_555
C9 C8 1_555 1_555
H4 C9 1_555 1_555
C10 C9 1_555 1_555
H5 C10 1_555 1_555
C11 C10 1_555 1_555
H6 C11 1_555 1_555
C12 N2 1_555 1_555
C13 O5 1_555 1_555
C14 O7 1_555 1_555
N3 Ce1 1_555 1_555
O9 Ce1 1_555 1_555
O10 C20 1_555 1_555
O11 Ce1 1_555 1_555
O12 C21 1_555 1_555
C15 N3 1_555 1_555
C16 C15 1_555 1_555
H7 C16 1_555 1_555
C17 C16 1_555 1_555
H8 C17 1_555 1_555
C18 C17 1_555 1_555
H9 C18 1_555 1_555
C19 N3 1_555 1_555
C20 O9 1_555 1_555
C21 O11 1_555 1_555
O13 Na1 1_555 1_555
H10 O13 1_555 1_555
H11 O13 1_555 1_555
O14 Na3 1_555 1_555
H12 O14 1_555 1_555
H13 O14 1_555 1_555
O15 Na3 1_555 1_555
H14 O15 1_555 1_555
H15 O15 1_555 1_555
O16 Na3 1_555 1_555
H16 O16 1_555 1_555
H17 O16 1_555 1_555
O17 Na4 1_555 1_555
H18 O17 1_555 1_555
H19 O17 1_555 1_555
O18 Na4 1_555 1_555
H20 O18 1_555 1_555
H21 O18 1_555 1_555
O19 Na1 1_555 1_555
H22 O19 1_555 1_555
H23 O19 1_555 1_555
O20 Na2 1_555 1_555
H24 O20 1_555 1_555
H25 O20 1_555 1_555
O21 H26 1_555 1_555
H27 O21 1_555 1_555
O22 H28 1_555 1_555
H29 O22 1_555 1_555
O23 H30 1_555 1_555
H31 O23 1_555 1_555
O24 H32 1_555 1_555
H33 O24 1_555 1_555
O25 H34 1_555 1_555
H35 O25 1_555 1_555
O26 H36 1_555 1_555
H37 O26 1_555 1_555
Ce1A N1A 1_555 1_555
Ce1A_2 N3A 1_555 1_555
Na2_2 O14 1_555 1_555
Na2_3 O6A 1_555 1_555
Na2_4 O14A 1_555 1_555
Na3A O8 1_555 1_555
Na3A_2 O10 1_555 1_555
Na3A_3 O10_2 1_555 1_555
Na4A O2A 1_555 1_555
Na4_2 O10 1_555 1_555
Na4_3 O12 1_555 1_555
Na4A_2 O16 1_555 1_555
Na4A_3 O12A 1_555 1_555
N1A C1A 1_555 1_555
O1A Ce1A 1_555 1_555
O2A C6A 1_555 1_555
O3A Ce1A 1_555 1_555
O4A Na1 1_555 1_555
C1A C2A 1_555 1_555
C2A H1A 1_555 1_555
C3A C2A 1_555 1_555
H2A C3A 1_555 1_555
C4A C3A 1_555 1_555
H3A C4A 1_555 1_555
C5A N1A 1_555 1_555
C6A O1A 1_555 1_555
C7A O3A 1_555 1_555
N2A Ce1A 1_555 1_555
O5A Ce1A 1_555 1_555
O6A C13A 1_555 1_555
O6A_2 Na2 1_555 1_555
O7A Ce1A 1_555 1_555
O8A Na3 1_555 1_555
C8A N2A 1_555 1_555
C9A C8A 1_555 1_555
H4A C9A 1_555 1_555
C10A C9A 1_555 1_555
H5A C10A 1_555 1_555
C11A C10A 1_555 1_555
H6A C11A 1_555 1_555
C12A N2A 1_555 1_555
C13A O5A 1_555 1_555
C14A O7A 1_555 1_555
N3A C15A 1_555 1_555
N3A_2 Ce1A 1_555 1_555
O9A Ce1A_2 1_555 1_555
O9A_2 Ce1A 1_555 1_555
O10A Na3 1_555 1_555
O10_2 Na4 1_555 1_555
O10_3 Na3A 1_555 1_555
O10A_2 Na4A 1_555 1_555
O11A Ce1A_2 1_555 1_555
O11A_2 Ce1A 1_555 1_555
O12A C21A 1_555 1_555
O12_2 Na4 1_555 1_555
O12A_2 Na4A 1_555 1_555
C15A C16A 1_555 1_555
C16A H7A 1_555 1_555
C17A C16A 1_555 1_555
H8A C17A 1_555 1_555
C18A C17A 1_555 1_555
H9A C18A 1_555 1_555
C19A N3A 1_555 1_555
C20A O9A 1_555 1_555
C21A O11A 1_555 1_555
O13A Na1 1_555 1_555
H10A O13A 1_555 1_555
H11A O13A 1_555 1_555
O14A Na3A 1_555 1_555
O14_2 Na2 1_555 1_555
O14A_2 Na2 1_555 1_555
H12A O14A 1_555 1_555
H12_2 O14_2 1_555 1_555
H12A_2 O14A_2 1_555 1_555
H13A O14A 1_555 1_555
H13_2 O14_2 1_555 1_555
H13A_2 O14A_2 1_555 1_555
O15A Na3A 1_555 1_555
H14A O15A 1_555 1_555
H15A O15A 1_555 1_555
O16A Na4 1_555 1_555
O16A_2 Na3A 1_555 1_555
O16_2 Na4A 1_555 1_555
H16A O16A 1_555 1_555
H16A_2 O16A_2 1_555 1_555
H16_2 O16_2 1_555 1_555
H17A O16A 1_555 1_555
H17A_2 O16A_2 1_555 1_555
H17_2 O16_2 1_555 1_555
O17A Na4A 1_555 1_555
H18A O17A 1_555 1_555
H19A O17A 1_555 1_555
O18A Na4A 1_555 1_555
H20A O18A 1_555 1_555
H21A O18A 1_555 1_555
O19A Na1 1_555 1_555
H22A O19A 1_555 1_555
H23A O19A 1_555 1_555
O20A Na2 1_555 1_555
H24A O20A 1_555 1_555
H25A O20A 1_555 1_555
C1 C7 1_555 1_555
C4 C5 1_555 1_555
C5 C6 1_555 1_555
C8 C14 1_555 1_555
C11 C12 1_555 1_555
C12 C13 1_555 1_555
C15 C21 1_555 1_555
C18 C19 1_555 1_555
C19 C20 1_555 1_555
Na3A O13A 1_555 1_555
Na3A_2 O14A_2 1_555 1_555
Na3A_3 O16A 1_555 1_555
Na4_3 O10_3 1_555 1_555
Na4_3 O16A_2 1_555 1_555
Na4A_2 O10A 1_555 1_555
O4A C7A 1_555 1_555
C1A C7A 1_555 1_555
C4A C5A 1_555 1_555
C5A C6A 1_555 1_555
O8A C14A 1_555 1_555
C8A C14A 1_555 1_555
C11A C12A 1_555 1_555
C12A C13A 1_555 1_555
O10A C20A 1_555 1_555
C15A C21A 1_555 1_555
C18A C19A 1_555 1_555
C19A C20A 1_555 1_555

#END
