
#######################################################################
#
#                 Cambridge Crystallographic Data Centre
#                                CCDC 
#
#######################################################################
#
# If this CIF has been generated from an entry in the Cambridge 
# Structural Database, then it will include bibliographic, chemical, 
# crystal, experimental, refinement or atomic coordinate data resulting 
# from the CCDC's data processing and validation procedures.
#
#######################################################################

data_UFUGAF
_symmetry_cell_setting           triclinic
_symmetry_space_group_name_H-M   'P -1'
_symmetry_Int_Tables_number      2
_space_group_name_Hall           '-P 1'
loop_
_symmetry_equiv_pos_site_id
_symmetry_equiv_pos_as_xyz
1 x,y,z
2 -x,-y,-z
_cell_length_a                   6.0537(9)
_cell_length_b                   11.2351(16)
_cell_length_c                   12.7177(18)
_cell_angle_alpha                80.978(3)
_cell_angle_beta                 88.194(2)
_cell_angle_gamma                85.894(2)
_cell_volume                     851.906
loop_
_atom_site_label
_atom_site_type_symbol
_atom_site_fract_x
_atom_site_fract_y
_atom_site_fract_z
Ag1 Ag 0.21137(5) 0.47476(3) 0.41188(2)
Ag2 Ag 0.28175(5) 0.71889(3) 0.47857(2)
P1 P 0.22185(14) 0.33410(7) 0.66276(6)
P2 P 0.28513(14) 0.57100(8) 0.71801(6)
O1 O 0.2706(4) 0.4251(2) 0.74325(17)
O2 O -0.0234(4) 0.3381(2) 0.6462(2)
O3 O 0.3657(4) 0.3610(2) 0.56496(19)
O4 O 0.5206(4) 0.5988(2) 0.6975(2)
O5 O 0.1222(4) 0.6197(2) 0.63241(18)
N1 N 0.2631(7) 0.9215(3) 0.4545(3)
C1 C 0.3114(6) 0.1919(3) 0.7380(3)
C2 C 0.5182(7) 0.1734(4) 0.7850(3)
H1 H 0.6128 0.2360 0.7772
C3 C 0.5842(8) 0.0629(4) 0.8431(4)
H2 H 0.7210 0.0522 0.8758
C4 C 0.4496(10) -0.0309(4) 0.8527(4)
H3 H 0.4956 -0.1053 0.8914
C5 C 0.2468(10) -0.0158(4) 0.8055(5)
H4 H 0.1556 -0.0799 0.8118
C6 C 0.1784(8) 0.0953(4) 0.7484(4)
H5 H 0.0408 0.1052 0.7164
C7 C 0.1952(5) 0.6160(3) 0.8427(3)
C8 C -0.0230(6) 0.6493(4) 0.8648(3)
H6 H -0.1310 0.6466 0.8149
C9 C -0.0814(7) 0.6870(4) 0.9616(4)
H7 H -0.2280 0.7118 0.9753
C10 C 0.0747(8) 0.6879(4) 1.0367(3)
H8 H 0.0339 0.7115 1.1018
C11 C 0.3510(7) 0.6188(4) 0.9193(3)
H9 H 0.4987 0.5966 0.9054
C12 C 0.2910(9) 0.6540(5) 1.0158(4)
H10 H 0.3976 0.6547 1.0668
C13 C 0.2591(7) 1.0210(4) 0.4263(4)
C14 C 0.2535(10) 1.1502(4) 0.3906(5)
H11 H 0.2286 1.1919 0.4508
H12 H 0.1360 1.1735 0.3411
H13 H 0.3923 1.1708 0.3565
Ag1A Ag -0.21137(5) 0.52524(3) 0.58812(2)
Ag1A_2 Ag 0.78863(5) 0.52524(3) 0.58812(2)
Ag2A Ag -0.28175(5) 0.28111(3) 0.52143(2)
Ag2A_2 Ag 0.71825(5) 0.28111(3) 0.52143(2)
O2A O 0.0234(4) 0.6619(2) 0.3538(2)
O3A O 0.6343(4) 0.6390(2) 0.43504(19)
O4A O 0.4794(4) 0.4012(2) 0.3025(2)
O5A O -0.1222(4) 0.3803(2) 0.36759(18)
loop_
_geom_bond_atom_site_label_1
_geom_bond_atom_site_label_2
_geom_bond_site_symmetry_1
_geom_bond_site_symmetry_2
Ag1 Ag2 1_555 1_555
Ag2 O5 1_555 1_555
P1 O1 1_555 1_555
P2 O1 1_555 1_555
O2 P1 1_555 1_555
O3 Ag1 1_555 1_555
O4 P2 1_555 1_555
O5 P2 1_555 1_555
N1 Ag2 1_555 1_555
C1 P1 1_555 1_555
C2 C1 1_555 1_555
H1 C2 1_555 1_555
C3 C2 1_555 1_555
H2 C3 1_555 1_555
C4 C3 1_555 1_555
H3 C4 1_555 1_555
C5 C4 1_555 1_555
H4 C5 1_555 1_555
C6 C1 1_555 1_555
H5 C6 1_555 1_555
C7 P2 1_555 1_555
C8 C7 1_555 1_555
H6 C8 1_555 1_555
C9 C8 1_555 1_555
H7 C9 1_555 1_555
C10 C9 1_555 1_555
H8 C10 1_555 1_555
C11 C7 1_555 1_555
H9 C11 1_555 1_555
C12 C10 1_555 1_555
H10 C12 1_555 1_555
C13 N1 1_555 1_555
C14 C13 1_555 1_555
H11 C14 1_555 1_555
H12 C14 1_555 1_555
H13 C14 1_555 1_555
Ag1A O2 1_555 1_555
Ag1A_2 O4 1_555 1_555
Ag2A O2 1_555 1_555
Ag2A_2 O3 1_555 1_555
O2A Ag1 1_555 1_555
O3A Ag2 1_555 1_555
O4A Ag1 1_555 1_555
O5A Ag1 1_555 1_555
Ag2 O2A 1_555 1_555
P1 O3 1_555 1_555
O5 Ag1A 1_555 1_555
C5 C6 1_555 1_555
C11 C12 1_555 1_555
Ag1A Ag2A 1_555 1_555
Ag1A_2 Ag2A_2 1_555 1_555
Ag1A_2 O3A 1_555 1_555
Ag2A O5A 1_555 1_555

#END
