
#######################################################################
#
#                 Cambridge Crystallographic Data Centre
#                                CCDC 
#
#######################################################################
#
# If this CIF has been generated from an entry in the Cambridge 
# Structural Database, then it will include bibliographic, chemical, 
# crystal, experimental, refinement or atomic coordinate data resulting 
# from the CCDC's data processing and validation procedures.
#
#######################################################################

data_UFUKUB02
_symmetry_cell_setting           monoclinic
_symmetry_space_group_name_H-M   'P 21/c'
_symmetry_Int_Tables_number      14
_space_group_name_Hall           '-P 2ybc'
loop_
_symmetry_equiv_pos_site_id
_symmetry_equiv_pos_as_xyz
1 x,y,z
2 -x,1/2+y,1/2-z
3 -x,-y,-z
4 x,1/2-y,1/2+z
_cell_length_a                   8.8073(8)
_cell_length_b                   12.5747(12)
_cell_length_c                   7.9707(7)
_cell_angle_alpha                90.00
_cell_angle_beta                 97.513(6)
_cell_angle_gamma                90.00
_cell_volume                     875.17
loop_
_atom_site_label
_atom_site_type_symbol
_atom_site_fract_x
_atom_site_fract_y
_atom_site_fract_z
Co1 Co -0.22370(3) 1.433792(18) 0.41616(3)
O1 O -0.44394(14) 1.48072(10) 0.30109(16)
O2 O -0.37587(14) 1.31675(10) 0.25785(18)
O3 O -0.83555(16) 1.07716(10) -0.01695(19)
O4 O -1.05374(14) 1.16851(11) -0.02096(18)
O5 O -0.31430(17) 1.38967(13) 0.63702(19)
H1 H -0.336(3) 1.335(2) 0.657(3)
H2 H -0.385(3) 1.4292(18) 0.659(3)
N1 N -0.88253(19) 1.53713(13) -0.1822(2)
H3 H -0.872(2) 1.5948(19) -0.134(3)
H4 H -0.975(3) 1.5297(19) -0.214(3)
C1 C -0.82321(19) 1.45050(14) -0.0774(2)
C2 C -0.68816(19) 1.46283(14) 0.0323(2)
H5 H -0.6435 1.5297 0.0482
C3 C -0.61949(19) 1.37553(14) 0.1186(2)
C4 C -0.68616(19) 1.27499(14) 0.0972(2)
H6 H -0.6371 1.2157 0.1488
C5 C -0.82709(19) 1.26496(14) -0.0024(2)
C6 C -0.89506(19) 1.35217(14) -0.0902(2)
H7 H -0.9889 1.3444 -0.1576
C7 C -0.47259(19) 1.39055(15) 0.2331(2)
C8 C -0.9105(2) 1.16124(14) -0.0136(2)
Co1A Co -0.77630(3) 0.933792(18) 0.08384(3)
Co1C Co -1.22370(3) 1.066208(18) -0.08384(3)
Co1B Co -0.77630(3) 1.566208(18) -0.41616(3)
O3A O -0.16445(16) 1.57716(10) 0.51695(19)
O4C O -0.05374(14) 1.33149(11) 0.47904(18)
N1B N -0.11747(19) 1.46287(13) 0.1822(2)
H3B H -0.128(2) 1.4052(19) 0.134(3)
H4B H -0.025(3) 1.4703(19) 0.214(3)
loop_
_geom_bond_atom_site_label_1
_geom_bond_atom_site_label_2
_geom_bond_site_symmetry_1
_geom_bond_site_symmetry_2
Co1 O1 1_555 1_555
O1 C7 1_555 1_555
O2 Co1 1_555 1_555
O3 C8 1_555 1_555
O4 C8 1_555 1_555
O5 Co1 1_555 1_555
H1 O5 1_555 1_555
H2 O5 1_555 1_555
N1 H3 1_555 1_555
H4 N1 1_555 1_555
C1 N1 1_555 1_555
C2 C1 1_555 1_555
H5 C2 1_555 1_555
C3 C2 1_555 1_555
C4 C3 1_555 1_555
H6 C4 1_555 1_555
C5 C4 1_555 1_555
C6 C1 1_555 1_555
H7 C6 1_555 1_555
C7 O2 1_555 1_555
C8 C5 1_555 1_555
Co1A O3 1_555 1_555
Co1C O4 1_555 1_555
Co1B N1 1_555 1_555
O3A Co1 1_555 1_555
O4C Co1 1_555 1_555
N1B Co1 1_555 1_555
H3B N1B 1_555 1_555
H4B N1B 1_555 1_555
C3 C7 1_555 1_555
C5 C6 1_555 1_555

#END
