
#######################################################################
#
#                 Cambridge Crystallographic Data Centre
#                                CCDC 
#
#######################################################################
#
# If this CIF has been generated from an entry in the Cambridge 
# Structural Database, then it will include bibliographic, chemical, 
# crystal, experimental, refinement or atomic coordinate data resulting 
# from the CCDC's data processing and validation procedures.
#
#######################################################################

data_UFUKIR
_symmetry_cell_setting           triclinic
_symmetry_space_group_name_H-M   'P -1'
_symmetry_Int_Tables_number      2
_space_group_name_Hall           '-P 1'
loop_
_symmetry_equiv_pos_site_id
_symmetry_equiv_pos_as_xyz
1 x,y,z
2 -x,-y,-z
_cell_length_a                   12.273(8)
_cell_length_b                   13.134(8)
_cell_length_c                   15.830(9)
_cell_angle_alpha                95.556(11)
_cell_angle_beta                 94.659(6)
_cell_angle_gamma                107.710(10)
_cell_volume                     2402.81
loop_
_atom_site_label
_atom_site_type_symbol
_atom_site_fract_x
_atom_site_fract_y
_atom_site_fract_z
C1 C 0.0192(6) 0.1035(5) 0.3810(4)
C2 C 0.0882(6) 0.2056(5) 0.3514(4)
C3 C 0.2040(6) 0.2585(5) 0.3813(4)
C4 C 0.2617(6) 0.3593(5) 0.3561(4)
C5 C 0.2002(6) 0.4039(5) 0.2995(4)
H1 H 0.2361 0.4708 0.2828
C6 C 0.0885(6) 0.3496(5) 0.2689(4)
C7 C 0.0292(6) 0.2498(5) 0.2939(4)
H2 H -0.0473 0.2141 0.2726
C8 C 0.2691(6) 0.1994(5) 0.4340(4)
C9 C 0.3857(6) 0.4240(5) 0.3905(4)
C10 C 0.5053(6) -0.0532(4) 0.3340(4)
C11 C 0.5050(6) -0.0925(5) 0.2405(4)
C12 C 0.5770(6) -0.1526(4) 0.2159(4)
C13 C 0.5777(6) -0.1818(5) 0.1269(4)
C14 C 0.5045(6) -0.1575(5) 0.0673(4)
H3 H 0.5020 -0.1805 0.0095
C15 C 0.4334(6) -0.0976(5) 0.0946(4)
C16 C 0.4345(6) -0.0649(5) 0.1810(4)
H4 H 0.3878 -0.0247 0.1984
C17 C 0.6421(6) -0.1911(5) 0.2833(4)
C18 C 0.6663(6) -0.2296(5) 0.0923(4)
C19 C 0.0226(6) -0.1543(5) 0.3165(4)
C20 C 0.1264(6) -0.1976(4) 0.3181(4)
C21 C 0.2003(6) -0.1895(5) 0.3917(4)
C22 C 0.2904(6) -0.2334(4) 0.3873(4)
C23 C 0.3065(6) -0.2873(4) 0.3096(4)
H5 H 0.3622 -0.3219 0.3072
C24 C 0.2342(6) -0.2858(5) 0.2365(4)
C25 C 0.1801(5) -0.1444(5) 0.4808(4)
C26 C 0.1486(6) -0.2416(5) 0.2389(4)
H6 H 0.1045 -0.2400 0.1887
C27 C 0.3911(6) -0.2083(5) 0.4570(4)
C28 C 0.0985(7) 0.0660(6) 0.1311(5)
H7 H 0.1443 0.0344 0.1619
C29 C 0.1362(7) 0.1385(6) 0.0763(5)
H8 H 0.2111 0.1652 0.0626
C30 C -0.0461(7) 0.1080(5) 0.0823(4)
H9 H -0.1206 0.1114 0.0727
C31 C 0.0350(6) 0.2375(5) -0.0193(4)
H10 H -0.0439 0.2381 -0.0288
H11 H 0.0546 0.2095 -0.0729
C32 C 0.1136(7) 0.3522(5) 0.0067(4)
H12 H 0.1933 0.3533 0.0106
H13 H 0.0990 0.3788 0.0626
C33 C 0.0937(6) 0.4264(5) -0.0587(4)
H14 H 0.0115 0.4082 -0.0753
H15 H 0.1209 0.5003 -0.0311
C34 C 0.1531(6) 0.4196(5) -0.1390(4)
H16 H 0.1346 0.3445 -0.1624
H17 H 0.1232 0.4559 -0.1813
C35 C 0.3539(7) 0.4461(6) -0.1772(4)
H18 H 0.3343 0.3970 -0.2267
C36 C 0.4604(7) 0.5080(5) -0.1459(4)
H19 H 0.5279 0.5107 -0.1697
C37 C 0.3408(7) 0.5427(5) -0.0604(4)
H20 H 0.3112 0.5731 -0.0158
C38 C 0.6814(7) 0.4608(5) 0.3571(5)
H21 H 0.6101 0.4088 0.3407
C39 C 0.7833(7) 0.4465(5) 0.3478(4)
H22 H 0.7953 0.3839 0.3237
C40 C 0.8100(6) 0.6085(5) 0.4088(4)
H23 H 0.8468 0.6783 0.4353
C41 C 0.9901(6) 0.5604(5) 0.3953(4)
H24 H 1.0278 0.6354 0.4179
H25 H 1.0187 0.5470 0.3413
C42 C 1.0214(6) 0.4893(5) 0.4574(3)
H26 H 0.9866 0.4141 0.4342
H27 H 1.1043 0.5046 0.4653
H28 H -0.2843 0.0616 0.1520
H29 H -0.2556 0.0933 0.2301
Mn1 Mn -0.13528(9) -0.05323(7) 0.21449(6)
Mn2 Mn 0.14349(9) 0.07483(7) 0.57122(6)
Mn3 Mn 0.39194(9) 0.04340(7) 0.47383(6)
Mn4 Mn 0.56933(9) 0.64423(7) 0.42383(6)
N1 N -0.0157(5) 0.0464(4) 0.1345(3)
N2 N 0.0424(5) 0.1649(4) 0.0447(3)
N3 N 0.2776(5) 0.4673(4) -0.1236(3)
N4 N 0.4513(6) 0.5678(4) -0.0707(4)
N5 N 0.6984(5) 0.5657(4) 0.3951(3)
N6 N 0.8666(5) 0.5410(4) 0.3803(3)
N7 N 0.0252(5) 0.3975(5) 0.2111(3)
N8 N 0.3591(6) -0.0709(5) 0.0316(4)
N9 N 0.2561(5) -0.3354(4) 0.1539(3)
O1 O -0.0776(4) 0.0487(3) 0.3390(3)
O2 O 0.0533(4) 0.0747(3) 0.4486(2)
O3 O 0.3136(4) 0.1376(3) 0.3957(3)
O4 O 0.2736(4) 0.2118(3) 0.5162(2)
O5 O 0.4349(4) 0.3848(3) 0.4452(3)
O6 O 0.4263(4) 0.5112(3) 0.3611(3)
O7 O 0.0758(4) 0.4898(3) 0.1951(3)
O8 O -0.0722(4) 0.3451(4) 0.1796(3)
O9 O 0.4306(4) -0.0083(3) 0.3502(3)
O10 O 0.5757(4) -0.0722(3) 0.3874(3)
O11 O 0.7476(4) -0.1406(3) 0.3069(2)
O12 O 0.5860(4) -0.2775(3) 0.3091(2)
O13 O 0.7663(4) -0.1938(3) 0.1292(3)
O14 O 0.6343(4) -0.2974(3) 0.0256(3)
O15 O 0.3596(5) -0.1031(4) -0.0445(3)
O16 O 0.2997(6) -0.0153(5) 0.0531(3)
O17 O -0.0093(4) -0.1301(3) 0.2476(3)
O18 O -0.0233(4) -0.1566(3) 0.3853(2)
O19 O 0.2124(4) -0.0378(3) 0.4942(2)
O20 O 0.1372(4) -0.2061(3) 0.5278(3)
O21 O 0.4124(4) -0.1188(3) 0.5036(2)
O22 O 0.4477(4) -0.2716(3) 0.4625(3)
O23 O 0.3219(4) -0.3896(4) 0.1547(3)
O24 O 0.2101(4) -0.3162(3) 0.0880(3)
O25 O -0.2425(4) 0.0489(3) 0.1925(2)
C38A C 1.3186(7) 0.5392(5) 0.6429(5)
H21A H 1.3899 0.5912 0.6593
C39A C 1.2167(7) 0.5535(5) 0.6522(4)
H22A H 1.2047 0.6161 0.6763
C40A C 1.1900(6) 0.3915(5) 0.5912(4)
H23A H 1.1532 0.3217 0.5647
C41A C 1.0099(6) 0.4396(5) 0.6047(4)
H24A H 0.9722 0.3646 0.5821
H25A H 0.9813 0.4530 0.6587
C42A C 0.9786(6) 0.5107(5) 0.5426(3)
H26A H 1.0134 0.5859 0.5658
H27A H 0.8957 0.4954 0.5347
N5A N 1.3016(5) 0.4343(4) 0.6049(3)
N6A N 1.1334(5) 0.4590(4) 0.6197(3)
C1A C -0.0192(6) -0.1035(5) 0.6190(4)
C2A C -0.0882(6) -0.2056(5) 0.6486(4)
C3A C -0.2040(6) -0.2585(5) 0.6187(4)
C4A C -0.2617(6) -0.3593(5) 0.6439(4)
C5A C -0.2002(6) -0.4039(5) 0.7005(4)
H1A H -0.2361 -0.4708 0.7172
C6A C -0.0885(6) -0.3496(5) 0.7311(4)
C7A C -0.0292(6) -0.2498(5) 0.7061(4)
H2A H 0.0473 -0.2141 0.7274
C8A C -0.2691(6) -0.1994(5) 0.5660(4)
C9A C -0.3857(6) -0.4240(5) 0.6095(4)
C10A C -0.5053(6) 0.0532(4) 0.6660(4)
C11A C -0.5050(6) 0.0925(5) 0.7595(4)
C12A C -0.5770(6) 0.1526(4) 0.7841(4)
C13A C -0.5777(6) 0.1818(5) 0.8731(4)
C14A C -0.5045(6) 0.1575(5) 0.9327(4)
H3A H -0.5020 0.1805 0.9905
C15A C -0.4334(6) 0.0976(5) 0.9054(4)
C16A C -0.4345(6) 0.0649(5) 0.8190(4)
H4A H -0.3878 0.0247 0.8016
C17A C -0.6421(6) 0.1911(5) 0.7167(4)
C18A C -0.6663(6) 0.2296(5) 0.9077(4)
C19A C -0.0226(6) 0.1543(5) 0.6835(4)
C20A C -0.1264(6) 0.1976(4) 0.6819(4)
C21A C -0.2003(6) 0.1895(5) 0.6083(4)
C22A C -0.2904(6) 0.2334(4) 0.6127(4)
C23A C -0.3065(6) 0.2873(4) 0.6904(4)
H5A H -0.3622 0.3219 0.6928
C24A C -0.2342(6) 0.2858(5) 0.7635(4)
C25A C -0.1801(5) 0.1444(5) 0.5192(4)
C26A C -0.1486(6) 0.2416(5) 0.7611(4)
H6A H -0.1045 0.2400 0.8113
C27A C -0.3911(6) 0.2083(5) 0.5430(4)
C28A C -0.0985(7) -0.0660(6) 0.8689(5)
H7A H -0.1443 -0.0344 0.8381
C29A C -0.1362(7) -0.1385(6) 0.9237(5)
H8A H -0.2111 -0.1652 0.9374
C30A C 0.0461(7) -0.1080(5) 0.9177(4)
H9A H 0.1206 -0.1114 0.9273
C31A C -0.0350(6) -0.2375(5) 1.0193(4)
H10A H 0.0439 -0.2381 1.0288
H11A H -0.0546 -0.2095 1.0729
C32A C -0.1136(7) -0.3522(5) 0.9933(4)
H12A H -0.1933 -0.3533 0.9894
H13A H -0.0990 -0.3788 0.9374
C33A C -0.0937(6) -0.4264(5) 1.0587(4)
H14A H -0.0115 -0.4082 1.0753
H15A H -0.1209 -0.5003 1.0311
C34A C -0.1531(6) -0.4196(5) 1.1390(4)
H16A H -0.1346 -0.3445 1.1624
H17A H -0.1232 -0.4559 1.1813
C35A C -0.3539(7) -0.4461(6) 1.1772(4)
H18A H -0.3343 -0.3970 1.2267
C36A C -0.4604(7) -0.5080(5) 1.1459(4)
H19A H -0.5279 -0.5107 1.1697
C37A C -0.3408(7) -0.5427(5) 1.0604(4)
H20A H -0.3112 -0.5731 1.0158
H28A H 0.2843 -0.0616 0.8480
H29A H 0.2556 -0.0933 0.7699
Mn1A Mn 0.13528(9) 0.05323(7) 0.78551(6)
Mn2A Mn -0.14349(9) -0.07483(7) 0.42878(6)
Mn3A Mn -0.39194(9) -0.04340(7) 0.52617(6)
Mn4A Mn -0.56933(9) -0.64423(7) 0.57617(6)
N1A N 0.0157(5) -0.0464(4) 0.8655(3)
N2A N -0.0424(5) -0.1649(4) 0.9553(3)
N3A N -0.2776(5) -0.4673(4) 1.1236(3)
N4A N -0.4513(6) -0.5678(4) 1.0707(4)
N7A N -0.0252(5) -0.3975(5) 0.7889(3)
N8A N -0.3591(6) 0.0709(5) 0.9684(4)
N9A N -0.2561(5) 0.3354(4) 0.8461(3)
O1A O 0.0776(4) -0.0487(3) 0.6610(3)
O2A O -0.0533(4) -0.0747(3) 0.5514(2)
O3A O -0.3136(4) -0.1376(3) 0.6043(3)
O4A O -0.2736(4) -0.2118(3) 0.4838(2)
O5A O -0.4349(4) -0.3848(3) 0.5548(3)
O6A O -0.4263(4) -0.5112(3) 0.6389(3)
O7A O -0.0758(4) -0.4898(3) 0.8049(3)
O8A O 0.0722(4) -0.3451(4) 0.8204(3)
O9A O -0.4306(4) 0.0083(3) 0.6498(3)
O10A O -0.5757(4) 0.0722(3) 0.6126(3)
O11A O -0.7476(4) 0.1406(3) 0.6931(2)
O12A O -0.5860(4) 0.2775(3) 0.6909(2)
O13A O -0.7663(4) 0.1938(3) 0.8708(3)
O14A O -0.6343(4) 0.2974(3) 0.9744(3)
O15A O -0.3596(5) 0.1031(4) 1.0445(3)
O16A O -0.2997(6) 0.0153(5) 0.9469(3)
O17A O 0.0093(4) 0.1301(3) 0.7524(3)
O18A O 0.0233(4) 0.1566(3) 0.6147(2)
O19A O -0.2124(4) 0.0378(3) 0.5058(2)
O20A O -0.1372(4) 0.2061(3) 0.4722(3)
O21A O -0.4124(4) 0.1188(3) 0.4964(2)
O22A O -0.4477(4) 0.2716(3) 0.5375(3)
O23A O -0.3219(4) 0.3896(4) 0.8453(3)
O24A O -0.2101(4) 0.3162(3) 0.9120(3)
O25A O 0.2425(4) -0.0489(3) 0.8075(2)
Mn1_2 Mn 0.86472(9) -0.05323(7) 0.21449(6)
Mn1A_2 Mn -0.86472(9) 0.05323(7) 0.78551(6)
Mn2_2 Mn -0.85651(9) 0.07483(7) 0.57122(6)
Mn2A_2 Mn 0.85651(9) -0.07483(7) 0.42878(6)
Mn3_2 Mn -0.60806(9) 0.04340(7) 0.47383(6)
Mn3A_2 Mn 0.60806(9) -0.04340(7) 0.52617(6)
Mn4_2 Mn -0.43067(9) -0.35577(7) 0.42383(6)
Mn4_3 Mn 0.56933(9) -0.35577(7) 0.42383(6)
Mn4A_2 Mn -0.56933(9) 0.35577(7) 0.57617(6)
Mn4A_3 Mn 0.43067(9) 0.35577(7) 0.57617(6)
Mn4A_4 Mn 1.43067(9) 0.35577(7) 0.57617(6)
N5A_2 N -0.6984(5) -0.5657(4) 0.6049(3)
O4_2 O -0.7264(4) -0.7882(3) 0.5162(2)
O4A_2 O 0.7264(4) 0.7882(3) 0.4838(2)
O5_2 O -0.5651(4) -0.6152(3) 0.4452(3)
O5A_2 O 0.5651(4) 0.6152(3) 0.5548(3)
O10_2 O -0.4243(4) -0.0722(3) 0.3874(3)
O10A_2 O 0.4243(4) 0.0722(3) 0.6126(3)
O11_2 O -0.2524(4) -0.1406(3) 0.3069(2)
O11A_2 O 0.2524(4) 0.1406(3) 0.6931(2)
O12_2 O 0.5860(4) 0.7225(3) 0.3091(2)
O12A_2 O -0.5860(4) -0.7225(3) 0.6909(2)
O13_2 O -0.2337(4) -0.1938(3) 0.1292(3)
O13A_2 O 0.2337(4) 0.1938(3) 0.8708(3)
O21_2 O -0.5876(4) -0.1188(3) 0.5036(2)
O21A_2 O 0.5876(4) 0.1188(3) 0.4964(2)
O22_2 O 0.4477(4) 0.7284(3) 0.4625(3)
O22A_2 O -0.4477(4) -0.7284(3) 0.5375(3)
O26 O 0.7309(5) 0.1820(3) 0.3175(3)
O27 O 0.4749(5) 0.7789(4) 0.6750(4)
loop_
_geom_bond_atom_site_label_1
_geom_bond_atom_site_label_2
_geom_bond_site_symmetry_1
_geom_bond_site_symmetry_2
C1 C2 1_555 1_555
C2 C3 1_555 1_555
C3 C4 1_555 1_555
C4 C5 1_555 1_555
C5 H1 1_555 1_555
C6 C5 1_555 1_555
C7 C2 1_555 1_555
H2 C7 1_555 1_555
C8 C3 1_555 1_555
C9 C4 1_555 1_555
C10 C11 1_555 1_555
C11 C12 1_555 1_555
C12 C13 1_555 1_555
C13 C14 1_555 1_555
C14 H3 1_555 1_555
C15 C14 1_555 1_555
C16 C11 1_555 1_555
H4 C16 1_555 1_555
C17 C12 1_555 1_555
C18 C13 1_555 1_555
C19 C20 1_555 1_555
C20 C21 1_555 1_555
C21 C22 1_555 1_555
C22 C23 1_555 1_555
C23 H5 1_555 1_555
C24 C23 1_555 1_555
C25 C21 1_555 1_555
C26 C20 1_555 1_555
H6 C26 1_555 1_555
C27 C22 1_555 1_555
C28 H7 1_555 1_555
C29 C28 1_555 1_555
H8 C29 1_555 1_555
C30 H9 1_555 1_555
C31 H10 1_555 1_555
H11 C31 1_555 1_555
C32 C31 1_555 1_555
H12 C32 1_555 1_555
H13 C32 1_555 1_555
C33 C32 1_555 1_555
H14 C33 1_555 1_555
H15 C33 1_555 1_555
C34 C33 1_555 1_555
H16 C34 1_555 1_555
H17 C34 1_555 1_555
C35 H18 1_555 1_555
C36 C35 1_555 1_555
H19 C36 1_555 1_555
C37 H20 1_555 1_555
C38 H21 1_555 1_555
C39 C38 1_555 1_555
H22 C39 1_555 1_555
C40 H23 1_555 1_555
C41 H24 1_555 1_555
H25 C41 1_555 1_555
C42 C41 1_555 1_555
H26 C42 1_555 1_555
H27 C42 1_555 1_555
H28 O25 1_555 1_555
H29 O25 1_555 1_555
Mn1 N1 1_555 1_555
Mn2 O2 1_555 1_555
Mn3 O3 1_555 1_555
Mn4 N5 1_555 1_555
N1 C28 1_555 1_555
N2 C29 1_555 1_555
N3 C34 1_555 1_555
N4 C36 1_555 1_555
N5 C38 1_555 1_555
N6 C39 1_555 1_555
N7 C6 1_555 1_555
N8 C15 1_555 1_555
N9 C24 1_555 1_555
O1 C1 1_555 1_555
O2 C1 1_555 1_555
O3 C8 1_555 1_555
O4 C8 1_555 1_555
O5 C9 1_555 1_555
O6 C9 1_555 1_555
O7 N7 1_555 1_555
O8 N7 1_555 1_555
O9 C10 1_555 1_555
O10 C10 1_555 1_555
O11 C17 1_555 1_555
O12 C17 1_555 1_555
O13 C18 1_555 1_555
O14 C18 1_555 1_555
O15 N8 1_555 1_555
O16 N8 1_555 1_555
O17 C19 1_555 1_555
O18 C19 1_555 1_555
O19 C25 1_555 1_555
O20 C25 1_555 1_555
O21 C27 1_555 1_555
O22 C27 1_555 1_555
O23 N9 1_555 1_555
O24 N9 1_555 1_555
O25 Mn1 1_555 1_555
C38A H21A 1_555 1_555
C39A C38A 1_555 1_555
H22A C39A 1_555 1_555
C40A H23A 1_555 1_555
C41A H24A 1_555 1_555
H25A C41A 1_555 1_555
C42A C42 1_555 1_555
H26A C42A 1_555 1_555
H27A C42A 1_555 1_555
N5A C38A 1_555 1_555
N6A C39A 1_555 1_555
C1A C2A 1_555 1_555
C2A C3A 1_555 1_555
C3A C4A 1_555 1_555
C4A C5A 1_555 1_555
C5A H1A 1_555 1_555
C6A C5A 1_555 1_555
C7A C2A 1_555 1_555
H2A C7A 1_555 1_555
C8A C3A 1_555 1_555
C9A C4A 1_555 1_555
C10A C11A 1_555 1_555
C11A C12A 1_555 1_555
C12A C13A 1_555 1_555
C13A C14A 1_555 1_555
C14A H3A 1_555 1_555
C15A C14A 1_555 1_555
C16A C11A 1_555 1_555
H4A C16A 1_555 1_555
C17A C12A 1_555 1_555
C18A C13A 1_555 1_555
C19A C20A 1_555 1_555
C20A C21A 1_555 1_555
C21A C22A 1_555 1_555
C22A C23A 1_555 1_555
C23A H5A 1_555 1_555
C24A C23A 1_555 1_555
C25A C21A 1_555 1_555
C26A C20A 1_555 1_555
H6A C26A 1_555 1_555
C27A C22A 1_555 1_555
C28A H7A 1_555 1_555
C29A C28A 1_555 1_555
H8A C29A 1_555 1_555
C30A H9A 1_555 1_555
C31A H10A 1_555 1_555
H11A C31A 1_555 1_555
C32A C31A 1_555 1_555
H12A C32A 1_555 1_555
H13A C32A 1_555 1_555
C33A C32A 1_555 1_555
H14A C33A 1_555 1_555
H15A C33A 1_555 1_555
C34A C33A 1_555 1_555
H16A C34A 1_555 1_555
H17A C34A 1_555 1_555
C35A H18A 1_555 1_555
C36A C35A 1_555 1_555
H19A C36A 1_555 1_555
C37A H20A 1_555 1_555
H28A O25A 1_555 1_555
H29A O25A 1_555 1_555
Mn1A N1A 1_555 1_555
Mn2A O1 1_555 1_555
Mn3A O3A 1_555 1_555
Mn4A O6A 1_555 1_555
N1A C28A 1_555 1_555
N2A C29A 1_555 1_555
N3A C34A 1_555 1_555
N4A C36A 1_555 1_555
N7A C6A 1_555 1_555
N8A C15A 1_555 1_555
N9A C24A 1_555 1_555
O1A Mn2 1_555 1_555
O2A C1A 1_555 1_555
O3A C8A 1_555 1_555
O4A C8A 1_555 1_555
O5A C9A 1_555 1_555
O6A C9A 1_555 1_555
O7A N7A 1_555 1_555
O8A N7A 1_555 1_555
O9A C10A 1_555 1_555
O10A C10A 1_555 1_555
O11A C17A 1_555 1_555
O12A C17A 1_555 1_555
O13A C18A 1_555 1_555
O14A C18A 1_555 1_555
O15A N8A 1_555 1_555
O16A N8A 1_555 1_555
O17A C19A 1_555 1_555
O18A Mn2 1_555 1_555
O19A C25A 1_555 1_555
O20A C25A 1_555 1_555
O21A C27A 1_555 1_555
O22A C27A 1_555 1_555
O23A N9A 1_555 1_555
O24A N9A 1_555 1_555
O25A Mn1A 1_555 1_555
Mn1_2 O11 1_555 1_555
Mn1A_2 O11A 1_555 1_555
Mn2_2 O11A 1_555 1_555
Mn2A_2 O11 1_555 1_555
Mn3_2 O10A 1_555 1_555
Mn3A_2 O10 1_555 1_555
Mn4_2 O4A 1_555 1_555
Mn4_3 O12 1_555 1_555
Mn4A_2 O12A 1_555 1_555
Mn4A_3 O4 1_555 1_555
Mn4A_4 N5A 1_555 1_555
N5A_2 Mn4A 1_555 1_555
O4_2 Mn4A 1_555 1_555
O4A_2 Mn4 1_555 1_555
O5_2 Mn4A 1_555 1_555
O5A_2 Mn4 1_555 1_555
O10_2 Mn3A 1_555 1_555
O10A_2 Mn3 1_555 1_555
O11_2 Mn1 1_555 1_555
O11A_2 Mn2 1_555 1_555
O12_2 Mn4 1_555 1_555
O12A_2 Mn4A 1_555 1_555
O13_2 Mn1 1_555 1_555
O13A_2 Mn1A 1_555 1_555
O21_2 Mn3A 1_555 1_555
O21A_2 Mn3 1_555 1_555
O22_2 Mn4 1_555 1_555
O22A_2 Mn4A 1_555 1_555
C6 C7 1_555 1_555
C15 C16 1_555 1_555
C24 C26 1_555 1_555
C30 N1 1_555 1_555
C30 N2 1_555 1_555
C31 N2 1_555 1_555
C35 N3 1_555 1_555
C37 N3 1_555 1_555
C37 N4 1_555 1_555
C40 N5 1_555 1_555
C40 N6 1_555 1_555
C41 N6 1_555 1_555
Mn1 O1 1_555 1_555
Mn1 O17 1_555 1_555
Mn2 O4 1_555 1_555
Mn2 O19 1_555 1_555
Mn3 O9 1_555 1_555
Mn3 O19 1_555 1_555
Mn3 O21 1_555 1_555
Mn4 O6 1_555 1_555
O5 Mn4A_3 1_555 1_555
O13 Mn1_2 1_555 1_555
O18 Mn2A 1_555 1_555
O21 Mn3A_2 1_555 1_555
O22 Mn4_3 1_555 1_555
C40A N5A 1_555 1_555
C40A N6A 1_555 1_555
C41A C42A 1_555 1_555
C41A N6A 1_555 1_555
C1A O1A 1_555 1_555
C6A C7A 1_555 1_555
C15A C16A 1_555 1_555
C19A O18A 1_555 1_555
C24A C26A 1_555 1_555
C30A N1A 1_555 1_555
C30A N2A 1_555 1_555
C31A N2A 1_555 1_555
C35A N3A 1_555 1_555
C37A N3A 1_555 1_555
C37A N4A 1_555 1_555
Mn1A O1A 1_555 1_555
Mn1A O17A 1_555 1_555
Mn1A O11A_2 1_555 1_555
Mn2A O2A 1_555 1_555
Mn2A O4A 1_555 1_555
Mn2A O19A 1_555 1_555
Mn2A O11_2 1_555 1_555
Mn3A O9A 1_555 1_555
Mn3A O19A 1_555 1_555
Mn3A O21A 1_555 1_555
O5A Mn4_2 1_555 1_555
O13A Mn1A_2 1_555 1_555
O21A Mn3_2 1_555 1_555
O22A Mn4A_2 1_555 1_555
Mn3_2 O21_2 1_555 1_555
Mn3A_2 O21A_2 1_555 1_555

#END
