
#######################################################################
#
#                 Cambridge Crystallographic Data Centre
#                                CCDC 
#
#######################################################################
#
# If this CIF has been generated from an entry in the Cambridge 
# Structural Database, then it will include bibliographic, chemical, 
# crystal, experimental, refinement or atomic coordinate data resulting 
# from the CCDC's data processing and validation procedures.
#
#######################################################################

data_UFUKOX
_symmetry_cell_setting           monoclinic
_symmetry_space_group_name_H-M   'P 21/c'
_symmetry_Int_Tables_number      14
_space_group_name_Hall           '-P 2ybc'
loop_
_symmetry_equiv_pos_site_id
_symmetry_equiv_pos_as_xyz
1 x,y,z
2 -x,1/2+y,1/2-z
3 -x,-y,-z
4 x,1/2-y,1/2+z
_cell_length_a                   21.2387(10)
_cell_length_b                   16.0539(8)
_cell_length_c                   14.6979(7)
_cell_angle_alpha                90
_cell_angle_beta                 108.8370(10)
_cell_angle_gamma                90
_cell_volume                     4743.05
loop_
_atom_site_label
_atom_site_type_symbol
_atom_site_fract_x
_atom_site_fract_y
_atom_site_fract_z
Mn1 Mn 0.259095(19) -0.00022(2) 0.78058(3)
Mn2 Mn 0.40519(2) -0.14198(3) 0.89055(3)
Mn3 Mn 0.36966(2) 0.11601(3) 1.24836(3)
O1 O 0.25211(10) -0.04366(12) 0.91648(14)
O2 O 0.34016(10) -0.12678(13) 0.97392(15)
O3 O 0.38664(10) -0.14640(13) 1.18340(15)
O4 O 0.38214(10) -0.27299(12) 1.11943(15)
O5 O 0.33169(10) -0.29814(13) 1.27692(15)
O6 O 0.24143(11) -0.37791(13) 1.22431(17)
O7 O 0.40439(9) 0.20714(11) 1.16253(13)
O8 O 0.42833(9) 0.28232(12) 1.05118(14)
O9 O 0.27519(10) 0.12258(12) 0.83730(14)
O10 O 0.36167(9) 0.11228(12) 0.97113(14)
O11 O 0.08511(14) 0.3721(2) 0.9158(3)
O12 O 0.08451(13) 0.2766(2) 0.8138(2)
O13 O 0.27683(11) 0.45517(13) 1.15527(14)
O14 O 0.37625(11) 0.39769(14) 1.18466(16)
O15 O 0.37808(9) -0.00612(11) 0.84195(14)
O16 O 0.04025(11) -0.22566(15) 1.05287(19)
O17 O 0.04189(11) -0.16172(15) 0.92363(17)
O18 O 0.46235(9) -0.15948(13) 0.79142(14)
O19 O 0.39037(12) 0.21688(14) 1.35151(16)
O20 O 0.43028(12) -0.25943(14) 0.96665(16)
O21 O 0.47330(11) 0.06999(15) 1.32488(18)
O22 O 0.36939(13) 0.02238(13) 1.13901(16)
O23 O 0.49278(13) -0.09009(18) 0.99481(17)
N1 N 0.15051(12) 0.01808(15) 0.72898(18)
N2 N 0.26102(12) 0.13206(16) 1.16598(18)
N3 N 0.16270(12) 0.11433(16) 1.05701(19)
N4 N -0.30176(12) 0.07937(15) 0.60177(19)
N5 N -0.34308(13) -0.03043(16) 0.65195(18)
N6 N 0.05195(12) 0.06723(18) 0.6482(2)
N7 N 0.11310(14) 0.3188(2) 0.8834(2)
N8 N 0.06987(12) -0.19350(16) 1.0021(2)
C1 C 0.28301(14) -0.10257(16) 0.96743(19)
C2 C 0.24695(13) -0.15027(16) 1.02419(19)
C3 C 0.28050(13) -0.20260(16) 1.10123(19)
C4 C 0.24306(13) -0.25328(16) 1.14265(19)
C5 C 0.17458(13) -0.24991(17) 1.1100(2)
H1 H 0.1499 -0.2841 1.1368
C6 C 0.14300(13) -0.19516(17) 1.0369(2)
C7 C 0.17796(14) -0.14596(17) 0.9935(2)
H2 H 0.1556 -0.1101 0.9439
C8 C 0.35612(14) -0.20748(17) 1.13726(19)
C9 C 0.27540(14) -0.31531(17) 1.2210(2)
C10 C -0.30190(15) 0.0332(2) 0.6773(2)
H3 H -0.2760 0.0445 0.7403
C11 C -0.37080(17) -0.0236(2) 0.5537(2)
H4 H -0.4021 -0.0600 0.5148
C12 C -0.34586(16) 0.0433(2) 0.5224(2)
H5 H -0.3565 0.0615 0.4592
C13 C -0.26211(16) 0.15450(19) 0.6050(3)
H6 H -0.2849 0.1894 0.5505
H7 H -0.2593 0.1854 0.6629
C14 C -0.19267(15) 0.13766(18) 0.6035(2)
C15 C -0.13875(18) 0.1746(2) 0.6707(3)
H8 H -0.1452 0.2053 0.7206
C16 C -0.07539(18) 0.1667(3) 0.6649(3)
H9 H -0.0398 0.1925 0.7107
C17 C -0.06435(16) 0.1213(2) 0.5927(3)
C18 C -0.11785(17) 0.0816(2) 0.5271(3)
H10 H -0.1110 0.0493 0.4786
C19 C -0.18137(15) 0.08949(19) 0.5328(2)
H11 H -0.2167 0.0620 0.4886
C20 C 0.22632(14) 0.09079(19) 1.0880(2)
H12 H 0.2442 0.0502 1.0584
C21 C 0.15561(17) 0.1749(2) 1.1181(3)
H13 H 0.1168 0.2033 1.1149
C22 C 0.21627(17) 0.1852(2) 1.1840(3)
H14 H 0.2262 0.2231 1.2345
C23 C 0.11222(16) 0.0852(2) 0.9695(2)
H15 H 0.1329 0.0474 0.9361
H16 H 0.0954 0.1325 0.9277
C24 C 0.05434(15) 0.04112(19) 0.9878(2)
C25 C -0.00540(15) 0.0368(2) 0.9134(2)
H17 H -0.0093 0.0615 0.8546
C26 C 0.05907(15) 0.0039(2) 1.0739(2)
H18 H 0.0990 0.0061 1.1243
C27 C 0.11747(15) 0.0804(2) 0.6777(2)
H19 H 0.1374 0.1282 0.6636
C28 C 0.04191(16) -0.0092(2) 0.6820(3)
H20 H 0.0013 -0.0355 0.6726
C29 C 0.10220(16) -0.0385(2) 0.7313(2)
H21 H 0.1104 -0.0897 0.7626
C30 C 0.30865(14) 0.14604(16) 0.9205(2)
C31 C 0.28000(13) 0.21984(16) 0.95794(19)
C32 C 0.21370(13) 0.23690(18) 0.9086(2)
H22 H 0.1900 0.2032 0.8576
C33 C 0.18335(14) 0.30344(19) 0.9350(2)
C34 C 0.21736(14) 0.35536(18) 1.0092(2)
H23 H 0.1959 0.4010 1.0249
C35 C 0.28341(13) 0.33981(17) 1.06042(19)
C36 C 0.31571(13) 0.27037(16) 1.03624(19)
C37 C 0.38822(13) 0.25197(16) 1.08786(19)
C38 C 0.31592(15) 0.40138(18) 1.1406(2)
C39 C 0.00259(17) 0.1205(3) 0.5784(3)
H24 H -0.0027 0.1010 0.5139
H25 H 0.0195 0.1770 0.5837
H26 H 0.3828 0.2475 1.3929
H27 H 0.4159 0.2429 1.3268
H28 H 0.4143 -0.3059 0.9802
H29 H 0.4727 -0.2655 0.9880
H30 H 0.3598 -0.0308 1.1294
H31 H 0.3587 0.0432 1.0820
H32 H 0.5317 -0.0847 0.9890
H33 H 0.4975 -0.0868 1.0538
H34 H 0.4989 -0.1844 0.8079
H35 H 0.4421 -0.1899 0.7443
H36 H 0.5052 0.0776 1.3037
H37 H 0.4820 0.0198 1.3417
N2B N -0.26102(12) -0.13206(16) 0.83402(18)
N3B N -0.16270(12) -0.11433(16) 0.94299(19)
C20B C -0.22632(14) -0.09079(19) 0.9120(2)
H12B H -0.2442 -0.0502 0.9416
C21B C -0.15561(17) -0.1749(2) 0.8819(3)
H13B H -0.1168 -0.2033 0.8851
C22B C -0.21627(17) -0.1852(2) 0.8160(3)
H14B H -0.2262 -0.2231 0.7655
C23B C -0.11222(16) -0.0852(2) 1.0305(2)
H15B H -0.1329 -0.0474 1.0639
H16B H -0.0954 -0.1325 1.0723
C24B C -0.05434(15) -0.04112(19) 1.0122(2)
C25B C 0.00540(15) -0.0368(2) 1.0866(2)
H17B H 0.0093 -0.0615 1.1454
C26B C -0.05907(15) -0.0039(2) 0.9261(2)
H18B H -0.0990 -0.0061 0.8757
Mn1B Mn -0.259095(19) 0.00022(2) 1.21942(3)
Mn2B Mn -0.40519(2) 0.14198(3) 1.10945(3)
Mn3B Mn -0.36966(2) -0.11601(3) 0.75164(3)
O1B O -0.25211(10) 0.04366(12) 1.08352(14)
O2B O -0.34016(10) 0.12678(13) 1.02608(15)
O3B O -0.38664(10) 0.14640(13) 0.81660(15)
O4B O -0.38214(10) 0.27299(12) 0.88057(15)
O5B O -0.33169(10) 0.29814(13) 0.72308(15)
O6B O -0.24143(11) 0.37791(13) 0.77569(17)
O7B O -0.40439(9) -0.20714(11) 0.83747(13)
O8B O -0.42833(9) -0.28232(12) 0.94882(14)
O9B O -0.27519(10) -0.12258(12) 1.16270(14)
O10B O -0.36167(9) -0.11228(12) 1.02887(14)
O11B O -0.08511(14) -0.3721(2) 1.0842(3)
O12B O -0.08451(13) -0.2766(2) 1.1862(2)
O13B O -0.27683(11) -0.45517(13) 0.84473(14)
O14B O -0.37625(11) -0.39769(14) 0.81534(16)
O15B O -0.37808(9) 0.00612(11) 1.15805(14)
O16B O -0.04025(11) 0.22566(15) 0.94713(19)
O17B O -0.04189(11) 0.16172(15) 1.07637(17)
O18B O -0.46235(9) 0.15948(13) 1.20858(14)
O19B O -0.39037(12) -0.21688(14) 0.64849(16)
O20B O -0.43028(12) 0.25943(14) 1.03335(16)
O21B O -0.47330(11) -0.06999(15) 0.67512(18)
O22B O -0.36939(13) -0.02238(13) 0.86099(16)
O23B O -0.49278(13) 0.09009(18) 1.00519(17)
N1B N -0.15051(12) -0.01808(15) 1.27102(18)
N4B N 0.30176(12) -0.07937(15) 1.39823(19)
N5B N 0.34308(13) 0.03043(16) 1.34805(18)
N6B N -0.05195(12) -0.06723(18) 1.3518(2)
N7B N -0.11310(14) -0.3188(2) 1.1166(2)
N8B N -0.06987(12) 0.19350(16) 0.9979(2)
C1B C -0.28301(14) 0.10257(16) 1.03257(19)
C2B C -0.24695(13) 0.15027(16) 0.97581(19)
C3B C -0.28050(13) 0.20260(16) 0.89877(19)
C4B C -0.24306(13) 0.25328(16) 0.85735(19)
C5B C -0.17458(13) 0.24991(17) 0.8900(2)
H1B H -0.1499 0.2841 0.8632
C6B C -0.14300(13) 0.19516(17) 0.9631(2)
C7B C -0.17796(14) 0.14596(17) 1.0065(2)
H2B H -0.1556 0.1101 1.0561
C8B C -0.35612(14) 0.20748(17) 0.86274(19)
C9B C -0.27540(14) 0.31531(17) 0.7790(2)
C10B C 0.30190(15) -0.0332(2) 1.3227(2)
H3B H 0.2760 -0.0445 1.2597
C11B C 0.37080(17) 0.0236(2) 1.4463(2)
H4B H 0.4021 0.0600 1.4852
C12B C 0.34586(16) -0.0433(2) 1.4776(2)
H5B H 0.3565 -0.0615 1.5408
C13B C 0.26211(16) -0.15450(19) 1.3950(3)
H6B H 0.2849 -0.1894 1.4495
H7B H 0.2593 -0.1854 1.3371
C14B C 0.19267(15) -0.13766(18) 1.3965(2)
C15B C 0.13875(18) -0.1746(2) 1.3293(3)
H8B H 0.1452 -0.2053 1.2794
C16B C 0.07539(18) -0.1667(3) 1.3351(3)
H9B H 0.0398 -0.1925 1.2893
C17B C 0.06435(16) -0.1213(2) 1.4073(3)
C18B C 0.11785(17) -0.0816(2) 1.4729(3)
H10B H 0.1110 -0.0493 1.5214
C19B C 0.18137(15) -0.08949(19) 1.4672(2)
H11B H 0.2167 -0.0620 1.5114
C27B C -0.11747(15) -0.0804(2) 1.3223(2)
H19B H -0.1374 -0.1282 1.3364
C28B C -0.04191(16) 0.0092(2) 1.3180(3)
H20B H -0.0013 0.0355 1.3274
C29B C -0.10220(16) 0.0385(2) 1.2687(2)
H21B H -0.1104 0.0897 1.2374
C30B C -0.30865(14) -0.14604(16) 1.0795(2)
C31B C -0.28000(13) -0.21984(16) 1.04206(19)
C32B C -0.21370(13) -0.23690(18) 1.0914(2)
H22B H -0.1900 -0.2032 1.1424
C33B C -0.18335(14) -0.30344(19) 1.0650(2)
C34B C -0.21736(14) -0.35536(18) 0.9908(2)
H23B H -0.1959 -0.4010 0.9751
C35B C -0.28341(13) -0.33981(17) 0.93958(19)
C36B C -0.31571(13) -0.27037(16) 0.96376(19)
C37B C -0.38822(13) -0.25197(16) 0.91214(19)
C38B C -0.31592(15) -0.40138(18) 0.8594(2)
C39B C -0.00259(17) -0.1205(3) 1.4216(3)
H24B H 0.0027 -0.1010 1.4861
H25B H -0.0195 -0.1770 1.4163
H26B H -0.3828 -0.2475 0.6071
H27B H -0.4159 -0.2429 0.6732
H28B H -0.4143 0.3059 1.0198
H29B H -0.4727 0.2655 1.0120
H30B H -0.3598 0.0308 0.8706
H31B H -0.3587 -0.0432 0.9180
H32B H -0.5317 0.0847 1.0110
H33B H -0.4975 0.0868 0.9462
H34B H -0.4989 0.1844 1.1921
H35B H -0.4421 0.1899 1.2557
H36B H -0.5052 -0.0776 0.6963
H37B H -0.4820 -0.0198 0.6583
Mn1A Mn -0.259095(19) -0.50022(2) 0.71942(3)
Mn1A_2 Mn -0.259095(19) 0.49978(2) 0.71942(3)
Mn1C Mn 0.259095(19) -0.49978(2) 1.28058(3)
Mn1C_2 Mn 0.259095(19) 0.50022(2) 1.28058(3)
Mn2A Mn -0.40519(2) 0.35802(3) 0.60945(3)
Mn2C Mn 0.40519(2) -0.35802(3) 1.39055(3)
O5A O -0.33169(10) 0.20186(13) 1.22308(15)
O5C O 0.33169(10) -0.20186(13) 0.77692(15)
O6A O -0.24143(11) 0.12209(13) 1.27569(17)
O6C O 0.24143(11) -0.12209(13) 0.72431(17)
O13A O -0.27683(11) -0.04483(13) 1.34473(14)
O13C O 0.27683(11) 0.04483(13) 0.65527(14)
O24 O 0.51791(11) 0.84063(15) 0.16845(16)
H38 H 0.5421 0.8608 0.2214
H39 H 0.4825 0.8395 0.1836
O25 O 0.52782(12) 0.10094(15) 0.63394(17)
H40 H 0.5504 0.1241 0.6857
H41 H 0.4940 0.1314 0.6231
loop_
_geom_bond_atom_site_label_1
_geom_bond_atom_site_label_2
_geom_bond_site_symmetry_1
_geom_bond_site_symmetry_2
Mn1 O1 1_555 1_555
Mn2 O2 1_555 1_555
Mn3 O7 1_555 1_555
O1 C1 1_555 1_555
O2 C1 1_555 1_555
O3 C8 1_555 1_555
O4 C8 1_555 1_555
O5 C9 1_555 1_555
O6 C9 1_555 1_555
O7 C37 1_555 1_555
O8 C37 1_555 1_555
O9 Mn1 1_555 1_555
O10 C30 1_555 1_555
O11 N7 1_555 1_555
O12 N7 1_555 1_555
O13 C38 1_555 1_555
O14 C38 1_555 1_555
O15 Mn1 1_555 1_555
O16 N8 1_555 1_555
O17 N8 1_555 1_555
O18 Mn2 1_555 1_555
O19 Mn3 1_555 1_555
O20 Mn2 1_555 1_555
O21 Mn3 1_555 1_555
O22 Mn3 1_555 1_555
O23 Mn2 1_555 1_555
N1 Mn1 1_555 1_555
N2 Mn3 1_555 1_555
N3 C20 1_555 1_555
N4 C10 1_555 1_555
N5 C10 1_555 1_555
N6 C27 1_555 1_555
N7 C33 1_555 1_555
N8 C6 1_555 1_555
C1 C2 1_555 1_555
C2 C3 1_555 1_555
C3 C4 1_555 1_555
C4 C5 1_555 1_555
C5 H1 1_555 1_555
C6 C5 1_555 1_555
C7 C2 1_555 1_555
H2 C7 1_555 1_555
C8 C3 1_555 1_555
C9 C4 1_555 1_555
C10 H3 1_555 1_555
C11 N5 1_555 1_555
H4 C11 1_555 1_555
C12 N4 1_555 1_555
H5 C12 1_555 1_555
C13 N4 1_555 1_555
H6 C13 1_555 1_555
H7 C13 1_555 1_555
C14 C13 1_555 1_555
C15 C14 1_555 1_555
H8 C15 1_555 1_555
C16 C15 1_555 1_555
H9 C16 1_555 1_555
C17 C16 1_555 1_555
C18 C17 1_555 1_555
H10 C18 1_555 1_555
C19 C14 1_555 1_555
H11 C19 1_555 1_555
C20 N2 1_555 1_555
H12 C20 1_555 1_555
C21 N3 1_555 1_555
H13 C21 1_555 1_555
C22 N2 1_555 1_555
H14 C22 1_555 1_555
C23 N3 1_555 1_555
H15 C23 1_555 1_555
H16 C23 1_555 1_555
C24 C23 1_555 1_555
C25 C24 1_555 1_555
H17 C25 1_555 1_555
C26 C24 1_555 1_555
H18 C26 1_555 1_555
C27 N1 1_555 1_555
H19 C27 1_555 1_555
C28 N6 1_555 1_555
H20 C28 1_555 1_555
C29 N1 1_555 1_555
H21 C29 1_555 1_555
C30 O9 1_555 1_555
C31 C30 1_555 1_555
C32 C31 1_555 1_555
H22 C32 1_555 1_555
C33 C32 1_555 1_555
C34 C33 1_555 1_555
H23 C34 1_555 1_555
C35 C34 1_555 1_555
C36 C31 1_555 1_555
C37 C36 1_555 1_555
C38 C35 1_555 1_555
C39 N6 1_555 1_555
H24 C39 1_555 1_555
H25 C39 1_555 1_555
H26 O19 1_555 1_555
H27 O19 1_555 1_555
H28 O20 1_555 1_555
H29 O20 1_555 1_555
H30 O22 1_555 1_555
H31 O22 1_555 1_555
H32 O23 1_555 1_555
H33 O23 1_555 1_555
H34 O18 1_555 1_555
H35 O18 1_555 1_555
H36 O21 1_555 1_555
H37 O21 1_555 1_555
O24 H38 1_555 1_555
H39 O24 1_555 1_555
O25 H40 1_555 1_555
H41 O25 1_555 1_555
N2B C20B 1_555 1_555
N3B C20B 1_555 1_555
C20B H12B 1_555 1_555
C21B N3B 1_555 1_555
H13B C21B 1_555 1_555
C22B N2B 1_555 1_555
H14B C22B 1_555 1_555
C23B N3B 1_555 1_555
H15B C23B 1_555 1_555
H16B C23B 1_555 1_555
C24B C23B 1_555 1_555
C25B C26 1_555 1_555
H17B C25B 1_555 1_555
C26B C25 1_555 1_555
H18B C26B 1_555 1_555
Mn1B O1B 1_555 1_555
Mn2B O2B 1_555 1_555
Mn3B N5 1_555 1_555
O1B C1B 1_555 1_555
O2B C1B 1_555 1_555
O3B C8B 1_555 1_555
O4B C8B 1_555 1_555
O5B C9B 1_555 1_555
O6B C9B 1_555 1_555
O7B Mn3B 1_555 1_555
O8B C37B 1_555 1_555
O9B Mn1B 1_555 1_555
O10B C30B 1_555 1_555
O11B N7B 1_555 1_555
O12B N7B 1_555 1_555
O13B C38B 1_555 1_555
O14B C38B 1_555 1_555
O15B Mn1B 1_555 1_555
O16B N8B 1_555 1_555
O17B N8B 1_555 1_555
O18B Mn2B 1_555 1_555
O19B Mn3B 1_555 1_555
O20B Mn2B 1_555 1_555
O21B Mn3B 1_555 1_555
O22B Mn3B 1_555 1_555
O23B Mn2B 1_555 1_555
N1B Mn1B 1_555 1_555
N4B C10B 1_555 1_555
N5B Mn3 1_555 1_555
N6B C27B 1_555 1_555
N7B C33B 1_555 1_555
N8B C6B 1_555 1_555
C1B C2B 1_555 1_555
C2B C3B 1_555 1_555
C3B C4B 1_555 1_555
C4B C5B 1_555 1_555
C5B H1B 1_555 1_555
C6B C5B 1_555 1_555
C7B C2B 1_555 1_555
H2B C7B 1_555 1_555
C8B C3B 1_555 1_555
C9B C4B 1_555 1_555
C10B N5B 1_555 1_555
H3B C10B 1_555 1_555
C11B N5B 1_555 1_555
H4B C11B 1_555 1_555
C12B N4B 1_555 1_555
H5B C12B 1_555 1_555
C13B N4B 1_555 1_555
H6B C13B 1_555 1_555
H7B C13B 1_555 1_555
C14B C13B 1_555 1_555
C15B C14B 1_555 1_555
H8B C15B 1_555 1_555
C16B C15B 1_555 1_555
H9B C16B 1_555 1_555
C17B C16B 1_555 1_555
C18B C17B 1_555 1_555
H10B C18B 1_555 1_555
C19B C14B 1_555 1_555
H11B C19B 1_555 1_555
C27B N1B 1_555 1_555
H19B C27B 1_555 1_555
C28B N6B 1_555 1_555
H20B C28B 1_555 1_555
C29B N1B 1_555 1_555
H21B C29B 1_555 1_555
C30B O9B 1_555 1_555
C31B C30B 1_555 1_555
C32B C31B 1_555 1_555
H22B C32B 1_555 1_555
C33B C32B 1_555 1_555
C34B C33B 1_555 1_555
H23B C34B 1_555 1_555
C35B C34B 1_555 1_555
C36B C31B 1_555 1_555
C37B O7B 1_555 1_555
C38B C35B 1_555 1_555
C39B N6B 1_555 1_555
H24B C39B 1_555 1_555
H25B C39B 1_555 1_555
H26B O19B 1_555 1_555
H27B O19B 1_555 1_555
H28B O20B 1_555 1_555
H29B O20B 1_555 1_555
H30B O22B 1_555 1_555
H31B O22B 1_555 1_555
H32B O23B 1_555 1_555
H33B O23B 1_555 1_555
H34B O18B 1_555 1_555
H35B O18B 1_555 1_555
H36B O21B 1_555 1_555
H37B O21B 1_555 1_555
Mn1A O13B 1_555 1_555
Mn1A_2 O6B 1_555 1_555
Mn1C O6 1_555 1_555
Mn1C_2 O13 1_555 1_555
Mn2A O5B 1_555 1_555
Mn2C O5 1_555 1_555
O5A Mn2B 1_555 1_555
O5C Mn2 1_555 1_555
O6A Mn1B 1_555 1_555
O6C Mn1 1_555 1_555
O13A Mn1B 1_555 1_555
O13C Mn1 1_555 1_555
Mn2 O15 1_555 1_555
C6 C7 1_555 1_555
C11 C12 1_555 1_555
C17 C39 1_555 1_555
C18 C19 1_555 1_555
C21 C22 1_555 1_555
C28 C29 1_555 1_555
C35 C36 1_555 1_555
N2B Mn3B 1_555 1_555
C21B C22B 1_555 1_555
C24B C25B 1_555 1_555
C24B C26B 1_555 1_555
Mn2B O15B 1_555 1_555
C6B C7B 1_555 1_555
C11B C12B 1_555 1_555
C17B C39B 1_555 1_555
C18B C19B 1_555 1_555
C28B C29B 1_555 1_555
C35B C36B 1_555 1_555
C36B C37B 1_555 1_555

#END
