
#######################################################################
#
#                 Cambridge Crystallographic Data Centre
#                                CCDC 
#
#######################################################################
#
# If this CIF has been generated from an entry in the Cambridge 
# Structural Database, then it will include bibliographic, chemical, 
# crystal, experimental, refinement or atomic coordinate data resulting 
# from the CCDC's data processing and validation procedures.
#
#######################################################################

data_UFUKIQ
_symmetry_cell_setting           monoclinic
_symmetry_space_group_name_H-M   'P 21/n'
_symmetry_Int_Tables_number      14
_space_group_name_Hall           '-P 2yn'
loop_
_symmetry_equiv_pos_site_id
_symmetry_equiv_pos_as_xyz
1 x,y,z
2 1/2-x,1/2+y,1/2-z
3 -x,-y,-z
4 1/2+x,1/2-y,1/2+z
_cell_length_a                   7.9584(5)
_cell_length_b                   31.7860(19)
_cell_length_c                   14.8492(9)
_cell_angle_alpha                90
_cell_angle_beta                 99.204(2)
_cell_angle_gamma                90
_cell_volume                     3707.98
loop_
_atom_site_label
_atom_site_type_symbol
_atom_site_fract_x
_atom_site_fract_y
_atom_site_fract_z
S1 S 0.1440(5) -0.28359(12) 0.0561(2)
F1 F -0.1649(17) -0.2647(3) 0.0725(12)
F2 F -0.0419(16) -0.2187(3) 0.0028(9)
F3 F 0.030(2) -0.2244(3) 0.1482(10)
O3 O 0.0822(15) -0.3034(3) -0.0289(7)
O4 O 0.2888(13) -0.2572(4) 0.0531(6)
O5 O 0.1580(11) -0.3104(3) 0.1330(5)
C39 C -0.017(3) -0.2459(5) 0.0736(19)
C40 C 0.669(3) -0.0076(7) 0.5022(14)
C42 C 0.554(5) -0.0772(9) 0.494(2)
H32 H 0.4582 -0.0949 0.4935
C43 C 0.709(5) -0.0961(10) 0.488(3)
H33 H 0.7190 -0.1258 0.4833
C44 C 0.850(5) -0.0698(12) 0.487(3)
H34 H 0.9592 -0.0807 0.4820
C45 C 0.822(4) -0.0265(12) 0.496(3)
H35 H 0.9176 -0.0085 0.4976
Sn1 Sn 0.0000 0.0000 0.0000
Ag1 Ag 0.31587(10) 0.11900(2) -0.15107(5)
O1 O 0.2539(7) 0.01454(19) 0.0306(4)
O2 O 0.5961(11) 0.2383(3) 0.1014(6)
H1 H 0.6286 0.2448 0.0521
N1 N 0.0200(9) 0.0057(2) -0.1375(5)
N2 N -0.0628(9) 0.0640(2) 0.0042(5)
N3 N 0.0604(11) 0.1340(2) -0.2434(5)
N4 N 0.5494(9) -0.0571(2) 0.1653(5)
N5 N 0.3765(10) 0.1470(3) -0.0075(5)
N6 N 0.4463(14) 0.1816(3) -0.2171(6)
C1 C 0.0563(10) -0.0268(3) -0.1939(6)
C2 C 0.0438(12) -0.0105(3) -0.2846(6)
H2 H 0.0614 -0.0258 -0.3373
C3 C 0.0025(12) 0.0307(3) -0.2815(6)
H3 H -0.0143 0.0494 -0.3319
C4 C -0.0115(10) 0.0410(3) -0.1903(6)
C5 C -0.0567(11) 0.0807(3) -0.1584(6)
C6 C -0.0842(11) 0.0910(3) -0.0700(6)
C7 C -0.1387(12) 0.1309(3) -0.0402(7)
H4 H -0.1624 0.1554 -0.0767
C8 C -0.1503(12) 0.1274(3) 0.0498(7)
H5 H -0.1838 0.1490 0.0873
C9 C -0.1033(11) 0.0853(3) 0.0785(6)
C10 C 0.0940(12) -0.0685(3) -0.1657(6)
C11 C -0.0804(12) 0.1144(3) -0.2295(6)
C12 C -0.2368(14) 0.1244(4) -0.2771(8)
H6 H -0.3357 0.1105 -0.2639
C13 C -0.2508(16) 0.1548(4) -0.3445(8)
H7 H -0.3585 0.1616 -0.3788
C14 C -0.1099(16) 0.1744(4) -0.3604(8)
H8 H -0.1157 0.1955 -0.4062
C15 C 0.0460(15) 0.1634(4) -0.3085(7)
H9 H 0.1459 0.1774 -0.3199
C16 C 0.1364(13) -0.0972(3) -0.2398(7)
C17 C 0.304(2) -0.1065(9) -0.2442(18)
H10 H 0.3923 -0.0964 -0.1987
C19 C 0.343(4) -0.1310(10) -0.317(2)
H12 H 0.4572 -0.1381 -0.3213
C21 C 0.209(4) -0.1443(13) -0.381(3)
H14 H 0.2346 -0.1607 -0.4310
C23 C 0.041(4) -0.1353(10) -0.3775(18)
H16 H -0.0467 -0.1449 -0.4241
C25 C 0.001(2) -0.1117(9) -0.3039(14)
H18 H -0.1140 -0.1058 -0.2979
C27 C 0.3570(11) -0.0024(3) 0.1036(6)
C28 C 0.3743(13) 0.0167(4) 0.1878(7)
H20 H 0.3180 0.0425 0.1955
C29 C 0.4760(14) -0.0025(4) 0.2617(7)
H21 H 0.4854 0.0093 0.3211
C30 C 0.5622(12) -0.0385(4) 0.2474(7)
H22 H 0.6341 -0.0509 0.2977
C31 C 0.4479(11) -0.0381(3) 0.0956(6)
H23 H 0.4392 -0.0506 0.0369
C32 C 0.3090(15) 0.1319(4) 0.0631(8)
H24 H 0.2434 0.1068 0.0551
C33 C 0.332(2) 0.1516(6) 0.1466(9)
H25 H 0.2801 0.1404 0.1948
C34 C 0.429(2) 0.1872(5) 0.1605(9)
H26 H 0.4489 0.2005 0.2185
C35 C 0.4953(14) 0.2032(4) 0.0885(7)
C36 C 0.4664(11) 0.1826(3) 0.0059(6)
H27 H 0.5124 0.1943 -0.0438
C37 C 0.4724(17) 0.2139(4) -0.2414(8)
C38 C 0.500(2) 0.2567(5) -0.2743(10)
H28 H 0.4919 0.2771 -0.2257
H29 H 0.6138 0.2584 -0.2918
H30 H 0.4139 0.2631 -0.3273
Ag1B Ag -0.31587(10) -0.11900(2) 0.15107(5)
Ag1B_2 Ag 0.68413(10) -0.11900(2) 0.15107(5)
Ag1_2 Ag -0.68413(10) 0.11900(2) -0.15107(5)
O1B O -0.2539(7) -0.01454(19) -0.0306(4)
O2B O -0.5961(11) -0.2383(3) -0.1014(6)
H1B H -0.6286 -0.2448 -0.0521
N1B N -0.0200(9) -0.0057(2) 0.1375(5)
N2B N 0.0628(9) -0.0640(2) -0.0042(5)
N3B N -0.0604(11) -0.1340(2) 0.2434(5)
N4B N -0.5494(9) 0.0571(2) -0.1653(5)
N4B_2 N 0.4506(9) 0.0571(2) -0.1653(5)
N4_2 N -0.4506(9) -0.0571(2) 0.1653(5)
N5B N -0.3765(10) -0.1470(3) 0.0075(5)
N6B N -0.4463(14) -0.1816(3) 0.2171(6)
C1B C -0.0563(10) 0.0268(3) 0.1939(6)
C2B C -0.0438(12) 0.0105(3) 0.2846(6)
H2B H -0.0614 0.0258 0.3373
C3B C -0.0025(12) -0.0307(3) 0.2815(6)
H3B H 0.0143 -0.0494 0.3319
C4B C 0.0115(10) -0.0410(3) 0.1903(6)
C5B C 0.0567(11) -0.0807(3) 0.1584(6)
C6B C 0.0842(11) -0.0910(3) 0.0700(6)
C7B C 0.1387(12) -0.1309(3) 0.0402(7)
H4B H 0.1624 -0.1554 0.0767
C8B C 0.1503(12) -0.1274(3) -0.0498(7)
H5B H 0.1838 -0.1490 -0.0873
C9B C 0.1033(11) -0.0853(3) -0.0785(6)
C10B C -0.0940(12) 0.0685(3) 0.1657(6)
C11B C 0.0804(12) -0.1144(3) 0.2295(6)
C12B C 0.2368(14) -0.1244(4) 0.2771(8)
H6B H 0.3357 -0.1105 0.2639
C13B C 0.2508(16) -0.1548(4) 0.3445(8)
H7B H 0.3585 -0.1616 0.3788
C14B C 0.1099(16) -0.1744(4) 0.3604(8)
H8B H 0.1157 -0.1955 0.4062
C15B C -0.0460(15) -0.1634(4) 0.3085(7)
H9B H -0.1459 -0.1774 0.3199
C16B C -0.1364(13) 0.0972(3) 0.2398(7)
C17B C -0.304(2) 0.1065(9) 0.2442(18)
H10B H -0.3923 0.0964 0.1987
C19B C -0.343(4) 0.1310(10) 0.317(2)
H12B H -0.4572 0.1381 0.3213
C21B C -0.209(4) 0.1443(13) 0.381(3)
H14B H -0.2346 0.1607 0.4310
C23B C -0.041(4) 0.1353(10) 0.3775(18)
H16B H 0.0467 0.1449 0.4241
C25B C -0.001(2) 0.1117(9) 0.3039(14)
H18B H 0.1140 0.1058 0.2979
C27B C -0.3570(11) 0.0024(3) -0.1036(6)
C28B C -0.3743(13) -0.0167(4) -0.1878(7)
H20B H -0.3180 -0.0425 -0.1955
C29B C -0.4760(14) 0.0025(4) -0.2617(7)
H21B H -0.4854 -0.0093 -0.3211
C30B C -0.5622(12) 0.0385(4) -0.2474(7)
H22B H -0.6341 0.0509 -0.2977
C31B C -0.4479(11) 0.0381(3) -0.0956(6)
H23B H -0.4392 0.0506 -0.0369
C32B C -0.3090(15) -0.1319(4) -0.0631(8)
H24B H -0.2434 -0.1068 -0.0551
C33B C -0.332(2) -0.1516(6) -0.1466(9)
H25B H -0.2801 -0.1404 -0.1948
C34B C -0.429(2) -0.1872(5) -0.1605(9)
H26B H -0.4489 -0.2005 -0.2185
C35B C -0.4953(14) -0.2032(4) -0.0885(7)
C36B C -0.4664(11) -0.1826(3) -0.0059(6)
H27B H -0.5124 -0.1943 0.0438
C37B C -0.4724(17) -0.2139(4) 0.2414(8)
C38B C -0.500(2) -0.2567(5) 0.2743(10)
H28B H -0.4919 -0.2771 0.2257
H29B H -0.6138 -0.2584 0.2918
H30B H -0.4139 -0.2631 0.3273
C18? C -0.287(3) 0.0893(11) 0.275(2)
H11? H -0.3589 0.0667 0.2511
C20? C -0.334(4) 0.1141(11) 0.345(2)
H13? H -0.4328 0.1074 0.3700
C22? C -0.235(5) 0.1487(16) 0.377(3)
H15? H -0.2718 0.1666 0.4215
C24? C -0.084(4) 0.1573(11) 0.345(2)
H17? H -0.0093 0.1787 0.3721
C26? C -0.044(4) 0.1334(9) 0.272(2)
H19? H 0.0482 0.1420 0.2434
C41? C 0.530(3) -0.0344(9) 0.5008(19)
H31? H 0.4206 -0.0233 0.5045
C46? C 0.626(4) 0.0356(9) 0.508(2)
H36? H 0.6878 0.0521 0.4680
H37? H 0.6572 0.0453 0.5709
H38? H 0.5031 0.0392 0.4884
loop_
_geom_bond_atom_site_label_1
_geom_bond_atom_site_label_2
_geom_bond_site_symmetry_1
_geom_bond_site_symmetry_2
Sn1 O1 1_555 1_555
Ag1 N3 1_555 1_555
S1 O3 1_555 1_555
F1 C39 1_555 1_555
F2 C39 1_555 1_555
F3 C39 1_555 1_555
O1 C27 1_555 1_555
O2 H1 1_555 1_555
O4 S1 1_555 1_555
O5 S1 1_555 1_555
N1 Sn1 1_555 1_555
N2 Sn1 1_555 1_555
N3 C11 1_555 1_555
N4 C30 1_555 1_555
N5 Ag1 1_555 1_555
N6 Ag1 1_555 1_555
C1 N1 1_555 1_555
C2 C1 1_555 1_555
H2 C2 1_555 1_555
C3 C2 1_555 1_555
H3 C3 1_555 1_555
C4 N1 1_555 1_555
C5 C4 1_555 1_555
C6 N2 1_555 1_555
C7 C6 1_555 1_555
H4 C7 1_555 1_555
C8 C7 1_555 1_555
H5 C8 1_555 1_555
C9 N2 1_555 1_555
C10 C1 1_555 1_555
C11 C5 1_555 1_555
C12 C11 1_555 1_555
H6 C12 1_555 1_555
C13 C12 1_555 1_555
H7 C13 1_555 1_555
C14 C13 1_555 1_555
H8 C14 1_555 1_555
C15 N3 1_555 1_555
H9 C15 1_555 1_555
C16 C10 1_555 1_555
C17 C16 1_555 1_555
H10 C17 1_555 1_555
C19 C17 1_555 1_555
H12 C19 1_555 1_555
C21 C19 1_555 1_555
H14 C21 1_555 1_555
C23 C21 1_555 1_555
H16 C23 1_555 1_555
C25 C16 1_555 1_555
H18 C25 1_555 1_555
C27 C28 1_555 1_555
C28 H20 1_555 1_555
C29 C28 1_555 1_555
H21 C29 1_555 1_555
C30 C29 1_555 1_555
H22 C30 1_555 1_555
C31 N4 1_555 1_555
H23 C31 1_555 1_555
C32 N5 1_555 1_555
H24 C32 1_555 1_555
C33 C32 1_555 1_555
H25 C33 1_555 1_555
C34 C33 1_555 1_555
H26 C34 1_555 1_555
C35 O2 1_555 1_555
C36 N5 1_555 1_555
H27 C36 1_555 1_555
C37 N6 1_555 1_555
C38 C37 1_555 1_555
H28 C38 1_555 1_555
H29 C38 1_555 1_555
H30 C38 1_555 1_555
C39 S1 1_555 1_555
C40 C45 1_555 1_555
C42 H32 1_555 1_555
C43 C42 1_555 1_555
H33 C43 1_555 1_555
C44 C43 1_555 1_555
H34 C44 1_555 1_555
C45 C44 1_555 1_555
H35 C45 1_555 1_555
Ag1B N3B 1_555 1_555
Ag1B_2 N4 1_555 1_555
Ag1_2 N4B 1_555 1_555
O1B Sn1 1_555 1_555
O2B H1B 1_555 1_555
N1B Sn1 1_555 1_555
N2B Sn1 1_555 1_555
N3B C11B 1_555 1_555
N4B C30B 1_555 1_555
N4B_2 Ag1 1_555 1_555
N4_2 Ag1B 1_555 1_555
N5B Ag1B 1_555 1_555
N6B Ag1B 1_555 1_555
C1B N1B 1_555 1_555
C2B C1B 1_555 1_555
H2B C2B 1_555 1_555
C3B C2B 1_555 1_555
H3B C3B 1_555 1_555
C4B N1B 1_555 1_555
C5B C4B 1_555 1_555
C6B N2B 1_555 1_555
C7B C6B 1_555 1_555
H4B C7B 1_555 1_555
C8B C7B 1_555 1_555
H5B C8B 1_555 1_555
C9B C10 1_555 1_555
C10B C9 1_555 1_555
C11B C5B 1_555 1_555
C12B C11B 1_555 1_555
H6B C12B 1_555 1_555
C13B C12B 1_555 1_555
H7B C13B 1_555 1_555
C14B C13B 1_555 1_555
H8B C14B 1_555 1_555
C15B N3B 1_555 1_555
H9B C15B 1_555 1_555
C16B C10B 1_555 1_555
C17B C16B 1_555 1_555
H10B C17B 1_555 1_555
C19B C17B 1_555 1_555
H12B C19B 1_555 1_555
C21B C19B 1_555 1_555
H14B C21B 1_555 1_555
C23B C21B 1_555 1_555
H16B C23B 1_555 1_555
C25B C16B 1_555 1_555
H18B C25B 1_555 1_555
C27B O1B 1_555 1_555
C28B C27B 1_555 1_555
H20B C28B 1_555 1_555
C29B C28B 1_555 1_555
H21B C29B 1_555 1_555
C30B C29B 1_555 1_555
H22B C30B 1_555 1_555
C31B N4B 1_555 1_555
H23B C31B 1_555 1_555
C32B N5B 1_555 1_555
H24B C32B 1_555 1_555
C33B C32B 1_555 1_555
H25B C33B 1_555 1_555
C34B C33B 1_555 1_555
H26B C34B 1_555 1_555
C35B O2B 1_555 1_555
C36B N5B 1_555 1_555
H27B C36B 1_555 1_555
C37B N6B 1_555 1_555
C38B C37B 1_555 1_555
H28B C38B 1_555 1_555
H29B C38B 1_555 1_555
H30B C38B 1_555 1_555
C3 C4 1_555 1_555
C5 C6 1_555 1_555
C8 C9 1_555 1_555
C14 C15 1_555 1_555
C23 C25 1_555 1_555
C27 C31 1_555 1_555
C34 C35 1_555 1_555
C35 C36 1_555 1_555
N2B C9B 1_555 1_555
C1B C10B 1_555 1_555
C3B C4B 1_555 1_555
C5B C6B 1_555 1_555
C8B C9B 1_555 1_555
C14B C15B 1_555 1_555
C23B C25B 1_555 1_555
C27B C31B 1_555 1_555
C34B C35B 1_555 1_555
C35B C36B 1_555 1_555

#END
