
#######################################################################
#
#                 Cambridge Crystallographic Data Centre
#                                CCDC 
#
#######################################################################
#
# If this CIF has been generated from an entry in the Cambridge 
# Structural Database, then it will include bibliographic, chemical, 
# crystal, experimental, refinement or atomic coordinate data resulting 
# from the CCDC's data processing and validation procedures.
#
#######################################################################

data_UFULIS
_symmetry_cell_setting           monoclinic
_symmetry_space_group_name_H-M   'P 21/c'
_symmetry_Int_Tables_number      14
_space_group_name_Hall           '-P 2ybc'
loop_
_symmetry_equiv_pos_site_id
_symmetry_equiv_pos_as_xyz
1 x,y,z
2 -x,1/2+y,1/2-z
3 -x,-y,-z
4 x,1/2-y,1/2+z
_cell_length_a                   11.0165(9)
_cell_length_b                   10.8877(8)
_cell_length_c                   16.1364(13)
_cell_angle_alpha                90
_cell_angle_beta                 104.391(8)
_cell_angle_gamma                90
_cell_volume                     1874.74
loop_
_atom_site_label
_atom_site_type_symbol
_atom_site_fract_x
_atom_site_fract_y
_atom_site_fract_z
Zn1 Zn 0.12903(5) 0.47972(5) 0.48745(3)
O1 O 0.0133(3) 0.3906(3) 0.38631(18)
O2 O -0.1796(3) 0.4125(3) 0.40487(18)
O3 O 0.0967(3) 0.1584(3) 0.06743(19)
O4 O -0.0961(3) 0.1388(3) 0.0858(2)
N1 N 0.2930(3) 0.4237(4) 0.4652(2)
N2 N 0.4821(4) 0.3411(4) 0.4778(2)
C1 C 0.0107(5) 0.1868(5) 0.1017(3)
C2 C 0.0399(5) 0.2843(5) 0.1715(3)
H1 H 0.0421 0.2448 0.2257
H2 H 0.1232 0.3161 0.1747
C3 C -0.0491(5) 0.3909(5) 0.1611(3)
C4 C -0.0369(5) 0.4832(5) 0.1043(3)
H3 H 0.0232 0.4745 0.0731
C5 C -0.1390(5) 0.4051(5) 0.2076(3)
C6 C -0.2135(5) 0.5097(5) 0.1950(3)
H4 H -0.2745 0.5190 0.2254
C7 C -0.1988(7) 0.5999(6) 0.1384(4)
H5 H -0.2492 0.6695 0.1316
C8 C -0.1109(7) 0.5879(6) 0.0922(4)
H6 H -0.1010 0.6484 0.0538
C9 C 0.5018(5) 0.3819(5) 0.3273(3)
H7 H 0.5803 0.3466 0.3327
C10 C 0.4430(5) 0.3835(4) 0.3945(3)
C11 C 0.3262(4) 0.4351(4) 0.3872(3)
C12 C 0.2613(5) 0.4905(5) 0.3109(3)
H8 H 0.1834 0.5271 0.3052
C13 C 0.3197(5) 0.4877(5) 0.2444(3)
H9 H 0.2789 0.5222 0.1921
C14 C 0.4363(5) 0.4356(5) 0.2527(3)
H10 H 0.4718 0.4369 0.2061
C15 C 0.3893(5) 0.3663(4) 0.5168(3)
C16 C 0.6012(4) 0.2758(5) 0.5118(3)
H11 H 0.6215 0.2785 0.5739
H12 H 0.6675 0.3178 0.4932
C17 C 0.3932(4) 0.3317(5) 0.6078(3)
H13 H 0.3354 0.3821 0.6283
H14 H 0.4764 0.3441 0.6430
H15 H 0.3704 0.2469 0.6100
C18 C -0.1025(5) 0.3774(5) 0.3638(3)
C19 C -0.1545(5) 0.3173(5) 0.2765(3)
H16 H -0.1098 0.2415 0.2729
H17 H -0.2425 0.2979 0.2692
C20 C 0.5963(5) 0.1430(4) 0.4831(3)
H18 H 0.6797 0.1080 0.5014
H19 H 0.5719 0.1406 0.4210
C21 C 0.5071(5) 0.0645(4) 0.5169(3)
H20 H 0.5359 0.0613 0.5788
H21 H 0.4254 0.1036 0.5029
N1B N 0.7070(3) -0.4237(4) 0.5348(2)
N2B N 0.5179(4) -0.3411(4) 0.5222(2)
C9B C 0.4982(5) -0.3819(5) 0.6727(3)
H7B H 0.4197 -0.3466 0.6673
C10B C 0.5570(5) -0.3835(4) 0.6055(3)
C11B C 0.6738(4) -0.4351(4) 0.6128(3)
C12B C 0.7387(5) -0.4905(5) 0.6891(3)
H8B H 0.8166 -0.5271 0.6948
C13B C 0.6803(5) -0.4877(5) 0.7556(3)
H9B H 0.7211 -0.5222 0.8079
C14B C 0.5637(5) -0.4356(5) 0.7473(3)
H10B H 0.5282 -0.4369 0.7939
C15B C 0.6107(5) -0.3663(4) 0.4832(3)
C16B C 0.3988(4) -0.2758(5) 0.4882(3)
H11B H 0.3785 -0.2785 0.4261
H12B H 0.3325 -0.3178 0.5068
C17B C 0.6068(4) -0.3317(5) 0.3922(3)
H13B H 0.6646 -0.3821 0.3717
H14B H 0.5236 -0.3441 0.3570
H15B H 0.6296 -0.2469 0.3900
C20B C 0.4037(5) -0.1430(4) 0.5169(3)
H18B H 0.3203 -0.1080 0.4986
H19B H 0.4281 -0.1406 0.5790
C21B C 0.4929(5) -0.0645(4) 0.4831(3)
H20B H 0.4641 -0.0613 0.4212
H21B H 0.5746 -0.1036 0.4971
Zn1B Zn -0.12903(5) 0.52028(5) 0.51255(3)
O1B O -0.0133(3) 0.6094(3) 0.61369(18)
O2B O 0.1796(3) 0.5875(3) 0.59513(18)
O3B O -0.0967(3) 0.8416(3) 0.93257(19)
O4B O 0.0961(3) 0.8612(3) 0.9142(2)
C1B C -0.0107(5) 0.8132(5) 0.8983(3)
C2B C -0.0399(5) 0.7157(5) 0.8285(3)
H1B H -0.0421 0.7552 0.7743
H2B H -0.1232 0.6839 0.8253
C3B C 0.0491(5) 0.6091(5) 0.8389(3)
C4B C 0.0369(5) 0.5168(5) 0.8957(3)
H3B H -0.0232 0.5255 0.9269
C5B C 0.1390(5) 0.5949(5) 0.7924(3)
C6B C 0.2135(5) 0.4903(5) 0.8050(3)
H4B H 0.2745 0.4810 0.7746
C7B C 0.1988(7) 0.4001(6) 0.8616(4)
H5B H 0.2492 0.3305 0.8684
C8B C 0.1109(7) 0.4121(6) 0.9078(4)
H6B H 0.1010 0.3516 0.9462
C18B C 0.1025(5) 0.6226(5) 0.6362(3)
C19B C 0.1545(5) 0.6827(5) 0.7235(3)
H16B H 0.1098 0.7585 0.7271
H17B H 0.2425 0.7021 0.7308
Zn1A Zn -0.12903(5) -0.02028(5) 0.01255(3)
Zn1A_2 Zn -0.12903(5) 0.97972(5) 1.01255(3)
Zn1B_2 Zn 0.87097(5) -0.47972(5) 0.51255(3)
Zn1C Zn 0.12903(5) 0.02028(5) -0.01255(3)
Zn1C_2 Zn 0.12903(5) 1.02028(5) 0.98745(3)
O3A O -0.0967(3) 0.6584(3) 0.43257(19)
O3C O 0.0967(3) 0.3416(3) 0.56743(19)
O4A O 0.0961(3) 0.6388(3) 0.4142(2)
O4C O -0.0961(3) 0.3612(3) 0.5858(2)
N1B_2 N -0.2930(3) 0.5763(4) 0.5348(2)
loop_
_geom_bond_atom_site_label_1
_geom_bond_atom_site_label_2
_geom_bond_site_symmetry_1
_geom_bond_site_symmetry_2
Zn1 O1 1_555 1_555
O1 C18 1_555 1_555
O2 C18 1_555 1_555
O3 C1 1_555 1_555
O4 C1 1_555 1_555
N1 Zn1 1_555 1_555
N2 C10 1_555 1_555
C1 C2 1_555 1_555
C2 H1 1_555 1_555
H2 C2 1_555 1_555
C3 C2 1_555 1_555
C4 C3 1_555 1_555
H3 C4 1_555 1_555
C5 C3 1_555 1_555
C6 C5 1_555 1_555
H4 C6 1_555 1_555
C7 C6 1_555 1_555
H5 C7 1_555 1_555
C8 C4 1_555 1_555
H6 C8 1_555 1_555
C9 H7 1_555 1_555
C10 C9 1_555 1_555
C11 N1 1_555 1_555
C12 C11 1_555 1_555
H8 C12 1_555 1_555
C13 C12 1_555 1_555
H9 C13 1_555 1_555
C14 C9 1_555 1_555
H10 C14 1_555 1_555
C15 N1 1_555 1_555
C16 N2 1_555 1_555
H11 C16 1_555 1_555
H12 C16 1_555 1_555
C17 C15 1_555 1_555
H13 C17 1_555 1_555
H14 C17 1_555 1_555
H15 C17 1_555 1_555
C18 C19 1_555 1_555
C19 C5 1_555 1_555
H16 C19 1_555 1_555
H17 C19 1_555 1_555
C20 C16 1_555 1_555
H18 C20 1_555 1_555
H19 C20 1_555 1_555
C21 C20 1_555 1_555
H20 C21 1_555 1_555
H21 C21 1_555 1_555
N1B C11B 1_555 1_555
N2B C10B 1_555 1_555
C9B H7B 1_555 1_555
C10B C9B 1_555 1_555
C11B C10B 1_555 1_555
C12B C11B 1_555 1_555
H8B C12B 1_555 1_555
C13B C12B 1_555 1_555
H9B C13B 1_555 1_555
C14B C9B 1_555 1_555
H10B C14B 1_555 1_555
C15B N1B 1_555 1_555
C16B N2B 1_555 1_555
H11B C16B 1_555 1_555
H12B C16B 1_555 1_555
C17B C15B 1_555 1_555
H13B C17B 1_555 1_555
H14B C17B 1_555 1_555
H15B C17B 1_555 1_555
C20B C16B 1_555 1_555
H18B C20B 1_555 1_555
H19B C20B 1_555 1_555
C21B C21 1_555 1_555
H20B C21B 1_555 1_555
H21B C21B 1_555 1_555
Zn1B O2 1_555 1_555
O1B Zn1B 1_555 1_555
O2B Zn1 1_555 1_555
O3B C1B 1_555 1_555
O4B C1B 1_555 1_555
C1B C2B 1_555 1_555
C2B H1B 1_555 1_555
H2B C2B 1_555 1_555
C3B C2B 1_555 1_555
C4B C3B 1_555 1_555
H3B C4B 1_555 1_555
C5B C3B 1_555 1_555
C6B C5B 1_555 1_555
H4B C6B 1_555 1_555
C7B C6B 1_555 1_555
H5B C7B 1_555 1_555
C8B C4B 1_555 1_555
H6B C8B 1_555 1_555
C18B O1B 1_555 1_555
C19B C5B 1_555 1_555
H16B C19B 1_555 1_555
H17B C19B 1_555 1_555
Zn1A O4 1_555 1_555
Zn1A_2 O3B 1_555 1_555
Zn1B_2 N1B 1_555 1_555
Zn1C O3 1_555 1_555
Zn1C_2 O4B 1_555 1_555
O3A Zn1B 1_555 1_555
O3C Zn1 1_555 1_555
O4A Zn1 1_555 1_555
O4C Zn1B 1_555 1_555
N1B_2 Zn1B 1_555 1_555
N2 C15 1_555 1_555
C7 C8 1_555 1_555
C10 C11 1_555 1_555
C13 C14 1_555 1_555
N2B C15B 1_555 1_555
C13B C14B 1_555 1_555
C20B C21B 1_555 1_555
O2B C18B 1_555 1_555
C7B C8B 1_555 1_555
C18B C19B 1_555 1_555

#END
