
#######################################################################
#
#                 Cambridge Crystallographic Data Centre
#                                CCDC 
#
#######################################################################
#
# If this CIF has been generated from an entry in the Cambridge 
# Structural Database, then it will include bibliographic, chemical, 
# crystal, experimental, refinement or atomic coordinate data resulting 
# from the CCDC's data processing and validation procedures.
#
#######################################################################

data_UFULOY
_symmetry_cell_setting           monoclinic
_symmetry_space_group_name_H-M   'P 21/c'
_symmetry_Int_Tables_number      14
_space_group_name_Hall           '-P 2ybc'
loop_
_symmetry_equiv_pos_site_id
_symmetry_equiv_pos_as_xyz
1 x,y,z
2 -x,1/2+y,1/2-z
3 -x,-y,-z
4 x,1/2-y,1/2+z
_cell_length_a                   11.1621(5)
_cell_length_b                   11.0123(5)
_cell_length_c                   16.2424(9)
_cell_angle_alpha                90
_cell_angle_beta                 104.843(5)
_cell_angle_gamma                90
_cell_volume                     1929.9
loop_
_atom_site_label
_atom_site_type_symbol
_atom_site_fract_x
_atom_site_fract_y
_atom_site_fract_z
Cd1 Cd 0.630952(16) 0.509748(19) 0.487422(12)
O1 O 0.68427(19) 0.3981(2) 0.60542(13)
O2 O 0.49249(18) 0.3924(2) 0.62238(13)
O3 O 0.59707(18) 0.1584(2) 0.90716(14)
O4 O 0.40799(19) 0.1590(2) 0.92688(14)
N1 N 0.80716(19) 0.5753(2) 0.46370(14)
N2 N 0.98921(18) 0.6636(2) 0.47449(15)
C1 C 0.9030(3) 0.6703(3) 0.60317(17)
H1 H 0.8794 0.7539 0.6047
H2 H 0.9853 0.6592 0.6388
H3 H 0.8463 0.6201 0.6235
C2 C 0.8999(2) 0.6357(2) 0.51446(17)
C3 C 0.8384(2) 0.5631(3) 0.38631(17)
C4 C 0.7744(3) 0.5063(3) 0.3115(2)
H4 H 0.6979 0.4695 0.3067
C5 C 0.8302(4) 0.5071(3) 0.2447(2)
H5 H 0.7910 0.4688 0.1939
C6 C 0.9429(3) 0.5636(4) 0.2518(2)
H6 H 0.9767 0.5631 0.2050
C7 C 1.0071(3) 0.6206(3) 0.3250(2)
H7 H 1.0831 0.6581 0.3292
C8 C 0.9511(2) 0.6189(3) 0.39251(17)
C9 C 1.1056(2) 0.7300(3) 0.5085(2)
H8 H 1.1716 0.6908 0.4894
H9 H 1.1271 0.7265 0.5702
C10 C 1.0962(3) 0.8611(3) 0.4804(2)
H10 H 1.0699 0.8640 0.4187
H11 H 1.1777 0.8979 0.4980
C11 C 1.0072(3) 0.9348(3) 0.51584(19)
H12 H 0.9267 0.8957 0.5007
H13 H 1.0359 0.9353 0.5775
C12 C 0.6062(3) 0.3741(3) 0.64694(18)
C13 C 0.6535(3) 0.3222(3) 0.73564(18)
H14 H 0.6089 0.2482 0.7410
H15 H 0.7409 0.3026 0.7461
C14 C 0.6348(3) 0.4144(3) 0.79946(18)
C15 C 0.7111(4) 0.5160(4) 0.8116(3)
H16 H 0.7735 0.5217 0.7833
C16 C 0.6953(5) 0.6081(4) 0.8647(3)
H17 H 0.7469 0.6757 0.8721
C17 C 0.6037(5) 0.6006(4) 0.9068(3)
H18 H 0.5926 0.6629 0.9428
C18 C 0.5288(5) 0.5002(4) 0.8950(3)
H19 H 0.4669 0.4953 0.9239
C19 C 0.5419(3) 0.4058(3) 0.84198(18)
C20 C 0.4507(3) 0.3019(3) 0.8303(2)
H20 H 0.4389 0.2696 0.7732
H21 H 0.3714 0.3332 0.8350
C21 C 0.4893(3) 0.1983(3) 0.89384(18)
N1B N 1.19284(19) 1.4247(2) 0.53630(14)
N2B N 1.01079(18) 1.3364(2) 0.52551(15)
C1B C 1.0970(3) 1.3297(3) 0.39683(17)
H1B H 1.1206 1.2461 0.3953
H2B H 1.0147 1.3408 0.3612
H3B H 1.1537 1.3799 0.3765
C2B C 1.1001(2) 1.3643(2) 0.48554(17)
C3B C 1.1616(2) 1.4369(3) 0.61369(17)
C4B C 1.2256(3) 1.4937(3) 0.6885(2)
H4B H 1.3021 1.5305 0.6933
C5B C 1.1698(4) 1.4929(3) 0.7553(2)
H5B H 1.2090 1.5312 0.8061
C6B C 1.0571(3) 1.4364(4) 0.7482(2)
H6B H 1.0233 1.4369 0.7950
C7B C 0.9929(3) 1.3794(3) 0.6750(2)
H7B H 0.9169 1.3419 0.6708
C8B C 1.0489(2) 1.3811(3) 0.60749(17)
C9B C 0.8944(2) 1.2700(3) 0.4915(2)
H8B H 0.8284 1.3092 0.5106
H9B H 0.8729 1.2735 0.4298
C10B C 0.9038(3) 1.1389(3) 0.5196(2)
H10B H 0.9301 1.1360 0.5813
H11B H 0.8223 1.1021 0.5020
C11B C 0.9928(3) 1.0652(3) 0.48416(19)
H12B H 1.0733 1.1043 0.4993
H13B H 0.9641 1.0647 0.4225
Cd1B Cd 0.369048(16) 0.490252(19) 0.512578(12)
O1B O 0.31573(19) 0.6019(2) 0.39458(13)
O2B O 0.50751(18) 0.6076(2) 0.37762(13)
O3B O 0.40293(18) 0.8416(2) 0.09284(14)
O4B O 0.59201(19) 0.8410(2) 0.07312(14)
C12B C 0.3938(3) 0.6259(3) 0.35306(18)
C13B C 0.3465(3) 0.6778(3) 0.26436(18)
H14B H 0.3911 0.7518 0.2590
H15B H 0.2591 0.6974 0.2539
C14B C 0.3652(3) 0.5856(3) 0.20054(18)
C15B C 0.2889(4) 0.4840(4) 0.1884(3)
H16B H 0.2265 0.4783 0.2167
C16B C 0.3047(5) 0.3919(4) 0.1353(3)
H17B H 0.2531 0.3243 0.1279
C17B C 0.3963(5) 0.3994(4) 0.0932(3)
H18B H 0.4074 0.3371 0.0572
C18B C 0.4712(5) 0.4998(4) 0.1050(3)
H19B H 0.5331 0.5047 0.0761
C19B C 0.4581(3) 0.5942(3) 0.15802(18)
C20B C 0.5493(3) 0.6981(3) 0.1697(2)
H20B H 0.5611 0.7304 0.2268
H21B H 0.6286 0.6668 0.1650
C21B C 0.5107(3) 0.8017(3) 0.10616(18)
Cd1A Cd 0.369048(16) 0.009748(19) 1.012578(12)
Cd1A_2 Cd 0.369048(16) 1.009748(19) 0.012578(12)
Cd1B_2 Cd 1.369048(16) 1.490252(19) 0.512578(12)
Cd1C Cd 0.630952(16) -0.009748(19) 0.987422(12)
Cd1C_2 Cd 0.630952(16) 0.990252(19) -0.012578(12)
O3A O 0.40293(18) 0.6584(2) 0.59284(14)
O3C O 0.59707(18) 0.3416(2) 0.40716(14)
O4A O 0.59201(19) 0.6590(2) 0.57312(14)
O4C O 0.40799(19) 0.3410(2) 0.42688(14)
N1B_2 N 0.19284(19) 0.4247(2) 0.53630(14)
loop_
_geom_bond_atom_site_label_1
_geom_bond_atom_site_label_2
_geom_bond_site_symmetry_1
_geom_bond_site_symmetry_2
Cd1 O1 1_555 1_555
O1 C12 1_555 1_555
O2 C12 1_555 1_555
O3 C21 1_555 1_555
O4 C21 1_555 1_555
N1 Cd1 1_555 1_555
N2 C2 1_555 1_555
C1 H1 1_555 1_555
H2 C1 1_555 1_555
H3 C1 1_555 1_555
C2 N1 1_555 1_555
C3 N1 1_555 1_555
C4 C3 1_555 1_555
H4 C4 1_555 1_555
C5 C4 1_555 1_555
H5 C5 1_555 1_555
C6 C5 1_555 1_555
H6 C6 1_555 1_555
C7 C6 1_555 1_555
H7 C7 1_555 1_555
C8 N2 1_555 1_555
C9 N2 1_555 1_555
H8 C9 1_555 1_555
H9 C9 1_555 1_555
C10 C9 1_555 1_555
H10 C10 1_555 1_555
H11 C10 1_555 1_555
C11 C10 1_555 1_555
H12 C11 1_555 1_555
H13 C11 1_555 1_555
C12 C13 1_555 1_555
C13 H14 1_555 1_555
H15 C13 1_555 1_555
C14 C13 1_555 1_555
C15 C14 1_555 1_555
H16 C15 1_555 1_555
C16 C15 1_555 1_555
H17 C16 1_555 1_555
C17 C16 1_555 1_555
H18 C17 1_555 1_555
C18 C17 1_555 1_555
H19 C18 1_555 1_555
C19 C14 1_555 1_555
C20 C19 1_555 1_555
H20 C20 1_555 1_555
H21 C20 1_555 1_555
C21 C20 1_555 1_555
N1B C2B 1_555 1_555
N2B C2B 1_555 1_555
C1B H1B 1_555 1_555
H2B C1B 1_555 1_555
H3B C1B 1_555 1_555
C2B C1B 1_555 1_555
C3B N1B 1_555 1_555
C4B C3B 1_555 1_555
H4B C4B 1_555 1_555
C5B C4B 1_555 1_555
H5B C5B 1_555 1_555
C6B C5B 1_555 1_555
H6B C6B 1_555 1_555
C7B C6B 1_555 1_555
H7B C7B 1_555 1_555
C8B N2B 1_555 1_555
C9B N2B 1_555 1_555
H8B C9B 1_555 1_555
H9B C9B 1_555 1_555
C10B C9B 1_555 1_555
H10B C10B 1_555 1_555
H11B C10B 1_555 1_555
C11B C11 1_555 1_555
H12B C11B 1_555 1_555
H13B C11B 1_555 1_555
Cd1B O2 1_555 1_555
O1B Cd1B 1_555 1_555
O2B Cd1 1_555 1_555
O3B C21B 1_555 1_555
O4B C21B 1_555 1_555
C12B O1B 1_555 1_555
C13B C12B 1_555 1_555
H14B C13B 1_555 1_555
H15B C13B 1_555 1_555
C14B C13B 1_555 1_555
C15B C14B 1_555 1_555
H16B C15B 1_555 1_555
C16B C15B 1_555 1_555
H17B C16B 1_555 1_555
C17B C16B 1_555 1_555
H18B C17B 1_555 1_555
C18B C17B 1_555 1_555
H19B C18B 1_555 1_555
C19B C14B 1_555 1_555
C20B C19B 1_555 1_555
H20B C20B 1_555 1_555
H21B C20B 1_555 1_555
C21B C20B 1_555 1_555
Cd1A O4 1_555 1_555
Cd1A_2 O3B 1_555 1_555
Cd1B_2 N1B 1_555 1_555
Cd1C O3 1_555 1_555
Cd1C_2 O4B 1_555 1_555
O3A Cd1B 1_555 1_555
O3C Cd1 1_555 1_555
O4A Cd1 1_555 1_555
O4C Cd1B 1_555 1_555
N1B_2 Cd1B 1_555 1_555
C1 C2 1_555 1_555
C3 C8 1_555 1_555
C7 C8 1_555 1_555
C18 C19 1_555 1_555
C3B C8B 1_555 1_555
C7B C8B 1_555 1_555
C10B C11B 1_555 1_555
O2B C12B 1_555 1_555
C18B C19B 1_555 1_555

#END
