
#######################################################################
#
#                 Cambridge Crystallographic Data Centre
#                                CCDC 
#
#######################################################################
#
# If this CIF has been generated from an entry in the Cambridge 
# Structural Database, then it will include bibliographic, chemical, 
# crystal, experimental, refinement or atomic coordinate data resulting 
# from the CCDC's data processing and validation procedures.
#
#######################################################################

data_UFULEM
_symmetry_cell_setting           monoclinic
_symmetry_space_group_name_H-M   'P 21/n'
_symmetry_Int_Tables_number      14
_space_group_name_Hall           '-P 2yn'
loop_
_symmetry_equiv_pos_site_id
_symmetry_equiv_pos_as_xyz
1 x,y,z
2 1/2-x,1/2+y,1/2-z
3 -x,-y,-z
4 1/2+x,1/2-y,1/2+z
_cell_length_a                   9.044(1)
_cell_length_b                   8.264(1)
_cell_length_c                   11.646(1)
_cell_angle_alpha                90
_cell_angle_beta                 100.770(2)
_cell_angle_gamma                90
_cell_volume                     855.085
loop_
_atom_site_label
_atom_site_type_symbol
_atom_site_fract_x
_atom_site_fract_y
_atom_site_fract_z
Zn1 Zn 0.72040(7) 0.02856(7) 0.09175(5)
O1 O 0.5378(4) 0.2772(4) 0.2091(3)
O2 O 0.5731(4) 0.0127(4) 0.1944(3)
O3 O 0.9214(4) 0.0647(4) 0.1864(3)
H1 H 0.9968 0.0759 0.1561
H2 H 0.9301 -0.0209 0.2250
O4 O 0.3624(4) -0.3848(4) 0.4346(3)
O5 O 0.1982(4) -0.3014(4) 0.5391(3)
N1 N 0.1367(5) 0.3014(5) 0.4711(4)
H3 H 0.0678 0.2558 0.4990
H4 H 0.0963 0.3514 0.4120
C1 C 0.3059(5) -0.1017(6) 0.4339(4)
C2 C 0.4017(6) -0.0622(6) 0.3578(4)
H5 H 0.467(7) -0.134(7) 0.330(5)
C3 C 0.4133(5) 0.0959(5) 0.3205(4)
C4 C 0.5160(5) 0.1361(6) 0.2365(4)
C5 C 0.3276(6) 0.2162(6) 0.3609(4)
H6 H 0.335(5) 0.317(7) 0.341(4)
C6 C 0.2310(5) 0.1774(6) 0.4358(4)
C7 C 0.2212(6) 0.0200(6) 0.4731(4)
H7 H 0.164(5) -0.001(5) 0.513(4)
C8 C 0.2896(5) -0.2735(6) 0.4704(4)
O5C O 0.6982(4) -0.1986(4) 0.0391(3)
N1C N 0.6367(5) 0.1986(5) -0.0289(4)
Zn1C Zn 0.22040(7) -0.52856(7) 0.59175(5)
Zn1C_2 Zn 0.22040(7) 0.47144(7) 0.59175(5)
H3C H 0.5678 0.2442 -0.0010
H4C H 0.5963 0.1486 -0.0880
loop_
_geom_bond_atom_site_label_1
_geom_bond_atom_site_label_2
_geom_bond_site_symmetry_1
_geom_bond_site_symmetry_2
Zn1 O2 1_555 1_555
O1 C4 1_555 1_555
O2 C4 1_555 1_555
O3 Zn1 1_555 1_555
H1 O3 1_555 1_555
H2 O3 1_555 1_555
O4 C8 1_555 1_555
O5 C8 1_555 1_555
N1 H3 1_555 1_555
H4 N1 1_555 1_555
C1 C2 1_555 1_555
C2 H5 1_555 1_555
C3 C2 1_555 1_555
C4 C3 1_555 1_555
C5 C3 1_555 1_555
H6 C5 1_555 1_555
C6 N1 1_555 1_555
C7 C1 1_555 1_555
H7 C7 1_555 1_555
C8 C1 1_555 1_555
O5C Zn1 1_555 1_555
N1C Zn1 1_555 1_555
Zn1C O5 1_555 1_555
Zn1C_2 N1 1_555 1_555
H3C N1C 1_555 1_555
H4C N1C 1_555 1_555
C5 C6 1_555 1_555
C6 C7 1_555 1_555

#END
