
#######################################################################
#
#                 Cambridge Crystallographic Data Centre
#                                CCDC 
#
#######################################################################
#
# If this CIF has been generated from an entry in the Cambridge 
# Structural Database, then it will include bibliographic, chemical, 
# crystal, experimental, refinement or atomic coordinate data resulting 
# from the CCDC's data processing and validation procedures.
#
#######################################################################

data_UFULUE
_symmetry_cell_setting           monoclinic
_symmetry_space_group_name_H-M   'P 2/c'
_symmetry_Int_Tables_number      13
_space_group_name_Hall           '-P 2yc'
loop_
_symmetry_equiv_pos_site_id
_symmetry_equiv_pos_as_xyz
1 x,y,z
2 -x,y,1/2-z
3 -x,-y,-z
4 x,-y,1/2+z
_cell_length_a                   9.2171(18)
_cell_length_b                   10.278(2)
_cell_length_c                   17.086(5)
_cell_angle_alpha                90
_cell_angle_beta                 116.74(2)
_cell_angle_gamma                90
_cell_volume                     1445.52
loop_
_atom_site_label
_atom_site_type_symbol
_atom_site_fract_x
_atom_site_fract_y
_atom_site_fract_z
Zn1 Zn 1.0000 1.06307(4) 0.7500
O1 O 0.7916(2) 1.15099(17) 0.71355(12)
O2 O 0.8738(3) 1.2926(2) 0.64455(14)
N1 N 0.9891(3) 0.93860(19) 0.65407(13)
N2 N 1.0877(3) 0.8091(2) 0.58492(14)
C1 C 1.0184(4) 0.5182(3) 0.5467(2)
H1 H 0.9355 0.5780 0.5449
H2 H 1.0122 0.4405 0.5772
C2 C 1.1842(4) 0.5807(3) 0.5986(2)
H3 H 1.2653 0.5276 0.5922
H4 H 1.2093 0.5809 0.6601
C3 C 1.1971(4) 0.7188(3) 0.5711(2)
H5 H 1.3081 0.7488 0.6042
H6 H 1.1720 0.7192 0.5095
C4 C 0.9379(3) 0.8532(2) 0.52202(16)
C5 C 0.8553(4) 0.8323(3) 0.43170(17)
H7 H 0.8983 0.7804 0.4026
C6 C 0.7069(4) 0.8925(3) 0.38799(18)
H8 H 0.6486 0.8818 0.3277
C7 C 0.6417(4) 0.9693(3) 0.43173(19)
H9 H 0.5393 1.0060 0.4002
C8 C 0.7255(3) 0.9922(3) 0.52090(18)
H10 H 0.6827 1.0451 0.5496
C9 C 0.8770(3) 0.9326(2) 0.56615(16)
C10 C 1.1117(3) 0.8630(2) 0.66257(16)
C11 C 1.2600(4) 0.8408(3) 0.74592(19)
H11 H 1.3058 0.9230 0.7720
H12 H 1.3378 0.7929 0.7344
H13 H 1.2325 0.7921 0.7853
C12 C 0.7785(3) 1.2575(2) 0.67192(16)
C13 C 0.6348(4) 1.3426(3) 0.65961(19)
H14 H 0.5493 1.2871 0.6592
H15 H 0.6684 1.4003 0.7097
C14 C 0.5652(3) 1.4242(3) 0.57702(19)
C15 C 0.4530(4) 1.3737(3) 0.4987(2)
H16 H 0.4196 1.2879 0.4966
C16 C 0.6120(4) 1.5519(3) 0.5776(2)
H17 H 0.6881 1.5888 0.6296
O1B O 0.2084(2) 1.84901(17) 0.28645(12)
O2B O 0.1262(3) 1.7074(2) 0.35545(14)
C12B C 0.2215(3) 1.7425(2) 0.32808(16)
C13B C 0.3652(4) 1.6574(3) 0.34039(19)
H14B H 0.4507 1.7129 0.3408
H15B H 0.3316 1.5997 0.2903
C14B C 0.4348(3) 1.5758(3) 0.42298(19)
C15B C 0.5470(4) 1.6263(3) 0.5013(2)
H16B H 0.5804 1.7121 0.5034
C16B C 0.3880(4) 1.4481(3) 0.4224(2)
H17B H 0.3119 1.4112 0.3704
N1B N 1.0109(3) 0.06140(19) 0.34593(13)
N2B N 0.9123(3) 0.1909(2) 0.41508(14)
C1B C 0.9816(4) 0.4818(3) 0.4533(2)
H1B H 1.0645 0.4220 0.4551
H2B H 0.9878 0.5595 0.4228
C2B C 0.8158(4) 0.4193(3) 0.4014(2)
H3B H 0.7347 0.4724 0.4078
H4B H 0.7907 0.4191 0.3399
C3B C 0.8029(4) 0.2812(3) 0.4289(2)
H5B H 0.6919 0.2512 0.3958
H6B H 0.8280 0.2808 0.4905
C4B C 1.0621(3) 0.1468(2) 0.47798(16)
C5B C 1.1447(4) 0.1677(3) 0.56830(17)
H7B H 1.1017 0.2196 0.5974
C6B C 1.2931(4) 0.1075(3) 0.61201(18)
H8B H 1.3514 0.1182 0.6723
C7B C 1.3583(4) 0.0307(3) 0.56827(19)
H9B H 1.4607 -0.0060 0.5998
C8B C 1.2745(3) 0.0078(3) 0.47910(18)
H10B H 1.3173 -0.0451 0.4504
C9B C 1.1230(3) 0.0674(2) 0.43385(16)
C10B C 0.8883(3) 0.1370(2) 0.33743(16)
C11B C 0.7400(4) 0.1592(3) 0.25408(19)
H11B H 0.6942 0.0770 0.2280
H12B H 0.6622 0.2071 0.2656
H13B H 0.7675 0.2079 0.2147
Zn1B Zn 0.0000 1.93693(4) 0.2500
Zn1B_2 Zn 1.0000 -0.06307(4) 0.2500
O1A O 1.2084(2) 1.15099(17) 0.78645(12)
N1A N 1.0109(3) 0.93860(19) 0.84593(13)
O3 O 1.0000 0.4549(4) 0.2500
H18 H 1.0215 0.5242 0.2887
H18A H 0.9785 0.5242 0.2113
loop_
_geom_bond_atom_site_label_1
_geom_bond_atom_site_label_2
_geom_bond_site_symmetry_1
_geom_bond_site_symmetry_2
Zn1 O1 1_555 1_555
O1 C12 1_555 1_555
O2 C12 1_555 1_555
N1 Zn1 1_555 1_555
N2 C3 1_555 1_555
C1 H1 1_555 1_555
H2 C1 1_555 1_555
C2 C1 1_555 1_555
H3 C2 1_555 1_555
H4 C2 1_555 1_555
C3 C2 1_555 1_555
H5 C3 1_555 1_555
H6 C3 1_555 1_555
C4 N2 1_555 1_555
C5 C4 1_555 1_555
H7 C5 1_555 1_555
C6 C5 1_555 1_555
H8 C6 1_555 1_555
C7 C6 1_555 1_555
H9 C7 1_555 1_555
C8 C7 1_555 1_555
H10 C8 1_555 1_555
C9 N1 1_555 1_555
C10 N1 1_555 1_555
C11 C10 1_555 1_555
H11 C11 1_555 1_555
H12 C11 1_555 1_555
H13 C11 1_555 1_555
C12 C13 1_555 1_555
C13 H14 1_555 1_555
H15 C13 1_555 1_555
C14 C13 1_555 1_555
C15 C14 1_555 1_555
H16 C15 1_555 1_555
C16 C14 1_555 1_555
H17 C16 1_555 1_555
O3 H18 1_555 1_555
O1B C12B 1_555 1_555
O2B C12B 1_555 1_555
C12B C13B 1_555 1_555
C13B H14B 1_555 1_555
H15B C13B 1_555 1_555
C14B C13B 1_555 1_555
C15B C16 1_555 1_555
H16B C15B 1_555 1_555
C16B C15 1_555 1_555
H17B C16B 1_555 1_555
N1B C9B 1_555 1_555
N2B C3B 1_555 1_555
C1B C1 1_555 1_555
H1B C1B 1_555 1_555
H2B C1B 1_555 1_555
C2B C1B 1_555 1_555
H3B C2B 1_555 1_555
H4B C2B 1_555 1_555
C3B C2B 1_555 1_555
H5B C3B 1_555 1_555
H6B C3B 1_555 1_555
C4B N2B 1_555 1_555
C5B C4B 1_555 1_555
H7B C5B 1_555 1_555
C6B C5B 1_555 1_555
H8B C6B 1_555 1_555
C7B C6B 1_555 1_555
H9B C7B 1_555 1_555
C8B C7B 1_555 1_555
H10B C8B 1_555 1_555
C9B C4B 1_555 1_555
C10B N1B 1_555 1_555
C11B C10B 1_555 1_555
H11B C11B 1_555 1_555
H12B C11B 1_555 1_555
H13B C11B 1_555 1_555
Zn1B O1B 1_555 1_555
Zn1B_2 N1B 1_555 1_555
O1A Zn1 1_555 1_555
N1A Zn1 1_555 1_555
H18A O3 1_555 1_555
N2 C10 1_555 1_555
C4 C9 1_555 1_555
C8 C9 1_555 1_555
C14B C15B 1_555 1_555
C14B C16B 1_555 1_555
N2B C10B 1_555 1_555
C8B C9B 1_555 1_555

#END
