
#######################################################################
#
#                 Cambridge Crystallographic Data Centre
#                                CCDC 
#
#######################################################################
#
# If this CIF has been generated from an entry in the Cambridge 
# Structural Database, then it will include bibliographic, chemical, 
# crystal, experimental, refinement or atomic coordinate data resulting 
# from the CCDC's data processing and validation procedures.
#
#######################################################################

data_UFULIS01
_symmetry_cell_setting           monoclinic
_symmetry_space_group_name_H-M   'P 21/c'
_symmetry_Int_Tables_number      14
_space_group_name_Hall           '-P 2ybc'
loop_
_symmetry_equiv_pos_site_id
_symmetry_equiv_pos_as_xyz
1 x,y,z
2 -x,1/2+y,1/2-z
3 -x,-y,-z
4 x,1/2-y,1/2+z
_cell_length_a                   10.981(2)
_cell_length_b                   10.867(2)
_cell_length_c                   16.101(3)
_cell_angle_alpha                90
_cell_angle_beta                 104.41(3)
_cell_angle_gamma                90
_cell_volume                     1860.89
loop_
_atom_site_label
_atom_site_type_symbol
_atom_site_fract_x
_atom_site_fract_y
_atom_site_fract_z
Zn1 Zn 0.87092(3) 0.02016(3) 1.01251(2)
O1 O 0.81996(19) -0.0878(2) 0.90468(13)
O2 O 1.01285(19) -0.1093(2) 0.88626(13)
O3 O 0.90437(19) -0.3624(2) 0.58583(14)
O4 O 1.0968(2) -0.3415(2) 0.56742(14)
N1 N 0.70553(19) 0.0760(2) 1.03445(14)
N2 N 0.5175(2) 0.1592(2) 1.02224(15)
C1 C 0.6063(3) 0.1683(3) 0.89305(19)
H1 H 0.6313 0.2527 0.8912
H2 H 0.5224 0.1579 0.8580
H3 H 0.6628 0.1166 0.8719
C2 C 0.6102(2) 0.1337(2) 0.98260(17)
C3 C 0.6742(2) 0.0638(2) 1.11293(17)
C4 C 0.7391(3) 0.0097(3) 1.18939(19)
H4 H 0.8180 -0.0255 1.1952
C5 C 0.6810(3) 0.0106(3) 1.2564(2)
H5 H 0.7217 -0.0252 1.3084
C6 C 0.5632(3) 0.0636(3) 1.2481(2)
H6 H 0.5273 0.0623 1.2947
C7 C 0.4984(3) 0.1181(3) 1.1727(2)
H7 H 0.4200 0.1542 1.1672
C8 C 0.5564(3) 0.1160(2) 1.10579(18)
C9 C 0.3980(3) 0.2237(3) 0.9883(2)
H8 H 0.3317 0.1813 1.0068
H9 H 0.3776 0.2214 0.9261
C10 C 0.4034(3) 0.3566(3) 1.0178(2)
H10 H 0.3199 0.3921 0.9998
H11 H 0.4286 0.3587 1.0799
C11 C 0.4939(3) 0.4348(3) 0.9830(2)
H12 H 0.5761 0.3962 0.9976
H13 H 0.4654 0.4373 0.9209
C12 C 0.8966(3) -0.1227(3) 0.86334(18)
C13 C 0.8447(3) -0.1829(3) 0.77690(19)
H14 H 0.8895 -0.2589 0.7733
H15 H 0.7564 -0.2023 0.7696
C14 C 0.8603(3) -0.0950(3) 0.70750(18)
C15 C 0.7865(4) 0.0107(3) 0.6948(2)
H16 H 0.7257 0.0209 0.7255
C16 C 0.8014(5) 0.1002(4) 0.6379(3)
H17 H 0.7510 0.1701 0.6306
C17 C 0.8896(5) 0.0870(4) 0.5922(2)
H18 H 0.8998 0.1474 0.5536
C18 C 0.9635(4) -0.0170(3) 0.6039(2)
H19 H 1.0236 -0.0259 0.5725
C19 C 0.9514(3) -0.1090(3) 0.66105(17)
C20 C 1.0410(3) -0.2161(3) 0.67169(19)
H20 H 1.0438 -0.2550 0.7264
H21 H 1.1244 -0.1843 0.6743
C21 C 1.0108(3) -0.3142(2) 0.60228(17)
N1B N 0.29447(19) 0.9240(2) 0.96555(14)
N2B N 0.4825(2) 0.8408(2) 0.97776(15)
C1B C 0.3937(3) 0.8317(3) 1.10695(19)
H1B H 0.3687 0.7473 1.1088
H2B H 0.4776 0.8421 1.1420
H3B H 0.3372 0.8834 1.1281
C2B C 0.3898(2) 0.8663(2) 1.01740(17)
C3B C 0.3258(2) 0.9362(2) 0.88707(17)
C4B C 0.2609(3) 0.9903(3) 0.81061(19)
H4B H 0.1820 1.0255 0.8048
C5B C 0.3190(3) 0.9894(3) 0.7436(2)
H5B H 0.2783 1.0252 0.6916
C6B C 0.4368(3) 0.9364(3) 0.7519(2)
H6B H 0.4727 0.9377 0.7053
C7B C 0.5016(3) 0.8819(3) 0.8273(2)
H7B H 0.5800 0.8458 0.8328
C8B C 0.4436(3) 0.8840(2) 0.89421(18)
C9B C 0.6020(3) 0.7763(3) 1.0117(2)
H8B H 0.6683 0.8187 0.9932
H9B H 0.6224 0.7786 1.0739
C10B C 0.5966(3) 0.6434(3) 0.9822(2)
H10B H 0.6801 0.6079 1.0002
H11B H 0.5714 0.6413 0.9201
C11B C 0.5061(3) 0.5652(3) 1.0170(2)
H12B H 0.4239 0.6038 1.0024
H13B H 0.5346 0.5627 1.0791
Zn1B Zn 0.12908(3) 0.97984(3) 0.98749(2)
O1B O 0.18004(19) 1.0878(2) 1.09532(13)
O2B O -0.01285(19) 1.1093(2) 1.11374(13)
O3B O 0.09563(19) 1.3624(2) 1.41417(14)
O4B O -0.0968(2) 1.3415(2) 1.43258(14)
C12B C 0.1034(3) 1.1227(3) 1.13666(18)
C13B C 0.1553(3) 1.1829(3) 1.22310(19)
H14B H 0.1105 1.2589 1.2267
H15B H 0.2436 1.2023 1.2304
C14B C 0.1397(3) 1.0950(3) 1.29250(18)
C15B C 0.2135(4) 0.9893(3) 1.3052(2)
H16B H 0.2743 0.9791 1.2745
C16B C 0.1986(5) 0.8998(4) 1.3621(3)
H17B H 0.2490 0.8299 1.3694
C17B C 0.1104(5) 0.9130(4) 1.4078(2)
H18B H 0.1002 0.8526 1.4464
C18B C 0.0365(4) 1.0170(3) 1.3961(2)
H19B H -0.0236 1.0259 1.4275
C19B C 0.0486(3) 1.1090(3) 1.33895(17)
C20B C -0.0410(3) 1.2161(3) 1.32831(19)
H20B H -0.0438 1.2550 1.2736
H21B H -0.1244 1.1843 1.3257
C21B C -0.0108(3) 1.3142(2) 1.39772(17)
Zn1_2 Zn -0.12908(3) 1.02016(3) 1.01251(2)
Zn1A Zn 0.12908(3) 1.52016(3) 1.48749(2)
Zn1A_2 Zn 1.12908(3) -0.47984(3) 0.48749(2)
Zn1B_2 Zn 1.12908(3) -0.02016(3) 0.98749(2)
Zn1C Zn -0.12908(3) 1.47984(3) 1.51251(2)
Zn1C_2 Zn 0.87092(3) -0.52016(3) 0.51251(2)
O2_2 O 0.01285(19) 0.8907(2) 0.88626(13)
O2B_2 O 0.98715(19) 0.1093(2) 1.11374(13)
O3A O 0.09563(19) 1.1376(2) 0.91417(14)
O3C O 0.90437(19) -0.1376(2) 1.08583(14)
O4A O 0.9032(2) 0.1585(2) 0.93258(14)
O4C O 0.0968(2) 0.8415(2) 1.06742(14)
loop_
_geom_bond_atom_site_label_1
_geom_bond_atom_site_label_2
_geom_bond_site_symmetry_1
_geom_bond_site_symmetry_2
Zn1 O1 1_555 1_555
O1 C12 1_555 1_555
O2 C12 1_555 1_555
O3 C21 1_555 1_555
O4 C21 1_555 1_555
N1 Zn1 1_555 1_555
N2 C2 1_555 1_555
C1 H1 1_555 1_555
H2 C1 1_555 1_555
H3 C1 1_555 1_555
C2 N1 1_555 1_555
C3 N1 1_555 1_555
C4 C3 1_555 1_555
H4 C4 1_555 1_555
C5 C4 1_555 1_555
H5 C5 1_555 1_555
C6 C5 1_555 1_555
H6 C6 1_555 1_555
C7 C6 1_555 1_555
H7 C7 1_555 1_555
C8 N2 1_555 1_555
C9 N2 1_555 1_555
H8 C9 1_555 1_555
H9 C9 1_555 1_555
C10 C9 1_555 1_555
H10 C10 1_555 1_555
H11 C10 1_555 1_555
C11 C10 1_555 1_555
H12 C11 1_555 1_555
H13 C11 1_555 1_555
C12 C13 1_555 1_555
C13 H14 1_555 1_555
H15 C13 1_555 1_555
C14 C13 1_555 1_555
C15 C14 1_555 1_555
H16 C15 1_555 1_555
C16 C15 1_555 1_555
H17 C16 1_555 1_555
C17 C16 1_555 1_555
H18 C17 1_555 1_555
C18 C17 1_555 1_555
H19 C18 1_555 1_555
C19 C14 1_555 1_555
C20 C19 1_555 1_555
H20 C20 1_555 1_555
H21 C20 1_555 1_555
C21 C20 1_555 1_555
N1B C2B 1_555 1_555
N2B C2B 1_555 1_555
C1B H1B 1_555 1_555
H2B C1B 1_555 1_555
H3B C1B 1_555 1_555
C2B C1B 1_555 1_555
C3B N1B 1_555 1_555
C4B C3B 1_555 1_555
H4B C4B 1_555 1_555
C5B C4B 1_555 1_555
H5B C5B 1_555 1_555
C6B C5B 1_555 1_555
H6B C6B 1_555 1_555
C7B C6B 1_555 1_555
H7B C7B 1_555 1_555
C8B N2B 1_555 1_555
C9B N2B 1_555 1_555
H8B C9B 1_555 1_555
H9B C9B 1_555 1_555
C10B C9B 1_555 1_555
H10B C10B 1_555 1_555
H11B C10B 1_555 1_555
C11B C11 1_555 1_555
H12B C11B 1_555 1_555
H13B C11B 1_555 1_555
Zn1B N1B 1_555 1_555
O1B Zn1B 1_555 1_555
O2B C12B 1_555 1_555
O3B C21B 1_555 1_555
O4B C21B 1_555 1_555
C12B O1B 1_555 1_555
C13B C12B 1_555 1_555
H14B C13B 1_555 1_555
H15B C13B 1_555 1_555
C14B C13B 1_555 1_555
C15B C14B 1_555 1_555
H16B C15B 1_555 1_555
C16B C15B 1_555 1_555
H17B C16B 1_555 1_555
C17B C16B 1_555 1_555
H18B C17B 1_555 1_555
C18B C17B 1_555 1_555
H19B C18B 1_555 1_555
C19B C14B 1_555 1_555
C20B C19B 1_555 1_555
H20B C20B 1_555 1_555
H21B C20B 1_555 1_555
C21B C20B 1_555 1_555
Zn1_2 O2B 1_555 1_555
Zn1A O3B 1_555 1_555
Zn1A_2 O4 1_555 1_555
Zn1B_2 O2 1_555 1_555
Zn1C O4B 1_555 1_555
Zn1C_2 O3 1_555 1_555
O2_2 Zn1B 1_555 1_555
O2B_2 Zn1 1_555 1_555
O3A Zn1B 1_555 1_555
O3C Zn1 1_555 1_555
O4A Zn1 1_555 1_555
O4C Zn1B 1_555 1_555
C1 C2 1_555 1_555
C3 C8 1_555 1_555
C7 C8 1_555 1_555
C18 C19 1_555 1_555
C3B C8B 1_555 1_555
C7B C8B 1_555 1_555
C10B C11B 1_555 1_555
C18B C19B 1_555 1_555

#END
