
#######################################################################
#
#                 Cambridge Crystallographic Data Centre
#                                CCDC 
#
#######################################################################
#
# If this CIF has been generated from an entry in the Cambridge 
# Structural Database, then it will include bibliographic, chemical, 
# crystal, experimental, refinement or atomic coordinate data resulting 
# from the CCDC's data processing and validation procedures.
#
#######################################################################

data_UFULUE01
_symmetry_cell_setting           monoclinic
_symmetry_space_group_name_H-M   'P 2/c'
_symmetry_Int_Tables_number      13
_space_group_name_Hall           '-P 2yc'
loop_
_symmetry_equiv_pos_site_id
_symmetry_equiv_pos_as_xyz
1 x,y,z
2 -x,y,1/2-z
3 -x,-y,-z
4 x,-y,1/2+z
_cell_length_a                   9.2122(18)
_cell_length_b                   10.310(2)
_cell_length_c                   17.092(5)
_cell_angle_alpha                90
_cell_angle_beta                 117.59(2)
_cell_angle_gamma                90
_cell_volume                     1438.76
loop_
_atom_site_label
_atom_site_type_symbol
_atom_site_fract_x
_atom_site_fract_y
_atom_site_fract_z
Zn1 Zn 0.0000 0.43920(4) 0.2500
O1 O 0.2088(2) 0.35084(17) 0.28634(11)
O2 O 0.1294(2) 0.2165(2) 0.35963(12)
N1 N 0.0096(2) 0.56393(19) 0.34579(12)
N2 N -0.0898(2) 0.6917(2) 0.41428(12)
C1 C -0.2652(3) 0.6586(3) 0.25208(18)
H1 H -0.2431 0.7196 0.2165
H2 H -0.3506 0.6918 0.2637
H3 H -0.2992 0.5775 0.2213
C2 C -0.1151(3) 0.6385(2) 0.33651(15)
C3 C 0.1230(3) 0.5701(2) 0.43460(14)
C4 C 0.2747(3) 0.5108(3) 0.47988(16)
H4 H 0.3176 0.4583 0.4514
C5 C 0.3586(3) 0.5339(3) 0.56954(17)
H5 H 0.4617 0.4974 0.6021
C6 C 0.2932(3) 0.6101(3) 0.61238(17)
H6 H 0.3538 0.6219 0.6730
C7 C 0.1432(3) 0.6685(3) 0.56900(16)
H7 H 0.0991 0.7182 0.5982
C8 C 0.0615(3) 0.6485(2) 0.47865(14)
C9 C -0.1996(3) 0.7821(2) 0.42766(17)
H8 H -0.1739 0.7815 0.4895
H9 H -0.3118 0.7527 0.3936
C10 C -0.1854(4) 0.9194(3) 0.4005(2)
H10 H -0.2667 0.9727 0.4062
H11 H -0.2111 0.9191 0.3386
C11 C -0.0186(4) 0.9814(3) 0.45321(18)
H12 H -0.0124 1.0586 0.4225
H13 H 0.0648 0.9215 0.4559
C12 C 0.2214(3) 0.2462(3) 0.32943(15)
C13 C 0.3608(3) 0.1574(3) 0.33991(17)
H14 H 0.3216 0.1001 0.2892
H15 H 0.4477 0.2101 0.3395
C14 C 0.4319(3) 0.0756(3) 0.42269(18)
C15 C 0.3799(4) -0.0495(3) 0.4238(2)
H16 H 0.2983 -0.0849 0.3720
C16 C 0.5541(4) 0.1234(3) 0.5004(2)
H17 H 0.5931 0.2070 0.5018
O1B O 0.7912(2) -0.35084(17) 0.71366(11)
O2B O 0.8706(2) -0.2165(2) 0.64037(12)
C12B C 0.7786(3) -0.2462(3) 0.67057(15)
C13B C 0.6392(3) -0.1574(3) 0.66009(17)
H14B H 0.6784 -0.1001 0.7108
H15B H 0.5523 -0.2101 0.6605
C14B C 0.5681(3) -0.0756(3) 0.57731(18)
C15B C 0.6201(4) 0.0495(3) 0.5762(2)
H16B H 0.7017 0.0849 0.6280
C16B C 0.4459(4) -0.1234(3) 0.4996(2)
H17B H 0.4069 -0.2070 0.4982
N1B N -0.0096(2) 1.43607(19) 0.65421(12)
N2B N 0.0898(2) 1.3083(2) 0.58572(12)
C1B C 0.2652(3) 1.3414(3) 0.74792(18)
H1B H 0.2431 1.2804 0.7835
H2B H 0.3506 1.3082 0.7363
H3B H 0.2992 1.4225 0.7787
C2B C 0.1151(3) 1.3615(2) 0.66349(15)
C3B C -0.1230(3) 1.4299(2) 0.56540(14)
C4B C -0.2747(3) 1.4892(3) 0.52012(16)
H4B H -0.3176 1.5417 0.5486
C5B C -0.3586(3) 1.4661(3) 0.43046(17)
H5B H -0.4617 1.5026 0.3979
C6B C -0.2932(3) 1.3899(3) 0.38762(17)
H6B H -0.3538 1.3781 0.3270
C7B C -0.1432(3) 1.3315(3) 0.43100(16)
H7B H -0.0991 1.2818 0.4018
C8B C -0.0615(3) 1.3515(2) 0.52135(14)
C9B C 0.1996(3) 1.2179(2) 0.57234(17)
H8B H 0.1739 1.2185 0.5105
H9B H 0.3118 1.2473 0.6064
C10B C 0.1854(4) 1.0806(3) 0.5995(2)
H10B H 0.2667 1.0273 0.5938
H11B H 0.2111 1.0809 0.6614
C11B C 0.0186(4) 1.0186(3) 0.54679(18)
H12B H 0.0124 0.9414 0.5775
H13B H -0.0648 1.0785 0.5441
Zn1B Zn 0.0000 1.56080(4) 0.7500
Zn1B_2 Zn 1.0000 -0.43920(4) 0.7500
O1A O -0.2088(2) 0.35084(17) 0.21366(11)
N1A N -0.0096(2) 0.56393(19) 0.15421(12)
O3 O 1.0000 0.9621(13) 0.2500
H18 H 0.9896 1.0320 0.2725
H18A H 1.0104 1.0320 0.2275
H19? H 0.9883 0.8906 0.2708
loop_
_geom_bond_atom_site_label_1
_geom_bond_atom_site_label_2
_geom_bond_site_symmetry_1
_geom_bond_site_symmetry_2
Zn1 O1 1_555 1_555
O1 C12 1_555 1_555
O2 C12 1_555 1_555
N1 Zn1 1_555 1_555
N2 C2 1_555 1_555
C1 H1 1_555 1_555
H2 C1 1_555 1_555
H3 C1 1_555 1_555
C2 N1 1_555 1_555
C3 N1 1_555 1_555
C4 C3 1_555 1_555
H4 C4 1_555 1_555
C5 C4 1_555 1_555
H5 C5 1_555 1_555
C6 C5 1_555 1_555
H6 C6 1_555 1_555
C7 C6 1_555 1_555
H7 C7 1_555 1_555
C8 N2 1_555 1_555
C9 N2 1_555 1_555
H8 C9 1_555 1_555
H9 C9 1_555 1_555
C10 C9 1_555 1_555
H10 C10 1_555 1_555
H11 C10 1_555 1_555
C11 C10 1_555 1_555
H12 C11 1_555 1_555
H13 C11 1_555 1_555
C12 C13 1_555 1_555
C13 H14 1_555 1_555
H15 C13 1_555 1_555
C14 C13 1_555 1_555
C15 C14 1_555 1_555
H16 C15 1_555 1_555
C16 C14 1_555 1_555
H17 C16 1_555 1_555
O3 H18 1_555 1_555
O1B C12B 1_555 1_555
O2B C12B 1_555 1_555
C12B C13B 1_555 1_555
C13B H14B 1_555 1_555
H15B C13B 1_555 1_555
C14B C13B 1_555 1_555
C15B C16 1_555 1_555
H16B C15B 1_555 1_555
C16B C15 1_555 1_555
H17B C16B 1_555 1_555
N1B C2B 1_555 1_555
N2B C2B 1_555 1_555
C1B H1B 1_555 1_555
H2B C1B 1_555 1_555
H3B C1B 1_555 1_555
C2B C1B 1_555 1_555
C3B N1B 1_555 1_555
C4B C3B 1_555 1_555
H4B C4B 1_555 1_555
C5B C4B 1_555 1_555
H5B C5B 1_555 1_555
C6B C5B 1_555 1_555
H6B C6B 1_555 1_555
C7B C6B 1_555 1_555
H7B C7B 1_555 1_555
C8B N2B 1_555 1_555
C9B N2B 1_555 1_555
H8B C9B 1_555 1_555
H9B C9B 1_555 1_555
C10B C9B 1_555 1_555
H10B C10B 1_555 1_555
H11B C10B 1_555 1_555
C11B C11 1_555 1_555
H12B C11B 1_555 1_555
H13B C11B 1_555 1_555
Zn1B N1B 1_555 1_555
Zn1B_2 O1B 1_555 1_555
O1A Zn1 1_555 1_555
N1A Zn1 1_555 1_555
H18A O3 1_555 1_555
C1 C2 1_555 1_555
C3 C8 1_555 1_555
C7 C8 1_555 1_555
C14B C15B 1_555 1_555
C14B C16B 1_555 1_555
C3B C8B 1_555 1_555
C7B C8B 1_555 1_555
C10B C11B 1_555 1_555

#END
