
#######################################################################
#
#                 Cambridge Crystallographic Data Centre
#                                CCDC 
#
#######################################################################
#
# If this CIF has been generated from an entry in the Cambridge 
# Structural Database, then it will include bibliographic, chemical, 
# crystal, experimental, refinement or atomic coordinate data resulting 
# from the CCDC's data processing and validation procedures.
#
#######################################################################

data_UFULEM01
_symmetry_cell_setting           monoclinic
_symmetry_space_group_name_H-M   'P 21/n'
_symmetry_Int_Tables_number      14
_space_group_name_Hall           '-P 2yn'
loop_
_symmetry_equiv_pos_site_id
_symmetry_equiv_pos_as_xyz
1 x,y,z
2 1/2-x,1/2+y,1/2-z
3 -x,-y,-z
4 1/2+x,1/2-y,1/2+z
_cell_length_a                   9.0342(18)
_cell_length_b                   8.2698(17)
_cell_length_c                   11.623(2)
_cell_angle_alpha                90
_cell_angle_beta                 100.90(3)
_cell_angle_gamma                90
_cell_volume                     852.7
loop_
_atom_site_label
_atom_site_type_symbol
_atom_site_fract_x
_atom_site_fract_y
_atom_site_fract_z
Zn1 Zn 0.27961(3) 0.02846(3) 0.40870(2)
O1 O -0.03819(17) 0.22251(18) 0.79099(13)
O2 O -0.07250(19) 0.48715(18) 0.80599(15)
O3 O 0.13698(17) 0.88425(18) 0.56518(14)
O4 O 0.30174(16) 0.80090(18) 0.46085(14)
O5 O 0.07828(18) 0.06440(19) 0.31376(15)
N1 N 0.36438(18) 0.1989(2) 0.52979(15)
H1 H 0.406(2) 0.144(3) 0.5946(13)
H2 H 0.4334(19) 0.250(2) 0.4979(16)
C1 C 0.2706(2) 0.3226(2) 0.56524(17)
C2 C 0.1721(2) 0.2829(2) 0.64016(16)
H3 H 0.1640 0.1764 0.6639
C3 C 0.0861(2) 0.4039(2) 0.67906(16)
C4 C 0.0975(2) 0.5623(2) 0.64232(17)
H4 H 0.0400 0.6427 0.6686
C5 C 0.1940(2) 0.6020(2) 0.56669(16)
C6 C 0.2801(2) 0.4801(2) 0.52787(18)
H5 H 0.3442 0.5053 0.4766
C7 C -0.0160(2) 0.3638(2) 0.76354(17)
C8 C 0.2095(2) 0.7733(2) 0.53018(17)
H6 H 0.066(3) -0.019(2) 0.2714(18)
H7 H 0.013(2) 0.085(3) 0.3546(17)
Zn1_2 Zn 0.27961(3) 1.02846(3) 0.40870(2)
Zn1C Zn -0.22039(3) 0.47154(3) 0.90870(2)
O2C O 0.42750(19) 0.01285(18) 0.30599(15)
O4_2 O 0.30174(16) -0.19910(18) 0.46085(14)
loop_
_geom_bond_atom_site_label_1
_geom_bond_atom_site_label_2
_geom_bond_site_symmetry_1
_geom_bond_site_symmetry_2
Zn1 O5 1_555 1_555
O1 C7 1_555 1_555
O2 C7 1_555 1_555
O3 C8 1_555 1_555
O4 C8 1_555 1_555
O5 H6 1_555 1_555
N1 Zn1 1_555 1_555
H1 N1 1_555 1_555
H2 N1 1_555 1_555
C1 N1 1_555 1_555
C2 C1 1_555 1_555
H3 C2 1_555 1_555
C3 C2 1_555 1_555
C4 C3 1_555 1_555
H4 C4 1_555 1_555
C5 C4 1_555 1_555
C6 C1 1_555 1_555
H5 C6 1_555 1_555
C7 C3 1_555 1_555
C8 C5 1_555 1_555
H7 O5 1_555 1_555
Zn1_2 O4 1_555 1_555
Zn1C O2 1_555 1_555
O2C Zn1 1_555 1_555
O4_2 Zn1 1_555 1_555
C5 C6 1_555 1_555

#END
