
#######################################################################
#
#                 Cambridge Crystallographic Data Centre
#                                CCDC 
#
#######################################################################
#
# If this CIF has been generated from an entry in the Cambridge 
# Structural Database, then it will include bibliographic, chemical, 
# crystal, experimental, refinement or atomic coordinate data resulting 
# from the CCDC's data processing and validation procedures.
#
#######################################################################

data_UFUMAL
_symmetry_cell_setting           monoclinic
_symmetry_space_group_name_H-M   'P 2/c'
_symmetry_Int_Tables_number      13
_space_group_name_Hall           '-P 2yc'
loop_
_symmetry_equiv_pos_site_id
_symmetry_equiv_pos_as_xyz
1 x,y,z
2 -x,y,1/2-z
3 -x,-y,-z
4 x,-y,1/2+z
_cell_length_a                   9.0664(18)
_cell_length_b                   10.293(2)
_cell_length_c                   17.460(5)
_cell_angle_alpha                90
_cell_angle_beta                 115.29(2)
_cell_angle_gamma                90
_cell_volume                     1473.21
loop_
_atom_site_label
_atom_site_type_symbol
_atom_site_fract_x
_atom_site_fract_y
_atom_site_fract_z
Cd1 Cd 0.0000 1.09137(2) 0.2500
N1 N -0.0139(2) 0.94303(19) 0.15087(12)
N2 N 0.0841(2) 0.80969(19) 0.08345(13)
C1 C -0.3578(3) 0.9756(3) -0.06233(17)
H1 H -0.4588 1.0147 -0.0923
C2 C -0.2949(4) 0.8949(3) -0.10509(17)
H2 H -0.3539 0.8831 -0.1631
C3 C -0.1478(3) 0.8323(3) -0.06383(16)
H3 H -0.1060 0.7782 -0.0924
C4 C -0.0648(3) 0.8540(2) 0.02289(15)
C5 C -0.1257(3) 0.9367(2) 0.06578(15)
C6 C -0.2739(3) 0.9990(3) 0.02358(16)
H4 H -0.3153 1.0542 0.0518
C7 C 0.1079(3) 0.8655(2) 0.15813(15)
C8 C 0.2556(3) 0.8434(3) 0.23847(17)
H5 H 0.3034 0.9255 0.2624
H6 H 0.3331 0.7928 0.2272
H7 H 0.2258 0.7976 0.2777
C9 C 0.1941(3) 0.7176(3) 0.06931(19)
H8 H 0.3058 0.7466 0.1006
H9 H 0.1703 0.7174 0.0096
C10 C 0.1781(4) 0.5808(3) 0.0964(2)
H10 H 0.1971 0.5823 0.1554
H11 H 0.2623 0.5274 0.0921
C11 C 0.0137(4) 0.5183(3) 0.04495(18)
H12 H -0.0716 0.5778 0.0419
H13 H 0.0044 0.4406 0.0740
C12 C 0.2511(3) 1.2645(2) 0.32182(15)
C13 C 0.3881(3) 1.3616(3) 0.33972(17)
H14 H 0.4807 1.3158 0.3386
H15 H 0.3523 1.4249 0.2942
C14 C 0.4441(3) 1.4328(3) 0.42210(17)
C15 C 0.5467(4) 1.3741(3) 0.49733(18)
H16 H 0.5798 1.2888 0.4965
C16 C 0.3985(4) 1.5603(3) 0.42598(18)
H17 H 0.3301 1.6026 0.3764
O1 O 0.2501(2) 1.16687(19) 0.27859(12)
O2 O 0.1433(2) 1.2841(2) 0.34626(12)
N1B N 0.0139(2) 0.05697(19) -0.15087(12)
N2B N -0.0841(2) 0.19031(19) -0.08345(13)
C1B C 0.3578(3) 0.0244(3) 0.06233(17)
H1B H 0.4588 -0.0147 0.0923
C2B C 0.2949(4) 0.1051(3) 0.10509(17)
H2B H 0.3539 0.1169 0.1631
C3B C 0.1478(3) 0.1677(3) 0.06383(16)
H3B H 0.1060 0.2218 0.0924
C4B C 0.0648(3) 0.1460(2) -0.02289(15)
C5B C 0.1257(3) 0.0633(2) -0.06578(15)
C6B C 0.2739(3) 0.0010(3) -0.02358(16)
H4B H 0.3153 -0.0542 -0.0518
C7B C -0.1079(3) 0.1345(2) -0.15813(15)
C8B C -0.2556(3) 0.1566(3) -0.23847(17)
H5B H -0.3034 0.0745 -0.2624
H6B H -0.3331 0.2072 -0.2272
H7B H -0.2258 0.2024 -0.2777
C9B C -0.1941(3) 0.2824(3) -0.06931(19)
H8B H -0.3058 0.2534 -0.1006
H9B H -0.1703 0.2826 -0.0096
C10B C -0.1781(4) 0.4192(3) -0.0964(2)
H10B H -0.1971 0.4177 -0.1554
H11B H -0.2623 0.4726 -0.0921
C11B C -0.0137(4) 0.4817(3) -0.04495(18)
H12B H 0.0716 0.4222 -0.0419
H13B H -0.0044 0.5594 -0.0740
C12B C 0.7489(3) 1.7355(2) 0.67818(15)
C13B C 0.6119(3) 1.6384(3) 0.66028(17)
H14B H 0.5193 1.6842 0.6614
H15B H 0.6477 1.5751 0.7058
C14B C 0.5559(3) 1.5672(3) 0.57790(17)
C15B C 0.4533(4) 1.6259(3) 0.50267(18)
H16B H 0.4202 1.7112 0.5035
C16B C 0.6015(4) 1.4397(3) 0.57402(18)
H17B H 0.6699 1.3974 0.6236
O1B O 0.7499(2) 1.83313(19) 0.72141(12)
O2B O 0.8567(2) 1.7159(2) 0.65374(12)
Cd1B Cd 0.0000 -0.09137(2) -0.2500
Cd1B_2 Cd 1.0000 1.90863(2) 0.7500
N1A N 0.0139(2) 0.94303(19) 0.34913(12)
O1A O -0.2501(2) 1.16687(19) 0.22141(12)
O2A O -0.1433(2) 1.2841(2) 0.15374(12)
O3 O 1.0000 0.5372(4) 0.2500
H18 H 0.957(5) 0.492(4) 0.2051(17)
H18A H 1.043(5) 0.492(4) 0.2949(17)
loop_
_geom_bond_atom_site_label_1
_geom_bond_atom_site_label_2
_geom_bond_site_symmetry_1
_geom_bond_site_symmetry_2
Cd1 N1 1_555 1_555
N1 C5 1_555 1_555
N2 C4 1_555 1_555
C1 H1 1_555 1_555
C2 C1 1_555 1_555
H2 C2 1_555 1_555
C3 C2 1_555 1_555
H3 C3 1_555 1_555
C4 C3 1_555 1_555
C5 C4 1_555 1_555
C6 C1 1_555 1_555
H4 C6 1_555 1_555
C7 N1 1_555 1_555
C8 C7 1_555 1_555
H5 C8 1_555 1_555
H6 C8 1_555 1_555
H7 C8 1_555 1_555
C9 N2 1_555 1_555
H8 C9 1_555 1_555
H9 C9 1_555 1_555
C10 C9 1_555 1_555
H10 C10 1_555 1_555
H11 C10 1_555 1_555
C11 C10 1_555 1_555
H12 C11 1_555 1_555
H13 C11 1_555 1_555
C12 C13 1_555 1_555
C13 H14 1_555 1_555
H15 C13 1_555 1_555
C14 C13 1_555 1_555
C15 C14 1_555 1_555
H16 C15 1_555 1_555
C16 C14 1_555 1_555
H17 C16 1_555 1_555
O1 Cd1 1_555 1_555
O2 Cd1 1_555 1_555
O3 H18 1_555 1_555
N1B C5B 1_555 1_555
N2B C4B 1_555 1_555
C1B H1B 1_555 1_555
C2B C1B 1_555 1_555
H2B C2B 1_555 1_555
C3B C2B 1_555 1_555
H3B C3B 1_555 1_555
C4B C3B 1_555 1_555
C5B C4B 1_555 1_555
C6B C1B 1_555 1_555
H4B C6B 1_555 1_555
C7B N1B 1_555 1_555
C8B C7B 1_555 1_555
H5B C8B 1_555 1_555
H6B C8B 1_555 1_555
H7B C8B 1_555 1_555
C9B N2B 1_555 1_555
H8B C9B 1_555 1_555
H9B C9B 1_555 1_555
C10B C9B 1_555 1_555
H10B C10B 1_555 1_555
H11B C10B 1_555 1_555
C11B C11 1_555 1_555
H12B C11B 1_555 1_555
H13B C11B 1_555 1_555
C12B C13B 1_555 1_555
C13B H14B 1_555 1_555
H15B C13B 1_555 1_555
C14B C13B 1_555 1_555
C15B C16 1_555 1_555
H16B C15B 1_555 1_555
C16B C15 1_555 1_555
H17B C16B 1_555 1_555
O1B C12B 1_555 1_555
O2B C12B 1_555 1_555
Cd1B N1B 1_555 1_555
Cd1B_2 O1B 1_555 1_555
N1A Cd1 1_555 1_555
O1A Cd1 1_555 1_555
O2A Cd1 1_555 1_555
H18A O3 1_555 1_555
N2 C7 1_555 1_555
C5 C6 1_555 1_555
C12 O1 1_555 1_555
C12 O2 1_555 1_555
N2B C7B 1_555 1_555
C5B C6B 1_555 1_555
C10B C11B 1_555 1_555
C14B C15B 1_555 1_555
C14B C16B 1_555 1_555
O2B Cd1B_2 1_555 1_555

#END
