
#######################################################################
#
#                 Cambridge Crystallographic Data Centre
#                                CCDC 
#
#######################################################################
#
# If this CIF has been generated from an entry in the Cambridge 
# Structural Database, then it will include bibliographic, chemical, 
# crystal, experimental, refinement or atomic coordinate data resulting 
# from the CCDC's data processing and validation procedures.
#
#######################################################################

data_UFUMOZ
_symmetry_cell_setting           triclinic
_symmetry_space_group_name_H-M   'P -1'
_symmetry_Int_Tables_number      2
_space_group_name_Hall           '-P 1'
loop_
_symmetry_equiv_pos_site_id
_symmetry_equiv_pos_as_xyz
1 x,y,z
2 -x,-y,-z
_cell_length_a                   14.083(3)
_cell_length_b                   14.906(3)
_cell_length_c                   16.326(3)
_cell_angle_alpha                97.91(3)
_cell_angle_beta                 95.29(3)
_cell_angle_gamma                95.71(3)
_cell_volume                     3358.17
loop_
_atom_site_label
_atom_site_type_symbol
_atom_site_fract_x
_atom_site_fract_y
_atom_site_fract_z
Zn1 Zn 0.29441(6) 0.39015(5) 0.54901(5)
Zn2 Zn 0.62418(6) -0.26922(6) 0.93714(5)
S1 S 0.78308(14) 0.08855(13) 0.58655(13)
S2 S -0.06533(16) 0.25865(14) 0.92380(14)
O1 O 0.7871(4) 0.0457(4) 0.5024(4)
O2 O 0.8624(4) 0.1491(4) 0.6268(4)
O3 O 0.4306(4) 0.3627(3) 0.5558(4)
O4 O 0.3479(4) 0.2319(4) 0.5619(4)
O5 O 0.1993(4) 0.3669(4) 0.6256(3)
O6 O 0.3166(4) 0.3857(4) 0.7297(4)
O7 O -0.1230(4) 0.1756(4) 0.8897(4)
O8 O -0.0205(5) 0.2682(4) 1.0082(4)
O9 O -0.2925(5) 0.6347(4) 0.9104(4)
O10 O -0.3761(5) 0.5627(4) 0.9950(4)
O11 O 0.6648(4) -0.1721(4) 0.8735(3)
O12 O 0.6124(5) -0.2693(4) 0.7599(4)
N1 N 0.3021(4) 0.5292(4) 0.5548(4)
N2 N 0.3408(5) 0.6759(4) 0.5993(4)
N3 N 0.2162(4) 0.3286(4) 0.4411(4)
N4 N 0.1465(5) 0.2926(5) 0.3116(4)
N5 N 0.3028(6) 1.1528(5) 0.8123(4)
N6 N 0.3232(4) 1.2043(4) 0.9466(4)
N7 N -0.4800(4) 0.2852(4) 0.0769(4)
N8 N -0.3292(5) 0.3340(5) 0.1211(5)
C1 C 0.0947(6) 0.6975(6) 0.5092(6)
H1 H 0.0500 0.7379 0.5003
C2 C 0.1817(6) 0.7294(6) 0.5518(6)
H2 H 0.1973 0.7912 0.5714
C3 C 0.2465(5) 0.6674(5) 0.5653(5)
C4 C 0.2231(5) 0.5745(5) 0.5359(5)
C5 C 0.1347(6) 0.5438(6) 0.4922(5)
H3 H 0.1185 0.4822 0.4721
C6 C 0.0714(6) 0.6054(7) 0.4788(6)
H4 H 0.0119 0.5854 0.4489
C7 C 0.3704(5) 0.5913(5) 0.5927(5)
C8 C 0.4703(6) 0.5759(6) 0.6220(5)
H5 H 0.4722 0.5126 0.6271
H6 H 0.4900 0.6124 0.6752
H7 H 0.5129 0.5927 0.5827
C9 C 0.3980(7) 0.7647(6) 0.6268(6)
H8 H 0.3798 0.8068 0.5894
H9 H 0.4653 0.7576 0.6231
C10 C 0.3862(8) 0.8036(7) 0.7112(7)
H10 H 0.4142 0.7667 0.7495
H11 H 0.3183 0.8017 0.7174
C11 C 0.4340(8) 0.9042(7) 0.7346(8)
H12 H 0.4659 0.9129 0.7908
H13 H 0.4821 0.9160 0.6974
C12 C 0.3621(9) 0.9693(7) 0.7291(8)
H14 H 0.3149 0.9460 0.6819
H15 H 0.3289 0.9722 0.7787
C13 C 0.3995(10) 1.0596(7) 0.7204(8)
H16 H 0.4252 1.0580 0.6672
H17 H 0.4524 1.0802 0.7635
C14 C 0.3233(9) 1.1321(8) 0.7261(7)
H18 H 0.3488 1.1874 0.7068
H19 H 0.2646 1.1074 0.6909
C15 C 0.2233(6) 1.1161(5) 0.8454(5)
C16 C 0.1416(8) 1.0610(7) 0.8097(7)
H20 H 0.1339 1.0357 0.7538
C17 C 0.0728(8) 1.0457(7) 0.8610(10)
H21 H 0.0144 1.0133 0.8379
C18 C 0.0849(8) 1.0750(7) 0.9441(8)
H22 H 0.0361 1.0602 0.9762
C19 C 0.1681(6) 1.1264(6) 0.9818(6)
H23 H 0.1772 1.1452 1.0390
C20 C 0.2378(6) 1.1490(5) 0.9307(5)
C21 C 0.3596(6) 1.2050(5) 0.8744(5)
C22 C 0.4486(7) 1.2617(6) 0.8614(6)
H24 H 0.4718 1.3022 0.9117
H25 H 0.4347 1.2966 0.8175
H26 H 0.4966 1.2228 0.8466
C23 C 0.2339(6) 0.3644(5) 0.7010(5)
C24 C 0.1596(5) 0.3315(5) 0.7558(4)
C25 C 0.1838(5) 0.3409(5) 0.8408(4)
H27 H 0.2460 0.3635 0.8636
C26 C 0.1154(6) 0.3167(5) 0.8924(4)
H28 H 0.1317 0.3227 0.9496
C27 C 0.0225(5) 0.2835(5) 0.8579(5)
C28 C 0.0002(6) 0.2722(6) 0.7751(5)
H29 H -0.0616 0.2480 0.7524
C29 C 0.0675(6) 0.2959(6) 0.7231(5)
H30 H 0.0507 0.2879 0.6659
C30 C -0.1383(6) 0.3474(5) 0.9197(5)
C31 C -0.2368(6) 0.3309(6) 0.9205(6)
H31 H -0.2659 0.2713 0.9144
C32 C -0.2915(6) 0.4019(6) 0.9301(7)
H32 H -0.3569 0.3903 0.9340
C33 C -0.2501(6) 0.4906(5) 0.9342(5)
C34 C -0.1526(6) 0.5083(5) 0.9286(6)
H33 H -0.1250 0.5677 0.9288
C35 C -0.0973(6) 0.4377(6) 0.9229(6)
H34 H -0.0315 0.4498 0.9211
C36 C -0.3119(7) 0.5689(6) 0.9479(5)
C37 C 0.2709(6) 0.4281(6) 0.3399(5)
H35 H 0.3099 0.4618 0.3877
H36 H 0.2294 0.4672 0.3161
H37 H 0.3115 0.4055 0.2994
C38 C 0.2125(5) 0.3508(5) 0.3650(4)
C39 C 0.1514(5) 0.2494(4) 0.4369(4)
C40 C 0.1268(6) 0.1962(5) 0.4953(5)
H38 H 0.1552 0.2106 0.5499
C41 C 0.0598(6) 0.1216(5) 0.4727(6)
H39 H 0.0436 0.0841 0.5116
C42 C 0.0164(8) 0.1021(7) 0.3913(8)
H40 H -0.0293 0.0515 0.3772
C43 C 0.0374(6) 0.1530(6) 0.3318(6)
H41 H 0.0076 0.1377 0.2777
C44 C 0.1047(5) 0.2289(5) 0.3538(5)
C45 C 0.1181(8) 0.3011(9) 0.2240(6)
H42 H 0.1667 0.3417 0.2050
H43 H 0.1153 0.2417 0.1904
C46 C 0.0282(9) 0.3347(10) 0.2121(8)
H44 H -0.0176 0.2804 0.1993
H45 H 0.0300 0.3601 0.1606
C47 C -0.0184(10) 0.3970(9) 0.2637(8)
H46 H 0.0329 0.4441 0.2878
H47 H -0.0341 0.3641 0.3089
C48 C -0.0995(9) 0.4468(8) 0.2503(8)
H48 H -0.0884 0.4812 0.2052
H49 H -0.1008 0.4906 0.2999
C49 C -0.1998(9) 0.3928(8) 0.2300(8)
H50 H -0.1955 0.3291 0.2346
H51 H -0.2420 0.4159 0.2696
C50 C -0.2400(8) 0.4009(7) 0.1448(7)
H52 H -0.1932 0.3881 0.1061
H53 H -0.2558 0.4625 0.1426
C51 C -0.4500(7) 0.4452(5) 0.1489(6)
H54 H -0.4407 0.4865 0.1094
H55 H -0.4115 0.4691 0.2003
H56 H -0.5165 0.4382 0.1583
C52 C -0.4215(6) 0.3560(5) 0.1162(5)
C53 C -0.3289(6) 0.2457(6) 0.0847(6)
C54 C -0.2547(7) 0.1918(7) 0.0751(7)
H57 H -0.1919 0.2135 0.0969
C55 C -0.2771(8) 0.1061(6) 0.0327(8)
H58 H -0.2290 0.0684 0.0246
C56 C -0.3717(8) 0.0742(6) 0.0013(7)
H59 H -0.3856 0.0155 -0.0278
C57 C -0.4450(7) 0.1282(6) 0.0127(6)
H60 H -0.5076 0.1068 -0.0095
C58 C -0.4238(6) 0.2145(5) 0.0575(5)
C59 C 0.4250(6) 0.2806(5) 0.5636(5)
C60 C 0.5168(5) 0.2366(5) 0.5736(5)
C61 C 0.6033(5) 0.2851(5) 0.6002(5)
H61 H 0.6073 0.3481 0.6138
C62 C 0.6870(6) 0.2416(5) 0.6076(6)
H62 H 0.7462 0.2749 0.6266
C63 C 0.6793(6) 0.1484(5) 0.5860(5)
C64 C 0.5919(7) 0.0996(6) 0.5582(7)
H63 H 0.5879 0.0367 0.5432
C65 C 0.5084(6) 0.1432(5) 0.5521(6)
H64 H 0.4489 0.1100 0.5341
C66 C 0.7530(5) 0.0047(5) 0.6486(5)
C67 C 0.7649(6) 0.0241(5) 0.7329(5)
H65 H 0.7942 0.0810 0.7585
C68 C 0.7336(6) -0.0405(5) 0.7810(5)
H66 H 0.7423 -0.0265 0.8387
C69 C 0.6901(5) -0.1247(5) 0.7444(4)
C70 C 0.6791(5) -0.1464(5) 0.6567(4)
H67 H 0.6496 -0.2032 0.6311
C71 C 0.7125(5) -0.0823(5) 0.6093(5)
H68 H 0.7083 -0.0968 0.5517
C72 C 0.6517(5) -0.1954(5) 0.7938(5)
Zn2_2 Zn -0.37582(6) 0.73078(6) 0.93714(5)
Zn2A Zn -0.62418(6) 0.26922(6) 0.06286(5)
Zn2A_2 Zn 0.37582(6) 1.26922(6) 1.06286(5)
O9_2 O 0.7075(5) -0.3653(4) 0.9104(4)
N6A N 0.6768(4) -0.2043(4) 1.0534(4)
N7A N 0.4800(4) -0.2852(4) 0.9231(4)
loop_
_geom_bond_atom_site_label_1
_geom_bond_atom_site_label_2
_geom_bond_site_symmetry_1
_geom_bond_site_symmetry_2
Zn1 O3 1_555 1_555
Zn2 O11 1_555 1_555
S1 O1 1_555 1_555
S2 O7 1_555 1_555
O2 S1 1_555 1_555
O3 C59 1_555 1_555
O4 Zn1 1_555 1_555
O5 Zn1 1_555 1_555
O6 C23 1_555 1_555
O8 S2 1_555 1_555
O9 C36 1_555 1_555
O10 C36 1_555 1_555
O11 C72 1_555 1_555
O12 C72 1_555 1_555
N1 Zn1 1_555 1_555
N2 C3 1_555 1_555
N3 Zn1 1_555 1_555
N4 C38 1_555 1_555
N5 C14 1_555 1_555
N6 C20 1_555 1_555
N7 C52 1_555 1_555
N8 C50 1_555 1_555
C1 H1 1_555 1_555
C2 C1 1_555 1_555
H2 C2 1_555 1_555
C3 C2 1_555 1_555
C4 N1 1_555 1_555
C5 C4 1_555 1_555
H3 C5 1_555 1_555
C6 C1 1_555 1_555
H4 C6 1_555 1_555
C7 N1 1_555 1_555
C8 C7 1_555 1_555
H5 C8 1_555 1_555
H6 C8 1_555 1_555
H7 C8 1_555 1_555
C9 N2 1_555 1_555
H8 C9 1_555 1_555
H9 C9 1_555 1_555
C10 C9 1_555 1_555
H10 C10 1_555 1_555
H11 C10 1_555 1_555
C11 C10 1_555 1_555
H12 C11 1_555 1_555
H13 C11 1_555 1_555
C12 C11 1_555 1_555
H14 C12 1_555 1_555
H15 C12 1_555 1_555
C13 C12 1_555 1_555
H16 C13 1_555 1_555
H17 C13 1_555 1_555
C14 C13 1_555 1_555
H18 C14 1_555 1_555
H19 C14 1_555 1_555
C15 N5 1_555 1_555
C16 C15 1_555 1_555
H20 C16 1_555 1_555
C17 C16 1_555 1_555
H21 C17 1_555 1_555
C18 C17 1_555 1_555
H22 C18 1_555 1_555
C19 C18 1_555 1_555
H23 C19 1_555 1_555
C20 C15 1_555 1_555
C21 N5 1_555 1_555
C22 C21 1_555 1_555
H24 C22 1_555 1_555
H25 C22 1_555 1_555
H26 C22 1_555 1_555
C23 O5 1_555 1_555
C24 C23 1_555 1_555
C25 C24 1_555 1_555
H27 C25 1_555 1_555
C26 C25 1_555 1_555
H28 C26 1_555 1_555
C27 S2 1_555 1_555
C28 C27 1_555 1_555
H29 C28 1_555 1_555
C29 C24 1_555 1_555
H30 C29 1_555 1_555
C30 S2 1_555 1_555
C31 C30 1_555 1_555
H31 C31 1_555 1_555
C32 C31 1_555 1_555
H32 C32 1_555 1_555
C33 C32 1_555 1_555
C34 C33 1_555 1_555
H33 C34 1_555 1_555
C35 C30 1_555 1_555
H34 C35 1_555 1_555
C36 C33 1_555 1_555
C37 H35 1_555 1_555
H36 C37 1_555 1_555
H37 C37 1_555 1_555
C38 N3 1_555 1_555
C39 N3 1_555 1_555
C40 C39 1_555 1_555
H38 C40 1_555 1_555
C41 C40 1_555 1_555
H39 C41 1_555 1_555
C42 C41 1_555 1_555
H40 C42 1_555 1_555
C43 C42 1_555 1_555
H41 C43 1_555 1_555
C44 N4 1_555 1_555
C45 N4 1_555 1_555
H42 C45 1_555 1_555
H43 C45 1_555 1_555
C46 C45 1_555 1_555
H44 C46 1_555 1_555
H45 C46 1_555 1_555
C47 C46 1_555 1_555
H46 C47 1_555 1_555
H47 C47 1_555 1_555
C48 C47 1_555 1_555
H48 C48 1_555 1_555
H49 C48 1_555 1_555
C49 C48 1_555 1_555
H50 C49 1_555 1_555
H51 C49 1_555 1_555
C50 C49 1_555 1_555
H52 C50 1_555 1_555
H53 C50 1_555 1_555
C51 H54 1_555 1_555
H55 C51 1_555 1_555
H56 C51 1_555 1_555
C52 N8 1_555 1_555
C53 N8 1_555 1_555
C54 C53 1_555 1_555
H57 C54 1_555 1_555
C55 C54 1_555 1_555
H58 C55 1_555 1_555
C56 C55 1_555 1_555
H59 C56 1_555 1_555
C57 C56 1_555 1_555
H60 C57 1_555 1_555
C58 N7 1_555 1_555
C59 O4 1_555 1_555
C60 C59 1_555 1_555
C61 C60 1_555 1_555
H61 C61 1_555 1_555
C62 C61 1_555 1_555
H62 C62 1_555 1_555
C63 S1 1_555 1_555
C64 C63 1_555 1_555
H63 C64 1_555 1_555
C65 C60 1_555 1_555
H64 C65 1_555 1_555
C66 S1 1_555 1_555
C67 C66 1_555 1_555
H65 C67 1_555 1_555
C68 C67 1_555 1_555
H66 C68 1_555 1_555
C69 C68 1_555 1_555
C70 C69 1_555 1_555
H67 C70 1_555 1_555
C71 C66 1_555 1_555
H68 C71 1_555 1_555
C72 C69 1_555 1_555
Zn2_2 O9 1_555 1_555
Zn2A N7 1_555 1_555
Zn2A_2 N6 1_555 1_555
O9_2 Zn2 1_555 1_555
N6A Zn2 1_555 1_555
N7A Zn2 1_555 1_555
N2 C7 1_555 1_555
N6 C21 1_555 1_555
C3 C4 1_555 1_555
C5 C6 1_555 1_555
C19 C20 1_555 1_555
C26 C27 1_555 1_555
C28 C29 1_555 1_555
C34 C35 1_555 1_555
C37 C38 1_555 1_555
C39 C44 1_555 1_555
C43 C44 1_555 1_555
C51 C52 1_555 1_555
C53 C58 1_555 1_555
C57 C58 1_555 1_555
C62 C63 1_555 1_555
C64 C65 1_555 1_555
C70 C71 1_555 1_555

#END
