
#######################################################################
#
#                 Cambridge Crystallographic Data Centre
#                                CCDC 
#
#######################################################################
#
# If this CIF has been generated from an entry in the Cambridge 
# Structural Database, then it will include bibliographic, chemical, 
# crystal, experimental, refinement or atomic coordinate data resulting 
# from the CCDC's data processing and validation procedures.
#
#######################################################################

data_UFUMUF
_symmetry_cell_setting           monoclinic
_symmetry_space_group_name_H-M   'C 2/c'
_symmetry_Int_Tables_number      15
_space_group_name_Hall           '-C 2yn'
loop_
_symmetry_equiv_pos_site_id
_symmetry_equiv_pos_as_xyz
1 x,y,z
2 -x,y,1/2-z
3 1/2+x,1/2+y,z
4 1/2-x,1/2+y,1/2-z
5 -x,-y,-z
6 x,-y,1/2+z
7 1/2-x,1/2-y,-z
8 1/2+x,1/2-y,1/2+z
_cell_length_a                   19.456(4)
_cell_length_b                   22.000(4)
_cell_length_c                   16.095(3)
_cell_angle_alpha                90
_cell_angle_beta                 99.83(3)
_cell_angle_gamma                90
_cell_volume                     6788.03
loop_
_atom_site_label
_atom_site_type_symbol
_atom_site_fract_x
_atom_site_fract_y
_atom_site_fract_z
Cd1 Cd 0.15545(3) 0.45454(3) 0.43622(4)
S1 S 0.41923(12) 0.34652(9) 0.07520(14)
O1 O 0.2396(3) 0.3995(3) 0.3844(4)
O2 O 0.1720(3) 0.4524(3) 0.2866(4)
O3 O 0.4199(4) 0.0398(3) 0.0732(6)
O4 O 0.3101(4) 0.0572(3) 0.0673(5)
O5 O 0.3920(3) 0.3652(3) -0.0088(4)
O6 O 0.4907(3) 0.3598(3) 0.1105(4)
N1 N 0.0763(3) 0.3801(3) 0.4340(4)
N2 N -0.0155(4) 0.3224(4) 0.3896(5)
N3 N -0.2727(3) 0.0518(3) 0.0632(4)
N4 N -0.2236(4) 0.0705(3) 0.1963(5)
C1 C -0.3542(5) 0.0792(5) 0.1599(6)
H1 H -0.3892 0.0715 0.1113
H2 H -0.3570 0.1208 0.1769
H3 H -0.3618 0.0529 0.2051
C2 C -0.2835(5) 0.0671(4) 0.1385(6)
C3 C -0.2012(4) 0.0433(3) 0.0719(6)
C4 C -0.1602(5) 0.0249(4) 0.0135(7)
H4 H -0.1805 0.0167 -0.0420
C5 C -0.0909(6) 0.0190(6) 0.0382(9)
H5 H -0.0631 0.0076 -0.0008
C6 C -0.0603(6) 0.0301(6) 0.1221(11)
H6 H -0.0125 0.0245 0.1386
C7 C -0.0993(6) 0.0489(5) 0.1795(9)
H7 H -0.0786 0.0576 0.2347
C8 C -0.1700(5) 0.0548(4) 0.1545(6)
C9 C -0.2173(7) 0.0913(6) 0.2833(8)
H8 H -0.1723 0.0788 0.3144
H9 H -0.2531 0.0719 0.3093
C10 C -0.2242(7) 0.1598(6) 0.2900(9)
H10 H -0.2705 0.1714 0.2620
H11 H -0.2206 0.1704 0.3491
C11 C -0.1739(7) 0.1955(6) 0.2548(9)
H12 H -0.1737 0.1805 0.1982
H13 H -0.1284 0.1866 0.2875
C12 C -0.1805(6) 0.2633(5) 0.2491(9)
H14 H -0.2105 0.2778 0.2871
H15 H -0.2007 0.2752 0.1921
C13 C -0.1031(6) 0.2920(6) 0.2748(8)
H16 H -0.0685 0.2640 0.2604
H17 H -0.0998 0.3298 0.2445
C14 C -0.0912(5) 0.3028(5) 0.3612(7)
H18 H -0.1004 0.2661 0.3909
H19 H -0.1223 0.3344 0.3745
C15 C -0.0319(5) 0.4342(4) 0.3665(8)
H20 H -0.0607 0.4445 0.4074
H21 H -0.0610 0.4256 0.3134
H22 H -0.0016 0.4676 0.3601
C16 C 0.0104(5) 0.3799(4) 0.3955(6)
C17 C 0.0366(4) 0.2825(4) 0.4223(6)
C18 C 0.0401(6) 0.2205(4) 0.4323(7)
H23 H 0.0023 0.1960 0.4105
C19 C 0.1013(6) 0.1950(4) 0.4757(7)
H24 H 0.1050 0.1532 0.4837
C20 C 0.1558(6) 0.2321(5) 0.5061(7)
H25 H 0.1959 0.2144 0.5362
C21 C 0.1553(5) 0.2943(4) 0.4952(6)
H26 H 0.1939 0.3180 0.5160
C22 C 0.0946(4) 0.3197(4) 0.4519(5)
C23 C 0.2247(5) 0.4198(4) 0.3111(6)
C24 C 0.2743(4) 0.4046(4) 0.2512(5)
C25 C 0.3400(5) 0.3822(4) 0.2811(6)
H27 H 0.3542 0.3785 0.3390
C26 C 0.3847(4) 0.3654(4) 0.2291(5)
H28 H 0.4281 0.3489 0.2507
C27 C 0.3641(4) 0.3735(3) 0.1433(5)
C28 C 0.2992(4) 0.3961(3) 0.1106(5)
H29 H 0.2853 0.3997 0.0526
C29 C 0.2548(4) 0.4134(3) 0.1650(5)
H30 H 0.2119 0.4309 0.1438
C30 C 0.4087(4) 0.2661(4) 0.0795(6)
C31 C 0.3421(5) 0.2439(4) 0.0604(6)
H31 H 0.3045 0.2704 0.0487
C32 C 0.3308(5) 0.1815(4) 0.0588(7)
H32 H 0.2856 0.1666 0.0453
C33 C 0.3849(5) 0.1422(4) 0.0765(6)
C34 C 0.4531(5) 0.1661(5) 0.0985(7)
H33 H 0.4910 0.1401 0.1122
C35 C 0.4632(5) 0.2288(4) 0.0996(7)
H34 H 0.5079 0.2447 0.1144
C36 C 0.3725(6) 0.0741(4) 0.0719(6)
Cd1C Cd 0.34455(3) -0.04546(3) 0.06378(4)
Cd1G Cd -0.34455(3) 0.04546(3) -0.06378(4)
O3C O 0.0801(4) 0.5398(3) 0.4268(6)
O4C O 0.1899(4) 0.5572(3) 0.4327(5)
N3G N 0.2273(3) 0.4482(3) 0.5632(4)
loop_
_geom_bond_atom_site_label_1
_geom_bond_atom_site_label_2
_geom_bond_site_symmetry_1
_geom_bond_site_symmetry_2
Cd1 O1 1_555 1_555
S1 O5 1_555 1_555
O1 C23 1_555 1_555
O2 Cd1 1_555 1_555
O3 C36 1_555 1_555
O4 C36 1_555 1_555
O6 S1 1_555 1_555
N1 Cd1 1_555 1_555
N2 C14 1_555 1_555
N3 C2 1_555 1_555
N4 C2 1_555 1_555
C1 H1 1_555 1_555
H2 C1 1_555 1_555
H3 C1 1_555 1_555
C2 C1 1_555 1_555
C3 N3 1_555 1_555
C4 C3 1_555 1_555
H4 C4 1_555 1_555
C5 C4 1_555 1_555
H5 C5 1_555 1_555
C6 C5 1_555 1_555
H6 C6 1_555 1_555
C7 C6 1_555 1_555
H7 C7 1_555 1_555
C8 N4 1_555 1_555
C9 N4 1_555 1_555
H8 C9 1_555 1_555
H9 C9 1_555 1_555
C10 C9 1_555 1_555
H10 C10 1_555 1_555
H11 C10 1_555 1_555
C11 C10 1_555 1_555
H12 C11 1_555 1_555
H13 C11 1_555 1_555
C12 C11 1_555 1_555
H14 C12 1_555 1_555
H15 C12 1_555 1_555
C13 C12 1_555 1_555
H16 C13 1_555 1_555
H17 C13 1_555 1_555
C14 C13 1_555 1_555
H18 C14 1_555 1_555
H19 C14 1_555 1_555
C15 H20 1_555 1_555
H21 C15 1_555 1_555
H22 C15 1_555 1_555
C16 N1 1_555 1_555
C17 N2 1_555 1_555
C18 C17 1_555 1_555
H23 C18 1_555 1_555
C19 C18 1_555 1_555
H24 C19 1_555 1_555
C20 C19 1_555 1_555
H25 C20 1_555 1_555
C21 C20 1_555 1_555
H26 C21 1_555 1_555
C22 N1 1_555 1_555
C23 O2 1_555 1_555
C24 C23 1_555 1_555
C25 C24 1_555 1_555
H27 C25 1_555 1_555
C26 C25 1_555 1_555
H28 C26 1_555 1_555
C27 S1 1_555 1_555
C28 C27 1_555 1_555
H29 C28 1_555 1_555
C29 C24 1_555 1_555
H30 C29 1_555 1_555
C30 S1 1_555 1_555
C31 C30 1_555 1_555
H31 C31 1_555 1_555
C32 C31 1_555 1_555
H32 C32 1_555 1_555
C33 C32 1_555 1_555
C34 C33 1_555 1_555
H33 C34 1_555 1_555
C35 C30 1_555 1_555
H34 C35 1_555 1_555
C36 C33 1_555 1_555
Cd1C O3 1_555 1_555
Cd1G N3 1_555 1_555
O3C Cd1 1_555 1_555
O4C Cd1 1_555 1_555
N3G Cd1 1_555 1_555
O4 Cd1C 1_555 1_555
N2 C16 1_555 1_555
C3 C8 1_555 1_555
C7 C8 1_555 1_555
C15 C16 1_555 1_555
C17 C22 1_555 1_555
C21 C22 1_555 1_555
C26 C27 1_555 1_555
C28 C29 1_555 1_555
C34 C35 1_555 1_555

#END
