
#######################################################################
#
#                 Cambridge Crystallographic Data Centre
#                                CCDC 
#
#######################################################################
#
# If this CIF has been generated from an entry in the Cambridge 
# Structural Database, then it will include bibliographic, chemical, 
# crystal, experimental, refinement or atomic coordinate data resulting 
# from the CCDC's data processing and validation procedures.
#
#######################################################################

data_UFUNOY
_symmetry_cell_setting           monoclinic
_symmetry_space_group_name_H-M   'P 21/n'
_symmetry_Int_Tables_number      14
_space_group_name_Hall           '-P 2yn'
loop_
_symmetry_equiv_pos_site_id
_symmetry_equiv_pos_as_xyz
1 x,y,z
2 1/2+x,1/2-y,1/2+z
3 -x,-y,-z
4 1/2-x,1/2+y,1/2-z
_cell_length_a                   5.3310(10)
_cell_length_b                   22.863(7)
_cell_length_c                   13.088(4)
_cell_angle_alpha                90
_cell_angle_beta                 91.54
_cell_angle_gamma                90
_cell_volume                     1594.62
loop_
_atom_site_label
_atom_site_type_symbol
_atom_site_fract_x
_atom_site_fract_y
_atom_site_fract_z
Cu1 Cu 0.10156(14) 0.05367(3) 0.04987(6)
Cu2 Cu 0.05601(14) 0.17850(4) 0.37738(6)
N1 N 0.3386(9) 0.2103(2) 0.3061(3)
N2 N 1.3030(9) 0.3037(2) -0.0219(4)
O1 O -0.0660(9) 0.0903(2) 0.3427(3)
O2 O 0.0546(8) 0.08533(18) 0.1825(3)
O3 O -0.3844(8) -0.10059(19) -0.0227(4)
O4 O -0.7580(8) -0.1184(2) 0.0372(3)
O5 O -0.1473(7) -0.00616(17) 0.0697(3)
C1 C 0.4054(12) 0.2676(3) 0.3055(5)
H1 H 0.3151 0.2944 0.3474
C2 C 0.5973(12) 0.2887(3) 0.2470(5)
H2 H 0.6428 0.3293 0.2504
C3 C 0.7261(10) 0.2510(2) 0.1831(4)
C4 C 0.6546(10) 0.1924(2) 0.1830(4)
H3 H 0.7375 0.1650 0.1398
C5 C 0.4655(10) 0.1740(3) 0.2449(5)
H4 H 0.4213 0.1332 0.2444
C6 C 0.9263(11) 0.2710(3) 0.1133(4)
C7 C 0.9581(12) 0.3288(3) 0.0839(5)
H5 H 0.8482 0.3584 0.1094
C8 C 1.1478(12) 0.3439(3) 0.0180(5)
H6 H 1.1689 0.3843 0.0001
C9 C 1.2731(11) 0.2476(3) 0.0077(5)
H7 H 1.3886 0.2190 -0.0170
C10 C 1.0886(10) 0.2294(3) 0.0709(4)
H8 H 1.0686 0.1886 0.0862
C11 C -0.0837(11) 0.0673(2) 0.2558(4)
C12 C -0.2766(11) 0.0202(2) 0.2372(5)
C13 C -0.3020(11) -0.0142(2) 0.1471(4)
C14 C -0.4999(11) -0.0552(2) 0.1364(4)
C15 C -0.5515(11) -0.0931(2) 0.0430(5)
C16 C -0.6620(12) -0.0623(3) 0.2191(5)
H9 H -0.7933 -0.0910 0.2138
C17 C -0.6367(14) -0.0299(3) 0.3073(6)
H10 H -0.7529 -0.0348 0.3614
C18 C -0.4414(13) 0.0104(3) 0.3171(5)
H11 H -0.4186 0.0318 0.3798
O5B O 0.1473(7) 0.00616(17) -0.0697(3)
Cu1B Cu -0.10156(14) -0.05367(3) -0.04987(6)
O3B O 0.3844(8) 0.10059(19) 0.0227(4)
N2A N -0.1970(9) 0.1963(2) 0.4781(4)
Cu2A Cu 1.55601(14) 0.32150(4) -0.12262(6)
loop_
_geom_bond_atom_site_label_1
_geom_bond_atom_site_label_2
_geom_bond_site_symmetry_1
_geom_bond_site_symmetry_2
Cu1 O2 1_555 1_555
Cu2 N1 1_555 1_555
N1 C1 1_555 1_555
N2 C8 1_555 1_555
O1 Cu2 1_555 1_555
O2 C11 1_555 1_555
O3 C15 1_555 1_555
O4 C15 1_555 1_555
O5 Cu1 1_555 1_555
C1 H1 1_555 1_555
C2 C1 1_555 1_555
H2 C2 1_555 1_555
C3 C2 1_555 1_555
C4 C3 1_555 1_555
H3 C4 1_555 1_555
C5 N1 1_555 1_555
H4 C5 1_555 1_555
C6 C3 1_555 1_555
C7 C6 1_555 1_555
H5 C7 1_555 1_555
C8 C7 1_555 1_555
H6 C8 1_555 1_555
C9 N2 1_555 1_555
H7 C9 1_555 1_555
C10 C6 1_555 1_555
H8 C10 1_555 1_555
C11 O1 1_555 1_555
C12 C11 1_555 1_555
C13 O5 1_555 1_555
C14 C13 1_555 1_555
C15 C14 1_555 1_555
C16 C14 1_555 1_555
H9 C16 1_555 1_555
C17 C16 1_555 1_555
H10 C17 1_555 1_555
C18 C12 1_555 1_555
H11 C18 1_555 1_555
O5B Cu1 1_555 1_555
Cu1B O3 1_555 1_555
O3B Cu1 1_555 1_555
N2A Cu2 1_555 1_555
Cu2A N2 1_555 1_555
O5 Cu1B 1_555 1_555
C4 C5 1_555 1_555
C9 C10 1_555 1_555
C12 C13 1_555 1_555
C17 C18 1_555 1_555
O5B Cu1B 1_555 1_555

#END
