
#######################################################################
#
#                 Cambridge Crystallographic Data Centre
#                                CCDC 
#
#######################################################################
#
# If this CIF has been generated from an entry in the Cambridge 
# Structural Database, then it will include bibliographic, chemical, 
# crystal, experimental, refinement or atomic coordinate data resulting 
# from the CCDC's data processing and validation procedures.
#
#######################################################################

data_UFUQUH
_symmetry_cell_setting           triclinic
_symmetry_space_group_name_H-M   'P -1'
_symmetry_Int_Tables_number      2
_space_group_name_Hall           '-P 1'
loop_
_symmetry_equiv_pos_site_id
_symmetry_equiv_pos_as_xyz
1 x,y,z
2 -x,-y,-z
_cell_length_a                   5.7263(2)
_cell_length_b                   10.6104(4)
_cell_length_c                   11.5533(5)
_cell_angle_alpha                76.6150(10)
_cell_angle_beta                 77.6190(10)
_cell_angle_gamma                87.9370(10)
_cell_volume                     666.941
loop_
_atom_site_label
_atom_site_type_symbol
_atom_site_fract_x
_atom_site_fract_y
_atom_site_fract_z
La1 La -0.64486(4) -0.16994(2) -0.47233(2)
S1 S -0.2042(2) -0.38597(11) -0.29536(10)
S2 S -0.0738(2) -0.09235(10) -0.68960(9)
O1 O -0.6584(12) -0.3946(5) -0.5254(6)
O2 O -0.6369(7) 0.0505(3) -0.5800(3)
O3 O -0.1325(6) -0.5117(3) -0.3193(3)
O4 O -0.4164(6) -0.3373(3) -0.3409(3)
O5 O -0.0087(6) -0.2906(3) -0.3371(3)
O6 O -0.3066(6) -0.1577(3) -0.6609(3)
O7 O -0.0905(6) 0.0418(3) -0.6764(3)
O8 O 0.0929(6) -0.1676(3) -0.6230(3)
C1 C 0.0493(8) -0.0833(4) -0.8458(4)
C2 C 0.2540(9) -0.1512(5) -0.8751(5)
C3 C 0.3607(9) -0.1427(5) -0.9982(4)
C4 C 0.2689(9) -0.0678(5) -1.0881(4)
C5 C -0.0570(8) -0.0035(4) -0.9375(4)
C6 C -0.2795(8) -0.4082(4) -0.1344(4)
C7 C -0.1366(9) -0.3510(5) -0.0808(4)
C8 C -0.1822(9) -0.3718(5) 0.0478(4)
C9 C -0.3684(8) -0.4484(4) 0.1181(4)
C10 C -0.4776(8) -0.4901(4) -0.0653(4)
H1 H 0.294(12) -0.1957(64) -0.8177(58)
H2 H 0.502(10) -0.1832(51) -1.0141(48)
H3 H 0.324(11) -0.0675(59) -1.1548(55)
H4 H -0.0232(96) -0.3031(50) -0.1199(46)
H5 H -0.0906(92) -0.3341(47) 0.0878(44)
H6 H -0.4267(88) -0.4617(47) 0.2113(44)
H7 H -0.764(13) -0.4234(68) -0.5904(62)
H8 H -0.5640(88) -0.4032(54) -0.5468(51)
H9 H -0.720(11) 0.0697(63) -0.6071(55)
O2A O -0.3631(7) -0.0505(3) -0.4200(3)
O5_2 O -1.0087(6) -0.2906(3) -0.3371(3)
O7A O -0.9095(6) -0.0418(3) -0.3236(3)
O8_2 O -0.9071(6) -0.1676(3) -0.6230(3)
La1A La -0.35514(4) 0.16994(2) -0.52767(2)
C5A C 0.0570(8) 0.0035(4) -1.0625(4)
C4A C -0.2689(9) 0.0678(5) -0.9119(4)
C10A C -0.5224(8) -0.5099(4) 0.0653(4)
C9A C -0.6316(8) -0.5516(4) -0.1181(4)
H9A H -0.280(11) -0.0697(63) -0.3929(55)
La1_2 La 0.35514(4) -0.16994(2) -0.47233(2)
O6A O -0.6934(6) 0.1577(3) -0.3391(3)
C1A C -0.0493(8) 0.0833(4) -1.1542(4)
C3A C -0.3607(9) 0.1427(5) -1.0018(4)
H3A H -0.324(11) 0.0675(59) -0.8452(55)
C6A C -0.7205(8) -0.5918(4) 0.1344(4)
C8A C -0.8178(9) -0.6282(5) -0.0478(4)
H6A H -0.5733(88) -0.5383(47) -0.2113(44)
S2A S 0.0738(2) 0.09235(10) -1.31040(9)
C2A C -0.2540(9) 0.1512(5) -1.1249(5)
H2A H -0.502(10) 0.1832(51) -0.9859(48)
S1A S -0.7958(2) -0.61403(11) 0.29536(10)
C7A C -0.8634(9) -0.6490(5) 0.0808(4)
H5A H -0.9094(92) -0.6659(47) -0.0878(44)
O6A_2 O 0.3066(6) 0.1577(3) -1.3391(3)
O7A_2 O 0.0905(6) -0.0418(3) -1.3236(3)
O8A O -0.0929(6) 0.1676(3) -1.3770(3)
H1A H -0.294(12) 0.1957(64) -1.1823(58)
O3A O -0.8675(6) -0.4883(3) 0.3193(3)
O4A O -0.5836(6) -0.6627(3) 0.3409(3)
O5A O -0.9913(6) -0.7094(3) 0.3371(3)
H4A H -0.9768(96) -0.6969(50) 0.1199(46)
La1A_2 La 0.64486(4) 0.16994(2) -1.52767(2)
La1_3 La 0.35514(4) -0.16994(2) -1.47233(2)
La1A_3 La -0.35514(4) 0.16994(2) -1.52767(2)
La1A_4 La -0.35514(4) -0.83006(2) 0.47233(2)
La1A_5 La -1.35514(4) -0.83006(2) 0.47233(2)
O1A O -0.3416(12) 0.3946(5) -0.4746(6)
O4A_2 O -0.5836(6) 0.3373(3) -0.6591(3)
O5A_2 O 0.0087(6) 0.2906(3) -0.6629(3)
O8A_2 O -0.0929(6) 0.1676(3) -0.3770(3)
H7A H -0.236(13) 0.4234(68) -0.4096(62)
H8A H -0.4360(88) 0.4032(54) -0.4532(51)
loop_
_geom_bond_atom_site_label_1
_geom_bond_atom_site_label_2
_geom_bond_site_symmetry_1
_geom_bond_site_symmetry_2
La1 O1 1_555 1_555
S1 O3 1_555 1_555
S2 O6 1_555 1_555
O1 H7 1_555 1_555
O2 La1 1_555 1_555
O4 La1 1_555 1_555
O5 S1 1_555 1_555
O6 La1 1_555 1_555
O7 S2 1_555 1_555
O8 S2 1_555 1_555
C1 S2 1_555 1_555
C2 C1 1_555 1_555
C3 C2 1_555 1_555
C4 C3 1_555 1_555
C5 C1 1_555 1_555
C6 S1 1_555 1_555
C7 C6 1_555 1_555
C8 C7 1_555 1_555
C9 C8 1_555 1_555
C10 C6 1_555 1_555
H1 C2 1_555 1_555
H2 C3 1_555 1_555
H3 C4 1_555 1_555
H4 C7 1_555 1_555
H5 C8 1_555 1_555
H6 C9 1_555 1_555
H8 O1 1_555 1_555
H9 O2 1_555 1_555
O2A La1 1_555 1_555
O5_2 La1 1_555 1_555
O7A La1 1_555 1_555
O8_2 La1 1_555 1_555
La1A O2 1_555 1_555
C5A C4 1_555 1_555
C4A C5 1_555 1_555
C10A C9 1_555 1_555
C9A C10 1_555 1_555
H9A O2A 1_555 1_555
La1_2 O5 1_555 1_555
O6A La1A 1_555 1_555
C1A C5A 1_555 1_555
C3A C4A 1_555 1_555
H3A C4A 1_555 1_555
C6A C10A 1_555 1_555
C8A C9A 1_555 1_555
H6A C9A 1_555 1_555
S2A C1A 1_555 1_555
C2A C1A 1_555 1_555
H2A C3A 1_555 1_555
S1A C6A 1_555 1_555
C7A C6A 1_555 1_555
H5A C8A 1_555 1_555
O6A_2 S2A 1_555 1_555
O7A_2 S2A 1_555 1_555
O8A S2A 1_555 1_555
H1A C2A 1_555 1_555
O3A S1A 1_555 1_555
O4A S1A 1_555 1_555
O5A S1A 1_555 1_555
H4A C7A 1_555 1_555
La1A_2 O6A_2 1_555 1_555
La1_3 O7A_2 1_555 1_555
La1A_3 O8A 1_555 1_555
La1A_4 O4A 1_555 1_555
La1A_5 O5A 1_555 1_555
O1A La1A 1_555 1_555
O4A_2 La1A 1_555 1_555
O5A_2 La1A 1_555 1_555
O8A_2 La1A 1_555 1_555
H7A O1A 1_555 1_555
H8A O1A 1_555 1_555
S1 O4 1_555 1_555
O7 La1A 1_555 1_555
O8 La1_2 1_555 1_555
C5 C5A 1_555 1_555
C10 C10A 1_555 1_555
O2A La1A 1_555 1_555
C3A C2A 1_555 1_555
C8A C7A 1_555 1_555

#END
