
#######################################################################
#
#                 Cambridge Crystallographic Data Centre
#                                CCDC 
#
#######################################################################
#
# If this CIF has been generated from an entry in the Cambridge 
# Structural Database, then it will include bibliographic, chemical, 
# crystal, experimental, refinement or atomic coordinate data resulting 
# from the CCDC's data processing and validation procedures.
#
#######################################################################

data_UFURAO
_symmetry_cell_setting           triclinic
_symmetry_space_group_name_H-M   'P -1'
_symmetry_Int_Tables_number      2
_space_group_name_Hall           '-P 1'
loop_
_symmetry_equiv_pos_site_id
_symmetry_equiv_pos_as_xyz
1 x,y,z
2 -x,-y,-z
_cell_length_a                   5.6745(8)
_cell_length_b                   10.5508(15)
_cell_length_c                   11.450(2)
_cell_angle_alpha                76.456(2)
_cell_angle_beta                 77.484(2)
_cell_angle_gamma                88.034(2)
_cell_volume                     650.518
loop_
_atom_site_label
_atom_site_type_symbol
_atom_site_fract_x
_atom_site_fract_y
_atom_site_fract_z
Nd1 Nd 0.14134(9) 0.16797(5) 0.47289(5)
S1 S -0.2998(4) 0.3839(2) 0.2984(2)
S2 S -0.4271(4) 0.0917(2) 0.6868(2)
O1 O 0.1404(15) 0.3882(8) 0.5289(8)
O2 O 0.1318(12) -0.0488(6) 0.5798(7)
O3 O -0.3673(13) 0.5089(7) 0.3243(6)
O4 O -0.0867(12) 0.3325(6) 0.3438(6)
O5 O -0.4978(12) 0.2897(6) 0.3383(6)
O6 O -0.1931(11) 0.1580(6) 0.6572(6)
O7 O -0.4119(11) -0.0434(6) 0.6743(6)
O8 O -0.5957(11) 0.1657(6) 0.6182(6)
C1 C -0.5521(15) 0.0840(8) 0.8448(8)
C2 C -0.7582(17) 0.1521(10) 0.8736(8)
C3 C -0.8668(17) 0.1430(10) 0.9972(8)
C4 C -0.7703(17) 0.0688(10) 1.0887(8)
C5 C -0.4463(15) 0.0030(8) 0.9383(7)
C6 C -0.2226(16) 0.4077(8) 0.1348(8)
C7 C -0.3653(17) 0.3487(9) 0.0813(9)
C8 C -0.3195(17) 0.3725(9) -0.0488(9)
C9 C -0.1349(16) 0.4489(8) -0.1186(8)
C10 C -0.0227(15) 0.4892(8) 0.0659(8)
H1 H -0.842(19) 0.199(10) 0.8219(94)
H2 H -0.969(20) 0.193(10) 1.0263(94)
H3 H -0.882(16) 0.0423(85) 1.2070(80)
H4 H -0.526(14) 0.2902(72) 0.1272(68)
H5 H -0.421(16) 0.3187(87) -0.0840(80)
H6 H -0.116(15) 0.4502(79) -0.1979(77)
H7 H 0.197(16) -0.0685(86) 0.6169(80)
H8 H 0.2256 0.4071 0.5857
H9 H 0.3011 0.3841 0.4454
O2A O -0.1318(12) 0.0488(6) 0.4202(7)
O5_2 O 0.5022(12) 0.2897(6) 0.3383(6)
O7A O 0.4119(11) 0.0434(6) 0.3257(6)
O8_2 O 0.4043(11) 0.1657(6) 0.6182(6)
Nd1A Nd -0.14134(9) -0.16797(5) 0.52711(5)
C5A C -0.5537(15) -0.0030(8) 1.0617(7)
C4A C -0.2297(17) -0.0688(10) 0.9113(8)
C10A C 0.0227(15) 0.5108(8) -0.0659(8)
C9A C 0.1349(16) 0.5511(8) 0.1186(8)
H7A H -0.197(16) 0.0685(86) 0.3831(80)
Nd1_2 Nd -0.85866(9) 0.16797(5) 0.47289(5)
O6A O 0.1931(11) -0.1580(6) 0.3428(6)
C1A C -0.4479(15) -0.0840(8) 1.1552(8)
C3A C -0.1332(17) -0.1430(10) 1.0028(8)
H3A H -0.118(16) -0.0423(85) 0.7930(80)
C6A C 0.2226(16) 0.5923(8) -0.1348(8)
C8A C 0.3195(17) 0.6275(9) 0.0488(9)
H6A H 0.116(15) 0.5498(79) 0.1979(77)
S2A S -0.5729(4) -0.0917(2) 1.3132(2)
C2A C -0.2418(17) -0.1521(10) 1.1264(8)
H2A H -0.031(20) -0.193(10) 0.9737(94)
S1A S 0.2998(4) 0.6161(2) -0.2984(2)
C7A C 0.3653(17) 0.6513(9) -0.0813(9)
H5A H 0.421(16) 0.6813(87) 0.0840(80)
O6A_2 O -0.8069(11) -0.1580(6) 1.3428(6)
O7A_2 O -0.5881(11) 0.0434(6) 1.3257(6)
O8A O -0.4043(11) -0.1657(6) 1.3818(6)
H1A H -0.158(19) -0.199(10) 1.1781(94)
O3A O 0.3673(13) 0.4911(7) -0.3243(6)
O4A O 0.0867(12) 0.6675(6) -0.3438(6)
O5A O 0.4978(12) 0.7103(6) -0.3383(6)
H4A H 0.526(14) 0.7098(72) -0.1272(68)
Nd1A_2 Nd -1.14134(9) -0.16797(5) 1.52711(5)
Nd1_3 Nd -0.85866(9) 0.16797(5) 1.47289(5)
Nd1A_3 Nd -0.14134(9) -0.16797(5) 1.52711(5)
Nd1A_4 Nd -0.14134(9) 0.83203(5) -0.47289(5)
Nd1A_5 Nd 0.85866(9) 0.83203(5) -0.47289(5)
O1A O -0.1404(15) -0.3882(8) 0.4711(8)
O4A_2 O 0.0867(12) -0.3325(6) 0.6562(6)
O5A_2 O -0.5022(12) -0.2897(6) 0.6617(6)
O8A_2 O -0.4043(11) -0.1657(6) 0.3818(6)
H8A H -0.2256 -0.4071 0.4143
H9A H -0.3011 -0.3841 0.5546
loop_
_geom_bond_atom_site_label_1
_geom_bond_atom_site_label_2
_geom_bond_site_symmetry_1
_geom_bond_site_symmetry_2
Nd1 O1 1_555 1_555
S1 O3 1_555 1_555
S2 O6 1_555 1_555
O1 H8 1_555 1_555
O2 Nd1 1_555 1_555
O4 Nd1 1_555 1_555
O5 S1 1_555 1_555
O6 Nd1 1_555 1_555
O7 S2 1_555 1_555
O8 S2 1_555 1_555
C1 S2 1_555 1_555
C2 C1 1_555 1_555
C3 C2 1_555 1_555
C4 C3 1_555 1_555
C5 C1 1_555 1_555
C6 S1 1_555 1_555
C7 C6 1_555 1_555
C8 C7 1_555 1_555
C9 C8 1_555 1_555
C10 C6 1_555 1_555
H1 C2 1_555 1_555
H2 C3 1_555 1_555
H3 C4 1_555 1_555
H4 C7 1_555 1_555
H5 C8 1_555 1_555
H6 C9 1_555 1_555
H7 O2 1_555 1_555
H9 O1 1_555 1_555
O2A Nd1 1_555 1_555
O5_2 Nd1 1_555 1_555
O7A Nd1 1_555 1_555
O8_2 Nd1 1_555 1_555
Nd1A O2 1_555 1_555
C5A C4 1_555 1_555
C4A C5 1_555 1_555
C10A C9 1_555 1_555
C9A C10 1_555 1_555
H7A O2A 1_555 1_555
Nd1_2 O5 1_555 1_555
O6A Nd1A 1_555 1_555
C1A C5A 1_555 1_555
C3A C4A 1_555 1_555
H3A C4A 1_555 1_555
C6A C10A 1_555 1_555
C8A C9A 1_555 1_555
H6A C9A 1_555 1_555
S2A C1A 1_555 1_555
C2A C1A 1_555 1_555
H2A C3A 1_555 1_555
S1A C6A 1_555 1_555
C7A C6A 1_555 1_555
H5A C8A 1_555 1_555
O6A_2 S2A 1_555 1_555
O7A_2 S2A 1_555 1_555
O8A S2A 1_555 1_555
H1A C2A 1_555 1_555
O3A S1A 1_555 1_555
O4A S1A 1_555 1_555
O5A S1A 1_555 1_555
H4A C7A 1_555 1_555
Nd1A_2 O6A_2 1_555 1_555
Nd1_3 O7A_2 1_555 1_555
Nd1A_3 O8A 1_555 1_555
Nd1A_4 O4A 1_555 1_555
Nd1A_5 O5A 1_555 1_555
O1A Nd1A 1_555 1_555
O4A_2 Nd1A 1_555 1_555
O5A_2 Nd1A 1_555 1_555
O8A_2 Nd1A 1_555 1_555
H8A O1A 1_555 1_555
H9A O1A 1_555 1_555
S1 O4 1_555 1_555
O7 Nd1A 1_555 1_555
O8 Nd1_2 1_555 1_555
C5 C5A 1_555 1_555
C10 C10A 1_555 1_555
O2A Nd1A 1_555 1_555
C3A C2A 1_555 1_555
C8A C7A 1_555 1_555

#END
