
#######################################################################
#
#                 Cambridge Crystallographic Data Centre
#                                CCDC 
#
#######################################################################
#
# If this CIF has been generated from an entry in the Cambridge 
# Structural Database, then it will include bibliographic, chemical, 
# crystal, experimental, refinement or atomic coordinate data resulting 
# from the CCDC's data processing and validation procedures.
#
#######################################################################

data_UFUTEU02
_symmetry_cell_setting           monoclinic
_symmetry_space_group_name_H-M   'P 21/c'
_symmetry_Int_Tables_number      14
_space_group_name_Hall           '-P 2ybc'
loop_
_symmetry_equiv_pos_site_id
_symmetry_equiv_pos_as_xyz
1 x,y,z
2 -x,1/2+y,1/2-z
3 -x,-y,-z
4 x,1/2-y,1/2+z
_cell_length_a                   9.0187(5)
_cell_length_b                   12.7580(7)
_cell_length_c                   11.3738(6)
_cell_angle_alpha                90
_cell_angle_beta                 107.7520(10)
_cell_angle_gamma                90
_cell_volume                     1246.36
loop_
_atom_site_label
_atom_site_type_symbol
_atom_site_fract_x
_atom_site_fract_y
_atom_site_fract_z
Cu1 Cu 0.74466(5) 0.23932(4) 0.53181(4)
S1 S 0.8106(3) 0.2237(3) 0.3894(2)
N1 N 0.6684(3) 0.1105(2) 0.6114(3)
N2 N 0.5142(3) 0.2833(2) 0.5061(3)
N3 N 0.91604(13) 0.16622(9) 0.18896(10)
C1 C 0.7457(4) 0.0256(3) 0.6648(3)
H1 H 0.8511 0.0197 0.6727
C2 C 0.6698(6) -0.0572(3) 0.7106(4)
H2 H 0.7254 -0.1169 0.7450
C3 C 0.5255(5) -0.0490(3) 0.7041(4)
H3 H 0.4785 -0.1025 0.7355
C4 C 0.4357(4) 0.0406(3) 0.6498(3)
C5 C 0.2740(4) 0.0554(3) 0.6392(4)
H4 H 0.2212 0.0039 0.6683
C6 C 0.1973(5) 0.1439(3) 0.5869(4)
H5 H 0.0928 0.1520 0.5809
C7 C 0.2754(4) 0.2251(3) 0.5409(3)
C8 C 0.1990(5) 0.3173(3) 0.4855(5)
H6 H 0.0948 0.3293 0.4780
C9 C 0.2847(5) 0.3885(3) 0.4432(4)
H7 H 0.2382 0.4505 0.4074
C10 C 0.4378(6) 0.3697(4) 0.4526(4)
H8 H 0.4909 0.4190 0.4206
C11 C 0.4325(4) 0.2118(3) 0.5510(3)
C12 C 0.5158(4) 0.1197(3) 0.6054(3)
C13 C 0.8535(4) 0.2011(3) 0.3055(3)
Cu1C Cu 0.74466(5) 0.26068(4) 0.03181(4)
N3C N 0.91604(13) 0.33378(9) 0.68896(10)
loop_
_geom_bond_atom_site_label_1
_geom_bond_atom_site_label_2
_geom_bond_site_symmetry_1
_geom_bond_site_symmetry_2
Cu1 S1 1_555 1_555
S1 C13 1_555 1_555
N1 Cu1 1_555 1_555
N2 Cu1 1_555 1_555
N3 C13 1_555 1_555
C1 N1 1_555 1_555
H1 C1 1_555 1_555
C2 C1 1_555 1_555
H2 C2 1_555 1_555
C3 C2 1_555 1_555
H3 C3 1_555 1_555
C4 C3 1_555 1_555
C5 C4 1_555 1_555
H4 C5 1_555 1_555
C6 C5 1_555 1_555
H5 C6 1_555 1_555
C7 C6 1_555 1_555
C8 C7 1_555 1_555
H6 C8 1_555 1_555
C9 C8 1_555 1_555
H7 C9 1_555 1_555
C10 N2 1_555 1_555
H8 C10 1_555 1_555
C11 N2 1_555 1_555
C12 N1 1_555 1_555
Cu1C N3 1_555 1_555
N3C Cu1 1_555 1_555
C4 C12 1_555 1_555
C7 C11 1_555 1_555
C9 C10 1_555 1_555
C11 C12 1_555 1_555

#END
