
#######################################################################
#
#                 Cambridge Crystallographic Data Centre
#                                CCDC 
#
#######################################################################
#
# If this CIF has been generated from an entry in the Cambridge 
# Structural Database, then it will include bibliographic, chemical, 
# crystal, experimental, refinement or atomic coordinate data resulting 
# from the CCDC's data processing and validation procedures.
#
#######################################################################

data_UFUTAQ
_symmetry_cell_setting           orthorhombic
_symmetry_space_group_name_H-M   'P m n 21'
_symmetry_Int_Tables_number      31
_space_group_name_Hall           'P 2ac -2'
loop_
_symmetry_equiv_pos_site_id
_symmetry_equiv_pos_as_xyz
1 x,y,z
2 1/2-x,-y,1/2+z
3 1/2+x,-y,1/2+z
4 -x,y,z
_cell_length_a                   12.666(7)
_cell_length_b                   5.690(3)
_cell_length_c                   7.743(4)
_cell_angle_alpha                90
_cell_angle_beta                 90
_cell_angle_gamma                90
_cell_volume                     558.034
loop_
_atom_site_label
_atom_site_type_symbol
_atom_site_fract_x
_atom_site_fract_y
_atom_site_fract_z
Cu1 Cu 0.0000 1.13774(14) 0.47464(12)
S1 S 0.0000 0.8839(3) 0.7180(2)
C1 C 0.0000 0.6280(11) 0.6151(8)
N1 N 0.0000 0.4565(11) 0.5397(8)
N2 N 0.1149(3) 0.9585(7) 0.3081(5)
C2 C 0.2191(4) 0.9192(9) 0.3024(7)
H1 H 0.2643 1.0270 0.3599
C3 C 0.2650(4) 0.7298(9) 0.2171(7)
H2 H 0.3395 0.7110 0.2184
C4 C 0.2030(4) 0.5695(9) 0.1308(6)
H3 H 0.2328 0.4383 0.0726
C5 C 0.0945(4) 0.6088(8) 0.1330(6)
C6 C 0.0584(4) 0.8033(8) 0.2248(6)
C7 C 0.0000 0.4793(15) 0.0663(8)
O1 O 0.0000 0.2999(8) -0.0236(11)
C6C C -0.0584(4) 0.8033(8) 0.2248(6)
N2C N -0.1149(3) 0.9585(7) 0.3081(5)
C2C C -0.2191(4) 0.9192(9) 0.3024(7)
H1C H -0.2643 1.0270 0.3599
C3C C -0.2650(4) 0.7298(9) 0.2171(7)
H2C H -0.3395 0.7110 0.2184
C4C C -0.2030(4) 0.5695(9) 0.1308(6)
H3C H -0.2328 0.4383 0.0726
C5C C -0.0945(4) 0.6088(8) 0.1330(6)
N1_2 N 0.0000 1.4565(11) 0.5397(8)
Cu1_2 Cu 0.0000 0.13774(14) 0.47464(12)
loop_
_geom_bond_atom_site_label_1
_geom_bond_atom_site_label_2
_geom_bond_site_symmetry_1
_geom_bond_site_symmetry_2
Cu1 S1 1_555 1_555
S1 C1 1_555 1_555
C1 N1 1_555 1_555
N1 Cu1_2 1_555 1_555
N2 Cu1 1_555 1_555
C2 N2 1_555 1_555
H1 C2 1_555 1_555
C3 C2 1_555 1_555
H2 C3 1_555 1_555
C4 C3 1_555 1_555
H3 C4 1_555 1_555
C5 C4 1_555 1_555
C6 N2 1_555 1_555
C7 C5 1_555 1_555
O1 C7 1_555 1_555
C6C C6 1_555 1_555
N2C Cu1 1_555 1_555
C2C N2C 1_555 1_555
H1C C2C 1_555 1_555
C3C C2C 1_555 1_555
H2C C3C 1_555 1_555
C4C C3C 1_555 1_555
H3C C4C 1_555 1_555
C5C C7 1_555 1_555
N1_2 Cu1 1_555 1_555
C5 C6 1_555 1_555
C6C N2C 1_555 1_555
C6C C5C 1_555 1_555
C4C C5C 1_555 1_555

#END
