
#######################################################################
#
#                 Cambridge Crystallographic Data Centre
#                                CCDC 
#
#######################################################################
#
# If this CIF has been generated from an entry in the Cambridge 
# Structural Database, then it will include bibliographic, chemical, 
# crystal, experimental, refinement or atomic coordinate data resulting 
# from the CCDC's data processing and validation procedures.
#
#######################################################################

data_UFUTIY
_symmetry_cell_setting           triclinic
_symmetry_space_group_name_H-M   'P -1'
_symmetry_Int_Tables_number      2
_space_group_name_Hall           '-P 1'
loop_
_symmetry_equiv_pos_site_id
_symmetry_equiv_pos_as_xyz
1 x,y,z
2 -x,-y,-z
_cell_length_a                   9.7949(5)
_cell_length_b                   9.9224(5)
_cell_length_c                   12.8401(7)
_cell_angle_alpha                74.8400(10)
_cell_angle_beta                 74.2380(10)
_cell_angle_gamma                85.7820(10)
_cell_volume                     1159.19
loop_
_atom_site_label
_atom_site_type_symbol
_atom_site_fract_x
_atom_site_fract_y
_atom_site_fract_z
Mo1 Mo 0.84543(8) 0.11162(8) 0.30623(7)
Mo2 Mo 0.56439(7) -0.12071(7) 0.41528(6)
Mo3 Mo 0.52497(8) 0.24161(8) 0.31770(6)
Mo4 Mo 0.74680(8) -0.00589(8) 0.57879(6)
Cu1 Cu 1.12147(16) 0.35068(13) 0.27951(11)
Cu2 Cu 0.76891(19) 0.51904(19) 0.27011(12)
O1 O 0.8897(6) 0.2711(6) 0.3194(5)
O2 O 0.5180(6) -0.2700(6) 0.3949(5)
O3 O 0.6992(6) 0.1838(6) 0.2321(5)
O4 O 0.5820(6) 0.3873(6) 0.3425(5)
O5 O 0.4559(6) 0.0165(6) 0.3327(5)
O6 O 0.7849(6) 0.1477(6) 0.5988(5)
O7 O 0.4379(7) 0.3048(6) 0.2175(5)
O8 O 0.9777(6) 0.0760(6) 0.2009(5)
O9 O 0.6349(6) -0.1911(6) 0.5479(5)
O10 O 0.6163(6) 0.0885(6) 0.4545(5)
N1 N 1.1642(10) 0.3903(9) 0.1191(7)
C1 C 1.2382(13) 0.3166(13) -0.0497(9)
C2 C 1.1713(16) 0.5423(14) -0.0567(11)
H1 H 1.1563 0.6320 -0.0972
C3 C 1.2138(11) 0.2919(11) 0.0643(8)
H2 H 1.2324 0.2034 0.1048
C4 C 1.1488(15) 0.5184(11) 0.0550(10)
H3 H 1.1220 0.5923 0.0884
C5 C 1.2867(15) 0.2043(16) -0.1088(10)
H4 H 1.2977 0.2418 -0.1875
H5 H 1.2178 0.1307 -0.0809
H6 H 1.3760 0.1679 -0.0962
O11 O 0.7303(6) -0.0807(6) 0.3195(5)
O12 O 0.8768(6) -0.0075(6) 0.4396(5)
N2 N 1.1925(8) 0.4451(8) 0.6008(6)
N3 N 1.1375(8) 0.4050(7) 0.4101(6)
C6 C 1.2301(10) 0.5005(9) 0.4047(8)
C7 C 1.2590(10) 0.5186(9) 0.4998(8)
H7 H 1.3267 0.5839 0.4927
N4 N 1.2136(11) 0.4448(12) -0.1113(8)
C8 C 1.2988(13) 0.5933(12) 0.2909(10)
H8 H 1.2670 0.5666 0.2347
H9 H 1.4001 0.5835 0.2758
H10 H 1.2730 0.6888 0.2899
O13 O 0.8161(6) -0.1335(6) 0.6697(5)
C9 C 1.0947(9) 0.3495(9) 0.6077(8)
H11 H 1.0442 0.2975 0.6773
C10 C 1.0708(9) 0.3299(9) 0.5111(7)
H12 H 1.0062 0.2624 0.5171
O10A O 0.3837(6) -0.0885(6) 0.5455(5)
O9A O 0.3651(6) 0.1911(6) 0.4521(5)
O5A O 0.5441(6) -0.0165(6) 0.6673(5)
O13A O 1.1839(6) 0.1335(6) 0.3303(5)
N2A N 0.8075(8) 0.5549(8) 0.3992(6)
N4A N 0.7864(11) 0.5552(12) 0.1113(8)
Mo4A Mo 0.25320(8) 0.00589(8) 0.42121(6)
Mo3A Mo 0.47503(8) -0.24161(8) 0.68230(6)
Mo2A Mo 0.43561(7) 0.12071(7) 0.58472(6)
Cu2A Cu 1.23109(19) 0.48096(19) 0.72989(12)
Cu2A_2 Cu 1.23109(19) 0.48096(19) -0.27011(12)
Cu1A Cu 0.87853(16) -0.35068(13) 0.72049(11)
O6A O 0.2151(6) -0.1477(6) 0.4012(5)
O12A O 0.1232(6) 0.0075(6) 0.5604(5)
O13A_2 O 0.1839(6) 0.1335(6) 0.3303(5)
O3A O 0.3008(6) -0.1838(6) 0.7679(5)
O4A O 0.4180(6) -0.3873(6) 0.6575(5)
O7A O 0.5621(7) -0.3048(6) 0.7825(5)
Mo1A Mo 0.15457(8) -0.11162(8) 0.69377(7)
O1A O 0.1103(6) -0.2711(6) 0.6806(5)
O8A O 0.0223(6) -0.0760(6) 0.7991(5)
O11A O 0.2697(6) 0.0807(6) 0.6805(5)
O2A O 0.4820(6) 0.2700(6) 0.6051(5)
Cu2A_3 Cu 0.23109(19) -0.51904(19) 0.72989(12)
Cu1A_2 Cu -0.12147(16) -0.35068(13) 0.72049(11)
Cu1_2 Cu 0.12147(16) 0.35068(13) 0.27951(11)
C7A C 0.7410(10) 0.4814(9) 0.5002(8)
C9A C 0.9053(9) 0.6505(9) 0.3923(8)
C1A C 0.7618(13) 0.6834(13) 0.0497(9)
C2A C 0.8287(16) 0.4577(14) 0.0567(11)
C6A C 0.7699(10) 0.4995(9) 0.5953(8)
H7A H 0.6733 0.4161 0.5073
H11A H 0.9558 0.7025 0.3227
C10A C 0.9292(9) 0.6701(9) 0.4889(7)
C3A C 0.7862(11) 0.7081(11) -0.0643(8)
C5A C 0.7133(15) 0.7957(16) 0.1088(10)
H1A H 0.8437 0.3680 0.0972
C4A C 0.8512(15) 0.4816(11) -0.0550(10)
H4A H 0.7023 0.7582 0.1875
H5A H 0.7822 0.8693 0.0809
H6A H 0.6240 0.8321 0.0962
N1A N 0.8358(10) 0.6097(9) -0.1191(7)
H2A H 0.7676 0.7966 -0.1048
N3A N 0.8625(8) 0.5950(7) 0.5899(6)
H12A H 0.9938 0.7376 0.4829
H3A H 0.8780 0.4077 -0.0884
Cu1A_3 Cu 0.87853(16) 0.64932(13) 0.72049(11)
C8A C 0.7012(13) 0.4067(12) 0.7091(10)
H8A H 0.7330 0.4334 0.7653
H9A H 0.5999 0.4165 0.7242
H10A H 0.7270 0.3112 0.7101
Cu1A_4 Cu 0.87853(16) 0.64932(13) -0.27951(11)
N1A_2 N -0.1642(10) -0.3903(9) 0.8809(7)
N3A_2 N -0.1375(8) -0.4050(7) 0.5899(6)
O13_2 O -0.1839(6) -0.1335(6) 0.6697(5)
N2_2 N 0.1925(8) -0.5549(8) 0.6008(6)
N4_2 N 0.2136(11) -0.5552(12) 0.8887(8)
O14 O 0.0704(14) 0.8259(14) 0.1239(12)
O15 O 0.3445(14) 0.8115(13) 0.9916(11)
O16 O 0.424(2) 0.009(2) 0.1001(19)
O17? O 0.477(2) 0.541(2) 0.019(2)
loop_
_geom_bond_atom_site_label_1
_geom_bond_atom_site_label_2
_geom_bond_site_symmetry_1
_geom_bond_site_symmetry_2
Mo1 O1 1_555 1_555
Mo2 O2 1_555 1_555
Mo3 O3 1_555 1_555
Mo4 O6 1_555 1_555
Cu1 O1 1_555 1_555
Cu2 O1 1_555 1_555
O3 Mo1 1_555 1_555
O4 Mo3 1_555 1_555
O5 Mo2 1_555 1_555
O7 Mo3 1_555 1_555
O8 Mo1 1_555 1_555
O9 Mo2 1_555 1_555
O10 Mo1 1_555 1_555
N1 Cu1 1_555 1_555
C1 C3 1_555 1_555
C2 H1 1_555 1_555
C3 N1 1_555 1_555
H2 C3 1_555 1_555
C4 N1 1_555 1_555
H3 C4 1_555 1_555
C5 C1 1_555 1_555
H4 C5 1_555 1_555
H5 C5 1_555 1_555
H6 C5 1_555 1_555
O11 Mo1 1_555 1_555
O12 Mo1 1_555 1_555
N2 C7 1_555 1_555
N3 Cu1 1_555 1_555
C6 N3 1_555 1_555
C7 C6 1_555 1_555
H7 C7 1_555 1_555
N4 C1 1_555 1_555
C8 C6 1_555 1_555
H8 C8 1_555 1_555
H9 C8 1_555 1_555
H10 C8 1_555 1_555
O13 Mo4 1_555 1_555
C9 N2 1_555 1_555
H11 C9 1_555 1_555
C10 N3 1_555 1_555
H12 C10 1_555 1_555
O10A Mo2 1_555 1_555
O9A Mo3 1_555 1_555
O5A Mo4 1_555 1_555
O13A Cu1 1_555 1_555
N2A Cu2 1_555 1_555
N4A Cu2 1_555 1_555
Mo4A O5 1_555 1_555
Mo3A O9 1_555 1_555
Mo2A O10 1_555 1_555
Cu2A N2 1_555 1_555
Cu2A_2 N4 1_555 1_555
Cu1A O13 1_555 1_555
O6A Mo4A 1_555 1_555
O12A Mo4A 1_555 1_555
O13A_2 Mo4A 1_555 1_555
O3A Mo3A 1_555 1_555
O4A Mo3A 1_555 1_555
O7A Mo3A 1_555 1_555
Mo1A O10A 1_555 1_555
O1A Mo1A 1_555 1_555
O8A Mo1A 1_555 1_555
O11A Mo2A 1_555 1_555
O2A Mo2A 1_555 1_555
Cu2A_3 O4A 1_555 1_555
Cu1A_2 O1A 1_555 1_555
Cu1_2 O13A_2 1_555 1_555
C7A N2A 1_555 1_555
C9A N2A 1_555 1_555
C1A N4A 1_555 1_555
C2A N4A 1_555 1_555
C6A C7A 1_555 1_555
H7A C7A 1_555 1_555
H11A C9A 1_555 1_555
C10A C9A 1_555 1_555
C3A C1A 1_555 1_555
C5A C1A 1_555 1_555
H1A C2A 1_555 1_555
C4A C2A 1_555 1_555
H4A C5A 1_555 1_555
H5A C5A 1_555 1_555
H6A C5A 1_555 1_555
N1A C3A 1_555 1_555
H2A C3A 1_555 1_555
N3A C6A 1_555 1_555
H12A C10A 1_555 1_555
H3A C4A 1_555 1_555
Cu1A_3 N3A 1_555 1_555
C8A C6A 1_555 1_555
H8A C8A 1_555 1_555
H9A C8A 1_555 1_555
H10A C8A 1_555 1_555
Cu1A_4 N1A 1_555 1_555
N1A_2 Cu1A_2 1_555 1_555
N3A_2 Cu1A_2 1_555 1_555
O13_2 Cu1A_2 1_555 1_555
N2_2 Cu2A_3 1_555 1_555
N4_2 Cu2A_3 1_555 1_555
Mo2 O10 1_555 1_555
Mo2 O11 1_555 1_555
Mo3 O5 1_555 1_555
Mo3 O10 1_555 1_555
Mo4 O9 1_555 1_555
Mo4 O10 1_555 1_555
Mo4 O12 1_555 1_555
Cu2 O4 1_555 1_555
C2 C4 1_555 1_555
C2 N4 1_555 1_555
C9 C10 1_555 1_555
O10A Mo4A 1_555 1_555
O10A Mo3A 1_555 1_555
O10A Mo2A 1_555 1_555
O9A Mo4A 1_555 1_555
O9A Mo2A 1_555 1_555
O5A Mo3A 1_555 1_555
O5A Mo2A 1_555 1_555
O12A Mo1A 1_555 1_555
O3A Mo1A 1_555 1_555
Mo1A O11A 1_555 1_555
O1A Cu2A_3 1_555 1_555
C10A N3A 1_555 1_555
C4A N1A 1_555 1_555

#END
