
#######################################################################
#
#                 Cambridge Crystallographic Data Centre
#                                CCDC 
#
#######################################################################
#
# If this CIF has been generated from an entry in the Cambridge 
# Structural Database, then it will include bibliographic, chemical, 
# crystal, experimental, refinement or atomic coordinate data resulting 
# from the CCDC's data processing and validation procedures.
#
#######################################################################

data_UFUTEU01
_symmetry_cell_setting           orthorhombic
_symmetry_space_group_name_H-M   'P n m a'
_symmetry_Int_Tables_number      62
_space_group_name_Hall           '-P 2ac 2n'
loop_
_symmetry_equiv_pos_site_id
_symmetry_equiv_pos_as_xyz
1 x,y,z
2 1/2-x,-y,1/2+z
3 -x,1/2+y,-z
4 1/2+x,1/2-y,1/2-z
5 -x,-y,-z
6 1/2+x,y,1/2-z
7 x,1/2-y,z
8 1/2-x,1/2+y,1/2+z
_cell_length_a                   7.9744(15)
_cell_length_b                   11.948(2)
_cell_length_c                   12.956(2)
_cell_angle_alpha                90
_cell_angle_beta                 90
_cell_angle_gamma                90
_cell_volume                     1234.42
loop_
_atom_site_label
_atom_site_type_symbol
_atom_site_fract_x
_atom_site_fract_y
_atom_site_fract_z
C1 C 0.13936(17) 0.68993(15) 1.13076(12)
C2 C 0.1011(2) 0.63175(18) 1.22243(13)
C3 C 0.0628(3) 0.69444(18) 1.31338(13)
H1 H 0.0372 0.6565 1.3740
C4 C 0.1051(2) 0.51479(18) 1.21873(16)
H2 H 0.0792 0.4731 1.2772
C5 C 0.1468(2) 0.46262(19) 1.12958(17)
H3 H 0.1491 0.3849 1.1262
C6 C 0.1862(2) 0.52657(16) 1.04275(16)
H4 H 0.2175 0.4895 0.9826
C7 C 0.0834(3) 0.7500 0.70798(17)
Cu1 Cu 0.23713(4) 0.7500 0.92283(2)
N1 N 0.1286(2) 0.7500 0.79199(14)
N2 N 0.18111(17) 0.63783(12) 1.04164(11)
S1 S 0.02660(9) 0.7500 0.58628(4)
C1F C 0.13936(17) 0.81007(15) 1.13076(12)
C2F C 0.1011(2) 0.86825(18) 1.22243(13)
C3F C 0.0628(3) 0.80556(18) 1.31338(13)
H1F H 0.0372 0.8435 1.3740
C4F C 0.1051(2) 0.98521(18) 1.21873(16)
H2F H 0.0792 1.0269 1.2772
C5F C 0.1468(2) 1.03738(19) 1.12958(17)
H3F H 0.1491 1.1151 1.1262
C6F C 0.1862(2) 0.97343(16) 1.04275(16)
H4F H 0.2175 1.0105 0.9826
Cu1C Cu -0.26287(4) 0.7500 0.57717(2)
N2F N 0.18111(17) 0.86217(12) 1.04164(11)
S1C S 0.52660(9) 0.7500 0.91372(4)
loop_
_geom_bond_atom_site_label_1
_geom_bond_atom_site_label_2
_geom_bond_site_symmetry_1
_geom_bond_site_symmetry_2
C1 C2 1_555 1_555
C2 C3 1_555 1_555
C3 H1 1_555 1_555
C4 C2 1_555 1_555
H2 C4 1_555 1_555
C5 C4 1_555 1_555
H3 C5 1_555 1_555
C6 C5 1_555 1_555
H4 C6 1_555 1_555
C7 N1 1_555 1_555
Cu1 N1 1_555 1_555
N2 C1 1_555 1_555
S1 C7 1_555 1_555
C1F C1 1_555 1_555
C2F C1F 1_555 1_555
C3F C3 1_555 1_555
H1F C3F 1_555 1_555
C4F C2F 1_555 1_555
H2F C4F 1_555 1_555
C5F C4F 1_555 1_555
H3F C5F 1_555 1_555
C6F C5F 1_555 1_555
H4F C6F 1_555 1_555
Cu1C S1 1_555 1_555
N2F Cu1 1_555 1_555
S1C Cu1 1_555 1_555
C6 N2 1_555 1_555
Cu1 N2 1_555 1_555
C1F N2F 1_555 1_555
C2F C3F 1_555 1_555
C6F N2F 1_555 1_555

#END
