
#######################################################################
#
#                 Cambridge Crystallographic Data Centre
#                                CCDC 
#
#######################################################################
#
# If this CIF has been generated from an entry in the Cambridge 
# Structural Database, then it will include bibliographic, chemical, 
# crystal, experimental, refinement or atomic coordinate data resulting 
# from the CCDC's data processing and validation procedures.
#
#######################################################################

data_UFUTEU
_symmetry_cell_setting           monoclinic
_symmetry_space_group_name_H-M   'P 21/c'
_symmetry_Int_Tables_number      14
_space_group_name_Hall           '-P 2ybc'
loop_
_symmetry_equiv_pos_site_id
_symmetry_equiv_pos_as_xyz
1 x,y,z
2 -x,1/2+y,1/2-z
3 -x,-y,-z
4 x,1/2-y,1/2+z
_cell_length_a                   8.9951(11)
_cell_length_b                   12.7079(17)
_cell_length_c                   11.3647(13)
_cell_angle_alpha                90
_cell_angle_beta                 108.078(9)
_cell_angle_gamma                90
_cell_volume                     1234.96
loop_
_atom_site_label
_atom_site_type_symbol
_atom_site_fract_x
_atom_site_fract_y
_atom_site_fract_z
Cu1 Cu 0.25614(4) 0.23950(3) 0.46967(3)
S1 S 0.08308(7) 0.33401(5) 0.31161(6)
C1 C 0.1473(3) 0.29926(18) 0.1960(2)
N1 N 0.1914(3) 0.27771(18) 0.1136(2)
N2 N 0.4880(2) 0.28483(16) 0.49537(19)
N3 N 0.3319(2) 0.10972(16) 0.38916(18)
C2 C 0.5649(3) 0.3708(2) 0.5474(2)
H1 H 0.508(4) 0.419(3) 0.584(3)
C3 C 0.7202(3) 0.3906(2) 0.5578(3)
H2 H 0.776(5) 0.458(3) 0.602(4)
C4 C 0.8022(3) 0.3178(2) 0.5144(3)
H3 H 0.915(4) 0.331(3) 0.519(3)
C5 C 0.7266(3) 0.2240(2) 0.4596(2)
C6 C 0.5684(3) 0.21217(18) 0.4516(2)
C7 C 0.4843(3) 0.11824(17) 0.3948(2)
C8 C 0.5648(3) 0.04053(18) 0.3506(2)
C9 C 0.4795(3) -0.0500(2) 0.2965(2)
H4 H 0.531(4) -0.106(2) 0.267(3)
C10 C 0.3250(3) -0.0576(2) 0.2894(2)
H5 H 0.258(4) -0.116(3) 0.248(4)
C11 C 0.2547(3) 0.0238(2) 0.3366(2)
H6 H 0.147(4) 0.019(2) 0.333(3)
C12 C 0.8042(3) 0.1435(2) 0.4136(3)
H7 H 0.912(4) 0.154(3) 0.423(3)
C13 C 0.7267(3) 0.0558(2) 0.3618(3)
H8 H 0.778(5) 0.005(3) 0.332(4)
Cu1C Cu 0.25614(4) 0.26050(3) -0.03033(3)
N1C N 0.1914(3) 0.22229(18) 0.6136(2)
loop_
_geom_bond_atom_site_label_1
_geom_bond_atom_site_label_2
_geom_bond_site_symmetry_1
_geom_bond_site_symmetry_2
Cu1 S1 1_555 1_555
S1 C1 1_555 1_555
C1 N1 1_555 1_555
N1 Cu1C 1_555 1_555
N2 Cu1 1_555 1_555
N3 Cu1 1_555 1_555
C2 N2 1_555 1_555
H1 C2 1_555 1_555
C3 C2 1_555 1_555
H2 C3 1_555 1_555
C4 C3 1_555 1_555
H3 C4 1_555 1_555
C5 C4 1_555 1_555
C6 N2 1_555 1_555
C7 N3 1_555 1_555
C8 C7 1_555 1_555
C9 C8 1_555 1_555
H4 C9 1_555 1_555
C10 C9 1_555 1_555
H5 C10 1_555 1_555
C11 N3 1_555 1_555
H6 C11 1_555 1_555
C12 C5 1_555 1_555
H7 C12 1_555 1_555
C13 C8 1_555 1_555
H8 C13 1_555 1_555
N1C Cu1 1_555 1_555
C5 C6 1_555 1_555
C6 C7 1_555 1_555
C10 C11 1_555 1_555
C12 C13 1_555 1_555

#END
