
#######################################################################
#
#                 Cambridge Crystallographic Data Centre
#                                CCDC 
#
#######################################################################
#
# If this CIF has been generated from an entry in the Cambridge 
# Structural Database, then it will include bibliographic, chemical, 
# crystal, experimental, refinement or atomic coordinate data resulting 
# from the CCDC's data processing and validation procedures.
#
#######################################################################

data_UFUXEY
_symmetry_cell_setting           monoclinic
_symmetry_space_group_name_H-M   'P 21'
_symmetry_Int_Tables_number      4
_space_group_name_Hall           'P 2yb'
loop_
_symmetry_equiv_pos_site_id
_symmetry_equiv_pos_as_xyz
1 x,y,z
2 -x,1/2+y,-z
_cell_length_a                   14.135(2)
_cell_length_b                   10.252(3)
_cell_length_c                   10.802(2)
_cell_angle_alpha                90.00
_cell_angle_beta                 99.93(2)
_cell_angle_gamma                90.00
_cell_volume                     1541.89
loop_
_atom_site_label
_atom_site_type_symbol
_atom_site_fract_x
_atom_site_fract_y
_atom_site_fract_z
Sn1 Sn 0.0433(2) 0.1574(3) 0.9715
O1 O 0.1365(17) 0.3123(21) 0.9178(21)
C1 C 0.1193(29) 0.4305(41) 0.9410(38)
O2 O 0.0498(18) 0.4693(23) 0.9741(21)
C2 C 0.1913(34) 0.5259(44) 0.8966(37)
C3 C 0.2853(27) 0.5459(41) 0.9820(37)
C4 C 0.3480(25) 0.6285(36) 0.9427(34)
C5 C 0.3312(25) 0.6915(31) 0.8312(31)
C6 C 0.2392(25) 0.6731(35) 0.7529(32)
C7 C 0.1728(27) 0.5918(40) 0.7887(35)
N1 N 0.2992(29) 0.4700(40) 1.1024(35)
N2 N 0.3844(23) 0.4765(30) 1.1500(29)
C8 C 0.4044(27) 0.4082(39) 1.2631(36)
C9 C 0.3405(26) 0.3415(39) 1.3176(32)
C10 C 0.3671(24) 0.2795(33) 1.4303(31)
C11 C 0.4657(23) 0.2779(39) 1.4911(33)
C12 C 0.5283(24) 0.3459(39) 1.4326(32)
C13 C 0.5001(26) 0.4075(39) 1.3209(34)
N3 N 0.4888(19) 0.2098(27) 1.6048(26)
C14 C 0.5898(21) 0.2158(29) 1.6729(29)
C15 C 0.4212(19) 0.1342(26) 1.6597(25)
C16 C 0.6508(22) 0.1160(32) 1.6240(29)
C17 C 0.3726(20) 0.2102(25) 1.7449(25)
C18 C 0.0554(24) 0.2212(31) 1.1614(34)
C19 C 0.0916(26) 0.1231(35) 1.2599(34)
C20 C 0.0933(24) 0.1777(32) 1.3957(31)
C21 C 0.1257(26) 0.0831(38) 1.4974(34)
C22 C -0.0799(25) 0.2011(33) 0.8335(33)
C23 C -0.0850(15) 0.1209(20) 0.7119(21)
C24 C -0.1402(17) 0.1414(25) 0.6067(22)
C25 C -0.1496(19) 0.0564(26) 0.5029(26)
C26 C 0.1384(29) 0.0157(39) 0.9152(33)
C27 C 0.2413(32) 0.0367(41) 0.9315(37)
C28 C 0.2913(32) 0.0619(44) 1.0478(38)
C29 C 0.4030(19) 0.0811(27) 1.0620(27)
H1 H 0.4071 0.6395 0.9955
H2 H 0.3741 0.7503 0.8083
H3 H 0.2251 0.7185 0.6777
H4 H 0.1163 0.5724 0.7323
H5 H 0.2745 0.3422 1.2795
H6 H 0.3220 0.2422 1.4705
H7 H 0.5915 0.3444 1.4692
H8 H 0.5463 0.4535 1.2872
H9 H 0.6183 0.2997 1.6614
H10 H 0.5935 0.2007 1.7622
H11 H 0.3737 0.0986 1.5962
H12 H 0.4545 0.0633 1.7093
H13 H 0.7145 0.1151 1.6652
H14 H 0.6474 0.1259 1.5339
H15 H 0.6227 0.0272 1.6344
H16 H 0.3322 0.1470 1.7722
H17 H 0.3412 0.2732 1.6931
H18 H 0.4222 0.2378 1.8064
H19 H 0.0982 0.2974 1.1713
H20 H -0.0071 0.2521 1.1734
H21 H 0.0533 0.0448 1.2487
H22 H 0.1579 0.0987 1.2551
H23 H 0.1281 0.2558 1.4025
H24 H 0.0250 0.1989 1.3976
H25 H 0.1222 0.1342 1.5764
H26 H 0.1929 0.0688 1.4980
H27 H 0.0895 0.0117 1.4930
H28 H -0.1362 0.1763 0.8669
H29 H -0.0813 0.2944 0.8198
H30 H -0.0182 0.1543 0.6758
H31 H -0.0675 0.0337 0.7257
H32 H -0.1580 0.2287 0.5763
H33 H -0.2136 0.1197 0.6365
H34 H -0.1981 0.0627 0.4376
H35 H -0.1416 -0.0361 0.5330
H36 H -0.0860 0.0727 0.4737
H37 H 0.1320 -0.0669 0.9674
H38 H 0.1145 -0.0124 0.8307
H39 H 0.2729 -0.0377 0.8991
H40 H 0.2501 0.1100 0.8731
H41 H 0.2797 -0.0007 1.1073
H42 H 0.2621 0.1476 1.0786
H43 H 0.4247 0.1115 1.1516
H44 H 0.4117 0.1620 1.0127
H45 H 0.4293 0.0133 1.0415
O2A O -0.0498(18) -0.0307(23) 1.0259(21)
Sn1A Sn -0.0433(2) 0.6574(3) 1.0285
loop_
_geom_bond_atom_site_label_1
_geom_bond_atom_site_label_2
_geom_bond_site_symmetry_1
_geom_bond_site_symmetry_2
Sn1 O1 1_555 1_555
O1 C1 1_555 1_555
C1 O2 1_555 1_555
O2 Sn1A 1_555 1_555
C2 C1 1_555 1_555
C3 C2 1_555 1_555
C4 C3 1_555 1_555
C5 C4 1_555 1_555
C6 C5 1_555 1_555
C7 C2 1_555 1_555
N1 C3 1_555 1_555
N2 N1 1_555 1_555
C8 N2 1_555 1_555
C9 C8 1_555 1_555
C10 C9 1_555 1_555
C11 C10 1_555 1_555
C12 C11 1_555 1_555
C13 C8 1_555 1_555
N3 C11 1_555 1_555
C14 N3 1_555 1_555
C15 N3 1_555 1_555
C16 C14 1_555 1_555
C17 C15 1_555 1_555
C18 Sn1 1_555 1_555
C19 C18 1_555 1_555
C20 C19 1_555 1_555
C21 C20 1_555 1_555
C22 Sn1 1_555 1_555
C23 C22 1_555 1_555
C24 C23 1_555 1_555
C25 C24 1_555 1_555
C26 Sn1 1_555 1_555
C27 C26 1_555 1_555
C28 C27 1_555 1_555
C29 C28 1_555 1_555
H1 C4 1_555 1_555
H2 C5 1_555 1_555
H3 C6 1_555 1_555
H4 C7 1_555 1_555
H5 C9 1_555 1_555
H6 C10 1_555 1_555
H7 C12 1_555 1_555
H8 C13 1_555 1_555
H9 C14 1_555 1_555
H10 C14 1_555 1_555
H11 C15 1_555 1_555
H12 C15 1_555 1_555
H13 C16 1_555 1_555
H14 C16 1_555 1_555
H15 C16 1_555 1_555
H16 C17 1_555 1_555
H17 C17 1_555 1_555
H18 C17 1_555 1_555
H19 C18 1_555 1_555
H20 C18 1_555 1_555
H21 C19 1_555 1_555
H22 C19 1_555 1_555
H23 C20 1_555 1_555
H24 C20 1_555 1_555
H25 C21 1_555 1_555
H26 C21 1_555 1_555
H27 C21 1_555 1_555
H28 C22 1_555 1_555
H29 C22 1_555 1_555
H30 C23 1_555 1_555
H31 C23 1_555 1_555
H32 C24 1_555 1_555
H33 C24 1_555 1_555
H34 C25 1_555 1_555
H35 C25 1_555 1_555
H36 C25 1_555 1_555
H37 C26 1_555 1_555
H38 C26 1_555 1_555
H39 C27 1_555 1_555
H40 C27 1_555 1_555
H41 C28 1_555 1_555
H42 C28 1_555 1_555
H43 C29 1_555 1_555
H44 C29 1_555 1_555
H45 C29 1_555 1_555
O2A Sn1 1_555 1_555
C6 C7 1_555 1_555
C12 C13 1_555 1_555

#END
