
#######################################################################
#
#                 Cambridge Crystallographic Data Centre
#                                CCDC 
#
#######################################################################
#
# If this CIF has been generated from an entry in the Cambridge 
# Structural Database, then it will include bibliographic, chemical, 
# crystal, experimental, refinement or atomic coordinate data resulting 
# from the CCDC's data processing and validation procedures.
#
#######################################################################

data_UFUYUQ
_symmetry_cell_setting           monoclinic
_symmetry_space_group_name_H-M   'P 21/n'
_symmetry_Int_Tables_number      14
_space_group_name_Hall           '-P 2yn'
loop_
_symmetry_equiv_pos_site_id
_symmetry_equiv_pos_as_xyz
1 x,y,z
2 1/2-x,1/2+y,1/2-z
3 -x,-y,-z
4 1/2+x,1/2-y,1/2+z
_cell_length_a                   9.4006(13)
_cell_length_b                   15.3401(13)
_cell_length_c                   17.637(2)
_cell_angle_alpha                90
_cell_angle_beta                 100.007(11)
_cell_angle_gamma                90
_cell_volume                     2504.67
loop_
_atom_site_label
_atom_site_type_symbol
_atom_site_fract_x
_atom_site_fract_y
_atom_site_fract_z
C1 C -0.0496(4) 0.0206(3) 0.3119(3)
C2 C 0.2444(5) 0.3486(3) 0.5697(3)
C3 C -0.1077(5) -0.0063(4) 0.3764(3)
C4 C -0.6955(5) 0.2052(4) 0.3335(3)
C5 C -0.0991(6) -0.0910(4) 0.4009(3)
H1 H -0.1404 -0.1078 0.4429
C6 C -0.0275(6) -0.1522(4) 0.3623(4)
H2 H -0.0225 -0.2101 0.3781
C7 C 0.0698(5) 0.2942(4) 0.4729(3)
C8 C 0.0343(6) -0.1276(4) 0.3023(4)
H3 H 0.0827 -0.1689 0.2777
C9 C -0.4552(5) 0.2193(3) 0.3702(3)
C10 C 0.0272(5) -0.0408(3) 0.2759(3)
C11 C 0.0972(5) -0.0230(4) 0.2108(3)
H4 H 0.1428 -0.0703 0.1923
C12 C 0.0970(5) 0.3264(5) 0.1392(3)
H5 H 0.1422 0.3568 0.1044
C13 C -0.0491(4) 0.3471(4) 0.2433(3)
C14 C 0.1700(6) 0.2070(4) 0.0726(3)
H6 H 0.2278 0.2517 0.0536
H7 H 0.0960 0.1889 0.0302
C15 C 0.2644(6) 0.1306(4) 0.0995(3)
H8 H 0.3241 0.1451 0.1485
H9 H 0.3282 0.1199 0.0628
C16 C 0.1808(6) 0.0469(4) 0.1092(3)
H10 H 0.1111 0.0368 0.0626
H11 H 0.2477 -0.0018 0.1156
C17 C -0.1078(5) 0.4076(4) 0.2901(3)
C18 C 0.0335(5) 0.3797(4) 0.1911(3)
C19 C -0.2406(6) 0.4231(4) 0.3935(3)
H12 H -0.2949 0.3883 0.4236
H13 H -0.3014 0.4681 0.3676
H14 H -0.1600 0.4492 0.4267
C20 C -0.2484(6) 0.0380(4) 0.4706(3)
H15 H -0.2853 0.0902 0.4901
H16 H -0.1855 0.0089 0.5115
H17 H -0.3273 0.0002 0.4504
C21 C 0.0548(6) 0.4710(4) 0.1882(4)
H18 H 0.1091 0.4932 0.1533
C22 C -0.0018(6) 0.5275(4) 0.2349(4)
H19 H 0.0158 0.5869 0.2321
C23 C -0.0853(5) 0.4963(4) 0.2863(3)
H20 H -0.1255 0.5345 0.3178
Co1 Co -0.13702(6) 0.20489(5) 0.34165(4)
N1 N 0.1048(4) 0.0493(3) 0.1750(2)
N2 N 0.1352(6) 0.3571(3) 0.5135(4)
N3 N 0.1007(4) 0.2441(3) 0.1336(2)
N4 N -0.5836(4) 0.2283(4) 0.3853(3)
N5 N 0.3370(4) 0.3524(3) 0.6200(2)
N6 N -0.7961(4) 0.1869(3) 0.2924(2)
N7 N 0.0005(4) 0.2452(3) 0.4348(2)
N8 N -0.3373(4) 0.2138(3) 0.3617(2)
Ni1 Ni 0.01966(6) 0.16334(4) 0.20607(4)
O1 O -0.0700(3) 0.1023(2) 0.28816(17)
O2 O -0.0782(3) 0.2636(2) 0.25124(17)
O3 O -0.1700(3) 0.0598(2) 0.4110(2)
O4 O -0.1893(3) 0.3694(2) 0.3381(2)
N5C N -0.1630(4) 0.1476(3) 0.1200(2)
N6_2 N 0.2039(4) 0.1869(3) 0.2924(2)
Ni1C Ni 0.51966(6) 0.33666(4) 0.70607(4)
Ni1_2 Ni -0.98034(6) 0.16334(4) 0.20607(4)
loop_
_geom_bond_atom_site_label_1
_geom_bond_atom_site_label_2
_geom_bond_site_symmetry_1
_geom_bond_site_symmetry_2
C1 C3 1_555 1_555
C2 N2 1_555 1_555
C3 C5 1_555 1_555
C4 N4 1_555 1_555
C5 H1 1_555 1_555
C6 C5 1_555 1_555
H2 C6 1_555 1_555
C7 N2 1_555 1_555
C8 C6 1_555 1_555
H3 C8 1_555 1_555
C9 N4 1_555 1_555
C10 C1 1_555 1_555
C11 C10 1_555 1_555
H4 C11 1_555 1_555
C12 H5 1_555 1_555
C13 C17 1_555 1_555
C14 H6 1_555 1_555
H7 C14 1_555 1_555
C15 C14 1_555 1_555
H8 C15 1_555 1_555
H9 C15 1_555 1_555
C16 C15 1_555 1_555
H10 C16 1_555 1_555
H11 C16 1_555 1_555
C17 C23 1_555 1_555
C18 C12 1_555 1_555
C19 H12 1_555 1_555
H13 C19 1_555 1_555
H14 C19 1_555 1_555
C20 H15 1_555 1_555
H16 C20 1_555 1_555
H17 C20 1_555 1_555
C21 C18 1_555 1_555
H18 C21 1_555 1_555
C22 C21 1_555 1_555
H19 C22 1_555 1_555
C23 C22 1_555 1_555
H20 C23 1_555 1_555
Co1 N7 1_555 1_555
N1 C11 1_555 1_555
N3 C12 1_555 1_555
N5 C2 1_555 1_555
N6 C4 1_555 1_555
N7 C7 1_555 1_555
N8 C9 1_555 1_555
Ni1 N1 1_555 1_555
O1 C1 1_555 1_555
O2 C13 1_555 1_555
O3 C3 1_555 1_555
O4 C17 1_555 1_555
N5C Ni1 1_555 1_555
N6_2 Ni1 1_555 1_555
Ni1C N5 1_555 1_555
Ni1_2 N6 1_555 1_555
C8 C10 1_555 1_555
C13 C18 1_555 1_555
C14 N3 1_555 1_555
C16 N1 1_555 1_555
C19 O4 1_555 1_555
C20 O3 1_555 1_555
Co1 N8 1_555 1_555
Co1 O1 1_555 1_555
Co1 O2 1_555 1_555
N3 Ni1 1_555 1_555
Ni1 O1 1_555 1_555
Ni1 O2 1_555 1_555

#END
