
#######################################################################
#
#                 Cambridge Crystallographic Data Centre
#                                CCDC 
#
#######################################################################
#
# If this CIF has been generated from an entry in the Cambridge 
# Structural Database, then it will include bibliographic, chemical, 
# crystal, experimental, refinement or atomic coordinate data resulting 
# from the CCDC's data processing and validation procedures.
#
#######################################################################

data_UGADIQ
_symmetry_cell_setting           triclinic
_symmetry_space_group_name_H-M   'P -1'
_symmetry_Int_Tables_number      2
_space_group_name_Hall           '-P 1'
loop_
_symmetry_equiv_pos_site_id
_symmetry_equiv_pos_as_xyz
1 x,y,z
2 -x,-y,-z
_cell_length_a                   9.6379(8)
_cell_length_b                   16.9589(13)
_cell_length_c                   17.6005(14)
_cell_angle_alpha                99.9710(10)
_cell_angle_beta                 105.7580(10)
_cell_angle_gamma                93.6920(10)
_cell_volume                     2707.93
loop_
_atom_site_label
_atom_site_type_symbol
_atom_site_fract_x
_atom_site_fract_y
_atom_site_fract_z
La1 La 0.258177(16) 0.499734(10) -0.006109(9)
S1 S 0.10706(8) 0.38091(5) -0.34921(5)
S2 S 0.40219(7) 0.42159(4) 0.29358(4)
S3 S 0.79434(8) 0.25355(4) 0.15572(5)
O1 O 0.1618(2) 0.63523(12) 0.02011(13)
H1 H 0.1905 0.6766 0.0076
H2 H 0.0832 0.6385 0.0304
O2 O 0.1060(2) 0.35582(12) -0.05495(13)
H3 H 0.1297 0.3181 -0.0310
H4 H 0.0889 0.3404 -0.1041
O10 O 0.3661(2) 0.43176(14) -0.10554(12)
O11 O 0.5783(2) 0.42477(12) -0.13048(12)
O12 O -0.0380(2) 0.38036(15) -0.34221(14)
O13 O 0.1456(3) 0.31244(14) -0.39538(14)
O14 O 0.1275(3) 0.76424(15) -0.42586(15)
O15 O 0.1129(2) 0.48426(12) 0.08728(11)
O16 O -0.07047(19) 0.50076(12) 0.14005(11)
O17 O 0.53348(19) 0.41848(12) 0.27017(12)
O18 O 0.3960(2) 0.48139(12) 0.36059(12)
O19 O 0.4620(3) 0.04174(16) 0.3733(2)
O20 O 0.3830(2) 0.39887(12) 0.06651(12)
O21 O 0.6009(2) 0.39877(14) 0.04656(14)
O22 O 0.9197(2) 0.28575(13) 0.22222(13)
O23 O 0.8024(2) 0.24757(13) 0.07503(13)
O24 O 0.5300(4) -0.14674(17) 0.0583(2)
N3 N 0.2392(3) 0.66611(16) -0.48231(15)
H19 H 0.2934 0.6575 -0.5138
N4 N 0.2098(2) 0.39212(15) -0.25785(14)
H20 H 0.1786 0.4239 -0.2250
N5 N 0.2777(3) 0.11179(16) 0.39024(17)
H21 H 0.2003 0.1090 0.4055
N6 N 0.2788(2) 0.43271(14) 0.21596(14)
H22 H 0.2968 0.4242 0.1702
N7 N 0.6052(3) -0.07706(17) 0.18688(19)
H23 H 0.6140 -0.0819 0.2357
N8 N 0.6694(3) 0.30760(15) 0.16910(15)
H24 H 0.6871 0.3433 0.2127
C11 C 0.2443(5) 0.7948(2) -0.5219(2)
H33 H 0.3112 0.8393 -0.4873
H34 H 0.2906 0.7648 -0.5575
H35 H 0.1607 0.8147 -0.5530
C12 C 0.1980(4) 0.7408(2) -0.4717(2)
C13 C 0.2055(3) 0.60042(19) -0.44881(17)
C14 C 0.2455(4) 0.5268(2) -0.47753(18)
H36 H 0.2927 0.5227 -0.5174
C15 C 0.2163(4) 0.4596(2) -0.44775(18)
H37 H 0.2432 0.4103 -0.4677
C16 C 0.1472(3) 0.46566(18) -0.38848(17)
C17 C 0.1093(3) 0.5392(2) -0.35814(19)
H38 H 0.0650 0.5434 -0.3171
C18 C 0.1369(3) 0.6064(2) -0.38838(19)
H39 H 0.1097 0.6556 -0.3684
C19 C 0.3678(3) 0.39876(18) -0.24138(17)
H40 H 0.3956 0.3479 -0.2640
H41 H 0.3990 0.4400 -0.2671
C20 C 0.4426(3) 0.42005(16) -0.15174(17)
C21 C 0.2910(4) -0.0189(2) 0.4262(3)
H42 H 0.2954 -0.0701 0.3941
H43 H 0.1918 -0.0127 0.4242
H44 H 0.3467 -0.0165 0.4810
C22 C 0.3518(4) 0.0474(2) 0.3941(2)
C23 C 0.3099(3) 0.18314(18) 0.36461(19)
C24 C 0.2253(3) 0.24512(19) 0.3760(2)
H45 H 0.1507 0.2379 0.3993
C25 C 0.2512(3) 0.31701(19) 0.35326(18)
H46 H 0.1944 0.3582 0.3613
C26 C 0.3621(3) 0.32816(17) 0.31820(16)
C27 C 0.4451(3) 0.26621(19) 0.30571(19)
H47 H 0.5189 0.2734 0.2819
C28 C 0.4193(4) 0.1935(2) 0.3285(2)
H48 H 0.4749 0.1520 0.3195
C29 C 0.1371(3) 0.45656(18) 0.21862(17)
H49 H 0.1504 0.5004 0.2643
H50 H 0.0794 0.4115 0.2267
C30 C 0.0555(3) 0.48297(16) 0.14311(16)
C31 C 0.5402(6) -0.2210(2) 0.1623(3)
H51 H 0.4702 -0.2606 0.1222
H52 H 0.5082 -0.2087 0.2096
H53 H 0.6322 -0.2418 0.1757
C32 C 0.5558(4) -0.1454(2) 0.1296(3)
C33 C 0.6435(4) 0.00059(19) 0.1758(2)
C34 C 0.6969(4) 0.0612(2) 0.2442(2)
H54 H 0.7012 0.0497 0.2945
C35 C 0.7435(4) 0.1381(2) 0.2387(2)
H55 H 0.7798 0.1779 0.2849
C36 C 0.7356(3) 0.15532(17) 0.16363(18)
C37 C 0.6801(4) 0.0964(2) 0.0957(2)
H56 H 0.6738 0.1084 0.0454
C38 C 0.6338(4) 0.0197(2) 0.1014(2)
H57 H 0.5958 -0.0196 0.0549
C39 C 0.5270(3) 0.29862(17) 0.11036(17)
H58 H 0.4526 0.2903 0.1368
H59 H 0.5182 0.2513 0.0688
C40 C 0.5024(3) 0.37176(16) 0.07175(16)
La1A La 0.741823(16) 0.500266(10) 0.006109(9)
La1A_2 La -0.258177(16) 0.500266(10) 0.006109(9)
O11A O 0.4217(2) 0.57523(12) 0.13048(12)
O16A O 0.07047(19) 0.49924(12) -0.14005(11)
O21A O 0.3991(2) 0.60123(14) -0.04656(14)
O3 O 0.9777(3) 0.89637(17) 0.55106(19)
H5 H 1.0301 0.9414 0.5706
H6 H 1.0277 0.8587 0.5598
O4 O 0.0218(3) 0.72632(16) 0.20987(16)
H7 H 0.0659 0.7723 0.2191
H8 H 0.0159 0.7125 0.2516
O5 O 0.2932(4) 0.6603(2) 0.24267(18)
H9 H 0.2167 0.6808 0.2264
H10 H 0.3196 0.6362 0.2049
O6 O 0.4132(3) 0.64998(15) 0.39867(17)
H11 H 0.3585 0.6546 0.3543
H12 H 0.4297 0.6019 0.3966
O7 O 0.6218(3) 0.78156(17) 0.4194(2)
H13 H 0.6996 0.7618 0.4238
H14 H 0.5515 0.7454 0.4052
O8 O 0.6063(3) 0.91138(16) 0.34828(18)
H15 H 0.5455 0.9364 0.3641
H16 H 0.5898 0.8604 0.3557
O9 O 0.9044(4) 0.9414(2) 0.3991(2)
H17 H 0.8183 0.9502 0.3867
H18 H 0.9513 0.9024 0.4112
N1 N 0.1019(4) -0.1134(2) 0.2089(2)
N2 N 0.1528(3) 0.22331(19) 0.0229(2)
C1 C 0.0358(4) -0.0486(3) 0.2233(2)
H25 H -0.0241 -0.0493 0.2568
C2 C 0.0498(4) 0.0198(2) 0.1921(2)
H26 H 0.0004 0.0632 0.2048
C3 C 0.1373(4) 0.0238(2) 0.1419(2)
C4 C 0.2095(5) -0.0430(3) 0.1278(3)
H27 H 0.2716 -0.0434 0.0955
C5 C 0.1892(6) -0.1087(3) 0.1616(4)
H28 H 0.2391 -0.1525 0.1510
C6 C 0.1388(4) 0.2322(2) 0.0971(2)
H29 H 0.1310 0.2837 0.1229
C7 C 0.1351(4) 0.1704(2) 0.1382(2)
H30 H 0.1246 0.1806 0.1898
C8 C 0.1470(4) 0.0932(2) 0.1023(2)
C9 C 0.1627(5) 0.0831(2) 0.0258(3)
H31 H 0.1717 0.0322 -0.0009
C10 C 0.1652(5) 0.1486(3) -0.0111(3)
H32 H 0.1762 0.1399 -0.0627
loop_
_geom_bond_atom_site_label_1
_geom_bond_atom_site_label_2
_geom_bond_site_symmetry_1
_geom_bond_site_symmetry_2
La1 O1 1_555 1_555
S1 O12 1_555 1_555
S2 O17 1_555 1_555
S3 O22 1_555 1_555
O1 H1 1_555 1_555
H2 O1 1_555 1_555
O2 La1 1_555 1_555
H3 O2 1_555 1_555
H4 O2 1_555 1_555
O3 H5 1_555 1_555
H6 O3 1_555 1_555
O4 H7 1_555 1_555
H8 O4 1_555 1_555
O5 H9 1_555 1_555
H10 O5 1_555 1_555
O6 H11 1_555 1_555
H12 O6 1_555 1_555
O7 H13 1_555 1_555
H14 O7 1_555 1_555
O8 H15 1_555 1_555
H16 O8 1_555 1_555
O9 H17 1_555 1_555
H18 O9 1_555 1_555
O10 La1 1_555 1_555
O11 C20 1_555 1_555
O13 S1 1_555 1_555
O14 C12 1_555 1_555
O15 La1 1_555 1_555
O16 C30 1_555 1_555
O18 S2 1_555 1_555
O19 C22 1_555 1_555
O20 La1 1_555 1_555
O21 C40 1_555 1_555
O23 S3 1_555 1_555
O24 C32 1_555 1_555
N1 C1 1_555 1_555
N2 C6 1_555 1_555
N3 H19 1_555 1_555
N4 S1 1_555 1_555
H20 N4 1_555 1_555
N5 H21 1_555 1_555
N6 S2 1_555 1_555
H22 N6 1_555 1_555
N7 H23 1_555 1_555
N8 S3 1_555 1_555
H24 N8 1_555 1_555
C1 H25 1_555 1_555
C2 C1 1_555 1_555
H26 C2 1_555 1_555
C3 C2 1_555 1_555
C4 C3 1_555 1_555
H27 C4 1_555 1_555
C5 N1 1_555 1_555
H28 C5 1_555 1_555
C6 H29 1_555 1_555
C7 C6 1_555 1_555
H30 C7 1_555 1_555
C8 C3 1_555 1_555
C9 C8 1_555 1_555
H31 C9 1_555 1_555
C10 N2 1_555 1_555
H32 C10 1_555 1_555
C11 H33 1_555 1_555
H34 C11 1_555 1_555
H35 C11 1_555 1_555
C12 N3 1_555 1_555
C13 N3 1_555 1_555
C14 C13 1_555 1_555
H36 C14 1_555 1_555
C15 C14 1_555 1_555
H37 C15 1_555 1_555
C16 S1 1_555 1_555
C17 C16 1_555 1_555
H38 C17 1_555 1_555
C18 C13 1_555 1_555
H39 C18 1_555 1_555
C19 N4 1_555 1_555
H40 C19 1_555 1_555
H41 C19 1_555 1_555
C20 O10 1_555 1_555
C21 H42 1_555 1_555
H43 C21 1_555 1_555
H44 C21 1_555 1_555
C22 N5 1_555 1_555
C23 N5 1_555 1_555
C24 C23 1_555 1_555
H45 C24 1_555 1_555
C25 C24 1_555 1_555
H46 C25 1_555 1_555
C26 S2 1_555 1_555
C27 C26 1_555 1_555
H47 C27 1_555 1_555
C28 C23 1_555 1_555
H48 C28 1_555 1_555
C29 N6 1_555 1_555
H49 C29 1_555 1_555
H50 C29 1_555 1_555
C30 O15 1_555 1_555
C31 H51 1_555 1_555
H52 C31 1_555 1_555
H53 C31 1_555 1_555
C32 N7 1_555 1_555
C33 N7 1_555 1_555
C34 C33 1_555 1_555
H54 C34 1_555 1_555
C35 C34 1_555 1_555
H55 C35 1_555 1_555
C36 S3 1_555 1_555
C37 C36 1_555 1_555
H56 C37 1_555 1_555
C38 C33 1_555 1_555
H57 C38 1_555 1_555
C39 N8 1_555 1_555
H58 C39 1_555 1_555
H59 C39 1_555 1_555
C40 O20 1_555 1_555
La1A O11 1_555 1_555
La1A_2 O16 1_555 1_555
O11A La1 1_555 1_555
O16A La1 1_555 1_555
O21A La1 1_555 1_555
O21 La1A 1_555 1_555
C4 C5 1_555 1_555
C7 C8 1_555 1_555
C9 C10 1_555 1_555
C11 C12 1_555 1_555
C15 C16 1_555 1_555
C17 C18 1_555 1_555
C19 C20 1_555 1_555
C21 C22 1_555 1_555
C25 C26 1_555 1_555
C27 C28 1_555 1_555
C29 C30 1_555 1_555
C31 C32 1_555 1_555
C35 C36 1_555 1_555
C37 C38 1_555 1_555
C39 C40 1_555 1_555

#END
