
#######################################################################
#
#                 Cambridge Crystallographic Data Centre
#                                CCDC 
#
#######################################################################
#
# If this CIF has been generated from an entry in the Cambridge 
# Structural Database, then it will include bibliographic, chemical, 
# crystal, experimental, refinement or atomic coordinate data resulting 
# from the CCDC's data processing and validation procedures.
#
#######################################################################

data_UGAHUG
_symmetry_cell_setting           orthorhombic
_symmetry_space_group_name_H-M   'P 21 21 21'
_symmetry_Int_Tables_number      19
_space_group_name_Hall           'P 2ac 2ab'
loop_
_symmetry_equiv_pos_site_id
_symmetry_equiv_pos_as_xyz
1 x,y,z
2 1/2-x,-y,1/2+z
3 -x,1/2+y,1/2-z
4 1/2+x,1/2-y,-z
_cell_length_a                   9.7759(2)
_cell_length_b                   16.9083(4)
_cell_length_c                   19.3380(4)
_cell_angle_alpha                90
_cell_angle_beta                 90
_cell_angle_gamma                90
_cell_volume                     3196.45
loop_
_atom_site_label
_atom_site_type_symbol
_atom_site_fract_x
_atom_site_fract_y
_atom_site_fract_z
C1 C 0.8251(6) 0.2139(3) 0.8550(3)
C2 C 0.8423(6) 0.2494(3) 0.7900(3)
C3 C 0.7752(6) 0.2152(3) 0.7335(3)
C4 C 0.6949(6) 0.1483(3) 0.7390(3)
C5 C 0.6819(6) 0.1159(3) 0.8047(3)
C6 C 0.7445(6) 0.1478(3) 0.8629(3)
C7 C 0.6216(7) 0.1144(3) 0.6765(3)
C8 C 0.7222(7) 0.1122(3) 0.9341(3)
C9 C 0.5098(7) -0.0943(4) 0.6534(4)
H1 H 0.4532 -0.0501 0.6540
C10 C 0.4829(8) -0.1565(5) 0.6968(4)
H2 H 0.4091 -0.1528 0.7270
C11 C 0.5594(10) -0.2230(5) 0.6973(4)
H3 H 0.5393 -0.2651 0.7266
C12 C 0.6668(9) -0.2254(5) 0.6531(4)
H4 H 0.7232 -0.2697 0.6520
C13 C 0.6927(7) -0.1626(4) 0.6100(4)
H5 H 0.7658 -0.1661 0.5793
C14 C 0.3899(6) 0.0851(4) 0.5269(3)
H6 H 0.4381 0.1279 0.5447
C15 C 0.2563(7) 0.0963(4) 0.5090(3)
H7 H 0.2141 0.1451 0.5151
C16 C 0.1858(7) 0.0329(5) 0.4817(3)
H8 H 0.0956 0.0391 0.4674
C17 C 0.2472(6) -0.0377(4) 0.4759(3)
H9 H 0.2000 -0.0815 0.4592
C18 C 0.3832(7) -0.0434(4) 0.4955(3)
H10 H 0.4267 -0.0921 0.4911
C19 C 0.8409(7) 0.1424(4) 0.4923(4)
H11 H 0.8886 0.1305 0.5326
C20 C 0.8939(7) 0.1985(4) 0.4494(4)
H12 H 0.9751 0.2240 0.4608
C21 C 0.8283(9) 0.2166(4) 0.3905(4)
H13 H 0.8643 0.2536 0.3599
C22 C 0.7084(9) 0.1797(4) 0.3766(4)
H14 H 0.6584 0.1925 0.3372
C23 C 0.6616(7) 0.1222(4) 0.4223(4)
H15 H 0.5812 0.0956 0.4113
Co1 Co 0.66979(7) 0.00406(5) 0.54654(4)
I1 I 0.92570(5) 0.26385(3) 0.94026(2)
I2 I 0.78262(5) 0.27575(3) 0.63848(2)
I3 I 0.56454(5) 0.01146(3) 0.81795(2)
N1 N 0.9245(6) 0.3143(3) 0.7821(3)
H21 H 0.9357 0.3349 0.7418
H22 H 0.9649 0.3345 0.8174
N2 N 0.6167(5) -0.0964(3) 0.6102(2)
N3 N 0.4548(5) 0.0175(3) 0.5205(2)
N4 N 0.7237(6) 0.1033(3) 0.4799(3)
O1 O 0.6899(4) 0.0730(2) 0.6366(2)
O2 O 0.5004(5) 0.1311(3) 0.6709(2)
O3 O 0.8147(4) 0.0677(2) 0.95601(19)
O4 O 0.6139(4) 0.1298(2) 0.9646(2)
O5 O 0.8809(3) -0.0161(2) 0.55937(18)
H23 H 0.9049 -0.0603 0.5423
H24 H 0.9037 -0.0143 0.6018
Co1A Co 0.83021(7) -0.00406(5) 1.04654(4)
O3A O 0.6853(4) -0.0677(2) 0.45601(19)
C24 C -0.0436(7) 0.0013(4) 0.7430(5)
H16 H -0.1309 -0.0202 0.7465
C25 C 0.0132(9) 0.0325(5) 0.8004(4)
H17 H -0.0337 0.0321 0.8422
C26 C 0.1384(11) 0.0640(5) 0.7959(5)
H18 H 0.1804 0.0855 0.8348
C27 C 0.2020(9) 0.0641(6) 0.7351(5)
H19 H 0.2884 0.0867 0.7309
C28 C 0.1404(9) 0.0313(5) 0.6790(4)
H20 H 0.1862 0.0311 0.6369
N5 N 0.0172(7) -0.0004(4) 0.6829(3)
loop_
_geom_bond_atom_site_label_1
_geom_bond_atom_site_label_2
_geom_bond_site_symmetry_1
_geom_bond_site_symmetry_2
C1 C2 1_555 1_555
C2 C3 1_555 1_555
C3 C4 1_555 1_555
C4 C5 1_555 1_555
C5 C6 1_555 1_555
C6 C1 1_555 1_555
C7 C4 1_555 1_555
C8 C6 1_555 1_555
C9 H1 1_555 1_555
C10 C9 1_555 1_555
H2 C10 1_555 1_555
C11 C10 1_555 1_555
H3 C11 1_555 1_555
C12 C11 1_555 1_555
H4 C12 1_555 1_555
C13 C12 1_555 1_555
H5 C13 1_555 1_555
C14 H6 1_555 1_555
C15 C14 1_555 1_555
H7 C15 1_555 1_555
C16 C15 1_555 1_555
H8 C16 1_555 1_555
C17 C16 1_555 1_555
H9 C17 1_555 1_555
C18 C17 1_555 1_555
H10 C18 1_555 1_555
C19 H11 1_555 1_555
C20 C19 1_555 1_555
H12 C20 1_555 1_555
C21 C20 1_555 1_555
H13 C21 1_555 1_555
C22 C21 1_555 1_555
H14 C22 1_555 1_555
C23 C22 1_555 1_555
H15 C23 1_555 1_555
C24 H16 1_555 1_555
C25 C24 1_555 1_555
H17 C25 1_555 1_555
C26 C25 1_555 1_555
H18 C26 1_555 1_555
C27 C26 1_555 1_555
H19 C27 1_555 1_555
C28 C27 1_555 1_555
H20 C28 1_555 1_555
Co1 N2 1_555 1_555
I1 C1 1_555 1_555
I2 C3 1_555 1_555
I3 C5 1_555 1_555
N1 C2 1_555 1_555
H21 N1 1_555 1_555
H22 N1 1_555 1_555
N2 C9 1_555 1_555
N3 C14 1_555 1_555
N4 C19 1_555 1_555
N5 C24 1_555 1_555
O1 C7 1_555 1_555
O2 C7 1_555 1_555
O3 C8 1_555 1_555
O4 C8 1_555 1_555
O5 Co1 1_555 1_555
H23 O5 1_555 1_555
H24 O5 1_555 1_555
Co1A O3 1_555 1_555
O3A Co1 1_555 1_555
C13 N2 1_555 1_555
C18 N3 1_555 1_555
C23 N4 1_555 1_555
C28 N5 1_555 1_555
Co1 N3 1_555 1_555
Co1 N4 1_555 1_555
Co1 O1 1_555 1_555

#END
