
#######################################################################
#
#                 Cambridge Crystallographic Data Centre
#                                CCDC 
#
#######################################################################
#
# If this CIF has been generated from an entry in the Cambridge 
# Structural Database, then it will include bibliographic, chemical, 
# crystal, experimental, refinement or atomic coordinate data resulting 
# from the CCDC's data processing and validation procedures.
#
#######################################################################

data_UGAHAM
_symmetry_cell_setting           monoclinic
_symmetry_space_group_name_H-M   'P 21/n'
_symmetry_Int_Tables_number      14
_space_group_name_Hall           '-P 2yn'
loop_
_symmetry_equiv_pos_site_id
_symmetry_equiv_pos_as_xyz
1 x,y,z
2 1/2-x,1/2+y,1/2-z
3 -x,-y,-z
4 1/2+x,1/2-y,1/2+z
_cell_length_a                   8.4161(15)
_cell_length_b                   11.817(2)
_cell_length_c                   15.631(3)
_cell_angle_alpha                90
_cell_angle_beta                 99.673(2)
_cell_angle_gamma                90
_cell_volume                     1532.45
loop_
_atom_site_label
_atom_site_type_symbol
_atom_site_fract_x
_atom_site_fract_y
_atom_site_fract_z
C1 C 0.8278(4) 0.8449(3) 0.3362(2)
C2 C 0.3464(4) 0.7893(3) 0.1478(2)
H1 H 0.3042 0.7689 0.1968
C3 C 0.2736(5) 0.8650(3) 0.0850(3)
H2 H 0.1769 0.9034 0.0840
C4 C 0.3722(5) 0.8708(3) 0.0265(3)
H3 H 0.3569 0.9151 -0.0234
C5 C 0.6374(4) 0.7813(2) 0.01605(19)
C6 C 0.6570(5) 0.8277(3) -0.0627(2)
H4 H 0.5765 0.8708 -0.0955
C7 C 0.8005(6) 0.8073(3) -0.0903(2)
H5 H 0.8187 0.8386 -0.1423
C8 C 0.9175(5) 0.7420(3) -0.0429(2)
H6 H 1.0153 0.7286 -0.0612
C9 C 0.8833(4) 0.6968(3) 0.0337(2)
C10 C 1.1325(5) 0.5770(3) 0.0743(3)
H7 H 1.1804 0.5861 0.0253
C11 C 1.1898(5) 0.5134(3) 0.1447(3)
H8 H 1.2834 0.4701 0.1538
C12 C 1.0793(5) 0.5266(3) 0.2001(3)
H9 H 1.0885 0.4923 0.2543
Cd1 Cd 0.69811(3) 0.631846(17) 0.194115(13)
N1 N 0.9587(4) 0.5939(2) 0.16692(19)
N2 N 0.9920(4) 0.6253(2) 0.08807(19)
N3 N 0.7484(3) 0.7163(2) 0.06248(15)
N4 N 0.4991(3) 0.8004(2) 0.05286(16)
N5 N 0.4831(3) 0.7503(2) 0.12873(16)
N6 N 0.7831(5) 0.7729(3) 0.29035(19)
N7 N 0.6367(3) 0.5128(2) 0.34211(16)
O1 O 0.6028(3) 0.4666(2) 0.40633(16)
O2 O 0.7776(3) 0.5144(2) 0.32709(14)
O3 O 0.5296(3) 0.5612(2) 0.28825(14)
S1 S 0.89559(11) 0.94486(6) 0.40588(5)
Cd1A Cd 0.80189(3) 1.131846(17) 0.305885(13)
S1A S 0.60441(11) 0.44486(6) 0.09412(5)
loop_
_geom_bond_atom_site_label_1
_geom_bond_atom_site_label_2
_geom_bond_site_symmetry_1
_geom_bond_site_symmetry_2
C1 N6 1_555 1_555
C2 H1 1_555 1_555
C3 C2 1_555 1_555
H2 C3 1_555 1_555
C4 C3 1_555 1_555
H3 C4 1_555 1_555
C5 C6 1_555 1_555
C6 H4 1_555 1_555
C7 C6 1_555 1_555
H5 C7 1_555 1_555
C8 C7 1_555 1_555
H6 C8 1_555 1_555
C9 C8 1_555 1_555
C10 H7 1_555 1_555
C11 C10 1_555 1_555
H8 C11 1_555 1_555
C12 C11 1_555 1_555
H9 C12 1_555 1_555
Cd1 N1 1_555 1_555
N1 C12 1_555 1_555
N2 C9 1_555 1_555
N3 C5 1_555 1_555
N4 C4 1_555 1_555
N5 C2 1_555 1_555
N6 Cd1 1_555 1_555
N7 O1 1_555 1_555
O2 Cd1 1_555 1_555
O3 Cd1 1_555 1_555
S1 C1 1_555 1_555
Cd1A S1 1_555 1_555
S1A Cd1 1_555 1_555
C5 N4 1_555 1_555
C9 N3 1_555 1_555
C10 N2 1_555 1_555
Cd1 N3 1_555 1_555
Cd1 N5 1_555 1_555
N1 N2 1_555 1_555
N4 N5 1_555 1_555
N7 O2 1_555 1_555
N7 O3 1_555 1_555

#END
