
#######################################################################
#
#                 Cambridge Crystallographic Data Centre
#                                CCDC 
#
#######################################################################
#
# If this CIF has been generated from an entry in the Cambridge 
# Structural Database, then it will include bibliographic, chemical, 
# crystal, experimental, refinement or atomic coordinate data resulting 
# from the CCDC's data processing and validation procedures.
#
#######################################################################

data_UGAKET
_symmetry_cell_setting           monoclinic
_symmetry_space_group_name_H-M   'P 21/n'
_symmetry_Int_Tables_number      14
_space_group_name_Hall           '-P 2yn'
loop_
_symmetry_equiv_pos_site_id
_symmetry_equiv_pos_as_xyz
1 x,y,z
2 1/2-x,1/2+y,1/2-z
3 -x,-y,-z
4 1/2+x,1/2-y,1/2+z
_cell_length_a                   7.2475(6)
_cell_length_b                   15.4532(12)
_cell_length_c                   20.8560(16)
_cell_angle_alpha                90
_cell_angle_beta                 90.057(2)
_cell_angle_gamma                90
_cell_volume                     2335.81
loop_
_atom_site_label
_atom_site_type_symbol
_atom_site_fract_x
_atom_site_fract_y
_atom_site_fract_z
W1 W 0.79222(2) 0.682386(11) 0.301091(8)
Cu1 Cu 0.5000 0.5000 0.5000
Cu2 Cu 0.24342(7) 0.43738(4) 0.23347(3)
O1 O 0.6198(4) 0.3863(2) 0.50585(15)
N1 N 0.4520(5) 0.8223(2) 0.2839(2)
N2 N 0.7372(8) 0.7918(4) 0.4362(2)
N3 N 1.1739(5) 0.6555(3) 0.3867(2)
N4 N 1.0499(5) 0.8542(2) 0.27039(19)
N5 N 0.2076(5) 0.4190(2) 0.33127(19)
N6 N 1.0395(5) 0.5230(2) 0.24087(18)
N7 N 0.7775(6) 0.7133(3) 0.1440(2)
N8 N 0.3037(5) 0.4489(2) 0.43733(19)
N9 N 0.2581(5) 0.4584(2) 0.13674(18)
N10 N 0.4536(5) 0.5548(2) 0.25142(19)
N11 N 0.2655(15) 0.5073(7) -0.1191(3)
N12 N 0.6858(5) 0.5382(3) 0.41107(19)
C1 C 0.7573(7) 0.7547(3) 0.3890(2)
C2 C 0.5679(6) 0.7718(3) 0.2897(2)
C3 C 0.9565(6) 0.7950(3) 0.2801(2)
C4 C 0.7250(6) 0.5869(3) 0.3723(2)
C5 C 0.9483(5) 0.5780(3) 0.2595(2)
C6 C 0.5694(6) 0.6008(3) 0.2667(2)
C7 C 0.7801(6) 0.7033(3) 0.1982(2)
C8 C 1.0445(6) 0.6656(3) 0.3562(2)
C9 C 0.0484(6) 0.3870(3) 0.3537(2)
C10 C 0.0114(6) 0.3841(4) 0.4186(2)
C11 C 0.3299(6) 0.4475(3) 0.3738(2)
C12 C 0.2623(8) 0.5390(3) 0.1143(2)
C13 C 0.2606(10) 0.5585(4) 0.0505(3)
C14 C 0.2565(9) 0.4902(6) 0.0079(3)
C15 C 0.2549(8) 0.4065(5) 0.0295(2)
C16 C 0.2567(7) 0.3938(3) 0.0953(2)
C17 C 0.1443(6) 0.4167(4) 0.4596(2)
C18 C 0.2648(14) 0.4950(8) -0.0622(4)
H1 H -0.0415 0.3657 0.3239
H2 H -0.1017 0.3605 0.4346
H3 H 0.4451 0.4683 0.3579
H4 H 0.2664 0.5859 0.1449
H5 H 0.2618 0.6178 0.0358
H6 H 0.2521 0.3584 0.0000
H7 H 0.2567 0.3355 0.1117
H8 H 0.1222 0.4165 0.5050
W1B W 0.20778(2) 0.317614(11) 0.698909(8)
W1A W -0.29222(2) 0.182386(11) 0.198909(8)
W1A_2 W 0.70778(2) 0.182386(11) 0.198909(8)
W1_2 W -0.20778(2) 0.682386(11) 0.301091(8)
Cu2B Cu 0.75658(7) 0.56262(4) 0.76653(3)
Cu2A Cu 0.25658(7) 0.93738(4) 0.26653(3)
Cu2A_2 Cu 1.25658(7) 0.93738(4) 0.26653(3)
Cu2_2 Cu 1.24342(7) 0.43738(4) 0.23347(3)
O1B O 0.3802(4) 0.6137(2) 0.49415(15)
N1A N 0.0480(5) 0.3223(2) 0.2161(2)
N1C N 0.9520(5) 0.6777(2) 0.7839(2)
N2B N 0.2628(8) 0.2082(4) 0.5638(2)
N3B N -0.1739(5) 0.3445(3) 0.6133(2)
N4A N 0.4501(5) 0.3542(2) 0.22961(19)
N4C N 0.5499(5) 0.6458(2) 0.77039(19)
N5B N 0.7924(5) 0.5810(2) 0.66873(19)
N6_2 N 0.0395(5) 0.5230(2) 0.24087(18)
N6B N 0.9605(5) 0.4770(2) 0.75913(18)
N7B N 0.2225(6) 0.2867(3) 0.8560(2)
N8B N 0.6963(5) 0.5511(2) 0.56267(19)
N9B N 0.7419(5) 0.5416(2) 0.86326(18)
N10B N 0.5464(5) 0.4452(2) 0.74858(19)
N11B N 0.7345(15) 0.4927(7) 1.1191(3)
N12B N 0.3142(5) 0.4618(3) 0.58893(19)
C1B C 0.2427(7) 0.2453(3) 0.6110(2)
C2A C -0.0679(6) 0.2718(3) 0.2103(2)
C2B C 0.4321(6) 0.2282(3) 0.7103(2)
C3A C 0.5435(6) 0.2950(3) 0.2199(2)
C3B C 0.0435(6) 0.2050(3) 0.7199(2)
C4B C 0.2750(6) 0.4131(3) 0.6277(2)
C5_2 C -0.0517(5) 0.5780(3) 0.2595(2)
C5B C 0.0517(5) 0.4220(3) 0.7405(2)
C6B C 0.4306(6) 0.3992(3) 0.7333(2)
C7B C 0.2199(6) 0.2967(3) 0.8018(2)
C8B C -0.0445(6) 0.3344(3) 0.6438(2)
C9B C 0.9516(6) 0.6130(3) 0.6463(2)
C10B C 0.9886(6) 0.6159(4) 0.5814(2)
C11B C 0.6701(6) 0.5525(3) 0.6262(2)
C12B C 0.7377(8) 0.4610(3) 0.8857(2)
C13B C 0.7394(10) 0.4415(4) 0.9495(3)
C14B C 0.7435(9) 0.5098(6) 0.9921(3)
C15B C 0.7451(8) 0.5935(5) 0.9705(2)
C16B C 0.7433(7) 0.6062(3) 0.9047(2)
C17B C 0.8557(6) 0.5833(4) 0.5404(2)
C18B C 0.7352(14) 0.5050(8) 1.0622(4)
H1B H 1.0415 0.6343 0.6761
H2B H 1.1017 0.6395 0.5654
H3B H 0.5549 0.5317 0.6421
H4B H 0.7336 0.4141 0.8551
H5B H 0.7382 0.3822 0.9642
H6B H 0.7479 0.6416 1.0000
H7B H 0.7433 0.6645 0.8883
H8B H 0.8778 0.5835 0.4950
O2 O 0.4469(5) 0.2609(2) 0.44669(18)
loop_
_geom_bond_atom_site_label_1
_geom_bond_atom_site_label_2
_geom_bond_site_symmetry_1
_geom_bond_site_symmetry_2
W1 C1 1_555 1_555
Cu1 O1 1_555 1_555
Cu2 N5 1_555 1_555
N1 C2 1_555 1_555
N2 C1 1_555 1_555
N3 C8 1_555 1_555
N4 C3 1_555 1_555
N5 C9 1_555 1_555
N6 C5 1_555 1_555
N7 C7 1_555 1_555
N8 Cu1 1_555 1_555
N9 Cu2 1_555 1_555
N10 Cu2 1_555 1_555
N11 C18 1_555 1_555
N12 Cu1 1_555 1_555
C2 W1 1_555 1_555
C3 W1 1_555 1_555
C4 W1 1_555 1_555
C5 W1 1_555 1_555
C6 W1 1_555 1_555
C7 W1 1_555 1_555
C8 W1 1_555 1_555
C9 C10 1_555 1_555
C10 C17 1_555 1_555
C11 N5 1_555 1_555
C12 N9 1_555 1_555
C13 C12 1_555 1_555
C14 C13 1_555 1_555
C15 C14 1_555 1_555
C16 N9 1_555 1_555
C17 N8 1_555 1_555
C18 C14 1_555 1_555
H1 C9 1_555 1_555
H2 C10 1_555 1_555
H3 C11 1_555 1_555
H4 C12 1_555 1_555
H5 C13 1_555 1_555
H6 C15 1_555 1_555
H7 C16 1_555 1_555
H8 C17 1_555 1_555
W1B C1B 1_555 1_555
W1A C2A 1_555 1_555
W1A_2 C3A 1_555 1_555
W1_2 C5_2 1_555 1_555
Cu2B N1C 1_555 1_555
Cu2A N1 1_555 1_555
Cu2A_2 N4 1_555 1_555
Cu2_2 N6 1_555 1_555
O1B Cu1 1_555 1_555
N1A Cu2 1_555 1_555
N2B C1B 1_555 1_555
N3B C8B 1_555 1_555
N4A Cu2 1_555 1_555
N4C Cu2B 1_555 1_555
N5B Cu2B 1_555 1_555
N6_2 Cu2 1_555 1_555
N6B Cu2B 1_555 1_555
N7B C7B 1_555 1_555
N8B Cu1 1_555 1_555
N9B Cu2B 1_555 1_555
N10B Cu2B 1_555 1_555
N11B C18B 1_555 1_555
N12B Cu1 1_555 1_555
C2A N1A 1_555 1_555
C2B W1B 1_555 1_555
C3A N4A 1_555 1_555
C3B W1B 1_555 1_555
C4B W1B 1_555 1_555
C5_2 N6_2 1_555 1_555
C5B W1B 1_555 1_555
C6B W1B 1_555 1_555
C7B W1B 1_555 1_555
C8B W1B 1_555 1_555
C9B N5B 1_555 1_555
C10B C9B 1_555 1_555
C11B N5B 1_555 1_555
C12B N9B 1_555 1_555
C13B C12B 1_555 1_555
C14B C13B 1_555 1_555
C15B C14B 1_555 1_555
C16B N9B 1_555 1_555
C17B N8B 1_555 1_555
C18B C14B 1_555 1_555
H1B C9B 1_555 1_555
H2B C10B 1_555 1_555
H3B C11B 1_555 1_555
H4B C12B 1_555 1_555
H5B C13B 1_555 1_555
H6B C15B 1_555 1_555
H7B C16B 1_555 1_555
H8B C17B 1_555 1_555
N8 C11 1_555 1_555
N10 C6 1_555 1_555
N12 C4 1_555 1_555
C15 C16 1_555 1_555
N8B C11B 1_555 1_555
N10B C6B 1_555 1_555
N12B C4B 1_555 1_555
C10B C17B 1_555 1_555
C15B C16B 1_555 1_555

#END
