
#######################################################################
#
#                 Cambridge Crystallographic Data Centre
#                                CCDC 
#
#######################################################################
#
# If this CIF has been generated from an entry in the Cambridge 
# Structural Database, then it will include bibliographic, chemical, 
# crystal, experimental, refinement or atomic coordinate data resulting 
# from the CCDC's data processing and validation procedures.
#
#######################################################################

data_UGAKIX
_symmetry_cell_setting           monoclinic
_symmetry_space_group_name_H-M   'C 2/c'
_symmetry_Int_Tables_number      15
_space_group_name_Hall           '-C 2yn'
loop_
_symmetry_equiv_pos_site_id
_symmetry_equiv_pos_as_xyz
1 x,y,z
2 1/2+x,1/2+y,z
3 -x,y,1/2-z
4 1/2-x,1/2+y,1/2-z
5 -x,-y,-z
6 1/2-x,1/2-y,-z
7 x,-y,1/2+z
8 1/2+x,1/2-y,1/2+z
_cell_length_a                   19.7697(5)
_cell_length_b                   13.9554(3)
_cell_length_c                   15.1449(4)
_cell_angle_alpha                90
_cell_angle_beta                 110.4230(10)
_cell_angle_gamma                90
_cell_volume                     3915.74
loop_
_atom_site_label
_atom_site_type_symbol
_atom_site_fract_x
_atom_site_fract_y
_atom_site_fract_z
Cd1 Cd 0.542829(14) 1.284415(15) -0.113758(18)
Cd2 Cd 0.5000 1.5000 0.0000
N1 N 0.46501(15) 0.97593(18) -0.16754(19)
H1 H 0.4710 1.0367 -0.1704
O1 O 0.53998(12) 1.12806(14) -0.10453(16)
O2 O 0.65586(13) 1.21264(15) 0.01463(18)
O3 O 0.41084(17) 1.48567(18) -0.1495(2)
H2 H 0.406(3) 1.431(2) -0.174(3)
Cl1 Cl 0.59671(6) 1.44929(6) -0.07253(8)
Cl2 Cl 0.48990(5) 1.31686(6) 0.02126(6)
Cl3 Cl 0.41178(5) 1.27831(6) -0.24124(6)
C1 C 0.2053(2) 0.8336(3) -0.4388(3)
H3 H 0.2054 0.7648 -0.4396
H4 H 0.1995 0.8574 -0.5005
H5 H 0.1661 0.8558 -0.4206
C2 C 0.27528(19) 0.8692(2) -0.3696(3)
C3 C 0.3294(2) 0.8076(2) -0.3173(3)
H6 H 0.3228 0.7420 -0.3272
C4 C 0.3923(2) 0.8400(2) -0.2515(3)
H7 H 0.4278 0.7968 -0.2177
C5 C 0.40256(18) 0.9373(2) -0.2360(2)
C6 C 0.3509(2) 1.0007(2) -0.2894(3)
H8 H 0.3586 1.0664 -0.2814
C7 C 0.28796(19) 0.9666(2) -0.3544(3)
H9 H 0.2530 1.0098 -0.3891
C8 C 0.51477(18) 0.9305(2) -0.1005(2)
H10 H 0.5095 0.8648 -0.0947
C9 C 0.57599(18) 0.9754(2) -0.0364(2)
C10 C 0.6274(2) 0.9190(2) 0.0325(3)
H11 H 0.6196 0.8537 0.0365
C11 C 0.6876(2) 0.9600(3) 0.0925(3)
H12 H 0.7218 0.9222 0.1367
C12 C 0.6997(2) 1.0591(3) 0.0893(3)
H13 H 0.7414 1.0863 0.1315
C13 C 0.65035(18) 1.1156(2) 0.0245(2)
C14 C 0.58669(17) 1.0755(2) -0.0415(2)
C15 C 0.7108(2) 1.2622(3) 0.0885(3)
H14 H 0.7460 1.2170 0.1252
H15 H 0.6893 1.2942 0.1282
H16 H 0.7338 1.3084 0.0614
C16 C 0.3865(3) 1.5562(4) -0.2154(3)
H17 H 0.3495 1.5309 -0.2701
H18 H 0.4257 1.5796 -0.2329
H19 H 0.3670 1.6078 -0.1897
Cd1D Cd 0.457171(14) 1.715585(15) 0.113758(18)
Cd1B Cd 0.457171(14) 1.284415(15) -0.386242(18)
N1D N 0.53499(15) 2.02407(18) 0.16754(19)
H1D H 0.5290 1.9633 0.1704
O1D O 0.46002(12) 1.87194(14) 0.10453(16)
O2D O 0.34414(13) 1.78736(15) -0.01463(18)
O3D O 0.58916(17) 1.51433(18) 0.1495(2)
H2D H 0.594(3) 1.569(2) 0.174(3)
Cl1D Cl 0.40329(6) 1.55071(6) 0.07253(8)
Cl2D Cl 0.51010(5) 1.68314(6) -0.02126(6)
Cl3B Cl 0.58822(5) 1.27831(6) -0.25876(6)
Cl3F Cl 0.41178(5) 1.72169(6) 0.25876(6)
Cl3D Cl 0.58822(5) 1.72169(6) 0.24124(6)
C1D C 0.7947(2) 2.1664(3) 0.4388(3)
H3D H 0.7946 2.2352 0.4396
H4D H 0.8005 2.1426 0.5005
H5D H 0.8339 2.1442 0.4206
C2D C 0.72472(19) 2.1308(2) 0.3696(3)
C3D C 0.6706(2) 2.1924(2) 0.3173(3)
H6D H 0.6772 2.2580 0.3272
C4D C 0.6077(2) 2.1600(2) 0.2515(3)
H7D H 0.5722 2.2032 0.2177
C5D C 0.59744(18) 2.0627(2) 0.2360(2)
C6D C 0.6491(2) 1.9993(2) 0.2894(3)
H8D H 0.6414 1.9336 0.2814
C7D C 0.71204(19) 2.0334(2) 0.3544(3)
H9D H 0.7470 1.9902 0.3891
C8D C 0.48523(18) 2.0695(2) 0.1005(2)
H10D H 0.4905 2.1352 0.0947
C9D C 0.42401(18) 2.0246(2) 0.0364(2)
C10D C 0.3726(2) 2.0810(2) -0.0325(3)
H11D H 0.3804 2.1463 -0.0365
C11D C 0.3124(2) 2.0400(3) -0.0925(3)
H12D H 0.2782 2.0778 -0.1367
C12D C 0.3003(2) 1.9409(3) -0.0893(3)
H13D H 0.2586 1.9137 -0.1315
C13D C 0.34965(18) 1.8844(2) -0.0245(2)
C14D C 0.41331(17) 1.9245(2) 0.0415(2)
C15D C 0.2892(2) 1.7378(3) -0.0885(3)
H14D H 0.2540 1.7830 -0.1252
H15D H 0.3107 1.7058 -0.1282
H16D H 0.2662 1.6916 -0.0614
C16D C 0.6135(3) 1.4438(4) 0.2154(3)
H17D H 0.6505 1.4691 0.2701
H18D H 0.5743 1.4204 0.2329
H19D H 0.6330 1.3922 0.1897
loop_
_geom_bond_atom_site_label_1
_geom_bond_atom_site_label_2
_geom_bond_site_symmetry_1
_geom_bond_site_symmetry_2
Cd1 O1 1_555 1_555
Cd2 O3 1_555 1_555
N1 H1 1_555 1_555
O1 C14 1_555 1_555
O2 Cd1 1_555 1_555
O3 H2 1_555 1_555
Cl1 Cd1 1_555 1_555
Cl2 Cd1 1_555 1_555
Cl3 Cd1 1_555 1_555
C1 H3 1_555 1_555
H4 C1 1_555 1_555
H5 C1 1_555 1_555
C2 C1 1_555 1_555
C3 C2 1_555 1_555
H6 C3 1_555 1_555
C4 C3 1_555 1_555
H7 C4 1_555 1_555
C5 N1 1_555 1_555
C6 C5 1_555 1_555
H8 C6 1_555 1_555
C7 C2 1_555 1_555
H9 C7 1_555 1_555
C8 N1 1_555 1_555
H10 C8 1_555 1_555
C9 C8 1_555 1_555
C10 C9 1_555 1_555
H11 C10 1_555 1_555
C11 C10 1_555 1_555
H12 C11 1_555 1_555
C12 C11 1_555 1_555
H13 C12 1_555 1_555
C13 O2 1_555 1_555
C14 C9 1_555 1_555
C15 O2 1_555 1_555
H14 C15 1_555 1_555
H15 C15 1_555 1_555
H16 C15 1_555 1_555
C16 O3 1_555 1_555
H17 C16 1_555 1_555
H18 C16 1_555 1_555
H19 C16 1_555 1_555
Cd1D O1D 1_555 1_555
Cd1B Cl3 1_555 1_555
N1D H1D 1_555 1_555
O1D C14D 1_555 1_555
O2D Cd1D 1_555 1_555
O3D Cd2 1_555 1_555
H2D O3D 1_555 1_555
Cl1D Cd2 1_555 1_555
Cl2D Cd2 1_555 1_555
Cl3B Cd1 1_555 1_555
Cl3F Cd1D 1_555 1_555
Cl3D Cd1D 1_555 1_555
C1D H3D 1_555 1_555
H4D C1D 1_555 1_555
H5D C1D 1_555 1_555
C2D C1D 1_555 1_555
C3D C2D 1_555 1_555
H6D C3D 1_555 1_555
C4D C3D 1_555 1_555
H7D C4D 1_555 1_555
C5D N1D 1_555 1_555
C6D C5D 1_555 1_555
H8D C6D 1_555 1_555
C7D C2D 1_555 1_555
H9D C7D 1_555 1_555
C8D N1D 1_555 1_555
H10D C8D 1_555 1_555
C9D C8D 1_555 1_555
C10D C9D 1_555 1_555
H11D C10D 1_555 1_555
C11D C10D 1_555 1_555
H12D C11D 1_555 1_555
C12D C11D 1_555 1_555
H13D C12D 1_555 1_555
C13D O2D 1_555 1_555
C14D C9D 1_555 1_555
C15D O2D 1_555 1_555
H14D C15D 1_555 1_555
H15D C15D 1_555 1_555
H16D C15D 1_555 1_555
C16D O3D 1_555 1_555
H17D C16D 1_555 1_555
H18D C16D 1_555 1_555
H19D C16D 1_555 1_555
Cd2 Cl1 1_555 1_555
Cd2 Cl2 1_555 1_555
C4 C5 1_555 1_555
C6 C7 1_555 1_555
C12 C13 1_555 1_555
C13 C14 1_555 1_555
Cd1D Cl1D 1_555 1_555
Cd1D Cl2D 1_555 1_555
Cd1B Cl3B 1_555 1_555
C4D C5D 1_555 1_555
C6D C7D 1_555 1_555
C12D C13D 1_555 1_555
C13D C14D 1_555 1_555

#END
