
#######################################################################
#
#                 Cambridge Crystallographic Data Centre
#                                CCDC 
#
#######################################################################
#
# If this CIF has been generated from an entry in the Cambridge 
# Structural Database, then it will include bibliographic, chemical, 
# crystal, experimental, refinement or atomic coordinate data resulting 
# from the CCDC's data processing and validation procedures.
#
#######################################################################

data_UGALEU
_symmetry_cell_setting           monoclinic
_symmetry_space_group_name_H-M   'P 21/c'
_symmetry_Int_Tables_number      14
_space_group_name_Hall           '-P 2ybc'
loop_
_symmetry_equiv_pos_site_id
_symmetry_equiv_pos_as_xyz
1 x,y,z
2 -x,1/2+y,1/2-z
3 -x,-y,-z
4 x,1/2-y,1/2+z
_cell_length_a                   9.2029(9)
_cell_length_b                   18.1432(17)
_cell_length_c                   9.0779(8)
_cell_angle_alpha                90
_cell_angle_beta                 106.811(2)
_cell_angle_gamma                90
_cell_volume                     1450.96
loop_
_atom_site_label
_atom_site_type_symbol
_atom_site_fract_x
_atom_site_fract_y
_atom_site_fract_z
Bi1 Bi 0.83539(5) 0.19587(2) 0.77837(4)
Cl1 Cl 0.8497(4) 0.32758(19) 0.6005(3)
N1 N 0.7954(11) -0.0056(5) 0.4907(10)
S1 S 0.8233(4) 0.14036(18) 0.5054(3)
S2 S 0.8036(4) 0.0484(2) 0.7681(3)
C1 C 0.8051(13) 0.0546(7) 0.5771(12)
C2 C 0.7991(16) 0.0000(7) 0.3290(12)
H1 H 0.8309 -0.0470 0.2976
H2 H 0.8737 0.0366 0.3225
C3 C 0.6464(14) 0.0208(8) 0.2196(11)
H3 H 0.5721 -0.0154 0.2255
H4 H 0.6540 0.0227 0.1164
H5 H 0.6163 0.0682 0.2477
C4 C 0.7770(14) -0.0790(7) 0.5486(14)
H6 H 0.8283 -0.0807 0.6581
H7 H 0.8252 -0.1148 0.4985
C5 C 0.6136(17) -0.0998(9) 0.5216(18)
H8 H 0.5645 -0.0637 0.5679
H9 H 0.6078 -0.1472 0.5667
H10 H 0.5641 -0.1020 0.4130
C6 C 1.0885(14) 0.1853(6) 0.8490(12)
C7 C 1.1620(16) 0.1381(8) 0.9745(13)
H11 H 1.1050 0.1124 1.0271
C8 C 1.3156(18) 0.1310(9) 1.0167(15)
H12 H 1.3624 0.1002 1.0985
C9 C 1.4023(18) 0.1673(9) 0.9431(17)
H13 H 1.5074 0.1626 0.9761
C10 C 1.3332(13) 0.2117(8) 0.8179(18)
H14 H 1.3919 0.2351 0.7639
C11 C 1.1787(15) 0.2213(7) 0.7736(15)
H15 H 1.1339 0.2524 0.6915
Bi1C Bi 0.83539(5) 0.30413(2) 0.27837(4)
Cl1C Cl 0.8497(4) 0.17242(19) 1.1005(3)
loop_
_geom_bond_atom_site_label_1
_geom_bond_atom_site_label_2
_geom_bond_site_symmetry_1
_geom_bond_site_symmetry_2
Bi1 Cl1 1_555 1_555
Cl1 Bi1C 1_555 1_555
N1 C1 1_555 1_555
S1 Bi1 1_555 1_555
S2 Bi1 1_555 1_555
C1 S1 1_555 1_555
C2 N1 1_555 1_555
H1 C2 1_555 1_555
H2 C2 1_555 1_555
C3 C2 1_555 1_555
H3 C3 1_555 1_555
H4 C3 1_555 1_555
H5 C3 1_555 1_555
C4 N1 1_555 1_555
H6 C4 1_555 1_555
H7 C4 1_555 1_555
C5 C4 1_555 1_555
H8 C5 1_555 1_555
H9 C5 1_555 1_555
H10 C5 1_555 1_555
C6 Bi1 1_555 1_555
C7 C6 1_555 1_555
H11 C7 1_555 1_555
C8 C7 1_555 1_555
H12 C8 1_555 1_555
C9 C8 1_555 1_555
H13 C9 1_555 1_555
C10 C9 1_555 1_555
H14 C10 1_555 1_555
C11 C6 1_555 1_555
H15 C11 1_555 1_555
Cl1C Bi1 1_555 1_555
S2 C1 1_555 1_555
C10 C11 1_555 1_555

#END
