
#######################################################################
#
#                 Cambridge Crystallographic Data Centre
#                                CCDC 
#
#######################################################################
#
# If this CIF has been generated from an entry in the Cambridge 
# Structural Database, then it will include bibliographic, chemical, 
# crystal, experimental, refinement or atomic coordinate data resulting 
# from the CCDC's data processing and validation procedures.
#
#######################################################################

data_UGALET
_symmetry_cell_setting           trigonal
_symmetry_space_group_name_H-M   'P 3 1 c'
_symmetry_Int_Tables_number      159
_space_group_name_Hall           "P 3 -2'c"
loop_
_symmetry_equiv_pos_site_id
_symmetry_equiv_pos_as_xyz
1 x,y,z
2 -y,x-y,z
3 -x+y,-x,z
4 y,x,1/2+z
5 x-y,-y,1/2+z
6 -x,-x+y,1/2+z
_cell_length_a                   14.31(2)
_cell_length_b                   14.31(2)
_cell_length_c                   15.56(5)
_cell_angle_alpha                90
_cell_angle_beta                 90
_cell_angle_gamma                120
_cell_volume                     2759.43
loop_
_atom_site_label
_atom_site_type_symbol
_atom_site_fract_x
_atom_site_fract_y
_atom_site_fract_z
Cu1 Cu 0.6667 0.3333 -0.74675(13)
Cu2 Cu 1.0000 0.0000 -1.01100(17)
Cl2 Cl 1.0000 0.0000 -1.2163(6)
S1 S 0.8563(2) 0.3916(2) -0.88315(17)
S2 S 0.8678(2) 0.1360(2) -1.05616(18)
N1 N 0.7788(6) 0.2892(6) -0.7352(5)
N2 N 0.9234(8) 0.2711(8) -0.7967(6)
N3 N 0.7035(7) 0.0098(8) -0.9520(6)
N4 N 0.8485(6) -0.0273(6) -0.9633(5)
O3 O 1.0000 0.0000 -1.1339(10)
O4 O 0.991(2) -0.103(2) -1.245(2)
C1 C 0.7816(9) 0.2324(9) -0.6666(7)
H1 H 0.7333 0.2197 -0.6221
C2 C 0.8502(11) 0.1921(12) -0.6575(9)
H2 H 0.8500 0.1534 -0.6095
C3 C 0.9220(11) 0.2149(11) -0.7285(8)
H3 H 0.9699 0.1889 -0.7268
C4 C 0.8534(8) 0.3085(8) -0.7986(6)
C5 C 0.9610(8) 0.3929(9) -0.9554(6)
H4 H 1.0311 0.4539 -0.9411
H5 H 0.9642 0.3274 -0.9470
C6 C 0.9345(7) 0.4011(8) -1.0492(6)
C7 C 0.9949(8) 0.4980(9) -1.0931(8)
H6 H 1.0496 0.5569 -1.0642
C8 C 0.9750(10) 0.5090(9) -1.1811(8)
H7 H 1.0181 0.5734 -1.2100
C9 C 0.8941(10) 0.4264(11) -1.2214(6)
H8 H 0.8786 0.4336 -1.2782
C10 C 0.8304(9) 0.3256(8) -1.1771(7)
H9 H 0.7740 0.2679 -1.2058
C11 C 0.8517(7) 0.3134(7) -1.0931(6)
C12 C 0.7867(9) 0.2030(9) -1.0491(8)
H10 H 0.7179 0.1600 -1.0778
H11 H 0.7732 0.2120 -0.9895
C13 C 0.7992(8) 0.0272(7) -0.9805(6)
C14 C 0.6544(9) -0.0764(10) -0.8974(9)
H12 H 0.5893 -0.0911 -0.8726
C15 C 0.6932(11) -0.1400(10) -0.8774(9)
H13 H 0.6540 -0.2017 -0.8443
C16 C 0.7946(9) -0.1108(9) -0.9081(7)
H14 H 0.8272 -0.1497 -0.8902
O4A O 1.103(2) 0.094(3) -1.245(2)
O4B O 0.906(3) 0.009(2) -1.245(2)
S1A S 0.6084(2) 0.4647(3) -0.88315(17)
S2A S 0.8640(2) 0.7318(3) -1.05616(18)
N1A N 0.7108(6) 0.4896(8) -0.7352(5)
N2A N 0.7289(8) 0.6523(11) -0.7967(6)
N3A N 0.9902(8) 0.6937(11) -0.9520(6)
N4A N 1.0273(6) 0.8758(8) -0.9633(5)
C1A C 0.7676(9) 0.5492(13) -0.6666(7)
H1A H 0.7803 0.5136 -0.6221
C2A C 0.8079(12) 0.6581(16) -0.6575(9)
H2A H 0.8466 0.6966 -0.6095
C3A C 0.7851(11) 0.7071(16) -0.7285(8)
H3A H 0.8111 0.7810 -0.7268
C4A C 0.6915(8) 0.5449(11) -0.7986(6)
C5A C 0.6071(9) 0.5681(12) -0.9554(6)
H4A H 0.5461 0.5772 -0.9411
H5A H 0.6726 0.6368 -0.9470
C6A C 0.5989(8) 0.5334(11) -1.0492(6)
C7A C 0.5020(9) 0.4969(12) -1.0931(8)
H6A H 0.4431 0.4927 -1.0642
C8A C 0.4910(9) 0.4660(13) -1.1811(8)
H7A H 0.4266 0.4447 -1.2100
C9A C 0.5736(11) 0.4677(15) -1.2214(6)
H8A H 0.5664 0.4450 -1.2782
C10A C 0.6744(8) 0.5048(12) -1.1771(7)
H9A H 0.7321 0.5061 -1.2058
C11A C 0.6866(7) 0.5383(10) -1.0931(6)
C12A C 0.7970(9) 0.5837(13) -1.0491(8)
H10A H 0.8400 0.5579 -1.0778
H11A H 0.7880 0.5612 -0.9895
C13A C 0.9728(7) 0.7720(11) -0.9805(6)
C14A C 1.0764(10) 0.7308(13) -0.8974(9)
H12A H 1.0911 0.6804 -0.8726
C15A C 1.1400(10) 0.8332(15) -0.8774(9)
H13A H 1.2017 0.8557 -0.8443
C16A C 1.1108(9) 0.9054(13) -0.9081(7)
H14A H 1.1497 0.9769 -0.8902
S1B S 0.5353(3) 0.1437(2) -0.88315(17)
S2B S 0.2682(3) 0.1322(2) -1.05616(18)
N1B N 0.5104(8) 0.2212(6) -0.7352(5)
N2B N 0.3477(11) 0.0766(8) -0.7967(6)
N3B N 0.3063(11) 0.2965(7) -0.9520(6)
N4B N 0.1242(8) 0.1515(6) -0.9633(5)
C1B C 0.4508(13) 0.2184(9) -0.6666(7)
H1B H 0.4864 0.2667 -0.6221
C2B C 0.3419(16) 0.1498(11) -0.6575(9)
H2B H 0.3034 0.1500 -0.6095
C3B C 0.2929(16) 0.0780(11) -0.7285(8)
H3B H 0.2190 0.0301 -0.7268
C4B C 0.4551(11) 0.1466(8) -0.7986(6)
C5B C 0.4319(12) 0.0390(8) -0.9554(6)
H4B H 0.4228 -0.0311 -0.9411
H5B H 0.3632 0.0358 -0.9470
C6B C 0.4666(11) 0.0655(7) -1.0492(6)
C7B C 0.5031(12) 0.0051(8) -1.0931(8)
H6B H 0.5073 -0.0496 -1.0642
C8B C 0.5340(13) 0.0250(10) -1.1811(8)
H7B H 0.5553 -0.0181 -1.2100
C9B C 0.5323(15) 0.1059(10) -1.2214(6)
H8B H 0.5550 0.1214 -1.2782
C10B C 0.4952(12) 0.1696(9) -1.1771(7)
H9B H 0.4939 0.2260 -1.2058
C11B C 0.4617(10) 0.1483(7) -1.0931(6)
C12B C 0.4163(13) 0.2133(9) -1.0491(8)
H10B H 0.4421 0.2821 -1.0778
H11B H 0.4388 0.2268 -0.9895
C13B C 0.2280(11) 0.2008(8) -0.9805(6)
C14B C 0.2692(13) 0.3456(9) -0.8974(9)
H12B H 0.3196 0.4107 -0.8726
C15B C 0.1668(15) 0.3068(11) -0.8774(9)
H13B H 0.1443 0.3460 -0.8443
C16B C 0.0946(13) 0.2054(9) -0.9081(7)
H14B H 0.0231 0.1728 -0.8902
N4A_2 N 1.0273(6) -0.1242(8) -0.9633(5)
N4B_2 N 1.1242(8) 0.1515(6) -0.9633(5)
Cu2_2 Cu 1.0000 1.0000 -1.01100(17)
Cu2_3 Cu 0.0000 0.0000 -1.01100(17)
Cl1 Cl 0.6667 0.3333 -0.4517(3)
O1 O 0.7565(15) 0.348(2) -0.4306(15)
O2 O 0.6667 0.3333 -0.5387(18)
O1A O 0.652(2) 0.4085(25) -0.4306(15)
O1B O 0.5915(25) 0.2435(15) -0.4306(15)
loop_
_geom_bond_atom_site_label_1
_geom_bond_atom_site_label_2
_geom_bond_site_symmetry_1
_geom_bond_site_symmetry_2
Cu1 N1 1_555 1_555
Cu2 N4 1_555 1_555
Cl1 O1 1_555 1_555
Cl2 O3 1_555 1_555
S1 C4 1_555 1_555
S2 C12 1_555 1_555
N1 C1 1_555 1_555
N2 C3 1_555 1_555
N3 C13 1_555 1_555
N4 C13 1_555 1_555
O2 Cl1 1_555 1_555
O3 Cu2 1_555 1_555
O4 Cl2 1_555 1_555
C1 H1 1_555 1_555
C2 C1 1_555 1_555
H2 C2 1_555 1_555
C3 C2 1_555 1_555
H3 C3 1_555 1_555
C4 N1 1_555 1_555
C5 S1 1_555 1_555
H4 C5 1_555 1_555
H5 C5 1_555 1_555
C6 C5 1_555 1_555
C7 C6 1_555 1_555
H6 C7 1_555 1_555
C8 C7 1_555 1_555
H7 C8 1_555 1_555
C9 C8 1_555 1_555
H8 C9 1_555 1_555
C10 C9 1_555 1_555
H9 C10 1_555 1_555
C11 C6 1_555 1_555
C12 C11 1_555 1_555
H10 C12 1_555 1_555
H11 C12 1_555 1_555
C13 S2 1_555 1_555
C14 N3 1_555 1_555
H12 C14 1_555 1_555
C15 C14 1_555 1_555
H13 C15 1_555 1_555
C16 N4 1_555 1_555
H14 C16 1_555 1_555
O1A Cl1 1_555 1_555
O1B Cl1 1_555 1_555
O4A Cl2 1_555 1_555
O4B Cl2 1_555 1_555
S1A C4A 1_555 1_555
S2A C12A 1_555 1_555
N1A Cu1 1_555 1_555
N2A C3A 1_555 1_555
N3A C13A 1_555 1_555
N4A C13A 1_555 1_555
C1A N1A 1_555 1_555
H1A C1A 1_555 1_555
C2A C1A 1_555 1_555
H2A C2A 1_555 1_555
C3A C2A 1_555 1_555
H3A C3A 1_555 1_555
C4A N1A 1_555 1_555
C5A S1A 1_555 1_555
H4A C5A 1_555 1_555
H5A C5A 1_555 1_555
C6A C5A 1_555 1_555
C7A C6A 1_555 1_555
H6A C7A 1_555 1_555
C8A C7A 1_555 1_555
H7A C8A 1_555 1_555
C9A C8A 1_555 1_555
H8A C9A 1_555 1_555
C10A C9A 1_555 1_555
H9A C10A 1_555 1_555
C11A C6A 1_555 1_555
C12A C11A 1_555 1_555
H10A C12A 1_555 1_555
H11A C12A 1_555 1_555
C13A S2A 1_555 1_555
C14A N3A 1_555 1_555
H12A C14A 1_555 1_555
C15A C14A 1_555 1_555
H13A C15A 1_555 1_555
C16A N4A 1_555 1_555
H14A C16A 1_555 1_555
S1B C4B 1_555 1_555
S2B C12B 1_555 1_555
N1B Cu1 1_555 1_555
N2B C3B 1_555 1_555
N3B C13B 1_555 1_555
N4B C13B 1_555 1_555
C1B N1B 1_555 1_555
H1B C1B 1_555 1_555
C2B C1B 1_555 1_555
H2B C2B 1_555 1_555
C3B C2B 1_555 1_555
H3B C3B 1_555 1_555
C4B N1B 1_555 1_555
C5B S1B 1_555 1_555
H4B C5B 1_555 1_555
H5B C5B 1_555 1_555
C6B C5B 1_555 1_555
C7B C6B 1_555 1_555
H6B C7B 1_555 1_555
C8B C7B 1_555 1_555
H7B C8B 1_555 1_555
C9B C8B 1_555 1_555
H8B C9B 1_555 1_555
C10B C9B 1_555 1_555
H9B C10B 1_555 1_555
C11B C6B 1_555 1_555
C12B C11B 1_555 1_555
H10B C12B 1_555 1_555
H11B C12B 1_555 1_555
C13B S2B 1_555 1_555
C14B N3B 1_555 1_555
H12B C14B 1_555 1_555
C15B C14B 1_555 1_555
H13B C15B 1_555 1_555
C16B N4B 1_555 1_555
H14B C16B 1_555 1_555
N4A_2 Cu2 1_555 1_555
N4B_2 Cu2 1_555 1_555
Cu2_2 N4A 1_555 1_555
Cu2_3 N4B 1_555 1_555
N2 C4 1_555 1_555
C10 C11 1_555 1_555
C15 C16 1_555 1_555
N2A C4A 1_555 1_555
C10A C11A 1_555 1_555
C15A C16A 1_555 1_555
N2B C4B 1_555 1_555
C10B C11B 1_555 1_555
C15B C16B 1_555 1_555

#END
