
#######################################################################
#
#                 Cambridge Crystallographic Data Centre
#                                CCDC 
#
#######################################################################
#
# If this CIF has been generated from an entry in the Cambridge 
# Structural Database, then it will include bibliographic, chemical, 
# crystal, experimental, refinement or atomic coordinate data resulting 
# from the CCDC's data processing and validation procedures.
#
#######################################################################

data_UGALIX
_symmetry_cell_setting           triclinic
_symmetry_space_group_name_H-M   'P -1'
_symmetry_Int_Tables_number      2
_space_group_name_Hall           '-P 1'
loop_
_symmetry_equiv_pos_site_id
_symmetry_equiv_pos_as_xyz
1 x,y,z
2 -x,-y,-z
_cell_length_a                   10.6173(6)
_cell_length_b                   11.8959(6)
_cell_length_c                   23.9307(13)
_cell_angle_alpha                92.9560(10)
_cell_angle_beta                 100.6200(10)
_cell_angle_gamma                108.1930(10)
_cell_volume                     2802.89
loop_
_atom_site_label
_atom_site_type_symbol
_atom_site_fract_x
_atom_site_fract_y
_atom_site_fract_z
Cu1 Cu 1.02271(13) 1.20949(12) 0.24750(5)
Br1 Br 1.18395(17) 1.07533(15) 0.23491(7)
S1 S 1.4720(3) 1.6167(3) 0.44413(16)
S2 S 1.7913(3) 1.9185(3) 0.45356(13)
S3 S 1.2026(3) 1.5609(3) 0.05145(15)
S4 S 1.5180(3) 1.8679(3) 0.04591(14)
N1 N 1.1614(9) 1.3376(8) 0.3080(4)
N2 N 1.9464(9) 2.1200(8) 0.3105(3)
N3 N 1.0732(9) 1.3215(8) 0.1873(3)
N4 N 1.8582(9) 2.1021(8) 0.1875(3)
C1 C 1.1287(11) 1.4259(11) 0.3325(5)
H1 H 1.0401 1.4261 0.3216
C2 C 1.2149(11) 1.5131(10) 0.3712(5)
H2 H 1.1867 1.5729 0.3859
C3 C 1.3499(11) 1.5143(9) 0.3900(5)
C4 C 1.3842(13) 1.4282(12) 0.3635(7)
H3 H 1.4731 1.4279 0.3727
C5 C 1.2909(13) 1.3418(11) 0.3237(6)
H4 H 1.3180 1.2836 0.3068
C6 C 2.0217(11) 2.0758(11) 0.3485(5)
H5 H 2.1112 2.0880 0.3459
C7 C 1.9751(11) 2.0143(12) 0.3907(4)
H6 H 2.0326 1.9859 0.4159
C8 C 1.8441(11) 1.9933(10) 0.3966(4)
C9 C 1.7644(11) 2.0382(10) 0.3580(4)
H7 H 1.6751 2.0276 0.3605
C10 C 1.8183(11) 2.0991(11) 0.3156(4)
H8 H 1.7624 2.1271 0.2894
C11 C 1.4835(10) 1.8059(9) 0.5140(4)
C12 C 1.4526(11) 1.7808(10) 0.5671(5)
H9 H 1.3789 1.7143 0.5685
C13 C 1.5258(14) 1.8497(13) 0.6173(5)
H10 H 1.5050 1.8291 0.6523
C14 C 1.6327(13) 1.9517(12) 0.6143(5)
H11 H 1.6821 2.0014 0.6477
C15 C 1.6664(11) 1.9800(10) 0.5628(5)
H12 H 1.7388 2.0478 0.5618
C16 C 1.5916(10) 1.9069(9) 0.5116(4)
C17 C 1.3950(11) 1.7264(10) 0.4610(5)
H13 H 1.3868 1.7733 0.4294
H14 H 1.3050 1.6872 0.4677
C18 C 1.6311(10) 1.9418(10) 0.4562(5)
H15 H 1.6402 2.0249 0.4534
H16 H 1.5613 1.8941 0.4242
C19 C 1.0347(14) 1.4137(12) 0.1777(6)
H17 H 0.9790 1.4312 0.2002
C20 C 1.0711(13) 1.4875(12) 0.1364(6)
H18 H 1.0381 1.5508 0.1309
C21 C 1.1569(11) 1.4661(11) 0.1034(4)
C22 C 1.2007(13) 1.3705(12) 0.1149(6)
H19 H 1.2604 1.3533 0.0945
C23 C 1.1587(14) 1.3022(12) 0.1549(6)
H20 H 1.1896 1.2379 0.1609
C24 C 1.8452(12) 1.9884(10) 0.1739(5)
H21 H 1.9106 1.9596 0.1936
C25 C 1.7447(11) 1.9121(10) 0.1338(5)
H22 H 1.7410 1.8333 0.1274
C26 C 1.6493(11) 1.9504(9) 0.1029(4)
C27 C 1.6575(11) 2.0666(11) 0.1167(5)
H23 H 1.5915 2.0957 0.0978
C28 C 1.7628(12) 2.1398(11) 0.1582(5)
H24 H 1.7676 2.2186 0.1662
C29 C 1.3602(10) 1.5600(9) -0.0271(4)
C30 C 1.2921(12) 1.5027(10) -0.0820(5)
H25 H 1.2201 1.4319 -0.0860
C31 C 1.3295(14) 1.5490(12) -0.1294(5)
H26 H 1.2817 1.5103 -0.1654
C32 C 1.4353(14) 1.6506(12) -0.1251(5)
H27 H 1.4602 1.6816 -0.1579
C33 C 1.5059(11) 1.7077(10) -0.0714(5)
H28 H 1.5794 1.7769 -0.0686
C34 C 1.4709(10) 1.6652(9) -0.0216(4)
C35 C 1.3183(12) 1.4983(10) 0.0230(5)
H29 H 1.3980 1.5082 0.0526
H30 H 1.2737 1.4138 0.0110
C36 C 1.5546(11) 1.7308(9) 0.0349(4)
H31 H 1.6503 1.7482 0.0350
H32 H 1.5330 1.6824 0.0654
Cu1_2 Cu 2.02271(13) 2.20949(12) 0.24750(5)
N2_2 N 0.9464(9) 1.1200(8) 0.3105(3)
N4_2 N 0.8582(9) 1.1021(8) 0.1875(3)
Cl1 Cl -0.2618(4) -0.6031(4) 0.29661(14)
O1 O -0.1951(11) -0.6456(12) 0.2609(4)
O2 O -0.2212(15) -0.6245(13) 0.3523(4)
O3 O -0.3931(14) -0.657(2) 0.2787(7)
O4 O -0.230(3) -0.4893(15) 0.2891(7)
O5 O 0.0903(14) 0.7445(14) 0.4285(7)
N5 N -0.0521(14) 0.6603(14) 0.4792(6)
C37 C -0.195(2) 0.595(2) 0.4814(12)
C38 C 0.042(2) 0.697(2) 0.5355(9)
C39 C -0.013(2) 0.6932(19) 0.4357(13)
N6 N -0.067(2) 0.7189(16) 0.1825(10)
C40 C -0.008(2) 0.731(2) 0.2302(11)
C41 C 0.081(4) 0.753(2) 0.2905(12)
O6 O 0.363(3) 0.873(2) 0.236(1)
N7 N 0.473(3) 0.750(3) 0.250(2)
C42 C 0.412(3) 0.801(3) 0.217(2)
C43 C 0.522(3) 0.662(3) 0.208(2)
C44 C 0.497(3) 0.764(3) 0.312(2)
O7? O -0.1263(14) -0.1998(14) 0.0188(7)
C45? C 0.116(2) -0.142(3) -0.0141(9)
C46? C -0.011(3) -0.156(3) 0.0551(14)
C47? C 0.194(3) -0.153(3) 0.0942(19)
N8? N 0.074(2) -0.151(3) 0.0422(7)
loop_
_geom_bond_atom_site_label_1
_geom_bond_atom_site_label_2
_geom_bond_site_symmetry_1
_geom_bond_site_symmetry_2
Cu1 Br1 1_555 1_555
S1 C3 1_555 1_555
S2 C8 1_555 1_555
S3 C21 1_555 1_555
S4 C26 1_555 1_555
N1 Cu1 1_555 1_555
N2 C6 1_555 1_555
N3 Cu1 1_555 1_555
N4 C24 1_555 1_555
C1 N1 1_555 1_555
H1 C1 1_555 1_555
C2 C1 1_555 1_555
H2 C2 1_555 1_555
C3 C2 1_555 1_555
C4 C3 1_555 1_555
H3 C4 1_555 1_555
C5 N1 1_555 1_555
H4 C5 1_555 1_555
C6 H5 1_555 1_555
C7 C6 1_555 1_555
H6 C7 1_555 1_555
C8 C7 1_555 1_555
C9 C8 1_555 1_555
H7 C9 1_555 1_555
C10 N2 1_555 1_555
H8 C10 1_555 1_555
C11 C12 1_555 1_555
C12 H9 1_555 1_555
C13 C12 1_555 1_555
H10 C13 1_555 1_555
C14 C13 1_555 1_555
H11 C14 1_555 1_555
C15 C14 1_555 1_555
H12 C15 1_555 1_555
C16 C11 1_555 1_555
C17 S1 1_555 1_555
H13 C17 1_555 1_555
H14 C17 1_555 1_555
C18 S2 1_555 1_555
H15 C18 1_555 1_555
H16 C18 1_555 1_555
C19 N3 1_555 1_555
H17 C19 1_555 1_555
C20 C19 1_555 1_555
H18 C20 1_555 1_555
C21 C20 1_555 1_555
C22 C21 1_555 1_555
H19 C22 1_555 1_555
C23 N3 1_555 1_555
H20 C23 1_555 1_555
C24 H21 1_555 1_555
C25 C24 1_555 1_555
H22 C25 1_555 1_555
C26 C25 1_555 1_555
C27 C26 1_555 1_555
H23 C27 1_555 1_555
C28 N4 1_555 1_555
H24 C28 1_555 1_555
C29 C30 1_555 1_555
C30 H25 1_555 1_555
C31 C30 1_555 1_555
H26 C31 1_555 1_555
C32 C31 1_555 1_555
H27 C32 1_555 1_555
C33 C32 1_555 1_555
H28 C33 1_555 1_555
C34 C29 1_555 1_555
C35 S3 1_555 1_555
H29 C35 1_555 1_555
H30 C35 1_555 1_555
C36 S4 1_555 1_555
H31 C36 1_555 1_555
H32 C36 1_555 1_555
Cl1 O1 1_555 1_555
O2 Cl1 1_555 1_555
O3 Cl1 1_555 1_555
O4 Cl1 1_555 1_555
O5 C39 1_555 1_555
N5 C37 1_555 1_555
C38 N5 1_555 1_555
C39 N5 1_555 1_555
N6 C40 1_555 1_555
C40 C41 1_555 1_555
O6 C42 1_555 1_555
N7 C42 1_555 1_555
C43 N7 1_555 1_555
C44 N7 1_555 1_555
Cu1_2 N2 1_555 1_555
N2_2 Cu1 1_555 1_555
N4_2 Cu1 1_555 1_555
N4 Cu1_2 1_555 1_555
C4 C5 1_555 1_555
C9 C10 1_555 1_555
C11 C17 1_555 1_555
C15 C16 1_555 1_555
C16 C18 1_555 1_555
C22 C23 1_555 1_555
C27 C28 1_555 1_555
C29 C35 1_555 1_555
C33 C34 1_555 1_555
C34 C36 1_555 1_555

#END
