
#######################################################################
#
#                 Cambridge Crystallographic Data Centre
#                                CCDC 
#
#######################################################################
#
# If this CIF has been generated from an entry in the Cambridge 
# Structural Database, then it will include bibliographic, chemical, 
# crystal, experimental, refinement or atomic coordinate data resulting 
# from the CCDC's data processing and validation procedures.
#
#######################################################################

data_UGALOD
_symmetry_cell_setting           hexagonal
_symmetry_space_group_name_H-M   'P 63'
_symmetry_Int_Tables_number      173
_space_group_name_Hall           'P 6c'
loop_
_symmetry_equiv_pos_site_id
_symmetry_equiv_pos_as_xyz
1 x,y,z
2 -y,x-y,z
3 -x+y,-x,z
4 -x,-y,1/2+z
5 y,-x+y,1/2+z
6 x-y,x,1/2+z
_cell_length_a                   14.292(2)
_cell_length_b                   14.292(2)
_cell_length_c                   14.769(3)
_cell_angle_alpha                90
_cell_angle_beta                 90
_cell_angle_gamma                120
_cell_volume                     2612.57
loop_
_atom_site_label
_atom_site_type_symbol
_atom_site_fract_x
_atom_site_fract_y
_atom_site_fract_z
Cu1 Cu 0.6667 -0.6667 0.96001(6)
Cu2 Cu 1.0000 0.0000 1.26875(8)
Cl1 Cl 1.0000 0.0000 1.42406(12)
S1 S 0.84408(9) -0.52437(8) 1.10234(8)
S2 S 0.86406(8) -0.26511(8) 1.30344(9)
N1 N 0.7547(2) -0.5066(2) 0.9555(2)
N2 N 0.8871(3) -0.3392(3) 1.0216(3)
N3 N 0.7142(3) -0.3002(3) 1.1816(3)
N4 N 0.8554(3) -0.1188(3) 1.2019(2)
C1 C 0.7426(4) -0.4518(4) 0.8877(4)
H1 H 0.6941 -0.4900 0.8415
C2 C 0.7988(4) -0.3417(4) 0.8838(5)
H2 H 0.7892 -0.3044 0.8364
C3 C 0.8701(5) -0.2883(4) 0.9529(5)
H3 H 0.9085 -0.2132 0.9520
C4 C 0.8273(3) -0.4472(3) 1.0189(3)
C5 C 0.9513(4) -0.4215(4) 1.1731(3)
H4 H 1.0211 -0.4079 1.1517
H5 H 0.9498 -0.3544 1.1694
C6 C 0.9349(3) -0.4598(3) 1.2687(3)
C7 C 0.9952(4) -0.5034(4) 1.3036(5)
H6 H 1.0466 -0.5062 1.2668
C8 C 0.9816(7) -0.5419(5) 1.3892(7)
H7 H 1.0241 -0.5693 1.4110
C9 C 0.9053(7) -0.5402(5) 1.4431(5)
H8 H 0.8948 -0.5681 1.5015
C10 C 0.8434(5) -0.4975(4) 1.4121(4)
H9 H 0.7924 -0.4954 1.4498
C11 C 0.8578(3) -0.4575(3) 1.3238(3)
C12 C 0.7883(3) -0.4123(3) 1.2905(4)
H10 H 0.7219 -0.4425 1.3253
H11 H 0.7697 -0.4311 1.2273
C13 C 0.8034(3) -0.2257(4) 1.2206(3)
C14 C 0.6738(5) -0.2635(5) 1.1165(5)
H12 H 0.6114 -0.3131 1.0863
C15 C 0.7206(5) -0.1566(4) 1.0934(5)
H13 H 0.6904 -0.1328 1.0497
C16 C 0.8130(4) -0.0872(4) 1.1370(4)
H14 H 0.8480 -0.0145 1.1209
S1A S 0.52437(8) -0.63155(12) 1.10234(8)
S2A S 0.26511(8) -0.87083(11) 1.30344(9)
N1A N 0.5066(2) -0.7387(3) 0.9555(2)
N2A N 0.3392(3) -0.7737(4) 1.0216(3)
N3A N 0.3002(3) -0.9856(4) 1.1816(3)
N4A N 0.1188(3) -1.0258(4) 1.2019(2)
C1A C 0.4518(4) -0.8056(6) 0.8877(4)
H1A H 0.4900 -0.8159 0.8415
C2A C 0.3417(4) -0.8595(6) 0.8838(5)
H2A H 0.3044 -0.9064 0.8364
C3A C 0.2883(4) -0.8416(6) 0.9529(5)
H3A H 0.2132 -0.8783 0.9520
C4A C 0.4472(3) -0.7255(4) 1.0189(3)
C5A C 0.4215(4) -0.6272(6) 1.1731(3)
H4A H 0.4079 -0.5710 1.1517
H5A H 0.3544 -0.6958 1.1694
C6A C 0.4598(3) -0.6053(4) 1.2687(3)
C7A C 0.5034(4) -0.5014(6) 1.3036(5)
H6A H 0.5062 -0.4472 1.2668
C8A C 0.5419(5) -0.4765(9) 1.3892(7)
H7A H 0.5693 -0.4066 1.4110
C9A C 0.5402(5) -0.5545(9) 1.4431(5)
H8A H 0.5681 -0.5371 1.5015
C10A C 0.4975(4) -0.6591(6) 1.4121(4)
H9A H 0.4954 -0.7122 1.4498
C11A C 0.4575(3) -0.6847(4) 1.3238(3)
C12A C 0.4123(3) -0.7994(4) 1.2905(4)
H10A H 0.4425 -0.8356 1.3253
H11A H 0.4311 -0.7992 1.2273
C13A C 0.2257(4) -0.9709(5) 1.2206(3)
C14A C 0.2635(5) -1.0627(7) 1.1165(5)
H12A H 0.3131 -1.0755 1.0863
C15A C 0.1566(4) -1.1228(6) 1.0934(5)
H13A H 0.1328 -1.1768 1.0497
C16A C 0.0872(4) -1.0998(6) 1.1370(4)
H14A H 0.0145 -1.1375 1.1209
S1B S 0.63155(12) -0.84408(9) 1.10234(8)
S2B S 0.87083(11) -0.86406(8) 1.30344(9)
N1B N 0.7387(3) -0.7547(2) 0.9555(2)
N2B N 0.7737(4) -0.8871(3) 1.0216(3)
N3B N 0.9856(4) -0.7142(3) 1.1816(3)
N4B N 1.0258(4) -0.8554(3) 1.2019(2)
C1B C 0.8056(6) -0.7426(4) 0.8877(4)
H1B H 0.8159 -0.6941 0.8415
C2B C 0.8595(6) -0.7988(4) 0.8838(5)
H2B H 0.9064 -0.7892 0.8364
C3B C 0.8416(6) -0.8701(5) 0.9529(5)
H3B H 0.8783 -0.9085 0.9520
C4B C 0.7255(4) -0.8273(3) 1.0189(3)
C5B C 0.6272(6) -0.9513(4) 1.1731(3)
H4B H 0.5710 -1.0211 1.1517
H5B H 0.6958 -0.9498 1.1694
C6B C 0.6053(4) -0.9349(3) 1.2687(3)
C7B C 0.5014(6) -0.9952(4) 1.3036(5)
H6B H 0.4472 -1.0466 1.2668
C8B C 0.4765(9) -0.9816(7) 1.3892(7)
H7B H 0.4066 -1.0241 1.4110
C9B C 0.5545(9) -0.9053(7) 1.4431(5)
H8B H 0.5371 -0.8948 1.5015
C10B C 0.6591(6) -0.8434(5) 1.4121(4)
H9B H 0.7122 -0.7924 1.4498
C11B C 0.6847(4) -0.8578(3) 1.3238(3)
C12B C 0.7994(4) -0.7883(3) 1.2905(4)
H10B H 0.8356 -0.7219 1.3253
H11B H 0.7992 -0.7697 1.2273
C13B C 0.9709(5) -0.8034(3) 1.2206(3)
C14B C 1.0627(7) -0.6738(5) 1.1165(5)
H12B H 1.0755 -0.6114 1.0863
C15B C 1.1228(6) -0.7206(5) 1.0934(5)
H13B H 1.1768 -0.6904 1.0497
C16B C 1.0998(6) -0.8130(4) 1.1370(4)
H14B H 1.1375 -0.8480 1.1209
N4A_2 N 1.1188(3) -0.0258(4) 1.2019(2)
N4B_2 N 1.0258(4) 0.1446(3) 1.2019(2)
Cu2_2 Cu 0.0000 -1.0000 1.26875(8)
Cu2_3 Cu 1.0000 -1.0000 1.26875(8)
Cl2 Cl 0.6667 -0.6667 0.67325(16)
O1 O 0.6667 -0.6667 0.7684(8)
O2 O 0.6678(9) -0.5769(7) 0.6384(7)
O2A O 0.5769(7) -0.7553(11) 0.6384(7)
O2B O 0.7553(11) -0.6678(9) 0.6384(7)
loop_
_geom_bond_atom_site_label_1
_geom_bond_atom_site_label_2
_geom_bond_site_symmetry_1
_geom_bond_site_symmetry_2
Cu1 N1 1_555 1_555
Cu2 Cl1 1_555 1_555
Cl2 O1 1_555 1_555
S1 C4 1_555 1_555
S2 C12 1_555 1_555
O2 Cl2 1_555 1_555
N1 C1 1_555 1_555
N2 C3 1_555 1_555
N3 C13 1_555 1_555
N4 Cu2 1_555 1_555
C1 H1 1_555 1_555
C2 C1 1_555 1_555
H2 C2 1_555 1_555
C3 C2 1_555 1_555
H3 C3 1_555 1_555
C4 N1 1_555 1_555
C5 S1 1_555 1_555
H4 C5 1_555 1_555
H5 C5 1_555 1_555
C6 C5 1_555 1_555
C7 C6 1_555 1_555
H6 C7 1_555 1_555
C8 C7 1_555 1_555
H7 C8 1_555 1_555
C9 C8 1_555 1_555
H8 C9 1_555 1_555
C10 C9 1_555 1_555
H9 C10 1_555 1_555
C11 C6 1_555 1_555
C12 C11 1_555 1_555
H10 C12 1_555 1_555
H11 C12 1_555 1_555
C13 S2 1_555 1_555
C14 N3 1_555 1_555
H12 C14 1_555 1_555
C15 C14 1_555 1_555
H13 C15 1_555 1_555
C16 N4 1_555 1_555
H14 C16 1_555 1_555
O2A Cl2 1_555 1_555
O2B Cl2 1_555 1_555
S1A C4A 1_555 1_555
S2A C12A 1_555 1_555
N1A Cu1 1_555 1_555
N2A C3A 1_555 1_555
N3A C13A 1_555 1_555
N4A C13A 1_555 1_555
C1A N1A 1_555 1_555
H1A C1A 1_555 1_555
C2A C1A 1_555 1_555
H2A C2A 1_555 1_555
C3A C2A 1_555 1_555
H3A C3A 1_555 1_555
C4A N1A 1_555 1_555
C5A S1A 1_555 1_555
H4A C5A 1_555 1_555
H5A C5A 1_555 1_555
C6A C5A 1_555 1_555
C7A C6A 1_555 1_555
H6A C7A 1_555 1_555
C8A C7A 1_555 1_555
H7A C8A 1_555 1_555
C9A C8A 1_555 1_555
H8A C9A 1_555 1_555
C10A C9A 1_555 1_555
H9A C10A 1_555 1_555
C11A C6A 1_555 1_555
C12A C11A 1_555 1_555
H10A C12A 1_555 1_555
H11A C12A 1_555 1_555
C13A S2A 1_555 1_555
C14A N3A 1_555 1_555
H12A C14A 1_555 1_555
C15A C14A 1_555 1_555
H13A C15A 1_555 1_555
C16A N4A 1_555 1_555
H14A C16A 1_555 1_555
S1B C4B 1_555 1_555
S2B C12B 1_555 1_555
N1B Cu1 1_555 1_555
N2B C3B 1_555 1_555
N3B C13B 1_555 1_555
N4B C13B 1_555 1_555
C1B N1B 1_555 1_555
H1B C1B 1_555 1_555
C2B C1B 1_555 1_555
H2B C2B 1_555 1_555
C3B C2B 1_555 1_555
H3B C3B 1_555 1_555
C4B N1B 1_555 1_555
C5B S1B 1_555 1_555
H4B C5B 1_555 1_555
H5B C5B 1_555 1_555
C6B C5B 1_555 1_555
C7B C6B 1_555 1_555
H6B C7B 1_555 1_555
C8B C7B 1_555 1_555
H7B C8B 1_555 1_555
C9B C8B 1_555 1_555
H8B C9B 1_555 1_555
C10B C9B 1_555 1_555
H9B C10B 1_555 1_555
C11B C6B 1_555 1_555
C12B C11B 1_555 1_555
H10B C12B 1_555 1_555
H11B C12B 1_555 1_555
C13B S2B 1_555 1_555
C14B N3B 1_555 1_555
H12B C14B 1_555 1_555
C15B C14B 1_555 1_555
H13B C15B 1_555 1_555
C16B N4B 1_555 1_555
H14B C16B 1_555 1_555
N4A_2 Cu2 1_555 1_555
N4B_2 Cu2 1_555 1_555
Cu2_2 N4A 1_555 1_555
Cu2_3 N4B 1_555 1_555
N2 C4 1_555 1_555
N4 C13 1_555 1_555
C10 C11 1_555 1_555
C15 C16 1_555 1_555
N2A C4A 1_555 1_555
C10A C11A 1_555 1_555
C15A C16A 1_555 1_555
N2B C4B 1_555 1_555
C10B C11B 1_555 1_555
C15B C16B 1_555 1_555

#END
