
#######################################################################
#
#                 Cambridge Crystallographic Data Centre
#                                CCDC 
#
#######################################################################
#
# If this CIF has been generated from an entry in the Cambridge 
# Structural Database, then it will include bibliographic, chemical, 
# crystal, experimental, refinement or atomic coordinate data resulting 
# from the CCDC's data processing and validation procedures.
#
#######################################################################

data_UGANIB
_symmetry_cell_setting           monoclinic
_symmetry_space_group_name_H-M   'P 21/c'
_symmetry_Int_Tables_number      14
_space_group_name_Hall           '-P 2ybc'
loop_
_symmetry_equiv_pos_site_id
_symmetry_equiv_pos_as_xyz
1 x,y,z
2 -x,1/2+y,1/2-z
3 -x,-y,-z
4 x,1/2-y,1/2+z
_cell_length_a                   6.0457(2)
_cell_length_b                   10.8118(3)
_cell_length_c                   6.5209(2)
_cell_angle_alpha                90
_cell_angle_beta                 114.950(5)
_cell_angle_gamma                90
_cell_volume                     386.46
loop_
_atom_site_label
_atom_site_type_symbol
_atom_site_fract_x
_atom_site_fract_y
_atom_site_fract_z
Cd1 Cd 0.63924(3) 0.333883(15) 0.08549(3)
Cl1 Cl 0.76708(12) 0.11015(6) -0.00205(10)
O1 O 0.7065(3) 0.53229(15) -0.0264(3)
O2 O 0.3911(4) 0.3120(2) -0.3093(3)
O3 O 0.9588(4) 0.64801(16) -0.1150(3)
C1 C 0.9033(5) 0.5519(2) -0.0403(4)
H1 H 0.278(7) 0.277(3) -0.323(6)
H2 H 0.365(8) 0.370(4) -0.362(7)
O1B O 1.2935(3) 0.46771(15) 0.0264(3)
C1B C 1.0967(5) 0.4481(2) 0.0403(4)
O3B O 1.0412(4) 0.35199(16) 0.1150(3)
Cd1B Cd 0.36076(3) 0.666117(15) -0.08549(3)
Cl1B Cl 0.23292(12) 0.88985(6) 0.00205(10)
O2B O 0.6089(4) 0.6880(2) 0.3093(3)
H1B H 0.722(7) 0.723(3) 0.323(6)
H2B H 0.635(8) 0.630(4) 0.362(7)
Cd1_2 Cd 1.63924(3) 0.333883(15) 0.08549(3)
Cd1A Cd 0.36076(3) 0.833883(15) 0.41451(3)
Cd1B_2 Cd 1.36076(3) 0.666117(15) -0.08549(3)
Cd1C Cd 0.63924(3) 0.166117(15) -0.41451(3)
Cl1A Cl 0.23292(12) 0.61015(6) -0.49795(10)
Cl1C Cl 0.76708(12) 0.38985(6) 0.49795(10)
O1B_2 O 0.2935(3) 0.46771(15) 0.0264(3)
O2A O 0.6089(4) 0.8120(2) -0.1907(3)
O2C O 0.3911(4) 0.1880(2) 0.1907(3)
O3_2 O -0.0412(4) 0.64801(16) -0.1150(3)
loop_
_geom_bond_atom_site_label_1
_geom_bond_atom_site_label_2
_geom_bond_site_symmetry_1
_geom_bond_site_symmetry_2
Cd1 Cl1 1_555 1_555
Cl1 Cd1C 1_555 1_555
O1 Cd1 1_555 1_555
O2 Cd1 1_555 1_555
O3 C1 1_555 1_555
C1 O1 1_555 1_555
H1 O2 1_555 1_555
H2 O2 1_555 1_555
O1B C1B 1_555 1_555
C1B C1 1_555 1_555
O3B Cd1 1_555 1_555
Cd1B O1 1_555 1_555
Cl1B Cd1B 1_555 1_555
O2B Cd1B 1_555 1_555
H1B O2B 1_555 1_555
H2B O2B 1_555 1_555
Cd1_2 O1B 1_555 1_555
Cd1A Cl1B 1_555 1_555
Cd1B_2 O3 1_555 1_555
Cd1C O2 1_555 1_555
Cl1A Cd1B 1_555 1_555
Cl1C Cd1 1_555 1_555
O1B_2 Cd1 1_555 1_555
O2A Cd1B 1_555 1_555
O2C Cd1 1_555 1_555
O3_2 Cd1B 1_555 1_555
O1B Cd1B_2 1_555 1_555
C1B O3B 1_555 1_555
Cd1B O1B_2 1_555 1_555
O2B Cd1A 1_555 1_555

#END
