
#######################################################################
#
#                 Cambridge Crystallographic Data Centre
#                                CCDC 
#
#######################################################################
#
# If this CIF has been generated from an entry in the Cambridge 
# Structural Database, then it will include bibliographic, chemical, 
# crystal, experimental, refinement or atomic coordinate data resulting 
# from the CCDC's data processing and validation procedures.
#
#######################################################################

data_UGANUM
_symmetry_cell_setting           monoclinic
_symmetry_space_group_name_H-M   'C 2/c'
_symmetry_Int_Tables_number      15
_space_group_name_Hall           '-C 2yn'
loop_
_symmetry_equiv_pos_site_id
_symmetry_equiv_pos_as_xyz
1 x,y,z
2 1/2+x,1/2+y,z
3 -x,y,1/2-z
4 1/2-x,1/2+y,1/2-z
5 -x,-y,-z
6 1/2-x,1/2-y,-z
7 x,-y,1/2+z
8 1/2+x,1/2-y,1/2+z
_cell_length_a                   24.966(2)
_cell_length_b                   13.9529(13)
_cell_length_c                   17.6976(16)
_cell_angle_alpha                90
_cell_angle_beta                 98.437(2)
_cell_angle_gamma                90
_cell_volume                     6098.21
loop_
_atom_site_label
_atom_site_type_symbol
_atom_site_fract_x
_atom_site_fract_y
_atom_site_fract_z
Ag1 Ag 0.177461(13) 0.31617(2) 0.21259(2)
N1 N 0.16489(13) 0.4710(2) 0.22045(18)
N2 N 0.19741(12) 0.17730(19) 0.16389(17)
N3 N 0.25625(13) 0.6644(2) 0.10836(19)
N4 N 0.29258(12) 0.7215(2) 0.07857(19)
N5 N 0.5169(2) 0.9140(4) -0.1204(3)
N6 N 0.32032(13) 0.1492(2) 0.02428(18)
N7 N 0.35916(12) 0.1432(2) -0.02381(18)
N8 N 0.60476(14) 0.2456(3) -0.2154(2)
O1 O 0.23222(12) 0.78306(19) 0.18438(17)
O2 O 0.28597(11) 0.0026(2) -0.01063(16)
C1 C 0.12856(16) 0.5082(3) 0.2610(2)
H1 H 0.1059 0.4658 0.2839
C2 C 0.12275(17) 0.6049(3) 0.2707(3)
H2 H 0.0966 0.6289 0.2998
C3 C 0.15543(18) 0.6664(3) 0.2376(3)
H3 H 0.1524 0.7336 0.2444
C4 C 0.19279(14) 0.6307(2) 0.19433(19)
C5 C 0.19597(15) 0.5322(3) 0.1878(2)
H4 H 0.2216 0.5065 0.1585
C6 C 0.22824(15) 0.6994(2) 0.1618(2)
C7 C 0.32028(16) 0.6787(3) 0.0335(2)
H5 H 0.3143 0.6126 0.0226
C8 C 0.36060(15) 0.7304(3) -0.0009(2)
C9 C 0.39393(18) 0.6808(3) -0.0440(3)
H6 H 0.3893 0.6137 -0.0514
C10 C 0.43334(18) 0.7280(4) -0.0756(3)
H7 H 0.4556 0.6936 -0.1054
C11 C 0.44089(18) 0.8263(3) -0.0643(3)
C12 C 0.40796(18) 0.8751(3) -0.0220(3)
H8 H 0.4131 0.9420 -0.0139
C13 C 0.36835(17) 0.8298(3) 0.0086(2)
H9 H 0.3455 0.8654 0.0367
C14 C 0.4834(2) 0.8750(4) -0.0962(3)
C15 C 0.18030(14) 0.0956(3) 0.1923(2)
H10 H 0.1556 0.0994 0.2283
C16 C 0.19682(16) 0.0068(3) 0.1717(2)
H11 H 0.1842 -0.0494 0.1936
C17 C 0.23172(15) 0.0003(2) 0.1192(2)
H12 H 0.2436 -0.0606 0.1042
C18 C 0.24964(13) 0.0833(2) 0.08797(19)
C19 C 0.23178(14) 0.1700(2) 0.1127(2)
H13 H 0.2445 0.2273 0.0924
C20 C 0.28677(14) 0.0743(2) 0.0289(2)
C21 C 0.38690(16) 0.2191(3) -0.0263(2)
H14 H 0.3784 0.2739 0.0016
C22 C 0.43167(14) 0.2241(3) -0.0711(2)
C23 C 0.45139(15) 0.1431(3) -0.1041(2)
H15 H 0.4343 0.0828 -0.1004
C24 C 0.49545(16) 0.1502(3) -0.1419(2)
H16 H 0.5091 0.0949 -0.1639
C25 C 0.52007(14) 0.2387(3) -0.1478(2)
C26 C 0.50079(18) 0.3193(3) -0.1168(3)
H17 H 0.5176 0.3796 -0.1218
C27 C 0.45664(18) 0.3123(3) -0.0780(3)
H18 H 0.4433 0.3678 -0.0559
C28 C 0.56767(15) 0.2436(3) -0.1854(2)
H19 H 0.3208(14) 0.1991(18) 0.0520(17)
H20 H 0.2522(16) 0.6077(15) 0.088(2)
Ag1G Ag 0.677461(13) 0.18383(2) -0.28741(2)
N8G N 0.10476(14) 0.2544(3) 0.2846(2)
S1 S 0.35594(5) 0.41766(7) 0.11529(6)
O3 O 0.33416(17) 0.3230(2) 0.1160(2)
O4 O 0.32654(16) 0.4890(3) 0.1495(2)
O5 O 0.37379(17) 0.4448(2) 0.04515(19)
F1 F 0.4489(2) 0.3413(5) 0.1600(3)
F2 F 0.40950(15) 0.3851(3) 0.2507(2)
F3 F 0.4445(2) 0.4874(4) 0.1883(3)
C29 C 0.4169(2) 0.4087(4) 0.1813(4)
loop_
_geom_bond_atom_site_label_1
_geom_bond_atom_site_label_2
_geom_bond_site_symmetry_1
_geom_bond_site_symmetry_2
Ag1 N1 1_555 1_555
N1 C1 1_555 1_555
N2 Ag1 1_555 1_555
N3 N4 1_555 1_555
N4 C7 1_555 1_555
N5 C14 1_555 1_555
N6 N7 1_555 1_555
N7 C21 1_555 1_555
N8 C28 1_555 1_555
O1 C6 1_555 1_555
O2 C20 1_555 1_555
C1 H1 1_555 1_555
C2 C1 1_555 1_555
H2 C2 1_555 1_555
C3 C2 1_555 1_555
H3 C3 1_555 1_555
C4 C3 1_555 1_555
C5 N1 1_555 1_555
H4 C5 1_555 1_555
C6 N3 1_555 1_555
C7 H5 1_555 1_555
C8 C7 1_555 1_555
C9 C8 1_555 1_555
H6 C9 1_555 1_555
C10 C9 1_555 1_555
H7 C10 1_555 1_555
C11 C10 1_555 1_555
C12 C11 1_555 1_555
H8 C12 1_555 1_555
C13 C8 1_555 1_555
H9 C13 1_555 1_555
C14 C11 1_555 1_555
C15 N2 1_555 1_555
H10 C15 1_555 1_555
C16 C15 1_555 1_555
H11 C16 1_555 1_555
C17 C16 1_555 1_555
H12 C17 1_555 1_555
C18 C17 1_555 1_555
C19 N2 1_555 1_555
H13 C19 1_555 1_555
C20 N6 1_555 1_555
C21 H14 1_555 1_555
C22 C21 1_555 1_555
C23 C22 1_555 1_555
H15 C23 1_555 1_555
C24 C23 1_555 1_555
H16 C24 1_555 1_555
C25 C24 1_555 1_555
C26 C25 1_555 1_555
H17 C26 1_555 1_555
C27 C22 1_555 1_555
H18 C27 1_555 1_555
C28 C25 1_555 1_555
H19 N6 1_555 1_555
H20 N3 1_555 1_555
S1 O3 1_555 1_555
O4 S1 1_555 1_555
O5 S1 1_555 1_555
F1 C29 1_555 1_555
F2 C29 1_555 1_555
F3 C29 1_555 1_555
C29 S1 1_555 1_555
Ag1G N8 1_555 1_555
N8G Ag1 1_555 1_555
C4 C5 1_555 1_555
C4 C6 1_555 1_555
C12 C13 1_555 1_555
C18 C19 1_555 1_555
C18 C20 1_555 1_555
C26 C27 1_555 1_555

#END
