
#######################################################################
#
#                 Cambridge Crystallographic Data Centre
#                                CCDC 
#
#######################################################################
#
# If this CIF has been generated from an entry in the Cambridge 
# Structural Database, then it will include bibliographic, chemical, 
# crystal, experimental, refinement or atomic coordinate data resulting 
# from the CCDC's data processing and validation procedures.
#
#######################################################################

data_UGAPOI
_symmetry_cell_setting           monoclinic
_symmetry_space_group_name_H-M   'P 21/c'
_symmetry_Int_Tables_number      14
_space_group_name_Hall           '-P 2ybc'
loop_
_symmetry_equiv_pos_site_id
_symmetry_equiv_pos_as_xyz
1 x,y,z
2 -x,1/2+y,1/2-z
3 -x,-y,-z
4 x,1/2-y,1/2+z
_cell_length_a                   9.7528(1)
_cell_length_b                   16.1943(2)
_cell_length_c                   17.2751(3)
_cell_angle_alpha                90
_cell_angle_beta                 104.7626(6)
_cell_angle_gamma                90
_cell_volume                     2638.36
loop_
_atom_site_label
_atom_site_type_symbol
_atom_site_fract_x
_atom_site_fract_y
_atom_site_fract_z
Na1 Na 0.70027(5) 0.13524(3) 0.23277(3)
N1 N 0.90379(14) 0.18470(9) 0.33038(8)
C1 C 1.02149(18) 0.22123(11) 0.31816(9)
H1 H 1.0220 0.2333 0.2644
C2 C 1.13942(16) 0.24223(10) 0.37657(9)
H2 H 1.2177 0.2670 0.3622
C3 C 1.14639(14) 0.22743(8) 0.45888(8)
C4 C 1.02260(15) 0.18892(9) 0.47132(9)
H3 H 1.0179 0.1763 0.5243
C5 C 0.91022(16) 0.16969(10) 0.40841(9)
H4 H 0.8306 0.1438 0.4203
N2 N 0.81024(13) 0.06907(8) 0.14139(7)
C6 C 0.81250(16) -0.01064(10) 0.11839(9)
H5 H 0.7599 -0.0492 0.1407
C7 C 0.88428(15) -0.04051(9) 0.06564(9)
H6 H 0.8806 -0.0978 0.0534
C8 C 0.96439(13) 0.01352(8) 0.02891(8)
C9 C 0.96529(15) 0.09714(9) 0.05499(8)
H7 H 1.0190 0.1373 0.0353
C10 C 0.88938(15) 0.12008(9) 0.10823(9)
H8 H 0.8926 0.1767 0.1231
N3 N 0.58825(14) 0.06555(8) 0.31983(7)
C11 C 0.63731(16) -0.00530(10) 0.35851(9)
H9 H 0.6967 -0.0389 0.3357
C12 C 0.60873(16) -0.03270(9) 0.42747(8)
H10 H 0.6490 -0.0831 0.4508
C13 C 0.51915(14) 0.01360(8) 0.46489(8)
C14 C 0.46937(16) 0.08880(9) 0.42495(9)
H11 H 0.4104 0.1243 0.4462
C15 C 0.50550(17) 0.11041(10) 0.35645(9)
H12 H 0.4696 0.1613 0.3323
N4 N 1.51569(13) 0.28363(8) 0.64962(8)
C16 C 1.50655(16) 0.30006(10) 0.57165(10)
H13 H 1.5872 0.3239 0.5591
C17 C 1.39076(15) 0.28509(10) 0.50945(9)
H14 H 1.3939 0.2991 0.4565
C18 C 1.26582(14) 0.24886(8) 0.52258(8)
C19 C 1.27377(15) 0.23448(8) 0.60493(8)
H15 H 1.1937 0.2128 0.6199
C20 C 1.39495(16) 0.25147(9) 0.66275(9)
H16 H 1.3947 0.2398 0.7166
Na1C Na -0.29973(5) 0.36476(3) -0.26723(3)
Na1C_2 Na 1.70027(5) 0.36476(3) 0.73277(3)
Na1B Na 1.29973(5) -0.13524(3) -0.23277(3)
Na1B_2 Na 0.29973(5) -0.13524(3) 0.76723(3)
N1C N -0.09621(14) 0.31530(9) -0.16962(8)
C1C C 0.02149(18) 0.27877(11) -0.18184(9)
H1C H 0.0220 0.2667 -0.2356
C2C C 0.13942(16) 0.25777(10) -0.12343(9)
H2C H 0.2177 0.2330 -0.1378
C3C C 0.14639(14) 0.27257(8) -0.04112(8)
C4C C 0.02260(15) 0.31108(9) -0.02868(9)
H3C H 0.0179 0.3237 0.0243
C5C C -0.08978(16) 0.33031(10) -0.09159(9)
H4C H -0.1694 0.3562 -0.0797
N2B N 1.18976(13) -0.06907(8) -0.14139(7)
N2C N -0.18976(13) 0.43093(8) -0.35861(7)
C6B C 1.18750(16) 0.01064(10) -0.11839(9)
H5B H 1.2401 0.0492 -0.1407
C7B C 1.11572(15) 0.04051(9) -0.06564(9)
H6B H 1.1194 0.0978 -0.0534
C8B C 1.03561(13) -0.01352(8) -0.02891(8)
C9B C 1.03471(15) -0.09714(9) -0.05499(8)
H7B H 0.9810 -0.1373 -0.0353
C10B C 1.11062(15) -0.12008(9) -0.10823(9)
H8B H 1.1074 -0.1767 -0.1231
N3B N 0.41175(14) -0.06555(8) 0.68017(7)
N3C N -0.41175(14) 0.43445(8) -0.18017(7)
C11B C 0.36269(16) 0.00530(10) 0.64149(9)
H9B H 0.3033 0.0389 0.6643
C12B C 0.39127(16) 0.03270(9) 0.57253(8)
H10B H 0.3510 0.0831 0.5492
C13B C 0.48085(14) -0.01360(8) 0.53511(8)
C14B C 0.53063(16) -0.08880(9) 0.57505(9)
H11B H 0.5896 -0.1243 0.5538
C15B C 0.49450(17) -0.11041(10) 0.64355(9)
H12B H 0.5304 -0.1613 0.6677
N4C N 0.51569(13) 0.21637(8) 0.14962(8)
N4_2 N -0.48431(13) 0.28363(8) -0.35038(8)
C16C C 0.50655(16) 0.19994(10) 0.07165(10)
H13C H 0.5872 0.1761 0.0591
C17C C 0.39076(15) 0.21491(10) 0.00945(9)
H14C H 0.3939 0.2009 -0.0435
C18C C 0.26582(14) 0.25114(8) 0.02258(8)
C19C C 0.27377(15) 0.26552(8) 0.10493(8)
H15C H 0.1937 0.2872 0.1199
C20C C 0.39495(16) 0.24853(9) 0.16275(9)
H16C H 0.3947 0.2602 0.2166
Na2 Na 1.15156(7) -0.04617(5) 0.20082(4)
N5 N 1.2795(3) -0.11203(18) 0.3313(2)
H17 H 1.3041 -0.1655 0.3227
H18 H 1.3608 -0.0831 0.3541
N6 N 1.0209(3) -0.0136(3) 0.3019(3)
H19 H 0.9941 0.0410 0.2976
H20 H 0.9402 -0.0454 0.2930
C21 C 1.1848(2) -0.11115(11) 0.38386(11)
C22 C 1.1104(2) -0.02969(12) 0.38207(11)
N9 N 1.32876(17) 0.03221(10) 0.15551(10)
H25 H 1.2860 0.0747 0.1228
H26 H 1.3933 0.0546 0.1988
C23 C 1.4004(2) -0.02218(16) 0.11217(14)
C24 C 1.4073(2) -0.10845(15) 0.14450(14)
N10 N 1.26464(19) -0.14345(10) 0.13039(10)
H27 H 1.2667 -0.1957 0.1515
H28 H 1.2199 -0.1451 0.0767
H29 H 1.235(2) -0.1268(13) 0.4380(14)
H30 H 1.115(2) -0.1555(14) 0.3652(13)
H31 H 1.057(2) -0.0272(14) 0.4259(14)
H32 H 1.189(3) 0.0190(16) 0.3998(15)
H33 H 1.500(3) -0.0035(16) 0.1142(15)
H34 H 1.348(3) -0.0251(16) 0.0541(16)
H35 H 1.454(2) -0.1080(15) 0.2080(15)
H36 H 1.474(3) -0.1460(18) 0.1164(17)
N7? N 1.070(4) 0.0130(16) 0.3076(11)
H21? H 1.1029 0.0663 0.3154
H22? H 0.9723 0.0155 0.2920
N8? N 1.252(3) -0.1205(16) 0.3199(13)
H23? H 1.2516 -0.1757 0.3073
H24? H 1.3452 -0.1046 0.3383
loop_
_geom_bond_atom_site_label_1
_geom_bond_atom_site_label_2
_geom_bond_site_symmetry_1
_geom_bond_site_symmetry_2
Na1 N1 1_555 1_555
Na2 N5 1_555 1_555
N1 C1 1_555 1_555
C1 H1 1_555 1_555
C2 C1 1_555 1_555
H2 C2 1_555 1_555
C3 C2 1_555 1_555
C4 C3 1_555 1_555
H3 C4 1_555 1_555
C5 N1 1_555 1_555
H4 C5 1_555 1_555
N2 Na1 1_555 1_555
C6 N2 1_555 1_555
H5 C6 1_555 1_555
C7 C6 1_555 1_555
H6 C7 1_555 1_555
C8 C7 1_555 1_555
C9 C8 1_555 1_555
H7 C9 1_555 1_555
C10 N2 1_555 1_555
H8 C10 1_555 1_555
N3 Na1 1_555 1_555
C11 N3 1_555 1_555
H9 C11 1_555 1_555
C12 C11 1_555 1_555
H10 C12 1_555 1_555
C13 C12 1_555 1_555
C14 C13 1_555 1_555
H11 C14 1_555 1_555
C15 N3 1_555 1_555
H12 C15 1_555 1_555
N4 C16 1_555 1_555
C16 H13 1_555 1_555
C17 C16 1_555 1_555
H14 C17 1_555 1_555
C18 C3 1_555 1_555
C19 C18 1_555 1_555
H15 C19 1_555 1_555
C20 N4 1_555 1_555
H16 C20 1_555 1_555
N5 H17 1_555 1_555
H18 N5 1_555 1_555
N6 Na2 1_555 1_555
H19 N6 1_555 1_555
H20 N6 1_555 1_555
C21 N5 1_555 1_555
C22 N6 1_555 1_555
N9 Na2 1_555 1_555
H25 N9 1_555 1_555
H26 N9 1_555 1_555
C23 N9 1_555 1_555
C24 C23 1_555 1_555
N10 Na2 1_555 1_555
H27 N10 1_555 1_555
H28 N10 1_555 1_555
H29 C21 1_555 1_555
H30 C21 1_555 1_555
H31 C22 1_555 1_555
H32 C22 1_555 1_555
H33 C23 1_555 1_555
H34 C23 1_555 1_555
H35 C24 1_555 1_555
H36 C24 1_555 1_555
Na1C N1C 1_555 1_555
Na1C_2 N4 1_555 1_555
Na1B N2B 1_555 1_555
Na1B_2 N3B 1_555 1_555
N1C C1C 1_555 1_555
C1C H1C 1_555 1_555
C2C C1C 1_555 1_555
H2C C2C 1_555 1_555
C3C C2C 1_555 1_555
C4C C3C 1_555 1_555
H3C C4C 1_555 1_555
C5C N1C 1_555 1_555
H4C C5C 1_555 1_555
N2B C6B 1_555 1_555
N2C Na1C 1_555 1_555
C6B H5B 1_555 1_555
C7B C6B 1_555 1_555
H6B C7B 1_555 1_555
C8B C8 1_555 1_555
C9B C8B 1_555 1_555
H7B C9B 1_555 1_555
C10B N2B 1_555 1_555
H8B C10B 1_555 1_555
N3B C11B 1_555 1_555
N3C Na1C 1_555 1_555
C11B H9B 1_555 1_555
C12B C11B 1_555 1_555
H10B C12B 1_555 1_555
C13B C13 1_555 1_555
C14B C13B 1_555 1_555
H11B C14B 1_555 1_555
C15B N3B 1_555 1_555
H12B C15B 1_555 1_555
N4C Na1 1_555 1_555
N4_2 Na1C 1_555 1_555
C16C N4C 1_555 1_555
H13C C16C 1_555 1_555
C17C C16C 1_555 1_555
H14C C17C 1_555 1_555
C18C C3C 1_555 1_555
C19C C18C 1_555 1_555
H15C C19C 1_555 1_555
C20C N4C 1_555 1_555
H16C C20C 1_555 1_555
C4 C5 1_555 1_555
C9 C10 1_555 1_555
C14 C15 1_555 1_555
C17 C18 1_555 1_555
C19 C20 1_555 1_555
C21 C22 1_555 1_555
C24 N10 1_555 1_555
C4C C5C 1_555 1_555
C7B C8B 1_555 1_555
C9B C10B 1_555 1_555
C12B C13B 1_555 1_555
C14B C15B 1_555 1_555
C17C C18C 1_555 1_555
C19C C20C 1_555 1_555

#END
