
#######################################################################
#
#                 Cambridge Crystallographic Data Centre
#                                CCDC 
#
#######################################################################
#
# If this CIF has been generated from an entry in the Cambridge 
# Structural Database, then it will include bibliographic, chemical, 
# crystal, experimental, refinement or atomic coordinate data resulting 
# from the CCDC's data processing and validation procedures.
#
#######################################################################

data_UGAPIC
_symmetry_cell_setting           monoclinic
_symmetry_space_group_name_H-M   'C c'
_symmetry_Int_Tables_number      9
_space_group_name_Hall           'C -2yc'
loop_
_symmetry_equiv_pos_site_id
_symmetry_equiv_pos_as_xyz
1 x,y,z
2 x,-y,1/2+z
3 1/2+x,1/2+y,z
4 1/2+x,1/2-y,1/2+z
_cell_length_a                   27.3636(14)
_cell_length_b                   14.7274(7)
_cell_length_c                   17.3252(8)
_cell_angle_alpha                90
_cell_angle_beta                 118.276(2)
_cell_angle_gamma                90
_cell_volume                     6148.85
loop_
_atom_site_label
_atom_site_type_symbol
_atom_site_fract_x
_atom_site_fract_y
_atom_site_fract_z
B1 B 0.4804(8) 0.0757(12) 0.1302(12)
H1 H 0.4997 0.0171 0.1449
B2 B 0.1687(9) 0.5786(14) -0.0944(12)
H2 H 0.1489 0.5204 -0.1107
C1 C 0.4975(7) 0.0811(13) -0.0015(13)
H3 H 0.5115 0.0223 0.0068
C2 C 0.4903(7) 0.1332(15) -0.0661(11)
C3 C 0.4986(9) 0.1107(17) -0.1341(19)
C4 C 0.4731(8) 0.2219(14) -0.0473(13)
C5 C 0.4621(10) 0.3114(15) -0.0934(16)
C6 C 0.4972(12) 0.3167(17) -0.1471(19)
H4 H 0.4965 0.3778 -0.1670
H5 H 0.4810 0.2766 -0.1966
H6 H 0.5350 0.2990 -0.1093
C7 C 0.3985(9) 0.3153(10) -0.1511(12)
H7 H 0.3810 0.3094 -0.1147
H8 H 0.3868 0.2666 -0.1929
H9 H 0.3884 0.3723 -0.1814
C8 C 0.4841(10) 0.3832(14) -0.0205(16)
H10 H 0.4657 0.3768 0.0145
H11 H 0.4771 0.4427 -0.0462
H12 H 0.5233 0.3750 0.0158
C9 C 0.5427(7) 0.1205(9) 0.2805(10)
H13 H 0.5626 0.0665 0.2965
C10 C 0.5536(8) 0.1992(14) 0.3368(12)
C11 C 0.5944(9) 0.1913(14) 0.4279(14)
C12 C 0.5173(7) 0.2604(11) 0.2894(12)
C13 C 0.5083(7) 0.3587(11) 0.3088(12)
C14 C 0.5552(12) 0.3941(16) 0.3855(15)
H14 H 0.5889 0.3735 0.3869
H15 H 0.5540 0.3732 0.4370
H16 H 0.5541 0.4592 0.3839
C15 C 0.4490(7) 0.3697(12) 0.2922(12)
H17 H 0.4450 0.4276 0.3141
H18 H 0.4403 0.3222 0.3216
H19 H 0.4242 0.3665 0.2304
C16 C 0.5074(12) 0.4180(12) 0.2463(14)
H20 H 0.4894 0.4733 0.2480
H21 H 0.4874 0.3909 0.1893
H22 H 0.5447 0.4309 0.2583
C17 C 0.3898(7) -0.0189(11) 0.0771(10)
H23 H 0.4065 -0.0756 0.0845
C18 C 0.3315(7) 0.0006(12) 0.0443(11)
C19 C 0.2942(8) -0.0726(11) 0.0150(11)
C20 C 0.3254(7) 0.0933(12) 0.0444(11)
C21 C 0.2764(8) 0.1460(12) 0.0165(13)
C22 C 0.2283(9) 0.0887(13) 0.0147(18)
H24 H 0.1966 0.1269 -0.0006
H25 H 0.2398 0.0626 0.0715
H26 H 0.2187 0.0411 -0.0279
C23 C 0.2874(8) 0.2197(15) 0.0869(15)
H27 H 0.3209 0.2518 0.0997
H28 H 0.2912 0.1914 0.1394
H29 H 0.2569 0.2616 0.0653
C24 C 0.2653(10) 0.1957(17) -0.0622(18)
H30 H 0.2432 0.1589 -0.1126
H31 H 0.2997 0.2106 -0.0613
H32 H 0.2456 0.2505 -0.0649
C25 C 0.2528(8) 0.4831(12) -0.0491(12)
H33 H 0.2359 0.4264 -0.0590
C26 C 0.3064(8) 0.4955(11) -0.0143(11)
C27 C 0.3505(9) 0.4253(15) 0.0205(14)
C28 C 0.3112(7) 0.5938(11) -0.0141(10)
C29 C 0.3645(8) 0.6591(14) 0.0064(14)
C30 C 0.4156(9) 0.5972(15) 0.041(2)
H34 H 0.4085 0.5474 0.0018
H35 H 0.4235 0.5744 0.0980
H36 H 0.4469 0.6312 0.0464
C31 C 0.3767(8) 0.7055(13) 0.0977(12)
H37 H 0.4115 0.7371 0.1217
H38 H 0.3783 0.6595 0.1380
H39 H 0.3476 0.7477 0.0878
C32 C 0.3559(9) 0.7262(13) -0.0586(13)
H40 H 0.3469 0.6969 -0.1132
H41 H 0.3891 0.7615 -0.0401
H42 H 0.3259 0.7654 -0.0661
C33 C 0.0984(7) 0.6202(15) -0.2631(12)
H43 H 0.0813 0.5641 -0.2823
C34 C 0.0879(8) 0.6939(12) -0.3111(12)
C35 C 0.0429(9) 0.7004(14) -0.3966(14)
C36 C 0.1269(8) 0.7622(12) -0.2531(13)
C37 C 0.1363(9) 0.8553(13) -0.2743(12)
C38 C 0.0938(12) 0.8782(16) -0.3720(13)
H44 H 0.0977 0.9408 -0.3836
H45 H 0.0568 0.8675 -0.3817
H46 H 0.1011 0.8403 -0.4106
C39 C 0.1857(14) 0.8538(16) -0.290(2)
H47 H 0.2148 0.8186 -0.2451
H48 H 0.1985 0.9147 -0.2888
H49 H 0.1754 0.8271 -0.3462
C40 C 0.1318(7) 0.9222(12) -0.2015(12)
H50 H 0.1625 0.9106 -0.1445
H51 H 0.0977 0.9105 -0.2004
H52 H 0.1328 0.9845 -0.2171
C41 C 0.1444(8) 0.5760(14) 0.0356(11)
H53 H 0.1331 0.5161 0.0333
C42 C 0.1489(8) 0.6427(16) 0.0994(14)
C43 C 0.1401(9) 0.6205(14) 0.1699(12)
C44 C 0.1699(8) 0.7156(14) 0.0808(13)
C45 C 0.1852(9) 0.8068(16) 0.1273(15)
C46 C 0.1604(10) 0.8180(14) 0.1871(14)
H54 H 0.1725 0.7692 0.2289
H55 H 0.1207 0.8170 0.1535
H56 H 0.1721 0.8749 0.2174
C47 C 0.2490(9) 0.8117(19) 0.1834(16)
H57 H 0.2594 0.8707 0.2098
H58 H 0.2660 0.8013 0.1468
H59 H 0.2612 0.7662 0.2284
C48 C 0.1670(9) 0.8904(13) 0.0644(12)
H60 H 0.1766 0.9453 0.0983
H61 H 0.1276 0.8885 0.0269
H62 H 0.1856 0.8888 0.0293
Cu1 Cu 0.42099(7) 0.26000(15) 0.08399(10)
Cu2 Cu 0.22159(7) -0.24102(14) -0.05438(11)
N1 N 0.4832(5) 0.1212(11) 0.0481(8)
N2 N 0.4681(6) 0.2091(11) 0.0216(10)
N3 N 0.4983(11) 0.0970(17) -0.2027(16)
N4 N 0.5027(6) 0.1364(9) 0.2082(9)
N5 N 0.4855(6) 0.2261(9) 0.2074(11)
N6 N 0.6341(8) 0.1898(14) 0.4927(11)
N7 N 0.4142(6) 0.0619(9) 0.0942(9)
N8 N 0.3778(6) 0.1291(9) 0.0721(10)
N9 N 0.2653(6) -0.1343(10) -0.0085(10)
N10 N 0.2258(6) 0.5604(9) -0.0683(9)
N11 N 0.2636(6) 0.6326(10) -0.0475(9)
N12 N 0.3794(7) 0.3656(11) 0.0468(10)
N13 N 0.1412(5) 0.6415(10) -0.1754(9)
N14 N 0.1590(6) 0.7289(10) -0.1747(9)
N15 N 0.0089(9) 0.6964(16) -0.4703(13)
N16 N 0.1601(6) 0.6178(9) -0.0230(9)
N17 N 0.1779(6) 0.7046(10) 0.0068(9)
N18 N 0.1307(8) 0.5901(12) 0.2220(12)
Cu2_2 Cu 0.22159(7) 0.75898(14) -0.05438(11)
N11_2 N 0.2636(6) -0.3674(10) -0.0475(9)
N14_2 N 0.1590(6) -0.2711(10) -0.1747(9)
N17_2 N 0.1779(6) -0.2954(10) 0.0068(9)
C49 C 0.2856(8) 0.5351(13) 0.7097(11)
H63 H 0.2777 0.5327 0.6496
H64 H 0.2867 0.4745 0.7310
H65 H 0.3208 0.5639 0.7442
O1 O 0.2348(7) 0.5957(11) 0.7176(9)
H66 H 0.2323 0.5786 0.7606
loop_
_geom_bond_atom_site_label_1
_geom_bond_atom_site_label_2
_geom_bond_site_symmetry_1
_geom_bond_site_symmetry_2
B1 H1 1_555 1_555
B2 H2 1_555 1_555
C1 H3 1_555 1_555
C2 C1 1_555 1_555
C3 C2 1_555 1_555
C4 C2 1_555 1_555
C5 C4 1_555 1_555
C6 C5 1_555 1_555
H4 C6 1_555 1_555
H5 C6 1_555 1_555
H6 C6 1_555 1_555
C7 C5 1_555 1_555
H7 C7 1_555 1_555
H8 C7 1_555 1_555
H9 C7 1_555 1_555
C8 C5 1_555 1_555
H10 C8 1_555 1_555
H11 C8 1_555 1_555
H12 C8 1_555 1_555
C9 H13 1_555 1_555
C10 C9 1_555 1_555
C11 C10 1_555 1_555
C12 C10 1_555 1_555
C13 C12 1_555 1_555
C14 C13 1_555 1_555
H14 C14 1_555 1_555
H15 C14 1_555 1_555
H16 C14 1_555 1_555
C15 C13 1_555 1_555
H17 C15 1_555 1_555
H18 C15 1_555 1_555
H19 C15 1_555 1_555
C16 C13 1_555 1_555
H20 C16 1_555 1_555
H21 C16 1_555 1_555
H22 C16 1_555 1_555
C17 H23 1_555 1_555
C18 C17 1_555 1_555
C19 C18 1_555 1_555
C20 C18 1_555 1_555
C21 C20 1_555 1_555
C22 C21 1_555 1_555
H24 C22 1_555 1_555
H25 C22 1_555 1_555
H26 C22 1_555 1_555
C23 C21 1_555 1_555
H27 C23 1_555 1_555
H28 C23 1_555 1_555
H29 C23 1_555 1_555
C24 C21 1_555 1_555
H30 C24 1_555 1_555
H31 C24 1_555 1_555
H32 C24 1_555 1_555
C25 H33 1_555 1_555
C26 C25 1_555 1_555
C27 C26 1_555 1_555
C28 C26 1_555 1_555
C29 C28 1_555 1_555
C30 C29 1_555 1_555
H34 C30 1_555 1_555
H35 C30 1_555 1_555
H36 C30 1_555 1_555
C31 C29 1_555 1_555
H37 C31 1_555 1_555
H38 C31 1_555 1_555
H39 C31 1_555 1_555
C32 C29 1_555 1_555
H40 C32 1_555 1_555
H41 C32 1_555 1_555
H42 C32 1_555 1_555
C33 H43 1_555 1_555
C34 C33 1_555 1_555
C35 C34 1_555 1_555
C36 C34 1_555 1_555
C37 C36 1_555 1_555
C38 C37 1_555 1_555
H44 C38 1_555 1_555
H45 C38 1_555 1_555
H46 C38 1_555 1_555
C39 C37 1_555 1_555
H47 C39 1_555 1_555
H48 C39 1_555 1_555
H49 C39 1_555 1_555
C40 C37 1_555 1_555
H50 C40 1_555 1_555
H51 C40 1_555 1_555
H52 C40 1_555 1_555
C41 H53 1_555 1_555
C42 C41 1_555 1_555
C43 C42 1_555 1_555
C44 C42 1_555 1_555
C45 C44 1_555 1_555
C46 C45 1_555 1_555
H54 C46 1_555 1_555
H55 C46 1_555 1_555
H56 C46 1_555 1_555
C47 C45 1_555 1_555
H57 C47 1_555 1_555
H58 C47 1_555 1_555
H59 C47 1_555 1_555
C48 C45 1_555 1_555
H60 C48 1_555 1_555
H61 C48 1_555 1_555
H62 C48 1_555 1_555
C49 H63 1_555 1_555
H64 C49 1_555 1_555
H65 C49 1_555 1_555
Cu1 N2 1_555 1_555
Cu2 N9 1_555 1_555
N1 B1 1_555 1_555
N2 C4 1_555 1_555
N3 C3 1_555 1_555
N4 B1 1_555 1_555
N5 C12 1_555 1_555
N6 C11 1_555 1_555
N7 B1 1_555 1_555
N8 C20 1_555 1_555
N9 C19 1_555 1_555
N10 B2 1_555 1_555
N11 C28 1_555 1_555
N12 C27 1_555 1_555
N13 B2 1_555 1_555
N14 C36 1_555 1_555
N15 C35 1_555 1_555
N16 B2 1_555 1_555
N17 C44 1_555 1_555
N18 C43 1_555 1_555
O1 C49 1_555 1_555
H66 O1 1_555 1_555
Cu2_2 N11 1_555 1_555
N11_2 Cu2 1_555 1_555
N14_2 Cu2 1_555 1_555
N17_2 Cu2 1_555 1_555
C1 N1 1_555 1_555
C9 N4 1_555 1_555
C17 N7 1_555 1_555
C25 N10 1_555 1_555
C33 N13 1_555 1_555
C41 N16 1_555 1_555
Cu1 N5 1_555 1_555
Cu1 N8 1_555 1_555
Cu1 N12 1_555 1_555
N1 N2 1_555 1_555
N4 N5 1_555 1_555
N7 N8 1_555 1_555
N10 N11 1_555 1_555
N13 N14 1_555 1_555
N14 Cu2_2 1_555 1_555
N16 N17 1_555 1_555
N17 Cu2_2 1_555 1_555

#END
