
#######################################################################
#
#                 Cambridge Crystallographic Data Centre
#                                CCDC 
#
#######################################################################
#
# If this CIF has been generated from an entry in the Cambridge 
# Structural Database, then it will include bibliographic, chemical, 
# crystal, experimental, refinement or atomic coordinate data resulting 
# from the CCDC's data processing and validation procedures.
#
#######################################################################

data_UGAPEY
_symmetry_cell_setting           monoclinic
_symmetry_space_group_name_H-M   'C 2/c'
_symmetry_Int_Tables_number      15
_space_group_name_Hall           '-C 2yn'
loop_
_symmetry_equiv_pos_site_id
_symmetry_equiv_pos_as_xyz
1 x,y,z
2 1/2+x,1/2+y,z
3 -x,y,1/2-z
4 1/2-x,1/2+y,1/2-z
5 -x,-y,-z
6 1/2-x,1/2-y,-z
7 x,-y,1/2+z
8 1/2+x,1/2-y,1/2+z
_cell_length_a                   27.0860(13)
_cell_length_b                   14.6756(8)
_cell_length_c                   17.0389(9)
_cell_angle_alpha                90
_cell_angle_beta                 117.585(2)
_cell_angle_gamma                90
_cell_volume                     6003.09
loop_
_atom_site_label
_atom_site_type_symbol
_atom_site_fract_x
_atom_site_fract_y
_atom_site_fract_z
B1 B 0.40774(11) 0.42371(18) 0.36324(18)
H1 H 0.4275 0.4822 0.3787
C1 C 0.42775(10) 0.42263(18) 0.23021(17)
H2 H 0.4402 0.4825 0.2352
C2 C 0.42112(11) 0.36230(18) 0.16394(17)
C3 C 0.42855(12) 0.3851(2) 0.0890(2)
C4 C 0.40189(10) 0.28056(17) 0.18418(17)
C5 C 0.38782(12) 0.18925(19) 0.13654(18)
C6 C 0.41599(16) 0.1801(2) 0.0771(2)
H3 H 0.4016 0.2257 0.0316
H4 H 0.4086 0.1207 0.0505
H5 H 0.4555 0.1882 0.1120
C7 C 0.32430(13) 0.1837(2) 0.0797(2)
H6 H 0.3067 0.1875 0.1172
H7 H 0.3147 0.1269 0.0481
H8 H 0.3118 0.2332 0.0381
C8 C 0.40830(13) 0.11188(19) 0.2042(2)
H9 H 0.4480 0.1162 0.2395
H10 H 0.3990 0.0544 0.1739
H11 H 0.3908 0.1164 0.2418
C9 C 0.31883(10) 0.51893(16) 0.31453(16)
H12 H 0.3353 0.5762 0.3228
C10 C 0.26260(10) 0.50171(16) 0.28106(17)
C11 C 0.22225(11) 0.57246(17) 0.24848(17)
C12 C 0.25748(10) 0.40550(16) 0.28108(16)
C13 C 0.20632(10) 0.34608(17) 0.25325(19)
C14 C 0.15583(12) 0.4048(2) 0.2386(3)
H13 H 0.1648 0.4408 0.2905
H14 H 0.1247 0.3660 0.2274
H15 H 0.1464 0.4443 0.1888
C15 C 0.21574(12) 0.27669(19) 0.3258(2)
H16 H 0.2483 0.2411 0.3383
H17 H 0.1839 0.2372 0.3062
H18 H 0.2209 0.3081 0.3785
C16 C 0.19511(13) 0.2972(2) 0.1672(2)
H19 H 0.1892 0.3415 0.1222
H20 H 0.1625 0.2598 0.1483
H21 H 0.2265 0.2598 0.1771
C17 C 0.47316(10) 0.37897(17) 0.52435(16)
H22 H 0.4921 0.4341 0.5422
C18 C 0.48324(10) 0.30215(17) 0.57659(16)
C19 C 0.52633(11) 0.29896(19) 0.66551(19)
C20 C 0.44446(10) 0.23608(17) 0.52152(16)
C21 C 0.43442(11) 0.13831(17) 0.53901(17)
C22 C 0.47764(15) 0.1083(2) 0.6307(2)
H23 H 0.5141 0.1120 0.6346
H24 H 0.4703 0.0467 0.6409
H25 H 0.4758 0.1474 0.6745
C23 C 0.43835(14) 0.07684(19) 0.4695(2)
H26 H 0.4103 0.0942 0.4116
H27 H 0.4327 0.0146 0.4807
H28 H 0.4745 0.0833 0.4727
C24 C 0.37605(13) 0.1306(2) 0.5317(2)
H29 H 0.3742 0.1663 0.5774
H30 H 0.3683 0.0680 0.5381
H31 H 0.3490 0.1527 0.4748
Cu1 Cu 0.349437(12) 0.241444(19) 0.31952(2)
N1 N 0.41340(8) 0.38065(13) 0.28559(13)
N2 N 0.39637(8) 0.29332(13) 0.25751(13)
N3 N 0.43271(13) 0.4076(2) 0.0282(2)
N4 N 0.34530(8) 0.43985(13) 0.33278(13)
N5 N 0.30819(8) 0.36872(13) 0.31152(13)
N6 N 0.19350(9) 0.63430(14) 0.22250(14)
N7 N 0.43186(8) 0.36081(13) 0.44431(13)
N8 N 0.41349(8) 0.27295(13) 0.44175(13)
N9 N 0.56219(11) 0.3019(2) 0.73620(17)
Cu1C Cu 0.150563(12) 0.741444(19) 0.18048(2)
N6C N 0.30650(9) 0.13430(14) 0.27750(14)
C25 C 0.34205(16) 0.3974(3) 0.5484(3)
H32 H 0.3617 0.4400 0.5302
H33 H 0.3272 0.3493 0.5055
H34 H 0.3672 0.3722 0.6049
C26 C 0.2977(2) 0.4431(4) 0.5550(4)
N10 N 0.2631(3) 0.4803(5) 0.5616(5)
loop_
_geom_bond_atom_site_label_1
_geom_bond_atom_site_label_2
_geom_bond_site_symmetry_1
_geom_bond_site_symmetry_2
B1 H1 1_555 1_555
C1 H2 1_555 1_555
C2 C1 1_555 1_555
C3 C2 1_555 1_555
C4 C2 1_555 1_555
C5 C4 1_555 1_555
C6 C5 1_555 1_555
H3 C6 1_555 1_555
H4 C6 1_555 1_555
H5 C6 1_555 1_555
C7 C5 1_555 1_555
H6 C7 1_555 1_555
H7 C7 1_555 1_555
H8 C7 1_555 1_555
C8 C5 1_555 1_555
H9 C8 1_555 1_555
H10 C8 1_555 1_555
H11 C8 1_555 1_555
C9 H12 1_555 1_555
C10 C9 1_555 1_555
C11 C10 1_555 1_555
C12 C10 1_555 1_555
C13 C12 1_555 1_555
C14 C13 1_555 1_555
H13 C14 1_555 1_555
H14 C14 1_555 1_555
H15 C14 1_555 1_555
C15 C13 1_555 1_555
H16 C15 1_555 1_555
H17 C15 1_555 1_555
H18 C15 1_555 1_555
C16 C13 1_555 1_555
H19 C16 1_555 1_555
H20 C16 1_555 1_555
H21 C16 1_555 1_555
C17 H22 1_555 1_555
C18 C17 1_555 1_555
C19 C18 1_555 1_555
C20 C18 1_555 1_555
C21 C20 1_555 1_555
C22 C21 1_555 1_555
H23 C22 1_555 1_555
H24 C22 1_555 1_555
H25 C22 1_555 1_555
C23 C21 1_555 1_555
H26 C23 1_555 1_555
H27 C23 1_555 1_555
H28 C23 1_555 1_555
C24 C21 1_555 1_555
H29 C24 1_555 1_555
H30 C24 1_555 1_555
H31 C24 1_555 1_555
C25 H32 1_555 1_555
H33 C25 1_555 1_555
H34 C25 1_555 1_555
C26 C25 1_555 1_555
Cu1 N2 1_555 1_555
N1 B1 1_555 1_555
N2 C4 1_555 1_555
N3 C3 1_555 1_555
N4 B1 1_555 1_555
N5 C12 1_555 1_555
N6 C11 1_555 1_555
N7 B1 1_555 1_555
N8 C20 1_555 1_555
N9 C19 1_555 1_555
N10 C26 1_555 1_555
Cu1C N6 1_555 1_555
N6C Cu1 1_555 1_555
C1 N1 1_555 1_555
C9 N4 1_555 1_555
C17 N7 1_555 1_555
Cu1 N5 1_555 1_555
Cu1 N8 1_555 1_555
N1 N2 1_555 1_555
N4 N5 1_555 1_555
N7 N8 1_555 1_555

#END
