
#######################################################################
#
#                 Cambridge Crystallographic Data Centre
#                                CCDC 
#
#######################################################################
#
# If this CIF has been generated from an entry in the Cambridge 
# Structural Database, then it will include bibliographic, chemical, 
# crystal, experimental, refinement or atomic coordinate data resulting 
# from the CCDC's data processing and validation procedures.
#
#######################################################################

data_UGAREA
_symmetry_cell_setting           monoclinic
_symmetry_space_group_name_H-M   'C 2/c'
_symmetry_Int_Tables_number      15
_space_group_name_Hall           '-C 2yn'
loop_
_symmetry_equiv_pos_site_id
_symmetry_equiv_pos_as_xyz
1 x,y,z
2 -x,y,1/2-z
3 1/2+x,1/2+y,z
4 1/2-x,1/2+y,1/2-z
5 -x,-y,-z
6 x,-y,1/2+z
7 1/2-x,1/2-y,-z
8 1/2+x,1/2-y,1/2+z
_cell_length_a                   17.478(7)
_cell_length_b                   10.811(6)
_cell_length_c                   21.684(7)
_cell_angle_alpha                90
_cell_angle_beta                 103.985(14)
_cell_angle_gamma                90
_cell_volume                     3975.85
loop_
_atom_site_label
_atom_site_type_symbol
_atom_site_fract_x
_atom_site_fract_y
_atom_site_fract_z
Mn1 Mn 0.5000 0.25866(5) 0.2500
O1 O 0.67536(15) 0.2990(2) 0.66429(10)
O2 O 0.88501(13) 0.5410(2) 0.50203(11)
O3 O 0.43278(14) 0.3916(2) 0.29678(10)
H1 H 0.3967(17) 0.415(3) 0.2631(12)
H2 H 0.4530(19) 0.460(2) 0.3166(14)
O6 O 0.59246(12) 0.26540(17) 0.33335(9)
O7 O 0.66866(13) 0.42123(19) 0.31724(9)
N1 N 0.64428(14) 0.2078(2) 0.56698(10)
H7 H 0.6255 0.1393 0.5471
N2 N 0.77924(15) 0.5911(2) 0.54114(11)
H8 H 0.7596 0.6450 0.5636
N3 N 0.55998(15) -0.1039(2) 0.70912(11)
N4 N 0.98508(17) 0.9104(3) 0.63417(14)
C1 C 0.66603(17) 0.3017(2) 0.52919(13)
C2 C 0.70998(18) 0.4047(3) 0.55485(13)
H9 H 0.7244 0.4178 0.5995
C3 C 0.73218(17) 0.4877(2) 0.51379(13)
C4 C 0.71121(17) 0.4716(3) 0.44847(13)
H10 H 0.7271 0.5300 0.4212
C5 C 0.66681(16) 0.3695(2) 0.42353(13)
C6 C 0.64408(17) 0.2851(2) 0.46394(13)
H11 H 0.6132 0.2154 0.4467
C7 C 0.64895(18) 0.2111(3) 0.63003(14)
C8 C 0.5337(2) -0.0757(3) 0.64806(14)
H12 H 0.4944 -0.1268 0.6225
C9 C 0.56080(19) 0.0243(3) 0.61990(14)
H13 H 0.5403 0.0413 0.5760
C10 C 0.61804(18) 0.0990(3) 0.65649(13)
C11 C 0.6454(2) 0.0705(3) 0.71999(14)
H14 H 0.6844 0.1205 0.7467
C12 C 0.6154(2) -0.0316(3) 0.74424(15)
H15 H 0.6351 -0.0512 0.7879
C13 C 0.85248(19) 0.6086(3) 0.53360(14)
C14 C 0.9391(2) 0.8406(3) 0.66104(17)
H16 H 0.9373 0.8582 0.7036
C15 C 0.8941(2) 0.7447(3) 0.63013(15)
H17 H 0.8619 0.6977 0.6510
C16 C 0.89633(18) 0.7177(3) 0.56845(14)
C17 C 0.9432(2) 0.7892(3) 0.53984(16)
H18 H 0.9460 0.7733 0.4974
C18 C 0.9860(2) 0.8846(3) 0.57418(17)
H19 H 1.0178 0.9343 0.5541
C19 C 0.64121(17) 0.3509(3) 0.35260(13)
Mn1D Mn 0.5000 -0.25866(5) 0.7500
Mn1D_2 Mn 0.5000 -0.25866(5) -0.2500
O1A O 0.32464(15) 0.2990(2) -0.16429(10)
O2A O 0.11499(13) 0.5410(2) -0.00203(11)
O3A O 0.56722(14) 0.3916(2) 0.20322(10)
H1A H 0.6033(17) 0.415(3) 0.2369(12)
H2A H 0.5470(19) 0.460(2) 0.1834(14)
O6A O 0.40754(12) 0.26540(17) 0.16665(9)
O7A O 0.33134(13) 0.42123(19) 0.18276(9)
N1A N 0.35572(14) 0.2078(2) -0.06698(10)
H7A H 0.3745 0.1393 -0.0471
N2A N 0.22076(15) 0.5911(2) -0.04114(11)
H8A H 0.2404 0.6450 -0.0636
N3E N 0.55998(15) 0.1039(2) 0.20912(11)
N3D N 0.44002(15) 0.1039(2) 0.29088(11)
N3A N 0.44002(15) -0.1039(2) -0.20912(11)
N4A N 0.01492(17) 0.9104(3) -0.13417(14)
C1A C 0.33397(17) 0.3017(2) -0.02919(13)
C2A C 0.29002(18) 0.4047(3) -0.05485(13)
H9A H 0.2756 0.4178 -0.0995
C3A C 0.26782(17) 0.4877(2) -0.01379(13)
C4A C 0.28879(17) 0.4716(3) 0.05153(13)
H10A H 0.2729 0.5300 0.0788
C5A C 0.33319(16) 0.3695(2) 0.07647(13)
C6A C 0.35592(17) 0.2851(2) 0.03606(13)
H11A H 0.3868 0.2154 0.0533
C7A C 0.35105(18) 0.2111(3) -0.13003(14)
C8A C 0.4663(2) -0.0757(3) -0.14806(14)
H12A H 0.5056 -0.1268 -0.1225
C9A C 0.43920(19) 0.0243(3) -0.11990(14)
H13A H 0.4597 0.0413 -0.0760
C10A C 0.38196(18) 0.0990(3) -0.15649(13)
C11A C 0.3546(2) 0.0705(3) -0.21999(14)
H14A H 0.3156 0.1205 -0.2467
C12A C 0.3846(2) -0.0316(3) -0.24424(15)
H15A H 0.3649 -0.0512 -0.2879
C13A C 0.14752(19) 0.6086(3) -0.03360(14)
C14A C 0.0609(2) 0.8406(3) -0.16104(17)
H16A H 0.0627 0.8582 -0.2036
C15A C 0.1059(2) 0.7447(3) -0.13013(15)
H17A H 0.1381 0.6977 -0.1510
C16A C 0.10367(18) 0.7177(3) -0.06845(14)
C17A C 0.0568(2) 0.7892(3) -0.03984(16)
H18A H 0.0540 0.7733 0.0026
C18A C 0.0140(2) 0.8846(3) -0.07418(17)
H19A H -0.0178 0.9343 -0.0541
C19A C 0.35879(17) 0.3509(3) 0.14740(13)
O4 O 0.72778(19) 0.6464(2) 0.29256(12)
H3 H 0.708(2) 0.575(2) 0.3021(18)
H4 H 0.709(2) 0.658(4) 0.2505(10)
O5 O 0.6895(2) 0.6898(3) 0.62529(16)
H5 H 0.712(3) 0.757(3) 0.645(2)
H6 H 0.647(2) 0.665(4) 0.637(2)
loop_
_geom_bond_atom_site_label_1
_geom_bond_atom_site_label_2
_geom_bond_site_symmetry_1
_geom_bond_site_symmetry_2
Mn1 O3 1_555 1_555
O1 C7 1_555 1_555
O2 C13 1_555 1_555
O3 H1 1_555 1_555
H2 O3 1_555 1_555
O4 H3 1_555 1_555
H4 O4 1_555 1_555
O5 H5 1_555 1_555
H6 O5 1_555 1_555
O6 Mn1 1_555 1_555
O7 C19 1_555 1_555
N1 H7 1_555 1_555
N2 H8 1_555 1_555
N3 C8 1_555 1_555
N4 C14 1_555 1_555
C1 N1 1_555 1_555
C2 C1 1_555 1_555
H9 C2 1_555 1_555
C3 N2 1_555 1_555
C4 C3 1_555 1_555
H10 C4 1_555 1_555
C5 C4 1_555 1_555
C6 C1 1_555 1_555
H11 C6 1_555 1_555
C7 N1 1_555 1_555
C8 H12 1_555 1_555
C9 C8 1_555 1_555
H13 C9 1_555 1_555
C10 C7 1_555 1_555
C11 C10 1_555 1_555
H14 C11 1_555 1_555
C12 N3 1_555 1_555
H15 C12 1_555 1_555
C13 N2 1_555 1_555
C14 H16 1_555 1_555
C15 C14 1_555 1_555
H17 C15 1_555 1_555
C16 C13 1_555 1_555
C17 C16 1_555 1_555
H18 C17 1_555 1_555
C18 N4 1_555 1_555
H19 C18 1_555 1_555
C19 O6 1_555 1_555
Mn1D N3 1_555 1_555
Mn1D_2 N3A 1_555 1_555
O1A C7A 1_555 1_555
O2A C13A 1_555 1_555
O3A Mn1 1_555 1_555
H1A O3A 1_555 1_555
H2A O3A 1_555 1_555
O6A Mn1 1_555 1_555
O7A C19A 1_555 1_555
N1A H7A 1_555 1_555
N2A H8A 1_555 1_555
N3E Mn1 1_555 1_555
N3D Mn1 1_555 1_555
N3A C8A 1_555 1_555
N4A C14A 1_555 1_555
C1A N1A 1_555 1_555
C2A C1A 1_555 1_555
H9A C2A 1_555 1_555
C3A N2A 1_555 1_555
C4A C3A 1_555 1_555
H10A C4A 1_555 1_555
C5A C4A 1_555 1_555
C6A C1A 1_555 1_555
H11A C6A 1_555 1_555
C7A N1A 1_555 1_555
C8A H12A 1_555 1_555
C9A C8A 1_555 1_555
H13A C9A 1_555 1_555
C10A C7A 1_555 1_555
C11A C10A 1_555 1_555
H14A C11A 1_555 1_555
C12A N3A 1_555 1_555
H15A C12A 1_555 1_555
C13A N2A 1_555 1_555
C14A H16A 1_555 1_555
C15A C14A 1_555 1_555
H17A C15A 1_555 1_555
C16A C13A 1_555 1_555
C17A C16A 1_555 1_555
H18A C17A 1_555 1_555
C18A N4A 1_555 1_555
H19A C18A 1_555 1_555
C19A O6A 1_555 1_555
C2 C3 1_555 1_555
C5 C6 1_555 1_555
C5 C19 1_555 1_555
C9 C10 1_555 1_555
C11 C12 1_555 1_555
C15 C16 1_555 1_555
C17 C18 1_555 1_555
C2A C3A 1_555 1_555
C5A C6A 1_555 1_555
C5A C19A 1_555 1_555
C9A C10A 1_555 1_555
C11A C12A 1_555 1_555
C15A C16A 1_555 1_555
C17A C18A 1_555 1_555

#END
