
#######################################################################
#
#                 Cambridge Crystallographic Data Centre
#                                CCDC 
#
#######################################################################
#
# If this CIF has been generated from an entry in the Cambridge 
# Structural Database, then it will include bibliographic, chemical, 
# crystal, experimental, refinement or atomic coordinate data resulting 
# from the CCDC's data processing and validation procedures.
#
#######################################################################

data_UGAROK
_symmetry_cell_setting           monoclinic
_symmetry_space_group_name_H-M   'P 21/c'
_symmetry_Int_Tables_number      14
_space_group_name_Hall           '-P 2ybc'
loop_
_symmetry_equiv_pos_site_id
_symmetry_equiv_pos_as_xyz
1 x,y,z
2 -x,1/2+y,1/2-z
3 -x,-y,-z
4 x,1/2-y,1/2+z
_cell_length_a                   8.2204(3)
_cell_length_b                   14.1727(4)
_cell_length_c                   16.4045(6)
_cell_angle_alpha                90
_cell_angle_beta                 104.377(3)
_cell_angle_gamma                90
_cell_volume                     1851.36
loop_
_atom_site_label
_atom_site_type_symbol
_atom_site_fract_x
_atom_site_fract_y
_atom_site_fract_z
C1 C 0.1857(3) 0.37193(17) 0.51181(18)
H1 H 0.2444 0.4134 0.5525
C2 C 0.1019(4) 0.4075(2) 0.4356(2)
H2 H 0.1031 0.4718 0.4248
C3 C 0.0162(4) 0.3465(2) 0.3754(2)
H3 H -0.0429 0.3691 0.3231
C4 C 0.0182(4) 0.2516(2) 0.39284(19)
H4 H -0.0384 0.2095 0.3521
C5 C 0.1046(3) 0.21883(17) 0.47113(16)
C6 C 0.1132(3) 0.11558(17) 0.49038(17)
H5 H 0.0539 0.0814 0.4407
H6 H 0.0563 0.1035 0.5345
C7 C 0.2912(3) 0.07838(18) 0.51800(18)
H7 H 0.2895 0.0100 0.5198
H8 H 0.3539 0.0974 0.4778
C8 C 0.4283(3) 0.10176(16) 0.78171(17)
H9 H 0.3786 0.0607 0.7384
C9 C 0.4926(3) 0.06536(19) 0.86074(18)
H10 H 0.4866 0.0010 0.8705
C10 C 0.5657(4) 0.1251(2) 0.9248(2)
H11 H 0.6110 0.1022 0.9788
C11 C 0.5708(4) 0.2197(2) 0.90782(19)
H12 H 0.6194 0.2613 0.9508
C12 C 0.5042(3) 0.25390(17) 0.82728(17)
C13 C 0.5015(3) 0.35754(17) 0.80788(17)
H13 H 0.5628 0.3687 0.7653
H14 H 0.5579 0.3917 0.8582
C14 C 0.3246(3) 0.39487(17) 0.77686(18)
H15 H 0.2565 0.3739 0.8140
H16 H 0.3261 0.4633 0.7772
C15 C -0.3067(3) 0.27220(15) 0.63419(15)
C16 C -0.1343(3) 0.30539(15) 0.64973(14)
C17 C -0.0728(2) 0.20849(15) 0.65514(14)
C18 C -0.2455(3) 0.17468(15) 0.63664(15)
N1 N 0.1869(2) 0.27941(13) 0.53064(13)
N2 N 0.4341(2) 0.19429(13) 0.76427(12)
O1 O 0.3710(2) 0.11444(11) 0.59921(11)
H17 H 0.472(4) 0.113(2) 0.606(2)
O2 O 0.2539(2) 0.36161(11) 0.69370(11)
H18 H 0.149(4) 0.367(2) 0.686(2)
O3 O -0.44652(17) 0.31119(11) 0.62303(11)
O4 O -0.0645(2) 0.38506(11) 0.65670(14)
O5 O 0.06791(17) 0.16947(10) 0.67032(11)
O6 O -0.3137(2) 0.09508(11) 0.62642(15)
Cu1 Cu 0.31367(3) 0.237833(17) 0.646879(16)
O3_2 O 0.55348(17) 0.31119(11) 0.62303(11)
Cu1_2 Cu -0.68633(3) 0.237833(17) 0.646879(16)
O7 O 1.1076(3) -0.02912(15) 0.69278(16)
H19 H 1.076(5) 0.029(3) 0.686(3)
H20 H 1.110(5) -0.047(3) 0.744(3)
loop_
_geom_bond_atom_site_label_1
_geom_bond_atom_site_label_2
_geom_bond_site_symmetry_1
_geom_bond_site_symmetry_2
C1 H1 1_555 1_555
C2 C1 1_555 1_555
H2 C2 1_555 1_555
C3 C2 1_555 1_555
H3 C3 1_555 1_555
C4 C3 1_555 1_555
H4 C4 1_555 1_555
C5 C4 1_555 1_555
C6 C5 1_555 1_555
H5 C6 1_555 1_555
H6 C6 1_555 1_555
C7 C6 1_555 1_555
H7 C7 1_555 1_555
H8 C7 1_555 1_555
C8 H9 1_555 1_555
C9 C8 1_555 1_555
H10 C9 1_555 1_555
C10 C9 1_555 1_555
H11 C10 1_555 1_555
C11 C10 1_555 1_555
H12 C11 1_555 1_555
C12 C11 1_555 1_555
C13 C12 1_555 1_555
H13 C13 1_555 1_555
H14 C13 1_555 1_555
C14 C13 1_555 1_555
H15 C14 1_555 1_555
H16 C14 1_555 1_555
C15 C16 1_555 1_555
C16 C17 1_555 1_555
C17 C18 1_555 1_555
C18 C15 1_555 1_555
N1 C1 1_555 1_555
N2 C8 1_555 1_555
O1 C7 1_555 1_555
H17 O1 1_555 1_555
O2 C14 1_555 1_555
H18 O2 1_555 1_555
O3 C15 1_555 1_555
O4 C16 1_555 1_555
O5 C17 1_555 1_555
O6 C18 1_555 1_555
Cu1 N1 1_555 1_555
O7 H19 1_555 1_555
H20 O7 1_555 1_555
O3_2 Cu1 1_555 1_555
Cu1_2 O3 1_555 1_555
C5 N1 1_555 1_555
C12 N2 1_555 1_555
N2 Cu1 1_555 1_555
O1 Cu1 1_555 1_555
O2 Cu1 1_555 1_555
O5 Cu1 1_555 1_555

#END
