
#######################################################################
#
#                 Cambridge Crystallographic Data Centre
#                                CCDC 
#
#######################################################################
#
# If this CIF has been generated from an entry in the Cambridge 
# Structural Database, then it will include bibliographic, chemical, 
# crystal, experimental, refinement or atomic coordinate data resulting 
# from the CCDC's data processing and validation procedures.
#
#######################################################################

data_UGAREB
_symmetry_cell_setting           monoclinic
_symmetry_space_group_name_H-M   'P 21'
_symmetry_Int_Tables_number      4
_space_group_name_Hall           'P 2yb'
loop_
_symmetry_equiv_pos_site_id
_symmetry_equiv_pos_as_xyz
1 x,y,z
2 -x,1/2+y,-z
_cell_length_a                   8.4930(7)
_cell_length_b                   11.6279(9)
_cell_length_c                   12.5936(10)
_cell_angle_alpha                90
_cell_angle_beta                 96.8980(10)
_cell_angle_gamma                90
_cell_volume                     1234.69
loop_
_atom_site_label
_atom_site_type_symbol
_atom_site_fract_x
_atom_site_fract_y
_atom_site_fract_z
C1 C 0.1938(8) 0.3450(6) 0.1959(5)
H1 H 0.1082 0.3621 0.2328
C2 C 0.3238(8) 0.2167(7) 0.1045(5)
H2 H 0.3338 0.1430 0.0773
C3 C 0.4358(7) 0.2972(6) 0.0887(5)
C4 C 0.4202(7) 0.4048(5) 0.1323(5)
H3 H 0.4954 0.4611 0.1238
C5 C 0.5519(8) 0.2150(6) -0.0644(5)
H4 H 0.4575 0.1870 -0.1000
C6 C 0.7212(8) 0.3012(7) 0.0541(6)
H5 H 0.7663 0.3420 0.1136
C7 C 0.7970(8) 0.2583(7) -0.0242(5)
H6 H 0.9054 0.2646 -0.0279
C8 C 0.2980(8) 0.9007(6) 0.3022(6)
H7 H 0.3841 0.8840 0.2656
C9 C 0.0762(7) 0.8376(6) 0.3664(5)
H8 H 0.0037 0.7796 0.3758
C10 C 0.0543(7) 0.9454(6) 0.4072(4)
C11 C 0.1642(8) 1.0304(6) 0.3894(6)
H9 H 0.1504 1.1044 0.4147
C12 C -0.2316(8) 0.9411(8) 0.4368(6)
H10 H -0.2746 0.9000 0.3769
C13 C -0.0655(7) 1.0291(6) 0.5583(5)
H11 H 0.0278 1.0585 0.5944
C14 C -0.3096(8) 0.9852(7) 0.5150(5)
H12 H -0.4185 0.9798 0.5170
Cd1 Cd 0.25903(5) 0.6214(2) 0.25466(3)
N1 N 0.2985(6) 0.4295(5) 0.1869(4)
N2 N 0.2007(7) 0.2399(6) 0.1573(5)
N3 N 0.5632(6) 0.2731(5) 0.0295(4)
N4 N 0.6908(6) 0.2034(4) -0.0988(4)
N5 N 0.1994(6) 0.8147(5) 0.3136(4)
N6 N 0.2882(7) 1.0084(6) 0.3372(5)
N7 N -0.0758(6) 0.9700(5) 0.4646(4)
N8 N -0.2064(6) 1.0384(5) 0.5902(4)
N9 N -0.1170(5) 0.6088(11) 0.1533(4)
N10 N 0.6201(6) 0.6193(15) 0.3510(4)
O1 O -0.0017(7) 0.5699(5) 0.1962(5)
O2 O -0.1133(11) 0.7221(6) 0.1510(7)
O3 O -0.2368(7) 0.5702(7) 0.1174(6)
O4 O 0.5137(8) 0.7079(6) 0.3406(5)
O5 O 0.5788(14) 0.5411(9) 0.3244(9)
O6 O 0.7465(6) 0.6646(6) 0.3863(6)
Cd1A Cd -0.25903(5) 1.1214(2) 0.74534(3)
Cd1A_2 Cd 0.74097(5) 0.1214(2) -0.25466(3)
N4A N 0.3092(6) 0.7034(4) 0.0988(4)
N8A N 0.2064(6) 0.5384(5) 0.4098(4)
C15 C 0.7472(15) 0.0002(10) 0.1278(8)
C16 C 0.9127(12) 0.0005(10) 0.1106(8)
H13 H 0.9208 0.0046 0.0353
H14 H 0.9625 -0.0687 0.1394
H15 H 0.9646 0.0659 0.1458
N11 N 0.6149(13) -0.0015(11) 0.1399(8)
C17 C 0.2462(16) 0.7481(11) 0.6309(8)
C18 C 0.4130(12) 0.7470(12) 0.6176(9)
H16 H 0.4248 0.7399 0.5430
H17 H 0.4636 0.6830 0.6559
H18 H 0.4614 0.8173 0.6449
N12 N 0.1193(12) 0.7481(11) 0.6394(9)
loop_
_geom_bond_atom_site_label_1
_geom_bond_atom_site_label_2
_geom_bond_site_symmetry_1
_geom_bond_site_symmetry_2
C1 H1 1_555 1_555
C2 H2 1_555 1_555
C3 C2 1_555 1_555
C4 C3 1_555 1_555
H3 C4 1_555 1_555
C5 H4 1_555 1_555
C6 H5 1_555 1_555
C7 C6 1_555 1_555
H6 C7 1_555 1_555
C8 H7 1_555 1_555
C9 H8 1_555 1_555
C10 C9 1_555 1_555
C11 C10 1_555 1_555
H9 C11 1_555 1_555
C12 H10 1_555 1_555
C13 H11 1_555 1_555
C14 C12 1_555 1_555
H12 C14 1_555 1_555
Cd1 N1 1_555 1_555
N1 C1 1_555 1_555
N2 C1 1_555 1_555
N3 C3 1_555 1_555
N4 C5 1_555 1_555
N5 C8 1_555 1_555
N6 C8 1_555 1_555
N7 C10 1_555 1_555
N8 C13 1_555 1_555
N9 O1 1_555 1_555
N10 O4 1_555 1_555
O1 Cd1 1_555 1_555
O2 N9 1_555 1_555
O3 N9 1_555 1_555
O4 Cd1 1_555 1_555
O5 N10 1_555 1_555
O6 N10 1_555 1_555
C15 C16 1_555 1_555
C16 H13 1_555 1_555
H14 C16 1_555 1_555
H15 C16 1_555 1_555
N11 C15 1_555 1_555
C17 C18 1_555 1_555
C18 H16 1_555 1_555
H17 C18 1_555 1_555
H18 C18 1_555 1_555
N12 C17 1_555 1_555
Cd1A N8 1_555 1_555
Cd1A_2 N4 1_555 1_555
N4A Cd1 1_555 1_555
N8A Cd1 1_555 1_555
C2 N2 1_555 1_555
C4 N1 1_555 1_555
C5 N3 1_555 1_555
C6 N3 1_555 1_555
C7 N4 1_555 1_555
C9 N5 1_555 1_555
C11 N6 1_555 1_555
C12 N7 1_555 1_555
C13 N7 1_555 1_555
C14 N8 1_555 1_555
Cd1 N5 1_555 1_555

#END
