
#######################################################################
#
#                 Cambridge Crystallographic Data Centre
#                                CCDC 
#
#######################################################################
#
# If this CIF has been generated from an entry in the Cambridge 
# Structural Database, then it will include bibliographic, chemical, 
# crystal, experimental, refinement or atomic coordinate data resulting 
# from the CCDC's data processing and validation procedures.
#
#######################################################################

data_UGARID
_symmetry_cell_setting           orthorhombic
_symmetry_space_group_name_H-M   'P 21 21 21'
_symmetry_Int_Tables_number      19
_space_group_name_Hall           'P 2ac 2ab'
loop_
_symmetry_equiv_pos_site_id
_symmetry_equiv_pos_as_xyz
1 x,y,z
2 1/2-x,-y,1/2+z
3 -x,1/2+y,1/2-z
4 1/2+x,1/2-y,-z
_cell_length_a                   26.1445(14)
_cell_length_b                   6.7607(4)
_cell_length_c                   9.2496(5)
_cell_angle_alpha                90
_cell_angle_beta                 90
_cell_angle_gamma                90
_cell_volume                     1634.91
loop_
_atom_site_label
_atom_site_type_symbol
_atom_site_fract_x
_atom_site_fract_y
_atom_site_fract_z
Mo1 Mo 0.112945(10) 1.25088(17) 0.53461(3)
V1 V 0.139236(18) 0.7515(4) 0.41151(5)
O1 O 0.15297(9) 0.7451(16) 0.2426(2)
O2 O 0.1372(3) 1.0391(9) 0.4401(11)
O3 O 0.1364(3) 1.4642(8) 0.4408(10)
O4 O 0.13009(14) 1.2516(16) 0.7139(3)
O5 O 0.04663(10) 1.2536(17) 0.5286(3)
N1 N 0.05765(10) 0.7538(19) 0.4390(3)
N2 N 0.12505(10) 0.7560(19) 0.6455(3)
N3 N 0.21223(11) 0.7626(16) 0.5121(3)
C1 C 0.02464(14) 0.753(2) 0.3286(4)
H1 H 0.0374 0.7471 0.2349
C2 C -0.02810(15) 0.760(3) 0.3484(5)
H2 H -0.0499 0.7789 0.2702
C3 C -0.04725(15) 0.740(3) 0.4867(5)
H3 H -0.0821 0.7223 0.5017
C4 C -0.01391(13) 0.745(2) 0.6024(4)
H4 H -0.0263 0.7422 0.6966
C5 C 0.03822(12) 0.754(2) 0.5764(3)
C6 C 0.07722(12) 0.757(2) 0.6933(4)
C7 C 0.06654(13) 0.744(3) 0.8417(4)
H5 H 0.0332 0.7336 0.8757
C8 C 0.10781(13) 0.747(2) 0.9348(4)
H6 H 0.1020 0.7462 1.0340
C9 C 0.15778(13) 0.752(2) 0.8841(4)
H7 H 0.1854 0.7570 0.9476
C10 C 0.21514(12) 0.754(2) 0.6590(4)
C11 C 0.26209(14) 0.741(3) 0.7286(4)
H8 H 0.2636 0.7320 0.8288
C12 C 0.30676(14) 0.741(3) 0.6470(4)
H9 H 0.3385 0.7269 0.6915
C13 C 0.30332(15) 0.762(2) 0.4986(4)
H10 H 0.3324 0.7836 0.4428
C14 C 0.25554(12) 0.7512(18) 0.4353(4)
H11 H 0.2534 0.7351 0.3356
C15 C 0.16520(12) 0.751(2) 0.7354(3)
O3_2 O 0.1364(3) 0.4642(8) 0.4408(10)
V1_2 V 0.139236(18) 1.7515(4) 0.41151(5)
loop_
_geom_bond_atom_site_label_1
_geom_bond_atom_site_label_2
_geom_bond_site_symmetry_1
_geom_bond_site_symmetry_2
Mo1 O2 1_555 1_555
V1 O1 1_555 1_555
O2 V1 1_555 1_555
O3 Mo1 1_555 1_555
O4 Mo1 1_555 1_555
O5 Mo1 1_555 1_555
N1 V1 1_555 1_555
N2 V1 1_555 1_555
N3 V1 1_555 1_555
C1 N1 1_555 1_555
H1 C1 1_555 1_555
C2 C1 1_555 1_555
H2 C2 1_555 1_555
C3 C2 1_555 1_555
H3 C3 1_555 1_555
C4 C3 1_555 1_555
H4 C4 1_555 1_555
C5 N1 1_555 1_555
C6 N2 1_555 1_555
C7 C6 1_555 1_555
H5 C7 1_555 1_555
C8 C7 1_555 1_555
H6 C8 1_555 1_555
C9 C8 1_555 1_555
H7 C9 1_555 1_555
C10 N3 1_555 1_555
C11 C10 1_555 1_555
H8 C11 1_555 1_555
C12 C11 1_555 1_555
H9 C12 1_555 1_555
C13 C12 1_555 1_555
H10 C13 1_555 1_555
C14 N3 1_555 1_555
H11 C14 1_555 1_555
C15 N2 1_555 1_555
O3_2 V1 1_555 1_555
V1_2 O3 1_555 1_555
C4 C5 1_555 1_555
C5 C6 1_555 1_555
C9 C15 1_555 1_555
C10 C15 1_555 1_555
C13 C14 1_555 1_555

#END
