
#######################################################################
#
#                 Cambridge Crystallographic Data Centre
#                                CCDC 
#
#######################################################################
#
# If this CIF has been generated from an entry in the Cambridge 
# Structural Database, then it will include bibliographic, chemical, 
# crystal, experimental, refinement or atomic coordinate data resulting 
# from the CCDC's data processing and validation procedures.
#
#######################################################################

data_UGARUQ
_symmetry_cell_setting           monoclinic
_symmetry_space_group_name_H-M   'C 2/c'
_symmetry_Int_Tables_number      15
_space_group_name_Hall           '-C 2yn'
loop_
_symmetry_equiv_pos_site_id
_symmetry_equiv_pos_as_xyz
1 x,y,z
2 -x,y,1/2-z
3 1/2+x,1/2+y,z
4 1/2-x,1/2+y,1/2-z
5 -x,-y,-z
6 x,-y,1/2+z
7 1/2-x,1/2-y,-z
8 1/2+x,1/2-y,1/2+z
_cell_length_a                   9.164(3)
_cell_length_b                   14.082(5)
_cell_length_c                   13.641(4)
_cell_angle_alpha                90
_cell_angle_beta                 95.433(4)
_cell_angle_gamma                90
_cell_volume                     1752.43
loop_
_atom_site_label
_atom_site_type_symbol
_atom_site_fract_x
_atom_site_fract_y
_atom_site_fract_z
Mn1 Mn 0.5000 0.47486(3) 0.2500
F1 F 0.15802(12) 0.57412(8) 0.44178(9)
F2 F -0.02963(12) 0.69276(9) 0.51424(10)
O1 O 0.57629(14) 0.60347(10) 0.47005(9)
O2 O 0.41335(15) 0.58101(11) 0.34001(10)
O3 O 0.69911(14) 0.47861(10) 0.35318(10)
H1 H 0.6807 0.5144 0.3978
O4 O 0.60146(16) 0.36499(10) 0.16576(10)
H2 H 0.5998 0.3751 0.1065
C1 C 0.4566(2) 0.61777(13) 0.42065(13)
C2 C 0.35019(19) 0.68655(13) 0.46162(12)
C3 C 0.2054(2) 0.66141(13) 0.46920(13)
C4 C 0.10853(19) 0.72300(13) 0.50697(13)
C5 C 0.8424(2) 0.49843(19) 0.3256(2)
H3 H 0.8540 0.4696 0.2631
H4 H 0.9144 0.4732 0.3745
H5 H 0.8553 0.5659 0.3208
C6 C 0.6888(4) 0.2867(2) 0.1978(2)
H6 H 0.7014 0.2857 0.2685
H7 H 0.7828 0.2918 0.1727
H8 H 0.6417 0.2291 0.1742
Mn1F Mn 0.0000 1.02514(3) 0.7500
F1F F 0.34198(12) 0.92588(8) 0.55822(9)
F2F F 0.52963(12) 0.80724(9) 0.48576(10)
O1F O -0.07629(14) 0.89653(10) 0.52995(9)
O2F O 0.08665(15) 0.91899(11) 0.65999(10)
O2A O 0.58665(15) 0.58101(11) 0.15999(10)
O3A O 0.30089(14) 0.47861(10) 0.14682(10)
H1A H 0.3193 0.5144 0.1022
O4A O 0.39854(16) 0.36499(10) 0.33424(10)
H2A H 0.4002 0.3751 0.3935
C1F C 0.0434(2) 0.88223(13) 0.57935(13)
C2F C 0.14981(19) 0.81345(13) 0.53838(12)
C3F C 0.2946(2) 0.83859(13) 0.53080(13)
C4F C 0.39147(19) 0.77700(13) 0.49303(13)
C5A C 0.1576(2) 0.49843(19) 0.1744(2)
H3A H 0.1460 0.4696 0.2369
H4A H 0.0856 0.4732 0.1255
H5A H 0.1447 0.5659 0.1792
C6A C 0.3112(4) 0.2867(2) 0.3022(2)
H6A H 0.2986 0.2857 0.2315
H7A H 0.2172 0.2918 0.3273
H8A H 0.3583 0.2291 0.3258
loop_
_geom_bond_atom_site_label_1
_geom_bond_atom_site_label_2
_geom_bond_site_symmetry_1
_geom_bond_site_symmetry_2
Mn1 O2 1_555 1_555
F1 C3 1_555 1_555
F2 C4 1_555 1_555
O1 C1 1_555 1_555
O2 C1 1_555 1_555
O3 Mn1 1_555 1_555
H1 O3 1_555 1_555
O4 Mn1 1_555 1_555
H2 O4 1_555 1_555
C1 C2 1_555 1_555
C2 C3 1_555 1_555
C3 C4 1_555 1_555
C4 C2F 1_555 1_555
C5 O3 1_555 1_555
H3 C5 1_555 1_555
H4 C5 1_555 1_555
H5 C5 1_555 1_555
C6 O4 1_555 1_555
H6 C6 1_555 1_555
H7 C6 1_555 1_555
H8 C6 1_555 1_555
Mn1F O2F 1_555 1_555
F1F C3F 1_555 1_555
F2F C4F 1_555 1_555
O1F C1F 1_555 1_555
O2F C1F 1_555 1_555
O2A Mn1 1_555 1_555
O3A Mn1 1_555 1_555
H1A O3A 1_555 1_555
O4A Mn1 1_555 1_555
H2A O4A 1_555 1_555
C1F C2F 1_555 1_555
C2F C3F 1_555 1_555
C3F C4F 1_555 1_555
C4F C2 1_555 1_555
C5A O3A 1_555 1_555
H3A C5A 1_555 1_555
H4A C5A 1_555 1_555
H5A C5A 1_555 1_555
C6A O4A 1_555 1_555
H6A C6A 1_555 1_555
H7A C6A 1_555 1_555
H8A C6A 1_555 1_555

#END
