
#######################################################################
#
#                 Cambridge Crystallographic Data Centre
#                                CCDC 
#
#######################################################################
#
# If this CIF has been generated from an entry in the Cambridge 
# Structural Database, then it will include bibliographic, chemical, 
# crystal, experimental, refinement or atomic coordinate data resulting 
# from the CCDC's data processing and validation procedures.
#
#######################################################################

data_UGASAX
_symmetry_cell_setting           monoclinic
_symmetry_space_group_name_H-M   'P 21/c'
_symmetry_Int_Tables_number      14
_space_group_name_Hall           '-P 2ybc'
loop_
_symmetry_equiv_pos_site_id
_symmetry_equiv_pos_as_xyz
1 x,y,z
2 -x,1/2+y,1/2-z
3 -x,-y,-z
4 x,1/2-y,1/2+z
_cell_length_a                   9.652(5)
_cell_length_b                   10.024(3)
_cell_length_c                   8.865(4)
_cell_angle_alpha                90
_cell_angle_beta                 116.33(2)
_cell_angle_gamma                90
_cell_volume                     768.72
loop_
_atom_site_label
_atom_site_type_symbol
_atom_site_fract_x
_atom_site_fract_y
_atom_site_fract_z
Cd1 Cd 0.5000 0.5000 0.0000
N1 N 0.75336(13) 0.41504(12) 0.07287(16)
C1 C 0.78477(17) 0.30131(15) 0.01272(19)
C2 C 0.93523(19) 0.26849(18) 0.0447(2)
H1 H 0.9545 0.1923 -0.0029
C3 C 0.6535(2) 0.20524(19) -0.0810(2)
H2 H 0.6170 0.1717 -0.0023
H3 H 0.6948 0.1299 -0.1166
C4 C 1.0238(2) 0.4633(2) 0.2124(3)
H4 H 1.1033 0.5187 0.2834
C5 C 1.05577(19) 0.34957(19) 0.1473(2)
H5 H 1.1572 0.3275 0.1721
C6 C 0.8712(4) 0.49407(14) 0.1702(5)
H6 H 0.8496 0.5728 0.2112
C7 C 0.51748(17) 0.25763(13) -0.2314(2)
N2 N 0.45204(14) 0.19590(12) -0.37824(16)
N3 N 0.44171(13) 0.37014(11) -0.23457(14)
N4 N 0.33098(19) 0.27367(17) -0.4760(2)
N5 N 0.32378(14) 0.37705(13) -0.39098(15)
Cd1A Cd 0.5000 0.0000 -0.5000
Cd1A_2 Cd 0.5000 1.0000 0.5000
N1B N 0.24664(13) 0.58496(12) -0.07287(16)
C1B C 0.21523(17) 0.69869(15) -0.01272(19)
C2B C 0.06477(19) 0.73151(18) -0.0447(2)
H1B H 0.0455 0.8077 0.0029
C3B C 0.3465(2) 0.79476(19) 0.0810(2)
H2B H 0.3830 0.8283 0.0023
H3B H 0.3052 0.8701 0.1166
C4B C -0.0238(2) 0.5367(2) -0.2124(3)
H4B H -0.1033 0.4813 -0.2834
C5B C -0.05577(19) 0.65043(19) -0.1473(2)
H5B H -0.1572 0.6725 -0.1721
C6B C 0.1288(4) 0.50593(14) -0.1702(5)
H6B H 0.1504 0.4272 -0.2112
C7B C 0.48252(17) 0.74237(13) 0.2314(2)
N2B N 0.54796(14) 0.80410(12) 0.37824(16)
N2A N 0.54796(14) 0.69590(12) -0.12176(16)
N2C N 0.45204(14) 0.30410(12) 0.12176(16)
N3B N 0.55829(13) 0.62986(11) 0.23457(14)
N4B N 0.66902(19) 0.72633(17) 0.4760(2)
N5B N 0.67622(14) 0.62295(13) 0.39098(15)
loop_
_geom_bond_atom_site_label_1
_geom_bond_atom_site_label_2
_geom_bond_site_symmetry_1
_geom_bond_site_symmetry_2
Cd1 N1 1_555 1_555
N1 C1 1_555 1_555
C1 C2 1_555 1_555
C2 H1 1_555 1_555
C3 C1 1_555 1_555
H2 C3 1_555 1_555
H3 C3 1_555 1_555
C4 H4 1_555 1_555
C5 C2 1_555 1_555
H5 C5 1_555 1_555
C6 N1 1_555 1_555
H6 C6 1_555 1_555
C7 C3 1_555 1_555
N2 C7 1_555 1_555
N3 Cd1 1_555 1_555
N4 N2 1_555 1_555
N5 N3 1_555 1_555
Cd1A N2 1_555 1_555
Cd1A_2 N2B 1_555 1_555
N1B Cd1 1_555 1_555
C1B N1B 1_555 1_555
C2B C1B 1_555 1_555
H1B C2B 1_555 1_555
C3B C1B 1_555 1_555
H2B C3B 1_555 1_555
H3B C3B 1_555 1_555
C4B H4B 1_555 1_555
C5B C2B 1_555 1_555
H5B C5B 1_555 1_555
C6B N1B 1_555 1_555
H6B C6B 1_555 1_555
C7B C3B 1_555 1_555
N2B C7B 1_555 1_555
N2A Cd1 1_555 1_555
N2C Cd1 1_555 1_555
N3B Cd1 1_555 1_555
N4B N2B 1_555 1_555
N5B N3B 1_555 1_555
C4 C5 1_555 1_555
C4 C6 1_555 1_555
C7 N3 1_555 1_555
N4 N5 1_555 1_555
C4B C5B 1_555 1_555
C4B C6B 1_555 1_555
C7B N3B 1_555 1_555
N4B N5B 1_555 1_555

#END
