
#######################################################################
#
#                 Cambridge Crystallographic Data Centre
#                                CCDC 
#
#######################################################################
#
# If this CIF has been generated from an entry in the Cambridge 
# Structural Database, then it will include bibliographic, chemical, 
# crystal, experimental, refinement or atomic coordinate data resulting 
# from the CCDC's data processing and validation procedures.
#
#######################################################################

data_UGASEB
_symmetry_cell_setting           orthorhombic
_symmetry_space_group_name_H-M   'P b c n'
_symmetry_Int_Tables_number      60
_space_group_name_Hall           '-P 2n 2ab'
loop_
_symmetry_equiv_pos_site_id
_symmetry_equiv_pos_as_xyz
1 x,y,z
2 1/2-x,1/2-y,1/2+z
3 1/2+x,1/2-y,-z
4 -x,y,1/2-z
5 -x,-y,-z
6 1/2+x,1/2+y,1/2-z
7 1/2-x,1/2+y,z
8 x,-y,1/2+z
_cell_length_a                   9.096(8)
_cell_length_b                   8.681(7)
_cell_length_c                   18.801(16)
_cell_angle_alpha                90
_cell_angle_beta                 90
_cell_angle_gamma                90
_cell_volume                     1484.57
loop_
_atom_site_label
_atom_site_type_symbol
_atom_site_fract_x
_atom_site_fract_y
_atom_site_fract_z
Zn1 Zn 0.0000 -0.13301(3) 0.2500
N1 N 0.33516(15) 0.19756(17) 0.28300(8)
N2 N 0.23482(17) 0.24257(18) 0.33278(7)
N3 N 0.11895(16) -0.11824(17) 0.14294(8)
N4 N 0.12275(16) 0.14982(17) 0.33152(8)
N5 N 0.14705(15) 0.04036(16) 0.28159(8)
C1 C 0.2387(3) -0.0982(3) 0.00665(11)
H1 H 0.2810 -0.0924 -0.0401
C2 C 0.2764(2) 0.0723(2) 0.25271(8)
C3 C 0.2567(2) -0.0660(2) 0.13313(9)
C4 C 0.0420(2) -0.1578(3) 0.08457(11)
H2 H -0.0579 -0.1910 0.0907
C5 C 0.3187(2) -0.0543(3) 0.06593(11)
H3 H 0.4167 -0.0149 0.0605
C6 C 0.0975(3) -0.1511(3) 0.01610(11)
H4 H 0.0392 -0.1829 -0.0238
C7 C 0.34907(18) -0.0240(2) 0.19709(10)
H5 H 0.4355 0.0306 0.1804
H6 H 0.3825 -0.1186 0.2193
Zn1E Zn 0.5000 0.36699(3) 0.2500
Zn1E_2 Zn -0.5000 0.36699(3) 0.2500
N1F N 0.16484(15) -0.30244(17) 0.28300(8)
N1E N -0.16484(15) -0.30244(17) 0.21700(8)
N1C N -0.33516(15) 0.19756(17) 0.21700(8)
N2C N -0.23482(17) 0.24257(18) 0.16722(7)
N3C N -0.11895(16) -0.11824(17) 0.35706(8)
N4C N -0.12275(16) 0.14982(17) 0.16848(8)
N5C N -0.14705(15) 0.04036(16) 0.21841(8)
C1C C -0.2387(3) -0.0982(3) 0.49335(11)
H1C H -0.2810 -0.0924 0.5401
C2C C -0.2764(2) 0.0723(2) 0.24729(8)
C3C C -0.2567(2) -0.0660(2) 0.36687(9)
C4C C -0.0420(2) -0.1578(3) 0.41543(11)
H2C H 0.0579 -0.1910 0.4093
C5C C -0.3187(2) -0.0543(3) 0.43407(11)
H3C H -0.4167 -0.0149 0.4395
C6C C -0.0975(3) -0.1511(3) 0.48390(11)
H4C H -0.0392 -0.1829 0.5238
C7C C -0.34907(18) -0.0240(2) 0.30291(10)
H5C H -0.4355 0.0306 0.3196
H6C H -0.3825 -0.1186 0.2807
loop_
_geom_bond_atom_site_label_1
_geom_bond_atom_site_label_2
_geom_bond_site_symmetry_1
_geom_bond_site_symmetry_2
Zn1 N3 1_555 1_555
N1 N2 1_555 1_555
N2 N4 1_555 1_555
N3 C3 1_555 1_555
N4 N5 1_555 1_555
N5 Zn1 1_555 1_555
C1 H1 1_555 1_555
C2 N1 1_555 1_555
C3 C5 1_555 1_555
C4 N3 1_555 1_555
H2 C4 1_555 1_555
C5 C1 1_555 1_555
H3 C5 1_555 1_555
C6 C1 1_555 1_555
H4 C6 1_555 1_555
C7 C2 1_555 1_555
H5 C7 1_555 1_555
H6 C7 1_555 1_555
Zn1E N1 1_555 1_555
Zn1E_2 N1C 1_555 1_555
N1F Zn1 1_555 1_555
N1E Zn1 1_555 1_555
N1C N2C 1_555 1_555
N2C N4C 1_555 1_555
N3C Zn1 1_555 1_555
N4C N5C 1_555 1_555
N5C Zn1 1_555 1_555
C1C H1C 1_555 1_555
C2C N1C 1_555 1_555
C3C N3C 1_555 1_555
C4C N3C 1_555 1_555
H2C C4C 1_555 1_555
C5C C1C 1_555 1_555
H3C C5C 1_555 1_555
C6C C1C 1_555 1_555
H4C C6C 1_555 1_555
C7C C2C 1_555 1_555
H5C C7C 1_555 1_555
H6C C7C 1_555 1_555
N5 C2 1_555 1_555
C3 C7 1_555 1_555
C4 C6 1_555 1_555
N5C C2C 1_555 1_555
C3C C5C 1_555 1_555
C3C C7C 1_555 1_555
C4C C6C 1_555 1_555

#END
