
#######################################################################
#
#                 Cambridge Crystallographic Data Centre
#                                CCDC 
#
#######################################################################
#
# If this CIF has been generated from an entry in the Cambridge 
# Structural Database, then it will include bibliographic, chemical, 
# crystal, experimental, refinement or atomic coordinate data resulting 
# from the CCDC's data processing and validation procedures.
#
#######################################################################

data_UGATOM
_symmetry_cell_setting           monoclinic
_symmetry_space_group_name_H-M   'C 2/c'
_symmetry_Int_Tables_number      15
_space_group_name_Hall           '-C 2yn'
loop_
_symmetry_equiv_pos_site_id
_symmetry_equiv_pos_as_xyz
1 x,y,z
2 -x,y,1/2-z
3 1/2+x,1/2+y,z
4 1/2-x,1/2+y,1/2-z
5 -x,-y,-z
6 x,-y,1/2+z
7 1/2-x,1/2-y,-z
8 1/2+x,1/2-y,1/2+z
_cell_length_a                   23.559(5)
_cell_length_b                   9.925(2)
_cell_length_c                   17.774(4)
_cell_angle_alpha                90
_cell_angle_beta                 128.90(3)
_cell_angle_gamma                90
_cell_volume                     3234.36
loop_
_atom_site_label
_atom_site_type_symbol
_atom_site_fract_x
_atom_site_fract_y
_atom_site_fract_z
Zn1 Zn 0.056455(17) 0.25538(3) 0.20623(2)
O1 O 0.14486(15) 0.2636(3) 0.18582(18)
O2 O 0.13480(13) 0.1025(2) 0.25845(17)
C1 C 0.16203(15) 0.1497(3) 0.22216(19)
C2 C 0.21394(17) 0.0601(4) 0.2212(2)
H1 H 0.2200 -0.0236 0.2549
C3 C 0.17766(18) 0.0231(4) 0.1149(2)
H2 H 0.1687 0.1049 0.0791
H3 H 0.2110 -0.0323 0.1137
C4 C 0.10742(17) -0.0510(3) 0.0662(2)
H4 H 0.0748 0.0053 0.0684
H5 H 0.1171 -0.1314 0.1036
C5 C 0.06783(16) -0.0927(3) -0.03773(19)
O3 O 0.01838(12) -0.1793(2) -0.06992(14)
O4 O 0.08420(13) -0.0407(2) -0.08558(15)
C6 C 0.2867(2) 0.1200(5) 0.2721(3)
H6 H 0.3073 0.1397 0.3376
H7 H 0.2827 0.2017 0.2400
H8 H 0.3177 0.0577 0.2717
N1 N 0.01862(13) 0.4530(2) 0.15165(16)
N2 N 0.11837(13) 0.3784(2) 0.33640(16)
C7 C -0.03108(18) 0.4877(4) 0.0598(2)
H9 H -0.0566 0.4200 0.0138
C8 C -0.0467(2) 0.6206(4) 0.0294(3)
H10 H -0.0821 0.6407 -0.0358
C9 C -0.0103(3) 0.7205(4) 0.0946(4)
H11 H -0.0202 0.8098 0.0743
C10 C 0.0427(2) 0.6898(3) 0.1933(3)
C11 C 0.0823(3) 0.7875(4) 0.2680(4)
H12 H 0.0744 0.8785 0.2520
C12 C 0.1301(3) 0.7517(4) 0.3601(4)
H13 H 0.1543 0.8184 0.4072
C13 C 0.14569(19) 0.6118(4) 0.3894(3)
C14 C 0.1950(2) 0.5667(5) 0.4837(3)
H14 H 0.2205 0.6287 0.5341
C15 C 0.20663(19) 0.4326(6) 0.5035(3)
H15 H 0.2409 0.4026 0.5667
C16 C 0.16619(18) 0.3400(4) 0.4271(2)
H16 H 0.1734 0.2484 0.4411
C17 C 0.10781(16) 0.5129(3) 0.3168(2)
C18 C 0.05521(16) 0.5521(3) 0.2184(2)
O5 O 0.0000 0.1612(3) 0.2500
H17 H 0.029(2) 0.113(4) 0.304(3)
Zn1D Zn -0.056455(17) -0.25538(3) -0.20623(2)
Zn1A Zn -0.056455(17) 0.25538(3) 0.29377(2)
O1D O -0.14486(15) -0.2636(3) -0.18582(18)
O2D O -0.13480(13) -0.1025(2) -0.25845(17)
C1D C -0.16203(15) -0.1497(3) -0.22216(19)
C2D C -0.21394(17) -0.0601(4) -0.2212(2)
H1D H -0.2200 0.0236 -0.2549
C3D C -0.17766(18) -0.0231(4) -0.1149(2)
H2D H -0.1687 -0.1049 -0.0791
H3D H -0.2110 0.0323 -0.1137
C4D C -0.10742(17) 0.0510(3) -0.0662(2)
H4D H -0.0748 -0.0053 -0.0684
H5D H -0.1171 0.1314 -0.1036
C5D C -0.06783(16) 0.0927(3) 0.03773(19)
O3D O -0.01838(12) 0.1793(2) 0.06992(14)
O4D O -0.08420(13) 0.0407(2) 0.08558(15)
C6D C -0.2867(2) -0.1200(5) -0.2721(3)
H6D H -0.3073 -0.1397 -0.3376
H7D H -0.2827 -0.2017 -0.2400
H8D H -0.3177 -0.0577 -0.2717
N1D N -0.01862(13) -0.4530(2) -0.15165(16)
N2D N -0.11837(13) -0.3784(2) -0.33640(16)
C7D C 0.03108(18) -0.4877(4) -0.0598(2)
H9D H 0.0566 -0.4200 -0.0138
C8D C 0.0467(2) -0.6206(4) -0.0294(3)
H10D H 0.0821 -0.6407 0.0358
C9D C 0.0103(3) -0.7205(4) -0.0946(4)
H11D H 0.0202 -0.8098 -0.0743
C10D C -0.0427(2) -0.6898(3) -0.1933(3)
C11D C -0.0823(3) -0.7875(4) -0.2680(4)
H12D H -0.0744 -0.8785 -0.2520
C12D C -0.1301(3) -0.7517(4) -0.3601(4)
H13D H -0.1543 -0.8184 -0.4072
C13D C -0.14569(19) -0.6118(4) -0.3894(3)
C14D C -0.1950(2) -0.5667(5) -0.4837(3)
H14D H -0.2205 -0.6287 -0.5341
C15D C -0.20663(19) -0.4326(6) -0.5035(3)
H15D H -0.2409 -0.4026 -0.5667
C16D C -0.16619(18) -0.3400(4) -0.4271(2)
H16D H -0.1734 -0.2484 -0.4411
C17D C -0.10781(16) -0.5129(3) -0.3168(2)
C18D C -0.05521(16) -0.5521(3) -0.2184(2)
O5D O 0.0000 -0.1612(3) -0.2500
H17A H -0.029(2) 0.113(4) 0.196(3)
H17D H -0.029(2) -0.113(4) -0.304(3)
H17E H 0.029(2) -0.113(4) -0.196(3)
loop_
_geom_bond_atom_site_label_1
_geom_bond_atom_site_label_2
_geom_bond_site_symmetry_1
_geom_bond_site_symmetry_2
Zn1 O1 1_555 1_555
O1 C1 1_555 1_555
O2 Zn1 1_555 1_555
C1 O2 1_555 1_555
C2 C1 1_555 1_555
H1 C2 1_555 1_555
C3 C2 1_555 1_555
H2 C3 1_555 1_555
H3 C3 1_555 1_555
C4 C3 1_555 1_555
H4 C4 1_555 1_555
H5 C4 1_555 1_555
C5 C4 1_555 1_555
O3 C5 1_555 1_555
O4 C5 1_555 1_555
C6 C2 1_555 1_555
H6 C6 1_555 1_555
H7 C6 1_555 1_555
H8 C6 1_555 1_555
N1 Zn1 1_555 1_555
N2 Zn1 1_555 1_555
C7 N1 1_555 1_555
H9 C7 1_555 1_555
C8 C7 1_555 1_555
H10 C8 1_555 1_555
C9 C8 1_555 1_555
H11 C9 1_555 1_555
C10 C9 1_555 1_555
C11 C10 1_555 1_555
H12 C11 1_555 1_555
C12 C11 1_555 1_555
H13 C12 1_555 1_555
C13 C12 1_555 1_555
C14 C13 1_555 1_555
H14 C14 1_555 1_555
C15 C14 1_555 1_555
H15 C15 1_555 1_555
C16 N2 1_555 1_555
H16 C16 1_555 1_555
C17 N2 1_555 1_555
C18 N1 1_555 1_555
O5 Zn1 1_555 1_555
H17 O5 1_555 1_555
Zn1D O3 1_555 1_555
Zn1A O5 1_555 1_555
O1D Zn1D 1_555 1_555
O2D Zn1D 1_555 1_555
C1D O1D 1_555 1_555
C2D C1D 1_555 1_555
H1D C2D 1_555 1_555
C3D C2D 1_555 1_555
H2D C3D 1_555 1_555
H3D C3D 1_555 1_555
C4D C3D 1_555 1_555
H4D C4D 1_555 1_555
H5D C4D 1_555 1_555
C5D C4D 1_555 1_555
O3D Zn1 1_555 1_555
O4D C5D 1_555 1_555
C6D C2D 1_555 1_555
H6D C6D 1_555 1_555
H7D C6D 1_555 1_555
H8D C6D 1_555 1_555
N1D Zn1D 1_555 1_555
N2D Zn1D 1_555 1_555
C7D N1D 1_555 1_555
H9D C7D 1_555 1_555
C8D C7D 1_555 1_555
H10D C8D 1_555 1_555
C9D C8D 1_555 1_555
H11D C9D 1_555 1_555
C10D C9D 1_555 1_555
C11D C10D 1_555 1_555
H12D C11D 1_555 1_555
C12D C11D 1_555 1_555
H13D C12D 1_555 1_555
C13D C12D 1_555 1_555
C14D C13D 1_555 1_555
H14D C14D 1_555 1_555
C15D C14D 1_555 1_555
H15D C15D 1_555 1_555
C16D N2D 1_555 1_555
H16D C16D 1_555 1_555
C17D N2D 1_555 1_555
C18D N1D 1_555 1_555
O5D Zn1D 1_555 1_555
H17A O5 1_555 1_555
H17D O5D 1_555 1_555
H17E O5D 1_555 1_555
C10 C18 1_555 1_555
C13 C17 1_555 1_555
C15 C16 1_555 1_555
C17 C18 1_555 1_555
O2D C1D 1_555 1_555
C5D O3D 1_555 1_555
C10D C18D 1_555 1_555
C13D C17D 1_555 1_555
C15D C16D 1_555 1_555
C17D C18D 1_555 1_555

#END
