
#######################################################################
#
#                 Cambridge Crystallographic Data Centre
#                                CCDC 
#
#######################################################################
#
# If this CIF has been generated from an entry in the Cambridge 
# Structural Database, then it will include bibliographic, chemical, 
# crystal, experimental, refinement or atomic coordinate data resulting 
# from the CCDC's data processing and validation procedures.
#
#######################################################################

data_UGAVII
_symmetry_cell_setting           triclinic
_symmetry_space_group_name_H-M   'P -1'
_symmetry_Int_Tables_number      2
_space_group_name_Hall           '-P 1'
loop_
_symmetry_equiv_pos_site_id
_symmetry_equiv_pos_as_xyz
1 x,y,z
2 -x,-y,-z
_cell_length_a                   7.49440(10)
_cell_length_b                   8.49660(10)
_cell_length_c                   9.56550(10)
_cell_angle_alpha                77.4560(10)
_cell_angle_beta                 75.9420(10)
_cell_angle_gamma                69.6190(10)
_cell_volume                     547.95
loop_
_atom_site_label
_atom_site_type_symbol
_atom_site_fract_x
_atom_site_fract_y
_atom_site_fract_z
Tb1 Tb 0.327775(19) 0.131583(15) 0.299130(14)
O1 O 0.4404(3) 0.4179(3) -0.1420(2)
O2 O 0.4182(3) 0.2193(3) 0.0498(2)
N1 N 0.1489(3) 0.4353(3) 0.2078(3)
C1 C 0.3668(4) 0.3713(4) -0.0168(3)
C2 C 0.2027(4) 0.4977(4) 0.0688(3)
C3 C 0.1157(4) 0.6623(4) 0.0087(3)
H1 H 0.1564 0.7024 -0.0882
C4 C -0.0344(4) 0.7662(4) 0.0970(3)
H2 H -0.0976 0.8768 0.0589
C5 C -0.0896(4) 0.7055(3) 0.2409(3)
C6 C 0.0060(4) 0.5380(4) 0.2910(3)
H3 H -0.0317 0.4952 0.3876
O3 O -0.0114(3) 0.1677(3) 0.3565(2)
O4 O 0.3009(4) -0.0690(3) 0.1662(3)
O5 O 0.5348(4) 0.2874(4) 0.3036(4)
O6 O -0.3715(3) 0.9353(3) 0.2913(3)
O7 O -0.2341(4) 0.7710(3) 0.4759(2)
C7 C -0.2440(4) 0.8120(4) 0.3439(3)
C8 C -0.0750(4) 0.0773(3) 0.4642(3)
O8 O -0.2497(3) 0.0995(3) 0.5227(2)
H4 H 0.547(6) 0.370(5) 0.254(4)
H5 H 0.397(6) -0.094(5) 0.085(5)
H6 H 0.586(7) 0.251(6) 0.353(5)
H7 H 0.317(8) -0.147(6) 0.219(6)
Tb1_2 Tb -0.672225(19) 1.131583(15) 0.299130(14)
Tb1A Tb -0.327775(19) 0.868417(15) 0.700870(14)
Tb1A_2 Tb -0.327775(19) -0.131583(15) 0.700870(14)
Tb1A_3 Tb 0.672225(19) -1.131583(15) 0.700870(14)
Tb1_3 Tb 0.327775(19) -0.868417(15) 0.299130(14)
O1A O -0.4404(3) -0.4179(3) 1.1420(2)
O2A O -0.4182(3) -0.2193(3) 0.9502(2)
N1A N -0.1489(3) -0.4353(3) 0.7922(3)
C1A C -0.3668(4) -0.3713(4) 1.0168(3)
C2A C -0.2027(4) -0.4977(4) 0.9312(3)
C3A C -0.1157(4) -0.6623(4) 0.9913(3)
H1A H -0.1564 -0.7024 1.0882
C4A C 0.0344(4) -0.7662(4) 0.9030(3)
H2A H 0.0976 -0.8768 0.9411
C5A C 0.0896(4) -0.7055(3) 0.7591(3)
C6A C -0.0060(4) -0.5380(4) 0.7090(3)
H3A H 0.0317 -0.4952 0.6124
O3A O 0.0114(3) -0.1677(3) 0.6435(2)
O4A O -0.3009(4) 0.0690(3) 0.8338(3)
O5A O -0.5348(4) -0.2874(4) 0.6964(4)
O6_2 O 0.6285(3) -0.0647(3) 0.2913(3)
O6A O -0.6285(3) 0.0647(3) 0.7087(3)
O6A_2 O 0.3715(3) -0.9353(3) 0.7087(3)
O7A O 0.2341(4) 0.2290(3) 0.5241(2)
O7_2 O -0.2341(4) -0.2290(3) 0.4759(2)
O7A_2 O 0.2341(4) -0.7710(3) 0.5241(2)
C7A C 0.2440(4) -0.8120(4) 0.6561(3)
C8A C 0.0750(4) -0.0773(3) 0.5358(3)
O8A O 0.2497(3) -0.0995(3) 0.4773(2)
H4A H -0.547(6) -0.370(5) 0.746(4)
H5A H -0.397(6) 0.094(5) 0.915(5)
H6A H -0.586(7) -0.251(6) 0.647(5)
H7A H -0.317(8) 0.147(6) 0.781(6)
loop_
_geom_bond_atom_site_label_1
_geom_bond_atom_site_label_2
_geom_bond_site_symmetry_1
_geom_bond_site_symmetry_2
Tb1 O2 1_555 1_555
O1 C1 1_555 1_555
O2 C1 1_555 1_555
N1 Tb1 1_555 1_555
C1 C2 1_555 1_555
C2 N1 1_555 1_555
C3 C2 1_555 1_555
H1 C3 1_555 1_555
C4 C3 1_555 1_555
H2 C4 1_555 1_555
C5 C4 1_555 1_555
C6 N1 1_555 1_555
H3 C6 1_555 1_555
O3 Tb1 1_555 1_555
O4 Tb1 1_555 1_555
O5 Tb1 1_555 1_555
O6 C7 1_555 1_555
O7 C7 1_555 1_555
C7 C5 1_555 1_555
C8 O3 1_555 1_555
O8 C8 1_555 1_555
H4 O5 1_555 1_555
H5 O4 1_555 1_555
H6 O5 1_555 1_555
H7 O4 1_555 1_555
Tb1_2 O6 1_555 1_555
Tb1A O7 1_555 1_555
Tb1A_2 O8 1_555 1_555
Tb1A_3 O6A_2 1_555 1_555
Tb1_3 O7A_2 1_555 1_555
O1A C1A 1_555 1_555
O2A Tb1A_2 1_555 1_555
N1A Tb1A_2 1_555 1_555
C1A O2A 1_555 1_555
C2A N1A 1_555 1_555
C3A C2A 1_555 1_555
H1A C3A 1_555 1_555
C4A C3A 1_555 1_555
H2A C4A 1_555 1_555
C5A C4A 1_555 1_555
C6A N1A 1_555 1_555
H3A C6A 1_555 1_555
O3A Tb1A_2 1_555 1_555
O4A Tb1A_2 1_555 1_555
O5A Tb1A_2 1_555 1_555
O6_2 Tb1 1_555 1_555
O6A Tb1A_2 1_555 1_555
O6A_2 C7A 1_555 1_555
O7A Tb1 1_555 1_555
O7_2 Tb1A_2 1_555 1_555
O7A_2 C7A 1_555 1_555
C7A C5A 1_555 1_555
C8A C8 1_555 1_555
O8A Tb1 1_555 1_555
H4A O5A 1_555 1_555
H5A O4A 1_555 1_555
H6A O5A 1_555 1_555
H7A O4A 1_555 1_555
C5 C6 1_555 1_555
C1A C2A 1_555 1_555
C5A C6A 1_555 1_555
O3A C8A 1_555 1_555
C8A O8A 1_555 1_555

#END
