
#######################################################################
#
#                 Cambridge Crystallographic Data Centre
#                                CCDC 
#
#######################################################################
#
# If this CIF has been generated from an entry in the Cambridge 
# Structural Database, then it will include bibliographic, chemical, 
# crystal, experimental, refinement or atomic coordinate data resulting 
# from the CCDC's data processing and validation procedures.
#
#######################################################################

data_UGAVEE
_symmetry_cell_setting           monoclinic
_symmetry_space_group_name_H-M   'P 21/n'
_symmetry_Int_Tables_number      14
_space_group_name_Hall           '-P 2yn'
loop_
_symmetry_equiv_pos_site_id
_symmetry_equiv_pos_as_xyz
1 x,y,z
2 1/2-x,1/2+y,1/2-z
3 -x,-y,-z
4 1/2+x,1/2-y,1/2+z
_cell_length_a                   8.4052(17)
_cell_length_b                   19.788(4)
_cell_length_c                   11.992(2)
_cell_angle_alpha                90
_cell_angle_beta                 99.23(3)
_cell_angle_gamma                90
_cell_volume                     1968.71
loop_
_atom_site_label
_atom_site_type_symbol
_atom_site_fract_x
_atom_site_fract_y
_atom_site_fract_z
Cd1 Cd 0.80462(3) 0.163104(10) 0.156821(16)
O1 O 0.9202(3) 0.22824(14) 0.0292(2)
O2 O 1.0941(3) 0.21150(15) 0.1784(2)
C1 C 1.0575(4) 0.23638(15) 0.0831(2)
C2 C 1.1768(4) 0.27724(17) 0.0313(3)
H1 H 1.1701 0.2651 -0.0477
H2 H 1.2850 0.2671 0.0692
C3 C 1.1441(5) 0.35274(17) 0.0409(3)
H3 H 1.0350 0.3619 0.0038
H4 H 1.1500 0.3640 0.1201
C4 C 1.2566(5) 0.39791(17) -0.0088(3)
H5 H 1.3650 0.3901 0.0333
C5 C 1.2597(5) 0.37726(16) -0.1312(3)
O3 O 1.3859(3) 0.35210(12) -0.15321(18)
O4 O 1.1383(3) 0.38490(13) -0.2060(2)
C6 C 1.2212(6) 0.47058(19) 0.0009(4)
H6 H 1.2211 0.4818 0.0788
H7 H 1.1174 0.4805 -0.0421
H8 H 1.3021 0.4967 -0.0276
O5 O 0.6484(3) 0.25650(12) 0.1732(2)
H9 H 0.6376 0.2909 0.1411
H10 H 0.5777 0.2600 0.2105
N1 N 0.6411(3) 0.12422(12) -0.0080(2)
N2 N 0.8616(3) 0.04932(12) 0.1268(2)
C7 C 0.5407(4) 0.16479(17) -0.0755(3)
H11 H 0.5285 0.2091 -0.0527
C8 C 0.4550(4) 0.1440(2) -0.1765(3)
H12 H 0.3862 0.1735 -0.2215
C9 C 0.4736(5) 0.0787(2) -0.2093(3)
H13 H 0.4159 0.0629 -0.2769
C10 C 0.5780(4) 0.03655(18) -0.1421(3)
H14 H 0.5927 -0.0077 -0.1643
C11 C 0.6610(3) 0.06072(14) -0.0408(2)
C12 C 0.7773(3) 0.01827(14) 0.0366(2)
C13 C 0.7987(4) -0.04986(16) 0.0175(3)
H15 H 0.7416 -0.0708 -0.0460
C14 C 0.9052(5) -0.08610(17) 0.0934(3)
H16 H 0.9202 -0.1320 0.0816
C15 C 0.9892(4) -0.05498(18) 0.1861(3)
H17 H 1.0610 -0.0790 0.2385
C16 C 0.9645(4) 0.01319(17) 0.1997(3)
H18 H 1.0219 0.0349 0.2623
Cd1C Cd 1.30462(3) 0.336896(10) -0.343179(16)
O3C O 0.8859(3) 0.14790(12) 0.34679(18)
O4C O 0.6383(3) 0.11510(13) 0.2940(2)
O6 O 0.3053(4) 0.10440(15) 0.2927(3)
H19 H 0.4017 0.1076 0.2944
H20 H 0.2655 0.1376 0.2628
O7 O 0.1570(3) 0.15058(15) 0.5095(3)
H21 H 0.2065 0.1649 0.4632
H22 H 0.0702 0.1498 0.4669
O8 O 1.1123(3) -0.22652(14) 0.2081(2)
H23 H 1.1240 -0.2333 0.1438
H24 H 1.1978 -0.2401 0.2375
loop_
_geom_bond_atom_site_label_1
_geom_bond_atom_site_label_2
_geom_bond_site_symmetry_1
_geom_bond_site_symmetry_2
Cd1 O1 1_555 1_555
O1 C1 1_555 1_555
O2 Cd1 1_555 1_555
C1 O2 1_555 1_555
C2 C1 1_555 1_555
H1 C2 1_555 1_555
H2 C2 1_555 1_555
C3 C2 1_555 1_555
H3 C3 1_555 1_555
H4 C3 1_555 1_555
C4 C3 1_555 1_555
H5 C4 1_555 1_555
C5 C4 1_555 1_555
O3 C5 1_555 1_555
O4 C5 1_555 1_555
C6 C4 1_555 1_555
H6 C6 1_555 1_555
H7 C6 1_555 1_555
H8 C6 1_555 1_555
O5 Cd1 1_555 1_555
H9 O5 1_555 1_555
H10 O5 1_555 1_555
N1 Cd1 1_555 1_555
N2 Cd1 1_555 1_555
C7 N1 1_555 1_555
H11 C7 1_555 1_555
C8 C7 1_555 1_555
H12 C8 1_555 1_555
C9 C8 1_555 1_555
H13 C9 1_555 1_555
C10 C9 1_555 1_555
H14 C10 1_555 1_555
C11 N1 1_555 1_555
C12 N2 1_555 1_555
C13 C12 1_555 1_555
H15 C13 1_555 1_555
C14 C13 1_555 1_555
H16 C14 1_555 1_555
C15 C14 1_555 1_555
H17 C15 1_555 1_555
C16 N2 1_555 1_555
H18 C16 1_555 1_555
O6 H19 1_555 1_555
H20 O6 1_555 1_555
O7 H21 1_555 1_555
H22 O7 1_555 1_555
O8 H23 1_555 1_555
H24 O8 1_555 1_555
Cd1C O3 1_555 1_555
O3C Cd1 1_555 1_555
O4C Cd1 1_555 1_555
O4 Cd1C 1_555 1_555
C10 C11 1_555 1_555
C11 C12 1_555 1_555
C15 C16 1_555 1_555

#END
