
#######################################################################
#
#                 Cambridge Crystallographic Data Centre
#                                CCDC 
#
#######################################################################
#
# If this CIF has been generated from an entry in the Cambridge 
# Structural Database, then it will include bibliographic, chemical, 
# crystal, experimental, refinement or atomic coordinate data resulting 
# from the CCDC's data processing and validation procedures.
#
#######################################################################

data_UGAXAB
_symmetry_cell_setting           monoclinic
_symmetry_space_group_name_H-M   'P 21/n'
_symmetry_Int_Tables_number      14
_space_group_name_Hall           '-P 2yn'
loop_
_symmetry_equiv_pos_site_id
_symmetry_equiv_pos_as_xyz
1 x,y,z
2 1/2+x,1/2-y,1/2+z
3 -x,-y,-z
4 1/2-x,1/2+y,1/2-z
_cell_length_a                   7.4560(10)
_cell_length_b                   9.915(2)
_cell_length_c                   19.822(2)
_cell_angle_alpha                90
_cell_angle_beta                 98.940(10)
_cell_angle_gamma                90
_cell_volume                     1447.56
loop_
_atom_site_label
_atom_site_type_symbol
_atom_site_fract_x
_atom_site_fract_y
_atom_site_fract_z
Cd1 Cd 0.19641(4) 0.11118(3) 0.170395(15)
Ag1 Ag 0.59869(6) 0.38899(4) -0.03688(2)
S1 S 0.66285(16) 0.42809(15) 0.09521(6)
S2 S 0.40145(17) 0.06678(17) 0.42688(6)
S3 S 0.6094(2) -0.18715(18) 0.06576(10)
N1 N 0.4081(6) 0.2719(5) 0.1498(2)
N2 N 0.3429(6) 0.0986(5) 0.2857(2)
N3 N 0.3782(6) -0.0596(5) 0.1424(2)
N4 N -0.0306(5) -0.0338(4) 0.1981(2)
H1 H -0.0681 -0.0901 0.1631
H2 H 0.0121 -0.0833 0.2352
N5 N -0.0035(5) 0.2575(4) 0.21323(19)
H3 H 0.0587 0.3183 0.2414
H4 H -0.0716 0.3020 0.1788
N6 N 0.0804(6) 0.1519(5) 0.05236(19)
H5 H 0.0239 0.2322 0.0518
H6 H 0.1793 0.1659 0.0325
C1 C 0.5096(6) 0.3343(5) 0.1256(2)
C2 C 0.3634(6) 0.0883(5) 0.3433(2)
C3 C 0.4709(7) -0.1099(5) 0.1097(3)
C4 C -0.1826(7) 0.0528(7) 0.2120(3)
H7 H -0.2549 0.0787 0.1690
H8 H -0.2598 0.0014 0.2377
C5 C -0.1198(7) 0.1751(6) 0.2506(3)
H9 H -0.0523 0.1497 0.2946
H10 H -0.2240 0.2279 0.2586
C6 C -0.0393(8) 0.0682(5) 0.0039(3)
H11 H -0.0602 0.1127 -0.0402
H12 H -0.1556 0.0586 0.0196
C6B C 0.0393(8) -0.0682(5) -0.0039(3)
N6B N -0.0804(6) -0.1519(5) -0.05236(19)
H5B H -0.0239 -0.2322 -0.0518
H6B H -0.1793 -0.1659 -0.0325
H11B H 0.0602 -0.1127 0.0402
H12B H 0.1556 -0.0586 -0.0196
Cd1B Cd -0.19641(4) -0.11118(3) -0.170395(15)
Ag1B Ag 0.40131(6) 0.61101(4) 0.03688(2)
S1B S 0.33715(16) 0.57191(15) -0.09521(6)
N1B N 0.5919(6) 0.7281(5) -0.1498(2)
C1B C 0.4904(6) 0.6657(5) -0.1256(2)
S2A S 0.90145(17) 0.43322(17) -0.07312(6)
N2A N 0.8429(6) 0.4014(5) -0.2143(2)
C2A C 0.8634(6) 0.4117(5) -0.1567(2)
S3B S 0.3906(2) 0.18715(18) -0.06576(10)
N3B N 0.6218(6) 0.0596(5) -0.1424(2)
C3B C 0.5291(7) 0.1099(5) -0.1097(3)
N4B N 0.0306(5) 0.0338(4) -0.1981(2)
H1B H 0.0681 0.0901 -0.1631
H2B H -0.0121 0.0833 -0.2352
N5B N 0.0035(5) -0.2575(4) -0.21323(19)
H3B H -0.0587 -0.3183 -0.2414
H4B H 0.0716 -0.3020 -0.1788
C4B C 0.1826(7) -0.0528(7) -0.2120(3)
H7B H 0.2549 -0.0787 -0.1690
H8B H 0.2598 -0.0014 -0.2377
C5B C 0.1198(7) -0.1751(6) -0.2506(3)
H9B H 0.0523 -0.1497 -0.2946
H10B H 0.2240 -0.2279 -0.2586
Ag1A Ag 0.09869(6) 0.11101(4) 0.46312(2)
Ag1B_2 Ag 0.40131(6) -0.38899(4) 0.03688(2)
N1B_2 N -0.4081(6) -0.2719(5) -0.1498(2)
N2B N -0.3429(6) -0.0986(5) -0.2857(2)
N3B_2 N -0.3782(6) 0.0596(5) -0.1424(2)
S2C S 0.09855(17) 0.56678(17) 0.07312(6)
S3_2 S 0.6094(2) 0.81285(18) 0.06576(10)
Cd1B_2 Cd 0.80359(4) 0.88882(3) -0.170395(15)
Cd1A Cd 0.69641(4) 0.38882(3) -0.329605(15)
Cd1B_3 Cd 0.80359(4) -0.11118(3) -0.170395(15)
loop_
_geom_bond_atom_site_label_1
_geom_bond_atom_site_label_2
_geom_bond_site_symmetry_1
_geom_bond_site_symmetry_2
Cd1 N1 1_555 1_555
Ag1 S1 1_555 1_555
S1 C1 1_555 1_555
S2 C2 1_555 1_555
S3 C3 1_555 1_555
N1 C1 1_555 1_555
N2 Cd1 1_555 1_555
N3 Cd1 1_555 1_555
N4 Cd1 1_555 1_555
H1 N4 1_555 1_555
H2 N4 1_555 1_555
N5 Cd1 1_555 1_555
H3 N5 1_555 1_555
H4 N5 1_555 1_555
N6 Cd1 1_555 1_555
H5 N6 1_555 1_555
H6 N6 1_555 1_555
C2 N2 1_555 1_555
C3 N3 1_555 1_555
C4 N4 1_555 1_555
H7 C4 1_555 1_555
H8 C4 1_555 1_555
C5 N5 1_555 1_555
H9 C5 1_555 1_555
H10 C5 1_555 1_555
C6 N6 1_555 1_555
H11 C6 1_555 1_555
H12 C6 1_555 1_555
C6B C6 1_555 1_555
N6B C6B 1_555 1_555
H5B N6B 1_555 1_555
H6B N6B 1_555 1_555
H11B C6B 1_555 1_555
H12B C6B 1_555 1_555
Cd1B N6B 1_555 1_555
Ag1B S1 1_555 1_555
S1B Ag1 1_555 1_555
N1B C1B 1_555 1_555
C1B S1B 1_555 1_555
S2A Ag1 1_555 1_555
N2A C2A 1_555 1_555
C2A S2A 1_555 1_555
S3B Ag1 1_555 1_555
N3B C3B 1_555 1_555
C3B S3B 1_555 1_555
N4B Cd1B 1_555 1_555
H1B N4B 1_555 1_555
H2B N4B 1_555 1_555
N5B Cd1B 1_555 1_555
H3B N5B 1_555 1_555
H4B N5B 1_555 1_555
C4B N4B 1_555 1_555
H7B C4B 1_555 1_555
H8B C4B 1_555 1_555
C5B N5B 1_555 1_555
H9B C5B 1_555 1_555
H10B C5B 1_555 1_555
Ag1A S2 1_555 1_555
Ag1B_2 S3 1_555 1_555
N1B_2 Cd1B 1_555 1_555
N2B Cd1B 1_555 1_555
N3B_2 Cd1B 1_555 1_555
S2C Ag1B 1_555 1_555
S3_2 Ag1B 1_555 1_555
Cd1B_2 N1B 1_555 1_555
Cd1A N2A 1_555 1_555
Cd1B_3 N3B 1_555 1_555
C4 C5 1_555 1_555
Ag1B S1B 1_555 1_555
C4B C5B 1_555 1_555

#END
