
#######################################################################
#
#                 Cambridge Crystallographic Data Centre
#                                CCDC 
#
#######################################################################
#
# If this CIF has been generated from an entry in the Cambridge 
# Structural Database, then it will include bibliographic, chemical, 
# crystal, experimental, refinement or atomic coordinate data resulting 
# from the CCDC's data processing and validation procedures.
#
#######################################################################

data_UGAYAE
_symmetry_cell_setting           monoclinic
_symmetry_space_group_name_H-M   'C 2/c'
_symmetry_Int_Tables_number      15
_space_group_name_Hall           '-C 2yn'
loop_
_symmetry_equiv_pos_site_id
_symmetry_equiv_pos_as_xyz
1 x,y,z
2 -x,y,1/2-z
3 1/2+x,1/2+y,z
4 1/2-x,1/2+y,1/2-z
5 -x,-y,-z
6 x,-y,1/2+z
7 1/2-x,1/2-y,-z
8 1/2+x,1/2-y,1/2+z
_cell_length_a                   13.6480(10)
_cell_length_b                   9.8840(10)
_cell_length_c                   14.8590(10)
_cell_angle_alpha                90
_cell_angle_beta                 102.9510(10)
_cell_angle_gamma                90
_cell_volume                     1953.44
loop_
_atom_site_label
_atom_site_type_symbol
_atom_site_fract_x
_atom_site_fract_y
_atom_site_fract_z
C1 C 1.24942(17) 1.1154(2) 0.47701(15)
H1 H 1.2492 1.0242 0.4616
C2 C 1.16308(17) 1.1739(2) 0.49221(15)
H2 H 1.1049 1.1227 0.4868
C3 C 1.16349(16) 1.3100(2) 0.51573(14)
C4 C 0.99256(16) 1.3059(2) 0.53104(15)
H3 H 0.9768 1.2520 0.4751
H4 H 0.9377 1.3692 0.5288
C5 C 0.99888(14) 1.21321(19) 0.61352(13)
C6 C 0.83185(18) 0.9103(3) 0.81427(17)
H5 H 0.8057 0.9937 0.8261
C7 C 0.7829(2) 0.7924(5) 0.8310(2)
H6 H 0.7246 0.7976 0.8533
C8 C 0.8202(3) 0.6711(4) 0.8147(2)
H7 H 0.7869 0.5925 0.8251
C9 C 0.9581(4) 0.5387(3) 0.7655(3)
H8 H 0.9300 0.4564 0.7767
C10 C 0.9089(3) 0.6626(3) 0.78221(17)
C11 C 0.95412(18) 0.7860(2) 0.76643(14)
N1 N 0.91527(13) 0.90672(18) 0.78176(12)
O1 O 0.92531(10) 1.13673(15) 0.61269(10)
O2 O 1.07335(10) 1.21665(14) 0.67945(9)
O3 O 1.08188(12) 1.38012(16) 0.53237(11)
Zn1 Zn 1.0000 1.06978(3) 0.7500
C1F C 1.25058(17) 1.3846(2) 0.52299(15)
H1F H 1.2508 1.4758 0.5384
C2F C 1.33692(17) 1.3261(2) 0.50779(15)
H2F H 1.3951 1.3773 0.5132
C3F C 1.33651(16) 1.1900(2) 0.48427(14)
C4F C 1.50744(16) 1.1941(2) 0.46896(15)
H3F H 1.5232 1.2480 0.5249
H4F H 1.5623 1.1308 0.4712
C5F C 1.50112(14) 1.28679(19) 0.38648(13)
O1F O 1.57469(10) 1.36327(15) 0.38731(10)
O2F O 1.42665(10) 1.28335(14) 0.32055(9)
O3F O 1.41812(12) 1.11988(16) 0.46763(11)
C6A C 1.16815(18) 0.9103(3) 0.68573(17)
H5A H 1.1943 0.9937 0.6739
C7A C 1.2171(2) 0.7924(5) 0.6690(2)
H6A H 1.2754 0.7976 0.6467
C8A C 1.1798(3) 0.6711(4) 0.6853(2)
H7A H 1.2131 0.5925 0.6749
C9A C 1.0419(4) 0.5387(3) 0.7345(3)
H8A H 1.0700 0.4564 0.7233
C10A C 1.0911(3) 0.6626(3) 0.71779(17)
C11A C 1.04588(18) 0.7860(2) 0.73357(14)
N1A N 1.08473(13) 0.90672(18) 0.71824(12)
O1A O 1.07469(10) 1.13673(15) 0.88731(10)
O2A O 0.92665(10) 1.21665(14) 0.82055(9)
Zn1F Zn 1.5000 1.43022(3) 0.2500
loop_
_geom_bond_atom_site_label_1
_geom_bond_atom_site_label_2
_geom_bond_site_symmetry_1
_geom_bond_site_symmetry_2
C1 H1 1_555 1_555
C2 C1 1_555 1_555
H2 C2 1_555 1_555
C3 C2 1_555 1_555
C4 H3 1_555 1_555
H4 C4 1_555 1_555
C5 C4 1_555 1_555
C6 H5 1_555 1_555
C7 C6 1_555 1_555
H6 C7 1_555 1_555
C8 C7 1_555 1_555
H7 C8 1_555 1_555
C9 H8 1_555 1_555
C10 C8 1_555 1_555
C11 C10 1_555 1_555
N1 C6 1_555 1_555
O1 C5 1_555 1_555
O2 C5 1_555 1_555
O3 C3 1_555 1_555
Zn1 N1 1_555 1_555
C1F C3 1_555 1_555
H1F C1F 1_555 1_555
C2F C1F 1_555 1_555
H2F C2F 1_555 1_555
C3F C1 1_555 1_555
C4F H3F 1_555 1_555
H4F C4F 1_555 1_555
C5F C4F 1_555 1_555
O1F C5F 1_555 1_555
O2F C5F 1_555 1_555
O3F C3F 1_555 1_555
C6A H5A 1_555 1_555
C7A C6A 1_555 1_555
H6A C7A 1_555 1_555
C8A C7A 1_555 1_555
H7A C8A 1_555 1_555
C9A C9 1_555 1_555
H8A C9A 1_555 1_555
C10A C8A 1_555 1_555
C11A C11 1_555 1_555
N1A Zn1 1_555 1_555
O1A Zn1 1_555 1_555
O2A Zn1 1_555 1_555
Zn1F O1F 1_555 1_555
C4 O3 1_555 1_555
C9 C10 1_555 1_555
C11 N1 1_555 1_555
O1 Zn1 1_555 1_555
O2 Zn1 1_555 1_555
C2F C3F 1_555 1_555
C4F O3F 1_555 1_555
O2F Zn1F 1_555 1_555
C6A N1A 1_555 1_555
C9A C10A 1_555 1_555
C10A C11A 1_555 1_555
C11A N1A 1_555 1_555

#END
