
#######################################################################
#
#                 Cambridge Crystallographic Data Centre
#                                CCDC 
#
#######################################################################
#
# If this CIF has been generated from an entry in the Cambridge 
# Structural Database, then it will include bibliographic, chemical, 
# crystal, experimental, refinement or atomic coordinate data resulting 
# from the CCDC's data processing and validation procedures.
#
#######################################################################

data_UGAZOT
_symmetry_cell_setting           monoclinic
_symmetry_space_group_name_H-M   'P 21/c'
_symmetry_Int_Tables_number      14
_space_group_name_Hall           '-P 2ybc'
loop_
_symmetry_equiv_pos_site_id
_symmetry_equiv_pos_as_xyz
1 x,y,z
2 -x,1/2+y,1/2-z
3 -x,-y,-z
4 x,1/2-y,1/2+z
_cell_length_a                   12.3360(8)
_cell_length_b                   17.1360(12)
_cell_length_c                   11.6160(8)
_cell_angle_alpha                90
_cell_angle_beta                 92.8900(11)
_cell_angle_gamma                90
_cell_volume                     2452.38
loop_
_atom_site_label
_atom_site_type_symbol
_atom_site_fract_x
_atom_site_fract_y
_atom_site_fract_z
Zn1 Zn 0.25044(3) 1.02688(2) 0.25165(4)
O1 O 0.34276(17) 0.96948(12) 0.1285(2)
C1 C 0.1939(2) 0.97997(17) 0.7695(3)
C2 C 0.2801(3) 1.01709(19) 0.4663(3)
N1 N -0.0994(2) 0.95114(15) 0.8326(2)
O2 O 0.18879(18) 1.02581(13) 0.4140(2)
O3 O 0.36540(19) 1.01584(16) 0.4125(2)
N2 N 0.6837(2) 0.86292(16) -0.2188(3)
C3 C 0.0951(2) 0.95553(17) 0.8288(3)
O4 O 0.24475(19) 0.89551(15) 0.2360(2)
C4 C 0.4349(2) 0.83823(18) 0.0242(3)
H1 H 0.4478 0.8872 -0.0067
C5 C 0.3135(3) 0.9028(2) 0.1626(3)
C6 C 0.3657(2) 0.83218(18) 0.1136(3)
C7 C 0.4861(2) 0.77366(18) -0.0211(3)
C8 C 0.2852(2) 1.00770(17) 0.5941(3)
C9 C 0.1915(2) 0.99090(17) 0.6515(3)
H2 H 0.1257 0.9869 0.6092
C10 C 0.5640(2) 0.78160(18) -0.1137(3)
C11 C 0.2925(2) 0.99075(18) 0.8321(3)
H3 H 0.2954 0.9866 0.9120
C12 C 0.3838(2) 1.01487(17) 0.6577(3)
H4 H 0.4474 1.0245 0.6205
C13 C 0.1014(3) 0.91309(19) 0.9306(3)
H5 H 0.1689 0.8997 0.9640
C14 C 0.3864(3) 1.00771(18) 0.7754(3)
H6 H 0.4517 1.0143 0.8179
C15 C -0.0084(2) 0.97410(18) 0.7834(3)
H7 H -0.0147 1.0036 0.7163
C16 C 0.0090(3) 0.89071(19) 0.9823(3)
H8 H 0.0130 0.8624 1.0507
C17 C -0.0899(3) 0.9110(2) 0.9308(3)
H9 H -0.1527 0.8962 0.9660
C18 C 0.3448(3) 0.7590(2) 0.1594(4)
H10 H 0.2974 0.7539 0.2187
C19 C 0.6132(2) 0.85199(18) -0.1372(3)
H11 H 0.5958 0.8949 -0.0926
C20 C 0.4642(3) 0.7011(2) 0.0278(4)
H12 H 0.4973 0.6566 0.0001
C21 C 0.7101(3) 0.8012(2) -0.2818(4)
H13 H 0.7605 0.8073 -0.3381
C22 C 0.6655(4) 0.7298(2) -0.2658(4)
H14 H 0.6849 0.6878 -0.3113
C23 C 0.5917(3) 0.7196(2) -0.1824(4)
H15 H 0.5603 0.6709 -0.1722
C24 C 0.3947(4) 0.6943(2) 0.1161(4)
H16 H 0.3812 0.6454 0.1470
Zn1B Zn -0.25044(3) 0.97312(2) 0.74835(4)
Zn1B_2 Zn 0.74956(3) 0.97312(2) -0.25165(4)
N1B N 0.0994(2) 1.04886(15) 0.1674(2)
N2B N 0.3163(2) 1.13708(16) 0.2188(3)
N3 N 1.0192(4) 0.8057(2) 0.3945(4)
O5 O 0.9480(3) 0.7839(3) 0.2169(3)
C25 C 1.0232(5) 0.7899(4) 0.2858(5)
H17 H 1.0919 0.7825 0.2581
C26 C 1.1218(6) 0.8107(4) 0.4657(6)
H18 H 1.1230 0.7708 0.5237
H19 H 1.1269 0.8610 0.5020
H20 H 1.1821 0.8036 0.4176
C27 C 0.9183(7) 0.8171(4) 0.4469(6)
H21 H 0.8604 0.8177 0.3885
H22 H 0.9198 0.8660 0.4874
H23 H 0.9068 0.7754 0.5001
loop_
_geom_bond_atom_site_label_1
_geom_bond_atom_site_label_2
_geom_bond_site_symmetry_1
_geom_bond_site_symmetry_2
Zn1 O1 1_555 1_555
O1 C5 1_555 1_555
C1 C3 1_555 1_555
C2 O2 1_555 1_555
N1 C15 1_555 1_555
O2 Zn1 1_555 1_555
O3 Zn1 1_555 1_555
N2 C19 1_555 1_555
C3 C13 1_555 1_555
O4 Zn1 1_555 1_555
C4 H1 1_555 1_555
C5 O4 1_555 1_555
C6 C4 1_555 1_555
C7 C4 1_555 1_555
C8 C2 1_555 1_555
C9 C1 1_555 1_555
H2 C9 1_555 1_555
C10 C7 1_555 1_555
C11 C1 1_555 1_555
H3 C11 1_555 1_555
C12 C8 1_555 1_555
H4 C12 1_555 1_555
C13 H5 1_555 1_555
C14 C11 1_555 1_555
H6 C14 1_555 1_555
C15 C3 1_555 1_555
H7 C15 1_555 1_555
C16 C13 1_555 1_555
H8 C16 1_555 1_555
C17 N1 1_555 1_555
H9 C17 1_555 1_555
C18 C6 1_555 1_555
H10 C18 1_555 1_555
C19 C10 1_555 1_555
H11 C19 1_555 1_555
C20 C7 1_555 1_555
H12 C20 1_555 1_555
C21 N2 1_555 1_555
H13 C21 1_555 1_555
C22 C21 1_555 1_555
H14 C22 1_555 1_555
C23 C10 1_555 1_555
H15 C23 1_555 1_555
C24 C18 1_555 1_555
H16 C24 1_555 1_555
N3 C25 1_555 1_555
O5 C25 1_555 1_555
C25 H17 1_555 1_555
C26 N3 1_555 1_555
H18 C26 1_555 1_555
H19 C26 1_555 1_555
H20 C26 1_555 1_555
C27 N3 1_555 1_555
H21 C27 1_555 1_555
H22 C27 1_555 1_555
H23 C27 1_555 1_555
Zn1B N1 1_555 1_555
Zn1B_2 N2 1_555 1_555
N1B Zn1 1_555 1_555
N2B Zn1 1_555 1_555
C2 O3 1_555 1_555
C5 C6 1_555 1_555
C8 C9 1_555 1_555
C12 C14 1_555 1_555
C16 C17 1_555 1_555
C20 C24 1_555 1_555
C22 C23 1_555 1_555

#END
