
#######################################################################
#
#                 Cambridge Crystallographic Data Centre
#                                CCDC 
#
#######################################################################
#
# If this CIF has been generated from an entry in the Cambridge 
# Structural Database, then it will include bibliographic, chemical, 
# crystal, experimental, refinement or atomic coordinate data resulting 
# from the CCDC's data processing and validation procedures.
#
#######################################################################

data_UGEBEN
_symmetry_cell_setting           monoclinic
_symmetry_space_group_name_H-M   'P 21/n'
_symmetry_Int_Tables_number      14
_space_group_name_Hall           '-P 2yn'
loop_
_symmetry_equiv_pos_site_id
_symmetry_equiv_pos_as_xyz
1 x,y,z
2 1/2+x,1/2-y,1/2+z
3 -x,-y,-z
4 1/2-x,1/2+y,1/2-z
_cell_length_a                   13.323(4)
_cell_length_b                   23.217(3)
_cell_length_c                   17.528(5)
_cell_angle_alpha                90
_cell_angle_beta                 94.42(3)
_cell_angle_gamma                90
_cell_volume                     5405.64
loop_
_atom_site_label
_atom_site_type_symbol
_atom_site_fract_x
_atom_site_fract_y
_atom_site_fract_z
Ni1 Ni 0.52960(8) 0.76643(6) 0.04599(7)
Ni2 Ni 0.43791(9) 0.75685(5) -0.07596(7)
Ni3 Ni 0.34613(8) 0.74636(6) -0.19745(6)
N1 N 0.6374(5) 0.8021(3) -0.0180(4)
N2 N 0.5602(5) 0.7567(3) -0.1236(4)
N3 N 0.4805(5) 0.7112(3) -0.2291(4)
N4 N 0.5821(5) 0.6859(3) 0.0211(4)
N5 N 0.4463(5) 0.6766(3) -0.0662(4)
N6 N 0.3053(5) 0.6681(3) -0.1528(4)
N7 N 0.4593(5) 0.8458(3) 0.0453(4)
N8 N 0.4320(5) 0.8366(4) -0.0858(4)
N9 N 0.4045(6) 0.8273(4) -0.2162(4)
N10 N 0.4029(5) 0.7290(3) 0.0862(4)
N11 N 0.3165(5) 0.7563(3) -0.0289(4)
N12 N 0.2318(5) 0.7853(3) -0.1414(4)
N13 N 0.6020(5) 0.7764(4) 0.1513(4)
N14 N 0.6855(6) 0.7694(4) 0.1737(4)
N15 N 0.7721(6) 0.7640(4) 0.1980(5)
C1 C 0.7040(8) 0.8408(5) 0.0128(6)
C2 C 0.7738(8) 0.8672(5) -0.0269(7)
C3 C 0.7724(9) 0.8579(6) -0.1042(7)
C4 C 0.7047(8) 0.8197(5) -0.1383(6)
C5 C 0.6378(6) 0.7924(4) -0.0946(5)
C6 C 0.5683(7) 0.7240(4) -0.1889(5)
C7 C 0.6599(7) 0.7020(5) -0.2119(6)
C8 C 0.6602(9) 0.6683(6) -0.2759(7)
C9 C 0.5707(9) 0.6547(5) -0.3156(7)
C10 C 0.4856(8) 0.6760(5) -0.2907(6)
C11 C 0.6677(7) 0.6625(5) 0.0544(6)
C12 C 0.7046(8) 0.6105(5) 0.0403(7)
C13 C 0.6476(8) 0.5749(5) -0.0124(7)
C14 C 0.5631(8) 0.5959(4) -0.0476(6)
C15 C 0.5306(7) 0.6507(4) -0.0302(5)
C16 C 0.3617(7) 0.6437(4) -0.0935(5)
C17 C 0.3329(7) 0.5935(4) -0.0592(6)
C18 C 0.2458(8) 0.5666(5) -0.0863(7)
C19 C 0.1866(8) 0.5911(5) -0.1465(7)
C20 C 0.2184(7) 0.6410(4) -0.1773(6)
C21 C 0.4458(8) 0.8747(5) 0.1104(7)
C22 C 0.3945(10) 0.9255(6) 0.1150(7)
C23 C 0.3567(10) 0.9503(5) 0.0454(8)
C24 C 0.3672(9) 0.9221(5) -0.0209(7)
C25 C 0.4192(7) 0.8698(4) -0.0217(6)
C26 C 0.4375(7) 0.8610(4) -0.1575(6)
C27 C 0.4782(9) 0.9154(5) -0.1711(7)
C28 C 0.4861(10) 0.9340(5) -0.2442(7)
C29 C 0.4589(9) 0.8980(6) -0.3044(7)
C30 C 0.4176(8) 0.8453(5) -0.2886(6)
C31 C 0.4053(8) 0.7005(5) 0.1523(6)
C32 C 0.3257(9) 0.6730(6) 0.1801(7)
C33 C 0.2368(9) 0.6743(6) 0.1358(7)
C34 C 0.2304(7) 0.7017(5) 0.0666(6)
C35 C 0.3137(7) 0.7299(4) 0.0417(5)
C36 C 0.2325(7) 0.7832(4) -0.0645(5)
C37 C 0.1573(7) 0.8098(5) -0.0259(6)
C38 C 0.0804(8) 0.8371(5) -0.0668(7)
C39 C 0.0826(8) 0.8414(5) -0.1449(7)
C40 C 0.1587(8) 0.8154(5) -0.1812(6)
H1 H 0.703 0.849 0.067
H2 H 0.823 0.894 -0.001
H3 H 0.819 0.879 -0.134
H4 H 0.705 0.811 -0.193
H5 H 0.724 0.710 -0.183
H6 H 0.723 0.655 -0.295
H7 H 0.568 0.630 -0.361
H8 H 0.421 0.666 -0.318
H9 H 0.707 0.687 0.092
H10 H 0.768 0.597 0.065
H11 H 0.669 0.536 -0.023
H12 H 0.525 0.573 -0.085
H13 H 0.374 0.577 -0.018
H14 H 0.224 0.529 -0.065
H15 H 0.124 0.573 -0.167
H16 H 0.175 0.659 -0.217
H17 H 0.476 0.857 0.158
H18 H 0.384 0.943 0.165
H19 H 0.321 0.987 0.046
H20 H 0.340 0.939 -0.069
H21 H 0.499 0.941 -0.129
H22 H 0.510 0.972 -0.255
H23 H 0.467 0.909 -0.358
H24 H 0.398 0.818 -0.332
H25 H 0.468 0.701 0.183
H26 H 0.331 0.652 0.229
H27 H 0.176 0.657 0.154
H28 H 0.168 0.701 0.035
H29 H 0.160 0.809 0.030
H30 H 0.023 0.853 -0.042
H31 H 0.033 0.865 -0.174
H32 H 0.159 0.819 -0.238
Ni3A Ni 0.84613(8) 0.75364(6) 0.30255(6)
N13A N 0.1020(5) 0.7236(4) -0.3487(4)
N14A N 0.1855(6) 0.7306(4) -0.3263(4)
N15A N 0.2721(6) 0.7360(4) -0.3020(5)
N1A N 1.1374(5) 0.6979(3) 0.4820(4)
N2A N 1.0602(5) 0.7433(3) 0.3764(4)
N3A N 0.9805(5) 0.7888(3) 0.2709(4)
C1A C 1.2040(8) 0.6592(5) 0.5128(6)
C2A C 1.2738(8) 0.6328(5) 0.4731(7)
C3A C 1.2724(9) 0.6421(6) 0.3958(7)
C4A C 1.2047(8) 0.6803(5) 0.3617(6)
C5A C 1.1378(6) 0.7076(4) 0.4054(5)
C6A C 1.0683(7) 0.7760(4) 0.3111(5)
C7A C 1.1599(7) 0.7980(5) 0.2881(6)
C8A C 1.1602(9) 0.8317(6) 0.2241(7)
C9A C 1.0707(9) 0.8453(5) 0.1844(7)
C10A C 0.9856(8) 0.8240(5) 0.2093(6)
H1A H 1.203 0.651 0.567
H2A H 1.323 0.606 0.499
H3A H 1.319 0.621 0.366
H4A H 1.205 0.689 0.307
H5A H 1.224 0.790 0.317
H6A H 1.223 0.845 0.205
H7A H 1.068 0.870 0.139
H8A H 0.921 0.834 0.182
N4A N 1.0821(5) 0.8141(3) 0.5211(4)
N5A N 0.9463(5) 0.8234(3) 0.4338(4)
N6A N 0.8053(5) 0.8319(3) 0.3472(4)
C11A C 1.1677(7) 0.8375(5) 0.5544(6)
C12A C 1.2046(8) 0.8895(5) 0.5403(7)
C13A C 1.1476(8) 0.9251(5) 0.4876(7)
C14A C 1.0631(8) 0.9041(4) 0.4524(6)
C15A C 1.0306(7) 0.8493(4) 0.4698(5)
C16A C 0.8617(7) 0.8563(4) 0.4065(5)
C17A C 0.8329(7) 0.9065(4) 0.4408(6)
C18A C 0.7458(8) 0.9334(5) 0.4137(7)
C19A C 0.6866(8) 0.9089(5) 0.3535(7)
C20A C 0.7184(7) 0.8590(4) 0.3227(6)
H9A H 1.207 0.813 0.592
H10A H 1.268 0.903 0.565
H11A H 1.169 0.964 0.477
H12A H 1.025 0.927 0.415
H13A H 0.874 0.923 0.482
H14A H 0.724 0.971 0.435
H15A H 0.624 0.927 0.333
H16A H 0.675 0.841 0.283
N7A N 0.9593(5) 0.6542(3) 0.5453(4)
N8A N 0.9320(5) 0.6634(4) 0.4142(4)
N9A N 0.9045(6) 0.6727(4) 0.2838(4)
C21A C 0.9458(8) 0.6253(5) 0.6104(7)
C22A C 0.8945(10) 0.5745(6) 0.6150(7)
C23A C 0.8567(10) 0.5497(5) 0.5454(8)
C24A C 0.8672(9) 0.5779(5) 0.4791(7)
C25A C 0.9192(7) 0.6302(4) 0.4783(6)
C26A C 0.9375(7) 0.6390(4) 0.3425(6)
C27A C 0.9782(9) 0.5846(5) 0.3289(7)
C28A C 0.9861(10) 0.5660(5) 0.2558(7)
C29A C 0.9589(9) 0.6020(6) 0.1956(7)
C30A C 0.9176(8) 0.6547(5) 0.2114(6)
H17A H 0.976 0.643 0.658
H18A H 0.884 0.557 0.665
H19A H 0.821 0.513 0.546
H20A H 0.840 0.561 0.431
H21A H 0.999 0.559 0.371
H22A H 1.010 0.528 0.245
H23A H 0.967 0.591 0.142
H24A H 0.898 0.682 0.168
N10A N 0.9029(5) 0.7710(3) 0.5862(4)
N11A N 0.8165(5) 0.7437(3) 0.4711(4)
N12A N 0.7318(5) 0.7147(3) 0.3586(4)
C31A C 0.9053(8) 0.7995(5) 0.6523(6)
C32A C 0.8257(9) 0.8270(6) 0.6801(7)
C33A C 0.7368(9) 0.8257(6) 0.6358(7)
C34A C 0.7304(7) 0.7983(5) 0.5666(6)
C35A C 0.8137(7) 0.7701(4) 0.5417(5)
C36A C 0.7325(7) 0.7168(4) 0.4355(5)
C37A C 0.6573(7) 0.6902(5) 0.4741(6)
C38A C 0.5804(8) 0.6629(5) 0.4332(7)
C39A C 0.5826(8) 0.6586(5) 0.3551(7)
C40A C 0.6587(8) 0.6846(5) 0.3188(6)
H25A H 0.968 0.799 0.683
H26A H 0.831 0.848 0.729
H27A H 0.676 0.843 0.654
H28A H 0.668 0.799 0.535
H29A H 0.660 0.691 0.530
H30A H 0.523 0.647 0.458
H31A H 0.533 0.635 0.326
H32A H 0.659 0.681 0.262
Ni1A Ni 1.02960(8) 0.73357(6) 0.54599(7)
Ni2A Ni 0.93791(9) 0.74315(5) 0.42404(7)
Ni1A_2 Ni 0.02960(8) 0.73357(6) -0.45401(7)
N13A_2 N 1.1020(5) 0.7236(4) 0.6513(4)
P1 P 0.00000 0.50000 0.00000
F1 F 0.1004(6) 0.4678(3) -0.0067(5)
F2 F -0.0018(7) 0.4835(3) 0.0873(5)
F3 F -0.0586(6) 0.4424(3) -0.0225(5)
F1B F -0.1004(6) 0.5322(3) 0.0067(5)
F2B F 0.0018(7) 0.5165(3) -0.0873(5)
F3B F 0.0586(6) 0.5576(3) 0.0225(5)
P2 P 0.00000 0.00000 1.00000
F4 F 0.1098(6) -0.0183(4) 0.9900(6)
F5 F -0.0365(7) -0.0373(3) 0.9273(5)
F6 F 0.0147(6) 0.0540(3) 0.9490(5)
F4B F -0.1098(6) 0.0183(4) 1.0100(6)
F5B F 0.0365(7) 0.0373(3) 1.0727(5)
F6B F -0.0147(6) -0.0540(3) 1.0510(5)
C41 C 0.0605(15) 0.3351(8) 0.0807(11)
Cl1 Cl 0.0596(4) 0.3135(3) 0.1711(3)
Cl2 Cl 0.0861(5) 0.2873(3) 0.0153(4)
H33 H -0.006 0.354 0.066
H34 H 0.108 0.369 0.080
C42 C 0.8377(21) 0.9888(11) 0.2015(14)
Cl3 Cl 0.7945(6) 1.0404(3) 0.2557(4)
Cl4 Cl 0.7238(6) 0.9535(3) 0.1554(3)
H35 H 0.891 1.001 0.168
H36 H 0.883 0.959 0.237
C43 C 0.3255(22) 0.5004(10) 0.2729(13)
Cl5 Cl 0.4325(9) 0.5283(4) 0.1834(6)
Cl6 Cl 0.2464(7) 0.5012(6) 0.2099(7)
H37 H 0.307 0.531 0.320
H38 H 0.331 0.466 0.309
loop_
_geom_bond_atom_site_label_1
_geom_bond_atom_site_label_2
_geom_bond_site_symmetry_1
_geom_bond_site_symmetry_2
Ni1 Ni2 1_555 1_555
Ni2 Ni3 1_555 1_555
Ni3 N3 1_555 1_555
N1 Ni1 1_555 1_555
N2 Ni2 1_555 1_555
N3 C6 1_555 1_555
N4 Ni1 1_555 1_555
N5 Ni2 1_555 1_555
N6 Ni3 1_555 1_555
N7 Ni1 1_555 1_555
N8 Ni2 1_555 1_555
N9 Ni3 1_555 1_555
N10 Ni1 1_555 1_555
N11 Ni2 1_555 1_555
N12 Ni3 1_555 1_555
N13 Ni1 1_555 1_555
N14 N13 1_555 1_555
N15 N14 1_555 1_555
C1 N1 1_555 1_555
C2 C1 1_555 1_555
C3 C2 1_555 1_555
C4 C3 1_555 1_555
C5 N1 1_555 1_555
C6 N2 1_555 1_555
C7 C6 1_555 1_555
C8 C7 1_555 1_555
C9 C8 1_555 1_555
C10 N3 1_555 1_555
C11 N4 1_555 1_555
C12 C11 1_555 1_555
C13 C12 1_555 1_555
C14 C13 1_555 1_555
C15 N4 1_555 1_555
C16 N5 1_555 1_555
C17 C16 1_555 1_555
C18 C17 1_555 1_555
C19 C18 1_555 1_555
C20 N6 1_555 1_555
C21 N7 1_555 1_555
C22 C21 1_555 1_555
C23 C22 1_555 1_555
C24 C23 1_555 1_555
C25 N7 1_555 1_555
C26 N8 1_555 1_555
C27 C26 1_555 1_555
C28 C27 1_555 1_555
C29 C28 1_555 1_555
C30 N9 1_555 1_555
C31 N10 1_555 1_555
C32 C31 1_555 1_555
C33 C32 1_555 1_555
C34 C33 1_555 1_555
C35 N10 1_555 1_555
C36 N11 1_555 1_555
C37 C36 1_555 1_555
C38 C37 1_555 1_555
C39 C38 1_555 1_555
C40 N12 1_555 1_555
P1 F1 1_555 1_555
P2 F4 1_555 1_555
F2 P1 1_555 1_555
F3 P1 1_555 1_555
F5 P2 1_555 1_555
F6 P2 1_555 1_555
C41 Cl1 1_555 1_555
C42 Cl3 1_555 1_555
C43 Cl5 1_555 1_555
Cl2 C41 1_555 1_555
Cl4 C42 1_555 1_555
Cl6 C43 1_555 1_555
H1 C1 1_555 1_555
H2 C2 1_555 1_555
H3 C3 1_555 1_555
H4 C4 1_555 1_555
H5 C7 1_555 1_555
H6 C8 1_555 1_555
H7 C9 1_555 1_555
H8 C10 1_555 1_555
H9 C11 1_555 1_555
H10 C12 1_555 1_555
H11 C13 1_555 1_555
H12 C14 1_555 1_555
H13 C17 1_555 1_555
H14 C18 1_555 1_555
H15 C19 1_555 1_555
H16 C20 1_555 1_555
H17 C21 1_555 1_555
H18 C22 1_555 1_555
H19 C23 1_555 1_555
H20 C24 1_555 1_555
H21 C27 1_555 1_555
H22 C28 1_555 1_555
H23 C29 1_555 1_555
H24 C30 1_555 1_555
H25 C31 1_555 1_555
H26 C32 1_555 1_555
H27 C33 1_555 1_555
H28 C34 1_555 1_555
H29 C37 1_555 1_555
H30 C38 1_555 1_555
H31 C39 1_555 1_555
H32 C40 1_555 1_555
H33 C41 1_555 1_555
H34 C41 1_555 1_555
H35 C42 1_555 1_555
H36 C42 1_555 1_555
H37 C43 1_555 1_555
H38 C43 1_555 1_555
F1B P1 1_555 1_555
F2B P1 1_555 1_555
F3B P1 1_555 1_555
F4B P2 1_555 1_555
F5B P2 1_555 1_555
F6B P2 1_555 1_555
Ni3A N15 1_555 1_555
N13A N14A 1_555 1_555
N14A N15A 1_555 1_555
N15A Ni3 1_555 1_555
N1A C1A 1_555 1_555
N2A C5A 1_555 1_555
N3A Ni3A 1_555 1_555
C1A C2A 1_555 1_555
C2A C3A 1_555 1_555
C3A C4A 1_555 1_555
C4A C5A 1_555 1_555
C5A N1A 1_555 1_555
C6A N2A 1_555 1_555
C7A C6A 1_555 1_555
C8A C7A 1_555 1_555
C9A C8A 1_555 1_555
C10A N3A 1_555 1_555
H1A C1A 1_555 1_555
H2A C2A 1_555 1_555
H3A C3A 1_555 1_555
H4A C4A 1_555 1_555
H5A C7A 1_555 1_555
H6A C8A 1_555 1_555
H7A C9A 1_555 1_555
H8A C10A 1_555 1_555
N4A C11A 1_555 1_555
N5A C15A 1_555 1_555
N6A Ni3A 1_555 1_555
C11A C12A 1_555 1_555
C12A C13A 1_555 1_555
C13A C14A 1_555 1_555
C14A C15A 1_555 1_555
C15A N4A 1_555 1_555
C16A N5A 1_555 1_555
C17A C16A 1_555 1_555
C18A C17A 1_555 1_555
C19A C18A 1_555 1_555
C20A N6A 1_555 1_555
H9A C11A 1_555 1_555
H10A C12A 1_555 1_555
H11A C13A 1_555 1_555
H12A C14A 1_555 1_555
H13A C17A 1_555 1_555
H14A C18A 1_555 1_555
H15A C19A 1_555 1_555
H16A C20A 1_555 1_555
N7A C21A 1_555 1_555
N8A C25A 1_555 1_555
N9A Ni3A 1_555 1_555
C21A C22A 1_555 1_555
C22A C23A 1_555 1_555
C23A C24A 1_555 1_555
C24A C25A 1_555 1_555
C25A N7A 1_555 1_555
C26A N8A 1_555 1_555
C27A C26A 1_555 1_555
C28A C27A 1_555 1_555
C29A C28A 1_555 1_555
C30A N9A 1_555 1_555
H17A C21A 1_555 1_555
H18A C22A 1_555 1_555
H19A C23A 1_555 1_555
H20A C24A 1_555 1_555
H21A C27A 1_555 1_555
H22A C28A 1_555 1_555
H23A C29A 1_555 1_555
H24A C30A 1_555 1_555
N10A C31A 1_555 1_555
N11A C35A 1_555 1_555
N12A Ni3A 1_555 1_555
C31A C32A 1_555 1_555
C32A C33A 1_555 1_555
C33A C34A 1_555 1_555
C34A C35A 1_555 1_555
C35A N10A 1_555 1_555
C36A N11A 1_555 1_555
C37A C36A 1_555 1_555
C38A C37A 1_555 1_555
C39A C38A 1_555 1_555
C40A N12A 1_555 1_555
H25A C31A 1_555 1_555
H26A C32A 1_555 1_555
H27A C33A 1_555 1_555
H28A C34A 1_555 1_555
H29A C37A 1_555 1_555
H30A C38A 1_555 1_555
H31A C39A 1_555 1_555
H32A C40A 1_555 1_555
Ni1A N1A 1_555 1_555
Ni2A Ni3A 1_555 1_555
Ni1A_2 N13A 1_555 1_555
N13A_2 Ni1A 1_555 1_555
N2 C5 1_555 1_555
N5 C15 1_555 1_555
N6 C16 1_555 1_555
N8 C25 1_555 1_555
N9 C26 1_555 1_555
N11 C35 1_555 1_555
N12 C36 1_555 1_555
C4 C5 1_555 1_555
C9 C10 1_555 1_555
C14 C15 1_555 1_555
C19 C20 1_555 1_555
C24 C25 1_555 1_555
C29 C30 1_555 1_555
C34 C35 1_555 1_555
C39 C40 1_555 1_555
N2A Ni2A 1_555 1_555
N3A C6A 1_555 1_555
C9A C10A 1_555 1_555
N4A Ni1A 1_555 1_555
N5A Ni2A 1_555 1_555
N6A C16A 1_555 1_555
C19A C20A 1_555 1_555
N7A Ni1A 1_555 1_555
N8A Ni2A 1_555 1_555
N9A C26A 1_555 1_555
C29A C30A 1_555 1_555
N10A Ni1A 1_555 1_555
N11A Ni2A 1_555 1_555
N12A C36A 1_555 1_555
C39A C40A 1_555 1_555
Ni1A Ni2A 1_555 1_555

#END
