
#######################################################################
#
#                 Cambridge Crystallographic Data Centre
#                                CCDC 
#
#######################################################################
#
# If this CIF has been generated from an entry in the Cambridge 
# Structural Database, then it will include bibliographic, chemical, 
# crystal, experimental, refinement or atomic coordinate data resulting 
# from the CCDC's data processing and validation procedures.
#
#######################################################################

data_UGECEO03
_symmetry_cell_setting           monoclinic
_symmetry_space_group_name_H-M   'C 2/m'
_symmetry_Int_Tables_number      12
_space_group_name_Hall           '-C 2y'
loop_
_symmetry_equiv_pos_site_id
_symmetry_equiv_pos_as_xyz
1 x,y,z
2 -x,y,-z
3 1/2+x,1/2+y,z
4 1/2-x,1/2+y,-z
5 -x,-y,-z
6 x,-y,z
7 1/2-x,1/2-y,-z
8 1/2+x,1/2-y,z
_cell_length_a                   6.1453(5)
_cell_length_b                   17.4650(9)
_cell_length_c                   4.5525(5)
_cell_angle_alpha                90
_cell_angle_beta                 115.763(5)
_cell_angle_gamma                90
_cell_volume                     440.041
loop_
_atom_site_label
_atom_site_type_symbol
_atom_site_fract_x
_atom_site_fract_y
_atom_site_fract_z
Co1 Co 0.0000 0.21032(3) 0.5000
O1 O 0.2402(4) 0.30017(11) 0.7113(5)
O2 O 0.2943(4) 0.36583(13) 1.1567(5)
C1 C 0.2132(5) 0.35980(18) 0.8543(8)
C2 C 0.0910(5) 0.42998(16) 0.6603(7)
C3 C 0.1755(8) 0.5000 0.8138(11)
H1 H 0.2937 0.5000 1.0284
O1A O -0.2402(4) 0.30017(11) 0.2887(5)
C1A C -0.2132(5) 0.35980(18) 0.1457(8)
C2A C -0.0910(5) 0.42998(16) 0.3397(7)
C3A C -0.1755(8) 0.5000 0.1862(11)
H1A H -0.2937 0.5000 -0.0284
O2A O -0.2943(4) 0.36583(13) -0.1567(5)
O1D O -0.2402(4) 0.69983(11) 0.2887(5)
C1D C -0.2132(5) 0.64020(18) 0.1457(8)
C2D C -0.0910(5) 0.57002(16) 0.3397(7)
O2D O -0.2943(4) 0.63417(13) -0.1567(5)
O1E O 0.2402(4) 0.69983(11) 0.7113(5)
C1E C 0.2132(5) 0.64020(18) 0.8543(8)
C2E C 0.0910(5) 0.57002(16) 0.6603(7)
O2E O 0.2943(4) 0.63417(13) 1.1567(5)
Co1D Co 0.0000 0.78968(3) 0.5000
Co1B Co -0.5000 0.71032(3) -0.5000
Co1B_2 Co -0.5000 0.71032(3) 0.5000
Co1B_3 Co 0.5000 0.71032(3) 0.5000
Co1B_4 Co 0.5000 0.71032(3) 1.5000
Co1F Co -0.5000 0.28968(3) -0.5000
Co1F_2 Co -0.5000 0.28968(3) 0.5000
Co1F_3 Co 0.5000 0.28968(3) 0.5000
Co1F_4 Co 0.5000 0.28968(3) 1.5000
O1B O -0.2598(4) 0.80017(11) 0.7113(5)
O1C O 0.2598(4) 0.80017(11) 0.2887(5)
O1F O 0.2598(4) 0.19983(11) 0.2887(5)
O1G O -0.2598(4) 0.19983(11) 0.7113(5)
O2B O -0.2057(4) 0.86583(13) 0.1567(5)
O2C O 0.2057(4) 0.86583(13) 0.8433(5)
O2F O 0.2057(4) 0.13417(13) 0.8433(5)
O2G O -0.2057(4) 0.13417(13) 0.1567(5)
loop_
_geom_bond_atom_site_label_1
_geom_bond_atom_site_label_2
_geom_bond_site_symmetry_1
_geom_bond_site_symmetry_2
Co1 O1 1_555 1_555
O1 C1 1_555 1_555
O2 C1 1_555 1_555
C1 C2 1_555 1_555
C2 C3 1_555 1_555
C3 H1 1_555 1_555
O1A Co1 1_555 1_555
C1A O1A 1_555 1_555
C2A C2 1_555 1_555
C3A C2A 1_555 1_555
H1A C3A 1_555 1_555
O2A C1A 1_555 1_555
O1D C1D 1_555 1_555
C1D C2D 1_555 1_555
C2D C3A 1_555 1_555
O2D C1D 1_555 1_555
O1E C1E 1_555 1_555
C1E C2E 1_555 1_555
C2E C3 1_555 1_555
O2E C1E 1_555 1_555
Co1D O1D 1_555 1_555
Co1B O2D 1_555 1_555
Co1B_2 O1D 1_555 1_555
Co1B_3 O1E 1_555 1_555
Co1B_4 O2E 1_555 1_555
Co1F O2A 1_555 1_555
Co1F_2 O1A 1_555 1_555
Co1F_3 O1 1_555 1_555
Co1F_4 O2 1_555 1_555
O1B Co1D 1_555 1_555
O1C Co1D 1_555 1_555
O1F Co1 1_555 1_555
O1G Co1 1_555 1_555
O2B Co1D 1_555 1_555
O2C Co1D 1_555 1_555
O2F Co1 1_555 1_555
O2G Co1 1_555 1_555
C1A C2A 1_555 1_555
C2D C2E 1_555 1_555
O1E Co1D 1_555 1_555
Co1B_2 O1B 1_555 1_555
Co1B_3 O1C 1_555 1_555
Co1F_2 O1G 1_555 1_555
Co1F_3 O1F 1_555 1_555

#END
