
#######################################################################
#
#                 Cambridge Crystallographic Data Centre
#                                CCDC 
#
#######################################################################
#
# If this CIF has been generated from an entry in the Cambridge 
# Structural Database, then it will include bibliographic, chemical, 
# crystal, experimental, refinement or atomic coordinate data resulting 
# from the CCDC's data processing and validation procedures.
#
#######################################################################

data_UGEHUL
_symmetry_cell_setting           triclinic
_symmetry_space_group_name_H-M   'P -1'
_symmetry_Int_Tables_number      2
_space_group_name_Hall           '-P 1'
loop_
_symmetry_equiv_pos_site_id
_symmetry_equiv_pos_as_xyz
1 x,y,z
2 -x,-y,-z
_cell_length_a                   10.2504(10)
_cell_length_b                   10.2748(10)
_cell_length_c                   11.3241(11)
_cell_angle_alpha                92.3200(10)
_cell_angle_beta                 93.3290(10)
_cell_angle_gamma                118.8020(10)
_cell_volume                     1040.16
loop_
_atom_site_label
_atom_site_type_symbol
_atom_site_fract_x
_atom_site_fract_y
_atom_site_fract_z
Cd1 Cd 0.27599(2) 0.100067(19) 0.474630(16)
C1 C 0.1573(3) -0.3262(3) 0.5928(2)
O1 O 0.05976(19) 0.01300(19) 0.34526(15)
H1 H 0.0828 0.0244 0.2704
H2 H 0.0118 0.0634 0.3612
O2 O 0.48382(19) 0.1770(2) 0.60526(16)
H3 H 0.5128 0.2674 0.6376
H4 H 0.5576 0.1786 0.5677
O3 O 0.2877(2) -0.13502(19) 0.46586(15)
O4 O 0.1398(2) -0.10524(19) 0.58391(16)
O5 O 0.2679(2) -0.6380(2) 0.43701(17)
O6 O 0.19279(19) -0.77410(18) 0.58934(15)
O7 O 0.7177(2) 0.4931(2) -0.01603(16)
N1 N 0.5987(2) 0.4893(2) 0.14778(18)
H5 H 0.5719 0.5427 0.1926
C2 C 0.1614(3) -0.5597(3) 0.5888(2)
N2 N 0.4202(2) 0.1658(2) 0.31739(18)
C3 C 0.1967(3) -0.1813(3) 0.5445(2)
O8 O -0.0503(2) -0.5341(2) 0.83233(17)
C4 C 0.8296(3) 0.9361(3) -0.0576(2)
H6 H 0.8694 0.9804 -0.1282
N3 N 0.8177(3) 1.0218(3) 0.0287(2)
C5 C 0.6812(3) 0.5576(3) 0.0568(2)
C6 C 0.2105(3) -0.6625(3) 0.5331(2)
C7 C 0.7263(3) 0.7195(3) 0.0512(2)
C8 C 0.7878(3) 0.7879(3) -0.0503(2)
H7 H 0.8008 0.7330 -0.1138
C9 C 0.5129(3) 0.0958(3) 0.1528(2)
H8 H 0.5253 0.0212 0.1106
C10 C 0.7142(3) 0.8071(3) 0.1419(2)
H9 H 0.6736 0.7656 0.2132
C11 C 0.0783(3) -0.5999(3) 0.6873(2)
H10 H 0.0526 -0.6924 0.7195
C12 C 0.7622(3) 0.9554(3) 0.1267(2)
H11 H 0.7553 1.0144 0.1903
C13 C 0.1991(3) -0.4247(3) 0.5418(2)
H12 H 0.2543 -0.3990 0.4740
C14 C 0.4374(3) 0.0631(3) 0.2530(2)
H13 H 0.3959 -0.0353 0.2776
C15 C 0.0333(3) -0.5047(3) 0.7382(2)
C16 C 0.5710(3) 0.2363(3) 0.1131(2)
H14 H 0.6226 0.2597 0.0434
C17 C 0.0733(3) -0.3688(3) 0.6919(2)
H15 H 0.0434 -0.3033 0.7278
C18 C 0.5520(3) 0.3430(3) 0.1777(2)
C19 C -0.0912(3) -0.6699(3) 0.8867(2)
H16 H -0.1544 -0.7546 0.8294
H17 H -0.1465 -0.6737 0.9554
H18 H -0.0009 -0.6748 0.9127
C20 C 0.4785(3) 0.3022(3) 0.2807(2)
H19 H 0.4697 0.3761 0.3273
Cd1_2 Cd 0.27599(2) -0.899933(19) 0.474630(16)
O5_2 O 0.2679(2) 0.3620(2) 0.43701(17)
O6_2 O 0.19279(19) 0.22590(18) 0.58934(15)
O9 O 0.3749(2) 0.5566(2) 0.26421(16)
H20 H 0.3150 0.5433 0.2018
H21 H 0.3249 0.4969 0.3169
loop_
_geom_bond_atom_site_label_1
_geom_bond_atom_site_label_2
_geom_bond_site_symmetry_1
_geom_bond_site_symmetry_2
Cd1 O1 1_555 1_555
C1 C3 1_555 1_555
O1 H1 1_555 1_555
H2 O1 1_555 1_555
O2 Cd1 1_555 1_555
H3 O2 1_555 1_555
H4 O2 1_555 1_555
O3 Cd1 1_555 1_555
O4 Cd1 1_555 1_555
O5 C6 1_555 1_555
O6 C6 1_555 1_555
O7 C5 1_555 1_555
N1 H5 1_555 1_555
C2 C6 1_555 1_555
N2 Cd1 1_555 1_555
C3 O3 1_555 1_555
O8 C15 1_555 1_555
C4 H6 1_555 1_555
N3 C4 1_555 1_555
C5 N1 1_555 1_555
C7 C5 1_555 1_555
C8 C4 1_555 1_555
H7 C8 1_555 1_555
C9 H8 1_555 1_555
C10 C7 1_555 1_555
H9 C10 1_555 1_555
C11 C2 1_555 1_555
H10 C11 1_555 1_555
C12 N3 1_555 1_555
H11 C12 1_555 1_555
C13 C1 1_555 1_555
H12 C13 1_555 1_555
C14 N2 1_555 1_555
H13 C14 1_555 1_555
C15 C11 1_555 1_555
C16 C9 1_555 1_555
H14 C16 1_555 1_555
C17 C1 1_555 1_555
H15 C17 1_555 1_555
C18 N1 1_555 1_555
C19 O8 1_555 1_555
H16 C19 1_555 1_555
H17 C19 1_555 1_555
H18 C19 1_555 1_555
C20 N2 1_555 1_555
H19 C20 1_555 1_555
O9 H20 1_555 1_555
H21 O9 1_555 1_555
Cd1_2 O5 1_555 1_555
O5_2 Cd1 1_555 1_555
O6_2 Cd1 1_555 1_555
O4 C3 1_555 1_555
O6 Cd1_2 1_555 1_555
C2 C13 1_555 1_555
C7 C8 1_555 1_555
C9 C14 1_555 1_555
C10 C12 1_555 1_555
C15 C17 1_555 1_555
C16 C18 1_555 1_555
C18 C20 1_555 1_555

#END
