
#######################################################################
#
#                 Cambridge Crystallographic Data Centre
#                                CCDC 
#
#######################################################################
#
# If this CIF has been generated from an entry in the Cambridge 
# Structural Database, then it will include bibliographic, chemical, 
# crystal, experimental, refinement or atomic coordinate data resulting 
# from the CCDC's data processing and validation procedures.
#
#######################################################################

data_UGEHOF
_symmetry_cell_setting           triclinic
_symmetry_space_group_name_H-M   'P -1'
_symmetry_Int_Tables_number      2
_space_group_name_Hall           '-P 1'
loop_
_symmetry_equiv_pos_site_id
_symmetry_equiv_pos_as_xyz
1 x,y,z
2 -x,-y,-z
_cell_length_a                   10.1468(7)
_cell_length_b                   10.2962(7)
_cell_length_c                   11.4776(8)
_cell_angle_alpha                94.3940(10)
_cell_angle_beta                 91.1470(10)
_cell_angle_gamma                118.9810(10)
_cell_volume                     1043.62
loop_
_atom_site_label
_atom_site_type_symbol
_atom_site_fract_x
_atom_site_fract_y
_atom_site_fract_z
Cd1 Cd 0.72307(2) 0.39543(2) 0.024786(16)
O1 O 0.9356(2) 0.4845(2) 0.15422(16)
H1 H 0.9098 0.4867 0.2265
H2 H 1.0022 0.5749 0.1400
O2 O 0.8112(2) 0.2690(2) -0.09419(17)
O3 O 1.0798(2) 0.0293(2) -0.31901(18)
H3 H 1.0501 -0.0456 -0.3682
O4 O 0.7258(2) 0.1356(2) 0.05511(19)
O5 O 0.7091(2) -0.3666(2) 0.03552(17)
O6 O 0.8619(2) -0.4001(2) -0.08005(17)
O7 O 0.2863(3) 0.0190(3) 0.5181(2)
O8 O 0.5211(2) 0.3220(2) -0.10483(17)
H4 H 0.4859 0.2280 -0.1320
H5 H 0.5481 0.3774 -0.1640
N1 N 0.3937(3) 0.0149(3) 0.3485(2)
H6 H 0.4159 -0.0412 0.3002
N2 N 0.5775(3) 0.3364(3) 0.1831(2)
N3 N 0.1825(3) -0.5085(3) 0.4745(2)
C1 C 0.7891(3) 0.1583(3) -0.0389(2)
C2 C 0.8412(3) 0.0537(3) -0.0915(2)
C3 C 0.7989(3) -0.0805(3) -0.0444(2)
H7 H 0.7367 -0.1058 0.0201
C4 C 0.8027(3) -0.3231(3) -0.0419(2)
C5 C 0.9398(3) -0.1387(3) -0.1844(2)
H8 H 0.9733 -0.2047 -0.2163
C6 C 0.9838(3) -0.0047(3) -0.2313(2)
C7 C 0.9336(3) 0.0918(3) -0.1857(2)
H9 H 0.9621 0.1830 -0.2185
C8 C 0.2228(3) -0.2697(3) 0.5545(2)
H10 H 0.2177 -0.2097 0.6195
C9 C 0.2297(3) -0.4502(3) 0.3735(3)
H11 H 0.2308 -0.5136 0.3093
C10 C 0.2769(3) -0.3028(3) 0.3570(3)
H12 H 0.3108 -0.2663 0.2836
C11 C 0.4184(3) 0.2666(3) 0.3851(2)
H13 H 0.3626 0.2433 0.4532
C12 C 0.4803(4) 0.4077(3) 0.3477(3)
H14 H 0.4673 0.4828 0.3907
C13 C 0.5605(3) 0.4406(3) 0.2488(3)
H15 H 0.6049 0.5393 0.2264
C14 C 0.8469(3) -0.1778(3) -0.0910(2)
C15 C 0.5175(3) 0.2004(3) 0.2182(2)
H16 H 0.5276 0.1260 0.1712
C16 C 0.4404(3) 0.1605(3) 0.3200(2)
C17 C 0.3179(3) -0.0485(3) 0.4426(2)
C18 C 0.2741(3) -0.2093(3) 0.4491(2)
C19 C 0.1795(3) -0.4177(3) 0.5628(3)
H17 H 0.1457 -0.4573 0.6353
Cd1_2 Cd 0.72307(2) -0.60457(2) 0.024786(16)
O5_2 O 0.7091(2) 0.6334(2) 0.03552(17)
O6_2 O 0.8619(2) 0.5999(2) -0.08005(17)
O9 O 0.0637(3) 0.1985(2) 0.5306(2)
H18 H 0.0934 0.1838 0.5976
H19 H 0.1199 0.2911 0.5174
O10 O 0.6245(2) 0.9504(2) 0.22956(18)
H20 H 0.6989 0.9601 0.2752
H21 H 0.5760 0.8598 0.1956
loop_
_geom_bond_atom_site_label_1
_geom_bond_atom_site_label_2
_geom_bond_site_symmetry_1
_geom_bond_site_symmetry_2
Cd1 O1 1_555 1_555
O1 H1 1_555 1_555
H2 O1 1_555 1_555
O2 Cd1 1_555 1_555
O3 H3 1_555 1_555
O4 Cd1 1_555 1_555
O5 C4 1_555 1_555
O6 C4 1_555 1_555
O7 C17 1_555 1_555
O8 Cd1 1_555 1_555
H4 O8 1_555 1_555
H5 O8 1_555 1_555
N1 H6 1_555 1_555
N2 Cd1 1_555 1_555
N3 C9 1_555 1_555
C1 O2 1_555 1_555
C2 C1 1_555 1_555
C3 C2 1_555 1_555
H7 C3 1_555 1_555
C4 C14 1_555 1_555
C5 H8 1_555 1_555
C6 O3 1_555 1_555
C7 C2 1_555 1_555
H9 C7 1_555 1_555
C8 H10 1_555 1_555
C9 H11 1_555 1_555
C10 C9 1_555 1_555
H12 C10 1_555 1_555
C11 H13 1_555 1_555
C12 C11 1_555 1_555
H14 C12 1_555 1_555
C13 N2 1_555 1_555
H15 C13 1_555 1_555
C14 C3 1_555 1_555
C15 N2 1_555 1_555
H16 C15 1_555 1_555
C16 N1 1_555 1_555
C17 N1 1_555 1_555
C18 C8 1_555 1_555
C19 N3 1_555 1_555
H17 C19 1_555 1_555
O9 H18 1_555 1_555
H19 O9 1_555 1_555
O10 H20 1_555 1_555
H21 O10 1_555 1_555
Cd1_2 O5 1_555 1_555
O5_2 Cd1 1_555 1_555
O6_2 Cd1 1_555 1_555
O4 C1 1_555 1_555
O6 Cd1_2 1_555 1_555
C5 C6 1_555 1_555
C5 C14 1_555 1_555
C6 C7 1_555 1_555
C8 C19 1_555 1_555
C10 C18 1_555 1_555
C11 C16 1_555 1_555
C12 C13 1_555 1_555
C15 C16 1_555 1_555
C17 C18 1_555 1_555

#END
