
#######################################################################
#
#                 Cambridge Crystallographic Data Centre
#                                CCDC 
#
#######################################################################
#
# If this CIF has been generated from an entry in the Cambridge 
# Structural Database, then it will include bibliographic, chemical, 
# crystal, experimental, refinement or atomic coordinate data resulting 
# from the CCDC's data processing and validation procedures.
#
#######################################################################

data_UGEJAT
_symmetry_cell_setting           monoclinic
_symmetry_space_group_name_H-M   'P 21/c'
_symmetry_Int_Tables_number      14
_space_group_name_Hall           '-P 2ybc'
loop_
_symmetry_equiv_pos_site_id
_symmetry_equiv_pos_as_xyz
1 x,y,z
2 -x,1/2+y,1/2-z
3 -x,-y,-z
4 x,1/2-y,1/2+z
_cell_length_a                   10.3059(8)
_cell_length_b                   21.7468(16)
_cell_length_c                   8.8437(7)
_cell_angle_alpha                90
_cell_angle_beta                 100.1540(10)
_cell_angle_gamma                90
_cell_volume                     1951.01
loop_
_atom_site_label
_atom_site_type_symbol
_atom_site_fract_x
_atom_site_fract_y
_atom_site_fract_z
N1 N 0.4046(3) 0.03457(14) 0.7709(4)
C1 C 0.5197(4) 0.04479(16) 0.8620(4)
H1 H 0.5857 0.0139 0.8693
C2 C 0.5481(4) 0.09785(17) 0.9461(4)
H2 H 0.6314 0.1029 1.0107
C3 C 0.4540(4) 0.14361(17) 0.9355(4)
O1 O 1.4472(2) 0.40245(11) 0.7958(3)
O2 O 1.3498(3) 0.47458(12) 0.9110(3)
C4 C 1.3464(3) 0.42577(17) 0.8371(4)
Cd1 Cd 0.63077(2) 0.453596(11) 0.89929(3)
O3 O 0.7509(2) 0.38084(12) 0.7644(3)
O4 O 0.3999(3) 0.24761(12) 0.9589(4)
O5 O 0.8575(2) 0.45806(12) 0.8909(3)
N2 N 0.6727(3) 0.37976(13) 1.0913(3)
C5 C 0.8568(3) 0.40985(17) 0.8129(4)
C6 C 0.9833(3) 0.38511(16) 0.7772(4)
C7 C 0.9843(3) 0.33004(16) 0.6962(4)
H3 H 0.9032 0.3094 0.6621
C8 C 1.0986(4) 0.30466(16) 0.6641(4)
C9 C 1.0965(4) 0.24468(18) 0.5786(5)
H4 H 1.0575 0.2127 0.6344
H5 H 1.1868 0.2330 0.5702
H6 H 1.0439 0.2494 0.4755
C10 C 1.2159(3) 0.33596(16) 0.7128(4)
H7 H 1.2961 0.3190 0.6928
C11 C 1.2182(3) 0.39228(16) 0.7913(4)
C12 C 1.1016(3) 0.41626(16) 0.8244(4)
H8 H 1.1025 0.4539 0.8792
C13 C 0.6117(4) 0.32605(17) 1.0611(4)
H9 H 0.5419 0.3234 0.9755
C14 C 0.6460(4) 0.27348(17) 1.1498(4)
C15 C 0.7471(4) 0.27842(18) 1.2765(4)
H10 H 0.7719 0.2440 1.3414
C16 C 0.8107(4) 0.33413(19) 1.3059(5)
H11 H 0.8809 0.3383 1.3907
C17 C 0.7717(4) 0.38376(18) 1.2111(4)
H12 H 0.8165 0.4219 1.2317
N3 N 0.5899(3) 0.21557(14) 1.1080(3)
H13 H 0.6302 0.1828 1.1520
C18 C 0.4772(4) 0.20700(17) 1.0036(4)
C19 C 0.3329(4) 0.1326(2) 0.8446(5)
H14 H 0.2650 0.1626 0.8368
C20 C 0.3111(4) 0.0780(2) 0.7653(6)
H15 H 0.2269 0.0708 0.7044
N1A N 0.5954(3) 0.53457(14) 0.7291(4)
O1_2 O 0.4472(2) 0.40245(11) 0.7958(3)
O2B O 0.6502(3) 0.52542(12) 1.0890(3)
Cd1_2 Cd 1.63077(2) 0.453596(11) 0.89929(3)
Cd1A Cd 0.36923(2) -0.046404(11) 0.60071(3)
Cd1B Cd 1.36923(2) 0.546404(11) 1.10071(3)
loop_
_geom_bond_atom_site_label_1
_geom_bond_atom_site_label_2
_geom_bond_site_symmetry_1
_geom_bond_site_symmetry_2
N1 C1 1_555 1_555
C1 H1 1_555 1_555
C2 C1 1_555 1_555
H2 C2 1_555 1_555
C3 C2 1_555 1_555
O1 C4 1_555 1_555
O2 C4 1_555 1_555
C4 C11 1_555 1_555
Cd1 O3 1_555 1_555
O3 C5 1_555 1_555
O4 C18 1_555 1_555
O5 Cd1 1_555 1_555
N2 Cd1 1_555 1_555
C5 O5 1_555 1_555
C6 C5 1_555 1_555
C7 C6 1_555 1_555
H3 C7 1_555 1_555
C8 C7 1_555 1_555
C9 C8 1_555 1_555
H4 C9 1_555 1_555
H5 C9 1_555 1_555
H6 C9 1_555 1_555
C10 C8 1_555 1_555
H7 C10 1_555 1_555
C11 C10 1_555 1_555
C12 C6 1_555 1_555
H8 C12 1_555 1_555
C13 N2 1_555 1_555
H9 C13 1_555 1_555
C14 C13 1_555 1_555
C15 C14 1_555 1_555
H10 C15 1_555 1_555
C16 C15 1_555 1_555
H11 C16 1_555 1_555
C17 N2 1_555 1_555
H12 C17 1_555 1_555
N3 C14 1_555 1_555
H13 N3 1_555 1_555
C18 C3 1_555 1_555
C19 C3 1_555 1_555
H14 C19 1_555 1_555
C20 N1 1_555 1_555
H15 C20 1_555 1_555
N1A Cd1 1_555 1_555
O1_2 Cd1 1_555 1_555
O2B Cd1 1_555 1_555
Cd1_2 O1 1_555 1_555
Cd1A N1 1_555 1_555
Cd1B O2 1_555 1_555
C11 C12 1_555 1_555
C16 C17 1_555 1_555
N3 C18 1_555 1_555
C19 C20 1_555 1_555

#END
