
#######################################################################
#
#                 Cambridge Crystallographic Data Centre
#                                CCDC 
#
#######################################################################
#
# If this CIF has been generated from an entry in the Cambridge 
# Structural Database, then it will include bibliographic, chemical, 
# crystal, experimental, refinement or atomic coordinate data resulting 
# from the CCDC's data processing and validation procedures.
#
#######################################################################

data_UGEKOG
_symmetry_cell_setting           monoclinic
_symmetry_space_group_name_H-M   'P 21/c'
_symmetry_Int_Tables_number      14
_space_group_name_Hall           '-P 2ybc'
loop_
_symmetry_equiv_pos_site_id
_symmetry_equiv_pos_as_xyz
1 x,y,z
2 x,1/2-y,1/2+z
3 -x,-y,-z
4 -x,1/2+y,1/2-z
_cell_length_a                   5.6255(6)
_cell_length_b                   22.469(2)
_cell_length_c                   5.6114(6)
_cell_angle_alpha                90
_cell_angle_beta                 100.766(9)
_cell_angle_gamma                90
_cell_volume                     696.793
loop_
_atom_site_label
_atom_site_type_symbol
_atom_site_fract_x
_atom_site_fract_y
_atom_site_fract_z
Ag1 Ag 0.98334(7) 0.03726(1) -0.20992(6)
O1 O 0.7286(6) 0.0853(1) -0.0158(6)
O2 O 0.8018(7) 0.0353(1) 0.3357(6)
O3 O 0.1548(6) 0.1329(1) 0.7315(6)
O4 O 0.3310(6) 0.2047(1) 0.5596(6)
N1 N 0.5333(6) 0.1782(2) 0.1604(6)
C1 C 0.7178(7) 0.0783(2) 0.2017(8)
C2 C 0.6000(8) 0.1272(2) 0.3301(8)
C3 C 0.3834(8) 0.1051(2) 0.4301(8)
C4 C 0.2821(7) 0.1515(2) 0.5815(8)
H1 H 0.7287 0.1544 0.4190
H2 H 0.4489 0.2071 0.2341
H3 H 0.4371 0.1644 0.0149
H4 H 0.6787 0.1955 0.1253
H5 H 0.3809 0.0624 0.5144
H6 H 0.2489 0.0980 0.2818
Ag1B Ag 1.01666(7) -0.03726(1) 0.20992(6)
O2B O 1.1982(7) -0.0353(1) -0.3357(6)
O3_2 O 1.1548(6) 0.1329(1) -0.2685(6)
Ag1_2 Ag -0.01666(7) 0.03726(1) 0.79008(6)
C4_2 C 1.2821(7) 0.1515(2) -0.4185(8)
O1B O 1.2714(6) -0.0853(1) 0.0158(6)
O4_2 O 1.3310(6) 0.2047(1) -0.4404(6)
C3_2 C 1.3834(8) 0.1051(2) -0.5699(8)
C2_2 C 1.6000(8) 0.1272(2) -0.6699(8)
H5_2 H 1.3809 0.0624 -0.4856
H6_2 H 1.2489 0.0980 -0.7182
N1_2 N 1.5333(6) 0.1782(2) -0.8396(6)
C1_2 C 1.7178(7) 0.0783(2) -0.7983(8)
H1_2 H 1.7287 0.1544 -0.5810
H2_2 H 1.4489 0.2071 -0.7659
H3_2 H 1.4371 0.1644 -0.9851
H4_2 H 1.6787 0.1955 -0.8747
O1_2 O 1.7286(6) 0.0853(1) -1.0158(6)
O2_2 O 1.8018(7) 0.0353(1) -0.6643(6)
Ag1B_2 Ag 2.01666(7) -0.03726(1) -0.79008(6)
Ag1_3 Ag 1.98334(7) 0.03726(1) -1.20992(6)
O3B O 0.8452(6) -0.1329(1) 0.2685(6)
O5 O 0.9226(7) 0.2840(2) 0.4729(8)
H7 H 1.0021 0.3076 0.3754
H8 H 1.0093 0.2515 0.5395
loop_
_geom_bond_atom_site_label_1
_geom_bond_atom_site_label_2
_geom_bond_site_symmetry_1
_geom_bond_site_symmetry_2
Ag1 O1 1_555 1_555
O1 C1 1_555 1_555
O2 C1 1_555 1_555
O3 C4 1_555 1_555
O4 C4 1_555 1_555
O5 H7 1_555 1_555
N1 C2 1_555 1_555
C1 C2 1_555 1_555
C2 C3 1_555 1_555
C3 C4 1_555 1_555
H1 C2 1_555 1_555
H2 N1 1_555 1_555
H3 N1 1_555 1_555
H4 N1 1_555 1_555
H5 C3 1_555 1_555
H6 C3 1_555 1_555
H8 O5 1_555 1_555
Ag1B Ag1 1_555 1_555
O2B Ag1 1_555 1_555
O3_2 Ag1 1_555 1_555
Ag1_2 O3 1_555 1_555
C4_2 O3_2 1_555 1_555
O1B Ag1B 1_555 1_555
O4_2 C4_2 1_555 1_555
C3_2 C4_2 1_555 1_555
C2_2 C3_2 1_555 1_555
H5_2 C3_2 1_555 1_555
H6_2 C3_2 1_555 1_555
N1_2 C2_2 1_555 1_555
C1_2 C2_2 1_555 1_555
H1_2 C2_2 1_555 1_555
H2_2 N1_2 1_555 1_555
H3_2 N1_2 1_555 1_555
H4_2 N1_2 1_555 1_555
O1_2 C1_2 1_555 1_555
O2_2 C1_2 1_555 1_555
Ag1B_2 O2_2 1_555 1_555
Ag1_3 O1_2 1_555 1_555
O3B Ag1B 1_555 1_555
O2 Ag1B 1_555 1_555
Ag1B_2 Ag1_3 1_555 1_555

#END
