
#######################################################################
#
#                 Cambridge Crystallographic Data Centre
#                                CCDC 
#
#######################################################################
#
# If this CIF has been generated from an entry in the Cambridge 
# Structural Database, then it will include bibliographic, chemical, 
# crystal, experimental, refinement or atomic coordinate data resulting 
# from the CCDC's data processing and validation procedures.
#
#######################################################################

data_UGELAT
_symmetry_cell_setting           orthorhombic
_symmetry_space_group_name_H-M   'C 2 2 21'
_symmetry_Int_Tables_number      20
_space_group_name_Hall           'C 2n 2'
loop_
_symmetry_equiv_pos_site_id
_symmetry_equiv_pos_as_xyz
1 x,y,z
2 x,-y,-z
3 -x,-y,1/2+z
4 -x,y,1/2-z
5 1/2+x,1/2+y,z
6 1/2+x,1/2-y,-z
7 1/2-x,1/2-y,1/2+z
8 1/2-x,1/2+y,1/2-z
_cell_length_a                   7.4245(9)
_cell_length_b                   8.019(2)
_cell_length_c                   21.537(5)
_cell_angle_alpha                90
_cell_angle_beta                 90
_cell_angle_gamma                90
_cell_volume                     1282.25
loop_
_atom_site_label
_atom_site_type_symbol
_atom_site_fract_x
_atom_site_fract_y
_atom_site_fract_z
Ag1 Ag 0.62080(3) 0.06387(3) 0.57617(1)
O1 O 0.8892(3) 0.0072(2) 0.59906(9)
O2 O 0.9967(3) 0.2243(3) 0.5449(1)
O3 O 1.1467(3) 0.2376(2) 0.68931(9)
N1 N 1.3485(2) 0.1468(3) 0.5715(1)
N2 N 1.2348(4) 0.0524(4) 0.7619(1)
C1 C 1.0162(3) 0.0969(3) 0.5762(1)
C2 C 1.2067(3) 0.0267(3) 0.5886(1)
C3 C 1.2298(3) -0.0356(3) 0.6543(1)
C4 C 1.2014(3) 0.0966(3) 0.7032(1)
H1 H 1.2213 -0.0673 0.5623
H2 H 1.3303 0.1830 0.5300
H3 H 1.3438 0.2400 0.5987
H4 H 1.1453 -0.1226 0.6613
H5 H 1.3485 -0.0782 0.6587
H6 H 1.2188 0.1310 0.7944
H7 H 1.2738 -0.0575 0.7710
N1_2 N 0.3485(2) 0.1468(3) 0.5715(1)
Ag1_2 Ag 1.62080(3) 0.06387(3) 0.57617(1)
H2_2 H 0.3303 0.1830 0.5300
H3_2 H 0.3438 0.2400 0.5987
loop_
_geom_bond_atom_site_label_1
_geom_bond_atom_site_label_2
_geom_bond_site_symmetry_1
_geom_bond_site_symmetry_2
Ag1 O1 1_555 1_555
O1 C1 1_555 1_555
O2 C1 1_555 1_555
O3 C4 1_555 1_555
N1 C2 1_555 1_555
N2 C4 1_555 1_555
C1 C2 1_555 1_555
C2 C3 1_555 1_555
C3 C4 1_555 1_555
H1 C2 1_555 1_555
H2 N1 1_555 1_555
H3 N1 1_555 1_555
H4 C3 1_555 1_555
H5 C3 1_555 1_555
H6 N2 1_555 1_555
H7 N2 1_555 1_555
N1_2 Ag1 1_555 1_555
Ag1_2 N1 1_555 1_555
H2_2 N1_2 1_555 1_555
H3_2 N1_2 1_555 1_555

#END
