
#######################################################################
#
#                 Cambridge Crystallographic Data Centre
#                                CCDC 
#
#######################################################################
#
# If this CIF has been generated from an entry in the Cambridge 
# Structural Database, then it will include bibliographic, chemical, 
# crystal, experimental, refinement or atomic coordinate data resulting 
# from the CCDC's data processing and validation procedures.
#
#######################################################################

data_UGELUO
_symmetry_cell_setting           monoclinic
_symmetry_space_group_name_H-M   'P 21/c'
_symmetry_Int_Tables_number      14
_space_group_name_Hall           '-P 2ybc'
loop_
_symmetry_equiv_pos_site_id
_symmetry_equiv_pos_as_xyz
1 x,y,z
2 -x,1/2+y,1/2-z
3 -x,-y,-z
4 x,1/2-y,1/2+z
_cell_length_a                   10.422(2)
_cell_length_b                   8.9901(17)
_cell_length_c                   24.090(5)
_cell_angle_alpha                90
_cell_angle_beta                 69.193(2)
_cell_angle_gamma                90
_cell_volume                     2109.9
loop_
_atom_site_label
_atom_site_type_symbol
_atom_site_fract_x
_atom_site_fract_y
_atom_site_fract_z
C1 C 0.3924(5) 0.7351(5) 0.77826(17)
H1 H 0.3214 0.7466 0.7637
C2 C 0.3061(3) 0.5067(3) 0.84142(13)
H2 H 0.3554 0.4285 0.8532
H3 H 0.2714 0.4652 0.8123
C3 C 0.1860(3) 0.5560(3) 0.89523(11)
C4 C 0.3018(3) 0.6873(4) 1.12130(16)
H4 H 0.2086 0.6994 1.1425
C5 C 0.2959(3) 0.4293(3) 1.08033(13)
H5 H 0.3674 0.3579 1.0606
H6 H 0.2407 0.3882 1.1186
C6 C 0.2052(3) 0.4514(3) 1.04305(11)
C7 C 0.1414(4) 0.9995(5) 1.21409(17)
H7 H 0.2339 1.0100 1.1912
C8 C 0.0375(4) 1.1067(3) 1.14286(13)
H8 H -0.0382 1.1762 1.1509
H9 H 0.1221 1.1614 1.1239
C9 C 0.0242(3) 0.9877(3) 1.10089(12)
C10 C -0.2915(3) 0.9099(4) 1.13509(14)
H10 H -0.2562 0.8512 1.1597
H11 H -0.3899 0.9040 1.1499
H12 H -0.2638 1.0116 1.1356
C11 C 0.3889(3) 0.8387(4) 0.96368(18)
H13 H 0.3914 0.7326 0.9676
H14 H 0.4405 0.8845 0.9851
H15 H 0.4282 0.8653 0.9225
H16 H -0.290(3) 0.814(4) 1.0710(14)
H17 H 0.245(5) 0.967(5) 0.975(2)
La1 La 0.014794(13) 0.751116(17) 1.012583(6)
N1 N 0.4013(3) 0.6267(3) 0.81392(11)
N2 N 0.5165(4) 0.6475(5) 0.82524(18)
N3 N 0.5738(5) 0.7670(6) 0.7962(2)
N4 N 0.4980(5) 0.8235(5) 0.7666(2)
N5 N 0.3593(2) 0.5668(3) 1.08966(10)
N6 N 0.4938(3) 0.5899(3) 1.06492(12)
N7 N 0.5165(3) 0.7207(3) 1.08201(14)
N8 N 0.3976(3) 0.7861(3) 1.11785(15)
N9 N 0.0376(3) 1.0455(3) 1.19860(11)
N10 N -0.0782(4) 1.0098(5) 1.24251(14)
N11 N -0.0437(5) 0.9459(5) 1.28298(15)
N12 N 0.0927(5) 0.9371(5) 1.26681(16)
O1 O 0.1691(2) 0.6905(2) 0.90751(9)
O2 O 0.1088(2) 0.4539(3) 0.92448(10)
O3 O 0.1576(2) 0.3313(2) 1.03112(9)
O4 O 0.18459(19) 0.5801(2) 1.02937(9)
O5 O 0.00761(19) 1.0326(2) 1.05359(8)
O6 O 0.0296(2) 0.8532(2) 1.11250(9)
O7 O -0.2384(2) 0.8542(2) 1.07519(10)
O8 O 0.2510(2) 0.8884(3) 0.98709(11)
La1B La -0.014794(13) 0.248884(17) 0.987417(6)
La1B_2 La -0.014794(13) 1.248884(17) 0.987417(6)
O2B O -0.1088(2) 0.5461(3) 1.07552(10)
O3B O -0.1576(2) 0.6687(2) 0.96888(9)
O5B O -0.00761(19) 0.9674(2) 0.94641(8)
loop_
_geom_bond_atom_site_label_1
_geom_bond_atom_site_label_2
_geom_bond_site_symmetry_1
_geom_bond_site_symmetry_2
C1 H1 1_555 1_555
C2 H2 1_555 1_555
H3 C2 1_555 1_555
C3 C2 1_555 1_555
C4 H4 1_555 1_555
C5 H5 1_555 1_555
H6 C5 1_555 1_555
C6 C5 1_555 1_555
C7 H7 1_555 1_555
C8 H8 1_555 1_555
H9 C8 1_555 1_555
C9 C8 1_555 1_555
C10 H10 1_555 1_555
H11 C10 1_555 1_555
H12 C10 1_555 1_555
C11 H13 1_555 1_555
H14 C11 1_555 1_555
H15 C11 1_555 1_555
H16 O7 1_555 1_555
H17 O8 1_555 1_555
La1 O1 1_555 1_555
N1 C1 1_555 1_555
N2 N1 1_555 1_555
N3 N2 1_555 1_555
N4 C1 1_555 1_555
N5 C4 1_555 1_555
N6 N5 1_555 1_555
N7 N6 1_555 1_555
N8 C4 1_555 1_555
N9 C7 1_555 1_555
N10 N9 1_555 1_555
N11 N10 1_555 1_555
N12 C7 1_555 1_555
O1 C3 1_555 1_555
O2 C3 1_555 1_555
O3 C6 1_555 1_555
O4 C6 1_555 1_555
O5 C9 1_555 1_555
O6 C9 1_555 1_555
O7 C10 1_555 1_555
O8 C11 1_555 1_555
La1B O2 1_555 1_555
La1B_2 O5 1_555 1_555
O2B La1 1_555 1_555
O3B La1 1_555 1_555
O5B La1 1_555 1_555
C2 N1 1_555 1_555
C5 N5 1_555 1_555
C8 N9 1_555 1_555
La1 O4 1_555 1_555
La1 O5 1_555 1_555
La1 O6 1_555 1_555
La1 O7 1_555 1_555
La1 O8 1_555 1_555
N3 N4 1_555 1_555
N7 N8 1_555 1_555
N11 N12 1_555 1_555
O3 La1B 1_555 1_555
La1B_2 O5B 1_555 1_555

#END
