
#######################################################################
#
#                 Cambridge Crystallographic Data Centre
#                                CCDC 
#
#######################################################################
#
# If this CIF has been generated from an entry in the Cambridge 
# Structural Database, then it will include bibliographic, chemical, 
# crystal, experimental, refinement or atomic coordinate data resulting 
# from the CCDC's data processing and validation procedures.
#
#######################################################################

data_UGELUP
_symmetry_cell_setting           monoclinic
_symmetry_space_group_name_H-M   'C 2/c'
_symmetry_Int_Tables_number      15
_space_group_name_Hall           '-C 2yn'
loop_
_symmetry_equiv_pos_site_id
_symmetry_equiv_pos_as_xyz
1 x,y,z
2 -x,y,1/2-z
3 1/2+x,1/2+y,z
4 1/2-x,1/2+y,1/2-z
5 -x,-y,-z
6 x,-y,1/2+z
7 1/2-x,1/2-y,-z
8 1/2+x,1/2-y,1/2+z
_cell_length_a                   26.8100(16)
_cell_length_b                   10.0989(6)
_cell_length_c                   19.8638(11)
_cell_angle_alpha                90
_cell_angle_beta                 91.0730(10)
_cell_angle_gamma                90
_cell_volume                     5377.21
loop_
_atom_site_label
_atom_site_type_symbol
_atom_site_fract_x
_atom_site_fract_y
_atom_site_fract_z
Zn1 Zn 0.395942(14) 0.11974(4) 0.24689(2)
O1 O 0.42342(9) 0.2681(2) 0.19578(13)
N1 N 0.42087(10) 0.1451(3) 0.34280(14)
C1 C 0.40848(13) 0.3772(3) 0.2217(2)
O2 O 0.37547(10) 0.3827(2) 0.26444(16)
C2 C 0.43349(13) 0.5010(3) 0.19873(18)
N2 N 0.53951(10) 0.0921(3) 0.43028(14)
H1 H 0.5527 0.0500 0.3974
O3 O 0.38832(10) 0.8667(2) 0.27459(14)
C3 C 0.41627(12) 0.6215(3) 0.22169(17)
H2 H 0.3896 0.6236 0.2510
N3 N 0.72444(10) 0.2597(3) 0.61565(16)
H3 H 0.6952 0.2886 0.6048
O4 O 0.43335(8) 0.9754(2) 0.20155(11)
C4 C 0.43806(12) 0.7394(3) 0.20170(16)
N4 N 0.82120(10) 0.3899(3) 0.73265(15)
O5 O 0.53730(11) 0.6036(3) 0.09732(16)
H4 H 0.5423 0.6749 0.0789
C5 C 0.41856(12) 0.8667(3) 0.22855(16)
C6 C 0.47857(12) 0.7354(3) 0.15856(17)
H5 H 0.4933 0.8135 0.1441
O6 O 0.55271(9) 0.1594(3) 0.53748(13)
O7 O 0.78340(9) 0.1133(3) 0.58657(14)
C7 C 0.49666(13) 0.6141(3) 0.13742(19)
C8 C 0.47404(14) 0.4980(3) 0.15681(19)
H6 H 0.4861 0.4173 0.1416
C9 C 0.46724(12) 0.1081(3) 0.35887(17)
H7 H 0.4854 0.0616 0.3271
C10 C 0.39470(14) 0.2126(4) 0.3885(2)
H8 H 0.3623 0.2388 0.3779
C11 C 0.41467(14) 0.2436(4) 0.4504(2)
H9 H 0.3957 0.2902 0.4812
C12 C 0.46246(14) 0.2063(4) 0.46732(19)
H10 H 0.4764 0.2278 0.5091
C13 C 0.48967(12) 0.1353(3) 0.42039(17)
C14 C 0.56851(13) 0.1100(3) 0.48575(18)
C15 C 0.62187(12) 0.0673(3) 0.48224(17)
C16 C 0.64007(13) -0.0283(4) 0.43919(17)
H11 H 0.6184 -0.0686 0.4083
C17 C 0.69010(14) -0.0655(4) 0.44108(19)
C18 C 0.70884(17) -0.1731(5) 0.3953(2)
H12 H 0.7029 -0.1480 0.3492
H13 H 0.6915 -0.2542 0.4043
H14 H 0.7440 -0.1856 0.4031
C19 C 0.72191(13) -0.0015(4) 0.48691(18)
H15 H 0.7556 -0.0240 0.4882
C20 C 0.70481(12) 0.0946(3) 0.53052(17)
C21 C 0.65442(12) 0.1277(3) 0.52884(17)
H16 H 0.6423 0.1901 0.5588
C22 C 0.74116(12) 0.1568(4) 0.57923(17)
C23 C 0.74886(12) 0.3256(4) 0.66911(19)
C24 C 0.79993(12) 0.3223(3) 0.68099(18)
H17 H 0.8200 0.2725 0.6528
C25 C 0.79283(14) 0.4603(4) 0.7731(2)
H18 H 0.8078 0.5062 0.8087
C26 C 0.74201(15) 0.4676(5) 0.7641(3)
H19 H 0.7228 0.5180 0.7930
C27 C 0.72036(15) 0.4000(5) 0.7123(3)
H20 H 0.6860 0.4038 0.7058
Zn1_2 Zn 0.395942(14) 1.11974(4) 0.24689(2)
Zn1G Zn 0.895942(14) 0.38026(4) 0.74689(2)
O4_2 O 0.43335(8) -0.0246(2) 0.20155(11)
N4G N 0.32120(10) 0.1101(3) 0.23265(15)
O8 O 0.64498(12) 0.4495(4) 0.5896(2)
H21 H 0.6175 0.4692 0.6216
H22 H 0.6628 0.5066 0.5698
O9 O 0.8714(2) 0.0034(6) 0.5444(3)
H23 H 0.8846 0.0988 0.5425
H24 H 0.8550 -0.0271 0.5771
loop_
_geom_bond_atom_site_label_1
_geom_bond_atom_site_label_2
_geom_bond_site_symmetry_1
_geom_bond_site_symmetry_2
Zn1 O1 1_555 1_555
O1 C1 1_555 1_555
N1 Zn1 1_555 1_555
C1 O2 1_555 1_555
C2 C1 1_555 1_555
N2 H1 1_555 1_555
O3 C5 1_555 1_555
C3 C2 1_555 1_555
H2 C3 1_555 1_555
N3 H3 1_555 1_555
O4 C5 1_555 1_555
C4 C3 1_555 1_555
N4 C24 1_555 1_555
O5 H4 1_555 1_555
C5 C4 1_555 1_555
C6 C4 1_555 1_555
H5 C6 1_555 1_555
O6 C14 1_555 1_555
O7 C22 1_555 1_555
C7 O5 1_555 1_555
C8 C2 1_555 1_555
H6 C8 1_555 1_555
C9 N1 1_555 1_555
H7 C9 1_555 1_555
C10 N1 1_555 1_555
H8 C10 1_555 1_555
C11 C10 1_555 1_555
H9 C11 1_555 1_555
C12 C11 1_555 1_555
H10 C12 1_555 1_555
C13 N2 1_555 1_555
C14 N2 1_555 1_555
C15 C14 1_555 1_555
C16 C15 1_555 1_555
H11 C16 1_555 1_555
C17 C16 1_555 1_555
C18 C17 1_555 1_555
H12 C18 1_555 1_555
H13 C18 1_555 1_555
H14 C18 1_555 1_555
C19 C17 1_555 1_555
H15 C19 1_555 1_555
C20 C19 1_555 1_555
C21 C15 1_555 1_555
H16 C21 1_555 1_555
C22 N3 1_555 1_555
C23 N3 1_555 1_555
C24 C23 1_555 1_555
H17 C24 1_555 1_555
C25 N4 1_555 1_555
H18 C25 1_555 1_555
C26 C25 1_555 1_555
H19 C26 1_555 1_555
C27 C23 1_555 1_555
H20 C27 1_555 1_555
O8 H21 1_555 1_555
H22 O8 1_555 1_555
O9 H23 1_555 1_555
H24 O9 1_555 1_555
Zn1_2 O4 1_555 1_555
Zn1G N4 1_555 1_555
O4_2 Zn1 1_555 1_555
N4G Zn1 1_555 1_555
C6 C7 1_555 1_555
C7 C8 1_555 1_555
C9 C13 1_555 1_555
C12 C13 1_555 1_555
C20 C21 1_555 1_555
C20 C22 1_555 1_555
C26 C27 1_555 1_555

#END
