
#######################################################################
#
#                 Cambridge Crystallographic Data Centre
#                                CCDC 
#
#######################################################################
#
# If this CIF has been generated from an entry in the Cambridge 
# Structural Database, then it will include bibliographic, chemical, 
# crystal, experimental, refinement or atomic coordinate data resulting 
# from the CCDC's data processing and validation procedures.
#
#######################################################################

data_UGELEX
_symmetry_cell_setting           orthorhombic
_symmetry_space_group_name_H-M   'C 2 2 21'
_symmetry_Int_Tables_number      20
_space_group_name_Hall           'C 2n 2'
loop_
_symmetry_equiv_pos_site_id
_symmetry_equiv_pos_as_xyz
1 x,y,z
2 x,-y,-z
3 -x,-y,1/2+z
4 -x,y,1/2-z
5 1/2+x,1/2+y,z
6 1/2+x,1/2-y,-z
7 1/2-x,1/2-y,1/2+z
8 1/2-x,1/2+y,1/2-z
_cell_length_a                   7.422(2)
_cell_length_b                   8.011(3)
_cell_length_c                   21.526(3)
_cell_angle_alpha                90
_cell_angle_beta                 90
_cell_angle_gamma                90
_cell_volume                     1279.89
loop_
_atom_site_label
_atom_site_type_symbol
_atom_site_fract_x
_atom_site_fract_y
_atom_site_fract_z
Ag1 Ag 0.12011(4) -0.43654(4) -0.07620(1)
O1 O 0.3892(4) -0.4935(4) -0.0989(2)
O2 O 0.4961(4) -0.2762(4) -0.0446(1)
O3 O 0.6461(5) -0.2631(3) -0.1891(1)
N1 N 0.8474(4) -0.3546(4) -0.0714(1)
N2 N 0.7346(7) -0.4493(4) -0.2618(2)
C1 C 0.5151(5) -0.4033(4) -0.0763(2)
C2 C 0.7066(5) -0.4734(4) -0.0885(2)
C3 C 0.7290(5) -0.5366(4) -0.1542(2)
C4 C 0.7016(5) -0.4043(5) -0.2034(2)
H1 H 0.7204 -0.5676 -0.0614
H2 H 0.8319 -0.3225 -0.0291
H3 H 0.8373 -0.2586 -0.0971
H4 H 0.6418 -0.6236 -0.1613
H5 H 0.8462 -0.5838 -0.1586
H6 H 0.7724 -0.5606 -0.2702
H7 H 0.7227 -0.3713 -0.2944
N1_2 N -0.1526(4) -0.3546(4) -0.0714(1)
Ag1_2 Ag 1.12011(4) -0.43654(4) -0.07620(1)
H2_2 H -0.1681 -0.3225 -0.0291
H3_2 H -0.1627 -0.2586 -0.0971
loop_
_geom_bond_atom_site_label_1
_geom_bond_atom_site_label_2
_geom_bond_site_symmetry_1
_geom_bond_site_symmetry_2
Ag1 O1 1_555 1_555
O1 C1 1_555 1_555
O2 C1 1_555 1_555
O3 C4 1_555 1_555
N1 C2 1_555 1_555
N2 C4 1_555 1_555
C1 C2 1_555 1_555
C2 C3 1_555 1_555
C3 C4 1_555 1_555
H1 C2 1_555 1_555
H2 N1 1_555 1_555
H3 N1 1_555 1_555
H4 C3 1_555 1_555
H5 C3 1_555 1_555
H6 N2 1_555 1_555
H7 N2 1_555 1_555
N1_2 Ag1 1_555 1_555
Ag1_2 N1 1_555 1_555
H2_2 N1_2 1_555 1_555
H3_2 N1_2 1_555 1_555

#END
