
#######################################################################
#
#                 Cambridge Crystallographic Data Centre
#                                CCDC 
#
#######################################################################
#
# If this CIF has been generated from an entry in the Cambridge 
# Structural Database, then it will include bibliographic, chemical, 
# crystal, experimental, refinement or atomic coordinate data resulting 
# from the CCDC's data processing and validation procedures.
#
#######################################################################

data_UGEMEZ
_symmetry_cell_setting           monoclinic
_symmetry_space_group_name_H-M   'P 21/n'
_symmetry_Int_Tables_number      14
_space_group_name_Hall           '-P 2yn'
loop_
_symmetry_equiv_pos_site_id
_symmetry_equiv_pos_as_xyz
1 x,y,z
2 1/2-x,1/2+y,1/2-z
3 -x,-y,-z
4 1/2+x,1/2-y,1/2+z
_cell_length_a                   10.3572(15)
_cell_length_b                   8.9686(13)
_cell_length_c                   22.593(3)
_cell_angle_alpha                90
_cell_angle_beta                 94.588(2)
_cell_angle_gamma                90
_cell_volume                     2091.93
loop_
_atom_site_label
_atom_site_type_symbol
_atom_site_fract_x
_atom_site_fract_y
_atom_site_fract_z
O1 O 0.03282(16) 0.44376(18) 0.92274(7)
O2 O -0.21065(13) 0.41846(15) 0.97126(7)
Pr1 Pr 0.027654(9) 0.752980(10) 1.012879(4)
O3 O 0.06027(13) 1.03449(15) 1.05266(6)
O4 O -0.18490(13) 0.66788(15) 0.96973(7)
O5 O -0.16274(15) 0.85587(17) 1.07411(7)
O6 O 0.14155(14) 0.85402(15) 1.11095(6)
O7 O 0.23524(16) 0.88678(18) 0.98695(8)
C1 C 0.12458(18) 0.9889(2) 1.09967(8)
N1 N -0.44692(16) 0.4328(2) 0.91085(8)
C2 C 0.1804(3) 1.1078(2) 1.14229(10)
H1 H 0.2470 1.1625 1.1236
H2 H 0.1125 1.1776 1.1504
O8 O 0.07467(15) 0.68455(16) 0.91011(6)
N2 N -0.55830(18) 0.4109(2) 0.93575(9)
C3 C -0.24448(18) 0.5481(2) 0.95767(8)
N3 N 0.2356(2) 1.0452(2) 1.19797(8)
C4 C -0.37304(19) 0.5702(2) 0.92022(10)
H3 H -0.4251 0.6422 0.9398
H4 H -0.3555 0.6112 0.8819
N4 N 0.2143(2) 0.6293(2) 0.81457(8)
C5 C 0.07997(18) 0.5504(2) 0.89580(8)
C6 C 0.1475(2) 0.5070(2) 0.84100(10)
H5 H 0.2097 0.4288 0.8517
H6 H 0.0837 0.4666 0.8115
N5 N 0.1612(3) 1.0096(3) 1.24124(11)
N6 N -0.5989(2) 0.2799(2) 0.91864(10)
N7 N -0.5153(2) 0.2140(3) 0.88269(12)
C7 C -0.4217(2) 0.3128(3) 0.87920(12)
H7 H -0.3492 0.3004 0.8579
N8 N 0.2648(4) 0.8271(4) 0.76795(14)
N9 N 0.3419(3) 0.6487(4) 0.82551(13)
N10 N 0.3575(3) 0.9354(4) 1.26648(12)
N11 N 0.2353(3) 0.9442(4) 1.28206(11)
C8 C 0.3546(3) 0.9988(3) 1.21395(13)
H8 H 0.4254 1.0094 1.1914
N12 N 0.3702(4) 0.7691(4) 0.79722(19)
C9 C 0.1688(4) 0.7383(3) 0.77943(14)
H9 H 0.0828 0.7503 0.7651
C10 C -0.1555(2) 0.9090(3) 1.13458(11)
H10 H -0.2402 0.9387 1.1445
H11 H -0.0979 0.9928 1.1386
H12 H -0.1237 0.8308 1.1609
C11 C 0.3513(2) 0.8383(3) 0.96353(14)
H13 H 0.4077 0.9221 0.9597
H14 H 0.3312 0.7940 0.9252
H15 H 0.3935 0.7661 0.9898
H16 H -0.219(3) 0.810(3) 1.0702(13)
H17 H 0.219(3) 0.959(3) 0.9748(14)
O1B O -0.03282(16) 0.55624(18) 1.07726(7)
O2B O 0.21065(13) 0.58154(15) 1.02874(7)
Pr1B Pr -0.027654(9) 0.247020(10) 0.987121(4)
Pr1B_2 Pr -0.027654(9) 1.247020(10) 0.987121(4)
O3B O -0.06027(13) 0.96551(15) 0.94734(6)
loop_
_geom_bond_atom_site_label_1
_geom_bond_atom_site_label_2
_geom_bond_site_symmetry_1
_geom_bond_site_symmetry_2
O1 C5 1_555 1_555
O2 C3 1_555 1_555
Pr1 O3 1_555 1_555
O3 C1 1_555 1_555
O4 Pr1 1_555 1_555
O5 Pr1 1_555 1_555
O6 Pr1 1_555 1_555
O7 Pr1 1_555 1_555
C1 O6 1_555 1_555
N1 N2 1_555 1_555
C2 C1 1_555 1_555
H1 C2 1_555 1_555
H2 C2 1_555 1_555
O8 Pr1 1_555 1_555
N2 N6 1_555 1_555
C3 O4 1_555 1_555
N3 C2 1_555 1_555
C4 N1 1_555 1_555
H3 C4 1_555 1_555
H4 C4 1_555 1_555
N4 C6 1_555 1_555
C5 O8 1_555 1_555
C6 C5 1_555 1_555
H5 C6 1_555 1_555
H6 C6 1_555 1_555
N5 N3 1_555 1_555
N6 N7 1_555 1_555
N7 C7 1_555 1_555
C7 N1 1_555 1_555
H7 C7 1_555 1_555
N8 N12 1_555 1_555
N9 N4 1_555 1_555
N10 N11 1_555 1_555
N11 N5 1_555 1_555
C8 N3 1_555 1_555
H8 C8 1_555 1_555
N12 N9 1_555 1_555
C9 N4 1_555 1_555
H9 C9 1_555 1_555
C10 O5 1_555 1_555
H10 C10 1_555 1_555
H11 C10 1_555 1_555
H12 C10 1_555 1_555
C11 O7 1_555 1_555
H13 C11 1_555 1_555
H14 C11 1_555 1_555
H15 C11 1_555 1_555
H16 O5 1_555 1_555
H17 O7 1_555 1_555
O1B Pr1 1_555 1_555
O2B Pr1 1_555 1_555
Pr1B O1 1_555 1_555
Pr1B_2 O3 1_555 1_555
O3B Pr1 1_555 1_555
O2 Pr1B 1_555 1_555
C3 C4 1_555 1_555
N8 C9 1_555 1_555
N10 C8 1_555 1_555
Pr1B_2 O3B 1_555 1_555

#END
