
#######################################################################
#
#                 Cambridge Crystallographic Data Centre
#                                CCDC 
#
#######################################################################
#
# If this CIF has been generated from an entry in the Cambridge 
# Structural Database, then it will include bibliographic, chemical, 
# crystal, experimental, refinement or atomic coordinate data resulting 
# from the CCDC's data processing and validation procedures.
#
#######################################################################

data_UGEMIE
_symmetry_cell_setting           monoclinic
_symmetry_space_group_name_H-M   'P 21/n'
_symmetry_Int_Tables_number      14
_space_group_name_Hall           '-P 2yn'
loop_
_symmetry_equiv_pos_site_id
_symmetry_equiv_pos_as_xyz
1 x,y,z
2 1/2-x,1/2+y,1/2-z
3 -x,-y,-z
4 1/2+x,1/2-y,1/2+z
_cell_length_a                   9.6800(19)
_cell_length_b                   24.270(5)
_cell_length_c                   23.410(5)
_cell_angle_alpha                90
_cell_angle_beta                 90.07(3)
_cell_angle_gamma                90
_cell_volume                     5499.79
loop_
_atom_site_label
_atom_site_type_symbol
_atom_site_fract_x
_atom_site_fract_y
_atom_site_fract_z
Cu1 Cu 0.37966(3) -0.00959(2) 0.47484(2)
O1 O 0.1228(3) 0.56024(11) 0.54002(15)
H1 H 0.102(6) 0.5868(15) 0.560(2)
O2 O 0.2655(3) 0.62628(9) 0.51371(11)
O3 O 0.4161(2) 0.06251(7) 0.43954(8)
O4 O 0.8016(2) 0.47373(8) 0.04340(8)
O5 O 0.6149(2) 0.07981(7) 0.48462(9)
O6 O 1.0054(2) 0.45627(9) 0.08404(8)
O7 O 0.1889(3) -0.02412(11) 0.43286(11)
O8 O 0.6707(3) 0.59062(10) 0.39280(13)
O9 O 0.6183(3) 0.66812(10) 0.44133(13)
O10 O 1.0119(3) 0.29143(12) 0.20562(16)
O11 O 1.1705(4) 0.31689(15) 0.14158(16)
O12 O 0.5232(3) 0.13625(9) 0.24679(9)
O13 O 0.4132(3) 0.05515(9) 0.26393(10)
N1 N 0.4766(3) 0.59870(9) 0.44700(11)
H2 H 0.435(3) 0.6199(13) 0.4706(13)
N2 N 0.9952(3) 0.37008(12) 0.15490(13)
H3 H 1.039(4) 0.3851(16) 0.1280(13)
N3 N 0.4398(3) 0.11316(9) 0.33440(10)
H4 H 0.415(4) 0.0853(11) 0.3548(14)
C1 C 0.5969(3) 0.32524(10) 0.30604(11)
H5 H 0.6354 0.2975 0.2837
C2 C 0.5374(3) 0.31227(9) 0.35862(10)
C3 C 0.4788(3) 0.35378(9) 0.39127(10)
H6 H 0.4392 0.3449 0.4263
C4 C 0.4777(3) 0.40853(9) 0.37300(10)
C5 C 0.5386(3) 0.42059(9) 0.32030(11)
H7 H 0.5388 0.4568 0.3073
C6 C 0.5987(3) 0.37986(10) 0.28687(11)
C7 C 0.6664(3) 0.39503(9) 0.23202(11)
C8 C 0.6041(3) 0.43316(12) 0.19535(12)
H8 H 0.5167 0.4469 0.2035
C9 C 0.6730(3) 0.45014(11) 0.14710(12)
H9 H 0.6309 0.4755 0.1229
C10 C 0.7936(3) 0.37328(10) 0.21763(11)
H10 H 0.8326 0.3463 0.2408
C11 C 0.8647(3) 0.39068(10) 0.16940(11)
C12 C 0.4148(3) 0.45241(9) 0.40849(10)
C13 C 0.2941(3) 0.44228(10) 0.43930(12)
H11 H 0.2522 0.4079 0.4375
C14 C 0.2374(3) 0.48336(11) 0.47235(12)
H12 H 0.1578 0.4760 0.4932
C15 C 0.2961(3) 0.53570(10) 0.47535(11)
C16 C 0.4169(3) 0.54619(10) 0.44389(10)
C17 C 0.4751(3) 0.50409(10) 0.41113(11)
H13 H 0.5558 0.5109 0.3908
C18 C 0.2286(3) 0.57851(12) 0.51111(13)
C19 C 0.5373(3) 0.25466(9) 0.38048(10)
C20 C 0.4968(3) 0.21108(10) 0.34593(10)
H14 H 0.4755 0.2175 0.3078
C21 C 0.4878(3) 0.15760(9) 0.36788(10)
C22 C 0.5258(3) 0.14813(9) 0.42461(10)
C23 C 0.5711(3) 0.19161(10) 0.45815(10)
H15 H 0.5993 0.1849 0.4955
C24 C 0.5751(3) 0.24470(10) 0.43709(11)
H16 H 0.6028 0.2737 0.4605
C25 C 0.5192(3) 0.09231(9) 0.45154(9)
C26 C 0.8754(3) 0.45493(9) 0.08299(10)
C27 C 0.8036(3) 0.43054(9) 0.13353(10)
C28 C 0.4659(4) 0.10476(11) 0.27802(12)
C29 C 1.0547(4) 0.32273(14) 0.17173(15)
C30 C 0.5969(4) 0.61608(12) 0.42387(14)
C31 C 0.4399(5) 0.02901(16) 0.20827(15)
C32 C 0.3817(8) 0.0635(2) 0.1611(2)
H17 H 0.2856 0.0703 0.1682
H18 H 0.3920 0.0445 0.1255
H19 H 0.4304 0.0980 0.1595
C33 C 0.5922(7) 0.0201(2) 0.2014(3)
H20 H 0.6373 0.0550 0.1961
H21 H 0.6087 -0.0028 0.1687
H22 H 0.6283 0.0025 0.2350
C34 C 0.3638(7) -0.0256(2) 0.2145(2)
H23 H 0.4025 -0.0460 0.2458
H24 H 0.3731 -0.0465 0.1799
H25 H 0.2677 -0.0187 0.2217
C35 C 0.7483(5) 0.69709(17) 0.4257(2)
C36 C 0.7593(6) 0.7028(2) 0.3617(2)
H26 H 0.8267 0.7304 0.3525
H27 H 0.6712 0.7134 0.3463
H28 H 0.7869 0.6682 0.3454
C37 C 0.8675(6) 0.6669(3) 0.4507(3)
H29 H 0.8500 0.6597 0.4904
H30 H 0.9495 0.6888 0.4471
H31 H 0.8799 0.6327 0.4309
C38 C 0.7211(8) 0.7540(3) 0.4509(4)
H32 H 0.7165 0.7514 0.4918
H33 H 0.6351 0.7680 0.4364
H34 H 0.7946 0.7785 0.4403
C39 C 1.2649(6) 0.2699(3) 0.1471(3)
C40 C 1.3220(10) 0.2657(5) 0.2022(3)
H35 H 1.3294 0.3017 0.2188
H36 H 1.4121 0.2493 0.1999
H37 H 1.2635 0.2431 0.2256
C41 C 1.1897(11) 0.2204(4) 0.1276(7)
H38 H 1.1535 0.2011 0.1601
H39 H 1.2516 0.1968 0.1070
H40 H 1.1150 0.2312 0.1030
C42 C 1.3765(11) 0.2854(6) 0.1044(5)
H41 H 1.4657 0.2783 0.1208
H42 H 1.3689 0.3239 0.0953
H43 H 1.3654 0.2640 0.0703
Cu1A Cu 1.12034(3) 0.49041(2) 0.02516(2)
Cu1B Cu 0.62034(3) 0.00959(2) 0.52516(2)
Cu1C Cu 0.87966(3) 0.50959(2) -0.02516(2)
O4C O 0.3016(2) 0.02627(8) 0.54340(8)
O5B O 0.3851(2) -0.07981(7) 0.51538(9)
O6A O 0.4946(2) -0.04373(9) 0.41596(8)
O14 O 0.0029(4) 0.36597(16) 0.40093(18)
N4 N 0.0078(5) 0.2822(2) 0.3668(3)
C43 C 0.1474(7) 0.2847(5) 0.3496(5)
H44 H 0.1520 0.2928 0.3095
H45 H 0.1911 0.2499 0.3569
H46 H 0.1941 0.3131 0.3707
C44 C -0.0518(5) 0.3244(2) 0.3913(3)
H47 H -0.1441 0.3209 0.4017
C45 C -0.0713(10) 0.2361(4) 0.3437(7)
H48 H -0.1681 0.2443 0.3459
H49 H -0.0519 0.2035 0.3655
H50 H -0.0458 0.2302 0.3046
O15 O 1.0581(6) 0.0568(2) 0.3736(3)
N5 N 0.9526(7) 0.0925(2) 0.3001(3)
C46 C 0.9693(19) 0.1047(6) 0.2431(5)
H51 H 1.0660 0.1079 0.2346
H52 H 0.9239 0.1390 0.2346
H53 H 0.9296 0.0759 0.2203
C47 C 0.8199(9) 0.0982(3) 0.3274(6)
H54 H 0.7606 0.0686 0.3156
H55 H 0.7793 0.1328 0.3168
H56 H 0.8316 0.0969 0.3681
C48 C 1.0587(9) 0.0729(3) 0.3262(4)
H57 H 1.1416 0.0713 0.3062
O16 O -0.0080(8) -0.0847(4) 0.4886(4)
loop_
_geom_bond_atom_site_label_1
_geom_bond_atom_site_label_2
_geom_bond_site_symmetry_1
_geom_bond_site_symmetry_2
Cu1 O3 1_555 1_555
O1 H1 1_555 1_555
O2 C18 1_555 1_555
O3 C25 1_555 1_555
O4 C26 1_555 1_555
O5 C25 1_555 1_555
O6 C26 1_555 1_555
O7 Cu1 1_555 1_555
O8 C30 1_555 1_555
O9 C30 1_555 1_555
O10 C29 1_555 1_555
O11 C29 1_555 1_555
O12 C28 1_555 1_555
O13 C28 1_555 1_555
N1 H2 1_555 1_555
N2 H3 1_555 1_555
N3 H4 1_555 1_555
C1 H5 1_555 1_555
C2 C1 1_555 1_555
C3 C2 1_555 1_555
H6 C3 1_555 1_555
C4 C3 1_555 1_555
C5 C4 1_555 1_555
H7 C5 1_555 1_555
C6 C1 1_555 1_555
C7 C6 1_555 1_555
C8 C7 1_555 1_555
H8 C8 1_555 1_555
C9 C8 1_555 1_555
H9 C9 1_555 1_555
C10 C7 1_555 1_555
H10 C10 1_555 1_555
C11 N2 1_555 1_555
C12 C4 1_555 1_555
C13 C12 1_555 1_555
H11 C13 1_555 1_555
C14 C13 1_555 1_555
H12 C14 1_555 1_555
C15 C14 1_555 1_555
C16 N1 1_555 1_555
C17 C12 1_555 1_555
H13 C17 1_555 1_555
C18 O1 1_555 1_555
C19 C2 1_555 1_555
C20 C19 1_555 1_555
H14 C20 1_555 1_555
C21 N3 1_555 1_555
C22 C21 1_555 1_555
C23 C22 1_555 1_555
H15 C23 1_555 1_555
C24 C19 1_555 1_555
H16 C24 1_555 1_555
C25 C22 1_555 1_555
C26 C27 1_555 1_555
C27 C9 1_555 1_555
C28 N3 1_555 1_555
C29 N2 1_555 1_555
C30 N1 1_555 1_555
C31 O13 1_555 1_555
C32 C31 1_555 1_555
H17 C32 1_555 1_555
H18 C32 1_555 1_555
H19 C32 1_555 1_555
C33 C31 1_555 1_555
H20 C33 1_555 1_555
H21 C33 1_555 1_555
H22 C33 1_555 1_555
C34 C31 1_555 1_555
H23 C34 1_555 1_555
H24 C34 1_555 1_555
H25 C34 1_555 1_555
C35 O9 1_555 1_555
C36 C35 1_555 1_555
H26 C36 1_555 1_555
H27 C36 1_555 1_555
H28 C36 1_555 1_555
C37 C35 1_555 1_555
H29 C37 1_555 1_555
H30 C37 1_555 1_555
H31 C37 1_555 1_555
C38 C35 1_555 1_555
H32 C38 1_555 1_555
H33 C38 1_555 1_555
H34 C38 1_555 1_555
C39 O11 1_555 1_555
C40 C39 1_555 1_555
H35 C40 1_555 1_555
H36 C40 1_555 1_555
H37 C40 1_555 1_555
C41 C39 1_555 1_555
H38 C41 1_555 1_555
H39 C41 1_555 1_555
H40 C41 1_555 1_555
C42 C39 1_555 1_555
H41 C42 1_555 1_555
H42 C42 1_555 1_555
H43 C42 1_555 1_555
O14 C44 1_555 1_555
N4 C43 1_555 1_555
C43 H44 1_555 1_555
H45 C43 1_555 1_555
H46 C43 1_555 1_555
C44 N4 1_555 1_555
H47 C44 1_555 1_555
C45 N4 1_555 1_555
H48 C45 1_555 1_555
H49 C45 1_555 1_555
H50 C45 1_555 1_555
O15 C48 1_555 1_555
N5 C46 1_555 1_555
C46 H51 1_555 1_555
H52 C46 1_555 1_555
H53 C46 1_555 1_555
C47 N5 1_555 1_555
H54 C47 1_555 1_555
H55 C47 1_555 1_555
H56 C47 1_555 1_555
C48 N5 1_555 1_555
H57 C48 1_555 1_555
Cu1A O6 1_555 1_555
Cu1B Cu1 1_555 1_555
Cu1C O4 1_555 1_555
O4C Cu1 1_555 1_555
O5B Cu1 1_555 1_555
O6A Cu1 1_555 1_555
O5 Cu1B 1_555 1_555
C5 C6 1_555 1_555
C10 C11 1_555 1_555
C11 C27 1_555 1_555
C15 C16 1_555 1_555
C15 C18 1_555 1_555
C16 C17 1_555 1_555
C20 C21 1_555 1_555
C23 C24 1_555 1_555
Cu1A Cu1C 1_555 1_555

#END
