
#######################################################################
#
#                 Cambridge Crystallographic Data Centre
#                                CCDC 
#
#######################################################################
#
# If this CIF has been generated from an entry in the Cambridge 
# Structural Database, then it will include bibliographic, chemical, 
# crystal, experimental, refinement or atomic coordinate data resulting 
# from the CCDC's data processing and validation procedures.
#
#######################################################################

data_UGENOJ
_symmetry_cell_setting           triclinic
_symmetry_space_group_name_H-M   'P -1'
_symmetry_Int_Tables_number      2
_space_group_name_Hall           '-P 1'
loop_
_symmetry_equiv_pos_site_id
_symmetry_equiv_pos_as_xyz
1 x,y,z
2 -x,-y,-z
_cell_length_a                   12.884(3)
_cell_length_b                   17.663(4)
_cell_length_c                   18.225(4)
_cell_angle_alpha                111.46(3)
_cell_angle_beta                 99.24(3)
_cell_angle_gamma                104.03(3)
_cell_volume                     3599.26
loop_
_atom_site_label
_atom_site_type_symbol
_atom_site_fract_x
_atom_site_fract_y
_atom_site_fract_z
Gd1 Gd -0.00204(2) 0.689961(18) 0.280914(17)
Cu1 Cu -0.18883(6) 0.78431(5) 0.22346(5)
N1 N -0.3241(5) 0.7283(3) 0.1295(3)
O1 O -0.0538(4) 0.8146(3) 0.3085(3)
C1 C 0.3551(7) 0.5010(5) 0.2958(5)
H1 H 0.4123 0.4931 0.2661
H2 H 0.3083 0.4434 0.2874
C2 C -0.3614(6) 0.7773(4) 0.0866(4)
H3 H -0.4399 0.7462 0.0537
H4 H -0.3158 0.7824 0.0487
N2 N -0.1679(5) 0.9046(4) 0.2452(4)
Cu2 Cu 0.19168(6) 0.59519(5) 0.32652(4)
O2 O -0.1818(4) 0.6705(3) 0.2111(3)
C3 C 0.4109(6) 0.5541(5) 0.3853(5)
H5 H 0.4395 0.6153 0.3953
H6 H 0.4754 0.5367 0.4011
C4 C -0.3507(6) 0.8685(5) 0.1487(5)
H7 H -0.3928 0.8944 0.1201
H8 H -0.3849 0.8632 0.1923
N3 N 0.2852(5) 0.5415(4) 0.2618(4)
O3 O -0.1393(4) 0.5395(3) 0.2224(3)
C5 C 0.3345(7) 0.5453(6) 0.4392(5)
H9 H 0.3088 0.4845 0.4309
H10 H 0.3778 0.5805 0.4974
C6 C -0.2337(7) 0.9270(5) 0.1874(6)
H11 H -0.1968 0.9264 0.1436
H12 H -0.2340 0.9864 0.2169
C7 C -0.1142(6) 0.4650(4) 0.2237(4)
H13 H -0.1423 0.4182 0.1683
H14 H -0.1497 0.4466 0.2608
H15 H -0.0334 0.4793 0.2429
N4 N 0.2357(5) 0.5721(4) 0.4233(3)
O4 O 0.1062(4) 0.8215(3) 0.4207(3)
C8 C 0.2986(6) 0.5459(5) 0.1941(4)
H16 H 0.3559 0.5266 0.1748
C9 C 0.1857(6) 0.8280(4) 0.4902(4)
H17 H 0.1631 0.8530 0.5402
H18 H 0.2595 0.8649 0.4958
H19 H 0.1882 0.7705 0.4819
C10 C -0.0901(6) 0.9696(4) 0.3042(4)
H20 H -0.0887 1.0250 0.3080
N5 N -0.6622(5) 0.7287(4) 0.3767(4)
O5 O 0.1150(4) 0.6107(3) 0.2328(3)
C11 C -0.0053(5) 0.9677(4) 0.3647(4)
C12 C 0.2368(6) 0.5767(4) 0.1450(4)
C13 C 0.2666(6) 0.5752(5) 0.0725(4)
H21 H 0.3290 0.5584 0.0611
O6 O 0.0701(4) 0.6333(3) 0.3658(3)
C14 C 0.0667(6) 1.0486(4) 0.4264(4)
H22 H 0.0566 1.1002 0.4264
C15 C 0.2074(7) 0.5972(5) 0.0193(4)
H23 H 0.2298 0.5982 -0.0276
O7 O -0.0095(4) 0.6390(3) 0.1266(3)
C16 C 0.1514(6) 1.0529(5) 0.4865(5)
H24 H 0.1991 1.1073 0.5277
C17 C -0.0879(6) 0.6399(5) 0.0601(4)
H25 H -0.0981 0.5903 0.0089
H26 H -0.0589 0.6932 0.0539
H27 H -0.1596 0.6367 0.0727
C18 C 0.1131(6) 0.6184(5) 0.0350(4)
H28 H 0.0699 0.6323 -0.0024
O8 O -0.1056(4) 0.6778(3) 0.3858(3)
C19 C 0.1664(5) 0.9791(4) 0.4866(4)
H29 H 0.2241 0.9822 0.5284
C20 C 0.0817(5) 0.6192(4) 0.1053(4)
C21 C 0.0976(5) 0.8992(4) 0.4256(4)
C22 C 0.0102(5) 0.8930(4) 0.3639(4)
C23 C 0.0336(5) 0.6286(4) 0.4307(4)
N6 N 0.1505(4) 0.7935(3) 0.2614(3)
C24 C 0.2128(5) 0.8319(4) 0.2376(4)
N7 N 0.3947(6) 0.7913(5) 0.1207(5)
C25 C -0.2658(5) 0.5974(4) 0.1784(4)
C26 C 0.1463(5) 0.6030(4) 0.1641(4)
N8 N 0.2537(8) 1.3152(5) 0.3508(5)
C27 C -0.2490(5) 0.5248(4) 0.1853(4)
C28 C -0.0608(5) 0.6531(4) 0.4443(4)
N9 N 0.4631(6) 1.2858(5) 0.1773(5)
C29 C -0.3361(5) 0.4489(4) 0.1584(4)
H30 H -0.3232 0.4022 0.1680
C30 C -0.1008(6) 0.6537(5) 0.5115(4)
H31 H -0.1637 0.6714 0.5193
C31 C -0.4426(6) 0.4397(4) 0.1173(4)
H32 H -0.5026 0.3880 0.1002
C32 C -0.0478(6) 0.6284(5) 0.5671(4)
H33 H -0.0741 0.6282 0.6129
C33 C -0.4583(6) 0.5072(4) 0.1023(4)
H34 H -0.5293 0.5006 0.0714
C34 C 0.0429(6) 0.6038(4) 0.5541(4)
H35 H 0.0791 0.5863 0.5916
C35 C -0.3713(5) 0.5865(4) 0.1317(4)
C36 C 0.0852(5) 0.6033(4) 0.4864(4)
C37 C 0.1830(6) 0.5787(4) 0.4802(4)
H36 H 0.2138 0.5653 0.5231
C38 C -0.3912(5) 0.6519(4) 0.1069(4)
H37 H -0.4616 0.6367 0.0700
C39 C -0.5093(5) 1.0841(4) 0.3947(4)
N10 N -0.3405(6) 0.7892(4) 0.3070(4)
C40 C -0.5864(5) 1.0292(4) 0.4168(4)
H38 H -0.6383 1.0502 0.4428
C41 C -0.5875(5) 0.9474(4) 0.4015(4)
H39 H -0.6420 0.9113 0.4144
N11 N -0.6319(6) 1.2346(4) 0.4963(4)
N12 N -0.3798(6) 1.2678(4) 0.3642(4)
C42 C -0.4310(5) 1.0518(4) 0.3561(4)
H40 H -0.3806 1.0862 0.3389
C49 C -0.5905(6) 0.7748(4) 0.3666(4)
C50 C -0.4158(6) 0.8065(4) 0.3280(4)
C51 C -0.5036(6) 0.8329(4) 0.3538(4)
C52 C 0.3033(5) 0.9640(4) 0.2212(4)
C53 C 0.2422(5) 1.0110(4) 0.2686(4)
H45 H 0.1919 0.9840 0.2914
C54 C 0.2561(5) 1.0938(4) 0.2808(4)
H46 H 0.2165 1.1248 0.3133
C55 C 0.3307(6) 1.1357(4) 0.2449(4)
C56 C 0.3906(5) 1.0892(4) 0.1984(4)
H47 H 0.4401 1.1160 0.1750
C57 C 0.3783(5) 1.0061(4) 0.1866(4)
H48 H 0.4195 0.9760 0.1554
C58 C -0.1962(6) 0.7084(5) 0.4007(5)
H49 H -0.2591 0.6613 0.3964
H50 H -0.2185 0.7296 0.3600
H51 H -0.1732 0.7553 0.4558
C59 C 0.2899(5) 0.8787(4) 0.2077(4)
C60 C 0.3476(6) 0.8300(4) 0.1600(4)
C66 C 0.3433(6) 1.2208(4) 0.2554(4)
C67 C 0.2931(7) 1.2723(5) 0.3067(4)
C68 C 0.4103(6) 1.2584(4) 0.2128(5)
C69 C -0.5069(5) 0.9162(4) 0.3661(4)
C70 C -0.4290(5) 0.9720(4) 0.3444(4)
H61 H -0.3745 0.9522 0.3211
C71 C -0.5093(5) 1.1682(4) 0.4100(4)
C72 C -0.5776(6) 1.2045(4) 0.4572(4)
C73 C -0.4359(6) 1.2232(4) 0.3851(4)
N5_2 N 0.3378(5) 0.7287(4) 0.3767(4)
Cu2_2 Cu -0.80832(6) 0.59519(5) 0.32652(4)
O9 O 0.6401(10) 0.4647(7) 0.3505(6)
C63 C 0.7121(5) 0.4164(4) 0.3341(4)
H55 H 0.7259 0.4096 0.2811
H56 H 0.6780 0.3596 0.3324
H57 H 0.7827 0.4462 0.3774
N13 N 0.0576(6) 0.3645(5) 0.2244(5)
C43 C 0.1258(6) 0.1843(5) 0.1061(4)
C44 C 0.0542(6) 0.1408(5) 0.1421(4)
H41 H 0.0172 0.1713 0.1774
N14 N -0.0375(6) -0.1566(5) 0.1300(4)
N15 N 0.1770(7) -0.1691(5) -0.0309(5)
C45 C 0.0392(6) 0.0566(5) 0.1260(4)
H42 H -0.0089 0.0292 0.1499
C46 C 0.0944(6) 0.0089(5) 0.0741(4)
N16 N 0.2761(5) 0.3548(4) 0.0639(4)
C47 C 0.1644(6) 0.0519(5) 0.0380(4)
H43 H 0.2010 0.0211 0.0025
C48 C 0.1800(6) 0.1358(5) 0.0534(4)
H44 H 0.2274 0.1625 0.0287
C74 C 0.1448(6) 0.2721(5) 0.1241(5)
C75 C 0.0955(6) 0.3231(5) 0.1797(5)
C76 C 0.2175(6) 0.3173(5) 0.0905(4)
C77 C 0.0807(6) -0.0766(5) 0.0603(4)
C78 C 0.0140(6) -0.1200(5) 0.0987(4)
C79 C 0.1344(6) -0.1275(5) 0.0085(5)
N17 N 0.6197(9) 0.0389(6) 0.0951(7)
C64 C 0.5698(9) 0.1487(8) 0.0460(7)
H58 H 0.5638 0.1961 0.0925
H59 H 0.4986 0.1206 0.0033
H60 H 0.6282 0.1712 0.0237
C65 C 0.5974(9) 0.0869(7) 0.0730(7)
N18 N 0.8143(8) 0.2432(6) 0.2372(5)
C61 C 0.8319(8) 0.1888(5) 0.2799(5)
C62 C 0.8450(10) 0.1493(6) 0.3145(6)
H52 H 0.8611 0.1846 0.3734
H53 H 0.9077 0.1291 0.3035
H54 H 0.7775 0.0997 0.2967
loop_
_geom_bond_atom_site_label_1
_geom_bond_atom_site_label_2
_geom_bond_site_symmetry_1
_geom_bond_site_symmetry_2
Gd1 O1 1_555 1_555
Cu1 N1 1_555 1_555
N1 C2 1_555 1_555
O1 Cu1 1_555 1_555
C1 H1 1_555 1_555
H2 C1 1_555 1_555
C2 H3 1_555 1_555
H4 C2 1_555 1_555
N2 Cu1 1_555 1_555
Cu2 N3 1_555 1_555
O2 Gd1 1_555 1_555
C3 C1 1_555 1_555
H5 C3 1_555 1_555
H6 C3 1_555 1_555
C4 C2 1_555 1_555
H7 C4 1_555 1_555
H8 C4 1_555 1_555
N3 C1 1_555 1_555
O3 Gd1 1_555 1_555
C5 C3 1_555 1_555
H9 C5 1_555 1_555
H10 C5 1_555 1_555
C6 N2 1_555 1_555
H11 C6 1_555 1_555
H12 C6 1_555 1_555
C7 O3 1_555 1_555
H13 C7 1_555 1_555
H14 C7 1_555 1_555
H15 C7 1_555 1_555
N4 Cu2 1_555 1_555
O4 Gd1 1_555 1_555
C8 N3 1_555 1_555
H16 C8 1_555 1_555
C9 O4 1_555 1_555
H17 C9 1_555 1_555
H18 C9 1_555 1_555
H19 C9 1_555 1_555
C10 N2 1_555 1_555
H20 C10 1_555 1_555
N5 C49 1_555 1_555
O5 Gd1 1_555 1_555
C11 C10 1_555 1_555
C12 C8 1_555 1_555
C13 C12 1_555 1_555
H21 C13 1_555 1_555
O6 Gd1 1_555 1_555
C14 C11 1_555 1_555
H22 C14 1_555 1_555
C15 C13 1_555 1_555
H23 C15 1_555 1_555
O7 Gd1 1_555 1_555
C16 C14 1_555 1_555
H24 C16 1_555 1_555
C17 O7 1_555 1_555
H25 C17 1_555 1_555
H26 C17 1_555 1_555
H27 C17 1_555 1_555
C18 C15 1_555 1_555
H28 C18 1_555 1_555
O8 Gd1 1_555 1_555
C19 C16 1_555 1_555
H29 C19 1_555 1_555
C20 O7 1_555 1_555
C21 O4 1_555 1_555
C22 O1 1_555 1_555
C23 O6 1_555 1_555
N6 Gd1 1_555 1_555
O9 C63 1_555 1_555
C24 N6 1_555 1_555
N7 C60 1_555 1_555
C25 O2 1_555 1_555
C26 O5 1_555 1_555
N8 C67 1_555 1_555
C27 O3 1_555 1_555
C28 O8 1_555 1_555
N9 C68 1_555 1_555
C29 C27 1_555 1_555
H30 C29 1_555 1_555
C30 C28 1_555 1_555
H31 C30 1_555 1_555
C31 C29 1_555 1_555
H32 C31 1_555 1_555
C32 C30 1_555 1_555
H33 C32 1_555 1_555
C33 C31 1_555 1_555
H34 C33 1_555 1_555
C34 C32 1_555 1_555
H35 C34 1_555 1_555
C35 C25 1_555 1_555
C36 C23 1_555 1_555
C37 N4 1_555 1_555
H36 C37 1_555 1_555
C38 N1 1_555 1_555
H37 C38 1_555 1_555
C39 C40 1_555 1_555
N10 Cu1 1_555 1_555
C40 H38 1_555 1_555
C41 C40 1_555 1_555
H39 C41 1_555 1_555
N11 C72 1_555 1_555
N12 C73 1_555 1_555
C42 C39 1_555 1_555
H40 C42 1_555 1_555
N13 C75 1_555 1_555
C43 C44 1_555 1_555
C44 H41 1_555 1_555
N14 C78 1_555 1_555
N15 C79 1_555 1_555
C45 C44 1_555 1_555
H42 C45 1_555 1_555
C46 C45 1_555 1_555
N16 C76 1_555 1_555
C47 C46 1_555 1_555
H43 C47 1_555 1_555
C48 C43 1_555 1_555
H44 C48 1_555 1_555
N17 C65 1_555 1_555
N18 C61 1_555 1_555
C49 C51 1_555 1_555
C50 N10 1_555 1_555
C51 C50 1_555 1_555
C52 C53 1_555 1_555
C53 H45 1_555 1_555
C54 C53 1_555 1_555
H46 C54 1_555 1_555
C55 C54 1_555 1_555
C56 C55 1_555 1_555
H47 C56 1_555 1_555
C57 C52 1_555 1_555
H48 C57 1_555 1_555
C58 O8 1_555 1_555
H49 C58 1_555 1_555
H50 C58 1_555 1_555
H51 C58 1_555 1_555
C59 C24 1_555 1_555
C60 C59 1_555 1_555
C61 C62 1_555 1_555
C62 H52 1_555 1_555
H53 C62 1_555 1_555
H54 C62 1_555 1_555
C63 H55 1_555 1_555
H56 C63 1_555 1_555
H57 C63 1_555 1_555
C64 H58 1_555 1_555
H59 C64 1_555 1_555
H60 C64 1_555 1_555
C65 C64 1_555 1_555
C66 C55 1_555 1_555
C67 C66 1_555 1_555
C68 C66 1_555 1_555
C69 C41 1_555 1_555
C70 C42 1_555 1_555
H61 C70 1_555 1_555
C71 C39 1_555 1_555
C72 C71 1_555 1_555
C73 C71 1_555 1_555
C74 C43 1_555 1_555
C75 C74 1_555 1_555
C76 C74 1_555 1_555
C77 C46 1_555 1_555
C78 C77 1_555 1_555
C79 C77 1_555 1_555
N5_2 Cu2 1_555 1_555
Cu2_2 N5 1_555 1_555
Cu1 O2 1_555 1_555
Cu2 O5 1_555 1_555
Cu2 O6 1_555 1_555
C4 C6 1_555 1_555
C5 N4 1_555 1_555
C11 C22 1_555 1_555
C12 C26 1_555 1_555
C18 C20 1_555 1_555
C19 C21 1_555 1_555
C20 C26 1_555 1_555
C21 C22 1_555 1_555
C23 C28 1_555 1_555
C25 C27 1_555 1_555
C33 C35 1_555 1_555
C34 C36 1_555 1_555
C35 C38 1_555 1_555
C36 C37 1_555 1_555
C47 C48 1_555 1_555
C51 C69 1_555 1_555
C52 C59 1_555 1_555
C56 C57 1_555 1_555
C69 C70 1_555 1_555

#END
