
#######################################################################
#
#                 Cambridge Crystallographic Data Centre
#                                CCDC 
#
#######################################################################
#
# If this CIF has been generated from an entry in the Cambridge 
# Structural Database, then it will include bibliographic, chemical, 
# crystal, experimental, refinement or atomic coordinate data resulting 
# from the CCDC's data processing and validation procedures.
#
#######################################################################

data_UGENAX
_symmetry_cell_setting           monoclinic
_symmetry_space_group_name_H-M   'P c'
_symmetry_Int_Tables_number      7
_space_group_name_Hall           'P -2yc'
loop_
_symmetry_equiv_pos_site_id
_symmetry_equiv_pos_as_xyz
1 x,y,z
2 x,-y,1/2+z
_cell_length_a                   5.5263(11)
_cell_length_b                   17.491(4)
_cell_length_c                   9.7331(19)
_cell_angle_alpha                90
_cell_angle_beta                 92.05(3)
_cell_angle_gamma                90
_cell_volume                     940.204
loop_
_atom_site_label
_atom_site_type_symbol
_atom_site_fract_x
_atom_site_fract_y
_atom_site_fract_z
C1 C 0.9297(5) 0.99060(15) 1.1376(3)
C2 C 1.1296(5) 0.94669(17) 1.0746(3)
H1 H 1.2358 0.9266 1.1475
H2 H 1.2238 0.9814 1.0200
C3 C 1.0417(5) 0.88070(15) 0.9838(3)
C4 C 1.1633(6) 0.86504(19) 0.8659(3)
H3 H 1.2990 0.8938 0.8458
C5 C 1.0886(6) 0.8077(2) 0.7770(4)
H4 H 1.1709 0.7975 0.6974
C6 C 0.8876(6) 0.7661(2) 0.8105(4)
C7 C 0.7643(6) 0.77767(19) 0.9285(3)
H5 H 0.6328 0.7472 0.9499
C8 C 0.8429(6) 0.83642(18) 1.0149(3)
H6 H 0.7610 0.8462 1.0949
C9 C 0.2254(5) 1.23340(16) 0.8318(3)
C10 C 0.0740(5) 1.30045(18) 0.7880(4)
H7 H -0.0908 1.2914 0.8151
H8 H 0.0714 1.3034 0.6884
C11 C 0.1561(6) 1.37682(17) 0.8455(4)
C12 C 0.3458(10) 1.3866(2) 0.9398(5)
H9 H 0.4319 1.3440 0.9713
C13 C 0.4110(8) 1.4583(2) 0.9887(5)
H10 H 0.5367 1.4638 1.0540
C14 C 0.2878(6) 1.5206(2) 0.9394(4)
C15 C 0.0972(9) 1.5132(2) 0.8473(6)
H11 H 0.0120 1.5561 0.8164
C16 C 0.0327(8) 1.4415(2) 0.8005(5)
H12 H -0.0966 1.4365 0.7373
N1 N 0.8212(4) 1.05159(14) 1.0801(3)
N2 N 0.6472(4) 1.07369(14) 1.1688(3)
N3 N 0.6494(4) 1.02818(15) 1.2728(3)
N4 N 0.8260(5) 0.97500(15) 1.2558(3)
N5 N 0.7978(7) 0.7078(2) 0.7128(4)
N6 N 0.5192(5) 1.15927(15) 0.8756(3)
N7 N 0.3262(7) 1.12126(11) 0.9063(5)
N8 N 0.1370(4) 1.16764(15) 0.8804(3)
N9 N 0.4655(4) 1.22929(15) 0.8270(3)
N10 N 0.3568(8) 1.59627(19) 0.9914(4)
O1 O 0.6486(7) 0.6624(2) 0.7496(4)
O2 O 0.8760(8) 0.7065(3) 0.5979(4)
O3 O 0.5395(8) 1.60291(18) 1.0633(4)
O4 O 0.2274(7) 1.65035(18) 0.9593(4)
Zn1 Zn 0.83687(4) 1.106958(14) 0.90233(3)
N4A N 0.8260(5) 1.02500(15) 0.7558(3)
N8_2 N 1.1370(4) 1.16764(15) 0.8804(3)
Zn1_2 Zn -0.16313(4) 1.106958(14) 0.90233(3)
Zn1A Zn 0.83687(4) 0.893042(14) 1.40233(3)
loop_
_geom_bond_atom_site_label_1
_geom_bond_atom_site_label_2
_geom_bond_site_symmetry_1
_geom_bond_site_symmetry_2
C1 C2 1_555 1_555
C2 H1 1_555 1_555
H2 C2 1_555 1_555
C3 C2 1_555 1_555
C4 C3 1_555 1_555
H3 C4 1_555 1_555
C5 C4 1_555 1_555
H4 C5 1_555 1_555
C6 C5 1_555 1_555
C7 C6 1_555 1_555
H5 C7 1_555 1_555
C8 C3 1_555 1_555
H6 C8 1_555 1_555
C9 C10 1_555 1_555
C10 H7 1_555 1_555
H8 C10 1_555 1_555
C11 C10 1_555 1_555
C12 C11 1_555 1_555
H9 C12 1_555 1_555
C13 C12 1_555 1_555
H10 C13 1_555 1_555
C14 C13 1_555 1_555
C15 C14 1_555 1_555
H11 C15 1_555 1_555
C16 C11 1_555 1_555
H12 C16 1_555 1_555
N1 C1 1_555 1_555
N2 N1 1_555 1_555
N3 N2 1_555 1_555
N4 C1 1_555 1_555
N5 C6 1_555 1_555
N6 N7 1_555 1_555
N7 N8 1_555 1_555
N8 C9 1_555 1_555
N9 C9 1_555 1_555
N10 C14 1_555 1_555
O1 N5 1_555 1_555
O2 N5 1_555 1_555
O3 N10 1_555 1_555
O4 N10 1_555 1_555
Zn1 N1 1_555 1_555
N4A Zn1 1_555 1_555
N8_2 Zn1 1_555 1_555
Zn1_2 N8 1_555 1_555
Zn1A N4 1_555 1_555
C7 C8 1_555 1_555
C15 C16 1_555 1_555
N3 N4 1_555 1_555
N6 N9 1_555 1_555
N6 Zn1 1_555 1_555

#END
