
#######################################################################
#
#                 Cambridge Crystallographic Data Centre
#                                CCDC 
#
#######################################################################
#
# If this CIF has been generated from an entry in the Cambridge 
# Structural Database, then it will include bibliographic, chemical, 
# crystal, experimental, refinement or atomic coordinate data resulting 
# from the CCDC's data processing and validation procedures.
#
#######################################################################

data_UGENUP
_symmetry_cell_setting           orthorhombic
_symmetry_space_group_name_H-M   'A m a 2'
_symmetry_Int_Tables_number      40
_space_group_name_Hall           'A 2 -2a'
loop_
_symmetry_equiv_pos_site_id
_symmetry_equiv_pos_as_xyz
1 x,y,z
2 -x,-y,z
3 1/2+x,-y,z
4 1/2-x,y,z
5 x,1/2+y,1/2+z
6 -x,1/2-y,1/2+z
7 1/2+x,1/2-y,1/2+z
8 1/2-x,1/2+y,1/2+z
_cell_length_a                   20.649(2)
_cell_length_b                   8.9701(9)
_cell_length_c                   7.4121(7)
_cell_angle_alpha                90
_cell_angle_beta                 90
_cell_angle_gamma                90
_cell_volume                     1372.9
loop_
_atom_site_label
_atom_site_type_symbol
_atom_site_fract_x
_atom_site_fract_y
_atom_site_fract_z
Cu1 Cu 0.7500 1.00901(4) 0.59764(5)
N1 N 0.7500 0.8137(3) 0.7147(4)
C1 C 0.7500 0.6883(4) 0.7502(4)
S1 S 0.7500 0.50741(9) 0.79195(13)
N2 N 0.67154(10) 1.1266(2) 0.7012(3)
C2 C 0.66124(13) 1.1144(3) 0.8789(4)
H1 H 0.6847 1.0404 0.9432
C3 C 0.61848(13) 1.2031(3) 0.9742(3)
H2 H 0.6135 1.1912 1.1008
C4 C 0.58308(11) 1.3095(3) 0.8814(3)
C5 C 0.59185(12) 1.3205(3) 0.6963(4)
H3 H 0.5675 1.3902 0.6276
C6 C 0.63655(11) 1.2286(2) 0.6133(4)
H4 H 0.6427 1.2384 0.4868
C7 C 0.53832(12) 1.4100(3) 0.9801(4)
N3 N 0.5000 1.5000 0.8832(5)
C8 C 0.5000 1.5000 1.2410(5)
H5 H 0.5000 1.5000 1.3692
N4 N 0.53962(10) 1.4044(2) 1.1603(3)
C7A C 0.46168(12) 1.5900(3) 0.9801(4)
C4A C 0.41692(11) 1.6905(3) 0.8814(3)
C3A C 0.38152(13) 1.7969(3) 0.9742(3)
C2A C 0.33876(13) 1.8856(3) 0.8789(4)
N2A N 0.32846(10) 1.8734(2) 0.7012(3)
C6A C 0.36345(11) 1.7714(2) 0.6133(4)
C5A C 0.40815(12) 1.6795(3) 0.6963(4)
H3A H 0.4325 1.6098 0.6276
H4A H 0.3573 1.7616 0.4868
H1A H 0.3153 1.9596 0.9432
H2A H 0.3865 1.8088 1.1008
N4A N 0.46038(10) 1.5956(2) 1.1603(3)
S1D S 0.7500 1.00741(9) 0.29195(13)
N2C N 0.82846(10) 1.1266(2) 0.7012(3)
Cu1D Cu 0.7500 0.50901(4) 1.09764(5)
Cu1A Cu 0.2500 1.99099(4) 0.59764(5)
loop_
_geom_bond_atom_site_label_1
_geom_bond_atom_site_label_2
_geom_bond_site_symmetry_1
_geom_bond_site_symmetry_2
Cu1 N1 1_555 1_555
N1 C1 1_555 1_555
C1 S1 1_555 1_555
S1 Cu1D 1_555 1_555
N2 Cu1 1_555 1_555
C2 N2 1_555 1_555
H1 C2 1_555 1_555
C3 C2 1_555 1_555
H2 C3 1_555 1_555
C4 C3 1_555 1_555
C5 C4 1_555 1_555
H3 C5 1_555 1_555
C6 N2 1_555 1_555
H4 C6 1_555 1_555
C7 C4 1_555 1_555
N3 C7 1_555 1_555
C8 H5 1_555 1_555
N4 C7 1_555 1_555
C7A N3 1_555 1_555
C4A C7A 1_555 1_555
C3A C4A 1_555 1_555
C2A C3A 1_555 1_555
N2A C2A 1_555 1_555
C6A N2A 1_555 1_555
C5A C4A 1_555 1_555
H3A C5A 1_555 1_555
H4A C6A 1_555 1_555
H1A C2A 1_555 1_555
H2A C3A 1_555 1_555
N4A C8 1_555 1_555
S1D Cu1 1_555 1_555
N2C Cu1 1_555 1_555
Cu1A N2A 1_555 1_555
C5 C6 1_555 1_555
C8 N4 1_555 1_555
C7A N4A 1_555 1_555
C6A C5A 1_555 1_555

#END
