
#######################################################################
#
#                 Cambridge Crystallographic Data Centre
#                                CCDC 
#
#######################################################################
#
# If this CIF has been generated from an entry in the Cambridge 
# Structural Database, then it will include bibliographic, chemical, 
# crystal, experimental, refinement or atomic coordinate data resulting 
# from the CCDC's data processing and validation procedures.
#
#######################################################################

data_UGEPAX
_symmetry_cell_setting           triclinic
_symmetry_space_group_name_H-M   'P -1'
_symmetry_Int_Tables_number      2
_space_group_name_Hall           '-P 1'
loop_
_symmetry_equiv_pos_site_id
_symmetry_equiv_pos_as_xyz
1 x,y,z
2 -x,-y,-z
_cell_length_a                   5.6960(4)
_cell_length_b                   8.4957(6)
_cell_length_c                   14.178(1)
_cell_angle_alpha                83.643(1)
_cell_angle_beta                 82.941(1)
_cell_angle_gamma                84.974(1)
_cell_volume                     674.8
loop_
_atom_site_label
_atom_site_type_symbol
_atom_site_fract_x
_atom_site_fract_y
_atom_site_fract_z
Cu1 Cu 0.39204(4) 0.66040(3) 0.495133(19)
S1 S 0.62318(8) 0.54809(6) 0.62139(4)
C1 C 0.8840(3) 0.6196(2) 0.58277(14)
N1 N 1.0674(3) 0.6661(2) 0.55495(13)
N2 N 0.5873(3) 0.8096(2) 0.40589(12)
C2 C 0.5184(4) 0.9638(2) 0.38486(15)
H1 H 0.3666 1.0028 0.4121
C3 C 0.6563(3) 1.0680(2) 0.32605(15)
H2 H 0.6001 1.1760 0.3135
C4 C 0.8794(3) 1.0134(2) 0.28512(14)
C5 C 0.9539(3) 0.8548(2) 0.30665(15)
H3 H 1.1057 0.8136 0.2808
C6 C 0.8050(4) 0.7581(2) 0.36593(15)
H4 H 0.8576 0.6496 0.3795
C7 C 1.0290(3) 1.1227(2) 0.21974(14)
N3 N 0.9393(3) 1.2719(2) 0.20095(12)
C8 C 1.0835(3) 1.3680(2) 0.14470(14)
N4 N 1.3050(3) 1.3241(2) 0.10743(13)
C9 C 1.3717(4) 1.1713(3) 0.12895(16)
H5 H 1.5253 1.1349 0.1022
N5 N 1.2448(3) 1.0643(2) 0.18414(13)
C10 C 0.9922(3) 1.5353(2) 0.12265(14)
C11 C 1.1352(4) 1.6460(2) 0.06942(15)
H6 H 1.2937 1.6156 0.0452
C12 C 1.0416(4) 1.8011(2) 0.05262(15)
H7 H 1.1413 1.8759 0.0171
N6 N 0.8183(3) 1.8524(2) 0.08343(13)
C13 C 0.6829(4) 1.7446(3) 0.13314(15)
H8 H 0.5242 1.7782 0.1554
C14 C 0.7591(4) 1.5858(2) 0.15457(15)
H9 H 0.6550 1.5137 0.1901
S1A S 0.37682(8) 0.45191(6) 0.37861(4)
N1_2 N 0.0674(3) 0.6661(2) 0.55495(13)
Cu1A Cu 0.60796(4) 0.33960(3) 0.504867(19)
Cu1_2 Cu 1.39204(4) 0.66040(3) 0.495133(19)
loop_
_geom_bond_atom_site_label_1
_geom_bond_atom_site_label_2
_geom_bond_site_symmetry_1
_geom_bond_site_symmetry_2
Cu1 S1 1_555 1_555
S1 C1 1_555 1_555
C1 N1 1_555 1_555
N1 Cu1_2 1_555 1_555
N2 Cu1 1_555 1_555
C2 N2 1_555 1_555
H1 C2 1_555 1_555
C3 C2 1_555 1_555
H2 C3 1_555 1_555
C4 C3 1_555 1_555
C5 C4 1_555 1_555
H3 C5 1_555 1_555
C6 N2 1_555 1_555
H4 C6 1_555 1_555
C7 C4 1_555 1_555
N3 C7 1_555 1_555
C8 N3 1_555 1_555
N4 C8 1_555 1_555
C9 N4 1_555 1_555
H5 C9 1_555 1_555
N5 C7 1_555 1_555
C10 C8 1_555 1_555
C11 C10 1_555 1_555
H6 C11 1_555 1_555
C12 C11 1_555 1_555
H7 C12 1_555 1_555
N6 C12 1_555 1_555
C13 N6 1_555 1_555
H8 C13 1_555 1_555
C14 C10 1_555 1_555
H9 C14 1_555 1_555
S1A Cu1 1_555 1_555
N1_2 Cu1 1_555 1_555
Cu1A S1 1_555 1_555
C5 C6 1_555 1_555
C9 N5 1_555 1_555
C13 C14 1_555 1_555
S1A Cu1A 1_555 1_555

#END
