
#######################################################################
#
#                 Cambridge Crystallographic Data Centre
#                                CCDC 
#
#######################################################################
#
# If this CIF has been generated from an entry in the Cambridge 
# Structural Database, then it will include bibliographic, chemical, 
# crystal, experimental, refinement or atomic coordinate data resulting 
# from the CCDC's data processing and validation procedures.
#
#######################################################################

data_UGEVAF
_symmetry_cell_setting           triclinic
_symmetry_space_group_name_H-M   'P -1'
_symmetry_Int_Tables_number      2
_space_group_name_Hall           '-P 1'
loop_
_symmetry_equiv_pos_site_id
_symmetry_equiv_pos_as_xyz
1 x,y,z
2 -x,-y,-z
_cell_length_a                   7.566(2)
_cell_length_b                   14.982(4)
_cell_length_c                   16.438(5)
_cell_angle_alpha                99.274(5)
_cell_angle_beta                 92.849(5)
_cell_angle_gamma                93.377(5)
_cell_volume                     1832.44
loop_
_atom_site_label
_atom_site_type_symbol
_atom_site_fract_x
_atom_site_fract_y
_atom_site_fract_z
Cl1 Cl 0.18071(11) 0.23004(4) 0.26412(5)
Cl2 Cl 0.16148(10) 0.15601(5) 0.03709(4)
Na1 Na -0.09359(12) 0.40934(6) 0.04391(6)
Na2 Na 0.37429(12) 0.43633(6) 0.04984(6)
F1 F 0.3008(2) 0.38931(10) 0.16660(9)
F2 F 0.0035(2) 0.39168(10) 0.17968(9)
F3 F 0.42228(19) 0.30656(10) -0.03572(9)
F4 F 0.13791(18) 0.34124(9) -0.02813(9)
O1 O 0.1402(2) 0.53195(11) 0.07908(10)
O2 O 0.3491(2) 0.49103(12) -0.08667(11)
O3 O -0.3620(3) 0.12778(13) -0.01634(14)
O4 O -0.2229(2) 0.26591(12) 0.00328(12)
N1 N 0.1821(3) 0.53173(13) 0.21931(12)
N2 N 0.1991(3) 0.41219(13) 0.30470(12)
N3 N 0.2747(3) 0.34577(13) -0.15695(13)
N4 N 0.2003(3) 0.19905(14) -0.11361(13)
C1 C 0.3451(5) 0.8405(2) 0.66708(18)
H1 H 0.2340 0.8471 0.6949
H2 H 0.3874 0.8991 0.6535
H3 H 0.4344 0.8196 0.7036
C2 C 0.3139(3) 0.77237(18) 0.58895(15)
C3 C 0.2012(4) 0.69506(18) 0.58525(16)
H4 H 0.1416 0.6853 0.6329
C4 C 0.1737(3) 0.63202(18) 0.51385(16)
H5 H 0.0938 0.5805 0.5129
C5 C 0.2620(3) 0.64286(16) 0.44265(14)
C6 C 0.3753(3) 0.72041(16) 0.44624(14)
H6 H 0.4370 0.7297 0.3990
C7 C 0.3994(3) 0.78430(17) 0.51770(15)
H7 H 0.4755 0.8371 0.5182
C8 C 0.2338(3) 0.57400(16) 0.36673(14)
C9 C 0.2401(3) 0.47941(16) 0.37352(15)
C10 C 0.2874(3) 0.43766(18) 0.44018(16)
H8 H 0.3218 0.4673 0.4947
C11 C 0.2751(3) 0.34354(18) 0.41246(17)
H9 H 0.2991 0.2977 0.4444
C12 C 0.2219(3) 0.33108(16) 0.33062(16)
C13 C 0.2058(3) 0.59753(15) 0.29055(14)
C14 C 0.1968(3) 0.68473(16) 0.26398(15)
H10 H 0.2069 0.7419 0.2991
C15 C 0.1717(3) 0.67140(15) 0.18130(15)
H11 H 0.1618 0.7172 0.1479
C16 C 0.1625(3) 0.57381(15) 0.15201(14)
C17 C 0.1828(4) 0.0208(2) -0.59950(17)
H12 H 0.0766 -0.0212 -0.6093
H13 H 0.2886 -0.0134 -0.6082
H14 H 0.1776 0.0643 -0.6379
C18 C 0.1911(3) 0.07088(17) -0.51186(15)
C19 C 0.1018(3) 0.14926(17) -0.49111(16)
H15 H 0.0338 0.1714 -0.5328
C20 C 0.1104(3) 0.19580(17) -0.41046(16)
H16 H 0.0478 0.2490 -0.3979
C21 C 0.2095(3) 0.16556(16) -0.34785(15)
C22 C 0.3007(3) 0.08708(17) -0.36906(16)
H17 H 0.3700 0.0650 -0.3277
C23 C 0.2909(3) 0.04140(17) -0.44958(16)
H18 H 0.3541 -0.0115 -0.4625
C24 C 0.2189(3) 0.21237(16) -0.26068(15)
C25 C 0.2615(3) 0.30314(17) -0.23987(15)
C26 C 0.3017(3) 0.37216(17) -0.28885(17)
H19 H 0.3037 0.3632 -0.3473
C27 C 0.3361(4) 0.45174(18) -0.23778(17)
H20 H 0.3649 0.5086 -0.2540
C28 C 0.3214(3) 0.43533(17) -0.15327(16)
C29 C 0.1817(3) 0.15899(17) -0.19670(16)
C30 C 0.1230(4) 0.06903(18) -0.20058(17)
H21 H 0.0978 0.0260 -0.2495
C31 C 0.1074(4) 0.05257(18) -0.11928(18)
H22 H 0.0709 -0.0033 -0.1028
C32 C 0.1550(4) 0.13286(18) -0.06899(16)
C33 C -0.4016(5) 0.0249(2) -0.1437(3)
H23 H -0.3264 -0.0177 -0.1216
H24 H -0.3923 0.0186 -0.2036
H25 H -0.5251 0.0119 -0.1317
C34 C -0.3412(4) 0.12057(19) -0.10396(19)
H26 H -0.2155 0.1340 -0.1144
H27 H -0.4137 0.1644 -0.1272
C35 C -0.3328(6) 0.2084(3) 0.1190(2)
H28 H -0.3488 0.1464 0.1307
H29 H -0.4401 0.2402 0.1317
H30 H -0.2314 0.2404 0.1532
C36 C -0.2995(4) 0.20557(19) 0.03034(18)
B1 B 0.1687(4) 0.42906(18) 0.21569(17)
B2 B 0.2590(4) 0.29805(19) -0.08207(18)
Na1A Na 0.09359(12) 0.59066(6) -0.04391(6)
Na2A Na 0.62571(12) 0.56367(6) -0.04984(6)
O1A O -0.1402(2) 0.46805(11) -0.07908(10)
O2A O -0.3491(2) 0.50897(12) 0.08667(11)
O2A_2 O 0.6509(2) 0.50897(12) 0.08667(11)
loop_
_geom_bond_atom_site_label_1
_geom_bond_atom_site_label_2
_geom_bond_site_symmetry_1
_geom_bond_site_symmetry_2
Cl1 C12 1_555 1_555
Cl2 C32 1_555 1_555
Na1 F2 1_555 1_555
Na2 F1 1_555 1_555
F1 B1 1_555 1_555
F2 B1 1_555 1_555
F3 Na2 1_555 1_555
F4 Na1 1_555 1_555
O1 Na1 1_555 1_555
O2 Na2 1_555 1_555
O3 C34 1_555 1_555
O4 Na1 1_555 1_555
N1 C13 1_555 1_555
N2 C9 1_555 1_555
N3 C25 1_555 1_555
N4 C29 1_555 1_555
C1 H1 1_555 1_555
H2 C1 1_555 1_555
H3 C1 1_555 1_555
C2 C1 1_555 1_555
C3 C2 1_555 1_555
H4 C3 1_555 1_555
C4 C3 1_555 1_555
H5 C4 1_555 1_555
C5 C4 1_555 1_555
C6 C5 1_555 1_555
H6 C6 1_555 1_555
C7 C2 1_555 1_555
H7 C7 1_555 1_555
C8 C5 1_555 1_555
C9 C8 1_555 1_555
C10 C9 1_555 1_555
H8 C10 1_555 1_555
C11 C10 1_555 1_555
H9 C11 1_555 1_555
C12 N2 1_555 1_555
C13 C8 1_555 1_555
C14 C13 1_555 1_555
H10 C14 1_555 1_555
C15 C14 1_555 1_555
H11 C15 1_555 1_555
C16 O1 1_555 1_555
C17 H12 1_555 1_555
H13 C17 1_555 1_555
H14 C17 1_555 1_555
C18 C17 1_555 1_555
C19 C18 1_555 1_555
H15 C19 1_555 1_555
C20 C19 1_555 1_555
H16 C20 1_555 1_555
C21 C20 1_555 1_555
C22 C21 1_555 1_555
H17 C22 1_555 1_555
C23 C18 1_555 1_555
H18 C23 1_555 1_555
C24 C21 1_555 1_555
C25 C24 1_555 1_555
C26 C25 1_555 1_555
H19 C26 1_555 1_555
C27 C26 1_555 1_555
H20 C27 1_555 1_555
C28 O2 1_555 1_555
C29 C24 1_555 1_555
C30 C29 1_555 1_555
H21 C30 1_555 1_555
C31 C30 1_555 1_555
H22 C31 1_555 1_555
C32 N4 1_555 1_555
C33 H23 1_555 1_555
H24 C33 1_555 1_555
H25 C33 1_555 1_555
C34 C33 1_555 1_555
H26 C34 1_555 1_555
H27 C34 1_555 1_555
C35 H28 1_555 1_555
H29 C35 1_555 1_555
H30 C35 1_555 1_555
C36 O3 1_555 1_555
B1 N1 1_555 1_555
B2 F3 1_555 1_555
Na1A O1 1_555 1_555
Na2A O2 1_555 1_555
O1A Na1 1_555 1_555
O2A Na1 1_555 1_555
O2A_2 Na2 1_555 1_555
Na2 F4 1_555 1_555
Na2 O1 1_555 1_555
F4 B2 1_555 1_555
O2 Na1A 1_555 1_555
O4 C36 1_555 1_555
N1 C16 1_555 1_555
N2 B1 1_555 1_555
N3 C28 1_555 1_555
N3 B2 1_555 1_555
N4 B2 1_555 1_555
C6 C7 1_555 1_555
C11 C12 1_555 1_555
C15 C16 1_555 1_555
C22 C23 1_555 1_555
C27 C28 1_555 1_555
C31 C32 1_555 1_555
C35 C36 1_555 1_555
Na1A O1A 1_555 1_555
Na2A O2A_2 1_555 1_555

#END
