
#######################################################################
#
#                 Cambridge Crystallographic Data Centre
#                                CCDC 
#
#######################################################################
#
# If this CIF has been generated from an entry in the Cambridge 
# Structural Database, then it will include bibliographic, chemical, 
# crystal, experimental, refinement or atomic coordinate data resulting 
# from the CCDC's data processing and validation procedures.
#
#######################################################################

data_UGEXUA
_symmetry_cell_setting           triclinic
_symmetry_space_group_name_H-M   'P -1'
_symmetry_Int_Tables_number      2
_space_group_name_Hall           '-P 1'
loop_
_symmetry_equiv_pos_site_id
_symmetry_equiv_pos_as_xyz
1 x,y,z
2 -x,-y,-z
_cell_length_a                   8.2376(16)
_cell_length_b                   8.4952(17)
_cell_length_c                   10.333(2)
_cell_angle_alpha                68.66(3)
_cell_angle_beta                 85.01(3)
_cell_angle_gamma                69.62(3)
_cell_volume                     630.711
loop_
_atom_site_label
_atom_site_type_symbol
_atom_site_fract_x
_atom_site_fract_y
_atom_site_fract_z
Co1 Co -0.5000 1.0000 0.5000
N1 N -0.2598(2) 0.8027(2) 0.62805(17)
N2 N 0.2952(2) 0.2649(2) 0.79498(18)
N3 N 0.4032(2) 0.0793(2) 0.67783(17)
N4 N -0.3926(2) 1.2084(2) 0.42925(18)
N5 N -0.3375(2) 1.2735(2) 0.49139(18)
N6 N -0.2821(3) 1.3386(3) 0.5499(2)
C1 C -0.1402(3) 0.8566(3) 0.6610(2)
H1 H -0.1657 0.9791 0.6398
C2 C 0.0187(3) 0.7414(3) 0.7245(2)
H2 H 0.0967 0.7864 0.7458
C3 C 0.0621(3) 0.5592(3) 0.7563(2)
C4 C -0.0610(3) 0.5018(3) 0.7242(3)
H3 H -0.0381 0.3800 0.7439
C5 C -0.2180(3) 0.6258(3) 0.6626(2)
H4 H -0.3001 0.5835 0.6441
C6 C 0.2386(3) 0.4334(3) 0.8205(2)
H5 H 0.3223 0.4937 0.7840
H6 H 0.2369 0.4067 0.9201
C7 C 0.3576(3) 0.2448(3) 0.6749(2)
H7 H 0.3675 0.3395 0.5971
C8 C 0.3688(2) -0.0183(3) 0.8116(2)
C9 C 0.3935(3) -0.2007(3) 0.8758(2)
H8 H 0.4404 -0.2802 0.8288
C10 C 0.3459(3) -0.2589(3) 1.0112(2)
H9 H 0.3600 -0.3800 1.0558
C11 C 0.2772(3) -0.1418(4) 1.0835(2)
H10 H 0.2473 -0.1865 1.1752
C12 C 0.2527(3) 0.0384(3) 1.0219(2)
H11 H 0.2064 0.1172 1.0696
C13 C 0.3000(3) 0.0971(3) 0.8857(2)
Co1_2 Co 0.5000 0.0000 0.5000
N1A N 0.2598(2) 0.1973(2) 0.37195(17)
N1A_2 N -0.7402(2) 1.1973(2) 0.37195(17)
N2A N -0.2952(2) 0.7351(2) 0.20502(18)
N3A N -0.4032(2) 0.9207(2) 0.32217(17)
N3_2 N -0.5968(2) 1.0793(2) 0.67783(17)
N4A N -0.6074(2) 0.7916(2) 0.57075(18)
N5A N -0.6625(2) 0.7265(2) 0.50861(18)
N6A N -0.7179(3) 0.6614(3) 0.4501(2)
C1A C 0.1402(3) 0.1434(3) 0.3390(2)
H1A H 0.1657 0.0209 0.3602
C2A C -0.0187(3) 0.2586(3) 0.2755(2)
H2A H -0.0967 0.2136 0.2542
C3A C -0.0621(3) 0.4408(3) 0.2437(2)
C4A C 0.0610(3) 0.4982(3) 0.2758(3)
H3A H 0.0381 0.6200 0.2561
C5A C 0.2180(3) 0.3742(3) 0.3374(2)
H4A H 0.3001 0.4165 0.3559
C6A C -0.2386(3) 0.5666(3) 0.1795(2)
H5A H -0.3223 0.5063 0.2160
H6A H -0.2369 0.5933 0.0799
C7A C -0.3576(3) 0.7552(3) 0.3251(2)
H7A H -0.3675 0.6605 0.4029
C8A C -0.3688(2) 1.0183(3) 0.1884(2)
C9A C -0.3935(3) 1.2007(3) 0.1242(2)
H8A H -0.4404 1.2802 0.1712
C10A C -0.3459(3) 1.2589(3) -0.0112(2)
H9A H -0.3600 1.3800 -0.0558
C11A C -0.2772(3) 1.1418(4) -0.0835(2)
H10A H -0.2473 1.1865 -0.1752
C12A C -0.2527(3) 0.9616(3) -0.0219(2)
H11A H -0.2064 0.8828 -0.0696
C13A C -0.3000(3) 0.9029(3) 0.1143(2)
loop_
_geom_bond_atom_site_label_1
_geom_bond_atom_site_label_2
_geom_bond_site_symmetry_1
_geom_bond_site_symmetry_2
Co1 N1 1_555 1_555
N1 C1 1_555 1_555
N2 C6 1_555 1_555
N3 C7 1_555 1_555
N4 Co1 1_555 1_555
N5 N4 1_555 1_555
N6 N5 1_555 1_555
C1 H1 1_555 1_555
C2 C1 1_555 1_555
H2 C2 1_555 1_555
C3 C2 1_555 1_555
C4 C3 1_555 1_555
H3 C4 1_555 1_555
C5 N1 1_555 1_555
H4 C5 1_555 1_555
C6 C3 1_555 1_555
H5 C6 1_555 1_555
H6 C6 1_555 1_555
C7 N2 1_555 1_555
H7 C7 1_555 1_555
C8 N3 1_555 1_555
C9 C8 1_555 1_555
H8 C9 1_555 1_555
C10 C9 1_555 1_555
H9 C10 1_555 1_555
C11 C10 1_555 1_555
H10 C11 1_555 1_555
C12 C11 1_555 1_555
H11 C12 1_555 1_555
C13 N2 1_555 1_555
Co1_2 N3 1_555 1_555
N1A Co1_2 1_555 1_555
N1A_2 Co1 1_555 1_555
N2A C6A 1_555 1_555
N3A Co1 1_555 1_555
N3_2 Co1 1_555 1_555
N4A Co1 1_555 1_555
N5A N4A 1_555 1_555
N6A N5A 1_555 1_555
C1A N1A 1_555 1_555
H1A C1A 1_555 1_555
C2A C1A 1_555 1_555
H2A C2A 1_555 1_555
C3A C2A 1_555 1_555
C4A C3A 1_555 1_555
H3A C4A 1_555 1_555
C5A N1A 1_555 1_555
H4A C5A 1_555 1_555
C6A C3A 1_555 1_555
H5A C6A 1_555 1_555
H6A C6A 1_555 1_555
C7A N2A 1_555 1_555
H7A C7A 1_555 1_555
C8A N3A 1_555 1_555
C9A C8A 1_555 1_555
H8A C9A 1_555 1_555
C10A C9A 1_555 1_555
H9A C10A 1_555 1_555
C11A C10A 1_555 1_555
H10A C11A 1_555 1_555
C12A C11A 1_555 1_555
H11A C12A 1_555 1_555
C13A N2A 1_555 1_555
C4 C5 1_555 1_555
C8 C13 1_555 1_555
C12 C13 1_555 1_555
N3A C7A 1_555 1_555
C4A C5A 1_555 1_555
C8A C13A 1_555 1_555
C12A C13A 1_555 1_555

#END
