
#######################################################################
#
#                 Cambridge Crystallographic Data Centre
#                                CCDC 
#
#######################################################################
#
# If this CIF has been generated from an entry in the Cambridge 
# Structural Database, then it will include bibliographic, chemical, 
# crystal, experimental, refinement or atomic coordinate data resulting 
# from the CCDC's data processing and validation procedures.
#
#######################################################################

data_UGEYIQ
_symmetry_cell_setting           monoclinic
_symmetry_space_group_name_H-M   'P 21/c'
_symmetry_Int_Tables_number      14
_space_group_name_Hall           '-P 2ybc'
loop_
_symmetry_equiv_pos_site_id
_symmetry_equiv_pos_as_xyz
1 x,y,z
2 -x,1/2+y,1/2-z
3 -x,-y,-z
4 x,1/2-y,1/2+z
_cell_length_a                   10.3458(4)
_cell_length_b                   15.9486(7)
_cell_length_c                   16.7146(8)
_cell_angle_alpha                90
_cell_angle_beta                 107.0940(10)
_cell_angle_gamma                90
_cell_volume                     2636.09
loop_
_atom_site_label
_atom_site_type_symbol
_atom_site_fract_x
_atom_site_fract_y
_atom_site_fract_z
Cd1 Cd 0.50900(2) 0.159358(14) 0.030936(16)
S1 S 0.03189(8) 0.12587(6) 0.04058(6)
N1 N 0.4509(3) 0.27593(18) -0.0521(2)
C1 C 0.2960(3) 0.0728(3) 0.0914(3)
O1 O -0.3084(2) 0.07420(13) 0.08563(16)
O2 O 0.4399(3) 0.07660(16) -0.08764(19)
H1 H 0.5027 0.0454 -0.0941
H2 H 0.390(4) 0.049(3) -0.082(3)
C2 C 0.1578(3) 0.0639(2) 0.0997(2)
N2 N 0.6293(3) 0.46451(19) -0.0881(2)
H3 H 0.6358 0.4877 -0.1331
O3 O -0.2561(2) 0.17416(15) 0.00942(17)
O4 O 0.3083(3) 0.1290(2) 0.0413(2)
N3 N 1.1911(3) 0.7284(2) 0.1359(2)
H4 H 1.1820 0.7548 0.0897
C3 C 0.1132(4) 0.0122(2) 0.1504(2)
H5 H 0.1680 -0.0259 0.1873
O5 O 0.3874(3) 0.0267(2) 0.1327(2)
N4 N 1.4330(3) 0.7397(2) 0.3472(2)
C4 C -0.0250(3) 0.0229(2) 0.1407(2)
H6 H -0.0720 -0.0072 0.1709
C5 C -0.0832(3) 0.08188(18) 0.0828(2)
O6 O 0.7138(3) 0.4643(2) 0.0524(2)
C6 C -0.2240(3) 0.11183(19) 0.0570(2)
O7 O 1.0955(4) 0.6314(3) 0.1982(2)
C7 C 0.5428(4) 0.3369(2) -0.0418(2)
H7 H 0.6193 0.3349 0.0044
C8 C 0.3393(4) 0.2796(2) -0.1173(3)
H8 H 0.2743 0.2378 -0.1238
C9 C 0.3181(5) 0.3421(3) -0.1740(3)
H9 H 0.2400 0.3429 -0.2192
C10 C 0.4135(4) 0.4052(3) -0.1644(3)
H10 H 0.3999 0.4488 -0.2030
C11 C 0.5282(4) 0.4028(2) -0.0974(2)
C12 C 0.7167(4) 0.4907(2) -0.0153(3)
C13 C 0.8224(3) 0.5529(2) -0.0223(3)
C14 C 0.9067(4) 0.5846(2) 0.0516(3)
H11 H 0.8931 0.5692 0.1022
C15 C 1.0114(4) 0.6392(2) 0.0515(3)
C16 C 1.0307(4) 0.6623(2) -0.0244(3)
H12 H 1.1006 0.6988 -0.0249
C17 C 0.9473(4) 0.6316(3) -0.0993(3)
C18 C 0.9725(7) 0.6564(4) -0.1809(3)
H13 H 0.9066 0.6300 -0.2267
H14 H 1.0615 0.6388 -0.1804
H15 H 0.9654 0.7162 -0.1874
C19 C 0.8444(4) 0.5773(2) -0.0969(3)
H16 H 0.7881 0.5563 -0.1470
C20 C 1.1013(4) 0.6657(3) 0.1347(3)
C21 C 1.2976(3) 0.7543(2) 0.2058(2)
C22 C 1.3837(5) 0.8155(3) 0.1948(3)
H17 H 1.3672 0.8424 0.1433
C23 C 1.4940(6) 0.8370(3) 0.2597(3)
H18 H 1.5542 0.8776 0.2526
C24 C 1.5147(5) 0.7980(3) 0.3350(3)
H19 H 1.5892 0.8132 0.3792
C25 C 1.3255(4) 0.7195(3) 0.2842(3)
H20 H 1.2659 0.6797 0.2936
Cd1_2 Cd -0.49100(2) 0.159358(14) 0.030936(16)
Cd1A Cd 1.49100(2) 0.659358(14) 0.469064(16)
O1_2 O 0.6916(2) 0.07420(13) 0.08563(16)
O3_2 O 0.7439(2) 0.17416(15) 0.00942(17)
N4A N 0.5670(3) 0.2397(2) 0.1528(2)
O8 O 0.6437(7) 0.4741(4) -0.2489(3)
H21 H 0.6049 0.4325 -0.2780
H22 H 0.6933 0.4975 -0.2749
loop_
_geom_bond_atom_site_label_1
_geom_bond_atom_site_label_2
_geom_bond_site_symmetry_1
_geom_bond_site_symmetry_2
Cd1 N1 1_555 1_555
S1 C2 1_555 1_555
N1 C7 1_555 1_555
C1 C2 1_555 1_555
O1 C6 1_555 1_555
O2 Cd1 1_555 1_555
H1 O2 1_555 1_555
H2 O2 1_555 1_555
C2 C3 1_555 1_555
N2 H3 1_555 1_555
O3 C6 1_555 1_555
O4 Cd1 1_555 1_555
N3 H4 1_555 1_555
C3 H5 1_555 1_555
O5 C1 1_555 1_555
N4 C24 1_555 1_555
C4 C3 1_555 1_555
H6 C4 1_555 1_555
C5 S1 1_555 1_555
O6 C12 1_555 1_555
C6 C5 1_555 1_555
O7 C20 1_555 1_555
C7 H7 1_555 1_555
C8 N1 1_555 1_555
H8 C8 1_555 1_555
C9 C8 1_555 1_555
H9 C9 1_555 1_555
C10 C9 1_555 1_555
H10 C10 1_555 1_555
C11 N2 1_555 1_555
C12 N2 1_555 1_555
C13 C12 1_555 1_555
C14 C13 1_555 1_555
H11 C14 1_555 1_555
C15 C14 1_555 1_555
C16 C15 1_555 1_555
H12 C16 1_555 1_555
C17 C16 1_555 1_555
C18 C17 1_555 1_555
H13 C18 1_555 1_555
H14 C18 1_555 1_555
H15 C18 1_555 1_555
C19 C13 1_555 1_555
H16 C19 1_555 1_555
C20 N3 1_555 1_555
C21 N3 1_555 1_555
C22 C21 1_555 1_555
H17 C22 1_555 1_555
C23 C22 1_555 1_555
H18 C23 1_555 1_555
C24 C23 1_555 1_555
H19 C24 1_555 1_555
C25 N4 1_555 1_555
H20 C25 1_555 1_555
O8 H21 1_555 1_555
H22 O8 1_555 1_555
Cd1_2 O1 1_555 1_555
Cd1A N4 1_555 1_555
O1_2 Cd1 1_555 1_555
O3_2 Cd1 1_555 1_555
N4A Cd1 1_555 1_555
C1 O4 1_555 1_555
O3 Cd1_2 1_555 1_555
C4 C5 1_555 1_555
C7 C11 1_555 1_555
C10 C11 1_555 1_555
C15 C20 1_555 1_555
C17 C19 1_555 1_555
C21 C25 1_555 1_555

#END
