
#######################################################################
#
#                 Cambridge Crystallographic Data Centre
#                                CCDC 
#
#######################################################################
#
# If this CIF has been generated from an entry in the Cambridge 
# Structural Database, then it will include bibliographic, chemical, 
# crystal, experimental, refinement or atomic coordinate data resulting 
# from the CCDC's data processing and validation procedures.
#
#######################################################################

data_UGEYUC
_symmetry_cell_setting           monoclinic
_symmetry_space_group_name_H-M   'P 21/c'
_symmetry_Int_Tables_number      14
_space_group_name_Hall           '-P 2ybc'
loop_
_symmetry_equiv_pos_site_id
_symmetry_equiv_pos_as_xyz
1 x,y,z
2 -x,1/2+y,1/2-z
3 -x,-y,-z
4 x,1/2-y,1/2+z
_cell_length_a                   10.2199(4)
_cell_length_b                   16.5426(7)
_cell_length_c                   16.8939(7)
_cell_angle_alpha                90
_cell_angle_beta                 105.3520(10)
_cell_angle_gamma                90
_cell_volume                     2754.23
loop_
_atom_site_label
_atom_site_type_symbol
_atom_site_fract_x
_atom_site_fract_y
_atom_site_fract_z
Cd1 Cd 0.014167(14) 0.156130(9) 0.533880(10)
O1 O 0.19415(15) 0.07605(10) 0.57181(11)
N1 N -0.03655(19) 0.26956(12) 0.45480(11)
C1 C 0.2926(2) 0.10776(14) 0.54961(14)
O2 O -0.05367(18) 0.07340(10) 0.41768(11)
H1 H -0.1009 0.0328 0.4240
H2 H -0.0416 0.0704 0.3699
N2 N 0.1286(2) 0.45945(13) 0.42235(13)
H3 H 0.1294 0.4854 0.3783
O3 O 0.27980(17) 0.16848(11) 0.50500(12)
C2 C 0.4292(2) 0.06926(13) 0.58446(14)
N3 N 0.6856(2) 0.71699(13) 0.63706(12)
H4 H 0.6674 0.7477 0.5944
C3 C 0.4445(2) 0.00905(14) 0.64345(15)
H5 H 0.3684 -0.0087 0.6587
O4 O 0.90680(15) 0.06026(11) 0.60804(11)
N4 N 0.9175(2) 0.73422(12) 0.84542(12)
C4 C 0.5696(2) -0.02566(15) 0.68056(15)
O5 O 0.78171(18) 0.15165(11) 0.52872(14)
O6 O 0.2280(2) 0.44883(13) 0.55761(12)
C5 C 0.5831(3) -0.0904(2) 0.7447(2)
H6 H 0.6761 -0.1074 0.7629
H7 H 0.5272 -0.1357 0.7218
H8 H 0.5547 -0.0694 0.7905
O7 O 0.6261(2) 0.60163(14) 0.69059(13)
C6 C 0.6815(2) 0.00161(14) 0.65640(14)
H9 H 0.7662 -0.0209 0.6799
C7 C 0.6692(2) 0.06197(13) 0.59772(14)
C8 C 0.7933(2) 0.09309(14) 0.57621(15)
C9 C 0.5430(2) 0.09542(13) 0.56143(14)
H10 H 0.5347 0.1354 0.5217
C10 C 0.0548(2) 0.32902(14) 0.46397(15)
H11 H 0.1364 0.3242 0.5042
C11 C -0.1544(2) 0.27636(15) 0.39726(16)
H12 H -0.2180 0.2351 0.3915
C12 C -0.1845(3) 0.34218(16) 0.34650(17)
H13 H -0.2672 0.3454 0.3069
C13 C -0.0905(3) 0.40372(16) 0.35501(17)
H14 H -0.1086 0.4487 0.3208
C14 C 0.0313(2) 0.39766(14) 0.41513(15)
C15 C 0.2210(3) 0.48176(15) 0.49239(15)
C16 C 0.3137(2) 0.55039(13) 0.48549(14)
C17 C 0.3031(2) 0.59518(13) 0.41425(14)
H15 H 0.2371 0.5814 0.3667
C18 C 0.3888(2) 0.65993(13) 0.41250(14)
C19 C 0.3706(3) 0.71143(16) 0.33706(15)
H16 H 0.2971 0.6906 0.2941
H17 H 0.4525 0.7106 0.3194
H18 H 0.3507 0.7660 0.3495
C20 C 0.4900(2) 0.67796(15) 0.48326(15)
H19 H 0.5494 0.7204 0.4828
C21 C 0.5034(2) 0.63343(15) 0.55464(15)
C22 C 0.4143(2) 0.56985(14) 0.55553(15)
H20 H 0.4225 0.5403 0.6035
C23 C 0.6094(3) 0.64883(16) 0.63312(16)
C24 C 0.7917(2) 0.74195(14) 0.70450(14)
C25 C 0.8792(2) 0.80128(15) 0.69091(15)
H21 H 0.8668 0.8238 0.6390
C26 C 0.9846(3) 0.82648(17) 0.75540(17)
H22 H 1.0439 0.8666 0.7478
C27 C 1.0005(3) 0.79132(17) 0.83107(16)
H23 H 1.0724 0.8081 0.8742
C28 C 0.8135(2) 0.71071(14) 0.78317(14)
H24 H 0.7537 0.6720 0.7931
Cd1_2 Cd 1.014167(14) 0.156130(9) 0.533880(10)
Cd1A Cd 0.985833(14) 0.656130(9) 0.966120(10)
O4_2 O -0.09320(15) 0.06026(11) 0.60804(11)
N4A N 0.0825(2) 0.23422(12) 0.65458(12)
O5_2 O -0.21829(18) 0.15165(11) 0.52872(14)
O8 O 0.1198(3) 0.48551(13) 0.25328(12)
H25 H 0.0640 0.4666 0.2107
H26 H 0.1987 0.4827 0.2458
loop_
_geom_bond_atom_site_label_1
_geom_bond_atom_site_label_2
_geom_bond_site_symmetry_1
_geom_bond_site_symmetry_2
Cd1 O1 1_555 1_555
O1 C1 1_555 1_555
N1 Cd1 1_555 1_555
C1 O3 1_555 1_555
O2 Cd1 1_555 1_555
H1 O2 1_555 1_555
H2 O2 1_555 1_555
N2 H3 1_555 1_555
C2 C1 1_555 1_555
N3 H4 1_555 1_555
C3 C2 1_555 1_555
H5 C3 1_555 1_555
O4 C8 1_555 1_555
N4 C27 1_555 1_555
C4 C3 1_555 1_555
O5 C8 1_555 1_555
O6 C15 1_555 1_555
C5 C4 1_555 1_555
H6 C5 1_555 1_555
H7 C5 1_555 1_555
H8 C5 1_555 1_555
O7 C23 1_555 1_555
C6 C4 1_555 1_555
H9 C6 1_555 1_555
C7 C6 1_555 1_555
C8 C7 1_555 1_555
C9 C2 1_555 1_555
H10 C9 1_555 1_555
C10 N1 1_555 1_555
H11 C10 1_555 1_555
C11 N1 1_555 1_555
H12 C11 1_555 1_555
C12 C11 1_555 1_555
H13 C12 1_555 1_555
C13 C12 1_555 1_555
H14 C13 1_555 1_555
C14 N2 1_555 1_555
C15 N2 1_555 1_555
C16 C15 1_555 1_555
C17 C16 1_555 1_555
H15 C17 1_555 1_555
C18 C17 1_555 1_555
C19 C18 1_555 1_555
H16 C19 1_555 1_555
H17 C19 1_555 1_555
H18 C19 1_555 1_555
C20 C18 1_555 1_555
H19 C20 1_555 1_555
C21 C20 1_555 1_555
C22 C16 1_555 1_555
H20 C22 1_555 1_555
C23 N3 1_555 1_555
C24 N3 1_555 1_555
C25 C24 1_555 1_555
H21 C25 1_555 1_555
C26 C25 1_555 1_555
H22 C26 1_555 1_555
C27 C26 1_555 1_555
H23 C27 1_555 1_555
C28 N4 1_555 1_555
H24 C28 1_555 1_555
O8 H25 1_555 1_555
H26 O8 1_555 1_555
Cd1_2 O4 1_555 1_555
Cd1A N4 1_555 1_555
O4_2 Cd1 1_555 1_555
N4A Cd1 1_555 1_555
O5_2 Cd1 1_555 1_555
O5 Cd1_2 1_555 1_555
C7 C9 1_555 1_555
C10 C14 1_555 1_555
C13 C14 1_555 1_555
C21 C22 1_555 1_555
C21 C23 1_555 1_555
C24 C28 1_555 1_555

#END
