
#######################################################################
#
#                 Cambridge Crystallographic Data Centre
#                                CCDC 
#
#######################################################################
#
# If this CIF has been generated from an entry in the Cambridge 
# Structural Database, then it will include bibliographic, chemical, 
# crystal, experimental, refinement or atomic coordinate data resulting 
# from the CCDC's data processing and validation procedures.
#
#######################################################################

data_UGEZIR
_symmetry_cell_setting           monoclinic
_symmetry_space_group_name_H-M   'P 21/c'
_symmetry_Int_Tables_number      14
_space_group_name_Hall           '-P 2ybc'
loop_
_symmetry_equiv_pos_site_id
_symmetry_equiv_pos_as_xyz
1 x,y,z
2 -x,1/2+y,1/2-z
3 -x,-y,-z
4 x,1/2-y,1/2+z
_cell_length_a                   9.939(2)
_cell_length_b                   16.165(4)
_cell_length_c                   16.701(4)
_cell_angle_alpha                90
_cell_angle_beta                 104.557(4)
_cell_angle_gamma                90
_cell_volume                     2597.11
loop_
_atom_site_label
_atom_site_type_symbol
_atom_site_fract_x
_atom_site_fract_y
_atom_site_fract_z
Zn1 Zn 1.00096(5) 0.15522(4) 0.96535(3)
N1 N 1.0383(4) 0.2583(3) 1.0412(2)
O1 O 1.2003(4) 0.1424(3) 0.9556(3)
C1 C 1.2014(5) 0.0812(4) 0.9100(4)
O2 O 1.0658(4) 0.0764(2) 1.0738(2)
H1 H 1.0013 0.0460 1.0771
H2 H 1.1074 0.0363 1.0661
O3 O 1.0920(4) 0.0414(3) 0.8762(3)
C2 C 1.3355(5) 0.0544(3) 0.8932(3)
N2 N 0.8677(5) 0.4537(3) 1.0732(3)
H3 H 0.8632 0.4799 1.1173
O4 O 1.8268(3) 0.0872(2) 0.9360(2)
N3 N 0.3151(4) 0.7246(3) 0.8506(3)
H4 H 0.3335 0.7568 0.8929
C3 C 1.4599(5) 0.0921(3) 0.9325(3)
H5 H 1.4595 0.1347 0.9699
C4 C 1.5846(5) 0.0678(3) 0.9172(3)
O5 O 1.7186(4) 0.1690(2) 1.0064(2)
N4 N 0.0620(4) 0.7291(3) 0.6459(2)
C5 C 1.7182(5) 0.1107(3) 0.9579(3)
O6 O 0.7770(4) 0.4451(3) 0.9349(2)
C6 C 1.5828(6) 0.0040(4) 0.8613(4)
H6 H 1.6655 -0.0132 0.8500
O7 O 0.3865(5) 0.6113(3) 0.7944(3)
C7 C 1.4601(6) -0.0342(4) 0.8224(4)
H7 H 1.4601 -0.0768 0.7850
C8 C 1.3376(6) -0.0094(4) 0.8388(4)
H8 H 1.2551 -0.0360 0.8130
C9 C 1.1551(5) 0.2642(3) 1.1035(3)
H9 H 1.2196 0.2213 1.1113
C10 C 1.1817(6) 0.3310(3) 1.1556(3)
H10 H 1.2635 0.3332 1.1975
C11 C 1.0872(6) 0.3948(4) 1.1457(3)
H11 H 1.1037 0.4402 1.1810
C12 C 0.9659(5) 0.3900(3) 1.0817(3)
C13 C 0.9471(5) 0.3206(3) 1.0316(3)
H12 H 0.8666 0.3171 0.9889
C14 C 0.7781(6) 0.4776(3) 1.0003(3)
C15 C 0.6812(5) 0.5469(3) 1.0077(3)
C16 C 0.6744(5) 0.5849(3) 1.0809(3)
H13 H 0.7339 0.5674 1.1303
C17 C 0.5812(5) 0.6483(3) 1.0825(3)
C18 C 0.5742(7) 0.6897(4) 1.1619(4)
H14 H 0.5040 0.7319 1.1504
H15 H 0.6626 0.7142 1.1873
H16 H 0.5515 0.6494 1.1987
C19 C 0.4917(5) 0.6730(3) 1.0092(3)
H17 H 0.4285 0.7154 1.0096
C20 C 0.4947(5) 0.6357(3) 0.9349(3)
C21 C 0.5891(5) 0.5726(3) 0.9344(3)
H18 H 0.5909 0.5471 0.8847
C22 C 0.3966(6) 0.6569(4) 0.8539(3)
C23 C 0.2023(5) 0.7472(3) 0.7838(3)
C24 C 0.1763(5) 0.7118(3) 0.7064(3)
H19 H 0.2405 0.6744 0.6955
C25 C -0.0274(6) 0.7853(4) 0.6624(3)
H20 H -0.1071 0.7978 0.6214
C26 C -0.0058(6) 0.8246(4) 0.7368(3)
H21 H -0.0686 0.8643 0.7453
C27 C 0.1094(5) 0.8052(3) 0.7992(3)
H22 H 0.1246 0.8306 0.8506
Zn1_2 Zn 2.00096(5) 0.15522(4) 0.96535(3)
Zn1A Zn -0.00096(5) 0.65522(4) 0.53465(3)
O4_2 O 0.8268(3) 0.0872(2) 0.9360(2)
N4A N 0.9380(4) 0.2291(3) 0.8541(2)
O8 O 0.8615(5) 0.0142(3) 0.7443(2)
H23 H 0.9359 0.0394 0.7681
H24 H 0.8291 0.0371 0.6976
loop_
_geom_bond_atom_site_label_1
_geom_bond_atom_site_label_2
_geom_bond_site_symmetry_1
_geom_bond_site_symmetry_2
Zn1 N1 1_555 1_555
N1 C9 1_555 1_555
O1 Zn1 1_555 1_555
C1 O1 1_555 1_555
O2 Zn1 1_555 1_555
H1 O2 1_555 1_555
H2 O2 1_555 1_555
O3 C1 1_555 1_555
C2 C1 1_555 1_555
N2 H3 1_555 1_555
O4 C5 1_555 1_555
N3 H4 1_555 1_555
C3 C2 1_555 1_555
H5 C3 1_555 1_555
C4 C3 1_555 1_555
O5 C5 1_555 1_555
N4 C24 1_555 1_555
C5 C4 1_555 1_555
O6 C14 1_555 1_555
C6 C4 1_555 1_555
H6 C6 1_555 1_555
O7 C22 1_555 1_555
C7 C6 1_555 1_555
H7 C7 1_555 1_555
C8 C2 1_555 1_555
H8 C8 1_555 1_555
C9 H9 1_555 1_555
C10 C9 1_555 1_555
H10 C10 1_555 1_555
C11 C10 1_555 1_555
H11 C11 1_555 1_555
C12 N2 1_555 1_555
C13 N1 1_555 1_555
H12 C13 1_555 1_555
C14 N2 1_555 1_555
C15 C14 1_555 1_555
C16 C15 1_555 1_555
H13 C16 1_555 1_555
C17 C16 1_555 1_555
C18 C17 1_555 1_555
H14 C18 1_555 1_555
H15 C18 1_555 1_555
H16 C18 1_555 1_555
C19 C17 1_555 1_555
H17 C19 1_555 1_555
C20 C19 1_555 1_555
C21 C15 1_555 1_555
H18 C21 1_555 1_555
C22 N3 1_555 1_555
C23 N3 1_555 1_555
C24 C23 1_555 1_555
H19 C24 1_555 1_555
C25 N4 1_555 1_555
H20 C25 1_555 1_555
C26 C25 1_555 1_555
H21 C26 1_555 1_555
C27 C23 1_555 1_555
H22 C27 1_555 1_555
O8 H23 1_555 1_555
H24 O8 1_555 1_555
Zn1_2 O4 1_555 1_555
Zn1A N4 1_555 1_555
O4_2 Zn1 1_555 1_555
N4A Zn1 1_555 1_555
C7 C8 1_555 1_555
C11 C12 1_555 1_555
C12 C13 1_555 1_555
C20 C21 1_555 1_555
C20 C22 1_555 1_555
C26 C27 1_555 1_555

#END
