
#######################################################################
#
#                 Cambridge Crystallographic Data Centre
#                                CCDC 
#
#######################################################################
#
# If this CIF has been generated from an entry in the Cambridge 
# Structural Database, then it will include bibliographic, chemical, 
# crystal, experimental, refinement or atomic coordinate data resulting 
# from the CCDC's data processing and validation procedures.
#
#######################################################################

data_UGEZUC
_symmetry_cell_setting           triclinic
_symmetry_space_group_name_H-M   'P -1'
_symmetry_Int_Tables_number      2
_space_group_name_Hall           '-P 1'
loop_
_symmetry_equiv_pos_site_id
_symmetry_equiv_pos_as_xyz
1 x,y,z
2 -x,-y,-z
_cell_length_a                   15.110(3)
_cell_length_b                   18.386(4)
_cell_length_c                   24.914(5)
_cell_angle_alpha                86.93(3)
_cell_angle_beta                 73.53(3)
_cell_angle_gamma                66.49(3)
_cell_volume                     6072.49
loop_
_atom_site_label
_atom_site_type_symbol
_atom_site_fract_x
_atom_site_fract_y
_atom_site_fract_z
Mo1 Mo 1.14458(9) 0.60053(7) 0.54919(5)
Mo2 Mo 0.86053(9) 0.49751(7) 0.65401(5)
Mo3 Mo 1.09523(9) 0.51134(7) 0.62593(5)
Mo4 Mo 0.97182(9) 0.71439(7) 0.47628(5)
Mo5 Mo 0.49577(9) 0.79205(7) 1.00110(5)
Mo6 Mo 0.79699(9) 0.70772(7) 0.49862(5)
Mo7 Mo 0.73316(9) 0.58369(7) 0.60031(5)
Mo8 Mo 0.65740(9) 0.78462(7) 1.02243(5)
Mo9 Mo 0.49566(9) 1.00754(7) 0.84871(5)
Mo10 Mo 0.40386(9) 0.92011(7) 0.90214(5)
Mo11 Mo 0.79124(9) 0.89496(7) 0.94693(5)
Mo12 Mo 0.72552(9) 0.98471(7) 0.87062(5)
Co1 Co 1.28573(15) 0.78816(12) 0.41309(8)
Co2 Co 0.78954(15) 0.75084(12) 0.75017(8)
Co3 Co 0.98014(15) 0.71724(12) 1.08911(8)
Co4 Co 0.36388(15) 0.89377(11) 0.68122(8)
Co5 Co 0.42192(16) 0.60947(11) 0.81492(8)
Co6 Co 1.0000 0.5000 0.5000
Co7 Co 0.5000 1.0000 1.0000
P1 P 0.5928(3) 0.7776(2) 0.60666(15)
P2 P 0.7026(3) 0.9509(2) 0.74758(15)
P3 P 0.9094(3) 0.7048(2) 0.97627(15)
P4 P 0.4607(3) 0.7273(2) 0.89159(15)
P5 P 0.9335(3) 0.5527(2) 0.75099(15)
P6 P 0.6587(3) 0.8291(2) 0.88567(14)
P7 P 1.1014(3) 0.7931(2) 0.52490(14)
P8 P 0.8890(3) 0.67142(19) 0.61345(14)
O1 O 0.7188(7) 0.8684(5) 1.0277(3)
O2 O 0.8365(7) 0.7895(5) 0.5151(4)
O3 O 0.9746(6) 0.6805(5) 0.5663(3)
O4 O 0.6574(6) 0.9801(5) 0.9509(3)
O5 O 1.0939(7) 0.5173(5) 0.5467(3)
O6 O 1.0218(7) 0.7940(5) 0.4966(4)
O7 O 0.7371(9) 0.9863(6) 0.6893(4)
O8 O 0.6315(7) 0.7100(5) 0.9838(3)
O9 O 0.8773(6) 0.5082(5) 0.5720(3)
O10 O 0.8400(7) 0.8839(6) 0.8656(4)
O11 O 0.9340(6) 0.6225(5) 0.4796(3)
O12 O 0.5318(6) 0.8778(5) 1.0203(3)
O13 O 0.8477(8) 0.9474(6) 0.9663(4)
O14 O 0.8794(8) 0.6413(6) 0.7620(4)
O15 O 0.9441(8) 0.5174(6) 0.8098(4)
O16 O 0.5734(8) 0.6935(6) 0.8516(4)
O17 O 0.9288(6) 0.5906(5) 0.6378(3)
O18 O 0.9910(7) 0.7330(6) 0.4078(4)
O19 O 0.7718(7) 1.0541(6) 0.8702(4)
O20 O 0.9663(8) 0.6378(6) 0.9260(4)
O21 O 0.6307(7) 0.8149(6) 0.6470(4)
O22 O 0.6701(7) 0.5267(6) 0.5992(4)
O23 O 0.6303(7) 0.7655(5) 1.0911(4)
O24 O 0.4345(7) 0.7700(6) 1.0629(4)
O25 O 0.7255(9) 0.8653(6) 0.7365(4)
O26 O 0.9725(8) 0.6809(6) 1.0167(4)
O27 O 1.0409(8) 0.8549(6) 0.5770(4)
O28 O 1.0408(7) 0.5255(6) 0.7117(4)
O29 O 0.4132(8) 0.6752(6) 0.8796(4)
O30 O 0.8295(8) 0.4188(6) 0.6647(4)
O31 O 0.4058(7) 0.8128(5) 0.8787(4)
O32 O 1.2706(7) 0.5477(5) 0.5273(4)
O33 O 0.7730(7) 0.7275(6) 0.4364(4)
O34 O 0.8395(8) 0.7388(5) 0.6591(4)
O35 O 0.7599(8) 0.9668(6) 0.7839(4)
O36 O 0.7121(6) 0.8193(5) 0.9320(3)
O37 O 0.9024(7) 0.7841(6) 0.9514(4)
O38 O 0.6082(8) 0.6922(6) 0.6218(4)
O39 O 0.8040(7) 0.7034(5) 1.0016(4)
O40 O 1.1510(6) 0.7104(5) 0.5461(3)
O41 O 0.5897(7) 1.0008(6) 0.7712(4)
O42 O 0.4671(7) 0.7214(5) 0.9521(4)
O43 O 0.8724(7) 0.5133(6) 0.7324(4)
O44 O 0.3967(8) 1.0867(6) 0.8401(4)
O45 O 0.8062(6) 0.6718(5) 0.5871(3)
O46 O 0.4814(7) 0.8292(6) 0.6173(4)
O47 O 0.5530(7) 0.8297(5) 0.9139(3)
O48 O 0.7174(7) 0.7613(5) 0.8410(3)
O49 O 0.2826(8) 0.9798(6) 0.9056(4)
O50 O 0.6530(7) 0.7788(6) 0.5462(4)
O51 O 1.0170(6) 0.4357(5) 0.6330(3)
O52 O 1.1104(7) 0.6103(5) 0.6300(4)
O53 O 0.7326(7) 0.5895(5) 0.6781(4)
O54 O 0.3716(6) 0.8849(5) 0.9850(4)
O55 O 0.5782(7) 1.0651(5) 0.8681(3)
O56 O 0.6408(7) 0.9109(5) 0.8616(3)
O57 O 1.1769(7) 0.8205(6) 0.4877(4)
O58 O 0.4787(7) 0.9169(5) 0.8246(4)
O59 O 1.1197(7) 0.6291(5) 0.4698(4)
O60 O 1.2077(7) 0.4392(6) 0.6244(4)
O61 O 0.7447(6) 0.6165(5) 0.5168(3)
O62 O 0.4489(6) 0.9947(5) 0.9307(3)
O63 O 1.2477(10) 0.6883(7) 0.3949(5)
H1 H 1.299(7) 0.662(7) 0.371(5)
H2 H 1.229(11) 0.657(6) 0.414(5)
O64 O 0.9073(10) 0.7864(9) 0.7620(6)
O65 O 0.6709(8) 0.7220(7) 0.7421(4)
O66 O 0.8314(8) 0.8168(7) 1.1049(4)
H3 H 0.786(7) 0.818(9) 1.133(3)
H4 H 0.801(9) 0.849(7) 1.085(5)
O67 O 0.4545(10) 0.8405(7) 0.7388(4)
H5 H 0.474(11) 0.852(9) 0.764(4)
H6 H 0.414(10) 0.822(10) 0.755(5)
O68 O 0.4994(12) 0.6705(8) 0.7530(5)
H7 H 0.546(8) 0.653(10) 0.724(4)
H8 H 0.457(10) 0.708(7) 0.743(6)
N1 N 1.1929(10) 0.8631(8) 0.3655(5)
N2 N 1.3831(10) 0.7641(8) 0.3282(5)
N3 N 1.3590(10) 0.8619(8) 0.4274(5)
N4 N 1.3897(9) 0.7157(7) 0.4556(5)
N5 N 0.9832(10) 0.7464(8) 1.1718(5)
N6 N 0.9095(10) 0.6523(8) 1.1436(5)
N7 N 1.0542(9) 0.7868(7) 1.0425(5)
N8 N 1.1387(9) 0.6401(8) 1.0735(5)
N9 N 0.2910(10) 0.8148(7) 0.6867(5)
N10 N 0.2294(10) 0.9416(7) 0.7544(5)
N11 N 0.2845(9) 0.9564(7) 0.6214(5)
N12 N 0.3757(9) 1.0047(7) 0.6780(5)
N13 N 0.4125(9) 0.5555(7) 0.7422(5)
N14 N 0.2760(9) 0.6801(7) 0.8077(5)
N15 N 0.5465(10) 0.5049(7) 0.8209(5)
N16 N 0.3526(9) 0.5435(7) 0.8759(5)
C1 C 1.0969(15) 0.9154(12) 0.3873(9)
H9 H 1.0673 0.9203 0.4268
C2 C 1.0392(18) 0.9631(14) 0.3528(10)
H10 H 0.9717 1.0001 0.3684
C3 C 1.0836(16) 0.9542(13) 0.2972(9)
H11 H 1.0471 0.9862 0.2730
C4 C 1.1775(13) 0.9017(10) 0.2752(7)
H12 H 1.2062 0.8940 0.2357
C5 C 1.2334(14) 0.8580(10) 0.3105(7)
C6 C 1.3429(13) 0.8072(9) 0.2891(6)
C7 C 1.4019(16) 0.8025(12) 0.2336(8)
H13 H 1.3728 0.8325 0.2062
C8 C 1.5008(19) 0.7545(14) 0.2202(10)
H14 H 1.5408 0.7522 0.1827
C9 C 1.5461(17) 0.7094(13) 0.2575(9)
H15 H 1.6157 0.6754 0.2467
C10 C 1.4848(14) 0.7156(11) 0.3126(8)
H16 H 1.5141 0.6856 0.3400
C11 C 1.3369(14) 0.9360(11) 0.4128(7)
H17 H 1.2863 0.9582 0.3940
C12 C 1.3822(15) 0.9818(12) 0.4231(8)
H18 H 1.3630 1.0352 0.4127
C13 C 1.4582(16) 0.9483(12) 0.4496(8)
H19 H 1.4931 0.9781 0.4568
C14 C 1.4814(14) 0.8717(11) 0.4650(7)
H20 H 1.5313 0.8486 0.4841
C15 C 1.4326(12) 0.8278(10) 0.4529(6)
C16 C 1.4465(11) 0.7480(9) 0.4701(6)
C17 C 1.5179(14) 0.7044(11) 0.4976(7)
H21 H 1.5642 0.7241 0.5032
C18 C 1.5198(12) 0.6319(10) 0.5166(7)
H22 H 1.5679 0.6012 0.5354
C19 C 1.4542(12) 0.6049(10) 0.5085(7)
H23 H 1.4502 0.5584 0.5255
C20 C 1.3913(11) 0.6451(9) 0.4752(6)
H24 H 1.3497 0.6229 0.4663
C21 C 0.8694(16) 0.6078(13) 1.1285(9)
H25 H 0.8755 0.6020 1.0898
C22 C 0.8185(19) 0.5686(15) 1.1663(11)
H26 H 0.7930 0.5352 1.1537
C23 C 0.8066(16) 0.5803(13) 1.2226(9)
H27 H 0.7704 0.5562 1.2496
C24 C 0.8452(16) 0.6246(12) 1.2390(9)
H28 H 0.8375 0.6321 1.2777
C25 C 0.8972(12) 0.6605(10) 1.1996(7)
C26 C 0.9477(13) 0.7073(10) 1.2133(6)
C27 C 0.9602(16) 0.7127(13) 1.2670(8)
H29 H 0.9376 0.6835 1.2964
C28 C 1.0052(18) 0.7605(14) 1.2760(9)
H30 H 1.0108 0.7669 1.3123
C29 C 1.0424(18) 0.7994(14) 1.2324(9)
H31 H 1.0751 0.8319 1.2378
C30 C 1.0303(14) 0.7893(11) 1.1795(8)
H32 H 1.0571 0.8145 1.1486
C31 C 1.0102(11) 0.8562(9) 1.0234(6)
H33 H 0.9386 0.8803 1.0350
C32 C 1.0605(13) 0.8970(9) 0.9876(7)
H34 H 1.0249 0.9456 0.9735
C33 C 1.1646(15) 0.8638(11) 0.9733(8)
H35 H 1.2021 0.8899 0.9494
C34 C 1.2144(14) 0.7913(11) 0.9944(7)
H36 H 1.2856 0.7687 0.9870
C35 C 1.1556(12) 0.7538(9) 1.0267(6)
C36 C 1.2029(11) 0.6701(9) 1.0439(6)
C37 C 1.3069(13) 0.6285(11) 1.0316(7)
H37 H 1.3514 0.6524 1.0127
C38 C 1.3443(15) 0.5498(11) 1.0479(8)
H38 H 1.4148 0.5187 1.0378
C39 C 1.2810(16) 0.5196(12) 1.0774(8)
H39 H 1.3051 0.4674 1.0897
C40 C 1.1744(13) 0.5678(10) 1.0903(7)
H40 H 1.1284 0.5466 1.1117
C41 C 0.4331(12) 1.0243(10) 0.7049(6)
H41 H 0.4779 0.9841 0.7215
C42 C 0.4257(14) 1.1015(11) 0.7076(7)
H42 H 0.4657 1.1146 0.7255
C43 C 0.3585(14) 1.1597(11) 0.6837(7)
H43 H 0.3491 1.2137 0.6869
C44 C 0.3072(14) 1.1383(11) 0.6561(7)
H44 H 0.2623 1.1777 0.6391
C45 C 0.3181(11) 1.0617(9) 0.6518(6)
C46 C 0.2708(11) 1.0328(9) 0.6180(6)
C47 C 0.2193(13) 1.0803(11) 0.5821(7)
H45 H 0.2097 1.1346 0.5813
C48 C 0.1821(14) 1.0515(10) 0.5480(7)
H46 H 0.1478 1.0844 0.5233
C49 C 0.1967(12) 0.9721(10) 0.5513(7)
H47 H 0.1723 0.9488 0.5287
C50 C 0.2482(11) 0.9267(9) 0.5887(6)
H48 H 0.2578 0.8724 0.5908
C51 C 0.3237(13) 0.7533(9) 0.6501(6)
H49 H 0.3937 0.7290 0.6313
C52 C 0.2598(14) 0.7226(10) 0.6378(7)
H50 H 0.2854 0.6796 0.6105
C53 C 0.1599(13) 0.7563(9) 0.6662(6)
H51 H 0.1158 0.7362 0.6581
C54 C 0.1203(14) 0.8191(11) 0.7066(7)
H52 H 0.0507 0.8431 0.7264
C55 C 0.1949(12) 0.8452(8) 0.7160(6)
C56 C 0.1604(12) 0.9121(9) 0.7583(6)
C57 C 0.0718(12) 0.9373(9) 0.8001(6)
H53 H 0.0238 0.9155 0.8013
C58 C 0.0516(13) 0.9952(10) 0.8410(7)
H54 H -0.0100 1.0138 0.8703
C59 C 0.1227(12) 1.0242(9) 0.8379(7)
H55 H 0.1117 1.0630 0.8655
C60 C 0.2136(13) 0.9963(10) 0.7932(6)
H56 H 0.2632 1.0166 0.7909
C61 C 0.6446(14) 0.4898(11) 0.7945(7)
H57 H 0.6611 0.5313 0.7763
C62 C 0.7219(15) 0.4152(12) 0.7931(8)
H58 H 0.7903 0.4059 0.7751
C63 C 0.6956(17) 0.3556(13) 0.8189(9)
H59 H 0.7456 0.3032 0.8166
C64 C 0.5953(14) 0.3723(11) 0.8485(7)
H60 H 0.5768 0.3323 0.8679
C65 C 0.5249(11) 0.4467(9) 0.8489(6)
C66 C 0.4160(12) 0.4686(9) 0.8810(6)
C67 C 0.3823(13) 0.4202(10) 0.9179(7)
H61 H 0.4271 0.3678 0.9217
C68 C 0.2833(15) 0.4490(11) 0.9487(7)
H62 H 0.2599 0.4157 0.9740
C69 C 0.2174(13) 0.5236(10) 0.9444(7)
H63 H 0.1484 0.5432 0.9655
C70 C 0.2564(12) 0.5692(9) 0.9077(6)
H64 H 0.2124 0.6222 0.9046
C71 C 0.4920(14) 0.5042(10) 0.7011(7)
H65 H 0.5588 0.4878 0.7035
C72 C 0.4750(14) 0.4770(11) 0.6566(7)
H66 H 0.5298 0.4411 0.6282
C73 C 0.3765(13) 0.5022(10) 0.6531(7)
H67 H 0.3649 0.4842 0.6217
C74 C 0.2991(14) 0.5509(10) 0.6928(7)
H68 H 0.2321 0.5659 0.6913
C75 C 0.3180(12) 0.5800(9) 0.7372(6)
C76 C 0.2391(12) 0.6425(9) 0.7799(6)
C77 C 0.1352(14) 0.6635(12) 0.7923(8)
H69 H 0.1100 0.6359 0.7735
C78 C 0.0688(16) 0.7257(12) 0.8329(8)
H70 H -0.0018 0.7397 0.8428
C79 C 0.1068(14) 0.7653(11) 0.8575(7)
H71 H 0.0628 0.8091 0.8838
C80 C 0.2163(5) 0.7408(4) 0.8435(3)
H72 H 0.2435 0.7688 0.8605
Mo1A Mo 0.85542(9) 0.39947(7) 0.45081(5)
Mo2A Mo 1.13947(9) 0.50249(7) 0.34599(5)
Mo3A Mo 0.90477(9) 0.48866(7) 0.37407(5)
Mo4A Mo 1.02818(9) 0.28561(7) 0.52372(5)
Mo5A Mo 0.50423(9) 1.20795(7) 0.99890(5)
Mo5A_2 Mo 1.50423(9) 0.20795(7) -0.00110(5)
Mo6A Mo 1.20301(9) 0.29228(7) 0.50138(5)
Mo7A Mo 1.26684(9) 0.41631(7) 0.39969(5)
Mo8A Mo 0.34260(9) 1.21538(7) 0.97757(5)
Mo8A_2 Mo 1.34260(9) 0.21538(7) -0.02243(5)
Mo9A Mo 1.50434(9) -0.00754(7) 0.15129(5)
Mo9A_2 Mo 0.50434(9) 0.99246(7) 1.15129(5)
Mo10A Mo 1.59614(9) 0.07989(7) 0.09786(5)
Mo10A_2 Mo 0.59614(9) 1.07989(7) 1.09786(5)
Mo11A Mo 0.20876(9) 1.10504(7) 1.05307(5)
Mo11A_2 Mo 1.20876(9) 0.10504(7) 0.05307(5)
Mo12A Mo 0.27448(9) 1.01529(7) 1.12938(5)
Mo12A_2 Mo 1.27448(9) 0.01529(7) 0.12938(5)
Co1A Co 0.71427(15) 0.21184(12) 0.58691(8)
Co2A Co 1.21046(15) 0.24916(12) 0.24983(8)
Co3A Co 0.01986(15) 1.28276(12) 0.91089(8)
Co4A Co 1.63612(15) 0.10623(11) 0.31878(8)
Co5A Co 0.57808(16) 1.39053(11) 1.18508(8)
P1A P 1.4072(3) 0.2224(2) 0.39334(15)
P2A P 1.2974(3) 0.0491(2) 0.25242(15)
P3A P 0.0906(3) 1.2952(2) 1.02373(15)
P4A P 0.5393(3) 1.2727(2) 1.10841(15)
P5A P 1.0665(3) 0.4473(2) 0.24901(15)
P6A P 1.3413(3) 0.1709(2) 0.11433(14)
P7A P 0.8986(3) 0.2069(2) 0.47510(14)
P8A P 1.1110(3) 0.32858(19) 0.38655(14)
O1A O 0.2812(7) 1.1316(5) 0.9723(3)
O2A O 1.1635(7) 0.2105(5) 0.4849(4)
O3A O 1.0254(6) 0.3195(5) 0.4337(3)
O4A O 0.3426(6) 1.0199(5) 1.0491(3)
O5A O 0.9061(7) 0.4827(5) 0.4533(3)
O6A O 0.9782(7) 0.2060(5) 0.5034(4)
O7A O 1.2629(9) 0.0137(6) 0.3107(4)
O8A O 0.3685(7) 1.2900(5) 1.0162(3)
O9A O 1.1227(6) 0.4918(5) 0.4280(3)
O10A O 0.1600(7) 1.1161(6) 1.1344(4)
O11A O 1.0660(6) 0.3775(5) 0.5204(3)
O12A O 0.4682(6) 1.1222(5) 0.9797(3)
O13A O 0.1523(8) 1.0526(6) 1.0337(4)
O14A O 1.1206(8) 0.3587(6) 0.2380(4)
O15A O 1.0559(8) 0.4826(6) 0.1902(4)
O16A O 0.4266(8) 1.3065(6) 1.1484(4)
O17A O 1.0712(6) 0.4094(5) 0.3622(3)
O18A O 1.0090(7) 0.2670(6) 0.5922(4)
O19A O 0.2282(7) 0.9459(6) 1.1298(4)
O20A O 0.0337(8) 1.3622(6) 1.0740(4)
O21A O 1.3693(7) 0.1851(6) 0.3530(4)
O22A O 1.3299(7) 0.4733(6) 0.4008(4)
O23A O 0.3697(7) 1.2345(5) 0.9089(4)
O24A O 0.5655(7) 1.2300(6) 0.9371(4)
O25A O 1.2745(9) 0.1347(6) 0.2635(4)
O26A O 0.0275(8) 1.3191(6) 0.9833(4)
O27A O 0.9591(8) 0.1451(6) 0.4230(4)
O28A O 0.9592(7) 0.4745(6) 0.2883(4)
O29A O 0.5868(8) 1.3248(6) 1.1204(4)
O30A O 1.1705(8) 0.5812(6) 0.3353(4)
O31A O 0.5942(7) 1.1872(5) 1.1213(4)
O31A_2 O 1.5942(7) 0.1872(5) 0.1213(4)
O32A O 0.7294(7) 0.4523(5) 0.4727(4)
O33A O 1.2270(7) 0.2725(6) 0.5636(4)
O34A O 1.1605(8) 0.2612(5) 0.3409(4)
O35A O 1.2401(8) 0.0332(6) 0.2161(4)
O35A_2 O 0.2401(8) 1.0332(6) 1.2161(4)
O36A O 1.2879(6) 0.1807(5) 0.0680(3)
O36A_2 O 0.2879(6) 1.1807(5) 1.0680(3)
O37A O 0.0976(7) 1.2159(6) 1.0486(4)
O38A O 1.3918(8) 0.3078(6) 0.3782(4)
O39A O 0.1960(7) 1.2966(5) 0.9984(4)
O40A O 0.8490(6) 0.2896(5) 0.4539(3)
O41A O 1.4103(7) -0.0008(6) 0.2288(4)
O42A O 0.5329(7) 1.2786(5) 1.0479(4)
O43A O 1.1276(7) 0.4867(6) 0.2676(4)
O44A O 1.6033(8) -0.0867(6) 0.1599(4)
O45A O 1.1938(6) 0.3282(5) 0.4129(3)
O46A O 1.5186(7) 0.1708(6) 0.3827(4)
O47A O 1.4470(7) 0.1703(5) 0.0861(3)
O47A_2 O 0.4470(7) 1.1703(5) 1.0861(3)
O48A O 1.2826(7) 0.2387(5) 0.1590(3)
O49A O 1.7174(8) 0.0202(6) 0.0944(4)
O50A O 1.3470(7) 0.2212(6) 0.4538(4)
O51A O 0.9830(6) 0.5643(5) 0.3670(3)
O52A O 0.8896(7) 0.3897(5) 0.3700(4)
O53A O 1.2674(7) 0.4105(5) 0.3219(4)
O54A O 0.6284(6) 1.1151(5) 1.0150(4)
O54A_2 O 1.6284(6) 0.1151(5) 0.0150(4)
O55A O 1.4218(7) -0.0651(5) 0.1319(3)
O55A_2 O 0.4218(7) 0.9349(5) 1.1319(3)
O56A O 1.3592(7) 0.0891(5) 0.1384(3)
O56A_2 O 0.3592(7) 1.0891(5) 1.1384(3)
O57A O 0.8231(7) 0.1795(6) 0.5123(4)
O58A O 1.5213(7) 0.0831(5) 0.1754(4)
O59A O 0.8803(7) 0.3709(5) 0.5302(4)
O60A O 0.7923(7) 0.5608(6) 0.3756(4)
O61A O 1.2553(6) 0.3835(5) 0.4832(3)
O62A O 0.5511(6) 1.0053(5) 1.0693(3)
O62A_2 O 1.5511(6) 0.0053(5) 0.0693(3)
O63A O 0.7523(10) 0.3117(7) 0.6051(5)
H1A H 0.701(7) 0.338(7) 0.629(5)
H2A H 0.771(11) 0.343(6) 0.586(5)
O64A O 1.0927(10) 0.2136(9) 0.2380(6)
O65A O 1.3291(8) 0.2780(7) 0.2579(4)
O66A O 0.1686(8) 1.1832(7) 0.8951(4)
H3A H 0.214(7) 1.182(9) 0.867(3)
H4A H 0.199(9) 1.151(7) 0.915(5)
O67A O 1.5455(10) 0.1595(7) 0.2612(4)
H5A H 1.526(11) 0.148(9) 0.236(4)
H6A H 1.586(10) 0.178(10) 0.245(5)
O68A O 0.5006(12) 1.3295(8) 1.2470(5)
H7A H 0.454(8) 1.347(10) 1.276(4)
H8A H 0.543(10) 1.292(7) 1.257(6)
N1A N 0.8071(10) 0.1369(8) 0.6345(5)
N2A N 0.6169(10) 0.2359(8) 0.6718(5)
N3A N 0.6410(10) 0.1381(8) 0.5726(5)
N4A N 0.6103(9) 0.2843(7) 0.5444(5)
N5A N 0.0168(10) 1.2536(8) 0.8282(5)
N6A N 0.0905(10) 1.3477(8) 0.8564(5)
N7A N -0.0542(9) 1.2132(7) 0.9575(5)
N8A N -0.1387(9) 1.3599(8) 0.9265(5)
N9A N 1.7090(10) 0.1852(7) 0.3133(5)
N10A N 1.7706(10) 0.0584(7) 0.2456(5)
N11A N 1.7155(9) 0.0436(7) 0.3786(5)
N12A N 1.6243(9) -0.0047(7) 0.3220(5)
N13A N 0.5875(9) 1.4445(7) 1.2578(5)
N14A N 0.7240(9) 1.3199(7) 1.1923(5)
N15A N 0.4535(10) 1.4951(7) 1.1791(5)
N16A N 0.6474(9) 1.4565(7) 1.1241(5)
C1A C 0.9031(15) 0.0846(12) 0.6127(9)
H9A H 0.9327 0.0797 0.5732
C2A C 0.9608(18) 0.0369(14) 0.6472(10)
H10A H 1.0283 -0.0001 0.6316
C3A C 0.9164(16) 0.0458(13) 0.7028(9)
H11A H 0.9529 0.0138 0.7270
C4A C 0.8225(13) 0.0983(10) 0.7248(7)
H12A H 0.7938 0.1060 0.7643
C5A C 0.7666(14) 0.1420(10) 0.6895(7)
C6A C 0.6571(13) 0.1928(9) 0.7109(6)
C7A C 0.5981(16) 0.1975(12) 0.7664(8)
H13A H 0.6272 0.1675 0.7938
C8A C 0.4992(19) 0.2455(14) 0.7798(10)
H14A H 0.4592 0.2478 0.8173
C9A C 0.4539(17) 0.2906(13) 0.7425(9)
H15A H 0.3843 0.3246 0.7533
C10A C 0.5152(14) 0.2844(11) 0.6874(8)
H16A H 0.4859 0.3144 0.6600
C11A C 0.6631(14) 0.0640(11) 0.5872(7)
H17A H 0.7137 0.0418 0.6060
C12A C 0.6178(15) 0.0182(12) 0.5769(8)
H18A H 0.6370 -0.0352 0.5873
C13A C 0.5418(16) 0.0517(12) 0.5504(8)
H19A H 0.5069 0.0219 0.5432
C14A C 0.5186(14) 0.1283(11) 0.5350(7)
H20A H 0.4687 0.1514 0.5159
C15A C 0.5674(12) 0.1722(10) 0.5471(6)
C16A C 0.5535(11) 0.2520(9) 0.5299(6)
C17A C 0.4821(14) 0.2956(11) 0.5024(7)
H21A H 0.4358 0.2759 0.4968
C18A C 0.4802(12) 0.3681(10) 0.4834(7)
H22A H 0.4321 0.3988 0.4646
C19A C 0.5458(12) 0.3951(10) 0.4915(7)
H23A H 0.5498 0.4416 0.4745
C20A C 0.6087(11) 0.3549(9) 0.5248(6)
H24A H 0.6503 0.3771 0.5337
C21A C 0.1306(16) 1.3922(13) 0.8715(9)
H25A H 0.1245 1.3980 0.9102
C22A C 0.1815(19) 1.4314(15) 0.8337(11)
H26A H 0.2070 1.4648 0.8463
C23A C 0.1934(16) 1.4197(13) 0.7774(9)
H27A H 0.2296 1.4438 0.7504
C24A C 0.1548(16) 1.3754(12) 0.7610(9)
H28A H 0.1625 1.3679 0.7223
C25A C 0.1028(12) 1.3395(10) 0.8004(7)
C26A C 0.0523(13) 1.2927(10) 0.7867(6)
C27A C 0.0398(16) 1.2873(13) 0.7330(8)
H29A H 0.0624 1.3165 0.7036
C28A C -0.0052(18) 1.2395(14) 0.7240(9)
H30A H -0.0108 1.2331 0.6877
C29A C -0.0424(18) 1.2006(14) 0.7676(9)
H31A H -0.0751 1.1681 0.7622
C30A C -0.0303(14) 1.2107(11) 0.8205(8)
H32A H -0.0571 1.1855 0.8514
C31A C -0.0102(11) 1.1438(9) 0.9766(6)
H33A H 0.0614 1.1197 0.9650
C32A C -0.0605(13) 1.1030(9) 1.0124(7)
H34A H -0.0249 1.0544 1.0265
C33A C -0.1646(15) 1.1362(11) 1.0267(8)
H35A H -0.2021 1.1101 1.0506
C34A C -0.2144(14) 1.2087(11) 1.0056(7)
H36A H -0.2856 1.2313 1.0130
C35A C -0.1556(12) 1.2462(9) 0.9733(6)
C36A C -0.2029(11) 1.3299(9) 0.9561(6)
C37A C -0.3069(13) 1.3715(11) 0.9684(7)
H37A H -0.3514 1.3476 0.9873
C38A C -0.3443(15) 1.4502(11) 0.9521(8)
H38A H -0.4148 1.4813 0.9622
C39A C -0.2810(16) 1.4804(12) 0.9226(8)
H39A H -0.3051 1.5326 0.9103
C40A C -0.1744(13) 1.4322(10) 0.9097(7)
H40A H -0.1284 1.4534 0.8883
C41A C 1.5669(12) -0.0243(10) 0.2951(6)
H41A H 1.5221 0.0159 0.2785
C42A C 1.5743(14) -0.1015(11) 0.2924(7)
H42A H 1.5343 -0.1146 0.2745
C43A C 1.6415(14) -0.1597(11) 0.3163(7)
H43A H 1.6509 -0.2137 0.3131
C44A C 1.6928(14) -0.1383(11) 0.3439(7)
H44A H 1.7377 -0.1777 0.3609
C45A C 1.6819(11) -0.0617(9) 0.3482(6)
C46A C 1.7292(11) -0.0328(9) 0.3820(6)
C47A C 1.7807(13) -0.0803(11) 0.4179(7)
H45A H 1.7903 -0.1346 0.4187
C48A C 1.8179(14) -0.0515(10) 0.4520(7)
H46A H 1.8522 -0.0844 0.4767
C49A C 1.8033(12) 0.0279(10) 0.4487(7)
H47A H 1.8277 0.0512 0.4713
C50A C 1.7518(11) 0.0733(9) 0.4113(6)
H48A H 1.7422 0.1276 0.4092
C51A C 1.6763(13) 0.2467(9) 0.3499(6)
H49A H 1.6063 0.2710 0.3687
C52A C 1.7402(14) 0.2774(10) 0.3622(7)
H50A H 1.7146 0.3204 0.3895
C53A C 1.8401(13) 0.2437(9) 0.3338(6)
H51A H 1.8842 0.2638 0.3419
C54A C 1.8797(14) 0.1809(11) 0.2934(7)
H52A H 1.9493 0.1569 0.2736
C55A C 1.8051(12) 0.1548(8) 0.2840(6)
C56A C 1.8396(12) 0.0879(9) 0.2417(6)
C57A C 1.9282(12) 0.0627(9) 0.1999(6)
H53A H 1.9762 0.0845 0.1987
C58A C 1.9484(13) 0.0048(10) 0.1590(7)
H54A H 2.0100 -0.0138 0.1297
C59A C 1.8773(12) -0.0242(9) 0.1621(7)
H55A H 1.8883 -0.0630 0.1345
C60A C 1.7864(13) 0.0037(10) 0.2068(6)
H56A H 1.7368 -0.0166 0.2091
C61A C 0.3554(14) 1.5102(11) 1.2055(7)
H57A H 0.3389 1.4687 1.2237
C62A C 0.2781(15) 1.5848(12) 1.2069(8)
H58A H 0.2097 1.5941 1.2249
C63A C 0.3044(17) 1.6444(13) 1.1811(9)
H59A H 0.2544 1.6968 1.1834
C64A C 0.4047(14) 1.6277(11) 1.1515(7)
H60A H 0.4232 1.6677 1.1321
C65A C 0.4751(11) 1.5533(9) 1.1511(6)
C66A C 0.5840(12) 1.5314(9) 1.1190(6)
C67A C 0.6177(13) 1.5798(10) 1.0821(7)
H61A H 0.5729 1.6322 1.0783
C68A C 0.7167(15) 1.5510(11) 1.0513(7)
H62A H 0.7401 1.5843 1.0260
C69A C 0.7826(13) 1.4764(10) 1.0556(7)
H63A H 0.8516 1.4568 1.0345
C70A C 0.7436(12) 1.4308(9) 1.0923(6)
H64A H 0.7876 1.3778 1.0954
C71A C 0.5080(14) 1.4958(10) 1.2989(7)
H65A H 0.4412 1.5122 1.2965
C72A C 0.5250(14) 1.5230(11) 1.3434(7)
H66A H 0.4702 1.5589 1.3718
C73A C 0.6235(13) 1.4978(10) 1.3469(7)
H67A H 0.6351 1.5158 1.3783
C74A C 0.7009(14) 1.4491(10) 1.3072(7)
H68A H 0.7679 1.4341 1.3087
C75A C 0.6820(12) 1.4200(9) 1.2628(6)
C76A C 0.7609(12) 1.3575(9) 1.2201(6)
C77A C 0.8648(14) 1.3365(12) 1.2077(8)
H69A H 0.8900 1.3641 1.2265
C78A C 0.9312(16) 1.2743(12) 1.1671(8)
H70A H 1.0018 1.2603 1.1572
C79A C 0.8932(14) 1.2347(11) 1.1425(7)
H71A H 0.9372 1.1909 1.1162
C80A C 0.7837(5) 1.2592(4) 1.1565(3)
H72A H 0.7565 1.2312 1.1395
O69 O 0.8480(5) 0.8706(4) 0.6087(3)
H73 H 0.8744 0.8303 0.5774
H74 H 0.8810 0.8328 0.6330
O70 O 0.8119(5) 0.6300(4) 0.8910(3)
loop_
_geom_bond_atom_site_label_1
_geom_bond_atom_site_label_2
_geom_bond_site_symmetry_1
_geom_bond_site_symmetry_2
Mo1 O3 1_555 1_555
Mo2 O9 1_555 1_555
Mo3 O5 1_555 1_555
Mo4 O2 1_555 1_555
Mo5 O8 1_555 1_555
Mo6 O2 1_555 1_555
Mo7 O9 1_555 1_555
Mo8 O1 1_555 1_555
Mo9 O41 1_555 1_555
Mo10 O31 1_555 1_555
Mo11 O1 1_555 1_555
Mo12 O4 1_555 1_555
Co1 O57 1_555 1_555
Co2 O14 1_555 1_555
Co3 O26 1_555 1_555
Co4 O46 1_555 1_555
Co5 O29 1_555 1_555
Co6 O5 1_555 1_555
Co7 O4 1_555 1_555
P1 O21 1_555 1_555
P2 O7 1_555 1_555
P3 O20 1_555 1_555
P4 O16 1_555 1_555
P5 O14 1_555 1_555
P6 O36 1_555 1_555
P7 O6 1_555 1_555
P8 O3 1_555 1_555
O3 Mo4 1_555 1_555
O4 Mo11 1_555 1_555
O5 Mo1 1_555 1_555
O6 Mo4 1_555 1_555
O8 Mo8 1_555 1_555
O9 Co6 1_555 1_555
O10 Mo11 1_555 1_555
O11 Mo4 1_555 1_555
O12 Mo5 1_555 1_555
O13 Mo11 1_555 1_555
O15 P5 1_555 1_555
O17 Mo2 1_555 1_555
O18 Mo4 1_555 1_555
O19 Mo12 1_555 1_555
O22 Mo7 1_555 1_555
O23 Mo8 1_555 1_555
O24 Mo5 1_555 1_555
O25 Co2 1_555 1_555
O26 P3 1_555 1_555
O27 P7 1_555 1_555
O28 Mo3 1_555 1_555
O29 P4 1_555 1_555
O30 Mo2 1_555 1_555
O31 P4 1_555 1_555
O32 Mo1 1_555 1_555
O33 Mo6 1_555 1_555
O34 Co2 1_555 1_555
O35 Mo12 1_555 1_555
O36 Mo8 1_555 1_555
O37 Mo11 1_555 1_555
O38 Mo7 1_555 1_555
O39 Mo8 1_555 1_555
O40 Mo1 1_555 1_555
O41 P2 1_555 1_555
O42 Mo5 1_555 1_555
O43 Mo2 1_555 1_555
O44 Mo9 1_555 1_555
O45 Mo6 1_555 1_555
O46 P1 1_555 1_555
O47 Mo5 1_555 1_555
O48 Co2 1_555 1_555
O49 Mo10 1_555 1_555
O50 Mo6 1_555 1_555
O51 Mo2 1_555 1_555
O52 Mo1 1_555 1_555
O53 Mo2 1_555 1_555
O54 Mo5 1_555 1_555
O55 Mo9 1_555 1_555
O56 Mo9 1_555 1_555
O57 P7 1_555 1_555
O58 Mo9 1_555 1_555
O59 Mo1 1_555 1_555
O60 Mo3 1_555 1_555
O61 Mo6 1_555 1_555
O62 Mo9 1_555 1_555
O63 Co1 1_555 1_555
H1 O63 1_555 1_555
H2 O63 1_555 1_555
O64 Co2 1_555 1_555
O65 Co2 1_555 1_555
O66 Co3 1_555 1_555
H3 O66 1_555 1_555
H4 O66 1_555 1_555
O67 Co4 1_555 1_555
H5 O67 1_555 1_555
H6 O67 1_555 1_555
O68 Co5 1_555 1_555
H7 O68 1_555 1_555
H8 O68 1_555 1_555
N1 Co1 1_555 1_555
N2 Co1 1_555 1_555
N3 Co1 1_555 1_555
N4 Co1 1_555 1_555
N5 Co3 1_555 1_555
N6 Co3 1_555 1_555
N7 Co3 1_555 1_555
N8 Co3 1_555 1_555
N9 Co4 1_555 1_555
N10 Co4 1_555 1_555
N11 Co4 1_555 1_555
N12 Co4 1_555 1_555
N13 Co5 1_555 1_555
N14 Co5 1_555 1_555
N15 Co5 1_555 1_555
N16 Co5 1_555 1_555
C1 N1 1_555 1_555
H9 C1 1_555 1_555
C2 C1 1_555 1_555
H10 C2 1_555 1_555
C3 C2 1_555 1_555
H11 C3 1_555 1_555
C4 C3 1_555 1_555
H12 C4 1_555 1_555
C5 N1 1_555 1_555
C6 N2 1_555 1_555
C7 C6 1_555 1_555
H13 C7 1_555 1_555
C8 C7 1_555 1_555
H14 C8 1_555 1_555
C9 C8 1_555 1_555
H15 C9 1_555 1_555
C10 N2 1_555 1_555
H16 C10 1_555 1_555
C11 N3 1_555 1_555
H17 C11 1_555 1_555
C12 C11 1_555 1_555
H18 C12 1_555 1_555
C13 C12 1_555 1_555
H19 C13 1_555 1_555
C14 C13 1_555 1_555
H20 C14 1_555 1_555
C15 N3 1_555 1_555
C16 N4 1_555 1_555
C17 C16 1_555 1_555
H21 C17 1_555 1_555
C18 C17 1_555 1_555
H22 C18 1_555 1_555
C19 C18 1_555 1_555
H23 C19 1_555 1_555
C20 N4 1_555 1_555
H24 C20 1_555 1_555
C21 N6 1_555 1_555
H25 C21 1_555 1_555
C22 C21 1_555 1_555
H26 C22 1_555 1_555
C23 C22 1_555 1_555
H27 C23 1_555 1_555
C24 C23 1_555 1_555
H28 C24 1_555 1_555
C25 N6 1_555 1_555
C26 N5 1_555 1_555
C27 C26 1_555 1_555
H29 C27 1_555 1_555
C28 C27 1_555 1_555
H30 C28 1_555 1_555
C29 C28 1_555 1_555
H31 C29 1_555 1_555
C30 N5 1_555 1_555
H32 C30 1_555 1_555
C31 N7 1_555 1_555
H33 C31 1_555 1_555
C32 C31 1_555 1_555
H34 C32 1_555 1_555
C33 C32 1_555 1_555
H35 C33 1_555 1_555
C34 C33 1_555 1_555
H36 C34 1_555 1_555
C35 N7 1_555 1_555
C36 N8 1_555 1_555
C37 C36 1_555 1_555
H37 C37 1_555 1_555
C38 C37 1_555 1_555
H38 C38 1_555 1_555
C39 C38 1_555 1_555
H39 C39 1_555 1_555
C40 N8 1_555 1_555
H40 C40 1_555 1_555
C41 N12 1_555 1_555
H41 C41 1_555 1_555
C42 C41 1_555 1_555
H42 C42 1_555 1_555
C43 C42 1_555 1_555
H43 C43 1_555 1_555
C44 C43 1_555 1_555
H44 C44 1_555 1_555
C45 N12 1_555 1_555
C46 N11 1_555 1_555
C47 C46 1_555 1_555
H45 C47 1_555 1_555
C48 C47 1_555 1_555
H46 C48 1_555 1_555
C49 C48 1_555 1_555
H47 C49 1_555 1_555
C50 N11 1_555 1_555
H48 C50 1_555 1_555
C51 N9 1_555 1_555
H49 C51 1_555 1_555
C52 C51 1_555 1_555
H50 C52 1_555 1_555
C53 C52 1_555 1_555
H51 C53 1_555 1_555
C54 C53 1_555 1_555
H52 C54 1_555 1_555
C55 N9 1_555 1_555
C56 N10 1_555 1_555
C57 C56 1_555 1_555
H53 C57 1_555 1_555
C58 C57 1_555 1_555
H54 C58 1_555 1_555
C59 C58 1_555 1_555
H55 C59 1_555 1_555
C60 N10 1_555 1_555
H56 C60 1_555 1_555
C61 N15 1_555 1_555
H57 C61 1_555 1_555
C62 C61 1_555 1_555
H58 C62 1_555 1_555
C63 C62 1_555 1_555
H59 C63 1_555 1_555
C64 C63 1_555 1_555
H60 C64 1_555 1_555
C65 N15 1_555 1_555
C66 N16 1_555 1_555
C67 C66 1_555 1_555
H61 C67 1_555 1_555
C68 C67 1_555 1_555
H62 C68 1_555 1_555
C69 C68 1_555 1_555
H63 C69 1_555 1_555
C70 N16 1_555 1_555
H64 C70 1_555 1_555
C71 N13 1_555 1_555
H65 C71 1_555 1_555
C72 C71 1_555 1_555
H66 C72 1_555 1_555
C73 C72 1_555 1_555
H67 C73 1_555 1_555
C74 C73 1_555 1_555
H68 C74 1_555 1_555
C75 N13 1_555 1_555
C76 N14 1_555 1_555
C77 C76 1_555 1_555
H69 C77 1_555 1_555
C78 C77 1_555 1_555
H70 C78 1_555 1_555
C79 C78 1_555 1_555
H71 C79 1_555 1_555
C80 N14 1_555 1_555
H72 C80 1_555 1_555
O69 H73 1_555 1_555
H74 O69 1_555 1_555
Mo1A O3A 1_555 1_555
Mo2A O9A 1_555 1_555
Mo3A O5A 1_555 1_555
Mo4A O2A 1_555 1_555
Mo5A O8A 1_555 1_555
Mo5A_2 O47A 1_555 1_555
Mo6A O2A 1_555 1_555
Mo7A O9A 1_555 1_555
Mo8A O1A 1_555 1_555
Mo8A_2 O36A 1_555 1_555
Mo9A O41A 1_555 1_555
Mo9A_2 O55A_2 1_555 1_555
Mo10A O31A_2 1_555 1_555
Mo10A_2 O31A 1_555 1_555
Mo11A O1A 1_555 1_555
Mo11A_2 O36A 1_555 1_555
Mo12A O4A 1_555 1_555
Mo12A_2 O35A 1_555 1_555
Co1A O57A 1_555 1_555
Co2A O14A 1_555 1_555
Co3A O26A 1_555 1_555
Co4A O46A 1_555 1_555
Co5A O29A 1_555 1_555
P1A O21A 1_555 1_555
P2A O7A 1_555 1_555
P3A O20A 1_555 1_555
P4A O16A 1_555 1_555
P5A O14A 1_555 1_555
P6A O36A 1_555 1_555
P7A O6A 1_555 1_555
P8A O3A 1_555 1_555
O3A Mo4A 1_555 1_555
O4A Co7 1_555 1_555
O5A Co6 1_555 1_555
O6A Mo4A 1_555 1_555
O8A Mo8A 1_555 1_555
O9A Co6 1_555 1_555
O10A Mo11A 1_555 1_555
O11A Co6 1_555 1_555
O12A Co7 1_555 1_555
O13A Mo11A 1_555 1_555
O15A P5A 1_555 1_555
O17A Mo2A 1_555 1_555
O18A Mo4A 1_555 1_555
O19A Mo12A 1_555 1_555
O22A Mo7A 1_555 1_555
O23A Mo8A 1_555 1_555
O24A Mo5A 1_555 1_555
O25A Co2A 1_555 1_555
O26A P3A 1_555 1_555
O27A P7A 1_555 1_555
O28A Mo3A 1_555 1_555
O29A P4A 1_555 1_555
O30A Mo2A 1_555 1_555
O31A P4A 1_555 1_555
O32A Mo1A 1_555 1_555
O33A Mo6A 1_555 1_555
O34A Co2A 1_555 1_555
O35A P2A 1_555 1_555
O35A_2 Mo12A 1_555 1_555
O36A_2 Mo8A 1_555 1_555
O37A Mo11A 1_555 1_555
O38A Mo7A 1_555 1_555
O39A Mo8A 1_555 1_555
O40A Mo1A 1_555 1_555
O41A P2A 1_555 1_555
O42A Mo5A 1_555 1_555
O43A Mo2A 1_555 1_555
O44A Mo9A 1_555 1_555
O45A Mo6A 1_555 1_555
O46A P1A 1_555 1_555
O47A Mo10A 1_555 1_555
O47A_2 Mo5A 1_555 1_555
O48A Co2A 1_555 1_555
O49A Mo10A 1_555 1_555
O50A Mo6A 1_555 1_555
O51A Mo2A 1_555 1_555
O52A Mo1A 1_555 1_555
O53A Mo2A 1_555 1_555
O54A Mo5A 1_555 1_555
O54A_2 Mo5A_2 1_555 1_555
O55A Mo9A 1_555 1_555
O55A_2 Mo12A 1_555 1_555
O56A Mo9A 1_555 1_555
O56A_2 Mo9A_2 1_555 1_555
O57A P7A 1_555 1_555
O58A Mo9A 1_555 1_555
O59A Mo1A 1_555 1_555
O60A Mo3A 1_555 1_555
O61A Mo6A 1_555 1_555
O62A Co7 1_555 1_555
O62A_2 Mo9A 1_555 1_555
O63A Co1A 1_555 1_555
H1A O63A 1_555 1_555
H2A O63A 1_555 1_555
O64A Co2A 1_555 1_555
O65A Co2A 1_555 1_555
O66A Co3A 1_555 1_555
H3A O66A 1_555 1_555
H4A O66A 1_555 1_555
O67A Co4A 1_555 1_555
H5A O67A 1_555 1_555
H6A O67A 1_555 1_555
O68A Co5A 1_555 1_555
H7A O68A 1_555 1_555
H8A O68A 1_555 1_555
N1A Co1A 1_555 1_555
N2A Co1A 1_555 1_555
N3A Co1A 1_555 1_555
N4A Co1A 1_555 1_555
N5A Co3A 1_555 1_555
N6A Co3A 1_555 1_555
N7A Co3A 1_555 1_555
N8A Co3A 1_555 1_555
N9A Co4A 1_555 1_555
N10A Co4A 1_555 1_555
N11A Co4A 1_555 1_555
N12A Co4A 1_555 1_555
N13A Co5A 1_555 1_555
N14A Co5A 1_555 1_555
N15A Co5A 1_555 1_555
N16A Co5A 1_555 1_555
C1A N1A 1_555 1_555
H9A C1A 1_555 1_555
C2A C1A 1_555 1_555
H10A C2A 1_555 1_555
C3A C2A 1_555 1_555
H11A C3A 1_555 1_555
C4A C3A 1_555 1_555
H12A C4A 1_555 1_555
C5A N1A 1_555 1_555
C6A N2A 1_555 1_555
C7A C6A 1_555 1_555
H13A C7A 1_555 1_555
C8A C7A 1_555 1_555
H14A C8A 1_555 1_555
C9A C8A 1_555 1_555
H15A C9A 1_555 1_555
C10A N2A 1_555 1_555
H16A C10A 1_555 1_555
C11A N3A 1_555 1_555
H17A C11A 1_555 1_555
C12A C11A 1_555 1_555
H18A C12A 1_555 1_555
C13A C12A 1_555 1_555
H19A C13A 1_555 1_555
C14A C13A 1_555 1_555
H20A C14A 1_555 1_555
C15A N3A 1_555 1_555
C16A N4A 1_555 1_555
C17A C16A 1_555 1_555
H21A C17A 1_555 1_555
C18A C17A 1_555 1_555
H22A C18A 1_555 1_555
C19A C18A 1_555 1_555
H23A C19A 1_555 1_555
C20A N4A 1_555 1_555
H24A C20A 1_555 1_555
C21A N6A 1_555 1_555
H25A C21A 1_555 1_555
C22A C21A 1_555 1_555
H26A C22A 1_555 1_555
C23A C22A 1_555 1_555
H27A C23A 1_555 1_555
C24A C23A 1_555 1_555
H28A C24A 1_555 1_555
C25A N6A 1_555 1_555
C26A N5A 1_555 1_555
C27A C26A 1_555 1_555
H29A C27A 1_555 1_555
C28A C27A 1_555 1_555
H30A C28A 1_555 1_555
C29A C28A 1_555 1_555
H31A C29A 1_555 1_555
C30A N5A 1_555 1_555
H32A C30A 1_555 1_555
C31A N7A 1_555 1_555
H33A C31A 1_555 1_555
C32A C31A 1_555 1_555
H34A C32A 1_555 1_555
C33A C32A 1_555 1_555
H35A C33A 1_555 1_555
C34A C33A 1_555 1_555
H36A C34A 1_555 1_555
C35A N7A 1_555 1_555
C36A N8A 1_555 1_555
C37A C36A 1_555 1_555
H37A C37A 1_555 1_555
C38A C37A 1_555 1_555
H38A C38A 1_555 1_555
C39A C38A 1_555 1_555
H39A C39A 1_555 1_555
C40A N8A 1_555 1_555
H40A C40A 1_555 1_555
C41A N12A 1_555 1_555
H41A C41A 1_555 1_555
C42A C41A 1_555 1_555
H42A C42A 1_555 1_555
C43A C42A 1_555 1_555
H43A C43A 1_555 1_555
C44A C43A 1_555 1_555
H44A C44A 1_555 1_555
C45A N12A 1_555 1_555
C46A N11A 1_555 1_555
C47A C46A 1_555 1_555
H45A C47A 1_555 1_555
C48A C47A 1_555 1_555
H46A C48A 1_555 1_555
C49A C48A 1_555 1_555
H47A C49A 1_555 1_555
C50A N11A 1_555 1_555
H48A C50A 1_555 1_555
C51A N9A 1_555 1_555
H49A C51A 1_555 1_555
C52A C51A 1_555 1_555
H50A C52A 1_555 1_555
C53A C52A 1_555 1_555
H51A C53A 1_555 1_555
C54A C53A 1_555 1_555
H52A C54A 1_555 1_555
C55A N9A 1_555 1_555
C56A N10A 1_555 1_555
C57A C56A 1_555 1_555
H53A C57A 1_555 1_555
C58A C57A 1_555 1_555
H54A C58A 1_555 1_555
C59A C58A 1_555 1_555
H55A C59A 1_555 1_555
C60A N10A 1_555 1_555
H56A C60A 1_555 1_555
C61A N15A 1_555 1_555
H57A C61A 1_555 1_555
C62A C61A 1_555 1_555
H58A C62A 1_555 1_555
C63A C62A 1_555 1_555
H59A C63A 1_555 1_555
C64A C63A 1_555 1_555
H60A C64A 1_555 1_555
C65A N15A 1_555 1_555
C66A N16A 1_555 1_555
C67A C66A 1_555 1_555
H61A C67A 1_555 1_555
C68A C67A 1_555 1_555
H62A C68A 1_555 1_555
C69A C68A 1_555 1_555
H63A C69A 1_555 1_555
C70A N16A 1_555 1_555
H64A C70A 1_555 1_555
C71A N13A 1_555 1_555
H65A C71A 1_555 1_555
C72A C71A 1_555 1_555
H66A C72A 1_555 1_555
C73A C72A 1_555 1_555
H67A C73A 1_555 1_555
C74A C73A 1_555 1_555
H68A C74A 1_555 1_555
C75A N13A 1_555 1_555
C76A N14A 1_555 1_555
C77A C76A 1_555 1_555
H69A C77A 1_555 1_555
C78A C77A 1_555 1_555
H70A C78A 1_555 1_555
C79A C78A 1_555 1_555
H71A C79A 1_555 1_555
C80A N14A 1_555 1_555
H72A C80A 1_555 1_555
Mo3 O17 1_555 1_555
Mo3 O51 1_555 1_555
Mo3 O52 1_555 1_555
Mo4 O59 1_555 1_555
Mo6 O11 1_555 1_555
Mo7 O45 1_555 1_555
Mo7 O53 1_555 1_555
Mo7 O61 1_555 1_555
Mo8 O12 1_555 1_555
Mo10 O47 1_555 1_555
Mo10 O54 1_555 1_555
Mo10 O58 1_555 1_555
Mo10 O62 1_555 1_555
Mo11 O36 1_555 1_555
Mo12 O10 1_555 1_555
Mo12 O55 1_555 1_555
Mo12 O56 1_555 1_555
Co6 O11 1_555 1_555
Co7 O12 1_555 1_555
Co7 O62 1_555 1_555
P1 O38 1_555 1_555
P1 O50 1_555 1_555
P2 O25 1_555 1_555
P2 O35 1_555 1_555
P3 O37 1_555 1_555
P3 O39 1_555 1_555
P4 O42 1_555 1_555
P5 O28 1_555 1_555
P5 O43 1_555 1_555
P6 O47 1_555 1_555
P6 O48 1_555 1_555
P6 O56 1_555 1_555
P7 O40 1_555 1_555
P8 O17 1_555 1_555
P8 O34 1_555 1_555
P8 O45 1_555 1_555
C4 C5 1_555 1_555
C5 C6 1_555 1_555
C9 C10 1_555 1_555
C14 C15 1_555 1_555
C15 C16 1_555 1_555
C19 C20 1_555 1_555
C24 C25 1_555 1_555
C25 C26 1_555 1_555
C29 C30 1_555 1_555
C34 C35 1_555 1_555
C35 C36 1_555 1_555
C39 C40 1_555 1_555
C44 C45 1_555 1_555
C45 C46 1_555 1_555
C49 C50 1_555 1_555
C54 C55 1_555 1_555
C55 C56 1_555 1_555
C59 C60 1_555 1_555
C64 C65 1_555 1_555
C65 C66 1_555 1_555
C69 C70 1_555 1_555
C74 C75 1_555 1_555
C75 C76 1_555 1_555
C79 C80 1_555 1_555
Mo1A O5A 1_555 1_555
Mo3A O17A 1_555 1_555
Mo3A O51A 1_555 1_555
Mo3A O52A 1_555 1_555
Mo4A O11A 1_555 1_555
Mo4A O59A 1_555 1_555
Mo5A O12A 1_555 1_555
Mo6A O11A 1_555 1_555
Mo7A O45A 1_555 1_555
Mo7A O53A 1_555 1_555
Mo7A O61A 1_555 1_555
Mo8A O12A 1_555 1_555
Mo9A_2 O62A 1_555 1_555
Mo10A O54A_2 1_555 1_555
Mo10A O58A 1_555 1_555
Mo10A O62A_2 1_555 1_555
Mo10A_2 O47A_2 1_555 1_555
Mo10A_2 O54A 1_555 1_555
Mo10A_2 O62A 1_555 1_555
Mo11A O4A 1_555 1_555
Mo11A O36A_2 1_555 1_555
Mo12A O10A 1_555 1_555
Mo12A O56A_2 1_555 1_555
Mo12A_2 O55A 1_555 1_555
Mo12A_2 O56A 1_555 1_555
P1A O38A 1_555 1_555
P1A O50A 1_555 1_555
P2A O25A 1_555 1_555
P3A O37A 1_555 1_555
P3A O39A 1_555 1_555
P4A O42A 1_555 1_555
P5A O28A 1_555 1_555
P5A O43A 1_555 1_555
P6A O47A 1_555 1_555
P6A O48A 1_555 1_555
P6A O56A 1_555 1_555
P7A O40A 1_555 1_555
P8A O17A 1_555 1_555
P8A O34A 1_555 1_555
P8A O45A 1_555 1_555
C4A C5A 1_555 1_555
C5A C6A 1_555 1_555
C9A C10A 1_555 1_555
C14A C15A 1_555 1_555
C15A C16A 1_555 1_555
C19A C20A 1_555 1_555
C24A C25A 1_555 1_555
C25A C26A 1_555 1_555
C29A C30A 1_555 1_555
C34A C35A 1_555 1_555
C35A C36A 1_555 1_555
C39A C40A 1_555 1_555
C44A C45A 1_555 1_555
C45A C46A 1_555 1_555
C49A C50A 1_555 1_555
C54A C55A 1_555 1_555
C55A C56A 1_555 1_555
C59A C60A 1_555 1_555
C64A C65A 1_555 1_555
C65A C66A 1_555 1_555
C69A C70A 1_555 1_555
C74A C75A 1_555 1_555
C75A C76A 1_555 1_555
C79A C80A 1_555 1_555

#END
