
#######################################################################
#
#                 Cambridge Crystallographic Data Centre
#                                CCDC 
#
#######################################################################
#
# If this CIF has been generated from an entry in the Cambridge 
# Structural Database, then it will include bibliographic, chemical, 
# crystal, experimental, refinement or atomic coordinate data resulting 
# from the CCDC's data processing and validation procedures.
#
#######################################################################

data_UGEZAJ
_symmetry_cell_setting           monoclinic
_symmetry_space_group_name_H-M   'P 21/c'
_symmetry_Int_Tables_number      14
_space_group_name_Hall           '-P 2ybc'
loop_
_symmetry_equiv_pos_site_id
_symmetry_equiv_pos_as_xyz
1 x,y,z
2 -x,1/2+y,1/2-z
3 -x,-y,-z
4 x,1/2-y,1/2+z
_cell_length_a                   10.1808(4)
_cell_length_b                   16.5801(7)
_cell_length_c                   16.2236(6)
_cell_angle_alpha                90
_cell_angle_beta                 101.9640(10)
_cell_angle_gamma                90
_cell_volume                     2679.04
loop_
_atom_site_label
_atom_site_type_symbol
_atom_site_fract_x
_atom_site_fract_y
_atom_site_fract_z
Cd1 Cd 0.473707(16) 0.150294(10) 0.957787(10)
N1 N 0.4095(2) 0.23461(13) 0.84061(12)
C1 C 0.1971(2) 0.09773(15) 0.94232(15)
O1 O -0.41393(16) 0.05692(12) 0.87457(12)
O2 O 0.54655(18) 0.07433(10) 1.07929(11)
H1 H 0.6200 0.0434 1.0795
H2 H 0.4899 0.0419 1.0916
C2 C 0.0637(2) 0.06144(14) 0.90235(15)
N2 N 0.1703(2) 0.22902(13) 0.63649(13)
H3 H 0.1452 0.2627 0.5959
O3 O -0.29609(18) 0.14834(12) 0.95608(14)
O4 O 0.30027(16) 0.06639(10) 0.92137(11)
N3 N -0.3581(2) -0.04127(14) 0.43325(14)
H4 H -0.3580 -0.0140 0.3882
C3 C 0.0550(2) 0.00545(16) 0.83784(16)
H5 H 0.1331 -0.0140 0.8237
O5 O 0.20491(18) 0.15725(11) 0.98910(12)
N4 N -0.51668(19) -0.23516(13) 0.46272(12)
C4 C -0.0686(3) -0.02186(16) 0.79424(16)
C5 C -0.1847(2) 0.00471(15) 0.81747(16)
H6 H -0.2678 -0.0145 0.7894
O6 O -0.0714(2) -0.07497(13) 0.72896(13)
C6 C -0.1771(2) 0.06005(15) 0.88273(15)
O7 O 0.1284(3) 0.10831(15) 0.68863(14)
C7 C -0.3028(2) 0.09041(16) 0.90632(17)
O8 O -0.2613(2) -0.05147(12) 0.57101(11)
C8 C -0.0538(2) 0.08857(15) 0.92449(16)
H7 H -0.0492 0.1261 0.9676
C9 C -0.4291(2) -0.17435(15) 0.47358(15)
H8 H -0.3507 -0.1789 0.5146
C10 C -0.6299(3) -0.22880(16) 0.40442(16)
H9 H -0.6914 -0.2710 0.3978
C11 C -0.6582(3) -0.16186(17) 0.35400(18)
H10 H -0.7370 -0.1591 0.3131
C12 C -0.5685(3) -0.09916(17) 0.36492(17)
H11 H -0.5862 -0.0531 0.3317
C13 C -0.4510(3) -0.10486(15) 0.42599(16)
C14 C -0.2686(3) -0.01804(15) 0.50310(16)
C15 C -0.1809(2) 0.05246(15) 0.49168(15)
C16 C -0.1931(2) 0.09579(15) 0.41699(16)
H12 H -0.2577 0.0803 0.3703
C17 C -0.1115(3) 0.16147(15) 0.41025(16)
C18 C -0.1281(3) 0.20835(17) 0.32953(16)
H13 H -0.1990 0.1850 0.2881
H14 H -0.0458 0.2067 0.3094
H15 H -0.1499 0.2633 0.3395
C19 C -0.0146(3) 0.18317(16) 0.48007(16)
H16 H 0.0412 0.2269 0.4768
C20 C 0.0000(3) 0.14022(16) 0.55480(16)
C21 C -0.0830(3) 0.07489(16) 0.56054(16)
H17 H -0.0728 0.0461 0.6107
C22 C 0.1044(3) 0.15791(17) 0.63231(18)
C23 C 0.2772(2) 0.25226(15) 0.70237(15)
C24 C 0.3626(3) 0.31292(16) 0.68710(16)
H18 H 0.3467 0.3397 0.6356
C25 C 0.4714(3) 0.33277(18) 0.74944(17)
H19 H 0.5301 0.3734 0.7407
C26 C 0.4923(3) 0.29187(17) 0.82472(17)
H20 H 0.5672 0.3047 0.8661
C27 C 0.3027(3) 0.21592(16) 0.78081(16)
H21 H 0.2433 0.1770 0.7923
Cd1_2 Cd -0.526293(16) 0.150294(10) 0.957787(10)
Cd1A Cd -0.473707(16) -0.349706(10) 0.542213(10)
O1_2 O 0.58607(16) 0.05692(12) 0.87457(12)
O3_2 O 0.70391(18) 0.14834(12) 0.95608(14)
N4A N 0.51668(19) 0.26484(13) 1.03728(12)
O9 O 0.3660(2) 0.48700(13) 1.24119(12)
H22 H 0.4317 0.4639 1.2770
H23 H 0.2893 0.4525 1.2341
loop_
_geom_bond_atom_site_label_1
_geom_bond_atom_site_label_2
_geom_bond_site_symmetry_1
_geom_bond_site_symmetry_2
Cd1 N1 1_555 1_555
N1 C26 1_555 1_555
C1 C2 1_555 1_555
O1 C7 1_555 1_555
O2 Cd1 1_555 1_555
H1 O2 1_555 1_555
H2 O2 1_555 1_555
C2 C3 1_555 1_555
N2 H3 1_555 1_555
O3 C7 1_555 1_555
O4 Cd1 1_555 1_555
N3 H4 1_555 1_555
C3 H5 1_555 1_555
O5 C1 1_555 1_555
N4 C9 1_555 1_555
C4 C3 1_555 1_555
C5 C4 1_555 1_555
H6 C5 1_555 1_555
O6 C4 1_555 1_555
C6 C5 1_555 1_555
O7 C22 1_555 1_555
C7 C6 1_555 1_555
O8 C14 1_555 1_555
C8 C2 1_555 1_555
H7 C8 1_555 1_555
C9 H8 1_555 1_555
C10 N4 1_555 1_555
H9 C10 1_555 1_555
C11 C10 1_555 1_555
H10 C11 1_555 1_555
C12 C11 1_555 1_555
H11 C12 1_555 1_555
C13 N3 1_555 1_555
C14 N3 1_555 1_555
C15 C14 1_555 1_555
C16 C15 1_555 1_555
H12 C16 1_555 1_555
C17 C16 1_555 1_555
C18 C17 1_555 1_555
H13 C18 1_555 1_555
H14 C18 1_555 1_555
H15 C18 1_555 1_555
C19 C17 1_555 1_555
H16 C19 1_555 1_555
C20 C19 1_555 1_555
C21 C15 1_555 1_555
H17 C21 1_555 1_555
C22 N2 1_555 1_555
C23 N2 1_555 1_555
C24 C23 1_555 1_555
H18 C24 1_555 1_555
C25 C24 1_555 1_555
H19 C25 1_555 1_555
C26 C25 1_555 1_555
H20 C26 1_555 1_555
C27 N1 1_555 1_555
H21 C27 1_555 1_555
O9 H22 1_555 1_555
H23 O9 1_555 1_555
Cd1_2 O1 1_555 1_555
Cd1A N4 1_555 1_555
O1_2 Cd1 1_555 1_555
O3_2 Cd1 1_555 1_555
N4A Cd1 1_555 1_555
C1 O4 1_555 1_555
O3 Cd1_2 1_555 1_555
C6 C8 1_555 1_555
C9 C13 1_555 1_555
C12 C13 1_555 1_555
C20 C21 1_555 1_555
C20 C22 1_555 1_555
C23 C27 1_555 1_555

#END
