
#######################################################################
#
#                 Cambridge Crystallographic Data Centre
#                                CCDC 
#
#######################################################################
#
# If this CIF has been generated from an entry in the Cambridge 
# Structural Database, then it will include bibliographic, chemical, 
# crystal, experimental, refinement or atomic coordinate data resulting 
# from the CCDC's data processing and validation procedures.
#
#######################################################################

data_UGIBUH
_symmetry_cell_setting           orthorhombic
_symmetry_space_group_name_H-M   'P n n a'
_symmetry_Int_Tables_number      52
_space_group_name_Hall           '-P 2a 2bc'
loop_
_symmetry_equiv_pos_site_id
_symmetry_equiv_pos_as_xyz
1 x,y,z
2 1/2-x,-y,z
3 x,1/2-y,1/2-z
4 1/2-x,1/2+y,1/2-z
5 -x,-y,-z
6 1/2+x,y,-z
7 -x,1/2+y,1/2+z
8 1/2+x,1/2-y,1/2+z
_cell_length_a                   16.745(1)
_cell_length_b                   17.855(1)
_cell_length_c                   18.631(1)
_cell_angle_alpha                90
_cell_angle_beta                 90
_cell_angle_gamma                90
_cell_volume                     5570.33
loop_
_atom_site_label
_atom_site_type_symbol
_atom_site_fract_x
_atom_site_fract_y
_atom_site_fract_z
Mn1 Mn 0.6569(1) 0.5351(1) 0.3705(1)
Mn2 Mn 0.5000 0.5000 0.5000
O1 O 0.5687(3) 0.4742(3) 0.3165(2)
O2 O 0.4657(2) 0.4765(2) 0.3913(2)
O3 O 0.5956(3) 0.6345(2) 0.3806(2)
O4 O 0.5162(3) 0.6161(2) 0.4750(2)
O5 O 0.6324(2) 0.4778(2) 0.4775(2)
O6 O 0.7253(2) 0.4245(2) 0.4125(2)
O7 O 0.7096(3) 0.5492(2) 0.2679(2)
C1 C 0.4954(3) 0.4689(3) 0.3309(3)
C2 C 0.4408(4) 0.4497(3) 0.2695(3)
C3 C 0.3618(4) 0.4360(4) 0.2807(4)
C4 C 0.3126(5) 0.4181(5) 0.2235(4)
C5 C 0.3433(7) 0.4126(5) 0.1560(4)
C6 C 0.4209(7) 0.4262(4) 0.1440(3)
C7 C 0.4710(5) 0.4458(4) 0.2001(3)
C8 C 0.5424(3) 0.6551(3) 0.4244(3)
C9 C 0.5097(3) 0.7319(3) 0.4137(3)
C10 C 0.4574(6) 0.7623(4) 0.4641(5)
C11 C 0.4236(8) 0.8318(5) 0.4513(7)
C12 C 0.4417(7) 0.8722(5) 0.3927(8)
C13 C 0.4902(6) 0.8431(5) 0.3434(6)
C14 C 0.5247(4) 0.7720(4) 0.3530(4)
C15 C 0.6865(3) 0.4297(3) 0.4713(3)
C16 C 0.7077(3) 0.3786(3) 0.5318(3)
C17 C 0.6656(4) 0.3804(4) 0.5952(3)
C18 C 0.6846(5) 0.3300(5) 0.6497(4)
C19 C 0.7452(5) 0.2794(5) 0.6401(5)
C20 C 0.7877(5) 0.2787(5) 0.5791(5)
C21 C 0.7688(4) 0.3272(4) 0.5237(4)
C22 C 0.7500 0.5000 0.2371(4)
C23 C 0.7500 0.5000 0.1574(4)
C24 C 0.6912(6) 0.5367(5) 0.1202(4)
C25 C 0.6913(8) 0.5369(6) 0.0455(4)
C26 C 0.7500 0.5000 0.0087(6)
O2D O 0.5343(2) 0.5235(2) 0.6087(2)
C1D C 0.5046(3) 0.5311(3) 0.6691(3)
O1D O 0.4313(3) 0.5258(3) 0.6835(2)
Mn1D Mn 0.3431(1) 0.4649(1) 0.6295(1)
O3D O 0.4044(3) 0.3655(2) 0.6194(2)
C8D C 0.4576(3) 0.3449(3) 0.5756(3)
O4D O 0.4838(3) 0.3839(2) 0.5250(2)
O5D O 0.3676(2) 0.5222(2) 0.5225(2)
O6D O 0.2747(2) 0.5755(2) 0.5875(2)
Mn1E Mn 0.1569(1) 0.5351(1) 0.6295(1)
O6E O 0.2253(2) 0.4245(2) 0.5875(2)
O7D O 0.2904(3) 0.4508(2) 0.7321(2)
C15D C 0.3135(3) 0.5703(3) 0.5287(3)
C16D C 0.2923(3) 0.6214(3) 0.4682(3)
C17D C 0.3344(4) 0.6196(4) 0.4048(3)
C18D C 0.3154(5) 0.6700(5) 0.3503(4)
C19D C 0.2548(5) 0.7206(5) 0.3599(5)
C20D C 0.2123(5) 0.7213(5) 0.4209(5)
C21D C 0.2312(4) 0.6728(4) 0.4763(4)
O6A O 0.7747(2) 0.5755(2) 0.4125(2)
C9D C 0.4903(3) 0.2681(3) 0.5863(3)
C10D C 0.5426(6) 0.2377(4) 0.5359(5)
C11D C 0.5764(8) 0.1682(5) 0.5487(7)
C12D C 0.5583(7) 0.1278(5) 0.6073(8)
C13D C 0.5098(6) 0.1569(5) 0.6566(6)
C14D C 0.4753(4) 0.2280(4) 0.6470(4)
C2D C 0.5592(4) 0.5503(3) 0.7305(3)
C3D C 0.6382(4) 0.5640(4) 0.7193(4)
C4D C 0.6874(5) 0.5819(5) 0.7765(4)
C5D C 0.6567(7) 0.5874(5) 0.8440(4)
C6D C 0.5791(7) 0.5738(4) 0.8560(3)
C7D C 0.5290(5) 0.5542(4) 0.7999(3)
Mn1A Mn 0.8431(1) 0.4649(1) 0.3705(1)
O7A O 0.7904(3) 0.4508(2) 0.2679(2)
C24A C 0.8088(6) 0.4633(5) 0.1202(4)
C25A C 0.8087(8) 0.4631(6) 0.0455(4)
N1 N 0.8572(7) 0.7500 0.2500
C27 C 0.9061(8) 0.6989(7) 0.2999(7)
C28 C 0.9735(11) 0.7388(11) 0.3415(10)
C29 C 0.8137(14) 0.6963(15) 0.2066(13)
C30 C 0.7760(20) 0.7260(20) 0.1284(18)
C27B C 0.9061(8) 0.8011(7) 0.2001(7)
C28B C 0.9735(11) 0.7612(11) 0.1585(10)
C29B C 0.8137(14) 0.8037(15) 0.2934(13)
C30B C 0.7760(20) 0.7740(20) 0.3716(18)
loop_
_geom_bond_atom_site_label_1
_geom_bond_atom_site_label_2
_geom_bond_site_symmetry_1
_geom_bond_site_symmetry_2
Mn1 O1 1_555 1_555
Mn2 O2 1_555 1_555
O1 C1 1_555 1_555
O2 C1 1_555 1_555
O3 Mn1 1_555 1_555
O4 Mn2 1_555 1_555
O5 Mn1 1_555 1_555
O6 Mn1 1_555 1_555
O7 Mn1 1_555 1_555
C1 C2 1_555 1_555
C2 C3 1_555 1_555
C3 C4 1_555 1_555
C4 C5 1_555 1_555
C5 C6 1_555 1_555
C6 C7 1_555 1_555
C7 C2 1_555 1_555
C8 O3 1_555 1_555
C9 C8 1_555 1_555
C10 C9 1_555 1_555
C11 C10 1_555 1_555
C12 C11 1_555 1_555
C13 C12 1_555 1_555
C14 C9 1_555 1_555
C15 O5 1_555 1_555
C16 C15 1_555 1_555
C17 C16 1_555 1_555
C18 C17 1_555 1_555
C19 C18 1_555 1_555
C20 C19 1_555 1_555
C21 C16 1_555 1_555
C22 O7 1_555 1_555
C23 C22 1_555 1_555
C24 C23 1_555 1_555
C25 C24 1_555 1_555
C26 C25 1_555 1_555
N1 C27 1_555 1_555
C27 C28 1_555 1_555
C29 N1 1_555 1_555
C30 C29 1_555 1_555
O2D Mn2 1_555 1_555
C1D O2D 1_555 1_555
O1D C1D 1_555 1_555
Mn1D O1D 1_555 1_555
O3D Mn1D 1_555 1_555
C8D O3D 1_555 1_555
O4D Mn2 1_555 1_555
O5D Mn2 1_555 1_555
O6D Mn1D 1_555 1_555
Mn1E O6D 1_555 1_555
O6E Mn1D 1_555 1_555
O7D Mn1D 1_555 1_555
C15D O5D 1_555 1_555
C16D C15D 1_555 1_555
C17D C16D 1_555 1_555
C18D C17D 1_555 1_555
C19D C18D 1_555 1_555
C20D C19D 1_555 1_555
C21D C16D 1_555 1_555
O6A Mn1 1_555 1_555
C9D C8D 1_555 1_555
C10D C9D 1_555 1_555
C11D C10D 1_555 1_555
C12D C11D 1_555 1_555
C13D C12D 1_555 1_555
C14D C9D 1_555 1_555
C2D C1D 1_555 1_555
C3D C2D 1_555 1_555
C4D C3D 1_555 1_555
C5D C4D 1_555 1_555
C6D C5D 1_555 1_555
C7D C2D 1_555 1_555
Mn1A O6 1_555 1_555
O7A C22 1_555 1_555
C24A C23 1_555 1_555
C25A C26 1_555 1_555
C27B N1 1_555 1_555
C28B C27B 1_555 1_555
C29B N1 1_555 1_555
C30B C29B 1_555 1_555
Mn2 O5 1_555 1_555
O4 C8 1_555 1_555
O6 C15 1_555 1_555
C13 C14 1_555 1_555
C20 C21 1_555 1_555
Mn1D O5D 1_555 1_555
C8D O4D 1_555 1_555
O6D C15D 1_555 1_555
Mn1E O6E 1_555 1_555
C20D C21D 1_555 1_555
O6A Mn1A 1_555 1_555
C13D C14D 1_555 1_555
C6D C7D 1_555 1_555
Mn1A O7A 1_555 1_555
C24A C25A 1_555 1_555

#END
