
#######################################################################
#
#                 Cambridge Crystallographic Data Centre
#                                CCDC 
#
#######################################################################
#
# If this CIF has been generated from an entry in the Cambridge 
# Structural Database, then it will include bibliographic, chemical, 
# crystal, experimental, refinement or atomic coordinate data resulting 
# from the CCDC's data processing and validation procedures.
#
#######################################################################

data_UGIBAO
_symmetry_cell_setting           monoclinic
_symmetry_space_group_name_H-M   'P 21/n'
_symmetry_Int_Tables_number      14
_space_group_name_Hall           '-P 2yn'
loop_
_symmetry_equiv_pos_site_id
_symmetry_equiv_pos_as_xyz
1 x,y,z
2 1/2-x,1/2+y,1/2-z
3 -x,-y,-z
4 1/2+x,1/2-y,1/2+z
_cell_length_a                   15.671(3)
_cell_length_b                   26.978(5)
_cell_length_c                   18.051(4)
_cell_angle_alpha                90
_cell_angle_beta                 112.56(3)
_cell_angle_gamma                90
_cell_volume                     7047.49
loop_
_atom_site_label
_atom_site_type_symbol
_atom_site_fract_x
_atom_site_fract_y
_atom_site_fract_z
Mo1 Mo 0.72878(5) 0.01314(2) 0.67878(4)
Mo2 Mo 0.69251(5) -0.09645(2) 0.56893(4)
Mo3 Mo 0.62026(5) -0.09368(2) 0.41367(4)
Mo4 Mo 0.68114(5) 0.09772(2) 0.60537(4)
Mo5 Mo 0.58258(5) 0.10187(2) 0.39545(4)
Mo6 Mo 0.55704(5) 0.02007(2) 0.31439(4)
Co1 Co 0.5000 0.0000 0.5000
Co2 Co 0.97025(8) 0.00325(4) 0.57608(6)
Co3 Co 0.58365(9) 0.28061(4) 0.49626(6)
Co4 Co 0.50897(10) -0.13860(4) 0.12045(7)
P1 P 0.66663(16) -0.06725(8) 0.25233(12)
P2 P 0.74190(15) 0.01170(7) 0.49374(11)
P3 P 0.89696(16) -0.06674(7) 0.69900(11)
P4 P 0.73373(16) 0.18630(7) 0.50204(12)
P5 P 1.01502(18) 0.10728(8) 0.50254(14)
O1 O 0.9541(5) 0.1309(2) 0.5392(4)
O2 O 0.6104(4) 0.03530(17) 0.5964(3)
O3 O 0.6702(4) -0.05847(18) 0.6610(3)
O4 O 0.5221(4) 0.03918(18) 0.4050(3)
O5 O 0.7423(4) -0.10822(19) 0.4876(3)
O6 O 0.5775(4) -0.06521(18) 0.4949(3)
O7 O 0.8239(5) -0.10498(19) 0.6528(3)
O8 O 0.7016(4) 0.06348(18) 0.4977(3)
O9 O 0.8544(4) -0.02292(19) 0.7271(3)
O10 O 0.7141(4) 0.0250(2) 0.7648(3)
O11 O 0.6534(4) -0.15247(19) 0.5829(3)
O12 O 0.8009(4) 0.06889(19) 0.6657(3)
O13 O 0.5678(4) 0.12214(18) 0.5039(3)
O14 O 0.8381(4) 0.0147(2) 0.4936(3)
O15 O 0.6744(4) -0.01503(18) 0.4176(3)
O16 O 0.6182(5) -0.0947(2) 0.1756(3)
O17 O 0.6536(4) 0.1276(2) 0.6751(3)
O18 O 0.7431(4) -0.01825(18) 0.5683(3)
O19 O 0.6807(5) 0.1568(2) 0.4258(3)
O20 O 0.5662(5) -0.1487(2) 0.3949(3)
O21 O 0.6708(5) -0.0969(2) 0.3257(3)
O22 O 0.5124(4) -0.05267(18) 0.3291(3)
O23 O 0.7500(4) 0.1539(2) 0.5768(3)
O24 O 0.4932(4) 0.1357(2) 0.3351(3)
O25 O 0.6413(4) 0.0752(2) 0.3267(3)
O26 O 0.9538(4) -0.0505(2) 0.6518(3)
O27 O 1.0175(4) 0.0510(2) 0.5056(3)
O28 O 0.6258(5) -0.0153(2) 0.2527(3)
O29 O 0.8312(5) 0.1981(2) 0.5003(4)
O30 O 0.6906(5) 0.2355(2) 0.5047(3)
O31 O 0.9637(5) -0.0952(2) 0.7759(3)
O32 O 0.4633(5) 0.0349(2) 0.2348(3)
O33 O 0.7694(5) -0.0591(2) 0.2579(4)
O34 O 0.9854(6) 0.1231(2) 0.4124(4)
O35 O 1.1136(5) 0.1285(3) 0.5488(4)
O36 O 0.4984(5) 0.2180(2) 0.4901(4)
O37 O 0.4457(6) -0.1216(3) 0.2076(4)
O38 O 1.1197(4) -0.0055(2) 0.6366(3)
O39 O 0.9630(5) 0.0625(2) 0.6507(4)
C1 C 0.6301(9) 0.2393(3) 0.6679(6)
H1 H 0.5875 0.2145 0.6432
C2 C 0.6868(9) 0.2340(4) 0.7466(6)
H2 H 0.6815 0.2066 0.7759
C3 C 0.7521(9) 0.2700(4) 0.7818(6)
H3 H 0.7932 0.2662 0.8347
C4 C 0.7572(9) 0.3117(4) 0.7394(6)
H4 H 0.8005 0.3365 0.7629
C5 C 0.6951(7) 0.3152(3) 0.6601(5)
C6 C 0.6898(7) 0.3583(3) 0.6084(5)
C7 C 0.7187(10) 0.4056(4) 0.6401(7)
H5 H 0.7468 0.4103 0.6953
C8 C 0.7050(11) 0.4444(4) 0.5887(7)
H6 H 0.7194 0.4764 0.6086
C9 C 0.6706(10) 0.4363(4) 0.5084(7)
H7 H 0.6633 0.4624 0.4728
C10 C 0.6464(8) 0.3884(4) 0.4808(6)
H8 H 0.6211 0.3829 0.4258
C11 C 0.4404(8) 0.3541(4) 0.5183(6)
H9 H 0.4708 0.3467 0.5725
C12 C 0.3735(9) 0.3898(4) 0.4981(7)
H10 H 0.3594 0.4065 0.5370
C13 C 0.3271(10) 0.4002(4) 0.4163(8)
H11 H 0.2794 0.4234 0.3991
C14 C 0.3533(10) 0.3758(4) 0.3624(7)
H12 H 0.3243 0.3829 0.3080
C15 C 0.4221(8) 0.3408(3) 0.3877(6)
C16 C 0.4603(8) 0.3153(3) 0.3339(5)
C17 C 0.4222(9) 0.3205(4) 0.2507(6)
H13 H 0.3698 0.3398 0.2254
C18 C 0.4648(12) 0.2959(5) 0.2069(7)
H14 H 0.4416 0.2995 0.1514
C19 C 0.5401(11) 0.2666(5) 0.2433(7)
H15 H 0.5692 0.2502 0.2141
C20 C 0.5709(9) 0.2624(4) 0.3250(6)
H16 H 0.6200 0.2410 0.3502
C21 C 0.6536(12) -0.2072(5) 0.2400(7)
H17 H 0.6936 -0.1803 0.2493
C22 C 0.6821(13) -0.2511(5) 0.2838(9)
H18 H 0.7416 -0.2533 0.3229
C23 C 0.6253(14) -0.2900(6) 0.2702(10)
H19 H 0.6458 -0.3188 0.3003
C24 C 0.5394(13) -0.2884(5) 0.2144(8)
H20 H 0.4999 -0.3155 0.2052
C25 C 0.5111(10) -0.2446(4) 0.1705(6)
C26 C 0.4195(10) -0.2388(4) 0.1057(6)
C27 C 0.3580(11) -0.2775(4) 0.0776(7)
H21 H 0.3741 -0.3092 0.0983
C28 C 0.2733(12) -0.2685(5) 0.0189(8)
H22 H 0.2300 -0.2938 -0.0001
C29 C 0.2533(12) -0.2211(5) -0.0117(8)
H23 H 0.1962 -0.2146 -0.0522
C30 C 0.3149(10) -0.1843(4) 0.0158(7)
H24 H 0.2995 -0.1527 -0.0054
C31 C 0.5947(10) -0.1820(4) 0.0040(7)
H25 H 0.6257 -0.2034 0.0461
C32 C 0.6086(10) -0.1876(4) -0.0668(7)
H26 H 0.6480 -0.2119 -0.0720
C33 C 0.5636(8) -0.1570(4) -0.1275(6)
H27 H 0.5729 -0.1594 -0.1752
C34 C 0.5023(9) -0.1212(4) -0.1198(6)
H28 H 0.4680 -0.1010 -0.1628
C35 C 0.4946(8) -0.1169(3) -0.0455(6)
C36 C 0.4426(7) -0.0763(3) -0.0258(5)
C37 C 0.4024(9) -0.0370(4) -0.0777(7)
H29 H 0.4009 -0.0372 -0.1297
C38 C 0.3644(10) 0.0026(4) -0.0514(8)
H30 H 0.3386 0.0293 -0.0851
C39 C 0.3658(10) 0.0015(4) 0.0245(8)
H31 H 0.3430 0.0280 0.0445
C40 C 0.4019(9) -0.0399(4) 0.0712(7)
H32 H 0.3999 -0.0413 0.1220
N1 N 0.6339(6) 0.2792(3) 0.6248(4)
N2 N 0.6580(6) 0.3497(3) 0.5304(4)
N3 N 0.4653(6) 0.3289(3) 0.4661(4)
N4 N 0.5365(6) 0.2863(3) 0.3704(4)
N5 N 0.5661(8) -0.2045(3) 0.1833(5)
N6 N 0.3996(7) -0.1926(3) 0.0745(5)
N7 N 0.4396(6) -0.0783(3) 0.0474(4)
N8 N 0.5395(6) -0.1477(3) 0.0155(4)
Mo1B Mo 0.27122(5) -0.01314(2) 0.32122(4)
Mo2B Mo 0.30749(5) 0.09645(2) 0.43107(4)
Mo3B Mo 0.37974(5) 0.09368(2) 0.58633(4)
Mo4B Mo 0.31886(5) -0.09772(2) 0.39463(4)
Mo5B Mo 0.41742(5) -0.10187(2) 0.60455(4)
Mo6B Mo 0.44296(5) -0.02007(2) 0.68561(4)
Co2B Co 0.02975(8) -0.00325(4) 0.42392(6)
Co2B_2 Co 1.02975(8) -0.00325(4) 0.42392(6)
Co3B Co 0.41635(9) -0.28061(4) 0.50374(6)
Co4B Co 0.49103(10) 0.13860(4) 0.87955(7)
P1B P 0.33337(16) 0.06725(8) 0.74767(12)
P2B P 0.25810(15) -0.01170(7) 0.50626(11)
P3B P 0.10304(16) 0.06674(7) 0.30100(11)
P4B P 0.26627(16) -0.18630(7) 0.49796(12)
P5B P 0.98498(18) -0.10728(8) 0.49746(14)
O1B O 1.0459(5) -0.1309(2) 0.4608(4)
O2B O 0.3896(4) -0.03530(17) 0.4036(3)
O3B O 0.3298(4) 0.05847(18) 0.3390(3)
O4B O 0.4779(4) -0.03918(18) 0.5950(3)
O5B O 0.2577(4) 0.10822(19) 0.5124(3)
O6B O 0.4225(4) 0.06521(18) 0.5051(3)
O7B O 0.1761(5) 0.10498(19) 0.3472(3)
O8B O 0.2984(4) -0.06348(18) 0.5023(3)
O9B O 0.1456(4) 0.02292(19) 0.2729(3)
O10B O 0.2859(4) -0.0250(2) 0.2352(3)
O11B O 0.3466(4) 0.15247(19) 0.4171(3)
O12B O 0.1991(4) -0.06889(19) 0.3343(3)
O13B O 0.4322(4) -0.12214(18) 0.4961(3)
O14B O 0.1619(4) -0.0147(2) 0.5064(3)
O15B O 0.3256(4) 0.01503(18) 0.5824(3)
O16B O 0.3818(5) 0.0947(2) 0.8244(3)
O17B O 0.3464(4) -0.1276(2) 0.3249(3)
O18B O 0.2569(4) 0.01825(18) 0.4317(3)
O19B O 0.3193(5) -0.1568(2) 0.5742(3)
O20B O 0.4338(5) 0.1487(2) 0.6051(3)
O21B O 0.3292(5) 0.0969(2) 0.6743(3)
O22B O 0.4876(4) 0.05267(18) 0.6709(3)
O23B O 0.2500(4) -0.1539(2) 0.4232(3)
O24B O 0.5068(4) -0.1357(2) 0.6649(3)
O25B O 0.3587(4) -0.0752(2) 0.6733(3)
O26B O 0.0462(4) 0.0505(2) 0.3482(3)
O27B O 0.9825(4) -0.0510(2) 0.4944(3)
O27B_2 O -0.0175(4) -0.0510(2) 0.4944(3)
O27_2 O 0.0175(4) 0.0510(2) 0.5056(3)
O28B O 0.3742(5) 0.0153(2) 0.7473(3)
O29B O 0.1688(5) -0.1981(2) 0.4997(4)
O30B O 0.3094(5) -0.2355(2) 0.4953(3)
O31B O 0.0363(5) 0.0952(2) 0.2241(3)
O32B O 0.5367(5) -0.0349(2) 0.7652(3)
O33B O 0.2306(5) 0.0591(2) 0.7421(4)
O34B O 1.0146(6) -0.1231(2) 0.5876(4)
O35B O 0.8864(5) -0.1285(3) 0.4512(4)
O36B O 0.5016(5) -0.2180(2) 0.5099(4)
O37B O 0.5543(6) 0.1216(3) 0.7924(4)
O38B O -0.1197(4) 0.0055(2) 0.3634(3)
O39B O 0.0370(5) -0.0625(2) 0.3493(4)
C1B C 0.3699(9) -0.2393(3) 0.3321(6)
H1B H 0.4125 -0.2145 0.3568
C2B C 0.3132(9) -0.2340(4) 0.2534(6)
H2B H 0.3185 -0.2066 0.2241
C3B C 0.2479(9) -0.2700(4) 0.2182(6)
H3B H 0.2068 -0.2662 0.1653
C4B C 0.2428(9) -0.3117(4) 0.2606(6)
H4B H 0.1995 -0.3365 0.2371
C5B C 0.3049(7) -0.3152(3) 0.3399(5)
C6B C 0.3102(7) -0.3583(3) 0.3916(5)
C7B C 0.2813(10) -0.4056(4) 0.3599(7)
H5B H 0.2532 -0.4103 0.3047
C8B C 0.2950(11) -0.4444(4) 0.4113(7)
H6B H 0.2806 -0.4764 0.3914
C9B C 0.3294(10) -0.4363(4) 0.4916(7)
H7B H 0.3367 -0.4624 0.5272
C10B C 0.3536(8) -0.3884(4) 0.5192(6)
H8B H 0.3789 -0.3829 0.5742
C11B C 0.5596(8) -0.3541(4) 0.4817(6)
H9B H 0.5292 -0.3467 0.4275
C12B C 0.6265(9) -0.3898(4) 0.5019(7)
H10B H 0.6406 -0.4065 0.4630
C13B C 0.6729(10) -0.4002(4) 0.5837(8)
H11B H 0.7206 -0.4234 0.6009
C14B C 0.6467(10) -0.3758(4) 0.6376(7)
H12B H 0.6757 -0.3829 0.6920
C15B C 0.5779(8) -0.3408(3) 0.6123(6)
C16B C 0.5397(8) -0.3153(3) 0.6661(5)
C17B C 0.5778(9) -0.3205(4) 0.7493(6)
H13B H 0.6302 -0.3398 0.7746
C18B C 0.5352(12) -0.2959(5) 0.7931(7)
H14B H 0.5584 -0.2995 0.8486
C19B C 0.4599(11) -0.2666(5) 0.7567(7)
H15B H 0.4308 -0.2502 0.7859
C20B C 0.4291(9) -0.2624(4) 0.6750(6)
H16B H 0.3800 -0.2410 0.6498
C21B C 0.3464(12) 0.2072(5) 0.7600(7)
H17B H 0.3064 0.1803 0.7507
C22B C 0.3179(13) 0.2511(5) 0.7162(9)
H18B H 0.2584 0.2533 0.6771
C23B C 0.3747(14) 0.2900(6) 0.7298(10)
H19B H 0.3542 0.3188 0.6997
C24B C 0.4606(13) 0.2884(5) 0.7856(8)
H20B H 0.5001 0.3155 0.7948
C25B C 0.4889(10) 0.2446(4) 0.8295(6)
C26B C 0.5805(10) 0.2388(4) 0.8943(6)
C27B C 0.6420(11) 0.2775(4) 0.9224(7)
H21B H 0.6259 0.3092 0.9017
C28B C 0.7267(12) 0.2685(5) 0.9811(8)
H22B H 0.7700 0.2938 1.0001
C29B C 0.7467(12) 0.2211(5) 1.0117(8)
H23B H 0.8038 0.2146 1.0522
C30B C 0.6851(10) 0.1843(4) 0.9842(7)
H24B H 0.7005 0.1527 1.0054
C31B C 0.4053(10) 0.1820(4) 0.9960(7)
H25B H 0.3743 0.2034 0.9539
C32B C 0.3914(10) 0.1876(4) 1.0668(7)
H26B H 0.3520 0.2119 1.0720
C33B C 0.4364(8) 0.1570(4) 1.1275(6)
H27B H 0.4271 0.1594 1.1752
C34B C 0.4977(9) 0.1212(4) 1.1198(6)
H28B H 0.5320 0.1010 1.1628
C35B C 0.5054(8) 0.1169(3) 1.0455(6)
C36B C 0.5574(7) 0.0763(3) 1.0258(5)
C37B C 0.5976(9) 0.0370(4) 1.0777(7)
H29B H 0.5991 0.0372 1.1297
C38B C 0.6356(10) -0.0026(4) 1.0514(8)
H30B H 0.6614 -0.0293 1.0851
C39B C 0.6342(10) -0.0015(4) 0.9755(8)
H31B H 0.6570 -0.0280 0.9555
C40B C 0.5981(9) 0.0399(4) 0.9288(7)
H32B H 0.6001 0.0413 0.8780
N1B N 0.3661(6) -0.2792(3) 0.3752(4)
N2B N 0.3420(6) -0.3497(3) 0.4696(4)
N3B N 0.5347(6) -0.3289(3) 0.5339(4)
N4B N 0.4635(6) -0.2863(3) 0.6296(4)
N5B N 0.4339(8) 0.2045(3) 0.8167(5)
N6B N 0.6004(7) 0.1926(3) 0.9255(5)
N7B N 0.5604(6) 0.0783(3) 0.9526(4)
N8B N 0.4605(6) 0.1477(3) 0.9845(4)
O40 O 0.9053(10) -0.0451(5) 0.1880(7)
O41 O 1.1327(9) -0.0596(5) 0.8327(6)
O42 O 1.2073(10) -0.0921(5) 0.7122(8)
O43 O 1.227(2) -0.1642(12) 0.6805(18)
O44 O 1.082(2) 0.2338(11) 0.5815(17)
loop_
_geom_bond_atom_site_label_1
_geom_bond_atom_site_label_2
_geom_bond_site_symmetry_1
_geom_bond_site_symmetry_2
Mo1 O2 1_555 1_555
Mo2 O3 1_555 1_555
Mo3 O5 1_555 1_555
Mo4 O2 1_555 1_555
Mo5 O4 1_555 1_555
Mo6 O4 1_555 1_555
Co1 O2 1_555 1_555
Co2 O14 1_555 1_555
Co3 O30 1_555 1_555
Co4 O16 1_555 1_555
P1 O16 1_555 1_555
P2 O8 1_555 1_555
P3 O7 1_555 1_555
P4 O19 1_555 1_555
P5 O1 1_555 1_555
O3 Mo1 1_555 1_555
O4 Co1 1_555 1_555
O5 Mo2 1_555 1_555
O6 Mo2 1_555 1_555
O7 Mo2 1_555 1_555
O8 Mo4 1_555 1_555
O9 Mo1 1_555 1_555
O10 Mo1 1_555 1_555
O11 Mo2 1_555 1_555
O12 Mo1 1_555 1_555
O13 Mo4 1_555 1_555
O14 P2 1_555 1_555
O15 Mo3 1_555 1_555
O17 Mo4 1_555 1_555
O18 Mo1 1_555 1_555
O19 Mo5 1_555 1_555
O20 Mo3 1_555 1_555
O21 Mo3 1_555 1_555
O22 Mo3 1_555 1_555
O23 Mo4 1_555 1_555
O24 Mo5 1_555 1_555
O25 Mo5 1_555 1_555
O26 Co2 1_555 1_555
O27 Co2 1_555 1_555
O28 Mo6 1_555 1_555
O29 P4 1_555 1_555
O30 P4 1_555 1_555
O31 P3 1_555 1_555
O32 Mo6 1_555 1_555
O33 P1 1_555 1_555
O34 P5 1_555 1_555
O35 P5 1_555 1_555
O36 Co3 1_555 1_555
O37 Co4 1_555 1_555
O38 Co2 1_555 1_555
O39 Co2 1_555 1_555
C1 H1 1_555 1_555
C2 C1 1_555 1_555
H2 C2 1_555 1_555
C3 C2 1_555 1_555
H3 C3 1_555 1_555
C4 C3 1_555 1_555
H4 C4 1_555 1_555
C5 C4 1_555 1_555
C6 C5 1_555 1_555
C7 C6 1_555 1_555
H5 C7 1_555 1_555
C8 C7 1_555 1_555
H6 C8 1_555 1_555
C9 C8 1_555 1_555
H7 C9 1_555 1_555
C10 C9 1_555 1_555
H8 C10 1_555 1_555
C11 H9 1_555 1_555
C12 C11 1_555 1_555
H10 C12 1_555 1_555
C13 C12 1_555 1_555
H11 C13 1_555 1_555
C14 C13 1_555 1_555
H12 C14 1_555 1_555
C15 C14 1_555 1_555
C16 C15 1_555 1_555
C17 C16 1_555 1_555
H13 C17 1_555 1_555
C18 C17 1_555 1_555
H14 C18 1_555 1_555
C19 C18 1_555 1_555
H15 C19 1_555 1_555
C20 C19 1_555 1_555
H16 C20 1_555 1_555
C21 H17 1_555 1_555
C22 C21 1_555 1_555
H18 C22 1_555 1_555
C23 C22 1_555 1_555
H19 C23 1_555 1_555
C24 C23 1_555 1_555
H20 C24 1_555 1_555
C25 C24 1_555 1_555
C26 C25 1_555 1_555
C27 C26 1_555 1_555
H21 C27 1_555 1_555
C28 C27 1_555 1_555
H22 C28 1_555 1_555
C29 C28 1_555 1_555
H23 C29 1_555 1_555
C30 C29 1_555 1_555
H24 C30 1_555 1_555
C31 H25 1_555 1_555
C32 C31 1_555 1_555
H26 C32 1_555 1_555
C33 C32 1_555 1_555
H27 C33 1_555 1_555
C34 C33 1_555 1_555
H28 C34 1_555 1_555
C35 C34 1_555 1_555
C36 C35 1_555 1_555
C37 C36 1_555 1_555
H29 C37 1_555 1_555
C38 C37 1_555 1_555
H30 C38 1_555 1_555
C39 C38 1_555 1_555
H31 C39 1_555 1_555
C40 C39 1_555 1_555
H32 C40 1_555 1_555
N1 Co3 1_555 1_555
N2 Co3 1_555 1_555
N3 Co3 1_555 1_555
N4 Co3 1_555 1_555
N5 Co4 1_555 1_555
N6 Co4 1_555 1_555
N7 Co4 1_555 1_555
N8 Co4 1_555 1_555
Mo1B O2B 1_555 1_555
Mo2B O3B 1_555 1_555
Mo3B O5B 1_555 1_555
Mo4B O2B 1_555 1_555
Mo5B O4B 1_555 1_555
Mo6B O4B 1_555 1_555
Co2B O14B 1_555 1_555
Co2B_2 O27 1_555 1_555
Co3B O30B 1_555 1_555
Co4B O16B 1_555 1_555
P1B O16B 1_555 1_555
P2B O8B 1_555 1_555
P3B O7B 1_555 1_555
P4B O19B 1_555 1_555
P5B O1B 1_555 1_555
O2B Co1 1_555 1_555
O3B Mo1B 1_555 1_555
O4B Co1 1_555 1_555
O5B Mo2B 1_555 1_555
O6B Co1 1_555 1_555
O7B Mo2B 1_555 1_555
O8B Mo4B 1_555 1_555
O9B Mo1B 1_555 1_555
O10B Mo1B 1_555 1_555
O11B Mo2B 1_555 1_555
O12B Mo1B 1_555 1_555
O13B Mo4B 1_555 1_555
O14B P2B 1_555 1_555
O15B Mo3B 1_555 1_555
O17B Mo4B 1_555 1_555
O18B Mo1B 1_555 1_555
O19B Mo5B 1_555 1_555
O20B Mo3B 1_555 1_555
O21B Mo3B 1_555 1_555
O22B Mo3B 1_555 1_555
O23B Mo4B 1_555 1_555
O24B Mo5B 1_555 1_555
O25B Mo5B 1_555 1_555
O26B Co2B 1_555 1_555
O27B Co2 1_555 1_555
O27B_2 Co2B 1_555 1_555
O27_2 Co2B 1_555 1_555
O28B Mo6B 1_555 1_555
O29B P4B 1_555 1_555
O30B P4B 1_555 1_555
O31B P3B 1_555 1_555
O32B Mo6B 1_555 1_555
O33B P1B 1_555 1_555
O34B P5B 1_555 1_555
O35B P5B 1_555 1_555
O36B Co3B 1_555 1_555
O37B Co4B 1_555 1_555
O38B Co2B 1_555 1_555
O39B Co2B 1_555 1_555
C1B H1B 1_555 1_555
C2B C1B 1_555 1_555
H2B C2B 1_555 1_555
C3B C2B 1_555 1_555
H3B C3B 1_555 1_555
C4B C3B 1_555 1_555
H4B C4B 1_555 1_555
C5B C4B 1_555 1_555
C6B C5B 1_555 1_555
C7B C6B 1_555 1_555
H5B C7B 1_555 1_555
C8B C7B 1_555 1_555
H6B C8B 1_555 1_555
C9B C8B 1_555 1_555
H7B C9B 1_555 1_555
C10B C9B 1_555 1_555
H8B C10B 1_555 1_555
C11B H9B 1_555 1_555
C12B C11B 1_555 1_555
H10B C12B 1_555 1_555
C13B C12B 1_555 1_555
H11B C13B 1_555 1_555
C14B C13B 1_555 1_555
H12B C14B 1_555 1_555
C15B C14B 1_555 1_555
C16B C15B 1_555 1_555
C17B C16B 1_555 1_555
H13B C17B 1_555 1_555
C18B C17B 1_555 1_555
H14B C18B 1_555 1_555
C19B C18B 1_555 1_555
H15B C19B 1_555 1_555
C20B C19B 1_555 1_555
H16B C20B 1_555 1_555
C21B H17B 1_555 1_555
C22B C21B 1_555 1_555
H18B C22B 1_555 1_555
C23B C22B 1_555 1_555
H19B C23B 1_555 1_555
C24B C23B 1_555 1_555
H20B C24B 1_555 1_555
C25B C24B 1_555 1_555
C26B C25B 1_555 1_555
C27B C26B 1_555 1_555
H21B C27B 1_555 1_555
C28B C27B 1_555 1_555
H22B C28B 1_555 1_555
C29B C28B 1_555 1_555
H23B C29B 1_555 1_555
C30B C29B 1_555 1_555
H24B C30B 1_555 1_555
C31B H25B 1_555 1_555
C32B C31B 1_555 1_555
H26B C32B 1_555 1_555
C33B C32B 1_555 1_555
H27B C33B 1_555 1_555
C34B C33B 1_555 1_555
H28B C34B 1_555 1_555
C35B C34B 1_555 1_555
C36B C35B 1_555 1_555
C37B C36B 1_555 1_555
H29B C37B 1_555 1_555
C38B C37B 1_555 1_555
H30B C38B 1_555 1_555
C39B C38B 1_555 1_555
H31B C39B 1_555 1_555
C40B C39B 1_555 1_555
H32B C40B 1_555 1_555
N1B Co3B 1_555 1_555
N2B Co3B 1_555 1_555
N3B Co3B 1_555 1_555
N4B Co3B 1_555 1_555
N5B Co4B 1_555 1_555
N6B Co4B 1_555 1_555
N7B Co4B 1_555 1_555
N8B Co4B 1_555 1_555
Mo2 O18 1_555 1_555
Mo3 O6 1_555 1_555
Mo4 O12 1_555 1_555
Mo5 O8 1_555 1_555
Mo5 O13 1_555 1_555
Mo6 O15 1_555 1_555
Mo6 O22 1_555 1_555
Mo6 O25 1_555 1_555
Co1 O6 1_555 1_555
P1 O21 1_555 1_555
P1 O28 1_555 1_555
P2 O15 1_555 1_555
P2 O18 1_555 1_555
P3 O9 1_555 1_555
P3 O26 1_555 1_555
P4 O23 1_555 1_555
P5 O27 1_555 1_555
C1 N1 1_555 1_555
C5 N1 1_555 1_555
C6 N2 1_555 1_555
C10 N2 1_555 1_555
C11 N3 1_555 1_555
C15 N3 1_555 1_555
C16 N4 1_555 1_555
C20 N4 1_555 1_555
C21 N5 1_555 1_555
C25 N5 1_555 1_555
C26 N6 1_555 1_555
C30 N6 1_555 1_555
C31 N8 1_555 1_555
C35 N8 1_555 1_555
C36 N7 1_555 1_555
C40 N7 1_555 1_555
Mo2B O6B 1_555 1_555
Mo2B O18B 1_555 1_555
Mo3B O6B 1_555 1_555
Mo4B O12B 1_555 1_555
Mo5B O8B 1_555 1_555
Mo5B O13B 1_555 1_555
Mo6B O15B 1_555 1_555
Mo6B O22B 1_555 1_555
Mo6B O25B 1_555 1_555
Co2B_2 O27B 1_555 1_555
P1B O21B 1_555 1_555
P1B O28B 1_555 1_555
P2B O15B 1_555 1_555
P2B O18B 1_555 1_555
P3B O9B 1_555 1_555
P3B O26B 1_555 1_555
P4B O23B 1_555 1_555
P5B O27B 1_555 1_555
C1B N1B 1_555 1_555
C5B N1B 1_555 1_555
C6B N2B 1_555 1_555
C10B N2B 1_555 1_555
C11B N3B 1_555 1_555
C15B N3B 1_555 1_555
C16B N4B 1_555 1_555
C20B N4B 1_555 1_555
C21B N5B 1_555 1_555
C25B N5B 1_555 1_555
C26B N6B 1_555 1_555
C30B N6B 1_555 1_555
C31B N8B 1_555 1_555
C35B N8B 1_555 1_555
C36B N7B 1_555 1_555
C40B N7B 1_555 1_555

#END
