
#######################################################################
#
#                 Cambridge Crystallographic Data Centre
#                                CCDC 
#
#######################################################################
#
# If this CIF has been generated from an entry in the Cambridge 
# Structural Database, then it will include bibliographic, chemical, 
# crystal, experimental, refinement or atomic coordinate data resulting 
# from the CCDC's data processing and validation procedures.
#
#######################################################################

data_UGIDUL
_symmetry_cell_setting           monoclinic
_symmetry_space_group_name_H-M   'P 21/n'
_symmetry_Int_Tables_number      14
_space_group_name_Hall           '-P 2yn'
loop_
_symmetry_equiv_pos_site_id
_symmetry_equiv_pos_as_xyz
1 x,y,z
2 1/2-x,1/2+y,1/2-z
3 -x,-y,-z
4 1/2+x,1/2-y,1/2+z
_cell_length_a                   10.3900(2)
_cell_length_b                   11.0453(2)
_cell_length_c                   29.4890(6)
_cell_angle_alpha                90
_cell_angle_beta                 91.8557(9)
_cell_angle_gamma                90
_cell_volume                     3382.4
loop_
_atom_site_label
_atom_site_type_symbol
_atom_site_fract_x
_atom_site_fract_y
_atom_site_fract_z
Cd1 Cd 0.065072(14) 0.243260(13) 0.020053(5)
S1 S -0.15328(5) 0.34602(5) 0.04399(3)
N1 N 0.24757(19) 0.1046(2) 0.00851(7)
C1 C 0.00759(19) 0.0283(2) -0.05868(7)
N2 N 0.17428(17) 0.28513(18) 0.09073(6)
C2 C -0.14132(18) 0.48539(19) 0.02519(7)
N3 N 0.0224(2) -0.07463(19) -0.05552(7)
C3 C 0.3787(2) 0.3374(2) 0.05970(8)
H1 H 0.3439 0.3304 0.0304
N4 N -0.13658(19) 0.58346(19) 0.01266(8)
C4 C 0.1635(3) 0.2842(3) 0.17124(9)
H2 H 0.1118 0.2726 0.1960
N5 N 0.2837(2) 0.3129(3) 0.17881(7)
C5 C 0.1077(2) 0.2698(3) 0.12725(8)
H3 H 0.0212 0.2489 0.1241
C6 C 0.29929(19) 0.0150(2) 0.00684(7)
C7 C 0.3013(2) 0.3168(2) 0.09693(7)
C8 C 0.5591(3) 0.3793(3) 0.11037(11)
H4 H 0.6455 0.3999 0.1144
C9 C 0.3552(2) 0.3292(2) 0.14154(8)
C10 C 0.4868(3) 0.3607(3) 0.14685(10)
H5 H 0.5239 0.3686 0.1758
C11 C 0.5051(2) 0.3679(3) 0.06641(10)
H6 H 0.5560 0.3812 0.0415
C12 C 0.3662(3) -0.1004(2) 0.00504(9)
H7 H 0.4252 -0.1071 0.0306
H8 H 0.4128 -0.1051 -0.0225
H9 H 0.3047 -0.1651 0.0058
S2 S -0.01280(7) 0.17485(6) -0.06378(2)
Cd1B Cd -0.065072(14) -0.243260(13) -0.020053(5)
Cd1B_2 Cd -0.065072(14) 0.756740(13) -0.020053(5)
N3B N -0.0224(2) 0.07463(19) 0.05552(7)
N4B N 0.13658(19) 0.41654(19) -0.01266(8)
Cd2 Cd 0.739146(14) 0.146914(13) 0.270218(5)
S3 S 0.62592(6) -0.00954(5) 0.327374(17)
S4 S 0.54272(6) 0.28654(5) 0.29106(2)
N6 N 0.62750(17) 0.07385(18) 0.19694(6)
C13 C 0.58747(17) 0.41409(18) 0.26782(6)
N7 N 0.61696(18) 0.50392(16) 0.25131(7)
N8 N 0.87170(18) 0.20345(18) 0.33837(6)
C14 C 0.5033(2) 0.03826(19) 0.18712(7)
N9 N 0.6631(2) -0.21303(18) 0.27372(7)
C15 C 1.0011(2) 0.1848(2) 0.34521(7)
C16 C 0.64922(19) -0.12918(18) 0.29574(7)
N10 N 0.9825(2) 0.1949(2) 0.42697(7)
N11 N 0.5428(2) 0.0284(2) 0.10657(6)
C17 C 0.4164(2) 0.0196(2) 0.22222(7)
H10 H 0.4429 0.0324 0.2523
C18 C 0.7037(2) 0.0826(3) 0.16253(8)
H11 H 0.7890 0.1053 0.1680
C19 C 0.8050(2) 0.2202(3) 0.37476(8)
H12 H 0.7169 0.2342 0.3714
C20 C 0.8610(3) 0.2179(3) 0.41854(9)
H13 H 0.8089 0.2336 0.4429
C21 C 0.3321(2) -0.0175(3) 0.13253(8)
H14 H 0.3027 -0.0283 0.1027
C22 C 1.2101(3) 0.1534(3) 0.31556(11)
H15 H 1.2637 0.1478 0.2910
C23 C 1.0552(2) 0.1774(2) 0.38985(8)
C24 C 0.2938(2) -0.0172(2) 0.21209(8)
H16 H 0.2375 -0.0307 0.2354
C25 C 0.4610(2) 0.0170(2) 0.14163(7)
C26 C 1.1876(3) 0.1533(3) 0.39609(11)
H17 H 1.2238 0.1459 0.4252
C27 C 0.2509(2) -0.0350(3) 0.16689(9)
H18 H 0.1664 -0.0590 0.1606
C28 C 0.6609(3) 0.0587(3) 0.11766(8)
H19 H 0.7199 0.0650 0.0947
C29 C 1.0814(2) 0.1737(2) 0.30799(9)
H20 H 1.0473 0.1800 0.2785
C30 C 1.2625(3) 0.1409(3) 0.35950(13)
H21 H 1.3497 0.1239 0.3638
Cd2A Cd 0.760854(14) -0.353086(13) 0.229782(5)
Cd2A_2 Cd 0.760854(14) 0.646914(13) 0.229782(5)
N7A N 0.88304(18) 0.00392(16) 0.24869(7)
N9A N 0.8369(2) 0.28697(18) 0.22628(7)
loop_
_geom_bond_atom_site_label_1
_geom_bond_atom_site_label_2
_geom_bond_site_symmetry_1
_geom_bond_site_symmetry_2
Cd1 S1 1_555 1_555
S1 C2 1_555 1_555
N1 Cd1 1_555 1_555
C1 N3 1_555 1_555
N2 Cd1 1_555 1_555
C2 N4 1_555 1_555
N3 Cd1B 1_555 1_555
C3 H1 1_555 1_555
N4 Cd1B_2 1_555 1_555
C4 H2 1_555 1_555
N5 C4 1_555 1_555
C5 N2 1_555 1_555
H3 C5 1_555 1_555
C6 N1 1_555 1_555
C7 N2 1_555 1_555
C8 H4 1_555 1_555
C9 N5 1_555 1_555
C10 C8 1_555 1_555
H5 C10 1_555 1_555
C11 C3 1_555 1_555
H6 C11 1_555 1_555
C12 C6 1_555 1_555
H7 C12 1_555 1_555
H8 C12 1_555 1_555
H9 C12 1_555 1_555
S2 Cd1 1_555 1_555
Cd2 S3 1_555 1_555
S3 C16 1_555 1_555
S4 Cd2 1_555 1_555
N6 Cd2 1_555 1_555
C13 S4 1_555 1_555
N7 C13 1_555 1_555
N8 Cd2 1_555 1_555
C14 N6 1_555 1_555
N9 C16 1_555 1_555
C15 N8 1_555 1_555
N10 C20 1_555 1_555
N11 C25 1_555 1_555
C17 C14 1_555 1_555
H10 C17 1_555 1_555
C18 N6 1_555 1_555
H11 C18 1_555 1_555
C19 N8 1_555 1_555
H12 C19 1_555 1_555
C20 C19 1_555 1_555
H13 C20 1_555 1_555
C21 H14 1_555 1_555
C22 H15 1_555 1_555
C23 C15 1_555 1_555
C24 C17 1_555 1_555
H16 C24 1_555 1_555
C25 C14 1_555 1_555
C26 C23 1_555 1_555
H17 C26 1_555 1_555
C27 C21 1_555 1_555
H18 C27 1_555 1_555
C28 N11 1_555 1_555
H19 C28 1_555 1_555
C29 C15 1_555 1_555
H20 C29 1_555 1_555
C30 C22 1_555 1_555
H21 C30 1_555 1_555
N3B Cd1 1_555 1_555
N4B Cd1 1_555 1_555
Cd2A N9 1_555 1_555
Cd2A_2 N7 1_555 1_555
N7A Cd2 1_555 1_555
N9A Cd2 1_555 1_555
C1 S2 1_555 1_555
C3 C7 1_555 1_555
C4 C5 1_555 1_555
C7 C9 1_555 1_555
C8 C11 1_555 1_555
C9 C10 1_555 1_555
N10 C23 1_555 1_555
C18 C28 1_555 1_555
C21 C25 1_555 1_555
C22 C29 1_555 1_555
C24 C27 1_555 1_555
C26 C30 1_555 1_555

#END
