
#######################################################################
#
#                 Cambridge Crystallographic Data Centre
#                                CCDC 
#
#######################################################################
#
# If this CIF has been generated from an entry in the Cambridge 
# Structural Database, then it will include bibliographic, chemical, 
# crystal, experimental, refinement or atomic coordinate data resulting 
# from the CCDC's data processing and validation procedures.
#
#######################################################################

data_UGIFOF
_symmetry_cell_setting           orthorhombic
_symmetry_space_group_name_H-M   'F d d d'
_symmetry_Int_Tables_number      70
_space_group_name_Hall           '-F 2uv 2vw'
loop_
_symmetry_equiv_pos_site_id
_symmetry_equiv_pos_as_xyz
1 x,y,z
2 1/4-x,1/4-y,z
3 x,1/4-y,1/4-z
4 1/4-x,y,1/4-z
5 x,1/2+y,1/2+z
6 1/4-x,3/4-y,1/2+z
7 x,3/4-y,3/4-z
8 1/4-x,1/2+y,3/4-z
9 1/2+x,y,1/2+z
10 3/4-x,1/4-y,1/2+z
11 1/2+x,1/4-y,3/4-z
12 3/4-x,y,3/4-z
13 1/2+x,1/2+y,z
14 3/4-x,3/4-y,z
15 1/2+x,3/4-y,1/4-z
16 3/4-x,1/2+y,1/4-z
17 -x,-y,-z
18 3/4+x,3/4+y,-z
19 -x,3/4+y,3/4+z
20 3/4+x,-y,3/4+z
21 -x,1/2-y,1/2-z
22 3/4+x,1/4+y,1/2-z
23 -x,1/4+y,1/4+z
24 3/4+x,1/2-y,1/4+z
25 1/2-x,-y,1/2-z
26 1/4+x,3/4+y,1/2-z
27 1/2-x,3/4+y,1/4+z
28 1/4+x,-y,1/4+z
29 1/2-x,1/2-y,-z
30 1/4+x,1/4+y,-z
31 1/2-x,1/4+y,3/4+z
32 1/4+x,1/2-y,3/4+z
_cell_length_a                   11.2657(18)
_cell_length_b                   20.517(4)
_cell_length_c                   34.413(7)
_cell_angle_alpha                90
_cell_angle_beta                 90
_cell_angle_gamma                90
_cell_volume                     7954.16
loop_
_atom_site_label
_atom_site_type_symbol
_atom_site_fract_x
_atom_site_fract_y
_atom_site_fract_z
O4 O 0.770(3) 0.3172(16) -0.0791(10)
C13 C 0.856(4) 0.2940(19) -0.1059(12)
C13K C 0.894(4) 0.2940(19) -0.1441(12)
O4K O 0.980(3) 0.3172(16) -0.1709(10)
Ni1 Ni 0.3750 0.3750 0.03766(3)
C2 C 0.6235(10) 0.3425(5) 0.0689(3)
H2 H 0.5810 0.3204 0.0880
C4 C 0.6245(10) 0.4084(5) 0.0141(3)
H4 H 0.5845 0.4329 -0.0044
C5 C 0.8085(4) 0.3761(4) 0.04135(15)
C7 C 0.7433(8) 0.3417(6) 0.0705(3)
H6 H 0.7825 0.3192 0.0902
C9 C 0.7451(8) 0.4084(5) 0.0133(3)
H8 H 0.7849 0.4305 -0.0063
O1 O 0.3772(4) 0.2749(2) 0.04116(12)
N1 N 0.5608(3) 0.3753(3) 0.03982(14)
N2 N 0.3750 0.3750 -0.02257(18)
O2 O 0.3568(5) 0.3061(4) 0.09878(17)
N3 N 0.3669(5) 0.2605(4) 0.07639(17)
C10 C 0.3750 0.3750 -0.1034(2)
O3 O 0.3711(7) 0.2025(4) 0.0856(2)
C11 C 0.3365(6) 0.4279(5) -0.08276(18)
H9 H 0.317(6) 0.464(4) -0.097(2)
C12 C 0.3379(6) 0.4260(4) -0.04282(18)
H10 H 0.3114 0.4624 -0.0293
C5M C 0.9415(4) 0.3739(4) 0.04135(15)
C7M C 1.0067(8) 0.4083(6) 0.0705(3)
C2M C 1.1265(10) 0.4075(5) 0.0689(3)
H2M H 1.1690 0.4296 0.0880
N1M N 1.1892(3) 0.3747(3) 0.03982(14)
C4M C 1.1255(10) 0.3416(5) 0.0141(3)
H4M H 1.1655 0.3171 -0.0044
C9M C 1.0049(8) 0.3416(5) 0.0133(3)
H8M H 0.9651 0.3195 -0.0063
H6M H 0.9675 0.4308 0.0902
C10F C 0.3750 0.3750 -0.1466(2)
C11F C 0.3365(6) 0.3221(5) -0.16724(18)
H9F H 0.317(6) 0.286(4) -0.153(2)
C12F C 0.3379(6) 0.3240(4) -0.20718(18)
N2F N 0.3750 0.3750 -0.22743(18)
C12K C 0.4121(6) 0.4260(4) -0.20718(18)
C11K C 0.4135(6) 0.4279(5) -0.16724(18)
H9K H 0.433(6) 0.464(4) -0.153(2)
H10K H 0.4386 0.4624 -0.2207
H10F H 0.3114 0.2876 -0.2207
C11M C 0.4135(6) 0.3221(5) -0.08276(18)
H9M H 0.433(6) 0.286(4) -0.097(2)
C12M C 0.4121(6) 0.3240(4) -0.04282(18)
H10M H 0.4386 0.2876 -0.0293
O1M O 0.3728(4) 0.4751(2) 0.04116(12)
O2M O 0.3932(5) 0.4439(4) 0.09878(17)
N3M N 0.3831(5) 0.4895(4) 0.07639(17)
O3M O 0.3789(7) 0.5475(4) 0.0856(2)
C2M_2 C 0.1265(10) 0.4075(5) 0.0689(3)
H2M_2 H 0.1690 0.4296 0.0880
C4M_2 C 0.1255(10) 0.3416(5) 0.0141(3)
H4M_2 H 0.1655 0.3171 -0.0044
C5M_2 C -0.0585(4) 0.3739(4) 0.04135(15)
C7M_2 C 0.0067(8) 0.4083(6) 0.0705(3)
H6M_2 H -0.0325 0.4308 0.0902
C9M_2 C 0.0049(8) 0.3416(5) 0.0133(3)
H8M_2 H -0.0349 0.3195 -0.0063
N1M_2 N 0.1892(3) 0.3747(3) 0.03982(14)
C5_2 C -0.1915(4) 0.3761(4) 0.04135(15)
C7_2 C -0.2567(8) 0.3417(6) 0.0705(3)
C2_2 C -0.3765(10) 0.3425(5) 0.0689(3)
H2_2 H -0.4190 0.3204 0.0880
N1_2 N -0.4392(3) 0.3753(3) 0.03982(14)
C4_2 C -0.3755(10) 0.4084(5) 0.0141(3)
H4_2 H -0.4155 0.4329 -0.0044
C9_2 C -0.2549(8) 0.4084(5) 0.0133(3)
H8_2 H -0.2151 0.4305 -0.0063
H6_2 H -0.2175 0.3192 0.0902
Ni1M Ni 1.3750 0.3750 0.03766(3)
O1M_2 O 1.3728(4) 0.4751(2) 0.04116(12)
O2M_2 O 1.3932(5) 0.4439(4) 0.09878(17)
N3M_2 N 1.3831(5) 0.4895(4) 0.07639(17)
O3M_2 O 1.3789(7) 0.5475(4) 0.0856(2)
O1_2 O 1.3772(4) 0.2749(2) 0.04116(12)
O2_2 O 1.3568(5) 0.3061(4) 0.09878(17)
N3_2 N 1.3669(5) 0.2605(4) 0.07639(17)
O3_2 O 1.3711(7) 0.2025(4) 0.0856(2)
Ni1F Ni 0.3750 0.3750 -0.28766(3)
Ni1_2 Ni -0.6250 0.3750 0.03766(3)
N1_3 N 1.5608(3) 0.3753(3) 0.03982(14)
N2_2 N 1.3750 0.3750 -0.02257(18)
C1? C 0.6196(10) 0.3786(7) 0.0718(3)
H1? H 0.5764 0.3817 0.0947
C3? C 0.6273(10) 0.3783(7) 0.0057(4)
H3? H 0.5880 0.3799 -0.0181
C6? C 0.7419(10) 0.3779(7) 0.0748(3)
H5? H 0.7785 0.3787 0.0990
C8? C 0.7499(10) 0.3788(7) 0.0060(4)
H7? H 0.7925 0.3810 -0.0171
loop_
_geom_bond_atom_site_label_1
_geom_bond_atom_site_label_2
_geom_bond_site_symmetry_1
_geom_bond_site_symmetry_2
Ni1 O1 1_555 1_555
C2 H2 1_555 1_555
C4 H4 1_555 1_555
C5 C7 1_555 1_555
C7 C2 1_555 1_555
H6 C7 1_555 1_555
C9 C4 1_555 1_555
H8 C9 1_555 1_555
O1 N3 1_555 1_555
N1 Ni1 1_555 1_555
N2 Ni1 1_555 1_555
O2 N3 1_555 1_555
N3 O3 1_555 1_555
C10 C11 1_555 1_555
C11 H9 1_555 1_555
C12 N2 1_555 1_555
H10 C12 1_555 1_555
O4 C13 1_555 1_555
C13 C13K 1_555 1_555
C5M C5 1_555 1_555
C7M C5M 1_555 1_555
C2M C7M 1_555 1_555
H2M C2M 1_555 1_555
N1M C2M 1_555 1_555
C4M N1M 1_555 1_555
H4M C4M 1_555 1_555
C9M C5M 1_555 1_555
H8M C9M 1_555 1_555
H6M C7M 1_555 1_555
C10F C10 1_555 1_555
C11F C10F 1_555 1_555
H9F C11F 1_555 1_555
C12F C11F 1_555 1_555
N2F C12F 1_555 1_555
C12K N2F 1_555 1_555
C11K C10F 1_555 1_555
H9K C11K 1_555 1_555
H10K C12K 1_555 1_555
H10F C12F 1_555 1_555
C11M C10 1_555 1_555
H9M C11M 1_555 1_555
C12M N2 1_555 1_555
H10M C12M 1_555 1_555
C13K O4K 1_555 1_555
O1M Ni1 1_555 1_555
O2M N3M 1_555 1_555
N3M O1M 1_555 1_555
O3M N3M 1_555 1_555
C2M_2 H2M_2 1_555 1_555
C4M_2 H4M_2 1_555 1_555
C5M_2 C7M_2 1_555 1_555
C7M_2 C2M_2 1_555 1_555
H6M_2 C7M_2 1_555 1_555
C9M_2 C4M_2 1_555 1_555
H8M_2 C9M_2 1_555 1_555
N1M_2 Ni1 1_555 1_555
C5_2 C5M_2 1_555 1_555
C7_2 C5_2 1_555 1_555
C2_2 C7_2 1_555 1_555
H2_2 C2_2 1_555 1_555
N1_2 C2_2 1_555 1_555
C4_2 N1_2 1_555 1_555
H4_2 C4_2 1_555 1_555
C9_2 C5_2 1_555 1_555
H8_2 C9_2 1_555 1_555
H6_2 C7_2 1_555 1_555
Ni1M N1M 1_555 1_555
O1M_2 Ni1M 1_555 1_555
O2M_2 N3M_2 1_555 1_555
N3M_2 O1M_2 1_555 1_555
O3M_2 N3M_2 1_555 1_555
O1_2 Ni1M 1_555 1_555
O2_2 N3_2 1_555 1_555
N3_2 O1_2 1_555 1_555
O3_2 N3_2 1_555 1_555
Ni1F N2F 1_555 1_555
Ni1_2 N1_2 1_555 1_555
N1_3 Ni1M 1_555 1_555
N2_2 Ni1M 1_555 1_555
C2 N1 1_555 1_555
C4 N1 1_555 1_555
C5 C9 1_555 1_555
C11 C12 1_555 1_555
C4M C9M 1_555 1_555
C12K C11K 1_555 1_555
C11M C12M 1_555 1_555
C2M_2 N1M_2 1_555 1_555
C4M_2 N1M_2 1_555 1_555
C5M_2 C9M_2 1_555 1_555
C4_2 C9_2 1_555 1_555

#END
