
#######################################################################
#
#                 Cambridge Crystallographic Data Centre
#                                CCDC 
#
#######################################################################
#
# If this CIF has been generated from an entry in the Cambridge 
# Structural Database, then it will include bibliographic, chemical, 
# crystal, experimental, refinement or atomic coordinate data resulting 
# from the CCDC's data processing and validation procedures.
#
#######################################################################

data_UGIHAV
_symmetry_cell_setting           monoclinic
_symmetry_space_group_name_H-M   'P 21/c'
_symmetry_Int_Tables_number      14
_space_group_name_Hall           '-P 2ybc'
loop_
_symmetry_equiv_pos_site_id
_symmetry_equiv_pos_as_xyz
1 x,y,z
2 -x,1/2+y,1/2-z
3 -x,-y,-z
4 x,1/2-y,1/2+z
_cell_length_a                   10.0426(16)
_cell_length_b                   14.643(2)
_cell_length_c                   15.916(3)
_cell_angle_alpha                90
_cell_angle_beta                 99.718(2)
_cell_angle_gamma                90
_cell_volume                     2306.92
loop_
_atom_site_label
_atom_site_type_symbol
_atom_site_fract_x
_atom_site_fract_y
_atom_site_fract_z
O1 O 0.9294(10) 0.1004(6) 0.8926(7)
Zn1 Zn 0.18749(3) 0.81922(2) 0.52180(2)
C1 C 0.6081(5) 1.1900(3) 0.9606(4)
C2 C 0.0271(6) 0.9465(4) 0.6349(4)
H1 H -0.0257 0.9676 0.5850
O2 O 0.6163(5) 1.2324(3) 1.0280(3)
C3 C -0.2127(7) 0.6679(5) 0.3465(4)
H2 H -0.2118 0.6486 0.4022
O3 O 0.6916(5) 1.2011(4) 0.9108(3)
N1 N 0.1175(4) 0.9305(3) 0.7674(3)
O4 O -0.0120(5) 0.7355(4) 0.4741(3)
N2 N -0.2790(5) 0.4563(3) 0.0035(3)
O5 O 0.0734(5) 0.8176(3) 0.3833(3)
N3 N -0.3649(5) 0.5702(3) 0.0659(3)
N4 N 0.1194(4) 0.8772(3) 0.6398(3)
C4 C 0.1545(6) 0.9466(4) 0.8588(4)
H3 H 0.1765 0.8887 0.8873
H4 H 0.0773 0.9720 0.8800
C5 C 0.4922(5) 1.1264(3) 0.9335(3)
C6 C 0.2741(5) 1.0113(3) 0.8817(3)
C7 C -0.0135(5) 0.7626(4) 0.3999(3)
C8 C 0.4089(6) 1.1012(4) 0.9893(3)
H5 H 0.4254 1.1232 1.0449
C9 C 0.3558(6) 1.0376(4) 0.8248(3)
H6 H 0.3370 1.0176 0.7686
C10 C -0.1204(5) 0.7277(4) 0.3298(3)
C11 C 0.4655(6) 1.0937(4) 0.8510(3)
H7 H 0.5219 1.1097 0.8126
C12 C -0.2866(6) 0.5341(4) -0.0481(4)
H8 H -0.2594 0.5372 -0.1011
C13 C 0.3028(5) 1.0449(4) 0.9645(3)
H9 H 0.2481 1.0283 1.0036
C14 C -0.3263(5) 0.4816(4) 0.0717(3)
C15 C 0.1729(5) 0.8696(3) 0.7206(3)
C16 C 0.0244(5) 0.9794(4) 0.7133(4)
H10 H -0.0301 1.0261 0.7278
C17 C -0.3386(7) 0.6029(4) -0.0098(4)
H11 H -0.3541 0.6620 -0.0306
C18 C -0.4209(6) 0.6227(4) 0.1300(4)
H12 H -0.4814 0.5840 0.1557
H13 H -0.4734 0.6733 0.1024
C19 C -0.3389(6) 0.4223(4) 0.1457(4)
H14 H -0.3099 0.3615 0.1350
H15 H -0.4314 0.4209 0.1538
H16 H -0.2835 0.4461 0.1959
C20 C -0.1190(6) 0.7545(4) 0.2459(4)
H17 H -0.0537 0.7946 0.2328
C21 C -0.3120(5) 0.6597(4) 0.1994(3)
C22 C -0.2185(7) 0.7193(4) 0.1819(4)
H18 H -0.2201 0.7376 0.1258
C23 C 0.2788(7) 0.8044(4) 0.7586(4)
H19 H 0.2516 0.7434 0.7415
H20 H 0.2915 0.8089 0.8196
H21 H 0.3620 0.8187 0.7394
C24 C -0.3094(7) 0.6346(6) 0.2818(4)
H22 H -0.3742 0.5941 0.2949
Zn1A Zn -0.18749(3) 0.31922(2) -0.02180(2)
Zn1A_2 Zn 0.81251(3) 1.31922(2) 0.97820(2)
O2A O 0.3837(5) 0.7324(3) 0.4720(3)
O3A O 0.3084(5) 0.7011(4) 0.5892(3)
N2A N 0.2790(5) 0.9563(3) 0.4965(3)
loop_
_geom_bond_atom_site_label_1
_geom_bond_atom_site_label_2
_geom_bond_site_symmetry_1
_geom_bond_site_symmetry_2
Zn1 O4 1_555 1_555
C1 O2 1_555 1_555
C2 H1 1_555 1_555
O2 Zn1A_2 1_555 1_555
C3 H2 1_555 1_555
O3 C1 1_555 1_555
N1 C4 1_555 1_555
O4 C7 1_555 1_555
N2 C12 1_555 1_555
O5 Zn1 1_555 1_555
N3 C14 1_555 1_555
N4 Zn1 1_555 1_555
C4 H3 1_555 1_555
H4 C4 1_555 1_555
C5 C1 1_555 1_555
C6 C4 1_555 1_555
C7 O5 1_555 1_555
C8 C5 1_555 1_555
H5 C8 1_555 1_555
C9 C6 1_555 1_555
H6 C9 1_555 1_555
C10 C3 1_555 1_555
C11 C5 1_555 1_555
H7 C11 1_555 1_555
C12 H8 1_555 1_555
C13 C6 1_555 1_555
H9 C13 1_555 1_555
C14 N2 1_555 1_555
C15 N1 1_555 1_555
C16 C2 1_555 1_555
H10 C16 1_555 1_555
C17 N3 1_555 1_555
H11 C17 1_555 1_555
C18 N3 1_555 1_555
H12 C18 1_555 1_555
H13 C18 1_555 1_555
C19 C14 1_555 1_555
H14 C19 1_555 1_555
H15 C19 1_555 1_555
H16 C19 1_555 1_555
C20 C10 1_555 1_555
H17 C20 1_555 1_555
C21 C18 1_555 1_555
C22 C20 1_555 1_555
H18 C22 1_555 1_555
C23 C15 1_555 1_555
H19 C23 1_555 1_555
H20 C23 1_555 1_555
H21 C23 1_555 1_555
C24 C3 1_555 1_555
H22 C24 1_555 1_555
Zn1A N2 1_555 1_555
Zn1A_2 O3 1_555 1_555
O2A Zn1 1_555 1_555
O3A Zn1 1_555 1_555
N2A Zn1 1_555 1_555
C2 N4 1_555 1_555
N1 C16 1_555 1_555
N4 C15 1_555 1_555
C7 C10 1_555 1_555
C8 C13 1_555 1_555
C9 C11 1_555 1_555
C12 C17 1_555 1_555
C21 C22 1_555 1_555
C21 C24 1_555 1_555

#END
