
#######################################################################
#
#                 Cambridge Crystallographic Data Centre
#                                CCDC 
#
#######################################################################
#
# If this CIF has been generated from an entry in the Cambridge 
# Structural Database, then it will include bibliographic, chemical, 
# crystal, experimental, refinement or atomic coordinate data resulting 
# from the CCDC's data processing and validation procedures.
#
#######################################################################

data_UGIKEC
_symmetry_cell_setting           triclinic
_symmetry_space_group_name_H-M   'P 1'
_symmetry_Int_Tables_number      1
_space_group_name_Hall           'P 1'
loop_
_symmetry_equiv_pos_site_id
_symmetry_equiv_pos_as_xyz
1 x,y,z
_cell_length_a                   6.8171(8)
_cell_length_b                   10.5774(11)
_cell_length_c                   13.031(2)
_cell_angle_alpha                104.252(2)
_cell_angle_beta                 94.747(2)
_cell_angle_gamma                108.129(2)
_cell_volume                     852.449
loop_
_atom_site_label
_atom_site_type_symbol
_atom_site_fract_x
_atom_site_fract_y
_atom_site_fract_z
Pb1 Pb 0.7359 1.3278 0.5412
S1 S 0.3453(3) 1.09022(16) 0.66601(15)
O1 O 0.5144(16) 1.1334(8) 0.6080(7)
O2 O 0.4269(10) 1.0907(6) 0.7726(4)
O3 O 0.2022(12) 1.1657(6) 0.6670(6)
O4 O 0.4409(10) 1.4151(6) 0.5129(5)
H1 H 0.3737 1.3801 0.4489
H2 H 0.4852 1.5023 0.5221
O5 O 0.9516(12) 1.1694(7) 0.4679(5)
H3 H 1.0614 1.1800 0.5101
H4 H 0.8845 1.0816 0.4482
N1 N 0.5370(10) 1.1533(6) 0.3554(5)
N2 N 0.2540(10) 0.6420(6) -0.1529(5)
N3 N -0.1174(14) 0.4992(8) 0.4222(7)
H5 H -0.0286 0.4687 0.3840
H6 H -0.2255 0.4946 0.3751
C1 C 0.2012(12) 0.9156(7) 0.5950(6)
C2 C -0.0105(12) 0.8732(7) 0.5565(6)
H7 H -0.0812 0.9363 0.5692
C3 C -0.1181(12) 0.7343(7) 0.4980(7)
H8 H -0.2601 0.7052 0.4702
C4 C -0.0122(12) 0.6400(6) 0.4816(6)
C5 C 0.1984(13) 0.6839(8) 0.5230(7)
H9 H 0.2688 0.6205 0.5129
C6 C 0.3054(12) 0.8209(7) 0.5793(7)
H10 H 0.4476 0.8496 0.6066
C7 C 0.4104(10) 0.9492(6) 0.1547(6)
C8 C 0.4870(15) 1.0914(7) 0.1654(7)
H11 H 0.4974 1.1217 0.1041
C9 C 0.5463(15) 1.1860(8) 0.2639(7)
H12 H 0.5967 1.2796 0.2672
C10 C 0.4598(14) 1.0189(7) 0.3477(7)
H13 H 0.4509 0.9928 0.4107
C11 C 0.3922(13) 0.9163(7) 0.2510(6)
H14 H 0.3338 0.8240 0.2503
C12 C 0.3516(10) 0.8429(6) 0.0491(6)
C13 C 0.3583(14) 0.8788(7) -0.0483(7)
H15 H 0.3957 0.9715 -0.0477
C14 C 0.3100(15) 0.7776(8) -0.1426(7)
H16 H 0.3163 0.8047 -0.2053
C15 C 0.2458(12) 0.6078(7) -0.0599(7)
H17 H 0.2047 0.5142 -0.0634
C16 C 0.2946(12) 0.7035(7) 0.0401(6)
H18 H 0.2890 0.6736 0.1016
N4 N 0.9218(12) 1.9843(7) 1.2650(6)
N5 N 0.7146(12) 1.5142(7) 0.7409(6)
C17 C 0.8347(11) 1.7985(7) 1.0579(6)
C18 C 0.8044(15) 1.7517(8) 1.1472(7)
H19 H 0.7563 1.6570 1.1405
C19 C 0.8469(18) 1.8485(10) 1.2471(7)
H20 H 0.8205 1.8149 1.3060
C20 C 0.9532(13) 2.0281(7) 1.1791(7)
H21 H 1.0064 2.1234 1.1890
C21 C 0.9128(12) 1.9428(8) 1.0773(7)
H22 H 0.9371 1.9804 1.0202
C22 C 0.7875(11) 1.7003(7) 0.9475(6)
C23 C 0.7377(14) 1.5604(7) 0.9303(7)
H23 H 0.7273 1.5246 0.9888
C24 C 0.7027(16) 1.4718(8) 0.8293(7)
H24 H 0.6689 1.3774 0.8219
C25 C 0.7584(16) 1.6483(9) 0.7563(7)
H25 H 0.7668 1.6811 0.6962
C26 C 0.7923(15) 1.7432(8) 0.8548(7)
H26 H 0.8187 1.8363 0.8597
Pb1_2 Pb -0.2641 0.3278 0.5412
N3_2 N 0.8826(14) 1.4992(8) 0.4222(7)
S2 S 0.3072(3) 0.48004(17) 0.25752(15)
O6 O 0.2094(10) 0.3967(5) 0.3267(5)
O7 O 0.5278(15) 0.4980(11) 0.2631(9)
O8 O 0.2579(14) 0.6065(6) 0.2761(5)
N6 N -0.122(2) 0.1137(13) -0.1795(11)
H27 H -0.0532 0.0760 -0.2219
H28 H -0.2546 0.0943 -0.1989
C27 C 0.1822(7) 0.3795(5) 0.1245(3)
C28 C 0.2945(5) 0.3235(6) 0.0531(5)
H29 H 0.4375 0.3439 0.0735
C29 C 0.1933(7) 0.2369(6) -0.0487(4)
H30 H 0.2684 0.1994 -0.0964
C30 C -0.0204(8) 0.2064(5) -0.0792(3)
C31 C -0.1328(5) 0.2625(5) -0.0078(4)
H31 H -0.2758 0.2421 -0.0282
C32 C -0.0315(7) 0.3490(5) 0.0940(4)
H32 H -0.1067 0.3865 0.1417
O9 O 0.3101(10) 0.2240(6) 0.4174(5)
H33 H 0.2764 0.2772 0.3854
H34 H 0.2517 0.1426 0.3749
loop_
_geom_bond_atom_site_label_1
_geom_bond_atom_site_label_2
_geom_bond_site_symmetry_1
_geom_bond_site_symmetry_2
Pb1 O1 1_555 1_555
S1 O1 1_555 1_555
O2 S1 1_555 1_555
O3 S1 1_555 1_555
O4 Pb1 1_555 1_555
H1 O4 1_555 1_555
H2 O4 1_555 1_555
O5 Pb1 1_555 1_555
H3 O5 1_555 1_555
H4 O5 1_555 1_555
N1 Pb1 1_555 1_555
N2 C14 1_555 1_555
N3 H5 1_555 1_555
H6 N3 1_555 1_555
C1 S1 1_555 1_555
C2 C1 1_555 1_555
H7 C2 1_555 1_555
C3 C2 1_555 1_555
H8 C3 1_555 1_555
C4 N3 1_555 1_555
C5 C4 1_555 1_555
H9 C5 1_555 1_555
C6 C1 1_555 1_555
H10 C6 1_555 1_555
C7 C8 1_555 1_555
C8 H11 1_555 1_555
C9 N1 1_555 1_555
H12 C9 1_555 1_555
C10 N1 1_555 1_555
H13 C10 1_555 1_555
C11 C7 1_555 1_555
H14 C11 1_555 1_555
C12 C7 1_555 1_555
C13 C12 1_555 1_555
H15 C13 1_555 1_555
C14 C13 1_555 1_555
H16 C14 1_555 1_555
C15 N2 1_555 1_555
H17 C15 1_555 1_555
C16 C12 1_555 1_555
H18 C16 1_555 1_555
N4 C19 1_555 1_555
N5 Pb1 1_555 1_555
C17 C18 1_555 1_555
C18 H19 1_555 1_555
C19 C18 1_555 1_555
H20 C19 1_555 1_555
C20 N4 1_555 1_555
H21 C20 1_555 1_555
C21 C17 1_555 1_555
H22 C21 1_555 1_555
C22 C17 1_555 1_555
C23 C22 1_555 1_555
H23 C23 1_555 1_555
C24 N5 1_555 1_555
H24 C24 1_555 1_555
C25 N5 1_555 1_555
H25 C25 1_555 1_555
C26 C22 1_555 1_555
H26 C26 1_555 1_555
S2 O6 1_555 1_555
O7 S2 1_555 1_555
O8 S2 1_555 1_555
N6 H27 1_555 1_555
H28 N6 1_555 1_555
C27 S2 1_555 1_555
C28 C27 1_555 1_555
H29 C28 1_555 1_555
C29 C28 1_555 1_555
H30 C29 1_555 1_555
C30 N6 1_555 1_555
C31 C30 1_555 1_555
H31 C31 1_555 1_555
C32 C27 1_555 1_555
H32 C32 1_555 1_555
O9 H33 1_555 1_555
H34 O9 1_555 1_555
Pb1_2 N3 1_555 1_555
N3_2 Pb1 1_555 1_555
C3 C4 1_555 1_555
C5 C6 1_555 1_555
C8 C9 1_555 1_555
C10 C11 1_555 1_555
C15 C16 1_555 1_555
C20 C21 1_555 1_555
C23 C24 1_555 1_555
C25 C26 1_555 1_555
C29 C30 1_555 1_555
C31 C32 1_555 1_555

#END
