
#######################################################################
#
#                 Cambridge Crystallographic Data Centre
#                                CCDC 
#
#######################################################################
#
# If this CIF has been generated from an entry in the Cambridge 
# Structural Database, then it will include bibliographic, chemical, 
# crystal, experimental, refinement or atomic coordinate data resulting 
# from the CCDC's data processing and validation procedures.
#
#######################################################################

data_UGILAZ
_symmetry_cell_setting           orthorhombic
_symmetry_space_group_name_H-M   'P b c n'
_symmetry_Int_Tables_number      60
_space_group_name_Hall           '-P 2n 2ab'
loop_
_symmetry_equiv_pos_site_id
_symmetry_equiv_pos_as_xyz
1 x,y,z
2 1/2-x,1/2-y,1/2+z
3 -x,y,1/2-z
4 1/2+x,1/2-y,-z
5 -x,-y,-z
6 1/2+x,1/2+y,1/2-z
7 x,-y,1/2+z
8 1/2-x,1/2+y,z
_cell_length_a                   8.2457(16)
_cell_length_b                   15.094(3)
_cell_length_c                   26.602(5)
_cell_angle_alpha                90
_cell_angle_beta                 90
_cell_angle_gamma                90
_cell_volume                     3310.9
loop_
_atom_site_label
_atom_site_type_symbol
_atom_site_fract_x
_atom_site_fract_y
_atom_site_fract_z
C1 C 0.0304(2) -0.02368(10) 0.07131(6)
C2 C 0.0397(2) -0.03724(11) 0.01477(6)
H1 H 0.1526 -0.0417 0.0049
H2 H -0.0129 -0.0927 0.0062
C3 C -0.26360(19) -0.00676(10) 0.24465(5)
C4 C -0.4406(2) -0.0117(2) 0.23028(7)
H3 H -0.4639 0.0380 0.2084
H4 H -0.4561 -0.0652 0.2106
C5 C 0.0137(2) 0.18167(11) 0.12429(6)
H5 H -0.0456 0.1632 0.0965
C6 C 0.1476(3) 0.18203(12) 0.19266(7)
H6 H 0.1997 0.1628 0.2217
C7 C 0.1391(3) 0.26732(12) 0.17721(7)
H7 H 0.1828 0.3166 0.1933
C8 C 0.0006(2) 0.34663(11) 0.10708(6)
H8 H 0.0667 0.3959 0.1183
H9 H -0.1105 0.3591 0.1168
C9 C 0.0089(2) 0.34232(10) 0.05056(6)
C10 C -0.0974(2) 0.39518(11) 0.02356(6)
H10 H -0.1769 0.4272 0.0405
C11 C -0.0868(2) 0.40095(11) -0.02851(6)
H11 H -0.1588 0.4369 -0.0460
C12 C 0.0304(2) 0.35360(10) -0.05451(6)
C13 C 0.1344(2) 0.29880(11) -0.02758(6)
H12 H 0.2117 0.2655 -0.0446
C14 C 0.1243(2) 0.29323(11) 0.02440(6)
H13 H 0.1951 0.2565 0.0419
C15 C 0.0467(3) 0.36789(11) -0.11036(6)
H14 H -0.0508 0.3966 -0.1226
H15 H 0.1370 0.4076 -0.1165
C16 C 0.0018(2) 0.20689(11) -0.13169(7)
H16 H -0.0660 0.1940 -0.1047
C17 C 0.1621(3) 0.27929(12) -0.18191(7)
H17 H 0.2254 0.3233 -0.1965
C18 C 0.1403(3) 0.19557(12) -0.19902(7)
H18 H 0.1866 0.1725 -0.2281
Co1 Co 0.02369(2) -0.010950(13) 0.166272(7)
N1 N 0.06848(18) 0.12809(9) 0.15938(5)
N2 N 0.05399(17) 0.26654(9) 0.13354(5)
N3 N 0.07254(18) 0.28601(9) -0.13895(5)
N4 N 0.03963(17) 0.14971(9) -0.16711(5)
O1 O -0.10078(16) -0.00003(7) 0.09117(4)
O2 O 0.15488(15) -0.03819(8) 0.09758(4)
O3 O -0.16906(15) 0.01939(8) 0.21105(4)
O4 O -0.22482(14) -0.02877(8) 0.28850(4)
C1D C -0.0304(2) 0.02368(10) -0.07131(6)
C2D C -0.0397(2) 0.03724(11) -0.01477(6)
H1D H -0.1526 0.0417 -0.0049
H2D H 0.0129 0.0927 -0.0062
O1D O 0.10078(16) 0.00003(7) -0.09117(4)
O2D O -0.15488(15) 0.03819(8) -0.09758(4)
C3B C -0.73640(19) -0.00676(10) 0.25535(5)
C4B C -0.5594(2) -0.0117(2) 0.26972(7)
H3B H -0.5361 0.0380 0.2916
H4B H -0.5439 -0.0652 0.2894
O3B O -0.83094(15) 0.01939(8) 0.28895(4)
O4B O -0.77518(14) -0.02877(8) 0.21150(4)
C5B C -1.0137(2) 0.18167(11) 0.37571(6)
H5B H -0.9544 0.1632 0.4035
C6B C -1.1476(3) 0.18203(12) 0.30734(7)
H6B H -1.1997 0.1628 0.2783
C7B C -1.1391(3) 0.26732(12) 0.32279(7)
H7B H -1.1828 0.3166 0.3067
C8B C -1.0006(2) 0.34663(11) 0.39292(6)
H8B H -1.0667 0.3959 0.3817
H9B H -0.8895 0.3591 0.3832
C9B C -1.0089(2) 0.34232(10) 0.44944(6)
C10B C -0.9026(2) 0.39518(11) 0.47644(6)
H10B H -0.8231 0.4272 0.4595
C11B C -0.9132(2) 0.40095(11) 0.52851(6)
H11B H -0.8412 0.4369 0.5460
C12B C -1.0304(2) 0.35360(10) 0.55451(6)
C13B C -1.1344(2) 0.29880(11) 0.52758(6)
H12B H -1.2117 0.2655 0.5446
C14B C -1.1243(2) 0.29323(11) 0.47560(6)
H13B H -1.1951 0.2565 0.4581
C15B C -1.0467(3) 0.36789(11) 0.61036(6)
H14B H -0.9492 0.3966 0.6226
H15B H -1.1370 0.4076 0.6165
C16B C -1.0018(2) 0.20689(11) 0.63169(7)
H16B H -0.9340 0.1940 0.6047
C17B C -1.1621(3) 0.27929(12) 0.68191(7)
H17B H -1.2254 0.3233 0.6965
C18B C -1.1403(3) 0.19557(12) 0.69902(7)
H18B H -1.1866 0.1725 0.7281
Co1B Co -1.02369(2) -0.010950(13) 0.333728(7)
N1B N -1.06848(18) 0.12809(9) 0.34062(5)
N2B N -1.05399(17) 0.26654(9) 0.36646(5)
N3B N -1.07254(18) 0.28601(9) 0.63895(5)
N4B N -1.03963(17) 0.14971(9) 0.66711(5)
Co1_2 Co -0.97631(2) -0.010950(13) 0.166272(7)
Co1B_2 Co -0.02369(2) -0.010950(13) 0.333728(7)
Co1D Co -0.02369(2) 0.010950(13) -0.166272(7)
Co1F Co -0.97631(2) 0.010950(13) 0.666272(7)
N4D N -0.03963(17) -0.14971(9) 0.16711(5)
N4F N -0.96037(17) -0.14971(9) 0.33289(5)
O1B O -0.89922(16) -0.00003(7) 0.40883(4)
O2B O -1.15488(15) -0.03819(8) 0.40242(4)
O4_2 O -1.22482(14) -0.02877(8) 0.28850(4)
O4B_2 O 0.22482(14) -0.02877(8) 0.21150(4)
loop_
_geom_bond_atom_site_label_1
_geom_bond_atom_site_label_2
_geom_bond_site_symmetry_1
_geom_bond_site_symmetry_2
C1 C2 1_555 1_555
C2 H1 1_555 1_555
H2 C2 1_555 1_555
C3 C4 1_555 1_555
C4 H3 1_555 1_555
H4 C4 1_555 1_555
C5 H5 1_555 1_555
C6 H6 1_555 1_555
C7 C6 1_555 1_555
H7 C7 1_555 1_555
C8 H8 1_555 1_555
H9 C8 1_555 1_555
C9 C8 1_555 1_555
C10 C9 1_555 1_555
H10 C10 1_555 1_555
C11 C10 1_555 1_555
H11 C11 1_555 1_555
C12 C11 1_555 1_555
C13 C12 1_555 1_555
H12 C13 1_555 1_555
C14 C9 1_555 1_555
H13 C14 1_555 1_555
C15 C12 1_555 1_555
H14 C15 1_555 1_555
H15 C15 1_555 1_555
C16 H16 1_555 1_555
C17 H17 1_555 1_555
C18 C17 1_555 1_555
H18 C18 1_555 1_555
Co1 N1 1_555 1_555
N1 C5 1_555 1_555
N2 C5 1_555 1_555
N3 C15 1_555 1_555
N4 C16 1_555 1_555
O1 C1 1_555 1_555
O2 C1 1_555 1_555
O3 C3 1_555 1_555
O4 C3 1_555 1_555
C1D C2D 1_555 1_555
C2D C2 1_555 1_555
H1D C2D 1_555 1_555
H2D C2D 1_555 1_555
O1D C1D 1_555 1_555
O2D C1D 1_555 1_555
C3B C4B 1_555 1_555
C4B C4 1_555 1_555
H3B C4B 1_555 1_555
H4B C4B 1_555 1_555
O3B C3B 1_555 1_555
O4B C3B 1_555 1_555
C5B H5B 1_555 1_555
C6B H6B 1_555 1_555
C7B C6B 1_555 1_555
H7B C7B 1_555 1_555
C8B H8B 1_555 1_555
H9B C8B 1_555 1_555
C9B C8B 1_555 1_555
C10B C9B 1_555 1_555
H10B C10B 1_555 1_555
C11B C10B 1_555 1_555
H11B C11B 1_555 1_555
C12B C11B 1_555 1_555
C13B C12B 1_555 1_555
H12B C13B 1_555 1_555
C14B C9B 1_555 1_555
H13B C14B 1_555 1_555
C15B C12B 1_555 1_555
H14B C15B 1_555 1_555
H15B C15B 1_555 1_555
C16B H16B 1_555 1_555
C17B H17B 1_555 1_555
C18B C17B 1_555 1_555
H18B C18B 1_555 1_555
Co1B O3B 1_555 1_555
N1B C5B 1_555 1_555
N2B C5B 1_555 1_555
N3B C15B 1_555 1_555
N4B C16B 1_555 1_555
Co1_2 O4B 1_555 1_555
Co1B_2 O4 1_555 1_555
Co1D N4 1_555 1_555
Co1F N4B 1_555 1_555
N4D Co1 1_555 1_555
N4F Co1B 1_555 1_555
O1B Co1B 1_555 1_555
O2B Co1B 1_555 1_555
O4_2 Co1B 1_555 1_555
O4B_2 Co1 1_555 1_555
C6 N1 1_555 1_555
C7 N2 1_555 1_555
C8 N2 1_555 1_555
C13 C14 1_555 1_555
C16 N3 1_555 1_555
C17 N3 1_555 1_555
C18 N4 1_555 1_555
Co1 O1 1_555 1_555
Co1 O2 1_555 1_555
Co1 O3 1_555 1_555
O1D Co1D 1_555 1_555
O2D Co1D 1_555 1_555
C6B N1B 1_555 1_555
C7B N2B 1_555 1_555
C8B N2B 1_555 1_555
C13B C14B 1_555 1_555
C16B N3B 1_555 1_555
C17B N3B 1_555 1_555
C18B N4B 1_555 1_555
Co1B N1B 1_555 1_555

#END
